
     RDKit          3D

  0  0  0  0  0  0  0  0  0  0999 V3000
M  V30 BEGIN CTAB
M  V30 COUNTS 76 81 0 0 0
M  V30 BEGIN ATOM
M  V30 1 C -1.17495 -3.1493 0.384337 0
M  V30 2 C -1.50758 -1.6955 0.34126 0
M  V30 3 C -0.66649 -0.653343 0.363808 0
M  V30 4 N -1.4707 0.466206 0.40451 0
M  V30 5 C -2.77867 0.0925737 0.401008 0
M  V30 6 C -3.9005 1.05248 0.50753 0
M  V30 7 O -3.59064 2.13635 1.10971 0
M  V30 8 N -5.1408 0.744881 -0.0198456 0
M  V30 9 C -6.29387 1.56069 0.0393164 0
M  V30 10 C -6.33717 2.66878 0.840632 0
M  V30 11 C -7.50799 3.42719 0.893889 0
M  V30 12 C -8.61353 3.09015 0.164854 0
M  V30 13 C -8.53904 1.97532 -0.627915 0
M  V30 14 C -7.42559 1.19031 -0.725411 0
M  V30 15 N -7.33074 0.0477513 -1.53913 0
M  V30 16 C -2.85212 -1.25073 0.361137 0
M  V30 17 C -3.93884 -2.21494 0.375571 0
M  V30 18 C -4.75458 -2.45191 1.46559 0
M  V30 19 C -5.74165 -3.41522 1.43594 0
M  V30 20 C -5.96745 -4.19799 0.309229 0
M  V30 21 C -5.15762 -3.97114 -0.789084 0
M  V30 22 C -4.18323 -3.00432 -0.729447 0
M  V30 23 C 0.78522 -0.508281 0.240372 0
M  V30 24 C 1.70334 -1.20122 -0.462549 0
M  V30 25 C 1.56558 -2.38105 -1.32524 0
M  V30 26 C 2.98811 -0.595716 -0.351008 0
M  V30 27 C 2.78442 0.486031 0.446719 0
M  V30 28 N 1.46395 0.544093 0.805367 0
M  V30 29 C 3.71815 1.52344 0.898469 0
M  V30 30 O 3.28629 2.25227 1.83992 0
M  V30 31 N 4.98933 1.76278 0.389152 0
M  V30 32 C 5.89067 2.76656 0.825561 0
M  V30 33 C 7.11983 2.88631 0.141425 0
M  V30 34 N 7.39378 1.99887 -0.956293 0
M  V30 35 C 8.07442 3.81081 0.466773 0
M  V30 36 C 7.85023 4.67219 1.50136 0
M  V30 37 C 6.6749 4.594 2.19281 0
M  V30 38 C 5.71663 3.64343 1.844 0
M  V30 39 C 4.17393 -1.09936 -0.959855 0
M  V30 40 C 5.08643 -1.88713 -0.236834 0
M  V30 41 C 6.20638 -2.42876 -0.795791 0
M  V30 42 C 6.50839 -2.23022 -2.12067 0
M  V30 43 C 5.62625 -1.45068 -2.88078 0
M  V30 44 C 4.5094 -0.918614 -2.2942 0
M  V30 45 H -1.17186 -3.55568 -0.643465 0
M  V30 46 H -1.97754 -3.70346 0.954638 0
M  V30 47 H -0.238474 -3.35489 0.929332 0
M  V30 48 H -1.13598 1.44239 0.432573 0
M  V30 49 H -5.24882 -0.165404 -0.533683 0
M  V30 50 H -5.53184 3.02035 1.47167 0
M  V30 51 H -7.51485 4.29089 1.53077 0
M  V30 52 H -9.48945 3.72649 0.258815 0
M  V30 53 H -9.40499 1.69351 -1.21855 0
M  V30 54 H -6.89252 0.0354005 -2.50275 0
M  V30 55 H -7.70328 -0.87099 -1.21386 0
M  V30 56 H -4.63027 -1.88319 2.36177 0
M  V30 57 H -6.34924 -3.5689 2.29619 0
M  V30 58 H -6.73458 -4.95179 0.27747 0
M  V30 59 H -5.33621 -4.58632 -1.6641 0
M  V30 60 H -3.54004 -2.83054 -1.5968 0
M  V30 61 H 1.6266 -3.35026 -0.8006 0
M  V30 62 H 2.32413 -2.36902 -2.18397 0
M  V30 63 H 0.609894 -2.3554 -1.88286 0
M  V30 64 H 0.980455 1.24918 1.41294 0
M  V30 65 H 5.3699 1.16595 -0.41384 0
M  V30 66 H 6.8255 2.11034 -1.8129 0
M  V30 67 H 8.14719 1.28917 -0.838644 0
M  V30 68 H 9.02559 3.87462 -0.094445 0
M  V30 69 H 8.57433 5.42536 1.80099 0
M  V30 70 H 6.48077 5.27698 3.0257 0
M  V30 71 H 4.81598 3.63597 2.4321 0
M  V30 72 H 4.9218 -2.09321 0.813023 0
M  V30 73 H 6.89057 -3.03249 -0.213586 0
M  V30 74 H 7.39181 -2.65886 -2.56692 0
M  V30 75 H 5.82592 -1.26666 -3.93678 0
M  V30 76 H 3.84761 -0.327555 -2.89294 0
M  V30 END ATOM
M  V30 BEGIN BOND
M  V30 1 1 1 2
M  V30 2 2 2 3
M  V30 3 1 3 4
M  V30 4 1 4 5
M  V30 5 1 5 6
M  V30 6 2 6 7
M  V30 7 1 6 8
M  V30 8 1 8 9
M  V30 9 2 9 10
M  V30 10 1 10 11
M  V30 11 2 11 12
M  V30 12 1 12 13
M  V30 13 2 13 14
M  V30 14 1 14 15
M  V30 15 2 5 16
M  V30 16 1 16 17
M  V30 17 2 17 18
M  V30 18 1 18 19
M  V30 19 2 19 20
M  V30 20 1 20 21
M  V30 21 2 21 22
M  V30 22 1 3 23
M  V30 23 2 23 24
M  V30 24 1 24 25
M  V30 25 1 24 26
M  V30 26 2 26 27
M  V30 27 1 27 28
M  V30 28 1 27 29
M  V30 29 2 29 30
M  V30 30 1 29 31
M  V30 31 1 31 32
M  V30 32 2 32 33
M  V30 33 1 33 34
M  V30 34 1 33 35
M  V30 35 2 35 36
M  V30 36 1 36 37
M  V30 37 2 37 38
M  V30 38 1 26 39
M  V30 39 2 39 40
M  V30 40 1 40 41
M  V30 41 2 41 42
M  V30 42 1 42 43
M  V30 43 2 43 44
M  V30 44 1 16 2
M  V30 45 1 22 17
M  V30 46 1 28 23
M  V30 47 1 38 32
M  V30 48 1 44 39
M  V30 49 1 14 9
M  V30 50 1 1 45
M  V30 51 1 1 46
M  V30 52 1 1 47
M  V30 53 1 4 48
M  V30 54 1 8 49
M  V30 55 1 10 50
M  V30 56 1 11 51
M  V30 57 1 12 52
M  V30 58 1 13 53
M  V30 59 1 15 54
M  V30 60 1 15 55
M  V30 61 1 18 56
M  V30 62 1 19 57
M  V30 63 1 20 58
M  V30 64 1 21 59
M  V30 65 1 22 60
M  V30 66 1 25 61
M  V30 67 1 25 62
M  V30 68 1 25 63
M  V30 69 1 28 64
M  V30 70 1 31 65
M  V30 71 1 34 66
M  V30 72 1 34 67
M  V30 73 1 35 68
M  V30 74 1 36 69
M  V30 75 1 37 70
M  V30 76 1 38 71
M  V30 77 1 40 72
M  V30 78 1 41 73
M  V30 79 1 42 74
M  V30 80 1 43 75
M  V30 81 1 44 76
M  V30 END BOND
M  V30 END CTAB
M  END
