
     RDKit          3D

  0  0  0  0  0  0  0  0  0  0999 V3000
M  V30 BEGIN CTAB
M  V30 COUNTS 26 28 0 0 0
M  V30 BEGIN ATOM
M  V30 1 N 4.26222 0.322424 -0.0488519 0
M  V30 2 C 3.06606 -0.296967 0.419766 0
M  V30 3 N 2.92147 -1.28242 1.30607 0
M  V30 4 N 1.659 -1.54926 1.44819 0
M  V30 5 C 0.917188 -0.749738 0.660371 0
M  V30 6 N 1.82811 0.0268251 0.0256967 0
M  V30 7 N 1.50747 1.00179 -0.888314 0
M  V30 8 C -0.526846 -0.773476 0.566581 0 CFG=2
M  V30 9 C -1.12114 -1.02678 -0.761103 0
M  V30 10 C -2.56669 -0.553772 -0.572553 0 CFG=1
M  V30 11 C -2.59666 0.327892 0.609092 0 CFG=1
M  V30 12 C -1.16734 0.526106 1.08633 0
M  V30 13 C -2.87716 0.889398 -0.73957 0
M  V30 14 H 5.08113 -0.310061 -0.19153 0
M  V30 15 H 4.29241 1.34577 -0.230598 0
M  V30 16 H 1.26486 1.97686 -0.642471 0
M  V30 17 H 1.51276 0.722815 -1.91181 0
M  V30 18 H -0.923757 -1.55621 1.24913 0
M  V30 19 H -1.14853 -2.1101 -0.991024 0
M  V30 20 H -0.738381 -0.470114 -1.60311 0
M  V30 21 H -3.37022 -1.27194 -0.796508 0
M  V30 22 H -3.38781 0.146269 1.34079 0
M  V30 23 H -1.14172 0.52886 2.20114 0
M  V30 24 H -0.686849 1.39763 0.630514 0
M  V30 25 H -2.1425 1.58055 -1.21202 0
M  V30 26 H -3.91707 1.15765 -0.954206 0
M  V30 END ATOM
M  V30 BEGIN BOND
M  V30 1 1 1 2
M  V30 2 2 2 3
M  V30 3 1 3 4
M  V30 4 2 4 5
M  V30 5 1 5 6
M  V30 6 1 6 7
M  V30 7 1 5 8
M  V30 8 1 8 9
M  V30 9 1 9 10
M  V30 10 1 10 11
M  V30 11 1 11 12
M  V30 12 1 11 13
M  V30 13 1 6 2
M  V30 14 1 12 8
M  V30 15 1 13 10
M  V30 16 1 1 14
M  V30 17 1 1 15
M  V30 18 1 7 16
M  V30 19 1 7 17
M  V30 20 1 8 18 CFG=1
M  V30 21 1 9 19
M  V30 22 1 9 20
M  V30 23 1 10 21 CFG=1
M  V30 24 1 11 22 CFG=1
M  V30 25 1 12 23
M  V30 26 1 12 24
M  V30 27 1 13 25
M  V30 28 1 13 26
M  V30 END BOND
M  V30 END CTAB
M  END
