
     RDKit          3D

  0  0  0  0  0  0  0  0  0  0999 V3000
M  V30 BEGIN CTAB
M  V30 COUNTS 25 25 0 0 0
M  V30 BEGIN ATOM
M  V30 1 C 2.7023 -0.995434 0.620818 0
M  V30 2 C 1.96312 -0.198025 -0.442399 0
M  V30 3 C 1.37306 1.06028 0.116678 0
M  V30 4 S 0.177128 0.789013 1.43018 0
M  V30 5 C -1.30789 0.00782312 0.837625 0
M  V30 6 C -1.4537 -1.3597 0.793997 0
M  V30 7 C -2.62169 -1.95668 0.328624 0
M  V30 8 N -3.63463 -1.18477 -0.0897321 0
M  V30 9 C -3.51023 0.158638 -0.0545927 0
M  V30 10 C -2.37062 0.782353 0.39901 0
M  V30 11 N -2.24483 2.2022 0.436045 0
M  V30 12 N 2.90949 0.169351 -1.47577 0
M  V30 13 H 2.07105 -1.75035 1.12101 0
M  V30 14 H 3.20179 -0.292199 1.31891 0
M  V30 15 H 3.53564 -1.54619 0.11491 0
M  V30 16 H 1.21125 -0.852812 -0.91777 0
M  V30 17 H 0.908977 1.6087 -0.738574 0
M  V30 18 H 2.20321 1.67294 0.517216 0
M  V30 19 H -0.629079 -1.95936 1.13304 0
M  V30 20 H -2.68419 -3.05467 0.312201 0
M  V30 21 H -4.3091 0.828339 -0.385557 0
M  V30 22 H -1.35863 2.64612 0.730265 0
M  V30 23 H -3.03717 2.81854 0.170981 0
M  V30 24 H 3.50737 -0.633723 -1.73451 0
M  V30 25 H 3.39734 1.0396 -1.21139 0
M  V30 END ATOM
M  V30 BEGIN BOND
M  V30 1 1 1 2
M  V30 2 1 2 3
M  V30 3 1 3 4
M  V30 4 1 4 5
M  V30 5 2 5 6
M  V30 6 1 6 7
M  V30 7 2 7 8
M  V30 8 1 8 9
M  V30 9 2 9 10
M  V30 10 1 10 11
M  V30 11 1 2 12
M  V30 12 1 10 5
M  V30 13 1 1 13
M  V30 14 1 1 14
M  V30 15 1 1 15
M  V30 16 1 2 16
M  V30 17 1 3 17
M  V30 18 1 3 18
M  V30 19 1 6 19
M  V30 20 1 7 20
M  V30 21 1 9 21
M  V30 22 1 11 22
M  V30 23 1 11 23
M  V30 24 1 12 24
M  V30 25 1 12 25
M  V30 END BOND
M  V30 END CTAB
M  END
