
     RDKit          3D

  0  0  0  0  0  0  0  0  0  0999 V3000
M  V30 BEGIN CTAB
M  V30 COUNTS 16 16 0 0 0
M  V30 BEGIN ATOM
M  V30 1 N -1.65684 0.483655 -1.37777 0
M  V30 2 C -1.20065 0.111681 -0.0911133 0
M  V30 3 C 0.089497 -0.0516769 0.149854 0
M  V30 4 C 1.15328 0.117689 -0.814116 0
M  V30 5 O 1.06853 0.41744 -2.02614 0
M  V30 6 C 2.44142 -0.129272 -0.1215 0
M  V30 7 O 2.10122 -0.48381 1.20393 0
M  V30 8 C 0.727258 -0.427869 1.39864 0
M  V30 9 O 0.100691 -0.658093 2.4653 0
M  V30 10 N -2.16006 -0.0835613 0.940633 0
M  V30 11 H -1.56447 1.43535 -1.77815 0
M  V30 12 H -2.11489 -0.239131 -1.96416 0
M  V30 13 H 3.04898 0.799545 -0.0987594 0
M  V30 14 H 2.99386 -0.988942 -0.547403 0
M  V30 15 H -2.0418 0.4 1.85269 0
M  V30 16 H -2.98603 -0.703 0.808063 0
M  V30 END ATOM
M  V30 BEGIN BOND
M  V30 1 1 1 2
M  V30 2 2 2 3 CFG=2
M  V30 3 1 3 4
M  V30 4 2 4 5
M  V30 5 1 4 6
M  V30 6 1 6 7
M  V30 7 1 7 8
M  V30 8 2 8 9
M  V30 9 1 2 10
M  V30 10 1 8 3
M  V30 11 1 1 11
M  V30 12 1 1 12
M  V30 13 1 6 13
M  V30 14 1 6 14
M  V30 15 1 10 15
M  V30 16 1 10 16
M  V30 END BOND
M  V30 END CTAB
M  END
