
     RDKit          3D

  0  0  0  0  0  0  0  0  0  0999 V3000
M  V30 BEGIN CTAB
M  V30 COUNTS 23 23 0 0 0
M  V30 BEGIN ATOM
M  V30 1 F -3.34065 -1.42499 1.61406 0
M  V30 2 C -3.66218 -0.67162 0.480125 0
M  V30 3 O -2.75049 0.364985 0.239039 0
M  V30 4 C -1.41936 0.116764 0.0290359 0
M  V30 5 C -0.861217 -1.14222 0.00998969 0
M  V30 6 C 0.489717 -1.26481 -0.209511 0
M  V30 7 C 1.31291 -0.180953 -0.412212 0
M  V30 8 C 0.742494 1.06974 -0.390881 0
M  V30 9 C -0.607597 1.25126 -0.1749 0
M  V30 10 N -1.18758 2.54579 -0.154574 0
M  V30 11 S 3.02749 -0.326046 -0.691438 0
M  V30 12 O 3.37174 -1.61823 -1.36523 0
M  V30 13 O 3.48042 0.865586 -1.46638 0
M  V30 14 N 3.85157 -0.276914 0.833563 0
M  V30 15 F -3.7882 -1.47329 -0.610472 0
M  V30 16 H -4.64421 -0.187269 0.762508 0
M  V30 17 H -1.48845 -2.01371 0.161425 0
M  V30 18 H 0.943111 -2.23656 -0.227808 0
M  V30 19 H 1.3703 1.96362 -0.549581 0
M  V30 20 H -0.608542 3.34798 0.145111 0
M  V30 21 H -2.167 2.71471 -0.428391 0
M  V30 22 H 4.72652 -0.865169 0.814439 0
M  V30 23 H 3.20921 -0.558647 1.59208 0
M  V30 END ATOM
M  V30 BEGIN BOND
M  V30 1 1 1 2
M  V30 2 1 2 3
M  V30 3 1 3 4
M  V30 4 2 4 5
M  V30 5 1 5 6
M  V30 6 2 6 7
M  V30 7 1 7 8
M  V30 8 2 8 9
M  V30 9 1 9 10
M  V30 10 1 7 11
M  V30 11 2 11 12
M  V30 12 2 11 13
M  V30 13 1 11 14
M  V30 14 1 2 15
M  V30 15 1 9 4
M  V30 16 1 2 16
M  V30 17 1 5 17
M  V30 18 1 6 18
M  V30 19 1 8 19
M  V30 20 1 10 20
M  V30 21 1 10 21
M  V30 22 1 14 22
M  V30 23 1 14 23
M  V30 END BOND
M  V30 END CTAB
M  END
