
     RDKit          3D

  0  0  0  0  0  0  0  0  0  0999 V3000
M  V30 BEGIN CTAB
M  V30 COUNTS 38 39 0 0 0
M  V30 BEGIN ATOM
M  V30 1 N 3.3821 -1.77139 0.509105 0
M  V30 2 C 3.38746 -0.460165 -0.0225167 0
M  V30 3 C 4.527 0.319232 0.0421712 0
M  V30 4 C 4.55116 1.61041 -0.478908 0
M  V30 5 C 3.42007 2.12862 -1.07227 0
M  V30 6 C 2.28677 1.32721 -1.12553 0
M  V30 7 C 2.23896 0.0585732 -0.62174 0
M  V30 8 C 1.05612 -0.82929 -0.655854 0
M  V30 9 C 0.35453 -0.947732 0.64446 0
M  V30 10 C -0.829801 -1.8622 0.51852 0
M  V30 11 C -1.87958 -1.38915 -0.450493 0
M  V30 12 C -2.44357 -0.0862974 -0.0350138 0
M  V30 13 C -2.09348 1.06869 -0.675506 0
M  V30 14 C -2.63104 2.27987 -0.287185 0
M  V30 15 C -3.53686 2.39182 0.751304 0
M  V30 16 C -3.89493 1.23328 1.40183 0
M  V30 17 C -3.35289 0.0284013 1.00745 0
M  V30 18 N -3.74649 -1.15166 1.7036 0
M  V30 19 H 3.23302 -2.57937 -0.10418 0
M  V30 20 H 3.53121 -1.89576 1.52443 0
M  V30 21 H 5.40018 -0.092232 0.505198 0
M  V30 22 H 5.46488 2.22299 -0.42189 0
M  V30 23 H 3.41741 3.13431 -1.48555 0
M  V30 24 H 1.40441 1.72231 -1.58446 0
M  V30 25 H 1.46331 -1.85727 -0.903648 0
M  V30 26 H 0.401181 -0.575762 -1.47795 0
M  V30 27 H -0.0357228 0.0295548 1.02016 0
M  V30 28 H 0.986632 -1.3775 1.45542 0
M  V30 29 H -0.443862 -2.87916 0.230522 0
M  V30 30 H -1.32265 -2.02757 1.50087 0
M  V30 31 H -2.75843 -2.10613 -0.416796 0
M  V30 32 H -1.46103 -1.3531 -1.47284 0
M  V30 33 H -1.38775 1.06483 -1.50125 0
M  V30 34 H -2.35429 3.20195 -0.794532 0
M  V30 35 H -3.95965 3.3222 1.06017 0
M  V30 36 H -4.60585 1.22847 2.23536 0
M  V30 37 H -3.69471 -1.15906 2.74803 0
M  V30 38 H -4.07382 -1.97193 1.17128 0
M  V30 END ATOM
M  V30 BEGIN BOND
M  V30 1 1 1 2
M  V30 2 2 2 3
M  V30 3 1 3 4
M  V30 4 2 4 5
M  V30 5 1 5 6
M  V30 6 2 6 7
M  V30 7 1 7 8
M  V30 8 1 8 9
M  V30 9 1 9 10
M  V30 10 1 10 11
M  V30 11 1 11 12
M  V30 12 2 12 13
M  V30 13 1 13 14
M  V30 14 2 14 15
M  V30 15 1 15 16
M  V30 16 2 16 17
M  V30 17 1 17 18
M  V30 18 1 7 2
M  V30 19 1 17 12
M  V30 20 1 1 19
M  V30 21 1 1 20
M  V30 22 1 3 21
M  V30 23 1 4 22
M  V30 24 1 5 23
M  V30 25 1 6 24
M  V30 26 1 8 25
M  V30 27 1 8 26
M  V30 28 1 9 27
M  V30 29 1 9 28
M  V30 30 1 10 29
M  V30 31 1 10 30
M  V30 32 1 11 31
M  V30 33 1 11 32
M  V30 34 1 13 33
M  V30 35 1 14 34
M  V30 36 1 15 35
M  V30 37 1 16 36
M  V30 38 1 18 37
M  V30 39 1 18 38
M  V30 END BOND
M  V30 END CTAB
M  END
