
     RDKit          3D

  0  0  0  0  0  0  0  0  0  0999 V3000
M  V30 BEGIN CTAB
M  V30 COUNTS 37 39 0 0 0
M  V30 BEGIN ATOM
M  V30 1 N 5.21721 0.307896 0.126129 0
M  V30 2 C 3.79808 0.32443 0.192859 0
M  V30 3 C 3.03652 0.208705 -0.954556 0
M  V30 4 C 1.65911 0.220217 -0.932696 0
M  V30 5 C 1.03104 0.352487 0.283663 0
M  V30 6 C 1.81815 0.465416 1.40614 0
M  V30 7 N 3.1608 0.452305 1.36687 0
M  V30 8 C -0.445517 0.371495 0.370392 0 CFG=2
M  V30 9 C -0.936008 -1.02925 0.313086 0
M  V30 10 C -0.540299 -1.88091 1.33518 0
M  V30 11 C -0.971943 -3.18786 1.31944 0
M  V30 12 C -1.77871 -3.65898 0.320776 0
M  V30 13 C -2.18421 -2.81206 -0.713879 0
M  V30 14 C -1.73821 -1.51271 -0.672486 0
M  V30 15 C -2.15607 -0.593182 -1.75948 0
M  V30 16 C -2.33128 0.771014 -1.09252 0
M  V30 17 N -1.0739 1.19379 -0.59269 0
M  V30 18 S -0.80173 2.84545 -0.502522 0
M  V30 19 O -1.57118 3.54643 -1.57854 0
M  V30 20 O 0.655316 3.14172 -0.67389 0
M  V30 21 N -1.39162 3.43964 1.01342 0
M  V30 22 H 5.78286 0.59866 0.940429 0
M  V30 23 H 5.69193 0.00506344 -0.73695 0
M  V30 24 H 3.59812 0.106867 -1.88601 0
M  V30 25 H 1.12631 0.126961 -1.85207 0
M  V30 26 H 1.35273 0.569768 2.36765 0
M  V30 27 H -0.740861 0.752636 1.39189 0
M  V30 28 H 0.0943175 -1.55502 2.14269 0
M  V30 29 H -0.664928 -3.86051 2.11831 0
M  V30 30 H -2.11431 -4.66941 0.305709 0
M  V30 31 H -2.82548 -3.20343 -1.49938 0
M  V30 32 H -1.30731 -0.510753 -2.46339 0
M  V30 33 H -3.10161 -0.894455 -2.23876 0
M  V30 34 H -2.70339 1.50007 -1.81477 0
M  V30 35 H -3.02758 0.647346 -0.218953 0
M  V30 36 H -1.37704 4.4598 1.08682 0
M  V30 37 H -2.23932 2.96037 1.32533 0
M  V30 END ATOM
M  V30 BEGIN BOND
M  V30 1 1 1 2
M  V30 2 2 2 3
M  V30 3 1 3 4
M  V30 4 2 4 5
M  V30 5 1 5 6
M  V30 6 2 6 7
M  V30 7 1 5 8
M  V30 8 1 8 9
M  V30 9 2 9 10
M  V30 10 1 10 11
M  V30 11 2 11 12
M  V30 12 1 12 13
M  V30 13 2 13 14
M  V30 14 1 14 15
M  V30 15 1 15 16
M  V30 16 1 16 17
M  V30 17 1 17 18
M  V30 18 2 18 19
M  V30 19 2 18 20
M  V30 20 1 18 21
M  V30 21 1 7 2
M  V30 22 1 17 8
M  V30 23 1 14 9
M  V30 24 1 1 22
M  V30 25 1 1 23
M  V30 26 1 3 24
M  V30 27 1 4 25
M  V30 28 1 6 26
M  V30 29 1 8 27 CFG=1
M  V30 30 1 10 28
M  V30 31 1 11 29
M  V30 32 1 12 30
M  V30 33 1 13 31
M  V30 34 1 15 32
M  V30 35 1 15 33
M  V30 36 1 16 34
M  V30 37 1 16 35
M  V30 38 1 21 36
M  V30 39 1 21 37
M  V30 END BOND
M  V30 END CTAB
M  END
