
     RDKit          3D

  0  0  0  0  0  0  0  0  0  0999 V3000
M  V30 BEGIN CTAB
M  V30 COUNTS 21 21 0 0 0
M  V30 BEGIN ATOM
M  V30 1 N 3.80397 0.57253 -0.175288 0
M  V30 2 C 2.47481 0.0755005 -0.244401 0
M  V30 3 S 2.16458 -1.09254 -1.34115 0
M  V30 4 C 1.47414 0.635772 0.663384 0
M  V30 5 C 0.13156 0.0494889 0.507096 0
M  V30 6 C -0.313355 -1.0507 1.19831 0
M  V30 7 C -1.57838 -1.57885 1.03113 0
M  V30 8 C -2.43591 -0.979478 0.132589 0
M  V30 9 C -2.02733 0.134874 -0.587478 0
M  V30 10 C -0.736151 0.636843 -0.386431 0
M  V30 11 N -2.89989 0.759638 -1.51395 0
M  V30 12 H 4.21803 0.957893 -1.0496 0
M  V30 13 H 4.40053 0.584123 0.677609 0
M  V30 14 H 1.43286 1.74379 0.587171 0
M  V30 15 H 1.81529 0.427466 1.7128 0
M  V30 16 H 0.345039 -1.54222 1.91389 0
M  V30 17 H -1.95113 -2.43748 1.55848 0
M  V30 18 H -3.43602 -1.38665 -0.00806927 0
M  V30 19 H -0.44583 1.50517 -0.960847 0
M  V30 20 H -3.91146 0.554286 -1.50424 0
M  V30 21 H -2.52535 1.43054 -2.211 0
M  V30 END ATOM
M  V30 BEGIN BOND
M  V30 1 1 1 2
M  V30 2 2 2 3
M  V30 3 1 2 4
M  V30 4 1 4 5
M  V30 5 2 5 6
M  V30 6 1 6 7
M  V30 7 2 7 8
M  V30 8 1 8 9
M  V30 9 2 9 10
M  V30 10 1 9 11
M  V30 11 1 10 5
M  V30 12 1 1 12
M  V30 13 1 1 13
M  V30 14 1 4 14
M  V30 15 1 4 15
M  V30 16 1 6 16
M  V30 17 1 7 17
M  V30 18 1 8 18
M  V30 19 1 10 19
M  V30 20 1 11 20
M  V30 21 1 11 21
M  V30 END BOND
M  V30 END CTAB
M  END
