
     RDKit          3D

  0  0  0  0  0  0  0  0  0  0999 V3000
M  V30 BEGIN CTAB
M  V30 COUNTS 28 28 0 0 0
M  V30 BEGIN ATOM
M  V30 1 N -2.35906 -2.14301 0.0487119 0
M  V30 2 C -2.58363 -0.787623 0.376001 0
M  V30 3 C -1.47011 0.0316482 -0.227721 0 CFG=1
M  V30 4 C -1.60166 1.50349 0.055733 0
M  V30 5 O -0.744744 2.15626 -0.851303 0
M  V30 6 C 0.476664 2.38321 -0.243882 0
M  V30 7 C 1.46223 1.26426 -0.43745 0
M  V30 8 N 0.864689 -0.00475772 -0.696483 0
M  V30 9 C -0.112318 -0.395434 0.287541 0
M  V30 10 S 2.10988 -1.2048 -0.680434 0
M  V30 11 O 3.10977 -0.986955 -1.77432 0
M  V30 12 O 1.48552 -2.57044 -0.901384 0
M  V30 13 N 2.85241 -1.25006 0.878834 0
M  V30 14 H -1.80477 -2.29663 -0.726918 0
M  V30 15 H -2.48056 -2.82306 0.711665 0
M  V30 16 H -2.66707 -0.680501 1.46275 0
M  V30 17 H -3.54334 -0.498746 -0.0859623 0
M  V30 18 H -1.48699 -0.132149 -1.3234 0
M  V30 19 H -2.63793 1.87733 -0.0137424 0
M  V30 20 H -1.22711 1.72055 1.09683 0
M  V30 21 H 0.307851 2.55781 0.839029 0
M  V30 22 H 0.884181 3.32642 -0.692645 0
M  V30 23 H 2.13065 1.51914 -1.27693 0
M  V30 24 H 2.09373 1.17481 0.486757 0
M  V30 25 H 0.112637 0.188688 1.21222 0
M  V30 26 H -0.0788455 -1.46598 0.550888 0
M  V30 27 H 3.48398 -2.07956 0.913432 0
M  V30 28 H 3.42393 -0.38393 1.01218 0
M  V30 END ATOM
M  V30 BEGIN BOND
M  V30 1 1 1 2
M  V30 2 1 2 3
M  V30 3 1 3 4
M  V30 4 1 4 5
M  V30 5 1 5 6
M  V30 6 1 6 7
M  V30 7 1 7 8
M  V30 8 1 8 9
M  V30 9 1 8 10
M  V30 10 2 10 11
M  V30 11 2 10 12
M  V30 12 1 10 13
M  V30 13 1 9 3
M  V30 14 1 1 14
M  V30 15 1 1 15
M  V30 16 1 2 16
M  V30 17 1 2 17
M  V30 18 1 3 18 CFG=3
M  V30 19 1 4 19
M  V30 20 1 4 20
M  V30 21 1 6 21
M  V30 22 1 6 22
M  V30 23 1 7 23
M  V30 24 1 7 24
M  V30 25 1 9 25
M  V30 26 1 9 26
M  V30 27 1 13 27
M  V30 28 1 13 28
M  V30 END BOND
M  V30 END CTAB
M  END
