
     RDKit          3D

  0  0  0  0  0  0  0  0  0  0999 V3000
M  V30 BEGIN CTAB
M  V30 COUNTS 45 48 0 0 0
M  V30 BEGIN ATOM
M  V30 1 C -3.64399 0.0609673 -2.6443 0
M  V30 2 O -2.94294 -0.283358 -1.49783 0
M  V30 3 C -3.10446 0.522 -0.338606 0
M  V30 4 C -2.45513 0.259598 0.834399 0
M  V30 5 C -2.65927 1.07956 1.91152 0
M  V30 6 C -3.49189 2.17243 1.89051 0
M  V30 7 C -4.14876 2.44091 0.709834 0
M  V30 8 C -3.94544 1.60785 -0.395202 0
M  V30 9 C -1.58663 -0.910981 0.921626 0
M  V30 10 C -2.17227 -2.08771 1.32992 0
M  V30 11 C -3.59308 -2.09093 1.64577 0
M  V30 12 N -4.71537 -2.11312 1.90084 0
M  V30 13 C -1.42116 -3.22719 1.43324 0
M  V30 14 N -2.046 -4.4303 1.85624 0
M  V30 15 N -0.115731 -3.17012 1.13058 0
M  V30 16 C 0.449464 -1.98473 0.724972 0
M  V30 17 C -0.220944 -0.796796 0.592342 0
M  V30 18 C 0.516615 0.278104 0.177111 0
M  V30 19 N -0.0826557 1.60594 -0.000730492 0
M  V30 20 C 1.84564 0.0441116 -0.059851 0
M  V30 21 S 2.05576 -1.5894 0.278609 0
M  V30 22 C 2.78793 1.08581 -0.49051 0
M  V30 23 O 2.4355 2.28235 -0.656871 0
M  V30 24 C 4.1831 0.769862 -0.741044 0
M  V30 25 C 5.17107 1.73738 -0.51384 0
M  V30 26 C 6.5059 1.52828 -0.742958 0
M  V30 27 C 6.93946 0.313674 -1.22281 0
M  V30 28 C 5.99555 -0.655392 -1.45603 0
M  V30 29 C 4.63963 -0.42949 -1.21882 0
M  V30 30 H -3.42374 -0.689324 -3.4313 0
M  V30 31 H -3.28023 1.04442 -3.00675 0
M  V30 32 H -4.7387 0.159408 -2.49147 0
M  V30 33 H -2.16016 0.914733 2.88578 0
M  V30 34 H -3.62715 2.79331 2.7567 0
M  V30 35 H -4.81111 3.28524 0.644043 0
M  V30 36 H -4.4643 1.81638 -1.33514 0
M  V30 37 H -1.64329 -5.36979 1.57722 0
M  V30 38 H -2.90722 -4.42139 2.44545 0
M  V30 39 H -0.480107 1.92672 -0.892648 0
M  V30 40 H -0.0733866 2.23291 0.815954 0
M  V30 41 H 4.85426 2.69055 -0.13994 0
M  V30 42 H 7.26332 2.28871 -0.562184 0
M  V30 43 H 7.9808 0.158798 -1.39845 0
M  V30 44 H 6.34724 -1.60353 -1.83214 0
M  V30 45 H 3.98384 -1.24644 -1.44598 0
M  V30 END ATOM
M  V30 BEGIN BOND
M  V30 1 1 1 2
M  V30 2 1 2 3
M  V30 3 2 3 4
M  V30 4 1 4 5
M  V30 5 2 5 6
M  V30 6 1 6 7
M  V30 7 2 7 8
M  V30 8 1 4 9
M  V30 9 2 9 10
M  V30 10 1 10 11
M  V30 11 3 11 12
M  V30 12 1 10 13
M  V30 13 1 13 14
M  V30 14 2 13 15
M  V30 15 1 15 16
M  V30 16 2 16 17
M  V30 17 1 17 18
M  V30 18 1 18 19
M  V30 19 2 18 20
M  V30 20 1 20 21
M  V30 21 1 20 22
M  V30 22 2 22 23
M  V30 23 1 22 24
M  V30 24 2 24 25
M  V30 25 1 25 26
M  V30 26 2 26 27
M  V30 27 1 27 28
M  V30 28 2 28 29
M  V30 29 1 8 3
M  V30 30 1 17 9
M  V30 31 1 29 24
M  V30 32 1 21 16
M  V30 33 1 1 30
M  V30 34 1 1 31
M  V30 35 1 1 32
M  V30 36 1 5 33
M  V30 37 1 6 34
M  V30 38 1 7 35
M  V30 39 1 8 36
M  V30 40 1 14 37
M  V30 41 1 14 38
M  V30 42 1 19 39
M  V30 43 1 19 40
M  V30 44 1 25 41
M  V30 45 1 26 42
M  V30 46 1 27 43
M  V30 47 1 28 44
M  V30 48 1 29 45
M  V30 END BOND
M  V30 END CTAB
M  END
