
     RDKit          3D

  0  0  0  0  0  0  0  0  0  0999 V3000
M  V30 BEGIN CTAB
M  V30 COUNTS 30 32 0 0 0
M  V30 BEGIN ATOM
M  V30 1 N -5.63455 1.74335 -1.008 0
M  V30 2 C -4.68349 0.979337 -0.269307 0
M  V30 3 C -5.1664 -0.115659 0.43033 0
M  V30 4 C -4.24879 -0.856722 1.14587 0
M  V30 5 N -4.67574 -1.99568 1.88844 0
M  V30 6 N -2.95155 -0.520355 1.15435 0
M  V30 7 C -2.49915 0.534694 0.477717 0
M  V30 8 N -3.3791 1.28203 -0.235006 0
M  V30 9 S -0.760635 0.927865 0.530781 0
M  V30 10 C 0.0672664 0.0383418 -0.83514 0
M  V30 11 C 1.5268 0.342964 -0.820733 0
M  V30 12 N 2.1672 1.3256 -1.44231 0
M  V30 13 O 3.43166 1.23722 -1.16911 0
M  V30 14 C 3.67734 0.223332 -0.378774 0
M  V30 15 N 2.4793 -0.33876 -0.159936 0
M  V30 16 C 4.9969 -0.218503 0.16499 0
M  V30 17 C 5.0773 -1.31046 0.985833 0
M  V30 18 S 6.73892 -1.41209 1.33493 0
M  V30 19 C 7.29728 -0.0811535 0.442632 0
M  V30 20 C 6.15229 0.423839 -0.119605 0
M  V30 21 H -5.99134 2.63591 -0.635393 0
M  V30 22 H -5.97589 1.40106 -1.93426 0
M  V30 23 H -6.21682 -0.378605 0.416522 0
M  V30 24 H -5.66781 -2.29762 1.93219 0
M  V30 25 H -3.99208 -2.57166 2.4207 0
M  V30 26 H -0.0852303 -1.03912 -0.668942 0
M  V30 27 H -0.425732 0.335354 -1.76895 0
M  V30 28 H 4.23774 -1.9521 1.32195 0
M  V30 29 H 8.3199 0.325692 0.3103 0
M  V30 30 H 6.18442 1.3319 -0.785953 0
M  V30 END ATOM
M  V30 BEGIN BOND
M  V30 1 1 1 2
M  V30 2 2 2 3
M  V30 3 1 3 4
M  V30 4 1 4 5
M  V30 5 2 4 6
M  V30 6 1 6 7
M  V30 7 2 7 8
M  V30 8 1 7 9
M  V30 9 1 9 10
M  V30 10 1 10 11
M  V30 11 2 11 12
M  V30 12 1 12 13
M  V30 13 1 13 14
M  V30 14 2 14 15
M  V30 15 1 14 16
M  V30 16 2 16 17
M  V30 17 1 17 18
M  V30 18 1 18 19
M  V30 19 2 19 20
M  V30 20 1 8 2
M  V30 21 1 15 11
M  V30 22 1 20 16
M  V30 23 1 1 21
M  V30 24 1 1 22
M  V30 25 1 3 23
M  V30 26 1 5 24
M  V30 27 1 5 25
M  V30 28 1 10 26
M  V30 29 1 10 27
M  V30 30 1 17 28
M  V30 31 1 19 29
M  V30 32 1 20 30
M  V30 END BOND
M  V30 END CTAB
M  END
