
     RDKit          3D

  0  0  0  0  0  0  0  0  0  0999 V3000
M  V30 BEGIN CTAB
M  V30 COUNTS 32 32 0 0 0
M  V30 BEGIN ATOM
M  V30 1 N 5.10227 -0.146842 0.218436 0
M  V30 2 C 3.68904 0.25824 0.15824 0
M  V30 3 C 2.97285 -0.610621 -0.857728 0
M  V30 4 N 1.57488 -0.285524 -0.990525 0
M  V30 5 C 0.642318 -0.362734 0.0720867 0
M  V30 6 O 1.01189 -0.732978 1.21558 0
M  V30 7 C -0.776749 -0.00971275 -0.147425 0
M  V30 8 N -1.05275 0.39309 -1.4971 0
M  V30 9 C -1.19426 1.10058 0.799027 0
M  V30 10 C -2.59794 1.47774 0.443221 0
M  V30 11 C -3.56981 0.360795 0.526098 0
M  V30 12 C -3.09712 -0.950591 0.0264034 0
M  V30 13 C -1.63336 -1.20921 0.170155 0
M  V30 14 H 5.19828 -1.16135 0.0364916 0
M  V30 15 H 5.66992 0.387876 -0.469978 0
M  V30 16 H 3.31133 0.101252 1.18778 0
M  V30 17 H 3.63719 1.33162 -0.0999838 0
M  V30 18 H 3.12464 -1.66233 -0.522582 0
M  V30 19 H 3.49326 -0.490038 -1.80794 0
M  V30 20 H 1.22733 0.0257747 -1.92556 0
M  V30 21 H -0.837571 -0.386272 -2.16079 0
M  V30 22 H -0.455463 1.19152 -1.75281 0
M  V30 23 H -1.14647 0.724799 1.83351 0
M  V30 24 H -0.535929 1.97294 0.624356 0
M  V30 25 H -2.62765 1.94934 -0.565095 0
M  V30 26 H -2.91996 2.27104 1.16243 0
M  V30 27 H -3.97326 0.318605 1.57505 0
M  V30 28 H -4.46931 0.650907 -0.0935127 0
M  V30 29 H -3.38859 -1.12781 -1.05067 0
M  V30 30 H -3.63494 -1.75084 0.58966 0
M  V30 31 H -1.39388 -1.62675 1.1777 0
M  V30 32 H -1.35018 -2.00251 -0.556024 0
M  V30 END ATOM
M  V30 BEGIN BOND
M  V30 1 1 1 2
M  V30 2 1 2 3
M  V30 3 1 3 4
M  V30 4 1 4 5
M  V30 5 2 5 6
M  V30 6 1 5 7
M  V30 7 1 7 8
M  V30 8 1 7 9
M  V30 9 1 9 10
M  V30 10 1 10 11
M  V30 11 1 11 12
M  V30 12 1 12 13
M  V30 13 1 13 7
M  V30 14 1 1 14
M  V30 15 1 1 15
M  V30 16 1 2 16
M  V30 17 1 2 17
M  V30 18 1 3 18
M  V30 19 1 3 19
M  V30 20 1 4 20
M  V30 21 1 8 21
M  V30 22 1 8 22
M  V30 23 1 9 23
M  V30 24 1 9 24
M  V30 25 1 10 25
M  V30 26 1 10 26
M  V30 27 1 11 27
M  V30 28 1 11 28
M  V30 29 1 12 29
M  V30 30 1 12 30
M  V30 31 1 13 31
M  V30 32 1 13 32
M  V30 END BOND
M  V30 END CTAB
M  END
