
     RDKit          3D

  0  0  0  0  0  0  0  0  0  0999 V3000
M  V30 BEGIN CTAB
M  V30 COUNTS 32 33 0 0 0
M  V30 BEGIN ATOM
M  V30 1 N -1.35661 -1.88842 -1.43308 0
M  V30 2 C -1.54979 -0.727841 -0.661035 0
M  V30 3 C -0.576799 0.00785874 0.0207941 0
M  V30 4 N -1.16536 0.992991 0.703131 0
M  V30 5 C -2.48589 0.90012 0.472132 0
M  V30 6 N -2.73077 -0.155945 -0.355329 0
M  V30 7 N -4.00073 -0.629943 -0.721199 0
M  V30 8 C -3.57725 1.79915 0.973992 0
M  V30 9 C 0.85521 -0.299693 -0.13029 0
M  V30 10 C 1.48639 -0.487124 1.28648 0
M  V30 11 C 2.94422 -0.71065 1.19927 0
M  V30 12 C 3.6081 -0.321015 -0.0682836 0
M  V30 13 C 2.91603 0.660512 -0.953316 0
M  V30 14 C 1.53794 1.05687 -0.498512 0
M  V30 15 H -1.36192 -1.86826 -2.47139 0
M  V30 16 H -1.23135 -2.76287 -0.884491 0
M  V30 17 H -4.84796 -0.314067 -0.210802 0
M  V30 18 H -4.13491 -1.30946 -1.47641 0
M  V30 19 H -3.12884 2.69485 1.44039 0
M  V30 20 H -4.16897 2.20891 0.095882 0
M  V30 21 H -4.2616 1.2827 1.65735 0
M  V30 22 H 1.1131 -1.108 -0.745979 0
M  V30 23 H 1.14005 0.354857 1.8913 0
M  V30 24 H 0.929454 -1.40805 1.67627 0
M  V30 25 H 3.09175 -1.82991 1.29216 0
M  V30 26 H 3.40998 -0.287825 2.11196 0
M  V30 27 H 4.58634 0.166866 0.258684 0
M  V30 28 H 3.95041 -1.18083 -0.662622 0
M  V30 29 H 2.80166 0.255743 -1.96041 0
M  V30 30 H 3.55548 1.6032 -1.13059 0
M  V30 31 H 1.6962 1.67309 0.480976 0
M  V30 32 H 0.956444 1.6322 -1.19704 0
M  V30 END ATOM
M  V30 BEGIN BOND
M  V30 1 1 1 2
M  V30 2 2 2 3
M  V30 3 1 3 4
M  V30 4 2 4 5
M  V30 5 1 5 6
M  V30 6 1 6 7
M  V30 7 1 5 8
M  V30 8 1 3 9
M  V30 9 1 9 10
M  V30 10 1 10 11
M  V30 11 1 11 12
M  V30 12 1 12 13
M  V30 13 1 13 14
M  V30 14 1 6 2
M  V30 15 1 14 9
M  V30 16 1 1 15
M  V30 17 1 1 16
M  V30 18 1 7 17
M  V30 19 1 7 18
M  V30 20 1 8 19
M  V30 21 1 8 20
M  V30 22 1 8 21
M  V30 23 1 9 22
M  V30 24 1 10 23
M  V30 25 1 10 24
M  V30 26 1 11 25
M  V30 27 1 11 26
M  V30 28 1 12 27
M  V30 29 1 12 28
M  V30 30 1 13 29
M  V30 31 1 13 30
M  V30 32 1 14 31
M  V30 33 1 14 32
M  V30 END BOND
M  V30 END CTAB
M  END
