
     RDKit          3D

  0  0  0  0  0  0  0  0  0  0999 V3000
M  V30 BEGIN CTAB
M  V30 COUNTS 39 40 0 0 0
M  V30 BEGIN ATOM
M  V30 1 N 4.91397 1.15808 -0.670035 0
M  V30 2 C 3.93939 1.22005 0.416741 0
M  V30 3 C 3.87682 -0.17059 1.05575 0
M  V30 4 C 2.87871 -0.0977293 2.16488 0
M  V30 5 N 1.58725 0.276139 1.68209 0
M  V30 6 C 0.821185 -0.577731 0.861806 0
M  V30 7 N -0.372788 -0.159563 0.438663 0
M  V30 8 C -1.18928 -0.863134 -0.32121 0
M  V30 9 N -2.4356 -0.418286 -0.765623 0
M  V30 10 C -3.10006 0.785114 -0.526594 0
M  V30 11 C -2.64516 1.78568 0.277453 0
M  V30 12 C -3.33716 2.98297 0.51088 0
M  V30 13 C -4.54579 3.14618 -0.114219 0
M  V30 14 C -5.05186 2.16553 -0.937765 0
M  V30 15 C -4.34574 1.00346 -1.14396 0
M  V30 16 F -4.81196 0.0220206 -1.94739 0
M  V30 17 C -0.72984 -2.1375 -0.68822 0
M  V30 18 C 0.506108 -2.61851 -0.272791 0
M  V30 19 N 1.2368 -1.78894 0.502508 0
M  V30 20 N 0.97566 -3.90224 -0.637696 0
M  V30 21 N -1.53741 -2.9654 -1.50248 0 CHG=1
M  V30 22 O -1.64978 -2.7181 -2.70943 0
M  V30 23 O -2.19361 -4.03997 -0.974919 0 CHG=-1
M  V30 24 H 5.8786 1.18287 -0.305071 0
M  V30 25 H 4.76439 1.91957 -1.37139 0
M  V30 26 H 4.29992 1.92684 1.16094 0
M  V30 27 H 2.95797 1.51997 0.0461017 0
M  V30 28 H 4.90832 -0.43588 1.44196 0
M  V30 29 H 3.55077 -0.890745 0.302384 0
M  V30 30 H 3.22059 0.649864 2.94304 0
M  V30 31 H 2.85674 -1.09877 2.69098 0
M  V30 32 H 1.22982 1.22451 1.967 0
M  V30 33 H -2.95682 -1.1253 -1.38793 0
M  V30 34 H -1.71314 1.72863 0.800533 0
M  V30 35 H -2.94089 3.75364 1.15825 0
M  V30 36 H -5.13067 4.04452 0.0223079 0
M  V30 37 H -6.01726 2.27893 -1.44611 0
M  V30 38 H 0.431783 -4.74987 -0.404792 0
M  V30 39 H 1.87004 -4.01631 -1.14331 0
M  V30 END ATOM
M  V30 BEGIN BOND
M  V30 1 1 1 2
M  V30 2 1 2 3
M  V30 3 1 3 4
M  V30 4 1 4 5
M  V30 5 1 5 6
M  V30 6 2 6 7
M  V30 7 1 7 8
M  V30 8 1 8 9
M  V30 9 1 9 10
M  V30 10 2 10 11
M  V30 11 1 11 12
M  V30 12 2 12 13
M  V30 13 1 13 14
M  V30 14 2 14 15
M  V30 15 1 15 16
M  V30 16 2 8 17
M  V30 17 1 17 18
M  V30 18 2 18 19
M  V30 19 1 18 20
M  V30 20 1 17 21
M  V30 21 2 21 22
M  V30 22 1 21 23
M  V30 23 1 19 6
M  V30 24 1 15 10
M  V30 25 1 1 24
M  V30 26 1 1 25
M  V30 27 1 2 26
M  V30 28 1 2 27
M  V30 29 1 3 28
M  V30 30 1 3 29
M  V30 31 1 4 30
M  V30 32 1 4 31
M  V30 33 1 5 32
M  V30 34 1 9 33
M  V30 35 1 11 34
M  V30 36 1 12 35
M  V30 37 1 13 36
M  V30 38 1 14 37
M  V30 39 1 20 38
M  V30 40 1 20 39
M  V30 END BOND
M  V30 END CTAB
M  END
