
     RDKit          3D

  0  0  0  0  0  0  0  0  0  0999 V3000
M  V30 BEGIN CTAB
M  V30 COUNTS 33 33 0 0 0
M  V30 BEGIN ATOM
M  V30 1 N 2.57454 1.25669 -0.401328 0
M  V30 2 C 2.50637 0.279343 0.668454 0
M  V30 3 C 1.16657 0.218922 1.31869 0
M  V30 4 C 0.0225245 -0.138672 0.453196 0
M  V30 5 C 0.118332 -1.48641 -0.208687 0
M  V30 6 C 0.303445 -2.51267 0.887782 0
M  V30 7 C -1.21995 -1.78313 -0.859365 0
M  V30 8 C -1.49942 -0.742056 -1.89023 0
M  V30 9 C -0.5271 0.412222 -1.82116 0
M  V30 10 N -0.324076 0.900488 -0.480191 0
M  V30 11 S -1.6368 1.878 0.0594799 0
M  V30 12 O -2.87264 1.07835 0.320009 0
M  V30 13 O -1.94569 2.85595 -1.0348 0
M  V30 14 N -1.16851 2.64399 1.5174 0
M  V30 15 H 1.96133 2.08776 -0.187156 0
M  V30 16 H 3.53134 1.53724 -0.637036 0
M  V30 17 H 2.84598 -0.681685 0.236302 0
M  V30 18 H 3.28331 0.571988 1.40589 0
M  V30 19 H 1.25776 -0.471764 2.19744 0
M  V30 20 H 0.969346 1.21651 1.76516 0
M  V30 21 H -0.87435 -0.221593 1.14451 0
M  V30 22 H 0.860994 -1.55674 -1.0004 0
M  V30 23 H -0.418059 -2.27668 1.6973 0
M  V30 24 H 0.203077 -3.54367 0.503173 0
M  V30 25 H 1.31295 -2.33911 1.3202 0
M  V30 26 H -1.11834 -2.80568 -1.32862 0
M  V30 27 H -2.02735 -1.89587 -0.109106 0
M  V30 28 H -1.38045 -1.21245 -2.90205 0
M  V30 29 H -2.52839 -0.343932 -1.86658 0
M  V30 30 H -0.847597 1.25529 -2.43943 0
M  V30 31 H 0.444087 0.0384929 -2.19533 0
M  V30 32 H -1.50425 2.13791 2.3662 0
M  V30 33 H -1.46899 3.64297 1.50029 0
M  V30 END ATOM
M  V30 BEGIN BOND
M  V30 1 1 1 2
M  V30 2 1 2 3
M  V30 3 1 3 4
M  V30 4 1 4 5
M  V30 5 1 5 6
M  V30 6 1 5 7
M  V30 7 1 7 8
M  V30 8 1 8 9
M  V30 9 1 9 10
M  V30 10 1 10 11
M  V30 11 2 11 12
M  V30 12 2 11 13
M  V30 13 1 11 14
M  V30 14 1 10 4
M  V30 15 1 1 15
M  V30 16 1 1 16
M  V30 17 1 2 17
M  V30 18 1 2 18
M  V30 19 1 3 19
M  V30 20 1 3 20
M  V30 21 1 4 21
M  V30 22 1 5 22
M  V30 23 1 6 23
M  V30 24 1 6 24
M  V30 25 1 6 25
M  V30 26 1 7 26
M  V30 27 1 7 27
M  V30 28 1 8 28
M  V30 29 1 8 29
M  V30 30 1 9 30
M  V30 31 1 9 31
M  V30 32 1 14 32
M  V30 33 1 14 33
M  V30 END BOND
M  V30 END CTAB
M  END
