
     RDKit          3D

  0  0  0  0  0  0  0  0  0  0999 V3000
M  V30 BEGIN CTAB
M  V30 COUNTS 14 14 0 0 0
M  V30 BEGIN ATOM
M  V30 1 N 3.46309 -0.387674 0.569213 0
M  V30 2 C 2.12077 -0.141249 0.170841 0
M  V30 3 N 1.62758 -0.223644 -1.06385 0
M  V30 4 N 0.409993 0.0242583 -1.27208 0
M  V30 5 C -0.38862 0.365754 -0.282882 0
M  V30 6 S 0.717916 0.3214 1.04492 0
M  V30 7 S -2.10751 0.75823 -0.309502 0
M  V30 8 N -3.01691 -0.664022 -0.0722912 0
M  V30 9 O -2.32068 1.7608 0.814424 0
M  V30 10 O -2.46595 1.47791 -1.58004 0
M  V30 11 H 3.63046 -0.899781 1.45497 0
M  V30 12 H 4.27144 -0.071048 0.00144957 0
M  V30 13 H -3.38705 -0.788019 0.884627 0
M  V30 14 H -2.55453 -1.53291 -0.359815 0
M  V30 END ATOM
M  V30 BEGIN BOND
M  V30 1 1 1 2
M  V30 2 2 2 3
M  V30 3 1 3 4
M  V30 4 2 4 5
M  V30 5 1 5 6
M  V30 6 1 5 7
M  V30 7 1 7 8
M  V30 8 2 7 9
M  V30 9 2 7 10
M  V30 10 1 6 2
M  V30 11 1 1 11
M  V30 12 1 1 12
M  V30 13 1 8 13
M  V30 14 1 8 14
M  V30 END BOND
M  V30 END CTAB
M  END
