
     RDKit          3D

  0  0  0  0  0  0  0  0  0  0999 V3000
M  V30 BEGIN CTAB
M  V30 COUNTS 72 75 0 0 0
M  V30 BEGIN ATOM
M  V30 1 C -5.97542 -0.986087 0.874285 0 CFG=1
M  V30 2 C -7.34148 -0.590653 0.732741 0 CFG=1
M  V30 3 C -7.83209 0.424291 -0.219029 0 CFG=1
M  V30 4 C -7.28192 1.80047 -0.0815236 0
M  V30 5 O -7.67302 0.0342733 -1.56794 0
M  V30 6 C -7.41415 -1.92748 0.0463703 0
M  V30 7 O -8.17074 -2.88399 -0.11383 0
M  V30 8 N -6.0964 -1.61765 -0.404741 0
M  V30 9 C -4.86967 -1.44567 -1.08831 0
M  V30 10 C -4.53424 -2.07195 -2.34025 0
M  V30 11 O -3.33323 -1.89266 -2.98549 0
M  V30 12 O -5.36457 -2.82909 -2.89737 0
M  V30 13 C -4.05847 -0.605655 -0.384455 0
M  V30 14 S -2.47012 -0.217472 -1.02671 0
M  V30 15 C -1.44889 0.912697 -0.160916 0 CFG=1
M  V30 16 C -0.80088 0.457773 1.10627 0
M  V30 17 C 0.628876 0.963425 0.940043 0 CFG=2
M  V30 18 N 0.889868 0.721425 -0.43343 0
M  V30 19 C 0.822558 -0.677393 -0.809971 0
M  V30 20 C -0.281944 1.38938 -1.04872 0
M  V30 21 C 1.55965 0.513364 1.94028 0
M  V30 22 O 1.10975 0.246921 3.12664 0
M  V30 23 N 2.92483 0.328018 1.77589 0
M  V30 24 C 3.88259 -0.198679 2.79511 0
M  V30 25 C 4.65624 -1.20207 1.93256 0
M  V30 26 C 4.53803 -0.733162 0.509973 0 CFG=1
M  V30 27 C 3.79071 0.606489 0.673741 0
M  V30 28 N 5.82 -0.511632 -0.104422 0
M  V30 29 C 6.08431 -0.994675 -1.39743 0
M  V30 30 O 5.2079 -1.62559 -2.03512 0
M  V30 31 C 7.40583 -0.766305 -2.03357 0
M  V30 32 N 8.31631 -0.0427067 -1.20706 0
M  V30 33 C 8.31244 1.23231 -1.14409 0
M  V30 34 N 7.37745 1.963 -1.91701 0
M  V30 35 N 9.23206 1.91593 -0.306661 0
M  V30 36 C -4.76894 -0.174829 0.849474 0 CFG=2
M  V30 37 C -3.88197 -0.574067 2.0391 0
M  V30 38 H -5.89729 -1.80944 1.63304 0
M  V30 39 H -7.9417 -0.666847 1.67958 0
M  V30 40 H -8.93639 0.499502 -0.0896262 0
M  V30 41 H -8.02437 2.5235 -0.483684 0
M  V30 42 H -7.07324 2.10577 0.955424 0
M  V30 43 H -6.39612 1.88886 -0.757607 0
M  V30 44 H -8.23378 0.556525 -2.17141 0
M  V30 45 H -3.15851 -2.06649 -3.94589 0
M  V30 46 H -1.97401 1.88378 0.11232 0
M  V30 47 H -1.21715 0.965632 2.02962 0
M  V30 48 H -0.845165 -0.612517 1.28763 0
M  V30 49 H 0.485446 2.10733 1.00142 0
M  V30 50 H 0.506443 -1.35519 -0.020012 0
M  V30 51 H 0.11174 -0.767149 -1.65278 0
M  V30 52 H 1.81683 -0.958263 -1.26228 0
M  V30 53 H -0.0993048 2.46143 -0.958528 0
M  V30 54 H -0.36995 0.985615 -2.05951 0
M  V30 55 H 3.37135 -0.647393 3.63867 0
M  V30 56 H 4.55896 0.628733 3.06316 0
M  V30 57 H 5.71605 -1.21709 2.20285 0
M  V30 58 H 4.15975 -2.1894 2.01836 0
M  V30 59 H 3.86211 -1.34897 -0.112742 0
M  V30 60 H 3.36265 0.97451 -0.244039 0
M  V30 61 H 4.54696 1.36502 1.07123 0
M  V30 62 H 6.54682 0.0057862 0.415914 0
M  V30 63 H 7.20902 -0.178868 -2.96141 0
M  V30 64 H 7.87645 -1.73321 -2.31124 0
M  V30 65 H 6.37592 2.06556 -1.64104 0
M  V30 66 H 7.71005 2.42947 -2.81495 0
M  V30 67 H 8.91517 2.51818 0.502267 0
M  V30 68 H 10.2404 1.8391 -0.468866 0
M  V30 69 H -4.89048 0.905852 0.91919 0
M  V30 70 H -3.50152 0.320774 2.51925 0
M  V30 71 H -4.59019 -1.05533 2.79763 0
M  V30 72 H -3.18421 -1.36507 1.77511 0
M  V30 END ATOM
M  V30 BEGIN BOND
M  V30 1 1 1 2
M  V30 2 1 2 3
M  V30 3 1 3 4
M  V30 4 1 3 5
M  V30 5 1 2 6
M  V30 6 2 6 7
M  V30 7 1 6 8
M  V30 8 1 8 9
M  V30 9 1 9 10
M  V30 10 1 10 11
M  V30 11 2 10 12
M  V30 12 2 9 13
M  V30 13 1 13 14
M  V30 14 1 14 15
M  V30 15 1 15 16
M  V30 16 1 16 17
M  V30 17 1 17 18
M  V30 18 1 18 19
M  V30 19 1 18 20
M  V30 20 1 17 21
M  V30 21 2 21 22
M  V30 22 1 21 23
M  V30 23 1 23 24
M  V30 24 1 24 25
M  V30 25 1 25 26
M  V30 26 1 26 27
M  V30 27 1 26 28
M  V30 28 1 28 29
M  V30 29 2 29 30
M  V30 30 1 29 31
M  V30 31 1 31 32
M  V30 32 2 32 33
M  V30 33 1 33 34
M  V30 34 1 33 35
M  V30 35 1 13 36
M  V30 36 1 36 37
M  V30 37 1 8 1
M  V30 38 1 20 15
M  V30 39 1 27 23
M  V30 40 1 36 1
M  V30 41 1 1 38 CFG=1
M  V30 42 1 2 39 CFG=1
M  V30 43 1 3 40 CFG=1
M  V30 44 1 4 41
M  V30 45 1 4 42
M  V30 46 1 4 43
M  V30 47 1 5 44
M  V30 48 1 11 45
M  V30 49 1 15 46 CFG=1
M  V30 50 1 16 47
M  V30 51 1 16 48
M  V30 52 1 17 49 CFG=3
M  V30 53 1 19 50
M  V30 54 1 19 51
M  V30 55 1 19 52
M  V30 56 1 20 53
M  V30 57 1 20 54
M  V30 58 1 24 55
M  V30 59 1 24 56
M  V30 60 1 25 57
M  V30 61 1 25 58
M  V30 62 1 26 59 CFG=3
M  V30 63 1 27 60
M  V30 64 1 27 61
M  V30 65 1 28 62
M  V30 66 1 31 63
M  V30 67 1 31 64
M  V30 68 1 34 65
M  V30 69 1 34 66
M  V30 70 1 35 67
M  V30 71 1 35 68
M  V30 72 1 36 69 CFG=3
M  V30 73 1 37 70
M  V30 74 1 37 71
M  V30 75 1 37 72
M  V30 END BOND
M  V30 END CTAB
M  END
