
     RDKit          3D

  0  0  0  0  0  0  0  0  0  0999 V3000
M  V30 BEGIN CTAB
M  V30 COUNTS 36 38 0 0 0
M  V30 BEGIN ATOM
M  V30 1 C 5.8428 1.32628 -0.468753 0
M  V30 2 C 5.61451 0.272103 -0.986729 0
M  V30 3 C 5.33067 -1.00387 -1.61884 0
M  V30 4 S 3.81153 -0.911679 -2.61499 0
M  V30 5 C 2.38254 -0.656994 -1.58086 0
M  V30 6 N 1.93784 0.56146 -1.24882 0
M  V30 7 C 0.871489 0.80724 -0.478115 0
M  V30 8 N 0.470865 2.13739 -0.169204 0
M  V30 9 C 0.179616 -0.316946 0.00958495 0
M  V30 10 C 0.60797 -1.56994 -0.310213 0
M  V30 11 N 1.71392 -1.71282 -1.10871 0
M  V30 12 O -0.0283149 -2.74635 0.139078 0
M  V30 13 C -1.14367 -2.54339 0.945537 0
M  V30 14 C -1.59917 -1.37255 1.28192 0
M  V30 15 C -0.984931 -0.134308 0.84446 0
M  V30 16 C -1.96191 0.863488 0.368477 0
M  V30 17 C -2.49608 0.725095 -0.878018 0
M  V30 18 C -3.43618 1.66065 -1.29063 0
M  V30 19 C -3.80014 2.6926 -0.437865 0
M  V30 20 N -3.24873 2.78908 0.77943 0
M  V30 21 C -2.34402 1.88504 1.17038 0
M  V30 22 C -2.79698 -1.33509 2.14824 0
M  V30 23 N -3.73981 -1.28038 2.83093 0
M  V30 24 N -1.86063 -3.69205 1.4557 0
M  V30 25 H 6.06155 2.25121 -0.0130512 0
M  V30 26 H 5.21705 -1.77933 -0.807294 0
M  V30 27 H 6.15929 -1.3599 -2.24878 0
M  V30 28 H 0.703163 2.54572 0.760542 0
M  V30 29 H -0.0529478 2.74056 -0.836018 0
M  V30 30 H -0.560914 0.317646 1.81809 0
M  V30 31 H -2.25229 -0.0564164 -1.58388 0
M  V30 32 H -3.91361 1.63606 -2.25715 0
M  V30 33 H -4.53703 3.42112 -0.767133 0
M  V30 34 H -1.92967 2.02332 2.18315 0
M  V30 35 H -2.21179 -4.36855 0.770743 0
M  V30 36 H -2.006 -3.81547 2.46122 0
M  V30 END ATOM
M  V30 BEGIN BOND
M  V30 1 3 1 2
M  V30 2 1 2 3
M  V30 3 1 3 4
M  V30 4 1 4 5
M  V30 5 2 5 6
M  V30 6 1 6 7
M  V30 7 1 7 8
M  V30 8 2 7 9
M  V30 9 1 9 10
M  V30 10 2 10 11
M  V30 11 1 10 12
M  V30 12 1 12 13
M  V30 13 2 13 14
M  V30 14 1 14 15
M  V30 15 1 15 16
M  V30 16 2 16 17
M  V30 17 1 17 18
M  V30 18 2 18 19
M  V30 19 1 19 20
M  V30 20 2 20 21
M  V30 21 1 14 22
M  V30 22 3 22 23
M  V30 23 1 13 24
M  V30 24 1 11 5
M  V30 25 1 21 16
M  V30 26 1 15 9
M  V30 27 1 1 25
M  V30 28 1 3 26
M  V30 29 1 3 27
M  V30 30 1 8 28
M  V30 31 1 8 29
M  V30 32 1 15 30
M  V30 33 1 17 31
M  V30 34 1 18 32
M  V30 35 1 19 33
M  V30 36 1 21 34
M  V30 37 1 24 35
M  V30 38 1 24 36
M  V30 END BOND
M  V30 END CTAB
M  END
