
     RDKit          3D

  0  0  0  0  0  0  0  0  0  0999 V3000
M  V30 BEGIN CTAB
M  V30 COUNTS 61 64 0 0 0
M  V30 BEGIN ATOM
M  V30 1 N 5.04404 -2.32017 -2.81428 0
M  V30 2 C 5.44288 -1.85363 -1.53424 0
M  V30 3 N 4.94968 -0.813003 -0.887427 0
M  V30 4 C 5.35157 -0.359346 0.305435 0
M  V30 5 C 4.73938 0.812213 0.934352 0
M  V30 6 S 3.4258 0.552778 2.08303 0
M  V30 7 C 1.96658 -0.237527 1.50448 0
M  V30 8 N 1.82606 -1.58284 1.55962 0
M  V30 9 N 0.659533 -1.91979 1.13726 0
M  V30 10 C -0.0442144 -0.773614 0.773171 0
M  V30 11 N 0.773661 0.236932 1.00782 0
M  V30 12 C 0.599789 1.64342 0.934867 0
M  V30 13 C -0.755649 2.25009 0.849797 0
M  V30 14 C -0.587895 3.7555 1.1737 0
M  V30 15 C 0.838924 4.12123 1.45195 0
M  V30 16 C 1.81963 3.675 0.383872 0
M  V30 17 C 1.38989 2.33477 -0.154503 0
M  V30 18 C -1.42345 -0.884329 0.382508 0
M  V30 19 C -2.24451 -1.7033 1.17476 0
M  V30 20 C -3.58499 -1.9205 0.846565 0
M  V30 21 C -4.12109 -1.33226 -0.271616 0
M  V30 22 C -3.31168 -0.524135 -1.07111 0
M  V30 23 C -1.99602 -0.336666 -0.703917 0
M  V30 24 C -5.55085 -1.40414 -0.706767 0
M  V30 25 C -6.01756 0.0562143 -0.888237 0
M  V30 26 C -5.71281 -2.11475 -2.01188 0
M  V30 27 C -6.45874 -2.01666 0.31099 0
M  V30 28 N 6.34618 -1.02587 0.893751 0
M  V30 29 C 6.90853 -2.11123 0.291489 0
M  V30 30 N 6.4664 -2.51669 -0.895657 0
M  V30 31 N 7.9632 -2.84882 0.901003 0
M  V30 32 H 5.54076 -2.0166 -3.7098 0
M  V30 33 H 4.25811 -2.9847 -2.98196 0
M  V30 34 H 5.52172 1.43654 1.47483 0
M  V30 35 H 4.39441 1.56162 0.141873 0
M  V30 36 H 1.02182 2.05733 1.92952 0
M  V30 37 H -1.00252 2.31395 -0.261256 0
M  V30 38 H -1.53698 1.87824 1.47927 0
M  V30 39 H -0.935286 4.3786 0.321143 0
M  V30 40 H -1.2148 4.03972 2.04038 0
M  V30 41 H 1.17912 3.94349 2.4855 0
M  V30 42 H 0.85275 5.2638 1.37414 0
M  V30 43 H 2.80696 3.50597 0.908981 0
M  V30 44 H 1.95959 4.43465 -0.418576 0
M  V30 45 H 2.19233 1.7425 -0.58242 0
M  V30 46 H 0.694732 2.51637 -1.04803 0
M  V30 47 H -1.88765 -2.18662 2.06637 0
M  V30 48 H -4.23782 -2.54619 1.45935 0
M  V30 49 H -3.71752 -0.071281 -1.95103 0
M  V30 50 H -1.41166 0.290811 -1.4043 0
M  V30 51 H -7.0789 0.0566346 -0.693554 0
M  V30 52 H -5.48006 0.697294 -0.158553 0
M  V30 53 H -5.75082 0.325913 -1.91236 0
M  V30 54 H -6.15684 -3.11157 -1.95416 0
M  V30 55 H -6.3571 -1.50374 -2.71784 0
M  V30 56 H -4.73064 -2.21052 -2.4932 0
M  V30 57 H -7.49708 -1.97161 -0.148341 0
M  V30 58 H -6.27324 -3.07712 0.524597 0
M  V30 59 H -6.55229 -1.37255 1.21937 0
M  V30 60 H 8.09084 -3.86884 0.698553 0
M  V30 61 H 8.60583 -2.36096 1.55371 0
M  V30 END ATOM
M  V30 BEGIN BOND
M  V30 1 1 1 2
M  V30 2 2 2 3
M  V30 3 1 3 4
M  V30 4 1 4 5
M  V30 5 1 5 6
M  V30 6 1 6 7
M  V30 7 2 7 8
M  V30 8 1 8 9
M  V30 9 2 9 10
M  V30 10 1 10 11
M  V30 11 1 11 12
M  V30 12 1 12 13
M  V30 13 1 13 14
M  V30 14 1 14 15
M  V30 15 1 15 16
M  V30 16 1 16 17
M  V30 17 1 10 18
M  V30 18 2 18 19
M  V30 19 1 19 20
M  V30 20 2 20 21
M  V30 21 1 21 22
M  V30 22 2 22 23
M  V30 23 1 21 24
M  V30 24 1 24 25
M  V30 25 1 24 26
M  V30 26 1 24 27
M  V30 27 2 4 28
M  V30 28 1 28 29
M  V30 29 2 29 30
M  V30 30 1 29 31
M  V30 31 1 30 2
M  V30 32 1 11 7
M  V30 33 1 17 12
M  V30 34 1 23 18
M  V30 35 1 1 32
M  V30 36 1 1 33
M  V30 37 1 5 34
M  V30 38 1 5 35
M  V30 39 1 12 36
M  V30 40 1 13 37
M  V30 41 1 13 38
M  V30 42 1 14 39
M  V30 43 1 14 40
M  V30 44 1 15 41
M  V30 45 1 15 42
M  V30 46 1 16 43
M  V30 47 1 16 44
M  V30 48 1 17 45
M  V30 49 1 17 46
M  V30 50 1 19 47
M  V30 51 1 20 48
M  V30 52 1 22 49
M  V30 53 1 23 50
M  V30 54 1 25 51
M  V30 55 1 25 52
M  V30 56 1 25 53
M  V30 57 1 26 54
M  V30 58 1 26 55
M  V30 59 1 26 56
M  V30 60 1 27 57
M  V30 61 1 27 58
M  V30 62 1 27 59
M  V30 63 1 31 60
M  V30 64 1 31 61
M  V30 END BOND
M  V30 END CTAB
M  END
