
     RDKit          3D

  0  0  0  0  0  0  0  0  0  0999 V3000
M  V30 BEGIN CTAB
M  V30 COUNTS 73 77 0 0 0
M  V30 BEGIN ATOM
M  V30 1 O 1.41542 0.0775246 -2.56773 0
M  V30 2 C 1.75959 -1.21488 -2.55664 0 CFG=2
M  V30 3 C 1.06757 -1.9859 -1.47887 0
M  V30 4 N 1.04752 -1.29549 -0.201136 0
M  V30 5 C 2.22394 -1.02821 0.590195 0
M  V30 6 C 3.33743 -0.478664 -0.221774 0 CFG=2
M  V30 7 C 3.9136 -1.36284 -1.25055 0 CFG=2
M  V30 8 C 3.22988 -1.33666 -2.58337 0
M  V30 9 C 4.12925 -2.78775 -0.823418 0
M  V30 10 O 5.21638 -0.852592 -1.50623 0
M  V30 11 N 4.40714 -0.0681151 0.701729 0
M  V30 12 C 4.77065 -0.666577 1.84948 0
M  V30 13 N 5.79745 0.0102211 2.41581 0
M  V30 14 C 6.11019 1.06944 1.62413 0
M  V30 15 C 5.22673 0.992019 0.56622 0
M  V30 16 N 5.3225 1.94888 -0.391212 0
M  V30 17 C 6.24268 2.92607 -0.302768 0
M  V30 18 N 6.26538 3.8823 -1.3544 0
M  V30 19 N 7.10115 2.9821 0.746938 0
M  V30 20 C 7.05839 2.06493 1.72825 0
M  V30 21 N 7.95761 2.13325 2.81674 0
M  V30 22 C -0.205927 -0.854614 0.303568 0
M  V30 23 O -0.213583 -0.258855 1.40971 0
M  V30 24 C -1.47512 -1.05327 -0.385241 0
M  V30 25 C -2.62105 -0.471797 0.412429 0
M  V30 26 C -3.91716 -0.714984 -0.367615 0
M  V30 27 N -5.06435 -0.198034 0.309744 0
M  V30 28 C -5.55953 1.04452 0.164617 0
M  V30 29 N -6.63683 1.12381 0.974456 0
M  V30 30 C -6.8121 -0.0437948 1.61261 0
M  V30 31 C -5.80923 -0.89095 1.19046 0
M  V30 32 C -5.74895 -2.18595 1.69877 0
M  V30 33 C -6.65969 -2.66405 2.61724 0
M  V30 34 C -7.65598 -1.81213 3.03218 0
M  V30 35 C -7.73651 -0.523989 2.54268 0
M  V30 36 C -5.04798 2.15135 -0.710701 0
M  V30 37 C -4.73523 3.3368 0.14868 0
M  V30 38 C -6.09363 2.50477 -1.76578 0
M  V30 39 H 0.614931 0.409013 -2.60274 0
M  V30 40 H 1.37221 -1.62838 -3.53707 0
M  V30 41 H 1.52773 -2.99306 -1.41669 0
M  V30 42 H 0.0111442 -2.17681 -1.82617 0
M  V30 43 H 2.50869 -1.88199 1.23737 0
M  V30 44 H 1.92583 -0.214891 1.31825 0
M  V30 45 H 2.98486 0.455612 -0.706686 0
M  V30 46 H 3.53373 -2.26614 -3.13402 0
M  V30 47 H 3.63156 -0.496286 -3.22344 0
M  V30 48 H 5.18486 -2.98542 -0.489592 0
M  V30 49 H 3.99308 -3.46058 -1.71297 0
M  V30 50 H 3.48132 -3.14252 -0.0330855 0
M  V30 51 H 5.87835 -1.26738 -0.916581 0
M  V30 52 H 4.29852 -1.56018 2.24725 0
M  V30 53 H 6.42483 4.88047 -1.11012 0
M  V30 54 H 6.13244 3.65317 -2.36225 0
M  V30 55 H 8.44104 1.27952 3.14974 0
M  V30 56 H 8.13904 3.02988 3.28641 0
M  V30 57 H -1.73074 -2.11358 -0.577549 0
M  V30 58 H -1.48348 -0.519544 -1.37588 0
M  V30 59 H -2.4549 0.597957 0.557524 0
M  V30 60 H -2.66431 -0.961251 1.40375 0
M  V30 61 H -4.04963 -1.80647 -0.507415 0
M  V30 62 H -3.78008 -0.273661 -1.37786 0
M  V30 63 H -4.97542 -2.85348 1.37924 0
M  V30 64 H -6.57844 -3.69023 2.99381 0
M  V30 65 H -8.37507 -2.1754 3.75131 0
M  V30 66 H -8.50566 0.162103 2.85075 0
M  V30 67 H -4.16835 1.79678 -1.2469 0
M  V30 68 H -4.04987 4.03963 -0.32636 0
M  V30 69 H -5.68788 3.87869 0.330506 0
M  V30 70 H -4.33273 3.01731 1.13351 0
M  V30 71 H -6.92397 2.98741 -1.23669 0
M  V30 72 H -6.35907 1.59499 -2.31389 0
M  V30 73 H -5.57214 3.18683 -2.48401 0
M  V30 END ATOM
M  V30 BEGIN BOND
M  V30 1 1 1 2
M  V30 2 1 2 3
M  V30 3 1 3 4
M  V30 4 1 4 5
M  V30 5 1 5 6
M  V30 6 1 6 7
M  V30 7 1 7 8
M  V30 8 1 7 9
M  V30 9 1 7 10 CFG=3
M  V30 10 1 6 11
M  V30 11 1 11 12
M  V30 12 2 12 13
M  V30 13 1 13 14
M  V30 14 2 14 15
M  V30 15 1 15 16
M  V30 16 2 16 17
M  V30 17 1 17 18
M  V30 18 1 17 19
M  V30 19 2 19 20
M  V30 20 1 20 21
M  V30 21 1 4 22
M  V30 22 2 22 23
M  V30 23 1 22 24
M  V30 24 1 24 25
M  V30 25 1 25 26
M  V30 26 1 26 27
M  V30 27 1 27 28
M  V30 28 2 28 29
M  V30 29 1 29 30
M  V30 30 2 30 31
M  V30 31 1 31 32
M  V30 32 2 32 33
M  V30 33 1 33 34
M  V30 34 2 34 35
M  V30 35 1 28 36
M  V30 36 1 36 37
M  V30 37 1 36 38
M  V30 38 1 8 2
M  V30 39 1 15 11
M  V30 40 1 31 27
M  V30 41 1 20 14
M  V30 42 1 35 30
M  V30 43 1 1 39
M  V30 44 1 2 40 CFG=3
M  V30 45 1 3 41
M  V30 46 1 3 42
M  V30 47 1 5 43
M  V30 48 1 5 44
M  V30 49 1 6 45 CFG=3
M  V30 50 1 8 46
M  V30 51 1 8 47
M  V30 52 1 9 48
M  V30 53 1 9 49
M  V30 54 1 9 50
M  V30 55 1 10 51
M  V30 56 1 12 52
M  V30 57 1 18 53
M  V30 58 1 18 54
M  V30 59 1 21 55
M  V30 60 1 21 56
M  V30 61 1 24 57
M  V30 62 1 24 58
M  V30 63 1 25 59
M  V30 64 1 25 60
M  V30 65 1 26 61
M  V30 66 1 26 62
M  V30 67 1 32 63
M  V30 68 1 33 64
M  V30 69 1 34 65
M  V30 70 1 35 66
M  V30 71 1 36 67
M  V30 72 1 37 68
M  V30 73 1 37 69
M  V30 74 1 37 70
M  V30 75 1 38 71
M  V30 76 1 38 72
M  V30 77 1 38 73
M  V30 END BOND
M  V30 END CTAB
M  END
