
     RDKit          3D

  0  0  0  0  0  0  0  0  0  0999 V3000
M  V30 BEGIN CTAB
M  V30 COUNTS 23 23 0 0 0
M  V30 BEGIN ATOM
M  V30 1 N 2.56885 0.95742 0.291342 0
M  V30 2 C 1.15111 0.80744 0.486901 0
M  V30 3 C 0.625855 0.027043 -0.654826 0 CFG=1
M  V30 4 O 1.30237 -1.21698 -0.621592 0
M  V30 5 C 0.70827 -1.95156 0.386787 0
M  V30 6 C -0.738871 -1.50705 0.469535 0
M  V30 7 C -0.776551 -0.414293 -0.577915 0 CFG=1
M  V30 8 C -1.80609 0.613902 -0.314172 0
M  V30 9 N -1.90964 1.66558 -1.25742 0
M  V30 10 H 2.7666 1.77493 -0.276865 0
M  V30 11 H 2.94111 0.116737 -0.145109 0
M  V30 12 H 0.760461 1.83592 0.580724 0
M  V30 13 H 1.01666 0.259693 1.43169 0
M  V30 14 H 0.859355 0.492489 -1.62667 0
M  V30 15 H 0.689456 -3.04715 0.124643 0
M  V30 16 H 1.15662 -1.80493 1.37822 0
M  V30 17 H -0.967423 -1.04623 1.45967 0
M  V30 18 H -1.45442 -2.30088 0.248705 0
M  V30 19 H -1.03389 -0.92386 -1.54081 0
M  V30 20 H -2.80075 0.132957 -0.210956 0
M  V30 21 H -1.59855 1.06174 0.701831 0
M  V30 22 H -2.47856 2.44403 -0.818066 0
M  V30 23 H -0.981954 2.02304 -1.56705 0
M  V30 END ATOM
M  V30 BEGIN BOND
M  V30 1 1 1 2
M  V30 2 1 2 3
M  V30 3 1 3 4
M  V30 4 1 4 5
M  V30 5 1 5 6
M  V30 6 1 6 7
M  V30 7 1 7 8
M  V30 8 1 8 9
M  V30 9 1 7 3
M  V30 10 1 1 10
M  V30 11 1 1 11
M  V30 12 1 2 12
M  V30 13 1 2 13
M  V30 14 1 3 14 CFG=3
M  V30 15 1 5 15
M  V30 16 1 5 16
M  V30 17 1 6 17
M  V30 18 1 6 18
M  V30 19 1 7 19 CFG=3
M  V30 20 1 8 20
M  V30 21 1 8 21
M  V30 22 1 9 22
M  V30 23 1 9 23
M  V30 END BOND
M  V30 END CTAB
M  END
