
     RDKit          3D

  0  0  0  0  0  0  0  0  0  0999 V3000
M  V30 BEGIN CTAB
M  V30 COUNTS 47 50 0 0 0
M  V30 BEGIN ATOM
M  V30 1 O 1.84084 -1.67761 0.0487237 0
M  V30 2 C 0.862095 -1.00124 -0.32743 0
M  V30 3 N -0.332786 -1.01866 0.422748 0
M  V30 4 C -1.45169 -0.260276 -0.00918778 0
M  V30 5 C -2.33208 -0.819486 -0.89985 0
M  V30 6 C -3.44201 -0.114562 -1.34249 0
M  V30 7 C -3.67631 1.17713 -0.884367 0
M  V30 8 C -2.79702 1.74552 0.00990115 0
M  V30 9 C -1.68905 1.01695 0.439494 0
M  V30 10 O -3.05097 3.03886 0.455306 0
M  V30 11 C -4.36626 3.56978 0.440093 0
M  V30 12 C -5.02618 3.22216 -0.875133 0
M  V30 13 O -4.76961 1.9092 -1.30217 0
M  V30 14 C -0.371208 -1.82832 1.62566 0
M  V30 15 C -0.846951 -3.22525 1.35852 0
M  V30 16 C -0.112959 -4.34837 1.07048 0
M  V30 17 C -0.786063 -5.48578 0.87023 0
M  V30 18 C -2.14682 -5.44734 0.96668 0
M  V30 19 S -2.45371 -3.81257 1.33705 0
M  V30 20 C 0.960526 -0.191725 -1.54644 0
M  V30 21 S 1.51613 1.47874 -1.17911 0
M  V30 22 C 3.19554 1.47989 -0.593119 0
M  V30 23 N 3.78407 2.65688 -0.257903 0
M  V30 24 C 5.05122 2.72186 0.187063 0
M  V30 25 N 5.60857 3.97825 0.520291 0
M  V30 26 N 5.78067 1.59336 0.312033 0
M  V30 27 C 5.20981 0.418709 -0.0170609 0
M  V30 28 N 3.95748 0.384909 -0.45308 0
M  V30 29 N 6.01748 -0.74542 0.130628 0
M  V30 30 H -2.2048 -1.83501 -1.30047 0
M  V30 31 H -4.15225 -0.526934 -2.04319 0
M  V30 32 H -1.0355 1.51669 1.14167 0
M  V30 33 H -4.35146 4.6599 0.566069 0
M  V30 34 H -4.96973 3.13212 1.27051 0
M  V30 35 H -4.66486 3.96169 -1.61972 0
M  V30 36 H -6.12788 3.34982 -0.767636 0
M  V30 37 H 0.646373 -1.89576 2.01928 0
M  V30 38 H -1.03362 -1.41794 2.39485 0
M  V30 39 H 0.999135 -4.2635 1.01803 0
M  V30 40 H -0.277901 -6.44627 0.631242 0
M  V30 41 H -2.84296 -6.29454 0.830053 0
M  V30 42 H -0.0308079 -0.116723 -2.02809 0
M  V30 43 H 1.6761 -0.722327 -2.2303 0
M  V30 44 H 5.35333 4.44248 1.40768 0
M  V30 45 H 6.27259 4.42147 -0.136797 0
M  V30 46 H 6.82037 -0.792398 0.787529 0
M  V30 47 H 5.79113 -1.58837 -0.448015 0
M  V30 END ATOM
M  V30 BEGIN BOND
M  V30 1 2 1 2
M  V30 2 1 2 3
M  V30 3 1 3 4
M  V30 4 2 4 5
M  V30 5 1 5 6
M  V30 6 2 6 7
M  V30 7 1 7 8
M  V30 8 2 8 9
M  V30 9 1 8 10
M  V30 10 1 10 11
M  V30 11 1 11 12
M  V30 12 1 12 13
M  V30 13 1 3 14
M  V30 14 1 14 15
M  V30 15 2 15 16
M  V30 16 1 16 17
M  V30 17 2 17 18
M  V30 18 1 18 19
M  V30 19 1 2 20
M  V30 20 1 20 21
M  V30 21 1 21 22
M  V30 22 2 22 23
M  V30 23 1 23 24
M  V30 24 1 24 25
M  V30 25 2 24 26
M  V30 26 1 26 27
M  V30 27 2 27 28
M  V30 28 1 27 29
M  V30 29 1 9 4
M  V30 30 1 19 15
M  V30 31 1 28 22
M  V30 32 1 13 7
M  V30 33 1 5 30
M  V30 34 1 6 31
M  V30 35 1 9 32
M  V30 36 1 11 33
M  V30 37 1 11 34
M  V30 38 1 12 35
M  V30 39 1 12 36
M  V30 40 1 14 37
M  V30 41 1 14 38
M  V30 42 1 16 39
M  V30 43 1 17 40
M  V30 44 1 18 41
M  V30 45 1 20 42
M  V30 46 1 20 43
M  V30 47 1 25 44
M  V30 48 1 25 45
M  V30 49 1 29 46
M  V30 50 1 29 47
M  V30 END BOND
M  V30 END CTAB
M  END
