
     RDKit          3D

  0  0  0  0  0  0  0  0  0  0999 V3000
M  V30 BEGIN CTAB
M  V30 COUNTS 51 54 0 0 0
M  V30 BEGIN ATOM
M  V30 1 N -4.35697 -3.6495 -0.560649 0
M  V30 2 C -3.20794 -3.4546 -0.538731 0
M  V30 3 C -1.77699 -3.22051 -0.536335 0
M  V30 4 C -0.957614 -4.27509 -0.831363 0
M  V30 5 N -1.53702 -5.53217 -1.12468 0
M  V30 6 N 0.360936 -4.01258 -0.806171 0
M  V30 7 C 0.825601 -2.76991 -0.502998 0
M  V30 8 C 0.0399332 -1.68685 -0.20148 0
M  V30 9 C -1.33999 -1.93477 -0.222784 0
M  V30 10 C -2.36076 -0.933094 0.0446062 0
M  V30 11 C -3.03701 -0.974385 1.25108 0
M  V30 12 C -4.03982 -0.0771223 1.55198 0
M  V30 13 C -4.40125 0.89442 0.657229 0
M  V30 14 C -3.72748 0.953364 -0.566945 0
M  V30 15 C -2.7399 0.0529495 -0.840075 0
M  V30 16 O -4.10407 1.94513 -1.45626 0
M  V30 17 C -3.58386 2.19196 -2.73002 0
M  V30 18 O -5.40711 1.82145 0.908444 0
M  V30 19 C -6.1276 1.78898 2.13536 0
M  V30 20 C 0.672174 -0.536398 0.0792596 0
M  V30 21 N 0.0186104 0.712025 0.440948 0
M  V30 22 C 2.03667 -0.532838 0.0401288 0
M  V30 23 S 2.40844 -2.16049 -0.391767 0
M  V30 24 C 3.01442 0.543912 0.295837 0
M  V30 25 O 2.52629 1.64021 0.599178 0
M  V30 26 N 4.36484 0.269117 0.185609 0
M  V30 27 C 5.44475 1.11981 0.38596 0
M  V30 28 C 6.76586 0.651852 0.239923 0
M  V30 29 C 7.8596 1.45724 0.444451 0
M  V30 30 C 7.6953 2.77033 0.805206 0
M  V30 31 C 6.43709 3.26737 0.958151 0
M  V30 32 C 5.33801 2.43486 0.746241 0
M  V30 33 H -1.1584 -6.16981 -1.86384 0
M  V30 34 H -2.38167 -5.87258 -0.597537 0
M  V30 35 H -2.77854 -1.7358 1.98994 0
M  V30 36 H -4.56799 -0.123415 2.51684 0
M  V30 37 H -2.19106 0.0586648 -1.77634 0
M  V30 38 H -3.35796 3.28017 -2.87349 0
M  V30 39 H -4.33861 1.92037 -3.52854 0
M  V30 40 H -2.65618 1.61988 -2.88557 0
M  V30 41 H -6.66263 0.801688 2.246 0
M  V30 42 H -5.41548 1.92214 2.97164 0
M  V30 43 H -6.85909 2.62513 2.18602 0
M  V30 44 H 0.0486469 1.46032 -0.281585 0
M  V30 45 H -0.445935 0.871022 1.33381 0
M  V30 46 H 4.63959 -0.742776 -0.0959849 0
M  V30 47 H 6.88905 -0.373584 -0.0432391 0
M  V30 48 H 8.85472 1.06882 0.325805 0
M  V30 49 H 8.55595 3.41302 0.969753 0
M  V30 50 H 6.32811 4.31119 1.24844 0
M  V30 51 H 4.39435 2.90087 0.885953 0
M  V30 END ATOM
M  V30 BEGIN BOND
M  V30 1 3 1 2
M  V30 2 1 2 3
M  V30 3 2 3 4
M  V30 4 1 4 5
M  V30 5 1 4 6
M  V30 6 2 6 7
M  V30 7 1 7 8
M  V30 8 2 8 9
M  V30 9 1 9 10
M  V30 10 2 10 11
M  V30 11 1 11 12
M  V30 12 2 12 13
M  V30 13 1 13 14
M  V30 14 2 14 15
M  V30 15 1 14 16
M  V30 16 1 16 17
M  V30 17 1 13 18
M  V30 18 1 18 19
M  V30 19 1 8 20
M  V30 20 1 20 21
M  V30 21 2 20 22
M  V30 22 1 22 23
M  V30 23 1 22 24
M  V30 24 2 24 25
M  V30 25 1 24 26
M  V30 26 1 26 27
M  V30 27 2 27 28
M  V30 28 1 28 29
M  V30 29 2 29 30
M  V30 30 1 30 31
M  V30 31 2 31 32
M  V30 32 1 9 3
M  V30 33 1 15 10
M  V30 34 1 32 27
M  V30 35 1 23 7
M  V30 36 1 5 33
M  V30 37 1 5 34
M  V30 38 1 11 35
M  V30 39 1 12 36
M  V30 40 1 15 37
M  V30 41 1 17 38
M  V30 42 1 17 39
M  V30 43 1 17 40
M  V30 44 1 19 41
M  V30 45 1 19 42
M  V30 46 1 19 43
M  V30 47 1 21 44
M  V30 48 1 21 45
M  V30 49 1 26 46
M  V30 50 1 28 47
M  V30 51 1 29 48
M  V30 52 1 30 49
M  V30 53 1 31 50
M  V30 54 1 32 51
M  V30 END BOND
M  V30 END CTAB
M  END
