
     RDKit          3D

  0  0  0  0  0  0  0  0  0  0999 V3000
M  V30 BEGIN CTAB
M  V30 COUNTS 34 34 0 0 0
M  V30 BEGIN ATOM
M  V30 1 C -3.72538 0.391464 0.800687 0
M  V30 2 C -2.44393 1.15978 0.851214 0
M  V30 3 S -1.51517 1.13427 -0.643233 0
M  V30 4 O -2.37519 1.74395 -1.74537 0
M  V30 5 O -0.351612 2.06418 -0.488249 0
M  V30 6 C -1.03308 -0.477045 -1.15283 0
M  V30 7 C -0.180006 -1.20306 -0.165237 0
M  V30 8 C 1.08225 -0.525895 0.14472 0
M  V30 9 C 1.2768 0.169054 1.3376 0
M  V30 10 C 2.46204 0.808306 1.63491 0
M  V30 11 C 3.50684 0.766483 0.72323 0
M  V30 12 C 3.31618 0.0813345 -0.45373 0
M  V30 13 C 2.1296 -0.559431 -0.752911 0
M  V30 14 N 4.7353 1.41838 1.01071 0
M  V30 15 N 0.111106 -2.53106 -0.683778 0
M  V30 16 C -2.25674 -1.28086 -1.54448 0
M  V30 17 H -4.30787 0.600853 -0.101587 0
M  V30 18 H -3.58027 -0.702194 0.999992 0
M  V30 19 H -4.3457 0.737071 1.67396 0
M  V30 20 H -2.68233 2.2153 1.10572 0
M  V30 21 H -1.81367 0.788035 1.70008 0
M  V30 22 H -0.444533 -0.339583 -2.10131 0
M  V30 23 H -0.769413 -1.34377 0.769891 0
M  V30 24 H 0.487804 0.23044 2.08416 0
M  V30 25 H 2.62674 1.35155 2.55732 0
M  V30 26 H 4.11772 0.0349028 -1.18097 0
M  V30 27 H 2.05906 -1.08131 -1.70877 0
M  V30 28 H 5.18772 1.93 0.206635 0
M  V30 29 H 5.1573 1.38965 1.95621 0
M  V30 30 H 0.391617 -2.51275 -1.68149 0
M  V30 31 H 0.83216 -3.02062 -0.139291 0
M  V30 32 H -3.06324 -0.558075 -1.78549 0
M  V30 33 H -2.51512 -1.97391 -0.724952 0
M  V30 34 H -2.07698 -1.83537 -2.50337 0
M  V30 END ATOM
M  V30 BEGIN BOND
M  V30 1 1 1 2
M  V30 2 1 2 3
M  V30 3 2 3 4
M  V30 4 2 3 5
M  V30 5 1 3 6
M  V30 6 1 6 7
M  V30 7 1 7 8
M  V30 8 2 8 9
M  V30 9 1 9 10
M  V30 10 2 10 11
M  V30 11 1 11 12
M  V30 12 2 12 13
M  V30 13 1 11 14
M  V30 14 1 7 15
M  V30 15 1 6 16
M  V30 16 1 13 8
M  V30 17 1 1 17
M  V30 18 1 1 18
M  V30 19 1 1 19
M  V30 20 1 2 20
M  V30 21 1 2 21
M  V30 22 1 6 22
M  V30 23 1 7 23
M  V30 24 1 9 24
M  V30 25 1 10 25
M  V30 26 1 12 26
M  V30 27 1 13 27
M  V30 28 1 14 28
M  V30 29 1 14 29
M  V30 30 1 15 30
M  V30 31 1 15 31
M  V30 32 1 16 32
M  V30 33 1 16 33
M  V30 34 1 16 34
M  V30 END BOND
M  V30 END CTAB
M  END
