
     RDKit          3D

  0  0  0  0  0  0  0  0  0  0999 V3000
M  V30 BEGIN CTAB
M  V30 COUNTS 44 44 0 0 0
M  V30 BEGIN ATOM
M  V30 1 C -3.48459 -0.884145 2.44563 0
M  V30 2 C -2.67979 -1.37566 1.30627 0
M  V30 3 C -2.87091 -0.722071 -0.0254485 0
M  V30 4 C -1.93603 -1.3332 -1.06066 0
M  V30 5 N -0.55361 -1.27476 -0.815536 0
M  V30 6 C 0.251024 -0.128438 -0.725616 0
M  V30 7 O -0.213671 1.00975 -0.876071 0
M  V30 8 C 1.73856 -0.281894 -0.434966 0
M  V30 9 C 2.33423 1.08326 -0.396582 0
M  V30 10 C 3.7972 1.06159 -0.118156 0
M  V30 11 C 4.45532 -0.109895 0.221306 0
M  V30 12 C 5.81547 -0.123907 0.478745 0
M  V30 13 C 6.55136 1.03424 0.402941 0
M  V30 14 C 5.91912 2.22376 0.0650007 0
M  V30 15 C 4.56484 2.20505 -0.185303 0
M  V30 16 N 2.03078 1.85229 -1.56913 0
M  V30 17 C -4.26386 -1.00751 -0.630241 0
M  V30 18 C -5.40832 -0.52691 0.155564 0
M  V30 19 N -2.81089 0.699765 0.0933118 0
M  V30 20 H -2.86903 -0.836771 3.40569 0
M  V30 21 H -4.25792 -1.65358 2.70998 0
M  V30 22 H -3.99545 0.0657199 2.29349 0
M  V30 23 H -1.59449 -1.27931 1.60316 0
M  V30 24 H -2.82016 -2.49584 1.23583 0
M  V30 25 H -2.2606 -2.40772 -1.20347 0
M  V30 26 H -2.18999 -0.782447 -2.0226 0
M  V30 27 H -0.0183298 -2.20682 -0.67505 0
M  V30 28 H 2.20582 -0.924919 -1.18669 0
M  V30 29 H 1.76586 -0.800657 0.544496 0
M  V30 30 H 1.84625 1.6248 0.467167 0
M  V30 31 H 3.86015 -1.0179 0.277299 0
M  V30 32 H 6.33349 -1.0427 0.745316 0
M  V30 33 H 7.61324 1.08054 0.593364 0
M  V30 34 H 6.51484 3.134 0.00867243 0
M  V30 35 H 4.06157 3.13093 -0.450453 0
M  V30 36 H 2.56041 1.5504 -2.41648 0
M  V30 37 H 2.14942 2.85646 -1.33639 0
M  V30 38 H -4.34133 -2.08135 -0.899825 0
M  V30 39 H -4.24991 -0.463767 -1.61231 0
M  V30 40 H -5.74587 -1.13633 1.00083 0
M  V30 41 H -5.2758 0.559311 0.394575 0
M  V30 42 H -6.30994 -0.546495 -0.551631 0
M  V30 43 H -2.70869 1.05703 1.05876 0
M  V30 44 H -3.50976 1.2161 -0.465857 0
M  V30 END ATOM
M  V30 BEGIN BOND
M  V30 1 1 1 2
M  V30 2 1 2 3
M  V30 3 1 3 4
M  V30 4 1 4 5
M  V30 5 1 5 6
M  V30 6 2 6 7
M  V30 7 1 6 8
M  V30 8 1 8 9
M  V30 9 1 9 10
M  V30 10 2 10 11
M  V30 11 1 11 12
M  V30 12 2 12 13
M  V30 13 1 13 14
M  V30 14 2 14 15
M  V30 15 1 9 16
M  V30 16 1 3 17
M  V30 17 1 17 18
M  V30 18 1 3 19
M  V30 19 1 15 10
M  V30 20 1 1 20
M  V30 21 1 1 21
M  V30 22 1 1 22
M  V30 23 1 2 23
M  V30 24 1 2 24
M  V30 25 1 4 25
M  V30 26 1 4 26
M  V30 27 1 5 27
M  V30 28 1 8 28
M  V30 29 1 8 29
M  V30 30 1 9 30
M  V30 31 1 11 31
M  V30 32 1 12 32
M  V30 33 1 13 33
M  V30 34 1 14 34
M  V30 35 1 15 35
M  V30 36 1 16 36
M  V30 37 1 16 37
M  V30 38 1 17 38
M  V30 39 1 17 39
M  V30 40 1 18 40
M  V30 41 1 18 41
M  V30 42 1 18 42
M  V30 43 1 19 43
M  V30 44 1 19 44
M  V30 END BOND
M  V30 END CTAB
M  END
