
     RDKit          3D

  0  0  0  0  0  0  0  0  0  0999 V3000
M  V30 BEGIN CTAB
M  V30 COUNTS 51 54 0 0 0
M  V30 BEGIN ATOM
M  V30 1 N -1.1156 4.36326 -1.1804 0
M  V30 2 C -1.78334 3.53008 -0.734679 0
M  V30 3 C -2.61425 2.44951 -0.169781 0
M  V30 4 C -3.91096 2.59247 -0.111102 0
M  V30 5 N -4.41557 3.84425 -0.626639 0
M  V30 6 O -4.77506 1.64208 0.399085 0
M  V30 7 C -4.16069 0.454917 0.875916 0
M  V30 8 C -2.81851 0.24588 0.842704 0
M  V30 9 C -1.92649 1.25582 0.297654 0
M  V30 10 C -0.950763 0.741217 -0.687089 0
M  V30 11 C -1.29937 0.590413 -1.99578 0
M  V30 12 C -0.355581 0.113761 -2.87886 0
M  V30 13 C 0.908019 -0.200556 -2.44177 0
M  V30 14 C 1.29485 -0.0561405 -1.10418 0
M  V30 15 C 0.303704 0.426015 -0.2686 0
M  V30 16 O 2.57543 -0.376619 -0.67039 0
M  V30 17 C 2.84414 -0.187882 0.705543 0
M  V30 18 C 4.22978 -0.555544 1.06622 0
M  V30 19 C 4.59727 -0.388433 2.38839 0
M  V30 20 C 5.86797 -0.700797 2.83344 0
M  V30 21 C 6.80988 -1.19189 1.96005 0
M  V30 22 C 6.43108 -1.35447 0.642356 0
M  V30 23 C 5.16366 -1.04325 0.196852 0
M  V30 24 O 1.91469 -0.689157 -3.28472 0
M  V30 25 C 1.7515 -0.910474 -4.65884 0
M  V30 26 C -2.28347 -0.956025 1.33502 0
M  V30 27 C -3.11978 -1.90092 1.84133 0
M  V30 28 C -4.49183 -1.70025 1.88087 0
M  V30 29 C -5.01659 -0.529069 1.40164 0
M  V30 30 N -5.36614 -2.70194 2.41618 0
M  V30 31 H -4.93431 4.47142 0.00199222 0
M  V30 32 H -4.25925 4.10793 -1.61167 0
M  V30 33 H -1.2991 1.60711 1.19267 0
M  V30 34 H -2.2887 0.827296 -2.38496 0
M  V30 35 H -0.574603 -0.0283377 -3.93356 0
M  V30 36 H 0.620415 0.53563 0.782456 0
M  V30 37 H 2.61884 0.881159 0.98798 0
M  V30 38 H 2.14189 -0.846685 1.25666 0
M  V30 39 H 3.897 -0.00402892 3.12675 0
M  V30 40 H 6.16012 -0.569582 3.87718 0
M  V30 41 H 7.80534 -1.43495 2.31546 0
M  V30 42 H 7.16773 -1.745 -0.0709085 0
M  V30 43 H 4.85916 -1.16855 -0.836662 0
M  V30 44 H 1.08098 -0.146156 -5.10182 0
M  V30 45 H 2.72562 -0.908769 -5.20351 0
M  V30 46 H 1.29933 -1.93087 -4.78508 0
M  V30 47 H -1.2004 -1.07726 1.28926 0
M  V30 48 H -2.71363 -2.83313 2.22407 0
M  V30 49 H -6.07592 -0.346743 1.41997 0
M  V30 50 H -5.12734 -3.70167 2.18513 0
M  V30 51 H -6.19113 -2.49505 2.9982 0
M  V30 END ATOM
M  V30 BEGIN BOND
M  V30 1 3 1 2
M  V30 2 1 2 3
M  V30 3 2 3 4
M  V30 4 1 4 5
M  V30 5 1 4 6
M  V30 6 1 6 7
M  V30 7 2 7 8
M  V30 8 1 8 9
M  V30 9 1 9 10
M  V30 10 2 10 11
M  V30 11 1 11 12
M  V30 12 2 12 13
M  V30 13 1 13 14
M  V30 14 2 14 15
M  V30 15 1 14 16
M  V30 16 1 16 17
M  V30 17 1 17 18
M  V30 18 2 18 19
M  V30 19 1 19 20
M  V30 20 2 20 21
M  V30 21 1 21 22
M  V30 22 2 22 23
M  V30 23 1 13 24
M  V30 24 1 24 25
M  V30 25 1 8 26
M  V30 26 2 26 27
M  V30 27 1 27 28
M  V30 28 2 28 29
M  V30 29 1 28 30
M  V30 30 1 9 3
M  V30 31 1 15 10
M  V30 32 1 23 18
M  V30 33 1 29 7
M  V30 34 1 5 31
M  V30 35 1 5 32
M  V30 36 1 9 33
M  V30 37 1 11 34
M  V30 38 1 12 35
M  V30 39 1 15 36
M  V30 40 1 17 37
M  V30 41 1 17 38
M  V30 42 1 19 39
M  V30 43 1 20 40
M  V30 44 1 21 41
M  V30 45 1 22 42
M  V30 46 1 23 43
M  V30 47 1 25 44
M  V30 48 1 25 45
M  V30 49 1 25 46
M  V30 50 1 26 47
M  V30 51 1 27 48
M  V30 52 1 29 49
M  V30 53 1 30 50
M  V30 54 1 30 51
M  V30 END BOND
M  V30 END CTAB
M  END
