
     RDKit          3D

  0  0  0  0  0  0  0  0  0  0999 V3000
M  V30 BEGIN CTAB
M  V30 COUNTS 41 44 0 0 0
M  V30 BEGIN ATOM
M  V30 1 O 1.49868 -2.57506 -2.1455 0
M  V30 2 C 0.845891 -1.62332 -1.61772 0
M  V30 3 C -0.581561 -1.37547 -1.88574 0
M  V30 4 N -0.936189 -0.485874 -0.760725 0
M  V30 5 C 0.262681 0.0208501 -0.208911 0
M  V30 6 C 1.32684 -0.61572 -0.682437 0
M  V30 7 C 2.7377 -0.377102 -0.353836 0
M  V30 8 N 3.35222 0.824263 -0.133521 0
M  V30 9 C 4.65228 0.642924 0.145955 0
M  V30 10 C 4.88613 -0.717193 0.105554 0
M  V30 11 N 3.71693 -1.28319 -0.195844 0
M  V30 12 C 6.16649 -1.22484 0.359445 0
M  V30 13 C 7.21507 -0.39047 0.652932 0
M  V30 14 C 6.97439 0.980457 0.692404 0
M  V30 15 C 5.71374 1.47113 0.441648 0
M  V30 16 N 0.364319 1.07762 0.728264 0
M  V30 17 C -2.29837 -0.267906 -0.427384 0
M  V30 18 C -2.67037 0.204737 0.798665 0
M  V30 19 C -4.01341 0.443309 1.13537 0
M  V30 20 C -5.01103 0.202279 0.22033 0
M  V30 21 C -4.64445 -0.275889 -1.0202 0
M  V30 22 C -3.32713 -0.506179 -1.33977 0
M  V30 23 S -6.71093 0.488516 0.614847 0
M  V30 24 O -6.94685 0.177483 2.04636 0
M  V30 25 O -7.60607 -0.414976 -0.213203 0
M  V30 26 N -7.0904 2.13431 0.276543 0
M  V30 27 H -1.20419 -2.29859 -1.73685 0
M  V30 28 H -0.782668 -0.894612 -2.8449 0
M  V30 29 H 3.56899 -2.30761 -0.298895 0
M  V30 30 H 6.36094 -2.30297 0.330394 0
M  V30 31 H 8.18908 -0.819834 0.843357 0
M  V30 32 H 7.76987 1.65616 0.917128 0
M  V30 33 H 5.50241 2.55224 0.467046 0
M  V30 34 H 0.51617 0.910346 1.75606 0
M  V30 35 H 0.291316 2.07147 0.426897 0
M  V30 36 H -1.92629 0.407091 1.56176 0
M  V30 37 H -4.30003 0.8161 2.10827 0
M  V30 38 H -5.41496 -0.476608 -1.76675 0
M  V30 39 H -3.01392 -0.882218 -2.31051 0
M  V30 40 H -6.92521 2.31348 -0.717471 0
M  V30 41 H -6.50809 2.72086 0.915704 0
M  V30 END ATOM
M  V30 BEGIN BOND
M  V30 1 2 1 2
M  V30 2 1 2 3
M  V30 3 1 3 4
M  V30 4 1 4 5
M  V30 5 2 5 6
M  V30 6 1 6 7
M  V30 7 2 7 8
M  V30 8 1 8 9
M  V30 9 2 9 10
M  V30 10 1 10 11
M  V30 11 1 10 12
M  V30 12 2 12 13
M  V30 13 1 13 14
M  V30 14 2 14 15
M  V30 15 1 5 16
M  V30 16 1 4 17
M  V30 17 2 17 18
M  V30 18 1 18 19
M  V30 19 2 19 20
M  V30 20 1 20 21
M  V30 21 2 21 22
M  V30 22 1 20 23
M  V30 23 2 23 24
M  V30 24 2 23 25
M  V30 25 1 23 26
M  V30 26 1 6 2
M  V30 27 1 11 7
M  V30 28 1 22 17
M  V30 29 1 15 9
M  V30 30 1 3 27
M  V30 31 1 3 28
M  V30 32 1 11 29
M  V30 33 1 12 30
M  V30 34 1 13 31
M  V30 35 1 14 32
M  V30 36 1 15 33
M  V30 37 1 16 34
M  V30 38 1 16 35
M  V30 39 1 18 36
M  V30 40 1 19 37
M  V30 41 1 21 38
M  V30 42 1 22 39
M  V30 43 1 26 40
M  V30 44 1 26 41
M  V30 END BOND
M  V30 END CTAB
M  END
