
     RDKit          3D

  0  0  0  0  0  0  0  0  0  0999 V3000
M  V30 BEGIN CTAB
M  V30 COUNTS 20 21 0 0 0
M  V30 BEGIN ATOM
M  V30 1 N -2.58799 2.52114 0.647584 0
M  V30 2 C -1.90416 1.27385 0.457118 0
M  V30 3 N -2.55668 0.0995924 0.472873 0
M  V30 4 C -1.94953 -1.07696 0.298915 0
M  V30 5 N -2.60969 -2.32522 0.310625 0
M  V30 6 N -0.612269 -1.06118 0.0987943 0
M  V30 7 C 0.0957948 0.0892116 0.0730052 0
M  V30 8 N -0.575819 1.24188 0.254987 0
M  V30 9 N 1.50926 0.0708693 -0.14097 0
M  V30 10 C 2.33124 -0.950177 0.0906244 0
M  V30 11 C 3.60437 -0.522499 -0.258622 0
M  V30 12 C 3.49134 0.774703 -0.698085 0
M  V30 13 N 2.19263 1.09931 -0.609929 0
M  V30 14 H -3.61427 2.58668 0.545672 0
M  V30 15 H -2.01773 3.34808 0.889557 0
M  V30 16 H -2.54376 -2.92456 1.1466 0
M  V30 17 H -3.14902 -2.6199 -0.518248 0
M  V30 18 H 2.09407 -1.93951 0.476215 0
M  V30 19 H 4.50743 -1.10735 -0.193377 0
M  V30 20 H 4.29477 1.42204 -1.05148 0
M  V30 END ATOM
M  V30 BEGIN BOND
M  V30 1 1 1 2
M  V30 2 2 2 3
M  V30 3 1 3 4
M  V30 4 1 4 5
M  V30 5 2 4 6
M  V30 6 1 6 7
M  V30 7 2 7 8
M  V30 8 1 7 9
M  V30 9 1 9 10
M  V30 10 2 10 11
M  V30 11 1 11 12
M  V30 12 2 12 13
M  V30 13 1 8 2
M  V30 14 1 13 9
M  V30 15 1 1 14
M  V30 16 1 1 15
M  V30 17 1 5 16
M  V30 18 1 5 17
M  V30 19 1 10 18
M  V30 20 1 11 19
M  V30 21 1 12 20
M  V30 END BOND
M  V30 END CTAB
M  END
