
     RDKit          3D

  0  0  0  0  0  0  0  0  0  0999 V3000
M  V30 BEGIN CTAB
M  V30 COUNTS 31 32 0 0 0
M  V30 BEGIN ATOM
M  V30 1 N 4.42443 2.43991 -0.997045 0
M  V30 2 C 4.00044 1.29496 -0.25497 0
M  V30 3 N 2.85939 1.32729 0.489295 0
M  V30 4 C 2.44246 0.278716 1.19013 0
M  V30 5 C 1.25379 0.263887 2.02367 0
M  V30 6 O 0.0170012 0.255395 1.41499 0
M  V30 7 C -0.516611 -0.661449 0.53533 0
M  V30 8 O 0.218203 -1.62914 0.218906 0
M  V30 9 C -1.87334 -0.524238 -0.00632589 0
M  V30 10 C -2.64023 0.553035 0.384883 0
M  V30 11 C -3.92327 0.713372 -0.0828136 0
M  V30 12 C -4.48257 -0.201017 -0.958687 0
M  V30 13 C -3.66627 -1.26111 -1.31721 0
M  V30 14 N -2.41666 -1.40471 -0.85363 0
M  V30 15 C -5.85325 -0.0490201 -1.45939 0
M  V30 16 F -5.86388 0.0907963 -2.83171 0
M  V30 17 F -6.43897 1.05751 -0.888464 0
M  V30 18 F -6.61144 -1.17963 -1.18394 0
M  V30 19 N 3.20071 -0.842357 1.13943 0
M  V30 20 C 4.33937 -0.881712 0.400093 0
M  V30 21 N 4.74212 0.175025 -0.294612 0
M  V30 22 N 5.11605 -2.06033 0.370119 0
M  V30 23 H 5.02498 2.31734 -1.84772 0
M  V30 24 H 4.12261 3.36282 -0.665757 0
M  V30 25 H 1.34218 -0.542073 2.81663 0
M  V30 26 H 1.28137 1.20738 2.66512 0
M  V30 27 H -2.23721 1.29764 1.0725 0
M  V30 28 H -4.5594 1.56362 0.208802 0
M  V30 29 H -4.1001 -1.98889 -2.00956 0
M  V30 30 H 5.91218 -2.15902 1.01225 0
M  V30 31 H 4.88593 -2.814 -0.290321 0
M  V30 END ATOM
M  V30 BEGIN BOND
M  V30 1 1 1 2
M  V30 2 2 2 3
M  V30 3 1 3 4
M  V30 4 1 4 5
M  V30 5 1 5 6
M  V30 6 1 6 7
M  V30 7 2 7 8
M  V30 8 1 7 9
M  V30 9 2 9 10
M  V30 10 1 10 11
M  V30 11 2 11 12
M  V30 12 1 12 13
M  V30 13 2 13 14
M  V30 14 1 12 15
M  V30 15 1 15 16
M  V30 16 1 15 17
M  V30 17 1 15 18
M  V30 18 2 4 19
M  V30 19 1 19 20
M  V30 20 2 20 21
M  V30 21 1 20 22
M  V30 22 1 21 2
M  V30 23 1 14 9
M  V30 24 1 1 23
M  V30 25 1 1 24
M  V30 26 1 5 25
M  V30 27 1 5 26
M  V30 28 1 10 27
M  V30 29 1 11 28
M  V30 30 1 13 29
M  V30 31 1 22 30
M  V30 32 1 22 31
M  V30 END BOND
M  V30 END CTAB
M  END
