
     RDKit          3D

  0  0  0  0  0  0  0  0  0  0999 V3000
M  V30 BEGIN CTAB
M  V30 COUNTS 30 31 0 0 0
M  V30 BEGIN ATOM
M  V30 1 C 5.44091 -0.985899 -0.797516 0
M  V30 2 O 4.70169 0.185517 -0.579966 0
M  V30 3 C 3.34435 0.234591 -0.400218 0
M  V30 4 C 2.74809 1.46889 -0.194366 0
M  V30 5 C 1.38397 1.50976 -0.0146548 0
M  V30 6 C 0.596418 0.382477 -0.0314069 0
M  V30 7 C 1.17829 -0.849357 -0.235149 0
M  V30 8 C 2.56479 -0.90948 -0.419729 0
M  V30 9 C -0.859466 0.399039 0.157079 0
M  V30 10 C -1.53695 -0.639207 0.741267 0
M  V30 11 C -2.90527 -0.595534 0.904757 0
M  V30 12 N -3.63528 -1.65935 1.50802 0
M  V30 13 C -3.65915 0.506862 0.482858 0
M  V30 14 N -5.06702 0.535164 0.658705 0
M  V30 15 C -2.95269 1.53358 -0.0997475 0
M  V30 16 C -1.59534 1.49505 -0.264197 0
M  V30 17 H 4.99807 -1.77704 -0.156839 0
M  V30 18 H 6.50524 -0.886215 -0.499789 0
M  V30 19 H 5.41492 -1.29687 -1.86207 0
M  V30 20 H 3.37547 2.34629 -0.183211 0
M  V30 21 H 0.914268 2.45566 0.144757 0
M  V30 22 H 0.628852 -1.77846 -0.261764 0
M  V30 23 H 3.00093 -1.87323 -0.57672 0
M  V30 24 H -0.999671 -1.52007 1.08711 0
M  V30 25 H -3.94559 -1.66255 2.50202 0
M  V30 26 H -3.88343 -2.4941 0.935628 0
M  V30 27 H -5.67222 -0.310018 0.646449 0
M  V30 28 H -5.52532 1.4565 0.809301 0
M  V30 29 H -3.51569 2.4064 -0.438387 0
M  V30 30 H -1.04317 2.3216 -0.730986 0
M  V30 END ATOM
M  V30 BEGIN BOND
M  V30 1 1 1 2
M  V30 2 1 2 3
M  V30 3 2 3 4
M  V30 4 1 4 5
M  V30 5 2 5 6
M  V30 6 1 6 7
M  V30 7 2 7 8
M  V30 8 1 6 9
M  V30 9 2 9 10
M  V30 10 1 10 11
M  V30 11 1 11 12
M  V30 12 2 11 13
M  V30 13 1 13 14
M  V30 14 1 13 15
M  V30 15 2 15 16
M  V30 16 1 8 3
M  V30 17 1 16 9
M  V30 18 1 1 17
M  V30 19 1 1 18
M  V30 20 1 1 19
M  V30 21 1 4 20
M  V30 22 1 5 21
M  V30 23 1 7 22
M  V30 24 1 8 23
M  V30 25 1 10 24
M  V30 26 1 12 25
M  V30 27 1 12 26
M  V30 28 1 14 27
M  V30 29 1 14 28
M  V30 30 1 15 29
M  V30 31 1 16 30
M  V30 END BOND
M  V30 END CTAB
M  END
