
     RDKit          3D

  0  0  0  0  0  0  0  0  0  0999 V3000
M  V30 BEGIN CTAB
M  V30 COUNTS 40 43 0 0 0
M  V30 BEGIN ATOM
M  V30 1 O 3.98852 1.6763 0.689796 0
M  V30 2 C 3.5121 0.574559 0.433761 0
M  V30 3 C 2.0577 0.430027 0.274589 0
M  V30 4 S 1.16483 -0.966046 -0.0767321 0
M  V30 5 C -0.401794 -0.2969 -0.0887346 0
M  V30 6 C -0.194851 1.03217 0.186835 0
M  V30 7 C 1.09051 1.41568 0.378222 0
M  V30 8 N 1.56338 2.76405 0.702782 0
M  V30 9 C -1.3737 1.81121 0.238591 0
M  V30 10 C -2.59126 1.16286 0.0122912 0
M  V30 11 C -2.75644 -0.164429 -0.258489 0
M  V30 12 N -1.62542 -0.874622 -0.30258 0
M  V30 13 C -4.05844 -0.799764 -0.489198 0
M  V30 14 C -4.07397 -2.1695 -0.755711 0
M  V30 15 C -5.24641 -2.84847 -0.984184 0
M  V30 16 C -6.43914 -2.15941 -0.949442 0
M  V30 17 C -6.46123 -0.809278 -0.689839 0
M  V30 18 C -5.25529 -0.141938 -0.460845 0
M  V30 19 C -1.39274 3.27136 0.482963 0
M  V30 20 F -0.769151 4.03788 -0.450568 0
M  V30 21 F -2.7509 3.67629 0.335672 0
M  V30 22 F -1.14652 3.6198 1.79769 0
M  V30 23 N 4.3408 -0.556505 0.289829 0
M  V30 24 C 5.73124 -0.532828 0.41998 0
M  V30 25 N 6.46317 0.58611 0.70252 0
M  V30 26 O 7.72538 0.284461 0.75817 0
M  V30 27 N 7.87074 -0.97332 0.528008 0
M  V30 28 C 6.66576 -1.53109 0.311292 0
M  V30 29 N 6.39208 -2.87831 0.0259823 0
M  V30 30 H 1.91149 3.39234 -0.0459013 0
M  V30 31 H 1.58523 3.10743 1.67683 0
M  V30 32 H -3.51062 1.77012 0.055727 0
M  V30 33 H -3.14912 -2.72466 -0.786687 0
M  V30 34 H -5.26463 -3.90894 -1.19103 0
M  V30 35 H -7.39304 -2.66517 -1.12629 0
M  V30 36 H -7.38388 -0.250076 -0.657895 0
M  V30 37 H -5.28595 0.923881 -0.257014 0
M  V30 38 H 3.88777 -1.49406 0.0676396 0
M  V30 39 H 6.26563 -3.58823 0.782318 0
M  V30 40 H 6.30814 -3.203 -0.961304 0
M  V30 END ATOM
M  V30 BEGIN BOND
M  V30 1 2 1 2
M  V30 2 1 2 3
M  V30 3 1 3 4
M  V30 4 1 4 5
M  V30 5 2 5 6
M  V30 6 1 6 7
M  V30 7 1 7 8
M  V30 8 1 6 9
M  V30 9 2 9 10
M  V30 10 1 10 11
M  V30 11 2 11 12
M  V30 12 1 11 13
M  V30 13 2 13 14
M  V30 14 1 14 15
M  V30 15 2 15 16
M  V30 16 1 16 17
M  V30 17 2 17 18
M  V30 18 1 9 19
M  V30 19 1 19 20
M  V30 20 1 19 21
M  V30 21 1 19 22
M  V30 22 1 2 23
M  V30 23 1 23 24
M  V30 24 2 24 25
M  V30 25 1 25 26
M  V30 26 1 26 27
M  V30 27 2 27 28
M  V30 28 1 28 29
M  V30 29 2 7 3
M  V30 30 1 18 13
M  V30 31 1 28 24
M  V30 32 1 12 5
M  V30 33 1 8 30
M  V30 34 1 8 31
M  V30 35 1 10 32
M  V30 36 1 14 33
M  V30 37 1 15 34
M  V30 38 1 16 35
M  V30 39 1 17 36
M  V30 40 1 18 37
M  V30 41 1 23 38
M  V30 42 1 29 39
M  V30 43 1 29 40
M  V30 END BOND
M  V30 END CTAB
M  END
