
     RDKit          3D

  0  0  0  0  0  0  0  0  0  0999 V3000
M  V30 BEGIN CTAB
M  V30 COUNTS 30 31 0 0 0
M  V30 BEGIN ATOM
M  V30 1 C 4.61637 -0.233766 0.47178 0
M  V30 2 C 3.11701 -0.0781983 0.687078 0
M  V30 3 C 2.33709 -0.603607 -0.482349 0
M  V30 4 O 0.977098 -0.515253 -0.396356 0
M  V30 5 C 0.0753348 0.465221 -0.296736 0
M  V30 6 C -1.27908 0.10277 -0.217939 0
M  V30 7 C -1.59933 -1.23296 -0.246119 0
M  V30 8 N -0.657117 -2.27842 -0.349494 0
M  V30 9 N -2.90691 -1.55544 -0.169028 0
M  V30 10 C -3.8644 -0.593061 -0.0676942 0
M  V30 11 N -5.20484 -1.06435 0.00604711 0
M  V30 12 N -3.53941 0.694925 -0.0416226 0
M  V30 13 C -2.25237 1.09093 -0.114562 0
M  V30 14 C -1.93994 2.42387 -0.085968 0
M  V30 15 C -0.617224 2.78827 -0.162792 0
M  V30 16 C 0.365459 1.79712 -0.267159 0
M  V30 17 H 4.88487 -1.3145 0.606267 0
M  V30 18 H 5.11029 0.4113 1.22407 0
M  V30 19 H 4.84429 0.130608 -0.551324 0
M  V30 20 H 2.89195 -0.753142 1.56737 0
M  V30 21 H 2.94518 0.966926 0.928702 0
M  V30 22 H 2.59762 -1.7094 -0.533007 0
M  V30 23 H 2.76076 -0.222394 -1.45548 0
M  V30 24 H -0.340995 -2.58186 -1.2841 0
M  V30 25 H -0.292725 -2.72972 0.503995 0
M  V30 26 H -5.61567 -1.54494 -0.822956 0
M  V30 27 H -5.75033 -0.92838 0.866465 0
M  V30 28 H -2.73178 3.14364 -0.004823 0
M  V30 29 H -0.318821 3.80898 -0.144946 0
M  V30 30 H 1.38762 2.11483 -0.336684 0
M  V30 END ATOM
M  V30 BEGIN BOND
M  V30 1 1 1 2
M  V30 2 1 2 3
M  V30 3 1 3 4
M  V30 4 1 4 5
M  V30 5 2 5 6
M  V30 6 1 6 7
M  V30 7 1 7 8
M  V30 8 2 7 9
M  V30 9 1 9 10
M  V30 10 1 10 11
M  V30 11 2 10 12
M  V30 12 1 12 13
M  V30 13 2 13 14
M  V30 14 1 14 15
M  V30 15 2 15 16
M  V30 16 1 16 5
M  V30 17 1 13 6
M  V30 18 1 1 17
M  V30 19 1 1 18
M  V30 20 1 1 19
M  V30 21 1 2 20
M  V30 22 1 2 21
M  V30 23 1 3 22
M  V30 24 1 3 23
M  V30 25 1 8 24
M  V30 26 1 8 25
M  V30 27 1 11 26
M  V30 28 1 11 27
M  V30 29 1 14 28
M  V30 30 1 15 29
M  V30 31 1 16 30
M  V30 END BOND
M  V30 END CTAB
M  END
