
     RDKit          3D

  0  0  0  0  0  0  0  0  0  0999 V3000
M  V30 BEGIN CTAB
M  V30 COUNTS 40 42 0 0 0
M  V30 BEGIN ATOM
M  V30 1 C 5.91546 2.31751 -0.09319 0
M  V30 2 C 6.46006 0.98426 -0.494659 0
M  V30 3 S 5.90053 -0.353681 0.591143 0
M  V30 4 C 4.16116 -0.614351 0.452227 0
M  V30 5 N 3.44028 0.140091 -0.383562 0
M  V30 6 C 2.12153 -0.072697 -0.474258 0
M  V30 7 C 1.47567 -1.0448 0.265092 0
M  V30 8 C 2.22863 -1.81559 1.1229 0
M  V30 9 N 3.54757 -1.55534 1.17049 0
M  V30 10 C 0.0528167 -1.21683 0.133175 0
M  V30 11 C -0.785793 -0.114217 0.236269 0
M  V30 12 C -2.14634 -0.30689 0.117621 0
M  V30 13 N -2.70304 -1.4861 -0.0896896 0
M  V30 14 C -1.88237 -2.57469 -0.192134 0
M  V30 15 C -0.498047 -2.46044 -0.083469 0
M  V30 16 C 0.298944 -3.64791 -0.215596 0
M  V30 17 N 0.942386 -4.60547 -0.345078 0
M  V30 18 N -2.42501 -3.85861 -0.413173 0
M  V30 19 C -3.03745 0.869844 0.228844 0
M  V30 20 S -2.61888 2.51421 0.500009 0
M  V30 21 C -4.18817 3.18162 0.488445 0
M  V30 22 N -4.94554 2.11671 0.278769 0
M  V30 23 C -4.40167 0.950502 0.145246 0
M  V30 24 C -5.22026 -0.302639 -0.0971647 0
M  V30 25 N -4.64654 4.54232 0.656698 0
M  V30 26 H 4.99687 2.61301 -0.648595 0
M  V30 27 H 6.67296 3.09095 -0.335725 0
M  V30 28 H 5.74797 2.38553 1.00553 0
M  V30 29 H 6.22799 0.815665 -1.55184 0
M  V30 30 H 7.57251 1.02483 -0.405079 0
M  V30 31 H 1.57849 0.575245 -1.17579 0
M  V30 32 H 1.77929 -2.60215 1.74655 0
M  V30 33 H -0.442003 0.893757 0.404702 0
M  V30 34 H -2.28107 -4.60396 0.282887 0
M  V30 35 H -2.96389 -4.04667 -1.27057 0
M  V30 36 H -6.30785 -0.0678734 -0.152011 0
M  V30 37 H -4.95888 -0.71654 -1.08006 0
M  V30 38 H -5.08486 -0.968194 0.759924 0
M  V30 39 H -4.366 5.01581 1.53609 0
M  V30 40 H -5.21746 5.00379 -0.0610608 0
M  V30 END ATOM
M  V30 BEGIN BOND
M  V30 1 1 1 2
M  V30 2 1 2 3
M  V30 3 1 3 4
M  V30 4 2 4 5
M  V30 5 1 5 6
M  V30 6 2 6 7
M  V30 7 1 7 8
M  V30 8 2 8 9
M  V30 9 1 7 10
M  V30 10 2 10 11
M  V30 11 1 11 12
M  V30 12 2 12 13
M  V30 13 1 13 14
M  V30 14 2 14 15
M  V30 15 1 15 16
M  V30 16 3 16 17
M  V30 17 1 14 18
M  V30 18 1 12 19
M  V30 19 1 19 20
M  V30 20 1 20 21
M  V30 21 2 21 22
M  V30 22 1 22 23
M  V30 23 1 23 24
M  V30 24 1 21 25
M  V30 25 1 9 4
M  V30 26 1 15 10
M  V30 27 2 23 19
M  V30 28 1 1 26
M  V30 29 1 1 27
M  V30 30 1 1 28
M  V30 31 1 2 29
M  V30 32 1 2 30
M  V30 33 1 6 31
M  V30 34 1 8 32
M  V30 35 1 11 33
M  V30 36 1 18 34
M  V30 37 1 18 35
M  V30 38 1 24 36
M  V30 39 1 24 37
M  V30 40 1 24 38
M  V30 41 1 25 39
M  V30 42 1 25 40
M  V30 END BOND
M  V30 END CTAB
M  END
