
     RDKit          3D

  0  0  0  0  0  0  0  0  0  0999 V3000
M  V30 BEGIN CTAB
M  V30 COUNTS 22 22 0 0 0
M  V30 BEGIN ATOM
M  V30 1 N 3.97755 1.16996 1.16361 0
M  V30 2 C 3.40285 0.745396 -0.0619542 0
M  V30 3 S 3.43248 1.69946 -1.3814 0
M  V30 4 O 2.79865 -0.494936 -0.172764 0
M  V30 5 C 1.42274 -0.616805 -0.0818228 0
M  V30 6 C 0.830432 -1.86006 -0.193924 0
M  V30 7 C -0.543266 -2.01717 -0.107628 0
M  V30 8 C -1.36586 -0.931515 0.0938934 0
M  V30 9 O -2.74497 -1.13744 0.174407 0
M  V30 10 C -3.63551 -0.105181 0.374411 0
M  V30 11 N -3.78786 0.869422 -0.626992 0
M  V30 12 S -4.4883 -0.0324251 1.7543 0
M  V30 13 C -0.781054 0.304158 0.205612 0
M  V30 14 C 0.591715 0.469259 0.120403 0
M  V30 15 H 4.61518 0.534926 1.70987 0
M  V30 16 H 3.79838 2.12269 1.57965 0
M  V30 17 H 1.44285 -2.74725 -0.353983 0
M  V30 18 H -0.948802 -3.01786 -0.203366 0
M  V30 19 H -3.66426 0.592577 -1.61679 0
M  V30 20 H -4.01844 1.84089 -0.376315 0
M  V30 21 H -1.4032 1.17265 0.364045 0
M  V30 22 H 1.0687 1.43925 0.206713 0
M  V30 END ATOM
M  V30 BEGIN BOND
M  V30 1 1 1 2
M  V30 2 2 2 3
M  V30 3 1 2 4
M  V30 4 1 4 5
M  V30 5 2 5 6
M  V30 6 1 6 7
M  V30 7 2 7 8
M  V30 8 1 8 9
M  V30 9 1 9 10
M  V30 10 1 10 11
M  V30 11 2 10 12
M  V30 12 1 8 13
M  V30 13 2 13 14
M  V30 14 1 14 5
M  V30 15 1 1 15
M  V30 16 1 1 16
M  V30 17 1 6 17
M  V30 18 1 7 18
M  V30 19 1 11 19
M  V30 20 1 11 20
M  V30 21 1 13 21
M  V30 22 1 14 22
M  V30 END BOND
M  V30 END CTAB
M  END
