
     RDKit          3D

  0  0  0  0  0  0  0  0  0  0999 V3000
M  V30 BEGIN CTAB
M  V30 COUNTS 66 65 0 0 0
M  V30 BEGIN ATOM
M  V30 1 C -5.17761 0.538393 -0.522056 0 CFG=1
M  V30 2 N -5.40658 -0.777299 -1.05745 0
M  V30 3 C -6.32421 1.4023 -0.930987 0
M  V30 4 C -7.68358 0.97136 -0.523352 0
M  V30 5 C -7.97774 0.849045 0.920125 0
M  V30 6 C -4.77147 0.566477 0.89179 0 CFG=2
M  V30 7 N -4.5767 1.95874 1.35971 0
M  V30 8 C -3.44388 -0.0931424 1.21057 0
M  V30 9 C -3.32373 -1.526 0.889008 0
M  V30 10 C -1.95215 -2.04374 1.34341 0
M  V30 11 C -0.821266 -1.30016 0.636786 0
M  V30 12 C 0.45727 -1.9332 1.17035 0
M  V30 13 C 1.63713 -1.24009 0.540931 0
M  V30 14 C 1.58253 -1.40547 -0.947867 0
M  V30 15 C 2.78055 -0.761765 -1.5866 0
M  V30 16 C 2.81689 0.708652 -1.30104 0
M  V30 17 C 4.00134 1.38592 -1.96185 0
M  V30 18 C 5.28041 0.784281 -1.47505 0
M  V30 19 C 5.40088 0.95153 0.00327928 0
M  V30 20 C 6.70079 0.35976 0.544276 0
M  V30 21 C 7.90942 1.00005 -0.0535173 0
M  V30 22 C 9.1457 0.342951 0.553458 0
M  V30 23 H -4.30391 0.929233 -1.16449 0
M  V30 24 H -5.30176 -0.826386 -2.08974 0
M  V30 25 H -6.31432 -1.15301 -0.724082 0
M  V30 26 H -6.20089 2.46201 -0.575698 0
M  V30 27 H -6.35195 1.50018 -2.06047 0
M  V30 28 H -7.99735 0.0359032 -1.06744 0
M  V30 29 H -8.39133 1.75938 -0.931533 0
M  V30 30 H -9.09335 0.989101 1.03846 0
M  V30 31 H -7.52734 1.63819 1.51836 0
M  V30 32 H -7.81192 -0.169838 1.34441 0
M  V30 33 H -5.50648 0.114 1.57197 0
M  V30 34 H -3.6358 2.29733 1.05551 0
M  V30 35 H -4.72005 1.9909 2.37868 0
M  V30 36 H -2.64305 0.460605 0.65416 0
M  V30 37 H -3.1972 0.0495808 2.28734 0
M  V30 38 H -3.2769 -1.64807 -0.228994 0
M  V30 39 H -4.07055 -2.16994 1.35266 0
M  V30 40 H -1.8152 -1.87908 2.42764 0
M  V30 41 H -1.86239 -3.10512 1.04762 0
M  V30 42 H -0.814564 -0.231648 0.887083 0
M  V30 43 H -0.972798 -1.49897 -0.431006 0
M  V30 44 H 0.529098 -1.82903 2.26614 0
M  V30 45 H 0.515279 -3.00496 0.857147 0
M  V30 46 H 2.54417 -1.74312 0.972698 0
M  V30 47 H 1.68995 -0.177722 0.869374 0
M  V30 48 H 0.661799 -0.911441 -1.34546 0
M  V30 49 H 1.55191 -2.48691 -1.21802 0
M  V30 50 H 2.79051 -0.923924 -2.68846 0
M  V30 51 H 3.6785 -1.23685 -1.10768 0
M  V30 52 H 2.82598 0.916927 -0.229506 0
M  V30 53 H 1.89495 1.1625 -1.74622 0
M  V30 54 H 3.9776 2.43782 -1.66913 0
M  V30 55 H 3.89913 1.26437 -3.06591 0
M  V30 56 H 5.36618 -0.306724 -1.73426 0
M  V30 57 H 6.13036 1.25156 -2.0294 0
M  V30 58 H 4.59178 0.404719 0.53701 0
M  V30 59 H 5.36479 1.99897 0.336633 0
M  V30 60 H 6.69061 -0.740434 0.347657 0
M  V30 61 H 6.70651 0.535881 1.63379 0
M  V30 62 H 7.87826 2.08971 0.201711 0
M  V30 63 H 7.93102 0.945032 -1.15727 0
M  V30 64 H 9.91143 1.125 0.684421 0
M  V30 65 H 9.5252 -0.366814 -0.21765 0
M  V30 66 H 8.90006 -0.150861 1.50801 0
M  V30 END ATOM
M  V30 BEGIN BOND
M  V30 1 1 1 2
M  V30 2 1 1 3
M  V30 3 1 3 4
M  V30 4 1 4 5
M  V30 5 1 1 6
M  V30 6 1 6 7
M  V30 7 1 6 8
M  V30 8 1 8 9
M  V30 9 1 9 10
M  V30 10 1 10 11
M  V30 11 1 11 12
M  V30 12 1 12 13
M  V30 13 1 13 14
M  V30 14 1 14 15
M  V30 15 1 15 16
M  V30 16 1 16 17
M  V30 17 1 17 18
M  V30 18 1 18 19
M  V30 19 1 19 20
M  V30 20 1 20 21
M  V30 21 1 21 22
M  V30 22 1 1 23 CFG=3
M  V30 23 1 2 24
M  V30 24 1 2 25
M  V30 25 1 3 26
M  V30 26 1 3 27
M  V30 27 1 4 28
M  V30 28 1 4 29
M  V30 29 1 5 30
M  V30 30 1 5 31
M  V30 31 1 5 32
M  V30 32 1 6 33 CFG=1
M  V30 33 1 7 34
M  V30 34 1 7 35
M  V30 35 1 8 36
M  V30 36 1 8 37
M  V30 37 1 9 38
M  V30 38 1 9 39
M  V30 39 1 10 40
M  V30 40 1 10 41
M  V30 41 1 11 42
M  V30 42 1 11 43
M  V30 43 1 12 44
M  V30 44 1 12 45
M  V30 45 1 13 46
M  V30 46 1 13 47
M  V30 47 1 14 48
M  V30 48 1 14 49
M  V30 49 1 15 50
M  V30 50 1 15 51
M  V30 51 1 16 52
M  V30 52 1 16 53
M  V30 53 1 17 54
M  V30 54 1 17 55
M  V30 55 1 18 56
M  V30 56 1 18 57
M  V30 57 1 19 58
M  V30 58 1 19 59
M  V30 59 1 20 60
M  V30 60 1 20 61
M  V30 61 1 21 62
M  V30 62 1 21 63
M  V30 63 1 22 64
M  V30 64 1 22 65
M  V30 65 1 22 66
M  V30 END BOND
M  V30 END CTAB
M  END
