
     RDKit          3D

  0  0  0  0  0  0  0  0  0  0999 V3000
M  V30 BEGIN CTAB
M  V30 COUNTS 29 30 0 0 0
M  V30 BEGIN ATOM
M  V30 1 C -5.46813 0.038063 0.167059 0
M  V30 2 C -3.98173 0.038829 0.191422 0
M  V30 3 N -3.28024 0.285543 1.31216 0
M  V30 4 C -1.92513 0.28448 1.32653 0
M  V30 5 N -1.19978 0.548378 2.5249 0
M  V30 6 C -1.21005 0.0264958 0.175054 0
M  V30 7 C -1.93815 -0.225413 -0.969477 0
M  V30 8 N -3.28807 -0.212879 -0.932114 0
M  V30 9 N -1.22181 -0.493175 -2.16514 0
M  V30 10 N 0.207142 0.0316113 0.218376 0
M  V30 11 N 0.95671 -0.0690861 -0.769689 0
M  V30 12 C 2.36217 -0.0473101 -0.563397 0
M  V30 13 C 2.95481 0.435062 0.569006 0
M  V30 14 C 4.31032 0.4448 0.743066 0
M  V30 15 C 5.14361 -0.0368678 -0.227309 0
M  V30 16 C 4.55158 -0.528837 -1.38084 0
M  V30 17 C 3.1877 -0.544142 -1.56815 0
M  V30 18 H -5.89416 0.981649 0.592149 0
M  V30 19 H -5.81455 -0.0666172 -0.863635 0
M  V30 20 H -5.812 -0.799812 0.785463 0
M  V30 21 H -1.6404 1.14285 3.25523 0
M  V30 22 H -0.252934 0.176585 2.70529 0
M  V30 23 H -0.924614 0.315101 -2.75124 0
M  V30 24 H -0.978129 -1.45391 -2.48672 0
M  V30 25 H 2.30438 0.820335 1.34699 0
M  V30 26 H 4.7721 0.829984 1.64602 0
M  V30 27 H 6.2196 -0.0648352 -0.168009 0
M  V30 28 H 5.14986 -0.92947 -2.19863 0
M  V30 29 H 2.70991 -0.927415 -2.4687 0
M  V30 END ATOM
M  V30 BEGIN BOND
M  V30 1 1 1 2
M  V30 2 2 2 3
M  V30 3 1 3 4
M  V30 4 1 4 5
M  V30 5 2 4 6
M  V30 6 1 6 7
M  V30 7 2 7 8
M  V30 8 1 7 9
M  V30 9 1 6 10
M  V30 10 2 10 11 CFG=2
M  V30 11 1 11 12
M  V30 12 2 12 13
M  V30 13 1 13 14
M  V30 14 2 14 15
M  V30 15 1 15 16
M  V30 16 2 16 17
M  V30 17 1 8 2
M  V30 18 1 17 12
M  V30 19 1 1 18
M  V30 20 1 1 19
M  V30 21 1 1 20
M  V30 22 1 5 21
M  V30 23 1 5 22
M  V30 24 1 9 23
M  V30 25 1 9 24
M  V30 26 1 13 25
M  V30 27 1 14 26
M  V30 28 1 15 27
M  V30 29 1 16 28
M  V30 30 1 17 29
M  V30 END BOND
M  V30 END CTAB
M  END
