
     RDKit          3D

  0  0  0  0  0  0  0  0  0  0999 V3000
M  V30 BEGIN CTAB
M  V30 COUNTS 30 31 0 0 0
M  V30 BEGIN ATOM
M  V30 1 N 5.29992 -0.0356426 -0.873968 0
M  V30 2 C 4.20359 -0.908658 -0.51116 0
M  V30 3 C 3.04905 -0.0773877 -0.0703041 0
M  V30 4 N 3.08977 1.27105 -0.0393291 0
M  V30 5 C 2.06229 2.03247 0.353892 0
M  V30 6 C 0.878238 1.45129 0.757772 0
M  V30 7 C 0.781599 0.0879797 0.745942 0
M  V30 8 C 1.86368 -0.651971 0.334089 0
M  V30 9 C -0.441201 -0.566826 1.15103 0
M  V30 10 O -0.283298 -1.37363 2.16398 0
M  V30 11 N -1.70446 -0.414161 0.577817 0
M  V30 12 N -2.80227 -1.01885 1.07564 0
M  V30 13 C -3.86876 -0.746976 0.344013 0
M  V30 14 C -3.47348 0.0739782 -0.688939 0
M  V30 15 C -2.0938 0.253483 -0.494763 0
M  V30 16 N -1.30714 1.03327 -1.3833 0
M  V30 17 C -5.2672 -1.20883 0.542498 0
M  V30 18 H 5.16677 0.321492 -1.86629 0
M  V30 19 H 5.24417 0.822034 -0.279188 0
M  V30 20 H 3.92167 -1.59057 -1.34232 0
M  V30 21 H 4.552 -1.51299 0.364589 0
M  V30 22 H 2.16867 3.11659 0.35247 0
M  V30 23 H 0.0565334 2.09705 1.08108 0
M  V30 24 H 1.81933 -1.74056 0.313179 0
M  V30 25 H -4.06298 0.505751 -1.49118 0
M  V30 26 H -1.47031 2.06258 -1.41602 0
M  V30 27 H -0.569189 0.651815 -2.01403 0
M  V30 28 H -5.95267 -0.42941 0.158736 0
M  V30 29 H -5.39095 -1.34723 1.65035 0
M  V30 30 H -5.46957 -2.15716 -0.00172814 0
M  V30 END ATOM
M  V30 BEGIN BOND
M  V30 1 1 1 2
M  V30 2 1 2 3
M  V30 3 2 3 4
M  V30 4 1 4 5
M  V30 5 2 5 6
M  V30 6 1 6 7
M  V30 7 2 7 8
M  V30 8 1 7 9
M  V30 9 2 9 10
M  V30 10 1 9 11
M  V30 11 1 11 12
M  V30 12 2 12 13
M  V30 13 1 13 14
M  V30 14 2 14 15
M  V30 15 1 15 16
M  V30 16 1 13 17
M  V30 17 1 8 3
M  V30 18 1 15 11
M  V30 19 1 1 18
M  V30 20 1 1 19
M  V30 21 1 2 20
M  V30 22 1 2 21
M  V30 23 1 5 22
M  V30 24 1 6 23
M  V30 25 1 8 24
M  V30 26 1 14 25
M  V30 27 1 16 26
M  V30 28 1 16 27
M  V30 29 1 17 28
M  V30 30 1 17 29
M  V30 31 1 17 30
M  V30 END BOND
M  V30 END CTAB
M  END
