
     RDKit          3D

  0  0  0  0  0  0  0  0  0  0999 V3000
M  V30 BEGIN CTAB
M  V30 COUNTS 30 30 0 0 0
M  V30 BEGIN ATOM
M  V30 1 N 3.85612 1.9115 -0.608533 0
M  V30 2 N 3.81802 0.716236 0.120343 0
M  V30 3 C 2.73811 0.0391514 0.267306 0
M  V30 4 S 1.25246 0.643394 -0.479426 0
M  V30 5 C -0.177915 -0.375829 -0.206757 0
M  V30 6 C -0.097484 -1.73629 -0.864337 0
M  V30 7 C -0.589292 -0.53944 1.21165 0
M  V30 8 C -2.10786 -0.582068 1.21015 0
M  V30 9 C -2.53666 -0.381644 -0.212843 0
M  V30 10 C -1.37986 0.346983 -0.814592 0
M  V30 11 C -1.37924 1.7636 -0.29289 0
M  V30 12 O -1.35633 0.291619 -2.19647 0
M  V30 13 N 2.79487 -1.15524 1.0187 0
M  V30 14 H 3.26032 2.7211 -0.315891 0
M  V30 15 H 4.45255 2.0637 -1.45048 0
M  V30 16 H -0.204831 -1.68214 -1.95003 0
M  V30 17 H -0.997346 -2.30545 -0.492112 0
M  V30 18 H 0.776828 -2.28757 -0.500775 0
M  V30 19 H -0.26548 -1.53319 1.61864 0
M  V30 20 H -0.209752 0.246626 1.89099 0
M  V30 21 H -2.51944 -1.52666 1.56388 0
M  V30 22 H -2.53465 0.248386 1.80808 0
M  V30 23 H -3.42835 0.295336 -0.289314 0
M  V30 24 H -2.80197 -1.30723 -0.739367 0
M  V30 25 H -1.47463 1.68845 0.81865 0
M  V30 26 H -2.31628 2.25697 -0.643871 0
M  V30 27 H -0.477518 2.33392 -0.587748 0
M  V30 28 H -1.75891 1.1428 -2.52137 0
M  V30 29 H 3.54124 -1.89607 0.85452 0
M  V30 30 H 2.12329 -1.40095 1.77834 0
M  V30 END ATOM
M  V30 BEGIN BOND
M  V30 1 1 1 2
M  V30 2 2 2 3 CFG=2
M  V30 3 1 3 4
M  V30 4 1 4 5
M  V30 5 1 5 6
M  V30 6 1 5 7
M  V30 7 1 7 8
M  V30 8 1 8 9
M  V30 9 1 9 10
M  V30 10 1 10 11
M  V30 11 1 10 12
M  V30 12 1 3 13
M  V30 13 1 10 5
M  V30 14 1 1 14
M  V30 15 1 1 15
M  V30 16 1 6 16
M  V30 17 1 6 17
M  V30 18 1 6 18
M  V30 19 1 7 19
M  V30 20 1 7 20
M  V30 21 1 8 21
M  V30 22 1 8 22
M  V30 23 1 9 23
M  V30 24 1 9 24
M  V30 25 1 11 25
M  V30 26 1 11 26
M  V30 27 1 11 27
M  V30 28 1 12 28
M  V30 29 1 13 29
M  V30 30 1 13 30
M  V30 END BOND
M  V30 END CTAB
M  END
