
     RDKit          3D

  0  0  0  0  0  0  0  0  0  0999 V3000
M  V30 BEGIN CTAB
M  V30 COUNTS 50 54 0 0 0
M  V30 BEGIN ATOM
M  V30 1 Br -1.96253 7.70149 -0.0365739 0
M  V30 2 C -2.02978 5.81829 -0.254701 0
M  V30 3 C -1.73716 5.28216 -1.49198 0
M  V30 4 C -1.78059 3.92523 -1.668 0
M  V30 5 C -2.10777 3.02305 -0.660592 0
M  V30 6 C -2.40048 3.58703 0.584038 0
M  V30 7 C -2.35893 4.95125 0.768945 0
M  V30 8 S -2.14592 1.32302 -1.02817 0
M  V30 9 C -0.680904 0.395969 -0.814338 0
M  V30 10 C -0.757194 -0.969568 -1.12801 0
M  V30 11 S -2.26146 -1.73634 -1.69984 0
M  V30 12 C -3.2728 -2.37127 -0.39118 0
M  V30 13 C -4.24707 -1.6214 0.218533 0
M  V30 14 C -5.03337 -2.14112 1.24983 0
M  V30 15 C -4.81973 -3.43046 1.6551 0
M  V30 16 C -3.84702 -4.21286 1.06225 0
M  V30 17 C -3.07927 -3.66436 0.0356616 0
M  V30 18 Br -5.88837 -4.16405 3.06988 0
M  V30 19 C 0.362999 -1.75823 -0.989051 0
M  V30 20 N 0.308065 -3.13872 -1.30509 0
M  V30 21 C 1.57338 -1.26016 -0.548948 0
M  V30 22 C 1.64849 0.0813652 -0.240291 0
M  V30 23 C 0.513867 0.879276 -0.381501 0
M  V30 24 N 0.677521 2.24133 -0.0408427 0
M  V30 25 C 2.91173 0.63511 0.226431 0
M  V30 26 O 2.99436 1.85908 0.51192 0
M  V30 27 C 4.13037 -0.167501 0.389702 0
M  V30 28 C 4.01851 -1.51948 0.0686819 0
M  V30 29 C 2.76384 -2.0812 -0.397387 0
M  V30 30 O 2.70446 -3.29354 -0.673973 0
M  V30 31 C 5.15375 -2.30298 0.213099 0
M  V30 32 C 6.33224 -1.7507 0.656182 0
M  V30 33 C 6.42522 -0.416203 0.968244 0
M  V30 34 C 5.30566 0.361908 0.826987 0
M  V30 35 H -1.46867 5.91811 -2.34485 0
M  V30 36 H -1.53942 3.543 -2.67281 0
M  V30 37 H -2.66228 2.90749 1.40069 0
M  V30 38 H -2.58673 5.40769 1.74208 0
M  V30 39 H -4.45777 -0.612387 -0.0602317 0
M  V30 40 H -5.79807 -1.57246 1.73806 0
M  V30 41 H -3.65996 -5.21874 1.35809 0
M  V30 42 H -2.33336 -4.31379 -0.398414 0
M  V30 43 H 0.0298269 -3.84342 -0.590148 0
M  V30 44 H 0.554863 -3.42596 -2.27527 0
M  V30 45 H 0.475101 2.52024 0.956337 0
M  V30 46 H 0.995273 2.96096 -0.725248 0
M  V30 47 H 5.06003 -3.35681 -0.0389435 0
M  V30 48 H 7.22645 -2.36129 0.77136 0
M  V30 49 H 7.37969 -0.0233201 1.3154 0
M  V30 50 H 5.37093 1.40527 1.06891 0
M  V30 END ATOM
M  V30 BEGIN BOND
M  V30 1 1 1 2
M  V30 2 2 2 3
M  V30 3 1 3 4
M  V30 4 2 4 5
M  V30 5 1 5 6
M  V30 6 2 6 7
M  V30 7 1 5 8
M  V30 8 1 8 9
M  V30 9 1 9 10
M  V30 10 1 10 11
M  V30 11 1 11 12
M  V30 12 2 12 13
M  V30 13 1 13 14
M  V30 14 2 14 15
M  V30 15 1 15 16
M  V30 16 2 16 17
M  V30 17 1 15 18
M  V30 18 2 10 19
M  V30 19 1 19 20
M  V30 20 1 19 21
M  V30 21 2 21 22
M  V30 22 1 22 23
M  V30 23 1 23 24
M  V30 24 1 22 25
M  V30 25 2 25 26
M  V30 26 1 25 27
M  V30 27 2 27 28
M  V30 28 1 28 29
M  V30 29 2 29 30
M  V30 30 1 28 31
M  V30 31 2 31 32
M  V30 32 1 32 33
M  V30 33 2 33 34
M  V30 34 1 7 2
M  V30 35 2 23 9
M  V30 36 1 34 27
M  V30 37 1 17 12
M  V30 38 1 29 21
M  V30 39 1 3 35
M  V30 40 1 4 36
M  V30 41 1 6 37
M  V30 42 1 7 38
M  V30 43 1 13 39
M  V30 44 1 14 40
M  V30 45 1 16 41
M  V30 46 1 17 42
M  V30 47 1 20 43
M  V30 48 1 20 44
M  V30 49 1 24 45
M  V30 50 1 24 46
M  V30 51 1 31 47
M  V30 52 1 32 48
M  V30 53 1 33 49
M  V30 54 1 34 50
M  V30 END BOND
M  V30 END CTAB
M  END
