
     RDKit          3D

  0  0  0  0  0  0  0  0  0  0999 V3000
M  V30 BEGIN CTAB
M  V30 COUNTS 28 28 0 0 0
M  V30 BEGIN ATOM
M  V30 1 N -0.973512 -2.20042 0.414722 0
M  V30 2 C -1.54165 -0.88526 0.281248 0
M  V30 3 C -0.484182 0.185 0.111356 0
M  V30 4 C -1.22412 1.51866 -0.0174203 0
M  V30 5 N -2.10565 1.52523 -1.1425 0
M  V30 6 C 0.364021 0.188255 1.33217 0
M  V30 7 C 1.7999 0.508643 1.1108 0
M  V30 8 C 2.44514 -0.202767 -0.0177419 0
M  V30 9 C 1.51956 -0.821829 -1.00143 0
M  V30 10 C 0.287602 0.0205356 -1.16836 0
M  V30 11 H -0.984429 -2.63566 -0.556523 0
M  V30 12 H -1.65712 -2.8087 0.958114 0
M  V30 13 H -2.29396 -0.894384 -0.504711 0
M  V30 14 H -2.04139 -0.658472 1.26759 0
M  V30 15 H -1.69445 1.81836 0.937359 0
M  V30 16 H -0.426691 2.27411 -0.213418 0
M  V30 17 H -2.40195 2.52298 -1.29958 0
M  V30 18 H -2.95058 0.95668 -1.05578 0
M  V30 19 H 0.28927 -0.755927 1.93688 0
M  V30 20 H -0.0429758 0.982288 2.02492 0
M  V30 21 H 1.90802 1.62925 1.05767 0
M  V30 22 H 2.3534 0.221819 2.05207 0
M  V30 23 H 3.16022 -1.00072 0.337299 0
M  V30 24 H 3.10466 0.541867 -0.549164 0
M  V30 25 H 1.29288 -1.88802 -0.805475 0
M  V30 26 H 2.03892 -0.814393 -2.00189 0
M  V30 27 H -0.373176 -0.358012 -1.97632 0
M  V30 28 H 0.63226 1.03088 -1.51188 0
M  V30 END ATOM
M  V30 BEGIN BOND
M  V30 1 1 1 2
M  V30 2 1 2 3
M  V30 3 1 3 4
M  V30 4 1 4 5
M  V30 5 1 3 6
M  V30 6 1 6 7
M  V30 7 1 7 8
M  V30 8 1 8 9
M  V30 9 1 9 10
M  V30 10 1 10 3
M  V30 11 1 1 11
M  V30 12 1 1 12
M  V30 13 1 2 13
M  V30 14 1 2 14
M  V30 15 1 4 15
M  V30 16 1 4 16
M  V30 17 1 5 17
M  V30 18 1 5 18
M  V30 19 1 6 19
M  V30 20 1 6 20
M  V30 21 1 7 21
M  V30 22 1 7 22
M  V30 23 1 8 23
M  V30 24 1 8 24
M  V30 25 1 9 25
M  V30 26 1 9 26
M  V30 27 1 10 27
M  V30 28 1 10 28
M  V30 END BOND
M  V30 END CTAB
M  END
