
     RDKit          3D

  0  0  0  0  0  0  0  0  0  0999 V3000
M  V30 BEGIN CTAB
M  V30 COUNTS 14 14 0 0 0
M  V30 BEGIN ATOM
M  V30 1 N 2.98991 -0.436436 -0.156395 0
M  V30 2 C 1.59616 -0.212807 -0.0911139 0
M  V30 3 N 0.995458 0.899093 -0.527045 0
M  V30 4 C -0.323804 1.13384 -0.475828 0
M  V30 5 Cl -1.06716 2.60427 -1.05845 0
M  V30 6 C -1.15206 0.166971 0.0654941 0
M  V30 7 N -2.5554 0.380507 0.136528 0
M  V30 8 C -0.548794 -0.979942 0.517117 0
M  V30 9 Cl -1.50738 -2.25599 1.21536 0
M  V30 10 N 0.776008 -1.15571 0.438285 0
M  V30 11 H 3.42295 -1.08884 0.516461 0
M  V30 12 H 3.56953 0.0418919 -0.862877 0
M  V30 13 H -3.15788 0.0596612 -0.652239 0
M  V30 14 H -3.03753 0.843486 0.934704 0
M  V30 END ATOM
M  V30 BEGIN BOND
M  V30 1 1 1 2
M  V30 2 2 2 3
M  V30 3 1 3 4
M  V30 4 1 4 5
M  V30 5 2 4 6
M  V30 6 1 6 7
M  V30 7 1 6 8
M  V30 8 1 8 9
M  V30 9 2 8 10
M  V30 10 1 10 2
M  V30 11 1 1 11
M  V30 12 1 1 12
M  V30 13 1 7 13
M  V30 14 1 7 14
M  V30 END BOND
M  V30 END CTAB
M  END
