
     RDKit          3D

  0  0  0  0  0  0  0  0  0  0999 V3000
M  V30 BEGIN CTAB
M  V30 COUNTS 30 30 0 0 0
M  V30 BEGIN ATOM
M  V30 1 N -4.71877 1.29937 0.287347 0
M  V30 2 C -3.39106 0.781468 0.576043 0
M  V30 3 C -2.43434 1.04283 -0.539766 0
M  V30 4 O -1.14846 0.609113 -0.402723 0
M  V30 5 C -0.560917 -0.613256 -0.275644 0
M  V30 6 C 0.841796 -0.707374 -0.113686 0
M  V30 7 O 1.59848 0.457032 -0.0902235 0
M  V30 8 C 2.99736 0.301762 0.0744869 0
M  V30 9 C 3.71017 1.63469 0.0841897 0
M  V30 10 N 3.16241 2.39503 1.20214 0
M  V30 11 C 1.37867 -1.96504 0.0125424 0
M  V30 12 C 0.636944 -3.1162 -0.00996383 0
M  V30 13 Br 1.50631 -4.79264 0.175991 0
M  V30 14 C -0.738509 -3.02844 -0.168903 0
M  V30 15 C -1.31711 -1.75835 -0.300793 0
M  V30 16 H -5.44774 0.873011 0.882257 0
M  V30 17 H -4.77761 2.33651 0.396901 0
M  V30 18 H -3.07638 1.30598 1.50848 0
M  V30 19 H -3.5297 -0.274488 0.828823 0
M  V30 20 H -2.434 2.17575 -0.662754 0
M  V30 21 H -2.92609 0.672197 -1.48214 0
M  V30 22 H 3.19835 -0.2566 1.01227 0
M  V30 23 H 3.35515 -0.313304 -0.797874 0
M  V30 24 H 3.57073 2.14299 -0.87442 0
M  V30 25 H 4.77465 1.43422 0.330735 0
M  V30 26 H 3.6458 3.31077 1.33344 0
M  V30 27 H 3.37917 1.82866 2.06638 0
M  V30 28 H 2.4593 -2.06793 0.138931 0
M  V30 29 H -1.33051 -3.92529 -0.188026 0
M  V30 30 H -2.3841 -1.7825 -0.435681 0
M  V30 END ATOM
M  V30 BEGIN BOND
M  V30 1 1 1 2
M  V30 2 1 2 3
M  V30 3 1 3 4
M  V30 4 1 4 5
M  V30 5 2 5 6
M  V30 6 1 6 7
M  V30 7 1 7 8
M  V30 8 1 8 9
M  V30 9 1 9 10
M  V30 10 1 6 11
M  V30 11 2 11 12
M  V30 12 1 12 13
M  V30 13 1 12 14
M  V30 14 2 14 15
M  V30 15 1 15 5
M  V30 16 1 1 16
M  V30 17 1 1 17
M  V30 18 1 2 18
M  V30 19 1 2 19
M  V30 20 1 3 20
M  V30 21 1 3 21
M  V30 22 1 8 22
M  V30 23 1 8 23
M  V30 24 1 9 24
M  V30 25 1 9 25
M  V30 26 1 10 26
M  V30 27 1 10 27
M  V30 28 1 11 28
M  V30 29 1 14 29
M  V30 30 1 15 30
M  V30 END BOND
M  V30 END CTAB
M  END
