
     RDKit          3D

  0  0  0  0  0  0  0  0  0  0999 V3000
M  V30 BEGIN CTAB
M  V30 COUNTS 50 51 0 0 0
M  V30 BEGIN ATOM
M  V30 1 N 6.68146 0.011784 0.504994 0
M  V30 2 C 5.60363 0.160319 -0.430759 0
M  V30 3 C 4.48333 0.918743 0.223203 0
M  V30 4 C 3.30555 1.12125 -0.6616 0
M  V30 5 C 2.61953 -0.113903 -1.15322 0
M  V30 6 C 2.0211 -0.978937 -0.0777138 0 CFG=2
M  V30 7 C 1.00647 -0.233819 0.71936 0
M  V30 8 O 1.14517 -0.262801 1.95796 0
M  V30 9 N -0.0495841 0.464154 0.124364 0
M  V30 10 C -1.0925 1.20718 0.714504 0
M  V30 11 C -2.09892 0.544705 1.56971 0 CFG=2
M  V30 12 O -1.57641 -0.0919818 2.65811 0
M  V30 13 C -2.12859 -1.29439 3.02111 0
M  V30 14 C -2.03354 -2.22246 1.86489 0
M  V30 15 O -1.62498 -3.40483 1.91479 0
M  V30 16 N -2.46833 -1.62882 0.618383 0
M  V30 17 C -3.10855 -0.330978 0.876993 0 CFG=2
M  V30 18 C -3.83089 0.22327 -0.239351 0
M  V30 19 C -4.12565 1.54662 -0.329978 0
M  V30 20 C -4.81672 2.09415 -1.41061 0
M  V30 21 C -5.23095 1.2853 -2.44383 0
M  V30 22 C -4.94245 -0.060378 -2.37132 0
M  V30 23 C -4.24997 -0.58544 -1.28083 0
M  V30 24 N 2.96947 -1.66634 0.739997 0
M  V30 25 H 6.60791 -0.833529 1.08055 0
M  V30 26 H 7.60576 0.0453382 0.0648521 0
M  V30 27 H 5.35816 -0.813428 -0.837541 0
M  V30 28 H 6.04982 0.765117 -1.28192 0
M  V30 29 H 4.90849 1.96213 0.400524 0
M  V30 30 H 4.25101 0.453698 1.19513 0
M  V30 31 H 3.61907 1.75461 -1.53831 0
M  V30 32 H 2.50111 1.72313 -0.135737 0
M  V30 33 H 1.75514 0.218009 -1.80229 0
M  V30 34 H 3.32611 -0.720092 -1.80048 0
M  V30 35 H 1.479 -1.80549 -0.656903 0
M  V30 36 H -0.0577441 0.414339 -0.950452 0
M  V30 37 H -1.60081 1.80073 -0.0832629 0
M  V30 38 H -0.569545 2.04206 1.32498 0
M  V30 39 H -2.73134 1.39496 2.01176 0
M  V30 40 H -3.16848 -1.19728 3.42271 0
M  V30 41 H -1.52549 -1.69187 3.87214 0
M  V30 42 H -2.34008 -2.06205 -0.298139 0
M  V30 43 H -3.89199 -0.551819 1.6736 0
M  V30 44 H -3.84735 2.25637 0.440414 0
M  V30 45 H -5.04001 3.15868 -1.45886 0
M  V30 46 H -5.77699 1.6858 -3.30864 0
M  V30 47 H -5.27624 -0.680063 -3.19267 0
M  V30 48 H -4.05877 -1.64712 -1.28743 0
M  V30 49 H 3.28348 -2.58473 0.367292 0
M  V30 50 H 2.6821 -1.7899 1.72852 0
M  V30 END ATOM
M  V30 BEGIN BOND
M  V30 1 1 1 2
M  V30 2 1 2 3
M  V30 3 1 3 4
M  V30 4 1 4 5
M  V30 5 1 5 6
M  V30 6 1 6 7
M  V30 7 2 7 8
M  V30 8 1 7 9
M  V30 9 1 9 10
M  V30 10 1 10 11
M  V30 11 1 11 12
M  V30 12 1 12 13
M  V30 13 1 13 14
M  V30 14 2 14 15
M  V30 15 1 14 16
M  V30 16 1 16 17
M  V30 17 1 17 18
M  V30 18 2 18 19
M  V30 19 1 19 20
M  V30 20 2 20 21
M  V30 21 1 21 22
M  V30 22 2 22 23
M  V30 23 1 6 24
M  V30 24 1 17 11
M  V30 25 1 23 18
M  V30 26 1 1 25
M  V30 27 1 1 26
M  V30 28 1 2 27
M  V30 29 1 2 28
M  V30 30 1 3 29
M  V30 31 1 3 30
M  V30 32 1 4 31
M  V30 33 1 4 32
M  V30 34 1 5 33
M  V30 35 1 5 34
M  V30 36 1 6 35 CFG=3
M  V30 37 1 9 36
M  V30 38 1 10 37
M  V30 39 1 10 38
M  V30 40 1 11 39 CFG=1
M  V30 41 1 13 40
M  V30 42 1 13 41
M  V30 43 1 16 42
M  V30 44 1 17 43 CFG=1
M  V30 45 1 19 44
M  V30 46 1 20 45
M  V30 47 1 21 46
M  V30 48 1 22 47
M  V30 49 1 23 48
M  V30 50 1 24 49
M  V30 51 1 24 50
M  V30 END BOND
M  V30 END CTAB
M  END
