
     RDKit          3D

  0  0  0  0  0  0  0  0  0  0999 V3000
M  V30 BEGIN CTAB
M  V30 COUNTS 47 48 0 0 0
M  V30 BEGIN ATOM
M  V30 1 N -1.82245 1.91588 2.17452 0
M  V30 2 C -2.4181 0.629242 1.98479 0
M  V30 3 C -2.29811 0.109547 0.585298 0
M  V30 4 C -2.93284 -1.2432 0.422686 0
M  V30 5 C -3.2203 -1.5392 -1.03436 0
M  V30 6 C -4.47593 -0.759247 -1.40267 0
M  V30 7 C -4.51642 0.468825 -0.541435 0
M  V30 8 C -3.12437 1.05495 -0.303677 0
M  V30 9 C -0.896997 0.167235 0.0494977 0
M  V30 10 C 0.0918286 -0.609419 0.813308 0
M  V30 11 O -0.166962 -1.27715 1.84297 0
M  V30 12 N 1.42551 -0.608615 0.363217 0
M  V30 13 C 1.74864 0.156086 -0.830376 0
M  V30 14 C 3.16437 0.638095 -0.855112 0
M  V30 15 N 4.06832 -0.415902 -0.490972 0
M  V30 16 C 3.82665 -0.904784 0.852673 0
M  V30 17 C 2.4344 -1.35782 1.08532 0
M  V30 18 S 5.66404 0.254816 -0.490798 0
M  V30 19 O 5.75495 1.33712 0.531787 0
M  V30 20 O 6.67559 -0.800851 -0.125415 0
M  V30 21 N 6.06695 0.821641 -2.06946 0
M  V30 22 H -2.20843 2.44103 2.98838 0
M  V30 23 H -1.67589 2.47976 1.33538 0
M  V30 24 H -2.06802 -0.0388885 2.77285 0
M  V30 25 H -3.52552 0.750976 2.18134 0
M  V30 26 H -3.8904 -1.24558 0.979136 0
M  V30 27 H -2.30818 -2.07055 0.803937 0
M  V30 28 H -2.41616 -1.13293 -1.70153 0
M  V30 29 H -3.35113 -2.62868 -1.20196 0
M  V30 30 H -4.51796 -0.535073 -2.49239 0
M  V30 31 H -5.39888 -1.35314 -1.15156 0
M  V30 32 H -5.05978 0.326042 0.410346 0
M  V30 33 H -5.07204 1.25146 -1.10036 0
M  V30 34 H -2.66473 1.16281 -1.29193 0
M  V30 35 H -3.28299 2.02937 0.16854 0
M  V30 36 H -0.81962 -0.0690731 -1.01041 0
M  V30 37 H -0.578339 1.2481 0.144443 0
M  V30 38 H 1.59711 -0.486162 -1.72107 0
M  V30 39 H 1.09764 1.0412 -0.976338 0
M  V30 40 H 3.25732 1.47789 -0.119488 0
M  V30 41 H 3.39975 0.958713 -1.88362 0
M  V30 42 H 4.15924 -0.0957982 1.54245 0
M  V30 43 H 4.54115 -1.75553 1.00135 0
M  V30 44 H 2.20397 -1.19337 2.17831 0
M  V30 45 H 2.3508 -2.45257 0.929876 0
M  V30 46 H 5.64028 0.133285 -2.7482 0
M  V30 47 H 5.54208 1.71948 -2.21107 0
M  V30 END ATOM
M  V30 BEGIN BOND
M  V30 1 1 1 2
M  V30 2 1 2 3
M  V30 3 1 3 4
M  V30 4 1 4 5
M  V30 5 1 5 6
M  V30 6 1 6 7
M  V30 7 1 7 8
M  V30 8 1 3 9
M  V30 9 1 9 10
M  V30 10 2 10 11
M  V30 11 1 10 12
M  V30 12 1 12 13
M  V30 13 1 13 14
M  V30 14 1 14 15
M  V30 15 1 15 16
M  V30 16 1 16 17
M  V30 17 1 15 18
M  V30 18 2 18 19
M  V30 19 2 18 20
M  V30 20 1 18 21
M  V30 21 1 8 3
M  V30 22 1 17 12
M  V30 23 1 1 22
M  V30 24 1 1 23
M  V30 25 1 2 24
M  V30 26 1 2 25
M  V30 27 1 4 26
M  V30 28 1 4 27
M  V30 29 1 5 28
M  V30 30 1 5 29
M  V30 31 1 6 30
M  V30 32 1 6 31
M  V30 33 1 7 32
M  V30 34 1 7 33
M  V30 35 1 8 34
M  V30 36 1 8 35
M  V30 37 1 9 36
M  V30 38 1 9 37
M  V30 39 1 13 38
M  V30 40 1 13 39
M  V30 41 1 14 40
M  V30 42 1 14 41
M  V30 43 1 16 42
M  V30 44 1 16 43
M  V30 45 1 17 44
M  V30 46 1 17 45
M  V30 47 1 21 46
M  V30 48 1 21 47
M  V30 END BOND
M  V30 END CTAB
M  END
