
     RDKit          3D

  0  0  0  0  0  0  0  0  0  0999 V3000
M  V30 BEGIN CTAB
M  V30 COUNTS 33 34 0 0 0
M  V30 BEGIN ATOM
M  V30 1 N -1.59331 1.19155 -1.49612 0
M  V30 2 C -2.30435 0.571752 -0.44719 0
M  V30 3 C -3.63465 0.85659 -0.238676 0
M  V30 4 C -4.28276 0.307487 0.846166 0
M  V30 5 C -3.58785 -0.526576 1.72074 0
M  V30 6 C -2.26532 -0.786248 1.47308 0
M  V30 7 C -1.5475 -0.25789 0.39138 0
M  V30 8 C -0.199267 -0.603295 0.0673791 0 CFG=1
M  V30 9 N 0.157745 -1.12118 -1.19332 0
M  V30 10 C 1.33307 -1.98955 -0.945546 0
M  V30 11 C 2.4748 -1.22352 -0.316595 0
M  V30 12 N 2.13869 -0.272171 0.666869 0
M  V30 13 C 0.845225 0.355363 0.579694 0
M  V30 14 S 3.2699 1.05362 0.662152 0
M  V30 15 O 2.80756 2.00191 1.76549 0
M  V30 16 O 4.63521 0.565912 0.970856 0
M  V30 17 N 3.25878 1.81981 -0.862603 0
M  V30 18 H -1.50031 0.884425 -2.46669 0
M  V30 19 H -1.08761 2.0752 -1.18032 0
M  V30 20 H -4.16666 1.49291 -0.938168 0
M  V30 21 H -5.31577 0.55983 0.958805 0
M  V30 22 H -4.15446 -0.912409 2.53607 0
M  V30 23 H -1.70631 -1.44944 2.16025 0
M  V30 24 H 0.0121853 -1.51941 0.808495 0
M  V30 25 H -0.570095 -1.76507 -1.58022 0
M  V30 26 H 1.01507 -2.77409 -0.2165 0
M  V30 27 H 1.6435 -2.43412 -1.87024 0
M  V30 28 H 3.12998 -1.9856 0.163867 0
M  V30 29 H 3.09855 -0.825775 -1.14672 0
M  V30 30 H 0.992498 1.17327 -0.247181 0
M  V30 31 H 0.588236 0.852054 1.51383 0
M  V30 32 H 4.11774 2.37208 -1.02344 0
M  V30 33 H 2.39748 2.31258 -1.11558 0
M  V30 END ATOM
M  V30 BEGIN BOND
M  V30 1 1 1 2
M  V30 2 2 2 3
M  V30 3 1 3 4
M  V30 4 2 4 5
M  V30 5 1 5 6
M  V30 6 2 6 7
M  V30 7 1 7 8
M  V30 8 1 8 9
M  V30 9 1 9 10
M  V30 10 1 10 11
M  V30 11 1 11 12
M  V30 12 1 12 13
M  V30 13 1 12 14
M  V30 14 2 14 15
M  V30 15 2 14 16
M  V30 16 1 14 17
M  V30 17 1 7 2
M  V30 18 1 13 8
M  V30 19 1 1 18
M  V30 20 1 1 19
M  V30 21 1 3 20
M  V30 22 1 4 21
M  V30 23 1 5 22
M  V30 24 1 6 23
M  V30 25 1 8 24 CFG=1
M  V30 26 1 9 25
M  V30 27 1 10 26
M  V30 28 1 10 27
M  V30 29 1 11 28
M  V30 30 1 11 29
M  V30 31 1 13 30
M  V30 32 1 13 31
M  V30 33 1 17 32
M  V30 34 1 17 33
M  V30 END BOND
M  V30 END CTAB
M  END
