
     RDKit          3D

  0  0  0  0  0  0  0  0  0  0999 V3000
M  V30 BEGIN CTAB
M  V30 COUNTS 23 22 0 0 0
M  V30 BEGIN ATOM
M  V30 1 N 1.32308 1.65891 0.615409 0
M  V30 2 C -0.0481114 1.43607 0.207757 0
M  V30 3 C -0.321217 -0.036316 -0.0161999 0
M  V30 4 C 0.586447 -0.527653 -1.08292 0
M  V30 5 N 1.97744 -0.39707 -0.798124 0
M  V30 6 C -0.168621 -0.734614 1.3022 0
M  V30 7 O -0.396723 -2.10447 1.22489 0
M  V30 8 C -1.764 -0.237973 -0.459176 0
M  V30 9 O -2.00127 0.456978 -1.65864 0
M  V30 10 H 1.76713 2.44018 0.0987963 0
M  V30 11 H 1.4279 1.71453 1.64728 0
M  V30 12 H -0.224004 2.04176 -0.703563 0
M  V30 13 H -0.69418 1.85753 1.00563 0
M  V30 14 H 0.375299 -1.62165 -1.26611 0
M  V30 15 H 0.389894 -0.0408791 -2.0597 0
M  V30 16 H 2.57543 -0.82035 -1.53045 0
M  V30 17 H 2.25257 -0.716156 0.154913 0
M  V30 18 H 0.830359 -0.51413 1.74156 0
M  V30 19 H -0.91175 -0.330863 2.02115 0
M  V30 20 H 0.275905 -2.53635 1.81245 0
M  V30 21 H -2.43788 0.157824 0.323733 0
M  V30 22 H -1.91847 -1.31007 -0.613828 0
M  V30 23 H -2.89525 0.164762 -1.96706 0
M  V30 END ATOM
M  V30 BEGIN BOND
M  V30 1 1 1 2
M  V30 2 1 2 3
M  V30 3 1 3 4
M  V30 4 1 4 5
M  V30 5 1 3 6
M  V30 6 1 6 7
M  V30 7 1 3 8
M  V30 8 1 8 9
M  V30 9 1 1 10
M  V30 10 1 1 11
M  V30 11 1 2 12
M  V30 12 1 2 13
M  V30 13 1 4 14
M  V30 14 1 4 15
M  V30 15 1 5 16
M  V30 16 1 5 17
M  V30 17 1 6 18
M  V30 18 1 6 19
M  V30 19 1 7 20
M  V30 20 1 8 21
M  V30 21 1 8 22
M  V30 22 1 9 23
M  V30 END BOND
M  V30 END CTAB
M  END
