
     RDKit          3D

  0  0  0  0  0  0  0  0  0  0999 V3000
M  V30 BEGIN CTAB
M  V30 COUNTS 46 45 0 0 0
M  V30 BEGIN ATOM
M  V30 1 C -4.10144 -2.37182 0.994101 0 CFG=1
M  V30 2 N -4.21778 -3.31914 -0.0498114 0
M  V30 3 C -2.75735 -1.71523 1.10717 0
M  V30 4 C -2.37891 -0.963321 -0.148106 0
M  V30 5 C -1.04919 -0.325594 0.000614762 0
M  V30 6 O -0.433775 -0.478239 1.0803 0
M  V30 7 N -0.459125 0.439079 -1.0198 0
M  V30 8 C 0.810499 1.09714 -1.00233 0 CFG=1
M  V30 9 C 1.61911 0.876118 -2.23534 0
M  V30 10 S 1.9846 -0.85123 -2.47273 0
M  V30 11 S 3.38197 -1.61519 -1.09412 0
M  V30 12 C 2.65408 -2.2695 0.40755 0
M  V30 13 C 3.76517 -2.82003 1.28347 0
M  V30 14 N 4.43114 -3.86377 0.528628 0
M  V30 15 C 0.584429 2.56944 -0.862346 0
M  V30 16 O -0.596423 2.9744 -0.787348 0
M  V30 17 N 1.68654 3.43437 -0.820358 0
M  V30 18 C 1.4433 4.85609 -0.684491 0
M  V30 19 C 2.73906 5.56217 -0.663954 0
M  V30 20 O 2.77111 6.93916 -0.542428 0
M  V30 21 O 3.80104 4.92228 -0.755881 0
M  V30 22 C -5.18951 -1.38451 0.908969 0
M  V30 23 O -6.13308 -1.4637 -0.0881394 0
M  V30 24 O -5.26031 -0.466483 1.74634 0
M  V30 25 H -4.25967 -2.92487 1.96088 0
M  V30 26 H -3.35273 -3.63291 -0.495477 0
M  V30 27 H -5.01859 -3.17687 -0.699862 0
M  V30 28 H -2.7839 -1.01647 1.9669 0
M  V30 29 H -1.94867 -2.44364 1.31243 0
M  V30 30 H -2.45579 -1.58255 -1.05236 0
M  V30 31 H -3.14635 -0.146955 -0.263774 0
M  V30 32 H -1.0202 0.548449 -1.92061 0
M  V30 33 H 1.38831 0.731715 -0.118686 0
M  V30 34 H 2.60998 1.39674 -2.06315 0
M  V30 35 H 1.1989 1.37501 -3.13297 0
M  V30 36 H 2.26694 -1.37522 0.98264 0
M  V30 37 H 1.81468 -2.94723 0.268468 0
M  V30 38 H 3.3453 -3.23167 2.21384 0
M  V30 39 H 4.44613 -1.94964 1.49146 0
M  V30 40 H 3.74869 -4.33745 -0.0882637 0
M  V30 41 H 4.84634 -4.51739 1.25384 0
M  V30 42 H 2.64865 3.05398 -0.885628 0
M  V30 43 H 0.984101 5.02713 0.328839 0
M  V30 44 H 0.753333 5.22121 -1.47677 0
M  V30 45 H 1.97867 7.53662 -0.757544 0
M  V30 46 H -7.13927 -1.37048 0.0785908 0
M  V30 END ATOM
M  V30 BEGIN BOND
M  V30 1 1 1 2
M  V30 2 1 1 3
M  V30 3 1 3 4
M  V30 4 1 4 5
M  V30 5 2 5 6
M  V30 6 1 5 7
M  V30 7 1 7 8
M  V30 8 1 8 9
M  V30 9 1 9 10
M  V30 10 1 10 11
M  V30 11 1 11 12
M  V30 12 1 12 13
M  V30 13 1 13 14
M  V30 14 1 8 15
M  V30 15 2 15 16
M  V30 16 1 15 17
M  V30 17 1 17 18
M  V30 18 1 18 19
M  V30 19 1 19 20
M  V30 20 2 19 21
M  V30 21 1 1 22
M  V30 22 1 22 23
M  V30 23 2 22 24
M  V30 24 1 1 25 CFG=1
M  V30 25 1 2 26
M  V30 26 1 2 27
M  V30 27 1 3 28
M  V30 28 1 3 29
M  V30 29 1 4 30
M  V30 30 1 4 31
M  V30 31 1 7 32
M  V30 32 1 8 33 CFG=1
M  V30 33 1 9 34
M  V30 34 1 9 35
M  V30 35 1 12 36
M  V30 36 1 12 37
M  V30 37 1 13 38
M  V30 38 1 13 39
M  V30 39 1 14 40
M  V30 40 1 14 41
M  V30 41 1 17 42
M  V30 42 1 18 43
M  V30 43 1 18 44
M  V30 44 1 20 45
M  V30 45 1 23 46
M  V30 END BOND
M  V30 END CTAB
M  END
