
     RDKit          3D

  0  0  0  0  0  0  0  0  0  0999 V3000
M  V30 BEGIN CTAB
M  V30 COUNTS 57 60 0 0 0
M  V30 BEGIN ATOM
M  V30 1 C -4.03452 -0.229317 -1.73829 0 CFG=1
M  V30 2 N -4.8293 -1.47335 -1.66908 0
M  V30 3 C -4.46662 0.689721 -0.560918 0
M  V30 4 C -5.97944 0.638332 -0.635417 0
M  V30 5 C -6.68774 0.297194 0.51235 0
M  V30 6 C -8.03011 -0.00586453 0.453703 0
M  V30 7 C -8.64337 0.0384441 -0.76738 0
M  V30 8 C -7.96749 0.374969 -1.91269 0
M  V30 9 C -6.63043 0.677888 -1.83699 0
M  V30 10 C -2.68102 -0.810367 -1.23469 0
M  V30 11 O -1.70061 -0.864489 -1.91395 0
M  V30 12 O -2.78851 -1.24441 0.0941984 0
M  V30 13 P -1.6013 -1.95441 0.96514 0
M  V30 14 O -2.05463 -3.27527 1.86471 0
M  V30 15 O -0.469664 -2.46586 -0.0233593 0
M  V30 16 O -0.733092 -0.894367 2.00801 0
M  V30 17 C 0.0989831 -0.210441 1.08448 0
M  V30 18 C 1.51747 -0.313735 1.5338 0 CFG=1
M  V30 19 O 2.28951 -0.143238 0.315608 0
M  V30 20 C 3.51637 0.178255 0.809773 0 CFG=2
M  V30 21 C 3.06005 1.42145 1.64029 0 CFG=2
M  V30 22 O 4.1091 1.91831 2.33165 0
M  V30 23 C 1.96443 0.755163 2.44674 0 CFG=2
M  V30 24 O 2.56459 0.214011 3.61142 0
M  V30 25 N 4.47338 0.527029 -0.161148 0
M  V30 26 C 4.43376 1.41401 -1.14342 0
M  V30 27 N 5.63053 1.47419 -1.80492 0
M  V30 28 C 6.44253 0.572723 -1.18857 0
M  V30 29 C 5.72768 -0.00447123 -0.192611 0
M  V30 30 N 6.30826 -0.953015 0.560424 0
M  V30 31 C 7.57861 -1.32675 0.333786 0
M  V30 32 N 8.30864 -0.768868 -0.643471 0
M  V30 33 C 7.74548 0.183078 -1.40633 0
M  V30 34 N 8.5132 0.856126 -2.38616 0
M  V30 35 H -3.85142 0.245444 -2.63615 0
M  V30 36 H -4.76624 -1.9176 -2.60894 0
M  V30 37 H -4.40139 -2.08359 -0.957514 0
M  V30 38 H -4.17723 0.20875 0.384303 0
M  V30 39 H -4.07922 1.68258 -0.728965 0
M  V30 40 H -6.10304 0.279429 1.42336 0
M  V30 41 H -8.56506 -0.267948 1.35351 0
M  V30 42 H -9.70193 -0.216789 -0.767579 0
M  V30 43 H -8.51146 0.356436 -2.86858 0
M  V30 44 H -6.10583 0.924182 -2.73453 0
M  V30 45 H -1.32053 -3.46619 2.52762 0
M  V30 46 H -0.235972 0.905691 1.3296 0
M  V30 47 H -0.121398 -0.310296 0.0638269 0
M  V30 48 H 1.69897 -1.34555 1.88504 0
M  V30 49 H 3.8579 -0.565765 1.54787 0
M  V30 50 H 2.56482 2.1029 0.916065 0
M  V30 51 H 4.96085 1.45296 2.0356 0
M  V30 52 H 1.13745 1.43758 2.74298 0
M  V30 53 H 3.44887 0.668103 3.74718 0
M  V30 54 H 3.5834 2.00288 -1.40668 0
M  V30 55 H 8.05634 -2.08794 0.946742 0
M  V30 56 H 8.41393 1.8753 -2.62752 0
M  V30 57 H 9.23345 0.328258 -2.91394 0
M  V30 END ATOM
M  V30 BEGIN BOND
M  V30 1 1 1 2
M  V30 2 1 1 3
M  V30 3 1 3 4
M  V30 4 2 4 5
M  V30 5 1 5 6
M  V30 6 2 6 7
M  V30 7 1 7 8
M  V30 8 2 8 9
M  V30 9 1 1 10
M  V30 10 2 10 11
M  V30 11 1 10 12
M  V30 12 1 12 13
M  V30 13 1 13 14
M  V30 14 2 13 15
M  V30 15 1 13 16
M  V30 16 1 16 17
M  V30 17 1 17 18
M  V30 18 1 18 19
M  V30 19 1 19 20
M  V30 20 1 20 21
M  V30 21 1 21 22
M  V30 22 1 21 23
M  V30 23 1 23 24
M  V30 24 1 20 25
M  V30 25 1 25 26
M  V30 26 2 26 27
M  V30 27 1 27 28
M  V30 28 2 28 29
M  V30 29 1 29 30
M  V30 30 2 30 31
M  V30 31 1 31 32
M  V30 32 2 32 33
M  V30 33 1 33 34
M  V30 34 1 9 4
M  V30 35 1 23 18
M  V30 36 1 29 25
M  V30 37 1 33 28
M  V30 38 1 1 35 CFG=3
M  V30 39 1 2 36
M  V30 40 1 2 37
M  V30 41 1 3 38
M  V30 42 1 3 39
M  V30 43 1 5 40
M  V30 44 1 6 41
M  V30 45 1 7 42
M  V30 46 1 8 43
M  V30 47 1 9 44
M  V30 48 1 14 45
M  V30 49 1 17 46
M  V30 50 1 17 47
M  V30 51 1 18 48 CFG=1
M  V30 52 1 20 49 CFG=1
M  V30 53 1 21 50 CFG=3
M  V30 54 1 22 51
M  V30 55 1 23 52 CFG=1
M  V30 56 1 24 53
M  V30 57 1 26 54
M  V30 58 1 31 55
M  V30 59 1 34 56
M  V30 60 1 34 57
M  V30 END BOND
M  V30 END CTAB
M  END
