
     RDKit          3D

  0  0  0  0  0  0  0  0  0  0999 V3000
M  V30 BEGIN CTAB
M  V30 COUNTS 33 34 0 0 0
M  V30 BEGIN ATOM
M  V30 1 C 1.0398 -2.58219 0.649527 0
M  V30 2 C 1.60976 -1.27846 0.350799 0
M  V30 3 N 2.95054 -1.18344 0.11107 0
M  V30 4 C 3.60009 -0.0611018 -0.179524 0
M  V30 5 N 5.01701 -0.011347 -0.376212 0
M  V30 6 N 2.91234 1.0899 -0.256127 0
M  V30 7 C 1.56831 1.08384 -0.0342585 0
M  V30 8 N 0.91265 2.32033 -0.238428 0
M  V30 9 C 0.901502 -0.0670926 0.271428 0
M  V30 10 C -0.540647 -0.156236 0.560471 0
M  V30 11 C -1.18519 1.06745 1.15239 0
M  V30 12 C -2.42509 1.54084 0.417764 0
M  V30 13 C -3.38889 0.366614 0.392783 0
M  V30 14 C -2.7396 -0.842533 -0.220204 0
M  V30 15 C -1.32939 -0.530199 -0.716201 0
M  V30 16 H 0.907951 -3.15706 -0.316598 0
M  V30 17 H 1.8533 -3.18491 1.1694 0
M  V30 18 H 0.188146 -2.66315 1.30183 0
M  V30 19 H 5.56969 0.848257 -0.154405 0
M  V30 20 H 5.4477 -0.879314 -0.751847 0
M  V30 21 H 0.200382 2.46532 -0.985508 0
M  V30 22 H 1.14831 3.12614 0.374104 0
M  V30 23 H -0.758972 -0.991979 1.24508 0
M  V30 24 H -0.527338 1.86441 1.49665 0
M  V30 25 H -1.66252 0.756193 2.18191 0
M  V30 26 H -2.90459 2.301 1.0949 0
M  V30 27 H -2.2803 1.89356 -0.593994 0
M  V30 28 H -4.2421 0.679948 -0.222758 0
M  V30 29 H -3.69121 0.187961 1.44746 0
M  V30 30 H -3.35728 -1.24109 -1.074 0
M  V30 31 H -2.6095 -1.59815 0.579392 0
M  V30 32 H -1.3065 0.296223 -1.42448 0
M  V30 33 H -0.87837 -1.45971 -1.09817 0
M  V30 END ATOM
M  V30 BEGIN BOND
M  V30 1 1 1 2
M  V30 2 2 2 3
M  V30 3 1 3 4
M  V30 4 1 4 5
M  V30 5 2 4 6
M  V30 6 1 6 7
M  V30 7 1 7 8
M  V30 8 2 7 9
M  V30 9 1 9 10
M  V30 10 1 10 11
M  V30 11 1 11 12
M  V30 12 1 12 13
M  V30 13 1 13 14
M  V30 14 1 14 15
M  V30 15 1 9 2
M  V30 16 1 15 10
M  V30 17 1 1 16
M  V30 18 1 1 17
M  V30 19 1 1 18
M  V30 20 1 5 19
M  V30 21 1 5 20
M  V30 22 1 8 21
M  V30 23 1 8 22
M  V30 24 1 10 23
M  V30 25 1 11 24
M  V30 26 1 11 25
M  V30 27 1 12 26
M  V30 28 1 12 27
M  V30 29 1 13 28
M  V30 30 1 13 29
M  V30 31 1 14 30
M  V30 32 1 14 31
M  V30 33 1 15 32
M  V30 34 1 15 33
M  V30 END BOND
M  V30 END CTAB
M  END
