
     RDKit          3D

  0  0  0  0  0  0  0  0  0  0999 V3000
M  V30 BEGIN CTAB
M  V30 COUNTS 31 31 0 0 0
M  V30 BEGIN ATOM
M  V30 1 C -2.83049 -0.904632 -0.884076 0
M  V30 2 C -2.40845 0.216961 0.0323241 0
M  V30 3 C -0.925373 0.374169 -0.0757897 0
M  V30 4 C -0.157943 -0.854606 0.311183 0
M  V30 5 C 1.30133 -0.524349 0.145433 0
M  V30 6 N 2.23221 -1.46307 0.428296 0
M  V30 7 C 3.53864 -1.1807 0.284406 0
M  V30 8 N 4.54118 -2.16177 0.578952 0
M  V30 9 N 3.93464 0.0502642 -0.146447 0
M  V30 10 C 3.02119 0.99643 -0.432478 0
M  V30 11 N 1.72711 0.66534 -0.272573 0
M  V30 12 N 3.46203 2.26183 -0.876622 0
M  V30 13 C -2.79893 -0.0719859 1.4668 0
M  V30 14 C -3.05014 1.49783 -0.467291 0
M  V30 15 H -2.68783 -1.90648 -0.439906 0
M  V30 16 H -3.85169 -0.730535 -1.2532 0
M  V30 17 H -2.14289 -0.861033 -1.77936 0
M  V30 18 H -0.537306 1.21597 0.55494 0
M  V30 19 H -0.661478 0.646576 -1.1183 0
M  V30 20 H -0.334571 -1.14057 1.36481 0
M  V30 21 H -0.392568 -1.73095 -0.311514 0
M  V30 22 H 4.4439 -2.82785 1.37208 0
M  V30 23 H 5.38765 -2.22215 -0.00129772 0
M  V30 24 H 3.69572 2.97843 -0.171891 0
M  V30 25 H 3.55746 2.4917 -1.87705 0
M  V30 26 H -2.13397 0.525123 2.12199 0
M  V30 27 H -2.64556 -1.13043 1.68464 0
M  V30 28 H -3.82499 0.291923 1.63312 0
M  V30 29 H -2.437 1.83911 -1.33867 0
M  V30 30 H -2.94946 2.30314 0.293342 0
M  V30 31 H -4.07243 1.35631 -0.825855 0
M  V30 END ATOM
M  V30 BEGIN BOND
M  V30 1 1 1 2
M  V30 2 1 2 3
M  V30 3 1 3 4
M  V30 4 1 4 5
M  V30 5 2 5 6
M  V30 6 1 6 7
M  V30 7 1 7 8
M  V30 8 2 7 9
M  V30 9 1 9 10
M  V30 10 2 10 11
M  V30 11 1 10 12
M  V30 12 1 2 13
M  V30 13 1 2 14
M  V30 14 1 11 5
M  V30 15 1 1 15
M  V30 16 1 1 16
M  V30 17 1 1 17
M  V30 18 1 3 18
M  V30 19 1 3 19
M  V30 20 1 4 20
M  V30 21 1 4 21
M  V30 22 1 8 22
M  V30 23 1 8 23
M  V30 24 1 12 24
M  V30 25 1 12 25
M  V30 26 1 13 26
M  V30 27 1 13 27
M  V30 28 1 13 28
M  V30 29 1 14 29
M  V30 30 1 14 30
M  V30 31 1 14 31
M  V30 END BOND
M  V30 END CTAB
M  END
