
     RDKit          3D

  0  0  0  0  0  0  0  0  0  0999 V3000
M  V30 BEGIN CTAB
M  V30 COUNTS 44 44 0 0 0
M  V30 BEGIN ATOM
M  V30 1 C -3.54042 2.34442 -1.375 0
M  V30 2 C -3.87685 1.46929 -0.220602 0
M  V30 3 C -2.86034 0.323141 -0.0188945 0
M  V30 4 C -1.51264 0.918315 0.216396 0
M  V30 5 N -0.41729 0.0754531 0.446485 0
M  V30 6 C 0.152536 -0.872189 -0.411816 0
M  V30 7 O -0.244992 -1.12285 -1.59001 0
M  V30 8 C 1.32503 -1.70524 0.0095516 0
M  V30 9 C 2.56573 -0.905168 0.078639 0
M  V30 10 C 3.76795 -1.57778 0.315152 0
M  V30 11 C 4.9865 -0.948941 0.39148 0
M  V30 12 C 5.06506 0.406526 0.232468 0
M  V30 13 C 3.90368 1.10331 -0.00203869 0
M  V30 14 C 2.66455 0.453454 -0.0785248 0
M  V30 15 C 6.36308 1.15161 0.304555 0
M  V30 16 N 1.56257 -2.81471 -0.916739 0
M  V30 17 C -3.37111 -0.382898 1.25224 0
M  V30 18 C -4.75811 -0.901295 1.06407 0
M  V30 19 N -3.01644 -0.511863 -1.16085 0
M  V30 20 H -2.69907 3.0442 -1.18868 0
M  V30 21 H -3.32424 1.81988 -2.30833 0
M  V30 22 H -4.43114 3.02338 -1.53496 0
M  V30 23 H -4.83284 0.95238 -0.449923 0
M  V30 24 H -3.89864 2.03058 0.716033 0
M  V30 25 H -1.65032 1.66351 1.06921 0
M  V30 26 H -1.33244 1.63796 -0.655804 0
M  V30 27 H 0.0642855 0.151099 1.40566 0
M  V30 28 H 1.08131 -2.1642 0.992976 0
M  V30 29 H 3.75165 -2.66031 0.448051 0
M  V30 30 H 5.91351 -1.47585 0.574874 0
M  V30 31 H 3.90461 2.16924 -0.134819 0
M  V30 32 H 1.77267 1.03093 -0.271059 0
M  V30 33 H 7.11067 0.521267 0.826957 0
M  V30 34 H 6.25652 2.14965 0.736861 0
M  V30 35 H 6.71063 1.26945 -0.738971 0
M  V30 36 H 2.04188 -3.58933 -0.42654 0
M  V30 37 H 2.21339 -2.44662 -1.63862 0
M  V30 38 H -3.39463 0.392209 2.05026 0
M  V30 39 H -2.69613 -1.18718 1.55884 0
M  V30 40 H -4.95709 -1.71063 1.79671 0
M  V30 41 H -5.52883 -0.0912766 1.18889 0
M  V30 42 H -4.87928 -1.39223 0.0553462 0
M  V30 43 H -2.901 -0.124911 -2.08058 0
M  V30 44 H -3.05397 -1.51577 -1.02661 0
M  V30 END ATOM
M  V30 BEGIN BOND
M  V30 1 1 1 2
M  V30 2 1 2 3
M  V30 3 1 3 4
M  V30 4 1 4 5
M  V30 5 1 5 6
M  V30 6 2 6 7
M  V30 7 1 6 8
M  V30 8 1 8 9
M  V30 9 2 9 10
M  V30 10 1 10 11
M  V30 11 2 11 12
M  V30 12 1 12 13
M  V30 13 2 13 14
M  V30 14 1 12 15
M  V30 15 1 8 16
M  V30 16 1 3 17
M  V30 17 1 17 18
M  V30 18 1 3 19
M  V30 19 1 14 9
M  V30 20 1 1 20
M  V30 21 1 1 21
M  V30 22 1 1 22
M  V30 23 1 2 23
M  V30 24 1 2 24
M  V30 25 1 4 25
M  V30 26 1 4 26
M  V30 27 1 5 27
M  V30 28 1 8 28
M  V30 29 1 10 29
M  V30 30 1 11 30
M  V30 31 1 13 31
M  V30 32 1 14 32
M  V30 33 1 15 33
M  V30 34 1 15 34
M  V30 35 1 15 35
M  V30 36 1 16 36
M  V30 37 1 16 37
M  V30 38 1 17 38
M  V30 39 1 17 39
M  V30 40 1 18 40
M  V30 41 1 18 41
M  V30 42 1 18 42
M  V30 43 1 19 43
M  V30 44 1 19 44
M  V30 END BOND
M  V30 END CTAB
M  END
