
     RDKit          3D

  0  0  0  0  0  0  0  0  0  0999 V3000
M  V30 BEGIN CTAB
M  V30 COUNTS 18 17 0 0 0
M  V30 BEGIN ATOM
M  V30 1 N 1.48547 1.3983 0.121544 0
M  V30 2 C 0.834243 0.430379 0.966317 0
M  V30 3 C 0.200146 -0.690116 0.224442 0
M  V30 4 C -0.854908 -0.270414 -0.757855 0
M  V30 5 C -2.013 0.456725 -0.168754 0
M  V30 6 F -2.69005 -0.261877 0.782198 0
M  V30 7 F -2.95927 0.610362 -1.2153 0
M  V30 8 F -1.72303 1.72327 0.25031 0
M  V30 9 N 1.10561 -1.55654 -0.441204 0
M  V30 10 H 1.9586 2.09123 0.773969 0
M  V30 11 H 2.16728 0.963013 -0.532753 0
M  V30 12 H 0.10729 0.947178 1.6106 0
M  V30 13 H 1.61954 0.0534636 1.68327 0
M  V30 14 H -0.308848 -1.32548 1.01547 0
M  V30 15 H -1.19689 -1.12986 -1.39191 0
M  V30 16 H -0.353281 0.409454 -1.51351 0
M  V30 17 H 1.37993 -2.40626 0.0208925 0
M  V30 18 H 1.24117 -1.44283 -1.42773 0
M  V30 END ATOM
M  V30 BEGIN BOND
M  V30 1 1 1 2
M  V30 2 1 2 3
M  V30 3 1 3 4
M  V30 4 1 4 5
M  V30 5 1 5 6
M  V30 6 1 5 7
M  V30 7 1 5 8
M  V30 8 1 3 9
M  V30 9 1 1 10
M  V30 10 1 1 11
M  V30 11 1 2 12
M  V30 12 1 2 13
M  V30 13 1 3 14
M  V30 14 1 4 15
M  V30 15 1 4 16
M  V30 16 1 9 17
M  V30 17 1 9 18
M  V30 END BOND
M  V30 END CTAB
M  END
