
     RDKit          3D

  0  0  0  0  0  0  0  0  0  0999 V3000
M  V30 BEGIN CTAB
M  V30 COUNTS 41 44 0 0 0
M  V30 BEGIN ATOM
M  V30 1 O -2.10707 2.09465 -0.393089 0
M  V30 2 C -1.18936 1.21684 -0.220332 0
M  V30 3 C 0.175693 1.65164 -0.21994 0
M  V30 4 C 0.608247 2.95932 -0.392285 0
M  V30 5 N -0.242775 4.08317 -0.598143 0
M  V30 6 N 1.94497 2.96882 -0.330555 0
M  V30 7 C 2.41513 1.72804 -0.125439 0
M  V30 8 C 1.3032 0.879604 -0.0528799 0
M  V30 9 N 1.51076 -0.439141 0.151328 0
M  V30 10 C 2.72491 -0.995385 0.29067 0
M  V30 11 C 2.92063 -2.34501 0.498871 0
M  V30 12 C 4.17706 -2.89772 0.639688 0
M  V30 13 C 5.27343 -2.06023 0.568007 0
M  V30 14 C 5.07853 -0.707167 0.359337 0
M  V30 15 C 3.82407 -0.149729 0.217916 0
M  V30 16 N 3.62737 1.16943 0.0141607 0
M  V30 17 N 2.73902 4.13179 -0.464498 0
M  V30 18 N -1.65798 -0.103615 -0.0478183 0
M  V30 19 C -3.06482 -0.454737 -0.0625312 0
M  V30 20 C -3.49639 -1.07357 1.25799 0
M  V30 21 C -4.83279 -1.68444 0.868203 0
M  V30 22 C -4.45983 -2.40805 -0.413764 0
M  V30 23 C -3.39805 -1.51786 -1.05685 0
M  V30 24 H -0.763765 4.228 -1.46698 0
M  V30 25 H -0.342218 4.78861 0.162939 0
M  V30 26 H 2.06818 -3.01436 0.557284 0
M  V30 27 H 4.34087 -3.95822 0.803765 0
M  V30 28 H 6.29911 -2.43467 0.671648 0
M  V30 29 H 5.91413 -0.00935961 0.29593 0
M  V30 30 H 2.70454 4.71009 -1.3268 0
M  V30 31 H 3.38341 4.45086 0.28928 0
M  V30 32 H -0.976541 -0.874119 0.0979663 0
M  V30 33 H -3.68695 0.425627 -0.221688 0
M  V30 34 H -3.624 -0.285896 1.99931 0
M  V30 35 H -2.77006 -1.85779 1.52718 0
M  V30 36 H -5.5173 -0.847898 0.653554 0
M  V30 37 H -5.14836 -2.35012 1.66948 0
M  V30 38 H -4.00902 -3.39199 -0.186355 0
M  V30 39 H -5.36814 -2.4817 -1.03723 0
M  V30 40 H -2.50333 -2.09363 -1.34875 0
M  V30 41 H -3.87451 -1.05006 -1.9502 0
M  V30 END ATOM
M  V30 BEGIN BOND
M  V30 1 2 1 2
M  V30 2 1 2 3
M  V30 3 2 3 4
M  V30 4 1 4 5
M  V30 5 1 4 6
M  V30 6 1 6 7
M  V30 7 2 7 8
M  V30 8 1 8 9
M  V30 9 2 9 10
M  V30 10 1 10 11
M  V30 11 2 11 12
M  V30 12 1 12 13
M  V30 13 2 13 14
M  V30 14 1 14 15
M  V30 15 2 15 16
M  V30 16 1 6 17
M  V30 17 1 2 18
M  V30 18 1 18 19
M  V30 19 1 19 20
M  V30 20 1 20 21
M  V30 21 1 21 22
M  V30 22 1 22 23
M  V30 23 1 8 3
M  V30 24 1 15 10
M  V30 25 1 23 19
M  V30 26 1 16 7
M  V30 27 1 5 24
M  V30 28 1 5 25
M  V30 29 1 11 26
M  V30 30 1 12 27
M  V30 31 1 13 28
M  V30 32 1 14 29
M  V30 33 1 17 30
M  V30 34 1 17 31
M  V30 35 1 18 32
M  V30 36 1 19 33
M  V30 37 1 20 34
M  V30 38 1 20 35
M  V30 39 1 21 36
M  V30 40 1 21 37
M  V30 41 1 22 38
M  V30 42 1 22 39
M  V30 43 1 23 40
M  V30 44 1 23 41
M  V30 END BOND
M  V30 END CTAB
M  END
