
     RDKit          3D

  0  0  0  0  0  0  0  0  0  0999 V3000
M  V30 BEGIN CTAB
M  V30 COUNTS 44 47 0 0 0
M  V30 BEGIN ATOM
M  V30 1 N 1.40189 4.87755 0.644981 0
M  V30 2 C 0.445343 3.83236 0.635793 0
M  V30 3 C -0.705189 3.8849 1.38782 0
M  V30 4 C -1.63453 2.8765 1.38301 0
M  V30 5 C -1.36273 1.77147 0.568746 0
M  V30 6 C -0.221109 1.69964 -0.188935 0
M  V30 7 N 0.636662 2.7391 -0.121152 0
M  V30 8 N 0.0250426 0.569533 -1.00167 0
M  V30 9 C 1.21448 0.468072 -1.80815 0
M  V30 10 C 2.33848 -0.169225 -1.11379 0
M  V30 11 C 3.53028 -0.311541 -1.81299 0
M  V30 12 C 4.6371 -0.90462 -1.22205 0
M  V30 13 C 4.55854 -1.35384 0.0581288 0
M  V30 14 C 3.36465 -1.21351 0.764571 0
M  V30 15 C 2.26976 -0.626965 0.180389 0
M  V30 16 N 5.68667 -1.95798 0.659489 0
M  V30 17 C -0.934067 -0.471797 -1.00686 0
M  V30 18 O -1.02958 -1.29242 -1.97764 0
M  V30 19 C -1.83546 -0.578132 0.169071 0
M  V30 20 O -2.27691 0.728199 0.534106 0
M  V30 21 C -3.01865 -1.41392 -0.121095 0
M  V30 22 C -4.05766 -0.942623 -0.88892 0
M  V30 23 C -5.17094 -1.71519 -1.16782 0
M  V30 24 C -5.23632 -2.99102 -0.660435 0
M  V30 25 C -4.1992 -3.49508 0.120297 0
M  V30 26 C -3.10478 -2.6918 0.375834 0
M  V30 27 H 2.1066 5.01181 1.39602 0
M  V30 28 H 1.40383 5.55299 -0.143235 0
M  V30 29 H -0.900292 4.74332 2.01031 0
M  V30 30 H -2.54629 2.88833 1.96161 0
M  V30 31 H 0.989791 0.0035512 -2.79165 0
M  V30 32 H 1.53227 1.52229 -2.04775 0
M  V30 33 H 3.62814 0.036912 -2.83951 0
M  V30 34 H 5.55154 -0.986961 -1.8308 0
M  V30 35 H 3.36201 -1.59186 1.78509 0
M  V30 36 H 1.36425 -0.534777 0.754557 0
M  V30 37 H 5.69168 -3.00274 0.769089 0
M  V30 38 H 6.49686 -1.3893 0.988505 0
M  V30 39 H -1.25363 -1.04964 0.99348 0
M  V30 40 H -4.0568 0.0566495 -1.3138 0
M  V30 41 H -5.98856 -1.35822 -1.76612 0
M  V30 42 H -6.10164 -3.62945 -0.861066 0
M  V30 43 H -4.3025 -4.50493 0.493755 0
M  V30 44 H -2.29903 -3.08563 0.98334 0
M  V30 END ATOM
M  V30 BEGIN BOND
M  V30 1 1 1 2
M  V30 2 2 2 3
M  V30 3 1 3 4
M  V30 4 2 4 5
M  V30 5 1 5 6
M  V30 6 2 6 7
M  V30 7 1 6 8
M  V30 8 1 8 9
M  V30 9 1 9 10
M  V30 10 2 10 11
M  V30 11 1 11 12
M  V30 12 2 12 13
M  V30 13 1 13 14
M  V30 14 2 14 15
M  V30 15 1 13 16
M  V30 16 1 8 17
M  V30 17 2 17 18
M  V30 18 1 17 19
M  V30 19 1 19 20
M  V30 20 1 19 21
M  V30 21 2 21 22
M  V30 22 1 22 23
M  V30 23 2 23 24
M  V30 24 1 24 25
M  V30 25 2 25 26
M  V30 26 1 7 2
M  V30 27 1 15 10
M  V30 28 1 26 21
M  V30 29 1 20 5
M  V30 30 1 1 27
M  V30 31 1 1 28
M  V30 32 1 3 29
M  V30 33 1 4 30
M  V30 34 1 9 31
M  V30 35 1 9 32
M  V30 36 1 11 33
M  V30 37 1 12 34
M  V30 38 1 14 35
M  V30 39 1 15 36
M  V30 40 1 16 37
M  V30 41 1 16 38
M  V30 42 1 19 39
M  V30 43 1 22 40
M  V30 44 1 23 41
M  V30 45 1 24 42
M  V30 46 1 25 43
M  V30 47 1 26 44
M  V30 END BOND
M  V30 END CTAB
M  END
