
     RDKit          3D

  0  0  0  0  0  0  0  0  0  0999 V3000
M  V30 BEGIN CTAB
M  V30 COUNTS 21 21 0 0 0
M  V30 BEGIN ATOM
M  V30 1 N -1.41006 -1.15555 1.45333 0
M  V30 2 C -1.2427 -0.756322 0.0639913 0
M  V30 3 C -0.0179625 0.0770027 -0.107354 0
M  V30 4 C 1.28407 -0.561774 0.271633 0
M  V30 5 N 1.58118 -1.75008 -0.480961 0
M  V30 6 C -0.15208 1.42439 0.603025 0
M  V30 7 N 0.665543 1.9706 -0.476301 0
M  V30 8 C 0.0356765 0.949264 -1.33031 0
M  V30 9 H -2.22857 -1.81632 1.46046 0
M  V30 10 H -1.76588 -0.291908 1.9549 0
M  V30 11 H -1.26019 -1.62836 -0.607126 0
M  V30 12 H -2.12292 -0.120755 -0.182557 0
M  V30 13 H 1.28678 -0.806063 1.34252 0
M  V30 14 H 2.09422 0.180715 0.039344 0
M  V30 15 H 1.58155 -1.56681 -1.5109 0
M  V30 16 H 2.4882 -2.12167 -0.131762 0
M  V30 17 H -1.20473 1.74794 0.538918 0
M  V30 18 H 0.314075 1.38206 1.58137 0
M  V30 19 H 0.415028 2.94551 -0.72237 0
M  V30 20 H 0.654843 0.603068 -2.15941 0
M  V30 21 H -0.996079 1.29505 -1.60044 0
M  V30 END ATOM
M  V30 BEGIN BOND
M  V30 1 1 1 2
M  V30 2 1 2 3
M  V30 3 1 3 4
M  V30 4 1 4 5
M  V30 5 1 3 6
M  V30 6 1 6 7
M  V30 7 1 7 8
M  V30 8 1 8 3
M  V30 9 1 1 9
M  V30 10 1 1 10
M  V30 11 1 2 11
M  V30 12 1 2 12
M  V30 13 1 4 13
M  V30 14 1 4 14
M  V30 15 1 5 15
M  V30 16 1 5 16
M  V30 17 1 6 17
M  V30 18 1 6 18
M  V30 19 1 7 19
M  V30 20 1 8 20
M  V30 21 1 8 21
M  V30 END BOND
M  V30 END CTAB
M  END
