
     RDKit          3D

  0  0  0  0  0  0  0  0  0  0999 V3000
M  V30 BEGIN CTAB
M  V30 COUNTS 48 50 0 0 0
M  V30 BEGIN ATOM
M  V30 1 O -1.75261 -1.484 -0.392071 0
M  V30 2 C -1.97036 -0.335316 -0.00209478 0
M  V30 3 C -3.39969 0.0514375 0.272954 0
M  V30 4 S -4.51991 -1.33901 -0.0535286 0
M  V30 5 C -6.17432 -0.78551 0.299174 0
M  V30 6 N -6.88713 -0.221546 -0.687996 0
M  V30 7 C -8.14166 0.222309 -0.504942 0
M  V30 8 N -8.89079 0.813577 -1.53724 0
M  V30 9 N -8.71381 0.102321 0.706987 0
M  V30 10 C -8.0283 -0.455603 1.71079 0
M  V30 11 N -6.77714 -0.889305 1.49686 0
M  V30 12 N -8.63422 -0.577627 2.97655 0
M  V30 13 C -3.53311 0.504277 1.70749 0
M  V30 14 N -0.983268 0.621277 0.198815 0
M  V30 15 C 0.401973 0.413482 -0.021389 0
M  V30 16 C 0.970195 -0.607803 -0.729359 0
M  V30 17 C 2.35491 -0.757827 -0.887753 0
M  V30 18 C 3.20705 0.133597 -0.326905 0
M  V30 19 C 2.65234 1.17144 0.390836 0
M  V30 20 C 1.30292 1.33029 0.554027 0
M  V30 21 O 4.5862 0.0757813 -0.423329 0
M  V30 22 C 5.28539 -0.923559 -1.12131 0
M  V30 23 C 6.73653 -0.632529 -0.987142 0
M  V30 24 C 7.49827 -1.13318 0.0482777 0
M  V30 25 C 8.84527 -0.863437 0.173319 0
M  V30 26 C 9.47818 -0.0755036 -0.744453 0
M  V30 27 C 8.7521 0.439932 -1.78786 0
M  V30 28 C 7.40188 0.162233 -1.90241 0
M  V30 29 H -3.62169 0.896104 -0.411563 0
M  V30 30 H -8.55999 1.72798 -1.92903 0
M  V30 31 H -9.7391 0.333551 -1.87725 0
M  V30 32 H -8.82439 -1.48836 3.42603 0
M  V30 33 H -8.90378 0.290058 3.4845 0
M  V30 34 H -2.64131 0.176054 2.28052 0
M  V30 35 H -3.51917 1.61331 1.72432 0
M  V30 36 H -4.47414 0.146129 2.17362 0
M  V30 37 H -1.30285 1.59329 0.544311 0
M  V30 38 H 0.345888 -1.3402 -1.21028 0
M  V30 39 H 2.7594 -1.57645 -1.45249 0
M  V30 40 H 3.3268 1.90123 0.850658 0
M  V30 41 H 0.869738 2.15112 1.1222 0
M  V30 42 H 5.04382 -0.873424 -2.20975 0
M  V30 43 H 5.02139 -1.94551 -0.791003 0
M  V30 44 H 7.0555 -1.7632 0.806704 0
M  V30 45 H 9.41756 -1.27074 0.997333 0
M  V30 46 H 10.5429 0.158085 -0.675718 0
M  V30 47 H 9.24874 1.07294 -2.52974 0
M  V30 48 H 6.88775 0.600575 -2.74965 0
M  V30 END ATOM
M  V30 BEGIN BOND
M  V30 1 2 1 2
M  V30 2 1 2 3
M  V30 3 1 3 4
M  V30 4 1 4 5
M  V30 5 2 5 6
M  V30 6 1 6 7
M  V30 7 1 7 8
M  V30 8 2 7 9
M  V30 9 1 9 10
M  V30 10 2 10 11
M  V30 11 1 10 12
M  V30 12 1 3 13
M  V30 13 1 2 14
M  V30 14 1 14 15
M  V30 15 2 15 16
M  V30 16 1 16 17
M  V30 17 2 17 18
M  V30 18 1 18 19
M  V30 19 2 19 20
M  V30 20 1 18 21
M  V30 21 1 21 22
M  V30 22 1 22 23
M  V30 23 2 23 24
M  V30 24 1 24 25
M  V30 25 2 25 26
M  V30 26 1 26 27
M  V30 27 2 27 28
M  V30 28 1 11 5
M  V30 29 1 20 15
M  V30 30 1 28 23
M  V30 31 1 3 29
M  V30 32 1 8 30
M  V30 33 1 8 31
M  V30 34 1 12 32
M  V30 35 1 12 33
M  V30 36 1 13 34
M  V30 37 1 13 35
M  V30 38 1 13 36
M  V30 39 1 14 37
M  V30 40 1 16 38
M  V30 41 1 17 39
M  V30 42 1 19 40
M  V30 43 1 20 41
M  V30 44 1 22 42
M  V30 45 1 22 43
M  V30 46 1 24 44
M  V30 47 1 25 45
M  V30 48 1 26 46
M  V30 49 1 27 47
M  V30 50 1 28 48
M  V30 END BOND
M  V30 END CTAB
M  END
