
     RDKit          3D

  0  0  0  0  0  0  0  0  0  0999 V3000
M  V30 BEGIN CTAB
M  V30 COUNTS 21 21 0 0 0
M  V30 BEGIN ATOM
M  V30 1 N 2.58256 -1.03586 0.120448 0
M  V30 2 C 1.1461 -0.834697 0.343007 0
M  V30 3 C 0.707644 0.504773 -0.129671 0
M  V30 4 C -0.711307 0.833402 0.0371491 0
M  V30 5 C -1.24506 2.12045 -0.12883 0
M  V30 6 Br -0.181133 3.64531 -0.583069 0
M  V30 7 N -2.55989 2.05675 0.0832303 0
M  V30 8 N -2.83485 0.827371 0.361846 0
M  V30 9 N -1.74486 0.0479775 0.345085 0
M  V30 10 C -1.80888 -1.36246 0.616405 0
M  V30 11 N 1.12883 0.742818 -1.52161 0
M  V30 12 H 3.04626 -1.53552 0.915906 0
M  V30 13 H 3.06452 -0.141137 -0.135224 0
M  V30 14 H 1.00282 -1.0232 1.40852 0
M  V30 15 H 0.662326 -1.61197 -0.27796 0
M  V30 16 H 1.31163 1.26009 0.46145 0
M  V30 17 H -1.20879 -1.71978 1.45948 0
M  V30 18 H -1.65955 -1.99996 -0.286107 0
M  V30 19 H -2.87149 -1.62389 0.912293 0
M  V30 20 H 1.85328 0.0575999 -1.82803 0
M  V30 21 H 0.31985 0.791923 -2.17431 0
M  V30 END ATOM
M  V30 BEGIN BOND
M  V30 1 1 1 2
M  V30 2 1 2 3
M  V30 3 1 3 4
M  V30 4 2 4 5
M  V30 5 1 5 6
M  V30 6 1 5 7
M  V30 7 2 7 8
M  V30 8 1 8 9
M  V30 9 1 9 10
M  V30 10 1 3 11
M  V30 11 1 9 4
M  V30 12 1 1 12
M  V30 13 1 1 13
M  V30 14 1 2 14
M  V30 15 1 2 15
M  V30 16 1 3 16
M  V30 17 1 10 17
M  V30 18 1 10 18
M  V30 19 1 10 19
M  V30 20 1 11 20
M  V30 21 1 11 21
M  V30 END BOND
M  V30 END CTAB
M  END
