
     RDKit          3D

  0  0  0  0  0  0  0  0  0  0999 V3000
M  V30 BEGIN CTAB
M  V30 COUNTS 67 68 0 0 0
M  V30 BEGIN ATOM
M  V30 1 C 6.77986 2.52203 -0.420897 0
M  V30 2 C 6.75376 1.40593 -1.38912 0
M  V30 3 C 5.90454 0.231931 -1.13762 0
M  V30 4 C 6.1603 -0.581636 0.0602945 0
M  V30 5 C 5.95447 -0.0757219 1.40969 0
M  V30 6 C 4.65461 0.381273 1.90218 0
M  V30 7 C 3.48013 -0.50646 1.99742 0
M  V30 8 C 2.96409 -1.02702 0.727215 0
M  V30 9 C 1.7276 -1.90965 0.908448 0
M  V30 10 C 0.598544 -1.18894 1.54405 0
M  V30 11 C -0.590372 -2.07378 1.70149 0
M  V30 12 C -1.13344 -2.52494 0.396219 0
M  V30 13 C -1.63356 -1.47228 -0.494627 0
M  V30 14 C -0.913181 -0.847409 -1.47083 0
M  V30 15 C -1.48587 0.158019 -2.26347 0
M  V30 16 C -2.79227 0.554919 -2.09146 0
M  V30 17 C -3.5419 -0.0725699 -1.0999 0
M  V30 18 C -2.96093 -1.0582 -0.331416 0
M  V30 19 N -4.89227 0.286192 -0.868726 0
M  V30 20 C -5.90906 -0.395196 -1.57487 0
M  V30 21 N -5.62974 -1.42889 -2.51005 0
M  V30 22 N -7.15288 -0.0654571 -1.36282 0
M  V30 23 C -7.50945 0.956396 -0.44438 0
M  V30 24 N -8.90475 1.26684 -0.261533 0
M  V30 25 N -6.59625 1.57039 0.191692 0
M  V30 26 C -5.18874 1.33096 0.075379 0
M  V30 27 C -4.56492 1.00504 1.43789 0
M  V30 28 C -4.47356 2.59428 -0.394479 0
M  V30 29 H 6.93721 3.51926 -0.959057 0
M  V30 30 H 5.82239 2.60932 0.107376 0
M  V30 31 H 7.58669 2.45071 0.362071 0
M  V30 32 H 7.82595 1.0811 -1.55297 0
M  V30 33 H 6.39823 1.86522 -2.37551 0
M  V30 34 H 4.82409 0.576728 -1.20427 0
M  V30 35 H 5.95593 -0.490222 -2.02433 0
M  V30 36 H 5.85205 -1.6589 -0.0368253 0
M  V30 37 H 7.33788 -0.752585 0.0101319 0
M  V30 38 H 6.7666 0.707999 1.61091 0
M  V30 39 H 6.36488 -0.92514 2.10524 0
M  V30 40 H 4.86002 0.845201 2.94427 0
M  V30 41 H 4.36381 1.29691 1.29902 0
M  V30 42 H 3.63704 -1.34985 2.73603 0
M  V30 43 H 2.6462 0.147973 2.43915 0
M  V30 44 H 2.66705 -0.169322 0.0540952 0
M  V30 45 H 3.70442 -1.59554 0.160373 0
M  V30 46 H 1.45457 -2.315 -0.0701322 0
M  V30 47 H 2.08537 -2.7838 1.5172 0
M  V30 48 H 0.836444 -0.772991 2.54605 0
M  V30 49 H 0.304734 -0.284529 0.935217 0
M  V30 50 H -1.36575 -1.64503 2.37777 0
M  V30 51 H -0.210758 -3.00892 2.22092 0
M  V30 52 H -2.00516 -3.22493 0.566407 0
M  V30 53 H -0.376835 -3.11194 -0.179375 0
M  V30 54 H 0.115261 -1.14472 -1.63225 0
M  V30 55 H -0.871821 0.62262 -3.02413 0
M  V30 56 H -3.26341 1.32288 -2.68174 0
M  V30 57 H -3.55391 -1.55037 0.448459 0
M  V30 58 H -5.76428 -1.34448 -3.5406 0
M  V30 59 H -5.26464 -2.34076 -2.15918 0
M  V30 60 H -9.55578 0.45793 -0.2268 0
M  V30 61 H -9.16403 2.25257 -0.17834 0
M  V30 62 H -3.47794 1.19271 1.34058 0
M  V30 63 H -4.81985 -0.00498572 1.77765 0
M  V30 64 H -4.95281 1.79447 2.12562 0
M  V30 65 H -4.68092 2.82967 -1.44358 0
M  V30 66 H -4.7466 3.40989 0.299449 0
M  V30 67 H -3.3771 2.45478 -0.294076 0
M  V30 END ATOM
M  V30 BEGIN BOND
M  V30 1 1 1 2
M  V30 2 1 2 3
M  V30 3 1 3 4
M  V30 4 1 4 5
M  V30 5 1 5 6
M  V30 6 1 6 7
M  V30 7 1 7 8
M  V30 8 1 8 9
M  V30 9 1 9 10
M  V30 10 1 10 11
M  V30 11 1 11 12
M  V30 12 1 12 13
M  V30 13 2 13 14
M  V30 14 1 14 15
M  V30 15 2 15 16
M  V30 16 1 16 17
M  V30 17 2 17 18
M  V30 18 1 17 19
M  V30 19 1 19 20
M  V30 20 1 20 21
M  V30 21 2 20 22
M  V30 22 1 22 23
M  V30 23 1 23 24
M  V30 24 2 23 25
M  V30 25 1 25 26
M  V30 26 1 26 27
M  V30 27 1 26 28
M  V30 28 1 18 13
M  V30 29 1 26 19
M  V30 30 1 1 29
M  V30 31 1 1 30
M  V30 32 1 1 31
M  V30 33 1 2 32
M  V30 34 1 2 33
M  V30 35 1 3 34
M  V30 36 1 3 35
M  V30 37 1 4 36
M  V30 38 1 4 37
M  V30 39 1 5 38
M  V30 40 1 5 39
M  V30 41 1 6 40
M  V30 42 1 6 41
M  V30 43 1 7 42
M  V30 44 1 7 43
M  V30 45 1 8 44
M  V30 46 1 8 45
M  V30 47 1 9 46
M  V30 48 1 9 47
M  V30 49 1 10 48
M  V30 50 1 10 49
M  V30 51 1 11 50
M  V30 52 1 11 51
M  V30 53 1 12 52
M  V30 54 1 12 53
M  V30 55 1 14 54
M  V30 56 1 15 55
M  V30 57 1 16 56
M  V30 58 1 18 57
M  V30 59 1 21 58
M  V30 60 1 21 59
M  V30 61 1 24 60
M  V30 62 1 24 61
M  V30 63 1 27 62
M  V30 64 1 27 63
M  V30 65 1 27 64
M  V30 66 1 28 65
M  V30 67 1 28 66
M  V30 68 1 28 67
M  V30 END BOND
M  V30 END CTAB
M  END
