
     RDKit          3D

  0  0  0  0  0  0  0  0  0  0999 V3000
M  V30 BEGIN CTAB
M  V30 COUNTS 22 23 0 0 0
M  V30 BEGIN ATOM
M  V30 1 O 2.99349 -1.96642 -1.32883 0 CHG=-1
M  V30 2 N 2.76408 -1.3258 -0.145789 0 CHG=1
M  V30 3 O 3.42864 -1.64694 0.841522 0
M  V30 4 C 1.78315 -0.314286 -0.0719673 0
M  V30 5 C 1.99885 1.03749 0.0122885 0
M  V30 6 N 3.23316 1.72538 0.0478887 0
M  V30 7 N 0.793747 1.62592 0.061502 0
M  V30 8 N -0.159901 0.692346 0.0110671 0
M  V30 9 C 0.4033 -0.528634 -0.0721239 0
M  V30 10 N -0.360746 -1.63811 -0.133028 0
M  V30 11 C -1.69695 -1.5428 -0.110946 0
M  V30 12 O -2.43197 -2.54626 -0.164508 0
M  V30 13 C -2.27301 -0.294547 -0.0256321 0
M  V30 14 C -1.49357 0.843464 0.0361422 0
M  V30 15 O -2.07519 2.0939 0.119354 0
M  V30 16 N -3.67267 -0.118531 0.00214201 0
M  V30 17 H 3.69271 1.88304 -0.889221 0
M  V30 18 H 3.66339 2.05821 0.957638 0
M  V30 19 H 0.12329 -2.56249 -0.196205 0
M  V30 20 H -2.35446 2.63874 -0.705844 0
M  V30 21 H -4.162 0.256744 -0.820192 0
M  V30 22 H -4.19733 -0.370413 0.846974 0
M  V30 END ATOM
M  V30 BEGIN BOND
M  V30 1 1 1 2
M  V30 2 2 2 3
M  V30 3 1 2 4
M  V30 4 1 4 5
M  V30 5 1 5 6
M  V30 6 2 5 7
M  V30 7 1 7 8
M  V30 8 1 8 9
M  V30 9 1 9 10
M  V30 10 1 10 11
M  V30 11 2 11 12
M  V30 12 1 11 13
M  V30 13 2 13 14
M  V30 14 1 14 15
M  V30 15 1 13 16
M  V30 16 2 9 4
M  V30 17 1 14 8
M  V30 18 1 6 17
M  V30 19 1 6 18
M  V30 20 1 10 19
M  V30 21 1 15 20
M  V30 22 1 16 21
M  V30 23 1 16 22
M  V30 END BOND
M  V30 END CTAB
M  END
