
     RDKit          3D

  0  0  0  0  0  0  0  0  0  0999 V3000
M  V30 BEGIN CTAB
M  V30 COUNTS 40 42 0 0 0
M  V30 BEGIN ATOM
M  V30 1 C 0.60444 -3.58775 0.637071 0
M  V30 2 C -0.494539 -2.64585 0.316353 0
M  V30 3 N -1.74944 -2.89789 -0.0371651 0
M  V30 4 C -2.40163 -1.7299 -0.239474 0
M  V30 5 C -3.69252 -1.45691 -0.607553 0
M  V30 6 N -4.61387 -2.53139 -0.853805 0
M  V30 7 N -4.0899 -0.187654 -0.736243 0
M  V30 8 C -3.23939 0.826018 -0.509594 0
M  V30 9 C -3.68207 2.1368 -0.654166 0
M  V30 10 C -2.8387 3.17708 -0.432646 0
M  V30 11 C -1.53426 2.95974 -0.0624507 0
M  V30 12 C -1.05581 1.65123 0.0922244 0
M  V30 13 C -1.93027 0.628098 -0.137551 0
M  V30 14 C -1.50227 -0.694083 0.00133363 0
M  V30 15 N -0.345192 -1.26691 0.339523 0
M  V30 16 C 0.911593 -0.681154 0.703803 0
M  V30 17 C 1.84564 -0.479997 -0.469573 0
M  V30 18 O 3.05034 0.0536947 -0.140784 0
M  V30 19 C 3.06046 1.29561 0.433943 0
M  V30 20 C 4.52998 1.65958 0.68107 0
M  V30 21 N 5.16923 1.64871 -0.629702 0
M  V30 22 H 0.161626 -4.60181 0.677368 0
M  V30 23 H 1.03537 -3.41729 1.65067 0
M  V30 24 H 1.38367 -3.61521 -0.157301 0
M  V30 25 H -4.87894 -2.73759 -1.81548 0
M  V30 26 H -4.97418 -3.05463 -0.0579249 0
M  V30 27 H -4.71842 2.28292 -0.948079 0
M  V30 28 H -3.2082 4.19462 -0.551545 0
M  V30 29 H -0.909192 3.82065 0.100116 0
M  V30 30 H -0.0460585 1.59692 0.368851 0
M  V30 31 H 1.47796 -1.44815 1.38974 0
M  V30 32 H 0.905179 0.187238 1.35597 0
M  V30 33 H 1.38563 0.189076 -1.24154 0
M  V30 34 H 1.99495 -1.44774 -1.02111 0
M  V30 35 H 2.50606 1.36039 1.37877 0
M  V30 36 H 2.65838 2.01765 -0.328415 0
M  V30 37 H 4.95285 0.867022 1.33273 0
M  V30 38 H 4.61316 2.63514 1.18229 0
M  V30 39 H 4.81791 2.51687 -1.1208 0
M  V30 40 H 4.8404 0.776839 -1.10289 0
M  V30 END ATOM
M  V30 BEGIN BOND
M  V30 1 1 1 2
M  V30 2 2 2 3
M  V30 3 1 3 4
M  V30 4 2 4 5
M  V30 5 1 5 6
M  V30 6 1 5 7
M  V30 7 2 7 8
M  V30 8 1 8 9
M  V30 9 2 9 10
M  V30 10 1 10 11
M  V30 11 2 11 12
M  V30 12 1 12 13
M  V30 13 2 13 14
M  V30 14 1 14 15
M  V30 15 1 15 16
M  V30 16 1 16 17
M  V30 17 1 17 18
M  V30 18 1 18 19
M  V30 19 1 19 20
M  V30 20 1 20 21
M  V30 21 1 15 2
M  V30 22 1 14 4
M  V30 23 1 13 8
M  V30 24 1 1 22
M  V30 25 1 1 23
M  V30 26 1 1 24
M  V30 27 1 6 25
M  V30 28 1 6 26
M  V30 29 1 9 27
M  V30 30 1 10 28
M  V30 31 1 11 29
M  V30 32 1 12 30
M  V30 33 1 16 31
M  V30 34 1 16 32
M  V30 35 1 17 33
M  V30 36 1 17 34
M  V30 37 1 19 35
M  V30 38 1 19 36
M  V30 39 1 20 37
M  V30 40 1 20 38
M  V30 41 1 21 39
M  V30 42 1 21 40
M  V30 END BOND
M  V30 END CTAB
M  END
