
     RDKit          3D

  0  0  0  0  0  0  0  0  0  0999 V3000
M  V30 BEGIN CTAB
M  V30 COUNTS 35 35 0 0 0
M  V30 BEGIN ATOM
M  V30 1 C 4.64415 -0.630068 -1.34132 0
M  V30 2 O 4.82349 -0.138147 -0.0705282 0
M  V30 3 C 3.93078 -0.624234 0.853111 0
M  V30 4 C 2.51862 -0.296009 0.520693 0
M  V30 5 C 1.49246 -1.18711 0.753053 0
M  V30 6 C 0.170316 -0.863621 0.440923 0
M  V30 7 C -0.0723602 0.376266 -0.10705 0
M  V30 8 C 0.957667 1.25824 -0.335032 0
M  V30 9 C 2.2662 0.959146 -0.0347975 0
M  V30 10 C -1.4765 0.764546 -0.462598 0
M  V30 11 C -2.29689 0.70762 0.765318 0
M  V30 12 C -3.73787 1.07523 0.635135 0
M  V30 13 N -4.49147 0.228311 -0.226778 0
M  V30 14 C -1.95169 0.0645432 -1.67985 0
M  V30 15 N -2.00992 -1.34391 -1.66532 0
M  V30 16 H 4.74861 -1.74563 -1.37397 0
M  V30 17 H 5.47467 -0.239832 -1.99651 0
M  V30 18 H 3.71576 -0.340417 -1.84616 0
M  V30 19 H 4.07005 -1.72855 0.94957 0
M  V30 20 H 4.12795 -0.204934 1.86086 0
M  V30 21 H 1.69148 -2.16518 1.18623 0
M  V30 22 H -0.605483 -1.59813 0.64483 0
M  V30 23 H 0.787651 2.25374 -0.771546 0
M  V30 24 H 3.06878 1.66045 -0.21829 0
M  V30 25 H -1.42027 1.85687 -0.761256 0
M  V30 26 H -1.85012 1.48314 1.47502 0
M  V30 27 H -2.15997 -0.260417 1.32591 0
M  V30 28 H -4.251 1.08287 1.64657 0
M  V30 29 H -3.7967 2.16301 0.32374 0
M  V30 30 H -5.04954 -0.460239 0.325434 0
M  V30 31 H -5.07402 0.746503 -0.921128 0
M  V30 32 H -1.17938 0.324144 -2.48394 0
M  V30 33 H -2.88218 0.508062 -2.04266 0
M  V30 34 H -2.40967 -1.83425 -0.879756 0
M  V30 35 H -1.77361 -1.85201 -2.51787 0
M  V30 END ATOM
M  V30 BEGIN BOND
M  V30 1 1 1 2
M  V30 2 1 2 3
M  V30 3 1 3 4
M  V30 4 2 4 5
M  V30 5 1 5 6
M  V30 6 2 6 7
M  V30 7 1 7 8
M  V30 8 2 8 9
M  V30 9 1 7 10
M  V30 10 1 10 11
M  V30 11 1 11 12
M  V30 12 1 12 13
M  V30 13 1 10 14
M  V30 14 1 14 15
M  V30 15 1 9 4
M  V30 16 1 1 16
M  V30 17 1 1 17
M  V30 18 1 1 18
M  V30 19 1 3 19
M  V30 20 1 3 20
M  V30 21 1 5 21
M  V30 22 1 6 22
M  V30 23 1 8 23
M  V30 24 1 9 24
M  V30 25 1 10 25
M  V30 26 1 11 26
M  V30 27 1 11 27
M  V30 28 1 12 28
M  V30 29 1 12 29
M  V30 30 1 13 30
M  V30 31 1 13 31
M  V30 32 1 14 32
M  V30 33 1 14 33
M  V30 34 1 15 34
M  V30 35 1 15 35
M  V30 END BOND
M  V30 END CTAB
M  END
