
     RDKit          3D

  0  0  0  0  0  0  0  0  0  0999 V3000
M  V30 BEGIN CTAB
M  V30 COUNTS 26 26 0 0 0
M  V30 BEGIN ATOM
M  V30 1 C -4.01265 -0.554364 0.988038 0
M  V30 2 C -3.24027 -0.310961 -0.311795 0
M  V30 3 C -1.77799 -0.292139 0.057782 0
M  V30 4 S -0.699178 -0.0161354 -1.34803 0
M  V30 5 C 0.985769 -0.0169627 -0.777622 0
M  V30 6 C 1.7439 -1.16034 -0.719845 0
M  V30 7 C 3.05174 -1.16748 -0.278193 0
M  V30 8 C 3.6402 0.0137691 0.126631 0
M  V30 9 C 2.90257 1.16702 0.0775119 0
M  V30 10 C 1.59597 1.15767 -0.366585 0
M  V30 11 Cl 0.731526 2.6671 -0.396641 0
M  V30 12 N 4.99317 0.0517568 0.591418 0
M  V30 13 N -3.63868 1.02403 -0.751045 0
M  V30 14 H -5.09601 -0.457255 0.832872 0
M  V30 15 H -3.7046 0.288676 1.66194 0
M  V30 16 H -3.73117 -1.52551 1.44635 0
M  V30 17 H -3.49536 -1.07183 -1.04762 0
M  V30 18 H -1.62079 0.514877 0.803307 0
M  V30 19 H -1.48733 -1.23756 0.550352 0
M  V30 20 H 1.29057 -2.08746 -1.03468 0
M  V30 21 H 3.64966 -2.07246 -0.233187 0
M  V30 22 H 3.377 2.09236 0.399199 0
M  V30 23 H 5.81443 -0.105746 -0.0354301 0
M  V30 24 H 5.11485 0.249295 1.61046 0
M  V30 25 H -3.12268 1.70662 -0.130896 0
M  V30 26 H -3.26466 1.14302 -1.71428 0
M  V30 END ATOM
M  V30 BEGIN BOND
M  V30 1 1 1 2
M  V30 2 1 2 3
M  V30 3 1 3 4
M  V30 4 1 4 5
M  V30 5 2 5 6
M  V30 6 1 6 7
M  V30 7 2 7 8
M  V30 8 1 8 9
M  V30 9 2 9 10
M  V30 10 1 10 11
M  V30 11 1 8 12
M  V30 12 1 2 13
M  V30 13 1 10 5
M  V30 14 1 1 14
M  V30 15 1 1 15
M  V30 16 1 1 16
M  V30 17 1 2 17
M  V30 18 1 3 18
M  V30 19 1 3 19
M  V30 20 1 6 20
M  V30 21 1 7 21
M  V30 22 1 9 22
M  V30 23 1 12 23
M  V30 24 1 12 24
M  V30 25 1 13 25
M  V30 26 1 13 26
M  V30 END BOND
M  V30 END CTAB
M  END
