
     RDKit          3D

  0  0  0  0  0  0  0  0  0  0999 V3000
M  V30 BEGIN CTAB
M  V30 COUNTS 26 27 0 0 0
M  V30 BEGIN ATOM
M  V30 1 N -3.67315 -1.15801 0.474627 0
M  V30 2 N -4.12692 0.00953813 -0.141533 0
M  V30 3 C -5.36534 0.297259 -0.519786 0
M  V30 4 N -5.36564 1.52032 -1.06984 0
M  V30 5 N -4.14514 1.96892 -1.0263 0
M  V30 6 C -3.35227 1.04575 -0.451808 0
M  V30 7 S -1.60956 1.27898 -0.206338 0
M  V30 8 C -0.85207 -0.153206 0.589868 0
M  V30 9 C 0.615302 0.118501 0.761845 0
M  V30 10 S 1.45882 0.410096 -0.815343 0
M  V30 11 C 3.18119 0.715492 -0.455478 0
M  V30 12 N 3.68171 1.93442 -0.210678 0
M  V30 13 N 4.96939 1.82524 0.0164184 0
M  V30 14 C 5.34628 0.537353 -0.0729413 0
M  V30 15 N 4.21226 -0.140315 -0.368972 0
M  V30 16 N 4.08809 -1.52496 -0.564129 0
M  V30 17 H -3.59063 -1.16859 1.51752 0
M  V30 18 H -3.41265 -2.0148 -0.0321205 0
M  V30 19 H -6.2051 -0.387145 -0.380899 0
M  V30 20 H -1.27483 -0.38549 1.56792 0
M  V30 21 H -0.958421 -1.05049 -0.0555859 0
M  V30 22 H 0.789119 1.01698 1.39254 0
M  V30 23 H 1.13509 -0.718147 1.28731 0
M  V30 24 H 6.33152 0.0936855 0.056231 0
M  V30 25 H 3.26236 -2.04847 -0.226167 0
M  V30 26 H 4.86058 -2.02292 -1.06636 0
M  V30 END ATOM
M  V30 BEGIN BOND
M  V30 1 1 1 2
M  V30 2 1 2 3
M  V30 3 2 3 4
M  V30 4 1 4 5
M  V30 5 2 5 6
M  V30 6 1 6 7
M  V30 7 1 7 8
M  V30 8 1 8 9
M  V30 9 1 9 10
M  V30 10 1 10 11
M  V30 11 2 11 12
M  V30 12 1 12 13
M  V30 13 2 13 14
M  V30 14 1 14 15
M  V30 15 1 15 16
M  V30 16 1 6 2
M  V30 17 1 15 11
M  V30 18 1 1 17
M  V30 19 1 1 18
M  V30 20 1 3 19
M  V30 21 1 8 20
M  V30 22 1 8 21
M  V30 23 1 9 22
M  V30 24 1 9 23
M  V30 25 1 14 24
M  V30 26 1 16 25
M  V30 27 1 16 26
M  V30 END BOND
M  V30 END CTAB
M  END
