
     RDKit          3D

  0  0  0  0  0  0  0  0  0  0999 V3000
M  V30 BEGIN CTAB
M  V30 COUNTS 54 56 0 0 0
M  V30 BEGIN ATOM
M  V30 1 C 3.00623 -0.149145 2.55301 0
M  V30 2 C 3.6336 0.317168 1.24647 0
M  V30 3 C 3.1097 1.69233 0.857891 0
M  V30 4 N 5.05189 0.468965 1.48888 0
M  V30 5 C 5.987 -0.150722 0.886387 0
M  V30 6 N 7.31633 0.132645 1.26301 0
M  V30 7 N 5.69676 -1.1029 -0.13861 0
M  V30 8 C 4.47066 -1.3309 -0.450467 0
M  V30 9 N 4.23449 -2.29279 -1.48267 0
M  V30 10 N 3.37874 -0.658187 0.199401 0
M  V30 11 C 2.08072 -0.998017 -0.23431 0
M  V30 12 C 1.48113 -0.306052 -1.26372 0
M  V30 13 C 0.218131 -0.603063 -1.71851 0
M  V30 14 C -0.349642 0.18982 -2.83282 0
M  V30 15 C -1.10609 1.40813 -2.37597 0
M  V30 16 C -2.25053 1.13302 -1.50487 0
M  V30 17 C -3.52486 0.901474 -1.95087 0
M  V30 18 C -4.5991 0.64461 -1.09561 0
M  V30 19 C -4.40658 0.616269 0.251609 0
M  V30 20 N -5.40333 0.395101 1.22561 0
M  V30 21 C -6.77433 0.591598 0.995874 0
M  V30 22 O -7.2379 0.988063 -0.0902789 0
M  V30 23 C -7.74178 0.309874 2.11833 0
M  V30 24 Br -9.54501 0.664656 1.52288 0
M  V30 25 C -3.11739 0.848569 0.73354 0
M  V30 26 C -2.07962 1.09839 -0.133921 0
M  V30 27 C -0.502948 -1.62218 -1.14847 0
M  V30 28 C 0.0697161 -2.33238 -0.117121 0
M  V30 29 C 1.33475 -2.02329 0.32707 0
M  V30 30 H 1.95148 -0.44049 2.42192 0
M  V30 31 H 3.17104 0.612095 3.32443 0
M  V30 32 H 3.56305 -1.08907 2.82774 0
M  V30 33 H 3.32196 1.84065 -0.23111 0
M  V30 34 H 3.68608 2.49753 1.37371 0
M  V30 35 H 2.03189 1.80067 1.01699 0
M  V30 36 H 7.87636 0.79297 0.706353 0
M  V30 37 H 7.72307 -0.3209 2.09264 0
M  V30 38 H 3.5379 -2.15682 -2.23791 0
M  V30 39 H 4.77464 -3.19188 -1.50812 0
M  V30 40 H 2.01827 0.51054 -1.7445 0
M  V30 41 H 0.488087 0.574362 -3.48301 0
M  V30 42 H -0.932067 -0.482141 -3.45914 0
M  V30 43 H -0.408809 2.08509 -1.81552 0
M  V30 44 H -1.44375 1.99354 -3.2476 0
M  V30 45 H -3.73743 0.911565 -2.9978 0
M  V30 46 H -5.56953 0.455268 -1.5219 0
M  V30 47 H -5.10499 0.0486658 2.21115 0
M  V30 48 H -7.51142 0.953655 2.96766 0
M  V30 49 H -7.64133 -0.764149 2.42108 0
M  V30 50 H -2.954 0.828549 1.79283 0
M  V30 51 H -1.07389 1.27891 0.255631 0
M  V30 52 H -1.52026 -1.87298 -1.50349 0
M  V30 53 H -0.485934 -3.13222 0.336345 0
M  V30 54 H 1.80883 -2.56448 1.13522 0
M  V30 END ATOM
M  V30 BEGIN BOND
M  V30 1 1 1 2
M  V30 2 1 2 3
M  V30 3 1 2 4
M  V30 4 2 4 5
M  V30 5 1 5 6
M  V30 6 1 5 7
M  V30 7 2 7 8
M  V30 8 1 8 9
M  V30 9 1 8 10
M  V30 10 1 10 11
M  V30 11 2 11 12
M  V30 12 1 12 13
M  V30 13 1 13 14
M  V30 14 1 14 15
M  V30 15 1 15 16
M  V30 16 2 16 17
M  V30 17 1 17 18
M  V30 18 2 18 19
M  V30 19 1 19 20
M  V30 20 1 20 21
M  V30 21 2 21 22
M  V30 22 1 21 23
M  V30 23 1 23 24
M  V30 24 1 19 25
M  V30 25 2 25 26
M  V30 26 2 13 27
M  V30 27 1 27 28
M  V30 28 2 28 29
M  V30 29 1 10 2
M  V30 30 1 29 11
M  V30 31 1 26 16
M  V30 32 1 1 30
M  V30 33 1 1 31
M  V30 34 1 1 32
M  V30 35 1 3 33
M  V30 36 1 3 34
M  V30 37 1 3 35
M  V30 38 1 6 36
M  V30 39 1 6 37
M  V30 40 1 9 38
M  V30 41 1 9 39
M  V30 42 1 12 40
M  V30 43 1 14 41
M  V30 44 1 14 42
M  V30 45 1 15 43
M  V30 46 1 15 44
M  V30 47 1 17 45
M  V30 48 1 18 46
M  V30 49 1 20 47
M  V30 50 1 23 48
M  V30 51 1 23 49
M  V30 52 1 25 50
M  V30 53 1 26 51
M  V30 54 1 27 52
M  V30 55 1 28 53
M  V30 56 1 29 54
M  V30 END BOND
M  V30 END CTAB
M  END
