
     RDKit          3D

  0  0  0  0  0  0  0  0  0  0999 V3000
M  V30 BEGIN CTAB
M  V30 COUNTS 50 52 0 0 0
M  V30 BEGIN ATOM
M  V30 1 N 6.44487 3.0061 1.26126 0
M  V30 2 C 6.05639 2.40298 0.0355596 0
M  V30 3 N 6.72327 2.66639 -1.03942 0
M  V30 4 C 4.91769 1.49131 -0.0280636 0
M  V30 5 C 4.51632 0.89091 -1.18642 0
M  V30 6 C 3.4224 0.0285574 -1.19632 0
M  V30 7 C 2.69859 -0.261952 -0.0694355 0
M  V30 8 N 1.55506 -1.10982 -0.0127249 0
M  V30 9 C 0.703873 -1.47084 -1.06263 0
M  V30 10 O 0.956884 -0.963493 -2.21202 0
M  V30 11 C -0.456006 -2.36265 -1.00407 0
M  V30 12 C -0.204199 -3.81752 -1.19008 0
M  V30 13 C 0.652013 -4.54572 -0.284174 0
M  V30 14 O 0.904397 -5.94106 -0.540828 0
M  V30 15 O 1.24431 -4.15788 0.73802 0
M  V30 16 C -1.45956 -2.04604 0.051669 0
M  V30 17 C -2.29937 -0.965802 -0.543868 0
M  V30 18 N -2.11298 -1.01858 -1.81174 0
M  V30 19 O -1.2497 -1.99614 -2.19761 0
M  V30 20 C -3.16721 -0.0286445 0.189594 0
M  V30 21 C -3.29682 -0.0656834 1.55449 0
M  V30 22 C -4.10449 0.805677 2.24951 0
M  V30 23 C -4.81579 1.75881 1.54501 0
M  V30 24 C -4.7158 1.82985 0.192464 0
M  V30 25 C -3.88105 0.923891 -0.488059 0
M  V30 26 C -5.42612 2.79894 -0.630444 0
M  V30 27 N -5.26442 2.81184 -2.0602 0
M  V30 28 N -6.20629 3.65695 -0.0991531 0
M  V30 29 C 3.12128 0.362559 1.12191 0
M  V30 30 C 4.19519 1.20317 1.11029 0
M  V30 31 H 5.69546 3.35284 1.8956 0
M  V30 32 H 7.44574 3.10892 1.53739 0
M  V30 33 H 7.53558 3.3085 -1.02519 0
M  V30 34 H 5.06072 1.0954 -2.09526 0
M  V30 35 H 3.14416 -0.447698 -2.1402 0
M  V30 36 H 1.29266 -1.49214 0.946452 0
M  V30 37 H -1.23293 -4.3082 -1.13399 0
M  V30 38 H 0.0627587 -3.98573 -2.27707 0
M  V30 39 H 0.550126 -6.54692 0.190471 0
M  V30 40 H -2.13285 -2.88082 0.288611 0
M  V30 41 H -0.977445 -1.63823 0.977098 0
M  V30 42 H -2.7267 -0.825251 2.09065 0
M  V30 43 H -4.19332 0.759832 3.32984 0
M  V30 44 H -5.45426 2.44879 2.08164 0
M  V30 45 H -3.80834 0.986831 -1.55128 0
M  V30 46 H -5.82069 2.19262 -2.66367 0
M  V30 47 H -4.57631 3.45487 -2.49066 0
M  V30 48 H -6.37324 3.7134 0.89907 0
M  V30 49 H 2.55057 0.137447 2.02762 0
M  V30 50 H 4.5056 1.67943 2.05833 0
M  V30 END ATOM
M  V30 BEGIN BOND
M  V30 1 1 1 2
M  V30 2 2 2 3 CFG=2
M  V30 3 1 2 4
M  V30 4 2 4 5
M  V30 5 1 5 6
M  V30 6 2 6 7
M  V30 7 1 7 8
M  V30 8 1 8 9
M  V30 9 2 9 10
M  V30 10 1 9 11
M  V30 11 1 11 12
M  V30 12 1 12 13
M  V30 13 1 13 14
M  V30 14 2 13 15
M  V30 15 1 11 16
M  V30 16 1 16 17
M  V30 17 2 17 18
M  V30 18 1 18 19
M  V30 19 1 17 20
M  V30 20 2 20 21
M  V30 21 1 21 22
M  V30 22 2 22 23
M  V30 23 1 23 24
M  V30 24 2 24 25
M  V30 25 1 24 26
M  V30 26 1 26 27
M  V30 27 2 26 28 CFG=2
M  V30 28 1 7 29
M  V30 29 2 29 30
M  V30 30 1 30 4
M  V30 31 1 19 11
M  V30 32 1 25 20
M  V30 33 1 1 31
M  V30 34 1 1 32
M  V30 35 1 3 33
M  V30 36 1 5 34
M  V30 37 1 6 35
M  V30 38 1 8 36
M  V30 39 1 12 37
M  V30 40 1 12 38
M  V30 41 1 14 39
M  V30 42 1 16 40
M  V30 43 1 16 41
M  V30 44 1 21 42
M  V30 45 1 22 43
M  V30 46 1 23 44
M  V30 47 1 25 45
M  V30 48 1 27 46
M  V30 49 1 27 47
M  V30 50 1 28 48
M  V30 51 1 29 49
M  V30 52 1 30 50
M  V30 END BOND
M  V30 END CTAB
M  END
