
     RDKit          3D

  0  0  0  0  0  0  0  0  0  0999 V3000
M  V30 BEGIN CTAB
M  V30 COUNTS 28 29 0 0 0
M  V30 BEGIN ATOM
M  V30 1 C 2.94665 2.06959 0.257812 0
M  V30 2 C 2.60546 0.8336 0.59176 0
M  V30 3 C 2.01855 -0.0501183 -0.411488 0
M  V30 4 C 0.640463 -0.564858 -0.0838309 0
M  V30 5 C 0.676804 -1.3726 1.21607 0
M  V30 6 N 0.15952 -2.50843 0.486978 0
M  V30 7 C 0.398007 -1.85354 -0.774509 0
M  V30 8 C -0.417901 0.461908 -0.117644 0
M  V30 9 N -0.21626 1.78568 -0.101611 0
M  V30 10 N -1.37573 2.42598 -0.146705 0
M  V30 11 C -2.35833 1.5202 -0.196222 0
M  V30 12 N -1.75452 0.30987 -0.177785 0
M  V30 13 N -2.4263 -0.879733 -0.219757 0
M  V30 14 N -3.78172 1.72905 -0.250682 0
M  V30 15 H 3.39257 2.78074 0.959186 0
M  V30 16 H 2.7836 2.41754 -0.783816 0
M  V30 17 H 2.78706 0.550794 1.63428 0
M  V30 18 H 2.7019 -0.932388 -0.58105 0
M  V30 19 H 1.93452 0.486574 -1.37645 0
M  V30 20 H -0.034252 -0.976565 1.98399 0
M  V30 21 H 1.6946 -1.52529 1.64127 0
M  V30 22 H 0.690202 -3.39188 0.589643 0
M  V30 23 H 1.30003 -2.29906 -1.28855 0
M  V30 24 H -0.435724 -1.9144 -1.51102 0
M  V30 25 H -2.71666 -1.28966 -1.1364 0
M  V30 26 H -2.66554 -1.395 0.63964 0
M  V30 27 H -4.38678 0.959385 -0.592662 0
M  V30 28 H -4.16021 2.62262 0.0458957 0
M  V30 END ATOM
M  V30 BEGIN BOND
M  V30 1 2 1 2 CFG=2
M  V30 2 1 2 3
M  V30 3 1 3 4
M  V30 4 1 4 5
M  V30 5 1 5 6
M  V30 6 1 6 7
M  V30 7 1 4 8
M  V30 8 2 8 9
M  V30 9 1 9 10
M  V30 10 2 10 11
M  V30 11 1 11 12
M  V30 12 1 12 13
M  V30 13 1 11 14
M  V30 14 1 7 4
M  V30 15 1 12 8
M  V30 16 1 1 15
M  V30 17 1 1 16
M  V30 18 1 2 17
M  V30 19 1 3 18
M  V30 20 1 3 19
M  V30 21 1 5 20
M  V30 22 1 5 21
M  V30 23 1 6 22
M  V30 24 1 7 23
M  V30 25 1 7 24
M  V30 26 1 13 25
M  V30 27 1 13 26
M  V30 28 1 14 27
M  V30 29 1 14 28
M  V30 END BOND
M  V30 END CTAB
M  END
