
     RDKit          3D

  0  0  0  0  0  0  0  0  0  0999 V3000
M  V30 BEGIN CTAB
M  V30 COUNTS 21 22 0 0 0
M  V30 BEGIN ATOM
M  V30 1 N 3.08105 1.96025 0.168277 0
M  V30 2 C 1.91415 1.14679 0.140657 0
M  V30 3 N 2.07205 -0.201801 0.171683 0
M  V30 4 C 1.02867 -1.04146 0.149109 0
M  V30 5 N 1.26698 -2.43716 0.183964 0
M  V30 6 C -0.230059 -0.478327 0.0923807 0
M  V30 7 C -0.39223 0.885101 0.0609156 0
M  V30 8 N 0.687738 1.66203 0.086013 0
M  V30 9 C -1.85839 1.21927 0.000743431 0
M  V30 10 C -2.39544 -0.0598895 -0.658063 0
M  V30 11 C -1.57538 -1.10849 0.0549003 0
M  V30 12 H 3.05146 2.93853 -0.205694 0
M  V30 13 H 3.9915 1.6396 0.546837 0
M  V30 14 H 1.44923 -2.98336 -0.70136 0
M  V30 15 H 1.27691 -2.99873 1.0664 0
M  V30 16 H -2.01618 2.09973 -0.629274 0
M  V30 17 H -2.29308 1.30321 1.01575 0
M  V30 18 H -3.47543 -0.169511 -0.494832 0
M  V30 19 H -2.0893 -0.0489609 -1.70982 0
M  V30 20 H -1.57891 -2.08647 -0.458583 0
M  V30 21 H -1.91534 -1.24036 1.12 0
M  V30 END ATOM
M  V30 BEGIN BOND
M  V30 1 1 1 2
M  V30 2 2 2 3
M  V30 3 1 3 4
M  V30 4 1 4 5
M  V30 5 2 4 6
M  V30 6 1 6 7
M  V30 7 2 7 8
M  V30 8 1 7 9
M  V30 9 1 9 10
M  V30 10 1 10 11
M  V30 11 1 8 2
M  V30 12 1 11 6
M  V30 13 1 1 12
M  V30 14 1 1 13
M  V30 15 1 5 14
M  V30 16 1 5 15
M  V30 17 1 9 16
M  V30 18 1 9 17
M  V30 19 1 10 18
M  V30 20 1 10 19
M  V30 21 1 11 20
M  V30 22 1 11 21
M  V30 END BOND
M  V30 END CTAB
M  END
