
     RDKit          3D

  0  0  0  0  0  0  0  0  0  0999 V3000
M  V30 BEGIN CTAB
M  V30 COUNTS 21 21 0 0 0
M  V30 BEGIN ATOM
M  V30 1 N -3.85454 -0.0546264 0.0185521 0
M  V30 2 N -2.84577 0.865135 -0.320645 0
M  V30 3 C -1.49597 0.41229 -0.214262 0
M  V30 4 C -0.984503 -0.205025 0.90082 0
M  V30 5 Cl -2.03757 -0.457734 2.28812 0
M  V30 6 C 0.327375 -0.631829 0.95693 0
M  V30 7 C 1.11992 -0.425034 -0.145225 0
M  V30 8 C 0.615645 0.197209 -1.2798 0
M  V30 9 C -0.694423 0.617626 -1.31518 0
M  V30 10 S 2.80338 -0.891702 -0.19893 0
M  V30 11 N 3.80348 0.501099 -0.0292059 0
M  V30 12 O 3.14757 -1.81325 0.939741 0
M  V30 13 O 3.17699 -1.547 -1.4914 0
M  V30 14 H -3.58049 -1.02414 -0.275599 0
M  V30 15 H -4.70535 0.170063 -0.567524 0
M  V30 16 H -3.01318 1.82732 -0.651949 0
M  V30 17 H 0.751595 -1.1137 1.82398 0
M  V30 18 H 1.24248 0.368138 -2.16285 0
M  V30 19 H -1.1006 1.11825 -2.21125 0
M  V30 20 H 3.27105 1.20578 0.527246 0
M  V30 21 H 4.05291 0.881146 -0.986863 0
M  V30 END ATOM
M  V30 BEGIN BOND
M  V30 1 1 1 2
M  V30 2 1 2 3
M  V30 3 2 3 4
M  V30 4 1 4 5
M  V30 5 1 4 6
M  V30 6 2 6 7
M  V30 7 1 7 8
M  V30 8 2 8 9
M  V30 9 1 7 10
M  V30 10 1 10 11
M  V30 11 2 10 12
M  V30 12 2 10 13
M  V30 13 1 9 3
M  V30 14 1 1 14
M  V30 15 1 1 15
M  V30 16 1 2 16
M  V30 17 1 6 17
M  V30 18 1 8 18
M  V30 19 1 9 19
M  V30 20 1 11 20
M  V30 21 1 11 21
M  V30 END BOND
M  V30 END CTAB
M  END
