
     RDKit          3D

  0  0  0  0  0  0  0  0  0  0999 V3000
M  V30 BEGIN CTAB
M  V30 COUNTS 46 46 0 0 0
M  V30 BEGIN ATOM
M  V30 1 C 6.51688 1.80517 0.75746 0
M  V30 2 C 6.66788 0.35299 0.360904 0
M  V30 3 C 5.62935 -0.059596 -0.662073 0
M  V30 4 C 4.22513 0.116971 -0.125785 0
M  V30 5 C 3.2655 -0.317072 -1.20908 0
M  V30 6 C 1.82541 -0.180955 -0.776644 0
M  V30 7 C 0.964464 -0.639793 -1.92995 0
M  V30 8 C -0.518105 -0.546461 -1.60722 0
M  V30 9 C -0.898932 -1.38046 -0.436596 0
M  V30 10 C -2.37228 -1.26162 -0.166989 0
M  V30 11 C -2.74084 0.152878 0.135276 0
M  V30 12 C -4.22558 0.170713 0.40418 0
M  V30 13 N -4.96013 -0.92877 0.352075 0
M  V30 14 C -6.27722 -0.826728 0.605033 0
M  V30 15 N -7.03624 -2.0318 0.539673 0
M  V30 16 N -6.83059 0.346139 0.900082 0
M  V30 17 C -6.1039 1.48719 0.960538 0
M  V30 18 N -6.67327 2.74838 1.27322 0
M  V30 19 N -4.78184 1.36019 0.702521 0
M  V30 20 H 5.80695 2.29673 0.0838371 0
M  V30 21 H 7.48532 2.36122 0.649261 0
M  V30 22 H 6.24776 1.91758 1.83794 0
M  V30 23 H 7.67514 0.234806 -0.0755051 0
M  V30 24 H 6.59687 -0.262331 1.26742 0
M  V30 25 H 5.80529 0.566042 -1.559 0
M  V30 26 H 5.84326 -1.10301 -0.94317 0
M  V30 27 H 4.11679 -0.455032 0.799521 0
M  V30 28 H 4.09481 1.18863 0.128811 0
M  V30 29 H 3.44543 0.303461 -2.09249 0
M  V30 30 H 3.5034 -1.37059 -1.46343 0
M  V30 31 H 1.6028 0.891252 -0.605966 0
M  V30 32 H 1.60298 -0.720462 0.150793 0
M  V30 33 H 1.16199 -1.68967 -2.22081 0
M  V30 34 H 1.13044 0.0224839 -2.80331 0
M  V30 35 H -0.833861 0.510213 -1.5491 0
M  V30 36 H -1.04315 -0.96679 -2.5056 0
M  V30 37 H -0.386235 -1.00705 0.497011 0
M  V30 38 H -0.59973 -2.43427 -0.625399 0
M  V30 39 H -2.61508 -1.91262 0.706812 0
M  V30 40 H -2.98862 -1.58437 -1.03592 0
M  V30 41 H -2.59843 0.844865 -0.697229 0
M  V30 42 H -2.2551 0.482947 1.07581 0
M  V30 43 H -6.9211 -2.73672 -0.201352 0
M  V30 44 H -7.74713 -2.21032 1.2822 0
M  V30 45 H -6.25572 3.39352 1.97451 0
M  V30 46 H -7.55075 3.07211 0.794936 0
M  V30 END ATOM
M  V30 BEGIN BOND
M  V30 1 1 1 2
M  V30 2 1 2 3
M  V30 3 1 3 4
M  V30 4 1 4 5
M  V30 5 1 5 6
M  V30 6 1 6 7
M  V30 7 1 7 8
M  V30 8 1 8 9
M  V30 9 1 9 10
M  V30 10 1 10 11
M  V30 11 1 11 12
M  V30 12 2 12 13
M  V30 13 1 13 14
M  V30 14 1 14 15
M  V30 15 2 14 16
M  V30 16 1 16 17
M  V30 17 1 17 18
M  V30 18 2 17 19
M  V30 19 1 19 12
M  V30 20 1 1 20
M  V30 21 1 1 21
M  V30 22 1 1 22
M  V30 23 1 2 23
M  V30 24 1 2 24
M  V30 25 1 3 25
M  V30 26 1 3 26
M  V30 27 1 4 27
M  V30 28 1 4 28
M  V30 29 1 5 29
M  V30 30 1 5 30
M  V30 31 1 6 31
M  V30 32 1 6 32
M  V30 33 1 7 33
M  V30 34 1 7 34
M  V30 35 1 8 35
M  V30 36 1 8 36
M  V30 37 1 9 37
M  V30 38 1 9 38
M  V30 39 1 10 39
M  V30 40 1 10 40
M  V30 41 1 11 41
M  V30 42 1 11 42
M  V30 43 1 15 43
M  V30 44 1 15 44
M  V30 45 1 18 45
M  V30 46 1 18 46
M  V30 END BOND
M  V30 END CTAB
M  END
