
     RDKit          3D

  0  0  0  0  0  0  0  0  0  0999 V3000
M  V30 BEGIN CTAB
M  V30 COUNTS 21 22 0 0 0
M  V30 BEGIN ATOM
M  V30 1 N -3.02196 1.0005 0.0977943 0
M  V30 2 C -1.68399 0.538918 0.0574364 0
M  V30 3 C -0.59784 1.38129 -0.0501634 0
M  V30 4 C 0.708492 0.939254 -0.0900983 0
M  V30 5 C 0.964991 -0.40401 -0.020679 0
M  V30 6 C -0.104337 -1.27722 0.087952 0
M  V30 7 C -1.40546 -0.830522 0.127332 0
M  V30 8 N -2.46758 -1.76653 0.239455 0
M  V30 9 C 2.27347 -0.829224 -0.0617573 0
M  V30 10 O 2.49827 -2.0467 0.00155791 0
M  V30 11 N 3.28419 0.0603115 -0.168381 0
M  V30 12 C 3.03656 1.3799 -0.236798 0
M  V30 13 N 1.75628 1.78371 -0.195853 0
M  V30 14 H -3.53737 1.26648 0.962996 0
M  V30 15 H -3.54864 1.08759 -0.797962 0
M  V30 16 H -0.765668 2.44009 -0.106636 0
M  V30 17 H 0.150757 -2.32899 0.139518 0
M  V30 18 H -2.81626 -2.23836 -0.62113 0
M  V30 19 H -2.87235 -1.96283 1.15702 0
M  V30 20 H 4.27978 -0.263558 -0.199622 0
M  V30 21 H 3.86866 2.0699 -0.321985 0
M  V30 END ATOM
M  V30 BEGIN BOND
M  V30 1 1 1 2
M  V30 2 2 2 3
M  V30 3 1 3 4
M  V30 4 2 4 5
M  V30 5 1 5 6
M  V30 6 2 6 7
M  V30 7 1 7 8
M  V30 8 1 5 9
M  V30 9 2 9 10
M  V30 10 1 9 11
M  V30 11 1 11 12
M  V30 12 2 12 13
M  V30 13 1 7 2
M  V30 14 1 13 4
M  V30 15 1 1 14
M  V30 16 1 1 15
M  V30 17 1 3 16
M  V30 18 1 6 17
M  V30 19 1 8 18
M  V30 20 1 8 19
M  V30 21 1 11 20
M  V30 22 1 12 21
M  V30 END BOND
M  V30 END CTAB
M  END
