
     RDKit          3D

  0  0  0  0  0  0  0  0  0  0999 V3000
M  V30 BEGIN CTAB
M  V30 COUNTS 45 44 0 0 0
M  V30 BEGIN ATOM
M  V30 1 N -2.30119 1.75801 -0.202709 0
M  V30 2 C -2.2745 0.470292 -0.756223 0 CFG=1
M  V30 3 C -1.03436 -0.215346 -0.337575 0
M  V30 4 O -0.751572 -1.38523 -0.699866 0
M  V30 5 N -0.122535 0.462118 0.504208 0
M  V30 6 C 1.12699 -0.173375 0.952227 0 CFG=2
M  V30 7 C 1.01233 -0.28915 2.42538 0
M  V30 8 O 0.00201452 0.119766 3.06818 0
M  V30 9 O 2.01409 -0.859102 3.20072 0
M  V30 10 C 2.28077 0.67403 0.510178 0
M  V30 11 C 3.62426 0.152809 0.89104 0
M  V30 12 C 3.82572 -1.23454 0.268815 0
M  V30 13 N 3.73133 -1.08069 -1.15881 0
M  V30 14 C 4.71949 -0.37381 -1.90851 0
M  V30 15 N 4.33747 0.329254 -2.92512 0
M  V30 16 N 6.08264 -0.457246 -1.52568 0
M  V30 17 C -3.42554 -0.403709 -0.315605 0
M  V30 18 C -4.7761 0.118316 -0.66757 0
M  V30 19 C -5.78719 -0.903 -0.138744 0
M  V30 20 C -5.05891 1.45087 -0.00766039 0
M  V30 21 H -2.24186 1.8887 0.764952 0
M  V30 22 H -1.86175 2.43984 -0.796123 0
M  V30 23 H -2.28755 0.488789 -1.8654 0
M  V30 24 H -0.263141 1.43285 0.859053 0
M  V30 25 H 1.15806 -1.1789 0.485489 0
M  V30 26 H 1.76782 -1.67517 3.7527 0
M  V30 27 H 2.25493 0.806825 -0.588304 0
M  V30 28 H 2.11858 1.70583 0.928736 0
M  V30 29 H 4.40168 0.827772 0.42314 0
M  V30 30 H 3.8655 0.133556 1.94927 0
M  V30 31 H 3.04795 -1.94463 0.609419 0
M  V30 32 H 4.79996 -1.66062 0.600945 0
M  V30 33 H 2.91416 -1.49977 -1.65289 0
M  V30 34 H 4.98436 0.870061 -3.52043 0
M  V30 35 H 6.49084 0.311701 -0.956278 0
M  V30 36 H 6.69715 -1.25538 -1.78829 0
M  V30 37 H -3.40868 -0.609062 0.772197 0
M  V30 38 H -3.30069 -1.38794 -0.818574 0
M  V30 39 H -4.89561 0.224846 -1.77838 0
M  V30 40 H -5.57876 -1.85956 -0.669048 0
M  V30 41 H -5.51419 -1.07355 0.92771 0
M  V30 42 H -6.82413 -0.561193 -0.265153 0
M  V30 43 H -4.60075 1.55589 0.979503 0
M  V30 44 H -6.1648 1.59206 0.153453 0
M  V30 45 H -4.78428 2.26677 -0.723561 0
M  V30 END ATOM
M  V30 BEGIN BOND
M  V30 1 1 1 2
M  V30 2 1 2 3
M  V30 3 2 3 4
M  V30 4 1 3 5
M  V30 5 1 5 6
M  V30 6 1 6 7
M  V30 7 2 7 8
M  V30 8 1 7 9
M  V30 9 1 6 10
M  V30 10 1 10 11
M  V30 11 1 11 12
M  V30 12 1 12 13
M  V30 13 1 13 14
M  V30 14 2 14 15 CFG=2
M  V30 15 1 14 16
M  V30 16 1 2 17
M  V30 17 1 17 18
M  V30 18 1 18 19
M  V30 19 1 18 20
M  V30 20 1 1 21
M  V30 21 1 1 22
M  V30 22 1 2 23 CFG=3
M  V30 23 1 5 24
M  V30 24 1 6 25 CFG=3
M  V30 25 1 9 26
M  V30 26 1 10 27
M  V30 27 1 10 28
M  V30 28 1 11 29
M  V30 29 1 11 30
M  V30 30 1 12 31
M  V30 31 1 12 32
M  V30 32 1 13 33
M  V30 33 1 15 34
M  V30 34 1 16 35
M  V30 35 1 16 36
M  V30 36 1 17 37
M  V30 37 1 17 38
M  V30 38 1 18 39
M  V30 39 1 19 40
M  V30 40 1 19 41
M  V30 41 1 19 42
M  V30 42 1 20 43
M  V30 43 1 20 44
M  V30 44 1 20 45
M  V30 END BOND
M  V30 END CTAB
M  END
