
     RDKit          3D

  0  0  0  0  0  0  0  0  0  0999 V3000
M  V30 BEGIN CTAB
M  V30 COUNTS 47 50 0 0 0
M  V30 BEGIN ATOM
M  V30 1 N -7.22555 2.51283 0.733097 0
M  V30 2 C -7.47179 1.20155 0.256139 0
M  V30 3 N -8.67666 0.808997 0.0605147 0
M  V30 4 C -6.36776 0.268737 -0.0234207 0
M  V30 5 C -5.07846 0.719976 0.197016 0
M  V30 6 C -4.0433 -0.177632 -0.0732916 0
M  V30 7 C -4.31381 -1.44446 -0.535684 0
M  V30 8 O -3.23201 -2.30942 -0.792226 0
M  V30 9 C -1.92451 -1.90073 -0.586179 0
M  V30 10 C -1.31634 -2.09149 0.637005 0
M  V30 11 C -0.00643735 -1.68061 0.839137 0
M  V30 12 C 0.718059 -1.07572 -0.166871 0
M  V30 13 C 0.0837372 -0.898367 -1.3787 0
M  V30 14 C -1.21229 -1.29316 -1.61343 0
M  V30 15 C 2.09525 -0.648712 0.0603975 0
M  V30 16 C 2.78782 -0.795048 1.2436 0
M  V30 17 C 4.07695 -0.280543 1.11652 0
M  V30 18 C 4.12543 0.179849 -0.193886 0
M  V30 19 N 2.9342 -0.0536469 -0.792671 0
M  V30 20 C 5.29253 0.749786 -0.617206 0
M  V30 21 C 6.42213 0.890405 0.189783 0
M  V30 22 C 6.31353 0.41565 1.47762 0
M  V30 23 C 5.15472 -0.171939 1.96216 0
M  V30 24 C 7.62712 1.50616 -0.328112 0
M  V30 25 N 7.60475 1.96023 -1.69647 0
M  V30 26 N 8.66885 1.65504 0.359168 0
M  V30 27 C -5.59814 -1.88203 -0.751035 0
M  V30 28 C -6.62797 -1.00604 -0.488154 0
M  V30 29 H -7.92125 2.92003 1.4161 0
M  V30 30 H -6.40503 3.09555 0.452453 0
M  V30 31 H -9.45514 1.46914 0.258472 0
M  V30 32 H -4.8734 1.71269 0.559033 0
M  V30 33 H -3.01911 0.141495 0.0878628 0
M  V30 34 H -1.87776 -2.56465 1.42968 0
M  V30 35 H 0.481179 -1.82865 1.80535 0
M  V30 36 H 0.671971 -0.417912 -2.16392 0
M  V30 37 H -1.70302 -1.14533 -2.58241 0
M  V30 38 H 2.42088 -1.24167 2.16837 0
M  V30 39 H 2.66362 0.182197 -1.78386 0
M  V30 40 H 5.37754 1.12789 -1.64446 0
M  V30 41 H 7.18926 0.511748 2.14149 0
M  V30 42 H 5.10053 -0.52917 2.96101 0
M  V30 43 H 7.34922 2.94343 -1.89368 0
M  V30 44 H 7.8332 1.3452 -2.48937 0
M  V30 45 H 8.75318 1.35633 1.33471 0
M  V30 46 H -5.75941 -2.88926 -1.11616 0
M  V30 47 H -7.63648 -1.34871 -0.656926 0
M  V30 END ATOM
M  V30 BEGIN BOND
M  V30 1 1 1 2
M  V30 2 2 2 3 CFG=2
M  V30 3 1 2 4
M  V30 4 2 4 5
M  V30 5 1 5 6
M  V30 6 2 6 7
M  V30 7 1 7 8
M  V30 8 1 8 9
M  V30 9 2 9 10
M  V30 10 1 10 11
M  V30 11 2 11 12
M  V30 12 1 12 13
M  V30 13 2 13 14
M  V30 14 1 12 15
M  V30 15 2 15 16
M  V30 16 1 16 17
M  V30 17 2 17 18
M  V30 18 1 18 19
M  V30 19 1 18 20
M  V30 20 2 20 21
M  V30 21 1 21 22
M  V30 22 2 22 23
M  V30 23 1 21 24
M  V30 24 1 24 25
M  V30 25 2 24 26 CFG=2
M  V30 26 1 7 27
M  V30 27 2 27 28
M  V30 28 1 28 4
M  V30 29 1 14 9
M  V30 30 1 19 15
M  V30 31 1 23 17
M  V30 32 1 1 29
M  V30 33 1 1 30
M  V30 34 1 3 31
M  V30 35 1 5 32
M  V30 36 1 6 33
M  V30 37 1 10 34
M  V30 38 1 11 35
M  V30 39 1 13 36
M  V30 40 1 14 37
M  V30 41 1 16 38
M  V30 42 1 19 39
M  V30 43 1 20 40
M  V30 44 1 22 41
M  V30 45 1 23 42
M  V30 46 1 25 43
M  V30 47 1 25 44
M  V30 48 1 26 45
M  V30 49 1 27 46
M  V30 50 1 28 47
M  V30 END BOND
M  V30 END CTAB
M  END
