
     RDKit          3D

  0  0  0  0  0  0  0  0  0  0999 V3000
M  V30 BEGIN CTAB
M  V30 COUNTS 73 76 0 0 0
M  V30 BEGIN ATOM
M  V30 1 C -6.43903 1.97529 2.07193 0
M  V30 2 N -5.05022 2.02106 1.75857 0
M  V30 3 C -4.605 0.877915 0.985708 0 CFG=1
M  V30 4 C -5.3124 0.856611 -0.32887 0
M  V30 5 C -4.70792 -0.02746 -1.35851 0 CFG=1
M  V30 6 N -5.28235 0.333362 -2.65183 0
M  V30 7 C -3.21831 0.102136 -1.48637 0 CFG=2
M  V30 8 O -2.76758 -0.820562 -2.39666 0
M  V30 9 C -2.57568 -0.0787223 -0.104344 0 CFG=1
M  V30 10 O -1.21465 0.0343294 -0.159472 0
M  V30 11 C -0.517523 -1.02082 0.372955 0 CFG=2
M  V30 12 O 0.276715 -0.726572 1.45797 0
M  V30 13 C 0.656386 -1.95687 2.0067 0 CFG=2
M  V30 14 C 1.04558 -1.85496 3.44074 0
M  V30 15 O 1.40478 -3.14338 3.86751 0
M  V30 16 C 1.69114 -2.58859 1.14597 0 CFG=2
M  V30 17 O 2.96008 -2.0846 1.47195 0
M  V30 18 C 1.40364 -2.52402 -0.308288 0 CFG=2
M  V30 19 O 2.48666 -1.93586 -0.95639 0
M  V30 20 C 2.11094 -0.712433 -1.44552 0
M  V30 21 O 0.741489 -0.847992 -1.65638 0
M  V30 22 C 0.238465 -1.71905 -0.727518 0 CFG=2
M  V30 23 O 2.27347 0.315869 -0.538241 0
M  V30 24 C 3.40497 1.05443 -0.620698 0
M  V30 25 C 4.00184 1.49506 0.693344 0
M  V30 26 N 5.19904 2.27497 0.418343 0
M  V30 27 C 3.07688 2.35299 1.51202 0
M  V30 28 O 3.72738 2.69634 2.69046 0
M  V30 29 C 4.51551 0.42395 -1.4226 0
M  V30 30 O 5.08142 -0.67955 -0.835161 0
M  V30 31 C 4.02384 0.220469 -2.8186 0
M  V30 32 O 4.96632 -0.501273 -3.58362 0
M  V30 33 C 2.69446 -0.432301 -2.81309 0
M  V30 34 O 1.80847 0.318018 -3.58291 0
M  V30 35 C -3.12331 1.0668 0.728826 0 CFG=2
M  V30 36 O -2.39667 1.30881 1.86188 0
M  V30 37 H -6.60924 2.16332 3.13317 0
M  V30 38 H -6.94528 1.04698 1.77649 0
M  V30 39 H -6.94727 2.8 1.51426 0
M  V30 40 H -4.50363 2.00637 2.6468 0
M  V30 41 H -4.72933 -0.0779296 1.54105 0
M  V30 42 H -6.36008 0.48143 -0.137814 0
M  V30 43 H -5.35342 1.89206 -0.738178 0
M  V30 44 H -4.93197 -1.10599 -1.21186 0
M  V30 45 H -4.5501 0.460824 -3.38601 0
M  V30 46 H -6.0071 -0.35225 -2.9553 0
M  V30 47 H -2.923 1.11157 -1.82811 0
M  V30 48 H -2.86715 -1.73946 -2.097 0
M  V30 49 H -2.92182 -1.01557 0.368017 0
M  V30 50 H -1.28576 -1.75761 0.749798 0
M  V30 51 H -0.260071 -2.60699 1.93612 0
M  V30 52 H 0.154891 -1.59265 4.07826 0
M  V30 53 H 1.88499 -1.19301 3.64059 0
M  V30 54 H 0.653894 -3.77236 3.72465 0
M  V30 55 H 1.74316 -3.67262 1.46455 0
M  V30 56 H 2.91473 -1.20329 1.89186 0
M  V30 57 H 1.36215 -3.57351 -0.735139 0
M  V30 58 H -0.498566 -2.42782 -1.2167 0
M  V30 59 H 3.14724 2.0102 -1.16767 0
M  V30 60 H 4.36087 0.600827 1.27884 0
M  V30 61 H 6.04719 1.6998 0.357235 0
M  V30 62 H 5.06003 2.89944 -0.389091 0
M  V30 63 H 2.14918 1.76304 1.71457 0
M  V30 64 H 2.87826 3.27507 0.934266 0
M  V30 65 H 4.69645 2.49936 2.65994 0
M  V30 66 H 5.33171 1.20391 -1.48529 0
M  V30 67 H 5.37328 -1.36998 -1.50534 0
M  V30 68 H 3.95512 1.2429 -3.27994 0
M  V30 69 H 4.69614 -0.340613 -4.53112 0
M  V30 70 H 2.81482 -1.43958 -3.31027 0
M  V30 71 H 1.44123 -0.22391 -4.31956 0
M  V30 72 H -3.02344 1.97793 0.0723826 0
M  V30 73 H -2.52694 2.25668 2.12176 0
M  V30 END ATOM
M  V30 BEGIN BOND
M  V30 1 1 1 2
M  V30 2 1 2 3
M  V30 3 1 3 4
M  V30 4 1 4 5
M  V30 5 1 5 6
M  V30 6 1 5 7
M  V30 7 1 7 8
M  V30 8 1 7 9
M  V30 9 1 9 10
M  V30 10 1 10 11
M  V30 11 1 11 12
M  V30 12 1 12 13
M  V30 13 1 13 14
M  V30 14 1 14 15
M  V30 15 1 13 16
M  V30 16 1 16 17
M  V30 17 1 16 18
M  V30 18 1 18 19
M  V30 19 1 19 20
M  V30 20 1 20 21
M  V30 21 1 21 22
M  V30 22 1 20 23
M  V30 23 1 23 24
M  V30 24 1 24 25
M  V30 25 1 25 26
M  V30 26 1 25 27
M  V30 27 1 27 28
M  V30 28 1 24 29
M  V30 29 1 29 30
M  V30 30 1 29 31
M  V30 31 1 31 32
M  V30 32 1 31 33
M  V30 33 1 33 34
M  V30 34 1 9 35
M  V30 35 1 35 36
M  V30 36 1 35 3
M  V30 37 1 22 11
M  V30 38 1 22 18
M  V30 39 1 33 20
M  V30 40 1 1 37
M  V30 41 1 1 38
M  V30 42 1 1 39
M  V30 43 1 2 40
M  V30 44 1 3 41 CFG=1
M  V30 45 1 4 42
M  V30 46 1 4 43
M  V30 47 1 5 44 CFG=1
M  V30 48 1 6 45
M  V30 49 1 6 46
M  V30 50 1 7 47 CFG=3
M  V30 51 1 8 48
M  V30 52 1 9 49 CFG=1
M  V30 53 1 11 50 CFG=1
M  V30 54 1 13 51 CFG=1
M  V30 55 1 14 52
M  V30 56 1 14 53
M  V30 57 1 15 54
M  V30 58 1 16 55 CFG=1
M  V30 59 1 17 56
M  V30 60 1 18 57 CFG=3
M  V30 61 1 22 58 CFG=3
M  V30 62 1 24 59
M  V30 63 1 25 60
M  V30 64 1 26 61
M  V30 65 1 26 62
M  V30 66 1 27 63
M  V30 67 1 27 64
M  V30 68 1 28 65
M  V30 69 1 29 66
M  V30 70 1 30 67
M  V30 71 1 31 68
M  V30 72 1 32 69
M  V30 73 1 33 70
M  V30 74 1 34 71
M  V30 75 1 35 72 CFG=3
M  V30 76 1 36 73
M  V30 END BOND
M  V30 END CTAB
M  END
