
     RDKit          3D

  0  0  0  0  0  0  0  0  0  0999 V3000
M  V30 BEGIN CTAB
M  V30 COUNTS 21 21 0 0 0
M  V30 BEGIN ATOM
M  V30 1 N -0.77148 2.22474 0.601792 0
M  V30 2 C -1.10813 0.928919 0.155078 0
M  V30 3 C -2.43547 0.625354 -0.102787 0
M  V30 4 C -2.80613 -0.62964 -0.540915 0
M  V30 5 C -1.80037 -1.55871 -0.70813 0
M  V30 6 C -0.459158 -1.26034 -0.450164 0
M  V30 7 C -0.102194 -0.00193147 -0.0127009 0
M  V30 8 C 1.29056 0.412451 0.289519 0
M  V30 9 N 2.1364 -0.72572 0.0335337 0
M  V30 10 N 3.48681 -0.430704 0.300322 0
M  V30 11 F -2.11361 -2.79531 -1.13345 0
M  V30 12 H 0.09982 2.45433 1.11349 0
M  V30 13 H -1.42461 3.01838 0.417428 0
M  V30 14 H -3.21318 1.36463 0.0330569 0
M  V30 15 H -3.84082 -0.877471 -0.745459 0
M  V30 16 H 0.315246 -2.00269 -0.586319 0
M  V30 17 H 1.38258 0.627313 1.3922 0
M  V30 18 H 1.59958 1.32312 -0.247109 0
M  V30 19 H 2.06599 -1.04829 -0.957441 0
M  V30 20 H 3.63399 -0.480754 1.33234 0
M  V30 21 H 4.06418 -1.16767 -0.18428 0
M  V30 END ATOM
M  V30 BEGIN BOND
M  V30 1 1 1 2
M  V30 2 2 2 3
M  V30 3 1 3 4
M  V30 4 2 4 5
M  V30 5 1 5 6
M  V30 6 2 6 7
M  V30 7 1 7 8
M  V30 8 1 8 9
M  V30 9 1 9 10
M  V30 10 1 5 11
M  V30 11 1 7 2
M  V30 12 1 1 12
M  V30 13 1 1 13
M  V30 14 1 3 14
M  V30 15 1 4 15
M  V30 16 1 6 16
M  V30 17 1 8 17
M  V30 18 1 8 18
M  V30 19 1 9 19
M  V30 20 1 10 20
M  V30 21 1 10 21
M  V30 END BOND
M  V30 END CTAB
M  END
