
     RDKit          3D

  0  0  0  0  0  0  0  0  0  0999 V3000
M  V30 BEGIN CTAB
M  V30 COUNTS 36 38 0 0 0
M  V30 BEGIN ATOM
M  V30 1 N -4.76186 -2.7574 -0.479589 0
M  V30 2 C -4.2782 -1.44127 -0.249494 0
M  V30 3 C -2.93005 -1.18801 -0.394684 0
M  V30 4 C -2.43879 0.0876074 -0.175048 0
M  V30 5 C -0.980658 0.334353 -0.338332 0
M  V30 6 C -0.322493 0.0961455 0.977317 0
M  V30 7 C 1.16943 0.314573 0.945494 0
M  V30 8 C 1.54931 1.70887 0.553235 0
M  V30 9 O 2.9638 1.82529 0.761422 0
M  V30 10 C 3.75958 0.815406 0.193608 0
M  V30 11 C 3.17003 -0.382732 -0.156255 0
M  V30 12 O 1.8106 -0.57669 0.0539746 0
M  V30 13 C 3.9885 -1.35341 -0.71334 0
M  V30 14 C 5.33445 -1.15556 -0.919183 0
M  V30 15 C 5.87606 0.0555128 -0.554081 0
M  V30 16 C 5.10481 1.05645 0.00501667 0
M  V30 17 N -3.30012 1.059 0.178713 0
M  V30 18 C -4.62747 0.815751 0.323068 0
M  V30 19 N -5.10001 -0.43594 0.106117 0
M  V30 20 N -5.54924 1.82799 0.695361 0
M  V30 21 H -4.13212 -3.54357 -0.180933 0
M  V30 22 H -5.67753 -2.96789 -0.914349 0
M  V30 23 H -2.23194 -1.97377 -0.681045 0
M  V30 24 H -0.810478 1.39378 -0.620099 0
M  V30 25 H -0.54904 -0.34117 -1.1099 0
M  V30 26 H -0.498313 -0.948868 1.30982 0
M  V30 27 H -0.751626 0.776948 1.73418 0
M  V30 28 H 1.58671 0.116772 1.94842 0
M  V30 29 H 1.41955 1.7984 -0.560304 0
M  V30 30 H 1.01564 2.48561 1.09859 0
M  V30 31 H 3.51954 -2.28905 -0.98474 0
M  V30 32 H 5.98128 -1.90095 -1.35084 0
M  V30 33 H 6.93167 0.230636 -0.707618 0
M  V30 34 H 5.53474 2.00832 0.291081 0
M  V30 35 H -5.24926 2.56824 1.36368 0
M  V30 36 H -6.5265 1.88063 0.336861 0
M  V30 END ATOM
M  V30 BEGIN BOND
M  V30 1 1 1 2
M  V30 2 2 2 3
M  V30 3 1 3 4
M  V30 4 1 4 5
M  V30 5 1 5 6
M  V30 6 1 6 7
M  V30 7 1 7 8
M  V30 8 1 8 9
M  V30 9 1 9 10
M  V30 10 2 10 11
M  V30 11 1 11 12
M  V30 12 1 11 13
M  V30 13 2 13 14
M  V30 14 1 14 15
M  V30 15 2 15 16
M  V30 16 2 4 17
M  V30 17 1 17 18
M  V30 18 2 18 19
M  V30 19 1 18 20
M  V30 20 1 19 2
M  V30 21 1 12 7
M  V30 22 1 16 10
M  V30 23 1 1 21
M  V30 24 1 1 22
M  V30 25 1 3 23
M  V30 26 1 5 24
M  V30 27 1 5 25
M  V30 28 1 6 26
M  V30 29 1 6 27
M  V30 30 1 7 28
M  V30 31 1 8 29
M  V30 32 1 8 30
M  V30 33 1 13 31
M  V30 34 1 14 32
M  V30 35 1 15 33
M  V30 36 1 16 34
M  V30 37 1 20 35
M  V30 38 1 20 36
M  V30 END BOND
M  V30 END CTAB
M  END
