
     RDKit          3D

  0  0  0  0  0  0  0  0  0  0999 V3000
M  V30 BEGIN CTAB
M  V30 COUNTS 31 32 0 0 0
M  V30 BEGIN ATOM
M  V30 1 N 2.30804 2.30057 -0.838146 0
M  V30 2 C 2.65835 1.1364 -0.0799647 0
M  V30 3 N 3.80957 1.02367 0.563929 0
M  V30 4 C 4.02552 -0.0809351 1.33447 0
M  V30 5 C 3.10775 -1.05092 1.45255 0
M  V30 6 C 1.87497 -0.954213 0.78186 0
M  V30 7 C 1.68014 0.157498 0.0208653 0
M  V30 8 C 0.440561 0.253425 -0.856603 0 CFG=1
M  V30 9 O 0.429579 -0.984196 -1.48857 0
M  V30 10 C -0.686065 -1.66019 -1.73327 0
M  V30 11 C -1.70955 -1.59135 -0.599463 0
M  V30 12 N -1.93353 -0.1989 -0.420883 0
M  V30 13 C -0.732651 0.408235 0.0699152 0
M  V30 14 S -3.37101 0.440837 0.0441904 0
M  V30 15 O -4.08191 1.26638 -1.0184 0
M  V30 16 O -4.3566 -0.743258 0.266336 0
M  V30 17 N -3.29728 1.29295 1.51116 0
M  V30 18 H 2.86743 2.6311 -1.61084 0
M  V30 19 H 1.42602 2.76008 -0.519561 0
M  V30 20 H 4.98591 -0.161914 1.87658 0
M  V30 21 H 3.28021 -1.96839 2.0718 0
M  V30 22 H 1.16382 -1.73896 0.904503 0
M  V30 23 H 0.604963 1.03666 -1.56327 0
M  V30 24 H -0.452634 -2.76189 -1.86467 0
M  V30 25 H -1.23439 -1.3561 -2.66674 0
M  V30 26 H -1.19242 -1.92576 0.343594 0
M  V30 27 H -2.59851 -2.12168 -0.849271 0
M  V30 28 H -0.490737 -0.0146823 1.04529 0
M  V30 29 H -0.904617 1.48387 0.206132 0
M  V30 30 H -3.86188 0.886859 2.2847 0
M  V30 31 H -3.75904 2.23481 1.33178 0
M  V30 END ATOM
M  V30 BEGIN BOND
M  V30 1 1 1 2
M  V30 2 2 2 3
M  V30 3 1 3 4
M  V30 4 2 4 5
M  V30 5 1 5 6
M  V30 6 2 6 7
M  V30 7 1 7 8
M  V30 8 1 8 9
M  V30 9 1 9 10
M  V30 10 1 10 11
M  V30 11 1 11 12
M  V30 12 1 12 13
M  V30 13 1 12 14
M  V30 14 2 14 15
M  V30 15 2 14 16
M  V30 16 1 14 17
M  V30 17 1 7 2
M  V30 18 1 13 8
M  V30 19 1 1 18
M  V30 20 1 1 19
M  V30 21 1 4 20
M  V30 22 1 5 21
M  V30 23 1 6 22
M  V30 24 1 8 23 CFG=3
M  V30 25 1 10 24
M  V30 26 1 10 25
M  V30 27 1 11 26
M  V30 28 1 11 27
M  V30 29 1 13 28
M  V30 30 1 13 29
M  V30 31 1 17 30
M  V30 32 1 17 31
M  V30 END BOND
M  V30 END CTAB
M  END
