
     RDKit          3D

  0  0  0  0  0  0  0  0  0  0999 V3000
M  V30 BEGIN CTAB
M  V30 COUNTS 43 45 0 0 0
M  V30 BEGIN ATOM
M  V30 1 C -6.15983 -1.90356 0.318604 0
M  V30 2 C -5.02415 -0.958181 0.133522 0
M  V30 3 C -4.27164 -0.934708 -1.01883 0
M  V30 4 C -3.2045 -0.0437643 -1.18681 0
M  V30 5 C -2.85521 0.855991 -0.20189 0
M  V30 6 C -3.63593 0.81088 0.956324 0
M  V30 7 C -4.68743 -0.0649078 1.12605 0
M  V30 8 C -1.74568 1.8232 -0.355192 0
M  V30 9 C -0.398329 1.29641 -0.257592 0
M  V30 10 C 0.224106 0.903822 0.893667 0
M  V30 11 N -0.489522 1.00524 2.11777 0
M  V30 12 N 1.50649 0.426757 0.885782 0
M  V30 13 C 2.20924 0.323379 -0.250318 0
M  V30 14 N 1.62115 0.702865 -1.39532 0
M  V30 15 C 0.360968 1.17747 -1.42782 0
M  V30 16 N -0.194586 1.57376 -2.65877 0
M  V30 17 N 3.55634 -0.181094 -0.238061 0
M  V30 18 C 4.31573 -0.29133 -1.46519 0
M  V30 19 C 5.7733 -0.458377 -1.08551 0
M  V30 20 O 6.00168 -1.56415 -0.304399 0
M  V30 21 C 5.13304 -1.73788 0.741605 0
M  V30 22 C 4.20003 -0.594268 0.986437 0
M  V30 23 H -5.95174 -2.89394 -0.121543 0
M  V30 24 H -6.3253 -1.99708 1.42089 0
M  V30 25 H -7.10355 -1.48537 -0.0960977 0
M  V30 26 H -4.53307 -1.63461 -1.80136 0
M  V30 27 H -2.64052 -0.0542647 -2.10045 0
M  V30 28 H -3.38825 1.51796 1.73706 0
M  V30 29 H -5.27229 -0.0656718 2.05126 0
M  V30 30 H -1.91659 2.60867 0.442182 0
M  V30 31 H -1.9009 2.41455 -1.30778 0
M  V30 32 H -0.76739 0.100214 2.56804 0
M  V30 33 H -0.710765 1.944 2.52251 0
M  V30 34 H -0.538438 2.53611 -2.84971 0
M  V30 35 H -0.258804 0.848073 -3.41544 0
M  V30 36 H 3.95375 -1.16168 -2.06126 0
M  V30 37 H 4.24082 0.664308 -2.03917 0
M  V30 38 H 6.31618 -0.634517 -2.05911 0
M  V30 39 H 6.14635 0.487493 -0.67849 0
M  V30 40 H 4.51507 -2.65533 0.517496 0
M  V30 41 H 5.68762 -1.98491 1.67173 0
M  V30 42 H 3.43005 -0.944098 1.7224 0
M  V30 43 H 4.7825 0.22254 1.46019 0
M  V30 END ATOM
M  V30 BEGIN BOND
M  V30 1 1 1 2
M  V30 2 2 2 3
M  V30 3 1 3 4
M  V30 4 2 4 5
M  V30 5 1 5 6
M  V30 6 2 6 7
M  V30 7 1 5 8
M  V30 8 1 8 9
M  V30 9 2 9 10
M  V30 10 1 10 11
M  V30 11 1 10 12
M  V30 12 2 12 13
M  V30 13 1 13 14
M  V30 14 2 14 15
M  V30 15 1 15 16
M  V30 16 1 13 17
M  V30 17 1 17 18
M  V30 18 1 18 19
M  V30 19 1 19 20
M  V30 20 1 20 21
M  V30 21 1 21 22
M  V30 22 1 7 2
M  V30 23 1 15 9
M  V30 24 1 22 17
M  V30 25 1 1 23
M  V30 26 1 1 24
M  V30 27 1 1 25
M  V30 28 1 3 26
M  V30 29 1 4 27
M  V30 30 1 6 28
M  V30 31 1 7 29
M  V30 32 1 8 30
M  V30 33 1 8 31
M  V30 34 1 11 32
M  V30 35 1 11 33
M  V30 36 1 16 34
M  V30 37 1 16 35
M  V30 38 1 18 36
M  V30 39 1 18 37
M  V30 40 1 19 38
M  V30 41 1 19 39
M  V30 42 1 21 40
M  V30 43 1 21 41
M  V30 44 1 22 42
M  V30 45 1 22 43
M  V30 END BOND
M  V30 END CTAB
M  END
