
     RDKit          3D

  0  0  0  0  0  0  0  0  0  0999 V3000
M  V30 BEGIN CTAB
M  V30 COUNTS 22 23 0 0 0
M  V30 BEGIN ATOM
M  V30 1 C 4.03191 -0.170617 0.378845 0
M  V30 2 O 2.9858 -0.862097 -0.22174 0
M  V30 3 C 1.66134 -0.543456 -0.165452 0
M  V30 4 C 0.724231 -1.32251 -0.812617 0
M  V30 5 C -0.644443 -1.01454 -0.76902 0
M  V30 6 S -2.08184 -1.68862 -1.40544 0
M  V30 7 C -3.20386 -0.552634 -0.76545 0
M  V30 8 N -2.42189 0.264746 -0.111015 0
M  V30 9 C -1.12639 0.067622 -0.0877371 0
M  V30 10 C -0.181129 0.87157 0.577443 0
M  V30 11 C 1.13205 0.549338 0.517322 0
M  V30 12 N -0.561992 2.02332 1.31865 0
M  V30 13 N -4.64134 -0.52918 -0.924833 0
M  V30 14 H 4.38331 -0.658632 1.33164 0
M  V30 15 H 3.83753 0.879148 0.610874 0
M  V30 16 H 4.94714 -0.191157 -0.282128 0
M  V30 17 H 1.00889 -2.194 -1.37389 0
M  V30 18 H 1.8637 1.17377 1.03366 0
M  V30 19 H -0.46467 2.94474 0.829037 0
M  V30 20 H -0.919148 1.99951 2.28631 0
M  V30 21 H -5.13698 0.343786 -1.18921 0
M  V30 22 H -5.19219 -1.3901 -0.775258 0
M  V30 END ATOM
M  V30 BEGIN BOND
M  V30 1 1 1 2
M  V30 2 1 2 3
M  V30 3 2 3 4
M  V30 4 1 4 5
M  V30 5 1 5 6
M  V30 6 1 6 7
M  V30 7 2 7 8
M  V30 8 1 8 9
M  V30 9 1 9 10
M  V30 10 2 10 11
M  V30 11 1 10 12
M  V30 12 1 7 13
M  V30 13 1 11 3
M  V30 14 2 9 5
M  V30 15 1 1 14
M  V30 16 1 1 15
M  V30 17 1 1 16
M  V30 18 1 4 17
M  V30 19 1 11 18
M  V30 20 1 12 19
M  V30 21 1 12 20
M  V30 22 1 13 21
M  V30 23 1 13 22
M  V30 END BOND
M  V30 END CTAB
M  END
