
     RDKit          3D

  0  0  0  0  0  0  0  0  0  0999 V3000
M  V30 BEGIN CTAB
M  V30 COUNTS 46 48 0 0 0
M  V30 BEGIN ATOM
M  V30 1 N -0.317075 -1.6196 -4.11672 0
M  V30 2 C 0.106352 -0.846798 -3.00903 0
M  V30 3 C 1.37842 -0.98448 -2.53933 0
M  V30 4 C 1.79648 -0.224221 -1.44835 0
M  V30 5 N 3.13784 -0.361594 -1.01341 0
M  V30 6 C 0.972217 0.665416 -0.819726 0
M  V30 7 C -0.334031 0.753283 -1.36584 0
M  V30 8 C -0.787569 0.0425333 -2.41753 0
M  V30 9 S -2.40582 0.215045 -3.04542 0
M  V30 10 O -2.32485 0.787646 -4.4707 0
M  V30 11 O -3.00939 -1.17139 -3.17556 0
M  V30 12 N -3.40708 1.28382 -2.1747 0
M  V30 13 C -3.74156 1.04184 -0.802022 0
M  V30 14 C -4.05226 -0.199171 -0.302079 0
M  V30 15 C -4.38145 -0.44449 1.02513 0
M  V30 16 C -4.40155 0.609103 1.90271 0
M  V30 17 C -4.09305 1.87233 1.42929 0
M  V30 18 C -3.76971 2.09629 0.113016 0
M  V30 19 S 1.34101 1.62388 0.568859 0
M  V30 20 O 0.257256 2.68668 0.721191 0
M  V30 21 O 2.6075 2.44725 0.321599 0
M  V30 22 N 1.51604 0.830847 2.04511 0
M  V30 23 C 2.51261 -0.118146 2.33295 0
M  V30 24 C 3.86889 0.234229 2.37452 0
M  V30 25 C 4.82337 -0.675262 2.73792 0
M  V30 26 C 4.51767 -1.96566 3.07818 0
M  V30 27 C 3.18814 -2.33831 3.04533 0
M  V30 28 C 2.21677 -1.4312 2.68079 0
M  V30 29 H -0.468091 -2.6498 -4.03718 0
M  V30 30 H -0.478209 -1.13395 -5.02833 0
M  V30 31 H 2.10234 -1.66692 -2.97413 0
M  V30 32 H 3.42357 -1.19865 -0.483169 0
M  V30 33 H 3.82768 0.374996 -1.22711 0
M  V30 34 H -0.978691 1.46415 -0.871584 0
M  V30 35 H -3.81798 2.16793 -2.62157 0
M  V30 36 H -4.04105 -1.03921 -0.990614 0
M  V30 37 H -4.61998 -1.45103 1.36769 0
M  V30 38 H -4.65479 0.427427 2.92955 0
M  V30 39 H -4.12812 2.66797 2.18313 0
M  V30 40 H -3.5393 3.08914 -0.203856 0
M  V30 41 H 0.825837 1.04442 2.85351 0
M  V30 42 H 4.16166 1.2488 2.11265 0
M  V30 43 H 5.85632 -0.352617 2.75377 0
M  V30 44 H 5.23489 -2.71849 3.37118 0
M  V30 45 H 2.91981 -3.35719 3.31112 0
M  V30 46 H 1.15894 -1.72682 2.65433 0
M  V30 END ATOM
M  V30 BEGIN BOND
M  V30 1 1 1 2
M  V30 2 2 2 3
M  V30 3 1 3 4
M  V30 4 1 4 5
M  V30 5 2 4 6
M  V30 6 1 6 7
M  V30 7 2 7 8
M  V30 8 1 8 9
M  V30 9 2 9 10
M  V30 10 2 9 11
M  V30 11 1 9 12
M  V30 12 1 12 13
M  V30 13 2 13 14
M  V30 14 1 14 15
M  V30 15 2 15 16
M  V30 16 1 16 17
M  V30 17 2 17 18
M  V30 18 1 6 19
M  V30 19 2 19 20
M  V30 20 2 19 21
M  V30 21 1 19 22
M  V30 22 1 22 23
M  V30 23 2 23 24
M  V30 24 1 24 25
M  V30 25 2 25 26
M  V30 26 1 26 27
M  V30 27 2 27 28
M  V30 28 1 8 2
M  V30 29 1 18 13
M  V30 30 1 28 23
M  V30 31 1 1 29
M  V30 32 1 1 30
M  V30 33 1 3 31
M  V30 34 1 5 32
M  V30 35 1 5 33
M  V30 36 1 7 34
M  V30 37 1 12 35
M  V30 38 1 14 36
M  V30 39 1 15 37
M  V30 40 1 16 38
M  V30 41 1 17 39
M  V30 42 1 18 40
M  V30 43 1 22 41
M  V30 44 1 24 42
M  V30 45 1 25 43
M  V30 46 1 26 44
M  V30 47 1 27 45
M  V30 48 1 28 46
M  V30 END BOND
M  V30 END CTAB
M  END
