
     RDKit          3D

  0  0  0  0  0  0  0  0  0  0999 V3000
M  V30 BEGIN CTAB
M  V30 COUNTS 29 29 0 0 0
M  V30 BEGIN ATOM
M  V30 1 C 4.79159 -0.696886 0.781085 0
M  V30 2 O 3.9201 0.106676 0.0550625 0
M  V30 3 C 2.5585 -0.0695955 -0.104173 0
M  V30 4 O 2.03212 -1.05949 0.463533 0
M  V30 5 C 1.74621 0.895207 -0.92906 0
M  V30 6 C 0.328525 0.512533 -0.964553 0
M  V30 7 C -0.228812 -0.0991842 -2.07297 0
M  V30 8 C -1.55349 -0.473826 -2.13962 0
M  V30 9 C -2.39641 -0.244353 -1.06849 0
M  V30 10 C -1.85613 0.364448 0.043685 0
M  V30 11 C -0.518514 0.744537 0.115123 0
M  V30 12 N 0.0174175 1.37096 1.26728 0
M  V30 13 O -2.70815 0.589577 1.10916 0
M  V30 14 C -2.95916 -0.277039 2.16827 0
M  V30 15 N -3.7683 -0.624645 -1.11856 0
M  V30 16 H 5.55313 0.0076322 1.23454 0
M  V30 17 H 5.42321 -1.37542 0.152989 0
M  V30 18 H 4.36655 -1.28532 1.59022 0
M  V30 19 H 2.1609 0.827021 -1.94671 0
M  V30 20 H 1.872 1.88443 -0.445595 0
M  V30 21 H 0.455575 -0.270479 -2.90764 0
M  V30 22 H -1.96432 -0.959091 -3.03942 0
M  V30 23 H 0.122663 0.843517 2.15123 0
M  V30 24 H 0.312122 2.36392 1.24305 0
M  V30 25 H -2.76124 0.279534 3.12733 0
M  V30 26 H -2.34172 -1.19838 2.08599 0
M  V30 27 H -4.01684 -0.600216 2.24232 0
M  V30 28 H -4.20249 -1.10461 -0.299213 0
M  V30 29 H -4.385 -0.451453 -1.9421 0
M  V30 END ATOM
M  V30 BEGIN BOND
M  V30 1 1 1 2
M  V30 2 1 2 3
M  V30 3 2 3 4
M  V30 4 1 3 5
M  V30 5 1 5 6
M  V30 6 2 6 7
M  V30 7 1 7 8
M  V30 8 2 8 9
M  V30 9 1 9 10
M  V30 10 2 10 11
M  V30 11 1 11 12
M  V30 12 1 10 13
M  V30 13 1 13 14
M  V30 14 1 9 15
M  V30 15 1 11 6
M  V30 16 1 1 16
M  V30 17 1 1 17
M  V30 18 1 1 18
M  V30 19 1 5 19
M  V30 20 1 5 20
M  V30 21 1 7 21
M  V30 22 1 8 22
M  V30 23 1 12 23
M  V30 24 1 12 24
M  V30 25 1 14 25
M  V30 26 1 14 26
M  V30 27 1 14 27
M  V30 28 1 15 28
M  V30 29 1 15 29
M  V30 END BOND
M  V30 END CTAB
M  END
