
     RDKit          3D

  0  0  0  0  0  0  0  0  0  0999 V3000
M  V30 BEGIN CTAB
M  V30 COUNTS 32 34 0 0 0
M  V30 BEGIN ATOM
M  V30 1 O -4.85751 -0.726159 0.558758 0
M  V30 2 C -3.6415 -1.36469 0.450629 0
M  V30 3 C -2.55027 -0.37519 0.765631 0 CFG=1
M  V30 4 O -1.28191 -0.953452 0.675962 0
M  V30 5 C -0.466025 0.170097 0.837547 0 CFG=2
M  V30 6 C -0.974348 1.08958 -0.224303 0
M  V30 7 C -2.45128 0.722289 -0.283612 0 CFG=1
M  V30 8 N -2.8033 0.130685 -1.555 0
M  V30 9 N 0.904301 -0.202216 0.683152 0
M  V30 10 C 1.44204 -1.29581 1.25439 0
M  V30 11 N 2.74388 -1.39364 0.937101 0
M  V30 12 C 3.06583 -0.368339 0.158783 0
M  V30 13 C 1.9032 0.374531 0.0050327 0
M  V30 14 N 1.94647 1.47183 -0.739404 0
M  V30 15 C 3.10914 1.83807 -1.32527 0
M  V30 16 N 4.24119 1.11913 -1.17849 0
M  V30 17 C 4.25251 0.00122785 -0.436355 0
M  V30 18 N 5.42783 -0.780566 -0.260333 0
M  V30 19 H -4.94454 -0.131052 1.30982 0
M  V30 20 H -3.52001 -2.22271 1.11878 0
M  V30 21 H -3.50402 -1.71216 -0.598393 0
M  V30 22 H -2.71048 0.106631 1.75093 0
M  V30 23 H -0.705798 0.597289 1.82955 0
M  V30 24 H -0.92342 2.16383 0.10644 0
M  V30 25 H -0.554432 0.931172 -1.21644 0
M  V30 26 H -3.09961 1.58307 -0.0234843 0
M  V30 27 H -3.78678 0.286041 -1.8261 0
M  V30 28 H -2.11672 0.362436 -2.30605 0
M  V30 29 H 0.934338 -2.00627 1.87734 0
M  V30 30 H 3.16743 2.72463 -1.93359 0
M  V30 31 H 6.19736 -0.73195 -0.969176 0
M  V30 32 H 5.55643 -1.40833 0.556159 0
M  V30 END ATOM
M  V30 BEGIN BOND
M  V30 1 1 1 2
M  V30 2 1 2 3
M  V30 3 1 3 4
M  V30 4 1 4 5
M  V30 5 1 5 6
M  V30 6 1 6 7
M  V30 7 1 7 8
M  V30 8 1 5 9
M  V30 9 1 9 10
M  V30 10 2 10 11
M  V30 11 1 11 12
M  V30 12 2 12 13
M  V30 13 1 13 14
M  V30 14 2 14 15
M  V30 15 1 15 16
M  V30 16 2 16 17
M  V30 17 1 17 18
M  V30 18 1 7 3
M  V30 19 1 13 9
M  V30 20 1 17 12
M  V30 21 1 1 19
M  V30 22 1 2 20
M  V30 23 1 2 21
M  V30 24 1 3 22 CFG=1
M  V30 25 1 5 23 CFG=1
M  V30 26 1 6 24
M  V30 27 1 6 25
M  V30 28 1 7 26 CFG=1
M  V30 29 1 8 27
M  V30 30 1 8 28
M  V30 31 1 10 29
M  V30 32 1 15 30
M  V30 33 1 18 31
M  V30 34 1 18 32
M  V30 END BOND
M  V30 END CTAB
M  END
