
     RDKit          3D

  0  0  0  0  0  0  0  0  0  0999 V3000
M  V30 BEGIN CTAB
M  V30 COUNTS 125 130 0 0 0
M  V30 BEGIN ATOM
M  V30 1 N 7.72961 -0.650791 2.73102 0
M  V30 2 C 7.21767 0.121339 1.68918 0 CFG=1
M  V30 3 C 8.12242 0.0512516 0.483673 0
M  V30 4 C 9.47715 0.541343 0.732209 0
M  V30 5 C 10.5263 -0.241852 1.15898 0
M  V30 6 C 11.7884 0.26508 1.38458 0
M  V30 7 C 12.032 1.61107 1.18023 0
M  V30 8 C 10.9826 2.40369 0.751354 0
M  V30 9 C 9.72972 1.88982 0.5295 0
M  V30 10 C 5.87762 -0.376901 1.31117 0
M  V30 11 O 5.38918 -1.34542 1.94268 0
M  V30 12 N 5.12864 0.210329 0.25452 0
M  V30 13 C 3.81225 -0.214161 -0.1703 0 CFG=1
M  V30 14 C 2.86692 0.941251 0.125855 0
M  V30 15 C 2.78612 1.93399 -0.994374 0
M  V30 16 C 1.38015 2.5275 -0.994319 0
M  V30 17 N 0.897156 2.62587 0.355648 0
M  V30 18 C -0.266537 2.00821 0.864574 0
M  V30 19 O -0.185889 1.60726 2.07008 0
M  V30 20 C -1.52783 1.82437 0.0561897 0 CFG=2
M  V30 21 C -1.85671 3.22338 -0.458457 0
M  V30 22 C -3.09291 3.25571 -1.29737 0
M  V30 23 C -3.34037 4.67132 -1.75808 0
M  V30 24 N -3.51949 5.55652 -0.625543 0
M  V30 25 C -3.77183 6.93454 -0.886445 0
M  V30 26 N -4.63434 7.66535 -0.0328558 0
M  V30 27 N -3.22059 7.51627 -1.89378 0
M  V30 28 N -2.54669 1.51667 1.03527 0
M  V30 29 C -3.36155 0.36904 1.04039 0
M  V30 30 O -3.58115 -0.124837 2.20138 0
M  V30 31 C -3.97802 -0.313245 -0.101049 0 CFG=2
M  V30 32 C -5.25065 -1.06899 0.314851 0
M  V30 33 C -6.25559 -0.148259 0.865932 0
M  V30 34 C -6.67365 0.0851359 2.15271 0
M  V30 35 N -7.63009 1.03202 2.19136 0
M  V30 36 C -7.86117 1.43965 0.942333 0
M  V30 37 C -7.02387 0.726482 0.0894159 0
M  V30 38 C -7.1146 1.00904 -1.25352 0
M  V30 39 C -7.999 1.96324 -1.75235 0
M  V30 40 C -8.81068 2.64743 -0.872809 0
M  V30 41 C -8.74371 2.38797 0.47125 0
M  V30 42 N -3.12449 -1.05281 -0.977543 0
M  V30 43 C -2.27459 -2.14276 -0.800823 0
M  V30 44 O -2.62649 -3.20554 -1.4574 0
M  V30 45 C -1.04484 -2.34691 -0.0229366 0 CFG=1
M  V30 46 C -1.11882 -2.8044 1.35748 0
M  V30 47 C -1.67776 -4.03128 1.87218 0
M  V30 48 C -1.05691 -5.3208 1.40948 0
M  V30 49 C -1.99059 -6.20807 0.615476 0
M  V30 50 C -3.14842 -6.66901 1.45381 0
M  V30 51 C -3.39235 -5.61931 2.5144 0
M  V30 52 C -3.16475 -4.21244 1.92581 0
M  V30 53 N -0.0599538 -3.11173 -0.808847 0
M  V30 54 C 1.18885 -2.71925 -1.24839 0
M  V30 55 O 2.19352 -3.48491 -1.03148 0
M  V30 56 C 1.54294 -1.46932 -1.97574 0 CFG=2
M  V30 57 C 0.909773 -1.6597 -3.38644 0
M  V30 58 C 1.89898 -2.58792 -4.02733 0
M  V30 59 C 3.22135 -2.22058 -3.45615 0
M  V30 60 N 2.93844 -1.35569 -2.29367 0
M  V30 61 C 3.87433 -0.539666 -1.61598 0
M  V30 62 O 4.86545 -0.0232215 -2.26363 0
M  V30 63 H 8.11515 -1.51498 2.45524 0
M  V30 64 H 7.15912 -0.697779 3.54238 0
M  V30 65 H 7.15062 1.20948 2.02335 0
M  V30 66 H 7.63252 0.558179 -0.388466 0
M  V30 67 H 8.18028 -1.02776 0.185514 0
M  V30 68 H 10.3679 -1.31947 1.3315 0
M  V30 69 H 12.6156 -0.339704 1.71874 0
M  V30 70 H 12.9975 2.05032 1.34281 0
M  V30 71 H 11.0941 3.47446 0.567053 0
M  V30 72 H 8.91314 2.53664 0.190397 0
M  V30 73 H 5.54758 1.00574 -0.260273 0
M  V30 74 H 3.44752 -1.08084 0.428849 0
M  V30 75 H 3.27105 1.44356 1.05612 0
M  V30 76 H 1.87106 0.519507 0.327756 0
M  V30 77 H 2.91196 1.41317 -1.95908 0
M  V30 78 H 3.47758 2.77778 -0.864256 0
M  V30 79 H 0.70562 1.97667 -1.65918 0
M  V30 80 H 1.41911 3.57887 -1.39001 0
M  V30 81 H 1.49185 3.22242 1.00372 0
M  V30 82 H -1.41858 1.08703 -0.734756 0
M  V30 83 H -1.02427 3.67234 -1.03279 0
M  V30 84 H -2.00435 3.86555 0.435406 0
M  V30 85 H -3.98765 2.96906 -0.688027 0
M  V30 86 H -2.98455 2.61579 -2.18998 0
M  V30 87 H -4.23128 4.72758 -2.43551 0
M  V30 88 H -2.42839 5.01532 -2.31562 0
M  V30 89 H -3.48005 5.26875 0.356897 0
M  V30 90 H -5.67288 7.60575 -0.168912 0
M  V30 91 H -4.27736 8.2581 0.723473 0
M  V30 92 H -2.58212 7.03385 -2.55313 0
M  V30 93 H -2.64686 2.25677 1.79864 0
M  V30 94 H -4.47896 0.553206 -0.686285 0
M  V30 95 H -5.67367 -1.60379 -0.546097 0
M  V30 96 H -4.98307 -1.81884 1.08205 0
M  V30 97 H -6.3043 -0.414214 3.03345 0
M  V30 98 H -8.10765 1.38637 3.04675 0
M  V30 99 H -6.49438 0.488015 -1.96036 0
M  V30 100 H -8.08685 2.19968 -2.79486 0
M  V30 101 H -9.49709 3.3908 -1.26187 0
M  V30 102 H -9.40932 2.96076 1.117 0
M  V30 103 H -3.18093 -0.662907 -2.00972 0
M  V30 104 H -0.511536 -1.33196 0.0736439 0
M  V30 105 H -1.42292 -1.91114 2.0023 0
M  V30 106 H -0.000908711 -2.84807 1.67998 0
M  V30 107 H -1.42953 -4.01062 3.00007 0
M  V30 108 H -0.0896661 -5.22919 0.911289 0
M  V30 109 H -0.797138 -5.98545 2.31478 0
M  V30 110 H -1.38842 -7.12929 0.392153 0
M  V30 111 H -2.27363 -5.7957 -0.352063 0
M  V30 112 H -2.94367 -7.62654 1.93447 0
M  V30 113 H -4.06106 -6.71049 0.799097 0
M  V30 114 H -4.43372 -5.63109 2.88404 0
M  V30 115 H -2.72463 -5.76752 3.37387 0
M  V30 116 H -3.70261 -4.20282 0.990658 0
M  V30 117 H -3.61489 -3.54206 2.71593 0
M  V30 118 H -0.393126 -4.09115 -1.06192 0
M  V30 119 H 1.05187 -0.589069 -1.58546 0
M  V30 120 H -0.109797 -2.0311 -3.31186 0
M  V30 121 H 0.940288 -0.692788 -3.91656 0
M  V30 122 H 1.63493 -3.65814 -3.89809 0
M  V30 123 H 1.85559 -2.41396 -5.13928 0
M  V30 124 H 3.79445 -1.60309 -4.18894 0
M  V30 125 H 3.75483 -3.13237 -3.15907 0
M  V30 END ATOM
M  V30 BEGIN BOND
M  V30 1 1 1 2
M  V30 2 1 2 3
M  V30 3 1 3 4
M  V30 4 2 4 5
M  V30 5 1 5 6
M  V30 6 2 6 7
M  V30 7 1 7 8
M  V30 8 2 8 9
M  V30 9 1 2 10
M  V30 10 2 10 11
M  V30 11 1 10 12
M  V30 12 1 12 13
M  V30 13 1 13 14
M  V30 14 1 14 15
M  V30 15 1 15 16
M  V30 16 1 16 17
M  V30 17 1 17 18
M  V30 18 2 18 19
M  V30 19 1 18 20
M  V30 20 1 20 21
M  V30 21 1 21 22
M  V30 22 1 22 23
M  V30 23 1 23 24
M  V30 24 1 24 25
M  V30 25 1 25 26
M  V30 26 2 25 27 CFG=2
M  V30 27 1 20 28
M  V30 28 1 28 29
M  V30 29 2 29 30
M  V30 30 1 29 31
M  V30 31 1 31 32
M  V30 32 1 32 33
M  V30 33 2 33 34
M  V30 34 1 34 35
M  V30 35 1 35 36
M  V30 36 2 36 37
M  V30 37 1 37 38
M  V30 38 2 38 39
M  V30 39 1 39 40
M  V30 40 2 40 41
M  V30 41 1 31 42
M  V30 42 1 42 43
M  V30 43 2 43 44
M  V30 44 1 43 45
M  V30 45 1 45 46
M  V30 46 1 46 47
M  V30 47 1 47 48
M  V30 48 1 48 49
M  V30 49 1 49 50
M  V30 50 1 50 51
M  V30 51 1 51 52
M  V30 52 1 45 53
M  V30 53 1 53 54
M  V30 54 2 54 55
M  V30 55 1 54 56
M  V30 56 1 56 57
M  V30 57 1 57 58
M  V30 58 1 58 59
M  V30 59 1 59 60
M  V30 60 1 60 61
M  V30 61 2 61 62
M  V30 62 1 9 4
M  V30 63 1 61 13
M  V30 64 1 37 33
M  V30 65 1 52 47
M  V30 66 1 60 56
M  V30 67 1 41 36
M  V30 68 1 1 63
M  V30 69 1 1 64
M  V30 70 1 2 65 CFG=1
M  V30 71 1 3 66
M  V30 72 1 3 67
M  V30 73 1 5 68
M  V30 74 1 6 69
M  V30 75 1 7 70
M  V30 76 1 8 71
M  V30 77 1 9 72
M  V30 78 1 12 73
M  V30 79 1 13 74 CFG=1
M  V30 80 1 14 75
M  V30 81 1 14 76
M  V30 82 1 15 77
M  V30 83 1 15 78
M  V30 84 1 16 79
M  V30 85 1 16 80
M  V30 86 1 17 81
M  V30 87 1 20 82 CFG=3
M  V30 88 1 21 83
M  V30 89 1 21 84
M  V30 90 1 22 85
M  V30 91 1 22 86
M  V30 92 1 23 87
M  V30 93 1 23 88
M  V30 94 1 24 89
M  V30 95 1 26 90
M  V30 96 1 26 91
M  V30 97 1 27 92
M  V30 98 1 28 93
M  V30 99 1 31 94 CFG=3
M  V30 100 1 32 95
M  V30 101 1 32 96
M  V30 102 1 34 97
M  V30 103 1 35 98
M  V30 104 1 38 99
M  V30 105 1 39 100
M  V30 106 1 40 101
M  V30 107 1 41 102
M  V30 108 1 42 103
M  V30 109 1 45 104 CFG=1
M  V30 110 1 46 105
M  V30 111 1 46 106
M  V30 112 1 47 107
M  V30 113 1 48 108
M  V30 114 1 48 109
M  V30 115 1 49 110
M  V30 116 1 49 111
M  V30 117 1 50 112
M  V30 118 1 50 113
M  V30 119 1 51 114
M  V30 120 1 51 115
M  V30 121 1 52 116
M  V30 122 1 52 117
M  V30 123 1 53 118
M  V30 124 1 56 119 CFG=1
M  V30 125 1 57 120
M  V30 126 1 57 121
M  V30 127 1 58 122
M  V30 128 1 58 123
M  V30 129 1 59 124
M  V30 130 1 59 125
M  V30 END BOND
M  V30 END CTAB
M  END
