
     RDKit          3D

  0  0  0  0  0  0  0  0  0  0999 V3000
M  V30 BEGIN CTAB
M  V30 COUNTS 23 23 0 0 0
M  V30 BEGIN ATOM
M  V30 1 C -3.15242 -0.156579 0.223639 0
M  V30 2 C -2.30089 -0.954462 -0.688577 0
M  V30 3 C -0.834551 -0.987768 -0.372872 0
M  V30 4 C -0.234665 0.364213 -0.421747 0 CFG=2
M  V30 5 C 1.2334 0.349175 -0.118813 0
M  V30 6 N 2.08424 -0.661167 -0.011919 0
M  V30 7 C 3.28224 -0.12271 0.27307 0
M  V30 8 N 3.11817 1.22181 0.331294 0
M  V30 9 O 1.88709 1.46624 0.0931398 0
M  V30 10 N 4.53022 -0.739502 0.4892 0
M  V30 11 N -0.879798 1.25813 0.483811 0
M  V30 12 H -2.84559 -0.155799 1.28922 0
M  V30 13 H -4.1834 -0.624352 0.219301 0
M  V30 14 H -3.33771 0.884148 -0.0875643 0
M  V30 15 H -2.45987 -0.52627 -1.72504 0
M  V30 16 H -2.71852 -2.00029 -0.7948 0
M  V30 17 H -0.753964 -1.38267 0.680725 0
M  V30 18 H -0.375167 -1.70174 -1.09115 0
M  V30 19 H -0.331293 0.760631 -1.45193 0
M  V30 20 H 5.11393 -1.01282 -0.314144 0
M  V30 21 H 4.85885 -0.917071 1.44819 0
M  V30 22 H -0.534144 1.25113 1.44732 0
M  V30 23 H -1.16616 2.16231 0.0996559 0
M  V30 END ATOM
M  V30 BEGIN BOND
M  V30 1 1 1 2
M  V30 2 1 2 3
M  V30 3 1 3 4
M  V30 4 1 4 5
M  V30 5 2 5 6
M  V30 6 1 6 7
M  V30 7 2 7 8
M  V30 8 1 8 9
M  V30 9 1 7 10
M  V30 10 1 4 11
M  V30 11 1 9 5
M  V30 12 1 1 12
M  V30 13 1 1 13
M  V30 14 1 1 14
M  V30 15 1 2 15
M  V30 16 1 2 16
M  V30 17 1 3 17
M  V30 18 1 3 18
M  V30 19 1 4 19 CFG=3
M  V30 20 1 10 20
M  V30 21 1 10 21
M  V30 22 1 11 22
M  V30 23 1 11 23
M  V30 END BOND
M  V30 END CTAB
M  END
