
     RDKit          3D

  0  0  0  0  0  0  0  0  0  0999 V3000
M  V30 BEGIN CTAB
M  V30 COUNTS 43 45 0 0 0
M  V30 BEGIN ATOM
M  V30 1 O 8.07153 -0.109173 -1.06848 0
M  V30 2 C 6.78695 0.304531 -0.792983 0
M  V30 3 O 6.55783 1.5195 -0.632975 0
M  V30 4 C 5.66447 -0.630504 -0.678215 0
M  V30 5 C 4.44269 -0.210135 -0.413575 0
M  V30 6 C 3.30464 -1.12043 -0.293554 0
M  V30 7 O 3.54856 -2.35263 -0.457957 0
M  V30 8 N 1.9955 -0.644071 -0.00745902 0
M  V30 9 C 1.92128 0.784404 0.144918 0
M  V30 10 C 0.542111 1.31524 0.325696 0
M  V30 11 C -0.440189 0.49313 -0.494101 0
M  V30 12 C -1.12714 -0.445188 0.475418 0
M  V30 13 C -0.0996706 -1.37695 1.05701 0
M  V30 14 C 1.00301 -1.69507 0.0722556 0
M  V30 15 O -1.76644 0.353193 1.44647 0
M  V30 16 C -3.01405 0.687386 0.95545 0
M  V30 17 C -3.35959 -0.210008 -0.0173334 0
M  V30 18 C -2.27274 -1.20036 -0.193222 0
M  V30 19 C -4.57765 -0.0917501 -0.670917 0
M  V30 20 N -4.90426 -1.04056 -1.67501 0
M  V30 21 N -5.39922 0.915794 -0.327485 0
M  V30 22 C -5.08294 1.82158 0.633869 0
M  V30 23 N -3.89915 1.67726 1.24444 0
M  V30 24 N -5.9927 2.86132 0.949737 0
M  V30 25 H 8.7753 -0.273232 -0.344021 0
M  V30 26 H 5.86236 -1.6956 -0.817951 0
M  V30 27 H 4.28657 0.868782 -0.280148 0
M  V30 28 H 2.59664 1.13576 0.934498 0
M  V30 29 H 2.32079 1.22238 -0.815415 0
M  V30 30 H 0.48336 2.38181 -0.0014471 0
M  V30 31 H 0.267762 1.3035 1.40858 0
M  V30 32 H 0.0919551 -0.0224491 -1.2999 0
M  V30 33 H -1.21139 1.13176 -0.968029 0
M  V30 34 H -0.604002 -2.33843 1.28831 0
M  V30 35 H 0.343613 -0.977112 1.96991 0
M  V30 36 H 0.585583 -1.96539 -0.921943 0
M  V30 37 H 1.50661 -2.61164 0.44729 0
M  V30 38 H -2.47801 -2.16374 0.279483 0
M  V30 39 H -1.97825 -1.31262 -1.26296 0
M  V30 40 H -4.7845 -2.06621 -1.55396 0
M  V30 41 H -5.2836 -0.702204 -2.58207 0
M  V30 42 H -5.91915 3.81274 0.545027 0
M  V30 43 H -6.76448 2.66538 1.61244 0
M  V30 END ATOM
M  V30 BEGIN BOND
M  V30 1 1 1 2
M  V30 2 2 2 3
M  V30 3 1 2 4
M  V30 4 2 4 5
M  V30 5 1 5 6
M  V30 6 2 6 7
M  V30 7 1 6 8
M  V30 8 1 8 9
M  V30 9 1 9 10
M  V30 10 1 10 11
M  V30 11 1 11 12
M  V30 12 1 12 13
M  V30 13 1 13 14
M  V30 14 1 12 15
M  V30 15 1 15 16
M  V30 16 2 16 17
M  V30 17 1 17 18
M  V30 18 1 17 19
M  V30 19 1 19 20
M  V30 20 2 19 21
M  V30 21 1 21 22
M  V30 22 2 22 23
M  V30 23 1 22 24
M  V30 24 1 14 8
M  V30 25 1 23 16
M  V30 26 1 18 12
M  V30 27 1 1 25
M  V30 28 1 4 26
M  V30 29 1 5 27
M  V30 30 1 9 28
M  V30 31 1 9 29
M  V30 32 1 10 30
M  V30 33 1 10 31
M  V30 34 1 11 32
M  V30 35 1 11 33
M  V30 36 1 13 34
M  V30 37 1 13 35
M  V30 38 1 14 36
M  V30 39 1 14 37
M  V30 40 1 18 38
M  V30 41 1 18 39
M  V30 42 1 20 40
M  V30 43 1 20 41
M  V30 44 1 24 42
M  V30 45 1 24 43
M  V30 END BOND
M  V30 END CTAB
M  END
