
     RDKit          3D

  0  0  0  0  0  0  0  0  0  0999 V3000
M  V30 BEGIN CTAB
M  V30 COUNTS 52 54 0 0 0
M  V30 BEGIN ATOM
M  V30 1 N 0.283227 0.419846 1.43378 0
M  V30 2 C 0.0241715 -0.088958 0.111512 0
M  V30 3 C 0.941082 -1.30399 -0.0716597 0
M  V30 4 C 2.33391 -0.78724 0.0834343 0
M  V30 5 C 3.01278 -0.337385 -1.03038 0
M  V30 6 C 4.30724 0.149088 -0.923801 0
M  V30 7 C 4.96121 0.201966 0.28867 0
M  V30 8 N 6.28909 0.698851 0.410886 0
M  V30 9 C 6.93796 1.14593 -0.756885 0
M  V30 10 N 7.84538 0.292243 -1.4151 0
M  V30 11 N 6.69747 2.31751 -1.20558 0
M  V30 12 C 4.26162 -0.253836 1.38977 0
M  V30 13 C 2.97337 -0.739819 1.29479 0
M  V30 14 P -1.71345 -0.591186 -0.022682 0
M  V30 15 O -2.03236 -0.97737 -1.45289 0
M  V30 16 O -2.00215 -1.95659 0.961684 0
M  V30 17 C -3.2707 -2.51051 1.02428 0
M  V30 18 C -3.52506 -3.61459 1.81427 0
M  V30 19 C -4.78333 -4.17052 1.88144 0
M  V30 20 C -5.84324 -3.65495 1.16776 0
M  V30 21 C -5.60037 -2.55554 0.378083 0
M  V30 22 C -4.33541 -1.99879 0.31222 0
M  V30 23 O -2.67046 0.708417 0.524775 0
M  V30 24 C -2.94325 1.8386 -0.217523 0
M  V30 25 C -4.03794 1.91646 -1.0445 0
M  V30 26 C -4.33026 3.04928 -1.80218 0
M  V30 27 C -3.49857 4.14728 -1.73251 0
M  V30 28 C -2.39767 4.07778 -0.905087 0
M  V30 29 C -2.11106 2.95451 -0.156145 0
M  V30 30 H -0.572047 0.36949 1.99702 0
M  V30 31 H 0.776121 1.31939 1.43356 0
M  V30 32 H 0.264521 0.617128 -0.687241 0
M  V30 33 H 0.869292 -1.71786 -1.09096 0
M  V30 34 H 0.740071 -2.05934 0.699874 0
M  V30 35 H 2.55405 -0.349513 -2.03095 0
M  V30 36 H 4.8595 0.509565 -1.79683 0
M  V30 37 H 6.79213 0.743481 1.32024 0
M  V30 38 H 8.85868 0.248682 -1.10541 0
M  V30 39 H 7.61167 -0.332624 -2.21559 0
M  V30 40 H 6.04278 2.9939 -0.770534 0
M  V30 41 H 4.78839 -0.209378 2.35523 0
M  V30 42 H 2.44641 -1.09472 2.19365 0
M  V30 43 H -2.70987 -4.02913 2.37727 0
M  V30 44 H -4.99674 -5.04879 2.50668 0
M  V30 45 H -6.82617 -4.12047 1.24464 0
M  V30 46 H -6.43939 -2.15038 -0.184523 0
M  V30 47 H -4.21467 -1.14602 -0.320038 0
M  V30 48 H -4.70163 1.06643 -1.11277 0
M  V30 49 H -5.21606 3.07969 -2.45557 0
M  V30 50 H -3.72343 5.02721 -2.31946 0
M  V30 51 H -1.74214 4.95819 -0.857416 0
M  V30 52 H -1.23472 2.94857 0.47868 0
M  V30 END ATOM
M  V30 BEGIN BOND
M  V30 1 1 1 2
M  V30 2 1 2 3
M  V30 3 1 3 4
M  V30 4 2 4 5
M  V30 5 1 5 6
M  V30 6 2 6 7
M  V30 7 1 7 8
M  V30 8 1 8 9
M  V30 9 1 9 10
M  V30 10 2 9 11 CFG=2
M  V30 11 1 7 12
M  V30 12 2 12 13
M  V30 13 1 2 14
M  V30 14 2 14 15
M  V30 15 1 14 16
M  V30 16 1 16 17
M  V30 17 2 17 18
M  V30 18 1 18 19
M  V30 19 2 19 20
M  V30 20 1 20 21
M  V30 21 2 21 22
M  V30 22 1 14 23
M  V30 23 1 23 24
M  V30 24 2 24 25
M  V30 25 1 25 26
M  V30 26 2 26 27
M  V30 27 1 27 28
M  V30 28 2 28 29
M  V30 29 1 13 4
M  V30 30 1 22 17
M  V30 31 1 29 24
M  V30 32 1 1 30
M  V30 33 1 1 31
M  V30 34 1 2 32
M  V30 35 1 3 33
M  V30 36 1 3 34
M  V30 37 1 5 35
M  V30 38 1 6 36
M  V30 39 1 8 37
M  V30 40 1 10 38
M  V30 41 1 10 39
M  V30 42 1 11 40
M  V30 43 1 12 41
M  V30 44 1 13 42
M  V30 45 1 18 43
M  V30 46 1 19 44
M  V30 47 1 20 45
M  V30 48 1 21 46
M  V30 49 1 22 47
M  V30 50 1 25 48
M  V30 51 1 26 49
M  V30 52 1 27 50
M  V30 53 1 28 51
M  V30 54 1 29 52
M  V30 END BOND
M  V30 END CTAB
M  END
