
     RDKit          3D

  0  0  0  0  0  0  0  0  0  0999 V3000
M  V30 BEGIN CTAB
M  V30 COUNTS 57 61 0 0 0
M  V30 BEGIN ATOM
M  V30 1 C -1.43661 -1.22719 4.13315 0
M  V30 2 C -1.28658 -0.75285 2.73693 0
M  V30 3 C -0.451699 0.241491 2.27795 0
M  V30 4 N -0.585975 0.389243 0.956425 0
M  V30 5 C -1.49229 -0.491418 0.552401 0
M  V30 6 C -1.96052 -1.23257 1.64321 0
M  V30 7 C -2.96786 -2.25896 1.46294 0
M  V30 8 O -3.18641 -3.13859 2.36463 0
M  V30 9 C -3.76092 -2.30489 0.226382 0
M  V30 10 C -3.59931 -1.06948 -0.599665 0
M  V30 11 C -4.17245 -1.21318 -1.97476 0
M  V30 12 C -4.17548 0.159537 0.0270867 0
M  V30 13 C -2.09 -0.822128 -0.776517 0
M  V30 14 C 0.0986286 1.33685 0.164501 0
M  V30 15 C 0.994079 0.940247 -0.807284 0
M  V30 16 S 1.359 -0.734203 -1.15664 0
M  V30 17 C 2.58746 -1.53661 -0.22256 0
M  V30 18 C 3.90587 -1.60592 -0.571234 0
M  V30 19 N 4.45625 -1.05334 -1.73305 0
M  V30 20 C 4.82405 -2.29085 0.250519 0
M  V30 21 C 4.43416 -2.89895 1.40248 0
M  V30 22 C 3.12177 -2.84105 1.76635 0
M  V30 23 C 2.24477 -2.17715 0.965945 0
M  V30 24 C 1.59412 1.98366 -1.55038 0
M  V30 25 N 2.45692 1.69913 -2.53181 0
M  V30 26 C 3.04105 2.62124 -3.28187 0
M  V30 27 N 2.76334 3.93049 -3.05996 0
M  V30 28 C 1.90627 4.29847 -2.09202 0
M  V30 29 N 1.59037 5.65819 -1.83351 0
M  V30 30 C 1.30736 3.30859 -1.32016 0
M  V30 31 C 0.400663 3.67971 -0.331617 0
M  V30 32 C -0.193542 2.6966 0.398471 0
M  V30 33 H -0.483639 -1.04739 4.67621 0
M  V30 34 H -2.2347 -0.693642 4.69001 0
M  V30 35 H -1.72889 -2.30786 4.17164 0
M  V30 36 H 0.210882 0.813404 2.89503 0
M  V30 37 H -3.34837 -3.15705 -0.378511 0
M  V30 38 H -4.83378 -2.4847 0.443992 0
M  V30 39 H -4.12778 -2.23791 -2.36856 0
M  V30 40 H -5.26194 -0.962142 -1.90823 0
M  V30 41 H -3.71628 -0.512681 -2.68487 0
M  V30 42 H -4.64127 0.832718 -0.734477 0
M  V30 43 H -3.38807 0.737582 0.549013 0
M  V30 44 H -4.98541 -0.110937 0.732644 0
M  V30 45 H -1.99149 0.00912299 -1.49143 0
M  V30 46 H -1.63415 -1.77061 -1.10652 0
M  V30 47 H 4.87967 -0.10021 -1.68629 0
M  V30 48 H 4.47246 -1.53417 -2.65516 0
M  V30 49 H 5.86096 -2.32837 -0.0499705 0
M  V30 50 H 5.19042 -3.41982 2.00961 0
M  V30 51 H 2.79276 -3.3241 2.68683 0
M  V30 52 H 1.20767 -2.15548 1.27466 0
M  V30 53 H 3.74004 2.42706 -4.08044 0
M  V30 54 H 0.932736 6.21081 -2.41494 0
M  V30 55 H 2.03899 6.12072 -1.02415 0
M  V30 56 H 0.220191 4.73495 -0.199613 0
M  V30 57 H -0.897514 2.96658 1.16719 0
M  V30 END ATOM
M  V30 BEGIN BOND
M  V30 1 1 1 2
M  V30 2 2 2 3
M  V30 3 1 3 4
M  V30 4 1 4 5
M  V30 5 2 5 6
M  V30 6 1 6 7
M  V30 7 2 7 8
M  V30 8 1 7 9
M  V30 9 1 9 10
M  V30 10 1 10 11
M  V30 11 1 10 12
M  V30 12 1 10 13
M  V30 13 1 4 14
M  V30 14 2 14 15
M  V30 15 1 15 16
M  V30 16 1 16 17
M  V30 17 2 17 18
M  V30 18 1 18 19
M  V30 19 1 18 20
M  V30 20 2 20 21
M  V30 21 1 21 22
M  V30 22 2 22 23
M  V30 23 1 15 24
M  V30 24 2 24 25
M  V30 25 1 25 26
M  V30 26 2 26 27
M  V30 27 1 27 28
M  V30 28 1 28 29
M  V30 29 2 28 30
M  V30 30 1 30 31
M  V30 31 2 31 32
M  V30 32 1 6 2
M  V30 33 1 32 14
M  V30 34 1 13 5
M  V30 35 1 23 17
M  V30 36 1 30 24
M  V30 37 1 1 33
M  V30 38 1 1 34
M  V30 39 1 1 35
M  V30 40 1 3 36
M  V30 41 1 9 37
M  V30 42 1 9 38
M  V30 43 1 11 39
M  V30 44 1 11 40
M  V30 45 1 11 41
M  V30 46 1 12 42
M  V30 47 1 12 43
M  V30 48 1 12 44
M  V30 49 1 13 45
M  V30 50 1 13 46
M  V30 51 1 19 47
M  V30 52 1 19 48
M  V30 53 1 20 49
M  V30 54 1 21 50
M  V30 55 1 22 51
M  V30 56 1 23 52
M  V30 57 1 26 53
M  V30 58 1 29 54
M  V30 59 1 29 55
M  V30 60 1 31 56
M  V30 61 1 32 57
M  V30 END BOND
M  V30 END CTAB
M  END
