
     RDKit          3D

  0  0  0  0  0  0  0  0  0  0999 V3000
M  V30 BEGIN CTAB
M  V30 COUNTS 28 28 0 0 0
M  V30 BEGIN ATOM
M  V30 1 C -3.45879 -2.42325 0.526486 0
M  V30 2 O -2.82459 -1.20838 0.799561 0
M  V30 3 C -1.56036 -0.840938 0.348044 0
M  V30 4 C -1.044 0.38351 0.683005 0
M  V30 5 O -1.80444 1.25559 1.48305 0
M  V30 6 C -1.24939 2.51766 1.81659 0
M  V30 7 C 0.206087 0.732065 0.229221 0
M  V30 8 C 0.93716 -0.131266 -0.552151 0
M  V30 9 C 2.27253 0.240618 -1.04262 0
M  V30 10 O 2.83497 -0.626309 -1.74416 0
M  V30 11 N 2.83359 1.50181 -0.717582 0
M  V30 12 N 3.32685 2.61042 -0.431904 0
M  V30 13 C 0.406097 -1.3591 -0.88165 0
M  V30 14 N 1.14531 -2.27915 -1.69281 0
M  V30 15 C -0.843247 -1.72641 -0.43682 0
M  V30 16 H -4.22139 -2.56965 1.34757 0
M  V30 17 H -2.73372 -3.24937 0.595516 0
M  V30 18 H -3.96714 -2.39977 -0.47434 0
M  V30 19 H -2.02081 3.12809 2.32366 0
M  V30 20 H -0.866034 3.07103 0.943493 0
M  V30 21 H -0.386928 2.3002 2.48565 0
M  V30 22 H 0.592167 1.72256 0.519049 0
M  V30 23 H 3.96491 1.18773 -1.47353 0
M  V30 24 H 2.70481 3.35395 0.0183116 0
M  V30 25 H 4.25833 2.69887 0.06063 0
M  V30 26 H 1.88123 -2.89993 -1.32324 0
M  V30 27 H 0.883314 -2.28163 -2.70653 0
M  V30 28 H -1.26653 -2.70897 -0.702491 0
M  V30 END ATOM
M  V30 BEGIN BOND
M  V30 1 1 1 2
M  V30 2 1 2 3
M  V30 3 2 3 4
M  V30 4 1 4 5
M  V30 5 1 5 6
M  V30 6 1 4 7
M  V30 7 2 7 8
M  V30 8 1 8 9
M  V30 9 2 9 10
M  V30 10 1 9 11
M  V30 11 1 11 12
M  V30 12 1 8 13
M  V30 13 1 13 14
M  V30 14 2 13 15
M  V30 15 1 15 3
M  V30 16 1 1 16
M  V30 17 1 1 17
M  V30 18 1 1 18
M  V30 19 1 6 19
M  V30 20 1 6 20
M  V30 21 1 6 21
M  V30 22 1 7 22
M  V30 23 1 11 23
M  V30 24 1 12 24
M  V30 25 1 12 25
M  V30 26 1 14 26
M  V30 27 1 14 27
M  V30 28 1 15 28
M  V30 END BOND
M  V30 END CTAB
M  END
