
     RDKit          3D

  0  0  0  0  0  0  0  0  0  0999 V3000
M  V30 BEGIN CTAB
M  V30 COUNTS 20 20 0 0 0
M  V30 BEGIN ATOM
M  V30 1 N -1.11089 2.71488 1.88863 0
M  V30 2 C -0.701893 2.31833 0.880064 0
M  V30 3 C -0.166033 1.79034 -0.399652 0
M  V30 4 C -0.0120178 0.304119 -0.191674 0
M  V30 5 C -1.13428 -0.50467 -0.22569 0
M  V30 6 N -2.43394 0.01543 -0.464076 0
M  V30 7 C -0.951688 -1.87235 -0.0189667 0
M  V30 8 C 0.314185 -2.38204 0.210206 0
M  V30 9 C 1.39761 -1.52894 0.232963 0
M  V30 10 C 1.2537 -0.174059 0.0329026 0
M  V30 11 N 2.34809 0.733286 0.0500517 0
M  V30 12 Cl 2.9975 -2.18612 0.522412 0
M  V30 13 H -0.907962 1.89886 -1.19968 0
M  V30 14 H 0.800452 2.25419 -0.576317 0
M  V30 15 H -3.23695 -0.624413 -0.63657 0
M  V30 16 H -2.60306 1.02078 -0.471514 0
M  V30 17 H -1.82255 -2.49035 -0.0460992 0
M  V30 18 H 0.418565 -3.44784 0.365576 0
M  V30 19 H 2.8907 0.929203 -0.842142 0
M  V30 20 H 2.66045 1.23134 0.889577 0
M  V30 END ATOM
M  V30 BEGIN BOND
M  V30 1 3 1 2
M  V30 2 1 2 3
M  V30 3 1 3 4
M  V30 4 2 4 5
M  V30 5 1 5 6
M  V30 6 1 5 7
M  V30 7 2 7 8
M  V30 8 1 8 9
M  V30 9 2 9 10
M  V30 10 1 10 11
M  V30 11 1 9 12
M  V30 12 1 10 4
M  V30 13 1 3 13
M  V30 14 1 3 14
M  V30 15 1 6 15
M  V30 16 1 6 16
M  V30 17 1 7 17
M  V30 18 1 8 18
M  V30 19 1 11 19
M  V30 20 1 11 20
M  V30 END BOND
M  V30 END CTAB
M  END
