
     RDKit          3D

  0  0  0  0  0  0  0  0  0  0999 V3000
M  V30 BEGIN CTAB
M  V30 COUNTS 30 30 0 0 0
M  V30 BEGIN ATOM
M  V30 1 C 3.61383 1.00522 -0.932497 0
M  V30 2 C 2.84863 -0.0918895 -0.180373 0
M  V30 3 N 1.46982 0.262429 -0.295822 0
M  V30 4 C 0.540807 -0.627969 0.326287 0
M  V30 5 C -0.812666 -0.0848475 0.132958 0
M  V30 6 N -1.38943 0.642501 1.08083 0
M  V30 7 C -2.64155 1.13693 0.870849 0
M  V30 8 N -3.26642 1.91893 1.87897 0
M  V30 9 N -3.29053 0.889371 -0.288544 0
M  V30 10 C -2.70888 0.152575 -1.25557 0
M  V30 11 N -1.45589 -0.325154 -1.01034 0
M  V30 12 N -3.30498 -0.156133 -2.4953 0
M  V30 13 C 0.583756 -2.01186 -0.295115 0
M  V30 14 C 0.77828 -0.826944 1.8148 0
M  V30 15 H 4.58259 1.17182 -0.436334 0
M  V30 16 H 3.70588 0.787189 -2.00469 0
M  V30 17 H 3.06888 1.98016 -0.860506 0
M  V30 18 H 3.23788 -0.198625 0.850946 0
M  V30 19 H 3.06835 -1.04467 -0.71815 0
M  V30 20 H 1.27945 1.24066 -0.0680789 0
M  V30 21 H -2.79749 2.07113 2.78655 0
M  V30 22 H -4.20481 2.35777 1.73709 0
M  V30 23 H -3.3252 0.591801 -3.21482 0
M  V30 24 H -3.6957 -1.09761 -2.64678 0
M  V30 25 H 0.383254 -1.86746 -1.37633 0
M  V30 26 H 1.55084 -2.52234 -0.108144 0
M  V30 27 H -0.215201 -2.62239 0.153971 0
M  V30 28 H 1.70032 -1.40239 1.98384 0
M  V30 29 H 0.7585 0.120114 2.36476 0
M  V30 30 H -0.0623138 -1.44831 2.20553 0
M  V30 END ATOM
M  V30 BEGIN BOND
M  V30 1 1 1 2
M  V30 2 1 2 3
M  V30 3 1 3 4
M  V30 4 1 4 5
M  V30 5 2 5 6
M  V30 6 1 6 7
M  V30 7 1 7 8
M  V30 8 2 7 9
M  V30 9 1 9 10
M  V30 10 2 10 11
M  V30 11 1 10 12
M  V30 12 1 4 13
M  V30 13 1 4 14
M  V30 14 1 11 5
M  V30 15 1 1 15
M  V30 16 1 1 16
M  V30 17 1 1 17
M  V30 18 1 2 18
M  V30 19 1 2 19
M  V30 20 1 3 20
M  V30 21 1 8 21
M  V30 22 1 8 22
M  V30 23 1 12 23
M  V30 24 1 12 24
M  V30 25 1 13 25
M  V30 26 1 13 26
M  V30 27 1 13 27
M  V30 28 1 14 28
M  V30 29 1 14 29
M  V30 30 1 14 30
M  V30 END BOND
M  V30 END CTAB
M  END
