
     RDKit          3D

  0  0  0  0  0  0  0  0  0  0999 V3000
M  V30 BEGIN CTAB
M  V30 COUNTS 41 41 0 0 0
M  V30 BEGIN ATOM
M  V30 1 C 5.92816 -0.70649 0.988842 0
M  V30 2 C 5.68491 0.385792 -0.0349319 0
M  V30 3 C 4.31658 0.967231 0.147695 0
M  V30 4 C 3.25671 -0.109992 -0.0231341 0
M  V30 5 C 1.86929 0.47234 0.158176 0
M  V30 6 C 0.804402 -0.589913 -0.0138134 0
M  V30 7 C -0.577287 -0.00158496 0.165554 0
M  V30 8 C -1.66246 -1.02826 -0.000919758 0
M  V30 9 C -2.94577 -0.38954 0.183058 0
M  V30 10 C -3.41409 -0.0742857 1.43334 0
M  V30 11 N -2.61218 -0.403171 2.55597 0
M  V30 12 N -4.61356 0.535876 1.61665 0
M  V30 13 C -5.37887 0.845578 0.532181 0
M  V30 14 N -6.61608 1.47639 0.714343 0
M  V30 15 N -4.90511 0.529555 -0.681938 0
M  V30 16 C -3.72853 -0.0720236 -0.908925 0
M  V30 17 C -3.26904 -0.389734 -2.25041 0
M  V30 18 H 5.63582 -0.38083 2.00618 0
M  V30 19 H 7.01276 -0.965207 0.956202 0
M  V30 20 H 5.33621 -1.59065 0.728149 0
M  V30 21 H 6.43071 1.19376 0.134312 0
M  V30 22 H 5.77784 0.00951675 -1.06195 0
M  V30 23 H 4.16826 1.77362 -0.601975 0
M  V30 24 H 4.2484 1.42601 1.14225 0
M  V30 25 H 3.40267 -0.885886 0.756382 0
M  V30 26 H 3.3099 -0.532296 -1.04483 0
M  V30 27 H 1.76679 0.944298 1.15434 0
M  V30 28 H 1.71326 1.21143 -0.663745 0
M  V30 29 H 0.900197 -1.08354 -0.994872 0
M  V30 30 H 0.986545 -1.35007 0.771614 0
M  V30 31 H -0.644038 0.482878 1.14859 0
M  V30 32 H -0.679428 0.79543 -0.624536 0
M  V30 33 H -1.53198 -1.78107 0.830454 0
M  V30 34 H -1.53758 -1.60742 -0.927991 0
M  V30 35 H -2.03436 0.255349 3.08761 0
M  V30 36 H -2.62285 -1.40364 2.85661 0
M  V30 37 H -7.12888 1.89491 -0.0756778 0
M  V30 38 H -7.06391 1.54771 1.65521 0
M  V30 39 H -2.92435 -1.43118 -2.40617 0
M  V30 40 H -4.14915 -0.279653 -2.95207 0
M  V30 41 H -2.50991 0.308764 -2.66078 0
M  V30 END ATOM
M  V30 BEGIN BOND
M  V30 1 1 1 2
M  V30 2 1 2 3
M  V30 3 1 3 4
M  V30 4 1 4 5
M  V30 5 1 5 6
M  V30 6 1 6 7
M  V30 7 1 7 8
M  V30 8 1 8 9
M  V30 9 2 9 10
M  V30 10 1 10 11
M  V30 11 1 10 12
M  V30 12 2 12 13
M  V30 13 1 13 14
M  V30 14 1 13 15
M  V30 15 2 15 16
M  V30 16 1 16 17
M  V30 17 1 16 9
M  V30 18 1 1 18
M  V30 19 1 1 19
M  V30 20 1 1 20
M  V30 21 1 2 21
M  V30 22 1 2 22
M  V30 23 1 3 23
M  V30 24 1 3 24
M  V30 25 1 4 25
M  V30 26 1 4 26
M  V30 27 1 5 27
M  V30 28 1 5 28
M  V30 29 1 6 29
M  V30 30 1 6 30
M  V30 31 1 7 31
M  V30 32 1 7 32
M  V30 33 1 8 33
M  V30 34 1 8 34
M  V30 35 1 11 35
M  V30 36 1 11 36
M  V30 37 1 14 37
M  V30 38 1 14 38
M  V30 39 1 17 39
M  V30 40 1 17 40
M  V30 41 1 17 41
M  V30 END BOND
M  V30 END CTAB
M  END
