
     RDKit          3D

  0  0  0  0  0  0  0  0  0  0999 V3000
M  V30 BEGIN CTAB
M  V30 COUNTS 25 25 0 0 0
M  V30 BEGIN ATOM
M  V30 1 N -2.88876 -0.0883966 -1.29313 0
M  V30 2 C -1.82769 0.266261 -0.321843 0
M  V30 3 C -0.58409 -0.329658 -0.894965 0
M  V30 4 N -0.724101 -1.77697 -1.02975 0
M  V30 5 C 0.678466 0.0775113 -0.292694 0
M  V30 6 C 1.22205 -0.614929 0.754351 0
M  V30 7 C 2.41558 -0.213305 1.31796 0
M  V30 8 C 3.09216 0.871826 0.862939 0
M  V30 9 C 2.56448 1.58925 -0.194674 0
M  V30 10 C 1.35668 1.17356 -0.756488 0
M  V30 11 C -2.23817 -0.225373 0.989652 0
M  V30 12 O -1.47265 0.046784 2.10801 0
M  V30 13 O -3.28413 -0.902931 1.15983 0
M  V30 14 H -3.07973 -1.09218 -1.20854 0
M  V30 15 H -2.47567 0.0809325 -2.23289 0
M  V30 16 H -1.81981 1.3795 -0.322991 0
M  V30 17 H -0.588392 0.0224982 -1.98498 0
M  V30 18 H 0.200168 -2.12785 -1.36312 0
M  V30 19 H -1.07257 -2.21745 -0.174679 0
M  V30 20 H 0.769105 -1.50177 1.19606 0
M  V30 21 H 2.84145 -0.763929 2.14587 0
M  V30 22 H 4.0278 1.17432 1.31594 0
M  V30 23 H 3.07682 2.46093 -0.584505 0
M  V30 24 H 0.969642 1.76609 -1.59212 0
M  V30 25 H -1.15863 0.945281 2.39676 0
M  V30 END ATOM
M  V30 BEGIN BOND
M  V30 1 1 1 2
M  V30 2 1 2 3
M  V30 3 1 3 4
M  V30 4 1 3 5
M  V30 5 2 5 6
M  V30 6 1 6 7
M  V30 7 2 7 8
M  V30 8 1 8 9
M  V30 9 2 9 10
M  V30 10 1 2 11
M  V30 11 1 11 12
M  V30 12 2 11 13
M  V30 13 1 10 5
M  V30 14 1 1 14
M  V30 15 1 1 15
M  V30 16 1 2 16
M  V30 17 1 3 17
M  V30 18 1 4 18
M  V30 19 1 4 19
M  V30 20 1 6 20
M  V30 21 1 7 21
M  V30 22 1 8 22
M  V30 23 1 9 23
M  V30 24 1 10 24
M  V30 25 1 12 25
M  V30 END BOND
M  V30 END CTAB
M  END
