
     RDKit          3D

  0  0  0  0  0  0  0  0  0  0999 V3000
M  V30 BEGIN CTAB
M  V30 COUNTS 34 35 0 0 0
M  V30 BEGIN ATOM
M  V30 1 N 3.5984 2.15997 2.24375 0
M  V30 2 N 3.62627 0.797081 1.90987 0
M  V30 3 C 2.97355 0.246027 0.77793 0
M  V30 4 C 1.68857 -0.239565 0.786866 0
M  V30 5 C 1.10361 -0.766653 -0.335766 0
M  V30 6 N 1.82398 -0.806902 -1.49298 0
M  V30 7 C 3.07552 -0.332763 -1.50256 0
M  V30 8 N 3.64843 0.184957 -0.395786 0
M  V30 9 N 3.82384 -0.369468 -2.70638 0
M  V30 10 N -0.226947 -1.26837 -0.386908 0
M  V30 11 C -1.18715 -0.622449 -1.20308 0
M  V30 12 C -2.31388 0.0229335 -0.534809 0
M  V30 13 C -3.2524 0.62186 -1.37982 0
M  V30 14 C -4.3748 1.26098 -0.902112 0
M  V30 15 C -4.59705 1.32142 0.453088 0
M  V30 16 C -3.68141 0.736243 1.29257 0
M  V30 17 C -2.55519 0.0966917 0.803232 0
M  V30 18 C -0.531008 -2.43079 0.414304 0
M  V30 19 H 4.53502 2.47704 2.57227 0
M  V30 20 H 2.83607 2.38588 2.89299 0
M  V30 21 H 4.15582 0.156085 2.53166 0
M  V30 22 H 1.14008 -0.197924 1.72077 0
M  V30 23 H 3.72469 0.43286 -3.37687 0
M  V30 24 H 4.47672 -1.11979 -2.99958 0
M  V30 25 H -1.56085 -1.3463 -1.98961 0
M  V30 26 H -0.70122 0.189409 -1.82185 0
M  V30 27 H -3.12661 0.604407 -2.4578 0
M  V30 28 H -5.103 1.72322 -1.55818 0
M  V30 29 H -5.49622 1.83203 0.83968 0
M  V30 30 H -3.88764 0.804093 2.36253 0
M  V30 31 H -1.85611 -0.348745 1.47324 0
M  V30 32 H -1.60849 -2.69266 0.37122 0
M  V30 33 H -0.219391 -2.17792 1.46385 0
M  V30 34 H 0.0487825 -3.33288 0.13428 0
M  V30 END ATOM
M  V30 BEGIN BOND
M  V30 1 1 1 2
M  V30 2 1 2 3
M  V30 3 2 3 4
M  V30 4 1 4 5
M  V30 5 2 5 6
M  V30 6 1 6 7
M  V30 7 2 7 8
M  V30 8 1 7 9
M  V30 9 1 5 10
M  V30 10 1 10 11
M  V30 11 1 11 12
M  V30 12 2 12 13
M  V30 13 1 13 14
M  V30 14 2 14 15
M  V30 15 1 15 16
M  V30 16 2 16 17
M  V30 17 1 10 18
M  V30 18 1 8 3
M  V30 19 1 17 12
M  V30 20 1 1 19
M  V30 21 1 1 20
M  V30 22 1 2 21
M  V30 23 1 4 22
M  V30 24 1 9 23
M  V30 25 1 9 24
M  V30 26 1 11 25
M  V30 27 1 11 26
M  V30 28 1 13 27
M  V30 29 1 14 28
M  V30 30 1 15 29
M  V30 31 1 16 30
M  V30 32 1 17 31
M  V30 33 1 18 32
M  V30 34 1 18 33
M  V30 35 1 18 34
M  V30 END BOND
M  V30 END CTAB
M  END
