
     RDKit          3D

  0  0  0  0  0  0  0  0  0  0999 V3000
M  V30 BEGIN CTAB
M  V30 COUNTS 15 15 0 0 0
M  V30 BEGIN ATOM
M  V30 1 C -2.30467 -0.420508 -0.0306688 0
M  V30 2 C -0.87265 -0.641204 0.455075 0
M  V30 3 N -0.628383 -1.55975 1.37736 0
M  V30 4 S 1.02539 -1.49386 1.6326 0
M  V30 5 C 1.40961 -0.25651 0.52737 0
M  V30 6 N 2.68746 0.335751 0.208665 0
M  V30 7 C 0.189431 0.068827 -0.017295 0
M  V30 8 N 0.096381 1.11642 -1.03344 0
M  V30 9 H -2.81997 -1.37665 -0.105216 0
M  V30 10 H -2.85151 0.22779 0.652072 0
M  V30 11 H -2.28716 0.0402021 -1.04412 0
M  V30 12 H 3.49642 -0.281491 0.0546465 0
M  V30 13 H 2.75631 1.34553 0.144436 0
M  V30 14 H -0.212858 0.801037 -1.96157 0
M  V30 15 H 0.316198 2.09442 -0.859911 0
M  V30 END ATOM
M  V30 BEGIN BOND
M  V30 1 1 1 2
M  V30 2 2 2 3
M  V30 3 1 3 4
M  V30 4 1 4 5
M  V30 5 1 5 6
M  V30 6 2 5 7
M  V30 7 1 7 8
M  V30 8 1 7 2
M  V30 9 1 1 9
M  V30 10 1 1 10
M  V30 11 1 1 11
M  V30 12 1 6 12
M  V30 13 1 6 13
M  V30 14 1 8 14
M  V30 15 1 8 15
M  V30 END BOND
M  V30 END CTAB
M  END
