
     RDKit          3D

  0  0  0  0  0  0  0  0  0  0999 V3000
M  V30 BEGIN CTAB
M  V30 COUNTS 31 33 0 0 0
M  V30 BEGIN ATOM
M  V30 1 N 5.35175 1.25063 0.356717 0
M  V30 2 C 3.96086 0.973832 0.292705 0
M  V30 3 C 3.00113 1.86019 0.724859 0
M  V30 4 C 1.6652 1.55293 0.645087 0
M  V30 5 C 1.19381 0.336359 0.127014 0
M  V30 6 C -0.16133 -0.136343 -0.0250782 0
M  V30 7 C -0.279666 -1.36422 -0.562967 0
M  V30 8 C -1.49346 -1.96876 -0.779274 0
M  V30 9 C -2.65472 -1.29547 -0.432847 0
M  V30 10 N -3.92819 -1.90454 -0.648643 0
M  V30 11 C -2.58767 -0.0346524 0.121759 0
M  V30 12 C -1.35717 0.511941 0.311748 0
M  V30 13 S -4.0598 0.807592 0.555937 0
M  V30 14 O -3.75882 2.30209 1.20404 0
M  V30 15 O -4.93732 0.863449 -0.668795 0
M  V30 16 O -4.77739 -0.0143048 1.59745 0
M  V30 17 S 1.33643 -1.94942 -0.889546 0
M  V30 18 O 1.5558 -2.13448 -2.35986 0
M  V30 19 O 1.67569 -3.15229 -0.0867364 0
M  V30 20 C 2.15987 -0.512895 -0.289 0
M  V30 21 C 3.50742 -0.221425 -0.216698 0
M  V30 22 H 6.08376 0.522908 0.508114 0
M  V30 23 H 5.67188 2.23644 0.247183 0
M  V30 24 H 3.3696 2.79893 1.12442 0
M  V30 25 H 0.980052 2.31383 1.01026 0
M  V30 26 H -1.53818 -2.97348 -1.22159 0
M  V30 27 H -4.30904 -1.96188 -1.61042 0
M  V30 28 H -4.42287 -2.26944 0.18987 0
M  V30 29 H -1.34362 1.51178 0.753223 0
M  V30 30 H -4.13946 3.00238 0.591196 0
M  V30 31 H 4.23546 -0.951679 -0.570116 0
M  V30 END ATOM
M  V30 BEGIN BOND
M  V30 1 1 1 2
M  V30 2 2 2 3
M  V30 3 1 3 4
M  V30 4 2 4 5
M  V30 5 1 5 6
M  V30 6 2 6 7
M  V30 7 1 7 8
M  V30 8 2 8 9
M  V30 9 1 9 10
M  V30 10 1 9 11
M  V30 11 2 11 12
M  V30 12 1 11 13
M  V30 13 1 13 14
M  V30 14 2 13 15
M  V30 15 2 13 16
M  V30 16 1 7 17
M  V30 17 2 17 18
M  V30 18 2 17 19
M  V30 19 1 17 20
M  V30 20 2 20 21
M  V30 21 1 21 2
M  V30 22 1 20 5
M  V30 23 1 12 6
M  V30 24 1 1 22
M  V30 25 1 1 23
M  V30 26 1 3 24
M  V30 27 1 4 25
M  V30 28 1 8 26
M  V30 29 1 10 27
M  V30 30 1 10 28
M  V30 31 1 12 29
M  V30 32 1 14 30
M  V30 33 1 21 31
M  V30 END BOND
M  V30 END CTAB
M  END
