
     RDKit          3D

  0  0  0  0  0  0  0  0  0  0999 V3000
M  V30 BEGIN CTAB
M  V30 COUNTS 23 23 0 0 0
M  V30 BEGIN ATOM
M  V30 1 C -2.3528 1.64753 -0.765979 0
M  V30 2 N -1.99044 0.305436 -0.390004 0
M  V30 3 C -3.00629 -0.666771 -0.146711 0
M  V30 4 C -0.612738 -0.0279578 -0.267356 0
M  V30 5 N 0.351037 0.888786 -0.496714 0
M  V30 6 C 1.65632 0.608199 -0.390162 0
M  V30 7 N 2.6162 1.61848 -0.645264 0
M  V30 8 C 2.07731 -0.651332 -0.0353965 0
M  V30 9 N 3.42428 -1.02923 0.098767 0
M  V30 10 C 1.09809 -1.60267 0.203092 0
M  V30 11 O 1.44584 -2.77937 0.533499 0
M  V30 12 N -0.195078 -1.25808 0.0792739 0
M  V30 13 H -1.47599 2.31963 -0.775795 0
M  V30 14 H -3.07791 2.03394 -0.00179466 0
M  V30 15 H -2.83255 1.68481 -1.76007 0
M  V30 16 H -2.78909 -1.67047 -0.571559 0
M  V30 17 H -3.14565 -0.723637 0.971533 0
M  V30 18 H -3.98105 -0.350167 -0.616497 0
M  V30 19 H 3.07724 1.63732 -1.59551 0
M  V30 20 H 2.84853 2.3137 0.0928716 0
M  V30 21 H 3.74984 -1.42225 1.00677 0
M  V30 22 H 4.06208 -0.913308 -0.693617 0
M  V30 23 H -0.947199 -1.96259 0.25529 0
M  V30 END ATOM
M  V30 BEGIN BOND
M  V30 1 1 1 2
M  V30 2 1 2 3
M  V30 3 1 2 4
M  V30 4 2 4 5
M  V30 5 1 5 6
M  V30 6 1 6 7
M  V30 7 2 6 8
M  V30 8 1 8 9
M  V30 9 1 8 10
M  V30 10 2 10 11
M  V30 11 1 10 12
M  V30 12 1 12 4
M  V30 13 1 1 13
M  V30 14 1 1 14
M  V30 15 1 1 15
M  V30 16 1 3 16
M  V30 17 1 3 17
M  V30 18 1 3 18
M  V30 19 1 7 19
M  V30 20 1 7 20
M  V30 21 1 9 21
M  V30 22 1 9 22
M  V30 23 1 12 23
M  V30 END BOND
M  V30 END CTAB
M  END
