
     RDKit          3D

  0  0  0  0  0  0  0  0  0  0999 V3000
M  V30 BEGIN CTAB
M  V30 COUNTS 102 102 0 0 0
M  V30 BEGIN ATOM
M  V30 1 C 1.76111 3.22292 -3.19356 0
M  V30 2 C 2.6987 2.04853 -3.29448 0
M  V30 3 C 1.98541 0.79827 -2.74384 0 CFG=2
M  V30 4 C 0.764599 0.64226 -3.65063 0
M  V30 5 C 1.59923 1.02628 -1.33054 0 CFG=2
M  V30 6 N 2.6962 1.36327 -0.427445 0
M  V30 7 C 3.93568 0.736679 -0.486683 0
M  V30 8 O 4.22583 -0.155002 -1.28943 0
M  V30 9 C 4.98694 1.16544 0.483169 0 CFG=2
M  V30 10 C 5.41119 2.59618 0.264711 0
M  V30 11 S 6.67414 3.05616 1.47542 0
M  V30 12 N 6.16958 0.327851 0.224544 0
M  V30 13 C 6.67704 -0.508384 1.21835 0
M  V30 14 O 6.0309 -0.486541 2.34926 0
M  V30 15 C 7.811 -1.39867 1.1745 0 CFG=1
M  V30 16 N 7.38645 -2.78721 1.39515 0
M  V30 17 C 8.89166 -1.24609 0.193711 0
M  V30 18 C 9.64523 0.0134442 0.288311 0
M  V30 19 C 10.6671 0.0472239 1.26018 0
M  V30 20 C 11.4413 1.15476 1.40276 0
M  V30 21 C 11.2618 2.27627 0.613747 0
M  V30 22 C 10.2712 2.26189 -0.338903 0
M  V30 23 C 9.49303 1.13395 -0.474748 0
M  V30 24 C 0.794944 0.0297297 -0.652785 0
M  V30 25 O 0.641475 0.235082 0.61457 0
M  V30 26 N 0.182233 -1.10294 -1.18029 0
M  V30 27 C -0.59356 -1.99321 -0.340604 0
M  V30 28 C -1.81306 -1.32678 0.238483 0
M  V30 29 O -2.03109 -0.156798 -0.115568 0
M  V30 30 N -2.63131 -2.01691 1.12359 0
M  V30 31 C -3.80345 -1.72694 1.83459 0 CFG=1
M  V30 32 C -3.88578 -0.639484 2.80814 0
M  V30 33 C -3.69263 0.771294 2.46641 0
M  V30 34 C -4.68551 1.35446 1.48703 0
M  V30 35 N -4.32765 2.73865 1.2564 0
M  V30 36 C -5.08193 3.56859 0.37405 0
M  V30 37 N -6.3135 3.06282 -0.11231 0
M  V30 38 N -4.62537 4.72262 0.0575652 0
M  V30 39 C -4.99845 -1.78148 0.910629 0
M  V30 40 O -4.83393 -1.94048 -0.318108 0
M  V30 41 N -6.32121 -1.66282 1.40138 0
M  V30 42 C -7.48037 -1.73073 0.49039 0 CFG=1
M  V30 43 C -8.06792 -3.12729 0.589399 0
M  V30 44 C -9.24181 -3.27036 -0.323327 0
M  V30 45 C -8.83139 -3.0057 -1.77258 0
M  V30 46 C -9.78367 -4.7115 -0.229015 0
M  V30 47 C -8.40794 -0.696971 0.925801 0
M  V30 48 O -9.54995 -0.383458 0.234504 0
M  V30 49 O -8.20919 -0.0105997 1.98706 0
M  V30 50 H 1.87901 3.93728 -4.03737 0
M  V30 51 H 0.695477 2.95256 -3.1513 0
M  V30 52 H 1.98401 3.82179 -2.27505 0
M  V30 53 H 2.92429 1.86959 -4.36593 0
M  V30 54 H 3.57614 2.25678 -2.68155 0
M  V30 55 H 2.61469 -0.0577835 -2.88634 0
M  V30 56 H 0.819948 1.41342 -4.43562 0
M  V30 57 H 0.836055 -0.33311 -4.21882 0
M  V30 58 H -0.180072 0.783284 -3.12725 0
M  V30 59 H 1.0041 2.0173 -1.37242 0
M  V30 60 H 2.53502 2.11812 0.305324 0
M  V30 61 H 4.60337 0.997288 1.5087 0
M  V30 62 H 4.52798 3.26142 0.340031 0
M  V30 63 H 5.9015 2.63386 -0.727608 0
M  V30 64 H 7.23087 4.27553 1.08431 0
M  V30 65 H 6.53719 0.41869 -0.740162 0
M  V30 66 H 8.36293 -1.17862 2.19854 0
M  V30 67 H 6.99972 -2.88371 2.36833 0
M  V30 68 H 8.23035 -3.39997 1.30031 0
M  V30 69 H 8.57492 -1.37914 -0.868978 0
M  V30 70 H 9.61274 -2.09934 0.353104 0
M  V30 71 H 10.8244 -0.827017 1.89316 0
M  V30 72 H 12.2356 1.20027 2.14835 0
M  V30 73 H 11.8876 3.14293 0.745302 0
M  V30 74 H 10.1038 3.12716 -0.976465 0
M  V30 75 H 8.71312 1.10896 -1.23489 0
M  V30 76 H 0.259703 -1.36106 -2.16965 0
M  V30 77 H -0.926679 -2.88432 -0.869034 0
M  V30 78 H 0.0503186 -2.26133 0.535263 0
M  V30 79 H -2.23638 -3.0475 1.29038 0
M  V30 80 H -4.00609 -2.68324 2.47873 0
M  V30 81 H -4.89149 -0.712556 3.3401 0
M  V30 82 H -3.17561 -0.84417 3.68424 0
M  V30 83 H -2.67619 1.13214 2.27448 0
M  V30 84 H -3.95558 1.34045 3.43947 0
M  V30 85 H -5.69773 1.28883 1.92102 0
M  V30 86 H -4.68446 0.851578 0.512882 0
M  V30 87 H -3.49638 3.11738 1.75614 0
M  V30 88 H -6.43124 2.91987 -1.14116 0
M  V30 89 H -7.05275 2.85402 0.585891 0
M  V30 90 H -3.71662 5.07466 0.42636 0
M  V30 91 H -6.50198 -1.5263 2.40792 0
M  V30 92 H -7.07777 -1.64986 -0.526332 0
M  V30 93 H -7.29845 -3.86059 0.228535 0
M  V30 94 H -8.36933 -3.3799 1.61563 0
M  V30 95 H -10.0625 -2.63567 -0.0364484 0
M  V30 96 H -9.16822 -2.01544 -2.11253 0
M  V30 97 H -9.4026 -3.74061 -2.39646 0
M  V30 98 H -7.75994 -3.10844 -1.94453 0
M  V30 99 H -10.8568 -4.68163 -0.494822 0
M  V30 100 H -9.71204 -5.04932 0.810118 0
M  V30 101 H -9.25763 -5.37971 -0.934691 0
M  V30 102 H -9.82372 0.576932 0.128695 0
M  V30 END ATOM
M  V30 BEGIN BOND
M  V30 1 1 1 2
M  V30 2 1 2 3
M  V30 3 1 3 4
M  V30 4 1 3 5
M  V30 5 1 5 6
M  V30 6 1 6 7
M  V30 7 2 7 8
M  V30 8 1 7 9
M  V30 9 1 9 10
M  V30 10 1 10 11
M  V30 11 1 9 12
M  V30 12 1 12 13
M  V30 13 2 13 14
M  V30 14 1 13 15
M  V30 15 1 15 16
M  V30 16 1 15 17
M  V30 17 1 17 18
M  V30 18 2 18 19
M  V30 19 1 19 20
M  V30 20 2 20 21
M  V30 21 1 21 22
M  V30 22 2 22 23
M  V30 23 1 5 24
M  V30 24 2 24 25
M  V30 25 1 24 26
M  V30 26 1 26 27
M  V30 27 1 27 28
M  V30 28 2 28 29
M  V30 29 1 28 30
M  V30 30 1 30 31
M  V30 31 1 31 32
M  V30 32 1 32 33
M  V30 33 1 33 34
M  V30 34 1 34 35
M  V30 35 1 35 36
M  V30 36 1 36 37
M  V30 37 2 36 38 CFG=2
M  V30 38 1 31 39
M  V30 39 2 39 40
M  V30 40 1 39 41
M  V30 41 1 41 42
M  V30 42 1 42 43
M  V30 43 1 43 44
M  V30 44 1 44 45
M  V30 45 1 44 46
M  V30 46 1 42 47
M  V30 47 1 47 48
M  V30 48 2 47 49
M  V30 49 1 23 18
M  V30 50 1 1 50
M  V30 51 1 1 51
M  V30 52 1 1 52
M  V30 53 1 2 53
M  V30 54 1 2 54
M  V30 55 1 3 55 CFG=1
M  V30 56 1 4 56
M  V30 57 1 4 57
M  V30 58 1 4 58
M  V30 59 1 5 59 CFG=3
M  V30 60 1 6 60
M  V30 61 1 9 61 CFG=1
M  V30 62 1 10 62
M  V30 63 1 10 63
M  V30 64 1 11 64
M  V30 65 1 12 65
M  V30 66 1 15 66 CFG=1
M  V30 67 1 16 67
M  V30 68 1 16 68
M  V30 69 1 17 69
M  V30 70 1 17 70
M  V30 71 1 19 71
M  V30 72 1 20 72
M  V30 73 1 21 73
M  V30 74 1 22 74
M  V30 75 1 23 75
M  V30 76 1 26 76
M  V30 77 1 27 77
M  V30 78 1 27 78
M  V30 79 1 30 79
M  V30 80 1 31 80 CFG=1
M  V30 81 1 32 81
M  V30 82 1 32 82
M  V30 83 1 33 83
M  V30 84 1 33 84
M  V30 85 1 34 85
M  V30 86 1 34 86
M  V30 87 1 35 87
M  V30 88 1 37 88
M  V30 89 1 37 89
M  V30 90 1 38 90
M  V30 91 1 41 91
M  V30 92 1 42 92 CFG=3
M  V30 93 1 43 93
M  V30 94 1 43 94
M  V30 95 1 44 95
M  V30 96 1 45 96
M  V30 97 1 45 97
M  V30 98 1 45 98
M  V30 99 1 46 99
M  V30 100 1 46 100
M  V30 101 1 46 101
M  V30 102 1 48 102
M  V30 END BOND
M  V30 END CTAB
M  END
