
     RDKit          3D

  0  0  0  0  0  0  0  0  0  0999 V3000
M  V30 BEGIN CTAB
M  V30 COUNTS 56 58 0 0 0
M  V30 BEGIN ATOM
M  V30 1 N -10.5369 1.80268 -1.0782 0
M  V30 2 C -9.33551 1.88097 -1.82499 0
M  V30 3 N -9.39233 2.41128 -2.98758 0
M  V30 4 C -8.1012 1.36857 -1.26456 0
M  V30 5 C -8.10762 0.8045 0.00683271 0
M  V30 6 C -6.98112 0.302128 0.592857 0
M  V30 7 C -5.77244 0.357511 -0.114636 0
M  V30 8 N -4.65434 -0.157743 0.556591 0
M  V30 9 C -3.4484 -0.628461 -0.0152394 0
M  V30 10 O -3.31579 -0.612013 -1.24816 0
M  V30 11 N -2.42913 -1.10336 0.817351 0
M  V30 12 C -1.16205 -1.61539 0.486183 0
M  V30 13 C -0.275454 -2.00131 1.50518 0
M  V30 14 C 0.970579 -2.50973 1.23216 0
M  V30 15 C 1.43142 -2.67407 -0.0523352 0
M  V30 16 C 0.585208 -2.3049 -1.06586 0
M  V30 17 C -0.691051 -1.78428 -0.786269 0
M  V30 18 S 3.01649 -3.32276 -0.408315 0
M  V30 19 O 3.42325 -4.31627 0.611937 0
M  V30 20 O 3.01962 -4.00651 -1.76755 0
M  V30 21 N 4.19834 -2.06867 -0.493186 0
M  V30 22 C 4.29017 -1.39267 0.787261 0
M  V30 23 C 5.28864 -0.320131 0.74375 0
M  V30 24 C 5.57471 0.386245 1.88443 0
M  V30 25 C 6.51491 1.39606 1.84025 0
M  V30 26 C 7.16802 1.70525 0.674325 0
M  V30 27 C 6.86908 0.985313 -0.465986 0
M  V30 28 C 5.93309 -0.0270922 -0.441926 0
M  V30 29 S 8.36941 2.98093 0.589257 0
M  V30 30 N 9.90083 2.2392 0.917189 0
M  V30 31 O 8.09228 4.01067 1.67285 0
M  V30 32 O 8.34647 3.66466 -0.742854 0
M  V30 33 C -5.72878 0.905353 -1.36549 0
M  V30 34 C -6.89745 1.40289 -1.92132 0
M  V30 35 H -10.8065 2.58146 -0.44395 0
M  V30 36 H -11.175 0.983129 -1.13755 0
M  V30 37 H -8.56918 2.51454 -3.61058 0
M  V30 38 H -9.05174 0.776735 0.524589 0
M  V30 39 H -7.00907 -0.140393 1.59813 0
M  V30 40 H -4.6962 -0.202819 1.63219 0
M  V30 41 H -2.6648 -1.06533 1.8689 0
M  V30 42 H -0.636279 -1.87255 2.52787 0
M  V30 43 H 1.62401 -2.79568 2.05346 0
M  V30 44 H 0.916846 -2.42119 -2.09078 0
M  V30 45 H -1.28436 -1.52422 -1.6383 0
M  V30 46 H 5.09958 -2.4073 -0.841435 0
M  V30 47 H 3.32155 -1.00683 1.09791 0
M  V30 48 H 4.5867 -2.1849 1.5317 0
M  V30 49 H 5.09613 0.187534 2.81971 0
M  V30 50 H 6.7782 1.9856 2.7166 0
M  V30 51 H 7.37884 1.22543 -1.37954 0
M  V30 52 H 5.74666 -0.549956 -1.36901 0
M  V30 53 H 10.6061 2.45378 0.206571 0
M  V30 54 H 10.1888 2.29335 1.89896 0
M  V30 55 H -4.79826 0.971981 -1.92652 0
M  V30 56 H -6.81497 1.82652 -2.91285 0
M  V30 END ATOM
M  V30 BEGIN BOND
M  V30 1 1 1 2
M  V30 2 2 2 3 CFG=2
M  V30 3 1 2 4
M  V30 4 2 4 5
M  V30 5 1 5 6
M  V30 6 2 6 7
M  V30 7 1 7 8
M  V30 8 1 8 9
M  V30 9 2 9 10
M  V30 10 1 9 11
M  V30 11 1 11 12
M  V30 12 2 12 13
M  V30 13 1 13 14
M  V30 14 2 14 15
M  V30 15 1 15 16
M  V30 16 2 16 17
M  V30 17 1 15 18
M  V30 18 2 18 19
M  V30 19 2 18 20
M  V30 20 1 18 21
M  V30 21 1 21 22
M  V30 22 1 22 23
M  V30 23 2 23 24
M  V30 24 1 24 25
M  V30 25 2 25 26
M  V30 26 1 26 27
M  V30 27 2 27 28
M  V30 28 1 26 29
M  V30 29 1 29 30
M  V30 30 2 29 31
M  V30 31 2 29 32
M  V30 32 1 7 33
M  V30 33 2 33 34
M  V30 34 1 34 4
M  V30 35 1 17 12
M  V30 36 1 28 23
M  V30 37 1 1 35
M  V30 38 1 1 36
M  V30 39 1 3 37
M  V30 40 1 5 38
M  V30 41 1 6 39
M  V30 42 1 8 40
M  V30 43 1 11 41
M  V30 44 1 13 42
M  V30 45 1 14 43
M  V30 46 1 16 44
M  V30 47 1 17 45
M  V30 48 1 21 46
M  V30 49 1 22 47
M  V30 50 1 22 48
M  V30 51 1 24 49
M  V30 52 1 25 50
M  V30 53 1 27 51
M  V30 54 1 28 52
M  V30 55 1 30 53
M  V30 56 1 30 54
M  V30 57 1 33 55
M  V30 58 1 34 56
M  V30 END BOND
M  V30 END CTAB
M  END
