
     RDKit          3D

  0  0  0  0  0  0  0  0  0  0999 V3000
M  V30 BEGIN CTAB
M  V30 COUNTS 23 23 0 0 0
M  V30 BEGIN ATOM
M  V30 1 C -3.28432 -0.483684 0.753154 0
M  V30 2 C -2.7366 0.437797 -0.309098 0
M  V30 3 C -1.24998 0.638538 -0.0297951 0
M  V30 4 C -0.772353 1.81461 0.491024 0
M  V30 5 S 0.899397 1.49168 0.589357 0
M  V30 6 C 0.8916 -0.0989977 -0.0296174 0
M  V30 7 N -0.387744 -0.304962 -0.280864 0
M  V30 8 N 1.99599 -1.0101 -0.235783 0
M  V30 9 S 3.58504 -0.582024 0.143101 0
M  V30 10 O 4.35155 -1.84891 0.489658 0
M  V30 11 O 3.6234 0.271233 1.38657 0
M  V30 12 N 4.42897 0.159305 -1.16083 0
M  V30 13 N -2.89278 -0.189228 -1.61892 0
M  V30 14 H -3.21236 -0.0107966 1.74772 0
M  V30 15 H -2.63849 -1.41033 0.741794 0
M  V30 16 H -4.31407 -0.768394 0.535484 0
M  V30 17 H -3.23718 1.40016 -0.346884 0
M  V30 18 H -1.3548 2.71558 0.763059 0
M  V30 19 H 1.77324 -1.94264 -0.627838 0
M  V30 20 H 5.4746 -0.00451766 -1.04467 0
M  V30 21 H 4.3232 1.20805 -1.04592 0
M  V30 22 H -3.3121 -1.15805 -1.5206 0
M  V30 23 H -1.95421 -0.324328 -2.03452 0
M  V30 END ATOM
M  V30 BEGIN BOND
M  V30 1 1 1 2
M  V30 2 1 2 3
M  V30 3 2 3 4
M  V30 4 1 4 5
M  V30 5 1 5 6
M  V30 6 2 6 7
M  V30 7 1 6 8
M  V30 8 1 8 9
M  V30 9 2 9 10
M  V30 10 2 9 11
M  V30 11 1 9 12
M  V30 12 1 2 13
M  V30 13 1 7 3
M  V30 14 1 1 14
M  V30 15 1 1 15
M  V30 16 1 1 16
M  V30 17 1 2 17
M  V30 18 1 4 18
M  V30 19 1 8 19
M  V30 20 1 12 20
M  V30 21 1 12 21
M  V30 22 1 13 22
M  V30 23 1 13 23
M  V30 END BOND
M  V30 END CTAB
M  END
