
     RDKit          3D

  0  0  0  0  0  0  0  0  0  0999 V3000
M  V30 BEGIN CTAB
M  V30 COUNTS 29 30 0 0 0
M  V30 BEGIN ATOM
M  V30 1 N 2.54999 -0.310908 -1.10015 0
M  V30 2 N 2.37859 -0.160979 0.293234 0
M  V30 3 C 1.368 -0.704426 1.00349 0
M  V30 4 N 1.62341 -0.31798 2.28656 0
M  V30 5 N 2.72499 0.413416 2.32292 0
M  V30 6 C 3.22159 0.528276 1.0787 0
M  V30 7 N 4.37678 1.20896 0.608241 0
M  V30 8 C 0.227576 -1.51185 0.52854 0
M  V30 9 C -0.969488 -0.681009 0.279681 0
M  V30 10 C -0.870509 0.41277 -0.718838 0
M  V30 11 C -2.12283 1.28816 -0.4952 0
M  V30 12 C -3.29041 0.417764 -0.908282 0
M  V30 13 C -3.24108 -0.772648 0.0625452 0
M  V30 14 O -2.0739 -1.4856 -0.0926801 0
M  V30 15 H 3.37382 0.0928769 -1.59286 0
M  V30 16 H 1.86152 -0.827549 -1.67686 0
M  V30 17 H 4.32252 2.06628 -0.000243408 0
M  V30 18 H 5.29749 0.816017 0.896606 0
M  V30 19 H 0.54317 -2.06499 -0.383986 0
M  V30 20 H -0.0439059 -2.23033 1.3515 0
M  V30 21 H -1.28471 -0.243234 1.26908 0
M  V30 22 H -0.957227 0.0683285 -1.7704 0
M  V30 23 H -0.00500155 1.0927 -0.555445 0
M  V30 24 H -2.21664 1.47148 0.596056 0
M  V30 25 H -2.06025 2.21793 -1.08961 0
M  V30 26 H -4.25056 0.935492 -0.732037 0
M  V30 27 H -3.14825 0.0871108 -1.95473 0
M  V30 28 H -3.2466 -0.340814 1.07246 0
M  V30 29 H -4.08808 -1.46524 -0.118894 0
M  V30 END ATOM
M  V30 BEGIN BOND
M  V30 1 1 1 2
M  V30 2 1 2 3
M  V30 3 2 3 4
M  V30 4 1 4 5
M  V30 5 2 5 6
M  V30 6 1 6 7
M  V30 7 1 3 8
M  V30 8 1 8 9
M  V30 9 1 9 10
M  V30 10 1 10 11
M  V30 11 1 11 12
M  V30 12 1 12 13
M  V30 13 1 13 14
M  V30 14 1 6 2
M  V30 15 1 14 9
M  V30 16 1 1 15
M  V30 17 1 1 16
M  V30 18 1 7 17
M  V30 19 1 7 18
M  V30 20 1 8 19
M  V30 21 1 8 20
M  V30 22 1 9 21
M  V30 23 1 10 22
M  V30 24 1 10 23
M  V30 25 1 11 24
M  V30 26 1 11 25
M  V30 27 1 12 26
M  V30 28 1 12 27
M  V30 29 1 13 28
M  V30 30 1 13 29
M  V30 END BOND
M  V30 END CTAB
M  END
