
     RDKit          3D

  0  0  0  0  0  0  0  0  0  0999 V3000
M  V30 BEGIN CTAB
M  V30 COUNTS 43 45 0 0 0
M  V30 BEGIN ATOM
M  V30 1 C 2.38413 -2.35581 0.0293554 0
M  V30 2 C 2.27562 -0.89015 -0.034237 0
M  V30 3 C 1.02924 -0.249182 -0.248919 0
M  V30 4 N -0.137668 -1.04885 -0.225505 0
M  V30 5 C -1.42068 -0.658419 -0.698534 0
M  V30 6 O -1.70372 0.430957 -1.20629 0
M  V30 7 C -2.50726 -1.65239 -0.566558 0
M  V30 8 C -3.86048 -1.20783 -0.94902 0
M  V30 9 C -4.46246 -0.103722 -0.202326 0
M  V30 10 C -4.99275 -0.357872 1.05979 0
M  V30 11 C -5.61294 0.617307 1.78529 0
M  V30 12 C -5.73942 1.89571 1.29641 0
M  V30 13 Cl -6.54188 3.13715 2.24861 0
M  V30 14 C -5.21675 2.15912 0.0435888 0
M  V30 15 C -4.58371 1.16671 -0.699814 0
M  V30 16 C 0.957908 1.11916 -0.380938 0
M  V30 17 C 2.08071 1.90741 -0.308307 0
M  V30 18 C 3.29832 1.33281 -0.0991881 0
M  V30 19 N 4.41213 2.11125 -0.0115194 0
M  V30 20 C 5.61832 1.58258 0.207379 0
M  V30 21 N 6.7884 2.42409 0.296563 0
M  V30 22 N 5.73948 0.26439 0.344403 0
M  V30 23 C 4.63092 -0.545066 0.25999 0
M  V30 24 N 4.82943 -1.9335 0.453606 0
M  V30 25 C 3.38334 -0.0504357 0.0358665 0
M  V30 26 H 2.97001 -2.82543 -0.80246 0
M  V30 27 H 1.36837 -2.74721 -0.329174 0
M  V30 28 H 2.42538 -2.82379 0.999638 0
M  V30 29 H -0.123789 -2.02297 0.20453 0
M  V30 30 H -2.51751 -1.93881 0.518559 0
M  V30 31 H -2.21815 -2.56907 -1.14514 0
M  V30 32 H -4.57508 -2.0815 -0.976435 0
M  V30 33 H -3.82334 -0.879401 -2.03968 0
M  V30 34 H -4.89721 -1.37646 1.46027 0
M  V30 35 H -6.01159 0.374113 2.76484 0
M  V30 36 H -5.30642 3.17209 -0.365929 0
M  V30 37 H -4.21947 1.46678 -1.69555 0
M  V30 38 H -0.00152181 1.6146 -0.532732 0
M  V30 39 H 2.00717 2.97984 -0.415585 0
M  V30 40 H 6.95468 3.2161 -0.338314 0
M  V30 41 H 7.48581 2.21279 1.03624 0
M  V30 42 H 4.65914 -2.37777 1.36651 0
M  V30 43 H 5.1753 -2.48936 -0.350772 0
M  V30 END ATOM
M  V30 BEGIN BOND
M  V30 1 1 1 2
M  V30 2 2 2 3
M  V30 3 1 3 4
M  V30 4 1 4 5
M  V30 5 2 5 6
M  V30 6 1 5 7
M  V30 7 1 7 8
M  V30 8 1 8 9
M  V30 9 2 9 10
M  V30 10 1 10 11
M  V30 11 2 11 12
M  V30 12 1 12 13
M  V30 13 1 12 14
M  V30 14 2 14 15
M  V30 15 1 3 16
M  V30 16 2 16 17
M  V30 17 1 17 18
M  V30 18 2 18 19
M  V30 19 1 19 20
M  V30 20 1 20 21
M  V30 21 2 20 22
M  V30 22 1 22 23
M  V30 23 1 23 24
M  V30 24 2 23 25
M  V30 25 1 25 2
M  V30 26 1 15 9
M  V30 27 1 25 18
M  V30 28 1 1 26
M  V30 29 1 1 27
M  V30 30 1 1 28
M  V30 31 1 4 29
M  V30 32 1 7 30
M  V30 33 1 7 31
M  V30 34 1 8 32
M  V30 35 1 8 33
M  V30 36 1 10 34
M  V30 37 1 11 35
M  V30 38 1 14 36
M  V30 39 1 15 37
M  V30 40 1 16 38
M  V30 41 1 17 39
M  V30 42 1 21 40
M  V30 43 1 21 41
M  V30 44 1 24 42
M  V30 45 1 24 43
M  V30 END BOND
M  V30 END CTAB
M  END
