
     RDKit          3D

  0  0  0  0  0  0  0  0  0  0999 V3000
M  V30 BEGIN CTAB
M  V30 COUNTS 38 39 0 0 0
M  V30 BEGIN ATOM
M  V30 1 C -2.9258 2.70591 0.537905 0
M  V30 2 S -3.26775 1.67914 -0.917912 0
M  V30 3 C -3.98387 0.15313 -0.338897 0
M  V30 4 C -5.34332 0.000213942 -0.184141 0
M  V30 5 C -5.83092 -1.20064 0.26596 0
M  V30 6 C -5.01222 -2.26102 0.569579 0
M  V30 7 C -3.62949 -2.09272 0.407788 0
M  V30 8 C -3.10391 -0.905807 -0.0403776 0
M  V30 9 N -1.73788 -0.672778 -0.223029 0
M  V30 10 C -0.715184 -1.59164 0.017062 0
M  V30 11 O -0.830543 -2.76883 0.431336 0
M  V30 12 C 0.712545 -1.14771 -0.24266 0
M  V30 13 S 1.11552 0.276274 0.806176 0
M  V30 14 C 2.80138 0.741058 0.446902 0
M  V30 15 N 3.85989 0.236491 1.09382 0
M  V30 16 C 5.13536 0.611395 0.797016 0
M  V30 17 N 6.25353 0.0781215 1.48042 0
M  V30 18 N 5.36484 1.5157 -0.172764 0
M  V30 19 C 4.30303 2.02363 -0.823659 0
M  V30 20 N 3.04201 1.64864 -0.52548 0
M  V30 21 N 4.45255 2.99589 -1.87498 0
M  V30 22 C 1.67206 -2.26976 -0.0343695 0
M  V30 23 H -1.97521 2.38963 1.02981 0
M  V30 24 H -2.89751 3.78116 0.281183 0
M  V30 25 H -3.73587 2.50361 1.27693 0
M  V30 26 H -5.98092 0.852995 -0.429895 0
M  V30 27 H -6.89162 -1.33996 0.393628 0
M  V30 28 H -5.39939 -3.20682 0.924331 0
M  V30 29 H -3.02254 -2.94705 0.656355 0
M  V30 30 H -1.40713 0.284141 -0.577665 0
M  V30 31 H 0.747292 -0.844371 -1.30252 0
M  V30 32 H 6.46321 -0.93114 1.37819 0
M  V30 33 H 6.86877 0.658769 2.07793 0
M  V30 34 H 4.03153 2.87576 -2.80244 0
M  V30 35 H 5.00728 3.85266 -1.69039 0
M  V30 36 H 1.21401 -3.13378 0.490891 0
M  V30 37 H 2.50265 -1.91739 0.610204 0
M  V30 38 H 2.1436 -2.63291 -0.970341 0
M  V30 END ATOM
M  V30 BEGIN BOND
M  V30 1 1 1 2
M  V30 2 1 2 3
M  V30 3 2 3 4
M  V30 4 1 4 5
M  V30 5 2 5 6
M  V30 6 1 6 7
M  V30 7 2 7 8
M  V30 8 1 8 9
M  V30 9 1 9 10
M  V30 10 2 10 11
M  V30 11 1 10 12
M  V30 12 1 12 13
M  V30 13 1 13 14
M  V30 14 2 14 15
M  V30 15 1 15 16
M  V30 16 1 16 17
M  V30 17 2 16 18
M  V30 18 1 18 19
M  V30 19 2 19 20
M  V30 20 1 19 21
M  V30 21 1 12 22
M  V30 22 1 8 3
M  V30 23 1 20 14
M  V30 24 1 1 23
M  V30 25 1 1 24
M  V30 26 1 1 25
M  V30 27 1 4 26
M  V30 28 1 5 27
M  V30 29 1 6 28
M  V30 30 1 7 29
M  V30 31 1 9 30
M  V30 32 1 12 31
M  V30 33 1 17 32
M  V30 34 1 17 33
M  V30 35 1 21 34
M  V30 36 1 21 35
M  V30 37 1 22 36
M  V30 38 1 22 37
M  V30 39 1 22 38
M  V30 END BOND
M  V30 END CTAB
M  END
