
     RDKit          3D

  0  0  0  0  0  0  0  0  0  0999 V3000
M  V30 BEGIN CTAB
M  V30 COUNTS 25 25 0 0 0
M  V30 BEGIN ATOM
M  V30 1 C -3.45704 -0.998809 -0.631946 0
M  V30 2 C -1.98628 -1.27293 -0.514875 0
M  V30 3 C -1.20892 -0.0102561 -0.149349 0
M  V30 4 N -1.90539 1.02377 -0.00967157 0
M  V30 5 N -1.6917 2.31477 0.294463 0
M  V30 6 C 0.21568 -0.197859 -0.0191676 0
M  V30 7 C 0.814056 -1.43408 -0.214315 0
M  V30 8 C 2.16964 -1.64273 -0.0969212 0
M  V30 9 C 2.97649 -0.585282 0.228016 0
M  V30 10 C 2.42743 0.648877 0.428622 0
M  V30 11 C 1.03811 0.846705 0.30485 0
M  V30 12 N 3.26088 1.73357 0.762626 0
M  V30 13 Cl 4.69444 -0.842689 0.378328 0
M  V30 14 H -3.92431 -1.23851 0.352649 0
M  V30 15 H -3.85333 -1.65551 -1.44176 0
M  V30 16 H -3.61089 0.0667319 -0.876662 0
M  V30 17 H -1.55645 -1.69767 -1.44463 0
M  V30 18 H -1.79852 -2.02051 0.290234 0
M  V30 19 H -1.5287 2.65879 1.28514 0
M  V30 20 H -1.67892 3.04508 -0.460738 0
M  V30 21 H 0.146995 -2.2581 -0.472139 0
M  V30 22 H 2.61787 -2.60588 -0.251129 0
M  V30 23 H 0.70429 1.85717 0.482988 0
M  V30 24 H 3.76443 2.25124 0.0256609 0
M  V30 25 H 3.37013 2.01409 1.74972 0
M  V30 END ATOM
M  V30 BEGIN BOND
M  V30 1 1 1 2
M  V30 2 1 2 3
M  V30 3 2 3 4 CFG=2
M  V30 4 1 4 5
M  V30 5 1 3 6
M  V30 6 2 6 7
M  V30 7 1 7 8
M  V30 8 2 8 9
M  V30 9 1 9 10
M  V30 10 2 10 11
M  V30 11 1 10 12
M  V30 12 1 9 13
M  V30 13 1 11 6
M  V30 14 1 1 14
M  V30 15 1 1 15
M  V30 16 1 1 16
M  V30 17 1 2 17
M  V30 18 1 2 18
M  V30 19 1 5 19
M  V30 20 1 5 20
M  V30 21 1 7 21
M  V30 22 1 8 22
M  V30 23 1 11 23
M  V30 24 1 12 24
M  V30 25 1 12 25
M  V30 END BOND
M  V30 END CTAB
M  END
