
     RDKit          3D

  0  0  0  0  0  0  0  0  0  0999 V3000
M  V30 BEGIN CTAB
M  V30 COUNTS 36 36 0 0 0
M  V30 BEGIN ATOM
M  V30 1 C 3.40857 0.203894 -0.871435 0
M  V30 2 C 2.45433 -0.42378 0.0981087 0
M  V30 3 C 2.3621 -1.9052 -0.125495 0
M  V30 4 O 3.02185 -0.253504 1.38503 0
M  V30 5 C 1.13625 0.235735 0.148246 0
M  V30 6 C -0.0178965 -0.484894 -0.0886363 0
M  V30 7 C -1.26004 0.113595 -0.0463852 0
M  V30 8 C -1.31909 1.47001 0.24285 0
M  V30 9 N -2.57626 2.11231 0.293533 0
M  V30 10 C -0.176471 2.22377 0.48609 0
M  V30 11 C 1.06141 1.5819 0.434152 0
M  V30 12 N 2.26952 2.27556 0.668984 0
M  V30 13 C -2.51861 -0.637542 -0.297272 0
M  V30 14 C -2.24124 -2.05713 -0.709568 0
M  V30 15 C -3.46121 -0.55068 0.863105 0
M  V30 16 O -3.1204 -0.0120784 -1.41311 0
M  V30 17 H 4.16603 0.860752 -0.38965 0
M  V30 18 H 3.98481 -0.608687 -1.36221 0
M  V30 19 H 2.88313 0.735116 -1.71601 0
M  V30 20 H 1.86594 -2.42724 0.717307 0
M  V30 21 H 3.40199 -2.29856 -0.1591 0
M  V30 22 H 1.88981 -2.16829 -1.09121 0
M  V30 23 H 3.79941 -0.872219 1.42901 0
M  V30 24 H 0.0350018 -1.5535 -0.316034 0
M  V30 25 H -3.03041 2.37317 -0.60115 0
M  V30 26 H -3.01203 2.30658 1.2098 0
M  V30 27 H -0.194417 3.27065 0.711251 0
M  V30 28 H 2.67206 2.86048 -0.0817737 0
M  V30 29 H 2.77129 2.2207 1.57006 0
M  V30 30 H -3.2255 -2.56297 -0.839372 0
M  V30 31 H -1.74323 -2.05262 -1.70178 0
M  V30 32 H -1.67322 -2.62433 0.052265 0
M  V30 33 H -4.28423 0.192332 0.705232 0
M  V30 34 H -2.95717 -0.218135 1.8063 0
M  V30 35 H -3.98741 -1.52985 1.03099 0
M  V30 36 H -2.38469 0.204651 -2.04215 0
M  V30 END ATOM
M  V30 BEGIN BOND
M  V30 1 1 1 2
M  V30 2 1 2 3
M  V30 3 1 2 4
M  V30 4 1 2 5
M  V30 5 2 5 6
M  V30 6 1 6 7
M  V30 7 2 7 8
M  V30 8 1 8 9
M  V30 9 1 8 10
M  V30 10 2 10 11
M  V30 11 1 11 12
M  V30 12 1 7 13
M  V30 13 1 13 14
M  V30 14 1 13 15
M  V30 15 1 13 16
M  V30 16 1 11 5
M  V30 17 1 1 17
M  V30 18 1 1 18
M  V30 19 1 1 19
M  V30 20 1 3 20
M  V30 21 1 3 21
M  V30 22 1 3 22
M  V30 23 1 4 23
M  V30 24 1 6 24
M  V30 25 1 9 25
M  V30 26 1 9 26
M  V30 27 1 10 27
M  V30 28 1 12 28
M  V30 29 1 12 29
M  V30 30 1 14 30
M  V30 31 1 14 31
M  V30 32 1 14 32
M  V30 33 1 15 33
M  V30 34 1 15 34
M  V30 35 1 15 35
M  V30 36 1 16 36
M  V30 END BOND
M  V30 END CTAB
M  END
