
     RDKit          3D

  0  0  0  0  0  0  0  0  0  0999 V3000
M  V30 BEGIN CTAB
M  V30 COUNTS 38 41 0 0 0
M  V30 BEGIN ATOM
M  V30 1 F -7.55522 2.02589 0.753104 0
M  V30 2 C -6.38537 1.40492 0.445695 0
M  V30 3 C -5.85624 0.43337 1.27245 0
M  V30 4 C -4.64889 -0.182571 0.920046 0
M  V30 5 C -3.97832 0.155537 -0.227166 0
M  V30 6 C -4.52437 1.12802 -1.03811 0
M  V30 7 C -5.71108 1.75255 -0.718415 0
M  V30 8 N -2.75356 -0.434234 -0.637928 0
M  V30 9 N -2.46415 -0.869445 -1.85661 0
M  V30 10 C -1.22067 -1.37503 -1.92215 0
M  V30 11 C -0.671882 -1.26234 -0.67809 0
M  V30 12 C -1.65489 -0.670371 0.102355 0
M  V30 13 N -1.34674 -0.448488 1.40241 0
M  V30 14 C -0.159173 -0.780654 1.91171 0
M  V30 15 N 0.797394 -1.3635 1.12691 0
M  V30 16 C 0.557984 -1.61129 -0.169305 0
M  V30 17 S 1.8434 -2.37589 -1.13185 0
M  V30 18 C 2.94364 -1.21344 -1.93303 0
M  V30 19 C 3.7269 -0.485366 -0.914205 0
M  V30 20 N 3.26884 0.64158 -0.382971 0
M  V30 21 C 3.96393 1.33446 0.546671 0
M  V30 22 N 3.39303 2.52621 1.05572 0
M  V30 23 N 5.15426 0.867059 0.943754 0
M  V30 24 C 5.65987 -0.264516 0.438436 0
M  V30 25 N 4.93351 -0.91925 -0.48279 0
M  V30 26 N 6.92375 -0.726088 0.881852 0
M  V30 27 H -6.38436 0.166497 2.17678 0
M  V30 28 H -4.24006 -0.934567 1.56044 0
M  V30 29 H -4.00639 1.40998 -1.9534 0
M  V30 30 H -6.15185 2.515 -1.3416 0
M  V30 31 H -0.695419 -1.80319 -2.76376 0
M  V30 32 H 0.0148005 -0.572897 2.96013 0
M  V30 33 H 2.42361 -0.486528 -2.58281 0
M  V30 34 H 3.61577 -1.81518 -2.59796 0
M  V30 35 H 3.28437 2.75271 2.06067 0
M  V30 36 H 3.04196 3.25879 0.373718 0
M  V30 37 H 7.74755 -0.585337 0.238084 0
M  V30 38 H 7.11405 -1.1924 1.78642 0
M  V30 END ATOM
M  V30 BEGIN BOND
M  V30 1 1 1 2
M  V30 2 2 2 3
M  V30 3 1 3 4
M  V30 4 2 4 5
M  V30 5 1 5 6
M  V30 6 2 6 7
M  V30 7 1 5 8
M  V30 8 1 8 9
M  V30 9 2 9 10
M  V30 10 1 10 11
M  V30 11 2 11 12
M  V30 12 1 12 13
M  V30 13 2 13 14
M  V30 14 1 14 15
M  V30 15 2 15 16
M  V30 16 1 16 17
M  V30 17 1 17 18
M  V30 18 1 18 19
M  V30 19 2 19 20
M  V30 20 1 20 21
M  V30 21 1 21 22
M  V30 22 2 21 23
M  V30 23 1 23 24
M  V30 24 2 24 25
M  V30 25 1 24 26
M  V30 26 1 7 2
M  V30 27 1 12 8
M  V30 28 1 25 19
M  V30 29 1 16 11
M  V30 30 1 3 27
M  V30 31 1 4 28
M  V30 32 1 6 29
M  V30 33 1 7 30
M  V30 34 1 10 31
M  V30 35 1 14 32
M  V30 36 1 18 33
M  V30 37 1 18 34
M  V30 38 1 22 35
M  V30 39 1 22 36
M  V30 40 1 26 37
M  V30 41 1 26 38
M  V30 END BOND
M  V30 END CTAB
M  END
