
     RDKit          3D

  0  0  0  0  0  0  0  0  0  0999 V3000
M  V30 BEGIN CTAB
M  V30 COUNTS 28 28 0 0 0
M  V30 BEGIN ATOM
M  V30 1 N -3.38354 0.400799 -0.611109 0
M  V30 2 C -2.00412 0.819406 -0.79588 0
M  V30 3 C -1.11049 -0.0368405 0.0668987 0
M  V30 4 C 0.319447 0.269427 -0.0694599 0
M  V30 5 C 0.814937 1.40479 -0.724683 0
M  V30 6 C 2.16629 1.64275 -0.895755 0
M  V30 7 C 3.08198 0.735207 -0.408018 0
M  V30 8 C 2.61647 -0.387354 0.236803 0
M  V30 9 C 1.26119 -0.607057 0.398498 0
M  V30 10 N 3.49258 -1.39335 0.733529 0
M  V30 11 C -1.38709 -1.46287 -0.237977 0
M  V30 12 C -1.40207 0.281082 1.55609 0
M  V30 13 H -3.51644 -0.237181 0.209839 0
M  V30 14 H -3.80855 -0.0127143 -1.46668 0
M  V30 15 H -1.91637 1.85005 -0.39998 0
M  V30 16 H -1.73389 0.740374 -1.85368 0
M  V30 17 H 0.105626 2.12739 -1.11799 0
M  V30 18 H 2.49418 2.55242 -1.43827 0
M  V30 19 H 4.15856 0.85888 -0.495324 0
M  V30 20 H 0.973458 -1.54103 0.921049 0
M  V30 21 H 3.64621 -2.23614 0.183314 0
M  V30 22 H 3.94146 -1.23954 1.64012 0
M  V30 23 H -1.84106 -1.55316 -1.26689 0
M  V30 24 H -0.467926 -2.07651 -0.279782 0
M  V30 25 H -2.13559 -1.92708 0.468197 0
M  V30 26 H -1.30588 -0.701575 2.12608 0
M  V30 27 H -0.671077 0.99793 1.9606 0
M  V30 28 H -2.3883 0.731895 1.56046 0
M  V30 END ATOM
M  V30 BEGIN BOND
M  V30 1 1 1 2
M  V30 2 1 2 3
M  V30 3 1 3 4
M  V30 4 2 4 5
M  V30 5 1 5 6
M  V30 6 2 6 7
M  V30 7 1 7 8
M  V30 8 2 8 9
M  V30 9 1 8 10
M  V30 10 1 3 11
M  V30 11 1 3 12
M  V30 12 1 9 4
M  V30 13 1 1 13
M  V30 14 1 1 14
M  V30 15 1 2 15
M  V30 16 1 2 16
M  V30 17 1 5 17
M  V30 18 1 6 18
M  V30 19 1 7 19
M  V30 20 1 9 20
M  V30 21 1 10 21
M  V30 22 1 10 22
M  V30 23 1 11 23
M  V30 24 1 11 24
M  V30 25 1 11 25
M  V30 26 1 12 26
M  V30 27 1 12 27
M  V30 28 1 12 28
M  V30 END BOND
M  V30 END CTAB
M  END
