
     RDKit          3D

  0  0  0  0  0  0  0  0  0  0999 V3000
M  V30 BEGIN CTAB
M  V30 COUNTS 28 29 0 0 0
M  V30 BEGIN ATOM
M  V30 1 N 4.85513 0.705897 0.31526 0
M  V30 2 C 3.45123 0.530584 0.254313 0
M  V30 3 C 2.58441 1.60906 0.249476 0
M  V30 4 C 1.24028 1.34771 0.189096 0
M  V30 5 C 0.721765 0.0724061 0.133682 0
M  V30 6 C 1.59417 -1.01038 0.138678 0
M  V30 7 C 2.94324 -0.771791 0.198635 0
M  V30 8 S 4.13003 -2.13345 0.208705 0
M  V30 9 C -0.717872 -0.160514 0.0698959 0
M  V30 10 C -1.32816 -1.27278 0.612658 0
M  V30 11 C -2.70981 -1.44885 0.524949 0
M  V30 12 C -3.48796 -0.507695 -0.109224 0
M  V30 13 N -4.89937 -0.655473 -0.216891 0
M  V30 14 C -2.87574 0.611221 -0.655437 0
M  V30 15 S -3.93398 1.81858 -1.47697 0
M  V30 16 C -1.51185 0.79317 -0.573419 0
M  V30 17 H 5.27716 1.07702 1.17823 0
M  V30 18 H 5.45387 0.468092 -0.48811 0
M  V30 19 H 2.98179 2.63168 0.29304 0
M  V30 20 H 0.576564 2.20555 0.18665 0
M  V30 21 H 1.22514 -2.0405 0.0961847 0
M  V30 22 H 4.20781 -2.75946 -1.02928 0
M  V30 23 H -0.715828 -1.99814 1.10294 0
M  V30 24 H -3.12814 -2.32333 0.960392 0
M  V30 25 H -5.4106 -1.26209 0.458093 0
M  V30 26 H -5.42285 -0.173872 -0.949276 0
M  V30 27 H -4.0146 2.95857 -0.653101 0
M  V30 28 H -1.08582 1.68878 -1.01917 0
M  V30 END ATOM
M  V30 BEGIN BOND
M  V30 1 1 1 2
M  V30 2 2 2 3
M  V30 3 1 3 4
M  V30 4 2 4 5
M  V30 5 1 5 6
M  V30 6 2 6 7
M  V30 7 1 7 8
M  V30 8 1 5 9
M  V30 9 2 9 10
M  V30 10 1 10 11
M  V30 11 2 11 12
M  V30 12 1 12 13
M  V30 13 1 12 14
M  V30 14 1 14 15
M  V30 15 2 14 16
M  V30 16 1 7 2
M  V30 17 1 16 9
M  V30 18 1 1 17
M  V30 19 1 1 18
M  V30 20 1 3 19
M  V30 21 1 4 20
M  V30 22 1 6 21
M  V30 23 1 8 22
M  V30 24 1 10 23
M  V30 25 1 11 24
M  V30 26 1 13 25
M  V30 27 1 13 26
M  V30 28 1 15 27
M  V30 29 1 16 28
M  V30 END BOND
M  V30 END CTAB
M  END
