
     RDKit          3D

  0  0  0  0  0  0  0  0  0  0999 V3000
M  V30 BEGIN CTAB
M  V30 COUNTS 33 35 0 0 0
M  V30 BEGIN ATOM
M  V30 1 N -3.36159 -1.38557 2.18767 0
M  V30 2 C -3.43776 -0.475814 1.09773 0
M  V30 3 N -2.33452 0.128677 0.611471 0
M  V30 4 C -2.35333 0.990904 -0.409176 0
M  V30 5 C -1.16233 1.6506 -0.944775 0
M  V30 6 S -0.346381 0.764951 -2.27401 0
M  V30 7 C 0.414292 -0.760205 -1.72823 0
M  V30 8 C 1.58552 -0.551017 -0.822799 0
M  V30 9 C 1.50034 -0.495474 0.548254 0
M  V30 10 C 2.61971 -0.292965 1.34762 0
M  V30 11 Cl 2.46912 -0.227945 3.09964 0
M  V30 12 C 3.87123 -0.138129 0.799575 0
M  V30 13 C 3.98726 -0.189352 -0.575014 0
M  V30 14 C 2.86753 -0.390876 -1.35278 0
M  V30 15 O 5.34566 -0.00449191 -0.835449 0
M  V30 16 C 6.09306 -0.222421 0.345526 0
M  V30 17 O 5.14077 0.0737839 1.35047 0
M  V30 18 N -3.53846 1.26039 -0.970271 0
M  V30 19 C -4.66823 0.692777 -0.532874 0
M  V30 20 N -4.59877 -0.162572 0.489973 0
M  V30 21 N -5.89395 1.01395 -1.1629 0
M  V30 22 H -4.17157 -1.45221 2.84696 0
M  V30 23 H -2.50972 -1.97105 2.31862 0
M  V30 24 H -0.4786 1.88743 -0.0998532 0
M  V30 25 H -1.46819 2.65458 -1.36317 0
M  V30 26 H -0.37457 -1.32225 -1.14544 0
M  V30 27 H 0.655609 -1.41771 -2.58086 0
M  V30 28 H 0.55969 -0.611623 1.01771 0
M  V30 29 H 2.9589 -0.432243 -2.44068 0
M  V30 30 H 6.98561 0.420231 0.410173 0
M  V30 31 H 6.32299 -1.29872 0.424319 0
M  V30 32 H -6.79207 0.932538 -0.644173 0
M  V30 33 H -5.88725 1.33182 -2.1496 0
M  V30 END ATOM
M  V30 BEGIN BOND
M  V30 1 1 1 2
M  V30 2 2 2 3
M  V30 3 1 3 4
M  V30 4 1 4 5
M  V30 5 1 5 6
M  V30 6 1 6 7
M  V30 7 1 7 8
M  V30 8 2 8 9
M  V30 9 1 9 10
M  V30 10 1 10 11
M  V30 11 2 10 12
M  V30 12 1 12 13
M  V30 13 2 13 14
M  V30 14 1 13 15
M  V30 15 1 15 16
M  V30 16 1 16 17
M  V30 17 2 4 18
M  V30 18 1 18 19
M  V30 19 2 19 20
M  V30 20 1 19 21
M  V30 21 1 20 2
M  V30 22 1 14 8
M  V30 23 1 17 12
M  V30 24 1 1 22
M  V30 25 1 1 23
M  V30 26 1 5 24
M  V30 27 1 5 25
M  V30 28 1 7 26
M  V30 29 1 7 27
M  V30 30 1 9 28
M  V30 31 1 14 29
M  V30 32 1 16 30
M  V30 33 1 16 31
M  V30 34 1 21 32
M  V30 35 1 21 33
M  V30 END BOND
M  V30 END CTAB
M  END
