
     RDKit          3D

  0  0  0  0  0  0  0  0  0  0999 V3000
M  V30 BEGIN CTAB
M  V30 COUNTS 33 34 0 0 0
M  V30 BEGIN ATOM
M  V30 1 N -6.6309 -0.0314894 0.102088 0
M  V30 2 C -5.22499 -0.110358 0.204316 0
M  V30 3 C -4.53959 -1.30967 0.0216506 0
M  V30 4 C -3.185 -1.43157 0.110956 0
M  V30 5 C -2.42292 -0.290745 0.403426 0
M  V30 6 C -3.09786 0.893065 0.583866 0
M  V30 7 C -4.46024 0.999709 0.490851 0
M  V30 8 C -0.984862 -0.435093 0.495252 0
M  V30 9 O -0.447111 -1.55433 0.316098 0
M  V30 10 N -0.16889 0.676249 0.786498 0
M  V30 11 N 1.21773 0.499342 0.867483 0
M  V30 12 C 1.91751 0.365057 -0.18168 0
M  V30 13 C 3.38267 0.176306 -0.140197 0
M  V30 14 C 4.03979 0.141102 1.07642 0
M  V30 15 C 5.40844 -0.0365651 1.08322 0
M  V30 16 C 6.16008 -0.181659 -0.0640347 0
M  V30 17 C 5.47301 -0.14192 -1.26513 0
M  V30 18 C 4.10631 0.0341028 -1.30558 0
M  V30 19 N 1.27157 0.397263 -1.43534 0
M  V30 20 H -7.17828 0.517067 0.782202 0
M  V30 21 H -7.11685 -0.526987 -0.659985 0
M  V30 22 H -5.17481 -2.16631 -0.203254 0
M  V30 23 H -2.70341 -2.37504 -0.0375857 0
M  V30 24 H -2.50275 1.79092 0.813649 0
M  V30 25 H -4.92776 1.96872 0.64568 0
M  V30 26 H -0.522656 1.64175 0.950286 0
M  V30 27 H 3.50647 0.248974 2.00979 0
M  V30 28 H 5.91927 -0.0634098 2.04163 0
M  V30 29 H 7.2404 -0.321522 -0.0495383 0
M  V30 30 H 6.02686 -0.252823 -2.20712 0
M  V30 31 H 3.54829 0.0682854 -2.23495 0
M  V30 32 H 1.18148 -0.470399 -1.98691 0
M  V30 33 H 0.889007 1.28197 -1.80391 0
M  V30 END ATOM
M  V30 BEGIN BOND
M  V30 1 1 1 2
M  V30 2 2 2 3
M  V30 3 1 3 4
M  V30 4 2 4 5
M  V30 5 1 5 6
M  V30 6 2 6 7
M  V30 7 1 5 8
M  V30 8 2 8 9
M  V30 9 1 8 10
M  V30 10 1 10 11
M  V30 11 2 11 12
M  V30 12 1 12 13
M  V30 13 2 13 14
M  V30 14 1 14 15
M  V30 15 2 15 16
M  V30 16 1 16 17
M  V30 17 2 17 18
M  V30 18 1 12 19
M  V30 19 1 7 2
M  V30 20 1 18 13
M  V30 21 1 1 20
M  V30 22 1 1 21
M  V30 23 1 3 22
M  V30 24 1 4 23
M  V30 25 1 6 24
M  V30 26 1 7 25
M  V30 27 1 10 26
M  V30 28 1 14 27
M  V30 29 1 15 28
M  V30 30 1 16 29
M  V30 31 1 17 30
M  V30 32 1 18 31
M  V30 33 1 19 32
M  V30 34 1 19 33
M  V30 END BOND
M  V30 END CTAB
M  END
