
     RDKit          3D

  0  0  0  0  0  0  0  0  0  0999 V3000
M  V30 BEGIN CTAB
M  V30 COUNTS 34 35 0 0 0
M  V30 BEGIN ATOM
M  V30 1 C 6.12976 0.524242 0.110392 0
M  V30 2 C 5.36218 1.79222 0.392551 0
M  V30 3 O 4.03043 1.62055 -0.0657027 0
M  V30 4 C 3.23656 0.619205 0.448957 0
M  V30 5 O 3.71291 -0.134079 1.32691 0
M  V30 6 C 1.85231 0.409175 0.000196915 0
M  V30 7 C 1.29456 1.22154 -0.966793 0
M  V30 8 C -0.0155633 1.0155 -1.38515 0
M  V30 9 C -0.767205 0.0050825 -0.843185 0
M  V30 10 N -2.10806 -0.254209 -1.22892 0
M  V30 11 N -2.8586 -1.28637 -0.667347 0
M  V30 12 C -3.96184 -1.06963 -0.0354334 0
M  V30 13 C -4.59227 0.224191 0.19505 0
M  V30 14 N -4.1339 1.499 -0.219864 0
M  V30 15 N -5.67503 -0.0448392 0.86902 0
M  V30 16 N -5.80266 -1.39874 1.09607 0
M  V30 17 C -4.82002 -2.06097 0.585612 0
M  V30 18 N -4.57815 -3.46692 0.598727 0
M  V30 19 C -0.20958 -0.818708 0.133766 0
M  V30 20 C 1.09058 -0.604507 0.540417 0
M  V30 21 H 7.19016 0.726036 -0.153412 0
M  V30 22 H 5.62538 -0.0144317 -0.695248 0
M  V30 23 H 6.15763 -0.134175 1.02372 0
M  V30 24 H 5.84905 2.6619 -0.0809416 0
M  V30 25 H 5.34614 1.90983 1.51617 0
M  V30 26 H 1.88805 2.01808 -1.39361 0
M  V30 27 H -0.485519 1.63691 -2.14465 0
M  V30 28 H -2.55624 0.340913 -1.95545 0
M  V30 29 H -4.34329 1.8038 -1.18971 0
M  V30 30 H -3.61007 2.11632 0.403139 0
M  V30 31 H -4.02729 -3.92428 1.33163 0
M  V30 32 H -4.98086 -4.06882 -0.176896 0
M  V30 33 H -0.768937 -1.60748 0.569369 0
M  V30 34 H 1.5294 -1.25633 1.31233 0
M  V30 END ATOM
M  V30 BEGIN BOND
M  V30 1 1 1 2
M  V30 2 1 2 3
M  V30 3 1 3 4
M  V30 4 2 4 5
M  V30 5 1 4 6
M  V30 6 2 6 7
M  V30 7 1 7 8
M  V30 8 2 8 9
M  V30 9 1 9 10
M  V30 10 1 10 11
M  V30 11 2 11 12
M  V30 12 1 12 13
M  V30 13 1 13 14
M  V30 14 2 13 15
M  V30 15 1 15 16
M  V30 16 2 16 17
M  V30 17 1 17 18
M  V30 18 1 9 19
M  V30 19 2 19 20
M  V30 20 1 20 6
M  V30 21 1 17 12
M  V30 22 1 1 21
M  V30 23 1 1 22
M  V30 24 1 1 23
M  V30 25 1 2 24
M  V30 26 1 2 25
M  V30 27 1 7 26
M  V30 28 1 8 27
M  V30 29 1 10 28
M  V30 30 1 14 29
M  V30 31 1 14 30
M  V30 32 1 18 31
M  V30 33 1 18 32
M  V30 34 1 19 33
M  V30 35 1 20 34
M  V30 END BOND
M  V30 END CTAB
M  END
