
     RDKit          3D

  0  0  0  0  0  0  0  0  0  0999 V3000
M  V30 BEGIN CTAB
M  V30 COUNTS 31 32 0 0 0
M  V30 BEGIN ATOM
M  V30 1 O 1.82653 -2.16127 0.182656 0
M  V30 2 C 1.36402 -0.994946 0.430324 0
M  V30 3 N 2.26681 0.0975673 0.37455 0
M  V30 4 C 3.6359 -0.104897 0.0555981 0
M  V30 5 N 4.20949 -1.31006 -0.215232 0
M  V30 6 O 5.46119 -1.17406 -0.468606 0
M  V30 7 C 5.80366 0.0831435 -0.388879 0
M  V30 8 C 4.66659 0.800473 -0.0559291 0
M  V30 9 C 7.13098 0.726301 -0.596493 0
M  V30 10 C -0.0725093 -0.805751 0.763331 0
M  V30 11 S -0.965396 -0.45986 -0.759656 0
M  V30 12 C -2.71855 -0.237505 -0.452497 0
M  V30 13 N -3.54116 -1.3102 -0.496618 0
M  V30 14 C -4.85257 -1.11222 -0.262494 0
M  V30 15 N -5.74581 -2.2137 -0.301723 0
M  V30 16 C -5.32193 0.161508 0.013276 0
M  V30 17 C -4.4737 1.24864 0.055949 0
M  V30 18 N -3.15927 1.00435 -0.186169 0
M  V30 19 N -4.93137 2.56264 0.337599 0
M  V30 20 H 1.94735 1.06905 0.566616 0
M  V30 21 H 4.58785 1.85842 0.0902228 0
M  V30 22 H 6.98673 1.5648 -1.31993 0
M  V30 23 H 7.44356 1.20063 0.356819 0
M  V30 24 H 7.86597 -0.0248304 -0.949553 0
M  V30 25 H -0.186921 0.0951116 1.43174 0
M  V30 26 H -0.513064 -1.68258 1.28127 0
M  V30 27 H -5.75179 -2.87642 0.498879 0
M  V30 28 H -6.39494 -2.38735 -1.09546 0
M  V30 29 H -6.38247 0.327634 0.202338 0
M  V30 30 H -5.57864 3.0327 -0.324848 0
M  V30 31 H -4.60655 3.02268 1.20056 0
M  V30 END ATOM
M  V30 BEGIN BOND
M  V30 1 2 1 2
M  V30 2 1 2 3
M  V30 3 1 3 4
M  V30 4 2 4 5
M  V30 5 1 5 6
M  V30 6 1 6 7
M  V30 7 2 7 8
M  V30 8 1 7 9
M  V30 9 1 2 10
M  V30 10 1 10 11
M  V30 11 1 11 12
M  V30 12 2 12 13
M  V30 13 1 13 14
M  V30 14 1 14 15
M  V30 15 2 14 16
M  V30 16 1 16 17
M  V30 17 2 17 18
M  V30 18 1 17 19
M  V30 19 1 8 4
M  V30 20 1 18 12
M  V30 21 1 3 20
M  V30 22 1 8 21
M  V30 23 1 9 22
M  V30 24 1 9 23
M  V30 25 1 9 24
M  V30 26 1 10 25
M  V30 27 1 10 26
M  V30 28 1 15 27
M  V30 29 1 15 28
M  V30 30 1 16 29
M  V30 31 1 19 30
M  V30 32 1 19 31
M  V30 END BOND
M  V30 END CTAB
M  END
