
     RDKit          3D

  0  0  0  0  0  0  0  0  0  0999 V3000
M  V30 BEGIN CTAB
M  V30 COUNTS 43 45 0 0 0
M  V30 BEGIN ATOM
M  V30 1 N 5.87418 -0.992582 0.993024 0
M  V30 2 C 4.62338 -0.814045 0.3274 0
M  V30 3 C 3.4419 -0.671835 1.0336 0
M  V30 4 C 2.21916 -0.497756 0.406331 0
M  V30 5 C 2.14452 -0.460691 -0.966587 0
M  V30 6 C 3.31895 -0.601947 -1.6737 0
M  V30 7 C 4.54238 -0.776006 -1.05209 0
M  V30 8 C 0.866613 -0.276982 -1.71082 0
M  V30 9 N -0.259562 -0.145979 -0.837582 0
M  V30 10 C -1.0383 -1.2286 -0.375667 0
M  V30 11 O -0.951635 -2.3238 -0.942034 0
M  V30 12 C -1.96917 -1.0715 0.791266 0
M  V30 13 O -2.43024 0.257432 0.862812 0
M  V30 14 C -1.69838 1.3593 0.439532 0
M  V30 15 C -0.62801 1.16934 -0.398002 0
M  V30 16 N 0.0904758 2.23988 -0.814962 0
M  V30 17 C -0.206867 3.49104 -0.437012 0
M  V30 18 N 0.541935 4.62058 -0.8699 0
M  V30 19 C -1.28124 3.71675 0.407919 0
M  V30 20 C -2.02055 2.64179 0.840181 0
M  V30 21 C -3.07521 -2.07833 0.637745 0
M  V30 22 C -4.07726 -2.00539 1.76998 0
M  V30 23 C -3.84148 -1.90943 -0.648707 0
M  V30 24 H 6.60443 -0.265217 1.04876 0
M  V30 25 H 6.03933 -1.91864 1.44216 0
M  V30 26 H 3.53608 -0.705905 2.12494 0
M  V30 27 H 1.32782 -0.391376 0.984991 0
M  V30 28 H 3.2944 -0.577181 -2.75971 0
M  V30 29 H 5.44572 -0.884021 -1.62804 0
M  V30 30 H 0.989992 0.63716 -2.32424 0
M  V30 31 H 0.760522 -1.11745 -2.44454 0
M  V30 32 H -1.44756 -1.29392 1.74491 0
M  V30 33 H 0.981144 5.25359 -0.201328 0
M  V30 34 H 0.631181 4.78605 -1.88565 0
M  V30 35 H -1.50968 4.74151 0.706004 0
M  V30 36 H -2.85575 2.76249 1.49037 0
M  V30 37 H -2.61718 -3.08187 0.676781 0
M  V30 38 H -4.9612 -2.61814 1.43364 0
M  V30 39 H -4.48846 -0.964283 1.88256 0
M  V30 40 H -3.65279 -2.38647 2.70046 0
M  V30 41 H -4.68014 -1.1861 -0.429981 0
M  V30 42 H -4.35405 -2.87487 -0.856397 0
M  V30 43 H -3.22939 -1.5566 -1.48841 0
M  V30 END ATOM
M  V30 BEGIN BOND
M  V30 1 1 1 2
M  V30 2 2 2 3
M  V30 3 1 3 4
M  V30 4 2 4 5
M  V30 5 1 5 6
M  V30 6 2 6 7
M  V30 7 1 5 8
M  V30 8 1 8 9
M  V30 9 1 9 10
M  V30 10 2 10 11
M  V30 11 1 10 12
M  V30 12 1 12 13
M  V30 13 1 13 14
M  V30 14 2 14 15
M  V30 15 1 15 16
M  V30 16 2 16 17
M  V30 17 1 17 18
M  V30 18 1 17 19
M  V30 19 2 19 20
M  V30 20 1 12 21
M  V30 21 1 21 22
M  V30 22 1 21 23
M  V30 23 1 7 2
M  V30 24 1 15 9
M  V30 25 1 20 14
M  V30 26 1 1 24
M  V30 27 1 1 25
M  V30 28 1 3 26
M  V30 29 1 4 27
M  V30 30 1 6 28
M  V30 31 1 7 29
M  V30 32 1 8 30
M  V30 33 1 8 31
M  V30 34 1 12 32
M  V30 35 1 18 33
M  V30 36 1 18 34
M  V30 37 1 19 35
M  V30 38 1 20 36
M  V30 39 1 21 37
M  V30 40 1 22 38
M  V30 41 1 22 39
M  V30 42 1 22 40
M  V30 43 1 23 41
M  V30 44 1 23 42
M  V30 45 1 23 43
M  V30 END BOND
M  V30 END CTAB
M  END
