
     RDKit          3D

  0  0  0  0  0  0  0  0  0  0999 V3000
M  V30 BEGIN CTAB
M  V30 COUNTS 26 27 0 0 0
M  V30 BEGIN ATOM
M  V30 1 N 4.85504 -0.340516 0.460949 0
M  V30 2 C 3.74081 -1.12865 0.143733 0
M  V30 3 S 3.80893 -2.71004 -0.211257 0
M  V30 4 C 2.40168 -0.512398 0.124828 0
M  V30 5 C 2.04017 0.797806 -0.0197739 0
M  V30 6 N 3.02646 1.85534 -0.200519 0
M  V30 7 N 0.768894 1.07287 -0.00181334 0
M  V30 8 C -0.126311 0.127188 0.14678 0
M  V30 9 S 0.87958 -1.27834 0.277348 0
M  V30 10 N -1.53973 0.148471 0.20316 0
M  V30 11 C -2.40639 0.402288 -0.923774 0
M  V30 12 C -3.79793 -0.0652615 -0.464456 0
M  V30 13 C -3.43597 -0.984255 0.677634 0
M  V30 14 C -2.34685 -0.117304 1.37623 0
M  V30 15 H 5.26554 0.267686 -0.287199 0
M  V30 16 H 5.23855 -0.385172 1.42896 0
M  V30 17 H 3.41524 2.39313 0.596163 0
M  V30 18 H 3.36757 2.08503 -1.15206 0
M  V30 19 H -2.11895 -0.246151 -1.77785 0
M  V30 20 H -2.44007 1.48251 -1.19754 0
M  V30 21 H -4.39782 0.807327 -0.0932009 0
M  V30 22 H -4.30757 -0.631443 -1.26066 0
M  V30 23 H -4.24688 -1.24878 1.34304 0
M  V30 24 H -2.89625 -1.84509 0.220089 0
M  V30 25 H -2.85769 0.773405 1.76955 0
M  V30 26 H -1.89003 -0.719656 2.14234 0
M  V30 END ATOM
M  V30 BEGIN BOND
M  V30 1 1 1 2
M  V30 2 2 2 3
M  V30 3 1 2 4
M  V30 4 2 4 5
M  V30 5 1 5 6
M  V30 6 1 5 7
M  V30 7 2 7 8
M  V30 8 1 8 9
M  V30 9 1 8 10
M  V30 10 1 10 11
M  V30 11 1 11 12
M  V30 12 1 12 13
M  V30 13 1 13 14
M  V30 14 1 9 4
M  V30 15 1 14 10
M  V30 16 1 1 15
M  V30 17 1 1 16
M  V30 18 1 6 17
M  V30 19 1 6 18
M  V30 20 1 11 19
M  V30 21 1 11 20
M  V30 22 1 12 21
M  V30 23 1 12 22
M  V30 24 1 13 23
M  V30 25 1 13 24
M  V30 26 1 14 25
M  V30 27 1 14 26
M  V30 END BOND
M  V30 END CTAB
M  END
