
     RDKit          3D

  0  0  0  0  0  0  0  0  0  0999 V3000
M  V30 BEGIN CTAB
M  V30 COUNTS 32 33 0 0 0
M  V30 BEGIN ATOM
M  V30 1 N 2.46242 -1.53091 1.54282 0
M  V30 2 C 3.36594 -0.70183 0.785114 0
M  V30 3 C 4.72771 -0.858461 0.889043 0
M  V30 4 C 5.61325 -0.0820606 0.178459 0
M  V30 5 C 5.11538 0.894356 -0.673938 0
M  V30 6 C 3.75575 1.07821 -0.802047 0
M  V30 7 C 2.88827 0.271972 -0.0654868 0
M  V30 8 C 1.45409 0.455436 -0.19134 0
M  V30 9 N 0.645158 -0.278804 0.47996 0
M  V30 10 N -0.711237 -0.107757 0.363116 0
M  V30 11 C -1.43779 -0.445904 -0.636002 0
M  V30 12 C -2.86986 -0.182119 -0.578059 0
M  V30 13 C -3.68856 -0.53632 -1.64534 0
M  V30 14 C -5.02494 -0.278793 -1.56641 0
M  V30 15 C -5.60103 0.323402 -0.46205 0
M  V30 16 C -4.77912 0.668268 0.586048 0
M  V30 17 C -3.40906 0.422108 0.54404 0
M  V30 18 N -2.57059 0.783752 1.63463 0
M  V30 19 H 2.19382 -1.2683 2.51162 0
M  V30 20 H 2.08444 -2.3876 1.11517 0
M  V30 21 H 5.09952 -1.6311 1.56412 0
M  V30 22 H 6.70239 -0.207849 0.262043 0
M  V30 23 H 5.81591 1.50335 -1.23145 0
M  V30 24 H 3.3454 1.84523 -1.47115 0
M  V30 25 H 1.07057 1.22341 -0.862001 0
M  V30 26 H -0.959399 -0.913025 -1.48128 0
M  V30 27 H -3.22907 -1.00139 -2.49297 0
M  V30 28 H -5.69954 -0.536434 -2.37127 0
M  V30 29 H -6.66693 0.532209 -0.391659 0
M  V30 30 H -5.1357 1.14344 1.49284 0
M  V30 31 H -2.12788 1.7062 1.6581 0
M  V30 32 H -2.42932 0.0973345 2.38272 0
M  V30 END ATOM
M  V30 BEGIN BOND
M  V30 1 1 1 2
M  V30 2 2 2 3
M  V30 3 1 3 4
M  V30 4 2 4 5
M  V30 5 1 5 6
M  V30 6 2 6 7
M  V30 7 1 7 8
M  V30 8 2 8 9 CFG=2
M  V30 9 1 9 10
M  V30 10 2 10 11 CFG=2
M  V30 11 1 11 12
M  V30 12 2 12 13
M  V30 13 1 13 14
M  V30 14 2 14 15
M  V30 15 1 15 16
M  V30 16 2 16 17
M  V30 17 1 17 18
M  V30 18 1 7 2
M  V30 19 1 17 12
M  V30 20 1 1 19
M  V30 21 1 1 20
M  V30 22 1 3 21
M  V30 23 1 4 22
M  V30 24 1 5 23
M  V30 25 1 6 24
M  V30 26 1 8 25
M  V30 27 1 11 26
M  V30 28 1 13 27
M  V30 29 1 14 28
M  V30 30 1 15 29
M  V30 31 1 16 30
M  V30 32 1 18 31
M  V30 33 1 18 32
M  V30 END BOND
M  V30 END CTAB
M  END
