
     RDKit          3D

  0  0  0  0  0  0  0  0  0  0999 V3000
M  V30 BEGIN CTAB
M  V30 COUNTS 39 40 0 0 0
M  V30 BEGIN ATOM
M  V30 1 N -1.51817 3.45959 -0.685341 0
M  V30 2 C -1.53817 2.03177 -0.872926 0
M  V30 3 C -1.04951 1.39289 0.387773 0
M  V30 4 N -0.994821 -0.0513998 0.3768 0
M  V30 5 C -2.31538 -0.520415 0.372325 0
M  V30 6 C -2.65958 -1.89429 0.0205797 0
M  V30 7 C -1.78693 -2.99842 0.494035 0
M  V30 8 C -0.647793 -3.07753 -0.536058 0
M  V30 9 C 0.333036 -2.06226 -0.0860932 0
M  V30 10 C -0.0242445 -0.62284 -0.469036 0 CFG=2
M  V30 11 C 1.26938 0.0673899 -0.345312 0
M  V30 12 C 1.81441 0.321259 0.87306 0
M  V30 13 C 3.01792 0.957868 0.98943 0
M  V30 14 C 3.69107 1.34878 -0.135622 0
M  V30 15 N 3.15243 1.09822 -1.33944 0
M  V30 16 C 1.94913 0.462383 -1.46251 0
M  V30 17 N 4.9676 2.03065 -0.0337003 0
M  V30 18 H -2.12797 3.8213 -0.000750468 0
M  V30 19 H -1.42718 4.00247 -1.50094 0
M  V30 20 H -0.848329 1.85827 -1.7399 0
M  V30 21 H -2.54127 1.78345 -1.20023 0
M  V30 22 H -0.191371 1.90855 0.812867 0
M  V30 23 H -1.88315 1.63154 1.15109 0
M  V30 24 H -2.72797 -0.318397 1.41974 0
M  V30 25 H -2.98008 0.157759 -0.250093 0
M  V30 26 H -3.68666 -2.10694 0.453708 0
M  V30 27 H -2.80192 -2.01203 -1.0775 0
M  V30 28 H -2.31058 -3.98061 0.453284 0
M  V30 29 H -1.32317 -2.84418 1.48867 0
M  V30 30 H -1.04297 -2.77771 -1.53866 0
M  V30 31 H -0.182198 -4.06139 -0.549943 0
M  V30 32 H 0.427078 -2.06758 1.02071 0
M  V30 33 H 1.36334 -2.28186 -0.472761 0
M  V30 34 H -0.390192 -0.622438 -1.53792 0
M  V30 35 H 1.253 -0.0020457 1.76712 0
M  V30 36 H 3.41627 1.13996 1.96733 0
M  V30 37 H 1.57419 0.285229 -2.47246 0
M  V30 38 H 5.7851 1.69752 -0.586239 0
M  V30 39 H 4.98565 2.84551 0.612032 0
M  V30 END ATOM
M  V30 BEGIN BOND
M  V30 1 1 1 2
M  V30 2 1 2 3
M  V30 3 1 3 4
M  V30 4 1 4 5
M  V30 5 1 5 6
M  V30 6 1 6 7
M  V30 7 1 7 8
M  V30 8 1 8 9
M  V30 9 1 9 10
M  V30 10 1 10 11
M  V30 11 2 11 12
M  V30 12 1 12 13
M  V30 13 2 13 14
M  V30 14 1 14 15
M  V30 15 2 15 16
M  V30 16 1 14 17
M  V30 17 1 10 4
M  V30 18 1 16 11
M  V30 19 1 1 18
M  V30 20 1 1 19
M  V30 21 1 2 20
M  V30 22 1 2 21
M  V30 23 1 3 22
M  V30 24 1 3 23
M  V30 25 1 5 24
M  V30 26 1 5 25
M  V30 27 1 6 26
M  V30 28 1 6 27
M  V30 29 1 7 28
M  V30 30 1 7 29
M  V30 31 1 8 30
M  V30 32 1 8 31
M  V30 33 1 9 32
M  V30 34 1 9 33
M  V30 35 1 10 34 CFG=3
M  V30 36 1 12 35
M  V30 37 1 13 36
M  V30 38 1 16 37
M  V30 39 1 17 38
M  V30 40 1 17 39
M  V30 END BOND
M  V30 END CTAB
M  END
