
     RDKit          3D

  0  0  0  0  0  0  0  0  0  0999 V3000
M  V30 BEGIN CTAB
M  V30 COUNTS 28 29 0 0 0
M  V30 BEGIN ATOM
M  V30 1 N -1.75425 1.6744 -0.26269 0
M  V30 2 C -2.17529 0.369476 -0.601411 0
M  V30 3 C -2.42634 -0.319563 0.778567 0
M  V30 4 C -1.04437 -0.802219 1.12247 0
M  V30 5 C -0.229016 -0.993858 -0.0922843 0
M  V30 6 C -1.21055 -0.583179 -1.18887 0
M  V30 7 C 1.00117 -0.170597 -0.179703 0
M  V30 8 C 1.1759 0.816364 -1.10692 0
M  V30 9 C 2.42198 1.46529 -1.21755 0
M  V30 10 C 3.4327 1.07233 -0.375122 0
M  V30 11 N 3.223 0.0957408 0.53043 0
M  V30 12 C 2.03305 -0.536614 0.650569 0
M  V30 13 N 1.83327 -1.52271 1.68225 0
M  V30 14 H -2.17068 1.9996 0.612739 0
M  V30 15 H -1.61062 2.35226 -1.00768 0
M  V30 16 H -3.12983 0.344633 -1.17996 0
M  V30 17 H -2.80183 0.442682 1.47382 0
M  V30 18 H -3.17406 -1.09482 0.615206 0
M  V30 19 H -1.22861 -1.82609 1.60659 0
M  V30 20 H -0.633649 -0.192084 1.92649 0
M  V30 21 H 0.0371351 -2.04198 -0.227327 0
M  V30 22 H -0.764566 -0.341549 -2.14658 0
M  V30 23 H -1.80542 -1.53968 -1.38777 0
M  V30 24 H 0.453031 1.17826 -1.82416 0
M  V30 25 H 2.58339 2.24464 -1.92819 0
M  V30 26 H 4.39959 1.57629 -0.460334 0
M  V30 27 H 2.09235 -1.20752 2.65238 0
M  V30 28 H 1.4725 -2.4595 1.53504 0
M  V30 END ATOM
M  V30 BEGIN BOND
M  V30 1 1 1 2
M  V30 2 1 2 3
M  V30 3 1 3 4
M  V30 4 1 4 5
M  V30 5 1 5 6
M  V30 6 1 5 7
M  V30 7 2 7 8
M  V30 8 1 8 9
M  V30 9 2 9 10
M  V30 10 1 10 11
M  V30 11 2 11 12
M  V30 12 1 12 13
M  V30 13 1 6 2
M  V30 14 1 12 7
M  V30 15 1 1 14
M  V30 16 1 1 15
M  V30 17 1 2 16
M  V30 18 1 3 17
M  V30 19 1 3 18
M  V30 20 1 4 19
M  V30 21 1 4 20
M  V30 22 1 5 21
M  V30 23 1 6 22
M  V30 24 1 6 23
M  V30 25 1 8 24
M  V30 26 1 9 25
M  V30 27 1 10 26
M  V30 28 1 13 27
M  V30 29 1 13 28
M  V30 END BOND
M  V30 END CTAB
M  END
