
     RDKit          3D

  0  0  0  0  0  0  0  0  0  0999 V3000
M  V30 BEGIN CTAB
M  V30 COUNTS 51 52 0 0 0
M  V30 BEGIN ATOM
M  V30 1 C -4.84143 -1.74439 0.355283 0
M  V30 2 C -4.5672 -0.688964 -0.679144 0
M  V30 3 C -3.22203 0.0125492 -0.373351 0
M  V30 4 C -2.21548 -1.08025 -0.421449 0
M  V30 5 N -0.853543 -0.847283 -0.171779 0
M  V30 6 C -0.157764 -0.492519 0.997423 0
M  V30 7 O -0.754909 -0.353093 2.07461 0
M  V30 8 C 1.32839 -0.270614 0.982849 0
M  V30 9 C 1.62939 0.837306 0.0355962 0
M  V30 10 C 2.88285 0.745894 -0.735894 0
M  V30 11 C 4.01234 1.49468 -0.0559292 0
M  V30 12 C 4.95453 0.527739 0.63222 0
M  V30 13 C 4.21261 -0.642907 1.2499 0
M  V30 14 C 3.41781 -1.41404 0.252857 0
M  V30 15 C 1.95953 -1.58359 0.645762 0
M  V30 16 C 3.37226 -0.6285 -1.0475 0
M  V30 17 N 2.65269 -1.3013 -2.08394 0
M  V30 18 C -3.31226 0.807964 0.870497 0
M  V30 19 C -4.47109 1.83609 0.650355 0
M  V30 20 N -3.01334 0.967509 -1.4704 0
M  V30 21 H -5.95234 -1.80714 0.477649 0
M  V30 22 H -4.35244 -1.52118 1.3329 0
M  V30 23 H -4.44199 -2.74334 0.04344 0
M  V30 24 H -5.37716 0.0338236 -0.789845 0
M  V30 25 H -4.41272 -1.19665 -1.65371 0
M  V30 26 H -2.55055 -1.93024 0.25314 0
M  V30 27 H -2.3741 -1.56381 -1.45355 0
M  V30 28 H -0.195439 -0.95938 -1.04828 0
M  V30 29 H 1.6181 -0.0167684 2.01811 0
M  V30 30 H 0.774015 0.975865 -0.667169 0
M  V30 31 H 1.6591 1.78891 0.633129 0
M  V30 32 H 2.74101 1.26623 -1.73026 0
M  V30 33 H 3.62985 2.24571 0.665943 0
M  V30 34 H 4.6253 2.05888 -0.787475 0
M  V30 35 H 5.78347 0.21966 -0.0162878 0
M  V30 36 H 5.40815 1.09029 1.49149 0
M  V30 37 H 4.99997 -1.30406 1.68438 0
M  V30 38 H 3.64213 -0.245875 2.09877 0
M  V30 39 H 3.86574 -2.42435 0.0919346 0
M  V30 40 H 1.46278 -2.11629 -0.194932 0
M  V30 41 H 1.94629 -2.2487 1.5246 0
M  V30 42 H 4.43512 -0.537496 -1.38086 0
M  V30 43 H 3.25823 -1.77052 -2.78765 0
M  V30 44 H 1.9739 -0.626425 -2.49582 0
M  V30 45 H -2.36811 1.43648 0.916845 0
M  V30 46 H -3.52598 0.295125 1.79403 0
M  V30 47 H -4.17412 2.78918 1.10219 0
M  V30 48 H -5.38814 1.44221 1.12435 0
M  V30 49 H -4.64343 1.97556 -0.419484 0
M  V30 50 H -2.35427 1.71814 -1.19022 0
M  V30 51 H -2.7257 0.48763 -2.34533 0
M  V30 END ATOM
M  V30 BEGIN BOND
M  V30 1 1 1 2
M  V30 2 1 2 3
M  V30 3 1 3 4
M  V30 4 1 4 5
M  V30 5 1 5 6
M  V30 6 2 6 7
M  V30 7 1 6 8
M  V30 8 1 8 9
M  V30 9 1 9 10
M  V30 10 1 10 11
M  V30 11 1 11 12
M  V30 12 1 12 13
M  V30 13 1 13 14
M  V30 14 1 14 15
M  V30 15 1 14 16
M  V30 16 1 16 17
M  V30 17 1 3 18
M  V30 18 1 18 19
M  V30 19 1 3 20
M  V30 20 1 15 8
M  V30 21 1 16 10
M  V30 22 1 1 21
M  V30 23 1 1 22
M  V30 24 1 1 23
M  V30 25 1 2 24
M  V30 26 1 2 25
M  V30 27 1 4 26
M  V30 28 1 4 27
M  V30 29 1 5 28
M  V30 30 1 8 29
M  V30 31 1 9 30
M  V30 32 1 9 31
M  V30 33 1 10 32
M  V30 34 1 11 33
M  V30 35 1 11 34
M  V30 36 1 12 35
M  V30 37 1 12 36
M  V30 38 1 13 37
M  V30 39 1 13 38
M  V30 40 1 14 39
M  V30 41 1 15 40
M  V30 42 1 15 41
M  V30 43 1 16 42
M  V30 44 1 17 43
M  V30 45 1 17 44
M  V30 46 1 18 45
M  V30 47 1 18 46
M  V30 48 1 19 47
M  V30 49 1 19 48
M  V30 50 1 19 49
M  V30 51 1 20 50
M  V30 52 1 20 51
M  V30 END BOND
M  V30 END CTAB
M  END
