
     RDKit          3D

  0  0  0  0  0  0  0  0  0  0999 V3000
M  V30 BEGIN CTAB
M  V30 COUNTS 27 27 0 0 0
M  V30 BEGIN ATOM
M  V30 1 C -2.70966 -0.832284 -0.913128 0
M  V30 2 C -2.15993 0.0317529 0.221533 0
M  V30 3 C -1.65 1.32416 -0.403775 0
M  V30 4 S -0.33442 1.02574 -1.61571 0
M  V30 5 C 1.15696 0.437878 -0.846787 0
M  V30 6 N 1.38704 -0.86803 -0.660232 0
M  V30 7 C 2.53148 -1.23871 -0.0688991 0
M  V30 8 N 2.76094 -2.64204 0.131546 0
M  V30 9 N 3.45958 -0.340115 0.345175 0
M  V30 10 C 3.23952 0.976117 0.163063 0
M  V30 11 N 2.08498 1.32157 -0.431871 0
M  V30 12 N 4.17463 1.97428 0.572896 0
M  V30 13 O -1.11806 -0.555258 0.897461 0
M  V30 14 C -3.30599 0.396271 1.1368 0
M  V30 15 H -3.07508 -0.172947 -1.744 0
M  V30 16 H -1.94371 -1.54432 -1.23227 0
M  V30 17 H -3.59611 -1.40274 -0.576043 0
M  V30 18 H -2.47085 1.90969 -0.864363 0
M  V30 19 H -1.15279 1.86381 0.441818 0
M  V30 20 H 3.631 -2.9545 0.64621 0
M  V30 21 H 2.12361 -3.37006 -0.199071 0
M  V30 22 H 4.40415 2.79891 -0.0575959 0
M  V30 23 H 4.68074 1.96907 1.4845 0
M  V30 24 H -1.27047 -1.51247 1.09566 0
M  V30 25 H -3.09885 -0.0211238 2.16373 0
M  V30 26 H -4.26795 -0.0649667 0.833142 0
M  V30 27 H -3.48076 1.49031 1.19214 0
M  V30 END ATOM
M  V30 BEGIN BOND
M  V30 1 1 1 2
M  V30 2 1 2 3
M  V30 3 1 3 4
M  V30 4 1 4 5
M  V30 5 2 5 6
M  V30 6 1 6 7
M  V30 7 1 7 8
M  V30 8 2 7 9
M  V30 9 1 9 10
M  V30 10 2 10 11
M  V30 11 1 10 12
M  V30 12 1 2 13
M  V30 13 1 2 14
M  V30 14 1 11 5
M  V30 15 1 1 15
M  V30 16 1 1 16
M  V30 17 1 1 17
M  V30 18 1 3 18
M  V30 19 1 3 19
M  V30 20 1 8 20
M  V30 21 1 8 21
M  V30 22 1 12 22
M  V30 23 1 12 23
M  V30 24 1 13 24
M  V30 25 1 14 25
M  V30 26 1 14 26
M  V30 27 1 14 27
M  V30 END BOND
M  V30 END CTAB
M  END
