
     RDKit          3D

  0  0  0  0  0  0  0  0  0  0999 V3000
M  V30 BEGIN CTAB
M  V30 COUNTS 29 30 0 0 0
M  V30 BEGIN ATOM
M  V30 1 O -2.6371 -1.51293 -1.59063 0
M  V30 2 C -2.46756 -0.123239 -1.44294 0
M  V30 3 C -2.24984 0.129547 0.0139509 0
M  V30 4 C -3.56603 0.152763 0.820429 0
M  V30 5 C -2.76525 1.3671 0.662361 0
M  V30 6 N -1.1128 -0.497877 0.642888 0
M  V30 7 C 0.231405 -0.180529 0.329349 0
M  V30 8 C 0.564455 0.888615 -0.470453 0
M  V30 9 C 1.89028 1.14484 -0.752545 0
M  V30 10 C 2.94406 0.387982 -0.279482 0
M  V30 11 C 2.60111 -0.693588 0.530547 0
M  V30 12 C 1.2841 -0.966019 0.823535 0
M  V30 13 N 3.64292 -1.48651 1.03092 0
M  V30 14 N 4.29415 0.673159 -0.584367 0
M  V30 15 H -3.35403 -1.81171 -0.967678 0
M  V30 16 H -3.43963 0.339647 -1.75778 0
M  V30 17 H -1.70098 0.21736 -2.12648 0
M  V30 18 H -3.52424 -0.475009 1.73731 0
M  V30 19 H -4.51796 0.0884414 0.274142 0
M  V30 20 H -3.14117 2.13614 -0.0409305 0
M  V30 21 H -2.21054 1.74515 1.54969 0
M  V30 22 H -1.29229 -1.22543 1.36867 0
M  V30 23 H -0.212397 1.52488 -0.865808 0
M  V30 24 H 2.12586 1.98975 -1.38295 0
M  V30 25 H 0.995279 -1.79908 1.44924 0
M  V30 26 H 4.30255 -1.91842 0.356973 0
M  V30 27 H 3.76008 -1.6448 2.06373 0
M  V30 28 H 4.62612 0.570352 -1.55303 0
M  V30 29 H 4.92944 0.979428 0.161361 0
M  V30 END ATOM
M  V30 BEGIN BOND
M  V30 1 1 1 2
M  V30 2 1 2 3
M  V30 3 1 3 4
M  V30 4 1 4 5
M  V30 5 1 3 6
M  V30 6 1 6 7
M  V30 7 2 7 8
M  V30 8 1 8 9
M  V30 9 2 9 10
M  V30 10 1 10 11
M  V30 11 2 11 12
M  V30 12 1 11 13
M  V30 13 1 10 14
M  V30 14 1 5 3
M  V30 15 1 12 7
M  V30 16 1 1 15
M  V30 17 1 2 16
M  V30 18 1 2 17
M  V30 19 1 4 18
M  V30 20 1 4 19
M  V30 21 1 5 20
M  V30 22 1 5 21
M  V30 23 1 6 22
M  V30 24 1 8 23
M  V30 25 1 9 24
M  V30 26 1 12 25
M  V30 27 1 13 26
M  V30 28 1 13 27
M  V30 29 1 14 28
M  V30 30 1 14 29
M  V30 END BOND
M  V30 END CTAB
M  END
