
     RDKit          3D

  0  0  0  0  0  0  0  0  0  0999 V3000
M  V30 BEGIN CTAB
M  V30 COUNTS 18 18 0 0 0
M  V30 BEGIN ATOM
M  V30 1 C 2.87285 -0.674942 0.142748 0
M  V30 2 C 1.4386 -0.225317 0.0705913 0
M  V30 3 C 1.10157 1.10696 0.0101663 0
M  V30 4 Br 2.4776 2.4194 0.0175679 0
M  V30 5 C -0.205222 1.52564 -0.0559014 0
M  V30 6 C -1.20464 0.552774 -0.0606079 0
M  V30 7 N -2.57995 0.898834 -0.126782 0
M  V30 8 C -0.869142 -0.780567 -0.000206502 0
M  V30 9 N -1.91873 -1.73894 -0.00739258 0
M  V30 10 N 0.432457 -1.11377 0.0626284 0
M  V30 11 H 2.92616 -1.74903 -0.0881831 0
M  V30 12 H 3.30453 -0.493274 1.14384 0
M  V30 13 H 3.49732 -0.152528 -0.60609 0
M  V30 14 H -0.516465 2.55636 -0.104636 0
M  V30 15 H -3.22161 0.422883 -0.766239 0
M  V30 16 H -2.96073 1.65332 0.483798 0
M  V30 17 H -1.98667 -2.32665 -0.890922 0
M  V30 18 H -2.58792 -1.88116 0.775623 0
M  V30 END ATOM
M  V30 BEGIN BOND
M  V30 1 1 1 2
M  V30 2 2 2 3
M  V30 3 1 3 4
M  V30 4 1 3 5
M  V30 5 2 5 6
M  V30 6 1 6 7
M  V30 7 1 6 8
M  V30 8 1 8 9
M  V30 9 2 8 10
M  V30 10 1 10 2
M  V30 11 1 1 11
M  V30 12 1 1 12
M  V30 13 1 1 13
M  V30 14 1 5 14
M  V30 15 1 7 15
M  V30 16 1 7 16
M  V30 17 1 9 17
M  V30 18 1 9 18
M  V30 END BOND
M  V30 END CTAB
M  END
