
     RDKit          3D

  0  0  0  0  0  0  0  0  0  0999 V3000
M  V30 BEGIN CTAB
M  V30 COUNTS 20 20 0 0 0
M  V30 BEGIN ATOM
M  V30 1 N -3.66341 -0.515249 -0.747714 0
M  V30 2 C -2.90441 -0.207174 0.460753 0
M  V30 3 C -1.54311 0.257977 0.174165 0
M  V30 4 O -1.22318 1.51583 -0.0153108 0
M  V30 5 N 0.0228952 1.6739 -0.249169 0
M  V30 6 C 0.56684 0.439256 -0.212639 0
M  V30 7 N -0.394049 -0.44741 0.0490177 0
M  V30 8 C 2.02708 0.223685 -0.444073 0
M  V30 9 N 2.75602 1.23016 0.326318 0
M  V30 10 C 2.45914 -1.17166 -0.0718344 0
M  V30 11 H -3.26016 -1.31011 -1.27878 0
M  V30 12 H -3.7733 0.358497 -1.30223 0
M  V30 13 H -2.92891 -1.0918 1.12984 0
M  V30 14 H -3.45904 0.592353 0.992895 0
M  V30 15 H 2.25266 0.410425 -1.50736 0
M  V30 16 H 3.24855 0.718037 1.07995 0
M  V30 17 H 2.09409 1.89261 0.789878 0
M  V30 18 H 1.56697 -1.8292 -0.127325 0
M  V30 19 H 3.25265 -1.55065 -0.750497 0
M  V30 20 H 2.90267 -1.18948 0.949295 0
M  V30 END ATOM
M  V30 BEGIN BOND
M  V30 1 1 1 2
M  V30 2 1 2 3
M  V30 3 1 3 4
M  V30 4 1 4 5
M  V30 5 2 5 6
M  V30 6 1 6 7
M  V30 7 1 6 8
M  V30 8 1 8 9
M  V30 9 1 8 10
M  V30 10 2 7 3
M  V30 11 1 1 11
M  V30 12 1 1 12
M  V30 13 1 2 13
M  V30 14 1 2 14
M  V30 15 1 8 15
M  V30 16 1 9 16
M  V30 17 1 9 17
M  V30 18 1 10 18
M  V30 19 1 10 19
M  V30 20 1 10 20
M  V30 END BOND
M  V30 END CTAB
M  END
