
     RDKit          3D

  0  0  0  0  0  0  0  0  0  0999 V3000
M  V30 BEGIN CTAB
M  V30 COUNTS 28 29 0 0 0
M  V30 BEGIN ATOM
M  V30 1 F -6.01998 1.28276 -0.254042 0
M  V30 2 C -4.7689 0.791693 -0.111494 0
M  V30 3 C -3.71091 1.67846 -0.161189 0
M  V30 4 C -2.44002 1.16583 -0.0145782 0
M  V30 5 C -2.18524 -0.177589 0.177029 0
M  V30 6 C -3.24513 -1.06461 0.226637 0
M  V30 7 C -4.52598 -0.567456 0.0814275 0
M  V30 8 Cl -3.00666 -2.78896 0.467018 0
M  V30 9 C -0.778065 -0.691093 0.332302 0
M  V30 10 O 0.094055 0.415625 0.242183 0
M  V30 11 N 1.44281 0.347447 0.335551 0
M  V30 12 C 2.17032 -0.189081 -0.596578 0
M  V30 13 C 3.60642 -0.222455 -0.420055 0
M  V30 14 N 4.47133 -0.743929 -1.29944 0
M  V30 15 O 5.68649 -0.605925 -0.823232 0
M  V30 16 N 5.65138 -0.024057 0.314796 0
M  V30 17 C 4.37075 0.243351 0.624597 0
M  V30 18 N 3.83491 0.869431 1.76516 0
M  V30 19 N 1.54627 -0.717126 -1.73989 0
M  V30 20 H -3.89767 2.74355 -0.312146 0
M  V30 21 H -1.58862 1.83593 -0.0488763 0
M  V30 22 H -5.36136 -1.25105 0.118502 0
M  V30 23 H -0.671486 -1.22548 1.3181 0
M  V30 24 H -0.587821 -1.44916 -0.456914 0
M  V30 25 H 3.73991 0.313498 2.63769 0
M  V30 26 H 3.54238 1.86332 1.73244 0
M  V30 27 H 1.61573 -1.72718 -1.94682 0
M  V30 28 H 1.01508 -0.10572 -2.38135 0
M  V30 END ATOM
M  V30 BEGIN BOND
M  V30 1 1 1 2
M  V30 2 2 2 3
M  V30 3 1 3 4
M  V30 4 2 4 5
M  V30 5 1 5 6
M  V30 6 2 6 7
M  V30 7 1 6 8
M  V30 8 1 5 9
M  V30 9 1 9 10
M  V30 10 1 10 11
M  V30 11 2 11 12
M  V30 12 1 12 13
M  V30 13 2 13 14
M  V30 14 1 14 15
M  V30 15 1 15 16
M  V30 16 2 16 17
M  V30 17 1 17 18
M  V30 18 1 12 19
M  V30 19 1 7 2
M  V30 20 1 17 13
M  V30 21 1 3 20
M  V30 22 1 4 21
M  V30 23 1 7 22
M  V30 24 1 9 23
M  V30 25 1 9 24
M  V30 26 1 18 25
M  V30 27 1 18 26
M  V30 28 1 19 27
M  V30 29 1 19 28
M  V30 END BOND
M  V30 END CTAB
M  END
