
     RDKit          3D

  0  0  0  0  0  0  0  0  0  0999 V3000
M  V30 BEGIN CTAB
M  V30 COUNTS 34 35 0 0 0
M  V30 BEGIN ATOM
M  V30 1 C 7.14837 1.08742 0.161784 0
M  V30 2 O 6.06692 0.758057 -0.718314 0
M  V30 3 C 4.78616 0.574608 -0.255294 0
M  V30 4 C 4.5143 0.707196 1.07456 0
M  V30 5 C 3.2344 0.527529 1.55374 0
M  V30 6 C 2.16649 0.202763 0.701184 0
M  V30 7 C 2.46609 0.0755113 -0.633291 0
M  V30 8 C 3.74973 0.258431 -1.09405 0
M  V30 9 Br 4.12341 0.0503697 -2.96673 0
M  V30 10 C 0.846523 -0.0180201 1.22915 0
M  V30 11 O 0.755088 0.000766755 2.52636 0
M  V30 12 C -0.405551 -0.258799 0.530741 0
M  V30 13 S -1.72084 -0.719246 1.67731 0
M  V30 14 C -3.2763 -0.678634 0.813464 0
M  V30 15 N -3.76146 -1.71326 0.146941 0
M  V30 16 C -4.94974 -1.73089 -0.497885 0
M  V30 17 N -5.42401 -2.86605 -1.19992 0
M  V30 18 C -5.74085 -0.573434 -0.464312 0
M  V30 19 C -5.24552 0.497031 0.223166 0
M  V30 20 N -4.05249 0.443216 0.840176 0
M  V30 21 N -6.04179 1.687 0.272014 0
M  V30 22 H 8.04317 1.3722 -0.420501 0
M  V30 23 H 7.39042 0.245222 0.838745 0
M  V30 24 H 6.7924 1.99893 0.710969 0
M  V30 25 H 5.31159 0.957297 1.76957 0
M  V30 26 H 3.04884 0.642766 2.60887 0
M  V30 27 H 1.66987 -0.173512 -1.32703 0
M  V30 28 H -0.737003 0.680815 0.0308201 0
M  V30 29 H -0.227556 -1.06169 -0.248115 0
M  V30 30 H -6.44158 -3.10911 -1.21295 0
M  V30 31 H -4.76469 -3.47973 -1.71721 0
M  V30 32 H -6.68861 -0.609724 -0.989735 0
M  V30 33 H -6.54894 1.96318 1.1238 0
M  V30 34 H -6.08683 2.26179 -0.585714 0
M  V30 END ATOM
M  V30 BEGIN BOND
M  V30 1 1 1 2
M  V30 2 1 2 3
M  V30 3 2 3 4
M  V30 4 1 4 5
M  V30 5 2 5 6
M  V30 6 1 6 7
M  V30 7 2 7 8
M  V30 8 1 8 9
M  V30 9 1 6 10
M  V30 10 2 10 11
M  V30 11 1 10 12
M  V30 12 1 12 13
M  V30 13 1 13 14
M  V30 14 2 14 15
M  V30 15 1 15 16
M  V30 16 1 16 17
M  V30 17 2 16 18
M  V30 18 1 18 19
M  V30 19 2 19 20
M  V30 20 1 19 21
M  V30 21 1 8 3
M  V30 22 1 20 14
M  V30 23 1 1 22
M  V30 24 1 1 23
M  V30 25 1 1 24
M  V30 26 1 4 25
M  V30 27 1 5 26
M  V30 28 1 7 27
M  V30 29 1 12 28
M  V30 30 1 12 29
M  V30 31 1 17 30
M  V30 32 1 17 31
M  V30 33 1 18 32
M  V30 34 1 21 33
M  V30 35 1 21 34
M  V30 END BOND
M  V30 END CTAB
M  END
