
     RDKit          3D

  0  0  0  0  0  0  0  0  0  0999 V3000
M  V30 BEGIN CTAB
M  V30 COUNTS 26 26 0 0 0
M  V30 BEGIN ATOM
M  V30 1 N 3.68037 1.37943 0.774765 0
M  V30 2 N 2.35243 1.01705 0.648697 0
M  V30 3 C 1.93937 -0.0610548 0.0787672 0
M  V30 4 N 0.52514 -0.260357 0.047102 0
M  V30 5 C -0.168992 -1.04356 1.04897 0
M  V30 6 C -1.56988 -1.23738 0.533998 0
M  V30 7 C -1.74146 -0.168535 -0.494644 0
M  V30 8 C -0.367984 0.263866 -0.937933 0
M  V30 9 O -2.41324 -0.692007 -1.5906 0
M  V30 10 C -2.52614 0.981128 0.0924428 0
M  V30 11 O -2.71112 2.00661 -0.822813 0
M  V30 12 N 2.75369 -1.03517 -0.501605 0
M  V30 13 H 4.47233 0.922529 0.264932 0
M  V30 14 H 3.91355 2.16439 1.4239 0
M  V30 15 H -0.145235 -0.553821 2.04741 0
M  V30 16 H 0.346632 -2.02037 1.16695 0
M  V30 17 H -2.2612 -1.10596 1.37337 0
M  V30 18 H -1.66881 -2.25339 0.0906337 0
M  V30 19 H -0.293563 1.36547 -1.06068 0
M  V30 20 H -0.119384 -0.203909 -1.9112 0
M  V30 21 H -1.88006 -1.48392 -1.91138 0
M  V30 22 H -1.96161 1.375 0.95469 0
M  V30 23 H -3.50355 0.611864 0.430808 0
M  V30 24 H -2.78069 2.84959 -0.301735 0
M  V30 25 H 2.82908 -1.98134 -0.0847881 0
M  V30 26 H 3.30031 -0.836182 -1.36004 0
M  V30 END ATOM
M  V30 BEGIN BOND
M  V30 1 1 1 2
M  V30 2 2 2 3 CFG=2
M  V30 3 1 3 4
M  V30 4 1 4 5
M  V30 5 1 5 6
M  V30 6 1 6 7
M  V30 7 1 7 8
M  V30 8 1 7 9
M  V30 9 1 7 10
M  V30 10 1 10 11
M  V30 11 1 3 12
M  V30 12 1 8 4
M  V30 13 1 1 13
M  V30 14 1 1 14
M  V30 15 1 5 15
M  V30 16 1 5 16
M  V30 17 1 6 17
M  V30 18 1 6 18
M  V30 19 1 8 19
M  V30 20 1 8 20
M  V30 21 1 9 21
M  V30 22 1 10 22
M  V30 23 1 10 23
M  V30 24 1 11 24
M  V30 25 1 12 25
M  V30 26 1 12 26
M  V30 END BOND
M  V30 END CTAB
M  END
