
     RDKit          3D

  0  0  0  0  0  0  0  0  0  0999 V3000
M  V30 BEGIN CTAB
M  V30 COUNTS 19 19 0 0 0
M  V30 BEGIN ATOM
M  V30 1 N 3.56052 -0.195784 -0.102621 0
M  V30 2 C 2.14286 -0.0952626 0.0181157 0
M  V30 3 C 1.49635 0.919128 -0.645846 0
M  V30 4 C 0.137775 1.03054 -0.541317 0
M  V30 5 Cl -0.707872 2.33198 -1.3909 0
M  V30 6 C -0.631159 0.178003 0.197555 0
M  V30 7 C 0.039959 -0.838452 0.859654 0
M  V30 8 C 1.40568 -0.976923 0.774229 0
M  V30 9 Cl -0.837264 -1.99334 1.8379 0
M  V30 10 S -2.34876 0.275915 0.361579 0
M  V30 11 O -2.70836 -0.163137 1.76533 0
M  V30 12 O -2.80076 1.72123 0.237656 0
M  V30 13 N -3.19751 -0.616944 -0.828396 0
M  V30 14 H 4.12728 0.538255 0.36347 0
M  V30 15 H 3.95707 -0.990019 -0.645375 0
M  V30 16 H 2.06547 1.63081 -1.25262 0
M  V30 17 H 1.94257 -1.76778 1.28735 0
M  V30 18 H -3.57348 0.00531332 -1.60122 0
M  V30 19 H -4.07038 -0.993536 -0.358471 0
M  V30 END ATOM
M  V30 BEGIN BOND
M  V30 1 1 1 2
M  V30 2 2 2 3
M  V30 3 1 3 4
M  V30 4 1 4 5
M  V30 5 2 4 6
M  V30 6 1 6 7
M  V30 7 2 7 8
M  V30 8 1 7 9
M  V30 9 1 6 10
M  V30 10 2 10 11
M  V30 11 2 10 12
M  V30 12 1 10 13
M  V30 13 1 8 2
M  V30 14 1 1 14
M  V30 15 1 1 15
M  V30 16 1 3 16
M  V30 17 1 8 17
M  V30 18 1 13 18
M  V30 19 1 13 19
M  V30 END BOND
M  V30 END CTAB
M  END
