
     RDKit          3D

  0  0  0  0  0  0  0  0  0  0999 V3000
M  V30 BEGIN CTAB
M  V30 COUNTS 26 25 0 0 0
M  V30 BEGIN ATOM
M  V30 1 N 5.4503 -0.108521 -0.871035 0
M  V30 2 N 4.12169 -0.258043 -0.468594 0
M  V30 3 C 3.71149 -1.13335 0.556798 0
M  V30 4 O 4.62216 -1.82828 1.1476 0
M  V30 5 C 2.31767 -1.2845 0.97278 0
M  V30 6 N 1.35 -0.49149 0.285689 0
M  V30 7 C -0.0332962 -0.611055 0.665437 0
M  V30 8 O -0.372065 -1.39395 1.57749 0
M  V30 9 N -1.02467 0.162655 0.00356856 0
M  V30 10 C -2.39291 0.0287811 0.396125 0
M  V30 11 C -3.31155 0.885098 -0.368715 0
M  V30 12 O -2.87714 1.64444 -1.27246 0
M  V30 13 N -4.70504 0.859314 -0.0890879 0
M  V30 14 N -5.61869 1.65507 -0.789029 0
M  V30 15 H 5.81848 0.850375 -0.702752 0
M  V30 16 H 5.62107 -0.449631 -1.83813 0
M  V30 17 H 3.43029 0.317512 -0.969271 0
M  V30 18 H 2.01266 -2.37999 0.973475 0
M  V30 19 H 2.28105 -0.999743 2.07326 0
M  V30 20 H 1.57628 0.16382 -0.467362 0
M  V30 21 H -0.75514 0.829143 -0.769439 0
M  V30 22 H -2.67331 -1.04631 0.261962 0
M  V30 23 H -2.46243 0.208729 1.50444 0
M  V30 24 H -5.09392 0.2395 0.654801 0
M  V30 25 H -5.3889 2.68475 -0.640836 0
M  V30 26 H -5.60409 1.45567 -1.82671 0
M  V30 END ATOM
M  V30 BEGIN BOND
M  V30 1 1 1 2
M  V30 2 1 2 3
M  V30 3 2 3 4
M  V30 4 1 3 5
M  V30 5 1 5 6
M  V30 6 1 6 7
M  V30 7 2 7 8
M  V30 8 1 7 9
M  V30 9 1 9 10
M  V30 10 1 10 11
M  V30 11 2 11 12
M  V30 12 1 11 13
M  V30 13 1 13 14
M  V30 14 1 1 15
M  V30 15 1 1 16
M  V30 16 1 2 17
M  V30 17 1 5 18
M  V30 18 1 5 19
M  V30 19 1 6 20
M  V30 20 1 9 21
M  V30 21 1 10 22
M  V30 22 1 10 23
M  V30 23 1 13 24
M  V30 24 1 14 25
M  V30 25 1 14 26
M  V30 END BOND
M  V30 END CTAB
M  END
