
     RDKit          3D

  0  0  0  0  0  0  0  0  0  0999 V3000
M  V30 BEGIN CTAB
M  V30 COUNTS 59 63 0 0 0
M  V30 BEGIN ATOM
M  V30 1 F 0.303003 5.89257 2.10534 0
M  V30 2 C 0.199149 4.61721 1.6932 0
M  V30 3 C -0.533688 3.7232 2.45696 0
M  V30 4 C -0.659007 2.41632 2.06484 0
M  V30 5 C -0.0703212 1.96598 0.921959 0
M  V30 6 C 0.651064 2.83324 0.164358 0
M  V30 7 C 0.788322 4.14571 0.539974 0
M  V30 8 C -0.211171 0.535623 0.50352 0
M  V30 9 C -1.45722 0.226444 -0.140678 0
M  V30 10 C -2.09858 0.734701 -1.24814 0
M  V30 11 C -1.61493 1.85034 -2.08846 0
M  V30 12 N -3.23991 0.0602582 -1.39355 0
M  V30 13 N -3.4043 -0.838553 -0.485421 0
M  V30 14 C -2.33571 -0.77921 0.312894 0
M  V30 15 N -2.18068 -1.63945 1.43531 0
M  V30 16 C -4.53454 -1.71092 -0.391496 0
M  V30 17 C -4.44192 -2.93856 -1.00498 0
M  V30 18 C -5.52218 -3.81317 -0.934134 0
M  V30 19 C -6.65578 -3.44087 -0.258233 0
M  V30 20 C -6.73317 -2.19522 0.356889 0
M  V30 21 C -5.65543 -1.31012 0.292069 0
M  V30 22 C 1.04222 -0.0405967 -0.028078 0
M  V30 23 C 1.33545 -0.801358 -1.12585 0
M  V30 24 C 0.42902 -1.31694 -2.1654 0
M  V30 25 N 2.67114 -1.04882 -1.11782 0
M  V30 26 N 3.25267 -0.495183 -0.0832096 0
M  V30 27 C 2.29781 0.122785 0.598414 0
M  V30 28 N 2.50373 0.841329 1.80106 0
M  V30 29 C 4.65968 -0.558515 0.234984 0
M  V30 30 C 5.32122 -1.75317 0.410667 0
M  V30 31 C 6.66434 -1.80304 0.716197 0
M  V30 32 C 7.37295 -0.634611 0.851617 0
M  V30 33 C 6.73063 0.570125 0.68001 0
M  V30 34 C 5.3785 0.608858 0.37267 0
M  V30 35 H -1.02472 4.04749 3.38686 0
M  V30 36 H -1.24808 1.72583 2.69054 0
M  V30 37 H 1.15474 2.56494 -0.760448 0
M  V30 38 H 1.37459 4.85866 -0.0719463 0
M  V30 39 H -0.257547 0.0150541 1.54724 0
M  V30 40 H -1.85619 2.85587 -1.68678 0
M  V30 41 H -2.23258 1.82678 -3.0454 0
M  V30 42 H -0.591616 1.72834 -2.46689 0
M  V30 43 H -2.45307 -1.312 2.38774 0
M  V30 44 H -1.79748 -2.61053 1.35492 0
M  V30 45 H -3.54992 -3.22083 -1.53183 0
M  V30 46 H -5.45985 -4.7694 -1.40772 0
M  V30 47 H -7.51729 -4.10864 -0.187845 0
M  V30 48 H -7.6415 -1.95244 0.872628 0
M  V30 49 H -5.70829 -0.346488 0.764774 0
M  V30 50 H 1.00356 -2.09854 -2.76194 0
M  V30 51 H -0.411127 -1.8696 -1.76263 0
M  V30 52 H 0.215421 -0.53579 -2.90652 0
M  V30 53 H 2.05242 0.503914 2.69796 0
M  V30 54 H 3.09458 1.70916 1.8433 0
M  V30 55 H 4.75436 -2.66809 0.30191 0
M  V30 56 H 7.18621 -2.74906 0.854886 0
M  V30 57 H 8.44103 -0.65944 1.09443 0
M  V30 58 H 7.32743 1.47131 0.795877 0
M  V30 59 H 4.89253 1.56712 0.241806 0
M  V30 END ATOM
M  V30 BEGIN BOND
M  V30 1 1 1 2
M  V30 2 2 2 3
M  V30 3 1 3 4
M  V30 4 2 4 5
M  V30 5 1 5 6
M  V30 6 2 6 7
M  V30 7 1 5 8
M  V30 8 1 8 9
M  V30 9 1 9 10
M  V30 10 1 10 11
M  V30 11 2 10 12
M  V30 12 1 12 13
M  V30 13 1 13 14
M  V30 14 1 14 15
M  V30 15 1 13 16
M  V30 16 2 16 17
M  V30 17 1 17 18
M  V30 18 2 18 19
M  V30 19 1 19 20
M  V30 20 2 20 21
M  V30 21 1 8 22
M  V30 22 1 22 23
M  V30 23 1 23 24
M  V30 24 2 23 25
M  V30 25 1 25 26
M  V30 26 1 26 27
M  V30 27 1 27 28
M  V30 28 1 26 29
M  V30 29 2 29 30
M  V30 30 1 30 31
M  V30 31 2 31 32
M  V30 32 1 32 33
M  V30 33 2 33 34
M  V30 34 1 7 2
M  V30 35 2 14 9
M  V30 36 1 21 16
M  V30 37 2 27 22
M  V30 38 1 34 29
M  V30 39 1 3 35
M  V30 40 1 4 36
M  V30 41 1 6 37
M  V30 42 1 7 38
M  V30 43 1 8 39
M  V30 44 1 11 40
M  V30 45 1 11 41
M  V30 46 1 11 42
M  V30 47 1 15 43
M  V30 48 1 15 44
M  V30 49 1 17 45
M  V30 50 1 18 46
M  V30 51 1 19 47
M  V30 52 1 20 48
M  V30 53 1 21 49
M  V30 54 1 24 50
M  V30 55 1 24 51
M  V30 56 1 24 52
M  V30 57 1 28 53
M  V30 58 1 28 54
M  V30 59 1 30 55
M  V30 60 1 31 56
M  V30 61 1 32 57
M  V30 62 1 33 58
M  V30 63 1 34 59
M  V30 END BOND
M  V30 END CTAB
M  END
