
     RDKit          3D

  0  0  0  0  0  0  0  0  0  0999 V3000
M  V30 BEGIN CTAB
M  V30 COUNTS 53 57 0 0 0
M  V30 BEGIN ATOM
M  V30 1 N 9.28819 0.5805 0.0741697 0
M  V30 2 C 7.93854 0.231473 0.202876 0
M  V30 3 N 7.28839 -0.216557 -0.882321 0
M  V30 4 C 5.9937 -0.571591 -0.843819 0
M  V30 5 N 5.29113 -1.04468 -1.97181 0
M  V30 6 C 5.29736 -0.474152 0.357658 0
M  V30 7 N 4.00093 -0.826705 0.404688 0
M  V30 8 C 3.32364 -0.733951 1.56122 0
M  V30 9 C 1.88067 -1.11425 1.65932 0
M  V30 10 N 1.06238 0.0513663 1.64323 0
M  V30 11 C 1.14158 0.876618 0.488563 0
M  V30 12 C 0.368162 0.222792 -0.635575 0
M  V30 13 N -1.03531 0.215603 -0.192057 0
M  V30 14 C -1.82182 -0.18212 -1.31829 0
M  V30 15 C -3.26131 -0.238384 -1.05826 0
M  V30 16 C -4.07934 0.852787 -1.22312 0
M  V30 17 C -5.43126 0.778804 -0.973179 0
M  V30 18 C -5.98138 -0.408625 -0.549406 0
M  V30 19 C -7.32965 -0.459289 -0.306297 0
M  V30 20 C -8.17832 0.628815 -0.46483 0
M  V30 21 C -7.61854 1.81387 -0.889567 0
M  V30 22 C -6.26474 1.88626 -1.13966 0
M  V30 23 C -5.1667 -1.52627 -0.376579 0
M  V30 24 C -3.81203 -1.42518 -0.634551 0
M  V30 25 C -1.1972 -0.626437 0.956835 0
M  V30 26 C -0.298877 -0.201887 2.07295 0
M  V30 27 N 3.98737 -0.28298 2.64329 0
M  V30 28 N 5.25901 0.0677782 2.61747 0
M  V30 29 C 5.96978 -0.0133583 1.46976 0
M  V30 30 N 7.24882 0.318208 1.3532 0
M  V30 31 H 9.97389 0.256497 0.782987 0
M  V30 32 H 9.59152 1.16278 -0.732857 0
M  V30 33 H 5.42634 -2.02091 -2.28455 0
M  V30 34 H 4.63936 -0.436197 -2.49814 0
M  V30 35 H 1.69096 -1.70801 2.55489 0
M  V30 36 H 1.65511 -1.76869 0.788065 0
M  V30 37 H 0.719128 1.87798 0.740871 0
M  V30 38 H 2.19115 0.968709 0.163975 0
M  V30 39 H 0.444009 0.845406 -1.52794 0
M  V30 40 H 0.764109 -0.794037 -0.763876 0
M  V30 41 H -1.46721 -1.16163 -1.72009 0
M  V30 42 H -1.64571 0.566807 -2.12865 0
M  V30 43 H -3.68138 1.81813 -1.55931 0
M  V30 44 H -7.74184 -1.41155 0.0287841 0
M  V30 45 H -9.22008 0.525666 -0.259085 0
M  V30 46 H -8.24175 2.67306 -1.02279 0
M  V30 47 H -5.78369 2.78746 -1.47211 0
M  V30 48 H -5.65512 -2.41779 -0.0455761 0
M  V30 49 H -3.18202 -2.31329 -0.494226 0
M  V30 50 H -2.25525 -0.465519 1.31891 0
M  V30 51 H -1.13226 -1.70654 0.722179 0
M  V30 52 H -0.250824 -1.00768 2.82434 0
M  V30 53 H -0.701619 0.712708 2.5383 0
M  V30 END ATOM
M  V30 BEGIN BOND
M  V30 1 1 1 2
M  V30 2 2 2 3
M  V30 3 1 3 4
M  V30 4 1 4 5
M  V30 5 2 4 6
M  V30 6 1 6 7
M  V30 7 2 7 8
M  V30 8 1 8 9
M  V30 9 1 9 10
M  V30 10 1 10 11
M  V30 11 1 11 12
M  V30 12 1 12 13
M  V30 13 1 13 14
M  V30 14 1 14 15
M  V30 15 2 15 16
M  V30 16 1 16 17
M  V30 17 2 17 18
M  V30 18 1 18 19
M  V30 19 2 19 20
M  V30 20 1 20 21
M  V30 21 2 21 22
M  V30 22 1 18 23
M  V30 23 2 23 24
M  V30 24 1 13 25
M  V30 25 1 25 26
M  V30 26 1 8 27
M  V30 27 2 27 28
M  V30 28 1 28 29
M  V30 29 2 29 30
M  V30 30 1 30 2
M  V30 31 1 29 6
M  V30 32 1 26 10
M  V30 33 1 24 15
M  V30 34 1 22 17
M  V30 35 1 1 31
M  V30 36 1 1 32
M  V30 37 1 5 33
M  V30 38 1 5 34
M  V30 39 1 9 35
M  V30 40 1 9 36
M  V30 41 1 11 37
M  V30 42 1 11 38
M  V30 43 1 12 39
M  V30 44 1 12 40
M  V30 45 1 14 41
M  V30 46 1 14 42
M  V30 47 1 16 43
M  V30 48 1 19 44
M  V30 49 1 20 45
M  V30 50 1 21 46
M  V30 51 1 22 47
M  V30 52 1 23 48
M  V30 53 1 24 49
M  V30 54 1 25 50
M  V30 55 1 25 51
M  V30 56 1 26 52
M  V30 57 1 26 53
M  V30 END BOND
M  V30 END CTAB
M  END
