
     RDKit          3D

  0  0  0  0  0  0  0  0  0  0999 V3000
M  V30 BEGIN CTAB
M  V30 COUNTS 25 26 0 0 0
M  V30 BEGIN ATOM
M  V30 1 N 3.65474 0.926236 -0.889327 0
M  V30 2 C 3.46963 -0.321779 -0.134034 0
M  V30 3 C 2.00448 -0.695431 -0.0789295 0
M  V30 4 C 1.08982 0.260148 0.548907 0
M  V30 5 C 1.48163 -1.06942 1.24718 0
M  V30 6 F 2.21608 -0.896121 2.3987 0
M  V30 7 F 0.518706 -2.0448 1.32077 0
M  V30 8 C -0.361546 0.306825 0.145621 0
M  V30 9 N -1.08333 -0.676157 -0.418109 0
M  V30 10 N -2.33096 -0.295658 -0.641937 0
M  V30 11 C -2.40575 0.972936 -0.20572 0
M  V30 12 N -1.20739 1.3464 0.275972 0
M  V30 13 N -3.58571 1.76389 -0.261812 0
M  V30 14 C -3.40617 -1.09189 -1.24057 0
M  V30 15 H 3.3888 1.72551 -0.247881 0
M  V30 16 H 4.679 0.979661 -1.08328 0
M  V30 17 H 3.83726 -0.132738 0.892714 0
M  V30 18 H 4.08531 -1.14203 -0.562818 0
M  V30 19 H 1.64125 -1.25721 -0.963767 0
M  V30 20 H 1.45509 1.18379 0.988052 0
M  V30 21 H -3.81261 2.4017 -1.0482 0
M  V30 22 H -4.28166 1.72168 0.51742 0
M  V30 23 H -4.05318 -1.51296 -0.421805 0
M  V30 24 H -4.04696 -0.487822 -1.88006 0
M  V30 25 H -2.94652 -1.96475 -1.74192 0
M  V30 END ATOM
M  V30 BEGIN BOND
M  V30 1 1 1 2
M  V30 2 1 2 3
M  V30 3 1 3 4
M  V30 4 1 4 5
M  V30 5 1 5 6
M  V30 6 1 5 7
M  V30 7 1 4 8
M  V30 8 2 8 9
M  V30 9 1 9 10
M  V30 10 1 10 11
M  V30 11 2 11 12
M  V30 12 1 11 13
M  V30 13 1 10 14
M  V30 14 1 5 3
M  V30 15 1 12 8
M  V30 16 1 1 15
M  V30 17 1 1 16
M  V30 18 1 2 17
M  V30 19 1 2 18
M  V30 20 1 3 19
M  V30 21 1 4 20
M  V30 22 1 13 21
M  V30 23 1 13 22
M  V30 24 1 14 23
M  V30 25 1 14 24
M  V30 26 1 14 25
M  V30 END BOND
M  V30 END CTAB
M  END
