
     RDKit          3D

  0  0  0  0  0  0  0  0  0  0999 V3000
M  V30 BEGIN CTAB
M  V30 COUNTS 19 19 0 0 0
M  V30 BEGIN ATOM
M  V30 1 C 2.44502 -0.460502 -0.0464474 0
M  V30 2 C 1.0874 0.150514 -0.0340805 0
M  V30 3 C -0.0727024 -0.595418 0.0190644 0
M  V30 4 N 0.0330911 -2.01681 0.0642351 0
M  V30 5 C -1.30546 0.0280628 0.0279956 0
M  V30 6 N -2.48982 -0.748099 0.0827993 0
M  V30 7 C -1.43519 1.40685 -0.0151524 0
M  V30 8 Br -3.16729 2.22748 -0.000658821 0
M  V30 9 C -0.280195 2.14793 -0.0680111 0
M  V30 10 C 0.956837 1.53519 -0.0774017 0
M  V30 11 H 2.36574 -1.52991 0.245147 0
M  V30 12 H 3.1049 0.0371949 0.719528 0
M  V30 13 H 2.95004 -0.379765 -1.01157 0
M  V30 14 H 0.738333 -2.44285 -0.579127 0
M  V30 15 H -0.54743 -2.58622 0.689826 0
M  V30 16 H -2.45441 -1.77846 -0.0577393 0
M  V30 17 H -3.42163 -0.326287 0.262081 0
M  V30 18 H -0.374063 3.23114 -0.102101 0
M  V30 19 H 1.86683 2.09995 -0.118383 0
M  V30 END ATOM
M  V30 BEGIN BOND
M  V30 1 1 1 2
M  V30 2 2 2 3
M  V30 3 1 3 4
M  V30 4 1 3 5
M  V30 5 1 5 6
M  V30 6 2 5 7
M  V30 7 1 7 8
M  V30 8 1 7 9
M  V30 9 2 9 10
M  V30 10 1 10 2
M  V30 11 1 1 11
M  V30 12 1 1 12
M  V30 13 1 1 13
M  V30 14 1 4 14
M  V30 15 1 4 15
M  V30 16 1 6 16
M  V30 17 1 6 17
M  V30 18 1 9 18
M  V30 19 1 10 19
M  V30 END BOND
M  V30 END CTAB
M  END
