
     RDKit          3D

  0  0  0  0  0  0  0  0  0  0999 V3000
M  V30 BEGIN CTAB
M  V30 COUNTS 31 31 0 0 0
M  V30 BEGIN ATOM
M  V30 1 N -3.14563 -0.888306 -0.250833 0
M  V30 2 C -1.88452 -0.6555 -0.920394 0
M  V30 3 C -0.930018 0.0964912 -0.0617625 0
M  V30 4 C -1.44152 1.45701 0.354689 0
M  V30 5 N -2.6541 1.32119 1.09422 0
M  V30 6 C -0.411661 -0.693996 1.10204 0
M  V30 7 C 0.575092 -1.62658 0.489784 0
M  V30 8 C 1.27942 -0.769068 -0.529939 0
M  V30 9 C 0.337697 0.348535 -0.868832 0
M  V30 10 S 2.77012 -0.135302 0.219734 0
M  V30 11 O 2.45394 0.626214 1.47297 0
M  V30 12 O 3.64798 -1.29381 0.587423 0
M  V30 13 C 3.6337 0.948384 -0.890367 0
M  V30 14 H -3.78872 -1.41857 -0.847831 0
M  V30 15 H -3.02925 -1.26459 0.710058 0
M  V30 16 H -1.39522 -1.57508 -1.26981 0
M  V30 17 H -2.11533 -0.0198545 -1.80905 0
M  V30 18 H -0.67771 1.89894 1.03669 0
M  V30 19 H -1.50671 2.13839 -0.517963 0
M  V30 20 H -2.55057 1.47603 2.11045 0
M  V30 21 H -3.48886 1.74908 0.663851 0
M  V30 22 H 0.0998983 -0.0209171 1.79886 0
M  V30 23 H -1.20878 -1.20636 1.67329 0
M  V30 24 H 1.33317 -2.00579 1.1963 0
M  V30 25 H 0.10984 -2.49526 -0.0178822 0
M  V30 26 H 1.48478 -1.33493 -1.43945 0
M  V30 27 H 0.126545 0.436928 -1.94306 0
M  V30 28 H 0.812927 1.31018 -0.562567 0
M  V30 29 H 3.31137 0.842768 -1.93598 0
M  V30 30 H 4.73948 0.739597 -0.841794 0
M  V30 31 H 3.51265 2.01418 -0.606152 0
M  V30 END ATOM
M  V30 BEGIN BOND
M  V30 1 1 1 2
M  V30 2 1 2 3
M  V30 3 1 3 4
M  V30 4 1 4 5
M  V30 5 1 3 6
M  V30 6 1 6 7
M  V30 7 1 7 8
M  V30 8 1 8 9
M  V30 9 1 8 10
M  V30 10 2 10 11
M  V30 11 2 10 12
M  V30 12 1 10 13
M  V30 13 1 9 3
M  V30 14 1 1 14
M  V30 15 1 1 15
M  V30 16 1 2 16
M  V30 17 1 2 17
M  V30 18 1 4 18
M  V30 19 1 4 19
M  V30 20 1 5 20
M  V30 21 1 5 21
M  V30 22 1 6 22
M  V30 23 1 6 23
M  V30 24 1 7 24
M  V30 25 1 7 25
M  V30 26 1 8 26
M  V30 27 1 9 27
M  V30 28 1 9 28
M  V30 29 1 13 29
M  V30 30 1 13 30
M  V30 31 1 13 31
M  V30 END BOND
M  V30 END CTAB
M  END
