
     RDKit          3D

  0  0  0  0  0  0  0  0  0  0999 V3000
M  V30 BEGIN CTAB
M  V30 COUNTS 28 29 0 0 0
M  V30 BEGIN ATOM
M  V30 1 O -3.71872 -0.998487 -1.12836 0
M  V30 2 C -2.5136 -0.309129 -1.09919 0
M  V30 3 C -2.18787 0.252229 0.258197 0
M  V30 4 C -2.83446 -0.338328 1.46104 0
M  V30 5 C -3.38525 0.935997 0.945732 0
M  V30 6 N -0.956832 0.968642 0.353808 0
M  V30 7 C 0.34566 0.451695 0.265858 0
M  V30 8 C 0.60104 -0.890377 0.115808 0
M  V30 9 C 1.90123 -1.37764 0.0180964 0
M  V30 10 C 2.96042 -0.50569 0.072164 0
M  V30 11 C 2.69223 0.85821 0.225419 0
M  V30 12 N 1.42278 1.27227 0.314111 0
M  V30 13 N 3.79178 1.75364 0.2807 0
M  V30 14 N 4.30573 -0.924826 -0.0200016 0
M  V30 15 H -3.64614 -1.93902 -0.884073 0
M  V30 16 H -1.74069 -0.953578 -1.53045 0
M  V30 17 H -2.65511 0.543512 -1.83125 0
M  V30 18 H -2.3044 -0.416636 2.41654 0
M  V30 19 H -3.46007 -1.2458 1.23698 0
M  V30 20 H -4.33606 0.983919 0.399362 0
M  V30 21 H -3.17486 1.83325 1.55299 0
M  V30 22 H -1.03608 2.02321 0.508797 0
M  V30 23 H -0.184941 -1.62094 0.0769422 0
M  V30 24 H 2.11603 -2.43747 -0.101211 0
M  V30 25 H 4.74152 1.46849 0.581838 0
M  V30 26 H 3.63063 2.74121 0.00480199 0
M  V30 27 H 4.79192 -0.731178 -0.940308 0
M  V30 28 H 4.8341 -1.39717 0.734697 0
M  V30 END ATOM
M  V30 BEGIN BOND
M  V30 1 1 1 2
M  V30 2 1 2 3
M  V30 3 1 3 4
M  V30 4 1 4 5
M  V30 5 1 3 6
M  V30 6 1 6 7
M  V30 7 2 7 8
M  V30 8 1 8 9
M  V30 9 2 9 10
M  V30 10 1 10 11
M  V30 11 2 11 12
M  V30 12 1 11 13
M  V30 13 1 10 14
M  V30 14 1 5 3
M  V30 15 1 12 7
M  V30 16 1 1 15
M  V30 17 1 2 16
M  V30 18 1 2 17
M  V30 19 1 4 18
M  V30 20 1 4 19
M  V30 21 1 5 20
M  V30 22 1 5 21
M  V30 23 1 6 22
M  V30 24 1 8 23
M  V30 25 1 9 24
M  V30 26 1 13 25
M  V30 27 1 13 26
M  V30 28 1 14 27
M  V30 29 1 14 28
M  V30 END BOND
M  V30 END CTAB
M  END
