
     RDKit          3D

  0  0  0  0  0  0  0  0  0  0999 V3000
M  V30 BEGIN CTAB
M  V30 COUNTS 15 15 0 0 0
M  V30 BEGIN ATOM
M  V30 1 N -1.99148 -1.60406 -0.267464 0
M  V30 2 C -1.40294 -0.332758 -0.10409 0
M  V30 3 N -2.1404 0.710563 -0.0262961 0
M  V30 4 N -1.58758 1.98914 0.136196 0
M  V30 5 C 0.0608845 -0.242397 -0.0268883 0
M  V30 6 N 0.950684 -1.21455 -0.0900055 0
M  V30 7 C 2.21106 -0.946368 -0.00318206 0
M  V30 8 C 2.58055 0.363337 0.154139 0
M  V30 9 S 1.06197 1.14778 0.168164 0
M  V30 10 I 4.53422 1.16212 0.329773 0
M  V30 11 H -1.72977 -2.28518 -1.00162 0
M  V30 12 H -2.75599 -1.90042 0.397448 0
M  V30 13 H -1.24874 2.27109 1.0602 0
M  V30 14 H -1.53409 2.61605 -0.674763 0
M  V30 15 H 2.99162 -1.73434 -0.0516132 0
M  V30 END ATOM
M  V30 BEGIN BOND
M  V30 1 1 1 2
M  V30 2 2 2 3
M  V30 3 1 3 4
M  V30 4 1 2 5
M  V30 5 2 5 6
M  V30 6 1 6 7
M  V30 7 2 7 8
M  V30 8 1 8 9
M  V30 9 1 8 10
M  V30 10 1 9 5
M  V30 11 1 1 11
M  V30 12 1 1 12
M  V30 13 1 4 13
M  V30 14 1 4 14
M  V30 15 1 7 15
M  V30 END BOND
M  V30 END CTAB
M  END
