
     RDKit          3D

  0  0  0  0  0  0  0  0  0  0999 V3000
M  V30 BEGIN CTAB
M  V30 COUNTS 20 20 0 0 0
M  V30 BEGIN ATOM
M  V30 1 F 1.65226 -2.05132 -1.17418 0
M  V30 2 C 0.719502 -1.24813 -0.631184 0
M  V30 3 C -0.614556 -1.3368 -1.0448 0
M  V30 4 C -1.56809 -0.499659 -0.474273 0
M  V30 5 N -2.93879 -0.535142 -0.845766 0
M  V30 6 C -1.17691 0.402331 0.489575 0
M  V30 7 C 0.155202 0.471934 0.884372 0
M  V30 8 C 1.12122 -0.346754 0.334665 0
M  V30 9 O 2.43488 -0.268756 0.73298 0
M  V30 10 C 3.42037 0.537585 0.183355 0
M  V30 11 F 4.60242 0.29321 0.898614 0
M  V30 12 F 3.17337 1.89318 0.325384 0
M  V30 13 F 3.71903 0.2384 -1.13637 0
M  V30 14 N -2.16274 1.24909 1.06136 0
M  V30 15 H -0.93546 -2.04059 -1.8007 0
M  V30 16 H -3.24902 -0.525454 -1.85265 0
M  V30 17 H -3.71388 -0.572809 -0.140479 0
M  V30 18 H 0.449533 1.18203 1.63981 0
M  V30 19 H -2.41067 1.21592 2.07374 0
M  V30 20 H -2.67767 1.94174 0.476546 0
M  V30 END ATOM
M  V30 BEGIN BOND
M  V30 1 1 1 2
M  V30 2 2 2 3
M  V30 3 1 3 4
M  V30 4 1 4 5
M  V30 5 2 4 6
M  V30 6 1 6 7
M  V30 7 2 7 8
M  V30 8 1 8 9
M  V30 9 1 9 10
M  V30 10 1 10 11
M  V30 11 1 10 12
M  V30 12 1 10 13
M  V30 13 1 6 14
M  V30 14 1 8 2
M  V30 15 1 3 15
M  V30 16 1 5 16
M  V30 17 1 5 17
M  V30 18 1 7 18
M  V30 19 1 14 19
M  V30 20 1 14 20
M  V30 END BOND
M  V30 END CTAB
M  END
