
     RDKit          3D

  0  0  0  0  0  0  0  0  0  0999 V3000
M  V30 BEGIN CTAB
M  V30 COUNTS 36 37 0 0 0
M  V30 BEGIN ATOM
M  V30 1 C -3.77224 2.0157 -1.27589 0
M  V30 2 O -3.07143 1.35005 -0.287975 0
M  V30 3 C -2.28473 0.313807 -0.788743 0 CFG=1
M  V30 4 C -0.869602 0.633219 -0.464661 0
M  V30 5 N -0.0160182 -0.524475 -0.37296 0
M  V30 6 C -0.445573 -1.8824 -0.512413 0
M  V30 7 C -1.88604 -2.13522 -0.345552 0
M  V30 8 C -2.77947 -0.973516 -0.20335 0 CFG=1
M  V30 9 N -3.15316 -0.701617 1.19119 0
M  V30 10 C 1.3731 -0.285094 -0.121782 0
M  V30 11 C 1.89811 0.985364 0.0297689 0
M  V30 12 C 3.23654 1.21738 0.271843 0
M  V30 13 C 3.80816 2.55996 0.434948 0
M  V30 14 N 4.03824 0.149052 0.358901 0
M  V30 15 C 3.57096 -1.10573 0.218079 0
M  V30 16 N 2.26834 -1.30259 -0.0161309 0
M  V30 17 N 4.51417 -2.15793 0.330339 0
M  V30 18 H -4.36346 2.81468 -0.785787 0
M  V30 19 H -4.4468 1.39138 -1.86298 0
M  V30 20 H -3.04607 2.50722 -1.95397 0
M  V30 21 H -2.44815 0.31083 -1.90053 0
M  V30 22 H -0.77951 1.18027 0.515803 0
M  V30 23 H -0.485837 1.34043 -1.23026 0
M  V30 24 H -0.0625761 -2.23511 -1.51617 0
M  V30 25 H 0.165243 -2.48846 0.221434 0
M  V30 26 H -2.22565 -2.78653 -1.20577 0
M  V30 27 H -2.04056 -2.80153 0.55541 0
M  V30 28 H -3.75233 -1.20433 -0.708584 0
M  V30 29 H -3.32163 -1.58167 1.71542 0
M  V30 30 H -2.53086 -0.0269204 1.64575 0
M  V30 31 H 1.2472 1.84461 -0.0413596 0
M  V30 32 H 3.80197 2.803 1.51066 0
M  V30 33 H 3.2701 3.3487 -0.117032 0
M  V30 34 H 4.89392 2.52022 0.128023 0
M  V30 35 H 5.31932 -2.07767 0.961067 0
M  V30 36 H 4.37632 -3.01508 -0.238815 0
M  V30 END ATOM
M  V30 BEGIN BOND
M  V30 1 1 1 2
M  V30 2 1 2 3
M  V30 3 1 3 4
M  V30 4 1 4 5
M  V30 5 1 5 6
M  V30 6 1 6 7
M  V30 7 1 7 8
M  V30 8 1 8 9
M  V30 9 1 5 10
M  V30 10 2 10 11
M  V30 11 1 11 12
M  V30 12 1 12 13
M  V30 13 2 12 14
M  V30 14 1 14 15
M  V30 15 2 15 16
M  V30 16 1 15 17
M  V30 17 1 8 3
M  V30 18 1 16 10
M  V30 19 1 1 18
M  V30 20 1 1 19
M  V30 21 1 1 20
M  V30 22 1 3 21 CFG=3
M  V30 23 1 4 22
M  V30 24 1 4 23
M  V30 25 1 6 24
M  V30 26 1 6 25
M  V30 27 1 7 26
M  V30 28 1 7 27
M  V30 29 1 8 28 CFG=3
M  V30 30 1 9 29
M  V30 31 1 9 30
M  V30 32 1 11 31
M  V30 33 1 13 32
M  V30 34 1 13 33
M  V30 35 1 13 34
M  V30 36 1 17 35
M  V30 37 1 17 36
M  V30 END BOND
M  V30 END CTAB
M  END
