
     RDKit          3D

  0  0  0  0  0  0  0  0  0  0999 V3000
M  V30 BEGIN CTAB
M  V30 COUNTS 15 15 0 0 0
M  V30 BEGIN ATOM
M  V30 1 N 2.34482 0.505886 0.443314 0
M  V30 2 C 0.962704 0.704039 0.191378 0
M  V30 3 N 0.426599 1.91586 -0.0102008 0
M  V30 4 C -0.891344 2.10162 -0.250072 0
M  V30 5 N -1.69625 1.0254 -0.287676 0
M  V30 6 C -1.18986 -0.221347 -0.0879192 0
M  V30 7 N -1.99428 -1.38052 -0.117825 0
M  V30 8 C 0.156529 -0.409116 0.156944 0
M  V30 9 S 0.817478 -2.06851 0.420576 0
M  V30 10 H 2.61046 0.0246927 1.32402 0
M  V30 11 H 3.034 0.845839 -0.255189 0
M  V30 12 H -1.27501 3.10975 -0.407203 0
M  V30 13 H -2.17676 -1.84806 -1.01615 0
M  V30 14 H -2.40279 -1.76809 0.743216 0
M  V30 15 H 1.27371 -2.53745 -0.847222 0
M  V30 END ATOM
M  V30 BEGIN BOND
M  V30 1 1 1 2
M  V30 2 2 2 3
M  V30 3 1 3 4
M  V30 4 2 4 5
M  V30 5 1 5 6
M  V30 6 1 6 7
M  V30 7 2 6 8
M  V30 8 1 8 9
M  V30 9 1 8 2
M  V30 10 1 1 10
M  V30 11 1 1 11
M  V30 12 1 4 12
M  V30 13 1 7 13
M  V30 14 1 7 14
M  V30 15 1 9 15
M  V30 END BOND
M  V30 END CTAB
M  END
