
     RDKit          3D

  0  0  0  0  0  0  0  0  0  0999 V3000
M  V30 BEGIN CTAB
M  V30 COUNTS 38 41 0 0 0
M  V30 BEGIN ATOM
M  V30 1 N 2.4732 2.02619 -1.79491 0
M  V30 2 C 3.1448 0.959827 -1.11533 0
M  V30 3 N 2.64333 -0.286729 -1.0636 0
M  V30 4 C 3.29554 -1.27 -0.418431 0
M  V30 5 C 2.7555 -2.65142 -0.353585 0
M  V30 6 S 1.68849 -2.90401 1.08967 0
M  V30 7 C 0.220975 -1.91044 0.932298 0
M  V30 8 N 0.0607788 -0.65319 1.37611 0
M  V30 9 C -1.20399 -0.272774 1.04792 0
M  V30 10 C -1.82355 -1.31096 0.395543 0
M  V30 11 N -0.941504 -2.29436 0.336151 0
M  V30 12 C -3.18204 -1.34246 -0.13413 0
M  V30 13 C -3.58282 -1.50529 -1.4383 0
M  V30 14 C -4.89751 -1.49926 -1.67959 0
M  V30 15 C -5.73857 -1.33225 -0.614657 0
M  V30 16 S -4.66098 -1.18785 0.698557 0
M  V30 17 C -1.77533 1.05478 1.36348 0
M  V30 18 C -2.20202 1.99454 0.460454 0
M  V30 19 C -2.69107 3.13897 0.950553 0
M  V30 20 C -2.72557 3.27829 2.31229 0
M  V30 21 S -2.07224 1.80307 2.86484 0
M  V30 22 N 4.46807 -1.00107 0.184306 0
M  V30 23 C 4.99825 0.221078 0.155827 0
M  V30 24 N 4.31563 1.17685 -0.499326 0
M  V30 25 N 6.22733 0.53398 0.779122 0
M  V30 26 H 2.92395 2.503 -2.58556 0
M  V30 27 H 1.51919 2.32741 -1.49163 0
M  V30 28 H 3.61082 -3.36034 -0.323987 0
M  V30 29 H 2.2156 -2.82646 -1.30708 0
M  V30 30 H 0.787921 -0.0816869 1.88212 0
M  V30 31 H -2.80619 -1.63397 -2.22951 0
M  V30 32 H -5.31844 -1.62368 -2.70249 0
M  V30 33 H -6.84242 -1.30455 -0.648346 0
M  V30 34 H -2.13294 1.78735 -0.633964 0
M  V30 35 H -3.06449 3.96728 0.306182 0
M  V30 36 H -3.09663 4.15571 2.87315 0
M  V30 37 H 6.88755 -0.198642 1.11686 0
M  V30 38 H 6.52138 1.52308 0.925314 0
M  V30 END ATOM
M  V30 BEGIN BOND
M  V30 1 1 1 2
M  V30 2 2 2 3
M  V30 3 1 3 4
M  V30 4 1 4 5
M  V30 5 1 5 6
M  V30 6 1 6 7
M  V30 7 1 7 8
M  V30 8 1 8 9
M  V30 9 2 9 10
M  V30 10 1 10 11
M  V30 11 1 10 12
M  V30 12 2 12 13
M  V30 13 1 13 14
M  V30 14 2 14 15
M  V30 15 1 15 16
M  V30 16 1 9 17
M  V30 17 2 17 18
M  V30 18 1 18 19
M  V30 19 2 19 20
M  V30 20 1 20 21
M  V30 21 2 4 22
M  V30 22 1 22 23
M  V30 23 2 23 24
M  V30 24 1 23 25
M  V30 25 1 24 2
M  V30 26 2 11 7
M  V30 27 1 16 12
M  V30 28 1 21 17
M  V30 29 1 1 26
M  V30 30 1 1 27
M  V30 31 1 5 28
M  V30 32 1 5 29
M  V30 33 1 8 30
M  V30 34 1 13 31
M  V30 35 1 14 32
M  V30 36 1 15 33
M  V30 37 1 18 34
M  V30 38 1 19 35
M  V30 39 1 20 36
M  V30 40 1 25 37
M  V30 41 1 25 38
M  V30 END BOND
M  V30 END CTAB
M  END
