
     RDKit          3D

  0  0  0  0  0  0  0  0  0  0999 V3000
M  V30 BEGIN CTAB
M  V30 COUNTS 18 19 0 0 0
M  V30 BEGIN ATOM
M  V30 1 N -2.89163 1.38654 -0.155248 0
M  V30 2 C -2.31543 0.154505 -0.548611 0
M  V30 3 N -2.60266 -0.602293 -1.63204 0
M  V30 4 O -1.82739 -1.64555 -1.58785 0
M  V30 5 N -1.06368 -1.61037 -0.55235 0
M  V30 6 C -1.30772 -0.500143 0.16343 0
M  V30 7 N -0.712437 -0.0428566 1.37176 0
M  V30 8 N 0.50377 -0.139823 1.64557 0
M  V30 9 C 1.47855 -0.723474 0.788156 0
M  V30 10 N 1.82006 -2.01729 0.635424 0
M  V30 11 O 2.76515 -2.09593 -0.26186 0
M  V30 12 N 3.07857 -0.939329 -0.719713 0
M  V30 13 C 2.29839 -0.0375414 -0.0924229 0
M  V30 14 N 2.32421 1.36344 -0.30711 0
M  V30 15 H -3.19006 2.10542 -0.845375 0
M  V30 16 H -3.01701 1.57071 0.858962 0
M  V30 17 H 3.22445 1.89677 -0.329466 0
M  V30 18 H 1.43487 1.87723 -0.445763 0
M  V30 END ATOM
M  V30 BEGIN BOND
M  V30 1 1 1 2
M  V30 2 2 2 3
M  V30 3 1 3 4
M  V30 4 1 4 5
M  V30 5 2 5 6
M  V30 6 1 6 7
M  V30 7 2 7 8 CFG=2
M  V30 8 1 8 9
M  V30 9 2 9 10
M  V30 10 1 10 11
M  V30 11 1 11 12
M  V30 12 2 12 13
M  V30 13 1 13 14
M  V30 14 1 6 2
M  V30 15 1 13 9
M  V30 16 1 1 15
M  V30 17 1 1 16
M  V30 18 1 14 17
M  V30 19 1 14 18
M  V30 END BOND
M  V30 END CTAB
M  END
