
     RDKit          3D

  0  0  0  0  0  0  0  0  0  0999 V3000
M  V30 BEGIN CTAB
M  V30 COUNTS 21 22 0 0 0
M  V30 BEGIN ATOM
M  V30 1 N -3.84218 -1.54627 -0.109413 0
M  V30 2 C -2.54206 -0.95753 -0.0697485 0
M  V30 3 N -1.42761 -1.73673 -0.0939856 0
M  V30 4 C -0.204916 -1.18314 -0.0566598 0
M  V30 5 C -0.0312084 0.182654 0.00705572 0
M  V30 6 C 1.2259 0.74429 0.0450884 0
M  V30 7 C 2.35583 -0.0495581 0.0203422 0
M  V30 8 C 2.15573 -1.40866 -0.0433294 0
M  V30 9 N 0.917146 -1.93164 -0.079428 0
M  V30 10 N 3.62311 0.549418 0.0601672 0 CHG=1
M  V30 11 O 4.74557 -0.245804 0.0352756 0 CHG=-1
M  V30 12 O 3.75582 1.77498 0.117127 0
M  V30 13 C -1.16214 0.980896 0.031993 0
M  V30 14 N -1.01119 2.38819 0.097382 0
M  V30 15 N -2.35557 0.366986 -0.00777778 0
M  V30 16 H -4.6657 -1.07514 0.310979 0
M  V30 17 H -3.96923 -2.46403 -0.567331 0
M  V30 18 H 1.28183 1.81496 0.0942317 0
M  V30 19 H 3.04314 -2.02831 -0.0625963 0
M  V30 20 H -1.42256 3.02515 -0.610687 0
M  V30 21 H -0.46973 2.7993 0.881315 0
M  V30 END ATOM
M  V30 BEGIN BOND
M  V30 1 1 1 2
M  V30 2 2 2 3
M  V30 3 1 3 4
M  V30 4 2 4 5
M  V30 5 1 5 6
M  V30 6 2 6 7
M  V30 7 1 7 8
M  V30 8 2 8 9
M  V30 9 1 7 10
M  V30 10 1 10 11
M  V30 11 2 10 12
M  V30 12 1 5 13
M  V30 13 1 13 14
M  V30 14 2 13 15
M  V30 15 1 15 2
M  V30 16 1 9 4
M  V30 17 1 1 16
M  V30 18 1 1 17
M  V30 19 1 6 18
M  V30 20 1 8 19
M  V30 21 1 14 20
M  V30 22 1 14 21
M  V30 END BOND
M  V30 END CTAB
M  END
