
     RDKit          3D

  0  0  0  0  0  0  0  0  0  0999 V3000
M  V30 BEGIN CTAB
M  V30 COUNTS 45 47 0 0 0
M  V30 BEGIN ATOM
M  V30 1 Cl -6.05888 -2.47255 -0.954584 0
M  V30 2 C -5.28411 -0.983298 -0.446306 0
M  V30 3 C -5.98487 0.19657 -0.499536 0
M  V30 4 C -5.35062 1.35073 -0.0937266 0
M  V30 5 C -4.05381 1.33527 0.353643 0
M  V30 6 C -3.35103 0.152934 0.406781 0
M  V30 7 C -3.98846 -1.00083 0.000229268 0
M  V30 8 C -1.96894 0.136907 0.903134 0
M  V30 9 C -0.900415 0.379848 -0.128433 0
M  V30 10 C -0.963537 -0.661536 -1.19086 0
M  V30 11 C -0.417036 -1.99684 -0.729042 0
M  V30 12 C 1.05365 -1.82605 -0.54187 0
M  V30 13 N 1.37954 -0.540001 0.0351756 0
M  V30 14 C 0.456581 0.413848 0.553366 0
M  V30 15 C 2.771 -0.215196 0.0811707 0
M  V30 16 C 3.76431 -1.05343 -0.379718 0
M  V30 17 C 5.10806 -0.732926 -0.332415 0
M  V30 18 N 6.07126 -1.63905 -0.822324 0
M  V30 19 N 5.43327 0.466336 0.196354 0
M  V30 20 C 4.48416 1.31874 0.660479 0
M  V30 21 N 3.19205 0.956647 0.590133 0
M  V30 22 N 4.88191 2.56924 1.20751 0
M  V30 23 C -1.08169 1.70837 -0.761595 0
M  V30 24 O -1.40303 1.786 -1.96931 0
M  V30 25 O -0.905882 2.87413 -0.0551737 0
M  V30 26 H -7.00904 0.192908 -0.85546 0
M  V30 27 H -5.92143 2.27101 -0.143596 0
M  V30 28 H -3.5897 2.27551 0.673155 0
M  V30 29 H -3.44882 -1.96566 0.0351071 0
M  V30 30 H -1.87111 0.885861 1.74947 0
M  V30 31 H -1.80074 -0.846211 1.43757 0
M  V30 32 H -0.266917 -0.34681 -2.02456 0
M  V30 33 H -1.9538 -0.808709 -1.59971 0
M  V30 34 H -0.596291 -2.73425 -1.52029 0
M  V30 35 H -0.874671 -2.30993 0.229535 0
M  V30 36 H 1.51963 -2.59993 0.0991544 0
M  V30 37 H 1.56178 -1.84456 -1.54684 0
M  V30 38 H 0.295416 0.186468 1.62442 0
M  V30 39 H 0.902241 1.42695 0.519328 0
M  V30 40 H 3.44896 -2.00548 -0.794982 0
M  V30 41 H 6.45218 -2.36832 -0.205577 0
M  V30 42 H 6.38996 -1.56603 -1.79908 0
M  V30 43 H 5.77445 3.03516 0.940933 0
M  V30 44 H 4.27381 3.05379 1.90118 0
M  V30 45 H -0.169389 3.54438 -0.214145 0
M  V30 END ATOM
M  V30 BEGIN BOND
M  V30 1 1 1 2
M  V30 2 2 2 3
M  V30 3 1 3 4
M  V30 4 2 4 5
M  V30 5 1 5 6
M  V30 6 2 6 7
M  V30 7 1 6 8
M  V30 8 1 8 9
M  V30 9 1 9 10
M  V30 10 1 10 11
M  V30 11 1 11 12
M  V30 12 1 12 13
M  V30 13 1 13 14
M  V30 14 1 13 15
M  V30 15 2 15 16
M  V30 16 1 16 17
M  V30 17 1 17 18
M  V30 18 2 17 19
M  V30 19 1 19 20
M  V30 20 2 20 21
M  V30 21 1 20 22
M  V30 22 1 9 23
M  V30 23 2 23 24
M  V30 24 1 23 25
M  V30 25 1 7 2
M  V30 26 1 14 9
M  V30 27 1 21 15
M  V30 28 1 3 26
M  V30 29 1 4 27
M  V30 30 1 5 28
M  V30 31 1 7 29
M  V30 32 1 8 30
M  V30 33 1 8 31
M  V30 34 1 10 32
M  V30 35 1 10 33
M  V30 36 1 11 34
M  V30 37 1 11 35
M  V30 38 1 12 36
M  V30 39 1 12 37
M  V30 40 1 14 38
M  V30 41 1 14 39
M  V30 42 1 16 40
M  V30 43 1 18 41
M  V30 44 1 18 42
M  V30 45 1 22 43
M  V30 46 1 22 44
M  V30 47 1 25 45
M  V30 END BOND
M  V30 END CTAB
M  END
