
     RDKit          3D

  0  0  0  0  0  0  0  0  0  0999 V3000
M  V30 BEGIN CTAB
M  V30 COUNTS 30 30 0 0 0
M  V30 BEGIN ATOM
M  V30 1 N 4.7428 0.198542 1.45955 0
M  V30 2 N 3.38678 0.439883 1.08128 0
M  V30 3 C 2.68883 -0.500877 0.335678 0
M  V30 4 O 3.33669 -1.57161 0.00768208 0
M  V30 5 C 1.3287 -0.475558 -0.152673 0
M  V30 6 N 0.842173 -1.08579 -1.22928 0
M  V30 7 C -0.459545 -0.838712 -1.38425 0
M  V30 8 C -0.91268 -0.00391796 -0.348043 0
M  V30 9 C 0.218655 0.196814 0.400517 0
M  V30 10 C 0.340005 0.86606 1.72842 0
M  V30 11 C -2.2962 0.351279 -0.211358 0
M  V30 12 N -2.79441 1.15167 0.588114 0
M  V30 13 N -2.38098 1.93783 1.53063 0
M  V30 14 C -3.37186 -0.356063 -1.0517 0
M  V30 15 C -1.22765 -1.34459 -2.55003 0
M  V30 16 H 4.85147 -0.839694 1.48349 0
M  V30 17 H 5.3145 0.630892 0.696074 0
M  V30 18 H 3.05917 1.37632 1.41688 0
M  V30 19 H 1.43802 -1.67481 -1.84646 0
M  V30 20 H -0.441372 0.480574 2.46413 0
M  V30 21 H 0.519193 1.91669 1.72067 0
M  V30 22 H 1.24792 0.381711 2.26313 0
M  V30 23 H -1.91944 2.88366 1.33567 0
M  V30 24 H -2.46576 1.75105 2.56155 0
M  V30 25 H -4.38216 -0.107258 -0.58965 0
M  V30 26 H -3.42407 0.0446875 -2.05017 0
M  V30 27 H -3.26402 -1.4181 -0.896489 0
M  V30 28 H -0.437551 -1.73839 -3.28885 0
M  V30 29 H -1.88124 -2.17663 -2.35663 0
M  V30 30 H -1.65597 -0.475645 -3.11786 0
M  V30 END ATOM
M  V30 BEGIN BOND
M  V30 1 1 1 2
M  V30 2 1 2 3
M  V30 3 2 3 4
M  V30 4 1 3 5
M  V30 5 1 5 6
M  V30 6 1 6 7
M  V30 7 2 7 8
M  V30 8 1 8 9
M  V30 9 1 9 10
M  V30 10 1 8 11
M  V30 11 2 11 12
M  V30 12 1 12 13
M  V30 13 1 11 14
M  V30 14 1 7 15
M  V30 15 2 9 5
M  V30 16 1 1 16
M  V30 17 1 1 17
M  V30 18 1 2 18
M  V30 19 1 6 19
M  V30 20 1 10 20
M  V30 21 1 10 21
M  V30 22 1 10 22
M  V30 23 1 13 23
M  V30 24 1 13 24
M  V30 25 1 14 25
M  V30 26 1 14 26
M  V30 27 1 14 27
M  V30 28 1 15 28
M  V30 29 1 15 29
M  V30 30 1 15 30
M  V30 END BOND
M  V30 END CTAB
M  END
