
     RDKit          3D

  0  0  0  0  0  0  0  0  0  0999 V3000
M  V30 BEGIN CTAB
M  V30 COUNTS 56 57 0 0 0
M  V30 BEGIN ATOM
M  V30 1 C -5.42613 -0.000192887 0.174662 0 CFG=2
M  V30 2 C -6.20586 0.0587147 -1.09549 0
M  V30 3 C -7.69015 -0.0210869 -0.97413 0
M  V30 4 C -8.31436 1.06021 -0.181542 0
M  V30 5 O -9.68564 1.06478 0.0400849 0
M  V30 6 O -7.65831 1.9999 0.316177 0
M  V30 7 N -3.98919 0.0901503 -0.098101 0
M  V30 8 C -3.16833 1.07043 0.46616 0
M  V30 9 O -3.74263 1.90371 1.24796 0
M  V30 10 C -1.75399 1.22133 0.246615 0
M  V30 11 C -1.08318 2.30539 0.805012 0
M  V30 12 C 0.263581 2.42287 0.579258 0
M  V30 13 C 0.979661 1.51527 -0.175254 0
M  V30 14 C 2.43975 1.68227 -0.410774 0
M  V30 15 C 3.20928 1.03459 0.709008 0
M  V30 16 C 3.03997 -0.415148 0.880302 0
M  V30 17 C 3.5671 -1.23494 -0.233999 0
M  V30 18 C 5.03218 -1.12131 -0.382279 0
M  V30 19 C 5.83973 -1.75743 0.564152 0
M  V30 20 N 5.2177 -2.48153 1.61187 0
M  V30 21 N 7.17398 -1.68483 0.449623 0
M  V30 22 C 7.80473 -1.02468 -0.540409 0
M  V30 23 N 9.22196 -0.98544 -0.604529 0
M  V30 24 N 7.02032 -0.421317 -1.44049 0
M  V30 25 C 5.65954 -0.446891 -1.3966 0
M  V30 26 O 5.0489 0.161684 -2.31328 0
M  V30 27 C 0.283432 0.46416 -0.706288 0
M  V30 28 C -1.0825 0.286856 -0.515374 0
M  V30 29 C -5.66707 -1.2718 0.891889 0
M  V30 30 O -6.945 -1.65678 1.33881 0
M  V30 31 O -4.67703 -2.03081 1.10554 0
M  V30 32 H -5.65306 0.809599 0.888529 0
M  V30 33 H -5.89651 -0.796136 -1.76813 0
M  V30 34 H -5.97903 0.962584 -1.7035 0
M  V30 35 H -8.07539 0.132772 -2.04151 0
M  V30 36 H -8.07921 -1.0296 -0.695254 0
M  V30 37 H -10.0076 0.676706 0.930097 0
M  V30 38 H -3.59705 -0.617558 -0.741366 0
M  V30 39 H -1.61535 3.02313 1.39382 0
M  V30 40 H 0.799886 3.2617 1.00747 0
M  V30 41 H 2.68785 2.78202 -0.475622 0
M  V30 42 H 2.63202 1.20015 -1.39055 0
M  V30 43 H 4.26907 1.36071 0.575921 0
M  V30 44 H 2.91903 1.52111 1.69218 0
M  V30 45 H 1.94097 -0.604182 1.06355 0
M  V30 46 H 3.49724 -0.686762 1.86672 0
M  V30 47 H 3.25872 -2.29885 -0.065458 0
M  V30 48 H 3.06802 -0.961448 -1.20435 0
M  V30 49 H 4.65734 -3.32112 1.36346 0
M  V30 50 H 5.29789 -2.20725 2.62829 0
M  V30 51 H 9.77248 -0.282269 -0.0852227 0
M  V30 52 H 9.70851 -1.68467 -1.1903 0
M  V30 53 H 7.48501 0.106417 -2.23201 0
M  V30 54 H 0.78478 -0.286427 -1.3143 0
M  V30 55 H -1.60626 -0.559356 -0.94907 0
M  V30 56 H -6.98185 -2.2894 2.12709 0
M  V30 END ATOM
M  V30 BEGIN BOND
M  V30 1 1 1 2
M  V30 2 1 2 3
M  V30 3 1 3 4
M  V30 4 1 4 5
M  V30 5 2 4 6
M  V30 6 1 1 7
M  V30 7 1 7 8
M  V30 8 2 8 9
M  V30 9 1 8 10
M  V30 10 2 10 11
M  V30 11 1 11 12
M  V30 12 2 12 13
M  V30 13 1 13 14
M  V30 14 1 14 15
M  V30 15 1 15 16
M  V30 16 1 16 17
M  V30 17 1 17 18
M  V30 18 2 18 19
M  V30 19 1 19 20
M  V30 20 1 19 21
M  V30 21 2 21 22
M  V30 22 1 22 23
M  V30 23 1 22 24
M  V30 24 1 24 25
M  V30 25 2 25 26
M  V30 26 1 13 27
M  V30 27 2 27 28
M  V30 28 1 1 29
M  V30 29 1 29 30
M  V30 30 2 29 31
M  V30 31 1 28 10
M  V30 32 1 25 18
M  V30 33 1 1 32 CFG=1
M  V30 34 1 2 33
M  V30 35 1 2 34
M  V30 36 1 3 35
M  V30 37 1 3 36
M  V30 38 1 5 37
M  V30 39 1 7 38
M  V30 40 1 11 39
M  V30 41 1 12 40
M  V30 42 1 14 41
M  V30 43 1 14 42
M  V30 44 1 15 43
M  V30 45 1 15 44
M  V30 46 1 16 45
M  V30 47 1 16 46
M  V30 48 1 17 47
M  V30 49 1 17 48
M  V30 50 1 20 49
M  V30 51 1 20 50
M  V30 52 1 23 51
M  V30 53 1 23 52
M  V30 54 1 24 53
M  V30 55 1 27 54
M  V30 56 1 28 55
M  V30 57 1 30 56
M  V30 END BOND
M  V30 END CTAB
M  END
