
     RDKit          3D

  0  0  0  0  0  0  0  0  0  0999 V3000
M  V30 BEGIN CTAB
M  V30 COUNTS 46 48 0 0 0
M  V30 BEGIN ATOM
M  V30 1 N -5.35535 -0.978331 -0.578853 0
M  V30 2 C -4.01713 -1.44622 -0.560523 0
M  V30 3 C -2.99111 -0.372204 -0.301844 0
M  V30 4 C -3.02636 0.702964 -1.34319 0
M  V30 5 C -3.91119 1.86876 -0.982622 0
M  V30 6 O -3.45105 2.35473 0.251991 0
M  V30 7 C -3.87395 1.45765 1.20163 0
M  V30 8 C -3.22641 0.11657 1.10679 0
M  V30 9 C -1.62549 -1.02852 -0.388809 0
M  V30 10 O -1.60437 -2.24031 -0.637942 0
M  V30 11 N -0.452679 -0.291573 -0.195295 0
M  V30 12 C 0.887211 -0.736466 -0.24426 0
M  V30 13 C 1.25641 -1.96096 -0.70906 0
M  V30 14 C 2.60058 -2.30679 -0.700166 0
M  V30 15 C 3.58282 -1.46796 -0.242569 0
M  V30 16 C 3.23235 -0.227153 0.230593 0
M  V30 17 C 1.90822 0.106692 0.219223 0
M  V30 18 N 4.43351 0.461831 0.650931 0
M  V30 19 C 5.39254 -0.595846 0.940713 0
M  V30 20 C 5.05699 -1.6077 -0.133802 0
M  V30 21 S 4.59535 2.15591 0.753258 0
M  V30 22 O 3.62526 2.76036 1.72358 0
M  V30 23 O 5.99548 2.45254 1.26995 0
M  V30 24 N 4.38201 2.90775 -0.773394 0
M  V30 25 H -5.78818 -0.909467 -1.52269 0
M  V30 26 H -5.97724 -1.35345 0.152691 0
M  V30 27 H -3.81864 -2.01095 -1.4956 0
M  V30 28 H -3.91513 -2.1856 0.285981 0
M  V30 29 H -2.00108 1.13675 -1.52064 0
M  V30 30 H -3.3599 0.338001 -2.33552 0
M  V30 31 H -3.77747 2.63496 -1.77437 0
M  V30 32 H -4.95034 1.55286 -0.871171 0
M  V30 33 H -3.80223 1.90735 2.21226 0
M  V30 34 H -4.98062 1.30887 1.0319 0
M  V30 35 H -2.21987 0.150421 1.61659 0
M  V30 36 H -3.79163 -0.647415 1.7006 0
M  V30 37 H -0.617625 0.751391 0.0155374 0
M  V30 38 H 0.560489 -2.69551 -1.10107 0
M  V30 39 H 2.84828 -3.30931 -1.08645 0
M  V30 40 H 1.62236 1.08197 0.590089 0
M  V30 41 H 6.43569 -0.24165 0.870678 0
M  V30 42 H 5.15176 -1.0196 1.94864 0
M  V30 43 H 5.54375 -1.27162 -1.08203 0
M  V30 44 H 5.36228 -2.62938 0.160162 0
M  V30 45 H 4.69358 2.23545 -1.51394 0
M  V30 46 H 3.3681 3.09021 -0.974992 0
M  V30 END ATOM
M  V30 BEGIN BOND
M  V30 1 1 1 2
M  V30 2 1 2 3
M  V30 3 1 3 4
M  V30 4 1 4 5
M  V30 5 1 5 6
M  V30 6 1 6 7
M  V30 7 1 7 8
M  V30 8 1 3 9
M  V30 9 2 9 10
M  V30 10 1 9 11
M  V30 11 1 11 12
M  V30 12 2 12 13
M  V30 13 1 13 14
M  V30 14 2 14 15
M  V30 15 1 15 16
M  V30 16 2 16 17
M  V30 17 1 16 18
M  V30 18 1 18 19
M  V30 19 1 19 20
M  V30 20 1 18 21
M  V30 21 2 21 22
M  V30 22 2 21 23
M  V30 23 1 21 24
M  V30 24 1 8 3
M  V30 25 1 17 12
M  V30 26 1 20 15
M  V30 27 1 1 25
M  V30 28 1 1 26
M  V30 29 1 2 27
M  V30 30 1 2 28
M  V30 31 1 4 29
M  V30 32 1 4 30
M  V30 33 1 5 31
M  V30 34 1 5 32
M  V30 35 1 7 33
M  V30 36 1 7 34
M  V30 37 1 8 35
M  V30 38 1 8 36
M  V30 39 1 11 37
M  V30 40 1 13 38
M  V30 41 1 14 39
M  V30 42 1 17 40
M  V30 43 1 19 41
M  V30 44 1 19 42
M  V30 45 1 20 43
M  V30 46 1 20 44
M  V30 47 1 24 45
M  V30 48 1 24 46
M  V30 END BOND
M  V30 END CTAB
M  END
