
     RDKit          3D

  0  0  0  0  0  0  0  0  0  0999 V3000
M  V30 BEGIN CTAB
M  V30 COUNTS 13 12 0 0 0
M  V30 BEGIN ATOM
M  V30 1 N 2.3196 -0.350766 0.101 0
M  V30 2 C 1.14818 0.457042 -0.0924218 0
M  V30 3 C -0.108093 -0.307724 0.100999 0
M  V30 4 O -0.0281979 -1.52698 0.400271 0
M  V30 5 N -1.39666 0.251005 -0.0306718 0
M  V30 6 N -2.52887 -0.535778 0.167657 0
M  V30 7 H 3.106 0.119734 -0.404765 0
M  V30 8 H 2.57721 -0.372878 1.11054 0
M  V30 9 H 1.23046 1.33815 0.556393 0
M  V30 10 H 1.15589 0.82304 -1.1428 0
M  V30 11 H -1.45494 1.26287 -0.279119 0
M  V30 12 H -3.36429 0.0877552 0.113243 0
M  V30 13 H -2.65627 -1.24548 -0.600335 0
M  V30 END ATOM
M  V30 BEGIN BOND
M  V30 1 1 1 2
M  V30 2 1 2 3
M  V30 3 2 3 4
M  V30 4 1 3 5
M  V30 5 1 5 6
M  V30 6 1 1 7
M  V30 7 1 1 8
M  V30 8 1 2 9
M  V30 9 1 2 10
M  V30 10 1 5 11
M  V30 11 1 6 12
M  V30 12 1 6 13
M  V30 END BOND
M  V30 END CTAB
M  END
