
     RDKit          3D

  0  0  0  0  0  0  0  0  0  0999 V3000
M  V30 BEGIN CTAB
M  V30 COUNTS 20 21 0 0 0
M  V30 BEGIN ATOM
M  V30 1 N -2.91264 -0.637077 -0.164112 0
M  V30 2 C -1.74731 0.186978 -0.139939 0
M  V30 3 C -0.486084 -0.57696 -0.0045212 0
M  V30 4 N -0.446855 -1.91887 0.0866686 0
M  V30 5 C 0.738333 -2.5444 0.207823 0
M  V30 6 N 1.9187 -1.89909 0.244794 0
M  V30 7 C 1.89877 -0.547366 0.154252 0
M  V30 8 C 0.690707 0.151471 0.0267208 0
M  V30 9 C 0.990154 1.49171 -0.0415348 0
M  V30 10 N 0.0275759 2.51656 -0.174033 0
M  V30 11 N 2.31991 1.59191 0.0414675 0
M  V30 12 N 2.86908 0.385545 0.158082 0
M  V30 13 H -3.24962 -0.957183 0.758371 0
M  V30 14 H -2.93946 -1.33593 -0.915679 0
M  V30 15 H -1.83179 0.853035 0.761149 0
M  V30 16 H -1.75798 0.846477 -1.03778 0
M  V30 17 H 0.739842 -3.64355 0.28047 0
M  V30 18 H -0.485211 2.93604 0.635442 0
M  V30 19 H -0.23533 2.9271 -1.11913 0
M  V30 20 H 3.89921 0.17361 0.241496 0
M  V30 END ATOM
M  V30 BEGIN BOND
M  V30 1 1 1 2
M  V30 2 1 2 3
M  V30 3 2 3 4
M  V30 4 1 4 5
M  V30 5 2 5 6
M  V30 6 1 6 7
M  V30 7 2 7 8
M  V30 8 1 8 9
M  V30 9 1 9 10
M  V30 10 2 9 11
M  V30 11 1 11 12
M  V30 12 1 8 3
M  V30 13 1 12 7
M  V30 14 1 1 13
M  V30 15 1 1 14
M  V30 16 1 2 15
M  V30 17 1 2 16
M  V30 18 1 5 17
M  V30 19 1 10 18
M  V30 20 1 10 19
M  V30 21 1 12 20
M  V30 END BOND
M  V30 END CTAB
M  END
