
     RDKit          3D

  0  0  0  0  0  0  0  0  0  0999 V3000
M  V30 BEGIN CTAB
M  V30 COUNTS 27 27 0 0 0
M  V30 BEGIN ATOM
M  V30 1 N 2.65197 -0.909209 -0.846574 0
M  V30 2 C 2.19362 0.280446 -0.289128 0 CFG=1
M  V30 3 C 1.3436 -0.0690591 0.931575 0
M  V30 4 C 0.217366 -0.91139 0.458418 0
M  V30 5 O 0.451608 -2.1374 0.32933 0
M  V30 6 C -1.07795 -0.320133 0.167908 0
M  V30 7 C -1.29198 1.02926 0.318181 0
M  V30 8 C -2.52589 1.62575 0.0462038 0
M  V30 9 Br -2.76244 3.49702 0.272491 0
M  V30 10 C -3.56799 0.843856 -0.387148 0
M  V30 11 C -3.35026 -0.49707 -0.535209 0
M  V30 12 C -2.13734 -1.11076 -0.271918 0
M  V30 13 N -1.93226 -2.50102 -0.430863 0
M  V30 14 C 3.31992 1.12892 0.102126 0
M  V30 15 O 3.08793 2.38107 0.68821 0
M  V30 16 O 4.50071 0.744707 -0.0821109 0
M  V30 17 H 2.04102 -1.33544 -1.48349 0
M  V30 18 H 3.39774 -1.33809 -0.448975 0
M  V30 19 H 1.53187 0.832783 -1.01397 0
M  V30 20 H 2.03982 -0.661655 1.58896 0
M  V30 21 H 1.05703 0.797031 1.52331 0
M  V30 22 H -0.528929 1.70871 0.65224 0
M  V30 23 H -4.53477 1.31996 -0.599021 0
M  V30 24 H -4.17047 -1.10445 -0.87588 0
M  V30 25 H -1.89573 -2.88379 -1.39706 0
M  V30 26 H -1.81244 -3.18456 0.343616 0
M  V30 27 H 3.75424 2.77453 1.34331 0
M  V30 END ATOM
M  V30 BEGIN BOND
M  V30 1 1 1 2
M  V30 2 1 2 3
M  V30 3 1 3 4
M  V30 4 2 4 5
M  V30 5 1 4 6
M  V30 6 2 6 7
M  V30 7 1 7 8
M  V30 8 1 8 9
M  V30 9 2 8 10
M  V30 10 1 10 11
M  V30 11 2 11 12
M  V30 12 1 12 13
M  V30 13 1 2 14
M  V30 14 1 14 15
M  V30 15 2 14 16
M  V30 16 1 12 6
M  V30 17 1 1 17
M  V30 18 1 1 18
M  V30 19 1 2 19 CFG=3
M  V30 20 1 3 20
M  V30 21 1 3 21
M  V30 22 1 7 22
M  V30 23 1 10 23
M  V30 24 1 11 24
M  V30 25 1 13 25
M  V30 26 1 13 26
M  V30 27 1 15 27
M  V30 END BOND
M  V30 END CTAB
M  END
