
     RDKit          3D

  0  0  0  0  0  0  0  0  0  0999 V3000
M  V30 BEGIN CTAB
M  V30 COUNTS 25 25 0 0 0
M  V30 BEGIN ATOM
M  V30 1 C 3.27072 -0.0566594 0.530128 0
M  V30 2 C 2.86543 -0.231687 -0.900842 0
M  V30 3 C 1.38021 -0.42998 -0.982528 0
M  V30 4 C 0.693261 0.787801 -0.401174 0
M  V30 5 N -0.764702 0.605186 -0.475724 0
M  V30 6 N -1.57115 0.946507 -1.44987 0
M  V30 7 C -2.84725 0.62595 -1.17605 0
M  V30 8 C -2.8246 0.0344078 0.0787713 0
M  V30 9 C -1.51758 0.04083 0.477255 0
M  V30 10 N -1.06207 -0.479815 1.7189 0
M  V30 11 N -3.97179 -0.45981 0.759736 0
M  V30 12 H 3.25794 1.03256 0.800961 0
M  V30 13 H 2.58645 -0.555202 1.2479 0
M  V30 14 H 4.28118 -0.504998 0.722661 0
M  V30 15 H 3.10137 0.71988 -1.4597 0
M  V30 16 H 3.43136 -1.02307 -1.41104 0
M  V30 17 H 1.1234 -1.28589 -0.303656 0
M  V30 18 H 1.01915 -0.597059 -2.01264 0
M  V30 19 H 0.959351 0.946974 0.651734 0
M  V30 20 H 0.942013 1.7093 -0.967693 0
M  V30 21 H -3.72393 0.788357 -1.79492 0
M  V30 22 H -1.33945 -1.44259 2.02532 0
M  V30 23 H -0.458374 0.108837 2.30294 0
M  V30 24 H -3.90308 -1.11851 1.55274 0
M  V30 25 H -4.92788 -0.161317 0.466791 0
M  V30 END ATOM
M  V30 BEGIN BOND
M  V30 1 1 1 2
M  V30 2 1 2 3
M  V30 3 1 3 4
M  V30 4 1 4 5
M  V30 5 1 5 6
M  V30 6 2 6 7
M  V30 7 1 7 8
M  V30 8 2 8 9
M  V30 9 1 9 10
M  V30 10 1 8 11
M  V30 11 1 9 5
M  V30 12 1 1 12
M  V30 13 1 1 13
M  V30 14 1 1 14
M  V30 15 1 2 15
M  V30 16 1 2 16
M  V30 17 1 3 17
M  V30 18 1 3 18
M  V30 19 1 4 19
M  V30 20 1 4 20
M  V30 21 1 7 21
M  V30 22 1 10 22
M  V30 23 1 10 23
M  V30 24 1 11 24
M  V30 25 1 11 25
M  V30 END BOND
M  V30 END CTAB
M  END
