
     RDKit          3D

  0  0  0  0  0  0  0  0  0  0999 V3000
M  V30 BEGIN CTAB
M  V30 COUNTS 29 30 0 0 0
M  V30 BEGIN ATOM
M  V30 1 C -4.98492 1.09662 0.455077 0
M  V30 2 C -3.60353 0.510471 0.399386 0
M  V30 3 C -3.29169 -0.592295 1.16539 0
M  V30 4 C -2.04827 -1.13433 1.1274 0
M  V30 5 C -1.04689 -0.591475 0.311195 0
M  V30 6 N 0.215596 -1.23087 0.304875 0
M  V30 7 C 1.45282 -0.676475 -0.0441605 0
M  V30 8 C 2.61629 -1.45963 -0.0491383 0
M  V30 9 C 3.85222 -0.952388 -0.359828 0
M  V30 10 N 5.01153 -1.75401 -0.359962 0
M  V30 11 N 3.93575 0.352757 -0.670655 0
M  V30 12 C 2.79756 1.10502 -0.662633 0
M  V30 13 N 2.94558 2.47822 -0.999179 0
M  V30 14 N 1.61314 0.604429 -0.361585 0
M  V30 15 C -1.32213 0.503011 -0.463182 0
M  V30 16 C -2.62319 1.02482 -0.386495 0
M  V30 17 H -5.03918 1.96305 -0.227799 0
M  V30 18 H -5.15114 1.47387 1.47423 0
M  V30 19 H -5.73197 0.345961 0.136411 0
M  V30 20 H -4.06225 -1.02412 1.80475 0
M  V30 21 H -1.83391 -2.00671 1.74566 0
M  V30 22 H 0.26531 -2.27295 0.598378 0
M  V30 23 H 2.53241 -2.5066 0.202595 0
M  V30 24 H 5.23999 -2.46089 0.386636 0
M  V30 25 H 5.72841 -1.6824 -1.1317 0
M  V30 26 H 3.86975 2.95821 -1.03399 0
M  V30 27 H 2.11132 3.06457 -1.22809 0
M  V30 28 H -0.614553 0.976431 -1.13508 0
M  V30 29 H -2.83404 1.8877 -0.998501 0
M  V30 END ATOM
M  V30 BEGIN BOND
M  V30 1 1 1 2
M  V30 2 2 2 3
M  V30 3 1 3 4
M  V30 4 2 4 5
M  V30 5 1 5 6
M  V30 6 1 6 7
M  V30 7 2 7 8
M  V30 8 1 8 9
M  V30 9 1 9 10
M  V30 10 2 9 11
M  V30 11 1 11 12
M  V30 12 1 12 13
M  V30 13 2 12 14
M  V30 14 1 5 15
M  V30 15 2 15 16
M  V30 16 1 16 2
M  V30 17 1 14 7
M  V30 18 1 1 17
M  V30 19 1 1 18
M  V30 20 1 1 19
M  V30 21 1 3 20
M  V30 22 1 4 21
M  V30 23 1 6 22
M  V30 24 1 8 23
M  V30 25 1 10 24
M  V30 26 1 10 25
M  V30 27 1 13 26
M  V30 28 1 13 27
M  V30 29 1 15 28
M  V30 30 1 16 29
M  V30 END BOND
M  V30 END CTAB
M  END
