
     RDKit          3D

  0  0  0  0  0  0  0  0  0  0999 V3000
M  V30 BEGIN CTAB
M  V30 COUNTS 26 26 0 0 0
M  V30 BEGIN ATOM
M  V30 1 N 2.6447 -0.27835 -0.412008 0
M  V30 2 C 1.28752 -0.495305 -0.909323 0
M  V30 3 C 0.359592 0.151066 0.0609358 0
M  V30 4 N 0.690232 1.56869 0.111306 0
M  V30 5 C 0.558549 -0.42688 1.4463 0
M  V30 6 C -0.843535 -0.279294 2.02281 0
M  V30 7 O -1.67251 -0.548051 0.967207 0
M  V30 8 C -1.08408 -0.0746488 -0.191223 0
M  V30 9 C -1.38162 -1.04701 -1.29482 0
M  V30 10 C -1.72757 1.28829 -0.480978 0
M  V30 11 H 2.76553 -0.560751 0.566311 0
M  V30 12 H 3.37122 -0.560821 -1.06962 0
M  V30 13 H 1.21039 0.0246784 -1.88196 0
M  V30 14 H 1.1414 -1.5885 -1.01198 0
M  V30 15 H 0.875111 1.90084 -0.881741 0
M  V30 16 H 1.55849 1.64013 0.696911 0
M  V30 17 H 0.866967 -1.49046 1.42665 0
M  V30 18 H 1.30549 0.156998 2.00207 0
M  V30 19 H -0.920417 -1.04108 2.83353 0
M  V30 20 H -0.93664 0.73898 2.4286 0
M  V30 21 H -0.573589 -1.15756 -2.0294 0
M  V30 22 H -1.7302 -2.03214 -0.877769 0
M  V30 23 H -2.26419 -0.629093 -1.86167 0
M  V30 24 H -1.21917 1.70444 -1.38427 0
M  V30 25 H -1.48721 1.92418 0.372679 0
M  V30 26 H -2.79445 1.11167 -0.648546 0
M  V30 END ATOM
M  V30 BEGIN BOND
M  V30 1 1 1 2
M  V30 2 1 2 3
M  V30 3 1 3 4
M  V30 4 1 3 5
M  V30 5 1 5 6
M  V30 6 1 6 7
M  V30 7 1 7 8
M  V30 8 1 8 9
M  V30 9 1 8 10
M  V30 10 1 8 3
M  V30 11 1 1 11
M  V30 12 1 1 12
M  V30 13 1 2 13
M  V30 14 1 2 14
M  V30 15 1 4 15
M  V30 16 1 4 16
M  V30 17 1 5 17
M  V30 18 1 5 18
M  V30 19 1 6 19
M  V30 20 1 6 20
M  V30 21 1 9 21
M  V30 22 1 9 22
M  V30 23 1 9 23
M  V30 24 1 10 24
M  V30 25 1 10 25
M  V30 26 1 10 26
M  V30 END BOND
M  V30 END CTAB
M  END
