
     RDKit          3D

  0  0  0  0  0  0  0  0  0  0999 V3000
M  V30 BEGIN CTAB
M  V30 COUNTS 34 35 0 0 0
M  V30 BEGIN ATOM
M  V30 1 N -0.855961 2.76367 2.67427 0
M  V30 2 C -1.09283 2.12648 1.73798 0
M  V30 3 C -1.38143 1.29522 0.559371 0
M  V30 4 C -1.9963 1.94113 -0.397782 0
M  V30 5 N -2.35624 3.31445 -0.319887 0
M  V30 6 S -2.39961 1.01657 -1.87036 0
M  V30 7 C -2.47185 -0.671065 -1.28137 0
M  V30 8 C -1.79496 -1.01106 -0.207997 0
M  V30 9 C -0.956276 -0.119789 0.583826 0
M  V30 10 C 0.498538 -0.247808 0.407045 0
M  V30 11 C 1.1194 0.456312 -0.60335 0
M  V30 12 C 2.50227 0.369628 -0.832706 0
M  V30 13 C 3.1707 1.12966 -1.9235 0
M  V30 14 C 3.27735 -0.4374 -0.0345127 0
M  V30 15 C 2.67894 -1.13036 0.957996 0
M  V30 16 C 1.29471 -1.03835 1.18158 0
M  V30 17 C 0.784655 -1.83042 2.30859 0
M  V30 18 C -1.93547 -2.42949 0.202994 0
M  V30 19 N -2.06401 -3.54551 0.539257 0
M  V30 20 N -3.25462 -1.64981 -1.9632 0
M  V30 21 H -2.8663 3.63939 0.532443 0
M  V30 22 H -2.13376 3.98724 -1.06445 0
M  V30 23 H -1.14774 -0.462015 1.66885 0
M  V30 24 H 0.629221 1.12699 -1.29277 0
M  V30 25 H 2.41612 1.55592 -2.62248 0
M  V30 26 H 3.84586 0.4373 -2.44382 0
M  V30 27 H 3.74927 1.96577 -1.45929 0
M  V30 28 H 4.36754 -0.525264 -0.192024 0
M  V30 29 H 3.2826 -1.76452 1.5867 0
M  V30 30 H 1.63693 -2.02611 3.04842 0
M  V30 31 H 0.513434 -2.88584 2.02877 0
M  V30 32 H 0.0361543 -1.32144 2.92422 0
M  V30 33 H -4.21594 -1.87397 -1.6448 0
M  V30 34 H -2.88039 -2.1555 -2.788 0
M  V30 END ATOM
M  V30 BEGIN BOND
M  V30 1 3 1 2
M  V30 2 1 2 3
M  V30 3 2 3 4
M  V30 4 1 4 5
M  V30 5 1 4 6
M  V30 6 1 6 7
M  V30 7 2 7 8
M  V30 8 1 8 9
M  V30 9 1 9 10
M  V30 10 2 10 11
M  V30 11 1 11 12
M  V30 12 1 12 13
M  V30 13 2 12 14
M  V30 14 1 14 15
M  V30 15 2 15 16
M  V30 16 1 16 17
M  V30 17 1 8 18
M  V30 18 3 18 19
M  V30 19 1 7 20
M  V30 20 1 9 3
M  V30 21 1 16 10
M  V30 22 1 5 21
M  V30 23 1 5 22
M  V30 24 1 9 23
M  V30 25 1 11 24
M  V30 26 1 13 25
M  V30 27 1 13 26
M  V30 28 1 13 27
M  V30 29 1 14 28
M  V30 30 1 15 29
M  V30 31 1 17 30
M  V30 32 1 17 31
M  V30 33 1 17 32
M  V30 34 1 20 33
M  V30 35 1 20 34
M  V30 END BOND
M  V30 END CTAB
M  END
