
     RDKit          3D

  0  0  0  0  0  0  0  0  0  0999 V3000
M  V30 BEGIN CTAB
M  V30 COUNTS 22 22 0 0 0
M  V30 BEGIN ATOM
M  V30 1 N -2.91219 1.08632 0.38554 0
M  V30 2 C -1.57619 0.65041 0.388525 0
M  V30 3 C -0.595516 1.20118 1.19695 0
M  V30 4 C 0.694631 0.747252 1.16928 0
M  V30 5 F 1.65089 1.30373 1.97563 0
M  V30 6 C 1.05304 -0.284649 0.322888 0
M  V30 7 C 0.0935398 -0.845959 -0.488861 0
M  V30 8 C -1.20788 -0.389473 -0.462249 0
M  V30 9 C -2.21472 -1.0085 -1.34182 0
M  V30 10 S 2.72059 -0.839863 0.31635 0
M  V30 11 O 3.14396 -1.28694 1.67145 0
M  V30 12 O 2.85482 -1.90676 -0.724333 0
M  V30 13 N 3.73575 0.490853 -0.131762 0
M  V30 14 H -3.6299 0.617486 0.956983 0
M  V30 15 H -3.20471 1.89729 -0.198342 0
M  V30 16 H -0.867178 2.01659 1.86928 0
M  V30 17 H 0.40742 -1.66296 -1.14985 0
M  V30 18 H -2.95386 -0.269126 -1.72146 0
M  V30 19 H -1.69128 -1.52287 -2.1798 0
M  V30 20 H -2.70912 -1.81832 -0.759575 0
M  V30 21 H 3.97405 0.433753 -1.14944 0
M  V30 22 H 3.23384 1.39055 0.0546189 0
M  V30 END ATOM
M  V30 BEGIN BOND
M  V30 1 1 1 2
M  V30 2 2 2 3
M  V30 3 1 3 4
M  V30 4 1 4 5
M  V30 5 2 4 6
M  V30 6 1 6 7
M  V30 7 2 7 8
M  V30 8 1 8 9
M  V30 9 1 6 10
M  V30 10 2 10 11
M  V30 11 2 10 12
M  V30 12 1 10 13
M  V30 13 1 8 2
M  V30 14 1 1 14
M  V30 15 1 1 15
M  V30 16 1 3 16
M  V30 17 1 7 17
M  V30 18 1 9 18
M  V30 19 1 9 19
M  V30 20 1 9 20
M  V30 21 1 13 21
M  V30 22 1 13 22
M  V30 END BOND
M  V30 END CTAB
M  END
