
     RDKit          3D

  0  0  0  0  0  0  0  0  0  0999 V3000
M  V30 BEGIN CTAB
M  V30 COUNTS 22 23 0 0 0
M  V30 BEGIN ATOM
M  V30 1 N 3.73651 -0.136607 -0.035429 0
M  V30 2 C 2.31726 -0.213382 0.0141012 0
M  V30 3 C 1.66871 -1.38011 0.360308 0
M  V30 4 C 0.282671 -1.44453 0.405671 0
M  V30 5 C -0.503349 -0.347007 0.107136 0
M  V30 6 C -1.88024 -0.384992 0.14478 0
M  V30 7 N -2.55407 -1.57163 0.497163 0
M  V30 8 C -2.64557 0.722569 -0.157005 0
M  V30 9 C -2.01546 1.90938 -0.508593 0
M  V30 10 C -0.639236 1.92045 -0.538527 0
M  V30 11 C 0.146128 0.824494 -0.240452 0
M  V30 12 C 1.5318 0.880327 -0.283353 0
M  V30 13 H 4.28715 0.726857 0.138453 0
M  V30 14 H 4.26294 -1.00385 -0.261263 0
M  V30 15 H 2.29277 -2.24119 0.594386 0
M  V30 16 H -0.199802 -2.36908 0.679403 0
M  V30 17 H -3.20768 -2.09246 -0.119801 0
M  V30 18 H -2.38405 -1.9614 1.45674 0
M  V30 19 H -3.72284 0.722641 -0.136076 0
M  V30 20 H -2.61666 2.78562 -0.747426 0
M  V30 21 H -0.148298 2.83666 -0.810033 0
M  V30 22 H 1.99132 1.81725 -0.56018 0
M  V30 END ATOM
M  V30 BEGIN BOND
M  V30 1 1 1 2
M  V30 2 2 2 3
M  V30 3 1 3 4
M  V30 4 2 4 5
M  V30 5 1 5 6
M  V30 6 1 6 7
M  V30 7 2 6 8
M  V30 8 1 8 9
M  V30 9 2 9 10
M  V30 10 1 10 11
M  V30 11 2 11 12
M  V30 12 1 12 2
M  V30 13 1 11 5
M  V30 14 1 1 13
M  V30 15 1 1 14
M  V30 16 1 3 15
M  V30 17 1 4 16
M  V30 18 1 7 17
M  V30 19 1 7 18
M  V30 20 1 8 19
M  V30 21 1 9 20
M  V30 22 1 10 21
M  V30 23 1 12 22
M  V30 END BOND
M  V30 END CTAB
M  END
