
     RDKit          3D

  0  0  0  0  0  0  0  0  0  0999 V3000
M  V30 BEGIN CTAB
M  V30 COUNTS 31 32 0 0 0
M  V30 BEGIN ATOM
M  V30 1 N 4.16105 1.75719 -0.412268 0
M  V30 2 C 3.20873 0.787989 0.0124463 0
M  V30 3 C 3.6496 -0.270793 0.77885 0
M  V30 4 C 2.72031 -1.20238 1.18423 0
M  V30 5 C 1.40575 -1.0384 0.811047 0
M  V30 6 C 0.969245 0.0206115 0.0453867 0
M  V30 7 N 1.8995 0.920307 -0.339414 0
M  V30 8 C -0.455217 0.0990054 -0.295593 0 CFG=1
M  V30 9 C -0.804519 -0.766495 -1.50052 0
M  V30 10 O -1.00205 -2.09034 -1.1245 0
M  V30 11 C -2.10214 -2.22955 -0.291388 0
M  V30 12 C -2.50711 -0.930412 0.335471 0
M  V30 13 N -1.34385 -0.158399 0.791075 0
M  V30 14 S -1.98264 1.31806 1.45832 0
M  V30 15 O -0.859094 2.19789 1.93881 0
M  V30 16 O -2.8596 1.02959 2.64093 0
M  V30 17 N -2.89099 2.19822 0.310226 0
M  V30 18 H 3.91869 2.36838 -1.20315 0
M  V30 19 H 5.06938 1.84651 0.0577779 0
M  V30 20 H 4.70952 -0.35222 1.0473 0
M  V30 21 H 3.06047 -2.03342 1.78457 0
M  V30 22 H 0.688611 -1.77115 1.13272 0
M  V30 23 H -0.645576 1.15839 -0.638621 0
M  V30 24 H -1.70735 -0.326357 -1.96224 0
M  V30 25 H 0.0241302 -0.718311 -2.21849 0
M  V30 26 H -2.96873 -2.65191 -0.804286 0
M  V30 27 H -1.77843 -2.9051 0.551941 0
M  V30 28 H -3.05299 -0.329053 -0.419652 0
M  V30 29 H -3.15185 -1.1197 1.21411 0
M  V30 30 H -2.80647 3.20174 0.501549 0
M  V30 31 H -2.56636 1.9901 -0.671598 0
M  V30 END ATOM
M  V30 BEGIN BOND
M  V30 1 1 1 2
M  V30 2 2 2 3
M  V30 3 1 3 4
M  V30 4 2 4 5
M  V30 5 1 5 6
M  V30 6 2 6 7
M  V30 7 1 6 8
M  V30 8 1 8 9
M  V30 9 1 9 10
M  V30 10 1 10 11
M  V30 11 1 11 12
M  V30 12 1 12 13
M  V30 13 1 13 14
M  V30 14 2 14 15
M  V30 15 2 14 16
M  V30 16 1 14 17
M  V30 17 1 7 2
M  V30 18 1 13 8
M  V30 19 1 1 18
M  V30 20 1 1 19
M  V30 21 1 3 20
M  V30 22 1 4 21
M  V30 23 1 5 22
M  V30 24 1 8 23 CFG=3
M  V30 25 1 9 24
M  V30 26 1 9 25
M  V30 27 1 11 26
M  V30 28 1 11 27
M  V30 29 1 12 28
M  V30 30 1 12 29
M  V30 31 1 17 30
M  V30 32 1 17 31
M  V30 END BOND
M  V30 END CTAB
M  END
