
     RDKit          3D

  0  0  0  0  0  0  0  0  0  0999 V3000
M  V30 BEGIN CTAB
M  V30 COUNTS 34 36 0 0 0
M  V30 BEGIN ATOM
M  V30 1 N 3.8145 2.22197 -0.0373688 0
M  V30 2 C 2.40675 1.8002 0.0113026 0
M  V30 3 C 2.38747 0.296081 -0.0615993 0
M  V30 4 C 3.55144 -0.432667 -0.154822 0
M  V30 5 C 3.52319 -1.81281 -0.221223 0
M  V30 6 C 2.34158 -2.50157 -0.196764 0
M  V30 7 C 1.16049 -1.78329 -0.103212 0
M  V30 8 C -0.0714259 -2.40568 -0.0729958 0
M  V30 9 C -1.26445 -1.72049 0.0195381 0
M  V30 10 C -2.49109 -2.36829 0.048259 0
M  V30 11 C -3.68596 -1.6823 0.140936 0
M  V30 12 C -3.62023 -0.305158 0.205348 0
M  V30 13 C -2.40673 0.358313 0.178044 0
M  V30 14 C -2.31491 1.84212 0.246359 0
M  V30 15 N -3.62977 2.45142 0.341247 0
M  V30 16 C -1.21518 -0.332432 0.0852947 0
M  V30 17 C 0.0091491 0.305951 0.056234 0
M  V30 18 C 1.19846 -0.401876 -0.0372261 0
M  V30 19 H 4.23581 2.00337 -0.947189 0
M  V30 20 H 3.83591 3.2476 0.187377 0
M  V30 21 H 1.95612 2.12117 0.965444 0
M  V30 22 H 1.90376 2.26053 -0.847753 0
M  V30 23 H 4.4922 0.124514 -0.173861 0
M  V30 24 H 4.43498 -2.37489 -0.293828 0
M  V30 25 H 2.29715 -3.59597 -0.248341 0
M  V30 26 H -0.0892049 -3.4939 -0.125573 0
M  V30 27 H -2.50283 -3.43283 -0.00345413 0
M  V30 28 H -4.64875 -2.16689 0.164649 0
M  V30 29 H -4.5143 0.310057 0.279697 0
M  V30 30 H -1.711 2.26655 -0.569537 0
M  V30 31 H -1.79077 2.08405 1.19558 0
M  V30 32 H -4.11955 2.24823 -0.563193 0
M  V30 33 H -3.47482 3.48252 0.422965 0
M  V30 34 H 0.0019881 1.38639 0.109665 0
M  V30 END ATOM
M  V30 BEGIN BOND
M  V30 1 1 1 2
M  V30 2 1 2 3
M  V30 3 2 3 4
M  V30 4 1 4 5
M  V30 5 2 5 6
M  V30 6 1 6 7
M  V30 7 2 7 8
M  V30 8 1 8 9
M  V30 9 2 9 10
M  V30 10 1 10 11
M  V30 11 2 11 12
M  V30 12 1 12 13
M  V30 13 1 13 14
M  V30 14 1 14 15
M  V30 15 2 13 16
M  V30 16 1 16 17
M  V30 17 2 17 18
M  V30 18 1 18 3
M  V30 19 1 18 7
M  V30 20 1 16 9
M  V30 21 1 1 19
M  V30 22 1 1 20
M  V30 23 1 2 21
M  V30 24 1 2 22
M  V30 25 1 4 23
M  V30 26 1 5 24
M  V30 27 1 6 25
M  V30 28 1 8 26
M  V30 29 1 10 27
M  V30 30 1 11 28
M  V30 31 1 12 29
M  V30 32 1 14 30
M  V30 33 1 14 31
M  V30 34 1 15 32
M  V30 35 1 15 33
M  V30 36 1 17 34
M  V30 END BOND
M  V30 END CTAB
M  END
