
     RDKit          3D

  0  0  0  0  0  0  0  0  0  0999 V3000
M  V30 BEGIN CTAB
M  V30 COUNTS 43 45 0 0 0
M  V30 BEGIN ATOM
M  V30 1 N -6.25117 -2.17138 1.843 0
M  V30 2 C -5.52645 -1.17276 1.15842 0
M  V30 3 C -6.21038 -0.17798 0.466668 0
M  V30 4 C -5.47836 0.790985 -0.184451 0
M  V30 5 C -4.08808 0.781634 -0.164114 0
M  V30 6 C -3.4163 -0.211873 0.529225 0
M  V30 7 C -4.131 -1.17623 1.17905 0
M  V30 8 C -2.05517 -0.177154 0.524459 0
M  V30 9 O -1.41272 -1.04592 1.13533 0
M  V30 10 N -1.33245 0.789369 -0.13083 0
M  V30 11 C -1.97345 1.73692 -0.79016 0
M  V30 12 N -3.34477 1.69644 -0.779789 0
M  V30 13 C -1.32048 2.82085 -1.48376 0
M  V30 14 F -2.35627 3.73896 -1.83119 0
M  V30 15 F -0.492348 3.56319 -0.62888 0
M  V30 16 F -0.687613 2.59208 -2.64985 0
M  V30 17 C 0.0767866 0.697842 -0.0287884 0
M  V30 18 C 0.738016 -0.242837 -1.04203 0
M  V30 19 C 2.19795 -0.295057 -0.848492 0
M  V30 20 C 3.11347 0.57922 -1.39332 0
M  V30 21 C 4.48527 0.44981 -1.14287 0
M  V30 22 C 4.93588 -0.579665 -0.32603 0
M  V30 23 C 4.03038 -1.44747 0.221605 0
M  V30 24 C 2.69997 -1.30417 -0.0358273 0
M  V30 25 S 6.63261 -0.829318 0.0172782 0
M  V30 26 O 7.03326 -2.26273 -0.173107 0
M  V30 27 O 7.47877 0.00259604 -0.951047 0
M  V30 28 N 7.02749 -0.24561 1.57942 0
M  V30 29 H -5.89804 -3.14145 1.87102 0
M  V30 30 H -7.13539 -1.91537 2.31731 0
M  V30 31 H -7.28047 -0.139333 0.414086 0
M  V30 32 H -5.99458 1.57622 -0.72562 0
M  V30 33 H -3.63806 -1.95614 1.70759 0
M  V30 34 H 0.655769 1.6159 -0.153395 0
M  V30 35 H 0.342278 0.226652 0.972807 0
M  V30 36 H 0.358375 -1.28921 -0.931063 0
M  V30 37 H 0.57826 0.15955 -2.07297 0
M  V30 38 H 2.75424 1.38286 -2.02818 0
M  V30 39 H 5.20304 1.14343 -1.5788 0
M  V30 40 H 4.38834 -2.25778 0.861608 0
M  V30 41 H 2.01716 -2.03345 0.445413 0
M  V30 42 H 6.69402 -0.9353 2.32209 0
M  V30 43 H 6.58223 0.663668 1.74455 0
M  V30 END ATOM
M  V30 BEGIN BOND
M  V30 1 1 1 2
M  V30 2 2 2 3
M  V30 3 1 3 4
M  V30 4 2 4 5
M  V30 5 1 5 6
M  V30 6 2 6 7
M  V30 7 1 6 8
M  V30 8 2 8 9
M  V30 9 1 8 10
M  V30 10 1 10 11
M  V30 11 2 11 12
M  V30 12 1 11 13
M  V30 13 1 13 14
M  V30 14 1 13 15
M  V30 15 1 13 16
M  V30 16 1 10 17
M  V30 17 1 17 18
M  V30 18 1 18 19
M  V30 19 2 19 20
M  V30 20 1 20 21
M  V30 21 2 21 22
M  V30 22 1 22 23
M  V30 23 2 23 24
M  V30 24 1 22 25
M  V30 25 2 25 26
M  V30 26 2 25 27
M  V30 27 1 25 28
M  V30 28 1 7 2
M  V30 29 1 24 19
M  V30 30 1 12 5
M  V30 31 1 1 29
M  V30 32 1 1 30
M  V30 33 1 3 31
M  V30 34 1 4 32
M  V30 35 1 7 33
M  V30 36 1 17 34
M  V30 37 1 17 35
M  V30 38 1 18 36
M  V30 39 1 18 37
M  V30 40 1 20 38
M  V30 41 1 21 39
M  V30 42 1 23 40
M  V30 43 1 24 41
M  V30 44 1 28 42
M  V30 45 1 28 43
M  V30 END BOND
M  V30 END CTAB
M  END
