
     RDKit          3D

  0  0  0  0  0  0  0  0  0  0999 V3000
M  V30 BEGIN CTAB
M  V30 COUNTS 26 26 0 0 0
M  V30 BEGIN ATOM
M  V30 1 N 3.37327 0.264813 -0.386379 0
M  V30 2 C 1.97279 0.41991 0.0246189 0
M  V30 3 C 1.12076 -0.686633 -0.545016 0
M  V30 4 C -0.331241 -0.555603 -0.13631 0
M  V30 5 N -1.00792 -1.70299 -0.772085 0
M  V30 6 C -0.571507 -0.643788 1.31376 0
M  V30 7 C -1.34762 0.497998 1.91244 0
M  V30 8 S -2.93017 0.585848 0.983621 0
M  V30 9 C -2.36205 0.804402 -0.749265 0
M  V30 10 C -0.864694 0.659622 -0.82783 0
M  V30 11 H 3.53773 0.770039 -1.30864 0
M  V30 12 H 3.90334 0.86699 0.315095 0
M  V30 13 H 1.94305 0.348553 1.12555 0
M  V30 14 H 1.68099 1.4141 -0.301314 0
M  V30 15 H 1.18955 -0.588994 -1.65801 0
M  V30 16 H 1.53824 -1.68803 -0.31579 0
M  V30 17 H -0.620522 -1.74956 -1.75414 0
M  V30 18 H -0.612148 -2.55491 -0.289235 0
M  V30 19 H 0.408643 -0.770441 1.85447 0
M  V30 20 H -1.14135 -1.57848 1.60364 0
M  V30 21 H -0.860717 1.47776 1.77884 0
M  V30 22 H -1.57279 0.249974 2.95785 0
M  V30 23 H -2.59218 1.86331 -0.990463 0
M  V30 24 H -2.9048 0.174047 -1.44736 0
M  V30 25 H -0.615029 0.5515 -1.90626 0
M  V30 26 H -0.333616 1.57055 -0.481782 0
M  V30 END ATOM
M  V30 BEGIN BOND
M  V30 1 1 1 2
M  V30 2 1 2 3
M  V30 3 1 3 4
M  V30 4 1 4 5
M  V30 5 1 4 6
M  V30 6 1 6 7
M  V30 7 1 7 8
M  V30 8 1 8 9
M  V30 9 1 9 10
M  V30 10 1 10 4
M  V30 11 1 1 11
M  V30 12 1 1 12
M  V30 13 1 2 13
M  V30 14 1 2 14
M  V30 15 1 3 15
M  V30 16 1 3 16
M  V30 17 1 5 17
M  V30 18 1 5 18
M  V30 19 1 6 19
M  V30 20 1 6 20
M  V30 21 1 7 21
M  V30 22 1 7 22
M  V30 23 1 9 23
M  V30 24 1 9 24
M  V30 25 1 10 25
M  V30 26 1 10 26
M  V30 END BOND
M  V30 END CTAB
M  END
