
     RDKit          3D

  0  0  0  0  0  0  0  0  0  0999 V3000
M  V30 BEGIN CTAB
M  V30 COUNTS 47 48 0 0 0
M  V30 BEGIN ATOM
M  V30 1 C -3.15773 -2.60145 -1.64144 0
M  V30 2 C -3.06442 -2.40356 -0.130266 0
M  V30 3 C -4.50373 -2.55958 0.383389 0
M  V30 4 C -2.67043 -0.990103 0.11971 0
M  V30 5 N -1.41588 -0.603709 -0.44493 0
M  V30 6 C -0.976754 0.740304 -0.249756 0
M  V30 7 C 0.244594 1.14099 -0.795102 0
M  V30 8 S 1.21015 -0.0051958 -1.7252 0
M  V30 9 C 2.30618 -0.993889 -0.745976 0
M  V30 10 C 2.42109 -0.959573 0.614626 0
M  V30 11 C 3.3079 -1.7707 1.28976 0
M  V30 12 C 4.12922 -2.66363 0.621527 0
M  V30 13 N 5.01732 -3.46726 1.36266 0
M  V30 14 C 4.02133 -2.70692 -0.753225 0
M  V30 15 C 3.13038 -1.89021 -1.41659 0
M  V30 16 C 0.649537 2.43723 -0.59785 0
M  V30 17 C -0.118941 3.34775 0.124845 0
M  V30 18 C -1.32121 2.95482 0.662559 0
M  V30 19 C -1.72412 1.65646 0.462137 0
M  V30 20 C -2.13222 3.90985 1.42128 0
M  V30 21 O -1.75384 5.2086 1.6354 0
M  V30 22 O -3.23542 3.5196 1.90317 0
M  V30 23 S 2.12969 3.02453 -1.25873 0
M  V30 24 N 2.39429 4.69425 -0.891953 0
M  V30 25 O 2.21365 2.87561 -2.74955 0
M  V30 26 O 3.29007 2.27566 -0.677079 0
M  V30 27 H -3.93347 -3.3378 -1.89084 0
M  V30 28 H -3.40911 -1.63485 -2.12907 0
M  V30 29 H -2.14627 -2.88289 -2.01059 0
M  V30 30 H -2.40826 -3.14658 0.347462 0
M  V30 31 H -4.45528 -2.32534 1.46374 0
M  V30 32 H -5.06251 -1.70841 -0.0950788 0
M  V30 33 H -4.928 -3.53445 0.144593 0
M  V30 34 H -3.45486 -0.341969 -0.363066 0
M  V30 35 H -2.73505 -0.737602 1.2129 0
M  V30 36 H -0.83036 -1.27118 -0.985119 0
M  V30 37 H 1.7968 -0.279695 1.15293 0
M  V30 38 H 3.36095 -1.70655 2.37277 0
M  V30 39 H 4.686 -4.33343 1.84311 0
M  V30 40 H 6.03022 -3.24223 1.46659 0
M  V30 41 H 4.6704 -3.41244 -1.26823 0
M  V30 42 H 3.09268 -1.9757 -2.50729 0
M  V30 43 H 0.202413 4.37356 0.279747 0
M  V30 44 H -2.67115 1.30561 0.873512 0
M  V30 45 H -2.44836 5.93643 1.54353 0
M  V30 46 H 1.56078 5.26917 -1.14086 0
M  V30 47 H 2.69175 4.81648 0.102298 0
M  V30 END ATOM
M  V30 BEGIN BOND
M  V30 1 1 1 2
M  V30 2 1 2 3
M  V30 3 1 2 4
M  V30 4 1 4 5
M  V30 5 1 5 6
M  V30 6 2 6 7
M  V30 7 1 7 8
M  V30 8 1 8 9
M  V30 9 2 9 10
M  V30 10 1 10 11
M  V30 11 2 11 12
M  V30 12 1 12 13
M  V30 13 1 12 14
M  V30 14 2 14 15
M  V30 15 1 7 16
M  V30 16 2 16 17
M  V30 17 1 17 18
M  V30 18 2 18 19
M  V30 19 1 18 20
M  V30 20 1 20 21
M  V30 21 2 20 22
M  V30 22 1 16 23
M  V30 23 1 23 24
M  V30 24 2 23 25
M  V30 25 2 23 26
M  V30 26 1 19 6
M  V30 27 1 15 9
M  V30 28 1 1 27
M  V30 29 1 1 28
M  V30 30 1 1 29
M  V30 31 1 2 30
M  V30 32 1 3 31
M  V30 33 1 3 32
M  V30 34 1 3 33
M  V30 35 1 4 34
M  V30 36 1 4 35
M  V30 37 1 5 36
M  V30 38 1 10 37
M  V30 39 1 11 38
M  V30 40 1 13 39
M  V30 41 1 13 40
M  V30 42 1 14 41
M  V30 43 1 15 42
M  V30 44 1 17 43
M  V30 45 1 19 44
M  V30 46 1 21 45
M  V30 47 1 24 46
M  V30 48 1 24 47
M  V30 END BOND
M  V30 END CTAB
M  END
