
     RDKit          3D

  0  0  0  0  0  0  0  0  0  0999 V3000
M  V30 BEGIN CTAB
M  V30 COUNTS 22 22 0 0 0
M  V30 BEGIN ATOM
M  V30 1 C -3.36931 0.457801 0.138856 0
M  V30 2 C -1.9314 0.283367 0.63876 0
M  V30 3 C -1.22526 -0.564741 -0.368674 0
M  V30 4 C 0.193797 -0.835429 -0.0410102 0
M  V30 5 N 0.787616 -1.93363 0.442344 0
M  V30 6 C 2.09994 -1.71463 0.58042 0
M  V30 7 N 2.36577 -0.460874 0.183387 0
M  V30 8 C 1.20256 0.0900676 -0.200615 0
M  V30 9 N 1.03774 1.41777 -0.696086 0
M  V30 10 N 3.62203 0.188916 0.163034 0
M  V30 11 H -3.34089 0.445785 -0.989802 0
M  V30 12 H -3.82573 1.38927 0.517031 0
M  V30 13 H -3.95548 -0.457661 0.415223 0
M  V30 14 H -1.47171 1.26802 0.803928 0
M  V30 15 H -1.99232 -0.245276 1.61236 0
M  V30 16 H -1.32589 -0.0935615 -1.38167 0
M  V30 17 H -1.80282 -1.52863 -0.436517 0
M  V30 18 H 2.87359 -2.40743 0.949659 0
M  V30 19 H 0.0963142 1.74317 -1.02261 0
M  V30 20 H 1.81935 2.0875 -0.74873 0
M  V30 21 H 4.47236 -0.316712 -0.126277 0
M  V30 22 H 3.66974 1.18691 0.447249 0
M  V30 END ATOM
M  V30 BEGIN BOND
M  V30 1 1 1 2
M  V30 2 1 2 3
M  V30 3 1 3 4
M  V30 4 1 4 5
M  V30 5 2 5 6
M  V30 6 1 6 7
M  V30 7 1 7 8
M  V30 8 1 8 9
M  V30 9 1 7 10
M  V30 10 2 8 4
M  V30 11 1 1 11
M  V30 12 1 1 12
M  V30 13 1 1 13
M  V30 14 1 2 14
M  V30 15 1 2 15
M  V30 16 1 3 16
M  V30 17 1 3 17
M  V30 18 1 6 18
M  V30 19 1 9 19
M  V30 20 1 9 20
M  V30 21 1 10 21
M  V30 22 1 10 22
M  V30 END BOND
M  V30 END CTAB
M  END
