
     RDKit          3D

  0  0  0  0  0  0  0  0  0  0999 V3000
M  V30 BEGIN CTAB
M  V30 COUNTS 22 22 0 0 0
M  V30 BEGIN ATOM
M  V30 1 N -3.64094 0.160682 -0.24712 0
M  V30 2 C -2.21164 0.204865 -0.183148 0
M  V30 3 C -1.50365 1.3404 -0.52251 0
M  V30 4 C -0.126021 1.38901 -0.462843 0
M  V30 5 C 0.614925 0.269088 -0.0488887 0
M  V30 6 C -0.0809103 -0.857432 0.28813 0
M  V30 7 C -1.48839 -0.890837 0.221758 0
M  V30 8 C 0.649139 -2.06295 0.729949 0
M  V30 9 C 2.06859 0.340678 0.00753048 0
M  V30 10 N 2.86199 -0.57146 0.355407 0
M  V30 11 N 2.70621 1.59326 -0.374841 0
M  V30 12 H -4.24745 0.993066 -0.144477 0
M  V30 13 H -4.09383 -0.757634 -0.405298 0
M  V30 14 H -2.06794 2.20055 -0.840187 0
M  V30 15 H 0.439238 2.28203 -0.729288 0
M  V30 16 H -1.99485 -1.80568 0.498673 0
M  V30 17 H -0.122591 -2.88292 0.915412 0
M  V30 18 H 1.29163 -2.52519 -0.0466362 0
M  V30 19 H 1.19481 -1.95747 1.67614 0
M  V30 20 H 3.87446 -0.459145 0.373878 0
M  V30 21 H 3.34729 1.52671 -1.18929 0
M  V30 22 H 2.5299 2.47037 0.127646 0
M  V30 END ATOM
M  V30 BEGIN BOND
M  V30 1 1 1 2
M  V30 2 2 2 3
M  V30 3 1 3 4
M  V30 4 2 4 5
M  V30 5 1 5 6
M  V30 6 2 6 7
M  V30 7 1 6 8
M  V30 8 1 5 9
M  V30 9 2 9 10 CFG=2
M  V30 10 1 9 11
M  V30 11 1 7 2
M  V30 12 1 1 12
M  V30 13 1 1 13
M  V30 14 1 3 14
M  V30 15 1 4 15
M  V30 16 1 7 16
M  V30 17 1 8 17
M  V30 18 1 8 18
M  V30 19 1 8 19
M  V30 20 1 10 20
M  V30 21 1 11 21
M  V30 22 1 11 22
M  V30 END BOND
M  V30 END CTAB
M  END
