
     RDKit          3D

  0  0  0  0  0  0  0  0  0  0999 V3000
M  V30 BEGIN CTAB
M  V30 COUNTS 57 60 0 0 0
M  V30 BEGIN ATOM
M  V30 1 C -6.22514 -2.25375 -2.73847 0
M  V30 2 O -5.81478 -1.01928 -2.19197 0
M  V30 3 C -4.78133 -0.950651 -1.28075 0
M  V30 4 C -4.08334 -2.06639 -0.843205 0
M  V30 5 C -3.05908 -1.94653 0.06783 0
M  V30 6 C -2.71163 -0.722427 0.557999 0
M  V30 7 C -3.42543 0.394307 0.106839 0
M  V30 8 O -3.05193 1.62519 0.620786 0
M  V30 9 C -4.44258 0.303971 -0.793479 0
M  V30 10 O -5.09777 1.46325 -1.18705 0
M  V30 11 C -6.22716 1.86328 -0.429161 0
M  V30 12 C -1.6387 -0.528123 1.52288 0
M  V30 13 C -1.88342 -0.568439 2.88452 0
M  V30 14 C -3.27655 -0.815849 3.36112 0
M  V30 15 C -0.877412 -0.386605 3.80153 0
M  V30 16 O -1.04907 -0.414184 5.03954 0
M  V30 17 N 0.386546 -0.162116 3.34712 0
M  V30 18 C 0.684539 -0.112146 2.04254 0
M  V30 19 C -0.349454 -0.298983 1.11891 0
M  V30 20 N -0.107312 -0.258931 -0.278989 0
M  V30 21 C 2.03325 0.126984 1.55566 0
M  V30 22 N 2.2273 0.158535 0.219059 0
M  V30 23 C 3.45664 0.376051 -0.318168 0
M  V30 24 C 4.56518 0.575012 0.470765 0
M  V30 25 C 4.40766 0.550004 1.82992 0
M  V30 26 C 3.1286 0.323599 2.34551 0
M  V30 27 C 5.88558 0.808718 -0.115922 0
M  V30 28 O 6.90068 0.990958 0.639729 0
M  V30 29 C 6.02867 0.831084 -1.56522 0
M  V30 30 O 7.24732 1.0466 -2.18994 0
M  V30 31 C 8.44247 1.30155 -1.51714 0
M  V30 32 C 4.94573 0.63673 -2.33696 0
M  V30 33 N 5.10747 0.662504 -3.75039 0
M  V30 34 C 3.62841 0.403509 -1.77541 0
M  V30 35 O 2.64729 0.227291 -2.53749 0
M  V30 36 H -5.34817 -2.88361 -2.98501 0
M  V30 37 H -6.80412 -2.05129 -3.6652 0
M  V30 38 H -6.85505 -2.83808 -2.02463 0
M  V30 39 H -4.34195 -3.03939 -1.21752 0
M  V30 40 H -2.50047 -2.82693 0.419874 0
M  V30 41 H -3.54977 2.44688 0.31268 0
M  V30 42 H -6.90721 0.990018 -0.34644 0
M  V30 43 H -5.91015 2.11574 0.601478 0
M  V30 44 H -6.75521 2.71485 -0.89675 0
M  V30 45 H -3.24208 -1.09358 4.44341 0
M  V30 46 H -3.9454 0.0344554 3.1732 0
M  V30 47 H -3.70517 -1.72012 2.84916 0
M  V30 48 H 1.17534 -0.0196481 4.03166 0
M  V30 49 H 0.0818657 -1.15748 -0.770533 0
M  V30 50 H -0.111011 0.625444 -0.829164 0
M  V30 51 H 5.26786 0.704446 2.45142 0
M  V30 52 H 3.02124 0.306802 3.41274 0
M  V30 53 H 8.37727 2.21365 -0.901592 0
M  V30 54 H 9.28093 1.47006 -2.23639 0
M  V30 55 H 8.76735 0.457069 -0.870323 0
M  V30 56 H 5.85266 1.28123 -4.14492 0
M  V30 57 H 4.52997 0.104749 -4.40223 0
M  V30 END ATOM
M  V30 BEGIN BOND
M  V30 1 1 1 2
M  V30 2 1 2 3
M  V30 3 2 3 4
M  V30 4 1 4 5
M  V30 5 2 5 6
M  V30 6 1 6 7
M  V30 7 1 7 8
M  V30 8 2 7 9
M  V30 9 1 9 10
M  V30 10 1 10 11
M  V30 11 1 6 12
M  V30 12 2 12 13
M  V30 13 1 13 14
M  V30 14 1 13 15
M  V30 15 2 15 16
M  V30 16 1 15 17
M  V30 17 1 17 18
M  V30 18 2 18 19
M  V30 19 1 19 20
M  V30 20 1 18 21
M  V30 21 2 21 22
M  V30 22 1 22 23
M  V30 23 2 23 24
M  V30 24 1 24 25
M  V30 25 2 25 26
M  V30 26 1 24 27
M  V30 27 2 27 28
M  V30 28 1 27 29
M  V30 29 1 29 30
M  V30 30 1 30 31
M  V30 31 2 29 32
M  V30 32 1 32 33
M  V30 33 1 32 34
M  V30 34 2 34 35
M  V30 35 1 9 3
M  V30 36 1 19 12
M  V30 37 1 26 21
M  V30 38 1 34 23
M  V30 39 1 1 36
M  V30 40 1 1 37
M  V30 41 1 1 38
M  V30 42 1 4 39
M  V30 43 1 5 40
M  V30 44 1 8 41
M  V30 45 1 11 42
M  V30 46 1 11 43
M  V30 47 1 11 44
M  V30 48 1 14 45
M  V30 49 1 14 46
M  V30 50 1 14 47
M  V30 51 1 17 48
M  V30 52 1 20 49
M  V30 53 1 20 50
M  V30 54 1 25 51
M  V30 55 1 26 52
M  V30 56 1 31 53
M  V30 57 1 31 54
M  V30 58 1 31 55
M  V30 59 1 33 56
M  V30 60 1 33 57
M  V30 END BOND
M  V30 END CTAB
M  END
