
     RDKit          3D

  0  0  0  0  0  0  0  0  0  0999 V3000
M  V30 BEGIN CTAB
M  V30 COUNTS 24 25 0 0 0
M  V30 BEGIN ATOM
M  V30 1 N 4.78145 0.971772 0.191152 0
M  V30 2 C 3.39563 0.668939 0.328179 0
M  V30 3 N 2.59242 0.949723 1.3571 0
M  V30 4 O 1.38984 0.492926 1.07227 0
M  V30 5 C 1.38089 -0.0684364 -0.0909213 0
M  V30 6 N 2.63032 0.0288837 -0.58006 0
M  V30 7 C 0.263659 -0.721093 -0.830569 0 CFG=1
M  V30 8 C -1.04246 -0.459774 -0.181077 0
M  V30 9 C -1.66269 -1.41416 0.599345 0
M  V30 10 C -2.87179 -1.21889 1.22103 0
M  V30 11 C -3.51003 -0.017184 1.06839 0
M  V30 12 C -2.92534 0.966107 0.296101 0
M  V30 13 C -1.6952 0.747616 -0.327726 0
M  V30 14 N 0.276603 -0.277474 -2.21248 0
M  V30 15 H 5.09592 1.90069 0.500084 0
M  V30 16 H 5.45042 0.278317 -0.206886 0
M  V30 17 H 0.435403 -1.82294 -0.859967 0
M  V30 18 H -1.15551 -2.36519 0.718924 0
M  V30 19 H -3.35384 -1.98084 1.83644 0
M  V30 20 H -4.46551 0.145797 1.55586 0
M  V30 21 H -3.44171 1.90438 0.187484 0
M  V30 22 H -1.28238 1.53925 -0.915639 0
M  V30 23 H 0.00946886 0.706789 -2.32977 0
M  V30 24 H -0.295559 -0.955218 -2.7516 0
M  V30 END ATOM
M  V30 BEGIN BOND
M  V30 1 1 1 2
M  V30 2 2 2 3
M  V30 3 1 3 4
M  V30 4 1 4 5
M  V30 5 2 5 6
M  V30 6 1 5 7
M  V30 7 1 7 8
M  V30 8 2 8 9
M  V30 9 1 9 10
M  V30 10 2 10 11
M  V30 11 1 11 12
M  V30 12 2 12 13
M  V30 13 1 7 14
M  V30 14 1 6 2
M  V30 15 1 13 8
M  V30 16 1 1 15
M  V30 17 1 1 16
M  V30 18 1 7 17 CFG=3
M  V30 19 1 9 18
M  V30 20 1 10 19
M  V30 21 1 11 20
M  V30 22 1 12 21
M  V30 23 1 13 22
M  V30 24 1 14 23
M  V30 25 1 14 24
M  V30 END BOND
M  V30 END CTAB
M  END
