
     RDKit          3D

  0  0  0  0  0  0  0  0  0  0999 V3000
M  V30 BEGIN CTAB
M  V30 COUNTS 45 47 0 0 0
M  V30 BEGIN ATOM
M  V30 1 N -3.27818 4.16849 1.63133 0
M  V30 2 C -2.84459 2.88828 1.19839 0
M  V30 3 C -1.90433 2.16081 1.92115 0
M  V30 4 C -1.48338 0.931645 1.51308 0
M  V30 5 C -1.97747 0.314726 0.323973 0
M  V30 6 C -2.89381 1.04884 -0.362222 0
M  V30 7 C -3.33137 2.31511 0.053889 0
M  V30 8 N -1.45058 -0.938987 -0.0363017 0
M  V30 9 C -0.00634974 -1.05134 -0.235133 0
M  V30 10 S 0.51033 -2.52394 -0.688087 0
M  V30 11 N 0.859454 0.0178077 -0.111739 0
M  V30 12 C 2.26295 0.124031 -0.220558 0
M  V30 13 C 3.13624 -0.928769 -0.376907 0
M  V30 14 C 4.52474 -0.75033 -0.459768 0
M  V30 15 C 5.07569 0.500603 -0.386533 0
M  V30 16 C 4.21077 1.54896 -0.230669 0
M  V30 17 C 2.85342 1.40116 -0.147529 0
M  V30 18 N 2.01469 2.53718 0.0130689 0
M  V30 19 C 6.55928 0.706722 -0.473592 0
M  V30 20 C -2.25974 -2.07527 -0.347972 0
M  V30 21 C -1.96958 -3.29146 0.298673 0
M  V30 22 C -2.59047 -4.47742 0.069636 0
M  V30 23 C -3.59877 -4.47903 -0.886711 0
M  V30 24 C -3.91859 -3.31699 -1.5439 0
M  V30 25 C -3.24116 -2.10302 -1.27148 0
M  V30 26 H -3.40361 4.43478 2.6175 0
M  V30 27 H -3.4806 4.88179 0.877023 0
M  V30 28 H -1.47602 2.55792 2.84031 0
M  V30 29 H -0.759608 0.386688 2.08584 0
M  V30 30 H -3.31474 0.69737 -1.28674 0
M  V30 31 H -4.07038 2.85435 -0.540542 0
M  V30 32 H 0.382419 0.962762 0.0693649 0
M  V30 33 H 2.79782 -1.95046 -0.432702 0
M  V30 34 H 5.18332 -1.59509 -0.582637 0
M  V30 35 H 4.61766 2.55048 -0.169385 0
M  V30 36 H 1.64424 2.99194 -0.831264 0
M  V30 37 H 1.80479 2.86906 0.980004 0
M  V30 38 H 6.95843 0.392945 -1.44126 0
M  V30 39 H 6.75453 1.74999 -0.222934 0
M  V30 40 H 6.99077 0.0956951 0.371213 0
M  V30 41 H -1.21002 -3.2617 1.05543 0
M  V30 42 H -2.32278 -5.37916 0.597506 0
M  V30 43 H -4.1043 -5.41635 -1.08115 0
M  V30 44 H -4.70001 -3.30385 -2.2887 0
M  V30 45 H -3.55111 -1.24696 -1.861 0
M  V30 END ATOM
M  V30 BEGIN BOND
M  V30 1 1 1 2
M  V30 2 2 2 3
M  V30 3 1 3 4
M  V30 4 2 4 5
M  V30 5 1 5 6
M  V30 6 2 6 7
M  V30 7 1 5 8
M  V30 8 1 8 9
M  V30 9 2 9 10
M  V30 10 1 9 11
M  V30 11 1 11 12
M  V30 12 2 12 13
M  V30 13 1 13 14
M  V30 14 2 14 15
M  V30 15 1 15 16
M  V30 16 2 16 17
M  V30 17 1 17 18
M  V30 18 1 15 19
M  V30 19 1 8 20
M  V30 20 2 20 21
M  V30 21 1 21 22
M  V30 22 2 22 23
M  V30 23 1 23 24
M  V30 24 2 24 25
M  V30 25 1 7 2
M  V30 26 1 17 12
M  V30 27 1 25 20
M  V30 28 1 1 26
M  V30 29 1 1 27
M  V30 30 1 3 28
M  V30 31 1 4 29
M  V30 32 1 6 30
M  V30 33 1 7 31
M  V30 34 1 11 32
M  V30 35 1 13 33
M  V30 36 1 14 34
M  V30 37 1 16 35
M  V30 38 1 18 36
M  V30 39 1 18 37
M  V30 40 1 19 38
M  V30 41 1 19 39
M  V30 42 1 19 40
M  V30 43 1 21 41
M  V30 44 1 22 42
M  V30 45 1 23 43
M  V30 46 1 24 44
M  V30 47 1 25 45
M  V30 END BOND
M  V30 END CTAB
M  END
