
     RDKit          3D

  0  0  0  0  0  0  0  0  0  0999 V3000
M  V30 BEGIN CTAB
M  V30 COUNTS 55 58 0 0 0
M  V30 BEGIN ATOM
M  V30 1 N -2.10582 2.43981 3.02734 0
M  V30 2 C -2.98309 1.67904 2.17726 0
M  V30 3 N -2.64491 1.42142 0.910943 0
M  V30 4 C -3.43007 0.709666 0.0621922 0
M  V30 5 C -3.0465 0.474164 -1.32846 0
M  V30 6 O -1.81891 0.947819 -1.7392 0
M  V30 7 C -0.559828 0.617683 -1.35426 0
M  V30 8 C -0.269121 -0.348791 -0.424243 0
M  V30 9 C 1.02407 -0.630101 -0.087717 0
M  V30 10 C 2.12958 0.0261645 -0.649498 0
M  V30 11 N 3.42777 -0.328258 -0.218689 0
M  V30 12 C 4.59905 -0.0371869 -0.868791 0
M  V30 13 O 4.65975 0.587936 -1.95242 0
M  V30 14 C 5.91011 -0.460357 -0.307982 0
M  V30 15 C 6.57779 0.380419 0.544117 0
M  V30 16 C 7.80447 0.0372326 1.09721 0
M  V30 17 C 8.35272 -1.17922 0.774652 0
M  V30 18 C 7.67457 -2.04061 -0.0946153 0
M  V30 19 C 6.46013 -1.67891 -0.630519 0
M  V30 20 Cl 5.65621 -2.79203 -1.71016 0
M  V30 21 S 8.6215 1.14268 2.17791 0
M  V30 22 F 9.6341 2.16566 1.30687 0
M  V30 23 O 7.56727 1.93933 2.90895 0
M  V30 24 O 9.43353 0.330489 3.14744 0
M  V30 25 C 1.83228 0.99251 -1.58009 0
M  V30 26 C 0.538591 1.27934 -1.92166 0
M  V30 27 Cl 0.231755 2.52875 -3.12174 0
M  V30 28 C -4.63872 0.222362 0.515317 0
M  V30 29 C -4.98302 0.490885 1.82254 0
M  V30 30 N -6.22132 -0.0109003 2.27986 0
M  V30 31 N -4.15821 1.21011 2.63187 0
M  V30 32 C -5.47166 -0.540062 -0.403413 0
M  V30 33 C -5.28233 -1.87879 -0.662732 0
M  V30 34 C -6.10604 -2.54929 -1.5428 0
M  V30 35 Cl -5.87008 -4.25805 -1.87893 0
M  V30 36 C -7.14638 -1.92796 -2.20028 0
M  V30 37 Cl -8.17563 -2.81442 -3.31431 0
M  V30 38 C -7.33924 -0.578155 -1.94048 0
M  V30 39 C -6.5093 0.094992 -1.05459 0
M  V30 40 H -2.03481 2.2455 4.03987 0
M  V30 41 H -1.52305 3.20641 2.62791 0
M  V30 42 H -3.0514 -0.653117 -1.45836 0
M  V30 43 H -3.85525 0.808596 -2.01331 0
M  V30 44 H -1.11 -0.907058 0.0299787 0
M  V30 45 H 1.2331 -1.39286 0.644992 0
M  V30 46 H 3.49119 -0.868891 0.700133 0
M  V30 47 H 6.15587 1.32727 0.798107 0
M  V30 48 H 9.30642 -1.44731 1.20404 0
M  V30 49 H 8.15971 -2.98044 -0.307027 0
M  V30 50 H 2.62278 1.55567 -2.05275 0
M  V30 51 H -6.77335 0.531419 2.97473 0
M  V30 52 H -6.61706 -0.914163 1.94998 0
M  V30 53 H -4.48581 -2.37537 -0.165219 0
M  V30 54 H -8.15445 -0.0899314 -2.45519 0
M  V30 55 H -6.73896 1.15346 -0.914815 0
M  V30 END ATOM
M  V30 BEGIN BOND
M  V30 1 1 1 2
M  V30 2 2 2 3
M  V30 3 1 3 4
M  V30 4 1 4 5
M  V30 5 1 5 6
M  V30 6 1 6 7
M  V30 7 2 7 8
M  V30 8 1 8 9
M  V30 9 2 9 10
M  V30 10 1 10 11
M  V30 11 1 11 12
M  V30 12 2 12 13
M  V30 13 1 12 14
M  V30 14 2 14 15
M  V30 15 1 15 16
M  V30 16 2 16 17
M  V30 17 1 17 18
M  V30 18 2 18 19
M  V30 19 1 19 20
M  V30 20 1 16 21
M  V30 21 1 21 22
M  V30 22 2 21 23
M  V30 23 2 21 24
M  V30 24 1 10 25
M  V30 25 2 25 26
M  V30 26 1 26 27
M  V30 27 2 4 28
M  V30 28 1 28 29
M  V30 29 1 29 30
M  V30 30 2 29 31
M  V30 31 1 28 32
M  V30 32 2 32 33
M  V30 33 1 33 34
M  V30 34 1 34 35
M  V30 35 2 34 36
M  V30 36 1 36 37
M  V30 37 1 36 38
M  V30 38 2 38 39
M  V30 39 1 31 2
M  V30 40 1 39 32
M  V30 41 1 26 7
M  V30 42 1 19 14
M  V30 43 1 1 40
M  V30 44 1 1 41
M  V30 45 1 5 42
M  V30 46 1 5 43
M  V30 47 1 8 44
M  V30 48 1 9 45
M  V30 49 1 11 46
M  V30 50 1 15 47
M  V30 51 1 17 48
M  V30 52 1 18 49
M  V30 53 1 25 50
M  V30 54 1 30 51
M  V30 55 1 30 52
M  V30 56 1 33 53
M  V30 57 1 38 54
M  V30 58 1 39 55
M  V30 END BOND
M  V30 END CTAB
M  END
