
     RDKit          3D

  0  0  0  0  0  0  0  0  0  0999 V3000
M  V30 BEGIN CTAB
M  V30 COUNTS 27 28 0 0 0
M  V30 BEGIN ATOM
M  V30 1 N -2.79379 2.66441 0.00204845 0
M  V30 2 C -3.26644 1.32976 -0.0187723 0
M  V30 3 N -4.54589 0.938734 0.0133969 0
M  V30 4 N -4.60645 -0.374028 -0.0206374 0
M  V30 5 C -3.34195 -0.861564 -0.0764427 0
M  V30 6 C -2.46452 0.20353 -0.0766094 0
M  V30 7 N -1.06747 0.0912392 -0.126557 0
M  V30 8 N -0.299998 -0.159997 0.822539 0
M  V30 9 C 1.09951 -0.232069 0.564319 0
M  V30 10 C 1.95312 -1.0185 1.30268 0
M  V30 11 C 3.30556 -1.05926 1.01828 0
M  V30 12 C 3.8536 -0.320423 -0.00837732 0
M  V30 13 C 2.96396 0.453978 -0.723338 0
M  V30 14 C 1.62713 0.511944 -0.463549 0
M  V30 15 N 5.23915 -0.353238 -0.310539 0 CHG=1
M  V30 16 O 5.77576 0.293773 -1.22362 0
M  V30 17 O 6.04143 -1.15547 0.45956 0 CHG=-1
M  V30 18 N -3.00999 -2.24523 -0.12558 0
M  V30 19 H -1.85401 2.87381 0.401988 0
M  V30 20 H -3.34145 3.4608 -0.365737 0
M  V30 21 H -5.36193 1.59529 0.0588041 0
M  V30 22 H 1.56626 -1.62002 2.1239 0
M  V30 23 H 4.00735 -1.6736 1.58643 0
M  V30 24 H 3.36096 1.0451 -1.53451 0
M  V30 25 H 0.947297 1.14504 -1.05975 0
M  V30 26 H -3.66785 -2.92525 -0.560699 0
M  V30 27 H -2.11933 -2.60875 0.263706 0
M  V30 END ATOM
M  V30 BEGIN BOND
M  V30 1 1 1 2
M  V30 2 1 2 3
M  V30 3 1 3 4
M  V30 4 2 4 5
M  V30 5 1 5 6
M  V30 6 1 6 7
M  V30 7 2 7 8
M  V30 8 1 8 9
M  V30 9 2 9 10
M  V30 10 1 10 11
M  V30 11 2 11 12
M  V30 12 1 12 13
M  V30 13 2 13 14
M  V30 14 1 12 15
M  V30 15 2 15 16
M  V30 16 1 15 17
M  V30 17 1 5 18
M  V30 18 2 6 2
M  V30 19 1 14 9
M  V30 20 1 1 19
M  V30 21 1 1 20
M  V30 22 1 3 21
M  V30 23 1 10 22
M  V30 24 1 11 23
M  V30 25 1 13 24
M  V30 26 1 14 25
M  V30 27 1 18 26
M  V30 28 1 18 27
M  V30 END BOND
M  V30 END CTAB
M  END
