
     RDKit          3D

  0  0  0  0  0  0  0  0  0  0999 V3000
M  V30 BEGIN CTAB
M  V30 COUNTS 23 23 0 0 0
M  V30 BEGIN ATOM
M  V30 1 N -2.26679 -0.243797 -1.30591 0
M  V30 2 C -1.7863 -0.860926 -0.119438 0
M  V30 3 C -0.842333 0.0249044 0.64412 0
M  V30 4 C 0.346143 0.358781 -0.220149 0
M  V30 5 C 1.34131 1.2382 0.457626 0
M  V30 6 O 2.38491 0.387182 0.845485 0
M  V30 7 C 2.53868 -0.443511 -0.271355 0
M  V30 8 C 1.10501 -0.948442 -0.446439 0
M  V30 9 N -1.50625 1.19965 1.16012 0
M  V30 10 H -2.13429 -0.764362 -2.17447 0
M  V30 11 H -2.06026 0.751445 -1.42198 0
M  V30 12 H -2.58955 -1.16529 0.582163 0
M  V30 13 H -1.25184 -1.79221 -0.397186 0
M  V30 14 H -0.453588 -0.546017 1.52122 0
M  V30 15 H 0.0938758 0.763063 -1.19716 0
M  V30 16 H 0.92132 1.80737 1.30195 0
M  V30 17 H 1.78307 1.9939 -0.246294 0
M  V30 18 H 2.8358 0.192383 -1.10448 0
M  V30 19 H 3.1754 -1.30775 -0.0738083 0
M  V30 20 H 0.928522 -1.37673 -1.43036 0
M  V30 21 H 0.887819 -1.68186 0.345205 0
M  V30 22 H -2.44992 0.872799 1.52377 0
M  V30 23 H -1.00073 1.54121 2.02737 0
M  V30 END ATOM
M  V30 BEGIN BOND
M  V30 1 1 1 2
M  V30 2 1 2 3
M  V30 3 1 3 4
M  V30 4 1 4 5
M  V30 5 1 5 6
M  V30 6 1 6 7
M  V30 7 1 7 8
M  V30 8 1 3 9
M  V30 9 1 8 4
M  V30 10 1 1 10
M  V30 11 1 1 11
M  V30 12 1 2 12
M  V30 13 1 2 13
M  V30 14 1 3 14
M  V30 15 1 4 15
M  V30 16 1 5 16
M  V30 17 1 5 17
M  V30 18 1 7 18
M  V30 19 1 7 19
M  V30 20 1 8 20
M  V30 21 1 8 21
M  V30 22 1 9 22
M  V30 23 1 9 23
M  V30 END BOND
M  V30 END CTAB
M  END
