
     RDKit          3D

  0  0  0  0  0  0  0  0  0  0999 V3000
M  V30 BEGIN CTAB
M  V30 COUNTS 34 35 0 0 0
M  V30 BEGIN ATOM
M  V30 1 C 6.35542 0.370485 1.20929 0
M  V30 2 S 4.97938 0.270497 0.0827821 0
M  V30 3 O 5.32733 -0.739749 -0.974278 0
M  V30 4 O 4.73832 1.64429 -0.49992 0
M  V30 5 O 3.54697 -0.148845 0.916309 0
M  V30 6 C 2.29625 0.0630681 0.338426 0
M  V30 7 C 1.58141 1.23093 0.492909 0
M  V30 8 C 0.325706 1.40855 -0.104375 0
M  V30 9 C -0.230916 0.427345 -0.859509 0
M  V30 10 C -1.53665 0.459626 -1.53537 0
M  V30 11 C -2.61619 -0.267566 -0.821073 0
M  V30 12 C -3.2826 0.256025 0.255716 0
M  V30 13 N -2.96791 1.56916 0.726136 0
M  V30 14 N -4.25698 -0.46127 0.889321 0
M  V30 15 C -4.59449 -1.68935 0.488284 0
M  V30 16 N -5.61433 -2.44944 1.14937 0
M  V30 17 N -3.93534 -2.20394 -0.574884 0
M  V30 18 C -2.97984 -1.55859 -1.2336 0
M  V30 19 C 0.492905 -0.763576 -1.01981 0
M  V30 20 C 1.72487 -0.928248 -0.429949 0
M  V30 21 H 7.09641 1.02985 0.748161 0
M  V30 22 H 6.76063 -0.652886 1.35711 0
M  V30 23 H 5.99633 0.79592 2.16996 0
M  V30 24 H 1.99579 2.04054 1.09359 0
M  V30 25 H -0.183825 2.33331 0.0348757 0
M  V30 26 H -1.4243 -0.0549555 -2.5366 0
M  V30 27 H -1.82958 1.52486 -1.64901 0
M  V30 28 H -3.06306 2.34642 0.0472299 0
M  V30 29 H -2.66567 1.64968 1.71853 0
M  V30 30 H -6.49809 -2.72012 0.691926 0
M  V30 31 H -5.43458 -2.72919 2.13014 0
M  V30 32 H -2.45107 -1.98498 -2.09518 0
M  V30 33 H 0.0873372 -1.59209 -1.6238 0
M  V30 34 H 2.26034 -1.88048 -0.582721 0
M  V30 END ATOM
M  V30 BEGIN BOND
M  V30 1 1 1 2
M  V30 2 2 2 3
M  V30 3 2 2 4
M  V30 4 1 2 5
M  V30 5 1 5 6
M  V30 6 2 6 7
M  V30 7 1 7 8
M  V30 8 2 8 9
M  V30 9 1 9 10
M  V30 10 1 10 11
M  V30 11 2 11 12
M  V30 12 1 12 13
M  V30 13 1 12 14
M  V30 14 2 14 15
M  V30 15 1 15 16
M  V30 16 1 15 17
M  V30 17 2 17 18
M  V30 18 1 9 19
M  V30 19 2 19 20
M  V30 20 1 20 6
M  V30 21 1 18 11
M  V30 22 1 1 21
M  V30 23 1 1 22
M  V30 24 1 1 23
M  V30 25 1 7 24
M  V30 26 1 8 25
M  V30 27 1 10 26
M  V30 28 1 10 27
M  V30 29 1 13 28
M  V30 30 1 13 29
M  V30 31 1 16 30
M  V30 32 1 16 31
M  V30 33 1 18 32
M  V30 34 1 19 33
M  V30 35 1 20 34
M  V30 END BOND
M  V30 END CTAB
M  END
