
     RDKit          3D

  0  0  0  0  0  0  0  0  0  0999 V3000
M  V30 BEGIN CTAB
M  V30 COUNTS 36 36 0 0 0
M  V30 BEGIN ATOM
M  V30 1 N 1.85759 -1.51592 2.09767 0
M  V30 2 C 0.905713 -0.574236 1.48398 0
M  V30 3 C 1.64413 0.149689 0.417451 0
M  V30 4 C 0.784138 0.848047 -0.59837 0
M  V30 5 C 1.4646 0.570061 -1.95755 0
M  V30 6 C 1.01139 2.33106 -0.404848 0
M  V30 7 N -0.554011 0.428715 -0.692964 0
M  V30 8 C -0.8021 -0.926242 -0.350727 0
M  V30 9 C -0.287708 -1.32638 1.03418 0
M  V30 10 C -2.25253 -1.33694 -0.340402 0
M  V30 11 C -0.128982 -1.8878 -1.32132 0
M  V30 12 S -1.74238 1.54556 -0.231844 0
M  V30 13 O -3.14742 1.09439 -0.482487 0
M  V30 14 O -1.64045 2.80097 -1.09989 0
M  V30 15 N -1.60593 1.99066 1.41757 0
M  V30 16 H 1.58564 -2.50233 1.87186 0
M  V30 17 H 1.99567 -1.3485 3.09727 0
M  V30 18 H 0.658627 0.157516 2.29423 0
M  V30 19 H 2.34667 0.859345 0.950631 0
M  V30 20 H 2.36214 -0.587454 -0.0447221 0
M  V30 21 H 2.00278 -0.403725 -1.94077 0
M  V30 22 H 0.736211 0.657503 -2.78541 0
M  V30 23 H 2.25618 1.32043 -2.16406 0
M  V30 24 H 0.649359 2.75131 0.521269 0
M  V30 25 H 2.14229 2.45556 -0.345494 0
M  V30 26 H 0.783134 2.92636 -1.33238 0
M  V30 27 H -0.0892727 -2.42195 1.0762 0
M  V30 28 H -1.09848 -1.16544 1.80521 0
M  V30 29 H -2.78993 -1.06051 0.586455 0
M  V30 30 H -2.21241 -2.47393 -0.260228 0
M  V30 31 H -2.78578 -1.17936 -1.27661 0
M  V30 32 H -0.10633 -1.54251 -2.35264 0
M  V30 33 H 0.864452 -2.23397 -0.919175 0
M  V30 34 H -0.706503 -2.86314 -1.37103 0
M  V30 35 H -1.86724 3.00957 1.57402 0
M  V30 36 H -2.23326 1.45357 2.04491 0
M  V30 END ATOM
M  V30 BEGIN BOND
M  V30 1 1 1 2
M  V30 2 1 2 3
M  V30 3 1 3 4
M  V30 4 1 4 5
M  V30 5 1 4 6
M  V30 6 1 4 7
M  V30 7 1 7 8
M  V30 8 1 8 9
M  V30 9 1 8 10
M  V30 10 1 8 11
M  V30 11 1 7 12
M  V30 12 2 12 13
M  V30 13 2 12 14
M  V30 14 1 12 15
M  V30 15 1 9 2
M  V30 16 1 1 16
M  V30 17 1 1 17
M  V30 18 1 2 18
M  V30 19 1 3 19
M  V30 20 1 3 20
M  V30 21 1 5 21
M  V30 22 1 5 22
M  V30 23 1 5 23
M  V30 24 1 6 24
M  V30 25 1 6 25
M  V30 26 1 6 26
M  V30 27 1 9 27
M  V30 28 1 9 28
M  V30 29 1 10 29
M  V30 30 1 10 30
M  V30 31 1 10 31
M  V30 32 1 11 32
M  V30 33 1 11 33
M  V30 34 1 11 34
M  V30 35 1 15 35
M  V30 36 1 15 36
M  V30 END BOND
M  V30 END CTAB
M  END
