
     RDKit          3D

  0  0  0  0  0  0  0  0  0  0999 V3000
M  V30 BEGIN CTAB
M  V30 COUNTS 30 31 0 0 0
M  V30 BEGIN ATOM
M  V30 1 N -5.36025 -2.01352 0.446499 0
M  V30 2 C -4.32826 -1.0648 0.221685 0
M  V30 3 N -3.02692 -1.26614 0.557047 0
M  V30 4 C -2.06196 -0.35397 0.337113 0
M  V30 5 C -0.649622 -0.54963 0.727195 0
M  V30 6 O 0.256067 0.0181674 -0.217893 0
M  V30 7 C 1.61623 -0.0585918 0.0747733 0
M  V30 8 C 2.0576 -0.642351 1.23886 0
M  V30 9 C 3.40008 -0.729054 1.54999 0
M  V30 10 C 4.33121 -0.214673 0.663905 0
M  V30 11 C 3.89782 0.375446 -0.512634 0
M  V30 12 C 2.53176 0.452422 -0.804087 0
M  V30 13 C 4.87877 0.941351 -1.47643 0
M  V30 14 F 6.14281 0.805308 -0.937729 0
M  V30 15 F 4.74475 0.298539 -2.67972 0
M  V30 16 F 4.60368 2.30132 -1.58983 0
M  V30 17 N -2.44529 0.802609 -0.245876 0
M  V30 18 C -3.72109 1.03892 -0.593802 0
M  V30 19 N -4.66693 0.116598 -0.365783 0
M  V30 20 N -4.10663 2.27684 -1.21191 0
M  V30 21 H -6.03379 -2.26447 -0.30494 0
M  V30 22 H -5.4168 -2.45778 1.41331 0
M  V30 23 H -0.469397 -0.0287882 1.66718 0
M  V30 24 H -0.482313 -1.64989 0.796402 0
M  V30 25 H 1.35106 -1.04634 1.92997 0
M  V30 26 H 3.787 -1.17775 2.45697 0
M  V30 27 H 5.40526 -0.274589 0.898321 0
M  V30 28 H 2.21944 0.915859 -1.72053 0
M  V30 29 H -3.4365 2.72477 -1.85657 0
M  V30 30 H -5.01777 2.72419 -1.02475 0
M  V30 END ATOM
M  V30 BEGIN BOND
M  V30 1 1 1 2
M  V30 2 2 2 3
M  V30 3 1 3 4
M  V30 4 1 4 5
M  V30 5 1 5 6
M  V30 6 1 6 7
M  V30 7 2 7 8
M  V30 8 1 8 9
M  V30 9 2 9 10
M  V30 10 1 10 11
M  V30 11 2 11 12
M  V30 12 1 11 13
M  V30 13 1 13 14
M  V30 14 1 13 15
M  V30 15 1 13 16
M  V30 16 2 4 17
M  V30 17 1 17 18
M  V30 18 2 18 19
M  V30 19 1 18 20
M  V30 20 1 19 2
M  V30 21 1 12 7
M  V30 22 1 1 21
M  V30 23 1 1 22
M  V30 24 1 5 23
M  V30 25 1 5 24
M  V30 26 1 8 25
M  V30 27 1 9 26
M  V30 28 1 10 27
M  V30 29 1 12 28
M  V30 30 1 20 29
M  V30 31 1 20 30
M  V30 END BOND
M  V30 END CTAB
M  END
