
     RDKit          3D

  0  0  0  0  0  0  0  0  0  0999 V3000
M  V30 BEGIN CTAB
M  V30 COUNTS 16 16 0 0 0
M  V30 BEGIN ATOM
M  V30 1 N -1.53571 1.49309 0.180172 0
M  V30 2 C -0.373299 0.715883 0.077219 0
M  V30 3 C -0.493358 -0.649576 -0.0398158 0
M  V30 4 N -1.79304 -1.21524 -0.0513837 0
M  V30 5 C 0.634987 -1.42843 -0.141927 0
M  V30 6 C 1.91421 -0.872854 -0.130652 0
M  V30 7 C 1.98935 0.501927 -0.0114653 0
M  V30 8 C 0.888788 1.32537 0.0937622 0
M  V30 9 H -1.96233 1.85116 1.05096 0
M  V30 10 H -2.02981 1.74118 -0.716888 0
M  V30 11 H -1.95783 -2.0292 0.589386 0
M  V30 12 H -2.57869 -0.877357 -0.6466 0
M  V30 13 H 0.532218 -2.49698 -0.233263 0
M  V30 14 H 2.80586 -1.45616 -0.208506 0
M  V30 15 H 2.97302 0.98714 0.00231406 0
M  V30 16 H 0.985651 2.41006 0.18669 0
M  V30 END ATOM
M  V30 BEGIN BOND
M  V30 1 1 1 2
M  V30 2 2 2 3
M  V30 3 1 3 4
M  V30 4 1 3 5
M  V30 5 2 5 6
M  V30 6 1 6 7
M  V30 7 2 7 8
M  V30 8 1 8 2
M  V30 9 1 1 9
M  V30 10 1 1 10
M  V30 11 1 4 11
M  V30 12 1 4 12
M  V30 13 1 5 13
M  V30 14 1 6 14
M  V30 15 1 7 15
M  V30 16 1 8 16
M  V30 END BOND
M  V30 END CTAB
M  END
