
     RDKit          3D

  0  0  0  0  0  0  0  0  0  0999 V3000
M  V30 BEGIN CTAB
M  V30 COUNTS 35 37 0 0 0
M  V30 BEGIN ATOM
M  V30 1 N 3.50773 -2.1769 -2.16951 0
M  V30 2 C 2.53266 -1.76582 -1.71591 0
M  V30 3 C 1.30976 -1.24116 -1.17524 0
M  V30 4 C 0.130244 -1.75772 -1.64557 0
M  V30 5 N 0.0691009 -2.78736 -2.62307 0
M  V30 6 N -1.02627 -1.26881 -1.1607 0
M  V30 7 C -1.10579 -0.31358 -0.25146 0
M  V30 8 C 0.0722942 0.214157 0.229872 0
M  V30 9 C 1.309 -0.256341 -0.238548 0
M  V30 10 C 2.53775 0.318236 0.306716 0
M  V30 11 C 3.53511 -0.502833 0.783085 0
M  V30 12 C 4.67339 0.109619 1.27463 0
M  V30 13 F 5.67358 -0.681793 1.75089 0
M  V30 14 C 4.81139 1.48132 1.29096 0
M  V30 15 C 3.81656 2.32066 0.815513 0
M  V30 16 C 2.68307 1.7127 0.325761 0
M  V30 17 Cl 4.03769 4.05308 0.857454 0
M  V30 18 C -2.36687 0.21725 0.274903 0
M  V30 19 S -2.63927 1.44318 1.44548 0
M  V30 20 C -4.34838 1.42149 1.45417 0
M  V30 21 N -4.6167 0.488811 0.571762 0
M  V30 22 C -3.65744 -0.135254 -0.0382109 0
M  V30 23 C -3.92045 -1.2183 -1.06365 0
M  V30 24 N -5.22118 2.23469 2.24254 0
M  V30 25 H 0.871487 -2.8403 -3.31894 0
M  V30 26 H -0.713847 -3.4719 -2.67802 0
M  V30 27 H 0.0736801 0.99429 0.971301 0
M  V30 28 H 3.44288 -1.58475 0.78584 0
M  V30 29 H 5.71249 1.96467 1.68013 0
M  V30 30 H 1.88573 2.34339 -0.0539149 0
M  V30 31 H -3.43811 -0.901981 -2.03469 0
M  V30 32 H -3.54172 -2.18618 -0.740977 0
M  V30 33 H -4.99569 -1.31241 -1.30002 0
M  V30 34 H -5.11154 2.28039 3.29925 0
M  V30 35 H -5.98233 2.80545 1.84817 0
M  V30 END ATOM
M  V30 BEGIN BOND
M  V30 1 3 1 2
M  V30 2 1 2 3
M  V30 3 2 3 4
M  V30 4 1 4 5
M  V30 5 1 4 6
M  V30 6 2 6 7
M  V30 7 1 7 8
M  V30 8 2 8 9
M  V30 9 1 9 10
M  V30 10 2 10 11
M  V30 11 1 11 12
M  V30 12 1 12 13
M  V30 13 2 12 14
M  V30 14 1 14 15
M  V30 15 2 15 16
M  V30 16 1 15 17
M  V30 17 1 7 18
M  V30 18 1 18 19
M  V30 19 1 19 20
M  V30 20 2 20 21
M  V30 21 1 21 22
M  V30 22 1 22 23
M  V30 23 1 20 24
M  V30 24 1 9 3
M  V30 25 1 16 10
M  V30 26 2 22 18
M  V30 27 1 5 25
M  V30 28 1 5 26
M  V30 29 1 8 27
M  V30 30 1 11 28
M  V30 31 1 14 29
M  V30 32 1 16 30
M  V30 33 1 23 31
M  V30 34 1 23 32
M  V30 35 1 23 33
M  V30 36 1 24 34
M  V30 37 1 24 35
M  V30 END BOND
M  V30 END CTAB
M  END
