
     RDKit          3D

  0  0  0  0  0  0  0  0  0  0999 V3000
M  V30 BEGIN CTAB
M  V30 COUNTS 46 47 0 0 0
M  V30 BEGIN ATOM
M  V30 1 N -5.88351 3.04968 -0.881928 0
M  V30 2 C -5.08016 1.89646 -0.694698 0
M  V30 3 C -4.69418 1.50232 0.566663 0
M  V30 4 C -3.90946 0.369687 0.704612 0
M  V30 5 C -3.50158 -0.373725 -0.356789 0
M  V30 6 C -3.88826 0.0185728 -1.63926 0
M  V30 7 C -4.66926 1.14324 -1.79551 0
M  V30 8 N -2.69724 -1.5429 -0.276198 0
M  V30 9 C -1.26223 -1.40328 -0.3295 0
M  V30 10 O -0.580209 -2.46228 -0.255322 0
M  V30 11 N -0.70087 -0.116193 -0.459339 0
M  V30 12 C 0.712967 0.117363 -0.515417 0
M  V30 13 C 1.35255 -0.351035 0.75525 0
M  V30 14 C 2.82685 -0.124897 0.756312 0
M  V30 15 C 3.31025 1.066 1.24342 0
M  V30 16 C 4.67451 1.2686 1.24108 0
M  V30 17 C 5.511 0.284801 0.756534 0
M  V30 18 C 5.00204 -0.910397 0.269255 0
M  V30 19 C 3.63723 -1.1108 0.272591 0
M  V30 20 S 7.25093 0.496648 0.733135 0
M  V30 21 O 7.95198 -0.810482 0.878975 0
M  V30 22 O 7.60582 1.37342 1.8961 0
M  V30 23 N 7.6626 1.21497 -0.778925 0
M  V30 24 C -3.28278 -2.81555 -0.146781 0
M  V30 25 O -2.56545 -3.82979 -0.0774924 0
M  V30 26 C -4.74789 -2.94174 -0.093723 0
M  V30 27 H -6.005 3.71764 -0.0945206 0
M  V30 28 H -6.34956 3.23216 -1.79467 0
M  V30 29 H -5.00186 2.07365 1.44452 0
M  V30 30 H -3.59987 0.0504362 1.69355 0
M  V30 31 H -3.59199 -0.536286 -2.51927 0
M  V30 32 H -4.97669 1.45832 -2.79193 0
M  V30 33 H -1.33473 0.703353 -0.517345 0
M  V30 34 H 1.10679 -0.508259 -1.36575 0
M  V30 35 H 0.937867 1.18629 -0.71261 0
M  V30 36 H 0.953068 0.192102 1.65283 0
M  V30 37 H 1.20509 -1.42548 0.958847 0
M  V30 38 H 2.62733 1.84563 1.62875 0
M  V30 39 H 5.07576 2.18235 1.6128 0
M  V30 40 H 5.65825 -1.68888 -0.113767 0
M  V30 41 H 3.23305 -2.06351 -0.115923 0
M  V30 42 H 6.88173 1.82287 -1.11272 0
M  V30 43 H 8.56326 1.74135 -0.72936 0
M  V30 44 H -5.18141 -3.50689 -0.936085 0
M  V30 45 H -5.23612 -1.95351 0.0431176 0
M  V30 46 H -5.00062 -3.53199 0.828594 0
M  V30 END ATOM
M  V30 BEGIN BOND
M  V30 1 1 1 2
M  V30 2 2 2 3
M  V30 3 1 3 4
M  V30 4 2 4 5
M  V30 5 1 5 6
M  V30 6 2 6 7
M  V30 7 1 5 8
M  V30 8 1 8 9
M  V30 9 2 9 10
M  V30 10 1 9 11
M  V30 11 1 11 12
M  V30 12 1 12 13
M  V30 13 1 13 14
M  V30 14 2 14 15
M  V30 15 1 15 16
M  V30 16 2 16 17
M  V30 17 1 17 18
M  V30 18 2 18 19
M  V30 19 1 17 20
M  V30 20 2 20 21
M  V30 21 2 20 22
M  V30 22 1 20 23
M  V30 23 1 8 24
M  V30 24 2 24 25
M  V30 25 1 24 26
M  V30 26 1 7 2
M  V30 27 1 19 14
M  V30 28 1 1 27
M  V30 29 1 1 28
M  V30 30 1 3 29
M  V30 31 1 4 30
M  V30 32 1 6 31
M  V30 33 1 7 32
M  V30 34 1 11 33
M  V30 35 1 12 34
M  V30 36 1 12 35
M  V30 37 1 13 36
M  V30 38 1 13 37
M  V30 39 1 15 38
M  V30 40 1 16 39
M  V30 41 1 18 40
M  V30 42 1 19 41
M  V30 43 1 23 42
M  V30 44 1 23 43
M  V30 45 1 26 44
M  V30 46 1 26 45
M  V30 47 1 26 46
M  V30 END BOND
M  V30 END CTAB
M  END
