
     RDKit          3D

  0  0  0  0  0  0  0  0  0  0999 V3000
M  V30 BEGIN CTAB
M  V30 COUNTS 43 44 0 0 0
M  V30 BEGIN ATOM
M  V30 1 N -3.06123 -2.91805 -0.415452 0
M  V30 2 C -1.83822 -2.26187 -0.793814 0
M  V30 3 C -0.704883 -3.27422 -1.00993 0
M  V30 4 C 0.4852 -2.35113 -0.975141 0
M  V30 5 N 0.124032 -1.24204 -0.117138 0
M  V30 6 C -1.24452 -1.40313 0.267342 0
M  V30 7 C -1.98401 -0.129727 0.455175 0
M  V30 8 C -2.7294 -0.00268712 1.60805 0
M  V30 9 C -3.46575 1.11782 1.89534 0
M  V30 10 C -3.44764 2.14916 0.982008 0
M  V30 11 C -2.70382 2.05849 -0.199359 0
M  V30 12 C -1.97305 0.901569 -0.446001 0
M  V30 13 N -2.71816 3.14495 -1.10493 0
M  V30 14 C 1.05034 -0.211589 0.237527 0
M  V30 15 O 0.721457 0.736002 0.991156 0
M  V30 16 O 2.35452 -0.199068 -0.226358 0
M  V30 17 C 3.26881 0.833986 0.134286 0
M  V30 18 C 3.48608 0.91117 1.6079 0
M  V30 19 C 4.58396 0.444693 -0.516857 0
M  V30 20 C 2.87233 2.16306 -0.471168 0
M  V30 21 H -2.915 -3.71082 0.241604 0
M  V30 22 H -3.56578 -3.1781 -1.28333 0
M  V30 23 H -2.03546 -1.70046 -1.72688 0
M  V30 24 H -0.81806 -3.82959 -1.93842 0
M  V30 25 H -0.660854 -3.90295 -0.0963264 0
M  V30 26 H 0.74808 -1.96524 -1.97149 0
M  V30 27 H 1.38717 -2.82145 -0.529204 0
M  V30 28 H -1.23983 -2.01014 1.21062 0
M  V30 29 H -2.75583 -0.808213 2.34226 0
M  V30 30 H -4.05348 1.20493 2.81572 0
M  V30 31 H -4.02471 3.06079 1.17857 0
M  V30 32 H -1.3924 0.803836 -1.34499 0
M  V30 33 H -2.28689 4.05092 -0.86399 0
M  V30 34 H -3.17107 3.0213 -2.02315 0
M  V30 35 H 4.50847 0.619477 1.85948 0
M  V30 36 H 3.26204 1.96454 1.94611 0
M  V30 37 H 2.81008 0.268001 2.20592 0
M  V30 38 H 4.47019 0.439159 -1.62093 0
M  V30 39 H 5.42012 1.06803 -0.180193 0
M  V30 40 H 4.77381 -0.613579 -0.203406 0
M  V30 41 H 1.79912 2.32902 -0.54147 0
M  V30 42 H 3.32886 2.25973 -1.4995 0
M  V30 43 H 3.33539 2.98345 0.120357 0
M  V30 END ATOM
M  V30 BEGIN BOND
M  V30 1 1 1 2
M  V30 2 1 2 3
M  V30 3 1 3 4
M  V30 4 1 4 5
M  V30 5 1 5 6
M  V30 6 1 6 7
M  V30 7 2 7 8
M  V30 8 1 8 9
M  V30 9 2 9 10
M  V30 10 1 10 11
M  V30 11 2 11 12
M  V30 12 1 11 13
M  V30 13 1 5 14
M  V30 14 2 14 15
M  V30 15 1 14 16
M  V30 16 1 16 17
M  V30 17 1 17 18
M  V30 18 1 17 19
M  V30 19 1 17 20
M  V30 20 1 6 2
M  V30 21 1 12 7
M  V30 22 1 1 21
M  V30 23 1 1 22
M  V30 24 1 2 23
M  V30 25 1 3 24
M  V30 26 1 3 25
M  V30 27 1 4 26
M  V30 28 1 4 27
M  V30 29 1 6 28
M  V30 30 1 8 29
M  V30 31 1 9 30
M  V30 32 1 10 31
M  V30 33 1 12 32
M  V30 34 1 13 33
M  V30 35 1 13 34
M  V30 36 1 18 35
M  V30 37 1 18 36
M  V30 38 1 18 37
M  V30 39 1 19 38
M  V30 40 1 19 39
M  V30 41 1 19 40
M  V30 42 1 20 41
M  V30 43 1 20 42
M  V30 44 1 20 43
M  V30 END BOND
M  V30 END CTAB
M  END
