
     RDKit          3D

  0  0  0  0  0  0  0  0  0  0999 V3000
M  V30 BEGIN CTAB
M  V30 COUNTS 69 73 0 0 0
M  V30 BEGIN ATOM
M  V30 1 N -10.5266 2.97653 -0.733564 0
M  V30 2 C -9.49185 2.00082 -0.78715 0
M  V30 3 C -9.39171 1.22513 0.496965 0
M  V30 4 C -8.28562 0.207885 0.39084 0
M  V30 5 O -7.07344 0.921941 0.143979 0
M  V30 6 C -5.90396 0.225366 0.00467818 0
M  V30 7 C -5.87022 -1.14838 0.097223 0
M  V30 8 C -4.73493 -1.86883 -0.0349385 0
M  V30 9 C -3.48 -1.25023 -0.281956 0
M  V30 10 C -3.52692 0.113343 -0.371455 0
M  V30 11 C -4.70619 0.839801 -0.232711 0
M  V30 12 C -2.30914 -2.06677 -0.406673 0
M  V30 13 O -2.53604 -3.34785 -0.243892 0
M  V30 14 N -0.999457 -1.73354 -0.666483 0
M  V30 15 C -0.423392 -0.448422 -0.897215 0
M  V30 16 C 1.057 -0.612295 -1.22323 0
M  V30 17 C 1.82926 -1.28068 -0.113788 0
M  V30 18 C 1.08159 -2.5586 0.271265 0
M  V30 19 C -0.0137079 -2.85069 -0.71979 0
M  V30 20 O 1.89465 -0.500608 1.03026 0
M  V30 21 C 2.85875 0.494165 0.937569 0
M  V30 22 C 4.26179 -0.0163811 0.955086 0 CFG=1
M  V30 23 C 4.28923 -1.39662 0.361212 0 CFG=1
M  V30 24 C 3.20016 -1.60722 -0.662202 0
M  V30 25 C 5.61539 -1.66867 -0.317102 0
M  V30 26 O 4.12064 -2.38809 1.33941 0
M  V30 27 N 5.15071 0.899134 0.255991 0
M  V30 28 C 4.92693 1.57938 -0.88096 0
M  V30 29 N 6.02311 2.32433 -1.18912 0
M  V30 30 C 6.9508 2.12378 -0.252049 0
M  V30 31 C 6.40536 1.23291 0.651201 0
M  V30 32 N 7.17789 0.880667 1.69845 0
M  V30 33 C 8.42603 1.37858 1.85238 0
M  V30 34 N 8.9324 2.24618 0.955403 0
M  V30 35 C 8.22159 2.64884 -0.121436 0
M  V30 36 N 8.75809 3.56698 -1.07033 0
M  V30 37 H -10.4175 3.78539 -1.27991 0
M  V30 38 H -11.0573 2.93816 0.105998 0
M  V30 39 H -8.54743 2.51893 -1.0304 0
M  V30 40 H -9.69633 1.32056 -1.64991 0
M  V30 41 H -10.3758 0.721209 0.662375 0
M  V30 42 H -9.18775 1.9237 1.3217 0
M  V30 43 H -8.50749 -0.426391 -0.494679 0
M  V30 44 H -8.13236 -0.355196 1.31734 0
M  V30 45 H -6.81449 -1.66836 0.286978 0
M  V30 46 H -4.73283 -2.94631 0.0411153 0
M  V30 47 H -2.62299 0.673138 -0.553367 0
M  V30 48 H -4.68118 1.92884 -0.314439 0
M  V30 49 H -0.437111 0.237162 -0.0182367 0
M  V30 50 H -0.823812 0.0703591 -1.81776 0
M  V30 51 H 1.17196 -1.20785 -2.1435 0
M  V30 52 H 1.46043 0.39355 -1.46689 0
M  V30 53 H 1.77436 -3.39637 0.346154 0
M  V30 54 H 0.594332 -2.44249 1.26022 0
M  V30 55 H 0.368462 -2.99932 -1.7361 0
M  V30 56 H -0.540099 -3.73575 -0.350065 0
M  V30 57 H 2.66062 1.07043 0.0357207 0
M  V30 58 H 2.73666 1.18201 1.80084 0
M  V30 59 H 4.56023 -0.122757 2.02738 0
M  V30 60 H 3.42393 -1.03902 -1.57935 0
M  V30 61 H 3.2012 -2.68283 -0.934556 0
M  V30 62 H 5.55449 -2.6411 -0.853626 0
M  V30 63 H 6.43548 -1.79122 0.427561 0
M  V30 64 H 5.8817 -0.914308 -1.07127 0
M  V30 65 H 3.85806 -2.00192 2.21625 0
M  V30 66 H 3.99969 1.51308 -1.43356 0
M  V30 67 H 9.04347 1.08945 2.70029 0
M  V30 68 H 9.23766 4.43284 -0.739641 0
M  V30 69 H 8.70362 3.4305 -2.10217 0
M  V30 END ATOM
M  V30 BEGIN BOND
M  V30 1 1 1 2
M  V30 2 1 2 3
M  V30 3 1 3 4
M  V30 4 1 4 5
M  V30 5 1 5 6
M  V30 6 2 6 7
M  V30 7 1 7 8
M  V30 8 2 8 9
M  V30 9 1 9 10
M  V30 10 2 10 11
M  V30 11 1 9 12
M  V30 12 2 12 13
M  V30 13 1 12 14
M  V30 14 1 14 15
M  V30 15 1 15 16
M  V30 16 1 16 17
M  V30 17 1 17 18
M  V30 18 1 18 19
M  V30 19 1 17 20
M  V30 20 1 20 21
M  V30 21 1 21 22
M  V30 22 1 22 23
M  V30 23 1 23 24
M  V30 24 1 23 25
M  V30 25 1 23 26 CFG=1
M  V30 26 1 22 27
M  V30 27 1 27 28
M  V30 28 2 28 29
M  V30 29 1 29 30
M  V30 30 2 30 31
M  V30 31 1 31 32
M  V30 32 2 32 33
M  V30 33 1 33 34
M  V30 34 2 34 35
M  V30 35 1 35 36
M  V30 36 1 11 6
M  V30 37 1 19 14
M  V30 38 1 31 27
M  V30 39 1 24 17
M  V30 40 1 35 30
M  V30 41 1 1 37
M  V30 42 1 1 38
M  V30 43 1 2 39
M  V30 44 1 2 40
M  V30 45 1 3 41
M  V30 46 1 3 42
M  V30 47 1 4 43
M  V30 48 1 4 44
M  V30 49 1 7 45
M  V30 50 1 8 46
M  V30 51 1 10 47
M  V30 52 1 11 48
M  V30 53 1 15 49
M  V30 54 1 15 50
M  V30 55 1 16 51
M  V30 56 1 16 52
M  V30 57 1 18 53
M  V30 58 1 18 54
M  V30 59 1 19 55
M  V30 60 1 19 56
M  V30 61 1 21 57
M  V30 62 1 21 58
M  V30 63 1 22 59 CFG=1
M  V30 64 1 24 60
M  V30 65 1 24 61
M  V30 66 1 25 62
M  V30 67 1 25 63
M  V30 68 1 25 64
M  V30 69 1 26 65
M  V30 70 1 28 66
M  V30 71 1 33 67
M  V30 72 1 36 68
M  V30 73 1 36 69
M  V30 END BOND
M  V30 END CTAB
M  END
