
     RDKit          3D

  0  0  0  0  0  0  0  0  0  0999 V3000
M  V30 BEGIN CTAB
M  V30 COUNTS 48 51 0 0 0
M  V30 BEGIN ATOM
M  V30 1 N -0.0532005 -2.21846 1.33522 0
M  V30 2 C -0.600402 -1.30442 0.884376 0
M  V30 3 C -1.27473 -0.178288 0.299909 0
M  V30 4 C -0.540641 0.922372 -0.0887137 0
M  V30 5 N -1.23884 1.94449 -0.642154 0
M  V30 6 C -2.57921 1.88971 -0.804391 0
M  V30 7 C -3.30256 0.786998 -0.412978 0
M  V30 8 C -2.63402 -0.277276 0.154948 0
M  V30 9 C -3.36608 -1.38027 0.5453 0
M  V30 10 C -4.73451 -1.45331 0.387508 0
M  V30 11 O -5.45757 -2.58317 0.791104 0
M  V30 12 C -6.82987 -2.72051 0.661468 0
M  V30 13 N -5.34657 -0.394104 -0.1703 0
M  V30 14 C -4.66658 0.721118 -0.573353 0
M  V30 15 N -5.33599 1.82034 -1.1571 0
M  V30 16 N -3.25566 2.98262 -1.38634 0
M  V30 17 N 0.847274 1.06005 0.0536614 0
M  V30 18 C 1.46389 1.10989 1.33488 0
M  V30 19 C 2.88638 0.652579 1.35822 0
M  V30 20 N 3.36785 0.0441565 0.158525 0
M  V30 21 C 2.57993 -0.0646826 -1.06177 0
M  V30 22 C 1.68382 1.15188 -1.12012 0
M  V30 23 C 4.66992 -0.492682 0.116901 0
M  V30 24 N 4.84674 -1.8009 -0.0971302 0
M  V30 25 N 6.0832 -2.32633 -0.135692 0
M  V30 26 C 7.16141 -1.53704 0.0416252 0
M  V30 27 O 8.33583 -1.99892 0.011343 0
M  V30 28 N 7.0338 -0.21838 0.259357 0
M  V30 29 C 5.76889 0.300611 0.29561 0
M  V30 30 O 5.69636 1.52704 0.499447 0
M  V30 31 H -2.85547 -2.21794 0.990139 0
M  V30 32 H -7.11066 -2.37003 -0.370216 0
M  V30 33 H -7.42137 -2.17949 1.42458 0
M  V30 34 H -7.10512 -3.79681 0.683106 0
M  V30 35 H -5.45656 1.80242 -2.19615 0
M  V30 36 H -5.69358 2.61308 -0.568102 0
M  V30 37 H -3.60359 3.75495 -0.797044 0
M  V30 38 H -3.40547 3.01659 -2.40681 0
M  V30 39 H 1.41818 2.19426 1.65666 0
M  V30 40 H 0.83367 0.585318 2.07582 0
M  V30 41 H 2.98688 -0.0656736 2.20365 0
M  V30 42 H 3.5371 1.50626 1.63307 0
M  V30 43 H 1.9345 -0.963617 -0.943915 0
M  V30 44 H 3.24181 -0.13956 -1.94609 0
M  V30 45 H 1.10304 1.15463 -2.06287 0
M  V30 46 H 2.29041 2.08895 -1.01047 0
M  V30 47 H 6.23705 -3.34969 -0.302488 0
M  V30 48 H 7.86033 0.401258 0.397755 0
M  V30 END ATOM
M  V30 BEGIN BOND
M  V30 1 3 1 2
M  V30 2 1 2 3
M  V30 3 2 3 4
M  V30 4 1 4 5
M  V30 5 2 5 6
M  V30 6 1 6 7
M  V30 7 2 7 8
M  V30 8 1 8 9
M  V30 9 2 9 10
M  V30 10 1 10 11
M  V30 11 1 11 12
M  V30 12 1 10 13
M  V30 13 2 13 14
M  V30 14 1 14 15
M  V30 15 1 6 16
M  V30 16 1 4 17
M  V30 17 1 17 18
M  V30 18 1 18 19
M  V30 19 1 19 20
M  V30 20 1 20 21
M  V30 21 1 21 22
M  V30 22 1 20 23
M  V30 23 2 23 24
M  V30 24 1 24 25
M  V30 25 1 25 26
M  V30 26 2 26 27
M  V30 27 1 26 28
M  V30 28 1 28 29
M  V30 29 2 29 30
M  V30 30 1 8 3
M  V30 31 1 22 17
M  V30 32 1 29 23
M  V30 33 1 14 7
M  V30 34 1 9 31
M  V30 35 1 12 32
M  V30 36 1 12 33
M  V30 37 1 12 34
M  V30 38 1 15 35
M  V30 39 1 15 36
M  V30 40 1 16 37
M  V30 41 1 16 38
M  V30 42 1 18 39
M  V30 43 1 18 40
M  V30 44 1 19 41
M  V30 45 1 19 42
M  V30 46 1 21 43
M  V30 47 1 21 44
M  V30 48 1 22 45
M  V30 49 1 22 46
M  V30 50 1 25 47
M  V30 51 1 28 48
M  V30 END BOND
M  V30 END CTAB
M  END
