
     RDKit          3D

  0  0  0  0  0  0  0  0  0  0999 V3000
M  V30 BEGIN CTAB
M  V30 COUNTS 28 28 0 0 0
M  V30 BEGIN ATOM
M  V30 1 C 4.27869 1.57706 -0.0732848 0
M  V30 2 N 2.97701 1.52231 -0.657968 0
M  V30 3 C 1.98218 0.677672 -0.114136 0
M  V30 4 N 0.735125 0.620617 -0.668575 0
M  V30 5 C -0.163371 -0.200594 -0.105348 0
M  V30 6 N 0.164407 -0.938755 0.969836 0
M  V30 7 C 1.39359 -0.886036 1.52067 0
M  V30 8 N 2.29007 -0.0673984 0.959601 0
M  V30 9 N 1.69003 -1.68109 2.65032 0
M  V30 10 C -1.53485 -0.326099 -0.637649 0
M  V30 11 C -2.55175 0.407854 0.188332 0
M  V30 12 O -2.5865 -0.129599 1.47516 0
M  V30 13 C -3.90713 0.199057 -0.467477 0
M  V30 14 N -1.90242 -1.71612 -0.702781 0
M  V30 15 H 4.30063 1.24078 0.988321 0
M  V30 16 H 4.70336 2.60241 -0.0736554 0
M  V30 17 H 4.95196 0.861796 -0.630474 0
M  V30 18 H 2.74408 2.09958 -1.48703 0
M  V30 19 H 0.950686 -2.00534 3.30222 0
M  V30 20 H 2.66961 -1.9606 2.85286 0
M  V30 21 H -1.54695 0.137692 -1.65325 0
M  V30 22 H -2.32265 1.50284 0.242857 0
M  V30 23 H -3.20911 0.389365 2.05031 0
M  V30 24 H -4.55199 -0.435255 0.194259 0
M  V30 25 H -4.39643 1.16545 -0.718927 0
M  V30 26 H -3.82511 -0.366123 -1.42348 0
M  V30 27 H -2.32021 -2.01778 0.185077 0
M  V30 28 H -1.01295 -2.27368 -0.821554 0
M  V30 END ATOM
M  V30 BEGIN BOND
M  V30 1 1 1 2
M  V30 2 1 2 3
M  V30 3 2 3 4
M  V30 4 1 4 5
M  V30 5 2 5 6
M  V30 6 1 6 7
M  V30 7 2 7 8
M  V30 8 1 7 9
M  V30 9 1 5 10
M  V30 10 1 10 11
M  V30 11 1 11 12
M  V30 12 1 11 13
M  V30 13 1 10 14
M  V30 14 1 8 3
M  V30 15 1 1 15
M  V30 16 1 1 16
M  V30 17 1 1 17
M  V30 18 1 2 18
M  V30 19 1 9 19
M  V30 20 1 9 20
M  V30 21 1 10 21
M  V30 22 1 11 22
M  V30 23 1 12 23
M  V30 24 1 13 24
M  V30 25 1 13 25
M  V30 26 1 13 26
M  V30 27 1 14 27
M  V30 28 1 14 28
M  V30 END BOND
M  V30 END CTAB
M  END
