
     RDKit          3D

  0  0  0  0  0  0  0  0  0  0999 V3000
M  V30 BEGIN CTAB
M  V30 COUNTS 81 83 0 0 0
M  V30 BEGIN ATOM
M  V30 1 C 11.208 1.11228 2.02591 0
M  V30 2 C 10.9302 0.442369 0.714944 0
M  V30 3 O 9.58127 0.0397241 0.62676 0
M  V30 4 C 8.51802 0.9417 0.711082 0
M  V30 5 O 8.82044 2.14772 0.874227 0
M  V30 6 N 7.18688 0.519595 0.617599 0
M  V30 7 C 6.84062 -0.876458 0.428645 0
M  V30 8 C 5.83963 -1.01027 -0.724733 0
M  V30 9 N 4.77058 -0.0632053 -0.553514 0
M  V30 10 C 4.80235 0.725403 0.696666 0
M  V30 11 C 6.11127 1.48037 0.701674 0
M  V30 12 C 3.71507 0.171316 -1.44503 0
M  V30 13 O 2.86099 1.06689 -1.13872 0
M  V30 14 C 3.50921 -0.529591 -2.70604 0 CFG=1
M  V30 15 N 4.47167 -1.56485 -2.99106 0
M  V30 16 C 2.09772 -1.13174 -2.76667 0
M  V30 17 C 1.87805 -2.1341 -1.63137 0
M  V30 18 C 0.491239 -2.6778 -1.8248 0
M  V30 19 N -0.472543 -1.61641 -1.75759 0
M  V30 20 C -0.864471 -0.899219 -0.60006 0
M  V30 21 N 0.0320491 -0.389083 0.352719 0
M  V30 22 N -2.12212 -0.686543 -0.381162 0
M  V30 23 S -2.73336 0.172108 0.991045 0
M  V30 24 O -2.58197 -0.849595 2.13393 0
M  V30 25 O -1.82342 1.28443 1.43011 0
M  V30 26 C -4.37466 0.61386 0.742353 0
M  V30 27 C -5.38902 -0.217725 1.18994 0
M  V30 28 C -5.0467 -1.48696 1.85405 0
M  V30 29 C -6.74975 0.100962 1.0166 0
M  V30 30 C -7.08846 1.27041 0.384676 0
M  V30 31 O -8.4649 1.38258 0.323653 0
M  V30 32 C -9.09378 0.280929 0.915466 0
M  V30 33 C -9.98807 -0.43132 -0.0893573 0
M  V30 34 C -9.89404 0.689172 2.14291 0
M  V30 35 C -7.98279 -0.598549 1.39334 0
M  V30 36 C -6.10695 2.10238 -0.0644352 0
M  V30 37 C -6.48538 3.36412 -0.741894 0
M  V30 38 C -4.74935 1.76688 0.117528 0
M  V30 39 C -3.77934 2.70772 -0.43092 0
M  V30 40 H 10.2764 1.13097 2.61956 0
M  V30 41 H 11.9327 0.506774 2.59306 0
M  V30 42 H 11.5612 2.14296 1.81513 0
M  V30 43 H 11.1338 1.13359 -0.150275 0
M  V30 44 H 11.5428 -0.486108 0.617782 0
M  V30 45 H 7.76447 -1.41583 0.140661 0
M  V30 46 H 6.40805 -1.32222 1.34956 0
M  V30 47 H 6.45373 -0.834616 -1.6425 0
M  V30 48 H 5.45474 -2.02154 -0.669039 0
M  V30 49 H 3.93066 1.39525 0.767388 0
M  V30 50 H 4.78585 0.0533869 1.57754 0
M  V30 51 H 6.2138 2.13006 1.59332 0
M  V30 52 H 6.17229 2.10234 -0.238259 0
M  V30 53 H 3.51855 0.228312 -3.53152 0
M  V30 54 H 3.96368 -2.44867 -3.18381 0
M  V30 55 H 4.98781 -1.30494 -3.85612 0
M  V30 56 H 1.92196 -1.59448 -3.73963 0
M  V30 57 H 1.40333 -0.27719 -2.66263 0
M  V30 58 H 1.94007 -1.66665 -0.638581 0
M  V30 59 H 2.63284 -2.95652 -1.70379 0
M  V30 60 H 0.393216 -3.26263 -2.76595 0
M  V30 61 H 0.238794 -3.39741 -0.979169 0
M  V30 62 H -0.915653 -1.37395 -2.7059 0
M  V30 63 H 0.393015 -0.999462 1.14315 0
M  V30 64 H 0.405293 0.589584 0.368234 0
M  V30 65 H -6.01189 -2.09792 1.89162 0
M  V30 66 H -4.77864 -1.39733 2.92097 0
M  V30 67 H -4.38011 -2.14413 1.25639 0
M  V30 68 H -10.7363 0.29425 -0.424684 0
M  V30 69 H -10.4313 -1.30664 0.449897 0
M  V30 70 H -9.33325 -0.749334 -0.932167 0
M  V30 71 H -9.31712 0.497737 3.08604 0
M  V30 72 H -10.8032 0.0861435 2.19 0
M  V30 73 H -10.0837 1.78157 2.13167 0
M  V30 74 H -7.96257 -0.697249 2.50927 0
M  V30 75 H -8.01352 -1.60239 0.910531 0
M  V30 76 H -5.82368 3.5675 -1.60668 0
M  V30 77 H -6.44076 4.24371 -0.0729884 0
M  V30 78 H -7.51135 3.25151 -1.19736 0
M  V30 79 H -2.74394 2.61328 -0.174974 0
M  V30 80 H -3.92897 2.8553 -1.55325 0
M  V30 81 H -4.0873 3.72994 -0.0409587 0
M  V30 END ATOM
M  V30 BEGIN BOND
M  V30 1 1 1 2
M  V30 2 1 2 3
M  V30 3 1 3 4
M  V30 4 2 4 5
M  V30 5 1 4 6
M  V30 6 1 6 7
M  V30 7 1 7 8
M  V30 8 1 8 9
M  V30 9 1 9 10
M  V30 10 1 10 11
M  V30 11 1 9 12
M  V30 12 2 12 13
M  V30 13 1 12 14
M  V30 14 1 14 15
M  V30 15 1 14 16
M  V30 16 1 16 17
M  V30 17 1 17 18
M  V30 18 1 18 19
M  V30 19 1 19 20
M  V30 20 1 20 21
M  V30 21 2 20 22
M  V30 22 1 22 23
M  V30 23 2 23 24
M  V30 24 2 23 25
M  V30 25 1 23 26
M  V30 26 2 26 27
M  V30 27 1 27 28
M  V30 28 1 27 29
M  V30 29 2 29 30
M  V30 30 1 30 31
M  V30 31 1 31 32
M  V30 32 1 32 33
M  V30 33 1 32 34
M  V30 34 1 32 35
M  V30 35 1 30 36
M  V30 36 1 36 37
M  V30 37 2 36 38
M  V30 38 1 38 39
M  V30 39 1 11 6
M  V30 40 1 38 26
M  V30 41 1 35 29
M  V30 42 1 1 40
M  V30 43 1 1 41
M  V30 44 1 1 42
M  V30 45 1 2 43
M  V30 46 1 2 44
M  V30 47 1 7 45
M  V30 48 1 7 46
M  V30 49 1 8 47
M  V30 50 1 8 48
M  V30 51 1 10 49
M  V30 52 1 10 50
M  V30 53 1 11 51
M  V30 54 1 11 52
M  V30 55 1 14 53 CFG=3
M  V30 56 1 15 54
M  V30 57 1 15 55
M  V30 58 1 16 56
M  V30 59 1 16 57
M  V30 60 1 17 58
M  V30 61 1 17 59
M  V30 62 1 18 60
M  V30 63 1 18 61
M  V30 64 1 19 62
M  V30 65 1 21 63
M  V30 66 1 21 64
M  V30 67 1 28 65
M  V30 68 1 28 66
M  V30 69 1 28 67
M  V30 70 1 33 68
M  V30 71 1 33 69
M  V30 72 1 33 70
M  V30 73 1 34 71
M  V30 74 1 34 72
M  V30 75 1 34 73
M  V30 76 1 35 74
M  V30 77 1 35 75
M  V30 78 1 37 76
M  V30 79 1 37 77
M  V30 80 1 37 78
M  V30 81 1 39 79
M  V30 82 1 39 80
M  V30 83 1 39 81
M  V30 END BOND
M  V30 END CTAB
M  END
