
     RDKit          3D

  0  0  0  0  0  0  0  0  0  0999 V3000
M  V30 BEGIN CTAB
M  V30 COUNTS 27 29 0 0 0
M  V30 BEGIN ATOM
M  V30 1 F 5.64224 0.776472 0.843412 0
M  V30 2 C 4.32859 0.4522 0.598467 0
M  V30 3 C 3.94891 -0.0414605 -0.619156 0
M  V30 4 C 2.62579 -0.356405 -0.832865 0
M  V30 5 C 1.65593 -0.195465 0.133858 0
M  V30 6 C 2.06547 0.301768 1.34695 0
M  V30 7 C 3.4083 0.628739 1.58447 0
M  V30 8 C 0.239428 -0.54293 -0.0960598 0
M  V30 9 C -0.0881135 -1.7781 -0.64358 0
M  V30 10 N -1.37099 -2.11361 -0.852238 0
M  V30 11 C -2.34831 -1.24416 -0.52747 0
M  V30 12 N -2.06674 -0.0678185 -0.00771473 0
M  V30 13 C -0.79956 0.301882 0.21469 0
M  V30 14 N -0.486617 1.587 0.773444 0
M  V30 15 N -3.18607 0.625556 0.234225 0
M  V30 16 C -4.19126 -0.166821 -0.156756 0
M  V30 17 N -3.70557 -1.3226 -0.629218 0
M  V30 18 N -5.56387 0.239128 -0.0510676 0
M  V30 19 H 4.6781 -0.190307 -1.42586 0
M  V30 20 H 2.36128 -0.743467 -1.80482 0
M  V30 21 H 1.34737 0.438518 2.13063 0
M  V30 22 H 3.6478 1.01433 2.56528 0
M  V30 23 H 0.727622 -2.46177 -0.896601 0
M  V30 24 H 0.209667 2.21117 0.335268 0
M  V30 25 H -0.969395 1.8919 1.63218 0
M  V30 26 H -6.08418 0.638425 -0.856194 0
M  V30 27 H -6.02582 0.117823 0.87286 0
M  V30 END ATOM
M  V30 BEGIN BOND
M  V30 1 1 1 2
M  V30 2 2 2 3
M  V30 3 1 3 4
M  V30 4 2 4 5
M  V30 5 1 5 6
M  V30 6 2 6 7
M  V30 7 1 5 8
M  V30 8 1 8 9
M  V30 9 2 9 10
M  V30 10 1 10 11
M  V30 11 1 11 12
M  V30 12 1 12 13
M  V30 13 1 13 14
M  V30 14 1 12 15
M  V30 15 2 15 16
M  V30 16 1 16 17
M  V30 17 1 16 18
M  V30 18 1 7 2
M  V30 19 2 13 8
M  V30 20 2 17 11
M  V30 21 1 3 19
M  V30 22 1 4 20
M  V30 23 1 6 21
M  V30 24 1 7 22
M  V30 25 1 9 23
M  V30 26 1 14 24
M  V30 27 1 14 25
M  V30 28 1 18 26
M  V30 29 1 18 27
M  V30 END BOND
M  V30 END CTAB
M  END
