
     RDKit          3D

  0  0  0  0  0  0  0  0  0  0999 V3000
M  V30 BEGIN CTAB
M  V30 COUNTS 34 34 0 0 0
M  V30 BEGIN ATOM
M  V30 1 N 5.34358 0.992325 -0.761104 0
M  V30 2 N 3.97536 0.946318 -1.03914 0
M  V30 3 C 2.98596 0.548214 -0.0959373 0
M  V30 4 O 3.38118 0.210554 1.05094 0
M  V30 5 C 1.53847 0.536814 -0.485399 0
M  V30 6 C 0.73507 -0.367863 0.430389 0
M  V30 7 N -0.638776 -0.387844 0.106445 0
M  V30 8 C -1.36281 -1.55589 0.183868 0
M  V30 9 C -2.65662 -1.61194 -0.575216 0
M  V30 10 C -3.41482 -0.365661 -0.302522 0
M  V30 11 C -2.63754 0.876899 -0.632109 0
M  V30 12 C -1.19273 0.803182 -0.364695 0
M  V30 13 N -3.25825 1.94702 0.131018 0
M  V30 14 C 1.27616 -1.78093 0.111721 0
M  V30 15 H 5.55318 1.72399 -0.029117 0
M  V30 16 H 5.85734 1.17895 -1.6473 0
M  V30 17 H 3.63733 1.21417 -1.99479 0
M  V30 18 H 1.40766 0.147604 -1.5052 0
M  V30 19 H 1.20199 1.59282 -0.460522 0
M  V30 20 H 0.953155 -0.11536 1.46452 0
M  V30 21 H -1.60731 -1.87382 1.24584 0
M  V30 22 H -0.765488 -2.41686 -0.212316 0
M  V30 23 H -3.25943 -2.47602 -0.166086 0
M  V30 24 H -2.47703 -1.7352 -1.65682 0
M  V30 25 H -3.78735 -0.275465 0.752124 0
M  V30 26 H -4.33998 -0.372464 -0.92612 0
M  V30 27 H -2.85903 1.11081 -1.71757 0
M  V30 28 H -0.888686 1.63101 0.342093 0
M  V30 29 H -0.648473 1.08452 -1.31828 0
M  V30 30 H -2.49949 2.55268 0.483421 0
M  V30 31 H -3.92234 2.50084 -0.413684 0
M  V30 32 H 0.932561 -2.53173 0.83219 0
M  V30 33 H 2.38724 -1.71779 0.231937 0
M  V30 34 H 1.04993 -2.01388 -0.957223 0
M  V30 END ATOM
M  V30 BEGIN BOND
M  V30 1 1 1 2
M  V30 2 1 2 3
M  V30 3 2 3 4
M  V30 4 1 3 5
M  V30 5 1 5 6
M  V30 6 1 6 7
M  V30 7 1 7 8
M  V30 8 1 8 9
M  V30 9 1 9 10
M  V30 10 1 10 11
M  V30 11 1 11 12
M  V30 12 1 11 13
M  V30 13 1 6 14
M  V30 14 1 12 7
M  V30 15 1 1 15
M  V30 16 1 1 16
M  V30 17 1 2 17
M  V30 18 1 5 18
M  V30 19 1 5 19
M  V30 20 1 6 20
M  V30 21 1 8 21
M  V30 22 1 8 22
M  V30 23 1 9 23
M  V30 24 1 9 24
M  V30 25 1 10 25
M  V30 26 1 10 26
M  V30 27 1 11 27
M  V30 28 1 12 28
M  V30 29 1 12 29
M  V30 30 1 13 30
M  V30 31 1 13 31
M  V30 32 1 14 32
M  V30 33 1 14 33
M  V30 34 1 14 34
M  V30 END BOND
M  V30 END CTAB
M  END
