
     RDKit          3D

  0  0  0  0  0  0  0  0  0  0999 V3000
M  V30 BEGIN CTAB
M  V30 COUNTS 41 44 0 0 0
M  V30 BEGIN ATOM
M  V30 1 Cl 5.18458 -3.08233 -0.658196 0
M  V30 2 C 4.83702 -1.69219 0.372139 0
M  V30 3 C 5.8004 -1.13131 1.16047 0
M  V30 4 C 5.60457 -0.0483269 1.98849 0
M  V30 5 C 4.33508 0.488011 2.00324 0
M  V30 6 C 3.32028 -0.0581044 1.21022 0
M  V30 7 C 3.55161 -1.14022 0.393834 0
M  V30 8 C 2.54139 -1.79794 -0.456462 0
M  V30 9 N 1.25235 -1.18708 -0.455886 0
M  V30 10 C 1.0207 0.110268 -1.0008 0
M  V30 11 O 2.03325 0.711612 -1.50764 0
M  V30 12 C -0.255742 0.773894 -1.01659 0
M  V30 13 C -1.485 0.372395 -0.554261 0
M  V30 14 N -1.85815 -0.765266 0.0527219 0
M  V30 15 C -3.13434 -0.946809 0.42412 0
M  V30 16 C -3.56714 -2.09878 1.0512 0
M  V30 17 C -4.86799 -2.29223 1.43378 0
M  V30 18 C -5.78156 -1.29208 1.18038 0
M  V30 19 C -5.37124 -0.137004 0.556964 0
M  V30 20 C -4.05415 0.0627086 0.167886 0
M  V30 21 N -3.70022 1.20591 -0.437245 0
M  V30 22 C -2.4183 1.37489 -0.804231 0
M  V30 23 N -1.76009 2.39192 -1.42049 0
M  V30 24 C -0.474784 2.03888 -1.54859 0
M  V30 25 N 0.531024 2.87892 -2.16166 0
M  V30 26 N -2.37684 3.57637 -1.82598 0
M  V30 27 H 6.79919 -1.57976 1.1278 0
M  V30 28 H 6.41815 0.340663 2.58386 0
M  V30 29 H 4.09733 1.33826 2.62476 0
M  V30 30 H 2.33572 0.393567 1.27415 0
M  V30 31 H 2.97226 -1.89568 -1.48315 0
M  V30 32 H 2.4487 -2.84709 -0.0764411 0
M  V30 33 H 0.466166 -1.71027 -0.0439629 0
M  V30 34 H -2.83151 -2.87009 1.23936 0
M  V30 35 H -5.20221 -3.18815 1.92092 0
M  V30 36 H -6.83273 -1.40168 1.4679 0
M  V30 37 H -6.08809 0.67208 0.346977 0
M  V30 38 H 0.604453 2.96784 -3.18559 0
M  V30 39 H 1.17522 3.38865 -1.54656 0
M  V30 40 H -3.28152 3.88561 -1.38572 0
M  V30 41 H -1.98784 4.18994 -2.55644 0
M  V30 END ATOM
M  V30 BEGIN BOND
M  V30 1 1 1 2
M  V30 2 2 2 3
M  V30 3 1 3 4
M  V30 4 2 4 5
M  V30 5 1 5 6
M  V30 6 2 6 7
M  V30 7 1 7 8
M  V30 8 1 8 9
M  V30 9 1 9 10
M  V30 10 2 10 11
M  V30 11 1 10 12
M  V30 12 1 12 13
M  V30 13 2 13 14
M  V30 14 1 14 15
M  V30 15 2 15 16
M  V30 16 1 16 17
M  V30 17 2 17 18
M  V30 18 1 18 19
M  V30 19 2 19 20
M  V30 20 1 20 21
M  V30 21 2 21 22
M  V30 22 1 22 23
M  V30 23 1 23 24
M  V30 24 1 24 25
M  V30 25 1 23 26
M  V30 26 1 7 2
M  V30 27 2 24 12
M  V30 28 1 22 13
M  V30 29 1 20 15
M  V30 30 1 3 27
M  V30 31 1 4 28
M  V30 32 1 5 29
M  V30 33 1 6 30
M  V30 34 1 8 31
M  V30 35 1 8 32
M  V30 36 1 9 33
M  V30 37 1 16 34
M  V30 38 1 17 35
M  V30 39 1 18 36
M  V30 40 1 19 37
M  V30 41 1 25 38
M  V30 42 1 25 39
M  V30 43 1 26 40
M  V30 44 1 26 41
M  V30 END BOND
M  V30 END CTAB
M  END
