
     RDKit          3D

  0  0  0  0  0  0  0  0  0  0999 V3000
M  V30 BEGIN CTAB
M  V30 COUNTS 35 37 0 0 0
M  V30 BEGIN ATOM
M  V30 1 N -6.5671 -0.147189 -0.792553 0
M  V30 2 C -5.16854 -0.102278 -0.567124 0
M  V30 3 N -4.35639 -0.319738 -1.61292 0
M  V30 4 C -3.0282 -0.286874 -1.44611 0
M  V30 5 C -2.50863 -0.0278164 -0.191297 0
M  V30 6 C -1.15692 0.0139735 0.0187993 0
M  V30 7 C -0.31037 -0.206259 -1.04016 0
M  V30 8 N 1.09173 -0.163065 -0.823014 0
M  V30 9 C 1.613 0.106887 0.484029 0
M  V30 10 C 3.09211 0.0971248 0.446089 0
M  V30 11 C 3.79776 1.25224 0.187949 0
M  V30 12 C 5.17243 1.29639 0.141672 0
M  V30 13 Cl 6.08631 2.74488 -0.18282 0
M  V30 14 C 5.84914 0.122692 0.366313 0
M  V30 15 Cl 7.59585 0.0462863 0.334933 0
M  V30 16 C 5.15662 -1.04886 0.6275 0
M  V30 17 C 3.78089 -1.06388 0.667779 0
M  V30 18 C -0.788515 -0.47127 -2.3235 0
M  V30 19 C -2.14882 -0.506881 -2.50379 0
M  V30 20 C -3.34859 0.19913 0.900167 0
M  V30 21 N -2.81497 0.464885 2.18745 0
M  V30 22 N -4.66986 0.149558 0.652674 0
M  V30 23 H -7.16893 0.67275 -0.59399 0
M  V30 24 H -6.96017 -1.04944 -1.16922 0
M  V30 25 H -0.786813 0.22227 1.02748 0
M  V30 26 H 1.73543 -0.331482 -1.63257 0
M  V30 27 H 1.27737 -0.721771 1.16223 0
M  V30 28 H 1.21089 1.03909 0.924414 0
M  V30 29 H 3.2933 2.19801 0.0058296 0
M  V30 30 H 5.67834 -1.98962 0.808114 0
M  V30 31 H 3.23209 -1.99693 0.87573 0
M  V30 32 H -0.0837118 -0.642445 -3.14632 0
M  V30 33 H -2.57885 -0.7082 -3.47909 0
M  V30 34 H -2.58879 1.44605 2.48451 0
M  V30 35 H -2.6291 -0.28821 2.87782 0
M  V30 END ATOM
M  V30 BEGIN BOND
M  V30 1 1 1 2
M  V30 2 2 2 3
M  V30 3 1 3 4
M  V30 4 2 4 5
M  V30 5 1 5 6
M  V30 6 2 6 7
M  V30 7 1 7 8
M  V30 8 1 8 9
M  V30 9 1 9 10
M  V30 10 2 10 11
M  V30 11 1 11 12
M  V30 12 1 12 13
M  V30 13 2 12 14
M  V30 14 1 14 15
M  V30 15 1 14 16
M  V30 16 2 16 17
M  V30 17 1 7 18
M  V30 18 2 18 19
M  V30 19 1 5 20
M  V30 20 1 20 21
M  V30 21 2 20 22
M  V30 22 1 22 2
M  V30 23 1 19 4
M  V30 24 1 17 10
M  V30 25 1 1 23
M  V30 26 1 1 24
M  V30 27 1 6 25
M  V30 28 1 8 26
M  V30 29 1 9 27
M  V30 30 1 9 28
M  V30 31 1 11 29
M  V30 32 1 16 30
M  V30 33 1 17 31
M  V30 34 1 18 32
M  V30 35 1 19 33
M  V30 36 1 21 34
M  V30 37 1 21 35
M  V30 END BOND
M  V30 END CTAB
M  END
