
     RDKit          3D

  0  0  0  0  0  0  0  0  0  0999 V3000
M  V30 BEGIN CTAB
M  V30 COUNTS 30 30 0 0 0
M  V30 BEGIN ATOM
M  V30 1 N 4.57875 2.11958 0.865112 0
M  V30 2 N 4.48177 0.994093 0.0619092 0
M  V30 3 C 3.3809 0.344919 -0.0743628 0
M  V30 4 S 1.94499 0.918578 0.800857 0
M  V30 5 C 0.492368 -0.0906691 0.469546 0
M  V30 6 C -0.00941888 -0.00236912 -0.921606 0
M  V30 7 C -1.32003 0.68875 -1.12307 0
M  V30 8 C -2.43246 -0.251298 -1.48359 0
M  V30 9 C -3.32991 -0.646658 -0.36642 0
M  V30 10 C -2.63188 -1.31995 0.791452 0
M  V30 11 C -1.80591 -0.37251 1.57427 0
M  V30 12 C -0.5856 0.120722 1.46589 0
M  V30 13 N 3.39131 -0.784067 -0.914778 0
M  V30 14 H 4.44711 3.05283 0.454582 0
M  V30 15 H 4.78152 2.02083 1.87228 0
M  V30 16 H 0.830089 -1.16259 0.628932 0
M  V30 17 H -0.127976 -1.01955 -1.40086 0
M  V30 18 H 0.810555 0.474332 -1.53648 0
M  V30 19 H -1.19045 1.33992 -2.04661 0
M  V30 20 H -1.58351 1.43407 -0.340624 0
M  V30 21 H -1.97101 -1.15452 -1.92797 0
M  V30 22 H -3.10272 0.174329 -2.28824 0
M  V30 23 H -3.96716 0.149638 0.0181492 0
M  V30 24 H -4.03156 -1.42831 -0.780132 0
M  V30 25 H -1.92255 -2.10652 0.413567 0
M  V30 26 H -3.35647 -1.84034 1.4312 0
M  V30 27 H -2.30385 0.0196284 2.44662 0
M  V30 28 H -0.315302 0.828465 2.2746 0
M  V30 29 H 2.59199 -1.11433 -1.49622 0
M  V30 30 H 4.25642 -1.387 -1.00409 0
M  V30 END ATOM
M  V30 BEGIN BOND
M  V30 1 1 1 2
M  V30 2 2 2 3
M  V30 3 1 3 4
M  V30 4 1 4 5
M  V30 5 1 5 6
M  V30 6 1 6 7
M  V30 7 1 7 8
M  V30 8 1 8 9
M  V30 9 1 9 10
M  V30 10 1 10 11
M  V30 11 2 11 12
M  V30 12 1 3 13
M  V30 13 1 12 5
M  V30 14 1 1 14
M  V30 15 1 1 15
M  V30 16 1 5 16
M  V30 17 1 6 17
M  V30 18 1 6 18
M  V30 19 1 7 19
M  V30 20 1 7 20
M  V30 21 1 8 21
M  V30 22 1 8 22
M  V30 23 1 9 23
M  V30 24 1 9 24
M  V30 25 1 10 25
M  V30 26 1 10 26
M  V30 27 1 11 27
M  V30 28 1 12 28
M  V30 29 1 13 29
M  V30 30 1 13 30
M  V30 END BOND
M  V30 END CTAB
M  END
