
     RDKit          3D

  0  0  0  0  0  0  0  0  0  0999 V3000
M  V30 BEGIN CTAB
M  V30 COUNTS 63 63 0 0 0
M  V30 BEGIN ATOM
M  V30 1 C -7.8049 2.83632 0.219145 0
M  V30 2 C -7.1732 1.85187 -0.734855 0
M  V30 3 C -7.78655 0.472495 -0.597567 0
M  V30 4 C -7.17466 -0.515186 -1.53267 0
M  V30 5 C -5.68554 -0.689 -1.30971 0
M  V30 6 C -5.45491 -1.16819 0.0849385 0
M  V30 7 C -4.01051 -1.37695 0.420847 0
M  V30 8 C -3.18079 -0.140222 0.297571 0
M  V30 9 C -1.74735 -0.51373 0.669666 0
M  V30 10 C -0.841484 0.676819 0.572241 0
M  V30 11 C 0.587275 0.358544 0.948215 0
M  V30 12 C 1.14523 -0.687278 0.0435275 0
M  V30 13 O 2.43664 -1.08309 0.230258 0
M  V30 14 C 3.64569 -0.476327 0.158148 0
M  V30 15 C 3.83859 0.842747 -0.18132 0
M  V30 16 C 5.09598 1.40453 -0.239437 0
M  V30 17 C 6.2283 0.67666 0.0383705 0
M  V30 18 N 7.53037 1.22899 -0.0138967 0
M  V30 19 C 7.7194 2.58264 -0.362148 0
M  V30 20 N 7.50105 3.04795 -1.68158 0
M  V30 21 N 8.10059 3.4066 0.5527 0
M  V30 22 C 6.02604 -0.65216 0.379098 0
M  V30 23 C 4.79152 -1.23225 0.44409 0
M  V30 24 N 4.62349 -2.62079 0.80327 0
M  V30 25 C 5.76983 -3.3735 1.08842 0
M  V30 26 N 6.52056 -3.93635 0.0357409 0
M  V30 27 N 6.11354 -3.53451 2.32093 0
M  V30 28 H -8.72657 2.36009 0.610951 0
M  V30 29 H -8.09178 3.76503 -0.310038 0
M  V30 30 H -7.13934 3.05961 1.08721 0
M  V30 31 H -7.2697 2.23822 -1.74912 0
M  V30 32 H -6.09268 1.78342 -0.478821 0
M  V30 33 H -7.81449 0.139344 0.458937 0
M  V30 34 H -8.85893 0.586934 -0.899446 0
M  V30 35 H -7.36976 -0.163389 -2.57219 0
M  V30 36 H -7.71132 -1.47434 -1.431 0
M  V30 37 H -5.35855 -1.49006 -2.02163 0
M  V30 38 H -5.1186 0.213803 -1.53983 0
M  V30 39 H -5.9668 -2.15341 0.190615 0
M  V30 40 H -5.90439 -0.472628 0.82371 0
M  V30 41 H -3.97131 -1.7063 1.49281 0
M  V30 42 H -3.53943 -2.17701 -0.159928 0
M  V30 43 H -3.51429 0.617066 1.05249 0
M  V30 44 H -3.22848 0.335258 -0.684363 0
M  V30 45 H -1.72104 -0.953408 1.6803 0
M  V30 46 H -1.44082 -1.26522 -0.096405 0
M  V30 47 H -0.888414 1.15742 -0.41971 0
M  V30 48 H -1.20067 1.41276 1.34274 0
M  V30 49 H 0.515916 -0.0136107 2.01425 0
M  V30 50 H 1.20308 1.2509 1.00565 0
M  V30 51 H 1.03338 -0.321507 -1.01775 0
M  V30 52 H 0.503369 -1.61905 0.0822662 0
M  V30 53 H 2.97665 1.48741 -0.432126 0
M  V30 54 H 5.25283 2.45127 -0.508033 0
M  V30 55 H 8.35282 0.642537 0.203303 0
M  V30 56 H 7.11133 3.99189 -1.90297 0
M  V30 57 H 7.72871 2.44557 -2.5102 0
M  V30 58 H 8.2788 3.14117 1.5325 0
M  V30 59 H 6.91307 -1.24091 0.601417 0
M  V30 60 H 3.68561 -3.03027 0.84427 0
M  V30 61 H 6.63243 -4.95973 -0.0199815 0
M  V30 62 H 6.95379 -3.32788 -0.672196 0
M  V30 63 H 6.9714 -4.09761 2.53779 0
M  V30 END ATOM
M  V30 BEGIN BOND
M  V30 1 1 1 2
M  V30 2 1 2 3
M  V30 3 1 3 4
M  V30 4 1 4 5
M  V30 5 1 5 6
M  V30 6 1 6 7
M  V30 7 1 7 8
M  V30 8 1 8 9
M  V30 9 1 9 10
M  V30 10 1 10 11
M  V30 11 1 11 12
M  V30 12 1 12 13
M  V30 13 1 13 14
M  V30 14 2 14 15
M  V30 15 1 15 16
M  V30 16 2 16 17
M  V30 17 1 17 18
M  V30 18 1 18 19
M  V30 19 1 19 20
M  V30 20 2 19 21 CFG=2
M  V30 21 1 17 22
M  V30 22 2 22 23
M  V30 23 1 23 24
M  V30 24 1 24 25
M  V30 25 1 25 26
M  V30 26 2 25 27 CFG=2
M  V30 27 1 23 14
M  V30 28 1 1 28
M  V30 29 1 1 29
M  V30 30 1 1 30
M  V30 31 1 2 31
M  V30 32 1 2 32
M  V30 33 1 3 33
M  V30 34 1 3 34
M  V30 35 1 4 35
M  V30 36 1 4 36
M  V30 37 1 5 37
M  V30 38 1 5 38
M  V30 39 1 6 39
M  V30 40 1 6 40
M  V30 41 1 7 41
M  V30 42 1 7 42
M  V30 43 1 8 43
M  V30 44 1 8 44
M  V30 45 1 9 45
M  V30 46 1 9 46
M  V30 47 1 10 47
M  V30 48 1 10 48
M  V30 49 1 11 49
M  V30 50 1 11 50
M  V30 51 1 12 51
M  V30 52 1 12 52
M  V30 53 1 15 53
M  V30 54 1 16 54
M  V30 55 1 18 55
M  V30 56 1 20 56
M  V30 57 1 20 57
M  V30 58 1 21 58
M  V30 59 1 22 59
M  V30 60 1 24 60
M  V30 61 1 26 61
M  V30 62 1 26 62
M  V30 63 1 27 63
M  V30 END BOND
M  V30 END CTAB
M  END
