
     RDKit          3D

  0  0  0  0  0  0  0  0  0  0999 V3000
M  V30 BEGIN CTAB
M  V30 COUNTS 50 53 0 0 0
M  V30 BEGIN ATOM
M  V30 1 F -9.37999 1.43635 -0.69693 0
M  V30 2 C -8.26 0.740263 -1.00912 0
M  V30 3 C -8.15157 0.132752 -2.2355 0
M  V30 4 C -7.02476 -0.569749 -2.54763 0
M  V30 5 C -5.97183 -0.697287 -1.66523 0
M  V30 6 C -6.03038 -0.105711 -0.422332 0
M  V30 7 C -7.20383 0.609105 -0.132672 0
M  V30 8 N -4.98046 -0.0500133 0.452522 0
M  V30 9 C -3.9599 0.00413517 1.30304 0
M  V30 10 O -4.17615 0.0721237 2.61642 0
M  V30 11 C -2.51503 0.0170952 1.02265 0
M  V30 12 S -1.83573 -0.114324 -0.510844 0
M  V30 13 C -0.185331 -0.0205696 -0.0295347 0
M  V30 14 C -0.207071 0.112351 1.31723 0
M  V30 15 C -1.48485 0.131521 1.88876 0
M  V30 16 N -1.79719 0.271805 3.30699 0
M  V30 17 C 1.05446 0.212492 1.89957 0
M  V30 18 C 2.11393 0.164762 1.06386 0
M  V30 19 S 1.46975 -0.0141454 -0.49805 0
M  V30 20 C 3.55892 0.298165 1.4269 0
M  V30 21 O 3.8603 0.518093 2.6007 0
M  V30 22 N 4.45313 0.150066 0.327943 0
M  V30 23 C 5.84604 0.250691 0.373918 0
M  V30 24 C 6.55962 0.769895 1.45468 0
M  V30 25 C 7.94032 0.892037 1.41886 0
M  V30 26 F 8.62801 1.40726 2.48624 0
M  V30 27 C 8.64119 0.504658 0.32105 0
M  V30 28 C 7.98132 -0.0166665 -0.775544 0
M  V30 29 C 6.61743 -0.126524 -0.717016 0
M  V30 30 C 5.92258 -0.719682 -1.89178 0
M  V30 31 N 1.34458 0.354941 3.33444 0
M  V30 32 C -4.81682 -1.54707 -2.124 0
M  V30 33 H -8.96752 0.225295 -2.94133 0
M  V30 34 H -6.93631 -1.06033 -3.53156 0
M  V30 35 H -7.34026 1.1255 0.835357 0
M  V30 36 H -5.82189 -0.353943 1.47336 0
M  V30 37 H -1.58323 -0.531 3.90756 0
M  V30 38 H -2.2155 1.1627 3.64732 0
M  V30 39 H 4.04842 -0.0556031 -0.64641 0
M  V30 40 H 6.06225 1.09481 2.33714 0
M  V30 41 H 9.72552 0.592705 0.278082 0
M  V30 42 H 8.50782 -0.330942 -1.6519 0
M  V30 43 H 5.3564 0.0677676 -2.38502 0
M  V30 44 H 6.63517 -1.20123 -2.59745 0
M  V30 45 H 5.23193 -1.49084 -1.44436 0
M  V30 46 H 1.8924 -0.359044 3.82099 0
M  V30 47 H 0.987692 1.17941 3.83182 0
M  V30 48 H -4.32148 -1.98391 -1.24793 0
M  V30 49 H -4.10105 -0.84999 -2.61847 0
M  V30 50 H -5.17104 -2.30016 -2.85189 0
M  V30 END ATOM
M  V30 BEGIN BOND
M  V30 1 1 1 2
M  V30 2 2 2 3
M  V30 3 1 3 4
M  V30 4 2 4 5
M  V30 5 1 5 6
M  V30 6 2 6 7
M  V30 7 1 6 8
M  V30 8 1 8 9
M  V30 9 2 9 10
M  V30 10 1 9 11
M  V30 11 1 11 12
M  V30 12 1 12 13
M  V30 13 2 13 14
M  V30 14 1 14 15
M  V30 15 1 15 16
M  V30 16 1 14 17
M  V30 17 2 17 18
M  V30 18 1 18 19
M  V30 19 1 18 20
M  V30 20 2 20 21
M  V30 21 1 20 22
M  V30 22 1 22 23
M  V30 23 2 23 24
M  V30 24 1 24 25
M  V30 25 1 25 26
M  V30 26 2 25 27
M  V30 27 1 27 28
M  V30 28 2 28 29
M  V30 29 1 29 30
M  V30 30 1 17 31
M  V30 31 1 5 32
M  V30 32 1 7 2
M  V30 33 2 15 11
M  V30 34 1 29 23
M  V30 35 1 19 13
M  V30 36 1 3 33
M  V30 37 1 4 34
M  V30 38 1 7 35
M  V30 39 1 8 36
M  V30 40 1 16 37
M  V30 41 1 16 38
M  V30 42 1 22 39
M  V30 43 1 24 40
M  V30 44 1 27 41
M  V30 45 1 28 42
M  V30 46 1 30 43
M  V30 47 1 30 44
M  V30 48 1 30 45
M  V30 49 1 31 46
M  V30 50 1 31 47
M  V30 51 1 32 48
M  V30 52 1 32 49
M  V30 53 1 32 50
M  V30 END BOND
M  V30 END CTAB
M  END
