
     RDKit          3D

  0  0  0  0  0  0  0  0  0  0999 V3000
M  V30 BEGIN CTAB
M  V30 COUNTS 23 23 0 0 0
M  V30 BEGIN ATOM
M  V30 1 N 0.822533 2.89916 1.04266 0
M  V30 2 C 0.402578 1.862 0.754722 0
M  V30 3 C -0.120508 0.592044 0.39476 0
M  V30 4 C 0.727056 -0.493451 0.474561 0
M  V30 5 C 0.178172 -1.72086 0.11684 0
M  V30 6 C -1.12565 -1.84449 -0.290681 0
M  V30 7 C -1.93596 -0.735849 -0.356204 0
M  V30 8 C -1.43802 0.493528 -0.0129345 0
M  V30 9 N -2.24063 1.68211 -0.0617885 0
M  V30 10 N -3.28738 -0.817476 -0.772692 0
M  V30 11 C 2.12181 -0.349528 0.911381 0
M  V30 12 C 2.99695 0.215532 -0.137488 0
M  V30 13 O 2.5118 0.509995 -1.24785 0
M  V30 14 O 4.34687 0.435644 0.0563238 0
M  V30 15 H 0.853436 -2.57695 0.179693 0
M  V30 16 H -1.52039 -2.80082 -0.56154 0
M  V30 17 H -1.77601 2.52912 -0.45505 0
M  V30 18 H -3.22894 1.71131 0.273496 0
M  V30 19 H -3.95107 -1.51481 -0.345583 0
M  V30 20 H -3.67558 -0.196806 -1.51366 0
M  V30 21 H 2.22224 0.25856 1.85376 0
M  V30 22 H 2.46206 -1.37854 1.22346 0
M  V30 23 H 4.65463 1.24057 0.621572 0
M  V30 END ATOM
M  V30 BEGIN BOND
M  V30 1 3 1 2
M  V30 2 1 2 3
M  V30 3 2 3 4
M  V30 4 1 4 5
M  V30 5 2 5 6
M  V30 6 1 6 7
M  V30 7 2 7 8
M  V30 8 1 8 9
M  V30 9 1 7 10
M  V30 10 1 4 11
M  V30 11 1 11 12
M  V30 12 2 12 13
M  V30 13 1 12 14
M  V30 14 1 8 3
M  V30 15 1 5 15
M  V30 16 1 6 16
M  V30 17 1 9 17
M  V30 18 1 9 18
M  V30 19 1 10 19
M  V30 20 1 10 20
M  V30 21 1 11 21
M  V30 22 1 11 22
M  V30 23 1 14 23
M  V30 END BOND
M  V30 END CTAB
M  END
