
     RDKit          3D

  0  0  0  0  0  0  0  0  0  0999 V3000
M  V30 BEGIN CTAB
M  V30 COUNTS 26 26 0 0 0
M  V30 BEGIN ATOM
M  V30 1 O -1.37868 -2.18425 -0.510469 0
M  V30 2 C -1.51111 -1.40624 0.646379 0
M  V30 3 C -1.32669 0.056263 0.422425 0
M  V30 4 C 0.0460637 0.319695 -0.0535738 0
M  V30 5 C 0.334521 1.2479 -1.03598 0
M  V30 6 C 1.62149 1.46747 -1.47346 0
M  V30 7 C 2.65248 0.736852 -0.911551 0
M  V30 8 C 2.36906 -0.181978 0.0593922 0
M  V30 9 C 1.06109 -0.40491 0.502988 0
M  V30 10 N 3.44216 -0.91656 0.604995 0
M  V30 11 N -1.46334 0.719973 1.70029 0
M  V30 12 C -2.39272 0.470147 -0.57107 0
M  V30 13 H -1.69687 -1.68836 -1.28972 0
M  V30 14 H -2.58599 -1.55532 0.966208 0
M  V30 15 H -0.904933 -1.86626 1.42468 0
M  V30 16 H -0.443763 1.84257 -1.49168 0
M  V30 17 H 1.82169 2.19892 -2.22693 0
M  V30 18 H 3.65446 0.959629 -1.27846 0
M  V30 19 H 0.958319 -1.1495 1.27926 0
M  V30 20 H 3.66199 -1.85094 0.234626 0
M  V30 21 H 3.9786 -0.47762 1.37821 0
M  V30 22 H -2.06395 0.191642 2.37777 0
M  V30 23 H -1.70245 1.72245 1.63303 0
M  V30 24 H -2.8841 1.3916 -0.183539 0
M  V30 25 H -2.02251 0.620508 -1.59677 0
M  V30 26 H -3.22482 -0.263702 -0.607038 0
M  V30 END ATOM
M  V30 BEGIN BOND
M  V30 1 1 1 2
M  V30 2 1 2 3
M  V30 3 1 3 4
M  V30 4 2 4 5
M  V30 5 1 5 6
M  V30 6 2 6 7
M  V30 7 1 7 8
M  V30 8 2 8 9
M  V30 9 1 8 10
M  V30 10 1 3 11
M  V30 11 1 3 12
M  V30 12 1 9 4
M  V30 13 1 1 13
M  V30 14 1 2 14
M  V30 15 1 2 15
M  V30 16 1 5 16
M  V30 17 1 6 17
M  V30 18 1 7 18
M  V30 19 1 9 19
M  V30 20 1 10 20
M  V30 21 1 10 21
M  V30 22 1 11 22
M  V30 23 1 11 23
M  V30 24 1 12 24
M  V30 25 1 12 25
M  V30 26 1 12 26
M  V30 END BOND
M  V30 END CTAB
M  END
