
     RDKit          3D

  0  0  0  0  0  0  0  0  0  0999 V3000
M  V30 BEGIN CTAB
M  V30 COUNTS 49 53 0 0 0
M  V30 BEGIN ATOM
M  V30 1 N -1.77538 4.47648 -0.736239 0
M  V30 2 C -0.701504 3.55006 -0.560811 0
M  V30 3 C 0.568757 4.03614 -0.577084 0
M  V30 4 C 1.60872 3.15459 -0.409433 0
M  V30 5 C 1.34593 1.80514 -0.229327 0
M  V30 6 N 2.45697 0.969818 -0.0664759 0
M  V30 7 C 2.36559 -0.279892 0.105587 0
M  V30 8 C 3.60443 -1.06405 0.266426 0
M  V30 9 N 4.83438 -0.361596 0.214958 0
M  V30 10 C 3.56007 -2.36104 0.44961 0
M  V30 11 C 2.26356 -3.02881 0.493562 0
M  V30 12 N 2.18246 -4.30398 0.672232 0
M  V30 13 C 1.0312 -2.22742 0.330524 0
M  V30 14 C 1.06039 -0.910983 0.14383 0
M  V30 15 C -0.235799 -0.160784 -0.013406 0
M  V30 16 C -0.998778 -0.253616 1.26942 0
M  V30 17 C -0.29013 -0.46081 2.41694 0
M  V30 18 C -0.926634 -0.562034 3.6362 0
M  V30 19 C -2.29084 -0.45172 3.68662 0
M  V30 20 C -2.99943 -0.243884 2.53262 0
M  V30 21 C -2.35772 -0.145197 1.32845 0
M  V30 22 C -0.97615 -0.636869 -1.18911 0
M  V30 23 C -0.765359 0.0194853 -2.38185 0
M  V30 24 C -1.41601 -0.360738 -3.53228 0
M  V30 25 C -2.3011 -1.41622 -3.51793 0
M  V30 26 C -2.53404 -2.09019 -2.35133 0
M  V30 27 C -1.86767 -1.68671 -1.21352 0
M  V30 28 C 0.0691706 1.28567 -0.20844 0
M  V30 29 C -0.956814 2.1928 -0.379362 0
M  V30 30 H -2.27833 4.79222 0.0996284 0
M  V30 31 H -2.0516 4.83156 -1.68871 0
M  V30 32 H 0.736706 5.09499 -0.719968 0
M  V30 33 H 2.62213 3.52794 -0.42041 0
M  V30 34 H 5.10765 0.314395 -0.513635 0
M  V30 35 H 5.54155 -0.536065 0.983134 0
M  V30 36 H 4.46704 -2.96176 0.571142 0
M  V30 37 H 3.07101 -4.83325 0.782851 0
M  V30 38 H 0.123373 -2.79981 0.378303 0
M  V30 39 H 0.791036 -0.557597 2.4498 0
M  V30 40 H -0.387954 -0.726771 4.56545 0
M  V30 41 H -2.78815 -0.532384 4.65293 0
M  V30 42 H -4.09019 -0.156098 2.57531 0
M  V30 43 H -2.9822 0.0115508 0.45716 0
M  V30 44 H -0.0843199 0.854374 -2.48426 0
M  V30 45 H -1.24413 0.16852 -4.48655 0
M  V30 46 H -2.82678 -1.7374 -4.40655 0
M  V30 47 H -3.23361 -2.93988 -2.29517 0
M  V30 48 H -2.0575 -2.2203 -0.29211 0
M  V30 49 H -1.99399 1.92212 -0.388717 0
M  V30 END ATOM
M  V30 BEGIN BOND
M  V30 1 1 1 2
M  V30 2 2 2 3
M  V30 3 1 3 4
M  V30 4 2 4 5
M  V30 5 1 5 6
M  V30 6 2 6 7
M  V30 7 1 7 8
M  V30 8 1 8 9
M  V30 9 2 8 10
M  V30 10 1 10 11
M  V30 11 2 11 12 CFG=2
M  V30 12 1 11 13
M  V30 13 2 13 14
M  V30 14 1 14 15
M  V30 15 1 15 16
M  V30 16 2 16 17
M  V30 17 1 17 18
M  V30 18 2 18 19
M  V30 19 1 19 20
M  V30 20 2 20 21
M  V30 21 1 15 22
M  V30 22 2 22 23
M  V30 23 1 23 24
M  V30 24 2 24 25
M  V30 25 1 25 26
M  V30 26 2 26 27
M  V30 27 1 15 28
M  V30 28 2 28 29
M  V30 29 1 29 2
M  V30 30 1 28 5
M  V30 31 1 14 7
M  V30 32 1 21 16
M  V30 33 1 27 22
M  V30 34 1 1 30
M  V30 35 1 1 31
M  V30 36 1 3 32
M  V30 37 1 4 33
M  V30 38 1 9 34
M  V30 39 1 9 35
M  V30 40 1 10 36
M  V30 41 1 12 37
M  V30 42 1 13 38
M  V30 43 1 17 39
M  V30 44 1 18 40
M  V30 45 1 19 41
M  V30 46 1 20 42
M  V30 47 1 21 43
M  V30 48 1 23 44
M  V30 49 1 24 45
M  V30 50 1 25 46
M  V30 51 1 26 47
M  V30 52 1 27 48
M  V30 53 1 29 49
M  V30 END BOND
M  V30 END CTAB
M  END
