
     RDKit          3D

  0  0  0  0  0  0  0  0  0  0999 V3000
M  V30 BEGIN CTAB
M  V30 COUNTS 31 31 0 0 0
M  V30 BEGIN ATOM
M  V30 1 C 3.36234 1.20262 0.623887 0
M  V30 2 C 2.458 0.361093 -0.283716 0 CFG=2
M  V30 3 C 1.05069 0.387262 0.272536 0
M  V30 4 C 0.130954 -0.352087 -0.682651 0
M  V30 5 C -1.27304 -0.371692 -0.284342 0
M  V30 6 C -2.06422 0.744115 -0.602336 0
M  V30 7 C -1.41911 1.98458 -1.13352 0
M  V30 8 C -3.40553 0.712702 -0.348739 0
M  V30 9 C -4.03198 -0.386737 0.220856 0
M  V30 10 N -3.28219 -1.45014 0.525761 0
M  V30 11 C -1.92868 -1.42302 0.267882 0
M  V30 12 N -1.32236 -2.67951 0.580081 0
M  V30 13 O 0.596853 -1.70557 -0.550306 0
M  V30 14 N 2.98893 -1.01363 -0.180589 0
M  V30 15 H 3.85266 1.96075 -0.0532085 0
M  V30 16 H 4.14499 0.600097 1.04201 0
M  V30 17 H 2.84167 1.74137 1.37382 0
M  V30 18 H 2.50227 0.691529 -1.31962 0
M  V30 19 H 0.993065 -0.0612243 1.2681 0
M  V30 20 H 0.758523 1.45253 0.372972 0
M  V30 21 H 0.286166 -0.105843 -1.74688 0
M  V30 22 H -0.485808 1.79274 -1.68291 0
M  V30 23 H -1.21897 2.70008 -0.272121 0
M  V30 24 H -2.0956 2.56764 -1.78646 0
M  V30 25 H -4.02183 1.57325 -0.604401 0
M  V30 26 H -5.0946 -0.373331 0.405982 0
M  V30 27 H -1.13981 -3.40125 -0.157421 0
M  V30 28 H -1.03694 -2.91072 1.53151 0
M  V30 29 H 0.84873 -1.81778 0.425732 0
M  V30 30 H 3.57486 -1.28581 -0.963188 0
M  V30 31 H 3.42996 -1.13406 0.741133 0
M  V30 END ATOM
M  V30 BEGIN BOND
M  V30 1 1 1 2
M  V30 2 1 2 3
M  V30 3 1 3 4
M  V30 4 1 4 5
M  V30 5 2 5 6
M  V30 6 1 6 7
M  V30 7 1 6 8
M  V30 8 2 8 9
M  V30 9 1 9 10
M  V30 10 2 10 11
M  V30 11 1 11 12
M  V30 12 1 4 13
M  V30 13 1 2 14
M  V30 14 1 11 5
M  V30 15 1 1 15
M  V30 16 1 1 16
M  V30 17 1 1 17
M  V30 18 1 2 18 CFG=3
M  V30 19 1 3 19
M  V30 20 1 3 20
M  V30 21 1 4 21
M  V30 22 1 7 22
M  V30 23 1 7 23
M  V30 24 1 7 24
M  V30 25 1 8 25
M  V30 26 1 9 26
M  V30 27 1 12 27
M  V30 28 1 12 28
M  V30 29 1 13 29
M  V30 30 1 14 30
M  V30 31 1 14 31
M  V30 END BOND
M  V30 END CTAB
M  END
