
     RDKit          3D

  0  0  0  0  0  0  0  0  0  0999 V3000
M  V30 BEGIN CTAB
M  V30 COUNTS 40 43 0 0 0
M  V30 BEGIN ATOM
M  V30 1 N -5.08108 0.851606 -2.25598 0
M  V30 2 C -3.96512 0.865383 -1.3957 0
M  V30 3 C -2.72789 1.37087 -1.78323 0
M  V30 4 C -1.67754 1.3545 -0.893216 0
M  V30 5 C -1.8274 0.847227 0.374212 0
M  V30 6 S -0.513923 0.795091 1.57375 0
M  V30 7 S 0.49521 -1.06203 1.32992 0
M  V30 8 C 1.79837 -0.842549 0.166877 0
M  V30 9 C 3.04749 -0.466989 0.631188 0
M  V30 10 C 3.22906 -0.276063 2.00181 0
M  V30 11 C 4.46401 0.0998942 2.50532 0
M  V30 12 C 5.54113 0.294666 1.67195 0
M  V30 13 C 5.34129 0.100532 0.316388 0
M  V30 14 C 4.11727 -0.272958 -0.190884 0
M  V30 15 C 3.99237 -0.447179 -1.54368 0
M  V30 16 N 5.1079 -0.246839 -2.41985 0
M  V30 17 C 2.74646 -0.824489 -2.03277 0
M  V30 18 C 1.66786 -1.01911 -1.19423 0
M  V30 19 C -3.05711 0.353013 0.736944 0
M  V30 20 C -4.1376 0.34793 -0.118625 0
M  V30 21 C -5.36074 -0.161411 0.290748 0
M  V30 22 C -5.52105 -0.673899 1.564 0
M  V30 23 C -4.45388 -0.675387 2.42684 0
M  V30 24 C -3.25745 -0.170575 2.00835 0
M  V30 25 H -5.54125 1.73878 -2.50481 0
M  V30 26 H -5.43407 -0.0392351 -2.63325 0
M  V30 27 H -2.63591 1.76623 -2.79102 0
M  V30 28 H -0.713327 1.74473 -1.18507 0
M  V30 29 H 2.42378 -0.416102 2.67814 0
M  V30 30 H 4.55721 0.236397 3.5769 0
M  V30 31 H 6.49886 0.584661 2.04742 0
M  V30 32 H 6.20038 0.257886 -0.329053 0
M  V30 33 H 5.6741 -1.06532 -2.72367 0
M  V30 34 H 5.3719 0.695581 -2.76424 0
M  V30 35 H 2.62527 -0.968045 -3.10171 0
M  V30 36 H 0.689933 -1.31278 -1.55449 0
M  V30 37 H -6.17236 -0.139684 -0.421807 0
M  V30 38 H -6.50444 -1.05364 1.81167 0
M  V30 39 H -4.58364 -1.07391 3.41282 0
M  V30 40 H -2.42409 -0.182656 2.71203 0
M  V30 END ATOM
M  V30 BEGIN BOND
M  V30 1 1 1 2
M  V30 2 2 2 3
M  V30 3 1 3 4
M  V30 4 2 4 5
M  V30 5 1 5 6
M  V30 6 1 6 7
M  V30 7 1 7 8
M  V30 8 1 8 9
M  V30 9 2 9 10
M  V30 10 1 10 11
M  V30 11 2 11 12
M  V30 12 1 12 13
M  V30 13 2 13 14
M  V30 14 1 14 15
M  V30 15 1 15 16
M  V30 16 2 15 17
M  V30 17 1 17 18
M  V30 18 1 5 19
M  V30 19 2 19 20
M  V30 20 1 20 21
M  V30 21 2 21 22
M  V30 22 1 22 23
M  V30 23 2 23 24
M  V30 24 1 20 2
M  V30 25 2 18 8
M  V30 26 1 24 19
M  V30 27 1 14 9
M  V30 28 1 1 25
M  V30 29 1 1 26
M  V30 30 1 3 27
M  V30 31 1 4 28
M  V30 32 1 10 29
M  V30 33 1 11 30
M  V30 34 1 12 31
M  V30 35 1 13 32
M  V30 36 1 16 33
M  V30 37 1 16 34
M  V30 38 1 17 35
M  V30 39 1 18 36
M  V30 40 1 21 37
M  V30 41 1 22 38
M  V30 42 1 23 39
M  V30 43 1 24 40
M  V30 END BOND
M  V30 END CTAB
M  END
