
     RDKit          3D

  0  0  0  0  0  0  0  0  0  0999 V3000
M  V30 BEGIN CTAB
M  V30 COUNTS 38 41 0 0 0
M  V30 BEGIN ATOM
M  V30 1 N -1.54329 4.65361 -0.255746 0
M  V30 2 N -1.8857 3.37524 0.152538 0
M  V30 3 C -1.04548 2.43285 0.811411 0
M  V30 4 O 0.10358 2.63202 1.12059 0
M  V30 5 C -1.72893 1.16339 1.08807 0
M  V30 6 N -2.45381 0.862325 2.16773 0
M  V30 7 N -3.0779 -0.272705 1.98037 0
M  V30 8 N -2.7848 -0.769596 0.771872 0
M  V30 9 C -1.92968 0.0916692 0.194374 0
M  V30 10 C -1.35287 -0.0033235 -1.15052 0
M  V30 11 S -0.234699 -1.47773 -1.30477 0
M  V30 12 C 1.41121 -0.909799 -0.7782 0
M  V30 13 N 1.80246 0.378644 -0.671598 0
M  V30 14 C 3.09772 0.437346 -0.354758 0
M  V30 15 C 3.54492 -0.857379 -0.254811 0
M  V30 16 N 2.45733 -1.639 -0.527954 0
M  V30 17 C 4.84379 -1.12099 0.0424062 0
M  V30 18 C 5.79294 -0.112875 0.251301 0
M  V30 19 C 5.32484 1.19511 0.142611 0
M  V30 20 C 3.98473 1.47717 -0.15528 0
M  V30 21 C -3.59978 -1.78928 0.176122 0
M  V30 22 N -4.85972 -1.30923 -0.282217 0
M  V30 23 O -5.45695 -2.30341 -0.797531 0
M  V30 24 N -4.78597 -3.36801 -0.751675 0
M  V30 25 C -3.58514 -3.04494 -0.120227 0
M  V30 26 N -2.59667 -4.03808 0.0471864 0
M  V30 27 H -2.45653 5.2183 -0.229531 0
M  V30 28 H -0.872172 5.13597 0.35145 0
M  V30 29 H -2.90887 3.06299 -0.0673256 0
M  V30 30 H -2.21009 -0.255916 -1.84572 0
M  V30 31 H -0.829667 0.853728 -1.5197 0
M  V30 32 H 2.58371 -2.70413 -0.463304 0
M  V30 33 H 5.1937 -2.16599 0.139345 0
M  V30 34 H 6.81795 -0.373606 0.478972 0
M  V30 35 H 6.03743 1.97788 0.306936 0
M  V30 36 H 3.67607 2.50129 -0.218663 0
M  V30 37 H -2.34506 -4.589 -0.858994 0
M  V30 38 H -2.12865 -4.34453 0.878386 0
M  V30 END ATOM
M  V30 BEGIN BOND
M  V30 1 1 1 2
M  V30 2 1 2 3
M  V30 3 2 3 4
M  V30 4 1 3 5
M  V30 5 1 5 6
M  V30 6 2 6 7
M  V30 7 1 7 8
M  V30 8 1 8 9
M  V30 9 1 9 10
M  V30 10 1 10 11
M  V30 11 1 11 12
M  V30 12 2 12 13
M  V30 13 1 13 14
M  V30 14 2 14 15
M  V30 15 1 15 16
M  V30 16 1 15 17
M  V30 17 2 17 18
M  V30 18 1 18 19
M  V30 19 2 19 20
M  V30 20 1 8 21
M  V30 21 2 21 22
M  V30 22 1 22 23
M  V30 23 1 23 24
M  V30 24 2 24 25
M  V30 25 1 25 26
M  V30 26 2 9 5
M  V30 27 1 16 12
M  V30 28 1 25 21
M  V30 29 1 20 14
M  V30 30 1 1 27
M  V30 31 1 1 28
M  V30 32 1 2 29
M  V30 33 1 10 30
M  V30 34 1 10 31
M  V30 35 1 16 32
M  V30 36 1 17 33
M  V30 37 1 18 34
M  V30 38 1 19 35
M  V30 39 1 20 36
M  V30 40 1 26 37
M  V30 41 1 26 38
M  V30 END BOND
M  V30 END CTAB
M  END
