
     RDKit          3D

  0  0  0  0  0  0  0  0  0  0999 V3000
M  V30 BEGIN CTAB
M  V30 COUNTS 23 22 0 0 0
M  V30 BEGIN ATOM
M  V30 1 C -2.08719 -1.18525 0.669739 0
M  V30 2 C -0.881317 -1.35106 -0.213571 0
M  V30 3 N -0.0486475 -0.252649 -0.200936 0
M  V30 4 C -0.350481 0.977775 -0.769351 0
M  V30 5 C -1.43849 1.70351 -0.0280861 0
M  V30 6 P 1.53004 -0.443408 0.452412 0
M  V30 7 N 2.05184 1.11999 1.04372 0
M  V30 8 N 2.68287 -1.11948 -0.698775 0
M  V30 9 S 1.44835 -1.55533 1.77216 0
M  V30 10 H -2.32606 -2.15488 1.19599 0
M  V30 11 H -2.00354 -0.423748 1.44639 0
M  V30 12 H -3.02202 -0.97846 0.0915573 0
M  V30 13 H -0.315661 -2.25123 0.145507 0
M  V30 14 H -1.28203 -1.65074 -1.21594 0
M  V30 15 H -0.660684 0.944786 -1.84769 0
M  V30 16 H 0.543976 1.67009 -0.771198 0
M  V30 17 H -1.2542 1.76568 1.06843 0
M  V30 18 H -1.48428 2.78223 -0.363361 0
M  V30 19 H -2.44468 1.30306 -0.180165 0
M  V30 20 H 2.78686 1.55852 0.478144 0
M  V30 21 H 2.18843 1.15376 2.07127 0
M  V30 22 H 3.61794 -1.10902 -0.26259 0
M  V30 23 H 2.74898 -0.504157 -1.53705 0
M  V30 END ATOM
M  V30 BEGIN BOND
M  V30 1 1 1 2
M  V30 2 1 2 3
M  V30 3 1 3 4
M  V30 4 1 4 5
M  V30 5 1 3 6
M  V30 6 1 6 7
M  V30 7 1 6 8
M  V30 8 2 6 9
M  V30 9 1 1 10
M  V30 10 1 1 11
M  V30 11 1 1 12
M  V30 12 1 2 13
M  V30 13 1 2 14
M  V30 14 1 4 15
M  V30 15 1 4 16
M  V30 16 1 5 17
M  V30 17 1 5 18
M  V30 18 1 5 19
M  V30 19 1 7 20
M  V30 20 1 7 21
M  V30 21 1 8 22
M  V30 22 1 8 23
M  V30 END BOND
M  V30 END CTAB
M  END
