
     RDKit          3D

  0  0  0  0  0  0  0  0  0  0999 V3000
M  V30 BEGIN CTAB
M  V30 COUNTS 37 39 0 0 0
M  V30 BEGIN ATOM
M  V30 1 O -4.60405 0.0273987 0.129409 0
M  V30 2 C -3.3112 -0.104219 0.247135 0 CFG=1
M  V30 3 C -2.91454 -1.44991 -0.247759 0 CFG=1
M  V30 4 O -3.77925 -1.79063 -1.30962 0
M  V30 5 C -1.50891 -1.58214 -0.694574 0 CFG=2
M  V30 6 N -0.905562 -2.70001 -0.0224582 0
M  V30 7 C -0.668874 -0.375775 -0.443468 0
M  V30 8 C -1.19391 0.884037 -0.361267 0
M  V30 9 C -2.66897 1.01722 -0.535108 0 CFG=2
M  V30 10 N -3.16821 2.28818 -0.103937 0
M  V30 11 C -0.377585 1.95603 -0.12941 0
M  V30 12 C 0.97074 1.74522 0.01839 0
M  V30 13 C 1.52671 0.462342 -0.0626086 0
M  V30 14 C 0.683585 -0.588346 -0.295361 0
M  V30 15 C 2.97427 0.334551 0.10776 0
M  V30 16 C 3.58089 -0.879405 0.040668 0
M  V30 17 C 4.97131 -0.92199 0.213702 0
M  V30 18 C 5.69042 0.209756 0.440824 0
M  V30 19 C 5.03779 1.42811 0.502554 0
M  V30 20 N 3.70871 1.45781 0.335832 0
M  V30 21 H -4.99995 0.45207 -0.482631 0
M  V30 22 H -3.09041 0.00749002 1.34961 0
M  V30 23 H -3.17004 -2.19068 0.565972 0
M  V30 24 H -3.57327 -1.1183 -2.02559 0
M  V30 25 H -1.4545 -1.77525 -1.79669 0
M  V30 26 H -1.51823 -3.53587 0.0413925 0
M  V30 27 H -0.403199 -2.46016 0.843983 0
M  V30 28 H -2.88765 0.850181 -1.59848 0
M  V30 29 H -2.9651 2.48127 0.883065 0
M  V30 30 H -2.75535 3.02523 -0.719506 0
M  V30 31 H -0.816191 2.96224 -0.0662218 0
M  V30 32 H 1.62541 2.60198 0.204011 0
M  V30 33 H 1.10073 -1.60804 -0.362899 0
M  V30 34 H 3.05878 -1.79736 -0.135727 0
M  V30 35 H 5.44252 -1.88213 0.159497 0
M  V30 36 H 6.75964 0.223663 0.579455 0
M  V30 37 H 5.60344 2.34543 0.684462 0
M  V30 END ATOM
M  V30 BEGIN BOND
M  V30 1 1 1 2
M  V30 2 1 2 3
M  V30 3 1 3 4
M  V30 4 1 3 5
M  V30 5 1 5 6
M  V30 6 1 5 7
M  V30 7 2 7 8
M  V30 8 1 8 9
M  V30 9 1 9 10
M  V30 10 1 8 11
M  V30 11 2 11 12
M  V30 12 1 12 13
M  V30 13 2 13 14
M  V30 14 1 13 15
M  V30 15 2 15 16
M  V30 16 1 16 17
M  V30 17 2 17 18
M  V30 18 1 18 19
M  V30 19 2 19 20
M  V30 20 1 9 2
M  V30 21 1 20 15
M  V30 22 1 14 7
M  V30 23 1 1 21
M  V30 24 1 2 22 CFG=1
M  V30 25 1 3 23 CFG=1
M  V30 26 1 4 24
M  V30 27 1 5 25 CFG=3
M  V30 28 1 6 26
M  V30 29 1 6 27
M  V30 30 1 9 28 CFG=3
M  V30 31 1 10 29
M  V30 32 1 10 30
M  V30 33 1 11 31
M  V30 34 1 12 32
M  V30 35 1 14 33
M  V30 36 1 16 34
M  V30 37 1 17 35
M  V30 38 1 18 36
M  V30 39 1 19 37
M  V30 END BOND
M  V30 END CTAB
M  END
