
     RDKit          3D

  0  0  0  0  0  0  0  0  0  0999 V3000
M  V30 BEGIN CTAB
M  V30 COUNTS 34 35 0 0 0
M  V30 BEGIN ATOM
M  V30 1 N -3.09016 1.86981 0.769837 0
M  V30 2 C -3.22935 0.563688 0.242435 0
M  V30 3 N -4.42406 0.00995663 -0.0302748 0
M  V30 4 C -4.56718 -1.22793 -0.529859 0
M  V30 5 C -3.42005 -1.95786 -0.772054 0
M  V30 6 C -2.18041 -1.40731 -0.499183 0
M  V30 7 C -2.03974 -0.138133 0.01362 0
M  V30 8 C -0.728608 0.469183 0.312462 0 CFG=1
M  V30 9 C 0.437209 -0.449501 0.143465 0
M  V30 10 N 1.64939 0.247415 0.387337 0
M  V30 11 C 2.7242 -0.00260838 -0.510086 0
M  V30 12 C 3.1886 -1.44496 -0.270332 0
M  V30 13 N 4.28701 -1.79818 -1.14991 0
M  V30 14 C 1.51702 1.56134 0.902739 0
M  V30 15 C 0.429834 2.39578 0.299479 0
M  V30 16 O -0.523288 1.65543 -0.401437 0
M  V30 17 H -2.45453 2.04553 1.56541 0
M  V30 18 H -3.63387 2.64167 0.344049 0
M  V30 19 H -5.56222 -1.65214 -0.741294 0
M  V30 20 H -3.46335 -2.96497 -1.17783 0
M  V30 21 H -1.25702 -1.97594 -0.687884 0
M  V30 22 H -0.718687 0.789667 1.39558 0
M  V30 23 H 0.340054 -1.27183 0.899852 0
M  V30 24 H 0.502041 -0.956441 -0.830922 0
M  V30 25 H 3.55164 0.68911 -0.356214 0
M  V30 26 H 2.39558 0.0500613 -1.59117 0
M  V30 27 H 3.53647 -1.48953 0.803993 0
M  V30 28 H 2.32395 -2.10034 -0.376658 0
M  V30 29 H 4.62174 -2.74209 -0.808933 0
M  V30 30 H 5.05327 -1.09658 -1.02671 0
M  V30 31 H 1.34915 1.45172 2.01852 0
M  V30 32 H 2.5129 2.07863 0.818325 0
M  V30 33 H -0.0427113 2.9824 1.13812 0
M  V30 34 H 0.915169 3.17496 -0.335381 0
M  V30 END ATOM
M  V30 BEGIN BOND
M  V30 1 1 1 2
M  V30 2 2 2 3
M  V30 3 1 3 4
M  V30 4 2 4 5
M  V30 5 1 5 6
M  V30 6 2 6 7
M  V30 7 1 7 8
M  V30 8 1 8 9
M  V30 9 1 9 10
M  V30 10 1 10 11
M  V30 11 1 11 12
M  V30 12 1 12 13
M  V30 13 1 10 14
M  V30 14 1 14 15
M  V30 15 1 15 16
M  V30 16 1 7 2
M  V30 17 1 16 8
M  V30 18 1 1 17
M  V30 19 1 1 18
M  V30 20 1 4 19
M  V30 21 1 5 20
M  V30 22 1 6 21
M  V30 23 1 8 22 CFG=1
M  V30 24 1 9 23
M  V30 25 1 9 24
M  V30 26 1 11 25
M  V30 27 1 11 26
M  V30 28 1 12 27
M  V30 29 1 12 28
M  V30 30 1 13 29
M  V30 31 1 13 30
M  V30 32 1 14 31
M  V30 33 1 14 32
M  V30 34 1 15 33
M  V30 35 1 15 34
M  V30 END BOND
M  V30 END CTAB
M  END
