
     RDKit          3D

  0  0  0  0  0  0  0  0  0  0999 V3000
M  V30 BEGIN CTAB
M  V30 COUNTS 32 33 0 0 0
M  V30 BEGIN ATOM
M  V30 1 Cl -7.01854 1.83486 -1.106 0
M  V30 2 C -5.60536 0.957394 -0.527029 0
M  V30 3 C -5.76047 -0.364104 -0.179819 0
M  V30 4 C -4.66182 -1.0385 0.261527 0
M  V30 5 C -3.39016 -0.411577 0.36478 0
M  V30 6 C -3.27906 0.946278 -0.000795505 0
M  V30 7 C -4.39853 1.61044 -0.444704 0
M  V30 8 O -2.34499 -1.04231 0.775888 0
M  V30 9 C -1.22061 -1.54063 1.16425 0
M  V30 10 C -0.106392 -1.55587 0.0936727 0
M  V30 11 S 0.36861 0.0595624 -0.471746 0
M  V30 12 C 2.13697 0.296437 -0.338329 0
M  V30 13 N 2.70981 1.47587 -0.692552 0
M  V30 14 C 4.04338 1.65417 -0.665576 0
M  V30 15 N 4.60502 2.91234 -1.05749 0
M  V30 16 C 4.86492 0.594582 -0.262858 0
M  V30 17 C 4.30367 -0.604628 0.100675 0
M  V30 18 N 2.96472 -0.686622 0.0420685 0
M  V30 19 N 5.14568 -1.68165 0.495184 0
M  V30 20 H -6.73663 -0.81718 -0.27145 0
M  V30 21 H -4.70581 -2.08134 0.554536 0
M  V30 22 H -2.35788 1.47507 0.0606794 0
M  V30 23 H -4.34733 2.66497 -0.741513 0
M  V30 24 H -0.701435 -1.11374 2.07046 0
M  V30 25 H -1.32499 -2.64231 1.41302 0
M  V30 26 H 0.759469 -2.03788 0.594297 0
M  V30 27 H -0.4442 -2.17758 -0.74739 0
M  V30 28 H 4.10331 3.82122 -0.906737 0
M  V30 29 H 5.5429 2.93745 -1.51132 0
M  V30 30 H 5.91949 0.709105 -0.241507 0
M  V30 31 H 5.11837 -2.09396 1.45416 0
M  V30 32 H 5.81788 -2.05987 -0.220629 0
M  V30 END ATOM
M  V30 BEGIN BOND
M  V30 1 1 1 2
M  V30 2 2 2 3
M  V30 3 1 3 4
M  V30 4 2 4 5
M  V30 5 1 5 6
M  V30 6 2 6 7
M  V30 7 1 5 8
M  V30 8 1 8 9
M  V30 9 1 9 10
M  V30 10 1 10 11
M  V30 11 1 11 12
M  V30 12 2 12 13
M  V30 13 1 13 14
M  V30 14 1 14 15
M  V30 15 2 14 16
M  V30 16 1 16 17
M  V30 17 2 17 18
M  V30 18 1 17 19
M  V30 19 1 7 2
M  V30 20 1 18 12
M  V30 21 1 3 20
M  V30 22 1 4 21
M  V30 23 1 6 22
M  V30 24 1 7 23
M  V30 25 1 9 24
M  V30 26 1 9 25
M  V30 27 1 10 26
M  V30 28 1 10 27
M  V30 29 1 15 28
M  V30 30 1 15 29
M  V30 31 1 16 30
M  V30 32 1 19 31
M  V30 33 1 19 32
M  V30 END BOND
M  V30 END CTAB
M  END
