
     RDKit          3D

  0  0  0  0  0  0  0  0  0  0999 V3000
M  V30 BEGIN CTAB
M  V30 COUNTS 25 26 0 0 0
M  V30 BEGIN ATOM
M  V30 1 C 4.45361 1.43091 -0.192122 0
M  V30 2 C 3.29896 0.456475 -0.147972 0
M  V30 3 S 3.36781 -1.26586 -0.118075 0
M  V30 4 C 1.6816 -1.56859 -0.0740428 0
M  V30 5 C 1.12896 -0.313803 -0.0843551 0
M  V30 6 C 1.9728 0.717973 -0.122476 0
M  V30 7 C -0.347618 -0.159932 -0.0534697 0
M  V30 8 N -1.06177 0.995922 -0.0583815 0
M  V30 9 N -2.34576 0.759901 -0.0247204 0
M  V30 10 C -2.51055 -0.568607 0.00343902 0
M  V30 11 N -1.29131 -1.11111 -0.0144482 0
M  V30 12 N -3.7483 -1.2731 0.0446242 0
M  V30 13 C -3.44399 1.73212 -0.0174794 0
M  V30 14 N 0.997434 -2.84205 -0.0351584 0
M  V30 15 H 4.66157 1.70774 -1.26729 0
M  V30 16 H 4.15398 2.29241 0.410367 0
M  V30 17 H 5.34554 0.957516 0.278364 0
M  V30 18 H 1.6528 1.78149 -0.134607 0
M  V30 19 H -4.6356 -0.822846 -0.265137 0
M  V30 20 H -3.76768 -2.25045 0.388481 0
M  V30 21 H -4.40609 1.22494 -0.0589175 0
M  V30 22 H -3.27498 2.48686 -0.801588 0
M  V30 23 H -3.38158 2.25472 0.973071 0
M  V30 24 H 0.962564 -3.38091 0.858062 0
M  V30 25 H 0.537599 -3.24172 -0.866964 0
M  V30 END ATOM
M  V30 BEGIN BOND
M  V30 1 1 1 2
M  V30 2 1 2 3
M  V30 3 1 3 4
M  V30 4 2 4 5
M  V30 5 1 5 6
M  V30 6 1 5 7
M  V30 7 2 7 8
M  V30 8 1 8 9
M  V30 9 1 9 10
M  V30 10 2 10 11
M  V30 11 1 10 12
M  V30 12 1 9 13
M  V30 13 1 4 14
M  V30 14 2 6 2
M  V30 15 1 11 7
M  V30 16 1 1 15
M  V30 17 1 1 16
M  V30 18 1 1 17
M  V30 19 1 6 18
M  V30 20 1 12 19
M  V30 21 1 12 20
M  V30 22 1 13 21
M  V30 23 1 13 22
M  V30 24 1 13 23
M  V30 25 1 14 24
M  V30 26 1 14 25
M  V30 END BOND
M  V30 END CTAB
M  END
