
     RDKit          3D

  0  0  0  0  0  0  0  0  0  0999 V3000
M  V30 BEGIN CTAB
M  V30 COUNTS 18 18 0 0 0
M  V30 BEGIN ATOM
M  V30 1 N 3.99075 -0.643213 -0.113655 0
M  V30 2 N 2.57757 -0.68468 -0.150736 0
M  V30 3 C 1.86231 0.383614 -0.0646912 0
M  V30 4 C 0.392275 0.325152 -0.104734 0
M  V30 5 C -0.230658 -0.885947 -0.23582 0
M  V30 6 C -1.60204 -0.920072 -0.271163 0
M  V30 7 C -2.33353 0.235044 -0.177131 0
M  V30 8 N -1.6888 1.40031 -0.0499493 0
M  V30 9 C -0.35055 1.47955 -0.0110391 0
M  V30 10 N -3.74634 0.193962 -0.214096 0
M  V30 11 H 4.48395 -1.07824 -0.911587 0
M  V30 12 H 4.5152 -0.207044 0.659156 0
M  V30 13 H 2.38031 1.32588 0.0381167 0
M  V30 14 H 0.318219 -1.83203 -0.314019 0
M  V30 15 H -2.13913 -1.88134 -0.376198 0
M  V30 16 H 0.139773 2.45295 0.0940671 0
M  V30 17 H -4.32764 1.04992 -0.119387 0
M  V30 18 H -4.24166 -0.713836 -0.339547 0
M  V30 END ATOM
M  V30 BEGIN BOND
M  V30 1 1 1 2
M  V30 2 2 2 3
M  V30 3 1 3 4
M  V30 4 2 4 5
M  V30 5 1 5 6
M  V30 6 2 6 7
M  V30 7 1 7 8
M  V30 8 2 8 9
M  V30 9 1 7 10
M  V30 10 1 9 4
M  V30 11 1 1 11
M  V30 12 1 1 12
M  V30 13 1 3 13
M  V30 14 1 5 14
M  V30 15 1 6 15
M  V30 16 1 9 16
M  V30 17 1 10 17
M  V30 18 1 10 18
M  V30 END BOND
M  V30 END CTAB
M  END
