
     RDKit          3D

  0  0  0  0  0  0  0  0  0  0999 V3000
M  V30 BEGIN CTAB
M  V30 COUNTS 50 52 0 0 0
M  V30 BEGIN ATOM
M  V30 1 C -4.47463 -3.3213 0.290613 0
M  V30 2 C -3.0942 -3.29723 0.877951 0
M  V30 3 O -2.15906 -2.56943 0.157213 0
M  V30 4 C -2.27807 -1.21984 -0.0643768 0
M  V30 5 C -3.31575 -0.446449 0.408835 0
M  V30 6 C -3.36112 0.918037 0.140167 0
M  V30 7 C -4.32346 1.98482 0.504272 0
M  V30 8 C -3.51029 3.23775 0.237743 0
M  V30 9 O -2.5866 2.83923 -0.756312 0
M  V30 10 C -2.35341 1.47878 -0.604665 0
M  V30 11 C -1.28197 0.715807 -1.1011 0
M  V30 12 C -1.24694 -0.619005 -0.831589 0
M  V30 13 C -0.200863 -1.51933 -1.32191 0
M  V30 14 N 0.825837 -0.817872 -2.02553 0
M  V30 15 C 1.7524 0.0860674 -1.45695 0
M  V30 16 O 1.75577 0.357131 -0.23293 0
M  V30 17 C 2.75439 0.738604 -2.32478 0
M  V30 18 S 4.22302 -0.361052 -2.32695 0
M  V30 19 C 4.86254 -0.316819 -0.639172 0
M  V30 20 N 5.75915 0.570159 -0.236786 0
M  V30 21 C 6.24336 0.612403 1.02372 0
M  V30 22 N 7.20474 1.57124 1.43735 0
M  V30 23 C 5.7543 -0.331696 1.90349 0
M  V30 24 C 4.82053 -1.27434 1.52943 0
M  V30 25 N 4.40259 -1.22885 0.245796 0
M  V30 26 N 4.30452 -2.25065 2.41109 0
M  V30 27 C -4.33457 4.39189 -0.235735 0
M  V30 28 H -5.21672 -3.01337 1.05459 0
M  V30 29 H -4.53861 -2.65951 -0.61891 0
M  V30 30 H -4.72247 -4.35489 0.0111477 0
M  V30 31 H -2.73322 -4.36414 1.01562 0
M  V30 32 H -3.19002 -2.93835 1.94358 0
M  V30 33 H -4.11892 -0.874164 1.00994 0
M  V30 34 H -4.60909 1.92667 1.56759 0
M  V30 35 H -5.21689 1.9706 -0.165708 0
M  V30 36 H -2.94618 3.47185 1.1716 0
M  V30 37 H -0.52674 1.20098 -1.69866 0
M  V30 38 H 0.248397 -2.13342 -0.496674 0
M  V30 39 H -0.667751 -2.27414 -2.00163 0
M  V30 40 H 0.905799 -0.985655 -3.07327 0
M  V30 41 H 3.03055 1.75075 -1.96699 0
M  V30 42 H 2.37279 0.882166 -3.37136 0
M  V30 43 H 6.98858 2.59626 1.3425 0
M  V30 44 H 8.13126 1.34022 1.83773 0
M  V30 45 H 6.10405 -0.34842 2.92717 0
M  V30 46 H 3.29153 -2.27111 2.61758 0
M  V30 47 H 4.92495 -2.94796 2.85536 0
M  V30 48 H -4.33178 5.15496 0.595129 0
M  V30 49 H -5.38509 4.0413 -0.357486 0
M  V30 50 H -3.93664 4.90131 -1.12028 0
M  V30 END ATOM
M  V30 BEGIN BOND
M  V30 1 1 1 2
M  V30 2 1 2 3
M  V30 3 1 3 4
M  V30 4 2 4 5
M  V30 5 1 5 6
M  V30 6 1 6 7
M  V30 7 1 7 8
M  V30 8 1 8 9
M  V30 9 1 9 10
M  V30 10 1 10 11
M  V30 11 2 11 12
M  V30 12 1 12 13
M  V30 13 1 13 14
M  V30 14 1 14 15
M  V30 15 2 15 16
M  V30 16 1 15 17
M  V30 17 1 17 18
M  V30 18 1 18 19
M  V30 19 2 19 20
M  V30 20 1 20 21
M  V30 21 1 21 22
M  V30 22 2 21 23
M  V30 23 1 23 24
M  V30 24 2 24 25
M  V30 25 1 24 26
M  V30 26 1 8 27
M  V30 27 1 12 4
M  V30 28 1 25 19
M  V30 29 2 10 6
M  V30 30 1 1 28
M  V30 31 1 1 29
M  V30 32 1 1 30
M  V30 33 1 2 31
M  V30 34 1 2 32
M  V30 35 1 5 33
M  V30 36 1 7 34
M  V30 37 1 7 35
M  V30 38 1 8 36
M  V30 39 1 11 37
M  V30 40 1 13 38
M  V30 41 1 13 39
M  V30 42 1 14 40
M  V30 43 1 17 41
M  V30 44 1 17 42
M  V30 45 1 22 43
M  V30 46 1 22 44
M  V30 47 1 23 45
M  V30 48 1 26 46
M  V30 49 1 26 47
M  V30 50 1 27 48
M  V30 51 1 27 49
M  V30 52 1 27 50
M  V30 END BOND
M  V30 END CTAB
M  END
