
     RDKit          3D

  0  0  0  0  0  0  0  0  0  0999 V3000
M  V30 BEGIN CTAB
M  V30 COUNTS 31 31 0 0 0
M  V30 BEGIN ATOM
M  V30 1 C -2.18561 -2.09376 0.981182 0
M  V30 2 C -1.6988 -0.925536 0.14961 0
M  V30 3 C -2.8189 0.0131242 -0.218259 0
M  V30 4 C -3.50973 0.610586 0.9715 0
M  V30 5 C -2.23083 1.14637 -1.0278 0
M  V30 6 O -0.676124 -0.307859 0.860109 0
M  V30 7 C 0.643744 -0.158323 0.531963 0
M  V30 8 C 1.17933 -0.635768 -0.635781 0
M  V30 9 C 2.53693 -0.468075 -0.946638 0
M  V30 10 C 3.37491 0.189119 -0.0740163 0
M  V30 11 C 2.8031 0.659814 1.09764 0
M  V30 12 N 1.50387 0.482304 1.3624 0
M  V30 13 N 3.668 1.34757 2.01652 0
M  V30 14 N 4.75525 0.372575 -0.365188 0
M  V30 15 H -1.39418 -2.49075 1.6533 0
M  V30 16 H -2.45315 -2.92869 0.293974 0
M  V30 17 H -3.11775 -1.85324 1.53555 0
M  V30 18 H -1.30277 -1.32381 -0.800505 0
M  V30 19 H -3.58266 -0.499066 -0.834102 0
M  V30 20 H -4.1812 -0.0998472 1.49335 0
M  V30 21 H -4.18141 1.41619 0.576213 0
M  V30 22 H -2.81411 1.12219 1.66427 0
M  V30 23 H -1.51809 0.787561 -1.76939 0
M  V30 24 H -1.64093 1.7834 -0.307565 0
M  V30 25 H -3.02536 1.80353 -1.41626 0
M  V30 26 H 0.578885 -1.1587 -1.36103 0
M  V30 27 H 2.92209 -0.860407 -1.88057 0
M  V30 28 H 4.6915 1.19246 2.02509 0
M  V30 29 H 3.23436 2.01508 2.68292 0
M  V30 30 H 5.01058 0.692747 -1.30992 0
M  V30 31 H 5.42907 0.169213 0.404321 0
M  V30 END ATOM
M  V30 BEGIN BOND
M  V30 1 1 1 2
M  V30 2 1 2 3
M  V30 3 1 3 4
M  V30 4 1 3 5
M  V30 5 1 2 6
M  V30 6 1 6 7
M  V30 7 2 7 8
M  V30 8 1 8 9
M  V30 9 2 9 10
M  V30 10 1 10 11
M  V30 11 2 11 12
M  V30 12 1 11 13
M  V30 13 1 10 14
M  V30 14 1 12 7
M  V30 15 1 1 15
M  V30 16 1 1 16
M  V30 17 1 1 17
M  V30 18 1 2 18
M  V30 19 1 3 19
M  V30 20 1 4 20
M  V30 21 1 4 21
M  V30 22 1 4 22
M  V30 23 1 5 23
M  V30 24 1 5 24
M  V30 25 1 5 25
M  V30 26 1 8 26
M  V30 27 1 9 27
M  V30 28 1 13 28
M  V30 29 1 13 29
M  V30 30 1 14 30
M  V30 31 1 14 31
M  V30 END BOND
M  V30 END CTAB
M  END
