
     RDKit          3D

  0  0  0  0  0  0  0  0  0  0999 V3000
M  V30 BEGIN CTAB
M  V30 COUNTS 48 48 0 0 0
M  V30 BEGIN ATOM
M  V30 1 N 0.431018 0.40389 3.06221 0
M  V30 2 C 1.06872 0.180999 1.78609 0 CFG=1
M  V30 3 C 1.75458 -1.18153 1.78685 0
M  V30 4 C 2.45334 -1.5023 0.505709 0
M  V30 5 C 3.56043 -0.54288 0.138071 0
M  V30 6 N 4.14196 -0.983054 -1.11656 0
M  V30 7 C 5.23208 -0.35178 -1.75771 0
M  V30 8 N 6.34667 -0.995871 -1.94711 0
M  V30 9 N 5.10844 0.9872 -2.19506 0
M  V30 10 N 5.74097 2.06159 -1.53645 0 CHG=1
M  V30 11 O 5.02484 3.17582 -1.25635 0 CHG=-1
M  V30 12 O 6.93778 1.93214 -1.24202 0
M  V30 13 C 0.0841068 0.285489 0.642559 0
M  V30 14 N -0.979454 -0.608128 0.632788 0
M  V30 15 C -2.02182 -0.590363 1.53931 0
M  V30 16 C -3.00484 0.548063 1.49352 0
M  V30 17 C -3.71847 0.598437 0.169716 0
M  V30 18 C -3.18102 1.3682 -0.828333 0
M  V30 19 C -3.81843 1.42046 -2.04454 0
M  V30 20 C -4.9868 0.701255 -2.24829 0
M  V30 21 C -5.53022 -0.0732152 -1.24713 0
M  V30 22 N -6.72431 -0.804546 -1.47646 0
M  V30 23 C -4.88358 -0.121819 -0.0233513 0
M  V30 24 H -0.0569851 1.29359 3.04274 0
M  V30 25 H 1.01597 0.252284 3.86143 0
M  V30 26 H 1.86396 0.939609 1.70144 0
M  V30 27 H 0.919022 -1.93348 1.87094 0
M  V30 28 H 2.41322 -1.22782 2.67529 0
M  V30 29 H 1.70109 -1.61243 -0.280786 0
M  V30 30 H 2.95173 -2.5034 0.665845 0
M  V30 31 H 4.32014 -0.527492 0.943145 0
M  V30 32 H 3.12453 0.459168 0.0250992 0
M  V30 33 H 3.74975 -1.83528 -1.6174 0
M  V30 34 H 6.44463 -1.98311 -1.62793 0
M  V30 35 H 4.51519 1.1538 -3.04738 0
M  V30 36 H -0.201782 1.37308 0.577484 0
M  V30 37 H 0.682636 0.13311 -0.302236 0
M  V30 38 H -0.93221 -1.39812 -0.0430808 0
M  V30 39 H -2.67096 -1.50832 1.31077 0
M  V30 40 H -1.76008 -0.750984 2.60156 0
M  V30 41 H -2.57777 1.53631 1.6652 0
M  V30 42 H -3.79653 0.385084 2.25603 0
M  V30 43 H -2.26582 1.9393 -0.685573 0
M  V30 44 H -3.36972 2.03785 -2.81136 0
M  V30 45 H -5.48387 0.740914 -3.19821 0
M  V30 46 H -7.58339 -0.618415 -0.891005 0
M  V30 47 H -6.7633 -1.54672 -2.2402 0
M  V30 48 H -5.27546 -0.706582 0.771166 0
M  V30 END ATOM
M  V30 BEGIN BOND
M  V30 1 1 1 2
M  V30 2 1 2 3
M  V30 3 1 3 4
M  V30 4 1 4 5
M  V30 5 1 5 6
M  V30 6 1 6 7
M  V30 7 2 7 8 CFG=2
M  V30 8 1 7 9
M  V30 9 1 9 10
M  V30 10 1 10 11
M  V30 11 2 10 12
M  V30 12 1 2 13
M  V30 13 1 13 14
M  V30 14 1 14 15
M  V30 15 1 15 16
M  V30 16 1 16 17
M  V30 17 2 17 18
M  V30 18 1 18 19
M  V30 19 2 19 20
M  V30 20 1 20 21
M  V30 21 1 21 22
M  V30 22 2 21 23
M  V30 23 1 23 17
M  V30 24 1 1 24
M  V30 25 1 1 25
M  V30 26 1 2 26 CFG=3
M  V30 27 1 3 27
M  V30 28 1 3 28
M  V30 29 1 4 29
M  V30 30 1 4 30
M  V30 31 1 5 31
M  V30 32 1 5 32
M  V30 33 1 6 33
M  V30 34 1 8 34
M  V30 35 1 9 35
M  V30 36 1 13 36
M  V30 37 1 13 37
M  V30 38 1 14 38
M  V30 39 1 15 39
M  V30 40 1 15 40
M  V30 41 1 16 41
M  V30 42 1 16 42
M  V30 43 1 18 43
M  V30 44 1 19 44
M  V30 45 1 20 45
M  V30 46 1 22 46
M  V30 47 1 22 47
M  V30 48 1 23 48
M  V30 END BOND
M  V30 END CTAB
M  END
