
     RDKit          3D

  0  0  0  0  0  0  0  0  0  0999 V3000
M  V30 BEGIN CTAB
M  V30 COUNTS 52 53 0 0 0
M  V30 BEGIN ATOM
M  V30 1 N 0.361186 2.8072 -0.0237677 0
M  V30 2 C 1.52707 2.03799 -0.22148 0
M  V30 3 C 1.38369 0.610623 -0.633507 0
M  V30 4 C 0.607615 0.474329 -1.90884 0
M  V30 5 C 0.490511 -0.971633 -2.29172 0
M  V30 6 C -0.212021 -1.81467 -1.27654 0
M  V30 7 C -1.57614 -1.26081 -1.10501 0
M  V30 8 N -2.46164 -1.19129 -2.19991 0
M  V30 9 N -1.94409 -0.84765 0.0448098 0
M  V30 10 N -3.22131 -0.32761 0.209583 0
M  V30 11 C -4.13199 -0.98526 1.06525 0
M  V30 12 O -3.75521 -2.03485 1.65798 0
M  V30 13 C -5.49714 -0.481939 1.28197 0
M  V30 14 C -6.37877 -1.22708 2.02761 0
M  V30 15 C -7.67783 -0.778793 2.25701 0
M  V30 16 C -8.11009 0.428 1.73921 0
M  V30 17 C -7.22068 1.16453 0.995597 0
M  V30 18 C -5.90963 0.717632 0.760616 0
M  V30 19 N 2.67126 2.55823 -0.0481852 0
M  V30 20 N 3.83525 1.7691 -0.251087 0
M  V30 21 C 4.29758 1.01198 0.838139 0
M  V30 22 O 3.69796 1.04266 1.92721 0
M  V30 23 C 5.4808 0.186046 0.702112 0
M  V30 24 C 5.82334 -0.670048 1.74417 0
M  V30 25 C 6.93482 -1.46724 1.66497 0
M  V30 26 C 7.7662 -1.46423 0.559215 0
M  V30 27 C 7.41198 -0.612734 -0.459632 0
M  V30 28 C 6.29064 0.203165 -0.4001 0
M  V30 29 H 0.191731 3.40064 0.80333 0
M  V30 30 H -0.371866 2.76883 -0.765077 0
M  V30 31 H 2.40282 0.168041 -0.836058 0
M  V30 32 H 0.967167 0.0111238 0.194935 0
M  V30 33 H -0.402849 0.930539 -1.84925 0
M  V30 34 H 1.15816 0.998369 -2.74059 0
M  V30 35 H 1.52675 -1.36284 -2.51296 0
M  V30 36 H -0.0449171 -1.05041 -3.26398 0
M  V30 37 H 0.361016 -1.82222 -0.342164 0
M  V30 38 H -0.247239 -2.87444 -1.63383 0
M  V30 39 H -2.17126 -0.712979 -3.09391 0
M  V30 40 H -3.41253 -1.61806 -2.12125 0
M  V30 41 H -3.47153 0.534871 -0.306827 0
M  V30 42 H -6.07401 -2.18222 2.45097 0
M  V30 43 H -8.38994 -1.34802 2.8404 0
M  V30 44 H -9.11885 0.772928 1.91846 0
M  V30 45 H -7.5577 2.10535 0.592203 0
M  V30 46 H -5.25428 1.3225 0.178711 0
M  V30 47 H 4.29367 1.78883 -1.20566 0
M  V30 48 H 5.20025 -0.705666 2.63003 0
M  V30 49 H 7.18977 -2.12973 2.48111 0
M  V30 50 H 8.64695 -2.10789 0.518503 0
M  V30 51 H 8.03519 -0.57785 -1.34624 0
M  V30 52 H 6.06016 0.86546 -1.24652 0
M  V30 END ATOM
M  V30 BEGIN BOND
M  V30 1 1 1 2
M  V30 2 1 2 3
M  V30 3 1 3 4
M  V30 4 1 4 5
M  V30 5 1 5 6
M  V30 6 1 6 7
M  V30 7 1 7 8
M  V30 8 2 7 9 CFG=2
M  V30 9 1 9 10
M  V30 10 1 10 11
M  V30 11 2 11 12
M  V30 12 1 11 13
M  V30 13 2 13 14
M  V30 14 1 14 15
M  V30 15 2 15 16
M  V30 16 1 16 17
M  V30 17 2 17 18
M  V30 18 2 2 19 CFG=2
M  V30 19 1 19 20
M  V30 20 1 20 21
M  V30 21 2 21 22
M  V30 22 1 21 23
M  V30 23 2 23 24
M  V30 24 1 24 25
M  V30 25 2 25 26
M  V30 26 1 26 27
M  V30 27 2 27 28
M  V30 28 1 18 13
M  V30 29 1 28 23
M  V30 30 1 1 29
M  V30 31 1 1 30
M  V30 32 1 3 31
M  V30 33 1 3 32
M  V30 34 1 4 33
M  V30 35 1 4 34
M  V30 36 1 5 35
M  V30 37 1 5 36
M  V30 38 1 6 37
M  V30 39 1 6 38
M  V30 40 1 8 39
M  V30 41 1 8 40
M  V30 42 1 10 41
M  V30 43 1 14 42
M  V30 44 1 15 43
M  V30 45 1 16 44
M  V30 46 1 17 45
M  V30 47 1 18 46
M  V30 48 1 20 47
M  V30 49 1 24 48
M  V30 50 1 25 49
M  V30 51 1 26 50
M  V30 52 1 27 51
M  V30 53 1 28 52
M  V30 END BOND
M  V30 END CTAB
M  END
