
     RDKit          3D

  0  0  0  0  0  0  0  0  0  0999 V3000
M  V30 BEGIN CTAB
M  V30 COUNTS 22 22 0 0 0
M  V30 BEGIN ATOM
M  V30 1 N -3.27096 1.24726 -1.46917 0
M  V30 2 C -2.0371 0.608374 -1.12094 0
M  V30 3 N -1.33978 -0.0778852 -2.03722 0
M  V30 4 C -0.191237 -0.690176 -1.77466 0
M  V30 5 C 0.316588 -0.608215 -0.452401 0
M  V30 6 C -0.388888 0.0907138 0.493529 0
M  V30 7 C -1.58094 0.711709 0.169947 0
M  V30 8 N -2.33662 1.44784 1.13726 0
M  V30 9 O 1.45451 -1.22151 -0.205601 0
M  V30 10 C 2.43074 -1.54547 0.633637 0
M  V30 11 C 3.30259 -0.468237 1.22233 0
M  V30 12 F 4.26541 -1.04333 2.06884 0
M  V30 13 F 4.04492 0.177266 0.236278 0
M  V30 14 F 2.63926 0.455086 1.97002 0
M  V30 15 H -3.2793 2.18993 -1.91555 0
M  V30 16 H -4.17534 0.795991 -1.28926 0
M  V30 17 H 0.36078 -1.24207 -2.52951 0
M  V30 18 H -0.0886959 0.193673 1.5326 0
M  V30 19 H -3.28783 1.13091 1.42444 0
M  V30 20 H -1.94766 2.3002 1.56059 0
M  V30 21 H 1.99269 -2.11094 1.5371 0
M  V30 22 H 3.11686 -2.34113 0.207321 0
M  V30 END ATOM
M  V30 BEGIN BOND
M  V30 1 1 1 2
M  V30 2 2 2 3
M  V30 3 1 3 4
M  V30 4 2 4 5
M  V30 5 1 5 6
M  V30 6 2 6 7
M  V30 7 1 7 8
M  V30 8 1 5 9
M  V30 9 1 9 10
M  V30 10 1 10 11
M  V30 11 1 11 12
M  V30 12 1 11 13
M  V30 13 1 11 14
M  V30 14 1 7 2
M  V30 15 1 1 15
M  V30 16 1 1 16
M  V30 17 1 4 17
M  V30 18 1 6 18
M  V30 19 1 8 19
M  V30 20 1 8 20
M  V30 21 1 10 21
M  V30 22 1 10 22
M  V30 END BOND
M  V30 END CTAB
M  END
