
     RDKit          3D

  0  0  0  0  0  0  0  0  0  0999 V3000
M  V30 BEGIN CTAB
M  V30 COUNTS 40 41 0 0 0
M  V30 BEGIN ATOM
M  V30 1 N 6.37642 -1.37482 -2.34962 0
M  V30 2 S 5.98396 -1.69825 -0.685646 0
M  V30 3 O 5.67613 -3.16997 -0.604964 0
M  V30 4 O 7.07655 -1.30869 0.237627 0
M  V30 5 C 4.56927 -0.737684 -0.303932 0
M  V30 6 C 4.78191 0.53512 0.181805 0
M  V30 7 C 3.6847 1.30567 0.487585 0
M  V30 8 C 2.37984 0.85392 0.326929 0
M  V30 9 C 1.23418 1.731 0.675155 0
M  V30 10 N -0.0228589 1.06799 0.360098 0
M  V30 11 C -1.15328 1.91533 0.701195 0
M  V30 12 C -2.39565 1.18163 0.355873 0
M  V30 13 C -2.97078 0.377695 1.31076 0
M  V30 14 C -4.12436 -0.291692 0.961669 0
M  V30 15 C -4.7155 -0.192591 -0.278725 0
M  V30 16 C -4.11148 0.623193 -1.21306 0
M  V30 17 C -2.93974 1.31846 -0.895304 0
M  V30 18 S -6.18404 -1.06165 -0.682542 0
M  V30 19 N -5.83023 -2.62169 -1.34747 0
M  V30 20 O -7.10834 -1.18963 0.470852 0
M  V30 21 O -6.89029 -0.278809 -1.77662 0
M  V30 22 C 2.19357 -0.418321 -0.158803 0
M  V30 23 C 3.2887 -1.2232 -0.477736 0
M  V30 24 H 5.46314 -1.27949 -2.84767 0
M  V30 25 H 6.95205 -0.50667 -2.42799 0
M  V30 26 H 5.80459 0.90781 0.314856 0
M  V30 27 H 3.82382 2.3242 0.876576 0
M  V30 28 H 1.25183 2.0158 1.73803 0
M  V30 29 H 1.31199 2.65793 0.0731341 0
M  V30 30 H -0.0533822 0.773508 -0.645325 0
M  V30 31 H -1.12151 2.89224 0.180481 0
M  V30 32 H -1.12805 2.07184 1.79867 0
M  V30 33 H -2.51496 0.284379 2.30776 0
M  V30 34 H -4.60438 -0.931508 1.68381 0
M  V30 35 H -4.55566 0.717161 -2.19194 0
M  V30 36 H -2.46227 1.95577 -1.61576 0
M  V30 37 H -4.85199 -2.85781 -1.00296 0
M  V30 38 H -6.45569 -3.34968 -0.908129 0
M  V30 39 H 1.19211 -0.792874 -0.292002 0
M  V30 40 H 3.14967 -2.22562 -0.86056 0
M  V30 END ATOM
M  V30 BEGIN BOND
M  V30 1 1 1 2
M  V30 2 2 2 3
M  V30 3 2 2 4
M  V30 4 1 2 5
M  V30 5 2 5 6
M  V30 6 1 6 7
M  V30 7 2 7 8
M  V30 8 1 8 9
M  V30 9 1 9 10
M  V30 10 1 10 11
M  V30 11 1 11 12
M  V30 12 2 12 13
M  V30 13 1 13 14
M  V30 14 2 14 15
M  V30 15 1 15 16
M  V30 16 2 16 17
M  V30 17 1 15 18
M  V30 18 1 18 19
M  V30 19 2 18 20
M  V30 20 2 18 21
M  V30 21 1 8 22
M  V30 22 2 22 23
M  V30 23 1 23 5
M  V30 24 1 17 12
M  V30 25 1 1 24
M  V30 26 1 1 25
M  V30 27 1 6 26
M  V30 28 1 7 27
M  V30 29 1 9 28
M  V30 30 1 9 29
M  V30 31 1 10 30
M  V30 32 1 11 31
M  V30 33 1 11 32
M  V30 34 1 13 33
M  V30 35 1 14 34
M  V30 36 1 16 35
M  V30 37 1 17 36
M  V30 38 1 19 37
M  V30 39 1 19 38
M  V30 40 1 22 39
M  V30 41 1 23 40
M  V30 END BOND
M  V30 END CTAB
M  END
