
     RDKit          3D

  0  0  0  0  0  0  0  0  0  0999 V3000
M  V30 BEGIN CTAB
M  V30 COUNTS 29 30 0 0 0
M  V30 BEGIN ATOM
M  V30 1 N -1.10945 -0.244133 3.00701 0
M  V30 2 N -0.00682374 -0.0572604 2.21558 0
M  V30 3 C 0.0502776 -0.042855 0.91361 0
M  V30 4 C 1.35635 0.173348 0.352914 0
M  V30 5 C 2.49573 -0.0643771 1.16208 0
M  V30 6 C 3.78221 -0.0114554 0.729015 0
M  V30 7 Br 5.26789 -0.348531 1.8979 0
M  V30 8 C 3.98654 0.296836 -0.596809 0
M  V30 9 C 2.94719 0.542626 -1.44657 0
M  V30 10 C 1.63473 0.477706 -0.948689 0
M  V30 11 N 0.653745 0.883104 -1.88434 0
M  V30 12 C -1.1868 -0.238092 0.229832 0
M  V30 13 C -1.35024 -1.04909 -0.893218 0
M  V30 14 C -2.55069 -1.11904 -1.54335 0
M  V30 15 C -3.66342 -0.417212 -1.15399 0
M  V30 16 C -3.51821 0.386098 -0.0478747 0
M  V30 17 C -2.32665 0.482097 0.629667 0
M  V30 18 H -1.50652 0.462264 3.67156 0
M  V30 19 H -1.59844 -1.18667 2.93626 0
M  V30 20 H 2.30486 -0.309602 2.21698 0
M  V30 21 H 5.03758 0.331996 -0.925182 0
M  V30 22 H 3.13845 0.78444 -2.49294 0
M  V30 23 H 0.585555 0.437297 -2.80809 0
M  V30 24 H 0.0102634 1.64221 -1.62617 0
M  V30 25 H -0.502702 -1.66746 -1.23981 0
M  V30 26 H -2.63422 -1.77072 -2.42549 0
M  V30 27 H -4.58792 -0.505155 -1.69805 0
M  V30 28 H -4.39309 0.963216 0.292015 0
M  V30 29 H -2.31619 1.16842 1.47616 0
M  V30 END ATOM
M  V30 BEGIN BOND
M  V30 1 1 1 2
M  V30 2 2 2 3
M  V30 3 1 3 4
M  V30 4 2 4 5
M  V30 5 1 5 6
M  V30 6 1 6 7
M  V30 7 2 6 8
M  V30 8 1 8 9
M  V30 9 2 9 10
M  V30 10 1 10 11
M  V30 11 1 3 12
M  V30 12 2 12 13
M  V30 13 1 13 14
M  V30 14 2 14 15
M  V30 15 1 15 16
M  V30 16 2 16 17
M  V30 17 1 10 4
M  V30 18 1 17 12
M  V30 19 1 1 18
M  V30 20 1 1 19
M  V30 21 1 5 20
M  V30 22 1 8 21
M  V30 23 1 9 22
M  V30 24 1 11 23
M  V30 25 1 11 24
M  V30 26 1 13 25
M  V30 27 1 14 26
M  V30 28 1 15 27
M  V30 29 1 16 28
M  V30 30 1 17 29
M  V30 END BOND
M  V30 END CTAB
M  END
