
     RDKit          3D

  0  0  0  0  0  0  0  0  0  0999 V3000
M  V30 BEGIN CTAB
M  V30 COUNTS 24 24 0 0 0
M  V30 BEGIN ATOM
M  V30 1 C -2.86642 -0.365034 -1.13291 0
M  V30 2 C -1.69784 -0.596987 -0.213945 0
M  V30 3 C -0.45898 -0.123888 -0.931757 0 CFG=2
M  V30 4 C 0.765215 -0.306037 -0.112222 0
M  V30 5 N 0.985292 -0.9992 0.996174 0
M  V30 6 N 2.25015 -0.849686 1.35153 0
M  V30 7 C 2.86983 -0.0376733 0.450561 0
M  V30 8 N 1.92862 0.280878 -0.43934 0
M  V30 9 N 4.21421 0.391362 0.435176 0
M  V30 10 N -0.55914 1.28782 -1.24666 0
M  V30 11 C -1.95262 0.210729 1.04661 0
M  V30 12 H -3.07598 0.71679 -1.16674 0
M  V30 13 H -2.70891 -0.721799 -2.13752 0
M  V30 14 H -3.75149 -0.84432 -0.665046 0
M  V30 15 H -1.60654 -1.67805 0.00649043 0
M  V30 16 H -0.33932 -0.70859 -1.85079 0
M  V30 17 H 2.75739 -1.25938 2.17749 0
M  V30 18 H 4.77677 0.274414 -0.423139 0
M  V30 19 H 4.64273 0.820416 1.27014 0
M  V30 20 H 0.00754488 1.43829 -2.11288 0
M  V30 21 H -0.0845194 1.83467 -0.491215 0
M  V30 22 H -3.03836 0.285374 1.26515 0
M  V30 23 H -1.4785 -0.300214 1.91983 0
M  V30 24 H -1.57912 1.25011 0.947543 0
M  V30 END ATOM
M  V30 BEGIN BOND
M  V30 1 1 1 2
M  V30 2 1 2 3
M  V30 3 1 3 4
M  V30 4 2 4 5
M  V30 5 1 5 6
M  V30 6 1 6 7
M  V30 7 2 7 8
M  V30 8 1 7 9
M  V30 9 1 3 10
M  V30 10 1 2 11
M  V30 11 1 8 4
M  V30 12 1 1 12
M  V30 13 1 1 13
M  V30 14 1 1 14
M  V30 15 1 2 15
M  V30 16 1 3 16 CFG=3
M  V30 17 1 6 17
M  V30 18 1 9 18
M  V30 19 1 9 19
M  V30 20 1 10 20
M  V30 21 1 10 21
M  V30 22 1 11 22
M  V30 23 1 11 23
M  V30 24 1 11 24
M  V30 END BOND
M  V30 END CTAB
M  END
