
     RDKit          3D

  0  0  0  0  0  0  0  0  0  0999 V3000
M  V30 BEGIN CTAB
M  V30 COUNTS 25 25 0 0 0
M  V30 BEGIN ATOM
M  V30 1 N -1.53858 -2.51529 -0.0607914 0
M  V30 2 C -0.580037 -1.59296 -0.631065 0
M  V30 3 C -0.402911 -0.388268 0.277641 0 CFG=2
M  V30 4 C -1.77569 0.263223 0.391648 0
M  V30 5 O -1.95752 1.24766 -0.580936 0
M  V30 6 C -1.12321 2.33912 -0.377691 0
M  V30 7 C 0.149772 1.87541 0.264581 0
M  V30 8 N 0.530238 0.556605 -0.25814 0
M  V30 9 S 2.15108 0.279398 0.275185 0
M  V30 10 O 2.27949 0.431778 1.76857 0
M  V30 11 O 3.00643 1.33594 -0.406426 0
M  V30 12 N 2.74575 -1.25237 -0.211848 0
M  V30 13 H -2.34503 -2.7016 -0.697189 0
M  V30 14 H -1.09774 -3.44698 0.142643 0
M  V30 15 H -0.947384 -1.27659 -1.62892 0
M  V30 16 H 0.379173 -2.12272 -0.814273 0
M  V30 17 H -0.143737 -0.731523 1.2987 0
M  V30 18 H -2.57138 -0.498599 0.204543 0
M  V30 19 H -1.95986 0.651504 1.41799 0
M  V30 20 H -0.866296 2.80832 -1.3645 0
M  V30 21 H -1.57458 3.12206 0.255149 0
M  V30 22 H 0.0652953 1.81134 1.36538 0
M  V30 23 H 1.00726 2.56129 0.0557758 0
M  V30 24 H 3.4414 -1.56027 0.490496 0
M  V30 25 H 3.12807 -1.19648 -1.17652 0
M  V30 END ATOM
M  V30 BEGIN BOND
M  V30 1 1 1 2
M  V30 2 1 2 3
M  V30 3 1 3 4
M  V30 4 1 4 5
M  V30 5 1 5 6
M  V30 6 1 6 7
M  V30 7 1 7 8
M  V30 8 1 8 9
M  V30 9 2 9 10
M  V30 10 2 9 11
M  V30 11 1 9 12
M  V30 12 1 8 3
M  V30 13 1 1 13
M  V30 14 1 1 14
M  V30 15 1 2 15
M  V30 16 1 2 16
M  V30 17 1 3 17 CFG=1
M  V30 18 1 4 18
M  V30 19 1 4 19
M  V30 20 1 6 20
M  V30 21 1 6 21
M  V30 22 1 7 22
M  V30 23 1 7 23
M  V30 24 1 12 24
M  V30 25 1 12 25
M  V30 END BOND
M  V30 END CTAB
M  END
