
     RDKit          3D

  0  0  0  0  0  0  0  0  0  0999 V3000
M  V30 BEGIN CTAB
M  V30 COUNTS 42 44 0 0 0
M  V30 BEGIN ATOM
M  V30 1 N 4.94695 0.997811 3.37563 0
M  V30 2 C 4.89099 0.124804 2.23045 0
M  V30 3 S 5.33349 -1.51838 2.09603 0
M  V30 4 C 4.95637 -1.75672 0.451211 0
M  V30 5 C 4.49043 -0.49884 0.0854859 0
M  V30 6 N 4.4773 0.402753 1.00515 0
M  V30 7 C 4.06006 -0.263188 -1.34608 0
M  V30 8 C 2.639 -0.596194 -1.61387 0
M  V30 9 C 1.67215 0.204737 -0.867607 0
M  V30 10 O 2.04455 1.26025 -0.29515 0
M  V30 11 N 0.301417 -0.130849 -0.741066 0
M  V30 12 C -0.692819 0.618371 -0.0248443 0
M  V30 13 C -1.93688 0.303923 -0.833026 0 CFG=1
M  V30 14 C -1.7938 -1.20584 -0.964899 0 CFG=2
M  V30 15 C -0.305809 -1.30343 -1.32933 0
M  V30 16 N -2.62641 -1.75076 -1.99394 0
M  V30 17 C -3.17838 0.694272 -0.151257 0
M  V30 18 C -4.06914 1.52717 -0.809359 0
M  V30 19 C -5.24869 1.94228 -0.252265 0
M  V30 20 C -5.54563 1.49905 1.02551 0
M  V30 21 C -4.66843 0.668205 1.69567 0
M  V30 22 C -3.4838 0.265233 1.10728 0
M  V30 23 H 4.69585 0.668378 4.32273 0
M  V30 24 H 5.24452 1.9771 3.25163 0
M  V30 25 H 5.04345 -2.65272 -0.190051 0
M  V30 26 H 4.2366 0.79847 -1.62214 0
M  V30 27 H 4.70009 -0.860611 -2.03587 0
M  V30 28 H 2.49414 -1.66261 -1.24912 0
M  V30 29 H 2.40603 -0.648085 -2.70623 0
M  V30 30 H -0.482799 1.70103 0.0231547 0
M  V30 31 H -0.80354 0.154666 0.978852 0
M  V30 32 H -1.86472 0.750558 -1.83142 0
M  V30 33 H -1.95299 -1.71883 -0.0183024 0
M  V30 34 H 0.13467 -2.24868 -0.998758 0
M  V30 35 H -0.273168 -1.29332 -2.43569 0
M  V30 36 H -3.5859 -1.34298 -1.87581 0
M  V30 37 H -2.28019 -1.3471 -2.91342 0
M  V30 38 H -3.81719 1.86763 -1.81957 0
M  V30 39 H -5.96285 2.59524 -0.749045 0
M  V30 40 H -6.49034 1.83215 1.47056 0
M  V30 41 H -4.9152 0.325173 2.70507 0
M  V30 42 H -2.78937 -0.380105 1.61217 0
M  V30 END ATOM
M  V30 BEGIN BOND
M  V30 1 1 1 2
M  V30 2 1 2 3
M  V30 3 1 3 4
M  V30 4 2 4 5
M  V30 5 1 5 6
M  V30 6 1 5 7
M  V30 7 1 7 8
M  V30 8 1 8 9
M  V30 9 2 9 10
M  V30 10 1 9 11
M  V30 11 1 11 12
M  V30 12 1 12 13
M  V30 13 1 13 14
M  V30 14 1 14 15
M  V30 15 1 14 16
M  V30 16 1 13 17
M  V30 17 2 17 18
M  V30 18 1 18 19
M  V30 19 2 19 20
M  V30 20 1 20 21
M  V30 21 2 21 22
M  V30 22 2 6 2
M  V30 23 1 15 11
M  V30 24 1 22 17
M  V30 25 1 1 23
M  V30 26 1 1 24
M  V30 27 1 4 25
M  V30 28 1 7 26
M  V30 29 1 7 27
M  V30 30 1 8 28
M  V30 31 1 8 29
M  V30 32 1 12 30
M  V30 33 1 12 31
M  V30 34 1 13 32 CFG=3
M  V30 35 1 14 33 CFG=1
M  V30 36 1 15 34
M  V30 37 1 15 35
M  V30 38 1 16 36
M  V30 39 1 16 37
M  V30 40 1 18 38
M  V30 41 1 19 39
M  V30 42 1 20 40
M  V30 43 1 21 41
M  V30 44 1 22 42
M  V30 END BOND
M  V30 END CTAB
M  END
