
     RDKit          3D

  0  0  0  0  0  0  0  0  0  0999 V3000
M  V30 BEGIN CTAB
M  V30 COUNTS 31 32 0 0 0
M  V30 BEGIN ATOM
M  V30 1 N 4.56963 -0.879656 1.23358 0
M  V30 2 C 3.64014 -0.179567 0.444213 0
M  V30 3 N 4.08451 0.939459 -0.167788 0
M  V30 4 C 3.23751 1.64802 -0.9352 0
M  V30 5 C 1.91337 1.23122 -1.09733 0
M  V30 6 C 1.43726 0.0935 -0.483297 0
M  V30 7 C 2.3178 -0.621636 0.299887 0
M  V30 8 C 0.0663187 -0.359263 -0.636737 0
M  V30 9 C -0.910614 0.164198 0.362789 0
M  V30 10 C -2.26616 -0.427257 0.0226157 0
M  V30 11 C -2.44277 -1.91145 0.0268364 0
M  V30 12 C -3.09132 0.352518 -1.01637 0
M  V30 13 C -3.50287 0.38598 0.41058 0
M  V30 14 N -1.05526 1.55394 0.428487 0
M  V30 15 H 5.28317 -1.49724 0.806516 0
M  V30 16 H 4.55172 -0.78504 2.26409 0
M  V30 17 H 3.53942 2.56117 -1.45504 0
M  V30 18 H 1.20126 1.77026 -1.70396 0
M  V30 19 H 2.02419 -1.52783 0.817803 0
M  V30 20 H 0.0667211 -1.48506 -0.53133 0
M  V30 21 H -0.302384 -0.165344 -1.67318 0
M  V30 22 H -0.626581 -0.235027 1.35961 0
M  V30 23 H -2.2339 -2.35089 1.0157 0
M  V30 24 H -1.8642 -2.42099 -0.789531 0
M  V30 25 H -3.51009 -2.11949 -0.196944 0
M  V30 26 H -3.73678 -0.267375 -1.67197 0
M  V30 27 H -2.60408 1.22198 -1.47012 0
M  V30 28 H -3.32886 1.35821 0.929221 0
M  V30 29 H -4.39093 -0.167727 0.77231 0
M  V30 30 H -0.9505 2.11334 -0.39856 0
M  V30 31 H -1.11572 2.00705 1.33622 0
M  V30 END ATOM
M  V30 BEGIN BOND
M  V30 1 1 1 2
M  V30 2 2 2 3
M  V30 3 1 3 4
M  V30 4 2 4 5
M  V30 5 1 5 6
M  V30 6 2 6 7
M  V30 7 1 6 8
M  V30 8 1 8 9
M  V30 9 1 9 10
M  V30 10 1 10 11
M  V30 11 1 10 12
M  V30 12 1 12 13
M  V30 13 1 9 14
M  V30 14 1 7 2
M  V30 15 1 13 10
M  V30 16 1 1 15
M  V30 17 1 1 16
M  V30 18 1 4 17
M  V30 19 1 5 18
M  V30 20 1 7 19
M  V30 21 1 8 20
M  V30 22 1 8 21
M  V30 23 1 9 22
M  V30 24 1 11 23
M  V30 25 1 11 24
M  V30 26 1 11 25
M  V30 27 1 12 26
M  V30 28 1 12 27
M  V30 29 1 13 28
M  V30 30 1 13 29
M  V30 31 1 14 30
M  V30 32 1 14 31
M  V30 END BOND
M  V30 END CTAB
M  END
