
     RDKit          3D

  0  0  0  0  0  0  0  0  0  0999 V3000
M  V30 BEGIN CTAB
M  V30 COUNTS 25 26 0 0 0
M  V30 BEGIN ATOM
M  V30 1 N -4.50718 1.25097 -0.575592 0
M  V30 2 C -3.29796 0.532952 -0.355856 0
M  V30 3 C -3.23072 -0.839662 -0.419415 0
M  V30 4 C -2.07423 -1.55376 -0.210978 0
M  V30 5 C -0.914965 -0.841268 0.0793113 0
M  V30 6 O 0.241643 -1.5403 0.288904 0
M  V30 7 C 1.44928 -0.966425 0.580093 0
M  V30 8 C 2.27165 -0.506252 -0.42164 0
M  V30 9 C 3.50119 0.0760351 -0.093138 0
M  V30 10 N 4.37448 0.560788 -1.09459 0
M  V30 11 N 3.86439 0.178463 1.20895 0
M  V30 12 C 3.04393 -0.277365 2.15164 0
M  V30 13 N 1.84219 -0.848096 1.85702 0
M  V30 14 C -0.921303 0.536264 0.1563 0
M  V30 15 C -2.11302 1.20465 -0.0623569 0
M  V30 16 H -5.3997 0.733179 -0.593612 0
M  V30 17 H -4.52599 2.27838 -0.719166 0
M  V30 18 H -4.13764 -1.38739 -0.645764 0
M  V30 19 H -2.08887 -2.63292 -0.275543 0
M  V30 20 H 2.0078 -0.574706 -1.46948 0
M  V30 21 H 4.68889 1.55668 -1.10859 0
M  V30 22 H 4.71531 -0.0915313 -1.84069 0
M  V30 23 H 3.33226 -0.196155 3.18208 0
M  V30 24 H 0.000561466 1.05575 0.384566 0
M  V30 25 H -2.122 2.29172 -0.00246405 0
M  V30 END ATOM
M  V30 BEGIN BOND
M  V30 1 1 1 2
M  V30 2 2 2 3
M  V30 3 1 3 4
M  V30 4 2 4 5
M  V30 5 1 5 6
M  V30 6 1 6 7
M  V30 7 2 7 8
M  V30 8 1 8 9
M  V30 9 1 9 10
M  V30 10 2 9 11
M  V30 11 1 11 12
M  V30 12 2 12 13
M  V30 13 1 5 14
M  V30 14 2 14 15
M  V30 15 1 15 2
M  V30 16 1 13 7
M  V30 17 1 1 16
M  V30 18 1 1 17
M  V30 19 1 3 18
M  V30 20 1 4 19
M  V30 21 1 8 20
M  V30 22 1 10 21
M  V30 23 1 10 22
M  V30 24 1 12 23
M  V30 25 1 14 24
M  V30 26 1 15 25
M  V30 END BOND
M  V30 END CTAB
M  END
