
     RDKit          3D

  0  0  0  0  0  0  0  0  0  0999 V3000
M  V30 BEGIN CTAB
M  V30 COUNTS 46 49 0 0 0
M  V30 BEGIN ATOM
M  V30 1 O -4.38367 -1.87839 0.950433 0
M  V30 2 C -3.64451 -0.975983 0.482897 0
M  V30 3 C -2.18578 -1.19943 0.607284 0
M  V30 4 C -1.29951 -0.266399 0.124376 0
M  V30 5 C 0.0898564 -0.488639 0.247726 0
M  V30 6 C 0.432517 -1.6568 0.859886 0
M  V30 7 N -0.449368 -2.57457 1.33484 0
M  V30 8 C -1.78723 -2.36559 1.21869 0
M  V30 9 N -2.73061 -3.29387 1.69882 0
M  V30 10 S 2.13138 -1.61774 0.84832 0
M  V30 11 C 2.36683 -0.119088 0.0664831 0
M  V30 12 C 1.09648 0.316506 -0.167731 0
M  V30 13 N 0.909155 1.59749 -0.838031 0
M  V30 14 C 3.65885 0.527236 -0.264504 0
M  V30 15 O 3.59084 1.61071 -0.831006 0
M  V30 16 N 4.82169 -0.184043 0.113226 0
M  V30 17 C 6.15462 0.214338 -0.087988 0
M  V30 18 C 6.54986 1.37223 -0.691013 0
M  V30 19 C 7.91027 1.68487 -0.847281 0
M  V30 20 C 8.8695 0.813857 -0.387094 0
M  V30 21 C 8.50469 -0.34912 0.218747 0
M  V30 22 C 7.16574 -0.634532 0.360899 0
M  V30 23 Br 6.74176 -2.28634 1.22188 0
M  V30 24 N -4.1945 0.170257 -0.11883 0
M  V30 25 C -5.55712 0.459029 -0.270672 0
M  V30 26 C -6.61155 -0.15503 0.353418 0
M  V30 27 C -7.95004 0.181878 0.127545 0
M  V30 28 C -8.25202 1.18134 -0.764814 0
M  V30 29 C -7.22253 1.82263 -1.41144 0
M  V30 30 C -5.91735 1.47266 -1.17199 0
M  V30 31 H -1.64086 0.638003 -0.349979 0
M  V30 32 H -3.11887 -3.30713 2.67034 0
M  V30 33 H -3.08461 -4.03556 1.05351 0
M  V30 34 H 0.411084 1.61706 -1.74426 0
M  V30 35 H 1.25612 2.48837 -0.440719 0
M  V30 36 H 4.64792 -1.13032 0.606775 0
M  V30 37 H 5.84906 2.0731 -1.06094 0
M  V30 38 H 8.21615 2.59623 -1.32194 0
M  V30 39 H 9.93522 1.03515 -0.497166 0
M  V30 40 H 9.27843 -1.04108 0.584395 0
M  V30 41 H -3.51823 0.874872 -0.482125 0
M  V30 42 H -6.44881 -0.936656 1.07159 0
M  V30 43 H -8.75176 -0.325257 0.638187 0
M  V30 44 H -9.28466 1.45733 -0.954113 0
M  V30 45 H -7.4439 2.62626 -2.1299 0
M  V30 46 H -5.11055 1.99018 -1.69383 0
M  V30 END ATOM
M  V30 BEGIN BOND
M  V30 1 2 1 2
M  V30 2 1 2 3
M  V30 3 2 3 4
M  V30 4 1 4 5
M  V30 5 2 5 6
M  V30 6 1 6 7
M  V30 7 2 7 8
M  V30 8 1 8 9
M  V30 9 1 6 10
M  V30 10 1 10 11
M  V30 11 2 11 12
M  V30 12 1 12 13
M  V30 13 1 11 14
M  V30 14 2 14 15
M  V30 15 1 14 16
M  V30 16 1 16 17
M  V30 17 2 17 18
M  V30 18 1 18 19
M  V30 19 2 19 20
M  V30 20 1 20 21
M  V30 21 2 21 22
M  V30 22 1 22 23
M  V30 23 1 2 24
M  V30 24 1 24 25
M  V30 25 2 25 26
M  V30 26 1 26 27
M  V30 27 2 27 28
M  V30 28 1 28 29
M  V30 29 2 29 30
M  V30 30 1 8 3
M  V30 31 1 22 17
M  V30 32 1 30 25
M  V30 33 1 12 5
M  V30 34 1 4 31
M  V30 35 1 9 32
M  V30 36 1 9 33
M  V30 37 1 13 34
M  V30 38 1 13 35
M  V30 39 1 16 36
M  V30 40 1 18 37
M  V30 41 1 19 38
M  V30 42 1 20 39
M  V30 43 1 21 40
M  V30 44 1 24 41
M  V30 45 1 26 42
M  V30 46 1 27 43
M  V30 47 1 28 44
M  V30 48 1 29 45
M  V30 49 1 30 46
M  V30 END BOND
M  V30 END CTAB
M  END
