
     RDKit          3D

  0  0  0  0  0  0  0  0  0  0999 V3000
M  V30 BEGIN CTAB
M  V30 COUNTS 35 35 0 0 0
M  V30 BEGIN ATOM
M  V30 1 N 4.52805 -0.924268 -1.42568 0
M  V30 2 C 4.7926 0.00179877 -0.338813 0
M  V30 3 C 4.02324 -0.468504 0.85919 0
M  V30 4 N 2.59645 -0.532279 0.655926 0
M  V30 5 C 1.83676 0.596437 0.335855 0
M  V30 6 O 2.41493 1.70567 0.223644 0
M  V30 7 C 0.385475 0.53232 0.12578 0
M  V30 8 C -0.306246 1.69293 -0.189624 0
M  V30 9 C -1.66758 1.67811 -0.394884 0
M  V30 10 C -2.38971 2.91934 -0.729437 0
M  V30 11 C -2.33381 0.479275 -0.279997 0
M  V30 12 C -1.70065 -0.700524 0.0299311 0
M  V30 13 C -0.318063 -0.624109 0.227308 0
M  V30 14 S -2.58134 -2.17131 0.161123 0
M  V30 15 O -3.16206 -2.60641 -1.15168 0
M  V30 16 O -1.59848 -3.26275 0.564711 0
M  V30 17 N -3.8034 -2.14333 1.36636 0
M  V30 18 C -3.79882 0.460642 -0.500386 0
M  V30 19 H 5.28124 -1.64177 -1.44518 0
M  V30 20 H 4.48677 -0.421705 -2.33692 0
M  V30 21 H 4.58031 1.03053 -0.624413 0
M  V30 22 H 5.88139 -0.0324864 -0.0941027 0
M  V30 23 H 4.25405 0.279308 1.67902 0
M  V30 24 H 4.4483 -1.41831 1.25842 0
M  V30 25 H 2.17385 -1.50246 0.76882 0
M  V30 26 H 0.268852 2.62598 -0.270412 0
M  V30 27 H -1.7497 3.80558 -0.758377 0
M  V30 28 H -2.8266 2.80898 -1.75249 0
M  V30 29 H -3.24381 3.10563 -0.0504227 0
M  V30 30 H 0.170163 -1.55894 0.470821 0
M  V30 31 H -3.45473 -2.53678 2.25508 0
M  V30 32 H -4.69134 -2.58559 1.04478 0
M  V30 33 H -4.28068 0.252231 0.498992 0
M  V30 34 H -4.02675 -0.301093 -1.2502 0
M  V30 35 H -4.18865 1.45785 -0.793727 0
M  V30 END ATOM
M  V30 BEGIN BOND
M  V30 1 1 1 2
M  V30 2 1 2 3
M  V30 3 1 3 4
M  V30 4 1 4 5
M  V30 5 2 5 6
M  V30 6 1 5 7
M  V30 7 2 7 8
M  V30 8 1 8 9
M  V30 9 1 9 10
M  V30 10 2 9 11
M  V30 11 1 11 12
M  V30 12 2 12 13
M  V30 13 1 12 14
M  V30 14 2 14 15
M  V30 15 2 14 16
M  V30 16 1 14 17
M  V30 17 1 11 18
M  V30 18 1 13 7
M  V30 19 1 1 19
M  V30 20 1 1 20
M  V30 21 1 2 21
M  V30 22 1 2 22
M  V30 23 1 3 23
M  V30 24 1 3 24
M  V30 25 1 4 25
M  V30 26 1 8 26
M  V30 27 1 10 27
M  V30 28 1 10 28
M  V30 29 1 10 29
M  V30 30 1 13 30
M  V30 31 1 17 31
M  V30 32 1 17 32
M  V30 33 1 18 33
M  V30 34 1 18 34
M  V30 35 1 18 35
M  V30 END BOND
M  V30 END CTAB
M  END
