
     RDKit          3D

  0  0  0  0  0  0  0  0  0  0999 V3000
M  V30 BEGIN CTAB
M  V30 COUNTS 37 38 0 0 0
M  V30 BEGIN ATOM
M  V30 1 N -2.02802 2.91688 -0.321415 0
M  V30 2 C -0.709275 2.78825 0.0740341 0
M  V30 3 C -0.400776 1.5053 0.747964 0
M  V30 4 N -0.626713 0.374094 -0.094471 0
M  V30 5 C -1.98382 0.153708 -0.314585 0
M  V30 6 C -2.44629 -1.27455 -0.487348 0
M  V30 7 C -2.00591 -2.22096 0.569825 0
M  V30 8 C -0.799861 -2.96668 0.0179914 0
M  V30 9 C 0.107913 -1.91118 -0.607997 0
M  V30 10 C 0.207592 -0.716936 0.284646 0 CFG=1
M  V30 11 C 1.6341 -0.279492 0.300764 0
M  V30 12 N 2.49471 -0.620881 1.26498 0
M  V30 13 N 3.67078 -0.0790881 1.0049 0
M  V30 14 C 3.59558 0.639875 -0.156626 0
M  V30 15 C 2.30606 0.503665 -0.588179 0
M  V30 16 N 4.66734 1.36822 -0.757398 0
M  V30 17 H -2.71527 3.05431 0.371403 0
M  V30 18 H -2.2559 3.0432 -1.28411 0
M  V30 19 H -0.0203614 2.95485 -0.814678 0
M  V30 20 H -0.454433 3.65356 0.747806 0
M  V30 21 H -1.10147 1.3646 1.63217 0
M  V30 22 H 0.606834 1.49268 1.23231 0
M  V30 23 H -2.30225 0.649717 -1.28606 0
M  V30 24 H -2.61094 0.59533 0.478735 0
M  V30 25 H -3.57562 -1.22674 -0.420452 0
M  V30 26 H -2.25288 -1.67375 -1.49027 0
M  V30 27 H -1.86609 -1.81574 1.56932 0
M  V30 28 H -2.79154 -3.02756 0.695369 0
M  V30 29 H -0.29578 -3.59656 0.753901 0
M  V30 30 H -1.16051 -3.60851 -0.80723 0
M  V30 31 H -0.22651 -1.63903 -1.62661 0
M  V30 32 H 1.09884 -2.39828 -0.740225 0
M  V30 33 H -0.0565067 -0.970726 1.33828 0
M  V30 34 H 2.30457 -1.2292 2.12182 0
M  V30 35 H 1.90581 0.943167 -1.47775 0
M  V30 36 H 5.13436 0.988346 -1.58536 0
M  V30 37 H 4.95225 2.26611 -0.345476 0
M  V30 END ATOM
M  V30 BEGIN BOND
M  V30 1 1 1 2
M  V30 2 1 2 3
M  V30 3 1 3 4
M  V30 4 1 4 5
M  V30 5 1 5 6
M  V30 6 1 6 7
M  V30 7 1 7 8
M  V30 8 1 8 9
M  V30 9 1 9 10
M  V30 10 1 10 11
M  V30 11 1 11 12
M  V30 12 1 12 13
M  V30 13 2 13 14
M  V30 14 1 14 15
M  V30 15 1 14 16
M  V30 16 1 10 4
M  V30 17 2 15 11
M  V30 18 1 1 17
M  V30 19 1 1 18
M  V30 20 1 2 19
M  V30 21 1 2 20
M  V30 22 1 3 21
M  V30 23 1 3 22
M  V30 24 1 5 23
M  V30 25 1 5 24
M  V30 26 1 6 25
M  V30 27 1 6 26
M  V30 28 1 7 27
M  V30 29 1 7 28
M  V30 30 1 8 29
M  V30 31 1 8 30
M  V30 32 1 9 31
M  V30 33 1 9 32
M  V30 34 1 10 33 CFG=1
M  V30 35 1 12 34
M  V30 36 1 15 35
M  V30 37 1 16 36
M  V30 38 1 16 37
M  V30 END BOND
M  V30 END CTAB
M  END
