
     RDKit          3D

  0  0  0  0  0  0  0  0  0  0999 V3000
M  V30 BEGIN CTAB
M  V30 COUNTS 60 64 0 0 0
M  V30 BEGIN ATOM
M  V30 1 F 10.6323 -0.325237 -2.4785 0
M  V30 2 C 9.66801 -0.426087 -1.51532 0
M  V30 3 C 9.96718 -0.51876 -0.177214 0
M  V30 4 C 8.95963 -0.620531 0.781512 0
M  V30 5 C 7.65211 -0.627324 0.371373 0
M  V30 6 C 7.37302 -0.533478 -0.974574 0
M  V30 7 C 8.35173 -0.432099 -1.93912 0
M  V30 8 N 6.05039 -0.562277 -1.09992 0
M  V30 9 C 5.46881 -0.670587 0.108027 0
M  V30 10 N 6.46458 -0.708715 0.992178 0
M  V30 11 C 4.00376 -0.737025 0.426523 0
M  V30 12 C 3.45667 0.62888 0.642192 0
M  V30 13 C 1.99557 0.696877 0.972065 0
M  V30 14 C 1.09628 0.171159 -0.0644039 0
M  V30 15 O 1.58353 -0.146903 -1.18233 0
M  V30 16 N -0.309383 0.00896465 0.147787 0
M  V30 17 C -0.814942 0.38706 1.44196 0
M  V30 18 C -2.27076 0.630257 1.50627 0
M  V30 19 C -3.06688 0.109884 0.361238 0 CFG=2
M  V30 20 C -2.37844 0.353895 -0.980397 0 CFG=2
M  V30 21 C -1.10973 -0.508214 -0.91701 0
M  V30 22 C -2.00461 1.80226 -1.16274 0
M  V30 23 O -3.22175 -0.055921 -1.99254 0
M  V30 24 N -4.40183 0.657568 0.369823 0
M  V30 25 C -4.77667 1.92973 0.601586 0
M  V30 26 N -6.11507 2.03935 0.520035 0
M  V30 27 C -6.63481 0.844975 0.234698 0
M  V30 28 C -5.5439 -0.0211627 0.141864 0
M  V30 29 N -5.78902 -1.30774 -0.141029 0
M  V30 30 C -7.03661 -1.76799 -0.33238 0
M  V30 31 N -7.25186 -3.14645 -0.63177 0
M  V30 32 N -8.09079 -0.905667 -0.237476 0
M  V30 33 C -7.92377 0.395321 0.0423003 0
M  V30 34 N -9.01501 1.29441 0.141859 0
M  V30 35 H 10.999 -0.513153 0.143272 0
M  V30 36 H 9.17163 -0.693384 1.82467 0
M  V30 37 H 8.09415 -0.35983 -2.99195 0
M  V30 38 H 6.32076 -0.791028 2.02414 0
M  V30 39 H 3.91852 -1.29653 1.40397 0
M  V30 40 H 3.51423 -1.31592 -0.369879 0
M  V30 41 H 3.99212 1.14556 1.49228 0
M  V30 42 H 3.68205 1.26758 -0.264313 0
M  V30 43 H 1.85156 0.0337579 1.87253 0
M  V30 44 H 1.75517 1.74586 1.2466 0
M  V30 45 H -0.266815 1.29963 1.76227 0
M  V30 46 H -0.489588 -0.421539 2.15996 0
M  V30 47 H -2.67004 0.164941 2.43889 0
M  V30 48 H -2.47644 1.73345 1.63334 0
M  V30 49 H -3.13589 -0.994828 0.465284 0
M  V30 50 H -0.600044 -0.51534 -1.8774 0
M  V30 51 H -1.47478 -1.53246 -0.616587 0
M  V30 52 H -2.79685 2.30436 -1.75903 0
M  V30 53 H -1.89714 2.35513 -0.229445 0
M  V30 54 H -1.05955 1.90123 -1.77308 0
M  V30 55 H -3.78096 0.720871 -2.25166 0
M  V30 56 H -4.07196 2.73388 0.821276 0
M  V30 57 H -6.95423 -3.88923 0.032185 0
M  V30 58 H -7.70407 -3.41449 -1.50878 0
M  V30 59 H -9.52426 1.67441 -0.707837 0
M  V30 60 H -9.36438 1.62109 1.05267 0
M  V30 END ATOM
M  V30 BEGIN BOND
M  V30 1 1 1 2
M  V30 2 2 2 3
M  V30 3 1 3 4
M  V30 4 2 4 5
M  V30 5 1 5 6
M  V30 6 2 6 7
M  V30 7 1 6 8
M  V30 8 2 8 9
M  V30 9 1 9 10
M  V30 10 1 9 11
M  V30 11 1 11 12
M  V30 12 1 12 13
M  V30 13 1 13 14
M  V30 14 2 14 15
M  V30 15 1 14 16
M  V30 16 1 16 17
M  V30 17 1 17 18
M  V30 18 1 18 19
M  V30 19 1 19 20
M  V30 20 1 20 21
M  V30 21 1 20 22
M  V30 22 1 20 23 CFG=3
M  V30 23 1 19 24
M  V30 24 1 24 25
M  V30 25 2 25 26
M  V30 26 1 26 27
M  V30 27 2 27 28
M  V30 28 1 28 29
M  V30 29 2 29 30
M  V30 30 1 30 31
M  V30 31 1 30 32
M  V30 32 2 32 33
M  V30 33 1 33 34
M  V30 34 1 7 2
M  V30 35 1 21 16
M  V30 36 1 28 24
M  V30 37 1 10 5
M  V30 38 1 33 27
M  V30 39 1 3 35
M  V30 40 1 4 36
M  V30 41 1 7 37
M  V30 42 1 10 38
M  V30 43 1 11 39
M  V30 44 1 11 40
M  V30 45 1 12 41
M  V30 46 1 12 42
M  V30 47 1 13 43
M  V30 48 1 13 44
M  V30 49 1 17 45
M  V30 50 1 17 46
M  V30 51 1 18 47
M  V30 52 1 18 48
M  V30 53 1 19 49 CFG=1
M  V30 54 1 21 50
M  V30 55 1 21 51
M  V30 56 1 22 52
M  V30 57 1 22 53
M  V30 58 1 22 54
M  V30 59 1 23 55
M  V30 60 1 25 56
M  V30 61 1 31 57
M  V30 62 1 31 58
M  V30 63 1 34 59
M  V30 64 1 34 60
M  V30 END BOND
M  V30 END CTAB
M  END
