
     RDKit          3D

  0  0  0  0  0  0  0  0  0  0999 V3000
M  V30 BEGIN CTAB
M  V30 COUNTS 46 46 0 0 0
M  V30 BEGIN ATOM
M  V30 1 C -2.40585 0.385759 -1.06997 0 CFG=1
M  V30 2 N -3.02757 0.332157 -2.36283 0
M  V30 3 C -3.06634 -0.536878 -0.0705619 0
M  V30 4 C -4.48158 -0.261126 0.183816 0
M  V30 5 C -5.46515 -0.857787 -0.588401 0
M  V30 6 C -6.80938 -0.625897 -0.372979 0
M  V30 7 C -7.22992 0.219504 0.632004 0
M  V30 8 C -6.26974 0.825698 1.41458 0
M  V30 9 C -4.91614 0.582656 1.18611 0
M  V30 10 C -1.0087 -0.0993471 -1.19601 0
M  V30 11 O -0.627447 -0.512061 -2.31285 0
M  V30 12 N -0.124209 -0.102482 -0.101864 0
M  V30 13 C 1.2612 -0.616418 -0.336075 0 CFG=1
M  V30 14 C 2.13062 0.560587 -0.1454 0
M  V30 15 C 3.59965 0.457685 -0.290836 0
M  V30 16 C 4.35612 -0.390321 0.656933 0
M  V30 17 N 5.77553 -0.273702 0.267399 0
M  V30 18 C 6.42989 0.972611 0.44813 0
M  V30 19 N 6.87914 1.67068 -0.684591 0
M  V30 20 N 6.5837 1.41166 1.65778 0
M  V30 21 C 1.38497 -1.74209 0.582914 0
M  V30 22 O 1.97001 -2.92322 0.160211 0
M  V30 23 O 0.96247 -1.66998 1.76264 0
M  V30 24 H -2.41189 1.44578 -0.731428 0
M  V30 25 H -3.72606 1.11811 -2.49902 0
M  V30 26 H -2.34471 0.36659 -3.15222 0
M  V30 27 H -2.86647 -1.57205 -0.409287 0
M  V30 28 H -2.51072 -0.420714 0.892044 0
M  V30 29 H -5.15602 -1.52 -1.37713 0
M  V30 30 H -7.5851 -1.09106 -0.975242 0
M  V30 31 H -8.27453 0.421218 0.82675 0
M  V30 32 H -6.61063 1.48385 2.19843 0
M  V30 33 H -4.18672 1.07739 1.82217 0
M  V30 34 H -0.372386 0.226053 0.843077 0
M  V30 35 H 1.34849 -0.953953 -1.3952 0
M  V30 36 H 1.89235 1.09937 0.834284 0
M  V30 37 H 1.81611 1.32774 -0.944111 0
M  V30 38 H 3.87847 0.187119 -1.35065 0
M  V30 39 H 4.03826 1.50894 -0.173297 0
M  V30 40 H 4.14688 -1.45174 0.673921 0
M  V30 41 H 4.24986 -0.0149402 1.70873 0
M  V30 42 H 6.2492 -1.09378 -0.123172 0
M  V30 43 H 6.64687 1.32214 -1.63423 0
M  V30 44 H 7.44426 2.53695 -0.594982 0
M  V30 45 H 6.23891 0.867911 2.46604 0
M  V30 46 H 2.1943 -3.67859 0.767091 0
M  V30 END ATOM
M  V30 BEGIN BOND
M  V30 1 1 1 2
M  V30 2 1 1 3
M  V30 3 1 3 4
M  V30 4 2 4 5
M  V30 5 1 5 6
M  V30 6 2 6 7
M  V30 7 1 7 8
M  V30 8 2 8 9
M  V30 9 1 1 10
M  V30 10 2 10 11
M  V30 11 1 10 12
M  V30 12 1 12 13
M  V30 13 1 13 14
M  V30 14 1 14 15
M  V30 15 1 15 16
M  V30 16 1 16 17
M  V30 17 1 17 18
M  V30 18 1 18 19
M  V30 19 2 18 20 CFG=2
M  V30 20 1 13 21
M  V30 21 1 21 22
M  V30 22 2 21 23
M  V30 23 1 9 4
M  V30 24 1 1 24 CFG=1
M  V30 25 1 2 25
M  V30 26 1 2 26
M  V30 27 1 3 27
M  V30 28 1 3 28
M  V30 29 1 5 29
M  V30 30 1 6 30
M  V30 31 1 7 31
M  V30 32 1 8 32
M  V30 33 1 9 33
M  V30 34 1 12 34
M  V30 35 1 13 35 CFG=3
M  V30 36 1 14 36
M  V30 37 1 14 37
M  V30 38 1 15 38
M  V30 39 1 15 39
M  V30 40 1 16 40
M  V30 41 1 16 41
M  V30 42 1 17 42
M  V30 43 1 19 43
M  V30 44 1 19 44
M  V30 45 1 20 45
M  V30 46 1 22 46
M  V30 END BOND
M  V30 END CTAB
M  END
