
     RDKit          3D

  0  0  0  0  0  0  0  0  0  0999 V3000
M  V30 BEGIN CTAB
M  V30 COUNTS 16 16 0 0 0
M  V30 BEGIN ATOM
M  V30 1 N -2.15031 -0.26425 0.154343 0
M  V30 2 C -0.73016 -0.359797 0.0847616 0
M  V30 3 C -0.0360185 0.819517 -0.0844299 0
M  V30 4 N -0.668367 2.07463 -0.18713 0
M  V30 5 C 1.34563 0.74152 -0.153781 0
M  V30 6 Cl 2.23999 2.24718 -0.370223 0
M  V30 7 C 1.99679 -0.471058 -0.0568186 0
M  V30 8 C 1.30415 -1.65222 0.112492 0
M  V30 9 C -0.0717455 -1.57029 0.181084 0
M  V30 10 Cl -1.01072 -3.00889 0.392673 0
M  V30 11 H -2.69214 -0.944307 -0.455756 0
M  V30 12 H -2.65511 0.412771 0.750449 0
M  V30 13 H -0.482381 2.69858 -0.990282 0
M  V30 14 H -1.32478 2.36937 0.552245 0
M  V30 15 H 3.09497 -0.500269 -0.115558 0
M  V30 16 H 1.84019 -2.59248 0.185931 0
M  V30 END ATOM
M  V30 BEGIN BOND
M  V30 1 1 1 2
M  V30 2 2 2 3
M  V30 3 1 3 4
M  V30 4 1 3 5
M  V30 5 1 5 6
M  V30 6 2 5 7
M  V30 7 1 7 8
M  V30 8 2 8 9
M  V30 9 1 9 10
M  V30 10 1 9 2
M  V30 11 1 1 11
M  V30 12 1 1 12
M  V30 13 1 4 13
M  V30 14 1 4 14
M  V30 15 1 7 15
M  V30 16 1 8 16
M  V30 END BOND
M  V30 END CTAB
M  END
