
     RDKit          3D

  0  0  0  0  0  0  0  0  0  0999 V3000
M  V30 BEGIN CTAB
M  V30 COUNTS 31 31 0 0 0
M  V30 BEGIN ATOM
M  V30 1 N 2.84113 -0.92247 0.293911 0
M  V30 2 C 1.92398 0.219036 0.415095 0
M  V30 3 C 0.804656 0.0609858 -0.622538 0
M  V30 4 N 1.51724 0.0437427 -1.91255 0
M  V30 5 C 0.178662 -1.29033 -0.467444 0
M  V30 6 C -0.535739 -1.49862 0.821741 0
M  V30 7 C -2.02183 -1.2673 0.519872 0
M  V30 8 C -2.21184 0.224629 0.503687 0
M  V30 9 C -1.58694 0.839589 -0.697591 0
M  V30 10 C -0.137354 1.2014 -0.5253 0
M  V30 11 C 0.0836092 2.07142 0.701484 0
M  V30 12 H 3.73555 -0.611562 0.773076 0
M  V30 13 H 2.49581 -1.72282 0.888881 0
M  V30 14 H 1.54952 0.205985 1.43535 0
M  V30 15 H 2.52652 1.11544 0.169547 0
M  V30 16 H 0.9454 0.673955 -2.5402 0
M  V30 17 H 1.5348 -0.884598 -2.33958 0
M  V30 18 H -0.463872 -1.51132 -1.34577 0
M  V30 19 H 1.01002 -2.04102 -0.516033 0
M  V30 20 H -0.484707 -2.57664 1.15497 0
M  V30 21 H -0.225194 -0.858697 1.64601 0
M  V30 22 H -2.22516 -1.6207 -0.529277 0
M  V30 23 H -2.67415 -1.79653 1.21184 0
M  V30 24 H -3.32057 0.405172 0.444549 0
M  V30 25 H -1.87169 0.634695 1.45983 0
M  V30 26 H -2.12824 1.80609 -0.904713 0
M  V30 27 H -1.67627 0.191537 -1.57597 0
M  V30 28 H 0.0977553 1.89546 -1.38951 0
M  V30 29 H 1.03307 2.63352 0.623395 0
M  V30 30 H 0.0108143 1.52964 1.64017 0
M  V30 31 H -0.72495 2.8503 0.663071 0
M  V30 END ATOM
M  V30 BEGIN BOND
M  V30 1 1 1 2
M  V30 2 1 2 3
M  V30 3 1 3 4
M  V30 4 1 3 5
M  V30 5 1 5 6
M  V30 6 1 6 7
M  V30 7 1 7 8
M  V30 8 1 8 9
M  V30 9 1 9 10
M  V30 10 1 10 11
M  V30 11 1 10 3
M  V30 12 1 1 12
M  V30 13 1 1 13
M  V30 14 1 2 14
M  V30 15 1 2 15
M  V30 16 1 4 16
M  V30 17 1 4 17
M  V30 18 1 5 18
M  V30 19 1 5 19
M  V30 20 1 6 20
M  V30 21 1 6 21
M  V30 22 1 7 22
M  V30 23 1 7 23
M  V30 24 1 8 24
M  V30 25 1 8 25
M  V30 26 1 9 26
M  V30 27 1 9 27
M  V30 28 1 10 28
M  V30 29 1 11 29
M  V30 30 1 11 30
M  V30 31 1 11 31
M  V30 END BOND
M  V30 END CTAB
M  END
