
     RDKit          3D

  0  0  0  0  0  0  0  0  0  0999 V3000
M  V30 BEGIN CTAB
M  V30 COUNTS 67 71 0 0 0
M  V30 BEGIN ATOM
M  V30 1 N 9.54238 2.25108 -0.720193 0
M  V30 2 C 8.38839 1.7886 -0.0368707 0
M  V30 3 N 7.1867 2.32332 -0.292901 0
M  V30 4 C 6.07565 1.9043 0.340666 0
M  V30 5 O 4.99051 2.43549 0.0628091 0
M  V30 6 N 6.05536 0.937872 1.26596 0
M  V30 7 C 7.2776 0.378704 1.5408 0
M  V30 8 C 8.42863 0.786884 0.908953 0
M  V30 9 C 4.95411 0.431186 1.97927 0 CFG=1
M  V30 10 C 3.69888 1.13487 2.11521 0
M  V30 11 C 2.73743 0.438352 1.17117 0 CFG=2
M  V30 12 O 1.50848 0.145009 1.77987 0
M  V30 13 P 0.213479 0.816756 0.921988 0
M  V30 14 O 0.301537 0.497209 -0.735372 0
M  V30 15 O 0.22518 2.31879 1.09745 0
M  V30 16 O -1.26294 0.25089 1.46981 0
M  V30 17 C -2.2689 0.629267 0.581841 0
M  V30 18 C -3.57254 0.0921345 1.12869 0 CFG=1
M  V30 19 O -4.65869 0.413171 0.316061 0
M  V30 20 C -5.62009 -0.527327 0.719115 0 CFG=2
M  V30 21 C -4.84507 -1.8176 0.557364 0
M  V30 22 C -3.48094 -1.42015 1.11905 0 CFG=2
M  V30 23 O -3.45211 -1.83671 2.44404 0
M  V30 24 N -6.77069 -0.550495 -0.12885 0
M  V30 25 C -7.3653 -1.66975 -0.579775 0
M  V30 26 N -8.41805 -1.38327 -1.35163 0
M  V30 27 C -8.50362 -0.0414341 -1.39891 0
M  V30 28 C -7.47761 0.478063 -0.637371 0
M  V30 29 N -7.32195 1.80455 -0.507483 0
M  V30 30 C -8.20666 2.612 -1.14954 0
M  V30 31 N -9.21586 2.11458 -1.89841 0
M  V30 32 C -9.39633 0.781654 -2.04666 0
M  V30 33 N -10.4458 0.244563 -2.82478 0
M  V30 34 C 3.47733 -0.795611 0.814171 0 CFG=1
M  V30 35 C 3.69369 -1.01797 -0.656553 0
M  V30 36 O 4.28518 -2.29864 -0.768149 0
M  V30 37 P 4.59154 -2.70591 -2.36082 0
M  V30 38 O 6.20282 -3.22618 -2.55285 0
M  V30 39 O 3.59502 -3.98215 -2.89048 0
M  V30 40 O 4.31584 -1.51182 -3.22785 0
M  V30 41 O 4.66301 -0.841689 1.47959 0
M  V30 42 H 10.2789 2.84302 -0.277681 0
M  V30 43 H 9.68146 1.99635 -1.72209 0
M  V30 44 H 7.37875 -0.418678 2.27902 0
M  V30 45 H 9.40212 0.35801 1.11277 0
M  V30 46 H 5.33903 0.198585 3.02775 0
M  V30 47 H 3.24597 0.920572 3.14086 0
M  V30 48 H 3.65548 2.22085 2.07603 0
M  V30 49 H 2.49952 1.0126 0.278724 0
M  V30 50 H 0.390171 -0.472506 -0.926855 0
M  V30 51 H -2.12835 0.183695 -0.422355 0
M  V30 52 H -2.28426 1.73303 0.474753 0
M  V30 53 H -3.79223 0.492404 2.13808 0
M  V30 54 H -5.85411 -0.418908 1.80089 0
M  V30 55 H -4.76858 -2.05255 -0.523285 0
M  V30 56 H -5.29119 -2.64265 1.14438 0
M  V30 57 H -2.66174 -1.80795 0.514499 0
M  V30 58 H -2.97475 -1.19699 3.02874 0
M  V30 59 H -7.06062 -2.69428 -0.367 0
M  V30 60 H -8.11803 3.69086 -1.07083 0
M  V30 61 H -11.2769 -0.15928 -2.34954 0
M  V30 62 H -10.4047 0.244741 -3.86195 0
M  V30 63 H 2.86829 -1.6821 1.16124 0
M  V30 64 H 4.32246 -0.254204 -1.14051 0
M  V30 65 H 2.68886 -1.09493 -1.13382 0
M  V30 66 H 6.68715 -2.94726 -1.74965 0
M  V30 67 H 4.05185 -4.39128 -3.6806 0
M  V30 END ATOM
M  V30 BEGIN BOND
M  V30 1 1 1 2
M  V30 2 2 2 3
M  V30 3 1 3 4
M  V30 4 2 4 5
M  V30 5 1 4 6
M  V30 6 1 6 7
M  V30 7 2 7 8
M  V30 8 1 6 9
M  V30 9 1 9 10
M  V30 10 1 10 11
M  V30 11 1 11 12
M  V30 12 1 12 13
M  V30 13 1 13 14
M  V30 14 2 13 15
M  V30 15 1 13 16
M  V30 16 1 16 17
M  V30 17 1 17 18
M  V30 18 1 18 19
M  V30 19 1 19 20
M  V30 20 1 20 21
M  V30 21 1 21 22
M  V30 22 1 22 23
M  V30 23 1 20 24
M  V30 24 1 24 25
M  V30 25 2 25 26
M  V30 26 1 26 27
M  V30 27 2 27 28
M  V30 28 1 28 29
M  V30 29 2 29 30
M  V30 30 1 30 31
M  V30 31 2 31 32
M  V30 32 1 32 33
M  V30 33 1 11 34
M  V30 34 1 34 35
M  V30 35 1 35 36
M  V30 36 1 36 37
M  V30 37 1 37 38
M  V30 38 1 37 39
M  V30 39 2 37 40
M  V30 40 1 34 41
M  V30 41 1 8 2
M  V30 42 1 41 9
M  V30 43 1 22 18
M  V30 44 1 28 24
M  V30 45 1 32 27
M  V30 46 1 1 42
M  V30 47 1 1 43
M  V30 48 1 7 44
M  V30 49 1 8 45
M  V30 50 1 9 46 CFG=1
M  V30 51 1 10 47
M  V30 52 1 10 48
M  V30 53 1 11 49 CFG=3
M  V30 54 1 14 50
M  V30 55 1 17 51
M  V30 56 1 17 52
M  V30 57 1 18 53 CFG=1
M  V30 58 1 20 54 CFG=1
M  V30 59 1 21 55
M  V30 60 1 21 56
M  V30 61 1 22 57 CFG=3
M  V30 62 1 23 58
M  V30 63 1 25 59
M  V30 64 1 30 60
M  V30 65 1 33 61
M  V30 66 1 33 62
M  V30 67 1 34 63 CFG=1
M  V30 68 1 35 64
M  V30 69 1 35 65
M  V30 70 1 38 66
M  V30 71 1 39 67
M  V30 END BOND
M  V30 END CTAB
M  END
