
     RDKit          3D

  0  0  0  0  0  0  0  0  0  0999 V3000
M  V30 BEGIN CTAB
M  V30 COUNTS 29 30 0 0 0
M  V30 BEGIN ATOM
M  V30 1 N -2.2382 1.66976 1.51184 0
M  V30 2 C -2.72161 0.758065 0.551024 0
M  V30 3 C -4.08706 0.725363 0.282946 0
M  V30 4 C -4.56581 -0.163823 -0.655429 0
M  V30 5 C -3.67098 -0.996024 -1.30096 0
M  V30 6 C -2.31507 -0.958776 -1.03016 0
M  V30 7 C -1.84539 -0.0704864 -0.0942173 0
M  V30 8 C -0.407514 0.0170337 0.239158 0
M  V30 9 O 0.0032826 0.828439 1.09093 0
M  V30 10 O 0.5214 -0.802853 -0.388601 0
M  V30 11 C 1.87783 -0.671067 -0.0267321 0
M  V30 12 C 2.69222 0.211962 -0.699193 0
M  V30 13 N 2.14872 0.988703 -1.76227 0
M  V30 14 C 4.02083 0.360784 -0.366584 0
M  V30 15 C 4.5234 -0.4024 0.666184 0
M  V30 16 C 3.73246 -1.29519 1.35823 0
M  V30 17 C 2.41554 -1.41157 0.994097 0
M  V30 18 H -2.28387 1.4225 2.50977 0
M  V30 19 H -1.84449 2.57215 1.21406 0
M  V30 20 H -4.76214 1.39904 0.814043 0
M  V30 21 H -5.62739 -0.185482 -0.860226 0
M  V30 22 H -4.0405 -1.69681 -2.03916 0
M  V30 23 H -1.60389 -1.61015 -1.53354 0
M  V30 24 H 1.93387 1.98494 -1.56245 0
M  V30 25 H 1.96765 0.598395 -2.7004 0
M  V30 26 H 4.65825 1.05091 -0.891809 0
M  V30 27 H 5.56568 -0.334123 0.980757 0
M  V30 28 H 4.17078 -1.88624 2.17644 0
M  V30 29 H 1.782 -2.10305 1.52226 0
M  V30 END ATOM
M  V30 BEGIN BOND
M  V30 1 1 1 2
M  V30 2 2 2 3
M  V30 3 1 3 4
M  V30 4 2 4 5
M  V30 5 1 5 6
M  V30 6 2 6 7
M  V30 7 1 7 8
M  V30 8 2 8 9
M  V30 9 1 8 10
M  V30 10 1 10 11
M  V30 11 2 11 12
M  V30 12 1 12 13
M  V30 13 1 12 14
M  V30 14 2 14 15
M  V30 15 1 15 16
M  V30 16 2 16 17
M  V30 17 1 7 2
M  V30 18 1 17 11
M  V30 19 1 1 18
M  V30 20 1 1 19
M  V30 21 1 3 20
M  V30 22 1 4 21
M  V30 23 1 5 22
M  V30 24 1 6 23
M  V30 25 1 13 24
M  V30 26 1 13 25
M  V30 27 1 14 26
M  V30 28 1 15 27
M  V30 29 1 16 28
M  V30 30 1 17 29
M  V30 END BOND
M  V30 END CTAB
M  END
