
     RDKit          3D

  0  0  0  0  0  0  0  0  0  0999 V3000
M  V30 BEGIN CTAB
M  V30 COUNTS 34 35 0 0 0
M  V30 BEGIN ATOM
M  V30 1 C 5.08357 -0.971439 0.364589 0
M  V30 2 C 3.67565 -0.423135 0.276276 0
M  V30 3 C 3.27945 -0.254979 -1.16286 0
M  V30 4 C 1.87569 0.292155 -1.30673 0
M  V30 5 N 1.73401 1.57904 -0.684299 0
M  V30 6 C 0.740062 1.55649 0.313214 0
M  V30 7 O 0.386035 2.56367 1.01639 0
M  V30 8 N 0.218932 0.235358 0.387555 0
M  V30 9 C 0.898646 -0.561253 -0.572849 0
M  V30 10 O 0.752532 -1.79318 -0.820404 0
M  V30 11 C -0.810169 -0.167601 1.29027 0
M  V30 12 C -2.17309 -0.0183189 0.741456 0
M  V30 13 N -3.20566 -0.373718 1.51582 0
M  V30 14 C -4.50701 -0.288735 1.13816 0
M  V30 15 N -5.55627 -0.683983 2.01162 0
M  V30 16 N -4.74782 0.185295 -0.095858 0
M  V30 17 C -3.73878 0.550169 -0.89721 0
M  V30 18 N -2.44639 0.45143 -0.485725 0
M  V30 19 N -4.05915 1.04248 -2.18741 0
M  V30 20 H 5.20619 -1.65257 -0.525207 0
M  V30 21 H 5.84849 -0.149352 0.317886 0
M  V30 22 H 5.21814 -1.55071 1.29126 0
M  V30 23 H 3.64367 0.49636 0.858122 0
M  V30 24 H 2.98774 -1.1477 0.779959 0
M  V30 25 H 3.96706 0.468502 -1.64682 0
M  V30 26 H 3.40153 -1.22168 -1.69038 0
M  V30 27 H 1.5917 0.408491 -2.37188 0
M  V30 28 H 2.29876 2.41843 -0.943397 0
M  V30 29 H -0.662373 -1.26552 1.48893 0
M  V30 30 H -0.686583 0.341545 2.26694 0
M  V30 31 H -5.53253 -1.61197 2.45164 0
M  V30 32 H -6.32865 -0.0324455 2.19207 0
M  V30 33 H -4.19575 0.417696 -2.99638 0
M  V30 34 H -4.15764 2.06215 -2.31473 0
M  V30 END ATOM
M  V30 BEGIN BOND
M  V30 1 1 1 2
M  V30 2 1 2 3
M  V30 3 1 3 4
M  V30 4 1 4 5
M  V30 5 1 5 6
M  V30 6 2 6 7
M  V30 7 1 6 8
M  V30 8 1 8 9
M  V30 9 2 9 10
M  V30 10 1 8 11
M  V30 11 1 11 12
M  V30 12 2 12 13
M  V30 13 1 13 14
M  V30 14 1 14 15
M  V30 15 2 14 16
M  V30 16 1 16 17
M  V30 17 2 17 18
M  V30 18 1 17 19
M  V30 19 1 9 4
M  V30 20 1 18 12
M  V30 21 1 1 20
M  V30 22 1 1 21
M  V30 23 1 1 22
M  V30 24 1 2 23
M  V30 25 1 2 24
M  V30 26 1 3 25
M  V30 27 1 3 26
M  V30 28 1 4 27
M  V30 29 1 5 28
M  V30 30 1 11 29
M  V30 31 1 11 30
M  V30 32 1 15 31
M  V30 33 1 15 32
M  V30 34 1 19 33
M  V30 35 1 19 34
M  V30 END BOND
M  V30 END CTAB
M  END
