
     RDKit          3D

  0  0  0  0  0  0  0  0  0  0999 V3000
M  V30 BEGIN CTAB
M  V30 COUNTS 46 48 0 0 0
M  V30 BEGIN ATOM
M  V30 1 C 7.55717 -0.419453 -1.61069 0
M  V30 2 O 6.99238 0.0624427 -0.410808 0
M  V30 3 C 5.67975 -0.159048 -0.0707638 0
M  V30 4 C 5.18025 0.331968 1.10874 0
M  V30 5 C 3.86372 0.104833 1.4407 0
M  V30 6 C 3.01532 -0.620216 0.598369 0
M  V30 7 C 3.54541 -1.10223 -0.582043 0
M  V30 8 C 4.86062 -0.880325 -0.922812 0
M  V30 9 C 1.61248 -0.83227 1.01014 0
M  V30 10 N 0.795505 0.229947 0.52732 0
M  V30 11 C -0.604883 0.326094 0.751436 0
M  V30 12 C -1.53059 -0.220553 -0.110322 0
M  V30 13 C -2.89647 -0.11716 0.124281 0
M  V30 14 N -3.29536 0.535471 1.22301 0
M  V30 15 C -2.40255 1.08729 2.09485 0
M  V30 16 N -1.08133 0.965319 1.83158 0
M  V30 17 N -2.88423 1.76952 3.24648 0
M  V30 18 C -3.81847 -0.725149 -0.83913 0
M  V30 19 C -4.88038 -1.63518 -0.205828 0
M  V30 20 C -5.84436 -1.0751 -1.23096 0
M  V30 21 C -4.95372 0.150091 -1.31145 0
M  V30 22 N -7.17638 -0.830956 -0.73993 0
M  V30 23 C 1.40174 1.29533 -0.24482 0
M  V30 24 H 7.20988 0.173369 -2.49103 0
M  V30 25 H 8.66657 -0.354578 -1.52179 0
M  V30 26 H 7.30261 -1.50097 -1.70926 0
M  V30 27 H 5.85121 0.891523 1.74963 0
M  V30 28 H 3.46714 0.487444 2.36396 0
M  V30 29 H 2.90604 -1.658 -1.23394 0
M  V30 30 H 5.28209 -1.25573 -1.84705 0
M  V30 31 H 1.2866 -1.79953 0.560973 0
M  V30 32 H 1.60245 -0.945125 2.11193 0
M  V30 33 H -1.16601 -0.736711 -0.981596 0
M  V30 34 H -2.50962 2.72844 3.41731 0
M  V30 35 H -3.56658 1.383 3.90918 0
M  V30 36 H -3.33308 -1.22736 -1.69321 0
M  V30 37 H -4.59911 -2.69695 -0.350838 0
M  V30 38 H -5.05546 -1.33941 0.828121 0
M  V30 39 H -5.77451 -1.66786 -2.16383 0
M  V30 40 H -5.20554 0.963597 -0.632713 0
M  V30 41 H -4.81024 0.486437 -2.3578 0
M  V30 42 H -7.53624 0.0976895 -1.05053 0
M  V30 43 H -7.79852 -1.57126 -1.12803 0
M  V30 44 H 2.15089 1.84625 0.355654 0
M  V30 45 H 0.646778 2.03701 -0.622349 0
M  V30 46 H 1.84704 0.869406 -1.19014 0
M  V30 END ATOM
M  V30 BEGIN BOND
M  V30 1 1 1 2
M  V30 2 1 2 3
M  V30 3 2 3 4
M  V30 4 1 4 5
M  V30 5 2 5 6
M  V30 6 1 6 7
M  V30 7 2 7 8
M  V30 8 1 6 9
M  V30 9 1 9 10
M  V30 10 1 10 11
M  V30 11 2 11 12
M  V30 12 1 12 13
M  V30 13 2 13 14
M  V30 14 1 14 15
M  V30 15 2 15 16
M  V30 16 1 15 17
M  V30 17 1 13 18
M  V30 18 1 18 19
M  V30 19 1 19 20
M  V30 20 1 20 21
M  V30 21 1 20 22
M  V30 22 1 10 23
M  V30 23 1 8 3
M  V30 24 1 16 11
M  V30 25 1 21 18
M  V30 26 1 1 24
M  V30 27 1 1 25
M  V30 28 1 1 26
M  V30 29 1 4 27
M  V30 30 1 5 28
M  V30 31 1 7 29
M  V30 32 1 8 30
M  V30 33 1 9 31
M  V30 34 1 9 32
M  V30 35 1 12 33
M  V30 36 1 17 34
M  V30 37 1 17 35
M  V30 38 1 18 36
M  V30 39 1 19 37
M  V30 40 1 19 38
M  V30 41 1 20 39
M  V30 42 1 21 40
M  V30 43 1 21 41
M  V30 44 1 22 42
M  V30 45 1 22 43
M  V30 46 1 23 44
M  V30 47 1 23 45
M  V30 48 1 23 46
M  V30 END BOND
M  V30 END CTAB
M  END
