
     RDKit          3D

  0  0  0  0  0  0  0  0  0  0999 V3000
M  V30 BEGIN CTAB
M  V30 COUNTS 78 78 0 0 0
M  V30 BEGIN ATOM
M  V30 1 C -4.30722 -1.13259 -0.499485 0 CFG=2
M  V30 2 C -4.26989 -1.28646 0.998648 0
M  V30 3 C -5.13132 -0.287826 1.71226 0
M  V30 4 C -4.98649 -0.43077 3.22748 0
M  V30 5 N -5.86725 0.523545 3.88451 0
M  V30 6 C -5.69364 1.94054 3.7851 0
M  V30 7 N -5.01729 2.72876 4.73453 0
M  V30 8 N -6.19878 2.50923 2.75501 0
M  V30 9 N -5.54668 -1.32602 -1.14203 0
M  V30 10 C -6.7312 -1.50705 -1.74186 0
M  V30 11 O -7.86532 -1.37689 -1.08093 0
M  V30 12 C -7.03497 -1.86023 -3.15773 0
M  V30 13 N -5.87588 -2.0824 -3.99224 0
M  V30 14 C -3.16431 -1.67433 -1.16149 0
M  V30 15 O -2.91019 -1.45303 -2.40783 0
M  V30 16 N -2.15643 -2.53952 -0.561535 0
M  V30 17 C -1.09021 -2.98155 -1.45157 0
M  V30 18 C -0.216128 -1.85968 -1.85237 0
M  V30 19 O 0.611567 -2.16605 -2.7891 0
M  V30 20 N -0.235684 -0.583931 -1.29406 0
M  V30 21 C 0.569365 0.534416 -1.6401 0 CFG=1
M  V30 22 C 0.284889 1.78503 -0.90879 0
M  V30 23 C 0.439303 1.67203 0.566993 0
M  V30 24 O 0.300672 2.67459 1.49062 0
M  V30 25 O 0.727383 0.515617 0.99217 0
M  V30 26 C 2.03531 0.17639 -1.38622 0
M  V30 27 O 2.30091 -0.935295 -0.888033 0
M  V30 28 N 3.10788 1.0296 -1.69151 0
M  V30 29 C 4.47408 0.515821 -1.43775 0 CFG=1
M  V30 30 C 5.30479 0.894626 -2.64665 0
M  V30 31 O 4.68058 0.332894 -3.7925 0
M  V30 32 C 4.99235 1.02048 -0.169104 0
M  V30 33 O 4.31048 1.91333 0.45987 0
M  V30 34 N 6.21248 0.547333 0.382031 0
M  V30 35 C 7.09336 -0.431726 -0.202087 0
M  V30 36 C 7.44025 -1.25989 1.04286 0
M  V30 37 C 7.73656 -0.15316 2.0577 0
M  V30 38 C 6.76118 0.956305 1.65221 0 CFG=1
M  V30 39 C 7.41832 2.2723 1.63399 0
M  V30 40 O 7.60185 3.04834 0.520015 0
M  V30 41 O 7.84073 2.70465 2.74456 0
M  V30 42 H -4.11546 0.0585067 -0.555002 0
M  V30 43 H -4.6538 -2.33245 1.21987 0
M  V30 44 H -3.2015 -1.24207 1.3036 0
M  V30 45 H -6.1829 -0.38444 1.44229 0
M  V30 46 H -4.84177 0.755548 1.40215 0
M  V30 47 H -5.33757 -1.44553 3.49411 0
M  V30 48 H -3.95442 -0.310971 3.57511 0
M  V30 49 H -6.6577 0.168687 4.45148 0
M  V30 50 H -5.08758 3.78569 4.62658 0
M  V30 51 H -4.45384 2.36792 5.5424 0
M  V30 52 H -6.70918 2.20208 1.96385 0
M  V30 53 H -6.11957 -1.36591 0.0903935 0
M  V30 54 H -7.7774 -2.6429 -3.29131 0
M  V30 55 H -7.51609 -0.909482 -3.61974 0
M  V30 56 H -5.19317 -2.60621 -3.39365 0
M  V30 57 H -5.48882 -1.23598 -4.41469 0
M  V30 58 H -2.16276 -2.84705 0.417986 0
M  V30 59 H -0.474798 -3.71079 -0.887129 0
M  V30 60 H -1.51559 -3.54638 -2.32293 0
M  V30 61 H -0.938974 -0.427796 -0.503832 0
M  V30 62 H 0.565753 0.685317 -2.73161 0
M  V30 63 H -0.812591 2.0668 -1.03924 0
M  V30 64 H 0.860414 2.6356 -1.28038 0
M  V30 65 H 1.2171 3.05396 1.84149 0
M  V30 66 H 3.00038 1.95174 -2.08037 0
M  V30 67 H 4.38196 -0.607091 -1.43726 0
M  V30 68 H 6.33805 0.491503 -2.61231 0
M  V30 69 H 5.26344 1.9856 -2.79142 0
M  V30 70 H 3.76228 0.759628 -3.8448 0
M  V30 71 H 6.57345 -1.12777 -0.918922 0
M  V30 72 H 8.02193 -0.0534522 -0.637521 0
M  V30 73 H 8.29186 -1.91983 0.910672 0
M  V30 74 H 6.53238 -1.79255 1.39544 0
M  V30 75 H 8.78955 0.154389 1.82916 0
M  V30 76 H 7.56303 -0.459913 3.08341 0
M  V30 77 H 5.95692 0.97025 2.43518 0
M  V30 78 H 8.13157 3.90788 0.591328 0
M  V30 END ATOM
M  V30 BEGIN BOND
M  V30 1 1 1 2
M  V30 2 1 2 3
M  V30 3 1 3 4
M  V30 4 1 4 5
M  V30 5 1 5 6
M  V30 6 1 6 7
M  V30 7 2 6 8 CFG=2
M  V30 8 1 1 9
M  V30 9 1 9 10
M  V30 10 2 10 11
M  V30 11 1 10 12
M  V30 12 1 12 13
M  V30 13 1 1 14
M  V30 14 2 14 15
M  V30 15 1 14 16
M  V30 16 1 16 17
M  V30 17 1 17 18
M  V30 18 2 18 19
M  V30 19 1 18 20
M  V30 20 1 20 21
M  V30 21 1 21 22
M  V30 22 1 22 23
M  V30 23 1 23 24
M  V30 24 2 23 25
M  V30 25 1 21 26
M  V30 26 2 26 27
M  V30 27 1 26 28
M  V30 28 1 28 29
M  V30 29 1 29 30
M  V30 30 1 30 31
M  V30 31 1 29 32
M  V30 32 2 32 33
M  V30 33 1 32 34
M  V30 34 1 34 35
M  V30 35 1 35 36
M  V30 36 1 36 37
M  V30 37 1 37 38
M  V30 38 1 38 39
M  V30 39 1 39 40
M  V30 40 2 39 41
M  V30 41 1 38 34
M  V30 42 1 1 42 CFG=1
M  V30 43 1 2 43
M  V30 44 1 2 44
M  V30 45 1 3 45
M  V30 46 1 3 46
M  V30 47 1 4 47
M  V30 48 1 4 48
M  V30 49 1 5 49
M  V30 50 1 7 50
M  V30 51 1 7 51
M  V30 52 1 8 52
M  V30 53 1 9 53
M  V30 54 1 12 54
M  V30 55 1 12 55
M  V30 56 1 13 56
M  V30 57 1 13 57
M  V30 58 1 16 58
M  V30 59 1 17 59
M  V30 60 1 17 60
M  V30 61 1 20 61
M  V30 62 1 21 62 CFG=3
M  V30 63 1 22 63
M  V30 64 1 22 64
M  V30 65 1 24 65
M  V30 66 1 28 66
M  V30 67 1 29 67 CFG=1
M  V30 68 1 30 68
M  V30 69 1 30 69
M  V30 70 1 31 70
M  V30 71 1 35 71
M  V30 72 1 35 72
M  V30 73 1 36 73
M  V30 74 1 36 74
M  V30 75 1 37 75
M  V30 76 1 37 76
M  V30 77 1 38 77 CFG=1
M  V30 78 1 40 78
M  V30 END BOND
M  V30 END CTAB
M  END
