
     RDKit          3D

  0  0  0  0  0  0  0  0  0  0999 V3000
M  V30 BEGIN CTAB
M  V30 COUNTS 20 20 0 0 0
M  V30 BEGIN ATOM
M  V30 1 C -2.29955 -1.21106 -0.0923423 0
M  V30 2 N -1.38716 -0.0725962 -0.0234344 0
M  V30 3 C 0.00622001 -0.323711 -0.0224864 0
M  V30 4 N 0.485312 -1.59126 -0.0840079 0
M  V30 5 C 1.80125 -1.85487 -0.0845193 0
M  V30 6 N 2.63321 -0.811396 -0.0214859 0
M  V30 7 C 2.22207 0.459183 0.0408844 0
M  V30 8 O 3.02598 1.42517 0.0995836 0
M  V30 9 C 0.872706 0.758877 0.0429461 0
M  V30 10 N 0.398455 2.09792 0.108251 0
M  V30 11 N -1.84444 1.23208 0.0402844 0
M  V30 12 H -1.77994 -2.0635 -0.544276 0
M  V30 13 H -3.19432 -0.97774 -0.699145 0
M  V30 14 H -2.64669 -1.45453 0.930859 0
M  V30 15 H 2.19052 -2.86404 -0.133438 0
M  V30 16 H 3.66908 -1.00482 -0.021157 0
M  V30 17 H 0.229496 2.56943 1.01603 0
M  V30 18 H 0.211358 2.63173 -0.760427 0
M  V30 19 H -2.18294 1.52166 0.966741 0
M  V30 20 H -2.41062 1.53348 -0.758855 0
M  V30 END ATOM
M  V30 BEGIN BOND
M  V30 1 1 1 2
M  V30 2 1 2 3
M  V30 3 1 3 4
M  V30 4 2 4 5
M  V30 5 1 5 6
M  V30 6 1 6 7
M  V30 7 2 7 8
M  V30 8 1 7 9
M  V30 9 1 9 10
M  V30 10 1 2 11
M  V30 11 2 9 3
M  V30 12 1 1 12
M  V30 13 1 1 13
M  V30 14 1 1 14
M  V30 15 1 5 15
M  V30 16 1 6 16
M  V30 17 1 10 17
M  V30 18 1 10 18
M  V30 19 1 11 19
M  V30 20 1 11 20
M  V30 END BOND
M  V30 END CTAB
M  END
