
     RDKit          3D

  0  0  0  0  0  0  0  0  0  0999 V3000
M  V30 BEGIN CTAB
M  V30 COUNTS 42 43 0 0 0
M  V30 BEGIN ATOM
M  V30 1 O -1.42797 -0.690094 -3.31292 0
M  V30 2 C -2.06452 -0.514048 -2.24643 0
M  V30 3 C -3.54226 -0.589559 -2.29105 0
M  V30 4 N -4.13619 -0.366396 -0.991127 0
M  V30 5 N -4.4881 0.823445 -0.534692 0
M  V30 6 C -5.0136 0.718413 0.705139 0
M  V30 7 C -4.98198 -0.620628 1.02967 0
M  V30 8 C -4.42912 -1.27814 -0.0468968 0
M  V30 9 N -4.20177 -2.67096 -0.156595 0
M  V30 10 C -5.52284 1.82346 1.5486 0
M  V30 11 N -1.34003 -0.253909 -1.0631 0
M  V30 12 C 0.0862035 -0.184944 -1.04058 0
M  V30 13 C 0.606144 0.102143 0.331836 0
M  V30 14 C 2.09199 0.168028 0.323719 0
M  V30 15 C 2.84964 -0.963011 0.542751 0
M  V30 16 C 4.22953 -0.906788 0.536196 0
M  V30 17 C 4.92139 0.266171 0.313562 0
M  V30 18 C 4.15848 1.39569 0.0948071 0
M  V30 19 C 2.77961 1.34194 0.10089 0
M  V30 20 S 6.67247 0.324594 0.307702 0
M  V30 21 O 7.26874 -0.988721 -0.131893 0
M  V30 22 O 7.18424 1.37427 -0.636735 0
M  V30 23 N 7.29268 0.649245 1.89312 0
M  V30 24 H -3.93558 0.129733 -3.0556 0
M  V30 25 H -3.79814 -1.59824 -2.68836 0
M  V30 26 H -5.32147 -1.06775 1.94315 0
M  V30 27 H -4.53095 -3.24979 -0.961946 0
M  V30 28 H -3.67954 -3.18081 0.590542 0
M  V30 29 H -6.5114 2.193 1.21078 0
M  V30 30 H -4.82028 2.70181 1.45289 0
M  V30 31 H -5.53612 1.54759 2.61783 0
M  V30 32 H -1.87004 -0.104656 -0.161099 0
M  V30 33 H 0.465722 -1.20939 -1.32946 0
M  V30 34 H 0.515412 0.511298 -1.78075 0
M  V30 35 H 0.178812 1.05212 0.709548 0
M  V30 36 H 0.229022 -0.698989 1.01144 0
M  V30 37 H 2.33285 -1.90693 0.722036 0
M  V30 38 H 4.84306 -1.80406 0.70999 0
M  V30 39 H 4.70227 2.33006 -0.0825614 0
M  V30 40 H 2.18734 2.22986 -0.0710513 0
M  V30 41 H 7.26003 1.69298 2.00605 0
M  V30 42 H 8.29627 0.333374 1.88059 0
M  V30 END ATOM
M  V30 BEGIN BOND
M  V30 1 2 1 2
M  V30 2 1 2 3
M  V30 3 1 3 4
M  V30 4 1 4 5
M  V30 5 2 5 6
M  V30 6 1 6 7
M  V30 7 2 7 8
M  V30 8 1 8 9
M  V30 9 1 6 10
M  V30 10 1 2 11
M  V30 11 1 11 12
M  V30 12 1 12 13
M  V30 13 1 13 14
M  V30 14 2 14 15
M  V30 15 1 15 16
M  V30 16 2 16 17
M  V30 17 1 17 18
M  V30 18 2 18 19
M  V30 19 1 17 20
M  V30 20 2 20 21
M  V30 21 2 20 22
M  V30 22 1 20 23
M  V30 23 1 8 4
M  V30 24 1 19 14
M  V30 25 1 3 24
M  V30 26 1 3 25
M  V30 27 1 7 26
M  V30 28 1 9 27
M  V30 29 1 9 28
M  V30 30 1 10 29
M  V30 31 1 10 30
M  V30 32 1 10 31
M  V30 33 1 11 32
M  V30 34 1 12 33
M  V30 35 1 12 34
M  V30 36 1 13 35
M  V30 37 1 13 36
M  V30 38 1 15 37
M  V30 39 1 16 38
M  V30 40 1 18 39
M  V30 41 1 19 40
M  V30 42 1 23 41
M  V30 43 1 23 42
M  V30 END BOND
M  V30 END CTAB
M  END
