
     RDKit          3D

  0  0  0  0  0  0  0  0  0  0999 V3000
M  V30 BEGIN CTAB
M  V30 COUNTS 25 26 0 0 0
M  V30 BEGIN ATOM
M  V30 1 N 2.32446 1.37609 -0.288011 0
M  V30 2 N 1.91251 0.0716372 -0.012596 0
M  V30 3 C 0.662574 -0.339079 0.254383 0
M  V30 4 C -0.548532 0.531364 0.309718 0 CFG=1
M  V30 5 C -1.4252 0.279674 -0.898294 0
M  V30 6 C -2.78125 -0.0409044 -0.300799 0 CFG=2
M  V30 7 C -2.67173 0.737216 1.01755 0
M  V30 8 N -1.37062 0.225325 1.47723 0
M  V30 9 O -2.78795 -1.40631 -0.0204142 0
M  V30 10 N 0.703955 -1.65619 0.45887 0
M  V30 11 N 1.95613 -2.0603 0.322154 0
M  V30 12 C 2.71777 -1.00358 0.030192 0
M  V30 13 N 4.13552 -0.99564 -0.19918 0
M  V30 14 H 3.33385 1.62119 -0.304315 0
M  V30 15 H 1.65482 2.14415 -0.48489 0
M  V30 16 H -0.262672 1.60088 0.405259 0
M  V30 17 H -1.04368 -0.539745 -1.53608 0
M  V30 18 H -1.52056 1.24505 -1.44892 0
M  V30 19 H -3.61726 0.292865 -0.912864 0
M  V30 20 H -3.47931 0.511176 1.70571 0
M  V30 21 H -2.56307 1.79447 0.734685 0
M  V30 22 H -1.43562 -0.819519 1.5714 0
M  V30 23 H -3.2309 -1.61732 0.835329 0
M  V30 24 H 4.63992 -1.78777 -0.647741 0
M  V30 25 H 4.69685 -0.164722 0.0920794 0
M  V30 END ATOM
M  V30 BEGIN BOND
M  V30 1 1 1 2
M  V30 2 1 2 3
M  V30 3 1 3 4
M  V30 4 1 4 5
M  V30 5 1 5 6
M  V30 6 1 6 7
M  V30 7 1 7 8
M  V30 8 1 6 9
M  V30 9 2 3 10
M  V30 10 1 10 11
M  V30 11 2 11 12
M  V30 12 1 12 13
M  V30 13 1 12 2
M  V30 14 1 8 4
M  V30 15 1 1 14
M  V30 16 1 1 15
M  V30 17 1 4 16 CFG=1
M  V30 18 1 5 17
M  V30 19 1 5 18
M  V30 20 1 6 19 CFG=3
M  V30 21 1 7 20
M  V30 22 1 7 21
M  V30 23 1 8 22
M  V30 24 1 9 23
M  V30 25 1 13 24
M  V30 26 1 13 25
M  V30 END BOND
M  V30 END CTAB
M  END
