
     RDKit          3D

  0  0  0  0  0  0  0  0  0  0999 V3000
M  V30 BEGIN CTAB
M  V30 COUNTS 30 30 0 0 0
M  V30 BEGIN ATOM
M  V30 1 C -2.29613 -0.588165 -1.16151 0
M  V30 2 C -1.86837 0.0677694 0.109523 0
M  V30 3 C -0.526015 0.635445 0.199695 0
M  V30 4 C 0.728326 -0.0678503 0.0826164 0
M  V30 5 C 1.9106 0.752135 0.124885 0
M  V30 6 C 1.77679 2.2169 0.341079 0
M  V30 7 C 3.15924 0.222274 0.0108466 0
M  V30 8 C 3.32088 -1.13216 -0.14826 0
M  V30 9 N 2.22928 -1.87243 -0.182849 0
M  V30 10 C 0.947231 -1.39073 -0.0728652 0
M  V30 11 N -0.0269203 -2.44992 -0.105798 0
M  V30 12 N -0.488224 1.84361 -0.719333 0
M  V30 13 C -2.34598 -0.745083 1.28321 0
M  V30 14 H -1.49394 -0.594595 -1.95388 0
M  V30 15 H -3.10279 0.0325935 -1.63552 0
M  V30 16 H -2.76369 -1.59364 -1.02758 0
M  V30 17 H -2.61891 0.987793 0.156906 0
M  V30 18 H -0.488036 1.1801 1.20763 0
M  V30 19 H 1.77495 2.82164 -0.568525 0
M  V30 20 H 1.03987 2.48762 1.1192 0
M  V30 21 H 2.76818 2.55469 0.838573 0
M  V30 22 H 4.01113 0.885504 0.0486742 0
M  V30 23 H 4.32184 -1.53723 -0.238475 0
M  V30 24 H -0.401863 -2.84674 -1.01127 0
M  V30 25 H -0.354759 -2.87133 0.784895 0
M  V30 26 H -0.334262 1.52616 -1.68034 0
M  V30 27 H -1.43548 2.30086 -0.658566 0
M  V30 28 H -3.13565 -0.215497 1.83836 0
M  V30 29 H -2.7864 -1.72157 0.980814 0
M  V30 30 H -1.5209 -0.888145 2.03787 0
M  V30 END ATOM
M  V30 BEGIN BOND
M  V30 1 1 1 2
M  V30 2 1 2 3
M  V30 3 1 3 4
M  V30 4 2 4 5
M  V30 5 1 5 6
M  V30 6 1 5 7
M  V30 7 2 7 8
M  V30 8 1 8 9
M  V30 9 2 9 10
M  V30 10 1 10 11
M  V30 11 1 3 12
M  V30 12 1 2 13
M  V30 13 1 10 4
M  V30 14 1 1 14
M  V30 15 1 1 15
M  V30 16 1 1 16
M  V30 17 1 2 17
M  V30 18 1 3 18
M  V30 19 1 6 19
M  V30 20 1 6 20
M  V30 21 1 6 21
M  V30 22 1 7 22
M  V30 23 1 8 23
M  V30 24 1 11 24
M  V30 25 1 11 25
M  V30 26 1 12 26
M  V30 27 1 12 27
M  V30 28 1 13 28
M  V30 29 1 13 29
M  V30 30 1 13 30
M  V30 END BOND
M  V30 END CTAB
M  END
