
     RDKit          3D

  0  0  0  0  0  0  0  0  0  0999 V3000
M  V30 BEGIN CTAB
M  V30 COUNTS 30 31 0 0 0
M  V30 BEGIN ATOM
M  V30 1 N -6.06083 0.248565 0.739751 0
M  V30 2 C -4.67193 0.219514 0.398173 0
M  V30 3 C -3.69916 -0.00388836 1.34313 0
M  V30 4 C -2.33853 -0.0294228 0.991431 0
M  V30 5 C -1.92558 0.165216 -0.295619 0
M  V30 6 C -0.507779 0.146448 -0.707863 0
M  V30 7 C 0.464799 -0.0567191 0.118999 0
M  V30 8 C 1.88188 -0.118278 -0.0434546 0
M  V30 9 C 2.70432 -0.363841 1.08564 0
M  V30 10 C 4.06929 -0.435568 1.00159 0
M  V30 11 C 4.71975 -0.27163 -0.19356 0
M  V30 12 N 6.12459 -0.357229 -0.211466 0
M  V30 13 C 3.94771 -0.0348684 -1.28988 0
M  V30 14 C 2.5365 0.0408742 -1.21223 0
M  V30 15 Cl 1.7321 0.350983 -2.72426 0
M  V30 16 C -2.91697 0.392392 -1.25573 0
M  V30 17 Cl -2.40879 0.645019 -2.91601 0
M  V30 18 C -4.24383 0.41471 -0.897695 0
M  V30 19 H -6.7606 -0.00226685 0.016712 0
M  V30 20 H -6.40624 0.509897 1.68152 0
M  V30 21 H -4.00674 -0.160269 2.36828 0
M  V30 22 H -1.64205 -0.209881 1.7876 0
M  V30 23 H -0.334681 0.31382 -1.74756 0
M  V30 24 H 0.11472 -0.214597 1.16848 0
M  V30 25 H 2.17865 -0.492037 2.02648 0
M  V30 26 H 4.65675 -0.627079 1.902 0
M  V30 27 H 6.67655 0.100489 0.559912 0
M  V30 28 H 6.65423 -0.858567 -0.961318 0
M  V30 29 H 4.45501 0.0952396 -2.23511 0
M  V30 30 H -4.99317 0.592975 -1.66163 0
M  V30 END ATOM
M  V30 BEGIN BOND
M  V30 1 1 1 2
M  V30 2 2 2 3
M  V30 3 1 3 4
M  V30 4 2 4 5
M  V30 5 1 5 6
M  V30 6 2 6 7 CFG=2
M  V30 7 1 7 8
M  V30 8 2 8 9
M  V30 9 1 9 10
M  V30 10 2 10 11
M  V30 11 1 11 12
M  V30 12 1 11 13
M  V30 13 2 13 14
M  V30 14 1 14 15
M  V30 15 1 5 16
M  V30 16 1 16 17
M  V30 17 2 16 18
M  V30 18 1 18 2
M  V30 19 1 14 8
M  V30 20 1 1 19
M  V30 21 1 1 20
M  V30 22 1 3 21
M  V30 23 1 4 22
M  V30 24 1 6 23
M  V30 25 1 7 24
M  V30 26 1 9 25
M  V30 27 1 10 26
M  V30 28 1 12 27
M  V30 29 1 12 28
M  V30 30 1 13 29
M  V30 31 1 18 30
M  V30 END BOND
M  V30 END CTAB
M  END
