
     RDKit          3D

  0  0  0  0  0  0  0  0  0  0999 V3000
M  V30 BEGIN CTAB
M  V30 COUNTS 16 16 0 0 0
M  V30 BEGIN ATOM
M  V30 1 N 3.32018 -0.125608 0.64024 0
M  V30 2 C 2.00004 -0.479719 0.237127 0
M  V30 3 S 1.37816 -1.9923 -0.287028 0
M  V30 4 C -0.23755 -1.54857 -0.56256 0
M  V30 5 C -0.261975 -0.223201 -0.239216 0
M  V30 6 C 0.896169 0.332715 0.175362 0
M  V30 7 S -1.7682 0.729423 -0.36229 0
M  V30 8 O -1.42953 2.17969 -0.623869 0
M  V30 9 O -2.53972 0.233815 -1.53323 0
M  V30 10 N -2.618 0.654109 1.11437 0
M  V30 11 H 4.11488 -0.462998 0.0925168 0
M  V30 12 H 3.44451 0.459111 1.46976 0
M  V30 13 H -1.07648 -2.17589 -0.918666 0
M  V30 14 H 1.01745 1.40661 0.471036 0
M  V30 15 H -2.85644 -0.317626 1.33665 0
M  V30 16 H -3.3835 1.33044 1.12469 0
M  V30 END ATOM
M  V30 BEGIN BOND
M  V30 1 1 1 2
M  V30 2 1 2 3
M  V30 3 1 3 4
M  V30 4 2 4 5
M  V30 5 1 5 6
M  V30 6 1 5 7
M  V30 7 2 7 8
M  V30 8 2 7 9
M  V30 9 1 7 10
M  V30 10 2 6 2
M  V30 11 1 1 11
M  V30 12 1 1 12
M  V30 13 1 4 13
M  V30 14 1 6 14
M  V30 15 1 10 15
M  V30 16 1 10 16
M  V30 END BOND
M  V30 END CTAB
M  END
