
     RDKit          3D

  0  0  0  0  0  0  0  0  0  0999 V3000
M  V30 BEGIN CTAB
M  V30 COUNTS 63 65 0 0 0
M  V30 BEGIN ATOM
M  V30 1 C 8.39808 1.07496 0.611003 0
M  V30 2 C 8.36287 -0.444739 0.620655 0
M  V30 3 C 9.60704 -0.931849 -0.101496 0
M  V30 4 C 8.30925 -0.897224 2.03996 0
M  V30 5 C 7.13059 -0.848612 -0.13211 0
M  V30 6 C 5.94982 -0.151596 0.0859672 0
M  V30 7 C 4.77503 -0.456004 -0.542142 0
M  V30 8 C 3.53289 0.250023 -0.367589 0
M  V30 9 C 2.48016 0.858039 -0.253625 0
M  V30 10 C 1.21791 1.57701 -0.171347 0
M  V30 11 C 1.15062 2.92598 -0.379345 0
M  V30 12 C -0.0505757 3.63412 -0.349759 0
M  V30 13 C -1.19963 2.92559 -0.0998398 0
M  V30 14 C -1.119 1.58058 0.109535 0
M  V30 15 N 0.0669477 0.886075 0.0785032 0
M  V30 16 C -2.37163 0.882888 0.328131 0
M  V30 17 C -3.41813 0.316408 0.458659 0
M  V30 18 C -4.68224 -0.36367 0.555458 0
M  V30 19 C -4.80018 -1.69169 0.854069 0
M  V30 20 N -3.64569 -2.47735 1.12651 0
M  V30 21 C -6.03767 -2.31084 0.904585 0
M  V30 22 C -7.2154 -1.59667 0.654022 0
M  V30 23 C -7.1092 -0.251134 0.353305 0
M  V30 24 C -5.8696 0.343461 0.307172 0
M  V30 25 C -8.36129 0.530524 0.0965323 0
M  V30 26 C -9.14137 0.569065 1.3729 0
M  V30 27 C -8.02128 1.96228 -0.304023 0
M  V30 28 C -9.13528 -0.0592497 -1.05275 0
M  V30 29 C 4.80149 -1.53495 -1.44606 0
M  V30 30 N 3.6359 -1.92727 -2.14651 0
M  V30 31 C 5.96229 -2.23107 -1.67243 0
M  V30 32 C 7.13018 -1.89364 -1.01915 0
M  V30 33 H 7.95292 1.44916 -0.325757 0
M  V30 34 H 7.88238 1.4681 1.5165 0
M  V30 35 H 9.45509 1.45314 0.644922 0
M  V30 36 H 10.4539 -0.352955 0.307613 0
M  V30 37 H 9.80384 -1.99609 0.0614687 0
M  V30 38 H 9.49792 -0.6591 -1.15113 0
M  V30 39 H 7.57343 -0.241354 2.58784 0
M  V30 40 H 9.30548 -0.688417 2.52292 0
M  V30 41 H 7.99226 -1.94103 2.18914 0
M  V30 42 H 5.89711 0.685509 0.789295 0
M  V30 43 H 2.07487 3.50431 -0.568176 0
M  V30 44 H -0.047997 4.68432 -0.521109 0
M  V30 45 H -2.16244 3.4679 -0.0612118 0
M  V30 46 H -3.0359 -2.78317 0.341646 0
M  V30 47 H -3.36093 -2.7838 2.0906 0
M  V30 48 H -6.07301 -3.36004 1.14474 0
M  V30 49 H -8.19026 -2.06666 0.697294 0
M  V30 50 H -5.78627 1.40037 0.073867 0
M  V30 51 H -10.1864 0.921267 1.24217 0
M  V30 52 H -9.1411 -0.429226 1.85885 0
M  V30 53 H -8.62054 1.2573 2.07758 0
M  V30 54 H -7.29301 2.00062 -1.11759 0
M  V30 55 H -8.9657 2.41763 -0.702596 0
M  V30 56 H -7.70021 2.57039 0.585493 0
M  V30 57 H -9.5897 0.761306 -1.66328 0
M  V30 58 H -9.96735 -0.696287 -0.702645 0
M  V30 59 H -8.42426 -0.588551 -1.73883 0
M  V30 60 H 2.96217 -1.2403 -2.55734 0
M  V30 61 H 3.38781 -2.94197 -2.27898 0
M  V30 62 H 5.92659 -3.0657 -2.38283 0
M  V30 63 H 8.04635 -2.45614 -1.21001 0
M  V30 END ATOM
M  V30 BEGIN BOND
M  V30 1 1 1 2
M  V30 2 1 2 3
M  V30 3 1 2 4
M  V30 4 1 2 5
M  V30 5 2 5 6
M  V30 6 1 6 7
M  V30 7 1 7 8
M  V30 8 3 8 9
M  V30 9 1 9 10
M  V30 10 2 10 11
M  V30 11 1 11 12
M  V30 12 2 12 13
M  V30 13 1 13 14
M  V30 14 2 14 15
M  V30 15 1 14 16
M  V30 16 3 16 17
M  V30 17 1 17 18
M  V30 18 2 18 19
M  V30 19 1 19 20
M  V30 20 1 19 21
M  V30 21 2 21 22
M  V30 22 1 22 23
M  V30 23 2 23 24
M  V30 24 1 23 25
M  V30 25 1 25 26
M  V30 26 1 25 27
M  V30 27 1 25 28
M  V30 28 2 7 29
M  V30 29 1 29 30
M  V30 30 1 29 31
M  V30 31 2 31 32
M  V30 32 1 32 5
M  V30 33 1 15 10
M  V30 34 1 24 18
M  V30 35 1 1 33
M  V30 36 1 1 34
M  V30 37 1 1 35
M  V30 38 1 3 36
M  V30 39 1 3 37
M  V30 40 1 3 38
M  V30 41 1 4 39
M  V30 42 1 4 40
M  V30 43 1 4 41
M  V30 44 1 6 42
M  V30 45 1 11 43
M  V30 46 1 12 44
M  V30 47 1 13 45
M  V30 48 1 20 46
M  V30 49 1 20 47
M  V30 50 1 21 48
M  V30 51 1 22 49
M  V30 52 1 24 50
M  V30 53 1 26 51
M  V30 54 1 26 52
M  V30 55 1 26 53
M  V30 56 1 27 54
M  V30 57 1 27 55
M  V30 58 1 27 56
M  V30 59 1 28 57
M  V30 60 1 28 58
M  V30 61 1 28 59
M  V30 62 1 30 60
M  V30 63 1 30 61
M  V30 64 1 31 62
M  V30 65 1 32 63
M  V30 END BOND
M  V30 END CTAB
M  END
