
     RDKit          3D

  0  0  0  0  0  0  0  0  0  0999 V3000
M  V30 BEGIN CTAB
M  V30 COUNTS 27 28 0 0 0
M  V30 BEGIN ATOM
M  V30 1 N 4.97667 0.266562 -0.477225 0
M  V30 2 C 3.65401 -0.125223 -0.12897 0
M  V30 3 C 3.08565 0.277851 1.06644 0
M  V30 4 C 1.80627 -0.0960881 1.4125 0
M  V30 5 C 1.0699 -0.885099 0.561618 0
M  V30 6 S -0.595965 -1.41276 0.937586 0
M  V30 7 C -1.78252 -0.203632 0.307026 0
M  V30 8 C -3.13444 -0.382469 0.470859 0
M  V30 9 N -3.58951 -1.54249 1.14941 0
M  V30 10 C -4.0695 0.512687 0.00667533 0
M  V30 11 C -3.58746 1.63451 -0.651467 0
M  V30 12 C -2.23665 1.85631 -0.839603 0
M  V30 13 C -1.3293 0.922091 -0.351993 0
M  V30 14 C 1.6205 -1.29399 -0.630136 0
M  V30 15 C 2.90292 -0.917399 -0.97379 0
M  V30 16 H 5.78 -0.382885 -0.41464 0
M  V30 17 H 5.10502 1.25314 -0.804008 0
M  V30 18 H 3.69502 0.901921 1.71776 0
M  V30 19 H 1.35843 0.210608 2.33444 0
M  V30 20 H -4.45867 -2.05839 0.886687 0
M  V30 21 H -3.05562 -1.93108 1.95775 0
M  V30 22 H -5.13732 0.3811 0.130602 0
M  V30 23 H -4.32262 2.34916 -1.02258 0
M  V30 24 H -1.90156 2.75418 -1.36401 0
M  V30 25 H -0.254003 1.07659 -0.489239 0
M  V30 26 H 1.04604 -1.92799 -1.32775 0
M  V30 27 H 3.3547 -1.23721 -1.92291 0
M  V30 END ATOM
M  V30 BEGIN BOND
M  V30 1 1 1 2
M  V30 2 2 2 3
M  V30 3 1 3 4
M  V30 4 2 4 5
M  V30 5 1 5 6
M  V30 6 1 6 7
M  V30 7 2 7 8
M  V30 8 1 8 9
M  V30 9 1 8 10
M  V30 10 2 10 11
M  V30 11 1 11 12
M  V30 12 2 12 13
M  V30 13 1 5 14
M  V30 14 2 14 15
M  V30 15 1 15 2
M  V30 16 1 13 7
M  V30 17 1 1 16
M  V30 18 1 1 17
M  V30 19 1 3 18
M  V30 20 1 4 19
M  V30 21 1 9 20
M  V30 22 1 9 21
M  V30 23 1 10 22
M  V30 24 1 11 23
M  V30 25 1 12 24
M  V30 26 1 13 25
M  V30 27 1 14 26
M  V30 28 1 15 27
M  V30 END BOND
M  V30 END CTAB
M  END
