
     RDKit          3D

  0  0  0  0  0  0  0  0  0  0999 V3000
M  V30 BEGIN CTAB
M  V30 COUNTS 18 18 0 0 0
M  V30 BEGIN ATOM
M  V30 1 N -3.2167 0.489374 0.808973 0
M  V30 2 N -2.96202 -0.225269 -0.295587 0
M  V30 3 C -1.95923 -0.611948 -0.906996 0
M  V30 4 C -0.575168 -0.365501 -0.549487 0
M  V30 5 C -0.1771 0.349658 0.54542 0
M  V30 6 C 1.18038 0.519106 0.784802 0
M  V30 7 C 2.14661 -0.00583982 -0.0388509 0
M  V30 8 N 1.71201 -0.701151 -1.10261 0
M  V30 9 C 0.420717 -0.900453 -1.38902 0
M  V30 10 N 3.53867 0.179571 0.224555 0
M  V30 11 H -3.51428 1.48781 0.756513 0
M  V30 12 H -3.12731 0.075322 1.76249 0
M  V30 13 H -2.16501 -1.22115 -1.8419 0
M  V30 14 H -0.89806 0.784403 1.22628 0
M  V30 15 H 1.44191 1.09362 1.66529 0
M  V30 16 H 0.0858879 -1.46145 -2.24755 0
M  V30 17 H 4.07861 0.722172 -0.481406 0
M  V30 18 H 3.99007 -0.208274 1.07909 0
M  V30 END ATOM
M  V30 BEGIN BOND
M  V30 1 1 1 2
M  V30 2 2 2 3 CFG=2
M  V30 3 1 3 4
M  V30 4 2 4 5
M  V30 5 1 5 6
M  V30 6 2 6 7
M  V30 7 1 7 8
M  V30 8 2 8 9
M  V30 9 1 7 10
M  V30 10 1 9 4
M  V30 11 1 1 11
M  V30 12 1 1 12
M  V30 13 1 3 13
M  V30 14 1 5 14
M  V30 15 1 6 15
M  V30 16 1 9 16
M  V30 17 1 10 17
M  V30 18 1 10 18
M  V30 END BOND
M  V30 END CTAB
M  END
