
     RDKit          3D

  0  0  0  0  0  0  0  0  0  0999 V3000
M  V30 BEGIN CTAB
M  V30 COUNTS 33 34 0 0 0
M  V30 BEGIN ATOM
M  V30 1 N -4.88244 -0.461897 0.501526 0
M  V30 2 C -4.10355 0.72378 0.421749 0
M  V30 3 C -2.67768 0.554652 0.850004 0
M  V30 4 N -1.9549 -0.415419 0.0621478 0
M  V30 5 C -1.73191 -0.0116704 -1.2892 0
M  V30 6 C -0.222677 -0.168108 -1.53968 0
M  V30 7 C 0.257623 0.269458 -0.147661 0 CFG=1
M  V30 8 C -0.643064 -0.56593 0.713226 0
M  V30 9 C 1.68552 0.0684415 0.0520464 0
M  V30 10 C 2.34752 -1.11642 -0.00744441 0
M  V30 11 C 3.71661 -1.1812 0.200517 0
M  V30 12 C 4.45994 -0.0515459 0.475115 0
M  V30 13 N 3.76959 1.10925 0.527233 0
M  V30 14 C 2.4569 1.20116 0.331833 0
M  V30 15 N 5.85134 -0.0469301 0.695556 0
M  V30 16 H -4.52772 -1.16434 -0.146964 0
M  V30 17 H -5.85433 -0.247498 0.272398 0
M  V30 18 H -4.55561 1.49594 1.10283 0
M  V30 19 H -4.21791 1.12993 -0.595184 0
M  V30 20 H -2.7009 0.150264 1.8971 0
M  V30 21 H -2.14446 1.51575 0.857012 0
M  V30 22 H -2.32459 -0.537864 -2.04402 0
M  V30 23 H -1.89618 1.1057 -1.33192 0
M  V30 24 H 0.0572972 -1.22763 -1.65809 0
M  V30 25 H 0.144474 0.503293 -2.31596 0
M  V30 26 H -0.0531457 1.32296 -0.0501989 0
M  V30 27 H -0.325385 -1.63154 0.579132 0
M  V30 28 H -0.664263 -0.278683 1.76303 0
M  V30 29 H 1.7803 -2.01123 -0.222099 0
M  V30 30 H 4.24365 -2.11675 0.154328 0
M  V30 31 H 1.99394 2.17532 0.394342 0
M  V30 32 H 6.49628 -0.127619 -0.102724 0
M  V30 33 H 6.21976 0.0363712 1.65297 0
M  V30 END ATOM
M  V30 BEGIN BOND
M  V30 1 1 1 2
M  V30 2 1 2 3
M  V30 3 1 3 4
M  V30 4 1 4 5
M  V30 5 1 5 6
M  V30 6 1 6 7
M  V30 7 1 7 8
M  V30 8 1 7 9
M  V30 9 2 9 10
M  V30 10 1 10 11
M  V30 11 2 11 12
M  V30 12 1 12 13
M  V30 13 2 13 14
M  V30 14 1 12 15
M  V30 15 1 8 4
M  V30 16 1 14 9
M  V30 17 1 1 16
M  V30 18 1 1 17
M  V30 19 1 2 18
M  V30 20 1 2 19
M  V30 21 1 3 20
M  V30 22 1 3 21
M  V30 23 1 5 22
M  V30 24 1 5 23
M  V30 25 1 6 24
M  V30 26 1 6 25
M  V30 27 1 7 26 CFG=1
M  V30 28 1 8 27
M  V30 29 1 8 28
M  V30 30 1 10 29
M  V30 31 1 11 30
M  V30 32 1 14 31
M  V30 33 1 15 32
M  V30 34 1 15 33
M  V30 END BOND
M  V30 END CTAB
M  END
