
     RDKit          3D

  0  0  0  0  0  0  0  0  0  0999 V3000
M  V30 BEGIN CTAB
M  V30 COUNTS 25 26 0 0 0
M  V30 BEGIN ATOM
M  V30 1 N 1.11992 -1.01384 1.33556 0
M  V30 2 C 1.54366 -0.115979 0.352109 0
M  V30 3 C 2.75265 0.534382 0.524184 0
M  V30 4 C 3.20397 1.42037 -0.41888 0
M  V30 5 N 2.47388 1.65178 -1.4998 0
M  V30 6 C 1.29895 1.02711 -1.6786 0
M  V30 7 C 0.760279 0.117187 -0.784086 0
M  V30 8 C -0.530624 -0.552631 -1.00222 0
M  V30 9 C -1.5906 -0.0594001 -0.0791549 0
M  V30 10 C -1.57216 0.990981 0.803863 0
M  V30 11 C -2.80122 1.02612 1.42085 0
M  V30 12 O -3.54656 0.0472014 0.945566 0
M  V30 13 C -2.84867 -0.616798 0.0485508 0
M  V30 14 N -0.43212 -1.99784 -0.961541 0
M  V30 15 H 0.666476 -0.69992 2.21368 0
M  V30 16 H 1.25993 -2.03589 1.19419 0
M  V30 17 H 3.31944 0.310713 1.43225 0
M  V30 18 H 4.17128 1.90601 -0.226707 0
M  V30 19 H 0.701055 1.22454 -2.57558 0
M  V30 20 H -0.863381 -0.280438 -2.03326 0
M  V30 21 H -0.751156 1.65533 0.975522 0
M  V30 22 H -3.15715 1.71209 2.17346 0
M  V30 23 H -3.25571 -1.4757 -0.486222 0
M  V30 24 H -0.768022 -2.38958 -0.0301248 0
M  V30 25 H -1.15412 -2.3858 -1.64362 0
M  V30 END ATOM
M  V30 BEGIN BOND
M  V30 1 1 1 2
M  V30 2 2 2 3
M  V30 3 1 3 4
M  V30 4 2 4 5
M  V30 5 1 5 6
M  V30 6 2 6 7
M  V30 7 1 7 8
M  V30 8 1 8 9
M  V30 9 1 9 10
M  V30 10 2 10 11
M  V30 11 1 11 12
M  V30 12 1 12 13
M  V30 13 1 8 14
M  V30 14 1 7 2
M  V30 15 2 13 9
M  V30 16 1 1 15
M  V30 17 1 1 16
M  V30 18 1 3 17
M  V30 19 1 4 18
M  V30 20 1 6 19
M  V30 21 1 8 20
M  V30 22 1 10 21
M  V30 23 1 11 22
M  V30 24 1 13 23
M  V30 25 1 14 24
M  V30 26 1 14 25
M  V30 END BOND
M  V30 END CTAB
M  END
