
     RDKit          3D

  0  0  0  0  0  0  0  0  0  0999 V3000
M  V30 BEGIN CTAB
M  V30 COUNTS 40 42 0 0 0
M  V30 BEGIN ATOM
M  V30 1 N -6.05124 0.514526 0.724934 0
M  V30 2 C -5.73799 -0.0934955 -0.542398 0
M  V30 3 C -4.35815 -0.695056 -0.470346 0
M  V30 4 N -3.34737 0.308698 -0.175599 0
M  V30 5 C -1.99925 -0.0747551 -0.0710441 0
M  V30 6 C -1.62835 -1.40323 -0.247148 0
M  V30 7 C -0.331127 -1.82332 -0.155108 0
M  V30 8 C 0.660659 -0.918524 0.120635 0
M  V30 9 C 2.04722 -1.40118 0.21337 0
M  V30 10 O 2.29246 -2.62198 0.0395744 0
M  V30 11 N 3.06351 -0.450136 0.49992 0
M  V30 12 C 4.42979 -0.914995 0.593074 0
M  V30 13 C 5.13594 -0.869336 -0.731067 0
M  V30 14 N 6.4795 -1.337 -0.588953 0
M  V30 15 C 2.6985 0.912339 0.68246 0
M  V30 16 O 3.56707 1.76138 0.933434 0
M  V30 17 C 1.28931 1.34484 0.578489 0
M  V30 18 C 0.956823 2.67171 0.759124 0
M  V30 19 C -0.335058 3.12928 0.674026 0
M  V30 20 C -1.30939 2.18652 0.394118 0
M  V30 21 C -1.02394 0.850011 0.205979 0
M  V30 22 C 0.30733 0.412247 0.299324 0
M  V30 23 H -5.18544 0.739043 1.23362 0
M  V30 24 H -6.5757 -0.202761 1.29132 0
M  V30 25 H -6.43849 -0.903065 -0.814499 0
M  V30 26 H -5.80838 0.701808 -1.31482 0
M  V30 27 H -4.379 -1.45794 0.335249 0
M  V30 28 H -4.11428 -1.24548 -1.41037 0
M  V30 29 H -3.66503 1.26685 -0.0548346 0
M  V30 30 H -2.42984 -2.10827 -0.465592 0
M  V30 31 H -0.0586243 -2.8601 -0.294663 0
M  V30 32 H 4.50043 -1.92795 1.06434 0
M  V30 33 H 4.96645 -0.193647 1.26604 0
M  V30 34 H 4.63901 -1.48368 -1.50647 0
M  V30 35 H 5.09532 0.181376 -1.09109 0
M  V30 36 H 6.71337 -1.42531 0.404727 0
M  V30 37 H 7.14808 -0.655752 -1.01549 0
M  V30 38 H 1.74921 3.3744 0.976044 0
M  V30 39 H -0.622892 4.16005 0.810651 0
M  V30 40 H -2.34042 2.55189 0.326229 0
M  V30 END ATOM
M  V30 BEGIN BOND
M  V30 1 1 1 2
M  V30 2 1 2 3
M  V30 3 1 3 4
M  V30 4 1 4 5
M  V30 5 2 5 6
M  V30 6 1 6 7
M  V30 7 2 7 8
M  V30 8 1 8 9
M  V30 9 2 9 10
M  V30 10 1 9 11
M  V30 11 1 11 12
M  V30 12 1 12 13
M  V30 13 1 13 14
M  V30 14 1 11 15
M  V30 15 2 15 16
M  V30 16 1 15 17
M  V30 17 1 17 18
M  V30 18 2 18 19
M  V30 19 1 19 20
M  V30 20 2 20 21
M  V30 21 1 21 22
M  V30 22 1 21 5
M  V30 23 1 22 8
M  V30 24 2 22 17
M  V30 25 1 1 23
M  V30 26 1 1 24
M  V30 27 1 2 25
M  V30 28 1 2 26
M  V30 29 1 3 27
M  V30 30 1 3 28
M  V30 31 1 4 29
M  V30 32 1 6 30
M  V30 33 1 7 31
M  V30 34 1 12 32
M  V30 35 1 12 33
M  V30 36 1 13 34
M  V30 37 1 13 35
M  V30 38 1 14 36
M  V30 39 1 14 37
M  V30 40 1 18 38
M  V30 41 1 19 39
M  V30 42 1 20 40
M  V30 END BOND
M  V30 END CTAB
M  END
