
     RDKit          3D

  0  0  0  0  0  0  0  0  0  0999 V3000
M  V30 BEGIN CTAB
M  V30 COUNTS 38 40 0 0 0
M  V30 BEGIN ATOM
M  V30 1 C -6.79698 0.159303 -0.26066 0
M  V30 2 C -5.37403 -0.16533 0.0239335 0
M  V30 3 N -4.36262 0.67437 0.287513 0
M  V30 4 N -3.24254 0.0432806 0.490197 0
M  V30 5 C -3.51222 -1.28062 0.357046 0
M  V30 6 C -4.84662 -1.44627 0.0631304 0
M  V30 7 C -2.52898 -2.40543 0.502503 0
M  V30 8 C -1.93064 0.515092 0.796728 0
M  V30 9 C -1.10967 1.09535 -0.140291 0
M  V30 10 C 0.167674 1.54694 0.187162 0
M  V30 11 C 0.655897 1.42689 1.46588 0
M  V30 12 N -0.20326 0.841771 2.36162 0
M  V30 13 N -1.40176 0.425178 2.02799 0
M  V30 14 S 2.25737 1.92749 1.97331 0
M  V30 15 C 3.39239 2.38077 0.696614 0
M  V30 16 C 3.89385 1.23338 -0.0912445 0
M  V30 17 N 3.34688 0.815632 -1.21175 0
M  V30 18 C 3.78995 -0.222773 -1.93363 0
M  V30 19 N 3.17683 -0.645584 -3.13633 0
M  V30 20 N 4.87093 -0.870506 -1.46289 0
M  V30 21 C 5.4568 -0.471886 -0.320466 0
M  V30 22 N 4.98291 0.568234 0.36812 0
M  V30 23 N 6.59315 -1.19195 0.128657 0
M  V30 24 H -7.4497 -0.533137 0.318189 0
M  V30 25 H -7.03259 -0.0475661 -1.33311 0
M  V30 26 H -7.05573 1.17867 0.0552727 0
M  V30 27 H -5.40656 -2.36073 -0.108511 0
M  V30 28 H -1.87924 -2.12486 1.36299 0
M  V30 29 H -3.0767 -3.34965 0.688551 0
M  V30 30 H -1.89987 -2.5055 -0.415827 0
M  V30 31 H -1.47663 1.19859 -1.15589 0
M  V30 32 H 0.77864 2.02006 -0.574297 0
M  V30 33 H 3.01797 3.19227 0.0191573 0
M  V30 34 H 4.30271 2.83618 1.19758 0
M  V30 35 H 3.63073 -1.33272 -3.7716 0
M  V30 36 H 2.24818 -0.259118 -3.3918 0
M  V30 37 H 7.50174 -0.688458 0.176802 0
M  V30 38 H 6.52173 -2.17738 0.397367 0
M  V30 END ATOM
M  V30 BEGIN BOND
M  V30 1 1 1 2
M  V30 2 2 2 3
M  V30 3 1 3 4
M  V30 4 1 4 5
M  V30 5 2 5 6
M  V30 6 1 5 7
M  V30 7 1 4 8
M  V30 8 2 8 9
M  V30 9 1 9 10
M  V30 10 2 10 11
M  V30 11 1 11 12
M  V30 12 2 12 13
M  V30 13 1 11 14
M  V30 14 1 14 15
M  V30 15 1 15 16
M  V30 16 2 16 17
M  V30 17 1 17 18
M  V30 18 1 18 19
M  V30 19 2 18 20
M  V30 20 1 20 21
M  V30 21 2 21 22
M  V30 22 1 21 23
M  V30 23 1 6 2
M  V30 24 1 13 8
M  V30 25 1 22 16
M  V30 26 1 1 24
M  V30 27 1 1 25
M  V30 28 1 1 26
M  V30 29 1 6 27
M  V30 30 1 7 28
M  V30 31 1 7 29
M  V30 32 1 7 30
M  V30 33 1 9 31
M  V30 34 1 10 32
M  V30 35 1 15 33
M  V30 36 1 15 34
M  V30 37 1 19 35
M  V30 38 1 19 36
M  V30 39 1 23 37
M  V30 40 1 23 38
M  V30 END BOND
M  V30 END CTAB
M  END
