
     RDKit          3D

  0  0  0  0  0  0  0  0  0  0999 V3000
M  V30 BEGIN CTAB
M  V30 COUNTS 19 19 0 0 0
M  V30 BEGIN ATOM
M  V30 1 N 3.40474 0.174681 -0.342111 0
M  V30 2 C 2.00129 0.00162463 -0.200907 0
M  V30 3 C 1.40209 0.148863 1.02915 0
M  V30 4 F 2.12677 0.458737 2.1227 0
M  V30 5 C 0.0314869 -0.0180366 1.17814 0
M  V30 6 F -0.570014 0.124788 2.38639 0
M  V30 7 C -0.767299 -0.335443 0.100393 0
M  V30 8 C -0.182628 -0.488536 -1.14968 0
M  V30 9 F -0.959681 -0.802037 -2.22307 0
M  V30 10 C 1.18111 -0.31593 -1.26331 0
M  V30 11 F 1.78742 -0.460998 -2.4873 0
M  V30 12 S -2.48904 -0.534839 0.341535 0
M  V30 13 N -3.27385 1.00736 0.115518 0
M  V30 14 O -3.02736 -1.52012 -0.660115 0
M  V30 15 O -2.69024 -0.998649 1.74691 0
M  V30 16 H 4.10046 -0.285329 0.275335 0
M  V30 17 H 3.72472 0.803702 -1.11689 0
M  V30 18 H -2.90977 1.61233 0.910526 0
M  V30 19 H -2.89021 1.42784 -0.763205 0
M  V30 END ATOM
M  V30 BEGIN BOND
M  V30 1 1 1 2
M  V30 2 2 2 3
M  V30 3 1 3 4
M  V30 4 1 3 5
M  V30 5 1 5 6
M  V30 6 2 5 7
M  V30 7 1 7 8
M  V30 8 1 8 9
M  V30 9 2 8 10
M  V30 10 1 10 11
M  V30 11 1 7 12
M  V30 12 1 12 13
M  V30 13 2 12 14
M  V30 14 2 12 15
M  V30 15 1 10 2
M  V30 16 1 1 16
M  V30 17 1 1 17
M  V30 18 1 13 18
M  V30 19 1 13 19
M  V30 END BOND
M  V30 END CTAB
M  END
