
     RDKit          3D

  0  0  0  0  0  0  0  0  0  0999 V3000
M  V30 BEGIN CTAB
M  V30 COUNTS 27 28 0 0 0
M  V30 BEGIN ATOM
M  V30 1 O 0.426292 -1.98865 0.963777 0
M  V30 2 C 1.38723 -1.40508 0.376905 0
M  V30 3 N 2.50956 -1.02403 1.15626 0
M  V30 4 C 3.61669 -0.359121 0.555682 0
M  V30 5 N 3.84176 0.0171506 -0.697163 0
M  V30 6 N 4.91409 0.602411 -1.00185 0
M  V30 7 C 5.832 0.850148 -0.0752117 0
M  V30 8 S 5.06434 0.1828 1.30773 0
M  V30 9 C 1.27834 -1.1607 -1.07003 0
M  V30 10 S -0.334395 -1.76964 -1.63779 0
M  V30 11 C -1.6028 -0.735164 -0.875197 0
M  V30 12 N -2.90915 -0.954184 -1.11955 0
M  V30 13 C -3.85795 -0.181111 -0.549188 0
M  V30 14 N -5.25156 -0.402663 -0.800238 0
M  V30 15 C -3.5288 0.853636 0.298283 0
M  V30 16 C -2.18878 1.07293 0.544661 0
M  V30 17 N -1.29224 0.268222 -0.0538539 0
M  V30 18 N -1.76058 2.12035 1.40827 0
M  V30 19 H 2.55554 -1.21384 2.18367 0
M  V30 20 H 6.80859 1.34617 -0.179474 0
M  V30 21 H 1.30986 -0.0415784 -1.22061 0
M  V30 22 H 2.11104 -1.62411 -1.64721 0
M  V30 23 H -5.91123 -0.723363 -0.0613842 0
M  V30 24 H -5.57296 -0.222373 -1.77878 0
M  V30 25 H -4.28992 1.48262 0.762891 0
M  V30 26 H -0.796428 2.09056 1.81826 0
M  V30 27 H -2.35855 2.9186 1.65538 0
M  V30 END ATOM
M  V30 BEGIN BOND
M  V30 1 2 1 2
M  V30 2 1 2 3
M  V30 3 1 3 4
M  V30 4 2 4 5
M  V30 5 1 5 6
M  V30 6 2 6 7
M  V30 7 1 7 8
M  V30 8 1 2 9
M  V30 9 1 9 10
M  V30 10 1 10 11
M  V30 11 2 11 12
M  V30 12 1 12 13
M  V30 13 1 13 14
M  V30 14 2 13 15
M  V30 15 1 15 16
M  V30 16 2 16 17
M  V30 17 1 16 18
M  V30 18 1 8 4
M  V30 19 1 17 11
M  V30 20 1 3 19
M  V30 21 1 7 20
M  V30 22 1 9 21
M  V30 23 1 9 22
M  V30 24 1 14 23
M  V30 25 1 14 24
M  V30 26 1 15 25
M  V30 27 1 18 26
M  V30 28 1 18 27
M  V30 END BOND
M  V30 END CTAB
M  END
