
     RDKit          3D

  0  0  0  0  0  0  0  0  0  0999 V3000
M  V30 BEGIN CTAB
M  V30 COUNTS 61 64 0 0 0
M  V30 BEGIN ATOM
M  V30 1 O 6.14932 -0.79508 -1.21614 0
M  V30 2 C 6.60558 0.306683 -0.747049 0
M  V30 3 O 7.1013 1.13642 -1.58219 0
M  V30 4 C 6.56955 0.616597 0.680188 0 CFG=1
M  V30 5 C 5.50963 1.54389 1.17334 0
M  V30 6 C 4.10013 1.13167 0.990969 0
M  V30 7 C 3.54444 1.00854 -0.34063 0
M  V30 8 O 3.94338 1.73996 -1.29722 0
M  V30 9 N 2.50653 0.0378396 -0.588059 0
M  V30 10 C 2.02767 -0.812042 0.452315 0
M  V30 11 C 0.877695 -1.67099 0.0587092 0
M  V30 12 C -0.142649 -1.01063 -0.837863 0
M  V30 13 C 0.417982 0.0812901 -1.69325 0
M  V30 14 C 1.91539 -0.0907385 -1.9171 0
M  V30 15 O -0.720053 -2.03155 -1.5874 0
M  V30 16 C -1.87529 -1.70388 -2.23909 0
M  V30 17 C -2.92637 -1.41206 -1.15921 0 CFG=2
M  V30 18 C -2.46898 -0.117142 -0.520503 0 CFG=2
M  V30 19 C -1.15175 -0.373459 0.124762 0
M  V30 20 N -3.40178 0.375388 0.454016 0
M  V30 21 C -3.40812 0.234974 1.78602 0
M  V30 22 N -4.48114 0.867774 2.2766 0
M  V30 23 C -5.18336 1.42645 1.25951 0
M  V30 24 C -4.48699 1.10471 0.122281 0
M  V30 25 N -4.96682 1.54093 -1.07967 0
M  V30 26 C -6.09451 2.26443 -1.10593 0
M  V30 27 N -6.78217 2.58304 0.0103602 0
M  V30 28 C -6.34654 2.17254 1.22967 0
M  V30 29 N -7.06067 2.50024 2.40938 0
M  V30 30 C -2.90244 -2.5801 -0.209691 0
M  V30 31 O -4.19105 -1.3005 -1.69036 0
M  V30 32 N 6.43399 -0.6613 1.41842 0
M  V30 33 H 6.12781 -1.59052 -1.45652 0
M  V30 34 H 7.54785 1.03762 0.990822 0
M  V30 35 H 5.71527 1.74006 2.26624 0
M  V30 36 H 5.72767 2.54084 0.688616 0
M  V30 37 H 3.48091 1.88127 1.60382 0
M  V30 38 H 3.89423 0.170604 1.57665 0
M  V30 39 H 2.87121 -1.41894 0.848717 0
M  V30 40 H 1.66446 -0.138499 1.2834 0
M  V30 41 H 1.26332 -2.56786 -0.485452 0
M  V30 42 H 0.363228 -2.07171 0.98243 0
M  V30 43 H 0.305075 1.04926 -1.16671 0
M  V30 44 H -0.136459 0.141352 -2.62495 0
M  V30 45 H 2.18432 -1.0763 -2.31377 0
M  V30 46 H 2.22339 0.708785 -2.58597 0
M  V30 47 H -1.82893 -0.909548 -2.97919 0
M  V30 48 H -2.19461 -2.62133 -2.80424 0
M  V30 49 H -2.30342 0.607654 -1.3469 0
M  V30 50 H -1.19677 -0.930017 1.07909 0
M  V30 51 H -0.694822 0.624058 0.38911 0
M  V30 52 H -2.64751 -0.315002 2.36462 0
M  V30 53 H -6.50895 2.63145 -2.05475 0
M  V30 54 H -7.2468 3.47484 2.72155 0
M  V30 55 H -7.40794 1.69523 2.97556 0
M  V30 56 H -3.04167 -2.30456 0.849272 0
M  V30 57 H -3.66469 -3.34161 -0.509861 0
M  V30 58 H -1.92738 -3.1306 -0.245519 0
M  V30 59 H -4.83249 -1.66659 -1.02544 0
M  V30 60 H 5.76355 -1.25159 0.874543 0
M  V30 61 H 7.38823 -1.08225 1.44736 0
M  V30 END ATOM
M  V30 BEGIN BOND
M  V30 1 1 1 2
M  V30 2 2 2 3
M  V30 3 1 2 4
M  V30 4 1 4 5
M  V30 5 1 5 6
M  V30 6 1 6 7
M  V30 7 2 7 8
M  V30 8 1 7 9
M  V30 9 1 9 10
M  V30 10 1 10 11
M  V30 11 1 11 12
M  V30 12 1 12 13
M  V30 13 1 13 14
M  V30 14 1 12 15
M  V30 15 1 15 16
M  V30 16 1 16 17
M  V30 17 1 17 18
M  V30 18 1 18 19
M  V30 19 1 18 20
M  V30 20 1 20 21
M  V30 21 2 21 22
M  V30 22 1 22 23
M  V30 23 2 23 24
M  V30 24 1 24 25
M  V30 25 2 25 26
M  V30 26 1 26 27
M  V30 27 2 27 28
M  V30 28 1 28 29
M  V30 29 1 17 30
M  V30 30 1 17 31 CFG=3
M  V30 31 1 4 32
M  V30 32 1 14 9
M  V30 33 1 24 20
M  V30 34 1 19 12
M  V30 35 1 28 23
M  V30 36 1 1 33
M  V30 37 1 4 34 CFG=1
M  V30 38 1 5 35
M  V30 39 1 5 36
M  V30 40 1 6 37
M  V30 41 1 6 38
M  V30 42 1 10 39
M  V30 43 1 10 40
M  V30 44 1 11 41
M  V30 45 1 11 42
M  V30 46 1 13 43
M  V30 47 1 13 44
M  V30 48 1 14 45
M  V30 49 1 14 46
M  V30 50 1 16 47
M  V30 51 1 16 48
M  V30 52 1 18 49 CFG=3
M  V30 53 1 19 50
M  V30 54 1 19 51
M  V30 55 1 21 52
M  V30 56 1 26 53
M  V30 57 1 29 54
M  V30 58 1 29 55
M  V30 59 1 30 56
M  V30 60 1 30 57
M  V30 61 1 30 58
M  V30 62 1 31 59
M  V30 63 1 32 60
M  V30 64 1 32 61
M  V30 END BOND
M  V30 END CTAB
M  END
