
     RDKit          3D

  0  0  0  0  0  0  0  0  0  0999 V3000
M  V30 BEGIN CTAB
M  V30 COUNTS 22 22 0 0 0
M  V30 BEGIN ATOM
M  V30 1 C 3.47349 -0.747712 0.771424 0
M  V30 2 C 2.52178 0.293642 0.265502 0
M  V30 3 O 1.18686 -0.154988 0.229166 0
M  V30 4 C 0.19344 0.673495 -0.20767 0
M  V30 5 O 0.511633 1.83526 -0.570904 0
M  V30 6 C -1.21788 0.28198 -0.275269 0
M  V30 7 C -1.75597 -0.939165 0.0768475 0
M  V30 8 N -0.987368 -2.02939 0.573195 0
M  V30 9 N -3.08942 -0.877 -0.139348 0
M  V30 10 N -3.40709 0.325856 -0.609699 0
M  V30 11 C -2.26954 1.06214 -0.703536 0
M  V30 12 N -2.21453 2.4148 -1.1724 0
M  V30 13 H 4.48304 -0.493484 0.410932 0
M  V30 14 H 3.20698 -1.73421 0.310448 0
M  V30 15 H 3.41967 -0.908756 1.8668 0
M  V30 16 H 2.84974 0.568825 -0.761837 0
M  V30 17 H 2.64114 1.21406 0.884655 0
M  V30 18 H -0.070057 -2.28344 0.168686 0
M  V30 19 H -1.36169 -2.60285 1.3829 0
M  V30 20 H -3.71512 -1.69227 0.0569126 0
M  V30 21 H -2.74644 3.14832 -0.662678 0
M  V30 22 H -1.65267 2.64489 -2.00358 0
M  V30 END ATOM
M  V30 BEGIN BOND
M  V30 1 1 1 2
M  V30 2 1 2 3
M  V30 3 1 3 4
M  V30 4 2 4 5
M  V30 5 1 4 6
M  V30 6 2 6 7
M  V30 7 1 7 8
M  V30 8 1 7 9
M  V30 9 1 9 10
M  V30 10 2 10 11
M  V30 11 1 11 12
M  V30 12 1 11 6
M  V30 13 1 1 13
M  V30 14 1 1 14
M  V30 15 1 1 15
M  V30 16 1 2 16
M  V30 17 1 2 17
M  V30 18 1 8 18
M  V30 19 1 8 19
M  V30 20 1 9 20
M  V30 21 1 12 21
M  V30 22 1 12 22
M  V30 END BOND
M  V30 END CTAB
M  END
