
     RDKit          3D

  0  0  0  0  0  0  0  0  0  0999 V3000
M  V30 BEGIN CTAB
M  V30 COUNTS 31 32 0 0 0
M  V30 BEGIN ATOM
M  V30 1 N -2.62735 1.7204 -0.41965 0
M  V30 2 C -2.98692 0.360676 -0.700077 0
M  V30 3 C -1.95858 -0.621571 -0.176687 0
M  V30 4 C -1.84017 -0.460361 1.319 0
M  V30 5 C -0.392123 -0.423155 1.75881 0
M  V30 6 C 0.311321 -1.54308 1.04939 0
M  V30 7 C 0.4939 -1.16384 -0.395267 0
M  V30 8 C -0.659296 -0.318868 -0.882991 0
M  V30 9 C 1.76802 -0.439574 -0.537424 0
M  V30 10 N 2.828 -0.862526 -1.24457 0
M  V30 11 N 3.76079 0.0452054 -1.13211 0
M  V30 12 C 3.3454 1.07067 -0.361462 0
M  V30 13 N 2.10841 0.76918 0.00735875 0
M  V30 14 N 4.104 2.22307 -0.0322328 0
M  V30 15 H -3.12556 2.08343 0.421792 0
M  V30 16 H -2.78158 2.34851 -1.23286 0
M  V30 17 H -3.05534 0.175847 -1.81215 0
M  V30 18 H -3.94333 0.139067 -0.20745 0
M  V30 19 H -2.27235 -1.64281 -0.463483 0
M  V30 20 H -2.41257 0.40476 1.65293 0
M  V30 21 H -2.28128 -1.37416 1.77665 0
M  V30 22 H -0.312809 -0.501586 2.85472 0
M  V30 23 H -0.0101039 0.582727 1.48472 0
M  V30 24 H 1.28059 -1.78838 1.52965 0
M  V30 25 H -0.318726 -2.45395 1.14676 0
M  V30 26 H 0.564188 -2.1095 -0.971798 0
M  V30 27 H -0.442486 0.768428 -0.83787 0
M  V30 28 H -0.812977 -0.570415 -1.95794 0
M  V30 29 H 2.87338 -1.75578 -1.77722 0
M  V30 30 H 3.74241 3.18745 -0.195542 0
M  V30 31 H 5.05312 2.15013 0.386053 0
M  V30 END ATOM
M  V30 BEGIN BOND
M  V30 1 1 1 2
M  V30 2 1 2 3
M  V30 3 1 3 4
M  V30 4 1 4 5
M  V30 5 1 5 6
M  V30 6 1 6 7
M  V30 7 1 7 8
M  V30 8 1 7 9
M  V30 9 1 9 10
M  V30 10 1 10 11
M  V30 11 2 11 12
M  V30 12 1 12 13
M  V30 13 1 12 14
M  V30 14 1 8 3
M  V30 15 2 13 9
M  V30 16 1 1 15
M  V30 17 1 1 16
M  V30 18 1 2 17
M  V30 19 1 2 18
M  V30 20 1 3 19
M  V30 21 1 4 20
M  V30 22 1 4 21
M  V30 23 1 5 22
M  V30 24 1 5 23
M  V30 25 1 6 24
M  V30 26 1 6 25
M  V30 27 1 7 26
M  V30 28 1 8 27
M  V30 29 1 8 28
M  V30 30 1 10 29
M  V30 31 1 14 30
M  V30 32 1 14 31
M  V30 END BOND
M  V30 END CTAB
M  END
