
     RDKit          3D

  0  0  0  0  0  0  0  0  0  0999 V3000
M  V30 BEGIN CTAB
M  V30 COUNTS 59 62 0 0 0
M  V30 BEGIN ATOM
M  V30 1 C -0.612578 -0.428498 1.87725 0 CFG=1
M  V30 2 S -0.497626 -2.16015 1.33739 0
M  V30 3 C 1.20458 -2.26653 0.76397 0
M  V30 4 C 1.41486 -1.09837 -0.230528 0
M  V30 5 C 2.69107 -1.26069 -0.97984 0
M  V30 6 S 3.55962 0.126347 -1.60862 0
M  V30 7 C 4.24518 1.11072 -0.27708 0
M  V30 8 N 3.73302 2.1422 0.400999 0
M  V30 9 N 4.58624 2.57772 1.30973 0
M  V30 10 N 5.63713 1.80636 1.19155 0
M  V30 11 N 5.48499 0.904634 0.24983 0
M  V30 12 C 6.38658 -0.112136 -0.146285 0
M  V30 13 C 7.31515 0.172382 -1.2656 0
M  V30 14 S 8.42591 1.50178 -1.06107 0
M  V30 15 N 7.64967 2.99666 -0.849491 0
M  V30 16 O 9.43148 1.22126 0.0333898 0
M  V30 17 O 9.25374 1.58761 -2.33943 0
M  V30 18 C 0.706199 -0.00148593 -0.18877 0
M  V30 19 N -0.320919 0.34034 0.746105 0
M  V30 20 C -1.34694 1.2262 1.14194 0
M  V30 21 O -1.6535 2.41962 0.921188 0
M  V30 22 C -1.93848 0.165238 1.94495 0
M  V30 23 N -3.04761 -0.558644 1.39443 0
M  V30 24 C -4.24724 -0.84528 2.04174 0
M  V30 25 O -4.43399 -0.461927 3.21948 0
M  V30 26 C -5.31879 -1.59985 1.37308 0
M  V30 27 N -6.37588 -1.99303 2.31099 0
M  V30 28 C -5.94758 -0.889389 0.230878 0
M  V30 29 C -5.55345 0.308082 -0.28139 0
M  V30 30 C -6.22678 0.866486 -1.36686 0
M  V30 31 C -7.29986 0.237715 -1.95265 0
M  V30 32 O -7.97617 0.808625 -3.04951 0
M  V30 33 C -7.69868 -0.974455 -1.43398 0
M  V30 34 C -7.02777 -1.53799 -0.347233 0
M  V30 35 C 0.703854 0.873075 -1.39473 0
M  V30 36 O 0.0791115 2.09318 -1.34996 0
M  V30 37 O 1.23151 0.529045 -2.43659 0
M  V30 38 H 0.0257861 -0.255445 2.71325 0
M  V30 39 H 1.31811 -3.20643 0.203813 0
M  V30 40 H 1.89388 -2.14162 1.60323 0
M  V30 41 H 2.44124 -1.93723 -1.87661 0
M  V30 42 H 3.37684 -1.97049 -0.392248 0
M  V30 43 H 7.01783 -0.435682 0.74107 0
M  V30 44 H 5.85496 -1.07642 -0.414737 0
M  V30 45 H 6.78725 0.317764 -2.24193 0
M  V30 46 H 7.93718 -0.76545 -1.40682 0
M  V30 47 H 7.85976 3.50581 0.00504754 0
M  V30 48 H 6.74724 3.12626 -1.29831 0
M  V30 49 H -2.16583 0.513119 2.97387 0
M  V30 50 H -2.91721 -0.895729 0.404455 0
M  V30 51 H -4.93554 -2.56811 0.937773 0
M  V30 52 H -6.66012 -2.98362 2.18329 0
M  V30 53 H -7.17962 -1.32194 2.21555 0
M  V30 54 H -4.72364 0.854005 0.134421 0
M  V30 55 H -5.88212 1.82614 -1.74882 0
M  V30 56 H -7.6202 0.554839 -3.97254 0
M  V30 57 H -8.54266 -1.46588 -1.89751 0
M  V30 58 H -7.40516 -2.49095 -0.00090864 0
M  V30 59 H 0.555963 2.99019 -1.51605 0
M  V30 END ATOM
M  V30 BEGIN BOND
M  V30 1 1 1 2
M  V30 2 1 2 3
M  V30 3 1 3 4
M  V30 4 1 4 5
M  V30 5 1 5 6
M  V30 6 1 6 7
M  V30 7 2 7 8
M  V30 8 1 8 9
M  V30 9 2 9 10
M  V30 10 1 10 11
M  V30 11 1 11 12
M  V30 12 1 12 13
M  V30 13 1 13 14
M  V30 14 1 14 15
M  V30 15 2 14 16
M  V30 16 2 14 17
M  V30 17 2 4 18
M  V30 18 1 18 19
M  V30 19 1 19 20
M  V30 20 2 20 21
M  V30 21 1 20 22
M  V30 22 1 22 23
M  V30 23 1 23 24
M  V30 24 2 24 25
M  V30 25 1 24 26
M  V30 26 1 26 27
M  V30 27 1 26 28
M  V30 28 2 28 29
M  V30 29 1 29 30
M  V30 30 2 30 31
M  V30 31 1 31 32
M  V30 32 1 31 33
M  V30 33 2 33 34
M  V30 34 1 18 35
M  V30 35 1 35 36
M  V30 36 2 35 37
M  V30 37 1 19 1
M  V30 38 1 34 28
M  V30 39 1 22 1
M  V30 40 1 11 7
M  V30 41 1 1 38 CFG=1
M  V30 42 1 3 39
M  V30 43 1 3 40
M  V30 44 1 5 41
M  V30 45 1 5 42
M  V30 46 1 12 43
M  V30 47 1 12 44
M  V30 48 1 13 45
M  V30 49 1 13 46
M  V30 50 1 15 47
M  V30 51 1 15 48
M  V30 52 1 22 49
M  V30 53 1 23 50
M  V30 54 1 26 51
M  V30 55 1 27 52
M  V30 56 1 27 53
M  V30 57 1 29 54
M  V30 58 1 30 55
M  V30 59 1 32 56
M  V30 60 1 33 57
M  V30 61 1 34 58
M  V30 62 1 36 59
M  V30 END BOND
M  V30 END CTAB
M  END
