
     RDKit          3D

  0  0  0  0  0  0  0  0  0  0999 V3000
M  V30 BEGIN CTAB
M  V30 COUNTS 50 52 0 0 0
M  V30 BEGIN ATOM
M  V30 1 N -3.63876 1.60056 -1.88976 0
M  V30 2 C -2.71723 0.495294 -1.79381 0
M  V30 3 C -2.9202 -0.386701 -0.6004 0
M  V30 4 C -4.30818 -1.00669 -0.590802 0
M  V30 5 C -5.38798 -0.101031 -0.128205 0
M  V30 6 C -5.09121 0.776777 1.02475 0
M  V30 7 C -3.67676 1.26158 1.1503 0
M  V30 8 N -2.72315 0.26264 0.668465 0
M  V30 9 C -1.62293 -0.0425649 1.49885 0
M  V30 10 O -1.45826 0.531825 2.6268 0
M  V30 11 C -0.617185 -1.03593 1.0972 0
M  V30 12 C 0.226561 -1.41208 2.31823 0
M  V30 13 C 1.46219 -0.637384 2.10052 0
M  V30 14 O 2.23116 -0.110593 2.93709 0
M  V30 15 N 1.65465 -0.581626 0.684437 0
M  V30 16 C 0.338517 -0.49624 0.0548777 0
M  V30 17 C 2.89201 -0.606764 -0.0166007 0
M  V30 18 C 3.04494 -1.23929 -1.23212 0
M  V30 19 C 4.23913 -1.28851 -1.92202 0
M  V30 20 C 5.35405 -0.68328 -1.39442 0
M  V30 21 C 5.22182 -0.043637 -0.176709 0
M  V30 22 C 4.03103 0.00498028 0.509834 0
M  V30 23 S 6.61656 0.738907 0.53759 0
M  V30 24 O 7.83977 -0.0189621 0.112989 0
M  V30 25 O 6.464 0.665932 2.04122 0
M  V30 26 N 6.66671 2.3815 0.030442 0
M  V30 27 H -4.36605 1.37404 -2.60779 0
M  V30 28 H -3.12537 2.48443 -2.12893 0
M  V30 29 H -1.69961 0.908916 -1.77815 0
M  V30 30 H -2.80914 -0.128739 -2.71405 0
M  V30 31 H -2.20247 -1.21874 -0.692516 0
M  V30 32 H -4.5264 -1.3599 -1.60056 0
M  V30 33 H -4.2738 -1.88657 0.107012 0
M  V30 34 H -5.85653 0.497883 -0.961785 0
M  V30 35 H -6.2473 -0.766108 0.192449 0
M  V30 36 H -5.44375 0.315038 1.99027 0
M  V30 37 H -5.73164 1.70415 0.935811 0
M  V30 38 H -3.46533 2.20637 0.627648 0
M  V30 39 H -3.49291 1.40382 2.23337 0
M  V30 40 H -1.01391 -1.97761 0.713291 0
M  V30 41 H -0.296512 -1.10811 3.25512 0
M  V30 42 H 0.44859 -2.49844 2.28968 0
M  V30 43 H 0.108566 0.591183 -0.145112 0
M  V30 44 H 0.306558 -1.0361 -0.904995 0
M  V30 45 H 2.20065 -1.73375 -1.69736 0
M  V30 46 H 4.33394 -1.79517 -2.88277 0
M  V30 47 H 6.31121 -0.711605 -1.92889 0
M  V30 48 H 4.02276 0.521586 1.43738 0
M  V30 49 H 5.67007 2.74585 0.0258665 0
M  V30 50 H 7.02714 2.43886 -0.942155 0
M  V30 END ATOM
M  V30 BEGIN BOND
M  V30 1 1 1 2
M  V30 2 1 2 3
M  V30 3 1 3 4
M  V30 4 1 4 5
M  V30 5 1 5 6
M  V30 6 1 6 7
M  V30 7 1 7 8
M  V30 8 1 8 9
M  V30 9 2 9 10
M  V30 10 1 9 11
M  V30 11 1 11 12
M  V30 12 1 12 13
M  V30 13 2 13 14
M  V30 14 1 13 15
M  V30 15 1 15 16
M  V30 16 1 15 17
M  V30 17 2 17 18
M  V30 18 1 18 19
M  V30 19 2 19 20
M  V30 20 1 20 21
M  V30 21 2 21 22
M  V30 22 1 21 23
M  V30 23 2 23 24
M  V30 24 2 23 25
M  V30 25 1 23 26
M  V30 26 1 8 3
M  V30 27 1 16 11
M  V30 28 1 22 17
M  V30 29 1 1 27
M  V30 30 1 1 28
M  V30 31 1 2 29
M  V30 32 1 2 30
M  V30 33 1 3 31
M  V30 34 1 4 32
M  V30 35 1 4 33
M  V30 36 1 5 34
M  V30 37 1 5 35
M  V30 38 1 6 36
M  V30 39 1 6 37
M  V30 40 1 7 38
M  V30 41 1 7 39
M  V30 42 1 11 40
M  V30 43 1 12 41
M  V30 44 1 12 42
M  V30 45 1 16 43
M  V30 46 1 16 44
M  V30 47 1 18 45
M  V30 48 1 19 46
M  V30 49 1 20 47
M  V30 50 1 22 48
M  V30 51 1 26 49
M  V30 52 1 26 50
M  V30 END BOND
M  V30 END CTAB
M  END
