
     RDKit          3D

  0  0  0  0  0  0  0  0  0  0999 V3000
M  V30 BEGIN CTAB
M  V30 COUNTS 19 20 0 0 0
M  V30 BEGIN ATOM
M  V30 1 F 2.24026 0.609621 -2.12257 0
M  V30 2 C 2.31839 0.222426 -0.791071 0
M  V30 3 C 3.48305 0.0237327 -0.167517 0
M  V30 4 C 3.4371 -0.357057 1.1485 0
M  V30 5 S 1.76305 -0.421976 1.46136 0
M  V30 6 C 1.16975 0.0317516 -0.0723099 0
M  V30 7 C -0.228435 0.18718 -0.534159 0
M  V30 8 N -0.646323 0.546185 -1.75035 0
M  V30 9 N -1.96614 0.578523 -1.79171 0
M  V30 10 C -2.42163 0.229752 -0.564384 0
M  V30 11 N -1.3216 -0.0112 0.208304 0
M  V30 12 N -1.37536 -0.395201 1.5357 0
M  V30 13 N -3.77476 0.140635 -0.184957 0
M  V30 14 H 4.48012 0.147015 -0.645716 0
M  V30 15 H 4.26032 -0.566762 1.82817 0
M  V30 16 H -0.850912 0.0321832 2.31694 0
M  V30 17 H -2.00897 -1.20555 1.80812 0
M  V30 18 H -4.09489 0.464107 0.742467 0
M  V30 19 H -4.46305 -0.25537 -0.844501 0
M  V30 END ATOM
M  V30 BEGIN BOND
M  V30 1 1 1 2
M  V30 2 1 2 3
M  V30 3 2 3 4
M  V30 4 1 4 5
M  V30 5 1 5 6
M  V30 6 1 6 7
M  V30 7 2 7 8
M  V30 8 1 8 9
M  V30 9 2 9 10
M  V30 10 1 10 11
M  V30 11 1 11 12
M  V30 12 1 10 13
M  V30 13 2 6 2
M  V30 14 1 11 7
M  V30 15 1 3 14
M  V30 16 1 4 15
M  V30 17 1 12 16
M  V30 18 1 12 17
M  V30 19 1 13 18
M  V30 20 1 13 19
M  V30 END BOND
M  V30 END CTAB
M  END
