
     RDKit          3D

  0  0  0  0  0  0  0  0  0  0999 V3000
M  V30 BEGIN CTAB
M  V30 COUNTS 28 29 0 0 0
M  V30 BEGIN ATOM
M  V30 1 N -4.20431 0.19988 -0.054662 0
M  V30 2 C -2.85777 0.416322 0.468346 0
M  V30 3 C -2.03132 -0.792538 0.380359 0
M  V30 4 C -0.663606 -0.693729 -0.162594 0
M  V30 5 C -0.181977 0.660968 -0.553533 0
M  V30 6 C -1.33273 1.33893 -1.29406 0
M  V30 7 C -2.33041 1.64739 -0.201752 0
M  V30 8 S 1.18114 0.493511 -1.72972 0
M  V30 9 C 2.61441 -0.238265 -0.927317 0
M  V30 10 N 2.94711 -1.51373 -0.805322 0
M  V30 11 N 4.00307 -1.84391 -0.197357 0
M  V30 12 C 4.79193 -0.902307 0.325929 0
M  V30 13 S 3.92135 0.515876 -0.106979 0
M  V30 14 N 6.01193 -1.05391 1.04044 0
M  V30 15 H -4.93963 0.545842 0.576224 0
M  V30 16 H -4.32853 -0.774313 -0.342682 0
M  V30 17 H -3.00656 0.681081 1.55229 0
M  V30 18 H -2.59442 -1.55159 -0.242521 0
M  V30 19 H -1.9661 -1.31179 1.38606 0
M  V30 20 H -0.525576 -1.34605 -1.07911 0
M  V30 21 H 0.111931 -1.11549 0.547917 0
M  V30 22 H 0.10162 1.28966 0.323124 0
M  V30 23 H -0.961292 2.30994 -1.6859 0
M  V30 24 H -1.72088 0.669247 -2.06111 0
M  V30 25 H -3.12077 2.27908 -0.654987 0
M  V30 26 H -1.80231 2.29868 0.536001 0
M  V30 27 H 6.12173 -1.83612 1.69116 0
M  V30 28 H 6.76198 -0.372651 0.890225 0
M  V30 END ATOM
M  V30 BEGIN BOND
M  V30 1 1 1 2
M  V30 2 1 2 3
M  V30 3 1 3 4
M  V30 4 1 4 5
M  V30 5 1 5 6
M  V30 6 1 6 7
M  V30 7 1 5 8
M  V30 8 1 8 9
M  V30 9 2 9 10
M  V30 10 1 10 11
M  V30 11 2 11 12
M  V30 12 1 12 13
M  V30 13 1 12 14
M  V30 14 1 7 2
M  V30 15 1 13 9
M  V30 16 1 1 15
M  V30 17 1 1 16
M  V30 18 1 2 17
M  V30 19 1 3 18
M  V30 20 1 3 19
M  V30 21 1 4 20
M  V30 22 1 4 21
M  V30 23 1 5 22
M  V30 24 1 6 23
M  V30 25 1 6 24
M  V30 26 1 7 25
M  V30 27 1 7 26
M  V30 28 1 14 27
M  V30 29 1 14 28
M  V30 END BOND
M  V30 END CTAB
M  END
