
     RDKit          3D

  0  0  0  0  0  0  0  0  0  0999 V3000
M  V30 BEGIN CTAB
M  V30 COUNTS 47 47 0 0 0
M  V30 BEGIN ATOM
M  V30 1 C 4.88066 1.64158 -0.515314 0
M  V30 2 C 4.71169 1.06736 0.879521 0
M  V30 3 C 3.42564 0.2609 0.985743 0
M  V30 4 C 3.52247 -0.856212 -0.023683 0
M  V30 5 C 2.29483 -1.73817 -0.0177018 0
M  V30 6 N 1.09527 -1.02679 -0.324828 0
M  V30 7 C -0.0207669 -0.958761 0.542715 0
M  V30 8 O 0.0867351 -1.57558 1.64436 0
M  V30 9 C -1.24018 -0.237435 0.234076 0
M  V30 10 C -1.41291 0.449206 -0.948022 0
M  V30 11 C -2.61327 1.12398 -1.18291 0
M  V30 12 C -2.7532 1.84918 -2.46978 0
M  V30 13 C -3.63362 1.11435 -0.246584 0
M  V30 14 C -3.47505 0.439845 0.924481 0
M  V30 15 C -2.26897 -0.233708 1.1519 0
M  V30 16 S -4.76415 0.434084 2.09095 0
M  V30 17 O -4.31887 -0.4348 3.25339 0
M  V30 18 O -5.00214 1.80016 2.6691 0
M  V30 19 N -6.17571 -0.258506 1.43529 0
M  V30 20 C -4.86034 1.86164 -0.595281 0
M  V30 21 C 2.5631 -2.87095 -0.996512 0
M  V30 22 N 3.72466 -3.58864 -0.548595 0
M  V30 23 H 5.47467 2.58821 -0.493319 0
M  V30 24 H 5.4463 0.945617 -1.18286 0
M  V30 25 H 3.89167 1.79203 -1.01799 0
M  V30 26 H 4.71492 1.92667 1.58312 0
M  V30 27 H 5.5962 0.460971 1.08984 0
M  V30 28 H 2.57041 0.918911 0.787268 0
M  V30 29 H 3.39629 -0.136496 2.02029 0
M  V30 30 H 3.69886 -0.409981 -1.02328 0
M  V30 31 H 4.41639 -1.45883 0.231446 0
M  V30 32 H 2.20664 -2.21195 0.981316 0
M  V30 33 H 1.04808 -0.532984 -1.24161 0
M  V30 34 H -0.641788 0.481658 -1.70466 0
M  V30 35 H -2.34587 1.14789 -3.25638 0
M  V30 36 H -3.79293 2.04056 -2.75726 0
M  V30 37 H -2.12793 2.76465 -2.50913 0
M  V30 38 H -2.18482 -0.763943 2.10902 0
M  V30 39 H -6.16996 -1.28245 1.62588 0
M  V30 40 H -6.3242 -0.122325 0.432483 0
M  V30 41 H -5.4986 1.34785 -1.33195 0
M  V30 42 H -5.48545 2.1205 0.270912 0
M  V30 43 H -4.53942 2.84801 -1.03907 0
M  V30 44 H 2.78971 -2.44156 -2.00379 0
M  V30 45 H 1.67376 -3.52653 -1.12451 0
M  V30 46 H 4.61149 -3.15922 -0.885033 0
M  V30 47 H 3.80971 -3.59997 0.510693 0
M  V30 END ATOM
M  V30 BEGIN BOND
M  V30 1 1 1 2
M  V30 2 1 2 3
M  V30 3 1 3 4
M  V30 4 1 4 5
M  V30 5 1 5 6
M  V30 6 1 6 7
M  V30 7 2 7 8
M  V30 8 1 7 9
M  V30 9 2 9 10
M  V30 10 1 10 11
M  V30 11 1 11 12
M  V30 12 2 11 13
M  V30 13 1 13 14
M  V30 14 2 14 15
M  V30 15 1 14 16
M  V30 16 2 16 17
M  V30 17 2 16 18
M  V30 18 1 16 19
M  V30 19 1 13 20
M  V30 20 1 5 21
M  V30 21 1 21 22
M  V30 22 1 15 9
M  V30 23 1 1 23
M  V30 24 1 1 24
M  V30 25 1 1 25
M  V30 26 1 2 26
M  V30 27 1 2 27
M  V30 28 1 3 28
M  V30 29 1 3 29
M  V30 30 1 4 30
M  V30 31 1 4 31
M  V30 32 1 5 32
M  V30 33 1 6 33
M  V30 34 1 10 34
M  V30 35 1 12 35
M  V30 36 1 12 36
M  V30 37 1 12 37
M  V30 38 1 15 38
M  V30 39 1 19 39
M  V30 40 1 19 40
M  V30 41 1 20 41
M  V30 42 1 20 42
M  V30 43 1 20 43
M  V30 44 1 21 44
M  V30 45 1 21 45
M  V30 46 1 22 46
M  V30 47 1 22 47
M  V30 END BOND
M  V30 END CTAB
M  END
