
     RDKit          3D

  0  0  0  0  0  0  0  0  0  0999 V3000
M  V30 BEGIN CTAB
M  V30 COUNTS 42 43 0 0 0
M  V30 BEGIN ATOM
M  V30 1 N 6.27162 1.6689 1.74239 0
M  V30 2 C 5.70083 0.872641 0.721719 0
M  V30 3 N 4.5528 1.20945 0.141354 0
M  V30 4 C 4.00607 0.469331 -0.818609 0
M  V30 5 S 2.44464 1.02898 -1.53155 0
M  V30 6 C 1.05561 0.303027 -0.546804 0
M  V30 7 C -0.200913 0.752481 -1.12235 0
M  V30 8 O -0.120853 1.5257 -2.16913 0
M  V30 9 C -1.5625 0.486065 -0.71909 0
M  V30 10 C -2.58877 1.34067 -1.17858 0
M  V30 11 C -3.90223 1.18277 -0.809514 0
M  V30 12 C -4.91867 2.14219 -1.35066 0
M  V30 13 C -4.25585 0.158633 0.0404727 0
M  V30 14 C -3.29968 -0.702579 0.517557 0
M  V30 15 C -1.98364 -0.507938 0.119174 0
M  V30 16 C -1.01916 -1.49153 0.640576 0
M  V30 17 C -3.69541 -1.78603 1.42073 0
M  V30 18 C -5.68579 0.00731589 0.426853 0
M  V30 19 N 4.59895 -0.648744 -1.23552 0
M  V30 20 C 5.75733 -1.05096 -0.697308 0
M  V30 21 C 6.3342 -0.27922 0.308605 0
M  V30 22 N 6.39106 -2.23853 -1.13718 0
M  V30 23 H 6.42174 2.68924 1.62258 0
M  V30 24 H 6.55485 1.24143 2.64325 0
M  V30 25 H 1.27593 -0.757104 -0.531755 0
M  V30 26 H 1.12038 0.713589 0.493415 0
M  V30 27 H -2.3231 2.16212 -1.85435 0
M  V30 28 H -5.51168 2.57721 -0.508056 0
M  V30 29 H -5.61204 1.59042 -1.98996 0
M  V30 30 H -4.41417 2.99033 -1.83907 0
M  V30 31 H -1.50005 -2.21703 1.35096 0
M  V30 32 H -0.28042 -0.977144 1.2638 0
M  V30 33 H -0.577652 -2.00404 -0.211813 0
M  V30 34 H -3.17887 -1.79274 2.40016 0
M  V30 35 H -3.40377 -2.75909 0.925921 0
M  V30 36 H -4.80573 -1.78243 1.54382 0
M  V30 37 H -6.05414 -0.999747 0.1364 0
M  V30 38 H -6.32063 0.752576 -0.094106 0
M  V30 39 H -5.82798 0.119486 1.50629 0
M  V30 40 H 7.26789 -0.585747 0.755817 0
M  V30 41 H 6.44183 -2.57198 -2.11869 0
M  V30 42 H 6.84797 -2.83197 -0.411124 0
M  V30 END ATOM
M  V30 BEGIN BOND
M  V30 1 1 1 2
M  V30 2 2 2 3
M  V30 3 1 3 4
M  V30 4 1 4 5
M  V30 5 1 5 6
M  V30 6 1 6 7
M  V30 7 2 7 8
M  V30 8 1 7 9
M  V30 9 2 9 10
M  V30 10 1 10 11
M  V30 11 1 11 12
M  V30 12 2 11 13
M  V30 13 1 13 14
M  V30 14 2 14 15
M  V30 15 1 15 16
M  V30 16 1 14 17
M  V30 17 1 13 18
M  V30 18 2 4 19
M  V30 19 1 19 20
M  V30 20 2 20 21
M  V30 21 1 20 22
M  V30 22 1 21 2
M  V30 23 1 15 9
M  V30 24 1 1 23
M  V30 25 1 1 24
M  V30 26 1 6 25
M  V30 27 1 6 26
M  V30 28 1 10 27
M  V30 29 1 12 28
M  V30 30 1 12 29
M  V30 31 1 12 30
M  V30 32 1 16 31
M  V30 33 1 16 32
M  V30 34 1 16 33
M  V30 35 1 17 34
M  V30 36 1 17 35
M  V30 37 1 17 36
M  V30 38 1 18 37
M  V30 39 1 18 38
M  V30 40 1 18 39
M  V30 41 1 21 40
M  V30 42 1 22 41
M  V30 43 1 22 42
M  V30 END BOND
M  V30 END CTAB
M  END
