
     RDKit          3D

  0  0  0  0  0  0  0  0  0  0999 V3000
M  V30 BEGIN CTAB
M  V30 COUNTS 34 35 0 0 0
M  V30 BEGIN ATOM
M  V30 1 C 3.0083 -0.476064 1.70821 0 CFG=2
M  V30 2 O 3.33491 0.655504 2.49117 0
M  V30 3 C 4.16973 -0.771431 0.789648 0
M  V30 4 O 4.4086 0.311446 -0.0514126 0
M  V30 5 C 1.73226 -0.137199 0.981213 0 CFG=1
M  V30 6 O 1.96274 0.984079 0.173267 0
M  V30 7 C 1.14983 -1.2573 0.19397 0 CFG=2
M  V30 8 O 1.90349 -1.71051 -0.859531 0
M  V30 9 C -0.218247 -0.950895 -0.311318 0
M  V30 10 N -0.876416 0.17427 0.0194235 0
M  V30 11 C -2.11363 0.387915 -0.474631 0
M  V30 12 C -2.73384 -0.531351 -1.32458 0
M  V30 13 N -2.06779 -1.65691 -1.65161 0
M  V30 14 C -0.832479 -1.85613 -1.15004 0
M  V30 15 N -3.95423 -0.234628 -1.76147 0
M  V30 16 C -4.59985 0.903238 -1.417 0
M  V30 17 N -5.89711 1.13837 -1.92857 0
M  V30 18 N -3.97473 1.77821 -0.590577 0
M  V30 19 C -2.74097 1.55868 -0.101696 0
M  V30 20 N -2.08719 2.4785 0.765429 0
M  V30 21 H 2.82347 -1.29817 2.42348 0
M  V30 22 H 4.03287 1.15756 2.00638 0
M  V30 23 H 5.08261 -0.810303 1.46083 0
M  V30 24 H 4.08664 -1.68029 0.205822 0
M  V30 25 H 5.39228 0.362321 -0.251939 0
M  V30 26 H 0.987251 0.124384 1.79104 0
M  V30 27 H 2.06911 0.732397 -0.784908 0
M  V30 28 H 1.03771 -2.12875 0.908934 0
M  V30 29 H 1.7221 -2.66192 -1.00092 0
M  V30 30 H -0.274054 -2.77019 -1.40684 0
M  V30 31 H -6.56231 1.7373 -1.40524 0
M  V30 32 H -6.21 0.72412 -2.82544 0
M  V30 33 H -2.35718 3.49686 0.621623 0
M  V30 34 H -1.40385 2.2269 1.48585 0
M  V30 END ATOM
M  V30 BEGIN BOND
M  V30 1 1 1 2
M  V30 2 1 1 3
M  V30 3 1 3 4
M  V30 4 1 1 5
M  V30 5 1 5 6
M  V30 6 1 5 7
M  V30 7 1 7 8
M  V30 8 1 7 9
M  V30 9 2 9 10
M  V30 10 1 10 11
M  V30 11 2 11 12
M  V30 12 1 12 13
M  V30 13 2 13 14
M  V30 14 1 12 15
M  V30 15 2 15 16
M  V30 16 1 16 17
M  V30 17 1 16 18
M  V30 18 2 18 19
M  V30 19 1 19 20
M  V30 20 1 14 9
M  V30 21 1 19 11
M  V30 22 1 1 21 CFG=1
M  V30 23 1 2 22
M  V30 24 1 3 23
M  V30 25 1 3 24
M  V30 26 1 4 25
M  V30 27 1 5 26 CFG=1
M  V30 28 1 6 27
M  V30 29 1 7 28 CFG=1
M  V30 30 1 8 29
M  V30 31 1 14 30
M  V30 32 1 17 31
M  V30 33 1 17 32
M  V30 34 1 20 33
M  V30 35 1 20 34
M  V30 END BOND
M  V30 END CTAB
M  END
