
     RDKit          3D

  0  0  0  0  0  0  0  0  0  0999 V3000
M  V30 BEGIN CTAB
M  V30 COUNTS 20 21 0 0 0
M  V30 BEGIN ATOM
M  V30 1 Br 4.91963 -1.19793 0.219874 0
M  V30 2 C 3.18772 -0.381974 0.307517 0
M  V30 3 C 3.03664 0.892471 0.81387 0
M  V30 4 N 1.84599 1.50887 0.897106 0
M  V30 5 C 0.714018 0.897375 0.479919 0
M  V30 6 C 0.846455 -0.378862 -0.0298747 0
M  V30 7 C 2.05748 -1.03343 -0.125985 0
M  V30 8 C -0.298259 -1.03002 -0.465341 0
M  V30 9 C -1.51224 -0.38132 -0.372084 0
M  V30 10 C -1.60754 0.901187 0.145678 0
M  V30 11 N -0.490115 1.52325 0.565137 0
M  V30 12 N -2.89487 1.49757 0.206642 0
M  V30 13 N -2.68151 -1.03856 -0.813621 0
M  V30 14 H 3.95886 1.3766 1.14793 0
M  V30 15 H 2.15564 -2.0292 -0.524493 0
M  V30 16 H -0.228271 -2.04211 -0.874684 0
M  V30 17 H -3.46815 1.52945 1.07798 0
M  V30 18 H -3.30207 1.92811 -0.647921 0
M  V30 19 H -3.06367 -0.800123 -1.75113 0
M  V30 20 H -3.17574 -1.74134 -0.256515 0
M  V30 END ATOM
M  V30 BEGIN BOND
M  V30 1 1 1 2
M  V30 2 2 2 3
M  V30 3 1 3 4
M  V30 4 2 4 5
M  V30 5 1 5 6
M  V30 6 2 6 7
M  V30 7 1 6 8
M  V30 8 2 8 9
M  V30 9 1 9 10
M  V30 10 2 10 11
M  V30 11 1 10 12
M  V30 12 1 9 13
M  V30 13 1 7 2
M  V30 14 1 11 5
M  V30 15 1 3 14
M  V30 16 1 7 15
M  V30 17 1 8 16
M  V30 18 1 12 17
M  V30 19 1 12 18
M  V30 20 1 13 19
M  V30 21 1 13 20
M  V30 END BOND
M  V30 END CTAB
M  END
