
     RDKit          3D

  0  0  0  0  0  0  0  0  0  0999 V3000
M  V30 BEGIN CTAB
M  V30 COUNTS 31 31 0 0 0
M  V30 BEGIN ATOM
M  V30 1 N -4.15993 0.927052 0.836498 0
M  V30 2 C -2.77691 0.744019 0.309575 0
M  V30 3 C -2.31166 -0.638106 0.611993 0
M  V30 4 C -0.996729 -1.0358 0.109562 0
M  V30 5 C 0.239438 -0.329779 0.521437 0
M  V30 6 C 0.292279 1.07878 0.119848 0
M  V30 7 C 1.65871 1.49115 -0.445165 0
M  V30 8 C 2.67285 1.02694 0.551541 0
M  V30 9 C 2.75127 -0.479757 0.565173 0
M  V30 10 C 1.46607 -1.13987 0.179087 0
M  V30 11 N 1.44212 -1.48667 -1.22654 0
M  V30 12 H -4.74214 0.328848 0.200905 0
M  V30 13 H -4.13873 0.435125 1.76067 0
M  V30 14 H -2.74647 0.914911 -0.771087 0
M  V30 15 H -2.15325 1.51398 0.829239 0
M  V30 16 H -2.42567 -0.805551 1.72944 0
M  V30 17 H -3.10306 -1.33745 0.15609 0
M  V30 18 H -0.908287 -2.15749 0.288098 0
M  V30 19 H -1.08205 -1.03926 -1.0472 0
M  V30 20 H 0.194834 -0.32339 1.67126 0
M  V30 21 H 0.129638 1.8021 0.952981 0
M  V30 22 H -0.411564 1.38389 -0.697785 0
M  V30 23 H 1.82063 1.10199 -1.45 0
M  V30 24 H 1.65756 2.59845 -0.458845 0
M  V30 25 H 3.68279 1.43099 0.284436 0
M  V30 26 H 2.43152 1.40395 1.54915 0
M  V30 27 H 3.13001 -0.78018 1.56371 0
M  V30 28 H 3.5297 -0.772119 -0.169844 0
M  V30 29 H 1.39684 -2.09081 0.741029 0
M  V30 30 H 2.40335 -1.33825 -1.59643 0
M  V30 31 H 1.05682 -2.42769 -1.3763 0
M  V30 END ATOM
M  V30 BEGIN BOND
M  V30 1 1 1 2
M  V30 2 1 2 3
M  V30 3 1 3 4
M  V30 4 1 4 5
M  V30 5 1 5 6
M  V30 6 1 6 7
M  V30 7 1 7 8
M  V30 8 1 8 9
M  V30 9 1 9 10
M  V30 10 1 10 11
M  V30 11 1 10 5
M  V30 12 1 1 12
M  V30 13 1 1 13
M  V30 14 1 2 14
M  V30 15 1 2 15
M  V30 16 1 3 16
M  V30 17 1 3 17
M  V30 18 1 4 18
M  V30 19 1 4 19
M  V30 20 1 5 20
M  V30 21 1 6 21
M  V30 22 1 6 22
M  V30 23 1 7 23
M  V30 24 1 7 24
M  V30 25 1 8 25
M  V30 26 1 8 26
M  V30 27 1 9 27
M  V30 28 1 9 28
M  V30 29 1 10 29
M  V30 30 1 11 30
M  V30 31 1 11 31
M  V30 END BOND
M  V30 END CTAB
M  END
