
     RDKit          3D

  0  0  0  0  0  0  0  0  0  0999 V3000
M  V30 BEGIN CTAB
M  V30 COUNTS 24 25 0 0 0
M  V30 BEGIN ATOM
M  V30 1 N 4.6005 -0.622366 -0.66804 0
M  V30 2 C 3.34528 -0.119983 -0.213794 0
M  V30 3 C 2.91427 -0.184791 1.10156 0
M  V30 4 N 1.70486 0.39031 1.10888 0
M  V30 5 N 1.37568 0.796263 -0.101368 0
M  V30 6 N 2.37662 0.480923 -0.889267 0
M  V30 7 C 0.1237 1.47337 -0.468041 0
M  V30 8 C -0.946146 0.563611 -0.857456 0
M  V30 9 O -1.05648 0.153522 -2.03885 0
M  V30 10 N -1.92604 0.0909464 0.0812385 0
M  V30 11 C -1.99769 0.39687 1.39434 0
M  V30 12 C -3.07309 -0.242752 1.96239 0
M  V30 13 N -3.63809 -0.934844 0.959138 0
M  V30 14 C -2.95049 -0.738186 -0.181275 0
M  V30 15 N -3.26874 -1.3205 -1.46469 0
M  V30 16 H 5.41161 0.0229805 -0.623383 0
M  V30 17 H 4.74816 -1.57898 -1.03481 0
M  V30 18 H 3.48046 -0.619597 1.90805 0
M  V30 19 H 0.404865 2.21028 -1.24424 0
M  V30 20 H -0.204128 2.01157 0.453537 0
M  V30 21 H -1.29633 1.05417 1.89521 0
M  V30 22 H -3.38304 -0.18731 3.00445 0
M  V30 23 H -2.84392 -2.23236 -1.7204 0
M  V30 24 H -3.90181 -0.863144 -2.13469 0
M  V30 END ATOM
M  V30 BEGIN BOND
M  V30 1 1 1 2
M  V30 2 1 2 3
M  V30 3 2 3 4
M  V30 4 1 4 5
M  V30 5 1 5 6
M  V30 6 1 5 7
M  V30 7 1 7 8
M  V30 8 2 8 9
M  V30 9 1 8 10
M  V30 10 1 10 11
M  V30 11 2 11 12
M  V30 12 1 12 13
M  V30 13 2 13 14
M  V30 14 1 14 15
M  V30 15 2 6 2
M  V30 16 1 14 10
M  V30 17 1 1 16
M  V30 18 1 1 17
M  V30 19 1 3 18
M  V30 20 1 7 19
M  V30 21 1 7 20
M  V30 22 1 11 21
M  V30 23 1 12 22
M  V30 24 1 15 23
M  V30 25 1 15 24
M  V30 END BOND
M  V30 END CTAB
M  END
