
     RDKit          3D

  0  0  0  0  0  0  0  0  0  0999 V3000
M  V30 BEGIN CTAB
M  V30 COUNTS 56 60 0 0 0
M  V30 BEGIN ATOM
M  V30 1 C 3.59654 -0.116021 3.82858 0
M  V30 2 O 4.03708 -0.0983217 2.48407 0
M  V30 3 C 3.09958 -0.123741 1.44053 0
M  V30 4 C 1.74763 -0.165858 1.68163 0
M  V30 5 C 0.833385 -0.190632 0.655311 0
M  V30 6 C 1.31652 -0.171877 -0.63519 0
M  V30 7 C 2.65939 -0.129787 -0.947974 0
M  V30 8 C 3.53702 -0.10628 0.132791 0
M  V30 9 O 4.91134 -0.063564 -0.0747192 0
M  V30 10 C 5.53613 1.1971 -0.170967 0
M  V30 11 O 3.15734 -0.110542 -2.23145 0
M  V30 12 C 2.40362 -0.131216 -3.39723 0
M  V30 13 C -0.626969 -0.234287 0.928177 0
M  V30 14 C -1.30964 -1.4432 0.490547 0
M  V30 15 C -2.42829 -1.38757 -0.306957 0
M  V30 16 N -3.06995 -2.51441 -0.730685 0
M  V30 17 C -2.64874 -3.75575 -0.394088 0
M  V30 18 C -1.53283 -3.85556 0.403768 0
M  V30 19 C -0.875885 -2.69878 0.83727 0
M  V30 20 N 0.243366 -2.91797 1.65122 0
M  V30 21 C -1.07032 -5.16379 0.772246 0
M  V30 22 N -0.702865 -6.22236 1.06849 0
M  V30 23 N -3.32662 -4.92177 -0.842516 0
M  V30 24 O -2.99124 -0.200878 -0.739128 0
M  V30 25 C -2.39002 0.976875 -0.341514 0
M  V30 26 C -1.28872 1.00065 0.441746 0
M  V30 27 C -0.769249 2.25631 0.781728 0
M  V30 28 C -1.36067 3.41103 0.332983 0
M  V30 29 C -2.47865 3.34325 -0.461588 0
M  V30 30 C -3.02059 2.13311 -0.818411 0
M  V30 31 C -4.14249 2.07845 -1.61627 0
M  V30 32 C -4.77444 3.20465 -2.09364 0
M  V30 33 C -4.23095 4.42723 -1.73599 0
M  V30 34 C -3.11029 4.49241 -0.939282 0
M  V30 35 H 2.85186 -0.911079 4.00788 0
M  V30 36 H 3.11904 0.8522 4.11239 0
M  V30 37 H 4.48414 -0.34296 4.45775 0
M  V30 38 H 1.38278 -0.180155 2.68051 0
M  V30 39 H 0.622253 -0.190491 -1.47768 0
M  V30 40 H 5.4235 1.54388 -1.23121 0
M  V30 41 H 6.62461 1.06362 0.0150525 0
M  V30 42 H 5.08021 1.90634 0.549784 0
M  V30 43 H 1.4865 -0.741884 -3.23937 0
M  V30 44 H 2.91484 -0.528325 -4.27496 0
M  V30 45 H 2.1081 0.922695 -3.6333 0
M  V30 46 H -0.73429 -0.221908 2.06333 0
M  V30 47 H 0.181282 -2.77357 2.68471 0
M  V30 48 H 1.13549 -3.22704 1.20409 0
M  V30 49 H -4.3486 -4.92096 -0.872091 0
M  V30 50 H -2.8097 -5.77157 -1.13977 0
M  V30 51 H 0.117797 2.30409 1.41233 0
M  V30 52 H -0.990779 4.40022 0.572774 0
M  V30 53 H -4.53896 1.1104 -1.87535 0
M  V30 54 H -5.66338 3.15826 -2.72578 0
M  V30 55 H -4.70601 5.31965 -2.09598 0
M  V30 56 H -2.67023 5.4317 -0.648553 0
M  V30 END ATOM
M  V30 BEGIN BOND
M  V30 1 1 1 2
M  V30 2 1 2 3
M  V30 3 2 3 4
M  V30 4 1 4 5
M  V30 5 2 5 6
M  V30 6 1 6 7
M  V30 7 2 7 8
M  V30 8 1 8 9
M  V30 9 1 9 10
M  V30 10 1 7 11
M  V30 11 1 11 12
M  V30 12 1 5 13
M  V30 13 1 13 14
M  V30 14 1 14 15
M  V30 15 2 15 16
M  V30 16 1 16 17
M  V30 17 2 17 18
M  V30 18 1 18 19
M  V30 19 1 19 20
M  V30 20 1 18 21
M  V30 21 3 21 22
M  V30 22 1 17 23
M  V30 23 1 15 24
M  V30 24 1 24 25
M  V30 25 2 25 26
M  V30 26 1 26 27
M  V30 27 2 27 28
M  V30 28 1 28 29
M  V30 29 2 29 30
M  V30 30 1 30 31
M  V30 31 2 31 32
M  V30 32 1 32 33
M  V30 33 2 33 34
M  V30 34 1 8 3
M  V30 35 1 26 13
M  V30 36 1 34 29
M  V30 37 2 19 14
M  V30 38 1 30 25
M  V30 39 1 1 35
M  V30 40 1 1 36
M  V30 41 1 1 37
M  V30 42 1 4 38
M  V30 43 1 6 39
M  V30 44 1 10 40
M  V30 45 1 10 41
M  V30 46 1 10 42
M  V30 47 1 12 43
M  V30 48 1 12 44
M  V30 49 1 12 45
M  V30 50 1 13 46
M  V30 51 1 20 47
M  V30 52 1 20 48
M  V30 53 1 23 49
M  V30 54 1 23 50
M  V30 55 1 27 51
M  V30 56 1 28 52
M  V30 57 1 31 53
M  V30 58 1 32 54
M  V30 59 1 33 55
M  V30 60 1 34 56
M  V30 END BOND
M  V30 END CTAB
M  END
