
     RDKit          3D

  0  0  0  0  0  0  0  0  0  0999 V3000
M  V30 BEGIN CTAB
M  V30 COUNTS 28 28 0 0 0
M  V30 BEGIN ATOM
M  V30 1 Cl 3.59157 2.75285 1.9605 0
M  V30 2 C 3.17472 1.32722 1.04964 0
M  V30 3 C 1.84045 1.03049 0.74589 0
M  V30 4 C 1.5124 -0.0922234 0.0286245 0
M  V30 5 N 0.163524 -0.354454 -0.255359 0
M  V30 6 C -0.890753 0.522989 0.185193 0
M  V30 7 C -2.24082 0.00618254 -0.254763 0
M  V30 8 N -2.24588 -0.0665237 -1.71572 0
M  V30 9 C -2.5237 -1.36996 0.308073 0
M  V30 10 C -3.36098 0.922799 0.185892 0
M  V30 11 N 2.50516 -0.894084 -0.371372 0
M  V30 12 C 3.80492 -0.637227 -0.095196 0
M  V30 13 N 4.09824 0.462097 0.604581 0
M  V30 14 N 4.86279 -1.48373 -0.516567 0
M  V30 15 H 1.09568 1.72796 1.10469 0
M  V30 16 H -0.0926769 -1.19905 -0.79576 0
M  V30 17 H -0.702638 1.51341 -0.274972 0
M  V30 18 H -0.901427 0.661121 1.28238 0
M  V30 19 H -3.10083 -0.563699 -2.06362 0
M  V30 20 H -2.21766 0.923894 -2.06853 0
M  V30 21 H -2.25794 -2.16481 -0.414177 0
M  V30 22 H -3.61562 -1.46511 0.484675 0
M  V30 23 H -2.02184 -1.46092 1.27691 0
M  V30 24 H -2.9445 1.76199 0.789563 0
M  V30 25 H -4.09426 0.414593 0.844367 0
M  V30 26 H -3.92402 1.29942 -0.68726 0
M  V30 27 H 5.23159 -1.38757 -1.47411 0
M  V30 28 H 5.25449 -2.18765 0.136427 0
M  V30 END ATOM
M  V30 BEGIN BOND
M  V30 1 1 1 2
M  V30 2 2 2 3
M  V30 3 1 3 4
M  V30 4 1 4 5
M  V30 5 1 5 6
M  V30 6 1 6 7
M  V30 7 1 7 8
M  V30 8 1 7 9
M  V30 9 1 7 10
M  V30 10 2 4 11
M  V30 11 1 11 12
M  V30 12 2 12 13
M  V30 13 1 12 14
M  V30 14 1 13 2
M  V30 15 1 3 15
M  V30 16 1 5 16
M  V30 17 1 6 17
M  V30 18 1 6 18
M  V30 19 1 8 19
M  V30 20 1 8 20
M  V30 21 1 9 21
M  V30 22 1 9 22
M  V30 23 1 9 23
M  V30 24 1 10 24
M  V30 25 1 10 25
M  V30 26 1 10 26
M  V30 27 1 14 27
M  V30 28 1 14 28
M  V30 END BOND
M  V30 END CTAB
M  END
