
     RDKit          3D

  0  0  0  0  0  0  0  0  0  0999 V3000
M  V30 BEGIN CTAB
M  V30 COUNTS 41 41 0 0 0
M  V30 BEGIN ATOM
M  V30 1 C -4.06529 -0.876861 1.10912 0
M  V30 2 C -3.06489 -0.523784 0.0262915 0
M  V30 3 C -3.73174 -0.168909 -1.23784 0
M  V30 4 C -2.2275 -1.79431 -0.174572 0
M  V30 5 N -2.20198 0.48842 0.579982 0
M  V30 6 C -1.29055 1.0648 -0.345046 0
M  V30 7 C -0.477337 2.13386 0.36693 0
M  V30 8 O -1.33749 3.13351 0.880713 0
M  V30 9 C 0.218879 1.55945 1.5762 0
M  V30 10 O 1.08527 0.560283 1.25085 0
M  V30 11 C 2.22509 0.494681 0.523295 0
M  V30 12 C 2.83141 1.55087 -0.0958333 0
M  V30 13 C 4.0036 1.41613 -0.827298 0
M  V30 14 C 4.58931 0.177795 -0.941281 0
M  V30 15 C 3.98616 -0.899876 -0.318415 0
M  V30 16 N 4.61235 -2.18082 -0.448603 0
M  V30 17 C 2.8278 -0.753575 0.400951 0
M  V30 18 N 2.2262 -1.87156 1.0338 0
M  V30 19 H -3.6062 -1.55293 1.83545 0
M  V30 20 H -5.02483 -1.246 0.697982 0
M  V30 21 H -4.32051 0.0981796 1.61482 0
M  V30 22 H -3.14268 -0.343901 -2.15651 0
M  V30 23 H -4.68136 -0.736846 -1.36625 0
M  V30 24 H -4.03942 0.917796 -1.23613 0
M  V30 25 H -2.91743 -2.68643 -0.180024 0
M  V30 26 H -1.77939 -1.74096 -1.18728 0
M  V30 27 H -1.46777 -1.89553 0.626547 0
M  V30 28 H -1.66084 -0.0236 1.34574 0
M  V30 29 H -0.534615 0.270193 -0.621244 0
M  V30 30 H -1.71612 1.40908 -1.28136 0
M  V30 31 H 0.187571 2.55504 -0.391211 0
M  V30 32 H -1.81892 2.7929 1.67217 0
M  V30 33 H 0.826441 2.38691 2.07825 0
M  V30 34 H -0.516709 1.26199 2.36162 0
M  V30 35 H 2.41886 2.55126 -0.0192996 0
M  V30 36 H 4.43624 2.27219 -1.29231 0
M  V30 37 H 5.50409 0.0244691 -1.50113 0
M  V30 38 H 4.43519 -2.85527 0.304789 0
M  V30 39 H 5.20632 -2.37184 -1.27957 0
M  V30 40 H 1.50034 -2.45784 0.572597 0
M  V30 41 H 2.50246 -2.13895 1.99845 0
M  V30 END ATOM
M  V30 BEGIN BOND
M  V30 1 1 1 2
M  V30 2 1 2 3
M  V30 3 1 2 4
M  V30 4 1 2 5
M  V30 5 1 5 6
M  V30 6 1 6 7
M  V30 7 1 7 8
M  V30 8 1 7 9
M  V30 9 1 9 10
M  V30 10 1 10 11
M  V30 11 2 11 12
M  V30 12 1 12 13
M  V30 13 2 13 14
M  V30 14 1 14 15
M  V30 15 1 15 16
M  V30 16 2 15 17
M  V30 17 1 17 18
M  V30 18 1 17 11
M  V30 19 1 1 19
M  V30 20 1 1 20
M  V30 21 1 1 21
M  V30 22 1 3 22
M  V30 23 1 3 23
M  V30 24 1 3 24
M  V30 25 1 4 25
M  V30 26 1 4 26
M  V30 27 1 4 27
M  V30 28 1 5 28
M  V30 29 1 6 29
M  V30 30 1 6 30
M  V30 31 1 7 31
M  V30 32 1 8 32
M  V30 33 1 9 33
M  V30 34 1 9 34
M  V30 35 1 12 35
M  V30 36 1 13 36
M  V30 37 1 14 37
M  V30 38 1 16 38
M  V30 39 1 16 39
M  V30 40 1 18 40
M  V30 41 1 18 41
M  V30 END BOND
M  V30 END CTAB
M  END
