
     RDKit          3D

  0  0  0  0  0  0  0  0  0  0999 V3000
M  V30 BEGIN CTAB
M  V30 COUNTS 48 49 0 0 0
M  V30 BEGIN ATOM
M  V30 1 C 5.76012 -0.526254 2.63993 0
M  V30 2 C 6.34867 0.488651 1.68846 0
M  V30 3 C 5.214 1.30665 1.08808 0
M  V30 4 C 4.314 0.343996 0.362535 0
M  V30 5 N 3.18467 0.995955 -0.248507 0
M  V30 6 C 2.23458 0.239036 -0.975828 0
M  V30 7 O 2.37869 -0.997341 -1.08995 0
M  V30 8 C 1.03782 0.875055 -1.62717 0
M  V30 9 N 0.241124 -0.101184 -2.29748 0
M  V30 10 C -1.04336 -0.492521 -1.86075 0
M  V30 11 C -1.65155 0.0038677 -0.729366 0
M  V30 12 C -2.90358 -0.389966 -0.314412 0
M  V30 13 N -3.54682 -1.29972 -1.05807 0
M  V30 14 C -2.99125 -1.82436 -2.18854 0
M  V30 15 N -1.77001 -1.41178 -2.5544 0
M  V30 16 N -3.69244 -2.78392 -2.95657 0
M  V30 17 C -3.58484 0.118766 0.892487 0
M  V30 18 C -5.04051 0.427136 0.618991 0
M  V30 19 C -5.36216 -0.18921 1.98263 0
M  V30 20 C -4.07667 -0.979886 1.83417 0
M  V30 21 N -5.29784 0.827735 2.993 0
M  V30 22 C 0.787251 -0.732163 -3.48362 0
M  V30 23 H 6.52903 -0.853612 3.3834 0
M  V30 24 H 5.36127 -1.40545 2.10765 0
M  V30 25 H 4.96439 -0.0319889 3.26113 0
M  V30 26 H 6.85856 -0.0780816 0.879238 0
M  V30 27 H 7.03912 1.15917 2.1985 0
M  V30 28 H 5.64215 1.99224 0.322668 0
M  V30 29 H 4.71772 1.90914 1.84939 0
M  V30 30 H 4.93136 -0.216192 -0.363472 0
M  V30 31 H 3.9045 -0.414082 1.06532 0
M  V30 32 H 3.01667 2.03469 -0.184836 0
M  V30 33 H 0.555732 1.47536 -0.863692 0
M  V30 34 H 1.45829 1.62413 -2.3691 0
M  V30 35 H -1.14632 0.738166 -0.116878 0
M  V30 36 H -3.4348 -3.77592 -2.88589 0
M  V30 37 H -4.45308 -2.48118 -3.57848 0
M  V30 38 H -3.06953 0.910419 1.43633 0
M  V30 39 H -5.42821 -0.248835 -0.19659 0
M  V30 40 H -5.31621 1.47417 0.505446 0
M  V30 41 H -6.29128 -0.795159 1.96627 0
M  V30 42 H -4.22376 -1.95392 1.35868 0
M  V30 43 H -3.55186 -0.989881 2.81381 0
M  V30 44 H -5.1138 1.77873 2.60377 0
M  V30 45 H -6.17565 0.860516 3.52379 0
M  V30 46 H 0.693677 -1.83824 -3.41385 0
M  V30 47 H 0.15086 -0.401841 -4.35312 0
M  V30 48 H 1.84126 -0.437575 -3.66508 0
M  V30 END ATOM
M  V30 BEGIN BOND
M  V30 1 1 1 2
M  V30 2 1 2 3
M  V30 3 1 3 4
M  V30 4 1 4 5
M  V30 5 1 5 6
M  V30 6 2 6 7
M  V30 7 1 6 8
M  V30 8 1 8 9
M  V30 9 1 9 10
M  V30 10 2 10 11
M  V30 11 1 11 12
M  V30 12 2 12 13
M  V30 13 1 13 14
M  V30 14 2 14 15
M  V30 15 1 14 16
M  V30 16 1 12 17
M  V30 17 1 17 18
M  V30 18 1 18 19
M  V30 19 1 19 20
M  V30 20 1 19 21
M  V30 21 1 9 22
M  V30 22 1 15 10
M  V30 23 1 20 17
M  V30 24 1 1 23
M  V30 25 1 1 24
M  V30 26 1 1 25
M  V30 27 1 2 26
M  V30 28 1 2 27
M  V30 29 1 3 28
M  V30 30 1 3 29
M  V30 31 1 4 30
M  V30 32 1 4 31
M  V30 33 1 5 32
M  V30 34 1 8 33
M  V30 35 1 8 34
M  V30 36 1 11 35
M  V30 37 1 16 36
M  V30 38 1 16 37
M  V30 39 1 17 38
M  V30 40 1 18 39
M  V30 41 1 18 40
M  V30 42 1 19 41
M  V30 43 1 20 42
M  V30 44 1 20 43
M  V30 45 1 21 44
M  V30 46 1 21 45
M  V30 47 1 22 46
M  V30 48 1 22 47
M  V30 49 1 22 48
M  V30 END BOND
M  V30 END CTAB
M  END
