
     RDKit          3D

  0  0  0  0  0  0  0  0  0  0999 V3000
M  V30 BEGIN CTAB
M  V30 COUNTS 22 24 0 0 0
M  V30 BEGIN ATOM
M  V30 1 N -1.39447 2.10187 -0.303196 0
M  V30 2 C -0.693384 0.862111 -0.119956 0
M  V30 3 C 0.665549 0.872204 -0.167475 0
M  V30 4 N 1.32934 2.12239 -0.398481 0
M  V30 5 C 1.45184 -0.280841 -0.0015811 0
M  V30 6 C 0.712581 -1.39892 0.209931 0
M  V30 7 S 1.88187 -2.63015 0.375962 0
M  V30 8 C 3.2906 -1.68465 0.170668 0
M  V30 9 C 2.79656 -0.428942 -0.0222183 0
M  V30 10 C -0.67538 -1.41991 0.260249 0
M  V30 11 C -1.43038 -0.314463 0.101242 0
M  V30 12 C -2.76625 -0.45261 0.169347 0
M  V30 13 C -3.24402 -1.72051 0.397037 0
M  V30 14 S -1.81568 -2.65489 0.504792 0
M  V30 15 H -1.08142 2.73107 -1.04596 0
M  V30 16 H -2.19697 2.3659 0.29232 0
M  V30 17 H 0.961809 2.99686 0.0168877 0
M  V30 18 H 2.18692 2.18003 -0.982696 0
M  V30 19 H 4.33268 -1.99656 0.187571 0
M  V30 20 H 3.50899 0.406167 -0.185615 0
M  V30 21 H -3.51761 0.36549 0.0581676 0
M  V30 22 H -4.30315 -2.02166 0.483004 0
M  V30 END ATOM
M  V30 BEGIN BOND
M  V30 1 1 1 2
M  V30 2 2 2 3
M  V30 3 1 3 4
M  V30 4 1 3 5
M  V30 5 2 5 6
M  V30 6 1 6 7
M  V30 7 1 7 8
M  V30 8 2 8 9
M  V30 9 1 6 10
M  V30 10 2 10 11
M  V30 11 1 11 12
M  V30 12 2 12 13
M  V30 13 1 13 14
M  V30 14 1 11 2
M  V30 15 1 9 5
M  V30 16 1 14 10
M  V30 17 1 1 15
M  V30 18 1 1 16
M  V30 19 1 4 17
M  V30 20 1 4 18
M  V30 21 1 8 19
M  V30 22 1 9 20
M  V30 23 1 12 21
M  V30 24 1 13 22
M  V30 END BOND
M  V30 END CTAB
M  END
