
     RDKit          3D

  0  0  0  0  0  0  0  0  0  0999 V3000
M  V30 BEGIN CTAB
M  V30 COUNTS 37 39 0 0 0
M  V30 BEGIN ATOM
M  V30 1 C -1.47056 -2.42431 -0.258658 0
M  V30 2 C -1.69826 -1.01809 -0.527649 0 CFG=1
M  V30 3 O -2.36267 -0.890299 -1.77265 0
M  V30 4 C -2.72416 -0.439778 0.46615 0 CFG=2
M  V30 5 O -4.00061 -0.865822 0.159104 0
M  V30 6 C -2.53485 1.038 0.0854775 0 CFG=1
M  V30 7 C -3.2139 1.87794 1.11518 0
M  V30 8 O -2.86716 3.21528 0.938365 0
M  V30 9 O -1.1469 1.12551 0.150095 0
M  V30 10 C -0.62915 -0.0332975 -0.435889 0 CFG=1
M  V30 11 N 0.551519 -0.366292 0.298873 0
M  V30 12 C 0.730016 -1.11471 1.38839 0
M  V30 13 N 2.02285 -1.1234 1.70062 0
M  V30 14 C 2.69304 -0.387901 0.826256 0
M  V30 15 C 1.77017 0.0926701 -0.0609224 0
M  V30 16 N 2.2108 0.890928 -1.07644 0
M  V30 17 C 3.51292 1.20321 -1.21147 0
M  V30 18 N 4.00333 2.02928 -2.25432 0
M  V30 19 N 4.4127 0.725942 -0.334271 0
M  V30 20 C 4.03377 -0.0538435 0.669709 0
M  V30 21 N 4.96477 -0.584688 1.62918 0
M  V30 22 H -1.9077 -2.69735 0.744513 0
M  V30 23 H -0.422711 -2.79082 -0.348243 0
M  V30 24 H -2.05054 -3.0769 -0.967915 0
M  V30 25 H -2.35079 -1.74236 -2.25316 0
M  V30 26 H -2.42744 -0.610067 1.49956 0
M  V30 27 H -4.03378 -1.83327 -0.0451781 0
M  V30 28 H -2.9174 1.17873 -0.936636 0
M  V30 29 H -4.30848 1.76748 0.976927 0
M  V30 30 H -2.97399 1.50004 2.12117 0
M  V30 31 H -3.47269 3.61121 0.245126 0
M  V30 32 H -0.329174 0.263201 -1.46155 0
M  V30 33 H -0.105298 -1.60725 1.88612 0
M  V30 34 H 3.58343 2.94303 -2.52997 0
M  V30 35 H 4.84039 1.71357 -2.79035 0
M  V30 36 H 4.6445 -0.919486 2.53906 0
M  V30 37 H 5.974 -0.596085 1.31754 0
M  V30 END ATOM
M  V30 BEGIN BOND
M  V30 1 1 1 2
M  V30 2 1 2 3 CFG=3
M  V30 3 1 2 4
M  V30 4 1 4 5
M  V30 5 1 4 6
M  V30 6 1 6 7
M  V30 7 1 7 8
M  V30 8 1 6 9
M  V30 9 1 9 10
M  V30 10 1 10 11
M  V30 11 1 11 12
M  V30 12 2 12 13
M  V30 13 1 13 14
M  V30 14 2 14 15
M  V30 15 1 15 16
M  V30 16 2 16 17
M  V30 17 1 17 18
M  V30 18 1 17 19
M  V30 19 2 19 20
M  V30 20 1 20 21
M  V30 21 1 10 2
M  V30 22 1 15 11
M  V30 23 1 20 14
M  V30 24 1 1 22
M  V30 25 1 1 23
M  V30 26 1 1 24
M  V30 27 1 3 25
M  V30 28 1 4 26 CFG=1
M  V30 29 1 5 27
M  V30 30 1 6 28 CFG=3
M  V30 31 1 7 29
M  V30 32 1 7 30
M  V30 33 1 8 31
M  V30 34 1 10 32 CFG=3
M  V30 35 1 12 33
M  V30 36 1 18 34
M  V30 37 1 18 35
M  V30 38 1 21 36
M  V30 39 1 21 37
M  V30 END BOND
M  V30 END CTAB
M  END
