
     RDKit          3D

  0  0  0  0  0  0  0  0  0  0999 V3000
M  V30 BEGIN CTAB
M  V30 COUNTS 50 53 0 0 0
M  V30 BEGIN ATOM
M  V30 1 C 4.91557 -1.1677 -1.60498 0
M  V30 2 O 4.1949 -0.0662622 -1.14244 0
M  V30 3 C 2.81096 -0.111546 -1.13324 0
M  V30 4 C 2.09428 -1.20021 -1.56558 0
M  V30 5 C 0.714571 -1.20647 -1.54346 0
M  V30 6 C -0.00869193 -0.111936 -1.0837 0
M  V30 7 C 0.743521 0.958354 -0.658412 0
M  V30 8 C 2.12043 0.988963 -0.670518 0
M  V30 9 C 2.85745 2.19484 -0.198288 0
M  V30 10 N 3.44916 2.04095 1.09266 0
M  V30 11 C 2.93894 2.29734 2.30274 0
M  V30 12 C 3.85361 2.01341 3.29026 0
M  V30 13 C 4.96599 1.56308 2.60918 0
M  V30 14 N 4.67623 1.59667 1.2864 0
M  V30 15 C -1.45292 -0.168611 -1.1072 0
M  V30 16 C -2.12147 -0.0335073 -2.33263 0
M  V30 17 C -1.31552 0.147941 -3.50375 0
M  V30 18 N -0.667395 0.273708 -4.45486 0
M  V30 19 C -3.49402 -0.071403 -2.44293 0
M  V30 20 N -4.08478 0.0782947 -3.73102 0
M  V30 21 N -4.19581 -0.24478 -1.32495 0
M  V30 22 C -3.64175 -0.382131 -0.115528 0
M  V30 23 C -2.26636 -0.344887 0.000256615 0
M  V30 24 C -1.63197 -0.465391 1.30358 0
M  V30 25 C -2.50897 -1.21301 2.26821 0
M  V30 26 N -2.69396 -2.60448 1.95134 0
M  V30 27 C -3.8435 -0.473841 2.34941 0
M  V30 28 C -4.574 -0.563171 1.02432 0
M  V30 29 H 5.09931 -1.95798 -0.864093 0
M  V30 30 H 4.52261 -1.58837 -2.56484 0
M  V30 31 H 5.94131 -0.781249 -1.87895 0
M  V30 32 H 2.64811 -2.06218 -1.92828 0
M  V30 33 H 0.164086 -2.06257 -1.88374 0
M  V30 34 H 0.22079 1.85329 -0.280513 0
M  V30 35 H 2.17944 3.07128 -0.172928 0
M  V30 36 H 3.63439 2.45491 -0.950592 0
M  V30 37 H 1.93809 2.6786 2.5259 0
M  V30 38 H 3.80792 2.08941 4.36132 0
M  V30 39 H 5.92429 1.22785 2.96383 0
M  V30 40 H -4.94526 -0.482255 -3.972 0
M  V30 41 H -3.6584 0.745018 -4.43095 0
M  V30 42 H -0.648505 -0.981501 1.31785 0
M  V30 43 H -1.54502 0.57349 1.73306 0
M  V30 44 H -2.06392 -1.09057 3.28887 0
M  V30 45 H -3.44092 -2.6785 1.22735 0
M  V30 46 H -3.11295 -3.05341 2.81664 0
M  V30 47 H -3.64599 0.548478 2.66041 0
M  V30 48 H -4.41976 -0.982433 3.15601 0
M  V30 49 H -5.32779 0.276995 1.0311 0
M  V30 50 H -5.10633 -1.52253 0.979669 0
M  V30 END ATOM
M  V30 BEGIN BOND
M  V30 1 1 1 2
M  V30 2 1 2 3
M  V30 3 2 3 4
M  V30 4 1 4 5
M  V30 5 2 5 6
M  V30 6 1 6 7
M  V30 7 2 7 8
M  V30 8 1 8 9
M  V30 9 1 9 10
M  V30 10 1 10 11
M  V30 11 2 11 12
M  V30 12 1 12 13
M  V30 13 2 13 14
M  V30 14 1 6 15
M  V30 15 2 15 16
M  V30 16 1 16 17
M  V30 17 3 17 18
M  V30 18 1 16 19
M  V30 19 1 19 20
M  V30 20 2 19 21
M  V30 21 1 21 22
M  V30 22 2 22 23
M  V30 23 1 23 24
M  V30 24 1 24 25
M  V30 25 1 25 26
M  V30 26 1 25 27
M  V30 27 1 27 28
M  V30 28 1 8 3
M  V30 29 1 14 10
M  V30 30 1 23 15
M  V30 31 1 28 22
M  V30 32 1 1 29
M  V30 33 1 1 30
M  V30 34 1 1 31
M  V30 35 1 4 32
M  V30 36 1 5 33
M  V30 37 1 7 34
M  V30 38 1 9 35
M  V30 39 1 9 36
M  V30 40 1 11 37
M  V30 41 1 12 38
M  V30 42 1 13 39
M  V30 43 1 20 40
M  V30 44 1 20 41
M  V30 45 1 24 42
M  V30 46 1 24 43
M  V30 47 1 25 44
M  V30 48 1 26 45
M  V30 49 1 26 46
M  V30 50 1 27 47
M  V30 51 1 27 48
M  V30 52 1 28 49
M  V30 53 1 28 50
M  V30 END BOND
M  V30 END CTAB
M  END
