
     RDKit          3D

  0  0  0  0  0  0  0  0  0  0999 V3000
M  V30 BEGIN CTAB
M  V30 COUNTS 25 26 0 0 0
M  V30 BEGIN ATOM
M  V30 1 C -4.44897 0.482856 0.425989 0
M  V30 2 N -3.15683 0.0338413 0.0108097 0
M  V30 3 N -2.01416 0.565325 0.419089 0
M  V30 4 C -0.983989 -0.0813325 -0.152985 0
M  V30 5 C -1.54718 -1.05232 -0.946325 0
M  V30 6 C -2.92285 -0.982616 -0.845304 0
M  V30 7 N -0.802898 -1.96917 -1.73512 0
M  V30 8 C 0.440545 0.144833 -0.00842565 0
M  V30 9 N 1.42641 -0.537109 -0.608593 0
M  V30 10 C 2.62121 -0.040693 -0.231166 0
M  V30 11 N 2.34714 0.961409 0.614244 0
M  V30 12 N 1.0382 1.07708 0.751544 0
M  V30 13 C 3.38949 1.76431 1.25238 0
M  V30 14 N 3.90299 -0.495779 -0.651064 0
M  V30 15 H -4.50945 1.59358 0.300495 0
M  V30 16 H -5.23956 0.0396338 -0.197133 0
M  V30 17 H -4.61307 0.249643 1.51161 0
M  V30 18 H -3.59431 -1.63135 -1.36616 0
M  V30 19 H -0.0454767 -2.5768 -1.34462 0
M  V30 20 H -0.997693 -2.06433 -2.75756 0
M  V30 21 H 2.90346 2.59314 1.78237 0
M  V30 22 H 4.12018 2.0867 0.487454 0
M  V30 23 H 3.96202 1.17177 1.99996 0
M  V30 24 H 4.76284 -0.293657 -0.103912 0
M  V30 25 H 3.96196 -1.03897 -1.52347 0
M  V30 END ATOM
M  V30 BEGIN BOND
M  V30 1 1 1 2
M  V30 2 1 2 3
M  V30 3 2 3 4
M  V30 4 1 4 5
M  V30 5 2 5 6
M  V30 6 1 5 7
M  V30 7 1 4 8
M  V30 8 1 8 9
M  V30 9 2 9 10
M  V30 10 1 10 11
M  V30 11 1 11 12
M  V30 12 1 11 13
M  V30 13 1 10 14
M  V30 14 1 6 2
M  V30 15 2 12 8
M  V30 16 1 1 15
M  V30 17 1 1 16
M  V30 18 1 1 17
M  V30 19 1 6 18
M  V30 20 1 7 19
M  V30 21 1 7 20
M  V30 22 1 13 21
M  V30 23 1 13 22
M  V30 24 1 13 23
M  V30 25 1 14 24
M  V30 26 1 14 25
M  V30 END BOND
M  V30 END CTAB
M  END
