
     RDKit          3D

  0  0  0  0  0  0  0  0  0  0999 V3000
M  V30 BEGIN CTAB
M  V30 COUNTS 23 24 0 0 0
M  V30 BEGIN ATOM
M  V30 1 O 4.38441 0.337818 1.44706 0 CHG=-1
M  V30 2 N 3.57534 -0.00489444 0.380507 0 CHG=1
M  V30 3 O 4.10995 -0.545651 -0.584747 0
M  V30 4 C 2.17592 0.260472 0.404169 0
M  V30 5 C 1.721 1.37319 1.09729 0
M  V30 6 C 0.362684 1.64973 1.13292 0
M  V30 7 C -0.563784 0.841444 0.491454 0
M  V30 8 C -0.0605422 -0.251199 -0.183045 0
M  V30 9 C 1.28026 -0.556103 -0.239466 0
M  V30 10 N 1.76236 -1.69995 -0.950104 0
M  V30 11 C -0.997217 -1.04349 -0.815025 0
M  V30 12 O -0.552203 -2.04804 -1.43708 0
M  V30 13 N -2.29565 -0.730041 -0.748286 0
M  V30 14 C -2.78588 0.336459 -0.0898619 0
M  V30 15 N -1.87697 1.12247 0.534894 0
M  V30 16 N -4.17897 0.625896 -0.0496478 0
M  V30 17 H 2.43585 2.01053 1.60153 0
M  V30 18 H 0.00279917 2.52042 1.67483 0
M  V30 19 H 1.65412 -2.62493 -0.4784 0
M  V30 20 H 2.20153 -1.65255 -1.88506 0
M  V30 21 H -2.95829 -1.36841 -1.24723 0
M  V30 22 H -4.57829 1.46798 -0.498767 0
M  V30 23 H -4.81843 -0.0211422 0.442061 0
M  V30 END ATOM
M  V30 BEGIN BOND
M  V30 1 1 1 2
M  V30 2 2 2 3
M  V30 3 1 2 4
M  V30 4 2 4 5
M  V30 5 1 5 6
M  V30 6 2 6 7
M  V30 7 1 7 8
M  V30 8 2 8 9
M  V30 9 1 9 10
M  V30 10 1 8 11
M  V30 11 2 11 12
M  V30 12 1 11 13
M  V30 13 1 13 14
M  V30 14 2 14 15
M  V30 15 1 14 16
M  V30 16 1 9 4
M  V30 17 1 15 7
M  V30 18 1 5 17
M  V30 19 1 6 18
M  V30 20 1 10 19
M  V30 21 1 10 20
M  V30 22 1 13 21
M  V30 23 1 16 22
M  V30 24 1 16 23
M  V30 END BOND
M  V30 END CTAB
M  END
