
     RDKit          3D

  0  0  0  0  0  0  0  0  0  0999 V3000
M  V30 BEGIN CTAB
M  V30 COUNTS 50 53 0 0 0
M  V30 BEGIN ATOM
M  V30 1 N -5.52212 0.0752692 0.296823 0
M  V30 2 C -4.14285 0.334043 0.566231 0
M  V30 3 C -3.37243 0.347231 -0.718062 0
M  V30 4 C -3.60985 -0.925974 -1.47038 0
M  V30 5 C -4.00025 -2.0995 -0.656146 0
M  V30 6 C -3.49919 -2.09266 0.755032 0
M  V30 7 C -3.51728 -0.756052 1.40705 0
M  V30 8 C -2.12579 -0.33918 1.73322 0
M  V30 9 C -1.23679 -0.0333354 0.561738 0
M  V30 10 C -1.92728 0.669645 -0.553494 0
M  V30 11 C -0.0824742 0.742212 1.08149 0
M  V30 12 O -0.185136 1.15892 2.29228 0
M  V30 13 N 1.09296 1.06651 0.397323 0
M  V30 14 C 2.08995 1.87304 1.11462 0
M  V30 15 C 3.22803 2.27669 0.214654 0
M  V30 16 N 3.7278 1.10664 -0.467492 0
M  V30 17 C 2.80868 0.33436 -1.23249 0
M  V30 18 C 1.36141 0.647804 -0.953289 0
M  V30 19 C 5.09662 0.663265 -0.403364 0
M  V30 20 S 6.53217 1.43217 -0.93548 0
M  V30 21 N 7.63071 0.235839 -0.497013 0
M  V30 22 C 6.84527 -0.702382 0.0390899 0
M  V30 23 N 5.56944 -0.480087 0.0832104 0
M  V30 24 N 7.42249 -1.94344 0.548631 0
M  V30 25 H -6.08864 0.0492664 1.1758 0
M  V30 26 H -5.9006 0.727224 -0.410051 0
M  V30 27 H -3.99214 1.28906 1.09713 0
M  V30 28 H -3.82047 1.18761 -1.33083 0
M  V30 29 H -4.41187 -0.776185 -2.25327 0
M  V30 30 H -2.68061 -1.13736 -2.07131 0
M  V30 31 H -5.1112 -2.28834 -0.670092 0
M  V30 32 H -3.57049 -3.01458 -1.14586 0
M  V30 33 H -4.20485 -2.75224 1.34412 0
M  V30 34 H -2.51377 -2.62473 0.838101 0
M  V30 35 H -4.0883 -0.751252 2.36628 0
M  V30 36 H -2.17908 0.53864 2.41002 0
M  V30 37 H -1.65039 -1.14725 2.33579 0
M  V30 38 H -0.807693 -0.987825 0.159916 0
M  V30 39 H -1.45276 0.391524 -1.54475 0
M  V30 40 H -1.74615 1.77572 -0.496487 0
M  V30 41 H 1.63814 2.75246 1.57475 0
M  V30 42 H 2.51172 1.23341 1.92629 0
M  V30 43 H 4.00542 2.74641 0.83377 0
M  V30 44 H 2.87448 3.05531 -0.504214 0
M  V30 45 H 2.97625 0.493516 -2.31255 0
M  V30 46 H 2.95087 -0.757714 -1.00376 0
M  V30 47 H 1.07634 1.49861 -1.61673 0
M  V30 48 H 0.792302 -0.283846 -1.23169 0
M  V30 49 H 7.04955 -2.83591 0.154234 0
M  V30 50 H 8.15987 -1.97258 1.2546 0
M  V30 END ATOM
M  V30 BEGIN BOND
M  V30 1 1 1 2
M  V30 2 1 2 3
M  V30 3 1 3 4
M  V30 4 1 4 5
M  V30 5 1 5 6
M  V30 6 1 6 7
M  V30 7 1 7 8
M  V30 8 1 8 9
M  V30 9 1 9 10
M  V30 10 1 9 11
M  V30 11 2 11 12
M  V30 12 1 11 13
M  V30 13 1 13 14
M  V30 14 1 14 15
M  V30 15 1 15 16
M  V30 16 1 16 17
M  V30 17 1 17 18
M  V30 18 1 16 19
M  V30 19 1 19 20
M  V30 20 1 20 21
M  V30 21 2 21 22
M  V30 22 1 22 23
M  V30 23 1 22 24
M  V30 24 1 7 2
M  V30 25 1 18 13
M  V30 26 2 23 19
M  V30 27 1 10 3
M  V30 28 1 1 25
M  V30 29 1 1 26
M  V30 30 1 2 27
M  V30 31 1 3 28
M  V30 32 1 4 29
M  V30 33 1 4 30
M  V30 34 1 5 31
M  V30 35 1 5 32
M  V30 36 1 6 33
M  V30 37 1 6 34
M  V30 38 1 7 35
M  V30 39 1 8 36
M  V30 40 1 8 37
M  V30 41 1 9 38
M  V30 42 1 10 39
M  V30 43 1 10 40
M  V30 44 1 14 41
M  V30 45 1 14 42
M  V30 46 1 15 43
M  V30 47 1 15 44
M  V30 48 1 17 45
M  V30 49 1 17 46
M  V30 50 1 18 47
M  V30 51 1 18 48
M  V30 52 1 24 49
M  V30 53 1 24 50
M  V30 END BOND
M  V30 END CTAB
M  END
