
     RDKit          3D

  0  0  0  0  0  0  0  0  0  0999 V3000
M  V30 BEGIN CTAB
M  V30 COUNTS 26 27 0 0 0
M  V30 BEGIN ATOM
M  V30 1 N 1.18108 -2.7664 -0.729696 0
M  V30 2 C 1.80015 -1.51182 -0.457308 0
M  V30 3 C 3.16942 -1.35085 -0.411546 0
M  V30 4 N 3.70463 -0.144451 -0.150085 0
M  V30 5 C 2.95173 0.948591 0.0764341 0
M  V30 6 N 1.61659 0.794099 0.0323343 0
M  V30 7 C 1.0324 -0.389768 -0.224737 0
M  V30 8 N -0.388679 -0.532305 -0.267044 0
M  V30 9 C -1.20916 0.660851 -0.0197462 0
M  V30 10 C -2.65311 0.289741 -0.111111 0
M  V30 11 C -3.68071 1.35202 0.106556 0
M  V30 12 C -3.44272 0.247876 1.12425 0
M  V30 13 N 3.53463 2.22588 0.353415 0
M  V30 14 H 1.31133 -3.56373 -0.0416199 0
M  V30 15 H 0.614903 -2.87842 -1.59419 0
M  V30 16 H 3.78927 -2.21713 -0.590887 0
M  V30 17 H -0.832767 -1.42962 -0.461935 0
M  V30 18 H -0.978465 1.42657 -0.788208 0
M  V30 19 H -1.0115 1.05906 0.984 0
M  V30 20 H -2.8969 -0.433246 -0.922652 0
M  V30 21 H -4.63599 1.29181 -0.439337 0
M  V30 22 H -3.36469 2.37547 0.385809 0
M  V30 23 H -4.19269 -0.567532 1.20358 0
M  V30 24 H -2.98683 0.575062 2.07471 0
M  V30 25 H 3.0723 2.95875 0.896097 0
M  V30 26 H 4.49579 2.41464 -0.0270698 0
M  V30 END ATOM
M  V30 BEGIN BOND
M  V30 1 1 1 2
M  V30 2 2 2 3
M  V30 3 1 3 4
M  V30 4 2 4 5
M  V30 5 1 5 6
M  V30 6 2 6 7
M  V30 7 1 7 8
M  V30 8 1 8 9
M  V30 9 1 9 10
M  V30 10 1 10 11
M  V30 11 1 11 12
M  V30 12 1 5 13
M  V30 13 1 7 2
M  V30 14 1 12 10
M  V30 15 1 1 14
M  V30 16 1 1 15
M  V30 17 1 3 16
M  V30 18 1 8 17
M  V30 19 1 9 18
M  V30 20 1 9 19
M  V30 21 1 10 20
M  V30 22 1 11 21
M  V30 23 1 11 22
M  V30 24 1 12 23
M  V30 25 1 12 24
M  V30 26 1 13 25
M  V30 27 1 13 26
M  V30 END BOND
M  V30 END CTAB
M  END
