
     RDKit          3D

  0  0  0  0  0  0  0  0  0  0999 V3000
M  V30 BEGIN CTAB
M  V30 COUNTS 28 28 0 0 0
M  V30 BEGIN ATOM
M  V30 1 N 1.56946 2.24434 -0.965541 0
M  V30 2 C 0.626976 1.95052 0.0862992 0
M  V30 3 C -0.306488 0.830406 -0.226672 0 CFG=2
M  V30 4 C -1.23158 0.632952 0.942049 0
M  V30 5 C -2.14739 -0.547521 0.770507 0
M  V30 6 C -1.55479 -1.74268 0.122053 0
M  V30 7 C -0.738436 -1.42858 -1.08764 0
M  V30 8 C 0.336682 -0.418623 -0.701061 0 CFG=2
M  V30 9 C 1.2689 -1.09384 0.247267 0
M  V30 10 N 2.39657 -0.280648 0.639041 0
M  V30 11 H 1.09318 2.74328 -1.7143 0
M  V30 12 H 2.32566 2.809 -0.582902 0
M  V30 13 H 0.00447247 2.89991 0.157106 0
M  V30 14 H 1.12219 1.89927 1.07186 0
M  V30 15 H -0.948875 1.19321 -1.08681 0
M  V30 16 H -1.87239 1.53708 1.01151 0
M  V30 17 H -0.648946 0.586987 1.88535 0
M  V30 18 H -2.48137 -0.839678 1.79705 0
M  V30 19 H -3.07612 -0.249625 0.214957 0
M  V30 20 H -1.02396 -2.41303 0.838283 0
M  V30 21 H -2.42292 -2.36861 -0.247435 0
M  V30 22 H -1.35505 -1.09979 -1.92252 0
M  V30 23 H -0.21596 -2.36222 -1.39596 0
M  V30 24 H 0.895096 -0.19202 -1.63325 0
M  V30 25 H 1.71418 -1.9969 -0.259275 0
M  V30 26 H 0.765716 -1.50313 1.14745 0
M  V30 27 H 2.78972 -0.542733 1.55622 0
M  V30 28 H 3.11548 -0.247327 -0.124933 0
M  V30 END ATOM
M  V30 BEGIN BOND
M  V30 1 1 1 2
M  V30 2 1 2 3
M  V30 3 1 3 4
M  V30 4 1 4 5
M  V30 5 1 5 6
M  V30 6 1 6 7
M  V30 7 1 7 8
M  V30 8 1 8 9
M  V30 9 1 9 10
M  V30 10 1 8 3
M  V30 11 1 1 11
M  V30 12 1 1 12
M  V30 13 1 2 13
M  V30 14 1 2 14
M  V30 15 1 3 15 CFG=3
M  V30 16 1 4 16
M  V30 17 1 4 17
M  V30 18 1 5 18
M  V30 19 1 5 19
M  V30 20 1 6 20
M  V30 21 1 6 21
M  V30 22 1 7 22
M  V30 23 1 7 23
M  V30 24 1 8 24 CFG=3
M  V30 25 1 9 25
M  V30 26 1 9 26
M  V30 27 1 10 27
M  V30 28 1 10 28
M  V30 END BOND
M  V30 END CTAB
M  END
