
     RDKit          3D

  0  0  0  0  0  0  0  0  0  0999 V3000
M  V30 BEGIN CTAB
M  V30 COUNTS 35 36 0 0 0
M  V30 BEGIN ATOM
M  V30 1 N -3.03186 -4.26255 0.241187 0
M  V30 2 N -2.29003 -3.06037 0.199692 0
M  V30 3 C -2.90949 -1.83033 0.0445287 0
M  V30 4 O -4.16076 -1.77814 -0.0622166 0
M  V30 5 C -2.17119 -0.583949 -0.00100262 0
M  V30 6 C -0.801873 -0.61379 0.113432 0
M  V30 7 C -0.0695305 0.571857 0.072589 0
M  V30 8 C -0.737989 1.74624 -0.0817725 0
M  V30 9 C -2.11226 1.72143 -0.191968 0
M  V30 10 N -2.82992 0.597649 -0.15518 0
M  V30 11 C -2.78799 3.03175 -0.358409 0
M  V30 12 O -2.13802 4.10444 -0.396391 0
M  V30 13 N -4.20273 3.07166 -0.477345 0
M  V30 14 N -4.8416 4.3031 -0.634051 0
M  V30 15 N 1.33593 0.508286 0.192824 0
M  V30 16 N 1.98442 -0.573217 0.299749 0
M  V30 17 C 3.40439 -0.622237 0.420487 0
M  V30 18 C 4.05715 -0.314577 1.60149 0
M  V30 19 C 5.43549 -0.365736 1.70646 0
M  V30 20 C 6.19435 -0.732093 0.61146 0
M  V30 21 C 5.54695 -1.04273 -0.578607 0
M  V30 22 C 4.15871 -0.986863 -0.669534 0
M  V30 23 H -4.05424 -4.02985 0.312225 0
M  V30 24 H -2.74968 -4.87119 1.01541 0
M  V30 25 H -1.27376 -3.15973 0.29122 0
M  V30 26 H -0.225059 -1.54054 0.239268 0
M  V30 27 H -0.184629 2.68996 -0.116701 0
M  V30 28 H -4.76967 2.17622 -0.447639 0
M  V30 29 H -4.30814 5.07948 -0.177293 0
M  V30 30 H -5.83452 4.2403 -0.291615 0
M  V30 31 H 3.44245 -0.0307333 2.44447 0
M  V30 32 H 5.87094 -0.110986 2.66305 0
M  V30 33 H 7.27075 -0.771884 0.693948 0
M  V30 34 H 6.12928 -1.33248 -1.44824 0
M  V30 35 H 3.6541 -1.22841 -1.59513 0
M  V30 END ATOM
M  V30 BEGIN BOND
M  V30 1 1 1 2
M  V30 2 1 2 3
M  V30 3 2 3 4
M  V30 4 1 3 5
M  V30 5 2 5 6
M  V30 6 1 6 7
M  V30 7 2 7 8
M  V30 8 1 8 9
M  V30 9 2 9 10
M  V30 10 1 9 11
M  V30 11 2 11 12
M  V30 12 1 11 13
M  V30 13 1 13 14
M  V30 14 1 7 15
M  V30 15 2 15 16
M  V30 16 1 16 17
M  V30 17 2 17 18
M  V30 18 1 18 19
M  V30 19 2 19 20
M  V30 20 1 20 21
M  V30 21 2 21 22
M  V30 22 1 10 5
M  V30 23 1 22 17
M  V30 24 1 1 23
M  V30 25 1 1 24
M  V30 26 1 2 25
M  V30 27 1 6 26
M  V30 28 1 8 27
M  V30 29 1 13 28
M  V30 30 1 14 29
M  V30 31 1 14 30
M  V30 32 1 18 31
M  V30 33 1 19 32
M  V30 34 1 20 33
M  V30 35 1 21 34
M  V30 36 1 22 35
M  V30 END BOND
M  V30 END CTAB
M  END
