
     RDKit          3D

  0  0  0  0  0  0  0  0  0  0999 V3000
M  V30 BEGIN CTAB
M  V30 COUNTS 31 33 0 0 0
M  V30 BEGIN ATOM
M  V30 1 N -3.40202 2.45421 0.462001 0
M  V30 2 C -3.94175 1.22664 0.0272939 0
M  V30 3 N -5.24382 0.940298 -0.162083 0
M  V30 4 N -5.37844 -0.310593 -0.573992 0
M  V30 5 C -4.12704 -0.852906 -0.654605 0
M  V30 6 C -3.20333 0.0991373 -0.279675 0
M  V30 7 N -1.8052 -0.104738 -0.240579 0
M  V30 8 N -0.992151 0.570229 0.422921 0
M  V30 9 C 0.413838 0.355471 0.454375 0
M  V30 10 C 1.09912 0.827705 1.56382 0
M  V30 11 C 2.45741 0.684863 1.71675 0
M  V30 12 C 3.15179 0.0364001 0.703577 0
M  V30 13 C 2.50814 -0.442764 -0.406026 0
M  V30 14 C 1.12849 -0.272019 -0.512699 0
M  V30 15 C 3.21987 -1.08262 -1.39747 0
M  V30 16 C 4.58833 -1.21277 -1.21731 0
M  V30 17 C 5.22364 -0.727128 -0.0980342 0
M  V30 18 C 4.52853 -0.0890624 0.895205 0
M  V30 19 N -3.79024 -2.17466 -1.05402 0
M  V30 20 H -3.62644 3.36778 0.0304664 0
M  V30 21 H -2.73816 2.44953 1.26343 0
M  V30 22 H -6.08691 1.56375 -0.0248587 0
M  V30 23 H 0.564888 1.32914 2.34812 0
M  V30 24 H 2.95992 1.0626 2.58994 0
M  V30 25 H 0.612201 -0.644092 -1.37944 0
M  V30 26 H 2.70943 -1.46023 -2.2729 0
M  V30 27 H 5.1973 -1.70461 -1.96011 0
M  V30 28 H 6.28905 -0.858384 -0.014542 0
M  V30 29 H 4.99069 0.305942 1.78857 0
M  V30 30 H -4.27087 -2.66578 -1.85982 0
M  V30 31 H -3.03627 -2.67133 -0.523237 0
M  V30 END ATOM
M  V30 BEGIN BOND
M  V30 1 1 1 2
M  V30 2 1 2 3
M  V30 3 1 3 4
M  V30 4 2 4 5
M  V30 5 1 5 6
M  V30 6 1 6 7
M  V30 7 2 7 8
M  V30 8 1 8 9
M  V30 9 2 9 10
M  V30 10 1 10 11
M  V30 11 2 11 12
M  V30 12 1 12 13
M  V30 13 2 13 14
M  V30 14 1 13 15
M  V30 15 2 15 16
M  V30 16 1 16 17
M  V30 17 2 17 18
M  V30 18 1 5 19
M  V30 19 2 6 2
M  V30 20 1 14 9
M  V30 21 1 18 12
M  V30 22 1 1 20
M  V30 23 1 1 21
M  V30 24 1 3 22
M  V30 25 1 10 23
M  V30 26 1 11 24
M  V30 27 1 14 25
M  V30 28 1 15 26
M  V30 29 1 16 27
M  V30 30 1 17 28
M  V30 31 1 18 29
M  V30 32 1 19 30
M  V30 33 1 19 31
M  V30 END BOND
M  V30 END CTAB
M  END
