
     RDKit          3D

  0  0  0  0  0  0  0  0  0  0999 V3000
M  V30 BEGIN CTAB
M  V30 COUNTS 62 66 0 0 0
M  V30 BEGIN ATOM
M  V30 1 N 2.75499 3.37972 -2.32123 0
M  V30 2 C 3.44332 3.11138 -1.05885 0
M  V30 3 C 3.49524 1.60739 -0.910608 0 CFG=2
M  V30 4 C 2.12265 1.04213 -0.885639 0
M  V30 5 N 1.87126 0.578007 0.459682 0
M  V30 6 C 2.9268 1.02284 1.30133 0
M  V30 7 C 4.10267 1.19965 0.40474 0 CFG=1
M  V30 8 C 4.92085 -0.0215423 0.20875 0
M  V30 9 C 4.41747 -1.22979 -0.201342 0
M  V30 10 C 5.21118 -2.36468 -0.379118 0
M  V30 11 C 6.55475 -2.30354 -0.142472 0
M  V30 12 C 7.08569 -1.08059 0.276157 0
M  V30 13 C 6.282 0.024579 0.444222 0
M  V30 14 C 0.70953 -0.207413 0.815164 0
M  V30 15 O 0.613449 -0.544118 2.01617 0
M  V30 16 N -0.253271 -0.571538 -0.126656 0
M  V30 17 C -1.4384 -1.31533 0.0713205 0
M  V30 18 C -2.5242 -0.772175 0.914399 0
M  V30 19 N -2.13461 -0.532855 2.25423 0
M  V30 20 C -3.04193 0.537384 0.332077 0
M  V30 21 C -4.19254 1.0407 1.16562 0
M  V30 22 C -5.34574 0.0650949 1.06535 0
M  V30 23 C -4.85896 -1.23195 1.68728 0
M  V30 24 C -3.69078 -1.75021 0.879578 0
M  V30 25 C -4.17761 -1.96463 -0.518002 0
M  V30 26 C -4.59027 -0.657417 -1.16705 0
M  V30 27 C -3.52119 0.383139 -1.08291 0
M  V30 28 C -5.78414 -0.157813 -0.345258 0
M  V30 29 H 2.86855 2.56688 -2.97868 0
M  V30 30 H 1.75778 3.56279 -2.1839 0
M  V30 31 H 4.45283 3.5215 -1.08871 0
M  V30 32 H 2.83534 3.55514 -0.235268 0
M  V30 33 H 4.0354 1.18343 -1.7804 0
M  V30 34 H 1.35781 1.84692 -1.07314 0
M  V30 35 H 1.96038 0.180549 -1.57171 0
M  V30 36 H 3.12146 0.365559 2.17135 0
M  V30 37 H 2.68668 2.02629 1.73866 0
M  V30 38 H 4.79385 2.01084 0.770297 0
M  V30 39 H 3.38146 -1.33567 -0.398999 0
M  V30 40 H 4.7671 -3.30273 -0.706248 0
M  V30 41 H 7.20601 -3.14512 -0.264039 0
M  V30 42 H 8.14531 -0.977607 0.477651 0
M  V30 43 H 6.73557 0.949042 0.76923 0
M  V30 44 H -0.0283331 -0.218102 -1.13193 0
M  V30 45 H -1.82537 -1.62917 -0.940788 0
M  V30 46 H -1.08926 -2.32688 0.49101 0
M  V30 47 H -2.55706 -1.1282 2.97293 0
M  V30 48 H -2.06457 0.462069 2.49089 0
M  V30 49 H -2.244 1.32494 0.371388 0
M  V30 50 H -3.95758 1.17345 2.22308 0
M  V30 51 H -4.55354 1.99933 0.742126 0
M  V30 52 H -6.20472 0.447096 1.64914 0
M  V30 53 H -5.63474 -2.0144 1.67396 0
M  V30 54 H -4.61181 -1.02284 2.72889 0
M  V30 55 H -3.33537 -2.68184 1.32354 0
M  V30 56 H -5.15331 -2.5404 -0.403448 0
M  V30 57 H -3.55745 -2.6057 -1.15001 0
M  V30 58 H -4.8551 -0.857557 -2.20544 0
M  V30 59 H -2.69187 0.219303 -1.80125 0
M  V30 60 H -3.97997 1.356 -1.37096 0
M  V30 61 H -6.50888 -1.00736 -0.338613 0
M  V30 62 H -6.21083 0.75604 -0.771079 0
M  V30 END ATOM
M  V30 BEGIN BOND
M  V30 1 1 1 2
M  V30 2 1 2 3
M  V30 3 1 3 4
M  V30 4 1 4 5
M  V30 5 1 5 6
M  V30 6 1 6 7
M  V30 7 1 7 8
M  V30 8 2 8 9
M  V30 9 1 9 10
M  V30 10 2 10 11
M  V30 11 1 11 12
M  V30 12 2 12 13
M  V30 13 1 5 14
M  V30 14 2 14 15
M  V30 15 1 14 16
M  V30 16 1 16 17
M  V30 17 1 17 18
M  V30 18 1 18 19
M  V30 19 1 18 20
M  V30 20 1 20 21
M  V30 21 1 21 22
M  V30 22 1 22 23
M  V30 23 1 23 24
M  V30 24 1 24 25
M  V30 25 1 25 26
M  V30 26 1 26 27
M  V30 27 1 26 28
M  V30 28 1 7 3
M  V30 29 1 13 8
M  V30 30 1 24 18
M  V30 31 1 27 20
M  V30 32 1 28 22
M  V30 33 1 1 29
M  V30 34 1 1 30
M  V30 35 1 2 31
M  V30 36 1 2 32
M  V30 37 1 3 33 CFG=3
M  V30 38 1 4 34
M  V30 39 1 4 35
M  V30 40 1 6 36
M  V30 41 1 6 37
M  V30 42 1 7 38 CFG=1
M  V30 43 1 9 39
M  V30 44 1 10 40
M  V30 45 1 11 41
M  V30 46 1 12 42
M  V30 47 1 13 43
M  V30 48 1 16 44
M  V30 49 1 17 45
M  V30 50 1 17 46
M  V30 51 1 19 47
M  V30 52 1 19 48
M  V30 53 1 20 49
M  V30 54 1 21 50
M  V30 55 1 21 51
M  V30 56 1 22 52
M  V30 57 1 23 53
M  V30 58 1 23 54
M  V30 59 1 24 55
M  V30 60 1 25 56
M  V30 61 1 25 57
M  V30 62 1 26 58
M  V30 63 1 27 59
M  V30 64 1 27 60
M  V30 65 1 28 61
M  V30 66 1 28 62
M  V30 END BOND
M  V30 END CTAB
M  END
