
     RDKit          3D

  0  0  0  0  0  0  0  0  0  0999 V3000
M  V30 BEGIN CTAB
M  V30 COUNTS 35 37 0 0 0
M  V30 BEGIN ATOM
M  V30 1 C 5.30959 -2.29453 -0.991849 0
M  V30 2 O 3.96295 -1.927 -0.758747 0
M  V30 3 C 3.71754 -0.625389 -0.347965 0
M  V30 4 C 2.38921 -0.266317 -0.119071 0
M  V30 5 C 1.15588 -1.03518 -0.235354 0
M  V30 6 O 1.06304 -2.23798 -0.585648 0
M  V30 7 C 0.0659378 -0.123193 0.136624 0
M  V30 8 C 0.639144 1.09331 0.446964 0
M  V30 9 C -0.16939 2.13507 0.831864 0
M  V30 10 C -1.54426 1.96553 0.907341 0
M  V30 11 C -2.13855 0.758968 0.6019 0
M  V30 12 C -1.29518 -0.26811 0.218187 0
M  V30 13 C -3.57551 0.571397 0.67771 0
M  V30 14 O -4.29719 1.5353 1.03146 0
M  V30 15 N -4.14963 -0.674119 0.358765 0
M  V30 16 C -5.38301 -0.801018 0.0298671 0
M  V30 17 N -6.23547 0.325578 -0.0277116 0
M  V30 18 N -5.88515 -2.08019 -0.275616 0
M  V30 19 C 2.08325 1.02629 0.294576 0
M  V30 20 C 3.12143 1.93994 0.471948 0
M  V30 21 C 4.43481 1.58767 0.246457 0
M  V30 22 C 4.73103 0.291513 -0.167357 0
M  V30 23 H 5.37531 -3.34628 -1.33912 0
M  V30 24 H 5.80343 -1.58188 -1.66064 0
M  V30 25 H 5.85694 -2.23969 -0.00685284 0
M  V30 26 H 0.29385 3.07944 1.07111 0
M  V30 27 H -2.15553 2.80183 1.21286 0
M  V30 28 H -1.73002 -1.23282 -0.029736 0
M  V30 29 H -6.06813 1.15091 -0.641786 0
M  V30 30 H -7.10353 0.372711 0.571055 0
M  V30 31 H -5.96073 -2.4013 -1.27556 0
M  V30 32 H -6.18909 -2.72694 0.485627 0
M  V30 33 H 2.88843 2.94316 0.79258 0
M  V30 34 H 5.24389 2.29925 0.384556 0
M  V30 35 H 5.74471 -0.0159364 -0.352008 0
M  V30 END ATOM
M  V30 BEGIN BOND
M  V30 1 1 1 2
M  V30 2 1 2 3
M  V30 3 2 3 4
M  V30 4 1 4 5
M  V30 5 2 5 6
M  V30 6 1 5 7
M  V30 7 2 7 8
M  V30 8 1 8 9
M  V30 9 2 9 10
M  V30 10 1 10 11
M  V30 11 2 11 12
M  V30 12 1 11 13
M  V30 13 2 13 14
M  V30 14 1 13 15
M  V30 15 2 15 16
M  V30 16 1 16 17
M  V30 17 1 16 18
M  V30 18 1 8 19
M  V30 19 2 19 20
M  V30 20 1 20 21
M  V30 21 2 21 22
M  V30 22 1 22 3
M  V30 23 1 19 4
M  V30 24 1 12 7
M  V30 25 1 1 23
M  V30 26 1 1 24
M  V30 27 1 1 25
M  V30 28 1 9 26
M  V30 29 1 10 27
M  V30 30 1 12 28
M  V30 31 1 17 29
M  V30 32 1 17 30
M  V30 33 1 18 31
M  V30 34 1 18 32
M  V30 35 1 20 33
M  V30 36 1 21 34
M  V30 37 1 22 35
M  V30 END BOND
M  V30 END CTAB
M  END
