
     RDKit          3D

  0  0  0  0  0  0  0  0  0  0999 V3000
M  V30 BEGIN CTAB
M  V30 COUNTS 23 23 0 0 0
M  V30 BEGIN ATOM
M  V30 1 O -1.26259 0.51434 1.67063 0
M  V30 2 N -2.23885 -0.276729 1.18069 0
M  V30 3 C -2.24128 -0.890673 0.0984355 0
M  V30 4 C -1.181 -0.895875 -0.896319 0
M  V30 5 C 0.00220852 -0.0871577 -0.575154 0
M  V30 6 C 0.0539344 1.25243 -0.971135 0
M  V30 7 C 1.15066 2.04021 -0.704173 0
M  V30 8 C 2.23307 1.51579 -0.0322892 0
M  V30 9 C 2.17441 0.179789 0.359318 0
M  V30 10 C 1.08086 -0.616535 0.0965275 0
M  V30 11 N 3.29477 -0.337391 1.04671 0
M  V30 12 N -3.4154 -1.67953 -0.202813 0
M  V30 13 H -1.35832 1.51184 1.83255 0
M  V30 14 H -0.8939 -1.97703 -1.09297 0
M  V30 15 H -1.6631 -0.491204 -1.84609 0
M  V30 16 H -0.783611 1.66875 -1.49434 0
M  V30 17 H 1.18455 3.08062 -1.01465 0
M  V30 18 H 3.11335 2.09374 0.199036 0
M  V30 19 H 1.03415 -1.65503 0.400414 0
M  V30 20 H 3.51105 -0.0231535 2.00585 0
M  V30 21 H 3.89586 -1.03372 0.579513 0
M  V30 22 H -4.18552 -1.22208 -0.702405 0
M  V30 23 H -3.5053 -2.67139 0.0626791 0
M  V30 END ATOM
M  V30 BEGIN BOND
M  V30 1 1 1 2
M  V30 2 2 2 3 CFG=2
M  V30 3 1 3 4
M  V30 4 1 4 5
M  V30 5 2 5 6
M  V30 6 1 6 7
M  V30 7 2 7 8
M  V30 8 1 8 9
M  V30 9 2 9 10
M  V30 10 1 9 11
M  V30 11 1 3 12
M  V30 12 1 10 5
M  V30 13 1 1 13
M  V30 14 1 4 14
M  V30 15 1 4 15
M  V30 16 1 6 16
M  V30 17 1 7 17
M  V30 18 1 8 18
M  V30 19 1 10 19
M  V30 20 1 11 20
M  V30 21 1 11 21
M  V30 22 1 12 22
M  V30 23 1 12 23
M  V30 END BOND
M  V30 END CTAB
M  END
