
     RDKit          3D

  0  0  0  0  0  0  0  0  0  0999 V3000
M  V30 BEGIN CTAB
M  V30 COUNTS 52 56 0 0 0
M  V30 BEGIN ATOM
M  V30 1 N 7.81324 0.226748 -0.410697 0
M  V30 2 C 6.55164 0.868405 -0.170628 0
M  V30 3 N 5.39391 0.288252 -0.491894 0
M  V30 4 C 4.20144 0.904409 -0.289995 0
M  V30 5 C 2.98091 0.149719 -0.629542 0
M  V30 6 S 1.97988 -0.286732 0.844062 0
M  V30 7 C 0.298237 0.297592 0.535164 0
M  V30 8 N -0.0825753 1.56566 0.711779 0
M  V30 9 C -1.37198 1.96898 0.468042 0
M  V30 10 S -2.1979 3.45665 0.554554 0
M  V30 11 C -3.74274 2.95043 0.0424817 0
M  V30 12 C -3.57102 1.60729 -0.186157 0
M  V30 13 C -2.33109 1.10182 0.0368122 0
M  V30 14 C -1.92007 -0.227017 -0.141605 0
M  V30 15 O -2.6674 -1.14274 -0.526919 0
M  V30 16 N -0.63073 -0.57234 0.11462 0
M  V30 17 C -0.267257 -1.9438 -0.0112297 0
M  V30 18 C 0.53142 -2.45021 -0.99243 0
M  V30 19 C 0.828577 -3.82545 -1.03869 0
M  V30 20 C 0.31315 -4.68561 -0.0893825 0
M  V30 21 C -0.498643 -4.18922 0.911493 0
M  V30 22 C -0.778042 -2.84215 0.943109 0
M  V30 23 Cl -1.13248 -5.32446 2.09477 0
M  V30 24 C 0.625876 -6.14337 -0.135599 0
M  V30 25 C -4.85846 0.940077 -0.645658 0
M  V30 26 C -5.92139 1.32021 0.369757 0
M  V30 27 C -6.13274 2.79224 0.46136 0
M  V30 28 C -5.08311 3.61014 -0.192478 0
M  V30 29 N 4.21448 2.12428 0.245682 0
M  V30 30 C 5.36757 2.7606 0.593834 0
M  V30 31 N 6.51431 2.11582 0.376728 0
M  V30 32 N 5.3459 4.05037 1.17983 0
M  V30 33 H 7.89306 -0.590029 -1.04779 0
M  V30 34 H 8.65675 0.58853 0.0474751 0
M  V30 35 H 3.1793 -0.729559 -1.27302 0
M  V30 36 H 2.36617 0.851743 -1.26903 0
M  V30 37 H 0.940537 -1.82281 -1.7575 0
M  V30 38 H 1.46798 -4.17193 -1.83419 0
M  V30 39 H -1.43343 -2.4943 1.75581 0
M  V30 40 H 0.0632059 -6.68399 0.663074 0
M  V30 41 H 1.70757 -6.24776 0.10947 0
M  V30 42 H 0.498037 -6.60162 -1.11668 0
M  V30 43 H -4.79323 -0.14794 -0.616184 0
M  V30 44 H -5.13386 1.23769 -1.66475 0
M  V30 45 H -6.85823 0.81846 0.108339 0
M  V30 46 H -5.56466 0.908221 1.34449 0
M  V30 47 H -7.12816 3.11178 0.0528153 0
M  V30 48 H -6.14949 3.10061 1.54165 0
M  V30 49 H -4.9996 4.6156 0.268977 0
M  V30 50 H -5.22621 3.74941 -1.30282 0
M  V30 51 H 4.47106 4.59822 1.27861 0
M  V30 52 H 6.2703 4.44306 1.52183 0
M  V30 END ATOM
M  V30 BEGIN BOND
M  V30 1 1 1 2
M  V30 2 2 2 3
M  V30 3 1 3 4
M  V30 4 1 4 5
M  V30 5 1 5 6
M  V30 6 1 6 7
M  V30 7 2 7 8
M  V30 8 1 8 9
M  V30 9 1 9 10
M  V30 10 1 10 11
M  V30 11 2 11 12
M  V30 12 1 12 13
M  V30 13 1 13 14
M  V30 14 2 14 15
M  V30 15 1 14 16
M  V30 16 1 16 17
M  V30 17 2 17 18
M  V30 18 1 18 19
M  V30 19 2 19 20
M  V30 20 1 20 21
M  V30 21 2 21 22
M  V30 22 1 21 23
M  V30 23 1 20 24
M  V30 24 1 12 25
M  V30 25 1 25 26
M  V30 26 1 26 27
M  V30 27 1 27 28
M  V30 28 2 4 29
M  V30 29 1 29 30
M  V30 30 2 30 31
M  V30 31 1 30 32
M  V30 32 1 31 2
M  V30 33 1 16 7
M  V30 34 1 22 17
M  V30 35 2 13 9
M  V30 36 1 28 11
M  V30 37 1 1 33
M  V30 38 1 1 34
M  V30 39 1 5 35
M  V30 40 1 5 36
M  V30 41 1 18 37
M  V30 42 1 19 38
M  V30 43 1 22 39
M  V30 44 1 24 40
M  V30 45 1 24 41
M  V30 46 1 24 42
M  V30 47 1 25 43
M  V30 48 1 25 44
M  V30 49 1 26 45
M  V30 50 1 26 46
M  V30 51 1 27 47
M  V30 52 1 27 48
M  V30 53 1 28 49
M  V30 54 1 28 50
M  V30 55 1 32 51
M  V30 56 1 32 52
M  V30 END BOND
M  V30 END CTAB
M  END
