
     RDKit          3D

  0  0  0  0  0  0  0  0  0  0999 V3000
M  V30 BEGIN CTAB
M  V30 COUNTS 22 23 0 0 0
M  V30 BEGIN ATOM
M  V30 1 N -3.25232 0.181868 -0.380945 0
M  V30 2 C -1.85074 -0.0212776 -0.679888 0 CFG=2
M  V30 3 C -1.38342 -1.21582 0.119245 0
M  V30 4 C -0.0049058 -1.65558 -0.2524 0
M  V30 5 C 0.897294 -0.440567 -0.0858758 0
M  V30 6 C 0.34715 0.809494 -0.0503102 0
M  V30 7 C -1.08226 1.16335 -0.157816 0
M  V30 8 S 1.73949 1.77628 0.146637 0
M  V30 9 C 2.93055 0.548893 0.172423 0
M  V30 10 N 4.35189 0.685968 0.314568 0
M  V30 11 N 2.19708 -0.531213 0.0289732 0
M  V30 12 H -3.61238 0.963514 -0.943419 0
M  V30 13 H -3.3045 0.478857 0.621657 0
M  V30 14 H -1.7278 -0.179531 -1.76638 0
M  V30 15 H -2.06963 -2.04781 -0.0730564 0
M  V30 16 H -1.45338 -0.960511 1.1959 0
M  V30 17 H 0.0407705 -2.0524 -1.26946 0
M  V30 18 H 0.290251 -2.46689 0.444285 0
M  V30 19 H -1.26273 2.03886 -0.816062 0
M  V30 20 H -1.4963 1.43734 0.833979 0
M  V30 21 H 4.98944 0.059066 -0.183913 0
M  V30 22 H 4.71644 1.4281 0.928444 0
M  V30 END ATOM
M  V30 BEGIN BOND
M  V30 1 1 1 2
M  V30 2 1 2 3
M  V30 3 1 3 4
M  V30 4 1 4 5
M  V30 5 2 5 6
M  V30 6 1 6 7
M  V30 7 1 6 8
M  V30 8 1 8 9
M  V30 9 1 9 10
M  V30 10 2 9 11
M  V30 11 1 7 2
M  V30 12 1 11 5
M  V30 13 1 1 12
M  V30 14 1 1 13
M  V30 15 1 2 14 CFG=3
M  V30 16 1 3 15
M  V30 17 1 3 16
M  V30 18 1 4 17
M  V30 19 1 4 18
M  V30 20 1 7 19
M  V30 21 1 7 20
M  V30 22 1 10 21
M  V30 23 1 10 22
M  V30 END BOND
M  V30 END CTAB
M  END
