
     RDKit          3D

  0  0  0  0  0  0  0  0  0  0999 V3000
M  V30 BEGIN CTAB
M  V30 COUNTS 56 61 0 0 0
M  V30 BEGIN ATOM
M  V30 1 N 5.07567 -3.51528 -1.26694 0
M  V30 2 C 4.07613 -3.03345 -0.911196 0
M  V30 3 C 2.81665 -2.45726 -0.455793 0
M  V30 4 C 2.0377 -3.17905 0.314634 0
M  V30 5 N 2.4641 -4.50164 0.679282 0
M  V30 6 O 0.840301 -2.65806 0.744996 0
M  V30 7 C 0.460637 -1.38231 0.361834 0
M  V30 8 C 1.22592 -0.579335 -0.442316 0
M  V30 9 C 2.53977 -1.03886 -0.873689 0
M  V30 10 C 3.65193 -0.276641 -0.203548 0
M  V30 11 C 3.52211 0.247906 1.05237 0
M  V30 12 C 4.62127 0.900384 1.5877 0
M  V30 13 C 5.81431 1.0347 0.910392 0
M  V30 14 C 5.93775 0.498359 -0.366517 0
M  V30 15 C 4.8359 -0.150975 -0.893062 0
M  V30 16 F 6.87393 1.67798 1.45806 0
M  V30 17 C 0.723822 0.656595 -0.753449 0
M  V30 18 C 1.47771 1.51985 -1.55024 0
M  V30 19 C 1.00416 2.77535 -1.84902 0
M  V30 20 C -0.202512 3.22934 -1.38943 0
M  V30 21 C -0.961629 2.38034 -0.597189 0
M  V30 22 C -0.517038 1.1287 -0.28841 0
M  V30 23 C -1.27953 0.269088 0.534057 0
M  V30 24 C -0.791272 -0.974599 0.861628 0
M  V30 25 O -1.49531 -1.8363 1.68658 0
M  V30 26 C -2.73653 -1.43056 2.18125 0
M  V30 27 C -3.28318 -0.291779 1.87914 0
M  V30 28 C -2.63755 0.63189 0.968684 0
M  V30 29 C -3.55242 0.922736 -0.183213 0
M  V30 30 C -4.59036 1.79371 0.0456033 0
M  V30 31 C -5.50658 2.09536 -0.956146 0
M  V30 32 C -5.35405 1.50405 -2.18517 0
M  V30 33 C -4.2992 0.629253 -2.39259 0
M  V30 34 C -3.39412 0.331151 -1.40255 0
M  V30 35 F -6.25526 1.80785 -3.15223 0
M  V30 36 C -4.54851 0.0174353 2.48671 0
M  V30 37 N -5.5833 0.261273 3.0052 0
M  V30 38 N -3.45729 -2.3153 3.07516 0
M  V30 39 H 2.88779 -4.69331 1.61367 0
M  V30 40 H 2.35603 -5.28684 0.0158856 0
M  V30 41 H 2.63471 -1.01432 -1.97111 0
M  V30 42 H 2.59425 0.137685 1.5665 0
M  V30 43 H 4.56179 1.33023 2.57869 0
M  V30 44 H 6.83305 0.568472 -0.9421 0
M  V30 45 H 4.92905 -0.560539 -1.88149 0
M  V30 46 H 2.41789 1.24023 -1.9651 0
M  V30 47 H 1.57816 3.46587 -2.47079 0
M  V30 48 H -0.614604 4.19195 -1.59068 0
M  V30 49 H -1.87943 2.75044 -0.187629 0
M  V30 50 H -2.57403 1.5802 1.47801 0
M  V30 51 H -4.76723 2.30422 0.98179 0
M  V30 52 H -6.31476 2.77514 -0.772538 0
M  V30 53 H -4.17858 0.165346 -3.35556 0
M  V30 54 H -2.57769 -0.333486 -1.53099 0
M  V30 55 H -3.59535 -2.14324 4.07358 0
M  V30 56 H -3.84514 -3.16996 2.63926 0
M  V30 END ATOM
M  V30 BEGIN BOND
M  V30 1 3 1 2
M  V30 2 1 2 3
M  V30 3 2 3 4
M  V30 4 1 4 5
M  V30 5 1 4 6
M  V30 6 1 6 7
M  V30 7 2 7 8
M  V30 8 1 8 9
M  V30 9 1 9 10
M  V30 10 2 10 11
M  V30 11 1 11 12
M  V30 12 2 12 13
M  V30 13 1 13 14
M  V30 14 2 14 15
M  V30 15 1 13 16
M  V30 16 1 8 17
M  V30 17 2 17 18
M  V30 18 1 18 19
M  V30 19 2 19 20
M  V30 20 1 20 21
M  V30 21 2 21 22
M  V30 22 1 22 23
M  V30 23 2 23 24
M  V30 24 1 24 25
M  V30 25 1 25 26
M  V30 26 2 26 27
M  V30 27 1 27 28
M  V30 28 1 28 29
M  V30 29 2 29 30
M  V30 30 1 30 31
M  V30 31 2 31 32
M  V30 32 1 32 33
M  V30 33 2 33 34
M  V30 34 1 32 35
M  V30 35 1 27 36
M  V30 36 3 36 37
M  V30 37 1 26 38
M  V30 38 1 9 3
M  V30 39 1 15 10
M  V30 40 1 22 17
M  V30 41 1 28 23
M  V30 42 1 34 29
M  V30 43 1 24 7
M  V30 44 1 5 39
M  V30 45 1 5 40
M  V30 46 1 9 41
M  V30 47 1 11 42
M  V30 48 1 12 43
M  V30 49 1 14 44
M  V30 50 1 15 45
M  V30 51 1 18 46
M  V30 52 1 19 47
M  V30 53 1 20 48
M  V30 54 1 21 49
M  V30 55 1 28 50
M  V30 56 1 30 51
M  V30 57 1 31 52
M  V30 58 1 33 53
M  V30 59 1 34 54
M  V30 60 1 38 55
M  V30 61 1 38 56
M  V30 END BOND
M  V30 END CTAB
M  END
