
     RDKit          3D

  0  0  0  0  0  0  0  0  0  0999 V3000
M  V30 BEGIN CTAB
M  V30 COUNTS 32 31 0 0 0
M  V30 BEGIN ATOM
M  V30 1 N -2.84485 3.48348 0.757583 0
M  V30 2 N -2.84419 2.13175 0.416183 0
M  V30 3 C -1.77033 1.5177 -0.00169934 0
M  V30 4 S -0.290012 2.45843 -0.126605 0
M  V30 5 S 1.30707 1.28522 -0.806108 0
M  V30 6 C 2.20236 0.546257 0.516118 0
M  V30 7 N 1.96542 0.769978 1.73219 0
M  V30 8 N 0.971615 1.62586 2.15873 0
M  V30 9 C 3.3158 -0.378484 0.180861 0
M  V30 10 F 3.93157 -0.878744 1.33306 0
M  V30 11 F 4.26577 0.318911 -0.535538 0
M  V30 12 C 2.83522 -1.58625 -0.589366 0
M  V30 13 F 2.24886 -1.14959 -1.76128 0
M  V30 14 F 1.95358 -2.34924 0.106244 0
M  V30 15 C 4.02424 -2.44419 -1.0191 0
M  V30 16 F 3.54163 -3.52218 -1.71065 0
M  V30 17 F 4.79264 -2.79898 0.0715774 0
M  V30 18 F 4.81283 -1.66543 -1.87526 0
M  V30 19 C -1.91059 0.0947019 -0.3263 0
M  V30 20 F -1.54819 -0.0485293 -1.67364 0
M  V30 21 F -1.07577 -0.717043 0.397524 0
M  V30 22 C -3.34592 -0.380311 -0.245541 0
M  V30 23 F -4.08375 0.37059 -1.16008 0
M  V30 24 F -3.90216 -0.141179 0.993878 0
M  V30 25 C -3.48121 -1.82169 -0.669967 0
M  V30 26 F -2.7343 -2.67181 0.118694 0
M  V30 27 F -3.07691 -1.8986 -1.99801 0
M  V30 28 F -4.82572 -2.1402 -0.652032 0
M  V30 29 H -2.27844 4.1319 0.172644 0
M  V30 30 H -3.37025 3.89626 1.55564 0
M  V30 31 H 0.0488082 1.31079 2.51691 0
M  V30 32 H 1.16516 2.65063 2.12333 0
M  V30 END ATOM
M  V30 BEGIN BOND
M  V30 1 1 1 2
M  V30 2 2 2 3 CFG=2
M  V30 3 1 3 4
M  V30 4 1 4 5
M  V30 5 1 5 6
M  V30 6 2 6 7 CFG=2
M  V30 7 1 7 8
M  V30 8 1 6 9
M  V30 9 1 9 10
M  V30 10 1 9 11
M  V30 11 1 9 12
M  V30 12 1 12 13
M  V30 13 1 12 14
M  V30 14 1 12 15
M  V30 15 1 15 16
M  V30 16 1 15 17
M  V30 17 1 15 18
M  V30 18 1 3 19
M  V30 19 1 19 20
M  V30 20 1 19 21
M  V30 21 1 19 22
M  V30 22 1 22 23
M  V30 23 1 22 24
M  V30 24 1 22 25
M  V30 25 1 25 26
M  V30 26 1 25 27
M  V30 27 1 25 28
M  V30 28 1 1 29
M  V30 29 1 1 30
M  V30 30 1 8 31
M  V30 31 1 8 32
M  V30 END BOND
M  V30 END CTAB
M  END
