
     RDKit          3D

  0  0  0  0  0  0  0  0  0  0999 V3000
M  V30 BEGIN CTAB
M  V30 COUNTS 35 36 0 0 0
M  V30 BEGIN ATOM
M  V30 1 C -5.00857 1.21079 0.902709 0
M  V30 2 O -3.71756 1.31475 1.44167 0
M  V30 3 C -2.5725 0.711576 0.99421 0
M  V30 4 C -2.61074 -0.105316 -0.101452 0
M  V30 5 C -1.45064 -0.732106 -0.572187 0
M  V30 6 O -1.43515 -1.56695 -1.67395 0
M  V30 7 C -2.47993 -1.9355 -2.48736 0
M  V30 8 C -0.260414 -0.488851 0.119833 0
M  V30 9 C 0.950444 -1.18901 -0.402468 0
M  V30 10 C 2.21486 -0.573262 0.0229068 0
M  V30 11 C 2.96762 -1.13158 1.04857 0
M  V30 12 N 4.11578 -0.556838 1.42762 0
M  V30 13 C 4.62284 0.576248 0.862621 0
M  V30 14 N 5.85665 1.12784 1.3091 0
M  V30 15 N 3.88129 1.09275 -0.121066 0
M  V30 16 C 2.7175 0.570845 -0.554741 0
M  V30 17 N 2.01086 1.21575 -1.6332 0
M  V30 18 C -0.249132 0.323437 1.2001 0
M  V30 19 C -1.39755 0.945483 1.66884 0
M  V30 20 H -5.14569 0.326808 0.27772 0
M  V30 21 H -5.77591 1.12493 1.73131 0
M  V30 22 H -5.30193 2.15664 0.370713 0
M  V30 23 H -3.52791 -0.305765 -0.660566 0
M  V30 24 H -3.44548 -1.46667 -2.23278 0
M  V30 25 H -2.58357 -3.05416 -2.47534 0
M  V30 26 H -2.30748 -1.65771 -3.57339 0
M  V30 27 H 0.903932 -1.20958 -1.51408 0
M  V30 28 H 0.910289 -2.25053 -0.0111558 0
M  V30 29 H 2.60685 -2.04867 1.54254 0
M  V30 30 H 6.72756 0.531086 1.40204 0
M  V30 31 H 5.8708 2.14189 1.53886 0
M  V30 32 H 1.76585 0.615424 -2.47542 0
M  V30 33 H 1.73509 2.21556 -1.63813 0
M  V30 34 H 0.705757 0.492345 1.72392 0
M  V30 35 H -1.29384 1.57836 2.542 0
M  V30 END ATOM
M  V30 BEGIN BOND
M  V30 1 1 1 2
M  V30 2 1 2 3
M  V30 3 2 3 4
M  V30 4 1 4 5
M  V30 5 1 5 6
M  V30 6 1 6 7
M  V30 7 2 5 8
M  V30 8 1 8 9
M  V30 9 1 9 10
M  V30 10 2 10 11
M  V30 11 1 11 12
M  V30 12 2 12 13
M  V30 13 1 13 14
M  V30 14 1 13 15
M  V30 15 2 15 16
M  V30 16 1 16 17
M  V30 17 1 8 18
M  V30 18 2 18 19
M  V30 19 1 19 3
M  V30 20 1 16 10
M  V30 21 1 1 20
M  V30 22 1 1 21
M  V30 23 1 1 22
M  V30 24 1 4 23
M  V30 25 1 7 24
M  V30 26 1 7 25
M  V30 27 1 7 26
M  V30 28 1 9 27
M  V30 29 1 9 28
M  V30 30 1 11 29
M  V30 31 1 14 30
M  V30 32 1 14 31
M  V30 33 1 17 32
M  V30 34 1 17 33
M  V30 35 1 18 34
M  V30 36 1 19 35
M  V30 END BOND
M  V30 END CTAB
M  END
