
     RDKit          3D

  0  0  0  0  0  0  0  0  0  0999 V3000
M  V30 BEGIN CTAB
M  V30 COUNTS 52 55 0 0 0
M  V30 BEGIN ATOM
M  V30 1 N -7.05351 2.51095 -0.748514 0
M  V30 2 C -6.69454 1.1974 -0.337674 0 CFG=2
M  V30 3 C -5.64645 1.14207 0.750761 0
M  V30 4 C -4.60365 0.994792 -0.330276 0 CFG=2
M  V30 5 C -5.68716 0.514935 -1.27143 0
M  V30 6 C -3.65158 -0.124506 -0.00924214 0
M  V30 7 C -2.28688 0.0506789 -0.0731359 0
M  V30 8 C -1.40596 -0.942494 0.21138 0
M  V30 9 N -1.95387 -2.13995 0.568898 0
M  V30 10 C -3.27311 -2.32639 0.635692 0
M  V30 11 N -4.11429 -1.33482 0.35131 0
M  V30 12 N -3.72676 -3.63043 1.02376 0
M  V30 13 N -0.00148156 -0.810596 0.16035 0
M  V30 14 C 0.683033 0.391612 -0.193928 0
M  V30 15 C 1.76346 0.672341 0.861462 0
M  V30 16 C 2.69243 -0.471731 0.99947 0
M  V30 17 C 2.26776 -1.62426 0.112207 0
M  V30 18 C 0.844931 -1.96629 0.486687 0
M  V30 19 C 4.14003 -0.155654 0.815112 0
M  V30 20 C 4.51103 0.406082 -0.506419 0
M  V30 21 N 5.94881 0.648866 -0.500315 0
M  V30 22 C 6.583 1.77787 -0.122314 0
M  V30 23 C 7.96486 1.6079 -0.264494 0
M  V30 24 C 8.10546 0.333322 -0.740706 0
M  V30 25 N 6.883 -0.210134 -0.869713 0
M  V30 26 H -6.57056 3.25848 -0.219281 0
M  V30 27 H -6.98346 2.5972 -1.76942 0
M  V30 28 H -7.57022 0.545416 -0.0916861 0
M  V30 29 H -5.52035 2.09986 1.3127 0
M  V30 30 H -5.70024 0.237637 1.39767 0
M  V30 31 H -4.08464 1.91166 -0.606649 0
M  V30 32 H -5.8087 -0.591671 -1.27925 0
M  V30 33 H -5.65162 0.985562 -2.27518 0
M  V30 34 H -1.927 1.01757 -0.361327 0
M  V30 35 H -3.50209 -4.0391 1.94619 0
M  V30 36 H -4.30277 -4.17382 0.340551 0
M  V30 37 H 0.0826287 1.29546 -0.251349 0
M  V30 38 H 1.19853 0.2955 -1.19427 0
M  V30 39 H 1.18488 0.906071 1.79681 0
M  V30 40 H 2.23221 1.62459 0.55812 0
M  V30 41 H 2.58915 -0.862321 2.05635 0
M  V30 42 H 2.91819 -2.49606 0.345823 0
M  V30 43 H 2.37515 -1.38558 -0.964295 0
M  V30 44 H 0.809535 -2.05983 1.59172 0
M  V30 45 H 0.48091 -2.881 -0.00389255 0
M  V30 46 H 4.54205 0.496049 1.61547 0
M  V30 47 H 4.69695 -1.12984 0.930917 0
M  V30 48 H 4.03091 1.35209 -0.763626 0
M  V30 49 H 4.32314 -0.332055 -1.33985 0
M  V30 50 H 6.10699 2.68249 0.237396 0
M  V30 51 H 8.73884 2.31737 -0.0486542 0
M  V30 52 H 9.02305 -0.183268 -0.983413 0
M  V30 END ATOM
M  V30 BEGIN BOND
M  V30 1 1 1 2
M  V30 2 1 2 3
M  V30 3 1 3 4
M  V30 4 1 4 5
M  V30 5 1 4 6
M  V30 6 2 6 7
M  V30 7 1 7 8
M  V30 8 2 8 9
M  V30 9 1 9 10
M  V30 10 2 10 11
M  V30 11 1 10 12
M  V30 12 1 8 13
M  V30 13 1 13 14
M  V30 14 1 14 15
M  V30 15 1 15 16
M  V30 16 1 16 17
M  V30 17 1 17 18
M  V30 18 1 16 19
M  V30 19 1 19 20
M  V30 20 1 20 21
M  V30 21 1 21 22
M  V30 22 2 22 23
M  V30 23 1 23 24
M  V30 24 2 24 25
M  V30 25 1 5 2
M  V30 26 1 11 6
M  V30 27 1 18 13
M  V30 28 1 25 21
M  V30 29 1 1 26
M  V30 30 1 1 27
M  V30 31 1 2 28 CFG=1
M  V30 32 1 3 29
M  V30 33 1 3 30
M  V30 34 1 4 31 CFG=3
M  V30 35 1 5 32
M  V30 36 1 5 33
M  V30 37 1 7 34
M  V30 38 1 12 35
M  V30 39 1 12 36
M  V30 40 1 14 37
M  V30 41 1 14 38
M  V30 42 1 15 39
M  V30 43 1 15 40
M  V30 44 1 16 41
M  V30 45 1 17 42
M  V30 46 1 17 43
M  V30 47 1 18 44
M  V30 48 1 18 45
M  V30 49 1 19 46
M  V30 50 1 19 47
M  V30 51 1 20 48
M  V30 52 1 20 49
M  V30 53 1 22 50
M  V30 54 1 23 51
M  V30 55 1 24 52
M  V30 END BOND
M  V30 END CTAB
M  END
