
     RDKit          3D

  0  0  0  0  0  0  0  0  0  0999 V3000
M  V30 BEGIN CTAB
M  V30 COUNTS 42 44 0 0 0
M  V30 BEGIN ATOM
M  V30 1 C 6.53339 1.15364 1.36282 0
M  V30 2 C 5.29971 1.28557 0.532745 0
M  V30 3 O 4.53922 2.34626 0.397787 0
M  V30 4 N 3.54429 2.10911 -0.403817 0
M  V30 5 C 3.59699 0.847225 -0.851609 0
M  V30 6 C 4.72473 0.305387 -0.25485 0
M  V30 7 C 2.6467 0.181072 -1.78636 0
M  V30 8 N 1.624 -0.451459 -1.02627 0
M  V30 9 C 0.839098 0.385062 -0.204567 0
M  V30 10 C -0.635794 0.200073 -0.261982 0
M  V30 11 N -1.09999 -1.13192 -0.453229 0
M  V30 12 C -0.0451426 -2.08338 -0.616981 0
M  V30 13 C 0.9883 -1.57581 -1.61324 0
M  V30 14 C -2.00375 -1.57445 0.56112 0
M  V30 15 C -3.23472 -0.733511 0.644739 0
M  V30 16 N -4.14926 -1.05028 1.57187 0
M  V30 17 C -5.29697 -0.359422 1.73486 0
M  V30 18 N -6.27319 -0.678352 2.70697 0
M  V30 19 N -5.5106 0.701916 0.907767 0
M  V30 20 C -4.60454 1.03268 -0.0263313 0
M  V30 21 N -3.47879 0.308773 -0.143673 0
M  V30 22 N -4.83339 2.14606 -0.890752 0
M  V30 23 H 6.32193 1.19625 2.44176 0
M  V30 24 H 7.25537 1.9731 1.08653 0
M  V30 25 H 7.02662 0.188176 1.09515 0
M  V30 26 H 5.04804 -0.702822 -0.411836 0
M  V30 27 H 3.22999 -0.496011 -2.40928 0
M  V30 28 H 2.26093 0.985139 -2.4536 0
M  V30 29 H 1.03791 1.46913 -0.430355 0
M  V30 30 H 1.17546 0.24091 0.860537 0
M  V30 31 H -1.05109 0.87285 -1.03755 0
M  V30 32 H -1.05099 0.560574 0.724814 0
M  V30 33 H 0.494784 -2.21246 0.342405 0
M  V30 34 H -0.461116 -3.04207 -0.987681 0
M  V30 35 H 1.75512 -2.40237 -1.68078 0
M  V30 36 H 0.580281 -1.43382 -2.61345 0
M  V30 37 H -1.46037 -1.48306 1.54634 0
M  V30 38 H -2.23808 -2.64493 0.458974 0
M  V30 39 H -6.20872 -0.241495 3.64702 0
M  V30 40 H -7.0444 -1.3312 2.50653 0
M  V30 41 H -5.14144 2.00087 -1.88121 0
M  V30 42 H -4.70053 3.13901 -0.561594 0
M  V30 END ATOM
M  V30 BEGIN BOND
M  V30 1 1 1 2
M  V30 2 1 2 3
M  V30 3 1 3 4
M  V30 4 2 4 5
M  V30 5 1 5 6
M  V30 6 1 5 7
M  V30 7 1 7 8
M  V30 8 1 8 9
M  V30 9 1 9 10
M  V30 10 1 10 11
M  V30 11 1 11 12
M  V30 12 1 12 13
M  V30 13 1 11 14
M  V30 14 1 14 15
M  V30 15 2 15 16
M  V30 16 1 16 17
M  V30 17 1 17 18
M  V30 18 2 17 19
M  V30 19 1 19 20
M  V30 20 2 20 21
M  V30 21 1 20 22
M  V30 22 2 6 2
M  V30 23 1 13 8
M  V30 24 1 21 15
M  V30 25 1 1 23
M  V30 26 1 1 24
M  V30 27 1 1 25
M  V30 28 1 6 26
M  V30 29 1 7 27
M  V30 30 1 7 28
M  V30 31 1 9 29
M  V30 32 1 9 30
M  V30 33 1 10 31
M  V30 34 1 10 32
M  V30 35 1 12 33
M  V30 36 1 12 34
M  V30 37 1 13 35
M  V30 38 1 13 36
M  V30 39 1 14 37
M  V30 40 1 14 38
M  V30 41 1 18 39
M  V30 42 1 18 40
M  V30 43 1 22 41
M  V30 44 1 22 42
M  V30 END BOND
M  V30 END CTAB
M  END
