
     RDKit          3D

  0  0  0  0  0  0  0  0  0  0999 V3000
M  V30 BEGIN CTAB
M  V30 COUNTS 83 87 0 0 0
M  V30 BEGIN ATOM
M  V30 1 C -2.52327 0.426469 -1.81823 0 CFG=2
M  V30 2 C -3.37282 -0.76305 -1.43309 0
M  V30 3 C -3.59475 -0.884546 0.0376442 0
M  V30 4 C -4.4272 -2.08513 0.352236 0
M  V30 5 O -4.78719 -2.84225 -0.576965 0
M  V30 6 N -4.78059 -2.32205 1.7138 0
M  V30 7 C -5.58341 -3.48551 2.05803 0
M  V30 8 C -7.00649 -3.35333 1.72413 0
M  V30 9 C -7.59034 -2.24552 1.15583 0
M  V30 10 C -8.9446 -2.17358 0.861662 0
M  V30 11 C -9.75422 -3.25416 1.14481 0
M  V30 12 Cl -11.4662 -3.14685 0.764822 0
M  V30 13 C -9.19867 -4.38145 1.71538 0
M  V30 14 C -7.85444 -4.4276 1.9988 0
M  V30 15 N -1.21552 0.363214 -1.22883 0
M  V30 16 C -0.097286 0.0211131 -1.99959 0
M  V30 17 O -0.252731 -0.228669 -3.22421 0
M  V30 18 C 1.21107 -0.0462924 -1.39614 0
M  V30 19 C 2.18391 -0.788042 -2.03745 0
M  V30 20 C 3.43501 -0.912891 -1.53035 0
M  V30 21 C 3.76341 -0.293032 -0.349874 0
M  V30 22 C 2.7887 0.447329 0.286464 0
M  V30 23 C 1.50269 0.589153 -0.212124 0
M  V30 24 N 5.08334 -0.434778 0.213196 0
M  V30 25 C 5.2644 -1.3796 1.2607 0
M  V30 26 C 6.12204 0.367274 -0.326365 0
M  V30 27 C 7.4697 0.196286 0.260079 0
M  V30 28 N 7.75232 -0.312248 1.46131 0
M  V30 29 C 9.00613 -0.448364 1.93632 0
M  V30 30 C 10.0975 -0.0591367 1.18861 0
M  V30 31 N 9.85279 0.458304 -0.0285009 0
M  V30 32 C 8.59698 0.585909 -0.485231 0
M  V30 33 N 11.3454 -0.20174 1.67497 0
M  V30 34 C 11.5996 -0.722187 2.89607 0
M  V30 35 N 12.9348 -0.855145 3.37312 0
M  V30 36 N 10.5327 -1.10339 3.62876 0
M  V30 37 C 9.26613 -0.980159 3.1835 0
M  V30 38 N 8.13433 -1.38043 3.94917 0
M  V30 39 C -3.1813 1.71276 -1.56021 0
M  V30 40 O -2.58682 2.61086 -0.940404 0
M  V30 41 N -4.49138 1.94993 -2.00591 0
M  V30 42 C -5.22836 3.18142 -1.80175 0
M  V30 43 C -4.73932 4.1836 -2.77068 0
M  V30 44 C -5.14364 4.09163 -4.07906 0
M  V30 45 C -4.70391 5.01179 -4.98039 0
M  V30 46 C -3.86271 6.02778 -4.59655 0
M  V30 47 Cl -3.28539 7.21394 -5.74595 0
M  V30 48 C -3.45023 6.12395 -3.27112 0
M  V30 49 C -3.90245 5.17908 -2.34727 0
M  V30 50 H -2.37939 0.289581 -2.93257 0
M  V30 51 H -4.33415 -0.760182 -1.95477 0
M  V30 52 H -2.81726 -1.66755 -1.77402 0
M  V30 53 H -3.94325 0.0206162 0.537211 0
M  V30 54 H -2.58232 -1.11047 0.487481 0
M  V30 55 H -4.46134 -1.65847 2.44305 0
M  V30 56 H -5.48181 -3.63945 3.16535 0
M  V30 57 H -5.0917 -4.36702 1.57931 0
M  V30 58 H -6.93568 -1.39519 0.936624 0
M  V30 59 H -9.31599 -1.26026 0.413219 0
M  V30 60 H -9.83433 -5.24893 1.94564 0
M  V30 61 H -7.465 -5.34248 2.44874 0
M  V30 62 H -1.11051 0.572284 -0.222637 0
M  V30 63 H 1.92516 -1.28351 -2.97673 0
M  V30 64 H 4.19335 -1.50265 -2.04895 0
M  V30 65 H 3.02105 0.954578 1.23576 0
M  V30 66 H 0.756803 1.17834 0.308843 0
M  V30 67 H 5.43749 -0.882086 2.26371 0
M  V30 68 H 4.31604 -1.96519 1.42218 0
M  V30 69 H 6.04825 -2.14596 1.04963 0
M  V30 70 H 5.77095 1.44413 -0.207248 0
M  V30 71 H 6.17258 0.272193 -1.45168 0
M  V30 72 H 8.40153 1.00306 -1.46808 0
M  V30 73 H 13.1626 -1.59095 4.07305 0
M  V30 74 H 13.7232 -0.247891 3.06194 0
M  V30 75 H 7.58945 -0.64373 4.43081 0
M  V30 76 H 7.84346 -2.37795 4.03542 0
M  V30 77 H -4.97663 1.16151 -2.53389 0
M  V30 78 H -5.07268 3.55396 -0.763037 0
M  V30 79 H -6.30177 2.96322 -1.95777 0
M  V30 80 H -5.81638 3.28729 -4.41902 0
M  V30 81 H -5.01056 4.96362 -6.0295 0
M  V30 82 H -2.78964 6.90508 -2.92808 0
M  V30 83 H -3.55909 5.28976 -1.30941 0
M  V30 END ATOM
M  V30 BEGIN BOND
M  V30 1 1 1 2
M  V30 2 1 2 3
M  V30 3 1 3 4
M  V30 4 2 4 5
M  V30 5 1 4 6
M  V30 6 1 6 7
M  V30 7 1 7 8
M  V30 8 2 8 9
M  V30 9 1 9 10
M  V30 10 2 10 11
M  V30 11 1 11 12
M  V30 12 1 11 13
M  V30 13 2 13 14
M  V30 14 1 1 15
M  V30 15 1 15 16
M  V30 16 2 16 17
M  V30 17 1 16 18
M  V30 18 2 18 19
M  V30 19 1 19 20
M  V30 20 2 20 21
M  V30 21 1 21 22
M  V30 22 2 22 23
M  V30 23 1 21 24
M  V30 24 1 24 25
M  V30 25 1 24 26
M  V30 26 1 26 27
M  V30 27 2 27 28
M  V30 28 1 28 29
M  V30 29 2 29 30
M  V30 30 1 30 31
M  V30 31 2 31 32
M  V30 32 1 30 33
M  V30 33 2 33 34
M  V30 34 1 34 35
M  V30 35 1 34 36
M  V30 36 2 36 37
M  V30 37 1 37 38
M  V30 38 1 1 39
M  V30 39 2 39 40
M  V30 40 1 39 41
M  V30 41 1 41 42
M  V30 42 1 42 43
M  V30 43 2 43 44
M  V30 44 1 44 45
M  V30 45 2 45 46
M  V30 46 1 46 47
M  V30 47 1 46 48
M  V30 48 2 48 49
M  V30 49 1 14 8
M  V30 50 1 23 18
M  V30 51 1 32 27
M  V30 52 1 49 43
M  V30 53 1 37 29
M  V30 54 1 1 50 CFG=3
M  V30 55 1 2 51
M  V30 56 1 2 52
M  V30 57 1 3 53
M  V30 58 1 3 54
M  V30 59 1 6 55
M  V30 60 1 7 56
M  V30 61 1 7 57
M  V30 62 1 9 58
M  V30 63 1 10 59
M  V30 64 1 13 60
M  V30 65 1 14 61
M  V30 66 1 15 62
M  V30 67 1 19 63
M  V30 68 1 20 64
M  V30 69 1 22 65
M  V30 70 1 23 66
M  V30 71 1 25 67
M  V30 72 1 25 68
M  V30 73 1 25 69
M  V30 74 1 26 70
M  V30 75 1 26 71
M  V30 76 1 32 72
M  V30 77 1 35 73
M  V30 78 1 35 74
M  V30 79 1 38 75
M  V30 80 1 38 76
M  V30 81 1 41 77
M  V30 82 1 42 78
M  V30 83 1 42 79
M  V30 84 1 44 80
M  V30 85 1 45 81
M  V30 86 1 48 82
M  V30 87 1 49 83
M  V30 END BOND
M  V30 END CTAB
M  END
