
     RDKit          3D

  0  0  0  0  0  0  0  0  0  0999 V3000
M  V30 BEGIN CTAB
M  V30 COUNTS 13 12 0 0 0
M  V30 BEGIN ATOM
M  V30 1 N -2.30209 -0.0238537 -0.0436584 0
M  V30 2 N -1.11344 -0.138909 -0.765231 0
M  V30 3 C 0.0866881 0.279309 -0.148121 0
M  V30 4 N 0.232373 1.51864 0.168821 0
M  V30 5 N 1.15476 -0.618707 0.142469 0
M  V30 6 N 2.43066 -0.146493 0.433689 0
M  V30 7 H -2.76444 -0.951232 0.0771746 0
M  V30 8 H -2.96729 0.655649 -0.444601 0
M  V30 9 H -1.09046 -0.5201 -1.73341 0
M  V30 10 H -0.501835 2.21597 -0.014611 0
M  V30 11 H 0.917334 -1.63681 0.121931 0
M  V30 12 H 2.87461 0.326552 -0.38561 0
M  V30 13 H 3.04312 -0.960012 0.671375 0
M  V30 END ATOM
M  V30 BEGIN BOND
M  V30 1 1 1 2
M  V30 2 1 2 3
M  V30 3 2 3 4 CFG=2
M  V30 4 1 3 5
M  V30 5 1 5 6
M  V30 6 1 1 7
M  V30 7 1 1 8
M  V30 8 1 2 9
M  V30 9 1 4 10
M  V30 10 1 5 11
M  V30 11 1 6 12
M  V30 12 1 6 13
M  V30 END BOND
M  V30 END CTAB
M  END
