
     RDKit          3D

  0  0  0  0  0  0  0  0  0  0999 V3000
M  V30 BEGIN CTAB
M  V30 COUNTS 19 19 0 0 0
M  V30 BEGIN ATOM
M  V30 1 C -3.14035 -0.852336 0.0362762 0
M  V30 2 C -1.75669 -0.306759 0.014343 0
M  V30 3 N -0.650781 -1.01165 -0.26801 0
M  V30 4 N 0.425718 -0.244364 -0.205498 0
M  V30 5 C 1.7456 -0.714301 -0.456286 0
M  V30 6 N 2.76575 -0.691349 0.531395 0
M  V30 7 N 2.04057 -1.18826 -1.64115 0
M  V30 8 C 0.0155861 0.99369 0.125903 0
M  V30 9 N 0.840087 2.11451 0.297534 0
M  V30 10 C -1.36712 0.983403 0.271974 0
M  V30 11 H -3.85117 -0.119823 0.445121 0
M  V30 12 H -3.41972 -1.20461 -0.984774 0
M  V30 13 H -3.20982 -1.7542 0.692556 0
M  V30 14 H 3.46994 0.0646066 0.486273 0
M  V30 15 H 2.81496 -1.40831 1.28429 0
M  V30 16 H 2.99134 -1.53753 -1.8547 0
M  V30 17 H 1.10106 2.46967 1.24333 0
M  V30 18 H 1.20125 2.60505 -0.550372 0
M  V30 19 H -2.01622 1.80256 0.531796 0
M  V30 END ATOM
M  V30 BEGIN BOND
M  V30 1 1 1 2
M  V30 2 2 2 3
M  V30 3 1 3 4
M  V30 4 1 4 5
M  V30 5 1 5 6
M  V30 6 2 5 7 CFG=2
M  V30 7 1 4 8
M  V30 8 1 8 9
M  V30 9 2 8 10
M  V30 10 1 10 2
M  V30 11 1 1 11
M  V30 12 1 1 12
M  V30 13 1 1 13
M  V30 14 1 6 14
M  V30 15 1 6 15
M  V30 16 1 7 16
M  V30 17 1 9 17
M  V30 18 1 9 18
M  V30 19 1 10 19
M  V30 END BOND
M  V30 END CTAB
M  END
