
     RDKit          3D

  0  0  0  0  0  0  0  0  0  0999 V3000
M  V30 BEGIN CTAB
M  V30 COUNTS 44 46 0 0 0
M  V30 BEGIN ATOM
M  V30 1 C 7.03837 0.00958771 1.41599 0
M  V30 2 C 6.8775 0.100791 -0.0741296 0
M  V30 3 C 5.49473 -0.227949 -0.534526 0
M  V30 4 N 4.51716 0.669458 0.0405648 0
M  V30 5 C 3.13248 0.546944 -0.25572 0
M  V30 6 N 2.24675 1.38077 0.281858 0
M  V30 7 C 0.915447 1.26325 -0.00306369 0
M  V30 8 C 0.460794 0.280389 -0.851996 0
M  V30 9 C 1.38734 -0.568442 -1.39517 0
M  V30 10 N 2.71531 -0.427625 -1.0924 0
M  V30 11 C -0.964345 0.182218 -1.11769 0
M  V30 12 C -1.86856 0.142168 -0.0411859 0
M  V30 13 C -3.1762 0.0385261 -0.256021 0
M  V30 14 N -3.62352 -0.0282524 -1.5472 0
M  V30 15 C -2.80219 0.00695387 -2.58135 0
M  V30 16 C -1.43567 0.114336 -2.40123 0
M  V30 17 C -0.548874 0.167024 -3.53353 0
M  V30 18 N 0.148984 0.223374 -4.45712 0
M  V30 19 N -3.29933 -0.0650048 -3.92171 0
M  V30 20 C -4.21927 -0.0156938 0.785734 0
M  V30 21 S -5.92531 -0.136996 0.454289 0
M  V30 22 C -6.50751 -0.153192 2.05741 0
M  V30 23 N -5.38804 -0.0668047 2.7412 0
M  V30 24 C -4.23058 0.00328879 2.13817 0
M  V30 25 C -2.95048 0.100343 2.96306 0
M  V30 26 N -7.84182 -0.23691 2.55516 0
M  V30 27 H 6.55598 -0.954799 1.73036 0
M  V30 28 H 8.12293 -0.105378 1.62301 0
M  V30 29 H 6.57395 0.844722 1.95349 0
M  V30 30 H 7.12635 1.11431 -0.43759 0
M  V30 31 H 7.58689 -0.626449 -0.528711 0
M  V30 32 H 5.22578 -1.28749 -0.383413 0
M  V30 33 H 5.467 -0.0524127 -1.64249 0
M  V30 34 H 4.84484 1.41125 0.678836 0
M  V30 35 H 0.265004 1.97496 0.470954 0
M  V30 36 H 1.0647 -1.35647 -2.05872 0
M  V30 37 H -1.43144 0.201702 0.940573 0
M  V30 38 H -3.22691 -0.922193 -4.51043 0
M  V30 39 H -3.76012 0.766069 -4.35293 0
M  V30 40 H -2.44151 1.05387 2.81982 0
M  V30 41 H -2.31296 -0.788675 2.81563 0
M  V30 42 H -3.2023 0.0719178 4.05609 0
M  V30 43 H -8.2641 -1.16225 2.67614 0
M  V30 44 H -8.34723 0.62462 2.78 0
M  V30 END ATOM
M  V30 BEGIN BOND
M  V30 1 1 1 2
M  V30 2 1 2 3
M  V30 3 1 3 4
M  V30 4 1 4 5
M  V30 5 2 5 6
M  V30 6 1 6 7
M  V30 7 2 7 8
M  V30 8 1 8 9
M  V30 9 2 9 10
M  V30 10 1 8 11
M  V30 11 2 11 12
M  V30 12 1 12 13
M  V30 13 2 13 14
M  V30 14 1 14 15
M  V30 15 2 15 16
M  V30 16 1 16 17
M  V30 17 3 17 18
M  V30 18 1 15 19
M  V30 19 1 13 20
M  V30 20 1 20 21
M  V30 21 1 21 22
M  V30 22 2 22 23
M  V30 23 1 23 24
M  V30 24 1 24 25
M  V30 25 1 22 26
M  V30 26 1 10 5
M  V30 27 1 16 11
M  V30 28 2 24 20
M  V30 29 1 1 27
M  V30 30 1 1 28
M  V30 31 1 1 29
M  V30 32 1 2 30
M  V30 33 1 2 31
M  V30 34 1 3 32
M  V30 35 1 3 33
M  V30 36 1 4 34
M  V30 37 1 7 35
M  V30 38 1 9 36
M  V30 39 1 12 37
M  V30 40 1 19 38
M  V30 41 1 19 39
M  V30 42 1 25 40
M  V30 43 1 25 41
M  V30 44 1 25 42
M  V30 45 1 26 43
M  V30 46 1 26 44
M  V30 END BOND
M  V30 END CTAB
M  END
