
     RDKit          3D

  0  0  0  0  0  0  0  0  0  0999 V3000
M  V30 BEGIN CTAB
M  V30 COUNTS 19 19 0 0 0
M  V30 BEGIN ATOM
M  V30 1 Br -2.38835 2.13027 -0.525962 0
M  V30 2 C -0.905156 0.937797 -0.288603 0
M  V30 3 C 0.386774 1.42541 -0.262049 0
M  V30 4 N 0.601191 2.81348 -0.411973 0
M  V30 5 C 1.45498 0.549182 -0.0890306 0
M  V30 6 Br 3.25085 1.22806 -0.0522148 0
M  V30 7 C 1.26197 -0.811414 0.0590504 0
M  V30 8 C -0.0387415 -1.29664 0.0316427 0
M  V30 9 C -1.08346 -0.418479 -0.140074 0
M  V30 10 C -2.46993 -0.946425 -0.168047 0
M  V30 11 F -3.03268 -0.617348 -1.40827 0
M  V30 12 F -3.24763 -0.315616 0.793874 0
M  V30 13 F -2.49366 -2.31652 -0.0188963 0
M  V30 14 Br -0.4402 -3.14737 0.224022 0
M  V30 15 N 2.32755 -1.72106 0.235842 0
M  V30 16 H 0.930996 3.17937 -1.32134 0
M  V30 17 H 0.436005 3.47257 0.366662 0
M  V30 18 H 2.35828 -2.59452 -0.330214 0
M  V30 19 H 3.0912 -1.55076 0.916836 0
M  V30 END ATOM
M  V30 BEGIN BOND
M  V30 1 1 1 2
M  V30 2 2 2 3
M  V30 3 1 3 4
M  V30 4 1 3 5
M  V30 5 1 5 6
M  V30 6 2 5 7
M  V30 7 1 7 8
M  V30 8 2 8 9
M  V30 9 1 9 10
M  V30 10 1 10 11
M  V30 11 1 10 12
M  V30 12 1 10 13
M  V30 13 1 8 14
M  V30 14 1 7 15
M  V30 15 1 9 2
M  V30 16 1 4 16
M  V30 17 1 4 17
M  V30 18 1 15 18
M  V30 19 1 15 19
M  V30 END BOND
M  V30 END CTAB
M  END
