
     RDKit          3D

  0  0  0  0  0  0  0  0  0  0999 V3000
M  V30 BEGIN CTAB
M  V30 COUNTS 41 44 0 0 0
M  V30 BEGIN ATOM
M  V30 1 N 5.82272 1.27641 0.102163 0
M  V30 2 C 5.65061 -0.121638 0.279019 0
M  V30 3 N 6.80943 -0.942593 0.242732 0
M  V30 4 N 4.4745 -0.600712 0.463883 0
M  V30 5 C 3.30317 0.187521 0.505258 0
M  V30 6 O 3.40055 1.39898 0.799731 0
M  V30 7 C 1.98298 -0.349606 0.219309 0
M  V30 8 C 0.842533 0.437188 0.263825 0
M  V30 9 C -0.416817 -0.0463293 -0.00213001 0
M  V30 10 C -0.518025 -1.38616 -0.326648 0
M  V30 11 C 0.614245 -2.17438 -0.372493 0
M  V30 12 C 1.87519 -1.68877 -0.105855 0
M  V30 13 C -1.94738 -1.64834 -0.56171 0
M  V30 14 C -2.67618 -0.517573 -0.386934 0
M  V30 15 C -4.0533 -0.521213 -0.555382 0
M  V30 16 C -4.67328 -1.71098 -0.908052 0
M  V30 17 C -3.97031 -2.88177 -1.0953 0
M  V30 18 C -2.59601 -2.81401 -0.912255 0
M  V30 19 C -1.75548 0.599508 -0.0146255 0
M  V30 20 C -2.08288 0.994472 1.39317 0
M  V30 21 O -3.06896 1.96763 1.48223 0
M  V30 22 C -2.53766 3.09024 0.806469 0
M  V30 23 C -2.42584 2.74119 -0.625186 0
M  V30 24 O -1.85047 1.56875 -0.944555 0
M  V30 25 H 6.25952 1.9088 0.786241 0
M  V30 26 H 5.4723 1.67597 -0.799038 0
M  V30 27 H 6.86128 -1.78363 -0.381011 0
M  V30 28 H 7.63558 -0.722615 0.839723 0
M  V30 29 H 0.948337 1.48796 0.521551 0
M  V30 30 H 0.535367 -3.22282 -0.626396 0
M  V30 31 H 2.763 -2.32337 -0.145657 0
M  V30 32 H -4.66891 0.353288 -0.426552 0
M  V30 33 H -5.7541 -1.77978 -1.05562 0
M  V30 34 H -4.46558 -3.8193 -1.37403 0
M  V30 35 H -1.98924 -3.70494 -1.04599 0
M  V30 36 H -1.20236 1.36309 1.96266 0
M  V30 37 H -2.47398 0.102462 1.95774 0
M  V30 38 H -3.21901 3.95688 0.930453 0
M  V30 39 H -1.55214 3.31157 1.27603 0
M  V30 40 H -1.8895 3.57603 -1.16326 0
M  V30 41 H -3.4639 2.7626 -1.06727 0
M  V30 END ATOM
M  V30 BEGIN BOND
M  V30 1 1 1 2
M  V30 2 1 2 3
M  V30 3 2 2 4
M  V30 4 1 4 5
M  V30 5 2 5 6
M  V30 6 1 5 7
M  V30 7 2 7 8
M  V30 8 1 8 9
M  V30 9 2 9 10
M  V30 10 1 10 11
M  V30 11 2 11 12
M  V30 12 1 10 13
M  V30 13 2 13 14
M  V30 14 1 14 15
M  V30 15 2 15 16
M  V30 16 1 16 17
M  V30 17 2 17 18
M  V30 18 1 14 19
M  V30 19 1 19 20
M  V30 20 1 20 21
M  V30 21 1 21 22
M  V30 22 1 22 23
M  V30 23 1 23 24
M  V30 24 1 12 7
M  V30 25 1 18 13
M  V30 26 1 24 19
M  V30 27 1 19 9
M  V30 28 1 1 25
M  V30 29 1 1 26
M  V30 30 1 3 27
M  V30 31 1 3 28
M  V30 32 1 8 29
M  V30 33 1 11 30
M  V30 34 1 12 31
M  V30 35 1 15 32
M  V30 36 1 16 33
M  V30 37 1 17 34
M  V30 38 1 18 35
M  V30 39 1 20 36
M  V30 40 1 20 37
M  V30 41 1 22 38
M  V30 42 1 22 39
M  V30 43 1 23 40
M  V30 44 1 23 41
M  V30 END BOND
M  V30 END CTAB
M  END
