
     RDKit          3D

  0  0  0  0  0  0  0  0  0  0999 V3000
M  V30 BEGIN CTAB
M  V30 COUNTS 25 25 0 0 0
M  V30 BEGIN ATOM
M  V30 1 C -4.23731 0.622345 -0.170208 0
M  V30 2 O -2.9587 0.0791945 0.0701612 0
M  V30 3 C -1.78591 0.619625 -0.435079 0
M  V30 4 O -1.89013 1.64786 -1.14219 0
M  V30 5 C -0.483844 0.00350174 -0.146274 0
M  V30 6 C 0.69099 0.525435 -0.638751 0
M  V30 7 C 1.93612 -0.0181297 -0.394411 0
M  V30 8 C 3.1787 0.573318 -0.942769 0
M  V30 9 N 3.76811 1.55287 -0.0706147 0
M  V30 10 C 1.99301 -1.15062 0.390671 0
M  V30 11 C 0.830467 -1.6941 0.896868 0
M  V30 12 C -0.412853 -1.12403 0.633811 0
M  V30 13 N -1.61981 -1.66265 1.14144 0
M  V30 14 H -4.92796 -0.138758 -0.625597 0
M  V30 15 H -4.63583 0.954084 0.821803 0
M  V30 16 H -4.2117 1.53117 -0.805376 0
M  V30 17 H 0.619654 1.41198 -1.25042 0
M  V30 18 H 3.92576 -0.20371 -1.14422 0
M  V30 19 H 2.9374 1.09588 -1.89994 0
M  V30 20 H 4.49219 1.16523 0.560468 0
M  V30 21 H 3.07977 2.17432 0.393743 0
M  V30 22 H 2.95175 -1.63572 0.62532 0
M  V30 23 H 0.888795 -2.5798 1.50937 0
M  V30 24 H -2.05942 -1.31414 2.0185 0
M  V30 25 H -2.06926 -2.43514 0.603698 0
M  V30 END ATOM
M  V30 BEGIN BOND
M  V30 1 1 1 2
M  V30 2 1 2 3
M  V30 3 2 3 4
M  V30 4 1 3 5
M  V30 5 2 5 6
M  V30 6 1 6 7
M  V30 7 1 7 8
M  V30 8 1 8 9
M  V30 9 2 7 10
M  V30 10 1 10 11
M  V30 11 2 11 12
M  V30 12 1 12 13
M  V30 13 1 12 5
M  V30 14 1 1 14
M  V30 15 1 1 15
M  V30 16 1 1 16
M  V30 17 1 6 17
M  V30 18 1 8 18
M  V30 19 1 8 19
M  V30 20 1 9 20
M  V30 21 1 9 21
M  V30 22 1 10 22
M  V30 23 1 11 23
M  V30 24 1 13 24
M  V30 25 1 13 25
M  V30 END BOND
M  V30 END CTAB
M  END
