
     RDKit          3D

  0  0  0  0  0  0  0  0  0  0999 V3000
M  V30 BEGIN CTAB
M  V30 COUNTS 33 34 0 0 0
M  V30 BEGIN ATOM
M  V30 1 N 4.00869 0.567816 -0.324801 0
M  V30 2 C 2.97879 0.5104 0.677985 0
M  V30 3 C 2.02622 -0.607515 0.396661 0
M  V30 4 C 1.34869 -0.48855 -0.926232 0 CFG=1
M  V30 5 N 0.434237 -1.61727 -1.13628 0
M  V30 6 C -0.758051 -1.56602 -0.359575 0
M  V30 7 C -1.42192 -2.72987 0.00482243 0
M  V30 8 C -2.57532 -2.68074 0.757642 0
M  V30 9 C -3.03435 -1.43727 1.12803 0
M  V30 10 C -2.39827 -0.269713 0.781813 0
M  V30 11 C -1.23716 -0.323265 0.0234746 0
M  V30 12 N -0.58607 0.89503 -0.328886 0
M  V30 13 C 0.620836 0.815324 -1.12678 0
M  V30 14 S -1.17074 2.42808 0.142093 0
M  V30 15 O -0.25196 3.4971 -0.379664 0
M  V30 16 O -1.18955 2.59029 1.6391 0
M  V30 17 N -2.73214 2.76907 -0.482604 0
M  V30 18 H 4.49163 -0.30466 -0.425708 0
M  V30 19 H 4.55334 1.41158 -0.319068 0
M  V30 20 H 3.50858 0.342803 1.65524 0
M  V30 21 H 2.46998 1.48359 0.714493 0
M  V30 22 H 1.2621 -0.624589 1.20388 0
M  V30 23 H 2.55591 -1.5822 0.437584 0
M  V30 24 H 2.11596 -0.566499 -1.72321 0
M  V30 25 H 0.599774 -2.39815 -1.77724 0
M  V30 26 H -1.00182 -3.6715 -0.323266 0
M  V30 27 H -3.07609 -3.59854 1.03018 0
M  V30 28 H -3.94441 -1.41469 1.72121 0
M  V30 29 H -2.75276 0.707793 1.07115 0
M  V30 30 H 0.314945 0.939214 -2.19019 0
M  V30 31 H 1.31388 1.63972 -0.89568 0
M  V30 32 H -3.21882 1.97765 -0.90587 0
M  V30 33 H -3.25413 3.30558 0.239693 0
M  V30 END ATOM
M  V30 BEGIN BOND
M  V30 1 1 1 2
M  V30 2 1 2 3
M  V30 3 1 3 4
M  V30 4 1 4 5
M  V30 5 1 5 6
M  V30 6 2 6 7
M  V30 7 1 7 8
M  V30 8 2 8 9
M  V30 9 1 9 10
M  V30 10 2 10 11
M  V30 11 1 11 12
M  V30 12 1 12 13
M  V30 13 1 12 14
M  V30 14 2 14 15
M  V30 15 2 14 16
M  V30 16 1 14 17
M  V30 17 1 13 4
M  V30 18 1 11 6
M  V30 19 1 1 18
M  V30 20 1 1 19
M  V30 21 1 2 20
M  V30 22 1 2 21
M  V30 23 1 3 22
M  V30 24 1 3 23
M  V30 25 1 4 24 CFG=3
M  V30 26 1 5 25
M  V30 27 1 7 26
M  V30 28 1 8 27
M  V30 29 1 9 28
M  V30 30 1 10 29
M  V30 31 1 13 30
M  V30 32 1 13 31
M  V30 33 1 17 32
M  V30 34 1 17 33
M  V30 END BOND
M  V30 END CTAB
M  END
