
     RDKit          3D

  0  0  0  0  0  0  0  0  0  0999 V3000
M  V30 BEGIN CTAB
M  V30 COUNTS 31 32 0 0 0
M  V30 BEGIN ATOM
M  V30 1 N 0.0100036 -1.13015 -1.3895 0
M  V30 2 C 0.180671 -0.834287 0.0213964 0
M  V30 3 C 1.46852 -0.136289 0.273939 0
M  V30 4 C 1.52688 1.05684 0.963592 0
M  V30 5 C 2.73821 1.67715 1.17742 0
M  V30 6 C 3.89162 1.0908 0.693624 0
M  V30 7 N 3.79817 -0.0731256 0.0253182 0
M  V30 8 C 2.62101 -0.683748 -0.187042 0
M  V30 9 N 2.67665 -1.92406 -0.917459 0
M  V30 10 C -1.00174 -0.189383 0.64774 0
M  V30 11 C -2.26395 -1.08638 0.546527 0
M  V30 12 C -2.17322 0.346219 -0.00458868 0
M  V30 13 C -2.33609 0.548633 -1.46919 0
M  V30 14 C -3.02334 1.31755 0.832744 0
M  V30 15 H 0.093223 -2.12349 -1.6282 0
M  V30 16 H 0.55944 -0.492516 -2.00171 0
M  V30 17 H 0.299094 -1.84714 0.512994 0
M  V30 18 H 0.651853 1.55201 1.35828 0
M  V30 19 H 2.86246 2.60782 1.70549 0
M  V30 20 H 4.8689 1.52347 0.826997 0
M  V30 21 H 2.76857 -1.88709 -1.94745 0
M  V30 22 H 2.62855 -2.83649 -0.449802 0
M  V30 23 H -0.780683 0.165923 1.70109 0
M  V30 24 H -2.28347 -1.87584 -0.202498 0
M  V30 25 H -2.80204 -1.2793 1.47063 0
M  V30 26 H -2.36015 -0.382942 -2.06742 0
M  V30 27 H -3.31859 1.02867 -1.65785 0
M  V30 28 H -1.56871 1.27557 -1.81373 0
M  V30 29 H -2.7764 2.35067 0.530552 0
M  V30 30 H -2.87362 1.10104 1.89748 0
M  V30 31 H -4.08183 1.13986 0.550637 0
M  V30 END ATOM
M  V30 BEGIN BOND
M  V30 1 1 1 2
M  V30 2 1 2 3
M  V30 3 2 3 4
M  V30 4 1 4 5
M  V30 5 2 5 6
M  V30 6 1 6 7
M  V30 7 2 7 8
M  V30 8 1 8 9
M  V30 9 1 2 10
M  V30 10 1 10 11
M  V30 11 1 11 12
M  V30 12 1 12 13
M  V30 13 1 12 14
M  V30 14 1 8 3
M  V30 15 1 12 10
M  V30 16 1 1 15
M  V30 17 1 1 16
M  V30 18 1 2 17
M  V30 19 1 4 18
M  V30 20 1 5 19
M  V30 21 1 6 20
M  V30 22 1 9 21
M  V30 23 1 9 22
M  V30 24 1 10 23
M  V30 25 1 11 24
M  V30 26 1 11 25
M  V30 27 1 13 26
M  V30 28 1 13 27
M  V30 29 1 13 28
M  V30 30 1 14 29
M  V30 31 1 14 30
M  V30 32 1 14 31
M  V30 END BOND
M  V30 END CTAB
M  END
