
     RDKit          3D

  0  0  0  0  0  0  0  0  0  0999 V3000
M  V30 BEGIN CTAB
M  V30 COUNTS 22 22 0 0 0
M  V30 BEGIN ATOM
M  V30 1 C 4.36453 -0.472976 -0.336667 0
M  V30 2 O 2.9903 -0.634434 -0.0856417 0
M  V30 3 C 2.01384 0.273596 -0.388289 0
M  V30 4 O 2.34207 1.35271 -0.937634 0
M  V30 5 C 0.599826 0.0639095 -0.109509 0
M  V30 6 C -0.347415 1.01054 -0.434033 0
M  V30 7 C -1.69525 0.826501 -0.17575 0
M  V30 8 N -2.67777 1.80096 -0.508859 0
M  V30 9 C -2.14277 -0.331967 0.426103 0
M  V30 10 C -1.20921 -1.29286 0.759077 0
M  V30 11 C 0.131139 -1.09378 0.49468 0
M  V30 12 Br -1.84779 -2.88676 1.59008 0
M  V30 13 N -3.52558 -0.527986 0.694461 0
M  V30 14 H 4.88384 -1.3369 0.134652 0
M  V30 15 H 4.61613 -0.499142 -1.41629 0
M  V30 16 H 4.78295 0.460809 0.0867192 0
M  V30 17 H -0.0270178 1.93586 -0.910021 0
M  V30 18 H -2.45812 2.78667 -0.242129 0
M  V30 19 H -3.56581 1.61407 -0.980479 0
M  V30 20 H 0.860376 -1.84355 0.754394 0
M  V30 21 H -4.12389 -0.982327 -0.00503533 0
M  V30 22 H -3.96438 -0.222946 1.59017 0
M  V30 END ATOM
M  V30 BEGIN BOND
M  V30 1 1 1 2
M  V30 2 1 2 3
M  V30 3 2 3 4
M  V30 4 1 3 5
M  V30 5 2 5 6
M  V30 6 1 6 7
M  V30 7 1 7 8
M  V30 8 2 7 9
M  V30 9 1 9 10
M  V30 10 2 10 11
M  V30 11 1 10 12
M  V30 12 1 9 13
M  V30 13 1 11 5
M  V30 14 1 1 14
M  V30 15 1 1 15
M  V30 16 1 1 16
M  V30 17 1 6 17
M  V30 18 1 8 18
M  V30 19 1 8 19
M  V30 20 1 11 20
M  V30 21 1 13 21
M  V30 22 1 13 22
M  V30 END BOND
M  V30 END CTAB
M  END
