
     RDKit          3D

  0  0  0  0  0  0  0  0  0  0999 V3000
M  V30 BEGIN CTAB
M  V30 COUNTS 22 22 0 0 0
M  V30 BEGIN ATOM
M  V30 1 C 3.77549 0.066947 0.0424391 0
M  V30 2 O 2.42383 -0.276901 0.263797 0
M  V30 3 C 1.40194 0.475013 -0.320932 0
M  V30 4 O 1.76216 1.44513 -1.03287 0
M  V30 5 C -0.00213876 0.148877 -0.114057 0
M  V30 6 C -0.350242 -0.92907 0.678338 0
M  V30 7 N 0.682817 -1.69655 1.27497 0
M  V30 8 C -1.69793 -1.23159 0.869058 0
M  V30 9 C -2.66139 -0.453509 0.266327 0
M  V30 10 C -2.27297 0.614743 -0.517837 0
M  V30 11 C -0.949305 0.93824 -0.724762 0
M  V30 12 Br -0.392123 2.40626 -1.80179 0
M  V30 13 N -3.29945 1.3995 -1.12708 0
M  V30 14 H 3.88994 1.09072 -0.375459 0
M  V30 15 H 4.25085 -0.682287 -0.614124 0
M  V30 16 H 4.30001 0.0485373 1.01264 0
M  V30 17 H 0.929438 -2.59875 0.870798 0
M  V30 18 H 1.1691 -1.32369 2.11394 0
M  V30 19 H -1.96353 -2.08838 1.49917 0
M  V30 20 H -3.70273 -0.678062 0.406849 0
M  V30 21 H -3.84756 0.958504 -1.89709 0
M  V30 22 H -3.4462 2.36631 -0.772314 0
M  V30 END ATOM
M  V30 BEGIN BOND
M  V30 1 1 1 2
M  V30 2 1 2 3
M  V30 3 2 3 4
M  V30 4 1 3 5
M  V30 5 2 5 6
M  V30 6 1 6 7
M  V30 7 1 6 8
M  V30 8 2 8 9
M  V30 9 1 9 10
M  V30 10 2 10 11
M  V30 11 1 11 12
M  V30 12 1 10 13
M  V30 13 1 11 5
M  V30 14 1 1 14
M  V30 15 1 1 15
M  V30 16 1 1 16
M  V30 17 1 7 17
M  V30 18 1 7 18
M  V30 19 1 8 19
M  V30 20 1 9 20
M  V30 21 1 13 21
M  V30 22 1 13 22
M  V30 END BOND
M  V30 END CTAB
M  END
