
     RDKit          3D

  0  0  0  0  0  0  0  0  0  0999 V3000
M  V30 BEGIN CTAB
M  V30 COUNTS 29 29 0 0 0
M  V30 BEGIN ATOM
M  V30 1 C -2.92198 -0.708318 -1.40145 0
M  V30 2 C -2.17024 -0.643861 -0.0829851 0
M  V30 3 C -2.83754 0.649799 0.622867 0
M  V30 4 C -0.758049 -0.302932 -0.148035 0
M  V30 5 C -0.292364 0.98079 -0.412306 0
M  V30 6 C 1.02981 1.30015 -0.247804 0
M  V30 7 N 1.46344 2.66041 -0.482128 0
M  V30 8 C 1.98686 0.378961 0.183256 0
M  V30 9 C 3.43411 0.68821 0.34427 0
M  V30 10 C 1.50017 -0.901974 0.43621 0
M  V30 11 N 2.43963 -1.91029 0.817632 0
M  V30 12 C 0.171754 -1.22625 0.280685 0
M  V30 13 O -0.246578 -2.50796 0.575573 0
M  V30 14 H -3.88016 -0.22845 -1.31443 0
M  V30 15 H -2.30789 -0.413346 -2.23838 0
M  V30 16 H -3.24056 -1.83023 -1.52723 0
M  V30 17 H -2.5088 -1.43979 0.563939 0
M  V30 18 H -3.79927 0.304522 1.00947 0
M  V30 19 H -2.15963 0.942453 1.42132 0
M  V30 20 H -2.99843 1.39832 -0.203249 0
M  V30 21 H -1.023 1.68466 -0.753497 0
M  V30 22 H 0.795028 3.4393 -0.491305 0
M  V30 23 H 2.46556 2.86524 -0.637967 0
M  V30 24 H 3.8806 0.120208 1.24937 0
M  V30 25 H 3.62921 1.71703 0.565454 0
M  V30 26 H 4.03836 0.382547 -0.504288 0
M  V30 27 H 3.44498 -1.83255 0.67902 0
M  V30 28 H 2.07735 -2.8126 1.25705 0
M  V30 29 H -1.21237 -2.75404 0.438942 0
M  V30 END ATOM
M  V30 BEGIN BOND
M  V30 1 1 1 2
M  V30 2 1 2 3
M  V30 3 1 2 4
M  V30 4 2 4 5
M  V30 5 1 5 6
M  V30 6 1 6 7
M  V30 7 2 6 8
M  V30 8 1 8 9
M  V30 9 1 8 10
M  V30 10 1 10 11
M  V30 11 2 10 12
M  V30 12 1 12 13
M  V30 13 1 12 4
M  V30 14 1 1 14
M  V30 15 1 1 15
M  V30 16 1 1 16
M  V30 17 1 2 17
M  V30 18 1 3 18
M  V30 19 1 3 19
M  V30 20 1 3 20
M  V30 21 1 5 21
M  V30 22 1 7 22
M  V30 23 1 7 23
M  V30 24 1 9 24
M  V30 25 1 9 25
M  V30 26 1 9 26
M  V30 27 1 11 27
M  V30 28 1 11 28
M  V30 29 1 13 29
M  V30 END BOND
M  V30 END CTAB
M  END
