
     RDKit          3D

  0  0  0  0  0  0  0  0  0  0999 V3000
M  V30 BEGIN CTAB
M  V30 COUNTS 47 48 0 0 0
M  V30 BEGIN ATOM
M  V30 1 C -1.09179 -3.38396 -1.90591 0
M  V30 2 O -1.58185 -2.40605 -1.02446 0
M  V30 3 C -0.772468 -1.68618 -0.157253 0
M  V30 4 C 0.615333 -1.89557 -0.106645 0
M  V30 5 C 1.39632 -1.17618 0.754054 0
M  V30 6 C 2.85325 -1.33707 0.842307 0
M  V30 7 C 3.63998 -0.240042 0.243261 0
M  V30 8 C 4.23254 0.745166 1.04585 0
M  V30 9 N 4.93577 1.73749 0.480217 0
M  V30 10 C 5.11194 1.84754 -0.849449 0
M  V30 11 N 5.87241 2.92884 -1.40237 0
M  V30 12 N 4.55053 0.9118 -1.62696 0
M  V30 13 C 3.82088 -0.125763 -1.10652 0
M  V30 14 N 3.25498 -1.09465 -1.97128 0
M  V30 15 C 0.806076 -0.230602 1.58507 0
M  V30 16 C -0.578409 -0.0310955 1.52559 0
M  V30 17 O -1.17873 0.904999 2.34522 0
M  V30 18 C -0.414513 1.66427 3.24327 0
M  V30 19 C -1.36929 -0.7509 0.66188 0
M  V30 20 C -2.81545 -0.49588 0.645849 0
M  V30 21 O -3.58063 -1.14696 1.4036 0
M  V30 22 O -3.38548 0.448028 -0.182608 0
M  V30 23 C -4.76306 0.702738 -0.209606 0
M  V30 24 C -5.07872 2.15909 0.0809585 0
M  V30 25 C -5.23378 0.398726 -1.63651 0
M  V30 26 H -1.99423 -3.88872 -2.35447 0
M  V30 27 H -0.515974 -2.91933 -2.72168 0
M  V30 28 H -0.542944 -4.20116 -1.38579 0
M  V30 29 H 1.03501 -2.64551 -0.756639 0
M  V30 30 H 3.18534 -1.39401 1.92385 0
M  V30 31 H 3.14076 -2.33032 0.407229 0
M  V30 32 H 4.09032 0.657027 2.12465 0
M  V30 33 H 5.37132 3.79605 -1.66725 0
M  V30 34 H 6.89349 2.87593 -1.54525 0
M  V30 35 H 2.39534 -0.850338 -2.49037 0
M  V30 36 H 3.67164 -2.03102 -2.0983 0
M  V30 37 H 1.42189 0.340026 2.26774 0
M  V30 38 H 0.205363 1.00644 3.8932 0
M  V30 39 H 0.23083 2.40698 2.73955 0
M  V30 40 H -1.11566 2.19107 3.9449 0
M  V30 41 H -5.36031 0.10088 0.472565 0
M  V30 42 H -6.1371 2.32049 -0.13896 0
M  V30 43 H -4.85406 2.35576 1.15485 0
M  V30 44 H -4.43961 2.84702 -0.525589 0
M  V30 45 H -5.38804 -0.705087 -1.68869 0
M  V30 46 H -6.13727 0.968435 -1.90033 0
M  V30 47 H -4.40193 0.651632 -2.33279 0
M  V30 END ATOM
M  V30 BEGIN BOND
M  V30 1 1 1 2
M  V30 2 1 2 3
M  V30 3 2 3 4
M  V30 4 1 4 5
M  V30 5 1 5 6
M  V30 6 1 6 7
M  V30 7 2 7 8
M  V30 8 1 8 9
M  V30 9 2 9 10
M  V30 10 1 10 11
M  V30 11 1 10 12
M  V30 12 2 12 13
M  V30 13 1 13 14
M  V30 14 2 5 15
M  V30 15 1 15 16
M  V30 16 1 16 17
M  V30 17 1 17 18
M  V30 18 2 16 19
M  V30 19 1 19 20
M  V30 20 2 20 21
M  V30 21 1 20 22
M  V30 22 1 22 23
M  V30 23 1 23 24
M  V30 24 1 23 25
M  V30 25 1 19 3
M  V30 26 1 13 7
M  V30 27 1 1 26
M  V30 28 1 1 27
M  V30 29 1 1 28
M  V30 30 1 4 29
M  V30 31 1 6 30
M  V30 32 1 6 31
M  V30 33 1 8 32
M  V30 34 1 11 33
M  V30 35 1 11 34
M  V30 36 1 14 35
M  V30 37 1 14 36
M  V30 38 1 15 37
M  V30 39 1 18 38
M  V30 40 1 18 39
M  V30 41 1 18 40
M  V30 42 1 23 41
M  V30 43 1 24 42
M  V30 44 1 24 43
M  V30 45 1 24 44
M  V30 46 1 25 45
M  V30 47 1 25 46
M  V30 48 1 25 47
M  V30 END BOND
M  V30 END CTAB
M  END
