
     RDKit          3D

  0  0  0  0  0  0  0  0  0  0999 V3000
M  V30 BEGIN CTAB
M  V30 COUNTS 40 42 0 0 0
M  V30 BEGIN ATOM
M  V30 1 N -0.0265365 3.66543 0.473027 0
M  V30 2 C 0.0299768 2.22329 0.773963 0
M  V30 3 C -0.648088 1.47026 -0.310959 0
M  V30 4 N -0.704294 0.0535316 -0.233769 0
M  V30 5 C -2.00694 -0.513734 0.102346 0
M  V30 6 C -3.10046 0.275194 0.220829 0
M  V30 7 C -4.36465 -0.260766 0.548807 0
M  V30 8 C -4.49809 -1.60603 0.752605 0
M  V30 9 C -3.4148 -2.44619 0.644751 0
M  V30 10 C -2.18668 -1.88479 0.323425 0
M  V30 11 N -1.01741 -2.68485 0.206272 0
M  V30 12 C 0.207301 -1.99696 0.617333 0
M  V30 13 C 0.368573 -0.867857 -0.445411 0 CFG=2
M  V30 14 C 1.75248 -0.442153 -0.302889 0
M  V30 15 C 2.46462 -0.577722 0.905745 0
M  V30 16 C 3.74613 -0.132453 1.0682 0
M  V30 17 C 4.41969 0.483198 0.0456369 0
M  V30 18 C 3.75987 0.631637 -1.14995 0
M  V30 19 C 2.45256 0.169355 -1.30089 0
M  V30 20 N 1.93591 0.309525 -2.62263 0
M  V30 21 H -0.985176 4.04592 0.519354 0
M  V30 22 H 0.374307 3.86484 -0.472113 0
M  V30 23 H 1.09142 2.01343 0.867538 0
M  V30 24 H -0.526758 2.10748 1.74387 0
M  V30 25 H -1.59661 1.98885 -0.593562 0
M  V30 26 H -0.053663 1.68665 -1.27824 0
M  V30 27 H -3.03745 1.34473 0.0806678 0
M  V30 28 H -5.18912 0.442546 0.630612 0
M  V30 29 H -5.45239 -2.03271 1.0027 0
M  V30 30 H -3.44161 -3.5112 0.788656 0
M  V30 31 H -1.0646 -3.63636 -0.136151 0
M  V30 32 H 1.09683 -2.63294 0.603427 0
M  V30 33 H 0.0396801 -1.55307 1.6101 0
M  V30 34 H 0.167943 -1.41494 -1.39889 0
M  V30 35 H 1.94586 -1.05942 1.73238 0
M  V30 36 H 4.2398 -0.266941 2.00885 0
M  V30 37 H 5.44504 0.846609 0.175623 0
M  V30 38 H 4.29499 1.1217 -1.97294 0
M  V30 39 H 1.7372 1.27191 -2.97506 0
M  V30 40 H 1.74515 -0.495011 -3.25326 0
M  V30 END ATOM
M  V30 BEGIN BOND
M  V30 1 1 1 2
M  V30 2 1 2 3
M  V30 3 1 3 4
M  V30 4 1 4 5
M  V30 5 2 5 6
M  V30 6 1 6 7
M  V30 7 2 7 8
M  V30 8 1 8 9
M  V30 9 2 9 10
M  V30 10 1 10 11
M  V30 11 1 11 12
M  V30 12 1 12 13
M  V30 13 1 13 14
M  V30 14 2 14 15
M  V30 15 1 15 16
M  V30 16 2 16 17
M  V30 17 1 17 18
M  V30 18 2 18 19
M  V30 19 1 19 20
M  V30 20 1 13 4
M  V30 21 1 19 14
M  V30 22 1 10 5
M  V30 23 1 1 21
M  V30 24 1 1 22
M  V30 25 1 2 23
M  V30 26 1 2 24
M  V30 27 1 3 25
M  V30 28 1 3 26
M  V30 29 1 6 27
M  V30 30 1 7 28
M  V30 31 1 8 29
M  V30 32 1 9 30
M  V30 33 1 11 31
M  V30 34 1 12 32
M  V30 35 1 12 33
M  V30 36 1 13 34 CFG=3
M  V30 37 1 15 35
M  V30 38 1 16 36
M  V30 39 1 17 37
M  V30 40 1 18 38
M  V30 41 1 20 39
M  V30 42 1 20 40
M  V30 END BOND
M  V30 END CTAB
M  END
