
     RDKit          3D

  0  0  0  0  0  0  0  0  0  0999 V3000
M  V30 BEGIN CTAB
M  V30 COUNTS 41 42 0 0 0
M  V30 BEGIN ATOM
M  V30 1 C -2.97703 0.995746 3.35144 0
M  V30 2 O -3.47229 1.17176 2.03457 0
M  V30 3 C -2.91102 0.384327 1.03852 0
M  V30 4 C -1.91804 -0.535509 1.27941 0
M  V30 5 C -1.38632 -1.29908 0.261335 0
M  V30 6 C -0.316352 -2.29165 0.514975 0
M  V30 7 C 0.982164 -1.62628 0.363829 0
M  V30 8 C 2.02739 -1.06738 0.24026 0
M  V30 9 C 3.27921 -0.383332 0.0938312 0
M  V30 10 C 3.40533 0.866285 -0.46438 0
M  V30 11 N 4.58233 1.49415 -0.595023 0
M  V30 12 C 5.71503 0.907788 -0.172738 0
M  V30 13 N 6.98767 1.57945 -0.310679 0
M  V30 14 N 5.62805 -0.306978 0.374698 0
M  V30 15 C 4.47435 -0.971863 0.525517 0
M  V30 16 N 4.41582 -2.25543 1.10845 0
M  V30 17 C -1.89141 -1.10181 -1.00655 0
M  V30 18 C -2.88867 -0.188944 -1.29476 0
M  V30 19 O -3.38634 -0.00223266 -2.57644 0
M  V30 20 C -2.83108 -0.792994 -3.6116 0
M  V30 21 C -3.39516 0.555762 -0.251472 0
M  V30 22 O -4.39683 1.47791 -0.51876 0
M  V30 23 C -3.97153 2.80222 -0.854387 0
M  V30 24 H -3.49102 1.63638 4.0775 0
M  V30 25 H -3.13657 -0.0674785 3.68896 0
M  V30 26 H -1.8772 1.13789 3.35332 0
M  V30 27 H -1.55856 -0.644102 2.31637 0
M  V30 28 H -0.371546 -3.13673 -0.170827 0
M  V30 29 H -0.465104 -2.64517 1.56897 0
M  V30 30 H 2.47603 1.3379 -0.806483 0
M  V30 31 H 7.80947 1.10841 -0.749147 0
M  V30 32 H 7.12725 2.55942 0.024179 0
M  V30 33 H 3.59808 -2.88022 0.992987 0
M  V30 34 H 5.21598 -2.59659 1.676 0
M  V30 35 H -1.5164 -1.67436 -1.86853 0
M  V30 36 H -1.7392 -0.693777 -3.6489 0
M  V30 37 H -3.08841 -1.87116 -3.49069 0
M  V30 38 H -3.20639 -0.432124 -4.6135 0
M  V30 39 H -3.37443 2.80405 -1.79454 0
M  V30 40 H -4.84994 3.44113 -1.04479 0
M  V30 41 H -3.3073 3.2046 -0.0631875 0
M  V30 END ATOM
M  V30 BEGIN BOND
M  V30 1 1 1 2
M  V30 2 1 2 3
M  V30 3 2 3 4
M  V30 4 1 4 5
M  V30 5 1 5 6
M  V30 6 1 6 7
M  V30 7 3 7 8
M  V30 8 1 8 9
M  V30 9 2 9 10
M  V30 10 1 10 11
M  V30 11 2 11 12
M  V30 12 1 12 13
M  V30 13 1 12 14
M  V30 14 2 14 15
M  V30 15 1 15 16
M  V30 16 2 5 17
M  V30 17 1 17 18
M  V30 18 1 18 19
M  V30 19 1 19 20
M  V30 20 2 18 21
M  V30 21 1 21 22
M  V30 22 1 22 23
M  V30 23 1 21 3
M  V30 24 1 15 9
M  V30 25 1 1 24
M  V30 26 1 1 25
M  V30 27 1 1 26
M  V30 28 1 4 27
M  V30 29 1 6 28
M  V30 30 1 6 29
M  V30 31 1 10 30
M  V30 32 1 13 31
M  V30 33 1 13 32
M  V30 34 1 16 33
M  V30 35 1 16 34
M  V30 36 1 17 35
M  V30 37 1 20 36
M  V30 38 1 20 37
M  V30 39 1 20 38
M  V30 40 1 23 39
M  V30 41 1 23 40
M  V30 42 1 23 41
M  V30 END BOND
M  V30 END CTAB
M  END
