
     RDKit          3D

  0  0  0  0  0  0  0  0  0  0999 V3000
M  V30 BEGIN CTAB
M  V30 COUNTS 34 36 0 0 0
M  V30 BEGIN ATOM
M  V30 1 N -5.71247 -0.103412 -1.37558 0
M  V30 2 C -4.37741 -0.020624 -0.891519 0
M  V30 3 N -3.88857 -1.04285 -0.152602 0
M  V30 4 C -2.63608 -1.06149 0.353478 0
M  V30 5 C -2.17553 -2.11997 1.10063 0
M  V30 6 C -0.892025 -2.05658 1.57569 0
M  V30 7 C -0.0762865 -0.965431 1.31695 0
M  V30 8 C -0.509373 0.109049 0.571427 0
M  V30 9 O 0.206645 1.22851 0.263674 0
M  V30 10 C 1.50749 1.51109 0.598891 0
M  V30 11 C 2.5585 0.674498 -0.00161452 0
M  V30 12 C 2.29159 -0.264207 -0.958267 0
M  V30 13 C 3.33262 -1.00071 -1.54015 0
M  V30 14 F 3.01974 -1.92491 -2.48702 0
M  V30 15 C 4.63675 -0.780384 -1.14959 0
M  V30 16 C 4.92799 0.160791 -0.188568 0
M  V30 17 C 3.87971 0.861069 0.357614 0
M  V30 18 F 4.1428 1.78521 1.29889 0
M  V30 19 C -1.83001 0.0221418 0.0947664 0
M  V30 20 C -2.35268 1.06687 -0.669555 0
M  V30 21 N -1.48111 2.17199 -0.912377 0
M  V30 22 N -3.61221 1.05066 -1.15966 0
M  V30 23 H -5.83715 -0.34019 -2.38212 0
M  V30 24 H -6.51944 0.0635007 -0.755866 0
M  V30 25 H -2.85113 -2.9375 1.26895 0
M  V30 26 H -0.513165 -2.89041 2.17143 0
M  V30 27 H 0.92562 -0.935978 1.71272 0
M  V30 28 H 1.75644 2.56889 0.257059 0
M  V30 29 H 1.68933 1.57011 1.70334 0
M  V30 30 H 1.30715 -0.478864 -1.32854 0
M  V30 31 H 5.42531 -1.3771 -1.62863 0
M  V30 32 H 5.96345 0.317034 0.102632 0
M  V30 33 H -0.879342 2.14771 -1.75942 0
M  V30 34 H -1.42716 2.99147 -0.279498 0
M  V30 END ATOM
M  V30 BEGIN BOND
M  V30 1 1 1 2
M  V30 2 2 2 3
M  V30 3 1 3 4
M  V30 4 2 4 5
M  V30 5 1 5 6
M  V30 6 2 6 7
M  V30 7 1 7 8
M  V30 8 1 8 9
M  V30 9 1 9 10
M  V30 10 1 10 11
M  V30 11 2 11 12
M  V30 12 1 12 13
M  V30 13 1 13 14
M  V30 14 2 13 15
M  V30 15 1 15 16
M  V30 16 2 16 17
M  V30 17 1 17 18
M  V30 18 2 8 19
M  V30 19 1 19 20
M  V30 20 1 20 21
M  V30 21 2 20 22
M  V30 22 1 22 2
M  V30 23 1 19 4
M  V30 24 1 17 11
M  V30 25 1 1 23
M  V30 26 1 1 24
M  V30 27 1 5 25
M  V30 28 1 6 26
M  V30 29 1 7 27
M  V30 30 1 10 28
M  V30 31 1 10 29
M  V30 32 1 12 30
M  V30 33 1 15 31
M  V30 34 1 16 32
M  V30 35 1 21 33
M  V30 36 1 21 34
M  V30 END BOND
M  V30 END CTAB
M  END
