
     RDKit          3D

  0  0  0  0  0  0  0  0  0  0999 V3000
M  V30 BEGIN CTAB
M  V30 COUNTS 31 30 0 0 0
M  V30 BEGIN ATOM
M  V30 1 C 0.290611 -1.3197 0.178555 0 CFG=1
M  V30 2 N 1.0957 -2.49263 0.570467 0
M  V30 3 C -0.740834 -1.0966 1.22277 0
M  V30 4 C -1.66795 0.057235 0.985052 0
M  V30 5 C -2.42522 -0.148018 -0.325228 0
M  V30 6 C -3.3269 1.0343 -0.501891 0
M  V30 7 N -4.09813 0.942232 -1.72284 0
M  V30 8 C 1.24921 -0.194037 0.0562454 0
M  V30 9 O 0.82096 0.909109 -0.365192 0
M  V30 10 N 2.61342 -0.334961 0.398881 0
M  V30 11 C 3.56328 0.723265 0.286917 0
M  V30 12 C 3.71036 1.16589 -1.09759 0
M  V30 13 O 4.54657 2.22248 -1.47294 0
M  V30 14 O 3.08059 0.60378 -2.01447 0
M  V30 15 H -0.170559 -1.55735 -0.785399 0
M  V30 16 H 1.11194 -2.56203 1.60655 0
M  V30 17 H 0.686498 -3.37065 0.179799 0
M  V30 18 H -1.37661 -2.00238 1.35856 0
M  V30 19 H -0.24407 -0.951847 2.21042 0
M  V30 20 H -2.42568 0.126991 1.82972 0
M  V30 21 H -1.1497 1.01489 1.00481 0
M  V30 22 H -1.69646 -0.257898 -1.14962 0
M  V30 23 H -2.99541 -1.10135 -0.297011 0
M  V30 24 H -2.66648 1.94069 -0.562555 0
M  V30 25 H -3.98321 1.08549 0.407915 0
M  V30 26 H -4.60621 1.85903 -1.84553 0
M  V30 27 H -4.8099 0.191666 -1.61221 0
M  V30 28 H 2.92151 -1.28431 0.754454 0
M  V30 29 H 4.56475 0.368602 0.623513 0
M  V30 30 H 3.31379 1.5653 0.98503 0
M  V30 31 H 4.81414 2.86281 -0.737773 0
M  V30 END ATOM
M  V30 BEGIN BOND
M  V30 1 1 1 2
M  V30 2 1 1 3
M  V30 3 1 3 4
M  V30 4 1 4 5
M  V30 5 1 5 6
M  V30 6 1 6 7
M  V30 7 1 1 8
M  V30 8 2 8 9
M  V30 9 1 8 10
M  V30 10 1 10 11
M  V30 11 1 11 12
M  V30 12 1 12 13
M  V30 13 2 12 14
M  V30 14 1 1 15 CFG=3
M  V30 15 1 2 16
M  V30 16 1 2 17
M  V30 17 1 3 18
M  V30 18 1 3 19
M  V30 19 1 4 20
M  V30 20 1 4 21
M  V30 21 1 5 22
M  V30 22 1 5 23
M  V30 23 1 6 24
M  V30 24 1 6 25
M  V30 25 1 7 26
M  V30 26 1 7 27
M  V30 27 1 10 28
M  V30 28 1 11 29
M  V30 29 1 11 30
M  V30 30 1 13 31
M  V30 END BOND
M  V30 END CTAB
M  END
