
     RDKit          3D

  0  0  0  0  0  0  0  0  0  0999 V3000
M  V30 BEGIN CTAB
M  V30 COUNTS 27 28 0 0 0
M  V30 BEGIN ATOM
M  V30 1 C -4.19492 0.233894 -1.36093 0
M  V30 2 N -3.65541 -0.100855 -0.0406375 0
M  V30 3 N -4.51217 -0.50915 0.972692 0
M  V30 4 C -2.2361 0.0113956 0.0986069 0
M  V30 5 N -1.67511 0.525659 1.21214 0
M  V30 6 N -0.376998 0.6441 1.37757 0
M  V30 7 C 0.525628 0.259441 0.440172 0
M  V30 8 C 0.00622006 -0.270352 -0.709788 0
M  V30 9 C -1.36972 -0.397189 -0.884005 0
M  V30 10 N 1.90829 0.440503 0.696976 0
M  V30 11 N 2.40809 1.28901 1.61209 0
M  V30 12 C 3.72326 1.2795 1.64961 0
M  V30 13 C 4.13663 0.373436 0.706867 0
M  V30 14 C 5.49928 0.0475972 0.41673 0
M  V30 15 N 6.60218 -0.219157 0.174836 0
M  V30 16 C 2.98507 -0.132203 0.131557 0
M  V30 17 N 3.02192 -1.09712 -0.884694 0
M  V30 18 H -3.53418 -0.0375474 -2.19419 0
M  V30 19 H -4.30203 1.33968 -1.34495 0
M  V30 20 H -5.17046 -0.284008 -1.55651 0
M  V30 21 H -4.99903 0.259113 1.46373 0
M  V30 22 H -4.13904 -1.20721 1.62885 0
M  V30 23 H 0.62195 -0.601692 -1.51459 0
M  V30 24 H -1.74024 -0.838124 -1.80267 0
M  V30 25 H 4.38887 1.86693 2.29978 0
M  V30 26 H 3.02986 -2.10092 -0.706398 0
M  V30 27 H 3.04816 -0.774741 -1.88283 0
M  V30 END ATOM
M  V30 BEGIN BOND
M  V30 1 1 1 2
M  V30 2 1 2 3
M  V30 3 1 2 4
M  V30 4 2 4 5
M  V30 5 1 5 6
M  V30 6 2 6 7
M  V30 7 1 7 8
M  V30 8 2 8 9
M  V30 9 1 7 10
M  V30 10 1 10 11
M  V30 11 2 11 12
M  V30 12 1 12 13
M  V30 13 1 13 14
M  V30 14 3 14 15
M  V30 15 2 13 16
M  V30 16 1 16 17
M  V30 17 1 9 4
M  V30 18 1 16 10
M  V30 19 1 1 18
M  V30 20 1 1 19
M  V30 21 1 1 20
M  V30 22 1 3 21
M  V30 23 1 3 22
M  V30 24 1 8 23
M  V30 25 1 9 24
M  V30 26 1 12 25
M  V30 27 1 17 26
M  V30 28 1 17 27
M  V30 END BOND
M  V30 END CTAB
M  END
