
     RDKit          3D

  0  0  0  0  0  0  0  0  0  0999 V3000
M  V30 BEGIN CTAB
M  V30 COUNTS 33 33 0 0 0
M  V30 BEGIN ATOM
M  V30 1 N -4.11529 2.67709 -1.09129 0
M  V30 2 C -3.36312 1.48331 -0.870025 0
M  V30 3 C -2.83436 1.36008 0.52829 0
M  V30 4 N -2.06517 0.0704071 0.635309 0
M  V30 5 C -0.712021 0.155879 0.333911 0
M  V30 6 O -0.320736 1.35299 0.00188873 0
M  V30 7 N 0.288232 -0.819432 0.328017 0
M  V30 8 C 1.65636 -0.553399 -0.0290062 0
M  V30 9 C 2.07034 0.408692 -0.905496 0
M  V30 10 C 3.42768 0.607897 -1.15866 0
M  V30 11 C 4.38322 -0.161814 -0.531283 0
M  V30 12 C 3.99194 -1.15081 0.366432 0
M  V30 13 C 2.65321 -1.31925 0.591974 0
M  V30 14 Cl 5.21584 -2.1267 1.16035 0
M  V30 15 N 5.77024 0.00327108 -0.755912 0
M  V30 16 C -2.77669 -1.06476 1.02022 0
M  V30 17 O -4.04013 -0.862466 1.24324 0
M  V30 18 C -2.28886 -2.42627 1.20049 0
M  V30 19 H -4.41005 3.17187 -0.219526 0
M  V30 20 H -3.67359 3.32622 -1.7898 0
M  V30 21 H -4.00241 0.621993 -1.16079 0
M  V30 22 H -2.51941 1.48176 -1.60505 0
M  V30 23 H -3.64409 1.373 1.26374 0
M  V30 24 H -2.16263 2.21648 0.728021 0
M  V30 25 H 0.1176 -1.83325 0.582531 0
M  V30 26 H 1.38767 1.04044 -1.4552 0
M  V30 27 H 3.72969 1.38762 -1.86606 0
M  V30 28 H 2.32666 -2.08303 1.28744 0
M  V30 29 H 6.21855 0.902519 -0.538999 0
M  V30 30 H 6.32457 -0.774963 -1.13463 0
M  V30 31 H -1.90386 -2.90918 0.287638 0
M  V30 32 H -1.56468 -2.46826 2.03767 0
M  V30 33 H -3.16472 -3.08792 1.51458 0
M  V30 END ATOM
M  V30 BEGIN BOND
M  V30 1 1 1 2
M  V30 2 1 2 3
M  V30 3 1 3 4
M  V30 4 1 4 5
M  V30 5 2 5 6
M  V30 6 1 5 7
M  V30 7 1 7 8
M  V30 8 2 8 9
M  V30 9 1 9 10
M  V30 10 2 10 11
M  V30 11 1 11 12
M  V30 12 2 12 13
M  V30 13 1 12 14
M  V30 14 1 11 15
M  V30 15 1 4 16
M  V30 16 2 16 17
M  V30 17 1 16 18
M  V30 18 1 13 8
M  V30 19 1 1 19
M  V30 20 1 1 20
M  V30 21 1 2 21
M  V30 22 1 2 22
M  V30 23 1 3 23
M  V30 24 1 3 24
M  V30 25 1 7 25
M  V30 26 1 9 26
M  V30 27 1 10 27
M  V30 28 1 13 28
M  V30 29 1 15 29
M  V30 30 1 15 30
M  V30 31 1 18 31
M  V30 32 1 18 32
M  V30 33 1 18 33
M  V30 END BOND
M  V30 END CTAB
M  END
