
     RDKit          3D

  0  0  0  0  0  0  0  0  0  0999 V3000
M  V30 BEGIN CTAB
M  V30 COUNTS 25 26 0 0 0
M  V30 BEGIN ATOM
M  V30 1 C 4.33442 -0.360441 -0.260079 0
M  V30 2 O 3.07398 -0.96927 -0.0614391 0
M  V30 3 C 1.95187 -0.169704 -0.116454 0
M  V30 4 C 2.04794 1.18312 -0.357398 0
M  V30 5 C 0.88991 1.92801 -0.400303 0
M  V30 6 C -0.331037 1.31199 -0.203324 0
M  V30 7 C -0.448593 -0.0417928 0.0393768 0
M  V30 8 C 0.717892 -0.777465 0.0800632 0
M  V30 9 F 0.624518 -2.11483 0.318141 0
M  V30 10 C -1.68208 -0.656012 0.237022 0
M  V30 11 N -1.76029 -2.05548 0.484677 0
M  V30 12 C -2.8351 0.0984916 0.192134 0
M  V30 13 C -2.67252 1.45368 -0.0541527 0
M  V30 14 N -1.47068 2.02707 -0.242392 0
M  V30 15 N -4.12783 -0.469644 0.386255 0
M  V30 16 H 4.35502 0.0343169 -1.28743 0
M  V30 17 H 5.16215 -1.1065 -0.103364 0
M  V30 18 H 4.49498 0.471965 0.453686 0
M  V30 19 H 3.03132 1.63758 -0.508852 0
M  V30 20 H 0.989442 2.98802 -0.59089 0
M  V30 21 H -1.83079 -2.37479 1.46931 0
M  V30 22 H -1.74211 -2.68843 -0.346784 0
M  V30 23 H -3.56407 2.06415 -0.0935454 0
M  V30 24 H -4.9945 -0.161932 -0.0999417 0
M  V30 25 H -4.21384 -1.25209 1.06568 0
M  V30 END ATOM
M  V30 BEGIN BOND
M  V30 1 1 1 2
M  V30 2 1 2 3
M  V30 3 2 3 4
M  V30 4 1 4 5
M  V30 5 2 5 6
M  V30 6 1 6 7
M  V30 7 2 7 8
M  V30 8 1 8 9
M  V30 9 1 7 10
M  V30 10 1 10 11
M  V30 11 2 10 12
M  V30 12 1 12 13
M  V30 13 2 13 14
M  V30 14 1 12 15
M  V30 15 1 8 3
M  V30 16 1 14 6
M  V30 17 1 1 16
M  V30 18 1 1 17
M  V30 19 1 1 18
M  V30 20 1 4 19
M  V30 21 1 5 20
M  V30 22 1 11 21
M  V30 23 1 11 22
M  V30 24 1 13 23
M  V30 25 1 15 24
M  V30 26 1 15 25
M  V30 END BOND
M  V30 END CTAB
M  END
