
     RDKit          3D

  0  0  0  0  0  0  0  0  0  0999 V3000
M  V30 BEGIN CTAB
M  V30 COUNTS 36 37 0 0 0
M  V30 BEGIN ATOM
M  V30 1 C -1.52895 -3.88187 -0.0869964 0
M  V30 2 O -2.42085 -2.82987 -0.402495 0
M  V30 3 C -2.07318 -1.53732 -0.0293239 0
M  V30 4 C -0.898439 -1.26534 0.629728 0
M  V30 5 C -0.504552 -0.00294682 1.02265 0
M  V30 6 C 0.770279 0.18524 1.74012 0
M  V30 7 C 1.97428 0.146669 0.914719 0
M  V30 8 C 2.75039 -1.01034 0.914281 0
M  V30 9 N 3.8584 -1.07115 0.157964 0
M  V30 10 C 4.28566 -0.0551721 -0.627505 0
M  V30 11 N 5.46631 -0.162556 -1.41303 0
M  V30 12 N 3.52794 1.05608 -0.618292 0
M  V30 13 C 2.39393 1.18132 0.126019 0
M  V30 14 N 1.68415 2.41007 0.0554474 0
M  V30 15 C -1.33864 1.05136 0.738493 0
M  V30 16 C -2.54629 0.811411 0.0665507 0
M  V30 17 O -3.43092 1.80647 -0.253667 0
M  V30 18 C -3.305 3.171 0.0129955 0
M  V30 19 C -2.90844 -0.479744 -0.314084 0
M  V30 20 C -4.15271 -0.736883 -1.00805 0
M  V30 21 N -5.1346 -0.954208 -1.57313 0
M  V30 22 H -1.24381 -3.88287 0.992536 0
M  V30 23 H -0.603761 -3.83537 -0.711193 0
M  V30 24 H -1.98546 -4.87503 -0.300197 0
M  V30 25 H -0.229542 -2.07829 0.8631 0
M  V30 26 H 0.788887 -0.602365 2.54979 0
M  V30 27 H 0.699995 1.14182 2.33375 0
M  V30 28 H 2.42474 -1.8432 1.54111 0
M  V30 29 H 6.40043 -0.0178832 -0.990634 0
M  V30 30 H 5.38646 -0.385746 -2.40783 0
M  V30 31 H 1.74261 3.12299 0.828243 0
M  V30 32 H 1.08456 2.6461 -0.758651 0
M  V30 33 H -1.11825 2.07388 1.01695 0
M  V30 34 H -2.24686 3.48051 0.0743027 0
M  V30 35 H -3.74507 3.74686 -0.845684 0
M  V30 36 H -3.82368 3.47638 0.953734 0
M  V30 END ATOM
M  V30 BEGIN BOND
M  V30 1 1 1 2
M  V30 2 1 2 3
M  V30 3 2 3 4
M  V30 4 1 4 5
M  V30 5 1 5 6
M  V30 6 1 6 7
M  V30 7 2 7 8
M  V30 8 1 8 9
M  V30 9 2 9 10
M  V30 10 1 10 11
M  V30 11 1 10 12
M  V30 12 2 12 13
M  V30 13 1 13 14
M  V30 14 2 5 15
M  V30 15 1 15 16
M  V30 16 1 16 17
M  V30 17 1 17 18
M  V30 18 2 16 19
M  V30 19 1 19 20
M  V30 20 3 20 21
M  V30 21 1 19 3
M  V30 22 1 13 7
M  V30 23 1 1 22
M  V30 24 1 1 23
M  V30 25 1 1 24
M  V30 26 1 4 25
M  V30 27 1 6 26
M  V30 28 1 6 27
M  V30 29 1 8 28
M  V30 30 1 11 29
M  V30 31 1 11 30
M  V30 32 1 14 31
M  V30 33 1 14 32
M  V30 34 1 15 33
M  V30 35 1 18 34
M  V30 36 1 18 35
M  V30 37 1 18 36
M  V30 END BOND
M  V30 END CTAB
M  END
