
     RDKit          3D

  0  0  0  0  0  0  0  0  0  0999 V3000
M  V30 BEGIN CTAB
M  V30 COUNTS 32 33 0 0 0
M  V30 BEGIN ATOM
M  V30 1 O 1.88793 -2.03816 -0.557581 0
M  V30 2 C 1.2187 -1.24601 0.208534 0
M  V30 3 N 1.88756 -0.0999096 0.71419 0
M  V30 4 C 3.27208 0.0491069 0.348524 0
M  V30 5 C 4.22902 -0.364215 1.29697 0
M  V30 6 C 5.57402 -0.278409 1.02891 0
M  V30 7 C 6.01075 0.218973 -0.178802 0
M  V30 8 C 5.06598 0.624154 -1.107 0
M  V30 9 C 3.69234 0.541364 -0.848493 0
M  V30 10 Cl 5.61721 1.2473 -2.64387 0
M  V30 11 F 7.34153 0.30497 -0.446749 0
M  V30 12 C -0.168413 -1.63449 0.477962 0
M  V30 13 S -0.987017 -0.379094 1.47222 0
M  V30 14 C -2.51758 0.112419 0.670009 0
M  V30 15 N -2.85219 -0.457605 -0.483706 0
M  V30 16 C -4.02469 -0.21084 -1.11507 0
M  V30 17 N -4.30431 -0.857668 -2.33375 0
M  V30 18 C -4.89362 0.681776 -0.504235 0
M  V30 19 C -4.52066 1.26084 0.694804 0
M  V30 20 N -3.34915 0.984374 1.27937 0
M  V30 21 N -5.4607 2.17288 1.30608 0
M  V30 22 H 1.42224 0.608649 1.32103 0
M  V30 23 H 3.83636 -0.753379 2.22804 0
M  V30 24 H 6.28809 -0.600821 1.76752 0
M  V30 25 H 2.98312 0.868027 -1.59375 0
M  V30 26 H -0.219467 -2.63966 0.980822 0
M  V30 27 H -0.738314 -1.79134 -0.497475 0
M  V30 28 H -4.72467 -1.79897 -2.32481 0
M  V30 29 H -4.09088 -0.401792 -3.22799 0
M  V30 30 H -5.81747 0.881066 -0.983929 0
M  V30 31 H -6.49403 1.97657 1.24129 0
M  V30 32 H -5.16376 3.01989 1.81096 0
M  V30 END ATOM
M  V30 BEGIN BOND
M  V30 1 2 1 2
M  V30 2 1 2 3
M  V30 3 1 3 4
M  V30 4 2 4 5
M  V30 5 1 5 6
M  V30 6 2 6 7
M  V30 7 1 7 8
M  V30 8 2 8 9
M  V30 9 1 8 10
M  V30 10 1 7 11
M  V30 11 1 2 12
M  V30 12 1 12 13
M  V30 13 1 13 14
M  V30 14 2 14 15
M  V30 15 1 15 16
M  V30 16 1 16 17
M  V30 17 2 16 18
M  V30 18 1 18 19
M  V30 19 2 19 20
M  V30 20 1 19 21
M  V30 21 1 9 4
M  V30 22 1 20 14
M  V30 23 1 3 22
M  V30 24 1 5 23
M  V30 25 1 6 24
M  V30 26 1 9 25
M  V30 27 1 12 26
M  V30 28 1 12 27
M  V30 29 1 17 28
M  V30 30 1 17 29
M  V30 31 1 18 30
M  V30 32 1 21 31
M  V30 33 1 21 32
M  V30 END BOND
M  V30 END CTAB
M  END
