
     RDKit          3D

  0  0  0  0  0  0  0  0  0  0999 V3000
M  V30 BEGIN CTAB
M  V30 COUNTS 19 19 0 0 0
M  V30 BEGIN ATOM
M  V30 1 N -1.86787 -1.38347 0.603771 0
M  V30 2 C -1.93401 -0.109414 -0.0463254 0
M  V30 3 C -0.806423 0.810899 0.359517 0
M  V30 4 C 0.519754 0.226938 0.0245495 0
M  V30 5 O 1.02855 0.108715 -1.15324 0
M  V30 6 C 2.2302 -0.456735 -1.09665 0
M  V30 7 C 2.52469 -0.727162 0.224629 0
M  V30 8 C 1.42547 -0.286276 0.930082 0
M  V30 9 Br 4.12377 -1.54008 0.89941 0
M  V30 10 Br 3.34853 -0.825523 -2.60534 0
M  V30 11 N -1.02181 2.06479 -0.379961 0
M  V30 12 H -2.08368 -2.14075 -0.0809543 0
M  V30 13 H -0.939862 -1.60068 1.03249 0
M  V30 14 H -2.91908 0.345724 0.17905 0
M  V30 15 H -1.93598 -0.265495 -1.16241 0
M  V30 16 H -0.913995 1.02766 1.42215 0
M  V30 17 H 1.33203 -0.35057 1.9992 0
M  V30 18 H -1.91637 2.45125 -0.0308691 0
M  V30 19 H -0.193923 2.6502 -0.212039 0
M  V30 END ATOM
M  V30 BEGIN BOND
M  V30 1 1 1 2
M  V30 2 1 2 3
M  V30 3 1 3 4
M  V30 4 1 4 5
M  V30 5 1 5 6
M  V30 6 2 6 7
M  V30 7 1 7 8
M  V30 8 1 7 9
M  V30 9 1 6 10
M  V30 10 1 3 11
M  V30 11 2 8 4
M  V30 12 1 1 12
M  V30 13 1 1 13
M  V30 14 1 2 14
M  V30 15 1 2 15
M  V30 16 1 3 16
M  V30 17 1 8 17
M  V30 18 1 11 18
M  V30 19 1 11 19
M  V30 END BOND
M  V30 END CTAB
M  END
