
     RDKit          3D

  0  0  0  0  0  0  0  0  0  0999 V3000
M  V30 BEGIN CTAB
M  V30 COUNTS 37 40 0 0 0
M  V30 BEGIN ATOM
M  V30 1 N -6.48009 -0.407923 0.102824 0
M  V30 2 C -5.08967 -0.163566 0.154147 0
M  V30 3 C -4.36736 0.306948 -0.92715 0
M  V30 4 C -3.00574 0.538241 -0.851032 0
M  V30 5 C -2.32899 0.310507 0.290942 0
M  V30 6 C -3.02971 -0.160609 1.38777 0
M  V30 7 C -4.38628 -0.392299 1.31647 0
M  V30 8 C -0.870703 0.510067 0.491661 0
M  V30 9 C -0.535853 1.50258 1.39087 0
M  V30 10 S 1.16231 1.52901 1.33806 0
M  V30 11 C 1.41913 0.295896 0.192257 0
M  V30 12 C 2.57525 -0.251351 -0.348396 0
M  V30 13 C 2.48829 -1.28667 -1.27735 0
M  V30 14 N 1.2474 -1.67139 -1.57185 0
M  V30 15 C 0.122276 -1.16068 -1.06575 0
M  V30 16 N -1.08244 -1.75749 -1.51266 0
M  V30 17 C 0.146067 -0.113127 -0.125932 0
M  V30 18 C 3.88517 0.241065 0.0409816 0
M  V30 19 C 4.16867 1.58633 0.131939 0
M  V30 20 C 5.42262 1.9559 0.504083 0
M  V30 21 N 6.40465 1.07774 0.789216 0
M  V30 22 C 6.1693 -0.236149 0.712642 0
M  V30 23 C 4.91472 -0.654511 0.340046 0
M  V30 24 H -7.09396 -0.335692 0.939859 0
M  V30 25 H -6.92636 -0.671934 -0.799444 0
M  V30 26 H -4.91061 0.492883 -1.85477 0
M  V30 27 H -2.46649 0.91231 -1.70899 0
M  V30 28 H -2.51156 -0.357489 2.33557 0
M  V30 29 H -4.93291 -0.763341 2.18348 0
M  V30 30 H -1.17064 2.14441 2.01136 0
M  V30 31 H 3.39153 -1.67853 -1.66823 0
M  V30 32 H -1.63006 -2.3098 -0.821859 0
M  V30 33 H -1.4283 -1.66752 -2.47225 0
M  V30 34 H 3.41401 2.33043 -0.086794 0
M  V30 35 H 5.67259 3.00826 0.58357 0
M  V30 36 H 6.93702 -0.986133 0.935216 0
M  V30 37 H 4.70673 -1.71636 0.272905 0
M  V30 END ATOM
M  V30 BEGIN BOND
M  V30 1 1 1 2
M  V30 2 2 2 3
M  V30 3 1 3 4
M  V30 4 2 4 5
M  V30 5 1 5 6
M  V30 6 2 6 7
M  V30 7 1 5 8
M  V30 8 2 8 9
M  V30 9 1 9 10
M  V30 10 1 10 11
M  V30 11 2 11 12
M  V30 12 1 12 13
M  V30 13 2 13 14
M  V30 14 1 14 15
M  V30 15 1 15 16
M  V30 16 2 15 17
M  V30 17 1 12 18
M  V30 18 2 18 19
M  V30 19 1 19 20
M  V30 20 2 20 21
M  V30 21 1 21 22
M  V30 22 2 22 23
M  V30 23 1 7 2
M  V30 24 1 17 8
M  V30 25 1 23 18
M  V30 26 1 17 11
M  V30 27 1 1 24
M  V30 28 1 1 25
M  V30 29 1 3 26
M  V30 30 1 4 27
M  V30 31 1 6 28
M  V30 32 1 7 29
M  V30 33 1 9 30
M  V30 34 1 13 31
M  V30 35 1 16 32
M  V30 36 1 16 33
M  V30 37 1 19 34
M  V30 38 1 20 35
M  V30 39 1 22 36
M  V30 40 1 23 37
M  V30 END BOND
M  V30 END CTAB
M  END
