
     RDKit          3D

  0  0  0  0  0  0  0  0  0  0999 V3000
M  V30 BEGIN CTAB
M  V30 COUNTS 31 31 0 0 0
M  V30 BEGIN ATOM
M  V30 1 C -3.66155 1.44532 -0.344539 0
M  V30 2 C -3.59045 -0.035002 -0.504808 0
M  V30 3 C -2.49221 -0.67181 0.312257 0
M  V30 4 C -1.12556 -0.139998 -0.0666004 0
M  V30 5 C -0.12301 -0.850973 0.815863 0
M  V30 6 C 1.26646 -0.448432 0.573587 0
M  V30 7 C 2.30821 -1.18907 1.07297 0
M  V30 8 C 3.64006 -0.81556 0.847999 0
M  V30 9 C 3.90908 0.310831 0.115346 0
M  V30 10 C 2.85265 1.0608 -0.39036 0
M  V30 11 C 1.55543 0.669923 -0.153548 0
M  V30 12 N 3.1298 2.2228 -1.14618 0
M  V30 13 N -0.19778 -2.29568 0.568707 0
M  V30 14 H -4.69477 1.79723 -0.0621378 0
M  V30 15 H -3.48532 1.90983 -1.35518 0
M  V30 16 H -2.97844 1.85977 0.417752 0
M  V30 17 H -3.52158 -0.342916 -1.55056 0
M  V30 18 H -4.55126 -0.459187 -0.113646 0
M  V30 19 H -2.48882 -1.75913 0.0911679 0
M  V30 20 H -2.62345 -0.544026 1.38877 0
M  V30 21 H -1.10596 0.940255 0.193785 0
M  V30 22 H -0.857296 -0.310189 -1.10795 0
M  V30 23 H -0.433725 -0.688195 1.87873 0
M  V30 24 H 2.08653 -2.08219 1.65376 0
M  V30 25 H 4.45554 -1.4045 1.24493 0
M  V30 26 H 4.91983 0.632201 -0.0801374 0
M  V30 27 H 0.756279 1.25975 -0.551314 0
M  V30 28 H 3.62717 2.13072 -2.04481 0
M  V30 29 H 2.83393 3.14624 -0.794229 0
M  V30 30 H 0.500617 -2.5159 -0.190571 0
M  V30 31 H 0.0895674 -2.8329 1.40411 0
M  V30 END ATOM
M  V30 BEGIN BOND
M  V30 1 1 1 2
M  V30 2 1 2 3
M  V30 3 1 3 4
M  V30 4 1 4 5
M  V30 5 1 5 6
M  V30 6 2 6 7
M  V30 7 1 7 8
M  V30 8 2 8 9
M  V30 9 1 9 10
M  V30 10 2 10 11
M  V30 11 1 10 12
M  V30 12 1 5 13
M  V30 13 1 11 6
M  V30 14 1 1 14
M  V30 15 1 1 15
M  V30 16 1 1 16
M  V30 17 1 2 17
M  V30 18 1 2 18
M  V30 19 1 3 19
M  V30 20 1 3 20
M  V30 21 1 4 21
M  V30 22 1 4 22
M  V30 23 1 5 23
M  V30 24 1 7 24
M  V30 25 1 8 25
M  V30 26 1 9 26
M  V30 27 1 11 27
M  V30 28 1 12 28
M  V30 29 1 12 29
M  V30 30 1 13 30
M  V30 31 1 13 31
M  V30 END BOND
M  V30 END CTAB
M  END
