
     RDKit          3D

  0  0  0  0  0  0  0  0  0  0999 V3000
M  V30 BEGIN CTAB
M  V30 COUNTS 17 17 0 0 0
M  V30 BEGIN ATOM
M  V30 1 N -1.89729 3.15295 0.169858 0
M  V30 2 C -1.29864 2.15121 0.104677 0
M  V30 3 C -0.57431 0.917534 0.0460302 0
M  V30 4 C -1.29325 -0.25632 0.143247 0
M  V30 5 N -2.71066 -0.232624 0.296876 0
M  V30 6 C -0.584595 -1.43836 0.0854731 0
M  V30 7 C 0.786635 -1.44057 -0.063489 0
M  V30 8 C 1.51026 -0.270183 -0.161157 0
M  V30 9 C 0.797181 0.911622 -0.102903 0
M  V30 10 Br 1.77987 2.54101 -0.236207 0
M  V30 11 N 2.92114 -0.273629 -0.314387 0
M  V30 12 H -3.13903 0.0233822 1.21341 0
M  V30 13 H -3.37861 -0.461933 -0.471555 0
M  V30 14 H -1.16185 -2.34826 0.163017 0
M  V30 15 H 1.32854 -2.38349 -0.107035 0
M  V30 16 H 3.53592 0.502368 -0.00308243 0
M  V30 17 H 3.37867 -1.09471 -0.76277 0
M  V30 END ATOM
M  V30 BEGIN BOND
M  V30 1 3 1 2
M  V30 2 1 2 3
M  V30 3 2 3 4
M  V30 4 1 4 5
M  V30 5 1 4 6
M  V30 6 2 6 7
M  V30 7 1 7 8
M  V30 8 2 8 9
M  V30 9 1 9 10
M  V30 10 1 8 11
M  V30 11 1 9 3
M  V30 12 1 5 12
M  V30 13 1 5 13
M  V30 14 1 6 14
M  V30 15 1 7 15
M  V30 16 1 11 16
M  V30 17 1 11 17
M  V30 END BOND
M  V30 END CTAB
M  END
