
     RDKit          3D

  0  0  0  0  0  0  0  0  0  0999 V3000
M  V30 BEGIN CTAB
M  V30 COUNTS 29 29 0 0 0
M  V30 BEGIN ATOM
M  V30 1 N 5.0484 -0.165895 0.38307 0
M  V30 2 C 3.61446 -0.328296 0.295102 0
M  V30 3 C 3.0339 0.182267 -0.978243 0
M  V30 4 C 1.54107 -0.0462117 -0.948234 0
M  V30 5 N 0.889795 0.627589 0.131452 0
M  V30 6 C -0.513847 0.493533 0.297738 0
M  V30 7 C -1.15293 1.14616 1.34715 0
M  V30 8 C -2.51181 1.03665 1.53572 0
M  V30 9 C -3.27312 0.260182 0.665667 0
M  V30 10 C -2.6565 -0.40063 -0.389332 0
M  V30 11 C -1.30012 -0.260006 -0.534831 0
M  V30 12 N -3.46291 -1.1866 -1.26107 0
M  V30 13 N -4.67563 0.133172 0.841126 0 CHG=1
M  V30 14 O -5.43223 -0.0197993 -0.137006 0
M  V30 15 O -5.22227 0.177511 2.10168 0 CHG=-1
M  V30 16 H 5.55237 -0.464387 -0.463896 0
M  V30 17 H 5.32826 0.762988 0.748449 0
M  V30 18 H 3.33882 -1.40521 0.383198 0
M  V30 19 H 3.1874 0.2563 1.13352 0
M  V30 20 H 3.44074 -0.296173 -1.88655 0
M  V30 21 H 3.17525 1.29197 -1.08673 0
M  V30 22 H 1.06987 0.153114 -1.93472 0
M  V30 23 H 1.37405 -1.15167 -0.780314 0
M  V30 24 H 1.44095 1.20947 0.783445 0
M  V30 25 H -0.516584 1.74102 2.0006 0
M  V30 26 H -2.97151 1.55884 2.36247 0
M  V30 27 H -0.817489 -0.77121 -1.35227 0
M  V30 28 H -3.83545 -2.11402 -1.05144 0
M  V30 29 H -3.69292 -0.769574 -2.20575 0
M  V30 END ATOM
M  V30 BEGIN BOND
M  V30 1 1 1 2
M  V30 2 1 2 3
M  V30 3 1 3 4
M  V30 4 1 4 5
M  V30 5 1 5 6
M  V30 6 2 6 7
M  V30 7 1 7 8
M  V30 8 2 8 9
M  V30 9 1 9 10
M  V30 10 2 10 11
M  V30 11 1 10 12
M  V30 12 1 9 13
M  V30 13 2 13 14
M  V30 14 1 13 15
M  V30 15 1 11 6
M  V30 16 1 1 16
M  V30 17 1 1 17
M  V30 18 1 2 18
M  V30 19 1 2 19
M  V30 20 1 3 20
M  V30 21 1 3 21
M  V30 22 1 4 22
M  V30 23 1 4 23
M  V30 24 1 5 24
M  V30 25 1 7 25
M  V30 26 1 8 26
M  V30 27 1 11 27
M  V30 28 1 12 28
M  V30 29 1 12 29
M  V30 END BOND
M  V30 END CTAB
M  END
