
     RDKit          3D

  0  0  0  0  0  0  0  0  0  0999 V3000
M  V30 BEGIN CTAB
M  V30 COUNTS 22 21 0 0 0
M  V30 BEGIN ATOM
M  V30 1 N -2.19261 0.521299 1.05868 0
M  V30 2 C -2.23737 -0.118549 -0.219217 0
M  V30 3 C -1.12911 0.23141 -1.14888 0
M  V30 4 N 0.188974 -0.0711184 -0.701153 0
M  V30 5 S 1.05481 1.14882 0.187455 0
M  V30 6 O 0.483534 2.51828 -0.154103 0
M  V30 7 O 2.49767 1.20302 -0.256993 0
M  V30 8 N 1.04917 0.852119 1.86608 0
M  V30 9 C 0.86229 -1.29475 -0.924544 0
M  V30 10 O 0.274466 -2.19505 -1.56385 0
M  V30 11 C 2.23401 -1.57813 -0.444966 0
M  V30 12 H -2.58738 -0.115794 1.80318 0
M  V30 13 H -2.6741 1.4563 1.06622 0
M  V30 14 H -2.3306 -1.21114 -0.0527195 0
M  V30 15 H -3.18754 0.194182 -0.713547 0
M  V30 16 H -1.316 -0.359249 -2.0923 0
M  V30 17 H -1.21818 1.29729 -1.44576 0
M  V30 18 H 0.375583 1.46518 2.40001 0
M  V30 19 H 1.9876 1.04072 2.26608 0
M  V30 20 H 3.01445 -1.11309 -1.09425 0
M  V30 21 H 2.42798 -1.20013 0.579662 0
M  V30 22 H 2.42233 -2.67163 -0.415099 0
M  V30 END ATOM
M  V30 BEGIN BOND
M  V30 1 1 1 2
M  V30 2 1 2 3
M  V30 3 1 3 4
M  V30 4 1 4 5
M  V30 5 2 5 6
M  V30 6 2 5 7
M  V30 7 1 5 8
M  V30 8 1 4 9
M  V30 9 2 9 10
M  V30 10 1 9 11
M  V30 11 1 1 12
M  V30 12 1 1 13
M  V30 13 1 2 14
M  V30 14 1 2 15
M  V30 15 1 3 16
M  V30 16 1 3 17
M  V30 17 1 8 18
M  V30 18 1 8 19
M  V30 19 1 11 20
M  V30 20 1 11 21
M  V30 21 1 11 22
M  V30 END BOND
M  V30 END CTAB
M  END
