
     RDKit          3D

  0  0  0  0  0  0  0  0  0  0999 V3000
M  V30 BEGIN CTAB
M  V30 COUNTS 34 36 0 0 0
M  V30 BEGIN ATOM
M  V30 1 N -3.02694 3.39185 0.722025 0
M  V30 2 C -2.074 2.74102 0.562584 0
M  V30 3 C -0.889735 1.93769 0.393044 0
M  V30 4 C 0.353005 2.51543 0.557714 0
M  V30 5 N 0.381303 3.91712 0.884599 0
M  V30 6 N 1.48637 1.80815 0.420651 0
M  V30 7 C 1.46521 0.47549 0.109979 0
M  V30 8 C 0.24618 -0.0978924 -0.0533045 0
M  V30 9 C -0.964622 0.600671 0.0796415 0
M  V30 10 C -2.23995 -0.0672365 -0.118132 0
M  V30 11 C -2.42123 -1.2724 0.557703 0
M  V30 12 N -3.55923 -1.93965 0.416243 0
M  V30 13 C -4.56373 -1.4762 -0.377487 0
M  V30 14 N -4.41272 -0.332258 -1.02963 0
M  V30 15 C -3.25688 0.372134 -0.903076 0
M  V30 16 N -5.72862 -2.29491 -0.435869 0
M  V30 17 C 2.70066 -0.270615 -0.0334118 0
M  V30 18 C 3.92554 0.355818 0.142424 0
M  V30 19 C 5.1015 -0.345802 0.00792666 0
M  V30 20 C 5.12859 -1.6844 -0.302999 0
M  V30 21 C 3.92509 -2.31033 -0.478196 0
M  V30 22 C 2.72007 -1.60061 -0.342526 0
M  V30 23 F 3.86691 -3.63777 -0.788628 0
M  V30 24 F 6.29873 -2.35495 -0.430414 0
M  V30 25 H 0.561412 4.26169 1.84426 0
M  V30 26 H 0.213178 4.59293 0.11911 0
M  V30 27 H 0.14585 -1.13644 -0.297473 0
M  V30 28 H -1.64959 -1.67431 1.1966 0
M  V30 29 H -3.14985 1.29565 -1.44468 0
M  V30 30 H -6.07681 -2.87315 0.338283 0
M  V30 31 H -6.24851 -2.28505 -1.35255 0
M  V30 32 H 3.88762 1.40911 0.386675 0
M  V30 33 H 6.05423 0.144937 0.14551 0
M  V30 34 H 1.80095 -2.16572 -0.496586 0
M  V30 END ATOM
M  V30 BEGIN BOND
M  V30 1 3 1 2
M  V30 2 1 2 3
M  V30 3 2 3 4
M  V30 4 1 4 5
M  V30 5 1 4 6
M  V30 6 2 6 7
M  V30 7 1 7 8
M  V30 8 2 8 9
M  V30 9 1 9 10
M  V30 10 2 10 11
M  V30 11 1 11 12
M  V30 12 2 12 13
M  V30 13 1 13 14
M  V30 14 2 14 15
M  V30 15 1 13 16
M  V30 16 1 7 17
M  V30 17 2 17 18
M  V30 18 1 18 19
M  V30 19 2 19 20
M  V30 20 1 20 21
M  V30 21 2 21 22
M  V30 22 1 21 23
M  V30 23 1 20 24
M  V30 24 1 9 3
M  V30 25 1 15 10
M  V30 26 1 22 17
M  V30 27 1 5 25
M  V30 28 1 5 26
M  V30 29 1 8 27
M  V30 30 1 11 28
M  V30 31 1 15 29
M  V30 32 1 16 30
M  V30 33 1 16 31
M  V30 34 1 18 32
M  V30 35 1 19 33
M  V30 36 1 22 34
M  V30 END BOND
M  V30 END CTAB
M  END
