
     RDKit          3D

  0  0  0  0  0  0  0  0  0  0999 V3000
M  V30 BEGIN CTAB
M  V30 COUNTS 21 22 0 0 0
M  V30 BEGIN ATOM
M  V30 1 N -1.73842 -1.85008 0.351262 0
M  V30 2 C -1.89565 -0.448006 0.292783 0
M  V30 3 C -3.17222 0.0714662 0.358126 0
M  V30 4 N -3.34157 1.38923 0.304702 0
M  V30 5 C -2.307 2.23742 0.188648 0
M  V30 6 C -1.02833 1.72355 0.122876 0
M  V30 7 C -0.800975 0.365945 0.174136 0
M  V30 8 C 0.560531 -0.165772 0.10334 0
M  V30 9 N 0.966936 -1.42985 0.137135 0
M  V30 10 N 2.285 -1.46537 0.0447862 0
M  V30 11 C 2.75002 -0.210661 -0.0507642 0
M  V30 12 N 1.668 0.584626 -0.0130228 0
M  V30 13 N 4.0771 0.25797 -0.168823 0
M  V30 14 H -1.25709 -2.27509 1.16674 0
M  V30 15 H -2.11256 -2.4349 -0.433205 0
M  V30 16 H -4.05249 -0.583684 0.45356 0
M  V30 17 H -2.46124 3.32605 0.145547 0
M  V30 18 H -0.184803 2.38494 0.0297453 0
M  V30 19 H 2.89419 -2.32991 0.0442424 0
M  V30 20 H 4.70034 -0.158514 -0.876008 0
M  V30 21 H 4.45024 1.01065 0.433687 0
M  V30 END ATOM
M  V30 BEGIN BOND
M  V30 1 1 1 2
M  V30 2 2 2 3
M  V30 3 1 3 4
M  V30 4 2 4 5
M  V30 5 1 5 6
M  V30 6 2 6 7
M  V30 7 1 7 8
M  V30 8 2 8 9
M  V30 9 1 9 10
M  V30 10 1 10 11
M  V30 11 2 11 12
M  V30 12 1 11 13
M  V30 13 1 7 2
M  V30 14 1 12 8
M  V30 15 1 1 14
M  V30 16 1 1 15
M  V30 17 1 3 16
M  V30 18 1 5 17
M  V30 19 1 6 18
M  V30 20 1 10 19
M  V30 21 1 13 20
M  V30 22 1 13 21
M  V30 END BOND
M  V30 END CTAB
M  END
