
     RDKit          3D

  0  0  0  0  0  0  0  0  0  0999 V3000
M  V30 BEGIN CTAB
M  V30 COUNTS 24 25 0 0 0
M  V30 BEGIN ATOM
M  V30 1 C 2.79343 0.203505 -1.83694 0
M  V30 2 S 2.22374 -0.826238 -0.455839 0
M  V30 3 C 1.13281 0.0519538 0.671016 0
M  V30 4 C 1.80006 1.2027 1.45302 0
M  V30 5 C 1.39708 -0.0433578 2.13617 0
M  V30 6 C -0.281886 0.327048 0.253535 0
M  V30 7 N -0.87899 1.5363 0.120121 0
M  V30 8 C -2.15943 1.36653 -0.275953 0
M  V30 9 N -2.40985 0.0497472 -0.404804 0
M  V30 10 C -1.25292 -0.59226 -0.0785859 0
M  V30 11 N -1.10916 -1.99442 -0.087724 0
M  V30 12 N -3.60588 -0.572497 -0.795072 0
M  V30 13 H 3.03576 -0.512337 -2.66666 0
M  V30 14 H 3.71502 0.732112 -1.52143 0
M  V30 15 H 2.01237 0.930887 -2.1109 0
M  V30 16 H 2.87712 1.38238 1.27889 0
M  V30 17 H 1.22436 2.14384 1.54854 0
M  V30 18 H 0.497431 -0.0914937 2.78248 0
M  V30 19 H 2.21802 -0.682793 2.5153 0
M  V30 20 H -2.91013 2.12502 -0.471687 0
M  V30 21 H -0.377985 -2.52288 -0.610544 0
M  V30 22 H -1.77727 -2.57897 0.470207 0
M  V30 23 H -4.02992 -0.408835 -1.73762 0
M  V30 24 H -4.13377 -1.22594 -0.17551 0
M  V30 END ATOM
M  V30 BEGIN BOND
M  V30 1 1 1 2
M  V30 2 1 2 3
M  V30 3 1 3 4
M  V30 4 1 4 5
M  V30 5 1 3 6
M  V30 6 1 6 7
M  V30 7 2 7 8
M  V30 8 1 8 9
M  V30 9 1 9 10
M  V30 10 1 10 11
M  V30 11 1 9 12
M  V30 12 1 5 3
M  V30 13 2 10 6
M  V30 14 1 1 13
M  V30 15 1 1 14
M  V30 16 1 1 15
M  V30 17 1 4 16
M  V30 18 1 4 17
M  V30 19 1 5 18
M  V30 20 1 5 19
M  V30 21 1 8 20
M  V30 22 1 11 21
M  V30 23 1 11 22
M  V30 24 1 12 23
M  V30 25 1 12 24
M  V30 END BOND
M  V30 END CTAB
M  END
