
     RDKit          3D

  0  0  0  0  0  0  0  0  0  0999 V3000
M  V30 BEGIN CTAB
M  V30 COUNTS 26 27 0 0 0
M  V30 BEGIN ATOM
M  V30 1 N -4.97958 0.0398858 -0.0642107 0
M  V30 2 C -3.56325 0.0676554 0.00802245 0
M  V30 3 C -2.81707 -0.804483 -0.792123 0
M  V30 4 C -1.44865 -0.816167 -0.759144 0
M  V30 5 C -0.737151 0.0360002 0.0690257 0
M  V30 6 C -1.48643 0.892026 0.853698 0
M  V30 7 C -2.85759 0.914506 0.831026 0
M  V30 8 C 0.72082 0.00222999 0.0844253 0
M  V30 9 C 1.44563 1.15124 0.345413 0
M  V30 10 C 2.827 1.16218 0.368581 0
M  V30 11 C 3.54127 0.00620931 0.127804 0
M  V30 12 N 4.9645 0.00192248 0.148014 0
M  V30 13 C 2.81708 -1.14186 -0.13298 0
M  V30 14 Cl 3.66217 -2.63285 -0.444629 0
M  V30 15 C 1.43952 -1.15027 -0.155608 0
M  V30 16 H -5.54983 0.62209 -0.711954 0
M  V30 17 H -5.47941 -0.610471 0.577872 0
M  V30 18 H -3.37654 -1.46135 -1.43069 0
M  V30 19 H -0.882833 -1.49941 -1.3864 0
M  V30 20 H -0.910289 1.56178 1.50544 0
M  V30 21 H -3.40881 1.59371 1.45524 0
M  V30 22 H 0.85142 2.05679 0.533427 0
M  V30 23 H 3.31455 2.09485 0.578877 0
M  V30 24 H 5.52792 0.498261 0.871967 0
M  V30 25 H 5.50298 -0.520827 -0.593626 0
M  V30 26 H 0.882584 -2.06365 -0.362974 0
M  V30 END ATOM
M  V30 BEGIN BOND
M  V30 1 1 1 2
M  V30 2 2 2 3
M  V30 3 1 3 4
M  V30 4 2 4 5
M  V30 5 1 5 6
M  V30 6 2 6 7
M  V30 7 1 5 8
M  V30 8 2 8 9
M  V30 9 1 9 10
M  V30 10 2 10 11
M  V30 11 1 11 12
M  V30 12 1 11 13
M  V30 13 1 13 14
M  V30 14 2 13 15
M  V30 15 1 7 2
M  V30 16 1 15 8
M  V30 17 1 1 16
M  V30 18 1 1 17
M  V30 19 1 3 18
M  V30 20 1 4 19
M  V30 21 1 6 20
M  V30 22 1 7 21
M  V30 23 1 9 22
M  V30 24 1 10 23
M  V30 25 1 12 24
M  V30 26 1 12 25
M  V30 27 1 15 26
M  V30 END BOND
M  V30 END CTAB
M  END
