
     RDKit          3D

  0  0  0  0  0  0  0  0  0  0999 V3000
M  V30 BEGIN CTAB
M  V30 COUNTS 40 42 0 0 0
M  V30 BEGIN ATOM
M  V30 1 C 5.62152 -0.768624 -1.61899 0
M  V30 2 C 5.09903 -1.29077 -0.32475 0
M  V30 3 N 3.99435 -0.497575 0.20817 0
M  V30 4 C 2.78354 -0.322657 -0.510186 0
M  V30 5 O 2.6751 -0.871391 -1.63307 0
M  V30 6 C 1.69154 0.468438 0.0298036 0 CFG=1
M  V30 7 O 0.582385 0.531738 -0.810593 0
M  V30 8 C -0.483808 0.958316 -0.0667026 0 CFG=2
M  V30 9 C -0.136886 0.77777 1.39473 0 CFG=2
M  V30 10 O 0.292278 2.0076 1.87814 0
M  V30 11 C 1.06292 -0.141186 1.28037 0 CFG=2
M  V30 12 O 1.90455 -0.0410599 2.3757 0
M  V30 13 N -1.7129 0.262527 -0.321764 0
M  V30 14 C -1.96172 -0.927233 -0.88038 0
M  V30 15 N -0.988008 -1.8026 -1.36778 0
M  V30 16 N -3.28467 -1.16937 -0.910005 0
M  V30 17 C -3.89853 -0.121356 -0.362893 0
M  V30 18 C -2.9282 0.770421 0.00402869 0
M  V30 19 N -3.29525 1.92564 0.586676 0
M  V30 20 C -4.56503 2.26703 0.835609 0
M  V30 21 N -5.5381 1.40658 0.484011 0
M  V30 22 C -5.22103 0.239655 -0.10099 0
M  V30 23 N -6.26556 -0.651992 -0.462908 0
M  V30 24 H 5.1995 -1.3153 -2.47592 0
M  V30 25 H 5.26055 0.28796 -1.72454 0
M  V30 26 H 6.726 -0.710226 -1.66175 0
M  V30 27 H 4.66598 -2.31362 -0.526566 0
M  V30 28 H 5.89694 -1.43746 0.397086 0
M  V30 29 H 4.15979 -0.0707642 1.15131 0
M  V30 30 H 1.96423 1.51705 0.27538 0
M  V30 31 H -0.664145 2.03493 -0.306258 0
M  V30 32 H -0.955208 0.33431 1.97902 0
M  V30 33 H -0.413629 2.67317 1.94102 0
M  V30 34 H 0.771348 -1.16948 1.04294 0
M  V30 35 H 1.31747 0.180376 3.16718 0
M  V30 36 H -0.68084 -1.76215 -2.35957 0
M  V30 37 H -0.551561 -2.51292 -0.744682 0
M  V30 38 H -4.8189 3.2207 1.31336 0
M  V30 39 H -6.53197 -0.795443 -1.45751 0
M  V30 40 H -6.77308 -1.17103 0.283276 0
M  V30 END ATOM
M  V30 BEGIN BOND
M  V30 1 1 1 2
M  V30 2 1 2 3
M  V30 3 1 3 4
M  V30 4 2 4 5
M  V30 5 1 4 6
M  V30 6 1 6 7
M  V30 7 1 7 8
M  V30 8 1 8 9
M  V30 9 1 9 10
M  V30 10 1 9 11
M  V30 11 1 11 12
M  V30 12 1 8 13
M  V30 13 1 13 14
M  V30 14 1 14 15
M  V30 15 2 14 16
M  V30 16 1 16 17
M  V30 17 2 17 18
M  V30 18 1 18 19
M  V30 19 2 19 20
M  V30 20 1 20 21
M  V30 21 2 21 22
M  V30 22 1 22 23
M  V30 23 1 11 6
M  V30 24 1 18 13
M  V30 25 1 22 17
M  V30 26 1 1 24
M  V30 27 1 1 25
M  V30 28 1 1 26
M  V30 29 1 2 27
M  V30 30 1 2 28
M  V30 31 1 3 29
M  V30 32 1 6 30 CFG=1
M  V30 33 1 8 31 CFG=1
M  V30 34 1 9 32 CFG=1
M  V30 35 1 10 33
M  V30 36 1 11 34 CFG=3
M  V30 37 1 12 35
M  V30 38 1 15 36
M  V30 39 1 15 37
M  V30 40 1 20 38
M  V30 41 1 23 39
M  V30 42 1 23 40
M  V30 END BOND
M  V30 END CTAB
M  END
