
     RDKit          3D

  0  0  0  0  0  0  0  0  0  0999 V3000
M  V30 BEGIN CTAB
M  V30 COUNTS 35 35 0 0 0
M  V30 BEGIN ATOM
M  V30 1 N 5.85088 -0.117402 -0.797357 0
M  V30 2 C 4.55757 0.342925 -0.282153 0
M  V30 3 C 3.82908 -0.836912 0.302452 0
M  V30 4 C 2.50279 -0.413713 0.840984 0
M  V30 5 N 1.6382 0.161726 -0.155234 0
M  V30 6 C 0.348227 0.606139 0.226435 0
M  V30 7 O 0.00405492 0.484321 1.41237 0
M  V30 8 C -0.52052 1.19113 -0.804964 0
M  V30 9 C -1.87812 1.6205 -0.379108 0
M  V30 10 C -2.76564 0.595648 0.164291 0
M  V30 11 C -3.05246 0.545191 1.51263 0
M  V30 12 C -3.90195 -0.410584 2.02731 0
M  V30 13 C -4.46821 -1.32605 1.16612 0
M  V30 14 C -4.17485 -1.26319 -0.168104 0
M  V30 15 C -3.33006 -0.322444 -0.721225 0
M  V30 16 N -3.05901 -0.294077 -2.12487 0
M  V30 17 F 3.71876 -1.85039 -0.628515 0
M  V30 18 F 4.57431 -1.3213 1.38369 0
M  V30 19 H 5.71252 -1.11537 -1.07048 0
M  V30 20 H 6.50245 -0.0806519 0.0426046 0
M  V30 21 H 4.68172 1.09947 0.51974 0
M  V30 22 H 3.9529 0.739905 -1.12666 0
M  V30 23 H 2.68887 0.366886 1.61792 0
M  V30 24 H 1.95194 -1.25957 1.29996 0
M  V30 25 H 1.97652 0.244733 -1.15748 0
M  V30 26 H -0.0440408 2.1236 -1.25535 0
M  V30 27 H -0.656849 0.451129 -1.64434 0
M  V30 28 H -2.34207 2.10852 -1.29086 0
M  V30 29 H -1.83996 2.47574 0.359322 0
M  V30 30 H -2.61799 1.27136 2.21835 0
M  V30 31 H -4.12949 -0.452584 3.08967 0
M  V30 32 H -5.14446 -2.09229 1.55296 0
M  V30 33 H -4.64158 -2.005 -0.822364 0
M  V30 34 H -2.83758 0.560494 -2.67138 0
M  V30 35 H -3.08597 -1.1993 -2.63636 0
M  V30 END ATOM
M  V30 BEGIN BOND
M  V30 1 1 1 2
M  V30 2 1 2 3
M  V30 3 1 3 4
M  V30 4 1 4 5
M  V30 5 1 5 6
M  V30 6 2 6 7
M  V30 7 1 6 8
M  V30 8 1 8 9
M  V30 9 1 9 10
M  V30 10 2 10 11
M  V30 11 1 11 12
M  V30 12 2 12 13
M  V30 13 1 13 14
M  V30 14 2 14 15
M  V30 15 1 15 16
M  V30 16 1 3 17
M  V30 17 1 3 18
M  V30 18 1 15 10
M  V30 19 1 1 19
M  V30 20 1 1 20
M  V30 21 1 2 21
M  V30 22 1 2 22
M  V30 23 1 4 23
M  V30 24 1 4 24
M  V30 25 1 5 25
M  V30 26 1 8 26
M  V30 27 1 8 27
M  V30 28 1 9 28
M  V30 29 1 9 29
M  V30 30 1 11 30
M  V30 31 1 12 31
M  V30 32 1 13 32
M  V30 33 1 14 33
M  V30 34 1 16 34
M  V30 35 1 16 35
M  V30 END BOND
M  V30 END CTAB
M  END
