
     RDKit          3D

  0  0  0  0  0  0  0  0  0  0999 V3000
M  V30 BEGIN CTAB
M  V30 COUNTS 38 41 0 0 0
M  V30 BEGIN ATOM
M  V30 1 N 0.972891 -2.26848 1.91132 0
M  V30 2 C 1.78323 -1.39616 1.15179 0
M  V30 3 C 1.20856 -0.602658 0.187791 0
M  V30 4 C 2.03618 0.249836 -0.547039 0
M  V30 5 C 3.39147 0.295381 -0.313349 0
M  V30 6 C 4.21409 1.13873 -1.03949 0
M  V30 7 C 3.71141 1.96354 -2.0218 0
M  V30 8 C 2.35335 1.90899 -2.24648 0
M  V30 9 C 1.5241 1.07291 -1.52947 0
M  V30 10 C 3.96727 -0.511262 0.664865 0
M  V30 11 C 3.13402 -1.35514 1.38936 0
M  V30 12 C -0.22167 -0.613605 -0.0983307 0
M  V30 13 C -1.10135 0.233306 0.560121 0
M  V30 14 N -0.630773 1.14845 1.54527 0
M  V30 15 C -2.45283 0.215036 0.282028 0
M  V30 16 C -2.9726 -0.656313 -0.669784 0
M  V30 17 C -4.32949 -0.679656 -0.953866 0
M  V30 18 C -5.19103 0.164118 -0.294978 0
M  V30 19 C -4.65058 1.02223 0.647877 0
M  V30 20 C -3.32452 1.06478 0.944802 0
M  V30 21 C -2.10032 -1.50222 -1.32868 0
M  V30 22 C -0.740484 -1.47647 -1.04167 0
M  V30 23 H 0.419164 -1.91702 2.72478 0
M  V30 24 H 0.919942 -3.28549 1.66263 0
M  V30 25 H 5.2938 1.16773 -0.845541 0
M  V30 26 H 4.36477 2.62117 -2.58554 0
M  V30 27 H 1.94755 2.56652 -3.03066 0
M  V30 28 H 0.455029 1.04705 -1.72454 0
M  V30 29 H 5.02132 -0.472192 0.842727 0
M  V30 30 H 3.57108 -1.98217 2.14756 0
M  V30 31 H -0.0301796 0.8115 2.34188 0
M  V30 32 H -0.904516 2.15965 1.44474 0
M  V30 33 H -4.64575 -1.38588 -1.70508 0
M  V30 34 H -6.24999 0.1474 -0.515224 0
M  V30 35 H -5.32863 1.69277 1.17276 0
M  V30 36 H -2.88525 1.73277 1.68233 0
M  V30 37 H -2.49541 -2.18693 -2.07407 0
M  V30 38 H -0.0338597 -2.13221 -1.5466 0
M  V30 END ATOM
M  V30 BEGIN BOND
M  V30 1 1 1 2
M  V30 2 2 2 3
M  V30 3 1 3 4
M  V30 4 2 4 5
M  V30 5 1 5 6
M  V30 6 2 6 7
M  V30 7 1 7 8
M  V30 8 2 8 9
M  V30 9 1 5 10
M  V30 10 2 10 11
M  V30 11 1 3 12
M  V30 12 2 12 13
M  V30 13 1 13 14
M  V30 14 1 13 15
M  V30 15 2 15 16
M  V30 16 1 16 17
M  V30 17 2 17 18
M  V30 18 1 18 19
M  V30 19 2 19 20
M  V30 20 1 16 21
M  V30 21 2 21 22
M  V30 22 1 11 2
M  V30 23 1 22 12
M  V30 24 1 9 4
M  V30 25 1 20 15
M  V30 26 1 1 23
M  V30 27 1 1 24
M  V30 28 1 6 25
M  V30 29 1 7 26
M  V30 30 1 8 27
M  V30 31 1 9 28
M  V30 32 1 10 29
M  V30 33 1 11 30
M  V30 34 1 14 31
M  V30 35 1 14 32
M  V30 36 1 17 33
M  V30 37 1 18 34
M  V30 38 1 19 35
M  V30 39 1 20 36
M  V30 40 1 21 37
M  V30 41 1 22 38
M  V30 END BOND
M  V30 END CTAB
M  END
