
     RDKit          3D

  0  0  0  0  0  0  0  0  0  0999 V3000
M  V30 BEGIN CTAB
M  V30 COUNTS 36 37 0 0 0
M  V30 BEGIN ATOM
M  V30 1 N -0.859178 -2.5391 1.47878 0
M  V30 2 C -0.954619 -2.83442 0.121565 0
M  V30 3 C -1.3792 -1.7246 -0.778962 0
M  V30 4 N -0.527749 -0.563069 -0.775141 0
M  V30 5 C 0.823586 -0.552761 -1.28245 0 CFG=2
M  V30 6 C 1.88557 -0.844189 -0.280644 0
M  V30 7 C 1.98826 0.0777371 0.880659 0
M  V30 8 N 3.09241 -0.427814 1.71484 0
M  V30 9 C 1.10978 0.702767 -2.08572 0
M  V30 10 N 0.684364 1.89561 -1.43705 0
M  V30 11 C -0.43615 1.88862 -0.589931 0
M  V30 12 C -1.03249 0.672543 -0.265 0
M  V30 13 C -2.12119 0.734667 0.561818 0
M  V30 14 C -2.63393 1.91803 1.07028 0
M  V30 15 C -2.04192 3.10467 0.746292 0
M  V30 16 C -0.943369 3.07704 -0.085184 0
M  V30 17 H -0.472861 -1.67398 1.73346 0
M  V30 18 H -1.51424 -2.94033 2.08217 0
M  V30 19 H -1.68942 -3.69849 0.0437117 0
M  V30 20 H 0.00219526 -3.29941 -0.202554 0
M  V30 21 H -2.45538 -1.4822 -0.708723 0
M  V30 22 H -1.28208 -2.14167 -1.8313 0
M  V30 23 H 0.889682 -1.38539 -2.04723 0
M  V30 24 H 1.87927 -1.87483 0.0720145 0
M  V30 25 H 2.85936 -0.742851 -0.845321 0
M  V30 26 H 2.37342 1.06917 0.509873 0
M  V30 27 H 1.11727 0.149233 1.52699 0
M  V30 28 H 3.97935 0.0564217 1.55281 0
M  V30 29 H 2.81409 -0.489502 2.7167 0
M  V30 30 H 0.490571 0.602888 -3.02457 0
M  V30 31 H 2.18146 0.685495 -2.33926 0
M  V30 32 H 1.20671 2.77387 -1.59311 0
M  V30 33 H -2.61095 -0.161882 0.833542 0
M  V30 34 H -3.50431 1.90436 1.72297 0
M  V30 35 H -2.43557 4.04114 1.14011 0
M  V30 36 H -0.482727 4.02225 -0.336437 0
M  V30 END ATOM
M  V30 BEGIN BOND
M  V30 1 1 1 2
M  V30 2 1 2 3
M  V30 3 1 3 4
M  V30 4 1 4 5
M  V30 5 1 5 6
M  V30 6 1 6 7
M  V30 7 1 7 8
M  V30 8 1 5 9
M  V30 9 1 9 10
M  V30 10 1 10 11
M  V30 11 2 11 12
M  V30 12 1 12 13
M  V30 13 2 13 14
M  V30 14 1 14 15
M  V30 15 2 15 16
M  V30 16 1 12 4
M  V30 17 1 16 11
M  V30 18 1 1 17
M  V30 19 1 1 18
M  V30 20 1 2 19
M  V30 21 1 2 20
M  V30 22 1 3 21
M  V30 23 1 3 22
M  V30 24 1 5 23 CFG=3
M  V30 25 1 6 24
M  V30 26 1 6 25
M  V30 27 1 7 26
M  V30 28 1 7 27
M  V30 29 1 8 28
M  V30 30 1 8 29
M  V30 31 1 9 30
M  V30 32 1 9 31
M  V30 33 1 10 32
M  V30 34 1 13 33
M  V30 35 1 14 34
M  V30 36 1 15 35
M  V30 37 1 16 36
M  V30 END BOND
M  V30 END CTAB
M  END
