
     RDKit          3D

  0  0  0  0  0  0  0  0  0  0999 V3000
M  V30 BEGIN CTAB
M  V30 COUNTS 22 21 0 0 0
M  V30 BEGIN ATOM
M  V30 1 C 0.371024 0.0811674 0.583185 0
M  V30 2 C 1.26405 0.134952 -0.62284 0 CFG=2
M  V30 3 N 1.00492 -0.869676 -1.61137 0
M  V30 4 C 2.69941 0.043966 -0.206959 0
M  V30 5 O 3.18882 0.927043 0.75273 0
M  V30 6 O 3.43095 -0.828334 -0.734 0
M  V30 7 C -1.07917 0.249094 0.324191 0 CFG=1
M  V30 8 O -1.34958 1.49021 -0.280616 0
M  V30 9 C -1.76382 -0.835078 -0.433769 0
M  V30 10 N -3.20701 -0.521534 -0.35949 0
M  V30 11 H 0.684014 0.955723 1.22547 0
M  V30 12 H 0.610136 -0.803697 1.22055 0
M  V30 13 H 1.14264 1.12168 -1.13017 0
M  V30 14 H 1.56263 -1.72612 -1.43638 0
M  V30 15 H 1.20128 -0.522371 -2.56905 0
M  V30 16 H 3.14063 1.92257 0.598087 0
M  V30 17 H -1.65495 0.324602 1.30883 0
M  V30 18 H -1.38279 1.32433 -1.26052 0
M  V30 19 H -1.52587 -0.746513 -1.51567 0
M  V30 20 H -1.55336 -1.84426 -0.0754899 0
M  V30 21 H -3.40151 0.240396 -1.04602 0
M  V30 22 H -3.38246 -0.118163 0.588765 0
M  V30 END ATOM
M  V30 BEGIN BOND
M  V30 1 1 1 2
M  V30 2 1 2 3
M  V30 3 1 2 4
M  V30 4 1 4 5
M  V30 5 2 4 6
M  V30 6 1 1 7
M  V30 7 1 7 8
M  V30 8 1 7 9
M  V30 9 1 9 10
M  V30 10 1 1 11
M  V30 11 1 1 12
M  V30 12 1 2 13 CFG=3
M  V30 13 1 3 14
M  V30 14 1 3 15
M  V30 15 1 5 16
M  V30 16 1 7 17 CFG=1
M  V30 17 1 8 18
M  V30 18 1 9 19
M  V30 19 1 9 20
M  V30 20 1 10 21
M  V30 21 1 10 22
M  V30 END BOND
M  V30 END CTAB
M  END
