
     RDKit          3D

  0  0  0  0  0  0  0  0  0  0999 V3000
M  V30 BEGIN CTAB
M  V30 COUNTS 57 61 0 0 0
M  V30 BEGIN ATOM
M  V30 1 N -2.89175 2.55429 -0.423257 0
M  V30 2 C -2.5762 1.42164 -0.280085 0
M  V30 3 C -2.2518 0.0406334 -0.103232 0
M  V30 4 C -3.27663 -0.908044 0.0151686 0
M  V30 5 N -2.99914 -2.20925 0.187147 0
M  V30 6 C -1.73927 -2.66598 0.253808 0
M  V30 7 C -0.707628 -1.76104 0.141305 0
M  V30 8 C -0.95402 -0.384011 -0.0398013 0
M  V30 9 C 0.0937868 0.503438 -0.144176 0
M  V30 10 C 0.221622 1.95647 -0.326025 0
M  V30 11 C 1.6876 2.21853 -0.339846 0
M  V30 12 O 2.24435 3.34135 -0.471033 0
M  V30 13 N 2.35328 0.983022 -0.178735 0
M  V30 14 C 1.37904 -0.0265497 -0.0636485 0
M  V30 15 N 1.57437 -1.37076 0.111252 0
M  V30 16 C 0.574779 -2.23724 0.214223 0
M  V30 17 N 0.862084 -3.61776 0.392018 0
M  V30 18 C 3.78447 0.776678 -0.131208 0
M  V30 19 C 4.29375 -0.0380433 0.833307 0
M  V30 20 C 5.66017 -0.26063 0.93298 0
M  V30 21 C 6.49715 0.362063 0.0315432 0
M  V30 22 C 5.99782 1.1756 -0.932546 0
M  V30 23 C 4.63608 1.39512 -1.02927 0
M  V30 24 C 6.86648 1.87452 -1.92144 0
M  V30 25 C 7.97335 0.14203 0.117834 0
M  V30 26 N -1.47111 -4.06194 0.436751 0
M  V30 27 N -4.63959 -0.49869 -0.074979 0
M  V30 28 C -5.15088 -0.150356 -1.3618 0
M  V30 29 C -6.15042 0.948975 -1.34647 0
M  V30 30 C -7.07935 0.987151 -0.176602 0
M  V30 31 C -6.43733 0.691743 1.13462 0
M  V30 32 C -5.45845 -0.458145 1.09416 0
M  V30 33 H -0.125685 2.30861 -1.32074 0
M  V30 34 H -0.151263 2.5612 0.533898 0
M  V30 35 H 0.980735 -4.03452 1.33154 0
M  V30 36 H 0.94708 -4.18367 -0.490162 0
M  V30 37 H 3.68286 -0.548817 1.56213 0
M  V30 38 H 6.11361 -0.895693 1.6792 0
M  V30 39 H 4.19272 2.03096 -1.77918 0
M  V30 40 H 6.31963 1.87311 -2.89449 0
M  V30 41 H 7.84748 1.42227 -2.06124 0
M  V30 42 H 6.92155 2.93724 -1.59941 0
M  V30 43 H 8.22646 -0.615907 0.876437 0
M  V30 44 H 8.40518 1.13023 0.376202 0
M  V30 45 H 8.32662 -0.192842 -0.890276 0
M  V30 46 H -1.39196 -4.63615 -0.423388 0
M  V30 47 H -1.36811 -4.45892 1.3901 0
M  V30 48 H -4.30615 0.145282 -2.05142 0
M  V30 49 H -5.67418 -1.04535 -1.81293 0
M  V30 50 H -5.66357 1.94263 -1.47135 0
M  V30 51 H -6.81743 0.82018 -2.25963 0
M  V30 52 H -7.4499 2.05478 -0.107912 0
M  V30 53 H -7.98837 0.380344 -0.324464 0
M  V30 54 H -5.94202 1.63756 1.48784 0
M  V30 55 H -7.234 0.404178 1.859 0
M  V30 56 H -5.99734 -1.4262 1.25906 0
M  V30 57 H -4.77054 -0.335294 1.97668 0
M  V30 END ATOM
M  V30 BEGIN BOND
M  V30 1 3 1 2
M  V30 2 1 2 3
M  V30 3 2 3 4
M  V30 4 1 4 5
M  V30 5 2 5 6
M  V30 6 1 6 7
M  V30 7 2 7 8
M  V30 8 1 8 9
M  V30 9 1 9 10
M  V30 10 1 10 11
M  V30 11 2 11 12
M  V30 12 1 11 13
M  V30 13 1 13 14
M  V30 14 1 14 15
M  V30 15 2 15 16
M  V30 16 1 16 17
M  V30 17 1 13 18
M  V30 18 2 18 19
M  V30 19 1 19 20
M  V30 20 2 20 21
M  V30 21 1 21 22
M  V30 22 2 22 23
M  V30 23 1 22 24
M  V30 24 1 21 25
M  V30 25 1 6 26
M  V30 26 1 4 27
M  V30 27 1 27 28
M  V30 28 1 28 29
M  V30 29 1 29 30
M  V30 30 1 30 31
M  V30 31 1 31 32
M  V30 32 1 8 3
M  V30 33 2 14 9
M  V30 34 1 23 18
M  V30 35 1 32 27
M  V30 36 1 16 7
M  V30 37 1 10 33
M  V30 38 1 10 34
M  V30 39 1 17 35
M  V30 40 1 17 36
M  V30 41 1 19 37
M  V30 42 1 20 38
M  V30 43 1 23 39
M  V30 44 1 24 40
M  V30 45 1 24 41
M  V30 46 1 24 42
M  V30 47 1 25 43
M  V30 48 1 25 44
M  V30 49 1 25 45
M  V30 50 1 26 46
M  V30 51 1 26 47
M  V30 52 1 28 48
M  V30 53 1 28 49
M  V30 54 1 29 50
M  V30 55 1 29 51
M  V30 56 1 30 52
M  V30 57 1 30 53
M  V30 58 1 31 54
M  V30 59 1 31 55
M  V30 60 1 32 56
M  V30 61 1 32 57
M  V30 END BOND
M  V30 END CTAB
M  END
