
     RDKit          3D

  0  0  0  0  0  0  0  0  0  0999 V3000
M  V30 BEGIN CTAB
M  V30 COUNTS 47 50 0 0 0
M  V30 BEGIN ATOM
M  V30 1 N 4.32641 4.12251 -0.391306 0
M  V30 2 C 4.40172 2.76881 -0.00645018 0
M  V30 3 N 3.5715 2.27993 0.935459 0
M  V30 4 C 3.62782 0.986953 1.31769 0
M  V30 5 C 2.72957 0.436277 2.35793 0
M  V30 6 O 1.42298 0.207908 1.96074 0
M  V30 7 C 1.05937 -0.665836 0.933818 0
M  V30 8 O 1.993 -1.26255 0.36077 0
M  V30 9 C -0.311483 -0.872496 0.551487 0
M  V30 10 C -1.11137 0.228802 0.208067 0
M  V30 11 C -2.3899 0.12194 -0.255975 0
M  V30 12 N -2.88191 -1.1221 -0.379322 0
M  V30 13 C -2.17504 -2.23109 -0.0672067 0
M  V30 14 C -0.85363 -2.12211 0.413477 0
M  V30 15 C -0.450368 -3.39444 0.654512 0
M  V30 16 C 0.849807 -3.83204 1.22258 0
M  V30 17 N -1.48536 -4.22217 0.325486 0
M  V30 18 N -2.50435 -3.53331 -0.101278 0
M  V30 19 C -3.81533 -4.01785 -0.556984 0
M  V30 20 C -3.21045 1.27908 -0.610081 0
M  V30 21 C -4.48989 1.07308 -1.06987 0
M  V30 22 C -5.28782 2.17345 -1.41309 0
M  V30 23 C -4.82105 3.46268 -1.30114 0
M  V30 24 C -3.54379 3.66396 -0.841934 0
M  V30 25 C -2.76663 2.56658 -0.506467 0
M  V30 26 N 4.54949 0.225671 0.71072 0
M  V30 27 C 5.38521 0.685266 -0.226485 0
M  V30 28 N 5.31022 1.97105 -0.588815 0
M  V30 29 N 6.32816 -0.19342 -0.813878 0
M  V30 30 H 4.84171 4.90544 0.0677033 0
M  V30 31 H 3.71136 4.37745 -1.1966 0
M  V30 32 H 2.68341 1.13347 3.24696 0
M  V30 33 H 3.17419 -0.497733 2.78756 0
M  V30 34 H -0.648765 1.18754 0.334313 0
M  V30 35 H 0.606524 -4.84016 1.70796 0
M  V30 36 H 1.6035 -4.02243 0.466786 0
M  V30 37 H 1.16706 -3.22728 2.10079 0
M  V30 38 H -4.04766 -4.99006 -0.0741833 0
M  V30 39 H -4.56592 -3.24472 -0.34269 0
M  V30 40 H -3.77959 -4.2298 -1.66428 0
M  V30 41 H -4.85863 0.0642422 -1.15876 0
M  V30 42 H -6.30108 1.95057 -1.77448 0
M  V30 43 H -5.50069 4.25517 -1.58684 0
M  V30 44 H -3.16614 4.67342 -0.74981 0
M  V30 45 H -1.76011 2.78779 -0.147473 0
M  V30 46 H 6.8852 -0.843903 -0.221026 0
M  V30 47 H 6.49873 -0.223562 -1.84132 0
M  V30 END ATOM
M  V30 BEGIN BOND
M  V30 1 1 1 2
M  V30 2 2 2 3
M  V30 3 1 3 4
M  V30 4 1 4 5
M  V30 5 1 5 6
M  V30 6 1 6 7
M  V30 7 2 7 8
M  V30 8 1 7 9
M  V30 9 2 9 10
M  V30 10 1 10 11
M  V30 11 2 11 12
M  V30 12 1 12 13
M  V30 13 2 13 14
M  V30 14 1 14 15
M  V30 15 1 15 16
M  V30 16 2 15 17
M  V30 17 1 17 18
M  V30 18 1 18 19
M  V30 19 1 11 20
M  V30 20 2 20 21
M  V30 21 1 21 22
M  V30 22 2 22 23
M  V30 23 1 23 24
M  V30 24 2 24 25
M  V30 25 2 4 26
M  V30 26 1 26 27
M  V30 27 2 27 28
M  V30 28 1 27 29
M  V30 29 1 28 2
M  V30 30 1 14 9
M  V30 31 1 25 20
M  V30 32 1 18 13
M  V30 33 1 1 30
M  V30 34 1 1 31
M  V30 35 1 5 32
M  V30 36 1 5 33
M  V30 37 1 10 34
M  V30 38 1 16 35
M  V30 39 1 16 36
M  V30 40 1 16 37
M  V30 41 1 19 38
M  V30 42 1 19 39
M  V30 43 1 19 40
M  V30 44 1 21 41
M  V30 45 1 22 42
M  V30 46 1 23 43
M  V30 47 1 24 44
M  V30 48 1 25 45
M  V30 49 1 29 46
M  V30 50 1 29 47
M  V30 END BOND
M  V30 END CTAB
M  END
