
     RDKit          3D

  0  0  0  0  0  0  0  0  0  0999 V3000
M  V30 BEGIN CTAB
M  V30 COUNTS 39 40 0 0 0
M  V30 BEGIN ATOM
M  V30 1 N 4.15799 1.40851 0.407954 0
M  V30 2 C 3.64846 0.707112 -0.746692 0
M  V30 3 C 3.0858 -0.638074 -0.47891 0
M  V30 4 N 1.99313 -0.725198 0.402342 0
M  V30 5 C 1.39569 -2.01213 0.27906 0
M  V30 6 C 0.173293 -2.24822 1.10918 0
M  V30 7 C -0.900824 -1.23206 1.03074 0
M  V30 8 C -1.13741 -0.628861 -0.312312 0 CFG=2
M  V30 9 C 0.116484 0.209562 -0.694688 0
M  V30 10 C 1.06798 0.331838 0.470086 0
M  V30 11 C -2.19081 0.413437 -0.218646 0
M  V30 12 C -1.96115 1.66802 0.33809 0
M  V30 13 C -2.9065 2.68501 0.212925 0
M  V30 14 C -4.0791 2.49049 -0.438423 0
M  V30 15 N -4.30177 1.27729 -0.968907 0
M  V30 16 C -3.41126 0.269021 -0.87825 0
M  V30 17 N -3.74714 -1.01318 -1.3983 0
M  V30 18 H 5.1737 1.2014 0.517684 0
M  V30 19 H 4.0334 2.4421 0.299611 0
M  V30 20 H 2.93737 1.36414 -1.32786 0
M  V30 21 H 4.50864 0.593531 -1.43977 0
M  V30 22 H 3.93455 -1.22973 0.0184885 0
M  V30 23 H 2.91554 -1.18615 -1.42497 0
M  V30 24 H 1.15785 -2.25298 -0.816048 0
M  V30 25 H 2.14596 -2.77692 0.541038 0
M  V30 26 H -0.201826 -3.273 0.749099 0
M  V30 27 H 0.461726 -2.43823 2.15408 0
M  V30 28 H -1.87479 -1.88631 1.1565 0
M  V30 29 H -1.00132 -0.584088 1.89037 0
M  V30 30 H -1.36026 -1.33304 -1.09145 0
M  V30 31 H 0.568792 -0.307075 -1.55468 0
M  V30 32 H -0.167272 1.22121 -1.00786 0
M  V30 33 H 1.5423 1.34043 0.469841 0
M  V30 34 H 0.574777 0.286577 1.46386 0
M  V30 35 H -1.0464 1.88484 0.848944 0
M  V30 36 H -2.66953 3.65412 0.649579 0
M  V30 37 H -4.84367 3.27118 -0.54826 0
M  V30 38 H -3.11162 -1.55191 -1.96164 0
M  V30 39 H -4.68079 -1.40266 -1.10519 0
M  V30 END ATOM
M  V30 BEGIN BOND
M  V30 1 1 1 2
M  V30 2 1 2 3
M  V30 3 1 3 4
M  V30 4 1 4 5
M  V30 5 1 5 6
M  V30 6 1 6 7
M  V30 7 1 7 8
M  V30 8 1 8 9
M  V30 9 1 9 10
M  V30 10 1 8 11
M  V30 11 2 11 12
M  V30 12 1 12 13
M  V30 13 2 13 14
M  V30 14 1 14 15
M  V30 15 2 15 16
M  V30 16 1 16 17
M  V30 17 1 10 4
M  V30 18 1 16 11
M  V30 19 1 1 18
M  V30 20 1 1 19
M  V30 21 1 2 20
M  V30 22 1 2 21
M  V30 23 1 3 22
M  V30 24 1 3 23
M  V30 25 1 5 24
M  V30 26 1 5 25
M  V30 27 1 6 26
M  V30 28 1 6 27
M  V30 29 1 7 28
M  V30 30 1 7 29
M  V30 31 1 8 30 CFG=3
M  V30 32 1 9 31
M  V30 33 1 9 32
M  V30 34 1 10 33
M  V30 35 1 10 34
M  V30 36 1 12 35
M  V30 37 1 13 36
M  V30 38 1 14 37
M  V30 39 1 17 38
M  V30 40 1 17 39
M  V30 END BOND
M  V30 END CTAB
M  END
