
     RDKit          3D

  0  0  0  0  0  0  0  0  0  0999 V3000
M  V30 BEGIN CTAB
M  V30 COUNTS 46 48 0 0 0
M  V30 BEGIN ATOM
M  V30 1 C 4.8511 -3.05188 1.31461 0
M  V30 2 O 4.07615 -1.99686 0.833337 0
M  V30 3 C 4.50365 -0.715288 0.584183 0
M  V30 4 C 5.80916 -0.366379 0.808569 0
M  V30 5 C 6.27818 0.92737 0.56637 0
M  V30 6 C 5.39458 1.86379 0.0905154 0
M  V30 7 C 4.08498 1.51189 -0.13415 0
M  V30 8 C 3.62126 0.219496 0.108973 0
M  V30 9 C 2.19812 -0.0560576 -0.162912 0
M  V30 10 C 1.42936 -0.109054 1.13403 0
M  V30 11 N 0.0441234 -0.379575 0.953762 0
M  V30 12 C -0.882556 0.431312 0.251552 0
M  V30 13 C -2.21956 0.0316878 0.144526 0
M  V30 14 C -3.14908 0.786594 -0.52165 0
M  V30 15 N -2.77981 1.94506 -1.09254 0
M  V30 16 C -1.49554 2.34725 -1.00013 0
M  V30 17 N -0.5939 1.59644 -0.343374 0
M  V30 18 N -1.14912 3.58051 -1.62047 0
M  V30 19 C -4.57175 0.376847 -0.646301 0
M  V30 20 C -5.19661 0.106617 0.696544 0
M  V30 21 C -5.27155 -1.34684 0.355815 0
M  V30 22 C -4.7952 -1.04816 -1.02468 0
M  V30 23 N -6.65061 -1.82771 0.433796 0
M  V30 24 H 4.72332 -3.234 2.40151 0
M  V30 25 H 5.92065 -2.99952 1.03443 0
M  V30 26 H 4.46556 -3.99073 0.81813 0
M  V30 27 H 6.55861 -1.07056 1.1872 0
M  V30 28 H 7.31217 1.20828 0.742977 0
M  V30 29 H 5.77037 2.87745 -0.0968705 0
M  V30 30 H 3.42688 2.29635 -0.512733 0
M  V30 31 H 1.78464 0.768301 -0.771107 0
M  V30 32 H 2.04897 -0.973055 -0.77366 0
M  V30 33 H 1.57965 0.871531 1.63516 0
M  V30 34 H 1.91196 -0.854343 1.8065 0
M  V30 35 H -0.324807 -1.27725 1.39013 0
M  V30 36 H -2.51448 -0.885865 0.596284 0
M  V30 37 H -1.49242 3.83606 -2.57176 0
M  V30 38 H -0.529312 4.29145 -1.14436 0
M  V30 39 H -5.18107 1.11585 -1.23254 0
M  V30 40 H -4.54403 0.374083 1.55492 0
M  V30 41 H -6.19302 0.58162 0.868481 0
M  V30 42 H -4.60191 -2.0045 0.94779 0
M  V30 43 H -3.86495 -1.58961 -1.32204 0
M  V30 44 H -5.57209 -1.14311 -1.81148 0
M  V30 45 H -7.1149 -1.27441 1.18228 0
M  V30 46 H -7.10518 -1.75107 -0.495325 0
M  V30 END ATOM
M  V30 BEGIN BOND
M  V30 1 1 1 2
M  V30 2 1 2 3
M  V30 3 2 3 4
M  V30 4 1 4 5
M  V30 5 2 5 6
M  V30 6 1 6 7
M  V30 7 2 7 8
M  V30 8 1 8 9
M  V30 9 1 9 10
M  V30 10 1 10 11
M  V30 11 1 11 12
M  V30 12 2 12 13
M  V30 13 1 13 14
M  V30 14 2 14 15
M  V30 15 1 15 16
M  V30 16 2 16 17
M  V30 17 1 16 18
M  V30 18 1 14 19
M  V30 19 1 19 20
M  V30 20 1 20 21
M  V30 21 1 21 22
M  V30 22 1 21 23
M  V30 23 1 8 3
M  V30 24 1 17 12
M  V30 25 1 22 19
M  V30 26 1 1 24
M  V30 27 1 1 25
M  V30 28 1 1 26
M  V30 29 1 4 27
M  V30 30 1 5 28
M  V30 31 1 6 29
M  V30 32 1 7 30
M  V30 33 1 9 31
M  V30 34 1 9 32
M  V30 35 1 10 33
M  V30 36 1 10 34
M  V30 37 1 11 35
M  V30 38 1 13 36
M  V30 39 1 18 37
M  V30 40 1 18 38
M  V30 41 1 19 39
M  V30 42 1 20 40
M  V30 43 1 20 41
M  V30 44 1 21 42
M  V30 45 1 22 43
M  V30 46 1 22 44
M  V30 47 1 23 45
M  V30 48 1 23 46
M  V30 END BOND
M  V30 END CTAB
M  END
