
     RDKit          3D

  0  0  0  0  0  0  0  0  0  0999 V3000
M  V30 BEGIN CTAB
M  V30 COUNTS 54 56 0 0 0
M  V30 BEGIN ATOM
M  V30 1 C 5.97451 -1.34364 0.0911049 0 CFG=1
M  V30 2 N 6.87757 -2.4476 -0.139347 0
M  V30 3 C 5.89127 -0.527786 -1.17358 0
M  V30 4 C 7.22259 0.0360133 -1.5992 0
M  V30 5 S 7.90325 1.12721 -0.312863 0
M  V30 6 C 6.84533 2.57522 -0.153766 0
M  V30 7 C 4.64625 -1.87893 0.488294 0
M  V30 8 O 4.45828 -3.12075 0.566934 0
M  V30 9 O 3.57281 -1.05965 0.785094 0
M  V30 10 P 2.02413 -1.6348 1.24644 0
M  V30 11 O 2.03195 -1.98861 2.91583 0
M  V30 12 O 1.62955 -2.85867 0.487791 0
M  V30 13 O 0.839179 -0.461427 1.00463 0
M  V30 14 C -0.386964 -1.01751 0.626376 0
M  V30 15 C -1.42425 0.0688182 0.414111 0 CFG=1
M  V30 16 O -2.64714 -0.479212 0.0378613 0
M  V30 17 C -3.5002 0.610692 0.246424 0 CFG=2
M  V30 18 C -3.18162 0.928548 1.71176 0 CFG=2
M  V30 19 O -3.65877 2.16744 2.06091 0
M  V30 20 C -1.64859 0.892703 1.64442 0 CFG=2
M  V30 21 O -1.24791 2.21494 1.4238 0
M  V30 22 N -4.88098 0.318123 0.0405676 0
M  V30 23 C -5.73505 -0.19896 0.936719 0
M  V30 24 N -6.94736 -0.328435 0.369218 0
M  V30 25 C -6.88477 0.102926 -0.893952 0
M  V30 26 C -5.58023 0.507182 -1.08926 0
M  V30 27 N -5.22723 0.990003 -2.27951 0
M  V30 28 C -6.10844 1.09192 -3.2895 0
M  V30 29 N -7.37483 0.692089 -3.07716 0
M  V30 30 C -7.81941 0.193002 -1.91031 0
M  V30 31 N -9.14919 -0.230518 -1.67257 0
M  V30 32 H 6.39668 -0.735957 0.917388 0
M  V30 33 H 7.54026 -2.60602 0.626487 0
M  V30 34 H 7.27969 -2.4488 -1.08358 0
M  V30 35 H 5.48293 -1.11163 -2.02078 0
M  V30 36 H 5.22283 0.33855 -0.983423 0
M  V30 37 H 7.96323 -0.722903 -1.90184 0
M  V30 38 H 7.01106 0.624837 -2.53943 0
M  V30 39 H 6.1939 2.64485 -1.03656 0
M  V30 40 H 7.48936 3.47839 -0.121413 0
M  V30 41 H 6.21754 2.54535 0.766649 0
M  V30 42 H 2.14067 -1.16195 3.44999 0
M  V30 43 H -0.245051 -1.50813 -0.363505 0
M  V30 44 H -0.76622 -1.73214 1.37495 0
M  V30 45 H -1.08336 0.703162 -0.435237 0
M  V30 46 H -3.11416 1.44176 -0.379452 0
M  V30 47 H -3.50367 0.11444 2.36216 0
M  V30 48 H -4.02292 2.151 2.98336 0
M  V30 49 H -1.21687 0.459905 2.5529 0
M  V30 50 H -0.944573 2.29511 0.475391 0
M  V30 51 H -5.46916 -0.467092 1.96615 0
M  V30 52 H -5.80775 1.49273 -4.27235 0
M  V30 53 H -9.35043 -1.16502 -1.32159 0
M  V30 54 H -9.92768 0.429211 -1.86205 0
M  V30 END ATOM
M  V30 BEGIN BOND
M  V30 1 1 1 2
M  V30 2 1 1 3
M  V30 3 1 3 4
M  V30 4 1 4 5
M  V30 5 1 5 6
M  V30 6 1 1 7
M  V30 7 2 7 8
M  V30 8 1 7 9
M  V30 9 1 9 10
M  V30 10 1 10 11
M  V30 11 2 10 12
M  V30 12 1 10 13
M  V30 13 1 13 14
M  V30 14 1 14 15
M  V30 15 1 15 16
M  V30 16 1 16 17
M  V30 17 1 17 18
M  V30 18 1 18 19
M  V30 19 1 18 20
M  V30 20 1 20 21
M  V30 21 1 17 22
M  V30 22 1 22 23
M  V30 23 2 23 24
M  V30 24 1 24 25
M  V30 25 2 25 26
M  V30 26 1 26 27
M  V30 27 2 27 28
M  V30 28 1 28 29
M  V30 29 2 29 30
M  V30 30 1 30 31
M  V30 31 1 20 15
M  V30 32 1 26 22
M  V30 33 1 30 25
M  V30 34 1 1 32 CFG=1
M  V30 35 1 2 33
M  V30 36 1 2 34
M  V30 37 1 3 35
M  V30 38 1 3 36
M  V30 39 1 4 37
M  V30 40 1 4 38
M  V30 41 1 6 39
M  V30 42 1 6 40
M  V30 43 1 6 41
M  V30 44 1 11 42
M  V30 45 1 14 43
M  V30 46 1 14 44
M  V30 47 1 15 45 CFG=3
M  V30 48 1 17 46 CFG=3
M  V30 49 1 18 47 CFG=1
M  V30 50 1 19 48
M  V30 51 1 20 49 CFG=1
M  V30 52 1 21 50
M  V30 53 1 23 51
M  V30 54 1 28 52
M  V30 55 1 31 53
M  V30 56 1 31 54
M  V30 END BOND
M  V30 END CTAB
M  END
