
     RDKit          3D

  0  0  0  0  0  0  0  0  0  0999 V3000
M  V30 BEGIN CTAB
M  V30 COUNTS 78 83 0 0 0
M  V30 BEGIN ATOM
M  V30 1 C -4.10622 -4.14884 0.426153 0
M  V30 2 O -4.46919 -2.82569 0.101588 0
M  V30 3 C -3.53017 -1.82854 -0.135709 0
M  V30 4 C -3.96029 -0.540536 -0.468396 0
M  V30 5 N -5.35499 -0.281607 -0.422419 0
M  V30 6 C -5.98857 0.688983 -1.19281 0
M  V30 7 O -5.34668 1.35521 -2.03885 0
M  V30 8 C -7.42446 0.984036 -1.05347 0
M  V30 9 C -8.34511 1.24074 -2.02921 0
M  V30 10 C -9.5584 1.54525 -1.41828 0
M  V30 11 C -9.34786 1.46752 -0.0672739 0
M  V30 12 C -10.3995 1.72507 0.825889 0
M  V30 13 C -11.6495 2.05739 0.360134 0
M  V30 14 C -11.8635 2.13476 -1.00355 0
M  V30 15 C -10.8228 1.87924 -1.89696 0
M  V30 16 N -8.06096 1.13019 0.138527 0
M  V30 17 C -7.46133 1.00416 1.47538 0
M  V30 18 C -3.04084 0.446387 -0.705815 0
M  V30 19 C -1.70438 0.152756 -0.609813 0
M  V30 20 C -1.21867 -1.13172 -0.273573 0
M  V30 21 C -2.17168 -2.07313 -0.0529873 0
M  V30 22 C 0.247113 -1.29702 -0.221274 0
M  V30 23 C 0.886581 -0.990059 -1.43171 0
M  V30 24 S 2.51913 -1.23826 -1.07146 0
M  V30 25 C 2.38492 -1.71436 0.569307 0
M  V30 26 C 3.35043 -2.05854 1.48149 0
M  V30 27 C 4.78531 -2.0006 1.26905 0
M  V30 28 C 5.42869 -1.55668 0.22257 0
M  V30 29 C 6.93794 -1.55451 0.150285 0
M  V30 30 N 7.28454 -0.161604 -0.0298733 0
M  V30 31 C 8.6617 0.160376 -0.0505715 0
M  V30 32 C 8.84848 1.3903 0.853675 0
M  V30 33 C 8.75422 2.66276 0.055238 0
M  V30 34 C 7.87611 2.55456 -1.15555 0
M  V30 35 N 7.96585 3.81724 -1.87403 0
M  V30 36 C 8.35149 1.49577 -2.13035 0
M  V30 37 C 9.16061 0.45808 -1.42524 0
M  V30 38 C 2.92034 -2.40595 2.78321 0
M  V30 39 N 1.61549 -2.36212 3.00462 0
M  V30 40 C 0.672756 -2.01976 2.11127 0
M  V30 41 N -0.648127 -2.00844 2.59287 0
M  V30 42 C 1.01499 -1.66568 0.794619 0
M  V30 43 H -3.36097 -4.55088 -0.308779 0
M  V30 44 H -5.01586 -4.79902 0.396197 0
M  V30 45 H -3.66198 -4.22068 1.42248 0
M  V30 46 H -5.96489 -0.852923 0.230289 0
M  V30 47 H -8.21134 1.22673 -3.09411 0
M  V30 48 H -10.1782 1.65064 1.88126 0
M  V30 49 H -12.4251 2.2503 1.08002 0
M  V30 50 H -12.8249 2.39022 -1.40245 0
M  V30 51 H -10.9818 1.93728 -2.96511 0
M  V30 52 H -6.36576 1.16924 1.40035 0
M  V30 53 H -7.84329 1.83587 2.15073 0
M  V30 54 H -7.70716 0.00273783 1.8537 0
M  V30 55 H -3.3467 1.45423 -0.95066 0
M  V30 56 H -0.997454 0.925635 -0.79708 0
M  V30 57 H -1.84788 -3.08605 0.174376 0
M  V30 58 H 0.448026 -0.667223 -2.37821 0
M  V30 59 H 5.436 -2.37771 2.09096 0
M  V30 60 H 4.88781 -1.17654 -0.614731 0
M  V30 61 H 7.28901 -2.16917 -0.705926 0
M  V30 62 H 7.31109 -2.0111 1.07147 0
M  V30 63 H 6.7967 0.339118 0.773061 0
M  V30 64 H 9.28042 -0.664718 0.37623 0
M  V30 65 H 8.05223 1.41099 1.64472 0
M  V30 66 H 9.81107 1.36089 1.35423 0
M  V30 67 H 9.78654 2.97568 -0.198456 0
M  V30 68 H 8.27011 3.44104 0.720293 0
M  V30 69 H 6.84721 2.41055 -0.828551 0
M  V30 70 H 8.90302 4.22517 -1.79384 0
M  V30 71 H 7.18378 4.43736 -1.62397 0
M  V30 72 H 8.99562 1.92045 -2.93485 0
M  V30 73 H 7.4464 1.07429 -2.62716 0
M  V30 74 H 9.22061 -0.506949 -1.96469 0
M  V30 75 H 10.1897 0.866679 -1.32629 0
M  V30 76 H 3.65651 -2.68319 3.51258 0
M  V30 77 H -1.12931 -2.90505 2.77535 0
M  V30 78 H -1.14275 -1.12101 2.7643 0
M  V30 END ATOM
M  V30 BEGIN BOND
M  V30 1 1 1 2
M  V30 2 1 2 3
M  V30 3 2 3 4
M  V30 4 1 4 5
M  V30 5 1 5 6
M  V30 6 2 6 7
M  V30 7 1 6 8
M  V30 8 2 8 9
M  V30 9 1 9 10
M  V30 10 2 10 11
M  V30 11 1 11 12
M  V30 12 2 12 13
M  V30 13 1 13 14
M  V30 14 2 14 15
M  V30 15 1 11 16
M  V30 16 1 16 17
M  V30 17 1 4 18
M  V30 18 2 18 19
M  V30 19 1 19 20
M  V30 20 2 20 21
M  V30 21 1 20 22
M  V30 22 2 22 23
M  V30 23 1 23 24
M  V30 24 1 24 25
M  V30 25 2 25 26
M  V30 26 1 26 27
M  V30 27 2 27 28
M  V30 28 1 28 29
M  V30 29 1 29 30
M  V30 30 1 30 31
M  V30 31 1 31 32
M  V30 32 1 32 33
M  V30 33 1 33 34
M  V30 34 1 34 35
M  V30 35 1 34 36
M  V30 36 1 36 37
M  V30 37 1 26 38
M  V30 38 2 38 39
M  V30 39 1 39 40
M  V30 40 1 40 41
M  V30 41 2 40 42
M  V30 42 1 21 3
M  V30 43 1 42 22
M  V30 44 1 16 8
M  V30 45 1 42 25
M  V30 46 1 15 10
M  V30 47 1 37 31
M  V30 48 1 1 43
M  V30 49 1 1 44
M  V30 50 1 1 45
M  V30 51 1 5 46
M  V30 52 1 9 47
M  V30 53 1 12 48
M  V30 54 1 13 49
M  V30 55 1 14 50
M  V30 56 1 15 51
M  V30 57 1 17 52
M  V30 58 1 17 53
M  V30 59 1 17 54
M  V30 60 1 18 55
M  V30 61 1 19 56
M  V30 62 1 21 57
M  V30 63 1 23 58
M  V30 64 1 27 59
M  V30 65 1 28 60
M  V30 66 1 29 61
M  V30 67 1 29 62
M  V30 68 1 30 63
M  V30 69 1 31 64
M  V30 70 1 32 65
M  V30 71 1 32 66
M  V30 72 1 33 67
M  V30 73 1 33 68
M  V30 74 1 34 69
M  V30 75 1 35 70
M  V30 76 1 35 71
M  V30 77 1 36 72
M  V30 78 1 36 73
M  V30 79 1 37 74
M  V30 80 1 37 75
M  V30 81 1 38 76
M  V30 82 1 41 77
M  V30 83 1 41 78
M  V30 END BOND
M  V30 END CTAB
M  END
