
     RDKit          3D

  0  0  0  0  0  0  0  0  0  0999 V3000
M  V30 BEGIN CTAB
M  V30 COUNTS 38 42 0 0 0
M  V30 BEGIN ATOM
M  V30 1 N -3.71214 0.11556 0.0214726 0
M  V30 2 C -2.25746 0.0582719 0.0746406 0
M  V30 3 C -1.70606 1.47044 -0.0782977 0
M  V30 4 C -0.213089 1.44909 -0.152872 0
M  V30 5 C 0.317964 0.89505 1.14652 0
M  V30 6 C 1.82259 0.777346 1.12469 0
M  V30 7 C 2.24754 -0.137418 -0.0009964 0
M  V30 8 N 3.68482 -0.276138 0.0158551 0
M  V30 9 C 1.74801 0.438679 -1.31156 0
M  V30 10 C 0.258385 0.555201 -1.26405 0
M  V30 11 C -0.311798 -0.843595 -1.10464 0
M  V30 12 C -1.80343 -0.766444 -1.10019 0
M  V30 13 C 0.169262 -1.38966 0.219551 0
M  V30 14 C 1.66268 -1.52758 0.143353 0
M  V30 15 C -0.254325 -0.479908 1.3481 0
M  V30 16 C -1.76419 -0.473246 1.3878 0
M  V30 17 H -3.99831 0.747847 -0.766668 0
M  V30 18 H -4.01405 -0.850799 -0.291257 0
M  V30 19 H -2.1914 2.01006 -0.910614 0
M  V30 20 H -1.97902 1.99425 0.880769 0
M  V30 21 H 0.138621 2.47741 -0.340113 0
M  V30 22 H 0.0494145 1.57194 1.96204 0
M  V30 23 H 2.13317 0.374561 2.1029 0
M  V30 24 H 2.31547 1.74592 0.959879 0
M  V30 25 H 4.05075 0.0416207 0.940441 0
M  V30 26 H 4.16379 0.24486 -0.734017 0
M  V30 27 H 2.26932 1.36765 -1.58439 0
M  V30 28 H 1.98837 -0.320451 -2.11156 0
M  V30 29 H -0.079675 0.906914 -2.26924 0
M  V30 30 H 0.0970104 -1.46535 -1.91525 0
M  V30 31 H -2.25192 -1.76923 -1.08646 0
M  V30 32 H -2.18105 -0.261015 -2.01619 0
M  V30 33 H -0.317074 -2.3791 0.410865 0
M  V30 34 H 2.03478 -2.05948 1.03062 0
M  V30 35 H 1.89199 -2.05861 -0.813192 0
M  V30 36 H 0.171474 -0.915791 2.28439 0
M  V30 37 H -2.07001 0.22027 2.18329 0
M  V30 38 H -2.11041 -1.48912 1.61437 0
M  V30 END ATOM
M  V30 BEGIN BOND
M  V30 1 1 1 2
M  V30 2 1 2 3
M  V30 3 1 3 4
M  V30 4 1 4 5
M  V30 5 1 5 6
M  V30 6 1 6 7
M  V30 7 1 7 8
M  V30 8 1 7 9
M  V30 9 1 9 10
M  V30 10 1 10 11
M  V30 11 1 11 12
M  V30 12 1 11 13
M  V30 13 1 13 14
M  V30 14 1 13 15
M  V30 15 1 15 16
M  V30 16 1 12 2
M  V30 17 1 16 2
M  V30 18 1 10 4
M  V30 19 1 15 5
M  V30 20 1 14 7
M  V30 21 1 1 17
M  V30 22 1 1 18
M  V30 23 1 3 19
M  V30 24 1 3 20
M  V30 25 1 4 21
M  V30 26 1 5 22
M  V30 27 1 6 23
M  V30 28 1 6 24
M  V30 29 1 8 25
M  V30 30 1 8 26
M  V30 31 1 9 27
M  V30 32 1 9 28
M  V30 33 1 10 29
M  V30 34 1 11 30
M  V30 35 1 12 31
M  V30 36 1 12 32
M  V30 37 1 13 33
M  V30 38 1 14 34
M  V30 39 1 14 35
M  V30 40 1 15 36
M  V30 41 1 16 37
M  V30 42 1 16 38
M  V30 END BOND
M  V30 END CTAB
M  END
