
     RDKit          3D

  0  0  0  0  0  0  0  0  0  0999 V3000
M  V30 BEGIN CTAB
M  V30 COUNTS 22 22 0 0 0
M  V30 BEGIN ATOM
M  V30 1 N -3.99005 0.351877 -0.858535 0
M  V30 2 N -2.68813 0.686344 -0.478186 0
M  V30 3 C -1.71192 -0.137644 -0.433842 0
M  V30 4 C -0.391952 0.298909 -0.0263806 0
M  V30 5 C -0.0982239 1.59713 0.333519 0
M  V30 6 C 1.1485 2.02213 0.721187 0
M  V30 7 C 2.17797 1.09958 0.755832 0
M  V30 8 C 1.941 -0.202666 0.408344 0
M  V30 9 C 0.682845 -0.593317 0.0256965 0
M  V30 10 C 3.04697 -1.17857 0.448932 0
M  V30 11 Br 3.93642 1.66793 1.29567 0
M  V30 12 N -1.95014 -1.48108 -0.790762 0
M  V30 13 H -4.69654 -0.0659076 -0.212804 0
M  V30 14 H -4.24738 0.540306 -1.85165 0
M  V30 15 H -0.928804 2.29966 0.296183 0
M  V30 16 H 1.29384 3.04972 0.985654 0
M  V30 17 H 0.456959 -1.62116 -0.25769 0
M  V30 18 H 3.58566 -1.16444 1.43259 0
M  V30 19 H 3.82096 -0.972647 -0.327049 0
M  V30 20 H 2.70489 -2.22102 0.315516 0
M  V30 21 H -1.84984 -1.83495 -1.7438 0
M  V30 22 H -2.24304 -2.14018 -0.0384249 0
M  V30 END ATOM
M  V30 BEGIN BOND
M  V30 1 1 1 2
M  V30 2 2 2 3
M  V30 3 1 3 4
M  V30 4 2 4 5
M  V30 5 1 5 6
M  V30 6 2 6 7
M  V30 7 1 7 8
M  V30 8 2 8 9
M  V30 9 1 8 10
M  V30 10 1 7 11
M  V30 11 1 3 12
M  V30 12 1 9 4
M  V30 13 1 1 13
M  V30 14 1 1 14
M  V30 15 1 5 15
M  V30 16 1 6 16
M  V30 17 1 9 17
M  V30 18 1 10 18
M  V30 19 1 10 19
M  V30 20 1 10 20
M  V30 21 1 12 21
M  V30 22 1 12 22
M  V30 END BOND
M  V30 END CTAB
M  END
