
     RDKit          3D

  0  0  0  0  0  0  0  0  0  0999 V3000
M  V30 BEGIN CTAB
M  V30 COUNTS 27 27 0 0 0
M  V30 BEGIN ATOM
M  V30 1 N 0.826986 -2.59314 -1.24795 0
M  V30 2 C 0.112365 -1.54608 -0.576137 0
M  V30 3 C -1.1945 -1.7803 -0.196494 0
M  V30 4 C -1.90275 -0.789519 0.451012 0
M  V30 5 C -3.32176 -0.99476 0.882701 0
M  V30 6 C -1.26041 0.404832 0.690891 0
M  V30 7 C 0.0556487 0.649119 0.311834 0
M  V30 8 C 0.765743 -0.352449 -0.34047 0
M  V30 9 N 2.0951 -0.215611 -0.771563 0
M  V30 10 S 3.13917 1.09365 -0.356257 0
M  V30 11 O 4.57276 0.639904 -0.399979 0
M  V30 12 O 2.91786 1.6034 1.03737 0
M  V30 13 N 2.95152 2.40373 -1.47197 0
M  V30 14 C -2.00408 1.47976 1.38444 0
M  V30 15 H 1.27309 -2.46329 -2.18253 0
M  V30 16 H 0.924967 -3.5395 -0.812143 0
M  V30 17 H -1.69527 -2.72984 -0.390841 0
M  V30 18 H -3.42353 -2.08127 1.0984 0
M  V30 19 H -4.03776 -0.624104 0.151604 0
M  V30 20 H -3.47253 -0.476782 1.86523 0
M  V30 21 H 0.537052 1.57728 0.502022 0
M  V30 22 H 2.51401 -0.941812 -1.3925 0
M  V30 23 H 3.88169 2.80572 -1.75426 0
M  V30 24 H 2.40755 3.19153 -1.06345 0
M  V30 25 H -1.7035 2.47656 0.967889 0
M  V30 26 H -1.86452 1.40937 2.46937 0
M  V30 27 H -3.0949 1.39362 1.14378 0
M  V30 END ATOM
M  V30 BEGIN BOND
M  V30 1 1 1 2
M  V30 2 2 2 3
M  V30 3 1 3 4
M  V30 4 1 4 5
M  V30 5 2 4 6
M  V30 6 1 6 7
M  V30 7 2 7 8
M  V30 8 1 8 9
M  V30 9 1 9 10
M  V30 10 2 10 11
M  V30 11 2 10 12
M  V30 12 1 10 13
M  V30 13 1 6 14
M  V30 14 1 8 2
M  V30 15 1 1 15
M  V30 16 1 1 16
M  V30 17 1 3 17
M  V30 18 1 5 18
M  V30 19 1 5 19
M  V30 20 1 5 20
M  V30 21 1 7 21
M  V30 22 1 9 22
M  V30 23 1 13 23
M  V30 24 1 13 24
M  V30 25 1 14 25
M  V30 26 1 14 26
M  V30 27 1 14 27
M  V30 END BOND
M  V30 END CTAB
M  END
