
     RDKit          3D

  0  0  0  0  0  0  0  0  0  0999 V3000
M  V30 BEGIN CTAB
M  V30 COUNTS 15 14 0 0 0
M  V30 BEGIN ATOM
M  V30 1 N -1.87281 -0.1285 -0.760751 0
M  V30 2 C -1.29389 -0.129129 0.547868 0
M  V30 3 C 0.194008 -0.383843 0.507674 0
M  V30 4 C 0.952404 0.626282 -0.271108 0
M  V30 5 N 2.35555 0.281329 -0.239376 0
M  V30 6 H -2.40753 0.720767 -1.00011 0
M  V30 7 H -2.3676 -1.00249 -0.998218 0
M  V30 8 H -1.78752 -0.875159 1.20302 0
M  V30 9 H -1.47332 0.862788 1.05683 0
M  V30 10 H 0.605068 -0.414485 1.53566 0
M  V30 11 H 0.350556 -1.39469 0.0822821 0
M  V30 12 H 0.649381 0.739961 -1.31626 0
M  V30 13 H 0.869564 1.63608 0.206771 0
M  V30 14 H 2.56575 -0.367218 0.572101 0
M  V30 15 H 2.6604 -0.171697 -1.12637 0
M  V30 END ATOM
M  V30 BEGIN BOND
M  V30 1 1 1 2
M  V30 2 1 2 3
M  V30 3 1 3 4
M  V30 4 1 4 5
M  V30 5 1 1 6
M  V30 6 1 1 7
M  V30 7 1 2 8
M  V30 8 1 2 9
M  V30 9 1 3 10
M  V30 10 1 3 11
M  V30 11 1 4 12
M  V30 12 1 4 13
M  V30 13 1 5 14
M  V30 14 1 5 15
M  V30 END BOND
M  V30 END CTAB
M  END
