
     RDKit          3D

  0  0  0  0  0  0  0  0  0  0999 V3000
M  V30 BEGIN CTAB
M  V30 COUNTS 28 28 0 0 0
M  V30 BEGIN ATOM
M  V30 1 O 4.55646 0.52857 -0.57357 0
M  V30 2 N 3.33373 -0.0628696 -0.378154 0
M  V30 3 C 2.27403 0.676218 -0.351058 0
M  V30 4 C 0.944145 0.148344 -0.151637 0
M  V30 5 C -0.128829 1.01482 -0.137607 0
M  V30 6 C -1.4176 0.5258 0.0531137 0
M  V30 7 O -2.52718 1.3568 0.0750162 0
M  V30 8 C -2.31253 2.74396 -0.105146 0
M  V30 9 C -1.61113 -0.832199 0.22775 0
M  V30 10 C -0.498658 -1.68526 0.208045 0
M  V30 11 C 0.770455 -1.20492 0.020377 0
M  V30 12 N 1.91397 -2.04078 -0.00453775 0
M  V30 13 O -2.89995 -1.3119 0.417428 0
M  V30 14 C -3.05974 -2.70773 0.592837 0
M  V30 15 N 2.46163 2.07883 -0.530152 0
M  V30 16 H 4.9972 0.956371 0.227303 0
M  V30 17 H -0.000729434 2.08051 -0.272164 0
M  V30 18 H -3.26522 3.27786 0.0221003 0
M  V30 19 H -1.54496 3.05023 0.643436 0
M  V30 20 H -1.86883 2.94994 -1.10646 0
M  V30 21 H -0.661593 -2.74744 0.345854 0
M  V30 22 H 2.35676 -2.24596 0.928699 0
M  V30 23 H 2.31442 -2.44243 -0.880092 0
M  V30 24 H -2.51803 -3.03863 1.52576 0
M  V30 25 H -4.13442 -2.98934 0.661326 0
M  V30 26 H -2.55342 -3.23489 -0.242361 0
M  V30 27 H 1.98223 2.77532 0.0796092 0
M  V30 28 H 3.09779 2.38077 -1.29573 0
M  V30 END ATOM
M  V30 BEGIN BOND
M  V30 1 1 1 2
M  V30 2 2 2 3
M  V30 3 1 3 4
M  V30 4 2 4 5
M  V30 5 1 5 6
M  V30 6 1 6 7
M  V30 7 1 7 8
M  V30 8 2 6 9
M  V30 9 1 9 10
M  V30 10 2 10 11
M  V30 11 1 11 12
M  V30 12 1 9 13
M  V30 13 1 13 14
M  V30 14 1 3 15
M  V30 15 1 11 4
M  V30 16 1 1 16
M  V30 17 1 5 17
M  V30 18 1 8 18
M  V30 19 1 8 19
M  V30 20 1 8 20
M  V30 21 1 10 21
M  V30 22 1 12 22
M  V30 23 1 12 23
M  V30 24 1 14 24
M  V30 25 1 14 25
M  V30 26 1 14 26
M  V30 27 1 15 27
M  V30 28 1 15 28
M  V30 END BOND
M  V30 END CTAB
M  END
