
     RDKit          3D

  0  0  0  0  0  0  0  0  0  0999 V3000
M  V30 BEGIN CTAB
M  V30 COUNTS 27 27 0 0 0
M  V30 BEGIN ATOM
M  V30 1 N 4.61981 0.262647 -0.746779 0
M  V30 2 C 3.21008 0.0819937 -0.644419 0
M  V30 3 C 2.42025 1.10858 -0.134903 0
M  V30 4 C 1.04962 0.936275 -0.0340379 0
M  V30 5 C 0.440482 -0.235933 -0.42848 0
M  V30 6 C 1.24684 -1.22851 -0.926412 0
M  V30 7 C 2.61938 -1.08752 -1.04007 0
M  V30 8 C -1.04896 -0.404864 -0.311618 0
M  V30 9 N -1.53397 0.0605602 0.955388 0
M  V30 10 S -2.6191 1.36624 0.759764 0
M  V30 11 O -2.27123 2.11283 -0.520053 0
M  V30 12 O -2.43766 2.34456 1.87768 0
M  V30 13 N -4.25576 0.848576 0.596093 0
M  V30 14 C -1.44723 -1.8363 -0.587131 0
M  V30 15 H 5.16685 0.120509 0.13679 0
M  V30 16 H 5.0895 0.521809 -1.64641 0
M  V30 17 H 2.89545 2.02688 0.174349 0
M  V30 18 H 0.466326 1.75011 0.364573 0
M  V30 19 H 0.812353 -2.15231 -1.24296 0
M  V30 20 H 3.22496 -1.89241 -1.43786 0
M  V30 21 H -1.50775 0.210438 -1.11247 0
M  V30 22 H -1.96072 -0.695564 1.50834 0
M  V30 23 H -4.68457 0.607548 1.52556 0
M  V30 24 H -4.79212 1.65068 0.168535 0
M  V30 25 H -1.18522 -2.048 -1.64293 0
M  V30 26 H -0.968856 -2.5477 0.116167 0
M  V30 27 H -2.54877 -1.88113 -0.523825 0
M  V30 END ATOM
M  V30 BEGIN BOND
M  V30 1 1 1 2
M  V30 2 2 2 3
M  V30 3 1 3 4
M  V30 4 2 4 5
M  V30 5 1 5 6
M  V30 6 2 6 7
M  V30 7 1 5 8
M  V30 8 1 8 9
M  V30 9 1 9 10
M  V30 10 2 10 11
M  V30 11 2 10 12
M  V30 12 1 10 13
M  V30 13 1 8 14
M  V30 14 1 7 2
M  V30 15 1 1 15
M  V30 16 1 1 16
M  V30 17 1 3 17
M  V30 18 1 4 18
M  V30 19 1 6 19
M  V30 20 1 7 20
M  V30 21 1 8 21
M  V30 22 1 9 22
M  V30 23 1 13 23
M  V30 24 1 13 24
M  V30 25 1 14 25
M  V30 26 1 14 26
M  V30 27 1 14 27
M  V30 END BOND
M  V30 END CTAB
M  END
