
     RDKit          3D

  0  0  0  0  0  0  0  0  0  0999 V3000
M  V30 BEGIN CTAB
M  V30 COUNTS 41 42 0 0 0
M  V30 BEGIN ATOM
M  V30 1 C 7.36445 0.0364816 0.0172926 0
M  V30 2 C 6.47823 -1.18202 0.141088 0
M  V30 3 C 5.04988 -0.846905 0.117629 0
M  V30 4 C 4.34793 -0.794958 -1.0388 0
M  V30 5 C 3.00915 -0.475544 -1.00803 0
M  V30 6 C 2.32506 -0.197016 0.178385 0
M  V30 7 C 3.03884 -0.250474 1.35063 0
M  V30 8 C 4.4011 -0.577221 1.30012 0
M  V30 9 N 0.95425 0.111037 0.132618 0
M  V30 10 C 0.120998 0.583954 1.15348 0
M  V30 11 O 0.503635 0.811077 2.30402 0
M  V30 12 C -1.34019 0.848117 0.883979 0
M  V30 13 S -2.05203 -0.733289 0.361332 0
M  V30 14 C -3.80932 -0.486173 0.0210518 0
M  V30 15 N -4.585 -1.49702 -0.385457 0
M  V30 16 C -5.91198 -1.36424 -0.654733 0
M  V30 17 N -6.67217 -2.47453 -1.08051 0
M  V30 18 C -6.48574 -0.1017 -0.495355 0
M  V30 19 C -5.69754 0.953585 -0.0758483 0
M  V30 20 N -4.37597 0.723929 0.170033 0
M  V30 21 N -6.22158 2.2509 0.10272 0
M  V30 22 C -1.42875 1.88112 -0.216588 0
M  V30 23 H 7.48914 0.511917 1.01656 0
M  V30 24 H 6.92513 0.812078 -0.642371 0
M  V30 25 H 8.37356 -0.230268 -0.348211 0
M  V30 26 H 6.66972 -1.90662 -0.688317 0
M  V30 27 H 6.70606 -1.68401 1.09173 0
M  V30 28 H 4.78951 -0.996586 -2.026 0
M  V30 29 H 2.45704 -0.434285 -1.92433 0
M  V30 30 H 2.61595 -0.0615843 2.3176 0
M  V30 31 H 4.92209 -0.605144 2.26609 0
M  V30 32 H 0.488842 -0.048087 -0.832516 0
M  V30 33 H -1.83595 1.26782 1.76485 0
M  V30 34 H -7.35383 -2.90717 -0.440917 0
M  V30 35 H -6.54274 -2.84943 -2.03121 0
M  V30 36 H -7.53722 0.0258538 -0.703612 0
M  V30 37 H -6.48186 2.8166 -0.716619 0
M  V30 38 H -6.34093 2.62521 1.054 0
M  V30 39 H -0.571241 2.57568 -0.116511 0
M  V30 40 H -1.4185 1.42672 -1.22109 0
M  V30 41 H -2.36802 2.4422 -0.100416 0
M  V30 END ATOM
M  V30 BEGIN BOND
M  V30 1 1 1 2
M  V30 2 1 2 3
M  V30 3 2 3 4
M  V30 4 1 4 5
M  V30 5 2 5 6
M  V30 6 1 6 7
M  V30 7 2 7 8
M  V30 8 1 6 9
M  V30 9 1 9 10
M  V30 10 2 10 11
M  V30 11 1 10 12
M  V30 12 1 12 13
M  V30 13 1 13 14
M  V30 14 2 14 15
M  V30 15 1 15 16
M  V30 16 1 16 17
M  V30 17 2 16 18
M  V30 18 1 18 19
M  V30 19 2 19 20
M  V30 20 1 19 21
M  V30 21 1 12 22
M  V30 22 1 8 3
M  V30 23 1 20 14
M  V30 24 1 1 23
M  V30 25 1 1 24
M  V30 26 1 1 25
M  V30 27 1 2 26
M  V30 28 1 2 27
M  V30 29 1 4 28
M  V30 30 1 5 29
M  V30 31 1 7 30
M  V30 32 1 8 31
M  V30 33 1 9 32
M  V30 34 1 12 33
M  V30 35 1 17 34
M  V30 36 1 17 35
M  V30 37 1 18 36
M  V30 38 1 21 37
M  V30 39 1 21 38
M  V30 40 1 22 39
M  V30 41 1 22 40
M  V30 42 1 22 41
M  V30 END BOND
M  V30 END CTAB
M  END
