
     RDKit          3D

  0  0  0  0  0  0  0  0  0  0999 V3000
M  V30 BEGIN CTAB
M  V30 COUNTS 41 44 0 0 0
M  V30 BEGIN ATOM
M  V30 1 C -7.89928 -0.669184 -0.400426 0
M  V30 2 O -6.84293 -1.39164 0.224617 0
M  V30 3 C -5.5514 -0.861151 0.223825 0
M  V30 4 C -4.57901 -1.60522 0.84193 0
M  V30 5 C -3.28041 -1.14672 0.881672 0
M  V30 6 C -2.99599 0.0643977 0.289415 0
M  V30 7 C -4.01705 0.773117 -0.320351 0
M  V30 8 N -5.27965 0.32173 -0.355959 0
M  V30 9 C -1.65013 0.62556 0.284111 0
M  V30 10 C -0.538514 -0.142974 -0.0166162 0
M  V30 11 S -0.380205 -1.7844 -0.447511 0
M  V30 12 C 1.30333 -1.8567 -0.645464 0
M  V30 13 C 1.712 -0.564245 -0.361935 0
M  V30 14 C 0.753504 0.315329 -0.0391592 0
M  V30 15 C 0.867486 1.686 0.276439 0
M  V30 16 N 2.12742 2.34657 0.271285 0
M  V30 17 N -0.226263 2.41961 0.566647 0
M  V30 18 C -1.48605 1.96895 0.590187 0
M  V30 19 C 3.18596 -0.344441 -0.399526 0
M  V30 20 C 3.86652 -0.452441 -1.60377 0
M  V30 21 C 5.23427 -0.31311 -1.68147 0
M  V30 22 C 5.91322 -0.0574499 -0.494179 0
M  V30 23 N 7.32253 0.0864742 -0.572335 0
M  V30 24 C 5.26926 0.0558511 0.71879 0
M  V30 25 C 3.8922 -0.0923903 0.745195 0
M  V30 26 H -8.00294 0.309498 0.133067 0
M  V30 27 H -7.65185 -0.43675 -1.4533 0
M  V30 28 H -8.83077 -1.23797 -0.33067 0
M  V30 29 H -4.7893 -2.56391 1.31403 0
M  V30 30 H -2.47263 -1.68834 1.35375 0
M  V30 31 H -3.77763 1.73732 -0.788997 0
M  V30 32 H 1.88745 -2.73399 -0.930078 0
M  V30 33 H 2.65088 2.46127 -0.613928 0
M  V30 34 H 2.53455 2.71912 1.14676 0
M  V30 35 H -2.32823 2.5987 0.829968 0
M  V30 36 H 3.31319 -0.651207 -2.50844 0
M  V30 37 H 5.77724 -0.3968 -2.62612 0
M  V30 38 H 7.90958 -0.291092 0.223881 0
M  V30 39 H 7.82391 0.540978 -1.36412 0
M  V30 40 H 5.83493 0.256883 1.62926 0
M  V30 41 H 3.40081 -0.0052275 1.69813 0
M  V30 END ATOM
M  V30 BEGIN BOND
M  V30 1 1 1 2
M  V30 2 1 2 3
M  V30 3 2 3 4
M  V30 4 1 4 5
M  V30 5 2 5 6
M  V30 6 1 6 7
M  V30 7 2 7 8
M  V30 8 1 6 9
M  V30 9 2 9 10
M  V30 10 1 10 11
M  V30 11 1 11 12
M  V30 12 2 12 13
M  V30 13 1 13 14
M  V30 14 2 14 15
M  V30 15 1 15 16
M  V30 16 1 15 17
M  V30 17 2 17 18
M  V30 18 1 13 19
M  V30 19 2 19 20
M  V30 20 1 20 21
M  V30 21 2 21 22
M  V30 22 1 22 23
M  V30 23 1 22 24
M  V30 24 2 24 25
M  V30 25 1 8 3
M  V30 26 1 18 9
M  V30 27 1 25 19
M  V30 28 1 14 10
M  V30 29 1 1 26
M  V30 30 1 1 27
M  V30 31 1 1 28
M  V30 32 1 4 29
M  V30 33 1 5 30
M  V30 34 1 7 31
M  V30 35 1 12 32
M  V30 36 1 16 33
M  V30 37 1 16 34
M  V30 38 1 18 35
M  V30 39 1 20 36
M  V30 40 1 21 37
M  V30 41 1 23 38
M  V30 42 1 23 39
M  V30 43 1 24 40
M  V30 44 1 25 41
M  V30 END BOND
M  V30 END CTAB
M  END
