
     RDKit          3D

  0  0  0  0  0  0  0  0  0  0999 V3000
M  V30 BEGIN CTAB
M  V30 COUNTS 32 32 0 0 0
M  V30 BEGIN ATOM
M  V30 1 N 3.93806 0.817324 0.330981 0
M  V30 2 C 3.11117 -0.119589 -0.358083 0 CFG=1
M  V30 3 C 2.56978 -1.18568 0.55227 0
M  V30 4 C 1.08268 -1.17932 0.242412 0
M  V30 5 N 0.801607 0.177335 -0.110448 0
M  V30 6 C 1.92236 0.57734 -0.970345 0
M  V30 7 C -0.294091 0.953592 0.272627 0
M  V30 8 O -0.311626 2.16376 -0.137462 0
M  V30 9 C -1.36682 0.408664 1.10592 0 CFG=2
M  V30 10 C -2.4902 -0.266418 0.401832 0
M  V30 11 C -3.21535 0.652182 -0.570266 0
M  V30 12 C -2.25057 -1.58545 -0.205542 0
M  V30 13 N -1.94449 1.55704 1.82784 0
M  V30 14 H 4.8856 0.546372 0.475473 0
M  V30 15 H 3.71431 1.76548 0.15038 0
M  V30 16 H 3.73491 -0.644814 -1.13865 0
M  V30 17 H 2.94594 -2.19488 0.302476 0
M  V30 18 H 2.69686 -0.951271 1.61786 0
M  V30 19 H 0.543902 -1.42367 1.17516 0
M  V30 20 H 0.834159 -1.90411 -0.559722 0
M  V30 21 H 2.08299 1.67163 -0.910729 0
M  V30 22 H 1.73847 0.266523 -2.02104 0
M  V30 23 H -0.949594 -0.257163 1.86609 0
M  V30 24 H -3.27376 -0.435931 1.21372 0
M  V30 25 H -2.63956 0.838621 -1.4793 0
M  V30 26 H -4.17245 0.122832 -0.823804 0
M  V30 27 H -3.54421 1.59653 -0.0609268 0
M  V30 28 H -3.26068 -2.0459 -0.450023 0
M  V30 29 H -1.79485 -2.33009 0.477737 0
M  V30 30 H -1.66867 -1.60107 -1.14412 0
M  V30 31 H -1.76128 2.44798 1.3309 0
M  V30 32 H -1.66457 1.56215 2.82279 0
M  V30 END ATOM
M  V30 BEGIN BOND
M  V30 1 1 1 2
M  V30 2 1 2 3
M  V30 3 1 3 4
M  V30 4 1 4 5
M  V30 5 1 5 6
M  V30 6 1 5 7
M  V30 7 2 7 8
M  V30 8 1 7 9
M  V30 9 1 9 10
M  V30 10 1 10 11
M  V30 11 1 10 12
M  V30 12 1 9 13
M  V30 13 1 6 2
M  V30 14 1 1 14
M  V30 15 1 1 15
M  V30 16 1 2 16 CFG=3
M  V30 17 1 3 17
M  V30 18 1 3 18
M  V30 19 1 4 19
M  V30 20 1 4 20
M  V30 21 1 6 21
M  V30 22 1 6 22
M  V30 23 1 9 23 CFG=1
M  V30 24 1 10 24
M  V30 25 1 11 25
M  V30 26 1 11 26
M  V30 27 1 11 27
M  V30 28 1 12 28
M  V30 29 1 12 29
M  V30 30 1 12 30
M  V30 31 1 13 31
M  V30 32 1 13 32
M  V30 END BOND
M  V30 END CTAB
M  END
