
     RDKit          3D

  0  0  0  0  0  0  0  0  0  0999 V3000
M  V30 BEGIN CTAB
M  V30 COUNTS 73 76 0 0 0
M  V30 BEGIN ATOM
M  V30 1 C -4.63146 -0.179317 0.22286 0 CFG=1
M  V30 2 O -3.47549 0.0720663 -0.509902 0
M  V30 3 C -2.41082 0.207397 0.410529 0
M  V30 4 O -2.27921 -0.984812 1.06685 0
M  V30 5 C -1.02321 -1.51197 0.769283 0 CFG=2
M  V30 6 C -0.262283 -0.254702 0.412131 0 CFG=2
M  V30 7 O -1.21596 0.47779 -0.253197 0
M  V30 8 C 0.959478 -0.572319 -0.395833 0 CFG=2
M  V30 9 O 1.73107 0.53202 -0.624638 0
M  V30 10 C 3.01166 0.46946 -0.101919 0 CFG=2
M  V30 11 C 3.26729 1.53236 0.937582 0 CFG=1
M  V30 12 O 3.11691 1.02409 2.22614 0
M  V30 13 C 4.59817 2.19238 0.83895 0 CFG=2
M  V30 14 N 4.5049 3.46913 0.108219 0
M  V30 15 C 5.71451 1.34643 0.341598 0
M  V30 16 C 5.36015 0.334658 -0.688543 0 CFG=2
M  V30 17 N 6.36793 0.291889 -1.74806 0
M  V30 18 C 7.65189 -0.106633 -1.24316 0
M  V30 19 C 3.98829 0.562503 -1.23575 0 CFG=1
M  V30 20 O 3.65919 -0.386383 -2.20099 0
M  V30 21 O 0.563104 -1.2302 -1.55706 0
M  V30 22 C 0.192907 -2.51887 -1.1725 0 CFG=2
M  V30 23 C 0.0284668 -3.36814 -2.39823 0
M  V30 24 O -0.342398 -4.66282 -2.07102 0
M  V30 25 C -1.0359 -2.53583 -0.302141 0 CFG=2
M  V30 26 O -2.14413 -2.50819 -1.13108 0
M  V30 27 C -2.72419 1.38258 1.26633 0 CFG=2
M  V30 28 O -1.69045 1.7892 2.08528 0
M  V30 29 C -4.01409 1.23582 2.07043 0 CFG=1
M  V30 30 O -4.28671 2.48893 2.6154 0
M  V30 31 C -5.09844 1.01598 0.991075 0 CFG=1
M  V30 32 O -5.10479 2.17877 0.219583 0
M  V30 33 C -5.70881 -0.880089 -0.523693 0 CFG=1
M  V30 34 N -6.84793 -1.06333 0.364371 0
M  V30 35 C -6.10381 -0.287063 -1.83327 0
M  V30 36 O -6.71257 0.943969 -1.76938 0
M  V30 37 H -4.29741 -0.920589 1.02451 0
M  V30 38 H -0.627762 -1.94719 1.72588 0
M  V30 39 H 0.0728242 0.202783 1.36222 0
M  V30 40 H 1.56442 -1.30668 0.187574 0
M  V30 41 H 3.12965 -0.507661 0.407058 0
M  V30 42 H 2.49526 2.35362 0.85292 0
M  V30 43 H 3.46144 0.113311 2.33204 0
M  V30 44 H 4.89011 2.52253 1.88128 0
M  V30 45 H 3.81507 4.03608 0.687814 0
M  V30 46 H 5.42211 3.96567 0.266693 0
M  V30 47 H 6.47586 2.03975 -0.121181 0
M  V30 48 H 6.26464 0.847931 1.19203 0
M  V30 49 H 5.34008 -0.674454 -0.188821 0
M  V30 50 H 6.37626 1.19205 -2.25642 0
M  V30 51 H 8.17461 0.814584 -0.859631 0
M  V30 52 H 8.27663 -0.643457 -1.9851 0
M  V30 53 H 7.46309 -0.736245 -0.336067 0
M  V30 54 H 3.87503 1.55977 -1.72124 0
M  V30 55 H 4.06899 -0.148288 -3.07898 0
M  V30 56 H 1.04818 -2.90649 -0.560945 0
M  V30 57 H -0.675459 -2.97579 -3.1271 0
M  V30 58 H 1.03292 -3.40136 -2.91337 0
M  V30 59 H -0.0540711 -4.91162 -1.17786 0
M  V30 60 H -1.04837 -3.54841 0.195123 0
M  V30 61 H -1.98537 -1.96087 -1.94043 0
M  V30 62 H -2.92514 2.24847 0.568353 0
M  V30 63 H -1.24752 2.61498 1.78223 0
M  V30 64 H -3.98399 0.42298 2.79253 0
M  V30 65 H -3.45777 2.9013 3.00127 0
M  V30 66 H -6.03815 0.79814 1.49343 0
M  V30 67 H -5.52298 2.90148 0.735308 0
M  V30 68 H -5.35454 -1.95195 -0.710715 0
M  V30 69 H -7.36942 -1.95005 0.134701 0
M  V30 70 H -6.4737 -1.18625 1.33842 0
M  V30 71 H -5.23595 -0.262537 -2.52868 0
M  V30 72 H -6.85811 -0.990845 -2.28845 0
M  V30 73 H -7.69473 0.898543 -1.65149 0
M  V30 END ATOM
M  V30 BEGIN BOND
M  V30 1 1 1 2
M  V30 2 1 2 3
M  V30 3 1 3 4
M  V30 4 1 4 5
M  V30 5 1 5 6
M  V30 6 1 6 7
M  V30 7 1 6 8
M  V30 8 1 8 9
M  V30 9 1 9 10
M  V30 10 1 10 11
M  V30 11 1 11 12
M  V30 12 1 11 13
M  V30 13 1 13 14
M  V30 14 1 13 15
M  V30 15 1 15 16
M  V30 16 1 16 17
M  V30 17 1 17 18
M  V30 18 1 16 19
M  V30 19 1 19 20
M  V30 20 1 8 21
M  V30 21 1 21 22
M  V30 22 1 22 23
M  V30 23 1 23 24
M  V30 24 1 22 25
M  V30 25 1 25 26
M  V30 26 1 3 27
M  V30 27 1 27 28
M  V30 28 1 27 29
M  V30 29 1 29 30
M  V30 30 1 29 31
M  V30 31 1 31 32
M  V30 32 1 1 33
M  V30 33 1 33 34
M  V30 34 1 33 35
M  V30 35 1 35 36
M  V30 36 1 31 1
M  V30 37 1 7 3
M  V30 38 1 19 10
M  V30 39 1 25 5
M  V30 40 1 1 37 CFG=1
M  V30 41 1 5 38 CFG=1
M  V30 42 1 6 39 CFG=1
M  V30 43 1 8 40 CFG=1
M  V30 44 1 10 41 CFG=1
M  V30 45 1 11 42 CFG=3
M  V30 46 1 12 43
M  V30 47 1 13 44 CFG=1
M  V30 48 1 14 45
M  V30 49 1 14 46
M  V30 50 1 15 47
M  V30 51 1 15 48
M  V30 52 1 16 49 CFG=1
M  V30 53 1 17 50
M  V30 54 1 18 51
M  V30 55 1 18 52
M  V30 56 1 18 53
M  V30 57 1 19 54 CFG=3
M  V30 58 1 20 55
M  V30 59 1 22 56 CFG=1
M  V30 60 1 23 57
M  V30 61 1 23 58
M  V30 62 1 24 59
M  V30 63 1 25 60 CFG=1
M  V30 64 1 26 61
M  V30 65 1 27 62 CFG=3
M  V30 66 1 28 63
M  V30 67 1 29 64 CFG=1
M  V30 68 1 30 65
M  V30 69 1 31 66 CFG=1
M  V30 70 1 32 67
M  V30 71 1 33 68 CFG=3
M  V30 72 1 34 69
M  V30 73 1 34 70
M  V30 74 1 35 71
M  V30 75 1 35 72
M  V30 76 1 36 73
M  V30 END BOND
M  V30 END CTAB
M  END
