
     RDKit          3D

  0  0  0  0  0  0  0  0  0  0999 V3000
M  V30 BEGIN CTAB
M  V30 COUNTS 38 39 0 0 0
M  V30 BEGIN ATOM
M  V30 1 C 2.04779 -1.48076 1.26739 0
M  V30 2 O 1.45154 -1.63056 0.00858892 0
M  V30 3 C 1.45774 -0.440288 -0.706761 0
M  V30 4 C 2.93554 -0.0441188 -0.788598 0
M  V30 5 O 0.908203 -0.634883 -1.9403 0
M  V30 6 C 0.916521 0.520595 -2.73456 0
M  V30 7 C 0.759293 0.645523 0.0592865 0
M  V30 8 C -0.541416 0.512552 0.421128 0
M  V30 9 C -1.11497 1.59837 1.14032 0
M  V30 10 N -2.47187 1.49073 1.53349 0
M  V30 11 N -0.376345 2.66951 1.42146 0
M  V30 12 C 0.920922 2.77531 1.0474 0
M  V30 13 N 1.7075 3.91248 1.3454 0
M  V30 14 N 1.48516 1.77342 0.372472 0
M  V30 15 C -1.39796 -0.625923 0.143247 0
M  V30 16 C -2.11573 -0.729864 -1.02845 0
M  V30 17 C -2.96935 -1.75585 -1.33378 0
M  V30 18 C -3.16302 -2.78633 -0.44078 0
M  V30 19 Cl -4.24464 -4.11919 -0.788911 0
M  V30 20 C -2.45895 -2.71997 0.752912 0
M  V30 21 C -1.60723 -1.68029 1.03734 0
M  V30 22 H 1.97192 -2.48998 1.74675 0
M  V30 23 H 1.67064 -0.65493 1.8578 0
M  V30 24 H 3.13119 -1.32049 1.08957 0
M  V30 25 H 3.1529 0.480208 0.188823 0
M  V30 26 H 3.13641 0.716666 -1.55343 0
M  V30 27 H 3.58379 -0.933553 -0.866263 0
M  V30 28 H 0.336611 1.27951 -2.17506 0
M  V30 29 H 0.25974 0.249875 -3.6183 0
M  V30 30 H 1.88371 0.82075 -3.10877 0
M  V30 31 H -3.18516 2.16027 1.17613 0
M  V30 32 H -2.81817 0.743398 2.19238 0
M  V30 33 H 2.61015 3.78253 1.83546 0
M  V30 34 H 1.35327 4.84542 1.06233 0
M  V30 35 H -1.99973 0.0722931 -1.76817 0
M  V30 36 H -3.51468 -1.79898 -2.26723 0
M  V30 37 H -2.62782 -3.54453 1.44237 0
M  V30 38 H -1.07349 -1.6589 1.97732 0
M  V30 END ATOM
M  V30 BEGIN BOND
M  V30 1 1 1 2
M  V30 2 1 2 3
M  V30 3 1 3 4
M  V30 4 1 3 5
M  V30 5 1 5 6
M  V30 6 1 3 7
M  V30 7 2 7 8
M  V30 8 1 8 9
M  V30 9 1 9 10
M  V30 10 2 9 11
M  V30 11 1 11 12
M  V30 12 1 12 13
M  V30 13 2 12 14
M  V30 14 1 8 15
M  V30 15 2 15 16
M  V30 16 1 16 17
M  V30 17 2 17 18
M  V30 18 1 18 19
M  V30 19 1 18 20
M  V30 20 2 20 21
M  V30 21 1 14 7
M  V30 22 1 21 15
M  V30 23 1 1 22
M  V30 24 1 1 23
M  V30 25 1 1 24
M  V30 26 1 4 25
M  V30 27 1 4 26
M  V30 28 1 4 27
M  V30 29 1 6 28
M  V30 30 1 6 29
M  V30 31 1 6 30
M  V30 32 1 10 31
M  V30 33 1 10 32
M  V30 34 1 13 33
M  V30 35 1 13 34
M  V30 36 1 16 35
M  V30 37 1 17 36
M  V30 38 1 20 37
M  V30 39 1 21 38
M  V30 END BOND
M  V30 END CTAB
M  END
