
     RDKit          3D

  0  0  0  0  0  0  0  0  0  0999 V3000
M  V30 BEGIN CTAB
M  V30 COUNTS 26 26 0 0 0
M  V30 BEGIN ATOM
M  V30 1 C -2.08828 -0.410542 -1.27395 0
M  V30 2 C -2.02927 -0.320824 0.232995 0
M  V30 3 C -1.03324 0.62134 0.775369 0
M  V30 4 C 0.380865 0.359454 0.447329 0
M  V30 5 C 0.799491 -0.740855 -0.238108 0
M  V30 6 C 2.14689 -0.915621 -0.524195 0
M  V30 7 N 2.59186 -2.06253 -1.24036 0
M  V30 8 N 3.04916 -0.000144099 -0.126419 0
M  V30 9 C 2.63925 1.10572 0.561505 0
M  V30 10 N 1.35189 1.24513 0.818874 0
M  V30 11 N 3.64618 2.02355 0.946183 0
M  V30 12 C -3.41057 0.183461 0.677057 0
M  V30 13 H -1.23654 0.155664 -1.74771 0
M  V30 14 H -3.02681 -0.00565585 -1.70179 0
M  V30 15 H -2.03192 -1.47926 -1.62383 0
M  V30 16 H -1.86419 -1.34321 0.629672 0
M  V30 17 H -1.27388 1.69844 0.587645 0
M  V30 18 H -1.08246 0.528496 1.90475 0
M  V30 19 H 0.143783 -1.51564 -0.578181 0
M  V30 20 H 3.32126 -2.66013 -0.799941 0
M  V30 21 H 2.1622 -2.2471 -2.17526 0
M  V30 22 H 3.59028 2.46577 1.87846 0
M  V30 23 H 4.42677 2.25676 0.319503 0
M  V30 24 H -3.67799 0.968258 -0.0725511 0
M  V30 25 H -3.34283 0.705251 1.65295 0
M  V30 26 H -4.15189 -0.615799 0.670018 0
M  V30 END ATOM
M  V30 BEGIN BOND
M  V30 1 1 1 2
M  V30 2 1 2 3
M  V30 3 1 3 4
M  V30 4 2 4 5
M  V30 5 1 5 6
M  V30 6 1 6 7
M  V30 7 2 6 8
M  V30 8 1 8 9
M  V30 9 2 9 10
M  V30 10 1 9 11
M  V30 11 1 2 12
M  V30 12 1 10 4
M  V30 13 1 1 13
M  V30 14 1 1 14
M  V30 15 1 1 15
M  V30 16 1 2 16
M  V30 17 1 3 17
M  V30 18 1 3 18
M  V30 19 1 5 19
M  V30 20 1 7 20
M  V30 21 1 7 21
M  V30 22 1 11 22
M  V30 23 1 11 23
M  V30 24 1 12 24
M  V30 25 1 12 25
M  V30 26 1 12 26
M  V30 END BOND
M  V30 END CTAB
M  END
