
     RDKit          3D

  0  0  0  0  0  0  0  0  0  0999 V3000
M  V30 BEGIN CTAB
M  V30 COUNTS 21 21 0 0 0
M  V30 BEGIN ATOM
M  V30 1 Cl 4.69761 -2.22269 -0.0523428 0
M  V30 2 C 4.115 -0.57739 -0.174382 0
M  V30 3 C 2.85377 -0.287199 0.127425 0
M  V30 4 C 2.40912 1.12405 0.0065121 0
M  V30 5 S 1.07581 1.33717 -1.16942 0
M  V30 6 C -0.446205 0.588748 -0.637821 0
M  V30 7 N -1.31579 1.33506 0.0982631 0
M  V30 8 C -2.49726 0.860545 0.540809 0
M  V30 9 N -3.29817 1.74904 1.29385 0
M  V30 10 N -2.80742 -0.393624 0.233068 0
M  V30 11 C -2.00247 -1.20438 -0.493221 0
M  V30 12 N -0.819242 -0.670862 -0.913777 0
M  V30 13 N -2.38614 -2.53301 -0.790596 0
M  V30 14 Cl 5.22533 0.678112 -0.698654 0
M  V30 15 H 2.17577 -1.05936 0.448483 0
M  V30 16 H 3.27635 1.76064 -0.180851 0
M  V30 17 H 1.99847 1.38847 1.02021 0
M  V30 18 H -4.02047 2.33857 0.822571 0
M  V30 19 H -3.176 1.82497 2.32595 0
M  V30 20 H -2.9831 -2.71982 -1.61001 0
M  V30 21 H -2.07495 -3.31702 -0.196062 0
M  V30 END ATOM
M  V30 BEGIN BOND
M  V30 1 1 1 2
M  V30 2 2 2 3 CFG=2
M  V30 3 1 3 4
M  V30 4 1 4 5
M  V30 5 1 5 6
M  V30 6 2 6 7
M  V30 7 1 7 8
M  V30 8 1 8 9
M  V30 9 2 8 10
M  V30 10 1 10 11
M  V30 11 2 11 12
M  V30 12 1 11 13
M  V30 13 1 2 14
M  V30 14 1 12 6
M  V30 15 1 3 15
M  V30 16 1 4 16
M  V30 17 1 4 17
M  V30 18 1 9 18
M  V30 19 1 9 19
M  V30 20 1 13 20
M  V30 21 1 13 21
M  V30 END BOND
M  V30 END CTAB
M  END
