
     RDKit          3D

  0  0  0  0  0  0  0  0  0  0999 V3000
M  V30 BEGIN CTAB
M  V30 COUNTS 36 37 0 0 0
M  V30 BEGIN ATOM
M  V30 1 N -2.29815 -0.688395 1.84215 0
M  V30 2 C -3.20801 -0.586943 0.728379 0
M  V30 3 N -4.54031 -0.671696 0.916708 0
M  V30 4 C -5.3227 -0.564509 -0.196413 0
M  V30 5 N -6.71594 -0.65221 -0.00639411 0
M  V30 6 C -4.78996 -0.380408 -1.44286 0
M  V30 7 Cl -5.90292 -0.256094 -2.80688 0
M  V30 8 N -3.47068 -0.303162 -1.57729 0
M  V30 9 C -2.62967 -0.401839 -0.509723 0
M  V30 10 C -1.18546 -0.315903 -0.667544 0
M  V30 11 O -0.46352 -0.41342 0.348807 0
M  V30 12 N -0.631164 -0.124861 -1.96048 0
M  V30 13 C 0.750114 -0.0300755 -2.20968 0
M  V30 14 N 1.19011 0.141203 -3.38906 0
M  V30 15 N 1.65604 -0.126805 -1.13429 0
M  V30 16 C 2.46601 1.04111 -0.843345 0
M  V30 17 C 3.33989 0.75723 0.29616 0
M  V30 18 C 4.59058 0.225975 0.0697588 0
M  V30 19 C 5.41309 -0.0412775 1.14094 0
M  V30 20 C 4.97127 0.227904 2.43178 0
M  V30 21 Cl 6.06681 -0.134903 3.75697 0
M  V30 22 C 3.72044 0.757449 2.63187 0
M  V30 23 C 2.88962 1.02865 1.56847 0
M  V30 24 H -2.13044 0.172864 2.40352 0
M  V30 25 H -1.83537 -1.6035 2.05922 0
M  V30 26 H -7.29011 -1.10931 -0.74601 0
M  V30 27 H -7.14251 -0.267354 0.851721 0
M  V30 28 H -1.28508 -0.0507522 -2.77017 0
M  V30 29 H 0.528638 0.213995 -4.19116 0
M  V30 30 H 1.75655 -0.992096 -0.558168 0
M  V30 31 H 1.76591 1.88717 -0.601568 0
M  V30 32 H 3.07485 1.31177 -1.74761 0
M  V30 33 H 4.95992 0.00630639 -0.92959 0
M  V30 34 H 6.3875 -0.455463 0.960193 0
M  V30 35 H 3.41446 0.952434 3.65304 0
M  V30 36 H 1.90018 1.44692 1.71787 0
M  V30 END ATOM
M  V30 BEGIN BOND
M  V30 1 1 1 2
M  V30 2 2 2 3
M  V30 3 1 3 4
M  V30 4 1 4 5
M  V30 5 2 4 6
M  V30 6 1 6 7
M  V30 7 1 6 8
M  V30 8 2 8 9
M  V30 9 1 9 10
M  V30 10 2 10 11
M  V30 11 1 10 12
M  V30 12 1 12 13
M  V30 13 2 13 14 CFG=2
M  V30 14 1 13 15
M  V30 15 1 15 16
M  V30 16 1 16 17
M  V30 17 2 17 18
M  V30 18 1 18 19
M  V30 19 2 19 20
M  V30 20 1 20 21
M  V30 21 1 20 22
M  V30 22 2 22 23
M  V30 23 1 9 2
M  V30 24 1 23 17
M  V30 25 1 1 24
M  V30 26 1 1 25
M  V30 27 1 5 26
M  V30 28 1 5 27
M  V30 29 1 12 28
M  V30 30 1 14 29
M  V30 31 1 15 30
M  V30 32 1 16 31
M  V30 33 1 16 32
M  V30 34 1 18 33
M  V30 35 1 19 34
M  V30 36 1 22 35
M  V30 37 1 23 36
M  V30 END BOND
M  V30 END CTAB
M  END
