
     RDKit          3D

  0  0  0  0  0  0  0  0  0  0999 V3000
M  V30 BEGIN CTAB
M  V30 COUNTS 26 27 0 0 0
M  V30 BEGIN ATOM
M  V30 1 N -4.20078 -0.198305 -0.177378 0
M  V30 2 C -2.81689 -0.401825 -0.537918 0
M  V30 3 C -1.84002 -0.306062 0.617495 0
M  V30 4 C -0.901444 0.3479 -0.376296 0
M  V30 5 C -2.12209 0.824217 -1.09587 0
M  V30 6 C -0.0050473 1.4003 0.210573 0
M  V30 7 S 0.986751 0.566601 1.48255 0
M  V30 8 C 2.092 -0.620969 0.745441 0
M  V30 9 N 1.88887 -1.91951 0.478413 0
M  V30 10 N 2.98819 -2.43694 -0.079069 0
M  V30 11 C 3.90846 -1.46753 -0.173696 0
M  V30 12 N 3.34276 -0.351311 0.338776 0
M  V30 13 N 3.96453 0.894595 0.430555 0
M  V30 14 H -4.34946 -0.42483 0.830328 0
M  V30 15 H -4.75823 -0.896816 -0.718624 0
M  V30 16 H -2.62662 -1.34583 -1.11232 0
M  V30 17 H -2.24283 0.362199 1.40484 0
M  V30 18 H -1.48812 -1.29087 0.987548 0
M  V30 19 H -0.382759 -0.41536 -0.96551 0
M  V30 20 H -2.61145 1.74124 -0.679249 0
M  V30 21 H -2.09217 0.778502 -2.19779 0
M  V30 22 H 0.600235 1.88051 -0.561347 0
M  V30 23 H -0.638759 2.14364 0.768582 0
M  V30 24 H 4.91764 -1.57461 -0.58829 0
M  V30 25 H 4.13162 1.28617 1.37817 0
M  V30 26 H 4.25563 1.42489 -0.409921 0
M  V30 END ATOM
M  V30 BEGIN BOND
M  V30 1 1 1 2
M  V30 2 1 2 3
M  V30 3 1 3 4
M  V30 4 1 4 5
M  V30 5 1 4 6
M  V30 6 1 6 7
M  V30 7 1 7 8
M  V30 8 2 8 9
M  V30 9 1 9 10
M  V30 10 2 10 11
M  V30 11 1 11 12
M  V30 12 1 12 13
M  V30 13 1 5 2
M  V30 14 1 12 8
M  V30 15 1 1 14
M  V30 16 1 1 15
M  V30 17 1 2 16
M  V30 18 1 3 17
M  V30 19 1 3 18
M  V30 20 1 4 19
M  V30 21 1 5 20
M  V30 22 1 5 21
M  V30 23 1 6 22
M  V30 24 1 6 23
M  V30 25 1 11 24
M  V30 26 1 13 25
M  V30 27 1 13 26
M  V30 END BOND
M  V30 END CTAB
M  END
