
     RDKit          3D

  0  0  0  0  0  0  0  0  0  0999 V3000
M  V30 BEGIN CTAB
M  V30 COUNTS 39 40 0 0 0
M  V30 BEGIN ATOM
M  V30 1 N -1.24471 -2.31835 -0.0212392 0
M  V30 2 C -1.53073 -1.42511 -1.10038 0
M  V30 3 C -2.23888 -0.165805 -0.685183 0
M  V30 4 C -3.55061 -0.475038 -0.0417327 0
M  V30 5 C -4.05655 0.703779 0.756849 0
M  V30 6 C -3.16877 0.998247 1.94601 0
M  V30 7 C -1.82062 0.360988 1.69493 0
M  V30 8 C -1.42708 0.680769 0.267255 0
M  V30 9 N -0.024776 0.552859 0.0380141 0
M  V30 10 C 0.733986 1.68308 -0.352776 0
M  V30 11 O 0.13712 2.77238 -0.485445 0
M  V30 12 C 2.20093 1.60638 -0.605232 0
M  V30 13 C 2.89181 2.7225 -1.0083 0
M  V30 14 S 4.49084 2.15645 -1.16372 0
M  V30 15 C 4.253 0.531031 -0.718556 0
M  V30 16 C 2.9111 0.477757 -0.457701 0
M  V30 17 S 5.438 -0.777724 -0.61421 0
M  V30 18 O 6.40012 -0.364387 0.489735 0
M  V30 19 O 6.18184 -0.93469 -1.88844 0
M  V30 20 N 4.63964 -2.19854 -0.116087 0
M  V30 21 H -2.10353 -2.84926 0.263053 0
M  V30 22 H -0.543836 -3.01408 -0.357547 0
M  V30 23 H -0.594339 -1.21057 -1.64017 0
M  V30 24 H -2.19411 -1.95218 -1.81243 0
M  V30 25 H -2.42873 0.421959 -1.60997 0
M  V30 26 H -3.4602 -1.35958 0.61495 0
M  V30 27 H -4.32219 -0.70929 -0.804618 0
M  V30 28 H -5.07767 0.503018 1.09704 0
M  V30 29 H -4.10611 1.59139 0.0743397 0
M  V30 30 H -3.61953 0.547847 2.85051 0
M  V30 31 H -3.03394 2.08144 2.06657 0
M  V30 32 H -1.05591 0.767131 2.39071 0
M  V30 33 H -1.91971 -0.707956 1.89458 0
M  V30 34 H -1.72465 1.73167 0.0890384 0
M  V30 35 H 0.471611 -0.384169 0.155078 0
M  V30 36 H 2.49732 3.7393 -1.18656 0
M  V30 37 H 2.45893 -0.488531 -0.1355 0
M  V30 38 H 4.45718 -2.21456 0.90197 0
M  V30 39 H 5.08373 -3.08016 -0.450706 0
M  V30 END ATOM
M  V30 BEGIN BOND
M  V30 1 1 1 2
M  V30 2 1 2 3
M  V30 3 1 3 4
M  V30 4 1 4 5
M  V30 5 1 5 6
M  V30 6 1 6 7
M  V30 7 1 7 8
M  V30 8 1 8 9
M  V30 9 1 9 10
M  V30 10 2 10 11
M  V30 11 1 10 12
M  V30 12 2 12 13
M  V30 13 1 13 14
M  V30 14 1 14 15
M  V30 15 2 15 16
M  V30 16 1 15 17
M  V30 17 2 17 18
M  V30 18 2 17 19
M  V30 19 1 17 20
M  V30 20 1 8 3
M  V30 21 1 16 12
M  V30 22 1 1 21
M  V30 23 1 1 22
M  V30 24 1 2 23
M  V30 25 1 2 24
M  V30 26 1 3 25
M  V30 27 1 4 26
M  V30 28 1 4 27
M  V30 29 1 5 28
M  V30 30 1 5 29
M  V30 31 1 6 30
M  V30 32 1 6 31
M  V30 33 1 7 32
M  V30 34 1 7 33
M  V30 35 1 8 34
M  V30 36 1 9 35
M  V30 37 1 13 36
M  V30 38 1 16 37
M  V30 39 1 20 38
M  V30 40 1 20 39
M  V30 END BOND
M  V30 END CTAB
M  END
