
     RDKit          3D

  0  0  0  0  0  0  0  0  0  0999 V3000
M  V30 BEGIN CTAB
M  V30 COUNTS 82 87 0 0 0
M  V30 BEGIN ATOM
M  V30 1 N 4.09003 -2.08747 0.352837 0
M  V30 2 C 4.22649 -0.888797 1.10807 0
M  V30 3 C 2.94746 -0.169632 1.41548 0
M  V30 4 C 2.16188 0.238143 0.229446 0
M  V30 5 C 1.32001 -0.533051 -0.567017 0
M  V30 6 N 0.857554 0.266146 -1.51544 0
M  V30 7 C 1.35099 1.51365 -1.37823 0
M  V30 8 C 2.18165 1.53646 -0.282364 0
M  V30 9 C 2.80835 2.71774 0.0718492 0
M  V30 10 C 2.65424 3.89867 -0.614085 0
M  V30 11 C 1.81442 3.85246 -1.71364 0
M  V30 12 C 1.18184 2.69117 -2.08312 0
M  V30 13 S 0.970624 -2.24616 -0.243735 0
M  V30 14 S -0.680771 -2.28081 1.09389 0
M  V30 15 C -2.17614 -2.32355 0.130709 0
M  V30 16 C -3.45255 -2.36861 0.652511 0
M  V30 17 C -3.82684 -2.3523 2.06448 0
M  V30 18 C -3.81501 -1.03698 2.76621 0
M  V30 19 N -2.56928 -0.348529 2.78321 0
M  V30 20 C -4.91585 -0.118321 2.42152 0
M  V30 21 O -6.11414 -0.537182 2.50956 0
M  V30 22 N -4.70586 1.20243 1.99875 0
M  V30 23 C -5.82974 2.04972 1.67473 0
M  V30 24 C -6.44286 1.75289 0.363955 0
M  V30 25 C -5.82519 2.04877 -0.831615 0
M  V30 26 C -6.44561 1.75594 -2.04615 0
M  V30 27 C -7.67881 1.16921 -2.07858 0
M  V30 28 C -8.32241 0.860988 -0.899983 0
M  V30 29 C -7.68984 1.15993 0.281717 0
M  V30 30 C -4.37886 -2.42134 -0.393353 0
M  V30 31 C -3.61006 -2.40391 -1.54383 0
M  V30 32 N -2.32205 -2.34593 -1.2025 0
M  V30 33 C -4.2972 -2.45344 -2.75053 0
M  V30 34 C -5.66943 -2.51766 -2.83733 0
M  V30 35 C -6.39462 -2.53424 -1.68616 0
M  V30 36 C -5.7696 -2.48708 -0.477918 0
M  V30 37 C 5.31252 -0.000401721 0.617857 0
M  V30 38 O 5.68528 0.983254 1.35126 0
M  V30 39 N 5.97991 -0.153804 -0.614768 0
M  V30 40 C 7.03257 0.744353 -1.0359 0
M  V30 41 C 8.30431 0.432041 -0.349566 0
M  V30 42 C 8.82929 1.18595 0.679847 0
M  V30 43 C 10.0343 0.801032 1.26066 0
M  V30 44 C 10.7278 -0.314964 0.840937 0
M  V30 45 C 10.195 -1.05146 -0.180126 0
M  V30 46 C 9.00548 -0.684188 -0.763975 0
M  V30 47 H 4.67389 -2.83723 0.73073 0
M  V30 48 H 4.10524 -1.99135 -0.672882 0
M  V30 49 H 4.6198 -1.23385 2.13231 0
M  V30 50 H 2.2754 -0.868568 1.99696 0
M  V30 51 H 3.09381 0.685938 2.10812 0
M  V30 52 H 0.19855 -0.0305885 -2.26892 0
M  V30 53 H 3.4633 2.74284 0.942966 0
M  V30 54 H 3.14977 4.80078 -0.321993 0
M  V30 55 H 1.68482 4.79164 -2.26762 0
M  V30 56 H 0.525815 2.66544 -2.94638 0
M  V30 57 H -4.80658 -2.86097 2.18976 0
M  V30 58 H -3.10112 -3.0095 2.63783 0
M  V30 59 H -3.9749 -1.32844 3.87851 0
M  V30 60 H -2.1003 -0.224921 3.67681 0
M  V30 61 H -2.32968 0.248992 2.00202 0
M  V30 62 H -3.75894 1.60953 1.90723 0
M  V30 63 H -6.60957 1.91939 2.47708 0
M  V30 64 H -5.56106 3.13492 1.7402 0
M  V30 65 H -4.85682 2.50906 -0.796147 0
M  V30 66 H -5.94523 1.99547 -2.97579 0
M  V30 67 H -8.13882 0.952147 -3.01772 0
M  V30 68 H -9.30585 0.393516 -0.890771 0
M  V30 69 H -8.24481 0.897835 1.19529 0
M  V30 70 H -1.50672 -2.31939 -1.85453 0
M  V30 71 H -3.70842 -2.44041 -3.65608 0
M  V30 72 H -6.20144 -2.55702 -3.78615 0
M  V30 73 H -7.48734 -2.58479 -1.66888 0
M  V30 74 H -6.34582 -2.50466 0.436899 0
M  V30 75 H 5.71636 -0.950652 -1.27004 0
M  V30 76 H 6.76573 1.79964 -0.761034 0
M  V30 77 H 7.15521 0.76287 -2.14548 0
M  V30 78 H 8.32784 2.05789 1.03271 0
M  V30 79 H 10.4683 1.38078 2.07746 0
M  V30 80 H 11.6505 -0.590097 1.3025 0
M  V30 81 H 10.7509 -1.92858 -0.503632 0
M  V30 82 H 8.61892 -1.28881 -1.56421 0
M  V30 END ATOM
M  V30 BEGIN BOND
M  V30 1 1 1 2
M  V30 2 1 2 3
M  V30 3 1 3 4
M  V30 4 2 4 5
M  V30 5 1 5 6
M  V30 6 1 6 7
M  V30 7 2 7 8
M  V30 8 1 8 9
M  V30 9 2 9 10
M  V30 10 1 10 11
M  V30 11 2 11 12
M  V30 12 1 5 13
M  V30 13 1 13 14
M  V30 14 1 14 15
M  V30 15 2 15 16
M  V30 16 1 16 17
M  V30 17 1 17 18
M  V30 18 1 18 19
M  V30 19 1 18 20
M  V30 20 2 20 21
M  V30 21 1 20 22
M  V30 22 1 22 23
M  V30 23 1 23 24
M  V30 24 2 24 25
M  V30 25 1 25 26
M  V30 26 2 26 27
M  V30 27 1 27 28
M  V30 28 2 28 29
M  V30 29 1 16 30
M  V30 30 2 30 31
M  V30 31 1 31 32
M  V30 32 1 31 33
M  V30 33 2 33 34
M  V30 34 1 34 35
M  V30 35 2 35 36
M  V30 36 1 2 37
M  V30 37 2 37 38
M  V30 38 1 37 39
M  V30 39 1 39 40
M  V30 40 1 40 41
M  V30 41 2 41 42
M  V30 42 1 42 43
M  V30 43 2 43 44
M  V30 44 1 44 45
M  V30 45 2 45 46
M  V30 46 1 8 4
M  V30 47 1 32 15
M  V30 48 1 46 41
M  V30 49 1 12 7
M  V30 50 1 29 24
M  V30 51 1 36 30
M  V30 52 1 1 47
M  V30 53 1 1 48
M  V30 54 1 2 49
M  V30 55 1 3 50
M  V30 56 1 3 51
M  V30 57 1 6 52
M  V30 58 1 9 53
M  V30 59 1 10 54
M  V30 60 1 11 55
M  V30 61 1 12 56
M  V30 62 1 17 57
M  V30 63 1 17 58
M  V30 64 1 18 59
M  V30 65 1 19 60
M  V30 66 1 19 61
M  V30 67 1 22 62
M  V30 68 1 23 63
M  V30 69 1 23 64
M  V30 70 1 25 65
M  V30 71 1 26 66
M  V30 72 1 27 67
M  V30 73 1 28 68
M  V30 74 1 29 69
M  V30 75 1 32 70
M  V30 76 1 33 71
M  V30 77 1 34 72
M  V30 78 1 35 73
M  V30 79 1 36 74
M  V30 80 1 39 75
M  V30 81 1 40 76
M  V30 82 1 40 77
M  V30 83 1 42 78
M  V30 84 1 43 79
M  V30 85 1 44 80
M  V30 86 1 45 81
M  V30 87 1 46 82
M  V30 END BOND
M  V30 END CTAB
M  END
