
     RDKit          3D

  0  0  0  0  0  0  0  0  0  0999 V3000
M  V30 BEGIN CTAB
M  V30 COUNTS 29 29 0 0 0
M  V30 BEGIN ATOM
M  V30 1 N -3.81951 1.03809 -0.305316 0
M  V30 2 C -2.9331 -0.108625 -0.426598 0
M  V30 3 C -1.70901 0.0489915 0.454683 0 CFG=2
M  V30 4 C -0.904428 1.26179 0.107356 0
M  V30 5 C 0.583208 0.975585 0.298073 0
M  V30 6 C 1.01618 -0.0207263 -0.76726 0 CFG=2
M  V30 7 C -0.0595452 -1.04125 -0.984947 0
M  V30 8 C -0.85334 -1.17962 0.300421 0
M  V30 9 C 2.29956 -0.660635 -0.379479 0
M  V30 10 O 2.33273 -1.91017 -0.234425 0
M  V30 11 N 3.45747 0.133161 -0.179763 0
M  V30 12 N 4.65936 -0.470898 0.183912 0
M  V30 13 H -3.65046 1.49124 0.597377 0
M  V30 14 H -4.80693 0.773019 -0.491356 0
M  V30 15 H -3.44338 -1.04259 -0.113581 0
M  V30 16 H -2.68619 -0.214569 -1.49382 0
M  V30 17 H -2.08573 0.122299 1.50003 0
M  V30 18 H -1.15288 2.06775 0.839965 0
M  V30 19 H -1.05431 1.62329 -0.927471 0
M  V30 20 H 1.15092 1.9101 0.114141 0
M  V30 21 H 0.732139 0.5562 1.29424 0
M  V30 22 H 1.20228 0.498609 -1.74012 0
M  V30 23 H -0.722001 -0.673411 -1.79728 0
M  V30 24 H 0.343805 -2.0233 -1.31738 0
M  V30 25 H -1.51186 -2.07723 0.230943 0
M  V30 26 H -0.169617 -1.26886 1.16923 0
M  V30 27 H 3.40982 1.16648 -0.304683 0
M  V30 28 H 5.41627 0.243815 0.235868 0
M  V30 29 H 4.95855 -1.21853 -0.483052 0
M  V30 END ATOM
M  V30 BEGIN BOND
M  V30 1 1 1 2
M  V30 2 1 2 3
M  V30 3 1 3 4
M  V30 4 1 4 5
M  V30 5 1 5 6
M  V30 6 1 6 7
M  V30 7 1 7 8
M  V30 8 1 6 9
M  V30 9 2 9 10
M  V30 10 1 9 11
M  V30 11 1 11 12
M  V30 12 1 8 3
M  V30 13 1 1 13
M  V30 14 1 1 14
M  V30 15 1 2 15
M  V30 16 1 2 16
M  V30 17 1 3 17 CFG=1
M  V30 18 1 4 18
M  V30 19 1 4 19
M  V30 20 1 5 20
M  V30 21 1 5 21
M  V30 22 1 6 22 CFG=3
M  V30 23 1 7 23
M  V30 24 1 7 24
M  V30 25 1 8 25
M  V30 26 1 8 26
M  V30 27 1 11 27
M  V30 28 1 12 28
M  V30 29 1 12 29
M  V30 END BOND
M  V30 END CTAB
M  END
