
     RDKit          3D

  0  0  0  0  0  0  0  0  0  0999 V3000
M  V30 BEGIN CTAB
M  V30 COUNTS 36 38 0 0 0
M  V30 BEGIN ATOM
M  V30 1 C -2.83116 -0.42792 1.84318 0
M  V30 2 C -3.27173 0.530818 0.803242 0
M  V30 3 C -2.44863 0.743635 -0.276898 0
M  V30 4 C -2.85275 1.64254 -1.26021 0
M  V30 5 C -4.05242 2.31675 -1.17086 0
M  V30 6 C -4.86493 2.08909 -0.0781064 0
M  V30 7 C -4.48119 1.19078 0.923099 0
M  V30 8 N -1.22812 0.0351768 -0.333796 0
M  V30 9 N -0.00542129 0.489702 -0.150783 0
M  V30 10 C 0.899268 -0.471644 -0.282881 0
M  V30 11 C 0.224435 -1.6373 -0.572472 0
M  V30 12 C -1.12537 -1.27407 -0.596191 0
M  V30 13 N -2.13068 -2.23138 -0.866965 0
M  V30 14 C 2.34108 -0.357262 -0.153979 0
M  V30 15 C 3.20715 -1.4086 -0.307455 0
M  V30 16 C 4.57103 -1.29182 -0.183745 0
M  V30 17 C 5.1185 -0.0697758 0.108185 0
M  V30 18 N 6.5379 0.0865773 0.244111 0
M  V30 19 C 4.2864 1.00617 0.269213 0
M  V30 20 C 2.92017 0.878351 0.143058 0
M  V30 21 H -3.39589 -1.39455 1.77914 0
M  V30 22 H -3.1503 0.00661907 2.83626 0
M  V30 23 H -1.75103 -0.55663 1.90637 0
M  V30 24 H -2.1707 1.77484 -2.08881 0
M  V30 25 H -4.31196 3.00573 -1.97084 0
M  V30 26 H -5.79607 2.62749 -0.0315418 0
M  V30 27 H -5.13039 1.01462 1.78756 0
M  V30 28 H 0.649541 -2.62225 -0.744467 0
M  V30 29 H -2.71638 -2.14201 -1.70384 0
M  V30 30 H -2.25607 -3.0156 -0.203033 0
M  V30 31 H 2.78935 -2.39923 -0.542202 0
M  V30 32 H 5.24937 -2.14295 -0.30966 0
M  V30 33 H 7.15375 -0.740248 0.401829 0
M  V30 34 H 6.96281 1.02469 0.186432 0
M  V30 35 H 4.73742 1.96113 0.499041 0
M  V30 36 H 2.32303 1.75852 0.280894 0
M  V30 END ATOM
M  V30 BEGIN BOND
M  V30 1 1 1 2
M  V30 2 2 2 3
M  V30 3 1 3 4
M  V30 4 2 4 5
M  V30 5 1 5 6
M  V30 6 2 6 7
M  V30 7 1 3 8
M  V30 8 1 8 9
M  V30 9 2 9 10
M  V30 10 1 10 11
M  V30 11 2 11 12
M  V30 12 1 12 13
M  V30 13 1 10 14
M  V30 14 2 14 15
M  V30 15 1 15 16
M  V30 16 2 16 17
M  V30 17 1 17 18
M  V30 18 1 17 19
M  V30 19 2 19 20
M  V30 20 1 7 2
M  V30 21 1 12 8
M  V30 22 1 20 14
M  V30 23 1 1 21
M  V30 24 1 1 22
M  V30 25 1 1 23
M  V30 26 1 4 24
M  V30 27 1 5 25
M  V30 28 1 6 26
M  V30 29 1 7 27
M  V30 30 1 11 28
M  V30 31 1 13 29
M  V30 32 1 13 30
M  V30 33 1 15 31
M  V30 34 1 16 32
M  V30 35 1 18 33
M  V30 36 1 18 34
M  V30 37 1 19 35
M  V30 38 1 20 36
M  V30 END BOND
M  V30 END CTAB
M  END
