
     RDKit          3D

  0  0  0  0  0  0  0  0  0  0999 V3000
M  V30 BEGIN CTAB
M  V30 COUNTS 35 36 0 0 0
M  V30 BEGIN ATOM
M  V30 1 C -2.17214 -3.68645 0.391591 0
M  V30 2 O -2.86651 -2.48915 0.675701 0
M  V30 3 C -2.35959 -1.27718 0.236216 0
M  V30 4 C -1.1846 -1.19079 -0.478702 0
M  V30 5 C -0.675075 0.0382772 -0.921543 0
M  V30 6 C 0.567022 0.0885847 -1.69759 0
M  V30 7 C 1.80562 -0.0784252 -0.910771 0
M  V30 8 C 2.37483 0.911562 -0.157025 0
M  V30 9 N 1.76022 2.19445 -0.139859 0
M  V30 10 N 3.51622 0.694375 0.563563 0
M  V30 11 C 4.12169 -0.495567 0.55918 0
M  V30 12 N 5.31646 -0.705403 1.32011 0
M  V30 13 N 3.59145 -1.48587 -0.168154 0
M  V30 14 C 2.47797 -1.30878 -0.883372 0
M  V30 15 C -1.41501 1.14891 -0.601549 0
M  V30 16 C -2.59917 1.0663 0.11868 0
M  V30 17 O -3.35904 2.18905 0.449517 0
M  V30 18 C -2.93528 3.49244 0.0508224 0
M  V30 19 C -3.08652 -0.148294 0.547007 0
M  V30 20 Cl -4.59659 -0.260553 1.4628 0
M  V30 21 H -1.71839 -3.72802 -0.603178 0
M  V30 22 H -1.37744 -3.77457 1.18928 0
M  V30 23 H -2.86489 -4.57117 0.44998 0
M  V30 24 H -0.591165 -2.05411 -0.736798 0
M  V30 25 H 0.625169 0.989892 -2.35861 0
M  V30 26 H 0.535472 -0.766824 -2.43761 0
M  V30 27 H 1.89678 2.81404 -0.960833 0
M  V30 28 H 1.1907 2.5024 0.672174 0
M  V30 29 H 5.71509 0.0107628 1.93718 0
M  V30 30 H 5.7894 -1.6255 1.2354 0
M  V30 31 H 2.03475 -2.11169 -1.48299 0
M  V30 32 H -1.12078 2.13145 -0.899932 0
M  V30 33 H -3.46624 4.27871 0.602827 0
M  V30 34 H -1.85737 3.584 0.343184 0
M  V30 35 H -3.07305 3.62314 -1.0433 0
M  V30 END ATOM
M  V30 BEGIN BOND
M  V30 1 1 1 2
M  V30 2 1 2 3
M  V30 3 2 3 4
M  V30 4 1 4 5
M  V30 5 1 5 6
M  V30 6 1 6 7
M  V30 7 2 7 8
M  V30 8 1 8 9
M  V30 9 1 8 10
M  V30 10 2 10 11
M  V30 11 1 11 12
M  V30 12 1 11 13
M  V30 13 2 13 14
M  V30 14 2 5 15
M  V30 15 1 15 16
M  V30 16 1 16 17
M  V30 17 1 17 18
M  V30 18 2 16 19
M  V30 19 1 19 20
M  V30 20 1 19 3
M  V30 21 1 14 7
M  V30 22 1 1 21
M  V30 23 1 1 22
M  V30 24 1 1 23
M  V30 25 1 4 24
M  V30 26 1 6 25
M  V30 27 1 6 26
M  V30 28 1 9 27
M  V30 29 1 9 28
M  V30 30 1 12 29
M  V30 31 1 12 30
M  V30 32 1 14 31
M  V30 33 1 15 32
M  V30 34 1 18 33
M  V30 35 1 18 34
M  V30 36 1 18 35
M  V30 END BOND
M  V30 END CTAB
M  END
