
     RDKit          3D

  0  0  0  0  0  0  0  0  0  0999 V3000
M  V30 BEGIN CTAB
M  V30 COUNTS 24 23 0 0 0
M  V30 BEGIN ATOM
M  V30 1 C 0.317733 -1.65455 1.08209 0
M  V30 2 C -0.208731 -0.360174 0.488666 0
M  V30 3 C 0.697284 0.00543211 -0.655634 0
M  V30 4 C 2.09917 0.177359 -0.0749337 0
M  V30 5 N 3.02809 0.532855 -1.13259 0
M  V30 6 C -1.62493 -0.582649 0.0887506 0
M  V30 7 C -2.31167 0.593675 -0.519947 0
M  V30 8 N -2.39493 1.75038 0.303086 0
M  V30 9 H 0.996769 -2.18434 0.36011 0
M  V30 10 H -0.492187 -2.37904 1.30229 0
M  V30 11 H 0.919262 -1.48823 1.99607 0
M  V30 12 H -0.128462 0.402497 1.28671 0
M  V30 13 H 0.778759 -0.872197 -1.35799 0
M  V30 14 H 0.415933 0.919332 -1.1764 0
M  V30 15 H 2.09178 1.00349 0.684453 0
M  V30 16 H 2.45516 -0.755619 0.401571 0
M  V30 17 H 3.92119 -0.0235514 -1.0394 0
M  V30 18 H 3.29528 1.52578 -1.07279 0
M  V30 19 H -2.19129 -0.909673 0.97457 0
M  V30 20 H -1.65162 -1.41015 -0.649682 0
M  V30 21 H -1.84943 0.898207 -1.49178 0
M  V30 22 H -3.34643 0.278739 -0.775037 0
M  V30 23 H -1.54252 2.26465 0.474178 0
M  V30 24 H -3.27422 2.26777 0.261233 0
M  V30 END ATOM
M  V30 BEGIN BOND
M  V30 1 1 1 2
M  V30 2 1 2 3
M  V30 3 1 3 4
M  V30 4 1 4 5
M  V30 5 1 2 6
M  V30 6 1 6 7
M  V30 7 1 7 8
M  V30 8 1 1 9
M  V30 9 1 1 10
M  V30 10 1 1 11
M  V30 11 1 2 12
M  V30 12 1 3 13
M  V30 13 1 3 14
M  V30 14 1 4 15
M  V30 15 1 4 16
M  V30 16 1 5 17
M  V30 17 1 5 18
M  V30 18 1 6 19
M  V30 19 1 6 20
M  V30 20 1 7 21
M  V30 21 1 7 22
M  V30 22 1 8 23
M  V30 23 1 8 24
M  V30 END BOND
M  V30 END CTAB
M  END
