
     RDKit          3D

  0  0  0  0  0  0  0  0  0  0999 V3000
M  V30 BEGIN CTAB
M  V30 COUNTS 28 29 0 0 0
M  V30 BEGIN ATOM
M  V30 1 N 4.95783 0.341047 -0.614707 0
M  V30 2 C 3.54062 0.291429 -0.539767 0
M  V30 3 C 2.76948 0.552663 -1.65363 0
M  V30 4 C 1.40967 0.495783 -1.54498 0
M  V30 5 C 0.734619 0.188021 -0.371525 0
M  V30 6 C 1.51505 -0.0708072 0.734283 0
M  V30 7 C 2.91194 -0.0203016 0.654033 0
M  V30 8 C -0.713707 0.144897 -0.294508 0
M  V30 9 C -1.34998 -0.903916 0.290322 0
M  V30 10 N -0.619882 -1.98383 0.826279 0
M  V30 11 C -2.72446 -0.922981 0.358998 0
M  V30 12 C -3.49417 0.11433 -0.160099 0
M  V30 13 C -2.85271 1.1828 -0.755874 0
M  V30 14 C -1.48364 1.19208 -0.818983 0
M  V30 15 N -4.90487 0.0821555 -0.0829023 0 CHG=1
M  V30 16 O -5.69848 1.07767 -0.578731 0 CHG=-1
M  V30 17 O -5.45357 -0.888702 0.456976 0
M  V30 18 H 5.54902 -0.146271 0.0929695 0
M  V30 19 H 5.45302 0.860947 -1.3719 0
M  V30 20 H 3.30257 0.791687 -2.56421 0
M  V30 21 H 0.801038 0.700091 -2.41662 0
M  V30 22 H 1.11725 -0.317107 1.70382 0
M  V30 23 H 3.52952 -0.222786 1.51911 0
M  V30 24 H -0.517832 -2.09067 1.85903 0
M  V30 25 H -0.158854 -2.70855 0.23534 0
M  V30 26 H -3.26371 -1.73726 0.81518 0
M  V30 27 H -3.42631 1.9992 -1.16589 0
M  V30 28 H -0.929471 1.99838 -1.27155 0
M  V30 END ATOM
M  V30 BEGIN BOND
M  V30 1 1 1 2
M  V30 2 2 2 3
M  V30 3 1 3 4
M  V30 4 2 4 5
M  V30 5 1 5 6
M  V30 6 2 6 7
M  V30 7 1 5 8
M  V30 8 2 8 9
M  V30 9 1 9 10
M  V30 10 1 9 11
M  V30 11 2 11 12
M  V30 12 1 12 13
M  V30 13 2 13 14
M  V30 14 1 12 15
M  V30 15 1 15 16
M  V30 16 2 15 17
M  V30 17 1 7 2
M  V30 18 1 14 8
M  V30 19 1 1 18
M  V30 20 1 1 19
M  V30 21 1 3 20
M  V30 22 1 4 21
M  V30 23 1 6 22
M  V30 24 1 7 23
M  V30 25 1 10 24
M  V30 26 1 10 25
M  V30 27 1 11 26
M  V30 28 1 13 27
M  V30 29 1 14 28
M  V30 END BOND
M  V30 END CTAB
M  END
