
     RDKit          3D

  0  0  0  0  0  0  0  0  0  0999 V3000
M  V30 BEGIN CTAB
M  V30 COUNTS 62 64 0 0 0
M  V30 BEGIN ATOM
M  V30 1 C 8.17847 -0.641063 -0.732529 0
M  V30 2 C 7.51162 -0.874633 -2.04776 0
M  V30 3 C 6.63803 -2.10588 -2.03079 0
M  V30 4 C 5.56408 -1.87625 -0.93796 0
M  V30 5 O 4.8282 -0.760068 -1.24695 0
M  V30 6 C 3.90336 -0.495936 -0.206271 0
M  V30 7 C 2.94848 -1.59055 0.000721813 0
M  V30 8 O 2.02364 -1.44422 0.95586 0
M  V30 9 C 1.11582 -0.507665 1.09505 0
M  V30 10 C 1.3898 0.839586 1.59131 0
M  V30 11 C 0.312289 1.74325 1.60231 0
M  V30 12 C 0.477329 2.99922 2.11387 0
M  V30 13 N -0.64559 3.89444 2.10944 0
M  V30 14 N 1.6645 3.37257 2.6052 0
M  V30 15 C 2.69042 2.51152 2.59433 0
M  V30 16 N 3.97991 2.87758 3.11275 0
M  V30 17 N 2.52884 1.28787 2.09591 0
M  V30 18 C -0.996776 1.32568 1.05539 0
M  V30 19 C -1.91085 0.599606 1.78418 0
M  V30 20 C -3.12845 0.240478 1.20961 0
M  V30 21 C -3.46667 0.586704 -0.0832798 0
M  V30 22 N -4.72531 0.203933 -0.632157 0
M  V30 23 C -5.66543 -0.509236 0.172377 0
M  V30 24 C -6.9202 -0.849847 -0.505709 0
M  V30 25 C -7.11747 -0.893572 -1.85335 0
M  V30 26 C -8.35732 -1.22095 -2.36695 0
M  V30 27 C -9.42139 -1.51034 -1.52872 0
M  V30 28 Cl -10.9875 -1.92591 -2.20642 0
M  V30 29 C -9.25347 -1.47518 -0.155368 0
M  V30 30 C -8.00734 -1.14611 0.308077 0
M  V30 31 C -2.5381 1.31678 -0.805349 0
M  V30 32 C -1.33059 1.67598 -0.242942 0
M  V30 33 H 7.58826 -0.0180588 -0.0271636 0
M  V30 34 H 8.34451 -1.62925 -0.249899 0
M  V30 35 H 9.17673 -0.186986 -0.916924 0
M  V30 36 H 6.95833 0.0291059 -2.35956 0
M  V30 37 H 8.30112 -1.03759 -2.80818 0
M  V30 38 H 7.21415 -2.97537 -1.69832 0
M  V30 39 H 6.13163 -2.2807 -2.99126 0
M  V30 40 H 6.04791 -1.75607 0.0470653 0
M  V30 41 H 4.90026 -2.78831 -0.966437 0
M  V30 42 H 3.38149 0.476555 -0.481453 0
M  V30 43 H 4.55118 -0.261695 0.659693 0
M  V30 44 H 2.49037 -1.94308 -0.986684 0
M  V30 45 H 3.53831 -2.55579 0.283717 0
M  V30 46 H 0.569159 -0.404664 0.0936677 0
M  V30 47 H 0.280853 -0.91719 1.77185 0
M  V30 48 H -0.658933 4.62346 1.36785 0
M  V30 49 H -1.42444 3.85727 2.78549 0
M  V30 50 H 4.85964 2.6366 2.6043 0
M  V30 51 H 4.10409 3.39288 4.00509 0
M  V30 52 H -1.67363 0.314344 2.79593 0
M  V30 53 H -3.86283 -0.333136 1.77142 0
M  V30 54 H -4.88876 0.482514 -1.62889 0
M  V30 55 H -5.88739 0.00382112 1.14788 0
M  V30 56 H -5.18261 -1.47988 0.493211 0
M  V30 57 H -6.2851 -0.668757 -2.5149 0
M  V30 58 H -8.51356 -1.25417 -3.43593 0
M  V30 59 H -10.0882 -1.70109 0.525218 0
M  V30 60 H -7.90033 -1.12583 1.39743 0
M  V30 61 H -2.77567 1.5987 -1.81255 0
M  V30 62 H -0.578815 2.25457 -0.798253 0
M  V30 END ATOM
M  V30 BEGIN BOND
M  V30 1 1 1 2
M  V30 2 1 2 3
M  V30 3 1 3 4
M  V30 4 1 4 5
M  V30 5 1 5 6
M  V30 6 1 6 7
M  V30 7 1 7 8
M  V30 8 1 8 9
M  V30 9 1 9 10
M  V30 10 2 10 11
M  V30 11 1 11 12
M  V30 12 1 12 13
M  V30 13 2 12 14
M  V30 14 1 14 15
M  V30 15 1 15 16
M  V30 16 2 15 17
M  V30 17 1 11 18
M  V30 18 2 18 19
M  V30 19 1 19 20
M  V30 20 2 20 21
M  V30 21 1 21 22
M  V30 22 1 22 23
M  V30 23 1 23 24
M  V30 24 2 24 25
M  V30 25 1 25 26
M  V30 26 2 26 27
M  V30 27 1 27 28
M  V30 28 1 27 29
M  V30 29 2 29 30
M  V30 30 1 21 31
M  V30 31 2 31 32
M  V30 32 1 17 10
M  V30 33 1 32 18
M  V30 34 1 30 24
M  V30 35 1 1 33
M  V30 36 1 1 34
M  V30 37 1 1 35
M  V30 38 1 2 36
M  V30 39 1 2 37
M  V30 40 1 3 38
M  V30 41 1 3 39
M  V30 42 1 4 40
M  V30 43 1 4 41
M  V30 44 1 6 42
M  V30 45 1 6 43
M  V30 46 1 7 44
M  V30 47 1 7 45
M  V30 48 1 9 46
M  V30 49 1 9 47
M  V30 50 1 13 48
M  V30 51 1 13 49
M  V30 52 1 16 50
M  V30 53 1 16 51
M  V30 54 1 19 52
M  V30 55 1 20 53
M  V30 56 1 22 54
M  V30 57 1 23 55
M  V30 58 1 23 56
M  V30 59 1 25 57
M  V30 60 1 26 58
M  V30 61 1 29 59
M  V30 62 1 30 60
M  V30 63 1 31 61
M  V30 64 1 32 62
M  V30 END BOND
M  V30 END CTAB
M  END
