
     RDKit          3D

  0  0  0  0  0  0  0  0  0  0999 V3000
M  V30 BEGIN CTAB
M  V30 COUNTS 34 35 0 0 0
M  V30 BEGIN ATOM
M  V30 1 C 0.46732 1.62522 1.30527 0
M  V30 2 N 0.0665915 0.32272 0.785325 0
M  V30 3 C -1.25503 0.19939 0.300566 0
M  V30 4 C -2.23449 -0.201741 1.18349 0
M  V30 5 N -1.92503 -0.485838 2.52788 0
M  V30 6 C -3.51919 -0.320592 0.732288 0
M  V30 7 C -3.79556 -0.0309121 -0.610409 0
M  V30 8 C -2.80637 0.368541 -1.47926 0
M  V30 9 C -1.51518 0.485174 -1.01413 0
M  V30 10 F -0.523937 0.879818 -1.83655 0
M  V30 11 Cl -3.10943 0.738811 -3.15951 0
M  V30 12 N -5.11319 -0.136817 -1.13689 0
M  V30 13 C 0.967296 -0.775333 0.78836 0
M  V30 14 C 2.2316 -0.572371 0.0493969 0
M  V30 15 C 2.47138 -1.10022 -1.19611 0
M  V30 16 C 3.64172 -0.919193 -1.89346 0
M  V30 17 C 4.62273 -0.154445 -1.2815 0
M  V30 18 C 4.41146 0.388839 -0.0314503 0
M  V30 19 C 3.22154 0.183035 0.635094 0
M  V30 20 H -0.384208 2.29584 1.43683 0
M  V30 21 H 1.20375 2.12478 0.657143 0
M  V30 22 H 0.897164 1.45184 2.33511 0
M  V30 23 H -1.52369 -1.42499 2.82253 0
M  V30 24 H -2.06421 0.191472 3.31847 0
M  V30 25 H -4.34106 -0.625673 1.34862 0
M  V30 26 H -5.87073 0.328793 -0.613477 0
M  V30 27 H -5.25875 -0.668286 -2.01062 0
M  V30 28 H 1.28168 -1.07563 1.83125 0
M  V30 29 H 0.448591 -1.67097 0.345431 0
M  V30 30 H 1.6778 -1.70207 -1.65841 0
M  V30 31 H 3.82876 -1.33433 -2.87162 0
M  V30 32 H 5.5761 0.0159363 -1.80482 0
M  V30 33 H 5.16159 0.97826 0.445588 0
M  V30 34 H 3.06298 0.620942 1.63215 0
M  V30 END ATOM
M  V30 BEGIN BOND
M  V30 1 1 1 2
M  V30 2 1 2 3
M  V30 3 2 3 4
M  V30 4 1 4 5
M  V30 5 1 4 6
M  V30 6 2 6 7
M  V30 7 1 7 8
M  V30 8 2 8 9
M  V30 9 1 9 10
M  V30 10 1 8 11
M  V30 11 1 7 12
M  V30 12 1 2 13
M  V30 13 1 13 14
M  V30 14 2 14 15
M  V30 15 1 15 16
M  V30 16 2 16 17
M  V30 17 1 17 18
M  V30 18 2 18 19
M  V30 19 1 9 3
M  V30 20 1 19 14
M  V30 21 1 1 20
M  V30 22 1 1 21
M  V30 23 1 1 22
M  V30 24 1 5 23
M  V30 25 1 5 24
M  V30 26 1 6 25
M  V30 27 1 12 26
M  V30 28 1 12 27
M  V30 29 1 13 28
M  V30 30 1 13 29
M  V30 31 1 15 30
M  V30 32 1 16 31
M  V30 33 1 17 32
M  V30 34 1 18 33
M  V30 35 1 19 34
M  V30 END BOND
M  V30 END CTAB
M  END
