
     RDKit          3D

  0  0  0  0  0  0  0  0  0  0999 V3000
M  V30 BEGIN CTAB
M  V30 COUNTS 27 27 0 0 0
M  V30 BEGIN ATOM
M  V30 1 C 0.00684495 2.28324 -0.0564232 0
M  V30 2 N 0.803036 1.0782 0.0327977 0
M  V30 3 N 2.11756 1.09313 -0.270936 0
M  V30 4 C 2.63479 -0.123608 -0.0905668 0
M  V30 5 C 4.04282 -0.548491 -0.307534 0
M  V30 6 C 1.58475 -0.903268 0.339989 0
M  V30 7 N 1.7361 -2.28096 0.643213 0
M  V30 8 C 0.418926 -0.135485 0.417125 0
M  V30 9 N -0.818453 -0.688395 0.80645 0
M  V30 10 C -2.11269 -0.119062 0.832525 0
M  V30 11 C -2.80133 0.102219 -0.463581 0
M  V30 12 N -4.1082 0.706965 -0.134285 0
M  V30 13 H -0.71615 2.37706 0.766017 0
M  V30 14 H 0.669074 3.18749 -0.0924884 0
M  V30 15 H -0.559089 2.23407 -1.0142 0
M  V30 16 H 4.16465 -1.6037 0.0196006 0
M  V30 17 H 4.35671 -0.38997 -1.35809 0
M  V30 18 H 4.73553 0.0488187 0.346479 0
M  V30 19 H 2.49725 -2.67351 1.23737 0
M  V30 20 H 1.04423 -2.95242 0.249573 0
M  V30 21 H -0.804165 -1.72188 1.14989 0
M  V30 22 H -2.14736 0.7674 1.51281 0
M  V30 23 H -2.80354 -0.854916 1.38721 0
M  V30 24 H -2.35307 0.724966 -1.21098 0
M  V30 25 H -3.02152 -0.925855 -0.904391 0
M  V30 26 H -3.90475 1.3839 0.635739 0
M  V30 27 H -4.66195 -0.0659475 0.298989 0
M  V30 END ATOM
M  V30 BEGIN BOND
M  V30 1 1 1 2
M  V30 2 1 2 3
M  V30 3 2 3 4
M  V30 4 1 4 5
M  V30 5 1 4 6
M  V30 6 1 6 7
M  V30 7 2 6 8
M  V30 8 1 8 9
M  V30 9 1 9 10
M  V30 10 1 10 11
M  V30 11 1 11 12
M  V30 12 1 8 2
M  V30 13 1 1 13
M  V30 14 1 1 14
M  V30 15 1 1 15
M  V30 16 1 5 16
M  V30 17 1 5 17
M  V30 18 1 5 18
M  V30 19 1 7 19
M  V30 20 1 7 20
M  V30 21 1 9 21
M  V30 22 1 10 22
M  V30 23 1 10 23
M  V30 24 1 11 24
M  V30 25 1 11 25
M  V30 26 1 12 26
M  V30 27 1 12 27
M  V30 END BOND
M  V30 END CTAB
M  END
