
     RDKit          3D

  0  0  0  0  0  0  0  0  0  0999 V3000
M  V30 BEGIN CTAB
M  V30 COUNTS 28 29 0 0 0
M  V30 BEGIN ATOM
M  V30 1 O -0.00807529 0.667343 -2.23104 0
M  V30 2 C -0.0467577 0.328376 -0.998133 0
M  V30 3 C 1.22572 0.032554 -0.373385 0
M  V30 4 C 1.36296 -0.843356 0.69995 0
M  V30 5 C 2.60314 -1.0677 1.2698 0
M  V30 6 C 3.75875 -0.463152 0.83388 0
M  V30 7 C 3.63068 0.403293 -0.22623 0
M  V30 8 C 2.40178 0.633409 -0.79976 0
M  V30 9 N 4.82422 1.04305 -0.693234 0
M  V30 10 I 5.62748 -0.843936 1.74232 0
M  V30 11 C -1.29152 0.246541 -0.278682 0
M  V30 12 C -1.33728 0.472474 1.07389 0
M  V30 13 C -2.53573 0.342188 1.74748 0
M  V30 14 C -3.68233 -0.0146576 1.05838 0
M  V30 15 C -3.63027 -0.241833 -0.315156 0
M  V30 16 C -2.44469 -0.113414 -0.987354 0
M  V30 17 N -4.86419 -0.617704 -0.963998 0
M  V30 18 I -5.52706 -0.225001 2.05775 0
M  V30 19 H 0.472772 -1.35305 1.06187 0
M  V30 20 H 2.6887 -1.7517 2.1018 0
M  V30 21 H 2.29728 1.31738 -1.64078 0
M  V30 22 H 4.77692 1.62501 -1.54542 0
M  V30 23 H 5.71898 0.932037 -0.197342 0
M  V30 24 H -0.472499 0.762316 1.65667 0
M  V30 25 H -2.55894 0.524346 2.8127 0
M  V30 26 H -2.41229 -0.291476 -2.06742 0
M  V30 27 H -5.54336 -1.19135 -0.419067 0
M  V30 28 H -5.03439 -0.311983 -1.94316 0
M  V30 END ATOM
M  V30 BEGIN BOND
M  V30 1 2 1 2
M  V30 2 1 2 3
M  V30 3 2 3 4
M  V30 4 1 4 5
M  V30 5 2 5 6
M  V30 6 1 6 7
M  V30 7 2 7 8
M  V30 8 1 7 9
M  V30 9 1 6 10
M  V30 10 1 2 11
M  V30 11 2 11 12
M  V30 12 1 12 13
M  V30 13 2 13 14
M  V30 14 1 14 15
M  V30 15 2 15 16
M  V30 16 1 15 17
M  V30 17 1 14 18
M  V30 18 1 8 3
M  V30 19 1 16 11
M  V30 20 1 4 19
M  V30 21 1 5 20
M  V30 22 1 8 21
M  V30 23 1 9 22
M  V30 24 1 9 23
M  V30 25 1 12 24
M  V30 26 1 13 25
M  V30 27 1 16 26
M  V30 28 1 17 27
M  V30 29 1 17 28
M  V30 END BOND
M  V30 END CTAB
M  END
