
     RDKit          3D

  0  0  0  0  0  0  0  0  0  0999 V3000
M  V30 BEGIN CTAB
M  V30 COUNTS 29 28 0 0 0
M  V30 BEGIN ATOM
M  V30 1 C -0.0177844 1.16461 -1.51192 0
M  V30 2 C -0.0604568 0.987483 -0.0172749 0
M  V30 3 C 0.614896 2.24451 0.559758 0
M  V30 4 O 0.638223 -0.0829175 0.445426 0
M  V30 5 C 1.9362 -0.196717 0.00372163 0
M  V30 6 C 2.59286 -1.4265 0.593963 0
M  V30 7 N 3.96448 -1.51341 0.104057 0
M  V30 8 O -1.33668 0.984252 0.49697 0
M  V30 9 C -2.00166 -0.174633 0.123155 0
M  V30 10 C -3.40225 -0.229561 0.659017 0
M  V30 11 N -3.98802 -1.49231 0.195573 0
M  V30 12 H -0.881613 1.81547 -1.78368 0
M  V30 13 H 0.907089 1.67306 -1.77339 0
M  V30 14 H -0.147551 0.225985 -2.06912 0
M  V30 15 H 0.739545 2.12854 1.64054 0
M  V30 16 H -0.118747 3.07428 0.337052 0
M  V30 17 H 1.53246 2.48662 0.0096287 0
M  V30 18 H 2.03809 -0.272793 -1.09219 0
M  V30 19 H 2.53004 0.67794 0.341843 0
M  V30 20 H 2.58432 -1.40414 1.70673 0
M  V30 21 H 2.01594 -2.32364 0.229392 0
M  V30 22 H 4.07767 -0.98518 -0.805864 0
M  V30 23 H 4.21467 -2.52242 -0.116359 0
M  V30 24 H -2.04316 -0.214619 -0.965582 0
M  V30 25 H -1.44304 -1.02357 0.579386 0
M  V30 26 H -3.46175 -0.239803 1.76074 0
M  V30 27 H -4.04124 0.596403 0.295505 0
M  V30 28 H -3.68226 -1.68414 -0.791889 0
M  V30 29 H -3.76029 -2.27281 0.844818 0
M  V30 END ATOM
M  V30 BEGIN BOND
M  V30 1 1 1 2
M  V30 2 1 2 3
M  V30 3 1 2 4
M  V30 4 1 4 5
M  V30 5 1 5 6
M  V30 6 1 6 7
M  V30 7 1 2 8
M  V30 8 1 8 9
M  V30 9 1 9 10
M  V30 10 1 10 11
M  V30 11 1 1 12
M  V30 12 1 1 13
M  V30 13 1 1 14
M  V30 14 1 3 15
M  V30 15 1 3 16
M  V30 16 1 3 17
M  V30 17 1 5 18
M  V30 18 1 5 19
M  V30 19 1 6 20
M  V30 20 1 6 21
M  V30 21 1 7 22
M  V30 22 1 7 23
M  V30 23 1 9 24
M  V30 24 1 9 25
M  V30 25 1 10 26
M  V30 26 1 10 27
M  V30 27 1 11 28
M  V30 28 1 11 29
M  V30 END BOND
M  V30 END CTAB
M  END
