
     RDKit          3D

  0  0  0  0  0  0  0  0  0  0999 V3000
M  V30 BEGIN CTAB
M  V30 COUNTS 21 20 0 0 0
M  V30 BEGIN ATOM
M  V30 1 C -1.58404 -0.374433 -0.305094 0 CFG=1
M  V30 2 N -1.9362 0.981749 -0.0234842 0
M  V30 3 C -0.215361 -0.61754 0.290635 0
M  V30 4 N 0.675796 0.325691 -0.359646 0
M  V30 5 C 2.05709 0.399135 -0.0588448 0
M  V30 6 N 2.76821 1.62471 -0.0694564 0
M  V30 7 N 2.7011 -0.671349 0.235302 0
M  V30 8 O 4.02523 -0.707121 0.538447 0
M  V30 9 C -2.60409 -1.29249 0.131995 0
M  V30 10 O -3.74247 -0.782125 0.739738 0
M  V30 11 O -2.55709 -2.54136 0.0109601 0
M  V30 12 H -1.46089 -0.474947 -1.39974 0
M  V30 13 H -2.48985 1.43956 -0.765953 0
M  V30 14 H -2.32929 1.08981 0.93394 0
M  V30 15 H -0.207718 -0.509009 1.39454 0
M  V30 16 H 0.155093 -1.64754 0.0738165 0
M  V30 17 H 0.349699 1.0173 -1.09885 0
M  V30 18 H 3.67472 1.73502 -0.571504 0
M  V30 19 H 2.40136 2.46268 0.430672 0
M  V30 20 H 4.69201 -1.30651 0.0290248 0
M  V30 21 H -4.37329 -0.151238 0.22673 0
M  V30 END ATOM
M  V30 BEGIN BOND
M  V30 1 1 1 2
M  V30 2 1 1 3
M  V30 3 1 3 4
M  V30 4 1 4 5
M  V30 5 1 5 6
M  V30 6 2 5 7 CFG=2
M  V30 7 1 7 8
M  V30 8 1 1 9
M  V30 9 1 9 10
M  V30 10 2 9 11
M  V30 11 1 1 12 CFG=3
M  V30 12 1 2 13
M  V30 13 1 2 14
M  V30 14 1 3 15
M  V30 15 1 3 16
M  V30 16 1 4 17
M  V30 17 1 6 18
M  V30 18 1 6 19
M  V30 19 1 8 20
M  V30 20 1 10 21
M  V30 END BOND
M  V30 END CTAB
M  END
