
     RDKit          3D

  0  0  0  0  0  0  0  0  0  0999 V3000
M  V30 BEGIN CTAB
M  V30 COUNTS 47 48 0 0 0
M  V30 BEGIN ATOM
M  V30 1 N 5.48438 1.98033 0.827557 0
M  V30 2 C 5.24549 0.90751 1.79441 0
M  V30 3 C 4.9191 -0.398129 1.11618 0
M  V30 4 N 3.76642 -0.307007 0.335601 0
M  V30 5 C 3.38925 -1.45951 -0.427057 0
M  V30 6 C 2.43524 -1.08232 -1.55474 0
M  V30 7 N 1.27415 -0.440048 -0.921789 0
M  V30 8 C 1.52191 0.562304 0.0262807 0
M  V30 9 C 3.01118 0.845601 0.210103 0
M  V30 10 C -0.0530621 -0.848641 -1.28524 0
M  V30 11 O -0.0448482 -1.75382 -2.17112 0
M  V30 12 C -1.26282 -0.324618 -0.738736 0
M  V30 13 O -1.00484 0.598175 0.187001 0
M  V30 14 N -2.59747 -0.546454 -0.941622 0
M  V30 15 C -3.45977 0.310907 -0.0603749 0
M  V30 16 C -3.34222 1.65953 -0.204951 0
M  V30 17 C -4.14211 2.4598 0.612538 0
M  V30 18 C -5.00194 1.86374 1.51548 0
M  V30 19 C -5.12719 0.503057 1.6683 0
M  V30 20 C -4.3104 -0.271625 0.8329 0
M  V30 21 N -6.00363 -0.124178 2.58927 0
M  V30 22 C -3.33508 -1.37705 -1.77006 0
M  V30 23 O -4.64973 -1.26145 -1.62866 0
M  V30 24 C -2.91085 -2.35714 -2.77141 0
M  V30 25 H 5.9958 1.54897 0.0234241 0
M  V30 26 H 6.08154 2.71981 1.21559 0
M  V30 27 H 6.19058 0.801641 2.40224 0
M  V30 28 H 4.48964 1.24183 2.53064 0
M  V30 29 H 5.83974 -0.693768 0.540983 0
M  V30 30 H 4.81315 -1.18035 1.90886 0
M  V30 31 H 4.27266 -1.9329 -0.897054 0
M  V30 32 H 2.86859 -2.18436 0.217513 0
M  V30 33 H 2.90725 -0.442257 -2.2961 0
M  V30 34 H 2.09493 -2.03819 -2.00138 0
M  V30 35 H 1.08758 1.5679 -0.222725 0
M  V30 36 H 1.19627 0.198844 1.04295 0
M  V30 37 H 3.35531 1.57132 -0.582424 0
M  V30 38 H 3.04001 1.43713 1.1751 0
M  V30 39 H -2.68011 2.14572 -0.900468 0
M  V30 40 H -4.08533 3.54926 0.534963 0
M  V30 41 H -5.632 2.47342 2.15966 0
M  V30 42 H -4.374 -1.35432 0.91714 0
M  V30 43 H -6.91501 0.321621 2.82436 0
M  V30 44 H -5.76873 -1.02688 3.04715 0
M  V30 45 H -2.36557 -1.90101 -3.59222 0
M  V30 46 H -3.86269 -2.77122 -3.25844 0
M  V30 47 H -2.35075 -3.19121 -2.34216 0
M  V30 END ATOM
M  V30 BEGIN BOND
M  V30 1 1 1 2
M  V30 2 1 2 3
M  V30 3 1 3 4
M  V30 4 1 4 5
M  V30 5 1 5 6
M  V30 6 1 6 7
M  V30 7 1 7 8
M  V30 8 1 8 9
M  V30 9 1 7 10
M  V30 10 2 10 11
M  V30 11 1 10 12
M  V30 12 2 12 13
M  V30 13 1 12 14
M  V30 14 1 14 15
M  V30 15 2 15 16
M  V30 16 1 16 17
M  V30 17 2 17 18
M  V30 18 1 18 19
M  V30 19 2 19 20
M  V30 20 1 19 21
M  V30 21 1 14 22
M  V30 22 2 22 23
M  V30 23 1 22 24
M  V30 24 1 9 4
M  V30 25 1 20 15
M  V30 26 1 1 25
M  V30 27 1 1 26
M  V30 28 1 2 27
M  V30 29 1 2 28
M  V30 30 1 3 29
M  V30 31 1 3 30
M  V30 32 1 5 31
M  V30 33 1 5 32
M  V30 34 1 6 33
M  V30 35 1 6 34
M  V30 36 1 8 35
M  V30 37 1 8 36
M  V30 38 1 9 37
M  V30 39 1 9 38
M  V30 40 1 16 39
M  V30 41 1 17 40
M  V30 42 1 18 41
M  V30 43 1 20 42
M  V30 44 1 21 43
M  V30 45 1 21 44
M  V30 46 1 24 45
M  V30 47 1 24 46
M  V30 48 1 24 47
M  V30 END BOND
M  V30 END CTAB
M  END
