
     RDKit          3D

  0  0  0  0  0  0  0  0  0  0999 V3000
M  V30 BEGIN CTAB
M  V30 COUNTS 19 20 0 0 0
M  V30 BEGIN ATOM
M  V30 1 Br 4.98467 1.90611 -0.0177234 0
M  V30 2 C 3.45005 0.762458 -0.0730778 0
M  V30 3 C 3.39329 -0.600236 -0.22342 0
M  V30 4 C 2.18379 -1.16861 -0.229653 0
M  V30 5 C 1.09625 -0.356964 -0.0867043 0
M  V30 6 S 1.80417 1.19587 0.0539797 0
M  V30 7 C -0.334262 -0.719962 -0.0593443 0
M  V30 8 N -0.870539 -1.91576 -0.168101 0
M  V30 9 N -2.20043 -1.79289 -0.0909722 0
M  V30 10 C -2.52844 -0.484843 0.0715473 0
M  V30 11 N -1.33022 0.166863 0.0876783 0
M  V30 12 N -1.21214 1.53879 0.236132 0
M  V30 13 N -3.81825 0.0861484 0.197098 0
M  V30 14 H 4.34895 -1.15418 -0.331142 0
M  V30 15 H 2.02834 -2.25935 -0.344751 0
M  V30 16 H -1.76939 2.14934 -0.430603 0
M  V30 17 H -0.635429 2.02398 0.931484 0
M  V30 18 H -4.6215 -0.446037 0.568996 0
M  V30 19 H -3.96891 1.06927 -0.0914239 0
M  V30 END ATOM
M  V30 BEGIN BOND
M  V30 1 1 1 2
M  V30 2 2 2 3
M  V30 3 1 3 4
M  V30 4 2 4 5
M  V30 5 1 5 6
M  V30 6 1 5 7
M  V30 7 2 7 8
M  V30 8 1 8 9
M  V30 9 2 9 10
M  V30 10 1 10 11
M  V30 11 1 11 12
M  V30 12 1 10 13
M  V30 13 1 6 2
M  V30 14 1 11 7
M  V30 15 1 3 14
M  V30 16 1 4 15
M  V30 17 1 12 16
M  V30 18 1 12 17
M  V30 19 1 13 18
M  V30 20 1 13 19
M  V30 END BOND
M  V30 END CTAB
M  END
