
     RDKit          3D

  0  0  0  0  0  0  0  0  0  0999 V3000
M  V30 BEGIN CTAB
M  V30 COUNTS 55 58 0 0 0
M  V30 BEGIN ATOM
M  V30 1 N -4.46641 -4.13157 -0.344399 0
M  V30 2 C -3.19952 -3.50971 -0.405134 0
M  V30 3 N -3.12064 -2.18509 -0.19356 0
M  V30 4 C -1.96092 -1.51303 -0.232241 0
M  V30 5 C -1.84293 -0.0836752 0.0199746 0
M  V30 6 O -3.0436 0.516282 0.250804 0
M  V30 7 C -3.9637 0.580322 -0.737537 0
M  V30 8 C -5.16969 1.30331 -0.191463 0
M  V30 9 C -6.31292 1.49756 -0.915163 0
M  V30 10 C -7.4099 2.1676 -0.392392 0
M  V30 11 C -7.34012 2.65686 0.912224 0
M  V30 12 C -6.19602 2.47117 1.65804 0
M  V30 13 C -5.13283 1.79581 1.08676 0
M  V30 14 C -0.777966 -2.21581 -0.504306 0
M  V30 15 C -0.862424 -3.57344 -0.720802 0
M  V30 16 N 0.334902 -4.28662 -0.995796 0
M  V30 17 N -2.05761 -4.17928 -0.666461 0
M  V30 18 C 0.46187 -1.46822 -0.538995 0
M  V30 19 C 0.91119 -0.776373 -1.64388 0
M  V30 20 C 2.09935 -0.072824 -1.6393 0
M  V30 21 C 2.89088 -0.0366581 -0.512707 0
M  V30 22 N 4.11425 0.685302 -0.491853 0
M  V30 23 C 4.90359 0.669598 0.705723 0
M  V30 24 C 6.15628 1.42939 0.636643 0
M  V30 25 C 6.78749 1.74766 1.84078 0
M  V30 26 C 7.97461 2.4568 1.87772 0
M  V30 27 C 8.54434 2.85691 0.692499 0
M  V30 28 N 7.95762 2.56328 -0.477038 0
M  V30 29 C 6.78503 1.8624 -0.506805 0
M  V30 30 C 2.46458 -0.719089 0.602514 0
M  V30 31 C 1.2728 -1.4228 0.593246 0
M  V30 32 H -4.7879 -4.57227 0.528288 0
M  V30 33 H -5.05935 -4.13483 -1.18698 0
M  V30 34 H -1.28038 0.453448 -0.78992 0
M  V30 35 H -1.22412 0.0863955 0.955891 0
M  V30 36 H -3.59922 1.20032 -1.62726 0
M  V30 37 H -4.35083 -0.332001 -1.17586 0
M  V30 38 H -6.37766 1.12666 -1.9147 0
M  V30 39 H -8.31966 2.31769 -0.979601 0
M  V30 40 H -8.1804 3.1846 1.35065 0
M  V30 41 H -6.14968 2.85196 2.66529 0
M  V30 42 H -4.2461 1.66415 1.69587 0
M  V30 43 H 0.628975 -5.13855 -0.469068 0
M  V30 44 H 0.938934 -3.92388 -1.76885 0
M  V30 45 H 0.318123 -0.774581 -2.56323 0
M  V30 46 H 2.40129 0.45889 -2.55578 0
M  V30 47 H 4.4235 1.21334 -1.32491 0
M  V30 48 H 4.30257 1.08642 1.56974 0
M  V30 49 H 5.08583 -0.402656 1.01632 0
M  V30 50 H 6.30478 1.41326 2.74812 0
M  V30 51 H 8.43142 2.68383 2.82713 0
M  V30 52 H 9.48381 3.41874 0.712646 0
M  V30 53 H 6.34885 1.64363 -1.46103 0
M  V30 54 H 3.10312 -0.676167 1.47452 0
M  V30 55 H 1.00253 -1.93447 1.50562 0
M  V30 END ATOM
M  V30 BEGIN BOND
M  V30 1 1 1 2
M  V30 2 2 2 3
M  V30 3 1 3 4
M  V30 4 1 4 5
M  V30 5 1 5 6
M  V30 6 1 6 7
M  V30 7 1 7 8
M  V30 8 2 8 9
M  V30 9 1 9 10
M  V30 10 2 10 11
M  V30 11 1 11 12
M  V30 12 2 12 13
M  V30 13 2 4 14
M  V30 14 1 14 15
M  V30 15 1 15 16
M  V30 16 2 15 17
M  V30 17 1 14 18
M  V30 18 2 18 19
M  V30 19 1 19 20
M  V30 20 2 20 21
M  V30 21 1 21 22
M  V30 22 1 22 23
M  V30 23 1 23 24
M  V30 24 2 24 25
M  V30 25 1 25 26
M  V30 26 2 26 27
M  V30 27 1 27 28
M  V30 28 2 28 29
M  V30 29 1 21 30
M  V30 30 2 30 31
M  V30 31 1 17 2
M  V30 32 1 31 18
M  V30 33 1 13 8
M  V30 34 1 29 24
M  V30 35 1 1 32
M  V30 36 1 1 33
M  V30 37 1 5 34
M  V30 38 1 5 35
M  V30 39 1 7 36
M  V30 40 1 7 37
M  V30 41 1 9 38
M  V30 42 1 10 39
M  V30 43 1 11 40
M  V30 44 1 12 41
M  V30 45 1 13 42
M  V30 46 1 16 43
M  V30 47 1 16 44
M  V30 48 1 19 45
M  V30 49 1 20 46
M  V30 50 1 22 47
M  V30 51 1 23 48
M  V30 52 1 23 49
M  V30 53 1 25 50
M  V30 54 1 26 51
M  V30 55 1 27 52
M  V30 56 1 29 53
M  V30 57 1 30 54
M  V30 58 1 31 55
M  V30 END BOND
M  V30 END CTAB
M  END
