
     RDKit          3D

  0  0  0  0  0  0  0  0  0  0999 V3000
M  V30 BEGIN CTAB
M  V30 COUNTS 22 22 0 0 0
M  V30 BEGIN ATOM
M  V30 1 N 1.77011 1.34741 -0.440036 0
M  V30 2 C 1.13708 0.55666 0.56931 0
M  V30 3 C -0.294773 0.289967 0.352461 0
M  V30 4 C -0.903363 -0.925328 0.412136 0
M  V30 5 C -2.2684 -1.05716 0.190972 0
M  V30 6 Cl -3.02848 -2.63095 0.273527 0
M  V30 7 C -3.04652 0.017804 -0.0924922 0
M  V30 8 C -2.42553 1.26045 -0.153515 0
M  V30 9 C -1.08028 1.40785 0.0619737 0
M  V30 10 F -0.542336 2.64239 -0.0135511 0
M  V30 11 C 1.9532 -0.698685 0.789381 0
M  V30 12 N 2.08028 -1.50567 -0.392443 0
M  V30 13 H 1.31171 1.37694 -1.35422 0
M  V30 14 H 2.2197 2.21045 -0.114358 0
M  V30 15 H 1.18555 1.12952 1.54276 0
M  V30 16 H -0.299325 -1.78482 0.63664 0
M  V30 17 H -4.112 -0.0570478 -0.26893 0
M  V30 18 H -3.07002 2.10805 -0.38183 0
M  V30 19 H 1.50434 -1.24794 1.64168 0
M  V30 20 H 2.9657 -0.370356 1.12239 0
M  V30 21 H 3.10276 -1.56463 -0.68584 0
M  V30 22 H 1.84058 -2.50488 -0.148218 0
M  V30 END ATOM
M  V30 BEGIN BOND
M  V30 1 1 1 2
M  V30 2 1 2 3
M  V30 3 2 3 4
M  V30 4 1 4 5
M  V30 5 1 5 6
M  V30 6 2 5 7
M  V30 7 1 7 8
M  V30 8 2 8 9
M  V30 9 1 9 10
M  V30 10 1 2 11
M  V30 11 1 11 12
M  V30 12 1 9 3
M  V30 13 1 1 13
M  V30 14 1 1 14
M  V30 15 1 2 15
M  V30 16 1 4 16
M  V30 17 1 7 17
M  V30 18 1 8 18
M  V30 19 1 11 19
M  V30 20 1 11 20
M  V30 21 1 12 21
M  V30 22 1 12 22
M  V30 END BOND
M  V30 END CTAB
M  END
