
     RDKit          3D

  0  0  0  0  0  0  0  0  0  0999 V3000
M  V30 BEGIN CTAB
M  V30 COUNTS 31 32 0 0 0
M  V30 BEGIN ATOM
M  V30 1 N -3.13051 1.34834 -0.360298 0
M  V30 2 C -3.44046 0.00261151 -0.435079 0
M  V30 3 C -2.28311 -0.934182 -0.152341 0 CFG=2
M  V30 4 C -1.71455 -0.739152 1.22655 0
M  V30 5 C -0.218061 -1.07426 1.12573 0
M  V30 6 C 0.376737 0.101843 0.390887 0 CFG=2
M  V30 7 C -0.164006 0.0876553 -1.01802 0
M  V30 8 C -1.25544 -0.906988 -1.2316 0
M  V30 9 C 1.82993 0.10497 0.34066 0
M  V30 10 N 2.70563 -0.783981 -0.171317 0
M  V30 11 N 3.93964 -0.348206 0.0202561 0
M  V30 12 C 3.87128 0.818667 0.653681 0
M  V30 13 N 2.58482 1.09193 0.847389 0
M  V30 14 N 4.96863 1.65848 1.06864 0
M  V30 15 H -3.40375 1.84857 0.44632 0
M  V30 16 H -2.92889 1.83421 -1.19504 0
M  V30 17 H -4.3105 -0.211058 0.21794 0
M  V30 18 H -3.78964 -0.261794 -1.47486 0
M  V30 19 H -2.7335 -1.97051 -0.157399 0
M  V30 20 H -1.81385 0.356826 1.45643 0
M  V30 21 H -2.20903 -1.30983 2.00673 0
M  V30 22 H 0.154654 -1.16771 2.15718 0
M  V30 23 H -0.140838 -2.01583 0.557736 0
M  V30 24 H 0.0088459 1.01144 0.895864 0
M  V30 25 H -0.531396 1.11519 -1.29667 0
M  V30 26 H 0.645389 -0.129299 -1.75047 0
M  V30 27 H -0.802787 -1.92532 -1.38577 0
M  V30 28 H -1.74766 -0.667316 -2.20058 0
M  V30 29 H 4.8393 -0.818887 -0.266384 0
M  V30 30 H 5.88438 1.19959 1.27665 0
M  V30 31 H 4.80874 2.68402 1.14503 0
M  V30 END ATOM
M  V30 BEGIN BOND
M  V30 1 1 1 2
M  V30 2 1 2 3
M  V30 3 1 3 4
M  V30 4 1 4 5
M  V30 5 1 5 6
M  V30 6 1 6 7
M  V30 7 1 7 8
M  V30 8 1 6 9
M  V30 9 2 9 10
M  V30 10 1 10 11
M  V30 11 1 11 12
M  V30 12 2 12 13
M  V30 13 1 12 14
M  V30 14 1 8 3
M  V30 15 1 13 9
M  V30 16 1 1 15
M  V30 17 1 1 16
M  V30 18 1 2 17
M  V30 19 1 2 18
M  V30 20 1 3 19 CFG=1
M  V30 21 1 4 20
M  V30 22 1 4 21
M  V30 23 1 5 22
M  V30 24 1 5 23
M  V30 25 1 6 24 CFG=1
M  V30 26 1 7 25
M  V30 27 1 7 26
M  V30 28 1 8 27
M  V30 29 1 8 28
M  V30 30 1 11 29
M  V30 31 1 14 30
M  V30 32 1 14 31
M  V30 END BOND
M  V30 END CTAB
M  END
