
     RDKit          3D

  0  0  0  0  0  0  0  0  0  0999 V3000
M  V30 BEGIN CTAB
M  V30 COUNTS 40 44 0 0 0
M  V30 BEGIN ATOM
M  V30 1 N -8.92586 0.871741 -0.326169 0
M  V30 2 C -7.5395 0.632366 -0.128805 0
M  V30 3 C -6.57442 1.1318 -0.991529 0
M  V30 4 C -5.23078 0.87869 -0.76855 0
M  V30 5 C -4.84711 0.130765 0.309622 0
M  V30 6 C -5.79009 -0.365905 1.16561 0
M  V30 7 C -7.12458 -0.11882 0.95061 0
M  V30 8 C -3.44543 -0.177327 0.608298 0
M  V30 9 S -2.78559 -1.08527 1.89457 0
M  V30 10 C -1.14441 -0.941086 1.48596 0
M  V30 11 C -1.18875 -0.177931 0.345083 0
M  V30 12 N -2.39257 0.188633 -0.0645082 0
M  V30 13 C -0.00976138 0.184735 -0.337571 0
M  V30 14 C 1.2164 -0.256589 0.181646 0
M  V30 15 C 1.26367 -1.01991 1.32244 0
M  V30 16 C 0.08599 -1.36046 1.97173 0
M  V30 17 S 2.93266 -1.27739 1.51368 0
M  V30 18 C 3.47668 -0.411538 0.149686 0
M  V30 19 N 2.38099 0.0284443 -0.382766 0
M  V30 20 C 4.83246 -0.197234 -0.330904 0
M  V30 21 C 5.13155 0.528841 -1.45643 0
M  V30 22 C 6.4559 0.703313 -1.8735 0
M  V30 23 C 7.49687 0.149386 -1.1634 0
M  V30 24 C 7.18659 -0.577294 -0.0356519 0
M  V30 25 C 5.88375 -0.74996 0.376187 0
M  V30 26 N 8.84613 0.336187 -1.6019 0
M  V30 27 H -9.38856 1.62387 0.210665 0
M  V30 28 H -9.44615 0.280675 -1.01071 0
M  V30 29 H -6.87501 1.71516 -1.83232 0
M  V30 30 H -4.48734 1.28595 -1.46696 0
M  V30 31 H -5.51427 -0.970823 2.04167 0
M  V30 32 H -7.86111 -0.5307 1.65515 0
M  V30 33 H -0.0570968 0.790968 -1.24243 0
M  V30 34 H 0.12125 -1.94693 2.84833 0
M  V30 35 H 4.31501 0.963506 -2.01368 0
M  V30 36 H 6.67488 1.2811 -2.76693 0
M  V30 37 H 7.98774 -1.02109 0.537126 0
M  V30 38 H 5.63706 -1.3294 1.27536 0
M  V30 39 H 9.43023 -0.47572 -1.83147 0
M  V30 40 H 9.27257 1.28523 -1.70087 0
M  V30 END ATOM
M  V30 BEGIN BOND
M  V30 1 1 1 2
M  V30 2 2 2 3
M  V30 3 1 3 4
M  V30 4 2 4 5
M  V30 5 1 5 6
M  V30 6 2 6 7
M  V30 7 1 5 8
M  V30 8 1 8 9
M  V30 9 1 9 10
M  V30 10 2 10 11
M  V30 11 1 11 12
M  V30 12 1 11 13
M  V30 13 2 13 14
M  V30 14 1 14 15
M  V30 15 2 15 16
M  V30 16 1 15 17
M  V30 17 1 17 18
M  V30 18 2 18 19
M  V30 19 1 18 20
M  V30 20 2 20 21
M  V30 21 1 21 22
M  V30 22 2 22 23
M  V30 23 1 23 24
M  V30 24 2 24 25
M  V30 25 1 23 26
M  V30 26 1 7 2
M  V30 27 2 12 8
M  V30 28 1 19 14
M  V30 29 1 25 20
M  V30 30 1 16 10
M  V30 31 1 1 27
M  V30 32 1 1 28
M  V30 33 1 3 29
M  V30 34 1 4 30
M  V30 35 1 6 31
M  V30 36 1 7 32
M  V30 37 1 13 33
M  V30 38 1 16 34
M  V30 39 1 21 35
M  V30 40 1 22 36
M  V30 41 1 24 37
M  V30 42 1 25 38
M  V30 43 1 26 39
M  V30 44 1 26 40
M  V30 END BOND
M  V30 END CTAB
M  END
