
     RDKit          3D

  0  0  0  0  0  0  0  0  0  0999 V3000
M  V30 BEGIN CTAB
M  V30 COUNTS 38 40 0 0 0
M  V30 BEGIN ATOM
M  V30 1 N 7.30409 0.966151 -0.309833 0
M  V30 2 C 6.06398 0.239577 -0.332478 0
M  V30 3 C 4.88182 0.932047 -0.176117 0
M  V30 4 C 3.68261 0.253055 -0.194977 0
M  V30 5 O 2.52856 0.999799 -0.0332429 0
M  V30 6 C 1.25706 0.480942 -0.0274172 0
M  V30 7 C 0.735994 0.0811496 1.20871 0
M  V30 8 F 1.44058 0.193506 2.36002 0
M  V30 9 C -0.542063 -0.434646 1.17676 0
M  V30 10 F -1.11862 -0.844467 2.32995 0
M  V30 11 C -1.28454 -0.561875 0.0216623 0
M  V30 12 O -2.54957 -1.07964 0.0377385 0
M  V30 13 C -3.6964 -0.300013 0.209158 0
M  V30 14 C -4.92882 -0.910122 0.211527 0
M  V30 15 C -6.09331 -0.191683 0.376391 0
M  V30 16 N -7.35188 -0.841975 0.375389 0
M  V30 17 C -6.01864 1.18892 0.544995 0
M  V30 18 C -4.80213 1.82369 0.546744 0
M  V30 19 C -3.64839 1.06611 0.377652 0
M  V30 20 C -0.717523 -0.148083 -1.18334 0
M  V30 21 F -1.41216 -0.253484 -2.35385 0
M  V30 22 C 0.55352 0.370244 -1.18692 0
M  V30 23 F 1.10132 0.77127 -2.35937 0
M  V30 24 C 3.67386 -1.11531 -0.370273 0
M  V30 25 C 4.86679 -1.79071 -0.525055 0
M  V30 26 C 6.07731 -1.12895 -0.509054 0
M  V30 27 H 7.35414 1.94162 -0.639608 0
M  V30 28 H 8.14098 0.466189 0.0515703 0
M  V30 29 H 4.93267 2.01933 -0.0393359 0
M  V30 30 H -5.00022 -1.98501 0.0811011 0
M  V30 31 H -7.41169 -1.81435 0.0184196 0
M  V30 32 H -8.21286 -0.380277 0.718385 0
M  V30 33 H -6.96824 1.70619 0.670822 0
M  V30 34 H -4.78786 2.8953 0.680418 0
M  V30 35 H -2.70567 1.58132 0.381937 0
M  V30 36 H 2.73675 -1.64733 -0.385192 0
M  V30 37 H 4.89546 -2.8699 -0.665335 0
M  V30 38 H 7.02308 -1.67859 -0.633586 0
M  V30 END ATOM
M  V30 BEGIN BOND
M  V30 1 1 1 2
M  V30 2 2 2 3
M  V30 3 1 3 4
M  V30 4 1 4 5
M  V30 5 1 5 6
M  V30 6 2 6 7
M  V30 7 1 7 8
M  V30 8 1 7 9
M  V30 9 1 9 10
M  V30 10 2 9 11
M  V30 11 1 11 12
M  V30 12 1 12 13
M  V30 13 2 13 14
M  V30 14 1 14 15
M  V30 15 1 15 16
M  V30 16 2 15 17
M  V30 17 1 17 18
M  V30 18 2 18 19
M  V30 19 1 11 20
M  V30 20 1 20 21
M  V30 21 2 20 22
M  V30 22 1 22 23
M  V30 23 2 4 24
M  V30 24 1 24 25
M  V30 25 2 25 26
M  V30 26 1 26 2
M  V30 27 1 22 6
M  V30 28 1 19 13
M  V30 29 1 1 27
M  V30 30 1 1 28
M  V30 31 1 3 29
M  V30 32 1 14 30
M  V30 33 1 16 31
M  V30 34 1 16 32
M  V30 35 1 17 33
M  V30 36 1 18 34
M  V30 37 1 19 35
M  V30 38 1 24 36
M  V30 39 1 25 37
M  V30 40 1 26 38
M  V30 END BOND
M  V30 END CTAB
M  END
