
     RDKit          3D

  0  0  0  0  0  0  0  0  0  0999 V3000
M  V30 BEGIN CTAB
M  V30 COUNTS 17 17 0 0 0
M  V30 BEGIN ATOM
M  V30 1 O 3.26627 2.17637 0.425673 0 CHG=-1
M  V30 2 N 2.9674 0.879158 0.0828134 0 CHG=1
M  V30 3 O 3.91306 0.131517 -0.174474 0
M  V30 4 C 1.63409 0.393773 0.0197136 0
M  V30 5 C 1.39397 -0.91657 -0.329891 0
M  V30 6 C 0.0986235 -1.42159 -0.400423 0
M  V30 7 C -0.984473 -0.615168 -0.119559 0
M  V30 8 C -0.708052 0.692184 0.227278 0
M  V30 9 N 0.56991 1.16924 0.291004 0
M  V30 10 N -1.81964 1.52586 0.517197 0
M  V30 11 N -2.32703 -1.09341 -0.180126 0
M  V30 12 H 2.2305 -1.55692 -0.551654 0
M  V30 13 H -0.104526 -2.44692 -0.673156 0
M  V30 14 H -2.26785 2.11408 -0.211123 0
M  V30 15 H -2.17141 1.52546 1.495 0
M  V30 16 H -2.77426 -1.32669 -1.09393 0
M  V30 17 H -2.91659 -1.23039 0.675656 0
M  V30 END ATOM
M  V30 BEGIN BOND
M  V30 1 1 1 2
M  V30 2 2 2 3
M  V30 3 1 2 4
M  V30 4 2 4 5
M  V30 5 1 5 6
M  V30 6 2 6 7
M  V30 7 1 7 8
M  V30 8 2 8 9
M  V30 9 1 8 10
M  V30 10 1 7 11
M  V30 11 1 9 4
M  V30 12 1 5 12
M  V30 13 1 6 13
M  V30 14 1 10 14
M  V30 15 1 10 15
M  V30 16 1 11 16
M  V30 17 1 11 17
M  V30 END BOND
M  V30 END CTAB
M  END
