
     RDKit          3D

  0  0  0  0  0  0  0  0  0  0999 V3000
M  V30 BEGIN CTAB
M  V30 COUNTS 40 42 0 0 0
M  V30 BEGIN ATOM
M  V30 1 N -1.22808 1.47846 1.42392 0
M  V30 2 N -2.40966 0.938061 1.02901 0
M  V30 3 C -2.64573 -0.00745238 0.238354 0
M  V30 4 C -4.08585 -0.326198 0.0483893 0
M  V30 5 C -5.07767 0.368208 0.697693 0
M  V30 6 C -6.4127 0.0470512 0.498701 0
M  V30 7 C -6.76446 -0.977618 -0.357107 0
M  V30 8 C -5.77812 -1.67743 -1.01075 0
M  V30 9 C -4.44855 -1.33054 -0.789343 0
M  V30 10 C -1.70229 -0.842654 -0.492895 0
M  V30 11 C -0.285847 -0.553408 -0.382317 0
M  V30 12 N 0.56633 -1.21139 0.451209 0
M  V30 13 N 1.8448 -0.895351 0.512506 0
M  V30 14 C 2.40316 0.0806448 -0.225624 0
M  V30 15 N 1.61513 0.757762 -1.05966 0
M  V30 16 C 0.283263 0.446566 -1.14008 0
M  V30 17 O -0.3904 1.13549 -1.95595 0
M  V30 18 C 3.81807 0.396392 -0.125721 0
M  V30 19 C 4.4382 1.37821 -0.858032 0
M  V30 20 C 5.80503 1.64275 -0.720316 0
M  V30 21 C 6.57435 0.934476 0.14758 0
M  V30 22 C 5.9857 -0.0480585 0.889227 0
M  V30 23 C 4.64339 -0.311596 0.75761 0
M  V30 24 N 4.0649 -1.33309 1.54286 0
M  V30 25 H -0.891993 2.40176 1.02105 0
M  V30 26 H -0.58673 1.05021 2.12322 0
M  V30 27 H -4.85876 1.1784 1.37718 0
M  V30 28 H -7.19852 0.578636 0.998008 0
M  V30 29 H -7.80547 -1.22945 -0.51382 0
M  V30 30 H -6.06192 -2.47021 -1.67302 0
M  V30 31 H -3.71232 -1.89924 -1.3169 0
M  V30 32 H -1.84263 -1.91422 -0.137862 0
M  V30 33 H -1.94195 -0.873587 -1.59553 0
M  V30 34 H 1.98954 1.52396 -1.65647 0
M  V30 35 H 3.90464 1.98204 -1.56412 0
M  V30 36 H 6.24283 2.4215 -1.31661 0
M  V30 37 H 7.62979 1.1801 0.216619 0
M  V30 38 H 6.62148 -0.607477 1.58144 0
M  V30 39 H 3.98225 -2.31168 1.19533 0
M  V30 40 H 3.71682 -1.1 2.48394 0
M  V30 END ATOM
M  V30 BEGIN BOND
M  V30 1 1 1 2
M  V30 2 2 2 3 CFG=2
M  V30 3 1 3 4
M  V30 4 2 4 5
M  V30 5 1 5 6
M  V30 6 2 6 7
M  V30 7 1 7 8
M  V30 8 2 8 9
M  V30 9 1 3 10
M  V30 10 1 10 11
M  V30 11 2 11 12
M  V30 12 1 12 13
M  V30 13 2 13 14
M  V30 14 1 14 15
M  V30 15 1 15 16
M  V30 16 2 16 17
M  V30 17 1 14 18
M  V30 18 2 18 19
M  V30 19 1 19 20
M  V30 20 2 20 21
M  V30 21 1 21 22
M  V30 22 2 22 23
M  V30 23 1 23 24
M  V30 24 1 9 4
M  V30 25 1 16 11
M  V30 26 1 23 18
M  V30 27 1 1 25
M  V30 28 1 1 26
M  V30 29 1 5 27
M  V30 30 1 6 28
M  V30 31 1 7 29
M  V30 32 1 8 30
M  V30 33 1 9 31
M  V30 34 1 10 32
M  V30 35 1 10 33
M  V30 36 1 15 34
M  V30 37 1 19 35
M  V30 38 1 20 36
M  V30 39 1 21 37
M  V30 40 1 22 38
M  V30 41 1 24 39
M  V30 42 1 24 40
M  V30 END BOND
M  V30 END CTAB
M  END
