
     RDKit          3D

  0  0  0  0  0  0  0  0  0  0999 V3000
M  V30 BEGIN CTAB
M  V30 COUNTS 39 41 0 0 0
M  V30 BEGIN ATOM
M  V30 1 N 2.48905 2.61933 -2.81661 0
M  V30 2 C 1.42919 2.25763 -1.91557 0
M  V30 3 N 1.6372 1.33858 -0.975589 0
M  V30 4 C 0.699163 0.925401 -0.0732068 0
M  V30 5 N 0.989044 -0.0335015 0.901309 0
M  V30 6 C 2.25533 -0.671865 0.98306 0
M  V30 7 C 3.03963 -0.967004 -0.0862442 0
M  V30 8 C 4.29035 -1.56913 0.103602 0
M  V30 9 C 4.77924 -1.88688 1.34825 0
M  V30 10 C 3.98501 -1.58869 2.42321 0
M  V30 11 C 2.76495 -1.00223 2.25908 0
M  V30 12 C -0.551003 1.49611 -0.134611 0
M  V30 13 C -0.747814 2.46317 -1.13438 0
M  V30 14 N 0.217037 2.82674 -1.99375 0
M  V30 15 N -2.04742 3.05844 -1.19912 0
M  V30 16 S -1.80656 1.0769 0.950336 0
M  V30 17 O -1.442 0.990735 2.38731 0
M  V30 18 O -2.81139 2.25361 0.904748 0
M  V30 19 C -2.75378 -0.323914 0.424633 0
M  V30 20 C -3.87 -0.164872 -0.386828 0
M  V30 21 C -4.62497 -1.25848 -0.805932 0
M  V30 22 C -4.2866 -2.53454 -0.427282 0
M  V30 23 C -3.18215 -2.70603 0.377232 0
M  V30 24 C -2.43565 -1.61327 0.79041 0
M  V30 25 H 2.41383 2.50713 -3.8485 0
M  V30 26 H 3.40044 3.01922 -2.46612 0
M  V30 27 H 0.313591 -0.356251 1.62739 0
M  V30 28 H 2.74242 -0.781359 -1.12606 0
M  V30 29 H 4.87042 -1.77824 -0.804013 0
M  V30 30 H 5.75013 -2.35073 1.44524 0
M  V30 31 H 4.39778 -1.8522 3.39912 0
M  V30 32 H 2.17404 -0.785654 3.13344 0
M  V30 33 H -2.79582 2.54594 -1.7062 0
M  V30 34 H -2.26657 3.9768 -0.761993 0
M  V30 35 H -4.13803 0.847885 -0.685867 0
M  V30 36 H -5.49098 -1.10634 -1.43865 0
M  V30 37 H -4.88986 -3.36518 -0.766851 0
M  V30 38 H -2.92169 -3.71357 0.671452 0
M  V30 39 H -1.57554 -1.79368 1.42355 0
M  V30 END ATOM
M  V30 BEGIN BOND
M  V30 1 1 1 2
M  V30 2 2 2 3
M  V30 3 1 3 4
M  V30 4 1 4 5
M  V30 5 1 5 6
M  V30 6 2 6 7
M  V30 7 1 7 8
M  V30 8 2 8 9
M  V30 9 1 9 10
M  V30 10 2 10 11
M  V30 11 2 4 12
M  V30 12 1 12 13
M  V30 13 2 13 14
M  V30 14 1 13 15
M  V30 15 1 12 16
M  V30 16 2 16 17
M  V30 17 2 16 18
M  V30 18 1 16 19
M  V30 19 2 19 20
M  V30 20 1 20 21
M  V30 21 2 21 22
M  V30 22 1 22 23
M  V30 23 2 23 24
M  V30 24 1 14 2
M  V30 25 1 24 19
M  V30 26 1 11 6
M  V30 27 1 1 25
M  V30 28 1 1 26
M  V30 29 1 5 27
M  V30 30 1 7 28
M  V30 31 1 8 29
M  V30 32 1 9 30
M  V30 33 1 10 31
M  V30 34 1 11 32
M  V30 35 1 15 33
M  V30 36 1 15 34
M  V30 37 1 20 35
M  V30 38 1 21 36
M  V30 39 1 22 37
M  V30 40 1 23 38
M  V30 41 1 24 39
M  V30 END BOND
M  V30 END CTAB
M  END
