
     RDKit          3D

  0  0  0  0  0  0  0  0  0  0999 V3000
M  V30 BEGIN CTAB
M  V30 COUNTS 41 43 0 0 0
M  V30 BEGIN ATOM
M  V30 1 C -3.03508 -2.01852 0.287094 0
M  V30 2 C -2.77076 -0.649603 -0.361336 0
M  V30 3 C -2.18006 -0.816016 -1.7291 0
M  V30 4 N -4.06766 -0.0487244 -0.534107 0
M  V30 5 C -4.46416 1.05177 -0.0156544 0
M  V30 6 N -5.77522 1.51693 -0.27866 0
M  V30 7 N -3.54059 1.74406 0.802541 0
M  V30 8 C -2.34539 1.32368 1.04132 0
M  V30 9 N -1.50264 2.11024 1.88614 0
M  V30 10 N -1.8707 0.0931513 0.469919 0
M  V30 11 O -0.637435 -0.371548 0.703953 0
M  V30 12 C 0.390515 0.29211 0.0610238 0
M  V30 13 C 1.66419 -0.373949 0.455443 0
M  V30 14 C 2.88891 0.060951 -0.0259156 0
M  V30 15 C 2.90309 1.13554 -0.887584 0
M  V30 16 C 4.09874 1.60524 -1.39365 0
M  V30 17 C 5.26188 0.997269 -1.03359 0
M  V30 18 C 5.27905 -0.0810987 -0.1723 0
M  V30 19 C 4.07502 -0.558821 0.341097 0
M  V30 20 C 4.04329 -1.63515 1.20604 0
M  V30 21 C 2.83958 -2.09398 1.70427 0
M  V30 22 C 1.67038 -1.44916 1.31538 0
M  V30 23 H -2.98606 -2.82798 -0.448136 0
M  V30 24 H -2.2772 -2.19652 1.06905 0
M  V30 25 H -4.0235 -2.04768 0.775869 0
M  V30 26 H -1.90088 0.183932 -2.1084 0
M  V30 27 H -2.98059 -1.17989 -2.44132 0
M  V30 28 H -1.32017 -1.51412 -1.74 0
M  V30 29 H -6.24584 2.11578 0.42733 0
M  V30 30 H -6.29796 1.29061 -1.14665 0
M  V30 31 H -1.14438 3.00416 1.48435 0
M  V30 32 H -1.24143 1.84306 2.84292 0
M  V30 33 H 0.356377 1.34154 0.336836 0
M  V30 34 H 0.218964 0.150384 -1.04593 0
M  V30 35 H 1.95213 1.58215 -1.14158 0
M  V30 36 H 4.03243 2.46126 -2.07161 0
M  V30 37 H 6.20186 1.38055 -1.44266 0
M  V30 38 H 6.19389 -0.58324 0.130081 0
M  V30 39 H 4.98947 -2.08438 1.46266 0
M  V30 40 H 2.8033 -2.93627 2.3824 0
M  V30 41 H 0.744664 -1.8177 1.71108 0
M  V30 END ATOM
M  V30 BEGIN BOND
M  V30 1 1 1 2
M  V30 2 1 2 3
M  V30 3 1 2 4
M  V30 4 2 4 5
M  V30 5 1 5 6
M  V30 6 1 5 7
M  V30 7 2 7 8
M  V30 8 1 8 9
M  V30 9 1 8 10
M  V30 10 1 10 11
M  V30 11 1 11 12
M  V30 12 1 12 13
M  V30 13 1 13 14
M  V30 14 2 14 15
M  V30 15 1 15 16
M  V30 16 2 16 17
M  V30 17 1 17 18
M  V30 18 2 18 19
M  V30 19 1 19 20
M  V30 20 2 20 21
M  V30 21 1 21 22
M  V30 22 1 10 2
M  V30 23 2 22 13
M  V30 24 1 19 14
M  V30 25 1 1 23
M  V30 26 1 1 24
M  V30 27 1 1 25
M  V30 28 1 3 26
M  V30 29 1 3 27
M  V30 30 1 3 28
M  V30 31 1 6 29
M  V30 32 1 6 30
M  V30 33 1 9 31
M  V30 34 1 9 32
M  V30 35 1 12 33
M  V30 36 1 12 34
M  V30 37 1 15 35
M  V30 38 1 16 36
M  V30 39 1 17 37
M  V30 40 1 18 38
M  V30 41 1 20 39
M  V30 42 1 21 40
M  V30 43 1 22 41
M  V30 END BOND
M  V30 END CTAB
M  END
