
     RDKit          3D

  0  0  0  0  0  0  0  0  0  0999 V3000
M  V30 BEGIN CTAB
M  V30 COUNTS 73 78 0 0 0
M  V30 BEGIN ATOM
M  V30 1 N 8.24127 1.22903 -0.994653 0
M  V30 2 C 8.02643 0.680485 0.291804 0
M  V30 3 N 6.80567 0.218999 0.651483 0
M  V30 4 C 6.57804 -0.30108 1.85443 0
M  V30 5 C 7.61172 -0.376737 2.77049 0
M  V30 6 N 7.12291 -0.935988 3.89455 0
M  V30 7 C 5.81051 -1.20135 3.67741 0
M  V30 8 N 5.48896 -0.811809 2.43456 0
M  V30 9 C 4.18489 -0.927194 1.83061 0 CFG=2
M  V30 10 O 4.24195 -1.30464 0.501727 0
M  V30 11 C 2.90608 -1.1482 0.0885755 0 CFG=2
M  V30 12 C 2.94723 -1.14041 -1.43729 0
M  V30 13 O 3.49726 -2.38201 -1.81798 0
M  V30 14 C 2.46388 0.169565 0.650289 0 CFG=1
M  V30 15 O 1.14155 0.150548 1.10612 0
M  V30 16 P 0.21508 1.38661 0.457524 0
M  V30 17 O 1.02844 2.15491 -0.831499 0
M  V30 18 O -0.102493 2.39731 1.53232 0
M  V30 19 O -1.25204 0.817627 -0.160066 0
M  V30 20 C -1.00231 -0.1451 -1.1629 0
M  V30 21 C -2.31229 -0.665968 -1.72805 0 CFG=1
M  V30 22 O -3.09467 -1.25779 -0.770924 0
M  V30 23 C -4.39939 -1.10846 -1.22496 0 CFG=2
M  V30 24 C -4.42477 0.344986 -1.60363 0 CFG=2
M  V30 25 O -5.50732 0.668145 -2.41161 0
M  V30 26 C -3.11188 0.414262 -2.40212 0 CFG=2
M  V30 27 O -3.3972 0.0238395 -3.68748 0
M  V30 28 P -2.98499 1.1935 -4.8333 0
M  V30 29 O -2.70574 2.64005 -4.01348 0
M  V30 30 O -4.30741 1.37629 -5.89808 0
M  V30 31 O -1.78941 0.723533 -5.59226 0
M  V30 32 N -5.4057 -1.52114 -0.314575 0
M  V30 33 C -5.97008 -2.76435 -0.371546 0
M  V30 34 N -6.88995 -2.89165 0.599857 0
M  V30 35 C -6.94006 -1.75803 1.29203 0
M  V30 36 C -6.00413 -0.912164 0.705149 0
M  V30 37 N -5.82006 0.318483 1.18628 0
M  V30 38 C -6.54205 0.738206 2.23996 0
M  V30 39 N -6.37935 2.0492 2.79013 0
M  V30 40 N -7.45728 -0.0786226 2.81964 0
M  V30 41 C -7.68778 -1.32101 2.3846 0
M  V30 42 O -8.50733 -2.10768 2.87275 0
M  V30 43 C 3.41507 0.352981 1.82051 0 CFG=1
M  V30 44 O 2.72419 0.576612 3.00822 0
M  V30 45 C 8.86774 0.0860419 2.4319 0
M  V30 46 O 9.80254 0.0140645 3.26952 0
M  V30 47 N 9.02844 0.597519 1.20501 0
M  V30 48 H 9.05542 0.955931 -1.55576 0
M  V30 49 H 7.56497 1.9138 -1.36847 0
M  V30 50 H 5.17925 -1.65002 4.41322 0
M  V30 51 H 3.57386 -1.69998 2.36281 0
M  V30 52 H 2.32499 -1.99721 0.471544 0
M  V30 53 H 1.92887 -1.11434 -1.82251 0
M  V30 54 H 3.60978 -0.338145 -1.77269 0
M  V30 55 H 3.22309 -3.10478 -1.19379 0
M  V30 56 H 2.58764 1.01378 -0.0455572 0
M  V30 57 H 0.645277 3.08489 -0.897194 0
M  V30 58 H -0.392331 0.350138 -1.94461 0
M  V30 59 H -0.426507 -0.995841 -0.781626 0
M  V30 60 H -2.02177 -1.4677 -2.45839 0
M  V30 61 H -4.44223 -1.67731 -2.20069 0
M  V30 62 H -4.27833 1.03711 -0.760828 0
M  V30 63 H -5.79222 1.59701 -2.2165 0
M  V30 64 H -2.6626 1.41793 -2.32343 0
M  V30 65 H -3.55647 3.17105 -4.06492 0
M  V30 66 H -4.97513 1.99482 -5.48479 0
M  V30 67 H -5.74285 -3.55555 -1.07258 0
M  V30 68 H -5.41538 2.429 2.90269 0
M  V30 69 H -7.16876 2.65768 3.08973 0
M  V30 70 H -7.99821 0.287237 3.6378 0
M  V30 71 H 4.09256 1.18579 1.62397 0
M  V30 72 H 2.95924 1.4268 3.4427 0
M  V30 73 H 9.97368 0.961628 0.908844 0
M  V30 END ATOM
M  V30 BEGIN BOND
M  V30 1 1 1 2
M  V30 2 2 2 3
M  V30 3 1 3 4
M  V30 4 2 4 5
M  V30 5 1 5 6
M  V30 6 2 6 7
M  V30 7 1 7 8
M  V30 8 1 8 9
M  V30 9 1 9 10
M  V30 10 1 10 11
M  V30 11 1 11 12
M  V30 12 1 12 13
M  V30 13 1 11 14
M  V30 14 1 14 15
M  V30 15 1 15 16
M  V30 16 1 16 17
M  V30 17 2 16 18
M  V30 18 1 16 19
M  V30 19 1 19 20
M  V30 20 1 20 21
M  V30 21 1 21 22
M  V30 22 1 22 23
M  V30 23 1 23 24
M  V30 24 1 24 25
M  V30 25 1 24 26
M  V30 26 1 26 27
M  V30 27 1 27 28
M  V30 28 1 28 29
M  V30 29 1 28 30
M  V30 30 2 28 31
M  V30 31 1 23 32
M  V30 32 1 32 33
M  V30 33 2 33 34
M  V30 34 1 34 35
M  V30 35 2 35 36
M  V30 36 1 36 37
M  V30 37 2 37 38
M  V30 38 1 38 39
M  V30 39 1 38 40
M  V30 40 1 40 41
M  V30 41 2 41 42
M  V30 42 1 14 43
M  V30 43 1 43 44
M  V30 44 1 5 45
M  V30 45 2 45 46
M  V30 46 1 45 47
M  V30 47 1 47 2
M  V30 48 1 8 4
M  V30 49 1 43 9
M  V30 50 1 26 21
M  V30 51 1 36 32
M  V30 52 1 41 35
M  V30 53 1 1 48
M  V30 54 1 1 49
M  V30 55 1 7 50
M  V30 56 1 9 51 CFG=1
M  V30 57 1 11 52 CFG=3
M  V30 58 1 12 53
M  V30 59 1 12 54
M  V30 60 1 13 55
M  V30 61 1 14 56 CFG=3
M  V30 62 1 17 57
M  V30 63 1 20 58
M  V30 64 1 20 59
M  V30 65 1 21 60 CFG=3
M  V30 66 1 23 61 CFG=3
M  V30 67 1 24 62 CFG=1
M  V30 68 1 25 63
M  V30 69 1 26 64 CFG=3
M  V30 70 1 29 65
M  V30 71 1 30 66
M  V30 72 1 33 67
M  V30 73 1 39 68
M  V30 74 1 39 69
M  V30 75 1 40 70
M  V30 76 1 43 71 CFG=3
M  V30 77 1 44 72
M  V30 78 1 47 73
M  V30 END BOND
M  V30 END CTAB
M  END
