
     RDKit          3D

  0  0  0  0  0  0  0  0  0  0999 V3000
M  V30 BEGIN CTAB
M  V30 COUNTS 26 26 0 0 0
M  V30 BEGIN ATOM
M  V30 1 C 3.77825 -0.190086 0.33702 0
M  V30 2 C 3.06284 0.803064 -0.531637 0
M  V30 3 C 1.61055 0.418112 -0.751327 0
M  V30 4 C 0.872759 0.348221 0.580133 0
M  V30 5 C -0.54623 -0.0261503 0.384228 0
M  V30 6 C -1.48181 0.964663 0.194359 0
M  V30 7 C -2.82512 0.628946 0.00800074 0
M  V30 8 N -3.77845 1.65879 -0.186459 0
M  V30 9 N -3.14158 -0.669722 0.0239258 0
M  V30 10 C -2.23913 -1.65218 0.208384 0
M  V30 11 N -0.941625 -1.30843 0.387434 0
M  V30 12 N -2.67883 -3.00032 0.208131 0
M  V30 13 H 4.82623 0.147139 0.446767 0
M  V30 14 H 3.3466 -0.185538 1.3631 0
M  V30 15 H 3.79551 -1.20971 -0.0957344 0
M  V30 16 H 3.60162 0.963545 -1.46395 0
M  V30 17 H 3.0467 1.7708 0.0236953 0
M  V30 18 H 1.10929 1.13375 -1.42191 0
M  V30 19 H 1.58867 -0.602885 -1.18393 0
M  V30 20 H 1.31868 -0.392247 1.25492 0
M  V30 21 H 0.93145 1.37194 1.01449 0
M  V30 22 H -1.23486 2.0247 0.179641 0
M  V30 23 H -4.65178 1.66498 0.373792 0
M  V30 24 H -3.63139 2.41659 -0.87863 0
M  V30 25 H -3.47667 -3.32852 0.830012 0
M  V30 26 H -2.26168 -3.74946 -0.387555 0
M  V30 END ATOM
M  V30 BEGIN BOND
M  V30 1 1 1 2
M  V30 2 1 2 3
M  V30 3 1 3 4
M  V30 4 1 4 5
M  V30 5 2 5 6
M  V30 6 1 6 7
M  V30 7 1 7 8
M  V30 8 2 7 9
M  V30 9 1 9 10
M  V30 10 2 10 11
M  V30 11 1 10 12
M  V30 12 1 11 5
M  V30 13 1 1 13
M  V30 14 1 1 14
M  V30 15 1 1 15
M  V30 16 1 2 16
M  V30 17 1 2 17
M  V30 18 1 3 18
M  V30 19 1 3 19
M  V30 20 1 4 20
M  V30 21 1 4 21
M  V30 22 1 6 22
M  V30 23 1 8 23
M  V30 24 1 8 24
M  V30 25 1 12 25
M  V30 26 1 12 26
M  V30 END BOND
M  V30 END CTAB
M  END
