
     RDKit          3D

  0  0  0  0  0  0  0  0  0  0999 V3000
M  V30 BEGIN CTAB
M  V30 COUNTS 23 23 0 0 0
M  V30 BEGIN ATOM
M  V30 1 N 2.46399 -0.758246 -1.02355 0
M  V30 2 C 2.25724 0.121466 0.0478262 0
M  V30 3 N 1.12934 0.700108 0.318564 0
M  V30 4 C -0.0606387 0.468614 -0.507825 0
M  V30 5 C -0.466581 -0.939545 -0.31534 0
M  V30 6 C -1.81511 -1.13437 0.317186 0
M  V30 7 C -2.85363 -0.223234 -0.230604 0
M  V30 8 C -2.48164 1.03203 -0.454187 0
M  V30 9 C -1.09421 1.49736 -0.168989 0
M  V30 10 N 3.34343 0.42003 0.917368 0
M  V30 11 H 2.50741 -0.338959 -1.99678 0
M  V30 12 H 2.58025 -1.78485 -0.966869 0
M  V30 13 H 0.258122 0.64569 -1.55478 0
M  V30 14 H -0.515871 -1.45774 -1.3184 0
M  V30 15 H 0.271392 -1.52838 0.265726 0
M  V30 16 H -2.185 -2.16873 0.166959 0
M  V30 17 H -1.76645 -0.954613 1.4182 0
M  V30 18 H -3.879 -0.570771 -0.440441 0
M  V30 19 H -3.23883 1.69865 -0.854174 0
M  V30 20 H -0.999661 1.86792 0.890327 0
M  V30 21 H -0.940063 2.39941 -0.798795 0
M  V30 22 H 3.86076 1.32871 0.906349 0
M  V30 23 H 3.62474 -0.320539 1.59626 0
M  V30 END ATOM
M  V30 BEGIN BOND
M  V30 1 1 1 2
M  V30 2 2 2 3 CFG=2
M  V30 3 1 3 4
M  V30 4 1 4 5
M  V30 5 1 5 6
M  V30 6 1 6 7
M  V30 7 2 7 8
M  V30 8 1 8 9
M  V30 9 1 2 10
M  V30 10 1 9 4
M  V30 11 1 1 11
M  V30 12 1 1 12
M  V30 13 1 4 13
M  V30 14 1 5 14
M  V30 15 1 5 15
M  V30 16 1 6 16
M  V30 17 1 6 17
M  V30 18 1 7 18
M  V30 19 1 8 19
M  V30 20 1 9 20
M  V30 21 1 9 21
M  V30 22 1 10 22
M  V30 23 1 10 23
M  V30 END BOND
M  V30 END CTAB
M  END
