
     RDKit          3D

  0  0  0  0  0  0  0  0  0  0999 V3000
M  V30 BEGIN CTAB
M  V30 COUNTS 26 27 0 0 0
M  V30 BEGIN ATOM
M  V30 1 C 6.07725 -0.291992 -0.274797 0
M  V30 2 C 4.72837 0.36261 -0.161541 0
M  V30 3 O 4.47124 1.64721 -0.336486 0
M  V30 4 N 3.19016 1.85822 -0.159301 0
M  V30 5 C 2.57666 0.693747 0.139954 0
M  V30 6 N 3.55992 -0.226303 0.132451 0
M  V30 7 C 1.13003 0.499619 0.412807 0
M  V30 8 S 0.28147 0.136781 -1.16025 0
M  V30 9 C -1.44595 -0.0904497 -0.795565 0
M  V30 10 N -2.25244 0.98525 -0.821894 0
M  V30 11 C -3.56559 0.865453 -0.554226 0
M  V30 12 N -4.39821 1.99718 -0.585084 0
M  V30 13 C -4.07728 -0.35399 -0.255336 0
M  V30 14 C -3.21864 -1.44062 -0.23704 0
M  V30 15 N -1.89827 -1.31925 -0.506313 0
M  V30 16 N -3.69497 -2.73951 0.0682573 0
M  V30 17 H 6.47752 -0.505047 0.729244 0
M  V30 18 H 5.94288 -1.28433 -0.788678 0
M  V30 19 H 6.78146 0.358714 -0.82274 0
M  V30 20 H 0.682836 1.37384 0.921065 0
M  V30 21 H 0.958571 -0.387917 1.07211 0
M  V30 22 H -4.96222 2.32062 -1.37998 0
M  V30 23 H -4.44876 2.57246 0.297413 0
M  V30 24 H -5.12727 -0.543696 -0.0258122 0
M  V30 25 H -4.56801 -2.88671 0.622767 0
M  V30 26 H -3.20074 -3.60189 -0.243382 0
M  V30 END ATOM
M  V30 BEGIN BOND
M  V30 1 1 1 2
M  V30 2 1 2 3
M  V30 3 1 3 4
M  V30 4 2 4 5
M  V30 5 1 5 6
M  V30 6 1 5 7
M  V30 7 1 7 8
M  V30 8 1 8 9
M  V30 9 2 9 10
M  V30 10 1 10 11
M  V30 11 1 11 12
M  V30 12 2 11 13
M  V30 13 1 13 14
M  V30 14 2 14 15
M  V30 15 1 14 16
M  V30 16 2 6 2
M  V30 17 1 15 9
M  V30 18 1 1 17
M  V30 19 1 1 18
M  V30 20 1 1 19
M  V30 21 1 7 20
M  V30 22 1 7 21
M  V30 23 1 12 22
M  V30 24 1 12 23
M  V30 25 1 13 24
M  V30 26 1 16 25
M  V30 27 1 16 26
M  V30 END BOND
M  V30 END CTAB
M  END
