
     RDKit          3D

  0  0  0  0  0  0  0  0  0  0999 V3000
M  V30 BEGIN CTAB
M  V30 COUNTS 48 51 0 0 0
M  V30 BEGIN ATOM
M  V30 1 N -7.24451 1.10412 -0.637578 0
M  V30 2 C -5.91347 0.525247 -0.634131 0
M  V30 3 C -5.02867 0.959987 -1.76223 0
M  V30 4 C -3.94681 1.27045 -0.751822 0
M  V30 5 C -5.01497 1.28127 0.318833 0
M  V30 6 C -3.01535 0.112567 -0.523583 0
M  V30 7 C -1.64745 0.294822 -0.513254 0
M  V30 8 C -0.768239 -0.752377 -0.305768 0
M  V30 9 N -1.33683 -1.95574 -0.115554 0
M  V30 10 C -2.66408 -2.17588 -0.118104 0
M  V30 11 N -3.47689 -1.12818 -0.32365 0
M  V30 12 N -3.22093 -3.46847 0.0878672 0
M  V30 13 N 0.63291 -0.587157 -0.291502 0
M  V30 14 C 1.16775 0.742398 -0.504245 0
M  V30 15 C 2.67343 0.744795 -0.508605 0
M  V30 16 N 3.26453 -0.21704 0.397221 0
M  V30 17 C 2.52079 -1.30195 0.962353 0
M  V30 18 C 1.47372 -1.73553 -0.068057 0
M  V30 19 C 4.6274 -0.0423454 0.703848 0
M  V30 20 C 5.21763 -0.802325 1.6825 0
M  V30 21 C 6.57501 -0.647805 1.99831 0
M  V30 22 C 7.32238 0.273455 1.32195 0
M  V30 23 C 6.76817 1.05907 0.329993 0
M  V30 24 C 5.44224 0.877837 0.0521431 0
M  V30 25 Cl 9.01609 0.464354 1.71801 0
M  V30 26 H -7.73462 0.817978 -1.52455 0
M  V30 27 H -7.77244 0.627729 0.138196 0
M  V30 28 H -5.99858 -0.560498 -0.459795 0
M  V30 29 H -5.40267 1.87622 -2.27289 0
M  V30 30 H -4.68647 0.155851 -2.44571 0
M  V30 31 H -3.42761 2.22986 -0.901966 0
M  V30 32 H -4.78329 0.639464 1.20236 0
M  V30 33 H -5.41009 2.28586 0.572374 0
M  V30 34 H -1.22282 1.27516 -0.669391 0
M  V30 35 H -3.24686 -4.11915 -0.718832 0
M  V30 36 H -3.59384 -3.7678 1.00863 0
M  V30 37 H 0.806949 1.07816 -1.49857 0
M  V30 38 H 0.816667 1.46027 0.257796 0
M  V30 39 H 3.05932 1.75052 -0.205301 0
M  V30 40 H 3.07937 0.544787 -1.51995 0
M  V30 41 H 1.96311 -0.938992 1.83643 0
M  V30 42 H 3.14956 -2.18807 1.19268 0
M  V30 43 H 1.95112 -2.01951 -1.02344 0
M  V30 44 H 0.897601 -2.55091 0.398043 0
M  V30 45 H 4.70257 -1.54933 2.26818 0
M  V30 46 H 7.03161 -1.24276 2.76235 0
M  V30 47 H 7.39478 1.77591 -0.180475 0
M  V30 48 H 5.00277 1.49584 -0.731105 0
M  V30 END ATOM
M  V30 BEGIN BOND
M  V30 1 1 1 2
M  V30 2 1 2 3
M  V30 3 1 3 4
M  V30 4 1 4 5
M  V30 5 1 4 6
M  V30 6 2 6 7
M  V30 7 1 7 8
M  V30 8 2 8 9
M  V30 9 1 9 10
M  V30 10 2 10 11
M  V30 11 1 10 12
M  V30 12 1 8 13
M  V30 13 1 13 14
M  V30 14 1 14 15
M  V30 15 1 15 16
M  V30 16 1 16 17
M  V30 17 1 17 18
M  V30 18 1 16 19
M  V30 19 2 19 20
M  V30 20 1 20 21
M  V30 21 2 21 22
M  V30 22 1 22 23
M  V30 23 2 23 24
M  V30 24 1 22 25
M  V30 25 1 5 2
M  V30 26 1 11 6
M  V30 27 1 18 13
M  V30 28 1 24 19
M  V30 29 1 1 26
M  V30 30 1 1 27
M  V30 31 1 2 28
M  V30 32 1 3 29
M  V30 33 1 3 30
M  V30 34 1 4 31
M  V30 35 1 5 32
M  V30 36 1 5 33
M  V30 37 1 7 34
M  V30 38 1 12 35
M  V30 39 1 12 36
M  V30 40 1 14 37
M  V30 41 1 14 38
M  V30 42 1 15 39
M  V30 43 1 15 40
M  V30 44 1 17 41
M  V30 45 1 17 42
M  V30 46 1 18 43
M  V30 47 1 18 44
M  V30 48 1 20 45
M  V30 49 1 21 46
M  V30 50 1 23 47
M  V30 51 1 24 48
M  V30 END BOND
M  V30 END CTAB
M  END
