
     RDKit          3D

  0  0  0  0  0  0  0  0  0  0999 V3000
M  V30 BEGIN CTAB
M  V30 COUNTS 37 38 0 0 0
M  V30 BEGIN ATOM
M  V30 1 N 6.15668 -0.366432 1.49861 0
M  V30 2 C 4.89146 -0.0851535 0.922445 0
M  V30 3 N 3.79561 -0.624373 1.50318 0
M  V30 4 C 2.54494 -0.42383 1.03911 0
M  V30 5 C 2.39233 0.365174 -0.0726305 0
M  V30 6 C 3.49514 0.929563 -0.686816 0
M  V30 7 C 4.76761 0.713615 -0.198765 0
M  V30 8 N 5.9333 1.25464 -0.784198 0
M  V30 9 O 1.13311 0.594659 -0.579097 0
M  V30 10 C -0.0586587 0.0907159 -0.0646345 0
M  V30 11 C -1.23634 0.557291 -0.918053 0
M  V30 12 N -2.49451 0.105934 -0.495942 0
M  V30 13 C -3.01663 0.60896 0.72102 0
M  V30 14 C -4.52179 0.714883 0.49967 0
M  V30 15 C -5.13432 -0.561023 0.0473235 0
M  V30 16 C -4.19991 -1.65058 -0.333192 0
M  V30 17 C -2.84958 -1.2357 -0.79259 0
M  V30 18 H 6.22466 -0.485557 2.52653 0
M  V30 19 H 6.98263 -0.447654 0.888657 0
M  V30 20 H 1.71252 -0.882972 1.5507 0
M  V30 21 H 3.38735 1.55059 -1.55584 0
M  V30 22 H 6.27641 2.21654 -0.587275 0
M  V30 23 H 6.51284 0.690628 -1.4592 0
M  V30 24 H -0.235785 0.513089 0.962495 0
M  V30 25 H -0.00900441 -1.01901 -0.0284683 0
M  V30 26 H -0.99578 0.30481 -1.97018 0
M  V30 27 H -1.22916 1.68076 -0.878677 0
M  V30 28 H -2.64947 1.59975 0.964376 0
M  V30 29 H -2.84472 -0.146236 1.51746 0
M  V30 30 H -4.9504 1.0963 1.4488 0
M  V30 31 H -4.63833 1.50807 -0.279366 0
M  V30 32 H -5.77717 -0.342537 -0.832519 0
M  V30 33 H -5.84753 -0.892166 0.851404 0
M  V30 34 H -4.12956 -2.35102 0.555892 0
M  V30 35 H -4.64762 -2.2944 -1.13295 0
M  V30 36 H -2.65761 -1.4022 -1.87599 0
M  V30 37 H -2.08272 -1.88513 -0.270321 0
M  V30 END ATOM
M  V30 BEGIN BOND
M  V30 1 1 1 2
M  V30 2 2 2 3
M  V30 3 1 3 4
M  V30 4 2 4 5
M  V30 5 1 5 6
M  V30 6 2 6 7
M  V30 7 1 7 8
M  V30 8 1 5 9
M  V30 9 1 9 10
M  V30 10 1 10 11
M  V30 11 1 11 12
M  V30 12 1 12 13
M  V30 13 1 13 14
M  V30 14 1 14 15
M  V30 15 1 15 16
M  V30 16 1 16 17
M  V30 17 1 7 2
M  V30 18 1 17 12
M  V30 19 1 1 18
M  V30 20 1 1 19
M  V30 21 1 4 20
M  V30 22 1 6 21
M  V30 23 1 8 22
M  V30 24 1 8 23
M  V30 25 1 10 24
M  V30 26 1 10 25
M  V30 27 1 11 26
M  V30 28 1 11 27
M  V30 29 1 13 28
M  V30 30 1 13 29
M  V30 31 1 14 30
M  V30 32 1 14 31
M  V30 33 1 15 32
M  V30 34 1 15 33
M  V30 35 1 16 34
M  V30 36 1 16 35
M  V30 37 1 17 36
M  V30 38 1 17 37
M  V30 END BOND
M  V30 END CTAB
M  END
