
     RDKit          3D

  0  0  0  0  0  0  0  0  0  0999 V3000
M  V30 BEGIN CTAB
M  V30 COUNTS 35 36 0 0 0
M  V30 BEGIN ATOM
M  V30 1 C 5.19876 1.57814 0.812688 0
M  V30 2 C 4.5686 0.607758 -0.160652 0
M  V30 3 O 3.15376 0.724694 -0.0022229 0
M  V30 4 C 2.39303 -0.364879 0.43932 0
M  V30 5 O 3.0436 -1.41506 0.674761 0
M  V30 6 C 0.949218 -0.283622 0.6131 0
M  V30 7 C 0.264021 -1.3922 1.04406 0
M  V30 8 C -1.11556 -1.32362 1.21186 0
M  V30 9 N -1.76331 -2.51282 1.66059 0
M  V30 10 C -1.8147 -0.165114 0.955523 0
M  V30 11 C -1.15852 0.944096 0.529622 0
M  V30 12 C 0.229961 0.856369 0.365403 0
M  V30 13 Cl -1.96765 2.48401 0.211541 0
M  V30 14 S -3.55988 -0.162568 1.21998 0
M  V30 15 C -4.51509 -0.738906 -0.158838 0
M  V30 16 N -4.80063 -2.07275 -0.332704 0
M  V30 17 N -5.52497 -2.19646 -1.41126 0
M  V30 18 C -5.74791 -1.00075 -1.98419 0
M  V30 19 N -5.10134 -0.110122 -1.17274 0
M  V30 20 N -5.08731 1.25679 -1.39326 0
M  V30 21 C 4.98199 0.87781 -1.58714 0
M  V30 22 H 6.16896 1.20523 1.20145 0
M  V30 23 H 4.48363 1.76575 1.63205 0
M  V30 24 H 5.32196 2.54604 0.259597 0
M  V30 25 H 4.9168 -0.410529 0.115996 0
M  V30 26 H 0.817368 -2.28752 1.24123 0
M  V30 27 H -2.1882 -3.10934 0.915472 0
M  V30 28 H -1.8195 -2.78312 2.64722 0
M  V30 29 H 0.770787 1.74383 0.0212125 0
M  V30 30 H -6.30289 -0.759741 -2.87747 0
M  V30 31 H -4.67312 1.65407 -2.26728 0
M  V30 32 H -5.47435 1.96923 -0.726952 0
M  V30 33 H 4.09476 1.10898 -2.2222 0
M  V30 34 H 5.70282 1.74448 -1.58707 0
M  V30 35 H 5.55486 0.0218275 -1.9963 0
M  V30 END ATOM
M  V30 BEGIN BOND
M  V30 1 1 1 2
M  V30 2 1 2 3
M  V30 3 1 3 4
M  V30 4 2 4 5
M  V30 5 1 4 6
M  V30 6 2 6 7
M  V30 7 1 7 8
M  V30 8 1 8 9
M  V30 9 2 8 10
M  V30 10 1 10 11
M  V30 11 2 11 12
M  V30 12 1 11 13
M  V30 13 1 10 14
M  V30 14 1 14 15
M  V30 15 2 15 16
M  V30 16 1 16 17
M  V30 17 2 17 18
M  V30 18 1 18 19
M  V30 19 1 19 20
M  V30 20 1 2 21
M  V30 21 1 12 6
M  V30 22 1 19 15
M  V30 23 1 1 22
M  V30 24 1 1 23
M  V30 25 1 1 24
M  V30 26 1 2 25
M  V30 27 1 7 26
M  V30 28 1 9 27
M  V30 29 1 9 28
M  V30 30 1 12 29
M  V30 31 1 18 30
M  V30 32 1 20 31
M  V30 33 1 20 32
M  V30 34 1 21 33
M  V30 35 1 21 34
M  V30 36 1 21 35
M  V30 END BOND
M  V30 END CTAB
M  END
