
     RDKit          3D

  0  0  0  0  0  0  0  0  0  0999 V3000
M  V30 BEGIN CTAB
M  V30 COUNTS 49 50 0 0 0
M  V30 BEGIN ATOM
M  V30 1 N 9.60455 0.449005 0.129107 0
M  V30 2 C 8.42697 0.44801 -0.659858 0
M  V30 3 N 8.53931 0.621269 -1.92618 0
M  V30 4 C 7.09607 0.259594 -0.100398 0
M  V30 5 C 6.88915 0.0663104 1.25686 0
M  V30 6 C 5.61456 -0.109168 1.75434 0
M  V30 7 C 4.49521 -0.102923 0.949147 0
M  V30 8 O 3.22689 -0.284139 1.49533 0
M  V30 9 C 2.04424 -0.293647 0.769324 0
M  V30 10 C 0.884769 -0.512243 1.679 0
M  V30 11 C -0.44824 -0.537781 0.97551 0
M  V30 12 C -0.768873 0.723207 0.247954 0
M  V30 13 C -2.12541 0.553278 -0.404621 0
M  V30 14 O -3.12092 0.298733 0.578698 0
M  V30 15 C -4.43592 0.117096 0.136318 0
M  V30 16 C -4.76503 0.180452 -1.20017 0
M  V30 17 C -6.07404 -0.000725302 -1.6364 0
M  V30 18 C -7.1023 -0.251329 -0.759288 0
M  V30 19 C -6.75117 -0.312614 0.595514 0
M  V30 20 C -5.45639 -0.133577 1.02893 0
M  V30 21 C -8.49077 -0.449605 -1.15314 0
M  V30 22 N -9.51599 -0.705424 -0.211632 0
M  V30 23 N -8.82704 -0.396443 -2.38816 0
M  V30 24 C 4.70537 0.0896918 -0.40075 0
M  V30 25 C 5.9787 0.266127 -0.906484 0
M  V30 26 H 9.98358 1.36028 0.46708 0
M  V30 27 H 10.1234 -0.413098 0.397202 0
M  V30 28 H 9.46478 0.759935 -2.37439 0
M  V30 29 H 7.76999 0.0602817 1.89912 0
M  V30 30 H 5.448 -0.261525 2.82181 0
M  V30 31 H 1.95752 0.7144 0.266883 0
M  V30 32 H 2.0129 -1.02683 -0.0609311 0
M  V30 33 H 1.01153 -1.54011 2.12948 0
M  V30 34 H 0.895949 0.179423 2.53781 0
M  V30 35 H -1.22342 -0.665893 1.77662 0
M  V30 36 H -0.555352 -1.39985 0.307289 0
M  V30 37 H -0.83001 1.61257 0.887561 0
M  V30 38 H -0.0439913 0.869433 -0.603141 0
M  V30 39 H -2.11248 -0.231127 -1.18724 0
M  V30 40 H -2.38347 1.5382 -0.870983 0
M  V30 41 H -3.98387 0.377448 -1.94103 0
M  V30 42 H -6.31542 0.0535097 -2.70413 0
M  V30 43 H -7.56556 -0.512071 1.30115 0
M  V30 44 H -5.2069 -0.18494 2.07961 0
M  V30 45 H -9.90822 -1.64962 -0.0487507 0
M  V30 46 H -9.89197 0.0866544 0.340172 0
M  V30 47 H -8.24632 -0.22631 -3.20564 0
M  V30 48 H 3.83533 0.0976086 -1.05031 0
M  V30 49 H 6.14025 0.418483 -1.97738 0
M  V30 END ATOM
M  V30 BEGIN BOND
M  V30 1 1 1 2
M  V30 2 2 2 3 CFG=2
M  V30 3 1 2 4
M  V30 4 2 4 5
M  V30 5 1 5 6
M  V30 6 2 6 7
M  V30 7 1 7 8
M  V30 8 1 8 9
M  V30 9 1 9 10
M  V30 10 1 10 11
M  V30 11 1 11 12
M  V30 12 1 12 13
M  V30 13 1 13 14
M  V30 14 1 14 15
M  V30 15 2 15 16
M  V30 16 1 16 17
M  V30 17 2 17 18
M  V30 18 1 18 19
M  V30 19 2 19 20
M  V30 20 1 18 21
M  V30 21 1 21 22
M  V30 22 2 21 23 CFG=2
M  V30 23 1 7 24
M  V30 24 2 24 25
M  V30 25 1 25 4
M  V30 26 1 20 15
M  V30 27 1 1 26
M  V30 28 1 1 27
M  V30 29 1 3 28
M  V30 30 1 5 29
M  V30 31 1 6 30
M  V30 32 1 9 31
M  V30 33 1 9 32
M  V30 34 1 10 33
M  V30 35 1 10 34
M  V30 36 1 11 35
M  V30 37 1 11 36
M  V30 38 1 12 37
M  V30 39 1 12 38
M  V30 40 1 13 39
M  V30 41 1 13 40
M  V30 42 1 16 41
M  V30 43 1 17 42
M  V30 44 1 19 43
M  V30 45 1 20 44
M  V30 46 1 22 45
M  V30 47 1 22 46
M  V30 48 1 23 47
M  V30 49 1 24 48
M  V30 50 1 25 49
M  V30 END BOND
M  V30 END CTAB
M  END
