
     RDKit          3D

  0  0  0  0  0  0  0  0  0  0999 V3000
M  V30 BEGIN CTAB
M  V30 COUNTS 71 74 0 0 0
M  V30 BEGIN ATOM
M  V30 1 N -7.77178 -1.08594 -2.60068 0
M  V30 2 C -7.05262 -0.291925 -1.63075 0
M  V30 3 C -7.76063 -0.408038 -0.340633 0
M  V30 4 C -7.29775 0.324185 0.847553 0
M  V30 5 C -5.99985 0.0801945 1.4851 0
M  V30 6 C -4.74095 0.299327 0.730605 0 CFG=2
M  V30 7 C -3.53989 0.0532191 1.54514 0
M  V30 8 O -3.73261 -0.988688 2.33143 0
M  V30 9 N -2.30844 0.650651 1.66151 0
M  V30 10 C -1.87435 1.7757 0.874248 0
M  V30 11 C -1.26676 1.45269 -0.445462 0
M  V30 12 O -0.338308 2.47947 -0.767773 0
M  V30 13 C 0.484459 2.07422 -1.83053 0
M  V30 14 C 1.97031 2.13567 -1.43382 0
M  V30 15 O 2.44476 0.837082 -1.50477 0
M  V30 16 C 3.66629 0.271218 -1.26632 0
M  V30 17 C 4.26339 0.267083 -0.00635781 0
M  V30 18 C 3.57262 0.900553 1.20377 0
M  V30 19 C 2.25575 0.24476 1.4749 0
M  V30 20 C 1.09423 0.738842 2.01582 0
M  V30 21 C 0.0165529 -0.0998517 2.14435 0
M  V30 22 C -1.35251 0.153566 2.66235 0
M  V30 23 C 0.134364 -1.44567 1.71848 0
M  V30 24 C 1.27015 -1.984 1.17529 0
M  V30 25 C 2.316 -1.11542 1.06537 0
M  V30 26 C 5.49625 -0.326297 0.133025 0
M  V30 27 C 6.20881 -0.927387 -0.869155 0
M  V30 28 C 5.62978 -0.930654 -2.11599 0
M  V30 29 C 4.39467 -0.346196 -2.2987 0
M  V30 30 C 7.51031 -1.53075 -0.601293 0
M  V30 31 C 8.31313 -0.985968 0.378045 0
M  V30 32 N 9.53988 -1.51499 0.664198 0
M  V30 33 C 9.99412 -2.5851 -0.00799391 0
M  V30 34 N 9.20986 -3.11208 -0.960433 0
M  V30 35 C 7.98885 -2.62953 -1.28398 0
M  V30 36 N -4.67548 1.50517 0.00779447 0
M  V30 37 H -8.05626 -1.96746 -2.30072 0
M  V30 38 H -8.29588 -0.620712 -3.26884 0
M  V30 39 H -7.13988 0.759482 -2.00227 0
M  V30 40 H -6.0335 -0.676124 -1.67501 0
M  V30 41 H -7.97666 -1.50564 -0.103066 0
M  V30 42 H -8.82526 -0.030134 -0.541926 0
M  V30 43 H -7.4191 1.44508 0.593092 0
M  V30 44 H -8.15322 0.223456 1.61567 0
M  V30 45 H -5.98601 -1.00991 1.83904 0
M  V30 46 H -6.00798 0.625976 2.46967 0
M  V30 47 H -4.67799 -0.546709 -0.0479065 0
M  V30 48 H -1.04966 2.34514 1.44144 0
M  V30 49 H -2.63024 2.57847 0.745071 0
M  V30 50 H -2.0207 1.53108 -1.25836 0
M  V30 51 H -0.772535 0.480648 -0.527945 0
M  V30 52 H 0.246151 2.75599 -2.66533 0
M  V30 53 H 0.169789 1.06932 -2.1256 0
M  V30 54 H 2.42229 2.83701 -2.17732 0
M  V30 55 H 2.00201 2.64798 -0.480865 0
M  V30 56 H 4.29016 0.691468 2.04678 0
M  V30 57 H 3.63815 1.98081 1.08416 0
M  V30 58 H 1.02147 1.83037 2.3594 0
M  V30 59 H -1.83163 -0.831279 2.98094 0
M  V30 60 H -1.45725 0.726885 3.60353 0
M  V30 61 H -0.726659 -2.13478 1.8095 0
M  V30 62 H 1.32934 -3.02041 0.859108 0
M  V30 63 H 3.25083 -1.52016 0.636676 0
M  V30 64 H 5.96586 -0.326788 1.13457 0
M  V30 65 H 6.17071 -1.39922 -2.93045 0
M  V30 66 H 3.98871 -0.399756 -3.32605 0
M  V30 67 H 7.9759 -0.123421 0.936827 0
M  V30 68 H 10.9738 -3.02045 0.21027 0
M  V30 69 H 7.36155 -3.05397 -2.04768 0
M  V30 70 H -4.50411 1.45464 -0.997164 0
M  V30 71 H -5.30476 2.26796 0.280613 0
M  V30 END ATOM
M  V30 BEGIN BOND
M  V30 1 1 1 2
M  V30 2 1 2 3
M  V30 3 1 3 4
M  V30 4 1 4 5
M  V30 5 1 5 6
M  V30 6 1 6 7
M  V30 7 2 7 8
M  V30 8 1 7 9
M  V30 9 1 9 10
M  V30 10 1 10 11
M  V30 11 1 11 12
M  V30 12 1 12 13
M  V30 13 1 13 14
M  V30 14 1 14 15
M  V30 15 1 15 16
M  V30 16 2 16 17
M  V30 17 1 17 18
M  V30 18 1 18 19
M  V30 19 1 19 20
M  V30 20 2 20 21
M  V30 21 1 21 22
M  V30 22 1 21 23
M  V30 23 2 23 24
M  V30 24 1 24 25
M  V30 25 1 17 26
M  V30 26 2 26 27
M  V30 27 1 27 28
M  V30 28 2 28 29
M  V30 29 1 27 30
M  V30 30 2 30 31
M  V30 31 1 31 32
M  V30 32 2 32 33
M  V30 33 1 33 34
M  V30 34 2 34 35
M  V30 35 1 6 36
M  V30 36 1 22 9
M  V30 37 1 35 30
M  V30 38 1 29 16
M  V30 39 2 25 19
M  V30 40 1 1 37
M  V30 41 1 1 38
M  V30 42 1 2 39
M  V30 43 1 2 40
M  V30 44 1 3 41
M  V30 45 1 3 42
M  V30 46 1 4 43
M  V30 47 1 4 44
M  V30 48 1 5 45
M  V30 49 1 5 46
M  V30 50 1 6 47 CFG=3
M  V30 51 1 10 48
M  V30 52 1 10 49
M  V30 53 1 11 50
M  V30 54 1 11 51
M  V30 55 1 13 52
M  V30 56 1 13 53
M  V30 57 1 14 54
M  V30 58 1 14 55
M  V30 59 1 18 56
M  V30 60 1 18 57
M  V30 61 1 20 58
M  V30 62 1 22 59
M  V30 63 1 22 60
M  V30 64 1 23 61
M  V30 65 1 24 62
M  V30 66 1 25 63
M  V30 67 1 26 64
M  V30 68 1 28 65
M  V30 69 1 29 66
M  V30 70 1 31 67
M  V30 71 1 33 68
M  V30 72 1 35 69
M  V30 73 1 36 70
M  V30 74 1 36 71
M  V30 END BOND
M  V30 END CTAB
M  END
