
     RDKit          3D

  0  0  0  0  0  0  0  0  0  0999 V3000
M  V30 BEGIN CTAB
M  V30 COUNTS 34 37 0 0 0
M  V30 BEGIN ATOM
M  V30 1 N -5.96435 0.152224 0.138623 0
M  V30 2 C -4.55944 -0.0155312 0.186336 0
M  V30 3 C -4.00911 -1.16832 0.656365 0
M  V30 4 C -2.62274 -1.37387 0.720055 0
M  V30 5 C -1.79518 -0.364892 0.288212 0
M  V30 6 C -2.32941 0.823004 -0.196645 0
M  V30 7 C -3.70954 0.973829 -0.237708 0
M  V30 8 C -1.51977 1.84468 -0.633475 0
M  V30 9 C -0.157518 1.65365 -0.575439 0
M  V30 10 C 0.405596 0.489977 -0.101089 0
M  V30 11 C -0.40261 -0.564396 0.349297 0
M  V30 12 C 0.148531 -1.72915 0.824282 0
M  V30 13 C 1.52333 -1.83919 0.848491 0
M  V30 14 C 2.3426 -0.831231 0.417206 0
M  V30 15 C 1.79565 0.341279 -0.0610613 0
M  V30 16 C 2.60764 1.36792 -0.500001 0
M  V30 17 C 3.99963 1.18308 -0.445 0
M  V30 18 C 4.5681 0.023 0.0277722 0
M  V30 19 C 3.7294 -0.980358 0.457457 0
M  V30 20 N 5.98059 -0.0867663 0.0512689 0
M  V30 21 H -6.55863 0.115694 0.994608 0
M  V30 22 H -6.42439 0.317011 -0.772438 0
M  V30 23 H -4.6162 -1.98674 1.00564 0
M  V30 24 H -2.24802 -2.2971 1.09751 0
M  V30 25 H -4.12734 1.8957 -0.613924 0
M  V30 26 H -1.97022 2.75801 -1.00563 0
M  V30 27 H 0.419996 2.47939 -0.927307 0
M  V30 28 H -0.479842 -2.52517 1.1646 0
M  V30 29 H 1.98429 -2.75132 1.21999 0
M  V30 30 H 2.19994 2.26897 -0.867729 0
M  V30 31 H 4.60765 1.98984 -0.789474 0
M  V30 32 H 4.13526 -1.90393 0.834568 0
M  V30 33 H 6.57786 0.44907 -0.610324 0
M  V30 34 H 6.46823 -0.708363 0.732575 0
M  V30 END ATOM
M  V30 BEGIN BOND
M  V30 1 1 1 2
M  V30 2 2 2 3
M  V30 3 1 3 4
M  V30 4 2 4 5
M  V30 5 1 5 6
M  V30 6 2 6 7
M  V30 7 1 6 8
M  V30 8 2 8 9
M  V30 9 1 9 10
M  V30 10 2 10 11
M  V30 11 1 11 12
M  V30 12 2 12 13
M  V30 13 1 13 14
M  V30 14 2 14 15
M  V30 15 1 15 16
M  V30 16 2 16 17
M  V30 17 1 17 18
M  V30 18 2 18 19
M  V30 19 1 18 20
M  V30 20 1 7 2
M  V30 21 1 15 10
M  V30 22 1 11 5
M  V30 23 1 19 14
M  V30 24 1 1 21
M  V30 25 1 1 22
M  V30 26 1 3 23
M  V30 27 1 4 24
M  V30 28 1 7 25
M  V30 29 1 8 26
M  V30 30 1 9 27
M  V30 31 1 12 28
M  V30 32 1 13 29
M  V30 33 1 16 30
M  V30 34 1 17 31
M  V30 35 1 19 32
M  V30 36 1 20 33
M  V30 37 1 20 34
M  V30 END BOND
M  V30 END CTAB
M  END
