
     RDKit          3D

  0  0  0  0  0  0  0  0  0  0999 V3000
M  V30 BEGIN CTAB
M  V30 COUNTS 43 42 0 0 0
M  V30 BEGIN ATOM
M  V30 1 N 4.4665 0.966297 0.24763 0
M  V30 2 C 3.33337 0.574274 -0.505145 0
M  V30 3 C 2.64451 -0.623278 0.149664 0
M  V30 4 C 1.47607 -1.01833 -0.640986 0
M  V30 5 N 0.419039 -0.0586832 -0.838854 0
M  V30 6 C -0.625795 -0.0241271 0.0984893 0
M  V30 7 O -0.588779 -0.865219 1.10078 0
M  V30 8 C -1.78699 0.848349 0.111827 0 CFG=2
M  V30 9 C -3.07207 0.0400748 0.199958 0
M  V30 10 C -4.20583 1.0575 0.206003 0
M  V30 11 C -3.16696 -0.743513 1.48263 0
M  V30 12 C -3.27705 -0.841196 -1.00168 0
M  V30 13 N -1.95197 1.80093 -0.910308 0
M  V30 14 C 0.374734 0.860439 -1.94463 0
M  V30 15 C 2.44474 -0.426786 1.61094 0
M  V30 16 C 3.67316 -1.76374 0.0181224 0
M  V30 17 H 5.30268 0.590272 -0.0538351 0
M  V30 18 H 4.43591 1.62178 0.92694 0
M  V30 19 H 2.63978 1.42618 -0.658821 0
M  V30 20 H 3.71791 0.310586 -1.51153 0
M  V30 21 H 1.01781 -1.92972 -0.194904 0
M  V30 22 H 1.81275 -1.33264 -1.6584 0
M  V30 23 H -1.75323 1.40941 1.09167 0
M  V30 24 H -4.41576 1.29015 -0.866443 0
M  V30 25 H -5.10916 0.647367 0.703676 0
M  V30 26 H -3.84548 1.98683 0.679112 0
M  V30 27 H -2.64208 -0.210668 2.29697 0
M  V30 28 H -2.85211 -1.80159 1.3737 0
M  V30 29 H -4.25072 -0.78885 1.76853 0
M  V30 30 H -4.36599 -0.950671 -1.23371 0
M  V30 31 H -2.807 -0.443002 -1.92435 0
M  V30 32 H -2.93266 -1.89797 -0.800633 0
M  V30 33 H -1.93052 2.79181 -0.632458 0
M  V30 34 H -2.57011 1.56928 -1.68923 0
M  V30 35 H 1.25531 0.722727 -2.63181 0
M  V30 36 H 0.468969 1.88871 -1.56233 0
M  V30 37 H -0.490239 0.707245 -2.6318 0
M  V30 38 H 2.09689 -1.35685 2.06102 0
M  V30 39 H 3.47115 -0.249 2.05303 0
M  V30 40 H 1.85836 0.461927 1.89063 0
M  V30 41 H 4.22367 -1.92552 0.942207 0
M  V30 42 H 4.36811 -1.59295 -0.803251 0
M  V30 43 H 3.13909 -2.72782 -0.207913 0
M  V30 END ATOM
M  V30 BEGIN BOND
M  V30 1 1 1 2
M  V30 2 1 2 3
M  V30 3 1 3 4
M  V30 4 1 4 5
M  V30 5 1 5 6
M  V30 6 2 6 7
M  V30 7 1 6 8
M  V30 8 1 8 9
M  V30 9 1 9 10
M  V30 10 1 9 11
M  V30 11 1 9 12
M  V30 12 1 8 13
M  V30 13 1 5 14
M  V30 14 1 3 15
M  V30 15 1 3 16
M  V30 16 1 1 17
M  V30 17 1 1 18
M  V30 18 1 2 19
M  V30 19 1 2 20
M  V30 20 1 4 21
M  V30 21 1 4 22
M  V30 22 1 8 23 CFG=1
M  V30 23 1 10 24
M  V30 24 1 10 25
M  V30 25 1 10 26
M  V30 26 1 11 27
M  V30 27 1 11 28
M  V30 28 1 11 29
M  V30 29 1 12 30
M  V30 30 1 12 31
M  V30 31 1 12 32
M  V30 32 1 13 33
M  V30 33 1 13 34
M  V30 34 1 14 35
M  V30 35 1 14 36
M  V30 36 1 14 37
M  V30 37 1 15 38
M  V30 38 1 15 39
M  V30 39 1 15 40
M  V30 40 1 16 41
M  V30 41 1 16 42
M  V30 42 1 16 43
M  V30 END BOND
M  V30 END CTAB
M  END
