
     RDKit          3D

  0  0  0  0  0  0  0  0  0  0999 V3000
M  V30 BEGIN CTAB
M  V30 COUNTS 22 22 0 0 0
M  V30 BEGIN ATOM
M  V30 1 N -2.44597 -1.56209 0.297335 0
M  V30 2 C -2.08779 -0.178331 0.71688 0
M  V30 3 C -0.735584 0.0357981 0.179098 0
M  V30 4 C 0.30606 -0.802949 0.426365 0
M  V30 5 C 1.58538 -0.579927 -0.119056 0
M  V30 6 C 1.7489 0.478373 -0.943439 0
M  V30 7 C 0.695895 1.35023 -1.19038 0
M  V30 8 C -0.533467 1.1596 -0.623265 0
M  V30 9 N -1.50916 2.2501 -0.583208 0
M  V30 10 C 2.82862 -1.20675 0.541895 0
M  V30 11 F 2.70095 -2.48854 0.873602 0
M  V30 12 F 3.01878 -0.508299 1.75419 0
M  V30 13 F 3.87846 -0.883601 -0.268964 0
M  V30 14 H -2.4162 -2.29831 0.887205 0
M  V30 15 H -2.24737 -1.64344 -0.763466 0
M  V30 16 H -2.86288 0.448699 0.344099 0
M  V30 17 H -2.10328 -0.223379 1.83975 0
M  V30 18 H 0.225547 -1.62562 1.04021 0
M  V30 19 H 2.72763 0.67054 -1.45822 0
M  V30 20 H 0.843724 2.20131 -1.80522 0
M  V30 21 H -2.39882 2.23978 -0.0618957 0
M  V30 22 H -1.21944 3.16681 -1.08351 0
M  V30 END ATOM
M  V30 BEGIN BOND
M  V30 1 1 1 2
M  V30 2 1 2 3
M  V30 3 2 3 4
M  V30 4 1 4 5
M  V30 5 2 5 6
M  V30 6 1 6 7
M  V30 7 2 7 8
M  V30 8 1 8 9
M  V30 9 1 5 10
M  V30 10 1 10 11
M  V30 11 1 10 12
M  V30 12 1 10 13
M  V30 13 1 8 3
M  V30 14 1 1 14
M  V30 15 1 1 15
M  V30 16 1 2 16
M  V30 17 1 2 17
M  V30 18 1 4 18
M  V30 19 1 6 19
M  V30 20 1 7 20
M  V30 21 1 9 21
M  V30 22 1 9 22
M  V30 END BOND
M  V30 END CTAB
M  END
