
     RDKit          3D

  0  0  0  0  0  0  0  0  0  0999 V3000
M  V30 BEGIN CTAB
M  V30 COUNTS 30 31 0 0 0
M  V30 BEGIN ATOM
M  V30 1 N -1.68332 3.04471 1.41045 0
M  V30 2 C -2.03598 1.98424 1.11271 0
M  V30 3 C -2.50363 0.665454 0.754329 0
M  V30 4 C -3.67703 0.536258 -0.00386601 0
M  V30 5 C -4.18839 -0.693159 -0.359051 0
M  V30 6 N -5.38365 -0.804742 -1.1313 0
M  V30 7 C -3.49436 -1.80778 0.0642009 0
M  V30 8 C -2.34173 -1.68618 0.808352 0
M  V30 9 C -1.8108 -0.441274 1.17596 0
M  V30 10 S -0.32367 -0.353378 2.15608 0
M  V30 11 C 1.16162 -0.458174 1.21472 0
M  V30 12 N 1.81442 -1.61483 0.871462 0
M  V30 13 N 2.8976 -1.34551 0.176604 0
M  V30 14 C 2.97617 -0.03397 0.052489 0
M  V30 15 N 1.91513 0.503866 0.687478 0
M  V30 16 N 1.71757 1.87771 0.74169 0
M  V30 17 C 4.0681 0.686875 -0.672916 0
M  V30 18 C 5.06118 -0.284863 -1.24087 0
M  V30 19 H -4.20671 1.41753 -0.325721 0
M  V30 20 H -6.18319 -1.42043 -0.862329 0
M  V30 21 H -5.48397 -0.257264 -2.00473 0
M  V30 22 H -3.89872 -2.7695 -0.216086 0
M  V30 23 H -1.79102 -2.55765 1.14432 0
M  V30 24 H 1.74803 2.50857 -0.0945923 0
M  V30 25 H 1.52257 2.34404 1.67049 0
M  V30 26 H 3.59129 1.21471 -1.53142 0
M  V30 27 H 4.52131 1.38649 0.0445735 0
M  V30 28 H 5.64539 0.147142 -2.07849 0
M  V30 29 H 4.59657 -1.22637 -1.58141 0
M  V30 30 H 5.76918 -0.56251 -0.417596 0
M  V30 END ATOM
M  V30 BEGIN BOND
M  V30 1 3 1 2
M  V30 2 1 2 3
M  V30 3 2 3 4
M  V30 4 1 4 5
M  V30 5 1 5 6
M  V30 6 2 5 7
M  V30 7 1 7 8
M  V30 8 2 8 9
M  V30 9 1 9 10
M  V30 10 1 10 11
M  V30 11 2 11 12
M  V30 12 1 12 13
M  V30 13 2 13 14
M  V30 14 1 14 15
M  V30 15 1 15 16
M  V30 16 1 14 17
M  V30 17 1 17 18
M  V30 18 1 9 3
M  V30 19 1 15 11
M  V30 20 1 4 19
M  V30 21 1 6 20
M  V30 22 1 6 21
M  V30 23 1 7 22
M  V30 24 1 8 23
M  V30 25 1 16 24
M  V30 26 1 16 25
M  V30 27 1 17 26
M  V30 28 1 17 27
M  V30 29 1 18 28
M  V30 30 1 18 29
M  V30 31 1 18 30
M  V30 END BOND
M  V30 END CTAB
M  END
