
     RDKit          3D

  0  0  0  0  0  0  0  0  0  0999 V3000
M  V30 BEGIN CTAB
M  V30 COUNTS 39 40 0 0 0
M  V30 BEGIN ATOM
M  V30 1 N 4.05353 0.715281 1.91798 0
M  V30 2 C 4.00105 0.660111 0.510416 0
M  V30 3 C 5.02008 1.18375 -0.281515 0
M  V30 4 C 4.93823 1.11368 -1.65717 0
M  V30 5 C 3.82932 0.516133 -2.2197 0
M  V30 6 C 2.8224 -0.00112855 -1.42892 0
M  V30 7 C 2.88059 0.0564093 -0.0540782 0
M  V30 8 N 1.85266 -0.471216 0.776308 0
M  V30 9 C 0.715596 -1.0857 0.10977 0
M  V30 10 C -0.297437 -1.60223 1.10982 0
M  V30 11 C -1.44359 -2.22291 0.371474 0
M  V30 12 N -2.14693 -1.33879 -0.513543 0
M  V30 13 C -2.97603 -0.251917 -0.108029 0
M  V30 14 C -3.51301 0.58812 -1.07735 0
M  V30 15 N -3.19057 0.333195 -2.44621 0
M  V30 16 C -4.32603 1.62461 -0.697461 0
M  V30 17 C -4.61674 1.84262 0.636459 0
M  V30 18 C -4.08802 1.01367 1.60204 0
M  V30 19 C -3.25567 -0.0510063 1.23729 0
M  V30 20 H 4.49408 -0.0505541 2.45885 0
M  V30 21 H 3.65302 1.52103 2.43093 0
M  V30 22 H 5.88474 1.65048 0.198157 0
M  V30 23 H 5.73605 1.5235 -2.28556 0
M  V30 24 H 3.76931 0.463355 -3.3011 0
M  V30 25 H 1.95303 -0.46976 -1.87862 0
M  V30 26 H 1.9223 -0.414044 1.82124 0
M  V30 27 H 0.242376 -0.399515 -0.621159 0
M  V30 28 H 1.08194 -1.96471 -0.464861 0
M  V30 29 H 0.234499 -2.43738 1.65663 0
M  V30 30 H -0.547097 -0.872639 1.87557 0
M  V30 31 H -1.11093 -3.11429 -0.213353 0
M  V30 32 H -2.22306 -2.58079 1.11257 0
M  V30 33 H -2.04542 -1.50243 -1.55719 0
M  V30 34 H -3.27867 -0.582212 -2.90574 0
M  V30 35 H -2.84244 1.16465 -2.98771 0
M  V30 36 H -4.73288 2.26866 -1.49181 0
M  V30 37 H -5.25918 2.6636 0.923974 0
M  V30 38 H -4.33138 1.20732 2.63138 0
M  V30 39 H -2.85971 -0.696982 2.00905 0
M  V30 END ATOM
M  V30 BEGIN BOND
M  V30 1 1 1 2
M  V30 2 2 2 3
M  V30 3 1 3 4
M  V30 4 2 4 5
M  V30 5 1 5 6
M  V30 6 2 6 7
M  V30 7 1 7 8
M  V30 8 1 8 9
M  V30 9 1 9 10
M  V30 10 1 10 11
M  V30 11 1 11 12
M  V30 12 1 12 13
M  V30 13 2 13 14
M  V30 14 1 14 15
M  V30 15 1 14 16
M  V30 16 2 16 17
M  V30 17 1 17 18
M  V30 18 2 18 19
M  V30 19 1 7 2
M  V30 20 1 19 13
M  V30 21 1 1 20
M  V30 22 1 1 21
M  V30 23 1 3 22
M  V30 24 1 4 23
M  V30 25 1 5 24
M  V30 26 1 6 25
M  V30 27 1 8 26
M  V30 28 1 9 27
M  V30 29 1 9 28
M  V30 30 1 10 29
M  V30 31 1 10 30
M  V30 32 1 11 31
M  V30 33 1 11 32
M  V30 34 1 12 33
M  V30 35 1 15 34
M  V30 36 1 15 35
M  V30 37 1 16 36
M  V30 38 1 17 37
M  V30 39 1 18 38
M  V30 40 1 19 39
M  V30 END BOND
M  V30 END CTAB
M  END
