
     RDKit          3D

  0  0  0  0  0  0  0  0  0  0999 V3000
M  V30 BEGIN CTAB
M  V30 COUNTS 24 25 0 0 0
M  V30 BEGIN ATOM
M  V30 1 N 4.03034 -0.601163 -2.42893 0
M  V30 2 N 2.73553 -0.606744 -1.88463 0
M  V30 3 C 2.43114 0.251687 -0.977162 0
M  V30 4 C 1.05966 0.216764 -0.426943 0
M  V30 5 C 0.0253857 -0.614986 -0.742267 0
M  V30 6 C -1.13936 -0.429768 -0.0799868 0
M  V30 7 C -1.17711 0.574743 0.846371 0
M  V30 8 S 0.392958 1.2284 0.773242 0
M  V30 9 C -2.35326 0.930394 1.65451 0
M  V30 10 C -3.10948 -0.139863 2.31326 0
M  V30 11 S -2.84242 -1.69802 1.4514 0
M  V30 12 C -2.42701 -1.24157 -0.254406 0
M  V30 13 N 3.36135 1.22267 -0.491463 0
M  V30 14 H 4.80605 -1.18053 -2.0225 0
M  V30 15 H 4.19653 0.00237354 -3.25657 0
M  V30 16 H 0.199183 -1.39597 -1.52433 0
M  V30 17 H -2.06666 1.7002 2.42448 0
M  V30 18 H -3.07027 1.49665 0.985932 0
M  V30 19 H -2.78719 -0.201802 3.38154 0
M  V30 20 H -4.22187 0.0327092 2.31024 0
M  V30 21 H -2.26155 -2.15978 -0.80066 0
M  V30 22 H -3.22061 -0.585861 -0.620641 0
M  V30 23 H 3.66161 1.26821 0.506667 0
M  V30 24 H 3.77705 1.93127 -1.13715 0
M  V30 END ATOM
M  V30 BEGIN BOND
M  V30 1 1 1 2
M  V30 2 2 2 3 CFG=2
M  V30 3 1 3 4
M  V30 4 2 4 5
M  V30 5 1 5 6
M  V30 6 2 6 7
M  V30 7 1 7 8
M  V30 8 1 7 9
M  V30 9 1 9 10
M  V30 10 1 10 11
M  V30 11 1 11 12
M  V30 12 1 3 13
M  V30 13 1 8 4
M  V30 14 1 12 6
M  V30 15 1 1 14
M  V30 16 1 1 15
M  V30 17 1 5 16
M  V30 18 1 9 17
M  V30 19 1 9 18
M  V30 20 1 10 19
M  V30 21 1 10 20
M  V30 22 1 12 21
M  V30 23 1 12 22
M  V30 24 1 13 23
M  V30 25 1 13 24
M  V30 END BOND
M  V30 END CTAB
M  END
