
     RDKit          3D

  0  0  0  0  0  0  0  0  0  0999 V3000
M  V30 BEGIN CTAB
M  V30 COUNTS 42 44 0 0 0
M  V30 BEGIN ATOM
M  V30 1 N -2.19342 -0.779046 3.64488 0
M  V30 2 C -1.2826 -0.60962 2.92274 0
M  V30 3 C -0.169859 -0.43068 2.03913 0
M  V30 4 C 1.10089 -0.598749 2.60185 0
M  V30 5 N 1.23869 -0.914506 3.97692 0
M  V30 6 N 2.17606 -0.452774 1.80527 0
M  V30 7 C 2.07718 -0.155284 0.505417 0
M  V30 8 C 0.833277 0.0110972 -0.0525791 0
M  V30 9 C -0.323862 -0.125019 0.713121 0
M  V30 10 C -1.6422 0.0608229 0.139274 0
M  V30 11 C -1.97552 -0.616679 -1.03974 0
M  V30 12 C -3.20165 -0.461278 -1.61892 0
M  V30 13 C -3.56181 -1.18133 -2.87577 0
M  V30 14 C -4.14489 0.370542 -1.05353 0
M  V30 15 C -3.82364 1.03894 0.104364 0
M  V30 16 C -2.58158 0.882763 0.692526 0
M  V30 17 C -4.82008 1.93791 0.730306 0
M  V30 18 O -5.37568 0.504419 -1.66596 0
M  V30 19 C 3.24525 0.00228953 -0.356486 0
M  V30 20 S 3.30007 0.377662 -2.02172 0
M  V30 21 C 4.99441 0.371542 -2.23584 0
M  V30 22 N 5.42687 0.0819402 -1.01866 0
M  V30 23 C 4.58184 -0.108024 -0.0596203 0
M  V30 24 C 5.01038 -0.442547 1.35634 0
M  V30 25 N 5.77598 0.616506 -3.42866 0
M  V30 26 H 2.02432 -0.534032 4.52209 0
M  V30 27 H 0.556161 -1.53658 4.47849 0
M  V30 28 H 0.669665 0.252929 -1.0974 0
M  V30 29 H -1.22333 -1.26483 -1.46906 0
M  V30 30 H -4.34909 -1.91603 -2.60875 0
M  V30 31 H -2.67679 -1.72675 -3.21891 0
M  V30 32 H -3.96214 -0.481701 -3.63869 0
M  V30 33 H -2.36762 1.42979 1.59421 0
M  V30 34 H -5.37107 1.3954 1.52532 0
M  V30 35 H -5.4858 2.30755 -0.076358 0
M  V30 36 H -4.31839 2.84934 1.1451 0
M  V30 37 H -5.58012 0.0114295 -2.49873 0
M  V30 38 H 6.09195 -0.456107 1.47732 0
M  V30 39 H 4.59712 -1.39518 1.68725 0
M  V30 40 H 4.6262 0.358031 2.04931 0
M  V30 41 H 5.85847 1.55438 -3.84078 0
M  V30 42 H 6.24636 -0.228524 -3.83506 0
M  V30 END ATOM
M  V30 BEGIN BOND
M  V30 1 3 1 2
M  V30 2 1 2 3
M  V30 3 2 3 4
M  V30 4 1 4 5
M  V30 5 1 4 6
M  V30 6 2 6 7
M  V30 7 1 7 8
M  V30 8 2 8 9
M  V30 9 1 9 10
M  V30 10 2 10 11
M  V30 11 1 11 12
M  V30 12 1 12 13
M  V30 13 2 12 14
M  V30 14 1 14 15
M  V30 15 2 15 16
M  V30 16 1 15 17
M  V30 17 1 14 18
M  V30 18 1 7 19
M  V30 19 1 19 20
M  V30 20 1 20 21
M  V30 21 2 21 22
M  V30 22 1 22 23
M  V30 23 1 23 24
M  V30 24 1 21 25
M  V30 25 1 9 3
M  V30 26 1 16 10
M  V30 27 2 23 19
M  V30 28 1 5 26
M  V30 29 1 5 27
M  V30 30 1 8 28
M  V30 31 1 11 29
M  V30 32 1 13 30
M  V30 33 1 13 31
M  V30 34 1 13 32
M  V30 35 1 16 33
M  V30 36 1 17 34
M  V30 37 1 17 35
M  V30 38 1 17 36
M  V30 39 1 18 37
M  V30 40 1 24 38
M  V30 41 1 24 39
M  V30 42 1 24 40
M  V30 43 1 25 41
M  V30 44 1 25 42
M  V30 END BOND
M  V30 END CTAB
M  END
