
     RDKit          3D

  0  0  0  0  0  0  0  0  0  0999 V3000
M  V30 BEGIN CTAB
M  V30 COUNTS 28 28 0 0 0
M  V30 BEGIN ATOM
M  V30 1 N -3.23633 -1.43686 -0.367491 0
M  V30 2 C -2.03837 -0.619718 -0.643767 0
M  V30 3 C -1.79663 0.348878 0.465541 0
M  V30 4 C -0.681642 1.3071 0.267071 0
M  V30 5 C 0.656074 0.737942 0.0943078 0
M  V30 6 N 1.07513 -0.530451 0.107381 0
M  V30 7 N 2.37778 -0.575319 -0.0925309 0
M  V30 8 C 2.81723 0.685199 -0.238693 0
M  V30 9 N 1.77151 1.48189 -0.125152 0
M  V30 10 N 4.18207 1.04613 -0.473333 0
M  V30 11 C 3.23697 -1.75952 -0.153145 0
M  V30 12 O -1.59135 -0.368409 1.66229 0
M  V30 13 C -3.05389 1.20242 0.729365 0
M  V30 14 H -4.09348 -0.97563 -0.772168 0
M  V30 15 H -3.10219 -2.30832 -0.93683 0
M  V30 16 H -1.17889 -1.31138 -0.713024 0
M  V30 17 H -2.24607 -0.129562 -1.60979 0
M  V30 18 H -0.674466 1.97028 1.18598 0
M  V30 19 H -0.8803 1.99806 -0.592236 0
M  V30 20 H 4.98611 0.460953 -0.158725 0
M  V30 21 H 4.37947 1.942 -0.986121 0
M  V30 22 H 3.1125 -2.24677 -1.13443 0
M  V30 23 H 2.95346 -2.49507 0.628843 0
M  V30 24 H 4.27737 -1.45793 0.0698166 0
M  V30 25 H -1.16096 -1.24407 1.42591 0
M  V30 26 H -3.95945 0.683743 0.407412 0
M  V30 27 H -2.98537 2.15391 0.159723 0
M  V30 28 H -3.14628 1.44049 1.7938 0
M  V30 END ATOM
M  V30 BEGIN BOND
M  V30 1 1 1 2
M  V30 2 1 2 3
M  V30 3 1 3 4
M  V30 4 1 4 5
M  V30 5 2 5 6
M  V30 6 1 6 7
M  V30 7 1 7 8
M  V30 8 2 8 9
M  V30 9 1 8 10
M  V30 10 1 7 11
M  V30 11 1 3 12
M  V30 12 1 3 13
M  V30 13 1 9 5
M  V30 14 1 1 14
M  V30 15 1 1 15
M  V30 16 1 2 16
M  V30 17 1 2 17
M  V30 18 1 4 18
M  V30 19 1 4 19
M  V30 20 1 10 20
M  V30 21 1 10 21
M  V30 22 1 11 22
M  V30 23 1 11 23
M  V30 24 1 11 24
M  V30 25 1 12 25
M  V30 26 1 13 26
M  V30 27 1 13 27
M  V30 28 1 13 28
M  V30 END BOND
M  V30 END CTAB
M  END
