
     RDKit          3D

  0  0  0  0  0  0  0  0  0  0999 V3000
M  V30 BEGIN CTAB
M  V30 COUNTS 26 25 0 0 0
M  V30 BEGIN ATOM
M  V30 1 N -4.44329 0.733033 -0.631152 0
M  V30 2 C -3.66084 0.617769 0.54171 0
M  V30 3 S -4.12922 1.33309 1.92148 0
M  V30 4 N -2.45706 -0.120876 0.541162 0
M  V30 5 C -2.06025 -0.756276 -0.692865 0
M  V30 6 C -0.646646 -1.31725 -0.586469 0
M  V30 7 C 0.302088 -0.16324 -0.292713 0
M  V30 8 C 1.73079 -0.626075 -0.200038 0
M  V30 9 N 2.62371 0.473539 0.0691252 0
M  V30 10 C 4.00707 0.289554 0.109194 0
M  V30 11 N 4.86127 1.39288 0.365283 0
M  V30 12 S 4.64328 -1.192 -0.129473 0
M  V30 13 H -4.71609 -0.0500058 -1.26607 0
M  V30 14 H -4.80234 1.68547 -0.941694 0
M  V30 15 H -1.84228 -0.237469 1.37274 0
M  V30 16 H -2.05857 -0.0467838 -1.53972 0
M  V30 17 H -2.80703 -1.57665 -0.880783 0
M  V30 18 H -0.570391 -2.11199 0.153981 0
M  V30 19 H -0.432178 -1.74869 -1.58818 0
M  V30 20 H 0.127232 0.60312 -1.07284 0
M  V30 21 H -0.0175933 0.331349 0.661821 0
M  V30 22 H 1.79479 -1.43482 0.534002 0
M  V30 23 H 2.04479 -1.08799 -1.17405 0
M  V30 24 H 2.2339 1.43841 0.248455 0
M  V30 25 H 5.46182 1.3874 1.18852 0
M  V30 26 H 4.81304 2.1845 -0.323307 0
M  V30 END ATOM
M  V30 BEGIN BOND
M  V30 1 1 1 2
M  V30 2 2 2 3
M  V30 3 1 2 4
M  V30 4 1 4 5
M  V30 5 1 5 6
M  V30 6 1 6 7
M  V30 7 1 7 8
M  V30 8 1 8 9
M  V30 9 1 9 10
M  V30 10 1 10 11
M  V30 11 2 10 12
M  V30 12 1 1 13
M  V30 13 1 1 14
M  V30 14 1 4 15
M  V30 15 1 5 16
M  V30 16 1 5 17
M  V30 17 1 6 18
M  V30 18 1 6 19
M  V30 19 1 7 20
M  V30 20 1 7 21
M  V30 21 1 8 22
M  V30 22 1 8 23
M  V30 23 1 9 24
M  V30 24 1 11 25
M  V30 25 1 11 26
M  V30 END BOND
M  V30 END CTAB
M  END
