
     RDKit          3D

  0  0  0  0  0  0  0  0  0  0999 V3000
M  V30 BEGIN CTAB
M  V30 COUNTS 25 25 0 0 0
M  V30 BEGIN ATOM
M  V30 1 C -2.17572 0.550323 -1.07121 0
M  V30 2 C -2.08556 -0.152231 0.27063 0
M  V30 3 N -0.925119 -1.01556 0.239569 0
M  V30 4 C 0.3911 -0.528682 0.0297174 0
M  V30 5 N 0.633393 0.78166 -0.154314 0
M  V30 6 C 1.87075 1.2904 -0.357705 0
M  V30 7 N 2.10372 2.67225 -0.549153 0
M  V30 8 N 2.88652 0.392345 -0.367968 0
M  V30 9 C 2.69385 -0.925617 -0.188757 0
M  V30 10 C 1.42635 -1.43384 0.0180536 0
M  V30 11 N 1.2325 -2.82934 0.206663 0
M  V30 12 Cl 4.04227 -2.0512 -0.210371 0
M  V30 13 C -2.0034 0.897603 1.34635 0
M  V30 14 H -1.36325 0.206025 -1.76951 0
M  V30 15 H -3.18076 0.312616 -1.49344 0
M  V30 16 H -2.07826 1.64153 -0.981439 0
M  V30 17 H -2.97902 -0.769792 0.477714 0
M  V30 18 H -1.05409 -2.03831 0.376159 0
M  V30 19 H 1.6352 3.35082 0.069862 0
M  V30 20 H 2.73146 3.01083 -1.29407 0
M  V30 21 H 1.08276 -3.28551 1.12297 0
M  V30 22 H 1.23806 -3.46261 -0.633349 0
M  V30 23 H -1.63275 0.408568 2.26795 0
M  V30 24 H -3.06797 1.19647 1.57668 0
M  V30 25 H -1.42203 1.78126 1.06898 0
M  V30 END ATOM
M  V30 BEGIN BOND
M  V30 1 1 1 2
M  V30 2 1 2 3
M  V30 3 1 3 4
M  V30 4 2 4 5
M  V30 5 1 5 6
M  V30 6 1 6 7
M  V30 7 2 6 8
M  V30 8 1 8 9
M  V30 9 2 9 10
M  V30 10 1 10 11
M  V30 11 1 9 12
M  V30 12 1 2 13
M  V30 13 1 10 4
M  V30 14 1 1 14
M  V30 15 1 1 15
M  V30 16 1 1 16
M  V30 17 1 2 17
M  V30 18 1 3 18
M  V30 19 1 7 19
M  V30 20 1 7 20
M  V30 21 1 11 21
M  V30 22 1 11 22
M  V30 23 1 13 23
M  V30 24 1 13 24
M  V30 25 1 13 25
M  V30 END BOND
M  V30 END CTAB
M  END
