
     RDKit          3D

  0  0  0  0  0  0  0  0  0  0999 V3000
M  V30 BEGIN CTAB
M  V30 COUNTS 34 34 0 0 0
M  V30 BEGIN ATOM
M  V30 1 C 4.43456 0.811149 0.463444 0
M  V30 2 O 3.12618 0.291367 0.263892 0
M  V30 3 C 2.71954 -0.922258 0.780615 0
M  V30 4 O 3.55055 -1.58406 1.45303 0
M  V30 5 C 1.3758 -1.47444 0.585728 0
M  V30 6 C 0.472924 -0.60819 -0.224029 0
M  V30 7 N 1.01941 -0.381454 -1.5666 0
M  V30 8 C -0.828224 -1.39594 -0.43661 0
M  V30 9 C -1.79606 -0.919443 0.655508 0
M  V30 10 C -2.30567 0.432082 0.1734 0
M  V30 11 C -1.12054 1.24358 -0.229732 0
M  V30 12 C 0.183063 0.727059 0.366036 0
M  V30 13 C -3.18974 1.10862 1.16547 0
M  V30 14 N -3.10418 0.151504 -1.02426 0
M  V30 15 H 4.74058 0.559679 1.49929 0
M  V30 16 H 4.46352 1.89527 0.308261 0
M  V30 17 H 5.16816 0.290714 -0.20872 0
M  V30 18 H 1.39656 -2.48127 0.103307 0
M  V30 19 H 0.897642 -1.63157 1.57559 0
M  V30 20 H 1.49627 0.524286 -1.57776 0
M  V30 21 H 1.60922 -1.19571 -1.83069 0
M  V30 22 H -0.660954 -2.48255 -0.325738 0
M  V30 23 H -1.2941 -1.11477 -1.38855 0
M  V30 24 H -1.25844 -0.813076 1.62376 0
M  V30 25 H -2.6139 -1.63444 0.817136 0
M  V30 26 H -1.30772 2.29551 0.0618173 0
M  V30 27 H -0.976883 1.23723 -1.33395 0
M  V30 28 H 0.965814 1.4542 0.037664 0
M  V30 29 H 0.177603 0.75412 1.46771 0
M  V30 30 H -2.55377 1.74933 1.81625 0
M  V30 31 H -3.79608 0.402762 1.76071 0
M  V30 32 H -3.84328 1.83552 0.599004 0
M  V30 33 H -3.09545 1.04284 -1.58126 0
M  V30 34 H -4.0524 -0.167662 -0.808128 0
M  V30 END ATOM
M  V30 BEGIN BOND
M  V30 1 1 1 2
M  V30 2 1 2 3
M  V30 3 2 3 4
M  V30 4 1 3 5
M  V30 5 1 5 6
M  V30 6 1 6 7
M  V30 7 1 6 8
M  V30 8 1 8 9
M  V30 9 1 9 10
M  V30 10 1 10 11
M  V30 11 1 11 12
M  V30 12 1 10 13
M  V30 13 1 10 14
M  V30 14 1 12 6
M  V30 15 1 1 15
M  V30 16 1 1 16
M  V30 17 1 1 17
M  V30 18 1 5 18
M  V30 19 1 5 19
M  V30 20 1 7 20
M  V30 21 1 7 21
M  V30 22 1 8 22
M  V30 23 1 8 23
M  V30 24 1 9 24
M  V30 25 1 9 25
M  V30 26 1 11 26
M  V30 27 1 11 27
M  V30 28 1 12 28
M  V30 29 1 12 29
M  V30 30 1 13 30
M  V30 31 1 13 31
M  V30 32 1 13 32
M  V30 33 1 14 33
M  V30 34 1 14 34
M  V30 END BOND
M  V30 END CTAB
M  END
