
     RDKit          3D

  0  0  0  0  0  0  0  0  0  0999 V3000
M  V30 BEGIN CTAB
M  V30 COUNTS 58 62 0 0 0
M  V30 BEGIN ATOM
M  V30 1 N 3.75163 -0.877273 5.08657 0
M  V30 2 C 3.5372 -0.761813 3.69126 0
M  V30 3 N 4.52509 -0.919979 2.79452 0
M  V30 4 C 4.36484 -0.819813 1.48067 0
M  V30 5 N 3.10644 -0.537277 1.03536 0
M  V30 6 C 2.06579 -0.364943 1.86786 0
M  V30 7 N 0.760023 -0.0710392 1.39469 0
M  V30 8 C 0.50782 0.0539173 -0.0275205 0
M  V30 9 C -0.923241 0.359978 -0.224605 0
M  V30 10 C -1.80739 -0.673119 -0.369267 0
M  V30 11 C -3.15057 -0.382778 -0.553984 0
M  V30 12 C -3.60589 0.903156 -0.593977 0
M  V30 13 C -2.67509 1.92562 -0.443045 0
M  V30 14 C -1.33841 1.68868 -0.258352 0
M  V30 15 C -5.01987 1.28126 -0.775832 0
M  V30 16 O -5.2361 2.42892 -1.15267 0
M  V30 17 N -6.00797 0.328268 -0.512304 0
M  V30 18 C -7.42304 0.470317 -0.62029 0
M  V30 19 C -8.25126 -0.609621 -0.309265 0
M  V30 20 N -7.6372 -1.81491 0.105317 0
M  V30 21 C -9.60288 -0.498507 -0.40437 0
M  V30 22 C -10.2188 0.652178 -0.801596 0
M  V30 23 C -9.42376 1.72943 -1.11323 0
M  V30 24 C -8.04137 1.63048 -1.02067 0
M  V30 25 N 2.30626 -0.48174 3.18301 0
M  V30 26 N 5.42226 -0.990934 0.556762 0
M  V30 27 C 6.79395 -1.28907 0.863143 0
M  V30 28 C 7.53189 -0.517134 -0.162921 0
M  V30 29 C 8.84382 -0.0554915 -0.199591 0
M  V30 30 C 9.27852 0.649204 -1.30145 0
M  V30 31 C 8.42903 0.898551 -2.36058 0
M  V30 32 C 7.12716 0.421055 -2.28576 0
M  V30 33 C 6.65977 -0.285174 -1.20256 0
M  V30 34 C 5.32198 -0.897712 -0.879113 0
M  V30 35 H 4.70491 -0.821832 5.47827 0
M  V30 36 H 2.94232 -1.01797 5.71087 0
M  V30 37 H 0.00271108 0.0495439 2.09302 0
M  V30 38 H 0.725285 -0.908089 -0.517563 0
M  V30 39 H 1.15516 0.827506 -0.496108 0
M  V30 40 H -1.48431 -1.69599 -0.342841 0
M  V30 41 H -3.87136 -1.18827 -0.676249 0
M  V30 42 H -3.01446 2.97239 -0.471367 0
M  V30 43 H -0.598994 2.47274 -0.138962 0
M  V30 44 H -5.70907 -0.653963 -0.177191 0
M  V30 45 H -7.45607 -2.59015 -0.567748 0
M  V30 46 H -7.34937 -1.959 1.09713 0
M  V30 47 H -10.2427 -1.34323 -0.160731 0
M  V30 48 H -11.302 0.700796 -0.864819 0
M  V30 49 H -9.87859 2.66768 -1.43502 0
M  V30 50 H -7.46389 2.52133 -1.28197 0
M  V30 51 H 6.96015 -2.36964 0.666996 0
M  V30 52 H 7.08066 -1.00125 1.89464 0
M  V30 53 H 9.54757 -0.221973 0.598603 0
M  V30 54 H 10.298 1.02958 -1.37265 0
M  V30 55 H 8.79682 1.45406 -3.21249 0
M  V30 56 H 6.4657 0.618455 -3.1169 0
M  V30 57 H 4.50452 -0.213281 -1.20623 0
M  V30 58 H 5.21635 -1.90211 -1.32029 0
M  V30 END ATOM
M  V30 BEGIN BOND
M  V30 1 1 1 2
M  V30 2 2 2 3
M  V30 3 1 3 4
M  V30 4 2 4 5
M  V30 5 1 5 6
M  V30 6 1 6 7
M  V30 7 1 7 8
M  V30 8 1 8 9
M  V30 9 2 9 10
M  V30 10 1 10 11
M  V30 11 2 11 12
M  V30 12 1 12 13
M  V30 13 2 13 14
M  V30 14 1 12 15
M  V30 15 2 15 16
M  V30 16 1 15 17
M  V30 17 1 17 18
M  V30 18 2 18 19
M  V30 19 1 19 20
M  V30 20 1 19 21
M  V30 21 2 21 22
M  V30 22 1 22 23
M  V30 23 2 23 24
M  V30 24 2 6 25
M  V30 25 1 4 26
M  V30 26 1 26 27
M  V30 27 1 27 28
M  V30 28 2 28 29
M  V30 29 1 29 30
M  V30 30 2 30 31
M  V30 31 1 31 32
M  V30 32 2 32 33
M  V30 33 1 33 34
M  V30 34 1 25 2
M  V30 35 1 34 26
M  V30 36 1 14 9
M  V30 37 1 24 18
M  V30 38 1 33 28
M  V30 39 1 1 35
M  V30 40 1 1 36
M  V30 41 1 7 37
M  V30 42 1 8 38
M  V30 43 1 8 39
M  V30 44 1 10 40
M  V30 45 1 11 41
M  V30 46 1 13 42
M  V30 47 1 14 43
M  V30 48 1 17 44
M  V30 49 1 20 45
M  V30 50 1 20 46
M  V30 51 1 21 47
M  V30 52 1 22 48
M  V30 53 1 23 49
M  V30 54 1 24 50
M  V30 55 1 27 51
M  V30 56 1 27 52
M  V30 57 1 29 53
M  V30 58 1 30 54
M  V30 59 1 31 55
M  V30 60 1 32 56
M  V30 61 1 34 57
M  V30 62 1 34 58
M  V30 END BOND
M  V30 END CTAB
M  END
