
     RDKit          3D

  0  0  0  0  0  0  0  0  0  0999 V3000
M  V30 BEGIN CTAB
M  V30 COUNTS 44 46 0 0 0
M  V30 BEGIN ATOM
M  V30 1 C -5.91966 2.17689 0.403135 0
M  V30 2 C -5.30194 1.00301 1.10615 0
M  V30 3 C -5.29333 -0.247827 0.297134 0
M  V30 4 C -4.5441 -0.161445 -0.989371 0
M  V30 5 C -3.10868 0.171435 -0.821524 0
M  V30 6 N -2.57395 1.40417 -0.799884 0
M  V30 7 C -1.25252 1.23789 -0.627576 0
M  V30 8 C -0.942257 -0.125906 -0.538129 0
M  V30 9 N -2.12861 -0.736895 -0.664705 0
M  V30 10 C 0.379552 -0.696999 -0.350803 0
M  V30 11 C 1.50559 0.090094 -0.238277 0
M  V30 12 C 2.75039 -0.499637 -0.0599384 0
M  V30 13 N 2.9021 -1.82216 0.00800845 0
M  V30 14 C 1.81763 -2.62361 -0.0987608 0
M  V30 15 C 0.554575 -2.056 -0.278576 0
M  V30 16 C -0.529004 -2.98037 -0.380689 0
M  V30 17 N -1.39852 -3.75037 -0.461631 0
M  V30 18 N 2.01519 -4.02666 -0.0220691 0
M  V30 19 C 3.9299 0.348511 0.0570149 0
M  V30 20 S 4.04311 2.07342 0.00728759 0
M  V30 21 C 5.72974 2.22307 0.213914 0
M  V30 22 N 6.11329 0.962937 0.308898 0
M  V30 23 C 5.24165 0.00407569 0.234808 0
M  V30 24 C 5.64547 -1.45702 0.339784 0
M  V30 25 N 6.54818 3.41517 0.272668 0
M  V30 26 H -5.568 2.27184 -0.655537 0
M  V30 27 H -5.51638 3.09879 0.913736 0
M  V30 28 H -7.01739 2.20476 0.460252 0
M  V30 29 H -4.28097 1.26725 1.44968 0
M  V30 30 H -5.89577 0.815179 2.02099 0
M  V30 31 H -4.84915 -1.05231 0.916952 0
M  V30 32 H -6.32559 -0.558974 0.0720981 0
M  V30 33 H -4.66907 -1.14427 -1.50987 0
M  V30 34 H -5.02407 0.583563 -1.67204 0
M  V30 35 H -3.0578 2.34373 -0.895689 0
M  V30 36 H -0.543656 2.04631 -0.568336 0
M  V30 37 H 1.45786 1.15098 -0.28348 0
M  V30 38 H 1.87597 -4.61998 -0.863524 0
M  V30 39 H 2.29796 -4.43871 0.882134 0
M  V30 40 H 6.73746 -1.56433 0.509902 0
M  V30 41 H 5.17187 -1.94009 1.21697 0
M  V30 42 H 5.39962 -1.99188 -0.59518 0
M  V30 43 H 7.48797 3.31266 0.683593 0
M  V30 44 H 6.13532 4.28972 -0.101495 0
M  V30 END ATOM
M  V30 BEGIN BOND
M  V30 1 1 1 2
M  V30 2 1 2 3
M  V30 3 1 3 4
M  V30 4 1 4 5
M  V30 5 1 5 6
M  V30 6 1 6 7
M  V30 7 2 7 8
M  V30 8 1 8 9
M  V30 9 1 8 10
M  V30 10 2 10 11
M  V30 11 1 11 12
M  V30 12 2 12 13
M  V30 13 1 13 14
M  V30 14 2 14 15
M  V30 15 1 15 16
M  V30 16 3 16 17
M  V30 17 1 14 18
M  V30 18 1 12 19
M  V30 19 1 19 20
M  V30 20 1 20 21
M  V30 21 2 21 22
M  V30 22 1 22 23
M  V30 23 1 23 24
M  V30 24 1 21 25
M  V30 25 2 9 5
M  V30 26 1 15 10
M  V30 27 2 23 19
M  V30 28 1 1 26
M  V30 29 1 1 27
M  V30 30 1 1 28
M  V30 31 1 2 29
M  V30 32 1 2 30
M  V30 33 1 3 31
M  V30 34 1 3 32
M  V30 35 1 4 33
M  V30 36 1 4 34
M  V30 37 1 6 35
M  V30 38 1 7 36
M  V30 39 1 11 37
M  V30 40 1 18 38
M  V30 41 1 18 39
M  V30 42 1 24 40
M  V30 43 1 24 41
M  V30 44 1 24 42
M  V30 45 1 25 43
M  V30 46 1 25 44
M  V30 END BOND
M  V30 END CTAB
M  END
