
     RDKit          3D

  0  0  0  0  0  0  0  0  0  0999 V3000
M  V30 BEGIN CTAB
M  V30 COUNTS 50 53 0 0 0
M  V30 BEGIN ATOM
M  V30 1 N -2.14073 -1.87988 -1.24049 0
M  V30 2 C -3.18374 -1.11153 -0.635593 0
M  V30 3 C -2.98053 0.342089 -0.976446 0
M  V30 4 C -4.16818 1.09001 -0.479973 0
M  V30 5 C -4.59535 0.816949 0.907388 0
M  V30 6 C -4.03861 -0.350241 1.60066 0
M  V30 7 C -3.10151 -1.22329 0.863723 0
M  V30 8 C -1.63447 -0.937045 1.2275 0
M  V30 9 C -1.34443 0.484568 0.916487 0
M  V30 10 C -1.65297 0.877064 -0.503592 0
M  V30 11 C 0.0343378 0.83436 1.27709 0
M  V30 12 O 0.118586 1.58663 2.33723 0
M  V30 13 N 1.23353 0.471042 0.647072 0
M  V30 14 C 2.54845 0.903753 1.18594 0
M  V30 15 C 3.5131 -0.133331 0.711192 0
M  V30 16 C 2.83719 -0.90793 -0.375396 0
M  V30 17 C 1.45913 -0.289585 -0.533373 0
M  V30 18 C 3.70104 -0.674066 -1.58108 0
M  V30 19 C 5.08475 -0.581244 -0.965475 0
M  V30 20 C 4.79479 0.403671 0.177653 0
M  V30 21 N 4.69315 1.70585 -0.420546 0
M  V30 22 H -2.04261 -2.84071 -0.901559 0
M  V30 23 H -2.22071 -1.8035 -2.27991 0
M  V30 24 H -4.19769 -1.38608 -0.992118 0
M  V30 25 H -2.97921 0.405707 -2.10012 0
M  V30 26 H -3.97617 2.19421 -0.632784 0
M  V30 27 H -4.99918 0.877099 -1.21713 0
M  V30 28 H -4.44812 1.75979 1.51612 0
M  V30 29 H -5.72355 0.71859 0.901935 0
M  V30 30 H -3.49608 0.00151741 2.52954 0
M  V30 31 H -4.84782 -1.01315 2.03074 0
M  V30 32 H -3.24613 -2.2989 1.11236 0
M  V30 33 H -1.59987 -1.03486 2.3462 0
M  V30 34 H -1.00322 -1.63808 0.717998 0
M  V30 35 H -2.03154 1.08113 1.60872 0
M  V30 36 H -0.871919 0.618804 -1.19948 0
M  V30 37 H -1.74988 2.00193 -0.500056 0
M  V30 38 H 2.75422 1.9199 0.864793 0
M  V30 39 H 2.49156 0.835262 2.28905 0
M  V30 40 H 3.75814 -0.868762 1.53002 0
M  V30 41 H 2.79076 -1.99245 -0.184861 0
M  V30 42 H 1.49221 0.339075 -1.46098 0
M  V30 43 H 0.747397 -1.11465 -0.633398 0
M  V30 44 H 3.47628 0.346387 -2.00349 0
M  V30 45 H 3.62937 -1.46774 -2.34415 0
M  V30 46 H 5.83173 -0.184679 -1.66333 0
M  V30 47 H 5.3663 -1.57264 -0.558379 0
M  V30 48 H 5.63295 0.345326 0.909341 0
M  V30 49 H 4.68624 2.47613 0.304566 0
M  V30 50 H 5.59904 1.86751 -0.953059 0
M  V30 END ATOM
M  V30 BEGIN BOND
M  V30 1 1 1 2
M  V30 2 1 2 3
M  V30 3 1 3 4
M  V30 4 1 4 5
M  V30 5 1 5 6
M  V30 6 1 6 7
M  V30 7 1 7 8
M  V30 8 1 8 9
M  V30 9 1 9 10
M  V30 10 1 9 11
M  V30 11 2 11 12
M  V30 12 1 11 13
M  V30 13 1 13 14
M  V30 14 1 14 15
M  V30 15 1 15 16
M  V30 16 1 16 17
M  V30 17 1 16 18
M  V30 18 1 18 19
M  V30 19 1 19 20
M  V30 20 1 20 21
M  V30 21 1 7 2
M  V30 22 1 17 13
M  V30 23 1 10 3
M  V30 24 1 20 15
M  V30 25 1 1 22
M  V30 26 1 1 23
M  V30 27 1 2 24
M  V30 28 1 3 25
M  V30 29 1 4 26
M  V30 30 1 4 27
M  V30 31 1 5 28
M  V30 32 1 5 29
M  V30 33 1 6 30
M  V30 34 1 6 31
M  V30 35 1 7 32
M  V30 36 1 8 33
M  V30 37 1 8 34
M  V30 38 1 9 35
M  V30 39 1 10 36
M  V30 40 1 10 37
M  V30 41 1 14 38
M  V30 42 1 14 39
M  V30 43 1 15 40
M  V30 44 1 16 41
M  V30 45 1 17 42
M  V30 46 1 17 43
M  V30 47 1 18 44
M  V30 48 1 18 45
M  V30 49 1 19 46
M  V30 50 1 19 47
M  V30 51 1 20 48
M  V30 52 1 21 49
M  V30 53 1 21 50
M  V30 END BOND
M  V30 END CTAB
M  END
