
     RDKit          3D

  0  0  0  0  0  0  0  0  0  0999 V3000
M  V30 BEGIN CTAB
M  V30 COUNTS 29 28 0 0 0
M  V30 BEGIN ATOM
M  V30 1 C -3.45701 1.43956 0.0565049 0
M  V30 2 C -3.75387 0.0229999 0.371932 0
M  V30 3 C -2.76901 -1.01022 -0.0011535 0
M  V30 4 C -1.45409 -0.92477 0.639986 0
M  V30 5 S -0.4817 0.571644 0.427658 0
M  V30 6 C 1.21915 0.197706 0.894839 0
M  V30 7 C 2.20701 0.613449 -0.179207 0
M  V30 8 C 3.57177 0.220041 0.317874 0
M  V30 9 O 3.74504 -0.1194 1.51371 0
M  V30 10 N 4.70735 0.223843 -0.549046 0
M  V30 11 N 5.94045 -0.150306 -0.0492075 0
M  V30 12 F 1.93281 0.275353 -1.44187 0
M  V30 13 F 2.21114 2.03802 -0.0754599 0
M  V30 14 N -2.6931 -1.22124 -1.44098 0
M  V30 15 H -4.39782 1.8871 -0.419758 0
M  V30 16 H -3.33637 2.03507 1.00469 0
M  V30 17 H -2.6094 1.64548 -0.601026 0
M  V30 18 H -3.94448 -0.101855 1.48823 0
M  V30 19 H -4.76001 -0.285503 -0.066999 0
M  V30 20 H -3.21765 -2.01215 0.393786 0
M  V30 21 H -0.76333 -1.78177 0.337908 0
M  V30 22 H -1.52416 -1.09713 1.77185 0
M  V30 23 H 1.42174 0.592954 1.8751 0
M  V30 24 H 1.26327 -0.936115 1.01582 0
M  V30 25 H 4.62424 0.493409 -1.55914 0
M  V30 26 H 6.6784 0.417844 -0.516069 0
M  V30 27 H 6.02986 -0.157241 0.980958 0
M  V30 28 H -2.90554 -2.20856 -1.70564 0
M  V30 29 H -3.48468 -0.668211 -1.83891 0
M  V30 END ATOM
M  V30 BEGIN BOND
M  V30 1 1 1 2
M  V30 2 1 2 3
M  V30 3 1 3 4
M  V30 4 1 4 5
M  V30 5 1 5 6
M  V30 6 1 6 7
M  V30 7 1 7 8
M  V30 8 2 8 9
M  V30 9 1 8 10
M  V30 10 1 10 11
M  V30 11 1 7 12
M  V30 12 1 7 13
M  V30 13 1 3 14
M  V30 14 1 1 15
M  V30 15 1 1 16
M  V30 16 1 1 17
M  V30 17 1 2 18
M  V30 18 1 2 19
M  V30 19 1 3 20
M  V30 20 1 4 21
M  V30 21 1 4 22
M  V30 22 1 6 23
M  V30 23 1 6 24
M  V30 24 1 10 25
M  V30 25 1 11 26
M  V30 26 1 11 27
M  V30 27 1 14 28
M  V30 28 1 14 29
M  V30 END BOND
M  V30 END CTAB
M  END
