
     RDKit          3D

  0  0  0  0  0  0  0  0  0  0999 V3000
M  V30 BEGIN CTAB
M  V30 COUNTS 38 40 0 0 0
M  V30 BEGIN ATOM
M  V30 1 N -5.42081 -0.169418 0.412095 0
M  V30 2 C -4.81715 0.896192 -0.333434 0 CFG=2
M  V30 3 C -3.90399 0.441259 -1.43713 0
M  V30 4 C -2.70554 0.980932 -0.699198 0 CFG=1
M  V30 5 C -3.66846 1.60834 0.302935 0
M  V30 6 C -1.86928 -0.0504837 -0.0359334 0
M  V30 7 C -0.49862 -0.030066 -0.181631 0
M  V30 8 C 0.306045 -0.99429 0.436287 0
M  V30 9 N 1.70719 -0.975086 0.288534 0
M  V30 10 C 2.31291 0.0537564 -0.510832 0
M  V30 11 C 3.77601 -0.0471532 -0.578072 0
M  V30 12 N 4.52014 -0.707386 -1.45377 0
M  V30 13 O 5.77413 -0.540424 -1.16113 0
M  V30 14 C 5.91936 0.220127 -0.102878 0
M  V30 15 C 4.63975 0.555144 0.296942 0
M  V30 16 C 7.21934 0.609448 0.499342 0
M  V30 17 N -0.320689 -1.93506 1.1741 0
M  V30 18 C -1.66509 -1.9677 1.3261 0
M  V30 19 N -2.40905 -1.02202 0.715734 0
M  V30 20 N -2.29265 -2.97455 2.11163 0
M  V30 21 H -5.82074 0.0750566 1.30075 0
M  V30 22 H -5.96666 -0.750972 -0.221133 0
M  V30 23 H -5.59616 1.62167 -0.649499 0
M  V30 24 H -4.10889 1.01229 -2.35726 0
M  V30 25 H -3.9065 -0.663765 -1.5682 0
M  V30 26 H -2.14746 1.72481 -1.28791 0
M  V30 27 H -3.69687 2.733 0.205403 0
M  V30 28 H -3.45629 1.31776 1.3471 0
M  V30 29 H -0.0102914 0.730371 -0.776263 0
M  V30 30 H 2.29392 -1.68647 0.745178 0
M  V30 31 H 2.02068 1.03302 -0.0285835 0
M  V30 32 H 1.84941 0.0931582 -1.51816 0
M  V30 33 H 4.43944 1.18511 1.15769 0
M  V30 34 H 7.94195 0.773919 -0.349537 0
M  V30 35 H 7.07446 1.51351 1.09802 0
M  V30 36 H 7.55951 -0.249843 1.11713 0
M  V30 37 H -2.7715 -2.64872 2.98729 0
M  V30 38 H -2.30156 -3.97623 1.87348 0
M  V30 END ATOM
M  V30 BEGIN BOND
M  V30 1 1 1 2
M  V30 2 1 2 3
M  V30 3 1 3 4
M  V30 4 1 4 5
M  V30 5 1 4 6
M  V30 6 2 6 7
M  V30 7 1 7 8
M  V30 8 1 8 9
M  V30 9 1 9 10
M  V30 10 1 10 11
M  V30 11 2 11 12
M  V30 12 1 12 13
M  V30 13 1 13 14
M  V30 14 2 14 15
M  V30 15 1 14 16
M  V30 16 2 8 17
M  V30 17 1 17 18
M  V30 18 2 18 19
M  V30 19 1 18 20
M  V30 20 1 5 2
M  V30 21 1 19 6
M  V30 22 1 15 11
M  V30 23 1 1 21
M  V30 24 1 1 22
M  V30 25 1 2 23 CFG=3
M  V30 26 1 3 24
M  V30 27 1 3 25
M  V30 28 1 4 26 CFG=3
M  V30 29 1 5 27
M  V30 30 1 5 28
M  V30 31 1 7 29
M  V30 32 1 9 30
M  V30 33 1 10 31
M  V30 34 1 10 32
M  V30 35 1 15 33
M  V30 36 1 16 34
M  V30 37 1 16 35
M  V30 38 1 16 36
M  V30 39 1 20 37
M  V30 40 1 20 38
M  V30 END BOND
M  V30 END CTAB
M  END
