
     RDKit          3D

  0  0  0  0  0  0  0  0  0  0999 V3000
M  V30 BEGIN CTAB
M  V30 COUNTS 42 44 0 0 0
M  V30 BEGIN ATOM
M  V30 1 N 6.8915 0.870873 -0.638234 0
M  V30 2 C 5.50858 0.570093 -0.471865 0
M  V30 3 C 5.10028 -0.523417 0.264838 0
M  V30 4 C 3.75121 -0.809814 0.422333 0
M  V30 5 C 2.76944 -0.023311 -0.143939 0
M  V30 6 C 3.17536 1.06874 -0.87971 0
M  V30 7 C 4.51749 1.34867 -1.03298 0
M  V30 8 C 1.34379 -0.344026 0.034862 0
M  V30 9 C 0.721362 0.795563 0.827267 0
M  V30 10 C -0.76696 0.685071 0.827487 0
M  V30 11 C -1.28893 -0.641762 0.372029 0
M  V30 12 C -0.753456 -1.08365 -0.951472 0
M  V30 13 C 0.594295 -0.462092 -1.25271 0
M  V30 14 C -2.779 -0.4895 0.211146 0
M  V30 15 C -3.61978 -1.2077 1.00322 0
M  V30 16 C -4.98641 -1.02581 0.809283 0
M  V30 17 C -5.46308 -0.153554 -0.146358 0
M  V30 18 C -4.55696 0.560051 -0.933659 0
M  V30 19 C -3.18961 0.394751 -0.757948 0
M  V30 20 N -6.85452 0.0187401 -0.329649 0
M  V30 21 H 7.56811 0.10809 -0.551292 0
M  V30 22 H 7.23376 1.83385 -0.843785 0
M  V30 23 H 5.86995 -1.156 0.719717 0
M  V30 24 H 3.45617 -1.67102 1.00329 0
M  V30 25 H 2.40759 1.7012 -1.33445 0
M  V30 26 H 4.84392 2.21543 -1.61684 0
M  V30 27 H 1.23993 -1.25456 0.655016 0
M  V30 28 H 1.16146 0.765073 1.86215 0
M  V30 29 H 1.10331 1.73456 0.361966 0
M  V30 30 H -1.21786 1.53726 0.269583 0
M  V30 31 H -1.10639 0.815876 1.89354 0
M  V30 32 H -1.07529 -1.38727 1.1896 0
M  V30 33 H -1.47085 -0.942808 -1.78654 0
M  V30 34 H -0.568884 -2.19304 -0.880106 0
M  V30 35 H 1.17254 -1.05667 -1.99208 0
M  V30 36 H 0.374911 0.557997 -1.6713 0
M  V30 37 H -3.23211 -1.88824 1.74875 0
M  V30 38 H -5.65814 -1.5962 1.43836 0
M  V30 39 H -4.92463 1.24559 -1.68477 0
M  V30 40 H -2.52925 0.964768 -1.38656 0
M  V30 41 H -7.43748 0.657272 0.231705 0
M  V30 42 H -7.32536 -0.539068 -1.08589 0
M  V30 END ATOM
M  V30 BEGIN BOND
M  V30 1 1 1 2
M  V30 2 2 2 3
M  V30 3 1 3 4
M  V30 4 2 4 5
M  V30 5 1 5 6
M  V30 6 2 6 7
M  V30 7 1 5 8
M  V30 8 1 8 9
M  V30 9 1 9 10
M  V30 10 1 10 11
M  V30 11 1 11 12
M  V30 12 1 12 13
M  V30 13 1 11 14
M  V30 14 2 14 15
M  V30 15 1 15 16
M  V30 16 2 16 17
M  V30 17 1 17 18
M  V30 18 2 18 19
M  V30 19 1 17 20
M  V30 20 1 7 2
M  V30 21 1 13 8
M  V30 22 1 19 14
M  V30 23 1 1 21
M  V30 24 1 1 22
M  V30 25 1 3 23
M  V30 26 1 4 24
M  V30 27 1 6 25
M  V30 28 1 7 26
M  V30 29 1 8 27
M  V30 30 1 9 28
M  V30 31 1 9 29
M  V30 32 1 10 30
M  V30 33 1 10 31
M  V30 34 1 11 32
M  V30 35 1 12 33
M  V30 36 1 12 34
M  V30 37 1 13 35
M  V30 38 1 13 36
M  V30 39 1 15 37
M  V30 40 1 16 38
M  V30 41 1 18 39
M  V30 42 1 19 40
M  V30 43 1 20 41
M  V30 44 1 20 42
M  V30 END BOND
M  V30 END CTAB
M  END
