
     RDKit          3D

  0  0  0  0  0  0  0  0  0  0999 V3000
M  V30 BEGIN CTAB
M  V30 COUNTS 54 57 0 0 0
M  V30 BEGIN ATOM
M  V30 1 N -7.38764 0.766697 2.10368 0
M  V30 2 C -6.67872 0.355758 0.903537 0
M  V30 3 C -5.66314 1.36707 0.428181 0
M  V30 4 C -4.5484 0.449115 0.895456 0
M  V30 5 C -5.58937 -0.629993 1.2219 0
M  V30 6 C -3.6207 0.0767609 -0.18583 0
M  V30 7 N -4.06677 -0.41402 -1.36706 0
M  V30 8 C -3.22385 -0.754696 -2.35499 0
M  V30 9 N -3.73754 -1.26331 -3.5715 0
M  V30 10 N -1.90116 -0.61211 -2.18577 0
M  V30 11 C -1.36321 -0.134446 -1.05125 0
M  V30 12 C -2.25695 0.214829 -0.0340651 0
M  V30 13 N 0.0387558 0.00916793 -0.889562 0
M  V30 14 C 0.798101 -0.413758 -2.04621 0
M  V30 15 C 1.8177 -1.4714 -1.68863 0
M  V30 16 C 3.01905 -0.760962 -1.06644 0
M  V30 17 N 2.68086 -0.380195 0.248851 0
M  V30 18 C 1.96022 0.827131 0.394618 0
M  V30 19 C 0.457948 0.54418 0.380738 0
M  V30 20 C 3.55212 -0.745192 1.29586 0
M  V30 21 C 4.92249 -0.242481 1.22682 0
M  V30 22 C 5.19623 0.996314 1.75385 0
M  V30 23 C 6.44932 1.52767 1.72636 0
M  V30 24 C 7.46976 0.784989 1.14594 0
M  V30 25 C 7.2386 -0.458747 0.607102 0
M  V30 26 C 5.95851 -0.95013 0.659613 0
M  V30 27 F 8.25698 -1.13988 0.0564032 0
M  V30 28 H -6.76339 1.44238 2.63106 0
M  V30 29 H -8.24813 1.31566 1.8408 0
M  V30 30 H -7.39 0.0323986 0.119361 0
M  V30 31 H -5.65543 1.55837 -0.660719 0
M  V30 32 H -5.66709 2.32267 0.988892 0
M  V30 33 H -4.04197 0.834219 1.79884 0
M  V30 34 H -5.56395 -0.946137 2.28936 0
M  V30 35 H -5.55205 -1.48133 0.499947 0
M  V30 36 H -3.53388 -0.716654 -4.43811 0
M  V30 37 H -4.29019 -2.14998 -3.55327 0
M  V30 38 H -1.81004 0.59769 0.873242 0
M  V30 39 H 0.146652 -0.695227 -2.88401 0
M  V30 40 H 1.38401 0.49176 -2.38255 0
M  V30 41 H 2.1495 -1.9942 -2.60544 0
M  V30 42 H 1.42616 -2.18794 -0.933837 0
M  V30 43 H 3.89679 -1.42947 -1.13999 0
M  V30 44 H 3.26086 0.109513 -1.74425 0
M  V30 45 H 2.18681 1.61326 -0.33561 0
M  V30 46 H 2.16252 1.24158 1.41947 0
M  V30 47 H -0.0288588 1.53083 0.534885 0
M  V30 48 H 0.166041 -0.0986955 1.22712 0
M  V30 49 H 3.05583 -0.480417 2.26637 0
M  V30 50 H 3.6103 -1.87167 1.32113 0
M  V30 51 H 4.3978 1.59537 2.21655 0
M  V30 52 H 6.67106 2.51477 2.14547 0
M  V30 53 H 8.45746 1.23094 1.13714 0
M  V30 54 H 5.79398 -1.92804 0.233046 0
M  V30 END ATOM
M  V30 BEGIN BOND
M  V30 1 1 1 2
M  V30 2 1 2 3
M  V30 3 1 3 4
M  V30 4 1 4 5
M  V30 5 1 4 6
M  V30 6 2 6 7
M  V30 7 1 7 8
M  V30 8 1 8 9
M  V30 9 2 8 10
M  V30 10 1 10 11
M  V30 11 2 11 12
M  V30 12 1 11 13
M  V30 13 1 13 14
M  V30 14 1 14 15
M  V30 15 1 15 16
M  V30 16 1 16 17
M  V30 17 1 17 18
M  V30 18 1 18 19
M  V30 19 1 17 20
M  V30 20 1 20 21
M  V30 21 2 21 22
M  V30 22 1 22 23
M  V30 23 2 23 24
M  V30 24 1 24 25
M  V30 25 2 25 26
M  V30 26 1 25 27
M  V30 27 1 5 2
M  V30 28 1 12 6
M  V30 29 1 19 13
M  V30 30 1 26 21
M  V30 31 1 1 28
M  V30 32 1 1 29
M  V30 33 1 2 30
M  V30 34 1 3 31
M  V30 35 1 3 32
M  V30 36 1 4 33
M  V30 37 1 5 34
M  V30 38 1 5 35
M  V30 39 1 9 36
M  V30 40 1 9 37
M  V30 41 1 12 38
M  V30 42 1 14 39
M  V30 43 1 14 40
M  V30 44 1 15 41
M  V30 45 1 15 42
M  V30 46 1 16 43
M  V30 47 1 16 44
M  V30 48 1 18 45
M  V30 49 1 18 46
M  V30 50 1 19 47
M  V30 51 1 19 48
M  V30 52 1 20 49
M  V30 53 1 20 50
M  V30 54 1 22 51
M  V30 55 1 23 52
M  V30 56 1 24 53
M  V30 57 1 26 54
M  V30 END BOND
M  V30 END CTAB
M  END
