
     RDKit          3D

  0  0  0  0  0  0  0  0  0  0999 V3000
M  V30 BEGIN CTAB
M  V30 COUNTS 29 30 0 0 0
M  V30 BEGIN ATOM
M  V30 1 N -1.21198 1.51214 -1.07557 0
M  V30 2 C -1.16806 0.0770078 -0.752019 0
M  V30 3 C -1.72394 -0.221253 0.560883 0
M  V30 4 C -1.84658 -1.62738 1.02748 0
M  V30 5 S -3.47422 -1.87472 0.300447 0
M  V30 6 C -3.25261 -0.112234 0.601567 0
M  V30 7 C 0.126583 -0.503322 -1.19297 0
M  V30 8 C 1.35468 0.116618 -0.685329 0
M  V30 9 C 1.83047 1.17325 -1.49739 0
M  V30 10 N 2.9002 1.85889 -1.11069 0
M  V30 11 C 3.5429 1.58283 0.0228065 0
M  V30 12 C 3.11328 0.578314 0.819925 0
M  V30 13 C 1.98503 -0.197297 0.478318 0
M  V30 14 N 1.61519 -1.26874 1.33189 0
M  V30 15 H -1.94245 2.02813 -0.592366 0
M  V30 16 H -1.03049 1.68563 -2.05897 0
M  V30 17 H -1.93295 -0.334273 -1.51581 0
M  V30 18 H -1.31745 0.417044 1.41689 0
M  V30 19 H -1.82422 -1.72001 2.15257 0
M  V30 20 H -1.12021 -2.35045 0.546752 0
M  V30 21 H -3.63212 0.166393 1.61893 0
M  V30 22 H -3.63781 0.538106 -0.215903 0
M  V30 23 H 0.188678 -0.557627 -2.30104 0
M  V30 24 H 0.118399 -1.57435 -0.833827 0
M  V30 25 H 1.35709 1.44975 -2.4259 0
M  V30 26 H 4.41341 2.16554 0.306864 0
M  V30 27 H 3.6011 0.301156 1.76622 0
M  V30 28 H 1.23458 -2.14972 0.9558 0
M  V30 29 H 1.7335 -1.15943 2.35047 0
M  V30 END ATOM
M  V30 BEGIN BOND
M  V30 1 1 1 2
M  V30 2 1 2 3
M  V30 3 1 3 4
M  V30 4 1 4 5
M  V30 5 1 5 6
M  V30 6 1 2 7
M  V30 7 1 7 8
M  V30 8 2 8 9
M  V30 9 1 9 10
M  V30 10 2 10 11
M  V30 11 1 11 12
M  V30 12 2 12 13
M  V30 13 1 13 14
M  V30 14 1 6 3
M  V30 15 1 13 8
M  V30 16 1 1 15
M  V30 17 1 1 16
M  V30 18 1 2 17
M  V30 19 1 3 18
M  V30 20 1 4 19
M  V30 21 1 4 20
M  V30 22 1 6 21
M  V30 23 1 6 22
M  V30 24 1 7 23
M  V30 25 1 7 24
M  V30 26 1 9 25
M  V30 27 1 11 26
M  V30 28 1 12 27
M  V30 29 1 14 28
M  V30 30 1 14 29
M  V30 END BOND
M  V30 END CTAB
M  END
