
     RDKit          3D

  0  0  0  0  0  0  0  0  0  0999 V3000
M  V30 BEGIN CTAB
M  V30 COUNTS 39 40 0 0 0
M  V30 BEGIN ATOM
M  V30 1 C -7.85318 -0.911683 0.0842697 0
M  V30 2 C -6.36087 -0.619797 0.00689298 0
M  V30 3 C -5.56957 -1.69933 0.70407 0
M  V30 4 C -4.11806 -1.35104 0.571701 0
M  V30 5 N -3.05549 -1.98967 1.04571 0
M  V30 6 N -1.89646 -1.54837 0.825164 0
M  V30 7 C -1.72909 -0.438284 0.115053 0
M  V30 8 S -3.34651 -0.0327322 -0.239226 0
M  V30 9 N -0.491382 0.182281 -0.217214 0
M  V30 10 C 0.757647 -0.349197 0.197967 0
M  V30 11 O 0.72772 -1.42278 0.89208 0
M  V30 12 C 2.04321 0.289827 -0.143398 0
M  V30 13 S 3.38601 -0.669646 0.554403 0
M  V30 14 C 4.95126 0.0536443 0.173754 0
M  V30 15 N 5.49342 0.961203 0.988312 0
M  V30 16 C 6.6752 1.47879 0.659859 0
M  V30 17 N 7.2935 2.44782 1.49363 0
M  V30 18 C 7.34367 1.10411 -0.487322 0
M  V30 19 C 6.76567 0.166959 -1.3119 0
M  V30 20 N 5.57373 -0.344896 -0.965969 0
M  V30 21 N 7.39916 -0.258528 -2.50033 0
M  V30 22 C -6.05237 0.716846 0.659198 0
M  V30 23 H -7.96364 -2.01269 0.103028 0
M  V30 24 H -8.35301 -0.559991 -0.841972 0
M  V30 25 H -8.32579 -0.426323 0.965067 0
M  V30 26 H -6.10726 -0.529137 -1.06432 0
M  V30 27 H -5.74259 -2.64375 0.150137 0
M  V30 28 H -5.8807 -1.81049 1.74625 0
M  V30 29 H -0.480038 1.05726 -0.78364 0
M  V30 30 H 2.02575 1.31556 0.315025 0
M  V30 31 H 2.15614 0.466253 -1.23687 0
M  V30 32 H 8.02648 2.14829 2.14568 0
M  V30 33 H 7.00914 3.42867 1.44151 0
M  V30 34 H 8.31168 1.55722 -0.714354 0
M  V30 35 H 7.56186 0.370644 -3.31002 0
M  V30 36 H 7.73917 -1.24969 -2.61717 0
M  V30 37 H -6.97265 1.15533 1.11973 0
M  V30 38 H -5.59747 1.4373 -0.0398005 0
M  V30 39 H -5.3443 0.530025 1.48387 0
M  V30 END ATOM
M  V30 BEGIN BOND
M  V30 1 1 1 2
M  V30 2 1 2 3
M  V30 3 1 3 4
M  V30 4 2 4 5
M  V30 5 1 5 6
M  V30 6 2 6 7
M  V30 7 1 7 8
M  V30 8 1 7 9
M  V30 9 1 9 10
M  V30 10 2 10 11
M  V30 11 1 10 12
M  V30 12 1 12 13
M  V30 13 1 13 14
M  V30 14 2 14 15
M  V30 15 1 15 16
M  V30 16 1 16 17
M  V30 17 2 16 18
M  V30 18 1 18 19
M  V30 19 2 19 20
M  V30 20 1 19 21
M  V30 21 1 2 22
M  V30 22 1 8 4
M  V30 23 1 20 14
M  V30 24 1 1 23
M  V30 25 1 1 24
M  V30 26 1 1 25
M  V30 27 1 2 26
M  V30 28 1 3 27
M  V30 29 1 3 28
M  V30 30 1 9 29
M  V30 31 1 12 30
M  V30 32 1 12 31
M  V30 33 1 17 32
M  V30 34 1 17 33
M  V30 35 1 18 34
M  V30 36 1 21 35
M  V30 37 1 21 36
M  V30 38 1 22 37
M  V30 39 1 22 38
M  V30 40 1 22 39
M  V30 END BOND
M  V30 END CTAB
M  END
