
     RDKit          3D

  0  0  0  0  0  0  0  0  0  0999 V3000
M  V30 BEGIN CTAB
M  V30 COUNTS 27 28 0 0 0
M  V30 BEGIN ATOM
M  V30 1 N -1.38049 2.08999 -0.924651 0
M  V30 2 C -1.97546 0.82998 -0.57258 0
M  V30 3 C -1.27152 0.145529 0.560868 0
M  V30 4 C -1.98158 -1.15887 0.841047 0
M  V30 5 C -1.58185 -2.21527 -0.188374 0
M  V30 6 O -0.217525 -2.47025 0.0376309 0
M  V30 7 C 0.641643 -1.38151 0.0708483 0
M  V30 8 C 0.162684 -0.117721 0.321444 0
M  V30 9 C 1.08648 0.9405 0.342637 0
M  V30 10 C 2.42914 0.753385 0.123945 0
M  V30 11 N 3.3503 1.82885 0.147857 0
M  V30 12 C 2.88803 -0.520856 -0.125678 0
M  V30 13 C 2.00888 -1.57433 -0.15225 0
M  V30 14 H -1.73858 2.42809 -1.8248 0
M  V30 15 H -1.48062 2.74403 -0.127702 0
M  V30 16 H -3.00921 1.07675 -0.189316 0
M  V30 17 H -2.13833 0.166327 -1.42784 0
M  V30 18 H -1.35392 0.749936 1.48851 0
M  V30 19 H -1.74886 -1.5691 1.84114 0
M  V30 20 H -3.08241 -0.99264 0.701797 0
M  V30 21 H -2.22198 -3.09357 0.0307406 0
M  V30 22 H -1.80457 -1.81916 -1.19129 0
M  V30 23 H 0.724131 1.92916 0.540576 0
M  V30 24 H 4.18148 1.8575 -0.481882 0
M  V30 25 H 3.21699 2.62415 0.802051 0
M  V30 26 H 3.94681 -0.664356 -0.29767 0
M  V30 27 H 2.35036 -2.58654 -0.347061 0
M  V30 END ATOM
M  V30 BEGIN BOND
M  V30 1 1 1 2
M  V30 2 1 2 3
M  V30 3 1 3 4
M  V30 4 1 4 5
M  V30 5 1 5 6
M  V30 6 1 6 7
M  V30 7 2 7 8
M  V30 8 1 8 9
M  V30 9 2 9 10
M  V30 10 1 10 11
M  V30 11 1 10 12
M  V30 12 2 12 13
M  V30 13 1 8 3
M  V30 14 1 13 7
M  V30 15 1 1 14
M  V30 16 1 1 15
M  V30 17 1 2 16
M  V30 18 1 2 17
M  V30 19 1 3 18
M  V30 20 1 4 19
M  V30 21 1 4 20
M  V30 22 1 5 21
M  V30 23 1 5 22
M  V30 24 1 9 23
M  V30 25 1 11 24
M  V30 26 1 11 25
M  V30 27 1 12 26
M  V30 28 1 13 27
M  V30 END BOND
M  V30 END CTAB
M  END
