
     RDKit          3D

  0  0  0  0  0  0  0  0  0  0999 V3000
M  V30 BEGIN CTAB
M  V30 COUNTS 56 59 0 0 0
M  V30 BEGIN ATOM
M  V30 1 N -3.03599 4.70075 2.01092 0
M  V30 2 C -3.63373 3.5295 1.42205 0
M  V30 3 N -2.8676 2.5128 1.01594 0
M  V30 4 C -3.33446 1.38453 0.466245 0
M  V30 5 C -2.43424 0.293875 0.0401077 0
M  V30 6 O -1.07296 0.608054 0.308038 0
M  V30 7 C -0.0206753 -0.229024 0.0369496 0
M  V30 8 C -0.207709 -1.4568 -0.535248 0
M  V30 9 C 0.829302 -2.30014 -0.801892 0
M  V30 10 C 2.14585 -1.95408 -0.502655 0
M  V30 11 N 3.19489 -2.87039 -0.763753 0
M  V30 12 S 4.6493 -2.46702 -1.49685 0
M  V30 13 O 5.4745 -3.72307 -1.68061 0
M  V30 14 O 4.34246 -1.93005 -2.87919 0
M  V30 15 C 5.6502 -1.31401 -0.680543 0
M  V30 16 C 6.26527 -1.58467 0.530222 0
M  V30 17 C 7.09472 -0.677115 1.14277 0
M  V30 18 C 7.33176 0.545964 0.545746 0
M  V30 19 C 6.73709 0.847983 -0.657873 0
M  V30 20 C 5.89587 -0.0979906 -1.25888 0
M  V30 21 S 8.3578 1.71667 1.30605 0
M  V30 22 F 9.96882 1.38157 0.983719 0
M  V30 23 O 8.04997 3.07117 0.715967 0
M  V30 24 O 8.11123 1.78589 2.78527 0
M  V30 25 C 2.32976 -0.72244 0.0695987 0
M  V30 26 C 1.25994 0.146706 0.343043 0
M  V30 27 C -4.69604 1.27125 0.311827 0
M  V30 28 C -5.4862 2.32994 0.734684 0
M  V30 29 N -6.89943 2.26266 0.602033 0
M  V30 30 N -4.95957 3.4356 1.27849 0
M  V30 31 C -5.31988 0.0722621 -0.262094 0
M  V30 32 C -5.35112 -0.18276 -1.60717 0
M  V30 33 C -5.9615 -1.34706 -2.06981 0
M  V30 34 Cl -6.02126 -1.70969 -3.78562 0
M  V30 35 C -6.5492 -2.27569 -1.21837 0
M  V30 36 Cl -7.31581 -3.74091 -1.8344 0
M  V30 37 C -6.51242 -2.00996 0.132048 0
M  V30 38 C -5.9094 -0.86009 0.586473 0
M  V30 39 H -3.11575 5.6075 1.5021 0
M  V30 40 H -2.5449 4.59862 2.92743 0
M  V30 41 H -2.51267 0.108793 -1.04916 0
M  V30 42 H -2.69946 -0.678736 0.529482 0
M  V30 43 H -1.20676 -1.79261 -0.794456 0
M  V30 44 H 0.663322 -3.2628 -1.25283 0
M  V30 45 H 3.02607 -3.90025 -0.461814 0
M  V30 46 H 6.05054 -2.56288 0.959922 0
M  V30 47 H 7.56392 -0.922934 2.10156 0
M  V30 48 H 6.93228 1.8044 -1.11199 0
M  V30 49 H 5.46784 0.21629 -2.20206 0
M  V30 50 H 3.30888 -0.383578 0.341218 0
M  V30 51 H 1.52619 1.09243 0.793915 0
M  V30 52 H -7.30553 2.38082 -0.34455 0
M  V30 53 H -7.51413 2.0988 1.45234 0
M  V30 54 H -4.90755 0.515983 -2.30885 0
M  V30 55 H -6.96755 -2.73475 0.790471 0
M  V30 56 H -5.86431 -0.629329 1.6485 0
M  V30 END ATOM
M  V30 BEGIN BOND
M  V30 1 1 1 2
M  V30 2 2 2 3
M  V30 3 1 3 4
M  V30 4 1 4 5
M  V30 5 1 5 6
M  V30 6 1 6 7
M  V30 7 2 7 8
M  V30 8 1 8 9
M  V30 9 2 9 10
M  V30 10 1 10 11
M  V30 11 1 11 12
M  V30 12 2 12 13
M  V30 13 2 12 14
M  V30 14 1 12 15
M  V30 15 2 15 16
M  V30 16 1 16 17
M  V30 17 2 17 18
M  V30 18 1 18 19
M  V30 19 2 19 20
M  V30 20 1 18 21
M  V30 21 1 21 22
M  V30 22 2 21 23
M  V30 23 2 21 24
M  V30 24 1 10 25
M  V30 25 2 25 26
M  V30 26 2 4 27
M  V30 27 1 27 28
M  V30 28 1 28 29
M  V30 29 2 28 30
M  V30 30 1 27 31
M  V30 31 2 31 32
M  V30 32 1 32 33
M  V30 33 1 33 34
M  V30 34 2 33 35
M  V30 35 1 35 36
M  V30 36 1 35 37
M  V30 37 2 37 38
M  V30 38 1 30 2
M  V30 39 1 38 31
M  V30 40 1 26 7
M  V30 41 1 20 15
M  V30 42 1 1 39
M  V30 43 1 1 40
M  V30 44 1 5 41
M  V30 45 1 5 42
M  V30 46 1 8 43
M  V30 47 1 9 44
M  V30 48 1 11 45
M  V30 49 1 16 46
M  V30 50 1 17 47
M  V30 51 1 19 48
M  V30 52 1 20 49
M  V30 53 1 25 50
M  V30 54 1 26 51
M  V30 55 1 29 52
M  V30 56 1 29 53
M  V30 57 1 32 54
M  V30 58 1 37 55
M  V30 59 1 38 56
M  V30 END BOND
M  V30 END CTAB
M  END
