
     RDKit          3D

  0  0  0  0  0  0  0  0  0  0999 V3000
M  V30 BEGIN CTAB
M  V30 COUNTS 36 37 0 0 0
M  V30 BEGIN ATOM
M  V30 1 C 3.24371 -1.12364 -0.987472 0
M  V30 2 C 2.35854 -1.13895 0.264778 0
M  V30 3 C 3.19306 -0.809464 1.45542 0
M  V30 4 N 1.28895 -0.163801 0.0909751 0
M  V30 5 C 1.40204 1.24003 -0.0852848 0
M  V30 6 O 2.51971 1.84575 -0.113418 0
M  V30 7 C 0.0603044 1.84136 -0.223114 0
M  V30 8 C -0.239851 2.82928 0.887557 0
M  V30 9 C -0.121205 2.46233 -1.58278 0
M  V30 10 C -0.862718 0.684274 -0.114841 0
M  V30 11 C -0.106348 -0.452516 0.0658348 0
M  V30 12 C -0.75024 -1.69309 0.197324 0
M  V30 13 C -2.12245 -1.71855 0.13927 0
M  V30 14 N -2.76709 -2.96767 0.271814 0
M  V30 15 C -2.88331 -0.583698 -0.041357 0
M  V30 16 N -4.28844 -0.721519 -0.0863292 0
M  V30 17 C -2.2634 0.635136 -0.171107 0
M  V30 18 H 3.66518 -0.110402 -1.14575 0
M  V30 19 H 4.05647 -1.84105 -0.888766 0
M  V30 20 H 2.62571 -1.45896 -1.86379 0
M  V30 21 H 1.93251 -2.13921 0.374912 0
M  V30 22 H 3.91266 0.0239602 1.26755 0
M  V30 23 H 2.55522 -0.572996 2.33346 0
M  V30 24 H 3.83012 -1.70078 1.67831 0
M  V30 25 H -1.32689 2.82411 1.10883 0
M  V30 26 H -0.00122581 3.88071 0.572105 0
M  V30 27 H 0.286138 2.57397 1.82325 0
M  V30 28 H 0.636662 3.25474 -1.76481 0
M  V30 29 H -0.00570714 1.66981 -2.33993 0
M  V30 30 H -1.14356 2.915 -1.59101 0
M  V30 31 H -0.158762 -2.58569 0.339078 0
M  V30 32 H -2.41348 -3.84231 -0.16209 0
M  V30 33 H -3.64213 -3.01811 0.832683 0
M  V30 34 H -4.93174 -0.0774108 0.408221 0
M  V30 35 H -4.70412 -1.49895 -0.636214 0
M  V30 36 H -2.8343 1.5383 -0.313308 0
M  V30 END ATOM
M  V30 BEGIN BOND
M  V30 1 1 1 2
M  V30 2 1 2 3
M  V30 3 1 2 4
M  V30 4 1 4 5
M  V30 5 2 5 6
M  V30 6 1 5 7
M  V30 7 1 7 8
M  V30 8 1 7 9
M  V30 9 1 7 10
M  V30 10 2 10 11
M  V30 11 1 11 12
M  V30 12 2 12 13
M  V30 13 1 13 14
M  V30 14 1 13 15
M  V30 15 1 15 16
M  V30 16 2 15 17
M  V30 17 1 11 4
M  V30 18 1 17 10
M  V30 19 1 1 18
M  V30 20 1 1 19
M  V30 21 1 1 20
M  V30 22 1 2 21
M  V30 23 1 3 22
M  V30 24 1 3 23
M  V30 25 1 3 24
M  V30 26 1 8 25
M  V30 27 1 8 26
M  V30 28 1 8 27
M  V30 29 1 9 28
M  V30 30 1 9 29
M  V30 31 1 9 30
M  V30 32 1 12 31
M  V30 33 1 14 32
M  V30 34 1 14 33
M  V30 35 1 16 34
M  V30 36 1 16 35
M  V30 37 1 17 36
M  V30 END BOND
M  V30 END CTAB
M  END
