
     RDKit          3D

  0  0  0  0  0  0  0  0  0  0999 V3000
M  V30 BEGIN CTAB
M  V30 COUNTS 25 26 0 0 0
M  V30 BEGIN ATOM
M  V30 1 C 1.73176 -2.18164 -0.425893 0
M  V30 2 C 1.98633 -0.681883 -0.325342 0
M  V30 3 C 0.997075 0.214628 -0.112257 0
M  V30 4 S 1.91437 1.70325 -0.108944 0
M  V30 5 C 3.46268 1.0543 -0.376844 0
M  V30 6 N 4.74349 1.7238 -0.494001 0
M  V30 7 N 3.20473 -0.23186 -0.452945 0
M  V30 8 C -0.442463 0.137307 0.0737459 0
M  V30 9 C -1.163 1.33349 0.240911 0
M  V30 10 C -2.52172 1.36843 0.427274 0
M  V30 11 C -3.24946 0.207934 0.458691 0
M  V30 12 N -4.64184 0.150574 0.644223 0
M  V30 13 C -2.57928 -0.967065 0.299675 0
M  V30 14 C -1.19484 -0.992352 0.110435 0
M  V30 15 H 2.70627 -2.71449 -0.653049 0
M  V30 16 H 1.08519 -2.4304 -1.25893 0
M  V30 17 H 1.38238 -2.56552 0.541935 0
M  V30 18 H 5.60561 1.34652 -0.0654064 0
M  V30 19 H 4.78965 2.60968 -1.0264 0
M  V30 20 H -0.5977 2.25023 0.217236 0
M  V30 21 H -3.04855 2.28863 0.552005 0
M  V30 22 H -5.19697 -0.578049 0.167955 0
M  V30 23 H -5.11664 0.830122 1.25255 0
M  V30 24 H -3.09531 -1.91648 0.314599 0
M  V30 25 H -0.761756 -1.95916 -0.001225 0
M  V30 END ATOM
M  V30 BEGIN BOND
M  V30 1 1 1 2
M  V30 2 2 2 3
M  V30 3 1 3 4
M  V30 4 1 4 5
M  V30 5 1 5 6
M  V30 6 2 5 7
M  V30 7 1 3 8
M  V30 8 2 8 9
M  V30 9 1 9 10
M  V30 10 2 10 11
M  V30 11 1 11 12
M  V30 12 1 11 13
M  V30 13 2 13 14
M  V30 14 1 7 2
M  V30 15 1 14 8
M  V30 16 1 1 15
M  V30 17 1 1 16
M  V30 18 1 1 17
M  V30 19 1 6 18
M  V30 20 1 6 19
M  V30 21 1 9 20
M  V30 22 1 10 21
M  V30 23 1 12 22
M  V30 24 1 12 23
M  V30 25 1 13 24
M  V30 26 1 14 25
M  V30 END BOND
M  V30 END CTAB
M  END
