
     RDKit          3D

  0  0  0  0  0  0  0  0  0  0999 V3000
M  V30 BEGIN CTAB
M  V30 COUNTS 22 22 0 0 0
M  V30 BEGIN ATOM
M  V30 1 N -3.2098 0.0796114 -0.777861 0
M  V30 2 C -1.88694 0.625908 -0.657181 0
M  V30 3 C -1.01493 -0.293485 0.254188 0
M  V30 4 C 0.331879 0.40087 0.146578 0
M  V30 5 S 0.764119 2.02181 0.164969 0
M  V30 6 C 2.46963 1.90021 0.075828 0
M  V30 7 C 2.6606 0.542038 0.0268334 0
M  V30 8 C 1.54894 -0.250734 0.0646354 0
M  V30 9 C 1.60505 -1.76062 -0.0113139 0
M  V30 10 N -1.52401 -0.0325523 1.58865 0
M  V30 11 H -3.01374 -0.930887 -1.12737 0
M  V30 12 H -3.60688 0.560382 -1.65497 0
M  V30 13 H -1.82017 1.62818 -0.273316 0
M  V30 14 H -1.32357 0.583303 -1.62827 0
M  V30 15 H -0.921815 -1.27563 -0.0777002 0
M  V30 16 H 3.2399 2.65053 0.0498422 0
M  V30 17 H 3.70276 0.110794 -0.0550113 0
M  V30 18 H 2.57974 -2.17297 0.290403 0
M  V30 19 H 1.5228 -1.97512 -1.12702 0
M  V30 20 H 0.837228 -2.22351 0.577948 0
M  V30 21 H -1.05272 0.668219 2.12616 0
M  V30 22 H -1.88809 -0.856337 2.02398 0
M  V30 END ATOM
M  V30 BEGIN BOND
M  V30 1 1 1 2
M  V30 2 1 2 3
M  V30 3 1 3 4
M  V30 4 1 4 5
M  V30 5 1 5 6
M  V30 6 2 6 7
M  V30 7 1 7 8
M  V30 8 1 8 9
M  V30 9 1 3 10
M  V30 10 2 8 4
M  V30 11 1 1 11
M  V30 12 1 1 12
M  V30 13 1 2 13
M  V30 14 1 2 14
M  V30 15 1 3 15
M  V30 16 1 6 16
M  V30 17 1 7 17
M  V30 18 1 9 18
M  V30 19 1 9 19
M  V30 20 1 9 20
M  V30 21 1 10 21
M  V30 22 1 10 22
M  V30 END BOND
M  V30 END CTAB
M  END
