
     RDKit          3D

  0  0  0  0  0  0  0  0  0  0999 V3000
M  V30 BEGIN CTAB
M  V30 COUNTS 37 37 0 0 0
M  V30 BEGIN ATOM
M  V30 1 N -4.32044 0.931669 1.10931 0
M  V30 2 C -5.4165 0.341826 0.430803 0
M  V30 3 C -5.17753 -1.02753 -0.0777968 0
M  V30 4 C -4.10071 -1.22476 -1.06774 0
M  V30 5 C -2.71317 -1.00011 -0.681778 0
M  V30 6 O -2.29363 -0.851612 0.486076 0
M  V30 7 O -1.71159 -0.935671 -1.6803 0
M  V30 8 C -0.382702 -0.716823 -1.34031 0
M  V30 9 C -0.0645615 0.580055 -0.675515 0
M  V30 10 C 1.41075 0.59957 -0.409563 0
M  V30 11 C 2.33923 1.09162 -1.2961 0
M  V30 12 C 3.69469 1.09887 -1.0319 0
M  V30 13 C 4.12175 0.587146 0.178064 0
M  V30 14 C 3.21071 0.0928575 1.07319 0
M  V30 15 C 1.85523 0.0938228 0.790866 0
M  V30 16 S 5.84538 0.568856 0.573004 0
M  V30 17 N 6.51338 -0.907313 0.0270175 0
M  V30 18 O 6.46095 1.76462 -0.0853838 0
M  V30 19 O 5.92543 0.694953 2.07742 0
M  V30 20 H -3.82489 1.61354 0.473253 0
M  V30 21 H -4.54221 1.36934 2.02208 0
M  V30 22 H -5.75601 1.04321 -0.384904 0
M  V30 23 H -6.25708 0.25818 1.19489 0
M  V30 24 H -5.01172 -1.73073 0.802666 0
M  V30 25 H -6.13925 -1.4028 -0.561684 0
M  V30 26 H -4.16543 -2.29189 -1.4753 0
M  V30 27 H -4.28006 -0.609836 -2.01245 0
M  V30 28 H 0.0409439 -1.56 -0.714397 0
M  V30 29 H 0.205631 -0.814363 -2.30324 0
M  V30 30 H -0.542282 0.76058 0.295072 0
M  V30 31 H -0.289715 1.44 -1.34685 0
M  V30 32 H 1.98601 1.49677 -2.25715 0
M  V30 33 H 4.42354 1.48654 -1.73132 0
M  V30 34 H 3.60173 -0.30301 2.02174 0
M  V30 35 H 1.19832 -0.316504 1.55445 0
M  V30 36 H 6.89124 -1.47422 0.843446 0
M  V30 37 H 7.26458 -0.74685 -0.689405 0
M  V30 END ATOM
M  V30 BEGIN BOND
M  V30 1 1 1 2
M  V30 2 1 2 3
M  V30 3 1 3 4
M  V30 4 1 4 5
M  V30 5 2 5 6
M  V30 6 1 5 7
M  V30 7 1 7 8
M  V30 8 1 8 9
M  V30 9 1 9 10
M  V30 10 2 10 11
M  V30 11 1 11 12
M  V30 12 2 12 13
M  V30 13 1 13 14
M  V30 14 2 14 15
M  V30 15 1 13 16
M  V30 16 1 16 17
M  V30 17 2 16 18
M  V30 18 2 16 19
M  V30 19 1 15 10
M  V30 20 1 1 20
M  V30 21 1 1 21
M  V30 22 1 2 22
M  V30 23 1 2 23
M  V30 24 1 3 24
M  V30 25 1 3 25
M  V30 26 1 4 26
M  V30 27 1 4 27
M  V30 28 1 8 28
M  V30 29 1 8 29
M  V30 30 1 9 30
M  V30 31 1 9 31
M  V30 32 1 11 32
M  V30 33 1 12 33
M  V30 34 1 14 34
M  V30 35 1 15 35
M  V30 36 1 17 36
M  V30 37 1 17 37
M  V30 END BOND
M  V30 END CTAB
M  END
