
     RDKit          3D

  0  0  0  0  0  0  0  0  0  0999 V3000
M  V30 BEGIN CTAB
M  V30 COUNTS 31 31 0 0 0
M  V30 BEGIN ATOM
M  V30 1 C -2.4179 1.67258 0.344092 0
M  V30 2 C -2.60207 0.193248 0.513513 0 CFG=2
M  V30 3 C -1.35612 -0.608209 0.269535 0
M  V30 4 C -0.83248 -0.422636 -1.11281 0
M  V30 5 C 0.527358 -1.03049 -1.30581 0
M  V30 6 N 1.44792 -0.639428 -0.258798 0
M  V30 7 C 1.01491 -0.762765 1.10469 0
M  V30 8 C -0.396568 -0.338066 1.35912 0
M  V30 9 C 2.73743 -0.149947 -0.510938 0
M  V30 10 N 2.98872 1.08524 -0.358444 0
M  V30 11 N 2.05671 2.03774 0.0548691 0
M  V30 12 N 3.75627 -1.01766 -0.932068 0
M  V30 13 O -3.641 -0.214473 -0.355986 0
M  V30 14 H -1.83327 2.12972 1.17121 0
M  V30 15 H -2.05656 1.97255 -0.653806 0
M  V30 16 H -3.44828 2.12183 0.453168 0
M  V30 17 H -3.01742 0.0363774 1.53442 0
M  V30 18 H -1.66489 -1.69179 0.352904 0
M  V30 19 H -1.52588 -0.981533 -1.80849 0
M  V30 20 H -0.801162 0.600778 -1.48085 0
M  V30 21 H 0.926505 -0.627017 -2.27015 0
M  V30 22 H 0.490747 -2.13731 -1.41031 0
M  V30 23 H 1.65816 -0.115592 1.73442 0
M  V30 24 H 1.18829 -1.80257 1.49358 0
M  V30 25 H -0.426802 0.73136 1.63105 0
M  V30 26 H -0.738709 -0.886534 2.28525 0
M  V30 27 H 1.3198 2.42816 -0.566374 0
M  V30 28 H 2.13389 2.35399 1.05336 0
M  V30 29 H 4.14173 -1.69489 -0.210411 0
M  V30 30 H 4.15665 -1.04198 -1.89699 0
M  V30 31 H -3.78599 -1.20067 -0.22294 0
M  V30 END ATOM
M  V30 BEGIN BOND
M  V30 1 1 1 2
M  V30 2 1 2 3
M  V30 3 1 3 4
M  V30 4 1 4 5
M  V30 5 1 5 6
M  V30 6 1 6 7
M  V30 7 1 7 8
M  V30 8 1 6 9
M  V30 9 2 9 10 CFG=2
M  V30 10 1 10 11
M  V30 11 1 9 12
M  V30 12 1 2 13
M  V30 13 1 8 3
M  V30 14 1 1 14
M  V30 15 1 1 15
M  V30 16 1 1 16
M  V30 17 1 2 17 CFG=1
M  V30 18 1 3 18
M  V30 19 1 4 19
M  V30 20 1 4 20
M  V30 21 1 5 21
M  V30 22 1 5 22
M  V30 23 1 7 23
M  V30 24 1 7 24
M  V30 25 1 8 25
M  V30 26 1 8 26
M  V30 27 1 11 27
M  V30 28 1 11 28
M  V30 29 1 12 29
M  V30 30 1 12 30
M  V30 31 1 13 31
M  V30 END BOND
M  V30 END CTAB
M  END
