
     RDKit          3D

  0  0  0  0  0  0  0  0  0  0999 V3000
M  V30 BEGIN CTAB
M  V30 COUNTS 34 36 0 0 0
M  V30 BEGIN ATOM
M  V30 1 N 5.53697 1.71044 0.796971 0
M  V30 2 C 4.27755 1.1564 0.493448 0
M  V30 3 N 3.8072 0.121259 1.2121 0
M  V30 4 C 2.61563 -0.443358 0.963201 0
M  V30 5 C 2.16475 -1.50725 1.72123 0
M  V30 6 C 0.947141 -2.10861 1.48784 0
M  V30 7 C 0.195588 -1.58781 0.448153 0
M  V30 8 C 0.582612 -0.535169 -0.341296 0
M  V30 9 O -0.150899 -0.00325495 -1.38777 0
M  V30 10 C -1.41643 -0.45439 -1.75917 0
M  V30 11 C -2.48428 -0.205727 -0.777321 0
M  V30 12 C -2.35511 0.52944 0.373423 0
M  V30 13 C -3.44777 0.742619 1.19542 0
M  V30 14 C -4.69733 0.243817 0.914883 0
M  V30 15 C -4.83886 -0.498186 -0.243748 0
M  V30 16 C -3.75831 -0.718295 -1.07096 0
M  V30 17 F -3.91925 -1.44294 -2.19094 0
M  V30 18 C 1.8364 0.0269303 -0.044051 0
M  V30 19 C 2.2994 1.08432 -0.78962 0
M  V30 20 N 1.47518 1.56936 -1.84066 0
M  V30 21 N 3.50363 1.62503 -0.508002 0
M  V30 22 H 5.65513 2.31203 1.62537 0
M  V30 23 H 6.34541 1.51326 0.188162 0
M  V30 24 H 2.79972 -1.86313 2.51554 0
M  V30 25 H 0.621183 -2.93695 2.0955 0
M  V30 26 H -0.754723 -2.06684 0.248669 0
M  V30 27 H -1.73166 -0.000913658 -2.74972 0
M  V30 28 H -1.42644 -1.55585 -1.97914 0
M  V30 29 H -1.41472 0.971225 0.655025 0
M  V30 30 H -3.29365 1.32277 2.08267 0
M  V30 31 H -5.52271 0.435354 1.58562 0
M  V30 32 H -5.82432 -0.914177 -0.50331 0
M  V30 33 H 1.6224 1.20068 -2.79194 0
M  V30 34 H 0.750586 2.2779 -1.62558 0
M  V30 END ATOM
M  V30 BEGIN BOND
M  V30 1 1 1 2
M  V30 2 2 2 3
M  V30 3 1 3 4
M  V30 4 2 4 5
M  V30 5 1 5 6
M  V30 6 2 6 7
M  V30 7 1 7 8
M  V30 8 1 8 9
M  V30 9 1 9 10
M  V30 10 1 10 11
M  V30 11 2 11 12
M  V30 12 1 12 13
M  V30 13 2 13 14
M  V30 14 1 14 15
M  V30 15 2 15 16
M  V30 16 1 16 17
M  V30 17 2 8 18
M  V30 18 1 18 19
M  V30 19 1 19 20
M  V30 20 2 19 21
M  V30 21 1 21 2
M  V30 22 1 18 4
M  V30 23 1 16 11
M  V30 24 1 1 22
M  V30 25 1 1 23
M  V30 26 1 5 24
M  V30 27 1 6 25
M  V30 28 1 7 26
M  V30 29 1 10 27
M  V30 30 1 10 28
M  V30 31 1 12 29
M  V30 32 1 13 30
M  V30 33 1 14 31
M  V30 34 1 15 32
M  V30 35 1 20 33
M  V30 36 1 20 34
M  V30 END BOND
M  V30 END CTAB
M  END
