
     RDKit          3D

  0  0  0  0  0  0  0  0  0  0999 V3000
M  V30 BEGIN CTAB
M  V30 COUNTS 35 37 0 0 0
M  V30 BEGIN ATOM
M  V30 1 N 3.71437 1.66117 -0.334977 0
M  V30 2 C 3.94415 0.216975 -0.28527 0
M  V30 3 N 5.32746 -0.113082 -0.0688963 0
M  V30 4 N 2.99804 -0.489266 -0.43888 0
M  V30 5 C 2.18553 -1.55272 -0.566963 0
M  V30 6 O 2.57768 -2.74136 -0.482748 0
M  V30 7 C 0.760238 -1.34271 -0.830164 0
M  V30 8 C -0.117836 -0.665644 -0.0198532 0
M  V30 9 C -0.080579 -0.381982 1.36932 0
M  V30 10 C 0.586722 0.721713 2.07294 0
M  V30 11 C 0.939069 -0.743542 2.37163 0
M  V30 12 N -1.2341 -0.546368 -0.807153 0
M  V30 13 N -1.01784 -1.12373 -2.00306 0
M  V30 14 C 0.216876 -1.63827 -2.05715 0
M  V30 15 C -2.48321 0.044617 -0.483171 0
M  V30 16 C -2.74995 1.36079 -0.765177 0
M  V30 17 C -3.96841 1.92168 -0.498742 0
M  V30 18 C -5.00403 1.19666 0.0689912 0
M  V30 19 C -4.76215 -0.12554 0.363775 0
M  V30 20 C -3.52724 -0.67907 0.091372 0
M  V30 21 Cl -3.24523 -2.36524 0.4545 0
M  V30 22 H 3.9866 2.19072 -1.19596 0
M  V30 23 H 3.29551 2.07664 0.489786 0
M  V30 24 H 5.72197 -1.06029 -0.220222 0
M  V30 25 H 6.00109 0.621095 0.261262 0
M  V30 26 H -1.17966 -0.497924 1.84534 0
M  V30 27 H 1.46552 1.29283 1.68981 0
M  V30 28 H 0.0917937 1.23566 2.90652 0
M  V30 29 H 1.95366 -1.06747 2.15822 0
M  V30 30 H 0.592299 -1.12421 3.39406 0
M  V30 31 H 0.668441 -2.15486 -2.87393 0
M  V30 32 H -1.95141 1.95389 -1.21827 0
M  V30 33 H -4.16508 2.96086 -0.73827 0
M  V30 34 H -5.96931 1.67438 0.267343 0
M  V30 35 H -5.57097 -0.716395 0.824987 0
M  V30 END ATOM
M  V30 BEGIN BOND
M  V30 1 1 1 2
M  V30 2 1 2 3
M  V30 3 2 2 4
M  V30 4 1 4 5
M  V30 5 2 5 6
M  V30 6 1 5 7
M  V30 7 2 7 8
M  V30 8 1 8 9
M  V30 9 1 9 10
M  V30 10 1 10 11
M  V30 11 1 8 12
M  V30 12 1 12 13
M  V30 13 2 13 14
M  V30 14 1 12 15
M  V30 15 2 15 16
M  V30 16 1 16 17
M  V30 17 2 17 18
M  V30 18 1 18 19
M  V30 19 2 19 20
M  V30 20 1 20 21
M  V30 21 1 14 7
M  V30 22 1 20 15
M  V30 23 1 11 9
M  V30 24 1 1 22
M  V30 25 1 1 23
M  V30 26 1 3 24
M  V30 27 1 3 25
M  V30 28 1 9 26
M  V30 29 1 10 27
M  V30 30 1 10 28
M  V30 31 1 11 29
M  V30 32 1 11 30
M  V30 33 1 14 31
M  V30 34 1 16 32
M  V30 35 1 17 33
M  V30 36 1 18 34
M  V30 37 1 19 35
M  V30 END BOND
M  V30 END CTAB
M  END
