
     RDKit          3D

  0  0  0  0  0  0  0  0  0  0999 V3000
M  V30 BEGIN CTAB
M  V30 COUNTS 32 33 0 0 0
M  V30 BEGIN ATOM
M  V30 1 N 2.6336 0.159132 1.30066 0
M  V30 2 C 2.22367 -0.0883461 -0.0775039 0
M  V30 3 C 1.89622 1.22899 -0.707193 0
M  V30 4 C 0.647051 1.8365 -0.169751 0
M  V30 5 C -0.409551 0.883059 0.225343 0
M  V30 6 C -1.741 1.3584 -0.332301 0
M  V30 7 C -2.87799 0.469511 0.000551597 0
M  V30 8 C -2.57057 -0.822033 0.628377 0
M  V30 9 C -1.21949 -1.37449 0.488729 0
M  V30 10 C -0.244305 -0.514294 -0.283487 0
M  V30 11 C 1.11958 -1.08188 -0.113952 0
M  V30 12 N 1.31949 -2.07377 -1.17568 0
M  V30 13 H 3.40583 -0.483863 1.56374 0
M  V30 14 H 1.80879 -0.107676 1.91506 0
M  V30 15 H 3.15191 -0.472627 -0.593551 0
M  V30 16 H 2.74725 1.92798 -0.457166 0
M  V30 17 H 1.8725 1.20126 -1.81755 0
M  V30 18 H 0.89974 2.47245 0.7237 0
M  V30 19 H 0.269191 2.56652 -0.930189 0
M  V30 20 H -0.535796 0.840019 1.3468 0
M  V30 21 H -1.59503 1.45949 -1.44765 0
M  V30 22 H -1.86871 2.40871 0.0300326 0
M  V30 23 H -3.58133 1.07019 0.652466 0
M  V30 24 H -3.47482 0.314675 -0.946724 0
M  V30 25 H -3.30974 -1.58971 0.2487 0
M  V30 26 H -2.8161 -0.756227 1.73042 0
M  V30 27 H -0.725812 -1.5649 1.48349 0
M  V30 28 H -1.21058 -2.38737 -0.0100486 0
M  V30 29 H -0.478317 -0.509913 -1.37634 0
M  V30 30 H 1.15654 -1.66529 0.8461 0
M  V30 31 H 1.57386 -2.9991 -0.815284 0
M  V30 32 H 1.93391 -1.70538 -1.9298 0
M  V30 END ATOM
M  V30 BEGIN BOND
M  V30 1 1 1 2
M  V30 2 1 2 3
M  V30 3 1 3 4
M  V30 4 1 4 5
M  V30 5 1 5 6
M  V30 6 1 6 7
M  V30 7 1 7 8
M  V30 8 1 8 9
M  V30 9 1 9 10
M  V30 10 1 10 11
M  V30 11 1 11 12
M  V30 12 1 11 2
M  V30 13 1 10 5
M  V30 14 1 1 13
M  V30 15 1 1 14
M  V30 16 1 2 15
M  V30 17 1 3 16
M  V30 18 1 3 17
M  V30 19 1 4 18
M  V30 20 1 4 19
M  V30 21 1 5 20
M  V30 22 1 6 21
M  V30 23 1 6 22
M  V30 24 1 7 23
M  V30 25 1 7 24
M  V30 26 1 8 25
M  V30 27 1 8 26
M  V30 28 1 9 27
M  V30 29 1 9 28
M  V30 30 1 10 29
M  V30 31 1 11 30
M  V30 32 1 12 31
M  V30 33 1 12 32
M  V30 END BOND
M  V30 END CTAB
M  END
