
     RDKit          3D

  0  0  0  0  0  0  0  0  0  0999 V3000
M  V30 BEGIN CTAB
M  V30 COUNTS 31 32 0 0 0
M  V30 BEGIN ATOM
M  V30 1 C -2.88461 1.8423 -0.914622 0
M  V30 2 C -3.16721 0.542158 -0.289757 0
M  V30 3 C -4.47401 0.0630813 -0.331415 0
M  V30 4 C -4.76426 -1.14778 0.244425 0
M  V30 5 C -3.76823 -1.87933 0.85716 0
M  V30 6 C -2.47671 -1.39206 0.891019 0
M  V30 7 C -2.16131 -0.178532 0.319453 0
M  V30 8 N -0.818056 0.277468 0.381569 0
M  V30 9 N 0.13271 -0.508683 0.0849247 0
M  V30 10 C 1.50211 -0.137593 0.119442 0
M  V30 11 C 2.05928 0.61918 1.11924 0
M  V30 12 C 3.38809 0.946251 1.099 0
M  V30 13 C 4.23978 0.539933 0.0837228 0
M  V30 14 N 5.61288 0.895981 0.0922176 0
M  V30 15 C 3.67076 -0.219622 -0.915676 0
M  V30 16 C 2.31687 -0.560571 -0.907592 0
M  V30 17 N 1.78716 -1.34506 -1.96392 0
M  V30 18 H -2.16772 2.45679 -0.330102 0
M  V30 19 H -3.81417 2.4378 -0.986495 0
M  V30 20 H -2.48029 1.73865 -1.9628 0
M  V30 21 H -5.27023 0.617099 -0.804923 0
M  V30 22 H -5.76862 -1.5248 0.217086 0
M  V30 23 H -3.98822 -2.81872 1.30507 0
M  V30 24 H -1.69124 -1.97215 1.37591 0
M  V30 25 H 1.38822 0.937835 1.91677 0
M  V30 26 H 3.81828 1.54318 1.89149 0
M  V30 27 H 6.1206 1.09464 0.977303 0
M  V30 28 H 6.13581 0.963607 -0.799133 0
M  V30 29 H 4.33252 -0.541232 -1.71416 0
M  V30 30 H 2.23814 -2.244 -2.22229 0
M  V30 31 H 0.951712 -1.04581 -2.49465 0
M  V30 END ATOM
M  V30 BEGIN BOND
M  V30 1 1 1 2
M  V30 2 2 2 3
M  V30 3 1 3 4
M  V30 4 2 4 5
M  V30 5 1 5 6
M  V30 6 2 6 7
M  V30 7 1 7 8
M  V30 8 2 8 9
M  V30 9 1 9 10
M  V30 10 2 10 11
M  V30 11 1 11 12
M  V30 12 2 12 13
M  V30 13 1 13 14
M  V30 14 1 13 15
M  V30 15 2 15 16
M  V30 16 1 16 17
M  V30 17 1 7 2
M  V30 18 1 16 10
M  V30 19 1 1 18
M  V30 20 1 1 19
M  V30 21 1 1 20
M  V30 22 1 3 21
M  V30 23 1 4 22
M  V30 24 1 5 23
M  V30 25 1 6 24
M  V30 26 1 11 25
M  V30 27 1 12 26
M  V30 28 1 14 27
M  V30 29 1 14 28
M  V30 30 1 15 29
M  V30 31 1 17 30
M  V30 32 1 17 31
M  V30 END BOND
M  V30 END CTAB
M  END
