
     RDKit          3D

  0  0  0  0  0  0  0  0  0  0999 V3000
M  V30 BEGIN CTAB
M  V30 COUNTS 28 28 0 0 0
M  V30 BEGIN ATOM
M  V30 1 N 0.952451 -0.346528 -1.83685 0
M  V30 2 C 1.23146 0.389242 -0.58383 0
M  V30 3 C 2.04235 -0.36311 0.357754 0
M  V30 4 C 2.46937 0.307412 1.60007 0
M  V30 5 F 3.23381 -0.662626 2.30179 0
M  V30 6 F 3.4091 1.32232 1.33693 0
M  V30 7 F 1.5402 0.722173 2.49252 0
M  V30 8 N 3.30962 -0.713857 -0.341865 0
M  V30 9 C 0.0097236 1.11891 -0.210744 0
M  V30 10 C -1.24118 0.436376 -0.0351997 0
M  V30 11 C -2.11397 0.178219 -1.11552 0
M  V30 12 C -3.30739 -0.44556 -0.995458 0
M  V30 13 C -3.73025 -0.871525 0.255982 0
M  V30 14 C -2.92414 -0.644717 1.32332 0
M  V30 15 C -1.69337 0.00354717 1.17115 0
M  V30 16 H 0.447774 -1.21694 -1.66858 0
M  V30 17 H 0.575384 0.275058 -2.56631 0
M  V30 18 H 1.942 1.19346 -0.989091 0
M  V30 19 H 1.62515 -1.35971 0.661285 0
M  V30 20 H 3.88084 0.167891 -0.296621 0
M  V30 21 H 3.10042 -0.83857 -1.37334 0
M  V30 22 H 0.211607 1.77186 0.69029 0
M  V30 23 H -0.167081 1.90567 -1.01315 0
M  V30 24 H -1.7569 0.517619 -2.0526 0
M  V30 25 H -3.9491 -0.625281 -1.84926 0
M  V30 26 H -4.68785 -1.36913 0.334311 0
M  V30 27 H -3.25254 -0.976164 2.29888 0
M  V30 28 H -1.1575 0.123966 2.10413 0
M  V30 END ATOM
M  V30 BEGIN BOND
M  V30 1 1 1 2
M  V30 2 1 2 3
M  V30 3 1 3 4
M  V30 4 1 4 5
M  V30 5 1 4 6
M  V30 6 1 4 7
M  V30 7 1 3 8
M  V30 8 1 2 9
M  V30 9 1 9 10
M  V30 10 2 10 11
M  V30 11 1 11 12
M  V30 12 2 12 13
M  V30 13 1 13 14
M  V30 14 2 14 15
M  V30 15 1 15 10
M  V30 16 1 1 16
M  V30 17 1 1 17
M  V30 18 1 2 18
M  V30 19 1 3 19
M  V30 20 1 8 20
M  V30 21 1 8 21
M  V30 22 1 9 22
M  V30 23 1 9 23
M  V30 24 1 11 24
M  V30 25 1 12 25
M  V30 26 1 13 26
M  V30 27 1 14 27
M  V30 28 1 15 28
M  V30 END BOND
M  V30 END CTAB
M  END
