
     RDKit          3D

  0  0  0  0  0  0  0  0  0  0999 V3000
M  V30 BEGIN CTAB
M  V30 COUNTS 19 19 0 0 0
M  V30 BEGIN ATOM
M  V30 1 N 3.53983 -0.0345853 0.30685 0
M  V30 2 C 2.16423 -0.516739 0.154938 0
M  V30 3 C 1.27389 0.691891 0.190946 0
M  V30 4 C -0.155353 0.252291 0.0385376 0
M  V30 5 C -0.626822 -1.03474 -0.112601 0
M  V30 6 N -1.96879 -0.990253 -0.215339 0
M  V30 7 C -2.36495 0.309823 -0.132017 0
M  V30 8 N -3.71477 0.744997 -0.200852 0
M  V30 9 N -1.24483 1.04068 0.0215635 0
M  V30 10 H 3.6041 0.796546 -0.353294 0
M  V30 11 H 3.63326 0.364227 1.27085 0
M  V30 12 H 2.10885 -1.01698 -0.824314 0
M  V30 13 H 1.9032 -1.25389 0.932578 0
M  V30 14 H 1.34414 1.20444 1.15879 0
M  V30 15 H 1.49945 1.34102 -0.664515 0
M  V30 16 H 0.0299032 -1.89881 -0.136712 0
M  V30 17 H -2.58786 -1.82459 -0.338224 0
M  V30 18 H -3.97975 1.51843 -0.839371 0
M  V30 19 H -4.45773 0.306234 0.377446 0
M  V30 END ATOM
M  V30 BEGIN BOND
M  V30 1 1 1 2
M  V30 2 1 2 3
M  V30 3 1 3 4
M  V30 4 2 4 5
M  V30 5 1 5 6
M  V30 6 1 6 7
M  V30 7 1 7 8
M  V30 8 2 7 9
M  V30 9 1 9 4
M  V30 10 1 1 10
M  V30 11 1 1 11
M  V30 12 1 2 12
M  V30 13 1 2 13
M  V30 14 1 3 14
M  V30 15 1 3 15
M  V30 16 1 5 16
M  V30 17 1 6 17
M  V30 18 1 8 18
M  V30 19 1 8 19
M  V30 END BOND
M  V30 END CTAB
M  END
