
     RDKit          3D

  0  0  0  0  0  0  0  0  0  0999 V3000
M  V30 BEGIN CTAB
M  V30 COUNTS 40 42 0 0 0
M  V30 BEGIN ATOM
M  V30 1 C -4.33209 -3.35144 0.352291 0
M  V30 2 C -3.26072 -2.33237 0.283132 0
M  V30 3 C -2.99306 -1.662 -0.905547 0
M  V30 4 C -2.0085 -0.726943 -0.9437 0
M  V30 5 C -1.22575 -0.383514 0.156451 0
M  V30 6 C -1.49733 -1.05223 1.32786 0
M  V30 7 C -2.49558 -2.00582 1.38454 0
M  V30 8 C -0.199268 0.628927 0.0112666 0
M  V30 9 C -0.323852 2.01543 -0.073388 0
M  V30 10 N 0.894448 2.55544 -0.19564 0
M  V30 11 C 1.83651 1.59795 -0.196968 0
M  V30 12 C 3.21196 1.64226 -0.292308 0
M  V30 13 C 3.88899 0.447799 -0.254968 0
M  V30 14 C 3.25364 -0.780915 -0.128087 0
M  V30 15 C 1.88473 -0.793659 -0.0356252 0
M  V30 16 C 1.15319 0.380922 -0.0668977 0
M  V30 17 S 4.13421 -2.28475 -0.0786015 0
M  V30 18 N 5.81104 -1.97291 -0.198747 0
M  V30 19 O 3.89589 -2.98723 1.24648 0
M  V30 20 O 3.74796 -3.21527 -1.19763 0
M  V30 21 C -1.6241 2.66682 -0.0115525 0
M  V30 22 O -2.69268 2.04805 0.217438 0
M  V30 23 N -1.71233 4.07158 -0.219496 0
M  V30 24 N -2.95074 4.74155 -0.168646 0
M  V30 25 H -3.9817 -4.32532 0.746032 0
M  V30 26 H -5.23875 -2.97216 0.900222 0
M  V30 27 H -4.698 -3.54631 -0.691109 0
M  V30 28 H -3.56224 -1.86978 -1.82221 0
M  V30 29 H -1.82556 -0.214736 -1.90319 0
M  V30 30 H -0.888638 -0.791686 2.20493 0
M  V30 31 H -2.6878 -2.52326 2.32983 0
M  V30 32 H 1.09458 3.56745 -0.276372 0
M  V30 33 H 3.68341 2.61191 -0.390327 0
M  V30 34 H 4.96673 0.439421 -0.328355 0
M  V30 35 H 1.32189 -1.70854 0.0643955 0
M  V30 36 H 6.13328 -1.62372 -1.10921 0
M  V30 37 H 6.22406 -1.51734 0.637362 0
M  V30 38 H -0.855038 4.63589 -0.419179 0
M  V30 39 H -3.20993 4.97831 0.818573 0
M  V30 40 H -2.87288 5.61219 -0.773058 0
M  V30 END ATOM
M  V30 BEGIN BOND
M  V30 1 1 1 2
M  V30 2 2 2 3
M  V30 3 1 3 4
M  V30 4 2 4 5
M  V30 5 1 5 6
M  V30 6 2 6 7
M  V30 7 1 5 8
M  V30 8 2 8 9
M  V30 9 1 9 10
M  V30 10 1 10 11
M  V30 11 2 11 12
M  V30 12 1 12 13
M  V30 13 2 13 14
M  V30 14 1 14 15
M  V30 15 2 15 16
M  V30 16 1 14 17
M  V30 17 1 17 18
M  V30 18 2 17 19
M  V30 19 2 17 20
M  V30 20 1 9 21
M  V30 21 2 21 22
M  V30 22 1 21 23
M  V30 23 1 23 24
M  V30 24 1 7 2
M  V30 25 1 16 8
M  V30 26 1 16 11
M  V30 27 1 1 25
M  V30 28 1 1 26
M  V30 29 1 1 27
M  V30 30 1 3 28
M  V30 31 1 4 29
M  V30 32 1 6 30
M  V30 33 1 7 31
M  V30 34 1 10 32
M  V30 35 1 12 33
M  V30 36 1 13 34
M  V30 37 1 15 35
M  V30 38 1 18 36
M  V30 39 1 18 37
M  V30 40 1 23 38
M  V30 41 1 24 39
M  V30 42 1 24 40
M  V30 END BOND
M  V30 END CTAB
M  END
