
     RDKit          3D

  0  0  0  0  0  0  0  0  0  0999 V3000
M  V30 BEGIN CTAB
M  V30 COUNTS 45 47 0 0 0
M  V30 BEGIN ATOM
M  V30 1 N 6.82684 3.69667 0.992946 0
M  V30 2 N 6.25309 2.46393 0.671214 0
M  V30 3 C 4.8562 2.29814 0.502238 0
M  V30 4 O 4.12791 3.31147 0.652482 0
M  V30 5 C 4.23797 1.02 0.166303 0
M  V30 6 C 4.99375 -0.120251 -0.00273906 0
M  V30 7 C 4.36138 -1.30385 -0.320451 0
M  V30 8 C 2.98742 -1.41875 -0.483072 0
M  V30 9 C 2.24053 -0.261209 -0.309411 0
M  V30 10 C 2.85631 0.925197 0.00725473 0
M  V30 11 N 0.927363 -0.394228 -0.471693 0
M  V30 12 C 0.297965 -1.57245 -0.789514 0
M  V30 13 N 1.01914 -2.66541 -0.949681 0
M  V30 14 C 2.37673 -2.59569 -0.797497 0
M  V30 15 O 3.03411 -3.6493 -0.957297 0
M  V30 16 N 0.482494 -3.9527 -1.2339 0
M  V30 17 C -1.15586 -1.51544 -0.888146 0
M  V30 18 C -1.93082 -2.47512 -1.44653 0
M  V30 19 C -3.33488 -2.39276 -1.46424 0
M  V30 20 C -3.93128 -1.29429 -0.893171 0
M  V30 21 C -3.18807 -0.289465 -0.313402 0
M  V30 22 C -1.81229 -0.414683 -0.319394 0
M  V30 23 O -3.76114 0.827677 0.268107 0
M  V30 24 C -5.08603 1.14859 0.382845 0
M  V30 25 C -5.35281 2.4621 -0.373467 0
M  V30 26 C -5.51782 1.44251 1.81504 0
M  V30 27 H 7.18616 4.19735 0.169259 0
M  V30 28 H 6.05742 4.28621 1.39481 0
M  V30 29 H 6.92282 1.67291 0.563602 0
M  V30 30 H 6.07878 -0.10573 0.109334 0
M  V30 31 H 4.93739 -2.21398 -0.458104 0
M  V30 32 H 2.25353 1.81172 0.137189 0
M  V30 33 H -0.0161894 -4.41298 -0.444556 0
M  V30 34 H 0.594267 -4.39361 -2.17942 0
M  V30 35 H -1.52862 -3.34337 -1.94098 0
M  V30 36 H -3.91175 -3.18199 -1.91928 0
M  V30 37 H -5.02753 -1.19584 -0.8884 0
M  V30 38 H -1.21114 0.375677 0.138462 0
M  V30 39 H -5.74948 0.40555 -0.0510486 0
M  V30 40 H -4.79135 2.46145 -1.30993 0
M  V30 41 H -5.07325 3.30584 0.294832 0
M  V30 42 H -6.45028 2.51098 -0.52646 0
M  V30 43 H -5.07707 0.74692 2.5359 0
M  V30 44 H -6.63575 1.28262 1.84123 0
M  V30 45 H -5.36617 2.50958 2.08109 0
M  V30 END ATOM
M  V30 BEGIN BOND
M  V30 1 1 1 2
M  V30 2 1 2 3
M  V30 3 2 3 4
M  V30 4 1 3 5
M  V30 5 2 5 6
M  V30 6 1 6 7
M  V30 7 2 7 8
M  V30 8 1 8 9
M  V30 9 2 9 10
M  V30 10 1 9 11
M  V30 11 2 11 12
M  V30 12 1 12 13
M  V30 13 1 13 14
M  V30 14 2 14 15
M  V30 15 1 13 16
M  V30 16 1 12 17
M  V30 17 2 17 18
M  V30 18 1 18 19
M  V30 19 2 19 20
M  V30 20 1 20 21
M  V30 21 2 21 22
M  V30 22 1 21 23
M  V30 23 1 23 24
M  V30 24 1 24 25
M  V30 25 1 24 26
M  V30 26 1 10 5
M  V30 27 1 22 17
M  V30 28 1 14 8
M  V30 29 1 1 27
M  V30 30 1 1 28
M  V30 31 1 2 29
M  V30 32 1 6 30
M  V30 33 1 7 31
M  V30 34 1 10 32
M  V30 35 1 16 33
M  V30 36 1 16 34
M  V30 37 1 18 35
M  V30 38 1 19 36
M  V30 39 1 20 37
M  V30 40 1 22 38
M  V30 41 1 24 39
M  V30 42 1 25 40
M  V30 43 1 25 41
M  V30 44 1 25 42
M  V30 45 1 26 43
M  V30 46 1 26 44
M  V30 47 1 26 45
M  V30 END BOND
M  V30 END CTAB
M  END
