
     RDKit          3D

  0  0  0  0  0  0  0  0  0  0999 V3000
M  V30 BEGIN CTAB
M  V30 COUNTS 27 28 0 0 0
M  V30 BEGIN ATOM
M  V30 1 C 4.84463 -0.861201 0.636927 0
M  V30 2 O 3.99282 -1.36356 -0.37759 0
M  V30 3 C 2.71483 -0.819551 -0.449559 0
M  V30 4 C 1.80788 -1.25705 -1.42094 0
M  V30 5 C 0.543164 -0.717407 -1.49073 0
M  V30 6 C 0.120205 0.268127 -0.614443 0
M  V30 7 C 1.00833 0.708523 0.350164 0
M  V30 8 C 2.26405 0.163262 0.408887 0
M  V30 9 N 0.569982 1.72064 1.24799 0
M  V30 10 S -1.5224 0.962823 -0.71199 0
M  V30 11 C -2.67177 0.0499687 0.294803 0
M  V30 12 N -2.40807 -1.02469 1.05061 0
M  V30 13 N -3.54495 -1.40633 1.64586 0
M  V30 14 C -4.49757 -0.544524 1.23661 0
M  V30 15 N -3.96959 0.356884 0.403661 0
M  V30 16 N -4.67422 1.39465 -0.206668 0
M  V30 17 H 5.8427 -1.33472 0.62354 0
M  V30 18 H 4.3593 -1.10905 1.60528 0
M  V30 19 H 4.9046 0.249236 0.599976 0
M  V30 20 H 2.09554 -2.01897 -2.11932 0
M  V30 21 H -0.150776 -1.06574 -2.24916 0
M  V30 22 H 2.93983 0.521114 1.16829 0
M  V30 23 H 0.805209 2.72352 1.11216 0
M  V30 24 H -0.000600543 1.44724 2.06066 0
M  V30 25 H -5.5196 -0.622319 1.56785 0
M  V30 26 H -5.70769 1.34704 -0.347605 0
M  V30 27 H -4.14584 2.23208 -0.525278 0
M  V30 END ATOM
M  V30 BEGIN BOND
M  V30 1 1 1 2
M  V30 2 1 2 3
M  V30 3 2 3 4
M  V30 4 1 4 5
M  V30 5 2 5 6
M  V30 6 1 6 7
M  V30 7 2 7 8
M  V30 8 1 7 9
M  V30 9 1 6 10
M  V30 10 1 10 11
M  V30 11 2 11 12
M  V30 12 1 12 13
M  V30 13 2 13 14
M  V30 14 1 14 15
M  V30 15 1 15 16
M  V30 16 1 8 3
M  V30 17 1 15 11
M  V30 18 1 1 17
M  V30 19 1 1 18
M  V30 20 1 1 19
M  V30 21 1 4 20
M  V30 22 1 5 21
M  V30 23 1 8 22
M  V30 24 1 9 23
M  V30 25 1 9 24
M  V30 26 1 14 25
M  V30 27 1 16 26
M  V30 28 1 16 27
M  V30 END BOND
M  V30 END CTAB
M  END
