
     RDKit          3D

  0  0  0  0  0  0  0  0  0  0999 V3000
M  V30 BEGIN CTAB
M  V30 COUNTS 18 18 0 0 0
M  V30 BEGIN ATOM
M  V30 1 N -3.05293 -0.736087 -2.40302 0
M  V30 2 C -2.1753 -0.503154 -1.6728 0
M  V30 3 C -1.07793 -0.226083 -0.771245 0
M  V30 4 C 0.225851 -0.414198 -1.17657 0
M  V30 5 C 1.31531 -0.164735 -0.354637 0
M  V30 6 N 2.61942 -0.38999 -0.865879 0
M  V30 7 C 1.07943 0.290939 0.922093 0
M  V30 8 C -0.23241 0.490383 1.35894 0
M  V30 9 C -1.2999 0.230873 0.510548 0
M  V30 10 N -2.63383 0.433454 0.954202 0
M  V30 11 O 2.14163 0.550433 1.76992 0
M  V30 12 H 0.427174 -0.775499 -2.18746 0
M  V30 13 H 3.46794 0.160334 -0.616967 0
M  V30 14 H 2.74303 -1.16882 -1.54643 0
M  V30 15 H -0.39999 0.844611 2.35302 0
M  V30 16 H -2.89903 -0.0223658 1.86542 0
M  V30 17 H -3.32709 0.998562 0.421917 0
M  V30 18 H 3.07864 0.401341 1.43893 0
M  V30 END ATOM
M  V30 BEGIN BOND
M  V30 1 3 1 2
M  V30 2 1 2 3
M  V30 3 2 3 4
M  V30 4 1 4 5
M  V30 5 1 5 6
M  V30 6 2 5 7
M  V30 7 1 7 8
M  V30 8 2 8 9
M  V30 9 1 9 10
M  V30 10 1 7 11
M  V30 11 1 9 3
M  V30 12 1 4 12
M  V30 13 1 6 13
M  V30 14 1 6 14
M  V30 15 1 8 15
M  V30 16 1 10 16
M  V30 17 1 10 17
M  V30 18 1 11 18
M  V30 END BOND
M  V30 END CTAB
M  END
