
     RDKit          3D

  0  0  0  0  0  0  0  0  0  0999 V3000
M  V30 BEGIN CTAB
M  V30 COUNTS 16 16 0 0 0
M  V30 BEGIN ATOM
M  V30 1 N -1.8901 1.14977 0.0513674 0
M  V30 2 C -0.574128 0.611382 0.0317993 0
M  V30 3 C 0.542699 1.44491 0.0838926 0
M  V30 4 C 1.82137 0.917936 0.0646726 0
M  V30 5 Cl 3.23332 1.97153 0.130496 0
M  V30 6 C 1.95157 -0.454387 -0.00748926 0
M  V30 7 Cl 3.57869 -1.14743 -0.0331471 0
M  V30 8 C 0.836834 -1.28305 -0.0593072 0
M  V30 9 C -0.440429 -0.757942 -0.04018 0
M  V30 10 N -1.6083 -1.56775 -0.0913586 0
M  V30 11 H -2.54863 1.02591 0.836373 0
M  V30 12 H -2.16774 1.70348 -0.812025 0
M  V30 13 H 0.405357 2.51671 0.140008 0
M  V30 14 H 0.967106 -2.35293 -0.115364 0
M  V30 15 H -2.27145 -1.57465 -0.887113 0
M  V30 16 H -1.83617 -2.20349 0.707376 0
M  V30 END ATOM
M  V30 BEGIN BOND
M  V30 1 1 1 2
M  V30 2 2 2 3
M  V30 3 1 3 4
M  V30 4 1 4 5
M  V30 5 2 4 6
M  V30 6 1 6 7
M  V30 7 1 6 8
M  V30 8 2 8 9
M  V30 9 1 9 10
M  V30 10 1 9 2
M  V30 11 1 1 11
M  V30 12 1 1 12
M  V30 13 1 3 13
M  V30 14 1 8 14
M  V30 15 1 10 15
M  V30 16 1 10 16
M  V30 END BOND
M  V30 END CTAB
M  END
