
     RDKit          3D

  0  0  0  0  0  0  0  0  0  0999 V3000
M  V30 BEGIN CTAB
M  V30 COUNTS 51 51 0 0 0
M  V30 BEGIN ATOM
M  V30 1 N 2.57009 -1.70368 1.35057 0
M  V30 2 C 1.25829 -1.13339 1.40932 0
M  V30 3 C 1.21734 0.291239 0.865686 0
M  V30 4 N 1.61787 0.430304 -0.485474 0
M  V30 5 C 3.08622 0.708304 -0.595013 0
M  V30 6 O 3.58115 0.819988 -1.7085 0
M  V30 7 O 3.81987 0.83096 0.538305 0
M  V30 8 C 5.18313 1.09576 0.420809 0
M  V30 9 C 5.46921 2.39328 -0.305365 0
M  V30 10 C 5.97304 -0.011427 -0.220599 0
M  V30 11 C 5.71352 1.27067 1.85066 0
M  V30 12 C 1.08695 0.365735 -1.74567 0
M  V30 13 C -0.0976815 0.235868 -2.17368 0
M  V30 14 C -1.24443 0.122611 -1.35058 0
M  V30 15 O -1.42711 0.125167 -0.12997 0
M  V30 16 N -2.48619 -0.0318909 -2.12529 0
M  V30 17 C -3.70867 -0.141039 -1.43924 0
M  V30 18 C -4.01405 0.584216 -0.330192 0
M  V30 19 C -5.23655 0.40235 0.336366 0
M  V30 20 C -6.10775 -0.530224 -0.172648 0
M  V30 21 C -5.81853 -1.27353 -1.29399 0
M  V30 22 C -4.61577 -1.07625 -1.92632 0
M  V30 23 S -7.63601 -0.776407 0.637652 0
M  V30 24 O -8.0281 0.487803 1.34294 0
M  V30 25 O -8.69595 -1.16057 -0.355899 0
M  V30 26 N -7.4609 -2.00649 1.84292 0
M  V30 27 C -0.314619 0.199398 -3.66464 0
M  V30 28 N -0.500687 0.183101 -4.82707 0
M  V30 29 H 2.69968 -2.3259 2.1783 0
M  V30 30 H 2.69575 -2.23014 0.435242 0
M  V30 31 H 0.478861 -1.77418 0.951304 0
M  V30 32 H 0.972023 -1.04123 2.48943 0
M  V30 33 H 0.413414 0.86545 1.28085 0
M  V30 34 H 2.11474 0.758998 1.49004 0
M  V30 35 H 6.34263 2.9179 0.1145 0
M  V30 36 H 4.62074 3.09841 -0.280151 0
M  V30 37 H 5.69938 2.19855 -1.38629 0
M  V30 38 H 6.11714 0.223939 -1.29699 0
M  V30 39 H 5.46578 -1.00749 -0.105939 0
M  V30 40 H 6.97257 -0.0946103 0.225334 0
M  V30 41 H 5.6922 2.33592 2.10436 0
M  V30 42 H 5.06696 0.694789 2.5292 0
M  V30 43 H 6.72822 0.814455 1.91851 0
M  V30 44 H 1.88197 0.438217 -2.59596 0
M  V30 45 H -2.40186 -0.0540284 -3.1519 0
M  V30 46 H -3.3463 1.35284 0.0819902 0
M  V30 47 H -5.41757 0.998269 1.19843 0
M  V30 48 H -6.53982 -1.99201 -1.65044 0
M  V30 49 H -4.35493 -1.64505 -2.81325 0
M  V30 50 H -8.34774 -2.54299 1.9636 0
M  V30 51 H -6.73749 -2.69197 1.50344 0
M  V30 END ATOM
M  V30 BEGIN BOND
M  V30 1 1 1 2
M  V30 2 1 2 3
M  V30 3 1 3 4
M  V30 4 1 4 5
M  V30 5 2 5 6
M  V30 6 1 5 7
M  V30 7 1 7 8
M  V30 8 1 8 9
M  V30 9 1 8 10
M  V30 10 1 8 11
M  V30 11 1 4 12
M  V30 12 2 12 13
M  V30 13 1 13 14
M  V30 14 2 14 15
M  V30 15 1 14 16
M  V30 16 1 16 17
M  V30 17 2 17 18
M  V30 18 1 18 19
M  V30 19 2 19 20
M  V30 20 1 20 21
M  V30 21 2 21 22
M  V30 22 1 20 23
M  V30 23 2 23 24
M  V30 24 2 23 25
M  V30 25 1 23 26
M  V30 26 1 13 27
M  V30 27 3 27 28
M  V30 28 1 22 17
M  V30 29 1 1 29
M  V30 30 1 1 30
M  V30 31 1 2 31
M  V30 32 1 2 32
M  V30 33 1 3 33
M  V30 34 1 3 34
M  V30 35 1 9 35
M  V30 36 1 9 36
M  V30 37 1 9 37
M  V30 38 1 10 38
M  V30 39 1 10 39
M  V30 40 1 10 40
M  V30 41 1 11 41
M  V30 42 1 11 42
M  V30 43 1 11 43
M  V30 44 1 12 44
M  V30 45 1 16 45
M  V30 46 1 18 46
M  V30 47 1 19 47
M  V30 48 1 21 48
M  V30 49 1 22 49
M  V30 50 1 26 50
M  V30 51 1 26 51
M  V30 END BOND
M  V30 END CTAB
M  END
