
     RDKit          3D

  0  0  0  0  0  0  0  0  0  0999 V3000
M  V30 BEGIN CTAB
M  V30 COUNTS 26 27 0 0 0
M  V30 BEGIN ATOM
M  V30 1 N -2.7616 -1.53312 -0.494318 0
M  V30 2 C -2.22522 -0.28519 -0.0767366 0
M  V30 3 C -3.067 0.745427 0.332906 0
M  V30 4 C -2.52795 1.94983 0.735285 0
M  V30 5 C -1.14984 2.10824 0.722678 0
M  V30 6 C -0.287435 1.10503 0.321771 0
M  V30 7 C -0.858786 -0.109135 -0.0824812 0
M  V30 8 C 0.0275267 -1.09651 -0.47898 0
M  V30 9 N -0.55125 -2.34949 -0.897218 0
M  V30 10 C 1.40227 -0.927739 -0.48772 0
M  V30 11 C 1.94501 0.270551 -0.0876737 0
M  V30 12 C 1.08157 1.266 0.310536 0
M  V30 13 S 3.69625 0.521949 -0.0858688 0
M  V30 14 O 4.36911 0.0898862 1.36804 0
M  V30 15 O 4.23559 -0.285814 -1.23472 0
M  V30 16 O 3.98559 1.99469 -0.309762 0
M  V30 17 H -3.018 -1.77611 -1.46312 0
M  V30 18 H -2.8955 -2.24378 0.286657 0
M  V30 19 H -4.14029 0.633986 0.346974 0
M  V30 20 H -3.14167 2.78889 1.0652 0
M  V30 21 H -0.682739 3.0384 1.03092 0
M  V30 22 H -0.719049 -3.09703 -0.196887 0
M  V30 23 H -0.764959 -2.41497 -1.91606 0
M  V30 24 H 2.01673 -1.74277 -0.809129 0
M  V30 25 H 1.51335 2.21572 0.627509 0
M  V30 26 H 4.5183 -0.866942 1.4722 0
M  V30 END ATOM
M  V30 BEGIN BOND
M  V30 1 1 1 2
M  V30 2 2 2 3
M  V30 3 1 3 4
M  V30 4 2 4 5
M  V30 5 1 5 6
M  V30 6 2 6 7
M  V30 7 1 7 8
M  V30 8 1 8 9
M  V30 9 2 8 10
M  V30 10 1 10 11
M  V30 11 2 11 12
M  V30 12 1 11 13
M  V30 13 1 13 14
M  V30 14 2 13 15
M  V30 15 2 13 16
M  V30 16 1 7 2
M  V30 17 1 12 6
M  V30 18 1 1 17
M  V30 19 1 1 18
M  V30 20 1 3 19
M  V30 21 1 4 20
M  V30 22 1 5 21
M  V30 23 1 9 22
M  V30 24 1 9 23
M  V30 25 1 10 24
M  V30 26 1 12 25
M  V30 27 1 14 26
M  V30 END BOND
M  V30 END CTAB
M  END
