
     RDKit          3D

  0  0  0  0  0  0  0  0  0  0999 V3000
M  V30 BEGIN CTAB
M  V30 COUNTS 31 31 0 0 0
M  V30 BEGIN ATOM
M  V30 1 N 3.84102 0.0949449 0.78213 0
M  V30 2 C 2.45743 0.219442 1.05424 0
M  V30 3 C 1.64155 0.0171421 -0.199325 0
M  V30 4 N 0.256531 0.154064 0.0993628 0
M  V30 5 C -0.354483 -0.828467 0.889251 0
M  V30 6 C -0.630501 -2.15469 0.24453 0
M  V30 7 C -1.80686 -2.01811 -0.68966 0
M  V30 8 O -2.31711 -0.72297 -0.725903 0
M  V30 9 C -1.55158 0.0714287 -1.5705 0
M  V30 10 C -0.513846 0.869384 -0.842965 0 CFG=1
M  V30 11 C -1.03674 2.13946 -0.248333 0
M  V30 12 N -1.86917 2.0211 0.889312 0
M  V30 13 H 4.47023 0.701302 1.23692 0
M  V30 14 H 4.09507 -0.3632 -0.05258 0
M  V30 15 H 2.28016 1.23468 1.47738 0
M  V30 16 H 2.20544 -0.498181 1.85801 0
M  V30 17 H 1.92213 -0.973658 -0.603528 0
M  V30 18 H 1.95539 0.776511 -0.933359 0
M  V30 19 H -1.33958 -0.45241 1.25888 0
M  V30 20 H 0.238411 -0.991478 1.83104 0
M  V30 21 H 0.235985 -2.61545 -0.246553 0
M  V30 22 H -0.928157 -2.83936 1.09483 0
M  V30 23 H -1.48648 -2.34322 -1.71993 0
M  V30 24 H -2.65378 -2.67176 -0.360364 0
M  V30 25 H -2.1721 0.759203 -2.17768 0
M  V30 26 H -1.03104 -0.603412 -2.31192 0
M  V30 27 H 0.202981 1.20569 -1.65571 0
M  V30 28 H -0.180211 2.81383 0.0400774 0
M  V30 29 H -1.6046 2.75417 -1.00721 0
M  V30 30 H -2.86966 2.14494 0.775781 0
M  V30 31 H -1.45643 2.09906 1.81375 0
M  V30 END ATOM
M  V30 BEGIN BOND
M  V30 1 1 1 2
M  V30 2 1 2 3
M  V30 3 1 3 4
M  V30 4 1 4 5
M  V30 5 1 5 6
M  V30 6 1 6 7
M  V30 7 1 7 8
M  V30 8 1 8 9
M  V30 9 1 9 10
M  V30 10 1 10 11
M  V30 11 1 11 12
M  V30 12 1 10 4
M  V30 13 1 1 13
M  V30 14 1 1 14
M  V30 15 1 2 15
M  V30 16 1 2 16
M  V30 17 1 3 17
M  V30 18 1 3 18
M  V30 19 1 5 19
M  V30 20 1 5 20
M  V30 21 1 6 21
M  V30 22 1 6 22
M  V30 23 1 7 23
M  V30 24 1 7 24
M  V30 25 1 9 25
M  V30 26 1 9 26
M  V30 27 1 10 27 CFG=3
M  V30 28 1 11 28
M  V30 29 1 11 29
M  V30 30 1 12 30
M  V30 31 1 12 31
M  V30 END BOND
M  V30 END CTAB
M  END
