
     RDKit          3D

  0  0  0  0  0  0  0  0  0  0999 V3000
M  V30 BEGIN CTAB
M  V30 COUNTS 38 41 0 0 0
M  V30 BEGIN ATOM
M  V30 1 N -0.329286 -1.75371 2.29489 0
M  V30 2 C -1.20722 -0.991395 1.50096 0
M  V30 3 C -0.739183 -0.456869 0.318856 0
M  V30 4 C -1.56516 0.30938 -0.511753 0
M  V30 5 C -1.06064 0.823116 -1.67943 0
M  V30 6 C -1.89631 1.57329 -2.47701 0
M  V30 7 C -3.20506 1.78765 -2.08736 0
M  V30 8 C -3.7108 1.2696 -0.911629 0
M  V30 9 C -2.86388 0.524002 -0.128364 0
M  V30 10 C -3.36372 0.00250684 1.04987 0
M  V30 11 C -2.53144 -0.759083 1.86888 0
M  V30 12 C 0.636338 -0.697019 -0.0652364 0
M  V30 13 C 0.970359 -1.79727 -0.827825 0
M  V30 14 N -0.0563838 -2.67304 -1.21878 0
M  V30 15 C 2.30688 -1.98412 -1.17123 0
M  V30 16 C 3.29221 -1.10086 -0.76855 0
M  V30 17 C 2.95201 -0.000128818 -0.00461487 0
M  V30 18 C 3.88487 0.917532 0.428908 0
M  V30 19 C 3.54866 2.01953 1.19294 0
M  V30 20 C 2.22482 2.20109 1.53083 0
M  V30 21 C 1.27715 1.30272 1.11218 0
M  V30 22 C 1.62061 0.201404 0.347367 0
M  V30 23 H -0.295837 -2.77558 2.18206 0
M  V30 24 H 0.275627 -1.28868 2.98463 0
M  V30 25 H -0.0257826 0.645163 -1.9731 0
M  V30 26 H -1.56219 2.01366 -3.42122 0
M  V30 27 H -3.83766 2.38902 -2.74822 0
M  V30 28 H -4.75279 1.44223 -0.604757 0
M  V30 29 H -4.39111 0.1706 1.35603 0
M  V30 30 H -2.87868 -1.18605 2.79773 0
M  V30 31 H -0.28674 -3.52279 -0.67078 0
M  V30 32 H -0.607937 -2.47689 -2.07748 0
M  V30 33 H 2.55109 -2.85675 -1.77261 0
M  V30 34 H 4.34349 -1.24611 -1.03754 0
M  V30 35 H 4.91041 0.767074 0.160871 0
M  V30 36 H 4.25952 2.7476 1.54179 0
M  V30 37 H 1.90456 3.0492 2.12913 0
M  V30 38 H 0.209196 1.40997 1.35959 0
M  V30 END ATOM
M  V30 BEGIN BOND
M  V30 1 1 1 2
M  V30 2 2 2 3
M  V30 3 1 3 4
M  V30 4 2 4 5
M  V30 5 1 5 6
M  V30 6 2 6 7
M  V30 7 1 7 8
M  V30 8 2 8 9
M  V30 9 1 9 10
M  V30 10 2 10 11
M  V30 11 1 3 12
M  V30 12 2 12 13
M  V30 13 1 13 14
M  V30 14 1 13 15
M  V30 15 2 15 16
M  V30 16 1 16 17
M  V30 17 2 17 18
M  V30 18 1 18 19
M  V30 19 2 19 20
M  V30 20 1 20 21
M  V30 21 2 21 22
M  V30 22 1 11 2
M  V30 23 1 22 12
M  V30 24 1 9 4
M  V30 25 1 22 17
M  V30 26 1 1 23
M  V30 27 1 1 24
M  V30 28 1 5 25
M  V30 29 1 6 26
M  V30 30 1 7 27
M  V30 31 1 8 28
M  V30 32 1 10 29
M  V30 33 1 11 30
M  V30 34 1 14 31
M  V30 35 1 14 32
M  V30 36 1 15 33
M  V30 37 1 16 34
M  V30 38 1 18 35
M  V30 39 1 19 36
M  V30 40 1 20 37
M  V30 41 1 21 38
M  V30 END BOND
M  V30 END CTAB
M  END
