
     RDKit          3D

  0  0  0  0  0  0  0  0  0  0999 V3000
M  V30 BEGIN CTAB
M  V30 COUNTS 35 36 0 0 0
M  V30 BEGIN ATOM
M  V30 1 S 0.230724 0.000754903 1.25697 0
M  V30 2 C 0.25472 0.0265977 -0.3495 0
M  V30 3 N -0.871375 0.163466 -1.13875 0
M  V30 4 C -2.23014 0.252817 -0.792068 0
M  V30 5 C -2.76474 0.152996 0.454765 0
M  V30 6 C -4.13072 0.237682 0.75274 0
M  V30 7 C -4.62727 0.117323 2.14827 0
M  V30 8 C -4.98543 0.43644 -0.302572 0
M  V30 9 C -4.52154 0.547625 -1.5958 0
M  V30 10 C -3.17579 0.456604 -1.82334 0
M  V30 11 N -2.67869 0.569652 -3.14575 0
M  V30 12 N 1.52897 -0.0452147 -1.01869 0
M  V30 13 C 2.71379 -0.208384 -0.285464 0
M  V30 14 C 3.81222 0.58381 -0.669962 0
M  V30 15 C 5.01453 0.45218 -0.0223254 0
M  V30 16 C 5.16314 -0.449854 1.00533 0
M  V30 17 C 4.11999 -1.24634 1.41678 0
M  V30 18 C 2.89824 -1.09728 0.74137 0
M  V30 19 Cl 4.2392 -2.40854 2.71031 0
M  V30 20 N 6.40232 -0.610774 1.70079 0
M  V30 21 H -0.649137 0.204943 -2.20642 0
M  V30 22 H -2.15181 -0.0071721 1.30313 0
M  V30 23 H -5.64652 -0.339927 2.17324 0
M  V30 24 H -4.56243 1.06284 2.70837 0
M  V30 25 H -3.97895 -0.610554 2.70815 0
M  V30 26 H -6.06854 0.513752 -0.152973 0
M  V30 27 H -5.23023 0.707712 -2.43162 0
M  V30 28 H -2.38557 -0.277295 -3.67063 0
M  V30 29 H -2.59815 1.48855 -3.61128 0
M  V30 30 H 1.57189 0.0259477 -2.07469 0
M  V30 31 H 3.66855 1.28576 -1.48138 0
M  V30 32 H 5.88155 1.06218 -0.309439 0
M  V30 33 H 2.07414 -1.73645 1.03374 0
M  V30 34 H 6.68868 0.146085 2.35312 0
M  V30 35 H 6.99438 -1.45795 1.55615 0
M  V30 END ATOM
M  V30 BEGIN BOND
M  V30 1 2 1 2
M  V30 2 1 2 3
M  V30 3 1 3 4
M  V30 4 2 4 5
M  V30 5 1 5 6
M  V30 6 1 6 7
M  V30 7 2 6 8
M  V30 8 1 8 9
M  V30 9 2 9 10
M  V30 10 1 10 11
M  V30 11 1 2 12
M  V30 12 1 12 13
M  V30 13 2 13 14
M  V30 14 1 14 15
M  V30 15 2 15 16
M  V30 16 1 16 17
M  V30 17 2 17 18
M  V30 18 1 17 19
M  V30 19 1 16 20
M  V30 20 1 10 4
M  V30 21 1 18 13
M  V30 22 1 3 21
M  V30 23 1 5 22
M  V30 24 1 7 23
M  V30 25 1 7 24
M  V30 26 1 7 25
M  V30 27 1 8 26
M  V30 28 1 9 27
M  V30 29 1 11 28
M  V30 30 1 11 29
M  V30 31 1 12 30
M  V30 32 1 14 31
M  V30 33 1 15 32
M  V30 34 1 18 33
M  V30 35 1 20 34
M  V30 36 1 20 35
M  V30 END BOND
M  V30 END CTAB
M  END
