
     RDKit          3D

  0  0  0  0  0  0  0  0  0  0999 V3000
M  V30 BEGIN CTAB
M  V30 COUNTS 43 44 0 0 0
M  V30 BEGIN ATOM
M  V30 1 N 2.09867 2.76739 1.02511 0
M  V30 2 C 1.96327 2.42752 -0.346912 0
M  V30 3 C 0.9254 1.43772 -0.661469 0 CFG=2
M  V30 4 C -0.49694 1.8126 -0.294783 0
M  V30 5 N -1.22135 0.551262 -0.620569 0
M  V30 6 C -0.218548 -0.513113 -0.400368 0
M  V30 7 C 1.0021 0.178406 0.184634 0 CFG=1
M  V30 8 C 2.24273 -0.548078 0.118744 0
M  V30 9 C 2.92014 -0.840421 1.28557 0
M  V30 10 C 4.13162 -1.52081 1.29405 0
M  V30 11 C 4.6634 -1.9132 0.0761442 0
M  V30 12 C 4.004 -1.63118 -1.09234 0
M  V30 13 C 2.79571 -0.949781 -1.06502 0
M  V30 14 C -2.24748 0.31672 0.368294 0
M  V30 15 C -3.26118 -0.710643 0.0477126 0
M  V30 16 N -2.83428 -2.03623 -0.20502 0
M  V30 17 C -4.272 -0.21489 -1.00001 0
M  V30 18 C -4.1402 -0.833585 1.32846 0
M  V30 19 H 2.83162 3.5029 1.12044 0
M  V30 20 H 1.23607 3.10569 1.43616 0
M  V30 21 H 2.94128 2.02045 -0.686568 0
M  V30 22 H 1.79391 3.33226 -0.942604 0
M  V30 23 H 0.94701 1.15338 -1.7052 0
M  V30 24 H -0.888198 2.66705 -0.838981 0
M  V30 25 H -0.538025 1.92143 0.808103 0
M  V30 26 H -0.5416 -1.26813 0.311461 0
M  V30 27 H 0.0841651 -0.921514 -1.3821 0
M  V30 28 H 0.743131 0.474497 1.23618 0
M  V30 29 H 2.49862 -0.530635 2.22284 0
M  V30 30 H 4.66906 -1.75346 2.21735 0
M  V30 31 H 5.62038 -2.44894 0.0950084 0
M  V30 32 H 4.43314 -1.94332 -2.02014 0
M  V30 33 H 2.31412 -0.751121 -2.00044 0
M  V30 34 H -2.74623 1.27959 0.561394 0
M  V30 35 H -1.76485 0.0115015 1.34092 0
M  V30 36 H -2.52278 -2.28371 -1.1336 0
M  V30 37 H -2.52657 -2.55307 0.609443 0
M  V30 38 H -5.24052 -0.741938 -0.85701 0
M  V30 39 H -4.48268 0.861748 -0.759716 0
M  V30 40 H -3.92307 -0.373194 -2.02716 0
M  V30 41 H -5.12652 -1.23598 1.04613 0
M  V30 42 H -3.61988 -1.48898 2.05672 0
M  V30 43 H -4.2466 0.18381 1.70782 0
M  V30 END ATOM
M  V30 BEGIN BOND
M  V30 1 1 1 2
M  V30 2 1 2 3
M  V30 3 1 3 4
M  V30 4 1 4 5
M  V30 5 1 5 6
M  V30 6 1 6 7
M  V30 7 1 7 8
M  V30 8 2 8 9
M  V30 9 1 9 10
M  V30 10 2 10 11
M  V30 11 1 11 12
M  V30 12 2 12 13
M  V30 13 1 5 14
M  V30 14 1 14 15
M  V30 15 1 15 16
M  V30 16 1 15 17
M  V30 17 1 15 18
M  V30 18 1 7 3
M  V30 19 1 13 8
M  V30 20 1 1 19
M  V30 21 1 1 20
M  V30 22 1 2 21
M  V30 23 1 2 22
M  V30 24 1 3 23 CFG=3
M  V30 25 1 4 24
M  V30 26 1 4 25
M  V30 27 1 6 26
M  V30 28 1 6 27
M  V30 29 1 7 28 CFG=1
M  V30 30 1 9 29
M  V30 31 1 10 30
M  V30 32 1 11 31
M  V30 33 1 12 32
M  V30 34 1 13 33
M  V30 35 1 14 34
M  V30 36 1 14 35
M  V30 37 1 16 36
M  V30 38 1 16 37
M  V30 39 1 17 38
M  V30 40 1 17 39
M  V30 41 1 17 40
M  V30 42 1 18 41
M  V30 43 1 18 42
M  V30 44 1 18 43
M  V30 END BOND
M  V30 END CTAB
M  END
