
     RDKit          3D

  0  0  0  0  0  0  0  0  0  0999 V3000
M  V30 BEGIN CTAB
M  V30 COUNTS 46 48 0 0 0
M  V30 BEGIN ATOM
M  V30 1 N -6.87789 0.677702 0.17891 0
M  V30 2 C -6.04607 1.10844 -0.918087 0
M  V30 3 C -5.28054 -0.0150939 -1.58242 0
M  V30 4 C -3.96911 0.631741 -1.24246 0
M  V30 5 C -4.74099 1.71903 -0.494873 0
M  V30 6 C -3.07694 -0.158451 -0.335968 0
M  V30 7 C -1.71626 0.100045 -0.303555 0
M  V30 8 C -0.860699 -0.603479 0.518265 0
M  V30 9 N -1.4236 -1.55888 1.28827 0
M  V30 10 C -2.74223 -1.84226 1.28644 0
M  V30 11 N -3.55782 -1.12695 0.463292 0
M  V30 12 N -3.29363 -2.86101 2.10786 0
M  V30 13 N 0.525623 -0.33521 0.557963 0
M  V30 14 C 1.43307 -1.36401 0.0855029 0
M  V30 15 C 2.83726 -0.997356 0.234719 0
M  V30 16 O 3.56344 -1.14339 1.31139 0
M  V30 17 N 4.77508 -0.716732 1.11121 0
M  V30 18 C 4.88118 -0.263581 -0.144399 0
M  V30 19 N 3.63914 -0.451521 -0.683108 0
M  V30 20 C 6.02405 0.324137 -0.839849 0
M  V30 21 C 6.2204 1.72261 -0.228591 0
M  V30 22 C 7.29504 -0.422862 -0.582623 0
M  V30 23 C 1.03875 0.933101 1.04386 0
M  V30 24 H -6.37686 -0.0359325 0.741859 0
M  V30 25 H -6.99253 1.5219 0.817537 0
M  V30 26 H -6.61909 1.67112 -1.696 0
M  V30 27 H -5.38379 -0.966687 -1.02329 0
M  V30 28 H -5.48953 -0.128319 -2.66364 0
M  V30 29 H -3.43044 1.11738 -2.06765 0
M  V30 30 H -4.56474 1.67604 0.598803 0
M  V30 31 H -4.6411 2.74173 -0.941786 0
M  V30 32 H -1.35904 0.893822 -0.965719 0
M  V30 33 H -3.18566 -3.88447 1.92979 0
M  V30 34 H -3.84624 -2.58884 2.94627 0
M  V30 35 H 1.13008 -1.59144 -0.961969 0
M  V30 36 H 1.15614 -2.30251 0.655823 0
M  V30 37 H 5.79381 0.415691 -1.92339 0
M  V30 38 H 5.53063 2.41216 -0.742517 0
M  V30 39 H 5.987 1.64095 0.845688 0
M  V30 40 H 7.28462 2.02606 -0.315195 0
M  V30 41 H 7.09822 -1.51652 -0.676978 0
M  V30 42 H 8.07049 -0.0747827 -1.271 0
M  V30 43 H 7.62673 -0.179111 0.463258 0
M  V30 44 H 1.57157 0.843567 1.98526 0
M  V30 45 H 1.77094 1.31295 0.27433 0
M  V30 46 H 0.221549 1.63922 1.15876 0
M  V30 END ATOM
M  V30 BEGIN BOND
M  V30 1 1 1 2
M  V30 2 1 2 3
M  V30 3 1 3 4
M  V30 4 1 4 5
M  V30 5 1 4 6
M  V30 6 2 6 7
M  V30 7 1 7 8
M  V30 8 2 8 9
M  V30 9 1 9 10
M  V30 10 2 10 11
M  V30 11 1 10 12
M  V30 12 1 8 13
M  V30 13 1 13 14
M  V30 14 1 14 15
M  V30 15 1 15 16
M  V30 16 1 16 17
M  V30 17 2 17 18
M  V30 18 1 18 19
M  V30 19 1 18 20
M  V30 20 1 20 21
M  V30 21 1 20 22
M  V30 22 1 13 23
M  V30 23 1 5 2
M  V30 24 1 11 6
M  V30 25 2 19 15
M  V30 26 1 1 24
M  V30 27 1 1 25
M  V30 28 1 2 26
M  V30 29 1 3 27
M  V30 30 1 3 28
M  V30 31 1 4 29
M  V30 32 1 5 30
M  V30 33 1 5 31
M  V30 34 1 7 32
M  V30 35 1 12 33
M  V30 36 1 12 34
M  V30 37 1 14 35
M  V30 38 1 14 36
M  V30 39 1 20 37
M  V30 40 1 21 38
M  V30 41 1 21 39
M  V30 42 1 21 40
M  V30 43 1 22 41
M  V30 44 1 22 42
M  V30 45 1 22 43
M  V30 46 1 23 44
M  V30 47 1 23 45
M  V30 48 1 23 46
M  V30 END BOND
M  V30 END CTAB
M  END
