
     RDKit          3D

  0  0  0  0  0  0  0  0  0  0999 V3000
M  V30 BEGIN CTAB
M  V30 COUNTS 61 66 0 0 0
M  V30 BEGIN ATOM
M  V30 1 N 10.4583 1.52127 -3.4776 0
M  V30 2 C 9.74009 1.1196 -2.66863 0
M  V30 3 C 8.83825 0.605112 -1.66919 0
M  V30 4 C 7.49724 0.87444 -1.79853 0
M  V30 5 C 6.60633 0.372035 -0.820371 0
M  V30 6 C 7.18017 -0.350364 0.183188 0
M  V30 7 N 8.53261 -0.592917 0.268231 0
M  V30 8 C 9.40098 -0.127335 -0.647516 0
M  V30 9 N 10.7935 -0.388681 -0.541782 0
M  V30 10 S 5.84812 -0.787332 1.15491 0
M  V30 11 C 4.60142 -0.0441848 0.265085 0
M  V30 12 C 5.25929 0.535768 -0.78352 0
M  V30 13 N 4.49867 1.27941 -1.77968 0
M  V30 14 C 3.14528 -0.0256785 0.552464 0
M  V30 15 O 2.41785 0.577252 -0.230948 0
M  V30 16 N 2.7312 -0.701784 1.69804 0
M  V30 17 C 1.40602 -0.832515 2.18157 0
M  V30 18 C 1.19776 -1.32152 3.47808 0
M  V30 19 C -0.0709438 -1.47226 3.96831 0
M  V30 20 C -1.17491 -1.13811 3.17628 0
M  V30 21 C -1.02381 -0.65798 1.90607 0
M  V30 22 C 0.300903 -0.520704 1.44667 0
M  V30 23 N -2.09787 -0.327805 1.08611 0
M  V30 24 C -3.46061 -0.592129 1.30127 0
M  V30 25 O -3.93698 -1.18759 2.29374 0
M  V30 26 C -4.48463 -0.146414 0.288116 0
M  V30 27 C -5.85456 -0.550667 0.756697 0
M  V30 28 C -6.86127 -0.222312 -0.320175 0
M  V30 29 C -6.5384 -0.88506 -1.62198 0
M  V30 30 C -5.16511 -0.427808 -2.07501 0
M  V30 31 C -4.18468 -0.838938 -1.0067 0
M  V30 32 C -5.10575 1.07446 -2.23832 0
M  V30 33 C -5.47402 1.72116 -0.91677 0
M  V30 34 C -4.41067 1.34983 0.0822607 0
M  V30 35 C -6.84712 1.27838 -0.504551 0
M  V30 36 H 7.14978 1.46163 -2.6401 0
M  V30 37 H 11.192 -1.32739 -0.33351 0
M  V30 38 H 11.4693 0.394337 -0.677938 0
M  V30 39 H 4.46839 0.964579 -2.75602 0
M  V30 40 H 3.99498 2.1233 -1.48364 0
M  V30 41 H 3.47456 -1.19591 2.30495 0
M  V30 42 H 2.07121 -1.56731 4.06018 0
M  V30 43 H -0.200497 -1.8515 4.97121 0
M  V30 44 H -2.11455 -1.2869 3.65818 0
M  V30 45 H 0.369169 -0.151338 0.445705 0
M  V30 46 H -1.86783 0.193823 0.181381 0
M  V30 47 H -6.14153 0.0136215 1.65916 0
M  V30 48 H -5.83179 -1.63872 0.98544 0
M  V30 49 H -7.8561 -0.515736 0.0441636 0
M  V30 50 H -7.32636 -0.653465 -2.34949 0
M  V30 51 H -6.48941 -1.98486 -1.51767 0
M  V30 52 H -4.86973 -0.93332 -3.00898 0
M  V30 53 H -4.32002 -1.93252 -0.852 0
M  V30 54 H -3.12918 -0.707721 -1.33539 0
M  V30 55 H -4.06074 1.33269 -2.47718 0
M  V30 56 H -5.75516 1.4343 -3.04377 0
M  V30 57 H -5.46144 2.83045 -1.01688 0
M  V30 58 H -3.42891 1.57909 -0.372411 0
M  V30 59 H -4.48039 1.89557 1.0322 0
M  V30 60 H -7.56422 1.636 -1.24778 0
M  V30 61 H -7.05418 1.71866 0.504483 0
M  V30 END ATOM
M  V30 BEGIN BOND
M  V30 1 3 1 2
M  V30 2 1 2 3
M  V30 3 2 3 4
M  V30 4 1 4 5
M  V30 5 2 5 6
M  V30 6 1 6 7
M  V30 7 2 7 8
M  V30 8 1 8 9
M  V30 9 1 6 10
M  V30 10 1 10 11
M  V30 11 2 11 12
M  V30 12 1 12 13
M  V30 13 1 11 14
M  V30 14 2 14 15
M  V30 15 1 14 16
M  V30 16 1 16 17
M  V30 17 2 17 18
M  V30 18 1 18 19
M  V30 19 2 19 20
M  V30 20 1 20 21
M  V30 21 2 21 22
M  V30 22 1 21 23
M  V30 23 1 23 24
M  V30 24 2 24 25
M  V30 25 1 24 26
M  V30 26 1 26 27
M  V30 27 1 27 28
M  V30 28 1 28 29
M  V30 29 1 29 30
M  V30 30 1 30 31
M  V30 31 1 30 32
M  V30 32 1 32 33
M  V30 33 1 33 34
M  V30 34 1 33 35
M  V30 35 1 8 3
M  V30 36 1 22 17
M  V30 37 1 34 26
M  V30 38 1 12 5
M  V30 39 1 31 26
M  V30 40 1 35 28
M  V30 41 1 4 36
M  V30 42 1 9 37
M  V30 43 1 9 38
M  V30 44 1 13 39
M  V30 45 1 13 40
M  V30 46 1 16 41
M  V30 47 1 18 42
M  V30 48 1 19 43
M  V30 49 1 20 44
M  V30 50 1 22 45
M  V30 51 1 23 46
M  V30 52 1 27 47
M  V30 53 1 27 48
M  V30 54 1 28 49
M  V30 55 1 29 50
M  V30 56 1 29 51
M  V30 57 1 30 52
M  V30 58 1 31 53
M  V30 59 1 31 54
M  V30 60 1 32 55
M  V30 61 1 32 56
M  V30 62 1 33 57
M  V30 63 1 34 58
M  V30 64 1 34 59
M  V30 65 1 35 60
M  V30 66 1 35 61
M  V30 END BOND
M  V30 END CTAB
M  END
