
     RDKit          3D

  0  0  0  0  0  0  0  0  0  0999 V3000
M  V30 BEGIN CTAB
M  V30 COUNTS 74 79 0 0 0
M  V30 BEGIN ATOM
M  V30 1 N -6.76832 3.27499 -1.83079 0
M  V30 2 C -7.0208 1.94023 -1.43231 0
M  V30 3 N -8.244 1.41196 -1.53879 0
M  V30 4 C -8.52987 0.132186 -1.16663 0
M  V30 5 N -9.83398 -0.391277 -1.29347 0
M  V30 6 C -7.46897 -0.614041 -0.660723 0
M  V30 7 C -6.20005 -0.0848739 -0.543801 0
M  V30 8 N -6.0308 1.18366 -0.939581 0
M  V30 9 N -5.34517 -0.990098 -0.031676 0
M  V30 10 C -6.12231 -2.09774 0.165824 0
M  V30 11 N -7.37831 -1.86544 -0.209573 0
M  V30 12 C -3.95441 -0.894131 0.263434 0 CFG=1
M  V30 13 C -3.18724 -0.020271 -0.735543 0
M  V30 14 C -1.72334 -0.140612 -0.417308 0
M  V30 15 C -1.05778 -1.31432 -1.05858 0
M  V30 16 C 0.26222 -1.53968 -0.357495 0
M  V30 17 N 0.892111 -0.256587 -0.194581 0
M  V30 18 C 0.494025 0.841325 -1.02371 0
M  V30 19 C -0.997926 1.10244 -0.95437 0
M  V30 20 C 1.89271 -0.0845922 0.778801 0
M  V30 21 O 2.43148 1.04236 0.906433 0
M  V30 22 C 2.35349 -1.17263 1.67731 0
M  V30 23 C 3.52691 -0.811075 2.51539 0
M  V30 24 C 4.73203 -0.490573 1.69562 0
M  V30 25 N 4.90826 -0.548054 0.364668 0
M  V30 26 C 6.14936 -0.168455 0.00727218 0
M  V30 27 C 6.79353 0.146634 1.18193 0
M  V30 28 N 5.92887 -0.0520188 2.18828 0
M  V30 29 C 8.10484 0.5722 1.08929 0
M  V30 30 C 8.75795 0.682905 -0.121819 0
M  V30 31 C 8.11008 0.366152 -1.30124 0
M  V30 32 C 6.80849 -0.0569222 -1.21701 0
M  V30 33 C 8.86953 0.508022 -2.55558 0
M  V30 34 C 10.1563 1.1459 -0.116112 0
M  V30 35 O -1.46045 -0.154419 0.954855 0
M  V30 36 C -2.49196 0.442933 1.67847 0
M  V30 37 C -3.63964 -0.545918 1.68226 0 CFG=1
M  V30 38 C -4.80387 -0.00512126 2.45593 0
M  V30 39 O -3.17126 -1.66503 2.41248 0
M  V30 40 H -6.41083 3.94631 -1.11101 0
M  V30 41 H -6.92906 3.60567 -2.82043 0
M  V30 42 H -10.6471 0.229224 -1.15202 0
M  V30 43 H -9.98793 -1.38554 -1.52547 0
M  V30 44 H -5.78906 -3.04516 0.569485 0
M  V30 45 H -3.51578 -1.92305 0.0864132 0
M  V30 46 H -3.36513 -0.456049 -1.72768 0
M  V30 47 H -3.45916 1.03918 -0.649796 0
M  V30 48 H -0.857399 -1.06564 -2.13588 0
M  V30 49 H -1.68432 -2.22468 -1.08168 0
M  V30 50 H 0.0704851 -1.95861 0.659106 0
M  V30 51 H 0.896626 -2.27035 -0.895527 0
M  V30 52 H 1.00105 1.75841 -0.665054 0
M  V30 53 H 0.836229 0.723072 -2.08189 0
M  V30 54 H -1.20147 1.99088 -0.340382 0
M  V30 55 H -1.3254 1.3305 -1.9885 0
M  V30 56 H 2.7053 -1.98887 0.975969 0
M  V30 57 H 1.53234 -1.6462 2.24683 0
M  V30 58 H 3.79295 -1.71328 3.11734 0
M  V30 59 H 3.31982 -0.0132429 3.25716 0
M  V30 60 H 4.18847 -0.852704 -0.337084 0
M  V30 61 H 8.60524 0.818936 2.02581 0
M  V30 62 H 6.29309 -0.304946 -2.11077 0
M  V30 63 H 9.14374 1.5711 -2.7732 0
M  V30 64 H 8.30155 0.148219 -3.43856 0
M  V30 65 H 9.80971 -0.118016 -2.54556 0
M  V30 66 H 10.7317 0.552174 0.621407 0
M  V30 67 H 10.1633 2.19319 0.269224 0
M  V30 68 H 10.5959 1.15225 -1.11338 0
M  V30 69 H -2.1044 0.638772 2.69395 0
M  V30 70 H -2.78614 1.42393 1.25952 0
M  V30 71 H -5.31564 0.835888 2.00444 0
M  V30 72 H -4.38391 0.367047 3.43659 0
M  V30 73 H -5.53483 -0.777716 2.73082 0
M  V30 74 H -2.43178 -1.41074 3.01284 0
M  V30 END ATOM
M  V30 BEGIN BOND
M  V30 1 1 1 2
M  V30 2 2 2 3
M  V30 3 1 3 4
M  V30 4 1 4 5
M  V30 5 2 4 6
M  V30 6 1 6 7
M  V30 7 2 7 8
M  V30 8 1 7 9
M  V30 9 1 9 10
M  V30 10 2 10 11
M  V30 11 1 9 12
M  V30 12 1 12 13
M  V30 13 1 13 14
M  V30 14 1 14 15
M  V30 15 1 15 16
M  V30 16 1 16 17
M  V30 17 1 17 18
M  V30 18 1 18 19
M  V30 19 1 17 20
M  V30 20 2 20 21
M  V30 21 1 20 22
M  V30 22 1 22 23
M  V30 23 1 23 24
M  V30 24 1 24 25
M  V30 25 1 25 26
M  V30 26 2 26 27
M  V30 27 1 27 28
M  V30 28 1 27 29
M  V30 29 2 29 30
M  V30 30 1 30 31
M  V30 31 2 31 32
M  V30 32 1 31 33
M  V30 33 1 30 34
M  V30 34 1 14 35
M  V30 35 1 35 36
M  V30 36 1 36 37
M  V30 37 1 37 38
M  V30 38 1 37 39 CFG=1
M  V30 39 1 8 2
M  V30 40 1 37 12
M  V30 41 1 11 6
M  V30 42 1 19 14
M  V30 43 2 28 24
M  V30 44 1 32 26
M  V30 45 1 1 40
M  V30 46 1 1 41
M  V30 47 1 5 42
M  V30 48 1 5 43
M  V30 49 1 10 44
M  V30 50 1 12 45 CFG=3
M  V30 51 1 13 46
M  V30 52 1 13 47
M  V30 53 1 15 48
M  V30 54 1 15 49
M  V30 55 1 16 50
M  V30 56 1 16 51
M  V30 57 1 18 52
M  V30 58 1 18 53
M  V30 59 1 19 54
M  V30 60 1 19 55
M  V30 61 1 22 56
M  V30 62 1 22 57
M  V30 63 1 23 58
M  V30 64 1 23 59
M  V30 65 1 25 60
M  V30 66 1 29 61
M  V30 67 1 32 62
M  V30 68 1 33 63
M  V30 69 1 33 64
M  V30 70 1 33 65
M  V30 71 1 34 66
M  V30 72 1 34 67
M  V30 73 1 34 68
M  V30 74 1 36 69
M  V30 75 1 36 70
M  V30 76 1 38 71
M  V30 77 1 38 72
M  V30 78 1 38 73
M  V30 79 1 39 74
M  V30 END BOND
M  V30 END CTAB
M  END
