
     RDKit          3D

  0  0  0  0  0  0  0  0  0  0999 V3000
M  V30 BEGIN CTAB
M  V30 COUNTS 63 65 0 0 0
M  V30 BEGIN ATOM
M  V30 1 N 3.75872 -1.21867 2.84269 0
M  V30 2 C 3.14968 -0.84798 1.56791 0
M  V30 3 C 3.95203 0.329888 1.05875 0
M  V30 4 C 5.36016 -0.0118899 0.867346 0
M  V30 5 C 5.89465 -0.503222 -0.305575 0
M  V30 6 C 7.22136 -0.809458 -0.442084 0
M  V30 7 C 8.09216 -0.633737 0.612181 0
M  V30 8 C 7.58381 -0.144546 1.79442 0
M  V30 9 C 6.24537 0.158867 1.91624 0
M  V30 10 C 1.75016 -0.462112 1.86931 0
M  V30 11 O 1.2843 -0.42648 3.04276 0
M  V30 12 N 0.913798 -0.118917 0.748046 0
M  V30 13 C -0.443621 0.262922 0.993325 0 CFG=1
M  V30 14 C -0.690561 1.63722 0.439146 0
M  V30 15 C -0.435822 1.61653 -1.04643 0
M  V30 16 C -0.694859 3.00942 -1.63278 0
M  V30 17 N 0.215108 3.94025 -0.985395 0
M  V30 18 C 1.59317 3.81226 -1.2636 0
M  V30 19 N 2.00417 3.68842 -2.60889 0
M  V30 20 N 2.44013 3.8116 -0.311883 0
M  V30 21 C -1.43807 -0.67488 0.364362 0
M  V30 22 O -0.940818 -1.61648 -0.260313 0
M  V30 23 N -2.80809 -0.475441 0.491777 0
M  V30 24 C -3.83482 -1.27633 -0.0420342 0
M  V30 25 C -3.66704 -2.48108 -0.670646 0
M  V30 26 C -4.70732 -3.24192 -1.19717 0
M  V30 27 C -5.99804 -2.77592 -1.09218 0
M  V30 28 C -7.05642 -3.51098 -1.60781 0
M  V30 29 C -8.33657 -3.04954 -1.50366 0
M  V30 30 C -8.55789 -1.85079 -0.883016 0
M  V30 31 C -7.52814 -1.10681 -0.366276 0
M  V30 32 C -6.22339 -1.57258 -0.470207 0
M  V30 33 C -5.17585 -0.845955 0.0383735 0
M  V30 34 H 3.45778 -0.608884 3.61165 0
M  V30 35 H 3.37369 -2.17763 3.08645 0
M  V30 36 H 3.11019 -1.68685 0.854111 0
M  V30 37 H 3.5513 0.759791 0.126794 0
M  V30 38 H 3.87659 1.11414 1.8641 0
M  V30 39 H 5.25356 -0.653128 -1.14871 0
M  V30 40 H 7.58265 -1.19443 -1.39501 0
M  V30 41 H 9.14747 -0.879934 0.49653 0
M  V30 42 H 8.28586 -0.0129909 2.61995 0
M  V30 43 H 5.9102 0.542189 2.87571 0
M  V30 44 H 1.34943 -0.172616 -0.192752 0
M  V30 45 H -0.668006 0.227736 2.079 0
M  V30 46 H -1.74193 1.89733 0.679037 0
M  V30 47 H 0.0313395 2.32142 0.93583 0
M  V30 48 H 0.628258 1.35992 -1.23545 0
M  V30 49 H -1.06707 0.883352 -1.56891 0
M  V30 50 H -1.74819 3.25045 -1.47899 0
M  V30 51 H -0.496691 2.94628 -2.71432 0
M  V30 52 H -0.177517 4.6513 -0.353663 0
M  V30 53 H 1.46642 4.14553 -3.36927 0
M  V30 54 H 2.84265 3.14245 -2.84133 0
M  V30 55 H 2.13183 3.90587 0.689006 0
M  V30 56 H -3.15699 0.378764 1.06032 0
M  V30 57 H -2.69925 -2.91422 -0.786169 0
M  V30 58 H -4.51127 -4.17959 -1.67919 0
M  V30 59 H -6.87987 -4.46174 -2.10044 0
M  V30 60 H -9.14312 -3.6266 -1.90422 0
M  V30 61 H -9.57641 -1.49807 -0.809454 0
M  V30 62 H -7.6866 -0.163608 0.123523 0
M  V30 63 H -5.36774 0.0921167 0.519163 0
M  V30 END ATOM
M  V30 BEGIN BOND
M  V30 1 1 1 2
M  V30 2 1 2 3
M  V30 3 1 3 4
M  V30 4 2 4 5
M  V30 5 1 5 6
M  V30 6 2 6 7
M  V30 7 1 7 8
M  V30 8 2 8 9
M  V30 9 1 2 10
M  V30 10 2 10 11
M  V30 11 1 10 12
M  V30 12 1 12 13
M  V30 13 1 13 14
M  V30 14 1 14 15
M  V30 15 1 15 16
M  V30 16 1 16 17
M  V30 17 1 17 18
M  V30 18 1 18 19
M  V30 19 2 18 20 CFG=2
M  V30 20 1 13 21
M  V30 21 2 21 22
M  V30 22 1 21 23
M  V30 23 1 23 24
M  V30 24 2 24 25
M  V30 25 1 25 26
M  V30 26 2 26 27
M  V30 27 1 27 28
M  V30 28 2 28 29
M  V30 29 1 29 30
M  V30 30 2 30 31
M  V30 31 1 31 32
M  V30 32 2 32 33
M  V30 33 1 9 4
M  V30 34 1 33 24
M  V30 35 1 32 27
M  V30 36 1 1 34
M  V30 37 1 1 35
M  V30 38 1 2 36
M  V30 39 1 3 37
M  V30 40 1 3 38
M  V30 41 1 5 39
M  V30 42 1 6 40
M  V30 43 1 7 41
M  V30 44 1 8 42
M  V30 45 1 9 43
M  V30 46 1 12 44
M  V30 47 1 13 45 CFG=1
M  V30 48 1 14 46
M  V30 49 1 14 47
M  V30 50 1 15 48
M  V30 51 1 15 49
M  V30 52 1 16 50
M  V30 53 1 16 51
M  V30 54 1 17 52
M  V30 55 1 19 53
M  V30 56 1 19 54
M  V30 57 1 20 55
M  V30 58 1 23 56
M  V30 59 1 25 57
M  V30 60 1 26 58
M  V30 61 1 28 59
M  V30 62 1 29 60
M  V30 63 1 30 61
M  V30 64 1 31 62
M  V30 65 1 33 63
M  V30 END BOND
M  V30 END CTAB
M  END
