
     RDKit          3D

  0  0  0  0  0  0  0  0  0  0999 V3000
M  V30 BEGIN CTAB
M  V30 COUNTS 23 23 0 0 0
M  V30 BEGIN ATOM
M  V30 1 C -2.39305 0.618946 0.60296 0
M  V30 2 C -1.61517 -0.118198 -0.470959 0
M  V30 3 C -0.184932 -0.18464 -0.239823 0
M  V30 4 C 0.251517 -1.17466 0.655685 0
M  V30 5 N -0.7294 -1.99633 1.24158 0
M  V30 6 N 1.56167 -1.27263 0.893868 0
M  V30 7 C 2.48516 -0.491068 0.336632 0
M  V30 8 N 3.8809 -0.619547 0.609454 0
M  V30 9 N 2.08317 0.450309 -0.5123 0
M  V30 10 C 0.741715 0.626379 -0.819599 0
M  V30 11 C 0.37673 1.69646 -1.70932 0
M  V30 12 O -0.903986 2.00631 -2.01391 0
M  V30 13 O 1.29042 2.39126 -2.23734 0
M  V30 14 H -2.28224 1.71168 0.520331 0
M  V30 15 H -2.13195 0.221125 1.60192 0
M  V30 16 H -3.46688 0.385747 0.425698 0
M  V30 17 H -2.06805 -1.19545 -0.365006 0
M  V30 18 H -1.99611 0.161615 -1.45076 0
M  V30 19 H -1.21391 -2.78433 0.770944 0
M  V30 20 H -1.02117 -1.82325 2.24387 0
M  V30 21 H 4.19061 -0.5928 1.597 0
M  V30 22 H 4.59957 -0.737562 -0.129057 0
M  V30 23 H -1.45461 2.72063 -1.55187 0
M  V30 END ATOM
M  V30 BEGIN BOND
M  V30 1 1 1 2
M  V30 2 1 2 3
M  V30 3 2 3 4
M  V30 4 1 4 5
M  V30 5 1 4 6
M  V30 6 2 6 7
M  V30 7 1 7 8
M  V30 8 1 7 9
M  V30 9 2 9 10
M  V30 10 1 10 11
M  V30 11 1 11 12
M  V30 12 2 11 13
M  V30 13 1 10 3
M  V30 14 1 1 14
M  V30 15 1 1 15
M  V30 16 1 1 16
M  V30 17 1 2 17
M  V30 18 1 2 18
M  V30 19 1 5 19
M  V30 20 1 5 20
M  V30 21 1 8 21
M  V30 22 1 8 22
M  V30 23 1 12 23
M  V30 END BOND
M  V30 END CTAB
M  END
