
     RDKit          3D

  0  0  0  0  0  0  0  0  0  0999 V3000
M  V30 BEGIN CTAB
M  V30 COUNTS 23 23 0 0 0
M  V30 BEGIN ATOM
M  V30 1 F 4.48942 -0.488685 1.28775 0
M  V30 2 C 4.1716 -0.204645 -0.0168363 0
M  V30 3 C 2.76153 0.305058 -0.171739 0
M  V30 4 O 1.80127 -0.610478 0.26865 0
M  V30 5 C 0.465591 -0.247734 0.173855 0
M  V30 6 C 0.0632273 0.976671 -0.336798 0
M  V30 7 C -1.26083 1.34853 -0.436088 0
M  V30 8 C -2.24689 0.487755 -0.0181737 0
M  V30 9 C -1.87283 -0.749123 0.49919 0
M  V30 10 C -0.551338 -1.0967 0.588098 0
M  V30 11 F -0.210544 -2.30494 1.09459 0
M  V30 12 N -2.93893 -1.60581 0.919061 0
M  V30 13 N -3.60489 0.86627 -0.118742 0
M  V30 14 F 4.41283 -1.29731 -0.827031 0
M  V30 15 H 4.85483 0.60398 -0.382427 0
M  V30 16 H 2.6131 0.525533 -1.25477 0
M  V30 17 H 2.65798 1.25409 0.374511 0
M  V30 18 H 0.824179 1.67035 -0.671986 0
M  V30 19 H -1.48473 2.30636 -0.839782 0
M  V30 20 H -3.71862 -1.72821 0.229731 0
M  V30 21 H -2.98007 -2.08771 1.82234 0
M  V30 22 H -3.84928 1.8866 -0.193071 0
M  V30 23 H -4.3966 0.190138 -0.124426 0
M  V30 END ATOM
M  V30 BEGIN BOND
M  V30 1 1 1 2
M  V30 2 1 2 3
M  V30 3 1 3 4
M  V30 4 1 4 5
M  V30 5 2 5 6
M  V30 6 1 6 7
M  V30 7 2 7 8
M  V30 8 1 8 9
M  V30 9 2 9 10
M  V30 10 1 10 11
M  V30 11 1 9 12
M  V30 12 1 8 13
M  V30 13 1 2 14
M  V30 14 1 10 5
M  V30 15 1 2 15
M  V30 16 1 3 16
M  V30 17 1 3 17
M  V30 18 1 6 18
M  V30 19 1 7 19
M  V30 20 1 12 20
M  V30 21 1 12 21
M  V30 22 1 13 22
M  V30 23 1 13 23
M  V30 END BOND
M  V30 END CTAB
M  END
