
     RDKit          3D

  0  0  0  0  0  0  0  0  0  0999 V3000
M  V30 BEGIN CTAB
M  V30 COUNTS 29 30 0 0 0
M  V30 BEGIN ATOM
M  V30 1 N 2.95778 2.42636 -0.153786 0
M  V30 2 C 3.51462 1.09204 -0.2325 0
M  V30 3 C 2.41269 0.0920787 -0.175128 0
M  V30 4 C 2.69776 -1.27597 -0.234208 0
M  V30 5 C 1.64154 -2.15833 -0.17706 0
M  V30 6 C 0.316941 -1.76381 -0.0645893 0
M  V30 7 C 0.040448 -0.417305 -0.00686888 0
M  V30 8 C 1.09262 0.473496 -0.0634202 0
M  V30 9 C -1.31624 0.0561291 0.106975 0
M  V30 10 C -1.58424 1.05227 1.05318 0
M  V30 11 C -2.87114 1.52542 1.18093 0
M  V30 12 C -3.88068 1.01463 0.377583 0
M  V30 13 C -3.61482 0.0435325 -0.543627 0
M  V30 14 C -2.3259 -0.434327 -0.67572 0
M  V30 15 Br -5.00239 -0.656674 -1.64592 0
M  V30 16 N -0.680824 -2.76771 -0.0120578 0
M  V30 17 H 2.3895 2.59096 -0.987284 0
M  V30 18 H 2.4771 2.64457 0.724064 0
M  V30 19 H 4.03191 1.02122 -1.21137 0
M  V30 20 H 4.21269 0.981696 0.62256 0
M  V30 21 H 3.72465 -1.57828 -0.321297 0
M  V30 22 H 1.86072 -3.21427 -0.222601 0
M  V30 23 H 0.92431 1.55966 -0.0209646 0
M  V30 24 H -0.81089 1.45794 1.6833 0
M  V30 25 H -3.0636 2.2915 1.91241 0
M  V30 26 H -4.88249 1.43385 0.52924 0
M  V30 27 H -2.16549 -1.20204 -1.42102 0
M  V30 28 H -0.884103 -3.30868 -0.869063 0
M  V30 29 H -1.21248 -2.97996 0.848235 0
M  V30 END ATOM
M  V30 BEGIN BOND
M  V30 1 1 1 2
M  V30 2 1 2 3
M  V30 3 2 3 4
M  V30 4 1 4 5
M  V30 5 2 5 6
M  V30 6 1 6 7
M  V30 7 2 7 8
M  V30 8 1 7 9
M  V30 9 2 9 10
M  V30 10 1 10 11
M  V30 11 2 11 12
M  V30 12 1 12 13
M  V30 13 2 13 14
M  V30 14 1 13 15
M  V30 15 1 6 16
M  V30 16 1 8 3
M  V30 17 1 14 9
M  V30 18 1 1 17
M  V30 19 1 1 18
M  V30 20 1 2 19
M  V30 21 1 2 20
M  V30 22 1 4 21
M  V30 23 1 5 22
M  V30 24 1 8 23
M  V30 25 1 10 24
M  V30 26 1 11 25
M  V30 27 1 12 26
M  V30 28 1 14 27
M  V30 29 1 16 28
M  V30 30 1 16 29
M  V30 END BOND
M  V30 END CTAB
M  END
