
     RDKit          3D

  0  0  0  0  0  0  0  0  0  0999 V3000
M  V30 BEGIN CTAB
M  V30 COUNTS 45 47 0 0 0
M  V30 BEGIN ATOM
M  V30 1 N -5.17191 1.35362 -1.59437 0
M  V30 2 C -5.82477 0.202107 -1.15745 0 CFG=2
M  V30 3 C -6.3221 0.351442 0.270463 0
M  V30 4 C -5.0247 0.204292 1.04722 0
M  V30 5 C -4.31254 -0.930518 0.326785 0 CFG=1
M  V30 6 C -4.83159 -0.94848 -1.08404 0
M  V30 7 N -2.89472 -0.58703 0.314105 0
M  V30 8 C -1.92109 -1.40374 0.927203 0
M  V30 9 O -2.27522 -2.44756 1.49673 0
M  V30 10 C -0.520836 -1.03339 0.896069 0
M  V30 11 C -0.00760961 0.073027 0.254911 0
M  V30 12 C 1.33392 0.393526 0.24924 0
M  V30 13 C 2.21199 -0.412666 0.905442 0
M  V30 14 C 1.76764 -1.5278 1.56263 0
M  V30 15 C 0.431651 -1.82897 1.55656 0
M  V30 16 C 3.62716 -0.10313 0.917504 0
M  V30 17 C 4.43544 -0.433943 1.98128 0
M  V30 18 N 5.7406 -0.124867 1.94108 0
M  V30 19 C 6.31185 0.504208 0.894134 0
M  V30 20 C 5.51157 0.83831 -0.172951 0
M  V30 21 C 4.16846 0.537144 -0.166762 0
M  V30 22 C 6.09149 1.53691 -1.36144 0
M  V30 23 N 7.7041 0.806211 0.909615 0
M  V30 24 H -4.27264 1.27146 -1.9973 0
M  V30 25 H -5.48221 2.25103 -1.36336 0
M  V30 26 H -6.657 -0.127779 -1.83132 0
M  V30 27 H -6.97567 -0.48539 0.560297 0
M  V30 28 H -6.73547 1.34675 0.447288 0
M  V30 29 H -4.41262 1.12772 1.00307 0
M  V30 30 H -5.203 -0.033967 2.10877 0
M  V30 31 H -4.41432 -1.87761 0.863812 0
M  V30 32 H -5.29132 -1.91936 -1.35245 0
M  V30 33 H -4.01676 -0.759447 -1.8222 0
M  V30 34 H -2.65628 0.302457 -0.178793 0
M  V30 35 H -0.721877 0.72236 -0.275103 0
M  V30 36 H 1.64058 1.27684 -0.278042 0
M  V30 37 H 2.44183 -2.20548 2.10435 0
M  V30 38 H 0.0301068 -2.71065 2.06854 0
M  V30 39 H 3.97036 -0.940047 2.82083 0
M  V30 40 H 3.5133 0.793829 -1.00618 0
M  V30 41 H 5.57379 1.18434 -2.29637 0
M  V30 42 H 7.16432 1.31563 -1.49775 0
M  V30 43 H 5.86076 2.60597 -1.26958 0
M  V30 44 H 8.36434 0.258293 1.50152 0
M  V30 45 H 8.05102 1.58434 0.318918 0
M  V30 END ATOM
M  V30 BEGIN BOND
M  V30 1 1 1 2
M  V30 2 1 2 3
M  V30 3 1 3 4
M  V30 4 1 4 5
M  V30 5 1 5 6
M  V30 6 1 5 7
M  V30 7 1 7 8
M  V30 8 2 8 9
M  V30 9 1 8 10
M  V30 10 2 10 11
M  V30 11 1 11 12
M  V30 12 2 12 13
M  V30 13 1 13 14
M  V30 14 2 14 15
M  V30 15 1 13 16
M  V30 16 2 16 17
M  V30 17 1 17 18
M  V30 18 2 18 19
M  V30 19 1 19 20
M  V30 20 2 20 21
M  V30 21 1 20 22
M  V30 22 1 19 23
M  V30 23 1 6 2
M  V30 24 1 15 10
M  V30 25 1 21 16
M  V30 26 1 1 24
M  V30 27 1 1 25
M  V30 28 1 2 26 CFG=3
M  V30 29 1 3 27
M  V30 30 1 3 28
M  V30 31 1 4 29
M  V30 32 1 4 30
M  V30 33 1 5 31 CFG=1
M  V30 34 1 6 32
M  V30 35 1 6 33
M  V30 36 1 7 34
M  V30 37 1 11 35
M  V30 38 1 12 36
M  V30 39 1 14 37
M  V30 40 1 15 38
M  V30 41 1 17 39
M  V30 42 1 21 40
M  V30 43 1 22 41
M  V30 44 1 22 42
M  V30 45 1 22 43
M  V30 46 1 23 44
M  V30 47 1 23 45
M  V30 END BOND
M  V30 END CTAB
M  END
