
     RDKit          3D

  0  0  0  0  0  0  0  0  0  0999 V3000
M  V30 BEGIN CTAB
M  V30 COUNTS 34 35 0 0 0
M  V30 BEGIN ATOM
M  V30 1 C -6.39866 0.236657 -0.537035 0
M  V30 2 C -6.01025 0.211394 0.904072 0
M  V30 3 O -4.7455 -0.341058 1.1464 0
M  V30 4 C -3.65249 0.272722 0.552935 0
M  V30 5 O -3.74774 1.27363 -0.171146 0
M  V30 6 C -2.29504 -0.289425 0.790375 0
M  V30 7 C -1.11049 0.144022 0.317706 0
M  V30 8 N -1.13274 1.32767 -0.550338 0
M  V30 9 C 0.024017 -0.576232 0.700439 0
M  V30 10 C -0.241543 -1.63567 1.51445 0
M  V30 11 S -1.94536 -1.65618 1.75066 0
M  V30 12 S 1.27426 -2.38017 1.86554 0
M  V30 13 C 2.23574 -1.31404 0.956289 0
M  V30 14 C 3.71099 -1.37286 0.808068 0
M  V30 15 O 4.31339 -2.28713 1.40264 0
M  V30 16 O 4.35455 -0.45728 0.0507754 0
M  V30 17 C 5.77817 -0.445765 -0.142504 0
M  V30 18 C 6.0698 0.733319 -1.04802 0
M  V30 19 C 1.38331 -0.417368 0.407134 0
M  V30 20 N 1.97026 0.621743 -0.43362 0
M  V30 21 H -6.11281 -0.692271 -1.08598 0
M  V30 22 H -6.03144 1.11825 -1.08568 0
M  V30 23 H -7.52279 0.279509 -0.620278 0
M  V30 24 H -6.11253 1.2539 1.2954 0
M  V30 25 H -6.78165 -0.3763 1.48196 0
M  V30 26 H -1.10931 1.18078 -1.56425 0
M  V30 27 H -1.17072 2.27677 -0.152538 0
M  V30 28 H 6.10571 -1.4081 -0.566895 0
M  V30 29 H 6.28806 -0.286209 0.842686 0
M  V30 30 H 7.11937 1.08258 -0.957142 0
M  V30 31 H 5.83298 0.387971 -2.09246 0
M  V30 32 H 5.333 1.5227 -0.820851 0
M  V30 33 H 2.36827 0.44486 -1.35786 0
M  V30 34 H 1.95918 1.56758 -0.0298222 0
M  V30 END ATOM
M  V30 BEGIN BOND
M  V30 1 1 1 2
M  V30 2 1 2 3
M  V30 3 1 3 4
M  V30 4 2 4 5
M  V30 5 1 4 6
M  V30 6 2 6 7
M  V30 7 1 7 8
M  V30 8 1 7 9
M  V30 9 2 9 10
M  V30 10 1 10 11
M  V30 11 1 10 12
M  V30 12 1 12 13
M  V30 13 1 13 14
M  V30 14 2 14 15
M  V30 15 1 14 16
M  V30 16 1 16 17
M  V30 17 1 17 18
M  V30 18 2 13 19
M  V30 19 1 19 20
M  V30 20 1 11 6
M  V30 21 1 19 9
M  V30 22 1 1 21
M  V30 23 1 1 22
M  V30 24 1 1 23
M  V30 25 1 2 24
M  V30 26 1 2 25
M  V30 27 1 8 26
M  V30 28 1 8 27
M  V30 29 1 17 28
M  V30 30 1 17 29
M  V30 31 1 18 30
M  V30 32 1 18 31
M  V30 33 1 18 32
M  V30 34 1 20 33
M  V30 35 1 20 34
M  V30 END BOND
M  V30 END CTAB
M  END
