
     RDKit          3D

  0  0  0  0  0  0  0  0  0  0999 V3000
M  V30 BEGIN CTAB
M  V30 COUNTS 52 53 0 0 0
M  V30 BEGIN ATOM
M  V30 1 C -7.15436 3.19811 0.935112 0
M  V30 2 C -6.82478 2.12299 -0.0234516 0
M  V30 3 C -7.32068 2.08115 -1.305 0
M  V30 4 C -6.95276 1.04361 -2.15374 0
M  V30 5 C -6.1046 0.0355779 -1.77837 0
M  V30 6 C -5.59881 0.0717068 -0.480797 0
M  V30 7 C -4.6729 -1.01086 -0.0781011 0
M  V30 8 C -3.21721 -0.632875 -0.238584 0
M  V30 9 C -2.35703 -1.86426 0.136374 0
M  V30 10 N -1.04601 -1.6064 0.0506961 0
M  V30 11 C 0.323139 -1.33709 -0.0388658 0
M  V30 12 O 0.91994 -0.931383 -1.04444 0
M  V30 13 C 1.21273 -1.54664 1.16854 0
M  V30 14 C 2.62388 -1.23448 0.878031 0
M  V30 15 C 3.25553 -0.175339 1.4362 0
M  V30 16 C 4.59599 0.104441 1.12976 0
M  V30 17 C 5.33677 -0.663243 0.261615 0
M  V30 18 O 6.62659 -0.490629 -0.10528 0
M  V30 19 C 7.55789 0.439384 0.239952 0
M  V30 20 C 7.26216 1.87381 -0.0885485 0
M  V30 21 N 7.06523 2.09211 -1.52278 0
M  V30 22 C 4.66548 -1.77384 -0.321541 0
M  V30 23 N 5.35634 -2.62304 -1.23393 0
M  V30 24 C 3.3652 -2.02476 -0.00829337 0
M  V30 25 C -5.95975 1.08975 0.352728 0
M  V30 26 H -6.70319 2.99657 1.92429 0
M  V30 27 H -8.25936 3.36069 0.988313 0
M  V30 28 H -6.66056 4.13735 0.566983 0
M  V30 29 H -8.0025 2.8693 -1.63845 0
M  V30 30 H -7.35005 1.01879 -3.16433 0
M  V30 31 H -5.82211 -0.766714 -2.43403 0
M  V30 32 H -4.95149 -1.92227 -0.629708 0
M  V30 33 H -4.80328 -1.23612 1.01819 0
M  V30 34 H -2.99257 -0.326575 -1.26908 0
M  V30 35 H -3.0147 0.213741 0.442162 0
M  V30 36 H -2.74891 -2.20054 1.15391 0
M  V30 37 H -2.79206 -2.66621 -0.538053 0
M  V30 38 H -1.21636 -1.32126 -1.29144 0
M  V30 39 H 1.06573 -2.56581 1.57461 0
M  V30 40 H 0.85224 -0.832801 1.93185 0
M  V30 41 H 2.7503 0.496668 2.14588 0
M  V30 42 H 5.05158 0.941232 1.60477 0
M  V30 43 H 7.81553 0.368548 1.35204 0
M  V30 44 H 8.5392 0.136017 -0.246239 0
M  V30 45 H 8.21119 2.44836 0.18931 0
M  V30 46 H 6.49123 2.31675 0.53561 0
M  V30 47 H 6.98381 1.17767 -2.00139 0
M  V30 48 H 6.21337 2.68209 -1.70039 0
M  V30 49 H 5.00014 -2.65724 -2.21164 0
M  V30 50 H 6.16542 -3.18561 -0.975801 0
M  V30 51 H 2.80091 -2.86537 -0.42724 0
M  V30 52 H -5.58149 1.14494 1.37662 0
M  V30 END ATOM
M  V30 BEGIN BOND
M  V30 1 1 1 2
M  V30 2 2 2 3
M  V30 3 1 3 4
M  V30 4 2 4 5
M  V30 5 1 5 6
M  V30 6 1 6 7
M  V30 7 1 7 8
M  V30 8 1 8 9
M  V30 9 1 9 10
M  V30 10 1 10 11
M  V30 11 2 11 12
M  V30 12 1 11 13
M  V30 13 1 13 14
M  V30 14 2 14 15
M  V30 15 1 15 16
M  V30 16 2 16 17
M  V30 17 1 17 18
M  V30 18 1 18 19
M  V30 19 1 19 20
M  V30 20 1 20 21
M  V30 21 1 17 22
M  V30 22 1 22 23
M  V30 23 2 22 24
M  V30 24 2 6 25
M  V30 25 1 25 2
M  V30 26 1 24 14
M  V30 27 1 1 26
M  V30 28 1 1 27
M  V30 29 1 1 28
M  V30 30 1 3 29
M  V30 31 1 4 30
M  V30 32 1 5 31
M  V30 33 1 7 32
M  V30 34 1 7 33
M  V30 35 1 8 34
M  V30 36 1 8 35
M  V30 37 1 9 36
M  V30 38 1 9 37
M  V30 39 1 10 38
M  V30 40 1 13 39
M  V30 41 1 13 40
M  V30 42 1 15 41
M  V30 43 1 16 42
M  V30 44 1 19 43
M  V30 45 1 19 44
M  V30 46 1 20 45
M  V30 47 1 20 46
M  V30 48 1 21 47
M  V30 49 1 21 48
M  V30 50 1 23 49
M  V30 51 1 23 50
M  V30 52 1 24 51
M  V30 53 1 25 52
M  V30 END BOND
M  V30 END CTAB
M  END
