
     RDKit          3D

  0  0  0  0  0  0  0  0  0  0999 V3000
M  V30 BEGIN CTAB
M  V30 COUNTS 30 33 0 0 0
M  V30 BEGIN ATOM
M  V30 1 N -2.88072 -1.06839 -1.01518 0
M  V30 2 C -2.67547 -1.61538 0.274397 0
M  V30 3 N -3.55419 -2.30498 1.02316 0
M  V30 4 O -2.97132 -2.64262 2.15343 0
M  V30 5 N -1.75333 -2.1903 2.14626 0
M  V30 6 C -1.51813 -1.54093 0.995276 0
M  V30 7 C -0.288727 -0.881217 0.592634 0
M  V30 8 N 0.790037 -1.60892 0.169522 0
M  V30 9 C 1.93195 -1.02192 -0.211503 0
M  V30 10 C 3.02974 -1.76105 -0.641101 0
M  V30 11 C 4.21353 -1.17612 -1.03608 0
M  V30 12 C 4.34669 0.196859 -1.01604 0
M  V30 13 C 3.26271 0.936503 -0.591472 0
M  V30 14 C 2.0733 0.349395 -0.194599 0
M  V30 15 N 1.01464 1.0616 0.220631 0
M  V30 16 C -0.146094 0.49135 0.609283 0
M  V30 17 C -1.25582 1.30652 1.05522 0
M  V30 18 N -1.834 1.21417 2.25812 0
M  V30 19 O -2.80073 2.09385 2.3284 0
M  V30 20 N -2.87701 2.75903 1.21616 0
M  V30 21 C -1.92198 2.29998 0.377194 0
M  V30 22 N -1.69474 2.78618 -0.941495 0
M  V30 23 H -3.71621 -0.492432 -1.25765 0
M  V30 24 H -2.15559 -1.26012 -1.73773 0
M  V30 25 H 2.90818 -2.84269 -0.650697 0
M  V30 26 H 5.06349 -1.76718 -1.36978 0
M  V30 27 H 5.27505 0.684945 -1.32459 0
M  V30 28 H 3.34079 2.01279 -0.566036 0
M  V30 29 H -1.37435 3.79045 -1.07173 0
M  V30 30 H -1.83169 2.19063 -1.79403 0
M  V30 END ATOM
M  V30 BEGIN BOND
M  V30 1 1 1 2
M  V30 2 2 2 3
M  V30 3 1 3 4
M  V30 4 1 4 5
M  V30 5 2 5 6
M  V30 6 1 6 7
M  V30 7 2 7 8
M  V30 8 1 8 9
M  V30 9 2 9 10
M  V30 10 1 10 11
M  V30 11 2 11 12
M  V30 12 1 12 13
M  V30 13 2 13 14
M  V30 14 1 14 15
M  V30 15 2 15 16
M  V30 16 1 16 17
M  V30 17 2 17 18
M  V30 18 1 18 19
M  V30 19 1 19 20
M  V30 20 2 20 21
M  V30 21 1 21 22
M  V30 22 1 6 2
M  V30 23 1 16 7
M  V30 24 1 21 17
M  V30 25 1 14 9
M  V30 26 1 1 23
M  V30 27 1 1 24
M  V30 28 1 10 25
M  V30 29 1 11 26
M  V30 30 1 12 27
M  V30 31 1 13 28
M  V30 32 1 22 29
M  V30 33 1 22 30
M  V30 END BOND
M  V30 END CTAB
M  END
