
     RDKit          3D

  0  0  0  0  0  0  0  0  0  0999 V3000
M  V30 BEGIN CTAB
M  V30 COUNTS 28 28 0 0 0
M  V30 BEGIN ATOM
M  V30 1 N 2.31326 2.04117 -0.455268 0
M  V30 2 C 1.62536 0.768702 -0.37968 0
M  V30 3 C 2.12136 -0.0688157 0.773241 0
M  V30 4 C 1.50449 -1.44947 0.644809 0
M  V30 5 C -0.0157104 -1.35432 0.765163 0
M  V30 6 C -0.498089 -0.407656 -0.29357 0
M  V30 7 C 0.12679 0.963868 -0.155742 0
M  V30 8 N -0.0295114 -0.926976 -1.57382 0
M  V30 9 C -1.9734 -0.276676 -0.392241 0
M  V30 10 C -2.65951 0.203295 0.810149 0
M  V30 11 O -2.11587 0.506663 1.90063 0
M  V30 12 O -4.05632 0.353177 0.785729 0
M  V30 13 H 2.33853 2.30971 -1.47911 0
M  V30 14 H 1.67778 2.7547 -0.0122089 0
M  V30 15 H 1.7495 0.225062 -1.33465 0
M  V30 16 H 1.69517 0.375916 1.69732 0
M  V30 17 H 3.20737 -0.183642 0.804835 0
M  V30 18 H 1.8837 -2.04144 1.51263 0
M  V30 19 H 1.77104 -1.86339 -0.327106 0
M  V30 20 H -0.428119 -2.35052 0.550511 0
M  V30 21 H -0.222532 -1.05761 1.79216 0
M  V30 22 H -0.314529 1.64179 -0.890673 0
M  V30 23 H -0.017842 1.28931 0.894445 0
M  V30 24 H -0.191598 -0.20918 -2.33123 0
M  V30 25 H -0.503744 -1.81431 -1.83939 0
M  V30 26 H -2.1724 0.488101 -1.2003 0
M  V30 27 H -2.44804 -1.21429 -0.80323 0
M  V30 28 H -4.36715 1.29683 0.536603 0
M  V30 END ATOM
M  V30 BEGIN BOND
M  V30 1 1 1 2
M  V30 2 1 2 3
M  V30 3 1 3 4
M  V30 4 1 4 5
M  V30 5 1 5 6
M  V30 6 1 6 7
M  V30 7 1 6 8
M  V30 8 1 6 9
M  V30 9 1 9 10
M  V30 10 2 10 11
M  V30 11 1 10 12
M  V30 12 1 7 2
M  V30 13 1 1 13
M  V30 14 1 1 14
M  V30 15 1 2 15
M  V30 16 1 3 16
M  V30 17 1 3 17
M  V30 18 1 4 18
M  V30 19 1 4 19
M  V30 20 1 5 20
M  V30 21 1 5 21
M  V30 22 1 7 22
M  V30 23 1 7 23
M  V30 24 1 8 24
M  V30 25 1 8 25
M  V30 26 1 9 26
M  V30 27 1 9 27
M  V30 28 1 12 28
M  V30 END BOND
M  V30 END CTAB
M  END
