
     RDKit          3D

  0  0  0  0  0  0  0  0  0  0999 V3000
M  V30 BEGIN CTAB
M  V30 COUNTS 25 25 0 0 0
M  V30 BEGIN ATOM
M  V30 1 F 0.38732 3.92597 0.323183 0
M  V30 2 C -0.0310262 2.87798 1.16296 0
M  V30 3 O 0.528936 1.6939 0.70048 0
M  V30 4 C -0.12647 0.583078 0.242276 0
M  V30 5 C -1.50324 0.499367 0.180329 0
M  V30 6 C -2.15585 -0.641129 -0.289649 0
M  V30 7 N -3.56875 -0.737742 -0.357431 0
M  V30 8 C -1.37948 -1.69922 -0.697126 0
M  V30 9 C -0.00843642 -1.65674 -0.651805 0
M  V30 10 C 0.64336 -0.508236 -0.17864 0
M  V30 11 C 2.09218 -0.525387 -0.155329 0
M  V30 12 O 2.72485 -1.53692 -0.546478 0
M  V30 13 C 2.88682 0.620743 0.319324 0
M  V30 14 N 0.799379 -2.75353 -1.07419 0
M  V30 15 F 0.449614 3.2354 2.41308 0
M  V30 16 H -1.13562 2.92492 1.15899 0
M  V30 17 H -2.10522 1.33511 0.502423 0
M  V30 18 H -4.10488 -1.39246 0.242546 0
M  V30 19 H -4.09135 -0.14111 -1.0227 0
M  V30 20 H -1.86355 -2.5912 -1.06414 0
M  V30 21 H 3.99028 0.427379 0.200962 0
M  V30 22 H 2.6887 0.897004 1.38004 0
M  V30 23 H 2.68532 1.48446 -0.335697 0
M  V30 24 H 1.06187 -2.8744 -2.06759 0
M  V30 25 H 1.13527 -3.44724 -0.385813 0
M  V30 END ATOM
M  V30 BEGIN BOND
M  V30 1 1 1 2
M  V30 2 1 2 3
M  V30 3 1 3 4
M  V30 4 2 4 5
M  V30 5 1 5 6
M  V30 6 1 6 7
M  V30 7 2 6 8
M  V30 8 1 8 9
M  V30 9 2 9 10
M  V30 10 1 10 11
M  V30 11 2 11 12
M  V30 12 1 11 13
M  V30 13 1 9 14
M  V30 14 1 2 15
M  V30 15 1 10 4
M  V30 16 1 2 16
M  V30 17 1 5 17
M  V30 18 1 7 18
M  V30 19 1 7 19
M  V30 20 1 8 20
M  V30 21 1 13 21
M  V30 22 1 13 22
M  V30 23 1 13 23
M  V30 24 1 14 24
M  V30 25 1 14 25
M  V30 END BOND
M  V30 END CTAB
M  END
