
     RDKit          3D

  0  0  0  0  0  0  0  0  0  0999 V3000
M  V30 BEGIN CTAB
M  V30 COUNTS 22 22 0 0 0
M  V30 BEGIN ATOM
M  V30 1 N 3.00536 -0.536314 0.75887 0
M  V30 2 C 2.75671 -0.0700943 -0.615721 0
M  V30 3 C 2.09749 1.27456 -0.484944 0
M  V30 4 O 0.918852 1.18472 0.212807 0
M  V30 5 C -0.223501 0.480081 -0.0820976 0
M  V30 6 N -0.378717 -0.277203 -1.17387 0
M  V30 7 C -1.50522 -0.940071 -1.41636 0
M  V30 8 C -2.56744 -0.873416 -0.545754 0
M  V30 9 C -2.45644 -0.104483 0.59636 0
M  V30 10 C -1.28455 0.57055 0.825515 0
M  V30 11 N -3.53211 -0.00929798 1.52192 0
M  V30 12 H 4.01017 -0.421106 1.01596 0
M  V30 13 H 2.68378 -1.53003 0.776531 0
M  V30 14 H 3.73207 -0.00479371 -1.15363 0
M  V30 15 H 2.09524 -0.757848 -1.16493 0
M  V30 16 H 2.78572 1.98419 0.0538097 0
M  V30 17 H 1.89906 1.7413 -1.47626 0
M  V30 18 H -1.59344 -1.54536 -2.31482 0
M  V30 19 H -3.48026 -1.4098 -0.741088 0
M  V30 20 H -1.15115 1.19556 1.72277 0
M  V30 21 H -4.30753 0.633415 1.31108 0
M  V30 22 H -3.50409 -0.584561 2.37385 0
M  V30 END ATOM
M  V30 BEGIN BOND
M  V30 1 1 1 2
M  V30 2 1 2 3
M  V30 3 1 3 4
M  V30 4 1 4 5
M  V30 5 2 5 6
M  V30 6 1 6 7
M  V30 7 2 7 8
M  V30 8 1 8 9
M  V30 9 2 9 10
M  V30 10 1 9 11
M  V30 11 1 10 5
M  V30 12 1 1 12
M  V30 13 1 1 13
M  V30 14 1 2 14
M  V30 15 1 2 15
M  V30 16 1 3 16
M  V30 17 1 3 17
M  V30 18 1 7 18
M  V30 19 1 8 19
M  V30 20 1 10 20
M  V30 21 1 11 21
M  V30 22 1 11 22
M  V30 END BOND
M  V30 END CTAB
M  END
