
     RDKit          3D

  0  0  0  0  0  0  0  0  0  0999 V3000
M  V30 BEGIN CTAB
M  V30 COUNTS 35 36 0 0 0
M  V30 BEGIN ATOM
M  V30 1 C -4.55484 -0.147335 1.09418 0
M  V30 2 N -3.79728 -0.410772 -0.114779 0
M  V30 3 C -4.40899 -1.15799 -1.19268 0
M  V30 4 C -2.47622 0.05985 -0.2336 0
M  V30 5 C -1.72193 -0.165212 -1.36202 0
M  V30 6 C -0.421536 0.296671 -1.48541 0
M  V30 7 C 0.146248 1.00127 -0.459947 0
M  V30 8 C 1.50995 1.5267 -0.472601 0
M  V30 9 C 2.49742 0.755639 0.306238 0
M  V30 10 C 2.89009 1.23122 1.55861 0
M  V30 11 N 3.78499 0.539858 2.28594 0
M  V30 12 C 4.33511 -0.611013 1.86336 0
M  V30 13 N 5.29094 -1.32325 2.67164 0
M  V30 14 N 3.9601 -1.07362 0.657024 0
M  V30 15 C 3.05451 -0.412009 -0.124929 0
M  V30 16 N 2.72197 -0.967126 -1.38589 0
M  V30 17 C -0.606579 1.23704 0.69028 0
M  V30 18 C -1.88796 0.778271 0.803432 0
M  V30 19 H -4.78585 0.934904 1.1826 0
M  V30 20 H -5.50025 -0.725743 1.12912 0
M  V30 21 H -3.95856 -0.469842 1.97028 0
M  V30 22 H -4.16803 -0.669638 -2.14258 0
M  V30 23 H -5.51686 -1.20321 -1.09374 0
M  V30 24 H -3.94332 -2.16351 -1.1975 0
M  V30 25 H -2.13403 -0.723237 -2.20459 0
M  V30 26 H 0.124402 0.0963909 -2.40604 0
M  V30 27 H 1.45298 2.57361 -0.047131 0
M  V30 28 H 1.90413 1.67088 -1.50667 0
M  V30 29 H 2.44443 2.15813 1.89485 0
M  V30 30 H 5.40533 -1.06054 3.66642 0
M  V30 31 H 5.847 -2.08266 2.25338 0
M  V30 32 H 2.53287 -1.95315 -1.57609 0
M  V30 33 H 2.67077 -0.276245 -2.1905 0
M  V30 34 H -0.184439 1.78867 1.51279 0
M  V30 35 H -2.50658 0.946993 1.69448 0
M  V30 END ATOM
M  V30 BEGIN BOND
M  V30 1 1 1 2
M  V30 2 1 2 3
M  V30 3 1 2 4
M  V30 4 2 4 5
M  V30 5 1 5 6
M  V30 6 2 6 7
M  V30 7 1 7 8
M  V30 8 1 8 9
M  V30 9 2 9 10
M  V30 10 1 10 11
M  V30 11 2 11 12
M  V30 12 1 12 13
M  V30 13 1 12 14
M  V30 14 2 14 15
M  V30 15 1 15 16
M  V30 16 1 7 17
M  V30 17 2 17 18
M  V30 18 1 18 4
M  V30 19 1 15 9
M  V30 20 1 1 19
M  V30 21 1 1 20
M  V30 22 1 1 21
M  V30 23 1 3 22
M  V30 24 1 3 23
M  V30 25 1 3 24
M  V30 26 1 5 25
M  V30 27 1 6 26
M  V30 28 1 8 27
M  V30 29 1 8 28
M  V30 30 1 10 29
M  V30 31 1 13 30
M  V30 32 1 13 31
M  V30 33 1 16 32
M  V30 34 1 16 33
M  V30 35 1 17 34
M  V30 36 1 18 35
M  V30 END BOND
M  V30 END CTAB
M  END
