
     RDKit          3D

  0  0  0  0  0  0  0  0  0  0999 V3000
M  V30 BEGIN CTAB
M  V30 COUNTS 37 38 0 0 0
M  V30 BEGIN ATOM
M  V30 1 N 5.91808 0.275023 -0.363931 0
M  V30 2 C 4.49557 0.2088 -0.253824 0
M  V30 3 C 3.91865 0.242273 0.996636 0
M  V30 4 C 2.55354 0.178748 1.10318 0
M  V30 5 C 1.69888 0.0817849 0.0269781 0
M  V30 6 C 2.28866 0.0491283 -1.21989 0
M  V30 7 C 3.68039 0.112538 -1.3557 0
M  V30 8 C 0.248477 0.0195707 0.249047 0 CFG=1
M  V30 9 C -0.430733 1.19897 -0.385591 0
M  V30 10 C -1.24096 0.877653 -1.60046 0
M  V30 11 C -2.5277 0.14071 -1.28477 0
M  V30 12 N -2.53249 -0.257852 0.0509834 0
M  V30 13 C -1.74366 -1.36006 0.440357 0
M  V30 14 C -0.375109 -1.26813 -0.219912 0
M  V30 15 S -3.84512 0.154956 1.00462 0
M  V30 16 O -3.68895 -0.180832 2.45003 0
M  V30 17 O -4.04044 1.66446 0.936942 0
M  V30 18 N -5.31276 -0.539708 0.410555 0
M  V30 19 H 6.47675 -0.551831 -0.66175 0
M  V30 20 H 6.3795 1.17135 -0.13851 0
M  V30 21 H 4.58257 0.31856 1.85164 0
M  V30 22 H 2.13318 0.207863 2.10898 0
M  V30 23 H 1.64857 -0.0260555 -2.0749 0
M  V30 24 H 4.13529 0.0869596 -2.32573 0
M  V30 25 H 0.0625342 0.0597581 1.34736 0
M  V30 26 H 0.344901 1.93176 -0.684108 0
M  V30 27 H -1.07427 1.7213 0.35044 0
M  V30 28 H -0.708686 0.300655 -2.35801 0
M  V30 29 H -1.52084 1.86067 -2.06119 0
M  V30 30 H -3.41824 0.80151 -1.47539 0
M  V30 31 H -2.67507 -0.730673 -1.96062 0
M  V30 32 H -2.20847 -2.33134 0.176879 0
M  V30 33 H -1.55831 -1.37936 1.52882 0
M  V30 34 H -0.397489 -1.40837 -1.29662 0
M  V30 35 H 0.210698 -2.12989 0.201447 0
M  V30 36 H -5.37531 -1.50313 0.824368 0
M  V30 37 H -6.10163 0.002233 0.826065 0
M  V30 END ATOM
M  V30 BEGIN BOND
M  V30 1 1 1 2
M  V30 2 2 2 3
M  V30 3 1 3 4
M  V30 4 2 4 5
M  V30 5 1 5 6
M  V30 6 2 6 7
M  V30 7 1 5 8
M  V30 8 1 8 9
M  V30 9 1 9 10
M  V30 10 1 10 11
M  V30 11 1 11 12
M  V30 12 1 12 13
M  V30 13 1 13 14
M  V30 14 1 12 15
M  V30 15 2 15 16
M  V30 16 2 15 17
M  V30 17 1 15 18
M  V30 18 1 7 2
M  V30 19 1 14 8
M  V30 20 1 1 19
M  V30 21 1 1 20
M  V30 22 1 3 21
M  V30 23 1 4 22
M  V30 24 1 6 23
M  V30 25 1 7 24
M  V30 26 1 8 25 CFG=1
M  V30 27 1 9 26
M  V30 28 1 9 27
M  V30 29 1 10 28
M  V30 30 1 10 29
M  V30 31 1 11 30
M  V30 32 1 11 31
M  V30 33 1 13 32
M  V30 34 1 13 33
M  V30 35 1 14 34
M  V30 36 1 14 35
M  V30 37 1 18 36
M  V30 38 1 18 37
M  V30 END BOND
M  V30 END CTAB
M  END
