
     RDKit          3D

  0  0  0  0  0  0  0  0  0  0999 V3000
M  V30 BEGIN CTAB
M  V30 COUNTS 38 40 0 0 0
M  V30 BEGIN ATOM
M  V30 1 N -1.28372 3.43 0.198749 0
M  V30 2 C -1.81107 2.12664 0.0133342 0
M  V30 3 C -3.14017 1.87205 -0.156122 0
M  V30 4 O -4.04706 2.92056 -0.151619 0
M  V30 5 C -3.56141 0.556459 -0.331205 0
M  V30 6 C -2.68949 -0.493819 -0.339686 0
M  V30 7 C -1.34692 -0.263047 -0.17111 0
M  V30 8 C -0.427864 -1.29148 -0.172301 0
M  V30 9 C 0.911451 -1.04214 -0.00226588 0
M  V30 10 C 1.82455 -2.10471 -0.00637083 0
M  V30 11 N 1.37918 -3.44725 -0.186603 0
M  V30 12 C 3.14499 -1.82688 0.165391 0
M  V30 13 O 4.0784 -2.85135 0.167306 0
M  V30 14 C 3.60605 -0.531119 0.342709 0
M  V30 15 C 2.7152 0.522007 0.348262 0
M  V30 16 C 1.37384 0.251641 0.17507 0
M  V30 17 C 0.436671 1.25829 0.17223 0
M  V30 18 C -0.92492 1.05826 0.00462031 0
M  V30 19 S 3.21002 2.18308 0.560759 0
M  V30 20 O 2.78842 3.09469 -0.775274 0
M  V30 21 O 4.72317 2.18381 0.725075 0
M  V30 22 O 2.65254 2.76565 1.83077 0
M  V30 23 S -3.24255 -2.12415 -0.560002 0
M  V30 24 O -2.85343 -3.10805 0.754806 0
M  V30 25 O -2.66104 -2.73223 -1.82597 0
M  V30 26 O -4.74026 -2.11846 -0.757491 0
M  V30 27 H -0.756522 3.65545 1.06559 0
M  V30 28 H -1.43347 4.13365 -0.532961 0
M  V30 29 H -3.73182 3.87069 -0.0239847 0
M  V30 30 H -4.63797 0.379673 -0.465541 0
M  V30 31 H -0.762981 -2.28774 -0.30661 0
M  V30 32 H 1.98166 -4.07241 -0.760665 0
M  V30 33 H 0.493221 -3.8168 0.225764 0
M  V30 34 H 3.83858 -3.81837 0.0464042 0
M  V30 35 H 4.66031 -0.34627 0.476213 0
M  V30 36 H 0.74086 2.28315 0.307344 0
M  V30 37 H 2.82006 2.51897 -1.59564 0
M  V30 38 H -3.32652 -2.78841 1.54103 0
M  V30 END ATOM
M  V30 BEGIN BOND
M  V30 1 1 1 2
M  V30 2 2 2 3
M  V30 3 1 3 4
M  V30 4 1 3 5
M  V30 5 2 5 6
M  V30 6 1 6 7
M  V30 7 2 7 8
M  V30 8 1 8 9
M  V30 9 2 9 10
M  V30 10 1 10 11
M  V30 11 1 10 12
M  V30 12 1 12 13
M  V30 13 2 12 14
M  V30 14 1 14 15
M  V30 15 2 15 16
M  V30 16 1 16 17
M  V30 17 2 17 18
M  V30 18 1 15 19
M  V30 19 1 19 20
M  V30 20 2 19 21
M  V30 21 2 19 22
M  V30 22 1 6 23
M  V30 23 1 23 24
M  V30 24 2 23 25
M  V30 25 2 23 26
M  V30 26 1 18 2
M  V30 27 1 18 7
M  V30 28 1 16 9
M  V30 29 1 1 27
M  V30 30 1 1 28
M  V30 31 1 4 29
M  V30 32 1 5 30
M  V30 33 1 8 31
M  V30 34 1 11 32
M  V30 35 1 11 33
M  V30 36 1 13 34
M  V30 37 1 14 35
M  V30 38 1 17 36
M  V30 39 1 20 37
M  V30 40 1 24 38
M  V30 END BOND
M  V30 END CTAB
M  END
