
     RDKit          3D

  0  0  0  0  0  0  0  0  0  0999 V3000
M  V30 BEGIN CTAB
M  V30 COUNTS 33 33 0 0 0
M  V30 BEGIN ATOM
M  V30 1 N -1.07251 2.32201 -1.41947 0
M  V30 2 N -0.341467 1.80458 -0.290712 0
M  V30 3 C -0.302937 0.366116 -0.301327 0
M  V30 4 C -1.52079 -0.376306 0.0547648 0
M  V30 5 C -1.95304 0.0630735 1.50464 0
M  V30 6 C -1.30017 -1.84947 0.212363 0
M  V30 7 C -2.72877 -0.0548504 -0.773246 0
M  V30 8 C 1.01487 -0.229878 -0.161494 0
M  V30 9 C 1.41409 -1.41752 -0.741865 0
M  V30 10 C 2.71937 -1.86911 -0.678089 0
M  V30 11 C 3.67215 -1.14404 -0.0322929 0
M  V30 12 C 3.30406 0.0489808 0.561828 0
M  V30 13 C 2.01264 0.496216 0.500692 0
M  V30 14 N 1.68062 1.74258 1.13005 0
M  V30 15 H -0.978192 3.37144 -1.37241 0
M  V30 16 H -0.562731 1.99642 -2.28343 0
M  V30 17 H -0.863285 2.19908 0.513124 0
M  V30 18 H -0.401994 0.242768 -1.53469 0
M  V30 19 H -1.1062 -0.0882663 2.17056 0
M  V30 20 H -2.70702 -0.681227 1.76947 0
M  V30 21 H -2.41251 1.04798 1.48483 0
M  V30 22 H -1.37127 -2.45134 -0.706561 0
M  V30 23 H -0.406648 -2.01815 0.832792 0
M  V30 24 H -2.15566 -2.1929 0.91636 0
M  V30 25 H -2.60971 -0.318115 -1.80986 0
M  V30 26 H -3.00386 1.01823 -0.627934 0
M  V30 27 H -3.56161 -0.683011 -0.278025 0
M  V30 28 H 0.732288 -2.01735 -1.29652 0
M  V30 29 H 3.00132 -2.80312 -1.18119 0
M  V30 30 H 4.6852 -1.51105 0.00483013 0
M  V30 31 H 4.0616 0.636572 1.09465 0
M  V30 32 H 2.09021 2.63262 0.827594 0
M  V30 33 H 0.971957 1.71705 1.91056 0
M  V30 END ATOM
M  V30 BEGIN BOND
M  V30 1 1 1 2
M  V30 2 1 2 3
M  V30 3 1 3 4
M  V30 4 1 4 5
M  V30 5 1 4 6
M  V30 6 1 4 7
M  V30 7 1 3 8
M  V30 8 2 8 9
M  V30 9 1 9 10
M  V30 10 2 10 11
M  V30 11 1 11 12
M  V30 12 2 12 13
M  V30 13 1 13 14
M  V30 14 1 13 8
M  V30 15 1 1 15
M  V30 16 1 1 16
M  V30 17 1 2 17
M  V30 18 1 3 18
M  V30 19 1 5 19
M  V30 20 1 5 20
M  V30 21 1 5 21
M  V30 22 1 6 22
M  V30 23 1 6 23
M  V30 24 1 6 24
M  V30 25 1 7 25
M  V30 26 1 7 26
M  V30 27 1 7 27
M  V30 28 1 9 28
M  V30 29 1 10 29
M  V30 30 1 11 30
M  V30 31 1 12 31
M  V30 32 1 14 32
M  V30 33 1 14 33
M  V30 END BOND
M  V30 END CTAB
M  END
