
     RDKit          3D

  0  0  0  0  0  0  0  0  0  0999 V3000
M  V30 BEGIN CTAB
M  V30 COUNTS 23 24 0 0 0
M  V30 BEGIN ATOM
M  V30 1 N -3.88631 0.856657 -0.562293 0
M  V30 2 C -2.50332 0.489101 -0.372777 0
M  V30 3 C -1.57179 0.693262 -1.35206 0
M  V30 4 C -0.253429 0.344423 -1.17516 0
M  V30 5 C 0.129899 -0.219305 0.00909105 0
M  V30 6 C -0.777601 -0.432943 0.999225 0
M  V30 7 C -2.09447 -0.0824281 0.817468 0
M  V30 8 N -0.104201 -0.998359 2.03846 0
M  V30 9 C 1.18831 -1.13064 1.698 0
M  V30 10 C 1.37632 -0.653946 0.433233 0
M  V30 11 S 2.87897 -0.618624 -0.42581 0
M  V30 12 O 2.81447 -1.44148 -1.69179 0
M  V30 13 O 3.9717 -1.2166 0.414109 0
M  V30 14 N 3.36011 0.964746 -0.870785 0
M  V30 15 H -4.07222 1.8515 -0.79389 0
M  V30 16 H -4.62408 0.138591 -0.46409 0
M  V30 17 H -1.87614 1.1378 -2.28488 0
M  V30 18 H 0.49706 0.499769 -1.94174 0
M  V30 19 H -2.82134 -0.245858 1.59171 0
M  V30 20 H -0.599724 -1.25282 2.91678 0
M  V30 21 H 1.9336 -1.55892 2.36424 0
M  V30 22 H 4.34892 1.17693 -0.705395 0
M  V30 23 H 2.68527 1.69914 -0.641648 0
M  V30 END ATOM
M  V30 BEGIN BOND
M  V30 1 1 1 2
M  V30 2 2 2 3
M  V30 3 1 3 4
M  V30 4 2 4 5
M  V30 5 1 5 6
M  V30 6 2 6 7
M  V30 7 1 6 8
M  V30 8 1 8 9
M  V30 9 2 9 10
M  V30 10 1 10 11
M  V30 11 2 11 12
M  V30 12 2 11 13
M  V30 13 1 11 14
M  V30 14 1 7 2
M  V30 15 1 10 5
M  V30 16 1 1 15
M  V30 17 1 1 16
M  V30 18 1 3 17
M  V30 19 1 4 18
M  V30 20 1 7 19
M  V30 21 1 8 20
M  V30 22 1 9 21
M  V30 23 1 14 22
M  V30 24 1 14 23
M  V30 END BOND
M  V30 END CTAB
M  END
