
     RDKit          3D

  0  0  0  0  0  0  0  0  0  0999 V3000
M  V30 BEGIN CTAB
M  V30 COUNTS 26 26 0 0 0
M  V30 BEGIN ATOM
M  V30 1 C 4.46777 -0.593191 -0.646719 0
M  V30 2 C 3.40182 -0.0519489 0.306846 0
M  V30 3 C 2.01973 -0.212152 -0.289732 0
M  V30 4 N 1.04993 0.304892 0.630312 0
M  V30 5 C -0.349265 0.307332 0.376524 0
M  V30 6 C -1.24581 0.812323 1.28453 0
M  V30 7 C -2.60386 0.812747 1.03413 0
M  V30 8 C -3.1094 0.302344 -0.144843 0
M  V30 9 C -2.17681 -0.200434 -1.04148 0
M  V30 10 N -0.854338 -0.194868 -0.784929 0
M  V30 11 N -2.69832 -0.733103 -2.27075 0
M  V30 12 N -4.49874 0.28021 -0.448909 0
M  V30 13 F 3.71721 1.27312 0.518985 0
M  V30 14 F 3.48966 -0.702547 1.52132 0
M  V30 15 H 4.0746 -1.44341 -1.24164 0
M  V30 16 H 4.82393 0.223697 -1.28114 0
M  V30 17 H 5.29381 -0.959874 0.00685523 0
M  V30 18 H 1.86752 -1.3043 -0.477517 0
M  V30 19 H 1.9221 0.314412 -1.25072 0
M  V30 20 H 1.36988 0.701616 1.53315 0
M  V30 21 H -0.838317 1.21841 2.22343 0
M  V30 22 H -3.28642 1.21795 1.76955 0
M  V30 23 H -3.04425 -0.157065 -3.04439 0
M  V30 24 H -2.71505 -1.78959 -2.35689 0
M  V30 25 H -5.12801 -0.523799 -0.228162 0
M  V30 26 H -4.94937 1.09723 -0.919618 0
M  V30 END ATOM
M  V30 BEGIN BOND
M  V30 1 1 1 2
M  V30 2 1 2 3
M  V30 3 1 3 4
M  V30 4 1 4 5
M  V30 5 2 5 6
M  V30 6 1 6 7
M  V30 7 2 7 8
M  V30 8 1 8 9
M  V30 9 2 9 10
M  V30 10 1 9 11
M  V30 11 1 8 12
M  V30 12 1 2 13
M  V30 13 1 2 14
M  V30 14 1 10 5
M  V30 15 1 1 15
M  V30 16 1 1 16
M  V30 17 1 1 17
M  V30 18 1 3 18
M  V30 19 1 3 19
M  V30 20 1 4 20
M  V30 21 1 6 21
M  V30 22 1 7 22
M  V30 23 1 11 23
M  V30 24 1 11 24
M  V30 25 1 12 25
M  V30 26 1 12 26
M  V30 END BOND
M  V30 END CTAB
M  END
