
     RDKit          3D

  0  0  0  0  0  0  0  0  0  0999 V3000
M  V30 BEGIN CTAB
M  V30 COUNTS 34 36 0 0 0
M  V30 BEGIN ATOM
M  V30 1 N 0.502416 -2.47025 -0.212031 0
M  V30 2 C 1.32772 -1.31083 -0.0294098 0
M  V30 3 N 2.64593 -1.22605 0.091616 0
M  V30 4 C 3.02892 0.0504521 0.248073 0
M  V30 5 C 1.86101 0.781398 0.218939 0
M  V30 6 N 1.93102 2.13387 0.355985 0
M  V30 7 C 3.11609 2.73248 0.515418 0
M  V30 8 N 4.23569 2.00069 0.540334 0
M  V30 9 C 4.25195 0.663685 0.412171 0
M  V30 10 N 5.46601 -0.0474354 0.44719 0
M  V30 11 N 0.829468 -0.0677078 0.0483802 0
M  V30 12 C -0.547767 0.340824 -0.029474 0 CFG=2
M  V30 13 O -1.27537 -0.0710964 1.08098 0
M  V30 14 C -2.58934 0.0965078 0.644279 0 CFG=2
M  V30 15 C -3.59226 -0.485475 1.6081 0
M  V30 16 O -4.85671 -0.277219 1.10227 0
M  V30 17 C -2.54159 -0.719627 -0.654968 0 CFG=1
M  V30 18 O -3.64614 -0.452042 -1.44977 0
M  V30 19 C -1.26042 -0.165743 -1.24946 0 CFG=1
M  V30 20 O -1.63986 0.890009 -2.10706 0
M  V30 21 H -0.0394385 -2.90837 0.558479 0
M  V30 22 H 0.432833 -2.90421 -1.154 0
M  V30 23 H 3.13254 3.81166 0.621391 0
M  V30 24 H 6.20219 0.163908 -0.240245 0
M  V30 25 H 5.6137 -0.775312 1.15882 0
M  V30 26 H -0.596383 1.44597 -0.0591512 0
M  V30 27 H -2.80942 1.14834 0.391954 0
M  V30 28 H -3.34693 -1.55353 1.75207 0
M  V30 29 H -3.48263 0.0745027 2.55919 0
M  V30 30 H -4.93451 0.546628 0.579509 0
M  V30 31 H -2.46104 -1.77323 -0.394761 0
M  V30 32 H -3.42374 -0.285643 -2.38979 0
M  V30 33 H -0.707647 -0.873621 -1.85467 0
M  V30 34 H -0.826282 1.48646 -2.14951 0
M  V30 END ATOM
M  V30 BEGIN BOND
M  V30 1 1 1 2
M  V30 2 2 2 3
M  V30 3 1 3 4
M  V30 4 2 4 5
M  V30 5 1 5 6
M  V30 6 2 6 7
M  V30 7 1 7 8
M  V30 8 2 8 9
M  V30 9 1 9 10
M  V30 10 1 5 11
M  V30 11 1 11 12
M  V30 12 1 12 13
M  V30 13 1 13 14
M  V30 14 1 14 15
M  V30 15 1 15 16
M  V30 16 1 14 17
M  V30 17 1 17 18
M  V30 18 1 17 19
M  V30 19 1 19 20
M  V30 20 1 11 2
M  V30 21 1 19 12
M  V30 22 1 9 4
M  V30 23 1 1 21
M  V30 24 1 1 22
M  V30 25 1 7 23
M  V30 26 1 10 24
M  V30 27 1 10 25
M  V30 28 1 12 26 CFG=3
M  V30 29 1 14 27 CFG=3
M  V30 30 1 15 28
M  V30 31 1 15 29
M  V30 32 1 16 30
M  V30 33 1 17 31 CFG=1
M  V30 34 1 18 32
M  V30 35 1 19 33 CFG=3
M  V30 36 1 20 34
M  V30 END BOND
M  V30 END CTAB
M  END
