
     RDKit          3D

  0  0  0  0  0  0  0  0  0  0999 V3000
M  V30 BEGIN CTAB
M  V30 COUNTS 43 42 0 0 0
M  V30 BEGIN ATOM
M  V30 1 N -7.18412 -0.14968 -0.322252 0
M  V30 2 C -5.75207 -0.240104 -0.651451 0
M  V30 3 C -4.94625 -0.369041 0.640334 0
M  V30 4 C -3.46572 -0.452261 0.328258 0
M  V30 5 N -3.00652 0.70951 -0.341691 0
M  V30 6 C -1.58759 0.617998 -0.69718 0
M  V30 7 C -0.71663 0.577781 0.497013 0
M  V30 8 C 0.728754 0.608796 0.284434 0
M  V30 9 C 1.42449 -0.468298 -0.457792 0
M  V30 10 N 2.86378 -0.0424872 -0.398534 0
M  V30 11 C 3.35852 -0.31975 0.892007 0
M  V30 12 C 4.62858 0.416095 1.23243 0
M  V30 13 C 5.70559 0.101742 0.233547 0
M  V30 14 N 6.90597 0.835642 0.638676 0
M  V30 15 C 1.12938 -0.724525 -1.8438 0
M  V30 16 O 0.424061 -1.86871 -2.23059 0
M  V30 17 O 1.48874 0.0425975 -2.76253 0
M  V30 18 H -7.44989 -1.00186 0.216945 0
M  V30 19 H -7.32577 0.729049 0.243412 0
M  V30 20 H -5.45292 0.620749 -1.2504 0
M  V30 21 H -5.58652 -1.18468 -1.20913 0
M  V30 22 H -5.19679 0.462806 1.33432 0
M  V30 23 H -5.24688 -1.30814 1.12556 0
M  V30 24 H -2.88249 -0.589214 1.26433 0
M  V30 25 H -3.32236 -1.34334 -0.302999 0
M  V30 26 H -3.26149 1.62373 0.0248625 0
M  V30 27 H -1.35513 1.53539 -1.28757 0
M  V30 28 H -1.4628 -0.262672 -1.3385 0
M  V30 29 H -0.935396 -0.397143 1.07045 0
M  V30 30 H -0.985127 1.39027 1.24201 0
M  V30 31 H 1.04332 1.62815 -0.178733 0
M  V30 32 H 1.19627 0.709422 1.32437 0
M  V30 33 H 1.32603 -1.40515 0.15934 0
M  V30 34 H 3.38443 -0.490344 -1.18873 0
M  V30 35 H 3.58174 -1.46096 0.988127 0
M  V30 36 H 2.65383 -0.144345 1.69553 0
M  V30 37 H 4.482 1.49859 1.3485 0
M  V30 38 H 4.92616 0.0281149 2.26004 0
M  V30 39 H 5.87952 -0.965629 0.0993827 0
M  V30 40 H 5.39157 0.579289 -0.732034 0
M  V30 41 H 6.64029 1.53519 1.34576 0
M  V30 42 H 7.38309 1.20944 -0.198819 0
M  V30 43 H 0.576374 -2.36752 -3.0969 0
M  V30 END ATOM
M  V30 BEGIN BOND
M  V30 1 1 1 2
M  V30 2 1 2 3
M  V30 3 1 3 4
M  V30 4 1 4 5
M  V30 5 1 5 6
M  V30 6 1 6 7
M  V30 7 1 7 8
M  V30 8 1 8 9
M  V30 9 1 9 10
M  V30 10 1 10 11
M  V30 11 1 11 12
M  V30 12 1 12 13
M  V30 13 1 13 14
M  V30 14 1 9 15
M  V30 15 1 15 16
M  V30 16 2 15 17
M  V30 17 1 1 18
M  V30 18 1 1 19
M  V30 19 1 2 20
M  V30 20 1 2 21
M  V30 21 1 3 22
M  V30 22 1 3 23
M  V30 23 1 4 24
M  V30 24 1 4 25
M  V30 25 1 5 26
M  V30 26 1 6 27
M  V30 27 1 6 28
M  V30 28 1 7 29
M  V30 29 1 7 30
M  V30 30 1 8 31
M  V30 31 1 8 32
M  V30 32 1 9 33
M  V30 33 1 10 34
M  V30 34 1 11 35
M  V30 35 1 11 36
M  V30 36 1 12 37
M  V30 37 1 12 38
M  V30 38 1 13 39
M  V30 39 1 13 40
M  V30 40 1 14 41
M  V30 41 1 14 42
M  V30 42 1 16 43
M  V30 END BOND
M  V30 END CTAB
M  END
