
     RDKit          3D

  0  0  0  0  0  0  0  0  0  0999 V3000
M  V30 BEGIN CTAB
M  V30 COUNTS 19 19 0 0 0
M  V30 BEGIN ATOM
M  V30 1 N -2.76627 -1.16222 0.754313 0
M  V30 2 C -1.77589 -0.334554 0.229121 0
M  V30 3 C -2.09003 0.921563 -0.249913 0
M  V30 4 C -1.0504 1.67621 -0.752659 0
M  V30 5 C 0.251647 1.22425 -0.788368 0
M  V30 6 C 0.561547 -0.0389788 -0.305568 0
M  V30 7 C -0.476248 -0.793509 0.196808 0
M  V30 8 S 2.16184 -0.677219 -0.313781 0
M  V30 9 O 2.72428 -0.715471 -1.7256 0
M  V30 10 O 2.13466 -2.10113 0.158722 0
M  V30 11 N 3.26088 0.28968 0.609817 0
M  V30 12 F 1.25325 2.00146 -1.29407 0
M  V30 13 H -2.93761 -1.18356 1.77703 0
M  V30 14 H -3.33808 -1.7597 0.142768 0
M  V30 15 H -3.11418 1.30396 -0.233263 0
M  V30 16 H -1.29732 2.66158 -1.12835 0
M  V30 17 H -0.266773 -1.80206 0.588888 0
M  V30 18 H 2.75108 0.814874 1.35622 0
M  V30 19 H 4.01362 -0.325189 0.977888 0
M  V30 END ATOM
M  V30 BEGIN BOND
M  V30 1 1 1 2
M  V30 2 2 2 3
M  V30 3 1 3 4
M  V30 4 2 4 5
M  V30 5 1 5 6
M  V30 6 2 6 7
M  V30 7 1 6 8
M  V30 8 2 8 9
M  V30 9 2 8 10
M  V30 10 1 8 11
M  V30 11 1 5 12
M  V30 12 1 7 2
M  V30 13 1 1 13
M  V30 14 1 1 14
M  V30 15 1 3 15
M  V30 16 1 4 16
M  V30 17 1 7 17
M  V30 18 1 11 18
M  V30 19 1 11 19
M  V30 END BOND
M  V30 END CTAB
M  END
