
     RDKit          3D

  0  0  0  0  0  0  0  0  0  0999 V3000
M  V30 BEGIN CTAB
M  V30 COUNTS 26 27 0 0 0
M  V30 BEGIN ATOM
M  V30 1 N 4.11401 0.0516929 -0.0354352 0
M  V30 2 N 2.78462 -0.160043 -0.406931 0
M  V30 3 C 2.30025 -0.470491 -1.62168 0
M  V30 4 N 0.963986 -0.591476 -1.56757 0
M  V30 5 C 0.563275 -0.356824 -0.292653 0
M  V30 6 C 1.7042 -0.0890377 0.419152 0
M  V30 7 N 1.81884 0.210648 1.81152 0
M  V30 8 C -0.827138 -0.356607 0.257375 0
M  V30 9 C -1.75037 -1.03421 -0.71555 0
M  V30 10 C -3.12033 -0.441255 -0.368422 0
M  V30 11 C -2.85016 0.912113 0.192491 0
M  V30 12 C -1.37263 1.06242 0.314224 0
M  V30 13 F -3.51152 1.12074 1.40161 0
M  V30 14 F -3.34047 1.90577 -0.658349 0
M  V30 15 H 4.38776 0.298889 0.927413 0
M  V30 16 H 4.86619 -0.044737 -0.745952 0
M  V30 17 H 2.95601 -0.597828 -2.49841 0
M  V30 18 H 2.38016 -0.39369 2.4757 0
M  V30 19 H 1.35696 1.02727 2.21152 0
M  V30 20 H -0.872713 -0.811539 1.24223 0
M  V30 21 H -1.44516 -0.811857 -1.74136 0
M  V30 22 H -1.72326 -2.137 -0.461098 0
M  V30 23 H -3.73601 -0.433904 -1.29419 0
M  V30 24 H -3.53439 -1.07366 0.442045 0
M  V30 25 H -1.11006 1.54776 1.26127 0
M  V30 26 H -1.00204 1.66686 -0.548944 0
M  V30 END ATOM
M  V30 BEGIN BOND
M  V30 1 1 1 2
M  V30 2 1 2 3
M  V30 3 2 3 4
M  V30 4 1 4 5
M  V30 5 2 5 6
M  V30 6 1 6 7
M  V30 7 1 5 8
M  V30 8 1 8 9
M  V30 9 1 9 10
M  V30 10 1 10 11
M  V30 11 1 11 12
M  V30 12 1 11 13
M  V30 13 1 11 14
M  V30 14 1 6 2
M  V30 15 1 12 8
M  V30 16 1 1 15
M  V30 17 1 1 16
M  V30 18 1 3 17
M  V30 19 1 7 18
M  V30 20 1 7 19
M  V30 21 1 8 20
M  V30 22 1 9 21
M  V30 23 1 9 22
M  V30 24 1 10 23
M  V30 25 1 10 24
M  V30 26 1 12 25
M  V30 27 1 12 26
M  V30 END BOND
M  V30 END CTAB
M  END
