
     RDKit          3D

  0  0  0  0  0  0  0  0  0  0999 V3000
M  V30 BEGIN CTAB
M  V30 COUNTS 31 31 0 0 0
M  V30 BEGIN ATOM
M  V30 1 N 4.40945 -0.209301 -0.253498 0
M  V30 2 C 3.22907 -0.651142 0.3905 0
M  V30 3 N 2.82947 -1.87357 0.138674 0
M  V30 4 C 2.41867 0.190954 1.31798 0
M  V30 5 N 1.13934 0.486813 0.687702 0
M  V30 6 N 0.109943 -0.355012 0.81638 0
M  V30 7 C -0.953141 0.131814 0.121345 0
M  V30 8 C -0.508848 1.30998 -0.430295 0
M  V30 9 C 0.815785 1.52903 -0.0687356 0
M  V30 10 N 1.65835 2.61317 -0.408788 0
M  V30 11 C -2.2952 -0.501881 -0.016758 0
M  V30 12 C -2.89698 -0.237167 -1.36639 0
M  V30 13 C -3.22551 0.0439197 1.02647 0
M  V30 14 C -2.14112 -1.9981 0.154068 0
M  V30 15 H 4.43534 0.735818 -0.672826 0
M  V30 16 H 5.25998 -0.809826 -0.317881 0
M  V30 17 H 3.36199 -2.49375 -0.510427 0
M  V30 18 H 2.99497 1.14221 1.45303 0
M  V30 19 H 2.27325 -0.286791 2.28784 0
M  V30 20 H -1.07722 1.9855 -1.05551 0
M  V30 21 H 2.37237 3.03095 0.262517 0
M  V30 22 H 1.63553 3.07458 -1.35064 0
M  V30 23 H -3.93375 -0.616634 -1.3744 0
M  V30 24 H -2.94134 0.846366 -1.623 0
M  V30 25 H -2.34355 -0.716179 -2.19584 0
M  V30 26 H -4.10999 -0.602931 1.20352 0
M  V30 27 H -2.64253 0.175808 1.96176 0
M  V30 28 H -3.51827 1.07625 0.689954 0
M  V30 29 H -1.37655 -2.19729 0.936482 0
M  V30 30 H -3.12251 -2.41354 0.440421 0
M  V30 31 H -1.85701 -2.41006 -0.84134 0
M  V30 END ATOM
M  V30 BEGIN BOND
M  V30 1 1 1 2
M  V30 2 2 2 3 CFG=2
M  V30 3 1 2 4
M  V30 4 1 4 5
M  V30 5 1 5 6
M  V30 6 2 6 7
M  V30 7 1 7 8
M  V30 8 2 8 9
M  V30 9 1 9 10
M  V30 10 1 7 11
M  V30 11 1 11 12
M  V30 12 1 11 13
M  V30 13 1 11 14
M  V30 14 1 9 5
M  V30 15 1 1 15
M  V30 16 1 1 16
M  V30 17 1 3 17
M  V30 18 1 4 18
M  V30 19 1 4 19
M  V30 20 1 8 20
M  V30 21 1 10 21
M  V30 22 1 10 22
M  V30 23 1 12 23
M  V30 24 1 12 24
M  V30 25 1 12 25
M  V30 26 1 13 26
M  V30 27 1 13 27
M  V30 28 1 13 28
M  V30 29 1 14 29
M  V30 30 1 14 30
M  V30 31 1 14 31
M  V30 END BOND
M  V30 END CTAB
M  END
