
     RDKit          3D

  0  0  0  0  0  0  0  0  0  0999 V3000
M  V30 BEGIN CTAB
M  V30 COUNTS 27 28 0 0 0
M  V30 BEGIN ATOM
M  V30 1 N 4.29416 -0.674083 -0.139202 0
M  V30 2 C 2.93735 -0.217694 -0.210837 0
M  V30 3 N 2.70073 1.08521 -0.42349 0
M  V30 4 C 1.40376 1.51673 -0.491194 0
M  V30 5 C 0.369026 0.629628 -0.343734 0
M  V30 6 C 0.604822 -0.700196 -0.126679 0
M  V30 7 N 1.92081 -1.05543 -0.0714963 0
M  V30 8 C -0.197443 -1.88881 0.0695697 0
M  V30 9 C -1.60042 -1.75535 0.442243 0
M  V30 10 C -2.36839 -0.631236 -0.145139 0
M  V30 11 C -1.89495 0.654088 0.531821 0
M  V30 12 C -0.94021 1.28636 -0.44829 0
M  V30 13 N -0.862548 2.72179 -0.252886 0
M  V30 14 H 5.08812 -0.00863258 -0.0258261 0
M  V30 15 H 4.50387 -1.69318 -0.200808 0
M  V30 16 H 1.18669 2.56959 -0.662979 0
M  V30 17 H -0.122014 -2.50789 -0.873859 0
M  V30 18 H 0.325349 -2.53019 0.840507 0
M  V30 19 H -1.70141 -1.69061 1.55848 0
M  V30 20 H -2.14246 -2.70724 0.175909 0
M  V30 21 H -2.33572 -0.558096 -1.23073 0
M  V30 22 H -3.44348 -0.756824 0.152689 0
M  V30 23 H -1.37234 0.426127 1.48974 0
M  V30 24 H -2.74195 1.30958 0.793617 0
M  V30 25 H -1.3474 1.14942 -1.4928 0
M  V30 26 H -1.85955 3.06258 -0.190543 0
M  V30 27 H -0.404395 2.96434 0.6623 0
M  V30 END ATOM
M  V30 BEGIN BOND
M  V30 1 1 1 2
M  V30 2 2 2 3
M  V30 3 1 3 4
M  V30 4 2 4 5
M  V30 5 1 5 6
M  V30 6 2 6 7
M  V30 7 1 6 8
M  V30 8 1 8 9
M  V30 9 1 9 10
M  V30 10 1 10 11
M  V30 11 1 11 12
M  V30 12 1 12 13
M  V30 13 1 7 2
M  V30 14 1 12 5
M  V30 15 1 1 14
M  V30 16 1 1 15
M  V30 17 1 4 16
M  V30 18 1 8 17
M  V30 19 1 8 18
M  V30 20 1 9 19
M  V30 21 1 9 20
M  V30 22 1 10 21
M  V30 23 1 10 22
M  V30 24 1 11 23
M  V30 25 1 11 24
M  V30 26 1 12 25
M  V30 27 1 13 26
M  V30 28 1 13 27
M  V30 END BOND
M  V30 END CTAB
M  END
