
     RDKit          3D

  0  0  0  0  0  0  0  0  0  0999 V3000
M  V30 BEGIN CTAB
M  V30 COUNTS 61 65 0 0 0
M  V30 BEGIN ATOM
M  V30 1 C -3.10514 -1.53487 -1.51866 0 CFG=1
M  V30 2 N -2.3233 -2.79977 -1.57852 0
M  V30 3 C -4.51607 -1.95704 -1.61226 0
M  V30 4 C -5.57162 -0.975306 -1.56084 0
M  V30 5 C -6.16938 -0.374978 -2.64679 0
M  V30 6 N -7.08266 0.502527 -2.20131 0
M  V30 7 C -7.09 0.483015 -0.861016 0
M  V30 8 C -6.15506 -0.432094 -0.443372 0
M  V30 9 C -6.02454 -0.609238 0.939153 0
M  V30 10 C -6.7662 0.0711094 1.87102 0
M  V30 11 C -7.69748 0.985419 1.42546 0
M  V30 12 C -7.84403 1.17669 0.0613012 0
M  V30 13 C -2.66769 -0.704715 -0.426003 0
M  V30 14 O -2.96933 0.510772 -0.365786 0
M  V30 15 O -1.8939 -1.20734 0.610664 0
M  V30 16 P -1.38639 -0.178731 1.91037 0
M  V30 17 O -2.72177 0.787715 2.32243 0
M  V30 18 O -1.06704 -1.03802 3.10756 0
M  V30 19 O -0.0482397 0.736088 1.51928 0
M  V30 20 C 0.639085 0.299396 0.413357 0
M  V30 21 C 1.83069 1.13098 0.0777622 0 CFG=1
M  V30 22 O 2.78902 1.18914 1.08162 0
M  V30 23 C 4.0018 1.45336 0.493182 0 CFG=2
M  V30 24 C 3.86699 1.34523 -1.00437 0 CFG=2
M  V30 25 O 3.67655 2.61299 -1.53138 0
M  V30 26 C 2.57238 0.57052 -1.1363 0 CFG=2
M  V30 27 O 1.91477 0.844332 -2.31916 0
M  V30 28 N 5.00616 0.486632 0.892904 0
M  V30 29 C 4.80691 -0.653381 1.57459 0
M  V30 30 N 5.99681 -1.29647 1.76193 0
M  V30 31 C 6.95742 -0.554792 1.1925 0
M  V30 32 C 6.34162 0.54281 0.658379 0
M  V30 33 N 7.04105 1.48009 0.0166301 0
M  V30 34 C 8.36719 1.33846 -0.10321 0
M  V30 35 N 8.99672 0.264232 0.41546 0
M  V30 36 C 8.31213 -0.705154 1.0732 0
M  V30 37 N 9.01366 -1.82755 1.60831 0
M  V30 38 H -2.83324 -1.05292 -2.51521 0
M  V30 39 H -2.73067 -3.36606 -0.776842 0
M  V30 40 H -1.34036 -2.58522 -1.27757 0
M  V30 41 H -4.63261 -2.53718 -2.58459 0
M  V30 42 H -4.70685 -2.76136 -0.835761 0
M  V30 43 H -5.98934 -0.530764 -3.7027 0
M  V30 44 H -7.71832 1.13021 -2.76279 0
M  V30 45 H -5.28328 -1.336 1.2712 0
M  V30 46 H -6.6486 -0.0813033 2.93432 0
M  V30 47 H -8.27233 1.5131 2.16981 0
M  V30 48 H -8.58708 1.90579 -0.264705 0
M  V30 49 H -2.45909 1.74982 2.2361 0
M  V30 50 H -0.00337825 0.167287 -0.464411 0
M  V30 51 H 1.0249 -0.73255 0.658907 0
M  V30 52 H 1.55968 2.17511 -0.190886 0
M  V30 53 H 4.34607 2.49349 0.721393 0
M  V30 54 H 4.71903 0.812709 -1.47201 0
M  V30 55 H 4.18055 3.29195 -0.989027 0
M  V30 56 H 2.74882 -0.514371 -0.982157 0
M  V30 57 H 2.20068 1.73353 -2.62112 0
M  V30 58 H 3.86823 -1.05525 1.94632 0
M  V30 59 H 8.97001 2.08389 -0.619654 0
M  V30 60 H 8.59646 -2.77833 1.63242 0
M  V30 61 H 9.95963 -1.68766 1.98024 0
M  V30 END ATOM
M  V30 BEGIN BOND
M  V30 1 1 1 2
M  V30 2 1 1 3
M  V30 3 1 3 4
M  V30 4 2 4 5
M  V30 5 1 5 6
M  V30 6 1 6 7
M  V30 7 2 7 8
M  V30 8 1 8 9
M  V30 9 2 9 10
M  V30 10 1 10 11
M  V30 11 2 11 12
M  V30 12 1 1 13
M  V30 13 2 13 14
M  V30 14 1 13 15
M  V30 15 1 15 16
M  V30 16 1 16 17
M  V30 17 2 16 18
M  V30 18 1 16 19
M  V30 19 1 19 20
M  V30 20 1 20 21
M  V30 21 1 21 22
M  V30 22 1 22 23
M  V30 23 1 23 24
M  V30 24 1 24 25
M  V30 25 1 24 26
M  V30 26 1 26 27
M  V30 27 1 23 28
M  V30 28 1 28 29
M  V30 29 2 29 30
M  V30 30 1 30 31
M  V30 31 2 31 32
M  V30 32 1 32 33
M  V30 33 2 33 34
M  V30 34 1 34 35
M  V30 35 2 35 36
M  V30 36 1 36 37
M  V30 37 1 8 4
M  V30 38 1 26 21
M  V30 39 1 32 28
M  V30 40 1 12 7
M  V30 41 1 36 31
M  V30 42 1 1 38 CFG=3
M  V30 43 1 2 39
M  V30 44 1 2 40
M  V30 45 1 3 41
M  V30 46 1 3 42
M  V30 47 1 5 43
M  V30 48 1 6 44
M  V30 49 1 9 45
M  V30 50 1 10 46
M  V30 51 1 11 47
M  V30 52 1 12 48
M  V30 53 1 17 49
M  V30 54 1 20 50
M  V30 55 1 20 51
M  V30 56 1 21 52 CFG=3
M  V30 57 1 23 53 CFG=3
M  V30 58 1 24 54 CFG=3
M  V30 59 1 25 55
M  V30 60 1 26 56 CFG=1
M  V30 61 1 27 57
M  V30 62 1 29 58
M  V30 63 1 34 59
M  V30 64 1 37 60
M  V30 65 1 37 61
M  V30 END BOND
M  V30 END CTAB
M  END
