
     RDKit          3D

  0  0  0  0  0  0  0  0  0  0999 V3000
M  V30 BEGIN CTAB
M  V30 COUNTS 27 29 0 0 0
M  V30 BEGIN ATOM
M  V30 1 N 2.20519 -1.58575 -0.697023 0
M  V30 2 C 1.87299 -0.244308 -0.319404 0
M  V30 3 N 2.85678 0.646653 -0.00043099 0
M  V30 4 N 4.23322 0.463135 0.0481586 0
M  V30 5 C 2.17244 1.80388 0.267464 0
M  V30 6 N 0.856752 1.60527 0.118812 0
M  V30 7 C 0.635473 0.330528 -0.247604 0
M  V30 8 C -0.687103 -0.321413 -0.491509 0
M  V30 9 C -1.75388 0.73547 -0.716347 0
M  V30 10 C -2.99283 0.129589 -0.134753 0
M  V30 11 C -2.59153 -0.84644 0.922719 0
M  V30 12 C -1.10792 -1.03959 0.781865 0
M  V30 13 C -3.18956 0.433126 1.34285 0
M  V30 14 H 2.56231 -2.2115 0.0466245 0
M  V30 15 H 2.09327 -1.93064 -1.68739 0
M  V30 16 H 4.88168 1.14857 -0.40362 0
M  V30 17 H 4.64046 -0.351467 0.533819 0
M  V30 18 H 2.71964 2.68377 0.554437 0
M  V30 19 H -0.684976 -0.996023 -1.34015 0
M  V30 20 H -1.44807 1.62032 -0.128226 0
M  V30 21 H -1.88206 0.983918 -1.79244 0
M  V30 22 H -3.83955 -0.152906 -0.757224 0
M  V30 23 H -3.18958 -1.79189 1.08955 0
M  V30 24 H -0.57017 -0.658089 1.67182 0
M  V30 25 H -0.879251 -2.11269 0.677643 0
M  V30 26 H -2.64737 1.27885 1.75453 0
M  V30 27 H -4.26635 0.379635 1.68462 0
M  V30 END ATOM
M  V30 BEGIN BOND
M  V30 1 1 1 2
M  V30 2 1 2 3
M  V30 3 1 3 4
M  V30 4 1 3 5
M  V30 5 2 5 6
M  V30 6 1 6 7
M  V30 7 1 7 8
M  V30 8 1 8 9
M  V30 9 1 9 10
M  V30 10 1 10 11
M  V30 11 1 11 12
M  V30 12 1 11 13
M  V30 13 2 7 2
M  V30 14 1 12 8
M  V30 15 1 13 10
M  V30 16 1 1 14
M  V30 17 1 1 15
M  V30 18 1 4 16
M  V30 19 1 4 17
M  V30 20 1 5 18
M  V30 21 1 8 19
M  V30 22 1 9 20
M  V30 23 1 9 21
M  V30 24 1 10 22
M  V30 25 1 11 23
M  V30 26 1 12 24
M  V30 27 1 12 25
M  V30 28 1 13 26
M  V30 29 1 13 27
M  V30 END BOND
M  V30 END CTAB
M  END
