
     RDKit          3D

  0  0  0  0  0  0  0  0  0  0999 V3000
M  V30 BEGIN CTAB
M  V30 COUNTS 26 27 0 0 0
M  V30 BEGIN ATOM
M  V30 1 C -1.40911 -2.37128 -0.801385 0
M  V30 2 C -2.00994 -1.04729 -0.423853 0
M  V30 3 N -1.04447 0.0200242 -0.459706 0
M  V30 4 C -1.44895 1.33365 -0.130063 0
M  V30 5 N -1.34831 2.36628 -0.998896 0
M  V30 6 O -1.79243 3.42724 -0.416159 0
M  V30 7 N -2.1805 3.16163 0.783297 0
M  V30 8 C -1.98562 1.85596 1.01378 0
M  V30 9 N -2.25626 1.09802 2.18169 0
M  V30 10 N 0.27955 -0.208561 -0.811319 0
M  V30 11 N 1.18505 0.618576 -0.522441 0
M  V30 12 C 2.549 0.481489 -0.831713 0
M  V30 13 N 3.17733 1.06102 -1.85199 0
M  V30 14 O 4.4191 0.694714 -1.80375 0
M  V30 15 N 4.64055 -0.0979881 -0.801681 0
M  V30 16 C 3.46101 -0.265511 -0.143459 0
M  V30 17 N 3.2705 -1.07565 1.03243 0
M  V30 18 H -1.03468 -2.84705 0.116346 0
M  V30 19 H -0.638704 -2.2227 -1.56869 0
M  V30 20 H -2.24536 -2.98648 -1.23425 0
M  V30 21 H -2.84062 -0.748842 -1.11097 0
M  V30 22 H -2.3982 -1.10236 0.625303 0
M  V30 23 H -3.0522 1.34592 2.81493 0
M  V30 24 H -1.68487 0.270618 2.46161 0
M  V30 25 H 3.54239 -0.74258 1.98396 0
M  V30 26 H 2.84575 -2.01884 0.896964 0
M  V30 END ATOM
M  V30 BEGIN BOND
M  V30 1 1 1 2
M  V30 2 1 2 3
M  V30 3 1 3 4
M  V30 4 2 4 5
M  V30 5 1 5 6
M  V30 6 1 6 7
M  V30 7 2 7 8
M  V30 8 1 8 9
M  V30 9 1 3 10
M  V30 10 2 10 11
M  V30 11 1 11 12
M  V30 12 2 12 13
M  V30 13 1 13 14
M  V30 14 1 14 15
M  V30 15 2 15 16
M  V30 16 1 16 17
M  V30 17 1 8 4
M  V30 18 1 16 12
M  V30 19 1 1 18
M  V30 20 1 1 19
M  V30 21 1 1 20
M  V30 22 1 2 21
M  V30 23 1 2 22
M  V30 24 1 9 23
M  V30 25 1 9 24
M  V30 26 1 17 25
M  V30 27 1 17 26
M  V30 END BOND
M  V30 END CTAB
M  END
