
     RDKit          3D

  0  0  0  0  0  0  0  0  0  0999 V3000
M  V30 BEGIN CTAB
M  V30 COUNTS 36 36 0 0 0
M  V30 BEGIN ATOM
M  V30 1 C 4.46488 -0.718034 -1.09731 0
M  V30 2 C 2.98008 -0.806978 -0.919871 0
M  V30 3 C 2.47813 0.0788427 0.189937 0
M  V30 4 N 1.06806 0.00475406 0.370782 0
M  V30 5 C 0.654961 0.867572 1.44532 0
M  V30 6 C -0.469228 0.327971 2.25698 0
M  V30 7 C -1.43426 -0.536293 1.49395 0
M  V30 8 C -2.00927 0.110169 0.281152 0
M  V30 9 C -1.05009 0.737073 -0.652922 0
M  V30 10 C 0.271927 0.0589879 -0.793811 0
M  V30 11 N -2.98416 1.1148 0.71752 0
M  V30 12 C -2.84941 -0.95916 -0.432619 0
M  V30 13 N -3.41297 -0.338805 -1.61437 0
M  V30 14 H 5.02031 -0.52546 -0.168428 0
M  V30 15 H 4.83018 -1.66842 -1.53114 0
M  V30 16 H 4.75542 0.090745 -1.80973 0
M  V30 17 H 2.45309 -0.564751 -1.85409 0
M  V30 18 H 2.74995 -1.8586 -0.619531 0
M  V30 19 H 2.967 -0.190517 1.15423 0
M  V30 20 H 2.83636 1.12824 -0.0218983 0
M  V30 21 H 0.457424 1.92069 1.08744 0
M  V30 22 H 1.53302 0.97075 2.119 0
M  V30 23 H -0.981846 1.17286 2.75789 0
M  V30 24 H -0.0403432 -0.293686 3.079 0
M  V30 25 H -2.29998 -0.722221 2.19961 0
M  V30 26 H -1.03084 -1.5478 1.28603 0
M  V30 27 H -0.859499 1.82602 -0.463825 0
M  V30 28 H -1.52421 0.726819 -1.67941 0
M  V30 29 H 0.84217 0.648029 -1.57224 0
M  V30 30 H 0.183332 -0.961928 -1.23585 0
M  V30 31 H -2.70196 2.05709 0.399954 0
M  V30 32 H -3.16338 1.03411 1.73242 0
M  V30 33 H -3.60555 -1.37799 0.232956 0
M  V30 34 H -2.1777 -1.78501 -0.788406 0
M  V30 35 H -3.55285 0.69607 -1.46698 0
M  V30 36 H -4.39875 -0.71593 -1.73204 0
M  V30 END ATOM
M  V30 BEGIN BOND
M  V30 1 1 1 2
M  V30 2 1 2 3
M  V30 3 1 3 4
M  V30 4 1 4 5
M  V30 5 1 5 6
M  V30 6 1 6 7
M  V30 7 1 7 8
M  V30 8 1 8 9
M  V30 9 1 9 10
M  V30 10 1 8 11
M  V30 11 1 8 12
M  V30 12 1 12 13
M  V30 13 1 10 4
M  V30 14 1 1 14
M  V30 15 1 1 15
M  V30 16 1 1 16
M  V30 17 1 2 17
M  V30 18 1 2 18
M  V30 19 1 3 19
M  V30 20 1 3 20
M  V30 21 1 5 21
M  V30 22 1 5 22
M  V30 23 1 6 23
M  V30 24 1 6 24
M  V30 25 1 7 25
M  V30 26 1 7 26
M  V30 27 1 9 27
M  V30 28 1 9 28
M  V30 29 1 10 29
M  V30 30 1 10 30
M  V30 31 1 11 31
M  V30 32 1 11 32
M  V30 33 1 12 33
M  V30 34 1 12 34
M  V30 35 1 13 35
M  V30 36 1 13 36
M  V30 END BOND
M  V30 END CTAB
M  END
