
     RDKit          3D

  0  0  0  0  0  0  0  0  0  0999 V3000
M  V30 BEGIN CTAB
M  V30 COUNTS 23 23 0 0 0
M  V30 BEGIN ATOM
M  V30 1 N 2.36688 1.40468 -0.57941 0
M  V30 2 C 1.5184 0.579826 0.187751 0
M  V30 3 N 2.06166 -0.429525 0.787255 0
M  V30 4 N 3.42505 -0.714149 0.696713 0
M  V30 5 N 0.155817 0.893396 0.257599 0
M  V30 6 C -0.788536 -0.169169 0.524601 0 CFG=2
M  V30 7 C -0.654485 -1.18856 -0.587459 0
M  V30 8 O -1.57677 -0.890956 -1.55007 0
M  V30 9 C -2.25362 0.246357 -1.21857 0
M  V30 10 C -2.21894 0.265618 0.27904 0 CFG=1
M  V30 11 O -3.04033 -0.770737 0.732683 0
M  V30 12 H 2.61623 2.35787 -0.25234 0
M  V30 13 H 2.74925 1.07237 -1.47239 0
M  V30 14 H 4.17647 -0.00267217 0.799251 0
M  V30 15 H 3.67947 -1.7233 0.51197 0
M  V30 16 H -0.172511 1.86616 0.121229 0
M  V30 17 H -0.65451 -0.617562 1.52478 0
M  V30 18 H -0.822402 -2.19037 -0.0993815 0
M  V30 19 H 0.356616 -1.18346 -1.0402 0
M  V30 20 H -1.82658 1.1542 -1.68954 0
M  V30 21 H -3.32469 0.186824 -1.54157 0
M  V30 22 H -2.4636 1.23496 0.729703 0
M  V30 23 H -3.30885 -1.3818 7.82564e-05 0
M  V30 END ATOM
M  V30 BEGIN BOND
M  V30 1 1 1 2
M  V30 2 2 2 3 CFG=2
M  V30 3 1 3 4
M  V30 4 1 2 5
M  V30 5 1 5 6
M  V30 6 1 6 7
M  V30 7 1 7 8
M  V30 8 1 8 9
M  V30 9 1 9 10
M  V30 10 1 10 11
M  V30 11 1 10 6
M  V30 12 1 1 12
M  V30 13 1 1 13
M  V30 14 1 4 14
M  V30 15 1 4 15
M  V30 16 1 5 16
M  V30 17 1 6 17 CFG=1
M  V30 18 1 7 18
M  V30 19 1 7 19
M  V30 20 1 9 20
M  V30 21 1 9 21
M  V30 22 1 10 22 CFG=1
M  V30 23 1 11 23
M  V30 END BOND
M  V30 END CTAB
M  END
