
     RDKit          3D

  0  0  0  0  0  0  0  0  0  0999 V3000
M  V30 BEGIN CTAB
M  V30 COUNTS 29 29 0 0 0
M  V30 BEGIN ATOM
M  V30 1 C 3.81376 1.32046 -0.794673 0
M  V30 2 O 3.4539 0.134626 -0.0541795 0
M  V30 3 C 2.09516 0.310573 0.0682941 0
M  V30 4 C 1.24142 -0.785367 0.594262 0
M  V30 5 C -0.135068 -0.240429 0.481871 0
M  V30 6 N -0.683184 0.692754 1.29975 0
M  V30 7 C -1.98947 0.877237 0.988985 0
M  V30 8 N -2.25266 0.0612274 -0.0360851 0
M  V30 9 C -1.14022 -0.620502 -0.345016 0
M  V30 10 N -1.03854 -1.57359 -1.45506 0
M  V30 11 N -3.45415 -0.0796346 -0.771481 0
M  V30 12 C -2.95144 1.79525 1.67295 0
M  V30 13 C 1.42296 -2.14297 0.0671872 0
M  V30 14 H 4.85145 1.37335 -1.02385 0
M  V30 15 H 3.15855 1.18168 -1.72174 0
M  V30 16 H 3.34352 2.17484 -0.274958 0
M  V30 17 H 1.95245 1.21687 0.743214 0
M  V30 18 H 1.67857 0.653142 -0.943901 0
M  V30 19 H 1.38838 -0.811016 1.75129 0
M  V30 20 H -0.570889 -1.19518 -2.33707 0
M  V30 21 H -1.38826 -2.52826 -1.41108 0
M  V30 22 H -3.96959 0.841298 -0.914562 0
M  V30 23 H -3.75717 -0.997588 -1.10271 0
M  V30 24 H -3.7574 2.13319 0.953754 0
M  V30 25 H -3.46163 1.18521 2.47674 0
M  V30 26 H -2.46839 2.67494 2.11752 0
M  V30 27 H 0.530768 -2.80528 0.00547278 0
M  V30 28 H 2.02072 -2.11444 -0.87304 0
M  V30 29 H 2.06645 -2.73241 0.838119 0
M  V30 END ATOM
M  V30 BEGIN BOND
M  V30 1 1 1 2
M  V30 2 1 2 3
M  V30 3 1 3 4
M  V30 4 1 4 5
M  V30 5 1 5 6
M  V30 6 2 6 7
M  V30 7 1 7 8
M  V30 8 1 8 9
M  V30 9 1 9 10
M  V30 10 1 8 11
M  V30 11 1 7 12
M  V30 12 1 4 13
M  V30 13 2 9 5
M  V30 14 1 1 14
M  V30 15 1 1 15
M  V30 16 1 1 16
M  V30 17 1 3 17
M  V30 18 1 3 18
M  V30 19 1 4 19
M  V30 20 1 10 20
M  V30 21 1 10 21
M  V30 22 1 11 22
M  V30 23 1 11 23
M  V30 24 1 12 24
M  V30 25 1 12 25
M  V30 26 1 12 26
M  V30 27 1 13 27
M  V30 28 1 13 28
M  V30 29 1 13 29
M  V30 END BOND
M  V30 END CTAB
M  END
