
     RDKit          3D

  0  0  0  0  0  0  0  0  0  0999 V3000
M  V30 BEGIN CTAB
M  V30 COUNTS 41 42 0 0 0
M  V30 BEGIN ATOM
M  V30 1 N 4.9481 1.07016 0.0655707 0
M  V30 2 C 3.56995 1.29179 -0.150168 0 CFG=1
M  V30 3 C 2.99976 0.472087 -1.27345 0
M  V30 4 C 1.50775 0.203773 -1.11319 0
M  V30 5 C 1.19672 -0.664618 0.0568956 0 CFG=2
M  V30 6 C 0.0038725 -0.340622 0.855577 0
M  V30 7 C -1.33441 -0.349685 0.258721 0 CFG=1
M  V30 8 C -1.61848 0.578132 -0.872454 0
M  V30 9 C -3.0596 0.587342 -1.28633 0
M  V30 10 C -3.93749 -0.33183 -0.497913 0 CFG=2
M  V30 11 N -4.48924 0.410843 0.626995 0
M  V30 12 C -3.34958 -1.65005 -0.123894 0
M  V30 13 C -1.84859 -1.72022 -0.136438 0
M  V30 14 C 2.39821 -0.581508 1.016 0
M  V30 15 C 2.80825 0.860634 1.10849 0
M  V30 16 H 5.44742 1.8739 0.463998 0
M  V30 17 H 5.21734 0.21102 0.539763 0
M  V30 18 H 3.41237 2.38464 -0.338349 0
M  V30 19 H 3.56087 -0.46685 -1.43982 0
M  V30 20 H 3.1053 1.07495 -2.20652 0
M  V30 21 H 1.22542 -0.297002 -2.08233 0
M  V30 22 H 1.03793 1.18845 -0.978209 0
M  V30 23 H 1.21987 -1.74078 -0.280028 0
M  V30 24 H 0.166213 0.705361 1.2769 0
M  V30 25 H -0.0240058 -0.968987 1.8041 0
M  V30 26 H -2.04819 -0.0322321 1.08994 0
M  V30 27 H -1.02301 0.261399 -1.76294 0
M  V30 28 H -1.29135 1.61823 -0.656292 0
M  V30 29 H -3.16598 0.384893 -2.3824 0
M  V30 30 H -3.44704 1.63619 -1.11369 0
M  V30 31 H -4.86124 -0.510689 -1.15871 0
M  V30 32 H -4.55891 -0.162369 1.47835 0
M  V30 33 H -4.00862 1.31946 0.783834 0
M  V30 34 H -3.80978 -2.49318 -0.697261 0
M  V30 35 H -3.63804 -1.85909 0.954621 0
M  V30 36 H -1.51599 -2.48473 0.589257 0
M  V30 37 H -1.53485 -1.99053 -1.17011 0
M  V30 38 H 2.09468 -0.897532 2.04297 0
M  V30 39 H 3.21894 -1.20834 0.668098 0
M  V30 40 H 1.97304 1.56215 1.1915 0
M  V30 41 H 3.45243 1.05545 2.00185 0
M  V30 END ATOM
M  V30 BEGIN BOND
M  V30 1 1 1 2
M  V30 2 1 2 3
M  V30 3 1 3 4
M  V30 4 1 4 5
M  V30 5 1 5 6
M  V30 6 1 6 7
M  V30 7 1 7 8
M  V30 8 1 8 9
M  V30 9 1 9 10
M  V30 10 1 10 11
M  V30 11 1 10 12
M  V30 12 1 12 13
M  V30 13 1 5 14
M  V30 14 1 14 15
M  V30 15 1 15 2
M  V30 16 1 13 7
M  V30 17 1 1 16
M  V30 18 1 1 17
M  V30 19 1 2 18 CFG=3
M  V30 20 1 3 19
M  V30 21 1 3 20
M  V30 22 1 4 21
M  V30 23 1 4 22
M  V30 24 1 5 23 CFG=3
M  V30 25 1 6 24
M  V30 26 1 6 25
M  V30 27 1 7 26 CFG=1
M  V30 28 1 8 27
M  V30 29 1 8 28
M  V30 30 1 9 29
M  V30 31 1 9 30
M  V30 32 1 10 31 CFG=3
M  V30 33 1 11 32
M  V30 34 1 11 33
M  V30 35 1 12 34
M  V30 36 1 12 35
M  V30 37 1 13 36
M  V30 38 1 13 37
M  V30 39 1 14 38
M  V30 40 1 14 39
M  V30 41 1 15 40
M  V30 42 1 15 41
M  V30 END BOND
M  V30 END CTAB
M  END
