
     RDKit          3D

  0  0  0  0  0  0  0  0  0  0999 V3000
M  V30 BEGIN CTAB
M  V30 COUNTS 26 25 0 0 0
M  V30 BEGIN ATOM
M  V30 1 C -3.334 -1.17169 -0.387757 0
M  V30 2 C -3.09661 0.173841 0.213807 0
M  V30 3 O -1.78497 0.65903 -0.00890877 0
M  V30 4 C -0.654647 -0.040991 0.455054 0
M  V30 5 O -0.90971 -1.10456 1.0669 0
M  V30 6 C 0.691506 0.454219 0.228096 0
M  V30 7 C 1.84138 -0.319457 0.737437 0
M  V30 8 C 1.94452 -1.71063 0.158691 0
M  V30 9 C 3.14539 -2.31609 0.785408 0
M  V30 10 N 4.08171 -2.80074 1.26283 0
M  V30 11 C 0.936103 1.57852 -0.418191 0
M  V30 12 N -0.0868424 2.40118 -0.947089 0
M  V30 13 N 2.26997 2.03972 -0.625844 0
M  V30 14 H -4.13797 -1.14448 -1.17318 0
M  V30 15 H -2.40157 -1.60544 -0.831426 0
M  V30 16 H -3.748 -1.8527 0.410386 0
M  V30 17 H -3.78156 0.898287 -0.282928 0
M  V30 18 H -3.36479 0.186784 1.29167 0
M  V30 19 H 2.81378 0.182529 0.495485 0
M  V30 20 H 1.77773 -0.323544 1.83834 0
M  V30 21 H 2.14395 -1.6688 -0.931472 0
M  V30 22 H 1.06878 -2.34279 0.317007 0
M  V30 23 H -0.737795 2.90354 -0.323242 0
M  V30 24 H -0.173478 2.49243 -1.97159 0
M  V30 25 H 2.71628 2.62343 0.130949 0
M  V30 26 H 2.78085 1.8084 -1.49044 0
M  V30 END ATOM
M  V30 BEGIN BOND
M  V30 1 1 1 2
M  V30 2 1 2 3
M  V30 3 1 3 4
M  V30 4 2 4 5
M  V30 5 1 4 6
M  V30 6 1 6 7
M  V30 7 1 7 8
M  V30 8 1 8 9
M  V30 9 3 9 10
M  V30 10 2 6 11
M  V30 11 1 11 12
M  V30 12 1 11 13
M  V30 13 1 1 14
M  V30 14 1 1 15
M  V30 15 1 1 16
M  V30 16 1 2 17
M  V30 17 1 2 18
M  V30 18 1 7 19
M  V30 19 1 7 20
M  V30 20 1 8 21
M  V30 21 1 8 22
M  V30 22 1 12 23
M  V30 23 1 12 24
M  V30 24 1 13 25
M  V30 25 1 13 26
M  V30 END BOND
M  V30 END CTAB
M  END
