
     RDKit          3D

  0  0  0  0  0  0  0  0  0  0999 V3000
M  V30 BEGIN CTAB
M  V30 COUNTS 42 43 0 0 0
M  V30 BEGIN ATOM
M  V30 1 C -1.80028 3.314 -0.0795975 0
M  V30 2 C -1.25779 2.52512 1.0917 0
M  V30 3 C -1.81909 1.16118 1.07442 0
M  V30 4 C -2.86792 0.829418 1.95348 0
M  V30 5 C -3.44529 -0.414247 1.98482 0
M  V30 6 C -3.00849 -1.39974 1.13944 0
M  V30 7 C -1.99216 -1.10736 0.275574 0
M  V30 8 C -1.38997 0.170959 0.235188 0
M  V30 9 C -0.322352 0.362481 -0.702244 0
M  V30 10 O 0.367613 1.37747 -0.870985 0
M  V30 11 C 0.0657658 -0.74885 -1.62253 0
M  V30 12 S 1.4245 -0.367916 -2.71296 0
M  V30 13 C 2.95579 -0.149495 -1.8303 0
M  V30 14 N 3.80248 -1.1508 -1.56158 0
M  V30 15 C 4.95978 -0.976666 -0.897886 0
M  V30 16 N 5.8387 -2.08066 -0.631232 0
M  V30 17 C 5.31955 0.280858 -0.460373 0
M  V30 18 C 4.45253 1.31815 -0.733228 0
M  V30 19 N 3.29785 1.07725 -1.40832 0
M  V30 20 N 4.76922 2.63129 -0.308539 0
M  V30 21 C -3.63401 -2.75987 1.16767 0
M  V30 22 C -4.79273 -2.8798 0.232541 0
M  V30 23 H -0.98079 3.9152 -0.521158 0
M  V30 24 H -2.22732 2.64353 -0.859131 0
M  V30 25 H -2.56668 4.07845 0.229956 0
M  V30 26 H -0.15706 2.58048 1.04909 0
M  V30 27 H -1.63753 3.09724 1.98831 0
M  V30 28 H -3.19785 1.61243 2.60851 0
M  V30 29 H -4.24952 -0.665201 2.66024 0
M  V30 30 H -1.64559 -1.87947 -0.391035 0
M  V30 31 H -0.79459 -1.1207 -2.20608 0
M  V30 32 H 0.379593 -1.62599 -0.982532 0
M  V30 33 H 6.71076 -2.21512 -1.19246 0
M  V30 34 H 5.61804 -2.76667 0.129398 0
M  V30 35 H 6.23842 0.478612 0.0778652 0
M  V30 36 H 5.76085 2.9186 -0.292735 0
M  V30 37 H 3.98532 3.25476 -0.028786 0
M  V30 38 H -3.95757 -3.01891 2.19765 0
M  V30 39 H -2.87464 -3.52896 0.876243 0
M  V30 40 H -4.78929 -3.87653 -0.249085 0
M  V30 41 H -4.76359 -2.12447 -0.592471 0
M  V30 42 H -5.77464 -2.77004 0.73661 0
M  V30 END ATOM
M  V30 BEGIN BOND
M  V30 1 1 1 2
M  V30 2 1 2 3
M  V30 3 2 3 4
M  V30 4 1 4 5
M  V30 5 2 5 6
M  V30 6 1 6 7
M  V30 7 2 7 8
M  V30 8 1 8 9
M  V30 9 2 9 10
M  V30 10 1 9 11
M  V30 11 1 11 12
M  V30 12 1 12 13
M  V30 13 2 13 14
M  V30 14 1 14 15
M  V30 15 1 15 16
M  V30 16 2 15 17
M  V30 17 1 17 18
M  V30 18 2 18 19
M  V30 19 1 18 20
M  V30 20 1 6 21
M  V30 21 1 21 22
M  V30 22 1 8 3
M  V30 23 1 19 13
M  V30 24 1 1 23
M  V30 25 1 1 24
M  V30 26 1 1 25
M  V30 27 1 2 26
M  V30 28 1 2 27
M  V30 29 1 4 28
M  V30 30 1 5 29
M  V30 31 1 7 30
M  V30 32 1 11 31
M  V30 33 1 11 32
M  V30 34 1 16 33
M  V30 35 1 16 34
M  V30 36 1 17 35
M  V30 37 1 20 36
M  V30 38 1 20 37
M  V30 39 1 21 38
M  V30 40 1 21 39
M  V30 41 1 22 40
M  V30 42 1 22 41
M  V30 43 1 22 42
M  V30 END BOND
M  V30 END CTAB
M  END
