
     RDKit          3D

  0  0  0  0  0  0  0  0  0  0999 V3000
M  V30 BEGIN CTAB
M  V30 COUNTS 10 9 0 0 0
M  V30 BEGIN ATOM
M  V30 1 N -1.75973 -0.269131 0.410083 0
M  V30 2 C -0.503279 -0.316727 -0.28752 0
M  V30 3 C 0.520646 0.311635 0.253885 0
M  V30 4 N 1.75609 0.271687 -0.420657 0
M  V30 5 H -2.61624 0.142738 -0.0116659 0
M  V30 6 H -1.79583 -0.669413 1.37995 0
M  V30 7 H -0.404966 -0.842225 -1.21016 0
M  V30 8 H 0.410666 0.852618 1.20799 0
M  V30 9 H 2.22676 1.1535 -0.656451 0
M  V30 10 H 2.16588 -0.634677 -0.665459 0
M  V30 END ATOM
M  V30 BEGIN BOND
M  V30 1 1 1 2
M  V30 2 2 2 3 CFG=2
M  V30 3 1 3 4
M  V30 4 1 1 5
M  V30 5 1 1 6
M  V30 6 1 2 7
M  V30 7 1 3 8
M  V30 8 1 4 9
M  V30 9 1 4 10
M  V30 END BOND
M  V30 END CTAB
M  END
