
     RDKit          3D

  0  0  0  0  0  0  0  0  0  0999 V3000
M  V30 BEGIN CTAB
M  V30 COUNTS 23 24 0 0 0
M  V30 BEGIN ATOM
M  V30 1 N 3.32567 -1.22161 0.133971 0
M  V30 2 C 2.24157 -0.348618 -0.15646 0
M  V30 3 C 2.41797 0.779204 -0.962037 0
M  V30 4 C 1.38185 1.64013 -1.25749 0
M  V30 5 C 0.108462 1.40202 -0.750091 0
M  V30 6 C -0.0755113 0.296442 0.0426071 0
M  V30 7 C 0.970721 -0.562676 0.334092 0
M  V30 8 N 0.478338 -1.53525 1.12163 0
M  V30 9 C -0.848584 -1.31536 1.33603 0
M  V30 10 C -1.21455 -0.166991 0.664655 0
M  V30 11 S -2.8251 0.512673 0.647433 0
M  V30 12 O -3.72099 -0.318274 1.51542 0
M  V30 13 O -2.80911 1.89673 1.22501 0
M  V30 14 N -3.39002 0.565636 -0.993566 0
M  V30 15 H 3.34793 -1.78868 1.00799 0
M  V30 16 H 4.12664 -1.31397 -0.525011 0
M  V30 17 H 3.40623 0.970813 -1.3604 0
M  V30 18 H 1.48814 2.51965 -1.8772 0
M  V30 19 H -0.70841 2.07431 -0.978696 0
M  V30 20 H 0.973123 -2.35433 1.53669 0
M  V30 21 H -1.51804 -1.93543 1.93513 0
M  V30 22 H -2.77526 -0.0259931 -1.59943 0
M  V30 23 H -4.38107 0.22955 -1.04028 0
M  V30 END ATOM
M  V30 BEGIN BOND
M  V30 1 1 1 2
M  V30 2 2 2 3
M  V30 3 1 3 4
M  V30 4 2 4 5
M  V30 5 1 5 6
M  V30 6 2 6 7
M  V30 7 1 7 8
M  V30 8 1 8 9
M  V30 9 2 9 10
M  V30 10 1 10 11
M  V30 11 2 11 12
M  V30 12 2 11 13
M  V30 13 1 11 14
M  V30 14 1 7 2
M  V30 15 1 10 6
M  V30 16 1 1 15
M  V30 17 1 1 16
M  V30 18 1 3 17
M  V30 19 1 4 18
M  V30 20 1 5 19
M  V30 21 1 8 20
M  V30 22 1 9 21
M  V30 23 1 14 22
M  V30 24 1 14 23
M  V30 END BOND
M  V30 END CTAB
M  END
