
     RDKit          3D

  0  0  0  0  0  0  0  0  0  0999 V3000
M  V30 BEGIN CTAB
M  V30 COUNTS 33 35 0 0 0
M  V30 BEGIN ATOM
M  V30 1 N -7.19283 -1.05041 -1.27976 0
M  V30 2 C -6.16946 -0.768855 -0.805717 0
M  V30 3 C -4.8901 -0.440875 -0.207662 0
M  V30 4 C -3.75278 -0.624862 -0.944859 0
M  V30 5 C -2.50928 -0.307312 -0.366843 0
M  V30 6 C -2.58536 0.165557 0.91135 0
M  V30 7 N -3.72836 0.338595 1.62056 0
M  V30 8 C -4.93542 0.0382432 1.08054 0
M  V30 9 N -6.15868 0.197785 1.77112 0
M  V30 10 S -0.956747 0.44814 1.31278 0
M  V30 11 C -0.221841 -0.0459785 -0.164733 0
M  V30 12 C -1.29338 -0.415445 -0.918594 0
M  V30 13 N -1.04259 -0.902371 -2.27214 0
M  V30 14 C 1.22565 -0.0542098 -0.49983 0
M  V30 15 O 1.53117 -0.45105 -1.62479 0
M  V30 16 N 2.17252 0.372131 0.433007 0
M  V30 17 C 3.554 0.403565 0.238837 0
M  V30 18 C 4.35827 1.17198 1.10462 0
M  V30 19 C 5.70863 1.25671 1.01603 0
M  V30 20 C 6.35044 0.563177 0.0350701 0
M  V30 21 C 5.64664 -0.197975 -0.835535 0
M  V30 22 C 4.24266 -0.27654 -0.730707 0
M  V30 23 F 6.3013 -0.879991 -1.80358 0
M  V30 24 F 7.70509 0.619999 -0.0908185 0
M  V30 25 H -3.85128 -1.00918 -1.94898 0
M  V30 26 H -6.36688 1.09358 2.26248 0
M  V30 27 H -6.87456 -0.561002 1.80854 0
M  V30 28 H -1.12153 -1.90075 -2.50697 0
M  V30 29 H -0.782803 -0.159935 -2.95874 0
M  V30 30 H 1.79428 0.702996 1.39044 0
M  V30 31 H 3.82131 1.71802 1.88021 0
M  V30 32 H 6.29011 1.86105 1.70442 0
M  V30 33 H 3.73181 -0.904793 -1.43751 0
M  V30 END ATOM
M  V30 BEGIN BOND
M  V30 1 3 1 2
M  V30 2 1 2 3
M  V30 3 2 3 4
M  V30 4 1 4 5
M  V30 5 2 5 6
M  V30 6 1 6 7
M  V30 7 2 7 8
M  V30 8 1 8 9
M  V30 9 1 6 10
M  V30 10 1 10 11
M  V30 11 2 11 12
M  V30 12 1 12 13
M  V30 13 1 11 14
M  V30 14 2 14 15
M  V30 15 1 14 16
M  V30 16 1 16 17
M  V30 17 2 17 18
M  V30 18 1 18 19
M  V30 19 2 19 20
M  V30 20 1 20 21
M  V30 21 2 21 22
M  V30 22 1 21 23
M  V30 23 1 20 24
M  V30 24 1 8 3
M  V30 25 1 22 17
M  V30 26 1 12 5
M  V30 27 1 4 25
M  V30 28 1 9 26
M  V30 29 1 9 27
M  V30 30 1 13 28
M  V30 31 1 13 29
M  V30 32 1 16 30
M  V30 33 1 18 31
M  V30 34 1 19 32
M  V30 35 1 22 33
M  V30 END BOND
M  V30 END CTAB
M  END
