
     RDKit          3D

  0  0  0  0  0  0  0  0  0  0999 V3000
M  V30 BEGIN CTAB
M  V30 COUNTS 41 42 0 0 0
M  V30 BEGIN ATOM
M  V30 1 O 0.866093 -1.1464 1.58245 0
M  V30 2 C 0.613115 -0.846612 0.349252 0
M  V30 3 C 1.82355 -0.707869 -0.473309 0
M  V30 4 C 2.75037 0.299941 0.15058 0
M  V30 5 C 2.2011 1.48041 0.605891 0
M  V30 6 C 3.00592 2.45078 1.19182 0
M  V30 7 C 4.35064 2.18864 1.2967 0
M  V30 8 C 4.9214 1.01199 0.846778 0
M  V30 9 C 4.10404 0.0602596 0.267393 0
M  V30 10 N 1.57643 -0.377134 -1.84213 0
M  V30 11 C 2.50942 -2.08581 -0.426967 0
M  V30 12 N -0.704766 -0.687989 -0.078615 0
M  V30 13 C -1.78176 -0.86885 0.898127 0
M  V30 14 C -2.56341 0.427117 0.906124 0
M  V30 15 N -3.02781 0.718612 -0.413468 0
M  V30 16 C -2.6176 -0.208221 -1.41589 0
M  V30 17 C -1.09428 -0.360079 -1.40568 0
M  V30 18 S -4.74201 0.921541 -0.482943 0
M  V30 19 O -5.16883 1.20299 -1.88276 0
M  V30 20 O -5.17828 2.05983 0.394467 0
M  V30 21 N -5.46846 -0.563906 0.00885548 0
M  V30 22 H 1.12168 1.65617 0.505609 0
M  V30 23 H 2.54938 3.3741 1.5434 0
M  V30 24 H 4.9996 2.93834 1.75397 0
M  V30 25 H 5.97204 0.817868 0.933679 0
M  V30 26 H 4.52355 -0.854896 -0.0866503 0
M  V30 27 H 1.60247 -1.18377 -2.49515 0
M  V30 28 H 2.10001 0.455353 -2.18663 0
M  V30 29 H 3.03285 -2.15653 0.535677 0
M  V30 30 H 3.14834 -2.19367 -1.30875 0
M  V30 31 H 1.74903 -2.88835 -0.457319 0
M  V30 32 H -2.4808 -1.6811 0.586636 0
M  V30 33 H -1.37021 -1.09757 1.91 0
M  V30 34 H -3.47093 0.231716 1.54612 0
M  V30 35 H -1.94297 1.2379 1.3446 0
M  V30 36 H -3.0718 -1.20233 -1.30328 0
M  V30 37 H -2.86186 0.213301 -2.41434 0
M  V30 38 H -0.712591 0.65031 -1.68045 0
M  V30 39 H -0.802894 -1.10179 -2.1779 0
M  V30 40 H -5.46279 -1.20446 -0.814453 0
M  V30 41 H -4.99697 -0.979813 0.84327 0
M  V30 END ATOM
M  V30 BEGIN BOND
M  V30 1 2 1 2
M  V30 2 1 2 3
M  V30 3 1 3 4
M  V30 4 2 4 5
M  V30 5 1 5 6
M  V30 6 2 6 7
M  V30 7 1 7 8
M  V30 8 2 8 9
M  V30 9 1 3 10
M  V30 10 1 3 11
M  V30 11 1 2 12
M  V30 12 1 12 13
M  V30 13 1 13 14
M  V30 14 1 14 15
M  V30 15 1 15 16
M  V30 16 1 16 17
M  V30 17 1 15 18
M  V30 18 2 18 19
M  V30 19 2 18 20
M  V30 20 1 18 21
M  V30 21 1 9 4
M  V30 22 1 17 12
M  V30 23 1 5 22
M  V30 24 1 6 23
M  V30 25 1 7 24
M  V30 26 1 8 25
M  V30 27 1 9 26
M  V30 28 1 10 27
M  V30 29 1 10 28
M  V30 30 1 11 29
M  V30 31 1 11 30
M  V30 32 1 11 31
M  V30 33 1 13 32
M  V30 34 1 13 33
M  V30 35 1 14 34
M  V30 36 1 14 35
M  V30 37 1 16 36
M  V30 38 1 16 37
M  V30 39 1 17 38
M  V30 40 1 17 39
M  V30 41 1 21 40
M  V30 42 1 21 41
M  V30 END BOND
M  V30 END CTAB
M  END
