
     RDKit          3D

  0  0  0  0  0  0  0  0  0  0999 V3000
M  V30 BEGIN CTAB
M  V30 COUNTS 26 26 0 0 0
M  V30 BEGIN ATOM
M  V30 1 C 4.06411 -0.89619 0.632706 0
M  V30 2 O 3.01054 -0.831546 -0.314014 0
M  V30 3 C 2.24005 0.335154 -0.368037 0
M  V30 4 O 2.46693 1.28007 0.383791 0
M  V30 5 C 1.11128 0.447385 -1.34631 0
M  V30 6 C -0.208875 0.302323 -0.684795 0
M  V30 7 C -0.85841 -0.93881 -0.790154 0
M  V30 8 C -2.05989 -1.10465 -0.163078 0
M  V30 9 N -2.71005 -2.36312 -0.275399 0
M  V30 10 C -2.67154 -0.116234 0.572991 0
M  V30 11 C -2.02041 1.08678 0.661597 0
M  V30 12 C -0.784597 1.31063 0.0350772 0
M  V30 13 N -0.193024 2.58731 0.156754 0
M  V30 14 O -3.91017 -0.31687 1.213 0
M  V30 15 H 3.70225 -1.21359 1.65018 0
M  V30 16 H 4.62779 0.0594305 0.732929 0
M  V30 17 H 4.83973 -1.65659 0.349903 0
M  V30 18 H 1.17693 1.42352 -1.8456 0
M  V30 19 H 1.22405 -0.389072 -2.05422 0
M  V30 20 H -0.38962 -1.74416 -1.37643 0
M  V30 21 H -2.90141 -2.85611 -1.18417 0
M  V30 22 H -3.01692 -2.84423 0.60589 0
M  V30 23 H -2.46411 1.88128 1.22768 0
M  V30 24 H 0.204913 2.8846 1.06644 0
M  V30 25 H -0.156032 3.22483 -0.660964 0
M  V30 26 H -4.32352 0.447861 1.77423 0
M  V30 END ATOM
M  V30 BEGIN BOND
M  V30 1 1 1 2
M  V30 2 1 2 3
M  V30 3 2 3 4
M  V30 4 1 3 5
M  V30 5 1 5 6
M  V30 6 2 6 7
M  V30 7 1 7 8
M  V30 8 1 8 9
M  V30 9 2 8 10
M  V30 10 1 10 11
M  V30 11 2 11 12
M  V30 12 1 12 13
M  V30 13 1 10 14
M  V30 14 1 12 6
M  V30 15 1 1 15
M  V30 16 1 1 16
M  V30 17 1 1 17
M  V30 18 1 5 18
M  V30 19 1 5 19
M  V30 20 1 7 20
M  V30 21 1 9 21
M  V30 22 1 9 22
M  V30 23 1 11 23
M  V30 24 1 13 24
M  V30 25 1 13 25
M  V30 26 1 14 26
M  V30 END BOND
M  V30 END CTAB
M  END
