
     RDKit          3D

  0  0  0  0  0  0  0  0  0  0999 V3000
M  V30 BEGIN CTAB
M  V30 COUNTS 46 48 0 0 0
M  V30 BEGIN ATOM
M  V30 1 O -0.958846 1.53008 -1.30514 0
M  V30 2 C -0.846869 0.547997 -0.478751 0
M  V30 3 N -2.00648 -0.0887748 0.0478604 0
M  V30 4 C -3.24253 0.626119 0.0309998 0
M  V30 5 C -3.33467 1.99433 -0.120954 0
M  V30 6 C -4.54537 2.68048 -0.17899 0
M  V30 7 C -5.7321 2.00932 -0.0835988 0
M  V30 8 C -5.68614 0.646217 0.0720716 0
M  V30 9 C -4.47413 -0.0318005 0.130188 0
M  V30 10 N -4.49133 -1.41167 0.392045 0
M  V30 11 C -3.29988 -2.10221 0.55334 0
M  V30 12 O -3.32873 -3.33864 0.759951 0
M  V30 13 C -1.933 -1.4693 0.499068 0
M  V30 14 C -1.2039 -2.295 -0.560202 0
M  V30 15 C -1.30243 -1.67145 1.82438 0
M  V30 16 C 0.549716 0.211343 -0.171082 0
M  V30 17 S 1.63483 1.0501 -1.3811 0
M  V30 18 C 3.34877 0.670688 -1.05357 0
M  V30 19 N 3.73528 -0.125924 -0.0438614 0
M  V30 20 C 5.0397 -0.355194 0.126661 0
M  V30 21 N 5.41489 -1.20045 1.20093 0
M  V30 22 C 6.00373 0.191725 -0.690299 0
M  V30 23 C 5.58963 1.01008 -1.72579 0
M  V30 24 N 4.26678 1.21738 -1.86554 0
M  V30 25 N 6.55001 1.60456 -2.60583 0
M  V30 26 C 0.879455 0.913078 1.17306 0
M  V30 27 H -2.44544 2.58779 -0.16644 0
M  V30 28 H -4.50601 3.74741 -0.299814 0
M  V30 29 H -6.69727 2.53274 -0.129196 0
M  V30 30 H -6.62875 0.121503 0.147418 0
M  V30 31 H -5.39974 -1.90797 0.463569 0
M  V30 32 H -0.858184 -1.7155 -1.41321 0
M  V30 33 H -0.36536 -2.85437 -0.126145 0
M  V30 34 H -1.87702 -3.08726 -1.00891 0
M  V30 35 H -1.80006 -2.54386 2.3281 0
M  V30 36 H -1.42219 -0.826999 2.52509 0
M  V30 37 H -0.230688 -1.94894 1.80383 0
M  V30 38 H 0.817396 -0.814829 -0.0202849 0
M  V30 39 H 6.01898 -0.821338 1.94979 0
M  V30 40 H 5.07858 -2.17198 1.21367 0
M  V30 41 H 7.04571 -0.00784451 -0.532473 0
M  V30 42 H 6.75205 2.60772 -2.55868 0
M  V30 43 H 7.04738 1.00406 -3.30199 0
M  V30 44 H -0.052114 1.20436 1.70123 0
M  V30 45 H 1.44741 0.249799 1.84606 0
M  V30 46 H 1.44893 1.83241 1.03255 0
M  V30 END ATOM
M  V30 BEGIN BOND
M  V30 1 2 1 2
M  V30 2 1 2 3
M  V30 3 1 3 4
M  V30 4 2 4 5
M  V30 5 1 5 6
M  V30 6 2 6 7
M  V30 7 1 7 8
M  V30 8 2 8 9
M  V30 9 1 9 10
M  V30 10 1 10 11
M  V30 11 2 11 12
M  V30 12 1 11 13
M  V30 13 1 13 14
M  V30 14 1 13 15
M  V30 15 1 2 16
M  V30 16 1 16 17
M  V30 17 1 17 18
M  V30 18 2 18 19
M  V30 19 1 19 20
M  V30 20 1 20 21
M  V30 21 2 20 22
M  V30 22 1 22 23
M  V30 23 2 23 24
M  V30 24 1 23 25
M  V30 25 1 16 26
M  V30 26 1 13 3
M  V30 27 1 24 18
M  V30 28 1 9 4
M  V30 29 1 5 27
M  V30 30 1 6 28
M  V30 31 1 7 29
M  V30 32 1 8 30
M  V30 33 1 10 31
M  V30 34 1 14 32
M  V30 35 1 14 33
M  V30 36 1 14 34
M  V30 37 1 15 35
M  V30 38 1 15 36
M  V30 39 1 15 37
M  V30 40 1 16 38
M  V30 41 1 21 39
M  V30 42 1 21 40
M  V30 43 1 22 41
M  V30 44 1 25 42
M  V30 45 1 25 43
M  V30 46 1 26 44
M  V30 47 1 26 45
M  V30 48 1 26 46
M  V30 END BOND
M  V30 END CTAB
M  END
