
     RDKit          3D

  0  0  0  0  0  0  0  0  0  0999 V3000
M  V30 BEGIN CTAB
M  V30 COUNTS 30 31 0 0 0
M  V30 BEGIN ATOM
M  V30 1 C -1.90359 1.56209 -1.052 0
M  V30 2 C -1.89972 0.0768083 -0.668106 0
M  V30 3 C -3.34773 -0.357157 -0.527524 0
M  V30 4 C -3.8842 0.0411543 0.796596 0
M  V30 5 O -5.02056 0.525827 0.909464 0
M  V30 6 N -3.03332 -0.160884 1.91984 0
M  V30 7 N -1.67508 -0.230944 1.67714 0
M  V30 8 C -1.09959 -0.132175 0.539822 0
M  V30 9 C 0.384309 -0.234509 0.474426 0
M  V30 10 C 1.11911 -0.4416 1.61937 0
M  V30 11 C 2.49519 -0.538018 1.58883 0
M  V30 12 C 3.19989 -0.430805 0.404607 0
M  V30 13 N 4.61634 -0.531561 0.384182 0
M  V30 14 C 2.47247 -0.223051 -0.748997 0
M  V30 15 N 3.17086 -0.108522 -1.98439 0
M  V30 16 C 1.07501 -0.126986 -0.703919 0
M  V30 17 H -2.34978 1.65053 -2.07344 0
M  V30 18 H -2.57541 2.13375 -0.378424 0
M  V30 19 H -0.901425 2.00735 -0.976191 0
M  V30 20 H -1.42012 -0.455559 -1.5219 0
M  V30 21 H -3.98051 0.138883 -1.29197 0
M  V30 22 H -3.43291 -1.47238 -0.679071 0
M  V30 23 H -3.44211 -0.250806 2.89023 0
M  V30 24 H 0.607417 -0.531794 2.5712 0
M  V30 25 H 3.09122 -0.701228 2.48194 0
M  V30 26 H 5.07227 -1.17515 1.05849 0
M  V30 27 H 5.23892 -0.00229614 -0.263786 0
M  V30 28 H 3.89349 0.662055 -2.02898 0
M  V30 29 H 2.99818 -0.729708 -2.8006 0
M  V30 30 H 0.531382 0.0366955 -1.61682 0
M  V30 END ATOM
M  V30 BEGIN BOND
M  V30 1 1 1 2
M  V30 2 1 2 3
M  V30 3 1 3 4
M  V30 4 2 4 5
M  V30 5 1 4 6
M  V30 6 1 6 7
M  V30 7 2 7 8
M  V30 8 1 8 9
M  V30 9 2 9 10
M  V30 10 1 10 11
M  V30 11 2 11 12
M  V30 12 1 12 13
M  V30 13 1 12 14
M  V30 14 1 14 15
M  V30 15 2 14 16
M  V30 16 1 8 2
M  V30 17 1 16 9
M  V30 18 1 1 17
M  V30 19 1 1 18
M  V30 20 1 1 19
M  V30 21 1 2 20
M  V30 22 1 3 21
M  V30 23 1 3 22
M  V30 24 1 6 23
M  V30 25 1 10 24
M  V30 26 1 11 25
M  V30 27 1 13 26
M  V30 28 1 13 27
M  V30 29 1 15 28
M  V30 30 1 15 29
M  V30 31 1 16 30
M  V30 END BOND
M  V30 END CTAB
M  END
