
     RDKit          3D

  0  0  0  0  0  0  0  0  0  0999 V3000
M  V30 BEGIN CTAB
M  V30 COUNTS 52 56 0 0 0
M  V30 BEGIN ATOM
M  V30 1 N -4.70018 1.61774 -1.75681 0
M  V30 2 C -3.48329 1.3766 -0.972033 0
M  V30 3 C -2.44081 0.631627 -1.77769 0
M  V30 4 C -2.12265 -0.587414 -1.03644 0
M  V30 5 C -3.01937 -0.616694 0.150876 0
M  V30 6 C -3.80206 0.517175 0.183363 0
M  V30 7 C -4.7089 0.672112 1.22308 0
M  V30 8 C -4.81588 -0.305377 2.20675 0
M  V30 9 C -4.04055 -1.44621 2.1898 0
M  V30 10 C -3.13839 -1.57294 1.13189 0
M  V30 11 N -0.786179 -0.833915 -0.658921 0
M  V30 12 C -0.138965 0.0516385 0.21695 0
M  V30 13 C 1.27717 -0.489611 0.425558 0
M  V30 14 N 1.18479 -1.81812 0.998042 0
M  V30 15 C 1.98201 -0.61092 -0.890673 0
M  V30 16 C 2.35839 0.729315 -1.48077 0
M  V30 17 C 3.26323 1.487 -0.50972 0
M  V30 18 C 2.4493 1.70444 0.741008 0
M  V30 19 C 2.07694 0.372152 1.35075 0
M  V30 20 C 3.37077 -0.367413 1.63151 0
M  V30 21 C 4.11287 -0.659488 0.360886 0
M  V30 22 C 3.26664 -1.38881 -0.655881 0
M  V30 23 C 4.5026 0.67848 -0.264331 0
M  V30 24 H -5.34433 0.809564 -1.71825 0
M  V30 25 H -4.43104 1.78347 -2.75394 0
M  V30 26 H -3.11926 2.36839 -0.619223 0
M  V30 27 H -2.89849 0.444622 -2.79327 0
M  V30 28 H -1.61686 1.33901 -1.95983 0
M  V30 29 H -2.45413 -1.4712 -1.66427 0
M  V30 30 H -5.35065 1.52627 1.31334 0
M  V30 31 H -5.52194 -0.210139 3.03663 0
M  V30 32 H -4.12157 -2.2147 2.95817 0
M  V30 33 H -2.53803 -2.48253 1.14089 0
M  V30 34 H -0.724621 -1.80207 -0.271309 0
M  V30 35 H 0.0119679 1.08144 -0.14917 0
M  V30 36 H -0.617018 0.0315339 1.22217 0
M  V30 37 H 0.407002 -1.8455 1.69004 0
M  V30 38 H 1.11011 -2.51718 0.251466 0
M  V30 39 H 1.35001 -1.12326 -1.63665 0
M  V30 40 H 1.45708 1.36594 -1.61895 0
M  V30 41 H 2.85381 0.53452 -2.44766 0
M  V30 42 H 3.56176 2.44096 -0.962751 0
M  V30 43 H 3.09784 2.22861 1.46445 0
M  V30 44 H 1.55158 2.29235 0.456229 0
M  V30 45 H 1.56955 0.584846 2.30477 0
M  V30 46 H 3.10462 -1.27481 2.19729 0
M  V30 47 H 4.00357 0.312365 2.24098 0
M  V30 48 H 4.98196 -1.27796 0.585009 0
M  V30 49 H 3.8347 -1.31191 -1.62945 0
M  V30 50 H 3.0435 -2.41783 -0.377375 0
M  V30 51 H 5.18758 1.18968 0.421855 0
M  V30 52 H 4.96382 0.474171 -1.25735 0
M  V30 END ATOM
M  V30 BEGIN BOND
M  V30 1 1 1 2
M  V30 2 1 2 3
M  V30 3 1 3 4
M  V30 4 1 4 5
M  V30 5 2 5 6
M  V30 6 1 6 7
M  V30 7 2 7 8
M  V30 8 1 8 9
M  V30 9 2 9 10
M  V30 10 1 4 11
M  V30 11 1 11 12
M  V30 12 1 12 13
M  V30 13 1 13 14
M  V30 14 1 13 15
M  V30 15 1 15 16
M  V30 16 1 16 17
M  V30 17 1 17 18
M  V30 18 1 18 19
M  V30 19 1 19 20
M  V30 20 1 20 21
M  V30 21 1 21 22
M  V30 22 1 21 23
M  V30 23 1 6 2
M  V30 24 1 19 13
M  V30 25 1 10 5
M  V30 26 1 22 15
M  V30 27 1 23 17
M  V30 28 1 1 24
M  V30 29 1 1 25
M  V30 30 1 2 26
M  V30 31 1 3 27
M  V30 32 1 3 28
M  V30 33 1 4 29
M  V30 34 1 7 30
M  V30 35 1 8 31
M  V30 36 1 9 32
M  V30 37 1 10 33
M  V30 38 1 11 34
M  V30 39 1 12 35
M  V30 40 1 12 36
M  V30 41 1 14 37
M  V30 42 1 14 38
M  V30 43 1 15 39
M  V30 44 1 16 40
M  V30 45 1 16 41
M  V30 46 1 17 42
M  V30 47 1 18 43
M  V30 48 1 18 44
M  V30 49 1 19 45
M  V30 50 1 20 46
M  V30 51 1 20 47
M  V30 52 1 21 48
M  V30 53 1 22 49
M  V30 54 1 22 50
M  V30 55 1 23 51
M  V30 56 1 23 52
M  V30 END BOND
M  V30 END CTAB
M  END
