
     RDKit          3D

  0  0  0  0  0  0  0  0  0  0999 V3000
M  V30 BEGIN CTAB
M  V30 COUNTS 54 57 0 0 0
M  V30 BEGIN ATOM
M  V30 1 O -6.14733 3.02361 0.57294 0
M  V30 2 C -5.18732 2.0743 0.91374 0
M  V30 3 O -4.84859 2.00932 2.10358 0
M  V30 4 C -4.63961 1.22245 -0.120703 0
M  V30 5 C -3.60332 0.22307 0.341593 0
M  V30 6 C -4.10424 -0.737687 1.36563 0
M  V30 7 C -5.24922 -1.42386 0.618905 0
M  V30 8 C -4.71177 -1.51712 -0.797573 0
M  V30 9 C -3.4272 -0.729331 -0.851068 0
M  V30 10 C -2.33987 0.937702 0.656416 0
M  V30 11 C -1.21702 0.137603 1.12118 0
M  V30 12 O -1.24794 -0.406797 2.253 0
M  V30 13 N -0.0624051 -0.0465745 0.31171 0
M  V30 14 C 1.13391 -0.832545 0.668183 0
M  V30 15 C 1.88095 -0.911344 -0.612205 0 CFG=1
M  V30 16 C 1.61724 0.440758 -1.22645 0 CFG=2
M  V30 17 C 0.101748 0.531607 -1.00601 0
M  V30 18 O 1.93069 0.477177 -2.57781 0
M  V30 19 N 3.28408 -1.20282 -0.48302 0
M  V30 20 C 3.83572 -2.36504 -0.91284 0
M  V30 21 N 5.1445 -2.33872 -0.659926 0
M  V30 22 C 5.41844 -1.15589 -0.0686799 0
M  V30 23 C 4.23926 -0.437601 0.0427488 0
M  V30 24 N 4.24301 0.768418 0.594301 0
M  V30 25 C 5.34827 1.35437 1.06479 0
M  V30 26 N 5.37029 2.64037 1.6562 0
M  V30 27 N 6.51122 0.659946 0.961201 0
M  V30 28 C 6.56491 -0.563023 0.412502 0
M  V30 29 N 7.81777 -1.26203 0.322565 0
M  V30 30 H -6.03043 3.51987 -0.295671 0
M  V30 31 H -5.46179 0.697814 -0.677917 0
M  V30 32 H -4.18078 1.91289 -0.897323 0
M  V30 33 H -3.2854 -1.49093 1.5499 0
M  V30 34 H -4.46014 -0.339645 2.30615 0
M  V30 35 H -5.47553 -2.42161 1.02896 0
M  V30 36 H -6.16428 -0.802217 0.686245 0
M  V30 37 H -4.5537 -2.59489 -1.0159 0
M  V30 38 H -5.48562 -1.16376 -1.4885 0
M  V30 39 H -2.57808 -1.39798 -0.722556 0
M  V30 40 H -3.42373 -0.164119 -1.80587 0
M  V30 41 H -2.07259 1.54908 -0.255994 0
M  V30 42 H -2.5677 1.72939 1.42969 0
M  V30 43 H 0.822693 -1.81781 1.0728 0
M  V30 44 H 1.65468 -0.246338 1.43755 0
M  V30 45 H 1.36238 -1.6501 -1.26415 0
M  V30 46 H 2.03926 1.28369 -0.654075 0
M  V30 47 H -0.229312 1.58778 -1.07479 0
M  V30 48 H -0.426659 -0.137395 -1.71541 0
M  V30 49 H 2.21275 1.40793 -2.77864 0
M  V30 50 H 3.34204 -3.21012 -1.38983 0
M  V30 51 H 5.44813 3.51402 1.10561 0
M  V30 52 H 5.30684 2.71028 2.68905 0
M  V30 53 H 8.72845 -0.766725 0.435844 0
M  V30 54 H 7.82235 -2.27943 0.140934 0
M  V30 END ATOM
M  V30 BEGIN BOND
M  V30 1 1 1 2
M  V30 2 2 2 3
M  V30 3 1 2 4
M  V30 4 1 4 5
M  V30 5 1 5 6
M  V30 6 1 6 7
M  V30 7 1 7 8
M  V30 8 1 8 9
M  V30 9 1 5 10
M  V30 10 1 10 11
M  V30 11 2 11 12
M  V30 12 1 11 13
M  V30 13 1 13 14
M  V30 14 1 14 15
M  V30 15 1 15 16
M  V30 16 1 16 17
M  V30 17 1 16 18
M  V30 18 1 15 19
M  V30 19 1 19 20
M  V30 20 2 20 21
M  V30 21 1 21 22
M  V30 22 2 22 23
M  V30 23 1 23 24
M  V30 24 2 24 25
M  V30 25 1 25 26
M  V30 26 1 25 27
M  V30 27 2 27 28
M  V30 28 1 28 29
M  V30 29 1 9 5
M  V30 30 1 17 13
M  V30 31 1 23 19
M  V30 32 1 28 22
M  V30 33 1 1 30
M  V30 34 1 4 31
M  V30 35 1 4 32
M  V30 36 1 6 33
M  V30 37 1 6 34
M  V30 38 1 7 35
M  V30 39 1 7 36
M  V30 40 1 8 37
M  V30 41 1 8 38
M  V30 42 1 9 39
M  V30 43 1 9 40
M  V30 44 1 10 41
M  V30 45 1 10 42
M  V30 46 1 14 43
M  V30 47 1 14 44
M  V30 48 1 15 45 CFG=3
M  V30 49 1 16 46 CFG=1
M  V30 50 1 17 47
M  V30 51 1 17 48
M  V30 52 1 18 49
M  V30 53 1 20 50
M  V30 54 1 26 51
M  V30 55 1 26 52
M  V30 56 1 29 53
M  V30 57 1 29 54
M  V30 END BOND
M  V30 END CTAB
M  END
