
     RDKit          3D

  0  0  0  0  0  0  0  0  0  0999 V3000
M  V30 BEGIN CTAB
M  V30 COUNTS 40 42 0 0 0
M  V30 BEGIN ATOM
M  V30 1 O -0.00266212 -0.705513 -0.583785 0
M  V30 2 C -0.0652478 -0.882376 0.662397 0
M  V30 3 C -1.38552 -1.01439 1.30597 0
M  V30 4 N -2.41388 -0.908809 0.313394 0
M  V30 5 C -2.4793 -1.8284 -0.752064 0
M  V30 6 N -2.4253 -1.67892 -2.0781 0
M  V30 7 O -2.53256 -2.84773 -2.67498 0
M  V30 8 N -2.65702 -3.77481 -1.77725 0
M  V30 9 C -2.63116 -3.20315 -0.559206 0
M  V30 10 N -2.73846 -3.87365 0.687625 0
M  V30 11 N -3.35226 0.105806 0.401241 0
M  V30 12 N -2.93578 1.29281 0.485556 0
M  V30 13 C -3.75828 2.43032 0.581246 0
M  V30 14 N -3.86006 3.34023 1.5544 0
M  V30 15 O -4.75556 4.20202 1.18782 0
M  V30 16 N -5.25557 3.91707 0.0255675 0
M  V30 17 C -4.65307 2.79786 -0.401954 0
M  V30 18 N -4.88111 2.11202 -1.62678 0
M  V30 19 N 1.08939 -0.958775 1.4666 0
M  V30 20 N 2.34173 -0.834339 0.86164 0
M  V30 21 C 2.87101 0.312563 0.702597 0
M  V30 22 C 4.17143 0.519964 0.0813206 0
M  V30 23 C 4.90757 -0.558822 -0.376016 0
M  V30 24 C 6.1381 -0.378686 -0.965323 0
M  V30 25 C 6.68051 0.877783 -1.12113 0
M  V30 26 C 5.94505 1.97388 -0.662596 0
M  V30 27 C 4.70684 1.78059 -0.0706762 0
M  V30 28 Cl 3.80411 3.16398 0.495504 0
M  V30 29 H -1.45095 -1.96718 1.8807 0
M  V30 30 H -1.5228 -0.190144 2.06717 0
M  V30 31 H -3.45246 -3.62468 1.40815 0
M  V30 32 H -2.0819 -4.65292 0.910198 0
M  V30 33 H -5.07919 2.66508 -2.48574 0
M  V30 34 H -4.86045 1.07119 -1.71264 0
M  V30 35 H 1.04163 -1.1023 2.47859 0
M  V30 36 H 2.32246 1.18968 1.04984 0
M  V30 37 H 4.49146 -1.5558 -0.259415 0
M  V30 38 H 6.70771 -1.21981 -1.31976 0
M  V30 39 H 7.65069 1.04807 -1.58325 0
M  V30 40 H 6.36085 2.96026 -0.779982 0
M  V30 END ATOM
M  V30 BEGIN BOND
M  V30 1 2 1 2
M  V30 2 1 2 3
M  V30 3 1 3 4
M  V30 4 1 4 5
M  V30 5 2 5 6
M  V30 6 1 6 7
M  V30 7 1 7 8
M  V30 8 2 8 9
M  V30 9 1 9 10
M  V30 10 1 4 11
M  V30 11 2 11 12
M  V30 12 1 12 13
M  V30 13 2 13 14
M  V30 14 1 14 15
M  V30 15 1 15 16
M  V30 16 2 16 17
M  V30 17 1 17 18
M  V30 18 1 2 19
M  V30 19 1 19 20
M  V30 20 2 20 21
M  V30 21 1 21 22
M  V30 22 2 22 23
M  V30 23 1 23 24
M  V30 24 2 24 25
M  V30 25 1 25 26
M  V30 26 2 26 27
M  V30 27 1 27 28
M  V30 28 1 9 5
M  V30 29 1 17 13
M  V30 30 1 27 22
M  V30 31 1 3 29
M  V30 32 1 3 30
M  V30 33 1 10 31
M  V30 34 1 10 32
M  V30 35 1 18 33
M  V30 36 1 18 34
M  V30 37 1 19 35
M  V30 38 1 21 36
M  V30 39 1 23 37
M  V30 40 1 24 38
M  V30 41 1 25 39
M  V30 42 1 26 40
M  V30 END BOND
M  V30 END CTAB
M  END
