
     RDKit          3D

  0  0  0  0  0  0  0  0  0  0999 V3000
M  V30 BEGIN CTAB
M  V30 COUNTS 53 54 0 0 0
M  V30 BEGIN ATOM
M  V30 1 C -6.74299 -1.74123 1.32999 0
M  V30 2 C -5.57604 -1.84251 0.418574 0
M  V30 3 O -5.00246 -0.640703 0.0116188 0
M  V30 4 C -4.0178 0.113582 0.742054 0
M  V30 5 O -3.64928 -0.315233 1.82306 0
M  V30 6 C -3.56904 1.32646 0.0773091 0
M  V30 7 C -2.69797 2.37843 0.796353 0
M  V30 8 C -1.27149 1.90375 0.730901 0
M  V30 9 C -0.781016 0.893205 1.41713 0
M  V30 10 C 0.403029 0.267875 1.09083 0
M  V30 11 N 0.916559 -0.924117 1.59374 0
M  V30 12 C 1.17208 0.761356 -0.0416711 0
M  V30 13 C 0.68253 1.84014 -0.731847 0
M  V30 14 C -0.566976 2.37997 -0.301263 0
M  V30 15 N 1.35322 2.41334 -1.85867 0
M  V30 16 O 2.25242 0.13057 -0.268773 0
M  V30 17 C 3.4716 -0.32522 -0.13831 0
M  V30 18 C 4.22626 -0.0142094 0.969114 0
M  V30 19 C 5.5396 -0.500055 1.06142 0
M  V30 20 C 6.06948 -1.25961 0.0529485 0
M  V30 21 C 5.30844 -1.59182 -1.05904 0
M  V30 22 C 4.02505 -1.12027 -1.13255 0
M  V30 23 O 7.39167 -1.72895 0.0556558 0
M  V30 24 C 8.26549 -1.28004 1.08633 0
M  V30 25 N -3.34018 1.18313 -1.3139 0
M  V30 26 C -3.12066 1.05206 -2.64518 0
M  V30 27 O -2.88795 1.76188 -3.55651 0
M  V30 28 C -3.13748 -0.505286 -3.03348 0
M  V30 29 H -6.52988 -1.85309 2.37978 0
M  V30 30 H -7.38121 -2.68476 1.09165 0
M  V30 31 H -7.47505 -0.935169 1.11456 0
M  V30 32 H -5.70798 -2.49573 -0.479159 0
M  V30 33 H -4.80138 -2.44992 1.0069 0
M  V30 34 H -2.28169 0.558385 0.0637945 0
M  V30 35 H -2.98108 2.38346 1.84618 0
M  V30 36 H -2.78727 3.34045 0.350889 0
M  V30 37 H -1.26114 0.482347 2.33855 0
M  V30 38 H 1.29222 -1.08049 2.50159 0
M  V30 39 H 0.875855 -1.71781 0.871025 0
M  V30 40 H -0.913404 3.26714 -0.904385 0
M  V30 41 H 1.08146 2.16249 -2.86329 0
M  V30 42 H 2.15306 3.03925 -1.78556 0
M  V30 43 H 3.87051 0.58603 1.76905 0
M  V30 44 H 6.17064 -0.317198 1.93197 0
M  V30 45 H 5.74223 -2.23721 -1.82344 0
M  V30 46 H 3.38857 -1.33687 -2.00677 0
M  V30 47 H 8.25432 -1.83578 1.96736 0
M  V30 48 H 9.28391 -1.32313 0.569208 0
M  V30 49 H 8.02491 -0.158874 1.21105 0
M  V30 50 H -3.69182 2.46975 -1.40046 0
M  V30 51 H -2.57724 -0.618358 -3.91402 0
M  V30 52 H -2.39639 -0.904007 -2.18594 0
M  V30 53 H -4.06826 -0.957384 -2.75323 0
M  V30 END ATOM
M  V30 BEGIN BOND
M  V30 1 1 1 2
M  V30 2 1 2 3
M  V30 3 1 3 4
M  V30 4 2 4 5
M  V30 5 1 4 6
M  V30 6 1 6 7
M  V30 7 1 7 8
M  V30 8 2 8 9
M  V30 9 1 9 10
M  V30 10 1 10 11
M  V30 11 2 10 12
M  V30 12 1 12 13
M  V30 13 2 13 14
M  V30 14 1 13 15
M  V30 15 1 12 16
M  V30 16 1 16 17
M  V30 17 2 17 18
M  V30 18 1 18 19
M  V30 19 2 19 20
M  V30 20 1 20 21
M  V30 21 2 21 22
M  V30 22 1 20 23
M  V30 23 1 23 24
M  V30 24 1 6 25
M  V30 25 1 25 26
M  V30 26 2 26 27
M  V30 27 1 26 28
M  V30 28 1 14 8
M  V30 29 1 22 17
M  V30 30 1 1 29
M  V30 31 1 1 30
M  V30 32 1 1 31
M  V30 33 1 2 32
M  V30 34 1 2 33
M  V30 35 1 6 34
M  V30 36 1 7 35
M  V30 37 1 7 36
M  V30 38 1 9 37
M  V30 39 1 11 38
M  V30 40 1 11 39
M  V30 41 1 14 40
M  V30 42 1 15 41
M  V30 43 1 15 42
M  V30 44 1 18 43
M  V30 45 1 19 44
M  V30 46 1 21 45
M  V30 47 1 22 46
M  V30 48 1 24 47
M  V30 49 1 24 48
M  V30 50 1 24 49
M  V30 51 1 25 50
M  V30 52 1 28 51
M  V30 53 1 28 52
M  V30 54 1 28 53
M  V30 END BOND
M  V30 END CTAB
M  END
