
     RDKit          3D

  0  0  0  0  0  0  0  0  0  0999 V3000
M  V30 BEGIN CTAB
M  V30 COUNTS 29 29 0 0 0
M  V30 BEGIN ATOM
M  V30 1 N 3.93638 -1.20574 -0.00947808 0
M  V30 2 C 2.63953 -0.735597 -0.418081 0
M  V30 3 C 1.70901 -0.547387 0.771393 0
M  V30 4 C 0.367803 -0.0777996 0.311205 0
M  V30 5 C -0.655288 -1.00708 0.222554 0
M  V30 6 C -1.92767 -0.695125 -0.200536 0
M  V30 7 C -3.01241 -1.69746 -0.30763 0
M  V30 8 N -3.4941 -2.14302 0.976809 0
M  V30 9 C -2.14843 0.626803 -0.542763 0
M  V30 10 C -1.14962 1.57259 -0.463683 0
M  V30 11 C 0.113103 1.22758 -0.0374071 0
M  V30 12 O 1.13878 2.15851 0.052915 0
M  V30 13 C 0.967286 3.51978 -0.287307 0
M  V30 14 H 4.33894 -1.89673 -0.7095 0
M  V30 15 H 3.83357 -1.79773 0.871085 0
M  V30 16 H 2.21064 -1.5278 -1.08148 0
M  V30 17 H 2.75817 0.192744 -1.017 0
M  V30 18 H 1.62965 -1.48141 1.33491 0
M  V30 19 H 2.16021 0.253162 1.39343 0
M  V30 20 H -0.456584 -2.05008 0.500518 0
M  V30 21 H -3.8818 -1.19594 -0.809254 0
M  V30 22 H -2.7456 -2.55615 -0.931043 0
M  V30 23 H -3.8373 -1.4023 1.59244 0
M  V30 24 H -2.85431 -2.82253 1.4482 0
M  V30 25 H -3.15066 0.932284 -0.889836 0
M  V30 26 H -1.35204 2.59978 -0.742201 0
M  V30 27 H 0.789345 3.69172 -1.35129 0
M  V30 28 H 1.90499 4.0599 -0.00691957 0
M  V30 29 H 0.168396 4.00502 0.32994 0
M  V30 END ATOM
M  V30 BEGIN BOND
M  V30 1 1 1 2
M  V30 2 1 2 3
M  V30 3 1 3 4
M  V30 4 2 4 5
M  V30 5 1 5 6
M  V30 6 1 6 7
M  V30 7 1 7 8
M  V30 8 2 6 9
M  V30 9 1 9 10
M  V30 10 2 10 11
M  V30 11 1 11 12
M  V30 12 1 12 13
M  V30 13 1 11 4
M  V30 14 1 1 14
M  V30 15 1 1 15
M  V30 16 1 2 16
M  V30 17 1 2 17
M  V30 18 1 3 18
M  V30 19 1 3 19
M  V30 20 1 5 20
M  V30 21 1 7 21
M  V30 22 1 7 22
M  V30 23 1 8 23
M  V30 24 1 8 24
M  V30 25 1 9 25
M  V30 26 1 10 26
M  V30 27 1 13 27
M  V30 28 1 13 28
M  V30 29 1 13 29
M  V30 END BOND
M  V30 END CTAB
M  END
