
     RDKit          3D

  0  0  0  0  0  0  0  0  0  0999 V3000
M  V30 BEGIN CTAB
M  V30 COUNTS 52 54 0 0 0
M  V30 BEGIN ATOM
M  V30 1 C -5.88751 -4.26317 -1.77627 0
M  V30 2 C -5.3444 -2.87923 -1.649 0
M  V30 3 O -3.96964 -2.87524 -1.31308 0
M  V30 4 C -3.29489 -1.66066 -1.15325 0
M  V30 5 O -3.97661 -0.627774 -1.32417 0
M  V30 6 C -1.88193 -1.58093 -0.8084 0
M  V30 7 C -1.32493 -0.198353 -0.633189 0
M  V30 8 C -1.95495 0.594365 0.430654 0
M  V30 9 C -2.70547 1.7021 0.117921 0
M  V30 10 C -3.31506 2.4731 1.11146 0
M  V30 11 C -3.17103 2.12993 2.43698 0
M  V30 12 C -2.42381 1.02403 2.7776 0
M  V30 13 C -1.83098 0.278366 1.77128 0
M  V30 14 O -3.7718 2.89097 3.40574 0
M  V30 15 C -4.54814 4.02854 3.16402 0
M  V30 16 N 0.0900837 -0.323793 -0.227828 0
M  V30 17 C 1.11701 0.237433 -1.00751 0
M  V30 18 O 0.886345 0.852882 -2.05291 0
M  V30 19 C 2.49713 0.0649627 -0.529951 0
M  V30 20 S 3.0643 -0.73846 0.868496 0
M  V30 21 C 4.73674 -0.481408 0.680739 0
M  V30 22 C 4.80684 0.230825 -0.478736 0
M  V30 23 C 3.65595 0.516229 -1.10848 0
M  V30 24 N 3.55221 1.26672 -2.35349 0
M  V30 25 C 6.10995 0.583376 -0.874982 0
M  V30 26 C 7.18036 0.203053 -0.100553 0
M  V30 27 C 7.06604 -0.519005 1.06893 0
M  V30 28 N 5.81777 -0.848695 1.43528 0
M  V30 29 N 8.24448 -0.849563 1.77696 0
M  V30 30 C 8.51205 0.591708 -0.551968 0
M  V30 31 N 9.57107 0.896717 -0.902093 0
M  V30 32 H -5.30447 -5.01493 -1.19306 0
M  V30 33 H -6.91811 -4.29627 -1.34371 0
M  V30 34 H -5.89069 -4.57166 -2.85919 0
M  V30 35 H -5.47666 -2.34071 -2.62821 0
M  V30 36 H -5.90378 -2.34317 -0.836899 0
M  V30 37 H -1.32272 -2.11475 -1.63263 0
M  V30 38 H -1.70219 -2.2231 0.0898866 0
M  V30 39 H -1.34955 0.365037 -1.57062 0
M  V30 40 H -2.84505 2.00944 -0.916563 0
M  V30 41 H -3.89488 3.33201 0.838674 0
M  V30 42 H -2.32301 0.771282 3.82764 0
M  V30 43 H -1.25327 -0.581557 2.08143 0
M  V30 44 H -5.54235 3.7043 2.77386 0
M  V30 45 H -4.72183 4.58265 4.10276 0
M  V30 46 H -4.12343 4.68688 2.35568 0
M  V30 47 H 0.27781 -0.839303 0.64737 0
M  V30 48 H 3.61527 2.27647 -2.34985 0
M  V30 49 H 3.41452 0.705528 -3.20572 0
M  V30 50 H 6.3062 1.15321 -1.78309 0
M  V30 51 H 8.39738 -0.64688 2.79397 0
M  V30 52 H 9.05368 -1.33349 1.29494 0
M  V30 END ATOM
M  V30 BEGIN BOND
M  V30 1 1 1 2
M  V30 2 1 2 3
M  V30 3 1 3 4
M  V30 4 2 4 5
M  V30 5 1 4 6
M  V30 6 1 6 7
M  V30 7 1 7 8
M  V30 8 2 8 9
M  V30 9 1 9 10
M  V30 10 2 10 11
M  V30 11 1 11 12
M  V30 12 2 12 13
M  V30 13 1 11 14
M  V30 14 1 14 15
M  V30 15 1 7 16
M  V30 16 1 16 17
M  V30 17 2 17 18
M  V30 18 1 17 19
M  V30 19 1 19 20
M  V30 20 1 20 21
M  V30 21 2 21 22
M  V30 22 1 22 23
M  V30 23 1 23 24
M  V30 24 1 22 25
M  V30 25 2 25 26
M  V30 26 1 26 27
M  V30 27 2 27 28
M  V30 28 1 27 29
M  V30 29 1 26 30
M  V30 30 3 30 31
M  V30 31 1 13 8
M  V30 32 2 23 19
M  V30 33 1 28 21
M  V30 34 1 1 32
M  V30 35 1 1 33
M  V30 36 1 1 34
M  V30 37 1 2 35
M  V30 38 1 2 36
M  V30 39 1 6 37
M  V30 40 1 6 38
M  V30 41 1 7 39
M  V30 42 1 9 40
M  V30 43 1 10 41
M  V30 44 1 12 42
M  V30 45 1 13 43
M  V30 46 1 15 44
M  V30 47 1 15 45
M  V30 48 1 15 46
M  V30 49 1 16 47
M  V30 50 1 24 48
M  V30 51 1 24 49
M  V30 52 1 25 50
M  V30 53 1 29 51
M  V30 54 1 29 52
M  V30 END BOND
M  V30 END CTAB
M  END
