
     RDKit          3D

  0  0  0  0  0  0  0  0  0  0999 V3000
M  V30 BEGIN CTAB
M  V30 COUNTS 30 33 0 0 0
M  V30 BEGIN ATOM
M  V30 1 N 3.43706 -1.50926 0.301054 0
M  V30 2 C 2.4382 -0.506057 0.249204 0
M  V30 3 C 2.79176 0.827375 0.373683 0
M  V30 4 C 1.8314 1.81418 0.325238 0
M  V30 5 N 2.13538 3.19868 0.447196 0
M  V30 6 C 0.508011 1.40448 0.147265 0
M  V30 7 C -0.461592 2.37004 0.0964312 0
M  V30 8 C -1.77751 1.97703 -0.0796276 0
M  V30 9 C -2.11464 0.624082 -0.203446 0
M  V30 10 C -3.41222 0.234787 -0.377168 0
M  V30 11 C -3.73329 -1.11711 -0.499071 0
M  V30 12 C -2.76791 -2.10012 -0.449813 0
M  V30 13 C -1.45444 -1.69528 -0.273288 0
M  V30 14 C -1.14215 -0.348983 -0.15275 0
M  V30 15 C 0.165822 0.0714221 0.0241177 0
M  V30 16 C 1.12488 -0.916836 0.0723179 0
M  V30 17 C 0.81087 -2.27161 -0.0489535 0
M  V30 18 C -0.49361 -2.68484 -0.224973 0
M  V30 19 H 4.31395 -1.38057 -0.238661 0
M  V30 20 H 3.33654 -2.37714 0.857541 0
M  V30 21 H 3.83973 1.12169 0.512736 0
M  V30 22 H 1.93447 3.74001 1.32796 0
M  V30 23 H 2.5751 3.76045 -0.327493 0
M  V30 24 H -0.175231 3.39851 0.194029 0
M  V30 25 H -2.57337 2.70451 -0.125437 0
M  V30 26 H -4.1815 1.00099 -0.417471 0
M  V30 27 H -4.77556 -1.42618 -0.638391 0
M  V30 28 H -3.02418 -3.15125 -0.54534 0
M  V30 29 H 1.59976 -3.01486 -0.00492954 0
M  V30 30 H -0.755727 -3.74812 -0.321964 0
M  V30 END ATOM
M  V30 BEGIN BOND
M  V30 1 1 1 2
M  V30 2 2 2 3
M  V30 3 1 3 4
M  V30 4 1 4 5
M  V30 5 2 4 6
M  V30 6 1 6 7
M  V30 7 2 7 8
M  V30 8 1 8 9
M  V30 9 2 9 10
M  V30 10 1 10 11
M  V30 11 2 11 12
M  V30 12 1 12 13
M  V30 13 2 13 14
M  V30 14 1 14 15
M  V30 15 2 15 16
M  V30 16 1 16 17
M  V30 17 2 17 18
M  V30 18 1 16 2
M  V30 19 1 15 6
M  V30 20 1 14 9
M  V30 21 1 18 13
M  V30 22 1 1 19
M  V30 23 1 1 20
M  V30 24 1 3 21
M  V30 25 1 5 22
M  V30 26 1 5 23
M  V30 27 1 7 24
M  V30 28 1 8 25
M  V30 29 1 10 26
M  V30 30 1 11 27
M  V30 31 1 12 28
M  V30 32 1 17 29
M  V30 33 1 18 30
M  V30 END BOND
M  V30 END CTAB
M  END
