
     RDKit          3D

  0  0  0  0  0  0  0  0  0  0999 V3000
M  V30 BEGIN CTAB
M  V30 COUNTS 28 29 0 0 0
M  V30 BEGIN ATOM
M  V30 1 C 1.18009 -1.33792 -1.78951 0
M  V30 2 C 2.02165 -0.377991 -0.999105 0
M  V30 3 C 3.30362 -0.110939 -1.40309 0
M  V30 4 C 4.12118 0.766611 -0.709226 0
M  V30 5 C 3.63997 1.38066 0.4034 0
M  V30 6 C 2.34256 1.10917 0.810612 0
M  V30 7 C 1.52433 0.239031 0.127112 0
M  V30 8 N 0.207556 0.0114602 0.604896 0
M  V30 9 N -0.828191 0.137133 -0.0757257 0
M  V30 10 C -2.1525 -0.0880089 0.3919 0
M  V30 11 C -2.62015 -1.20317 1.0578 0
M  V30 12 N -1.84677 -2.34728 1.40148 0
M  V30 13 N -3.91627 -0.962876 1.29273 0
M  V30 14 N -4.26701 0.231077 0.810446 0
M  V30 15 C -3.19732 0.812555 0.239504 0
M  V30 16 N -3.08423 2.07403 -0.40108 0
M  V30 17 H 0.772414 -2.07437 -1.06074 0
M  V30 18 H 1.80147 -1.82201 -2.55189 0
M  V30 19 H 0.329618 -0.785304 -2.20483 0
M  V30 20 H 3.7241 -0.579193 -2.28341 0
M  V30 21 H 5.14354 0.974589 -1.03811 0
M  V30 22 H 4.24271 2.08483 0.991901 0
M  V30 23 H 1.99718 1.61793 1.70072 0
M  V30 24 H -2.0652 -2.8085 2.30888 0
M  V30 25 H -1.10378 -2.73063 0.814976 0
M  V30 26 H -5.21571 0.689054 0.845997 0
M  V30 27 H -3.57457 2.30438 -1.29823 0
M  V30 28 H -2.48031 2.79568 0.0557487 0
M  V30 END ATOM
M  V30 BEGIN BOND
M  V30 1 1 1 2
M  V30 2 2 2 3
M  V30 3 1 3 4
M  V30 4 2 4 5
M  V30 5 1 5 6
M  V30 6 2 6 7
M  V30 7 1 7 8
M  V30 8 2 8 9
M  V30 9 1 9 10
M  V30 10 1 10 11
M  V30 11 1 11 12
M  V30 12 2 11 13
M  V30 13 1 13 14
M  V30 14 1 14 15
M  V30 15 1 15 16
M  V30 16 1 7 2
M  V30 17 2 15 10
M  V30 18 1 1 17
M  V30 19 1 1 18
M  V30 20 1 1 19
M  V30 21 1 3 20
M  V30 22 1 4 21
M  V30 23 1 5 22
M  V30 24 1 6 23
M  V30 25 1 12 24
M  V30 26 1 12 25
M  V30 27 1 14 26
M  V30 28 1 16 27
M  V30 29 1 16 28
M  V30 END BOND
M  V30 END CTAB
M  END
