
     RDKit          3D

  0  0  0  0  0  0  0  0  0  0999 V3000
M  V30 BEGIN CTAB
M  V30 COUNTS 36 37 0 0 0
M  V30 BEGIN ATOM
M  V30 1 C 6.1864 0.262959 1.8606 0
M  V30 2 C 5.01907 -0.0373255 0.957629 0
M  V30 3 N 4.27569 -1.08539 1.27602 0
M  V30 4 C 3.19571 -1.37083 0.48793 0
M  V30 5 C 2.87385 -0.60124 -0.605858 0
M  V30 6 C 1.77534 -1.07045 -1.47699 0
M  V30 7 S 0.442897 0.10785 -1.68621 0
M  V30 8 S -0.14446 1.14232 0.0394783 0
M  V30 9 C -1.34836 0.394438 1.02369 0
M  V30 10 C -2.76547 0.353917 0.702396 0
M  V30 11 C -3.58162 -0.00240286 1.81734 0
M  V30 12 N -4.85891 -0.264515 1.59403 0
M  V30 13 C -5.40857 -0.201081 0.378065 0
M  V30 14 C -6.8452 -0.557923 0.184793 0
M  V30 15 N -4.68066 0.137164 -0.697577 0
M  V30 16 C -3.32955 0.419455 -0.530519 0
M  V30 17 N -2.59944 0.868507 -1.64822 0
M  V30 18 C 3.65059 0.462657 -0.904512 0
M  V30 19 N 3.34117 1.37161 -1.9521 0
M  V30 20 N 4.71841 0.728932 -0.108984 0
M  V30 21 H 6.95298 -0.509718 1.82026 0
M  V30 22 H 6.64317 1.21187 1.46484 0
M  V30 23 H 5.75979 0.461263 2.87353 0
M  V30 24 H 2.6238 -2.25174 0.736383 0
M  V30 25 H 2.08519 -1.49023 -2.4365 0
M  V30 26 H 1.29899 -1.97834 -0.964175 0
M  V30 27 H -1.31098 0.946339 2.07206 0
M  V30 28 H -1.00729 -0.655705 1.39518 0
M  V30 29 H -3.13767 -0.0545365 2.81838 0
M  V30 30 H -7.10385 -0.61777 -0.869234 0
M  V30 31 H -6.89786 -1.65279 0.537761 0
M  V30 32 H -7.54218 0.0037075 0.797396 0
M  V30 33 H -2.11358 1.81154 -1.70197 0
M  V30 34 H -2.55499 0.270042 -2.48962 0
M  V30 35 H 3.99071 1.58807 -2.71631 0
M  V30 36 H 2.39687 1.85932 -1.95292 0
M  V30 END ATOM
M  V30 BEGIN BOND
M  V30 1 1 1 2
M  V30 2 2 2 3
M  V30 3 1 3 4
M  V30 4 2 4 5
M  V30 5 1 5 6
M  V30 6 1 6 7
M  V30 7 1 7 8
M  V30 8 1 8 9
M  V30 9 1 9 10
M  V30 10 2 10 11
M  V30 11 1 11 12
M  V30 12 2 12 13
M  V30 13 1 13 14
M  V30 14 1 13 15
M  V30 15 2 15 16
M  V30 16 1 16 17
M  V30 17 1 5 18
M  V30 18 1 18 19
M  V30 19 2 18 20
M  V30 20 1 20 2
M  V30 21 1 16 10
M  V30 22 1 1 21
M  V30 23 1 1 22
M  V30 24 1 1 23
M  V30 25 1 4 24
M  V30 26 1 6 25
M  V30 27 1 6 26
M  V30 28 1 9 27
M  V30 29 1 9 28
M  V30 30 1 11 29
M  V30 31 1 14 30
M  V30 32 1 14 31
M  V30 33 1 14 32
M  V30 34 1 17 33
M  V30 35 1 17 34
M  V30 36 1 19 35
M  V30 37 1 19 36
M  V30 END BOND
M  V30 END CTAB
M  END
