
     RDKit          3D

  0  0  0  0  0  0  0  0  0  0999 V3000
M  V30 BEGIN CTAB
M  V30 COUNTS 49 51 0 0 0
M  V30 BEGIN ATOM
M  V30 1 C 1.78023 2.68599 -0.552243 0
M  V30 2 O 2.59114 1.62837 -0.0686494 0
M  V30 3 C 2.21047 0.311409 -0.287437 0
M  V30 4 C 2.96898 -0.741251 0.165175 0
M  V30 5 C 2.54718 -2.03404 -0.0775364 0
M  V30 6 C 1.38392 -2.26988 -0.762916 0
M  V30 7 C 0.590281 -1.2375 -1.23626 0
M  V30 8 C 1.03656 0.0377163 -0.978964 0
M  V30 9 C -0.67262 -1.48407 -1.98045 0
M  V30 10 C -0.562772 -0.897645 -3.35027 0
M  V30 11 C -1.80952 -0.834602 -1.28654 0
M  V30 12 C -2.73081 -0.316721 -0.704208 0
M  V30 13 C -3.82162 0.287727 0.00976947 0
M  V30 14 C -3.54388 1.24987 0.963997 0
M  V30 15 N -2.17955 1.59606 1.19285 0
M  V30 16 N -4.55949 1.82344 1.63978 0
M  V30 17 C -5.8305 1.45895 1.38383 0
M  V30 18 N -6.84477 2.12344 2.15206 0
M  V30 19 N -6.15591 0.52922 0.466912 0
M  V30 20 C -5.14364 -0.0506666 -0.214998 0
M  V30 21 C -5.45937 -1.08339 -1.23765 0
M  V30 22 C 4.20248 -0.450642 0.888928 0
M  V30 23 C 4.49001 -1.12134 2.06006 0
M  V30 24 C 5.65597 -0.878463 2.78256 0
M  V30 25 C 6.5755 0.0681879 2.32606 0
M  V30 26 C 6.29054 0.737817 1.15862 0
M  V30 27 C 5.12583 0.477589 0.460769 0
M  V30 28 H 0.83002 2.70072 0.0234269 0
M  V30 29 H 1.59121 2.53283 -1.65427 0
M  V30 30 H 2.26258 3.66893 -0.376053 0
M  V30 31 H 3.1912 -2.82117 0.306333 0
M  V30 32 H 1.05598 -3.28203 -0.95157 0
M  V30 33 H 0.447724 0.875143 -1.33045 0
M  V30 34 H -0.830712 -2.57344 -2.06848 0
M  V30 35 H 0.415747 -1.20652 -3.77974 0
M  V30 36 H -0.550942 0.218541 -3.31418 0
M  V30 37 H -1.3999 -1.17682 -4.0013 0
M  V30 38 H -1.42979 0.867678 1.25604 0
M  V30 39 H -1.86877 2.58652 1.30708 0
M  V30 40 H -7.74662 1.62686 2.29059 0
M  V30 41 H -6.70796 3.05925 2.56196 0
M  V30 42 H -4.8204 -0.932128 -2.13544 0
M  V30 43 H -5.18045 -2.10088 -0.849922 0
M  V30 44 H -6.50031 -1.04415 -1.57126 0
M  V30 45 H 3.79834 -1.85189 2.42857 0
M  V30 46 H 5.8923 -1.38977 3.69085 0
M  V30 47 H 7.47574 0.239972 2.90536 0
M  V30 48 H 7.00288 1.46748 0.810008 0
M  V30 49 H 4.93746 1.028 -0.460799 0
M  V30 END ATOM
M  V30 BEGIN BOND
M  V30 1 1 1 2
M  V30 2 1 2 3
M  V30 3 2 3 4
M  V30 4 1 4 5
M  V30 5 2 5 6
M  V30 6 1 6 7
M  V30 7 2 7 8
M  V30 8 1 7 9
M  V30 9 1 9 10
M  V30 10 1 9 11
M  V30 11 3 11 12
M  V30 12 1 12 13
M  V30 13 2 13 14
M  V30 14 1 14 15
M  V30 15 1 14 16
M  V30 16 2 16 17
M  V30 17 1 17 18
M  V30 18 1 17 19
M  V30 19 2 19 20
M  V30 20 1 20 21
M  V30 21 1 4 22
M  V30 22 2 22 23
M  V30 23 1 23 24
M  V30 24 2 24 25
M  V30 25 1 25 26
M  V30 26 2 26 27
M  V30 27 1 8 3
M  V30 28 1 20 13
M  V30 29 1 27 22
M  V30 30 1 1 28
M  V30 31 1 1 29
M  V30 32 1 1 30
M  V30 33 1 5 31
M  V30 34 1 6 32
M  V30 35 1 8 33
M  V30 36 1 9 34
M  V30 37 1 10 35
M  V30 38 1 10 36
M  V30 39 1 10 37
M  V30 40 1 15 38
M  V30 41 1 15 39
M  V30 42 1 18 40
M  V30 43 1 18 41
M  V30 44 1 21 42
M  V30 45 1 21 43
M  V30 46 1 21 44
M  V30 47 1 23 45
M  V30 48 1 24 46
M  V30 49 1 25 47
M  V30 50 1 26 48
M  V30 51 1 27 49
M  V30 END BOND
M  V30 END CTAB
M  END
