
     RDKit          3D

  0  0  0  0  0  0  0  0  0  0999 V3000
M  V30 BEGIN CTAB
M  V30 COUNTS 55 59 0 0 0
M  V30 BEGIN ATOM
M  V30 1 N -4.74602 -2.07186 1.24485 0
M  V30 2 C -5.10899 -1.65524 -0.0517134 0
M  V30 3 C -3.8642 -1.23502 -0.802423 0 CFG=2
M  V30 4 C -2.8736 -2.37167 -0.921324 0
M  V30 5 N -1.53989 -1.78879 -0.866686 0
M  V30 6 C -1.70662 -0.376661 -0.757454 0
M  V30 7 C -3.07345 -0.200236 -0.0768104 0 CFG=1
M  V30 8 C -3.57321 1.15903 -0.203965 0
M  V30 9 C -3.85158 1.90688 0.917343 0
M  V30 10 C -4.33395 3.21886 0.805538 0
M  V30 11 C -4.53154 3.76563 -0.439783 0
M  V30 12 C -4.25734 3.02901 -1.54883 0
M  V30 13 C -3.77709 1.72274 -1.4305 0
M  V30 14 C -0.796433 -2.27926 0.269232 0
M  V30 15 C 0.555072 -1.696 0.290315 0
M  V30 16 N 1.47891 -2.0464 -0.595182 0
M  V30 17 C 2.7164 -1.56482 -0.623037 0
M  V30 18 N 3.55358 -2.06671 -1.64718 0
M  V30 19 C 3.14768 -0.613925 0.320916 0
M  V30 20 C 2.19755 -0.255913 1.22885 0
M  V30 21 N 0.933741 -0.784413 1.21265 0
M  V30 22 S 3.0067 0.880919 2.21372 0
M  V30 23 C 4.52418 0.879879 1.45963 0
M  V30 24 C 4.36549 -0.0283256 0.430583 0
M  V30 25 C 5.64333 -0.16827 -0.378413 0
M  V30 26 C 6.06677 1.22796 -0.789756 0
M  V30 27 C 6.45403 2.04171 0.394893 0
M  V30 28 C 5.83002 1.58776 1.67833 0
M  V30 29 H -4.97316 -1.52411 2.02468 0
M  V30 30 H -4.68866 -3.05939 1.33458 0
M  V30 31 H -5.62031 -2.49027 -0.571413 0
M  V30 32 H -5.81215 -0.803149 -0.0342698 0
M  V30 33 H -4.1654 -0.948352 -1.81871 0
M  V30 34 H -2.99927 -2.92394 -1.87397 0
M  V30 35 H -2.97341 -3.03841 -0.0410414 0
M  V30 36 H -0.944062 0.178352 -0.222563 0
M  V30 37 H -1.86011 0.101973 -1.7718 0
M  V30 38 H -2.95213 -0.537049 0.972086 0
M  V30 39 H -3.71444 1.52636 1.91037 0
M  V30 40 H -4.55743 3.81949 1.67713 0
M  V30 41 H -4.90796 4.78982 -0.567276 0
M  V30 42 H -4.40686 3.44306 -2.53218 0
M  V30 43 H -3.57922 1.19192 -2.32538 0
M  V30 44 H -1.34449 -2.12494 1.22681 0
M  V30 45 H -0.691567 -3.39077 0.173271 0
M  V30 46 H 3.49374 -1.70129 -2.60944 0
M  V30 47 H 4.23248 -2.80977 -1.42178 0
M  V30 48 H 6.41015 -0.527875 0.353514 0
M  V30 49 H 5.57694 -0.803068 -1.23295 0
M  V30 50 H 6.94878 1.11717 -1.45359 0
M  V30 51 H 5.22952 1.74337 -1.32752 0
M  V30 52 H 7.56072 1.9895 0.531967 0
M  V30 53 H 6.22952 3.11847 0.172244 0
M  V30 54 H 6.47879 0.946942 2.28923 0
M  V30 55 H 5.59047 2.49907 2.27074 0
M  V30 END ATOM
M  V30 BEGIN BOND
M  V30 1 1 1 2
M  V30 2 1 2 3
M  V30 3 1 3 4
M  V30 4 1 4 5
M  V30 5 1 5 6
M  V30 6 1 6 7
M  V30 7 1 7 8
M  V30 8 2 8 9
M  V30 9 1 9 10
M  V30 10 2 10 11
M  V30 11 1 11 12
M  V30 12 2 12 13
M  V30 13 1 5 14
M  V30 14 1 14 15
M  V30 15 2 15 16
M  V30 16 1 16 17
M  V30 17 1 17 18
M  V30 18 2 17 19
M  V30 19 1 19 20
M  V30 20 2 20 21
M  V30 21 1 20 22
M  V30 22 1 22 23
M  V30 23 2 23 24
M  V30 24 1 24 25
M  V30 25 1 25 26
M  V30 26 1 26 27
M  V30 27 1 27 28
M  V30 28 1 7 3
M  V30 29 1 13 8
M  V30 30 1 21 15
M  V30 31 1 28 23
M  V30 32 1 24 19
M  V30 33 1 1 29
M  V30 34 1 1 30
M  V30 35 1 2 31
M  V30 36 1 2 32
M  V30 37 1 3 33 CFG=3
M  V30 38 1 4 34
M  V30 39 1 4 35
M  V30 40 1 6 36
M  V30 41 1 6 37
M  V30 42 1 7 38 CFG=1
M  V30 43 1 9 39
M  V30 44 1 10 40
M  V30 45 1 11 41
M  V30 46 1 12 42
M  V30 47 1 13 43
M  V30 48 1 14 44
M  V30 49 1 14 45
M  V30 50 1 18 46
M  V30 51 1 18 47
M  V30 52 1 25 48
M  V30 53 1 25 49
M  V30 54 1 26 50
M  V30 55 1 26 51
M  V30 56 1 27 52
M  V30 57 1 27 53
M  V30 58 1 28 54
M  V30 59 1 28 55
M  V30 END BOND
M  V30 END CTAB
M  END
