
     RDKit          3D

  0  0  0  0  0  0  0  0  0  0999 V3000
M  V30 BEGIN CTAB
M  V30 COUNTS 145 149 0 0 0
M  V30 BEGIN ATOM
M  V30 1 O 11.0154 -1.94862 -0.0563543 0
M  V30 2 C 11.8774 -1.06728 0.238387 0
M  V30 3 O 13.1046 -1.52661 0.662061 0
M  V30 4 C 13.4453 -2.86928 0.793579 0
M  V30 5 C 14.8948 -2.95512 1.24329 0
M  V30 6 C 13.3088 -3.67565 -0.477922 0
M  V30 7 C 12.6428 -3.56389 1.89614 0
M  V30 8 N 11.5708 0.310118 0.126432 0
M  V30 9 C 10.3131 0.78445 -0.315588 0
M  V30 10 N 10.0772 2.0377 -0.39292 0
M  V30 11 C 11.1358 2.95054 -0.0165786 0
M  V30 12 O 11.9312 3.27303 -0.921821 0
M  V30 13 O 11.2855 3.44856 1.25145 0
M  V30 14 C 12.3358 4.33043 1.61743 0
M  V30 15 C 13.67 3.64037 1.38851 0
M  V30 16 C 12.2802 5.64864 0.87353 0
M  V30 17 C 12.1998 4.64492 3.08138 0
M  V30 18 N 9.30227 -0.150367 -0.735108 0
M  V30 19 C 8.90169 -0.245698 -2.09798 0
M  V30 20 C 8.03532 0.820623 -2.63325 0
M  V30 21 C 6.63585 0.868142 -1.99431 0
M  V30 22 C 5.98548 -0.441066 -2.25465 0 CFG=1
M  V30 23 C 4.64778 -0.709576 -1.81522 0
M  V30 24 O 4.01434 -1.60585 -2.50242 0
M  V30 25 N 3.91588 -0.146255 -0.746163 0
M  V30 26 C 2.59031 -0.568292 -0.425925 0
M  V30 27 C 2.29892 -1.92383 -0.415342 0
M  V30 28 C 1.05142 -2.43822 -0.154024 0
M  V30 29 C -0.0128228 -1.56717 0.122483 0
M  V30 30 C 0.251134 -0.229081 0.116637 0
M  V30 31 C 1.53804 0.266412 -0.153245 0
M  V30 32 O -0.814455 0.630851 0.382343 0
M  V30 33 C -2.10329 0.185679 0.647182 0
M  V30 34 C -2.35582 -1.16259 0.657734 0
M  V30 35 C -1.32914 -2.18585 0.417848 0
M  V30 36 O -1.74313 -3.00636 -0.651115 0
M  V30 37 C -1.8422 -4.32725 -0.264052 0
M  V30 38 O -2.17372 -5.27734 -1.03791 0
M  V30 39 C -1.5022 -4.38029 1.14631 0
M  V30 40 C -1.20939 -3.11833 1.57537 0
M  V30 41 C -0.856655 -2.90809 2.9058 0
M  V30 42 C -0.814463 -3.97153 3.74763 0
M  V30 43 C -1.11187 -5.25961 3.31335 0
M  V30 44 C -1.46202 -5.47289 1.9936 0
M  V30 45 C -3.67637 -1.54965 0.923669 0
M  V30 46 C -4.67402 -0.64753 1.16145 0
M  V30 47 C -4.41587 0.719667 1.14842 0
M  V30 48 C -3.12932 1.11935 0.892191 0
M  V30 49 N -5.46222 1.65416 1.36716 0
M  V30 50 C -5.93543 2.10735 2.61032 0
M  V30 51 O -5.42041 1.69151 3.65835 0
M  V30 52 C -7.03909 3.05827 2.6315 0 CFG=2
M  V30 53 C -8.37619 2.47487 3.10826 0
M  V30 54 C -8.74994 1.29866 2.2909 0
M  V30 55 C -10.1229 0.72302 2.45797 0
M  V30 56 N -10.1731 -0.517462 1.66689 0
M  V30 57 C -9.92773 -0.47669 0.280921 0
M  V30 58 N -8.66966 -0.723357 -0.0729311 0
M  V30 59 C -8.31217 -0.708511 -1.42115 0
M  V30 60 O -8.15514 -1.80431 -2.06865 0
M  V30 61 O -8.09437 0.457122 -2.17372 0
M  V30 62 C -7.7232 0.356515 -3.53524 0
M  V30 63 C -6.45131 -0.482219 -3.66344 0
M  V30 64 C -8.78011 -0.178439 -4.43583 0
M  V30 65 C -7.4135 1.78621 -4.01442 0
M  V30 66 N -10.8651 -0.191818 -0.700786 0
M  V30 67 C -12.2309 0.0866009 -0.58244 0
M  V30 68 O -12.794 0.101287 0.53368 0
M  V30 69 O -13.0493 0.363277 -1.67627 0
M  V30 70 C -14.4202 0.653948 -1.60192 0
M  V30 71 C -14.6938 1.88824 -0.776524 0
M  V30 72 C -14.9528 0.852651 -3.01893 0
M  V30 73 C -15.1157 -0.554823 -1.00226 0
M  V30 74 N -7.21565 3.63562 1.30989 0
M  V30 75 N 6.20471 -0.947754 -3.59548 0
M  V30 76 H 15.4939 -2.74284 0.303733 0
M  V30 77 H 15.1567 -3.99942 1.57114 0
M  V30 78 H 15.16 -2.20771 2.00462 0
M  V30 79 H 13.8889 -4.62521 -0.333652 0
M  V30 80 H 12.2503 -3.9908 -0.640248 0
M  V30 81 H 13.7543 -3.1731 -1.3363 0
M  V30 82 H 12.8077 -3.09387 2.88477 0
M  V30 83 H 11.5741 -3.58078 1.68037 0
M  V30 84 H 13.0235 -4.62333 1.98425 0
M  V30 85 H 12.3155 0.99473 0.381955 0
M  V30 86 H 14.4787 4.1046 2.02319 0
M  V30 87 H 13.6214 2.5798 1.68435 0
M  V30 88 H 13.9728 3.71076 0.326317 0
M  V30 89 H 13.0489 6.30669 1.35851 0
M  V30 90 H 11.3191 6.15436 0.915667 0
M  V30 91 H 12.6206 5.49028 -0.168165 0
M  V30 92 H 12.772 5.58514 3.32712 0
M  V30 93 H 12.556 3.77905 3.67712 0
M  V30 94 H 11.0938 4.79073 3.29272 0
M  V30 95 H 8.87148 -0.755217 0.000314558 0
M  V30 96 H 8.52198 -1.27754 -2.26281 0
M  V30 97 H 9.84158 -0.234376 -2.75227 0
M  V30 98 H 8.49206 1.80547 -2.42423 0
M  V30 99 H 7.95156 0.752295 -3.72903 0
M  V30 100 H 6.1387 1.74961 -2.41769 0
M  V30 101 H 6.79179 1.01653 -0.919913 0
M  V30 102 H 6.64038 -1.18143 -1.62056 0
M  V30 103 H 4.34557 0.594751 -0.17169 0
M  V30 104 H 3.14314 -2.61437 -0.613659 0
M  V30 105 H 0.863556 -3.50176 -0.156683 0
M  V30 106 H 1.70101 1.33231 -0.143797 0
M  V30 107 H -0.632084 -1.91439 3.2135 0
M  V30 108 H -0.545674 -3.86349 4.78982 0
M  V30 109 H -1.05956 -6.08346 4.03063 0
M  V30 110 H -1.6874 -6.47182 1.67934 0
M  V30 111 H -3.86619 -2.63814 0.925488 0
M  V30 112 H -5.68309 -0.926925 1.36926 0
M  V30 113 H -2.87613 2.18792 0.867426 0
M  V30 114 H -5.89709 2.01143 0.465867 0
M  V30 115 H -6.8619 3.91516 3.33208 0
M  V30 116 H -9.12303 3.27742 2.94752 0
M  V30 117 H -8.30573 2.23905 4.15756 0
M  V30 118 H -8.0395 0.462038 2.5855 0
M  V30 119 H -8.50973 1.4464 1.19024 0
M  V30 120 H -10.3009 0.39891 3.52638 0
M  V30 121 H -10.9511 1.376 2.21983 0
M  V30 122 H -10.3885 -1.41063 2.13347 0
M  V30 123 H -5.98709 -0.623137 -2.64911 0
M  V30 124 H -5.7541 0.0341615 -4.32832 0
M  V30 125 H -6.71121 -1.46354 -4.12328 0
M  V30 126 H -9.51224 0.622662 -4.73531 0
M  V30 127 H -9.36533 -0.949709 -3.90818 0
M  V30 128 H -8.39474 -0.687845 -5.35582 0
M  V30 129 H -8.12434 2.4857 -3.56256 0
M  V30 130 H -6.3878 2.03326 -3.62016 0
M  V30 131 H -7.33994 1.83839 -5.11369 0
M  V30 132 H -10.497 -0.172118 -1.72759 0
M  V30 133 H -15.1844 1.68056 0.178384 0
M  V30 134 H -15.2133 2.65614 -1.38098 0
M  V30 135 H -13.6836 2.31601 -0.522707 0
M  V30 136 H -14.1887 1.30454 -3.68453 0
M  V30 137 H -15.2088 -0.141083 -3.44442 0
M  V30 138 H -15.8917 1.47835 -2.99349 0
M  V30 139 H -15.4195 -0.264516 0.0286162 0
M  V30 140 H -15.9755 -0.839943 -1.6324 0
M  V30 141 H -14.4111 -1.3882 -0.888504 0
M  V30 142 H -7.13446 4.67195 1.35129 0
M  V30 143 H -8.21436 3.45499 0.988976 0
M  V30 144 H 5.50917 -0.650848 -4.28167 0
M  V30 145 H 6.51571 -1.93084 -3.63761 0
M  V30 END ATOM
M  V30 BEGIN BOND
M  V30 1 2 1 2
M  V30 2 1 2 3
M  V30 3 1 3 4
M  V30 4 1 4 5
M  V30 5 1 4 6
M  V30 6 1 4 7
M  V30 7 1 2 8
M  V30 8 1 8 9
M  V30 9 2 9 10 CFG=2
M  V30 10 1 10 11
M  V30 11 2 11 12
M  V30 12 1 11 13
M  V30 13 1 13 14
M  V30 14 1 14 15
M  V30 15 1 14 16
M  V30 16 1 14 17
M  V30 17 1 9 18
M  V30 18 1 18 19
M  V30 19 1 19 20
M  V30 20 1 20 21
M  V30 21 1 21 22
M  V30 22 1 22 23
M  V30 23 2 23 24
M  V30 24 1 23 25
M  V30 25 1 25 26
M  V30 26 2 26 27
M  V30 27 1 27 28
M  V30 28 2 28 29
M  V30 29 1 29 30
M  V30 30 2 30 31
M  V30 31 1 30 32
M  V30 32 1 32 33
M  V30 33 2 33 34
M  V30 34 1 34 35
M  V30 35 1 35 36
M  V30 36 1 36 37
M  V30 37 2 37 38
M  V30 38 1 37 39
M  V30 39 2 39 40
M  V30 40 1 40 41
M  V30 41 2 41 42
M  V30 42 1 42 43
M  V30 43 2 43 44
M  V30 44 1 34 45
M  V30 45 2 45 46
M  V30 46 1 46 47
M  V30 47 2 47 48
M  V30 48 1 47 49
M  V30 49 1 49 50
M  V30 50 2 50 51
M  V30 51 1 50 52
M  V30 52 1 52 53
M  V30 53 1 53 54
M  V30 54 1 54 55
M  V30 55 1 55 56
M  V30 56 1 56 57
M  V30 57 2 57 58 CFG=2
M  V30 58 1 58 59
M  V30 59 2 59 60
M  V30 60 1 59 61
M  V30 61 1 61 62
M  V30 62 1 62 63
M  V30 63 1 62 64
M  V30 64 1 62 65
M  V30 65 1 57 66
M  V30 66 1 66 67
M  V30 67 2 67 68
M  V30 68 1 67 69
M  V30 69 1 69 70
M  V30 70 1 70 71
M  V30 71 1 70 72
M  V30 72 1 70 73
M  V30 73 1 52 74
M  V30 74 1 22 75
M  V30 75 1 31 26
M  V30 76 1 48 33
M  V30 77 1 35 29
M  V30 78 1 44 39
M  V30 79 1 40 35
M  V30 80 1 5 76
M  V30 81 1 5 77
M  V30 82 1 5 78
M  V30 83 1 6 79
M  V30 84 1 6 80
M  V30 85 1 6 81
M  V30 86 1 7 82
M  V30 87 1 7 83
M  V30 88 1 7 84
M  V30 89 1 8 85
M  V30 90 1 15 86
M  V30 91 1 15 87
M  V30 92 1 15 88
M  V30 93 1 16 89
M  V30 94 1 16 90
M  V30 95 1 16 91
M  V30 96 1 17 92
M  V30 97 1 17 93
M  V30 98 1 17 94
M  V30 99 1 18 95
M  V30 100 1 19 96
M  V30 101 1 19 97
M  V30 102 1 20 98
M  V30 103 1 20 99
M  V30 104 1 21 100
M  V30 105 1 21 101
M  V30 106 1 22 102 CFG=1
M  V30 107 1 25 103
M  V30 108 1 27 104
M  V30 109 1 28 105
M  V30 110 1 31 106
M  V30 111 1 41 107
M  V30 112 1 42 108
M  V30 113 1 43 109
M  V30 114 1 44 110
M  V30 115 1 45 111
M  V30 116 1 46 112
M  V30 117 1 48 113
M  V30 118 1 49 114
M  V30 119 1 52 115 CFG=1
M  V30 120 1 53 116
M  V30 121 1 53 117
M  V30 122 1 54 118
M  V30 123 1 54 119
M  V30 124 1 55 120
M  V30 125 1 55 121
M  V30 126 1 56 122
M  V30 127 1 63 123
M  V30 128 1 63 124
M  V30 129 1 63 125
M  V30 130 1 64 126
M  V30 131 1 64 127
M  V30 132 1 64 128
M  V30 133 1 65 129
M  V30 134 1 65 130
M  V30 135 1 65 131
M  V30 136 1 66 132
M  V30 137 1 71 133
M  V30 138 1 71 134
M  V30 139 1 71 135
M  V30 140 1 72 136
M  V30 141 1 72 137
M  V30 142 1 72 138
M  V30 143 1 73 139
M  V30 144 1 73 140
M  V30 145 1 73 141
M  V30 146 1 74 142
M  V30 147 1 74 143
M  V30 148 1 75 144
M  V30 149 1 75 145
M  V30 END BOND
M  V30 END CTAB
M  END
