
     RDKit          3D

  0  0  0  0  0  0  0  0  0  0999 V3000
M  V30 BEGIN CTAB
M  V30 COUNTS 49 51 0 0 0
M  V30 BEGIN ATOM
M  V30 1 N -4.72514 3.84568 -0.676994 0
M  V30 2 C -5.00908 2.52418 -0.373696 0
M  V30 3 N -6.15807 2.06227 0.224746 0
M  V30 4 C -6.37605 0.791446 0.505553 0
M  V30 5 N -7.39945 0.426189 1.42057 0
M  V30 6 C -5.40909 -0.11763 0.188437 0
M  V30 7 N -5.30208 -1.45027 0.361035 0
M  V30 8 C -4.07256 -1.8441 -0.0830701 0
M  V30 9 N -3.42262 -0.774064 -0.537317 0
M  V30 10 C -2.03302 -0.578522 -0.76687 0 CFG=2
M  V30 11 O -1.23317 -1.3158 -1.5329 0
M  V30 12 C -0.0407731 -1.18483 -1.0273 0 CFG=2
M  V30 13 C 1.13895 -2.03176 -1.36898 0
M  V30 14 O 1.95737 -1.88162 -0.17753 0
M  V30 15 P 3.46477 -1.41262 -0.27226 0
M  V30 16 O 3.79042 -0.439703 1.18134 0
M  V30 17 O 3.55503 -0.345876 -1.44855 0
M  V30 18 O 4.78042 -2.33425 -0.430353 0
M  V30 19 P 6.10164 -1.21467 -0.379607 0
M  V30 20 O 7.51264 -1.96225 0.132059 0
M  V30 21 O 6.25106 -0.63647 -1.75008 0
M  V30 22 O 5.77525 0.0458495 0.687443 0
M  V30 23 P 6.4406 1.51742 0.238297 0
M  V30 24 O 6.35547 1.75945 -1.42919 0
M  V30 25 O 5.59877 2.80161 0.95658 0
M  V30 26 O 7.89537 1.5614 0.700263 0
M  V30 27 C -0.0877716 -0.898779 0.471063 0 CFG=1
M  V30 28 O 0.235414 0.445074 0.760394 0
M  V30 29 C -1.52639 -1.01937 0.71337 0 CFG=1
M  V30 30 O -2.09834 -0.0378662 1.55076 0
M  V30 31 C -4.22031 0.306443 -0.407084 0
M  V30 32 N -4.04017 1.60848 -0.685094 0
M  V30 33 H -5.06934 4.22602 -1.60091 0
M  V30 34 H -4.23331 4.51644 -0.0884599 0
M  V30 35 H -8.35177 0.166454 1.347 0
M  V30 36 H -7.051 0.430251 2.51009 0
M  V30 37 H -3.6502 -2.83728 -0.0962137 0
M  V30 38 H -1.71301 0.487978 -0.785923 0
M  V30 39 H 0.348458 -0.119965 -1.45518 0
M  V30 40 H 0.850124 -3.07773 -1.43142 0
M  V30 41 H 1.69441 -1.72337 -2.24949 0
M  V30 42 H 3.1244 0.322039 0.968459 0
M  V30 43 H 7.3706 -2.93093 0.135536 0
M  V30 44 H 7.26811 1.85085 -1.78247 0
M  V30 45 H 5.54761 3.59391 0.338411 0
M  V30 46 H 0.52853 -1.58903 1.10526 0
M  V30 47 H 0.189982 1.02273 0.0192851 0
M  V30 48 H -1.94451 -2.04345 0.817642 0
M  V30 49 H -2.60817 -0.509949 2.20914 0
M  V30 END ATOM
M  V30 BEGIN BOND
M  V30 1 1 1 2
M  V30 2 2 2 3
M  V30 3 1 3 4
M  V30 4 1 4 5
M  V30 5 2 4 6
M  V30 6 1 6 7
M  V30 7 2 7 8
M  V30 8 1 8 9
M  V30 9 1 9 10
M  V30 10 1 10 11
M  V30 11 1 11 12
M  V30 12 1 12 13
M  V30 13 1 13 14
M  V30 14 1 14 15
M  V30 15 1 15 16
M  V30 16 2 15 17
M  V30 17 1 15 18
M  V30 18 1 18 19
M  V30 19 1 19 20
M  V30 20 2 19 21
M  V30 21 1 19 22
M  V30 22 1 22 23
M  V30 23 1 23 24
M  V30 24 1 23 25
M  V30 25 2 23 26
M  V30 26 1 12 27
M  V30 27 1 27 28
M  V30 28 1 27 29
M  V30 29 1 29 30
M  V30 30 1 9 31
M  V30 31 2 31 32
M  V30 32 1 32 2
M  V30 33 1 31 6
M  V30 34 1 29 10
M  V30 35 1 1 33
M  V30 36 1 1 34
M  V30 37 1 5 35
M  V30 38 1 5 36
M  V30 39 1 8 37
M  V30 40 1 10 38 CFG=3
M  V30 41 1 12 39 CFG=3
M  V30 42 1 13 40
M  V30 43 1 13 41
M  V30 44 1 16 42
M  V30 45 1 20 43
M  V30 46 1 24 44
M  V30 47 1 25 45
M  V30 48 1 27 46 CFG=1
M  V30 49 1 28 47
M  V30 50 1 29 48 CFG=1
M  V30 51 1 30 49
M  V30 END BOND
M  V30 END CTAB
M  END
