
     RDKit          3D

  0  0  0  0  0  0  0  0  0  0999 V3000
M  V30 BEGIN CTAB
M  V30 COUNTS 31 32 0 0 0
M  V30 BEGIN ATOM
M  V30 1 C -6.22204 -0.542069 0.150282 0
M  V30 2 O -5.34142 -0.951817 -0.879496 0
M  V30 3 C -3.9708 -0.853809 -0.703851 0
M  V30 4 C -3.40418 -0.366088 0.449737 0
M  V30 5 C -2.02753 -0.285111 0.583951 0
M  V30 6 C -1.19526 -0.69184 -0.436383 0
M  V30 7 C -1.76007 -1.18258 -1.59734 0
M  V30 8 C -3.14051 -1.266 -1.73729 0
M  V30 9 N 0.224429 -0.629176 -0.34837 0
M  V30 10 N 0.880193 0.395358 -0.0825613 0
M  V30 11 C 2.29873 0.450758 0.00375089 0
M  V30 12 C 3.11273 -0.341373 -0.77626 0
M  V30 13 C 4.48039 -0.264009 -0.668935 0
M  V30 14 C 5.03266 0.626761 0.239788 0
M  V30 15 N 6.43955 0.720827 0.364773 0
M  V30 16 N 4.20041 1.37776 0.977992 0
M  V30 17 C 2.86072 1.33579 0.906912 0
M  V30 18 N 2.0399 2.17307 1.73224 0
M  V30 19 H -7.24679 -0.362185 -0.220105 0
M  V30 20 H -5.86022 0.457056 0.518592 0
M  V30 21 H -6.21746 -1.20471 1.01926 0
M  V30 22 H -4.03054 -0.0369028 1.27344 0
M  V30 23 H -1.58103 0.0999291 1.49471 0
M  V30 24 H -1.17908 -1.52268 -2.44539 0
M  V30 25 H -3.58197 -1.64764 -2.64006 0
M  V30 26 H 2.65253 -1.03479 -1.48431 0
M  V30 27 H 5.1356 -0.886303 -1.28136 0
M  V30 28 H 6.9431 1.58618 0.108678 0
M  V30 29 H 6.96444 -0.0999892 0.720995 0
M  V30 30 H 2.01218 3.17905 1.54524 0
M  V30 31 H 1.48133 1.76653 2.50844 0
M  V30 END ATOM
M  V30 BEGIN BOND
M  V30 1 1 1 2
M  V30 2 1 2 3
M  V30 3 2 3 4
M  V30 4 1 4 5
M  V30 5 2 5 6
M  V30 6 1 6 7
M  V30 7 2 7 8
M  V30 8 1 6 9
M  V30 9 2 9 10
M  V30 10 1 10 11
M  V30 11 2 11 12
M  V30 12 1 12 13
M  V30 13 2 13 14
M  V30 14 1 14 15
M  V30 15 1 14 16
M  V30 16 2 16 17
M  V30 17 1 17 18
M  V30 18 1 8 3
M  V30 19 1 17 11
M  V30 20 1 1 19
M  V30 21 1 1 20
M  V30 22 1 1 21
M  V30 23 1 4 22
M  V30 24 1 5 23
M  V30 25 1 7 24
M  V30 26 1 8 25
M  V30 27 1 12 26
M  V30 28 1 13 27
M  V30 29 1 15 28
M  V30 30 1 15 29
M  V30 31 1 18 30
M  V30 32 1 18 31
M  V30 END BOND
M  V30 END CTAB
M  END
