
     RDKit          3D

  0  0  0  0  0  0  0  0  0  0999 V3000
M  V30 BEGIN CTAB
M  V30 COUNTS 29 30 0 0 0
M  V30 BEGIN ATOM
M  V30 1 N -3.41733 1.56568 0.457073 0
M  V30 2 C -2.84931 0.282319 0.330005 0
M  V30 3 C -1.6081 0.228868 -0.311174 0
M  V30 4 N -0.979486 1.40051 -0.797887 0
M  V30 5 C -0.985241 -0.982275 -0.476287 0
M  V30 6 C -1.62349 -2.1364 0.00949566 0
M  V30 7 C -2.83577 -2.09294 0.636819 0
M  V30 8 C -3.44223 -0.867458 0.791612 0
M  V30 9 S 0.5508 -1.10795 -1.25727 0
M  V30 10 O 0.498026 -0.600511 -2.68492 0
M  V30 11 O 0.936759 -2.56625 -1.36227 0
M  V30 12 C 1.83479 -0.231212 -0.467981 0
M  V30 13 C 2.28758 0.998697 -0.880031 0
M  V30 14 C 3.28978 1.69916 -0.254139 0
M  V30 15 C 3.85511 1.10622 0.849663 0
M  V30 16 C 3.42632 -0.127663 1.29168 0
M  V30 17 C 2.41985 -0.802458 0.641731 0
M  V30 18 H -3.52243 1.9844 1.38869 0
M  V30 19 H -3.72322 2.07603 -0.379946 0
M  V30 20 H -0.593248 2.07171 -0.105205 0
M  V30 21 H -0.885683 1.62137 -1.80808 0
M  V30 22 H -1.13392 -3.08913 -0.120278 0
M  V30 23 H -3.27604 -3.02133 0.989402 0
M  V30 24 H -4.38453 -0.819427 1.27741 0
M  V30 25 H 1.84753 1.47366 -1.76844 0
M  V30 26 H 3.64494 2.6612 -0.574698 0
M  V30 27 H 4.64294 1.6038 1.38201 0
M  V30 28 H 3.91462 -0.554323 2.17981 0
M  V30 29 H 2.11099 -1.77431 1.02319 0
M  V30 END ATOM
M  V30 BEGIN BOND
M  V30 1 1 1 2
M  V30 2 2 2 3
M  V30 3 1 3 4
M  V30 4 1 3 5
M  V30 5 2 5 6
M  V30 6 1 6 7
M  V30 7 2 7 8
M  V30 8 1 5 9
M  V30 9 2 9 10
M  V30 10 2 9 11
M  V30 11 1 9 12
M  V30 12 2 12 13
M  V30 13 1 13 14
M  V30 14 2 14 15
M  V30 15 1 15 16
M  V30 16 2 16 17
M  V30 17 1 8 2
M  V30 18 1 17 12
M  V30 19 1 1 18
M  V30 20 1 1 19
M  V30 21 1 4 20
M  V30 22 1 4 21
M  V30 23 1 6 22
M  V30 24 1 7 23
M  V30 25 1 8 24
M  V30 26 1 13 25
M  V30 27 1 14 26
M  V30 28 1 15 27
M  V30 29 1 16 28
M  V30 30 1 17 29
M  V30 END BOND
M  V30 END CTAB
M  END
