
     RDKit          3D

  0  0  0  0  0  0  0  0  0  0999 V3000
M  V30 BEGIN CTAB
M  V30 COUNTS 41 44 0 0 0
M  V30 BEGIN ATOM
M  V30 1 N -5.60512 1.10858 -0.482204 0
M  V30 2 C -4.45959 1.18939 -0.639876 0
M  V30 3 C -3.02084 1.30754 -0.86036 0
M  V30 4 C -2.58527 2.25972 -1.74803 0
M  V30 5 N -3.46574 3.11907 -2.44699 0
M  V30 6 N -1.26245 2.33476 -1.92124 0
M  V30 7 C -0.388092 1.51276 -1.25486 0
M  V30 8 C -0.786164 0.549331 -0.359872 0
M  V30 9 C -2.17419 0.485987 -0.192402 0
M  V30 10 C -2.78715 -0.476624 0.715794 0
M  V30 11 C -3.11967 -0.199705 2.00046 0
M  V30 12 C -3.71966 -1.167 2.77365 0
M  V30 13 C -3.97928 -2.3992 2.25154 0
M  V30 14 C -3.65216 -2.7064 0.951141 0
M  V30 15 C -3.05351 -1.72829 0.193056 0
M  V30 16 C 0.170331 -0.181955 0.221172 0
M  V30 17 N -0.0445698 -1.24445 1.19747 0
M  V30 18 C 1.47384 0.089671 -0.125041 0
M  V30 19 S 1.31078 1.35553 -1.24771 0
M  V30 20 C 2.69998 -0.525186 0.367066 0
M  V30 21 O 2.61698 -1.43275 1.2675 0
M  V30 22 C 4.00674 -0.18366 -0.0849051 0
M  V30 23 C 5.11276 -0.251882 0.783342 0
M  V30 24 C 6.37481 0.0537874 0.326449 0
M  V30 25 C 6.61368 0.43177 -0.968916 0
M  V30 26 C 5.54661 0.501969 -1.82454 0
M  V30 27 C 4.25492 0.192427 -1.37112 0
M  V30 28 Br 8.35905 0.860617 -1.62041 0
M  V30 29 H -3.48502 2.99924 -3.50157 0
M  V30 30 H -4.07257 3.83302 -2.01691 0
M  V30 31 H -2.90552 0.785812 2.39828 0
M  V30 32 H -3.9959 -0.962548 3.81368 0
M  V30 33 H -4.45321 -3.1985 2.82537 0
M  V30 34 H -3.85093 -3.69208 0.506723 0
M  V30 35 H -2.78742 -1.96258 -0.848018 0
M  V30 36 H -0.125321 -0.922833 2.17287 0
M  V30 37 H -0.0952777 -2.23489 0.897317 0
M  V30 38 H 4.93271 -0.553498 1.82325 0
M  V30 39 H 7.21897 -0.0027924 1.0063 0
M  V30 40 H 5.71085 0.795359 -2.84183 0
M  V30 41 H 3.47162 0.260494 -2.13564 0
M  V30 END ATOM
M  V30 BEGIN BOND
M  V30 1 3 1 2
M  V30 2 1 2 3
M  V30 3 2 3 4
M  V30 4 1 4 5
M  V30 5 1 4 6
M  V30 6 2 6 7
M  V30 7 1 7 8
M  V30 8 2 8 9
M  V30 9 1 9 10
M  V30 10 2 10 11
M  V30 11 1 11 12
M  V30 12 2 12 13
M  V30 13 1 13 14
M  V30 14 2 14 15
M  V30 15 1 8 16
M  V30 16 1 16 17
M  V30 17 2 16 18
M  V30 18 1 18 19
M  V30 19 1 18 20
M  V30 20 2 20 21
M  V30 21 1 20 22
M  V30 22 2 22 23
M  V30 23 1 23 24
M  V30 24 2 24 25
M  V30 25 1 25 26
M  V30 26 2 26 27
M  V30 27 1 25 28
M  V30 28 1 9 3
M  V30 29 1 15 10
M  V30 30 1 27 22
M  V30 31 1 19 7
M  V30 32 1 5 29
M  V30 33 1 5 30
M  V30 34 1 11 31
M  V30 35 1 12 32
M  V30 36 1 13 33
M  V30 37 1 14 34
M  V30 38 1 15 35
M  V30 39 1 17 36
M  V30 40 1 17 37
M  V30 41 1 23 38
M  V30 42 1 24 39
M  V30 43 1 26 40
M  V30 44 1 27 41
M  V30 END BOND
M  V30 END CTAB
M  END
