
     RDKit          3D

  0  0  0  0  0  0  0  0  0  0999 V3000
M  V30 BEGIN CTAB
M  V30 COUNTS 46 47 0 0 0
M  V30 BEGIN ATOM
M  V30 1 O -0.402383 -0.55389 1.22821 0
M  V30 2 C -0.271756 -0.166404 0.0545414 0
M  V30 3 N -1.32867 0.507 -0.593641 0
M  V30 4 C -2.57817 0.819134 -0.074823 0
M  V30 5 C -2.74531 1.96926 0.667044 0
M  V30 6 C -1.55485 2.82591 0.887634 0
M  V30 7 C -3.96348 2.34728 1.1863 0
M  V30 8 C -5.06701 1.55509 0.964119 0
M  V30 9 C -4.933 0.399801 0.226856 0
M  V30 10 C -3.67602 0.0495195 -0.284413 0
M  V30 11 C -3.61462 -1.19904 -1.04454 0
M  V30 12 C -5.03081 -1.63369 -1.50447 0
M  V30 13 C -3.23825 -2.31599 -0.0398207 0
M  V30 14 C 1.00453 -0.43704 -0.628402 0
M  V30 15 S 1.8347 -1.80906 0.198757 0
M  V30 16 C 3.45559 -2.15869 -0.513602 0
M  V30 17 C 4.46205 -1.12573 -0.207177 0
M  V30 18 N 4.55948 4.56919e-05 -0.926277 0
M  V30 19 C 5.47014 0.940666 -0.672596 0
M  V30 20 N 5.53534 2.1269 -1.43971 0
M  V30 21 N 6.34367 0.775184 0.347462 0
M  V30 22 C 6.27143 -0.353982 1.09455 0
M  V30 23 N 5.34787 -1.26799 0.809111 0
M  V30 24 N 7.21745 -0.482879 2.15461 0
M  V30 25 H -1.12386 0.796337 -1.61158 0
M  V30 26 H -1.10301 2.63964 1.87711 0
M  V30 27 H -0.840081 2.78932 0.0383507 0
M  V30 28 H -1.85505 3.91471 0.924191 0
M  V30 29 H -4.04188 3.25507 1.7545 0
M  V30 30 H -6.03509 1.8506 1.38047 0
M  V30 31 H -5.81651 -0.198147 0.0712982 0
M  V30 32 H -2.99528 -1.20878 -1.934 0
M  V30 33 H -5.59655 -2.07774 -0.683592 0
M  V30 34 H -5.51771 -0.817868 -2.04412 0
M  V30 35 H -4.83302 -2.44904 -2.24876 0
M  V30 36 H -3.46057 -1.97733 1.00994 0
M  V30 37 H -2.18548 -2.61121 -0.13877 0
M  V30 38 H -3.85168 -3.22369 -0.195035 0
M  V30 39 H 0.917034 -0.541734 -1.71799 0
M  V30 40 H 1.64197 0.485538 -0.473042 0
M  V30 41 H 3.41649 -2.39973 -1.58425 0
M  V30 42 H 3.81988 -3.11542 -0.0226382 0
M  V30 43 H 4.96432 2.98229 -1.22355 0
M  V30 44 H 6.17778 2.16115 -2.25601 0
M  V30 45 H 6.96128 -0.587614 3.16273 0
M  V30 46 H 8.2591 -0.477749 1.9537 0
M  V30 END ATOM
M  V30 BEGIN BOND
M  V30 1 2 1 2
M  V30 2 1 2 3
M  V30 3 1 3 4
M  V30 4 2 4 5
M  V30 5 1 5 6
M  V30 6 1 5 7
M  V30 7 2 7 8
M  V30 8 1 8 9
M  V30 9 2 9 10
M  V30 10 1 10 11
M  V30 11 1 11 12
M  V30 12 1 11 13
M  V30 13 1 2 14
M  V30 14 1 14 15
M  V30 15 1 15 16
M  V30 16 1 16 17
M  V30 17 2 17 18
M  V30 18 1 18 19
M  V30 19 1 19 20
M  V30 20 2 19 21
M  V30 21 1 21 22
M  V30 22 2 22 23
M  V30 23 1 22 24
M  V30 24 1 10 4
M  V30 25 1 23 17
M  V30 26 1 3 25
M  V30 27 1 6 26
M  V30 28 1 6 27
M  V30 29 1 6 28
M  V30 30 1 7 29
M  V30 31 1 8 30
M  V30 32 1 9 31
M  V30 33 1 11 32
M  V30 34 1 12 33
M  V30 35 1 12 34
M  V30 36 1 12 35
M  V30 37 1 13 36
M  V30 38 1 13 37
M  V30 39 1 13 38
M  V30 40 1 14 39
M  V30 41 1 14 40
M  V30 42 1 16 41
M  V30 43 1 16 42
M  V30 44 1 20 43
M  V30 45 1 20 44
M  V30 46 1 24 45
M  V30 47 1 24 46
M  V30 END BOND
M  V30 END CTAB
M  END
