
     RDKit          3D

  0  0  0  0  0  0  0  0  0  0999 V3000
M  V30 BEGIN CTAB
M  V30 COUNTS 40 41 0 0 0
M  V30 BEGIN ATOM
M  V30 1 N 0.397157 -2.51068 -3.84812 0
M  V30 2 C 0.0808922 -1.62935 -3.1726 0
M  V30 3 C -0.320391 -0.531729 -2.30314 0
M  V30 4 C -1.51785 -0.0126413 -2.35092 0
M  V30 5 N -1.90682 1.05056 -1.50885 0
M  V30 6 C -2.7685 0.709817 -0.400758 0
M  V30 7 C -3.19341 -0.578817 -0.169136 0
M  V30 8 C -4.01736 -0.907064 0.889827 0
M  V30 9 C -4.43655 -2.32257 1.07784 0
M  V30 10 C -4.41386 0.111862 1.73004 0
M  V30 11 C -4.01603 1.41883 1.5414 0
M  V30 12 C -3.18818 1.69994 0.463758 0
M  V30 13 N -2.75908 3.0371 0.239902 0
M  V30 14 C 0.637249 0.0386999 -1.32012 0
M  V30 15 O 0.291692 0.974545 -0.580343 0
M  V30 16 N 1.92053 -0.544839 -1.29505 0
M  V30 17 C 3.01777 -0.21038 -0.474423 0
M  V30 18 C 4.23087 -0.910492 -0.606708 0
M  V30 19 C 5.33796 -0.649051 0.148174 0
M  V30 20 C 5.31371 0.34249 1.10148 0
M  V30 21 C 4.14458 1.04804 1.25894 0
M  V30 22 C 3.0141 0.767415 0.474843 0
M  V30 23 Cl 4.09006 2.31203 2.46353 0
M  V30 24 N 6.47183 0.627718 1.90256 0
M  V30 25 H -2.23595 -0.427763 -3.07595 0
M  V30 26 H -1.61832 2.05036 -1.6396 0
M  V30 27 H -2.86792 -1.36355 -0.844365 0
M  V30 28 H -5.40492 -2.55102 0.612395 0
M  V30 29 H -3.6725 -3.02294 0.669048 0
M  V30 30 H -4.53241 -2.58691 2.15549 0
M  V30 31 H -5.06362 -0.153083 2.56341 0
M  V30 32 H -4.34673 2.19309 2.22098 0
M  V30 33 H -2.34228 3.62296 1.00669 0
M  V30 34 H -2.8349 3.50742 -0.695941 0
M  V30 35 H 2.07852 -1.35401 -1.99886 0
M  V30 36 H 4.29227 -1.6929 -1.33984 0
M  V30 37 H 6.23565 -1.21936 -0.000512905 0
M  V30 38 H 2.14705 1.37257 0.671786 0
M  V30 39 H 7.36244 0.982792 1.50104 0
M  V30 40 H 6.39325 0.463794 2.93209 0
M  V30 END ATOM
M  V30 BEGIN BOND
M  V30 1 3 1 2
M  V30 2 1 2 3
M  V30 3 2 3 4
M  V30 4 1 4 5
M  V30 5 1 5 6
M  V30 6 2 6 7
M  V30 7 1 7 8
M  V30 8 1 8 9
M  V30 9 2 8 10
M  V30 10 1 10 11
M  V30 11 2 11 12
M  V30 12 1 12 13
M  V30 13 1 3 14
M  V30 14 2 14 15
M  V30 15 1 14 16
M  V30 16 1 16 17
M  V30 17 2 17 18
M  V30 18 1 18 19
M  V30 19 2 19 20
M  V30 20 1 20 21
M  V30 21 2 21 22
M  V30 22 1 21 23
M  V30 23 1 20 24
M  V30 24 1 12 6
M  V30 25 1 22 17
M  V30 26 1 4 25
M  V30 27 1 5 26
M  V30 28 1 7 27
M  V30 29 1 9 28
M  V30 30 1 9 29
M  V30 31 1 9 30
M  V30 32 1 10 31
M  V30 33 1 11 32
M  V30 34 1 13 33
M  V30 35 1 13 34
M  V30 36 1 16 35
M  V30 37 1 18 36
M  V30 38 1 19 37
M  V30 39 1 22 38
M  V30 40 1 24 39
M  V30 41 1 24 40
M  V30 END BOND
M  V30 END CTAB
M  END
