
     RDKit          3D

  0  0  0  0  0  0  0  0  0  0999 V3000
M  V30 BEGIN CTAB
M  V30 COUNTS 49 50 0 0 0
M  V30 BEGIN ATOM
M  V30 1 C -4.66177 0.917686 1.2522 0
M  V30 2 N -3.92809 -0.296245 1.19055 0
M  V30 3 C -2.87986 -0.374541 0.233005 0 CFG=2
M  V30 4 C -1.81012 0.651538 0.530947 0 CFG=1
M  V30 5 O -1.51692 0.603122 1.85829 0
M  V30 6 C -0.676276 0.616404 -0.424772 0 CFG=1
M  V30 7 O 0.224199 -0.433438 -0.274813 0
M  V30 8 C 1.51579 -0.0565649 -0.0623235 0 CFG=1
M  V30 9 C 2.26717 -0.67981 1.04551 0 CFG=2
M  V30 10 N 1.59411 -0.944277 2.25982 0
M  V30 11 C 3.4587 0.255761 1.32274 0
M  V30 12 C 4.35917 0.156615 0.148029 0 CFG=2
M  V30 13 N 5.33612 1.25103 0.247772 0
M  V30 14 C 3.7431 0.191636 -1.18263 0 CFG=1
M  V30 15 O 4.56443 -0.508801 -2.0811 0
M  V30 16 C 2.36599 -0.34681 -1.31485 0 CFG=2
M  V30 17 O 1.78593 0.205231 -2.44847 0
M  V30 18 O -1.16552 0.686265 -1.7322 0
M  V30 19 C -2.02039 -0.36052 -2.03613 0
M  V30 20 C -3.29366 -0.35279 -1.19932 0 CFG=1
M  V30 21 C -3.9973 -1.68127 -1.48257 0
M  V30 22 O -4.1471 0.656943 -1.56053 0
M  V30 23 H -5.71221 0.685969 0.906124 0
M  V30 24 H -4.79638 1.31529 2.2832 0
M  V30 25 H -4.32362 1.7448 0.634055 0
M  V30 26 H -3.65029 -0.600895 2.1263 0
M  V30 27 H -2.37135 -1.37222 0.398297 0
M  V30 28 H -2.31978 1.65087 0.364751 0
M  V30 29 H -1.1229 1.44869 2.19074 0
M  V30 30 H -0.0853666 1.54944 -0.303768 0
M  V30 31 H 1.52708 1.07242 -0.0166056 0
M  V30 32 H 2.778 -1.62227 0.674538 0
M  V30 33 H 0.901019 -1.71961 2.12709 0
M  V30 34 H 2.27359 -1.25691 2.96627 0
M  V30 35 H 3.98457 -0.0544512 2.23257 0
M  V30 36 H 3.0034 1.27334 1.42156 0
M  V30 37 H 4.97819 -0.777359 0.274798 0
M  V30 38 H 5.20064 1.81234 1.11486 0
M  V30 39 H 5.25618 1.88607 -0.581149 0
M  V30 40 H 3.75643 1.25633 -1.55935 0
M  V30 41 H 4.86293 -1.34385 -1.64546 0
M  V30 42 H 2.37994 -1.44803 -1.45206 0
M  V30 43 H 2.46425 0.408747 -3.11507 0
M  V30 44 H -2.35742 -0.189487 -3.08796 0
M  V30 45 H -1.57204 -1.3511 -1.97815 0
M  V30 46 H -5.07673 -1.61547 -1.195 0
M  V30 47 H -3.5097 -2.4518 -0.855894 0
M  V30 48 H -3.85757 -1.97755 -2.54251 0
M  V30 49 H -3.72859 1.51953 -1.75402 0
M  V30 END ATOM
M  V30 BEGIN BOND
M  V30 1 1 1 2
M  V30 2 1 2 3
M  V30 3 1 3 4
M  V30 4 1 4 5
M  V30 5 1 4 6
M  V30 6 1 6 7
M  V30 7 1 7 8
M  V30 8 1 8 9
M  V30 9 1 9 10
M  V30 10 1 9 11
M  V30 11 1 11 12
M  V30 12 1 12 13
M  V30 13 1 12 14
M  V30 14 1 14 15
M  V30 15 1 14 16
M  V30 16 1 16 17
M  V30 17 1 6 18
M  V30 18 1 18 19
M  V30 19 1 19 20
M  V30 20 1 20 21
M  V30 21 1 20 22 CFG=1
M  V30 22 1 20 3
M  V30 23 1 16 8
M  V30 24 1 1 23
M  V30 25 1 1 24
M  V30 26 1 1 25
M  V30 27 1 2 26
M  V30 28 1 3 27 CFG=1
M  V30 29 1 4 28 CFG=1
M  V30 30 1 5 29
M  V30 31 1 6 30 CFG=1
M  V30 32 1 8 31 CFG=1
M  V30 33 1 9 32 CFG=3
M  V30 34 1 10 33
M  V30 35 1 10 34
M  V30 36 1 11 35
M  V30 37 1 11 36
M  V30 38 1 12 37 CFG=1
M  V30 39 1 13 38
M  V30 40 1 13 39
M  V30 41 1 14 40 CFG=3
M  V30 42 1 15 41
M  V30 43 1 16 42 CFG=3
M  V30 44 1 17 43
M  V30 45 1 19 44
M  V30 46 1 19 45
M  V30 47 1 21 46
M  V30 48 1 21 47
M  V30 49 1 21 48
M  V30 50 1 22 49
M  V30 END BOND
M  V30 END CTAB
M  END
