
     RDKit          3D

  0  0  0  0  0  0  0  0  0  0999 V3000
M  V30 BEGIN CTAB
M  V30 COUNTS 34 36 0 0 0
M  V30 BEGIN ATOM
M  V30 1 N 0.680363 -3.53637 -1.03746 0
M  V30 2 C 0.498578 -2.18196 -0.667176 0
M  V30 3 C -0.788308 -1.5997 -0.629898 0
M  V30 4 N -1.82065 -2.50415 -0.958207 0
M  V30 5 C -0.987657 -0.307173 -0.280298 0
M  V30 6 C 0.146385 0.446029 0.0508107 0
M  V30 7 C 1.42062 -0.0584308 0.0350772 0
M  V30 8 C 1.56112 -1.37655 -0.328948 0
M  V30 9 C 2.58225 0.772849 0.389654 0
M  V30 10 C 3.66768 0.159337 0.980054 0
M  V30 11 C 4.79497 0.904095 1.33587 0
M  V30 12 C 4.75492 2.25489 1.0668 0
M  V30 13 N 3.67385 2.8123 0.488763 0
M  V30 14 C 2.58091 2.12458 0.137361 0
M  V30 15 C -2.29175 0.326646 -0.19869 0
M  V30 16 N -2.3748 1.53519 0.459532 0
M  V30 17 C -3.48386 2.24605 0.592813 0
M  V30 18 C -4.68206 1.78849 0.0490986 0
M  V30 19 C -4.67053 0.595318 -0.61837 0
M  V30 20 C -3.46684 -0.108179 -0.725431 0
M  V30 21 H 0.674859 -3.8083 -2.03028 0
M  V30 22 H 0.817853 -4.24338 -0.302018 0
M  V30 23 H -2.4346 -2.89965 -0.229875 0
M  V30 24 H -1.95714 -2.76957 -1.94672 0
M  V30 25 H 0.00580829 1.49464 0.337065 0
M  V30 26 H 2.56851 -1.79844 -0.348531 0
M  V30 27 H 3.7177 -0.898576 1.19909 0
M  V30 28 H 5.63705 0.410274 1.79728 0
M  V30 29 H 5.62436 2.87812 1.33223 0
M  V30 30 H 1.71279 2.55967 -0.324499 0
M  V30 31 H -3.51535 3.19678 1.11995 0
M  V30 32 H -5.57044 2.38949 0.173809 0
M  V30 33 H -5.57336 0.218361 -1.04626 0
M  V30 34 H -3.50325 -1.02269 -1.27416 0
M  V30 END ATOM
M  V30 BEGIN BOND
M  V30 1 1 1 2
M  V30 2 2 2 3
M  V30 3 1 3 4
M  V30 4 1 3 5
M  V30 5 2 5 6
M  V30 6 1 6 7
M  V30 7 2 7 8
M  V30 8 1 7 9
M  V30 9 2 9 10
M  V30 10 1 10 11
M  V30 11 2 11 12
M  V30 12 1 12 13
M  V30 13 2 13 14
M  V30 14 1 5 15
M  V30 15 2 15 16
M  V30 16 1 16 17
M  V30 17 2 17 18
M  V30 18 1 18 19
M  V30 19 2 19 20
M  V30 20 1 8 2
M  V30 21 1 14 9
M  V30 22 1 20 15
M  V30 23 1 1 21
M  V30 24 1 1 22
M  V30 25 1 4 23
M  V30 26 1 4 24
M  V30 27 1 6 25
M  V30 28 1 8 26
M  V30 29 1 10 27
M  V30 30 1 11 28
M  V30 31 1 12 29
M  V30 32 1 14 30
M  V30 33 1 17 31
M  V30 34 1 18 32
M  V30 35 1 19 33
M  V30 36 1 20 34
M  V30 END BOND
M  V30 END CTAB
M  END
