
     RDKit          3D

  0  0  0  0  0  0  0  0  0  0999 V3000
M  V30 BEGIN CTAB
M  V30 COUNTS 22 22 0 0 0
M  V30 BEGIN ATOM
M  V30 1 N 3.20319 0.694998 -0.969321 0
M  V30 2 S 1.8733 -0.451875 -0.787972 0
M  V30 3 O 2.46297 -1.4822 0.135335 0
M  V30 4 O 1.67574 -0.95938 -2.17833 0
M  V30 5 C 0.544291 0.419515 -0.129276 0
M  V30 6 C -0.6387 -0.206855 0.111241 0
M  V30 7 C -1.68464 0.555534 0.655813 0
M  V30 8 C -1.56344 1.89357 0.952175 0
M  V30 9 C -0.365939 2.52926 0.708856 0
M  V30 10 C 0.655307 1.7835 0.176926 0
M  V30 11 S -0.922611 -1.84816 -0.215345 0
M  V30 12 N -2.56458 -2.2546 0.2505 0
M  V30 13 O -0.0136916 -2.85806 0.330258 0
M  V30 14 O -0.926798 -2.03044 -1.73294 0
M  V30 15 H 4.06866 0.165047 -1.19081 0
M  V30 16 H 3.35656 1.20703 -0.083183 0
M  V30 17 H -2.65465 0.107468 0.869758 0
M  V30 18 H -2.38712 2.47158 1.37538 0
M  V30 19 H -0.223612 3.59143 0.928476 0
M  V30 20 H 1.60569 2.28786 -0.0161997 0
M  V30 21 H -2.98657 -2.92976 -0.400343 0
M  V30 22 H -2.51334 -2.68546 1.20901 0
M  V30 END ATOM
M  V30 BEGIN BOND
M  V30 1 1 1 2
M  V30 2 2 2 3
M  V30 3 2 2 4
M  V30 4 1 2 5
M  V30 5 2 5 6
M  V30 6 1 6 7
M  V30 7 2 7 8
M  V30 8 1 8 9
M  V30 9 2 9 10
M  V30 10 1 6 11
M  V30 11 1 11 12
M  V30 12 2 11 13
M  V30 13 2 11 14
M  V30 14 1 10 5
M  V30 15 1 1 15
M  V30 16 1 1 16
M  V30 17 1 7 17
M  V30 18 1 8 18
M  V30 19 1 9 19
M  V30 20 1 10 20
M  V30 21 1 12 21
M  V30 22 1 12 22
M  V30 END BOND
M  V30 END CTAB
M  END
