
     RDKit          3D

  0  0  0  0  0  0  0  0  0  0999 V3000
M  V30 BEGIN CTAB
M  V30 COUNTS 23 24 0 0 0
M  V30 BEGIN ATOM
M  V30 1 C 4.3873 0.015017 -0.173166 0
M  V30 2 C 2.90717 -0.050218 -0.139637 0
M  V30 3 C 2.23589 -1.23316 -0.359596 0
M  V30 4 C 0.847661 -1.18309 -0.305454 0
M  V30 5 C 0.168831 -0.0101305 -0.0448065 0
M  V30 6 N 0.886564 1.09057 0.156911 0
M  V30 7 N 2.2093 1.07633 0.112151 0
M  V30 8 N -1.26012 0.0250262 0.00757927 0
M  V30 9 N -2.12764 -0.874862 -0.378053 0
M  V30 10 C -3.39087 -0.482594 -0.168078 0
M  V30 11 N -3.28265 0.757267 0.390976 0
M  V30 12 C -1.97999 1.05381 0.492116 0
M  V30 13 N -1.52344 2.28991 1.04057 0
M  V30 14 N -4.60593 -1.15494 -0.441728 0
M  V30 15 H 4.82946 -0.801058 -0.790922 0
M  V30 16 H 4.78651 0.00515315 0.869814 0
M  V30 17 H 4.74372 0.979494 -0.61296 0
M  V30 18 H 2.77178 -2.13581 -0.560603 0
M  V30 19 H 0.253561 -2.07471 -0.468451 0
M  V30 20 H -1.81182 3.19638 0.600873 0
M  V30 21 H -0.912964 2.32777 1.86318 0
M  V30 22 H -4.65387 -2.18979 -0.46717 0
M  V30 23 H -5.47845 -0.626369 -0.623542 0
M  V30 END ATOM
M  V30 BEGIN BOND
M  V30 1 1 1 2
M  V30 2 2 2 3
M  V30 3 1 3 4
M  V30 4 2 4 5
M  V30 5 1 5 6
M  V30 6 2 6 7
M  V30 7 1 5 8
M  V30 8 1 8 9
M  V30 9 2 9 10
M  V30 10 1 10 11
M  V30 11 2 11 12
M  V30 12 1 12 13
M  V30 13 1 10 14
M  V30 14 1 7 2
M  V30 15 1 12 8
M  V30 16 1 1 15
M  V30 17 1 1 16
M  V30 18 1 1 17
M  V30 19 1 3 18
M  V30 20 1 4 19
M  V30 21 1 13 20
M  V30 22 1 13 21
M  V30 23 1 14 22
M  V30 24 1 14 23
M  V30 END BOND
M  V30 END CTAB
M  END
