
     RDKit          3D

  0  0  0  0  0  0  0  0  0  0999 V3000
M  V30 BEGIN CTAB
M  V30 COUNTS 39 41 0 0 0
M  V30 BEGIN ATOM
M  V30 1 N -2.59604 -2.49654 0.603828 0
M  V30 2 C -1.3412 -2.04052 0.140731 0
M  V30 3 N -0.187078 -2.57806 0.627854 0
M  V30 4 C 1.03992 -2.19211 0.226154 0
M  V30 5 N 2.21587 -2.81479 0.783038 0
M  V30 6 C 1.13152 -1.21101 -0.718013 0
M  V30 7 C 2.43691 -0.719298 -1.2125 0
M  V30 8 C 3.12617 0.206099 -0.290897 0
M  V30 9 C 4.24196 -0.175444 0.410618 0
M  V30 10 C 4.89485 0.662724 1.2888 0
M  V30 11 C 4.39989 1.9305 1.46124 0
M  V30 12 C 3.27159 2.32763 0.755908 0
M  V30 13 N 2.67399 1.47018 -0.0875256 0
M  V30 14 C -0.0528222 -0.650206 -1.22703 0
M  V30 15 C -1.2991 -1.05092 -0.810958 0
M  V30 16 C -2.50077 -0.419337 -1.38986 0
M  V30 17 C -3.15987 0.569145 -0.524072 0
M  V30 18 C -2.78607 1.91849 -0.49223 0
M  V30 19 C -3.45154 2.79733 0.331722 0
M  V30 20 C -4.48735 2.38257 1.13546 0
M  V30 21 C -4.83134 1.04072 1.07954 0
M  V30 22 N -4.16964 0.211491 0.272428 0
M  V30 23 H -2.91964 -2.2342 1.54295 0
M  V30 24 H -3.17517 -3.09106 -0.00208083 0
M  V30 25 H 2.89423 -3.24379 0.115983 0
M  V30 26 H 2.37899 -2.8338 1.8163 0
M  V30 27 H 3.12298 -1.5811 -1.45854 0
M  V30 28 H 2.24795 -0.247925 -2.20905 0
M  V30 29 H 4.63714 -1.17067 0.262042 0
M  V30 30 H 5.76307 0.357686 1.83312 0
M  V30 31 H 4.8635 2.64188 2.13589 0
M  V30 32 H 2.90426 3.34621 0.917378 0
M  V30 33 H 0.0402186 0.131409 -1.97923 0
M  V30 34 H -3.28427 -1.18756 -1.65076 0
M  V30 35 H -2.27602 0.0971058 -2.35617 0
M  V30 36 H -1.96942 2.19654 -1.13952 0
M  V30 37 H -3.14345 3.85595 0.343064 0
M  V30 38 H -4.99987 3.07104 1.77377 0
M  V30 39 H -5.65435 0.72364 1.72125 0
M  V30 END ATOM
M  V30 BEGIN BOND
M  V30 1 1 1 2
M  V30 2 2 2 3
M  V30 3 1 3 4
M  V30 4 1 4 5
M  V30 5 2 4 6
M  V30 6 1 6 7
M  V30 7 1 7 8
M  V30 8 2 8 9
M  V30 9 1 9 10
M  V30 10 2 10 11
M  V30 11 1 11 12
M  V30 12 2 12 13
M  V30 13 1 6 14
M  V30 14 2 14 15
M  V30 15 1 15 16
M  V30 16 1 16 17
M  V30 17 2 17 18
M  V30 18 1 18 19
M  V30 19 2 19 20
M  V30 20 1 20 21
M  V30 21 2 21 22
M  V30 22 1 15 2
M  V30 23 1 22 17
M  V30 24 1 13 8
M  V30 25 1 1 23
M  V30 26 1 1 24
M  V30 27 1 5 25
M  V30 28 1 5 26
M  V30 29 1 7 27
M  V30 30 1 7 28
M  V30 31 1 9 29
M  V30 32 1 10 30
M  V30 33 1 11 31
M  V30 34 1 12 32
M  V30 35 1 14 33
M  V30 36 1 16 34
M  V30 37 1 16 35
M  V30 38 1 18 36
M  V30 39 1 19 37
M  V30 40 1 20 38
M  V30 41 1 21 39
M  V30 END BOND
M  V30 END CTAB
M  END
