
     RDKit          3D

  0  0  0  0  0  0  0  0  0  0999 V3000
M  V30 BEGIN CTAB
M  V30 COUNTS 43 44 0 0 0
M  V30 BEGIN ATOM
M  V30 1 N -0.29706 4.84637 -1.0955 0
M  V30 2 C 0.423257 3.57368 -1.26497 0
M  V30 3 C -0.296372 2.57327 -0.374628 0
M  V30 4 N 0.280676 1.26751 -0.420948 0
M  V30 5 C 1.57099 1.26242 0.180278 0
M  V30 6 C 2.25548 -0.0359571 0.137401 0
M  V30 7 C 2.06672 -1.0045 -0.829346 0
M  V30 8 C 2.71755 -2.21217 -0.829775 0
M  V30 9 C 3.60642 -2.49717 0.167907 0
M  V30 10 C 3.82869 -1.56712 1.15189 0
M  V30 11 C 3.1552 -0.340634 1.13678 0
M  V30 12 N 4.74979 -1.8597 2.1941 0
M  V30 13 C -0.636278 0.311338 0.11309 0
M  V30 14 C -1.7948 0.104581 -0.797277 0
M  V30 15 C -2.76014 -0.899097 -0.286058 0
M  V30 16 C -2.67104 -2.25636 -0.566433 0
M  V30 17 C -3.60983 -3.13037 -0.0528017 0
M  V30 18 C -4.65475 -2.7149 0.74135 0
M  V30 19 C -4.73034 -1.3497 1.01365 0
M  V30 20 C -3.79139 -0.467792 0.501578 0
M  V30 21 H -0.249431 5.04802 -0.0735712 0
M  V30 22 H 0.340822 5.55914 -1.55107 0
M  V30 23 H 1.44676 3.79739 -0.879233 0
M  V30 24 H 0.391793 3.27907 -2.31701 0
M  V30 25 H -1.35422 2.66119 -0.614063 0
M  V30 26 H -0.131794 2.97867 0.672403 0
M  V30 27 H 1.52805 1.59976 1.25437 0
M  V30 28 H 2.21824 1.97201 -0.414804 0
M  V30 29 H 1.36508 -0.791216 -1.62997 0
M  V30 30 H 2.55465 -2.96286 -1.5997 0
M  V30 31 H 4.15382 -3.43594 0.223701 0
M  V30 32 H 3.38905 0.33134 1.9493 0
M  V30 33 H 4.48226 -1.57395 3.17218 0
M  V30 34 H 5.65431 -2.32635 2.08053 0
M  V30 35 H -0.194628 -0.648771 0.444796 0
M  V30 36 H -1.03329 0.79755 1.06883 0
M  V30 37 H -1.39846 -0.261899 -1.76567 0
M  V30 38 H -2.35052 1.01502 -0.988434 0
M  V30 39 H -1.85 -2.57317 -1.18989 0
M  V30 40 H -3.53873 -4.19442 -0.274026 0
M  V30 41 H -5.36901 -3.4315 1.12511 0
M  V30 42 H -5.54821 -1.01813 1.63691 0
M  V30 43 H -3.91933 0.575328 0.760696 0
M  V30 END ATOM
M  V30 BEGIN BOND
M  V30 1 1 1 2
M  V30 2 1 2 3
M  V30 3 1 3 4
M  V30 4 1 4 5
M  V30 5 1 5 6
M  V30 6 2 6 7
M  V30 7 1 7 8
M  V30 8 2 8 9
M  V30 9 1 9 10
M  V30 10 2 10 11
M  V30 11 1 10 12
M  V30 12 1 4 13
M  V30 13 1 13 14
M  V30 14 1 14 15
M  V30 15 2 15 16
M  V30 16 1 16 17
M  V30 17 2 17 18
M  V30 18 1 18 19
M  V30 19 2 19 20
M  V30 20 1 11 6
M  V30 21 1 20 15
M  V30 22 1 1 21
M  V30 23 1 1 22
M  V30 24 1 2 23
M  V30 25 1 2 24
M  V30 26 1 3 25
M  V30 27 1 3 26
M  V30 28 1 5 27
M  V30 29 1 5 28
M  V30 30 1 7 29
M  V30 31 1 8 30
M  V30 32 1 9 31
M  V30 33 1 11 32
M  V30 34 1 12 33
M  V30 35 1 12 34
M  V30 36 1 13 35
M  V30 37 1 13 36
M  V30 38 1 14 37
M  V30 39 1 14 38
M  V30 40 1 16 39
M  V30 41 1 17 40
M  V30 42 1 18 41
M  V30 43 1 19 42
M  V30 44 1 20 43
M  V30 END BOND
M  V30 END CTAB
M  END
