
     RDKit          3D

  0  0  0  0  0  0  0  0  0  0999 V3000
M  V30 BEGIN CTAB
M  V30 COUNTS 45 47 0 0 0
M  V30 BEGIN ATOM
M  V30 1 N 6.79479 -1.86274 0.0777578 0
M  V30 2 C 5.52697 -1.22865 -0.169761 0
M  V30 3 N 4.58871 -1.15909 0.792568 0
M  V30 4 C 3.39275 -0.582305 0.620331 0
M  V30 5 C 3.07274 -0.0199481 -0.59516 0
M  V30 6 N 1.90315 0.553919 -0.794338 0
M  V30 7 C 0.931547 0.632093 0.182816 0
M  V30 8 C -0.25426 1.33088 -0.220822 0
M  V30 9 C -1.51612 1.33972 0.481539 0
M  V30 10 C -2.42648 2.30619 -0.348442 0
M  V30 11 C -1.77107 3.63101 -0.29923 0
M  V30 12 C -1.25465 4.72207 -0.281669 0
M  V30 13 C -1.58278 1.93746 1.82526 0
M  V30 14 O -0.881503 3.04441 2.22662 0
M  V30 15 O -2.33118 1.40436 2.6763 0
M  V30 16 C -2.22932 0.0341363 0.402905 0
M  V30 17 C -2.16071 -0.937179 1.36125 0
M  V30 18 C -2.83202 -2.1143 1.23256 0
M  V30 19 C -3.62208 -2.42032 0.146551 0
M  V30 20 C -3.70832 -1.46401 -0.828986 0
M  V30 21 C -3.01141 -0.246878 -0.691187 0
M  V30 22 C -4.33406 -3.67748 0.0176846 0
M  V30 23 O -4.24711 -4.64647 1.00547 0
M  V30 24 O -5.03108 -3.90284 -0.979073 0
M  V30 25 C 1.27632 0.0724609 1.36493 0
M  V30 26 N 2.46529 -0.513783 1.5733 0
M  V30 27 C 4.0528 -0.0952012 -1.59289 0
M  V30 28 N 3.73266 0.480573 -2.84661 0
M  V30 29 N 5.23279 -0.68605 -1.36055 0
M  V30 30 H 6.8181 -2.82581 0.469156 0
M  V30 31 H 7.66472 -1.36478 -0.131786 0
M  V30 32 H 0.0628173 2.42027 -0.375808 0
M  V30 33 H -0.477809 1.02255 -1.29957 0
M  V30 34 H -3.4247 2.26914 0.0294205 0
M  V30 35 H -2.31594 1.97314 -1.4088 0
M  V30 36 H -0.787935 5.67323 -0.27429 0
M  V30 37 H 0.103471 3.1889 2.13607 0
M  V30 38 H -1.57671 -0.79386 2.23513 0
M  V30 39 H -2.78866 -2.91074 1.99636 0
M  V30 40 H -4.31484 -1.64029 -1.7135 0
M  V30 41 H -3.15801 0.420805 -1.52054 0
M  V30 42 H -3.37778 -4.85736 1.47983 0
M  V30 43 H 0.570689 0.126677 2.16966 0
M  V30 44 H 3.99932 1.46464 -3.06566 0
M  V30 45 H 3.22688 -0.0985606 -3.5423 0
M  V30 END ATOM
M  V30 BEGIN BOND
M  V30 1 1 1 2
M  V30 2 2 2 3
M  V30 3 1 3 4
M  V30 4 2 4 5
M  V30 5 1 5 6
M  V30 6 2 6 7
M  V30 7 1 7 8
M  V30 8 1 8 9
M  V30 9 1 9 10
M  V30 10 1 10 11
M  V30 11 3 11 12
M  V30 12 1 9 13
M  V30 13 1 13 14
M  V30 14 2 13 15
M  V30 15 1 9 16
M  V30 16 2 16 17
M  V30 17 1 17 18
M  V30 18 2 18 19
M  V30 19 1 19 20
M  V30 20 2 20 21
M  V30 21 1 19 22
M  V30 22 1 22 23
M  V30 23 2 22 24
M  V30 24 1 7 25
M  V30 25 2 25 26
M  V30 26 1 5 27
M  V30 27 1 27 28
M  V30 28 2 27 29
M  V30 29 1 29 2
M  V30 30 1 26 4
M  V30 31 1 21 16
M  V30 32 1 1 30
M  V30 33 1 1 31
M  V30 34 1 8 32
M  V30 35 1 8 33
M  V30 36 1 10 34
M  V30 37 1 10 35
M  V30 38 1 12 36
M  V30 39 1 14 37
M  V30 40 1 17 38
M  V30 41 1 18 39
M  V30 42 1 20 40
M  V30 43 1 21 41
M  V30 44 1 23 42
M  V30 45 1 25 43
M  V30 46 1 28 44
M  V30 47 1 28 45
M  V30 END BOND
M  V30 END CTAB
M  END
