
     RDKit          3D

  0  0  0  0  0  0  0  0  0  0999 V3000
M  V30 BEGIN CTAB
M  V30 COUNTS 37 38 0 0 0
M  V30 BEGIN ATOM
M  V30 1 C -2.24282 -3.29817 -0.400312 0
M  V30 2 O -1.7411 -2.00412 -0.571154 0
M  V30 3 C -2.39264 -0.84566 -0.173545 0
M  V30 4 C -3.63461 -0.873739 0.446169 0
M  V30 5 C -4.27001 0.283894 0.835639 0
M  V30 6 C -3.63813 1.50208 0.595133 0
M  V30 7 C -2.39037 1.52524 -0.0276503 0
M  V30 8 C -1.7662 0.357414 -0.412411 0
M  V30 9 C -0.449797 0.360158 -1.07134 0
M  V30 10 O 0.079717 -0.730071 -1.4051 0
M  V30 11 C 0.226176 1.63112 -1.32963 0
M  V30 12 S 1.81621 1.34489 -2.1161 0
M  V30 13 C 2.9278 0.521137 -0.972549 0
M  V30 14 N 3.02224 -0.809516 -0.871047 0
M  V30 15 C 3.84751 -1.44928 -0.0216126 0
M  V30 16 N 3.89128 -2.8699 0.0280486 0
M  V30 17 C 4.63215 -0.651389 0.781157 0
M  V30 18 C 4.54012 0.721745 0.681854 0
M  V30 19 N 3.6938 1.30069 -0.188926 0
M  V30 20 N 5.32149 1.597 1.48096 0
M  V30 21 C -4.28988 2.77367 1.00013 0
M  V30 22 H -1.37037 -3.9966 -0.464154 0
M  V30 23 H -2.93892 -3.60214 -1.20156 0
M  V30 24 H -2.68581 -3.46786 0.604791 0
M  V30 25 H -4.09635 -1.83177 0.617549 0
M  V30 26 H -5.24091 0.302728 1.32299 0
M  V30 27 H -1.88262 2.47988 -0.2231 0
M  V30 28 H -0.410204 2.20851 -2.05776 0
M  V30 29 H 0.335023 2.25811 -0.409837 0
M  V30 30 H 4.8103 -3.35495 0.0995962 0
M  V30 31 H 3.04451 -3.47917 -0.00287934 0
M  V30 32 H 5.31122 -1.08151 1.47965 0
M  V30 33 H 4.87479 2.02785 2.31262 0
M  V30 34 H 6.3069 1.77852 1.21317 0
M  V30 35 H -4.81969 3.19943 0.119984 0
M  V30 36 H -3.48967 3.49901 1.26276 0
M  V30 37 H -4.93116 2.67276 1.88809 0
M  V30 END ATOM
M  V30 BEGIN BOND
M  V30 1 1 1 2
M  V30 2 1 2 3
M  V30 3 2 3 4
M  V30 4 1 4 5
M  V30 5 2 5 6
M  V30 6 1 6 7
M  V30 7 2 7 8
M  V30 8 1 8 9
M  V30 9 2 9 10
M  V30 10 1 9 11
M  V30 11 1 11 12
M  V30 12 1 12 13
M  V30 13 2 13 14
M  V30 14 1 14 15
M  V30 15 1 15 16
M  V30 16 2 15 17
M  V30 17 1 17 18
M  V30 18 2 18 19
M  V30 19 1 18 20
M  V30 20 1 6 21
M  V30 21 1 8 3
M  V30 22 1 19 13
M  V30 23 1 1 22
M  V30 24 1 1 23
M  V30 25 1 1 24
M  V30 26 1 4 25
M  V30 27 1 5 26
M  V30 28 1 7 27
M  V30 29 1 11 28
M  V30 30 1 11 29
M  V30 31 1 16 30
M  V30 32 1 16 31
M  V30 33 1 17 32
M  V30 34 1 20 33
M  V30 35 1 20 34
M  V30 36 1 21 35
M  V30 37 1 21 36
M  V30 38 1 21 37
M  V30 END BOND
M  V30 END CTAB
M  END
