
     RDKit          3D

  0  0  0  0  0  0  0  0  0  0999 V3000
M  V30 BEGIN CTAB
M  V30 COUNTS 27 27 0 0 0
M  V30 BEGIN ATOM
M  V30 1 N -1.37 -1.7531 1.20335 0
M  V30 2 C -1.01878 -1.4817 -0.133649 0
M  V30 3 N -1.10706 -2.43264 -0.999635 0
M  V30 4 C -0.561446 -0.132618 -0.520359 0
M  V30 5 C -1.58695 0.894265 -0.212929 0
M  V30 6 C -1.12014 2.1401 0.449509 0
M  V30 7 C 0.271363 2.57263 0.104388 0
M  V30 8 C 1.04741 1.50779 -0.638611 0
M  V30 9 N 0.696598 0.254413 0.0520247 0
M  V30 10 S 1.96056 -0.877974 -0.176212 0
M  V30 11 O 2.32484 -1.03554 -1.62997 0
M  V30 12 O 3.18376 -0.320422 0.508904 0
M  V30 13 N 1.62538 -2.40135 0.554191 0
M  V30 14 H -1.23056 -2.70618 1.58333 0
M  V30 15 H -1.76342 -1.02813 1.81752 0
M  V30 16 H -1.41781 -3.38631 -0.788491 0
M  V30 17 H -0.401885 -0.129124 -1.63985 0
M  V30 18 H -2.34095 0.419296 0.48458 0
M  V30 19 H -2.17647 1.11501 -1.12629 0
M  V30 20 H -1.8078 2.9717 0.14391 0
M  V30 21 H -1.2106 2.07226 1.55476 0
M  V30 22 H 0.29792 3.50814 -0.496479 0
M  V30 23 H 0.866067 2.79514 1.02525 0
M  V30 24 H 0.667519 1.4855 -1.67067 0
M  V30 25 H 2.11251 1.71959 -0.602837 0
M  V30 26 H 1.77424 -3.13988 -0.181073 0
M  V30 27 H 2.28571 -2.63087 1.33533 0
M  V30 END ATOM
M  V30 BEGIN BOND
M  V30 1 1 1 2
M  V30 2 2 2 3 CFG=2
M  V30 3 1 2 4
M  V30 4 1 4 5
M  V30 5 1 5 6
M  V30 6 1 6 7
M  V30 7 1 7 8
M  V30 8 1 8 9
M  V30 9 1 9 10
M  V30 10 2 10 11
M  V30 11 2 10 12
M  V30 12 1 10 13
M  V30 13 1 9 4
M  V30 14 1 1 14
M  V30 15 1 1 15
M  V30 16 1 3 16
M  V30 17 1 4 17
M  V30 18 1 5 18
M  V30 19 1 5 19
M  V30 20 1 6 20
M  V30 21 1 6 21
M  V30 22 1 7 22
M  V30 23 1 7 23
M  V30 24 1 8 24
M  V30 25 1 8 25
M  V30 26 1 13 26
M  V30 27 1 13 27
M  V30 END BOND
M  V30 END CTAB
M  END
