
     RDKit          3D

  0  0  0  0  0  0  0  0  0  0999 V3000
M  V30 BEGIN CTAB
M  V30 COUNTS 44 46 0 0 0
M  V30 BEGIN ATOM
M  V30 1 N -3.65716 -2.60651 -2.66932 0
M  V30 2 C -3.25294 -1.75917 -1.61016 0
M  V30 3 N -1.94897 -1.4597 -1.46515 0
M  V30 4 C -1.47485 -0.660852 -0.484954 0
M  V30 5 N -0.0919268 -0.360437 -0.354695 0
M  V30 6 C 0.812619 -0.931449 -1.3007 0
M  V30 7 C 2.22215 -0.552699 -1.07052 0
M  V30 8 C 2.80949 0.559668 -1.63604 0
M  V30 9 C 4.13264 0.863553 -1.3842 0
M  V30 10 C 4.9284 0.086639 -0.567764 0
M  V30 11 C 4.34141 -1.02769 -0.000760708 0
M  V30 12 C 3.01855 -1.32904 -0.254251 0
M  V30 13 S 6.60514 0.490262 -0.261498 0
M  V30 14 O 7.41474 -0.766253 0.0116715 0
M  V30 15 O 7.23737 1.14697 -1.45294 0
M  V30 16 N 6.73677 1.50374 1.10646 0
M  V30 17 C -2.42247 -0.149316 0.389837 0
M  V30 18 C -3.77162 -0.468442 0.227295 0
M  V30 19 N -4.18786 -1.26181 -0.756964 0
M  V30 20 C -4.86179 0.0300772 1.11257 0
M  V30 21 C -4.86554 1.52594 1.18816 0
M  V30 22 N -3.74047 2.10019 1.83291 0
M  V30 23 C -2.81745 1.18312 2.41146 0
M  V30 24 C -1.777 0.694931 1.39768 0
M  V30 25 H -3.98869 -2.2225 -3.57124 0
M  V30 26 H -3.62114 -3.63439 -2.54092 0
M  V30 27 H 0.191943 0.26456 0.4288 0
M  V30 28 H 0.562034 -0.589671 -2.34628 0
M  V30 29 H 0.730063 -2.05339 -1.26969 0
M  V30 30 H 2.19758 1.18027 -2.27991 0
M  V30 31 H 4.60422 1.73861 -1.82574 0
M  V30 32 H 4.9721 -1.64421 0.646848 0
M  V30 33 H 2.5608 -2.21075 0.196733 0
M  V30 34 H 7.0527 0.960012 1.94129 0
M  V30 35 H 5.76871 1.86119 1.35967 0
M  V30 36 H -4.89433 -0.478338 2.08599 0
M  V30 37 H -5.82601 -0.259091 0.598341 0
M  V30 38 H -5.78318 1.86122 1.70345 0
M  V30 39 H -4.92709 1.9135 0.152726 0
M  V30 40 H -3.19245 2.72579 1.17783 0
M  V30 41 H -2.21079 1.76426 3.16777 0
M  V30 42 H -3.24833 0.346417 2.95874 0
M  V30 43 H -1.25579 1.57555 1.00503 0
M  V30 44 H -1.08158 0.049275 2.00243 0
M  V30 END ATOM
M  V30 BEGIN BOND
M  V30 1 1 1 2
M  V30 2 2 2 3
M  V30 3 1 3 4
M  V30 4 1 4 5
M  V30 5 1 5 6
M  V30 6 1 6 7
M  V30 7 2 7 8
M  V30 8 1 8 9
M  V30 9 2 9 10
M  V30 10 1 10 11
M  V30 11 2 11 12
M  V30 12 1 10 13
M  V30 13 2 13 14
M  V30 14 2 13 15
M  V30 15 1 13 16
M  V30 16 2 4 17
M  V30 17 1 17 18
M  V30 18 2 18 19
M  V30 19 1 18 20
M  V30 20 1 20 21
M  V30 21 1 21 22
M  V30 22 1 22 23
M  V30 23 1 23 24
M  V30 24 1 19 2
M  V30 25 1 12 7
M  V30 26 1 24 17
M  V30 27 1 1 25
M  V30 28 1 1 26
M  V30 29 1 5 27
M  V30 30 1 6 28
M  V30 31 1 6 29
M  V30 32 1 8 30
M  V30 33 1 9 31
M  V30 34 1 11 32
M  V30 35 1 12 33
M  V30 36 1 16 34
M  V30 37 1 16 35
M  V30 38 1 20 36
M  V30 39 1 20 37
M  V30 40 1 21 38
M  V30 41 1 21 39
M  V30 42 1 22 40
M  V30 43 1 23 41
M  V30 44 1 23 42
M  V30 45 1 24 43
M  V30 46 1 24 44
M  V30 END BOND
M  V30 END CTAB
M  END
