
     RDKit          3D

  0  0  0  0  0  0  0  0  0  0999 V3000
M  V30 BEGIN CTAB
M  V30 COUNTS 33 34 0 0 0
M  V30 BEGIN ATOM
M  V30 1 N 4.58202 1.53687 -0.409297 0
M  V30 2 C 3.33237 0.97232 -0.0184945 0
M  V30 3 C 3.06517 -0.279432 -0.811546 0
M  V30 4 N 1.84824 -0.93234 -0.518727 0
M  V30 5 C 1.72228 -1.54627 0.754711 0
M  V30 6 C 0.326381 -1.15484 1.26971 0
M  V30 7 C -0.381541 -1.02348 -0.0701881 0 CFG=2
M  V30 8 C 0.663376 -0.15649 -0.794547 0
M  V30 9 C -1.70009 -0.420974 -0.000456115 0
M  V30 10 C -2.00144 0.771685 0.610149 0
M  V30 11 C -3.31708 1.23109 0.598345 0
M  V30 12 C -4.30489 0.507779 -0.0128518 0
M  V30 13 N -4.01271 -0.657825 -0.609931 0
M  V30 14 C -2.75596 -1.09962 -0.600088 0
M  V30 15 N -5.65799 0.932535 -0.0503468 0
M  V30 16 H 4.62718 2.52071 -0.561374 0
M  V30 17 H 5.41668 1.116 -0.0791716 0
M  V30 18 H 2.54823 1.73335 -0.278574 0
M  V30 19 H 3.33138 0.819201 1.05826 0
M  V30 20 H 3.90061 -0.986782 -0.584122 0
M  V30 21 H 3.12667 -0.073494 -1.89556 0
M  V30 22 H 2.49637 -1.35043 1.48521 0
M  V30 23 H 1.63043 -2.6564 0.572302 0
M  V30 24 H -0.104913 -1.90027 1.93246 0
M  V30 25 H 0.452566 -0.142271 1.7068 0
M  V30 26 H -0.368058 -2.01573 -0.557755 0
M  V30 27 H 0.456498 -0.182412 -1.86264 0
M  V30 28 H 0.659011 0.822938 -0.321664 0
M  V30 29 H -1.21314 1.32847 1.08574 0
M  V30 30 H -3.55788 2.1845 1.08437 0
M  V30 31 H -2.56469 -2.05818 -1.09996 0
M  V30 32 H -5.99937 1.38009 -0.92797 0
M  V30 33 H -6.24573 0.779694 0.794508 0
M  V30 END ATOM
M  V30 BEGIN BOND
M  V30 1 1 1 2
M  V30 2 1 2 3
M  V30 3 1 3 4
M  V30 4 1 4 5
M  V30 5 1 5 6
M  V30 6 1 6 7
M  V30 7 1 7 8
M  V30 8 1 7 9
M  V30 9 2 9 10
M  V30 10 1 10 11
M  V30 11 2 11 12
M  V30 12 1 12 13
M  V30 13 2 13 14
M  V30 14 1 12 15
M  V30 15 1 8 4
M  V30 16 1 14 9
M  V30 17 1 1 16
M  V30 18 1 1 17
M  V30 19 1 2 18
M  V30 20 1 2 19
M  V30 21 1 3 20
M  V30 22 1 3 21
M  V30 23 1 5 22
M  V30 24 1 5 23
M  V30 25 1 6 24
M  V30 26 1 6 25
M  V30 27 1 7 26 CFG=3
M  V30 28 1 8 27
M  V30 29 1 8 28
M  V30 30 1 10 29
M  V30 31 1 11 30
M  V30 32 1 14 31
M  V30 33 1 15 32
M  V30 34 1 15 33
M  V30 END BOND
M  V30 END CTAB
M  END
