
     RDKit          3D

  0  0  0  0  0  0  0  0  0  0999 V3000
M  V30 BEGIN CTAB
M  V30 COUNTS 45 47 0 0 0
M  V30 BEGIN ATOM
M  V30 1 N -4.41453 -3.48223 1.52037 0
M  V30 2 C -3.46577 -2.40604 1.35738 0
M  V30 3 N -3.21301 -1.99896 0.1765 0
M  V30 4 C -2.28522 -0.917981 -0.044318 0
M  V30 5 N -1.48697 -0.650582 1.09205 0
M  V30 6 C -0.203161 0.0796593 0.964738 0
M  V30 7 C 0.809189 -0.827929 0.243971 0
M  V30 8 C 2.09128 -0.031911 0.141404 0
M  V30 9 O 3.11521 -0.733404 -0.491528 0
M  V30 10 C 4.3523 -0.136475 -0.663649 0
M  V30 11 C 5.35987 -0.855881 -1.29739 0
M  V30 12 C 6.62571 -0.336804 -1.51145 0
M  V30 13 C 6.92764 0.941708 -1.09014 0
M  V30 14 Cl 8.53618 1.57395 -1.37445 0
M  V30 15 C 5.93766 1.66186 -0.46215 0
M  V30 16 Cl 6.30106 3.28201 0.0779826 0
M  V30 17 C 4.67143 1.14023 -0.248887 0
M  V30 18 C -1.83674 -1.11365 2.38912 0
M  V30 19 N -1.12853 -0.624548 3.53506 0
M  V30 20 N -2.79253 -1.97122 2.5143 0
M  V30 21 C -3.04302 0.323174 -0.429647 0
M  V30 22 C -3.01104 1.46423 0.32695 0
M  V30 23 C -3.69554 2.60964 -0.0501904 0
M  V30 24 C -4.42268 2.59317 -1.21278 0
M  V30 25 Cl -5.31214 3.99575 -1.75687 0
M  V30 26 C -4.46817 1.45416 -1.98806 0
M  V30 27 C -3.77957 0.322351 -1.59631 0
M  V30 28 H -4.82722 -3.97455 0.685087 0
M  V30 29 H -4.72458 -3.81039 2.45439 0
M  V30 30 H -1.62239 -1.1277 -0.922195 0
M  V30 31 H -0.392677 0.979271 0.371699 0
M  V30 32 H 0.112061 0.335971 1.98324 0
M  V30 33 H 0.91932 -1.78398 0.752504 0
M  V30 34 H 0.387797 -1.01088 -0.760512 0
M  V30 35 H 2.44161 0.355387 1.09627 0
M  V30 36 H 1.84408 0.858348 -0.497333 0
M  V30 37 H 5.12264 -1.86036 -1.62805 0
M  V30 38 H 7.38165 -0.949085 -2.0164 0
M  V30 39 H 3.88471 1.70706 0.248011 0
M  V30 40 H -0.742336 -1.30416 4.20989 0
M  V30 41 H -0.995602 0.388831 3.70174 0
M  V30 42 H -2.45964 1.49853 1.25482 0
M  V30 43 H -3.67159 3.50367 0.539489 0
M  V30 44 H -5.04265 1.43834 -2.90784 0
M  V30 45 H -3.78406 -0.598578 -2.17282 0
M  V30 END ATOM
M  V30 BEGIN BOND
M  V30 1 1 1 2
M  V30 2 2 2 3
M  V30 3 1 3 4
M  V30 4 1 4 5
M  V30 5 1 5 6
M  V30 6 1 6 7
M  V30 7 1 7 8
M  V30 8 1 8 9
M  V30 9 1 9 10
M  V30 10 2 10 11
M  V30 11 1 11 12
M  V30 12 2 12 13
M  V30 13 1 13 14
M  V30 14 1 13 15
M  V30 15 1 15 16
M  V30 16 2 15 17
M  V30 17 1 5 18
M  V30 18 1 18 19
M  V30 19 2 18 20
M  V30 20 1 4 21
M  V30 21 2 21 22
M  V30 22 1 22 23
M  V30 23 2 23 24
M  V30 24 1 24 25
M  V30 25 1 24 26
M  V30 26 2 26 27
M  V30 27 1 20 2
M  V30 28 1 27 21
M  V30 29 1 17 10
M  V30 30 1 1 28
M  V30 31 1 1 29
M  V30 32 1 4 30
M  V30 33 1 6 31
M  V30 34 1 6 32
M  V30 35 1 7 33
M  V30 36 1 7 34
M  V30 37 1 8 35
M  V30 38 1 8 36
M  V30 39 1 11 37
M  V30 40 1 12 38
M  V30 41 1 17 39
M  V30 42 1 19 40
M  V30 43 1 19 41
M  V30 44 1 22 42
M  V30 45 1 23 43
M  V30 46 1 26 44
M  V30 47 1 27 45
M  V30 END BOND
M  V30 END CTAB
M  END
