
     RDKit          3D

  0  0  0  0  0  0  0  0  0  0999 V3000
M  V30 BEGIN CTAB
M  V30 COUNTS 55 58 0 0 0
M  V30 BEGIN ATOM
M  V30 1 O 0.630475 1.49685 -1.5181 0
M  V30 2 C 0.378471 0.430121 -0.852885 0
M  V30 3 C 1.16308 -0.78771 -0.903352 0
M  V30 4 C 0.623025 -1.66078 -0.107205 0
M  V30 5 C -0.572011 -1.09276 0.540921 0
M  V30 6 N -0.701757 0.237368 0.0488842 0
M  V30 7 C -1.66049 1.24788 0.325989 0
M  V30 8 C -1.75338 1.91061 1.51699 0
M  V30 9 C -2.71797 2.90113 1.73775 0
M  V30 10 C -3.6113 3.24196 0.753529 0
M  V30 11 C -3.52385 2.58231 -0.441124 0
M  V30 12 C -2.57829 1.6057 -0.668966 0
M  V30 13 S -4.8401 4.46051 0.94483 0
M  V30 14 O -5.13784 5.0918 -0.391502 0
M  V30 15 O -4.41341 5.56109 1.87548 0
M  V30 16 N -6.30899 3.79661 1.55126 0
M  V30 17 C -1.71116 -1.96619 0.158081 0
M  V30 18 C -2.26241 -2.77909 1.10744 0
M  V30 19 C -3.3179 -3.63013 0.859319 0
M  V30 20 C -3.859 -3.67383 -0.417887 0
M  V30 21 C -3.28775 -2.83997 -1.37618 0
M  V30 22 C -2.23389 -1.99617 -1.11096 0
M  V30 23 N -4.94133 -4.52282 -0.745505 0 CHG=1
M  V30 24 O -5.39578 -4.53631 -1.89293 0
M  V30 25 O -5.4779 -5.32552 0.215447 0 CHG=-1
M  V30 26 N 2.32833 -0.916238 -1.73047 0
M  V30 27 C 3.58828 -0.490109 -1.27328 0
M  V30 28 C 3.71643 0.0535344 -0.0210207 0
M  V30 29 C 4.95513 0.460293 0.398558 0
M  V30 30 C 6.07151 0.339486 -0.398099 0
M  V30 31 C 5.92286 -0.205202 -1.64354 0
M  V30 32 C 4.68397 -0.620621 -2.08387 0
M  V30 33 S 7.63334 0.883741 0.208578 0
M  V30 34 O 8.41907 1.45223 -0.932121 0
M  V30 35 O 7.34752 2.03908 1.14644 0
M  V30 36 N 8.4383 -0.395463 1.0013 0
M  V30 37 H 0.988133 -2.66355 0.0641606 0
M  V30 38 H -0.449156 -1.14986 1.64237 0
M  V30 39 H -1.05687 1.6599 2.3145 0
M  V30 40 H -2.794 3.4253 2.67424 0
M  V30 41 H -4.21232 2.82981 -1.23171 0
M  V30 42 H -2.53334 1.10633 -1.61406 0
M  V30 43 H -6.4089 2.80601 1.28189 0
M  V30 44 H -6.37707 3.967 2.57145 0
M  V30 45 H -1.88388 -2.79607 2.14148 0
M  V30 46 H -3.74265 -4.26901 1.62847 0
M  V30 47 H -3.71694 -2.87745 -2.37968 0
M  V30 48 H -1.79799 -1.35749 -1.85055 0
M  V30 49 H 2.25662 -1.33126 -2.69145 0
M  V30 50 H 2.85114 0.156839 0.618978 0
M  V30 51 H 5.03859 0.887657 1.39068 0
M  V30 52 H 6.81438 -0.298562 -2.27169 0
M  V30 53 H 4.63058 -1.04712 -3.08792 0
M  V30 54 H 8.8966 -0.123189 1.88467 0
M  V30 55 H 7.90378 -1.27868 1.0324 0
M  V30 END ATOM
M  V30 BEGIN BOND
M  V30 1 2 1 2
M  V30 2 1 2 3
M  V30 3 2 3 4
M  V30 4 1 4 5
M  V30 5 1 5 6
M  V30 6 1 6 7
M  V30 7 2 7 8
M  V30 8 1 8 9
M  V30 9 2 9 10
M  V30 10 1 10 11
M  V30 11 2 11 12
M  V30 12 1 10 13
M  V30 13 2 13 14
M  V30 14 2 13 15
M  V30 15 1 13 16
M  V30 16 1 5 17
M  V30 17 2 17 18
M  V30 18 1 18 19
M  V30 19 2 19 20
M  V30 20 1 20 21
M  V30 21 2 21 22
M  V30 22 1 20 23
M  V30 23 2 23 24
M  V30 24 1 23 25
M  V30 25 1 3 26
M  V30 26 1 26 27
M  V30 27 2 27 28
M  V30 28 1 28 29
M  V30 29 2 29 30
M  V30 30 1 30 31
M  V30 31 2 31 32
M  V30 32 1 30 33
M  V30 33 2 33 34
M  V30 34 2 33 35
M  V30 35 1 33 36
M  V30 36 1 6 2
M  V30 37 1 12 7
M  V30 38 1 22 17
M  V30 39 1 32 27
M  V30 40 1 4 37
M  V30 41 1 5 38
M  V30 42 1 8 39
M  V30 43 1 9 40
M  V30 44 1 11 41
M  V30 45 1 12 42
M  V30 46 1 16 43
M  V30 47 1 16 44
M  V30 48 1 18 45
M  V30 49 1 19 46
M  V30 50 1 21 47
M  V30 51 1 22 48
M  V30 52 1 26 49
M  V30 53 1 28 50
M  V30 54 1 29 51
M  V30 55 1 31 52
M  V30 56 1 32 53
M  V30 57 1 36 54
M  V30 58 1 36 55
M  V30 END BOND
M  V30 END CTAB
M  END
