
     RDKit          3D

  0  0  0  0  0  0  0  0  0  0999 V3000
M  V30 BEGIN CTAB
M  V30 COUNTS 46 48 0 0 0
M  V30 BEGIN ATOM
M  V30 1 N -5.74265 1.57548 0.728773 0
M  V30 2 C -5.31845 0.430416 1.37993 0 CFG=2
M  V30 3 C -3.85566 0.408577 1.7355 0
M  V30 4 C -3.59804 -0.774968 0.825978 0 CFG=1
M  V30 5 C -5.06003 -0.745056 0.449418 0
M  V30 6 C -2.66374 -0.395007 -0.251384 0
M  V30 7 C -1.53448 -1.10537 -0.578104 0
M  V30 8 C -0.727355 -0.682674 -1.58651 0
M  V30 9 N 0.465024 -1.40897 -1.9195 0
M  V30 10 C 0.916183 -2.5449 -1.17983 0
M  V30 11 C 1.46706 -2.14066 0.150332 0
M  V30 12 C 2.64517 -1.21556 -0.122585 0
M  V30 13 O 2.97269 -0.944217 -1.27974 0
M  V30 14 N 3.31552 -0.705981 1.00529 0
M  V30 15 C 4.43438 0.16128 0.993957 0
M  V30 16 C 5.21766 0.393097 -0.0981315 0
M  V30 17 C 6.29495 1.28404 -0.0255125 0
M  V30 18 C 6.58052 1.93615 1.14061 0
M  V30 19 C 5.79041 1.69823 2.23304 0
M  V30 20 C 4.7375 0.836681 2.18647 0
M  V30 21 N -1.04077 0.448385 -2.27521 0
M  V30 22 C -2.13808 1.14148 -1.96061 0
M  V30 23 N -2.933 0.716957 -0.959574 0
M  V30 24 N -2.52301 2.34118 -2.64839 0
M  V30 25 H -5.43203 2.41724 1.05875 0
M  V30 26 H -6.41621 1.49061 0.0562063 0
M  V30 27 H -5.92016 0.174865 2.27585 0
M  V30 28 H -3.35563 1.35328 1.41527 0
M  V30 29 H -3.62218 0.205019 2.80195 0
M  V30 30 H -3.32161 -1.69464 1.36803 0
M  V30 31 H -5.26706 -0.47677 -0.605222 0
M  V30 32 H -5.65472 -1.62088 0.772141 0
M  V30 33 H -1.35743 -2.00552 0.00433007 0
M  V30 34 H 1.00274 -1.06981 -2.74213 0
M  V30 35 H 0.117525 -3.31545 -1.04042 0
M  V30 36 H 1.74774 -3.0346 -1.73812 0
M  V30 37 H 1.88991 -2.98625 0.719102 0
M  V30 38 H 0.776041 -1.54417 0.743809 0
M  V30 39 H 2.94153 -1.01107 1.97814 0
M  V30 40 H 5.05935 -0.0931487 -1.04216 0
M  V30 41 H 6.88547 1.4368 -0.911132 0
M  V30 42 H 7.40859 2.62647 1.2116 0
M  V30 43 H 6.01634 2.21677 3.16369 0
M  V30 44 H 4.13381 0.666268 3.05053 0
M  V30 45 H -1.82921 3.08745 -2.81404 0
M  V30 46 H -3.5046 2.46895 -2.98588 0
M  V30 END ATOM
M  V30 BEGIN BOND
M  V30 1 1 1 2
M  V30 2 1 2 3
M  V30 3 1 3 4
M  V30 4 1 4 5
M  V30 5 1 4 6
M  V30 6 2 6 7
M  V30 7 1 7 8
M  V30 8 1 8 9
M  V30 9 1 9 10
M  V30 10 1 10 11
M  V30 11 1 11 12
M  V30 12 2 12 13
M  V30 13 1 12 14
M  V30 14 1 14 15
M  V30 15 2 15 16
M  V30 16 1 16 17
M  V30 17 2 17 18
M  V30 18 1 18 19
M  V30 19 2 19 20
M  V30 20 2 8 21
M  V30 21 1 21 22
M  V30 22 2 22 23
M  V30 23 1 22 24
M  V30 24 1 5 2
M  V30 25 1 23 6
M  V30 26 1 20 15
M  V30 27 1 1 25
M  V30 28 1 1 26
M  V30 29 1 2 27 CFG=1
M  V30 30 1 3 28
M  V30 31 1 3 29
M  V30 32 1 4 30 CFG=1
M  V30 33 1 5 31
M  V30 34 1 5 32
M  V30 35 1 7 33
M  V30 36 1 9 34
M  V30 37 1 10 35
M  V30 38 1 10 36
M  V30 39 1 11 37
M  V30 40 1 11 38
M  V30 41 1 14 39
M  V30 42 1 16 40
M  V30 43 1 17 41
M  V30 44 1 18 42
M  V30 45 1 19 43
M  V30 46 1 20 44
M  V30 47 1 24 45
M  V30 48 1 24 46
M  V30 END BOND
M  V30 END CTAB
M  END
