
     RDKit          3D

  0  0  0  0  0  0  0  0  0  0999 V3000
M  V30 BEGIN CTAB
M  V30 COUNTS 28 28 0 0 0
M  V30 BEGIN ATOM
M  V30 1 C 4.84081 0.378587 -0.364805 0
M  V30 2 O 3.73515 -0.234245 0.271584 0
M  V30 3 C 2.69427 -0.821663 -0.42768 0
M  V30 4 O 2.77219 -0.792743 -1.70131 0
M  V30 5 C 1.53237 -1.458 0.19279 0
M  V30 6 C 0.252725 -0.717831 0.0121439 0
M  V30 7 C -0.792744 -1.10245 0.821688 0
M  V30 8 C -2.00668 -0.456646 0.738227 0
M  V30 9 C -3.09667 -0.919272 1.62517 0
M  V30 10 C -2.17156 0.572963 -0.155032 0
M  V30 11 C -1.11389 0.974204 -0.984462 0
M  V30 12 C 0.0832188 0.304451 -0.871691 0
M  V30 13 N -1.31377 2.0417 -1.89376 0
M  V30 14 N -3.41553 1.24267 -0.250333 0
M  V30 15 H 5.51678 -0.311795 -0.854432 0
M  V30 16 H 5.37833 0.953325 0.432209 0
M  V30 17 H 4.49671 1.15503 -1.0879 0
M  V30 18 H 1.39801 -2.52259 -0.146684 0
M  V30 19 H 1.6685 -1.55192 1.31185 0
M  V30 20 H -0.65722 -1.93098 1.53413 0
M  V30 21 H -4.08346 -0.502153 1.38615 0
M  V30 22 H -2.79873 -0.792199 2.68691 0
M  V30 23 H -3.19112 -2.03789 1.48168 0
M  V30 24 H 0.880479 0.630454 -1.5139 0
M  V30 25 H -1.10395 3.02986 -1.69536 0
M  V30 26 H -1.70294 1.82581 -2.84849 0
M  V30 27 H -4.13113 1.29757 0.498111 0
M  V30 28 H -3.67016 1.74575 -1.14853 0
M  V30 END ATOM
M  V30 BEGIN BOND
M  V30 1 1 1 2
M  V30 2 1 2 3
M  V30 3 2 3 4
M  V30 4 1 3 5
M  V30 5 1 5 6
M  V30 6 2 6 7
M  V30 7 1 7 8
M  V30 8 1 8 9
M  V30 9 2 8 10
M  V30 10 1 10 11
M  V30 11 2 11 12
M  V30 12 1 11 13
M  V30 13 1 10 14
M  V30 14 1 12 6
M  V30 15 1 1 15
M  V30 16 1 1 16
M  V30 17 1 1 17
M  V30 18 1 5 18
M  V30 19 1 5 19
M  V30 20 1 7 20
M  V30 21 1 9 21
M  V30 22 1 9 22
M  V30 23 1 9 23
M  V30 24 1 12 24
M  V30 25 1 13 25
M  V30 26 1 13 26
M  V30 27 1 14 27
M  V30 28 1 14 28
M  V30 END BOND
M  V30 END CTAB
M  END
