
     RDKit          3D

  0  0  0  0  0  0  0  0  0  0999 V3000
M  V30 BEGIN CTAB
M  V30 COUNTS 51 52 0 0 0
M  V30 BEGIN ATOM
M  V30 1 N -8.74388 1.18178 1.78121 0
M  V30 2 C -8.54707 0.219046 0.76636 0
M  V30 3 N -9.57269 -0.31087 0.224534 0
M  V30 4 C -7.20892 -0.144152 0.364802 0
M  V30 5 C -6.92912 -1.07519 -0.617939 0
M  V30 6 C -5.64674 -1.37634 -0.954011 0
M  V30 7 C -4.57986 -0.735277 -0.296567 0
M  V30 8 O -3.33165 -1.11072 -0.706912 0
M  V30 9 C -2.08252 -0.677475 -0.304186 0
M  V30 10 C -1.7925 0.766501 -0.587076 0
M  V30 11 C -0.426218 1.13236 -0.0640641 0
M  V30 12 O -0.115975 2.46896 -0.308299 0
M  V30 13 C 0.593371 0.185664 -0.575774 0
M  V30 14 C 1.99817 0.511384 -0.100203 0
M  V30 15 O 2.85145 -0.46994 -0.665354 0
M  V30 16 C 4.20643 -0.43731 -0.410529 0
M  V30 17 C 5.00812 -1.40448 -0.974225 0
M  V30 18 C 6.37071 -1.43598 -0.764548 0
M  V30 19 C 6.96725 -0.453532 0.0487863 0
M  V30 20 C 6.17151 0.520767 0.618663 0
M  V30 21 C 4.80032 0.513431 0.379392 0
M  V30 22 C 8.40149 -0.54819 0.22493 0
M  V30 23 N 9.09537 -1.62 -0.433037 0
M  V30 24 N 9.08591 0.235639 0.909462 0
M  V30 25 O 8.8516 1.30782 1.64611 0
M  V30 26 C -4.85522 0.17961 0.670244 0
M  V30 27 C -6.14822 0.483204 1.00851 0
M  V30 28 H -9.4701 1.01742 2.52211 0
M  V30 29 H -8.19837 2.07305 1.84518 0
M  V30 30 H -9.63137 -1.01371 -0.513358 0
M  V30 31 H -7.79303 -1.54443 -1.09789 0
M  V30 32 H -5.45797 -2.10941 -1.7273 0
M  V30 33 H -1.34216 -1.31978 -0.882333 0
M  V30 34 H -1.89484 -0.953441 0.757754 0
M  V30 35 H -1.66041 0.802769 -1.72936 0
M  V30 36 H -2.55674 1.47912 -0.28305 0
M  V30 37 H -0.506842 1.06837 1.06298 0
M  V30 38 H -0.910792 3.00438 -0.526592 0
M  V30 39 H 0.394829 -0.838341 -0.140193 0
M  V30 40 H 0.63787 0.0851839 -1.67117 0
M  V30 41 H 2.00775 0.463698 1.02102 0
M  V30 42 H 2.32671 1.50814 -0.43533 0
M  V30 43 H 4.6002 -2.18916 -1.61215 0
M  V30 44 H 6.98106 -2.20702 -1.21885 0
M  V30 45 H 6.60235 1.2781 1.24068 0
M  V30 46 H 4.20032 1.29503 0.843101 0
M  V30 47 H 9.16767 -2.54254 0.0144722 0
M  V30 48 H 9.51788 -1.45313 -1.35524 0
M  V30 49 H 8.98619 2.27353 1.42986 0
M  V30 50 H -4.07986 0.686392 1.21642 0
M  V30 51 H -6.34146 1.22905 1.79531 0
M  V30 END ATOM
M  V30 BEGIN BOND
M  V30 1 1 1 2
M  V30 2 2 2 3 CFG=2
M  V30 3 1 2 4
M  V30 4 2 4 5
M  V30 5 1 5 6
M  V30 6 2 6 7
M  V30 7 1 7 8
M  V30 8 1 8 9
M  V30 9 1 9 10
M  V30 10 1 10 11
M  V30 11 1 11 12
M  V30 12 1 11 13
M  V30 13 1 13 14
M  V30 14 1 14 15
M  V30 15 1 15 16
M  V30 16 2 16 17
M  V30 17 1 17 18
M  V30 18 2 18 19
M  V30 19 1 19 20
M  V30 20 2 20 21
M  V30 21 1 19 22
M  V30 22 1 22 23
M  V30 23 2 22 24 CFG=2
M  V30 24 1 24 25
M  V30 25 1 7 26
M  V30 26 2 26 27
M  V30 27 1 27 4
M  V30 28 1 21 16
M  V30 29 1 1 28
M  V30 30 1 1 29
M  V30 31 1 3 30
M  V30 32 1 5 31
M  V30 33 1 6 32
M  V30 34 1 9 33
M  V30 35 1 9 34
M  V30 36 1 10 35
M  V30 37 1 10 36
M  V30 38 1 11 37
M  V30 39 1 12 38
M  V30 40 1 13 39
M  V30 41 1 13 40
M  V30 42 1 14 41
M  V30 43 1 14 42
M  V30 44 1 17 43
M  V30 45 1 18 44
M  V30 46 1 20 45
M  V30 47 1 21 46
M  V30 48 1 23 47
M  V30 49 1 23 48
M  V30 50 1 25 49
M  V30 51 1 26 50
M  V30 52 1 27 51
M  V30 END BOND
M  V30 END CTAB
M  END
