
     RDKit          3D

  0  0  0  0  0  0  0  0  0  0999 V3000
M  V30 BEGIN CTAB
M  V30 COUNTS 37 38 0 0 0
M  V30 BEGIN ATOM
M  V30 1 N -1.72808 0.493556 2.58373 0
M  V30 2 C -0.566794 -0.177802 1.98105 0
M  V30 3 C -1.03991 -1.57834 1.64821 0
M  V30 4 C -1.34037 -1.50553 0.16368 0
M  V30 5 N -1.0977 -0.176937 -0.285139 0
M  V30 6 C -0.200791 0.434181 0.668474 0
M  V30 7 C 1.17169 0.184585 0.217328 0
M  V30 8 C 1.44476 0.372439 -1.13572 0
M  V30 9 C 2.69306 0.170874 -1.6764 0
M  V30 10 C 3.71651 -0.231158 -0.859544 0
M  V30 11 C 3.50447 -0.429458 0.47001 0
M  V30 12 C 2.22571 -0.219351 1.00469 0
M  V30 13 N 5.02296 -0.442239 -1.42546 0
M  V30 14 C -2.29834 0.551515 -0.534875 0
M  V30 15 C -2.0622 1.97689 -0.931074 0
M  V30 16 C -3.01016 -0.0643081 -1.74469 0
M  V30 17 H -1.4719 1.50984 2.65394 0
M  V30 18 H -1.79806 0.107248 3.55436 0
M  V30 19 H 0.207049 -0.142281 2.7622 0
M  V30 20 H -0.25095 -2.3171 1.88992 0
M  V30 21 H -1.93246 -1.87187 2.24454 0
M  V30 22 H -0.602047 -2.18817 -0.335122 0
M  V30 23 H -2.36933 -1.87013 0.0333733 0
M  V30 24 H -0.337615 1.53011 0.758905 0
M  V30 25 H 0.667659 0.686009 -1.80183 0
M  V30 26 H 2.85412 0.332007 -2.74224 0
M  V30 27 H 4.31206 -0.744885 1.10456 0
M  V30 28 H 2.056 -0.373642 2.04802 0
M  V30 29 H 5.48379 -1.33981 -1.24043 0
M  V30 30 H 5.50053 0.268424 -2.00061 0
M  V30 31 H -3.00422 0.570033 0.338334 0
M  V30 32 H -3.04406 2.35938 -1.33915 0
M  V30 33 H -1.36278 2.01789 -1.78133 0
M  V30 34 H -1.81256 2.64745 -0.0993079 0
M  V30 35 H -2.91283 -1.14133 -1.79163 0
M  V30 36 H -4.07656 0.24575 -1.74177 0
M  V30 37 H -2.54064 0.356152 -2.65899 0
M  V30 END ATOM
M  V30 BEGIN BOND
M  V30 1 1 1 2
M  V30 2 1 2 3
M  V30 3 1 3 4
M  V30 4 1 4 5
M  V30 5 1 5 6
M  V30 6 1 6 7
M  V30 7 2 7 8
M  V30 8 1 8 9
M  V30 9 2 9 10
M  V30 10 1 10 11
M  V30 11 2 11 12
M  V30 12 1 10 13
M  V30 13 1 5 14
M  V30 14 1 14 15
M  V30 15 1 14 16
M  V30 16 1 6 2
M  V30 17 1 12 7
M  V30 18 1 1 17
M  V30 19 1 1 18
M  V30 20 1 2 19
M  V30 21 1 3 20
M  V30 22 1 3 21
M  V30 23 1 4 22
M  V30 24 1 4 23
M  V30 25 1 6 24
M  V30 26 1 8 25
M  V30 27 1 9 26
M  V30 28 1 11 27
M  V30 29 1 12 28
M  V30 30 1 13 29
M  V30 31 1 13 30
M  V30 32 1 14 31
M  V30 33 1 15 32
M  V30 34 1 15 33
M  V30 35 1 15 34
M  V30 36 1 16 35
M  V30 37 1 16 36
M  V30 38 1 16 37
M  V30 END BOND
M  V30 END CTAB
M  END
