
     RDKit          3D

  0  0  0  0  0  0  0  0  0  0999 V3000
M  V30 BEGIN CTAB
M  V30 COUNTS 40 42 0 0 0
M  V30 BEGIN ATOM
M  V30 1 N -6.53441 0.174609 0.254255 0
M  V30 2 C -5.27819 0.870785 0.172726 0
M  V30 3 C -4.20491 0.366521 1.11496 0
M  V30 4 C -3.20632 0.620637 -0.0236328 0
M  V30 5 C -4.38667 0.438788 -0.973119 0
M  V30 6 C -2.17668 -0.421583 -0.152282 0
M  V30 7 C -0.836434 -0.105783 -0.219646 0
M  V30 8 C 0.128475 -1.08316 -0.340237 0
M  V30 9 N 1.50759 -0.745947 -0.408793 0
M  V30 10 C 1.8732 0.648534 -0.348843 0
M  V30 11 C 3.32388 0.817095 -0.432025 0
M  V30 12 C 3.88815 2.06525 -0.393341 0
M  V30 13 N 5.22977 2.15192 -0.474414 0
M  V30 14 C 6.033 1.07697 -0.590637 0
M  V30 15 C 5.44505 -0.168149 -0.627616 0
M  V30 16 N 4.10712 -0.256126 -0.546858 0
M  V30 17 C 7.51772 1.21571 -0.677776 0
M  V30 18 N -0.226984 -2.38642 -0.395353 0
M  V30 19 C -1.52919 -2.68629 -0.329489 0
M  V30 20 N -2.48787 -1.72721 -0.21039 0
M  V30 21 N -1.99713 -4.02527 -0.379491 0
M  V30 22 H -7.35631 0.753022 0.0352716 0
M  V30 23 H -6.62458 -0.448337 1.06165 0
M  V30 24 H -5.33766 1.9777 0.189591 0
M  V30 25 H -4.04988 1.0347 1.98017 0
M  V30 26 H -4.29693 -0.702514 1.32995 0
M  V30 27 H -2.84609 1.65739 0.0151708 0
M  V30 28 H -4.541 -0.626095 -1.18766 0
M  V30 29 H -4.38896 1.12618 -1.83863 0
M  V30 30 H -0.531441 0.932028 -0.17717 0
M  V30 31 H 2.25867 -1.45092 -0.499326 0
M  V30 32 H 1.34445 1.19589 -1.15734 0
M  V30 33 H 1.53371 1.03414 0.635187 0
M  V30 34 H 3.26696 2.96655 -0.299258 0
M  V30 35 H 6.0745 -1.04724 -0.720898 0
M  V30 36 H 7.9208 0.842961 -1.62802 0
M  V30 37 H 7.7592 2.27594 -0.507357 0
M  V30 38 H 7.94266 0.647015 0.169283 0
M  V30 39 H -1.75052 -4.66575 0.393012 0
M  V30 40 H -2.56673 -4.34355 -1.16738 0
M  V30 END ATOM
M  V30 BEGIN BOND
M  V30 1 1 1 2
M  V30 2 1 2 3
M  V30 3 1 3 4
M  V30 4 1 4 5
M  V30 5 1 4 6
M  V30 6 2 6 7
M  V30 7 1 7 8
M  V30 8 1 8 9
M  V30 9 1 9 10
M  V30 10 1 10 11
M  V30 11 2 11 12
M  V30 12 1 12 13
M  V30 13 2 13 14
M  V30 14 1 14 15
M  V30 15 2 15 16
M  V30 16 1 14 17
M  V30 17 2 8 18
M  V30 18 1 18 19
M  V30 19 2 19 20
M  V30 20 1 19 21
M  V30 21 1 5 2
M  V30 22 1 20 6
M  V30 23 1 16 11
M  V30 24 1 1 22
M  V30 25 1 1 23
M  V30 26 1 2 24
M  V30 27 1 3 25
M  V30 28 1 3 26
M  V30 29 1 4 27
M  V30 30 1 5 28
M  V30 31 1 5 29
M  V30 32 1 7 30
M  V30 33 1 9 31
M  V30 34 1 10 32
M  V30 35 1 10 33
M  V30 36 1 12 34
M  V30 37 1 15 35
M  V30 38 1 17 36
M  V30 39 1 17 37
M  V30 40 1 17 38
M  V30 41 1 21 39
M  V30 42 1 21 40
M  V30 END BOND
M  V30 END CTAB
M  END
