
     RDKit          3D

  0  0  0  0  0  0  0  0  0  0999 V3000
M  V30 BEGIN CTAB
M  V30 COUNTS 56 59 0 0 0
M  V30 BEGIN ATOM
M  V30 1 N 5.14494 3.51361 1.03102 0
M  V30 2 C 5.07084 2.21613 0.457324 0
M  V30 3 N 6.15304 1.45307 0.222196 0
M  V30 4 C 6.06577 0.221385 -0.323939 0
M  V30 5 N 7.25275 -0.55535 -0.555549 0
M  V30 6 N 4.84596 -0.265466 -0.647475 0
M  V30 7 C 3.70925 0.431059 -0.446366 0
M  V30 8 C 3.8339 1.6772 0.109468 0
M  V30 9 N 2.43209 -0.0898686 -0.790534 0
M  V30 10 C 1.23315 0.688952 -0.546986 0
M  V30 11 C -0.0106842 -0.164407 -0.644218 0
M  V30 12 C 0.151584 -1.50695 0.00541054 0
M  V30 13 C 1.23615 -2.25212 -0.748051 0
M  V30 14 C 2.25991 -1.38422 -1.38488 0
M  V30 15 C 0.532838 -1.44302 1.4485 0
M  V30 16 C -0.383767 -0.609809 2.28011 0
M  V30 17 C -1.77128 -1.0909 2.02497 0
M  V30 18 O -2.60609 -0.851835 2.94831 0
M  V30 19 N -2.09741 -1.76484 0.8231 0
M  V30 20 C -1.1385 -2.27627 -0.122922 0
M  V30 21 C -3.51232 -1.95947 0.537376 0
M  V30 22 C -4.13423 -0.845909 -0.241382 0
M  V30 23 C -4.07999 0.486822 0.454337 0
M  V30 24 N -4.70093 1.52733 -0.359801 0
M  V30 25 C -5.98209 1.914 -0.363565 0
M  V30 26 C -6.14831 2.92663 -1.28045 0
M  V30 27 N -4.9405 3.14085 -1.82795 0
M  V30 28 C -4.07861 2.29393 -1.26672 0
M  V30 29 H 4.78046 4.31456 0.471885 0
M  V30 30 H 5.53541 3.73116 1.96889 0
M  V30 31 H 7.55444 -0.823783 -1.52299 0
M  V30 32 H 7.84263 -0.868878 0.256709 0
M  V30 33 H 2.96919 2.27274 0.290801 0
M  V30 34 H 1.23298 1.21734 0.410183 0
M  V30 35 H 1.2067 1.47761 -1.34746 0
M  V30 36 H -0.863085 0.415069 -0.299218 0
M  V30 37 H -0.175732 -0.357183 -1.73801 0
M  V30 38 H 1.65937 -3.01774 -0.0641495 0
M  V30 39 H 0.721638 -2.82442 -1.57108 0
M  V30 40 H 2.07632 -1.20834 -2.48553 0
M  V30 41 H 3.24766 -1.92658 -1.36688 0
M  V30 42 H 1.56744 -1.08387 1.61636 0
M  V30 43 H 0.502365 -2.48061 1.84812 0
M  V30 44 H -0.121653 -0.811916 3.35841 0
M  V30 45 H -0.253756 0.45911 2.12729 0
M  V30 46 H -0.956254 -3.37455 0.0749106 0
M  V30 47 H -1.58222 -2.16091 -1.1358 0
M  V30 48 H -3.69097 -2.92659 0.0388296 0
M  V30 49 H -4.08734 -2.0268 1.50747 0
M  V30 50 H -5.22034 -1.09127 -0.360493 0
M  V30 51 H -3.7049 -0.76854 -1.26444 0
M  V30 52 H -3.03865 0.77595 0.592619 0
M  V30 53 H -4.67806 0.428281 1.38951 0
M  V30 54 H -6.76873 1.4885 0.265316 0
M  V30 55 H -7.07484 3.46406 -1.52863 0
M  V30 56 H -3.01752 2.27706 -1.55246 0
M  V30 END ATOM
M  V30 BEGIN BOND
M  V30 1 1 1 2
M  V30 2 2 2 3
M  V30 3 1 3 4
M  V30 4 1 4 5
M  V30 5 2 4 6
M  V30 6 1 6 7
M  V30 7 2 7 8
M  V30 8 1 7 9
M  V30 9 1 9 10
M  V30 10 1 10 11
M  V30 11 1 11 12
M  V30 12 1 12 13
M  V30 13 1 13 14
M  V30 14 1 12 15
M  V30 15 1 15 16
M  V30 16 1 16 17
M  V30 17 2 17 18
M  V30 18 1 17 19
M  V30 19 1 19 20
M  V30 20 1 19 21
M  V30 21 1 21 22
M  V30 22 1 22 23
M  V30 23 1 23 24
M  V30 24 1 24 25
M  V30 25 2 25 26
M  V30 26 1 26 27
M  V30 27 2 27 28
M  V30 28 1 8 2
M  V30 29 1 14 9
M  V30 30 1 28 24
M  V30 31 1 20 12
M  V30 32 1 1 29
M  V30 33 1 1 30
M  V30 34 1 5 31
M  V30 35 1 5 32
M  V30 36 1 8 33
M  V30 37 1 10 34
M  V30 38 1 10 35
M  V30 39 1 11 36
M  V30 40 1 11 37
M  V30 41 1 13 38
M  V30 42 1 13 39
M  V30 43 1 14 40
M  V30 44 1 14 41
M  V30 45 1 15 42
M  V30 46 1 15 43
M  V30 47 1 16 44
M  V30 48 1 16 45
M  V30 49 1 20 46
M  V30 50 1 20 47
M  V30 51 1 21 48
M  V30 52 1 21 49
M  V30 53 1 22 50
M  V30 54 1 22 51
M  V30 55 1 23 52
M  V30 56 1 23 53
M  V30 57 1 25 54
M  V30 58 1 26 55
M  V30 59 1 28 56
M  V30 END BOND
M  V30 END CTAB
M  END
