
     RDKit          3D

  0  0  0  0  0  0  0  0  0  0999 V3000
M  V30 BEGIN CTAB
M  V30 COUNTS 18 19 0 0 0
M  V30 BEGIN ATOM
M  V30 1 N -2.99656 1.76522 -0.637276 0
M  V30 2 C -1.92222 0.892683 -0.273086 0
M  V30 3 C -2.15172 -0.275931 0.418324 0
M  V30 4 C -1.15008 -1.13774 0.785302 0
M  V30 5 C 0.144326 -0.812674 0.442779 0
M  V30 6 C 0.366615 0.356962 -0.248334 0
M  V30 7 N -0.651385 1.18103 -0.591892 0
M  V30 8 N 1.7033 0.422181 -0.44849 0
M  V30 9 C 2.30445 -0.64533 0.08415 0
M  V30 10 N 1.34172 -1.39212 0.625584 0
M  V30 11 N 3.70274 -0.961971 0.093259 0
M  V30 12 H -3.48008 2.35291 0.051112 0
M  V30 13 H -3.28052 1.79196 -1.62466 0
M  V30 14 H -3.17568 -0.511567 0.677051 0
M  V30 15 H -1.3399 -2.06602 1.33542 0
M  V30 16 H 2.1806 1.20246 -0.949679 0
M  V30 17 H 4.12562 -1.21938 1.01137 0
M  V30 18 H 4.27877 -0.942674 -0.750923 0
M  V30 END ATOM
M  V30 BEGIN BOND
M  V30 1 1 1 2
M  V30 2 2 2 3
M  V30 3 1 3 4
M  V30 4 2 4 5
M  V30 5 1 5 6
M  V30 6 2 6 7
M  V30 7 1 6 8
M  V30 8 1 8 9
M  V30 9 2 9 10
M  V30 10 1 9 11
M  V30 11 1 7 2
M  V30 12 1 10 5
M  V30 13 1 1 12
M  V30 14 1 1 13
M  V30 15 1 3 14
M  V30 16 1 4 15
M  V30 17 1 8 16
M  V30 18 1 11 17
M  V30 19 1 11 18
M  V30 END BOND
M  V30 END CTAB
M  END
