
     RDKit          3D

  0  0  0  0  0  0  0  0  0  0999 V3000
M  V30 BEGIN CTAB
M  V30 COUNTS 37 38 0 0 0
M  V30 BEGIN ATOM
M  V30 1 C -3.02171 -1.10965 0.424638 0
M  V30 2 C -1.66388 -0.843851 -0.264512 0
M  V30 3 C -0.982813 -2.17194 -0.328913 0
M  V30 4 C -0.91965 0.21644 0.53802 0
M  V30 5 C -0.692976 -0.386195 1.92885 0
M  V30 6 N -1.86941 1.3032 0.760815 0
M  V30 7 C -1.75569 2.53615 0.522758 0
M  V30 8 N -2.80706 3.46572 0.811879 0
M  V30 9 N -0.524869 2.9784 -0.0538316 0
M  V30 10 C 0.396894 2.1203 -0.301415 0
M  V30 11 N 1.65527 2.54036 -0.885842 0
M  V30 12 N 0.26756 0.721495 -0.0323142 0
M  V30 13 C 1.41136 -0.0929999 -0.38169 0
M  V30 14 C 2.40402 -0.396902 0.526399 0
M  V30 15 C 3.51333 -1.13844 0.194886 0
M  V30 16 C 3.63261 -1.59409 -1.10074 0
M  V30 17 Cl 5.06308 -2.54745 -1.51863 0
M  V30 18 C 2.66582 -1.3122 -2.0331 0
M  V30 19 C 1.56469 -0.564991 -1.66634 0
M  V30 20 H -3.71669 -1.37625 -0.410102 0
M  V30 21 H -3.37953 -0.215164 0.950385 0
M  V30 22 H -2.90318 -1.98875 1.07027 0
M  V30 23 H -1.82842 -0.430882 -1.27392 0
M  V30 24 H -0.112923 -2.23153 0.32253 0
M  V30 25 H -0.805569 -2.50941 -1.38231 0
M  V30 26 H -1.69718 -2.95688 0.0807137 0
M  V30 27 H -0.56852 0.437154 2.67137 0
M  V30 28 H -1.61677 -0.916475 2.21559 0
M  V30 29 H 0.197628 -1.03172 1.89989 0
M  V30 30 H -3.24965 3.43716 1.73515 0
M  V30 31 H -3.1079 4.14471 0.106156 0
M  V30 32 H 2.42232 2.79456 -0.225513 0
M  V30 33 H 1.78873 2.58665 -1.90522 0
M  V30 34 H 2.33067 -0.0395694 1.56432 0
M  V30 35 H 4.27702 -1.36311 0.924707 0
M  V30 36 H 2.80881 -1.69525 -3.03966 0
M  V30 37 H 0.824568 -0.368621 -2.44527 0
M  V30 END ATOM
M  V30 BEGIN BOND
M  V30 1 1 1 2
M  V30 2 1 2 3
M  V30 3 1 2 4
M  V30 4 1 4 5
M  V30 5 1 4 6
M  V30 6 2 6 7
M  V30 7 1 7 8
M  V30 8 1 7 9
M  V30 9 2 9 10
M  V30 10 1 10 11
M  V30 11 1 10 12
M  V30 12 1 12 13
M  V30 13 2 13 14
M  V30 14 1 14 15
M  V30 15 2 15 16
M  V30 16 1 16 17
M  V30 17 1 16 18
M  V30 18 2 18 19
M  V30 19 1 12 4
M  V30 20 1 19 13
M  V30 21 1 1 20
M  V30 22 1 1 21
M  V30 23 1 1 22
M  V30 24 1 2 23
M  V30 25 1 3 24
M  V30 26 1 3 25
M  V30 27 1 3 26
M  V30 28 1 5 27
M  V30 29 1 5 28
M  V30 30 1 5 29
M  V30 31 1 8 30
M  V30 32 1 8 31
M  V30 33 1 11 32
M  V30 34 1 11 33
M  V30 35 1 14 34
M  V30 36 1 15 35
M  V30 37 1 18 36
M  V30 38 1 19 37
M  V30 END BOND
M  V30 END CTAB
M  END
