
     RDKit          3D

  0  0  0  0  0  0  0  0  0  0999 V3000
M  V30 BEGIN CTAB
M  V30 COUNTS 30 30 0 0 0
M  V30 BEGIN ATOM
M  V30 1 C -3.75599 1.1236 0.999824 0
M  V30 2 C -3.31358 -0.290141 0.61448 0
M  V30 3 C -4.33459 -0.912542 -0.306207 0
M  V30 4 N -4.51043 -0.160607 -1.52144 0
M  V30 5 S -1.68812 -0.160235 -0.141361 0
M  V30 6 C -0.517537 0.392355 1.11058 0
M  V30 7 C 0.873265 0.513818 0.508654 0
M  V30 8 C 1.27845 1.69666 -0.0586061 0
M  V30 9 S 2.86323 1.30888 -0.563258 0
M  V30 10 C 2.91019 -0.323778 -0.0240188 0
M  V30 11 N 3.98177 -1.28035 -0.126976 0
M  V30 12 C 5.20314 -0.948736 -0.728168 0
M  V30 13 N 5.74225 0.364711 -0.679712 0
M  V30 14 N 5.8905 -1.84695 -1.35763 0
M  V30 15 N 1.70919 -0.471435 0.509255 0
M  V30 16 H -3.58579 1.82229 0.153077 0
M  V30 17 H -4.81578 1.14495 1.32229 0
M  V30 18 H -3.15385 1.43738 1.89179 0
M  V30 19 H -3.2661 -0.879818 1.55054 0
M  V30 20 H -5.29238 -0.963595 0.243007 0
M  V30 21 H -4.03404 -1.94491 -0.531645 0
M  V30 22 H -5.33868 -0.555178 -2.02375 0
M  V30 23 H -4.67393 0.83978 -1.26743 0
M  V30 24 H -0.814831 1.36584 1.53703 0
M  V30 25 H -0.517566 -0.37216 1.92629 0
M  V30 26 H 0.697348 2.63246 -0.144693 0
M  V30 27 H 3.80296 -2.21663 0.263295 0
M  V30 28 H 6.26502 0.715191 -1.49628 0
M  V30 29 H 5.59491 0.92482 0.165381 0
M  V30 30 H 6.80097 -1.66903 -1.82433 0
M  V30 END ATOM
M  V30 BEGIN BOND
M  V30 1 1 1 2
M  V30 2 1 2 3
M  V30 3 1 3 4
M  V30 4 1 2 5
M  V30 5 1 5 6
M  V30 6 1 6 7
M  V30 7 2 7 8
M  V30 8 1 8 9
M  V30 9 1 9 10
M  V30 10 1 10 11
M  V30 11 1 11 12
M  V30 12 1 12 13
M  V30 13 2 12 14 CFG=2
M  V30 14 2 10 15
M  V30 15 1 15 7
M  V30 16 1 1 16
M  V30 17 1 1 17
M  V30 18 1 1 18
M  V30 19 1 2 19
M  V30 20 1 3 20
M  V30 21 1 3 21
M  V30 22 1 4 22
M  V30 23 1 4 23
M  V30 24 1 6 24
M  V30 25 1 6 25
M  V30 26 1 8 26
M  V30 27 1 11 27
M  V30 28 1 13 28
M  V30 29 1 13 29
M  V30 30 1 14 30
M  V30 END BOND
M  V30 END CTAB
M  END
