
     RDKit          3D

  0  0  0  0  0  0  0  0  0  0999 V3000
M  V30 BEGIN CTAB
M  V30 COUNTS 31 32 0 0 0
M  V30 BEGIN ATOM
M  V30 1 N -5.73033 1.20186 0.272645 0
M  V30 2 C -4.56737 0.452976 -0.028731 0
M  V30 3 N -3.76733 0.0690812 0.986991 0
M  V30 4 C -2.64828 -0.641175 0.80435 0
M  V30 5 S -1.64163 -1.10939 2.19532 0
M  V30 6 C -0.40433 0.175842 2.51435 0
M  V30 7 C 0.568844 0.209175 1.37029 0
M  V30 8 C 1.85677 -0.00843482 1.56128 0
M  V30 9 C 2.85747 0.00557321 0.513991 0
M  V30 10 C 4.18958 -0.234059 0.851332 0
M  V30 11 C 5.17799 -0.231985 -0.113355 0
M  V30 12 C 4.85595 0.00836929 -1.42537 0
M  V30 13 C 3.55528 0.248226 -1.79334 0
M  V30 14 C 2.57564 0.239732 -0.796308 0
M  V30 15 N -2.30641 -0.986724 -0.444198 0
M  V30 16 C -3.08729 -0.618376 -1.49962 0
M  V30 17 N -4.20417 0.0951256 -1.27189 0
M  V30 18 N -2.67394 -1.00893 -2.79227 0
M  V30 19 H -6.52899 0.707977 0.711134 0
M  V30 20 H -5.82745 2.21443 0.0796346 0
M  V30 21 H 0.0931723 0.0923342 3.47669 0
M  V30 22 H -0.894581 1.19218 2.4856 0
M  V30 23 H 0.247116 0.410799 0.364043 0
M  V30 24 H 2.15593 -0.210762 2.59688 0
M  V30 25 H 4.44188 -0.420439 1.86964 0
M  V30 26 H 6.20928 -0.416256 0.142807 0
M  V30 27 H 5.65929 0.00239789 -2.15547 0
M  V30 28 H 3.2978 0.43442 -2.80569 0
M  V30 29 H 1.57825 0.431445 -1.13049 0
M  V30 30 H -3.33451 -1.46966 -3.43746 0
M  V30 31 H -1.70364 -0.835756 -3.10278 0
M  V30 END ATOM
M  V30 BEGIN BOND
M  V30 1 1 1 2
M  V30 2 2 2 3
M  V30 3 1 3 4
M  V30 4 1 4 5
M  V30 5 1 5 6
M  V30 6 1 6 7
M  V30 7 2 7 8
M  V30 8 1 8 9
M  V30 9 2 9 10
M  V30 10 1 10 11
M  V30 11 2 11 12
M  V30 12 1 12 13
M  V30 13 2 13 14
M  V30 14 2 4 15
M  V30 15 1 15 16
M  V30 16 2 16 17
M  V30 17 1 16 18
M  V30 18 1 17 2
M  V30 19 1 14 9
M  V30 20 1 1 19
M  V30 21 1 1 20
M  V30 22 1 6 21
M  V30 23 1 6 22
M  V30 24 1 7 23
M  V30 25 1 8 24
M  V30 26 1 10 25
M  V30 27 1 11 26
M  V30 28 1 12 27
M  V30 29 1 13 28
M  V30 30 1 14 29
M  V30 31 1 18 30
M  V30 32 1 18 31
M  V30 END BOND
M  V30 END CTAB
M  END
