
     RDKit          3D

  0  0  0  0  0  0  0  0  0  0999 V3000
M  V30 BEGIN CTAB
M  V30 COUNTS 24 25 0 0 0
M  V30 BEGIN ATOM
M  V30 1 N -2.92901 2.29774 -0.69778 0
M  V30 2 C -2.42835 1.09247 -0.146553 0
M  V30 3 C -2.89418 0.575728 1.05034 0
M  V30 4 C -2.3989 -0.594231 1.57233 0
M  V30 5 C -1.42202 -1.27203 0.900833 0
M  V30 6 C -0.925097 -0.796528 -0.296915 0
M  V30 7 C -1.43319 0.371508 -0.79882 0
M  V30 8 C 0.1409 -1.56288 -1.00182 0
M  V30 9 C 1.47177 -1.06115 -0.511693 0
M  V30 10 N 2.20182 -1.49215 0.511799 0
M  V30 11 N 3.3042 -0.943503 0.774967 0
M  V30 12 C 3.74698 0.0690292 0.0338288 0
M  V30 13 S 2.46469 0.206599 -1.1016 0
M  V30 14 N 4.95507 0.811739 0.171015 0
M  V30 15 H -3.88356 2.32218 -1.09414 0
M  V30 16 H -2.35318 3.15561 -0.709942 0
M  V30 17 H -3.66864 1.12033 1.57512 0
M  V30 18 H -2.78936 -0.979295 2.5254 0
M  V30 19 H -1.04829 -2.18608 1.32732 0
M  V30 20 H -1.07666 0.783871 -1.73249 0
M  V30 21 H 0.0601488 -1.46506 -2.09324 0
M  V30 22 H 0.0790562 -2.6229 -0.715313 0
M  V30 23 H 4.95723 1.80378 0.472193 0
M  V30 24 H 5.86857 0.365211 -0.0314737 0
M  V30 END ATOM
M  V30 BEGIN BOND
M  V30 1 1 1 2
M  V30 2 2 2 3
M  V30 3 1 3 4
M  V30 4 2 4 5
M  V30 5 1 5 6
M  V30 6 2 6 7
M  V30 7 1 6 8
M  V30 8 1 8 9
M  V30 9 2 9 10
M  V30 10 1 10 11
M  V30 11 2 11 12
M  V30 12 1 12 13
M  V30 13 1 12 14
M  V30 14 1 7 2
M  V30 15 1 13 9
M  V30 16 1 1 15
M  V30 17 1 1 16
M  V30 18 1 3 17
M  V30 19 1 4 18
M  V30 20 1 5 19
M  V30 21 1 7 20
M  V30 22 1 8 21
M  V30 23 1 8 22
M  V30 24 1 14 23
M  V30 25 1 14 24
M  V30 END BOND
M  V30 END CTAB
M  END
