
     RDKit          3D

  0  0  0  0  0  0  0  0  0  0999 V3000
M  V30 BEGIN CTAB
M  V30 COUNTS 27 27 0 0 0
M  V30 BEGIN ATOM
M  V30 1 N -0.33288 1.40532 0.360522 0
M  V30 2 C -0.74734 0.0942002 0.10757 0 CFG=1
M  V30 3 C -2.19372 0.140211 -0.29442 0
M  V30 4 C -2.96622 0.74889 0.860092 0
M  V30 5 C -2.78797 -1.18554 -0.608166 0
M  V30 6 C 0.15273 -0.477303 -0.940069 0
M  V30 7 C 1.54291 -0.449468 -0.411679 0
M  V30 8 N 2.15799 -1.41949 0.292867 0
M  V30 9 N 3.393 -1.03668 0.590685 0
M  V30 10 C 3.59923 0.186676 0.084788 0
M  V30 11 N 2.45283 0.534639 -0.528702 0
M  V30 12 N 4.81473 0.910986 0.211337 0
M  V30 13 H -0.302838 1.70094 1.24961 0
M  V30 14 H 0.088282 1.8625 -0.372885 0
M  V30 15 H -0.655905 -0.547899 1.02485 0
M  V30 16 H -2.28342 0.844836 -1.14928 0
M  V30 17 H -2.39301 1.60435 1.27836 0
M  V30 18 H -3.11507 -0.00876121 1.66154 0
M  V30 19 H -3.94993 1.07968 0.470122 0
M  V30 20 H -2.08939 -2.03496 -0.513391 0
M  V30 21 H -3.13951 -1.17772 -1.67996 0
M  V30 22 H -3.68775 -1.43904 -0.00996779 0
M  V30 23 H -0.0714232 -1.52257 -1.20633 0
M  V30 24 H 0.146552 0.198223 -1.83579 0
M  V30 25 H 1.76595 -2.3491 0.585589 0
M  V30 26 H 5.7489 0.416071 0.0997991 0
M  V30 27 H 4.85329 1.92099 0.411331 0
M  V30 END ATOM
M  V30 BEGIN BOND
M  V30 1 1 1 2
M  V30 2 1 2 3
M  V30 3 1 3 4
M  V30 4 1 3 5
M  V30 5 1 2 6
M  V30 6 1 6 7
M  V30 7 1 7 8
M  V30 8 1 8 9
M  V30 9 2 9 10
M  V30 10 1 10 11
M  V30 11 1 10 12
M  V30 12 2 11 7
M  V30 13 1 1 13
M  V30 14 1 1 14
M  V30 15 1 2 15 CFG=1
M  V30 16 1 3 16
M  V30 17 1 4 17
M  V30 18 1 4 18
M  V30 19 1 4 19
M  V30 20 1 5 20
M  V30 21 1 5 21
M  V30 22 1 5 22
M  V30 23 1 6 23
M  V30 24 1 6 24
M  V30 25 1 8 25
M  V30 26 1 12 26
M  V30 27 1 12 27
M  V30 END BOND
M  V30 END CTAB
M  END
