
     RDKit          3D

  0  0  0  0  0  0  0  0  0  0999 V3000
M  V30 BEGIN CTAB
M  V30 COUNTS 19 18 0 0 0
M  V30 BEGIN ATOM
M  V30 1 C -2.59661 0.616558 0.0583861 0
M  V30 2 C -1.19278 0.705979 0.518449 0
M  V30 3 C -0.344353 -0.494185 0.164771 0 CFG=2
M  V30 4 C 1.01245 -0.240484 0.693712 0
M  V30 5 O 1.14904 -0.0345541 1.92162 0
M  V30 6 N 2.11247 -0.232637 -0.165702 0
M  V30 7 N 3.43054 -0.00357428 0.235004 0
M  V30 8 N -0.278896 -0.704199 -1.25696 0
M  V30 9 H -2.88221 1.55807 -0.467456 0
M  V30 10 H -2.83863 -0.207355 -0.61138 0
M  V30 11 H -3.27115 0.569517 0.950564 0
M  V30 12 H -0.686976 1.59652 0.0615621 0
M  V30 13 H -1.13592 0.814445 1.63266 0
M  V30 14 H -0.714465 -1.41607 0.679151 0
M  V30 15 H 1.97875 -0.406237 -1.18567 0
M  V30 16 H 3.68426 -0.668078 0.996049 0
M  V30 17 H 3.55248 0.96244 0.63783 0
M  V30 18 H -1.21544 -0.814823 -1.68716 0
M  V30 19 H 0.237442 -1.60133 -1.42156 0
M  V30 END ATOM
M  V30 BEGIN BOND
M  V30 1 1 1 2
M  V30 2 1 2 3
M  V30 3 1 3 4
M  V30 4 2 4 5
M  V30 5 1 4 6
M  V30 6 1 6 7
M  V30 7 1 3 8
M  V30 8 1 1 9
M  V30 9 1 1 10
M  V30 10 1 1 11
M  V30 11 1 2 12
M  V30 12 1 2 13
M  V30 13 1 3 14 CFG=1
M  V30 14 1 6 15
M  V30 15 1 7 16
M  V30 16 1 7 17
M  V30 17 1 8 18
M  V30 18 1 8 19
M  V30 END BOND
M  V30 END CTAB
M  END
