
     RDKit          3D

  0  0  0  0  0  0  0  0  0  0999 V3000
M  V30 BEGIN CTAB
M  V30 COUNTS 25 25 0 0 0
M  V30 BEGIN ATOM
M  V30 1 O 3.9424 -0.13277 0.53449 0
M  V30 2 C 3.02318 0.733413 -0.00581988 0
M  V30 3 O 3.2573 1.9417 -0.093922 0
M  V30 4 C 1.73224 0.176837 -0.484173 0
M  V30 5 C 0.669375 0.915547 0.271694 0
M  V30 6 C -0.714406 0.55045 -0.00919734 0
M  V30 7 C -1.44769 1.30272 -0.947677 0
M  V30 8 C -2.73878 0.943757 -1.23665 0
M  V30 9 F -3.44165 1.6732 -2.14319 0
M  V30 10 C -3.31062 -0.151668 -0.606161 0
M  V30 11 C -2.60007 -0.888483 0.310429 0
M  V30 12 C -1.28695 -0.532443 0.612329 0
M  V30 13 N -0.639615 -1.33271 1.60087 0
M  V30 14 N 1.74528 -1.2447 -0.258831 0
M  V30 15 H 3.87101 -0.629392 1.39316 0
M  V30 16 H 1.59846 0.401251 -1.5842 0
M  V30 17 H 0.799822 2.00143 0.0529801 0
M  V30 18 H 0.878594 0.760388 1.35918 0
M  V30 19 H -0.96686 2.15681 -1.42319 0
M  V30 20 H -4.32172 -0.443827 -0.824586 0
M  V30 21 H -3.0575 -1.73797 0.793647 0
M  V30 22 H -0.464147 -2.35162 1.5158 0
M  V30 23 H -0.337515 -0.790354 2.46566 0
M  V30 24 H 1.07159 -1.76122 -0.868809 0
M  V30 25 H 2.73828 -1.56034 -0.423825 0
M  V30 END ATOM
M  V30 BEGIN BOND
M  V30 1 1 1 2
M  V30 2 2 2 3
M  V30 3 1 2 4
M  V30 4 1 4 5
M  V30 5 1 5 6
M  V30 6 2 6 7
M  V30 7 1 7 8
M  V30 8 1 8 9
M  V30 9 2 8 10
M  V30 10 1 10 11
M  V30 11 2 11 12
M  V30 12 1 12 13
M  V30 13 1 4 14
M  V30 14 1 12 6
M  V30 15 1 1 15
M  V30 16 1 4 16
M  V30 17 1 5 17
M  V30 18 1 5 18
M  V30 19 1 7 19
M  V30 20 1 10 20
M  V30 21 1 11 21
M  V30 22 1 13 22
M  V30 23 1 13 23
M  V30 24 1 14 24
M  V30 25 1 14 25
M  V30 END BOND
M  V30 END CTAB
M  END
