
     RDKit          3D

  0  0  0  0  0  0  0  0  0  0999 V3000
M  V30 BEGIN CTAB
M  V30 COUNTS 34 37 0 0 0
M  V30 BEGIN ATOM
M  V30 1 N -0.985142 2.21849 -1.56083 0
M  V30 2 C 0.143252 1.49124 -0.994984 0
M  V30 3 C 0.326498 1.70951 0.458645 0
M  V30 4 N -0.620476 2.60428 1.05771 0
M  V30 5 C 0.248615 0.386508 1.25474 0
M  V30 6 C -1.01249 -0.266771 0.817244 0
M  V30 7 C -2.00149 -0.648356 1.68535 0
M  V30 8 C -3.14088 -1.25573 1.14263 0
M  V30 9 C -3.28241 -1.47198 -0.219664 0
M  V30 10 C -2.25329 -1.0688 -1.06694 0
M  V30 11 C -1.13286 -0.472563 -0.542914 0
M  V30 12 C 0.0235368 -0.00208742 -1.34578 0
M  V30 13 C 1.22757 -0.638723 -0.7043 0
M  V30 14 C 1.33926 -0.430374 0.65555 0
M  V30 15 C 2.36244 -0.925609 1.41804 0
M  V30 16 C 3.32305 -1.67983 0.726837 0
M  V30 17 C 3.20615 -1.88419 -0.62954 0
M  V30 18 C 2.16083 -1.36906 -1.36399 0
M  V30 19 H -1.04645 1.92339 -2.56703 0
M  V30 20 H -0.703237 3.24312 -1.60951 0
M  V30 21 H 1.03947 1.83712 -1.58833 0
M  V30 22 H 1.36004 2.09439 0.633779 0
M  V30 23 H -0.229911 2.88397 1.99486 0
M  V30 24 H -0.879327 3.41468 0.470339 0
M  V30 25 H 0.334727 0.553767 2.31665 0
M  V30 26 H -1.95693 -0.511298 2.74857 0
M  V30 27 H -3.94339 -1.56842 1.81881 0
M  V30 28 H -4.16126 -1.94067 -0.639926 0
M  V30 29 H -2.305 -1.21072 -2.14318 0
M  V30 30 H -0.0470098 -0.173259 -2.40662 0
M  V30 31 H 2.44793 -0.760563 2.48586 0
M  V30 32 H 4.15707 -2.09656 1.28483 0
M  V30 33 H 3.9575 -2.47095 -1.15472 0
M  V30 34 H 2.0436 -1.51396 -2.43218 0
M  V30 END ATOM
M  V30 BEGIN BOND
M  V30 1 1 1 2
M  V30 2 1 2 3
M  V30 3 1 3 4
M  V30 4 1 3 5
M  V30 5 1 5 6
M  V30 6 2 6 7
M  V30 7 1 7 8
M  V30 8 2 8 9
M  V30 9 1 9 10
M  V30 10 2 10 11
M  V30 11 1 11 12
M  V30 12 1 12 13
M  V30 13 2 13 14
M  V30 14 1 14 15
M  V30 15 2 15 16
M  V30 16 1 16 17
M  V30 17 2 17 18
M  V30 18 1 12 2
M  V30 19 1 18 13
M  V30 20 1 14 5
M  V30 21 1 11 6
M  V30 22 1 1 19
M  V30 23 1 1 20
M  V30 24 1 2 21
M  V30 25 1 3 22
M  V30 26 1 4 23
M  V30 27 1 4 24
M  V30 28 1 5 25
M  V30 29 1 7 26
M  V30 30 1 8 27
M  V30 31 1 9 28
M  V30 32 1 10 29
M  V30 33 1 12 30
M  V30 34 1 15 31
M  V30 35 1 16 32
M  V30 36 1 17 33
M  V30 37 1 18 34
M  V30 END BOND
M  V30 END CTAB
M  END
