
     RDKit          3D

  0  0  0  0  0  0  0  0  0  0999 V3000
M  V30 BEGIN CTAB
M  V30 COUNTS 41 42 0 0 0
M  V30 BEGIN ATOM
M  V30 1 N -3.81447 -2.14353 0.420103 0
M  V30 2 C -3.92531 -0.693646 0.305659 0
M  V30 3 C -4.03195 -0.204581 -1.08683 0
M  V30 4 C -4.17329 1.28884 -1.32941 0
M  V30 5 C -2.92805 0.509606 -1.75504 0
M  V30 6 C -2.8223 -0.0875223 1.11832 0
M  V30 7 N -1.54628 -0.552539 0.651464 0
M  V30 8 C -0.364326 -0.108313 1.27419 0
M  V30 9 O -0.354777 0.698094 2.2474 0
M  V30 10 C 0.943716 -0.589376 0.790315 0
M  V30 11 C 2.09512 -0.01655 1.56468 0
M  V30 12 C 2.64628 1.23492 0.960991 0
M  V30 13 N 3.12507 0.983498 -0.355051 0
M  V30 14 C 2.52275 -0.139785 -1.0063 0
M  V30 15 C 1.04123 -0.239367 -0.679648 0
M  V30 16 S 4.82895 0.936383 -0.477401 0
M  V30 17 O 5.30353 0.664326 -1.85939 0
M  V30 18 O 5.4375 2.24514 -0.0463002 0
M  V30 19 N 5.40015 -0.364765 0.523366 0
M  V30 20 H -3.073 -2.43659 1.08632 0
M  V30 21 H -3.71402 -2.59601 -0.51524 0
M  V30 22 H -4.89001 -0.380928 0.836444 0
M  V30 23 H -4.67984 -0.845652 -1.75347 0
M  V30 24 H -4.09983 1.95157 -0.454868 0
M  V30 25 H -4.86888 1.61812 -2.11473 0
M  V30 26 H -2.81258 0.404034 -2.88139 0
M  V30 27 H -1.99875 0.849348 -1.30609 0
M  V30 28 H -2.92886 -0.36932 2.20801 0
M  V30 29 H -2.8309 1.02069 1.02753 0
M  V30 30 H -1.49659 -1.21066 -0.138526 0
M  V30 31 H 1.03545 -1.70073 0.850651 0
M  V30 32 H 2.91085 -0.751116 1.72929 0
M  V30 33 H 1.69727 0.246668 2.58684 0
M  V30 34 H 1.94687 2.08835 1.04001 0
M  V30 35 H 3.53611 1.52899 1.5876 0
M  V30 36 H 2.99331 -1.06353 -0.611955 0
M  V30 37 H 2.69222 -0.154128 -2.10087 0
M  V30 38 H 0.625965 -1.06355 -1.27221 0
M  V30 39 H 0.563088 0.730981 -0.880283 0
M  V30 40 H 5.20778 -0.092931 1.51316 0
M  V30 41 H 4.80079 -1.19444 0.318353 0
M  V30 END ATOM
M  V30 BEGIN BOND
M  V30 1 1 1 2
M  V30 2 1 2 3
M  V30 3 1 3 4
M  V30 4 1 4 5
M  V30 5 1 2 6
M  V30 6 1 6 7
M  V30 7 1 7 8
M  V30 8 2 8 9
M  V30 9 1 8 10
M  V30 10 1 10 11
M  V30 11 1 11 12
M  V30 12 1 12 13
M  V30 13 1 13 14
M  V30 14 1 14 15
M  V30 15 1 13 16
M  V30 16 2 16 17
M  V30 17 2 16 18
M  V30 18 1 16 19
M  V30 19 1 5 3
M  V30 20 1 15 10
M  V30 21 1 1 20
M  V30 22 1 1 21
M  V30 23 1 2 22
M  V30 24 1 3 23
M  V30 25 1 4 24
M  V30 26 1 4 25
M  V30 27 1 5 26
M  V30 28 1 5 27
M  V30 29 1 6 28
M  V30 30 1 6 29
M  V30 31 1 7 30
M  V30 32 1 10 31
M  V30 33 1 11 32
M  V30 34 1 11 33
M  V30 35 1 12 34
M  V30 36 1 12 35
M  V30 37 1 14 36
M  V30 38 1 14 37
M  V30 39 1 15 38
M  V30 40 1 15 39
M  V30 41 1 19 40
M  V30 42 1 19 41
M  V30 END BOND
M  V30 END CTAB
M  END
