
     RDKit          3D

  0  0  0  0  0  0  0  0  0  0999 V3000
M  V30 BEGIN CTAB
M  V30 COUNTS 22 22 0 0 0
M  V30 BEGIN ATOM
M  V30 1 N 4.65474 -0.25152 -0.109961 0
M  V30 2 C 3.30505 -0.679952 -0.138707 0
M  V30 3 N 2.81226 -1.045 -1.26361 0
M  V30 4 N 2.56324 -0.686473 1.06841 0
M  V30 5 C 1.17051 -0.379106 0.998958 0
M  V30 6 N 0.400639 -0.365485 2.10281 0
M  V30 7 N -0.895647 -0.0767319 2.0187 0
M  V30 8 C -1.49092 0.210704 0.848471 0
M  V30 9 N -2.87726 0.517642 0.772347 0
M  V30 10 C -3.48394 0.817505 -0.47084 0
M  V30 11 N -4.04609 -0.214831 -1.26008 0
M  V30 12 N -3.52323 2.02997 -0.881628 0
M  V30 13 N -0.721367 0.19692 -0.253676 0
M  V30 14 N 0.571601 -0.0911786 -0.169188 0
M  V30 15 H 5.43441 -0.827097 -0.513645 0
M  V30 16 H 4.85281 0.673207 0.334354 0
M  V30 17 H 3.37065 -1.03166 -2.12727 0
M  V30 18 H 3.05794 -0.910535 1.93269 0
M  V30 19 H -3.46849 0.527398 1.62528 0
M  V30 20 H -5.00346 -0.135674 -1.69174 0
M  V30 21 H -3.54468 -1.1194 -1.46264 0
M  V30 22 H -3.13876 2.84129 -0.370994 0
M  V30 END ATOM
M  V30 BEGIN BOND
M  V30 1 1 1 2
M  V30 2 2 2 3 CFG=2
M  V30 3 1 2 4
M  V30 4 1 4 5
M  V30 5 2 5 6
M  V30 6 1 6 7
M  V30 7 2 7 8
M  V30 8 1 8 9
M  V30 9 1 9 10
M  V30 10 1 10 11
M  V30 11 2 10 12 CFG=2
M  V30 12 1 8 13
M  V30 13 2 13 14
M  V30 14 1 14 5
M  V30 15 1 1 15
M  V30 16 1 1 16
M  V30 17 1 3 17
M  V30 18 1 4 18
M  V30 19 1 9 19
M  V30 20 1 11 20
M  V30 21 1 11 21
M  V30 22 1 12 22
M  V30 END BOND
M  V30 END CTAB
M  END
