
     RDKit          3D

  0  0  0  0  0  0  0  0  0  0999 V3000
M  V30 BEGIN CTAB
M  V30 COUNTS 24 24 0 0 0
M  V30 BEGIN ATOM
M  V30 1 C 3.28269 -1.24183 -0.083762 0
M  V30 2 N 2.57365 -0.0328016 0.24005 0
M  V30 3 C 1.18036 0.0598829 0.0314972 0
M  V30 4 C 0.458202 -0.996139 -0.485321 0
M  V30 5 C -0.921609 -0.916001 -0.696206 0
M  V30 6 C -1.59074 0.231661 -0.388017 0
M  V30 7 C -0.895823 1.30706 0.131233 0
M  V30 8 C 0.473521 1.20572 0.332444 0
M  V30 9 S -3.32248 0.408666 -0.624502 0
M  V30 10 O -3.74098 -0.40368 -1.82316 0
M  V30 11 O -3.63867 1.85889 -0.956017 0
M  V30 12 N -4.11674 -0.0945794 0.807358 0
M  V30 13 N 3.24791 1.06261 0.762894 0
M  V30 14 H 3.41266 -1.34616 -1.18889 0
M  V30 15 H 2.71819 -2.16483 0.237112 0
M  V30 16 H 4.26419 -1.31536 0.446674 0
M  V30 17 H 0.94486 -1.91521 -0.740704 0
M  V30 18 H -1.48156 -1.76019 -1.10633 0
M  V30 19 H -1.44488 2.22488 0.375285 0
M  V30 20 H 1.0231 2.03475 0.735157 0
M  V30 21 H -4.89711 -0.788079 0.611339 0
M  V30 22 H -3.45503 -0.589239 1.44548 0
M  V30 23 H 2.86384 1.23378 1.7199 0
M  V30 24 H 3.06246 1.9362 0.216499 0
M  V30 END ATOM
M  V30 BEGIN BOND
M  V30 1 1 1 2
M  V30 2 1 2 3
M  V30 3 2 3 4
M  V30 4 1 4 5
M  V30 5 2 5 6
M  V30 6 1 6 7
M  V30 7 2 7 8
M  V30 8 1 6 9
M  V30 9 2 9 10
M  V30 10 2 9 11
M  V30 11 1 9 12
M  V30 12 1 2 13
M  V30 13 1 8 3
M  V30 14 1 1 14
M  V30 15 1 1 15
M  V30 16 1 1 16
M  V30 17 1 4 17
M  V30 18 1 5 18
M  V30 19 1 7 19
M  V30 20 1 8 20
M  V30 21 1 12 21
M  V30 22 1 12 22
M  V30 23 1 13 23
M  V30 24 1 13 24
M  V30 END BOND
M  V30 END CTAB
M  END
