
     RDKit          3D

  0  0  0  0  0  0  0  0  0  0999 V3000
M  V30 BEGIN CTAB
M  V30 COUNTS 52 56 0 0 0
M  V30 BEGIN ATOM
M  V30 1 N -0.789555 2.99123 1.08624 0
M  V30 2 C -1.01768 1.92912 0.612431 0
M  V30 3 C -1.23593 0.629628 0.048052 0
M  V30 4 C -0.149468 -0.176763 -0.279324 0
M  V30 5 N -0.312459 -1.41331 -0.779206 0
M  V30 6 C -1.51077 -1.95242 -0.997161 0
M  V30 7 C -2.61749 -1.18974 -0.68901 0
M  V30 8 C -2.48871 0.117021 -0.160067 0
M  V30 9 C -3.6206 0.866191 0.140265 0
M  V30 10 C -3.81699 2.20861 0.68544 0
M  V30 11 C -5.31433 2.35583 0.728804 0
M  V30 12 O -5.92178 3.36011 1.12186 0
M  V30 13 N -5.88105 1.16183 0.248446 0
M  V30 14 C -4.84254 0.26015 -0.107996 0
M  V30 15 N -4.93387 -0.974008 -0.607278 0
M  V30 16 C -3.85764 -1.7162 -0.904835 0
M  V30 17 N -4.02404 -3.03524 -1.43883 0
M  V30 18 C -7.31994 0.865094 0.123486 0
M  V30 19 N -1.67244 -3.26409 -1.52696 0
M  V30 20 N 1.18492 0.286422 -0.133106 0
M  V30 21 C 2.13553 -0.69431 0.435171 0
M  V30 22 C 3.22854 -0.852089 -0.616612 0
M  V30 23 N 3.83549 0.444416 -0.734424 0
M  V30 24 C 2.93186 1.43328 -1.39869 0
M  V30 25 C 1.68621 1.56657 -0.501567 0
M  V30 26 C 5.06589 0.907976 -0.31435 0
M  V30 27 O 5.32004 2.14629 -0.612794 0
M  V30 28 C 6.12891 0.243161 0.409121 0
M  V30 29 C 6.24154 -1.0189 0.931389 0
M  V30 30 C 7.49597 -1.11447 1.52452 0
M  V30 31 C 8.10525 0.0968007 1.34261 0
M  V30 32 O 7.28584 0.849955 0.696827 0
M  V30 33 H -3.49004 3.03861 0.0211595 0
M  V30 34 H -3.5244 2.32834 1.74997 0
M  V30 35 H -4.08216 -3.16879 -2.46796 0
M  V30 36 H -4.09286 -3.85296 -0.825217 0
M  V30 37 H -7.46055 -0.214248 -0.0895827 0
M  V30 38 H -7.77284 1.47082 -0.676642 0
M  V30 39 H -7.78981 1.05077 1.10978 0
M  V30 40 H -1.73574 -4.10981 -0.88619 0
M  V30 41 H -1.73103 -3.47323 -2.55076 0
M  V30 42 H 1.67123 -1.69363 0.534778 0
M  V30 43 H 2.5594 -0.334548 1.37547 0
M  V30 44 H 2.67516 -1.01445 -1.59681 0
M  V30 45 H 3.87539 -1.69506 -0.480355 0
M  V30 46 H 2.63689 1.02682 -2.38693 0
M  V30 47 H 3.39871 2.41602 -1.44774 0
M  V30 48 H 2.02502 2.14839 0.362894 0
M  V30 49 H 0.949109 2.09015 -1.15403 0
M  V30 50 H 5.53681 -1.80857 0.923282 0
M  V30 51 H 7.94014 -1.95334 2.03538 0
M  V30 52 H 9.09286 0.43058 1.65688 0
M  V30 END ATOM
M  V30 BEGIN BOND
M  V30 1 3 1 2
M  V30 2 1 2 3
M  V30 3 2 3 4
M  V30 4 1 4 5
M  V30 5 2 5 6
M  V30 6 1 6 7
M  V30 7 2 7 8
M  V30 8 1 8 9
M  V30 9 1 9 10
M  V30 10 1 10 11
M  V30 11 2 11 12
M  V30 12 1 11 13
M  V30 13 1 13 14
M  V30 14 1 14 15
M  V30 15 2 15 16
M  V30 16 1 16 17
M  V30 17 1 13 18
M  V30 18 1 6 19
M  V30 19 1 4 20
M  V30 20 1 20 21
M  V30 21 1 21 22
M  V30 22 1 22 23
M  V30 23 1 23 24
M  V30 24 1 24 25
M  V30 25 1 23 26
M  V30 26 2 26 27
M  V30 27 1 26 28
M  V30 28 2 28 29
M  V30 29 1 29 30
M  V30 30 2 30 31
M  V30 31 1 31 32
M  V30 32 1 8 3
M  V30 33 2 14 9
M  V30 34 1 25 20
M  V30 35 1 32 28
M  V30 36 1 16 7
M  V30 37 1 10 33
M  V30 38 1 10 34
M  V30 39 1 17 35
M  V30 40 1 17 36
M  V30 41 1 18 37
M  V30 42 1 18 38
M  V30 43 1 18 39
M  V30 44 1 19 40
M  V30 45 1 19 41
M  V30 46 1 21 42
M  V30 47 1 21 43
M  V30 48 1 22 44
M  V30 49 1 22 45
M  V30 50 1 24 46
M  V30 51 1 24 47
M  V30 52 1 25 48
M  V30 53 1 25 49
M  V30 54 1 29 50
M  V30 55 1 30 51
M  V30 56 1 31 52
M  V30 END BOND
M  V30 END CTAB
M  END
