
     RDKit          3D

  0  0  0  0  0  0  0  0  0  0999 V3000
M  V30 BEGIN CTAB
M  V30 COUNTS 25 25 0 0 0
M  V30 BEGIN ATOM
M  V30 1 C -4.06029 -0.164003 0.295541 0
M  V30 2 C -3.35603 0.144782 -0.983485 0
M  V30 3 O -1.9694 -0.11554 -0.945187 0
M  V30 4 C -1.09087 0.474035 -0.0863861 0
M  V30 5 O -1.48988 1.3127 0.747353 0
M  V30 6 C 0.329348 0.0976811 -0.168527 0
M  V30 7 C 0.753003 -0.826681 -1.09132 0
M  V30 8 C 2.08189 -1.18007 -1.16963 0
M  V30 9 F 2.47413 -2.09697 -2.09154 0
M  V30 10 C 2.98886 -0.590418 -0.304066 0
M  V30 11 C 2.57367 0.335345 0.622273 0
M  V30 12 C 1.24556 0.669786 0.679801 0
M  V30 13 N 0.840846 1.63871 1.65639 0
M  V30 14 N 4.35993 -0.962391 -0.393047 0
M  V30 15 H -4.90912 -0.886102 0.155027 0
M  V30 16 H -4.52468 0.796184 0.654492 0
M  V30 17 H -3.43264 -0.552357 1.09603 0
M  V30 18 H -3.77664 -0.552244 -1.76662 0
M  V30 19 H -3.51514 1.17455 -1.35617 0
M  V30 20 H 0.0174082 -1.28922 -1.77596 0
M  V30 21 H 3.31493 0.792516 1.30231 0
M  V30 22 H 1.12318 2.62311 1.53876 0
M  V30 23 H 0.274089 1.36211 2.46952 0
M  V30 24 H 5.10652 -0.348631 -0.00812879 0
M  V30 25 H 4.64131 -1.85688 -0.845651 0
M  V30 END ATOM
M  V30 BEGIN BOND
M  V30 1 1 1 2
M  V30 2 1 2 3
M  V30 3 1 3 4
M  V30 4 2 4 5
M  V30 5 1 4 6
M  V30 6 2 6 7
M  V30 7 1 7 8
M  V30 8 1 8 9
M  V30 9 2 8 10
M  V30 10 1 10 11
M  V30 11 2 11 12
M  V30 12 1 12 13
M  V30 13 1 10 14
M  V30 14 1 12 6
M  V30 15 1 1 15
M  V30 16 1 1 16
M  V30 17 1 1 17
M  V30 18 1 2 18
M  V30 19 1 2 19
M  V30 20 1 7 20
M  V30 21 1 11 21
M  V30 22 1 13 22
M  V30 23 1 13 23
M  V30 24 1 14 24
M  V30 25 1 14 25
M  V30 END BOND
M  V30 END CTAB
M  END
