
     RDKit          3D

  0  0  0  0  0  0  0  0  0  0999 V3000
M  V30 BEGIN CTAB
M  V30 COUNTS 26 27 0 0 0
M  V30 BEGIN ATOM
M  V30 1 N 1.67356 1.23893 0.337477 0
M  V30 2 N 1.83451 -0.156938 0.193611 0
M  V30 3 C 3.02793 -0.787719 0.022625 0
M  V30 4 N 4.30277 -0.136163 -0.0378614 0
M  V30 5 N 2.75353 -2.09006 -0.0714745 0
M  V30 6 N 1.46471 -2.32062 0.0291365 0
M  V30 7 C 0.887106 -1.1135 0.195017 0
M  V30 8 C -0.583321 -0.883969 0.355183 0
M  V30 9 C -1.16841 -0.489668 -0.972571 0
M  V30 10 C -2.62745 -0.184288 -0.730495 0
M  V30 11 C -2.79837 0.836994 0.34852 0
M  V30 12 C -1.69087 0.935753 1.31993 0
M  V30 13 O -0.759632 -0.0165605 1.36029 0
M  V30 14 H 1.39391 1.6795 1.23239 0
M  V30 15 H 1.83449 1.88187 -0.468814 0
M  V30 16 H 4.53827 0.656866 0.595913 0
M  V30 17 H 4.98812 -0.485607 -0.741274 0
M  V30 18 H -1.07311 -1.86436 0.632141 0
M  V30 19 H -0.628265 0.308932 -1.4789 0
M  V30 20 H -1.14474 -1.40511 -1.61674 0
M  V30 21 H -3.09156 -1.14944 -0.374493 0
M  V30 22 H -3.05291 0.139683 -1.70361 0
M  V30 23 H -3.76658 0.606921 0.868623 0
M  V30 24 H -3.00106 1.82106 -0.171688 0
M  V30 25 H -2.13108 1.04388 2.35772 0
M  V30 26 H -1.18158 1.93361 1.15505 0
M  V30 END ATOM
M  V30 BEGIN BOND
M  V30 1 1 1 2
M  V30 2 1 2 3
M  V30 3 1 3 4
M  V30 4 2 3 5
M  V30 5 1 5 6
M  V30 6 2 6 7
M  V30 7 1 7 8
M  V30 8 1 8 9
M  V30 9 1 9 10
M  V30 10 1 10 11
M  V30 11 1 11 12
M  V30 12 1 12 13
M  V30 13 1 7 2
M  V30 14 1 13 8
M  V30 15 1 1 14
M  V30 16 1 1 15
M  V30 17 1 4 16
M  V30 18 1 4 17
M  V30 19 1 8 18
M  V30 20 1 9 19
M  V30 21 1 9 20
M  V30 22 1 10 21
M  V30 23 1 10 22
M  V30 24 1 11 23
M  V30 25 1 11 24
M  V30 26 1 12 25
M  V30 27 1 12 26
M  V30 END BOND
M  V30 END CTAB
M  END
