
     RDKit          3D

  0  0  0  0  0  0  0  0  0  0999 V3000
M  V30 BEGIN CTAB
M  V30 COUNTS 72 72 0 0 0
M  V30 BEGIN ATOM
M  V30 1 C 7.95389 1.03788 -2.83235 0
M  V30 2 C 7.38282 -0.284661 -2.51299 0
M  V30 3 C 6.09072 -0.389506 -1.82172 0
M  V30 4 C 6.00711 0.182179 -0.449038 0
M  V30 5 C 6.11728 1.64053 -0.350295 0
M  V30 6 C 5.10489 2.43868 -1.04681 0
M  V30 7 C 3.71572 2.42525 -0.58517 0
M  V30 8 C 2.99185 1.14189 -0.554843 0
M  V30 9 O 1.61166 1.42647 -0.155239 0
M  V30 10 C 0.677391 0.429052 -0.0535855 0
M  V30 11 O 1.05518 -0.758737 -0.339629 0
M  V30 12 C -0.703854 0.650763 0.35897 0 CFG=2
M  V30 13 C -0.835868 1.081 1.82864 0
M  V30 14 C -0.115039 2.34715 2.08325 0
M  V30 15 C -0.263599 2.7945 3.53139 0
M  V30 16 C -1.69609 3.0276 3.90913 0
M  V30 17 N -1.72362 3.44759 5.29629 0
M  V30 18 N -1.51719 -0.552843 0.279133 0
M  V30 19 C -2.88103 -0.450054 -0.0522926 0
M  V30 20 O -3.35649 0.701323 -0.272144 0
M  V30 21 C -3.695 -1.67569 -0.124327 0 CFG=2
M  V30 22 C -3.22941 -2.63872 -1.2243 0
M  V30 23 C -4.18899 -3.79897 -1.11377 0
M  V30 24 C -4.06086 -4.94366 -0.34559 0
M  V30 25 N -5.13152 -5.73636 -0.517478 0
M  V30 26 C -5.93342 -5.10464 -1.3852 0
M  V30 27 N -5.37209 -3.92518 -1.75612 0
M  V30 28 N -5.11146 -1.38082 -0.340923 0
M  V30 29 C -6.04767 -1.75351 0.649213 0
M  V30 30 O -5.73042 -2.33268 1.72904 0
M  V30 31 C -7.50484 -1.49491 0.506596 0
M  V30 32 N -7.72191 -0.828164 -0.758508 0
M  V30 33 H 8.57974 0.922737 -3.78673 0
M  V30 34 H 7.24336 1.81501 -3.07943 0
M  V30 35 H 8.75043 1.33802 -2.09326 0
M  V30 36 H 7.29948 -0.882361 -3.49226 0
M  V30 37 H 8.17656 -0.865415 -1.91849 0
M  V30 38 H 5.26772 0.0564782 -2.47205 0
M  V30 39 H 5.82951 -1.50534 -1.80048 0
M  V30 40 H 5.18596 -0.316719 0.0713772 0
M  V30 41 H 6.9231 -0.276246 0.155789 0
M  V30 42 H 6.09583 1.91542 0.793877 0
M  V30 43 H 7.14573 1.99495 -0.595011 0
M  V30 44 H 5.45838 3.52593 -1.18053 0
M  V30 45 H 5.07831 2.10474 -2.13863 0
M  V30 46 H 3.11022 3.18587 -1.19577 0
M  V30 47 H 3.66308 2.93076 0.458349 0
M  V30 48 H 3.00526 0.515744 -1.41539 0
M  V30 49 H 3.33965 0.613578 0.401615 0
M  V30 50 H -1.13917 1.50044 -0.198263 0
M  V30 51 H -0.399887 0.256833 2.45327 0
M  V30 52 H -1.90563 1.23924 1.99061 0
M  V30 53 H -0.379694 3.14825 1.39312 0
M  V30 54 H 0.98987 2.1581 1.9798 0
M  V30 55 H 0.25538 2.09045 4.1962 0
M  V30 56 H 0.270728 3.76695 3.61848 0
M  V30 57 H -2.08073 3.83352 3.23345 0
M  V30 58 H -2.31404 2.10532 3.78724 0
M  V30 59 H -2.64324 3.74208 5.64059 0
M  V30 60 H -1.03255 4.21773 5.41239 0
M  V30 61 H -1.08207 -1.46247 0.463492 0
M  V30 62 H -3.58024 -2.2234 0.823218 0
M  V30 63 H -3.36189 -2.20687 -2.22948 0
M  V30 64 H -2.21971 -2.97137 -1.01195 0
M  V30 65 H -3.18666 -5.13337 0.297908 0
M  V30 66 H -5.30284 -6.65502 -0.0662617 0
M  V30 67 H -6.8889 -5.45434 -1.75276 0
M  V30 68 H -5.38953 -0.907583 -1.21966 0
M  V30 69 H -8.00552 -2.51107 0.448805 0
M  V30 70 H -7.90712 -0.948927 1.37252 0
M  V30 71 H -7.22428 0.0597279 -0.880122 0
M  V30 72 H -7.51269 -1.44016 -1.57381 0
M  V30 END ATOM
M  V30 BEGIN BOND
M  V30 1 1 1 2
M  V30 2 1 2 3
M  V30 3 1 3 4
M  V30 4 1 4 5
M  V30 5 1 5 6
M  V30 6 1 6 7
M  V30 7 1 7 8
M  V30 8 1 8 9
M  V30 9 1 9 10
M  V30 10 2 10 11
M  V30 11 1 10 12
M  V30 12 1 12 13
M  V30 13 1 13 14
M  V30 14 1 14 15
M  V30 15 1 15 16
M  V30 16 1 16 17
M  V30 17 1 12 18
M  V30 18 1 18 19
M  V30 19 2 19 20
M  V30 20 1 19 21
M  V30 21 1 21 22
M  V30 22 1 22 23
M  V30 23 2 23 24
M  V30 24 1 24 25
M  V30 25 1 25 26
M  V30 26 2 26 27
M  V30 27 1 21 28
M  V30 28 1 28 29
M  V30 29 2 29 30
M  V30 30 1 29 31
M  V30 31 1 31 32
M  V30 32 1 27 23
M  V30 33 1 1 33
M  V30 34 1 1 34
M  V30 35 1 1 35
M  V30 36 1 2 36
M  V30 37 1 2 37
M  V30 38 1 3 38
M  V30 39 1 3 39
M  V30 40 1 4 40
M  V30 41 1 4 41
M  V30 42 1 5 42
M  V30 43 1 5 43
M  V30 44 1 6 44
M  V30 45 1 6 45
M  V30 46 1 7 46
M  V30 47 1 7 47
M  V30 48 1 8 48
M  V30 49 1 8 49
M  V30 50 1 12 50 CFG=3
M  V30 51 1 13 51
M  V30 52 1 13 52
M  V30 53 1 14 53
M  V30 54 1 14 54
M  V30 55 1 15 55
M  V30 56 1 15 56
M  V30 57 1 16 57
M  V30 58 1 16 58
M  V30 59 1 17 59
M  V30 60 1 17 60
M  V30 61 1 18 61
M  V30 62 1 21 62 CFG=1
M  V30 63 1 22 63
M  V30 64 1 22 64
M  V30 65 1 24 65
M  V30 66 1 25 66
M  V30 67 1 26 67
M  V30 68 1 28 68
M  V30 69 1 31 69
M  V30 70 1 31 70
M  V30 71 1 32 71
M  V30 72 1 32 72
M  V30 END BOND
M  V30 END CTAB
M  END
