
     RDKit          3D

  0  0  0  0  0  0  0  0  0  0999 V3000
M  V30 BEGIN CTAB
M  V30 COUNTS 31 32 0 0 0
M  V30 BEGIN ATOM
M  V30 1 N 5.01958 0.252586 -0.452443 0
M  V30 2 C 3.74131 0.227595 0.173663 0
M  V30 3 N 3.31234 1.07609 1.12834 0
M  V30 4 N 2.08738 0.734954 1.45273 0
M  V30 5 C 1.68003 -0.330278 0.73355 0
M  V30 6 N 2.73107 -0.629425 -0.0590471 0
M  V30 7 C 0.374267 -1.02992 0.787375 0
M  V30 8 C -0.631496 -0.435214 -0.185801 0
M  V30 9 N -0.0485444 -0.574678 -1.53149 0
M  V30 10 C -0.906503 0.969868 0.144136 0
M  V30 11 C -2.30363 1.43407 0.160882 0
M  V30 12 C -3.35931 0.406865 0.337863 0
M  V30 13 C -2.78079 -0.865058 0.915622 0
M  V30 14 C -1.82793 -1.35284 -0.175133 0
M  V30 15 H 5.56863 1.11735 -0.503214 0
M  V30 16 H 5.40757 -0.620903 -0.867561 0
M  V30 17 H 3.91107 1.86511 1.5105 0
M  V30 18 H 0.463585 -2.12222 0.637583 0
M  V30 19 H -0.0984972 -0.91088 1.80495 0
M  V30 20 H 0.448518 -1.49111 -1.53849 0
M  V30 21 H 0.57889 0.223933 -1.75003 0
M  V30 22 H -0.437586 1.23096 1.13723 0
M  V30 23 H -0.325583 1.61481 -0.581602 0
M  V30 24 H -2.47133 2.21676 0.960627 0
M  V30 25 H -2.54725 1.98858 -0.79381 0
M  V30 26 H -4.18897 0.751762 0.989793 0
M  V30 27 H -3.8144 0.112632 -0.652211 0
M  V30 28 H -3.55705 -1.61137 1.12634 0
M  V30 29 H -2.15812 -0.614352 1.78684 0
M  V30 30 H -1.53143 -2.40056 -0.00441001 0
M  V30 31 H -2.33582 -1.23512 -1.15505 0
M  V30 END ATOM
M  V30 BEGIN BOND
M  V30 1 1 1 2
M  V30 2 1 2 3
M  V30 3 1 3 4
M  V30 4 2 4 5
M  V30 5 1 5 6
M  V30 6 1 5 7
M  V30 7 1 7 8
M  V30 8 1 8 9
M  V30 9 1 8 10
M  V30 10 1 10 11
M  V30 11 1 11 12
M  V30 12 1 12 13
M  V30 13 1 13 14
M  V30 14 2 6 2
M  V30 15 1 14 8
M  V30 16 1 1 15
M  V30 17 1 1 16
M  V30 18 1 3 17
M  V30 19 1 7 18
M  V30 20 1 7 19
M  V30 21 1 9 20
M  V30 22 1 9 21
M  V30 23 1 10 22
M  V30 24 1 10 23
M  V30 25 1 11 24
M  V30 26 1 11 25
M  V30 27 1 12 26
M  V30 28 1 12 27
M  V30 29 1 13 28
M  V30 30 1 13 29
M  V30 31 1 14 30
M  V30 32 1 14 31
M  V30 END BOND
M  V30 END CTAB
M  END
