
     RDKit          3D

  0  0  0  0  0  0  0  0  0  0999 V3000
M  V30 BEGIN CTAB
M  V30 COUNTS 62 65 0 0 0
M  V30 BEGIN ATOM
M  V30 1 C -7.37029 3.25937 1.08783 0
M  V30 2 O -7.37632 1.91359 0.801034 0
M  V30 3 C -6.0982 1.40109 0.589116 0
M  V30 4 C -6.13228 -0.0449044 0.283341 0
M  V30 5 C -7.35929 -0.662517 0.237006 0
M  V30 6 C -7.55224 -1.99719 -0.0400325 0
M  V30 7 C -8.90398 -2.61159 -0.0772252 0
M  V30 8 N -6.43187 -2.70078 -0.274041 0
M  V30 9 C -5.19028 -2.11899 -0.236408 0
M  V30 10 C -4.97529 -0.802045 0.0352742 0
M  V30 11 C -3.68861 -0.374757 0.0374298 0
M  V30 12 N -3.26807 0.99662 0.309355 0
M  V30 13 C -2.72376 -1.30083 -0.232769 0
M  V30 14 S -3.61023 -2.72895 -0.48141 0
M  V30 15 C -1.25864 -1.12861 -0.299085 0
M  V30 16 N -0.745091 0.0196481 -0.0852156 0
M  V30 17 N 0.652294 0.158517 -0.153957 0
M  V30 18 C 1.25874 0.713264 -1.12172 0
M  V30 19 C 2.72361 0.829212 -1.13771 0
M  V30 20 S 3.70085 1.52646 -2.32552 0
M  V30 21 C 5.24092 1.26154 -1.60889 0
M  V30 22 C 4.93014 0.626041 -0.447041 0
M  V30 23 C 3.62008 0.396877 -0.192569 0
M  V30 24 N 3.09873 -0.257621 1.01136 0
M  V30 25 C 6.05078 0.286652 0.365504 0
M  V30 26 C 5.84738 -0.36692 1.66072 0
M  V30 27 O 7.00043 -0.725091 2.3202 0
M  V30 28 C 7.6282 -1.8204 1.78209 0
M  V30 29 C 7.30928 0.615898 -0.0647864 0
M  V30 30 C 7.5752 1.26368 -1.25692 0
M  V30 31 N 6.51591 1.57267 -2.00716 0
M  V30 32 C 8.93833 1.60744 -1.70283 0
M  V30 33 C 0.498971 1.25823 -2.261 0
M  V30 34 C -0.429229 -2.31586 -0.616773 0
M  V30 35 H -8.44215 3.55783 1.23734 0
M  V30 36 H -6.88748 3.41416 2.07641 0
M  V30 37 H -6.94461 3.89568 0.301303 0
M  V30 38 H -5.49711 1.62355 1.48941 0
M  V30 39 H -5.5881 1.94743 -0.257439 0
M  V30 40 H -8.26524 -0.0698388 0.431704 0
M  V30 41 H -8.97237 -3.15963 -1.03827 0
M  V30 42 H -9.02905 -3.36889 0.72426 0
M  V30 43 H -9.70743 -1.88047 -0.0365669 0
M  V30 44 H -3.05298 1.17989 1.3138 0
M  V30 45 H -3.19665 1.70172 -0.43243 0
M  V30 46 H 2.90897 -1.28024 1.03091 0
M  V30 47 H 2.90443 0.283844 1.87804 0
M  V30 48 H 5.25028 0.257001 2.37298 0
M  V30 49 H 5.26624 -1.33305 1.46687 0
M  V30 50 H 7.9364 -1.79347 0.744793 0
M  V30 51 H 8.56036 -1.98592 2.39017 0
M  V30 52 H 6.93512 -2.69169 1.90259 0
M  V30 53 H 8.20409 0.408788 0.556484 0
M  V30 54 H 8.85737 2.52729 -2.34385 0
M  V30 55 H 9.35 0.765007 -2.27467 0
M  V30 56 H 9.61231 1.80222 -0.853088 0
M  V30 57 H -0.437659 1.77042 -1.93191 0
M  V30 58 H 0.276794 0.424475 -2.96014 0
M  V30 59 H 1.07232 2.00629 -2.84495 0
M  V30 60 H 0.0765733 -2.68051 0.290637 0
M  V30 61 H 0.347032 -1.96572 -1.34752 0
M  V30 62 H -1.0136 -3.10591 -1.1097 0
M  V30 END ATOM
M  V30 BEGIN BOND
M  V30 1 1 1 2
M  V30 2 1 2 3
M  V30 3 1 3 4
M  V30 4 2 4 5
M  V30 5 1 5 6
M  V30 6 1 6 7
M  V30 7 2 6 8
M  V30 8 1 8 9
M  V30 9 2 9 10
M  V30 10 1 10 11
M  V30 11 1 11 12
M  V30 12 2 11 13
M  V30 13 1 13 14
M  V30 14 1 13 15
M  V30 15 2 15 16
M  V30 16 1 16 17
M  V30 17 2 17 18
M  V30 18 1 18 19
M  V30 19 1 19 20
M  V30 20 1 20 21
M  V30 21 2 21 22
M  V30 22 1 22 23
M  V30 23 1 23 24
M  V30 24 1 22 25
M  V30 25 1 25 26
M  V30 26 1 26 27
M  V30 27 1 27 28
M  V30 28 2 25 29
M  V30 29 1 29 30
M  V30 30 2 30 31
M  V30 31 1 30 32
M  V30 32 1 18 33
M  V30 33 1 15 34
M  V30 34 1 10 4
M  V30 35 2 23 19
M  V30 36 1 14 9
M  V30 37 1 31 21
M  V30 38 1 1 35
M  V30 39 1 1 36
M  V30 40 1 1 37
M  V30 41 1 3 38
M  V30 42 1 3 39
M  V30 43 1 5 40
M  V30 44 1 7 41
M  V30 45 1 7 42
M  V30 46 1 7 43
M  V30 47 1 12 44
M  V30 48 1 12 45
M  V30 49 1 24 46
M  V30 50 1 24 47
M  V30 51 1 26 48
M  V30 52 1 26 49
M  V30 53 1 28 50
M  V30 54 1 28 51
M  V30 55 1 28 52
M  V30 56 1 29 53
M  V30 57 1 32 54
M  V30 58 1 32 55
M  V30 59 1 32 56
M  V30 60 1 33 57
M  V30 61 1 33 58
M  V30 62 1 33 59
M  V30 63 1 34 60
M  V30 64 1 34 61
M  V30 65 1 34 62
M  V30 END BOND
M  V30 END CTAB
M  END
