
     RDKit          3D

  0  0  0  0  0  0  0  0  0  0999 V3000
M  V30 BEGIN CTAB
M  V30 COUNTS 19 19 0 0 0
M  V30 BEGIN ATOM
M  V30 1 N -2.46146 -1.06376 -0.0666206 0
M  V30 2 C -1.34915 -0.171211 -0.0129658 0
M  V30 3 C -1.61525 1.189 0.068623 0
M  V30 4 C -0.550471 2.08549 0.122519 0
M  V30 5 Br -0.851357 3.97327 0.235787 0
M  V30 6 C 0.747131 1.65241 0.0966645 0
M  V30 7 C 1.00206 0.277192 0.0141752 0
M  V30 8 C -0.0493939 -0.611661 -0.0392632 0
M  V30 9 N 0.232218 -2.00331 -0.122739 0
M  V30 10 C 2.37263 -0.255107 -0.0175749 0
M  V30 11 F 2.63599 -1.10856 1.04068 0
M  V30 12 F 2.70885 -0.820816 -1.23392 0
M  V30 13 F 3.25456 0.823747 0.147998 0
M  V30 14 H -3.30833 -0.752515 -0.578165 0
M  V30 15 H -2.4369 -2.00711 0.392106 0
M  V30 16 H -2.60412 1.59427 0.0928529 0
M  V30 17 H 1.61381 2.30435 0.135858 0
M  V30 18 H 0.856259 -2.43703 -0.835437 0
M  V30 19 H -0.19706 -2.66865 0.559426 0
M  V30 END ATOM
M  V30 BEGIN BOND
M  V30 1 1 1 2
M  V30 2 2 2 3
M  V30 3 1 3 4
M  V30 4 1 4 5
M  V30 5 2 4 6
M  V30 6 1 6 7
M  V30 7 2 7 8
M  V30 8 1 8 9
M  V30 9 1 7 10
M  V30 10 1 10 11
M  V30 11 1 10 12
M  V30 12 1 10 13
M  V30 13 1 8 2
M  V30 14 1 1 14
M  V30 15 1 1 15
M  V30 16 1 3 16
M  V30 17 1 6 17
M  V30 18 1 9 18
M  V30 19 1 9 19
M  V30 END BOND
M  V30 END CTAB
M  END
