
     RDKit          3D

  0  0  0  0  0  0  0  0  0  0999 V3000
M  V30 BEGIN CTAB
M  V30 COUNTS 37 39 0 0 0
M  V30 BEGIN ATOM
M  V30 1 N 6.09972 0.236018 -0.54687 0
M  V30 2 C 4.69191 0.133157 -0.368568 0
M  V30 3 C 3.97679 -0.878194 -0.947938 0
M  V30 4 C 2.61499 -0.946609 -0.753727 0
M  V30 5 C 1.92394 -0.0287403 0.0102289 0
M  V30 6 C 2.67255 0.987776 0.587255 0
M  V30 7 C 4.04909 1.07007 0.400118 0
M  V30 8 C 0.477968 -0.072613 0.236566 0 CFG=1
M  V30 9 N -0.11287 1.23711 0.0811549 0
M  V30 10 C -1.53404 1.40786 0.0218388 0
M  V30 11 C -2.13479 2.60475 0.287956 0
M  V30 12 C -3.5137 2.70577 0.215729 0
M  V30 13 C -4.30466 1.63576 -0.116797 0
M  V30 14 C -3.70134 0.417152 -0.388385 0
M  V30 15 C -2.3276 0.321679 -0.315311 0
M  V30 16 N -1.65136 -0.909424 -0.583443 0
M  V30 17 C -0.211554 -1.0404 -0.66105 0
M  V30 18 S -2.69006 -2.29411 -0.829979 0
M  V30 19 O -1.75537 -3.4924 -0.97335 0
M  V30 20 O -3.47337 -2.20545 -2.08248 0
M  V30 21 N -3.62596 -2.60511 0.575901 0
M  V30 22 H 6.65178 -0.656628 -0.431607 0
M  V30 23 H 6.51635 1.15009 -0.775034 0
M  V30 24 H 4.47756 -1.62528 -1.55878 0
M  V30 25 H 2.0859 -1.7507 -1.22138 0
M  V30 26 H 2.20083 1.72929 1.18905 0
M  V30 27 H 4.59281 1.86393 0.858028 0
M  V30 28 H 0.304674 -0.367284 1.308 0
M  V30 29 H 0.499457 2.06415 0.0116549 0
M  V30 30 H -1.51904 3.44791 0.549492 0
M  V30 31 H -3.98845 3.66256 0.428812 0
M  V30 32 H -5.39092 1.70479 -0.176341 0
M  V30 33 H -4.33003 -0.4376 -0.651369 0
M  V30 34 H 0.0600664 -0.784447 -1.725 0
M  V30 35 H 0.0377947 -2.09362 -0.43109 0
M  V30 36 H -4.54684 -3.01706 0.284902 0
M  V30 37 H -3.12223 -3.17414 1.28149 0
M  V30 END ATOM
M  V30 BEGIN BOND
M  V30 1 1 1 2
M  V30 2 2 2 3
M  V30 3 1 3 4
M  V30 4 2 4 5
M  V30 5 1 5 6
M  V30 6 2 6 7
M  V30 7 1 5 8
M  V30 8 1 8 9
M  V30 9 1 9 10
M  V30 10 2 10 11
M  V30 11 1 11 12
M  V30 12 2 12 13
M  V30 13 1 13 14
M  V30 14 2 14 15
M  V30 15 1 15 16
M  V30 16 1 16 17
M  V30 17 1 16 18
M  V30 18 2 18 19
M  V30 19 2 18 20
M  V30 20 1 18 21
M  V30 21 1 7 2
M  V30 22 1 17 8
M  V30 23 1 15 10
M  V30 24 1 1 22
M  V30 25 1 1 23
M  V30 26 1 3 24
M  V30 27 1 4 25
M  V30 28 1 6 26
M  V30 29 1 7 27
M  V30 30 1 8 28 CFG=1
M  V30 31 1 9 29
M  V30 32 1 11 30
M  V30 33 1 12 31
M  V30 34 1 13 32
M  V30 35 1 14 33
M  V30 36 1 17 34
M  V30 37 1 17 35
M  V30 38 1 21 36
M  V30 39 1 21 37
M  V30 END BOND
M  V30 END CTAB
M  END
