
     RDKit          3D

  0  0  0  0  0  0  0  0  0  0999 V3000
M  V30 BEGIN CTAB
M  V30 COUNTS 46 47 0 0 0
M  V30 BEGIN ATOM
M  V30 1 C -5.6214 2.27978 -0.654798 0
M  V30 2 C -6.2492 1.34289 0.355713 0
M  V30 3 C -6.09128 -0.102538 -0.0218659 0
M  V30 4 C -4.66732 -0.543529 -0.144696 0
M  V30 5 C -3.90961 -0.374226 1.13631 0
M  V30 6 C -2.48434 -0.82095 0.994659 0
M  V30 7 O -1.7848 -0.0965683 0.00890689 0
M  V30 8 C -0.441529 -0.426103 -0.213425 0
M  V30 9 C 0.281004 0.26646 -1.17804 0
M  V30 10 C 1.60262 -0.0721874 -1.38235 0
M  V30 11 C 2.23238 -1.06814 -0.668593 0
M  V30 12 C 3.62498 -1.38863 -0.944374 0
M  V30 13 C 4.63283 -0.47116 -0.446104 0
M  V30 14 C 5.04773 -0.408471 0.845128 0
M  V30 15 N 4.50038 -1.2857 1.80133 0
M  V30 16 N 5.99942 0.502139 1.20476 0
M  V30 17 C 6.55532 1.35343 0.330261 0
M  V30 18 N 7.55912 2.30142 0.753098 0
M  V30 19 N 6.15227 1.29881 -0.946712 0
M  V30 20 C 5.21921 0.418954 -1.34286 0
M  V30 21 C 1.517 -1.745 0.277256 0
M  V30 22 C 0.184335 -1.42067 0.500316 0
M  V30 23 H -4.56084 2.43479 -0.323403 0
M  V30 24 H -5.67058 1.8809 -1.68749 0
M  V30 25 H -6.17998 3.26087 -0.685475 0
M  V30 26 H -7.34405 1.52678 0.466317 0
M  V30 27 H -5.80569 1.50114 1.36123 0
M  V30 28 H -6.56213 -0.226431 -1.02467 0
M  V30 29 H -6.67429 -0.702732 0.696765 0
M  V30 30 H -4.21436 -0.00626718 -0.996097 0
M  V30 31 H -4.66379 -1.61884 -0.398519 0
M  V30 32 H -3.97221 0.635714 1.57221 0
M  V30 33 H -4.38653 -1.05842 1.89247 0
M  V30 34 H -2.49928 -1.89698 0.680157 0
M  V30 35 H -1.93094 -0.780143 1.95166 0
M  V30 36 H -0.229513 1.04661 -1.73001 0
M  V30 37 H 2.12624 0.499942 -2.14976 0
M  V30 38 H 3.87784 -2.40404 -0.501839 0
M  V30 39 H 3.81152 -1.56596 -2.04809 0
M  V30 40 H 4.90005 -2.23794 1.89336 0
M  V30 41 H 3.71226 -1.01337 2.41584 0
M  V30 42 H 7.82339 3.10448 0.151294 0
M  V30 43 H 8.0259 2.17752 1.67682 0
M  V30 44 H 4.93461 0.420291 -2.37863 0
M  V30 45 H 1.97246 -2.54095 0.851104 0
M  V30 46 H -0.349217 -1.97696 1.25662 0
M  V30 END ATOM
M  V30 BEGIN BOND
M  V30 1 1 1 2
M  V30 2 1 2 3
M  V30 3 1 3 4
M  V30 4 1 4 5
M  V30 5 1 5 6
M  V30 6 1 6 7
M  V30 7 1 7 8
M  V30 8 2 8 9
M  V30 9 1 9 10
M  V30 10 2 10 11
M  V30 11 1 11 12
M  V30 12 1 12 13
M  V30 13 2 13 14
M  V30 14 1 14 15
M  V30 15 1 14 16
M  V30 16 2 16 17
M  V30 17 1 17 18
M  V30 18 1 17 19
M  V30 19 2 19 20
M  V30 20 1 11 21
M  V30 21 2 21 22
M  V30 22 1 22 8
M  V30 23 1 20 13
M  V30 24 1 1 23
M  V30 25 1 1 24
M  V30 26 1 1 25
M  V30 27 1 2 26
M  V30 28 1 2 27
M  V30 29 1 3 28
M  V30 30 1 3 29
M  V30 31 1 4 30
M  V30 32 1 4 31
M  V30 33 1 5 32
M  V30 34 1 5 33
M  V30 35 1 6 34
M  V30 36 1 6 35
M  V30 37 1 9 36
M  V30 38 1 10 37
M  V30 39 1 12 38
M  V30 40 1 12 39
M  V30 41 1 15 40
M  V30 42 1 15 41
M  V30 43 1 18 42
M  V30 44 1 18 43
M  V30 45 1 20 44
M  V30 46 1 21 45
M  V30 47 1 22 46
M  V30 END BOND
M  V30 END CTAB
M  END
