
     RDKit          3D

  0  0  0  0  0  0  0  0  0  0999 V3000
M  V30 BEGIN CTAB
M  V30 COUNTS 19 19 0 0 0
M  V30 BEGIN ATOM
M  V30 1 O 3.05931 -0.877185 1.30827 0
M  V30 2 C 2.38406 -0.105165 0.390273 0
M  V30 3 O 3.06156 0.639797 -0.359128 0
M  V30 4 C 0.937698 -0.107779 0.244683 0
M  V30 5 C 0.19551 -0.940368 1.08376 0
M  V30 6 C -1.1753 -0.935719 0.937932 0
M  V30 7 Br -2.24595 -2.05727 2.06093 0
M  V30 8 C -1.81648 -0.147964 0.00613379 0
M  V30 9 C -1.03987 0.666159 -0.809108 0
M  V30 10 C 0.336838 0.693762 -0.698131 0
M  V30 11 N 1.11296 1.53004 -1.53778 0
M  V30 12 N -3.23142 -0.191182 -0.0916086 0
M  V30 13 H 3.99649 -1.23955 1.14777 0
M  V30 14 H 0.72985 -1.54388 1.80205 0
M  V30 15 H -1.50576 1.29895 -1.55256 0
M  V30 16 H 1.17492 2.54093 -1.31088 0
M  V30 17 H 1.6218 1.18654 -2.36593 0
M  V30 18 H -3.74819 -0.927381 -0.635693 0
M  V30 19 H -3.84802 0.517261 0.379029 0
M  V30 END ATOM
M  V30 BEGIN BOND
M  V30 1 1 1 2
M  V30 2 2 2 3
M  V30 3 1 2 4
M  V30 4 2 4 5
M  V30 5 1 5 6
M  V30 6 1 6 7
M  V30 7 2 6 8
M  V30 8 1 8 9
M  V30 9 2 9 10
M  V30 10 1 10 11
M  V30 11 1 8 12
M  V30 12 1 10 4
M  V30 13 1 1 13
M  V30 14 1 5 14
M  V30 15 1 9 15
M  V30 16 1 11 16
M  V30 17 1 11 17
M  V30 18 1 12 18
M  V30 19 1 12 19
M  V30 END BOND
M  V30 END CTAB
M  END
