
     RDKit          3D

  0  0  0  0  0  0  0  0  0  0999 V3000
M  V30 BEGIN CTAB
M  V30 COUNTS 32 34 0 0 0
M  V30 BEGIN ATOM
M  V30 1 N 5.94805 0.732585 -0.552028 0
M  V30 2 C 4.57018 0.502065 -0.275937 0
M  V30 3 C 3.62171 0.844289 -1.23855 0
M  V30 4 C 2.29566 0.617944 -0.962517 0
M  V30 5 C 1.8478 0.059835 0.239087 0
M  V30 6 C 2.80061 -0.269491 1.17282 0
M  V30 7 C 4.13677 -0.0468859 0.907257 0
M  V30 8 F 5.05397 -0.378635 1.83996 0
M  V30 9 C 0.411455 -0.13677 0.426279 0
M  V30 10 C -0.0732735 -0.680505 1.58812 0
M  V30 11 C -1.45697 -0.83106 1.67905 0
M  V30 12 O -1.93502 -1.32512 2.7278 0
M  V30 13 C -2.26817 -0.441647 0.633023 0
M  V30 14 C -3.63564 -0.568711 0.672903 0
M  V30 15 N -4.21657 -1.12565 1.84744 0
M  V30 16 C -4.45631 -0.183329 -0.365587 0
M  V30 17 F -5.81221 -0.313076 -0.317401 0
M  V30 18 C -3.88796 0.355772 -1.50131 0
M  V30 19 O -4.71804 0.747421 -2.55596 0
M  V30 20 C -2.51703 0.488216 -1.55293 0
M  V30 21 F -1.96788 1.01358 -2.66058 0
M  V30 22 C -1.70122 0.0986394 -0.505687 0
M  V30 23 O -0.404857 0.226763 -0.561132 0
M  V30 24 H 6.25457 0.900147 -1.53213 0
M  V30 25 H 6.64531 0.73211 0.233625 0
M  V30 26 H 3.97855 1.27264 -2.15832 0
M  V30 27 H 1.56636 0.889318 -1.72164 0
M  V30 28 H 2.50155 -0.701602 2.11193 0
M  V30 29 H 0.5718 -0.979356 2.39505 0
M  V30 30 H -4.55122 -2.11648 1.78393 0
M  V30 31 H -4.27475 -0.528529 2.68624 0
M  V30 32 H -4.32724 1.14552 -3.39994 0
M  V30 END ATOM
M  V30 BEGIN BOND
M  V30 1 1 1 2
M  V30 2 2 2 3
M  V30 3 1 3 4
M  V30 4 2 4 5
M  V30 5 1 5 6
M  V30 6 2 6 7
M  V30 7 1 7 8
M  V30 8 1 5 9
M  V30 9 2 9 10
M  V30 10 1 10 11
M  V30 11 2 11 12
M  V30 12 1 11 13
M  V30 13 2 13 14
M  V30 14 1 14 15
M  V30 15 1 14 16
M  V30 16 1 16 17
M  V30 17 2 16 18
M  V30 18 1 18 19
M  V30 19 1 18 20
M  V30 20 1 20 21
M  V30 21 2 20 22
M  V30 22 1 22 23
M  V30 23 1 7 2
M  V30 24 1 23 9
M  V30 25 1 22 13
M  V30 26 1 1 24
M  V30 27 1 1 25
M  V30 28 1 3 26
M  V30 29 1 4 27
M  V30 30 1 6 28
M  V30 31 1 10 29
M  V30 32 1 15 30
M  V30 33 1 15 31
M  V30 34 1 19 32
M  V30 END BOND
M  V30 END CTAB
M  END
