
     RDKit          3D

  0  0  0  0  0  0  0  0  0  0999 V3000
M  V30 BEGIN CTAB
M  V30 COUNTS 23 24 0 0 0
M  V30 BEGIN ATOM
M  V30 1 N -3.46356 -1.04927 0.0414297 0
M  V30 2 C -2.09453 -0.677262 0.0592923 0
M  V30 3 C -1.15638 -1.61308 0.493992 0
M  V30 4 C 0.178681 -1.28363 0.523225 0
M  V30 5 C 0.570216 -0.0295224 0.120961 0
M  V30 6 C -0.367996 0.884742 -0.306018 0
M  V30 7 C -1.72215 0.586528 -0.348334 0
M  V30 8 N -2.67827 1.53988 -0.791127 0
M  V30 9 C 2.01608 0.337561 0.143973 0
M  V30 10 C 2.3814 1.53193 0.700409 0
M  V30 11 S 4.07377 1.54051 0.524748 0
M  V30 12 C 4.2821 0.0355412 -0.24758 0
M  V30 13 C 3.00492 -0.438535 -0.348185 0
M  V30 14 Cl 2.7201 -2.0263 -1.11686 0
M  V30 15 H -4.12343 -0.495479 0.62647 0
M  V30 16 H -3.82037 -1.84111 -0.525932 0
M  V30 17 H -1.46024 -2.5942 0.808837 0
M  V30 18 H 0.919061 -1.98803 0.85767 0
M  V30 19 H -0.073152 1.8838 -0.628213 0
M  V30 20 H -2.52031 2.19122 -1.59288 0
M  V30 21 H -3.62389 1.64125 -0.318793 0
M  V30 22 H 1.7383 2.30697 1.15504 0
M  V30 23 H 5.21964 -0.443523 -0.585985 0
M  V30 END ATOM
M  V30 BEGIN BOND
M  V30 1 1 1 2
M  V30 2 2 2 3
M  V30 3 1 3 4
M  V30 4 2 4 5
M  V30 5 1 5 6
M  V30 6 2 6 7
M  V30 7 1 7 8
M  V30 8 1 5 9
M  V30 9 2 9 10
M  V30 10 1 10 11
M  V30 11 1 11 12
M  V30 12 2 12 13
M  V30 13 1 13 14
M  V30 14 1 7 2
M  V30 15 1 13 9
M  V30 16 1 1 15
M  V30 17 1 1 16
M  V30 18 1 3 17
M  V30 19 1 4 18
M  V30 20 1 6 19
M  V30 21 1 8 20
M  V30 22 1 8 21
M  V30 23 1 10 22
M  V30 24 1 12 23
M  V30 END BOND
M  V30 END CTAB
M  END
