
     RDKit          3D

  0  0  0  0  0  0  0  0  0  0999 V3000
M  V30 BEGIN CTAB
M  V30 COUNTS 22 23 0 0 0
M  V30 BEGIN ATOM
M  V30 1 N -3.08701 1.90328 0.714793 0
M  V30 2 C -1.9847 1.10883 0.334439 0
M  V30 3 N -0.680843 1.39912 0.535582 0
M  V30 4 C 0.0856121 0.415683 0.0429552 0
M  V30 5 N -0.763009 -0.487354 -0.465938 0
M  V30 6 N -1.98576 -0.0822636 -0.296055 0
M  V30 7 C -3.17193 -0.789311 -0.713516 0
M  V30 8 C 1.54631 0.350076 0.0614166 0
M  V30 9 S 2.64548 1.48681 0.703099 0
M  V30 10 C 4.11684 0.689981 0.334912 0
M  V30 11 C 3.68657 -0.453379 -0.285927 0
M  V30 12 C 2.37221 -0.629382 -0.426935 0
M  V30 13 N 1.78529 -1.78963 -1.06241 0
M  V30 14 H -3.53699 2.53467 0.0367698 0
M  V30 15 H -3.43726 1.84385 1.6819 0
M  V30 16 H -2.91558 -1.39106 -1.60549 0
M  V30 17 H -3.45532 -1.47888 0.100621 0
M  V30 18 H -4.01871 -0.110619 -0.931744 0
M  V30 19 H 5.15869 0.99817 0.53597 0
M  V30 20 H 4.44841 -1.17702 -0.641213 0
M  V30 21 H 1.53425 -1.70915 -2.04563 0
M  V30 22 H 1.65746 -2.63242 -0.472938 0
M  V30 END ATOM
M  V30 BEGIN BOND
M  V30 1 1 1 2
M  V30 2 2 2 3
M  V30 3 1 3 4
M  V30 4 2 4 5
M  V30 5 1 5 6
M  V30 6 1 6 7
M  V30 7 1 4 8
M  V30 8 1 8 9
M  V30 9 1 9 10
M  V30 10 2 10 11
M  V30 11 1 11 12
M  V30 12 1 12 13
M  V30 13 1 6 2
M  V30 14 2 12 8
M  V30 15 1 1 14
M  V30 16 1 1 15
M  V30 17 1 7 16
M  V30 18 1 7 17
M  V30 19 1 7 18
M  V30 20 1 10 19
M  V30 21 1 11 20
M  V30 22 1 13 21
M  V30 23 1 13 22
M  V30 END BOND
M  V30 END CTAB
M  END
