
     RDKit          3D

  0  0  0  0  0  0  0  0  0  0999 V3000
M  V30 BEGIN CTAB
M  V30 COUNTS 22 22 0 0 0
M  V30 BEGIN ATOM
M  V30 1 N -1.90746 1.37613 -0.514988 0
M  V30 2 C -1.75535 -0.113188 -0.414638 0
M  V30 3 C -0.281535 -0.321284 -0.29436 0
M  V30 4 C 0.573027 0.670032 0.144888 0
M  V30 5 C 1.95055 0.496478 0.100366 0
M  V30 6 N 2.80216 1.58714 0.524998 0
M  V30 7 C 2.50256 -0.654011 -0.369982 0
M  V30 8 C 1.61229 -1.64129 -0.813207 0
M  V30 9 C 0.275351 -1.48108 -0.780916 0
M  V30 10 F -0.609614 -2.4734 -1.14894 0
M  V30 11 C -2.39535 -0.497591 0.91048 0
M  V30 12 F -3.73136 -0.132041 0.975655 0
M  V30 13 H -2.84528 1.62041 -0.90783 0
M  V30 14 H -1.85 1.73349 0.489072 0
M  V30 15 H -2.19524 -0.528325 -1.31091 0
M  V30 16 H 0.196496 1.60897 0.536243 0
M  V30 17 H 3.73162 1.65685 -0.00377506 0
M  V30 18 H 2.54578 2.23606 1.24419 0
M  V30 19 H 3.56868 -0.811132 -0.415197 0
M  V30 20 H 2.04693 -2.56569 -1.18122 0
M  V30 21 H -2.38644 -1.65504 0.924628 0
M  V30 22 H -1.84782 -0.111484 1.75555 0
M  V30 END ATOM
M  V30 BEGIN BOND
M  V30 1 1 1 2
M  V30 2 1 2 3
M  V30 3 2 3 4
M  V30 4 1 4 5
M  V30 5 1 5 6
M  V30 6 2 5 7
M  V30 7 1 7 8
M  V30 8 2 8 9
M  V30 9 1 9 10
M  V30 10 1 2 11
M  V30 11 1 11 12
M  V30 12 1 9 3
M  V30 13 1 1 13
M  V30 14 1 1 14
M  V30 15 1 2 15
M  V30 16 1 4 16
M  V30 17 1 6 17
M  V30 18 1 6 18
M  V30 19 1 7 19
M  V30 20 1 8 20
M  V30 21 1 11 21
M  V30 22 1 11 22
M  V30 END BOND
M  V30 END CTAB
M  END
