
     RDKit          3D

  0  0  0  0  0  0  0  0  0  0999 V3000
M  V30 BEGIN CTAB
M  V30 COUNTS 24 24 0 0 0
M  V30 BEGIN ATOM
M  V30 1 C -3.64717 0.24038 0.184484 0
M  V30 2 C -2.1693 0.134979 0.351052 0 CFG=2
M  V30 3 C -1.42637 0.312719 -0.972884 0
M  V30 4 C 0.0214231 0.183694 -0.652357 0
M  V30 5 N 0.901631 1.13832 -0.300949 0
M  V30 6 N 2.11141 0.644278 -0.0916536 0
M  V30 7 C 2.02615 -0.673623 -0.311397 0
M  V30 8 N 0.763298 -0.965776 -0.652293 0
M  V30 9 N 3.08989 -1.59374 -0.200979 0
M  V30 10 C 3.30945 1.38946 0.302665 0
M  V30 11 N -1.73718 -1.11221 0.932594 0
M  V30 12 H -4.01824 -0.695805 -0.266323 0
M  V30 13 H -3.87478 1.13929 -0.405546 0
M  V30 14 H -4.10294 0.361261 1.18326 0
M  V30 15 H -1.81514 0.9511 1.01591 0
M  V30 16 H -1.74745 -0.432887 -1.71139 0
M  V30 17 H -1.60316 1.35793 -1.29953 0
M  V30 18 H 3.93592 -1.57377 -0.817975 0
M  V30 19 H 3.10111 -2.37339 0.52205 0
M  V30 20 H 3.90301 1.68352 -0.596787 0
M  V30 21 H 3.91975 0.798841 1.01976 0
M  V30 22 H 3.0429 2.32769 0.832 0
M  V30 23 H -2.37761 -1.37625 1.71161 0
M  V30 24 H -1.6066 -1.86601 0.224683 0
M  V30 END ATOM
M  V30 BEGIN BOND
M  V30 1 1 1 2
M  V30 2 1 2 3
M  V30 3 1 3 4
M  V30 4 2 4 5
M  V30 5 1 5 6
M  V30 6 1 6 7
M  V30 7 2 7 8
M  V30 8 1 7 9
M  V30 9 1 6 10
M  V30 10 1 2 11
M  V30 11 1 8 4
M  V30 12 1 1 12
M  V30 13 1 1 13
M  V30 14 1 1 14
M  V30 15 1 2 15 CFG=1
M  V30 16 1 3 16
M  V30 17 1 3 17
M  V30 18 1 9 18
M  V30 19 1 9 19
M  V30 20 1 10 20
M  V30 21 1 10 21
M  V30 22 1 10 22
M  V30 23 1 11 23
M  V30 24 1 11 24
M  V30 END BOND
M  V30 END CTAB
M  END
