
     RDKit          3D

  0  0  0  0  0  0  0  0  0  0999 V3000
M  V30 BEGIN CTAB
M  V30 COUNTS 34 35 0 0 0
M  V30 BEGIN ATOM
M  V30 1 Cl 7.62756 0.426454 -1.46751 0
M  V30 2 C 5.99299 0.499511 -0.847684 0
M  V30 3 C 5.25715 -0.664639 -0.862582 0
M  V30 4 C 3.95278 -0.633936 -0.37532 0
M  V30 5 C 3.38489 0.510135 0.114457 0
M  V30 6 C 4.13021 1.66536 0.124035 0
M  V30 7 C 5.44362 1.66294 -0.359862 0
M  V30 8 O 2.09436 0.521774 0.591881 0
M  V30 9 C 1.33397 -0.666705 0.578903 0
M  V30 10 C -0.0475727 -0.471105 1.13561 0
M  V30 11 C -0.760883 -1.81578 1.06616 0
M  V30 12 S -2.44692 -1.68966 1.71921 0
M  V30 13 C -3.45322 -0.649571 0.684439 0
M  V30 14 N -4.12316 -1.22785 -0.327082 0
M  V30 15 C -4.91519 -0.541726 -1.17579 0
M  V30 16 N -5.59869 -1.20152 -2.22513 0
M  V30 17 N -5.01688 0.790789 -0.96929 0
M  V30 18 C -4.35492 1.38547 0.0360157 0
M  V30 19 N -3.57268 0.677195 0.866395 0
M  V30 20 N -4.49884 2.79314 0.206229 0
M  V30 21 H 5.67795 -1.58126 -1.24257 0
M  V30 22 H 3.40337 -1.5777 -0.404364 0
M  V30 23 H 3.76285 2.61124 0.491503 0
M  V30 24 H 6.02936 2.56812 -0.353092 0
M  V30 25 H 1.85902 -1.40337 1.22017 0
M  V30 26 H 1.23497 -1.09683 -0.432378 0
M  V30 27 H -0.611334 0.315496 0.588764 0
M  V30 28 H -0.00124486 -0.212824 2.21617 0
M  V30 29 H -0.1909 -2.50715 1.72739 0
M  V30 30 H -0.731804 -2.23285 0.0399512 0
M  V30 31 H -5.99356 -2.1398 -2.06216 0
M  V30 32 H -5.71211 -0.760605 -3.15874 0
M  V30 33 H -3.71761 3.42789 0.471339 0
M  V30 34 H -5.43752 3.21935 0.0581903 0
M  V30 END ATOM
M  V30 BEGIN BOND
M  V30 1 1 1 2
M  V30 2 2 2 3
M  V30 3 1 3 4
M  V30 4 2 4 5
M  V30 5 1 5 6
M  V30 6 2 6 7
M  V30 7 1 5 8
M  V30 8 1 8 9
M  V30 9 1 9 10
M  V30 10 1 10 11
M  V30 11 1 11 12
M  V30 12 1 12 13
M  V30 13 2 13 14
M  V30 14 1 14 15
M  V30 15 1 15 16
M  V30 16 2 15 17
M  V30 17 1 17 18
M  V30 18 2 18 19
M  V30 19 1 18 20
M  V30 20 1 7 2
M  V30 21 1 19 13
M  V30 22 1 3 21
M  V30 23 1 4 22
M  V30 24 1 6 23
M  V30 25 1 7 24
M  V30 26 1 9 25
M  V30 27 1 9 26
M  V30 28 1 10 27
M  V30 29 1 10 28
M  V30 30 1 11 29
M  V30 31 1 11 30
M  V30 32 1 16 31
M  V30 33 1 16 32
M  V30 34 1 20 33
M  V30 35 1 20 34
M  V30 END BOND
M  V30 END CTAB
M  END
