
     RDKit          3D

  0  0  0  0  0  0  0  0  0  0999 V3000
M  V30 BEGIN CTAB
M  V30 COUNTS 28 27 0 0 0
M  V30 BEGIN ATOM
M  V30 1 N 2.34974 -1.45831 1.32433 0
M  V30 2 C 2.36194 -0.844439 0.0421911 0 CFG=1
M  V30 3 C 1.38619 0.292951 -0.111432 0
M  V30 4 C -0.0209673 -0.267095 0.133541 0
M  V30 5 C -1.04102 0.84064 -0.00975436 0 CFG=2
M  V30 6 O -0.760227 1.8644 0.933271 0
M  V30 7 C -2.42529 0.330072 0.311218 0 CFG=1
M  V30 8 N -3.32411 1.49107 0.18413 0
M  V30 9 C -2.91474 -0.666016 -0.645094 0
M  V30 10 O -3.97722 -0.407667 -1.53919 0
M  V30 11 O -2.43507 -1.82412 -0.750005 0
M  V30 12 C 3.71184 -0.329946 -0.295734 0
M  V30 13 O 3.859 0.294536 -1.52657 0
M  V30 14 O 4.64195 -0.478339 0.527814 0
M  V30 15 H 1.50325 -2.04013 1.45802 0
M  V30 16 H 3.22594 -2.00548 1.44485 0
M  V30 17 H 2.05972 -1.62982 -0.708338 0
M  V30 18 H 1.43918 0.671839 -1.13104 0
M  V30 19 H 1.59498 1.03747 0.677297 0
M  V30 20 H -0.00838635 -0.682507 1.15951 0
M  V30 21 H -0.169778 -1.02265 -0.657748 0
M  V30 22 H -1.03357 1.29174 -1.0006 0
M  V30 23 H -0.48416 1.45247 1.78016 0
M  V30 24 H -2.49752 -0.015534 1.34307 0
M  V30 25 H -3.58804 1.56333 -0.822412 0
M  V30 26 H -2.78316 2.34235 0.468993 0
M  V30 27 H -4.69692 -1.10518 -1.64592 0
M  V30 28 H 4.02642 1.30436 -1.54994 0
M  V30 END ATOM
M  V30 BEGIN BOND
M  V30 1 1 1 2
M  V30 2 1 2 3
M  V30 3 1 3 4
M  V30 4 1 4 5
M  V30 5 1 5 6
M  V30 6 1 5 7
M  V30 7 1 7 8
M  V30 8 1 7 9
M  V30 9 1 9 10
M  V30 10 2 9 11
M  V30 11 1 2 12
M  V30 12 1 12 13
M  V30 13 2 12 14
M  V30 14 1 1 15
M  V30 15 1 1 16
M  V30 16 1 2 17 CFG=3
M  V30 17 1 3 18
M  V30 18 1 3 19
M  V30 19 1 4 20
M  V30 20 1 4 21
M  V30 21 1 5 22 CFG=3
M  V30 22 1 6 23
M  V30 23 1 7 24 CFG=1
M  V30 24 1 8 25
M  V30 25 1 8 26
M  V30 26 1 10 27
M  V30 27 1 13 28
M  V30 END BOND
M  V30 END CTAB
M  END
