
     RDKit          3D

  0  0  0  0  0  0  0  0  0  0999 V3000
M  V30 BEGIN CTAB
M  V30 COUNTS 44 47 0 0 0
M  V30 BEGIN ATOM
M  V30 1 N 7.78614 0.617689 1.89429 0
M  V30 2 C 7.66076 0.651448 0.488272 0
M  V30 3 N 8.68991 0.898547 -0.211203 0
M  V30 4 C 6.37404 0.40647 -0.13095 0
M  V30 5 C 6.19346 0.426818 -1.49707 0
M  V30 6 C 4.93875 0.183516 -1.9974 0
M  V30 7 C 3.83503 -0.0826174 -1.2195 0
M  V30 8 O 2.56736 -0.339862 -1.45786 0
M  V30 9 C 1.89318 -0.529401 -0.351962 0
M  V30 10 C 0.426831 -0.843991 -0.229637 0
M  V30 11 C -0.364926 0.45637 -0.128194 0
M  V30 12 C -1.81012 0.0904786 -0.00894143 0
M  V30 13 C -2.85456 0.979624 0.105004 0
M  V30 14 C -4.0364 0.263112 0.19248 0
M  V30 15 C -5.36331 0.597439 0.318103 0
M  V30 16 C -6.38504 -0.366031 0.385449 0
M  V30 17 C -5.98655 -1.67753 0.318575 0
M  V30 18 C -4.64486 -2.01986 0.191451 0
M  V30 19 C -3.65169 -1.05871 0.126578 0
M  V30 20 O -2.34456 -1.10294 0.00969129 0
M  V30 21 C -7.77135 0.0551449 0.518417 0
M  V30 22 N -8.13467 1.42364 0.583545 0
M  V30 23 N -8.70443 -0.801736 0.580461 0
M  V30 24 C 2.79565 -0.383137 0.679596 0
M  V30 25 C 4.0414 -0.0978131 0.153414 0
M  V30 26 C 5.2787 0.139657 0.704284 0
M  V30 27 H 7.20284 1.2551 2.46718 0
M  V30 28 H 8.44099 -0.022067 2.37423 0
M  V30 29 H 8.7876 0.962925 -1.23316 0
M  V30 30 H 7.04615 0.634651 -2.15004 0
M  V30 31 H 4.82044 0.204966 -3.08233 0
M  V30 32 H 0.0630551 -1.44245 -1.06157 0
M  V30 33 H 0.280375 -1.36767 0.734302 0
M  V30 34 H -0.254958 0.986738 -1.08947 0
M  V30 35 H -0.0165858 1.09245 0.682535 0
M  V30 36 H -2.79717 2.0559 0.125822 0
M  V30 37 H -5.6665 1.62522 0.369705 0
M  V30 38 H -6.74045 -2.46403 0.366452 0
M  V30 39 H -4.39224 -3.0585 0.144068 0
M  V30 40 H -7.77863 2.02444 1.33969 0
M  V30 41 H -8.76382 1.80983 -0.141261 0
M  V30 42 H -8.60152 -1.8214 0.546795 0
M  V30 43 H 2.55242 -0.4793 1.728 0
M  V30 44 H 5.38924 0.116881 1.78178 0
M  V30 END ATOM
M  V30 BEGIN BOND
M  V30 1 1 1 2
M  V30 2 2 2 3 CFG=2
M  V30 3 1 2 4
M  V30 4 2 4 5
M  V30 5 1 5 6
M  V30 6 2 6 7
M  V30 7 1 7 8
M  V30 8 1 8 9
M  V30 9 1 9 10
M  V30 10 1 10 11
M  V30 11 1 11 12
M  V30 12 2 12 13
M  V30 13 1 13 14
M  V30 14 2 14 15
M  V30 15 1 15 16
M  V30 16 2 16 17
M  V30 17 1 17 18
M  V30 18 2 18 19
M  V30 19 1 19 20
M  V30 20 1 16 21
M  V30 21 1 21 22
M  V30 22 2 21 23 CFG=2
M  V30 23 2 9 24
M  V30 24 1 24 25
M  V30 25 2 25 26
M  V30 26 1 26 4
M  V30 27 1 25 7
M  V30 28 1 20 12
M  V30 29 1 19 14
M  V30 30 1 1 27
M  V30 31 1 1 28
M  V30 32 1 3 29
M  V30 33 1 5 30
M  V30 34 1 6 31
M  V30 35 1 10 32
M  V30 36 1 10 33
M  V30 37 1 11 34
M  V30 38 1 11 35
M  V30 39 1 13 36
M  V30 40 1 15 37
M  V30 41 1 17 38
M  V30 42 1 18 39
M  V30 43 1 22 40
M  V30 44 1 22 41
M  V30 45 1 23 42
M  V30 46 1 24 43
M  V30 47 1 26 44
M  V30 END BOND
M  V30 END CTAB
M  END
