
     RDKit          3D

  0  0  0  0  0  0  0  0  0  0999 V3000
M  V30 BEGIN CTAB
M  V30 COUNTS 24 23 0 0 0
M  V30 BEGIN ATOM
M  V30 1 N 3.45721 0.827976 0.833383 0
M  V30 2 S 2.80506 -0.323981 -0.27914 0
M  V30 3 O 3.92445 -1.3397 -0.496005 0
M  V30 4 O 2.58821 0.345548 -1.5782 0
M  V30 5 C 1.44986 -1.2027 0.36614 0
M  V30 6 C 0.2618 -0.380225 0.778384 0
M  V30 7 C -0.343973 0.410991 -0.323834 0
M  V30 8 C -1.50533 1.23296 0.0822735 0
M  V30 9 S -2.88457 0.390159 0.743443 0
M  V30 10 N -3.56872 -0.760833 -0.319466 0
M  V30 11 O -2.56072 -0.306527 2.03088 0
M  V30 12 O -3.98938 1.38192 1.12052 0
M  V30 13 H 3.76216 1.6971 0.367595 0
M  V30 14 H 4.11556 0.418101 1.50045 0
M  V30 15 H 1.78956 -1.76598 1.2595 0
M  V30 16 H 1.11257 -1.93995 -0.377137 0
M  V30 17 H 0.439801 0.22887 1.67672 0
M  V30 18 H -0.512822 -1.14922 1.08397 0
M  V30 19 H 0.398037 1.09845 -0.793963 0
M  V30 20 H -0.688377 -0.233401 -1.18341 0
M  V30 21 H -1.88114 1.88329 -0.759677 0
M  V30 22 H -1.14723 1.98888 0.840227 0
M  V30 23 H -3.04831 -0.916232 -1.18542 0
M  V30 24 H -3.97369 -1.5855 0.13453 0
M  V30 END ATOM
M  V30 BEGIN BOND
M  V30 1 1 1 2
M  V30 2 2 2 3
M  V30 3 2 2 4
M  V30 4 1 2 5
M  V30 5 1 5 6
M  V30 6 1 6 7
M  V30 7 1 7 8
M  V30 8 1 8 9
M  V30 9 1 9 10
M  V30 10 2 9 11
M  V30 11 2 9 12
M  V30 12 1 1 13
M  V30 13 1 1 14
M  V30 14 1 5 15
M  V30 15 1 5 16
M  V30 16 1 6 17
M  V30 17 1 6 18
M  V30 18 1 7 19
M  V30 19 1 7 20
M  V30 20 1 8 21
M  V30 21 1 8 22
M  V30 22 1 10 23
M  V30 23 1 10 24
M  V30 END BOND
M  V30 END CTAB
M  END
