
     RDKit          3D

  0  0  0  0  0  0  0  0  0  0999 V3000
M  V30 BEGIN CTAB
M  V30 COUNTS 21 22 0 0 0
M  V30 BEGIN ATOM
M  V30 1 N -3.12104 -0.983416 0.443121 0
M  V30 2 C -1.87681 -0.327392 0.279441 0
M  V30 3 C -1.85864 1.05075 0.379142 0
M  V30 4 C -0.664671 1.7361 0.226257 0
M  V30 5 N -0.557849 3.14495 0.313102 0
M  V30 6 C 0.455656 0.999837 -0.020096 0
M  V30 7 C 0.468061 -0.376092 -0.124857 0
M  V30 8 C -0.720269 -1.03552 0.0289987 0
M  V30 9 C 1.69698 -1.12025 -0.390344 0
M  V30 10 N 2.93273 -0.6231 -0.564419 0
M  V30 11 C 3.80208 -1.64586 -0.789243 0
M  V30 12 N 3.02879 -2.7567 -0.73996 0
M  V30 13 O 1.79728 -2.41365 -0.503946 0
M  V30 14 H -3.84706 -0.828747 -0.289768 0
M  V30 15 H -3.27048 -1.5916 1.27873 0
M  V30 16 H -2.73845 1.64922 0.57412 0
M  V30 17 H -0.492568 3.58337 1.25533 0
M  V30 18 H -0.543731 3.74282 -0.541558 0
M  V30 19 H 1.41816 1.49675 -0.147495 0
M  V30 20 H -0.77764 -2.10978 -0.0413377 0
M  V30 21 H 4.86946 -1.59169 -0.967582 0
M  V30 END ATOM
M  V30 BEGIN BOND
M  V30 1 1 1 2
M  V30 2 2 2 3
M  V30 3 1 3 4
M  V30 4 1 4 5
M  V30 5 2 4 6
M  V30 6 1 6 7
M  V30 7 2 7 8
M  V30 8 1 7 9
M  V30 9 2 9 10
M  V30 10 1 10 11
M  V30 11 2 11 12
M  V30 12 1 12 13
M  V30 13 1 8 2
M  V30 14 1 13 9
M  V30 15 1 1 14
M  V30 16 1 1 15
M  V30 17 1 3 16
M  V30 18 1 5 17
M  V30 19 1 5 18
M  V30 20 1 6 19
M  V30 21 1 8 20
M  V30 22 1 11 21
M  V30 END BOND
M  V30 END CTAB
M  END
