
     RDKit          3D

  0  0  0  0  0  0  0  0  0  0999 V3000
M  V30 BEGIN CTAB
M  V30 COUNTS 27 27 0 0 0
M  V30 BEGIN ATOM
M  V30 1 C -3.93212 -0.0577852 -0.23449 0
M  V30 2 C -3.00222 -1.17821 0.154207 0
M  V30 3 O -2.10979 -0.808714 1.18379 0
M  V30 4 C -1.22371 0.26922 0.957877 0
M  V30 5 C -1.69001 1.46261 1.21046 0
M  V30 6 C 0.124588 0.0155542 0.4703 0
M  V30 7 C 0.561198 -1.28568 0.219876 0
M  V30 8 C 1.82019 -1.58988 -0.240612 0
M  V30 9 C 2.6986 -0.560464 -0.467682 0
M  V30 10 C 2.32345 0.730924 -0.239352 0
M  V30 11 C 1.03021 1.01552 0.231544 0
M  V30 12 N 3.17223 1.84057 -0.450048 0
M  V30 13 N 4.0116 -0.827152 -0.944138 0
M  V30 14 H -4.63864 -0.477798 -0.988083 0
M  V30 15 H -3.43635 0.794038 -0.705906 0
M  V30 16 H -4.53754 0.310579 0.613217 0
M  V30 17 H -3.62299 -2.02478 0.507092 0
M  V30 18 H -2.48831 -1.5116 -0.76643 0
M  V30 19 H -1.08391 2.32479 1.06541 0
M  V30 20 H -2.69893 1.57642 1.56951 0
M  V30 21 H -0.128106 -2.08009 0.399079 0
M  V30 22 H 2.1399 -2.61939 -0.429814 0
M  V30 23 H 0.753697 2.04449 0.405688 0
M  V30 24 H 3.93938 2.01713 0.215848 0
M  V30 25 H 3.02571 2.4593 -1.25335 0
M  V30 26 H 4.58788 -0.0647268 -1.36404 0
M  V30 27 H 4.40397 -1.77486 -0.878484 0
M  V30 END ATOM
M  V30 BEGIN BOND
M  V30 1 1 1 2
M  V30 2 1 2 3
M  V30 3 1 3 4
M  V30 4 2 4 5 CFG=2
M  V30 5 1 4 6
M  V30 6 2 6 7
M  V30 7 1 7 8
M  V30 8 2 8 9
M  V30 9 1 9 10
M  V30 10 2 10 11
M  V30 11 1 10 12
M  V30 12 1 9 13
M  V30 13 1 11 6
M  V30 14 1 1 14
M  V30 15 1 1 15
M  V30 16 1 1 16
M  V30 17 1 2 17
M  V30 18 1 2 18
M  V30 19 1 5 19
M  V30 20 1 5 20
M  V30 21 1 7 21
M  V30 22 1 8 22
M  V30 23 1 11 23
M  V30 24 1 12 24
M  V30 25 1 12 25
M  V30 26 1 13 26
M  V30 27 1 13 27
M  V30 END BOND
M  V30 END CTAB
M  END
