
     RDKit          3D

  0  0  0  0  0  0  0  0  0  0999 V3000
M  V30 BEGIN CTAB
M  V30 COUNTS 43 45 0 0 0
M  V30 BEGIN ATOM
M  V30 1 O -0.0456554 -2.19051 -0.118596 0
M  V30 2 C -0.516784 -1.24523 0.58334 0
M  V30 3 C 0.212952 -0.73806 1.78417 0
M  V30 4 C 1.47302 -1.51761 1.93828 0
M  V30 5 C 2.5834 -0.956757 1.03647 0
M  V30 6 N 2.71733 0.454621 1.22243 0
M  V30 7 C 1.77957 1.09057 2.14399 0
M  V30 8 C 0.401835 0.743223 1.6202 0
M  V30 9 C 3.66206 1.28255 0.599776 0
M  V30 10 O 3.69523 2.50783 0.835093 0
M  V30 11 C 4.62394 0.67196 -0.347106 0
M  V30 12 C 5.61191 1.33015 -1.04022 0
M  V30 13 C 6.38178 0.603585 -1.85214 0
M  V30 14 C 6.13003 -0.738413 -1.93307 0
M  V30 15 S 4.81727 -0.939752 -0.864454 0
M  V30 16 O -1.73261 -0.711587 0.18266 0
M  V30 17 C -2.4099 -1.20987 -0.964121 0
M  V30 18 C -3.67441 -0.50605 -1.20785 0
M  V30 19 N -3.79446 0.590781 -1.99127 0
M  V30 20 C -4.98879 1.18928 -2.17157 0
M  V30 21 N -5.06386 2.33677 -3.00222 0
M  V30 22 N -6.0599 0.680039 -1.56108 0
M  V30 23 C -5.98568 -0.410804 -0.772038 0
M  V30 24 N -4.78645 -0.976855 -0.616758 0
M  V30 25 N -7.18038 -0.874848 -0.167514 0
M  V30 26 H -0.392832 -0.907244 2.71388 0
M  V30 27 H 1.84462 -1.4118 2.9723 0
M  V30 28 H 1.34265 -2.60194 1.76013 0
M  V30 29 H 3.50934 -1.44403 1.41701 0
M  V30 30 H 2.3007 -1.27305 0.0185266 0
M  V30 31 H 1.91516 2.18551 2.19894 0
M  V30 32 H 1.88609 0.609518 3.13548 0
M  V30 33 H -0.357951 1.27634 2.22481 0
M  V30 34 H 0.307564 1.03409 0.535302 0
M  V30 35 H 5.7316 2.42602 -0.901402 0
M  V30 36 H 7.20943 1.0266 -2.46092 0
M  V30 37 H 6.66011 -1.48875 -2.54692 0
M  V30 38 H -2.63226 -2.27858 -0.773726 0
M  V30 39 H -1.76328 -1.09857 -1.88238 0
M  V30 40 H -5.57801 2.37931 -3.90503 0
M  V30 41 H -4.57517 3.22036 -2.70997 0
M  V30 42 H -7.53909 -1.81917 -0.398701 0
M  V30 43 H -7.72014 -0.299638 0.507962 0
M  V30 END ATOM
M  V30 BEGIN BOND
M  V30 1 2 1 2
M  V30 2 1 2 3
M  V30 3 1 3 4
M  V30 4 1 4 5
M  V30 5 1 5 6
M  V30 6 1 6 7
M  V30 7 1 7 8
M  V30 8 1 6 9
M  V30 9 2 9 10
M  V30 10 1 9 11
M  V30 11 2 11 12
M  V30 12 1 12 13
M  V30 13 2 13 14
M  V30 14 1 14 15
M  V30 15 1 2 16
M  V30 16 1 16 17
M  V30 17 1 17 18
M  V30 18 2 18 19
M  V30 19 1 19 20
M  V30 20 1 20 21
M  V30 21 2 20 22
M  V30 22 1 22 23
M  V30 23 2 23 24
M  V30 24 1 23 25
M  V30 25 1 8 3
M  V30 26 1 15 11
M  V30 27 1 24 18
M  V30 28 1 3 26
M  V30 29 1 4 27
M  V30 30 1 4 28
M  V30 31 1 5 29
M  V30 32 1 5 30
M  V30 33 1 7 31
M  V30 34 1 7 32
M  V30 35 1 8 33
M  V30 36 1 8 34
M  V30 37 1 12 35
M  V30 38 1 13 36
M  V30 39 1 14 37
M  V30 40 1 17 38
M  V30 41 1 17 39
M  V30 42 1 21 40
M  V30 43 1 21 41
M  V30 44 1 25 42
M  V30 45 1 25 43
M  V30 END BOND
M  V30 END CTAB
M  END
