
     RDKit          3D

  0  0  0  0  0  0  0  0  0  0999 V3000
M  V30 BEGIN CTAB
M  V30 COUNTS 26 27 0 0 0
M  V30 BEGIN ATOM
M  V30 1 N -4.37428 0.551161 -0.0895635 0
M  V30 2 C -2.99147 0.345249 -0.484502 0
M  V30 3 C -2.18038 0.243783 0.790239 0
M  V30 4 N -0.775508 0.0360399 0.503391 0
M  V30 5 N 0.105373 1.01282 0.341797 0
M  V30 6 C 1.31996 0.503419 0.0883765 0
M  V30 7 C 1.14968 -0.867552 0.100122 0
M  V30 8 C -0.174601 -1.15181 0.362583 0
M  V30 9 N -0.775765 -2.45744 0.462321 0
M  V30 10 C 2.60595 1.20437 -0.1595 0
M  V30 11 C 3.87829 0.595314 0.433544 0
M  V30 12 C 3.5922 0.463132 -1.01806 0
M  V30 13 H -4.81727 1.3404 -0.581638 0
M  V30 14 H -4.52608 0.505323 0.922516 0
M  V30 15 H -2.59574 1.20885 -1.05146 0
M  V30 16 H -2.91797 -0.581564 -1.0621 0
M  V30 17 H -2.34879 1.1417 1.41984 0
M  V30 18 H -2.5972 -0.613733 1.36416 0
M  V30 19 H 1.89386 -1.61837 -0.0623833 0
M  V30 20 H -0.187692 -3.28877 0.288118 0
M  V30 21 H -1.76496 -2.52843 0.701943 0
M  V30 22 H 2.60379 2.29801 -0.141165 0
M  V30 23 H 4.68985 1.27873 0.749779 0
M  V30 24 H 3.67393 -0.205812 1.14688 0
M  V30 25 H 4.20414 1.09118 -1.68201 0
M  V30 26 H 3.31066 -0.505988 -1.47451 0
M  V30 END ATOM
M  V30 BEGIN BOND
M  V30 1 1 1 2
M  V30 2 1 2 3
M  V30 3 1 3 4
M  V30 4 1 4 5
M  V30 5 2 5 6
M  V30 6 1 6 7
M  V30 7 2 7 8
M  V30 8 1 8 9
M  V30 9 1 6 10
M  V30 10 1 10 11
M  V30 11 1 11 12
M  V30 12 1 8 4
M  V30 13 1 12 10
M  V30 14 1 1 13
M  V30 15 1 1 14
M  V30 16 1 2 15
M  V30 17 1 2 16
M  V30 18 1 3 17
M  V30 19 1 3 18
M  V30 20 1 7 19
M  V30 21 1 9 20
M  V30 22 1 9 21
M  V30 23 1 10 22
M  V30 24 1 11 23
M  V30 25 1 11 24
M  V30 26 1 12 25
M  V30 27 1 12 26
M  V30 END BOND
M  V30 END CTAB
M  END
