
     RDKit          3D

  0  0  0  0  0  0  0  0  0  0999 V3000
M  V30 BEGIN CTAB
M  V30 COUNTS 18 18 0 0 0
M  V30 BEGIN ATOM
M  V30 1 O 2.99868 -1.35929 0.533494 0
M  V30 2 C 1.71017 -0.883806 0.310068 0
M  V30 3 C 1.42894 0.463678 0.427463 0
M  V30 4 C 0.166692 0.962378 0.212977 0
M  V30 5 N -0.11657 2.36797 0.337751 0
M  V30 6 C -0.885751 0.140211 -0.13125 0
M  V30 7 C -0.609961 -1.21516 -0.250903 0
M  V30 8 C 0.665562 -1.71403 -0.0334842 0
M  V30 9 O -1.63331 -2.06375 -0.592181 0
M  V30 10 N -2.18466 0.680599 -0.348339 0
M  V30 11 H 3.69249 -1.43323 -0.222583 0
M  V30 12 H 2.21621 1.14433 0.693769 0
M  V30 13 H 0.265638 2.99272 -0.382271 0
M  V30 14 H -0.691992 2.68198 1.14725 0
M  V30 15 H 0.887004 -2.76803 -0.124974 0
M  V30 16 H -2.56841 -1.72958 -0.755772 0
M  V30 17 H -2.95545 0.364527 0.273309 0
M  V30 18 H -2.38527 1.36849 -1.09433 0
M  V30 END ATOM
M  V30 BEGIN BOND
M  V30 1 1 1 2
M  V30 2 2 2 3
M  V30 3 1 3 4
M  V30 4 1 4 5
M  V30 5 2 4 6
M  V30 6 1 6 7
M  V30 7 2 7 8
M  V30 8 1 7 9
M  V30 9 1 6 10
M  V30 10 1 8 2
M  V30 11 1 1 11
M  V30 12 1 3 12
M  V30 13 1 5 13
M  V30 14 1 5 14
M  V30 15 1 8 15
M  V30 16 1 9 16
M  V30 17 1 10 17
M  V30 18 1 10 18
M  V30 END BOND
M  V30 END CTAB
M  END
