
     RDKit          3D

  0  0  0  0  0  0  0  0  0  0999 V3000
M  V30 BEGIN CTAB
M  V30 COUNTS 19 19 0 0 0
M  V30 BEGIN ATOM
M  V30 1 N -2.19662 1.47304 1.11557 0
M  V30 2 C -1.14326 0.774552 0.46556 0
M  V30 3 C 0.172269 1.18462 0.248878 0
M  V30 4 N 0.828736 0.208596 -0.407132 0
M  V30 5 N 0.00346859 -0.802594 -0.621073 0
M  V30 6 C -1.20034 -0.482788 -0.100248 0
M  V30 7 C -2.38957 -1.38574 -0.151301 0
M  V30 8 S 2.47793 0.201773 -0.920436 0
M  V30 9 O 2.52749 -0.021383 -2.40659 0
M  V30 10 O 3.13707 1.49231 -0.601068 0
M  V30 11 N 3.3642 -1.06661 -0.174181 0
M  V30 12 H -2.29014 2.52678 1.06035 0
M  V30 13 H -2.92415 0.979308 1.67568 0
M  V30 14 H 0.566783 2.1282 0.564713 0
M  V30 15 H -3.10361 -1.07604 -0.937808 0
M  V30 16 H -2.91528 -1.38831 0.825935 0
M  V30 17 H -2.06397 -2.43065 -0.336697 0
M  V30 18 H 4.32219 -0.776806 0.112866 0
M  V30 19 H 2.82682 -1.53825 0.586977 0
M  V30 END ATOM
M  V30 BEGIN BOND
M  V30 1 1 1 2
M  V30 2 2 2 3
M  V30 3 1 3 4
M  V30 4 1 4 5
M  V30 5 2 5 6
M  V30 6 1 6 7
M  V30 7 1 4 8
M  V30 8 2 8 9
M  V30 9 2 8 10
M  V30 10 1 8 11
M  V30 11 1 6 2
M  V30 12 1 1 12
M  V30 13 1 1 13
M  V30 14 1 3 14
M  V30 15 1 7 15
M  V30 16 1 7 16
M  V30 17 1 7 17
M  V30 18 1 11 18
M  V30 19 1 11 19
M  V30 END BOND
M  V30 END CTAB
M  END
