
     RDKit          3D

  0  0  0  0  0  0  0  0  0  0999 V3000
M  V30 BEGIN CTAB
M  V30 COUNTS 42 44 0 0 0
M  V30 BEGIN ATOM
M  V30 1 N 4.84423 3.10715 -0.136096 0
M  V30 2 C 4.32287 1.78431 -0.145256 0
M  V30 3 N 5.10294 0.763092 -0.532239 0
M  V30 4 C 4.61996 -0.492651 -0.544707 0
M  V30 5 N 5.41856 -1.60866 -0.950396 0
M  V30 6 N 3.35565 -0.678735 -0.163325 0
M  V30 7 C 2.51061 0.287029 0.23712 0
M  V30 8 C 3.00068 1.56954 0.250902 0
M  V30 9 N 1.1817 -0.0359963 0.621314 0
M  V30 10 C 0.756971 -1.42266 0.581242 0
M  V30 11 C -0.57383 -1.51915 -0.153216 0
M  V30 12 N -1.4994 -0.642917 0.539628 0
M  V30 13 C -1.13534 0.686753 0.341425 0
M  V30 14 C 0.211064 0.913817 1.05319 0
M  V30 15 C -2.8377 -1.04605 0.209436 0
M  V30 16 C -3.92322 -0.286375 0.862539 0
M  V30 17 C -4.42516 0.936282 0.230725 0
M  V30 18 S -4.05485 1.17434 -1.50433 0
M  V30 19 C -3.17612 -0.249771 -2.16055 0
M  V30 20 C -3.05483 -1.3786 -1.22872 0
M  V30 21 H 5.36371 3.3911 0.725223 0
M  V30 22 H 4.72207 3.75705 -0.929161 0
M  V30 23 H 5.50784 -2.41454 -0.29393 0
M  V30 24 H 5.90038 -1.64196 -1.85469 0
M  V30 25 H 2.40232 2.38929 0.552715 0
M  V30 26 H 1.48624 -1.99677 0.00953072 0
M  V30 27 H 0.680708 -1.86451 1.59612 0
M  V30 28 H -0.944213 -2.562 -0.0717471 0
M  V30 29 H -0.394417 -1.20172 -1.18611 0
M  V30 30 H -0.923008 0.951324 -0.732417 0
M  V30 31 H -1.78808 1.46545 0.72909 0
M  V30 32 H -0.0163351 0.682472 2.1353 0
M  V30 33 H 0.476523 1.96206 1.01487 0
M  V30 34 H -2.88168 -2.075 0.703951 0
M  V30 35 H -3.54304 -0.00566679 1.89206 0
M  V30 36 H -4.78419 -0.980302 1.10728 0
M  V30 37 H -5.55725 0.957844 0.304344 0
M  V30 38 H -4.14351 1.88049 0.790752 0
M  V30 39 H -3.76103 -0.59827 -3.0633 0
M  V30 40 H -2.20018 0.104122 -2.60127 0
M  V30 41 H -3.99986 -1.99412 -1.29289 0
M  V30 42 H -2.2478 -2.0671 -1.55156 0
M  V30 END ATOM
M  V30 BEGIN BOND
M  V30 1 1 1 2
M  V30 2 2 2 3
M  V30 3 1 3 4
M  V30 4 1 4 5
M  V30 5 2 4 6
M  V30 6 1 6 7
M  V30 7 2 7 8
M  V30 8 1 7 9
M  V30 9 1 9 10
M  V30 10 1 10 11
M  V30 11 1 11 12
M  V30 12 1 12 13
M  V30 13 1 13 14
M  V30 14 1 12 15
M  V30 15 1 15 16
M  V30 16 1 16 17
M  V30 17 1 17 18
M  V30 18 1 18 19
M  V30 19 1 19 20
M  V30 20 1 8 2
M  V30 21 1 14 9
M  V30 22 1 20 15
M  V30 23 1 1 21
M  V30 24 1 1 22
M  V30 25 1 5 23
M  V30 26 1 5 24
M  V30 27 1 8 25
M  V30 28 1 10 26
M  V30 29 1 10 27
M  V30 30 1 11 28
M  V30 31 1 11 29
M  V30 32 1 13 30
M  V30 33 1 13 31
M  V30 34 1 14 32
M  V30 35 1 14 33
M  V30 36 1 15 34
M  V30 37 1 16 35
M  V30 38 1 16 36
M  V30 39 1 17 37
M  V30 40 1 17 38
M  V30 41 1 19 39
M  V30 42 1 19 40
M  V30 43 1 20 41
M  V30 44 1 20 42
M  V30 END BOND
M  V30 END CTAB
M  END
