
     RDKit          3D

  0  0  0  0  0  0  0  0  0  0999 V3000
M  V30 BEGIN CTAB
M  V30 COUNTS 17 17 0 0 0
M  V30 BEGIN ATOM
M  V30 1 N -2.66522 0.938846 -0.561052 0
M  V30 2 C -2.09629 -0.278904 -0.135177 0
M  V30 3 C -0.615133 -0.22625 0.00164003 0
M  V30 4 C -0.0167627 0.138718 1.19413 0
M  V30 5 N 1.32678 0.175524 1.28196 0
M  V30 6 C 2.14492 -0.127274 0.25938 0
M  V30 7 N 3.56848 -0.0696566 0.414126 0
M  V30 8 N 1.57884 -0.484403 -0.907978 0
M  V30 9 C 0.235326 -0.534725 -1.04053 0
M  V30 10 H -2.39465 1.32692 -1.44509 0
M  V30 11 H -3.40004 1.35509 -0.0179709 0
M  V30 12 H -2.38768 -1.08093 -0.86962 0
M  V30 13 H -2.5923 -0.587657 0.819857 0
M  V30 14 H -0.641411 0.391934 2.04785 0
M  V30 15 H 4.05781 0.734339 0.86461 0
M  V30 16 H 4.13119 -0.851136 0.0678365 0
M  V30 17 H -0.233875 -0.820435 -1.97397 0
M  V30 END ATOM
M  V30 BEGIN BOND
M  V30 1 1 1 2
M  V30 2 1 2 3
M  V30 3 2 3 4
M  V30 4 1 4 5
M  V30 5 2 5 6
M  V30 6 1 6 7
M  V30 7 1 6 8
M  V30 8 2 8 9
M  V30 9 1 9 3
M  V30 10 1 1 10
M  V30 11 1 1 11
M  V30 12 1 2 12
M  V30 13 1 2 13
M  V30 14 1 4 14
M  V30 15 1 7 15
M  V30 16 1 7 16
M  V30 17 1 9 17
M  V30 END BOND
M  V30 END CTAB
M  END
