
     RDKit          3D

  0  0  0  0  0  0  0  0  0  0999 V3000
M  V30 BEGIN CTAB
M  V30 COUNTS 38 38 0 0 0
M  V30 BEGIN ATOM
M  V30 1 N -2.94606 2.71663 1.43205 0
M  V30 2 C -2.29238 1.96692 0.371882 0
M  V30 3 C -1.53764 0.829999 0.989511 0
M  V30 4 N -0.838773 -0.0173698 0.0868622 0
M  V30 5 C -1.42369 -1.14592 -0.488805 0
M  V30 6 O -0.645884 -1.82205 -1.29278 0
M  V30 7 C -2.74621 -1.72933 -0.371522 0
M  V30 8 N -3.72301 -1.12407 0.434671 0
M  V30 9 C -3.31869 -2.02048 -1.77719 0
M  V30 10 C 0.564462 0.261017 -0.291794 0
M  V30 11 C 1.48357 -0.446212 0.681825 0
M  V30 12 C 2.88494 -0.155493 0.286197 0
M  V30 13 C 3.54987 -0.976513 -0.599039 0
M  V30 14 C 4.84818 -0.716002 -0.972007 0
M  V30 15 C 5.4945 0.383475 -0.452294 0
M  V30 16 C 4.85958 1.22639 0.435868 0
M  V30 17 C 3.56178 0.944417 0.793005 0
M  V30 18 H -2.41808 3.57545 1.70312 0
M  V30 19 H -3.91835 2.98529 1.20214 0
M  V30 20 H -3.05974 1.6928 -0.357972 0
M  V30 21 H -1.59812 2.71511 -0.11331 0
M  V30 22 H -2.18519 0.302335 1.70058 0
M  V30 23 H -0.762151 1.34218 1.6761 0
M  V30 24 H -2.58302 -2.77456 0.0554679 0
M  V30 25 H -3.83576 -1.47546 1.39289 0
M  V30 26 H -4.59897 -0.828076 -0.0310997 0
M  V30 27 H -2.44186 -2.25355 -2.41654 0
M  V30 28 H -3.89247 -1.14431 -2.11864 0
M  V30 29 H -3.9453 -2.93694 -1.7537 0
M  V30 30 H 0.749997 -0.174647 -1.29178 0
M  V30 31 H 0.778076 1.32832 -0.228323 0
M  V30 32 H 1.35259 -0.0208053 1.70362 0
M  V30 33 H 1.32395 -1.53293 0.697038 0
M  V30 34 H 3.02906 -1.83601 -0.998594 0
M  V30 35 H 5.33137 -1.3813 -1.66525 0
M  V30 36 H 6.51614 0.577312 -0.753894 0
M  V30 37 H 5.35171 2.08388 0.846385 0
M  V30 38 H 3.03159 1.58049 1.48534 0
M  V30 END ATOM
M  V30 BEGIN BOND
M  V30 1 1 1 2
M  V30 2 1 2 3
M  V30 3 1 3 4
M  V30 4 1 4 5
M  V30 5 2 5 6
M  V30 6 1 5 7
M  V30 7 1 7 8
M  V30 8 1 7 9
M  V30 9 1 4 10
M  V30 10 1 10 11
M  V30 11 1 11 12
M  V30 12 2 12 13
M  V30 13 1 13 14
M  V30 14 2 14 15
M  V30 15 1 15 16
M  V30 16 2 16 17
M  V30 17 1 17 12
M  V30 18 1 1 18
M  V30 19 1 1 19
M  V30 20 1 2 20
M  V30 21 1 2 21
M  V30 22 1 3 22
M  V30 23 1 3 23
M  V30 24 1 7 24
M  V30 25 1 8 25
M  V30 26 1 8 26
M  V30 27 1 9 27
M  V30 28 1 9 28
M  V30 29 1 9 29
M  V30 30 1 10 30
M  V30 31 1 10 31
M  V30 32 1 11 32
M  V30 33 1 11 33
M  V30 34 1 13 34
M  V30 35 1 14 35
M  V30 36 1 15 36
M  V30 37 1 16 37
M  V30 38 1 17 38
M  V30 END BOND
M  V30 END CTAB
M  END
