
     RDKit          3D

  0  0  0  0  0  0  0  0  0  0999 V3000
M  V30 BEGIN CTAB
M  V30 COUNTS 41 42 0 0 0
M  V30 BEGIN ATOM
M  V30 1 N 3.90047 3.72016 0.271866 0
M  V30 2 C 4.26677 2.96504 -0.900096 0
M  V30 3 C 4.23993 1.48283 -0.695969 0
M  V30 4 C 2.87057 0.978952 -0.299679 0
M  V30 5 O 2.8661 -0.42116 -0.111888 0
M  V30 6 C 1.73243 -1.12619 0.254622 0
M  V30 7 C 0.533613 -0.495839 0.458702 0
M  V30 8 C -0.61197 -1.22381 0.831134 0
M  V30 9 C -0.47952 -2.58352 0.980623 0
M  V30 10 C 0.732615 -3.25821 0.779255 0
M  V30 11 C 1.83225 -2.49023 0.412534 0
M  V30 12 C 3.15326 -3.12569 0.179731 0
M  V30 13 C -1.87122 -0.545832 1.0431 0
M  V30 14 O -1.92048 0.700572 0.878256 0
M  V30 15 N -3.04658 -1.21429 1.42566 0
M  V30 16 C -4.30968 -0.529329 1.63478 0
M  V30 17 C -4.72825 0.120936 0.341993 0
M  V30 18 N -5.74084 0.963249 0.16193 0
M  V30 19 N -5.9764 1.42605 -0.983251 0
M  V30 20 C -5.2215 1.08152 -2.02089 0
M  V30 21 S -4.10436 0.0125128 -1.2446 0
M  V30 22 N -5.3054 1.47734 -3.38378 0
M  V30 23 H 3.0554 4.28693 0.07095 0
M  V30 24 H 3.7548 3.09313 1.07341 0
M  V30 25 H 3.60179 3.26094 -1.76416 0
M  V30 26 H 5.29348 3.25333 -1.18689 0
M  V30 27 H 4.94156 1.25321 0.142209 0
M  V30 28 H 4.56398 0.995864 -1.61403 0
M  V30 29 H 2.62632 1.4394 0.682009 0
M  V30 30 H 2.09984 1.30417 -1.0317 0
M  V30 31 H 0.430362 0.573086 0.340965 0
M  V30 32 H -1.31933 -3.19482 1.26384 0
M  V30 33 H 0.789853 -4.3149 0.906413 0
M  V30 34 H 3.13784 -4.11215 0.692079 0
M  V30 35 H 3.32519 -3.22486 -0.90905 0
M  V30 36 H 3.93732 -2.49404 0.65813 0
M  V30 37 H -3.01701 -2.24337 1.56683 0
M  V30 38 H -5.11037 -1.25265 1.86992 0
M  V30 39 H -4.26811 0.229251 2.41533 0
M  V30 40 H -4.42811 1.63433 -3.9037 0
M  V30 41 H -6.2266 1.59807 -3.81979 0
M  V30 END ATOM
M  V30 BEGIN BOND
M  V30 1 1 1 2
M  V30 2 1 2 3
M  V30 3 1 3 4
M  V30 4 1 4 5
M  V30 5 1 5 6
M  V30 6 2 6 7
M  V30 7 1 7 8
M  V30 8 2 8 9
M  V30 9 1 9 10
M  V30 10 2 10 11
M  V30 11 1 11 12
M  V30 12 1 8 13
M  V30 13 2 13 14
M  V30 14 1 13 15
M  V30 15 1 15 16
M  V30 16 1 16 17
M  V30 17 2 17 18
M  V30 18 1 18 19
M  V30 19 2 19 20
M  V30 20 1 20 21
M  V30 21 1 20 22
M  V30 22 1 11 6
M  V30 23 1 21 17
M  V30 24 1 1 23
M  V30 25 1 1 24
M  V30 26 1 2 25
M  V30 27 1 2 26
M  V30 28 1 3 27
M  V30 29 1 3 28
M  V30 30 1 4 29
M  V30 31 1 4 30
M  V30 32 1 7 31
M  V30 33 1 9 32
M  V30 34 1 10 33
M  V30 35 1 12 34
M  V30 36 1 12 35
M  V30 37 1 12 36
M  V30 38 1 15 37
M  V30 39 1 16 38
M  V30 40 1 16 39
M  V30 41 1 22 40
M  V30 42 1 22 41
M  V30 END BOND
M  V30 END CTAB
M  END
