
     RDKit          3D

  0  0  0  0  0  0  0  0  0  0999 V3000
M  V30 BEGIN CTAB
M  V30 COUNTS 130 130 0 0 0
M  V30 BEGIN ATOM
M  V30 1 N -12.8485 -6.72914 -1.28833 0
M  V30 2 C -13.0292 -5.30514 -1.37322 0
M  V30 3 C -12.1709 -4.63446 -0.30672 0
M  V30 4 O -12.3206 -3.26069 -0.382567 0
M  V30 5 C -11.5557 -2.5863 0.52449 0
M  V30 6 C -10.08 -2.70057 0.369341 0
M  V30 7 O -9.51412 -2.26719 -0.762874 0
M  V30 8 C -9.80296 -2.80652 -1.94799 0
M  V30 9 C -8.93514 -2.24866 -3.07785 0
M  V30 10 O -7.6164 -2.47257 -2.87213 0
M  V30 11 C -6.95012 -1.79648 -1.90962 0
M  V30 12 C -5.53732 -2.34251 -1.71565 0
M  V30 13 N -4.89554 -1.5402 -0.661581 0
M  V30 14 C -4.10149 -0.445567 -1.11671 0
M  V30 15 O -4.01101 -0.187209 -2.31005 0
M  V30 16 C -3.37434 0.384642 -0.0837266 0
M  V30 17 C -1.93546 -0.0684424 -0.0471473 0
M  V30 18 O -1.22669 0.630017 0.927523 0
M  V30 19 C 0.0195909 -0.0138904 1.11394 0
M  V30 20 C 0.870409 -0.00588079 -0.134376 0
M  V30 21 O 2.03393 -0.683297 0.0437553 0
M  V30 22 C 2.91458 -0.296573 1.01609 0
M  V30 23 C 4.02358 -1.3792 0.942673 0
M  V30 24 O 5.02427 -1.21695 1.87069 0
M  V30 25 C 5.92743 -2.26507 1.81287 0
M  V30 26 C 6.71356 -2.23611 0.535512 0
M  V30 27 O 7.47674 -1.17612 0.397661 0
M  V30 28 C 7.06889 0.0922179 0.477894 0
M  V30 29 C 8.31295 1.01223 0.310665 0
M  V30 30 O 8.84437 0.796382 -0.926253 0
M  V30 31 C 8.17824 1.38153 -1.95161 0
M  V30 32 C 8.72102 1.07401 -3.3001 0
M  V30 33 O 9.93849 1.3088 -3.68586 0
M  V30 34 C 10.7514 2.32005 -3.66095 0
M  V30 35 C 11.3352 2.6243 -2.27187 0
M  V30 36 N 12.0562 1.46502 -1.81249 0
M  V30 37 C 12.7226 1.43221 -0.553865 0
M  V30 38 O 12.6611 2.46712 0.129864 0
M  V30 39 C 13.4006 0.177975 -0.215772 0
M  V30 40 C 14.1796 0.0111354 1.00388 0
M  V30 41 N 15.3321 0.808486 1.24935 0
M  V30 42 C 15.4822 1.97586 2.00436 0
M  V30 43 O 14.6219 2.57928 2.68289 0
M  V30 44 C 16.8826 2.43518 1.89585 0
M  V30 45 C 17.5145 1.57508 1.11734 0
M  V30 46 C 16.6151 0.525949 0.669976 0
M  V30 47 O 16.8772 -0.460353 -0.0845948 0
M  V30 48 C -5.04769 -1.80817 0.706021 0
M  V30 49 C -6.14797 -1.42831 1.5603 0
M  V30 50 O -6.72041 -0.3443 1.92531 0
M  V30 51 C -7.48931 0.594639 1.4695 0
M  V30 52 C -6.99357 1.49984 0.385756 0
M  V30 53 O -7.90042 2.4117 -0.0203794 0
M  V30 54 C -8.44524 3.36016 0.72367 0
M  V30 55 C -7.50092 4.44386 1.17373 0
M  V30 56 O -6.49365 3.95346 1.94297 0
M  V30 57 C -5.54992 4.91355 2.2865 0
M  V30 58 C -6.19179 6.04726 3.03322 0
M  V30 59 N -6.80624 5.52788 4.2307 0
M  V30 60 H -12.0515 -6.97919 -0.668201 0
M  V30 61 H -13.7022 -7.18632 -0.956613 0
M  V30 62 H -14.0821 -5.00703 -1.16018 0
M  V30 63 H -12.6893 -4.9297 -2.35406 0
M  V30 64 H -11.1476 -5.01787 -0.362948 0
M  V30 65 H -12.6083 -4.96093 0.68447 0
M  V30 66 H -11.8744 -2.95868 1.56234 0
M  V30 67 H -11.853 -1.50264 0.577292 0
M  V30 68 H -9.61744 -2.18202 1.28173 0
M  V30 69 H -9.82932 -3.79042 0.58076 0
M  V30 70 H -10.8657 -2.568 -2.23021 0
M  V30 71 H -9.64675 -3.93489 -1.95887 0
M  V30 72 H -9.10938 -1.14282 -3.04376 0
M  V30 73 H -9.30839 -2.58316 -4.06225 0
M  V30 74 H -6.83399 -0.720274 -2.32656 0
M  V30 75 H -7.41959 -1.63491 -0.942369 0
M  V30 76 H -5.53444 -3.40887 -1.51164 0
M  V30 77 H -5.01351 -2.16628 -2.67534 0
M  V30 78 H -3.83857 0.39079 0.889103 0
M  V30 79 H -3.41191 1.44881 -0.451536 0
M  V30 80 H -1.92638 -1.15006 0.0632543 0
M  V30 81 H -1.47629 0.175197 -1.05416 0
M  V30 82 H -0.14478 -1.05408 1.48941 0
M  V30 83 H 0.567146 0.513519 1.9127 0
M  V30 84 H 0.296981 -0.587574 -0.921768 0
M  V30 85 H 0.955211 1.02853 -0.50421 0
M  V30 86 H 3.4104 0.675942 0.814169 0
M  V30 87 H 2.51486 -0.268136 2.04165 0
M  V30 88 H 4.40622 -1.41322 -0.0955035 0
M  V30 89 H 3.48464 -2.33704 1.09516 0
M  V30 90 H 5.39863 -3.25389 1.92102 0
M  V30 91 H 6.63935 -2.2062 2.65711 0
M  V30 92 H 7.38195 -3.19368 0.506633 0
M  V30 93 H 6.02467 -2.49027 -0.32807 0
M  V30 94 H 6.31441 0.298613 -0.298301 0
M  V30 95 H 6.6097 0.432395 1.44226 0
M  V30 96 H 7.99228 2.07927 0.398119 0
M  V30 97 H 9.03684 0.796368 1.1077 0
M  V30 98 H 8.0559 2.49501 -1.82795 0
M  V30 99 H 7.11151 0.95776 -1.9679 0
M  V30 100 H 8.4944 -0.0389973 -3.46421 0
M  V30 101 H 7.94259 1.5025 -4.08612 0
M  V30 102 H 11.5799 2.33949 -4.41356 0
M  V30 103 H 10.1821 3.28267 -3.90075 0
M  V30 104 H 10.589 2.92127 -1.54632 0
M  V30 105 H 12.0564 3.47321 -2.34787 0
M  V30 106 H 12.0861 0.604672 -2.44388 0
M  V30 107 H 13.9367 -0.21795 -1.13779 0
M  V30 108 H 12.533 -0.586866 -0.141712 0
M  V30 109 H 14.5562 -1.0722 1.00831 0
M  V30 110 H 13.5109 -0.00630868 1.93178 0
M  V30 111 H 17.2744 3.31917 2.37236 0
M  V30 112 H 18.5803 1.62683 0.829415 0
M  V30 113 H -4.07896 -1.46194 1.23373 0
M  V30 114 H -4.84999 -2.97532 0.834152 0
M  V30 115 H -5.81395 -1.9389 2.61344 0
M  V30 116 H -7.05442 -2.19144 1.33895 0
M  V30 117 H -7.94662 1.24947 2.31034 0
M  V30 118 H -8.47787 0.116646 1.04373 0
M  V30 119 H -6.73789 0.83907 -0.489401 0
M  V30 120 H -6.01389 1.93608 0.762383 0
M  V30 121 H -9.03624 2.97771 1.61615 0
M  V30 122 H -9.24193 3.88152 0.0840309 0
M  V30 123 H -8.11483 5.25145 1.70159 0
M  V30 124 H -7.09407 4.90242 0.218356 0
M  V30 125 H -4.79691 4.43064 2.96179 0
M  V30 126 H -5.00465 5.27862 1.37415 0
M  V30 127 H -5.38554 6.78187 3.35899 0
M  V30 128 H -6.92402 6.54844 2.39487 0
M  V30 129 H -7.8341 5.4549 4.20022 0
M  V30 130 H -6.44004 5.98328 5.10565 0
M  V30 END ATOM
M  V30 BEGIN BOND
M  V30 1 1 1 2
M  V30 2 1 2 3
M  V30 3 1 3 4
M  V30 4 1 4 5
M  V30 5 1 5 6
M  V30 6 1 6 7
M  V30 7 1 7 8
M  V30 8 1 8 9
M  V30 9 1 9 10
M  V30 10 1 10 11
M  V30 11 1 11 12
M  V30 12 1 12 13
M  V30 13 1 13 14
M  V30 14 2 14 15
M  V30 15 1 14 16
M  V30 16 1 16 17
M  V30 17 1 17 18
M  V30 18 1 18 19
M  V30 19 1 19 20
M  V30 20 1 20 21
M  V30 21 1 21 22
M  V30 22 1 22 23
M  V30 23 1 23 24
M  V30 24 1 24 25
M  V30 25 1 25 26
M  V30 26 1 26 27
M  V30 27 1 27 28
M  V30 28 1 28 29
M  V30 29 1 29 30
M  V30 30 1 30 31
M  V30 31 1 31 32
M  V30 32 1 32 33
M  V30 33 1 33 34
M  V30 34 1 34 35
M  V30 35 1 35 36
M  V30 36 1 36 37
M  V30 37 2 37 38
M  V30 38 1 37 39
M  V30 39 1 39 40
M  V30 40 1 40 41
M  V30 41 1 41 42
M  V30 42 2 42 43
M  V30 43 1 42 44
M  V30 44 2 44 45
M  V30 45 1 45 46
M  V30 46 2 46 47
M  V30 47 1 13 48
M  V30 48 1 48 49
M  V30 49 1 49 50
M  V30 50 1 50 51
M  V30 51 1 51 52
M  V30 52 1 52 53
M  V30 53 1 53 54
M  V30 54 1 54 55
M  V30 55 1 55 56
M  V30 56 1 56 57
M  V30 57 1 57 58
M  V30 58 1 58 59
M  V30 59 1 46 41
M  V30 60 1 1 60
M  V30 61 1 1 61
M  V30 62 1 2 62
M  V30 63 1 2 63
M  V30 64 1 3 64
M  V30 65 1 3 65
M  V30 66 1 5 66
M  V30 67 1 5 67
M  V30 68 1 6 68
M  V30 69 1 6 69
M  V30 70 1 8 70
M  V30 71 1 8 71
M  V30 72 1 9 72
M  V30 73 1 9 73
M  V30 74 1 11 74
M  V30 75 1 11 75
M  V30 76 1 12 76
M  V30 77 1 12 77
M  V30 78 1 16 78
M  V30 79 1 16 79
M  V30 80 1 17 80
M  V30 81 1 17 81
M  V30 82 1 19 82
M  V30 83 1 19 83
M  V30 84 1 20 84
M  V30 85 1 20 85
M  V30 86 1 22 86
M  V30 87 1 22 87
M  V30 88 1 23 88
M  V30 89 1 23 89
M  V30 90 1 25 90
M  V30 91 1 25 91
M  V30 92 1 26 92
M  V30 93 1 26 93
M  V30 94 1 28 94
M  V30 95 1 28 95
M  V30 96 1 29 96
M  V30 97 1 29 97
M  V30 98 1 31 98
M  V30 99 1 31 99
M  V30 100 1 32 100
M  V30 101 1 32 101
M  V30 102 1 34 102
M  V30 103 1 34 103
M  V30 104 1 35 104
M  V30 105 1 35 105
M  V30 106 1 36 106
M  V30 107 1 39 107
M  V30 108 1 39 108
M  V30 109 1 40 109
M  V30 110 1 40 110
M  V30 111 1 44 111
M  V30 112 1 45 112
M  V30 113 1 48 113
M  V30 114 1 48 114
M  V30 115 1 49 115
M  V30 116 1 49 116
M  V30 117 1 51 117
M  V30 118 1 51 118
M  V30 119 1 52 119
M  V30 120 1 52 120
M  V30 121 1 54 121
M  V30 122 1 54 122
M  V30 123 1 55 123
M  V30 124 1 55 124
M  V30 125 1 57 125
M  V30 126 1 57 126
M  V30 127 1 58 127
M  V30 128 1 58 128
M  V30 129 1 59 129
M  V30 130 1 59 130
M  V30 END BOND
M  V30 END CTAB
M  END
