
     RDKit          3D

  0  0  0  0  0  0  0  0  0  0999 V3000
M  V30 BEGIN CTAB
M  V30 COUNTS 30 30 0 0 0
M  V30 BEGIN ATOM
M  V30 1 N -2.75985 0.309945 -0.696415 0
M  V30 2 C -1.50839 0.0846847 -0.0447173 0
M  V30 3 C -0.599537 1.25752 -0.211853 0
M  V30 4 C -1.28802 2.45584 0.455879 0
M  V30 5 C 0.773936 1.07824 0.300103 0
M  V30 6 N 1.27124 -0.212838 0.436505 0
M  V30 7 C 0.442746 -1.32288 0.271455 0
M  V30 8 C -0.776332 -1.12951 -0.584663 0
M  V30 9 C -1.6235 -2.3844 -0.480311 0
M  V30 10 S 2.84754 -0.479799 -0.184157 0
M  V30 11 O 3.19688 -1.93213 0.114902 0
M  V30 12 O 2.85321 -0.301142 -1.66889 0
M  V30 13 N 4.02878 0.482747 0.601621 0
M  V30 14 H -3.52703 -0.322073 -0.390936 0
M  V30 15 H -2.69801 0.456919 -1.70851 0
M  V30 16 H -1.71076 -0.0483601 1.04425 0
M  V30 17 H -0.581316 1.52401 -1.30911 0
M  V30 18 H -2.16591 2.72857 -0.173584 0
M  V30 19 H -1.68024 2.1842 1.44665 0
M  V30 20 H -0.62663 3.34523 0.460883 0
M  V30 21 H 0.842514 1.61033 1.29472 0
M  V30 22 H 1.46806 1.67594 -0.361557 0
M  V30 23 H 1.01431 -2.17762 -0.152738 0
M  V30 24 H 0.0769102 -1.66455 1.27907 0
M  V30 25 H -0.550633 -0.957514 -1.64074 0
M  V30 26 H -2.48105 -2.31921 -1.20453 0
M  V30 27 H -0.973866 -3.22648 -0.79843 0
M  V30 28 H -1.96626 -2.56722 0.545469 0
M  V30 29 H 4.9325 0.348579 0.06464 0
M  V30 30 H 3.76872 1.50298 0.551162 0
M  V30 END ATOM
M  V30 BEGIN BOND
M  V30 1 1 1 2
M  V30 2 1 2 3
M  V30 3 1 3 4
M  V30 4 1 3 5
M  V30 5 1 5 6
M  V30 6 1 6 7
M  V30 7 1 7 8
M  V30 8 1 8 9
M  V30 9 1 6 10
M  V30 10 2 10 11
M  V30 11 2 10 12
M  V30 12 1 10 13
M  V30 13 1 8 2
M  V30 14 1 1 14
M  V30 15 1 1 15
M  V30 16 1 2 16
M  V30 17 1 3 17
M  V30 18 1 4 18
M  V30 19 1 4 19
M  V30 20 1 4 20
M  V30 21 1 5 21
M  V30 22 1 5 22
M  V30 23 1 7 23
M  V30 24 1 7 24
M  V30 25 1 8 25
M  V30 26 1 9 26
M  V30 27 1 9 27
M  V30 28 1 9 28
M  V30 29 1 13 29
M  V30 30 1 13 30
M  V30 END BOND
M  V30 END CTAB
M  END
