
     RDKit          3D

  0  0  0  0  0  0  0  0  0  0999 V3000
M  V30 BEGIN CTAB
M  V30 COUNTS 99 99 0 0 0
M  V30 BEGIN ATOM
M  V30 1 C -3.96988 -4.26814 1.0566 0
M  V30 2 C -4.00858 -2.88876 0.391658 0
M  V30 3 C -4.30605 -1.82438 1.39834 0 CFG=2
M  V30 4 C -5.61937 -1.97221 2.09941 0
M  V30 5 C -4.07467 -0.401206 0.8871 0 CFG=2
M  V30 6 N -4.72523 0.0234996 -0.15547 0
M  V30 7 C -5.44491 0.484418 -1.32102 0
M  V30 8 O -5.45512 -0.25932 -2.36087 0
M  V30 9 C -6.17545 1.77411 -1.40489 0 CFG=2
M  V30 10 C -7.46773 1.77181 -0.672431 0
M  V30 11 C -7.35908 1.6091 0.793781 0
M  V30 12 C -6.64807 2.75903 1.36589 0
M  V30 13 O -7.45051 3.82649 1.83674 0
M  V30 14 O -5.43621 2.9035 1.48373 0
M  V30 15 N -6.54154 1.98812 -2.8268 0
M  V30 16 C -6.2944 3.22523 -3.44775 0
M  V30 17 O -5.78802 4.23007 -2.91265 0
M  V30 18 C -6.66474 3.36869 -4.88847 0 CFG=1
M  V30 19 N -6.88411 4.75358 -5.27692 0
M  V30 20 C -5.43727 2.92945 -5.71567 0
M  V30 21 O -5.08214 1.62336 -5.45951 0
M  V30 22 C -2.59538 -0.151974 0.820163 0
M  V30 23 O -2.17863 0.391503 -0.245696 0
M  V30 24 N -1.64291 -0.457419 1.81934 0
M  V30 25 C -0.267957 -0.135908 1.59391 0 CFG=1
M  V30 26 C 0.0665082 1.02346 2.54101 0
M  V30 27 C 0.707588 -1.23641 1.80364 0
M  V30 28 O 0.331773 -2.32671 2.29448 0
M  V30 29 N 2.04961 -1.05774 1.452 0
M  V30 30 C 3.09112 -2.04942 1.62576 0 CFG=1
M  V30 31 C 3.13119 -2.94452 0.389397 0
M  V30 32 C 4.13067 -3.98959 0.387255 0
M  V30 33 C 5.40376 -3.89079 -0.114739 0
M  V30 34 N 6.01235 -5.06517 0.0566605 0
M  V30 35 C 5.13413 -5.88514 0.655579 0
M  V30 36 N 3.98224 -5.23423 0.859801 0
M  V30 37 C 4.36027 -1.33922 1.82528 0
M  V30 38 O 4.31876 -0.108362 1.41796 0
M  V30 39 N 5.55943 -1.76898 2.36805 0
M  V30 40 C 6.68823 -0.813227 2.43119 0 CFG=1
M  V30 41 C 7.2147 -0.675804 1.06356 0
M  V30 42 C 8.27729 0.321833 0.786324 0
M  V30 43 C 7.81602 1.73761 0.804176 0
M  V30 44 N 8.90422 2.67559 0.510665 0
M  V30 45 C 9.40616 2.65781 -0.794761 0
M  V30 46 N 8.61319 3.27137 -1.80526 0
M  V30 47 N 10.5167 2.13522 -1.10228 0
M  V30 48 C 6.52865 0.27851 3.34661 0
M  V30 49 O 7.68786 0.868441 3.95429 0
M  V30 50 O 5.46307 0.837299 3.73605 0
M  V30 51 H -3.03801 -4.81589 0.813003 0
M  V30 52 H -4.86109 -4.85479 0.791544 0
M  V30 53 H -3.96268 -4.07533 2.15332 0
M  V30 54 H -3.0446 -2.76009 -0.113719 0
M  V30 55 H -4.87856 -2.89077 -0.322949 0
M  V30 56 H -3.52457 -1.96673 2.21724 0
M  V30 57 H -5.51864 -2.74132 2.88805 0
M  V30 58 H -5.79288 -1.01415 2.65198 0
M  V30 59 H -6.47272 -2.19741 1.41547 0
M  V30 60 H -4.37789 0.215069 1.84825 0
M  V30 61 H -4.28819 -1.04502 -0.88157 0
M  V30 62 H -5.57085 2.64726 -1.06622 0
M  V30 63 H -8.14402 2.60912 -0.978072 0
M  V30 64 H -8.01998 0.844311 -1.0561 0
M  V30 65 H -6.93054 0.642029 1.08012 0
M  V30 66 H -8.40841 1.55899 1.24485 0
M  V30 67 H -7.95091 4.34747 1.11856 0
M  V30 68 H -6.97746 1.2165 -3.33281 0
M  V30 69 H -7.52892 2.77303 -5.15842 0
M  V30 70 H -7.2724 4.75875 -6.22483 0
M  V30 71 H -7.59227 5.18056 -4.63126 0
M  V30 72 H -5.68144 3.02927 -6.78172 0
M  V30 73 H -4.63293 3.65134 -5.46338 0
M  V30 74 H -4.64751 1.62331 -4.54706 0
M  V30 75 H -1.90911 -0.905839 2.71759 0
M  V30 76 H -0.142459 0.277202 0.591851 0
M  V30 77 H -0.754477 1.78013 2.40949 0
M  V30 78 H 0.999245 1.50834 2.18974 0
M  V30 79 H 0.0561766 0.703558 3.58074 0
M  V30 80 H 2.28767 -0.108336 1.03366 0
M  V30 81 H 2.84638 -2.70277 2.44865 0
M  V30 82 H 2.0937 -3.34727 0.245985 0
M  V30 83 H 3.30999 -2.26752 -0.486378 0
M  V30 84 H 5.83506 -3.02436 -0.566751 0
M  V30 85 H 7.00958 -5.33085 -0.223304 0
M  V30 86 H 5.37264 -6.92373 0.916123 0
M  V30 87 H 5.70182 -2.70368 2.7325 0
M  V30 88 H 7.53684 -1.46976 2.95868 0
M  V30 89 H 6.39248 -0.504576 0.297628 0
M  V30 90 H 7.6814 -1.69683 0.785349 0
M  V30 91 H 8.75192 0.159368 -0.227562 0
M  V30 92 H 9.13814 0.170966 1.5008 0
M  V30 93 H 7.106 1.85411 -0.0976665 0
M  V30 94 H 7.25621 2.12287 1.61947 0
M  V30 95 H 9.24635 3.2914 1.25704 0
M  V30 96 H 8.38399 2.76058 -2.66601 0
M  V30 97 H 8.27332 4.26335 -1.63713 0
M  V30 98 H 11.1383 1.67541 -0.368569 0
M  V30 99 H 7.62881 0.958238 4.94831 0
M  V30 END ATOM
M  V30 BEGIN BOND
M  V30 1 1 1 2
M  V30 2 1 2 3
M  V30 3 1 3 4
M  V30 4 1 3 5
M  V30 5 1 5 6
M  V30 6 1 6 7
M  V30 7 2 7 8
M  V30 8 1 7 9
M  V30 9 1 9 10
M  V30 10 1 10 11
M  V30 11 1 11 12
M  V30 12 1 12 13
M  V30 13 2 12 14
M  V30 14 1 9 15
M  V30 15 1 15 16
M  V30 16 2 16 17
M  V30 17 1 16 18
M  V30 18 1 18 19
M  V30 19 1 18 20
M  V30 20 1 20 21
M  V30 21 1 5 22
M  V30 22 2 22 23
M  V30 23 1 22 24
M  V30 24 1 24 25
M  V30 25 1 25 26
M  V30 26 1 25 27
M  V30 27 2 27 28
M  V30 28 1 27 29
M  V30 29 1 29 30
M  V30 30 1 30 31
M  V30 31 1 31 32
M  V30 32 2 32 33
M  V30 33 1 33 34
M  V30 34 1 34 35
M  V30 35 2 35 36
M  V30 36 1 30 37
M  V30 37 2 37 38
M  V30 38 1 37 39
M  V30 39 1 39 40
M  V30 40 1 40 41
M  V30 41 1 41 42
M  V30 42 1 42 43
M  V30 43 1 43 44
M  V30 44 1 44 45
M  V30 45 1 45 46
M  V30 46 2 45 47 CFG=2
M  V30 47 1 40 48
M  V30 48 1 48 49
M  V30 49 2 48 50
M  V30 50 1 36 32
M  V30 51 1 1 51
M  V30 52 1 1 52
M  V30 53 1 1 53
M  V30 54 1 2 54
M  V30 55 1 2 55
M  V30 56 1 3 56 CFG=1
M  V30 57 1 4 57
M  V30 58 1 4 58
M  V30 59 1 4 59
M  V30 60 1 5 60 CFG=1
M  V30 61 1 6 61
M  V30 62 1 9 62 CFG=1
M  V30 63 1 10 63
M  V30 64 1 10 64
M  V30 65 1 11 65
M  V30 66 1 11 66
M  V30 67 1 13 67
M  V30 68 1 15 68
M  V30 69 1 18 69 CFG=3
M  V30 70 1 19 70
M  V30 71 1 19 71
M  V30 72 1 20 72
M  V30 73 1 20 73
M  V30 74 1 21 74
M  V30 75 1 24 75
M  V30 76 1 25 76 CFG=3
M  V30 77 1 26 77
M  V30 78 1 26 78
M  V30 79 1 26 79
M  V30 80 1 29 80
M  V30 81 1 30 81 CFG=1
M  V30 82 1 31 82
M  V30 83 1 31 83
M  V30 84 1 33 84
M  V30 85 1 34 85
M  V30 86 1 35 86
M  V30 87 1 39 87
M  V30 88 1 40 88 CFG=1
M  V30 89 1 41 89
M  V30 90 1 41 90
M  V30 91 1 42 91
M  V30 92 1 42 92
M  V30 93 1 43 93
M  V30 94 1 43 94
M  V30 95 1 44 95
M  V30 96 1 46 96
M  V30 97 1 46 97
M  V30 98 1 47 98
M  V30 99 1 49 99
M  V30 END BOND
M  V30 END CTAB
M  END
