
     RDKit          3D

  0  0  0  0  0  0  0  0  0  0999 V3000
M  V30 BEGIN CTAB
M  V30 COUNTS 41 45 0 0 0
M  V30 BEGIN ATOM
M  V30 1 N -8.77207 0.789063 -0.0304553 0
M  V30 2 C -7.46975 0.261969 0.275333 0
M  V30 3 C -7.31572 -0.832959 1.10406 0
M  V30 4 C -6.05158 -1.32288 1.38423 0
M  V30 5 C -4.91591 -0.737811 0.849031 0
M  V30 6 C -5.06042 0.354975 0.0212248 0
M  V30 7 C -6.32552 0.832256 -0.249166 0
M  V30 8 N -3.80133 0.691284 -0.332401 0
M  V30 9 C -2.92383 -0.148153 0.245358 0
M  V30 10 O -3.62573 -0.983122 0.939473 0
M  V30 11 C -1.47231 -0.107953 0.104417 0
M  V30 12 C -0.847899 0.843801 -0.673492 0
M  V30 13 C 0.520599 0.901577 -0.821635 0
M  V30 14 C 1.31126 -0.0350329 -0.162673 0
M  V30 15 C 0.709226 -0.994729 0.619636 0
M  V30 16 C -0.678728 -1.03051 0.75237 0
M  V30 17 C 2.76129 0.0239577 -0.317932 0
M  V30 18 N 3.66385 -0.786997 0.236031 0
M  V30 19 C 4.91227 -0.418256 -0.141686 0
M  V30 20 C 4.77636 0.673547 -0.96936 0
M  V30 21 N 3.44905 0.91401 -1.05324 0
M  V30 22 C 5.90311 1.26021 -1.5051 0
M  V30 23 C 7.15984 0.787221 -1.2374 0
M  V30 24 C 7.28809 -0.306139 -0.407947 0
M  V30 25 C 6.17393 -0.914417 0.143431 0
M  V30 26 N 8.57648 -0.822641 -0.109254 0
M  V30 27 H -8.9902 1.80629 0.0451355 0
M  V30 28 H -9.50696 0.143261 -0.331769 0
M  V30 29 H -8.20128 -1.31587 1.54188 0
M  V30 30 H -5.96081 -2.17736 2.0332 0
M  V30 31 H -6.37976 1.70081 -0.911713 0
M  V30 32 H -1.44781 1.5907 -1.2013 0
M  V30 33 H 1.01627 1.65159 -1.43493 0
M  V30 34 H 1.31754 -1.73347 1.14055 0
M  V30 35 H -1.10699 -1.80163 1.37676 0
M  V30 36 H 3.05534 1.68925 -1.61839 0
M  V30 37 H 5.77522 2.11469 -2.15123 0
M  V30 38 H 8.0541 1.25288 -1.66264 0
M  V30 39 H 6.28242 -1.7691 0.791188 0
M  V30 40 H 9.25917 -1.08343 -0.864495 0
M  V30 41 H 8.88921 -0.96087 0.873942 0
M  V30 END ATOM
M  V30 BEGIN BOND
M  V30 1 1 1 2
M  V30 2 2 2 3
M  V30 3 1 3 4
M  V30 4 2 4 5
M  V30 5 1 5 6
M  V30 6 2 6 7
M  V30 7 1 6 8
M  V30 8 2 8 9
M  V30 9 1 9 10
M  V30 10 1 9 11
M  V30 11 2 11 12
M  V30 12 1 12 13
M  V30 13 2 13 14
M  V30 14 1 14 15
M  V30 15 2 15 16
M  V30 16 1 14 17
M  V30 17 2 17 18
M  V30 18 1 18 19
M  V30 19 2 19 20
M  V30 20 1 20 21
M  V30 21 1 20 22
M  V30 22 2 22 23
M  V30 23 1 23 24
M  V30 24 2 24 25
M  V30 25 1 24 26
M  V30 26 1 7 2
M  V30 27 1 16 11
M  V30 28 1 21 17
M  V30 29 1 10 5
M  V30 30 1 25 19
M  V30 31 1 1 27
M  V30 32 1 1 28
M  V30 33 1 3 29
M  V30 34 1 4 30
M  V30 35 1 7 31
M  V30 36 1 12 32
M  V30 37 1 13 33
M  V30 38 1 15 34
M  V30 39 1 16 35
M  V30 40 1 21 36
M  V30 41 1 22 37
M  V30 42 1 23 38
M  V30 43 1 25 39
M  V30 44 1 26 40
M  V30 45 1 26 41
M  V30 END BOND
M  V30 END CTAB
M  END
