
     RDKit          3D

  0  0  0  0  0  0  0  0  0  0999 V3000
M  V30 BEGIN CTAB
M  V30 COUNTS 51 54 0 0 0
M  V30 BEGIN ATOM
M  V30 1 C -3.18683 -0.654208 -2.1875 0
M  V30 2 C -2.18551 -1.0663 -1.13932 0
M  V30 3 C -2.37333 -2.48445 -0.730722 0
M  V30 4 C -0.793906 -0.75578 -1.67943 0
M  V30 5 C -0.038019 -0.398838 -0.432557 0
M  V30 6 C 0.439599 -1.63223 0.24913 0
M  V30 7 C 1.83916 -1.38039 0.671084 0
M  V30 8 C 2.76757 -2.53893 0.352309 0
M  V30 9 C 1.93503 -1.149 2.17568 0
M  V30 10 C 2.23244 -0.15907 -0.0769796 0
M  V30 11 C 1.16648 0.406616 -0.708301 0
M  V30 12 C 1.38517 1.56874 -1.45484 0
M  V30 13 C 2.62131 2.15973 -1.57745 0
M  V30 14 O 2.7852 3.3192 -2.33469 0
M  V30 15 C 3.66872 1.55069 -0.920678 0
M  V30 16 N 4.96313 2.14912 -1.03508 0
M  V30 17 C 3.51995 0.41044 -0.17314 0
M  V30 18 C -1.03178 0.299029 0.393034 0
M  V30 19 C -2.28143 -0.0926878 -0.00407338 0
M  V30 20 C -3.44954 0.392174 0.59857 0
M  V30 21 C -3.29779 1.29702 1.62712 0
M  V30 22 N -4.44186 1.83241 2.2866 0
M  V30 23 C -2.06115 1.72248 2.06272 0
M  V30 24 O -1.91772 2.64279 3.10897 0
M  V30 25 C -0.951199 1.21775 1.44007 0
M  V30 26 H -3.0623 -1.31417 -3.06777 0
M  V30 27 H -4.22466 -0.730551 -1.77631 0
M  V30 28 H -3.02256 0.412657 -2.41249 0
M  V30 29 H -1.68667 -3.12168 -1.33668 0
M  V30 30 H -3.40194 -2.78987 -1.07023 0
M  V30 31 H -2.34369 -2.68301 0.340127 0
M  V30 32 H -0.363547 -1.59801 -2.22498 0
M  V30 33 H -0.845254 0.155819 -2.31324 0
M  V30 34 H 0.458738 -2.50181 -0.467305 0
M  V30 35 H -0.236822 -1.85199 1.1204 0
M  V30 36 H 2.95718 -2.48382 -0.74856 0
M  V30 37 H 2.3169 -3.5087 0.573273 0
M  V30 38 H 3.70453 -2.34677 0.915976 0
M  V30 39 H 1.1436 -1.7551 2.67316 0
M  V30 40 H 2.94673 -1.4514 2.4867 0
M  V30 41 H 1.73381 -0.0862043 2.42266 0
M  V30 42 H 0.536944 1.99671 -1.94198 0
M  V30 43 H 3.71513 3.70884 -2.38925 0
M  V30 44 H 5.42523 2.64104 -0.253265 0
M  V30 45 H 5.46187 2.08478 -1.95092 0
M  V30 46 H 4.36456 -0.0657907 0.346252 0
M  V30 47 H -4.43198 0.0626402 0.262198 0
M  V30 48 H -4.52684 1.83236 3.32497 0
M  V30 49 H -5.20021 2.22881 1.692 0
M  V30 50 H -2.77773 2.99151 3.54301 0
M  V30 51 H 0.0452893 1.51741 1.74171 0
M  V30 END ATOM
M  V30 BEGIN BOND
M  V30 1 1 1 2
M  V30 2 1 2 3
M  V30 3 1 2 4
M  V30 4 1 4 5
M  V30 5 1 5 6
M  V30 6 1 6 7
M  V30 7 1 7 8
M  V30 8 1 7 9
M  V30 9 1 7 10
M  V30 10 2 10 11
M  V30 11 1 11 12
M  V30 12 2 12 13
M  V30 13 1 13 14
M  V30 14 1 13 15
M  V30 15 1 15 16
M  V30 16 2 15 17
M  V30 17 1 5 18
M  V30 18 2 18 19
M  V30 19 1 19 20
M  V30 20 2 20 21
M  V30 21 1 21 22
M  V30 22 1 21 23
M  V30 23 1 23 24
M  V30 24 2 23 25
M  V30 25 1 19 2
M  V30 26 1 11 5
M  V30 27 1 25 18
M  V30 28 1 17 10
M  V30 29 1 1 26
M  V30 30 1 1 27
M  V30 31 1 1 28
M  V30 32 1 3 29
M  V30 33 1 3 30
M  V30 34 1 3 31
M  V30 35 1 4 32
M  V30 36 1 4 33
M  V30 37 1 6 34
M  V30 38 1 6 35
M  V30 39 1 8 36
M  V30 40 1 8 37
M  V30 41 1 8 38
M  V30 42 1 9 39
M  V30 43 1 9 40
M  V30 44 1 9 41
M  V30 45 1 12 42
M  V30 46 1 14 43
M  V30 47 1 16 44
M  V30 48 1 16 45
M  V30 49 1 17 46
M  V30 50 1 20 47
M  V30 51 1 22 48
M  V30 52 1 22 49
M  V30 53 1 24 50
M  V30 54 1 25 51
M  V30 END BOND
M  V30 END CTAB
M  END
