
     RDKit          3D

  0  0  0  0  0  0  0  0  0  0999 V3000
M  V30 BEGIN CTAB
M  V30 COUNTS 30 31 0 0 0
M  V30 BEGIN ATOM
M  V30 1 N 2.32665 -0.445903 -1.70146 0
M  V30 2 C 2.47134 0.177758 -0.445856 0
M  V30 3 N 3.49837 0.855844 0.0784863 0
M  V30 4 N 3.29108 1.18151 1.31281 0
M  V30 5 C 2.07601 0.709675 1.6416 0
M  V30 6 C 1.4897 0.0613598 0.581016 0
M  V30 7 C 0.118548 -0.468711 0.437978 0 CFG=2
M  V30 8 C -0.0713358 -1.8006 1.03124 0
M  V30 9 N -1.13731 -2.50546 0.257469 0
M  V30 10 C -2.28158 -1.6009 0.406544 0
M  V30 11 C -2.05372 -0.352541 -0.355865 0
M  V30 12 N -0.632126 -0.129129 -0.71887 0
M  V30 13 S -0.610604 1.59039 -1.0515 0
M  V30 14 O 0.101957 2.35731 0.0423505 0
M  V30 15 O -0.0840684 1.90854 -2.39468 0
M  V30 16 N -2.2662 2.15891 -0.94821 0
M  V30 17 H 2.21922 -1.51086 -1.77107 0
M  V30 18 H 2.33663 0.0791473 -2.55607 0
M  V30 19 H 3.88443 1.71494 2.02627 0
M  V30 20 H 1.60913 0.829276 2.62206 0
M  V30 21 H -0.466682 0.212936 1.2477 0
M  V30 22 H -0.344458 -1.86274 2.07495 0
M  V30 23 H 0.853731 -2.46225 0.901345 0
M  V30 24 H -0.821681 -2.56408 -0.74889 0
M  V30 25 H -2.29167 -1.38039 1.52928 0
M  V30 26 H -3.18052 -2.16304 0.131348 0
M  V30 27 H -2.6946 -0.179408 -1.2291 0
M  V30 28 H -2.28717 0.522201 0.331778 0
M  V30 29 H -2.81593 1.85836 -1.78535 0
M  V30 30 H -2.23713 3.20786 -0.947304 0
M  V30 END ATOM
M  V30 BEGIN BOND
M  V30 1 1 1 2
M  V30 2 2 2 3
M  V30 3 1 3 4
M  V30 4 1 4 5
M  V30 5 2 5 6
M  V30 6 1 6 7
M  V30 7 1 7 8
M  V30 8 1 8 9
M  V30 9 1 9 10
M  V30 10 1 10 11
M  V30 11 1 11 12
M  V30 12 1 12 13
M  V30 13 2 13 14
M  V30 14 2 13 15
M  V30 15 1 13 16
M  V30 16 1 6 2
M  V30 17 1 12 7
M  V30 18 1 1 17
M  V30 19 1 1 18
M  V30 20 1 4 19
M  V30 21 1 5 20
M  V30 22 1 7 21 CFG=1
M  V30 23 1 8 22
M  V30 24 1 8 23
M  V30 25 1 9 24
M  V30 26 1 10 25
M  V30 27 1 10 26
M  V30 28 1 11 27
M  V30 29 1 11 28
M  V30 30 1 16 29
M  V30 31 1 16 30
M  V30 END BOND
M  V30 END CTAB
M  END
