
     RDKit          3D

  0  0  0  0  0  0  0  0  0  0999 V3000
M  V30 BEGIN CTAB
M  V30 COUNTS 26 26 0 0 0
M  V30 BEGIN ATOM
M  V30 1 N -3.92038 0.316666 -0.588978 0
M  V30 2 C -2.59985 0.421264 -0.173327 0 CFG=1
M  V30 3 C -2.35718 0.119078 1.28617 0
M  V30 4 C -0.857593 -0.0258756 1.33928 0
M  V30 5 N -0.507402 -0.527415 -0.000427522 0
M  V30 6 C -1.66168 -0.584651 -0.801517 0
M  V30 7 O -1.82879 -1.31732 -1.80134 0
M  V30 8 P 1.12641 -0.988477 -0.485731 0 CFG=2
M  V30 9 N 1.55964 -0.186376 -1.98113 0
M  V30 10 O 1.24598 -2.47125 -0.712094 0
M  V30 11 N 2.23985 -0.467057 0.758925 0
M  V30 12 S 3.31691 0.744266 0.255396 0
M  V30 13 O 4.76984 0.659791 1.11938 0
M  V30 14 O 2.71038 2.10028 0.456585 0
M  V30 15 O 3.73666 0.570292 -1.19972 0
M  V30 16 H -4.16674 -0.376153 -1.28313 0
M  V30 17 H -4.33069 1.22052 -0.83276 0
M  V30 18 H -2.11938 1.41781 -0.372503 0
M  V30 19 H -2.87951 -0.779714 1.63016 0
M  V30 20 H -2.65341 1.02665 1.87995 0
M  V30 21 H -0.508287 -0.706745 2.14024 0
M  V30 22 H -0.411954 0.994854 1.38369 0
M  V30 23 H 0.780388 -0.418267 -2.67275 0
M  V30 24 H 1.39953 0.8532 -1.82143 0
M  V30 25 H 2.84225 -1.31785 1.01234 0
M  V30 26 H 5.07502 -0.277521 1.12516 0
M  V30 END ATOM
M  V30 BEGIN BOND
M  V30 1 1 1 2
M  V30 2 1 2 3
M  V30 3 1 3 4
M  V30 4 1 4 5
M  V30 5 1 5 6
M  V30 6 2 6 7
M  V30 7 1 5 8
M  V30 8 1 8 9 CFG=3
M  V30 9 2 8 10
M  V30 10 1 8 11
M  V30 11 1 11 12
M  V30 12 1 12 13
M  V30 13 2 12 14
M  V30 14 2 12 15
M  V30 15 1 6 2
M  V30 16 1 1 16
M  V30 17 1 1 17
M  V30 18 1 2 18 CFG=1
M  V30 19 1 3 19
M  V30 20 1 3 20
M  V30 21 1 4 21
M  V30 22 1 4 22
M  V30 23 1 9 23
M  V30 24 1 9 24
M  V30 25 1 11 25
M  V30 26 1 13 26
M  V30 END BOND
M  V30 END CTAB
M  END
