
     RDKit          3D

  0  0  0  0  0  0  0  0  0  0999 V3000
M  V30 BEGIN CTAB
M  V30 COUNTS 27 28 0 0 0
M  V30 BEGIN ATOM
M  V30 1 N -2.99893 -2.05027 1.24679 0
M  V30 2 C -2.34095 -0.960729 0.634777 0
M  V30 3 N -3.00722 0.123104 0.128439 0
M  V30 4 C -2.36367 1.14901 -0.45986 0
M  V30 5 N -3.14953 2.22094 -0.965367 0
M  V30 6 C -0.9874 1.15465 -0.579765 0
M  V30 7 C -0.327217 2.2628 -1.20926 0
M  V30 8 N 0.230744 3.15426 -1.72182 0
M  V30 9 C -0.333385 0.0545734 -0.0630754 0
M  V30 10 C 1.10748 -0.00101824 -0.165154 0
M  V30 11 C 1.90083 0.870118 0.5297 0
M  V30 12 C 3.27316 0.78691 0.434092 0
M  V30 13 C 3.84579 -0.204344 -0.387536 0
M  V30 14 C 3.03903 -1.07561 -1.08228 0
M  V30 15 C 1.66964 -0.969077 -0.967141 0
M  V30 16 C -0.989801 -1.00166 0.540292 0
M  V30 17 C -0.262827 -2.14963 1.05171 0
M  V30 18 N 0.314533 -3.06187 1.43323 0
M  V30 19 H -3.38399 -2.79739 0.638378 0
M  V30 20 H -3.11257 -2.12553 2.27032 0
M  V30 21 H -3.59335 2.94373 -0.369329 0
M  V30 22 H -3.31959 2.33157 -2.00733 0
M  V30 23 H 1.46641 1.66449 1.18054 0
M  V30 24 H 3.90584 1.47742 0.982867 0
M  V30 25 H 4.91851 -0.249426 -0.451327 0
M  V30 26 H 3.45092 -1.85694 -1.72269 0
M  V30 27 H 1.04754 -1.69009 -1.5349 0
M  V30 END ATOM
M  V30 BEGIN BOND
M  V30 1 1 1 2
M  V30 2 2 2 3
M  V30 3 1 3 4
M  V30 4 1 4 5
M  V30 5 2 4 6
M  V30 6 1 6 7
M  V30 7 3 7 8
M  V30 8 1 6 9
M  V30 9 1 9 10
M  V30 10 2 10 11
M  V30 11 1 11 12
M  V30 12 2 12 13
M  V30 13 1 13 14
M  V30 14 2 14 15
M  V30 15 2 9 16
M  V30 16 1 16 17
M  V30 17 3 17 18
M  V30 18 1 16 2
M  V30 19 1 15 10
M  V30 20 1 1 19
M  V30 21 1 1 20
M  V30 22 1 5 21
M  V30 23 1 5 22
M  V30 24 1 11 23
M  V30 25 1 12 24
M  V30 26 1 13 25
M  V30 27 1 14 26
M  V30 28 1 15 27
M  V30 END BOND
M  V30 END CTAB
M  END
