
     RDKit          3D

  0  0  0  0  0  0  0  0  0  0999 V3000
M  V30 BEGIN CTAB
M  V30 COUNTS 18 19 0 0 0
M  V30 BEGIN ATOM
M  V30 1 N -4.28934 -0.167629 -0.100748 0
M  V30 2 C -2.92904 -0.389599 0.32808 0
M  V30 3 N -1.82599 0.0483168 -0.219319 0
M  V30 4 C -0.656172 -0.244809 0.297562 0
M  V30 5 C -0.683995 -1.02972 1.43242 0
M  V30 6 S -2.35672 -1.28024 1.66342 0
M  V30 7 C 0.656559 0.239629 -0.30071 0
M  V30 8 C 0.680744 1.02414 -1.43529 0
M  V30 9 S 2.35449 1.27438 -1.66582 0
M  V30 10 C 2.93079 0.383587 -0.329931 0
M  V30 11 N 4.29503 0.160666 0.100571 0
M  V30 12 N 1.82444 -0.0520495 0.213918 0
M  V30 13 H -4.63197 -0.56692 -0.989187 0
M  V30 14 H -4.93347 0.394497 0.479752 0
M  V30 15 H 0.176794 -1.39488 2.02929 0
M  V30 16 H -0.176892 1.3912 -2.03466 0
M  V30 17 H 4.80985 -0.707669 -0.100072 0
M  V30 18 H 4.7549 0.917092 0.630709 0
M  V30 END ATOM
M  V30 BEGIN BOND
M  V30 1 1 1 2
M  V30 2 2 2 3
M  V30 3 1 3 4
M  V30 4 2 4 5
M  V30 5 1 5 6
M  V30 6 1 4 7
M  V30 7 2 7 8
M  V30 8 1 8 9
M  V30 9 1 9 10
M  V30 10 1 10 11
M  V30 11 2 10 12
M  V30 12 1 6 2
M  V30 13 1 12 7
M  V30 14 1 1 13
M  V30 15 1 1 14
M  V30 16 1 5 15
M  V30 17 1 8 16
M  V30 18 1 11 17
M  V30 19 1 11 18
M  V30 END BOND
M  V30 END CTAB
M  END
