
     RDKit          3D

  0  0  0  0  0  0  0  0  0  0999 V3000
M  V30 BEGIN CTAB
M  V30 COUNTS 59 63 0 0 0
M  V30 BEGIN ATOM
M  V30 1 O 0.622855 -1.40187 -2.41406 0
M  V30 2 C 0.770407 -0.886778 -1.69764 0
M  V30 3 N 2.0312 -0.228361 -1.44731 0
M  V30 4 C 2.36132 0.621972 -0.318232 0
M  V30 5 C 3.69312 1.20402 -0.627494 0 CFG=2
M  V30 6 C 4.04535 0.82867 -2.02647 0 CFG=1
M  V30 7 C 3.16761 -0.340713 -2.32923 0
M  V30 8 N 3.73633 1.91456 -2.9412 0
M  V30 9 C 4.73008 0.771866 0.365799 0
M  V30 10 C 4.99112 -0.560747 0.56727 0
M  V30 11 C 5.94434 -0.97974 1.4791 0
M  V30 12 C 6.6717 -0.074848 2.22336 0
M  V30 13 C 6.39902 1.26213 2.01073 0
M  V30 14 C 5.45756 1.69527 1.11094 0
M  V30 15 N -0.239827 -0.644277 -0.690234 0
M  V30 16 C -1.53174 -1.25374 -0.844276 0
M  V30 17 C -2.45121 -0.901741 0.278187 0
M  V30 18 N -1.86002 -1.36624 1.51454 0
M  V30 19 C -2.66242 0.58782 0.402521 0
M  V30 20 C -3.29539 1.08042 -0.882963 0
M  V30 21 C -4.58607 0.365888 -1.11218 0
M  V30 22 C -4.4221 -1.12864 -1.19836 0
M  V30 23 C -3.77288 -1.61183 0.0681108 0
M  V30 24 C -4.67727 -1.3456 1.23742 0
M  V30 25 C -4.88258 0.153997 1.32773 0
M  V30 26 C -3.59263 0.873466 1.55301 0
M  V30 27 C -5.51654 0.644594 0.0575439 0
M  V30 28 H 1.54873 1.37761 -0.251439 0
M  V30 29 H 2.33297 -0.014932 0.584684 0
M  V30 30 H 3.6733 2.33322 -0.589098 0
M  V30 31 H 5.11521 0.56658 -2.14061 0
M  V30 32 H 3.67896 -1.30917 -2.28287 0
M  V30 33 H 2.7662 -0.254485 -3.37131 0
M  V30 34 H 2.73983 2.2181 -2.80832 0
M  V30 35 H 3.82972 1.57392 -3.90523 0
M  V30 36 H 4.43201 -1.30276 -0.0063673 0
M  V30 37 H 6.12244 -2.03973 1.61062 0
M  V30 38 H 7.40476 -0.438364 2.92304 0
M  V30 39 H 6.9595 1.98667 2.58536 0
M  V30 40 H 5.24366 2.75277 0.94447 0
M  V30 41 H -0.0831924 -0.0489787 0.146368 0
M  V30 42 H -1.46674 -2.3694 -0.883221 0
M  V30 43 H -1.9326 -0.953259 -1.84121 0
M  V30 44 H -0.83063 -1.47954 1.39353 0
M  V30 45 H -2.31348 -2.23917 1.86426 0
M  V30 46 H -1.71091 1.0867 0.613367 0
M  V30 47 H -2.59905 0.975729 -1.73305 0
M  V30 48 H -3.5242 2.16632 -0.791268 0
M  V30 49 H -5.04672 0.738125 -2.04458 0
M  V30 50 H -5.45692 -1.56609 -1.25514 0
M  V30 51 H -3.89101 -1.46814 -2.09621 0
M  V30 52 H -3.5296 -2.6995 -0.00226578 0
M  V30 53 H -4.25065 -1.68856 2.18699 0
M  V30 54 H -5.67312 -1.79333 1.0892 0
M  V30 55 H -5.57836 0.363794 2.17594 0
M  V30 56 H -3.79781 1.95427 1.64231 0
M  V30 57 H -3.08639 0.56129 2.48918 0
M  V30 58 H -6.42085 0.0189782 -0.118197 0
M  V30 59 H -5.78639 1.7118 0.129244 0
M  V30 END ATOM
M  V30 BEGIN BOND
M  V30 1 2 1 2
M  V30 2 1 2 3
M  V30 3 1 3 4
M  V30 4 1 4 5
M  V30 5 1 5 6
M  V30 6 1 6 7
M  V30 7 1 6 8
M  V30 8 1 5 9
M  V30 9 2 9 10
M  V30 10 1 10 11
M  V30 11 2 11 12
M  V30 12 1 12 13
M  V30 13 2 13 14
M  V30 14 1 2 15
M  V30 15 1 15 16
M  V30 16 1 16 17
M  V30 17 1 17 18
M  V30 18 1 17 19
M  V30 19 1 19 20
M  V30 20 1 20 21
M  V30 21 1 21 22
M  V30 22 1 22 23
M  V30 23 1 23 24
M  V30 24 1 24 25
M  V30 25 1 25 26
M  V30 26 1 25 27
M  V30 27 1 7 3
M  V30 28 1 14 9
M  V30 29 1 23 17
M  V30 30 1 26 19
M  V30 31 1 27 21
M  V30 32 1 4 28
M  V30 33 1 4 29
M  V30 34 1 5 30 CFG=3
M  V30 35 1 6 31 CFG=1
M  V30 36 1 7 32
M  V30 37 1 7 33
M  V30 38 1 8 34
M  V30 39 1 8 35
M  V30 40 1 10 36
M  V30 41 1 11 37
M  V30 42 1 12 38
M  V30 43 1 13 39
M  V30 44 1 14 40
M  V30 45 1 15 41
M  V30 46 1 16 42
M  V30 47 1 16 43
M  V30 48 1 18 44
M  V30 49 1 18 45
M  V30 50 1 19 46
M  V30 51 1 20 47
M  V30 52 1 20 48
M  V30 53 1 21 49
M  V30 54 1 22 50
M  V30 55 1 22 51
M  V30 56 1 23 52
M  V30 57 1 24 53
M  V30 58 1 24 54
M  V30 59 1 25 55
M  V30 60 1 26 56
M  V30 61 1 26 57
M  V30 62 1 27 58
M  V30 63 1 27 59
M  V30 END BOND
M  V30 END CTAB
M  END
