
     RDKit          3D

  0  0  0  0  0  0  0  0  0  0999 V3000
M  V30 BEGIN CTAB
M  V30 COUNTS 43 47 0 0 0
M  V30 BEGIN ATOM
M  V30 1 N 6.88936 -0.785053 1.20784 0
M  V30 2 C 5.61748 -0.461213 0.686454 0
M  V30 3 N 5.30528 0.724789 0.139896 0
M  V30 4 C 4.08086 1.02854 -0.351876 0
M  V30 5 N 3.91609 2.30663 -0.890076 0
M  V30 6 C 3.11743 0.0678283 -0.282896 0
M  V30 7 C 1.84991 0.28955 -0.748812 0
M  V30 8 C 0.885791 -0.728446 -0.649805 0
M  V30 9 C 1.19687 -1.94543 -0.09287 0
M  V30 10 C 2.47715 -2.13453 0.363907 0
M  V30 11 C 3.43926 -1.15303 0.279881 0
M  V30 12 N 4.67756 -1.41229 0.758695 0
M  V30 13 N -0.279525 -0.271498 -1.18249 0
M  V30 14 C -1.49451 -1.07111 -1.22773 0
M  V30 15 C -2.39034 -0.912475 -0.0909608 0
M  V30 16 C -2.29893 -1.72308 1.02164 0
M  V30 17 C -3.07818 -1.57222 2.16269 0
M  V30 18 C -3.99572 -0.568085 2.20471 0
M  V30 19 C -4.12842 0.271745 1.11207 0
M  V30 20 C -3.34186 0.110318 -0.0260981 0
M  V30 21 C -3.56759 0.969189 -1.06583 0
M  V30 22 C -4.53356 1.95709 -0.982695 0
M  V30 23 C -5.30363 2.1101 0.148838 0
M  V30 24 C -5.0952 1.26001 1.19721 0
M  V30 25 C -0.0457382 0.975542 -1.5957 0
M  V30 26 C 1.2624 1.36742 -1.34676 0
M  V30 27 H 7.75648 -0.708008 0.645001 0
M  V30 28 H 6.93861 -1.11675 2.21251 0
M  V30 29 H 4.05005 2.40431 -1.94156 0
M  V30 30 H 3.67809 3.17064 -0.383876 0
M  V30 31 H 0.495699 -2.74985 -0.00323545 0
M  V30 32 H 2.74206 -3.07674 0.801979 0
M  V30 33 H -1.14932 -2.14493 -1.31234 0
M  V30 34 H -2.03553 -0.918038 -2.20121 0
M  V30 35 H -1.60355 -2.53519 1.03813 0
M  V30 36 H -2.94871 -2.25674 3.01466 0
M  V30 37 H -4.60063 -0.453381 3.10231 0
M  V30 38 H -2.99459 0.85157 -1.97555 0
M  V30 39 H -4.6882 2.61199 -1.80312 0
M  V30 40 H -6.06253 2.89683 0.201261 0
M  V30 41 H -5.68338 1.35645 2.09599 0
M  V30 42 H -0.74328 1.64586 -2.0778 0
M  V30 43 H 1.68651 2.32169 -1.58726 0
M  V30 END ATOM
M  V30 BEGIN BOND
M  V30 1 1 1 2
M  V30 2 2 2 3
M  V30 3 1 3 4
M  V30 4 1 4 5
M  V30 5 2 4 6
M  V30 6 1 6 7
M  V30 7 2 7 8
M  V30 8 1 8 9
M  V30 9 2 9 10
M  V30 10 1 10 11
M  V30 11 2 11 12
M  V30 12 1 8 13
M  V30 13 1 13 14
M  V30 14 1 14 15
M  V30 15 2 15 16
M  V30 16 1 16 17
M  V30 17 2 17 18
M  V30 18 1 18 19
M  V30 19 2 19 20
M  V30 20 1 20 21
M  V30 21 2 21 22
M  V30 22 1 22 23
M  V30 23 2 23 24
M  V30 24 1 13 25
M  V30 25 2 25 26
M  V30 26 1 12 2
M  V30 27 1 20 15
M  V30 28 1 11 6
M  V30 29 1 24 19
M  V30 30 1 26 7
M  V30 31 1 1 27
M  V30 32 1 1 28
M  V30 33 1 5 29
M  V30 34 1 5 30
M  V30 35 1 9 31
M  V30 36 1 10 32
M  V30 37 1 14 33
M  V30 38 1 14 34
M  V30 39 1 16 35
M  V30 40 1 17 36
M  V30 41 1 18 37
M  V30 42 1 21 38
M  V30 43 1 22 39
M  V30 44 1 23 40
M  V30 45 1 24 41
M  V30 46 1 25 42
M  V30 47 1 26 43
M  V30 END BOND
M  V30 END CTAB
M  END
