
     RDKit          3D

  0  0  0  0  0  0  0  0  0  0999 V3000
M  V30 BEGIN CTAB
M  V30 COUNTS 33 34 0 0 0
M  V30 BEGIN ATOM
M  V30 1 C -3.58251 2.53225 -0.160848 0
M  V30 2 C -2.84594 1.23019 -0.327835 0
M  V30 3 C -3.17863 0.321387 -1.30674 0
M  V30 4 C -2.47077 -0.865041 -1.42061 0
M  V30 5 C -1.41123 -1.17464 -0.560164 0
M  V30 6 C -0.763029 -2.48147 -0.785643 0
M  V30 7 C -1.06378 -0.279172 0.422264 0
M  V30 8 C 0.0337091 -0.55848 1.34534 0
M  V30 9 C 1.39731 -0.441608 0.862271 0
M  V30 10 C 2.17609 -1.56415 0.692043 0
M  V30 11 N 3.44792 -1.49818 0.277483 0
M  V30 12 C 4.0447 -0.30163 -0.000368508 0
M  V30 13 N 5.38873 -0.268894 -0.437401 0
M  V30 14 N 3.28545 0.771789 0.167486 0
M  V30 15 C 2.0048 0.77477 0.579987 0
M  V30 16 N 1.31333 2.00583 0.719194 0
M  V30 17 C -1.80479 0.91232 0.508373 0
M  V30 18 H -2.97594 3.37672 -0.549796 0
M  V30 19 H -4.4863 2.48083 -0.809542 0
M  V30 20 H -3.85719 2.66283 0.914515 0
M  V30 21 H -3.98546 0.556177 -1.96428 0
M  V30 22 H -2.73045 -1.58511 -2.19108 0
M  V30 23 H 0.105943 -2.4572 -1.43967 0
M  V30 24 H -1.49099 -3.17313 -1.31052 0
M  V30 25 H -0.524814 -2.99621 0.174327 0
M  V30 26 H -0.0746105 0.177915 2.20073 0
M  V30 27 H -0.0956766 -1.56053 1.85946 0
M  V30 28 H 1.81286 -2.58702 0.893871 0
M  V30 29 H 5.60796 -0.453739 -1.42118 0
M  V30 30 H 6.13519 -0.060409 0.232533 0
M  V30 31 H 1.18329 2.41407 1.65835 0
M  V30 32 H 0.947405 2.48145 -0.119359 0
M  V30 33 H -1.54257 1.60806 1.29681 0
M  V30 END ATOM
M  V30 BEGIN BOND
M  V30 1 1 1 2
M  V30 2 2 2 3
M  V30 3 1 3 4
M  V30 4 2 4 5
M  V30 5 1 5 6
M  V30 6 1 5 7
M  V30 7 1 7 8
M  V30 8 1 8 9
M  V30 9 2 9 10
M  V30 10 1 10 11
M  V30 11 2 11 12
M  V30 12 1 12 13
M  V30 13 1 12 14
M  V30 14 2 14 15
M  V30 15 1 15 16
M  V30 16 2 7 17
M  V30 17 1 17 2
M  V30 18 1 15 9
M  V30 19 1 1 18
M  V30 20 1 1 19
M  V30 21 1 1 20
M  V30 22 1 3 21
M  V30 23 1 4 22
M  V30 24 1 6 23
M  V30 25 1 6 24
M  V30 26 1 6 25
M  V30 27 1 8 26
M  V30 28 1 8 27
M  V30 29 1 10 28
M  V30 30 1 13 29
M  V30 31 1 13 30
M  V30 32 1 16 31
M  V30 33 1 16 32
M  V30 34 1 17 33
M  V30 END BOND
M  V30 END CTAB
M  END
