
     RDKit          3D

  0  0  0  0  0  0  0  0  0  0999 V3000
M  V30 BEGIN CTAB
M  V30 COUNTS 30 31 0 0 0
M  V30 BEGIN ATOM
M  V30 1 C 3.92366 0.33238 -0.213353 0
M  V30 2 O 3.13695 -0.809135 -0.621764 0
M  V30 3 C 1.76015 -0.563008 -0.440751 0
M  V30 4 C 1.21913 -0.870779 0.796243 0
M  V30 5 N 2.01746 -1.382 1.84053 0
M  V30 6 C -0.116079 -0.630367 0.962167 0
M  V30 7 C -0.886157 -0.0992543 -0.0716794 0
M  V30 8 C -0.305737 0.18294 -1.26553 0
M  V30 9 C 1.06309 -0.0444229 -1.49451 0
M  V30 10 N 1.66258 0.269637 -2.76131 0
M  V30 11 C -2.29878 0.160916 0.251974 0
M  V30 12 C -2.99945 -0.992534 0.942721 0
M  V30 13 C -2.62302 1.51357 0.849337 0
M  V30 14 C -3.14981 1.11343 -0.498851 0
M  V30 15 H 3.35888 1.28916 -0.37098 0
M  V30 16 H 4.87806 0.411978 -0.729082 0
M  V30 17 H 4.14131 0.266407 0.897773 0
M  V30 18 H 2.76258 -2.12009 1.64068 0
M  V30 19 H 1.94354 -1.0714 2.82201 0
M  V30 20 H -0.56895 -0.855173 1.90446 0
M  V30 21 H -0.912701 0.59078 -2.06162 0
M  V30 22 H 1.0612 0.350731 -3.57411 0
M  V30 23 H 2.68184 0.398356 -2.82583 0
M  V30 24 H -2.32207 -1.85254 1.14801 0
M  V30 25 H -3.77557 -1.39517 0.229589 0
M  V30 26 H -3.53508 -0.660345 1.87191 0
M  V30 27 H -3.32017 1.60676 1.70295 0
M  V30 28 H -1.7589 2.18773 0.931487 0
M  V30 29 H -2.7889 1.71545 -1.34643 0
M  V30 30 H -4.24906 0.955988 -0.516055 0
M  V30 END ATOM
M  V30 BEGIN BOND
M  V30 1 1 1 2
M  V30 2 1 2 3
M  V30 3 2 3 4
M  V30 4 1 4 5
M  V30 5 1 4 6
M  V30 6 2 6 7
M  V30 7 1 7 8
M  V30 8 2 8 9
M  V30 9 1 9 10
M  V30 10 1 7 11
M  V30 11 1 11 12
M  V30 12 1 11 13
M  V30 13 1 13 14
M  V30 14 1 9 3
M  V30 15 1 14 11
M  V30 16 1 1 15
M  V30 17 1 1 16
M  V30 18 1 1 17
M  V30 19 1 5 18
M  V30 20 1 5 19
M  V30 21 1 6 20
M  V30 22 1 8 21
M  V30 23 1 10 22
M  V30 24 1 10 23
M  V30 25 1 12 24
M  V30 26 1 12 25
M  V30 27 1 12 26
M  V30 28 1 13 27
M  V30 29 1 13 28
M  V30 30 1 14 29
M  V30 31 1 14 30
M  V30 END BOND
M  V30 END CTAB
M  END
