
     RDKit          3D

  0  0  0  0  0  0  0  0  0  0999 V3000
M  V30 BEGIN CTAB
M  V30 COUNTS 18 18 0 0 0
M  V30 BEGIN ATOM
M  V30 1 N -2.81768 0.253612 -1.11142 0
M  V30 2 C -2.22386 -0.758562 -0.225109 0
M  V30 3 C -0.793006 -0.386773 -0.0881981 0
M  V30 4 C 0.180656 -0.924541 -0.926538 0
M  V30 5 C 1.4944 -0.541381 -0.755186 0
M  V30 6 C 1.75051 0.358359 0.247437 0
M  V30 7 C 0.778518 0.887138 1.07486 0
M  V30 8 N -0.497957 0.493271 0.883022 0
M  V30 9 N 3.09733 0.763161 0.437167 0
M  V30 10 H -3.86198 0.284167 -0.949926 0
M  V30 11 H -2.43618 1.19874 -0.803683 0
M  V30 12 H -2.69579 -0.685428 0.751128 0
M  V30 13 H -2.31752 -1.76282 -0.69076 0
M  V30 14 H -0.0846639 -1.6308 -1.69993 0
M  V30 15 H 2.2789 -0.947951 -1.39927 0
M  V30 16 H 1.05195 1.60274 1.85751 0
M  V30 17 H 3.47108 0.724713 1.40707 0
M  V30 18 H 3.62529 1.07236 -0.403953 0
M  V30 END ATOM
M  V30 BEGIN BOND
M  V30 1 1 1 2
M  V30 2 1 2 3
M  V30 3 2 3 4
M  V30 4 1 4 5
M  V30 5 2 5 6
M  V30 6 1 6 7
M  V30 7 2 7 8
M  V30 8 1 6 9
M  V30 9 1 8 3
M  V30 10 1 1 10
M  V30 11 1 1 11
M  V30 12 1 2 12
M  V30 13 1 2 13
M  V30 14 1 4 14
M  V30 15 1 5 15
M  V30 16 1 7 16
M  V30 17 1 9 17
M  V30 18 1 9 18
M  V30 END BOND
M  V30 END CTAB
M  END
