
     RDKit          3D

  0  0  0  0  0  0  0  0  0  0999 V3000
M  V30 BEGIN CTAB
M  V30 COUNTS 30 31 0 0 0
M  V30 BEGIN ATOM
M  V30 1 N 5.22215 -0.739782 0.733581 0
M  V30 2 C 4.03067 -0.0764844 0.27933 0
M  V30 3 C 4.12592 1.0631 -0.520478 0
M  V30 4 C 2.98013 1.67849 -1.00314 0
M  V30 5 C 1.75029 1.16005 -0.691049 0
M  V30 6 C 1.58772 0.0382259 0.0930511 0
M  V30 7 C 2.7868 -0.553908 0.562363 0
M  V30 8 O 0.452318 -0.579527 0.465378 0
M  V30 9 C -0.851179 -0.504772 0.26733 0
M  V30 10 C -1.44122 -1.6097 -0.402144 0
M  V30 11 C -2.7743 -1.65876 -0.661672 0
M  V30 12 C -3.59687 -0.592752 -0.264185 0
M  V30 13 C -3.05079 0.464892 0.371578 0
M  V30 14 C -1.68336 0.500483 0.633836 0
M  V30 15 N -1.22122 1.65324 1.30406 0
M  V30 16 C -5.03434 -0.688861 -0.593806 0
M  V30 17 F -5.79393 -0.29051 0.478325 0
M  V30 18 F -5.32 -0.00919509 -1.75222 0
M  V30 19 F -5.389 -2.03299 -0.835077 0
M  V30 20 H 5.19968 -1.75417 0.900623 0
M  V30 21 H 6.06931 -0.190882 0.878747 0
M  V30 22 H 5.10538 1.44514 -0.760559 0
M  V30 23 H 3.14417 2.55898 -1.60655 0
M  V30 24 H 0.889755 1.66258 -1.0659 0
M  V30 25 H 2.73386 -1.46409 1.19034 0
M  V30 26 H -0.840527 -2.43936 -0.695557 0
M  V30 27 H -3.23172 -2.46757 -1.17385 0
M  V30 28 H -3.72526 1.28944 0.649797 0
M  V30 29 H -1.44371 1.77233 2.35051 0
M  V30 30 H -0.680728 2.36638 0.759574 0
M  V30 END ATOM
M  V30 BEGIN BOND
M  V30 1 1 1 2
M  V30 2 2 2 3
M  V30 3 1 3 4
M  V30 4 2 4 5
M  V30 5 1 5 6
M  V30 6 2 6 7
M  V30 7 1 6 8
M  V30 8 1 8 9
M  V30 9 2 9 10
M  V30 10 1 10 11
M  V30 11 2 11 12
M  V30 12 1 12 13
M  V30 13 2 13 14
M  V30 14 1 14 15
M  V30 15 1 12 16
M  V30 16 1 16 17
M  V30 17 1 16 18
M  V30 18 1 16 19
M  V30 19 1 7 2
M  V30 20 1 14 9
M  V30 21 1 1 20
M  V30 22 1 1 21
M  V30 23 1 3 22
M  V30 24 1 4 23
M  V30 25 1 5 24
M  V30 26 1 7 25
M  V30 27 1 10 26
M  V30 28 1 11 27
M  V30 29 1 13 28
M  V30 30 1 15 29
M  V30 31 1 15 30
M  V30 END BOND
M  V30 END CTAB
M  END
