
     RDKit          3D

  0  0  0  0  0  0  0  0  0  0999 V3000
M  V30 BEGIN CTAB
M  V30 COUNTS 28 28 0 0 0
M  V30 BEGIN ATOM
M  V30 1 C 3.74045 -1.50536 0.208428 0
M  V30 2 C 2.75793 -0.399546 0.0598331 0
M  V30 3 C 1.41192 -0.661879 0.0389261 0
M  V30 4 C 0.474541 0.352675 -0.160424 0
M  V30 5 C -0.888065 -0.0452372 -0.387726 0
M  V30 6 C -1.80549 -0.0381918 0.828901 0
M  V30 7 C -3.19665 -0.595316 0.490002 0
M  V30 8 N -3.77024 0.0998677 -0.670221 0
M  V30 9 O -0.925118 -1.39977 -0.832301 0
M  V30 10 C 0.968233 1.61376 -0.326093 0
M  V30 11 N 2.30261 1.87532 -0.306703 0
M  V30 12 C 3.21108 0.90037 -0.117722 0
M  V30 13 N 0.121221 2.74458 -0.440029 0
M  V30 14 H 3.6124 -2.13624 -0.745142 0
M  V30 15 H 3.42421 -2.19248 0.991712 0
M  V30 16 H 4.77256 -1.13241 0.266825 0
M  V30 17 H 1.09438 -1.71407 0.183879 0
M  V30 18 H -1.33626 0.553742 -1.21996 0
M  V30 19 H -2.04358 1.10983 0.954189 0
M  V30 20 H -1.4626 -0.47111 1.74176 0
M  V30 21 H -3.87706 -0.393869 1.36952 0
M  V30 22 H -3.20253 -1.65711 0.310814 0
M  V30 23 H -3.55992 -0.490573 -1.51999 0
M  V30 24 H -4.77569 0.165935 -0.498769 0
M  V30 25 H -0.91849 -2.01158 -0.0381868 0
M  V30 26 H 4.29657 1.08712 -0.100591 0
M  V30 27 H 0.156852 3.3852 -1.23732 0
M  V30 28 H -0.58325 2.95633 0.3243 0
M  V30 END ATOM
M  V30 BEGIN BOND
M  V30 1 1 1 2
M  V30 2 2 2 3
M  V30 3 1 3 4
M  V30 4 1 4 5
M  V30 5 1 5 6
M  V30 6 1 6 7
M  V30 7 1 7 8
M  V30 8 1 5 9
M  V30 9 2 4 10
M  V30 10 1 10 11
M  V30 11 2 11 12
M  V30 12 1 10 13
M  V30 13 1 12 2
M  V30 14 1 1 14
M  V30 15 1 1 15
M  V30 16 1 1 16
M  V30 17 1 3 17
M  V30 18 1 5 18
M  V30 19 1 6 19
M  V30 20 1 6 20
M  V30 21 1 7 21
M  V30 22 1 7 22
M  V30 23 1 8 23
M  V30 24 1 8 24
M  V30 25 1 9 25
M  V30 26 1 12 26
M  V30 27 1 13 27
M  V30 28 1 13 28
M  V30 END BOND
M  V30 END CTAB
M  END
