
     RDKit          3D

  0  0  0  0  0  0  0  0  0  0999 V3000
M  V30 BEGIN CTAB
M  V30 COUNTS 50 51 0 0 0
M  V30 BEGIN ATOM
M  V30 1 N -5.20107 1.03583 0.605208 0
M  V30 2 C -3.88787 0.689065 0.0923081 0
M  V30 3 C -3.2619 -0.25373 1.05238 0
M  V30 4 C -1.84399 -0.667723 0.725971 0
M  V30 5 C -1.23948 -1.05479 2.07144 0
M  V30 6 C -1.84103 -1.9048 -0.147887 0
M  V30 7 N -1.10911 0.424051 0.197716 0
M  V30 8 C -1.62517 1.72743 -0.188126 0
M  V30 9 C -3.07332 1.93496 -0.103891 0
M  V30 10 C -0.881556 2.83918 0.547823 0
M  V30 11 C -1.24475 1.89175 -1.6735 0
M  V30 12 C 0.314975 0.288337 -0.0293549 0
M  V30 13 O 0.893275 1.33934 -0.451218 0
M  V30 14 N 1.07962 -0.838864 0.160928 0
M  V30 15 C 2.48009 -1.00281 -0.0505603 0
M  V30 16 C 3.34515 -0.0488942 -0.491138 0
M  V30 17 C 4.70272 -0.28418 -0.673697 0
M  V30 18 C 5.57194 0.846403 -1.16696 0
M  V30 19 C 5.22484 -1.51015 -0.410357 0
M  V30 20 C 4.38143 -2.50917 0.0394704 0
M  V30 21 C 3.05043 -2.26221 0.213676 0
M  V30 22 N 2.21704 -3.30807 0.67555 0
M  V30 23 H -5.75095 1.62939 -0.0297733 0
M  V30 24 H -5.01553 1.5559 1.51512 0
M  V30 25 H -4.0505 0.169883 -0.874788 0
M  V30 26 H -3.3332 0.124379 2.09304 0
M  V30 27 H -3.86627 -1.20247 1.03845 0
M  V30 28 H -1.96817 -0.824599 2.88493 0
M  V30 29 H -1.10072 -2.13465 2.10636 0
M  V30 30 H -0.328372 -0.455189 2.28885 0
M  V30 31 H -2.91607 -2.1002 -0.425483 0
M  V30 32 H -1.21564 -1.81114 -1.04756 0
M  V30 33 H -1.55353 -2.76351 0.475859 0
M  V30 34 H -3.28732 2.61606 0.771685 0
M  V30 35 H -3.48824 2.48535 -0.984808 0
M  V30 36 H -0.289121 2.44627 1.39983 0
M  V30 37 H -0.287016 3.47429 -0.137038 0
M  V30 38 H -1.65061 3.53574 0.981456 0
M  V30 39 H -0.547512 2.73785 -1.82584 0
M  V30 40 H -0.848683 0.976222 -2.11153 0
M  V30 41 H -2.15158 2.16668 -2.28523 0
M  V30 42 H 0.600564 -1.71488 0.497562 0
M  V30 43 H 2.99351 0.955139 -0.720666 0
M  V30 44 H 6.53354 0.477042 -1.5204 0
M  V30 45 H 5.62846 1.56158 -0.32588 0
M  V30 46 H 4.96638 1.32724 -1.98032 0
M  V30 47 H 6.27916 -1.69111 -0.552654 0
M  V30 48 H 4.81544 -3.47919 0.243968 0
M  V30 49 H 2.21422 -3.60226 1.67349 0
M  V30 50 H 1.56548 -3.83077 0.0255296 0
M  V30 END ATOM
M  V30 BEGIN BOND
M  V30 1 1 1 2
M  V30 2 1 2 3
M  V30 3 1 3 4
M  V30 4 1 4 5
M  V30 5 1 4 6
M  V30 6 1 4 7
M  V30 7 1 7 8
M  V30 8 1 8 9
M  V30 9 1 8 10
M  V30 10 1 8 11
M  V30 11 1 7 12
M  V30 12 2 12 13
M  V30 13 1 12 14
M  V30 14 1 14 15
M  V30 15 2 15 16
M  V30 16 1 16 17
M  V30 17 1 17 18
M  V30 18 2 17 19
M  V30 19 1 19 20
M  V30 20 2 20 21
M  V30 21 1 21 22
M  V30 22 1 9 2
M  V30 23 1 21 15
M  V30 24 1 1 23
M  V30 25 1 1 24
M  V30 26 1 2 25
M  V30 27 1 3 26
M  V30 28 1 3 27
M  V30 29 1 5 28
M  V30 30 1 5 29
M  V30 31 1 5 30
M  V30 32 1 6 31
M  V30 33 1 6 32
M  V30 34 1 6 33
M  V30 35 1 9 34
M  V30 36 1 9 35
M  V30 37 1 10 36
M  V30 38 1 10 37
M  V30 39 1 10 38
M  V30 40 1 11 39
M  V30 41 1 11 40
M  V30 42 1 11 41
M  V30 43 1 14 42
M  V30 44 1 16 43
M  V30 45 1 18 44
M  V30 46 1 18 45
M  V30 47 1 18 46
M  V30 48 1 19 47
M  V30 49 1 20 48
M  V30 50 1 22 49
M  V30 51 1 22 50
M  V30 END BOND
M  V30 END CTAB
M  END
