
     RDKit          3D

  0  0  0  0  0  0  0  0  0  0999 V3000
M  V30 BEGIN CTAB
M  V30 COUNTS 33 34 0 0 0
M  V30 BEGIN ATOM
M  V30 1 N 4.98448 1.09756 0.984125 0
M  V30 2 C 3.75644 0.992567 0.279719 0
M  V30 3 N 3.62405 1.68166 -0.86936 0
M  V30 4 C 2.49747 1.64193 -1.60221 0
M  V30 5 C 1.45668 0.863473 -1.14277 0
M  V30 6 C 1.54982 0.132242 0.0432075 0
M  V30 7 C 2.7265 0.205846 0.759456 0
M  V30 8 C 0.382169 -0.693613 0.485848 0 CFG=2
M  V30 9 C 0.151534 -1.74383 -0.528212 0
M  V30 10 C -1.22151 -2.27414 -0.646535 0
M  V30 11 C -2.28019 -1.51144 0.0803842 0
M  V30 12 N -1.97971 -0.146233 0.096429 0
M  V30 13 C -0.765272 0.255946 0.698226 0
M  V30 14 S -3.20472 0.962009 -0.0471637 0
M  V30 15 O -2.81106 2.38336 -0.124596 0
M  V30 16 O -4.02295 0.656727 -1.29444 0
M  V30 17 N -4.32815 0.807338 1.28229 0
M  V30 18 H 5.70617 0.374039 0.863435 0
M  V30 19 H 5.15512 1.89492 1.615 0
M  V30 20 H 2.38167 2.19619 -2.53302 0
M  V30 21 H 0.539623 0.809983 -1.70693 0
M  V30 22 H 2.82381 -0.351041 1.68124 0
M  V30 23 H 0.696729 -1.17303 1.443 0
M  V30 24 H 0.843168 -2.60861 -0.300971 0
M  V30 25 H 0.504087 -1.38252 -1.53772 0
M  V30 26 H -1.52997 -2.33524 -1.72506 0
M  V30 27 H -1.29219 -3.34412 -0.288574 0
M  V30 28 H -3.24949 -1.67356 -0.433838 0
M  V30 29 H -2.33059 -1.88135 1.14454 0
M  V30 30 H -0.532736 1.29741 0.35446 0
M  V30 31 H -0.932785 0.34375 1.79327 0
M  V30 32 H -5.27712 1.13339 0.966288 0
M  V30 33 H -4.02105 1.38837 2.0695 0
M  V30 END ATOM
M  V30 BEGIN BOND
M  V30 1 1 1 2
M  V30 2 2 2 3
M  V30 3 1 3 4
M  V30 4 2 4 5
M  V30 5 1 5 6
M  V30 6 2 6 7
M  V30 7 1 6 8
M  V30 8 1 8 9
M  V30 9 1 9 10
M  V30 10 1 10 11
M  V30 11 1 11 12
M  V30 12 1 12 13
M  V30 13 1 12 14
M  V30 14 2 14 15
M  V30 15 2 14 16
M  V30 16 1 14 17
M  V30 17 1 7 2
M  V30 18 1 13 8
M  V30 19 1 1 18
M  V30 20 1 1 19
M  V30 21 1 4 20
M  V30 22 1 5 21
M  V30 23 1 7 22
M  V30 24 1 8 23 CFG=1
M  V30 25 1 9 24
M  V30 26 1 9 25
M  V30 27 1 10 26
M  V30 28 1 10 27
M  V30 29 1 11 28
M  V30 30 1 11 29
M  V30 31 1 13 30
M  V30 32 1 13 31
M  V30 33 1 17 32
M  V30 34 1 17 33
M  V30 END BOND
M  V30 END CTAB
M  END
