
     RDKit          3D

  0  0  0  0  0  0  0  0  0  0999 V3000
M  V30 BEGIN CTAB
M  V30 COUNTS 25 26 0 0 0
M  V30 BEGIN ATOM
M  V30 1 N 3.2642 1.39549 1.27523 0
M  V30 2 C 2.8706 1.42828 -0.134881 0
M  V30 3 C 1.80141 0.398458 -0.285704 0
M  V30 4 C 2.19338 -0.8855 -0.606459 0
M  V30 5 C 1.21288 -1.8483 -0.748934 0
M  V30 6 C -0.125396 -1.51765 -0.571132 0
M  V30 7 C -0.515385 -0.234862 -0.250792 0
M  V30 8 C 0.461727 0.72139 -0.10954 0
M  V30 9 C -1.92085 0.116936 -0.0630506 0
M  V30 10 N -2.47414 1.27785 0.242364 0
M  V30 11 C -3.75431 1.36995 0.361694 0
M  V30 12 C -4.50774 0.243154 0.164522 0
M  V30 13 S -3.27437 -0.912274 -0.191966 0
M  V30 14 N -1.12306 -2.49082 -0.714633 0
M  V30 15 H 3.78898 2.27797 1.44715 0
M  V30 16 H 3.81491 0.536976 1.4786 0
M  V30 17 H 2.48445 2.42466 -0.381721 0
M  V30 18 H 3.74091 1.22992 -0.758798 0
M  V30 19 H 3.25741 -1.11629 -0.740569 0
M  V30 20 H 1.50932 -2.86827 -1.0026 0
M  V30 21 H 0.177571 1.71873 0.138057 0
M  V30 22 H -4.26746 2.32015 0.616328 0
M  V30 23 H -5.60395 0.136664 0.224727 0
M  V30 24 H -1.50138 -3.0273 0.0910081 0
M  V30 25 H -1.50969 -2.69529 -1.65718 0
M  V30 END ATOM
M  V30 BEGIN BOND
M  V30 1 1 1 2
M  V30 2 1 2 3
M  V30 3 2 3 4
M  V30 4 1 4 5
M  V30 5 2 5 6
M  V30 6 1 6 7
M  V30 7 2 7 8
M  V30 8 1 7 9
M  V30 9 2 9 10
M  V30 10 1 10 11
M  V30 11 2 11 12
M  V30 12 1 12 13
M  V30 13 1 6 14
M  V30 14 1 8 3
M  V30 15 1 13 9
M  V30 16 1 1 15
M  V30 17 1 1 16
M  V30 18 1 2 17
M  V30 19 1 2 18
M  V30 20 1 4 19
M  V30 21 1 5 20
M  V30 22 1 8 21
M  V30 23 1 11 22
M  V30 24 1 12 23
M  V30 25 1 14 24
M  V30 26 1 14 25
M  V30 END BOND
M  V30 END CTAB
M  END
