
     RDKit          3D

  0  0  0  0  0  0  0  0  0  0999 V3000
M  V30 BEGIN CTAB
M  V30 COUNTS 27 27 0 0 0
M  V30 BEGIN ATOM
M  V30 1 C -1.6585 2.49344 0.445284 0
M  V30 2 C -0.621539 1.43685 0.377517 0
M  V30 3 C 0.685938 1.69191 0.67149 0
M  V30 4 C 1.67788 0.729531 0.618488 0
M  V30 5 C 1.36239 -0.546847 0.256608 0
M  V30 6 N 2.33572 -1.58683 0.153157 0
M  V30 7 C 3.69082 -1.42983 -0.055772 0
M  V30 8 N 4.40626 -0.226407 -0.222928 0
M  V30 9 S 4.61028 -2.81635 -0.12171 0
M  V30 10 C 0.0212256 -0.835503 -0.0510303 0
M  V30 11 C -0.955872 0.121357 0.00375926 0
M  V30 12 N -2.29429 -0.147171 -0.299025 0
M  V30 13 C -2.96073 -1.31544 -0.693828 0
M  V30 14 N -4.40368 -1.25522 -0.938005 0
M  V30 15 S -2.32439 -2.77331 -0.923158 0
M  V30 16 H -1.21001 3.39992 0.900567 0
M  V30 17 H -2.4876 2.19749 1.13776 0
M  V30 18 H -2.02646 2.79146 -0.552261 0
M  V30 19 H 0.959643 2.71307 0.96413 0
M  V30 20 H 2.69962 1.03938 0.893354 0
M  V30 21 H 1.93273 -2.57829 0.259341 0
M  V30 22 H 4.23269 0.42163 -1.02607 0
M  V30 23 H 5.14196 0.0663289 0.453138 0
M  V30 24 H -0.166139 -1.85249 -0.329275 0
M  V30 25 H -2.94008 0.733212 -0.207215 0
M  V30 26 H -4.71499 -0.659129 -1.70821 0
M  V30 27 H -4.99287 -1.81278 -0.321337 0
M  V30 END ATOM
M  V30 BEGIN BOND
M  V30 1 1 1 2
M  V30 2 2 2 3
M  V30 3 1 3 4
M  V30 4 2 4 5
M  V30 5 1 5 6
M  V30 6 1 6 7
M  V30 7 1 7 8
M  V30 8 2 7 9
M  V30 9 1 5 10
M  V30 10 2 10 11
M  V30 11 1 11 12
M  V30 12 1 12 13
M  V30 13 1 13 14
M  V30 14 2 13 15
M  V30 15 1 11 2
M  V30 16 1 1 16
M  V30 17 1 1 17
M  V30 18 1 1 18
M  V30 19 1 3 19
M  V30 20 1 4 20
M  V30 21 1 6 21
M  V30 22 1 8 22
M  V30 23 1 8 23
M  V30 24 1 10 24
M  V30 25 1 12 25
M  V30 26 1 14 26
M  V30 27 1 14 27
M  V30 END BOND
M  V30 END CTAB
M  END
