
     RDKit          3D

  0  0  0  0  0  0  0  0  0  0999 V3000
M  V30 BEGIN CTAB
M  V30 COUNTS 42 41 0 0 0
M  V30 BEGIN ATOM
M  V30 1 N 6.52263 0.43022 1.87663 0
M  V30 2 C 5.14124 0.350369 1.42032 0
M  V30 3 C 5.04263 0.573557 -0.0673145 0
M  V30 4 C 3.61525 0.501728 -0.518358 0
M  V30 5 C 2.94809 -0.805929 -0.2532 0
M  V30 6 C 1.50746 -0.796361 -0.769988 0
M  V30 7 C 0.688247 0.252554 -0.121708 0
M  V30 8 C -0.716599 0.250036 -0.637681 0
M  V30 9 C -1.3965 -1.04612 -0.367958 0
M  V30 10 C -2.8214 -1.1035 -0.87258 0
M  V30 11 C -3.62907 -0.0425911 -0.20824 0
M  V30 12 C -5.08252 -0.0596523 -0.660072 0
M  V30 13 C -5.78262 1.06369 0.0900609 0
M  V30 14 N -5.7178 0.888678 1.51292 0
M  V30 15 H 7.07908 0.821969 1.07396 0
M  V30 16 H 6.85512 -0.529103 2.06557 0
M  V30 17 H 4.7303 -0.659282 1.63562 0
M  V30 18 H 4.54645 1.13843 1.92504 0
M  V30 19 H 5.42258 1.60783 -0.253736 0
M  V30 20 H 5.68653 -0.172963 -0.579779 0
M  V30 21 H 3.48848 0.77256 -1.58796 0
M  V30 22 H 3.06181 1.3083 0.0404701 0
M  V30 23 H 2.94668 -1.038 0.833242 0
M  V30 24 H 3.4688 -1.60739 -0.793093 0
M  V30 25 H 1.6017 -0.51759 -1.86162 0
M  V30 26 H 1.12496 -1.81379 -0.714488 0
M  V30 27 H 0.646342 0.139358 0.987583 0
M  V30 28 H 1.1125 1.24929 -0.374577 0
M  V30 29 H -0.706016 0.517075 -1.71689 0
M  V30 30 H -1.32181 1.05295 -0.150651 0
M  V30 31 H -0.830113 -1.94849 -0.730587 0
M  V30 32 H -1.39133 -1.17132 0.757104 0
M  V30 33 H -2.86514 -1.03661 -1.97821 0
M  V30 34 H -3.21097 -2.11369 -0.611501 0
M  V30 35 H -3.26722 0.977507 -0.488704 0
M  V30 36 H -3.61327 -0.195027 0.881 0
M  V30 37 H -5.59587 -0.995028 -0.378698 0
M  V30 38 H -5.18634 0.11312 -1.73281 0
M  V30 39 H -6.81717 1.20406 -0.247808 0
M  V30 40 H -5.20774 2.0075 -0.141992 0
M  V30 41 H -5.43331 -0.0744725 1.8049 0
M  V30 42 H -6.64408 1.15404 1.9158 0
M  V30 END ATOM
M  V30 BEGIN BOND
M  V30 1 1 1 2
M  V30 2 1 2 3
M  V30 3 1 3 4
M  V30 4 1 4 5
M  V30 5 1 5 6
M  V30 6 1 6 7
M  V30 7 1 7 8
M  V30 8 1 8 9
M  V30 9 1 9 10
M  V30 10 1 10 11
M  V30 11 1 11 12
M  V30 12 1 12 13
M  V30 13 1 13 14
M  V30 14 1 1 15
M  V30 15 1 1 16
M  V30 16 1 2 17
M  V30 17 1 2 18
M  V30 18 1 3 19
M  V30 19 1 3 20
M  V30 20 1 4 21
M  V30 21 1 4 22
M  V30 22 1 5 23
M  V30 23 1 5 24
M  V30 24 1 6 25
M  V30 25 1 6 26
M  V30 26 1 7 27
M  V30 27 1 7 28
M  V30 28 1 8 29
M  V30 29 1 8 30
M  V30 30 1 9 31
M  V30 31 1 9 32
M  V30 32 1 10 33
M  V30 33 1 10 34
M  V30 34 1 11 35
M  V30 35 1 11 36
M  V30 36 1 12 37
M  V30 37 1 12 38
M  V30 38 1 13 39
M  V30 39 1 13 40
M  V30 40 1 14 41
M  V30 41 1 14 42
M  V30 END BOND
M  V30 END CTAB
M  END
