
     RDKit          3D

  0  0  0  0  0  0  0  0  0  0999 V3000
M  V30 BEGIN CTAB
M  V30 COUNTS 20 21 0 0 0
M  V30 BEGIN ATOM
M  V30 1 N -2.84237 -0.803766 -2.25861 0
M  V30 2 C -2.0968 -0.359533 -1.13081 0
M  V30 3 N -0.75795 -0.455329 -1.14459 0
M  V30 4 C 0.00743944 -0.0546193 -0.113124 0
M  V30 5 N -0.63267 0.455669 0.953401 0
M  V30 6 C -1.96809 0.574421 1.0201 0
M  V30 7 N -2.60858 1.1244 2.17717 0
M  V30 8 N -2.67789 0.155468 -0.0445048 0
M  V30 9 C 1.46238 -0.173178 -0.161154 0
M  V30 10 C 2.38554 0.177105 0.77927 0
M  V30 11 C 3.67432 -0.0353273 0.491589 0
M  V30 12 C 3.96543 -0.58964 -0.728733 0
M  V30 13 S 2.41826 -0.791659 -1.42626 0
M  V30 14 H -3.12542 -1.78384 -2.3805 0
M  V30 15 H -3.09116 -0.0662251 -2.9693 0
M  V30 16 H -3.63321 1.01394 2.27827 0
M  V30 17 H -2.00801 1.61488 2.87018 0
M  V30 18 H 2.04868 0.619903 1.73818 0
M  V30 19 H 4.51531 0.210268 1.18053 0
M  V30 20 H 4.96481 -0.832943 -1.1311 0
M  V30 END ATOM
M  V30 BEGIN BOND
M  V30 1 1 1 2
M  V30 2 2 2 3
M  V30 3 1 3 4
M  V30 4 2 4 5
M  V30 5 1 5 6
M  V30 6 1 6 7
M  V30 7 2 6 8
M  V30 8 1 4 9
M  V30 9 2 9 10
M  V30 10 1 10 11
M  V30 11 2 11 12
M  V30 12 1 12 13
M  V30 13 1 8 2
M  V30 14 1 13 9
M  V30 15 1 1 14
M  V30 16 1 1 15
M  V30 17 1 7 16
M  V30 18 1 7 17
M  V30 19 1 10 18
M  V30 20 1 11 19
M  V30 21 1 12 20
M  V30 END BOND
M  V30 END CTAB
M  END
