
     RDKit          3D

  0  0  0  0  0  0  0  0  0  0999 V3000
M  V30 BEGIN CTAB
M  V30 COUNTS 46 48 0 0 0
M  V30 BEGIN ATOM
M  V30 1 N -5.50473 0.870876 -0.958505 0
M  V30 2 C -4.03951 0.919494 -1.1012 0
M  V30 3 C -3.55635 -0.43809 -1.41321 0
M  V30 4 C -2.39503 -0.916626 -0.57638 0
M  V30 5 C -2.85977 -1.58623 0.668135 0
M  V30 6 C -2.46575 -0.950335 1.9514 0
M  V30 7 C -2.3637 0.530577 1.92996 0
M  V30 8 C -2.17467 1.16233 0.591161 0
M  V30 9 C -3.4636 1.64324 0.0386239 0
M  V30 10 C -1.48779 0.249852 -0.397972 0
M  V30 11 N -0.129101 -0.0458485 -0.0959766 0
M  V30 12 C 0.940325 0.338983 -0.916384 0
M  V30 13 O 0.745481 0.976176 -1.97875 0
M  V30 14 C 2.30956 0.0109097 -0.560512 0
M  V30 15 O 2.68876 -0.647057 0.510029 0
M  V30 16 C 3.98034 -0.791923 0.563605 0
M  V30 17 C 4.53897 -0.193464 -0.546328 0
M  V30 18 C 3.46622 0.313781 -1.25399 0
M  V30 19 S 6.23255 -0.147752 -0.879858 0
M  V30 20 O 6.81509 -1.53941 -0.86946 0
M  V30 21 O 6.89515 0.619982 0.256176 0
M  V30 22 N 6.61721 0.663136 -2.32855 0
M  V30 23 C 4.74928 -1.49386 1.65073 0
M  V30 24 H -5.83389 1.62397 -0.315612 0
M  V30 25 H -5.98121 0.863154 -1.8699 0
M  V30 26 H -3.88617 1.54986 -2.02945 0
M  V30 27 H -3.2577 -0.560952 -2.47596 0
M  V30 28 H -4.37067 -1.20888 -1.262 0
M  V30 29 H -1.83165 -1.68376 -1.17263 0
M  V30 30 H -2.52755 -2.66573 0.72777 0
M  V30 31 H -3.98594 -1.6767 0.620262 0
M  V30 32 H -1.51506 -1.42697 2.33791 0
M  V30 33 H -3.23699 -1.258 2.7169 0
M  V30 34 H -1.5336 0.805462 2.64861 0
M  V30 35 H -3.28442 0.955722 2.41829 0
M  V30 36 H -1.44905 2.01588 0.749711 0
M  V30 37 H -4.20778 1.6591 0.885343 0
M  V30 38 H -3.34156 2.74382 -0.199665 0
M  V30 39 H -1.49952 0.820731 -1.37226 0
M  V30 40 H 0.0722677 -0.574704 0.780001 0
M  V30 41 H 3.5425 0.844966 -2.1759 0
M  V30 42 H 6.14109 1.61173 -2.29086 0
M  V30 43 H 7.65101 0.907913 -2.30271 0
M  V30 44 H 5.25367 -0.705071 2.25999 0
M  V30 45 H 4.04161 -2.04427 2.27635 0
M  V30 46 H 5.50168 -2.14603 1.18403 0
M  V30 END ATOM
M  V30 BEGIN BOND
M  V30 1 1 1 2
M  V30 2 1 2 3
M  V30 3 1 3 4
M  V30 4 1 4 5
M  V30 5 1 5 6
M  V30 6 1 6 7
M  V30 7 1 7 8
M  V30 8 1 8 9
M  V30 9 1 8 10
M  V30 10 1 10 11
M  V30 11 1 11 12
M  V30 12 2 12 13
M  V30 13 1 12 14
M  V30 14 1 14 15
M  V30 15 1 15 16
M  V30 16 2 16 17
M  V30 17 1 17 18
M  V30 18 1 17 19
M  V30 19 2 19 20
M  V30 20 2 19 21
M  V30 21 1 19 22
M  V30 22 1 16 23
M  V30 23 1 9 2
M  V30 24 2 18 14
M  V30 25 1 10 4
M  V30 26 1 1 24
M  V30 27 1 1 25
M  V30 28 1 2 26
M  V30 29 1 3 27
M  V30 30 1 3 28
M  V30 31 1 4 29
M  V30 32 1 5 30
M  V30 33 1 5 31
M  V30 34 1 6 32
M  V30 35 1 6 33
M  V30 36 1 7 34
M  V30 37 1 7 35
M  V30 38 1 8 36
M  V30 39 1 9 37
M  V30 40 1 9 38
M  V30 41 1 10 39
M  V30 42 1 11 40
M  V30 43 1 18 41
M  V30 44 1 22 42
M  V30 45 1 22 43
M  V30 46 1 23 44
M  V30 47 1 23 45
M  V30 48 1 23 46
M  V30 END BOND
M  V30 END CTAB
M  END
