
     RDKit          3D

  0  0  0  0  0  0  0  0  0  0999 V3000
M  V30 BEGIN CTAB
M  V30 COUNTS 26 28 0 0 0
M  V30 BEGIN ATOM
M  V30 1 N -2.82397 -2.0296 0.0814032 0
M  V30 2 N -2.50931 -0.698452 0.252738 0
M  V30 3 C -1.35496 -0.167647 0.16989 0
M  V30 4 C -0.178752 -0.839137 -0.112676 0
M  V30 5 C 0.210812 -2.14558 -0.383488 0
M  V30 6 C 1.52561 -2.46166 -0.628326 0
M  V30 7 C 2.47191 -1.42886 -0.598505 0
M  V30 8 C 2.10522 -0.125754 -0.331599 0
M  V30 9 C 2.99066 0.95106 -0.285653 0
M  V30 10 C 2.485 2.23186 -0.00198533 0
M  V30 11 C 1.13879 2.44042 0.229883 0
M  V30 12 C 0.262165 1.37064 0.183791 0
M  V30 13 C -1.09289 1.2076 0.356207 0
M  V30 14 N -1.96546 2.10942 0.631786 0
M  V30 15 N -3.32304 1.85265 0.789208 0
M  V30 16 C 0.785828 0.143109 -0.0938092 0
M  V30 17 H -2.84205 -2.65448 0.917713 0
M  V30 18 H -3.0452 -2.42753 -0.869086 0
M  V30 19 H -0.523602 -2.91496 -0.401375 0
M  V30 20 H 1.85016 -3.47914 -0.842344 0
M  V30 21 H 3.49133 -1.64567 -0.783717 0
M  V30 22 H 4.01603 0.749745 -0.469209 0
M  V30 23 H 3.21341 3.04011 0.023122 0
M  V30 24 H 0.79555 3.43161 0.442333 0
M  V30 25 H -4.03967 2.25615 0.158846 0
M  V30 26 H -3.64357 1.23408 1.56485 0
M  V30 END ATOM
M  V30 BEGIN BOND
M  V30 1 1 1 2
M  V30 2 2 2 3 CFG=2
M  V30 3 1 3 4
M  V30 4 2 4 5
M  V30 5 1 5 6
M  V30 6 2 6 7
M  V30 7 1 7 8
M  V30 8 2 8 9
M  V30 9 1 9 10
M  V30 10 2 10 11
M  V30 11 1 11 12
M  V30 12 1 12 13
M  V30 13 2 13 14 CFG=2
M  V30 14 1 14 15
M  V30 15 2 12 16
M  V30 16 1 13 3
M  V30 17 1 16 4
M  V30 18 1 16 8
M  V30 19 1 1 17
M  V30 20 1 1 18
M  V30 21 1 5 19
M  V30 22 1 6 20
M  V30 23 1 7 21
M  V30 24 1 9 22
M  V30 25 1 10 23
M  V30 26 1 11 24
M  V30 27 1 15 25
M  V30 28 1 15 26
M  V30 END BOND
M  V30 END CTAB
M  END
