
     RDKit          3D

  0  0  0  0  0  0  0  0  0  0999 V3000
M  V30 BEGIN CTAB
M  V30 COUNTS 11 11 0 0 0
M  V30 BEGIN ATOM
M  V30 1 N 2.68906 -0.0402666 -0.487601 0
M  V30 2 C 1.28649 -0.120659 -0.174769 0
M  V30 3 N 0.626014 -1.08131 0.464978 0
M  V30 4 N -0.617198 -0.977572 0.64887 0
M  V30 5 C -1.2725 0.0906019 0.204961 0
M  V30 6 N -2.67153 0.333038 0.344821 0
M  V30 7 S 0.005383 0.970985 -0.510767 0
M  V30 8 H 2.94703 -0.21364 -1.48286 0
M  V30 9 H 3.41338 0.178015 0.231782 0
M  V30 10 H -3.17895 0.168368 1.24415 0
M  V30 11 H -3.22717 0.692443 -0.483562 0
M  V30 END ATOM
M  V30 BEGIN BOND
M  V30 1 1 1 2
M  V30 2 2 2 3
M  V30 3 1 3 4
M  V30 4 2 4 5
M  V30 5 1 5 6
M  V30 6 1 5 7
M  V30 7 1 7 2
M  V30 8 1 1 8
M  V30 9 1 1 9
M  V30 10 1 6 10
M  V30 11 1 6 11
M  V30 END BOND
M  V30 END CTAB
M  END
