
     RDKit          3D

  0  0  0  0  0  0  0  0  0  0999 V3000
M  V30 BEGIN CTAB
M  V30 COUNTS 36 37 0 0 0
M  V30 BEGIN ATOM
M  V30 1 N -4.59622 2.93728 -1.07335 0
M  V30 2 N -3.66434 1.85598 -1.06871 0
M  V30 3 C -3.81798 0.882789 -0.0779602 0
M  V30 4 O -4.78279 1.03484 0.750287 0
M  V30 5 C -2.97716 -0.271973 0.0804776 0
M  V30 6 C -1.97124 -0.545704 -0.683818 0
M  V30 7 N -1.46059 0.153979 -1.79391 0
M  V30 8 C -0.197551 0.419982 -1.86762 0
M  V30 9 S 0.627608 1.24864 -3.11053 0
M  V30 10 C 2.20995 1.17482 -2.46026 0
M  V30 11 C 2.00002 0.494508 -1.28752 0
M  V30 12 N 0.7764 0.123012 -1.00848 0
M  V30 13 C 3.14027 0.20015 -0.37897 0
M  V30 14 C 2.98043 -0.480429 0.810597 0
M  V30 15 C 4.07172 -0.725189 1.61268 0
M  V30 16 C 5.31588 -0.296255 1.23548 0
M  V30 17 C 5.5234 0.386186 0.058056 0
M  V30 18 C 4.40227 0.616829 -0.727992 0
M  V30 19 Cl 6.67103 -0.629885 2.28566 0
M  V30 20 C -3.30955 -1.17773 1.1908 0
M  V30 21 O -4.3182 -0.888205 1.94421 0
M  V30 22 N -2.56615 -2.3395 1.45209 0
M  V30 23 N -2.88921 -3.2065 2.51975 0
M  V30 24 H -5.01235 3.04183 -0.123314 0
M  V30 25 H -4.13665 3.81687 -1.38142 0
M  V30 26 H -2.97141 1.91944 -1.81246 0
M  V30 27 H -1.39096 -1.46541 -0.468783 0
M  V30 28 H 3.12448 1.57955 -2.90063 0
M  V30 29 H 0.503886 -0.418349 -0.109641 0
M  V30 30 H 2.01096 -0.82241 1.11865 0
M  V30 31 H 3.94584 -1.26646 2.55916 0
M  V30 32 H 6.49456 0.72372 -0.241334 0
M  V30 33 H 4.61833 1.16131 -1.65096 0
M  V30 34 H -1.75084 -2.6432 0.903093 0
M  V30 35 H -3.63879 -3.86457 2.2868 0
M  V30 36 H -2.96507 -2.72997 3.41986 0
M  V30 END ATOM
M  V30 BEGIN BOND
M  V30 1 1 1 2
M  V30 2 1 2 3
M  V30 3 2 3 4
M  V30 4 1 3 5
M  V30 5 2 5 6
M  V30 6 1 6 7
M  V30 7 2 7 8
M  V30 8 1 8 9
M  V30 9 1 9 10
M  V30 10 2 10 11
M  V30 11 1 11 12
M  V30 12 1 11 13
M  V30 13 2 13 14
M  V30 14 1 14 15
M  V30 15 2 15 16
M  V30 16 1 16 17
M  V30 17 2 17 18
M  V30 18 1 16 19
M  V30 19 1 5 20
M  V30 20 2 20 21
M  V30 21 1 20 22
M  V30 22 1 22 23
M  V30 23 1 8 12
M  V30 24 1 18 13
M  V30 25 1 1 24
M  V30 26 1 1 25
M  V30 27 1 2 26
M  V30 28 1 6 27
M  V30 29 1 10 28
M  V30 30 1 12 29
M  V30 31 1 14 30
M  V30 32 1 15 31
M  V30 33 1 17 32
M  V30 34 1 18 33
M  V30 35 1 22 34
M  V30 36 1 23 35
M  V30 37 1 23 36
M  V30 END BOND
M  V30 END CTAB
M  END
