
     RDKit          3D

  0  0  0  0  0  0  0  0  0  0999 V3000
M  V30 BEGIN CTAB
M  V30 COUNTS 35 36 0 0 0
M  V30 BEGIN ATOM
M  V30 1 N -2.2477 0.800235 -2.63882 0
M  V30 2 C -1.68316 0.843822 -1.35665 0 CFG=1
M  V30 3 C -2.54682 0.217388 -0.320674 0 CFG=2
M  V30 4 O -3.5973 1.1252 -0.0479163 0
M  V30 5 C -1.89193 -0.114156 0.957293 0 CFG=1
M  V30 6 C -2.62695 -1.31682 1.56551 0
M  V30 7 O -3.99086 -1.07988 1.64001 0
M  V30 8 O -0.56858 -0.42223 0.918402 0
M  V30 9 C 0.184371 0.430547 0.107544 0 CFG=2
M  V30 10 C -0.315492 0.188772 -1.30339 0 CFG=2
M  V30 11 O 0.537773 0.654617 -2.27043 0
M  V30 12 N 1.58279 0.197649 0.262229 0
M  V30 13 C 2.08794 -0.97252 0.715114 0
M  V30 14 C 3.44548 -1.18654 0.860875 0
M  V30 15 C 4.33974 -0.186163 0.53966 0
M  V30 16 N 5.74795 -0.366475 0.675612 0
M  V30 17 N 3.81275 0.974144 0.0892933 0
M  V30 18 C 2.48147 1.15673 -0.0436714 0
M  V30 19 O 2.10594 2.29433 -0.478203 0
M  V30 20 H -2.62185 -0.0271006 -2.99698 0
M  V30 21 H -2.55801 1.66699 -3.00865 0
M  V30 22 H -1.5263 1.91565 -1.07528 0
M  V30 23 H -3.06447 -0.661267 -0.805424 0
M  V30 24 H -3.36851 1.66992 0.767508 0
M  V30 25 H -2.047 0.72081 1.69493 0
M  V30 26 H -2.17918 -1.61352 2.53454 0
M  V30 27 H -2.50783 -2.21 0.886582 0
M  V30 28 H -4.20257 -0.908227 2.5906 0
M  V30 29 H -0.124977 1.47351 0.411184 0
M  V30 30 H -0.495143 -0.919805 -1.4231 0
M  V30 31 H 0.0764431 0.839195 -3.10731 0
M  V30 32 H 1.34752 -1.74385 0.960244 0
M  V30 33 H 3.81427 -2.14946 1.23122 0
M  V30 34 H 6.31513 0.165096 1.39154 0
M  V30 35 H 6.28506 -1.03003 0.0766003 0
M  V30 END ATOM
M  V30 BEGIN BOND
M  V30 1 1 1 2
M  V30 2 1 2 3
M  V30 3 1 3 4
M  V30 4 1 3 5
M  V30 5 1 5 6
M  V30 6 1 6 7
M  V30 7 1 5 8
M  V30 8 1 8 9
M  V30 9 1 9 10
M  V30 10 1 10 11
M  V30 11 1 9 12
M  V30 12 1 12 13
M  V30 13 2 13 14
M  V30 14 1 14 15
M  V30 15 1 15 16
M  V30 16 2 15 17
M  V30 17 1 17 18
M  V30 18 2 18 19
M  V30 19 1 10 2
M  V30 20 1 18 12
M  V30 21 1 1 20
M  V30 22 1 1 21
M  V30 23 1 2 22 CFG=1
M  V30 24 1 3 23 CFG=3
M  V30 25 1 4 24
M  V30 26 1 5 25 CFG=1
M  V30 27 1 6 26
M  V30 28 1 6 27
M  V30 29 1 7 28
M  V30 30 1 9 29 CFG=1
M  V30 31 1 10 30 CFG=3
M  V30 32 1 11 31
M  V30 33 1 13 32
M  V30 34 1 14 33
M  V30 35 1 16 34
M  V30 36 1 16 35
M  V30 END BOND
M  V30 END CTAB
M  END
