
     RDKit          3D

  0  0  0  0  0  0  0  0  0  0999 V3000
M  V30 BEGIN CTAB
M  V30 COUNTS 33 35 0 0 0
M  V30 BEGIN ATOM
M  V30 1 F 3.6972 1.08009 3.1961 0
M  V30 2 C 3.47539 0.661405 1.91593 0
M  V30 3 C 2.15499 0.457644 1.5428 0
M  V30 4 C 1.82845 0.0355212 0.272712 0
M  V30 5 C 0.457114 -0.189479 -0.158335 0
M  V30 6 O -0.0166685 -0.580007 -1.29885 0
M  V30 7 N -1.32017 -0.647966 -1.24849 0
M  V30 8 C -1.74109 -0.292185 -0.035475 0
M  V30 9 N -0.608439 0.00222546 0.666095 0
M  V30 10 C -3.14017 -0.240221 0.410998 0
M  V30 11 N -3.36056 -1.03431 1.60199 0
M  V30 12 C -4.10609 -0.603511 -0.698231 0
M  V30 13 C -4.46144 0.865013 -0.784491 0
M  V30 14 C -3.74164 1.13353 0.537282 0
M  V30 15 C 2.87419 -0.181014 -0.625687 0
M  V30 16 C 4.18514 0.0203497 -0.256501 0
M  V30 17 C 4.49417 0.443818 1.01859 0
M  V30 18 N 5.22046 -0.206096 -1.19582 0 CHG=1
M  V30 19 O 6.2793 0.46844 -1.03297 0
M  V30 20 O 5.1345 -1.09482 -2.24939 0 CHG=-1
M  V30 21 N 2.54649 -0.611755 -1.91431 0
M  V30 22 H 1.33302 0.622655 2.24663 0
M  V30 23 H -2.85776 -1.94296 1.56415 0
M  V30 24 H -3.03038 -0.479509 2.4078 0
M  V30 25 H -4.94316 -1.25418 -0.373516 0
M  V30 26 H -3.64899 -1.02802 -1.60506 0
M  V30 27 H -5.53293 1.10367 -0.715089 0
M  V30 28 H -4.00483 1.31088 -1.66719 0
M  V30 29 H -3.05911 1.98523 0.497298 0
M  V30 30 H -4.47863 1.22988 1.37701 0
M  V30 31 H 5.51687 0.597134 1.30433 0
M  V30 32 H 2.7339 -1.62528 -2.1719 0
M  V30 33 H 2.12087 -0.00618735 -2.65748 0
M  V30 END ATOM
M  V30 BEGIN BOND
M  V30 1 1 1 2
M  V30 2 2 2 3
M  V30 3 1 3 4
M  V30 4 1 4 5
M  V30 5 1 5 6
M  V30 6 1 6 7
M  V30 7 2 7 8
M  V30 8 1 8 9
M  V30 9 1 8 10
M  V30 10 1 10 11
M  V30 11 1 10 12
M  V30 12 1 12 13
M  V30 13 1 13 14
M  V30 14 2 4 15
M  V30 15 1 15 16
M  V30 16 2 16 17
M  V30 17 1 16 18
M  V30 18 2 18 19
M  V30 19 1 18 20
M  V30 20 1 15 21
M  V30 21 1 17 2
M  V30 22 2 9 5
M  V30 23 1 14 10
M  V30 24 1 3 22
M  V30 25 1 11 23
M  V30 26 1 11 24
M  V30 27 1 12 25
M  V30 28 1 12 26
M  V30 29 1 13 27
M  V30 30 1 13 28
M  V30 31 1 14 29
M  V30 32 1 14 30
M  V30 33 1 17 31
M  V30 34 1 21 32
M  V30 35 1 21 33
M  V30 END BOND
M  V30 END CTAB
M  END
