
     RDKit          3D

  0  0  0  0  0  0  0  0  0  0999 V3000
M  V30 BEGIN CTAB
M  V30 COUNTS 31 32 0 0 0
M  V30 BEGIN ATOM
M  V30 1 N 2.88676 1.72785 -2.36784 0
M  V30 2 C 2.5594 1.14511 -1.11224 0
M  V30 3 N 3.38745 1.23694 -0.0535872 0
M  V30 4 C 3.05354 0.680091 1.11201 0
M  V30 5 C 1.84406 0.00509 1.22274 0
M  V30 6 C 0.983496 -0.100297 0.153039 0
M  V30 7 C 1.35502 0.483948 -1.03564 0
M  V30 8 C -0.27721 -0.824538 0.33173 0 CFG=2
M  V30 9 C -0.154084 -2.14283 -0.429616 0
M  V30 10 O -1.10043 -3.00371 0.0889789 0
M  V30 11 C -2.21268 -2.31477 0.556308 0
M  V30 12 C -2.5134 -1.0776 -0.270825 0
M  V30 13 N -1.41239 -0.129345 -0.243253 0
M  V30 14 S -1.85931 1.23652 0.72629 0
M  V30 15 O -2.25057 0.823503 2.10932 0
M  V30 16 O -3.05239 1.89171 0.0920078 0
M  V30 17 N -0.546708 2.35187 0.78816 0
M  V30 18 H 2.42101 2.59842 -2.6527 0
M  V30 19 H 3.58031 1.27802 -2.97528 0
M  V30 20 H 3.73344 0.759513 1.96889 0
M  V30 21 H 1.61971 -0.426906 2.18315 0
M  V30 22 H 0.684912 0.411396 -1.8977 0
M  V30 23 H -0.467971 -0.981026 1.39606 0
M  V30 24 H -0.397951 -1.90358 -1.49804 0
M  V30 25 H 0.868494 -2.52671 -0.413493 0
M  V30 26 H -2.16053 -2.09403 1.63749 0
M  V30 27 H -3.08394 -2.99316 0.421183 0
M  V30 28 H -2.75265 -1.41153 -1.28511 0
M  V30 29 H -3.42234 -0.619541 0.187196 0
M  V30 30 H -0.540063 2.86145 -0.138601 0
M  V30 31 H -0.772987 3.05814 1.51298 0
M  V30 END ATOM
M  V30 BEGIN BOND
M  V30 1 1 1 2
M  V30 2 2 2 3
M  V30 3 1 3 4
M  V30 4 2 4 5
M  V30 5 1 5 6
M  V30 6 2 6 7
M  V30 7 1 6 8
M  V30 8 1 8 9
M  V30 9 1 9 10
M  V30 10 1 10 11
M  V30 11 1 11 12
M  V30 12 1 12 13
M  V30 13 1 13 14
M  V30 14 2 14 15
M  V30 15 2 14 16
M  V30 16 1 14 17
M  V30 17 1 7 2
M  V30 18 1 13 8
M  V30 19 1 1 18
M  V30 20 1 1 19
M  V30 21 1 4 20
M  V30 22 1 5 21
M  V30 23 1 7 22
M  V30 24 1 8 23 CFG=1
M  V30 25 1 9 24
M  V30 26 1 9 25
M  V30 27 1 11 26
M  V30 28 1 11 27
M  V30 29 1 12 28
M  V30 30 1 12 29
M  V30 31 1 17 30
M  V30 32 1 17 31
M  V30 END BOND
M  V30 END CTAB
M  END
