
     RDKit          3D

  0  0  0  0  0  0  0  0  0  0999 V3000
M  V30 BEGIN CTAB
M  V30 COUNTS 49 53 0 0 0
M  V30 BEGIN ATOM
M  V30 1 N 7.70655 -0.316788 -2.26183 0
M  V30 2 C 6.71137 0.682093 -2.06897 0
M  V30 3 N 6.94728 1.85055 -2.50684 0
M  V30 4 C 5.47739 0.333422 -1.38687 0
M  V30 5 C 4.48227 1.25966 -1.17376 0
M  V30 6 C 3.30046 0.963598 -0.531088 0
M  V30 7 C 3.11342 -0.326074 -0.0825608 0
M  V30 8 C 1.86701 -0.753839 0.627436 0
M  V30 9 C 2.01354 -0.559843 2.11076 0
M  V30 10 C 0.818288 -0.984342 2.88453 0
M  V30 11 N -0.341083 -0.24473 2.47476 0
M  V30 12 N -0.69998 0.960069 2.94667 0
M  V30 13 C -1.82677 1.34632 2.32116 0
M  V30 14 C -2.20832 0.370629 1.42343 0
M  V30 15 C -1.24521 -0.615049 1.55153 0
M  V30 16 N -1.41394 -1.69652 0.76368 0
M  V30 17 C -2.43707 -1.82812 -0.0926771 0
M  V30 18 N -2.5204 -3.0065 -0.874896 0
M  V30 19 N -3.37536 -0.875458 -0.2231 0
M  V30 20 N -4.46225 -0.739155 -0.964732 0
M  V30 21 C -5.06854 0.433177 -0.709063 0
M  V30 22 N -4.31145 1.03061 0.230282 0
M  V30 23 C -3.2637 0.24829 0.547773 0
M  V30 24 C -6.30163 0.951848 -1.32817 0
M  V30 25 C -6.92602 2.15234 -1.06907 0
M  V30 26 C -8.04727 2.20746 -1.88631 0
M  V30 27 C -8.03921 1.03071 -2.59862 0
M  V30 28 O -6.98582 0.322055 -2.23187 0
M  V30 29 C 4.09231 -1.2768 -0.281149 0
M  V30 30 C 5.26552 -0.965519 -0.923994 0
M  V30 31 H 7.75588 -0.923122 -3.10276 0
M  V30 32 H 8.42219 -0.440067 -1.51212 0
M  V30 33 H 6.37024 2.69157 -2.46807 0
M  V30 34 H 4.63228 2.27882 -1.52925 0
M  V30 35 H 2.5269 1.7149 -0.374153 0
M  V30 36 H 1.59744 -1.7834 0.420737 0
M  V30 37 H 1.04742 -0.083912 0.282396 0
M  V30 38 H 2.95159 -1.05147 2.45982 0
M  V30 39 H 2.23416 0.542083 2.2436 0
M  V30 40 H 1.02417 -0.856101 3.97973 0
M  V30 41 H 0.631017 -2.08669 2.77952 0
M  V30 42 H -2.33774 2.26718 2.49978 0
M  V30 43 H -3.11534 -3.80954 -0.583836 0
M  V30 44 H -1.9734 -3.0574 -1.75187 0
M  V30 45 H -6.58285 2.87777 -0.365762 0
M  V30 46 H -8.77108 3.02497 -1.93648 0
M  V30 47 H -8.77358 0.733665 -3.33727 0
M  V30 48 H 3.97744 -2.3091 0.0613595 0
M  V30 49 H 6.06189 -1.68424 -1.10082 0
M  V30 END ATOM
M  V30 BEGIN BOND
M  V30 1 1 1 2
M  V30 2 2 2 3 CFG=2
M  V30 3 1 2 4
M  V30 4 2 4 5
M  V30 5 1 5 6
M  V30 6 2 6 7
M  V30 7 1 7 8
M  V30 8 1 8 9
M  V30 9 1 9 10
M  V30 10 1 10 11
M  V30 11 1 11 12
M  V30 12 2 12 13
M  V30 13 1 13 14
M  V30 14 2 14 15
M  V30 15 1 15 16
M  V30 16 2 16 17
M  V30 17 1 17 18
M  V30 18 1 17 19
M  V30 19 1 19 20
M  V30 20 2 20 21
M  V30 21 1 21 22
M  V30 22 2 22 23
M  V30 23 1 21 24
M  V30 24 2 24 25
M  V30 25 1 25 26
M  V30 26 2 26 27
M  V30 27 1 27 28
M  V30 28 1 7 29
M  V30 29 2 29 30
M  V30 30 1 30 4
M  V30 31 1 15 11
M  V30 32 1 23 19
M  V30 33 1 28 24
M  V30 34 1 23 14
M  V30 35 1 1 31
M  V30 36 1 1 32
M  V30 37 1 3 33
M  V30 38 1 5 34
M  V30 39 1 6 35
M  V30 40 1 8 36
M  V30 41 1 8 37
M  V30 42 1 9 38
M  V30 43 1 9 39
M  V30 44 1 10 40
M  V30 45 1 10 41
M  V30 46 1 13 42
M  V30 47 1 18 43
M  V30 48 1 18 44
M  V30 49 1 25 45
M  V30 50 1 26 46
M  V30 51 1 27 47
M  V30 52 1 29 48
M  V30 53 1 30 49
M  V30 END BOND
M  V30 END CTAB
M  END
