
     RDKit          3D

  0  0  0  0  0  0  0  0  0  0999 V3000
M  V30 BEGIN CTAB
M  V30 COUNTS 18 18 0 0 0
M  V30 BEGIN ATOM
M  V30 1 O 3.16706 -1.03635 0.503852 0
M  V30 2 C 2.41069 0.0587676 0.212487 0
M  V30 3 O 2.97544 1.16896 0.0574882 0
M  V30 4 C 0.952029 -0.022425 0.0743859 0
M  V30 5 C 0.277518 -1.21623 0.233971 0
M  V30 6 C -1.09424 -1.28452 0.102538 0
M  V30 7 Br -2.03374 -2.92498 0.320518 0
M  V30 8 C -1.8338 -0.157584 -0.19322 0
M  V30 9 N -1.15248 0.992806 -0.343692 0
M  V30 10 C 0.184514 1.0839 -0.220331 0
M  V30 11 N 0.877224 2.3233 -0.386805 0
M  V30 12 N -3.24309 -0.213004 -0.331109 0
M  V30 13 H 2.9403 -1.77196 1.14947 0
M  V30 14 H 0.847152 -2.09373 0.46363 0
M  V30 15 H 1.40857 2.54279 -1.27041 0
M  V30 16 H 0.842979 3.01038 0.395137 0
M  V30 17 H -3.73158 0.542379 -0.829845 0
M  V30 18 H -3.79455 -1.00251 0.0619378 0
M  V30 END ATOM
M  V30 BEGIN BOND
M  V30 1 1 1 2
M  V30 2 2 2 3
M  V30 3 1 2 4
M  V30 4 2 4 5
M  V30 5 1 5 6
M  V30 6 1 6 7
M  V30 7 2 6 8
M  V30 8 1 8 9
M  V30 9 2 9 10
M  V30 10 1 10 11
M  V30 11 1 8 12
M  V30 12 1 10 4
M  V30 13 1 1 13
M  V30 14 1 5 14
M  V30 15 1 11 15
M  V30 16 1 11 16
M  V30 17 1 12 17
M  V30 18 1 12 18
M  V30 END BOND
M  V30 END CTAB
M  END
