
     RDKit          3D

  0  0  0  0  0  0  0  0  0  0999 V3000
M  V30 BEGIN CTAB
M  V30 COUNTS 36 37 0 0 0
M  V30 BEGIN ATOM
M  V30 1 N 6.28339 -1.01263 0.073559 0
M  V30 2 C 6.63298 0.351776 -0.0870784 0
M  V30 3 N 5.76621 1.30827 -0.0412167 0
M  V30 4 N 4.41159 1.10539 0.168333 0
M  V30 5 C 3.6715 0.3784 -0.582735 0
M  V30 6 C 2.24269 0.182078 -0.336874 0
M  V30 7 C 1.64319 0.791716 0.73844 0
M  V30 8 C 0.284364 0.576376 0.931992 0
M  V30 9 C -0.470153 -0.205363 0.109223 0
M  V30 10 C 0.155588 -0.816323 -0.977527 0
M  V30 11 C 1.51604 -0.616603 -1.19362 0
M  V30 12 O -1.81991 -0.383088 0.35231 0
M  V30 13 S -2.94773 0.671947 -0.327416 0
M  V30 14 O -2.73217 0.727334 -1.83241 0
M  V30 15 O -2.81 2.06861 0.172994 0
M  V30 16 C -4.56914 0.127481 0.0424152 0
M  V30 17 C -5.22218 -0.740974 -0.808359 0
M  V30 18 C -6.50743 -1.17572 -0.520066 0
M  V30 19 C -7.18828 -0.771566 0.609755 0
M  V30 20 C -6.53263 0.0967273 1.45834 0
M  V30 21 C -5.25233 0.532838 1.17583 0
M  V30 22 N 7.99722 0.680596 -0.30823 0
M  V30 23 H 6.21535 -1.38412 1.03393 0
M  V30 24 H 6.11263 -1.57107 -0.794962 0
M  V30 25 H 4.15385 -0.0975297 -1.42743 0
M  V30 26 H 2.20469 1.42206 1.41899 0
M  V30 27 H -0.163078 1.06561 1.78264 0
M  V30 28 H -0.433966 -1.43384 -1.62982 0
M  V30 29 H 1.98999 -1.08671 -2.02706 0
M  V30 30 H -4.70982 -1.08479 -1.71967 0
M  V30 31 H -7.01709 -1.86182 -1.19685 0
M  V30 32 H -8.19493 -1.11361 0.833179 0
M  V30 33 H -7.02855 0.441026 2.35815 0
M  V30 34 H -4.7161 1.21887 1.8327 0
M  V30 35 H 8.27927 1.60292 -0.728168 0
M  V30 36 H 8.75494 0.00574326 -0.0554667 0
M  V30 END ATOM
M  V30 BEGIN BOND
M  V30 1 1 1 2
M  V30 2 2 2 3
M  V30 3 1 3 4
M  V30 4 2 4 5
M  V30 5 1 5 6
M  V30 6 2 6 7
M  V30 7 1 7 8
M  V30 8 2 8 9
M  V30 9 1 9 10
M  V30 10 2 10 11
M  V30 11 1 9 12
M  V30 12 1 12 13
M  V30 13 2 13 14
M  V30 14 2 13 15
M  V30 15 1 13 16
M  V30 16 2 16 17
M  V30 17 1 17 18
M  V30 18 2 18 19
M  V30 19 1 19 20
M  V30 20 2 20 21
M  V30 21 1 2 22
M  V30 22 1 11 6
M  V30 23 1 21 16
M  V30 24 1 1 23
M  V30 25 1 1 24
M  V30 26 1 5 25
M  V30 27 1 7 26
M  V30 28 1 8 27
M  V30 29 1 10 28
M  V30 30 1 11 29
M  V30 31 1 17 30
M  V30 32 1 18 31
M  V30 33 1 19 32
M  V30 34 1 20 33
M  V30 35 1 21 34
M  V30 36 1 22 35
M  V30 37 1 22 36
M  V30 END BOND
M  V30 END CTAB
M  END
