
     RDKit          3D

  0  0  0  0  0  0  0  0  0  0999 V3000
M  V30 BEGIN CTAB
M  V30 COUNTS 24 24 0 0 0
M  V30 BEGIN ATOM
M  V30 1 N 4.34595 0.0918528 1.56517 0
M  V30 2 N 3.78247 -0.47041 0.422243 0
M  V30 3 C 2.64169 0.142481 -0.213675 0
M  V30 4 O 2.18237 1.19695 0.303662 0
M  V30 5 C 2.09657 -0.510936 -1.42338 0
M  V30 6 S 0.677343 0.360537 -2.0375 0
M  V30 7 C -0.763384 0.296281 -0.994161 0
M  V30 8 C -1.08654 1.26215 -0.0718432 0
M  V30 9 C -2.22743 1.14726 0.732443 0
M  V30 10 C -3.07917 0.070688 0.64275 0
M  V30 11 C -2.76278 -0.904836 -0.281956 0
M  V30 12 C -1.63999 -0.790851 -1.07247 0
M  V30 13 F -1.33321 -1.74627 -1.97734 0
M  V30 14 N -4.2428 -0.0581387 1.45746 0
M  V30 15 H 3.59909 0.115889 2.29824 0
M  V30 16 H 4.54371 1.09541 1.33379 0
M  V30 17 H 4.18898 -1.33288 0.0308988 0
M  V30 18 H 2.9058 -0.461286 -2.21041 0
M  V30 19 H 1.90538 -1.58802 -1.22093 0
M  V30 20 H -0.467178 2.12928 0.0353152 0
M  V30 21 H -2.47678 1.91983 1.46341 0
M  V30 22 H -3.44073 -1.75588 -0.350316 0
M  V30 23 H -5.20099 -0.228533 1.08199 0
M  V30 24 H -4.14837 0.0194376 2.48736 0
M  V30 END ATOM
M  V30 BEGIN BOND
M  V30 1 1 1 2
M  V30 2 1 2 3
M  V30 3 2 3 4
M  V30 4 1 3 5
M  V30 5 1 5 6
M  V30 6 1 6 7
M  V30 7 2 7 8
M  V30 8 1 8 9
M  V30 9 2 9 10
M  V30 10 1 10 11
M  V30 11 2 11 12
M  V30 12 1 12 13
M  V30 13 1 10 14
M  V30 14 1 12 7
M  V30 15 1 1 15
M  V30 16 1 1 16
M  V30 17 1 2 17
M  V30 18 1 5 18
M  V30 19 1 5 19
M  V30 20 1 8 20
M  V30 21 1 9 21
M  V30 22 1 11 22
M  V30 23 1 14 23
M  V30 24 1 14 24
M  V30 END BOND
M  V30 END CTAB
M  END
