
     RDKit          3D

  0  0  0  0  0  0  0  0  0  0999 V3000
M  V30 BEGIN CTAB
M  V30 COUNTS 29 30 0 0 0
M  V30 BEGIN ATOM
M  V30 1 N 2.96698 0.832396 0.927347 0
M  V30 2 C 1.52412 0.825548 0.837578 0
M  V30 3 C 1.00567 -0.275677 -0.0409953 0
M  V30 4 N 1.41096 -1.55048 0.472996 0
M  V30 5 C 1.34277 -0.139613 -1.51444 0
M  V30 6 C -0.0184533 -0.808044 -1.77297 0
M  V30 7 C -0.423632 -0.205605 -0.438235 0
M  V30 8 C -1.04326 1.12435 -0.638788 0
M  V30 9 C -2.00989 1.24111 0.512458 0
M  V30 10 C -2.54576 -0.190444 0.61559 0
M  V30 11 C -1.32534 -1.04135 0.405536 0
M  V30 12 H 3.22016 1.44989 1.7317 0
M  V30 13 H 3.26743 -0.15588 1.14872 0
M  V30 14 H 1.18761 1.82911 0.556615 0
M  V30 15 H 1.14193 0.631912 1.86157 0
M  V30 16 H 1.18652 -2.35126 -0.131465 0
M  V30 17 H 1.13764 -1.65885 1.46224 0
M  V30 18 H 2.16691 -0.756471 -1.87412 0
M  V30 19 H 1.28655 0.90307 -1.87901 0
M  V30 20 H 0.00732077 -1.89187 -1.82278 0
M  V30 21 H -0.550328 -0.393664 -2.64879 0
M  V30 22 H -0.368986 1.96752 -0.75337 0
M  V30 23 H -1.67985 1.09967 -1.57189 0
M  V30 24 H -2.80929 1.95039 0.22528 0
M  V30 25 H -1.51243 1.4904 1.46484 0
M  V30 26 H -2.94669 -0.351143 1.62204 0
M  V30 27 H -3.25672 -0.392056 -0.203277 0
M  V30 28 H -1.5271 -2.04282 0.0277027 0
M  V30 29 H -0.834846 -1.14012 1.41793 0
M  V30 END ATOM
M  V30 BEGIN BOND
M  V30 1 1 1 2
M  V30 2 1 2 3
M  V30 3 1 3 4
M  V30 4 1 3 5
M  V30 5 1 5 6
M  V30 6 1 6 7
M  V30 7 1 7 8
M  V30 8 1 8 9
M  V30 9 1 9 10
M  V30 10 1 10 11
M  V30 11 1 7 3
M  V30 12 1 11 7
M  V30 13 1 1 12
M  V30 14 1 1 13
M  V30 15 1 2 14
M  V30 16 1 2 15
M  V30 17 1 4 16
M  V30 18 1 4 17
M  V30 19 1 5 18
M  V30 20 1 5 19
M  V30 21 1 6 20
M  V30 22 1 6 21
M  V30 23 1 8 22
M  V30 24 1 8 23
M  V30 25 1 9 24
M  V30 26 1 9 25
M  V30 27 1 10 26
M  V30 28 1 10 27
M  V30 29 1 11 28
M  V30 30 1 11 29
M  V30 END BOND
M  V30 END CTAB
M  END
