
     RDKit          3D

  0  0  0  0  0  0  0  0  0  0999 V3000
M  V30 BEGIN CTAB
M  V30 COUNTS 27 27 0 0 0
M  V30 BEGIN ATOM
M  V30 1 N 5.20817 0.696363 -0.494293 0
M  V30 2 S 3.6175 0.168687 -0.68967 0
M  V30 3 O 3.5507 -1.08391 -1.50906 0
M  V30 4 O 2.85338 1.23214 -1.46879 0
M  V30 5 C 2.77162 -0.0931315 0.84192 0
M  V30 6 C 1.36895 -0.538084 0.606394 0
M  V30 7 S 0.83821 -2.16045 0.421072 0
M  V30 8 C -0.845332 -1.85952 0.212459 0
M  V30 9 C -0.879135 -0.493875 0.304483 0
M  V30 10 N 0.242882 0.125197 0.496945 0
M  V30 11 C -2.20359 0.247036 0.169051 0
M  V30 12 N -2.05728 1.67654 0.466118 0
M  V30 13 C -3.2108 -0.264445 1.14395 0
M  V30 14 C -2.71551 0.136875 -1.26011 0
M  V30 15 H 5.89386 0.496697 -1.20272 0
M  V30 16 H 5.46299 1.07512 0.408791 0
M  V30 17 H 2.6987 0.883812 1.3567 0
M  V30 18 H 3.26663 -0.795747 1.50065 0
M  V30 19 H -1.67525 -2.56772 0.0516368 0
M  V30 20 H -2.59424 2.22467 -0.203019 0
M  V30 21 H -2.32072 1.82191 1.44136 0
M  V30 22 H -3.253 -1.36533 1.24735 0
M  V30 23 H -3.20268 0.249006 2.10538 0
M  V30 24 H -4.2349 -0.0256887 0.705482 0
M  V30 25 H -2.09595 -0.636565 -1.76592 0
M  V30 26 H -2.72134 1.0964 -1.79598 0
M  V30 27 H -3.76386 -0.245986 -1.27479 0
M  V30 END ATOM
M  V30 BEGIN BOND
M  V30 1 1 1 2
M  V30 2 2 2 3
M  V30 3 2 2 4
M  V30 4 1 2 5
M  V30 5 1 5 6
M  V30 6 1 6 7
M  V30 7 1 7 8
M  V30 8 2 8 9
M  V30 9 1 9 10
M  V30 10 1 9 11
M  V30 11 1 11 12
M  V30 12 1 11 13
M  V30 13 1 11 14
M  V30 14 2 10 6
M  V30 15 1 1 15
M  V30 16 1 1 16
M  V30 17 1 5 17
M  V30 18 1 5 18
M  V30 19 1 8 19
M  V30 20 1 12 20
M  V30 21 1 12 21
M  V30 22 1 13 22
M  V30 23 1 13 23
M  V30 24 1 13 24
M  V30 25 1 14 25
M  V30 26 1 14 26
M  V30 27 1 14 27
M  V30 END BOND
M  V30 END CTAB
M  END
