
     RDKit          3D

  0  0  0  0  0  0  0  0  0  0999 V3000
M  V30 BEGIN CTAB
M  V30 COUNTS 18 18 0 0 0
M  V30 BEGIN ATOM
M  V30 1 O -3.18327 -0.330815 0.968065 0 CHG=-1
M  V30 2 N -2.41198 -1.00582 0.0505801 0 CHG=1
M  V30 3 O -2.98157 -1.87226 -0.63002 0
M  V30 4 C -1.04748 -0.65291 -0.039557 0
M  V30 5 C -0.0724572 -1.55191 -0.435253 0
M  V30 6 C 1.25853 -1.22039 -0.53199 0
M  V30 7 C 1.5898 0.0851347 -0.209131 0
M  V30 8 C 0.657004 1.01882 0.18983 0
M  V30 9 C -0.67863 0.645883 0.276246 0
M  V30 10 N -1.66242 1.58384 0.674507 0
M  V30 11 F 1.00215 2.29458 0.503601 0
M  V30 12 N 2.96453 0.457377 -0.302387 0
M  V30 13 H -0.408046 -2.55242 -0.668008 0
M  V30 14 H 2.03039 -1.92642 -0.838304 0
M  V30 15 H -1.62166 2.04529 1.59595 0
M  V30 16 H -2.43102 1.80241 0.0208906 0
M  V30 17 H 3.61838 0.21752 0.483363 0
M  V30 18 H 3.37775 0.962099 -1.10839 0
M  V30 END ATOM
M  V30 BEGIN BOND
M  V30 1 1 1 2
M  V30 2 2 2 3
M  V30 3 1 2 4
M  V30 4 2 4 5
M  V30 5 1 5 6
M  V30 6 2 6 7
M  V30 7 1 7 8
M  V30 8 2 8 9
M  V30 9 1 9 10
M  V30 10 1 8 11
M  V30 11 1 7 12
M  V30 12 1 9 4
M  V30 13 1 5 13
M  V30 14 1 6 14
M  V30 15 1 10 15
M  V30 16 1 10 16
M  V30 17 1 12 17
M  V30 18 1 12 18
M  V30 END BOND
M  V30 END CTAB
M  END
