
     RDKit          3D

  0  0  0  0  0  0  0  0  0  0999 V3000
M  V30 BEGIN CTAB
M  V30 COUNTS 48 49 0 0 0
M  V30 BEGIN ATOM
M  V30 1 C 2.45589 2.16876 -2.73667 0
M  V30 2 O 1.91099 1.22714 -1.84126 0
M  V30 3 C 2.64387 0.815155 -0.762053 0
M  V30 4 C 3.92189 1.31811 -0.542363 0
M  V30 5 C 4.61554 0.875145 0.551363 0
M  V30 6 C 4.07463 -0.0353372 1.40786 0
M  V30 7 C 2.79315 -0.528994 1.17341 0
M  V30 8 C 2.07086 -0.104727 0.0847085 0
M  V30 9 C 0.740402 -0.65266 -0.114062 0
M  V30 10 O 0.210423 -1.48398 0.651649 0
M  V30 11 O -0.0695483 -0.26232 -1.23717 0
M  V30 12 C -1.30272 -0.793143 -1.40777 0
M  V30 13 C -2.52906 -0.504545 -0.622438 0
M  V30 14 C -3.61096 -1.40558 -0.868091 0
M  V30 15 S -4.84013 -0.862958 0.139667 0
M  V30 16 C -4.08106 0.444224 0.856502 0
M  V30 17 C -2.80076 0.465 0.280444 0
M  V30 18 C -1.99173 1.66458 0.6461 0
M  V30 19 O -0.874766 1.91929 0.233024 0
M  V30 20 O -2.49009 2.63032 1.53645 0
M  V30 21 C -1.73387 3.77301 1.89107 0
M  V30 22 N -4.65208 1.31848 1.84372 0
M  V30 23 C -3.63666 -2.52206 -1.83991 0
M  V30 24 O -2.77479 -2.86644 -2.62205 0
M  V30 25 O -4.82999 -3.27106 -1.83906 0
M  V30 26 C -5.00849 -4.3663 -2.70692 0
M  V30 27 S 5.00745 -0.556824 2.77578 0
M  V30 28 O 4.05594 -0.888844 3.88564 0
M  V30 29 O 5.88705 0.57174 3.27117 0
M  V30 30 N 5.96637 -1.93732 2.35674 0
M  V30 31 H 1.66261 2.52658 -3.43117 0
M  V30 32 H 3.30121 1.70362 -3.27009 0
M  V30 33 H 2.85369 3.04924 -2.1554 0
M  V30 34 H 4.36377 2.04736 -1.22092 0
M  V30 35 H 5.62584 1.28688 0.704784 0
M  V30 36 H 2.39258 -1.24527 1.86559 0
M  V30 37 H -1.14784 -1.95849 -1.35986 0
M  V30 38 H -1.54796 -0.710698 -2.52731 0
M  V30 39 H -0.671812 3.53997 1.65202 0
M  V30 40 H -1.83095 4.00063 2.97846 0
M  V30 41 H -2.06224 4.68385 1.35174 0
M  V30 42 H -4.75816 1.00233 2.81217 0
M  V30 43 H -4.93552 2.26544 1.48966 0
M  V30 44 H -4.23012 -4.32125 -3.49136 0
M  V30 45 H -6.04256 -4.33704 -3.10905 0
M  V30 46 H -4.85441 -5.2848 -2.07373 0
M  V30 47 H 5.78688 -2.66604 3.05935 0
M  V30 48 H 6.96722 -1.73019 2.27962 0
M  V30 END ATOM
M  V30 BEGIN BOND
M  V30 1 1 1 2
M  V30 2 1 2 3
M  V30 3 2 3 4
M  V30 4 1 4 5
M  V30 5 2 5 6
M  V30 6 1 6 7
M  V30 7 2 7 8
M  V30 8 1 8 9
M  V30 9 2 9 10
M  V30 10 1 9 11
M  V30 11 1 11 12
M  V30 12 1 12 13
M  V30 13 2 13 14
M  V30 14 1 14 15
M  V30 15 1 15 16
M  V30 16 2 16 17
M  V30 17 1 17 18
M  V30 18 2 18 19
M  V30 19 1 18 20
M  V30 20 1 20 21
M  V30 21 1 16 22
M  V30 22 1 14 23
M  V30 23 2 23 24
M  V30 24 1 23 25
M  V30 25 1 25 26
M  V30 26 1 6 27
M  V30 27 2 27 28
M  V30 28 2 27 29
M  V30 29 1 27 30
M  V30 30 1 8 3
M  V30 31 1 17 13
M  V30 32 1 1 31
M  V30 33 1 1 32
M  V30 34 1 1 33
M  V30 35 1 4 34
M  V30 36 1 5 35
M  V30 37 1 7 36
M  V30 38 1 12 37
M  V30 39 1 12 38
M  V30 40 1 21 39
M  V30 41 1 21 40
M  V30 42 1 21 41
M  V30 43 1 22 42
M  V30 44 1 22 43
M  V30 45 1 26 44
M  V30 46 1 26 45
M  V30 47 1 26 46
M  V30 48 1 30 47
M  V30 49 1 30 48
M  V30 END BOND
M  V30 END CTAB
M  END
