
     RDKit          3D

  0  0  0  0  0  0  0  0  0  0999 V3000
M  V30 BEGIN CTAB
M  V30 COUNTS 44 45 0 0 0
M  V30 BEGIN ATOM
M  V30 1 N -6.81564 -0.99934 -0.669127 0
M  V30 2 C -6.68877 0.457008 -0.718827 0
M  V30 3 C -5.90591 0.813777 -1.98293 0
M  V30 4 C -4.54544 0.170366 -1.92564 0
M  V30 5 O -3.8452 0.640461 -0.788706 0
M  V30 6 C -2.56544 0.225178 -0.472291 0
M  V30 7 C -1.85113 -0.680921 -1.22766 0
M  V30 8 C -0.580999 -1.07596 -0.889984 0
M  V30 9 C 0.0467399 -0.555725 0.26578 0
M  V30 10 C -0.667426 0.343309 1.01154 0
M  V30 11 C -1.96812 0.737188 0.650968 0
M  V30 12 Cl -2.86428 1.89704 1.63056 0
M  V30 13 C 1.3756 -0.989742 0.592491 0
M  V30 14 O 1.88535 -1.86245 -0.248563 0
M  V30 15 N 2.25144 -0.676405 1.62798 0
M  V30 16 C 3.58142 -1.35348 1.62566 0
M  V30 17 C 4.56268 -0.545749 0.862292 0
M  V30 18 C 4.20216 0.631386 0.226381 0
M  V30 19 N 5.1289 1.34152 -0.460667 0
M  V30 20 C 6.41347 0.956214 -0.561895 0
M  V30 21 N 6.76031 -0.185215 0.0554273 0
M  V30 22 C 5.88307 -0.929798 0.750772 0
M  V30 23 N 7.37831 1.72092 -1.29296 0
M  V30 24 C 2.00627 0.235774 2.70577 0
M  V30 25 H -7.72713 -1.28061 -0.222744 0
M  V30 26 H -6.06979 -1.42805 -0.096356 0
M  V30 27 H -6.18032 0.813226 0.191192 0
M  V30 28 H -7.71263 0.857313 -0.777725 0
M  V30 29 H -6.46006 0.393865 -2.83404 0
M  V30 30 H -5.85873 1.91903 -2.00408 0
M  V30 31 H -4.69864 -0.925124 -1.85232 0
M  V30 32 H -3.97671 0.388975 -2.83225 0
M  V30 33 H -2.36078 -1.06275 -2.10999 0
M  V30 34 H -0.0565462 -1.78752 -1.50865 0
M  V30 35 H -0.318976 0.811614 1.90244 0
M  V30 36 H 3.90407 -1.45247 2.65551 0
M  V30 37 H 3.48726 -2.35273 1.17821 0
M  V30 38 H 3.16712 0.969642 0.290023 0
M  V30 39 H 6.18015 -1.86215 1.25137 0
M  V30 40 H 7.25937 1.9299 -2.28753 0
M  V30 41 H 8.23161 2.07948 -0.802963 0
M  V30 42 H 1.199 -0.0765998 3.39878 0
M  V30 43 H 2.90475 0.309967 3.39066 0
M  V30 44 H 1.90959 1.26171 2.30412 0
M  V30 END ATOM
M  V30 BEGIN BOND
M  V30 1 1 1 2
M  V30 2 1 2 3
M  V30 3 1 3 4
M  V30 4 1 4 5
M  V30 5 1 5 6
M  V30 6 2 6 7
M  V30 7 1 7 8
M  V30 8 2 8 9
M  V30 9 1 9 10
M  V30 10 2 10 11
M  V30 11 1 11 12
M  V30 12 1 9 13
M  V30 13 2 13 14
M  V30 14 1 13 15
M  V30 15 1 15 16
M  V30 16 1 16 17
M  V30 17 2 17 18
M  V30 18 1 18 19
M  V30 19 2 19 20
M  V30 20 1 20 21
M  V30 21 2 21 22
M  V30 22 1 20 23
M  V30 23 1 15 24
M  V30 24 1 11 6
M  V30 25 1 22 17
M  V30 26 1 1 25
M  V30 27 1 1 26
M  V30 28 1 2 27
M  V30 29 1 2 28
M  V30 30 1 3 29
M  V30 31 1 3 30
M  V30 32 1 4 31
M  V30 33 1 4 32
M  V30 34 1 7 33
M  V30 35 1 8 34
M  V30 36 1 10 35
M  V30 37 1 16 36
M  V30 38 1 16 37
M  V30 39 1 18 38
M  V30 40 1 22 39
M  V30 41 1 23 40
M  V30 42 1 23 41
M  V30 43 1 24 42
M  V30 44 1 24 43
M  V30 45 1 24 44
M  V30 END BOND
M  V30 END CTAB
M  END
