
     RDKit          3D

  0  0  0  0  0  0  0  0  0  0999 V3000
M  V30 BEGIN CTAB
M  V30 COUNTS 17 18 0 0 0
M  V30 BEGIN ATOM
M  V30 1 N -0.888296 1.58161 -0.130598 0
M  V30 2 N -0.825122 0.20287 0.0277524 0
M  V30 3 C -1.89392 -0.617965 0.186234 0
M  V30 4 N -3.23582 -0.164239 0.210826 0
M  V30 5 N -1.4185 -1.86127 0.304728 0
M  V30 6 N -0.117694 -1.81412 0.223694 0
M  V30 7 C 0.263149 -0.554204 0.0535533 0
M  V30 8 C 1.66944 -0.136788 -0.0770651 0
M  V30 9 C 2.79458 -0.918451 -0.0504797 0
M  V30 10 N 3.93369 -0.320166 -0.186827 0
M  V30 11 N 3.97884 0.969356 -0.340947 0
M  V30 12 S 2.35563 1.41021 -0.298611 0
M  V30 13 H -1.66997 2.01281 -0.680872 0
M  V30 14 H -0.181732 2.20001 0.281348 0
M  V30 15 H -3.84355 -0.223091 1.04804 0
M  V30 16 H -3.63162 0.248621 -0.653963 0
M  V30 17 H 2.71089 -2.01518 0.0831837 0
M  V30 END ATOM
M  V30 BEGIN BOND
M  V30 1 1 1 2
M  V30 2 1 2 3
M  V30 3 1 3 4
M  V30 4 2 3 5
M  V30 5 1 5 6
M  V30 6 2 6 7
M  V30 7 1 7 8
M  V30 8 2 8 9
M  V30 9 1 9 10
M  V30 10 2 10 11
M  V30 11 1 11 12
M  V30 12 1 7 2
M  V30 13 1 12 8
M  V30 14 1 1 13
M  V30 15 1 1 14
M  V30 16 1 4 15
M  V30 17 1 4 16
M  V30 18 1 9 17
M  V30 END BOND
M  V30 END CTAB
M  END
