
     RDKit          3D

  0  0  0  0  0  0  0  0  0  0999 V3000
M  V30 BEGIN CTAB
M  V30 COUNTS 27 27 0 0 0
M  V30 BEGIN ATOM
M  V30 1 N -0.663734 1.67779 -1.59131 0
M  V30 2 C -0.679297 0.917575 -0.37942 0 CFG=2
M  V30 3 C 0.584265 0.169121 -0.287396 0
M  V30 4 C 1.11103 -0.511404 -1.35775 0
M  V30 5 C 2.31676 -1.20964 -1.22188 0
M  V30 6 C 2.97907 -1.21707 -0.015623 0
M  V30 7 C 2.41415 -0.517502 1.04127 0
M  V30 8 N 1.25206 0.143418 0.874072 0
M  V30 9 N 3.06308 -0.502107 2.29142 0
M  V30 10 C -1.89701 0.0346397 -0.303361 0
M  V30 11 C -1.86602 -0.744519 0.990829 0
M  V30 12 C -3.10928 0.947508 -0.272729 0
M  V30 13 H -0.735525 2.68773 -1.41657 0
M  V30 14 H 0.127974 1.45704 -2.19174 0
M  V30 15 H -0.75695 1.63384 0.481435 0
M  V30 16 H 0.617445 -0.527306 -2.32124 0
M  V30 17 H 2.74895 -1.75228 -2.0528 0
M  V30 18 H 3.91639 -1.74379 0.138423 0
M  V30 19 H 3.66877 0.287607 2.54361 0
M  V30 20 H 2.92851 -1.28089 2.94708 0
M  V30 21 H -1.99965 -0.654122 -1.15526 0
M  V30 22 H -1.15599 -0.337926 1.72443 0
M  V30 23 H -2.87367 -0.708728 1.49387 0
M  V30 24 H -1.67521 -1.83926 0.796868 0
M  V30 25 H -3.79423 0.752419 -1.11878 0
M  V30 26 H -2.8379 2.01468 -0.320897 0
M  V30 27 H -3.68399 0.823182 0.683455 0
M  V30 END ATOM
M  V30 BEGIN BOND
M  V30 1 1 1 2
M  V30 2 1 2 3
M  V30 3 2 3 4
M  V30 4 1 4 5
M  V30 5 2 5 6
M  V30 6 1 6 7
M  V30 7 2 7 8
M  V30 8 1 7 9
M  V30 9 1 2 10
M  V30 10 1 10 11
M  V30 11 1 10 12
M  V30 12 1 8 3
M  V30 13 1 1 13
M  V30 14 1 1 14
M  V30 15 1 2 15 CFG=1
M  V30 16 1 4 16
M  V30 17 1 5 17
M  V30 18 1 6 18
M  V30 19 1 9 19
M  V30 20 1 9 20
M  V30 21 1 10 21
M  V30 22 1 11 22
M  V30 23 1 11 23
M  V30 24 1 11 24
M  V30 25 1 12 25
M  V30 26 1 12 26
M  V30 27 1 12 27
M  V30 END BOND
M  V30 END CTAB
M  END
