
     RDKit          3D

  0  0  0  0  0  0  0  0  0  0999 V3000
M  V30 BEGIN CTAB
M  V30 COUNTS 24 24 0 0 0
M  V30 BEGIN ATOM
M  V30 1 C -3.94099 -0.154768 0.336852 0
M  V30 2 C -3.05498 -0.656792 -0.807675 0
M  V30 3 O -1.7307 -0.352779 -0.455763 0
M  V30 4 C -0.631246 -0.637708 -1.21472 0
M  V30 5 O -0.774188 -1.21181 -2.31159 0
M  V30 6 C 0.701369 -0.274158 -0.747852 0
M  V30 7 C 1.82782 -0.550687 -1.49518 0
M  V30 8 N 3.06693 -0.223186 -1.08158 0
M  V30 9 C 3.28367 0.397358 0.0925905 0
M  V30 10 C 2.17643 0.686887 0.861827 0
M  V30 11 C 0.896957 0.36118 0.459126 0
M  V30 12 N -0.255227 0.649175 1.23359 0
M  V30 13 N 4.61249 0.742663 0.524619 0
M  V30 14 H -3.46928 -0.476968 1.28572 0
M  V30 15 H -4.94624 -0.576436 0.29996 0
M  V30 16 H -4.01143 0.953838 0.295192 0
M  V30 17 H -3.36502 -0.244015 -1.77095 0
M  V30 18 H -3.1428 -1.77523 -0.81594 0
M  V30 19 H 1.72178 -1.0483 -2.44917 0
M  V30 20 H 2.27949 1.18479 1.8169 0
M  V30 21 H -0.698459 1.59005 1.30341 0
M  V30 22 H -0.699307 -0.120611 1.77412 0
M  V30 23 H 5.17369 0.0331511 1.00722 0
M  V30 24 H 4.97925 1.70436 0.339838 0
M  V30 END ATOM
M  V30 BEGIN BOND
M  V30 1 1 1 2
M  V30 2 1 2 3
M  V30 3 1 3 4
M  V30 4 2 4 5
M  V30 5 1 4 6
M  V30 6 2 6 7
M  V30 7 1 7 8
M  V30 8 2 8 9
M  V30 9 1 9 10
M  V30 10 2 10 11
M  V30 11 1 11 12
M  V30 12 1 9 13
M  V30 13 1 11 6
M  V30 14 1 1 14
M  V30 15 1 1 15
M  V30 16 1 1 16
M  V30 17 1 2 17
M  V30 18 1 2 18
M  V30 19 1 7 19
M  V30 20 1 10 20
M  V30 21 1 12 21
M  V30 22 1 12 22
M  V30 23 1 13 23
M  V30 24 1 13 24
M  V30 END BOND
M  V30 END CTAB
M  END
