
     RDKit          3D

  0  0  0  0  0  0  0  0  0  0999 V3000
M  V30 BEGIN CTAB
M  V30 COUNTS 44 44 0 0 0
M  V30 BEGIN ATOM
M  V30 1 N -1.39467 -1.65759 2.0768 0
M  V30 2 C -2.30448 -0.799333 2.76022 0
M  V30 3 C -2.75063 0.415729 1.96438 0
M  V30 4 N -1.61145 1.13644 1.60607 0
M  V30 5 C -0.523756 1.82538 1.26402 0
M  V30 6 O -0.287419 3.05624 1.27103 0
M  V30 7 C 0.720448 1.05162 0.747365 0
M  V30 8 C 1.7273 2.02798 0.21442 0
M  V30 9 N 2.91592 1.29903 -0.251629 0
M  V30 10 N 3.95501 1.07008 0.52724 0
M  V30 11 C 4.88889 0.35427 -0.150436 0
M  V30 12 C 4.35433 0.145603 -1.42172 0
M  V30 13 C 3.10687 0.753525 -1.46268 0
M  V30 14 S 5.15989 -0.744847 -2.66724 0
M  V30 15 O 4.12376 -1.6061 -3.3865 0
M  V30 16 O 6.11608 -1.75605 -2.03554 0
M  V30 17 N 6.06532 0.182435 -3.75854 0
M  V30 18 C -3.81794 0.200039 0.992921 0
M  V30 19 C -3.74961 -0.729715 -0.13575 0
M  V30 20 C -2.6408 -0.532215 -1.12607 0
M  V30 21 C -4.11095 -2.17255 0.118235 0
M  V30 22 H -1.68204 -2.64965 1.97719 0
M  V30 23 H -0.404078 -1.54197 2.36606 0
M  V30 24 H -3.21814 -1.40432 3.00422 0
M  V30 25 H -1.86543 -0.458635 3.75405 0
M  V30 26 H -3.31591 1.02379 2.81667 0
M  V30 27 H -2.28273 2.29236 1.81089 0
M  V30 28 H 0.408797 0.401628 -0.0646371 0
M  V30 29 H 1.12158 0.455303 1.57697 0
M  V30 30 H 1.98723 2.84778 0.913753 0
M  V30 31 H 1.30373 2.55411 -0.697773 0
M  V30 32 H 5.83789 0.0247138 0.24158 0
M  V30 33 H 2.45969 0.766681 -2.29761 0
M  V30 34 H 6.77436 -0.375002 -4.26187 0
M  V30 35 H 6.37577 1.06459 -3.33984 0
M  V30 36 H -4.18557 1.21443 0.588553 0
M  V30 37 H -4.74869 -0.1051 1.59131 0
M  V30 38 H -4.68784 -0.394651 -0.783437 0
M  V30 39 H -2.98047 -0.606306 -2.19257 0
M  V30 40 H -1.89147 -1.38044 -1.04849 0
M  V30 41 H -2.16181 0.459904 -1.02677 0
M  V30 42 H -4.79714 -2.2469 0.987562 0
M  V30 43 H -3.25168 -2.86367 0.148227 0
M  V30 44 H -4.73814 -2.59862 -0.735101 0
M  V30 END ATOM
M  V30 BEGIN BOND
M  V30 1 1 1 2
M  V30 2 1 2 3
M  V30 3 1 3 4
M  V30 4 1 4 5
M  V30 5 2 5 6
M  V30 6 1 5 7
M  V30 7 1 7 8
M  V30 8 1 8 9
M  V30 9 1 9 10
M  V30 10 2 10 11
M  V30 11 1 11 12
M  V30 12 2 12 13
M  V30 13 1 12 14
M  V30 14 2 14 15
M  V30 15 2 14 16
M  V30 16 1 14 17
M  V30 17 1 3 18
M  V30 18 1 18 19
M  V30 19 1 19 20
M  V30 20 1 19 21
M  V30 21 1 13 9
M  V30 22 1 1 22
M  V30 23 1 1 23
M  V30 24 1 2 24
M  V30 25 1 2 25
M  V30 26 1 3 26
M  V30 27 1 4 27
M  V30 28 1 7 28
M  V30 29 1 7 29
M  V30 30 1 8 30
M  V30 31 1 8 31
M  V30 32 1 11 32
M  V30 33 1 13 33
M  V30 34 1 17 34
M  V30 35 1 17 35
M  V30 36 1 18 36
M  V30 37 1 18 37
M  V30 38 1 19 38
M  V30 39 1 20 39
M  V30 40 1 20 40
M  V30 41 1 20 41
M  V30 42 1 21 42
M  V30 43 1 21 43
M  V30 44 1 21 44
M  V30 END BOND
M  V30 END CTAB
M  END
