
     RDKit          3D

  0  0  0  0  0  0  0  0  0  0999 V3000
M  V30 BEGIN CTAB
M  V30 COUNTS 44 46 0 0 0
M  V30 BEGIN ATOM
M  V30 1 C -6.18413 -1.81773 1.21417 0
M  V30 2 O -5.72605 -1.01467 0.141657 0
M  V30 3 C -4.38438 -0.667867 0.092744 0
M  V30 4 C -3.8869 0.116518 -0.936571 0
M  V30 5 C -2.5334 0.4645 -0.982789 0
M  V30 6 C -1.6817 0.0301276 -0.00484578 0
M  V30 7 C -2.18321 -0.748563 1.01439 0
M  V30 8 C -3.50918 -1.10094 1.07713 0
M  V30 9 N -0.246523 0.38204 -0.0267669 0
M  V30 10 C 0.616422 -0.67875 -0.246558 0
M  V30 11 O 0.00323849 -1.86512 -0.415938 0
M  V30 12 C 2.03506 -0.829689 -0.340652 0
M  V30 13 C 2.91813 0.199176 -0.187708 0
M  V30 14 C 4.31504 0.0416524 -0.271382 0
M  V30 15 C 4.83871 -1.18903 -0.516322 0
M  V30 16 C 3.96759 -2.22812 -0.671951 0
M  V30 17 C 2.5999 -2.09388 -0.593918 0
M  V30 18 N 1.77434 -3.24491 -0.7736 0
M  V30 19 N 6.26635 -1.40093 -0.609272 0
M  V30 20 C 0.0513557 1.72875 0.170433 0
M  V30 21 C 0.225406 2.29385 1.43821 0
M  V30 22 C 0.466461 3.62509 1.63479 0
M  V30 23 C 0.538463 4.43386 0.528494 0
M  V30 24 C 0.370147 3.9058 -0.756001 0
M  V30 25 C 0.12904 2.57248 -0.944576 0
M  V30 26 H -7.28629 -1.93029 1.17148 0
M  V30 27 H -5.7671 -2.84172 1.18511 0
M  V30 28 H -5.92453 -1.30478 2.18134 0
M  V30 29 H -4.5725 0.451256 -1.70142 0
M  V30 30 H -2.17754 1.07016 -1.78827 0
M  V30 31 H -1.5123 -1.09578 1.79522 0
M  V30 32 H -3.88184 -1.7188 1.89564 0
M  V30 33 H 2.60016 1.21295 0.0113214 0
M  V30 34 H 4.97582 0.87991 -0.144315 0
M  V30 35 H 4.36128 -3.21901 -0.86737 0
M  V30 36 H 1.48118 -3.56822 -1.71521 0
M  V30 37 H 1.44415 -3.79506 0.0379112 0
M  V30 38 H 6.80566 -1.42502 0.292765 0
M  V30 39 H 6.75343 -1.52443 -1.50259 0
M  V30 40 H 0.164423 1.64484 2.2914 0
M  V30 41 H 0.60364 4.07578 2.61226 0
M  V30 42 H 0.727905 5.48438 0.669882 0
M  V30 43 H 0.429867 4.55744 -1.61947 0
M  V30 44 H -0.0055973 2.13276 -1.93733 0
M  V30 END ATOM
M  V30 BEGIN BOND
M  V30 1 1 1 2
M  V30 2 1 2 3
M  V30 3 2 3 4
M  V30 4 1 4 5
M  V30 5 2 5 6
M  V30 6 1 6 7
M  V30 7 2 7 8
M  V30 8 1 6 9
M  V30 9 1 9 10
M  V30 10 2 10 11
M  V30 11 1 10 12
M  V30 12 2 12 13
M  V30 13 1 13 14
M  V30 14 2 14 15
M  V30 15 1 15 16
M  V30 16 2 16 17
M  V30 17 1 17 18
M  V30 18 1 15 19
M  V30 19 1 9 20
M  V30 20 2 20 21
M  V30 21 1 21 22
M  V30 22 2 22 23
M  V30 23 1 23 24
M  V30 24 2 24 25
M  V30 25 1 8 3
M  V30 26 1 17 12
M  V30 27 1 25 20
M  V30 28 1 1 26
M  V30 29 1 1 27
M  V30 30 1 1 28
M  V30 31 1 4 29
M  V30 32 1 5 30
M  V30 33 1 7 31
M  V30 34 1 8 32
M  V30 35 1 13 33
M  V30 36 1 14 34
M  V30 37 1 16 35
M  V30 38 1 18 36
M  V30 39 1 18 37
M  V30 40 1 19 38
M  V30 41 1 19 39
M  V30 42 1 21 40
M  V30 43 1 22 41
M  V30 44 1 23 42
M  V30 45 1 24 43
M  V30 46 1 25 44
M  V30 END BOND
M  V30 END CTAB
M  END
