
     RDKit          3D

  0  0  0  0  0  0  0  0  0  0999 V3000
M  V30 BEGIN CTAB
M  V30 COUNTS 41 42 0 0 0
M  V30 BEGIN ATOM
M  V30 1 N 4.74116 0.311366 1.05923 0
M  V30 2 C 3.7132 -0.393338 0.296379 0
M  V30 3 C 3.28369 0.4307 -0.906572 0
M  V30 4 C 2.00426 1.17083 -0.629435 0
M  V30 5 C 0.834164 0.199369 -0.456054 0
M  V30 6 C -0.319173 0.987333 0.0569836 0
M  V30 7 C -1.5681 0.207788 0.291905 0
M  V30 8 C -2.61928 1.19822 0.812666 0
M  V30 9 C -3.87642 0.473042 1.22339 0
M  V30 10 C -4.46251 -0.143673 -0.0377433 0
M  V30 11 C -3.42101 -1.11682 -0.562971 0
M  V30 12 C -2.14004 -0.399099 -0.957728 0
M  V30 13 C 1.26269 -0.938915 0.402278 0
M  V30 14 N 1.52415 -2.14165 -0.386288 0
M  V30 15 C 2.53527 -0.661433 1.18138 0
M  V30 16 H 4.35191 0.855372 1.84111 0
M  V30 17 H 5.30939 0.842589 0.383277 0
M  V30 18 H 4.20178 -1.3102 -0.0917229 0
M  V30 19 H 4.07122 1.17327 -1.08029 0
M  V30 20 H 3.17984 -0.167489 -1.82117 0
M  V30 21 H 2.06731 1.73942 0.315748 0
M  V30 22 H 1.82416 1.89007 -1.44099 0
M  V30 23 H 0.60173 -0.169864 -1.48806 0
M  V30 24 H -0.0195185 1.43559 1.03832 0
M  V30 25 H -0.524323 1.8069 -0.64941 0
M  V30 26 H -1.42945 -0.52318 1.10201 0
M  V30 27 H -2.19789 1.83961 1.58856 0
M  V30 28 H -2.87978 1.83346 -0.0609294 0
M  V30 29 H -4.58321 1.20894 1.60453 0
M  V30 30 H -3.68112 -0.340352 1.94318 0
M  V30 31 H -5.36539 -0.721749 0.173774 0
M  V30 32 H -4.63452 0.63345 -0.806292 0
M  V30 33 H -3.80637 -1.67196 -1.44419 0
M  V30 34 H -3.17162 -1.8239 0.246466 0
M  V30 35 H -1.48724 -1.14699 -1.42633 0
M  V30 36 H -2.31496 0.402278 -1.67908 0
M  V30 37 H 0.492102 -1.19939 1.12663 0
M  V30 38 H 0.859229 -2.08626 -1.20883 0
M  V30 39 H 2.4824 -2.19455 -0.742189 0
M  V30 40 H 2.75712 -1.61729 1.73914 0
M  V30 41 H 2.40513 0.128502 1.93847 0
M  V30 END ATOM
M  V30 BEGIN BOND
M  V30 1 1 1 2
M  V30 2 1 2 3
M  V30 3 1 3 4
M  V30 4 1 4 5
M  V30 5 1 5 6
M  V30 6 1 6 7
M  V30 7 1 7 8
M  V30 8 1 8 9
M  V30 9 1 9 10
M  V30 10 1 10 11
M  V30 11 1 11 12
M  V30 12 1 5 13
M  V30 13 1 13 14
M  V30 14 1 13 15
M  V30 15 1 15 2
M  V30 16 1 12 7
M  V30 17 1 1 16
M  V30 18 1 1 17
M  V30 19 1 2 18
M  V30 20 1 3 19
M  V30 21 1 3 20
M  V30 22 1 4 21
M  V30 23 1 4 22
M  V30 24 1 5 23
M  V30 25 1 6 24
M  V30 26 1 6 25
M  V30 27 1 7 26
M  V30 28 1 8 27
M  V30 29 1 8 28
M  V30 30 1 9 29
M  V30 31 1 9 30
M  V30 32 1 10 31
M  V30 33 1 10 32
M  V30 34 1 11 33
M  V30 35 1 11 34
M  V30 36 1 12 35
M  V30 37 1 12 36
M  V30 38 1 13 37
M  V30 39 1 14 38
M  V30 40 1 14 39
M  V30 41 1 15 40
M  V30 42 1 15 41
M  V30 END BOND
M  V30 END CTAB
M  END
