
     RDKit          3D

  0  0  0  0  0  0  0  0  0  0999 V3000
M  V30 BEGIN CTAB
M  V30 COUNTS 32 34 0 0 0
M  V30 BEGIN ATOM
M  V30 1 N -6.01179 0.469419 2.17637 0
M  V30 2 N -4.63969 0.44278 2.02881 0
M  V30 3 C -4.0686 0.127438 0.792701 0
M  V30 4 O -4.80235 -0.132418 -0.186706 0
M  V30 5 C -2.59623 0.0970229 0.627345 0
M  V30 6 C -1.87005 -0.191243 -0.509351 0
M  V30 7 N -2.63901 -0.510976 -1.71942 0
M  V30 8 C -0.517446 -0.15251 -0.403721 0
M  V30 9 C -0.017659 0.172261 0.83409 0
M  V30 10 S -1.40846 0.407402 1.78723 0
M  V30 11 N 1.31571 0.263087 1.14157 0
M  V30 12 C 2.24467 0.0307995 0.214556 0
M  V30 13 C 1.79197 -0.292802 -1.02026 0
M  V30 14 C 0.45408 -0.40347 -1.4042 0
M  V30 15 C 0.158196 -0.766726 -2.79697 0
M  V30 16 F 1.41372 -0.929953 -3.46717 0
M  V30 17 F -0.386609 -2.02076 -2.97032 0
M  V30 18 F -0.407803 0.224431 -3.55843 0
M  V30 19 C 3.68735 0.110244 0.474561 0
M  V30 20 C 4.2973 0.423095 1.66294 0
M  V30 21 C 5.63205 0.439884 1.68452 0
M  V30 22 C 6.28558 0.142882 0.51638 0
M  V30 23 S 5.00804 -0.149632 -0.57182 0
M  V30 24 H -6.52244 0.500812 1.25259 0
M  V30 25 H -6.32382 1.33378 2.69023 0
M  V30 26 H -4.03632 0.657501 2.83808 0
M  V30 27 H -2.93975 0.23257 -2.37941 0
M  V30 28 H -2.92525 -1.48519 -1.93719 0
M  V30 29 H 2.54441 -0.486399 -1.79218 0
M  V30 30 H 3.67511 0.650396 2.56089 0
M  V30 31 H 6.22359 0.681737 2.59932 0
M  V30 32 H 7.38149 0.114546 0.371427 0
M  V30 END ATOM
M  V30 BEGIN BOND
M  V30 1 1 1 2
M  V30 2 1 2 3
M  V30 3 2 3 4
M  V30 4 1 3 5
M  V30 5 2 5 6
M  V30 6 1 6 7
M  V30 7 1 6 8
M  V30 8 2 8 9
M  V30 9 1 9 10
M  V30 10 1 9 11
M  V30 11 2 11 12
M  V30 12 1 12 13
M  V30 13 2 13 14
M  V30 14 1 14 15
M  V30 15 1 15 16
M  V30 16 1 15 17
M  V30 17 1 15 18
M  V30 18 1 12 19
M  V30 19 2 19 20
M  V30 20 1 20 21
M  V30 21 2 21 22
M  V30 22 1 22 23
M  V30 23 1 10 5
M  V30 24 1 23 19
M  V30 25 1 14 8
M  V30 26 1 1 24
M  V30 27 1 1 25
M  V30 28 1 2 26
M  V30 29 1 7 27
M  V30 30 1 7 28
M  V30 31 1 13 29
M  V30 32 1 20 30
M  V30 33 1 21 31
M  V30 34 1 22 32
M  V30 END BOND
M  V30 END CTAB
M  END
