
     RDKit          3D

  0  0  0  0  0  0  0  0  0  0999 V3000
M  V30 BEGIN CTAB
M  V30 COUNTS 20 20 0 0 0
M  V30 BEGIN ATOM
M  V30 1 C -2.81523 0.632706 -0.356938 0
M  V30 2 N -1.86089 -0.465386 -0.550534 0
M  V30 3 C -0.478293 -0.268179 -0.324817 0
M  V30 4 C 0.0523759 -0.49688 0.930958 0
M  V30 5 N -0.788566 -0.926223 1.98204 0
M  V30 6 N 1.38865 -0.299528 1.12316 0
M  V30 7 C 2.16162 0.109399 0.102174 0
M  V30 8 N 3.57304 0.316704 0.309566 0
M  V30 9 N 1.61986 0.325376 -1.11262 0
M  V30 10 C 0.32776 0.153877 -1.37272 0
M  V30 11 O -0.214016 0.344746 -2.4911 0
M  V30 12 H -2.29883 1.55437 -0.756767 0
M  V30 13 H -3.72029 0.419908 -0.953839 0
M  V30 14 H -2.9994 0.803831 0.707205 0
M  V30 15 H -2.19637 -1.40126 -0.856695 0
M  V30 16 H -1.09065 -1.91531 1.9799 0
M  V30 17 H -1.09829 -0.288085 2.73131 0
M  V30 18 H 4.06565 1.14815 -0.0689412 0
M  V30 19 H 4.11546 -0.390743 0.856804 0
M  V30 20 H 2.25641 0.642532 -1.87815 0
M  V30 END ATOM
M  V30 BEGIN BOND
M  V30 1 1 1 2
M  V30 2 1 2 3
M  V30 3 2 3 4
M  V30 4 1 4 5
M  V30 5 1 4 6
M  V30 6 2 6 7
M  V30 7 1 7 8
M  V30 8 1 7 9
M  V30 9 1 9 10
M  V30 10 2 10 11
M  V30 11 1 10 3
M  V30 12 1 1 12
M  V30 13 1 1 13
M  V30 14 1 1 14
M  V30 15 1 2 15
M  V30 16 1 5 16
M  V30 17 1 5 17
M  V30 18 1 8 18
M  V30 19 1 8 19
M  V30 20 1 9 20
M  V30 END BOND
M  V30 END CTAB
M  END
