
     RDKit          3D

  0  0  0  0  0  0  0  0  0  0999 V3000
M  V30 BEGIN CTAB
M  V30 COUNTS 19 19 0 0 0
M  V30 BEGIN ATOM
M  V30 1 N 2.28558 -1.33285 -0.333577 0
M  V30 2 C 1.34865 -0.303754 -0.0835744 0
M  V30 3 C 1.7142 0.996108 0.209648 0
M  V30 4 C 0.778328 1.98227 0.44974 0
M  V30 5 Br 1.36564 3.75014 0.847251 0
M  V30 6 C -0.566086 1.66867 0.397257 0
M  V30 7 C -0.98162 0.399099 0.111722 0
M  V30 8 C -0.0209106 -0.561756 -0.122915 0
M  V30 9 N -0.390935 -1.89418 -0.423424 0
M  V30 10 C -2.42225 0.0150175 0.0445166 0
M  V30 11 F -3.07704 0.224819 1.21414 0
M  V30 12 F -2.96074 0.759872 -1.00745 0
M  V30 13 F -2.57185 -1.30936 -0.317062 0
M  V30 14 F -1.52009 2.61887 0.62936 0
M  V30 15 H 2.0715 -2.33005 -0.168058 0
M  V30 16 H 3.22474 -1.08328 -0.696864 0
M  V30 17 H 2.78281 1.20535 0.242197 0
M  V30 18 H -0.5292 -2.54527 0.380305 0
M  V30 19 H -0.530728 -2.25973 -1.3732 0
M  V30 END ATOM
M  V30 BEGIN BOND
M  V30 1 1 1 2
M  V30 2 2 2 3
M  V30 3 1 3 4
M  V30 4 1 4 5
M  V30 5 2 4 6
M  V30 6 1 6 7
M  V30 7 2 7 8
M  V30 8 1 8 9
M  V30 9 1 7 10
M  V30 10 1 10 11
M  V30 11 1 10 12
M  V30 12 1 10 13
M  V30 13 1 6 14
M  V30 14 1 8 2
M  V30 15 1 1 15
M  V30 16 1 1 16
M  V30 17 1 3 17
M  V30 18 1 9 18
M  V30 19 1 9 19
M  V30 END BOND
M  V30 END CTAB
M  END
