
     RDKit          3D

  0  0  0  0  0  0  0  0  0  0999 V3000
M  V30 BEGIN CTAB
M  V30 COUNTS 30 31 0 0 0
M  V30 BEGIN ATOM
M  V30 1 N 2.32409 -3.52685 -1.381 0
M  V30 2 C 2.22638 -2.48781 -0.88729 0
M  V30 3 C 2.12385 -1.20985 -0.270425 0
M  V30 4 C 3.14559 -0.291623 -0.444009 0
M  V30 5 N 4.28865 -0.595413 -1.22114 0
M  V30 6 C 3.03132 0.939356 0.158921 0
M  V30 7 C 1.90917 1.20514 0.907292 0
M  V30 8 N 0.943203 0.290653 1.05101 0
M  V30 9 C 1.00939 -0.922995 0.482478 0
M  V30 10 S -0.253861 -2.16736 0.650103 0
M  V30 11 C -1.48287 -2.02873 -0.673948 0
M  V30 12 C -2.26341 -0.757628 -0.56686 0
M  V30 13 C -3.44889 -0.707581 0.161383 0
M  V30 14 C -4.19172 0.420743 0.288972 0
M  V30 15 C -3.77105 1.58026 -0.321697 0
M  V30 16 C -2.60417 1.58019 -1.05328 0
M  V30 17 C -1.86598 0.420615 -1.16875 0
M  V30 18 F -2.20522 2.73094 -1.64663 0
M  V30 19 N 1.7681 2.48762 1.54859 0
M  V30 20 H 4.22606 -0.82087 -2.22307 0
M  V30 21 H 5.21505 -0.588899 -0.760535 0
M  V30 22 H 3.80277 1.70396 0.0585612 0
M  V30 23 H -0.973158 -2.09145 -1.66648 0
M  V30 24 H -2.19461 -2.87293 -0.558838 0
M  V30 25 H -3.7676 -1.62639 0.636808 0
M  V30 26 H -5.10635 0.44855 0.853698 0
M  V30 27 H -4.35924 2.50543 -0.230378 0
M  V30 28 H -0.953167 0.422578 -1.74087 0
M  V30 29 H 1.79667 2.60344 2.58512 0
M  V30 30 H 1.63101 3.35691 0.986733 0
M  V30 END ATOM
M  V30 BEGIN BOND
M  V30 1 3 1 2
M  V30 2 1 2 3
M  V30 3 2 3 4
M  V30 4 1 4 5
M  V30 5 1 4 6
M  V30 6 2 6 7
M  V30 7 1 7 8
M  V30 8 2 8 9
M  V30 9 1 9 10
M  V30 10 1 10 11
M  V30 11 1 11 12
M  V30 12 2 12 13
M  V30 13 1 13 14
M  V30 14 2 14 15
M  V30 15 1 15 16
M  V30 16 2 16 17
M  V30 17 1 16 18
M  V30 18 1 7 19
M  V30 19 1 9 3
M  V30 20 1 17 12
M  V30 21 1 5 20
M  V30 22 1 5 21
M  V30 23 1 6 22
M  V30 24 1 11 23
M  V30 25 1 11 24
M  V30 26 1 13 25
M  V30 27 1 14 26
M  V30 28 1 15 27
M  V30 29 1 17 28
M  V30 30 1 19 29
M  V30 31 1 19 30
M  V30 END BOND
M  V30 END CTAB
M  END
