
     RDKit          3D

  0  0  0  0  0  0  0  0  0  0999 V3000
M  V30 BEGIN CTAB
M  V30 COUNTS 23 23 0 0 0
M  V30 BEGIN ATOM
M  V30 1 C 3.35399 -0.931869 -0.499587 0
M  V30 2 S 2.21763 -1.03656 0.887486 0
M  V30 3 C 0.509718 -0.935658 0.38312 0
M  V30 4 C -0.236085 -2.06272 0.0566095 0
M  V30 5 C -1.56076 -1.9113 -0.327958 0
M  V30 6 C -2.16379 -0.6732 -0.39694 0
M  V30 7 C -1.41499 0.434191 -0.0713101 0
M  V30 8 C -0.0821413 0.303214 0.317567 0
M  V30 9 S 0.85778 1.71359 0.728074 0
M  V30 10 O 2.03264 1.89127 -0.206691 0
M  V30 11 O 1.42956 1.60105 2.11195 0
M  V30 12 N -0.12852 3.1217 0.559294 0
M  V30 13 N -3.52166 -0.548577 -0.793877 0
M  V30 14 H 3.8593 -1.91877 -0.594797 0
M  V30 15 H 2.90149 -0.589219 -1.43353 0
M  V30 16 H 4.17248 -0.21087 -0.233369 0
M  V30 17 H 0.239451 -3.01177 0.113496 0
M  V30 18 H -2.15171 -2.77467 -0.583958 0
M  V30 19 H -1.85856 1.44133 -0.113282 0
M  V30 20 H -0.838656 3.09358 1.31572 0
M  V30 21 H 0.437888 3.97451 0.648065 0
M  V30 22 H -4.02359 -1.28389 -1.32928 0
M  V30 23 H -4.03147 0.314631 -0.536799 0
M  V30 END ATOM
M  V30 BEGIN BOND
M  V30 1 1 1 2
M  V30 2 1 2 3
M  V30 3 2 3 4
M  V30 4 1 4 5
M  V30 5 2 5 6
M  V30 6 1 6 7
M  V30 7 2 7 8
M  V30 8 1 8 9
M  V30 9 2 9 10
M  V30 10 2 9 11
M  V30 11 1 9 12
M  V30 12 1 6 13
M  V30 13 1 8 3
M  V30 14 1 1 14
M  V30 15 1 1 15
M  V30 16 1 1 16
M  V30 17 1 4 17
M  V30 18 1 5 18
M  V30 19 1 7 19
M  V30 20 1 12 20
M  V30 21 1 12 21
M  V30 22 1 13 22
M  V30 23 1 13 23
M  V30 END BOND
M  V30 END CTAB
M  END
