
     RDKit          3D

  0  0  0  0  0  0  0  0  0  0999 V3000
M  V30 BEGIN CTAB
M  V30 COUNTS 49 50 0 0 0
M  V30 BEGIN ATOM
M  V30 1 N 1.98737 -3.00911 1.40429 0
M  V30 2 C 0.951131 -2.05566 1.13146 0
M  V30 3 C 1.362 -0.664258 0.815764 0
M  V30 4 C 2.18243 -0.450295 -0.408301 0
M  V30 5 C 2.62318 1.00057 -0.50998 0
M  V30 6 C 4.0215 1.23849 0.0234853 0
M  V30 7 C 4.96941 0.301791 -0.662943 0
M  V30 8 C 4.58498 -1.10663 -0.163684 0
M  V30 9 C 3.22453 -1.40728 -0.74816 0
M  V30 10 N 0.11112 0.081475 0.849772 0
M  V30 11 C -0.547478 0.829799 -0.0732784 0
M  V30 12 O -0.285539 1.10833 -1.28208 0
M  V30 13 C -1.87458 1.51029 0.330098 0
M  V30 14 C -2.88934 1.04131 -0.665097 0
M  V30 15 C -3.04712 -0.462507 -0.6458 0
M  V30 16 C -4.46766 -0.7453 -1.14514 0
M  V30 17 O -5.32288 -0.312382 -0.144169 0
M  V30 18 C -5.29408 1.04035 0.0714737 0
M  V30 19 C -4.18888 1.77455 -0.588791 0
M  V30 20 N -2.16147 1.1914 1.69084 0
M  V30 21 H 1.59527 -3.96275 1.23607 0
M  V30 22 H 2.23264 -2.97506 2.42333 0
M  V30 23 H 0.269945 -2.09494 2.03842 0
M  V30 24 H 0.298815 -2.45857 0.291904 0
M  V30 25 H 2.00746 -0.245446 1.64058 0
M  V30 26 H 1.4179 -0.526415 -1.26737 0
M  V30 27 H 2.54948 1.43505 -1.50587 0
M  V30 28 H 1.9631 1.58885 0.178504 0
M  V30 29 H 4.07607 1.03019 1.11609 0
M  V30 30 H 4.28853 2.26722 -0.215161 0
M  V30 31 H 4.8067 0.361094 -1.76949 0
M  V30 32 H 6.02552 0.509921 -0.485185 0
M  V30 33 H 5.29855 -1.84847 -0.532535 0
M  V30 34 H 4.60224 -1.0529 0.926525 0
M  V30 35 H 3.41273 -1.35829 -1.89952 0
M  V30 36 H 2.97689 -2.4401 -0.597544 0
M  V30 37 H -0.367892 0.00338888 1.82477 0
M  V30 38 H -1.64647 2.58808 0.228831 0
M  V30 39 H -2.4522 1.27846 -1.68081 0
M  V30 40 H -2.3298 -0.941503 -1.3103 0
M  V30 41 H -3.00084 -0.838036 0.397816 0
M  V30 42 H -4.66666 -0.270131 -2.10442 0
M  V30 43 H -4.58349 -1.84886 -1.20996 0
M  V30 44 H -6.26343 1.4551 -0.335766 0
M  V30 45 H -5.35026 1.27395 1.17052 0
M  V30 46 H -4.00187 2.72476 -0.00675501 0
M  V30 47 H -4.52868 2.15059 -1.59737 0
M  V30 48 H -1.47347 1.69831 2.28876 0
M  V30 49 H -3.09541 1.59156 1.92484 0
M  V30 END ATOM
M  V30 BEGIN BOND
M  V30 1 1 1 2
M  V30 2 1 2 3
M  V30 3 1 3 4
M  V30 4 1 4 5
M  V30 5 1 5 6
M  V30 6 1 6 7
M  V30 7 1 7 8
M  V30 8 1 8 9
M  V30 9 1 3 10
M  V30 10 1 10 11
M  V30 11 2 11 12
M  V30 12 1 11 13
M  V30 13 1 13 14
M  V30 14 1 14 15
M  V30 15 1 15 16
M  V30 16 1 16 17
M  V30 17 1 17 18
M  V30 18 1 18 19
M  V30 19 1 13 20
M  V30 20 1 9 4
M  V30 21 1 19 14
M  V30 22 1 1 21
M  V30 23 1 1 22
M  V30 24 1 2 23
M  V30 25 1 2 24
M  V30 26 1 3 25
M  V30 27 1 4 26
M  V30 28 1 5 27
M  V30 29 1 5 28
M  V30 30 1 6 29
M  V30 31 1 6 30
M  V30 32 1 7 31
M  V30 33 1 7 32
M  V30 34 1 8 33
M  V30 35 1 8 34
M  V30 36 1 9 35
M  V30 37 1 9 36
M  V30 38 1 10 37
M  V30 39 1 13 38
M  V30 40 1 14 39
M  V30 41 1 15 40
M  V30 42 1 15 41
M  V30 43 1 16 42
M  V30 44 1 16 43
M  V30 45 1 18 44
M  V30 46 1 18 45
M  V30 47 1 19 46
M  V30 48 1 19 47
M  V30 49 1 20 48
M  V30 50 1 20 49
M  V30 END BOND
M  V30 END CTAB
M  END
