
     RDKit          3D

  0  0  0  0  0  0  0  0  0  0999 V3000
M  V30 BEGIN CTAB
M  V30 COUNTS 47 49 0 0 0
M  V30 BEGIN ATOM
M  V30 1 N -6.32816 -0.545239 -0.548871 0
M  V30 2 C -5.35867 0.359366 -0.0327145 0
M  V30 3 C -4.35683 -0.461539 0.773784 0
M  V30 4 C -3.76608 -1.45507 -0.253355 0
M  V30 5 S -3.00028 -0.474185 -1.52279 0
M  V30 6 C -1.59188 0.449805 -0.983548 0
M  V30 7 C -0.368568 -0.351421 -0.783306 0 CFG=1
M  V30 8 O 0.714717 0.504127 -0.372356 0
M  V30 9 C 1.71543 -0.464284 -0.300131 0 CFG=2
M  V30 10 C 1.1157 -1.40941 0.702047 0 CFG=2
M  V30 11 O 1.62436 -2.68345 0.669201 0
M  V30 12 C -0.353482 -1.45054 0.200113 0 CFG=2
M  V30 13 O -0.46924 -2.66794 -0.515655 0
M  V30 14 N 2.99837 0.0280517 0.0794115 0
M  V30 15 C 3.51817 0.0639635 1.32426 0
M  V30 16 C 4.78457 0.605362 1.30234 0
M  V30 17 C 5.03068 0.907603 -0.0287326 0
M  V30 18 C 3.91607 0.542382 -0.756347 0
M  V30 19 N 3.94115 0.749468 -2.08029 0
M  V30 20 C 4.99489 1.29114 -2.71753 0
M  V30 21 N 6.0599 1.63765 -2.00824 0
M  V30 22 C 6.12634 1.4665 -0.662758 0
M  V30 23 N 7.29011 1.85362 0.0367983 0
M  V30 24 C -5.92177 1.397 0.83318 0
M  V30 25 O -5.0869 2.34189 1.40408 0
M  V30 26 O -7.14438 1.44651 1.06669 0
M  V30 27 H -7.09168 -0.179664 -1.05557 0
M  V30 28 H -6.50802 -1.29794 0.0941888 0
M  V30 29 H -4.81173 0.801143 -0.902354 0
M  V30 30 H -4.81629 -0.978138 1.61207 0
M  V30 31 H -3.56065 0.224474 1.11021 0
M  V30 32 H -3.04907 -2.06364 0.290231 0
M  V30 33 H -4.61452 -2.08441 -0.653242 0
M  V30 34 H -1.38604 1.24664 -1.7795 0
M  V30 35 H -1.82083 1.10133 -0.0827661 0
M  V30 36 H -0.00116237 -0.699584 -1.79811 0
M  V30 37 H 1.73828 -0.962465 -1.28271 0
M  V30 38 H 1.13234 -1.00318 1.73736 0
M  V30 39 H 1.7962 -2.94084 -0.267317 0
M  V30 40 H -1.03032 -1.38986 1.04875 0
M  V30 41 H -0.0836742 -2.51753 -1.42427 0
M  V30 42 H 3.00356 -0.284617 2.20167 0
M  V30 43 H 5.44885 0.763744 2.13337 0
M  V30 44 H 4.94749 1.42994 -3.78924 0
M  V30 45 H 7.78428 1.12929 0.609487 0
M  V30 46 H 7.65144 2.82903 -0.0115272 0
M  V30 47 H -4.81267 3.19492 0.905483 0
M  V30 END ATOM
M  V30 BEGIN BOND
M  V30 1 1 1 2
M  V30 2 1 2 3
M  V30 3 1 3 4
M  V30 4 1 4 5
M  V30 5 1 5 6
M  V30 6 1 6 7
M  V30 7 1 7 8
M  V30 8 1 8 9
M  V30 9 1 9 10
M  V30 10 1 10 11
M  V30 11 1 10 12
M  V30 12 1 12 13
M  V30 13 1 9 14
M  V30 14 1 14 15
M  V30 15 2 15 16
M  V30 16 1 16 17
M  V30 17 2 17 18
M  V30 18 1 18 19
M  V30 19 2 19 20
M  V30 20 1 20 21
M  V30 21 2 21 22
M  V30 22 1 22 23
M  V30 23 1 2 24
M  V30 24 1 24 25
M  V30 25 2 24 26
M  V30 26 1 12 7
M  V30 27 1 18 14
M  V30 28 1 22 17
M  V30 29 1 1 27
M  V30 30 1 1 28
M  V30 31 1 2 29
M  V30 32 1 3 30
M  V30 33 1 3 31
M  V30 34 1 4 32
M  V30 35 1 4 33
M  V30 36 1 6 34
M  V30 37 1 6 35
M  V30 38 1 7 36 CFG=3
M  V30 39 1 9 37 CFG=3
M  V30 40 1 10 38 CFG=1
M  V30 41 1 11 39
M  V30 42 1 12 40 CFG=1
M  V30 43 1 13 41
M  V30 44 1 15 42
M  V30 45 1 16 43
M  V30 46 1 20 44
M  V30 47 1 23 45
M  V30 48 1 23 46
M  V30 49 1 25 47
M  V30 END BOND
M  V30 END CTAB
M  END
