
     RDKit          3D

  0  0  0  0  0  0  0  0  0  0999 V3000
M  V30 BEGIN CTAB
M  V30 COUNTS 19 20 0 0 0
M  V30 BEGIN ATOM
M  V30 1 I 5.37912 1.94773 0.392327 0
M  V30 2 C 3.59708 0.823771 0.0547714 0
M  V30 3 S 3.37802 -0.594377 -0.842364 0
M  V30 4 C 1.68792 -0.810917 -0.594668 0
M  V30 5 C 1.34225 0.250687 0.195253 0
M  V30 6 C 2.35241 1.09924 0.527929 0
M  V30 7 C -0.0652515 0.441066 0.649385 0
M  V30 8 N -0.483523 1.47196 1.43558 0
M  V30 9 N -1.76825 1.37538 1.66945 0
M  V30 10 C -2.23521 0.293962 1.0551 0
M  V30 11 N -1.15385 -0.269371 0.427397 0
M  V30 12 N -1.21554 -1.44358 -0.343116 0
M  V30 13 N -3.53379 -0.252731 0.991347 0
M  V30 14 H 1.06975 -1.63624 -1.00285 0
M  V30 15 H 2.18731 2.00157 1.16945 0
M  V30 16 H -1.18311 -2.3584 0.137163 0
M  V30 17 H -1.29185 -1.41244 -1.36891 0
M  V30 18 H -4.05899 -0.397113 0.0863595 0
M  V30 19 H -4.00451 -0.530189 1.87675 0
M  V30 END ATOM
M  V30 BEGIN BOND
M  V30 1 1 1 2
M  V30 2 1 2 3
M  V30 3 1 3 4
M  V30 4 2 4 5
M  V30 5 1 5 6
M  V30 6 1 5 7
M  V30 7 2 7 8
M  V30 8 1 8 9
M  V30 9 2 9 10
M  V30 10 1 10 11
M  V30 11 1 11 12
M  V30 12 1 10 13
M  V30 13 2 6 2
M  V30 14 1 11 7
M  V30 15 1 4 14
M  V30 16 1 6 15
M  V30 17 1 12 16
M  V30 18 1 12 17
M  V30 19 1 13 18
M  V30 20 1 13 19
M  V30 END BOND
M  V30 END CTAB
M  END
