
     RDKit          3D

  0  0  0  0  0  0  0  0  0  0999 V3000
M  V30 BEGIN CTAB
M  V30 COUNTS 35 37 0 0 0
M  V30 BEGIN ATOM
M  V30 1 C -4.83399 -0.710482 -0.619216 0
M  V30 2 C -4.32939 0.392527 0.271197 0
M  V30 3 O -4.85099 0.138546 1.55712 0
M  V30 4 C -2.85321 0.44901 0.328038 0
M  V30 5 C -2.23854 1.43062 1.07476 0
M  V30 6 N -3.07646 2.36212 1.76711 0
M  V30 7 N -0.886866 1.5282 1.16337 0
M  V30 8 C -0.128675 0.635754 0.499215 0
M  V30 9 N 1.21108 0.64927 0.525535 0
M  V30 10 C 1.99114 -0.228049 -0.125826 0
M  V30 11 N 1.39563 -1.18347 -0.852619 0
M  V30 12 C 0.0623107 -1.28319 -0.943787 0
M  V30 13 N -0.523271 -2.30719 -1.72206 0
M  V30 14 C -0.706977 -0.366871 -0.262941 0
M  V30 15 N -2.068 -0.428199 -0.324355 0
M  V30 16 C 3.4405 -0.111892 -0.0193216 0
M  V30 17 C 4.29643 -0.984507 -0.661911 0
M  V30 18 C 5.67316 -0.851241 -0.542343 0
M  V30 19 C 6.22189 0.163927 0.227022 0
M  V30 20 C 5.37746 1.03748 0.870209 0
M  V30 21 C 4.01486 0.885164 0.736663 0
M  V30 22 H -5.82812 -0.401474 -1.05017 0
M  V30 23 H -4.12131 -0.995123 -1.41707 0
M  V30 24 H -5.04019 -1.62499 -0.0258745 0
M  V30 25 H -4.78765 1.35058 -0.0664854 0
M  V30 26 H -5.83702 0.00334485 1.39624 0
M  V30 27 H -3.89347 2.7277 1.21367 0
M  V30 28 H -2.91952 2.67236 2.73437 0
M  V30 29 H -0.418847 -3.30961 -1.48843 0
M  V30 30 H -1.07597 -2.0433 -2.55547 0
M  V30 31 H 3.90525 -1.78213 -1.26623 0
M  V30 32 H 6.33792 -1.52114 -1.03544 0
M  V30 33 H 7.309 0.270131 0.322245 0
M  V30 34 H 5.78452 1.83704 1.4751 0
M  V30 35 H 3.39731 1.59911 1.26256 0
M  V30 END ATOM
M  V30 BEGIN BOND
M  V30 1 1 1 2
M  V30 2 1 2 3
M  V30 3 1 2 4
M  V30 4 2 4 5
M  V30 5 1 5 6
M  V30 6 1 5 7
M  V30 7 2 7 8
M  V30 8 1 8 9
M  V30 9 2 9 10
M  V30 10 1 10 11
M  V30 11 2 11 12
M  V30 12 1 12 13
M  V30 13 1 12 14
M  V30 14 2 14 15
M  V30 15 1 10 16
M  V30 16 2 16 17
M  V30 17 1 17 18
M  V30 18 2 18 19
M  V30 19 1 19 20
M  V30 20 2 20 21
M  V30 21 1 15 4
M  V30 22 1 21 16
M  V30 23 1 14 8
M  V30 24 1 1 22
M  V30 25 1 1 23
M  V30 26 1 1 24
M  V30 27 1 2 25
M  V30 28 1 3 26
M  V30 29 1 6 27
M  V30 30 1 6 28
M  V30 31 1 13 29
M  V30 32 1 13 30
M  V30 33 1 17 31
M  V30 34 1 18 32
M  V30 35 1 19 33
M  V30 36 1 20 34
M  V30 37 1 21 35
M  V30 END BOND
M  V30 END CTAB
M  END
