
     RDKit          3D

  0  0  0  0  0  0  0  0  0  0999 V3000
M  V30 BEGIN CTAB
M  V30 COUNTS 54 56 0 0 0
M  V30 BEGIN ATOM
M  V30 1 C 7.37586 0.574827 -1.94911 0
M  V30 2 N 6.62977 -0.0941323 -0.885342 0
M  V30 3 C 7.16115 0.465946 0.365993 0
M  V30 4 C 5.22687 0.268783 -0.908985 0
M  V30 5 C 4.49365 -0.255318 -2.10714 0
M  V30 6 C 3.0468 0.216646 -1.97147 0
M  V30 7 C 2.50602 -0.343318 -0.711602 0
M  V30 8 O 2.08967 -1.55015 -0.747327 0
M  V30 9 O 2.4166 0.323458 0.482858 0
M  V30 10 C 1.92175 -0.0884415 1.68555 0
M  V30 11 C 0.489858 -0.339503 1.87894 0
M  V30 12 C 0.147776 -0.884452 3.12426 0
M  V30 13 F 1.11036 -1.20006 4.04002 0
M  V30 14 C -1.13554 -1.11082 3.45104 0
M  V30 15 N -1.48063 -1.67392 4.74052 0
M  V30 16 C -2.15511 -0.813796 2.57122 0
M  V30 17 C -3.48853 -1.03079 2.86598 0
M  V30 18 O -3.79577 -1.51811 3.97762 0
M  V30 19 C -4.49093 -0.715093 1.94587 0
M  V30 20 C -4.09478 -0.187122 0.752425 0
M  V30 21 O -2.80609 0.00809534 0.502253 0
M  V30 22 C -1.86159 -0.277664 1.34186 0
M  V30 23 C -0.512 -0.0447749 1.0132 0
M  V30 24 F -0.309794 0.552211 -0.208677 0
M  V30 25 C -5.0594 0.177178 -0.278042 0
M  V30 26 C -4.61692 0.713361 -1.49208 0
M  V30 27 C -5.50845 1.06432 -2.47677 0
M  V30 28 C -6.86402 0.907434 -2.31867 0
M  V30 29 N -7.74501 1.29263 -3.38123 0
M  V30 30 C -7.33067 0.38169 -1.13383 0
M  V30 31 F -8.66518 0.229143 -0.983432 0
M  V30 32 C -6.41622 0.0325302 -0.149695 0
M  V30 33 H 7.04606 0.250427 -2.95244 0
M  V30 34 H 7.26889 1.68119 -1.89257 0
M  V30 35 H 8.43859 0.264113 -1.82064 0
M  V30 36 H 7.09757 1.58108 0.226015 0
M  V30 37 H 6.48156 0.205916 1.19304 0
M  V30 38 H 8.19696 0.183421 0.548038 0
M  V30 39 H 5.10927 1.36349 -0.793562 0
M  V30 40 H 4.7725 -0.200721 -0.00764129 0
M  V30 41 H 4.49399 -1.37522 -2.05157 0
M  V30 42 H 4.93728 0.0156099 -3.06961 0
M  V30 43 H 2.47644 -0.204714 -2.82664 0
M  V30 44 H 3.02348 1.32532 -1.98033 0
M  V30 45 H 2.53225 -0.996703 2.00542 0
M  V30 46 H 2.22562 0.663116 2.47714 0
M  V30 47 H -1.63191 -2.70865 4.83013 0
M  V30 48 H -1.57393 -1.04652 5.5597 0
M  V30 49 H -5.5222 -0.89416 2.20103 0
M  V30 50 H -3.53681 0.837791 -1.61757 0
M  V30 51 H -5.14787 1.47904 -3.41249 0
M  V30 52 H -7.53297 1.0258 -4.35171 0
M  V30 53 H -8.61412 1.84562 -3.21126 0
M  V30 54 H -6.82013 -0.376014 0.765036 0
M  V30 END ATOM
M  V30 BEGIN BOND
M  V30 1 1 1 2
M  V30 2 1 2 3
M  V30 3 1 2 4
M  V30 4 1 4 5
M  V30 5 1 5 6
M  V30 6 1 6 7
M  V30 7 2 7 8
M  V30 8 1 7 9
M  V30 9 1 9 10
M  V30 10 1 10 11
M  V30 11 2 11 12
M  V30 12 1 12 13
M  V30 13 1 12 14
M  V30 14 1 14 15
M  V30 15 2 14 16
M  V30 16 1 16 17
M  V30 17 2 17 18
M  V30 18 1 17 19
M  V30 19 2 19 20
M  V30 20 1 20 21
M  V30 21 1 21 22
M  V30 22 2 22 23
M  V30 23 1 23 24
M  V30 24 1 20 25
M  V30 25 2 25 26
M  V30 26 1 26 27
M  V30 27 2 27 28
M  V30 28 1 28 29
M  V30 29 1 28 30
M  V30 30 1 30 31
M  V30 31 2 30 32
M  V30 32 1 23 11
M  V30 33 1 32 25
M  V30 34 1 22 16
M  V30 35 1 1 33
M  V30 36 1 1 34
M  V30 37 1 1 35
M  V30 38 1 3 36
M  V30 39 1 3 37
M  V30 40 1 3 38
M  V30 41 1 4 39
M  V30 42 1 4 40
M  V30 43 1 5 41
M  V30 44 1 5 42
M  V30 45 1 6 43
M  V30 46 1 6 44
M  V30 47 1 10 45
M  V30 48 1 10 46
M  V30 49 1 15 47
M  V30 50 1 15 48
M  V30 51 1 19 49
M  V30 52 1 26 50
M  V30 53 1 27 51
M  V30 54 1 29 52
M  V30 55 1 29 53
M  V30 56 1 32 54
M  V30 END BOND
M  V30 END CTAB
M  END
