
     RDKit          3D

  0  0  0  0  0  0  0  0  0  0999 V3000
M  V30 BEGIN CTAB
M  V30 COUNTS 26 26 0 0 0
M  V30 BEGIN ATOM
M  V30 1 N 3.84687 1.31101 -0.280486 0
M  V30 2 N 2.88391 0.534715 0.0151529 0
M  V30 3 C 1.79795 -0.344553 0.349667 0
M  V30 4 O 2.07707 -1.45272 0.78331 0
M  V30 5 C 0.402933 0.0878597 0.14848 0
M  V30 6 C 0.104764 1.40163 0.0468042 0
M  V30 7 C -1.22044 1.83591 0.00104322 0
M  V30 8 C -2.25484 0.872106 0.0515472 0
M  V30 9 C -1.96282 -0.432515 0.148117 0
M  V30 10 C -0.577201 -0.855205 0.206041 0
M  V30 11 N -0.373136 -2.23186 0.266846 0
M  V30 12 N 0.214553 -3.12409 -0.537987 0
M  V30 13 N -2.93986 -1.38586 0.250796 0 CHG=1
M  V30 14 O -2.76042 -2.45647 -0.431806 0
M  V30 15 O -4.1107 -1.32017 0.917245 0 CHG=-1
M  V30 16 N -1.56253 3.17222 -0.104425 0 CHG=1
M  V30 17 O -2.51327 3.78032 -0.457705 0
M  V30 18 O -0.502194 4.07249 0.325522 0 CHG=-1
M  V30 19 H 4.77679 1.22246 0.261701 0
M  V30 20 H 3.70784 2.14699 -0.806854 0
M  V30 21 H 3.55552 -0.537815 -0.549366 0
M  V30 22 H 0.926482 2.09728 -0.00267091 0
M  V30 23 H -3.2837 1.24646 0.0649121 0
M  V30 24 H -0.870361 -2.6775 1.16417 0
M  V30 25 H 0.385769 -2.85475 -1.49236 0
M  V30 26 H 0.251014 -4.10794 -0.337699 0
M  V30 END ATOM
M  V30 BEGIN BOND
M  V30 1 1 1 2
M  V30 2 1 2 3
M  V30 3 2 3 4
M  V30 4 1 3 5
M  V30 5 2 5 6
M  V30 6 1 6 7
M  V30 7 2 7 8
M  V30 8 1 8 9
M  V30 9 2 9 10
M  V30 10 1 10 11
M  V30 11 1 11 12
M  V30 12 1 9 13
M  V30 13 2 13 14
M  V30 14 1 13 15
M  V30 15 1 7 16
M  V30 16 2 16 17
M  V30 17 1 16 18
M  V30 18 1 10 5
M  V30 19 1 1 19
M  V30 20 1 1 20
M  V30 21 1 2 21
M  V30 22 1 6 22
M  V30 23 1 8 23
M  V30 24 1 11 24
M  V30 25 1 12 25
M  V30 26 1 12 26
M  V30 END BOND
M  V30 END CTAB
M  END
