
     RDKit          3D

  0  0  0  0  0  0  0  0  0  0999 V3000
M  V30 BEGIN CTAB
M  V30 COUNTS 24 25 0 0 0
M  V30 BEGIN ATOM
M  V30 1 N 1.92102 2.0387 0.142462 0
M  V30 2 C 1.36529 0.716219 0.0690689 0
M  V30 3 C 2.061 -0.461457 -0.0299211 0
M  V30 4 N 3.47686 -0.59559 -0.0789599 0
M  V30 5 C 1.12434 -1.48454 -0.0723821 0
M  V30 6 O 1.38915 -2.72226 -0.163248 0
M  V30 7 N -0.107225 -0.927642 -6.80173e-05 0
M  V30 8 C -1.39445 -1.59547 -0.00831581 0
M  V30 9 C -2.39956 -0.616819 -0.571753 0
M  V30 10 C -2.36892 0.581422 0.383704 0
M  V30 11 C -1.08432 1.31358 0.178153 0
M  V30 12 N 0.0523685 0.37969 0.0834817 0
M  V30 13 H 1.68543 2.77775 -0.559631 0
M  V30 14 H 2.58517 2.31761 0.902134 0
M  V30 15 H 3.8959 -1.01809 -0.917736 0
M  V30 16 H 4.08265 -0.280843 0.701349 0
M  V30 17 H -1.68076 -1.96501 0.993975 0
M  V30 18 H -1.35755 -2.49665 -0.685306 0
M  V30 19 H -2.02838 -0.299603 -1.55674 0
M  V30 20 H -3.40399 -1.03587 -0.660313 0
M  V30 21 H -3.23609 1.19293 0.13005 0
M  V30 22 H -2.50801 0.214693 1.41593 0
M  V30 23 H -1.14799 1.94913 -0.728989 0
M  V30 24 H -0.921927 2.01813 1.03305 0
M  V30 END ATOM
M  V30 BEGIN BOND
M  V30 1 1 1 2
M  V30 2 2 2 3
M  V30 3 1 3 4
M  V30 4 1 3 5
M  V30 5 2 5 6
M  V30 6 1 5 7
M  V30 7 1 7 8
M  V30 8 1 8 9
M  V30 9 1 9 10
M  V30 10 1 10 11
M  V30 11 1 11 12
M  V30 12 1 12 2
M  V30 13 1 12 7
M  V30 14 1 1 13
M  V30 15 1 1 14
M  V30 16 1 4 15
M  V30 17 1 4 16
M  V30 18 1 8 17
M  V30 19 1 8 18
M  V30 20 1 9 19
M  V30 21 1 9 20
M  V30 22 1 10 21
M  V30 23 1 10 22
M  V30 24 1 11 23
M  V30 25 1 11 24
M  V30 END BOND
M  V30 END CTAB
M  END
