
     RDKit          3D

  0  0  0  0  0  0  0  0  0  0999 V3000
M  V30 BEGIN CTAB
M  V30 COUNTS 63 66 0 0 0
M  V30 BEGIN ATOM
M  V30 1 C 3.21532 7.04685 -0.946117 0
M  V30 2 O 2.8817 5.69259 -0.686601 0
M  V30 3 C 3.85153 4.71319 -0.528283 0
M  V30 4 O 5.05156 5.06886 -0.623417 0
M  V30 5 C 3.53689 3.33032 -0.263912 0
M  V30 6 C 2.19434 2.94904 -0.160558 0
M  V30 7 C 1.85389 1.65816 0.0873496 0
M  V30 8 N 0.532073 1.22129 0.200524 0
M  V30 9 C -0.666184 1.93603 0.0968352 0
M  V30 10 O -0.67958 3.15842 -0.13207 0
M  V30 11 C -1.98531 1.28401 0.251814 0
M  V30 12 C -2.14746 0.0398493 0.813803 0
M  V30 13 C -3.40592 -0.538051 0.931498 0
M  V30 14 C -4.52658 0.115871 0.4894 0
M  V30 15 C -4.33342 1.36168 -0.0689677 0
M  V30 16 C -3.11347 1.97094 -0.205661 0
M  V30 17 C -5.8469 -0.471303 0.580648 0
M  V30 18 C -6.75402 -0.0444816 1.55147 0
M  V30 19 C -8.00904 -0.586176 1.68646 0
M  V30 20 C -8.36078 -1.59277 0.812189 0
M  V30 21 C -7.4782 -2.02077 -0.146508 0
M  V30 22 C -6.19648 -1.47211 -0.289826 0
M  V30 23 S -5.18196 -2.09011 -1.56435 0
M  V30 24 N -6.0881 -3.29252 -2.46798 0
M  V30 25 O -4.78526 -1.04042 -2.54718 0
M  V30 26 O -4.00978 -2.83361 -1.01273 0
M  V30 27 C 2.88378 0.726525 0.235325 0
M  V30 28 O 2.58762 -0.603687 0.489468 0
M  V30 29 C 3.60138 -1.53241 0.637226 0
M  V30 30 C 4.08455 -2.21643 -0.447587 0
M  V30 31 C 5.10488 -3.15266 -0.305989 0
M  V30 32 C 5.62776 -3.38667 0.942894 0
M  V30 33 C 5.15582 -2.70594 2.06277 0
M  V30 34 C 4.15731 -1.79553 1.89642 0
M  V30 35 C 5.62126 -3.88082 -1.45135 0
M  V30 36 N 5.02137 -3.58102 -2.73393 0
M  V30 37 N 6.54202 -4.7372 -1.37871 0
M  V30 38 C 4.21869 1.08122 0.137094 0
M  V30 39 C 4.52916 2.3984 -0.114974 0
M  V30 40 H 2.79641 7.34191 -1.91253 0
M  V30 41 H 4.30529 7.18488 -0.977079 0
M  V30 42 H 2.76378 7.73034 -0.174228 0
M  V30 43 H 1.49697 3.75725 -0.293656 0
M  V30 44 H 0.3988 0.176242 0.392994 0
M  V30 45 H -1.28427 -0.497982 1.17423 0
M  V30 46 H -3.43146 -1.51362 1.40312 0
M  V30 47 H -5.18961 1.94467 -0.444966 0
M  V30 48 H -2.99593 2.96116 -0.653936 0
M  V30 49 H -6.42308 0.750114 2.21136 0
M  V30 50 H -8.69564 -0.238595 2.44742 0
M  V30 51 H -9.35471 -2.05642 0.882582 0
M  V30 52 H -7.82127 -2.824 -0.808653 0
M  V30 53 H -5.46836 -3.69335 -3.21158 0
M  V30 54 H -6.43424 -4.03573 -1.81116 0
M  V30 55 H 3.67014 -2.02762 -1.42133 0
M  V30 56 H 6.42712 -4.11709 1.0684 0
M  V30 57 H 5.57731 -2.90395 3.02459 0
M  V30 58 H 3.7554 -1.2402 2.73343 0
M  V30 59 H 5.63281 -3.41615 -3.54714 0
M  V30 60 H 3.98887 -3.5377 -2.81083 0
M  V30 61 H 7.02798 -5.02258 -0.543221 0
M  V30 62 H 5.01609 0.366396 0.250458 0
M  V30 63 H 5.55714 2.73345 -0.202119 0
M  V30 END ATOM
M  V30 BEGIN BOND
M  V30 1 1 1 2
M  V30 2 1 2 3
M  V30 3 2 3 4
M  V30 4 1 3 5
M  V30 5 2 5 6
M  V30 6 1 6 7
M  V30 7 1 7 8
M  V30 8 1 8 9
M  V30 9 2 9 10
M  V30 10 1 9 11
M  V30 11 2 11 12
M  V30 12 1 12 13
M  V30 13 2 13 14
M  V30 14 1 14 15
M  V30 15 2 15 16
M  V30 16 1 14 17
M  V30 17 2 17 18
M  V30 18 1 18 19
M  V30 19 2 19 20
M  V30 20 1 20 21
M  V30 21 2 21 22
M  V30 22 1 22 23
M  V30 23 1 23 24
M  V30 24 2 23 25
M  V30 25 2 23 26
M  V30 26 2 7 27
M  V30 27 1 27 28
M  V30 28 1 28 29
M  V30 29 2 29 30
M  V30 30 1 30 31
M  V30 31 2 31 32
M  V30 32 1 32 33
M  V30 33 2 33 34
M  V30 34 1 31 35
M  V30 35 1 35 36
M  V30 36 2 35 37 CFG=2
M  V30 37 1 27 38
M  V30 38 2 38 39
M  V30 39 1 39 5
M  V30 40 1 16 11
M  V30 41 1 22 17
M  V30 42 1 34 29
M  V30 43 1 1 40
M  V30 44 1 1 41
M  V30 45 1 1 42
M  V30 46 1 6 43
M  V30 47 1 8 44
M  V30 48 1 12 45
M  V30 49 1 13 46
M  V30 50 1 15 47
M  V30 51 1 16 48
M  V30 52 1 18 49
M  V30 53 1 19 50
M  V30 54 1 20 51
M  V30 55 1 21 52
M  V30 56 1 24 53
M  V30 57 1 24 54
M  V30 58 1 30 55
M  V30 59 1 32 56
M  V30 60 1 33 57
M  V30 61 1 34 58
M  V30 62 1 36 59
M  V30 63 1 36 60
M  V30 64 1 37 61
M  V30 65 1 38 62
M  V30 66 1 39 63
M  V30 END BOND
M  V30 END CTAB
M  END
