
     RDKit          3D

  0  0  0  0  0  0  0  0  0  0999 V3000
M  V30 BEGIN CTAB
M  V30 COUNTS 46 49 0 0 0
M  V30 BEGIN ATOM
M  V30 1 N -6.69404 -0.000385632 -0.0712655 0
M  V30 2 C -5.99905 0.844377 -0.999229 0
M  V30 3 C -4.95511 1.75504 -0.437804 0
M  V30 4 C -3.84946 1.00184 -1.12886 0
M  V30 5 C -4.91704 0.152716 -1.80243 0
M  V30 6 C -2.93791 0.250089 -0.248387 0
M  V30 7 C -1.57214 0.311957 -0.314245 0
M  V30 8 C -0.72784 -0.407034 0.527722 0
M  V30 9 N -1.33929 -1.18782 1.43505 0
M  V30 10 C -2.68542 -1.27425 1.52963 0
M  V30 11 N -3.47417 -0.556391 0.689239 0
M  V30 12 N -3.29963 -2.11103 2.50219 0
M  V30 13 N 0.673278 -0.331586 0.446171 0
M  V30 14 C 1.38141 0.492805 -0.511452 0
M  V30 15 C 2.85066 0.36499 -0.355806 0
M  V30 16 C 3.65165 1.14007 0.454541 0
M  V30 17 C 4.96443 0.722405 0.332961 0
M  V30 18 C 4.93094 -0.32612 -0.573594 0
M  V30 19 N 3.65054 -0.521509 -0.972673 0
M  V30 20 C 6.12904 -0.946704 -0.890177 0
M  V30 21 C 7.33499 -0.571985 -0.350543 0
M  V30 22 C 7.33783 0.477555 0.551349 0
M  V30 23 C 6.15921 1.12713 0.896344 0
M  V30 24 F 8.51335 0.86307 1.09476 0
M  V30 25 C 1.46406 -1.121 1.36983 0
M  V30 26 H -6.64455 0.301378 0.913384 0
M  V30 27 H -6.49556 -1.01689 -0.210439 0
M  V30 28 H -6.74091 1.41317 -1.61978 0
M  V30 29 H -5.04849 2.82348 -0.687944 0
M  V30 30 H -4.86981 1.58444 0.671193 0
M  V30 31 H -3.27587 1.62603 -1.8542 0
M  V30 32 H -5.01221 0.420867 -2.87037 0
M  V30 33 H -4.82263 -0.929806 -1.64426 0
M  V30 34 H -1.10728 0.941145 -1.04558 0
M  V30 35 H -3.41151 -3.12738 2.22546 0
M  V30 36 H -3.61307 -1.75716 3.40874 0
M  V30 37 H 1.05903 1.56808 -0.397636 0
M  V30 38 H 1.06149 0.209406 -1.53587 0
M  V30 39 H 3.34912 1.95375 1.0987 0
M  V30 40 H 3.39807 -1.26829 -1.65966 0
M  V30 41 H 6.1228 -1.76065 -1.59037 0
M  V30 42 H 8.25713 -1.09749 -0.635325 0
M  V30 43 H 6.1686 1.93588 1.59259 0
M  V30 44 H 0.823364 -1.67309 2.09083 0
M  V30 45 H 2.1087 -1.85783 0.858292 0
M  V30 46 H 2.10332 -0.437251 1.96594 0
M  V30 END ATOM
M  V30 BEGIN BOND
M  V30 1 1 1 2
M  V30 2 1 2 3
M  V30 3 1 3 4
M  V30 4 1 4 5
M  V30 5 1 4 6
M  V30 6 2 6 7
M  V30 7 1 7 8
M  V30 8 2 8 9
M  V30 9 1 9 10
M  V30 10 2 10 11
M  V30 11 1 10 12
M  V30 12 1 8 13
M  V30 13 1 13 14
M  V30 14 1 14 15
M  V30 15 2 15 16
M  V30 16 1 16 17
M  V30 17 2 17 18
M  V30 18 1 18 19
M  V30 19 1 18 20
M  V30 20 2 20 21
M  V30 21 1 21 22
M  V30 22 2 22 23
M  V30 23 1 22 24
M  V30 24 1 13 25
M  V30 25 1 5 2
M  V30 26 1 11 6
M  V30 27 1 19 15
M  V30 28 1 23 17
M  V30 29 1 1 26
M  V30 30 1 1 27
M  V30 31 1 2 28
M  V30 32 1 3 29
M  V30 33 1 3 30
M  V30 34 1 4 31
M  V30 35 1 5 32
M  V30 36 1 5 33
M  V30 37 1 7 34
M  V30 38 1 12 35
M  V30 39 1 12 36
M  V30 40 1 14 37
M  V30 41 1 14 38
M  V30 42 1 16 39
M  V30 43 1 19 40
M  V30 44 1 20 41
M  V30 45 1 21 42
M  V30 46 1 23 43
M  V30 47 1 25 44
M  V30 48 1 25 45
M  V30 49 1 25 46
M  V30 END BOND
M  V30 END CTAB
M  END
