
     RDKit          3D

  0  0  0  0  0  0  0  0  0  0999 V3000
M  V30 BEGIN CTAB
M  V30 COUNTS 23 23 0 0 0
M  V30 BEGIN ATOM
M  V30 1 C 3.96914 -0.908374 -0.0305176 0
M  V30 2 N 2.52555 -0.970362 -0.0901195 0
M  V30 3 C 1.78152 0.160547 0.236357 0
M  V30 4 O 2.38829 1.23311 0.582872 0
M  V30 5 C 0.315216 0.21906 0.213134 0
M  V30 6 C -0.454051 -0.866713 -0.142171 0
M  V30 7 C -1.83445 -0.837377 -0.171914 0
M  V30 8 N -2.59668 -1.98018 -0.54452 0
M  V30 9 C -2.44388 0.348821 0.17554 0
M  V30 10 C -1.71438 1.47053 0.540775 0
M  V30 11 C -0.334801 1.39162 0.555259 0
M  V30 12 N -2.37667 2.68849 0.896488 0
M  V30 13 H 4.21808 -0.414829 0.945204 0
M  V30 14 H 4.33374 -0.2453 -0.84218 0
M  V30 15 H 4.38641 -1.91506 -0.0428612 0
M  V30 16 H 2.04148 -1.844 -0.372064 0
M  V30 17 H 0.0282324 -1.78185 -0.409913 0
M  V30 18 H -2.78399 -2.09255 -1.56449 0
M  V30 19 H -2.92098 -2.63058 0.201717 0
M  V30 20 H -3.53269 0.453754 0.177233 0
M  V30 21 H 0.244634 2.27836 0.844069 0
M  V30 22 H -3.38752 2.66219 1.13569 0
M  V30 23 H -1.85221 3.58069 0.913902 0
M  V30 END ATOM
M  V30 BEGIN BOND
M  V30 1 1 1 2
M  V30 2 1 2 3
M  V30 3 2 3 4
M  V30 4 1 3 5
M  V30 5 2 5 6
M  V30 6 1 6 7
M  V30 7 1 7 8
M  V30 8 2 7 9
M  V30 9 1 9 10
M  V30 10 2 10 11
M  V30 11 1 10 12
M  V30 12 1 11 5
M  V30 13 1 1 13
M  V30 14 1 1 14
M  V30 15 1 1 15
M  V30 16 1 2 16
M  V30 17 1 6 17
M  V30 18 1 8 18
M  V30 19 1 8 19
M  V30 20 1 9 20
M  V30 21 1 11 21
M  V30 22 1 12 22
M  V30 23 1 12 23
M  V30 END BOND
M  V30 END CTAB
M  END
