
     RDKit          3D

  0  0  0  0  0  0  0  0  0  0999 V3000
M  V30 BEGIN CTAB
M  V30 COUNTS 24 24 0 0 0
M  V30 BEGIN ATOM
M  V30 1 C 3.48544 -0.391313 1.3863 0
M  V30 2 O 2.15587 -0.868543 1.40852 0
M  V30 3 C 1.21301 -0.152004 0.685936 0
M  V30 4 C 1.54461 0.993688 -0.0381331 0
M  V30 5 C 0.603664 1.69152 -0.747182 0
M  V30 6 C -0.698934 1.26763 -0.755977 0
M  V30 7 C -1.08995 0.142234 -0.0600383 0
M  V30 8 C -0.108233 -0.552973 0.656725 0
M  V30 9 N -0.441085 -1.72186 1.39671 0
M  V30 10 O -2.40791 -0.290281 -0.0663899 0
M  V30 11 C -2.92805 -1.19773 -1.01846 0
M  V30 12 F -3.96254 -0.585 -1.738 0
M  V30 13 F -3.46556 -2.32493 -0.443233 0
M  V30 14 N -1.64459 2.03568 -1.51531 0
M  V30 15 H 3.46319 0.638244 1.80461 0
M  V30 16 H 3.87145 -0.290855 0.342944 0
M  V30 17 H 4.18766 -1.05211 1.91191 0
M  V30 18 H 2.59644 1.28375 0.00551134 0
M  V30 19 H 0.879669 2.56126 -1.29114 0
M  V30 20 H -0.254023 -1.79562 2.41283 0
M  V30 21 H -0.882888 -2.53194 0.925793 0
M  V30 22 H -2.12159 -1.49748 -1.74202 0
M  V30 23 H -2.3833 2.53827 -0.975414 0
M  V30 24 H -1.61236 2.10036 -2.54649 0
M  V30 END ATOM
M  V30 BEGIN BOND
M  V30 1 1 1 2
M  V30 2 1 2 3
M  V30 3 2 3 4
M  V30 4 1 4 5
M  V30 5 2 5 6
M  V30 6 1 6 7
M  V30 7 2 7 8
M  V30 8 1 8 9
M  V30 9 1 7 10
M  V30 10 1 10 11
M  V30 11 1 11 12
M  V30 12 1 11 13
M  V30 13 1 6 14
M  V30 14 1 8 3
M  V30 15 1 1 15
M  V30 16 1 1 16
M  V30 17 1 1 17
M  V30 18 1 4 18
M  V30 19 1 5 19
M  V30 20 1 9 20
M  V30 21 1 9 21
M  V30 22 1 11 22
M  V30 23 1 14 23
M  V30 24 1 14 24
M  V30 END BOND
M  V30 END CTAB
M  END
