
     RDKit          3D

  0  0  0  0  0  0  0  0  0  0999 V3000
M  V30 BEGIN CTAB
M  V30 COUNTS 55 58 0 0 0
M  V30 BEGIN ATOM
M  V30 1 C -1.12579 -2.35065 -3.14848 0
M  V30 2 O -2.21008 -1.75931 -2.45508 0
M  V30 3 C -1.91009 -1.0238 -1.31928 0
M  V30 4 C -0.615632 -0.856143 -0.857608 0
M  V30 5 C -0.317168 -0.130325 0.263631 0
M  V30 6 C -1.32449 0.459885 0.9672 0
M  V30 7 C -2.66728 0.320915 0.540666 0
M  V30 8 C -2.92859 -0.414883 -0.588414 0
M  V30 9 O -4.22168 -0.589157 -1.05819 0
M  V30 10 C -4.73081 0.339812 -1.98591 0
M  V30 11 O -3.69792 0.916869 1.25046 0
M  V30 12 C -4.19643 2.20152 1.0457 0
M  V30 13 O -1.19237 1.22319 2.10888 0
M  V30 14 C -1.22933 0.901893 3.4344 0
M  V30 15 C 1.07209 -0.0438901 0.683822 0
M  V30 16 C 1.56948 -1.29963 1.25171 0
M  V30 17 C 0.713252 -2.08548 2.05086 0
M  V30 18 C 1.15176 -3.24419 2.6169 0
M  V30 19 C 2.43661 -3.70886 2.44406 0
M  V30 20 C 3.25046 -2.93461 1.66532 0
M  V30 21 C 2.83297 -1.72644 1.05974 0
M  V30 22 O 3.76811 -1.04634 0.284319 0
M  V30 23 C 3.29303 0.148109 -0.30492 0
M  V30 24 C 2.03273 0.637983 -0.154631 0
M  V30 25 C 1.70961 1.84123 -0.813223 0
M  V30 26 N 0.404843 2.4223 -0.699585 0
M  V30 27 C 2.66598 2.45292 -1.56229 0
M  V30 28 C 3.9359 1.95706 -1.71085 0
M  V30 29 N 4.20839 0.820806 -1.07741 0
M  V30 30 N 4.90495 2.64817 -2.51513 0
M  V30 31 C 2.30006 3.67801 -2.21947 0
M  V30 32 N 2.01742 4.68616 -2.75156 0
M  V30 33 O 2.88727 -4.88911 3.02052 0
M  V30 34 H -0.519688 -2.99462 -2.46867 0
M  V30 35 H -1.4651 -2.91762 -4.04016 0
M  V30 36 H -0.452611 -1.52672 -3.47528 0
M  V30 37 H 0.15851 -1.35278 -1.46321 0
M  V30 38 H -3.88289 0.935156 -2.37429 0
M  V30 39 H -5.49918 1.01778 -1.55442 0
M  V30 40 H -5.18885 -0.18573 -2.85545 0
M  V30 41 H -5.2659 2.25548 1.32956 0
M  V30 42 H -4.00729 2.63213 0.0607739 0
M  V30 43 H -3.66936 2.87518 1.78311 0
M  V30 44 H -1.36771 -0.170394 3.67747 0
M  V30 45 H -1.97742 1.54658 3.95215 0
M  V30 46 H -0.243352 1.18669 3.90582 0
M  V30 47 H 1.01873 0.641152 1.62321 0
M  V30 48 H -0.299341 -1.73262 2.18032 0
M  V30 49 H 0.469164 -3.82078 3.22323 0
M  V30 50 H 4.28532 -3.25703 1.49336 0
M  V30 51 H 0.109479 3.06151 0.0628352 0
M  V30 52 H -0.281229 2.18811 -1.43736 0
M  V30 53 H 5.20896 3.58428 -2.21389 0
M  V30 54 H 5.29822 2.23523 -3.37513 0
M  V30 55 H 2.7843 -5.75501 2.49985 0
M  V30 END ATOM
M  V30 BEGIN BOND
M  V30 1 1 1 2
M  V30 2 1 2 3
M  V30 3 2 3 4
M  V30 4 1 4 5
M  V30 5 2 5 6
M  V30 6 1 6 7
M  V30 7 2 7 8
M  V30 8 1 8 9
M  V30 9 1 9 10
M  V30 10 1 7 11
M  V30 11 1 11 12
M  V30 12 1 6 13
M  V30 13 1 13 14
M  V30 14 1 5 15
M  V30 15 1 15 16
M  V30 16 2 16 17
M  V30 17 1 17 18
M  V30 18 2 18 19
M  V30 19 1 19 20
M  V30 20 2 20 21
M  V30 21 1 21 22
M  V30 22 1 22 23
M  V30 23 2 23 24
M  V30 24 1 24 25
M  V30 25 1 25 26
M  V30 26 2 25 27
M  V30 27 1 27 28
M  V30 28 2 28 29
M  V30 29 1 28 30
M  V30 30 1 27 31
M  V30 31 3 31 32
M  V30 32 1 19 33
M  V30 33 1 8 3
M  V30 34 1 24 15
M  V30 35 1 21 16
M  V30 36 1 29 23
M  V30 37 1 1 34
M  V30 38 1 1 35
M  V30 39 1 1 36
M  V30 40 1 4 37
M  V30 41 1 10 38
M  V30 42 1 10 39
M  V30 43 1 10 40
M  V30 44 1 12 41
M  V30 45 1 12 42
M  V30 46 1 12 43
M  V30 47 1 14 44
M  V30 48 1 14 45
M  V30 49 1 14 46
M  V30 50 1 15 47
M  V30 51 1 17 48
M  V30 52 1 18 49
M  V30 53 1 20 50
M  V30 54 1 26 51
M  V30 55 1 26 52
M  V30 56 1 30 53
M  V30 57 1 30 54
M  V30 58 1 33 55
M  V30 END BOND
M  V30 END CTAB
M  END
