
     RDKit          3D

  0  0  0  0  0  0  0  0  0  0999 V3000
M  V30 BEGIN CTAB
M  V30 COUNTS 31 31 0 0 0
M  V30 BEGIN ATOM
M  V30 1 O -0.42194 1.54678 0.747229 0
M  V30 2 C -0.68283 0.225091 0.398843 0
M  V30 3 C -2.15064 0.128764 0.0892194 0
M  V30 4 N -2.88551 0.525791 1.29062 0
M  V30 5 C -2.57765 0.969416 -1.0665 0
M  V30 6 C -2.56628 -1.31435 -0.215596 0
M  V30 7 C 0.176151 -0.189824 -0.773212 0
M  V30 8 C 1.60245 -0.0608437 -0.407883 0
M  V30 9 C 2.30938 1.0202 -0.910923 0
M  V30 10 C 3.63561 1.10536 -0.549739 0
M  V30 11 C 4.28026 0.197243 0.263142 0
M  V30 12 N 3.56529 -0.843173 0.73636 0
M  V30 13 C 2.25182 -0.968364 0.406395 0
M  V30 14 N 1.52653 -2.06778 0.915406 0
M  V30 15 H 0.128372 1.60028 1.58593 0
M  V30 16 H -0.475298 -0.407717 1.27757 0
M  V30 17 H -2.40256 0.0554603 2.094 0
M  V30 18 H -2.81933 1.55224 1.44938 0
M  V30 19 H -3.56838 1.4275 -0.853025 0
M  V30 20 H -2.73375 0.329184 -1.98265 0
M  V30 21 H -1.89011 1.80913 -1.28826 0
M  V30 22 H -2.01965 -1.69166 -1.08033 0
M  V30 23 H -2.42804 -1.89415 0.719011 0
M  V30 24 H -3.66822 -1.28044 -0.388397 0
M  V30 25 H -0.033094 -1.24765 -1.02957 0
M  V30 26 H -0.0419438 0.413625 -1.67737 0
M  V30 27 H 1.8377 1.75722 -1.55509 0
M  V30 28 H 4.20538 1.9301 -0.924378 0
M  V30 29 H 5.34094 0.33799 0.502619 0
M  V30 30 H 1.44644 -2.21516 1.94127 0
M  V30 31 H 1.05891 -2.75025 0.285935 0
M  V30 END ATOM
M  V30 BEGIN BOND
M  V30 1 1 1 2
M  V30 2 1 2 3
M  V30 3 1 3 4
M  V30 4 1 3 5
M  V30 5 1 3 6
M  V30 6 1 2 7
M  V30 7 1 7 8
M  V30 8 2 8 9
M  V30 9 1 9 10
M  V30 10 2 10 11
M  V30 11 1 11 12
M  V30 12 2 12 13
M  V30 13 1 13 14
M  V30 14 1 13 8
M  V30 15 1 1 15
M  V30 16 1 2 16
M  V30 17 1 4 17
M  V30 18 1 4 18
M  V30 19 1 5 19
M  V30 20 1 5 20
M  V30 21 1 5 21
M  V30 22 1 6 22
M  V30 23 1 6 23
M  V30 24 1 6 24
M  V30 25 1 7 25
M  V30 26 1 7 26
M  V30 27 1 9 27
M  V30 28 1 10 28
M  V30 29 1 11 29
M  V30 30 1 14 30
M  V30 31 1 14 31
M  V30 END BOND
M  V30 END CTAB
M  END
