
     RDKit          3D

  0  0  0  0  0  0  0  0  0  0999 V3000
M  V30 BEGIN CTAB
M  V30 COUNTS 29 31 0 0 0
M  V30 BEGIN ATOM
M  V30 1 N 5.05146 0.766491 0.855252 0
M  V30 2 C 3.77103 0.413738 0.37809 0
M  V30 3 C 2.80451 -0.0840751 1.22311 0
M  V30 4 C 1.55013 -0.436552 0.791563 0
M  V30 5 C 1.26409 -0.275068 -0.56573 0
M  V30 6 C 0.0249406 -0.565622 -1.29364 0
M  V30 7 C -1.20332 -0.413429 -0.507649 0
M  V30 8 C -1.50165 -0.588841 0.828966 0
M  V30 9 C -2.7548 -0.384169 1.36336 0
M  V30 10 C -3.78874 0.0210731 0.528814 0
M  V30 11 N -5.09879 0.24671 1.02425 0
M  V30 12 C -3.5173 0.20615 -0.824868 0
M  V30 13 C -2.24775 -0.0106492 -1.31525 0
M  V30 14 N -0.577935 -0.997289 1.82379 0
M  V30 15 N 0.688084 -0.929447 1.79795 0
M  V30 16 C 2.2115 0.221381 -1.4382 0
M  V30 17 C 3.45707 0.56253 -0.963624 0
M  V30 18 H 5.95391 0.399897 0.429248 0
M  V30 19 H 5.17541 1.41447 1.66204 0
M  V30 20 H 2.9946 -0.224498 2.29758 0
M  V30 21 H -0.0405925 0.152124 -2.15694 0
M  V30 22 H 0.0368562 -1.57555 -1.77534 0
M  V30 23 H -2.94848 -0.535348 2.43248 0
M  V30 24 H -5.79657 -0.51136 0.928074 0
M  V30 25 H -5.34937 1.14618 1.47009 0
M  V30 26 H -4.34581 0.526956 -1.47253 0
M  V30 27 H -2.05595 0.141713 -2.38822 0
M  V30 28 H 2.01448 0.355446 -2.49204 0
M  V30 29 H 4.22901 0.957032 -1.62243 0
M  V30 END ATOM
M  V30 BEGIN BOND
M  V30 1 1 1 2
M  V30 2 2 2 3
M  V30 3 1 3 4
M  V30 4 2 4 5
M  V30 5 1 5 6
M  V30 6 1 6 7
M  V30 7 2 7 8
M  V30 8 1 8 9
M  V30 9 2 9 10
M  V30 10 1 10 11
M  V30 11 1 10 12
M  V30 12 2 12 13
M  V30 13 1 8 14
M  V30 14 2 14 15
M  V30 15 1 5 16
M  V30 16 2 16 17
M  V30 17 1 17 2
M  V30 18 1 15 4
M  V30 19 1 13 7
M  V30 20 1 1 18
M  V30 21 1 1 19
M  V30 22 1 3 20
M  V30 23 1 6 21
M  V30 24 1 6 22
M  V30 25 1 9 23
M  V30 26 1 11 24
M  V30 27 1 11 25
M  V30 28 1 12 26
M  V30 29 1 13 27
M  V30 30 1 16 28
M  V30 31 1 17 29
M  V30 END BOND
M  V30 END CTAB
M  END
