
     RDKit          3D

  0  0  0  0  0  0  0  0  0  0999 V3000
M  V30 BEGIN CTAB
M  V30 COUNTS 27 27 0 0 0
M  V30 BEGIN ATOM
M  V30 1 N 2.61661 1.37605 -1.21627 0
M  V30 2 C 1.70156 0.527966 -0.540291 0
M  V30 3 N 0.338099 0.649317 -0.690011 0
M  V30 4 C -0.495987 -0.186238 0.00521248 0
M  V30 5 N 0.0558296 -1.09964 0.804582 0
M  V30 6 C 1.35685 -1.25069 0.990026 0
M  V30 7 O 1.76987 -2.14238 1.7751 0
M  V30 8 C 2.22354 -0.421549 0.310628 0
M  V30 9 C 3.67366 -0.497778 0.533372 0
M  V30 10 C -1.90608 0.103513 -0.105731 0
M  V30 11 N -2.02885 1.37622 0.672866 0
M  V30 12 C -2.86315 -0.853866 0.457386 0
M  V30 13 C -2.30886 0.498614 -1.49256 0
M  V30 14 H 2.77761 2.37695 -0.980962 0
M  V30 15 H 3.1657 0.985548 -2.00177 0
M  V30 16 H -0.623423 -1.7235 1.31524 0
M  V30 17 H 4.14662 0.506094 0.620314 0
M  V30 18 H 3.88805 -1.00779 1.52195 0
M  V30 19 H 4.16459 -1.08347 -0.237638 0
M  V30 20 H -2.04908 1.2149 1.67687 0
M  V30 21 H -2.53371 2.08963 0.217432 0
M  V30 22 H -2.52901 -1.88132 0.681913 0
M  V30 23 H -3.37518 -0.489151 1.3724 0
M  V30 24 H -3.71338 -1.02748 -0.282111 0
M  V30 25 H -2.10982 -0.244775 -2.26784 0
M  V30 26 H -1.89875 1.52194 -1.71567 0
M  V30 27 H -3.44333 0.682889 -1.42442 0
M  V30 END ATOM
M  V30 BEGIN BOND
M  V30 1 1 1 2
M  V30 2 1 2 3
M  V30 3 2 3 4
M  V30 4 1 4 5
M  V30 5 1 5 6
M  V30 6 2 6 7
M  V30 7 1 6 8
M  V30 8 1 8 9
M  V30 9 1 4 10
M  V30 10 1 10 11
M  V30 11 1 10 12
M  V30 12 1 10 13
M  V30 13 2 8 2
M  V30 14 1 1 14
M  V30 15 1 1 15
M  V30 16 1 5 16
M  V30 17 1 9 17
M  V30 18 1 9 18
M  V30 19 1 9 19
M  V30 20 1 11 20
M  V30 21 1 11 21
M  V30 22 1 12 22
M  V30 23 1 12 23
M  V30 24 1 12 24
M  V30 25 1 13 25
M  V30 26 1 13 26
M  V30 27 1 13 27
M  V30 END BOND
M  V30 END CTAB
M  END
