
     RDKit          3D

  0  0  0  0  0  0  0  0  0  0999 V3000
M  V30 BEGIN CTAB
M  V30 COUNTS 78 82 0 0 0
M  V30 BEGIN ATOM
M  V30 1 C 3.1813 1.27751 3.56842 0
M  V30 2 C 3.87106 -0.0264327 3.30503 0
M  V30 3 C 4.15963 -0.181854 1.84612 0
M  V30 4 O 2.94443 -0.159235 1.15628 0
M  V30 5 C 2.81444 -0.284292 -0.290702 0
M  V30 6 C 2.8284 0.805913 -1.12455 0
M  V30 7 C 2.72559 2.30827 -0.854407 0
M  V30 8 C 1.25469 2.74488 -0.931222 0
M  V30 9 C 1.08544 3.43029 -2.14776 0
M  V30 10 C -0.137208 3.8478 -2.59685 0
M  V30 11 N -0.294523 4.53975 -3.8207 0
M  V30 12 C -1.17883 3.54233 -1.76839 0
M  V30 13 C -1.09046 2.87254 -0.559099 0
M  V30 14 C -2.4695 2.60495 -0.0123547 0
M  V30 15 C -2.90315 1.16979 -0.229915 0
M  V30 16 C -3.27978 1.03013 -1.56508 0
M  V30 17 C -3.55699 -0.163136 -2.18056 0
M  V30 18 C -3.42454 -1.23996 -1.34765 0
M  V30 19 C -3.04675 -1.15759 0.00994702 0
M  V30 20 C -2.81555 -2.59843 0.472889 0
M  V30 21 C -1.43065 -3.07258 0.0116598 0
M  V30 22 C -1.63536 -3.94073 -1.0791 0
M  V30 23 C -0.615477 -4.45862 -1.82641 0
M  V30 24 N -0.836497 -5.32831 -2.91407 0
M  V30 25 C 0.629393 -4.05829 -1.42504 0
M  V30 26 C 0.912667 -3.20938 -0.366018 0
M  V30 27 C 2.3817 -2.89512 -0.340651 0
M  V30 28 C 2.67952 -1.51504 -0.921874 0
M  V30 29 C 2.58418 -1.61096 -2.31749 0
M  V30 30 C 2.60666 -0.539469 -3.17005 0
M  V30 31 C 2.72896 0.662486 -2.53358 0
M  V30 32 C -0.160476 -2.68516 0.410223 0
M  V30 33 O 0.124123 -1.84428 1.51007 0
M  V30 34 C -2.78612 0.0507934 0.602336 0
M  V30 35 O -2.42214 0.172045 2.01177 0
M  V30 36 C -3.35955 0.320721 3.04427 0
M  V30 37 C -2.6502 0.405314 4.33206 0
M  V30 38 C -1.72126 1.57727 4.36001 0
M  V30 39 C 0.187307 2.44937 -0.0943471 0
M  V30 40 O 0.294887 1.79167 1.14957 0
M  V30 41 H 2.21323 1.09224 4.08823 0
M  V30 42 H 2.94218 1.78782 2.60116 0
M  V30 43 H 3.83013 1.93599 4.20971 0
M  V30 44 H 4.81918 -0.085604 3.88585 0
M  V30 45 H 3.18498 -0.877295 3.58957 0
M  V30 46 H 4.66594 -1.14221 1.67578 0
M  V30 47 H 4.84786 0.61399 1.46902 0
M  V30 48 H 3.31827 2.83337 -1.70609 0
M  V30 49 H 3.30955 2.7324 -0.0592305 0
M  V30 50 H 1.9446 3.68489 -2.79737 0
M  V30 51 H 0.500224 4.62321 -4.49354 0
M  V30 52 H -1.21314 4.96478 -4.04072 0
M  V30 53 H -2.15758 3.9137 -2.17379 0
M  V30 54 H -2.79207 3.15921 0.871022 0
M  V30 55 H -3.19522 3.17028 -0.700776 0
M  V30 56 H -3.38288 1.90936 -2.24348 0
M  V30 57 H -3.85092 -0.24133 -3.21235 0
M  V30 58 H -3.64571 -2.22597 -1.81943 0
M  V30 59 H -3.62805 -3.24472 -0.047542 0
M  V30 60 H -3.11154 -2.87225 1.47 0
M  V30 61 H -2.64812 -4.2723 -1.38596 0
M  V30 62 H -0.284862 -5.24346 -3.78099 0
M  V30 63 H -1.56511 -6.06143 -2.83594 0
M  V30 64 H 1.44116 -4.51729 -2.05184 0
M  V30 65 H 2.99702 -3.29454 0.460279 0
M  V30 66 H 2.87201 -3.5723 -1.1297 0
M  V30 67 H 2.48325 -2.59325 -2.83009 0
M  V30 68 H 2.53669 -0.639006 -4.24096 0
M  V30 69 H 2.75357 1.55746 -3.19382 0
M  V30 70 H 0.0306275 -1.3313 2.20662 0
M  V30 71 H -4.01008 1.19221 2.82373 0
M  V30 72 H -4.05736 -0.563527 3.04446 0
M  V30 73 H -3.40033 0.502507 5.17302 0
M  V30 74 H -2.12542 -0.54097 4.53207 0
M  V30 75 H -2.17544 2.51151 4.02295 0
M  V30 76 H -1.40578 1.74203 5.42523 0
M  V30 77 H -0.801651 1.3703 3.80391 0
M  V30 78 H 0.581398 1.38658 1.86263 0
M  V30 END ATOM
M  V30 BEGIN BOND
M  V30 1 1 1 2
M  V30 2 1 2 3
M  V30 3 1 3 4
M  V30 4 1 4 5
M  V30 5 2 5 6
M  V30 6 1 6 7
M  V30 7 1 7 8
M  V30 8 2 8 9
M  V30 9 1 9 10
M  V30 10 1 10 11
M  V30 11 2 10 12
M  V30 12 1 12 13
M  V30 13 1 13 14
M  V30 14 1 14 15
M  V30 15 2 15 16
M  V30 16 1 16 17
M  V30 17 2 17 18
M  V30 18 1 18 19
M  V30 19 1 19 20
M  V30 20 1 20 21
M  V30 21 2 21 22
M  V30 22 1 22 23
M  V30 23 1 23 24
M  V30 24 2 23 25
M  V30 25 1 25 26
M  V30 26 1 26 27
M  V30 27 1 27 28
M  V30 28 2 28 29
M  V30 29 1 29 30
M  V30 30 2 30 31
M  V30 31 2 26 32
M  V30 32 1 32 33
M  V30 33 2 19 34
M  V30 34 1 34 35
M  V30 35 1 35 36
M  V30 36 1 36 37
M  V30 37 1 37 38
M  V30 38 2 13 39
M  V30 39 1 39 40
M  V30 40 1 28 5
M  V30 41 1 31 6
M  V30 42 1 39 8
M  V30 43 1 34 15
M  V30 44 1 32 21
M  V30 45 1 1 41
M  V30 46 1 1 42
M  V30 47 1 1 43
M  V30 48 1 2 44
M  V30 49 1 2 45
M  V30 50 1 3 46
M  V30 51 1 3 47
M  V30 52 1 7 48
M  V30 53 1 7 49
M  V30 54 1 9 50
M  V30 55 1 11 51
M  V30 56 1 11 52
M  V30 57 1 12 53
M  V30 58 1 14 54
M  V30 59 1 14 55
M  V30 60 1 16 56
M  V30 61 1 17 57
M  V30 62 1 18 58
M  V30 63 1 20 59
M  V30 64 1 20 60
M  V30 65 1 22 61
M  V30 66 1 24 62
M  V30 67 1 24 63
M  V30 68 1 25 64
M  V30 69 1 27 65
M  V30 70 1 27 66
M  V30 71 1 29 67
M  V30 72 1 30 68
M  V30 73 1 31 69
M  V30 74 1 33 70
M  V30 75 1 36 71
M  V30 76 1 36 72
M  V30 77 1 37 73
M  V30 78 1 37 74
M  V30 79 1 38 75
M  V30 80 1 38 76
M  V30 81 1 38 77
M  V30 82 1 40 78
M  V30 END BOND
M  V30 END CTAB
M  END
