
     RDKit          3D

  0  0  0  0  0  0  0  0  0  0999 V3000
M  V30 BEGIN CTAB
M  V30 COUNTS 39 40 0 0 0
M  V30 BEGIN ATOM
M  V30 1 N 7.07543 1.29583 0.200055 0
M  V30 2 C 7.41257 -0.0720266 0.0434971 0
M  V30 3 N 6.48408 -0.953944 0.0809201 0
M  V30 4 N 5.1649 -0.5491 0.274498 0
M  V30 5 C 4.17245 -0.920426 -0.421556 0
M  V30 6 C 2.80008 -0.478915 -0.194843 0
M  V30 7 C 2.47953 0.399964 0.824183 0
M  V30 8 C 1.17792 0.811568 1.0303 0
M  V30 9 C 0.134934 0.369466 0.234162 0
M  V30 10 C 0.451685 -0.507654 -0.783569 0
M  V30 11 C 1.75606 -0.914426 -0.983019 0
M  V30 12 O -1.18113 0.769881 0.422943 0
M  V30 13 S -2.28809 -0.018923 1.40753 0
M  V30 14 O -2.44153 0.799023 2.6758 0
M  V30 15 O -1.90002 -1.41459 1.74591 0
M  V30 16 C -3.85458 0.0347658 0.592891 0
M  V30 17 C -4.23561 -0.966789 -0.27581 0
M  V30 18 C -5.46481 -0.908972 -0.904685 0
M  V30 19 C -6.34973 0.129673 -0.6985 0
M  V30 20 C -5.96695 1.12611 0.167766 0
M  V30 21 C -4.739 1.07255 0.798774 0
M  V30 22 C -7.66889 0.160253 -1.3942 0
M  V30 23 N 8.75313 -0.507788 -0.155278 0
M  V30 24 H 7.0758 1.98925 -0.568515 0
M  V30 25 H 6.80979 1.62782 1.14801 0
M  V30 26 H 4.33633 -1.60746 -1.23852 0
M  V30 27 H 3.29512 0.748225 1.44992 0
M  V30 28 H 0.937999 1.49683 1.82719 0
M  V30 29 H -0.353391 -0.877849 -1.43414 0
M  V30 30 H 2.01168 -1.61287 -1.79263 0
M  V30 31 H -3.53907 -1.78913 -0.441277 0
M  V30 32 H -5.76184 -1.6914 -1.58298 0
M  V30 33 H -6.64933 1.95469 0.345047 0
M  V30 34 H -4.41917 1.85581 1.49 0
M  V30 35 H -7.58285 -0.478624 -2.28571 0
M  V30 36 H -8.4693 -0.260383 -0.742728 0
M  V30 37 H -7.96888 1.1998 -1.63305 0
M  V30 38 H 9.43447 -0.281972 0.596476 0
M  V30 39 H 9.07024 -1.02827 -0.998071 0
M  V30 END ATOM
M  V30 BEGIN BOND
M  V30 1 1 1 2
M  V30 2 2 2 3
M  V30 3 1 3 4
M  V30 4 2 4 5
M  V30 5 1 5 6
M  V30 6 2 6 7
M  V30 7 1 7 8
M  V30 8 2 8 9
M  V30 9 1 9 10
M  V30 10 2 10 11
M  V30 11 1 9 12
M  V30 12 1 12 13
M  V30 13 2 13 14
M  V30 14 2 13 15
M  V30 15 1 13 16
M  V30 16 2 16 17
M  V30 17 1 17 18
M  V30 18 2 18 19
M  V30 19 1 19 20
M  V30 20 2 20 21
M  V30 21 1 19 22
M  V30 22 1 2 23
M  V30 23 1 11 6
M  V30 24 1 21 16
M  V30 25 1 1 24
M  V30 26 1 1 25
M  V30 27 1 5 26
M  V30 28 1 7 27
M  V30 29 1 8 28
M  V30 30 1 10 29
M  V30 31 1 11 30
M  V30 32 1 17 31
M  V30 33 1 18 32
M  V30 34 1 20 33
M  V30 35 1 21 34
M  V30 36 1 22 35
M  V30 37 1 22 36
M  V30 38 1 22 37
M  V30 39 1 23 38
M  V30 40 1 23 39
M  V30 END BOND
M  V30 END CTAB
M  END
