
     RDKit          3D

  0  0  0  0  0  0  0  0  0  0999 V3000
M  V30 BEGIN CTAB
M  V30 COUNTS 28 29 0 0 0
M  V30 BEGIN ATOM
M  V30 1 N -5.14032 -0.918553 -0.173315 0
M  V30 2 N -4.20486 -0.39736 -1.06269 0
M  V30 3 C -3.03891 0.264222 -0.562217 0
M  V30 4 N -1.81343 -0.279527 -0.577366 0
M  V30 5 C -0.759891 0.384871 -0.104746 0
M  V30 6 C -0.883205 1.6579 0.421521 0
M  V30 7 C -2.11282 2.26636 0.464235 0
M  V30 8 C -3.18066 1.55801 -0.0317839 0
M  V30 9 C 0.594769 -0.195286 -0.114636 0
M  V30 10 C 0.848395 -1.45867 -0.61489 0
M  V30 11 C 2.12997 -1.9951 -0.623795 0
M  V30 12 C 3.19941 -1.25447 -0.118172 0
M  V30 13 C 2.91321 0.00191015 0.372685 0
M  V30 14 N 3.92078 0.851384 0.884557 0
M  V30 15 N 5.29863 0.527903 0.854718 0
M  V30 16 N 1.65454 0.471902 0.357307 0
M  V30 17 H -4.76901 -1.7041 0.364898 0
M  V30 18 H -5.46583 -0.159224 0.4982 0
M  V30 19 H -4.32919 -0.469935 -2.07337 0
M  V30 20 H 0.0149229 2.15931 0.793144 0
M  V30 21 H -2.1919 3.25825 0.880367 0
M  V30 22 H -4.14147 1.996 -0.0210157 0
M  V30 23 H 0.0437344 -2.05401 -1.00973 0
M  V30 24 H 2.35629 -2.97914 -1.00867 0
M  V30 25 H 4.20729 -1.64662 -0.108734 0
M  V30 26 H 3.67819 1.78469 1.31987 0
M  V30 27 H 5.68511 0.869213 -0.06181 0
M  V30 28 H 5.48626 -0.469308 1.05544 0
M  V30 END ATOM
M  V30 BEGIN BOND
M  V30 1 1 1 2
M  V30 2 1 2 3
M  V30 3 2 3 4
M  V30 4 1 4 5
M  V30 5 2 5 6
M  V30 6 1 6 7
M  V30 7 2 7 8
M  V30 8 1 5 9
M  V30 9 2 9 10
M  V30 10 1 10 11
M  V30 11 2 11 12
M  V30 12 1 12 13
M  V30 13 1 13 14
M  V30 14 1 14 15
M  V30 15 2 13 16
M  V30 16 1 8 3
M  V30 17 1 16 9
M  V30 18 1 1 17
M  V30 19 1 1 18
M  V30 20 1 2 19
M  V30 21 1 6 20
M  V30 22 1 7 21
M  V30 23 1 8 22
M  V30 24 1 10 23
M  V30 25 1 11 24
M  V30 26 1 12 25
M  V30 27 1 14 26
M  V30 28 1 15 27
M  V30 29 1 15 28
M  V30 END BOND
M  V30 END CTAB
M  END
