
     RDKit          3D

  0  0  0  0  0  0  0  0  0  0999 V3000
M  V30 BEGIN CTAB
M  V30 COUNTS 21 22 0 0 0
M  V30 BEGIN ATOM
M  V30 1 N -3.19825 -0.733133 -0.0623055 0
M  V30 2 C -1.79359 -0.512489 -0.0135457 0
M  V30 3 C -0.877889 -1.48299 -0.403474 0
M  V30 4 C 0.482775 -1.26125 -0.353232 0
M  V30 5 C 0.904374 -0.0169232 0.107232 0
M  V30 6 C 0.000406059 0.946002 0.494004 0
M  V30 7 C -1.35912 0.720385 0.442268 0
M  V30 8 N -2.30212 1.69732 0.835311 0
M  V30 9 C 2.34433 0.232428 0.165996 0
M  V30 10 N 2.89999 1.36614 0.581328 0
M  V30 11 N 4.21831 1.22351 0.494773 0
M  V30 12 N 4.49653 0.0166891 0.0311629 0
M  V30 13 N 3.33907 -0.595357 -0.171871 0
M  V30 14 H -3.87391 -0.0231067 -0.397848 0
M  V30 15 H -3.53252 -1.67428 0.265871 0
M  V30 16 H -1.24006 -2.43515 -0.754846 0
M  V30 17 H 1.22421 -1.99177 -0.648027 0
M  V30 18 H 0.3369 1.9262 0.856624 0
M  V30 19 H -3.2433 1.82201 0.40192 0
M  V30 20 H -2.04341 2.34241 1.61411 0
M  V30 21 H 3.21728 -1.56665 -0.536451 0
M  V30 END ATOM
M  V30 BEGIN BOND
M  V30 1 1 1 2
M  V30 2 2 2 3
M  V30 3 1 3 4
M  V30 4 2 4 5
M  V30 5 1 5 6
M  V30 6 2 6 7
M  V30 7 1 7 8
M  V30 8 1 5 9
M  V30 9 2 9 10
M  V30 10 1 10 11
M  V30 11 2 11 12
M  V30 12 1 12 13
M  V30 13 1 7 2
M  V30 14 1 13 9
M  V30 15 1 1 14
M  V30 16 1 1 15
M  V30 17 1 3 16
M  V30 18 1 4 17
M  V30 19 1 6 18
M  V30 20 1 8 19
M  V30 21 1 8 20
M  V30 22 1 13 21
M  V30 END BOND
M  V30 END CTAB
M  END
