
     RDKit          3D

  0  0  0  0  0  0  0  0  0  0999 V3000
M  V30 BEGIN CTAB
M  V30 COUNTS 26 27 0 0 0
M  V30 BEGIN ATOM
M  V30 1 Cl 5.8141 1.40022 -1.23876 0
M  V30 2 C 4.27163 0.744871 -0.699762 0
M  V30 3 C 4.22435 -0.565674 -0.227024 0
M  V30 4 C 3.01883 -1.05623 0.186286 0
M  V30 5 C 1.82575 -0.324635 0.165094 0
M  V30 6 C 1.92809 0.949723 -0.305252 0
M  V30 7 C 3.13782 1.49787 -0.740074 0
M  V30 8 N 0.639469 -0.901763 0.62586 0
M  V30 9 C -0.691171 -0.503261 0.401614 0
M  V30 10 N -1.66144 -1.25071 0.987897 0
M  V30 11 C -2.97557 -1.03655 0.879237 0
M  V30 12 N -3.94023 -1.86219 1.52289 0
M  V30 13 C -3.39473 0.0469214 0.0974125 0
M  V30 14 C -2.41311 0.809174 -0.500173 0
M  V30 15 N -1.11162 0.514103 -0.331485 0
M  V30 16 N -2.81417 1.9063 -1.29276 0
M  V30 17 H 5.13538 -1.14737 -0.202657 0
M  V30 18 H 2.95054 -2.06785 0.55564 0
M  V30 19 H 1.04688 1.58527 -0.341141 0
M  V30 20 H 3.15304 2.5037 -1.09871 0
M  V30 21 H 0.785541 -1.77009 1.24262 0
M  V30 22 H -4.68818 -1.42872 2.07331 0
M  V30 23 H -3.87148 -2.88035 1.4255 0
M  V30 24 H -4.45114 0.228341 0.00322936 0
M  V30 25 H -3.16516 2.77868 -0.868469 0
M  V30 26 H -2.75343 1.83022 -2.32031 0
M  V30 END ATOM
M  V30 BEGIN BOND
M  V30 1 1 1 2
M  V30 2 2 2 3
M  V30 3 1 3 4
M  V30 4 2 4 5
M  V30 5 1 5 6
M  V30 6 2 6 7
M  V30 7 1 5 8
M  V30 8 1 8 9
M  V30 9 2 9 10
M  V30 10 1 10 11
M  V30 11 1 11 12
M  V30 12 2 11 13
M  V30 13 1 13 14
M  V30 14 2 14 15
M  V30 15 1 14 16
M  V30 16 1 7 2
M  V30 17 1 15 9
M  V30 18 1 3 17
M  V30 19 1 4 18
M  V30 20 1 6 19
M  V30 21 1 7 20
M  V30 22 1 8 21
M  V30 23 1 12 22
M  V30 24 1 12 23
M  V30 25 1 13 24
M  V30 26 1 16 25
M  V30 27 1 16 26
M  V30 END BOND
M  V30 END CTAB
M  END
