
     RDKit          3D

  0  0  0  0  0  0  0  0  0  0999 V3000
M  V30 BEGIN CTAB
M  V30 COUNTS 34 35 0 0 0
M  V30 BEGIN ATOM
M  V30 1 N 4.95744 -0.0265645 -1.47571 0
M  V30 2 C 3.97931 -0.576629 -0.60937 0
M  V30 3 C 3.72243 -1.94302 -0.574694 0
M  V30 4 C 2.76483 -2.44918 0.278533 0
M  V30 5 C 2.02115 -1.66073 1.1276 0
M  V30 6 C 2.27363 -0.282437 1.09908 0
M  V30 7 C 3.23475 0.214562 0.240994 0
M  V30 8 S 1.35645 0.742178 2.15494 0
M  V30 9 O 2.34261 1.69129 2.82102 0
M  V30 10 O 0.755038 -0.0931451 3.28562 0
M  V30 11 N 0.144938 1.59873 1.35302 0
M  V30 12 C -0.972432 1.11228 0.637532 0
M  V30 13 C -0.857276 0.210641 -0.378776 0
M  V30 14 C -2.00001 -0.201604 -1.05289 0
M  V30 15 C -3.24862 0.257337 -0.745236 0
M  V30 16 C -3.3487 1.16516 0.27958 0
M  V30 17 C -2.25254 1.60048 0.972576 0
M  V30 18 S -4.63332 -0.310863 -1.64085 0
M  V30 19 N -4.84898 0.7678 -2.98794 0
M  V30 20 O -5.87152 -0.372205 -0.823694 0
M  V30 21 O -4.38065 -1.70351 -2.18142 0
M  V30 22 H 5.1518 0.990144 -1.46401 0
M  V30 23 H 5.47952 -0.634201 -2.12073 0
M  V30 24 H 4.29875 -2.55873 -1.23341 0
M  V30 25 H 2.5738 -3.53384 0.293493 0
M  V30 26 H 1.2765 -2.08616 1.78605 0
M  V30 27 H 3.43502 1.29759 0.21679 0
M  V30 28 H 0.210362 2.66924 1.37507 0
M  V30 29 H 0.102736 -0.179232 -0.683893 0
M  V30 30 H -1.86662 -0.91649 -1.85035 0
M  V30 31 H -4.35118 1.53506 0.527693 0
M  V30 32 H -2.32288 2.32202 1.78871 0
M  V30 33 H -3.90063 1.10274 -3.26994 0
M  V30 34 H -5.22569 0.251297 -3.829 0
M  V30 END ATOM
M  V30 BEGIN BOND
M  V30 1 1 1 2
M  V30 2 2 2 3
M  V30 3 1 3 4
M  V30 4 2 4 5
M  V30 5 1 5 6
M  V30 6 2 6 7
M  V30 7 1 6 8
M  V30 8 2 8 9
M  V30 9 2 8 10
M  V30 10 1 8 11
M  V30 11 1 11 12
M  V30 12 2 12 13
M  V30 13 1 13 14
M  V30 14 2 14 15
M  V30 15 1 15 16
M  V30 16 2 16 17
M  V30 17 1 15 18
M  V30 18 1 18 19
M  V30 19 2 18 20
M  V30 20 2 18 21
M  V30 21 1 7 2
M  V30 22 1 17 12
M  V30 23 1 1 22
M  V30 24 1 1 23
M  V30 25 1 3 24
M  V30 26 1 4 25
M  V30 27 1 5 26
M  V30 28 1 7 27
M  V30 29 1 11 28
M  V30 30 1 13 29
M  V30 31 1 14 30
M  V30 32 1 16 31
M  V30 33 1 17 32
M  V30 34 1 19 33
M  V30 35 1 19 34
M  V30 END BOND
M  V30 END CTAB
M  END
