
     RDKit          3D

  0  0  0  0  0  0  0  0  0  0999 V3000
M  V30 BEGIN CTAB
M  V30 COUNTS 49 51 0 0 0
M  V30 BEGIN ATOM
M  V30 1 N 6.53059 1.16787 1.17672 0
M  V30 2 C 5.09423 1.00999 1.27307 0
M  V30 3 C 4.71619 -0.408616 1.66313 0
M  V30 4 C 3.23579 -0.535291 1.7527 0
M  V30 5 O 2.49051 -0.272737 0.640928 0
M  V30 6 C 2.4284 -0.867196 -0.595802 0
M  V30 7 C 3.17626 -1.95952 -0.960349 0
M  V30 8 C 3.10619 -2.55733 -2.21538 0
M  V30 9 Cl 4.09392 -3.95664 -2.61949 0
M  V30 10 C 2.25089 -2.0289 -3.12375 0
M  V30 11 C 1.48107 -0.936256 -2.805 0
M  V30 12 C 1.56132 -0.363191 -1.57403 0
M  V30 13 C 0.760362 0.796096 -1.20115 0
M  V30 14 O 1.27218 1.91629 -1.43088 0
M  V30 15 N -0.527191 0.683568 -0.610808 0
M  V30 16 C -1.0436 -0.627351 -0.379832 0
M  V30 17 C -2.51944 -0.700171 -0.180358 0
M  V30 18 C -3.14914 0.55247 0.319737 0
M  V30 19 C -2.73016 1.73548 -0.523862 0
M  V30 20 C -1.22477 1.9088 -0.285083 0
M  V30 21 C -4.6272 0.381285 0.261484 0
M  V30 22 N -5.36901 0.0758018 -0.814851 0
M  V30 23 N -6.64395 0.00227252 -0.511608 0
M  V30 24 C -6.76216 0.264546 0.799741 0
M  V30 25 N -5.51478 0.495112 1.25951 0
M  V30 26 N -7.96113 0.29801 1.57418 0
M  V30 27 H 6.81914 2.14049 1.3517 0
M  V30 28 H 6.85454 0.751692 0.298112 0
M  V30 29 H 4.68226 1.18433 0.257795 0
M  V30 30 H 4.65625 1.7383 1.98326 0
M  V30 31 H 5.21694 -1.1512 1.03576 0
M  V30 32 H 5.10565 -0.536539 2.71468 0
M  V30 33 H 2.90578 0.201891 2.55753 0
M  V30 34 H 3.0137 -1.52879 2.22714 0
M  V30 35 H 3.86 -2.43068 -0.279076 0
M  V30 36 H 2.17126 -2.47413 -4.11883 0
M  V30 37 H 0.797852 -0.544166 -3.58511 0
M  V30 38 H -0.566575 -1.00041 0.573959 0
M  V30 39 H -0.731029 -1.27191 -1.2393 0
M  V30 40 H -2.79569 -1.52056 0.545855 0
M  V30 41 H -3.02546 -0.985174 -1.12761 0
M  V30 42 H -2.86714 0.802763 1.36961 0
M  V30 43 H -2.96512 1.61193 -1.58667 0
M  V30 44 H -3.20045 2.66817 -0.166429 0
M  V30 45 H -1.14047 2.15537 0.809056 0
M  V30 46 H -0.896826 2.76358 -0.887138 0
M  V30 47 H -5.2681 0.732289 2.26408 0
M  V30 48 H -8.1038 1.07381 2.23166 0
M  V30 49 H -8.64807 -0.455462 1.45196 0
M  V30 END ATOM
M  V30 BEGIN BOND
M  V30 1 1 1 2
M  V30 2 1 2 3
M  V30 3 1 3 4
M  V30 4 1 4 5
M  V30 5 1 5 6
M  V30 6 2 6 7
M  V30 7 1 7 8
M  V30 8 1 8 9
M  V30 9 2 8 10
M  V30 10 1 10 11
M  V30 11 2 11 12
M  V30 12 1 12 13
M  V30 13 2 13 14
M  V30 14 1 13 15
M  V30 15 1 15 16
M  V30 16 1 16 17
M  V30 17 1 17 18
M  V30 18 1 18 19
M  V30 19 1 19 20
M  V30 20 1 18 21
M  V30 21 2 21 22
M  V30 22 1 22 23
M  V30 23 2 23 24
M  V30 24 1 24 25
M  V30 25 1 24 26
M  V30 26 1 12 6
M  V30 27 1 20 15
M  V30 28 1 25 21
M  V30 29 1 1 27
M  V30 30 1 1 28
M  V30 31 1 2 29
M  V30 32 1 2 30
M  V30 33 1 3 31
M  V30 34 1 3 32
M  V30 35 1 4 33
M  V30 36 1 4 34
M  V30 37 1 7 35
M  V30 38 1 10 36
M  V30 39 1 11 37
M  V30 40 1 16 38
M  V30 41 1 16 39
M  V30 42 1 17 40
M  V30 43 1 17 41
M  V30 44 1 18 42
M  V30 45 1 19 43
M  V30 46 1 19 44
M  V30 47 1 20 45
M  V30 48 1 20 46
M  V30 49 1 25 47
M  V30 50 1 26 48
M  V30 51 1 26 49
M  V30 END BOND
M  V30 END CTAB
M  END
