
     RDKit          3D

  0  0  0  0  0  0  0  0  0  0999 V3000
M  V30 BEGIN CTAB
M  V30 COUNTS 60 64 0 0 0
M  V30 BEGIN ATOM
M  V30 1 N 6.81894 -2.16756 1.17591 0
M  V30 2 C 5.62072 -1.4148 1.11359 0
M  V30 3 C 5.61667 -0.188283 0.481523 0
M  V30 4 C 4.46327 0.560517 0.409469 0
M  V30 5 C 3.27239 0.136326 0.953951 0
M  V30 6 C 3.28033 -1.09355 1.58672 0
M  V30 7 C 4.42306 -1.86357 1.67194 0
M  V30 8 C 2.03093 0.986271 0.86149 0
M  V30 9 N 1.35552 0.904296 -0.341267 0
M  V30 10 C 0.823904 -0.337466 -0.773866 0
M  V30 11 C 0.929295 -0.547746 -2.2597 0
M  V30 12 S -0.288369 -1.81547 -2.49563 0
M  V30 13 O -1.29309 -1.44784 -3.5392 0
M  V30 14 O 0.37362 -3.13733 -2.78009 0
M  V30 15 C -0.992921 -1.7756 -0.854109 0
M  V30 16 C -0.586663 -0.4456 -0.325604 0
M  V30 17 N -1.38966 0.666386 -0.588227 0
M  V30 18 C -0.763406 1.87093 -1.08952 0
M  V30 19 C 0.676183 2.04251 -0.885401 0
M  V30 20 C 1.01741 3.31459 -0.16237 0
M  V30 21 S -0.236099 4.38526 -0.900136 0
M  V30 22 O -0.473129 5.59499 -0.0914949 0
M  V30 23 O 0.0196362 4.61939 -2.33245 0
M  V30 24 C -1.50659 3.12922 -0.635408 0
M  V30 25 C -2.40827 0.948716 0.384681 0
M  V30 26 C -3.39082 -0.108876 0.649648 0
M  V30 27 C -4.48315 -0.360977 -0.13395 0
M  V30 28 C -5.37681 -1.36544 0.194558 0
M  V30 29 C -5.20599 -2.15548 1.32226 0
M  V30 30 C -4.09879 -1.89584 2.11047 0
M  V30 31 C -3.23595 -0.903748 1.76733 0
M  V30 32 N -6.11574 -3.18623 1.66315 0
M  V30 33 H 7.75691 -1.72875 1.20823 0
M  V30 34 H 6.81072 -3.22428 1.19119 0
M  V30 35 H 6.5459 0.177724 0.0391033 0
M  V30 36 H 4.52552 1.51509 -0.099625 0
M  V30 37 H 2.32649 -1.418 2.01409 0
M  V30 38 H 4.42467 -2.81298 2.16002 0
M  V30 39 H 1.36441 0.578975 1.6823 0
M  V30 40 H 2.33522 1.97733 1.22096 0
M  V30 41 H 1.3949 -1.16127 -0.296759 0
M  V30 42 H 0.718899 0.323312 -2.87496 0
M  V30 43 H 1.9546 -0.917142 -2.48191 0
M  V30 44 H -0.392792 -2.54179 -0.275216 0
M  V30 45 H -2.01019 -2.08426 -0.817063 0
M  V30 46 H -0.533851 -0.566978 0.803204 0
M  V30 47 H -0.988213 1.8347 -2.19078 0
M  V30 48 H 1.18746 2.18313 -1.89699 0
M  V30 49 H 0.785015 3.29794 0.915343 0
M  V30 50 H 1.96779 3.74638 -0.435675 0
M  V30 51 H -1.60279 3.15771 0.490891 0
M  V30 52 H -2.41813 3.32998 -1.17709 0
M  V30 53 H -1.89402 1.23287 1.33438 0
M  V30 54 H -3.04232 1.82483 0.109958 0
M  V30 55 H -4.63067 0.246744 -1.01912 0
M  V30 56 H -6.23356 -1.55207 -0.431557 0
M  V30 57 H -3.95538 -2.50863 2.99648 0
M  V30 58 H -2.37662 -0.730846 2.41431 0
M  V30 59 H -5.98688 -3.7215 2.53589 0
M  V30 60 H -6.90951 -3.40622 1.0414 0
M  V30 END ATOM
M  V30 BEGIN BOND
M  V30 1 1 1 2
M  V30 2 2 2 3
M  V30 3 1 3 4
M  V30 4 2 4 5
M  V30 5 1 5 6
M  V30 6 2 6 7
M  V30 7 1 5 8
M  V30 8 1 8 9
M  V30 9 1 9 10
M  V30 10 1 10 11
M  V30 11 1 11 12
M  V30 12 2 12 13
M  V30 13 2 12 14
M  V30 14 1 12 15
M  V30 15 1 15 16
M  V30 16 1 16 17
M  V30 17 1 17 18
M  V30 18 1 18 19
M  V30 19 1 19 20
M  V30 20 1 20 21
M  V30 21 2 21 22
M  V30 22 2 21 23
M  V30 23 1 21 24
M  V30 24 1 17 25
M  V30 25 1 25 26
M  V30 26 2 26 27
M  V30 27 1 27 28
M  V30 28 2 28 29
M  V30 29 1 29 30
M  V30 30 2 30 31
M  V30 31 1 29 32
M  V30 32 1 7 2
M  V30 33 1 19 9
M  V30 34 1 31 26
M  V30 35 1 16 10
M  V30 36 1 24 18
M  V30 37 1 1 33
M  V30 38 1 1 34
M  V30 39 1 3 35
M  V30 40 1 4 36
M  V30 41 1 6 37
M  V30 42 1 7 38
M  V30 43 1 8 39
M  V30 44 1 8 40
M  V30 45 1 10 41
M  V30 46 1 11 42
M  V30 47 1 11 43
M  V30 48 1 15 44
M  V30 49 1 15 45
M  V30 50 1 16 46
M  V30 51 1 18 47
M  V30 52 1 19 48
M  V30 53 1 20 49
M  V30 54 1 20 50
M  V30 55 1 24 51
M  V30 56 1 24 52
M  V30 57 1 25 53
M  V30 58 1 25 54
M  V30 59 1 27 55
M  V30 60 1 28 56
M  V30 61 1 30 57
M  V30 62 1 31 58
M  V30 63 1 32 59
M  V30 64 1 32 60
M  V30 END BOND
M  V30 END CTAB
M  END
