
     RDKit          3D

  0  0  0  0  0  0  0  0  0  0999 V3000
M  V30 BEGIN CTAB
M  V30 COUNTS 33 35 0 0 0
M  V30 BEGIN ATOM
M  V30 1 C 4.818 0.349459 1.33185 0
M  V30 2 C 3.54466 0.183858 0.575772 0
M  V30 3 C 2.35134 0.280026 1.2405 0
M  V30 4 C 1.16489 0.120629 0.508167 0
M  V30 5 C -0.0594368 0.21208 1.15082 0
M  V30 6 C -1.18577 0.0468099 0.379474 0
M  V30 7 C -2.40584 0.144596 1.05619 0
M  V30 8 C -3.58608 -0.00759155 0.362547 0
M  V30 9 C -4.91782 0.0888029 1.04492 0
M  V30 10 C -3.51816 -0.253273 -0.987631 0
M  V30 11 N -4.74859 -0.406814 -1.68273 0
M  V30 12 C -2.32032 -0.351196 -1.66251 0
M  V30 13 C -1.12807 -0.199756 -0.974357 0
M  V30 14 N 0.0631718 -0.284785 -1.57807 0
M  V30 15 C 1.18798 -0.127049 -0.847695 0
M  V30 16 C 2.42602 -0.219969 -1.49991 0
M  V30 17 C 3.58114 -0.0624817 -0.77434 0
M  V30 18 N 4.83342 -0.151151 -1.40491 0
M  V30 19 H 5.66281 0.473213 0.625651 0
M  V30 20 H 4.74816 1.29009 1.92318 0
M  V30 21 H 5.04682 -0.512843 1.97461 0
M  V30 22 H 2.27268 0.470712 2.29137 0
M  V30 23 H -0.082447 0.407323 2.22034 0
M  V30 24 H -2.43048 0.337518 2.11315 0
M  V30 25 H -5.51762 0.790367 0.423546 0
M  V30 26 H -5.4313 -0.892016 0.977809 0
M  V30 27 H -4.78827 0.432548 2.08122 0
M  V30 28 H -4.95878 -1.30339 -2.13197 0
M  V30 29 H -5.38697 0.439039 -1.69192 0
M  V30 30 H -2.25835 -0.543108 -2.71819 0
M  V30 31 H 2.40754 -0.416193 -2.56968 0
M  V30 32 H 5.27322 -1.0607 -1.65435 0
M  V30 33 H 5.34247 0.725242 -1.63216 0
M  V30 END ATOM
M  V30 BEGIN BOND
M  V30 1 1 1 2
M  V30 2 2 2 3
M  V30 3 1 3 4
M  V30 4 2 4 5
M  V30 5 1 5 6
M  V30 6 2 6 7
M  V30 7 1 7 8
M  V30 8 1 8 9
M  V30 9 2 8 10
M  V30 10 1 10 11
M  V30 11 1 10 12
M  V30 12 2 12 13
M  V30 13 1 13 14
M  V30 14 2 14 15
M  V30 15 1 15 16
M  V30 16 2 16 17
M  V30 17 1 17 18
M  V30 18 1 17 2
M  V30 19 1 15 4
M  V30 20 1 13 6
M  V30 21 1 1 19
M  V30 22 1 1 20
M  V30 23 1 1 21
M  V30 24 1 3 22
M  V30 25 1 5 23
M  V30 26 1 7 24
M  V30 27 1 9 25
M  V30 28 1 9 26
M  V30 29 1 9 27
M  V30 30 1 11 28
M  V30 31 1 11 29
M  V30 32 1 12 30
M  V30 33 1 16 31
M  V30 34 1 18 32
M  V30 35 1 18 33
M  V30 END BOND
M  V30 END CTAB
M  END
