
     RDKit          3D

  0  0  0  0  0  0  0  0  0  0999 V3000
M  V30 BEGIN CTAB
M  V30 COUNTS 40 42 0 0 0
M  V30 BEGIN ATOM
M  V30 1 C -7.93789 -0.738157 -0.569284 0
M  V30 2 O -6.80431 -1.57621 -0.776673 0
M  V30 3 C -5.52048 -1.13733 -0.504529 0
M  V30 4 C -4.48408 -2.02062 -0.736998 0
M  V30 5 C -3.19508 -1.62434 -0.480051 0
M  V30 6 C -2.94005 -0.361629 0.00343421 0
M  V30 7 C -3.96407 0.500044 0.229126 0
M  V30 8 C -5.26801 0.131067 -0.0191673 0
M  V30 9 O -1.63468 0.00625949 0.251433 0
M  V30 10 C -1.37878 1.30013 0.746129 0
M  V30 11 C 0.0915143 1.51393 0.952264 0
M  V30 12 N 0.961351 1.98038 0.038077 0
M  V30 13 O 2.14661 2.02727 0.586384 0
M  V30 14 C 2.10248 1.61109 1.82893 0
M  V30 15 N 0.806071 1.28494 2.06685 0
M  V30 16 C 3.24615 1.51798 2.77957 0
M  V30 17 S 3.99611 -0.120565 2.65851 0
M  V30 18 C 4.75477 -0.283472 1.0541 0
M  V30 19 N 5.36764 -1.45209 0.767215 0
M  V30 20 C 5.95934 -1.63417 -0.419745 0
M  V30 21 N 6.58417 -2.89993 -0.640885 0
M  V30 22 N 5.954 -0.656899 -1.34737 0
M  V30 23 C 5.34772 0.529245 -1.09251 0
M  V30 24 N 4.76846 0.660954 0.114278 0
M  V30 25 N 5.34773 1.54545 -2.06894 0
M  V30 26 H -7.90606 0.148876 -1.2096 0
M  V30 27 H -8.06301 -0.504686 0.516612 0
M  V30 28 H -8.82394 -1.35135 -0.879913 0
M  V30 29 H -4.7108 -3.02221 -1.12271 0
M  V30 30 H -2.40882 -2.34789 -0.675976 0
M  V30 31 H -3.83019 1.51705 0.612251 0
M  V30 32 H -6.11019 0.783676 0.145949 0
M  V30 33 H -1.93072 1.45428 1.71315 0
M  V30 34 H -1.73129 2.05867 0.0293251 0
M  V30 35 H 2.85381 1.72238 3.80152 0
M  V30 36 H 3.99887 2.3152 2.58658 0
M  V30 37 H 7.44217 -3.10704 -0.0916317 0
M  V30 38 H 6.21429 -3.60304 -1.3191 0
M  V30 39 H 4.61328 1.56836 -2.79092 0
M  V30 40 H 6.08591 2.26437 -2.05638 0
M  V30 END ATOM
M  V30 BEGIN BOND
M  V30 1 1 1 2
M  V30 2 1 2 3
M  V30 3 2 3 4
M  V30 4 1 4 5
M  V30 5 2 5 6
M  V30 6 1 6 7
M  V30 7 2 7 8
M  V30 8 1 6 9
M  V30 9 1 9 10
M  V30 10 1 10 11
M  V30 11 2 11 12
M  V30 12 1 12 13
M  V30 13 1 13 14
M  V30 14 2 14 15
M  V30 15 1 14 16
M  V30 16 1 16 17
M  V30 17 1 17 18
M  V30 18 2 18 19
M  V30 19 1 19 20
M  V30 20 1 20 21
M  V30 21 2 20 22
M  V30 22 1 22 23
M  V30 23 2 23 24
M  V30 24 1 23 25
M  V30 25 1 8 3
M  V30 26 1 15 11
M  V30 27 1 24 18
M  V30 28 1 1 26
M  V30 29 1 1 27
M  V30 30 1 1 28
M  V30 31 1 4 29
M  V30 32 1 5 30
M  V30 33 1 7 31
M  V30 34 1 8 32
M  V30 35 1 10 33
M  V30 36 1 10 34
M  V30 37 1 16 35
M  V30 38 1 16 36
M  V30 39 1 21 37
M  V30 40 1 21 38
M  V30 41 1 25 39
M  V30 42 1 25 40
M  V30 END BOND
M  V30 END CTAB
M  END
