
     RDKit          3D

  0  0  0  0  0  0  0  0  0  0999 V3000
M  V30 BEGIN CTAB
M  V30 COUNTS 15 15 0 0 0
M  V30 BEGIN ATOM
M  V30 1 N -2.75114 0.897756 0.110076 0
M  V30 2 C -1.30812 0.780638 0.0328453 0
M  V30 3 C -0.566908 -0.367979 0.0593398 0
M  V30 4 C -1.23512 -1.67414 0.177814 0
M  V30 5 N -1.77386 -2.71623 0.280031 0
M  V30 6 C 0.77631 -0.23403 -0.0273324 0
M  V30 7 N 1.7072 -1.36383 -0.0130698 0
M  V30 8 C 1.2704 1.0359 -0.133415 0
M  V30 9 S -0.129808 2.00207 -0.110294 0
M  V30 10 C 2.67371 1.43656 -0.239777 0
M  V30 11 N 3.77621 1.773 -0.324989 0
M  V30 12 H -3.21578 1.09146 -0.802741 0
M  V30 13 H -3.23538 0.792229 1.00654 0
M  V30 14 H 2.05554 -1.73377 -0.929643 0
M  V30 15 H 1.95674 -1.71963 0.914612 0
M  V30 END ATOM
M  V30 BEGIN BOND
M  V30 1 1 1 2
M  V30 2 2 2 3
M  V30 3 1 3 4
M  V30 4 3 4 5
M  V30 5 1 3 6
M  V30 6 1 6 7
M  V30 7 2 6 8
M  V30 8 1 8 9
M  V30 9 1 8 10
M  V30 10 3 10 11
M  V30 11 1 9 2
M  V30 12 1 1 12
M  V30 13 1 1 13
M  V30 14 1 7 14
M  V30 15 1 7 15
M  V30 END BOND
M  V30 END CTAB
M  END
