
     RDKit          3D

  0  0  0  0  0  0  0  0  0  0999 V3000
M  V30 BEGIN CTAB
M  V30 COUNTS 35 36 0 0 0
M  V30 BEGIN ATOM
M  V30 1 S 0.630867 -1.54881 0.243959 0
M  V30 2 C 0.379975 0.0467721 0.0688153 0
M  V30 3 N -0.859465 0.693888 0.0223968 0
M  V30 4 C -2.15192 0.159933 0.0650446 0
M  V30 5 C -2.50882 -1.14876 0.131189 0
M  V30 6 C -3.82964 -1.61667 0.16583 0
M  V30 7 C -4.81879 -0.672501 0.129434 0
M  V30 8 C -4.53005 0.664716 0.0623948 0
M  V30 9 C -3.2298 1.07911 0.0305945 0
M  V30 10 N -2.96615 2.48284 -0.0390703 0
M  V30 11 C -6.24378 -1.15362 0.165656 0
M  V30 12 N 1.5547 0.881064 -0.000864074 0
M  V30 13 C 2.88048 0.418959 0.00761198 0
M  V30 14 C 3.88173 1.12199 0.696736 0
M  V30 15 C 5.19921 0.745655 0.710935 0
M  V30 16 C 5.61544 -0.376891 0.0270501 0
M  V30 17 C 4.65614 -1.08399 -0.656941 0
M  V30 18 C 3.31498 -0.688538 -0.663599 0
M  V30 19 N 6.98207 -0.78546 0.0300399 0
M  V30 20 H -0.769264 1.7737 -0.0601393 0
M  V30 21 H -1.76824 -1.91615 0.157846 0
M  V30 22 H -4.07186 -2.66325 0.218441 0
M  V30 23 H -5.35473 1.38997 0.0349725 0
M  V30 24 H -2.73957 3.06262 0.78937 0
M  V30 25 H -3.00828 2.92728 -0.976128 0
M  V30 26 H -6.36578 -1.92392 0.957058 0
M  V30 27 H -6.46328 -1.66218 -0.795933 0
M  V30 28 H -6.94863 -0.329508 0.356657 0
M  V30 29 H 1.42608 1.94462 -0.0647732 0
M  V30 30 H 3.53665 2.00293 1.22961 0
M  V30 31 H 5.96163 1.31123 1.25643 0
M  V30 32 H 4.9674 -1.97359 -1.2028 0
M  V30 33 H 2.65983 -1.3033 -1.25338 0
M  V30 34 H 7.26134 -1.73616 0.329514 0
M  V30 35 H 7.71953 -0.123981 -0.272293 0
M  V30 END ATOM
M  V30 BEGIN BOND
M  V30 1 2 1 2
M  V30 2 1 2 3
M  V30 3 1 3 4
M  V30 4 2 4 5
M  V30 5 1 5 6
M  V30 6 2 6 7
M  V30 7 1 7 8
M  V30 8 2 8 9
M  V30 9 1 9 10
M  V30 10 1 7 11
M  V30 11 1 2 12
M  V30 12 1 12 13
M  V30 13 2 13 14
M  V30 14 1 14 15
M  V30 15 2 15 16
M  V30 16 1 16 17
M  V30 17 2 17 18
M  V30 18 1 16 19
M  V30 19 1 9 4
M  V30 20 1 18 13
M  V30 21 1 3 20
M  V30 22 1 5 21
M  V30 23 1 6 22
M  V30 24 1 8 23
M  V30 25 1 10 24
M  V30 26 1 10 25
M  V30 27 1 11 26
M  V30 28 1 11 27
M  V30 29 1 11 28
M  V30 30 1 12 29
M  V30 31 1 14 30
M  V30 32 1 15 31
M  V30 33 1 17 32
M  V30 34 1 18 33
M  V30 35 1 19 34
M  V30 36 1 19 35
M  V30 END BOND
M  V30 END CTAB
M  END
