
     RDKit          3D

  0  0  0  0  0  0  0  0  0  0999 V3000
M  V30 BEGIN CTAB
M  V30 COUNTS 44 45 0 0 0
M  V30 BEGIN ATOM
M  V30 1 N -8.58994 0.717816 -0.575847 0
M  V30 2 C -7.63506 1.55258 0.0597587 0
M  V30 3 N -8.04469 2.66622 0.55262 0
M  V30 4 C -6.25229 1.10878 0.120589 0
M  V30 5 C -5.25681 1.85136 0.716806 0
M  V30 6 C -3.92927 1.40634 0.76537 0
M  V30 7 C -3.54753 0.204132 0.219928 0
M  V30 8 O -2.29507 -0.330561 0.202984 0
M  V30 9 C -1.08172 0.132487 0.676847 0
M  V30 10 C -0.597359 1.36099 0.0571477 0
M  V30 11 C 0.522882 1.46165 -0.588347 0
M  V30 12 C 1.44708 0.330535 -0.772424 0
M  V30 13 O 2.67885 0.754413 -0.149041 0
M  V30 14 C 3.78596 -0.0660566 -0.129168 0
M  V30 15 C 3.81978 -1.32392 -0.683089 0
M  V30 16 C 4.97582 -2.08069 -0.617376 0
M  V30 17 C 6.1243 -1.63082 -0.0115557 0
M  V30 18 C 6.06346 -0.344385 0.545725 0
M  V30 19 C 4.92017 0.416914 0.486528 0
M  V30 20 C 7.33704 -2.41277 0.0627707 0
M  V30 21 N 8.48863 -1.85362 0.718862 0
M  V30 22 N 7.43307 -3.57306 -0.425394 0
M  V30 23 C -4.5772 -0.539725 -0.383805 0
M  V30 24 C -5.87695 -0.097325 -0.427552 0
M  V30 25 H -9.13763 1.1284 -1.37246 0
M  V30 26 H -8.75761 -0.27765 -0.275081 0
M  V30 27 H -7.45837 3.3701 1.04241 0
M  V30 28 H -5.51196 2.81396 1.16366 0
M  V30 29 H -3.20772 2.01508 1.2489 0
M  V30 30 H -1.16509 0.39555 1.80102 0
M  V30 31 H -0.383578 -0.726536 0.678094 0
M  V30 32 H -1.21101 2.2657 0.135749 0
M  V30 33 H 0.839411 2.44321 -1.04415 0
M  V30 34 H 1.20426 -0.611028 -0.323053 0
M  V30 35 H 1.6304 0.252157 -1.88347 0
M  V30 36 H 2.91568 -1.67259 -1.15754 0
M  V30 37 H 4.91607 -3.04887 -1.07386 0
M  V30 38 H 6.97748 0.0042166 1.02362 0
M  V30 39 H 4.94403 1.41644 0.944513 0
M  V30 40 H 8.86039 -2.24715 1.61629 0
M  V30 41 H 9.00058 -1.03076 0.324623 0
M  V30 42 H 6.63651 -4.01967 -0.906124 0
M  V30 43 H -4.33265 -1.49821 -0.830725 0
M  V30 44 H -6.67237 -0.683642 -0.900017 0
M  V30 END ATOM
M  V30 BEGIN BOND
M  V30 1 1 1 2
M  V30 2 2 2 3 CFG=2
M  V30 3 1 2 4
M  V30 4 2 4 5
M  V30 5 1 5 6
M  V30 6 2 6 7
M  V30 7 1 7 8
M  V30 8 1 8 9
M  V30 9 1 9 10
M  V30 10 2 10 11
M  V30 11 1 11 12
M  V30 12 1 12 13
M  V30 13 1 13 14
M  V30 14 2 14 15
M  V30 15 1 15 16
M  V30 16 2 16 17
M  V30 17 1 17 18
M  V30 18 2 18 19
M  V30 19 1 17 20
M  V30 20 1 20 21
M  V30 21 2 20 22 CFG=2
M  V30 22 1 7 23
M  V30 23 2 23 24
M  V30 24 1 24 4
M  V30 25 1 19 14
M  V30 26 1 1 25
M  V30 27 1 1 26
M  V30 28 1 3 27
M  V30 29 1 5 28
M  V30 30 1 6 29
M  V30 31 1 9 30
M  V30 32 1 9 31
M  V30 33 1 10 32
M  V30 34 1 11 33
M  V30 35 1 12 34
M  V30 36 1 12 35
M  V30 37 1 15 36
M  V30 38 1 16 37
M  V30 39 1 18 38
M  V30 40 1 19 39
M  V30 41 1 21 40
M  V30 42 1 21 41
M  V30 43 1 22 42
M  V30 44 1 23 43
M  V30 45 1 24 44
M  V30 END BOND
M  V30 END CTAB
M  END
