
     RDKit          3D

  0  0  0  0  0  0  0  0  0  0999 V3000
M  V30 BEGIN CTAB
M  V30 COUNTS 42 43 0 0 0
M  V30 BEGIN ATOM
M  V30 1 N -6.1708 0.829456 -1.66528 0
M  V30 2 C -4.77489 0.396136 -1.48723 0
M  V30 3 C -4.53713 -0.0303335 -0.0557729 0
M  V30 4 N -3.22489 -0.449923 0.178944 0
M  V30 5 C -2.83137 -0.875566 1.45355 0
M  V30 6 C -1.38831 -0.631326 1.80113 0
M  V30 7 N -0.541256 -0.773102 0.664219 0
M  V30 8 C -1.06201 -1.35689 -0.531385 0
M  V30 9 C -2.34175 -0.648009 -0.901614 0
M  V30 10 C 0.807054 -0.346202 0.714872 0
M  V30 11 O 1.54412 -0.474672 -0.305402 0
M  V30 12 N 1.29381 0.21794 1.92159 0
M  V30 13 C 2.60941 0.6686 2.06449 0
M  V30 14 O 2.99012 1.16008 3.15205 0
M  V30 15 C 3.56569 0.585488 0.978394 0
M  V30 16 C 3.65962 1.67082 0.114352 0
M  V30 17 C 4.54325 1.68402 -0.923927 0
M  V30 18 C 5.35945 0.58969 -1.11358 0
M  V30 19 C 5.27536 -0.50451 -0.254836 0
M  V30 20 C 4.37986 -0.488497 0.776949 0
M  V30 21 N 6.27126 0.594569 -2.17886 0
M  V30 22 H -6.44279 1.24958 -0.747748 0
M  V30 23 H -6.72945 -0.0283103 -1.88539 0
M  V30 24 H -4.62079 -0.485258 -2.17277 0
M  V30 25 H -4.09344 1.21961 -1.76001 0
M  V30 26 H -4.74423 0.879696 0.572354 0
M  V30 27 H -5.30886 -0.773043 0.244554 0
M  V30 28 H -3.00992 -1.96694 1.56308 0
M  V30 29 H -3.44607 -0.382452 2.23603 0
M  V30 30 H -1.05738 -1.22116 2.67384 0
M  V30 31 H -1.30312 0.447856 2.1319 0
M  V30 32 H -1.20995 -2.45731 -0.440212 0
M  V30 33 H -0.324347 -1.19512 -1.3474 0
M  V30 34 H -2.82927 -1.28209 -1.6692 0
M  V30 35 H -2.06752 0.322766 -1.35743 0
M  V30 36 H 0.618723 0.296087 2.74598 0
M  V30 37 H 3.01316 2.54409 0.26002 0
M  V30 38 H 4.63081 2.53399 -1.6169 0
M  V30 39 H 5.93841 -1.36004 -0.432168 0
M  V30 40 H 4.30123 -1.33445 1.45674 0
M  V30 41 H 6.16176 1.23776 -2.99553 0
M  V30 42 H 7.09645 -0.0630295 -2.17162 0
M  V30 END ATOM
M  V30 BEGIN BOND
M  V30 1 1 1 2
M  V30 2 1 2 3
M  V30 3 1 3 4
M  V30 4 1 4 5
M  V30 5 1 5 6
M  V30 6 1 6 7
M  V30 7 1 7 8
M  V30 8 1 8 9
M  V30 9 1 7 10
M  V30 10 2 10 11
M  V30 11 1 10 12
M  V30 12 1 12 13
M  V30 13 2 13 14
M  V30 14 1 13 15
M  V30 15 2 15 16
M  V30 16 1 16 17
M  V30 17 2 17 18
M  V30 18 1 18 19
M  V30 19 2 19 20
M  V30 20 1 18 21
M  V30 21 1 9 4
M  V30 22 1 20 15
M  V30 23 1 1 22
M  V30 24 1 1 23
M  V30 25 1 2 24
M  V30 26 1 2 25
M  V30 27 1 3 26
M  V30 28 1 3 27
M  V30 29 1 5 28
M  V30 30 1 5 29
M  V30 31 1 6 30
M  V30 32 1 6 31
M  V30 33 1 8 32
M  V30 34 1 8 33
M  V30 35 1 9 34
M  V30 36 1 9 35
M  V30 37 1 12 36
M  V30 38 1 16 37
M  V30 39 1 17 38
M  V30 40 1 19 39
M  V30 41 1 20 40
M  V30 42 1 21 41
M  V30 43 1 21 42
M  V30 END BOND
M  V30 END CTAB
M  END
