
     RDKit          3D

  0  0  0  0  0  0  0  0  0  0999 V3000
M  V30 BEGIN CTAB
M  V30 COUNTS 44 44 0 0 0
M  V30 BEGIN ATOM
M  V30 1 N -3.43705 1.34437 -2.10066 0
M  V30 2 C -2.8949 1.17994 -0.760307 0
M  V30 3 C -2.90028 -0.325203 -0.489823 0
M  V30 4 C -2.36573 -0.620036 0.856943 0
M  V30 5 N -1.03717 -0.2179 1.15186 0
M  V30 6 C 0.0359089 -1.10392 0.901063 0
M  V30 7 O -0.228297 -2.23954 0.420437 0
M  V30 8 C 1.43114 -0.717055 1.19232 0
M  V30 9 C 1.93607 -0.966405 2.43489 0
M  V30 10 C 3.2411 -0.605238 2.72678 0
M  V30 11 Br 4.02267 -0.918671 4.43948 0
M  V30 12 C 3.99646 -0.00611497 1.76335 0
M  V30 13 C 3.49211 0.249655 0.502551 0
M  V30 14 C 2.18084 -0.11959 0.227183 0
M  V30 15 C 1.62671 0.139644 -1.11972 0
M  V30 16 S 4.47643 1.01203 -0.690124 0
M  V30 17 O 4.05393 2.3935 -1.05184 0
M  V30 18 O 5.88713 1.14241 -0.131932 0
M  V30 19 N 4.61992 -0.035289 -2.0571 0
M  V30 20 C -0.700607 1.07551 1.71362 0
M  V30 21 C -2.30015 -1.08602 -1.6204 0
M  V30 22 C -4.39226 -0.701944 -0.462266 0
M  V30 23 H -3.3129 2.32793 -2.45699 0
M  V30 24 H -4.4794 1.21545 -2.01043 0
M  V30 25 H -3.59474 1.70414 -0.077162 0
M  V30 26 H -1.90946 1.62801 -0.642638 0
M  V30 27 H -2.41583 -1.73963 0.997695 0
M  V30 28 H -3.11551 -0.229932 1.60533 0
M  V30 29 H 1.33747 -1.44034 3.196 0
M  V30 30 H 5.02874 0.281874 1.98779 0
M  V30 31 H 2.22763 0.883051 -1.68268 0
M  V30 32 H 1.76123 -0.82055 -1.70189 0
M  V30 33 H 0.585721 0.452787 -1.07585 0
M  V30 34 H 5.59499 -0.0715632 -2.42742 0
M  V30 35 H 4.34878 -1.01814 -1.83173 0
M  V30 36 H -1.59433 1.66216 1.99264 0
M  V30 37 H -0.141718 1.68266 0.978068 0
M  V30 38 H -0.106706 0.962589 2.66282 0
M  V30 39 H -2.46421 -2.17434 -1.41317 0
M  V30 40 H -1.27194 -0.829307 -1.88142 0
M  V30 41 H -2.89701 -0.913597 -2.56555 0
M  V30 42 H -4.97522 0.00690139 0.12701 0
M  V30 43 H -4.53422 -1.70841 -0.019801 0
M  V30 44 H -4.81533 -0.735876 -1.48098 0
M  V30 END ATOM
M  V30 BEGIN BOND
M  V30 1 1 1 2
M  V30 2 1 2 3
M  V30 3 1 3 4
M  V30 4 1 4 5
M  V30 5 1 5 6
M  V30 6 2 6 7
M  V30 7 1 6 8
M  V30 8 2 8 9
M  V30 9 1 9 10
M  V30 10 1 10 11
M  V30 11 2 10 12
M  V30 12 1 12 13
M  V30 13 2 13 14
M  V30 14 1 14 15
M  V30 15 1 13 16
M  V30 16 2 16 17
M  V30 17 2 16 18
M  V30 18 1 16 19
M  V30 19 1 5 20
M  V30 20 1 3 21
M  V30 21 1 3 22
M  V30 22 1 14 8
M  V30 23 1 1 23
M  V30 24 1 1 24
M  V30 25 1 2 25
M  V30 26 1 2 26
M  V30 27 1 4 27
M  V30 28 1 4 28
M  V30 29 1 9 29
M  V30 30 1 12 30
M  V30 31 1 15 31
M  V30 32 1 15 32
M  V30 33 1 15 33
M  V30 34 1 19 34
M  V30 35 1 19 35
M  V30 36 1 20 36
M  V30 37 1 20 37
M  V30 38 1 20 38
M  V30 39 1 21 39
M  V30 40 1 21 40
M  V30 41 1 21 41
M  V30 42 1 22 42
M  V30 43 1 22 43
M  V30 44 1 22 44
M  V30 END BOND
M  V30 END CTAB
M  END
