
     RDKit          3D

  0  0  0  0  0  0  0  0  0  0999 V3000
M  V30 BEGIN CTAB
M  V30 COUNTS 22 22 0 0 0
M  V30 BEGIN ATOM
M  V30 1 N -0.464039 3.36329 0.142473 0
M  V30 2 C -0.302887 1.95541 0.0923782 0
M  V30 3 C 0.927485 1.39209 0.367579 0
M  V30 4 C 1.11677 0.0264366 0.327354 0
M  V30 5 C 2.41607 -0.556411 0.618756 0
M  V30 6 O 3.37009 0.208782 0.909732 0
M  V30 7 O 2.66074 -1.90236 0.593838 0
M  V30 8 C 0.0908789 -0.853606 0.0107612 0
M  V30 9 C -1.13097 -0.273283 -0.261182 0
M  V30 10 C -1.32959 1.09104 -0.22341 0
M  V30 11 C -2.24793 -1.19286 -0.60341 0
M  V30 12 F -3.38556 -0.47465 -0.845117 0
M  V30 13 F -1.9697 -1.93476 -1.73196 0
M  V30 14 F -2.48024 -2.09998 0.414031 0
M  V30 15 N 0.28941 -2.25902 -0.0296755 0
M  V30 16 H -1.32913 3.85549 0.425258 0
M  V30 17 H 0.350894 3.95727 -0.125988 0
M  V30 18 H 1.75119 2.0773 0.620397 0
M  V30 19 H 3.20639 -2.35333 -0.132262 0
M  V30 20 H -2.29129 1.54554 -0.437594 0
M  V30 21 H -0.0427611 -2.90838 0.708843 0
M  V30 22 H 0.794179 -2.66401 -0.840803 0
M  V30 END ATOM
M  V30 BEGIN BOND
M  V30 1 1 1 2
M  V30 2 2 2 3
M  V30 3 1 3 4
M  V30 4 1 4 5
M  V30 5 2 5 6
M  V30 6 1 5 7
M  V30 7 2 4 8
M  V30 8 1 8 9
M  V30 9 2 9 10
M  V30 10 1 9 11
M  V30 11 1 11 12
M  V30 12 1 11 13
M  V30 13 1 11 14
M  V30 14 1 8 15
M  V30 15 1 10 2
M  V30 16 1 1 16
M  V30 17 1 1 17
M  V30 18 1 3 18
M  V30 19 1 7 19
M  V30 20 1 10 20
M  V30 21 1 15 21
M  V30 22 1 15 22
M  V30 END BOND
M  V30 END CTAB
M  END
