
     RDKit          3D

  0  0  0  0  0  0  0  0  0  0999 V3000
M  V30 BEGIN CTAB
M  V30 COUNTS 39 40 0 0 0
M  V30 BEGIN ATOM
M  V30 1 N 4.62037 -0.860376 1.04321 0
M  V30 2 C 3.85719 0.224805 0.500636 0
M  V30 3 C 2.63019 0.54103 1.30984 0
M  V30 4 C 1.67529 -0.604654 1.40759 0
M  V30 5 C 1.00992 -0.963017 0.116285 0
M  V30 6 N 1.116 0.0802555 -0.889219 0
M  V30 7 C 2.32651 0.733189 -1.34529 0
M  V30 8 C 3.53299 -0.0807508 -0.940973 0
M  V30 9 C -0.062497 0.535868 -1.51378 0
M  V30 10 O 0.0253229 1.43764 -2.38351 0
M  V30 11 C -1.38863 0.000821192 -1.19064 0
M  V30 12 C -2.17967 0.543103 -0.200435 0
M  V30 13 C -3.43865 0.0239092 0.0959494 0
M  V30 14 C -3.89323 -1.06397 -0.630561 0
M  V30 15 C -3.13002 -1.62087 -1.61713 0
M  V30 16 C -1.88116 -1.07991 -1.88712 0
M  V30 17 F -1.15996 -1.64644 -2.85666 0
M  V30 18 S -4.39297 0.757135 1.36363 0
M  V30 19 O -3.46942 1.356 2.40752 0
M  V30 20 O -5.28408 -0.27581 1.9503 0
M  V30 21 N -5.36909 2.00254 0.662477 0
M  V30 22 H 5.18058 -1.27226 0.240567 0
M  V30 23 H 5.362 -0.494604 1.70828 0
M  V30 24 H 4.50032 1.14169 0.516817 0
M  V30 25 H 2.9694 0.78621 2.33652 0
M  V30 26 H 2.12713 1.42099 0.912685 0
M  V30 27 H 0.889552 -0.316789 2.15102 0
M  V30 28 H 2.19039 -1.48978 1.87912 0
M  V30 29 H -0.0882188 -1.14815 0.26441 0
M  V30 30 H 1.45087 -1.92478 -0.240644 0
M  V30 31 H 2.3935 1.78577 -1.07669 0
M  V30 32 H 2.27734 0.700906 -2.47271 0
M  V30 33 H 3.25881 -1.14992 -1.03008 0
M  V30 34 H 4.41225 0.136753 -1.55964 0
M  V30 35 H -1.78638 1.38924 0.340128 0
M  V30 36 H -4.87579 -1.4891 -0.417693 0
M  V30 37 H -3.52013 -2.46758 -2.16017 0
M  V30 38 H -5.61705 2.74597 1.35163 0
M  V30 39 H -6.26898 1.60494 0.28736 0
M  V30 END ATOM
M  V30 BEGIN BOND
M  V30 1 1 1 2
M  V30 2 1 2 3
M  V30 3 1 3 4
M  V30 4 1 4 5
M  V30 5 1 5 6
M  V30 6 1 6 7
M  V30 7 1 7 8
M  V30 8 1 6 9
M  V30 9 2 9 10
M  V30 10 1 9 11
M  V30 11 2 11 12
M  V30 12 1 12 13
M  V30 13 2 13 14
M  V30 14 1 14 15
M  V30 15 2 15 16
M  V30 16 1 16 17
M  V30 17 1 13 18
M  V30 18 2 18 19
M  V30 19 2 18 20
M  V30 20 1 18 21
M  V30 21 1 8 2
M  V30 22 1 16 11
M  V30 23 1 1 22
M  V30 24 1 1 23
M  V30 25 1 2 24
M  V30 26 1 3 25
M  V30 27 1 3 26
M  V30 28 1 4 27
M  V30 29 1 4 28
M  V30 30 1 5 29
M  V30 31 1 5 30
M  V30 32 1 7 31
M  V30 33 1 7 32
M  V30 34 1 8 33
M  V30 35 1 8 34
M  V30 36 1 12 35
M  V30 37 1 14 36
M  V30 38 1 15 37
M  V30 39 1 21 38
M  V30 40 1 21 39
M  V30 END BOND
M  V30 END CTAB
M  END
