
     RDKit          3D

  0  0  0  0  0  0  0  0  0  0999 V3000
M  V30 BEGIN CTAB
M  V30 COUNTS 20 20 0 0 0
M  V30 BEGIN ATOM
M  V30 1 N -1.49877 -2.01656 0.702959 0
M  V30 2 C -1.56192 -0.718332 0.123154 0
M  V30 3 C -2.8159 -0.131231 -0.0104391 0
M  V30 4 N -2.92764 1.09176 -0.551133 0
M  V30 5 C -1.84038 1.74466 -0.960081 0
M  V30 6 C -0.565765 1.18437 -0.840702 0
M  V30 7 C -0.423996 -0.0670213 -0.290458 0
M  V30 8 N 0.84618 -0.658083 -0.1521 0
M  V30 9 S 2.31721 -0.065673 -0.809657 0
M  V30 10 O 2.16451 0.606842 -2.11903 0
M  V30 11 O 3.34106 -1.19038 -0.934017 0
M  V30 12 N 3.06192 1.06936 0.293522 0
M  V30 13 H -2.13094 -2.30866 1.47086 0
M  V30 14 H -0.787836 -2.67545 0.327754 0
M  V30 15 H -3.68897 -0.685602 0.331603 0
M  V30 16 H -1.99197 2.73157 -1.38996 0
M  V30 17 H 0.238129 1.78022 -1.19153 0
M  V30 18 H 0.923803 -1.55783 0.410054 0
M  V30 19 H 3.99303 1.30368 -0.166737 0
M  V30 20 H 3.34823 0.562349 1.18253 0
M  V30 END ATOM
M  V30 BEGIN BOND
M  V30 1 1 1 2
M  V30 2 2 2 3
M  V30 3 1 3 4
M  V30 4 2 4 5
M  V30 5 1 5 6
M  V30 6 2 6 7
M  V30 7 1 7 8
M  V30 8 1 8 9
M  V30 9 2 9 10
M  V30 10 2 9 11
M  V30 11 1 9 12
M  V30 12 1 7 2
M  V30 13 1 1 13
M  V30 14 1 1 14
M  V30 15 1 3 15
M  V30 16 1 5 16
M  V30 17 1 6 17
M  V30 18 1 8 18
M  V30 19 1 12 19
M  V30 20 1 12 20
M  V30 END BOND
M  V30 END CTAB
M  END
