
     RDKit          3D

  0  0  0  0  0  0  0  0  0  0999 V3000
M  V30 BEGIN CTAB
M  V30 COUNTS 23 23 0 0 0
M  V30 BEGIN ATOM
M  V30 1 C 3.60195 -0.764802 -1.86818 0
M  V30 2 C 2.9349 -0.506995 -0.897079 0
M  V30 3 C 2.11425 -0.21489 0.302793 0
M  V30 4 O 1.13671 0.713249 -0.091989 0
M  V30 5 C -0.202239 0.37582 0.0353569 0
M  V30 6 C -1.19108 1.26997 -0.345419 0
M  V30 7 C -2.53651 0.990067 -0.242034 0
M  V30 8 N -3.48612 1.96572 -0.656309 0
M  V30 9 N -2.87722 -0.211363 0.253645 0
M  V30 10 C -1.91305 -1.09574 0.630122 0
M  V30 11 N -0.601981 -0.815109 0.526111 0
M  V30 12 N -2.26854 -2.37487 1.15794 0
M  V30 13 C 3.02287 0.316176 1.38934 0
M  V30 14 H 4.18356 -0.99049 -2.73276 0
M  V30 15 H 1.63693 -1.14036 0.682519 0
M  V30 16 H -0.905432 2.25066 -0.749941 0
M  V30 17 H -3.85242 2.7046 -0.0219597 0
M  V30 18 H -3.83157 1.9348 -1.65222 0
M  V30 19 H -2.65494 -2.50225 2.11851 0
M  V30 20 H -2.14092 -3.22447 0.567544 0
M  V30 21 H 3.29509 1.37177 1.19028 0
M  V30 22 H 3.96422 -0.290154 1.3293 0
M  V30 23 H 2.57152 0.23864 2.38929 0
M  V30 END ATOM
M  V30 BEGIN BOND
M  V30 1 3 1 2
M  V30 2 1 2 3
M  V30 3 1 3 4
M  V30 4 1 4 5
M  V30 5 2 5 6
M  V30 6 1 6 7
M  V30 7 1 7 8
M  V30 8 2 7 9
M  V30 9 1 9 10
M  V30 10 2 10 11
M  V30 11 1 10 12
M  V30 12 1 3 13
M  V30 13 1 11 5
M  V30 14 1 1 14
M  V30 15 1 3 15
M  V30 16 1 6 16
M  V30 17 1 8 17
M  V30 18 1 8 18
M  V30 19 1 12 19
M  V30 20 1 12 20
M  V30 21 1 13 21
M  V30 22 1 13 22
M  V30 23 1 13 23
M  V30 END BOND
M  V30 END CTAB
M  END
