
     RDKit          3D

  0  0  0  0  0  0  0  0  0  0999 V3000
M  V30 BEGIN CTAB
M  V30 COUNTS 58 60 0 0 0
M  V30 BEGIN ATOM
M  V30 1 C 3.13376 -1.98332 -2.45988 0
M  V30 2 O 2.59233 -1.44802 -1.26722 0
M  V30 3 C 1.25327 -1.14998 -1.2147 0
M  V30 4 C 0.401873 -1.35729 -2.30174 0
M  V30 5 C -0.944982 -1.05741 -2.24212 0
M  V30 6 C -1.49979 -0.537046 -1.0914 0
M  V30 7 O -2.87087 -0.233365 -1.02787 0
M  V30 8 C -3.46855 0.287973 0.116378 0
M  V30 9 C -4.95585 0.485361 -0.179846 0
M  V30 10 C -5.66218 1.03258 1.03533 0
M  V30 11 C -7.1353 1.24736 0.792077 0
M  V30 12 C -7.84265 -0.0253295 0.41929 0
M  V30 13 C -9.28224 0.26225 0.210102 0
M  V30 14 O -10.155 -0.769333 -0.149696 0
M  V30 15 O -9.69531 1.44409 0.362781 0
M  V30 16 C -0.662313 -0.333211 -0.0256395 0
M  V30 17 C 0.712047 -0.636504 -0.0799371 0
M  V30 18 C 1.43827 -0.353906 1.14614 0
M  V30 19 C 2.87286 -0.396852 1.16962 0
M  V30 20 C 3.64902 0.640595 0.684367 0
M  V30 21 C 3.05818 1.86375 0.112101 0
M  V30 22 C 5.04936 0.550657 0.735224 0
M  V30 23 C 5.89915 1.51573 0.288566 0
M  V30 24 N 5.42793 2.70412 -0.280372 0
M  V30 25 N 7.24321 1.38287 0.363981 0
M  V30 26 C 7.77702 0.27209 0.891993 0
M  V30 27 N 9.19644 0.156478 0.962295 0
M  V30 28 N 6.94968 -0.668171 1.3266 0
M  V30 29 C 5.59941 -0.615955 1.28941 0
M  V30 30 N 4.84337 -1.61825 1.75805 0
M  V30 31 C 3.51531 -1.49298 1.69085 0
M  V30 32 H 2.53771 -2.87337 -2.80473 0
M  V30 33 H 3.08915 -1.21643 -3.25976 0
M  V30 34 H 4.19088 -2.29258 -2.33726 0
M  V30 35 H 0.872547 -1.76864 -3.18932 0
M  V30 36 H -1.59064 -1.22967 -3.10735 0
M  V30 37 H -3.2832 -0.250285 1.04516 0
M  V30 38 H -3.02917 1.3203 0.255818 0
M  V30 39 H -4.9886 1.21858 -1.02252 0
M  V30 40 H -5.36134 -0.483329 -0.518501 0
M  V30 41 H -5.60306 0.23616 1.83736 0
M  V30 42 H -5.17112 1.95187 1.36906 0
M  V30 43 H -7.58558 1.68557 1.72477 0
M  V30 44 H -7.24473 1.96953 -0.0350527 0
M  V30 45 H -7.41502 -0.416923 -0.544751 0
M  V30 46 H -7.78815 -0.794012 1.21964 0
M  V30 47 H -10.0785 -1.27612 -1.02736 0
M  V30 48 H -1.11277 0.0843072 0.889915 0
M  V30 49 H 1.04599 -1.10926 1.91183 0
M  V30 50 H 1.00973 0.610218 1.57797 0
M  V30 51 H 1.92822 1.66854 0.174129 0
M  V30 52 H 3.10811 2.76538 0.717697 0
M  V30 53 H 3.12973 1.96779 -0.987492 0
M  V30 54 H 5.28461 2.75053 -1.31184 0
M  V30 55 H 5.22269 3.56883 0.262589 0
M  V30 56 H 9.65027 0.290339 1.89419 0
M  V30 57 H 9.81234 -0.0517944 0.154534 0
M  V30 58 H 2.93246 -2.31647 2.07654 0
M  V30 END ATOM
M  V30 BEGIN BOND
M  V30 1 1 1 2
M  V30 2 1 2 3
M  V30 3 2 3 4
M  V30 4 1 4 5
M  V30 5 2 5 6
M  V30 6 1 6 7
M  V30 7 1 7 8
M  V30 8 1 8 9
M  V30 9 1 9 10
M  V30 10 1 10 11
M  V30 11 1 11 12
M  V30 12 1 12 13
M  V30 13 1 13 14
M  V30 14 2 13 15
M  V30 15 1 6 16
M  V30 16 2 16 17
M  V30 17 1 17 18
M  V30 18 1 18 19
M  V30 19 2 19 20
M  V30 20 1 20 21
M  V30 21 1 20 22
M  V30 22 2 22 23
M  V30 23 1 23 24
M  V30 24 1 23 25
M  V30 25 2 25 26
M  V30 26 1 26 27
M  V30 27 1 26 28
M  V30 28 2 28 29
M  V30 29 1 29 30
M  V30 30 2 30 31
M  V30 31 1 17 3
M  V30 32 1 31 19
M  V30 33 1 29 22
M  V30 34 1 1 32
M  V30 35 1 1 33
M  V30 36 1 1 34
M  V30 37 1 4 35
M  V30 38 1 5 36
M  V30 39 1 8 37
M  V30 40 1 8 38
M  V30 41 1 9 39
M  V30 42 1 9 40
M  V30 43 1 10 41
M  V30 44 1 10 42
M  V30 45 1 11 43
M  V30 46 1 11 44
M  V30 47 1 12 45
M  V30 48 1 12 46
M  V30 49 1 14 47
M  V30 50 1 16 48
M  V30 51 1 18 49
M  V30 52 1 18 50
M  V30 53 1 21 51
M  V30 54 1 21 52
M  V30 55 1 21 53
M  V30 56 1 24 54
M  V30 57 1 24 55
M  V30 58 1 27 56
M  V30 59 1 27 57
M  V30 60 1 31 58
M  V30 END BOND
M  V30 END CTAB
M  END
