
     RDKit          3D

  0  0  0  0  0  0  0  0  0  0999 V3000
M  V30 BEGIN CTAB
M  V30 COUNTS 36 37 0 0 0
M  V30 BEGIN ATOM
M  V30 1 N -2.85062 0.0871989 1.99282 0
M  V30 2 C -3.08824 0.997837 0.883704 0 CFG=2
M  V30 3 C -4.15132 0.377102 0.00111968 0
M  V30 4 C -3.36713 -0.767277 -0.629929 0
M  V30 5 N -2.01426 -0.262135 -0.706728 0
M  V30 6 C -1.9047 1.03461 -0.0699222 0
M  V30 7 C -0.934448 -0.938216 -1.32058 0
M  V30 8 O -1.06828 -2.07511 -1.86941 0
M  V30 9 C 0.411629 -0.371502 -1.3642 0
M  V30 10 C 0.750366 0.416087 -2.4306 0
M  V30 11 C 2.01138 0.965176 -2.50141 0
M  V30 12 Br 2.50147 2.06861 -3.98526 0
M  V30 13 C 2.91985 0.713787 -1.49379 0
M  V30 14 C 2.59029 -0.0777704 -0.414883 0
M  V30 15 C 1.33151 -0.612609 -0.365915 0
M  V30 16 C 0.969323 -1.45877 0.781046 0
M  V30 17 S 3.79033 -0.346351 0.812227 0
M  V30 18 O 4.0198 -1.8262 0.928968 0
M  V30 19 O 3.3344 0.134577 2.15753 0
M  V30 20 N 5.25986 0.473146 0.435569 0
M  V30 21 H -2.50153 -0.803387 1.5818 0
M  V30 22 H -2.08774 0.437102 2.61708 0
M  V30 23 H -3.37168 2.00744 1.23642 0
M  V30 24 H -5.02287 0.0183519 0.577902 0
M  V30 25 H -4.41562 1.10254 -0.784913 0
M  V30 26 H -3.4434 -1.70031 -0.0353885 0
M  V30 27 H -3.78786 -0.994835 -1.63382 0
M  V30 28 H -0.954807 1.18743 0.449549 0
M  V30 29 H -2.13304 1.81419 -0.819298 0
M  V30 30 H 0.0211687 0.597352 -3.20584 0
M  V30 31 H 3.90098 1.1627 -1.58436 0
M  V30 32 H 1.09922 -0.901917 1.73263 0
M  V30 33 H -0.11218 -1.73516 0.742133 0
M  V30 34 H 1.52598 -2.42987 0.791388 0
M  V30 35 H 5.13597 1.49228 0.535417 0
M  V30 36 H 5.63621 0.213915 -0.502547 0
M  V30 END ATOM
M  V30 BEGIN BOND
M  V30 1 1 1 2
M  V30 2 1 2 3
M  V30 3 1 3 4
M  V30 4 1 4 5
M  V30 5 1 5 6
M  V30 6 1 5 7
M  V30 7 2 7 8
M  V30 8 1 7 9
M  V30 9 2 9 10
M  V30 10 1 10 11
M  V30 11 1 11 12
M  V30 12 2 11 13
M  V30 13 1 13 14
M  V30 14 2 14 15
M  V30 15 1 15 16
M  V30 16 1 14 17
M  V30 17 2 17 18
M  V30 18 2 17 19
M  V30 19 1 17 20
M  V30 20 1 6 2
M  V30 21 1 15 9
M  V30 22 1 1 21
M  V30 23 1 1 22
M  V30 24 1 2 23 CFG=1
M  V30 25 1 3 24
M  V30 26 1 3 25
M  V30 27 1 4 26
M  V30 28 1 4 27
M  V30 29 1 6 28
M  V30 30 1 6 29
M  V30 31 1 10 30
M  V30 32 1 13 31
M  V30 33 1 16 32
M  V30 34 1 16 33
M  V30 35 1 16 34
M  V30 36 1 20 35
M  V30 37 1 20 36
M  V30 END BOND
M  V30 END CTAB
M  END
