
     RDKit          3D

  0  0  0  0  0  0  0  0  0  0999 V3000
M  V30 BEGIN CTAB
M  V30 COUNTS 43 45 0 0 0
M  V30 BEGIN ATOM
M  V30 1 F 5.92365 0.145607 1.96087 0
M  V30 2 C 5.30648 0.582145 0.863469 0
M  V30 3 C 6.00534 1.33096 -0.0580863 0
M  V30 4 C 5.31363 1.75411 -1.17293 0
M  V30 5 C 3.98454 1.4411 -1.35464 0
M  V30 6 C 3.28856 0.69189 -0.430812 0
M  V30 7 C 3.9667 0.26368 0.685429 0
M  V30 8 C 1.87457 0.391194 -0.68007 0 CFG=2
M  V30 9 C 1.00865 1.00679 0.396325 0
M  V30 10 N -0.123711 0.0187215 0.550174 0
M  V30 11 C 0.580854 -1.22623 0.449892 0
M  V30 12 C 1.53962 -1.04773 -0.743523 0 CFG=1
M  V30 13 N 0.86502 -1.39909 -1.9795 0
M  V30 14 C -1.45252 0.416274 0.729138 0
M  V30 15 O -1.6853 1.68379 0.731369 0
M  V30 16 C -2.59797 -0.434388 0.912867 0
M  V30 17 C -3.60395 -0.360432 -0.221691 0
M  V30 18 C -4.19436 1.00394 -0.461659 0
M  V30 19 C -5.51367 0.305003 -0.727819 0
M  V30 20 C -4.99713 -0.829653 0.142539 0
M  V30 21 N -2.25674 -1.82221 1.04834 0
M  V30 22 H 7.05652 1.57071 0.0992072 0
M  V30 23 H 5.84763 2.34186 -1.90422 0
M  V30 24 H 3.51064 1.81308 -2.26129 0
M  V30 25 H 3.41944 -0.321066 1.40442 0
M  V30 26 H 1.55923 0.858792 -1.65847 0
M  V30 27 H 0.596975 1.98723 0.106618 0
M  V30 28 H 1.52469 1.11472 1.36317 0
M  V30 29 H 0.00831349 -2.12961 0.306599 0
M  V30 30 H 1.2647 -1.36813 1.32399 0
M  V30 31 H 2.40314 -1.73224 -0.64659 0
M  V30 32 H 1.56431 -1.66846 -2.70713 0
M  V30 33 H 0.208432 -2.22004 -1.83271 0
M  V30 34 H -3.14895 -0.130317 1.8641 0
M  V30 35 H -3.2697 -0.825801 -1.15263 0
M  V30 36 H -3.78019 1.54948 -1.32899 0
M  V30 37 H -4.30696 1.63014 0.465546 0
M  V30 38 H -6.40627 0.814985 -0.353801 0
M  V30 39 H -5.55424 -0.0382417 -1.78889 0
M  V30 40 H -5.25126 -1.84569 -0.219603 0
M  V30 41 H -5.28625 -0.633349 1.20007 0
M  V30 42 H -2.59241 -2.2591 1.92631 0
M  V30 43 H -2.60004 -2.42443 0.267712 0
M  V30 END ATOM
M  V30 BEGIN BOND
M  V30 1 1 1 2
M  V30 2 2 2 3
M  V30 3 1 3 4
M  V30 4 2 4 5
M  V30 5 1 5 6
M  V30 6 2 6 7
M  V30 7 1 6 8
M  V30 8 1 8 9
M  V30 9 1 9 10
M  V30 10 1 10 11
M  V30 11 1 11 12
M  V30 12 1 12 13
M  V30 13 1 10 14
M  V30 14 2 14 15
M  V30 15 1 14 16
M  V30 16 1 16 17
M  V30 17 1 17 18
M  V30 18 1 18 19
M  V30 19 1 19 20
M  V30 20 1 16 21
M  V30 21 1 7 2
M  V30 22 1 12 8
M  V30 23 1 20 17
M  V30 24 1 3 22
M  V30 25 1 4 23
M  V30 26 1 5 24
M  V30 27 1 7 25
M  V30 28 1 8 26 CFG=3
M  V30 29 1 9 27
M  V30 30 1 9 28
M  V30 31 1 11 29
M  V30 32 1 11 30
M  V30 33 1 12 31 CFG=1
M  V30 34 1 13 32
M  V30 35 1 13 33
M  V30 36 1 16 34
M  V30 37 1 17 35
M  V30 38 1 18 36
M  V30 39 1 18 37
M  V30 40 1 19 38
M  V30 41 1 19 39
M  V30 42 1 20 40
M  V30 43 1 20 41
M  V30 44 1 21 42
M  V30 45 1 21 43
M  V30 END BOND
M  V30 END CTAB
M  END
