
     RDKit          3D

  0  0  0  0  0  0  0  0  0  0999 V3000
M  V30 BEGIN CTAB
M  V30 COUNTS 40 42 0 0 0
M  V30 BEGIN ATOM
M  V30 1 N -7.68054 0.988602 0.794906 0
M  V30 2 C -6.37099 0.507533 0.426336 0
M  V30 3 C -6.19024 -0.783627 0.0175755 0
M  V30 4 C -4.9293 -1.22841 -0.331462 0
M  V30 5 C -3.81328 -0.414887 -0.287564 0
M  V30 6 N -2.57287 -0.930553 -0.687414 0
M  V30 7 C -1.28155 -0.502099 -0.292557 0
M  V30 8 C -1.03882 0.153641 0.885027 0
M  V30 9 C 0.225281 0.588817 1.24682 0
M  V30 10 C 1.33705 0.379741 0.420929 0
M  V30 11 N 2.6095 0.880086 0.831848 0
M  V30 12 C 3.87017 0.403733 0.445794 0
M  V30 13 C 4.02808 -0.904535 0.0666871 0
M  V30 14 C 5.28927 -1.329 -0.333486 0
M  V30 15 C 6.33526 -0.438761 -0.338999 0
M  V30 16 N 7.6146 -0.875195 -0.74647 0
M  V30 17 C 6.16141 0.86711 0.0438798 0
M  V30 18 C 4.93361 1.30774 0.440292 0
M  V30 19 C 1.09546 -0.275713 -0.75638 0
M  V30 20 C -0.178456 -0.712668 -1.11795 0
M  V30 21 C -4.0222 0.874561 0.124682 0
M  V30 22 C -5.28482 1.33998 0.480484 0
M  V30 23 H -7.89099 1.30138 1.76868 0
M  V30 24 H -8.41239 1.01634 0.0644388 0
M  V30 25 H -7.05707 -1.43032 -0.020849 0
M  V30 26 H -4.78317 -2.26772 -0.660539 0
M  V30 27 H -2.61249 -1.75572 -1.38496 0
M  V30 28 H -1.86558 0.330575 1.58653 0
M  V30 29 H 0.411986 1.11025 2.18403 0
M  V30 30 H 2.61901 1.71121 1.51469 0
M  V30 31 H 3.22333 -1.62959 0.0767227 0
M  V30 32 H 5.40179 -2.36182 -0.630596 0
M  V30 33 H 8.27728 -1.21838 -0.0302287 0
M  V30 34 H 7.86132 -0.840128 -1.76905 0
M  V30 35 H 6.98171 1.57565 0.0425732 0
M  V30 36 H 4.74867 2.3211 0.74879 0
M  V30 37 H 1.91831 -0.445089 -1.43773 0
M  V30 38 H -0.351069 -1.22591 -2.04464 0
M  V30 39 H -3.18651 1.55464 0.157844 0
M  V30 40 H -5.42074 2.35742 0.80144 0
M  V30 END ATOM
M  V30 BEGIN BOND
M  V30 1 1 1 2
M  V30 2 2 2 3
M  V30 3 1 3 4
M  V30 4 2 4 5
M  V30 5 1 5 6
M  V30 6 1 6 7
M  V30 7 2 7 8
M  V30 8 1 8 9
M  V30 9 2 9 10
M  V30 10 1 10 11
M  V30 11 1 11 12
M  V30 12 2 12 13
M  V30 13 1 13 14
M  V30 14 2 14 15
M  V30 15 1 15 16
M  V30 16 1 15 17
M  V30 17 2 17 18
M  V30 18 1 10 19
M  V30 19 2 19 20
M  V30 20 1 5 21
M  V30 21 2 21 22
M  V30 22 1 22 2
M  V30 23 1 20 7
M  V30 24 1 18 12
M  V30 25 1 1 23
M  V30 26 1 1 24
M  V30 27 1 3 25
M  V30 28 1 4 26
M  V30 29 1 6 27
M  V30 30 1 8 28
M  V30 31 1 9 29
M  V30 32 1 11 30
M  V30 33 1 13 31
M  V30 34 1 14 32
M  V30 35 1 16 33
M  V30 36 1 16 34
M  V30 37 1 17 35
M  V30 38 1 18 36
M  V30 39 1 19 37
M  V30 40 1 20 38
M  V30 41 1 21 39
M  V30 42 1 22 40
M  V30 END BOND
M  V30 END CTAB
M  END
