
     RDKit          3D

  0  0  0  0  0  0  0  0  0  0999 V3000
M  V30 BEGIN CTAB
M  V30 COUNTS 37 39 0 0 0
M  V30 BEGIN ATOM
M  V30 1 Br 2.67091 4.13898 2.00334 0
M  V30 2 C 2.5055 2.41878 1.13056 0
M  V30 3 C 1.28643 1.99587 0.627996 0
M  V30 4 C 1.12123 0.782532 0.0462755 0
M  V30 5 C -0.170325 0.266782 -0.384795 0
M  V30 6 O -0.297891 -0.447951 -1.50398 0
M  V30 7 N -1.5498 -0.816391 -1.69055 0
M  V30 8 C -2.25535 -0.308979 -0.625296 0
M  V30 9 N -1.39139 0.340016 0.141736 0
M  V30 10 C -3.69365 -0.572686 -0.485443 0
M  V30 11 N -4.26758 -1.33062 -1.60124 0
M  V30 12 C -4.49756 0.653487 -0.223082 0
M  V30 13 C -4.79559 0.150166 1.1685 0
M  V30 14 C -4.12491 -1.17374 0.838837 0
M  V30 15 C 2.22557 -0.0597214 -0.0325945 0
M  V30 16 C 3.44718 0.32519 0.45722 0
M  V30 17 C 3.57016 1.58539 1.04174 0
M  V30 18 S 4.93585 -0.546594 0.329143 0
M  V30 19 O 5.87363 -0.160049 1.43647 0
M  V30 20 O 4.7936 -2.0582 0.428064 0
M  V30 21 N 5.69534 -0.153692 -1.1922 0
M  V30 22 C 2.13096 -1.46361 -0.533135 0
M  V30 23 H 0.431556 2.65441 0.675798 0
M  V30 24 H -3.92779 -0.875262 -2.45442 0
M  V30 25 H -4.0021 -2.34213 -1.52034 0
M  V30 26 H -5.45029 0.764955 -0.810945 0
M  V30 27 H -3.96553 1.63229 -0.26986 0
M  V30 28 H -5.87087 0.00873903 1.42104 0
M  V30 29 H -4.23773 0.762005 1.91488 0
M  V30 30 H -3.32393 -1.42601 1.53214 0
M  V30 31 H -4.85308 -2.01629 0.717116 0
M  V30 32 H 4.54188 1.92118 1.42372 0
M  V30 33 H 6.26349 0.736105 -0.98012 0
M  V30 34 H 4.97097 0.19563 -1.88272 0
M  V30 35 H 2.59404 -1.64274 -1.50151 0
M  V30 36 H 1.07812 -1.77754 -0.564035 0
M  V30 37 H 2.53895 -2.16031 0.284879 0
M  V30 END ATOM
M  V30 BEGIN BOND
M  V30 1 1 1 2
M  V30 2 2 2 3
M  V30 3 1 3 4
M  V30 4 1 4 5
M  V30 5 1 5 6
M  V30 6 1 6 7
M  V30 7 2 7 8
M  V30 8 1 8 9
M  V30 9 1 8 10
M  V30 10 1 10 11
M  V30 11 1 10 12
M  V30 12 1 12 13
M  V30 13 1 13 14
M  V30 14 2 4 15
M  V30 15 1 15 16
M  V30 16 2 16 17
M  V30 17 1 16 18
M  V30 18 2 18 19
M  V30 19 2 18 20
M  V30 20 1 18 21
M  V30 21 1 15 22
M  V30 22 1 17 2
M  V30 23 2 9 5
M  V30 24 1 14 10
M  V30 25 1 3 23
M  V30 26 1 11 24
M  V30 27 1 11 25
M  V30 28 1 12 26
M  V30 29 1 12 27
M  V30 30 1 13 28
M  V30 31 1 13 29
M  V30 32 1 14 30
M  V30 33 1 14 31
M  V30 34 1 17 32
M  V30 35 1 21 33
M  V30 36 1 21 34
M  V30 37 1 22 35
M  V30 38 1 22 36
M  V30 39 1 22 37
M  V30 END BOND
M  V30 END CTAB
M  END
