
     RDKit          3D

  0  0  0  0  0  0  0  0  0  0999 V3000
M  V30 BEGIN CTAB
M  V30 COUNTS 41 42 0 0 0
M  V30 BEGIN ATOM
M  V30 1 N 6.45583 -0.282981 -1.22659 0
M  V30 2 C 5.79929 -0.732212 -0.0286689 0
M  V30 3 C 4.46439 -0.070731 0.189637 0
M  V30 4 C 3.51421 -0.313607 -0.895739 0
M  V30 5 O 3.86736 -1.01826 -1.87529 0
M  V30 6 N 2.20375 0.220194 -0.881248 0
M  V30 7 C 1.77102 1.03478 0.234025 0
M  V30 8 C 0.397233 1.64513 -0.0809343 0
M  V30 9 N -0.48941 0.548464 -0.403069 0
M  V30 10 C -0.0322892 -0.454894 -1.3453 0
M  V30 11 C 1.2671 -0.0229616 -1.95786 0
M  V30 12 C -1.79225 0.400159 0.152735 0
M  V30 13 C -2.38783 1.31632 0.992048 0
M  V30 14 C -3.64123 1.16986 1.52921 0
M  V30 15 C -4.35449 0.027497 1.20734 0
M  V30 16 C -3.81479 -0.927287 0.372921 0
M  V30 17 C -2.55423 -0.732546 -0.13913 0
M  V30 18 S -5.95764 -0.21796 1.86003 0
M  V30 19 O -6.08107 0.398302 3.23425 0
M  V30 20 O -6.22307 -1.70215 2.03855 0
M  V30 21 N -7.12852 0.47298 0.772855 0
M  V30 22 H 7.03792 0.584902 -1.04663 0
M  V30 23 H 7.07515 -1.04001 -1.59442 0
M  V30 24 H 6.41675 -0.490921 0.88583 0
M  V30 25 H 5.69645 -1.83702 -0.014718 0
M  V30 26 H 4.61919 1.02141 0.355825 0
M  V30 27 H 4.08556 -0.45377 1.17934 0
M  V30 28 H 1.60247 0.400836 1.14229 0
M  V30 29 H 2.47179 1.86676 0.437537 0
M  V30 30 H 0.520725 2.24397 -1.03092 0
M  V30 31 H 0.0952847 2.26538 0.755663 0
M  V30 32 H -0.806596 -0.689989 -2.10612 0
M  V30 33 H 0.183926 -1.37107 -0.726531 0
M  V30 34 H 1.08382 0.948245 -2.50111 0
M  V30 35 H 1.652 -0.713735 -2.71449 0
M  V30 36 H -1.84782 2.21912 1.25661 0
M  V30 37 H -4.06358 1.91397 2.18039 0
M  V30 38 H -4.40217 -1.79734 0.149693 0
M  V30 39 H -2.13257 -1.49788 -0.801117 0
M  V30 40 H -6.66459 0.679534 -0.154979 0
M  V30 41 H -7.90707 -0.218747 0.5981 0
M  V30 END ATOM
M  V30 BEGIN BOND
M  V30 1 1 1 2
M  V30 2 1 2 3
M  V30 3 1 3 4
M  V30 4 2 4 5
M  V30 5 1 4 6
M  V30 6 1 6 7
M  V30 7 1 7 8
M  V30 8 1 8 9
M  V30 9 1 9 10
M  V30 10 1 10 11
M  V30 11 1 9 12
M  V30 12 2 12 13
M  V30 13 1 13 14
M  V30 14 2 14 15
M  V30 15 1 15 16
M  V30 16 2 16 17
M  V30 17 1 15 18
M  V30 18 2 18 19
M  V30 19 2 18 20
M  V30 20 1 18 21
M  V30 21 1 11 6
M  V30 22 1 17 12
M  V30 23 1 1 22
M  V30 24 1 1 23
M  V30 25 1 2 24
M  V30 26 1 2 25
M  V30 27 1 3 26
M  V30 28 1 3 27
M  V30 29 1 7 28
M  V30 30 1 7 29
M  V30 31 1 8 30
M  V30 32 1 8 31
M  V30 33 1 10 32
M  V30 34 1 10 33
M  V30 35 1 11 34
M  V30 36 1 11 35
M  V30 37 1 13 36
M  V30 38 1 14 37
M  V30 39 1 16 38
M  V30 40 1 17 39
M  V30 41 1 21 40
M  V30 42 1 21 41
M  V30 END BOND
M  V30 END CTAB
M  END
