
     RDKit          3D

  0  0  0  0  0  0  0  0  0  0999 V3000
M  V30 BEGIN CTAB
M  V30 COUNTS 38 40 0 0 0
M  V30 BEGIN ATOM
M  V30 1 N 0.125571 -3.33634 0.527042 0
M  V30 2 C 1.0051 -2.2381 0.212558 0
M  V30 3 C 0.8587 -0.916905 0.557431 0
M  V30 4 C -0.23224 -0.316884 1.32972 0
M  V30 5 C -1.50463 -0.140367 0.568243 0
M  V30 6 C -1.34848 0.755579 -0.64816 0
M  V30 7 C -2.65211 0.70696 -1.41926 0
M  V30 8 C -3.81931 0.374805 -0.518268 0
M  V30 9 C -3.64138 1.14685 0.767817 0
M  V30 10 C -2.51547 0.488952 1.53745 0
M  V30 11 C 1.94033 -0.23089 0.0407413 0
M  V30 12 C 2.7474 -1.14281 -0.621506 0
M  V30 13 N 2.13976 -2.33459 -0.487988 0
M  V30 14 C 3.9012 -0.69138 -1.22675 0
M  V30 15 O 4.65303 -1.49555 -1.83429 0
M  V30 16 N 4.2763 0.600174 -1.20067 0
M  V30 17 C 3.47956 1.46901 -0.553013 0
M  V30 18 N 3.86135 2.82801 -0.517681 0
M  V30 19 N 2.3482 1.05121 0.0452222 0
M  V30 20 H 0.514339 -4.29304 0.693956 0
M  V30 21 H -0.893935 -3.22737 0.598639 0
M  V30 22 H -0.450337 -0.94761 2.2055 0
M  V30 23 H 0.0483508 0.686648 1.73988 0
M  V30 24 H -1.95152 -1.0788 0.213956 0
M  V30 25 H -0.579504 0.298596 -1.296 0
M  V30 26 H -1.08987 1.77697 -0.327706 0
M  V30 27 H -2.86325 1.69331 -1.885 0
M  V30 28 H -2.62488 -0.0613323 -2.22231 0
M  V30 29 H -3.92757 -0.719511 -0.349083 0
M  V30 30 H -4.7472 0.728943 -0.985214 0
M  V30 31 H -3.31178 2.17171 0.474831 0
M  V30 32 H -4.55406 1.15706 1.39471 0
M  V30 33 H -2.00268 1.2611 2.12393 0
M  V30 34 H -2.8803 -0.328291 2.19325 0
M  V30 35 H 2.52866 -3.21271 -0.892871 0
M  V30 36 H 5.16253 0.88515 -1.67681 0
M  V30 37 H 3.63787 3.40506 0.308393 0
M  V30 38 H 4.36227 3.22637 -1.32671 0
M  V30 END ATOM
M  V30 BEGIN BOND
M  V30 1 1 1 2
M  V30 2 2 2 3
M  V30 3 1 3 4
M  V30 4 1 4 5
M  V30 5 1 5 6
M  V30 6 1 6 7
M  V30 7 1 7 8
M  V30 8 1 8 9
M  V30 9 1 9 10
M  V30 10 1 3 11
M  V30 11 2 11 12
M  V30 12 1 12 13
M  V30 13 1 12 14
M  V30 14 2 14 15
M  V30 15 1 14 16
M  V30 16 1 16 17
M  V30 17 1 17 18
M  V30 18 2 17 19
M  V30 19 1 13 2
M  V30 20 1 10 5
M  V30 21 1 19 11
M  V30 22 1 1 20
M  V30 23 1 1 21
M  V30 24 1 4 22
M  V30 25 1 4 23
M  V30 26 1 5 24
M  V30 27 1 6 25
M  V30 28 1 6 26
M  V30 29 1 7 27
M  V30 30 1 7 28
M  V30 31 1 8 29
M  V30 32 1 8 30
M  V30 33 1 9 31
M  V30 34 1 9 32
M  V30 35 1 10 33
M  V30 36 1 10 34
M  V30 37 1 13 35
M  V30 38 1 16 36
M  V30 39 1 18 37
M  V30 40 1 18 38
M  V30 END BOND
M  V30 END CTAB
M  END
