
     RDKit          3D

  0  0  0  0  0  0  0  0  0  0999 V3000
M  V30 BEGIN CTAB
M  V30 COUNTS 26 27 0 0 0
M  V30 BEGIN ATOM
M  V30 1 N 4.56265 1.03929 0.797063 0
M  V30 2 C 4.41281 -0.184382 0.0331275 0
M  V30 3 C 2.97999 -0.643937 0.185608 0
M  V30 4 N 2.10065 0.382614 -0.319589 0
M  V30 5 C 0.672197 0.198877 -0.293288 0
M  V30 6 N 0.0622953 -0.899185 0.184404 0
M  V30 7 C -1.268 -0.739818 0.0577052 0
M  V30 8 C -1.44722 0.520927 -0.526321 0
M  V30 9 O -0.250301 1.02871 -0.71023 0
M  V30 10 C -2.72652 0.964874 -0.781152 0
M  V30 11 C -3.83265 0.205429 -0.478441 0
M  V30 12 C -3.66478 -1.04853 0.102019 0
M  V30 13 C -2.38449 -1.50023 0.360439 0
M  V30 14 N -5.11991 0.730431 -0.770674 0
M  V30 15 H 5.17393 0.925855 1.62348 0
M  V30 16 H 3.68016 1.53825 0.959055 0
M  V30 17 H 4.67437 -0.0527239 -1.03129 0
M  V30 18 H 5.11445 -0.94576 0.433382 0
M  V30 19 H 2.8732 -1.52219 -0.515729 0
M  V30 20 H 2.74172 -0.932346 1.22064 0
M  V30 21 H 2.52489 1.25329 -0.700765 0
M  V30 22 H -2.88286 1.93121 -1.22956 0
M  V30 23 H -4.52992 -1.65106 0.342683 0
M  V30 24 H -2.2163 -2.46931 0.810589 0
M  V30 25 H -5.82674 0.870219 -0.0121707 0
M  V30 26 H -5.42363 0.999507 -1.73827 0
M  V30 END ATOM
M  V30 BEGIN BOND
M  V30 1 1 1 2
M  V30 2 1 2 3
M  V30 3 1 3 4
M  V30 4 1 4 5
M  V30 5 2 5 6
M  V30 6 1 6 7
M  V30 7 2 7 8
M  V30 8 1 8 9
M  V30 9 1 8 10
M  V30 10 2 10 11
M  V30 11 1 11 12
M  V30 12 2 12 13
M  V30 13 1 11 14
M  V30 14 1 9 5
M  V30 15 1 13 7
M  V30 16 1 1 15
M  V30 17 1 1 16
M  V30 18 1 2 17
M  V30 19 1 2 18
M  V30 20 1 3 19
M  V30 21 1 3 20
M  V30 22 1 4 21
M  V30 23 1 10 22
M  V30 24 1 12 23
M  V30 25 1 13 24
M  V30 26 1 14 25
M  V30 27 1 14 26
M  V30 END BOND
M  V30 END CTAB
M  END
