
     RDKit          3D

  0  0  0  0  0  0  0  0  0  0999 V3000
M  V30 BEGIN CTAB
M  V30 COUNTS 38 38 0 0 0
M  V30 BEGIN ATOM
M  V30 1 C -2.3292 -1.69336 1.19964 0
M  V30 2 C -2.43358 -1.28248 -0.241197 0
M  V30 3 C -2.00218 0.122709 -0.500763 0
M  V30 4 N -0.628099 0.310465 -0.112325 0
M  V30 5 C 0.482694 -0.381396 -0.627372 0
M  V30 6 O 0.329936 -1.25219 -1.50539 0
M  V30 7 C 1.82812 -0.0893258 -0.141143 0
M  V30 8 C 2.15072 0.856349 0.835576 0
M  V30 9 C 3.51678 0.801206 0.983792 0
M  V30 10 C 3.98644 -0.156847 0.112286 0
M  V30 11 O 2.96066 -0.63299 -0.507388 0
M  V30 12 S 5.65895 -0.64014 -0.114667 0
M  V30 13 O 6.10397 -0.373858 -1.53657 0
M  V30 14 O 5.79755 -2.11593 0.131056 0
M  V30 15 N 6.69006 0.264223 0.926408 0
M  V30 16 C -2.83609 1.13176 0.265811 0
M  V30 17 N -2.78129 0.97045 1.68529 0
M  V30 18 C -2.19559 0.430832 -1.96773 0
M  V30 19 C -3.62004 0.296407 -2.40477 0
M  V30 20 H -1.45569 -1.25411 1.70646 0
M  V30 21 H -2.15072 -2.8078 1.2204 0
M  V30 22 H -3.2789 -1.56562 1.76647 0
M  V30 23 H -1.87869 -2.00993 -0.851314 0
M  V30 24 H -3.51074 -1.42466 -0.531075 0
M  V30 25 H -0.399829 1.03919 0.638273 0
M  V30 26 H 1.48748 1.51003 1.37943 0
M  V30 27 H 4.16047 1.37133 1.63919 0
M  V30 28 H 6.18138 0.703054 1.70905 0
M  V30 29 H 7.55972 -0.229551 1.18198 0
M  V30 30 H -3.88285 1.17183 -0.0369178 0
M  V30 31 H -2.39711 2.13376 0.0297185 0
M  V30 32 H -3.64548 1.37632 2.11792 0
M  V30 33 H -1.97108 1.45513 2.1384 0
M  V30 34 H -1.61346 -0.299634 -2.58833 0
M  V30 35 H -1.82218 1.46804 -2.15061 0
M  V30 36 H -4.34444 0.0375717 -1.63229 0
M  V30 37 H -3.95578 1.24571 -2.91015 0
M  V30 38 H -3.76191 -0.486522 -3.20853 0
M  V30 END ATOM
M  V30 BEGIN BOND
M  V30 1 1 1 2
M  V30 2 1 2 3
M  V30 3 1 3 4
M  V30 4 1 4 5
M  V30 5 2 5 6
M  V30 6 1 5 7
M  V30 7 2 7 8
M  V30 8 1 8 9
M  V30 9 2 9 10
M  V30 10 1 10 11
M  V30 11 1 10 12
M  V30 12 2 12 13
M  V30 13 2 12 14
M  V30 14 1 12 15
M  V30 15 1 3 16
M  V30 16 1 16 17
M  V30 17 1 3 18
M  V30 18 1 18 19
M  V30 19 1 11 7
M  V30 20 1 1 20
M  V30 21 1 1 21
M  V30 22 1 1 22
M  V30 23 1 2 23
M  V30 24 1 2 24
M  V30 25 1 4 25
M  V30 26 1 8 26
M  V30 27 1 9 27
M  V30 28 1 15 28
M  V30 29 1 15 29
M  V30 30 1 16 30
M  V30 31 1 16 31
M  V30 32 1 17 32
M  V30 33 1 17 33
M  V30 34 1 18 34
M  V30 35 1 18 35
M  V30 36 1 19 36
M  V30 37 1 19 37
M  V30 38 1 19 38
M  V30 END BOND
M  V30 END CTAB
M  END
