
     RDKit          3D

  0  0  0  0  0  0  0  0  0  0999 V3000
M  V30 BEGIN CTAB
M  V30 COUNTS 17 16 0 0 0
M  V30 BEGIN ATOM
M  V30 1 C -0.270604 -1.50885 -0.845219 0
M  V30 2 N -0.174891 -0.0891409 -0.646647 0
M  V30 3 S -1.079 0.393749 0.706262 0
M  V30 4 N -2.70308 0.79951 0.321065 0
M  V30 5 O -1.15897 -0.782297 1.66999 0
M  V30 6 O -0.478891 1.52924 1.46574 0
M  V30 7 S 1.42936 0.471393 -0.663507 0
M  V30 8 N 2.13643 0.455234 0.924633 0
M  V30 9 O 1.53105 1.83536 -1.28607 0
M  V30 10 O 2.26696 -0.461082 -1.51107 0
M  V30 11 H 0.248913 -2.10817 -0.0804575 0
M  V30 12 H 0.142426 -1.79149 -1.83414 0
M  V30 13 H -1.34761 -1.80307 -0.779815 0
M  V30 14 H -3.16446 1.25508 1.11843 0
M  V30 15 H -2.80604 1.27598 -0.588712 0
M  V30 16 H 2.44329 -0.525279 1.09531 0
M  V30 17 H 2.98512 1.05383 0.934223 0
M  V30 END ATOM
M  V30 BEGIN BOND
M  V30 1 1 1 2
M  V30 2 1 2 3
M  V30 3 1 3 4
M  V30 4 2 3 5
M  V30 5 2 3 6
M  V30 6 1 2 7
M  V30 7 1 7 8
M  V30 8 2 7 9
M  V30 9 2 7 10
M  V30 10 1 1 11
M  V30 11 1 1 12
M  V30 12 1 1 13
M  V30 13 1 4 14
M  V30 14 1 4 15
M  V30 15 1 8 16
M  V30 16 1 8 17
M  V30 END BOND
M  V30 END CTAB
M  END
