
     RDKit          3D

  0  0  0  0  0  0  0  0  0  0999 V3000
M  V30 BEGIN CTAB
M  V30 COUNTS 38 39 0 0 0
M  V30 BEGIN ATOM
M  V30 1 C 6.42376 0.677344 0.553201 0
M  V30 2 C 5.04298 -0.0247982 0.471341 0
M  V30 3 C 4.83653 -0.345247 -0.950817 0
M  V30 4 C 3.64026 -1.08201 -1.37961 0
M  V30 5 O 2.37894 -0.630914 -1.14623 0
M  V30 6 C 1.61711 -0.480565 -0.041657 0
M  V30 7 O 2.09332 -0.82272 1.06004 0
M  V30 8 C 0.248385 0.0612115 -0.0191356 0
M  V30 9 C -0.274806 0.440266 -1.25355 0
M  V30 10 C -1.53644 0.954663 -1.34497 0
M  V30 11 C -2.28867 1.09422 -0.192947 0
M  V30 12 C -1.77364 0.722296 1.01843 0
M  V30 13 C -0.481469 0.195427 1.10973 0
M  V30 14 N -2.50556 0.863425 2.25167 0
M  V30 15 S -3.91628 1.78492 -0.343552 0
M  V30 16 C -5.05584 0.488084 -0.771116 0
M  V30 17 N -5.35919 0.0679129 -2.02821 0
M  V30 18 N -6.25265 -0.894718 -1.94674 0
M  V30 19 C -6.55293 -1.12666 -0.66195 0
M  V30 20 N -5.79426 -0.251223 0.0616501 0
M  V30 21 N -5.86872 -0.213332 1.4609 0
M  V30 22 H 6.54532 1.155 1.54697 0
M  V30 23 H 6.46487 1.4879 -0.199993 0
M  V30 24 H 7.18401 -0.0941728 0.338642 0
M  V30 25 H 4.29574 0.737533 0.841251 0
M  V30 26 H 4.98321 -0.8829 1.14697 0
M  V30 27 H 5.01755 0.594819 -1.54619 0
M  V30 28 H 5.72705 -0.995342 -1.26181 0
M  V30 29 H 3.73272 -1.22667 -2.50954 0
M  V30 30 H 3.7939 -2.16061 -1.0112 0
M  V30 31 H 0.313462 0.33076 -2.15172 0
M  V30 32 H -1.98606 1.26519 -2.29584 0
M  V30 33 H -0.0629328 -0.102521 2.05947 0
M  V30 34 H -2.92005 1.7826 2.52502 0
M  V30 35 H -2.64933 0.069373 2.91001 0
M  V30 36 H -7.24615 -1.84945 -0.264666 0
M  V30 37 H -6.1674 0.681466 1.89655 0
M  V30 38 H -5.64676 -1.01203 2.06962 0
M  V30 END ATOM
M  V30 BEGIN BOND
M  V30 1 1 1 2
M  V30 2 1 2 3
M  V30 3 1 3 4
M  V30 4 1 4 5
M  V30 5 1 5 6
M  V30 6 2 6 7
M  V30 7 1 6 8
M  V30 8 2 8 9
M  V30 9 1 9 10
M  V30 10 2 10 11
M  V30 11 1 11 12
M  V30 12 2 12 13
M  V30 13 1 12 14
M  V30 14 1 11 15
M  V30 15 1 15 16
M  V30 16 2 16 17
M  V30 17 1 17 18
M  V30 18 2 18 19
M  V30 19 1 19 20
M  V30 20 1 20 21
M  V30 21 1 13 8
M  V30 22 1 20 16
M  V30 23 1 1 22
M  V30 24 1 1 23
M  V30 25 1 1 24
M  V30 26 1 2 25
M  V30 27 1 2 26
M  V30 28 1 3 27
M  V30 29 1 3 28
M  V30 30 1 4 29
M  V30 31 1 4 30
M  V30 32 1 9 31
M  V30 33 1 10 32
M  V30 34 1 13 33
M  V30 35 1 14 34
M  V30 36 1 14 35
M  V30 37 1 19 36
M  V30 38 1 21 37
M  V30 39 1 21 38
M  V30 END BOND
M  V30 END CTAB
M  END
