
     RDKit          3D

  0  0  0  0  0  0  0  0  0  0999 V3000
M  V30 BEGIN CTAB
M  V30 COUNTS 29 28 0 0 0
M  V30 BEGIN ATOM
M  V30 1 N -4.83506 0.628817 1.09177 0
M  V30 2 C -3.60425 0.477266 0.337702 0
M  V30 3 C -2.80002 -0.608997 1.01259 0
M  V30 4 C -1.48096 -0.863177 0.312941 0
M  V30 5 S -0.466453 0.627271 0.297792 0
M  V30 6 C 1.08764 0.263024 -0.546643 0
M  V30 7 C 1.99392 1.47432 -0.597893 0
M  V30 8 C 3.26308 1.15665 -1.29375 0
M  V30 9 O 3.5578 1.80203 -2.32872 0
M  V30 10 N 4.16133 0.158685 -0.847286 0
M  V30 11 N 5.3503 -0.118778 -1.52369 0
M  V30 12 F 1.39155 2.56158 -1.14749 0
M  V30 13 F 2.32098 1.77698 0.729474 0
M  V30 14 C -0.76412 -1.93476 1.13655 0
M  V30 15 H -5.29001 -0.325714 1.10898 0
M  V30 16 H -4.56149 0.819379 2.0818 0
M  V30 17 H -3.0768 1.44993 0.353797 0
M  V30 18 H -3.89225 0.179916 -0.703307 0
M  V30 19 H -3.4095 -1.54668 0.936731 0
M  V30 20 H -2.67707 -0.340558 2.05971 0
M  V30 21 H -1.6572 -1.28548 -0.695886 0
M  V30 22 H 1.57409 -0.615236 -0.129906 0
M  V30 23 H 0.840812 0.0108203 -1.61911 0
M  V30 24 H 3.98082 -0.423803 0.0140866 0
M  V30 25 H 5.33065 0.237647 -2.50552 0
M  V30 26 H 5.47685 -1.15166 -1.53105 0
M  V30 27 H -1.35853 -2.85887 1.02773 0
M  V30 28 H 0.265882 -2.01498 0.769135 0
M  V30 29 H -0.722014 -1.57819 2.19945 0
M  V30 END ATOM
M  V30 BEGIN BOND
M  V30 1 1 1 2
M  V30 2 1 2 3
M  V30 3 1 3 4
M  V30 4 1 4 5
M  V30 5 1 5 6
M  V30 6 1 6 7
M  V30 7 1 7 8
M  V30 8 2 8 9
M  V30 9 1 8 10
M  V30 10 1 10 11
M  V30 11 1 7 12
M  V30 12 1 7 13
M  V30 13 1 4 14
M  V30 14 1 1 15
M  V30 15 1 1 16
M  V30 16 1 2 17
M  V30 17 1 2 18
M  V30 18 1 3 19
M  V30 19 1 3 20
M  V30 20 1 4 21
M  V30 21 1 6 22
M  V30 22 1 6 23
M  V30 23 1 10 24
M  V30 24 1 11 25
M  V30 25 1 11 26
M  V30 26 1 14 27
M  V30 27 1 14 28
M  V30 28 1 14 29
M  V30 END BOND
M  V30 END CTAB
M  END
