
     RDKit          3D

  0  0  0  0  0  0  0  0  0  0999 V3000
M  V30 BEGIN CTAB
M  V30 COUNTS 43 43 0 0 0
M  V30 BEGIN ATOM
M  V30 1 C -2.23059 -3.68873 -0.305635 0
M  V30 2 C -1.75509 -2.34086 0.0875404 0
M  V30 3 O -1.87604 -2.04185 1.30812 0
M  V30 4 N -1.19566 -1.43518 -0.848825 0
M  V30 5 C -0.743822 -0.14399 -0.454783 0 CFG=2
M  V30 6 C -1.5257 0.925752 -1.17564 0 CFG=1
M  V30 7 N -2.80783 1.05588 -0.512566 0
M  V30 8 C -3.77535 1.99508 -0.967039 0
M  V30 9 N -4.62339 1.7341 -2.07758 0
M  V30 10 N -3.85361 3.11533 -0.318231 0
M  V30 11 C -0.855935 2.24912 -1.1034 0
M  V30 12 C 0.358755 2.42668 -0.624526 0
M  V30 13 O 1.06158 1.32585 -0.159275 0
M  V30 14 C 0.743725 0.0689427 -0.70943 0 CFG=1
M  V30 15 C 1.53419 -1.03089 -0.138847 0
M  V30 16 O 1.30483 -2.18672 -0.582998 0
M  V30 17 N 2.52414 -0.862101 0.867795 0
M  V30 18 C 3.29854 -1.91173 1.43236 0
M  V30 19 C 4.24165 -1.34424 2.46786 0
M  V30 20 N 5.06329 -2.36328 3.08341 0
M  V30 21 C 0.908617 3.77522 -0.605868 0
M  V30 22 O 0.201818 4.85199 -1.06899 0
M  V30 23 O 2.06864 3.92764 -0.145773 0
M  V30 24 H -1.98586 -4.39492 0.50998 0
M  V30 25 H -1.66743 -4.01581 -1.19521 0
M  V30 26 H -3.32168 -3.70598 -0.443095 0
M  V30 27 H -1.12201 -1.74028 -1.84409 0
M  V30 28 H -0.895928 0.0129536 0.634706 0
M  V30 29 H -1.71877 0.696525 -2.22213 0
M  V30 30 H -3.06995 0.474331 0.313396 0
M  V30 31 H -5.6585 1.86758 -2.00816 0
M  V30 32 H -4.16887 1.40457 -2.96229 0
M  V30 33 H -3.26341 3.3477 0.487609 0
M  V30 34 H -1.43507 3.09352 -1.4771 0
M  V30 35 H 0.96618 0.107829 -1.79147 0
M  V30 36 H 2.68342 0.112316 1.20824 0
M  V30 37 H 2.61667 -2.61512 1.99243 0
M  V30 38 H 3.8219 -2.54721 0.694818 0
M  V30 39 H 4.83536 -0.555725 1.97675 0
M  V30 40 H 3.59428 -0.82609 3.21965 0
M  V30 41 H 5.96044 -2.51142 2.59166 0
M  V30 42 H 5.19939 -2.07392 4.09598 0
M  V30 43 H 0.56308 5.76715 -1.22936 0
M  V30 END ATOM
M  V30 BEGIN BOND
M  V30 1 1 1 2
M  V30 2 2 2 3
M  V30 3 1 2 4
M  V30 4 1 4 5
M  V30 5 1 5 6
M  V30 6 1 6 7
M  V30 7 1 7 8
M  V30 8 1 8 9
M  V30 9 2 8 10 CFG=2
M  V30 10 1 6 11
M  V30 11 2 11 12
M  V30 12 1 12 13
M  V30 13 1 13 14
M  V30 14 1 14 15
M  V30 15 2 15 16
M  V30 16 1 15 17
M  V30 17 1 17 18
M  V30 18 1 18 19
M  V30 19 1 19 20
M  V30 20 1 12 21
M  V30 21 1 21 22
M  V30 22 2 21 23
M  V30 23 1 14 5
M  V30 24 1 1 24
M  V30 25 1 1 25
M  V30 26 1 1 26
M  V30 27 1 4 27
M  V30 28 1 5 28 CFG=1
M  V30 29 1 6 29 CFG=3
M  V30 30 1 7 30
M  V30 31 1 9 31
M  V30 32 1 9 32
M  V30 33 1 10 33
M  V30 34 1 11 34
M  V30 35 1 14 35 CFG=3
M  V30 36 1 17 36
M  V30 37 1 18 37
M  V30 38 1 18 38
M  V30 39 1 19 39
M  V30 40 1 19 40
M  V30 41 1 20 41
M  V30 42 1 20 42
M  V30 43 1 22 43
M  V30 END BOND
M  V30 END CTAB
M  END
