
     RDKit          3D

  0  0  0  0  0  0  0  0  0  0999 V3000
M  V30 BEGIN CTAB
M  V30 COUNTS 47 50 0 0 0
M  V30 BEGIN ATOM
M  V30 1 C 5.13608 -0.853469 2.15551 0
M  V30 2 N 4.95187 -0.482452 0.769247 0
M  V30 3 C 6.13609 -0.330329 -0.0505687 0
M  V30 4 C 3.63976 -0.270121 0.226621 0
M  V30 5 C 2.53752 -0.40634 1.0427 0
M  V30 6 C 1.29073 -0.190537 0.461916 0
M  V30 7 C 1.13321 0.145344 -0.866107 0
M  V30 8 N -0.127211 0.359538 -1.43732 0
M  V30 9 C -1.35895 0.272361 -0.787256 0
M  V30 10 C -2.04793 -0.911097 -0.737962 0
M  V30 11 C -1.5921 -2.0793 -1.31093 0
M  V30 12 C -2.32513 -3.24499 -1.23256 0
M  V30 13 C -3.53827 -3.30249 -0.584564 0
M  V30 14 N -4.30212 -4.48682 -0.494478 0
M  V30 15 C -3.97994 -2.10856 -0.0122237 0
M  V30 16 C -3.26041 -0.936513 -0.0814403 0
M  V30 17 N -3.78663 0.143271 0.505599 0
M  V30 18 C -3.14156 1.31038 0.475805 0
M  V30 19 C -3.71303 2.40009 1.09036 0
M  V30 20 C -3.02129 3.59031 1.04143 0
M  V30 21 N -3.52965 4.76235 1.64424 0
M  V30 22 C -1.80633 3.68056 0.401517 0
M  V30 23 C -1.2707 2.5738 -0.198138 0
M  V30 24 C -1.91719 1.36867 -0.178106 0
M  V30 25 C 2.27429 0.265033 -1.62408 0
M  V30 26 C 3.53395 0.0637128 -1.10537 0
M  V30 27 H 5.0511 0.070877 2.78558 0
M  V30 28 H 6.16188 -1.25602 2.26362 0
M  V30 29 H 4.36954 -1.56851 2.51947 0
M  V30 30 H 6.1135 0.590096 -0.667259 0
M  V30 31 H 6.25597 -1.18207 -0.742093 0
M  V30 32 H 7.01648 -0.215675 0.611676 0
M  V30 33 H 2.60061 -0.669542 2.10091 0
M  V30 34 H 0.41173 -0.289645 1.07385 0
M  V30 35 H -0.165534 0.615458 -2.47109 0
M  V30 36 H -0.651654 -2.04397 -1.81582 0
M  V30 37 H -1.93839 -4.1392 -1.69184 0
M  V30 38 H -5.02015 -4.593 0.231824 0
M  V30 39 H -4.12993 -5.24995 -1.1711 0
M  V30 40 H -4.9215 -2.13164 0.496676 0
M  V30 41 H -4.65899 2.38807 1.60472 0
M  V30 42 H -3.28245 5.70222 1.26982 0
M  V30 43 H -4.15984 4.71601 2.47228 0
M  V30 44 H -1.27134 4.62555 0.370453 0
M  V30 45 H -0.308063 2.60344 -0.716739 0
M  V30 46 H 2.17695 0.530401 -2.67969 0
M  V30 47 H 4.43502 0.164714 -1.73252 0
M  V30 END ATOM
M  V30 BEGIN BOND
M  V30 1 1 1 2
M  V30 2 1 2 3
M  V30 3 1 2 4
M  V30 4 2 4 5
M  V30 5 1 5 6
M  V30 6 2 6 7
M  V30 7 1 7 8
M  V30 8 1 8 9
M  V30 9 1 9 10
M  V30 10 2 10 11
M  V30 11 1 11 12
M  V30 12 2 12 13
M  V30 13 1 13 14
M  V30 14 1 13 15
M  V30 15 2 15 16
M  V30 16 1 16 17
M  V30 17 2 17 18
M  V30 18 1 18 19
M  V30 19 2 19 20
M  V30 20 1 20 21
M  V30 21 1 20 22
M  V30 22 2 22 23
M  V30 23 1 23 24
M  V30 24 1 7 25
M  V30 25 2 25 26
M  V30 26 1 26 4
M  V30 27 2 24 9
M  V30 28 1 16 10
M  V30 29 1 24 18
M  V30 30 1 1 27
M  V30 31 1 1 28
M  V30 32 1 1 29
M  V30 33 1 3 30
M  V30 34 1 3 31
M  V30 35 1 3 32
M  V30 36 1 5 33
M  V30 37 1 6 34
M  V30 38 1 8 35
M  V30 39 1 11 36
M  V30 40 1 12 37
M  V30 41 1 14 38
M  V30 42 1 14 39
M  V30 43 1 15 40
M  V30 44 1 19 41
M  V30 45 1 21 42
M  V30 46 1 21 43
M  V30 47 1 22 44
M  V30 48 1 23 45
M  V30 49 1 25 46
M  V30 50 1 26 47
M  V30 END BOND
M  V30 END CTAB
M  END
