
     RDKit          3D

  0  0  0  0  0  0  0  0  0  0999 V3000
M  V30 BEGIN CTAB
M  V30 COUNTS 60 64 0 0 0
M  V30 BEGIN ATOM
M  V30 1 N 8.86556 -2.90883 -0.0396655 0
M  V30 2 C 7.6844 -2.15932 0.205722 0
M  V30 3 C 7.74297 -0.823509 0.518714 0
M  V30 4 C 6.57481 -0.120427 0.752365 0
M  V30 5 C 5.34048 -0.725452 0.680021 0
M  V30 6 C 4.11305 0.0443256 0.932911 0
M  V30 7 C 3.65737 0.614701 -0.40745 0
M  V30 8 N 2.44913 1.37669 -0.180891 0
M  V30 9 C 2.28993 2.66647 0.119548 0
M  V30 10 N 0.980491 2.92669 0.236223 0
M  V30 11 C 0.2662 1.81151 0.0138415 0
M  V30 12 C 1.20035 0.836147 -0.24906 0
M  V30 13 N 0.755516 -0.391071 -0.508505 0
M  V30 14 C -0.56944 -0.738747 -0.528978 0
M  V30 15 N -0.936802 -2.07552 -0.828715 0
M  V30 16 C -2.25648 -2.59005 -0.879471 0
M  V30 17 C -3.18511 -1.88846 -1.84501 0
M  V30 18 C -4.5143 -2.55147 -1.46085 0
M  V30 19 C -4.48508 -2.49619 0.0334293 0
M  V30 20 C -3.00579 -2.50917 0.421473 0
M  V30 21 N -1.41952 0.254806 -0.265477 0
M  V30 22 C -1.1187 1.52226 0.0089957 0
M  V30 23 N -1.98417 2.58508 0.265919 0
M  V30 24 C -3.38423 2.61269 0.338228 0
M  V30 25 C -4.12898 1.47801 0.453037 0
M  V30 26 C -5.53367 1.4973 0.506883 0
M  V30 27 C -6.15284 2.71722 0.439938 0
M  V30 28 C -5.44581 3.89034 0.324279 0
M  V30 29 N -6.09606 5.15128 0.255681 0
M  V30 30 C -4.08523 3.82012 0.275687 0
M  V30 31 C 5.27165 -2.06093 0.367686 0
M  V30 32 C 6.44306 -2.78849 0.128054 0
M  V30 33 H 9.59429 -2.50904 -0.666455 0
M  V30 34 H 9.02001 -3.84595 0.390887 0
M  V30 35 H 8.69643 -0.343796 0.577516 0
M  V30 36 H 6.60203 0.941837 1.00233 0
M  V30 37 H 3.31368 -0.552572 1.3789 0
M  V30 38 H 4.37145 0.889007 1.61091 0
M  V30 39 H 4.40645 1.32211 -0.817261 0
M  V30 40 H 3.53926 -0.214045 -1.10404 0
M  V30 41 H 3.11343 3.35965 0.24113 0
M  V30 42 H -0.130819 -2.75015 -1.03454 0
M  V30 43 H -2.25618 -3.69432 -1.15747 0
M  V30 44 H -3.29773 -0.831476 -1.61259 0
M  V30 45 H -2.93779 -2.11069 -2.89823 0
M  V30 46 H -5.37006 -1.96562 -1.86488 0
M  V30 47 H -4.46484 -3.58028 -1.84227 0
M  V30 48 H -4.98074 -1.59828 0.44329 0
M  V30 49 H -5.01523 -3.37948 0.461166 0
M  V30 50 H -2.75496 -1.64045 1.02865 0
M  V30 51 H -2.83271 -3.43252 1.02336 0
M  V30 52 H -1.50587 3.54186 0.44075 0
M  V30 53 H -3.67981 0.51061 0.520407 0
M  V30 54 H -6.09548 0.586161 0.597189 0
M  V30 55 H -7.24402 2.82236 0.475028 0
M  V30 56 H -5.96793 5.72954 -0.583383 0
M  V30 57 H -6.68345 5.47824 1.03112 0
M  V30 58 H -3.47825 4.71294 0.184083 0
M  V30 59 H 4.33603 -2.59494 0.294983 0
M  V30 60 H 6.37009 -3.82869 -0.114122 0
M  V30 END ATOM
M  V30 BEGIN BOND
M  V30 1 1 1 2
M  V30 2 2 2 3
M  V30 3 1 3 4
M  V30 4 2 4 5
M  V30 5 1 5 6
M  V30 6 1 6 7
M  V30 7 1 7 8
M  V30 8 1 8 9
M  V30 9 2 9 10
M  V30 10 1 10 11
M  V30 11 2 11 12
M  V30 12 1 12 13
M  V30 13 2 13 14
M  V30 14 1 14 15
M  V30 15 1 15 16
M  V30 16 1 16 17
M  V30 17 1 17 18
M  V30 18 1 18 19
M  V30 19 1 19 20
M  V30 20 1 14 21
M  V30 21 2 21 22
M  V30 22 1 22 23
M  V30 23 1 23 24
M  V30 24 2 24 25
M  V30 25 1 25 26
M  V30 26 2 26 27
M  V30 27 1 27 28
M  V30 28 1 28 29
M  V30 29 2 28 30
M  V30 30 1 5 31
M  V30 31 2 31 32
M  V30 32 1 32 2
M  V30 33 1 12 8
M  V30 34 1 20 16
M  V30 35 1 30 24
M  V30 36 1 22 11
M  V30 37 1 1 33
M  V30 38 1 1 34
M  V30 39 1 3 35
M  V30 40 1 4 36
M  V30 41 1 6 37
M  V30 42 1 6 38
M  V30 43 1 7 39
M  V30 44 1 7 40
M  V30 45 1 9 41
M  V30 46 1 15 42
M  V30 47 1 16 43
M  V30 48 1 17 44
M  V30 49 1 17 45
M  V30 50 1 18 46
M  V30 51 1 18 47
M  V30 52 1 19 48
M  V30 53 1 19 49
M  V30 54 1 20 50
M  V30 55 1 20 51
M  V30 56 1 23 52
M  V30 57 1 25 53
M  V30 58 1 26 54
M  V30 59 1 27 55
M  V30 60 1 29 56
M  V30 61 1 29 57
M  V30 62 1 30 58
M  V30 63 1 31 59
M  V30 64 1 32 60
M  V30 END BOND
M  V30 END CTAB
M  END
