
     RDKit          3D

  0  0  0  0  0  0  0  0  0  0999 V3000
M  V30 BEGIN CTAB
M  V30 COUNTS 19 19 0 0 0
M  V30 BEGIN ATOM
M  V30 1 N 2.61942 -0.620163 -0.117448 0
M  V30 2 C 1.67376 0.440848 -0.0345619 0
M  V30 3 C 0.262707 -0.0281558 -0.0166419 0
M  V30 4 C -0.761166 0.892928 0.061367 0
M  V30 5 N -0.42088 2.28095 0.122752 0
M  V30 6 C -2.09995 0.525849 0.0823854 0
M  V30 7 C -2.39737 -0.815031 0.0221535 0
M  V30 8 C -1.38641 -1.75644 -0.0565201 0
M  V30 9 Cl -1.80875 -3.45886 -0.13168 0
M  V30 10 C -0.0496955 -1.37501 -0.0767356 0
M  V30 11 Cl 1.21501 -2.58412 -0.176788 0
M  V30 12 H 3.06235 -0.877622 0.790452 0
M  V30 13 H 3.31381 -0.518235 -0.888471 0
M  V30 14 H 1.80719 1.09041 -0.93429 0
M  V30 15 H 1.88052 1.02878 0.875149 0
M  V30 16 H 0.510271 2.62096 -0.181448 0
M  V30 17 H -1.11066 2.97951 0.477874 0
M  V30 18 H -2.87783 1.29164 0.145053 0
M  V30 19 H -3.43232 -1.11823 0.0373987 0
M  V30 END ATOM
M  V30 BEGIN BOND
M  V30 1 1 1 2
M  V30 2 1 2 3
M  V30 3 2 3 4
M  V30 4 1 4 5
M  V30 5 1 4 6
M  V30 6 2 6 7
M  V30 7 1 7 8
M  V30 8 1 8 9
M  V30 9 2 8 10
M  V30 10 1 10 11
M  V30 11 1 10 3
M  V30 12 1 1 12
M  V30 13 1 1 13
M  V30 14 1 2 14
M  V30 15 1 2 15
M  V30 16 1 5 16
M  V30 17 1 5 17
M  V30 18 1 6 18
M  V30 19 1 7 19
M  V30 END BOND
M  V30 END CTAB
M  END
