
     RDKit          3D

  0  0  0  0  0  0  0  0  0  0999 V3000
M  V30 BEGIN CTAB
M  V30 COUNTS 59 63 0 0 0
M  V30 BEGIN ATOM
M  V30 1 Br 1.80353 -4.23969 -4.9232 0
M  V30 2 C 1.26262 -3.0215 -3.55358 0
M  V30 3 C 1.47291 -3.32419 -2.23222 0
M  V30 4 C 1.07478 -2.43082 -1.26308 0
M  V30 5 C 0.466769 -1.23069 -1.55419 0
M  V30 6 C 0.279376 -0.975632 -2.89569 0
M  V30 7 C 0.665204 -1.84784 -3.90835 0
M  V30 8 C 0.00408339 -0.247114 -0.529323 0
M  V30 9 C 0.965178 0.0182364 0.531784 0
M  V30 10 C 0.88404 0.160344 1.87838 0
M  V30 11 C -0.316679 0.0943558 2.71038 0
M  V30 12 N 2.13316 0.394239 2.34301 0
M  V30 13 N 3.00101 0.410929 1.38385 0
M  V30 14 C 2.34226 0.185869 0.245875 0
M  V30 15 N 2.96924 0.139184 -1.01389 0
M  V30 16 C 4.39159 0.628307 1.51944 0
M  V30 17 C 4.94608 1.90269 1.57072 0
M  V30 18 C 6.2979 2.11712 1.70256 0
M  V30 19 C 7.15781 1.03747 1.78928 0
M  V30 20 C 6.64736 -0.235521 1.74231 0
M  V30 21 C 5.27586 -0.428334 1.60849 0
M  V30 22 C -1.4107 -0.309282 -0.242634 0
M  V30 23 C -2.13397 -1.36385 0.24378 0
M  V30 24 C -1.73377 -2.72554 0.603019 0
M  V30 25 N -3.44498 -0.971087 0.356745 0
M  V30 26 N -3.58178 0.257537 -0.0284037 0
M  V30 27 C -2.3877 0.698899 -0.398072 0
M  V30 28 N -2.09978 2.01125 -0.890187 0
M  V30 29 C -4.77812 1.00834 -0.0571941 0
M  V30 30 C -5.33998 1.50644 -1.2138 0
M  V30 31 C -6.52431 2.24169 -1.18088 0
M  V30 32 C -7.16038 2.48398 0.0347449 0
M  V30 33 C -6.58895 1.98118 1.18103 0
M  V30 34 C -5.41867 1.2555 1.14168 0
M  V30 35 H 1.95454 -4.27249 -1.96808 0
M  V30 36 H 1.26042 -2.69381 -0.236171 0
M  V30 37 H -0.200513 -0.0345097 -3.19873 0
M  V30 38 H 0.501014 -1.61049 -4.93288 0
M  V30 39 H 0.0978822 0.746283 -1.16083 0
M  V30 40 H -0.040489 0.493619 3.74066 0
M  V30 41 H -0.64569 -0.940408 2.94862 0
M  V30 42 H -1.13922 0.77386 2.4115 0
M  V30 43 H 2.77575 0.831934 -1.75227 0
M  V30 44 H 3.64972 -0.617581 -1.208 0
M  V30 45 H 4.2832 2.73756 1.50383 0
M  V30 46 H 6.75074 3.10008 1.74463 0
M  V30 47 H 8.24223 1.19156 1.89508 0
M  V30 48 H 7.34751 -1.06396 1.81293 0
M  V30 49 H 4.89039 -1.43749 1.57312 0
M  V30 50 H -0.79047 -2.71354 1.2262 0
M  V30 51 H -2.46702 -3.20208 1.32729 0
M  V30 52 H -1.69902 -3.4438 -0.228042 0
M  V30 53 H -1.75943 2.781 -0.269241 0
M  V30 54 H -2.24128 2.18917 -1.91403 0
M  V30 55 H -4.83242 1.30894 -2.15145 0
M  V30 56 H -6.8946 2.5915 -2.11151 0
M  V30 57 H -8.07629 3.05657 0.0279828 0
M  V30 58 H -7.06027 2.1539 2.13561 0
M  V30 59 H -5.02768 0.891719 2.08143 0
M  V30 END ATOM
M  V30 BEGIN BOND
M  V30 1 1 1 2
M  V30 2 2 2 3
M  V30 3 1 3 4
M  V30 4 2 4 5
M  V30 5 1 5 6
M  V30 6 2 6 7
M  V30 7 1 5 8
M  V30 8 1 8 9
M  V30 9 1 9 10
M  V30 10 1 10 11
M  V30 11 2 10 12
M  V30 12 1 12 13
M  V30 13 1 13 14
M  V30 14 1 14 15
M  V30 15 1 13 16
M  V30 16 2 16 17
M  V30 17 1 17 18
M  V30 18 2 18 19
M  V30 19 1 19 20
M  V30 20 2 20 21
M  V30 21 1 8 22
M  V30 22 1 22 23
M  V30 23 1 23 24
M  V30 24 2 23 25
M  V30 25 1 25 26
M  V30 26 1 26 27
M  V30 27 1 27 28
M  V30 28 1 26 29
M  V30 29 2 29 30
M  V30 30 1 30 31
M  V30 31 2 31 32
M  V30 32 1 32 33
M  V30 33 2 33 34
M  V30 34 1 7 2
M  V30 35 2 14 9
M  V30 36 1 21 16
M  V30 37 2 27 22
M  V30 38 1 34 29
M  V30 39 1 3 35
M  V30 40 1 4 36
M  V30 41 1 6 37
M  V30 42 1 7 38
M  V30 43 1 8 39
M  V30 44 1 11 40
M  V30 45 1 11 41
M  V30 46 1 11 42
M  V30 47 1 15 43
M  V30 48 1 15 44
M  V30 49 1 17 45
M  V30 50 1 18 46
M  V30 51 1 19 47
M  V30 52 1 20 48
M  V30 53 1 21 49
M  V30 54 1 24 50
M  V30 55 1 24 51
M  V30 56 1 24 52
M  V30 57 1 28 53
M  V30 58 1 28 54
M  V30 59 1 30 55
M  V30 60 1 31 56
M  V30 61 1 32 57
M  V30 62 1 33 58
M  V30 63 1 34 59
M  V30 END BOND
M  V30 END CTAB
M  END
