
     RDKit          3D

  0  0  0  0  0  0  0  0  0  0999 V3000
M  V30 BEGIN CTAB
M  V30 COUNTS 29 30 0 0 0
M  V30 BEGIN ATOM
M  V30 1 N -0.521115 2.51165 0.464204 0
M  V30 2 C -1.4851 1.55598 0.0843029 0
M  V30 3 C -2.82284 1.89259 0.182279 0
M  V30 4 N -3.2051 3.15673 0.649018 0
M  V30 5 C -3.76121 0.963446 -0.186887 0
M  V30 6 C -3.32856 -0.266585 -0.639878 0
M  V30 7 N -1.99586 -0.566906 -0.724336 0
M  V30 8 C -1.06394 0.33022 -0.367346 0
M  V30 9 O 0.253472 0.0259398 -0.453597 0
M  V30 10 C 0.819587 -1.16898 -0.890586 0
M  V30 11 C 2.32063 -1.03666 -0.809841 0
M  V30 12 C 2.852 -0.758835 0.580565 0
M  V30 13 C 2.8561 -2.28166 0.773421 0
M  V30 14 C 3.06552 -2.36154 -0.743999 0
M  V30 15 H 0.172648 2.27492 1.1929 0
M  V30 16 H -0.493233 3.44793 0.027718 0
M  V30 17 H -4.17757 3.32255 0.983873 0
M  V30 18 H -2.55157 3.96642 0.68153 0
M  V30 19 H -4.83985 1.15238 -0.138897 0
M  V30 20 H -4.08306 -0.986135 -0.926234 0
M  V30 21 H 0.564073 -1.3158 -1.96813 0
M  V30 22 H 0.442699 -2.06057 -0.365063 0
M  V30 23 H 2.76797 -0.369364 -1.545 0
M  V30 24 H 3.84107 -0.294927 0.61274 0
M  V30 25 H 2.09921 -0.333319 1.28715 0
M  V30 26 H 1.91127 -2.69113 1.12392 0
M  V30 27 H 3.77991 -2.57461 1.27914 0
M  V30 28 H 2.47397 -3.22056 -1.14081 0
M  V30 29 H 4.10887 -2.31319 -1.05534 0
M  V30 END ATOM
M  V30 BEGIN BOND
M  V30 1 1 1 2
M  V30 2 2 2 3
M  V30 3 1 3 4
M  V30 4 1 3 5
M  V30 5 2 5 6
M  V30 6 1 6 7
M  V30 7 2 7 8
M  V30 8 1 8 9
M  V30 9 1 9 10
M  V30 10 1 10 11
M  V30 11 1 11 12
M  V30 12 1 12 13
M  V30 13 1 13 14
M  V30 14 1 8 2
M  V30 15 1 14 11
M  V30 16 1 1 15
M  V30 17 1 1 16
M  V30 18 1 4 17
M  V30 19 1 4 18
M  V30 20 1 5 19
M  V30 21 1 6 20
M  V30 22 1 10 21
M  V30 23 1 10 22
M  V30 24 1 11 23
M  V30 25 1 12 24
M  V30 26 1 12 25
M  V30 27 1 13 26
M  V30 28 1 13 27
M  V30 29 1 14 28
M  V30 30 1 14 29
M  V30 END BOND
M  V30 END CTAB
M  END
