
     RDKit          3D

  0  0  0  0  0  0  0  0  0  0999 V3000
M  V30 BEGIN CTAB
M  V30 COUNTS 27 28 0 0 0
M  V30 BEGIN ATOM
M  V30 1 N 4.66562 -1.36459 -1.02637 0
M  V30 2 C 3.40806 -0.793512 -0.643304 0
M  V30 3 C 2.23098 -1.41361 -1.02309 0
M  V30 4 C 0.995114 -0.898609 -0.674678 0
M  V30 5 C 0.886227 0.25245 0.0632842 0
M  V30 6 C 2.09704 0.859799 0.435823 0
M  V30 7 N 3.27974 0.317229 0.0706842 0
M  V30 8 N 2.09468 2.04871 1.20228 0
M  V30 9 C -0.328435 0.843348 0.51511 0
M  V30 10 O -0.261074 1.84243 1.33555 0
M  V30 11 C -1.69712 0.48125 0.182119 0
M  V30 12 C -2.09811 -0.0347426 -1.02522 0
M  V30 13 C -3.41519 -0.418451 -1.27899 0
M  V30 14 C -4.38526 -0.291412 -0.312229 0
M  V30 15 C -4.0059 0.221815 0.896794 0
M  V30 16 C -2.71373 0.598313 1.14809 0
M  V30 17 H 4.72426 -2.38817 -1.10173 0
M  V30 18 H 5.4991 -0.802112 -1.22636 0
M  V30 19 H 2.31234 -2.32476 -1.60856 0
M  V30 20 H 0.143821 -1.46939 -0.992123 0
M  V30 21 H 1.98807 2.95673 0.734681 0
M  V30 22 H 2.20226 1.98689 2.22364 0
M  V30 23 H -1.37529 -0.12246 -1.83793 0
M  V30 24 H -3.67172 -0.826495 -2.26013 0
M  V30 25 H -5.40651 -0.597624 -0.53469 0
M  V30 26 H -4.74758 0.330354 1.66625 0
M  V30 27 H -2.4214 1.00661 2.10372 0
M  V30 END ATOM
M  V30 BEGIN BOND
M  V30 1 1 1 2
M  V30 2 2 2 3
M  V30 3 1 3 4
M  V30 4 2 4 5
M  V30 5 1 5 6
M  V30 6 2 6 7
M  V30 7 1 6 8
M  V30 8 1 5 9
M  V30 9 2 9 10
M  V30 10 1 9 11
M  V30 11 2 11 12
M  V30 12 1 12 13
M  V30 13 2 13 14
M  V30 14 1 14 15
M  V30 15 2 15 16
M  V30 16 1 7 2
M  V30 17 1 16 11
M  V30 18 1 1 17
M  V30 19 1 1 18
M  V30 20 1 3 19
M  V30 21 1 4 20
M  V30 22 1 8 21
M  V30 23 1 8 22
M  V30 24 1 12 23
M  V30 25 1 13 24
M  V30 26 1 14 25
M  V30 27 1 15 26
M  V30 28 1 16 27
M  V30 END BOND
M  V30 END CTAB
M  END
