
     RDKit          3D

  0  0  0  0  0  0  0  0  0  0999 V3000
M  V30 BEGIN CTAB
M  V30 COUNTS 37 38 0 0 0
M  V30 BEGIN ATOM
M  V30 1 O -2.18385 1.26957 -0.465178 0
M  V30 2 C -2.70944 0.141703 -0.360609 0
M  V30 3 C -4.17125 0.064962 -0.139941 0
M  V30 4 N -4.79338 -1.11624 -0.019696 0
M  V30 5 C -6.137 -1.15235 0.182344 0
M  V30 6 C -6.90783 -0.0140579 0.271683 0
M  V30 7 N -6.27181 1.16371 0.149438 0
M  V30 8 C -4.92243 1.21518 -0.0538175 0
M  V30 9 N -4.31196 2.49526 -0.174593 0
M  V30 10 N -1.92147 -1.01787 -0.452027 0
M  V30 11 C -0.503686 -0.940401 -0.656958 0
M  V30 12 C 0.164429 -0.244826 0.487439 0
M  V30 13 C 1.61685 -0.22437 0.183254 0
M  V30 14 C 2.14483 0.827039 -0.511638 0
M  V30 15 C 3.50306 0.836889 -0.7909 0
M  V30 16 C 4.32423 -0.194944 -0.378882 0
M  V30 17 C 3.7752 -1.25017 0.322387 0
M  V30 18 C 2.41524 -1.25269 0.597894 0
M  V30 19 S 6.03167 -0.17783 -0.73264 0
M  V30 20 O 6.2551 0.508629 -2.05698 0
M  V30 21 O 6.50132 -1.6169 -0.836343 0
M  V30 22 N 6.91298 0.593267 0.507667 0
M  V30 23 H -6.64806 -2.11161 0.280864 0
M  V30 24 H -7.97855 -0.0738934 0.4334 0
M  V30 25 H -3.70781 2.90856 0.569456 0
M  V30 26 H -4.44771 3.08665 -1.03408 0
M  V30 27 H -2.31818 -1.98904 -0.376615 0
M  V30 28 H -0.0484887 -1.95134 -0.85229 0
M  V30 29 H -0.242432 -0.359176 -1.5754 0
M  V30 30 H 0.0393951 -0.838564 1.42694 0
M  V30 31 H -0.205833 0.753033 0.698836 0
M  V30 32 H 1.52894 1.65246 -0.849512 0
M  V30 33 H 3.88107 1.68902 -1.34402 0
M  V30 34 H 4.41425 -2.04059 0.635992 0
M  V30 35 H 2.02291 -2.10509 1.15406 0
M  V30 36 H 7.33652 1.50002 0.239556 0
M  V30 37 H 7.56317 -0.0340236 1.02725 0
M  V30 END ATOM
M  V30 BEGIN BOND
M  V30 1 2 1 2
M  V30 2 1 2 3
M  V30 3 2 3 4
M  V30 4 1 4 5
M  V30 5 2 5 6
M  V30 6 1 6 7
M  V30 7 2 7 8
M  V30 8 1 8 9
M  V30 9 1 2 10
M  V30 10 1 10 11
M  V30 11 1 11 12
M  V30 12 1 12 13
M  V30 13 2 13 14
M  V30 14 1 14 15
M  V30 15 2 15 16
M  V30 16 1 16 17
M  V30 17 2 17 18
M  V30 18 1 16 19
M  V30 19 2 19 20
M  V30 20 2 19 21
M  V30 21 1 19 22
M  V30 22 1 8 3
M  V30 23 1 18 13
M  V30 24 1 5 23
M  V30 25 1 6 24
M  V30 26 1 9 25
M  V30 27 1 9 26
M  V30 28 1 10 27
M  V30 29 1 11 28
M  V30 30 1 11 29
M  V30 31 1 12 30
M  V30 32 1 12 31
M  V30 33 1 14 32
M  V30 34 1 15 33
M  V30 35 1 17 34
M  V30 36 1 18 35
M  V30 37 1 22 36
M  V30 38 1 22 37
M  V30 END BOND
M  V30 END CTAB
M  END
