
     RDKit          3D

  0  0  0  0  0  0  0  0  0  0999 V3000
M  V30 BEGIN CTAB
M  V30 COUNTS 30 29 0 0 0
M  V30 BEGIN ATOM
M  V30 1 N 4.47969 1.12337 0.2037 0
M  V30 2 C 4.51331 -0.0334165 -0.619022 0
M  V30 3 N 5.52579 -0.136459 -1.42439 0
M  V30 4 N 3.51148 -1.03755 -0.585488 0
M  V30 5 C 2.14554 -0.824916 -0.245508 0
M  V30 6 C 1.87474 -0.485164 1.19365 0
M  V30 7 S 0.0935637 -0.264118 1.49753 0
M  V30 8 S -0.671925 1.4285 0.473249 0
M  V30 9 C -1.24527 0.891899 -1.15906 0
M  V30 10 C -2.43253 -0.0387306 -0.918984 0
M  V30 11 N -3.48911 0.678044 -0.208621 0
M  V30 12 C -4.6892 0.00623688 0.122525 0
M  V30 13 N -4.79393 -1.40553 0.150628 0
M  V30 14 N -5.73306 0.697782 0.409915 0
M  V30 15 H 4.23001 2.05358 -0.138099 0
M  V30 16 H 4.72813 1.00466 1.22362 0
M  V30 17 H 6.25097 0.603253 -1.44028 0
M  V30 18 H 3.83053 -2.02201 -0.838907 0
M  V30 19 H 1.55028 -1.73864 -0.473902 0
M  V30 20 H 1.6934 -0.0463631 -0.932793 0
M  V30 21 H 2.18416 -1.31012 1.87608 0
M  V30 22 H 2.37267 0.463633 1.43048 0
M  V30 23 H -0.487231 0.376368 -1.75906 0
M  V30 24 H -1.65209 1.77201 -1.73321 0
M  V30 25 H -2.82801 -0.401387 -1.88235 0
M  V30 26 H -2.12454 -0.925071 -0.332455 0
M  V30 27 H -3.38351 1.66675 0.0603567 0
M  V30 28 H -4.90391 -1.8796 1.06475 0
M  V30 29 H -4.75954 -1.93926 -0.739002 0
M  V30 30 H -5.79039 1.72225 0.425374 0
M  V30 END ATOM
M  V30 BEGIN BOND
M  V30 1 1 1 2
M  V30 2 2 2 3 CFG=2
M  V30 3 1 2 4
M  V30 4 1 4 5
M  V30 5 1 5 6
M  V30 6 1 6 7
M  V30 7 1 7 8
M  V30 8 1 8 9
M  V30 9 1 9 10
M  V30 10 1 10 11
M  V30 11 1 11 12
M  V30 12 1 12 13
M  V30 13 2 12 14 CFG=2
M  V30 14 1 1 15
M  V30 15 1 1 16
M  V30 16 1 3 17
M  V30 17 1 4 18
M  V30 18 1 5 19
M  V30 19 1 5 20
M  V30 20 1 6 21
M  V30 21 1 6 22
M  V30 22 1 9 23
M  V30 23 1 9 24
M  V30 24 1 10 25
M  V30 25 1 10 26
M  V30 26 1 11 27
M  V30 27 1 13 28
M  V30 28 1 13 29
M  V30 29 1 14 30
M  V30 END BOND
M  V30 END CTAB
M  END
