
     RDKit          3D

  0  0  0  0  0  0  0  0  0  0999 V3000
M  V30 BEGIN CTAB
M  V30 COUNTS 16 16 0 0 0
M  V30 BEGIN ATOM
M  V30 1 N 2.75875 -0.711544 -0.266799 0
M  V30 2 C 2.05542 0.509169 -0.0515816 0
M  V30 3 C 0.592732 0.264843 0.015427 0
M  V30 4 C -0.338418 1.25705 0.215023 0
M  V30 5 N -1.633 0.915438 0.257175 0
M  V30 6 C -2.07909 -0.357354 0.11375 0
M  V30 7 N -1.14859 -1.30963 -0.0803389 0
M  V30 8 N 0.130804 -0.991693 -0.124686 0
M  V30 9 N -3.46821 -0.655272 0.168366 0
M  V30 10 H 2.8195 -1.02822 -1.24287 0
M  V30 11 H 3.60015 -0.846963 0.300361 0
M  V30 12 H 2.40457 0.919873 0.941659 0
M  V30 13 H 2.28534 1.28869 -0.828163 0
M  V30 14 H -0.0128335 2.26343 0.330292 0
M  V30 15 H -3.86396 -1.27739 0.894948 0
M  V30 16 H -4.10316 -0.240434 -0.535921 0
M  V30 END ATOM
M  V30 BEGIN BOND
M  V30 1 1 1 2
M  V30 2 1 2 3
M  V30 3 2 3 4
M  V30 4 1 4 5
M  V30 5 2 5 6
M  V30 6 1 6 7
M  V30 7 2 7 8
M  V30 8 1 6 9
M  V30 9 1 8 3
M  V30 10 1 1 10
M  V30 11 1 1 11
M  V30 12 1 2 12
M  V30 13 1 2 13
M  V30 14 1 4 14
M  V30 15 1 9 15
M  V30 16 1 9 16
M  V30 END BOND
M  V30 END CTAB
M  END
