
     RDKit          3D

  0  0  0  0  0  0  0  0  0  0999 V3000
M  V30 BEGIN CTAB
M  V30 COUNTS 30 31 0 0 0
M  V30 BEGIN ATOM
M  V30 1 N -1.29637 -3.74453 1.31126 0
M  V30 2 C -1.70451 -2.74206 0.879897 0
M  V30 3 C -2.19699 -1.49629 0.361448 0
M  V30 4 C -1.25404 -0.52626 -0.0183004 0
M  V30 5 N 0.118712 -0.77993 0.130085 0
M  V30 6 C 1.17204 0.0769743 -0.219711 0
M  V30 7 C 1.12649 1.16583 -1.04754 0
M  V30 8 C 2.25719 1.96284 -1.29876 0
M  V30 9 C 3.47054 1.68379 -0.721308 0
M  V30 10 C 3.53446 0.591585 0.113609 0
M  V30 11 C 2.43366 -0.18348 0.357951 0
M  V30 12 C 4.8591 0.302287 0.731977 0
M  V30 13 N -1.78056 0.602468 -0.489913 0
M  V30 14 C -3.08156 0.83722 -0.609803 0
M  V30 15 N -3.97928 -0.117636 -0.235425 0
M  V30 16 C -3.54992 -1.2816 0.24882 0
M  V30 17 N -4.43859 -2.32532 0.659747 0
M  V30 18 N -3.61423 2.05607 -1.11842 0
M  V30 19 H 0.358899 -1.73729 0.554699 0
M  V30 20 H 0.205932 1.41572 -1.53327 0
M  V30 21 H 2.15159 2.81742 -1.96902 0
M  V30 22 H 4.32959 2.31278 -0.929256 0
M  V30 23 H 2.53654 -1.04192 1.03048 0
M  V30 24 H 4.68649 -0.362867 1.59931 0
M  V30 25 H 5.52175 -0.241679 0.0249057 0
M  V30 26 H 5.38546 1.20528 1.06599 0
M  V30 27 H -5.04406 -2.24346 1.51222 0
M  V30 28 H -4.52139 -3.21802 0.123733 0
M  V30 29 H -4.46697 2.43296 -0.64777 0
M  V30 30 H -3.21999 2.57911 -1.90511 0
M  V30 END ATOM
M  V30 BEGIN BOND
M  V30 1 3 1 2
M  V30 2 1 2 3
M  V30 3 2 3 4
M  V30 4 1 4 5
M  V30 5 1 5 6
M  V30 6 2 6 7
M  V30 7 1 7 8
M  V30 8 2 8 9
M  V30 9 1 9 10
M  V30 10 2 10 11
M  V30 11 1 10 12
M  V30 12 1 4 13
M  V30 13 2 13 14
M  V30 14 1 14 15
M  V30 15 2 15 16
M  V30 16 1 16 17
M  V30 17 1 14 18
M  V30 18 1 16 3
M  V30 19 1 11 6
M  V30 20 1 5 19
M  V30 21 1 7 20
M  V30 22 1 8 21
M  V30 23 1 9 22
M  V30 24 1 11 23
M  V30 25 1 12 24
M  V30 26 1 12 25
M  V30 27 1 12 26
M  V30 28 1 17 27
M  V30 29 1 17 28
M  V30 30 1 18 29
M  V30 31 1 18 30
M  V30 END BOND
M  V30 END CTAB
M  END
