
     RDKit          3D

  0  0  0  0  0  0  0  0  0  0999 V3000
M  V30 BEGIN CTAB
M  V30 COUNTS 43 45 0 0 0
M  V30 BEGIN ATOM
M  V30 1 C -4.98515 -1.75465 -0.158744 0
M  V30 2 C -4.40048 -0.397098 0.0396418 0
M  V30 3 C -4.83854 0.129387 1.40628 0
M  V30 4 C -5.04578 0.530679 -0.995653 0
M  V30 5 C -2.94761 -0.291152 -0.139448 0
M  V30 6 C -2.36004 0.968017 0.0805948 0
M  V30 7 C -1.00824 1.16753 -0.0774305 0
M  V30 8 C -0.158769 0.120934 -0.465975 0
M  V30 9 O 1.17527 0.296977 -0.628893 0
M  V30 10 C 2.1673 -0.0547544 0.258995 0
M  V30 11 C 1.96376 -0.681171 1.4613 0
M  V30 12 C 3.02243 -1.00359 2.29507 0
M  V30 13 C 4.31768 -0.690788 1.91832 0
M  V30 14 C 4.56207 -0.0583779 0.711769 0
M  V30 15 N 5.83433 0.243315 0.342221 0
M  V30 16 C 6.09294 0.852334 -0.820469 0
M  V30 17 N 7.42494 1.18358 -1.23512 0
M  V30 18 N 5.02974 1.15609 -1.61561 0
M  V30 19 C 3.76976 0.875511 -1.28882 0
M  V30 20 N 2.66317 1.22071 -2.11004 0
M  V30 21 C 3.48903 0.248864 -0.0953422 0
M  V30 22 C -0.743314 -1.10071 -0.675348 0
M  V30 23 C -2.11436 -1.29548 -0.512342 0
M  V30 24 H -4.47377 -2.40536 -0.87317 0
M  V30 25 H -6.05446 -1.68494 -0.53197 0
M  V30 26 H -5.00126 -2.32616 0.814679 0
M  V30 27 H -5.67958 0.863036 1.30554 0
M  V30 28 H -5.20138 -0.666533 2.06738 0
M  V30 29 H -3.94087 0.569432 1.87037 0
M  V30 30 H -5.9482 0.0628014 -1.44418 0
M  V30 31 H -5.27259 1.51507 -0.558731 0
M  V30 32 H -4.33981 0.714643 -1.84839 0
M  V30 33 H -2.99468 1.8113 0.386979 0
M  V30 34 H -0.547642 2.13221 0.0866762 0
M  V30 35 H 0.929297 -0.927578 1.75432 0
M  V30 36 H 2.78488 -1.50619 3.24322 0
M  V30 37 H 5.15736 -0.936185 2.55596 0
M  V30 38 H 7.63519 1.46045 -2.22916 0
M  V30 39 H 8.18497 1.15351 -0.558604 0
M  V30 40 H 2.17822 2.12731 -1.8841 0
M  V30 41 H 2.35068 0.635434 -2.87249 0
M  V30 42 H -0.150289 -1.95945 -0.979734 0
M  V30 43 H -2.52618 -2.29895 -0.687732 0
M  V30 END ATOM
M  V30 BEGIN BOND
M  V30 1 1 1 2
M  V30 2 1 2 3
M  V30 3 1 2 4
M  V30 4 1 2 5
M  V30 5 2 5 6
M  V30 6 1 6 7
M  V30 7 2 7 8
M  V30 8 1 8 9
M  V30 9 1 9 10
M  V30 10 2 10 11
M  V30 11 1 11 12
M  V30 12 2 12 13
M  V30 13 1 13 14
M  V30 14 2 14 15
M  V30 15 1 15 16
M  V30 16 1 16 17
M  V30 17 2 16 18
M  V30 18 1 18 19
M  V30 19 1 19 20
M  V30 20 2 19 21
M  V30 21 1 8 22
M  V30 22 2 22 23
M  V30 23 1 23 5
M  V30 24 1 21 10
M  V30 25 1 21 14
M  V30 26 1 1 24
M  V30 27 1 1 25
M  V30 28 1 1 26
M  V30 29 1 3 27
M  V30 30 1 3 28
M  V30 31 1 3 29
M  V30 32 1 4 30
M  V30 33 1 4 31
M  V30 34 1 4 32
M  V30 35 1 6 33
M  V30 36 1 7 34
M  V30 37 1 11 35
M  V30 38 1 12 36
M  V30 39 1 13 37
M  V30 40 1 17 38
M  V30 41 1 17 39
M  V30 42 1 20 40
M  V30 43 1 20 41
M  V30 44 1 22 42
M  V30 45 1 23 43
M  V30 END BOND
M  V30 END CTAB
M  END
