
     RDKit          3D

  0  0  0  0  0  0  0  0  0  0999 V3000
M  V30 BEGIN CTAB
M  V30 COUNTS 29 29 0 0 0
M  V30 BEGIN ATOM
M  V30 1 N 2.48597 -0.205292 0.719573 0
M  V30 2 C 1.65812 0.758691 0.0304741 0
M  V30 3 C 0.461305 0.171897 -0.653925 0
M  V30 4 N 0.999664 -0.796481 -1.62619 0
M  V30 5 C -0.154885 1.24588 -1.57896 0
M  V30 6 S -0.604229 2.61123 -0.478643 0
M  V30 7 C -1.21995 1.83845 1.05497 0
M  V30 8 C -1.5433 0.40431 0.866289 0
M  V30 9 C -0.564001 -0.457751 0.191667 0
M  V30 10 C -1.34872 -1.40914 -0.739913 0
M  V30 11 C 0.0625341 -1.38555 1.20078 0
M  V30 12 H 2.70313 0.078502 1.70248 0
M  V30 13 H 3.42206 -0.302867 0.246628 0
M  V30 14 H 1.42565 1.55754 0.756823 0
M  V30 15 H 2.24392 1.27997 -0.781116 0
M  V30 16 H 0.410524 -0.892685 -2.45351 0
M  V30 17 H 1.34518 -1.6469 -1.1863 0
M  V30 18 H 0.620779 1.51989 -2.30694 0
M  V30 19 H -0.99882 0.801646 -2.10106 0
M  V30 20 H -2.19376 2.37612 1.27143 0
M  V30 21 H -0.58934 2.07397 1.93261 0
M  V30 22 H -2.54083 0.363534 0.335899 0
M  V30 23 H -1.78954 -0.0063665 1.88983 0
M  V30 24 H -1.98464 -0.85508 -1.43526 0
M  V30 25 H -0.687418 -2.11431 -1.24382 0
M  V30 26 H -2.02409 -1.99547 -0.0774445 0
M  V30 27 H -0.797353 -2.02905 1.57203 0
M  V30 28 H 0.43509 -0.874282 2.11131 0
M  V30 29 H 0.766944 -2.11039 0.780263 0
M  V30 END ATOM
M  V30 BEGIN BOND
M  V30 1 1 1 2
M  V30 2 1 2 3
M  V30 3 1 3 4
M  V30 4 1 3 5
M  V30 5 1 5 6
M  V30 6 1 6 7
M  V30 7 1 7 8
M  V30 8 1 8 9
M  V30 9 1 9 10
M  V30 10 1 9 11
M  V30 11 1 9 3
M  V30 12 1 1 12
M  V30 13 1 1 13
M  V30 14 1 2 14
M  V30 15 1 2 15
M  V30 16 1 4 16
M  V30 17 1 4 17
M  V30 18 1 5 18
M  V30 19 1 5 19
M  V30 20 1 7 20
M  V30 21 1 7 21
M  V30 22 1 8 22
M  V30 23 1 8 23
M  V30 24 1 10 24
M  V30 25 1 10 25
M  V30 26 1 10 26
M  V30 27 1 11 27
M  V30 28 1 11 28
M  V30 29 1 11 29
M  V30 END BOND
M  V30 END CTAB
M  END
