
     RDKit          3D

  0  0  0  0  0  0  0  0  0  0999 V3000
M  V30 BEGIN CTAB
M  V30 COUNTS 33 35 0 0 0
M  V30 BEGIN ATOM
M  V30 1 O 6.0335 1.90665 -0.678785 0 CHG=-1
M  V30 2 N 4.68246 1.79565 -0.997662 0 CHG=1
M  V30 3 O 4.17052 2.86365 -1.42176 0
M  V30 4 C 3.96898 0.584479 -0.868979 0
M  V30 5 C 4.63932 -0.608235 -1.08613 0
M  V30 6 C 3.95241 -1.79318 -0.932601 0
M  V30 7 C 2.6048 -1.77975 -0.561138 0
M  V30 8 C 1.92112 -0.608811 -0.336309 0
M  V30 9 C 2.64234 0.580542 -0.507532 0
M  V30 10 N 1.92508 1.80124 -0.362324 0
M  V30 11 C 0.53326 -0.515934 0.0683398 0
M  V30 12 O 0.318091 -0.109628 1.36023 0
M  V30 13 N -0.932039 -0.0662853 1.5983 0
M  V30 14 C -1.62203 -0.433459 0.472067 0
M  V30 15 N -0.669822 -0.696632 -0.425362 0
M  V30 16 C -3.08497 -0.436471 0.490231 0
M  V30 17 N -3.55082 -1.13643 1.69624 0
M  V30 18 C -3.82629 -0.744103 -0.747026 0
M  V30 19 C -4.45479 0.631752 -0.72591 0
M  V30 20 C -3.69699 0.970961 0.530977 0
M  V30 21 H 5.69376 -0.61425 -1.3676 0
M  V30 22 H 4.48561 -2.72136 -1.10722 0
M  V30 23 H 2.10224 -2.72528 -0.446775 0
M  V30 24 H 1.62363 2.08722 0.567964 0
M  V30 25 H 1.71874 2.38412 -1.20288 0
M  V30 26 H -2.86994 -0.951748 2.43774 0
M  V30 27 H -3.65739 -2.14359 1.55049 0
M  V30 28 H -4.63758 -1.50468 -0.553545 0
M  V30 29 H -3.1783 -0.95038 -1.62555 0
M  V30 30 H -4.1144 1.3163 -1.53142 0
M  V30 31 H -5.54331 0.675001 -0.500024 0
M  V30 32 H -4.28557 1.20401 1.41008 0
M  V30 33 H -2.8916 1.73864 0.400066 0
M  V30 END ATOM
M  V30 BEGIN BOND
M  V30 1 1 1 2
M  V30 2 2 2 3
M  V30 3 1 2 4
M  V30 4 2 4 5
M  V30 5 1 5 6
M  V30 6 2 6 7
M  V30 7 1 7 8
M  V30 8 2 8 9
M  V30 9 1 9 10
M  V30 10 1 8 11
M  V30 11 1 11 12
M  V30 12 1 12 13
M  V30 13 2 13 14
M  V30 14 1 14 15
M  V30 15 1 14 16
M  V30 16 1 16 17
M  V30 17 1 16 18
M  V30 18 1 18 19
M  V30 19 1 19 20
M  V30 20 1 9 4
M  V30 21 2 15 11
M  V30 22 1 20 16
M  V30 23 1 5 21
M  V30 24 1 6 22
M  V30 25 1 7 23
M  V30 26 1 10 24
M  V30 27 1 10 25
M  V30 28 1 17 26
M  V30 29 1 17 27
M  V30 30 1 18 28
M  V30 31 1 18 29
M  V30 32 1 19 30
M  V30 33 1 19 31
M  V30 34 1 20 32
M  V30 35 1 20 33
M  V30 END BOND
M  V30 END CTAB
M  END
