
     RDKit          3D

  0  0  0  0  0  0  0  0  0  0999 V3000
M  V30 BEGIN CTAB
M  V30 COUNTS 29 31 0 0 0
M  V30 BEGIN ATOM
M  V30 1 N -4.66315 0.961267 -1.53686 0
M  V30 2 C -3.65203 0.44365 -0.688519 0
M  V30 3 C -3.92476 -0.249314 0.471675 0
M  V30 4 C -2.90162 -0.731431 1.26058 0
M  V30 5 N -3.24715 -1.43861 2.44557 0
M  V30 6 C -1.57151 -0.551642 0.9406 0
M  V30 7 C -1.3019 0.141587 -0.219982 0
M  V30 8 C -2.32289 0.62934 -1.01833 0
M  V30 9 C 0.07145 0.381547 -0.640995 0
M  V30 10 N 0.499815 1.03322 -1.73463 0
M  V30 11 N 1.83664 1.0363 -1.75992 0
M  V30 12 C 2.25119 0.378433 -0.66865 0
M  V30 13 N 1.1567 -0.0162595 0.00630059 0
M  V30 14 C 3.63792 0.113263 -0.247156 0
M  V30 15 C 4.04437 -0.56681 0.881196 0
M  V30 16 C 5.43306 -0.594409 0.90636 0
M  V30 17 C 5.80655 0.0859895 -0.234267 0
M  V30 18 O 4.72896 0.47826 -0.872434 0
M  V30 19 H -5.40536 1.59875 -1.19005 0
M  V30 20 H -4.65514 0.689099 -2.53927 0
M  V30 21 H -4.97481 -0.385472 0.714654 0
M  V30 22 H -3.03353 -2.42875 2.6283 0
M  V30 23 H -3.75729 -0.903774 3.1826 0
M  V30 24 H -0.780434 -0.937451 1.57232 0
M  V30 25 H -2.10616 1.18183 -1.94332 0
M  V30 26 H 2.47985 1.45408 -2.46659 0
M  V30 27 H 3.40718 -1.00808 1.62688 0
M  V30 28 H 6.09233 -1.03917 1.63839 0
M  V30 29 H 6.85172 0.244537 -0.514469 0
M  V30 END ATOM
M  V30 BEGIN BOND
M  V30 1 1 1 2
M  V30 2 2 2 3
M  V30 3 1 3 4
M  V30 4 1 4 5
M  V30 5 2 4 6
M  V30 6 1 6 7
M  V30 7 2 7 8
M  V30 8 1 7 9
M  V30 9 2 9 10
M  V30 10 1 10 11
M  V30 11 1 11 12
M  V30 12 2 12 13
M  V30 13 1 12 14
M  V30 14 2 14 15
M  V30 15 1 15 16
M  V30 16 2 16 17
M  V30 17 1 17 18
M  V30 18 1 8 2
M  V30 19 1 13 9
M  V30 20 1 18 14
M  V30 21 1 1 19
M  V30 22 1 1 20
M  V30 23 1 3 21
M  V30 24 1 5 22
M  V30 25 1 5 23
M  V30 26 1 6 24
M  V30 27 1 8 25
M  V30 28 1 11 26
M  V30 29 1 15 27
M  V30 30 1 16 28
M  V30 31 1 17 29
M  V30 END BOND
M  V30 END CTAB
M  END
