
     RDKit          3D

  0  0  0  0  0  0  0  0  0  0999 V3000
M  V30 BEGIN CTAB
M  V30 COUNTS 25 26 0 0 0
M  V30 BEGIN ATOM
M  V30 1 N -1.76773 2.06836 -0.397066 0
M  V30 2 C -2.47944 0.843392 -0.492185 0
M  V30 3 N -3.60366 0.589586 -1.05883 0
M  V30 4 N -3.96203 -0.733351 -0.931818 0
M  V30 5 C -3.06041 -1.39597 -0.262833 0
M  V30 6 N -3.05 -2.76592 0.0823235 0
M  V30 7 C -2.02859 -0.422086 0.0737159 0
M  V30 8 N -0.944527 -0.647735 0.736599 0
M  V30 9 N -0.0356048 0.382713 0.990284 0
M  V30 10 C 1.27948 0.29341 0.442609 0
M  V30 11 C 2.19516 1.29774 0.678496 0
M  V30 12 F 1.81521 2.36506 1.43951 0
M  V30 13 C 3.49082 1.23425 0.153079 0
M  V30 14 C 3.86289 0.148773 -0.615451 0
M  V30 15 C 2.9596 -0.866713 -0.862466 0
M  V30 16 C 1.68116 -0.772027 -0.325496 0
M  V30 17 F 0.769502 -1.75465 -0.550339 0
M  V30 18 H -1.85236 2.67341 0.457611 0
M  V30 19 H -1.15139 2.38934 -1.16818 0
M  V30 20 H -3.71395 -3.11113 0.794644 0
M  V30 21 H -2.38731 -3.41569 -0.371042 0
M  V30 22 H -0.297229 1.20303 1.5638 0
M  V30 23 H 4.18434 2.03885 0.357173 0
M  V30 24 H 4.85462 0.0787044 -1.03003 0
M  V30 25 H 3.24145 -1.72134 -1.46337 0
M  V30 END ATOM
M  V30 BEGIN BOND
M  V30 1 1 1 2
M  V30 2 2 2 3
M  V30 3 1 3 4
M  V30 4 2 4 5
M  V30 5 1 5 6
M  V30 6 1 5 7
M  V30 7 2 7 8
M  V30 8 1 8 9
M  V30 9 1 9 10
M  V30 10 2 10 11
M  V30 11 1 11 12
M  V30 12 1 11 13
M  V30 13 2 13 14
M  V30 14 1 14 15
M  V30 15 2 15 16
M  V30 16 1 16 17
M  V30 17 1 7 2
M  V30 18 1 16 10
M  V30 19 1 1 18
M  V30 20 1 1 19
M  V30 21 1 6 20
M  V30 22 1 6 21
M  V30 23 1 9 22
M  V30 24 1 13 23
M  V30 25 1 14 24
M  V30 26 1 15 25
M  V30 END BOND
M  V30 END CTAB
M  END
