
     RDKit          3D

  0  0  0  0  0  0  0  0  0  0999 V3000
M  V30 BEGIN CTAB
M  V30 COUNTS 37 39 0 0 0
M  V30 BEGIN ATOM
M  V30 1 N 6.36806 1.45118 1.25848 0
M  V30 2 S 4.94042 0.934936 0.434294 0
M  V30 3 O 5.08961 1.06122 -1.04346 0
M  V30 4 O 3.81043 1.85064 0.848096 0
M  V30 5 C 4.48688 -0.717409 0.911332 0
M  V30 6 C 3.26404 -1.09925 0.153942 0
M  V30 7 C 3.32899 -1.83264 -0.990985 0
M  V30 8 C 2.21114 -2.1579 -1.72349 0
M  V30 9 C 0.981042 -1.70782 -1.25149 0
M  V30 10 C 0.868017 -0.966249 -0.103405 0
M  V30 11 C 2.01382 -0.666601 0.59357 0
M  V30 12 C -0.425287 -0.468967 0.35181 0
M  V30 13 O -0.672505 0.231566 1.43113 0
M  V30 14 N -1.93916 0.522005 1.54305 0
M  V30 15 C -2.57932 -0.0145484 0.481213 0
M  V30 16 N -1.62309 -0.619785 -0.236446 0
M  V30 17 C -4.02659 0.0789289 0.202494 0
M  V30 18 N -4.56224 -1.21155 -0.203606 0
M  V30 19 C -4.82606 0.808498 1.23499 0
M  V30 20 C -4.91039 2.03729 0.338418 0
M  V30 21 C -4.38893 1.19457 -0.791366 0
M  V30 22 H 7.06212 1.80373 0.559439 0
M  V30 23 H 6.16342 2.28128 1.87827 0
M  V30 24 H 5.3064 -1.39807 0.549709 0
M  V30 25 H 4.35952 -0.814428 1.98954 0
M  V30 26 H 4.30508 -2.17361 -1.33244 0
M  V30 27 H 2.31174 -2.74108 -2.62645 0
M  V30 28 H 0.105192 -1.98212 -1.86074 0
M  V30 29 H 2.01825 -0.081987 1.52257 0
M  V30 30 H -5.0955 -1.67585 0.54473 0
M  V30 31 H -5.11935 -1.11467 -1.09363 0
M  V30 32 H -5.84174 0.391489 1.35928 0
M  V30 33 H -4.29249 1.05819 2.17052 0
M  V30 34 H -5.93803 2.40943 0.176749 0
M  V30 35 H -4.20572 2.8459 0.574314 0
M  V30 36 H -3.43778 1.57919 -1.24403 0
M  V30 37 H -5.10997 0.90452 -1.56501 0
M  V30 END ATOM
M  V30 BEGIN BOND
M  V30 1 1 1 2
M  V30 2 2 2 3
M  V30 3 2 2 4
M  V30 4 1 2 5
M  V30 5 1 5 6
M  V30 6 2 6 7
M  V30 7 1 7 8
M  V30 8 2 8 9
M  V30 9 1 9 10
M  V30 10 2 10 11
M  V30 11 1 10 12
M  V30 12 1 12 13
M  V30 13 1 13 14
M  V30 14 2 14 15
M  V30 15 1 15 16
M  V30 16 1 15 17
M  V30 17 1 17 18
M  V30 18 1 17 19
M  V30 19 1 19 20
M  V30 20 1 20 21
M  V30 21 1 11 6
M  V30 22 2 16 12
M  V30 23 1 21 17
M  V30 24 1 1 22
M  V30 25 1 1 23
M  V30 26 1 5 24
M  V30 27 1 5 25
M  V30 28 1 7 26
M  V30 29 1 8 27
M  V30 30 1 9 28
M  V30 31 1 11 29
M  V30 32 1 18 30
M  V30 33 1 18 31
M  V30 34 1 19 32
M  V30 35 1 19 33
M  V30 36 1 20 34
M  V30 37 1 20 35
M  V30 38 1 21 36
M  V30 39 1 21 37
M  V30 END BOND
M  V30 END CTAB
M  END
