
     RDKit          3D

  0  0  0  0  0  0  0  0  0  0999 V3000
M  V30 BEGIN CTAB
M  V30 COUNTS 33 35 0 0 0
M  V30 BEGIN ATOM
M  V30 1 N -5.16527 -1.6862 -2.05656 0
M  V30 2 C -4.6247 -0.830803 -1.06679 0
M  V30 3 C -5.17289 0.405992 -0.809391 0
M  V30 4 C -4.62921 1.22196 0.159717 0
M  V30 5 N -5.16771 2.49896 0.449602 0
M  V30 6 N -3.54485 0.76154 0.841029 0
M  V30 7 C -3.02125 -0.450457 0.576758 0
M  V30 8 N -3.54394 -1.25454 -0.366657 0
M  V30 9 S -1.60333 -1.01465 1.49037 0
M  V30 10 C -0.099504 -0.498767 0.641803 0
M  V30 11 C 1.07851 -0.964165 1.39625 0
M  V30 12 O 0.939639 -1.61939 2.46484 0
M  V30 13 C 2.44719 -0.694288 0.951533 0
M  V30 14 C 3.54345 -1.13253 1.66262 0
M  V30 15 C 4.83248 -0.861119 1.21597 0
M  V30 16 C 5.06816 -0.151749 0.0586137 0
M  V30 17 C 3.97172 0.287755 -0.654544 0
M  V30 18 C 2.69585 0.0148244 -0.205464 0
M  V30 19 O 4.50833 0.962851 -1.75704 0
M  V30 20 C 5.84582 1.36564 -1.42432 0
M  V30 21 O 6.23602 0.255525 -0.609121 0
M  V30 22 H -6.02488 -2.22194 -1.8298 0
M  V30 23 H -4.74984 -1.80889 -2.99953 0
M  V30 24 H -6.04988 0.722836 -1.39378 0
M  V30 25 H -5.84969 2.61623 1.22308 0
M  V30 26 H -4.90007 3.34092 -0.0945018 0
M  V30 27 H -0.0852319 -1.04534 -0.343866 0
M  V30 28 H -0.126455 0.598092 0.508738 0
M  V30 29 H 3.4041 -1.68968 2.57144 0
M  V30 30 H 5.69723 -1.2068 1.77682 0
M  V30 31 H 1.8493 0.364228 -0.772659 0
M  V30 32 H 6.47428 1.48937 -2.30269 0
M  V30 33 H 5.76665 2.2246 -0.75684 0
M  V30 END ATOM
M  V30 BEGIN BOND
M  V30 1 1 1 2
M  V30 2 2 2 3
M  V30 3 1 3 4
M  V30 4 1 4 5
M  V30 5 2 4 6
M  V30 6 1 6 7
M  V30 7 2 7 8
M  V30 8 1 7 9
M  V30 9 1 9 10
M  V30 10 1 10 11
M  V30 11 2 11 12
M  V30 12 1 11 13
M  V30 13 2 13 14
M  V30 14 1 14 15
M  V30 15 2 15 16
M  V30 16 1 16 17
M  V30 17 2 17 18
M  V30 18 1 17 19
M  V30 19 1 19 20
M  V30 20 1 20 21
M  V30 21 1 8 2
M  V30 22 1 18 13
M  V30 23 1 21 16
M  V30 24 1 1 22
M  V30 25 1 1 23
M  V30 26 1 3 24
M  V30 27 1 5 25
M  V30 28 1 5 26
M  V30 29 1 10 27
M  V30 30 1 10 28
M  V30 31 1 14 29
M  V30 32 1 15 30
M  V30 33 1 18 31
M  V30 34 1 20 32
M  V30 35 1 20 33
M  V30 END BOND
M  V30 END CTAB
M  END
