
     RDKit          3D

  0  0  0  0  0  0  0  0  0  0999 V3000
M  V30 BEGIN CTAB
M  V30 COUNTS 62 64 0 0 0
M  V30 BEGIN ATOM
M  V30 1 C -2.18478 -0.68352 -0.0914672 0 CFG=1
M  V30 2 C -3.04818 -0.417484 1.11771 0
M  V30 3 C -3.31913 1.08912 1.07538 0
M  V30 4 C -2.00361 1.7764 1.17999 0 CFG=1
M  V30 5 C -2.224 3.25901 0.955255 0
M  V30 6 O -1.55073 1.6395 2.49329 0
M  V30 7 C -0.956155 1.32675 0.203796 0 CFG=2
M  V30 8 N -1.29886 1.69114 -1.14131 0
M  V30 9 C -0.805311 -0.204696 0.218697 0 CFG=2
M  V30 10 C 0.26016 -0.673806 -0.695712 0 CFG=2
M  V30 11 C 0.00907994 -1.92897 -1.44866 0
M  V30 12 C -1.35248 -2.47266 -1.56276 0
M  V30 13 C -2.31493 -2.08667 -0.478686 0 CFG=1
M  V30 14 C -2.18063 -2.97575 0.737519 0
M  V30 15 N -3.70358 -2.27717 -0.941297 0
M  V30 16 C 1.65391 -0.692674 -0.0314082 0 CFG=1
M  V30 17 C 1.64765 -1.64993 1.14909 0
M  V30 18 C 2.66277 -1.17828 -1.02994 0
M  V30 19 C 3.02488 -0.0907442 -2.05043 0
M  V30 20 C 3.32926 1.20485 -1.39487 0 CFG=2
M  V30 21 Cl 5.03072 1.655 -1.71139 0
M  V30 22 C 3.12089 1.13884 0.104085 0
M  V30 23 C 4.38227 0.623034 0.740605 0
M  V30 24 C 3.01281 2.61218 0.546891 0
M  V30 25 O 1.97775 0.53749 0.50066 0
M  V30 26 H -2.58038 -0.0564563 -0.908815 0
M  V30 27 H -2.46273 -0.578871 2.064 0
M  V30 28 H -3.97286 -1.0013 1.12913 0
M  V30 29 H -3.81027 1.3025 0.107332 0
M  V30 30 H -3.93258 1.34662 1.93732 0
M  V30 31 H -2.17836 3.55977 -0.090465 0
M  V30 32 H -3.25951 3.49542 1.31187 0
M  V30 33 H -1.49118 3.87363 1.51749 0
M  V30 34 H -2.12952 2.24891 3.0434 0
M  V30 35 H -0.0348068 1.82776 0.478328 0
M  V30 36 H -0.700376 2.41412 -1.56209 0
M  V30 37 H -2.28496 1.92224 -1.30004 0
M  V30 38 H -0.510022 -0.447783 1.27502 0
M  V30 39 H 0.400768 0.142229 -1.47271 0
M  V30 40 H 0.596274 -2.74426 -0.921989 0
M  V30 41 H 0.46221 -1.90915 -2.47722 0
M  V30 42 H -1.37114 -3.58948 -1.6148 0
M  V30 43 H -1.81441 -2.15098 -2.52505 0
M  V30 44 H -1.465 -2.61046 1.4753 0
M  V30 45 H -3.16278 -3.0842 1.27937 0
M  V30 46 H -1.88908 -4.01759 0.464319 0
M  V30 47 H -4.08788 -1.36346 -1.31955 0
M  V30 48 H -4.31743 -2.56871 -0.159486 0
M  V30 49 H 2.66611 -2.0457 1.34925 0
M  V30 50 H 0.893788 -2.45404 1.05867 0
M  V30 51 H 1.36376 -1.10434 2.09666 0
M  V30 52 H 2.29167 -2.01398 -1.64472 0
M  V30 53 H 3.5864 -1.5722 -0.544908 0
M  V30 54 H 2.19327 0.032579 -2.76712 0
M  V30 55 H 3.87904 -0.504338 -2.63184 0
M  V30 56 H 2.71826 2.05343 -1.78724 0
M  V30 57 H 4.20264 -0.204972 1.45107 0
M  V30 58 H 5.09095 0.220866 -0.0210195 0
M  V30 59 H 4.95422 1.39166 1.30037 0
M  V30 60 H 4.00965 3.01359 0.816404 0
M  V30 61 H 2.62135 3.23705 -0.268865 0
M  V30 62 H 2.35515 2.71896 1.41756 0
M  V30 END ATOM
M  V30 BEGIN BOND
M  V30 1 1 1 2
M  V30 2 1 2 3
M  V30 3 1 3 4
M  V30 4 1 4 5
M  V30 5 1 4 6 CFG=1
M  V30 6 1 4 7
M  V30 7 1 7 8
M  V30 8 1 7 9
M  V30 9 1 9 10
M  V30 10 1 10 11
M  V30 11 1 11 12
M  V30 12 1 12 13
M  V30 13 1 13 14
M  V30 14 1 13 15 CFG=3
M  V30 15 1 10 16
M  V30 16 1 16 17 CFG=1
M  V30 17 1 16 18
M  V30 18 1 18 19
M  V30 19 1 19 20
M  V30 20 1 20 21
M  V30 21 1 20 22
M  V30 22 1 22 23
M  V30 23 1 22 24
M  V30 24 1 22 25
M  V30 25 1 9 1
M  V30 26 1 25 16
M  V30 27 1 13 1
M  V30 28 1 1 26 CFG=3
M  V30 29 1 2 27
M  V30 30 1 2 28
M  V30 31 1 3 29
M  V30 32 1 3 30
M  V30 33 1 5 31
M  V30 34 1 5 32
M  V30 35 1 5 33
M  V30 36 1 6 34
M  V30 37 1 7 35 CFG=1
M  V30 38 1 8 36
M  V30 39 1 8 37
M  V30 40 1 9 38 CFG=1
M  V30 41 1 10 39 CFG=3
M  V30 42 1 11 40
M  V30 43 1 11 41
M  V30 44 1 12 42
M  V30 45 1 12 43
M  V30 46 1 14 44
M  V30 47 1 14 45
M  V30 48 1 14 46
M  V30 49 1 15 47
M  V30 50 1 15 48
M  V30 51 1 17 49
M  V30 52 1 17 50
M  V30 53 1 17 51
M  V30 54 1 18 52
M  V30 55 1 18 53
M  V30 56 1 19 54
M  V30 57 1 19 55
M  V30 58 1 20 56 CFG=3
M  V30 59 1 23 57
M  V30 60 1 23 58
M  V30 61 1 23 59
M  V30 62 1 24 60
M  V30 63 1 24 61
M  V30 64 1 24 62
M  V30 END BOND
M  V30 END CTAB
M  END
