
     RDKit          3D

  0  0  0  0  0  0  0  0  0  0999 V3000
M  V30 BEGIN CTAB
M  V30 COUNTS 25 25 0 0 0
M  V30 BEGIN ATOM
M  V30 1 N 1.05372 1.48558 -0.456127 0
M  V30 2 C 0.279883 0.226583 -0.285561 0
M  V30 3 C -1.00674 0.276694 -0.25118 0
M  V30 4 C -1.86382 -0.874846 -0.0777123 0
M  V30 5 O -3.16621 -0.705842 -0.105592 0
M  V30 6 C -1.50347 -2.28006 0.143774 0
M  V30 7 C -1.70237 1.56499 -0.397316 0
M  V30 8 O -2.98805 1.51193 -0.345589 0
M  V30 9 C -1.13964 2.88847 -0.592338 0
M  V30 10 C 1.19251 -0.90803 -0.29371 0
M  V30 11 N 1.29343 -1.89243 -1.18107 0
M  V30 12 O 2.24093 -2.71884 -0.839777 0
M  V30 13 N 2.78796 -2.3147 0.265389 0
M  V30 14 C 2.16786 -1.17797 0.656059 0
M  V30 15 N 2.44466 -0.40411 1.80192 0
M  V30 16 H 1.30987 1.82088 -1.37962 0
M  V30 17 H 1.29193 1.93295 0.44771 0
M  V30 18 H -2.3845 -2.77608 0.696985 0
M  V30 19 H -1.44021 -2.85134 -0.788298 0
M  V30 20 H -0.682893 -2.44342 0.874414 0
M  V30 21 H -2.02641 3.62555 -0.668759 0
M  V30 22 H -0.562303 3.29952 0.237383 0
M  V30 23 H -0.675364 2.97092 -1.60008 0
M  V30 24 H 1.97043 -0.645183 2.68838 0
M  V30 25 H 3.10877 0.388792 1.75658 0
M  V30 END ATOM
M  V30 BEGIN BOND
M  V30 1 1 1 2
M  V30 2 2 2 3 CFG=2
M  V30 3 1 3 4
M  V30 4 2 4 5
M  V30 5 1 4 6
M  V30 6 1 3 7
M  V30 7 2 7 8
M  V30 8 1 7 9
M  V30 9 1 2 10
M  V30 10 2 10 11
M  V30 11 1 11 12
M  V30 12 1 12 13
M  V30 13 2 13 14
M  V30 14 1 14 15
M  V30 15 1 14 10
M  V30 16 1 1 16
M  V30 17 1 1 17
M  V30 18 1 6 18
M  V30 19 1 6 19
M  V30 20 1 6 20
M  V30 21 1 9 21
M  V30 22 1 9 22
M  V30 23 1 9 23
M  V30 24 1 15 24
M  V30 25 1 15 25
M  V30 END BOND
M  V30 END CTAB
M  END
