
     RDKit          3D

  0  0  0  0  0  0  0  0  0  0999 V3000
M  V30 BEGIN CTAB
M  V30 COUNTS 38 39 0 0 0
M  V30 BEGIN ATOM
M  V30 1 N -1.43829 2.5851 -1.69722 0
M  V30 2 C -0.180908 2.01181 -1.19289 0
M  V30 3 C -0.318554 1.53162 0.211126 0
M  V30 4 C -0.715207 2.70021 1.13526 0
M  V30 5 N -0.864077 2.31984 2.49429 0
M  V30 6 C 0.492408 0.485773 0.836222 0
M  V30 7 C -0.917621 0.19724 0.509327 0
M  V30 8 S -1.46809 -0.86624 -0.754726 0
M  V30 9 O -0.559568 -0.976653 -1.94158 0
M  V30 10 O -2.78877 -0.33034 -1.26146 0
M  V30 11 C -1.75858 -2.52608 -0.20069 0
M  V30 12 C -2.80017 -2.60323 0.880278 0
M  V30 13 C 1.60769 -0.226848 0.204509 0
M  V30 14 C 1.83184 -1.53902 0.526394 0
M  V30 15 C 2.8783 -2.28472 -0.0102529 0
M  V30 16 C 3.70897 -1.64927 -0.901469 0
M  V30 17 C 3.48851 -0.34105 -1.22439 0
M  V30 18 C 2.44658 0.376569 -0.68029 0
M  V30 19 Cl 5.02978 -2.57137 -1.5865 0
M  V30 20 H -1.52847 3.59301 -1.41725 0
M  V30 21 H -1.3607 2.5919 -2.74059 0
M  V30 22 H 0.518177 2.9 -1.16635 0
M  V30 23 H 0.210497 1.32351 -1.92824 0
M  V30 24 H -1.6344 3.20549 0.729412 0
M  V30 25 H 0.0852138 3.46287 1.07019 0
M  V30 26 H -1.6404 1.71062 2.7433 0
M  V30 27 H 0.0305994 2.20424 2.97678 0
M  V30 28 H 0.70067 0.581325 1.96131 0
M  V30 29 H -1.64341 0.234093 1.3589 0
M  V30 30 H -0.832076 -3.08408 0.0207247 0
M  V30 31 H -2.2046 -3.07247 -1.08579 0
M  V30 32 H -2.59089 -3.54147 1.46695 0
M  V30 33 H -3.83132 -2.73327 0.481034 0
M  V30 34 H -2.72972 -1.77264 1.61794 0
M  V30 35 H 1.19786 -2.08567 1.22994 0
M  V30 36 H 3.01406 -3.3255 0.277959 0
M  V30 37 H 4.18838 0.113586 -1.94467 0
M  V30 38 H 2.37626 1.4011 -0.99747 0
M  V30 END ATOM
M  V30 BEGIN BOND
M  V30 1 1 1 2
M  V30 2 1 2 3
M  V30 3 1 3 4
M  V30 4 1 4 5
M  V30 5 1 3 6
M  V30 6 1 6 7
M  V30 7 1 7 8
M  V30 8 2 8 9
M  V30 9 2 8 10
M  V30 10 1 8 11
M  V30 11 1 11 12
M  V30 12 1 6 13
M  V30 13 2 13 14
M  V30 14 1 14 15
M  V30 15 2 15 16
M  V30 16 1 16 17
M  V30 17 2 17 18
M  V30 18 1 16 19
M  V30 19 1 7 3
M  V30 20 1 18 13
M  V30 21 1 1 20
M  V30 22 1 1 21
M  V30 23 1 2 22
M  V30 24 1 2 23
M  V30 25 1 4 24
M  V30 26 1 4 25
M  V30 27 1 5 26
M  V30 28 1 5 27
M  V30 29 1 6 28
M  V30 30 1 7 29
M  V30 31 1 11 30
M  V30 32 1 11 31
M  V30 33 1 12 32
M  V30 34 1 12 33
M  V30 35 1 12 34
M  V30 36 1 14 35
M  V30 37 1 15 36
M  V30 38 1 17 37
M  V30 39 1 18 38
M  V30 END BOND
M  V30 END CTAB
M  END
