
     RDKit          3D

  0  0  0  0  0  0  0  0  0  0999 V3000
M  V30 BEGIN CTAB
M  V30 COUNTS 31 32 0 0 0
M  V30 BEGIN ATOM
M  V30 1 C 3.43108 -1.95516 0.470972 0
M  V30 2 C 3.18814 -1.23335 -0.825953 0
M  V30 3 C 2.39572 0.00886712 -0.649764 0
M  V30 4 C 3.02923 1.21611 -0.69984 0
M  V30 5 C 2.34361 2.40004 -0.54289 0
M  V30 6 C 0.982364 2.34578 -0.330664 0
M  V30 7 C 0.2987 1.14417 -0.272245 0
M  V30 8 C 1.02656 -0.014776 -0.434784 0
M  V30 9 N 0.395262 -1.18017 -0.382571 0
M  V30 10 C -0.930443 -1.2613 -0.176077 0
M  V30 11 C -1.70623 -0.141765 -0.00784194 0
M  V30 12 C -1.07085 1.07938 -0.058559 0
M  V30 13 N -1.77538 2.30344 0.10015 0
M  V30 14 C -3.13783 -0.187014 0.216478 0
M  V30 15 O -3.77059 0.90743 0.360836 0
M  V30 16 N -3.89753 -1.38053 0.28813 0
M  V30 17 N -5.2486 -1.35278 0.502575 0
M  V30 18 H 2.64505 -2.70021 0.715528 0
M  V30 19 H 3.51702 -1.23727 1.331 0
M  V30 20 H 4.42178 -2.48463 0.40042 0
M  V30 21 H 4.11571 -0.991293 -1.36778 0
M  V30 22 H 2.60816 -1.91989 -1.48858 0
M  V30 23 H 4.10432 1.24685 -0.869011 0
M  V30 24 H 2.88521 3.33114 -0.590835 0
M  V30 25 H 0.427275 3.26819 -0.204391 0
M  V30 26 H -1.41053 -2.23069 -0.139171 0
M  V30 27 H -2.37555 2.71408 -0.630846 0
M  V30 28 H -1.68207 2.81615 1.0033 0
M  V30 29 H -3.41712 -2.27788 0.175938 0
M  V30 30 H -5.8137 -0.867035 -0.193637 0
M  V30 31 H -5.57877 -1.3659 1.46508 0
M  V30 END ATOM
M  V30 BEGIN BOND
M  V30 1 1 1 2
M  V30 2 1 2 3
M  V30 3 2 3 4
M  V30 4 1 4 5
M  V30 5 2 5 6
M  V30 6 1 6 7
M  V30 7 2 7 8
M  V30 8 1 8 9
M  V30 9 2 9 10
M  V30 10 1 10 11
M  V30 11 2 11 12
M  V30 12 1 12 13
M  V30 13 1 11 14
M  V30 14 2 14 15
M  V30 15 1 14 16
M  V30 16 1 16 17
M  V30 17 1 8 3
M  V30 18 1 12 7
M  V30 19 1 1 18
M  V30 20 1 1 19
M  V30 21 1 1 20
M  V30 22 1 2 21
M  V30 23 1 2 22
M  V30 24 1 4 23
M  V30 25 1 5 24
M  V30 26 1 6 25
M  V30 27 1 10 26
M  V30 28 1 13 27
M  V30 29 1 13 28
M  V30 30 1 16 29
M  V30 31 1 17 30
M  V30 32 1 17 31
M  V30 END BOND
M  V30 END CTAB
M  END
