
     RDKit          3D

  0  0  0  0  0  0  0  0  0  0999 V3000
M  V30 BEGIN CTAB
M  V30 COUNTS 49 51 0 0 0
M  V30 BEGIN ATOM
M  V30 1 C -7.26416 0.483883 0.134928 0
M  V30 2 C -5.76726 0.14265 0.131548 0
M  V30 3 C -4.99038 1.16607 -0.630114 0
M  V30 4 O -3.62984 0.987162 -0.722868 0
M  V30 5 C -2.88574 0.0203078 -1.30681 0
M  V30 6 C -3.41151 -1.0439 -1.99835 0
M  V30 7 C -2.56825 -1.98114 -2.56262 0
M  V30 8 C -1.20691 -1.88455 -2.45623 0
M  V30 9 C -0.699155 -0.79908 -1.75327 0
M  V30 10 C -1.4847 0.160698 -1.17166 0
M  V30 11 C -0.968881 1.34158 -0.43369 0
M  V30 12 N 0.462404 1.3805 -0.31019 0
M  V30 13 C 1.17174 0.476955 0.527816 0
M  V30 14 C 2.54594 0.486063 0.627935 0
M  V30 15 C 3.2179 -0.370037 1.44452 0
M  V30 16 N 2.49118 -1.24449 2.16732 0
M  V30 17 C 1.1448 -1.27413 2.08765 0
M  V30 18 N 0.490676 -0.410071 1.26539 0
M  V30 19 N 0.341864 -2.16958 2.82328 0
M  V30 20 C 4.69123 -0.402539 1.58919 0
M  V30 21 C 5.38941 0.909363 1.64604 0
M  V30 22 C 6.22373 0.474789 0.443005 0
M  V30 23 C 5.31394 -0.710426 0.22401 0
M  V30 24 N 6.18156 1.48159 -0.597786 0
M  V30 25 H -7.63027 0.680909 1.16078 0
M  V30 26 H -7.85073 -0.387649 -0.26857 0
M  V30 27 H -7.4636 1.3913 -0.470264 0
M  V30 28 H -5.44335 0.158521 1.22029 0
M  V30 29 H -5.65126 -0.875595 -0.232424 0
M  V30 30 H -5.43189 1.29211 -1.65634 0
M  V30 31 H -5.16228 2.19468 -0.167886 0
M  V30 32 H -4.49113 -1.17451 -2.14093 0
M  V30 33 H -3.00184 -2.82256 -3.10901 0
M  V30 34 H -0.555348 -2.62269 -2.90098 0
M  V30 35 H 0.383965 -0.740041 -1.69664 0
M  V30 36 H -1.29722 2.24452 -1.02944 0
M  V30 37 H -1.45596 1.40431 0.585198 0
M  V30 38 H 1.02523 2.08147 -0.838798 0
M  V30 39 H 3.10628 1.18779 0.0462151 0
M  V30 40 H -0.233974 -2.86574 2.32752 0
M  V30 41 H 0.332924 -2.12558 3.853 0
M  V30 42 H 5.05245 -1.16692 2.30523 0
M  V30 43 H 4.77488 1.80948 1.44504 0
M  V30 44 H 6.01712 1.07489 2.54855 0
M  V30 45 H 7.24625 0.15619 0.680826 0
M  V30 46 H 5.81013 -1.67648 0.145823 0
M  V30 47 H 4.6257 -0.499607 -0.630945 0
M  V30 48 H 5.40365 1.29779 -1.26832 0
M  V30 49 H 7.10068 1.60234 -1.07695 0
M  V30 END ATOM
M  V30 BEGIN BOND
M  V30 1 1 1 2
M  V30 2 1 2 3
M  V30 3 1 3 4
M  V30 4 1 4 5
M  V30 5 2 5 6
M  V30 6 1 6 7
M  V30 7 2 7 8
M  V30 8 1 8 9
M  V30 9 2 9 10
M  V30 10 1 10 11
M  V30 11 1 11 12
M  V30 12 1 12 13
M  V30 13 2 13 14
M  V30 14 1 14 15
M  V30 15 2 15 16
M  V30 16 1 16 17
M  V30 17 2 17 18
M  V30 18 1 17 19
M  V30 19 1 15 20
M  V30 20 1 20 21
M  V30 21 1 21 22
M  V30 22 1 22 23
M  V30 23 1 22 24
M  V30 24 1 10 5
M  V30 25 1 18 13
M  V30 26 1 23 20
M  V30 27 1 1 25
M  V30 28 1 1 26
M  V30 29 1 1 27
M  V30 30 1 2 28
M  V30 31 1 2 29
M  V30 32 1 3 30
M  V30 33 1 3 31
M  V30 34 1 6 32
M  V30 35 1 7 33
M  V30 36 1 8 34
M  V30 37 1 9 35
M  V30 38 1 11 36
M  V30 39 1 11 37
M  V30 40 1 12 38
M  V30 41 1 14 39
M  V30 42 1 19 40
M  V30 43 1 19 41
M  V30 44 1 20 42
M  V30 45 1 21 43
M  V30 46 1 21 44
M  V30 47 1 22 45
M  V30 48 1 23 46
M  V30 49 1 23 47
M  V30 50 1 24 48
M  V30 51 1 24 49
M  V30 END BOND
M  V30 END CTAB
M  END
