
     RDKit          3D

  0  0  0  0  0  0  0  0  0  0999 V3000
M  V30 BEGIN CTAB
M  V30 COUNTS 22 22 0 0 0
M  V30 BEGIN ATOM
M  V30 1 F -2.64817 0.65037 -1.45026 0
M  V30 2 C -2.01289 0.904988 -0.208448 0
M  V30 3 C -0.782439 0.150557 -0.0752019 0
M  V30 4 C -0.90695 -1.2574 -0.0896104 0
M  V30 5 N -2.22662 -1.81841 -0.202456 0
M  V30 6 C 0.173183 -2.09744 0.000801217 0
M  V30 7 C 1.42527 -1.56856 0.109653 0
M  V30 8 C 1.58901 -0.17839 0.127556 0
M  V30 9 C 0.483732 0.673883 0.0350398 0
M  V30 10 C 0.699216 2.11968 0.0656542 0
M  V30 11 F 2.09217 2.37856 0.122763 0
M  V30 12 F 0.326221 2.82884 -1.02662 0
M  V30 13 F 0.316398 2.70623 1.29257 0
M  V30 14 N 2.88425 0.366736 0.242379 0
M  V30 15 F -2.13053 2.16827 0.179885 0
M  V30 16 F -2.95353 0.232277 0.649291 0
M  V30 17 H -2.6774 -2.22535 0.625084 0
M  V30 18 H -2.6861 -1.79873 -1.11933 0
M  V30 19 H 0.00911484 -3.17252 -0.0161627 0
M  V30 20 H 2.30918 -2.17874 0.183735 0
M  V30 21 H 3.43372 0.533654 -0.612493 0
M  V30 22 H 3.28315 0.5815 1.16618 0
M  V30 END ATOM
M  V30 BEGIN BOND
M  V30 1 1 1 2
M  V30 2 1 2 3
M  V30 3 2 3 4
M  V30 4 1 4 5
M  V30 5 1 4 6
M  V30 6 2 6 7
M  V30 7 1 7 8
M  V30 8 2 8 9
M  V30 9 1 9 10
M  V30 10 1 10 11
M  V30 11 1 10 12
M  V30 12 1 10 13
M  V30 13 1 8 14
M  V30 14 1 2 15
M  V30 15 1 2 16
M  V30 16 1 9 3
M  V30 17 1 5 17
M  V30 18 1 5 18
M  V30 19 1 6 19
M  V30 20 1 7 20
M  V30 21 1 14 21
M  V30 22 1 14 22
M  V30 END BOND
M  V30 END CTAB
M  END
