
     RDKit          3D

  0  0  0  0  0  0  0  0  0  0999 V3000
M  V30 BEGIN CTAB
M  V30 COUNTS 27 28 0 0 0
M  V30 BEGIN ATOM
M  V30 1 N -5.58566 0.442233 0.253602 0
M  V30 2 C -4.17388 0.420593 0.163294 0
M  V30 3 C -3.487 1.38499 -0.574573 0
M  V30 4 C -2.10917 1.38283 -0.676191 0
M  V30 5 C -1.3976 0.398004 -0.0284898 0
M  V30 6 N -0.000531505 0.341538 -0.0929199 0
M  V30 7 N 0.691443 -0.684535 -0.320343 0
M  V30 8 C 2.10651 -0.536908 -0.345484 0
M  V30 9 C 2.76741 -0.0707331 -1.46354 0
M  V30 10 C 4.14211 0.077101 -1.50028 0
M  V30 11 C 4.84482 -0.270285 -0.341093 0
M  V30 12 O 6.2233 -0.15514 -0.285756 0
M  V30 13 N 4.21157 -0.726905 0.757895 0
M  V30 14 C 2.85429 -0.863274 0.767457 0
M  V30 15 C -2.0913 -0.547501 0.696439 0
M  V30 16 N -1.34692 -1.5557 1.35833 0
M  V30 17 N -3.4399 -0.51282 0.772725 0
M  V30 18 H -6.17742 0.966109 -0.427332 0
M  V30 19 H -6.08057 -0.0672733 1.00723 0
M  V30 20 H -4.08965 2.13916 -1.06626 0
M  V30 21 H -1.6158 2.15921 -1.26575 0
M  V30 22 H 2.17879 0.184512 -2.33498 0
M  V30 23 H 4.64725 0.441012 -2.37601 0
M  V30 24 H 6.65013 0.758127 -0.270804 0
M  V30 25 H 2.40214 -1.236 1.6822 0
M  V30 26 H -1.21244 -1.49086 2.39132 0
M  V30 27 H -0.911931 -2.37749 0.884861 0
M  V30 END ATOM
M  V30 BEGIN BOND
M  V30 1 1 1 2
M  V30 2 2 2 3
M  V30 3 1 3 4
M  V30 4 2 4 5
M  V30 5 1 5 6
M  V30 6 2 6 7
M  V30 7 1 7 8
M  V30 8 2 8 9
M  V30 9 1 9 10
M  V30 10 2 10 11
M  V30 11 1 11 12
M  V30 12 1 11 13
M  V30 13 2 13 14
M  V30 14 1 5 15
M  V30 15 1 15 16
M  V30 16 2 15 17
M  V30 17 1 17 2
M  V30 18 1 14 8
M  V30 19 1 1 18
M  V30 20 1 1 19
M  V30 21 1 3 20
M  V30 22 1 4 21
M  V30 23 1 9 22
M  V30 24 1 10 23
M  V30 25 1 12 24
M  V30 26 1 14 25
M  V30 27 1 16 26
M  V30 28 1 16 27
M  V30 END BOND
M  V30 END CTAB
M  END
