
     RDKit          3D

  0  0  0  0  0  0  0  0  0  0999 V3000
M  V30 BEGIN CTAB
M  V30 COUNTS 54 57 0 0 0
M  V30 BEGIN ATOM
M  V30 1 N 7.18802 1.76593 -1.27021 0
M  V30 2 C 5.8044 1.51497 -1.58085 0
M  V30 3 C 5.46519 0.0617565 -1.24661 0
M  V30 4 C 5.23316 0.529055 0.175595 0
M  V30 5 C 4.92614 1.90085 -0.393612 0
M  V30 6 C 4.08643 -0.137258 0.826365 0
M  V30 7 C 2.84172 -0.229669 0.252486 0
M  V30 8 C 1.82066 -0.856804 0.90442 0
M  V30 9 N 2.08334 -1.38501 2.14059 0
M  V30 10 C 3.28122 -1.31219 2.7255 0
M  V30 11 N 4.2723 -0.676524 2.03801 0
M  V30 12 N 3.51184 -1.86983 4.00254 0
M  V30 13 N 0.523037 -0.97459 0.353714 0
M  V30 14 C -0.49476 -1.67661 1.11715 0
M  V30 15 C -1.85898 -1.62076 0.522676 0
M  V30 16 N -2.15157 -0.411943 -0.204764 0
M  V30 17 C -1.09132 0.436669 -0.643713 0
M  V30 18 C 0.135647 -0.443322 -0.919193 0
M  V30 19 C -3.5207 -0.0990936 -0.468849 0
M  V30 20 C -4.54178 -0.935283 -0.0817106 0
M  V30 21 C -5.88752 -0.647675 -0.328462 0
M  V30 22 C -6.96829 -1.57157 0.102727 0
M  V30 23 C -6.21795 0.520606 -0.987011 0
M  V30 24 C -5.22212 1.37777 -1.38728 0
M  V30 25 C -3.88547 1.06731 -1.1287 0
M  V30 26 C -5.55967 2.64627 -2.10158 0
M  V30 27 H 7.27583 2.59746 -0.612349 0
M  V30 28 H 7.63489 0.977805 -0.744437 0
M  V30 29 H 5.43692 1.85815 -2.5515 0
M  V30 30 H 4.50311 -0.280224 -1.686 0
M  V30 31 H 6.32146 -0.634476 -1.37174 0
M  V30 32 H 6.16774 0.538627 0.739042 0
M  V30 33 H 3.87859 2.04715 -0.715791 0
M  V30 34 H 5.38059 2.75045 0.136777 0
M  V30 35 H 2.73185 0.2129 -0.717824 0
M  V30 36 H 4.19036 -1.42662 4.64648 0
M  V30 37 H 3.009 -2.72181 4.30741 0
M  V30 38 H -0.214112 -2.73423 1.29644 0
M  V30 39 H -0.499631 -1.19411 2.12627 0
M  V30 40 H -2.58175 -1.6352 1.39056 0
M  V30 41 H -2.11516 -2.51669 -0.0883127 0
M  V30 42 H -0.79784 1.19323 0.094021 0
M  V30 43 H -1.29052 0.966929 -1.59642 0
M  V30 44 H -0.199548 -1.28831 -1.59259 0
M  V30 45 H 0.899374 0.149484 -1.44263 0
M  V30 46 H -4.35623 -1.85932 0.432763 0
M  V30 47 H -7.25086 -1.38382 1.16637 0
M  V30 48 H -7.86001 -1.41929 -0.565939 0
M  V30 49 H -6.6814 -2.63203 0.0448023 0
M  V30 50 H -7.24223 0.780822 -1.19735 0
M  V30 51 H -3.15413 1.76995 -1.46232 0
M  V30 52 H -4.70572 3.34297 -1.962 0
M  V30 53 H -6.4297 3.0852 -1.57098 0
M  V30 54 H -5.82383 2.48196 -3.15562 0
M  V30 END ATOM
M  V30 BEGIN BOND
M  V30 1 1 1 2
M  V30 2 1 2 3
M  V30 3 1 3 4
M  V30 4 1 4 5
M  V30 5 1 4 6
M  V30 6 2 6 7
M  V30 7 1 7 8
M  V30 8 2 8 9
M  V30 9 1 9 10
M  V30 10 2 10 11
M  V30 11 1 10 12
M  V30 12 1 8 13
M  V30 13 1 13 14
M  V30 14 1 14 15
M  V30 15 1 15 16
M  V30 16 1 16 17
M  V30 17 1 17 18
M  V30 18 1 16 19
M  V30 19 2 19 20
M  V30 20 1 20 21
M  V30 21 1 21 22
M  V30 22 2 21 23
M  V30 23 1 23 24
M  V30 24 2 24 25
M  V30 25 1 24 26
M  V30 26 1 5 2
M  V30 27 1 11 6
M  V30 28 1 18 13
M  V30 29 1 25 19
M  V30 30 1 1 27
M  V30 31 1 1 28
M  V30 32 1 2 29
M  V30 33 1 3 30
M  V30 34 1 3 31
M  V30 35 1 4 32
M  V30 36 1 5 33
M  V30 37 1 5 34
M  V30 38 1 7 35
M  V30 39 1 12 36
M  V30 40 1 12 37
M  V30 41 1 14 38
M  V30 42 1 14 39
M  V30 43 1 15 40
M  V30 44 1 15 41
M  V30 45 1 17 42
M  V30 46 1 17 43
M  V30 47 1 18 44
M  V30 48 1 18 45
M  V30 49 1 20 46
M  V30 50 1 22 47
M  V30 51 1 22 48
M  V30 52 1 22 49
M  V30 53 1 23 50
M  V30 54 1 25 51
M  V30 55 1 26 52
M  V30 56 1 26 53
M  V30 57 1 26 54
M  V30 END BOND
M  V30 END CTAB
M  END
