
     RDKit          3D

  0  0  0  0  0  0  0  0  0  0999 V3000
M  V30 BEGIN CTAB
M  V30 COUNTS 49 51 0 0 0
M  V30 BEGIN ATOM
M  V30 1 N 0.679478 -0.148353 -4.49813 0
M  V30 2 C 0.230853 0.153144 -3.18102 0
M  V30 3 C -1.08571 0.442076 -2.9229 0
M  V30 4 C -1.46506 0.728893 -1.61624 0
M  V30 5 O -2.76428 1.01805 -1.34137 0
M  V30 6 C -3.36791 1.32893 -0.129383 0
M  V30 7 C -3.28522 0.280862 0.926016 0
M  V30 8 C -3.92685 -1.02066 0.517892 0
M  V30 9 C -5.37515 -0.765674 0.24328 0
M  V30 10 C -6.11306 -0.208239 1.41467 0
M  V30 11 C -5.39909 0.916108 2.11135 0
M  V30 12 C -3.92751 0.710288 2.22703 0
M  V30 13 N -0.547549 0.716438 -0.652596 0
M  V30 14 C 0.776108 0.431064 -0.881148 0
M  V30 15 N 1.61969 0.477031 0.225571 0
M  V30 16 C 3.0073 0.198626 0.187939 0
M  V30 17 C 3.66578 -0.504979 -0.777202 0
M  V30 18 C 5.05589 -0.720007 -0.758659 0
M  V30 19 C 5.82824 -0.217499 0.25991 0
M  V30 20 C 5.16848 0.493099 1.23766 0
M  V30 21 C 3.81968 0.708535 1.22998 0
M  V30 22 S 7.55784 -0.476052 0.297465 0
M  V30 23 N 7.93318 -1.94014 1.15795 0
M  V30 24 O 8.12139 -0.639976 -1.09066 0
M  V30 25 O 8.18267 0.714537 0.990571 0
M  V30 26 N 1.07265 0.167095 -2.14326 0
M  V30 27 H 0.279078 0.282224 -5.35703 0
M  V30 28 H 1.45047 -0.835687 -4.63024 0
M  V30 29 H -1.80958 0.444526 -3.72777 0
M  V30 30 H -4.42605 1.60865 -0.349723 0
M  V30 31 H -2.85031 2.25575 0.254765 0
M  V30 32 H -2.22378 0.0884542 1.16684 0
M  V30 33 H -3.45008 -1.49127 -0.343727 0
M  V30 34 H -3.86743 -1.69235 1.41617 0
M  V30 35 H -5.51937 -0.0894189 -0.624279 0
M  V30 36 H -5.84521 -1.75266 -0.00180197 0
M  V30 37 H -6.38505 -1.03278 2.13636 0
M  V30 38 H -7.09272 0.186702 1.05499 0
M  V30 39 H -5.62664 1.91314 1.69292 0
M  V30 40 H -5.80981 0.942125 3.16361 0
M  V30 41 H -3.4742 1.71205 2.48099 0
M  V30 42 H -3.63376 -0.0173539 3.0063 0
M  V30 43 H 1.21344 0.736358 1.17802 0
M  V30 44 H 3.1012 -0.946454 -1.60529 0
M  V30 45 H 5.50619 -1.29491 -1.5717 0
M  V30 46 H 5.81156 0.880305 2.03586 0
M  V30 47 H 3.33838 1.27141 2.01544 0
M  V30 48 H 8.73352 -1.71291 1.78917 0
M  V30 49 H 7.11828 -2.12447 1.78543 0
M  V30 END ATOM
M  V30 BEGIN BOND
M  V30 1 1 1 2
M  V30 2 2 2 3
M  V30 3 1 3 4
M  V30 4 1 4 5
M  V30 5 1 5 6
M  V30 6 1 6 7
M  V30 7 1 7 8
M  V30 8 1 8 9
M  V30 9 1 9 10
M  V30 10 1 10 11
M  V30 11 1 11 12
M  V30 12 2 4 13
M  V30 13 1 13 14
M  V30 14 1 14 15
M  V30 15 1 15 16
M  V30 16 2 16 17
M  V30 17 1 17 18
M  V30 18 2 18 19
M  V30 19 1 19 20
M  V30 20 2 20 21
M  V30 21 1 19 22
M  V30 22 1 22 23
M  V30 23 2 22 24
M  V30 24 2 22 25
M  V30 25 2 14 26
M  V30 26 1 26 2
M  V30 27 1 12 7
M  V30 28 1 21 16
M  V30 29 1 1 27
M  V30 30 1 1 28
M  V30 31 1 3 29
M  V30 32 1 6 30
M  V30 33 1 6 31
M  V30 34 1 7 32
M  V30 35 1 8 33
M  V30 36 1 8 34
M  V30 37 1 9 35
M  V30 38 1 9 36
M  V30 39 1 10 37
M  V30 40 1 10 38
M  V30 41 1 11 39
M  V30 42 1 11 40
M  V30 43 1 12 41
M  V30 44 1 12 42
M  V30 45 1 15 43
M  V30 46 1 17 44
M  V30 47 1 18 45
M  V30 48 1 20 46
M  V30 49 1 21 47
M  V30 50 1 23 48
M  V30 51 1 23 49
M  V30 END BOND
M  V30 END CTAB
M  END
