
     RDKit          3D

  0  0  0  0  0  0  0  0  0  0999 V3000
M  V30 BEGIN CTAB
M  V30 COUNTS 35 37 0 0 0
M  V30 BEGIN ATOM
M  V30 1 N 5.94739 0.61749 2.18757 0
M  V30 2 N 4.69121 0.450098 1.60888 0
M  V30 3 C 4.54734 0.255195 0.221047 0
M  V30 4 O 5.59591 0.23209 -0.520505 0
M  V30 5 C 3.23521 0.0793344 -0.390947 0
M  V30 6 C 3.14334 -0.10992 -1.7723 0
M  V30 7 C 1.92531 -0.280741 -2.39386 0
M  V30 8 C 0.737528 -0.273813 -1.68708 0
M  V30 9 C 0.815275 -0.0880364 -0.324521 0
M  V30 10 C 2.05599 0.0856386 0.305997 0
M  V30 11 N -0.315539 -0.0810703 0.368215 0
M  V30 12 C -1.57085 -0.24728 -0.181023 0
M  V30 13 N -1.6126 -0.421874 -1.4932 0
M  V30 14 C -0.483987 -0.443058 -2.28705 0
M  V30 15 O -0.56808 -0.611982 -3.52253 0
M  V30 16 N -2.80937 -0.56114 -2.18708 0
M  V30 17 C -2.70761 -0.183566 0.719139 0
M  V30 18 C -3.98284 -0.532611 0.436336 0
M  V30 19 C -5.0475 -0.39431 1.35515 0
M  V30 20 C -4.80977 0.110876 2.59463 0
M  V30 21 C -3.51349 0.474284 2.90923 0
M  V30 22 C -2.48596 0.337756 2.01266 0
M  V30 23 Br -3.23893 1.17972 4.66528 0
M  V30 24 H 6.60217 0.907122 1.42921 0
M  V30 25 H 5.94197 1.38557 2.9236 0
M  V30 26 H 3.8594 0.470869 2.21535 0
M  V30 27 H 4.08001 -0.11403 -2.31937 0
M  V30 28 H 1.87015 -0.426344 -3.46526 0
M  V30 29 H 2.06643 0.228357 1.3798 0
M  V30 30 H -3.13667 -1.49003 -2.54896 0
M  V30 31 H -3.4347 0.252177 -2.38397 0
M  V30 32 H -4.23858 -0.966685 -0.51371 0
M  V30 33 H -6.04569 -0.693117 1.06189 0
M  V30 34 H -5.62512 0.216083 3.29623 0
M  V30 35 H -1.48733 0.636956 2.30625 0
M  V30 END ATOM
M  V30 BEGIN BOND
M  V30 1 1 1 2
M  V30 2 1 2 3
M  V30 3 2 3 4
M  V30 4 1 3 5
M  V30 5 2 5 6
M  V30 6 1 6 7
M  V30 7 2 7 8
M  V30 8 1 8 9
M  V30 9 2 9 10
M  V30 10 1 9 11
M  V30 11 2 11 12
M  V30 12 1 12 13
M  V30 13 1 13 14
M  V30 14 2 14 15
M  V30 15 1 13 16
M  V30 16 1 12 17
M  V30 17 2 17 18
M  V30 18 1 18 19
M  V30 19 2 19 20
M  V30 20 1 20 21
M  V30 21 2 21 22
M  V30 22 1 21 23
M  V30 23 1 10 5
M  V30 24 1 22 17
M  V30 25 1 14 8
M  V30 26 1 1 24
M  V30 27 1 1 25
M  V30 28 1 2 26
M  V30 29 1 6 27
M  V30 30 1 7 28
M  V30 31 1 10 29
M  V30 32 1 16 30
M  V30 33 1 16 31
M  V30 34 1 18 32
M  V30 35 1 19 33
M  V30 36 1 20 34
M  V30 37 1 22 35
M  V30 END BOND
M  V30 END CTAB
M  END
