
     RDKit          3D

  0  0  0  0  0  0  0  0  0  0999 V3000
M  V30 BEGIN CTAB
M  V30 COUNTS 45 47 0 0 0
M  V30 BEGIN ATOM
M  V30 1 C 6.40438 2.28124 0.0288928 0
M  V30 2 O 5.75611 1.12415 -0.128465 0
M  V30 3 C 4.51076 0.632703 0.28276 0
M  V30 4 C 4.16754 -0.639507 -0.109897 0
M  V30 5 O 5.04686 -1.35081 -0.855721 0
M  V30 6 C 4.83181 -2.66655 -1.34894 0
M  V30 7 C 2.94327 -1.17509 0.252358 0
M  V30 8 C 2.03302 -0.479436 0.994572 0
M  V30 9 N 0.725487 -1.01164 1.1838 0
M  V30 10 C -0.179848 -0.334583 0.225611 0
M  V30 11 C -1.54189 -0.708715 0.0849628 0
M  V30 12 C -2.49674 0.330161 0.0654981 0
M  V30 13 C -2.00872 1.70486 0.354725 0
M  V30 14 C -3.78458 0.0146594 -0.260461 0
M  V30 15 C -4.161 -1.31903 -0.587901 0
M  V30 16 N -3.26445 -2.27542 -0.565567 0
M  V30 17 C -1.99158 -1.96582 -0.233486 0
M  V30 18 N -5.4999 -1.53163 -0.843431 0
M  V30 19 C -6.41782 -0.554763 -0.791163 0
M  V30 20 N -7.76646 -0.83885 -1.16815 0
M  V30 21 N -6.07847 0.699198 -0.484458 0
M  V30 22 C -4.73489 0.950782 -0.211641 0
M  V30 23 N -4.4618 2.20943 0.416506 0
M  V30 24 C 2.37146 0.820182 1.40381 0
M  V30 25 C 3.60942 1.37492 1.04443 0
M  V30 26 H 7.23017 2.08809 0.801 0
M  V30 27 H 6.97464 2.52895 -0.884088 0
M  V30 28 H 5.83876 3.15267 0.347695 0
M  V30 29 H 4.63052 -2.65337 -2.46406 0
M  V30 30 H 4.09543 -3.24081 -0.832144 0
M  V30 31 H 5.85276 -3.1756 -1.27331 0
M  V30 32 H 2.6615 -2.19919 -0.0499925 0
M  V30 33 H 0.416794 -1.71177 1.83067 0
M  V30 34 H 0.300638 -1.05894 -0.75014 0
M  V30 35 H 0.252233 0.531028 -0.259793 0
M  V30 36 H -2.27669 2.45768 -0.466953 0
M  V30 37 H -1.9496 2.03056 1.34748 0
M  V30 38 H -0.900749 1.68863 -0.00841789 0
M  V30 39 H -1.27746 -2.82742 -0.319387 0
M  V30 40 H -8.08418 -1.58906 -1.85796 0
M  V30 41 H -8.54748 -0.243777 -0.799999 0
M  V30 42 H -4.42886 3.13422 0.00985902 0
M  V30 43 H -4.27963 2.09873 1.48153 0
M  V30 44 H 1.65725 1.31603 2.01493 0
M  V30 45 H 3.82199 2.3829 1.4047 0
M  V30 END ATOM
M  V30 BEGIN BOND
M  V30 1 1 1 2
M  V30 2 1 2 3
M  V30 3 2 3 4
M  V30 4 1 4 5
M  V30 5 1 5 6
M  V30 6 1 4 7
M  V30 7 2 7 8
M  V30 8 1 8 9
M  V30 9 1 9 10
M  V30 10 1 10 11
M  V30 11 2 11 12
M  V30 12 1 12 13
M  V30 13 1 12 14
M  V30 14 2 14 15
M  V30 15 1 15 16
M  V30 16 2 16 17
M  V30 17 1 15 18
M  V30 18 2 18 19
M  V30 19 1 19 20
M  V30 20 1 19 21
M  V30 21 2 21 22
M  V30 22 1 22 23
M  V30 23 1 8 24
M  V30 24 2 24 25
M  V30 25 1 25 3
M  V30 26 1 17 11
M  V30 27 1 22 14
M  V30 28 1 1 26
M  V30 29 1 1 27
M  V30 30 1 1 28
M  V30 31 1 6 29
M  V30 32 1 6 30
M  V30 33 1 6 31
M  V30 34 1 7 32
M  V30 35 1 9 33
M  V30 36 1 10 34
M  V30 37 1 10 35
M  V30 38 1 13 36
M  V30 39 1 13 37
M  V30 40 1 13 38
M  V30 41 1 17 39
M  V30 42 1 20 40
M  V30 43 1 20 41
M  V30 44 1 23 42
M  V30 45 1 23 43
M  V30 46 1 24 44
M  V30 47 1 25 45
M  V30 END BOND
M  V30 END CTAB
M  END
