
     RDKit          3D

  0  0  0  0  0  0  0  0  0  0999 V3000
M  V30 BEGIN CTAB
M  V30 COUNTS 39 40 0 0 0
M  V30 BEGIN ATOM
M  V30 1 O 1.91068 0.197926 2.52584 0
M  V30 2 C 0.926765 0.131912 1.778 0
M  V30 3 N 1.00715 -0.250326 0.442164 0
M  V30 4 C 2.18803 -0.600943 -0.236796 0
M  V30 5 C 2.06568 -1.3119 -1.44567 0
M  V30 6 C 3.17072 -1.6747 -2.18417 0
M  V30 7 C 4.42324 -1.32705 -1.71718 0
M  V30 8 C 4.60186 -0.637613 -0.551638 0
M  V30 9 C 3.45275 -0.281466 0.179362 0
M  V30 10 S 6.19927 -0.219739 0.000207844 0
M  V30 11 O 6.18802 -0.0763746 1.49758 0
M  V30 12 O 7.20712 -1.2195 -0.456079 0
M  V30 13 N 6.61929 1.32898 -0.650087 0
M  V30 14 C -0.386877 0.501038 2.42738 0
M  V30 15 O -1.38549 0.373165 1.44918 0
M  V30 16 C -2.72525 0.628409 1.67465 0
M  V30 17 O -3.07977 0.997 2.81902 0
M  V30 18 C -3.66541 0.45839 0.574901 0
M  V30 19 C -3.27401 0.0530455 -0.682753 0
M  V30 20 C -4.18545 -0.0999489 -1.7063 0
M  V30 21 C -5.52813 0.144647 -1.52077 0
M  V30 22 C -5.93988 0.551351 -0.268753 0
M  V30 23 C -5.02659 0.703617 0.753124 0
M  V30 24 N -7.30718 0.813687 -0.0320028 0
M  V30 25 Cl -6.67843 -0.0569558 -2.84329 0
M  V30 26 H 0.0765586 -0.267934 -0.0993013 0
M  V30 27 H 1.05944 -1.55339 -1.75387 0
M  V30 28 H 3.04968 -2.22288 -3.11355 0
M  V30 29 H 5.29702 -1.61443 -2.30152 0
M  V30 30 H 3.65309 0.272156 1.08147 0
M  V30 31 H 6.33085 1.30124 -1.67204 0
M  V30 32 H 7.66133 1.45277 -0.655908 0
M  V30 33 H -0.345678 1.47981 2.90726 0
M  V30 34 H -0.555541 -0.275909 3.20555 0
M  V30 35 H -2.2044 -0.14299 -0.834814 0
M  V30 36 H -3.83462 -0.42016 -2.67824 0
M  V30 37 H -5.34329 1.0267 1.7531 0
M  V30 38 H -7.84649 0.28294 0.671354 0
M  V30 39 H -7.77605 1.5554 -0.577651 0
M  V30 END ATOM
M  V30 BEGIN BOND
M  V30 1 2 1 2
M  V30 2 1 2 3
M  V30 3 1 3 4
M  V30 4 2 4 5
M  V30 5 1 5 6
M  V30 6 2 6 7
M  V30 7 1 7 8
M  V30 8 2 8 9
M  V30 9 1 8 10
M  V30 10 2 10 11
M  V30 11 2 10 12
M  V30 12 1 10 13
M  V30 13 1 2 14
M  V30 14 1 14 15
M  V30 15 1 15 16
M  V30 16 2 16 17
M  V30 17 1 16 18
M  V30 18 2 18 19
M  V30 19 1 19 20
M  V30 20 2 20 21
M  V30 21 1 21 22
M  V30 22 2 22 23
M  V30 23 1 22 24
M  V30 24 1 21 25
M  V30 25 1 9 4
M  V30 26 1 23 18
M  V30 27 1 3 26
M  V30 28 1 5 27
M  V30 29 1 6 28
M  V30 30 1 7 29
M  V30 31 1 9 30
M  V30 32 1 13 31
M  V30 33 1 13 32
M  V30 34 1 14 33
M  V30 35 1 14 34
M  V30 36 1 19 35
M  V30 37 1 20 36
M  V30 38 1 23 37
M  V30 39 1 24 38
M  V30 40 1 24 39
M  V30 END BOND
M  V30 END CTAB
M  END
