
     RDKit          3D

  0  0  0  0  0  0  0  0  0  0999 V3000
M  V30 BEGIN CTAB
M  V30 COUNTS 30 31 0 0 0
M  V30 BEGIN ATOM
M  V30 1 N -3.22104 2.0934 1.16493 0
M  V30 2 C -2.44256 1.03058 0.619713 0
M  V30 3 C -1.0919 1.13702 0.407505 0
M  V30 4 C -0.364535 0.0729954 -0.128653 0
M  V30 5 N 1.0487 0.217432 -0.336726 0
M  V30 6 C 1.69119 0.625053 -1.44208 0
M  V30 7 N 3.02676 0.635395 -1.23662 0
M  V30 8 C 3.27413 0.229732 0.0203962 0
M  V30 9 C 4.58239 0.0787473 0.703369 0
M  V30 10 O 4.88541 1.30699 1.32506 0
M  V30 11 C 2.03736 -0.0277308 0.571486 0
M  V30 12 C -0.949581 -1.11741 -0.46729 0
M  V30 13 C -2.33243 -1.2228 -0.248642 0
M  V30 14 C -3.04013 -0.170897 0.2793 0
M  V30 15 N -4.44342 -0.29096 0.496207 0
M  V30 16 C -0.210679 -2.2848 -1.04629 0
M  V30 17 F 0.780176 -2.7447 -0.221894 0
M  V30 18 F 0.259612 -1.97948 -2.30446 0
M  V30 19 F -1.11138 -3.36317 -1.16169 0
M  V30 20 H -3.7042 2.75807 0.552746 0
M  V30 21 H -3.30258 2.1996 2.19335 0
M  V30 22 H -0.576577 2.054 0.656244 0
M  V30 23 H 1.15436 0.900077 -2.35959 0
M  V30 24 H 5.39397 -0.218327 -0.00206951 0
M  V30 25 H 4.55778 -0.695296 1.4929 0
M  V30 26 H 4.90459 2.03167 0.640882 0
M  V30 27 H 1.88469 -0.3748 1.58243 0
M  V30 28 H -2.81015 -2.17256 -0.516756 0
M  V30 29 H -4.80546 -1.23649 0.723495 0
M  V30 30 H -5.0745 0.528667 0.430102 0
M  V30 END ATOM
M  V30 BEGIN BOND
M  V30 1 1 1 2
M  V30 2 2 2 3
M  V30 3 1 3 4
M  V30 4 1 4 5
M  V30 5 1 5 6
M  V30 6 2 6 7
M  V30 7 1 7 8
M  V30 8 1 8 9
M  V30 9 1 9 10
M  V30 10 2 8 11
M  V30 11 2 4 12
M  V30 12 1 12 13
M  V30 13 2 13 14
M  V30 14 1 14 15
M  V30 15 1 12 16
M  V30 16 1 16 17
M  V30 17 1 16 18
M  V30 18 1 16 19
M  V30 19 1 14 2
M  V30 20 1 11 5
M  V30 21 1 1 20
M  V30 22 1 1 21
M  V30 23 1 3 22
M  V30 24 1 6 23
M  V30 25 1 9 24
M  V30 26 1 9 25
M  V30 27 1 10 26
M  V30 28 1 11 27
M  V30 29 1 13 28
M  V30 30 1 15 29
M  V30 31 1 15 30
M  V30 END BOND
M  V30 END CTAB
M  END
