
     RDKit          3D

  0  0  0  0  0  0  0  0  0  0999 V3000
M  V30 BEGIN CTAB
M  V30 COUNTS 30 30 0 0 0
M  V30 BEGIN ATOM
M  V30 1 N 2.52158 1.84336 0.567425 0
M  V30 2 C 2.99821 0.486633 0.668435 0
M  V30 3 C 2.25157 -0.501823 -0.145787 0
M  V30 4 N 0.845262 -0.634421 0.159629 0
M  V30 5 C 0.375688 -1.69434 -0.756541 0
M  V30 6 C -0.941483 -2.23024 -0.25968 0
M  V30 7 C -1.88641 -1.07734 -0.118402 0
M  V30 8 C -1.33824 0.231455 -0.590528 0
M  V30 9 C 0.0590724 0.527568 -0.144419 0
M  V30 10 C -2.3149 1.30619 -0.131183 0
M  V30 11 N -2.4507 1.31969 1.31406 0
M  V30 12 H 2.64672 2.21856 -0.37836 0
M  V30 13 H 2.98003 2.47065 1.26045 0
M  V30 14 H 3.00545 0.147598 1.72458 0
M  V30 15 H 4.07597 0.5167 0.370904 0
M  V30 16 H 2.37061 -0.374678 -1.24083 0
M  V30 17 H 2.70137 -1.51295 0.0749933 0
M  V30 18 H 0.253799 -1.32435 -1.77621 0
M  V30 19 H 1.12355 -2.51244 -0.656519 0
M  V30 20 H -1.30239 -2.96035 -1.02682 0
M  V30 21 H -0.850792 -2.79749 0.688953 0
M  V30 22 H -2.21898 -1.02601 0.943846 0
M  V30 23 H -2.80139 -1.30129 -0.707055 0
M  V30 24 H -1.36088 0.245095 -1.69996 0
M  V30 25 H 0.585865 1.08649 -0.946087 0
M  V30 26 H 0.0381287 1.19625 0.739451 0
M  V30 27 H -3.32633 1.13545 -0.55416 0
M  V30 28 H -2.001 2.30443 -0.506455 0
M  V30 29 H -3.21311 0.645779 1.55296 0
M  V30 30 H -2.82628 2.26585 1.57331 0
M  V30 END ATOM
M  V30 BEGIN BOND
M  V30 1 1 1 2
M  V30 2 1 2 3
M  V30 3 1 3 4
M  V30 4 1 4 5
M  V30 5 1 5 6
M  V30 6 1 6 7
M  V30 7 1 7 8
M  V30 8 1 8 9
M  V30 9 1 8 10
M  V30 10 1 10 11
M  V30 11 1 9 4
M  V30 12 1 1 12
M  V30 13 1 1 13
M  V30 14 1 2 14
M  V30 15 1 2 15
M  V30 16 1 3 16
M  V30 17 1 3 17
M  V30 18 1 5 18
M  V30 19 1 5 19
M  V30 20 1 6 20
M  V30 21 1 6 21
M  V30 22 1 7 22
M  V30 23 1 7 23
M  V30 24 1 8 24
M  V30 25 1 9 25
M  V30 26 1 9 26
M  V30 27 1 10 27
M  V30 28 1 10 28
M  V30 29 1 11 29
M  V30 30 1 11 30
M  V30 END BOND
M  V30 END CTAB
M  END
