
     RDKit          3D

  0  0  0  0  0  0  0  0  0  0999 V3000
M  V30 BEGIN CTAB
M  V30 COUNTS 27 26 0 0 0
M  V30 BEGIN ATOM
M  V30 1 N 4.18054 -1.28344 0.296324 0
M  V30 2 C 3.59113 -0.158722 -0.39004 0
M  V30 3 C 2.13958 -0.440929 -0.648528 0
M  V30 4 S 1.22741 -0.71543 0.89591 0
M  V30 5 S -0.780137 -1.11218 0.652128 0
M  V30 6 O -1.09806 -2.4194 -0.0488554 0
M  V30 7 C -1.76457 0.223741 0.0476306 0
M  V30 8 C -3.20083 -0.197242 -0.0799052 0
M  V30 9 N -3.96886 0.929448 -0.585907 0
M  V30 10 C -3.66862 -0.612351 1.26363 0
M  V30 11 O -4.70356 0.0506697 1.86214 0
M  V30 12 O -3.10121 -1.5695 1.82664 0
M  V30 13 C 3.66912 1.03779 0.510245 0
M  V30 14 O 3.1514 2.23358 0.0325725 0
M  V30 15 O 4.19171 0.947012 1.66403 0
M  V30 16 H 3.75443 -2.1769 -0.00808357 0
M  V30 17 H 4.12933 -1.10612 1.31062 0
M  V30 18 H 4.14767 0.0113797 -1.33001 0
M  V30 19 H 1.98788 -1.25722 -1.37132 0
M  V30 20 H 1.65921 0.467575 -1.11856 0
M  V30 21 H -1.62428 1.13143 0.6279 0
M  V30 22 H -1.4145 0.462026 -0.998125 0
M  V30 23 H -3.29473 -1.01011 -0.824472 0
M  V30 24 H -3.84304 1.00258 -1.61773 0
M  V30 25 H -3.70742 1.7782 -0.0656478 0
M  V30 26 H -4.46685 0.858135 2.44738 0
M  V30 27 H 2.80726 2.92597 0.684951 0
M  V30 END ATOM
M  V30 BEGIN BOND
M  V30 1 1 1 2
M  V30 2 1 2 3
M  V30 3 1 3 4
M  V30 4 1 4 5
M  V30 5 2 5 6
M  V30 6 1 5 7
M  V30 7 1 7 8
M  V30 8 1 8 9
M  V30 9 1 8 10
M  V30 10 1 10 11
M  V30 11 2 10 12
M  V30 12 1 2 13
M  V30 13 1 13 14
M  V30 14 2 13 15
M  V30 15 1 1 16
M  V30 16 1 1 17
M  V30 17 1 2 18
M  V30 18 1 3 19
M  V30 19 1 3 20
M  V30 20 1 7 21
M  V30 21 1 7 22
M  V30 22 1 8 23
M  V30 23 1 9 24
M  V30 24 1 9 25
M  V30 25 1 11 26
M  V30 26 1 14 27
M  V30 END BOND
M  V30 END CTAB
M  END
