
     RDKit          3D

  0  0  0  0  0  0  0  0  0  0999 V3000
M  V30 BEGIN CTAB
M  V30 COUNTS 42 44 0 0 0
M  V30 BEGIN ATOM
M  V30 1 O -1.90893 -0.479673 2.48652 0
M  V30 2 C -1.36294 -0.52068 1.37928 0
M  V30 3 N -2.07006 -0.395012 0.174037 0
M  V30 4 C -3.45837 -0.215391 0.0044417 0
M  V30 5 C -4.35947 -0.453054 0.975895 0
M  V30 6 C -5.7126 -0.227565 0.73293 0
M  V30 7 C -6.20589 0.232287 -0.460923 0
M  V30 8 C -5.26091 0.469189 -1.44579 0
M  V30 9 C -3.92897 0.258446 -1.23851 0
M  V30 10 S -7.91266 0.505297 -0.732975 0
M  V30 11 O -8.11454 1.63959 -1.70754 0
M  V30 12 O -8.57683 0.866444 0.558968 0
M  V30 13 N -8.58462 -0.963532 -1.34273 0
M  V30 14 C 0.123839 -0.715519 1.39282 0
M  V30 15 S 0.785156 -0.757065 -0.294209 0
M  V30 16 C 2.55142 -0.989604 -0.182713 0
M  V30 17 N 3.18468 -2.17672 -0.154847 0
M  V30 18 N 4.47716 -1.91639 -0.0684971 0
M  V30 19 C 4.67303 -0.560043 -0.0409009 0
M  V30 20 N 3.48114 0.00987518 -0.11166 0
M  V30 21 N 3.13179 1.35247 -0.119885 0
M  V30 22 C 6.00385 0.0428243 0.0518313 0
M  V30 23 C 6.19796 1.39038 0.0789687 0
M  V30 24 C 7.49555 1.91533 0.168451 0
M  V30 25 C 8.56434 1.06009 0.228227 0
M  V30 26 C 8.32573 -0.297834 0.198131 0
M  V30 27 N 7.09398 -0.757801 0.113593 0
M  V30 28 H -1.5066 -0.441749 -0.747738 0
M  V30 29 H -4.07407 -0.826211 1.93942 0
M  V30 30 H -6.41235 -0.426959 1.53221 0
M  V30 31 H -5.65483 0.837769 -2.40399 0
M  V30 32 H -3.2257 0.458056 -2.03822 0
M  V30 33 H -8.02255 -1.75742 -0.961573 0
M  V30 34 H -8.45983 -0.953903 -2.37267 0
M  V30 35 H 0.349215 -1.66153 1.92671 0
M  V30 36 H 0.551018 0.127043 1.96319 0
M  V30 37 H 3.09126 1.896 -1.02219 0
M  V30 38 H 2.90228 1.84831 0.772189 0
M  V30 39 H 5.40266 2.1142 0.0354134 0
M  V30 40 H 7.63198 2.97808 0.188669 0
M  V30 41 H 9.59142 1.39906 0.298245 0
M  V30 42 H 9.20328 -0.977119 0.24741 0
M  V30 END ATOM
M  V30 BEGIN BOND
M  V30 1 2 1 2
M  V30 2 1 2 3
M  V30 3 1 3 4
M  V30 4 2 4 5
M  V30 5 1 5 6
M  V30 6 2 6 7
M  V30 7 1 7 8
M  V30 8 2 8 9
M  V30 9 1 7 10
M  V30 10 2 10 11
M  V30 11 2 10 12
M  V30 12 1 10 13
M  V30 13 1 2 14
M  V30 14 1 14 15
M  V30 15 1 15 16
M  V30 16 2 16 17
M  V30 17 1 17 18
M  V30 18 2 18 19
M  V30 19 1 19 20
M  V30 20 1 20 21
M  V30 21 1 19 22
M  V30 22 2 22 23
M  V30 23 1 23 24
M  V30 24 2 24 25
M  V30 25 1 25 26
M  V30 26 2 26 27
M  V30 27 1 9 4
M  V30 28 1 20 16
M  V30 29 1 27 22
M  V30 30 1 3 28
M  V30 31 1 5 29
M  V30 32 1 6 30
M  V30 33 1 8 31
M  V30 34 1 9 32
M  V30 35 1 13 33
M  V30 36 1 13 34
M  V30 37 1 14 35
M  V30 38 1 14 36
M  V30 39 1 21 37
M  V30 40 1 21 38
M  V30 41 1 23 39
M  V30 42 1 24 40
M  V30 43 1 25 41
M  V30 44 1 26 42
M  V30 END BOND
M  V30 END CTAB
M  END
