
     RDKit          3D

  0  0  0  0  0  0  0  0  0  0999 V3000
M  V30 BEGIN CTAB
M  V30 COUNTS 56 60 0 0 0
M  V30 BEGIN ATOM
M  V30 1 O -8.32547 1.4446 0.536325 0
M  V30 2 C -6.97428 1.37181 0.110156 0
M  V30 3 C -6.33913 0.298794 0.916286 0
M  V30 4 N -4.96438 0.0387924 0.67365 0
M  V30 5 C -4.38254 -0.974511 1.46141 0
M  V30 6 C -3.12973 -1.6057 1.00841 0
M  V30 7 N -2.65246 -1.22729 -0.293858 0
M  V30 8 C -3.63982 -0.739815 -1.23686 0
M  V30 9 C -4.39658 0.368884 -0.550197 0
M  V30 10 C -1.28213 -1.35106 -0.607051 0
M  V30 11 N -0.814079 -2.28926 -1.44294 0
M  V30 12 C 0.495018 -2.39099 -1.70973 0
M  V30 13 N 0.949728 -3.39826 -2.59916 0
M  V30 14 C 1.41091 -1.53248 -1.13381 0
M  V30 15 C 0.91935 -0.54322 -0.253808 0
M  V30 16 C -0.411875 -0.440723 0.0173712 0
M  V30 17 C -0.938382 0.551812 0.897554 0
M  V30 18 N -1.42802 1.35692 1.6191 0
M  V30 19 C 1.8736 0.311322 0.313517 0
M  V30 20 C 1.7468 1.43414 1.18105 0
M  V30 21 C 3.11686 1.87203 1.5252 0
M  V30 22 O 3.45737 2.75667 2.35978 0
M  V30 23 N 3.98491 1.10896 0.737781 0
M  V30 24 C 3.20723 0.15748 0.00529104 0
M  V30 25 N 3.60157 -0.81793 -0.849881 0
M  V30 26 C 2.74956 -1.65766 -1.42175 0
M  V30 27 N 3.17188 -2.67632 -2.31844 0
M  V30 28 C 5.42282 1.21481 0.632471 0
M  V30 29 N 6.2206 0.399398 -0.0711123 0
M  V30 30 O 7.46186 0.763981 0.0364568 0
M  V30 31 C 7.52121 1.83086 0.814167 0
M  V30 32 C 6.243 2.14929 1.21416 0
M  V30 33 C 8.76255 2.55598 1.18747 0
M  V30 34 H -8.82639 1.93271 -0.188188 0
M  V30 35 H -7.04389 1.1728 -0.978733 0
M  V30 36 H -6.55306 2.3883 0.337887 0
M  V30 37 H -6.89655 -0.646382 0.71483 0
M  V30 38 H -6.47002 0.575135 1.99737 0
M  V30 39 H -4.22932 -0.565518 2.50469 0
M  V30 40 H -5.16235 -1.76889 1.61394 0
M  V30 41 H -2.31406 -1.51694 1.77572 0
M  V30 42 H -3.2931 -2.73668 0.935074 0
M  V30 43 H -3.20403 -0.384641 -2.18068 0
M  V30 44 H -4.33678 -1.6067 -1.41482 0
M  V30 45 H -3.69009 1.2403 -0.411373 0
M  V30 46 H -5.12247 0.745295 -1.30257 0
M  V30 47 H 1.04095 -3.27935 -3.63207 0
M  V30 48 H 1.19794 -4.33015 -2.15988 0
M  V30 49 H 1.10348 2.27194 0.918435 0
M  V30 50 H 1.36559 1.06208 2.16728 0
M  V30 51 H 3.44125 -3.63129 -2.01095 0
M  V30 52 H 3.2368 -2.48117 -3.35084 0
M  V30 53 H 5.90688 2.95048 1.84817 0
M  V30 54 H 8.56948 3.64496 1.05037 0
M  V30 55 H 9.04018 2.31542 2.22904 0
M  V30 56 H 9.6016 2.30697 0.485579 0
M  V30 END ATOM
M  V30 BEGIN BOND
M  V30 1 1 1 2
M  V30 2 1 2 3
M  V30 3 1 3 4
M  V30 4 1 4 5
M  V30 5 1 5 6
M  V30 6 1 6 7
M  V30 7 1 7 8
M  V30 8 1 8 9
M  V30 9 1 7 10
M  V30 10 2 10 11
M  V30 11 1 11 12
M  V30 12 1 12 13
M  V30 13 2 12 14
M  V30 14 1 14 15
M  V30 15 2 15 16
M  V30 16 1 16 17
M  V30 17 3 17 18
M  V30 18 1 15 19
M  V30 19 1 19 20
M  V30 20 1 20 21
M  V30 21 2 21 22
M  V30 22 1 21 23
M  V30 23 1 23 24
M  V30 24 1 24 25
M  V30 25 2 25 26
M  V30 26 1 26 27
M  V30 27 1 23 28
M  V30 28 2 28 29
M  V30 29 1 29 30
M  V30 30 1 30 31
M  V30 31 2 31 32
M  V30 32 1 31 33
M  V30 33 1 9 4
M  V30 34 1 16 10
M  V30 35 2 24 19
M  V30 36 1 32 28
M  V30 37 1 26 14
M  V30 38 1 1 34
M  V30 39 1 2 35
M  V30 40 1 2 36
M  V30 41 1 3 37
M  V30 42 1 3 38
M  V30 43 1 5 39
M  V30 44 1 5 40
M  V30 45 1 6 41
M  V30 46 1 6 42
M  V30 47 1 8 43
M  V30 48 1 8 44
M  V30 49 1 9 45
M  V30 50 1 9 46
M  V30 51 1 13 47
M  V30 52 1 13 48
M  V30 53 1 20 49
M  V30 54 1 20 50
M  V30 55 1 27 51
M  V30 56 1 27 52
M  V30 57 1 32 53
M  V30 58 1 33 54
M  V30 59 1 33 55
M  V30 60 1 33 56
M  V30 END BOND
M  V30 END CTAB
M  END
