
     RDKit          3D

  0  0  0  0  0  0  0  0  0  0999 V3000
M  V30 BEGIN CTAB
M  V30 COUNTS 46 48 0 0 0
M  V30 BEGIN ATOM
M  V30 1 O 0.371084 -2.94681 0.508421 0
M  V30 2 C 0.341632 -1.73316 0.312933 0
M  V30 3 N -0.967579 -1.17549 0.29882 0
M  V30 4 C -1.4519 0.169845 0.157051 0
M  V30 5 C -2.85595 0.162897 0.658459 0 CFG=2
M  V30 6 C -3.13657 -1.22159 1.1613 0 CFG=1
M  V30 7 C -2.16532 -2.03807 0.393664 0
M  V30 8 N -2.92326 -1.34068 2.59466 0
M  V30 9 C -3.87737 0.630507 -0.279006 0
M  V30 10 C -3.98188 0.179605 -1.57291 0
M  V30 11 C -4.98099 0.652462 -2.42843 0
M  V30 12 C -5.89719 1.58649 -2.00916 0
M  V30 13 C -5.80765 2.04652 -0.723932 0
M  V30 14 C -4.82389 1.58149 0.120164 0
M  V30 15 C 1.61045 -1.07211 0.131928 0
M  V30 16 C 1.79511 0.231604 -0.247546 0
M  V30 17 C 3.06891 0.775901 -0.352359 0
M  V30 18 C 4.21001 0.0557967 -0.0882834 0
M  V30 19 C 4.02995 -1.24545 0.289379 0
M  V30 20 C 2.77338 -1.78888 0.395297 0
M  V30 21 C 5.52209 0.724249 -0.228053 0
M  V30 22 S 6.20209 0.575925 -1.85042 0
M  V30 23 O 5.34577 1.18753 -2.89138 0
M  V30 24 O 6.50409 -0.879871 -2.12542 0
M  V30 25 N 7.72615 1.40334 -1.85309 0
M  V30 26 H -0.810071 0.836382 0.833022 0
M  V30 27 H -1.36573 0.584683 -0.862533 0
M  V30 28 H -2.89137 0.862425 1.56042 0
M  V30 29 H -4.17647 -1.48021 0.92854 0
M  V30 30 H -2.53759 -2.34812 -0.588274 0
M  V30 31 H -1.89497 -2.97087 0.948102 0
M  V30 32 H -2.05689 -0.839196 2.82455 0
M  V30 33 H -3.74554 -1.02242 3.14727 0
M  V30 34 H -3.26821 -0.552131 -1.92601 0
M  V30 35 H -5.04277 0.282003 -3.44284 0
M  V30 36 H -6.67849 1.95687 -2.6767 0
M  V30 37 H -6.54365 2.78497 -0.416007 0
M  V30 38 H -4.75891 1.94891 1.13362 0
M  V30 39 H 0.95993 0.869322 -0.500662 0
M  V30 40 H 3.1258 1.81354 -0.657327 0
M  V30 41 H 4.91333 -1.8526 0.508014 0
M  V30 42 H 2.67413 -2.82505 0.698753 0
M  V30 43 H 5.37369 1.80147 -0.0101173 0
M  V30 44 H 6.23847 0.265009 0.489969 0
M  V30 45 H 7.56945 2.3969 -1.52609 0
M  V30 46 H 8.28468 0.966091 -1.06024 0
M  V30 END ATOM
M  V30 BEGIN BOND
M  V30 1 2 1 2
M  V30 2 1 2 3
M  V30 3 1 3 4
M  V30 4 1 4 5
M  V30 5 1 5 6
M  V30 6 1 6 7
M  V30 7 1 6 8
M  V30 8 1 5 9
M  V30 9 2 9 10
M  V30 10 1 10 11
M  V30 11 2 11 12
M  V30 12 1 12 13
M  V30 13 2 13 14
M  V30 14 1 2 15
M  V30 15 2 15 16
M  V30 16 1 16 17
M  V30 17 2 17 18
M  V30 18 1 18 19
M  V30 19 2 19 20
M  V30 20 1 18 21
M  V30 21 1 21 22
M  V30 22 2 22 23
M  V30 23 2 22 24
M  V30 24 1 22 25
M  V30 25 1 7 3
M  V30 26 1 14 9
M  V30 27 1 20 15
M  V30 28 1 4 26
M  V30 29 1 4 27
M  V30 30 1 5 28 CFG=1
M  V30 31 1 6 29 CFG=1
M  V30 32 1 7 30
M  V30 33 1 7 31
M  V30 34 1 8 32
M  V30 35 1 8 33
M  V30 36 1 10 34
M  V30 37 1 11 35
M  V30 38 1 12 36
M  V30 39 1 13 37
M  V30 40 1 14 38
M  V30 41 1 16 39
M  V30 42 1 17 40
M  V30 43 1 19 41
M  V30 44 1 20 42
M  V30 45 1 21 43
M  V30 46 1 21 44
M  V30 47 1 25 45
M  V30 48 1 25 46
M  V30 END BOND
M  V30 END CTAB
M  END
