
     RDKit          3D

  0  0  0  0  0  0  0  0  0  0999 V3000
M  V30 BEGIN CTAB
M  V30 COUNTS 49 51 0 0 0
M  V30 BEGIN ATOM
M  V30 1 C 8.3686 -1.50958 -1.63158 0
M  V30 2 O 7.27556 -1.35819 -2.50179 0
M  V30 3 C 5.9679 -1.38841 -2.04004 0
M  V30 4 C 4.90486 -1.23719 -2.91017 0
M  V30 5 C 3.591 -1.27002 -2.42791 0
M  V30 6 C 3.3527 -1.45292 -1.08573 0
M  V30 7 C 1.99725 -1.49576 -0.509468 0
M  V30 8 O 1.56815 -0.2094 -0.0733862 0
M  V30 9 C 0.310035 -0.0809383 0.495023 0
M  V30 10 C -0.123519 1.1623 0.92622 0
M  V30 11 O 0.751668 2.22572 0.756681 0
M  V30 12 C 0.404819 3.54868 1.16458 0
M  V30 13 C -1.36811 1.33911 1.4987 0
M  V30 14 C -2.23324 0.283097 1.6649 0
M  V30 15 C -3.58684 0.372945 2.25575 0
M  V30 16 C -4.68932 0.36205 1.29029 0
M  V30 17 C -5.37585 -0.850842 1.14629 0
M  V30 18 N -6.37913 -0.879593 0.263765 0
M  V30 19 C -6.72046 0.207195 -0.459133 0
M  V30 20 N -7.80313 0.0675769 -1.36918 0
M  V30 21 N -6.05603 1.36372 -0.312962 0
M  V30 22 C -5.02209 1.46812 0.567964 0
M  V30 23 N -4.36667 2.72145 0.681175 0
M  V30 24 C -1.78265 -0.968707 1.22485 0
M  V30 25 C -0.54244 -1.15335 0.652978 0
M  V30 26 C 4.44127 -1.60001 -0.249976 0
M  V30 27 C 5.74804 -1.57272 -0.6917 0
M  V30 28 H 8.37357 -2.45845 -1.07121 0
M  V30 29 H 9.30274 -1.45074 -2.22505 0
M  V30 30 H 8.40198 -0.66854 -0.884708 0
M  V30 31 H 5.07812 -1.0934 -3.96302 0
M  V30 32 H 2.7447 -1.15401 -3.09079 0
M  V30 33 H 2.04122 -2.12981 0.403927 0
M  V30 34 H 1.2417 -1.9541 -1.17944 0
M  V30 35 H -0.630094 3.74285 0.776355 0
M  V30 36 H 0.398422 3.63611 2.25486 0
M  V30 37 H 1.04689 4.30015 0.663984 0
M  V30 38 H -1.63948 2.31296 1.81793 0
M  V30 39 H -3.73723 -0.416566 3.04854 0
M  V30 40 H -3.66857 1.33714 2.82851 0
M  V30 41 H -5.10347 -1.71564 1.72185 0
M  V30 42 H -7.77358 0.401992 -2.3365 0
M  V30 43 H -8.66424 -0.401689 -1.01738 0
M  V30 44 H -3.94243 3.15673 -0.159136 0
M  V30 45 H -4.31325 3.1958 1.59428 0
M  V30 46 H -2.46187 -1.80888 1.35335 0
M  V30 47 H -0.221658 -2.13534 0.321923 0
M  V30 48 H 4.29647 -1.74727 0.820598 0
M  V30 49 H 6.59772 -1.69252 -0.0050093 0
M  V30 END ATOM
M  V30 BEGIN BOND
M  V30 1 1 1 2
M  V30 2 1 2 3
M  V30 3 2 3 4
M  V30 4 1 4 5
M  V30 5 2 5 6
M  V30 6 1 6 7
M  V30 7 1 7 8
M  V30 8 1 8 9
M  V30 9 2 9 10
M  V30 10 1 10 11
M  V30 11 1 11 12
M  V30 12 1 10 13
M  V30 13 2 13 14
M  V30 14 1 14 15
M  V30 15 1 15 16
M  V30 16 2 16 17
M  V30 17 1 17 18
M  V30 18 2 18 19
M  V30 19 1 19 20
M  V30 20 1 19 21
M  V30 21 2 21 22
M  V30 22 1 22 23
M  V30 23 1 14 24
M  V30 24 2 24 25
M  V30 25 1 6 26
M  V30 26 2 26 27
M  V30 27 1 27 3
M  V30 28 1 25 9
M  V30 29 1 22 16
M  V30 30 1 1 28
M  V30 31 1 1 29
M  V30 32 1 1 30
M  V30 33 1 4 31
M  V30 34 1 5 32
M  V30 35 1 7 33
M  V30 36 1 7 34
M  V30 37 1 12 35
M  V30 38 1 12 36
M  V30 39 1 12 37
M  V30 40 1 13 38
M  V30 41 1 15 39
M  V30 42 1 15 40
M  V30 43 1 17 41
M  V30 44 1 20 42
M  V30 45 1 20 43
M  V30 46 1 23 44
M  V30 47 1 23 45
M  V30 48 1 24 46
M  V30 49 1 25 47
M  V30 50 1 26 48
M  V30 51 1 27 49
M  V30 END BOND
M  V30 END CTAB
M  END
