
     RDKit          3D

  0  0  0  0  0  0  0  0  0  0999 V3000
M  V30 BEGIN CTAB
M  V30 COUNTS 48 51 0 0 0
M  V30 BEGIN ATOM
M  V30 1 N 6.33501 -2.23853 -1.09226 0
M  V30 2 C 5.56743 -1.36287 -0.287284 0
M  V30 3 N 6.08509 -0.774887 0.825421 0
M  V30 4 C 5.35481 0.0585108 1.59124 0
M  V30 5 N 5.95084 0.648115 2.74961 0
M  V30 6 N 4.08215 0.308805 1.23747 0
M  V30 7 C 3.48949 -0.227828 0.155293 0
M  V30 8 C 4.25123 -1.07556 -0.613166 0
M  V30 9 N 2.15182 0.0332192 -0.21952 0
M  V30 10 C 1.62338 -0.593447 -1.40411 0
M  V30 11 C 0.319894 0.0448451 -1.805 0
M  V30 12 C -0.700239 0.0650289 -0.698158 0
M  V30 13 C -0.117199 0.409253 0.643134 0
M  V30 14 C 1.30255 0.912057 0.555608 0
M  V30 15 C -1.72989 1.06867 -1.0674 0
M  V30 16 N -1.4344 2.36717 -1.28814 0
M  V30 17 C -2.5761 3.0442 -1.61183 0
M  V30 18 C -3.57818 2.09956 -1.57783 0
M  V30 19 N -3.04809 0.902153 -1.24488 0
M  V30 20 C -3.8081 -0.31997 -1.10664 0
M  V30 21 C -4.3418 -0.510966 0.268861 0
M  V30 22 C -3.67549 -1.19738 1.25615 0
M  V30 23 C -4.25682 -1.31878 2.50783 0
M  V30 24 N -5.45565 -0.780365 2.77469 0
M  V30 25 C -6.10652 -0.109519 1.80901 0
M  V30 26 C -5.58755 0.0429216 0.562509 0
M  V30 27 H 7.19284 -2.68983 -0.730843 0
M  V30 28 H 6.04373 -2.44131 -2.06651 0
M  V30 29 H 5.97812 1.68203 2.83947 0
M  V30 30 H 6.36879 0.0908185 3.5264 0
M  V30 31 H 3.82948 -1.53653 -1.494 0
M  V30 32 H 2.34984 -0.346241 -2.23346 0
M  V30 33 H 1.58295 -1.68788 -1.33793 0
M  V30 34 H -0.0944483 -0.547918 -2.64996 0
M  V30 35 H 0.530132 1.05431 -2.18596 0
M  V30 36 H -1.15436 -0.935101 -0.618336 0
M  V30 37 H -0.173463 -0.455616 1.35344 0
M  V30 38 H -0.718117 1.2168 1.11058 0
M  V30 39 H 1.70581 0.903223 1.59743 0
M  V30 40 H 1.26572 1.92264 0.118703 0
M  V30 41 H -2.5919 4.09171 -1.83089 0
M  V30 42 H -4.61782 2.29435 -1.78553 0
M  V30 43 H -3.23316 -1.22002 -1.38453 0
M  V30 44 H -4.69371 -0.296722 -1.80538 0
M  V30 45 H -2.70665 -1.63545 1.04441 0
M  V30 46 H -3.72823 -1.85697 3.27268 0
M  V30 47 H -7.08278 0.307955 2.08743 0
M  V30 48 H -6.15044 0.591337 -0.179292 0
M  V30 END ATOM
M  V30 BEGIN BOND
M  V30 1 1 1 2
M  V30 2 2 2 3
M  V30 3 1 3 4
M  V30 4 1 4 5
M  V30 5 2 4 6
M  V30 6 1 6 7
M  V30 7 2 7 8
M  V30 8 1 7 9
M  V30 9 1 9 10
M  V30 10 1 10 11
M  V30 11 1 11 12
M  V30 12 1 12 13
M  V30 13 1 13 14
M  V30 14 1 12 15
M  V30 15 2 15 16
M  V30 16 1 16 17
M  V30 17 2 17 18
M  V30 18 1 18 19
M  V30 19 1 19 20
M  V30 20 1 20 21
M  V30 21 2 21 22
M  V30 22 1 22 23
M  V30 23 2 23 24
M  V30 24 1 24 25
M  V30 25 2 25 26
M  V30 26 1 8 2
M  V30 27 1 14 9
M  V30 28 1 19 15
M  V30 29 1 26 21
M  V30 30 1 1 27
M  V30 31 1 1 28
M  V30 32 1 5 29
M  V30 33 1 5 30
M  V30 34 1 8 31
M  V30 35 1 10 32
M  V30 36 1 10 33
M  V30 37 1 11 34
M  V30 38 1 11 35
M  V30 39 1 12 36
M  V30 40 1 13 37
M  V30 41 1 13 38
M  V30 42 1 14 39
M  V30 43 1 14 40
M  V30 44 1 17 41
M  V30 45 1 18 42
M  V30 46 1 20 43
M  V30 47 1 20 44
M  V30 48 1 22 45
M  V30 49 1 23 46
M  V30 50 1 25 47
M  V30 51 1 26 48
M  V30 END BOND
M  V30 END CTAB
M  END
