
     RDKit          3D

  0  0  0  0  0  0  0  0  0  0999 V3000
M  V30 BEGIN CTAB
M  V30 COUNTS 28 30 0 0 0
M  V30 BEGIN ATOM
M  V30 1 N 4.22314 -0.531203 1.30998 0
M  V30 2 C 3.04629 -0.404035 0.530912 0
M  V30 3 N 1.84937 -0.172909 1.11095 0
M  V30 4 C 0.725148 -0.0492726 0.395808 0
M  V30 5 N 0.796593 -0.159146 -0.934208 0
M  V30 6 C 1.97667 -0.391868 -1.57147 0
M  V30 7 N 2.03276 -0.505991 -2.99134 0
M  V30 8 N 3.07522 -0.507769 -0.806414 0
M  V30 9 C -0.53886 0.199409 1.07114 0
M  V30 10 C -1.19138 1.50999 0.613906 0
M  V30 11 C -2.58315 1.12057 0.177275 0
M  V30 12 C -2.85592 0.00770809 1.2061 0
M  V30 13 C -1.60651 -0.796613 0.800257 0
M  V30 14 C -1.86268 -0.833642 -0.675299 0
M  V30 15 C -2.44205 0.30287 -1.04475 0
M  V30 16 H 4.20308 -0.465787 2.34118 0
M  V30 17 H 5.13367 -0.695033 0.832251 0
M  V30 18 H 2.39187 0.274481 -3.59838 0
M  V30 19 H 1.71859 -1.37137 -3.48536 0
M  V30 20 H -0.426426 0.264766 2.19196 0
M  V30 21 H -0.645112 1.97268 -0.2113 0
M  V30 22 H -1.25631 2.23983 1.43196 0
M  V30 23 H -3.31413 1.89392 0.166747 0
M  V30 24 H -2.76642 0.42716 2.20364 0
M  V30 25 H -3.77706 -0.532568 0.983939 0
M  V30 26 H -1.53739 -1.74899 1.27205 0
M  V30 27 H -1.60436 -1.66361 -1.29672 0
M  V30 28 H -2.76465 0.616419 -2.02482 0
M  V30 END ATOM
M  V30 BEGIN BOND
M  V30 1 1 1 2
M  V30 2 2 2 3
M  V30 3 1 3 4
M  V30 4 2 4 5
M  V30 5 1 5 6
M  V30 6 1 6 7
M  V30 7 2 6 8
M  V30 8 1 4 9
M  V30 9 1 9 10
M  V30 10 1 10 11
M  V30 11 1 11 12
M  V30 12 1 12 13
M  V30 13 1 13 14
M  V30 14 2 14 15
M  V30 15 1 8 2
M  V30 16 1 13 9
M  V30 17 1 15 11
M  V30 18 1 1 16
M  V30 19 1 1 17
M  V30 20 1 7 18
M  V30 21 1 7 19
M  V30 22 1 9 20
M  V30 23 1 10 21
M  V30 24 1 10 22
M  V30 25 1 11 23
M  V30 26 1 12 24
M  V30 27 1 12 25
M  V30 28 1 13 26
M  V30 29 1 14 27
M  V30 30 1 15 28
M  V30 END BOND
M  V30 END CTAB
M  END
