
     RDKit          3D

  0  0  0  0  0  0  0  0  0  0999 V3000
M  V30 BEGIN CTAB
M  V30 COUNTS 50 53 0 0 0
M  V30 BEGIN ATOM
M  V30 1 N 3.6605 -3.23781 -1.90223 0
M  V30 2 C 2.54718 -3.01892 -1.78529 0
M  V30 3 C 1.12126 -2.75685 -1.6549 0
M  V30 4 C 0.224152 -3.61037 -2.21328 0
M  V30 5 N 0.713056 -4.74123 -2.9059 0
M  V30 6 N -1.07823 -3.32916 -2.06701 0
M  V30 7 C -1.48647 -2.21656 -1.37637 0
M  V30 8 C -0.645372 -1.31064 -0.785292 0
M  V30 9 C 0.717229 -1.63522 -0.958749 0
M  V30 10 C 1.75075 -0.779529 -0.420516 0
M  V30 11 C 2.35739 -1.11424 0.75747 0
M  V30 12 C 3.37314 -0.383263 1.33565 0
M  V30 13 C 3.78361 0.763969 0.650715 0
M  V30 14 C 3.17171 1.10154 -0.537621 0
M  V30 15 C 2.16263 0.34334 -1.07846 0
M  V30 16 C 4.85803 1.62935 1.14584 0
M  V30 17 C 4.31943 2.92716 1.72642 0
M  V30 18 C 5.79153 1.99504 0.0136357 0
M  V30 19 C -1.23473 -0.264436 -0.138121 0
M  V30 20 N -0.472666 0.780266 0.554337 0
M  V30 21 C -2.61158 -0.236719 -0.153128 0
M  V30 22 S -3.04234 -1.60994 -1.03087 0
M  V30 23 C -3.44324 0.764843 0.494906 0
M  V30 24 O -2.9046 1.69787 1.17442 0
M  V30 25 C -4.87691 0.770797 0.419692 0
M  V30 26 C -5.64795 1.24261 1.48393 0
M  V30 27 C -7.01382 1.27746 1.3949 0
M  V30 28 C -7.69813 0.853938 0.261796 0
M  V30 29 C -6.94875 0.388034 -0.7924 0
M  V30 30 C -5.5487 0.353264 -0.698857 0
M  V30 31 Cl -9.44213 0.895288 0.145131 0
M  V30 32 H 1.17499 -5.47684 -2.31272 0
M  V30 33 H 0.670877 -4.92763 -3.91254 0
M  V30 34 H 2.07355 -2.00688 1.3442 0
M  V30 35 H 3.84969 -0.647922 2.26078 0
M  V30 36 H 3.48222 1.99903 -1.08196 0
M  V30 37 H 1.71728 0.682965 -2.03662 0
M  V30 38 H 5.44762 1.16305 1.97843 0
M  V30 39 H 5.20027 3.57934 1.91696 0
M  V30 40 H 3.65545 3.45832 1.01405 0
M  V30 41 H 3.83859 2.75677 2.72108 0
M  V30 42 H 6.08698 1.13619 -0.606471 0
M  V30 43 H 5.27885 2.80722 -0.569876 0
M  V30 44 H 6.7333 2.47553 0.399993 0
M  V30 45 H -0.296308 1.70132 0.158103 0
M  V30 46 H -0.133337 0.524138 1.49064 0
M  V30 47 H -5.12012 1.57356 2.37638 0
M  V30 48 H -7.63362 1.63583 2.20615 0
M  V30 49 H -7.44699 0.0458601 -1.70251 0
M  V30 50 H -5.03524 -0.0197483 -1.59409 0
M  V30 END ATOM
M  V30 BEGIN BOND
M  V30 1 3 1 2
M  V30 2 1 2 3
M  V30 3 2 3 4
M  V30 4 1 4 5
M  V30 5 1 4 6
M  V30 6 2 6 7
M  V30 7 1 7 8
M  V30 8 2 8 9
M  V30 9 1 9 10
M  V30 10 2 10 11
M  V30 11 1 11 12
M  V30 12 2 12 13
M  V30 13 1 13 14
M  V30 14 2 14 15
M  V30 15 1 13 16
M  V30 16 1 16 17
M  V30 17 1 16 18
M  V30 18 1 8 19
M  V30 19 1 19 20
M  V30 20 2 19 21
M  V30 21 1 21 22
M  V30 22 1 21 23
M  V30 23 2 23 24
M  V30 24 1 23 25
M  V30 25 2 25 26
M  V30 26 1 26 27
M  V30 27 2 27 28
M  V30 28 1 28 29
M  V30 29 2 29 30
M  V30 30 1 28 31
M  V30 31 1 9 3
M  V30 32 1 15 10
M  V30 33 1 30 25
M  V30 34 1 22 7
M  V30 35 1 5 32
M  V30 36 1 5 33
M  V30 37 1 11 34
M  V30 38 1 12 35
M  V30 39 1 14 36
M  V30 40 1 15 37
M  V30 41 1 16 38
M  V30 42 1 17 39
M  V30 43 1 17 40
M  V30 44 1 17 41
M  V30 45 1 18 42
M  V30 46 1 18 43
M  V30 47 1 18 44
M  V30 48 1 20 45
M  V30 49 1 20 46
M  V30 50 1 26 47
M  V30 51 1 27 48
M  V30 52 1 29 49
M  V30 53 1 30 50
M  V30 END BOND
M  V30 END CTAB
M  END
