
     RDKit          3D

  0  0  0  0  0  0  0  0  0  0999 V3000
M  V30 BEGIN CTAB
M  V30 COUNTS 58 60 0 0 0
M  V30 BEGIN ATOM
M  V30 1 C -5.2697 -0.675082 -1.6193 0
M  V30 2 C -6.53174 -0.0881697 -1.0955 0
M  V30 3 C -7.32479 0.405887 -2.32026 0
M  V30 4 C -6.42289 1.05889 -0.176352 0
M  V30 5 C -5.70658 0.891211 1.1094 0
M  V30 6 N -4.32261 0.510661 0.962648 0
M  V30 7 C -3.24154 1.39984 1.14144 0
M  V30 8 O -3.42846 2.60194 1.44809 0
M  V30 9 C -1.87247 0.943092 0.974508 0
M  V30 10 C -1.58753 -0.275717 0.395672 0
M  V30 11 C -0.281093 -0.711789 0.241788 0
M  V30 12 C 0.726397 0.108024 0.683999 0
M  V30 13 C 0.470767 1.32465 1.26297 0
M  V30 14 C -0.816406 1.74434 1.40977 0
M  V30 15 N 2.06774 -0.316201 0.535304 0
M  V30 16 C 2.73479 -1.10476 1.54869 0
M  V30 17 C 2.75735 0.0715844 -0.678129 0
M  V30 18 C 4.16249 -0.453128 -0.6842 0
M  V30 19 N 5.1748 0.219702 -0.149576 0
M  V30 20 C 6.41129 -0.291845 -0.181327 0
M  V30 21 C 7.44749 0.451268 0.394241 0
M  V30 22 N 7.24384 1.71087 1.00349 0
M  V30 23 N 8.68016 -0.076891 0.353466 0
M  V30 24 C 8.95978 -1.26495 -0.204493 0
M  V30 25 N 10.3011 -1.784 -0.220323 0
M  V30 26 N 7.93907 -1.96135 -0.753166 0
M  V30 27 C 6.68046 -1.51686 -0.760312 0
M  V30 28 N 5.64088 -2.17707 -1.29362 0
M  V30 29 C 4.39974 -1.67805 -1.26911 0
M  V30 30 C -6.4216 0.100386 2.10617 0
M  V30 31 O -7.75191 0.342824 2.35923 0
M  V30 32 O -5.83516 -0.79958 2.73569 0
M  V30 33 H -5.36043 -0.940245 -2.71693 0
M  V30 34 H -4.43917 0.0394041 -1.58137 0
M  V30 35 H -5.01961 -1.67238 -1.15191 0
M  V30 36 H -7.15631 -0.926619 -0.706933 0
M  V30 37 H -7.95958 1.28392 -2.03709 0
M  V30 38 H -7.94093 -0.393995 -2.75199 0
M  V30 39 H -6.5629 0.806811 -3.01985 0
M  V30 40 H -7.44817 1.45327 0.00898342 0
M  V30 41 H -5.8852 1.87821 -0.7385 0
M  V30 42 H -5.65357 1.94654 1.54992 0
M  V30 43 H -4.15706 -0.490044 0.729447 0
M  V30 44 H -2.36011 -0.957215 0.0277746 0
M  V30 45 H -0.0881679 -1.68167 -0.2199 0
M  V30 46 H 1.27515 1.98209 1.61747 0
M  V30 47 H -1.05447 2.70254 1.86407 0
M  V30 48 H 2.13014 -0.991382 2.48905 0
M  V30 49 H 2.68281 -2.17235 1.27934 0
M  V30 50 H 3.74076 -0.737134 1.79422 0
M  V30 51 H 2.22845 -0.357926 -1.53454 0
M  V30 52 H 2.81403 1.19271 -0.738917 0
M  V30 53 H 6.55084 2.37354 0.612097 0
M  V30 54 H 7.77754 2.01311 1.85746 0
M  V30 55 H 10.9252 -1.79054 0.593427 0
M  V30 56 H 10.6441 -2.17305 -1.12025 0
M  V30 57 H 3.59203 -2.25146 -1.71457 0
M  V30 58 H -8.25899 1.15414 2.04283 0
M  V30 END ATOM
M  V30 BEGIN BOND
M  V30 1 1 1 2
M  V30 2 1 2 3
M  V30 3 1 2 4
M  V30 4 1 4 5
M  V30 5 1 5 6
M  V30 6 1 6 7
M  V30 7 2 7 8
M  V30 8 1 7 9
M  V30 9 2 9 10
M  V30 10 1 10 11
M  V30 11 2 11 12
M  V30 12 1 12 13
M  V30 13 2 13 14
M  V30 14 1 12 15
M  V30 15 1 15 16
M  V30 16 1 15 17
M  V30 17 1 17 18
M  V30 18 2 18 19
M  V30 19 1 19 20
M  V30 20 2 20 21
M  V30 21 1 21 22
M  V30 22 1 21 23
M  V30 23 2 23 24
M  V30 24 1 24 25
M  V30 25 1 24 26
M  V30 26 2 26 27
M  V30 27 1 27 28
M  V30 28 2 28 29
M  V30 29 1 5 30
M  V30 30 1 30 31
M  V30 31 2 30 32
M  V30 32 1 14 9
M  V30 33 1 29 18
M  V30 34 1 27 20
M  V30 35 1 1 33
M  V30 36 1 1 34
M  V30 37 1 1 35
M  V30 38 1 2 36
M  V30 39 1 3 37
M  V30 40 1 3 38
M  V30 41 1 3 39
M  V30 42 1 4 40
M  V30 43 1 4 41
M  V30 44 1 5 42
M  V30 45 1 6 43
M  V30 46 1 10 44
M  V30 47 1 11 45
M  V30 48 1 13 46
M  V30 49 1 14 47
M  V30 50 1 16 48
M  V30 51 1 16 49
M  V30 52 1 16 50
M  V30 53 1 17 51
M  V30 54 1 17 52
M  V30 55 1 22 53
M  V30 56 1 22 54
M  V30 57 1 25 55
M  V30 58 1 25 56
M  V30 59 1 29 57
M  V30 60 1 31 58
M  V30 END BOND
M  V30 END CTAB
M  END
