
     RDKit          3D

  0  0  0  0  0  0  0  0  0  0999 V3000
M  V30 BEGIN CTAB
M  V30 COUNTS 44 45 0 0 0
M  V30 BEGIN ATOM
M  V30 1 N -1.14786 1.62871 -5.07332 0
M  V30 2 C -0.775721 1.38088 -3.97358 0
M  V30 3 C -0.274386 1.02186 -2.61821 0
M  V30 4 C 1.04381 0.808195 -2.55344 0
M  V30 5 N 1.77883 0.464883 -1.39454 0
M  V30 6 C 3.19234 0.280769 -1.60964 0
M  V30 7 O 3.6629 0.411148 -2.74605 0
M  V30 8 C 4.04359 -0.0533428 -0.49716 0
M  V30 9 C 3.65916 0.303939 0.797475 0
M  V30 10 C 4.43863 0.00280683 1.90135 0
M  V30 11 C 5.62406 -0.662913 1.73985 0
M  V30 12 C 6.04046 -1.03351 0.473139 0
M  V30 13 C 5.24396 -0.720512 -0.604696 0
M  V30 14 N 6.40329 -0.948964 2.889 0
M  V30 15 C -1.12263 0.683787 -1.52443 0
M  V30 16 O -0.527529 -0.0184115 -0.562632 0
M  V30 17 N -2.44272 0.900377 -1.18936 0
M  V30 18 C -2.95114 0.0994862 -0.0500359 0
M  V30 19 C -3.13661 0.642892 1.18905 0
M  V30 20 C -3.63755 -0.14904 2.23527 0
M  V30 21 C -3.9461 -1.45926 2.04104 0
M  V30 22 C -3.75487 -2.01544 0.764145 0
M  V30 23 C -3.26373 -1.22415 -0.242323 0
M  V30 24 N -4.46273 -2.33689 3.04681 0
M  V30 25 C -3.33807 1.84999 -1.69976 0
M  V30 26 O -3.04623 2.62249 -2.61773 0
M  V30 27 C -4.73565 1.94838 -1.10527 0
M  V30 28 H 1.59545 0.914338 -3.51696 0
M  V30 29 H 1.44606 0.349028 -0.43351 0
M  V30 30 H 2.73765 0.83177 0.933869 0
M  V30 31 H 4.10569 0.292941 2.87735 0
M  V30 32 H 6.9752 -1.55785 0.341914 0
M  V30 33 H 5.57649 -1.01375 -1.58901 0
M  V30 34 H 6.02223 -1.65256 3.55883 0
M  V30 35 H 7.29566 -0.436961 2.98431 0
M  V30 36 H -2.89884 1.68087 1.36871 0
M  V30 37 H -3.78268 0.286247 3.2153 0
M  V30 38 H -4.00119 -3.06455 0.602571 0
M  V30 39 H -3.11499 -1.6744 -1.23512 0
M  V30 40 H -3.81118 -2.75876 3.74025 0
M  V30 41 H -5.48176 -2.57908 3.12151 0
M  V30 42 H -4.72792 2.64248 -0.251296 0
M  V30 43 H -5.11687 0.940594 -0.85079 0
M  V30 44 H -5.3865 2.37148 -1.88289 0
M  V30 END ATOM
M  V30 BEGIN BOND
M  V30 1 3 1 2
M  V30 2 1 2 3
M  V30 3 2 3 4
M  V30 4 1 4 5
M  V30 5 1 5 6
M  V30 6 2 6 7
M  V30 7 1 6 8
M  V30 8 2 8 9
M  V30 9 1 9 10
M  V30 10 2 10 11
M  V30 11 1 11 12
M  V30 12 2 12 13
M  V30 13 1 11 14
M  V30 14 1 3 15
M  V30 15 2 15 16
M  V30 16 1 15 17
M  V30 17 1 17 18
M  V30 18 2 18 19
M  V30 19 1 19 20
M  V30 20 2 20 21
M  V30 21 1 21 22
M  V30 22 2 22 23
M  V30 23 1 21 24
M  V30 24 1 17 25
M  V30 25 2 25 26
M  V30 26 1 25 27
M  V30 27 1 13 8
M  V30 28 1 23 18
M  V30 29 1 4 28
M  V30 30 1 5 29
M  V30 31 1 9 30
M  V30 32 1 10 31
M  V30 33 1 12 32
M  V30 34 1 13 33
M  V30 35 1 14 34
M  V30 36 1 14 35
M  V30 37 1 19 36
M  V30 38 1 20 37
M  V30 39 1 22 38
M  V30 40 1 23 39
M  V30 41 1 24 40
M  V30 42 1 24 41
M  V30 43 1 27 42
M  V30 44 1 27 43
M  V30 45 1 27 44
M  V30 END BOND
M  V30 END CTAB
M  END
