
     RDKit          3D

  0  0  0  0  0  0  0  0  0  0999 V3000
M  V30 BEGIN CTAB
M  V30 COUNTS 18 18 0 0 0
M  V30 BEGIN ATOM
M  V30 1 C -3.09902 -0.741536 -0.207151 0
M  V30 2 O -1.84097 -1.31451 -0.032816 0
M  V30 3 C -0.653039 -0.595188 0.00535745 0
M  V30 4 C 0.551603 -1.24092 0.182014 0
M  V30 5 C 1.74069 -0.545838 0.22273 0
M  V30 6 N 2.99926 -1.18271 0.403527 0
M  V30 7 N 1.67417 0.797829 0.0817666 0
M  V30 8 C 0.525526 1.4512 -0.090454 0
M  V30 9 N 0.528622 2.85537 -0.23102 0
M  V30 10 N -0.613518 0.740877 -0.124993 0
M  V30 11 H -3.78361 -0.898896 0.659119 0
M  V30 12 H -3.07838 0.33736 -0.467689 0
M  V30 13 H -3.58844 -1.27388 -1.07172 0
M  V30 14 H 0.611793 -2.31222 0.295071 0
M  V30 15 H 3.099 -2.12373 0.81778 0
M  V30 16 H 3.86403 -0.684813 0.107655 0
M  V30 17 H 0.368256 3.2895 -1.1499 0
M  V30 18 H 0.694012 3.44209 0.600721 0
M  V30 END ATOM
M  V30 BEGIN BOND
M  V30 1 1 1 2
M  V30 2 1 2 3
M  V30 3 2 3 4
M  V30 4 1 4 5
M  V30 5 1 5 6
M  V30 6 2 5 7
M  V30 7 1 7 8
M  V30 8 1 8 9
M  V30 9 2 8 10
M  V30 10 1 10 3
M  V30 11 1 1 11
M  V30 12 1 1 12
M  V30 13 1 1 13
M  V30 14 1 4 14
M  V30 15 1 6 15
M  V30 16 1 6 16
M  V30 17 1 9 17
M  V30 18 1 9 18
M  V30 END BOND
M  V30 END CTAB
M  END
