
     RDKit          3D

  0  0  0  0  0  0  0  0  0  0999 V3000
M  V30 BEGIN CTAB
M  V30 COUNTS 34 35 0 0 0
M  V30 BEGIN ATOM
M  V30 1 N 4.71249 1.6671 -0.884796 0
M  V30 2 C 4.02735 0.508142 -0.440019 0
M  V30 3 C 4.56201 -0.761481 -0.509339 0
M  V30 4 C 3.86827 -1.88519 -0.065295 0
M  V30 5 C 2.58715 -1.71538 0.46784 0
M  V30 6 C 2.03664 -0.455693 0.545288 0
M  V30 7 C 2.76282 0.623158 0.0929328 0
M  V30 8 C 0.697163 -0.218008 1.0951 0
M  V30 9 N -0.356125 -0.276091 0.126521 0
M  V30 10 C -1.60903 -0.0307501 0.771944 0
M  V30 11 C -2.73157 -0.0886576 -0.236308 0
M  V30 12 N -2.84186 -1.35255 -0.899165 0
M  V30 13 C -4.03703 0.40926 0.31823 0
M  V30 14 C -4.22012 1.19354 -0.983093 0
M  V30 15 C -2.69949 1.11842 -1.14455 0
M  V30 16 H 5.60609 1.91561 -0.407796 0
M  V30 17 H 4.38813 2.28875 -1.65372 0
M  V30 18 H 5.54798 -0.888592 -0.920108 0
M  V30 19 H 4.34799 -2.83356 -0.151881 0
M  V30 20 H 2.04974 -2.59079 0.812444 0
M  V30 21 H 2.33942 1.61736 0.149242 0
M  V30 22 H 0.678448 0.798049 1.55958 0
M  V30 23 H 0.549411 -0.958105 1.93188 0
M  V30 24 H -0.326569 -1.08473 -0.499934 0
M  V30 25 H -1.58181 0.996716 1.19929 0
M  V30 26 H -1.81675 -0.710498 1.61133 0
M  V30 27 H -2.12909 -2.0395 -0.518541 0
M  V30 28 H -3.78568 -1.75052 -0.70013 0
M  V30 29 H -4.80409 -0.353288 0.460222 0
M  V30 30 H -3.8925 1.10473 1.17422 0
M  V30 31 H -4.77012 0.607172 -1.75936 0
M  V30 32 H -4.57458 2.21621 -0.86371 0
M  V30 33 H -2.23024 1.98818 -0.662765 0
M  V30 34 H -2.35444 0.940982 -2.1712 0
M  V30 END ATOM
M  V30 BEGIN BOND
M  V30 1 1 1 2
M  V30 2 2 2 3
M  V30 3 1 3 4
M  V30 4 2 4 5
M  V30 5 1 5 6
M  V30 6 2 6 7
M  V30 7 1 6 8
M  V30 8 1 8 9
M  V30 9 1 9 10
M  V30 10 1 10 11
M  V30 11 1 11 12
M  V30 12 1 11 13
M  V30 13 1 13 14
M  V30 14 1 14 15
M  V30 15 1 7 2
M  V30 16 1 15 11
M  V30 17 1 1 16
M  V30 18 1 1 17
M  V30 19 1 3 18
M  V30 20 1 4 19
M  V30 21 1 5 20
M  V30 22 1 7 21
M  V30 23 1 8 22
M  V30 24 1 8 23
M  V30 25 1 9 24
M  V30 26 1 10 25
M  V30 27 1 10 26
M  V30 28 1 12 27
M  V30 29 1 12 28
M  V30 30 1 13 29
M  V30 31 1 13 30
M  V30 32 1 14 31
M  V30 33 1 14 32
M  V30 34 1 15 33
M  V30 35 1 15 34
M  V30 END BOND
M  V30 END CTAB
M  END
