
     RDKit          3D

  0  0  0  0  0  0  0  0  0  0999 V3000
M  V30 BEGIN CTAB
M  V30 COUNTS 36 36 0 0 0
M  V30 BEGIN ATOM
M  V30 1 N 4.79241 0.629397 -0.0186304 0
M  V30 2 C 3.3793 0.533865 0.204418 0
M  V30 3 C 2.69889 -0.160101 -0.943124 0
M  V30 4 C 1.22282 -0.293992 -0.774647 0 CFG=1
M  V30 5 C 0.943285 -1.08383 0.45783 0
M  V30 6 C 0.422816 -0.291408 1.61588 0
M  V30 7 C -1.10046 -0.215926 1.46155 0
M  V30 8 N -1.38395 -0.266252 0.0743255 0
M  V30 9 C -0.985133 0.825092 -0.728167 0
M  V30 10 C 0.498834 1.02531 -0.851958 0
M  V30 11 C -2.63011 -0.828991 -0.299484 0
M  V30 12 C -3.85807 -0.0774661 0.0598501 0
M  V30 13 N -3.95701 1.2443 -0.502897 0
M  V30 14 H 5.15438 -0.0615654 -0.657205 0
M  V30 15 H 5.34378 0.665045 0.830813 0
M  V30 16 H 3.26652 -0.0452637 1.13708 0
M  V30 17 H 2.92488 1.53438 0.355789 0
M  V30 18 H 3.12444 -1.19102 -0.995682 0
M  V30 19 H 2.97284 0.338063 -1.89061 0
M  V30 20 H 0.86333 -0.879644 -1.67394 0
M  V30 21 H 0.171735 -1.87593 0.224387 0
M  V30 22 H 1.84267 -1.67264 0.775604 0
M  V30 23 H 0.678377 -0.86436 2.54248 0
M  V30 24 H 0.848821 0.701029 1.73239 0
M  V30 25 H -1.47455 -1.15013 1.928 0
M  V30 26 H -1.4523 0.695337 1.97655 0
M  V30 27 H -1.41476 0.687859 -1.74426 0
M  V30 28 H -1.44189 1.78357 -0.340594 0
M  V30 29 H 0.709825 1.44939 -1.8601 0
M  V30 30 H 0.874943 1.77649 -0.126875 0
M  V30 31 H -2.70685 -1.84506 0.146244 0
M  V30 32 H -2.64391 -0.993473 -1.40347 0
M  V30 33 H -4.03016 0.0225173 1.15003 0
M  V30 34 H -4.73016 -0.690082 -0.310673 0
M  V30 35 H -4.76066 1.72745 -0.0242165 0
M  V30 36 H -4.16493 1.1831 -1.5267 0
M  V30 END ATOM
M  V30 BEGIN BOND
M  V30 1 1 1 2
M  V30 2 1 2 3
M  V30 3 1 3 4
M  V30 4 1 4 5
M  V30 5 1 5 6
M  V30 6 1 6 7
M  V30 7 1 7 8
M  V30 8 1 8 9
M  V30 9 1 9 10
M  V30 10 1 8 11
M  V30 11 1 11 12
M  V30 12 1 12 13
M  V30 13 1 10 4
M  V30 14 1 1 14
M  V30 15 1 1 15
M  V30 16 1 2 16
M  V30 17 1 2 17
M  V30 18 1 3 18
M  V30 19 1 3 19
M  V30 20 1 4 20 CFG=3
M  V30 21 1 5 21
M  V30 22 1 5 22
M  V30 23 1 6 23
M  V30 24 1 6 24
M  V30 25 1 7 25
M  V30 26 1 7 26
M  V30 27 1 9 27
M  V30 28 1 9 28
M  V30 29 1 10 29
M  V30 30 1 10 30
M  V30 31 1 11 31
M  V30 32 1 11 32
M  V30 33 1 12 33
M  V30 34 1 12 34
M  V30 35 1 13 35
M  V30 36 1 13 36
M  V30 END BOND
M  V30 END CTAB
M  END
