
     RDKit          3D

  0  0  0  0  0  0  0  0  0  0999 V3000
M  V30 BEGIN CTAB
M  V30 COUNTS 61 65 0 0 0
M  V30 BEGIN ATOM
M  V30 1 C 10.4746 0.100119 -0.795347 0
M  V30 2 O 9.6673 0.159711 0.340111 0
M  V30 3 C 8.304 -0.153589 0.325368 0
M  V30 4 C 7.64214 -0.549106 -0.817985 0
M  V30 5 C 6.29671 -0.852584 -0.805861 0
M  V30 6 C 5.55481 -0.771286 0.361436 0
M  V30 7 C 6.21928 -0.375582 1.50289 0
M  V30 8 C 7.57314 -0.0701576 1.4909 0
M  V30 9 C 4.11813 -1.09447 0.378493 0
M  V30 10 C 3.26282 0.125318 0.0971495 0
M  V30 11 N 1.84468 -0.229441 0.121367 0
M  V30 12 C 0.849229 0.729542 -0.111003 0
M  V30 13 O 1.2392 1.91174 -0.341571 0
M  V30 14 C -0.579986 0.460576 -0.104873 0
M  V30 15 C -1.22176 -0.732205 0.119189 0
M  V30 16 N -0.834847 -1.98391 0.390967 0
M  V30 17 C -1.70722 -2.98516 0.56752 0
M  V30 18 C -1.29831 -4.26584 0.84604 0
M  V30 19 C -2.21263 -5.30611 1.0292 0
M  V30 20 C -3.53915 -5.0368 0.927761 0
M  V30 21 C -3.9885 -3.77957 0.652683 0
M  V30 22 C -3.05983 -2.74483 0.47116 0
M  V30 23 N -3.46385 -1.49754 0.199702 0
M  V30 24 C -2.57409 -0.51093 0.0267725 0
M  V30 25 N -2.78614 0.810613 -0.253377 0
M  V30 26 C -1.59704 1.37989 -0.329805 0
M  V30 27 N -1.35927 2.7496 -0.604355 0
M  V30 28 C -4.08979 1.37387 -0.414706 0
M  V30 29 C -4.56651 1.84775 -1.61761 0
M  V30 30 C -5.85585 2.38832 -1.70662 0
M  V30 31 C -6.68111 2.46302 -0.605185 0
M  V30 32 C -6.20226 1.98987 0.590932 0
M  V30 33 C -4.91484 1.44888 0.685008 0
M  V30 34 S -8.29625 3.14979 -0.757656 0
M  V30 35 O -9.24961 2.43762 0.156644 0
M  V30 36 O -8.75699 2.95182 -2.17851 0
M  V30 37 N -8.26782 4.84997 -0.468178 0
M  V30 38 H 10.2321 0.967642 -1.44734 0
M  V30 39 H 10.2849 -0.805407 -1.41838 0
M  V30 40 H 11.5227 0.201247 -0.498564 0
M  V30 41 H 8.22813 -0.612017 -1.7339 0
M  V30 42 H 5.77702 -1.16327 -1.70421 0
M  V30 43 H 5.62831 -0.314024 2.41778 0
M  V30 44 H 8.05988 0.236681 2.40628 0
M  V30 45 H 3.82625 -1.52546 1.3525 0
M  V30 46 H 3.9489 -1.88548 -0.383741 0
M  V30 47 H 3.55433 0.538676 -0.882411 0
M  V30 48 H 3.41986 0.847046 0.922705 0
M  V30 49 H 1.56578 -1.21597 0.315381 0
M  V30 50 H -0.223733 -4.43501 0.918103 0
M  V30 51 H -1.84622 -6.30002 1.24705 0
M  V30 52 H -4.26684 -5.82557 1.06545 0
M  V30 53 H -5.03862 -3.5116 0.561068 0
M  V30 54 H -1.0758 3.43065 0.122676 0
M  V30 55 H -1.47576 3.0814 -1.58061 0
M  V30 56 H -3.92375 1.79268 -2.48875 0
M  V30 57 H -6.24118 2.76462 -2.65018 0
M  V30 58 H -6.83554 2.03896 1.47125 0
M  V30 59 H -4.54418 1.07745 1.63302 0
M  V30 60 H -9.10453 5.0802 0.103047 0
M  V30 61 H -7.41445 5.14767 0.0514658 0
M  V30 END ATOM
M  V30 BEGIN BOND
M  V30 1 1 1 2
M  V30 2 1 2 3
M  V30 3 2 3 4
M  V30 4 1 4 5
M  V30 5 2 5 6
M  V30 6 1 6 7
M  V30 7 2 7 8
M  V30 8 1 6 9
M  V30 9 1 9 10
M  V30 10 1 10 11
M  V30 11 1 11 12
M  V30 12 2 12 13
M  V30 13 1 12 14
M  V30 14 1 14 15
M  V30 15 2 15 16
M  V30 16 1 16 17
M  V30 17 2 17 18
M  V30 18 1 18 19
M  V30 19 2 19 20
M  V30 20 1 20 21
M  V30 21 2 21 22
M  V30 22 1 22 23
M  V30 23 2 23 24
M  V30 24 1 24 25
M  V30 25 1 25 26
M  V30 26 1 26 27
M  V30 27 1 25 28
M  V30 28 2 28 29
M  V30 29 1 29 30
M  V30 30 2 30 31
M  V30 31 1 31 32
M  V30 32 2 32 33
M  V30 33 1 31 34
M  V30 34 2 34 35
M  V30 35 2 34 36
M  V30 36 1 34 37
M  V30 37 1 8 3
M  V30 38 2 26 14
M  V30 39 1 33 28
M  V30 40 1 24 15
M  V30 41 1 22 17
M  V30 42 1 1 38
M  V30 43 1 1 39
M  V30 44 1 1 40
M  V30 45 1 4 41
M  V30 46 1 5 42
M  V30 47 1 7 43
M  V30 48 1 8 44
M  V30 49 1 9 45
M  V30 50 1 9 46
M  V30 51 1 10 47
M  V30 52 1 10 48
M  V30 53 1 11 49
M  V30 54 1 18 50
M  V30 55 1 19 51
M  V30 56 1 20 52
M  V30 57 1 21 53
M  V30 58 1 27 54
M  V30 59 1 27 55
M  V30 60 1 29 56
M  V30 61 1 30 57
M  V30 62 1 32 58
M  V30 63 1 33 59
M  V30 64 1 37 60
M  V30 65 1 37 61
M  V30 END BOND
M  V30 END CTAB
M  END
