
     RDKit          3D

  0  0  0  0  0  0  0  0  0  0999 V3000
M  V30 BEGIN CTAB
M  V30 COUNTS 25 25 0 0 0
M  V30 BEGIN ATOM
M  V30 1 C 3.0927 -0.91531 -0.737803 0
M  V30 2 C 2.57886 0.483905 -0.389171 0
M  V30 3 C 3.58012 1.43828 -0.79859 0
M  V30 4 N 4.3833 2.19229 -1.14399 0
M  V30 5 C 2.34322 0.504257 1.12765 0
M  V30 6 S 1.1233 -0.765645 1.48517 0
M  V30 7 C -0.473161 -0.40879 0.82178 0
M  V30 8 N -1.45368 -1.29996 1.03136 0
M  V30 9 C -2.71595 -1.18422 0.60379 0
M  V30 10 N -3.67626 -2.18394 0.879692 0
M  V30 11 C -3.03108 -0.0387625 -0.119158 0
M  V30 12 C -2.0412 0.890497 -0.347026 0
M  V30 13 N -0.784668 0.689709 0.125793 0
M  V30 14 N -2.3975 2.04663 -1.08683 0
M  V30 15 H 3.38889 -0.968758 -1.7998 0
M  V30 16 H 2.32133 -1.68812 -0.549215 0
M  V30 17 H 3.94104 -1.13607 -0.0575389 0
M  V30 18 H 1.59964 0.654532 -0.853934 0
M  V30 19 H 3.30263 0.218195 1.6029 0
M  V30 20 H 2.05129 1.51007 1.44715 0
M  V30 21 H -3.72677 -3.00491 0.263252 0
M  V30 22 H -4.30608 -2.07892 1.68459 0
M  V30 23 H -4.04941 0.0731565 -0.473126 0
M  V30 24 H -2.0113 2.96021 -0.812223 0
M  V30 25 H -3.03927 2.01168 -1.9047 0
M  V30 END ATOM
M  V30 BEGIN BOND
M  V30 1 1 1 2
M  V30 2 1 2 3
M  V30 3 3 3 4
M  V30 4 1 2 5
M  V30 5 1 5 6
M  V30 6 1 6 7
M  V30 7 2 7 8
M  V30 8 1 8 9
M  V30 9 1 9 10
M  V30 10 2 9 11
M  V30 11 1 11 12
M  V30 12 2 12 13
M  V30 13 1 12 14
M  V30 14 1 13 7
M  V30 15 1 1 15
M  V30 16 1 1 16
M  V30 17 1 1 17
M  V30 18 1 2 18
M  V30 19 1 5 19
M  V30 20 1 5 20
M  V30 21 1 10 21
M  V30 22 1 10 22
M  V30 23 1 11 23
M  V30 24 1 14 24
M  V30 25 1 14 25
M  V30 END BOND
M  V30 END CTAB
M  END
