
     RDKit          3D

  0  0  0  0  0  0  0  0  0  0999 V3000
M  V30 BEGIN CTAB
M  V30 COUNTS 40 41 0 0 0
M  V30 BEGIN ATOM
M  V30 1 C -3.45978 -2.62604 0.426905 0
M  V30 2 C -2.93159 -1.20504 0.528012 0
M  V30 3 C -1.92837 -1.01375 -0.559849 0
M  V30 4 N -1.29181 0.233742 -0.669962 0
M  V30 5 C -2.16287 1.30408 -1.11494 0
M  V30 6 C -1.33636 2.55805 -0.787711 0
M  V30 7 C -0.841427 2.18705 0.596187 0
M  V30 8 C -0.546535 0.725949 0.445206 0
M  V30 9 C 0.886196 0.414281 0.243644 0
M  V30 10 C 1.83018 1.36632 -0.0836187 0
M  V30 11 C 3.17471 1.08765 -0.252197 0
M  V30 12 C 3.60352 -0.208638 -0.0871691 0
M  V30 13 C 2.71557 -1.19385 0.237137 0
M  V30 14 C 1.36111 -0.876756 0.401295 0
M  V30 15 N 3.13582 -2.54269 0.415663 0
M  V30 16 C 5.03561 -0.603195 -0.249653 0
M  V30 17 N -1.99591 2.33452 1.50036 0
M  V30 18 H -4.37452 -2.70531 -0.156698 0
M  V30 19 H -2.68443 -3.24408 -0.102277 0
M  V30 20 H -3.57162 -3.09387 1.43362 0
M  V30 21 H -3.78201 -0.523212 0.501143 0
M  V30 22 H -2.47629 -1.12929 1.555 0
M  V30 23 H -2.52115 -1.15352 -1.52505 0
M  V30 24 H -1.20944 -1.84383 -0.541694 0
M  V30 25 H -2.26803 1.29981 -2.21546 0
M  V30 26 H -3.14173 1.3112 -0.639693 0
M  V30 27 H -1.96588 3.44065 -0.703264 0
M  V30 28 H -0.541071 2.70986 -1.51363 0
M  V30 29 H -0.0314595 2.80374 0.975352 0
M  V30 30 H -0.82257 0.246695 1.41122 0
M  V30 31 H 1.50182 2.37445 -0.217665 0
M  V30 32 H 3.88275 1.84583 -0.505248 0
M  V30 33 H 0.735775 -1.69248 0.666478 0
M  V30 34 H 3.97073 -2.87571 -0.122605 0
M  V30 35 H 2.58864 -3.12807 1.07437 0
M  V30 36 H 5.69984 0.253246 -0.358504 0
M  V30 37 H 5.37695 -1.18701 0.635314 0
M  V30 38 H 5.06361 -1.27528 -1.12991 0
M  V30 39 H -2.87409 2.53671 0.969507 0
M  V30 40 H -1.80386 3.08777 2.19993 0
M  V30 END ATOM
M  V30 BEGIN BOND
M  V30 1 1 1 2
M  V30 2 1 2 3
M  V30 3 1 3 4
M  V30 4 1 4 5
M  V30 5 1 5 6
M  V30 6 1 6 7
M  V30 7 1 7 8
M  V30 8 1 8 9
M  V30 9 2 9 10
M  V30 10 1 10 11
M  V30 11 2 11 12
M  V30 12 1 12 13
M  V30 13 2 13 14
M  V30 14 1 13 15
M  V30 15 1 12 16
M  V30 16 1 7 17
M  V30 17 1 8 4
M  V30 18 1 14 9
M  V30 19 1 1 18
M  V30 20 1 1 19
M  V30 21 1 1 20
M  V30 22 1 2 21
M  V30 23 1 2 22
M  V30 24 1 3 23
M  V30 25 1 3 24
M  V30 26 1 5 25
M  V30 27 1 5 26
M  V30 28 1 6 27
M  V30 29 1 6 28
M  V30 30 1 7 29
M  V30 31 1 8 30
M  V30 32 1 10 31
M  V30 33 1 11 32
M  V30 34 1 14 33
M  V30 35 1 15 34
M  V30 36 1 15 35
M  V30 37 1 16 36
M  V30 38 1 16 37
M  V30 39 1 16 38
M  V30 40 1 17 39
M  V30 41 1 17 40
M  V30 END BOND
M  V30 END CTAB
M  END
