
     RDKit          3D

  0  0  0  0  0  0  0  0  0  0999 V3000
M  V30 BEGIN CTAB
M  V30 COUNTS 14 13 0 0 0
M  V30 BEGIN ATOM
M  V30 1 N 2.95508 -0.457959 0.657962 0
M  V30 2 O 1.71043 -0.849239 1.05863 0
M  V30 3 C 0.815276 -0.0770593 0.331876 0
M  V30 4 C -0.586895 -0.364795 0.635872 0
M  V30 5 O -0.861671 -1.2392 1.48345 0
M  V30 6 N -1.59665 0.352943 -0.0362106 0
M  V30 7 N -2.93125 0.0527162 0.278552 0
M  V30 8 H 2.9978 -0.338795 -0.387053 0
M  V30 9 H 3.27025 0.390241 1.17279 0
M  V30 10 H 0.977203 -0.315573 -0.75558 0
M  V30 11 H 1.09295 0.983471 0.463136 0
M  V30 12 H -1.35055 1.08895 -0.749915 0
M  V30 13 H -2.9461 -0.0886513 1.31898 0
M  V30 14 H -3.54586 0.86295 -0.0139607 0
M  V30 END ATOM
M  V30 BEGIN BOND
M  V30 1 1 1 2
M  V30 2 1 2 3
M  V30 3 1 3 4
M  V30 4 2 4 5
M  V30 5 1 4 6
M  V30 6 1 6 7
M  V30 7 1 1 8
M  V30 8 1 1 9
M  V30 9 1 3 10
M  V30 10 1 3 11
M  V30 11 1 6 12
M  V30 12 1 7 13
M  V30 13 1 7 14
M  V30 END BOND
M  V30 END CTAB
M  END
