
     RDKit          3D

  0  0  0  0  0  0  0  0  0  0999 V3000
M  V30 BEGIN CTAB
M  V30 COUNTS 36 38 0 0 0
M  V30 BEGIN ATOM
M  V30 1 N 7.93027 -0.658844 0.275729 0
M  V30 2 C 6.83641 -0.294334 0.17101 0
M  V30 3 C 5.45854 0.148212 0.0318643 0
M  V30 4 C 4.44768 -0.672772 0.417564 0
M  V30 5 C 3.10622 -0.265379 0.292084 0
M  V30 6 C 2.94017 0.982511 -0.23329 0
M  V30 7 N 3.98078 1.79104 -0.614751 0
M  V30 8 C 5.26333 1.40616 -0.49675 0
M  V30 9 N 6.36942 2.20872 -0.878002 0
M  V30 10 S 1.23709 1.16161 -0.248623 0
M  V30 11 C 0.801549 -0.3484 0.409872 0
M  V30 12 C 2.00601 -0.956393 0.625651 0
M  V30 13 N 2.00854 -2.30057 1.19786 0
M  V30 14 C -0.570246 -0.877078 0.684043 0
M  V30 15 O -0.684396 -2.02254 1.17581 0
M  V30 16 N -1.62895 -0.0251505 0.35921 0
M  V30 17 C -3.00723 -0.205158 0.48516 0
M  V30 18 C -3.53348 -1.36215 0.996322 0
M  V30 19 C -4.92556 -1.51255 1.11019 0
M  V30 20 C -5.77039 -0.515173 0.716066 0
M  V30 21 C -5.24057 0.654603 0.199336 0
M  V30 22 C -3.88778 0.800848 0.0886434 0
M  V30 23 C -6.17296 1.72624 -0.223257 0
M  V30 24 H 4.72549 -1.63744 0.818355 0
M  V30 25 H 6.96432 1.98385 -1.72324 0
M  V30 26 H 6.57963 3.04354 -0.285141 0
M  V30 27 H 1.76361 -3.13026 0.635029 0
M  V30 28 H 2.26062 -2.45126 2.19778 0
M  V30 29 H -1.3316 0.925866 -0.0563193 0
M  V30 30 H -2.94395 -2.20678 1.33459 0
M  V30 31 H -5.35915 -2.4263 1.51453 0
M  V30 32 H -6.83572 -0.666121 0.818463 0
M  V30 33 H -3.49291 1.70996 -0.312341 0
M  V30 34 H -6.70864 1.4902 -1.16259 0
M  V30 35 H -5.64944 2.69051 -0.384153 0
M  V30 36 H -6.9367 1.81079 0.596218 0
M  V30 END ATOM
M  V30 BEGIN BOND
M  V30 1 3 1 2
M  V30 2 1 2 3
M  V30 3 2 3 4
M  V30 4 1 4 5
M  V30 5 2 5 6
M  V30 6 1 6 7
M  V30 7 2 7 8
M  V30 8 1 8 9
M  V30 9 1 6 10
M  V30 10 1 10 11
M  V30 11 2 11 12
M  V30 12 1 12 13
M  V30 13 1 11 14
M  V30 14 2 14 15
M  V30 15 1 14 16
M  V30 16 1 16 17
M  V30 17 2 17 18
M  V30 18 1 18 19
M  V30 19 2 19 20
M  V30 20 1 20 21
M  V30 21 2 21 22
M  V30 22 1 21 23
M  V30 23 1 8 3
M  V30 24 1 22 17
M  V30 25 1 12 5
M  V30 26 1 4 24
M  V30 27 1 9 25
M  V30 28 1 9 26
M  V30 29 1 13 27
M  V30 30 1 13 28
M  V30 31 1 16 29
M  V30 32 1 18 30
M  V30 33 1 19 31
M  V30 34 1 20 32
M  V30 35 1 22 33
M  V30 36 1 23 34
M  V30 37 1 23 35
M  V30 38 1 23 36
M  V30 END BOND
M  V30 END CTAB
M  END
