
     RDKit          3D

  0  0  0  0  0  0  0  0  0  0999 V3000
M  V30 BEGIN CTAB
M  V30 COUNTS 27 28 0 0 0
M  V30 BEGIN ATOM
M  V30 1 N -4.06814 -1.9411 0.608086 0
M  V30 2 C -3.0045 -1.11436 0.15973 0
M  V30 3 C -1.70636 -1.58987 0.0757082 0
M  V30 4 C -0.680609 -0.781241 -0.360151 0
M  V30 5 N 0.659011 -1.2739 -0.452163 0
M  V30 6 C 1.78078 -0.485805 -0.888252 0
M  V30 7 C 2.06887 0.694474 0.0288933 0
M  V30 8 C 3.25076 1.51313 -0.444833 0
M  V30 9 S 4.31052 0.0906235 -0.0752949 0
M  V30 10 C 2.98096 0.187744 1.15649 0
M  V30 11 N -0.982177 0.46552 -0.695108 0
M  V30 12 C -2.21893 0.983673 -0.635377 0
M  V30 13 N -3.19858 0.171484 -0.206659 0
M  V30 14 N -2.4439 2.33128 -1.01551 0
M  V30 15 H -4.32031 -2.03084 1.60704 0
M  V30 16 H -4.60174 -2.46771 -0.106751 0
M  V30 17 H -1.48758 -2.60309 0.352629 0
M  V30 18 H 0.818974 -2.27143 -0.181938 0
M  V30 19 H 1.61367 -0.097078 -1.93281 0
M  V30 20 H 2.66254 -1.14695 -0.981779 0
M  V30 21 H 1.20641 1.26028 0.378526 0
M  V30 22 H 3.45337 2.33816 0.268515 0
M  V30 23 H 3.22259 1.81962 -1.50721 0
M  V30 24 H 2.65667 -0.759366 1.5822 0
M  V30 25 H 3.09246 1.03776 1.88527 0
M  V30 26 H -3.38449 2.63397 -1.32329 0
M  V30 27 H -1.68027 3.03503 -0.993869 0
M  V30 END ATOM
M  V30 BEGIN BOND
M  V30 1 1 1 2
M  V30 2 2 2 3
M  V30 3 1 3 4
M  V30 4 1 4 5
M  V30 5 1 5 6
M  V30 6 1 6 7
M  V30 7 1 7 8
M  V30 8 1 8 9
M  V30 9 1 9 10
M  V30 10 2 4 11
M  V30 11 1 11 12
M  V30 12 2 12 13
M  V30 13 1 12 14
M  V30 14 1 13 2
M  V30 15 1 10 7
M  V30 16 1 1 15
M  V30 17 1 1 16
M  V30 18 1 3 17
M  V30 19 1 5 18
M  V30 20 1 6 19
M  V30 21 1 6 20
M  V30 22 1 7 21
M  V30 23 1 8 22
M  V30 24 1 8 23
M  V30 25 1 10 24
M  V30 26 1 10 25
M  V30 27 1 14 26
M  V30 28 1 14 27
M  V30 END BOND
M  V30 END CTAB
M  END
