
     RDKit          3D

  0  0  0  0  0  0  0  0  0  0999 V3000
M  V30 BEGIN CTAB
M  V30 COUNTS 56 58 0 0 0
M  V30 BEGIN ATOM
M  V30 1 O -4.92964 3.20375 1.05273 0 CHG=-1
M  V30 2 N -5.94586 2.4738 0.498306 0 CHG=1
M  V30 3 O -6.64079 2.94815 -0.445576 0
M  V30 4 C -6.24111 1.151 0.980582 0
M  V30 5 C -7.55129 0.686593 0.843839 0
M  V30 6 C -7.90003 -0.572541 1.28253 0
M  V30 7 C -6.93522 -1.37826 1.86367 0
M  V30 8 C -5.64013 -0.908393 1.99495 0
M  V30 9 C -5.28538 0.352106 1.55721 0
M  V30 10 N -3.96892 0.814065 1.68806 0
M  V30 11 N -3.06683 0.498995 0.661761 0
M  V30 12 C -1.82182 0.876117 0.757052 0
M  V30 13 C -0.92975 0.518913 -0.344902 0
M  V30 14 C -1.36975 -0.192186 -1.43406 0
M  V30 15 C -0.600018 -0.560634 -2.5112 0
M  V30 16 C 0.73491 -0.166074 -2.46968 0
M  V30 17 C 1.23824 0.556132 -1.39286 0
M  V30 18 C 0.419493 0.895506 -0.343099 0
M  V30 19 C 2.64773 0.971557 -1.36849 0
M  V30 20 N 3.43789 0.68815 -2.33024 0
M  V30 21 N 4.74896 1.04791 -2.35749 0
M  V30 22 C 5.78306 0.502226 -1.57013 0
M  V30 23 C 6.22502 -0.806835 -1.77387 0
M  V30 24 C 7.2596 -1.34062 -1.01416 0
M  V30 25 C 7.87449 -0.573421 -0.0333654 0
M  V30 26 C 7.44224 0.702922 0.165366 0
M  V30 27 C 6.39446 1.24409 -0.603629 0
M  V30 28 N 5.9944 2.57771 -0.34725 0 CHG=1
M  V30 29 O 6.17987 3.03769 0.81776 0
M  V30 30 O 5.42345 3.41485 -1.25279 0 CHG=-1
M  V30 31 S 9.18726 -1.25476 0.92528 0
M  V30 32 O 9.95434 -2.22776 0.101361 0
M  V30 33 O 10.1063 -0.160495 1.42501 0
M  V30 34 N 8.47373 -1.99301 2.31357 0
M  V30 35 S -9.53598 -1.2052 1.13765 0
M  V30 36 O -9.85531 -2.08332 2.31441 0
M  V30 37 O -10.4594 -0.00786225 1.18834 0
M  V30 38 N -9.76907 -2.0023 -0.351445 0
M  V30 39 H -8.33179 1.28603 0.395932 0
M  V30 40 H -7.19694 -2.38248 2.218 0
M  V30 41 H -4.88365 -1.53106 2.44687 0
M  V30 42 H -3.62544 1.37097 2.49074 0
M  V30 43 H -1.53685 1.41545 1.62445 0
M  V30 44 H -2.42382 -0.492375 -1.4444 0
M  V30 45 H -0.987289 -1.12003 -3.34518 0
M  V30 46 H 1.36424 -0.437055 -3.29572 0
M  V30 47 H 0.745933 1.45117 0.520116 0
M  V30 48 H 3.02901 1.52243 -0.533168 0
M  V30 49 H 5.0118 1.81822 -3.05227 0
M  V30 50 H 5.72618 -1.37083 -2.53819 0
M  V30 51 H 7.59963 -2.35475 -1.16902 0
M  V30 52 H 7.91279 1.29472 0.91637 0
M  V30 53 H 7.53853 -2.35655 2.02704 0
M  V30 54 H 8.29123 -1.22113 2.99844 0
M  V30 55 H -8.91746 -2.21444 -0.888794 0
M  V30 56 H -10.3951 -1.43194 -0.996394 0
M  V30 END ATOM
M  V30 BEGIN BOND
M  V30 1 1 1 2
M  V30 2 2 2 3
M  V30 3 1 2 4
M  V30 4 2 4 5
M  V30 5 1 5 6
M  V30 6 2 6 7
M  V30 7 1 7 8
M  V30 8 2 8 9
M  V30 9 1 9 10
M  V30 10 1 10 11
M  V30 11 2 11 12
M  V30 12 1 12 13
M  V30 13 2 13 14
M  V30 14 1 14 15
M  V30 15 2 15 16
M  V30 16 1 16 17
M  V30 17 2 17 18
M  V30 18 1 17 19
M  V30 19 2 19 20
M  V30 20 1 20 21
M  V30 21 1 21 22
M  V30 22 2 22 23
M  V30 23 1 23 24
M  V30 24 2 24 25
M  V30 25 1 25 26
M  V30 26 2 26 27
M  V30 27 1 27 28
M  V30 28 2 28 29
M  V30 29 1 28 30
M  V30 30 1 25 31
M  V30 31 2 31 32
M  V30 32 2 31 33
M  V30 33 1 31 34
M  V30 34 1 6 35
M  V30 35 2 35 36
M  V30 36 2 35 37
M  V30 37 1 35 38
M  V30 38 1 9 4
M  V30 39 1 18 13
M  V30 40 1 27 22
M  V30 41 1 5 39
M  V30 42 1 7 40
M  V30 43 1 8 41
M  V30 44 1 10 42
M  V30 45 1 12 43
M  V30 46 1 14 44
M  V30 47 1 15 45
M  V30 48 1 16 46
M  V30 49 1 18 47
M  V30 50 1 19 48
M  V30 51 1 21 49
M  V30 52 1 23 50
M  V30 53 1 24 51
M  V30 54 1 26 52
M  V30 55 1 34 53
M  V30 56 1 34 54
M  V30 57 1 38 55
M  V30 58 1 38 56
M  V30 END BOND
M  V30 END CTAB
M  END
