
     RDKit          3D

  0  0  0  0  0  0  0  0  0  0999 V3000
M  V30 BEGIN CTAB
M  V30 COUNTS 32 33 0 0 0
M  V30 BEGIN ATOM
M  V30 1 N 2.75413 0.308926 -3.43339 0
M  V30 2 C 2.78574 0.101693 -2.03341 0
M  V30 3 N 1.71548 0.386835 -1.27374 0
M  V30 4 C 1.693 0.207804 0.0655671 0
M  V30 5 C 2.81259 -0.289247 0.692535 0
M  V30 6 N 2.56481 -0.382835 2.00993 0
M  V30 7 C 1.29994 0.0562436 2.17753 0
M  V30 8 N 0.766238 0.414715 1.00946 0
M  V30 9 C -0.5544 0.931667 0.766001 0
M  V30 10 O -1.4623 -0.0962173 0.511017 0
M  V30 11 C -2.72836 0.381143 0.276443 0
M  V30 12 C -3.19448 0.0635487 -1.14249 0
M  V30 13 O -4.46101 0.546433 -1.36267 0
M  V30 14 C -3.73942 -0.106495 1.29049 0
M  V30 15 O -3.8324 -1.50138 1.29138 0
M  V30 16 C 3.91023 -0.582087 -0.0836664 0
M  V30 17 N 5.0838 -1.09946 0.547612 0
M  V30 18 N 3.89195 -0.389645 -1.41231 0
M  V30 19 H 2.61615 -0.479993 -4.08159 0
M  V30 20 H 2.87132 1.26395 -3.80229 0
M  V30 21 H 0.833145 0.0880348 3.17104 0
M  V30 22 H -0.569867 1.5927 -0.129749 0
M  V30 23 H -0.854058 1.51566 1.65807 0
M  V30 24 H -2.70258 1.48787 0.35192 0
M  V30 25 H -3.10561 -1.03295 -1.34705 0
M  V30 26 H -2.49973 0.564852 -1.8463 0
M  V30 27 H -5.17273 -0.0566322 -1.04532 0
M  V30 28 H -4.73958 0.266776 0.986928 0
M  V30 29 H -3.43987 0.284781 2.28154 0
M  V30 30 H -3.58433 -1.88633 2.15918 0
M  V30 31 H 5.05466 -1.64387 1.43787 0
M  V30 32 H 5.98755 -0.916478 0.0885667 0
M  V30 END ATOM
M  V30 BEGIN BOND
M  V30 1 1 1 2
M  V30 2 2 2 3
M  V30 3 1 3 4
M  V30 4 2 4 5
M  V30 5 1 5 6
M  V30 6 2 6 7
M  V30 7 1 7 8
M  V30 8 1 8 9
M  V30 9 1 9 10
M  V30 10 1 10 11
M  V30 11 1 11 12
M  V30 12 1 12 13
M  V30 13 1 11 14
M  V30 14 1 14 15
M  V30 15 1 5 16
M  V30 16 1 16 17
M  V30 17 2 16 18
M  V30 18 1 18 2
M  V30 19 1 8 4
M  V30 20 1 1 19
M  V30 21 1 1 20
M  V30 22 1 7 21
M  V30 23 1 9 22
M  V30 24 1 9 23
M  V30 25 1 11 24
M  V30 26 1 12 25
M  V30 27 1 12 26
M  V30 28 1 13 27
M  V30 29 1 14 28
M  V30 30 1 14 29
M  V30 31 1 15 30
M  V30 32 1 17 31
M  V30 33 1 17 32
M  V30 END BOND
M  V30 END CTAB
M  END
