
     RDKit          3D

  0  0  0  0  0  0  0  0  0  0999 V3000
M  V30 BEGIN CTAB
M  V30 COUNTS 52 55 0 0 0
M  V30 BEGIN ATOM
M  V30 1 N 7.47201 -2.63725 -0.503971 0
M  V30 2 C 6.35032 -1.84849 -0.855797 0
M  V30 3 N 5.70748 -2.11877 -1.921 0
M  V30 4 C 5.93706 -0.743073 -0.011238 0
M  V30 5 C 4.85757 0.0570969 -0.300558 0
M  V30 6 C 4.53914 1.08216 0.55736 0
M  V30 7 C 5.2776 1.32912 1.70489 0
M  V30 8 C 6.36417 0.536643 2.01159 0
M  V30 9 C 6.66706 -0.481785 1.14366 0
M  V30 10 N 4.75763 2.37715 2.35765 0
M  V30 11 C 3.71077 2.79969 1.65456 0
M  V30 12 N 3.55834 2.03198 0.560858 0
M  V30 13 C 2.53235 2.20486 -0.41563 0
M  V30 14 C 1.30004 1.42399 -0.0933037 0
M  V30 15 O 1.21441 0.712423 0.923413 0
M  V30 16 N 0.224334 1.52644 -0.998038 0
M  V30 17 C -1.03855 0.879157 -0.912279 0
M  V30 18 C -2.11396 1.37677 -1.67281 0
M  V30 19 C -3.32828 0.750665 -1.61244 0
M  V30 20 C -3.56386 -0.355682 -0.838694 0
M  V30 21 C -2.52661 -0.838904 -0.104295 0
M  V30 22 C -1.28912 -0.227298 -0.145053 0
M  V30 23 C -4.85746 -0.995169 -0.843873 0
M  V30 24 C -5.67635 -0.931531 0.24402 0
M  V30 25 C -6.89744 -1.59084 0.19585 0
M  V30 26 C -7.32845 -2.30652 -0.893602 0
M  V30 27 C -6.48332 -2.35499 -1.98122 0
M  V30 28 C -5.27346 -1.72249 -1.97816 0
M  V30 29 S -5.2833 -0.0424089 1.66675 0
M  V30 30 N -4.99427 1.63298 1.25122 0
M  V30 31 O -6.52549 0.0179521 2.56997 0
M  V30 32 O -4.20957 -0.584171 2.51123 0
M  V30 33 H 7.54319 -3.04797 0.4499 0
M  V30 34 H 8.26335 -2.84501 -1.15639 0
M  V30 35 H 4.88362 -1.61946 -2.27508 0
M  V30 36 H 4.24544 -0.082209 -1.1736 0
M  V30 37 H 6.96533 0.710313 2.91304 0
M  V30 38 H 7.51602 -1.12544 1.35402 0
M  V30 39 H 3.09418 3.64894 1.95817 0
M  V30 40 H 2.236 3.27213 -0.436943 0
M  V30 41 H 2.89911 1.85133 -1.3997 0
M  V30 42 H 0.324273 2.14772 -1.87186 0
M  V30 43 H -1.92164 2.244 -2.27424 0
M  V30 44 H -4.12976 1.16638 -2.21398 0
M  V30 45 H -2.6495 -1.73433 0.514642 0
M  V30 46 H -0.529749 -0.683574 0.456872 0
M  V30 47 H -7.58201 -1.56364 1.05003 0
M  V30 48 H -8.29608 -2.81505 -0.900791 0
M  V30 49 H -6.75479 -2.90582 -2.8908 0
M  V30 50 H -4.576 -1.74069 -2.82729 0
M  V30 51 H -5.61168 1.92536 0.476274 0
M  V30 52 H -5.00014 2.23729 2.08151 0
M  V30 END ATOM
M  V30 BEGIN BOND
M  V30 1 1 1 2
M  V30 2 2 2 3 CFG=2
M  V30 3 1 2 4
M  V30 4 2 4 5
M  V30 5 1 5 6
M  V30 6 2 6 7
M  V30 7 1 7 8
M  V30 8 2 8 9
M  V30 9 1 7 10
M  V30 10 2 10 11
M  V30 11 1 11 12
M  V30 12 1 12 13
M  V30 13 1 13 14
M  V30 14 2 14 15
M  V30 15 1 14 16
M  V30 16 1 16 17
M  V30 17 2 17 18
M  V30 18 1 18 19
M  V30 19 2 19 20
M  V30 20 1 20 21
M  V30 21 2 21 22
M  V30 22 1 20 23
M  V30 23 2 23 24
M  V30 24 1 24 25
M  V30 25 2 25 26
M  V30 26 1 26 27
M  V30 27 2 27 28
M  V30 28 1 24 29
M  V30 29 1 29 30
M  V30 30 2 29 31
M  V30 31 2 29 32
M  V30 32 1 9 4
M  V30 33 1 22 17
M  V30 34 1 28 23
M  V30 35 1 12 6
M  V30 36 1 1 33
M  V30 37 1 1 34
M  V30 38 1 3 35
M  V30 39 1 5 36
M  V30 40 1 8 37
M  V30 41 1 9 38
M  V30 42 1 11 39
M  V30 43 1 13 40
M  V30 44 1 13 41
M  V30 45 1 16 42
M  V30 46 1 18 43
M  V30 47 1 19 44
M  V30 48 1 21 45
M  V30 49 1 22 46
M  V30 50 1 25 47
M  V30 51 1 26 48
M  V30 52 1 27 49
M  V30 53 1 28 50
M  V30 54 1 30 51
M  V30 55 1 30 52
M  V30 END BOND
M  V30 END CTAB
M  END
