
     RDKit          3D

  0  0  0  0  0  0  0  0  0  0999 V3000
M  V30 BEGIN CTAB
M  V30 COUNTS 42 43 0 0 0
M  V30 BEGIN ATOM
M  V30 1 C 4.4437 2.69448 -0.283331 0
M  V30 2 O 5.33968 1.6112 -0.27988 0
M  V30 3 C 4.91209 0.298659 -0.131033 0
M  V30 4 C 3.56484 0.0716817 0.0162762 0
M  V30 5 C 3.02137 -1.192 0.172133 0
M  V30 6 C 1.58675 -1.33181 0.320352 0
M  V30 7 N 0.805835 -0.318669 0.311569 0
M  V30 8 N -0.591941 -0.434425 0.454276 0
M  V30 9 C -1.40076 0.461306 0.0091705 0
M  V30 10 C -2.84784 0.299266 0.179969 0
M  V30 11 C -3.34383 -0.81655 0.819335 0
M  V30 12 C -4.6951 -1.0223 1.0085 0
M  V30 13 N -5.22531 -2.16669 1.66535 0
M  V30 14 C -5.57088 -0.0683512 0.535433 0
M  V30 15 C -5.12068 1.0645 -0.110657 0
M  V30 16 C -3.74693 1.23471 -0.281633 0
M  V30 17 O -6.04654 1.99269 -0.566712 0
M  V30 18 C -5.54039 3.15641 -1.23271 0
M  V30 19 O -6.93205 -0.25267 0.71341 0
M  V30 20 C 3.89518 -2.24683 0.175535 0
M  V30 21 C 5.26869 -2.03137 0.0266857 0
M  V30 22 C 5.77642 -0.76786 -0.125787 0
M  V30 23 O 7.1352 -0.509833 -0.276776 0
M  V30 24 N 6.18265 -3.11655 0.028708 0
M  V30 25 H 4.92552 3.65842 -0.435473 0
M  V30 26 H 3.66541 2.46697 -1.05803 0
M  V30 27 H 3.90904 2.7014 0.702638 0
M  V30 28 H 2.86432 0.920269 0.0132984 0
M  V30 29 H 1.16767 -2.31026 0.440642 0
M  V30 30 H -0.983821 1.32517 -0.48792 0
M  V30 31 H -2.66324 -1.58217 1.20031 0
M  V30 32 H -5.29969 -3.10111 1.20748 0
M  V30 33 H -5.54672 -2.03532 2.64983 0
M  V30 34 H -3.37576 2.12966 -0.792957 0
M  V30 35 H -5.01317 3.74672 -0.440405 0
M  V30 36 H -4.82987 2.88827 -2.03093 0
M  V30 37 H -6.3696 3.74651 -1.67559 0
M  V30 38 H -7.61707 0.415766 0.385994 0
M  V30 39 H 3.52586 -3.24833 0.2932 0
M  V30 40 H 7.75377 -1.31444 -0.269563 0
M  V30 41 H 6.12086 -3.82882 0.779711 0
M  V30 42 H 6.8963 -3.18769 -0.71178 0
M  V30 END ATOM
M  V30 BEGIN BOND
M  V30 1 1 1 2
M  V30 2 1 2 3
M  V30 3 2 3 4
M  V30 4 1 4 5
M  V30 5 1 5 6
M  V30 6 2 6 7
M  V30 7 1 7 8
M  V30 8 2 8 9
M  V30 9 1 9 10
M  V30 10 2 10 11
M  V30 11 1 11 12
M  V30 12 1 12 13
M  V30 13 2 12 14
M  V30 14 1 14 15
M  V30 15 2 15 16
M  V30 16 1 15 17
M  V30 17 1 17 18
M  V30 18 1 14 19
M  V30 19 2 5 20
M  V30 20 1 20 21
M  V30 21 2 21 22
M  V30 22 1 22 23
M  V30 23 1 21 24
M  V30 24 1 22 3
M  V30 25 1 16 10
M  V30 26 1 1 25
M  V30 27 1 1 26
M  V30 28 1 1 27
M  V30 29 1 4 28
M  V30 30 1 6 29
M  V30 31 1 9 30
M  V30 32 1 11 31
M  V30 33 1 13 32
M  V30 34 1 13 33
M  V30 35 1 16 34
M  V30 36 1 18 35
M  V30 37 1 18 36
M  V30 38 1 18 37
M  V30 39 1 19 38
M  V30 40 1 20 39
M  V30 41 1 23 40
M  V30 42 1 24 41
M  V30 43 1 24 42
M  V30 END BOND
M  V30 END CTAB
M  END
