
     RDKit          3D

  0  0  0  0  0  0  0  0  0  0999 V3000
M  V30 BEGIN CTAB
M  V30 COUNTS 37 38 0 0 0
M  V30 BEGIN ATOM
M  V30 1 N -3.68496 0.836991 0.434619 0
M  V30 2 C -2.91199 0.183932 -0.609312 0
M  V30 3 C -1.93049 1.12394 -1.24009 0
M  V30 4 N -0.80436 1.37042 -0.310269 0
M  V30 5 C -0.0818925 0.186211 -0.275497 0
M  V30 6 C -0.841204 -0.925365 0.370301 0
M  V30 7 C -2.25404 -1.06273 -0.160497 0
M  V30 8 C -3.08416 -1.78935 0.895785 0
M  V30 9 C 1.35461 0.177851 -0.003623 0
M  V30 10 C 1.96613 -1.04366 0.132604 0
M  V30 11 C 3.34274 -1.21945 0.265389 0
M  V30 12 N 3.91384 -2.53387 0.378216 0
M  V30 13 C 4.11157 -0.0793941 0.259849 0
M  V30 14 C 3.50515 1.14803 0.127352 0
M  V30 15 C 2.14149 1.31044 -0.00489753 0
M  V30 16 C 1.51369 2.63425 -0.0950322 0
M  V30 17 H -4.30352 1.55828 -0.0189636 0
M  V30 18 H -3.11577 1.34948 1.12332 0
M  V30 19 H -3.65568 -0.0993135 -1.40464 0
M  V30 20 H -2.34909 2.02883 -1.66197 0
M  V30 21 H -1.45918 0.539395 -2.08748 0
M  V30 22 H -1.2239 1.75622 0.533209 0
M  V30 23 H -0.0835446 -0.169638 -1.41179 0
M  V30 24 H -0.926507 -0.720855 1.50497 0
M  V30 25 H -0.3705 -1.91656 0.226171 0
M  V30 26 H -2.19515 -1.75877 -1.03942 0
M  V30 27 H -2.44664 -1.99625 1.77792 0
M  V30 28 H -3.94635 -1.19074 1.20749 0
M  V30 29 H -3.45312 -2.76602 0.531596 0
M  V30 30 H 1.42982 -2.00928 0.13902 0
M  V30 31 H 4.62943 -2.70258 1.08318 0
M  V30 32 H 3.60938 -3.30037 -0.246452 0
M  V30 33 H 5.17796 -0.166545 0.356452 0
M  V30 34 H 4.09682 2.0616 0.12098 0
M  V30 35 H 0.888388 2.86724 0.819122 0
M  V30 36 H 1.08896 2.92334 -1.04117 0
M  V30 37 H 2.35206 3.39429 0.0575771 0
M  V30 END ATOM
M  V30 BEGIN BOND
M  V30 1 1 1 2
M  V30 2 1 2 3
M  V30 3 1 3 4
M  V30 4 1 4 5
M  V30 5 1 5 6
M  V30 6 1 6 7
M  V30 7 1 7 8
M  V30 8 1 5 9
M  V30 9 2 9 10
M  V30 10 1 10 11
M  V30 11 1 11 12
M  V30 12 2 11 13
M  V30 13 1 13 14
M  V30 14 2 14 15
M  V30 15 1 15 16
M  V30 16 1 7 2
M  V30 17 1 15 9
M  V30 18 1 1 17
M  V30 19 1 1 18
M  V30 20 1 2 19
M  V30 21 1 3 20
M  V30 22 1 3 21
M  V30 23 1 4 22
M  V30 24 1 5 23
M  V30 25 1 6 24
M  V30 26 1 6 25
M  V30 27 1 7 26
M  V30 28 1 8 27
M  V30 29 1 8 28
M  V30 30 1 8 29
M  V30 31 1 10 30
M  V30 32 1 12 31
M  V30 33 1 12 32
M  V30 34 1 13 33
M  V30 35 1 14 34
M  V30 36 1 16 35
M  V30 37 1 16 36
M  V30 38 1 16 37
M  V30 END BOND
M  V30 END CTAB
M  END
