
     RDKit          3D

  0  0  0  0  0  0  0  0  0  0999 V3000
M  V30 BEGIN CTAB
M  V30 COUNTS 39 40 0 0 0
M  V30 BEGIN ATOM
M  V30 1 N 6.13119 0.945853 -0.290762 0
M  V30 2 C 4.83611 1.13749 0.326052 0
M  V30 3 C 4.46481 -0.0553086 1.20121 0
M  V30 4 C 2.9566 -0.151167 1.14349 0
M  V30 5 C 2.5056 0.963804 0.203536 0
M  V30 6 C 3.71551 1.10901 -0.692217 0
M  V30 7 C 1.30067 0.55287 -0.56286 0
M  V30 8 O 1.38786 0.53014 -1.79372 0
M  V30 9 N 0.136997 0.214281 0.125717 0
M  V30 10 C -1.10609 -0.20457 -0.414271 0
M  V30 11 C -1.31597 -0.600301 -1.71364 0
M  V30 12 C -2.58785 -0.981073 -2.16784 0
M  V30 13 C -3.68954 -0.982833 -1.35287 0
M  V30 14 C -3.49215 -0.58994 -0.0527828 0
M  V30 15 C -2.25245 -0.215698 0.400447 0
M  V30 16 S -4.87078 -0.577494 1.02267 0
M  V30 17 O -5.94841 0.334766 0.575356 0
M  V30 18 O -5.32876 -1.99939 1.17111 0
M  V30 19 N -4.33016 -0.0468578 2.57361 0
M  V30 20 C -5.01801 -1.38023 -1.82616 0
M  V30 21 H 6.86183 1.14754 0.41571 0
M  V30 22 H 6.22245 1.70654 -1.01976 0
M  V30 23 H 4.75495 2.06914 0.902735 0
M  V30 24 H 4.91088 -0.94257 0.701467 0
M  V30 25 H 4.8316 0.0668916 2.24244 0
M  V30 26 H 2.59755 -1.13648 0.801551 0
M  V30 27 H 2.52563 0.0731881 2.15189 0
M  V30 28 H 2.3762 1.87828 0.779346 0
M  V30 29 H 3.82631 0.198203 -1.32377 0
M  V30 30 H 3.68159 2.03106 -1.3032 0
M  V30 31 H 0.148887 0.260562 1.20773 0
M  V30 32 H -0.4801 -0.628077 -2.40022 0
M  V30 33 H -2.6672 -1.27962 -3.20834 0
M  V30 34 H -2.11518 0.0943386 1.43498 0
M  V30 35 H -5.12426 0.197507 3.20186 0
M  V30 36 H -3.72644 0.804645 2.4778 0
M  V30 37 H -5.77364 -0.576927 -1.78646 0
M  V30 38 H -5.41793 -2.27904 -1.29005 0
M  V30 39 H -4.92831 -1.68853 -2.88803 0
M  V30 END ATOM
M  V30 BEGIN BOND
M  V30 1 1 1 2
M  V30 2 1 2 3
M  V30 3 1 3 4
M  V30 4 1 4 5
M  V30 5 1 5 6
M  V30 6 1 5 7
M  V30 7 2 7 8
M  V30 8 1 7 9
M  V30 9 1 9 10
M  V30 10 2 10 11
M  V30 11 1 11 12
M  V30 12 2 12 13
M  V30 13 1 13 14
M  V30 14 2 14 15
M  V30 15 1 14 16
M  V30 16 2 16 17
M  V30 17 2 16 18
M  V30 18 1 16 19
M  V30 19 1 13 20
M  V30 20 1 6 2
M  V30 21 1 15 10
M  V30 22 1 1 21
M  V30 23 1 1 22
M  V30 24 1 2 23
M  V30 25 1 3 24
M  V30 26 1 3 25
M  V30 27 1 4 26
M  V30 28 1 4 27
M  V30 29 1 5 28
M  V30 30 1 6 29
M  V30 31 1 6 30
M  V30 32 1 9 31
M  V30 33 1 11 32
M  V30 34 1 12 33
M  V30 35 1 15 34
M  V30 36 1 19 35
M  V30 37 1 19 36
M  V30 38 1 20 37
M  V30 39 1 20 38
M  V30 40 1 20 39
M  V30 END BOND
M  V30 END CTAB
M  END
