
     RDKit          3D

  0  0  0  0  0  0  0  0  0  0999 V3000
M  V30 BEGIN CTAB
M  V30 COUNTS 23 23 0 0 0
M  V30 BEGIN ATOM
M  V30 1 C 4.24639 0.620604 -0.37093 0
M  V30 2 O 2.97281 0.0109255 -0.295604 0
M  V30 3 C 1.8225 0.738845 -0.281591 0
M  V30 4 O 1.95924 2.00904 -0.340586 0
M  V30 5 C 0.478826 0.237516 -0.208106 0
M  V30 6 C -0.631983 1.07861 -0.200432 0
M  V30 7 C -1.92281 0.621995 -0.130885 0
M  V30 8 N -3.04091 1.49714 -0.124363 0
M  V30 9 C -2.16342 -0.728385 -0.0644242 0
M  V30 10 C -1.09116 -1.59039 -0.0697137 0
M  V30 11 C 0.222895 -1.1054 -0.141364 0
M  V30 12 C 1.2952 -2.05876 -0.142785 0
M  V30 13 N 2.14373 -2.84631 -0.142424 0
M  V30 14 N -3.49435 -1.2047 0.00752645 0
M  V30 15 H 4.6889 0.803044 0.627582 0
M  V30 16 H 4.96132 -0.0479896 -0.903731 0
M  V30 17 H 4.21029 1.58887 -0.910861 0
M  V30 18 H -0.4651 2.14123 -0.251862 0
M  V30 19 H -3.74021 1.49981 -0.921541 0
M  V30 20 H -3.19246 2.14617 0.656783 0
M  V30 21 H -1.28126 -2.65632 -0.0172427 0
M  V30 22 H -3.73107 -2.15638 -0.308026 0
M  V30 23 H -4.24736 -0.599166 0.379631 0
M  V30 END ATOM
M  V30 BEGIN BOND
M  V30 1 1 1 2
M  V30 2 1 2 3
M  V30 3 2 3 4
M  V30 4 1 3 5
M  V30 5 2 5 6
M  V30 6 1 6 7
M  V30 7 1 7 8
M  V30 8 2 7 9
M  V30 9 1 9 10
M  V30 10 2 10 11
M  V30 11 1 11 12
M  V30 12 3 12 13
M  V30 13 1 9 14
M  V30 14 1 11 5
M  V30 15 1 1 15
M  V30 16 1 1 16
M  V30 17 1 1 17
M  V30 18 1 6 18
M  V30 19 1 8 19
M  V30 20 1 8 20
M  V30 21 1 10 21
M  V30 22 1 14 22
M  V30 23 1 14 23
M  V30 END BOND
M  V30 END CTAB
M  END
