
     RDKit          3D

  0  0  0  0  0  0  0  0  0  0999 V3000
M  V30 BEGIN CTAB
M  V30 COUNTS 25 25 0 0 0
M  V30 BEGIN ATOM
M  V30 1 N 4.10944 0.533911 -0.361018 0
M  V30 2 C 2.92778 1.35832 -0.54627 0
M  V30 3 C 1.68127 0.591264 -0.298371 0
M  V30 4 C 1.08929 -0.0662989 -1.3559 0
M  V30 5 C -0.055244 -0.782475 -1.17582 0
M  V30 6 C -0.630972 -0.851596 0.0814393 0
M  V30 7 C -1.856 -1.59788 0.355835 0
M  V30 8 S -3.33404 -0.66269 0.166224 0
M  V30 9 N -3.40986 0.694458 1.1985 0
M  V30 10 O -3.57829 -0.22559 -1.23114 0
M  V30 11 O -4.48768 -1.58144 0.543242 0
M  V30 12 C -0.0209436 -0.183902 1.13145 0
M  V30 13 C 1.13704 0.540446 0.948295 0
M  V30 14 H 3.87043 -0.380985 0.103177 0
M  V30 15 H 4.82061 1.05603 0.202512 0
M  V30 16 H 2.97693 1.75434 -1.59393 0
M  V30 17 H 2.9232 2.24344 0.117811 0
M  V30 18 H 1.56159 0.00375422 -2.33375 0
M  V30 19 H -0.536973 -1.30676 -1.993 0
M  V30 20 H -1.82941 -1.96628 1.41161 0
M  V30 21 H -1.96415 -2.51994 -0.266722 0
M  V30 22 H -4.05799 1.42736 0.797731 0
M  V30 23 H -2.49912 1.0712 1.48368 0
M  V30 24 H -0.433925 -0.205785 2.14422 0
M  V30 25 H 1.59704 1.0571 1.79281 0
M  V30 END ATOM
M  V30 BEGIN BOND
M  V30 1 1 1 2
M  V30 2 1 2 3
M  V30 3 2 3 4
M  V30 4 1 4 5
M  V30 5 2 5 6
M  V30 6 1 6 7
M  V30 7 1 7 8
M  V30 8 1 8 9
M  V30 9 2 8 10
M  V30 10 2 8 11
M  V30 11 1 6 12
M  V30 12 2 12 13
M  V30 13 1 13 3
M  V30 14 1 1 14
M  V30 15 1 1 15
M  V30 16 1 2 16
M  V30 17 1 2 17
M  V30 18 1 4 18
M  V30 19 1 5 19
M  V30 20 1 7 20
M  V30 21 1 7 21
M  V30 22 1 9 22
M  V30 23 1 9 23
M  V30 24 1 12 24
M  V30 25 1 13 25
M  V30 END BOND
M  V30 END CTAB
M  END
