
     RDKit          3D

  0  0  0  0  0  0  0  0  0  0999 V3000
M  V30 BEGIN CTAB
M  V30 COUNTS 34 35 0 0 0
M  V30 BEGIN ATOM
M  V30 1 N 5.06183 -0.439802 -0.8266 0
M  V30 2 C 4.49652 0.368324 0.212677 0
M  V30 3 C 3.00637 0.260289 0.259745 0
M  V30 4 C 2.29422 0.970222 1.19799 0
M  V30 5 C 0.917193 0.844438 1.21031 0
M  V30 6 C 0.22668 0.0404171 0.325542 0
M  V30 7 C 0.948639 -0.655288 -0.59677 0
M  V30 8 C 2.34369 -0.545244 -0.63015 0
M  V30 9 C -1.24302 -0.0312843 0.413934 0
M  V30 10 C -1.75035 -1.43014 0.680796 0
M  V30 11 N -3.12821 -1.34035 1.04094 0
M  V30 12 C -3.96364 -0.658042 0.128366 0
M  V30 13 C -3.39573 0.552385 -0.516318 0
M  V30 14 C -1.9283 0.4318 -0.857596 0
M  V30 15 N -1.43027 1.68652 -1.33861 0
M  V30 16 H 6.08082 -0.251059 -0.859627 0
M  V30 17 H 4.86318 -1.44666 -0.598117 0
M  V30 18 H 4.80012 1.42697 0.141314 0
M  V30 19 H 4.84542 0.0136507 1.225 0
M  V30 20 H 2.83059 1.60199 1.89391 0
M  V30 21 H 0.371533 1.40511 1.94928 0
M  V30 22 H 0.417413 -1.28802 -1.2945 0
M  V30 23 H 2.91137 -1.0983 -1.36258 0
M  V30 24 H -1.61911 0.611591 1.2319 0
M  V30 25 H -1.66951 -1.9994 -0.282239 0
M  V30 26 H -1.20209 -1.94162 1.47772 0
M  V30 27 H -3.31271 -1.15683 2.04362 0
M  V30 28 H -4.89301 -0.337445 0.684512 0
M  V30 29 H -4.35654 -1.32345 -0.692906 0
M  V30 30 H -3.49882 1.42854 0.168629 0
M  V30 31 H -3.93453 0.807463 -1.43721 0
M  V30 32 H -1.82968 -0.388603 -1.62448 0
M  V30 33 H -1.05476 1.52172 -2.30745 0
M  V30 34 H -2.2053 2.36011 -1.43225 0
M  V30 END ATOM
M  V30 BEGIN BOND
M  V30 1 1 1 2
M  V30 2 1 2 3
M  V30 3 2 3 4
M  V30 4 1 4 5
M  V30 5 2 5 6
M  V30 6 1 6 7
M  V30 7 2 7 8
M  V30 8 1 6 9
M  V30 9 1 9 10
M  V30 10 1 10 11
M  V30 11 1 11 12
M  V30 12 1 12 13
M  V30 13 1 13 14
M  V30 14 1 14 15
M  V30 15 1 8 3
M  V30 16 1 14 9
M  V30 17 1 1 16
M  V30 18 1 1 17
M  V30 19 1 2 18
M  V30 20 1 2 19
M  V30 21 1 4 20
M  V30 22 1 5 21
M  V30 23 1 7 22
M  V30 24 1 8 23
M  V30 25 1 9 24
M  V30 26 1 10 25
M  V30 27 1 10 26
M  V30 28 1 11 27
M  V30 29 1 12 28
M  V30 30 1 12 29
M  V30 31 1 13 30
M  V30 32 1 13 31
M  V30 33 1 14 32
M  V30 34 1 15 33
M  V30 35 1 15 34
M  V30 END BOND
M  V30 END CTAB
M  END
