
     RDKit          3D

  0  0  0  0  0  0  0  0  0  0999 V3000
M  V30 BEGIN CTAB
M  V30 COUNTS 51 51 0 0 0
M  V30 BEGIN ATOM
M  V30 1 C -5.24153 -1.54908 -2.46667 0
M  V30 2 C -4.06759 -1.96587 -1.65942 0 CFG=2
M  V30 3 N -4.49112 -2.37007 -0.325121 0
M  V30 4 C -3.03971 -0.910651 -1.57578 0
M  V30 5 O -2.65057 -0.4224 -2.67514 0
M  V30 6 N -2.53368 -0.488735 -0.330092 0
M  V30 7 C -1.52012 0.558289 -0.275397 0 CFG=1
M  V30 8 C -1.5947 1.44728 0.919381 0
M  V30 9 C -2.83802 2.20048 1.11108 0
M  V30 10 C -3.95959 2.25372 0.361361 0
M  V30 11 N -4.81161 3.11005 1.00188 0
M  V30 12 C -4.23441 3.57726 2.12281 0
M  V30 13 N -3.02985 3.02586 2.19748 0
M  V30 14 C -0.220649 -0.1988 -0.144015 0
M  V30 15 O -0.212301 -1.37889 -0.517559 0
M  V30 16 N 0.900073 0.440766 0.3847 0
M  V30 17 C 2.18131 -0.392872 0.48094 0 CFG=1
M  V30 18 C 3.18202 0.521934 -0.158322 0
M  V30 19 C 4.5854 0.12327 -0.31701 0
M  V30 20 C 5.30617 -0.152777 0.955686 0
M  V30 21 C 6.77171 -0.484335 0.612282 0
M  V30 22 N 6.8365 -1.63516 -0.230467 0
M  V30 23 C 2.30318 -0.494759 1.95858 0
M  V30 24 O 2.60484 -1.70197 2.53323 0
M  V30 25 O 2.12337 0.508102 2.70783 0
M  V30 26 H -5.96513 -2.39167 -2.60053 0
M  V30 27 H -4.9058 -1.18045 -3.46796 0
M  V30 28 H -5.81159 -0.719318 -2.02332 0
M  V30 29 H -3.60694 -2.89671 -2.12019 0
M  V30 30 H -5.01826 -3.28902 -0.357454 0
M  V30 31 H -5.10559 -1.65251 0.0874666 0
M  V30 32 H -2.88346 -0.919185 0.550894 0
M  V30 33 H -1.48445 1.11352 -1.25989 0
M  V30 34 H -0.736738 2.18325 0.817396 0
M  V30 35 H -1.36259 0.869804 1.84932 0
M  V30 36 H -4.16698 1.73771 -0.568883 0
M  V30 37 H -5.76337 3.34509 0.654842 0
M  V30 38 H -4.61557 4.26065 2.86036 0
M  V30 39 H 1.03304 1.38769 0.739062 0
M  V30 40 H 2.01294 -1.33845 -0.00551514 0
M  V30 41 H 3.13058 1.53058 0.370775 0
M  V30 42 H 2.81456 0.812875 -1.20447 0
M  V30 43 H 4.64085 -0.75714 -1.02166 0
M  V30 44 H 5.10186 0.989808 -0.849594 0
M  V30 45 H 5.32716 0.734503 1.58625 0
M  V30 46 H 4.9053 -1.06296 1.40995 0
M  V30 47 H 7.29755 -0.58628 1.55384 0
M  V30 48 H 7.18606 0.387865 0.0522802 0
M  V30 49 H 7.21809 -1.41417 -1.15974 0
M  V30 50 H 5.95897 -2.20922 -0.266195 0
M  V30 51 H 2.45043 -2.55691 2.02699 0
M  V30 END ATOM
M  V30 BEGIN BOND
M  V30 1 1 1 2
M  V30 2 1 2 3
M  V30 3 1 2 4
M  V30 4 2 4 5
M  V30 5 1 4 6
M  V30 6 1 6 7
M  V30 7 1 7 8
M  V30 8 1 8 9
M  V30 9 2 9 10
M  V30 10 1 10 11
M  V30 11 1 11 12
M  V30 12 2 12 13
M  V30 13 1 7 14
M  V30 14 2 14 15
M  V30 15 1 14 16
M  V30 16 1 16 17
M  V30 17 1 17 18
M  V30 18 1 18 19
M  V30 19 1 19 20
M  V30 20 1 20 21
M  V30 21 1 21 22
M  V30 22 1 17 23
M  V30 23 1 23 24
M  V30 24 2 23 25
M  V30 25 1 13 9
M  V30 26 1 1 26
M  V30 27 1 1 27
M  V30 28 1 1 28
M  V30 29 1 2 29 CFG=3
M  V30 30 1 3 30
M  V30 31 1 3 31
M  V30 32 1 6 32
M  V30 33 1 7 33 CFG=3
M  V30 34 1 8 34
M  V30 35 1 8 35
M  V30 36 1 10 36
M  V30 37 1 11 37
M  V30 38 1 12 38
M  V30 39 1 16 39
M  V30 40 1 17 40 CFG=3
M  V30 41 1 18 41
M  V30 42 1 18 42
M  V30 43 1 19 43
M  V30 44 1 19 44
M  V30 45 1 20 45
M  V30 46 1 20 46
M  V30 47 1 21 47
M  V30 48 1 21 48
M  V30 49 1 22 49
M  V30 50 1 22 50
M  V30 51 1 24 51
M  V30 END BOND
M  V30 END CTAB
M  END
