
     RDKit          3D

  0  0  0  0  0  0  0  0  0  0999 V3000
M  V30 BEGIN CTAB
M  V30 COUNTS 30 31 0 0 0
M  V30 BEGIN ATOM
M  V30 1 C -2.95739 1.38457 -1.59322 0
M  V30 2 C -2.62803 0.426377 -0.510528 0
M  V30 3 C -1.36664 0.218167 -0.219835 0
M  V30 4 C -0.970733 -0.701004 0.822488 0
M  V30 5 N 0.261647 -0.927724 1.13246 0
M  V30 6 C 1.36369 -0.313412 0.499531 0
M  V30 7 C 2.1816 -1.11372 -0.278282 0
M  V30 8 C 3.27928 -0.588035 -0.929826 0
M  V30 9 C 3.6126 0.75721 -0.836925 0
M  V30 10 N 4.74158 1.29247 -1.50837 0
M  V30 11 C 2.77634 1.53736 -0.0510052 0
M  V30 12 C 1.67836 1.01097 0.600585 0
M  V30 13 C -1.98757 -1.41677 1.57242 0
M  V30 14 N -1.62423 -2.34425 2.62249 0
M  V30 15 C -3.26471 -1.22103 1.29489 0
M  V30 16 C -3.66483 -0.28122 0.22938 0
M  V30 17 O -4.87278 -0.075153 -0.0564355 0
M  V30 18 H -3.9065 1.90736 -1.36149 0
M  V30 19 H -3.1231 0.82758 -2.55571 0
M  V30 20 H -2.12728 2.09129 -1.77572 0
M  V30 21 H -0.607239 0.755391 -0.782874 0
M  V30 22 H 1.97415 -2.16917 -0.389617 0
M  V30 23 H 3.92833 -1.22477 -1.54746 0
M  V30 24 H 5.66676 1.21487 -1.0433 0
M  V30 25 H 4.63946 1.74288 -2.42869 0
M  V30 26 H 3.01186 2.59872 0.0418198 0
M  V30 27 H 1.03288 1.63439 1.2124 0
M  V30 28 H -1.58746 -1.92614 3.57997 0
M  V30 29 H -1.4197 -3.34761 2.41332 0
M  V30 30 H -4.04033 -1.7496 1.84754 0
M  V30 END ATOM
M  V30 BEGIN BOND
M  V30 1 1 1 2
M  V30 2 2 2 3
M  V30 3 1 3 4
M  V30 4 2 4 5 CFG=2
M  V30 5 1 5 6
M  V30 6 2 6 7
M  V30 7 1 7 8
M  V30 8 2 8 9
M  V30 9 1 9 10
M  V30 10 1 9 11
M  V30 11 2 11 12
M  V30 12 1 4 13
M  V30 13 1 13 14
M  V30 14 2 13 15
M  V30 15 1 15 16
M  V30 16 2 16 17
M  V30 17 1 16 2
M  V30 18 1 12 6
M  V30 19 1 1 18
M  V30 20 1 1 19
M  V30 21 1 1 20
M  V30 22 1 3 21
M  V30 23 1 7 22
M  V30 24 1 8 23
M  V30 25 1 10 24
M  V30 26 1 10 25
M  V30 27 1 11 26
M  V30 28 1 12 27
M  V30 29 1 14 28
M  V30 30 1 14 29
M  V30 31 1 15 30
M  V30 END BOND
M  V30 END CTAB
M  END
