
     RDKit          3D

  0  0  0  0  0  0  0  0  0  0999 V3000
M  V30 BEGIN CTAB
M  V30 COUNTS 23 23 0 0 0
M  V30 BEGIN ATOM
M  V30 1 C 3.63015 -0.618724 -0.138766 0
M  V30 2 C 2.28913 0.0287091 -0.236069 0
M  V30 3 O 1.24148 -0.851547 0.184192 0
M  V30 4 C -0.058394 -0.344809 0.133146 0
M  V30 5 C -0.344714 0.933366 -0.29578 0
M  V30 6 C -1.62472 1.4478 -0.351577 0
M  V30 7 N -1.91206 2.76829 -0.795567 0
M  V30 8 C -2.65147 0.617435 0.0487206 0
M  V30 9 C -2.40143 -0.667593 0.483743 0
M  V30 10 C -1.10989 -1.16388 0.531889 0
M  V30 11 N -0.840519 -2.48447 0.977721 0
M  V30 12 Cl -3.69175 -1.7402 0.997174 0
M  V30 13 H 3.66618 -1.2288 0.794792 0
M  V30 14 H 3.86614 -1.18704 -1.04539 0
M  V30 15 H 4.39301 0.175441 -0.0200452 0
M  V30 16 H 2.21838 0.996503 0.307104 0
M  V30 17 H 2.08966 0.246649 -1.30956 0
M  V30 18 H 0.473736 1.56595 -0.604421 0
M  V30 19 H -1.42317 3.60422 -0.406325 0
M  V30 20 H -2.62703 2.96357 -1.5332 0
M  V30 21 H -3.69883 0.926905 0.0429693 0
M  V30 22 H -0.845219 -3.24563 0.270232 0
M  V30 23 H -0.63867 -2.74213 1.96502 0
M  V30 END ATOM
M  V30 BEGIN BOND
M  V30 1 1 1 2
M  V30 2 1 2 3
M  V30 3 1 3 4
M  V30 4 2 4 5
M  V30 5 1 5 6
M  V30 6 1 6 7
M  V30 7 2 6 8
M  V30 8 1 8 9
M  V30 9 2 9 10
M  V30 10 1 10 11
M  V30 11 1 9 12
M  V30 12 1 10 4
M  V30 13 1 1 13
M  V30 14 1 1 14
M  V30 15 1 1 15
M  V30 16 1 2 16
M  V30 17 1 2 17
M  V30 18 1 5 18
M  V30 19 1 7 19
M  V30 20 1 7 20
M  V30 21 1 8 21
M  V30 22 1 11 22
M  V30 23 1 11 23
M  V30 END BOND
M  V30 END CTAB
M  END
