
     RDKit          3D

  0  0  0  0  0  0  0  0  0  0999 V3000
M  V30 BEGIN CTAB
M  V30 COUNTS 50 53 0 0 0
M  V30 BEGIN ATOM
M  V30 1 C 6.29946 -3.67958 0.129011 0
M  V30 2 C 5.1884 -2.86536 -0.454473 0
M  V30 3 O 4.26651 -2.42189 0.523453 0
M  V30 4 C 3.16017 -1.65046 0.203047 0
M  V30 5 C 2.90756 -1.27626 -1.10042 0
M  V30 6 C 1.81896 -0.510639 -1.45324 0
M  V30 7 C 0.905805 -0.0701735 -0.494238 0
M  V30 8 C 1.15708 -0.443982 0.80969 0
M  V30 9 C 2.25813 -1.21532 1.14855 0
M  V30 10 N -0.236412 0.681063 -0.843058 0
M  V30 11 C -1.3916 0.0644879 -1.24007 0
M  V30 12 S -1.65956 -1.69132 -1.39424 0
M  V30 13 C -2.28085 -2.30295 0.210264 0
M  V30 14 C -3.62118 -1.74129 0.48159 0
M  V30 15 N -4.73207 -2.38431 0.0632047 0
M  V30 16 C -5.97168 -1.91194 0.286521 0
M  V30 17 N -7.15058 -2.56648 -0.143496 0
M  V30 18 N -6.07064 -0.747272 0.958127 0
M  V30 19 C -4.98527 -0.0673982 1.39699 0
M  V30 20 N -3.7784 -0.59748 1.13879 0
M  V30 21 N -5.1134 1.16292 2.1065 0
M  V30 22 N -2.28855 0.997854 -1.49164 0
M  V30 23 N -1.74577 2.14389 -1.27091 0
M  V30 24 C -0.446268 1.97853 -0.859147 0
M  V30 25 C 0.397112 3.11446 -0.52977 0
M  V30 26 C -0.170149 4.39196 -0.552262 0
M  V30 27 C 0.562108 5.52344 -0.265319 0
M  V30 28 C 1.89578 5.46242 0.0603749 0
M  V30 29 C 2.47942 4.22056 0.0900174 0
M  V30 30 C 1.72201 3.07519 -0.204558 0
M  V30 31 Cl 4.17375 4.09713 0.499356 0
M  V30 32 H 7.23416 -3.46773 -0.466397 0
M  V30 33 H 6.12416 -4.78185 -0.022129 0
M  V30 34 H 6.53492 -3.47125 1.1712 0
M  V30 35 H 5.58074 -1.94601 -0.944145 0
M  V30 36 H 4.66353 -3.43323 -1.26945 0
M  V30 37 H 3.58174 -1.58414 -1.91259 0
M  V30 38 H 1.64913 -0.231336 -2.50378 0
M  V30 39 H 0.442858 -0.101964 1.5721 0
M  V30 40 H 2.4401 -1.49921 2.1768 0
M  V30 41 H -1.60587 -2.00955 1.04715 0
M  V30 42 H -2.33773 -3.40332 0.126471 0
M  V30 43 H -7.81299 -2.91681 0.570489 0
M  V30 44 H -7.31575 -2.67516 -1.15792 0
M  V30 45 H -5.15149 1.15193 3.14606 0
M  V30 46 H -5.17255 2.09278 1.63271 0
M  V30 47 H -1.22218 4.4892 -0.804395 0
M  V30 48 H 0.113583 6.50062 -0.285744 0
M  V30 49 H 2.45908 6.35587 0.283069 0
M  V30 50 H 2.24468 2.16132 -0.168142 0
M  V30 END ATOM
M  V30 BEGIN BOND
M  V30 1 1 1 2
M  V30 2 1 2 3
M  V30 3 1 3 4
M  V30 4 2 4 5
M  V30 5 1 5 6
M  V30 6 2 6 7
M  V30 7 1 7 8
M  V30 8 2 8 9
M  V30 9 1 7 10
M  V30 10 1 10 11
M  V30 11 1 11 12
M  V30 12 1 12 13
M  V30 13 1 13 14
M  V30 14 2 14 15
M  V30 15 1 15 16
M  V30 16 1 16 17
M  V30 17 2 16 18
M  V30 18 1 18 19
M  V30 19 2 19 20
M  V30 20 1 19 21
M  V30 21 2 11 22
M  V30 22 1 22 23
M  V30 23 2 23 24
M  V30 24 1 24 25
M  V30 25 2 25 26
M  V30 26 1 26 27
M  V30 27 2 27 28
M  V30 28 1 28 29
M  V30 29 2 29 30
M  V30 30 1 29 31
M  V30 31 1 9 4
M  V30 32 1 24 10
M  V30 33 1 30 25
M  V30 34 1 20 14
M  V30 35 1 1 32
M  V30 36 1 1 33
M  V30 37 1 1 34
M  V30 38 1 2 35
M  V30 39 1 2 36
M  V30 40 1 5 37
M  V30 41 1 6 38
M  V30 42 1 8 39
M  V30 43 1 9 40
M  V30 44 1 13 41
M  V30 45 1 13 42
M  V30 46 1 17 43
M  V30 47 1 17 44
M  V30 48 1 21 45
M  V30 49 1 21 46
M  V30 50 1 26 47
M  V30 51 1 27 48
M  V30 52 1 28 49
M  V30 53 1 30 50
M  V30 END BOND
M  V30 END CTAB
M  END
