
     RDKit          3D

  0  0  0  0  0  0  0  0  0  0999 V3000
M  V30 BEGIN CTAB
M  V30 COUNTS 45 48 0 0 0
M  V30 BEGIN ATOM
M  V30 1 N 8.44673 -1.37445 -0.957294 0
M  V30 2 C 7.84558 -0.64486 0.119684 0
M  V30 3 N 8.54059 -0.144752 1.07649 0
M  V30 4 C 6.40272 -0.456638 0.143306 0
M  V30 5 C 5.80345 0.240041 1.16709 0
M  V30 6 C 4.43755 0.394512 1.15058 0
M  V30 7 C 3.6709 -0.133515 0.13351 0
M  V30 8 C 4.26378 -0.844873 -0.915608 0
M  V30 9 C 5.62939 -0.991605 -0.886429 0
M  V30 10 C 2.2263 0.0573728 0.16009 0
M  V30 11 C 1.41144 -0.898589 -0.380258 0
M  V30 12 C 0.0318324 -0.750684 -0.373283 0
M  V30 13 C -0.556956 0.361887 0.17734 0
M  V30 14 C 0.249652 1.33082 0.724084 0
M  V30 15 C 1.62889 1.17643 0.713702 0
M  V30 16 C -2.00649 0.485976 0.16798 0
M  V30 17 N -2.69758 1.53939 0.683234 0
M  V30 18 C -4.01575 1.3391 0.511089 0
M  V30 19 C -4.17851 0.12833 -0.1301 0
M  V30 20 N -2.93411 -0.346358 -0.314554 0
M  V30 21 C -5.45535 -0.315391 -0.427443 0
M  V30 22 C -6.59394 0.390951 -0.116565 0
M  V30 23 C -6.42556 1.60034 0.524175 0
M  V30 24 C -5.14168 2.0647 0.832684 0
M  V30 25 C -7.93292 -0.111218 -0.447712 0
M  V30 26 N -8.07858 -1.35696 -1.10643 0
M  V30 27 N -9.00703 0.53774 -0.163619 0
M  V30 28 H 8.16682 -1.21561 -1.94963 0
M  V30 29 H 9.17206 -2.06665 -0.70383 0
M  V30 30 H 9.55538 -0.196487 1.19209 0
M  V30 31 H 6.35341 0.674106 1.98738 0
M  V30 32 H 3.94386 0.942347 1.95133 0
M  V30 33 H 3.63872 -1.24788 -1.69977 0
M  V30 34 H 6.12692 -1.52673 -1.66543 0
M  V30 35 H 1.83634 -1.77253 -0.814739 0
M  V30 36 H -0.560522 -1.55899 -0.825086 0
M  V30 37 H -0.1518 2.23553 1.17558 0
M  V30 38 H 2.30509 1.9156 1.13376 0
M  V30 39 H -2.72594 -1.25357 -0.778059 0
M  V30 40 H -5.5604 -1.25568 -0.924394 0
M  V30 41 H -7.27208 2.21488 0.802049 0
M  V30 42 H -5.02942 3.01016 1.33268 0
M  V30 43 H -8.83078 -1.46645 -1.81055 0
M  V30 44 H -7.4469 -2.15148 -0.893287 0
M  V30 45 H -9.08512 1.44175 0.304909 0
M  V30 END ATOM
M  V30 BEGIN BOND
M  V30 1 1 1 2
M  V30 2 2 2 3 CFG=2
M  V30 3 1 2 4
M  V30 4 2 4 5
M  V30 5 1 5 6
M  V30 6 2 6 7
M  V30 7 1 7 8
M  V30 8 2 8 9
M  V30 9 1 7 10
M  V30 10 2 10 11
M  V30 11 1 11 12
M  V30 12 2 12 13
M  V30 13 1 13 14
M  V30 14 2 14 15
M  V30 15 1 13 16
M  V30 16 2 16 17
M  V30 17 1 17 18
M  V30 18 2 18 19
M  V30 19 1 19 20
M  V30 20 1 19 21
M  V30 21 2 21 22
M  V30 22 1 22 23
M  V30 23 2 23 24
M  V30 24 1 22 25
M  V30 25 1 25 26
M  V30 26 2 25 27 CFG=2
M  V30 27 1 9 4
M  V30 28 1 15 10
M  V30 29 1 20 16
M  V30 30 1 24 18
M  V30 31 1 1 28
M  V30 32 1 1 29
M  V30 33 1 3 30
M  V30 34 1 5 31
M  V30 35 1 6 32
M  V30 36 1 8 33
M  V30 37 1 9 34
M  V30 38 1 11 35
M  V30 39 1 12 36
M  V30 40 1 14 37
M  V30 41 1 15 38
M  V30 42 1 20 39
M  V30 43 1 21 40
M  V30 44 1 23 41
M  V30 45 1 24 42
M  V30 46 1 26 43
M  V30 47 1 26 44
M  V30 48 1 27 45
M  V30 END BOND
M  V30 END CTAB
M  END
