
     RDKit          3D

  0  0  0  0  0  0  0  0  0  0999 V3000
M  V30 BEGIN CTAB
M  V30 COUNTS 50 53 0 0 0
M  V30 BEGIN ATOM
M  V30 1 N -5.23585 -1.93178 1.0845 0
M  V30 2 C -4.03307 -1.10355 0.863106 0
M  V30 3 C -4.20088 0.167561 1.61475 0
M  V30 4 C -3.66263 1.39915 0.982142 0
M  V30 5 C -4.84642 2.05699 0.250256 0
M  V30 6 C -4.85702 1.23918 -1.03974 0
M  V30 7 C -3.52163 0.473084 -1.04311 0
M  V30 8 C -3.84867 -0.92522 -0.604164 0
M  V30 9 N -2.7655 1.22114 -0.109432 0
M  V30 10 C -1.4599 0.7933 0.205527 0
M  V30 11 C -0.655284 0.670497 -1.08502 0
M  V30 12 C 0.735921 0.230655 -0.80394 0
M  V30 13 C 1.67688 1.20502 -0.577968 0
M  V30 14 C 2.99697 0.934644 -0.3073 0
M  V30 15 C 3.39394 -0.38981 -0.26112 0
M  V30 16 C 2.44703 -1.36417 -0.488339 0
M  V30 17 C 1.12486 -1.08014 -0.759037 0
M  V30 18 C 4.79852 -0.663959 0.0271021 0
M  V30 19 N 5.63918 0.377045 0.234097 0
M  V30 20 C 6.9431 0.234433 0.504683 0
M  V30 21 N 7.79337 1.34656 0.715788 0
M  V30 22 C 7.47121 -1.03031 0.579608 0
M  V30 23 C 6.66697 -2.13094 0.378567 0
M  V30 24 C 5.32308 -1.92456 0.101392 0
M  V30 25 H -5.09789 -2.88112 0.650167 0
M  V30 26 H -6.05316 -1.51006 0.600345 0
M  V30 27 H -3.21853 -1.75752 1.31139 0
M  V30 28 H -5.29985 0.295334 1.84828 0
M  V30 29 H -3.75356 -0.000745871 2.6391 0
M  V30 30 H -3.21287 2.09341 1.70224 0
M  V30 31 H -4.55136 3.10075 0.0710383 0
M  V30 32 H -5.77754 1.93323 0.822629 0
M  V30 33 H -4.85956 1.89798 -1.9348 0
M  V30 34 H -5.715 0.55046 -0.99722 0
M  V30 35 H -3.05542 0.516178 -2.03561 0
M  V30 36 H -4.77661 -1.25303 -1.13034 0
M  V30 37 H -3.06823 -1.66183 -0.961997 0
M  V30 38 H -1.50555 -0.26671 0.593637 0
M  V30 39 H -0.939096 1.40785 0.947783 0
M  V30 40 H -1.14729 -0.0572008 -1.78201 0
M  V30 41 H -0.610823 1.6342 -1.62989 0
M  V30 42 H 1.40622 2.2694 -0.604881 0
M  V30 43 H 3.70292 1.73353 -0.135792 0
M  V30 44 H 2.74289 -2.41333 -0.455726 0
M  V30 45 H 0.394466 -1.87045 -0.935334 0
M  V30 46 H 8.02996 1.71766 1.66756 0
M  V30 47 H 8.22136 1.84354 -0.088756 0
M  V30 48 H 8.51754 -1.21518 0.794696 0
M  V30 49 H 7.04604 -3.14655 0.429246 0
M  V30 50 H 4.65679 -2.76463 -0.0630454 0
M  V30 END ATOM
M  V30 BEGIN BOND
M  V30 1 1 1 2
M  V30 2 1 2 3
M  V30 3 1 3 4
M  V30 4 1 4 5
M  V30 5 1 5 6
M  V30 6 1 6 7
M  V30 7 1 7 8
M  V30 8 1 7 9
M  V30 9 1 9 10
M  V30 10 1 10 11
M  V30 11 1 11 12
M  V30 12 2 12 13
M  V30 13 1 13 14
M  V30 14 2 14 15
M  V30 15 1 15 16
M  V30 16 2 16 17
M  V30 17 1 15 18
M  V30 18 2 18 19
M  V30 19 1 19 20
M  V30 20 1 20 21
M  V30 21 2 20 22
M  V30 22 1 22 23
M  V30 23 2 23 24
M  V30 24 1 8 2
M  V30 25 1 17 12
M  V30 26 1 24 18
M  V30 27 1 9 4
M  V30 28 1 1 25
M  V30 29 1 1 26
M  V30 30 1 2 27
M  V30 31 1 3 28
M  V30 32 1 3 29
M  V30 33 1 4 30
M  V30 34 1 5 31
M  V30 35 1 5 32
M  V30 36 1 6 33
M  V30 37 1 6 34
M  V30 38 1 7 35
M  V30 39 1 8 36
M  V30 40 1 8 37
M  V30 41 1 10 38
M  V30 42 1 10 39
M  V30 43 1 11 40
M  V30 44 1 11 41
M  V30 45 1 13 42
M  V30 46 1 14 43
M  V30 47 1 16 44
M  V30 48 1 17 45
M  V30 49 1 21 46
M  V30 50 1 21 47
M  V30 51 1 22 48
M  V30 52 1 23 49
M  V30 53 1 24 50
M  V30 END BOND
M  V30 END CTAB
M  END
