
     RDKit          3D

  0  0  0  0  0  0  0  0  0  0999 V3000
M  V30 BEGIN CTAB
M  V30 COUNTS 72 71 0 0 0
M  V30 BEGIN ATOM
M  V30 1 O -3.1796 -0.757212 0.923748 0
M  V30 2 C -4.04011 -0.179901 0.392797 0
M  V30 3 N -3.91942 1.20002 0.0783356 0
M  V30 4 C -2.72774 1.93167 0.408073 0 CFG=2
M  V30 5 C -3.08413 3.06294 1.28847 0
M  V30 6 O -4.26594 3.30648 1.6506 0
M  V30 7 N -2.06749 3.94925 1.77734 0
M  V30 8 C -2.37702 5.05793 2.63641 0
M  V30 9 C -1.12425 5.7728 2.98027 0
M  V30 10 O -0.0284722 5.36118 2.52027 0
M  V30 11 O -1.19639 6.89273 3.81252 0
M  V30 12 C -1.99372 2.42389 -0.836306 0
M  V30 13 S -1.49495 0.971304 -1.84746 0
M  V30 14 S 0.0022021 -0.130301 -0.793314 0
M  V30 15 C 1.67082 0.439408 -1.22167 0
M  V30 16 C 2.66861 -0.242491 -0.373215 0 CFG=2
M  V30 17 C 2.52549 0.076469 1.04818 0
M  V30 18 O 3.37858 -0.479902 1.82519 0
M  V30 19 N 1.56769 0.913069 1.58788 0
M  V30 20 C 1.49006 1.18959 3.01099 0
M  V30 21 C 2.7306 1.87809 3.42836 0
M  V30 22 O 3.60558 2.18446 2.59672 0
M  V30 23 O 2.94157 2.20005 4.79013 0
M  V30 24 N 4.00411 -0.245703 -0.864546 0
M  V30 25 C 4.73712 -1.45215 -1.23512 0
M  V30 26 O 4.06969 -2.48844 -1.06946 0
M  V30 27 C 6.08234 -1.38358 -1.73208 0
M  V30 28 C 6.81688 -2.47802 -2.33259 0
M  V30 29 C 6.42853 -3.12759 -3.5919 0 CFG=1
M  V30 30 C 5.15383 -3.81006 -3.59511 0
M  V30 31 O 5.07843 -4.89036 -2.90686 0
M  V30 32 O 4.00934 -3.42477 -4.26149 0
M  V30 33 N 6.50512 -2.15956 -4.71744 0
M  V30 34 C -5.32107 -0.872224 0.0130457 0
M  V30 35 C -5.1857 -2.34047 0.339501 0
M  V30 36 C -6.49461 -3.028 -0.0607979 0 CFG=2
M  V30 37 C -6.34384 -4.46656 0.246066 0
M  V30 38 O -6.51421 -5.30075 -0.668901 0
M  V30 39 O -6.02128 -4.88388 1.51554 0
M  V30 40 N -6.84755 -2.75265 -1.42487 0
M  V30 41 H -4.7079 1.67873 -0.393747 0
M  V30 42 H -2.01712 1.26625 0.979363 0
M  V30 43 H -1.09389 3.76821 1.49225 0
M  V30 44 H -2.84393 4.7473 3.59454 0
M  V30 45 H -3.09122 5.78158 2.18985 0
M  V30 46 H -1.67046 7.71656 3.42546 0
M  V30 47 H -1.03806 2.86299 -0.487614 0
M  V30 48 H -2.55734 3.14116 -1.41978 0
M  V30 49 H 1.86053 0.36625 -2.31115 0
M  V30 50 H 1.68356 1.54222 -0.969641 0
M  V30 51 H 2.3811 -1.39336 -0.455397 0
M  V30 52 H 0.862389 1.40988 1.00905 0
M  V30 53 H 0.62878 1.85166 3.26924 0
M  V30 54 H 1.37171 0.220701 3.57026 0
M  V30 55 H 2.77339 3.17886 5.02074 0
M  V30 56 H 4.52356 0.642846 -0.979018 0
M  V30 57 H 6.2246 -0.47004 -2.41665 0
M  V30 58 H 6.7281 -1.03279 -0.830023 0
M  V30 59 H 6.97056 -3.33409 -1.57492 0
M  V30 60 H 7.89913 -2.12778 -2.47787 0
M  V30 61 H 7.2208 -3.88087 -3.86049 0
M  V30 62 H 3.50671 -2.59521 -3.95347 0
M  V30 63 H 5.74767 -1.46749 -4.66996 0
M  V30 64 H 6.37307 -2.73969 -5.56809 0
M  V30 65 H -5.54112 -0.77522 -1.06679 0
M  V30 66 H -6.16167 -0.403192 0.570027 0
M  V30 67 H -5.11322 -2.4744 1.46092 0
M  V30 68 H -4.31837 -2.80318 -0.147042 0
M  V30 69 H -7.26816 -2.59086 0.632843 0
M  V30 70 H -6.79567 -5.32867 2.03217 0
M  V30 71 H -6.06804 -2.47936 -2.04019 0
M  V30 72 H -7.7086 -2.19578 -1.54828 0
M  V30 END ATOM
M  V30 BEGIN BOND
M  V30 1 2 1 2
M  V30 2 1 2 3
M  V30 3 1 3 4
M  V30 4 1 4 5
M  V30 5 2 5 6
M  V30 6 1 5 7
M  V30 7 1 7 8
M  V30 8 1 8 9
M  V30 9 2 9 10
M  V30 10 1 9 11
M  V30 11 1 4 12
M  V30 12 1 12 13
M  V30 13 1 13 14
M  V30 14 1 14 15
M  V30 15 1 15 16
M  V30 16 1 16 17
M  V30 17 2 17 18
M  V30 18 1 17 19
M  V30 19 1 19 20
M  V30 20 1 20 21
M  V30 21 2 21 22
M  V30 22 1 21 23
M  V30 23 1 16 24
M  V30 24 1 24 25
M  V30 25 2 25 26
M  V30 26 1 25 27
M  V30 27 1 27 28
M  V30 28 1 28 29
M  V30 29 1 29 30
M  V30 30 2 30 31
M  V30 31 1 30 32
M  V30 32 1 29 33
M  V30 33 1 2 34
M  V30 34 1 34 35
M  V30 35 1 35 36
M  V30 36 1 36 37
M  V30 37 2 37 38
M  V30 38 1 37 39
M  V30 39 1 36 40
M  V30 40 1 3 41
M  V30 41 1 4 42 CFG=1
M  V30 42 1 7 43
M  V30 43 1 8 44
M  V30 44 1 8 45
M  V30 45 1 11 46
M  V30 46 1 12 47
M  V30 47 1 12 48
M  V30 48 1 15 49
M  V30 49 1 15 50
M  V30 50 1 16 51 CFG=1
M  V30 51 1 19 52
M  V30 52 1 20 53
M  V30 53 1 20 54
M  V30 54 1 23 55
M  V30 55 1 24 56
M  V30 56 1 27 57
M  V30 57 1 27 58
M  V30 58 1 28 59
M  V30 59 1 28 60
M  V30 60 1 29 61 CFG=3
M  V30 61 1 32 62
M  V30 62 1 33 63
M  V30 63 1 33 64
M  V30 64 1 34 65
M  V30 65 1 34 66
M  V30 66 1 35 67
M  V30 67 1 35 68
M  V30 68 1 36 69 CFG=1
M  V30 69 1 39 70
M  V30 70 1 40 71
M  V30 71 1 40 72
M  V30 END BOND
M  V30 END CTAB
M  END
