
     RDKit          3D

  0  0  0  0  0  0  0  0  0  0999 V3000
M  V30 BEGIN CTAB
M  V30 COUNTS 22 22 0 0 0
M  V30 BEGIN ATOM
M  V30 1 C 4.24675 -0.0260546 -0.244227 0
M  V30 2 S 3.08375 0.560324 0.98394 0
M  V30 3 C 1.42622 0.814507 0.358355 0
M  V30 4 C 0.748774 -0.485895 -0.0641797 0
M  V30 5 C -0.608215 -0.161656 -0.559187 0
M  V30 6 N -0.911996 0.120649 -1.83219 0
M  V30 7 N -2.22223 0.369635 -1.94353 0
M  V30 8 C -2.73809 0.239002 -0.7139 0
M  V30 9 N -1.73384 -0.0907634 0.142617 0
M  V30 10 N -1.90877 -0.307722 1.52636 0
M  V30 11 N -4.09859 0.416373 -0.379263 0
M  V30 12 H 5.02703 0.766707 -0.407842 0
M  V30 13 H 4.80584 -0.934042 0.0672157 0
M  V30 14 H 3.77668 -0.249525 -1.22412 0
M  V30 15 H 0.812356 1.23447 1.18356 0
M  V30 16 H 1.35692 1.53459 -0.480015 0
M  V30 17 H 1.37781 -0.973851 -0.837503 0
M  V30 18 H 0.681022 -1.10303 0.866217 0
M  V30 19 H -2.74736 0.0330713 2.0134 0
M  V30 20 H -1.16498 -0.822418 2.03798 0
M  V30 21 H -4.83667 -0.228182 -0.713952 0
M  V30 22 H -4.37241 1.21538 0.220266 0
M  V30 END ATOM
M  V30 BEGIN BOND
M  V30 1 1 1 2
M  V30 2 1 2 3
M  V30 3 1 3 4
M  V30 4 1 4 5
M  V30 5 2 5 6
M  V30 6 1 6 7
M  V30 7 2 7 8
M  V30 8 1 8 9
M  V30 9 1 9 10
M  V30 10 1 8 11
M  V30 11 1 9 5
M  V30 12 1 1 12
M  V30 13 1 1 13
M  V30 14 1 1 14
M  V30 15 1 3 15
M  V30 16 1 3 16
M  V30 17 1 4 17
M  V30 18 1 4 18
M  V30 19 1 10 19
M  V30 20 1 10 20
M  V30 21 1 11 21
M  V30 22 1 11 22
M  V30 END BOND
M  V30 END CTAB
M  END
