
     RDKit          3D

  0  0  0  0  0  0  0  0  0  0999 V3000
M  V30 BEGIN CTAB
M  V30 COUNTS 45 46 0 0 0
M  V30 BEGIN ATOM
M  V30 1 C -3.97539 -0.753599 2.44018 0
M  V30 2 C -3.96516 -0.0225709 1.1296 0
M  V30 3 C -2.58848 0.441396 0.727046 0
M  V30 4 C -2.67699 1.16137 -0.595281 0
M  V30 5 C -2.41307 0.195425 -1.7126 0
M  V30 6 C -0.900862 -0.112286 -1.64737 0
M  V30 7 N -0.556829 -0.520181 -0.301301 0
M  V30 8 C -1.55991 -0.623724 0.744088 0
M  V30 9 C 0.779477 -0.830942 0.0258945 0
M  V30 10 O 1.00581 -1.1847 1.23723 0
M  V30 11 C 1.95818 -0.805563 -0.834491 0
M  V30 12 C 3.04494 0.0686249 -0.273413 0
M  V30 13 C 2.75755 1.31578 0.23564 0
M  V30 14 C 3.76051 2.11049 0.748077 0
M  V30 15 C 5.06114 1.68035 0.763002 0
M  V30 16 C 5.35957 0.433913 0.256018 0
M  V30 17 C 4.35432 -0.360965 -0.256852 0
M  V30 18 Br 6.50176 2.72446 1.45572 0
M  V30 19 N 1.7733 -0.427708 -2.18886 0
M  V30 20 C 2.52095 -2.23776 -0.855801 0
M  V30 21 N -4.88371 1.09492 1.24837 0
M  V30 22 H -3.5113 -0.190564 3.25831 0
M  V30 23 H -5.04646 -0.901908 2.72069 0
M  V30 24 H -3.56085 -1.79569 2.34719 0
M  V30 25 H -4.3799 -0.696381 0.351933 0
M  V30 26 H -2.30321 1.23338 1.48167 0
M  V30 27 H -1.83352 1.91255 -0.622046 0
M  V30 28 H -3.61533 1.70969 -0.692341 0
M  V30 29 H -2.97161 -0.746615 -1.6247 0
M  V30 30 H -2.57954 0.715807 -2.66711 0
M  V30 31 H -0.427405 0.81577 -1.98316 0
M  V30 32 H -0.708706 -0.939928 -2.3284 0
M  V30 33 H -1.02401 -0.604685 1.71298 0
M  V30 34 H -1.98685 -1.65966 0.655021 0
M  V30 35 H 1.73825 1.69007 0.240488 0
M  V30 36 H 3.56844 3.10661 1.16061 0
M  V30 37 H 6.38995 0.0533046 0.25012 0
M  V30 38 H 4.6059 -1.3416 -0.653058 0
M  V30 39 H 2.63789 0.0203276 -2.55269 0
M  V30 40 H 1.61829 -1.26759 -2.7901 0
M  V30 41 H 3.02261 -2.41166 0.107929 0
M  V30 42 H 1.6773 -2.94681 -0.930911 0
M  V30 43 H 3.16962 -2.31522 -1.73011 0
M  V30 44 H -4.44343 1.95599 1.61049 0
M  V30 45 H -5.39325 1.2581 0.332304 0
M  V30 END ATOM
M  V30 BEGIN BOND
M  V30 1 1 1 2
M  V30 2 1 2 3
M  V30 3 1 3 4
M  V30 4 1 4 5
M  V30 5 1 5 6
M  V30 6 1 6 7
M  V30 7 1 7 8
M  V30 8 1 7 9
M  V30 9 2 9 10
M  V30 10 1 9 11
M  V30 11 1 11 12
M  V30 12 2 12 13
M  V30 13 1 13 14
M  V30 14 2 14 15
M  V30 15 1 15 16
M  V30 16 2 16 17
M  V30 17 1 15 18
M  V30 18 1 11 19
M  V30 19 1 11 20
M  V30 20 1 2 21
M  V30 21 1 8 3
M  V30 22 1 17 12
M  V30 23 1 1 22
M  V30 24 1 1 23
M  V30 25 1 1 24
M  V30 26 1 2 25
M  V30 27 1 3 26
M  V30 28 1 4 27
M  V30 29 1 4 28
M  V30 30 1 5 29
M  V30 31 1 5 30
M  V30 32 1 6 31
M  V30 33 1 6 32
M  V30 34 1 8 33
M  V30 35 1 8 34
M  V30 36 1 13 35
M  V30 37 1 14 36
M  V30 38 1 16 37
M  V30 39 1 17 38
M  V30 40 1 19 39
M  V30 41 1 19 40
M  V30 42 1 20 41
M  V30 43 1 20 42
M  V30 44 1 20 43
M  V30 45 1 21 44
M  V30 46 1 21 45
M  V30 END BOND
M  V30 END CTAB
M  END
