
     RDKit          3D

  0  0  0  0  0  0  0  0  0  0999 V3000
M  V30 BEGIN CTAB
M  V30 COUNTS 50 53 0 0 0
M  V30 BEGIN ATOM
M  V30 1 O 0.220642 -0.541559 1.38501 0
M  V30 2 C 0.280329 -0.185495 0.187444 0
M  V30 3 N -0.909779 0.150652 -0.487793 0
M  V30 4 C -2.17519 0.083443 0.19648 0
M  V30 5 C -3.08136 -0.92254 -0.414726 0
M  V30 6 C -3.80179 -1.81278 0.35421 0
M  V30 7 C -4.65185 -2.75968 -0.174208 0
M  V30 8 C -4.79654 -2.82846 -1.54566 0
M  V30 9 C -4.09376 -1.95587 -2.35342 0
M  V30 10 C -3.24919 -1.01758 -1.79387 0
M  V30 11 C -2.82791 1.41592 0.296712 0
M  V30 12 C -2.05838 2.48542 0.669931 0
M  V30 13 C -2.5985 3.7672 0.786212 0
M  V30 14 C -3.92348 3.95358 0.520975 0
M  V30 15 C -4.7286 2.89763 0.142219 0
M  V30 16 C -4.16565 1.62345 0.0325236 0
M  V30 17 C 1.58097 -0.119954 -0.5041 0
M  V30 18 N 2.67289 -0.503359 0.361302 0
M  V30 19 C 2.64447 -1.81345 0.903886 0
M  V30 20 N 2.62143 -2.17395 2.1933 0
M  V30 21 O 2.60073 -3.46532 2.2437 0
M  V30 22 N 2.60878 -3.97907 1.06106 0
M  V30 23 C 2.63635 -2.97492 0.17426 0
M  V30 24 N 2.65439 -3.07542 -1.26184 0
M  V30 25 N 3.74794 0.313852 0.701924 0
M  V30 26 N 4.90735 -0.0780596 0.936653 0
M  V30 27 C 5.98708 0.800061 1.28473 0
M  V30 28 N 6.77971 0.75799 2.36919 0
M  V30 29 O 7.64457 1.72222 2.33313 0
M  V30 30 N 7.43239 2.39327 1.24642 0
M  V30 31 C 6.41285 1.87393 0.543726 0
M  V30 32 N 5.84741 2.28308 -0.687549 0
M  V30 33 H -0.92311 0.455403 -1.48929 0
M  V30 34 H -1.98732 -0.251473 1.2339 0
M  V30 35 H -3.70011 -1.77238 1.42796 0
M  V30 36 H -5.2097 -3.45144 0.454773 0
M  V30 37 H -5.47186 -3.58224 -1.94422 0
M  V30 38 H -4.22319 -2.0277 -3.4373 0
M  V30 39 H -2.69922 -0.334503 -2.42914 0
M  V30 40 H -1.01186 2.36991 0.885325 0
M  V30 41 H -2.00601 4.61385 1.07788 0
M  V30 42 H -4.38943 4.92814 0.596865 0
M  V30 43 H -5.77561 3.0676 -0.0631484 0
M  V30 44 H -4.75635 0.779652 -0.258218 0
M  V30 45 H 1.75216 0.971962 -0.738431 0
M  V30 46 H 1.60009 -0.714924 -1.43904 0
M  V30 47 H 1.83615 -3.51634 -1.73452 0
M  V30 48 H 3.43633 -2.73201 -1.8333 0
M  V30 49 H 6.48297 2.68005 -1.43499 0
M  V30 50 H 4.82777 2.20221 -0.87146 0
M  V30 END ATOM
M  V30 BEGIN BOND
M  V30 1 2 1 2
M  V30 2 1 2 3
M  V30 3 1 3 4
M  V30 4 1 4 5
M  V30 5 2 5 6
M  V30 6 1 6 7
M  V30 7 2 7 8
M  V30 8 1 8 9
M  V30 9 2 9 10
M  V30 10 1 4 11
M  V30 11 2 11 12
M  V30 12 1 12 13
M  V30 13 2 13 14
M  V30 14 1 14 15
M  V30 15 2 15 16
M  V30 16 1 2 17
M  V30 17 1 17 18
M  V30 18 1 18 19
M  V30 19 2 19 20
M  V30 20 1 20 21
M  V30 21 1 21 22
M  V30 22 2 22 23
M  V30 23 1 23 24
M  V30 24 1 18 25
M  V30 25 2 25 26
M  V30 26 1 26 27
M  V30 27 2 27 28
M  V30 28 1 28 29
M  V30 29 1 29 30
M  V30 30 2 30 31
M  V30 31 1 31 32
M  V30 32 1 10 5
M  V30 33 1 16 11
M  V30 34 1 23 19
M  V30 35 1 31 27
M  V30 36 1 3 33
M  V30 37 1 4 34
M  V30 38 1 6 35
M  V30 39 1 7 36
M  V30 40 1 8 37
M  V30 41 1 9 38
M  V30 42 1 10 39
M  V30 43 1 12 40
M  V30 44 1 13 41
M  V30 45 1 14 42
M  V30 46 1 15 43
M  V30 47 1 16 44
M  V30 48 1 17 45
M  V30 49 1 17 46
M  V30 50 1 24 47
M  V30 51 1 24 48
M  V30 52 1 32 49
M  V30 53 1 32 50
M  V30 END BOND
M  V30 END CTAB
M  END
