
     RDKit          3D

  0  0  0  0  0  0  0  0  0  0999 V3000
M  V30 BEGIN CTAB
M  V30 COUNTS 26 26 0 0 0
M  V30 BEGIN ATOM
M  V30 1 N -2.92275 -2.20104 0.852368 0
M  V30 2 C -2.38117 -1.89312 -0.457043 0
M  V30 3 C -1.2695 -0.911347 -0.38789 0
M  V30 4 C -1.5374 0.444488 -0.469737 0
M  V30 5 C -0.502739 1.36907 -0.405818 0
M  V30 6 O -0.82663 2.71586 -0.492807 0
M  V30 7 C 0.112731 3.74765 -0.442652 0
M  V30 8 C 0.769506 0.887108 -0.260951 0
M  V30 9 C 1.08703 -0.452488 -0.174884 0
M  V30 10 C 0.0307846 -1.34578 -0.242212 0
M  V30 11 S 2.73103 -1.0005 0.00924459 0
M  V30 12 O 2.8969 -2.28328 -0.723936 0
M  V30 13 O 3.61454 0.0295456 -0.671652 0
M  V30 14 N 3.21926 -1.15072 1.62435 0
M  V30 15 H -2.66288 -1.49773 1.57094 0
M  V30 16 H -3.95497 -2.37963 0.820586 0
M  V30 17 H -2.03365 -2.85413 -0.887593 0
M  V30 18 H -3.15275 -1.49279 -1.1527 0
M  V30 19 H -2.55672 0.789413 -0.584119 0
M  V30 20 H 0.892233 3.67042 -1.25304 0
M  V30 21 H 0.651185 3.79236 0.518635 0
M  V30 22 H -0.448516 4.7052 -0.648999 0
M  V30 23 H 1.57497 1.60332 -0.211043 0
M  V30 24 H 0.25862 -2.40207 -0.176568 0
M  V30 25 H 2.4888 -1.40866 2.29769 0
M  V30 26 H 3.92209 -0.481156 1.94982 0
M  V30 END ATOM
M  V30 BEGIN BOND
M  V30 1 1 1 2
M  V30 2 1 2 3
M  V30 3 2 3 4
M  V30 4 1 4 5
M  V30 5 1 5 6
M  V30 6 1 6 7
M  V30 7 2 5 8
M  V30 8 1 8 9
M  V30 9 2 9 10
M  V30 10 1 9 11
M  V30 11 2 11 12
M  V30 12 2 11 13
M  V30 13 1 11 14
M  V30 14 1 10 3
M  V30 15 1 1 15
M  V30 16 1 1 16
M  V30 17 1 2 17
M  V30 18 1 2 18
M  V30 19 1 4 19
M  V30 20 1 7 20
M  V30 21 1 7 21
M  V30 22 1 7 22
M  V30 23 1 8 23
M  V30 24 1 10 24
M  V30 25 1 14 25
M  V30 26 1 14 26
M  V30 END BOND
M  V30 END CTAB
M  END
