
     RDKit          3D

  0  0  0  0  0  0  0  0  0  0999 V3000
M  V30 BEGIN CTAB
M  V30 COUNTS 26 26 0 0 0
M  V30 BEGIN ATOM
M  V30 1 O -0.532973 -1.97686 -0.841506 0
M  V30 2 C -0.237782 -1.04156 0.00326847 0 CFG=2
M  V30 3 C -1.33666 -0.972509 1.03332 0
M  V30 4 C -2.5388 -0.336401 0.324119 0
M  V30 5 C -2.14928 1.11163 0.158197 0
M  V30 6 C -1.03377 1.21724 -0.807535 0
M  V30 7 C 0.0609542 0.230182 -0.674815 0 CFG=1
M  V30 8 N 1.21087 0.85011 0.0033757 0
M  V30 9 C 2.41112 0.419801 -0.198609 0
M  V30 10 N 2.67388 -0.663777 -1.07837 0
M  V30 11 N 3.46586 1.0596 0.483568 0
M  V30 12 H -0.845447 -2.099 -1.56953 0
M  V30 13 H 0.675136 -1.41202 0.558189 0
M  V30 14 H -1.55652 -1.97383 1.39996 0
M  V30 15 H -1.00683 -0.265799 1.82173 0
M  V30 16 H -3.46905 -0.486946 0.866753 0
M  V30 17 H -2.55105 -0.783297 -0.708598 0
M  V30 18 H -1.8781 1.51673 1.16255 0
M  V30 19 H -3.02401 1.68542 -0.267349 0
M  V30 20 H -0.593054 2.25181 -0.704828 0
M  V30 21 H -1.46878 1.21125 -1.847 0
M  V30 22 H 0.437554 -0.00135932 -1.70543 0
M  V30 23 H 2.38782 -0.65302 -2.07813 0
M  V30 24 H 3.17105 -1.48491 -0.68456 0
M  V30 25 H 3.85217 0.642384 1.36174 0
M  V30 26 H 3.87567 1.95511 0.12476 0
M  V30 END ATOM
M  V30 BEGIN BOND
M  V30 1 1 1 2
M  V30 2 1 2 3
M  V30 3 1 3 4
M  V30 4 1 4 5
M  V30 5 1 5 6
M  V30 6 1 6 7
M  V30 7 1 7 8
M  V30 8 2 8 9 CFG=2
M  V30 9 1 9 10
M  V30 10 1 9 11
M  V30 11 1 7 2
M  V30 12 1 1 12
M  V30 13 1 2 13 CFG=1
M  V30 14 1 3 14
M  V30 15 1 3 15
M  V30 16 1 4 16
M  V30 17 1 4 17
M  V30 18 1 5 18
M  V30 19 1 5 19
M  V30 20 1 6 20
M  V30 21 1 6 21
M  V30 22 1 7 22 CFG=3
M  V30 23 1 10 23
M  V30 24 1 10 24
M  V30 25 1 11 25
M  V30 26 1 11 26
M  V30 END BOND
M  V30 END CTAB
M  END
