
     RDKit          3D

  0  0  0  0  0  0  0  0  0  0999 V3000
M  V30 BEGIN CTAB
M  V30 COUNTS 28 28 0 0 0
M  V30 BEGIN ATOM
M  V30 1 C 4.46931 -0.857113 -0.653817 0
M  V30 2 O 3.48743 0.129863 -0.601569 0
M  V30 3 C 2.57112 0.248931 0.445727 0
M  V30 4 O 2.63958 -0.557847 1.37052 0
M  V30 5 C 1.5387 1.31627 0.443704 0
M  V30 6 C 0.218736 0.921073 -0.0157641 0
M  V30 7 C -0.208183 1.27748 -1.31729 0
M  V30 8 C -1.43744 0.90168 -1.80136 0
M  V30 9 C -2.28004 0.167832 -1.02751 0
M  V30 10 C -1.89728 -0.199221 0.259261 0
M  V30 11 C -0.654416 0.190549 0.724819 0
M  V30 12 N -0.318739 -0.237004 2.05687 0
M  V30 13 C -2.81487 -1.00194 1.09559 0
M  V30 14 F -4.04376 -0.343102 1.28006 0
M  V30 15 F -3.0374 -2.25228 0.570485 0
M  V30 16 F -2.31305 -1.18312 2.35938 0
M  V30 17 N -3.57121 -0.269984 -1.47359 0
M  V30 18 H 4.17477 -1.72294 0.00296647 0
M  V30 19 H 5.4472 -0.536575 -0.309378 0
M  V30 20 H 4.48621 -1.30962 -1.69106 0
M  V30 21 H 1.47406 1.70872 1.47201 0
M  V30 22 H 1.88344 2.17256 -0.215433 0
M  V30 23 H 0.451801 1.85853 -1.91126 0
M  V30 24 H -1.76147 1.18676 -2.80628 0
M  V30 25 H -0.453078 0.407125 2.87164 0
M  V30 26 H 0.0515808 -1.2016 2.14401 0
M  V30 27 H -3.78966 -1.26375 -1.64604 0
M  V30 28 H -4.31333 0.448731 -1.62671 0
M  V30 END ATOM
M  V30 BEGIN BOND
M  V30 1 1 1 2
M  V30 2 1 2 3
M  V30 3 2 3 4
M  V30 4 1 3 5
M  V30 5 1 5 6
M  V30 6 2 6 7
M  V30 7 1 7 8
M  V30 8 2 8 9
M  V30 9 1 9 10
M  V30 10 2 10 11
M  V30 11 1 11 12
M  V30 12 1 10 13
M  V30 13 1 13 14
M  V30 14 1 13 15
M  V30 15 1 13 16
M  V30 16 1 9 17
M  V30 17 1 11 6
M  V30 18 1 1 18
M  V30 19 1 1 19
M  V30 20 1 1 20
M  V30 21 1 5 21
M  V30 22 1 5 22
M  V30 23 1 7 23
M  V30 24 1 8 24
M  V30 25 1 12 25
M  V30 26 1 12 26
M  V30 27 1 17 27
M  V30 28 1 17 28
M  V30 END BOND
M  V30 END CTAB
M  END
