
     RDKit          3D

  0  0  0  0  0  0  0  0  0  0999 V3000
M  V30 BEGIN CTAB
M  V30 COUNTS 52 51 0 0 0
M  V30 BEGIN ATOM
M  V30 1 C 1.80725 1.06043 0.0969786 0 CFG=1
M  V30 2 N 1.94845 -0.349582 0.203981 0
M  V30 3 C 2.51798 1.63323 -1.05513 0
M  V30 4 C 3.96762 1.619 -1.21982 0
M  V30 5 C 4.75342 0.385098 -1.19166 0
M  V30 6 N 4.90094 -0.273633 0.0746535 0
M  V30 7 C 5.51514 -1.56463 0.138513 0
M  V30 8 N 6.68183 -1.69572 0.934428 0
M  V30 9 N 5.00942 -2.5458 -0.508952 0
M  V30 10 C 0.362084 1.47511 0.131644 0
M  V30 11 O 0.105727 2.69601 0.0971668 0
M  V30 12 N -0.704562 0.550929 0.200709 0
M  V30 13 C -2.07378 0.958932 0.234996 0 CFG=1
M  V30 14 C -2.82547 0.776475 -1.05596 0
M  V30 15 C -2.93263 -0.595509 -1.58867 0
M  V30 16 C -1.6784 -1.31178 -1.92334 0
M  V30 17 C -3.75967 -0.488106 -2.88088 0
M  V30 18 C -2.80891 0.396117 1.39282 0
M  V30 19 O -2.25323 -0.385971 2.20547 0
M  V30 20 N -4.16873 0.721948 1.6241 0
M  V30 21 C -4.93711 0.212446 2.71994 0
M  V30 22 C -4.42801 0.550171 4.05495 0
M  V30 23 O -5.09335 0.0897 5.18788 0
M  V30 24 O -3.40029 1.24871 4.25274 0
M  V30 25 H 2.20325 1.47434 1.08496 0
M  V30 26 H 1.93367 -0.709979 1.16317 0
M  V30 27 H 1.42121 -0.902662 -0.497411 0
M  V30 28 H 2.20875 2.75483 -1.1494 0
M  V30 29 H 2.03694 1.25413 -2.03983 0
M  V30 30 H 4.19295 2.20916 -2.19488 0
M  V30 31 H 4.40686 2.37799 -0.456285 0
M  V30 32 H 5.82505 0.649723 -1.4952 0
M  V30 33 H 4.43341 -0.346223 -1.99188 0
M  V30 34 H 4.61437 0.155129 0.988713 0
M  V30 35 H 6.60038 -1.73747 1.96818 0
M  V30 36 H 7.58343 -1.7456 0.449297 0
M  V30 37 H 5.42505 -3.49214 -0.486866 0
M  V30 38 H -0.466376 -0.458051 0.239443 0
M  V30 39 H -2.06774 2.0841 0.384046 0
M  V30 40 H -2.37238 1.48564 -1.78471 0
M  V30 41 H -3.85364 1.16115 -0.895521 0
M  V30 42 H -3.49928 -1.23916 -0.872683 0
M  V30 43 H -1.81453 -1.84737 -2.88891 0
M  V30 44 H -1.40768 -2.11026 -1.19907 0
M  V30 45 H -0.806265 -0.620998 -2.12127 0
M  V30 46 H -3.05943 -0.0839246 -3.65561 0
M  V30 47 H -4.59785 0.202955 -2.7765 0
M  V30 48 H -4.02388 -1.49938 -3.2038 0
M  V30 49 H -4.64204 1.38508 0.945557 0
M  V30 50 H -5.98198 0.63558 2.6753 0
M  V30 51 H -5.07022 -0.88638 2.5769 0
M  V30 52 H -5.72771 -0.707475 5.1077 0
M  V30 END ATOM
M  V30 BEGIN BOND
M  V30 1 1 1 2
M  V30 2 1 1 3
M  V30 3 1 3 4
M  V30 4 1 4 5
M  V30 5 1 5 6
M  V30 6 1 6 7
M  V30 7 1 7 8
M  V30 8 2 7 9 CFG=2
M  V30 9 1 1 10
M  V30 10 2 10 11
M  V30 11 1 10 12
M  V30 12 1 12 13
M  V30 13 1 13 14
M  V30 14 1 14 15
M  V30 15 1 15 16
M  V30 16 1 15 17
M  V30 17 1 13 18
M  V30 18 2 18 19
M  V30 19 1 18 20
M  V30 20 1 20 21
M  V30 21 1 21 22
M  V30 22 1 22 23
M  V30 23 2 22 24
M  V30 24 1 1 25 CFG=1
M  V30 25 1 2 26
M  V30 26 1 2 27
M  V30 27 1 3 28
M  V30 28 1 3 29
M  V30 29 1 4 30
M  V30 30 1 4 31
M  V30 31 1 5 32
M  V30 32 1 5 33
M  V30 33 1 6 34
M  V30 34 1 8 35
M  V30 35 1 8 36
M  V30 36 1 9 37
M  V30 37 1 12 38
M  V30 38 1 13 39 CFG=1
M  V30 39 1 14 40
M  V30 40 1 14 41
M  V30 41 1 15 42
M  V30 42 1 16 43
M  V30 43 1 16 44
M  V30 44 1 16 45
M  V30 45 1 17 46
M  V30 46 1 17 47
M  V30 47 1 17 48
M  V30 48 1 20 49
M  V30 49 1 21 50
M  V30 50 1 21 51
M  V30 51 1 23 52
M  V30 END BOND
M  V30 END CTAB
M  END
