
     RDKit          3D

  0  0  0  0  0  0  0  0  0  0999 V3000
M  V30 BEGIN CTAB
M  V30 COUNTS 26 26 0 0 0
M  V30 BEGIN ATOM
M  V30 1 N 4.79017 0.148688 0.0480784 0
M  V30 2 C 3.35296 -0.0582734 -0.113358 0
M  V30 3 C 2.58635 1.13058 0.382472 0
M  V30 4 N 1.1703 0.922531 0.20181 0
M  V30 5 C 0.456998 -0.0897393 0.84005 0
M  V30 6 O 1.11878 -0.837963 1.63324 0
M  V30 7 C -0.980298 -0.344939 0.665776 0
M  V30 8 C -1.60438 -1.03004 1.71609 0
M  V30 9 C -2.9413 -1.27456 1.63933 0
M  V30 10 C -3.66851 -0.856218 0.548777 0
M  V30 11 C -3.08732 -0.185266 -0.493051 0
M  V30 12 C -1.70926 0.0661225 -0.413877 0
M  V30 13 F -1.15854 0.709288 -1.4803 0
M  V30 14 N -3.81668 0.259229 -1.6341 0
M  V30 15 H 4.98912 1.08758 0.46354 0
M  V30 16 H 5.24199 0.0169228 -0.880743 0
M  V30 17 H 3.08576 -0.196743 -1.18223 0
M  V30 18 H 3.11066 -0.95289 0.463467 0
M  V30 19 H 2.91278 2.07264 -0.121632 0
M  V30 20 H 2.85078 1.2468 1.46051 0
M  V30 21 H 0.653531 1.59058 -0.43644 0
M  V30 22 H -0.993852 -1.35024 2.5738 0
M  V30 23 H -3.41259 -1.81321 2.47292 0
M  V30 24 H -4.73924 -1.06256 0.508163 0
M  V30 25 H -3.56709 1.10832 -2.18289 0
M  V30 26 H -4.64112 -0.306648 -1.92169 0
M  V30 END ATOM
M  V30 BEGIN BOND
M  V30 1 1 1 2
M  V30 2 1 2 3
M  V30 3 1 3 4
M  V30 4 1 4 5
M  V30 5 2 5 6
M  V30 6 1 5 7
M  V30 7 2 7 8
M  V30 8 1 8 9
M  V30 9 2 9 10
M  V30 10 1 10 11
M  V30 11 2 11 12
M  V30 12 1 12 13
M  V30 13 1 11 14
M  V30 14 1 12 7
M  V30 15 1 1 15
M  V30 16 1 1 16
M  V30 17 1 2 17
M  V30 18 1 2 18
M  V30 19 1 3 19
M  V30 20 1 3 20
M  V30 21 1 4 21
M  V30 22 1 8 22
M  V30 23 1 9 23
M  V30 24 1 10 24
M  V30 25 1 14 25
M  V30 26 1 14 26
M  V30 END BOND
M  V30 END CTAB
M  END
