
     RDKit          3D

  0  0  0  0  0  0  0  0  0  0999 V3000
M  V30 BEGIN CTAB
M  V30 COUNTS 50 53 0 0 0
M  V30 BEGIN ATOM
M  V30 1 C -8.37086 -0.817229 -1.70492 0
M  V30 2 C -7.07025 -0.554653 -1.00823 0
M  V30 3 C -5.97366 -0.144422 -1.75643 0
M  V30 4 C -4.74833 0.117849 -1.20353 0
M  V30 5 C -4.5857 -0.0293428 0.159007 0
M  V30 6 C -5.67161 -0.436426 0.905268 0
M  V30 7 C -6.90096 -0.697415 0.335408 0
M  V30 8 C -3.26298 0.248403 0.777249 0
M  V30 9 N -2.16859 -0.205351 0.252665 0
M  V30 10 C -1.00371 0.0602775 0.818119 0
M  V30 11 S -1.45461 1.00089 2.16618 0
M  V30 12 C -3.16373 0.99837 1.91781 0
M  V30 13 C -4.23844 1.64854 2.73758 0
M  V30 14 C 0.301286 -0.391888 0.327595 0
M  V30 15 C 1.44289 0.31698 0.354575 0
M  V30 16 N 1.52015 1.61741 0.872706 0
M  V30 17 N 2.50869 -0.455512 -0.216873 0
M  V30 18 C 1.88688 -1.50685 -1.0458 0
M  V30 19 C 0.616703 -1.67631 -0.281309 0
M  V30 20 O -0.0904676 -2.72818 -0.157533 0
M  V30 21 C 3.9119 -0.32806 -0.0698947 0
M  V30 22 C 4.47622 0.487611 0.895895 0
M  V30 23 C 5.85413 0.568737 0.969101 0
M  V30 24 C 6.66334 -0.132031 0.117649 0
M  V30 25 C 6.09167 -0.944533 -0.843395 0
M  V30 26 C 4.72902 -1.04441 -0.939872 0
M  V30 27 S 8.42615 -0.0375052 0.197936 0
M  V30 28 O 8.99983 -1.34394 -0.30901 0
M  V30 29 O 8.88683 0.254566 1.59687 0
M  V30 30 N 8.97781 1.23285 -0.829905 0
M  V30 31 H -8.12215 -1.45549 -2.57268 0
M  V30 32 H -8.81486 0.115793 -2.09876 0
M  V30 33 H -9.07569 -1.30317 -1.03305 0
M  V30 34 H -6.09944 -0.0278557 -2.83173 0
M  V30 35 H -3.87905 0.438806 -1.76715 0
M  V30 36 H -5.54221 -0.556601 1.9926 0
M  V30 37 H -7.72445 -1.01235 0.946409 0
M  V30 38 H -4.51631 0.953304 3.54441 0
M  V30 39 H -3.84399 2.60361 3.14386 0
M  V30 40 H -5.08681 1.89992 2.06869 0
M  V30 41 H 1.72458 2.40027 0.191522 0
M  V30 42 H 1.39917 1.90516 1.85649 0
M  V30 43 H 1.7462 -1.19093 -2.0795 0
M  V30 44 H 2.47994 -2.43916 -0.912251 0
M  V30 45 H 3.85602 1.06117 1.60233 0
M  V30 46 H 6.29043 1.21409 1.73297 0
M  V30 47 H 6.71753 -1.52089 -1.54268 0
M  V30 48 H 4.30319 -1.70083 -1.71699 0
M  V30 49 H 8.28941 1.48476 -1.57302 0
M  V30 50 H 9.30888 2.05198 -0.273071 0
M  V30 END ATOM
M  V30 BEGIN BOND
M  V30 1 1 1 2
M  V30 2 2 2 3
M  V30 3 1 3 4
M  V30 4 2 4 5
M  V30 5 1 5 6
M  V30 6 2 6 7
M  V30 7 1 5 8
M  V30 8 1 8 9
M  V30 9 2 9 10
M  V30 10 1 10 11
M  V30 11 1 11 12
M  V30 12 1 12 13
M  V30 13 1 10 14
M  V30 14 2 14 15
M  V30 15 1 15 16
M  V30 16 1 15 17
M  V30 17 1 17 18
M  V30 18 1 18 19
M  V30 19 2 19 20
M  V30 20 1 17 21
M  V30 21 2 21 22
M  V30 22 1 22 23
M  V30 23 2 23 24
M  V30 24 1 24 25
M  V30 25 2 25 26
M  V30 26 1 24 27
M  V30 27 2 27 28
M  V30 28 2 27 29
M  V30 29 1 27 30
M  V30 30 1 7 2
M  V30 31 2 12 8
M  V30 32 1 19 14
M  V30 33 1 26 21
M  V30 34 1 1 31
M  V30 35 1 1 32
M  V30 36 1 1 33
M  V30 37 1 3 34
M  V30 38 1 4 35
M  V30 39 1 6 36
M  V30 40 1 7 37
M  V30 41 1 13 38
M  V30 42 1 13 39
M  V30 43 1 13 40
M  V30 44 1 16 41
M  V30 45 1 16 42
M  V30 46 1 18 43
M  V30 47 1 18 44
M  V30 48 1 22 45
M  V30 49 1 23 46
M  V30 50 1 25 47
M  V30 51 1 26 48
M  V30 52 1 30 49
M  V30 53 1 30 50
M  V30 END BOND
M  V30 END CTAB
M  END
