
     RDKit          3D

  0  0  0  0  0  0  0  0  0  0999 V3000
M  V30 BEGIN CTAB
M  V30 COUNTS 48 49 0 0 0
M  V30 BEGIN ATOM
M  V30 1 C 1.36049 -1.66374 -0.945216 0
M  V30 2 C 1.42969 -0.170878 -1.16005 0
M  V30 3 C 2.8241 0.276715 -1.41101 0
M  V30 4 C 3.81606 0.00358402 -0.35748 0
M  V30 5 C 4.30306 -1.26928 -0.0834988 0
M  V30 6 C 5.26051 -1.51707 0.892561 0
M  V30 7 C 5.76617 -0.489772 1.63204 0
M  V30 8 C 5.32053 0.778747 1.40027 0
M  V30 9 C 4.3611 1.00665 0.418112 0
M  V30 10 N 3.30708 -0.284195 -2.70214 0
M  V30 11 C 0.723747 0.635242 -0.179101 0
M  V30 12 O 1.35872 1.42097 0.557149 0
M  V30 13 N -0.694565 0.591313 0.0103673 0
M  V30 14 C -1.27182 1.43778 1.02557 0
M  V30 15 C -2.58491 0.860273 1.50495 0
M  V30 16 C -3.58021 0.825731 0.385616 0
M  V30 17 C -2.96548 0.401774 -0.898233 0
M  V30 18 C -1.59325 -0.241107 -0.749805 0
M  V30 19 C -4.81023 0.0400318 0.766997 0
M  V30 20 N -5.78687 -0.0163822 -0.277144 0
M  V30 21 C -4.48538 -1.37234 1.18365 0
M  V30 22 H 1.70323 -1.93553 0.0529477 0
M  V30 23 H 0.324515 -2.06149 -1.03105 0
M  V30 24 H 1.90964 -2.13006 -1.78821 0
M  V30 25 H 0.869834 0.0278247 -2.14625 0
M  V30 26 H 2.7931 1.38077 -1.60913 0
M  V30 27 H 3.96543 -2.11582 -0.622904 0
M  V30 28 H 5.61311 -2.53404 1.07292 0
M  V30 29 H 6.51706 -0.732239 2.38857 0
M  V30 30 H 5.73655 1.5775 1.99938 0
M  V30 31 H 4.08435 2.04658 0.299612 0
M  V30 32 H 3.69742 -1.22922 -2.55152 0
M  V30 33 H 2.43147 -0.406852 -3.27032 0
M  V30 34 H -1.52699 2.4259 0.551275 0
M  V30 35 H -0.599575 1.66863 1.85677 0
M  V30 36 H -2.42474 -0.168929 1.90567 0
M  V30 37 H -2.93913 1.48535 2.33567 0
M  V30 38 H -3.93341 1.89034 0.246212 0
M  V30 39 H -3.57577 -0.323929 -1.47869 0
M  V30 40 H -2.80647 1.26744 -1.60693 0
M  V30 41 H -1.74038 -1.17848 -0.190296 0
M  V30 42 H -1.23695 -0.411371 -1.78983 0
M  V30 43 H -5.27169 0.546598 1.6429 0
M  V30 44 H -5.47962 0.349982 -1.18733 0
M  V30 45 H -6.74006 0.294655 0.00691991 0
M  V30 46 H -4.01485 -1.41529 2.18249 0
M  V30 47 H -5.47664 -1.89286 1.30459 0
M  V30 48 H -3.93798 -1.92886 0.412955 0
M  V30 END ATOM
M  V30 BEGIN BOND
M  V30 1 1 1 2
M  V30 2 1 2 3
M  V30 3 1 3 4
M  V30 4 2 4 5
M  V30 5 1 5 6
M  V30 6 2 6 7
M  V30 7 1 7 8
M  V30 8 2 8 9
M  V30 9 1 3 10
M  V30 10 1 2 11
M  V30 11 2 11 12
M  V30 12 1 11 13
M  V30 13 1 13 14
M  V30 14 1 14 15
M  V30 15 1 15 16
M  V30 16 1 16 17
M  V30 17 1 17 18
M  V30 18 1 16 19
M  V30 19 1 19 20
M  V30 20 1 19 21
M  V30 21 1 9 4
M  V30 22 1 18 13
M  V30 23 1 1 22
M  V30 24 1 1 23
M  V30 25 1 1 24
M  V30 26 1 2 25
M  V30 27 1 3 26
M  V30 28 1 5 27
M  V30 29 1 6 28
M  V30 30 1 7 29
M  V30 31 1 8 30
M  V30 32 1 9 31
M  V30 33 1 10 32
M  V30 34 1 10 33
M  V30 35 1 14 34
M  V30 36 1 14 35
M  V30 37 1 15 36
M  V30 38 1 15 37
M  V30 39 1 16 38
M  V30 40 1 17 39
M  V30 41 1 17 40
M  V30 42 1 18 41
M  V30 43 1 18 42
M  V30 44 1 19 43
M  V30 45 1 20 44
M  V30 46 1 20 45
M  V30 47 1 21 46
M  V30 48 1 21 47
M  V30 49 1 21 48
M  V30 END BOND
M  V30 END CTAB
M  END
