
     RDKit          3D

  0  0  0  0  0  0  0  0  0  0999 V3000
M  V30 BEGIN CTAB
M  V30 COUNTS 30 31 0 0 0
M  V30 BEGIN ATOM
M  V30 1 N -3.32543 -0.288943 1.40037 0
M  V30 2 C -2.80162 1.00916 1.11243 0
M  V30 3 C -1.67291 0.977469 0.0869344 0
M  V30 4 C -2.14605 0.405512 -1.19132 0
M  V30 5 C -1.06044 -0.178048 -2.05737 0
M  V30 6 C 0.275766 0.386152 -1.62473 0
M  V30 7 C 0.554226 -0.141986 -0.249945 0
M  V30 8 C -0.488775 0.342257 0.702211 0
M  V30 9 C 1.93513 0.218214 0.166652 0
M  V30 10 O 2.40017 1.43168 0.337007 0
M  V30 11 N 3.64488 1.41159 0.703028 0
M  V30 12 C 4.05217 0.147694 0.788188 0
M  V30 13 N 2.97441 -0.602133 0.450146 0
M  V30 14 N 5.34701 -0.324578 1.15652 0
M  V30 15 H -4.33779 -0.394754 1.17312 0
M  V30 16 H -2.73974 -1.08083 1.12388 0
M  V30 17 H -2.45682 1.45565 2.06858 0
M  V30 18 H -3.63454 1.67787 0.763439 0
M  V30 19 H -1.42272 2.06397 -0.0959473 0
M  V30 20 H -2.63088 1.21156 -1.7983 0
M  V30 21 H -2.93445 -0.385298 -1.07763 0
M  V30 22 H -0.996081 -1.28419 -1.90888 0
M  V30 23 H -1.22618 -0.012093 -3.14002 0
M  V30 24 H 1.03809 -0.0820812 -2.30819 0
M  V30 25 H 0.310845 1.47731 -1.62949 0
M  V30 26 H 0.511968 -1.24895 -0.29283 0
M  V30 27 H -0.00427341 1.09833 1.38691 0
M  V30 28 H -0.804654 -0.483976 1.37028 0
M  V30 29 H 6.00181 0.326817 1.62381 0
M  V30 30 H 5.63688 -1.3104 0.961154 0
M  V30 END ATOM
M  V30 BEGIN BOND
M  V30 1 1 1 2
M  V30 2 1 2 3
M  V30 3 1 3 4
M  V30 4 1 4 5
M  V30 5 1 5 6
M  V30 6 1 6 7
M  V30 7 1 7 8
M  V30 8 1 7 9
M  V30 9 1 9 10
M  V30 10 1 10 11
M  V30 11 2 11 12
M  V30 12 1 12 13
M  V30 13 1 12 14
M  V30 14 1 8 3
M  V30 15 2 13 9
M  V30 16 1 1 15
M  V30 17 1 1 16
M  V30 18 1 2 17
M  V30 19 1 2 18
M  V30 20 1 3 19
M  V30 21 1 4 20
M  V30 22 1 4 21
M  V30 23 1 5 22
M  V30 24 1 5 23
M  V30 25 1 6 24
M  V30 26 1 6 25
M  V30 27 1 7 26
M  V30 28 1 8 27
M  V30 29 1 8 28
M  V30 30 1 14 29
M  V30 31 1 14 30
M  V30 END BOND
M  V30 END CTAB
M  END
