
     RDKit          3D

  0  0  0  0  0  0  0  0  0  0999 V3000
M  V30 BEGIN CTAB
M  V30 COUNTS 25 26 0 0 0
M  V30 BEGIN ATOM
M  V30 1 N -2.89416 -0.731014 2.06123 0
M  V30 2 C -2.08124 -0.361494 0.978053 0
M  V30 3 N -0.730879 -0.365579 1.07535 0
M  V30 4 C 0.0592526 -0.0175885 0.0568585 0
M  V30 5 N -0.538908 0.34415 -1.09098 0
M  V30 6 C -1.87528 0.369517 -1.25272 0
M  V30 7 N -2.44578 0.766585 -2.50729 0
M  V30 8 C -2.68986 0.00964089 -0.199287 0
M  V30 9 C -4.12676 0.0189503 -0.318056 0
M  V30 10 N -5.29135 0.0416593 -0.408996 0
M  V30 11 C 1.51767 -0.00630304 0.113749 0
M  V30 12 C 2.12199 -0.378119 1.29281 0
M  V30 13 C 3.49004 -0.377328 1.37624 0
M  V30 14 C 4.27147 -0.0131262 0.307503 0
M  V30 15 C 3.67186 0.359047 -0.872358 0
M  V30 16 C 2.296 0.356449 -0.950727 0
M  V30 17 H -3.10002 -1.72415 2.24173 0
M  V30 18 H -3.28917 -0.00918642 2.68154 0
M  V30 19 H -2.49943 1.77159 -2.75872 0
M  V30 20 H -2.79524 0.0298546 -3.14062 0
M  V30 21 H 1.55176 -0.676224 2.17195 0
M  V30 22 H 3.93631 -0.676042 2.32102 0
M  V30 23 H 5.34642 -0.0324151 0.434152 0
M  V30 24 H 4.28814 0.647563 -1.71915 0
M  V30 25 H 1.80718 0.653569 -1.89328 0
M  V30 END ATOM
M  V30 BEGIN BOND
M  V30 1 1 1 2
M  V30 2 2 2 3
M  V30 3 1 3 4
M  V30 4 2 4 5
M  V30 5 1 5 6
M  V30 6 1 6 7
M  V30 7 2 6 8
M  V30 8 1 8 9
M  V30 9 3 9 10
M  V30 10 1 4 11
M  V30 11 2 11 12
M  V30 12 1 12 13
M  V30 13 2 13 14
M  V30 14 1 14 15
M  V30 15 2 15 16
M  V30 16 1 8 2
M  V30 17 1 16 11
M  V30 18 1 1 17
M  V30 19 1 1 18
M  V30 20 1 7 19
M  V30 21 1 7 20
M  V30 22 1 12 21
M  V30 23 1 13 22
M  V30 24 1 14 23
M  V30 25 1 15 24
M  V30 26 1 16 25
M  V30 END BOND
M  V30 END CTAB
M  END
