
     RDKit          3D

  0  0  0  0  0  0  0  0  0  0999 V3000
M  V30 BEGIN CTAB
M  V30 COUNTS 54 57 0 0 0
M  V30 BEGIN ATOM
M  V30 1 C -6.06938 -1.61072 -3.08209 0
M  V30 2 O -6.28539 -0.581704 -2.16471 0
M  V30 3 C -5.35453 -0.181727 -1.21352 0
M  V30 4 C -4.11429 -0.772924 -1.08728 0
M  V30 5 C -3.19189 -0.356738 -0.124557 0
M  V30 6 C -3.50779 0.672538 0.735236 0
M  V30 7 C -4.74828 1.26031 0.60538 0
M  V30 8 C -5.672 0.848535 -0.353625 0
M  V30 9 O -6.91582 1.45349 -0.467972 0
M  V30 10 C -7.22639 2.51917 0.431544 0
M  V30 11 C -2.5859 1.07104 1.67943 0
M  V30 12 N -2.92576 2.12355 2.54931 0
M  V30 13 N -1.40664 0.425198 1.71435 0
M  V30 14 C -1.07338 -0.577801 0.891398 0
M  V30 15 N -1.98417 -0.949552 -0.0191696 0
M  V30 16 N 0.197259 -1.19068 1.01356 0
M  V30 17 C 1.14676 -0.751986 2.01445 0
M  V30 18 C 2.46253 -0.366341 1.32573 0
M  V30 19 N 2.92162 -1.43476 0.510667 0
M  V30 20 C 2.04312 -2.64434 0.513868 0
M  V30 21 C 0.625869 -2.27769 0.162252 0
M  V30 22 C 4.07518 -1.44551 -0.257834 0
M  V30 23 O 4.2352 -2.58266 -0.906068 0
M  V30 24 C 5.09432 -0.463602 -0.463527 0
M  V30 25 C 5.17498 0.793756 0.0709465 0
M  V30 26 C 6.23228 1.68073 -0.199471 0
M  V30 27 C 7.24836 1.31515 -1.02774 0
M  V30 28 N 8.29337 2.23983 -1.27274 0
M  V30 29 C 7.20619 0.0617844 -1.5854 0
M  V30 30 C 6.17527 -0.793259 -1.31713 0
M  V30 31 H -6.74749 -1.42227 -3.95433 0
M  V30 32 H -5.02706 -1.59535 -3.4781 0
M  V30 33 H -6.27465 -2.6171 -2.71185 0
M  V30 34 H -3.85064 -1.59655 -1.76913 0
M  V30 35 H -4.98528 2.06097 1.27937 0
M  V30 36 H -8.28129 2.84133 0.303422 0
M  V30 37 H -7.02495 2.21073 1.48932 0
M  V30 38 H -6.59859 3.40952 0.24853 0
M  V30 39 H -3.39557 1.92342 3.44622 0
M  V30 40 H -2.70024 3.09769 2.28084 0
M  V30 41 H 1.33506 -1.5837 2.69702 0
M  V30 42 H 0.734758 0.128507 2.56221 0
M  V30 43 H 2.21144 0.561196 0.761745 0
M  V30 44 H 3.15647 -0.0941354 2.16435 0
M  V30 45 H 2.50002 -3.37608 -0.174515 0
M  V30 46 H 2.1298 -3.05494 1.53709 0
M  V30 47 H 0.518965 -2.0713 -0.901122 0
M  V30 48 H -0.00248263 -3.15721 0.449891 0
M  V30 49 H 4.39586 1.13744 0.73365 0
M  V30 50 H 6.21362 2.65309 0.266493 0
M  V30 51 H 8.17801 3.24431 -1.44924 0
M  V30 52 H 9.27847 1.85999 -1.27351 0
M  V30 53 H 8.00527 -0.251604 -2.24876 0
M  V30 54 H 6.15974 -1.79103 -1.77273 0
M  V30 END ATOM
M  V30 BEGIN BOND
M  V30 1 1 1 2
M  V30 2 1 2 3
M  V30 3 2 3 4
M  V30 4 1 4 5
M  V30 5 2 5 6
M  V30 6 1 6 7
M  V30 7 2 7 8
M  V30 8 1 8 9
M  V30 9 1 9 10
M  V30 10 1 6 11
M  V30 11 1 11 12
M  V30 12 2 11 13
M  V30 13 1 13 14
M  V30 14 2 14 15
M  V30 15 1 14 16
M  V30 16 1 16 17
M  V30 17 1 17 18
M  V30 18 1 18 19
M  V30 19 1 19 20
M  V30 20 1 20 21
M  V30 21 1 19 22
M  V30 22 2 22 23
M  V30 23 1 22 24
M  V30 24 2 24 25
M  V30 25 1 25 26
M  V30 26 2 26 27
M  V30 27 1 27 28
M  V30 28 1 27 29
M  V30 29 2 29 30
M  V30 30 1 8 3
M  V30 31 1 21 16
M  V30 32 1 30 24
M  V30 33 1 15 5
M  V30 34 1 1 31
M  V30 35 1 1 32
M  V30 36 1 1 33
M  V30 37 1 4 34
M  V30 38 1 7 35
M  V30 39 1 10 36
M  V30 40 1 10 37
M  V30 41 1 10 38
M  V30 42 1 12 39
M  V30 43 1 12 40
M  V30 44 1 17 41
M  V30 45 1 17 42
M  V30 46 1 18 43
M  V30 47 1 18 44
M  V30 48 1 20 45
M  V30 49 1 20 46
M  V30 50 1 21 47
M  V30 51 1 21 48
M  V30 52 1 25 49
M  V30 53 1 26 50
M  V30 54 1 28 51
M  V30 55 1 28 52
M  V30 56 1 29 53
M  V30 57 1 30 54
M  V30 END BOND
M  V30 END CTAB
M  END
