
     RDKit          3D

  0  0  0  0  0  0  0  0  0  0999 V3000
M  V30 BEGIN CTAB
M  V30 COUNTS 84 83 0 0 0
M  V30 BEGIN ATOM
M  V30 1 C -8.4017 3.15469 -1.63599 0
M  V30 2 C -8.05131 4.60858 -1.81465 0
M  V30 3 O -6.73091 4.71873 -2.29603 0
M  V30 4 C -5.62822 4.24483 -1.617 0
M  V30 5 O -5.75926 3.68013 -0.514081 0
M  V30 6 C -4.30849 4.43635 -2.24716 0
M  V30 7 N -3.29399 3.82952 -1.43341 0
M  V30 8 C -3.28682 2.44297 -1.20995 0
M  V30 9 O -4.1888 1.73089 -1.74668 0
M  V30 10 C -2.23091 1.85191 -0.356721 0 CFG=2
M  V30 11 C -0.858067 2.33 -0.611947 0
M  V30 12 S -0.118787 2.17225 -2.15882 0
M  V30 13 S 0.456597 0.42215 -3.02058 0
M  V30 14 C 2.11177 -0.156507 -2.61463 0
M  V30 15 C 2.10198 -0.760926 -1.2264 0 CFG=2
M  V30 16 N 3.51107 -1.07434 -0.88164 0
M  V30 17 C 4.09272 -0.498176 0.283426 0
M  V30 18 O 3.37676 0.26042 0.971855 0
M  V30 19 C 5.49566 -0.750506 0.720231 0
M  V30 20 C 5.7261 -0.00543039 1.98202 0
M  V30 21 C 7.08073 -0.146169 2.59725 0 CFG=2
M  V30 22 N 7.08644 0.657168 3.83108 0
M  V30 23 C 8.11757 0.355053 1.69201 0
M  V30 24 O 8.69876 1.44568 1.97 0
M  V30 25 O 8.51166 -0.28076 0.552562 0
M  V30 26 C 9.52202 0.205893 -0.319285 0
M  V30 27 C 9.17819 1.56914 -0.880035 0
M  V30 28 C 1.4961 -2.13001 -1.25866 0
M  V30 29 O 2.19105 -3.16872 -0.989888 0
M  V30 30 N 0.147706 -2.35311 -1.58563 0
M  V30 31 C -0.390095 -3.71497 -1.61797 0
M  V30 32 C -1.79921 -3.70942 -2.0257 0
M  V30 33 O -2.49998 -4.94012 -2.09472 0
M  V30 34 O -2.48644 -2.71502 -2.33372 0
M  V30 35 N -2.39485 0.439575 -0.278236 0
M  V30 36 C -2.80581 -0.136737 0.965412 0
M  V30 37 O -3.01623 0.608813 1.96855 0
M  V30 38 C -2.98262 -1.594 1.06732 0
M  V30 39 C -3.49754 -1.90765 2.45925 0
M  V30 40 C -3.67441 -3.40255 2.55778 0 CFG=2
M  V30 41 N -4.64532 -3.77098 1.51626 0
M  V30 42 C -4.23837 -3.69447 3.89858 0
M  V30 43 O -5.50604 -4.21631 4.01321 0
M  V30 44 O -3.54976 -3.45983 4.90511 0
M  V30 45 H -7.8995 2.47948 -2.34705 0
M  V30 46 H -8.12718 2.86667 -0.586388 0
M  V30 47 H -9.51553 3.0143 -1.68647 0
M  V30 48 H -8.72913 5.09355 -2.54922 0
M  V30 49 H -8.09969 5.1603 -0.838724 0
M  V30 50 H -4.07936 5.54133 -2.28108 0
M  V30 51 H -4.27486 4.01348 -3.28482 0
M  V30 52 H -2.52571 4.40995 -0.978239 0
M  V30 53 H -2.49916 2.30033 0.691055 0
M  V30 54 H -0.738545 3.40695 -0.234135 0
M  V30 55 H -0.20352 1.78596 0.168275 0
M  V30 56 H 2.36226 -0.968433 -3.30704 0
M  V30 57 H 2.85961 0.658909 -2.66654 0
M  V30 58 H 1.70249 -0.0810458 -0.517234 0
M  V30 59 H 3.99891 -1.71065 -1.52876 0
M  V30 60 H 5.6024 -1.83786 0.818154 0
M  V30 61 H 6.21295 -0.410992 -0.0553631 0
M  V30 62 H 5.4981 1.08097 1.77134 0
M  V30 63 H 4.99163 -0.275497 2.78046 0
M  V30 64 H 7.23228 -1.19055 2.91033 0
M  V30 65 H 6.12912 0.822841 4.16718 0
M  V30 66 H 7.75531 0.31279 4.52552 0
M  V30 67 H 9.58578 -0.493866 -1.18 0
M  V30 68 H 10.4936 0.279952 0.225178 0
M  V30 69 H 9.61342 2.36825 -0.252349 0
M  V30 70 H 9.49427 1.67333 -1.93443 0
M  V30 71 H 8.06915 1.74714 -0.888518 0
M  V30 72 H -0.522205 -1.60726 -1.80481 0
M  V30 73 H -0.265953 -4.2293 -0.641976 0
M  V30 74 H 0.162325 -4.3217 -2.38038 0
M  V30 75 H -2.26312 -5.69478 -1.45984 0
M  V30 76 H -2.22176 -0.137964 -1.1128 0
M  V30 77 H -3.67946 -1.93346 0.299375 0
M  V30 78 H -2.03008 -2.14764 0.948068 0
M  V30 79 H -4.47775 -1.42766 2.62661 0
M  V30 80 H -2.7998 -1.55287 3.23839 0
M  V30 81 H -2.72005 -3.94425 2.40508 0
M  V30 82 H -4.87829 -4.77279 1.63559 0
M  V30 83 H -5.48515 -3.15226 1.67418 0
M  V30 84 H -6.28672 -3.70372 4.44898 0
M  V30 END ATOM
M  V30 BEGIN BOND
M  V30 1 1 1 2
M  V30 2 1 2 3
M  V30 3 1 3 4
M  V30 4 2 4 5
M  V30 5 1 4 6
M  V30 6 1 6 7
M  V30 7 1 7 8
M  V30 8 2 8 9
M  V30 9 1 8 10
M  V30 10 1 10 11
M  V30 11 1 11 12
M  V30 12 1 12 13
M  V30 13 1 13 14
M  V30 14 1 14 15
M  V30 15 1 15 16
M  V30 16 1 16 17
M  V30 17 2 17 18
M  V30 18 1 17 19
M  V30 19 1 19 20
M  V30 20 1 20 21
M  V30 21 1 21 22
M  V30 22 1 21 23
M  V30 23 2 23 24
M  V30 24 1 23 25
M  V30 25 1 25 26
M  V30 26 1 26 27
M  V30 27 1 15 28
M  V30 28 2 28 29
M  V30 29 1 28 30
M  V30 30 1 30 31
M  V30 31 1 31 32
M  V30 32 1 32 33
M  V30 33 2 32 34
M  V30 34 1 10 35
M  V30 35 1 35 36
M  V30 36 2 36 37
M  V30 37 1 36 38
M  V30 38 1 38 39
M  V30 39 1 39 40
M  V30 40 1 40 41
M  V30 41 1 40 42
M  V30 42 1 42 43
M  V30 43 2 42 44
M  V30 44 1 1 45
M  V30 45 1 1 46
M  V30 46 1 1 47
M  V30 47 1 2 48
M  V30 48 1 2 49
M  V30 49 1 6 50
M  V30 50 1 6 51
M  V30 51 1 7 52
M  V30 52 1 10 53 CFG=1
M  V30 53 1 11 54
M  V30 54 1 11 55
M  V30 55 1 14 56
M  V30 56 1 14 57
M  V30 57 1 15 58 CFG=1
M  V30 58 1 16 59
M  V30 59 1 19 60
M  V30 60 1 19 61
M  V30 61 1 20 62
M  V30 62 1 20 63
M  V30 63 1 21 64 CFG=1
M  V30 64 1 22 65
M  V30 65 1 22 66
M  V30 66 1 26 67
M  V30 67 1 26 68
M  V30 68 1 27 69
M  V30 69 1 27 70
M  V30 70 1 27 71
M  V30 71 1 30 72
M  V30 72 1 31 73
M  V30 73 1 31 74
M  V30 74 1 33 75
M  V30 75 1 35 76
M  V30 76 1 38 77
M  V30 77 1 38 78
M  V30 78 1 39 79
M  V30 79 1 39 80
M  V30 80 1 40 81 CFG=3
M  V30 81 1 41 82
M  V30 82 1 41 83
M  V30 83 1 43 84
M  V30 END BOND
M  V30 END CTAB
M  END
