
     RDKit          3D

  0  0  0  0  0  0  0  0  0  0999 V3000
M  V30 BEGIN CTAB
M  V30 COUNTS 50 52 0 0 0
M  V30 BEGIN ATOM
M  V30 1 C 4.02413 1.75748 -2.13214 0
M  V30 2 O 3.62404 2.07934 -0.840546 0
M  V30 3 C 3.25591 1.14597 0.0873054 0
M  V30 4 C 1.94745 0.801819 0.258068 0
M  V30 5 C 0.778888 1.30792 -0.465155 0
M  V30 6 C 0.456886 0.669317 -1.76607 0
M  V30 7 N 0.192306 -0.745249 -1.71408 0
M  V30 8 C -0.954506 -1.36722 -1.15818 0
M  V30 9 C -2.01355 -0.648467 -0.643984 0
M  V30 10 C -3.07993 -1.31567 -0.100649 0
M  V30 11 N -3.02953 -2.6546 -0.102855 0
M  V30 12 C -2.00828 -3.38533 -0.599246 0
M  V30 13 N -0.969217 -2.72247 -1.1277 0
M  V30 14 N -2.02336 -4.80631 -0.568786 0
M  V30 15 C -4.24317 -0.633109 0.472189 0 CFG=2
M  V30 16 C -4.88904 0.42561 -0.431823 0
M  V30 17 C -5.16636 1.20371 0.8549 0 CFG=1
M  V30 18 C -3.91356 0.515881 1.41694 0
M  V30 19 N -5.02565 2.63624 0.735523 0
M  V30 20 C 1.66638 -0.165222 1.23692 0
M  V30 21 C 2.67933 -0.729656 1.98087 0
M  V30 22 C 3.9883 -0.356315 1.77904 0
M  V30 23 C 4.2921 0.581155 0.835125 0
M  V30 24 O 5.61548 0.98532 0.603609 0
M  V30 25 C 6.61905 0.379081 1.39234 0
M  V30 26 H 4.4012 0.702825 -2.24783 0
M  V30 27 H 3.27017 1.90354 -2.92236 0
M  V30 28 H 4.89829 2.38296 -2.45074 0
M  V30 29 H 0.934114 2.40901 -0.694416 0
M  V30 30 H -0.130286 1.31574 0.191873 0
M  V30 31 H -0.547756 1.12166 -2.07256 0
M  V30 32 H 1.15068 0.917328 -2.57312 0
M  V30 33 H 0.948626 -1.35414 -2.14174 0
M  V30 34 H -2.04949 0.410043 -0.662802 0
M  V30 35 H -2.41078 -5.34966 -1.35331 0
M  V30 36 H -1.63905 -5.28854 0.25589 0
M  V30 37 H -5.01179 -1.27179 0.902178 0
M  V30 38 H -5.81116 0.0537377 -0.942385 0
M  V30 39 H -4.17467 0.959599 -1.06825 0
M  V30 40 H -6.10737 0.908717 1.35489 0
M  V30 41 H -3.02832 1.12471 1.07839 0
M  V30 42 H -3.96702 0.295977 2.48767 0
M  V30 43 H -5.61454 3.06226 1.49017 0
M  V30 44 H -5.46589 2.9092 -0.168875 0
M  V30 45 H 0.661881 -0.4966 1.4375 0
M  V30 46 H 2.43296 -1.48641 2.74161 0
M  V30 47 H 4.76311 -0.832019 2.39425 0
M  V30 48 H 6.35817 0.477526 2.47869 0
M  V30 49 H 7.60304 0.873239 1.28086 0
M  V30 50 H 6.7118 -0.708125 1.2028 0
M  V30 END ATOM
M  V30 BEGIN BOND
M  V30 1 1 1 2
M  V30 2 1 2 3
M  V30 3 2 3 4
M  V30 4 1 4 5
M  V30 5 1 5 6
M  V30 6 1 6 7
M  V30 7 1 7 8
M  V30 8 2 8 9
M  V30 9 1 9 10
M  V30 10 2 10 11
M  V30 11 1 11 12
M  V30 12 2 12 13
M  V30 13 1 12 14
M  V30 14 1 10 15
M  V30 15 1 15 16
M  V30 16 1 16 17
M  V30 17 1 17 18
M  V30 18 1 17 19
M  V30 19 1 4 20
M  V30 20 2 20 21
M  V30 21 1 21 22
M  V30 22 2 22 23
M  V30 23 1 23 24
M  V30 24 1 24 25
M  V30 25 1 23 3
M  V30 26 1 13 8
M  V30 27 1 18 15
M  V30 28 1 1 26
M  V30 29 1 1 27
M  V30 30 1 1 28
M  V30 31 1 5 29
M  V30 32 1 5 30
M  V30 33 1 6 31
M  V30 34 1 6 32
M  V30 35 1 7 33
M  V30 36 1 9 34
M  V30 37 1 14 35
M  V30 38 1 14 36
M  V30 39 1 15 37 CFG=1
M  V30 40 1 16 38
M  V30 41 1 16 39
M  V30 42 1 17 40 CFG=1
M  V30 43 1 18 41
M  V30 44 1 18 42
M  V30 45 1 19 43
M  V30 46 1 19 44
M  V30 47 1 20 45
M  V30 48 1 21 46
M  V30 49 1 22 47
M  V30 50 1 25 48
M  V30 51 1 25 49
M  V30 52 1 25 50
M  V30 END BOND
M  V30 END CTAB
M  END
