
     RDKit          3D

  0  0  0  0  0  0  0  0  0  0999 V3000
M  V30 BEGIN CTAB
M  V30 COUNTS 36 37 0 0 0
M  V30 BEGIN ATOM
M  V30 1 N 6.95709 -0.322269 -0.566813 0
M  V30 2 C 5.56757 -0.239665 -0.279097 0
M  V30 3 N 4.73915 -1.15356 0.202307 0
M  V30 4 C 3.48811 -0.871796 0.394639 0
M  V30 5 C 3.0582 0.389625 0.0859743 0
M  V30 6 S 4.4995 1.11195 -0.472372 0
M  V30 7 C 1.75745 1.07049 0.159032 0
M  V30 8 N 0.617116 0.228944 0.262559 0
M  V30 9 C 0.392647 -0.652155 -0.844358 0
M  V30 10 C -0.72919 -1.58237 -0.471287 0
M  V30 11 C -2.01035 -0.741642 -0.41442 0
M  V30 12 C -1.84267 0.320247 0.609643 0
M  V30 13 C -0.515766 1.03785 0.590876 0
M  V30 14 C -2.88466 1.41328 0.508001 0
M  V30 15 S -4.54073 0.860097 0.698872 0
M  V30 16 O -5.50458 2.02628 0.673563 0
M  V30 17 O -4.69336 0.143204 2.0217 0
M  V30 18 N -4.9512 -0.254881 -0.524226 0
M  V30 19 H 7.62841 -0.323026 0.206062 0
M  V30 20 H 7.26395 -0.379647 -1.54195 0
M  V30 21 H 2.78425 -1.63464 0.801113 0
M  V30 22 H 1.66665 1.73535 -0.736998 0
M  V30 23 H 1.70753 1.78786 1.03099 0
M  V30 24 H 0.16472 -0.0818462 -1.78293 0
M  V30 25 H 1.28233 -1.25976 -1.0191 0
M  V30 26 H -0.844409 -2.43924 -1.14548 0
M  V30 27 H -0.547174 -1.90203 0.591568 0
M  V30 28 H -2.81646 -1.4419 -0.0320421 0
M  V30 29 H -2.27679 -0.361138 -1.39882 0
M  V30 30 H -1.99798 -0.170425 1.61483 0
M  V30 31 H -0.355552 1.45897 1.61585 0
M  V30 32 H -0.585671 1.8622 -0.150656 0
M  V30 33 H -2.73818 1.97281 -0.462053 0
M  V30 34 H -2.71956 2.202 1.28438 0
M  V30 35 H -5.37984 0.265654 -1.34123 0
M  V30 36 H -5.64056 -0.93226 -0.168127 0
M  V30 END ATOM
M  V30 BEGIN BOND
M  V30 1 1 1 2
M  V30 2 2 2 3
M  V30 3 1 3 4
M  V30 4 2 4 5
M  V30 5 1 5 6
M  V30 6 1 5 7
M  V30 7 1 7 8
M  V30 8 1 8 9
M  V30 9 1 9 10
M  V30 10 1 10 11
M  V30 11 1 11 12
M  V30 12 1 12 13
M  V30 13 1 12 14
M  V30 14 1 14 15
M  V30 15 2 15 16
M  V30 16 2 15 17
M  V30 17 1 15 18
M  V30 18 1 6 2
M  V30 19 1 13 8
M  V30 20 1 1 19
M  V30 21 1 1 20
M  V30 22 1 4 21
M  V30 23 1 7 22
M  V30 24 1 7 23
M  V30 25 1 9 24
M  V30 26 1 9 25
M  V30 27 1 10 26
M  V30 28 1 10 27
M  V30 29 1 11 28
M  V30 30 1 11 29
M  V30 31 1 12 30
M  V30 32 1 13 31
M  V30 33 1 13 32
M  V30 34 1 14 33
M  V30 35 1 14 34
M  V30 36 1 18 35
M  V30 37 1 18 36
M  V30 END BOND
M  V30 END CTAB
M  END
