
     RDKit          3D

  0  0  0  0  0  0  0  0  0  0999 V3000
M  V30 BEGIN CTAB
M  V30 COUNTS 72 71 0 0 0
M  V30 BEGIN ATOM
M  V30 1 C 10.4699 -1.55538 -0.106899 0
M  V30 2 C 10.8082 -0.522576 0.959048 0
M  V30 3 C 9.92143 0.678776 0.707538 0
M  V30 4 C 8.48087 0.199878 0.820003 0
M  V30 5 C 7.50415 1.29931 0.590914 0
M  V30 6 C 6.0989 0.76592 0.731607 0
M  V30 7 C 5.74594 -0.320258 -0.231534 0
M  V30 8 C 4.33028 -0.770887 0.0129126 0
M  V30 9 C 3.39035 0.36334 -0.184298 0
M  V30 10 C 1.92914 -0.0834402 0.0401513 0
M  V30 11 C 1.08695 1.14508 -0.18755 0
M  V30 12 C -0.37482 0.899176 -0.0112339 0
M  V30 13 C -0.931535 -0.136277 -0.945238 0
M  V30 14 C -2.44906 -0.227682 -0.588045 0
M  V30 15 C -3.11712 -1.22331 -1.4463 0
M  V30 16 C -4.54981 -1.44348 -1.12558 0
M  V30 17 O -5.41852 -0.402593 -1.16455 0
M  V30 18 C -5.665 0.666359 -0.384476 0
M  V30 19 O -5.02513 0.843433 0.65997 0
M  V30 20 C -6.74019 1.6376 -0.82022 0
M  V30 21 N -6.84245 2.70833 0.154749 0
M  V30 22 C -8.02298 0.857723 -0.931289 0
M  V30 23 C -8.41198 0.229415 0.389408 0
M  V30 24 C -9.70162 -0.551984 0.26851 0
M  V30 25 C -9.9851 -1.13192 1.65302 0
M  V30 26 N -8.87552 -1.97723 1.99995 0
M  V30 27 H 11.3947 -2.06408 -0.470517 0
M  V30 28 H 10.0362 -1.04788 -0.984316 0
M  V30 29 H 9.75177 -2.26266 0.308593 0
M  V30 30 H 10.547 -0.899063 1.97713 0
M  V30 31 H 11.8767 -0.237292 0.89219 0
M  V30 32 H 10.1084 1.02411 -0.330392 0
M  V30 33 H 10.1491 1.50993 1.38412 0
M  V30 34 H 8.34069 -0.596452 0.0617872 0
M  V30 35 H 8.35919 -0.224444 1.83525 0
M  V30 36 H 7.65547 1.83001 -0.369711 0
M  V30 37 H 7.62829 2.02781 1.44573 0
M  V30 38 H 6.01932 0.391189 1.79114 0
M  V30 39 H 5.43631 1.64873 0.599346 0
M  V30 40 H 5.80559 0.109325 -1.26953 0
M  V30 41 H 6.45904 -1.17195 -0.170479 0
M  V30 42 H 4.10792 -1.56488 -0.731691 0
M  V30 43 H 4.21603 -1.21339 1.02432 0
M  V30 44 H 3.52777 1.1855 0.55246 0
M  V30 45 H 3.43122 0.709147 -1.2368 0
M  V30 46 H 1.67574 -0.92974 -0.594199 0
M  V30 47 H 1.8843 -0.397144 1.10354 0
M  V30 48 H 1.39704 1.89333 0.570976 0
M  V30 49 H 1.29175 1.58726 -1.17113 0
M  V30 50 H -0.631051 0.613402 1.02067 0
M  V30 51 H -0.905016 1.85064 -0.221191 0
M  V30 52 H -0.914011 0.163613 -2.0081 0
M  V30 53 H -0.496459 -1.12892 -0.842817 0
M  V30 54 H -2.79533 0.819133 -0.807385 0
M  V30 55 H -2.48689 -0.519211 0.462378 0
M  V30 56 H -2.54005 -2.20206 -1.28768 0
M  V30 57 H -2.99902 -0.9967 -2.54679 0
M  V30 58 H -4.92863 -2.28187 -1.80382 0
M  V30 59 H -4.61289 -1.97146 -0.109068 0
M  V30 60 H -6.48046 2.08655 -1.79994 0
M  V30 61 H -5.97224 3.26254 0.141979 0
M  V30 62 H -7.61094 3.33723 -0.180817 0
M  V30 63 H -8.85945 1.43876 -1.31567 0
M  V30 64 H -7.82823 0.014523 -1.63674 0
M  V30 65 H -8.58524 1.00319 1.17525 0
M  V30 66 H -7.63603 -0.474402 0.756662 0
M  V30 67 H -9.5091 -1.38405 -0.441427 0
M  V30 68 H -10.5558 0.0853765 -0.0282879 0
M  V30 69 H -9.95626 -0.243725 2.34635 0
M  V30 70 H -10.9591 -1.63484 1.66851 0
M  V30 71 H -8.35739 -2.34791 1.16559 0
M  V30 72 H -9.13526 -2.7445 2.6595 0
M  V30 END ATOM
M  V30 BEGIN BOND
M  V30 1 1 1 2
M  V30 2 1 2 3
M  V30 3 1 3 4
M  V30 4 1 4 5
M  V30 5 1 5 6
M  V30 6 1 6 7
M  V30 7 1 7 8
M  V30 8 1 8 9
M  V30 9 1 9 10
M  V30 10 1 10 11
M  V30 11 1 11 12
M  V30 12 1 12 13
M  V30 13 1 13 14
M  V30 14 1 14 15
M  V30 15 1 15 16
M  V30 16 1 16 17
M  V30 17 1 17 18
M  V30 18 2 18 19
M  V30 19 1 18 20
M  V30 20 1 20 21
M  V30 21 1 20 22
M  V30 22 1 22 23
M  V30 23 1 23 24
M  V30 24 1 24 25
M  V30 25 1 25 26
M  V30 26 1 1 27
M  V30 27 1 1 28
M  V30 28 1 1 29
M  V30 29 1 2 30
M  V30 30 1 2 31
M  V30 31 1 3 32
M  V30 32 1 3 33
M  V30 33 1 4 34
M  V30 34 1 4 35
M  V30 35 1 5 36
M  V30 36 1 5 37
M  V30 37 1 6 38
M  V30 38 1 6 39
M  V30 39 1 7 40
M  V30 40 1 7 41
M  V30 41 1 8 42
M  V30 42 1 8 43
M  V30 43 1 9 44
M  V30 44 1 9 45
M  V30 45 1 10 46
M  V30 46 1 10 47
M  V30 47 1 11 48
M  V30 48 1 11 49
M  V30 49 1 12 50
M  V30 50 1 12 51
M  V30 51 1 13 52
M  V30 52 1 13 53
M  V30 53 1 14 54
M  V30 54 1 14 55
M  V30 55 1 15 56
M  V30 56 1 15 57
M  V30 57 1 16 58
M  V30 58 1 16 59
M  V30 59 1 20 60
M  V30 60 1 21 61
M  V30 61 1 21 62
M  V30 62 1 22 63
M  V30 63 1 22 64
M  V30 64 1 23 65
M  V30 65 1 23 66
M  V30 66 1 24 67
M  V30 67 1 24 68
M  V30 68 1 25 69
M  V30 69 1 25 70
M  V30 70 1 26 71
M  V30 71 1 26 72
M  V30 END BOND
M  V30 END CTAB
M  END
