
     RDKit          3D

  0  0  0  0  0  0  0  0  0  0999 V3000
M  V30 BEGIN CTAB
M  V30 COUNTS 43 45 0 0 0
M  V30 BEGIN ATOM
M  V30 1 N -2.92018 -1.0621 2.32997 0
M  V30 2 C -3.6418 -0.374183 1.31572 0
M  V30 3 N -3.16722 -0.40874 0.0436938 0
M  V30 4 C -3.78103 0.208644 -0.968632 0
M  V30 5 C -3.2626 0.169642 -2.35101 0
M  V30 6 O -1.974 -0.345853 -2.42314 0
M  V30 7 C -0.838673 0.149343 -1.83345 0
M  V30 8 O -0.946316 1.1985 -1.13888 0
M  V30 9 C 0.439031 -0.524103 -2.01248 0
M  V30 10 C 0.549836 -1.66793 -2.77113 0
M  V30 11 C 1.76648 -2.3149 -2.94546 0
M  V30 12 C 2.89414 -1.80177 -2.34538 0
M  V30 13 C 2.78818 -0.641702 -1.57474 0
M  V30 14 C 1.56474 -0.00291125 -1.40712 0
M  V30 15 O 1.41979 1.13448 -0.661636 0
M  V30 16 C 2.40081 1.83355 0.0432638 0
M  V30 17 C 3.03648 1.03997 1.11121 0
M  V30 18 C 2.38946 -0.0580137 1.69061 0
M  V30 19 C 2.98072 -0.802444 2.68942 0
M  V30 20 C 4.23982 -0.496581 3.1628 0
M  V30 21 C 4.88482 0.583334 2.59802 0
M  V30 22 C 4.29431 1.3281 1.59935 0
M  V30 23 N -4.91701 0.882518 -0.66705 0
M  V30 24 C -5.4255 0.94687 0.569047 0
M  V30 25 N -4.76993 0.306704 1.56106 0
M  V30 26 N -6.62961 1.66657 0.863618 0
M  V30 27 H -2.5714 -0.534852 3.13866 0
M  V30 28 H -2.76876 -2.07058 2.22272 0
M  V30 29 H -3.92008 -0.506686 -2.96929 0
M  V30 30 H -3.32524 1.1623 -2.84464 0
M  V30 31 H -0.319364 -2.09025 -3.25218 0
M  V30 32 H 1.85976 -3.21012 -3.53762 0
M  V30 33 H 3.84172 -2.27799 -2.46222 0
M  V30 34 H 3.69338 -0.263808 -1.125 0
M  V30 35 H 3.14204 2.26679 -0.661716 0
M  V30 36 H 1.87651 2.6885 0.559306 0
M  V30 37 H 1.401 -0.282167 1.30502 0
M  V30 38 H 2.42774 -1.64503 3.10083 0
M  V30 39 H 4.69255 -1.08752 3.94588 0
M  V30 40 H 5.87557 0.809515 2.98317 0
M  V30 41 H 4.81101 2.16954 1.1676 0
M  V30 42 H -7.5672 1.24425 0.875252 0
M  V30 43 H -6.52396 2.6811 1.07654 0
M  V30 END ATOM
M  V30 BEGIN BOND
M  V30 1 1 1 2
M  V30 2 2 2 3
M  V30 3 1 3 4
M  V30 4 1 4 5
M  V30 5 1 5 6
M  V30 6 1 6 7
M  V30 7 2 7 8
M  V30 8 1 7 9
M  V30 9 2 9 10
M  V30 10 1 10 11
M  V30 11 2 11 12
M  V30 12 1 12 13
M  V30 13 2 13 14
M  V30 14 1 14 15
M  V30 15 1 15 16
M  V30 16 1 16 17
M  V30 17 2 17 18
M  V30 18 1 18 19
M  V30 19 2 19 20
M  V30 20 1 20 21
M  V30 21 2 21 22
M  V30 22 2 4 23
M  V30 23 1 23 24
M  V30 24 2 24 25
M  V30 25 1 24 26
M  V30 26 1 25 2
M  V30 27 1 14 9
M  V30 28 1 22 17
M  V30 29 1 1 27
M  V30 30 1 1 28
M  V30 31 1 5 29
M  V30 32 1 5 30
M  V30 33 1 10 31
M  V30 34 1 11 32
M  V30 35 1 12 33
M  V30 36 1 13 34
M  V30 37 1 16 35
M  V30 38 1 16 36
M  V30 39 1 18 37
M  V30 40 1 19 38
M  V30 41 1 20 39
M  V30 42 1 21 40
M  V30 43 1 22 41
M  V30 44 1 26 42
M  V30 45 1 26 43
M  V30 END BOND
M  V30 END CTAB
M  END
