
     RDKit          3D

  0  0  0  0  0  0  0  0  0  0999 V3000
M  V30 BEGIN CTAB
M  V30 COUNTS 22 21 0 0 0
M  V30 BEGIN ATOM
M  V30 1 C -0.98948 -0.640277 1.36603 0
M  V30 2 C -0.602697 -0.16157 0.0113218 0
M  V30 3 C -1.44384 1.04406 -0.431696 0
M  V30 4 N -2.84504 0.726036 -0.481851 0
M  V30 5 C 0.839916 0.271202 -0.0811571 0
M  V30 6 S 1.99009 -1.04811 0.310426 0
M  V30 7 C 3.679 -0.359541 0.151246 0
M  V30 8 N -0.907862 -1.22345 -0.940893 0
M  V30 9 H -0.823853 -1.75137 1.46218 0
M  V30 10 H -0.473818 -0.163986 2.19546 0
M  V30 11 H -2.08934 -0.512799 1.53087 0
M  V30 12 H -1.04326 1.47094 -1.36792 0
M  V30 13 H -1.33692 1.86805 0.333286 0
M  V30 14 H -3.16224 0.826909 -1.47235 0
M  V30 15 H -3.42817 1.31227 0.15756 0
M  V30 16 H 0.986444 1.09052 0.634288 0
M  V30 17 H 1.01596 0.652377 -1.09685 0
M  V30 18 H 3.66496 0.751083 0.340167 0
M  V30 19 H 4.36225 -0.781083 0.908667 0
M  V30 20 H 4.00152 -0.51055 -0.880754 0
M  V30 21 H -1.14833 -0.859458 -1.87139 0
M  V30 22 H -0.245286 -2.00126 -0.908234 0
M  V30 END ATOM
M  V30 BEGIN BOND
M  V30 1 1 1 2
M  V30 2 1 2 3
M  V30 3 1 3 4
M  V30 4 1 2 5
M  V30 5 1 5 6
M  V30 6 1 6 7
M  V30 7 1 2 8
M  V30 8 1 1 9
M  V30 9 1 1 10
M  V30 10 1 1 11
M  V30 11 1 3 12
M  V30 12 1 3 13
M  V30 13 1 4 14
M  V30 14 1 4 15
M  V30 15 1 5 16
M  V30 16 1 5 17
M  V30 17 1 7 18
M  V30 18 1 7 19
M  V30 19 1 7 20
M  V30 20 1 8 21
M  V30 21 1 8 22
M  V30 END BOND
M  V30 END CTAB
M  END
