
     RDKit          3D

  0  0  0  0  0  0  0  0  0  0999 V3000
M  V30 BEGIN CTAB
M  V30 COUNTS 25 26 0 0 0
M  V30 BEGIN ATOM
M  V30 1 N 4.31843 0.61751 -0.279518 0
M  V30 2 C 2.98872 0.0917048 -0.18214 0
M  V30 3 C 2.77066 -1.26369 -0.0129579 0
M  V30 4 C 1.45672 -1.73414 0.0773086 0
M  V30 5 C 0.384209 -0.874472 0.00085472 0
M  V30 6 C 0.59615 0.478203 -0.167847 0
M  V30 7 C 1.88628 0.920411 -0.254094 0
M  V30 8 C -0.751497 1.15698 -0.215695 0
M  V30 9 N -1.54801 0.048345 -0.745955 0
M  V30 10 C -1.09004 -1.04513 0.059248 0
M  V30 11 S -3.2247 0.345409 -0.622135 0
M  V30 12 O -3.94931 -0.745181 -1.3464 0
M  V30 13 O -3.52752 1.63213 -1.35327 0
M  V30 14 N -3.75726 0.538907 0.999364 0
M  V30 15 H 5.03325 0.442439 0.479196 0
M  V30 16 H 4.57124 1.18069 -1.11878 0
M  V30 17 H 3.62428 -1.90441 0.0426548 0
M  V30 18 H 1.31293 -2.79898 0.209555 0
M  V30 19 H 2.07814 1.97613 -0.386423 0
M  V30 20 H -1.06137 1.45279 0.791327 0
M  V30 21 H -0.771136 1.95458 -0.95762 0
M  V30 22 H -1.41298 -2.03456 -0.314552 0
M  V30 23 H -1.44264 -0.962169 1.12567 0
M  V30 24 H -4.76197 0.872225 0.943792 0
M  V30 25 H -3.72259 -0.345725 1.54627 0
M  V30 END ATOM
M  V30 BEGIN BOND
M  V30 1 1 1 2
M  V30 2 2 2 3
M  V30 3 1 3 4
M  V30 4 2 4 5
M  V30 5 1 5 6
M  V30 6 2 6 7
M  V30 7 1 6 8
M  V30 8 1 8 9
M  V30 9 1 9 10
M  V30 10 1 9 11
M  V30 11 2 11 12
M  V30 12 2 11 13
M  V30 13 1 11 14
M  V30 14 1 7 2
M  V30 15 1 10 5
M  V30 16 1 1 15
M  V30 17 1 1 16
M  V30 18 1 3 17
M  V30 19 1 4 18
M  V30 20 1 7 19
M  V30 21 1 8 20
M  V30 22 1 8 21
M  V30 23 1 10 22
M  V30 24 1 10 23
M  V30 25 1 14 24
M  V30 26 1 14 25
M  V30 END BOND
M  V30 END CTAB
M  END
