
     RDKit          3D

  0  0  0  0  0  0  0  0  0  0999 V3000
M  V30 BEGIN CTAB
M  V30 COUNTS 21 23 0 0 0
M  V30 BEGIN ATOM
M  V30 1 N 3.88609 0.929934 -0.529545 0
M  V30 2 C 2.97183 1.80937 0.112711 0
M  V30 3 N 3.20856 3.04394 0.635352 0
M  V30 4 O 2.1246 3.53681 1.1378 0
M  V30 5 N 1.16967 2.66381 0.964565 0
M  V30 6 C 1.63541 1.5722 0.334148 0
M  V30 7 C 0.908858 0.366024 -0.0530047 0
M  V30 8 O 1.41575 -0.674287 -0.669512 0
M  V30 9 N 0.511558 -1.58511 -0.873224 0
M  V30 10 C -0.677319 -1.16 -0.376546 0
M  V30 11 N -0.38786 0.068403 0.130047 0
M  V30 12 C -1.94188 -1.85768 -0.389998 0
M  V30 13 N -2.19096 -3.06648 -0.897437 0
M  V30 14 O -3.44679 -3.37563 -0.730004 0
M  V30 15 N -4.03571 -2.39605 -0.121651 0
M  V30 16 C -3.13188 -1.40346 0.120681 0
M  V30 17 N -3.43168 -0.186756 0.768691 0
M  V30 18 H 4.62408 1.31703 -1.15738 0
M  V30 19 H 3.86709 -0.104977 -0.411173 0
M  V30 20 H -3.51322 -0.167657 1.79095 0
M  V30 21 H -3.56619 0.670561 0.21453 0
M  V30 END ATOM
M  V30 BEGIN BOND
M  V30 1 1 1 2
M  V30 2 2 2 3
M  V30 3 1 3 4
M  V30 4 1 4 5
M  V30 5 2 5 6
M  V30 6 1 6 7
M  V30 7 1 7 8
M  V30 8 1 8 9
M  V30 9 2 9 10
M  V30 10 1 10 11
M  V30 11 1 10 12
M  V30 12 2 12 13
M  V30 13 1 13 14
M  V30 14 1 14 15
M  V30 15 2 15 16
M  V30 16 1 16 17
M  V30 17 1 6 2
M  V30 18 2 11 7
M  V30 19 1 16 12
M  V30 20 1 1 18
M  V30 21 1 1 19
M  V30 22 1 17 20
M  V30 23 1 17 21
M  V30 END BOND
M  V30 END CTAB
M  END
