
     RDKit          3D

  0  0  0  0  0  0  0  0  0  0999 V3000
M  V30 BEGIN CTAB
M  V30 COUNTS 62 65 0 0 0
M  V30 BEGIN ATOM
M  V30 1 N -5.05523 -3.7166 -1.35758 0
M  V30 2 S -3.35171 -3.66152 -1.09025 0
M  V30 3 O -2.62137 -3.54578 -2.39075 0
M  V30 4 O -2.94646 -4.9557 -0.443024 0
M  V30 5 C -2.94676 -2.32618 -0.00488054 0
M  V30 6 C -1.64357 -2.07681 0.361125 0
M  V30 7 S -0.385028 -3.15262 -0.302957 0
M  V30 8 S 0.258033 -2.29077 -2.13781 0
M  V30 9 C 1.60447 -1.20968 -1.77714 0
M  V30 10 C 2.89016 -1.73368 -1.79992 0
M  V30 11 C 3.98585 -0.937169 -1.5265 0
M  V30 12 C 3.83555 0.414707 -1.21977 0
M  V30 13 C 5.01653 1.20362 -0.942767 0
M  V30 14 O 5.59802 1.78501 -1.88868 0
M  V30 15 N 5.53913 1.341 0.367131 0
M  V30 16 C 5.04514 0.769906 1.60792 0
M  V30 17 C 5.1481 1.95261 2.57246 0
M  V30 18 C 6.43536 2.60965 2.1526 0
M  V30 19 C 6.71154 2.10233 0.756248 0
M  V30 20 C 2.55269 0.910467 -1.20332 0
M  V30 21 Cl 2.33841 2.61516 -0.818557 0
M  V30 22 C 1.45865 0.12665 -1.47366 0
M  V30 23 S 3.12762 -3.4247 -2.17931 0
M  V30 24 N 4.804 -3.80406 -2.13818 0
M  V30 25 O 2.59136 -3.77019 -3.54925 0
M  V30 26 O 2.41651 -4.30554 -1.16819 0
M  V30 27 C -1.38601 -1.0226 1.20959 0
M  V30 28 C -2.39296 -0.208007 1.70465 0
M  V30 29 Cl -2.0284 1.1328 2.78921 0
M  V30 30 C -3.69993 -0.455716 1.33927 0
M  V30 31 C -3.95571 -1.51853 0.484458 0
M  V30 32 C -4.78215 0.373473 1.83641 0
M  V30 33 O -5.34917 0.0522781 2.90123 0
M  V30 34 N -5.21078 1.53364 1.14801 0
M  V30 35 C -6.29496 2.42672 1.57918 0
M  V30 36 C -6.75702 3.05319 0.283049 0
M  V30 37 C -5.62361 2.95985 -0.67963 0
M  V30 38 C -4.63711 2.01048 -0.0876224 0
M  V30 39 H -5.51856 -3.72826 -0.402946 0
M  V30 40 H -5.31215 -2.84065 -1.86964 0
M  V30 41 H 5.00324 -1.33842 -1.54137 0
M  V30 42 H 5.68144 -0.0553734 1.97944 0
M  V30 43 H 3.99024 0.485942 1.56381 0
M  V30 44 H 5.21812 1.60451 3.61869 0
M  V30 45 H 4.30733 2.65257 2.44553 0
M  V30 46 H 6.39712 3.71907 2.20658 0
M  V30 47 H 7.23656 2.29303 2.86146 0
M  V30 48 H 6.81146 2.94532 0.0202923 0
M  V30 49 H 7.62674 1.45626 0.753633 0
M  V30 50 H 0.4419 0.514242 -1.46218 0
M  V30 51 H 4.93473 -4.84057 -2.10198 0
M  V30 52 H 5.23977 -3.41108 -3.00142 0
M  V30 53 H -0.378737 -0.826683 1.49475 0
M  V30 54 H -4.97931 -1.7183 0.193712 0
M  V30 55 H -5.95441 3.17593 2.30411 0
M  V30 56 H -7.06109 1.79158 2.04715 0
M  V30 57 H -7.04076 4.12524 0.458919 0
M  V30 58 H -7.66022 2.55211 -0.121443 0
M  V30 59 H -6.01664 2.57062 -1.66313 0
M  V30 60 H -5.12315 3.93681 -0.852682 0
M  V30 61 H -3.66164 2.5097 0.0821692 0
M  V30 62 H -4.47121 1.16873 -0.814127 0
M  V30 END ATOM
M  V30 BEGIN BOND
M  V30 1 1 1 2
M  V30 2 2 2 3
M  V30 3 2 2 4
M  V30 4 1 2 5
M  V30 5 2 5 6
M  V30 6 1 6 7
M  V30 7 1 7 8
M  V30 8 1 8 9
M  V30 9 2 9 10
M  V30 10 1 10 11
M  V30 11 2 11 12
M  V30 12 1 12 13
M  V30 13 2 13 14
M  V30 14 1 13 15
M  V30 15 1 15 16
M  V30 16 1 16 17
M  V30 17 1 17 18
M  V30 18 1 18 19
M  V30 19 1 12 20
M  V30 20 1 20 21
M  V30 21 2 20 22
M  V30 22 1 10 23
M  V30 23 1 23 24
M  V30 24 2 23 25
M  V30 25 2 23 26
M  V30 26 1 6 27
M  V30 27 2 27 28
M  V30 28 1 28 29
M  V30 29 1 28 30
M  V30 30 2 30 31
M  V30 31 1 30 32
M  V30 32 2 32 33
M  V30 33 1 32 34
M  V30 34 1 34 35
M  V30 35 1 35 36
M  V30 36 1 36 37
M  V30 37 1 37 38
M  V30 38 1 31 5
M  V30 39 1 38 34
M  V30 40 1 22 9
M  V30 41 1 19 15
M  V30 42 1 1 39
M  V30 43 1 1 40
M  V30 44 1 11 41
M  V30 45 1 16 42
M  V30 46 1 16 43
M  V30 47 1 17 44
M  V30 48 1 17 45
M  V30 49 1 18 46
M  V30 50 1 18 47
M  V30 51 1 19 48
M  V30 52 1 19 49
M  V30 53 1 22 50
M  V30 54 1 24 51
M  V30 55 1 24 52
M  V30 56 1 27 53
M  V30 57 1 31 54
M  V30 58 1 35 55
M  V30 59 1 35 56
M  V30 60 1 36 57
M  V30 61 1 36 58
M  V30 62 1 37 59
M  V30 63 1 37 60
M  V30 64 1 38 61
M  V30 65 1 38 62
M  V30 END BOND
M  V30 END CTAB
M  END
