
     RDKit          3D

  0  0  0  0  0  0  0  0  0  0999 V3000
M  V30 BEGIN CTAB
M  V30 COUNTS 32 32 0 0 0
M  V30 BEGIN ATOM
M  V30 1 N -2.34312 1.74587 -0.690147 0
M  V30 2 C -2.53418 0.354827 -0.454595 0
M  V30 3 C -1.56763 -0.292803 0.462476 0
M  V30 4 C -0.142727 -0.30836 0.127718 0
M  V30 5 O 0.503146 -1.0104 1.19422 0
M  V30 6 C 0.273094 -1.00047 -1.12295 0
M  V30 7 C 1.71002 -1.42629 -0.939335 0
M  V30 8 C 2.54954 -0.440125 -0.213958 0
M  V30 9 C 1.99707 0.936556 -0.19885 0
M  V30 10 C 0.50818 1.03504 0.10893 0
M  V30 11 N 2.71631 1.79341 0.733439 0
M  V30 12 C -2.11382 -1.654 0.867363 0
M  V30 13 H -2.56509 2.35897 0.117096 0
M  V30 14 H -2.65761 2.09183 -1.5985 0
M  V30 15 H -3.58225 0.249316 -0.0364687 0
M  V30 16 H -2.60831 -0.148171 -1.44723 0
M  V30 17 H -1.64215 0.293839 1.43992 0
M  V30 18 H 0.510871 -0.430128 1.99598 0
M  V30 19 H -0.306188 -1.89451 -1.37997 0
M  V30 20 H 0.159375 -0.290977 -1.9725 0
M  V30 21 H 1.67369 -2.35287 -0.289535 0
M  V30 22 H 2.14906 -1.77833 -1.89592 0
M  V30 23 H 2.87352 -0.777117 0.815253 0
M  V30 24 H 3.5186 -0.368484 -0.811834 0
M  V30 25 H 2.22357 1.39538 -1.20844 0
M  V30 26 H 0.368562 1.58681 1.08075 0
M  V30 27 H 0.118433 1.72247 -0.66864 0
M  V30 28 H 2.85775 2.75997 0.356171 0
M  V30 29 H 2.14227 1.89218 1.62387 0
M  V30 30 H -1.83172 -1.91045 1.90736 0
M  V30 31 H -1.73457 -2.46912 0.228373 0
M  V30 32 H -3.2237 -1.66387 0.806466 0
M  V30 END ATOM
M  V30 BEGIN BOND
M  V30 1 1 1 2
M  V30 2 1 2 3
M  V30 3 1 3 4
M  V30 4 1 4 5
M  V30 5 1 4 6
M  V30 6 1 6 7
M  V30 7 1 7 8
M  V30 8 1 8 9
M  V30 9 1 9 10
M  V30 10 1 9 11
M  V30 11 1 3 12
M  V30 12 1 10 4
M  V30 13 1 1 13
M  V30 14 1 1 14
M  V30 15 1 2 15
M  V30 16 1 2 16
M  V30 17 1 3 17
M  V30 18 1 5 18
M  V30 19 1 6 19
M  V30 20 1 6 20
M  V30 21 1 7 21
M  V30 22 1 7 22
M  V30 23 1 8 23
M  V30 24 1 8 24
M  V30 25 1 9 25
M  V30 26 1 10 26
M  V30 27 1 10 27
M  V30 28 1 11 28
M  V30 29 1 11 29
M  V30 30 1 12 30
M  V30 31 1 12 31
M  V30 32 1 12 32
M  V30 END BOND
M  V30 END CTAB
M  END
