
     RDKit          3D

  0  0  0  0  0  0  0  0  0  0999 V3000
M  V30 BEGIN CTAB
M  V30 COUNTS 39 39 0 0 0
M  V30 BEGIN ATOM
M  V30 1 C 5.72239 -0.0861395 -0.185175 0
M  V30 2 C 4.85937 0.855637 0.600681 0
M  V30 3 C 3.38023 0.638957 0.350384 0
M  V30 4 C 2.92659 -0.728341 0.712763 0
M  V30 5 C 1.46962 -0.934977 0.443179 0
M  V30 6 C 0.651783 0.0290708 1.23352 0
M  V30 7 C -0.847059 -0.125178 1.04931 0
M  V30 8 C -1.16582 0.090975 -0.384918 0
M  V30 9 C -2.60705 -0.0189404 -0.708345 0
M  V30 10 C -3.48318 0.994258 -0.390354 0
M  V30 11 N -2.97182 2.14125 0.255366 0
M  V30 12 N -4.80709 0.886906 -0.692288 0
M  V30 13 C -5.31551 -0.193685 -1.30463 0
M  V30 14 N -6.71594 -0.287527 -1.61525 0
M  V30 15 N -4.47259 -1.19137 -1.62137 0
M  V30 16 C -3.13974 -1.12352 -1.33654 0
M  V30 17 O -2.27755 -2.16292 -1.66936 0
M  V30 18 H 5.51847 -1.14759 -0.0030128 0
M  V30 19 H 6.77585 0.0878117 0.168362 0
M  V30 20 H 5.63414 0.141054 -1.27471 0
M  V30 21 H 5.04518 0.759045 1.67431 0
M  V30 22 H 5.10157 1.89002 0.27076 0
M  V30 23 H 2.87417 1.36245 1.05895 0
M  V30 24 H 3.11731 0.953165 -0.66977 0
M  V30 25 H 3.14544 -0.869487 1.81183 0
M  V30 26 H 3.52063 -1.50249 0.178811 0
M  V30 27 H 1.34206 -0.775545 -0.66992 0
M  V30 28 H 1.15255 -1.99818 0.593304 0
M  V30 29 H 0.92934 0.0699148 2.30094 0
M  V30 30 H 0.926958 1.0567 0.835526 0
M  V30 31 H -1.14911 -1.16871 1.3329 0
M  V30 32 H -1.32217 0.597617 1.7364 0
M  V30 33 H -0.629091 -0.722782 -0.962123 0
M  V30 34 H -0.710805 1.03231 -0.723099 0
M  V30 35 H -2.48968 2.89572 -0.254586 0
M  V30 36 H -3.09676 2.21043 1.28903 0
M  V30 37 H -7.03919 0.0645393 -2.554 0
M  V30 38 H -7.42194 -0.674438 -0.983585 0
M  V30 39 H -2.43153 -3.04601 -1.20015 0
M  V30 END ATOM
M  V30 BEGIN BOND
M  V30 1 1 1 2
M  V30 2 1 2 3
M  V30 3 1 3 4
M  V30 4 1 4 5
M  V30 5 1 5 6
M  V30 6 1 6 7
M  V30 7 1 7 8
M  V30 8 1 8 9
M  V30 9 2 9 10
M  V30 10 1 10 11
M  V30 11 1 10 12
M  V30 12 2 12 13
M  V30 13 1 13 14
M  V30 14 1 13 15
M  V30 15 2 15 16
M  V30 16 1 16 17
M  V30 17 1 16 9
M  V30 18 1 1 18
M  V30 19 1 1 19
M  V30 20 1 1 20
M  V30 21 1 2 21
M  V30 22 1 2 22
M  V30 23 1 3 23
M  V30 24 1 3 24
M  V30 25 1 4 25
M  V30 26 1 4 26
M  V30 27 1 5 27
M  V30 28 1 5 28
M  V30 29 1 6 29
M  V30 30 1 6 30
M  V30 31 1 7 31
M  V30 32 1 7 32
M  V30 33 1 8 33
M  V30 34 1 8 34
M  V30 35 1 11 35
M  V30 36 1 11 36
M  V30 37 1 14 37
M  V30 38 1 14 38
M  V30 39 1 17 39
M  V30 END BOND
M  V30 END CTAB
M  END
