
     RDKit          3D

  0  0  0  0  0  0  0  0  0  0999 V3000
M  V30 BEGIN CTAB
M  V30 COUNTS 20 20 0 0 0
M  V30 BEGIN ATOM
M  V30 1 C -2.82613 -0.70705 0.661566 0
M  V30 2 C -1.49471 0.0252167 0.584094 0 CFG=1
M  V30 3 C -0.52997 -0.873078 -0.13363 0
M  V30 4 C 0.815169 -0.270546 -0.275456 0
M  V30 5 O 1.24415 0.466354 -1.2537 0
M  V30 6 N 2.48115 0.829677 -1.05738 0
M  V30 7 C 2.89532 0.306069 0.113516 0
M  V30 8 N 1.83558 -0.382437 0.591455 0
M  V30 9 N 4.17711 0.466117 0.687662 0
M  V30 10 N -1.66652 1.24677 -0.181118 0
M  V30 11 H -3.29285 -0.571555 1.65381 0
M  V30 12 H -2.69983 -1.78861 0.465771 0
M  V30 13 H -3.50421 -0.314026 -0.101311 0
M  V30 14 H -1.10401 0.258484 1.59586 0
M  V30 15 H -0.981514 -1.11584 -1.13119 0
M  V30 16 H -0.486884 -1.86029 0.402491 0
M  V30 17 H 4.93602 -0.238841 0.549524 0
M  V30 18 H 4.35501 1.3142 1.26107 0
M  V30 19 H -2.29129 1.14035 -0.982017 0
M  V30 20 H -1.86158 2.06902 0.428057 0
M  V30 END ATOM
M  V30 BEGIN BOND
M  V30 1 1 1 2
M  V30 2 1 2 3
M  V30 3 1 3 4
M  V30 4 1 4 5
M  V30 5 1 5 6
M  V30 6 2 6 7
M  V30 7 1 7 8
M  V30 8 1 7 9
M  V30 9 1 2 10
M  V30 10 2 8 4
M  V30 11 1 1 11
M  V30 12 1 1 12
M  V30 13 1 1 13
M  V30 14 1 2 14 CFG=1
M  V30 15 1 3 15
M  V30 16 1 3 16
M  V30 17 1 9 17
M  V30 18 1 9 18
M  V30 19 1 10 19
M  V30 20 1 10 20
M  V30 END BOND
M  V30 END CTAB
M  END
