
     RDKit          3D

  0  0  0  0  0  0  0  0  0  0999 V3000
M  V30 BEGIN CTAB
M  V30 COUNTS 29 30 0 0 0
M  V30 BEGIN ATOM
M  V30 1 N 4.79798 1.53505 -0.889588 0
M  V30 2 C 3.78927 0.815589 -0.187432 0
M  V30 3 C 3.81059 -0.554168 -0.244036 0
M  V30 4 C 2.84968 -1.30365 0.422711 0
M  V30 5 C 1.84791 -0.700445 1.15957 0
M  V30 6 C 1.83985 0.676027 1.20717 0
M  V30 7 C 2.79847 1.43378 0.542165 0
M  V30 8 S 0.67335 -1.68552 1.98478 0
M  V30 9 O 1.32338 -2.91245 2.58247 0
M  V30 10 O 0.0933152 -0.939645 3.18278 0
M  V30 11 N -0.636639 -2.16847 1.01293 0
M  V30 12 C -1.50188 -1.17662 0.439558 0
M  V30 13 N -1.47713 0.143138 0.527557 0
M  V30 14 N -2.34515 0.841547 -0.0633657 0
M  V30 15 C -3.29473 0.250778 -0.781778 0
M  V30 16 S -2.88616 -1.39724 -0.573709 0
M  V30 17 S -4.59086 1.02225 -1.67851 0
M  V30 18 N -5.95595 1.20934 -0.683243 0
M  V30 19 O -4.13862 2.36508 -2.19655 0
M  V30 20 O -4.90352 0.163997 -2.87395 0
M  V30 21 H 5.14907 2.46349 -0.577848 0
M  V30 22 H 5.22936 1.14134 -1.76517 0
M  V30 23 H 4.56784 -1.05467 -0.802371 0
M  V30 24 H 2.86342 -2.3831 0.380291 0
M  V30 25 H 1.07444 1.16127 1.77763 0
M  V30 26 H 2.77576 2.51552 0.591054 0
M  V30 27 H -0.817669 -3.17367 0.829334 0
M  V30 28 H -6.09948 0.334152 -0.142549 0
M  V30 29 H -6.8359 1.37728 -1.22209 0
M  V30 END ATOM
M  V30 BEGIN BOND
M  V30 1 1 1 2
M  V30 2 2 2 3
M  V30 3 1 3 4
M  V30 4 2 4 5
M  V30 5 1 5 6
M  V30 6 2 6 7
M  V30 7 1 5 8
M  V30 8 2 8 9
M  V30 9 2 8 10
M  V30 10 1 8 11
M  V30 11 1 11 12
M  V30 12 2 12 13
M  V30 13 1 13 14
M  V30 14 2 14 15
M  V30 15 1 15 16
M  V30 16 1 15 17
M  V30 17 1 17 18
M  V30 18 2 17 19
M  V30 19 2 17 20
M  V30 20 1 7 2
M  V30 21 1 16 12
M  V30 22 1 1 21
M  V30 23 1 1 22
M  V30 24 1 3 23
M  V30 25 1 4 24
M  V30 26 1 6 25
M  V30 27 1 7 26
M  V30 28 1 11 27
M  V30 29 1 18 28
M  V30 30 1 18 29
M  V30 END BOND
M  V30 END CTAB
M  END
