
     RDKit          3D

  0  0  0  0  0  0  0  0  0  0999 V3000
M  V30 BEGIN CTAB
M  V30 COUNTS 45 48 0 0 0
M  V30 BEGIN ATOM
M  V30 1 N 6.67967 0.518043 2.39408 0
M  V30 2 C 5.65975 0.227488 1.44152 0
M  V30 3 C 5.42262 -1.09089 1.06816 0
M  V30 4 C 4.44236 -1.40264 0.148686 0
M  V30 5 C 4.17627 -2.81333 -0.261951 0
M  V30 6 C 3.70475 -0.356614 -0.38769 0
M  V30 7 C 3.92629 0.957536 -0.0288664 0
M  V30 8 C 4.91205 1.24495 0.892603 0
M  V30 9 N 3.06259 1.72963 -0.711909 0
M  V30 10 C 2.31779 0.908054 -1.48152 0
M  V30 11 O 2.72942 -0.309704 -1.25918 0
M  V30 12 C 1.22414 1.27802 -2.42021 0
M  V30 13 C -0.101938 1.27462 -1.67644 0
M  V30 14 C -0.35944 -0.124056 -1.11347 0
M  V30 15 C -1.67075 -0.0382531 -0.406111 0
M  V30 16 N -1.87033 0.277541 0.873695 0
M  V30 17 C -3.18685 0.246947 1.13186 0
M  V30 18 C -3.75514 -0.106104 -0.0725137 0
M  V30 19 O -2.81713 -0.267059 -0.964053 0
M  V30 20 C -5.14447 -0.222265 -0.124782 0
M  V30 21 C -5.79386 -0.60131 -1.40651 0
M  V30 22 C -5.91102 0.00988218 0.993352 0
M  V30 23 C -5.35398 0.362743 2.20019 0
M  V30 24 C -3.97891 0.474952 2.24125 0
M  V30 25 N -6.10682 0.611714 3.37951 0
M  V30 26 H 7.55838 0.987711 2.13778 0
M  V30 27 H 6.51173 0.236672 3.38385 0
M  V30 28 H 5.98797 -1.91332 1.47677 0
M  V30 29 H 4.61183 -3.02085 -1.26416 0
M  V30 30 H 3.06651 -2.95679 -0.398724 0
M  V30 31 H 4.48342 -3.53386 0.506503 0
M  V30 32 H 5.10618 2.28168 1.19309 0
M  V30 33 H 1.38072 2.27984 -2.85771 0
M  V30 34 H 1.22862 0.526741 -3.23126 0
M  V30 35 H -0.930434 1.6089 -2.30616 0
M  V30 36 H -0.0420895 1.94217 -0.797199 0
M  V30 37 H 0.426762 -0.413075 -0.393807 0
M  V30 38 H -0.436619 -0.869869 -1.91566 0
M  V30 39 H -6.56184 0.186464 -1.63655 0
M  V30 40 H -5.06959 -0.584016 -2.22814 0
M  V30 41 H -6.24172 -1.61096 -1.38064 0
M  V30 42 H -6.9915 -0.0899982 0.915735 0
M  V30 43 H -3.47475 0.748805 3.15733 0
M  V30 44 H -6.29488 1.57409 3.74739 0
M  V30 45 H -6.52578 -0.170247 3.96087 0
M  V30 END ATOM
M  V30 BEGIN BOND
M  V30 1 1 1 2
M  V30 2 2 2 3
M  V30 3 1 3 4
M  V30 4 1 4 5
M  V30 5 2 4 6
M  V30 6 1 6 7
M  V30 7 2 7 8
M  V30 8 1 7 9
M  V30 9 2 9 10
M  V30 10 1 10 11
M  V30 11 1 10 12
M  V30 12 1 12 13
M  V30 13 1 13 14
M  V30 14 1 14 15
M  V30 15 2 15 16
M  V30 16 1 16 17
M  V30 17 2 17 18
M  V30 18 1 18 19
M  V30 19 1 18 20
M  V30 20 1 20 21
M  V30 21 2 20 22
M  V30 22 1 22 23
M  V30 23 2 23 24
M  V30 24 1 23 25
M  V30 25 1 8 2
M  V30 26 1 19 15
M  V30 27 1 11 6
M  V30 28 1 24 17
M  V30 29 1 1 26
M  V30 30 1 1 27
M  V30 31 1 3 28
M  V30 32 1 5 29
M  V30 33 1 5 30
M  V30 34 1 5 31
M  V30 35 1 8 32
M  V30 36 1 12 33
M  V30 37 1 12 34
M  V30 38 1 13 35
M  V30 39 1 13 36
M  V30 40 1 14 37
M  V30 41 1 14 38
M  V30 42 1 21 39
M  V30 43 1 21 40
M  V30 44 1 21 41
M  V30 45 1 22 42
M  V30 46 1 24 43
M  V30 47 1 25 44
M  V30 48 1 25 45
M  V30 END BOND
M  V30 END CTAB
M  END
