
     RDKit          3D

  0  0  0  0  0  0  0  0  0  0999 V3000
M  V30 BEGIN CTAB
M  V30 COUNTS 51 53 0 0 0
M  V30 BEGIN ATOM
M  V30 1 C -4.14256 -0.973844 -2.76879 0
M  V30 2 N -3.22309 -0.905085 -1.62476 0
M  V30 3 C -3.55098 -1.47744 -0.454705 0
M  V30 4 O -4.65639 -2.07578 -0.343474 0
M  V30 5 N -2.75216 -1.44812 0.624935 0
M  V30 6 C -3.15997 -2.09264 1.8848 0
M  V30 7 C -1.56962 -0.815155 0.526035 0
M  V30 8 N -0.755665 -0.805544 1.68767 0
M  V30 9 C -1.15936 -0.204532 -0.634238 0
M  V30 10 C 0.166094 0.514569 -0.762637 0
M  V30 11 C 0.0392673 1.95664 -0.705639 0
M  V30 12 C 0.648213 2.80546 -1.61957 0
M  V30 13 C 0.525952 4.16101 -1.6252 0
M  V30 14 C -0.253911 4.76037 -0.663706 0
M  V30 15 Cl -0.432076 6.51359 -0.644656 0
M  V30 16 C -0.87148 3.96857 0.254469 0
M  V30 17 C -0.733376 2.58681 0.242221 0
M  V30 18 C 1.27843 -0.163032 -0.141381 0
M  V30 19 C 2.15395 0.302137 0.798252 0
M  V30 20 N 2.04561 1.59616 1.31182 0
M  V30 21 N 3.16895 -0.450551 1.29051 0
M  V30 22 C 4.06057 0.108439 2.28489 0
M  V30 23 C 3.34325 -1.69985 0.857767 0
M  V30 24 O 4.30627 -2.37695 1.3419 0
M  V30 25 N 2.51967 -2.2183 -0.0632078 0
M  V30 26 C 2.7492 -3.57407 -0.497957 0
M  V30 27 C 1.51537 -1.49137 -0.558773 0
M  V30 28 O 0.771384 -2.03412 -1.42512 0
M  V30 29 C -2.04147 -0.279777 -1.70298 0
M  V30 30 O -1.71817 0.261877 -2.79056 0
M  V30 31 H -3.7742 -0.325123 -3.56131 0
M  V30 32 H -5.18451 -0.798035 -2.46818 0
M  V30 33 H -4.093 -2.02924 -3.14182 0
M  V30 34 H -3.78687 -2.96632 1.72235 0
M  V30 35 H -3.61191 -1.32941 2.56989 0
M  V30 36 H -2.20318 -2.39379 2.38335 0
M  V30 37 H -0.596695 0.0422543 2.25931 0
M  V30 38 H -0.303718 -1.69658 1.97494 0
M  V30 39 H 0.360627 0.318852 -1.90467 0
M  V30 40 H 1.27893 2.36711 -2.40249 0
M  V30 41 H 1.04157 4.76327 -2.38442 0
M  V30 42 H -1.48286 4.4638 1.00493 0
M  V30 43 H -1.27141 2.0784 1.01635 0
M  V30 44 H 2.4379 2.46039 0.901986 0
M  V30 45 H 1.51236 1.714 2.21975 0
M  V30 46 H 4.66962 0.90422 1.79836 0
M  V30 47 H 3.51387 0.527085 3.15348 0
M  V30 48 H 4.75152 -0.653523 2.69354 0
M  V30 49 H 2.0598 -3.87526 -1.31925 0
M  V30 50 H 2.6271 -4.30946 0.32021 0
M  V30 51 H 3.78315 -3.71209 -0.914206 0
M  V30 END ATOM
M  V30 BEGIN BOND
M  V30 1 1 1 2
M  V30 2 1 2 3
M  V30 3 2 3 4
M  V30 4 1 3 5
M  V30 5 1 5 6
M  V30 6 1 5 7
M  V30 7 1 7 8
M  V30 8 2 7 9
M  V30 9 1 9 10
M  V30 10 1 10 11
M  V30 11 2 11 12
M  V30 12 1 12 13
M  V30 13 2 13 14
M  V30 14 1 14 15
M  V30 15 1 14 16
M  V30 16 2 16 17
M  V30 17 1 10 18
M  V30 18 2 18 19
M  V30 19 1 19 20
M  V30 20 1 19 21
M  V30 21 1 21 22
M  V30 22 1 21 23
M  V30 23 2 23 24
M  V30 24 1 23 25
M  V30 25 1 25 26
M  V30 26 1 25 27
M  V30 27 2 27 28
M  V30 28 1 9 29
M  V30 29 2 29 30
M  V30 30 1 29 2
M  V30 31 1 17 11
M  V30 32 1 27 18
M  V30 33 1 1 31
M  V30 34 1 1 32
M  V30 35 1 1 33
M  V30 36 1 6 34
M  V30 37 1 6 35
M  V30 38 1 6 36
M  V30 39 1 8 37
M  V30 40 1 8 38
M  V30 41 1 10 39
M  V30 42 1 12 40
M  V30 43 1 13 41
M  V30 44 1 16 42
M  V30 45 1 17 43
M  V30 46 1 20 44
M  V30 47 1 20 45
M  V30 48 1 22 46
M  V30 49 1 22 47
M  V30 50 1 22 48
M  V30 51 1 26 49
M  V30 52 1 26 50
M  V30 53 1 26 51
M  V30 END BOND
M  V30 END CTAB
M  END
