
     RDKit          3D

  0  0  0  0  0  0  0  0  0  0999 V3000
M  V30 BEGIN CTAB
M  V30 COUNTS 45 47 0 0 0
M  V30 BEGIN ATOM
M  V30 1 O 0.221652 -3.13873 0.0493694 0
M  V30 2 C -0.0189767 -1.98562 0.435863 0
M  V30 3 N -1.25687 -1.37153 0.229666 0
M  V30 4 C -2.41199 -1.87221 -0.402562 0
M  V30 5 C -2.54209 -3.21108 -0.788222 0
M  V30 6 C -3.71175 -3.69088 -1.36361 0
M  V30 7 C -4.78796 -2.86874 -1.57649 0
M  V30 8 C -4.67393 -1.56842 -1.20765 0
M  V30 9 C -3.50693 -1.06679 -0.628853 0
M  V30 10 C -3.5074 0.341896 -0.331464 0
M  V30 11 C -4.49727 0.881081 0.493307 0
M  V30 12 C -4.55503 2.23854 0.773143 0
M  V30 13 C -3.62354 3.10267 0.236496 0
M  V30 14 C -2.63601 2.5888 -0.582305 0
M  V30 15 C -2.59568 1.23012 -0.849504 0
M  V30 16 C 1.0937 -1.26338 1.14725 0
M  V30 17 C 2.31258 -2.13975 1.26322 0
M  V30 18 S 3.66869 -1.31889 2.10563 0
M  V30 19 C 4.31256 0.0571288 1.15639 0
M  V30 20 N 3.81118 1.28664 1.29064 0
M  V30 21 C 4.21996 2.38061 0.634028 0
M  V30 22 N 3.6461 3.65798 0.81917 0
M  V30 23 C 5.27094 2.20105 -0.273258 0
M  V30 24 C 5.80215 0.934075 -0.425 0
M  V30 25 N 5.33227 -0.115386 0.275456 0
M  V30 26 N 6.86734 0.808334 -1.35779 0
M  V30 27 H -1.34395 -0.375326 0.633015 0
M  V30 28 H -1.76252 -3.93293 -0.658906 0
M  V30 29 H -3.79657 -4.73399 -1.6577 0
M  V30 30 H -5.69667 -3.23198 -2.02062 0
M  V30 31 H -5.52603 -0.917293 -1.37622 0
M  V30 32 H -5.21408 0.178544 0.899074 0
M  V30 33 H -5.34243 2.61905 1.42063 0
M  V30 34 H -3.6596 4.17709 0.451078 0
M  V30 35 H -1.89546 3.25444 -1.01256 0
M  V30 36 H -1.81772 0.818971 -1.49514 0
M  V30 37 H 0.783055 -0.964173 2.15612 0
M  V30 38 H 1.32044 -0.346822 0.576394 0
M  V30 39 H 2.643 -2.42048 0.234153 0
M  V30 40 H 2.06236 -3.05202 1.84344 0
M  V30 41 H 2.64698 3.79755 0.628733 0
M  V30 42 H 4.23382 4.43485 1.14222 0
M  V30 43 H 5.61614 3.05845 -0.810279 0
M  V30 44 H 7.81149 1.14229 -1.07453 0
M  V30 45 H 6.70407 0.39627 -2.28996 0
M  V30 END ATOM
M  V30 BEGIN BOND
M  V30 1 2 1 2
M  V30 2 1 2 3
M  V30 3 1 3 4
M  V30 4 2 4 5
M  V30 5 1 5 6
M  V30 6 2 6 7
M  V30 7 1 7 8
M  V30 8 2 8 9
M  V30 9 1 9 10
M  V30 10 2 10 11
M  V30 11 1 11 12
M  V30 12 2 12 13
M  V30 13 1 13 14
M  V30 14 2 14 15
M  V30 15 1 2 16
M  V30 16 1 16 17
M  V30 17 1 17 18
M  V30 18 1 18 19
M  V30 19 2 19 20
M  V30 20 1 20 21
M  V30 21 1 21 22
M  V30 22 2 21 23
M  V30 23 1 23 24
M  V30 24 2 24 25
M  V30 25 1 24 26
M  V30 26 1 9 4
M  V30 27 1 15 10
M  V30 28 1 25 19
M  V30 29 1 3 27
M  V30 30 1 5 28
M  V30 31 1 6 29
M  V30 32 1 7 30
M  V30 33 1 8 31
M  V30 34 1 11 32
M  V30 35 1 12 33
M  V30 36 1 13 34
M  V30 37 1 14 35
M  V30 38 1 15 36
M  V30 39 1 16 37
M  V30 40 1 16 38
M  V30 41 1 17 39
M  V30 42 1 17 40
M  V30 43 1 22 41
M  V30 44 1 22 42
M  V30 45 1 23 43
M  V30 46 1 26 44
M  V30 47 1 26 45
M  V30 END BOND
M  V30 END CTAB
M  END
