
     RDKit          3D

  0  0  0  0  0  0  0  0  0  0999 V3000
M  V30 BEGIN CTAB
M  V30 COUNTS 37 38 0 0 0
M  V30 BEGIN ATOM
M  V30 1 N -4.01252 1.92376 -1.00443 0
M  V30 2 C -3.61366 0.542469 -1.10355 0
M  V30 3 C -3.49448 -0.0807298 0.257054 0 CFG=1
M  V30 4 C -3.07313 -1.5248 0.194692 0
M  V30 5 C -1.66687 -1.71876 0.735897 0
M  V30 6 C -0.78574 -0.736637 0.0237261 0 CFG=1
M  V30 7 C -1.16896 0.694607 0.32786 0
M  V30 8 C -2.48168 0.681767 1.06667 0
M  V30 9 C 0.645147 -0.90112 0.374135 0
M  V30 10 O 1.02017 -1.7692 1.17248 0
M  V30 11 N 1.60461 -0.0420284 -0.221095 0
M  V30 12 C 2.98745 -0.171427 0.0921313 0
M  V30 13 C 3.90992 0.667121 -0.490893 0
M  V30 14 C 5.272 0.55412 -0.194816 0
M  V30 15 N 6.22738 1.4273 -0.802661 0
M  V30 16 N 5.64692 -0.399261 0.676383 0
M  V30 17 C 4.75525 -1.22784 1.25538 0
M  V30 18 N 3.45314 -1.09109 0.947746 0
M  V30 19 H -4.39585 2.07871 -0.0506077 0
M  V30 20 H -4.73856 2.16417 -1.6821 0
M  V30 21 H -4.42231 0.00902723 -1.68992 0
M  V30 22 H -2.71622 0.49636 -1.72589 0
M  V30 23 H -4.51736 -0.0115701 0.732712 0
M  V30 24 H -3.75818 -2.21447 0.692073 0
M  V30 25 H -3.01903 -1.8279 -0.890053 0
M  V30 26 H -1.35673 -2.74103 0.409288 0
M  V30 27 H -1.60455 -1.70128 1.82183 0
M  V30 28 H -0.919475 -0.946276 -1.07862 0
M  V30 29 H -1.21847 1.24143 -0.623715 0
M  V30 30 H -0.384623 1.18698 0.956471 0
M  V30 31 H -2.8272 1.70911 1.31091 0
M  V30 32 H -2.373 0.172368 2.04648 0
M  V30 33 H 1.30785 0.694795 -0.895566 0
M  V30 34 H 3.57096 1.426 -1.19029 0
M  V30 35 H 6.00182 2.4374 -0.814869 0
M  V30 36 H 7.07963 0.984335 -1.18846 0
M  V30 37 H 5.06635 -1.98641 1.95043 0
M  V30 END ATOM
M  V30 BEGIN BOND
M  V30 1 1 1 2
M  V30 2 1 2 3
M  V30 3 1 3 4
M  V30 4 1 4 5
M  V30 5 1 5 6
M  V30 6 1 6 7
M  V30 7 1 7 8
M  V30 8 1 6 9
M  V30 9 2 9 10
M  V30 10 1 9 11
M  V30 11 1 11 12
M  V30 12 2 12 13
M  V30 13 1 13 14
M  V30 14 1 14 15
M  V30 15 2 14 16
M  V30 16 1 16 17
M  V30 17 2 17 18
M  V30 18 1 8 3
M  V30 19 1 18 12
M  V30 20 1 1 19
M  V30 21 1 1 20
M  V30 22 1 2 21
M  V30 23 1 2 22
M  V30 24 1 3 23 CFG=1
M  V30 25 1 4 24
M  V30 26 1 4 25
M  V30 27 1 5 26
M  V30 28 1 5 27
M  V30 29 1 6 28 CFG=3
M  V30 30 1 7 29
M  V30 31 1 7 30
M  V30 32 1 8 31
M  V30 33 1 8 32
M  V30 34 1 11 33
M  V30 35 1 13 34
M  V30 36 1 15 35
M  V30 37 1 15 36
M  V30 38 1 17 37
M  V30 END BOND
M  V30 END CTAB
M  END
