
     RDKit          3D

  0  0  0  0  0  0  0  0  0  0999 V3000
M  V30 BEGIN CTAB
M  V30 COUNTS 18 18 0 0 0
M  V30 BEGIN ATOM
M  V30 1 O 3.97113 0.179515 -0.465605 0 CHG=-1
M  V30 2 N 2.93897 -0.644805 -0.00957279 0 CHG=1
M  V30 3 O 3.28976 -1.78717 0.346742 0
M  V30 4 C 1.60306 -0.173712 0.0281359 0
M  V30 5 C 1.31997 1.15206 0.257941 0
M  V30 6 C -0.00550322 1.60574 0.292962 0
M  V30 7 C -1.04755 0.718255 0.0955894 0
M  V30 8 C -0.753131 -0.620137 -0.135931 0
M  V30 9 C 0.57105 -1.05896 -0.168522 0
M  V30 10 F 0.798576 -2.39548 -0.40137 0
M  V30 11 N -1.84032 -1.49587 -0.333148 0
M  V30 12 N -2.40737 1.13247 0.122888 0
M  V30 13 H 2.1278 1.86342 0.416664 0
M  V30 14 H -0.241037 2.64952 0.473831 0
M  V30 15 H -2.73996 -1.36313 0.155282 0
M  V30 16 H -1.7411 -2.29263 -0.981832 0
M  V30 17 H -3.05876 0.611703 0.741552 0
M  V30 18 H -2.78558 1.91921 -0.435608 0
M  V30 END ATOM
M  V30 BEGIN BOND
M  V30 1 1 1 2
M  V30 2 2 2 3
M  V30 3 1 2 4
M  V30 4 2 4 5
M  V30 5 1 5 6
M  V30 6 2 6 7
M  V30 7 1 7 8
M  V30 8 2 8 9
M  V30 9 1 9 10
M  V30 10 1 8 11
M  V30 11 1 7 12
M  V30 12 1 9 4
M  V30 13 1 5 13
M  V30 14 1 6 14
M  V30 15 1 11 15
M  V30 16 1 11 16
M  V30 17 1 12 17
M  V30 18 1 12 18
M  V30 END BOND
M  V30 END CTAB
M  END
