
     RDKit          3D

  0  0  0  0  0  0  0  0  0  0999 V3000
M  V30 BEGIN CTAB
M  V30 COUNTS 26 27 0 0 0
M  V30 BEGIN ATOM
M  V30 1 C -3.25386 0.040375 1.17827 0
M  V30 2 N -2.37224 0.0825024 0.0403899 0
M  V30 3 C -2.95918 0.413411 -1.26294 0
M  V30 4 C -0.982523 -0.162115 0.07343 0
M  V30 5 N -0.087711 0.825673 0.11478 0
M  V30 6 C 1.24155 0.537858 0.149221 0
M  V30 7 C 2.18117 1.53118 0.188071 0
M  V30 8 N 1.78427 2.8916 0.190401 0
M  V30 9 N 3.4834 1.19431 0.21682 0
M  V30 10 C 3.91058 -0.0961488 0.209769 0
M  V30 11 N 3.00767 -1.0926 0.172263 0
M  V30 12 C 1.70364 -0.767515 0.143243 0
M  V30 13 C 0.740489 -1.7738 0.0995654 0
M  V30 14 N 1.13972 -3.13666 0.0938969 0
M  V30 15 N -0.545431 -1.43364 0.0672254 0
M  V30 16 H -3.71656 -0.963146 1.29717 0
M  V30 17 H -4.11222 0.733659 1.0014 0
M  V30 18 H -2.70991 0.347453 2.08704 0
M  V30 19 H -4.01264 0.137623 -1.3295 0
M  V30 20 H -2.36762 -0.0294156 -2.08468 0
M  V30 21 H -2.89499 1.53286 -1.3152 0
M  V30 22 H 1.63764 3.38046 -0.711524 0
M  V30 23 H 1.63469 3.42348 1.06774 0
M  V30 24 H 4.97859 -0.284776 0.236305 0
M  V30 25 H 0.43541 -3.89654 0.191038 0
M  V30 26 H 2.13609 -3.43608 -0.00444435 0
M  V30 END ATOM
M  V30 BEGIN BOND
M  V30 1 1 1 2
M  V30 2 1 2 3
M  V30 3 1 2 4
M  V30 4 2 4 5
M  V30 5 1 5 6
M  V30 6 2 6 7
M  V30 7 1 7 8
M  V30 8 1 7 9
M  V30 9 2 9 10
M  V30 10 1 10 11
M  V30 11 2 11 12
M  V30 12 1 12 13
M  V30 13 1 13 14
M  V30 14 2 13 15
M  V30 15 1 15 4
M  V30 16 1 12 6
M  V30 17 1 1 16
M  V30 18 1 1 17
M  V30 19 1 1 18
M  V30 20 1 3 19
M  V30 21 1 3 20
M  V30 22 1 3 21
M  V30 23 1 8 22
M  V30 24 1 8 23
M  V30 25 1 10 24
M  V30 26 1 14 25
M  V30 27 1 14 26
M  V30 END BOND
M  V30 END CTAB
M  END
