
     RDKit          3D

  0  0  0  0  0  0  0  0  0  0999 V3000
M  V30 BEGIN CTAB
M  V30 COUNTS 42 43 0 0 0
M  V30 BEGIN ATOM
M  V30 1 C 6.13233 1.95445 0.960015 0
M  V30 2 C 6.23121 1.57017 -0.478687 0
M  V30 3 O 5.03532 1.48904 -1.17572 0
M  V30 4 C 3.95949 0.678332 -0.94635 0
M  V30 5 C 2.87177 0.792284 -1.78654 0
M  V30 6 C 1.74687 -0.0177724 -1.59088 0
M  V30 7 C 1.70485 -0.926689 -0.574686 0
M  V30 8 C 2.82608 -1.02146 0.264928 0
M  V30 9 C 3.93123 -0.235056 0.0829587 0
M  V30 10 N 0.622309 -1.76738 -0.286476 0
M  V30 11 C -0.683834 -1.68013 -0.783713 0
M  V30 12 O -1.06566 -0.804274 -1.57403 0
M  V30 13 C -1.69306 -2.70603 -0.339313 0
M  V30 14 S -3.30601 -2.38101 -1.09399 0
M  V30 15 C -4.01135 -0.857206 -0.492063 0
M  V30 16 N -4.78479 -0.887975 0.591272 0
M  V30 17 C -5.36186 0.217628 1.1192 0
M  V30 18 N -6.18482 0.150336 2.27852 0
M  V30 19 C -5.14562 1.44213 0.514263 0
M  V30 20 C -4.33821 1.48391 -0.619018 0
M  V30 21 N -3.80483 0.335889 -1.07575 0
M  V30 22 N -4.07385 2.70447 -1.28768 0
M  V30 23 C -1.74681 -2.69713 1.1668 0
M  V30 24 H 5.09093 2.23461 1.27721 0
M  V30 25 H 6.50645 1.15095 1.65666 0
M  V30 26 H 6.74808 2.85034 1.19309 0
M  V30 27 H 6.84834 2.36177 -0.999699 0
M  V30 28 H 6.78576 0.587455 -0.540941 0
M  V30 29 H 2.8699 1.50166 -2.60161 0
M  V30 30 H 0.906738 0.0925234 -2.28248 0
M  V30 31 H 2.86215 -1.72753 1.09938 0
M  V30 32 H 4.80955 -0.314073 0.739611 0
M  V30 33 H 0.818905 -2.58541 0.398562 0
M  V30 34 H -1.31347 -3.68464 -0.679455 0
M  V30 35 H -6.78771 -0.685991 2.44057 0
M  V30 36 H -6.22905 0.903582 3.00137 0
M  V30 37 H -5.5674 2.3724 0.86949 0
M  V30 38 H -4.80158 3.19674 -1.83768 0
M  V30 39 H -3.12521 3.12071 -1.22707 0
M  V30 40 H -0.981777 -3.42762 1.53304 0
M  V30 41 H -2.72333 -3.09672 1.5304 0
M  V30 42 H -1.57802 -1.68728 1.55649 0
M  V30 END ATOM
M  V30 BEGIN BOND
M  V30 1 1 1 2
M  V30 2 1 2 3
M  V30 3 1 3 4
M  V30 4 2 4 5
M  V30 5 1 5 6
M  V30 6 2 6 7
M  V30 7 1 7 8
M  V30 8 2 8 9
M  V30 9 1 7 10
M  V30 10 1 10 11
M  V30 11 2 11 12
M  V30 12 1 11 13
M  V30 13 1 13 14
M  V30 14 1 14 15
M  V30 15 2 15 16
M  V30 16 1 16 17
M  V30 17 1 17 18
M  V30 18 2 17 19
M  V30 19 1 19 20
M  V30 20 2 20 21
M  V30 21 1 20 22
M  V30 22 1 13 23
M  V30 23 1 9 4
M  V30 24 1 21 15
M  V30 25 1 1 24
M  V30 26 1 1 25
M  V30 27 1 1 26
M  V30 28 1 2 27
M  V30 29 1 2 28
M  V30 30 1 5 29
M  V30 31 1 6 30
M  V30 32 1 8 31
M  V30 33 1 9 32
M  V30 34 1 10 33
M  V30 35 1 13 34
M  V30 36 1 18 35
M  V30 37 1 18 36
M  V30 38 1 19 37
M  V30 39 1 22 38
M  V30 40 1 22 39
M  V30 41 1 23 40
M  V30 42 1 23 41
M  V30 43 1 23 42
M  V30 END BOND
M  V30 END CTAB
M  END
