
     RDKit          3D

  0  0  0  0  0  0  0  0  0  0999 V3000
M  V30 BEGIN CTAB
M  V30 COUNTS 20 22 0 0 0
M  V30 BEGIN ATOM
M  V30 1 N -4.84831 0.436588 -0.0700218 0
M  V30 2 C -3.48394 0.0349951 -0.119223 0
M  V30 3 N -2.43165 0.773948 0.0953804 0
M  V30 4 C -1.22119 0.244082 0.00994004 0
M  V30 5 C -0.0375975 0.957107 0.222881 0
M  V30 6 C 1.20698 0.321501 0.113175 0
M  V30 7 C 1.24122 -1.02071 -0.208859 0
M  V30 8 S 2.91055 -1.35488 -0.231168 0
M  V30 9 C 3.47237 0.209683 0.165183 0
M  V30 10 N 4.82468 0.686216 0.327051 0
M  V30 11 N 2.36883 0.899577 0.292869 0
M  V30 12 C 0.0582033 -1.71753 -0.417877 0
M  V30 13 C -1.1645 -1.08728 -0.3087 0
M  V30 14 S -2.80641 -1.49467 -0.463997 0
M  V30 15 H -5.25113 0.893596 0.748415 0
M  V30 16 H -5.44369 0.252519 -0.902039 0
M  V30 17 H -0.0786124 2.02996 0.479819 0
M  V30 18 H 5.06616 1.17037 1.19113 0
M  V30 19 H 5.47904 0.513193 -0.439321 0
M  V30 20 H 0.138972 -2.74826 -0.663286 0
M  V30 END ATOM
M  V30 BEGIN BOND
M  V30 1 1 1 2
M  V30 2 2 2 3
M  V30 3 1 3 4
M  V30 4 2 4 5
M  V30 5 1 5 6
M  V30 6 2 6 7
M  V30 7 1 7 8
M  V30 8 1 8 9
M  V30 9 1 9 10
M  V30 10 2 9 11
M  V30 11 1 7 12
M  V30 12 2 12 13
M  V30 13 1 13 14
M  V30 14 1 14 2
M  V30 15 1 13 4
M  V30 16 1 11 6
M  V30 17 1 1 15
M  V30 18 1 1 16
M  V30 19 1 5 17
M  V30 20 1 10 18
M  V30 21 1 10 19
M  V30 22 1 12 20
M  V30 END BOND
M  V30 END CTAB
M  END
