
     RDKit          3D

  0  0  0  0  0  0  0  0  0  0999 V3000
M  V30 BEGIN CTAB
M  V30 COUNTS 29 30 0 0 0
M  V30 BEGIN ATOM
M  V30 1 N 3.55077 -2.32861 0.597293 0
M  V30 2 C 3.01454 -1.05563 0.299715 0
M  V30 3 C 1.62923 -0.88351 0.20558 0
M  V30 4 C 1.10969 0.359722 -0.0849026 0
M  V30 5 N -0.303706 0.495088 -0.17223 0
M  V30 6 C -1.18102 -0.630295 0.0354178 0
M  V30 7 C -2.60011 -0.14197 -0.128565 0
M  V30 8 C -2.90901 0.443014 -1.48668 0
M  V30 9 C -3.71277 -0.673568 0.654562 0
M  V30 10 C -3.10718 0.629181 1.07924 0
M  V30 11 N 1.91891 1.41558 -0.280266 0
M  V30 12 C 3.25926 1.24974 -0.189331 0
M  V30 13 N 3.76281 0.0353223 0.0942523 0
M  V30 14 N 4.16261 2.33755 -0.387738 0
M  V30 15 H 3.79565 -2.55001 1.57464 0
M  V30 16 H 3.68748 -3.01149 -0.164372 0
M  V30 17 H 0.997342 -1.75029 0.367301 0
M  V30 18 H -0.699888 1.43067 -0.391058 0
M  V30 19 H -1.03107 -0.974514 1.07989 0
M  V30 20 H -0.950853 -1.48579 -0.63236 0
M  V30 21 H -3.30174 -0.368943 -2.14249 0
M  V30 22 H -1.98358 0.8171 -2.00372 0
M  V30 23 H -3.6802 1.21316 -1.39092 0
M  V30 24 H -4.72632 -0.615454 0.197846 0
M  V30 25 H -3.54494 -1.5892 1.23031 0
M  V30 26 H -3.61819 1.58239 0.924637 0
M  V30 27 H -2.53762 0.574567 2.02698 0
M  V30 28 H 4.01701 3.01382 -1.15482 0
M  V30 29 H 4.98287 2.46237 0.241786 0
M  V30 END ATOM
M  V30 BEGIN BOND
M  V30 1 1 1 2
M  V30 2 2 2 3
M  V30 3 1 3 4
M  V30 4 1 4 5
M  V30 5 1 5 6
M  V30 6 1 6 7
M  V30 7 1 7 8
M  V30 8 1 7 9
M  V30 9 1 9 10
M  V30 10 2 4 11
M  V30 11 1 11 12
M  V30 12 2 12 13
M  V30 13 1 12 14
M  V30 14 1 13 2
M  V30 15 1 10 7
M  V30 16 1 1 15
M  V30 17 1 1 16
M  V30 18 1 3 17
M  V30 19 1 5 18
M  V30 20 1 6 19
M  V30 21 1 6 20
M  V30 22 1 8 21
M  V30 23 1 8 22
M  V30 24 1 8 23
M  V30 25 1 9 24
M  V30 26 1 9 25
M  V30 27 1 10 26
M  V30 28 1 10 27
M  V30 29 1 14 28
M  V30 30 1 14 29
M  V30 END BOND
M  V30 END CTAB
M  END
