
     RDKit          3D

  0  0  0  0  0  0  0  0  0  0999 V3000
M  V30 BEGIN CTAB
M  V30 COUNTS 39 41 0 0 0
M  V30 BEGIN ATOM
M  V30 1 O -0.420189 -2.64991 -0.149312 0
M  V30 2 C -0.872451 -1.52951 0.270006 0
M  V30 3 N -2.03071 -1.01192 -0.311293 0
M  V30 4 C -2.82403 -1.58922 -1.38308 0
M  V30 5 C -4.23072 -1.29999 -0.864037 0
M  V30 6 C -4.04295 0.0764456 -0.297802 0
M  V30 7 C -2.69615 0.193448 0.018703 0
M  V30 8 C -2.28876 1.40629 0.567235 0
M  V30 9 C -3.14222 2.46027 0.800353 0
M  V30 10 C -4.4682 2.29187 0.468293 0
M  V30 11 C -4.93308 1.10048 -0.083489 0
M  V30 12 C -0.140704 -0.854174 1.34005 0
M  V30 13 C 0.8899 -1.80704 1.95377 0
M  V30 14 S 2.0453 -2.33992 0.706139 0
M  V30 15 C 3.10405 -1.04014 0.115369 0
M  V30 16 N 3.01555 0.188096 0.591051 0
M  V30 17 C 3.7864 1.21324 0.18769 0
M  V30 18 N 3.57512 2.47122 0.788191 0
M  V30 19 C 4.72499 0.949887 -0.785713 0
M  V30 20 C 4.85321 -0.319067 -1.31209 0
M  V30 21 N 4.02883 -1.27603 -0.836153 0
M  V30 22 N 5.82371 -0.58151 -2.31562 0
M  V30 23 H -2.74082 -2.68217 -1.44552 0
M  V30 24 H -2.66893 -1.07266 -2.34493 0
M  V30 25 H -4.9256 -1.31267 -1.70689 0
M  V30 26 H -4.49421 -2.0221 -0.0577585 0
M  V30 27 H -1.23961 1.52185 0.8216 0
M  V30 28 H -2.84283 3.4037 1.2234 0
M  V30 29 H -5.18178 3.099 0.634706 0
M  V30 30 H -5.99098 1.0363 -0.320474 0
M  V30 31 H 0.498337 -0.00770445 0.945894 0
M  V30 32 H -0.770846 -0.419232 2.14193 0
M  V30 33 H 0.420961 -2.66146 2.44829 0
M  V30 34 H 1.45336 -1.18479 2.70363 0
M  V30 35 H 2.88742 3.12173 0.377906 0
M  V30 36 H 4.11039 2.72815 1.63151 0
M  V30 37 H 5.34954 1.76317 -1.11841 0
M  V30 38 H 6.84048 -0.669658 -2.09455 0
M  V30 39 H 5.53821 -0.694299 -3.30859 0
M  V30 END ATOM
M  V30 BEGIN BOND
M  V30 1 2 1 2
M  V30 2 1 2 3
M  V30 3 1 3 4
M  V30 4 1 4 5
M  V30 5 1 5 6
M  V30 6 2 6 7
M  V30 7 1 7 8
M  V30 8 2 8 9
M  V30 9 1 9 10
M  V30 10 2 10 11
M  V30 11 1 2 12
M  V30 12 1 12 13
M  V30 13 1 13 14
M  V30 14 1 14 15
M  V30 15 2 15 16
M  V30 16 1 16 17
M  V30 17 1 17 18
M  V30 18 2 17 19
M  V30 19 1 19 20
M  V30 20 2 20 21
M  V30 21 1 20 22
M  V30 22 1 7 3
M  V30 23 1 21 15
M  V30 24 1 11 6
M  V30 25 1 4 23
M  V30 26 1 4 24
M  V30 27 1 5 25
M  V30 28 1 5 26
M  V30 29 1 8 27
M  V30 30 1 9 28
M  V30 31 1 10 29
M  V30 32 1 11 30
M  V30 33 1 12 31
M  V30 34 1 12 32
M  V30 35 1 13 33
M  V30 36 1 13 34
M  V30 37 1 18 35
M  V30 38 1 18 36
M  V30 39 1 19 37
M  V30 40 1 22 38
M  V30 41 1 22 39
M  V30 END BOND
M  V30 END CTAB
M  END
