
     RDKit          3D

  0  0  0  0  0  0  0  0  0  0999 V3000
M  V30 BEGIN CTAB
M  V30 COUNTS 46 49 0 0 0
M  V30 BEGIN ATOM
M  V30 1 C -3.01993 2.16677 2.87347 0
M  V30 2 C -2.0387 2.68475 1.86811 0
M  V30 3 O -1.35373 1.72621 1.13395 0
M  V30 4 C -1.97276 0.82784 0.288585 0
M  V30 5 C -3.33272 0.817195 0.0901921 0
M  V30 6 C -3.86906 -0.118942 -0.777254 0
M  V30 7 C -3.08545 -1.02863 -1.4391 0
M  V30 8 C -3.63858 -1.96085 -2.30575 0
M  V30 9 C -2.85613 -2.8766 -2.97312 0
M  V30 10 C -1.49696 -2.83105 -2.74591 0
M  V30 11 C -0.926363 -1.91333 -1.88912 0
M  V30 12 C -1.72121 -0.986404 -1.214 0
M  V30 13 C -1.13458 -0.0901552 -0.373069 0
M  V30 14 C 0.311438 -0.0465001 -0.135583 0
M  V30 15 C 0.787095 -0.827028 0.906899 0
M  V30 16 C -0.147026 -1.65393 1.7227 0
M  V30 17 C 2.14116 -0.817067 1.16661 0
M  V30 18 C 2.99059 -0.0294461 0.3815 0
M  V30 19 C 4.35024 -0.00700687 0.627156 0
M  V30 20 N 4.86496 -0.792768 1.68385 0
M  V30 21 N 5.18695 0.740629 -0.112035 0
M  V30 22 C 4.70251 1.49324 -1.12241 0
M  V30 23 N 5.54717 2.30091 -1.93285 0
M  V30 24 N 3.37276 1.47517 -1.36736 0
M  V30 25 C 2.50925 0.742906 -0.652202 0
M  V30 26 C 1.14909 0.729541 -0.909005 0
M  V30 27 H -4.04003 2.58935 2.76931 0
M  V30 28 H -3.10735 1.05038 2.7678 0
M  V30 29 H -2.70221 2.40124 3.91978 0
M  V30 30 H -2.62616 3.37602 1.20105 0
M  V30 31 H -1.27222 3.34644 2.37262 0
M  V30 32 H -3.9981 1.52883 0.586795 0
M  V30 33 H -4.9512 -0.121196 -0.929364 0
M  V30 34 H -4.70465 -1.96468 -2.45694 0
M  V30 35 H -3.28829 -3.60684 -3.65184 0
M  V30 36 H -0.858542 -3.55648 -3.272 0
M  V30 37 H 0.148818 -1.89071 -1.72073 0
M  V30 38 H 0.344926 -1.89173 2.68908 0
M  V30 39 H -0.294602 -2.64948 1.21226 0
M  V30 40 H -1.14149 -1.21311 1.82296 0
M  V30 41 H 2.54404 -1.41979 1.97879 0
M  V30 42 H 5.77273 -1.32495 1.53186 0
M  V30 43 H 4.41647 -0.890073 2.60956 0
M  V30 44 H 5.39439 2.30809 -2.97402 0
M  V30 45 H 6.30056 2.87691 -1.53661 0
M  V30 46 H 0.742929 1.32633 -1.71461 0
M  V30 END ATOM
M  V30 BEGIN BOND
M  V30 1 1 1 2
M  V30 2 1 2 3
M  V30 3 1 3 4
M  V30 4 2 4 5
M  V30 5 1 5 6
M  V30 6 2 6 7
M  V30 7 1 7 8
M  V30 8 2 8 9
M  V30 9 1 9 10
M  V30 10 2 10 11
M  V30 11 1 11 12
M  V30 12 2 12 13
M  V30 13 1 13 14
M  V30 14 2 14 15
M  V30 15 1 15 16
M  V30 16 1 15 17
M  V30 17 2 17 18
M  V30 18 1 18 19
M  V30 19 1 19 20
M  V30 20 2 19 21
M  V30 21 1 21 22
M  V30 22 1 22 23
M  V30 23 2 22 24
M  V30 24 1 24 25
M  V30 25 2 25 26
M  V30 26 1 13 4
M  V30 27 1 26 14
M  V30 28 1 12 7
M  V30 29 1 25 18
M  V30 30 1 1 27
M  V30 31 1 1 28
M  V30 32 1 1 29
M  V30 33 1 2 30
M  V30 34 1 2 31
M  V30 35 1 5 32
M  V30 36 1 6 33
M  V30 37 1 8 34
M  V30 38 1 9 35
M  V30 39 1 10 36
M  V30 40 1 11 37
M  V30 41 1 16 38
M  V30 42 1 16 39
M  V30 43 1 16 40
M  V30 44 1 17 41
M  V30 45 1 20 42
M  V30 46 1 20 43
M  V30 47 1 23 44
M  V30 48 1 23 45
M  V30 49 1 26 46
M  V30 END BOND
M  V30 END CTAB
M  END
