
     RDKit          3D

  0  0  0  0  0  0  0  0  0  0999 V3000
M  V30 BEGIN CTAB
M  V30 COUNTS 42 44 0 0 0
M  V30 BEGIN ATOM
M  V30 1 N -7.02302 0.352697 -0.168308 0
M  V30 2 C -5.57198 0.259305 -0.138367 0
M  V30 3 C -5.01675 -1.03143 -0.672727 0
M  V30 4 C -4.11602 -1.10106 0.530919 0
M  V30 5 C -5.02797 -0.116631 1.21332 0
M  V30 6 C -2.75683 -0.499064 0.351027 0
M  V30 7 C -1.62424 -1.17475 0.769647 0
M  V30 8 C -0.346328 -0.634487 0.61271 0
M  V30 9 N 0.79791 -1.34994 1.0575 0
M  V30 10 C 2.12896 -0.857595 0.917208 0
M  V30 11 C 2.5769 -0.661604 -0.494236 0
M  V30 12 C 3.99478 -0.142918 -0.450826 0
M  V30 13 C 4.40476 1.16158 -0.403973 0
M  V30 14 C 5.71854 1.39849 -0.371025 0
M  V30 15 C 6.55312 0.310968 -0.386888 0
M  V30 16 S 5.46976 -1.00205 -0.447271 0
M  V30 17 C 8.05425 0.265676 -0.358643 0
M  V30 18 N -0.254401 0.580816 0.0331198 0
M  V30 19 C -1.3447 1.24072 -0.374429 0
M  V30 20 N -2.55937 0.700923 -0.21257 0
M  V30 21 N -1.20083 2.50596 -0.97391 0
M  V30 22 H -7.2576 1.36964 -0.108088 0
M  V30 23 H -7.34771 -0.0411001 -1.09082 0
M  V30 24 H -5.05963 1.14168 -0.579211 0
M  V30 25 H -4.50315 -0.971895 -1.65075 0
M  V30 26 H -5.75526 -1.87909 -0.618021 0
M  V30 27 H -4.07612 -2.10605 1.01726 0
M  V30 28 H -4.51796 0.705858 1.7536 0
M  V30 29 H -5.83023 -0.605135 1.80949 0
M  V30 30 H -1.69599 -2.13844 1.22933 0
M  V30 31 H 0.63321 -2.28758 1.51014 0
M  V30 32 H 2.28296 0.104213 1.44968 0
M  V30 33 H 2.84919 -1.56636 1.40005 0
M  V30 34 H 2.67278 -1.68726 -0.955259 0
M  V30 35 H 1.94505 -0.0438748 -1.12419 0
M  V30 36 H 3.64577 1.97299 -0.394816 0
M  V30 37 H 6.17322 2.4133 -0.331914 0
M  V30 38 H 8.43872 1.11624 0.235564 0
M  V30 39 H 8.38761 -0.663867 0.187084 0
M  V30 40 H 8.46026 0.198335 -1.3718 0
M  V30 41 H -1.66891 2.70458 -1.87705 0
M  V30 42 H -0.632745 3.23989 -0.522557 0
M  V30 END ATOM
M  V30 BEGIN BOND
M  V30 1 1 1 2
M  V30 2 1 2 3
M  V30 3 1 3 4
M  V30 4 1 4 5
M  V30 5 1 4 6
M  V30 6 2 6 7
M  V30 7 1 7 8
M  V30 8 1 8 9
M  V30 9 1 9 10
M  V30 10 1 10 11
M  V30 11 1 11 12
M  V30 12 2 12 13
M  V30 13 1 13 14
M  V30 14 2 14 15
M  V30 15 1 15 16
M  V30 16 1 15 17
M  V30 17 2 8 18
M  V30 18 1 18 19
M  V30 19 2 19 20
M  V30 20 1 19 21
M  V30 21 1 5 2
M  V30 22 1 20 6
M  V30 23 1 16 12
M  V30 24 1 1 22
M  V30 25 1 1 23
M  V30 26 1 2 24
M  V30 27 1 3 25
M  V30 28 1 3 26
M  V30 29 1 4 27
M  V30 30 1 5 28
M  V30 31 1 5 29
M  V30 32 1 7 30
M  V30 33 1 9 31
M  V30 34 1 10 32
M  V30 35 1 10 33
M  V30 36 1 11 34
M  V30 37 1 11 35
M  V30 38 1 13 36
M  V30 39 1 14 37
M  V30 40 1 17 38
M  V30 41 1 17 39
M  V30 42 1 17 40
M  V30 43 1 21 41
M  V30 44 1 21 42
M  V30 END BOND
M  V30 END CTAB
M  END
