
     RDKit          3D

  0  0  0  0  0  0  0  0  0  0999 V3000
M  V30 BEGIN CTAB
M  V30 COUNTS 17 17 0 0 0
M  V30 BEGIN ATOM
M  V30 1 N 3.26001 0.70509 -0.243435 0
M  V30 2 N 2.84191 -0.212246 0.666895 0
M  V30 3 C 1.72325 -0.686368 0.989882 0
M  V30 4 C 0.413981 -0.375093 0.443821 0
M  V30 5 C 0.154966 0.520422 -0.553925 0
M  V30 6 N -1.13038 0.728104 -0.985548 0
M  V30 7 C -2.18567 0.0837453 -0.470544 0
M  V30 8 N -1.94941 -0.799909 0.510828 0
M  V30 9 C -0.707178 -1.0349 0.964539 0
M  V30 10 N -3.5218 0.32168 -0.942724 0
M  V30 11 H 3.10043 1.73756 -0.135566 0
M  V30 12 H 3.76826 0.402598 -1.10437 0
M  V30 13 H 1.792 -1.44662 1.81217 0
M  V30 14 H 0.964314 1.06236 -0.999867 0
M  V30 15 H -0.519277 -1.75875 1.7675 0
M  V30 16 H -3.96582 1.25934 -0.919731 0
M  V30 17 H -4.03959 -0.507022 -1.31867 0
M  V30 END ATOM
M  V30 BEGIN BOND
M  V30 1 1 1 2
M  V30 2 2 2 3 CFG=2
M  V30 3 1 3 4
M  V30 4 2 4 5
M  V30 5 1 5 6
M  V30 6 2 6 7
M  V30 7 1 7 8
M  V30 8 2 8 9
M  V30 9 1 7 10
M  V30 10 1 9 4
M  V30 11 1 1 11
M  V30 12 1 1 12
M  V30 13 1 3 13
M  V30 14 1 5 14
M  V30 15 1 9 15
M  V30 16 1 10 16
M  V30 17 1 10 17
M  V30 END BOND
M  V30 END CTAB
M  END
