
     RDKit          3D

  0  0  0  0  0  0  0  0  0  0999 V3000
M  V30 BEGIN CTAB
M  V30 COUNTS 34 35 0 0 0
M  V30 BEGIN ATOM
M  V30 1 N -3.94791 0.564856 0.748528 0
M  V30 2 C -2.99657 1.21749 -0.0727052 0
M  V30 3 C -1.89136 0.393069 -0.664669 0
M  V30 4 N -1.01813 -0.253307 0.220605 0
M  V30 5 C -1.62921 -1.40629 0.821761 0
M  V30 6 C -1.09518 -2.59787 0.00189103 0
M  V30 7 O -0.766159 -2.27811 -1.28358 0
M  V30 8 C 0.290533 -1.39874 -1.44479 0
M  V30 9 C 0.301291 -0.563599 -0.15957 0 CFG=1
M  V30 10 C 1.36069 0.406778 -0.058775 0
M  V30 11 C 1.2108 1.73334 -0.31434 0
M  V30 12 C 2.26424 2.64942 -0.221369 0
M  V30 13 N 3.4728 2.24631 0.127243 0
M  V30 14 C 3.69519 0.934541 0.397229 0
M  V30 15 C 2.66718 0.0317728 0.308304 0
M  V30 16 N 5.02485 0.59335 0.763102 0
M  V30 17 H -4.54877 -0.0518783 0.146558 0
M  V30 18 H -4.60298 1.3028 1.10863 0
M  V30 19 H -2.47782 2.05067 0.499914 0
M  V30 20 H -3.47728 1.77571 -0.929775 0
M  V30 21 H -2.50311 -0.393852 -1.27788 0
M  V30 22 H -1.40875 0.928762 -1.5374 0
M  V30 23 H -2.72277 -1.46078 0.792679 0
M  V30 24 H -1.26086 -1.56505 1.8669 0
M  V30 25 H -1.93717 -3.35387 -0.0797342 0
M  V30 26 H -0.319304 -3.13653 0.573376 0
M  V30 27 H 0.252823 -0.790843 -2.34218 0
M  V30 28 H 1.26185 -1.96315 -1.47789 0
M  V30 29 H 0.627697 -1.38257 0.602519 0
M  V30 30 H 0.276784 2.13627 -0.590923 0
M  V30 31 H 2.06308 3.68835 -0.441328 0
M  V30 32 H 2.86147 -1.00298 0.525848 0
M  V30 33 H 5.58925 1.26882 1.32543 0
M  V30 34 H 5.38279 -0.322908 0.453534 0
M  V30 END ATOM
M  V30 BEGIN BOND
M  V30 1 1 1 2
M  V30 2 1 2 3
M  V30 3 1 3 4
M  V30 4 1 4 5
M  V30 5 1 5 6
M  V30 6 1 6 7
M  V30 7 1 7 8
M  V30 8 1 8 9
M  V30 9 1 9 10
M  V30 10 2 10 11
M  V30 11 1 11 12
M  V30 12 2 12 13
M  V30 13 1 13 14
M  V30 14 2 14 15
M  V30 15 1 14 16
M  V30 16 1 9 4
M  V30 17 1 15 10
M  V30 18 1 1 17
M  V30 19 1 1 18
M  V30 20 1 2 19
M  V30 21 1 2 20
M  V30 22 1 3 21
M  V30 23 1 3 22
M  V30 24 1 5 23
M  V30 25 1 5 24
M  V30 26 1 6 25
M  V30 27 1 6 26
M  V30 28 1 8 27
M  V30 29 1 8 28
M  V30 30 1 9 29 CFG=1
M  V30 31 1 11 30
M  V30 32 1 12 31
M  V30 33 1 15 32
M  V30 34 1 16 33
M  V30 35 1 16 34
M  V30 END BOND
M  V30 END CTAB
M  END
