
     RDKit          3D

  0  0  0  0  0  0  0  0  0  0999 V3000
M  V30 BEGIN CTAB
M  V30 COUNTS 56 59 0 0 0
M  V30 BEGIN ATOM
M  V30 1 C 3.84684 2.69931 -2.17194 0
M  V30 2 O 2.97679 1.60063 -1.98129 0
M  V30 3 C 1.76214 1.85781 -1.35895 0
M  V30 4 N 1.4231 3.07429 -0.958422 0
M  V30 5 C 0.270389 3.34138 -0.365448 0
M  V30 6 N -0.0503277 4.66986 0.0499179 0
M  V30 7 C -0.608724 2.30314 -0.16093 0
M  V30 8 C -0.284842 0.995406 -0.572473 0
M  V30 9 C 0.905024 0.720564 -1.18251 0
M  V30 10 C 1.42269 -0.524779 -1.69245 0
M  V30 11 C 2.57916 -0.888438 -0.800853 0
M  V30 12 C 2.45487 -0.964847 0.561961 0
M  V30 13 C 3.49695 -1.32785 1.38381 0
M  V30 14 C 4.72057 -1.63205 0.861202 0
M  V30 15 C 4.89889 -1.5722 -0.485326 0
M  V30 16 C 3.84693 -1.20866 -1.28152 0
M  V30 17 C 5.88274 -2.03333 1.72517 0
M  V30 18 C -1.21018 0.0198915 -0.360118 0
M  V30 19 C -1.01956 -1.35598 -0.70563 0
M  V30 20 N -0.915588 -2.51247 -0.946388 0
M  V30 21 C -2.43485 0.355141 0.254518 0
M  V30 22 N -2.71071 1.59773 0.633825 0
M  V30 23 C -1.81716 2.5643 0.433184 0
M  V30 24 N -2.14069 3.92159 0.857028 0
M  V30 25 N -3.37549 -0.699583 0.418212 0
M  V30 26 C -4.07914 -1.22389 -0.687032 0
M  V30 27 C -4.63325 -2.61119 -0.419565 0
M  V30 28 C -5.49353 -2.47438 0.837628 0
M  V30 29 C -4.48616 -2.30215 1.95958 0
M  V30 30 C -3.54955 -1.17215 1.76221 0
M  V30 31 H 3.87479 3.32456 -1.24701 0
M  V30 32 H 3.38465 3.33647 -2.97412 0
M  V30 33 H 4.86392 2.38684 -2.48886 0
M  V30 34 H 0.243665 4.90903 1.0421 0
M  V30 35 H -0.523985 5.32245 -0.587326 0
M  V30 36 H 0.985899 -1.43284 -1.85047 0
M  V30 37 H 2.04291 -0.259736 -2.66872 0
M  V30 38 H 1.50101 -0.727662 1.01608 0
M  V30 39 H 3.33828 -1.36985 2.44121 0
M  V30 40 H 5.85588 -1.80454 -0.956065 0
M  V30 41 H 3.9464 -1.1527 -2.35244 0
M  V30 42 H 5.87392 -1.3296 2.5865 0
M  V30 43 H 6.81885 -1.96253 1.13739 0
M  V30 44 H 5.68373 -3.07248 2.03544 0
M  V30 45 H -2.62615 4.53338 0.174339 0
M  V30 46 H -1.91792 4.28923 1.79016 0
M  V30 47 H -4.95086 -0.525312 -0.908738 0
M  V30 48 H -3.54118 -1.25828 -1.65438 0
M  V30 49 H -3.78633 -3.26391 -0.143821 0
M  V30 50 H -5.22249 -2.99078 -1.27096 0
M  V30 51 H -6.06667 -1.54741 0.729939 0
M  V30 52 H -6.08086 -3.3671 1.04105 0
M  V30 53 H -5.07103 -2.13701 2.88698 0
M  V30 54 H -3.93994 -3.27658 2.02054 0
M  V30 55 H -3.82123 -0.326763 2.44109 0
M  V30 56 H -2.54265 -1.51399 2.15271 0
M  V30 END ATOM
M  V30 BEGIN BOND
M  V30 1 1 1 2
M  V30 2 1 2 3
M  V30 3 2 3 4
M  V30 4 1 4 5
M  V30 5 1 5 6
M  V30 6 2 5 7
M  V30 7 1 7 8
M  V30 8 2 8 9
M  V30 9 1 9 10
M  V30 10 1 10 11
M  V30 11 2 11 12
M  V30 12 1 12 13
M  V30 13 2 13 14
M  V30 14 1 14 15
M  V30 15 2 15 16
M  V30 16 1 14 17
M  V30 17 1 8 18
M  V30 18 1 18 19
M  V30 19 3 19 20
M  V30 20 2 18 21
M  V30 21 1 21 22
M  V30 22 2 22 23
M  V30 23 1 23 24
M  V30 24 1 21 25
M  V30 25 1 25 26
M  V30 26 1 26 27
M  V30 27 1 27 28
M  V30 28 1 28 29
M  V30 29 1 29 30
M  V30 30 1 9 3
M  V30 31 1 16 11
M  V30 32 1 30 25
M  V30 33 1 23 7
M  V30 34 1 1 31
M  V30 35 1 1 32
M  V30 36 1 1 33
M  V30 37 1 6 34
M  V30 38 1 6 35
M  V30 39 1 10 36
M  V30 40 1 10 37
M  V30 41 1 12 38
M  V30 42 1 13 39
M  V30 43 1 15 40
M  V30 44 1 16 41
M  V30 45 1 17 42
M  V30 46 1 17 43
M  V30 47 1 17 44
M  V30 48 1 24 45
M  V30 49 1 24 46
M  V30 50 1 26 47
M  V30 51 1 26 48
M  V30 52 1 27 49
M  V30 53 1 27 50
M  V30 54 1 28 51
M  V30 55 1 28 52
M  V30 56 1 29 53
M  V30 57 1 29 54
M  V30 58 1 30 55
M  V30 59 1 30 56
M  V30 END BOND
M  V30 END CTAB
M  END
