
     RDKit          3D

  0  0  0  0  0  0  0  0  0  0999 V3000
M  V30 BEGIN CTAB
M  V30 COUNTS 42 43 0 0 0
M  V30 BEGIN ATOM
M  V30 1 N 1.10874 -4.95564 0.524507 0
M  V30 2 C 0.976263 -3.79775 0.692183 0
M  V30 3 C 0.871877 -2.36454 0.933006 0
M  V30 4 C 1.96422 -1.81919 1.52467 0
M  V30 5 N 2.04822 -0.472288 1.82951 0
M  V30 6 C 2.92319 0.334692 1.00472 0
M  V30 7 C 3.71744 -0.241498 0.022997 0
M  V30 8 C 4.56141 0.485163 -0.776173 0
M  V30 9 C 4.61093 1.86129 -0.580959 0
M  V30 10 C 3.83563 2.46865 0.383773 0
M  V30 11 C 2.99529 1.69767 1.17201 0
M  V30 12 Cl 3.9421 4.20214 0.570617 0
M  V30 13 N 5.48682 2.61166 -1.39684 0
M  V30 14 C -0.220272 -1.52275 0.64382 0
M  V30 15 O -0.0655388 -0.240408 1.00238 0
M  V30 16 N -1.48035 -1.69306 0.0548087 0
M  V30 17 C -2.33042 -0.47068 0.0223508 0
M  V30 18 C -2.47014 0.15311 -1.1755 0
M  V30 19 C -3.25544 1.3156 -1.26863 0
M  V30 20 C -3.85716 1.7864 -0.151037 0
M  V30 21 C -3.7327 1.17762 1.06803 0
M  V30 22 C -2.94221 0.0180215 1.12969 0
M  V30 23 N -4.65454 2.9624 -0.260906 0
M  V30 24 C -2.12457 -2.77396 -0.519774 0
M  V30 25 O -1.65504 -3.89989 -0.66258 0
M  V30 26 C -3.53307 -2.61643 -1.03096 0
M  V30 27 H 2.79715 -2.48534 1.76277 0
M  V30 28 H 1.56731 0.0287205 2.61213 0
M  V30 29 H 3.64594 -1.33288 -0.0975853 0
M  V30 30 H 5.18191 0.0495615 -1.54074 0
M  V30 31 H 2.3932 2.20792 1.92545 0
M  V30 32 H 5.17411 2.90809 -2.33543 0
M  V30 33 H 6.43655 2.87265 -1.07695 0
M  V30 34 H -1.97804 -0.247487 -2.04785 0
M  V30 35 H -3.34819 1.79897 -2.25705 0
M  V30 36 H -4.18687 1.51835 1.95716 0
M  V30 37 H -2.79928 -0.517608 2.06857 0
M  V30 38 H -5.21717 3.20224 -1.08266 0
M  V30 39 H -4.65682 3.60865 0.553403 0
M  V30 40 H -4.01101 -3.62417 -1.19291 0
M  V30 41 H -3.551 -2.10202 -1.99924 0
M  V30 42 H -4.16844 -2.09201 -0.292702 0
M  V30 END ATOM
M  V30 BEGIN BOND
M  V30 1 3 1 2
M  V30 2 1 2 3
M  V30 3 2 3 4
M  V30 4 1 4 5
M  V30 5 1 5 6
M  V30 6 2 6 7
M  V30 7 1 7 8
M  V30 8 2 8 9
M  V30 9 1 9 10
M  V30 10 2 10 11
M  V30 11 1 10 12
M  V30 12 1 9 13
M  V30 13 1 3 14
M  V30 14 2 14 15
M  V30 15 1 14 16
M  V30 16 1 16 17
M  V30 17 2 17 18
M  V30 18 1 18 19
M  V30 19 2 19 20
M  V30 20 1 20 21
M  V30 21 2 21 22
M  V30 22 1 20 23
M  V30 23 1 16 24
M  V30 24 2 24 25
M  V30 25 1 24 26
M  V30 26 1 11 6
M  V30 27 1 22 17
M  V30 28 1 4 27
M  V30 29 1 5 28
M  V30 30 1 7 29
M  V30 31 1 8 30
M  V30 32 1 11 31
M  V30 33 1 13 32
M  V30 34 1 13 33
M  V30 35 1 18 34
M  V30 36 1 19 35
M  V30 37 1 21 36
M  V30 38 1 22 37
M  V30 39 1 23 38
M  V30 40 1 23 39
M  V30 41 1 26 40
M  V30 42 1 26 41
M  V30 43 1 26 42
M  V30 END BOND
M  V30 END CTAB
M  END
