
     RDKit          3D

  0  0  0  0  0  0  0  0  0  0999 V3000
M  V30 BEGIN CTAB
M  V30 COUNTS 29 29 0 0 0
M  V30 BEGIN ATOM
M  V30 1 N 4.28036 0.684979 -0.640512 0
M  V30 2 C 3.17505 -0.226956 -0.568389 0
M  V30 3 C 1.91626 0.584016 -0.343809 0
M  V30 4 C 0.715292 -0.301314 -0.257457 0 CFG=1
M  V30 5 N 0.75704 -1.25939 0.798792 0
M  V30 6 C -0.452242 -2.06012 0.735053 0
M  V30 7 C -1.70224 -1.18156 0.820722 0
M  V30 8 N -1.64788 -0.307362 -0.346416 0
M  V30 9 C -0.513932 0.575959 -0.139719 0
M  V30 10 S -3.11152 0.559879 -0.566556 0
M  V30 11 O -2.9262 1.47194 -1.7452 0
M  V30 12 O -4.23672 -0.380209 -0.78085 0
M  V30 13 N -3.37527 1.56801 0.828893 0
M  V30 14 H 4.71389 0.849282 0.253839 0
M  V30 15 H 4.10774 1.5095 -1.17944 0
M  V30 16 H 3.07644 -0.691459 -1.57593 0
M  V30 17 H 3.32228 -1.00568 0.195154 0
M  V30 18 H 1.7889 1.22512 -1.24094 0
M  V30 19 H 2.01667 1.26923 0.522189 0
M  V30 20 H 0.627122 -0.850835 -1.21591 0
M  V30 21 H 0.895144 -0.88449 1.74353 0
M  V30 22 H -0.499347 -2.53888 -0.273139 0
M  V30 23 H -0.473565 -2.84049 1.52269 0
M  V30 24 H -2.57429 -1.839 0.795566 0
M  V30 25 H -1.65194 -0.544821 1.73111 0
M  V30 26 H -0.560251 1.00227 0.90093 0
M  V30 27 H -0.473096 1.40157 -0.865841 0
M  V30 28 H -2.79537 2.42546 0.785287 0
M  V30 29 H -4.39832 1.78537 0.903051 0
M  V30 END ATOM
M  V30 BEGIN BOND
M  V30 1 1 1 2
M  V30 2 1 2 3
M  V30 3 1 3 4
M  V30 4 1 4 5
M  V30 5 1 5 6
M  V30 6 1 6 7
M  V30 7 1 7 8
M  V30 8 1 8 9
M  V30 9 1 8 10
M  V30 10 2 10 11
M  V30 11 2 10 12
M  V30 12 1 10 13
M  V30 13 1 9 4
M  V30 14 1 1 14
M  V30 15 1 1 15
M  V30 16 1 2 16
M  V30 17 1 2 17
M  V30 18 1 3 18
M  V30 19 1 3 19
M  V30 20 1 4 20 CFG=3
M  V30 21 1 5 21
M  V30 22 1 6 22
M  V30 23 1 6 23
M  V30 24 1 7 24
M  V30 25 1 7 25
M  V30 26 1 9 26
M  V30 27 1 9 27
M  V30 28 1 13 28
M  V30 29 1 13 29
M  V30 END BOND
M  V30 END CTAB
M  END
