
     RDKit          3D

  0  0  0  0  0  0  0  0  0  0999 V3000
M  V30 BEGIN CTAB
M  V30 COUNTS 26 26 0 0 0
M  V30 BEGIN ATOM
M  V30 1 N -4.12079 0.638681 -2.98125 0
M  V30 2 C -3.33433 0.462395 -2.1481 0
M  V30 3 C -2.3437 0.265022 -1.11469 0
M  V30 4 C -1.00542 0.470831 -1.40871 0
M  V30 5 C -0.0480093 0.293587 -0.458262 0
M  V30 6 C 1.40301 0.494368 -0.697093 0
M  V30 7 N 2.18353 0.233178 0.495037 0
M  V30 8 C 3.42225 -0.107688 0.465226 0
M  V30 9 N 4.12846 -0.255717 -0.759749 0
M  V30 10 N 4.11467 -0.345116 1.67193 0
M  V30 11 C -0.444025 -0.0971914 0.808848 0
M  V30 12 C -1.7719 -0.307338 1.12183 0
M  V30 13 C -2.73413 -0.125139 0.15206 0
M  V30 14 C -4.18218 -0.334406 0.422148 0
M  V30 15 H -0.67226 0.778621 -2.39969 0
M  V30 16 H 1.78781 -0.149945 -1.50889 0
M  V30 17 H 1.55957 1.56106 -0.955903 0
M  V30 18 H 4.29068 0.553529 -1.42 0
M  V30 19 H 4.52509 -1.17861 -1.07047 0
M  V30 20 H 3.84749 -1.15256 2.26003 0
M  V30 21 H 4.88027 0.28523 1.9597 0
M  V30 22 H 0.297311 -0.250085 1.60079 0
M  V30 23 H -2.11226 -0.610835 2.09509 0
M  V30 24 H -4.57813 -1.25553 -0.0301569 0
M  V30 25 H -4.77844 0.573215 0.144582 0
M  V30 26 H -4.31456 -0.43956 1.53228 0
M  V30 END ATOM
M  V30 BEGIN BOND
M  V30 1 3 1 2
M  V30 2 1 2 3
M  V30 3 2 3 4
M  V30 4 1 4 5
M  V30 5 1 5 6
M  V30 6 1 6 7
M  V30 7 2 7 8 CFG=2
M  V30 8 1 8 9
M  V30 9 1 8 10
M  V30 10 2 5 11
M  V30 11 1 11 12
M  V30 12 2 12 13
M  V30 13 1 13 14
M  V30 14 1 13 3
M  V30 15 1 4 15
M  V30 16 1 6 16
M  V30 17 1 6 17
M  V30 18 1 9 18
M  V30 19 1 9 19
M  V30 20 1 10 20
M  V30 21 1 10 21
M  V30 22 1 11 22
M  V30 23 1 12 23
M  V30 24 1 14 24
M  V30 25 1 14 25
M  V30 26 1 14 26
M  V30 END BOND
M  V30 END CTAB
M  END
