
     RDKit          3D

  0  0  0  0  0  0  0  0  0  0999 V3000
M  V30 BEGIN CTAB
M  V30 COUNTS 28 29 0 0 0
M  V30 BEGIN ATOM
M  V30 1 N 1.45008 2.50384 -0.240448 0
M  V30 2 C 1.91948 1.20075 -0.0740779 0
M  V30 3 N 3.19065 0.864131 0.179051 0
M  V30 4 C 3.65872 -0.362259 0.372236 0
M  V30 5 C 2.7653 -1.41924 0.307772 0
M  V30 6 C 1.44247 -1.13625 0.0588793 0
M  V30 7 C 0.990315 0.177334 -0.144586 0
M  V30 8 C -0.390667 0.240707 -0.613059 0
M  V30 9 C -1.5245 -0.0513316 0.249566 0
M  V30 10 C -1.72216 0.930809 1.43252 0
M  V30 11 C -2.18699 -1.40199 0.492637 0
M  V30 12 C -2.80016 -0.486715 -0.446911 0
M  V30 13 N -0.43341 -0.617752 -1.81379 0
M  V30 14 H 1.29322 3.1214 0.586215 0
M  V30 15 H 1.23278 2.89443 -1.20242 0
M  V30 16 H 4.68734 -0.591967 0.567134 0
M  V30 17 H 3.12918 -2.44784 0.421016 0
M  V30 18 H 0.774775 -1.988 0.0406426 0
M  V30 19 H -0.494865 1.27719 -1.01821 0
M  V30 20 H -2.81042 1.02184 1.68939 0
M  V30 21 H -1.17995 0.663553 2.33045 0
M  V30 22 H -1.36798 1.95664 1.11915 0
M  V30 23 H -1.57839 -2.26455 0.132302 0
M  V30 24 H -2.521 -1.56696 1.56665 0
M  V30 25 H -3.76187 0.00716915 -0.147971 0
M  V30 26 H -2.8102 -0.808511 -1.51343 0
M  V30 27 H -0.923451 -1.45577 -1.70855 0
M  V30 28 H -0.0283054 -0.260667 -2.62215 0
M  V30 END ATOM
M  V30 BEGIN BOND
M  V30 1 1 1 2
M  V30 2 2 2 3
M  V30 3 1 3 4
M  V30 4 2 4 5
M  V30 5 1 5 6
M  V30 6 2 6 7
M  V30 7 1 7 8
M  V30 8 1 8 9
M  V30 9 1 9 10
M  V30 10 1 9 11
M  V30 11 1 11 12
M  V30 12 1 8 13
M  V30 13 1 7 2
M  V30 14 1 12 9
M  V30 15 1 1 14
M  V30 16 1 1 15
M  V30 17 1 4 16
M  V30 18 1 5 17
M  V30 19 1 6 18
M  V30 20 1 8 19
M  V30 21 1 10 20
M  V30 22 1 10 21
M  V30 23 1 10 22
M  V30 24 1 11 23
M  V30 25 1 11 24
M  V30 26 1 12 25
M  V30 27 1 12 26
M  V30 28 1 13 27
M  V30 29 1 13 28
M  V30 END BOND
M  V30 END CTAB
M  END
