
     RDKit          3D

  0  0  0  0  0  0  0  0  0  0999 V3000
M  V30 BEGIN CTAB
M  V30 COUNTS 49 52 0 0 0
M  V30 BEGIN ATOM
M  V30 1 N -5.71381 0.390337 2.79972 0
M  V30 2 C -5.89087 0.0654944 1.41619 0 CFG=2
M  V30 3 C -4.90763 -0.985634 0.895469 0
M  V30 4 C -4.87238 -0.177023 -0.392677 0 CFG=1
M  V30 5 C -5.21033 1.03587 0.441569 0
M  V30 6 C -3.54544 -0.129572 -1.04693 0
M  V30 7 C -2.38647 0.178018 -0.402164 0
M  V30 8 C -1.18141 0.204461 -1.07229 0
M  V30 9 N -1.21463 -0.0855701 -2.37605 0
M  V30 10 C -2.32774 -0.39177 -3.0447 0
M  V30 11 N -3.48972 -0.408443 -2.35797 0
M  V30 12 N -2.30329 -0.696148 -4.45188 0
M  V30 13 N 0.0524675 0.514596 -0.457931 0
M  V30 14 C 1.25022 0.553173 -1.26826 0
M  V30 15 C 2.33013 -0.253438 -0.633364 0
M  V30 16 N 2.52089 -0.0373882 0.748913 0
M  V30 17 C 1.38339 0.0984819 1.5739 0
M  V30 18 C 0.199144 0.800366 0.948552 0
M  V30 19 C 3.71474 0.613455 1.15637 0
M  V30 20 C 4.93541 -0.135755 0.763581 0
M  V30 21 N 5.08229 -1.30691 0.131178 0
M  V30 22 O 6.36027 -1.5771 -0.00173213 0
M  V30 23 C 7.07498 -0.605531 0.531627 0
M  V30 24 N 6.19399 0.290695 1.00755 0
M  V30 25 C 8.56561 -0.571448 0.56563 0
M  V30 26 H -5.97749 -0.431314 3.36402 0
M  V30 27 H -6.34987 1.16574 3.03765 0
M  V30 28 H -6.91656 -0.194866 1.15884 0
M  V30 29 H -3.91332 -0.949311 1.39138 0
M  V30 30 H -5.34484 -1.98576 0.76128 0
M  V30 31 H -5.70537 -0.442951 -1.06244 0
M  V30 32 H -4.35514 1.49942 0.963276 0
M  V30 33 H -5.96964 1.70553 0.025615 0
M  V30 34 H -2.43489 0.399192 0.635461 0
M  V30 35 H -3.04794 -1.30504 -4.84035 0
M  V30 36 H -1.55787 -0.307741 -5.03096 0
M  V30 37 H 1.08136 0.169166 -2.29674 0
M  V30 38 H 1.59654 1.61998 -1.29488 0
M  V30 39 H 3.28595 0.0236705 -1.16875 0
M  V30 40 H 2.21892 -1.34551 -0.813773 0
M  V30 41 H 1.65481 0.669248 2.49267 0
M  V30 42 H 1.01571 -0.884507 1.93142 0
M  V30 43 H 0.413389 1.90222 1.0729 0
M  V30 44 H -0.669486 0.567528 1.56531 0
M  V30 45 H 3.71845 0.639711 2.27508 0
M  V30 46 H 3.82327 1.64866 0.747576 0
M  V30 47 H 8.92229 -0.105242 -0.389176 0
M  V30 48 H 9.01103 -1.55205 0.76026 0
M  V30 49 H 8.88088 0.111018 1.38494 0
M  V30 END ATOM
M  V30 BEGIN BOND
M  V30 1 1 1 2
M  V30 2 1 2 3
M  V30 3 1 3 4
M  V30 4 1 4 5
M  V30 5 1 4 6
M  V30 6 2 6 7
M  V30 7 1 7 8
M  V30 8 2 8 9
M  V30 9 1 9 10
M  V30 10 2 10 11
M  V30 11 1 10 12
M  V30 12 1 8 13
M  V30 13 1 13 14
M  V30 14 1 14 15
M  V30 15 1 15 16
M  V30 16 1 16 17
M  V30 17 1 17 18
M  V30 18 1 16 19
M  V30 19 1 19 20
M  V30 20 2 20 21
M  V30 21 1 21 22
M  V30 22 1 22 23
M  V30 23 2 23 24
M  V30 24 1 23 25
M  V30 25 1 5 2
M  V30 26 1 11 6
M  V30 27 1 18 13
M  V30 28 1 24 20
M  V30 29 1 1 26
M  V30 30 1 1 27
M  V30 31 1 2 28 CFG=3
M  V30 32 1 3 29
M  V30 33 1 3 30
M  V30 34 1 4 31 CFG=3
M  V30 35 1 5 32
M  V30 36 1 5 33
M  V30 37 1 7 34
M  V30 38 1 12 35
M  V30 39 1 12 36
M  V30 40 1 14 37
M  V30 41 1 14 38
M  V30 42 1 15 39
M  V30 43 1 15 40
M  V30 44 1 17 41
M  V30 45 1 17 42
M  V30 46 1 18 43
M  V30 47 1 18 44
M  V30 48 1 19 45
M  V30 49 1 19 46
M  V30 50 1 25 47
M  V30 51 1 25 48
M  V30 52 1 25 49
M  V30 END BOND
M  V30 END CTAB
M  END
