
     RDKit          3D

  0  0  0  0  0  0  0  0  0  0999 V3000
M  V30 BEGIN CTAB
M  V30 COUNTS 19 19 0 0 0
M  V30 BEGIN ATOM
M  V30 1 F 3.33376 -1.03684 0.555996 0
M  V30 2 C 2.26575 -1.59902 -0.106205 0
M  V30 3 C 1.05502 -0.740514 -0.0494534 0
M  V30 4 C -0.138836 -1.22203 0.443373 0
M  V30 5 C -1.27763 -0.440459 0.505291 0
M  V30 6 N -2.49307 -0.954179 1.01476 0
M  V30 7 C -1.26181 0.864341 0.0716461 0
M  V30 8 C -0.0641545 1.34741 -0.422759 0
M  V30 9 C 1.07044 0.574165 -0.486228 0
M  V30 10 N -0.0452712 2.69429 -0.871082 0
M  V30 11 I -2.96074 2.11051 0.137625 0
M  V30 12 F 2.58762 -1.77183 -1.4561 0
M  V30 13 H 2.0002 -2.59632 0.296273 0
M  V30 14 H -0.14744 -2.24433 0.782072 0
M  V30 15 H -2.52323 -1.23221 2.01555 0
M  V30 16 H -3.35038 -1.06432 0.434665 0
M  V30 17 H 2.01097 0.943657 -0.871229 0
M  V30 18 H -0.232711 2.94775 -1.85748 0
M  V30 19 H 0.171531 3.41992 -0.136727 0
M  V30 END ATOM
M  V30 BEGIN BOND
M  V30 1 1 1 2
M  V30 2 1 2 3
M  V30 3 2 3 4
M  V30 4 1 4 5
M  V30 5 1 5 6
M  V30 6 2 5 7
M  V30 7 1 7 8
M  V30 8 2 8 9
M  V30 9 1 8 10
M  V30 10 1 7 11
M  V30 11 1 2 12
M  V30 12 1 9 3
M  V30 13 1 2 13
M  V30 14 1 4 14
M  V30 15 1 6 15
M  V30 16 1 6 16
M  V30 17 1 9 17
M  V30 18 1 10 18
M  V30 19 1 10 19
M  V30 END BOND
M  V30 END CTAB
M  END
