
     RDKit          3D

  0  0  0  0  0  0  0  0  0  0999 V3000
M  V30 BEGIN CTAB
M  V30 COUNTS 25 26 0 0 0
M  V30 BEGIN ATOM
M  V30 1 C -3.46435 -1.24825 0.0839843 0
M  V30 2 C -2.20232 -0.471506 0.00229142 0
M  V30 3 N -0.977929 -1.01953 0.0989142 0
M  V30 4 N -0.0409277 -0.0972645 -0.00843339 0
M  V30 5 C -0.662637 1.06754 -0.177284 0
M  V30 6 C -2.04803 0.866618 -0.175673 0
M  V30 7 N -3.06732 1.84883 -0.327166 0
M  V30 8 N -0.0411807 2.34033 -0.337802 0
M  V30 9 C 1.3673 -0.366979 0.053957 0
M  V30 10 C 1.83667 -1.57419 0.463591 0
M  V30 11 C 3.19329 -1.85637 0.531483 0
M  V30 12 C 4.10048 -0.879963 0.171411 0
M  V30 13 C 3.59895 0.333309 -0.239617 0
M  V30 14 N 2.27494 0.565957 -0.290997 0
M  V30 15 H -4.16149 -1.00067 -0.756857 0
M  V30 16 H -3.96632 -1.09233 1.07531 0
M  V30 17 H -3.27404 -2.33427 0.012686 0
M  V30 18 H -2.88897 2.79344 -0.712293 0
M  V30 19 H -4.02827 1.60699 -0.0393848 0
M  V30 20 H 0.50111 2.60984 -1.16306 0
M  V30 21 H -0.163824 3.01326 0.446646 0
M  V30 22 H 1.10809 -2.3372 0.745407 0
M  V30 23 H 3.53713 -2.83001 0.862641 0
M  V30 24 H 5.18574 -1.05652 0.208598 0
M  V30 25 H 4.2839 1.11896 -0.52835 0
M  V30 END ATOM
M  V30 BEGIN BOND
M  V30 1 1 1 2
M  V30 2 2 2 3
M  V30 3 1 3 4
M  V30 4 1 4 5
M  V30 5 2 5 6
M  V30 6 1 6 7
M  V30 7 1 5 8
M  V30 8 1 4 9
M  V30 9 2 9 10
M  V30 10 1 10 11
M  V30 11 2 11 12
M  V30 12 1 12 13
M  V30 13 2 13 14
M  V30 14 1 6 2
M  V30 15 1 14 9
M  V30 16 1 1 15
M  V30 17 1 1 16
M  V30 18 1 1 17
M  V30 19 1 7 18
M  V30 20 1 7 19
M  V30 21 1 8 20
M  V30 22 1 8 21
M  V30 23 1 10 22
M  V30 24 1 11 23
M  V30 25 1 12 24
M  V30 26 1 13 25
M  V30 END BOND
M  V30 END CTAB
M  END
