
     RDKit          3D

  0  0  0  0  0  0  0  0  0  0999 V3000
M  V30 BEGIN CTAB
M  V30 COUNTS 43 46 0 0 0
M  V30 BEGIN ATOM
M  V30 1 N -5.63433 2.36875 2.14639 0
M  V30 2 C -5.29209 1.49144 1.09234 0
M  V30 3 N -4.32438 1.79782 0.188441 0
M  V30 4 C -4.00237 0.962009 -0.811006 0
M  V30 5 C -2.96573 1.2947 -1.78449 0
M  V30 6 O -1.6544 1.0226 -1.40467 0
M  V30 7 C -1.12437 -0.192925 -1.07762 0
M  V30 8 O -1.85032 -1.20881 -1.10565 0
M  V30 9 C 0.281735 -0.330931 -0.693485 0
M  V30 10 N 1.18367 0.673759 -0.618317 0
M  V30 11 N 2.36492 0.239538 -0.245781 0
M  V30 12 C 2.24766 -1.10361 -0.0656736 0
M  V30 13 C 0.960008 -1.47026 -0.340162 0
M  V30 14 C 0.852907 -2.93633 -0.137179 0
M  V30 15 C 2.02069 -3.25034 0.806774 0
M  V30 16 C 3.07311 -2.29702 0.332896 0
M  V30 17 C 3.57433 0.962378 -0.0471792 0
M  V30 18 C 4.40637 1.3055 -1.10708 0
M  V30 19 C 5.57542 2.00446 -0.913192 0
M  V30 20 C 5.97713 2.39736 0.338696 0
M  V30 21 C 5.16013 2.06426 1.40907 0
M  V30 22 C 3.9838 1.35997 1.2064 0
M  V30 23 N -4.66496 -0.199431 -0.901156 0
M  V30 24 C -5.63587 -0.545749 -0.0232638 0
M  V30 25 N -5.92885 0.31944 0.964115 0
M  V30 26 N -6.28124 -1.79594 -0.199675 0
M  V30 27 H -4.93538 2.60277 2.87367 0
M  V30 28 H -6.58401 2.77748 2.19133 0
M  V30 29 H -3.00502 2.39851 -2.0249 0
M  V30 30 H -3.15512 0.810329 -2.78781 0
M  V30 31 H 0.946718 -3.48392 -1.08596 0
M  V30 32 H -0.0654621 -3.20133 0.429511 0
M  V30 33 H 1.74601 -3.02867 1.84795 0
M  V30 34 H 2.36467 -4.29171 0.646939 0
M  V30 35 H 3.77785 -1.99191 1.12717 0
M  V30 36 H 3.62387 -2.70746 -0.540802 0
M  V30 37 H 4.06147 0.97954 -2.09363 0
M  V30 38 H 6.19345 2.25232 -1.75478 0
M  V30 39 H 6.89247 2.94932 0.526912 0
M  V30 40 H 5.48046 2.37742 2.40627 0
M  V30 41 H 3.38773 1.12779 2.07151 0
M  V30 42 H -6.84265 -1.98376 -1.05058 0
M  V30 43 H -6.19004 -2.51934 0.522977 0
M  V30 END ATOM
M  V30 BEGIN BOND
M  V30 1 1 1 2
M  V30 2 2 2 3
M  V30 3 1 3 4
M  V30 4 1 4 5
M  V30 5 1 5 6
M  V30 6 1 6 7
M  V30 7 2 7 8
M  V30 8 1 7 9
M  V30 9 2 9 10
M  V30 10 1 10 11
M  V30 11 1 11 12
M  V30 12 2 12 13
M  V30 13 1 13 14
M  V30 14 1 14 15
M  V30 15 1 15 16
M  V30 16 1 11 17
M  V30 17 2 17 18
M  V30 18 1 18 19
M  V30 19 2 19 20
M  V30 20 1 20 21
M  V30 21 2 21 22
M  V30 22 2 4 23
M  V30 23 1 23 24
M  V30 24 2 24 25
M  V30 25 1 24 26
M  V30 26 1 25 2
M  V30 27 1 13 9
M  V30 28 1 22 17
M  V30 29 1 16 12
M  V30 30 1 1 27
M  V30 31 1 1 28
M  V30 32 1 5 29
M  V30 33 1 5 30
M  V30 34 1 14 31
M  V30 35 1 14 32
M  V30 36 1 15 33
M  V30 37 1 15 34
M  V30 38 1 16 35
M  V30 39 1 16 36
M  V30 40 1 18 37
M  V30 41 1 19 38
M  V30 42 1 20 39
M  V30 43 1 21 40
M  V30 44 1 22 41
M  V30 45 1 26 42
M  V30 46 1 26 43
M  V30 END BOND
M  V30 END CTAB
M  END
