
     RDKit          3D

  0  0  0  0  0  0  0  0  0  0999 V3000
M  V30 BEGIN CTAB
M  V30 COUNTS 24 24 0 0 0
M  V30 BEGIN ATOM
M  V30 1 N -1.40987 2.18949 1.2057 0
M  V30 2 C -1.77953 0.986486 0.554697 0
M  V30 3 C -3.08917 0.602627 0.378689 0
M  V30 4 C -3.4049 -0.576465 -0.260618 0
M  V30 5 C -2.42638 -1.42768 -0.754254 0
M  V30 6 C -1.12351 -1.01695 -0.563304 0
M  V30 7 C -0.769153 0.152958 0.0699242 0
M  V30 8 N 0.595559 0.478296 0.212312 0
M  V30 9 C 1.61302 -0.398179 -0.296237 0
M  V30 10 C 2.99923 0.14489 -0.0350437 0
M  V30 11 N 3.98767 -0.766821 -0.562189 0
M  V30 12 Cl -2.83168 -2.93048 -1.56898 0
M  V30 13 H -1.40006 3.09015 0.684689 0
M  V30 14 H -1.1398 2.21263 2.21159 0
M  V30 15 H -3.8505 1.26727 0.764076 0
M  V30 16 H -4.42967 -0.86929 -0.394193 0
M  V30 17 H -0.357783 -1.69461 -0.955949 0
M  V30 18 H 0.863599 1.35385 0.686162 0
M  V30 19 H 1.56044 -1.41641 0.16227 0
M  V30 20 H 1.52032 -0.496201 -1.4183 0
M  V30 21 H 3.11695 1.15448 -0.474904 0
M  V30 22 H 3.10321 0.252612 1.05724 0
M  V30 23 H 3.71669 -1.75685 -0.486433 0
M  V30 24 H 4.93531 -0.535818 -0.216935 0
M  V30 END ATOM
M  V30 BEGIN BOND
M  V30 1 1 1 2
M  V30 2 2 2 3
M  V30 3 1 3 4
M  V30 4 2 4 5
M  V30 5 1 5 6
M  V30 6 2 6 7
M  V30 7 1 7 8
M  V30 8 1 8 9
M  V30 9 1 9 10
M  V30 10 1 10 11
M  V30 11 1 5 12
M  V30 12 1 7 2
M  V30 13 1 1 13
M  V30 14 1 1 14
M  V30 15 1 3 15
M  V30 16 1 4 16
M  V30 17 1 6 17
M  V30 18 1 8 18
M  V30 19 1 9 19
M  V30 20 1 9 20
M  V30 21 1 10 21
M  V30 22 1 10 22
M  V30 23 1 11 23
M  V30 24 1 11 24
M  V30 END BOND
M  V30 END CTAB
M  END
