
     RDKit          3D

  0  0  0  0  0  0  0  0  0  0999 V3000
M  V30 BEGIN CTAB
M  V30 COUNTS 33 33 0 0 0
M  V30 BEGIN ATOM
M  V30 1 N 4.24986 1.03342 -0.306454 0
M  V30 2 C 2.97334 0.797557 0.310566 0
M  V30 3 C 2.12103 -0.116212 -0.553101 0
M  V30 4 N 0.847154 -0.389437 -0.00180119 0
M  V30 5 C 0.799764 -1.17628 1.16627 0
M  V30 6 C -0.629167 -1.48253 1.52592 0
M  V30 7 C -1.34611 -1.98776 0.328895 0
M  V30 8 C -2.0973 -0.961109 -0.452182 0
M  V30 9 C -1.33061 0.172892 -0.975806 0 CFG=2
M  V30 10 C -0.146376 0.610152 -0.155254 0
M  V30 11 C -2.23685 1.38681 -1.10856 0
M  V30 12 N -2.79372 1.7529 0.174929 0
M  V30 13 H 4.53747 0.19039 -0.84475 0
M  V30 14 H 4.20485 1.86301 -0.958443 0
M  V30 15 H 2.49117 1.80319 0.437983 0
M  V30 16 H 3.0779 0.370799 1.31449 0
M  V30 17 H 2.01194 0.332202 -1.56225 0
M  V30 18 H 2.67475 -1.06251 -0.664973 0
M  V30 19 H 1.28206 -0.667347 2.00524 0
M  V30 20 H 1.3257 -2.14021 1.01345 0
M  V30 21 H -1.13074 -0.642185 2.04663 0
M  V30 22 H -0.577551 -2.3115 2.28279 0
M  V30 23 H -2.09316 -2.74821 0.676138 0
M  V30 24 H -0.622136 -2.55291 -0.297888 0
M  V30 25 H -2.95831 -0.601555 0.182054 0
M  V30 26 H -2.59567 -1.48913 -1.29325 0
M  V30 27 H -0.940823 -0.0598969 -2.00127 0
M  V30 28 H 0.310003 1.45833 -0.709511 0
M  V30 29 H -0.454964 1.05115 0.830333 0
M  V30 30 H -1.6267 2.27783 -1.43616 0
M  V30 31 H -3.03022 1.20081 -1.84482 0
M  V30 32 H -2.56474 2.69549 0.502667 0
M  V30 33 H -3.73185 1.39185 0.368131 0
M  V30 END ATOM
M  V30 BEGIN BOND
M  V30 1 1 1 2
M  V30 2 1 2 3
M  V30 3 1 3 4
M  V30 4 1 4 5
M  V30 5 1 5 6
M  V30 6 1 6 7
M  V30 7 1 7 8
M  V30 8 1 8 9
M  V30 9 1 9 10
M  V30 10 1 9 11
M  V30 11 1 11 12
M  V30 12 1 10 4
M  V30 13 1 1 13
M  V30 14 1 1 14
M  V30 15 1 2 15
M  V30 16 1 2 16
M  V30 17 1 3 17
M  V30 18 1 3 18
M  V30 19 1 5 19
M  V30 20 1 5 20
M  V30 21 1 6 21
M  V30 22 1 6 22
M  V30 23 1 7 23
M  V30 24 1 7 24
M  V30 25 1 8 25
M  V30 26 1 8 26
M  V30 27 1 9 27 CFG=3
M  V30 28 1 10 28
M  V30 29 1 10 29
M  V30 30 1 11 30
M  V30 31 1 11 31
M  V30 32 1 12 32
M  V30 33 1 12 33
M  V30 END BOND
M  V30 END CTAB
M  END
