
     RDKit          3D

  0  0  0  0  0  0  0  0  0  0999 V3000
M  V30 BEGIN CTAB
M  V30 COUNTS 28 29 0 0 0
M  V30 BEGIN ATOM
M  V30 1 N -2.26073 0.45504 3.14416 0
M  V30 2 C -2.11937 0.0018937 1.78794 0
M  V30 3 N -3.16358 -0.553465 1.13638 0
M  V30 4 C -3.05255 -0.9841 -0.132104 0
M  V30 5 N -4.1385 -1.56957 -0.82992 0
M  V30 6 C -1.82493 -0.841202 -0.759644 0
M  V30 7 C -0.720494 -0.274043 -0.12567 0
M  V30 8 N 0.476203 -0.16477 -0.836395 0
M  V30 9 C 1.71378 0.355859 -0.425644 0
M  V30 10 C 2.01371 0.767707 0.835534 0
M  V30 11 C 3.25905 1.28633 1.18465 0
M  V30 12 C 4.2555 1.40344 0.243146 0
M  V30 13 Br 5.96526 2.11143 0.703786 0
M  V30 14 C 3.9809 0.99825 -1.02597 0
M  V30 15 C 2.75006 0.487288 -1.36484 0
M  V30 16 N -0.956474 0.115396 1.13389 0
M  V30 17 N -1.71729 -1.29397 -2.08752 0 CHG=1
M  V30 18 O -1.64325 -0.505541 -3.19473 0 CHG=-1
M  V30 19 O -1.68695 -2.53389 -2.26793 0
M  V30 20 H -2.48004 -0.197939 3.92315 0
M  V30 21 H -2.13063 1.47405 3.30077 0
M  V30 22 H -4.05997 -2.53669 -1.18687 0
M  V30 23 H -5.01776 -1.0505 -0.993954 0
M  V30 24 H 0.445245 -0.536065 -1.84747 0
M  V30 25 H 1.31041 0.713908 1.64368 0
M  V30 26 H 3.41667 1.58582 2.18779 0
M  V30 27 H 4.78864 1.10128 -1.75717 0
M  V30 28 H 2.59708 0.184057 -2.38903 0
M  V30 END ATOM
M  V30 BEGIN BOND
M  V30 1 1 1 2
M  V30 2 2 2 3
M  V30 3 1 3 4
M  V30 4 1 4 5
M  V30 5 2 4 6
M  V30 6 1 6 7
M  V30 7 1 7 8
M  V30 8 1 8 9
M  V30 9 2 9 10
M  V30 10 1 10 11
M  V30 11 2 11 12
M  V30 12 1 12 13
M  V30 13 1 12 14
M  V30 14 2 14 15
M  V30 15 2 7 16
M  V30 16 1 6 17
M  V30 17 1 17 18
M  V30 18 2 17 19
M  V30 19 1 16 2
M  V30 20 1 15 9
M  V30 21 1 1 20
M  V30 22 1 1 21
M  V30 23 1 5 22
M  V30 24 1 5 23
M  V30 25 1 8 24
M  V30 26 1 10 25
M  V30 27 1 11 26
M  V30 28 1 14 27
M  V30 29 1 15 28
M  V30 END BOND
M  V30 END CTAB
M  END
