
     RDKit          3D

  0  0  0  0  0  0  0  0  0  0999 V3000
M  V30 BEGIN CTAB
M  V30 COUNTS 35 36 0 0 0
M  V30 BEGIN ATOM
M  V30 1 C -6.17712 -0.822267 -1.13422 0
M  V30 2 C -4.78726 -0.378927 -0.821303 0
M  V30 3 C -3.79521 -1.3264 -0.906273 0
M  V30 4 C -2.4735 -0.961947 -0.622643 0
M  V30 5 C -2.13696 0.311315 -0.262454 0
M  V30 6 C -3.18407 1.25365 -0.186848 0
M  V30 7 C -4.48661 0.913112 -0.461823 0
M  V30 8 N -2.88084 2.59076 0.184016 0
M  V30 9 N -0.848958 0.761934 0.0372435 0
M  V30 10 C 0.372461 0.03793 0.0406023 0
M  V30 11 O 0.379165 -1.15804 -0.250143 0
M  V30 12 N 1.59045 0.693323 0.37993 0
M  V30 13 C 2.88019 0.188567 0.446827 0
M  V30 14 C 3.19595 -1.11503 0.175378 0
M  V30 15 C 4.51853 -1.60195 0.251479 0
M  V30 16 C 5.54995 -0.767899 0.606889 0
M  V30 17 C 5.21585 0.535646 0.875626 0
M  V30 18 C 3.9412 1.02601 0.807428 0
M  V30 19 Cl 3.56823 2.70665 1.16239 0
M  V30 20 N 6.89597 -1.24175 0.689611 0
M  V30 21 H -6.52255 -1.42941 -0.260353 0
M  V30 22 H -6.19637 -1.50207 -2.01339 0
M  V30 23 H -6.85769 0.0397845 -1.2553 0
M  V30 24 H -4.02384 -2.3469 -1.18889 0
M  V30 25 H -1.73017 -1.74476 -0.704095 0
M  V30 26 H -5.29499 1.65653 -0.399567 0
M  V30 27 H -3.10048 3.40585 -0.416944 0
M  V30 28 H -2.4215 2.75498 1.09259 0
M  V30 29 H -0.73809 1.79564 0.305744 0
M  V30 30 H 1.49383 1.74249 0.621637 0
M  V30 31 H 2.48955 -1.85838 -0.110006 0
M  V30 32 H 4.75458 -2.63178 0.035076 0
M  V30 33 H 6.00902 1.21354 1.15785 0
M  V30 34 H 7.65573 -0.516581 0.571341 0
M  V30 35 H 7.14554 -2.22362 0.853516 0
M  V30 END ATOM
M  V30 BEGIN BOND
M  V30 1 1 1 2
M  V30 2 2 2 3
M  V30 3 1 3 4
M  V30 4 2 4 5
M  V30 5 1 5 6
M  V30 6 2 6 7
M  V30 7 1 6 8
M  V30 8 1 5 9
M  V30 9 1 9 10
M  V30 10 2 10 11
M  V30 11 1 10 12
M  V30 12 1 12 13
M  V30 13 2 13 14
M  V30 14 1 14 15
M  V30 15 2 15 16
M  V30 16 1 16 17
M  V30 17 2 17 18
M  V30 18 1 18 19
M  V30 19 1 16 20
M  V30 20 1 7 2
M  V30 21 1 18 13
M  V30 22 1 1 21
M  V30 23 1 1 22
M  V30 24 1 1 23
M  V30 25 1 3 24
M  V30 26 1 4 25
M  V30 27 1 7 26
M  V30 28 1 8 27
M  V30 29 1 8 28
M  V30 30 1 9 29
M  V30 31 1 12 30
M  V30 32 1 14 31
M  V30 33 1 15 32
M  V30 34 1 17 33
M  V30 35 1 20 34
M  V30 36 1 20 35
M  V30 END BOND
M  V30 END CTAB
M  END
