
     RDKit          3D

  0  0  0  0  0  0  0  0  0  0999 V3000
M  V30 BEGIN CTAB
M  V30 COUNTS 24 24 0 0 0
M  V30 BEGIN ATOM
M  V30 1 N 1.37244 1.8936 -1.6213 0
M  V30 2 C 1.70756 0.867799 -0.694619 0
M  V30 3 C 3.03163 0.641672 -0.37595 0
M  V30 4 C 3.38707 -0.357963 0.52974 0
M  V30 5 Cl 5.08058 -0.605374 0.9008 0
M  V30 6 C 2.42042 -1.14276 1.1268 0
M  V30 7 C 1.10479 -0.885484 0.781697 0
M  V30 8 C 0.74144 0.0934992 -0.106674 0
M  V30 9 N -0.627272 0.319246 -0.429096 0
M  V30 10 C -1.67052 -0.491183 0.183459 0
M  V30 11 C -3.01573 -0.071034 -0.306629 0
M  V30 12 N -4.01836 -0.905882 0.330964 0
M  V30 13 F 2.75953 -2.12229 2.01342 0
M  V30 14 H 0.921956 1.67775 -2.54758 0
M  V30 15 H 1.5933 2.87752 -1.34303 0
M  V30 16 H 3.80283 1.25938 -0.844933 0
M  V30 17 H 0.320024 -1.47495 1.22478 0
M  V30 18 H -0.89916 1.06368 -1.10432 0
M  V30 19 H -1.50637 -1.56897 0.0388186 0
M  V30 20 H -1.59375 -0.291791 1.28777 0
M  V30 21 H -3.0629 -0.262638 -1.41144 0
M  V30 22 H -3.17654 1.00226 -0.128313 0
M  V30 23 H -3.75659 -1.14836 1.31541 0
M  V30 24 H -4.9164 -0.367718 0.300144 0
M  V30 END ATOM
M  V30 BEGIN BOND
M  V30 1 1 1 2
M  V30 2 2 2 3
M  V30 3 1 3 4
M  V30 4 1 4 5
M  V30 5 2 4 6
M  V30 6 1 6 7
M  V30 7 2 7 8
M  V30 8 1 8 9
M  V30 9 1 9 10
M  V30 10 1 10 11
M  V30 11 1 11 12
M  V30 12 1 6 13
M  V30 13 1 8 2
M  V30 14 1 1 14
M  V30 15 1 1 15
M  V30 16 1 3 16
M  V30 17 1 7 17
M  V30 18 1 9 18
M  V30 19 1 10 19
M  V30 20 1 10 20
M  V30 21 1 11 21
M  V30 22 1 11 22
M  V30 23 1 12 23
M  V30 24 1 12 24
M  V30 END BOND
M  V30 END CTAB
M  END
