
     RDKit          3D

  0  0  0  0  0  0  0  0  0  0999 V3000
M  V30 BEGIN CTAB
M  V30 COUNTS 42 44 0 0 0
M  V30 BEGIN ATOM
M  V30 1 N -0.654244 3.17007 1.20762 0
M  V30 2 C -1.29169 2.22442 0.976548 0
M  V30 3 C -2.10638 1.03599 0.709243 0
M  V30 4 C -3.20703 0.971632 1.41142 0
M  V30 5 N -3.63252 1.92644 2.36176 0
M  V30 6 S -4.28325 -0.444359 1.12046 0
M  V30 7 C -4.03555 -0.70994 -0.65763 0
M  V30 8 C -2.82422 -0.468111 -1.12107 0
M  V30 9 C -1.6784 7.73946e-05 -0.261588 0
M  V30 10 C -0.647289 0.65136 -1.1479 0
M  V30 11 C 0.48923 -0.254012 -1.55353 0
M  V30 12 N 0.949832 -1.05314 -0.469548 0
M  V30 13 C -0.138356 -2.02084 -0.0735426 0
M  V30 14 C -1.15747 -1.13636 0.57715 0
M  V30 15 C 2.10337 -1.0845 0.283449 0
M  V30 16 O 2.10549 -2.0715 1.16963 0
M  V30 17 C 3.28564 -0.292077 0.315438 0
M  V30 18 C 3.48317 0.877102 -0.345655 0
M  V30 19 C 4.6763 1.59675 -0.320759 0
M  V30 20 C 5.73449 1.11823 0.410595 0
M  V30 21 C 5.58208 -0.0510365 1.09171 0
M  V30 22 C 4.39316 -0.747857 1.05322 0
M  V30 23 C -2.65286 -0.673636 -2.5476 0
M  V30 24 N -2.5401 -0.835769 -3.70042 0
M  V30 25 N -5.12531 -1.14767 -1.41718 0
M  V30 26 H -3.50721 2.95602 2.26913 0
M  V30 27 H -4.11303 1.58382 3.23199 0
M  V30 28 H -0.181299 1.55613 -0.744358 0
M  V30 29 H -1.15438 0.960156 -2.09862 0
M  V30 30 H 0.132396 -0.999499 -2.3348 0
M  V30 31 H 1.28263 0.275618 -2.05217 0
M  V30 32 H -0.552525 -2.50645 -0.95402 0
M  V30 33 H 0.252818 -2.71261 0.659503 0
M  V30 34 H -1.98407 -1.80838 0.885478 0
M  V30 35 H -0.736525 -0.704322 1.52637 0
M  V30 36 H 2.6969 1.33677 -0.915815 0
M  V30 37 H 4.76722 2.52208 -0.871758 0
M  V30 38 H 6.65434 1.70038 0.412302 0
M  V30 39 H 6.43276 -0.416896 1.66838 0
M  V30 40 H 4.35498 -1.66945 1.62226 0
M  V30 41 H -6.04926 -0.626702 -1.45901 0
M  V30 42 H -5.12386 -2.02793 -2.01073 0
M  V30 END ATOM
M  V30 BEGIN BOND
M  V30 1 3 1 2
M  V30 2 1 2 3
M  V30 3 2 3 4
M  V30 4 1 4 5
M  V30 5 1 4 6
M  V30 6 1 6 7
M  V30 7 2 7 8
M  V30 8 1 8 9
M  V30 9 1 9 10
M  V30 10 1 10 11
M  V30 11 1 11 12
M  V30 12 1 12 13
M  V30 13 1 13 14
M  V30 14 1 12 15
M  V30 15 2 15 16
M  V30 16 1 15 17
M  V30 17 2 17 18
M  V30 18 1 18 19
M  V30 19 2 19 20
M  V30 20 1 20 21
M  V30 21 2 21 22
M  V30 22 1 8 23
M  V30 23 3 23 24
M  V30 24 1 7 25
M  V30 25 1 9 3
M  V30 26 1 22 17
M  V30 27 1 14 9
M  V30 28 1 5 26
M  V30 29 1 5 27
M  V30 30 1 10 28
M  V30 31 1 10 29
M  V30 32 1 11 30
M  V30 33 1 11 31
M  V30 34 1 13 32
M  V30 35 1 13 33
M  V30 36 1 14 34
M  V30 37 1 14 35
M  V30 38 1 18 36
M  V30 39 1 19 37
M  V30 40 1 20 38
M  V30 41 1 21 39
M  V30 42 1 22 40
M  V30 43 1 25 41
M  V30 44 1 25 42
M  V30 END BOND
M  V30 END CTAB
M  END
