
     RDKit          3D

  0  0  0  0  0  0  0  0  0  0999 V3000
M  V30 BEGIN CTAB
M  V30 COUNTS 39 41 0 0 0
M  V30 BEGIN ATOM
M  V30 1 N -1.74018 3.09698 0.883949 0
M  V30 2 C -0.696906 2.72218 0.662234 0
M  V30 3 C 0.662229 2.19682 0.402906 0
M  V30 4 C 1.82139 2.86423 0.198121 0
M  V30 5 C 1.99984 4.35147 0.257741 0
M  V30 6 N 2.78477 1.9472 -0.0406471 0
M  V30 7 N 2.23257 0.686953 0.0230503 0
M  V30 8 C 0.967611 0.805222 0.28416 0
M  V30 9 C -0.0433089 -0.183047 0.636701 0
M  V30 10 S -0.543505 -1.34917 -0.674359 0
M  V30 11 C -2.41007 -1.27138 -0.664325 0
M  V30 12 N -3.1428 -2.27662 -0.167081 0
M  V30 13 C -4.4838 -2.18626 0.0137091 0
M  V30 14 N -5.26087 -3.23033 0.550147 0
M  V30 15 C -5.1074 -0.999527 -0.342828 0
M  V30 16 C -4.34291 0.0470718 -0.855335 0
M  V30 17 N -3.01681 -0.140374 -0.999808 0
M  V30 18 N -4.94268 1.3064 -1.12873 0
M  V30 19 C 3.10627 -0.426919 -0.0846524 0
M  V30 20 C 3.84363 -0.608143 -1.25223 0
M  V30 21 C 4.86064 -1.57768 -1.32482 0
M  V30 22 C 5.16503 -2.36598 -0.23362 0
M  V30 23 C 4.44539 -2.18822 0.90065 0
M  V30 24 C 3.40879 -1.22602 1.01337 0
M  V30 25 H 1.18761 4.73466 0.89104 0
M  V30 26 H 2.09221 4.80017 -0.716063 0
M  V30 27 H 2.98599 4.45937 0.807146 0
M  V30 28 H 0.34991 -0.893504 1.43749 0
M  V30 29 H -0.958323 0.232216 1.08085 0
M  V30 30 H -5.81573 -3.13904 1.45206 0
M  V30 31 H -5.32922 -4.14079 0.0674426 0
M  V30 32 H -6.19116 -0.858908 -0.249977 0
M  V30 33 H -5.196 1.53782 -2.10675 0
M  V30 34 H -5.15192 2.01692 -0.375529 0
M  V30 35 H 3.61777 -0.0490275 -2.12186 0
M  V30 36 H 5.36134 -1.73784 -2.25111 0
M  V30 37 H 5.97649 -3.09594 -0.304169 0
M  V30 38 H 4.6393 -2.78653 1.76937 0
M  V30 39 H 2.86484 -1.07442 1.91199 0
M  V30 END ATOM
M  V30 BEGIN BOND
M  V30 1 3 1 2
M  V30 2 1 2 3
M  V30 3 1 3 4
M  V30 4 1 4 5
M  V30 5 2 4 6
M  V30 6 1 6 7
M  V30 7 1 7 8
M  V30 8 1 8 9
M  V30 9 1 9 10
M  V30 10 1 10 11
M  V30 11 2 11 12
M  V30 12 1 12 13
M  V30 13 1 13 14
M  V30 14 2 13 15
M  V30 15 1 15 16
M  V30 16 2 16 17
M  V30 17 1 16 18
M  V30 18 1 7 19
M  V30 19 2 19 20
M  V30 20 1 20 21
M  V30 21 2 21 22
M  V30 22 1 22 23
M  V30 23 2 23 24
M  V30 24 2 8 3
M  V30 25 1 17 11
M  V30 26 1 24 19
M  V30 27 1 5 25
M  V30 28 1 5 26
M  V30 29 1 5 27
M  V30 30 1 9 28
M  V30 31 1 9 29
M  V30 32 1 14 30
M  V30 33 1 14 31
M  V30 34 1 15 32
M  V30 35 1 18 33
M  V30 36 1 18 34
M  V30 37 1 20 35
M  V30 38 1 21 36
M  V30 39 1 22 37
M  V30 40 1 23 38
M  V30 41 1 24 39
M  V30 END BOND
M  V30 END CTAB
M  END
