
     RDKit          3D

  0  0  0  0  0  0  0  0  0  0999 V3000
M  V30 BEGIN CTAB
M  V30 COUNTS 27 27 0 0 0
M  V30 BEGIN ATOM
M  V30 1 C -2.76267 -2.67646 -0.140853 0
M  V30 2 N -2.31106 -1.30445 -0.133682 0
M  V30 3 C -0.947352 -0.933953 -0.153926 0
M  V30 4 C -0.579109 0.406001 -0.14268 0
M  V30 5 C 0.75348 0.784317 -0.163766 0
M  V30 6 C 1.70283 -0.214038 -0.196261 0
M  V30 7 C 1.34893 -1.56841 -0.20795 0
M  V30 8 Cl 2.57797 -2.81764 -0.249393 0
M  V30 9 C 0.0145528 -1.9169 -0.186442 0
M  V30 10 S 3.3975 0.215028 -0.223769 0
M  V30 11 N 3.58021 1.91728 -0.203906 0
M  V30 12 O 4.03885 -0.371954 0.999942 0
M  V30 13 O 4.08056 -0.381657 -1.43987 0
M  V30 14 S -1.79707 1.6385 -0.0999824 0
M  V30 15 N -1.06255 3.18243 -0.0982994 0
M  V30 16 O -2.66983 1.52083 1.11509 0
M  V30 17 O -2.61489 1.51268 -1.36304 0
M  V30 18 H -2.17953 -3.31901 0.548241 0
M  V30 19 H -3.814 -2.78448 0.136307 0
M  V30 20 H -2.61978 -3.11379 -1.16283 0
M  V30 21 H -3.07297 -0.573342 -0.1124 0
M  V30 22 H 1.01963 1.83396 -0.154553 0
M  V30 23 H -0.319536 -2.9429 -0.194153 0
M  V30 24 H 3.45886 2.25793 0.778502 0
M  V30 25 H 2.90148 2.36518 -0.855769 0
M  V30 26 H -1.72231 3.96613 -0.154983 0
M  V30 27 H -0.402194 3.31872 0.679663 0
M  V30 END ATOM
M  V30 BEGIN BOND
M  V30 1 1 1 2
M  V30 2 1 2 3
M  V30 3 2 3 4
M  V30 4 1 4 5
M  V30 5 2 5 6
M  V30 6 1 6 7
M  V30 7 1 7 8
M  V30 8 2 7 9
M  V30 9 1 6 10
M  V30 10 1 10 11
M  V30 11 2 10 12
M  V30 12 2 10 13
M  V30 13 1 4 14
M  V30 14 1 14 15
M  V30 15 2 14 16
M  V30 16 2 14 17
M  V30 17 1 9 3
M  V30 18 1 1 18
M  V30 19 1 1 19
M  V30 20 1 1 20
M  V30 21 1 2 21
M  V30 22 1 5 22
M  V30 23 1 9 23
M  V30 24 1 11 24
M  V30 25 1 11 25
M  V30 26 1 15 26
M  V30 27 1 15 27
M  V30 END BOND
M  V30 END CTAB
M  END
