
     RDKit          3D

  0  0  0  0  0  0  0  0  0  0999 V3000
M  V30 BEGIN CTAB
M  V30 COUNTS 20 20 0 0 0
M  V30 BEGIN ATOM
M  V30 1 C 3.20146 -0.630788 0.117044 0
M  V30 2 C 1.73048 -0.395231 0.0615274 0
M  V30 3 N 1.19613 0.838315 0.0365991 0
M  V30 4 C -0.122242 1.07277 -0.0132533 0
M  V30 5 C -0.655191 2.45788 -0.0388357 0
M  V30 6 C -1.01613 0.00879522 -0.0419773 0
M  V30 7 N -2.42083 0.223469 -0.0949507 0
M  V30 8 C -0.461035 -1.25433 -0.0161541 0
M  V30 9 N -1.37224 -2.34834 -0.0453771 0
M  V30 10 N 0.871412 -1.42939 0.0339721 0
M  V30 11 H 3.67067 -0.702235 -0.862495 0
M  V30 12 H 3.7169 0.165204 0.727278 0
M  V30 13 H 3.42996 -1.58922 0.660021 0
M  V30 14 H -0.28431 3.01992 0.865161 0
M  V30 15 H -0.382661 2.99706 -0.983145 0
M  V30 16 H -1.75372 2.44375 -0.0042799 0
M  V30 17 H -2.99891 -0.213983 -0.839813 0
M  V30 18 H -2.91574 0.818534 0.600666 0
M  V30 19 H -2.0039 -2.42275 -0.858935 0
M  V30 20 H -1.4301 -3.05944 0.696948 0
M  V30 END ATOM
M  V30 BEGIN BOND
M  V30 1 1 1 2
M  V30 2 2 2 3
M  V30 3 1 3 4
M  V30 4 1 4 5
M  V30 5 2 4 6
M  V30 6 1 6 7
M  V30 7 1 6 8
M  V30 8 1 8 9
M  V30 9 2 8 10
M  V30 10 1 10 2
M  V30 11 1 1 11
M  V30 12 1 1 12
M  V30 13 1 1 13
M  V30 14 1 5 14
M  V30 15 1 5 15
M  V30 16 1 5 16
M  V30 17 1 7 17
M  V30 18 1 7 18
M  V30 19 1 9 19
M  V30 20 1 9 20
M  V30 END BOND
M  V30 END CTAB
M  END
