
     RDKit          3D

  0  0  0  0  0  0  0  0  0  0999 V3000
M  V30 BEGIN CTAB
M  V30 COUNTS 47 48 0 0 0
M  V30 BEGIN ATOM
M  V30 1 N -4.11585 2.20242 0.241126 0
M  V30 2 C -4.0504 0.928786 -0.465648 0
M  V30 3 C -5.29986 0.84884 -1.32288 0
M  V30 4 C -5.44152 -0.40813 -2.14942 0
M  V30 5 C -6.37808 -0.104866 -0.960532 0
M  V30 6 C -4.02005 -0.164545 0.559266 0
M  V30 7 N -2.85912 -0.0407251 1.44979 0
M  V30 8 C -2.69632 -1.0172 2.46566 0
M  V30 9 O -3.54203 -1.97143 2.59543 0
M  V30 10 C -1.58576 -0.995505 3.40443 0
M  V30 11 S -0.39833 0.279262 3.03971 0
M  V30 12 C 0.574166 0.0345815 1.56361 0
M  V30 13 C 1.51349 -1.14679 1.66195 0
M  V30 14 O 2.2978 -1.4045 0.580524 0
M  V30 15 C 3.27346 -0.764117 -0.0862294 0
M  V30 16 C 3.78627 0.467578 0.230719 0
M  V30 17 C 4.78985 0.982554 -0.569073 0
M  V30 18 C 5.32196 0.35899 -1.66465 0
M  V30 19 C 4.79572 -0.891455 -1.97842 0
M  V30 20 C 3.79715 -1.43322 -1.20462 0
M  V30 21 S 6.59351 1.06074 -2.64114 0
M  V30 22 O 6.59421 2.56448 -2.44092 0
M  V30 23 O 6.41477 0.814339 -4.09083 0
M  V30 24 N 8.12412 0.508764 -2.05539 0
M  V30 25 H -3.17914 2.45983 0.625236 0
M  V30 26 H -4.46619 2.94571 -0.422273 0
M  V30 27 H -3.14786 0.879822 -1.07857 0
M  V30 28 H -5.62344 1.77385 -1.84454 0
M  V30 29 H -5.91403 -0.370973 -3.15235 0
M  V30 30 H -4.73157 -1.2343 -2.02554 0
M  V30 31 H -7.41552 0.126026 -1.23561 0
M  V30 32 H -6.29344 -0.796483 -0.106271 0
M  V30 33 H -4.90504 -0.0587573 1.22114 0
M  V30 34 H -3.99143 -1.16428 0.131904 0
M  V30 35 H -2.19644 0.7509 1.32952 0
M  V30 36 H -2.02601 -0.752632 4.41573 0
M  V30 37 H -1.11079 -1.99135 3.55799 0
M  V30 38 H -0.13128 -0.118233 0.693806 0
M  V30 39 H 1.13677 0.945553 1.34804 0
M  V30 40 H 0.834598 -2.04165 1.81483 0
M  V30 41 H 2.09264 -1.11806 2.62588 0
M  V30 42 H 3.42556 1.03781 1.10342 0
M  V30 43 H 5.1815 1.96101 -0.296491 0
M  V30 44 H 5.19749 -1.40789 -2.83893 0
M  V30 45 H 3.41312 -2.42195 -1.49016 0
M  V30 46 H 8.359 -0.394706 -2.54456 0
M  V30 47 H 8.00235 0.281891 -1.0384 0
M  V30 END ATOM
M  V30 BEGIN BOND
M  V30 1 1 1 2
M  V30 2 1 2 3
M  V30 3 1 3 4
M  V30 4 1 4 5
M  V30 5 1 2 6
M  V30 6 1 6 7
M  V30 7 1 7 8
M  V30 8 2 8 9
M  V30 9 1 8 10
M  V30 10 1 10 11
M  V30 11 1 11 12
M  V30 12 1 12 13
M  V30 13 1 13 14
M  V30 14 1 14 15
M  V30 15 2 15 16
M  V30 16 1 16 17
M  V30 17 2 17 18
M  V30 18 1 18 19
M  V30 19 2 19 20
M  V30 20 1 18 21
M  V30 21 2 21 22
M  V30 22 2 21 23
M  V30 23 1 21 24
M  V30 24 1 5 3
M  V30 25 1 20 15
M  V30 26 1 1 25
M  V30 27 1 1 26
M  V30 28 1 2 27
M  V30 29 1 3 28
M  V30 30 1 4 29
M  V30 31 1 4 30
M  V30 32 1 5 31
M  V30 33 1 5 32
M  V30 34 1 6 33
M  V30 35 1 6 34
M  V30 36 1 7 35
M  V30 37 1 10 36
M  V30 38 1 10 37
M  V30 39 1 12 38
M  V30 40 1 12 39
M  V30 41 1 13 40
M  V30 42 1 13 41
M  V30 43 1 16 42
M  V30 44 1 17 43
M  V30 45 1 19 44
M  V30 46 1 20 45
M  V30 47 1 24 46
M  V30 48 1 24 47
M  V30 END BOND
M  V30 END CTAB
M  END
