
     RDKit          3D

  0  0  0  0  0  0  0  0  0  0999 V3000
M  V30 BEGIN CTAB
M  V30 COUNTS 52 55 0 0 0
M  V30 BEGIN ATOM
M  V30 1 N 3.51066 2.62141 -2.27432 0
M  V30 2 C 3.04664 1.89978 -1.14956 0 CFG=1
M  V30 3 C 1.91149 2.56002 -0.398079 0
M  V30 4 C 1.59901 1.76983 0.826917 0
M  V30 5 C 2.26773 0.440321 0.931627 0
M  V30 6 N 2.4857 -0.238328 -0.317319 0
M  V30 7 C 2.50303 0.516163 -1.5384 0
M  V30 8 C 2.68314 -1.6304 -0.341214 0
M  V30 9 C 3.94306 -2.14052 -0.560325 0
M  V30 10 C 4.14486 -3.50215 -0.533579 0
M  V30 11 N 3.11855 -4.3324 -0.29504 0
M  V30 12 C 1.85164 -3.88178 -0.0728084 0
M  V30 13 C 1.62416 -2.51539 -0.0955188 0
M  V30 14 N 0.348259 -1.92335 0.0568526 0
M  V30 15 C -0.845292 -2.53825 0.45335 0
M  V30 16 O -0.905048 -3.742 0.741135 0
M  V30 17 C -2.1218 -1.80343 0.558617 0
M  V30 18 C -3.26669 -2.43811 0.970504 0
M  V30 19 N -3.2697 -3.83341 1.32779 0
M  V30 20 C -4.46217 -1.76501 1.0583 0
M  V30 21 C -4.54575 -0.414395 0.73012 0
M  V30 22 C -3.37967 0.193637 0.32018 0
M  V30 23 N -2.21814 -0.504511 0.246658 0
M  V30 24 C -3.34961 1.6011 -0.0609247 0
M  V30 25 C -2.17221 2.1906 -0.501674 0
M  V30 26 C -2.12274 3.51727 -0.865606 0
M  V30 27 C -3.2456 4.31536 -0.806075 0
M  V30 28 N -4.38481 3.74899 -0.380673 0
M  V30 29 C -4.44125 2.43942 -0.0196184 0
M  V30 30 H 3.64836 1.96943 -3.07475 0
M  V30 31 H 4.38724 3.11866 -2.08085 0
M  V30 32 H 3.86614 1.76429 -0.385373 0
M  V30 33 H 2.148 3.6242 -0.193261 0
M  V30 34 H 1.01217 2.50808 -1.07655 0
M  V30 35 H 1.97069 2.38686 1.69993 0
M  V30 36 H 0.499096 1.66831 1.03986 0
M  V30 37 H 3.23322 0.541569 1.51088 0
M  V30 38 H 1.64099 -0.198087 1.6223 0
M  V30 39 H 3.10143 0.0563831 -2.33778 0
M  V30 40 H 1.46453 0.67346 -1.90164 0
M  V30 41 H 4.75635 -1.42523 -0.752336 0
M  V30 42 H 5.14566 -3.86444 -0.709099 0
M  V30 43 H 1.05756 -4.58916 0.107934 0
M  V30 44 H 0.241339 -0.877567 -0.163649 0
M  V30 45 H -3.41831 -4.51084 0.54762 0
M  V30 46 H -3.13681 -4.17727 2.28323 0
M  V30 47 H -5.35387 -2.29403 1.38841 0
M  V30 48 H -5.48002 0.103993 0.800796 0
M  V30 49 H -1.29048 1.54918 -0.545765 0
M  V30 50 H -1.19875 3.95695 -1.20556 0
M  V30 51 H -3.19924 5.37265 -1.09764 0
M  V30 52 H -5.40273 2.03215 0.321476 0
M  V30 END ATOM
M  V30 BEGIN BOND
M  V30 1 1 1 2
M  V30 2 1 2 3
M  V30 3 1 3 4
M  V30 4 1 4 5
M  V30 5 1 5 6
M  V30 6 1 6 7
M  V30 7 1 6 8
M  V30 8 2 8 9
M  V30 9 1 9 10
M  V30 10 2 10 11
M  V30 11 1 11 12
M  V30 12 2 12 13
M  V30 13 1 13 14
M  V30 14 1 14 15
M  V30 15 2 15 16
M  V30 16 1 15 17
M  V30 17 2 17 18
M  V30 18 1 18 19
M  V30 19 1 18 20
M  V30 20 2 20 21
M  V30 21 1 21 22
M  V30 22 2 22 23
M  V30 23 1 22 24
M  V30 24 2 24 25
M  V30 25 1 25 26
M  V30 26 2 26 27
M  V30 27 1 27 28
M  V30 28 2 28 29
M  V30 29 1 7 2
M  V30 30 1 13 8
M  V30 31 1 23 17
M  V30 32 1 29 24
M  V30 33 1 1 30
M  V30 34 1 1 31
M  V30 35 1 2 32 CFG=1
M  V30 36 1 3 33
M  V30 37 1 3 34
M  V30 38 1 4 35
M  V30 39 1 4 36
M  V30 40 1 5 37
M  V30 41 1 5 38
M  V30 42 1 7 39
M  V30 43 1 7 40
M  V30 44 1 9 41
M  V30 45 1 10 42
M  V30 46 1 12 43
M  V30 47 1 14 44
M  V30 48 1 19 45
M  V30 49 1 19 46
M  V30 50 1 20 47
M  V30 51 1 21 48
M  V30 52 1 25 49
M  V30 53 1 26 50
M  V30 54 1 27 51
M  V30 55 1 29 52
M  V30 END BOND
M  V30 END CTAB
M  END
