
     RDKit          3D

  0  0  0  0  0  0  0  0  0  0999 V3000
M  V30 BEGIN CTAB
M  V30 COUNTS 41 42 0 0 0
M  V30 BEGIN ATOM
M  V30 1 O -3.13868 0.24338 -1.86662 0
M  V30 2 C -2.77091 0.134482 -0.691388 0
M  V30 3 N -1.39222 -0.00627744 -0.412776 0
M  V30 4 C -0.161037 -0.0667515 -1.16804 0
M  V30 5 C 0.38245 -0.966315 -0.0783859 0
M  V30 6 C -0.593097 -0.155165 0.781944 0
M  V30 7 C 1.79064 -0.675841 0.351368 0
M  V30 8 S 2.97225 -0.83371 -1.00781 0
M  V30 9 C 4.59321 -0.469642 -0.382266 0
M  V30 10 N 5.02756 0.800287 -0.41259 0
M  V30 11 C 6.26029 1.13972 0.0524709 0
M  V30 12 N 6.64295 2.50167 -0.0152664 0
M  V30 13 N 7.08443 0.179065 0.563857 0
M  V30 14 C 6.62965 -1.07874 0.583471 0
M  V30 15 N 5.40728 -1.41999 0.123107 0
M  V30 16 N 7.45531 -2.10589 1.10669 0
M  V30 17 O -3.72135 0.154404 0.306255 0
M  V30 18 C -5.09338 0.289229 0.109373 0
M  V30 19 C -5.75061 0.258007 1.49492 0
M  V30 20 C -5.50955 1.56294 -0.550388 0
M  V30 21 C -5.69297 -0.869096 -0.66882 0
M  V30 22 H -0.229661 -0.530754 -2.16418 0
M  V30 23 H 0.348834 0.917884 -1.1218 0
M  V30 24 H 0.091642 -2.02157 -0.159424 0
M  V30 25 H -0.142568 0.837312 1.03842 0
M  V30 26 H -1.04508 -0.707148 1.60622 0
M  V30 27 H 2.06242 -1.43141 1.11722 0
M  V30 28 H 1.83788 0.31426 0.83964 0
M  V30 29 H 7.48254 2.75369 -0.567222 0
M  V30 30 H 6.07071 3.20328 0.489626 0
M  V30 31 H 7.1013 -2.7768 1.80179 0
M  V30 32 H 8.4398 -2.17907 0.77779 0
M  V30 33 H -5.13844 -0.363934 2.19447 0
M  V30 34 H -5.81084 1.32425 1.83824 0
M  V30 35 H -6.75362 -0.188651 1.39828 0
M  V30 36 H -5.61275 1.39054 -1.63834 0
M  V30 37 H -4.88297 2.42963 -0.29004 0
M  V30 38 H -6.55308 1.80924 -0.194911 0
M  V30 39 H -6.8026 -0.696615 -0.660137 0
M  V30 40 H -5.53776 -1.83666 -0.146997 0
M  V30 41 H -5.34797 -0.863251 -1.71001 0
M  V30 END ATOM
M  V30 BEGIN BOND
M  V30 1 2 1 2
M  V30 2 1 2 3
M  V30 3 1 3 4
M  V30 4 1 4 5
M  V30 5 1 5 6
M  V30 6 1 5 7
M  V30 7 1 7 8
M  V30 8 1 8 9
M  V30 9 2 9 10
M  V30 10 1 10 11
M  V30 11 1 11 12
M  V30 12 2 11 13
M  V30 13 1 13 14
M  V30 14 2 14 15
M  V30 15 1 14 16
M  V30 16 1 2 17
M  V30 17 1 17 18
M  V30 18 1 18 19
M  V30 19 1 18 20
M  V30 20 1 18 21
M  V30 21 1 6 3
M  V30 22 1 15 9
M  V30 23 1 4 22
M  V30 24 1 4 23
M  V30 25 1 5 24
M  V30 26 1 6 25
M  V30 27 1 6 26
M  V30 28 1 7 27
M  V30 29 1 7 28
M  V30 30 1 12 29
M  V30 31 1 12 30
M  V30 32 1 16 31
M  V30 33 1 16 32
M  V30 34 1 19 33
M  V30 35 1 19 34
M  V30 36 1 19 35
M  V30 37 1 20 36
M  V30 38 1 20 37
M  V30 39 1 20 38
M  V30 40 1 21 39
M  V30 41 1 21 40
M  V30 42 1 21 41
M  V30 END BOND
M  V30 END CTAB
M  END
