
     RDKit          3D

  0  0  0  0  0  0  0  0  0  0999 V3000
M  V30 BEGIN CTAB
M  V30 COUNTS 52 55 0 0 0
M  V30 BEGIN ATOM
M  V30 1 N 6.21475 2.88398 -0.0195625 0
M  V30 2 C 5.6149 2.4865 -1.25903 0
M  V30 3 C 4.1116 2.79581 -1.22102 0
M  V30 4 C 3.94494 1.43329 -0.570645 0
M  V30 5 C 5.2264 1.02184 -1.27701 0
M  V30 6 N 2.77327 0.745112 -0.940878 0
M  V30 7 C 1.90773 0.165337 0.0853909 0
M  V30 8 O 2.39685 0.385939 1.25141 0
M  V30 9 N 0.784778 -0.488448 -0.200689 0
M  V30 10 C -0.400942 -1.17941 -0.49394 0
M  V30 11 C -1.68322 -0.645154 0.0326201 0
M  V30 12 N -1.85221 0.713494 -0.526851 0
M  V30 13 C -1.83047 -0.503716 1.49603 0
M  V30 14 C -3.05278 0.415144 1.71519 0
M  V30 15 C -4.26519 -0.177717 1.07467 0
M  V30 16 C -4.0687 -0.495397 -0.391822 0
M  V30 17 C -2.87577 -1.42397 -0.500686 0
M  V30 18 C -3.11272 -2.70977 0.225198 0
M  V30 19 C -3.40599 -2.40008 1.68649 0
M  V30 20 C -2.14766 -1.77761 2.2373 0
M  V30 21 C -4.57653 -1.47637 1.78908 0
M  V30 22 C 2.38646 0.583182 -2.29641 0
M  V30 23 H 7.23142 2.73008 0.0445834 0
M  V30 24 H 5.67526 2.65781 0.818945 0
M  V30 25 H 6.12099 2.84163 -2.17466 0
M  V30 26 H 3.69933 2.79687 -2.22911 0
M  V30 27 H 3.878 3.66405 -0.572728 0
M  V30 28 H 4.06314 1.45839 0.54452 0
M  V30 29 H 5.01891 0.624171 -2.27766 0
M  V30 30 H 5.88286 0.393001 -0.634109 0
M  V30 31 H 0.565261 -0.739288 1.10883 0
M  V30 32 H -0.464793 -1.2226 -1.63759 0
M  V30 33 H -0.374954 -2.28772 -0.248557 0
M  V30 34 H -1.77954 0.665448 -1.56709 0
M  V30 35 H -1.10554 1.34504 -0.156813 0
M  V30 36 H -1.02597 0.00453877 2.03619 0
M  V30 37 H -3.24486 0.454363 2.80866 0
M  V30 38 H -2.83449 1.4286 1.33271 0
M  V30 39 H -5.0886 0.535505 1.17352 0
M  V30 40 H -3.92425 0.403402 -0.99139 0
M  V30 41 H -4.95032 -1.0461 -0.73658 0
M  V30 42 H -2.63218 -1.64016 -1.57679 0
M  V30 43 H -3.94452 -3.23144 -0.254655 0
M  V30 44 H -2.16895 -3.30511 0.191247 0
M  V30 45 H -3.63036 -3.31948 2.25079 0
M  V30 46 H -1.32677 -2.50665 2.15745 0
M  V30 47 H -2.29961 -1.52652 3.29117 0
M  V30 48 H -4.78614 -1.24924 2.83409 0
M  V30 49 H -5.44015 -1.97195 1.30126 0
M  V30 50 H 2.15961 1.58427 -2.73915 0
M  V30 51 H 1.45387 -0.0210606 -2.40159 0
M  V30 52 H 3.18384 0.128132 -2.94261 0
M  V30 END ATOM
M  V30 BEGIN BOND
M  V30 1 1 1 2
M  V30 2 1 2 3
M  V30 3 1 3 4
M  V30 4 1 4 5
M  V30 5 1 4 6
M  V30 6 1 6 7
M  V30 7 2 7 8
M  V30 8 1 7 9
M  V30 9 1 9 10
M  V30 10 1 10 11
M  V30 11 1 11 12
M  V30 12 1 11 13
M  V30 13 1 13 14
M  V30 14 1 14 15
M  V30 15 1 15 16
M  V30 16 1 16 17
M  V30 17 1 17 18
M  V30 18 1 18 19
M  V30 19 1 19 20
M  V30 20 1 19 21
M  V30 21 1 6 22
M  V30 22 1 5 2
M  V30 23 1 17 11
M  V30 24 1 20 13
M  V30 25 1 21 15
M  V30 26 1 1 23
M  V30 27 1 1 24
M  V30 28 1 2 25
M  V30 29 1 3 26
M  V30 30 1 3 27
M  V30 31 1 4 28
M  V30 32 1 5 29
M  V30 33 1 5 30
M  V30 34 1 9 31
M  V30 35 1 10 32
M  V30 36 1 10 33
M  V30 37 1 12 34
M  V30 38 1 12 35
M  V30 39 1 13 36
M  V30 40 1 14 37
M  V30 41 1 14 38
M  V30 42 1 15 39
M  V30 43 1 16 40
M  V30 44 1 16 41
M  V30 45 1 17 42
M  V30 46 1 18 43
M  V30 47 1 18 44
M  V30 48 1 19 45
M  V30 49 1 20 46
M  V30 50 1 20 47
M  V30 51 1 21 48
M  V30 52 1 21 49
M  V30 53 1 22 50
M  V30 54 1 22 51
M  V30 55 1 22 52
M  V30 END BOND
M  V30 END CTAB
M  END
