
     RDKit          3D

  0  0  0  0  0  0  0  0  0  0999 V3000
M  V30 BEGIN CTAB
M  V30 COUNTS 68 73 0 0 0
M  V30 BEGIN ATOM
M  V30 1 N -7.69909 -1.25356 -2.96115 0
M  V30 2 C -7.4351 -1.01615 -1.58167 0
M  V30 3 N -8.47574 -1.04837 -0.729879 0
M  V30 4 C -8.31843 -0.837691 0.573893 0
M  V30 5 N -9.3894 -0.863376 1.50257 0
M  V30 6 C -7.04206 -0.580132 1.04676 0
M  V30 7 C -5.98384 -0.546726 0.185012 0
M  V30 8 N -6.19899 -0.766595 -1.12288 0
M  V30 9 N -4.87919 -0.276134 0.926149 0
M  V30 10 C -5.23722 -0.145238 2.20747 0
M  V30 11 N -6.56359 -0.334404 2.26234 0
M  V30 12 C -3.56746 -0.161665 0.366487 0 CFG=2
M  V30 13 C -2.51442 -0.727381 1.30693 0
M  V30 14 O -1.36207 -0.912744 0.535532 0
M  V30 15 C -0.843461 0.267609 0.0551131 0
M  V30 16 C -1.73033 1.46153 0.392756 0
M  V30 17 C -3.16049 1.23798 0.0258898 0 CFG=2
M  V30 18 C -3.99622 2.28576 0.726418 0
M  V30 19 O -3.30497 1.48789 -1.35604 0
M  V30 20 C -0.656633 0.278625 -1.44209 0
M  V30 21 C 0.513175 -0.544631 -1.89645 0
M  V30 22 N 1.63724 -0.495046 -1.03155 0
M  V30 23 C 1.45261 -0.604746 0.393058 0
M  V30 24 C 0.477563 0.513056 0.784051 0
M  V30 25 C 2.94298 -0.33887 -1.54748 0
M  V30 26 O 3.11026 -0.24128 -2.81022 0
M  V30 27 C 4.14915 -0.281943 -0.676952 0
M  V30 28 C 5.39161 -0.110625 -1.51921 0
M  V30 29 C 6.60397 -0.0518652 -0.667998 0
M  V30 30 N 7.1202 1.07904 -0.161155 0
M  V30 31 C 8.2223 0.770789 0.565409 0
M  V30 32 C 8.3502 -0.59984 0.475429 0
M  V30 33 N 7.34941 -1.08545 -0.284295 0
M  V30 34 C 9.40057 -1.19425 1.12864 0
M  V30 35 C 10.3186 -0.470116 1.86195 0
M  V30 36 C 10.1574 0.893284 1.92778 0
M  V30 37 C 9.12672 1.54123 1.29528 0
M  V30 38 H -7.82949 -2.19142 -3.36932 0
M  V30 39 H -7.76379 -0.428588 -3.59337 0
M  V30 40 H -10.0567 -0.0794614 1.61739 0
M  V30 41 H -9.51245 -1.70496 2.09557 0
M  V30 42 H -4.59317 0.0753002 3.07651 0
M  V30 43 H -3.49056 -0.765969 -0.572534 0
M  V30 44 H -2.34481 -0.0847465 2.17703 0
M  V30 45 H -2.85439 -1.72627 1.61009 0
M  V30 46 H -1.30135 2.31984 -0.178659 0
M  V30 47 H -1.56678 1.68175 1.45482 0
M  V30 48 H -3.85135 2.29802 1.81084 0
M  V30 49 H -3.62295 3.27675 0.349997 0
M  V30 50 H -5.06697 2.24859 0.416587 0
M  V30 51 H -4.25458 1.59397 -1.60272 0
M  V30 52 H -0.594745 1.34035 -1.78474 0
M  V30 53 H -1.57074 -0.180616 -1.88969 0
M  V30 54 H 0.769637 -0.205114 -2.93121 0
M  V30 55 H 0.201774 -1.61141 -2.01198 0
M  V30 56 H 0.962469 -1.60309 0.570988 0
M  V30 57 H 2.37013 -0.535492 0.975581 0
M  V30 58 H 0.275718 0.51355 1.85896 0
M  V30 59 H 0.877576 1.46058 0.386819 0
M  V30 60 H 4.08319 0.586703 0.00425184 0
M  V30 61 H 4.22683 -1.18411 -0.0294285 0
M  V30 62 H 5.44547 -0.998224 -2.18974 0
M  V30 63 H 5.30127 0.833265 -2.06422 0
M  V30 64 H 7.21913 -2.09855 -0.507221 0
M  V30 65 H 9.4939 -2.26072 1.05433 0
M  V30 66 H 11.1536 -0.945018 2.3809 0
M  V30 67 H 10.9041 1.44001 2.51871 0
M  V30 68 H 9.02475 2.60714 1.3635 0
M  V30 END ATOM
M  V30 BEGIN BOND
M  V30 1 1 1 2
M  V30 2 2 2 3
M  V30 3 1 3 4
M  V30 4 1 4 5
M  V30 5 2 4 6
M  V30 6 1 6 7
M  V30 7 2 7 8
M  V30 8 1 7 9
M  V30 9 1 9 10
M  V30 10 2 10 11
M  V30 11 1 9 12
M  V30 12 1 12 13
M  V30 13 1 13 14
M  V30 14 1 14 15
M  V30 15 1 15 16
M  V30 16 1 16 17
M  V30 17 1 17 18
M  V30 18 1 17 19 CFG=3
M  V30 19 1 15 20
M  V30 20 1 20 21
M  V30 21 1 21 22
M  V30 22 1 22 23
M  V30 23 1 23 24
M  V30 24 1 22 25
M  V30 25 2 25 26
M  V30 26 1 25 27
M  V30 27 1 27 28
M  V30 28 1 28 29
M  V30 29 2 29 30
M  V30 30 1 30 31
M  V30 31 2 31 32
M  V30 32 1 32 33
M  V30 33 1 32 34
M  V30 34 2 34 35
M  V30 35 1 35 36
M  V30 36 2 36 37
M  V30 37 1 8 2
M  V30 38 1 17 12
M  V30 39 1 33 29
M  V30 40 1 11 6
M  V30 41 1 24 15
M  V30 42 1 37 31
M  V30 43 1 1 38
M  V30 44 1 1 39
M  V30 45 1 5 40
M  V30 46 1 5 41
M  V30 47 1 10 42
M  V30 48 1 12 43 CFG=3
M  V30 49 1 13 44
M  V30 50 1 13 45
M  V30 51 1 16 46
M  V30 52 1 16 47
M  V30 53 1 18 48
M  V30 54 1 18 49
M  V30 55 1 18 50
M  V30 56 1 19 51
M  V30 57 1 20 52
M  V30 58 1 20 53
M  V30 59 1 21 54
M  V30 60 1 21 55
M  V30 61 1 23 56
M  V30 62 1 23 57
M  V30 63 1 24 58
M  V30 64 1 24 59
M  V30 65 1 27 60
M  V30 66 1 27 61
M  V30 67 1 28 62
M  V30 68 1 28 63
M  V30 69 1 33 64
M  V30 70 1 34 65
M  V30 71 1 35 66
M  V30 72 1 36 67
M  V30 73 1 37 68
M  V30 END BOND
M  V30 END CTAB
M  END
