
     RDKit          3D

  0  0  0  0  0  0  0  0  0  0999 V3000
M  V30 BEGIN CTAB
M  V30 COUNTS 48 50 0 0 0
M  V30 BEGIN ATOM
M  V30 1 C -5.57216 -2.84088 0.0588529 0
M  V30 2 C -5.15024 -1.41761 0.124701 0
M  V30 3 C -6.07561 -0.411427 0.296504 0
M  V30 4 C -5.68426 0.909375 0.357513 0
M  V30 5 C -4.34754 1.22908 0.245054 0
M  V30 6 C -3.37248 0.253257 0.0704859 0
M  V30 7 C -3.81281 -1.04838 0.0159753 0
M  V30 8 O -2.08324 0.683233 -0.0286935 0
M  V30 9 C -0.917972 -0.0805459 -0.206645 0
M  V30 10 C 0.049579 0.108883 0.914241 0
M  V30 11 C 1.49139 0.0878151 0.537385 0
M  V30 12 N 1.83927 0.589415 -0.733086 0
M  V30 13 C 0.804338 1.24253 -1.44832 0
M  V30 14 C -0.354879 0.275906 -1.56039 0
M  V30 15 C 2.77268 -0.173228 -1.48807 0
M  V30 16 C 4.05465 -0.269465 -0.726499 0
M  V30 17 N 4.94895 0.729177 -0.91239 0
M  V30 18 C 6.12824 0.774446 -0.303515 0
M  V30 19 N 6.99269 1.87318 -0.572786 0
M  V30 20 N 6.44865 -0.215591 0.535087 0
M  V30 21 C 5.5571 -1.22842 0.732049 0
M  V30 22 N 4.36758 -1.2544 0.104656 0
M  V30 23 N 5.97056 -2.24455 1.6386 0
M  V30 24 C -3.96701 2.64401 0.314371 0
M  V30 25 H -4.92481 -3.49809 0.66559 0
M  V30 26 H -5.59379 -3.11982 -1.00703 0
M  V30 27 H -6.61765 -2.90088 0.447276 0
M  V30 28 H -7.1324 -0.692532 0.383233 0
M  V30 29 H -6.45248 1.6862 0.495621 0
M  V30 30 H -3.09172 -1.83382 -0.117994 0
M  V30 31 H -1.22254 -1.14289 -0.257012 0
M  V30 32 H -0.152465 -0.64686 1.70477 0
M  V30 33 H -0.164574 1.09396 1.38333 0
M  V30 34 H 1.84287 -0.98649 0.591572 0
M  V30 35 H 2.11149 0.615908 1.30403 0
M  V30 36 H 1.10976 1.50851 -2.45937 0
M  V30 37 H 0.48148 2.15068 -0.900317 0
M  V30 38 H -1.08795 0.71621 -2.24527 0
M  V30 39 H 0.0453014 -0.637613 -2.04688 0
M  V30 40 H 2.37883 -1.21634 -1.65558 0
M  V30 41 H 3.01905 0.261979 -2.47364 0
M  V30 42 H 7.94946 1.72029 -0.909367 0
M  V30 43 H 6.64826 2.85867 -0.425419 0
M  V30 44 H 6.06056 -1.98789 2.64062 0
M  V30 45 H 6.18529 -3.22224 1.35161 0
M  V30 46 H -3.01177 2.84007 -0.250966 0
M  V30 47 H -3.74951 2.88351 1.38572 0
M  V30 48 H -4.7182 3.33365 -0.123246 0
M  V30 END ATOM
M  V30 BEGIN BOND
M  V30 1 1 1 2
M  V30 2 2 2 3
M  V30 3 1 3 4
M  V30 4 2 4 5
M  V30 5 1 5 6
M  V30 6 2 6 7
M  V30 7 1 6 8
M  V30 8 1 8 9
M  V30 9 1 9 10
M  V30 10 1 10 11
M  V30 11 1 11 12
M  V30 12 1 12 13
M  V30 13 1 13 14
M  V30 14 1 12 15
M  V30 15 1 15 16
M  V30 16 2 16 17
M  V30 17 1 17 18
M  V30 18 1 18 19
M  V30 19 2 18 20
M  V30 20 1 20 21
M  V30 21 2 21 22
M  V30 22 1 21 23
M  V30 23 1 5 24
M  V30 24 1 7 2
M  V30 25 1 14 9
M  V30 26 1 22 16
M  V30 27 1 1 25
M  V30 28 1 1 26
M  V30 29 1 1 27
M  V30 30 1 3 28
M  V30 31 1 4 29
M  V30 32 1 7 30
M  V30 33 1 9 31
M  V30 34 1 10 32
M  V30 35 1 10 33
M  V30 36 1 11 34
M  V30 37 1 11 35
M  V30 38 1 13 36
M  V30 39 1 13 37
M  V30 40 1 14 38
M  V30 41 1 14 39
M  V30 42 1 15 40
M  V30 43 1 15 41
M  V30 44 1 19 42
M  V30 45 1 19 43
M  V30 46 1 23 44
M  V30 47 1 23 45
M  V30 48 1 24 46
M  V30 49 1 24 47
M  V30 50 1 24 48
M  V30 END BOND
M  V30 END CTAB
M  END
