
     RDKit          3D

  0  0  0  0  0  0  0  0  0  0999 V3000
M  V30 BEGIN CTAB
M  V30 COUNTS 48 49 0 0 0
M  V30 BEGIN ATOM
M  V30 1 N 7.3386 -0.0218628 -2.46692 0
M  V30 2 C 6.42916 -0.947481 -1.92088 0
M  V30 3 N 6.5147 -2.18665 -2.21651 0
M  V30 4 C 5.39388 -0.489939 -1.02091 0
M  V30 5 C 4.50019 -1.37255 -0.479327 0
M  V30 6 C 3.49571 -0.951709 0.389607 0
M  V30 7 C 3.36413 0.369572 0.735951 0
M  V30 8 N 2.35746 0.81664 1.59204 0
M  V30 9 C 1.24443 -0.0289679 1.93754 0
M  V30 10 C 0.318241 -0.301154 0.784206 0
M  V30 11 C -0.292173 0.97651 0.221748 0
M  V30 12 C -1.08133 1.68621 1.27523 0
M  V30 13 N -2.152 0.839988 1.75384 0
M  V30 14 C -3.27436 0.448512 0.984944 0
M  V30 15 C -4.10112 -0.557768 1.49256 0
M  V30 16 C -5.19629 -0.950371 0.789466 0
M  V30 17 C -5.54915 -0.392815 -0.437634 0
M  V30 18 C -4.74306 0.600407 -0.949757 0
M  V30 19 C -3.61545 1.00329 -0.223419 0
M  V30 20 C -6.73641 -0.877188 -1.11441 0
M  V30 21 N -7.5119 -1.90211 -0.520363 0
M  V30 22 N -7.09407 -0.401199 -2.22771 0
M  V30 23 C 4.26072 1.26998 0.195698 0
M  V30 24 C 5.25094 0.844151 -0.662596 0
M  V30 25 H 7.98151 0.521584 -1.85433 0
M  V30 26 H 7.3916 0.142568 -3.49363 0
M  V30 27 H 7.21704 -2.60856 -2.84757 0
M  V30 28 H 4.58961 -2.43149 -0.744789 0
M  V30 29 H 2.83753 -1.71965 0.781838 0
M  V30 30 H 2.4189 1.78869 1.98876 0
M  V30 31 H 0.702026 0.408176 2.80277 0
M  V30 32 H 1.57873 -1.0332 2.29924 0
M  V30 33 H 0.848383 -0.808234 -0.02923 0
M  V30 34 H -0.488671 -0.95767 1.16002 0
M  V30 35 H -0.959846 0.652071 -0.588819 0
M  V30 36 H 0.499582 1.58536 -0.226894 0
M  V30 37 H -0.382282 1.96901 2.08456 0
M  V30 38 H -1.57584 2.61122 0.847681 0
M  V30 39 H -2.06436 0.508195 2.74522 0
M  V30 40 H -3.83277 -0.999113 2.45096 0
M  V30 41 H -5.81925 -1.72803 1.20035 0
M  V30 42 H -4.97163 1.06928 -1.90214 0
M  V30 43 H -3.01055 1.77841 -0.630079 0
M  V30 44 H -7.68153 -2.7903 -1.0008 0
M  V30 45 H -7.9059 -1.72439 0.423496 0
M  V30 46 H -6.62346 0.331782 -2.75052 0
M  V30 47 H 4.17176 2.33697 0.462318 0
M  V30 48 H 5.9586 1.54516 -1.09079 0
M  V30 END ATOM
M  V30 BEGIN BOND
M  V30 1 1 1 2
M  V30 2 2 2 3 CFG=2
M  V30 3 1 2 4
M  V30 4 2 4 5
M  V30 5 1 5 6
M  V30 6 2 6 7
M  V30 7 1 7 8
M  V30 8 1 8 9
M  V30 9 1 9 10
M  V30 10 1 10 11
M  V30 11 1 11 12
M  V30 12 1 12 13
M  V30 13 1 13 14
M  V30 14 2 14 15
M  V30 15 1 15 16
M  V30 16 2 16 17
M  V30 17 1 17 18
M  V30 18 2 18 19
M  V30 19 1 17 20
M  V30 20 1 20 21
M  V30 21 2 20 22 CFG=2
M  V30 22 1 7 23
M  V30 23 2 23 24
M  V30 24 1 24 4
M  V30 25 1 19 14
M  V30 26 1 1 25
M  V30 27 1 1 26
M  V30 28 1 3 27
M  V30 29 1 5 28
M  V30 30 1 6 29
M  V30 31 1 8 30
M  V30 32 1 9 31
M  V30 33 1 9 32
M  V30 34 1 10 33
M  V30 35 1 10 34
M  V30 36 1 11 35
M  V30 37 1 11 36
M  V30 38 1 12 37
M  V30 39 1 12 38
M  V30 40 1 13 39
M  V30 41 1 15 40
M  V30 42 1 16 41
M  V30 43 1 18 42
M  V30 44 1 19 43
M  V30 45 1 21 44
M  V30 46 1 21 45
M  V30 47 1 22 46
M  V30 48 1 23 47
M  V30 49 1 24 48
M  V30 END BOND
M  V30 END CTAB
M  END
