
     RDKit          3D

  0  0  0  0  0  0  0  0  0  0999 V3000
M  V30 BEGIN CTAB
M  V30 COUNTS 46 49 0 0 0
M  V30 BEGIN ATOM
M  V30 1 N 4.43851 -2.4375 2.09674 0
M  V30 2 C 4.52978 -1.13528 1.52458 0
M  V30 3 N 3.46595 -0.309441 1.39248 0
M  V30 4 C 3.56303 0.907118 0.859299 0
M  V30 5 C 2.40492 1.81235 0.715787 0
M  V30 6 S 1.53864 1.60396 -0.848743 0
M  V30 7 C 0.705726 0.0357095 -0.923708 0
M  V30 8 N 1.21869 -1.12029 -1.35572 0
M  V30 9 N 0.262004 -1.98711 -1.26048 0
M  V30 10 C -0.891104 -1.41839 -0.767989 0
M  V30 11 N -0.607114 -0.141747 -0.55557 0
M  V30 12 C -1.42629 0.882567 -0.0316575 0
M  V30 13 C -1.70588 0.967094 1.33648 0
M  V30 14 C -2.46615 2.02909 1.78307 0
M  V30 15 C -2.96846 3.01617 0.960459 0
M  V30 16 C -2.69351 2.93409 -0.399463 0
M  V30 17 C -1.93852 1.88513 -0.86601 0
M  V30 18 C -3.20425 3.97397 -1.32412 0
M  V30 19 F -3.98189 3.47312 -2.3354 0
M  V30 20 F -3.94543 4.93408 -0.655129 0
M  V30 21 F -2.153 4.66692 -1.93021 0
M  V30 22 C -2.09303 -2.2089 -0.556777 0
M  V30 23 C -3.35577 -1.73557 -0.363018 0
M  V30 24 C -4.46871 -2.55603 -0.131233 0
M  V30 25 C -4.3087 -3.9092 -0.0935454 0
M  V30 26 C -3.05193 -4.43109 -0.284252 0
M  V30 27 C -1.97052 -3.60621 -0.509831 0
M  V30 28 Cl -0.385239 -4.33379 -0.732032 0
M  V30 29 N 4.78067 1.3245 0.436244 0
M  V30 30 C 5.86484 0.500116 0.564256 0
M  V30 31 N 5.72818 -0.713182 1.103 0
M  V30 32 N 7.12427 0.970523 0.111017 0
M  V30 33 H 4.08815 -3.22609 1.49687 0
M  V30 34 H 4.71473 -2.59972 3.08688 0
M  V30 35 H 2.71565 2.8896 0.782084 0
M  V30 36 H 1.69878 1.65934 1.57238 0
M  V30 37 H -1.31986 0.203641 1.99826 0
M  V30 38 H -2.6743 2.08538 2.85621 0
M  V30 39 H -3.56504 3.85227 1.32579 0
M  V30 40 H -1.74226 1.849 -1.93058 0
M  V30 41 H -3.54173 -0.676764 -0.40278 0
M  V30 42 H -5.44024 -2.10441 0.0106686 0
M  V30 43 H -5.16121 -4.57938 0.0856973 0
M  V30 44 H -2.9124 -5.50609 -0.257192 0
M  V30 45 H 7.19626 1.18336 -0.907915 0
M  V30 46 H 7.93376 1.0971 0.76809 0
M  V30 END ATOM
M  V30 BEGIN BOND
M  V30 1 1 1 2
M  V30 2 2 2 3
M  V30 3 1 3 4
M  V30 4 1 4 5
M  V30 5 1 5 6
M  V30 6 1 6 7
M  V30 7 2 7 8
M  V30 8 1 8 9
M  V30 9 2 9 10
M  V30 10 1 10 11
M  V30 11 1 11 12
M  V30 12 2 12 13
M  V30 13 1 13 14
M  V30 14 2 14 15
M  V30 15 1 15 16
M  V30 16 2 16 17
M  V30 17 1 16 18
M  V30 18 1 18 19
M  V30 19 1 18 20
M  V30 20 1 18 21
M  V30 21 1 10 22
M  V30 22 2 22 23
M  V30 23 1 23 24
M  V30 24 2 24 25
M  V30 25 1 25 26
M  V30 26 2 26 27
M  V30 27 1 27 28
M  V30 28 2 4 29
M  V30 29 1 29 30
M  V30 30 2 30 31
M  V30 31 1 30 32
M  V30 32 1 31 2
M  V30 33 1 11 7
M  V30 34 1 17 12
M  V30 35 1 27 22
M  V30 36 1 1 33
M  V30 37 1 1 34
M  V30 38 1 5 35
M  V30 39 1 5 36
M  V30 40 1 13 37
M  V30 41 1 14 38
M  V30 42 1 15 39
M  V30 43 1 17 40
M  V30 44 1 23 41
M  V30 45 1 24 42
M  V30 46 1 25 43
M  V30 47 1 26 44
M  V30 48 1 32 45
M  V30 49 1 32 46
M  V30 END BOND
M  V30 END CTAB
M  END
