
     RDKit          3D

  0  0  0  0  0  0  0  0  0  0999 V3000
M  V30 BEGIN CTAB
M  V30 COUNTS 22 23 0 0 0
M  V30 BEGIN ATOM
M  V30 1 N -3.19465 -0.546311 -2.13666 0
M  V30 2 C -2.89698 0.00948813 -0.86332 0
M  V30 3 N -3.56574 0.8624 -0.169708 0
M  V30 4 N -2.9534 1.16031 1.01984 0
M  V30 5 C -1.83747 0.497748 1.1489 0
M  V30 6 N -0.923605 0.523857 2.21642 0
M  V30 7 C -1.72046 -0.298766 -0.0671873 0
M  V30 8 N -0.760575 -1.1107 -0.365494 0
M  V30 9 N 0.324948 -1.33997 0.462337 0
M  V30 10 C 1.49195 -0.556582 0.316358 0
M  V30 11 N 2.58701 -0.732866 1.096 0
M  V30 12 C 3.7061 -0.00055103 0.975039 0
M  V30 13 C 3.74222 0.980649 0.00807943 0
M  V30 14 N 2.66916 1.16008 -0.762624 0
M  V30 15 N 1.59713 0.424934 -0.612928 0
M  V30 16 H -3.27861 -1.58758 -2.18901 0
M  V30 17 H -3.32217 0.0597171 -2.97497 0
M  V30 18 H -0.598382 -0.339357 2.68213 0
M  V30 19 H -0.56532 1.43735 2.54613 0
M  V30 20 H 0.266619 -2.08137 1.17604 0
M  V30 21 H 4.5896 -0.123249 1.58441 0
M  V30 22 H 4.64262 1.60077 -0.120322 0
M  V30 END ATOM
M  V30 BEGIN BOND
M  V30 1 1 1 2
M  V30 2 2 2 3
M  V30 3 1 3 4
M  V30 4 2 4 5
M  V30 5 1 5 6
M  V30 6 1 5 7
M  V30 7 2 7 8 CFG=2
M  V30 8 1 8 9
M  V30 9 1 9 10
M  V30 10 2 10 11
M  V30 11 1 11 12
M  V30 12 2 12 13
M  V30 13 1 13 14
M  V30 14 2 14 15
M  V30 15 1 7 2
M  V30 16 1 15 10
M  V30 17 1 1 16
M  V30 18 1 1 17
M  V30 19 1 6 18
M  V30 20 1 6 19
M  V30 21 1 9 20
M  V30 22 1 12 21
M  V30 23 1 13 22
M  V30 END BOND
M  V30 END CTAB
M  END
