
     RDKit          3D

  0  0  0  0  0  0  0  0  0  0999 V3000
M  V30 BEGIN CTAB
M  V30 COUNTS 27 29 0 0 0
M  V30 BEGIN ATOM
M  V30 1 N -3.55221 -1.8713 -0.840898 0
M  V30 2 C -2.61726 -0.897313 -0.356072 0
M  V30 3 N -1.30726 -1.18546 -0.342165 0
M  V30 4 C -0.415193 -0.27283 0.132966 0
M  V30 5 N -0.913734 0.885633 0.566651 0
M  V30 6 C -2.21078 1.20392 0.56524 0
M  V30 7 N -3.09057 0.283887 0.0882082 0
M  V30 8 N -2.66947 2.47148 1.06674 0
M  V30 9 C 1.05251 -0.613037 0.179762 0
M  V30 10 C 1.37606 -2.03898 0.264418 0
M  V30 11 C 1.56183 -1.37057 -1.04365 0
M  V30 12 C 1.916 0.491193 0.685201 0
M  V30 13 C 1.99604 1.67947 -0.280442 0
M  V30 14 C 3.2211 0.882787 0.171365 0
M  V30 15 H -3.25051 -2.75056 -1.30545 0
M  V30 16 H -4.57209 -1.70786 -0.722953 0
M  V30 17 H -3.58261 2.87232 0.784118 0
M  V30 18 H -2.08466 2.99092 1.73127 0
M  V30 19 H 0.510037 -2.7667 0.343426 0
M  V30 20 H 2.28851 -2.43055 0.772222 0
M  V30 21 H 0.85108 -1.57738 -1.86731 0
M  V30 22 H 2.59421 -1.14032 -1.38789 0
M  V30 23 H 1.61827 0.831922 1.71799 0
M  V30 24 H 1.83221 2.69231 0.0804842 0
M  V30 25 H 1.76895 1.50182 -1.35676 0
M  V30 26 H 3.8211 0.347651 -0.549158 0
M  V30 27 H 3.85847 1.48754 0.902686 0
M  V30 END ATOM
M  V30 BEGIN BOND
M  V30 1 1 1 2
M  V30 2 2 2 3
M  V30 3 1 3 4
M  V30 4 2 4 5
M  V30 5 1 5 6
M  V30 6 2 6 7
M  V30 7 1 6 8
M  V30 8 1 4 9
M  V30 9 1 9 10
M  V30 10 1 10 11
M  V30 11 1 9 12
M  V30 12 1 12 13
M  V30 13 1 13 14
M  V30 14 1 7 2
M  V30 15 1 11 9
M  V30 16 1 14 12
M  V30 17 1 1 15
M  V30 18 1 1 16
M  V30 19 1 8 17
M  V30 20 1 8 18
M  V30 21 1 10 19
M  V30 22 1 10 20
M  V30 23 1 11 21
M  V30 24 1 11 22
M  V30 25 1 12 23
M  V30 26 1 13 24
M  V30 27 1 13 25
M  V30 28 1 14 26
M  V30 29 1 14 27
M  V30 END BOND
M  V30 END CTAB
M  END
