
     RDKit          3D

  0  0  0  0  0  0  0  0  0  0999 V3000
M  V30 BEGIN CTAB
M  V30 COUNTS 17 17 0 0 0
M  V30 BEGIN ATOM
M  V30 1 C -2.88345 -0.34022 0.0446447 0
M  V30 2 C -1.4082 -0.530824 -0.0966632 0
M  V30 3 N -0.86193 -1.71215 -0.430067 0
M  V30 4 N 0.454354 -1.75877 -0.524907 0
M  V30 5 C 1.26049 -0.708902 -0.310095 0
M  V30 6 N 2.6872 -0.811111 -0.425982 0
M  V30 7 N 0.705239 0.462076 0.0212516 0
M  V30 8 N 1.49299 1.58459 0.255592 0
M  V30 9 C -0.61403 0.569028 0.131554 0
M  V30 10 O -1.13397 1.69149 0.448408 0
M  V30 11 H -3.14864 0.496408 -0.64407 0
M  V30 12 H -3.08106 0.0343765 1.08145 0
M  V30 13 H -3.44347 -1.27026 -0.18225 0
M  V30 14 H 3.06792 -1.355 -1.22719 0
M  V30 15 H 3.33167 -0.372461 0.244545 0
M  V30 16 H 2.20054 1.5937 1.00722 0
M  V30 17 H 1.37435 2.42804 -0.328136 0
M  V30 END ATOM
M  V30 BEGIN BOND
M  V30 1 1 1 2
M  V30 2 2 2 3
M  V30 3 1 3 4
M  V30 4 2 4 5
M  V30 5 1 5 6
M  V30 6 1 5 7
M  V30 7 1 7 8
M  V30 8 1 7 9
M  V30 9 2 9 10
M  V30 10 1 9 2
M  V30 11 1 1 11
M  V30 12 1 1 12
M  V30 13 1 1 13
M  V30 14 1 6 14
M  V30 15 1 6 15
M  V30 16 1 8 16
M  V30 17 1 8 17
M  V30 END BOND
M  V30 END CTAB
M  END
