
     RDKit          3D

  0  0  0  0  0  0  0  0  0  0999 V3000
M  V30 BEGIN CTAB
M  V30 COUNTS 20 20 0 0 0
M  V30 BEGIN ATOM
M  V30 1 C 3.98762 0.236151 0.10577 0
M  V30 2 S 2.93412 -1.18694 0.436844 0
M  V30 3 C 1.2168 -0.763897 0.2554 0
M  V30 4 N 0.222976 -1.65306 0.448537 0
M  V30 5 C -1.06163 -1.3442 0.314835 0
M  V30 6 N -2.14396 -2.2458 0.507621 0
M  V30 7 C -1.35695 -0.0301782 -0.0426936 0
M  V30 8 C -0.36611 0.905283 -0.248128 0
M  V30 9 N 0.907083 0.50811 -0.091666 0
M  V30 10 N -0.722033 2.23103 -0.61119 0
M  V30 11 N -2.71015 0.34238 -0.195969 0 CHG=1
M  V30 12 O -3.66752 -0.437931 -0.02981 0
M  V30 13 O -3.04815 1.63737 -0.550376 0 CHG=-1
M  V30 14 H 4.83522 -0.133447 -0.539117 0
M  V30 15 H 4.40338 0.690304 1.03956 0
M  V30 16 H 3.38296 0.984748 -0.446109 0
M  V30 17 H -2.68073 -2.68506 -0.272695 0
M  V30 18 H -2.42384 -2.4872 1.47499 0
M  V30 19 H -0.840443 2.43064 -1.63056 0
M  V30 20 H -0.868654 3.0017 0.0747514 0
M  V30 END ATOM
M  V30 BEGIN BOND
M  V30 1 1 1 2
M  V30 2 1 2 3
M  V30 3 2 3 4
M  V30 4 1 4 5
M  V30 5 1 5 6
M  V30 6 2 5 7
M  V30 7 1 7 8
M  V30 8 2 8 9
M  V30 9 1 8 10
M  V30 10 1 7 11
M  V30 11 2 11 12
M  V30 12 1 11 13
M  V30 13 1 9 3
M  V30 14 1 1 14
M  V30 15 1 1 15
M  V30 16 1 1 16
M  V30 17 1 6 17
M  V30 18 1 6 18
M  V30 19 1 10 19
M  V30 20 1 10 20
M  V30 END BOND
M  V30 END CTAB
M  END
