
     RDKit          3D

  0  0  0  0  0  0  0  0  0  0999 V3000
M  V30 BEGIN CTAB
M  V30 COUNTS 33 35 0 0 0
M  V30 BEGIN ATOM
M  V30 1 N -5.96512 0.968276 -0.608419 0
M  V30 2 C -4.84024 0.676181 -0.478998 0
M  V30 3 C -3.45314 0.325141 -0.297517 0
M  V30 4 C -2.44595 1.27939 -0.469834 0
M  V30 5 N -2.89458 2.58649 -0.827653 0
M  V30 6 N -1.1483 0.965194 -0.305049 0
M  V30 7 C -0.794583 -0.306552 0.0370862 0
M  V30 8 C -1.77326 -1.24696 0.207919 0
M  V30 9 C -3.12139 -0.968179 0.0485298 0
M  V30 10 N -4.12093 -1.97737 0.234567 0
M  V30 11 C -1.14906 -2.52079 0.568035 0
M  V30 12 C 0.292048 -2.22573 0.59214 0
M  V30 13 O 1.18653 -3.06931 0.865499 0
M  V30 14 N 0.489535 -0.865821 0.26335 0
M  V30 15 C 1.75491 -0.168066 0.170801 0
M  V30 16 C 2.7452 -0.621122 -0.674313 0
M  V30 17 C 3.96302 0.0160331 -0.79388 0
M  V30 18 C 4.23451 1.15026 -0.056779 0
M  V30 19 C 3.24837 1.60991 0.791133 0
M  V30 20 C 2.02553 0.964079 0.906681 0
M  V30 21 N 5.48743 1.83469 -0.160666 0 CHG=1
M  V30 22 O 6.34079 1.3629 -0.951776 0
M  V30 23 O 5.75902 2.95823 0.564609 0 CHG=-1
M  V30 24 H -3.24323 3.19823 -0.0540657 0
M  V30 25 H -2.87408 2.91143 -1.81569 0
M  V30 26 H -4.37904 -2.25007 1.20669 0
M  V30 27 H -4.57148 -2.41968 -0.59543 0
M  V30 28 H -1.52138 -2.94076 1.52461 0
M  V30 29 H -1.31487 -3.22676 -0.277442 0
M  V30 30 H 2.57808 -1.50502 -1.27058 0
M  V30 31 H 4.75097 -0.340384 -1.46284 0
M  V30 32 H 3.47232 2.50904 1.37145 0
M  V30 33 H 1.28237 1.3371 1.56594 0
M  V30 END ATOM
M  V30 BEGIN BOND
M  V30 1 3 1 2
M  V30 2 1 2 3
M  V30 3 2 3 4
M  V30 4 1 4 5
M  V30 5 1 4 6
M  V30 6 2 6 7
M  V30 7 1 7 8
M  V30 8 2 8 9
M  V30 9 1 9 10
M  V30 10 1 8 11
M  V30 11 1 11 12
M  V30 12 2 12 13
M  V30 13 1 12 14
M  V30 14 1 14 15
M  V30 15 2 15 16
M  V30 16 1 16 17
M  V30 17 2 17 18
M  V30 18 1 18 19
M  V30 19 2 19 20
M  V30 20 1 18 21
M  V30 21 2 21 22
M  V30 22 1 21 23
M  V30 23 1 9 3
M  V30 24 1 20 15
M  V30 25 1 14 7
M  V30 26 1 5 24
M  V30 27 1 5 25
M  V30 28 1 10 26
M  V30 29 1 10 27
M  V30 30 1 11 28
M  V30 31 1 11 29
M  V30 32 1 16 30
M  V30 33 1 17 31
M  V30 34 1 19 32
M  V30 35 1 20 33
M  V30 END BOND
M  V30 END CTAB
M  END
