
     RDKit          3D

  0  0  0  0  0  0  0  0  0  0999 V3000
M  V30 BEGIN CTAB
M  V30 COUNTS 35 36 0 0 0
M  V30 BEGIN ATOM
M  V30 1 N -0.387983 0.743551 0.609026 0
M  V30 2 C -0.357623 -0.561316 0.055641 0
M  V30 3 S 1.08143 -1.51004 -0.2691 0
M  V30 4 C 2.62474 -0.770848 0.0943263 0
M  V30 5 C 3.77309 -1.54076 -0.154382 0
M  V30 6 C 5.03835 -1.08051 0.0837282 0
M  V30 7 C 5.25318 0.184245 0.588617 0
M  V30 8 N 6.55985 0.65844 0.833997 0
M  V30 9 C 4.14723 0.956284 0.840114 0
M  V30 10 C 2.85018 0.485111 0.596178 0
M  V30 11 C -1.5967 -1.05834 -0.227949 0
M  V30 12 C -1.60835 -2.36165 -0.784198 0
M  V30 13 N -1.59552 -3.46222 -1.22016 0
M  V30 14 C -2.74767 -0.262716 0.131446 0
M  V30 15 C -3.68981 0.190095 -0.740603 0
M  V30 16 C -4.78325 0.96858 -0.293268 0
M  V30 17 C -4.88354 1.26352 1.04021 0
M  V30 18 C -3.94559 0.819993 1.95405 0
M  V30 19 C -2.89788 0.0703112 1.50343 0
M  V30 20 C -3.60073 -0.133189 -2.18753 0
M  V30 21 F -2.42326 0.182356 -2.77419 0
M  V30 22 F -4.00142 -1.40168 -2.43765 0
M  V30 23 F -4.58282 0.65956 -2.86785 0
M  V30 24 H -0.233682 1.00522 1.58658 0
M  V30 25 H -0.591805 1.52429 -0.0625585 0
M  V30 26 H 3.64735 -2.53675 -0.550072 0
M  V30 27 H 5.92872 -1.69036 -0.114259 0
M  V30 28 H 6.80749 1.66234 0.618903 0
M  V30 29 H 7.29681 0.0105775 1.23434 0
M  V30 30 H 4.29597 1.95421 1.23759 0
M  V30 31 H 2.01814 1.11009 0.800969 0
M  V30 32 H -5.49131 1.29853 -1.0093 0
M  V30 33 H -5.71916 1.86102 1.39597 0
M  V30 34 H -4.05324 1.07114 3.00794 0
M  V30 35 H -2.1312 -0.309082 2.18981 0
M  V30 END ATOM
M  V30 BEGIN BOND
M  V30 1 1 1 2
M  V30 2 1 2 3
M  V30 3 1 3 4
M  V30 4 2 4 5
M  V30 5 1 5 6
M  V30 6 2 6 7
M  V30 7 1 7 8
M  V30 8 1 7 9
M  V30 9 2 9 10
M  V30 10 2 2 11
M  V30 11 1 11 12
M  V30 12 3 12 13
M  V30 13 1 11 14
M  V30 14 2 14 15
M  V30 15 1 15 16
M  V30 16 2 16 17
M  V30 17 1 17 18
M  V30 18 2 18 19
M  V30 19 1 15 20
M  V30 20 1 20 21
M  V30 21 1 20 22
M  V30 22 1 20 23
M  V30 23 1 10 4
M  V30 24 1 19 14
M  V30 25 1 1 24
M  V30 26 1 1 25
M  V30 27 1 5 26
M  V30 28 1 6 27
M  V30 29 1 8 28
M  V30 30 1 8 29
M  V30 31 1 9 30
M  V30 32 1 10 31
M  V30 33 1 16 32
M  V30 34 1 17 33
M  V30 35 1 18 34
M  V30 36 1 19 35
M  V30 END BOND
M  V30 END CTAB
M  END
