
     RDKit          3D

  0  0  0  0  0  0  0  0  0  0999 V3000
M  V30 BEGIN CTAB
M  V30 COUNTS 19 18 0 0 0
M  V30 BEGIN ATOM
M  V30 1 C -1.03968 0.224137 0.426946 0 CFG=1
M  V30 2 N -0.842346 -0.416055 1.70287 0
M  V30 3 C -0.0147595 -0.165118 -0.594847 0
M  V30 4 C 1.34396 0.22694 -0.0795232 0
M  V30 5 O 2.27787 -0.150257 -1.05686 0
M  V30 6 N 3.53356 0.17854 -0.649626 0
M  V30 7 C -2.42383 -0.00698308 -0.0650643 0
M  V30 8 O -2.76803 0.54798 -1.28463 0
M  V30 9 O -3.22717 -0.690108 0.632899 0
M  V30 10 H -0.946524 1.31377 0.591456 0
M  V30 11 H -0.985692 -1.45406 1.63385 0
M  V30 12 H -1.58951 -0.0408739 2.34349 0
M  V30 13 H -0.20857 0.455266 -1.50226 0
M  V30 14 H -0.0763502 -1.21603 -0.919565 0
M  V30 15 H 1.56985 -0.241548 0.903725 0
M  V30 16 H 1.32586 1.33628 0.0604418 0
M  V30 17 H 3.5443 0.59181 0.304217 0
M  V30 18 H 4.08385 -0.712327 -0.648548 0
M  V30 19 H -3.55677 0.21864 -1.79896 0
M  V30 END ATOM
M  V30 BEGIN BOND
M  V30 1 1 1 2
M  V30 2 1 1 3
M  V30 3 1 3 4
M  V30 4 1 4 5
M  V30 5 1 5 6
M  V30 6 1 1 7
M  V30 7 1 7 8
M  V30 8 2 7 9
M  V30 9 1 1 10 CFG=1
M  V30 10 1 2 11
M  V30 11 1 2 12
M  V30 12 1 3 13
M  V30 13 1 3 14
M  V30 14 1 4 15
M  V30 15 1 4 16
M  V30 16 1 6 17
M  V30 17 1 6 18
M  V30 18 1 8 19
M  V30 END BOND
M  V30 END CTAB
M  END
