
     RDKit          3D

  0  0  0  0  0  0  0  0  0  0999 V3000
M  V30 BEGIN CTAB
M  V30 COUNTS 47 49 0 0 0
M  V30 BEGIN ATOM
M  V30 1 C -0.123522 4.37112 1.23485 0
M  V30 2 O -0.994051 3.45197 0.606314 0
M  V30 3 C -0.795142 2.0942 0.608107 0
M  V30 4 C -1.71327 1.27554 -0.0410505 0
M  V30 5 N -2.78843 1.81078 -0.672707 0
M  V30 6 C -3.7048 1.0742 -1.31935 0
M  V30 7 C -4.88189 1.72146 -2.00544 0
M  V30 8 C -3.53222 -0.288001 -1.3334 0
M  V30 9 C -2.4542 -0.901785 -0.706692 0
M  V30 10 N -2.33486 -2.31851 -0.735712 0
M  V30 11 C -2.4628 -3.17891 0.422457 0
M  V30 12 C -2.06553 -3.00053 -1.996 0
M  V30 13 C -1.54354 -0.0956169 -0.058226 0
M  V30 14 C -0.421723 -0.620181 0.596784 0
M  V30 15 C 0.49943 0.171055 1.2449 0
M  V30 16 C 1.68695 -0.397679 1.9212 0
M  V30 17 C 2.95265 -0.249118 1.2226 0
M  V30 18 C 3.35614 -1.00515 0.159363 0
M  V30 19 N 2.49368 -2.03377 -0.309916 0
M  V30 20 N 4.56488 -0.790198 -0.443675 0
M  V30 21 C 5.41274 0.1648 -0.0288971 0
M  V30 22 N 6.67572 0.379327 -0.66889 0
M  V30 23 N 5.0289 0.919605 1.02008 0
M  V30 24 C 3.8518 0.742875 1.64116 0
M  V30 25 C 0.298128 1.54987 1.24368 0
M  V30 26 H 0.783346 4.53463 0.607617 0
M  V30 27 H -0.608182 5.34501 1.3966 0
M  V30 28 H 0.193526 3.98757 2.21933 0
M  V30 29 H -5.78575 1.13967 -1.67911 0
M  V30 30 H -4.78678 1.54696 -3.08566 0
M  V30 31 H -4.9988 2.7602 -1.70244 0
M  V30 32 H -4.24747 -0.923063 -1.84343 0
M  V30 33 H -3.4512 -3.68154 0.426037 0
M  V30 34 H -1.69615 -3.9757 0.45186 0
M  V30 35 H -2.39352 -2.62278 1.37524 0
M  V30 36 H -2.97779 -3.59314 -2.22104 0
M  V30 37 H -1.15208 -3.63312 -1.93241 0
M  V30 38 H -1.89275 -2.23825 -2.77172 0
M  V30 39 H -0.336011 -1.69477 0.557667 0
M  V30 40 H 1.42356 -1.47666 2.1297 0
M  V30 41 H 1.70903 0.0511601 2.95876 0
M  V30 42 H 2.11184 -2.71438 0.392631 0
M  V30 43 H 2.23104 -2.13363 -1.3155 0
M  V30 44 H 6.95037 1.36257 -0.854022 0
M  V30 45 H 7.33044 -0.371057 -0.958427 0
M  V30 46 H 3.54415 1.34919 2.48295 0
M  V30 47 H 1.04414 2.13377 1.7638 0
M  V30 END ATOM
M  V30 BEGIN BOND
M  V30 1 1 1 2
M  V30 2 1 2 3
M  V30 3 2 3 4
M  V30 4 1 4 5
M  V30 5 2 5 6
M  V30 6 1 6 7
M  V30 7 1 6 8
M  V30 8 2 8 9
M  V30 9 1 9 10
M  V30 10 1 10 11
M  V30 11 1 10 12
M  V30 12 1 9 13
M  V30 13 2 13 14
M  V30 14 1 14 15
M  V30 15 1 15 16
M  V30 16 1 16 17
M  V30 17 2 17 18
M  V30 18 1 18 19
M  V30 19 1 18 20
M  V30 20 2 20 21
M  V30 21 1 21 22
M  V30 22 1 21 23
M  V30 23 2 23 24
M  V30 24 2 15 25
M  V30 25 1 25 3
M  V30 26 1 13 4
M  V30 27 1 24 17
M  V30 28 1 1 26
M  V30 29 1 1 27
M  V30 30 1 1 28
M  V30 31 1 7 29
M  V30 32 1 7 30
M  V30 33 1 7 31
M  V30 34 1 8 32
M  V30 35 1 11 33
M  V30 36 1 11 34
M  V30 37 1 11 35
M  V30 38 1 12 36
M  V30 39 1 12 37
M  V30 40 1 12 38
M  V30 41 1 14 39
M  V30 42 1 16 40
M  V30 43 1 16 41
M  V30 44 1 19 42
M  V30 45 1 19 43
M  V30 46 1 22 44
M  V30 47 1 22 45
M  V30 48 1 24 46
M  V30 49 1 25 47
M  V30 END BOND
M  V30 END CTAB
M  END
