
     RDKit          3D

  0  0  0  0  0  0  0  0  0  0999 V3000
M  V30 BEGIN CTAB
M  V30 COUNTS 24 24 0 0 0
M  V30 BEGIN ATOM
M  V30 1 N -0.168552 3.13492 -0.413489 0
M  V30 2 C -0.652471 2.09676 0.626203 0
M  V30 3 C 0.0906291 0.878704 0.208266 0
M  V30 4 C 1.48648 0.953585 0.132118 0
M  V30 5 C 2.24944 -0.163546 -0.273983 0
M  V30 6 C 3.64426 -0.112809 -0.310471 0
M  V30 7 N 4.81945 -0.0979328 -0.354571 0
M  V30 8 C 1.55168 -1.32914 -0.598178 0
M  V30 9 C 0.168555 -1.42184 -0.536211 0
M  V30 10 C -0.469526 -0.28338 -0.120274 0
M  V30 11 O -1.86328 -0.52016 -0.069713 0
M  V30 12 C -2.41264 -1.09723 1.06592 0
M  V30 13 N -0.569498 -2.5661 -1.03107 0
M  V30 14 H -0.981795 3.79189 -0.52986 0
M  V30 15 H -0.0636413 2.49669 -1.28603 0
M  V30 16 H -0.0743511 2.49221 1.58355 0
M  V30 17 H -1.66481 2.09626 0.778951 0
M  V30 18 H 2.07644 1.82575 0.382937 0
M  V30 19 H 2.135 -2.23529 -0.929128 0
M  V30 20 H -1.5861 -1.43996 1.76078 0
M  V30 21 H -3.16871 -0.570822 1.62402 0
M  V30 22 H -2.95037 -2.08709 0.766961 0
M  V30 23 H -0.938618 -3.23516 -0.385122 0
M  V30 24 H -0.657576 -2.60631 -2.09161 0
M  V30 END ATOM
M  V30 BEGIN BOND
M  V30 1 1 1 2
M  V30 2 1 2 3
M  V30 3 2 3 4
M  V30 4 1 4 5
M  V30 5 1 5 6
M  V30 6 3 6 7
M  V30 7 2 5 8
M  V30 8 1 8 9
M  V30 9 2 9 10
M  V30 10 1 10 11
M  V30 11 1 11 12
M  V30 12 1 9 13
M  V30 13 1 10 3
M  V30 14 1 1 14
M  V30 15 1 1 15
M  V30 16 1 2 16
M  V30 17 1 2 17
M  V30 18 1 4 18
M  V30 19 1 8 19
M  V30 20 1 12 20
M  V30 21 1 12 21
M  V30 22 1 12 22
M  V30 23 1 13 23
M  V30 24 1 13 24
M  V30 END BOND
M  V30 END CTAB
M  END
