
     RDKit          3D

  0  0  0  0  0  0  0  0  0  0999 V3000
M  V30 BEGIN CTAB
M  V30 COUNTS 22 23 0 0 0
M  V30 BEGIN ATOM
M  V30 1 N -1.56741 -0.135813 -1.78287 0
M  V30 2 C -1.01555 0.0184528 -0.485029 0
M  V30 3 C -1.87041 -0.663971 0.571412 0
M  V30 4 C -1.42402 0.445168 1.50221 0
M  V30 5 C -1.3218 1.31113 0.246777 0
M  V30 6 C 0.438207 -0.39401 -0.342946 0
M  V30 7 C 0.774327 -1.72106 -0.415371 0
M  V30 8 S 2.47259 -1.65291 -0.202601 0
M  V30 9 C 2.64508 0.0356417 -0.0361325 0
M  V30 10 N 1.39054 0.457782 -0.153453 0
M  V30 11 N 3.83405 0.834555 0.176317 0
M  V30 12 H -1.21144 0.492443 -2.50919 0
M  V30 13 H -1.79105 -1.08998 -2.0733 0
M  V30 14 H -2.95289 -0.554215 0.291497 0
M  V30 15 H -1.54399 -1.67259 0.84166 0
M  V30 16 H -2.15958 0.781628 2.24635 0
M  V30 17 H -0.426782 0.184045 1.92777 0
M  V30 18 H -0.517498 2.0499 0.26959 0
M  V30 19 H -2.33235 1.65682 -0.0328631 0
M  V30 20 H 0.106259 -2.5918 -0.570334 0
M  V30 21 H 4.31865 1.2799 -0.619599 0
M  V30 22 H 4.15508 0.928892 1.15012 0
M  V30 END ATOM
M  V30 BEGIN BOND
M  V30 1 1 1 2
M  V30 2 1 2 3
M  V30 3 1 3 4
M  V30 4 1 4 5
M  V30 5 1 2 6
M  V30 6 2 6 7
M  V30 7 1 7 8
M  V30 8 1 8 9
M  V30 9 2 9 10
M  V30 10 1 9 11
M  V30 11 1 5 2
M  V30 12 1 10 6
M  V30 13 1 1 12
M  V30 14 1 1 13
M  V30 15 1 3 14
M  V30 16 1 3 15
M  V30 17 1 4 16
M  V30 18 1 4 17
M  V30 19 1 5 18
M  V30 20 1 5 19
M  V30 21 1 7 20
M  V30 22 1 11 21
M  V30 23 1 11 22
M  V30 END BOND
M  V30 END CTAB
M  END
