
     RDKit          3D

  0  0  0  0  0  0  0  0  0  0999 V3000
M  V30 BEGIN CTAB
M  V30 COUNTS 35 37 0 0 0
M  V30 BEGIN ATOM
M  V30 1 C -5.00037 1.28422 -2.08252 0
M  V30 2 O -4.49094 1.74855 -0.828656 0
M  V30 3 C -3.55 0.914869 -0.19394 0
M  V30 4 C -3.9236 -0.0668098 0.688009 0
M  V30 5 F -5.23894 -0.220727 0.940421 0
M  V30 6 C -3.02399 -0.895238 1.32195 0
M  V30 7 N -3.44442 -1.89376 2.22271 0
M  V30 8 C -1.67432 -0.731758 1.05815 0
M  V30 9 C -0.720512 -1.52707 1.65857 0
M  V30 10 O -1.09959 -2.4177 2.46236 0
M  V30 11 C 0.597519 -1.30527 1.34727 0
M  V30 12 C 0.96571 -0.317509 0.460559 0
M  V30 13 O 0.0171097 0.406193 -0.0784632 0
M  V30 14 C -1.25669 0.240917 0.179987 0
M  V30 15 C -2.20747 1.0644 -0.445029 0
M  V30 16 F -1.76978 2.00967 -1.30135 0
M  V30 17 C 2.36719 -0.0670504 0.116928 0
M  V30 18 C 2.66556 0.949208 -0.788079 0
M  V30 19 C 3.95106 1.23456 -1.15131 0
M  V30 20 C 5.01832 0.516933 -0.628288 0
M  V30 21 N 6.33883 0.812998 -1.00396 0
M  V30 22 C 4.72132 -0.478363 0.258484 0
M  V30 23 F 5.72825 -1.21982 0.807564 0
M  V30 24 C 3.40047 -0.77202 0.632104 0
M  V30 25 H -6.08915 1.47161 -2.13075 0
M  V30 26 H -4.45022 1.71403 -2.93457 0
M  V30 27 H -4.87653 0.165739 -2.1656 0
M  V30 28 H -3.52546 -1.67588 3.2258 0
M  V30 29 H -3.66964 -2.8377 1.87837 0
M  V30 30 H 1.33762 -1.93746 1.82618 0
M  V30 31 H 1.83477 1.50953 -1.19668 0
M  V30 32 H 4.15467 2.03294 -1.85949 0
M  V30 33 H 6.94235 1.34781 -0.349378 0
M  V30 34 H 6.73224 0.514861 -1.91493 0
M  V30 35 H 3.23862 -1.5749 1.34039 0
M  V30 END ATOM
M  V30 BEGIN BOND
M  V30 1 1 1 2
M  V30 2 1 2 3
M  V30 3 2 3 4
M  V30 4 1 4 5
M  V30 5 1 4 6
M  V30 6 1 6 7
M  V30 7 2 6 8
M  V30 8 1 8 9
M  V30 9 2 9 10
M  V30 10 1 9 11
M  V30 11 2 11 12
M  V30 12 1 12 13
M  V30 13 1 13 14
M  V30 14 2 14 15
M  V30 15 1 15 16
M  V30 16 1 12 17
M  V30 17 2 17 18
M  V30 18 1 18 19
M  V30 19 2 19 20
M  V30 20 1 20 21
M  V30 21 1 20 22
M  V30 22 1 22 23
M  V30 23 2 22 24
M  V30 24 1 15 3
M  V30 25 1 24 17
M  V30 26 1 14 8
M  V30 27 1 1 25
M  V30 28 1 1 26
M  V30 29 1 1 27
M  V30 30 1 7 28
M  V30 31 1 7 29
M  V30 32 1 11 30
M  V30 33 1 18 31
M  V30 34 1 19 32
M  V30 35 1 21 33
M  V30 36 1 21 34
M  V30 37 1 24 35
M  V30 END BOND
M  V30 END CTAB
M  END
