
     RDKit          3D

  0  0  0  0  0  0  0  0  0  0999 V3000
M  V30 BEGIN CTAB
M  V30 COUNTS 26 27 0 0 0
M  V30 BEGIN ATOM
M  V30 1 C -1.7472 -0.974573 -1.19909 0
M  V30 2 C -1.88212 -0.394 0.183686 0
M  V30 3 C -3.22804 0.00471398 0.651396 0
M  V30 4 C -2.22236 1.07719 0.307079 0
M  V30 5 C -0.821153 -0.845041 1.16254 0
M  V30 6 C 0.498367 -0.415364 0.595252 0
M  V30 7 N 0.993927 0.790901 0.908261 0
M  V30 8 C 2.1627 1.26907 0.454902 0
M  V30 9 N 2.63968 2.55551 0.819295 0
M  V30 10 N 2.87861 0.487668 -0.363667 0
M  V30 11 C 2.39833 -0.72325 -0.688092 0
M  V30 12 N 1.22314 -1.18377 -0.22203 0
M  V30 13 N 3.2181 -1.50414 -1.56811 0
M  V30 14 H -2.73771 -1.34003 -1.5749 0
M  V30 15 H -1.06346 -1.83265 -1.25709 0
M  V30 16 H -1.43769 -0.179168 -1.91148 0
M  V30 17 H -3.55786 -0.11547 1.69713 0
M  V30 18 H -4.04292 -0.0803496 -0.106336 0
M  V30 19 H -2.26141 1.60573 -0.644226 0
M  V30 20 H -1.85904 1.64097 1.18775 0
M  V30 21 H -0.979818 -0.358736 2.15698 0
M  V30 22 H -0.84577 -1.94071 1.27031 0
M  V30 23 H 3.35143 2.59089 1.58775 0
M  V30 24 H 2.29402 3.41416 0.341624 0
M  V30 25 H 3.53559 -1.08384 -2.45546 0
M  V30 26 H 3.49267 -2.46573 -1.33348 0
M  V30 END ATOM
M  V30 BEGIN BOND
M  V30 1 1 1 2
M  V30 2 1 2 3
M  V30 3 1 3 4
M  V30 4 1 2 5
M  V30 5 1 5 6
M  V30 6 2 6 7
M  V30 7 1 7 8
M  V30 8 1 8 9
M  V30 9 2 8 10
M  V30 10 1 10 11
M  V30 11 2 11 12
M  V30 12 1 11 13
M  V30 13 1 4 2
M  V30 14 1 12 6
M  V30 15 1 1 14
M  V30 16 1 1 15
M  V30 17 1 1 16
M  V30 18 1 3 17
M  V30 19 1 3 18
M  V30 20 1 4 19
M  V30 21 1 4 20
M  V30 22 1 5 21
M  V30 23 1 5 22
M  V30 24 1 9 23
M  V30 25 1 9 24
M  V30 26 1 13 25
M  V30 27 1 13 26
M  V30 END BOND
M  V30 END CTAB
M  END
