
     RDKit          3D

  0  0  0  0  0  0  0  0  0  0999 V3000
M  V30 BEGIN CTAB
M  V30 COUNTS 32 31 0 0 0
M  V30 BEGIN ATOM
M  V30 1 N 2.28075 1.72304 -1.6299 0
M  V30 2 C 3.22173 0.90425 -0.854477 0
M  V30 3 C 2.59909 -0.428317 -0.504714 0
M  V30 4 N 1.41078 -0.325917 0.285104 0
M  V30 5 S 1.44756 -0.295126 2.02788 0
M  V30 6 O 0.0974878 -0.637732 2.59727 0
M  V30 7 O 1.78145 1.094 2.48014 0
M  V30 8 N 2.62176 -1.39575 2.63385 0
M  V30 9 C 0.110682 -0.252954 -0.314027 0
M  V30 10 O 0.05743 -0.294613 -1.57238 0
M  V30 11 O -1.03717 -0.143297 0.415658 0
M  V30 12 C -2.32911 -0.066358 -0.132433 0
M  V30 13 C -2.43787 1.14972 -1.03356 0
M  V30 14 C -2.67721 -1.34978 -0.822338 0
M  V30 15 C -3.36454 0.138011 0.960383 0
M  V30 16 H 2.57343 2.71825 -1.61544 0
M  V30 17 H 2.20316 1.35302 -2.61579 0
M  V30 18 H 4.07854 0.699174 -1.52696 0
M  V30 19 H 3.52211 1.48845 0.0268957 0
M  V30 20 H 2.39452 -0.936371 -1.49231 0
M  V30 21 H 3.38975 -1.03596 -0.0114063 0
M  V30 22 H 2.25097 -1.77111 3.53853 0
M  V30 23 H 2.75236 -2.22509 2.00227 0
M  V30 24 H -3.55072 1.31563 -1.14605 0
M  V30 25 H -2.08694 2.02033 -0.421557 0
M  V30 26 H -1.94034 1.04884 -1.99696 0
M  V30 27 H -2.62085 -1.27012 -1.92635 0
M  V30 28 H -2.06166 -2.18822 -0.447989 0
M  V30 29 H -3.74131 -1.65989 -0.595203 0
M  V30 30 H -2.97745 0.824576 1.75189 0
M  V30 31 H -3.70297 -0.828955 1.39803 0
M  V30 32 H -4.26543 0.62828 0.541936 0
M  V30 END ATOM
M  V30 BEGIN BOND
M  V30 1 1 1 2
M  V30 2 1 2 3
M  V30 3 1 3 4
M  V30 4 1 4 5
M  V30 5 2 5 6
M  V30 6 2 5 7
M  V30 7 1 5 8
M  V30 8 1 4 9
M  V30 9 2 9 10
M  V30 10 1 9 11
M  V30 11 1 11 12
M  V30 12 1 12 13
M  V30 13 1 12 14
M  V30 14 1 12 15
M  V30 15 1 1 16
M  V30 16 1 1 17
M  V30 17 1 2 18
M  V30 18 1 2 19
M  V30 19 1 3 20
M  V30 20 1 3 21
M  V30 21 1 8 22
M  V30 22 1 8 23
M  V30 23 1 13 24
M  V30 24 1 13 25
M  V30 25 1 13 26
M  V30 26 1 14 27
M  V30 27 1 14 28
M  V30 28 1 14 29
M  V30 29 1 15 30
M  V30 30 1 15 31
M  V30 31 1 15 32
M  V30 END BOND
M  V30 END CTAB
M  END
