
     RDKit          3D

  0  0  0  0  0  0  0  0  0  0999 V3000
M  V30 BEGIN CTAB
M  V30 COUNTS 21 22 0 0 0
M  V30 BEGIN ATOM
M  V30 1 N -2.72693 -0.58222 1.53723 0
M  V30 2 N -1.90639 -0.162689 0.489353 0
M  V30 3 C -2.40637 0.283611 -0.660537 0
M  V30 4 N -3.83337 0.335027 -0.828136 0
M  V30 5 N -1.56565 0.666461 -1.61442 0
M  V30 6 N -0.259794 0.622877 -1.46991 0
M  V30 7 C 0.313337 0.178318 -0.322577 0
M  V30 8 C -0.564312 -0.21382 0.654016 0
M  V30 9 O -0.109038 -0.639935 1.75134 0
M  V30 10 C 1.76463 0.145245 -0.201178 0
M  V30 11 C 2.60848 -0.232816 0.783575 0
M  V30 12 C 3.93117 -0.130785 0.557452 0
M  V30 13 C 4.32957 0.350081 -0.657446 0
M  V30 14 S 2.84803 0.646451 -1.45038 0
M  V30 15 H -2.80243 0.086067 2.3519 0
M  V30 16 H -3.24722 -1.46748 1.57248 0
M  V30 17 H -4.34023 1.22997 -1.00238 0
M  V30 18 H -4.32851 -0.583174 -0.763811 0
M  V30 19 H 2.22154 -0.618354 1.75589 0
M  V30 20 H 4.70916 -0.413642 1.29797 0
M  V30 21 H 5.36431 0.500812 -1.015 0
M  V30 END ATOM
M  V30 BEGIN BOND
M  V30 1 1 1 2
M  V30 2 1 2 3
M  V30 3 1 3 4
M  V30 4 2 3 5
M  V30 5 1 5 6
M  V30 6 2 6 7
M  V30 7 1 7 8
M  V30 8 2 8 9
M  V30 9 1 7 10
M  V30 10 2 10 11
M  V30 11 1 11 12
M  V30 12 2 12 13
M  V30 13 1 13 14
M  V30 14 1 8 2
M  V30 15 1 14 10
M  V30 16 1 1 15
M  V30 17 1 1 16
M  V30 18 1 4 17
M  V30 19 1 4 18
M  V30 20 1 11 19
M  V30 21 1 12 20
M  V30 22 1 13 21
M  V30 END BOND
M  V30 END CTAB
M  END
