
     RDKit          3D

  0  0  0  0  0  0  0  0  0  0999 V3000
M  V30 BEGIN CTAB
M  V30 COUNTS 40 41 0 0 0
M  V30 BEGIN ATOM
M  V30 1 N 1.27632 1.80238 0.228653 0
M  V30 2 C 0.675689 0.605711 -0.243842 0
M  V30 3 N 1.45121 -0.322254 -0.670439 0
M  V30 4 N 2.83183 -0.120499 -0.652834 0
M  V30 5 C 3.70297 -1.05863 -0.637574 0
M  V30 6 C 5.11272 -0.671965 -0.620297 0
M  V30 7 C 5.48498 0.655237 -0.620485 0
M  V30 8 C 6.81855 0.999472 -0.604036 0
M  V30 9 C 7.81035 0.0280186 -0.587042 0
M  V30 10 C 7.39277 -1.28412 -0.587513 0
M  V30 11 C 6.07998 -1.66357 -0.603551 0
M  V30 12 O 5.79832 -3.0137 -0.602069 0
M  V30 13 C -0.796733 0.442798 -0.240718 0
M  V30 14 N -1.5729 1.36882 0.185084 0
M  V30 15 N -2.94478 1.26492 0.208072 0
M  V30 16 C -3.61027 0.36556 0.840985 0
M  V30 17 C -5.06185 0.396387 0.762221 0
M  V30 18 C -5.70367 1.37089 0.0237017 0
M  V30 19 C -7.07092 1.44783 -0.0855707 0
M  V30 20 C -7.87724 0.523899 0.559846 0
M  V30 21 C -7.24387 -0.446421 1.29497 0
M  V30 22 C -5.85489 -0.520548 1.40303 0
M  V30 23 O -5.28528 -1.53528 2.16822 0
M  V30 24 N -1.40198 -0.751416 -0.711934 0
M  V30 25 H 1.65332 1.94662 1.18761 0
M  V30 26 H 1.34784 2.60356 -0.434049 0
M  V30 27 H 3.37634 -2.06499 -0.638005 0
M  V30 28 H 4.69376 1.42091 -0.634021 0
M  V30 29 H 7.11837 2.04101 -0.604079 0
M  V30 30 H 8.84532 0.339814 -0.57445 0
M  V30 31 H 8.20281 -2.02987 -0.573814 0
M  V30 32 H 4.87998 -3.42201 -0.61273 0
M  V30 33 H -3.04651 -0.350354 1.38711 0
M  V30 34 H -5.11574 2.13029 -0.509676 0
M  V30 35 H -7.58934 2.20637 -0.661147 0
M  V30 36 H -8.95609 0.56832 0.485567 0
M  V30 37 H -7.86777 -1.1747 1.80415 0
M  V30 38 H -4.29748 -1.65936 2.29736 0
M  V30 39 H -1.84502 -0.849919 -1.6497 0
M  V30 40 H -1.41107 -1.58921 -0.0923773 0
M  V30 END ATOM
M  V30 BEGIN BOND
M  V30 1 1 1 2
M  V30 2 2 2 3
M  V30 3 1 3 4
M  V30 4 2 4 5
M  V30 5 1 5 6
M  V30 6 2 6 7
M  V30 7 1 7 8
M  V30 8 2 8 9
M  V30 9 1 9 10
M  V30 10 2 10 11
M  V30 11 1 11 12
M  V30 12 1 2 13
M  V30 13 2 13 14
M  V30 14 1 14 15
M  V30 15 2 15 16
M  V30 16 1 16 17
M  V30 17 2 17 18
M  V30 18 1 18 19
M  V30 19 2 19 20
M  V30 20 1 20 21
M  V30 21 2 21 22
M  V30 22 1 22 23
M  V30 23 1 13 24
M  V30 24 1 11 6
M  V30 25 1 22 17
M  V30 26 1 1 25
M  V30 27 1 1 26
M  V30 28 1 5 27
M  V30 29 1 7 28
M  V30 30 1 8 29
M  V30 31 1 9 30
M  V30 32 1 10 31
M  V30 33 1 12 32
M  V30 34 1 16 33
M  V30 35 1 18 34
M  V30 36 1 19 35
M  V30 37 1 20 36
M  V30 38 1 21 37
M  V30 39 1 23 38
M  V30 40 1 24 39
M  V30 41 1 24 40
M  V30 END BOND
M  V30 END CTAB
M  END
