
     RDKit          3D

  0  0  0  0  0  0  0  0  0  0999 V3000
M  V30 BEGIN CTAB
M  V30 COUNTS 19 19 0 0 0
M  V30 BEGIN ATOM
M  V30 1 N -2.49788 -1.12271 0.231705 0
M  V30 2 C -1.79433 0.146013 0.196706 0
M  V30 3 C -0.329196 -0.0620177 0.0486247 0
M  V30 4 C 0.154974 -1.34615 -0.0323906 0
M  V30 5 C 1.51733 -1.57985 -0.171163 0
M  V30 6 C 2.43201 -0.540918 -0.232775 0
M  V30 7 C 1.92004 0.738093 -0.149187 0
M  V30 8 C 0.565085 0.979928 -0.0109226 0
M  V30 9 N 0.10739 2.30773 0.0686326 0
M  V30 10 Br 4.29153 -0.866959 -0.422374 0
M  V30 11 H -2.73978 -1.45042 -0.729861 0
M  V30 12 H -3.34054 -1.01509 0.844006 0
M  V30 13 H -2.16854 0.802832 -0.601356 0
M  V30 14 H -1.95884 0.623933 1.18643 0
M  V30 15 H -0.566795 -2.1692 0.0161561 0
M  V30 16 H 1.88318 -2.59097 -0.233479 0
M  V30 17 H 2.64271 1.55708 -0.197902 0
M  V30 18 H 0.201586 2.92901 -0.74706 0
M  V30 19 H -0.319938 2.65967 0.936209 0
M  V30 END ATOM
M  V30 BEGIN BOND
M  V30 1 1 1 2
M  V30 2 1 2 3
M  V30 3 2 3 4
M  V30 4 1 4 5
M  V30 5 2 5 6
M  V30 6 1 6 7
M  V30 7 2 7 8
M  V30 8 1 8 9
M  V30 9 1 6 10
M  V30 10 1 8 3
M  V30 11 1 1 11
M  V30 12 1 1 12
M  V30 13 1 2 13
M  V30 14 1 2 14
M  V30 15 1 4 15
M  V30 16 1 5 16
M  V30 17 1 7 17
M  V30 18 1 9 18
M  V30 19 1 9 19
M  V30 END BOND
M  V30 END CTAB
M  END
