
     RDKit          3D

  0  0  0  0  0  0  0  0  0  0999 V3000
M  V30 BEGIN CTAB
M  V30 COUNTS 53 56 0 0 0
M  V30 BEGIN ATOM
M  V30 1 N -3.438 -0.365355 4.26035 0
M  V30 2 C -2.32021 -0.50093 3.37355 0
M  V30 3 N -2.4197 -0.0963817 2.10079 0
M  V30 4 C -1.39798 -0.204126 1.19763 0
M  V30 5 C -1.49479 0.255697 -0.188911 0
M  V30 6 O -2.67509 0.789782 -0.586195 0
M  V30 7 C -3.775 0.00933916 -0.609745 0
M  V30 8 C -4.98235 0.783607 -1.08393 0
M  V30 9 C -6.15144 0.0848486 -1.2544 0
M  V30 10 C -7.31901 0.721408 -1.68455 0
M  V30 11 C -7.29271 2.07524 -1.9422 0
M  V30 12 C -6.1051 2.76053 -1.76495 0
M  V30 13 C -4.936 2.13459 -1.33607 0
M  V30 14 C -0.202213 -0.75786 1.61288 0
M  V30 15 C -0.113507 -1.17054 2.92925 0
M  V30 16 N 1.11665 -1.74324 3.37663 0
M  V30 17 N -1.15836 -1.03818 3.77753 0
M  V30 18 C 0.9596 -0.956606 0.75692 0
M  V30 19 C 1.74432 0.0923959 0.336254 0
M  V30 20 C 2.86632 -0.0934802 -0.473917 0
M  V30 21 C 3.24456 -1.34952 -0.893329 0
M  V30 22 N 4.37234 -1.59329 -1.72862 0
M  V30 23 C 5.2071 -0.612484 -2.3192 0
M  V30 24 C 6.00353 0.17782 -1.30595 0
M  V30 25 C 6.71706 1.32425 -1.54767 0
M  V30 26 C 7.36004 1.87355 -0.511948 0
M  V30 27 C 7.25573 1.24848 0.704464 0
M  V30 28 S 6.25949 -0.088577 0.359544 0
M  V30 29 C 2.44281 -2.40471 -0.460001 0
M  V30 30 C 1.33846 -2.22426 0.335395 0
M  V30 31 H -4.31085 -0.845744 4.00469 0
M  V30 32 H -3.39721 0.192509 5.13359 0
M  V30 33 H -0.634447 0.969559 -0.395937 0
M  V30 34 H -1.2694 -0.583726 -0.92293 0
M  V30 35 H -3.67641 -0.812872 -1.37214 0
M  V30 36 H -4.09616 -0.442253 0.329554 0
M  V30 37 H -6.2497 -0.982437 -1.0735 0
M  V30 38 H -8.25245 0.202806 -1.82854 0
M  V30 39 H -8.19993 2.58238 -2.2777 0
M  V30 40 H -6.0529 3.81292 -1.95717 0
M  V30 41 H -4.00744 2.66568 -1.19677 0
M  V30 42 H 1.33596 -2.71377 3.08167 0
M  V30 43 H 1.79673 -1.23607 3.98406 0
M  V30 44 H 1.51537 1.10696 0.627392 0
M  V30 45 H 3.45082 0.781184 -0.787159 0
M  V30 46 H 4.60565 -2.61571 -1.91995 0
M  V30 47 H 4.5707 0.163924 -2.80932 0
M  V30 48 H 5.89971 -1.05704 -3.04342 0
M  V30 49 H 6.73121 1.74322 -2.5817 0
M  V30 50 H 7.96538 2.81309 -0.625619 0
M  V30 51 H 7.72316 1.57335 1.65942 0
M  V30 52 H 2.72875 -3.40028 -0.781323 0
M  V30 53 H 0.71692 -3.0497 0.669061 0
M  V30 END ATOM
M  V30 BEGIN BOND
M  V30 1 1 1 2
M  V30 2 2 2 3
M  V30 3 1 3 4
M  V30 4 1 4 5
M  V30 5 1 5 6
M  V30 6 1 6 7
M  V30 7 1 7 8
M  V30 8 2 8 9
M  V30 9 1 9 10
M  V30 10 2 10 11
M  V30 11 1 11 12
M  V30 12 2 12 13
M  V30 13 2 4 14
M  V30 14 1 14 15
M  V30 15 1 15 16
M  V30 16 2 15 17
M  V30 17 1 14 18
M  V30 18 2 18 19
M  V30 19 1 19 20
M  V30 20 2 20 21
M  V30 21 1 21 22
M  V30 22 1 22 23
M  V30 23 1 23 24
M  V30 24 2 24 25
M  V30 25 1 25 26
M  V30 26 2 26 27
M  V30 27 1 27 28
M  V30 28 1 21 29
M  V30 29 2 29 30
M  V30 30 1 17 2
M  V30 31 1 30 18
M  V30 32 1 13 8
M  V30 33 1 28 24
M  V30 34 1 1 31
M  V30 35 1 1 32
M  V30 36 1 5 33
M  V30 37 1 5 34
M  V30 38 1 7 35
M  V30 39 1 7 36
M  V30 40 1 9 37
M  V30 41 1 10 38
M  V30 42 1 11 39
M  V30 43 1 12 40
M  V30 44 1 13 41
M  V30 45 1 16 42
M  V30 46 1 16 43
M  V30 47 1 19 44
M  V30 48 1 20 45
M  V30 49 1 22 46
M  V30 50 1 23 47
M  V30 51 1 23 48
M  V30 52 1 25 49
M  V30 53 1 26 50
M  V30 54 1 27 51
M  V30 55 1 29 52
M  V30 56 1 30 53
M  V30 END BOND
M  V30 END CTAB
M  END
