
     RDKit          3D

  0  0  0  0  0  0  0  0  0  0999 V3000
M  V30 BEGIN CTAB
M  V30 COUNTS 32 34 0 0 0
M  V30 BEGIN ATOM
M  V30 1 Br 8.23205 1.5893 0.894123 0
M  V30 2 C 6.531 0.914113 0.36471 0
M  V30 3 C 6.4091 -0.362666 -0.143165 0
M  V30 4 C 5.20926 -0.905476 -0.541978 0
M  V30 5 C 4.07038 -0.116264 -0.42147 0
M  V30 6 C 4.15389 1.16377 0.0815631 0
M  V30 7 C 5.3671 1.68366 0.473719 0
M  V30 8 C 2.76109 -0.622304 -0.823249 0
M  V30 9 N 2.49795 -1.84198 -1.33137 0
M  V30 10 N 1.2001 -1.9173 -1.5666 0
M  V30 11 C 0.693274 -0.744668 -1.19893 0
M  V30 12 O 1.63497 0.0337683 -0.751597 0
M  V30 13 S -1.03347 -0.245807 -1.28286 0
M  V30 14 C -1.81469 -0.714289 0.283205 0
M  V30 15 C -3.23995 -0.309088 0.228006 0
M  V30 16 N -4.16306 -1.18405 -0.254314 0
M  V30 17 C -5.46773 -0.891016 -0.335346 0
M  V30 18 N -6.41802 -1.80647 -0.837567 0
M  V30 19 N -5.85042 0.325662 0.0848903 0
M  V30 20 C -4.99378 1.24592 0.575007 0
M  V30 21 N -3.69009 0.892064 0.632007 0
M  V30 22 N -5.45329 2.52595 1.00867 0
M  V30 23 H 7.33656 -0.94994 -0.22017 0
M  V30 24 H 5.10238 -1.9021 -0.940346 0
M  V30 25 H 3.275 1.79672 0.183711 0
M  V30 26 H 5.48992 2.6819 0.875276 0
M  V30 27 H -1.75225 -1.8182 0.36443 0
M  V30 28 H -1.27213 -0.209652 1.1134 0
M  V30 29 H -7.0198 -2.38015 -0.222323 0
M  V30 30 H -6.51087 -1.90228 -1.86897 0
M  V30 31 H -6.27259 2.54634 1.64696 0
M  V30 32 H -5.0119 3.42455 0.719083 0
M  V30 END ATOM
M  V30 BEGIN BOND
M  V30 1 1 1 2
M  V30 2 2 2 3
M  V30 3 1 3 4
M  V30 4 2 4 5
M  V30 5 1 5 6
M  V30 6 2 6 7
M  V30 7 1 5 8
M  V30 8 2 8 9
M  V30 9 1 9 10
M  V30 10 2 10 11
M  V30 11 1 11 12
M  V30 12 1 11 13
M  V30 13 1 13 14
M  V30 14 1 14 15
M  V30 15 2 15 16
M  V30 16 1 16 17
M  V30 17 1 17 18
M  V30 18 2 17 19
M  V30 19 1 19 20
M  V30 20 2 20 21
M  V30 21 1 20 22
M  V30 22 1 7 2
M  V30 23 1 12 8
M  V30 24 1 21 15
M  V30 25 1 3 23
M  V30 26 1 4 24
M  V30 27 1 6 25
M  V30 28 1 7 26
M  V30 29 1 14 27
M  V30 30 1 14 28
M  V30 31 1 18 29
M  V30 32 1 18 30
M  V30 33 1 22 31
M  V30 34 1 22 32
M  V30 END BOND
M  V30 END CTAB
M  END
