
     RDKit          3D

  0  0  0  0  0  0  0  0  0  0999 V3000
M  V30 BEGIN CTAB
M  V30 COUNTS 38 40 0 0 0
M  V30 BEGIN ATOM
M  V30 1 O 1.59479 -0.547523 0.909513 0
M  V30 2 C 1.06306 0.406905 1.50156 0
M  V30 3 N -0.295487 0.738823 1.44488 0
M  V30 4 C -1.16842 -0.0785839 0.625892 0
M  V30 5 S -0.849391 -1.43588 -0.358025 0
M  V30 6 C -2.45365 -1.73051 -0.922125 0
M  V30 7 C -3.14219 -0.72317 -0.286631 0
M  V30 8 N -2.46999 0.0722734 0.470399 0
M  V30 9 C -4.61068 -0.560518 -0.476563 0
M  V30 10 C -5.3045 0.470122 0.154904 0
M  V30 11 C -6.65027 0.617371 -0.0246367 0
M  V30 12 C -7.36457 -0.245833 -0.834097 0
M  V30 13 C -6.6748 -1.25822 -1.45182 0
M  V30 14 C -5.31929 -1.40892 -1.27265 0
M  V30 15 Cl -9.09722 -0.0256523 -1.0478 0
M  V30 16 C 1.92853 1.28101 2.34866 0
M  V30 17 S 2.83644 2.45298 1.25801 0
M  V30 18 C 3.96631 1.43833 0.322252 0
M  V30 19 N 5.20445 1.22493 0.849499 0
M  V30 20 C 6.1397 0.478423 0.256168 0
M  V30 21 N 7.43187 0.254776 0.81674 0
M  V30 22 C 5.78155 -0.0944359 -0.972635 0
M  V30 23 C 4.5405 0.1029 -1.52856 0
M  V30 24 N 3.66585 0.877121 -0.844902 0
M  V30 25 N 4.2259 -0.499997 -2.76444 0
M  V30 26 H -0.69651 1.54988 1.96192 0
M  V30 27 H -2.84059 -2.50123 -1.59826 0
M  V30 28 H -4.7334 1.15208 0.793514 0
M  V30 29 H -7.18651 1.42339 0.470811 0
M  V30 30 H -7.22021 -1.93831 -2.08673 0
M  V30 31 H -4.84197 -2.2285 -1.79312 0
M  V30 32 H 1.31648 1.89217 3.04728 0
M  V30 33 H 2.68238 0.710347 2.90634 0
M  V30 34 H 8.31689 0.265314 0.268657 0
M  V30 35 H 7.45921 0.0695172 1.85178 0
M  V30 36 H 6.55358 -0.693838 -1.43494 0
M  V30 37 H 4.09244 0.0256388 -3.65069 0
M  V30 38 H 4.11973 -1.53317 -2.79571 0
M  V30 END ATOM
M  V30 BEGIN BOND
M  V30 1 2 1 2
M  V30 2 1 2 3
M  V30 3 1 3 4
M  V30 4 1 4 5
M  V30 5 1 5 6
M  V30 6 2 6 7
M  V30 7 1 7 8
M  V30 8 1 7 9
M  V30 9 2 9 10
M  V30 10 1 10 11
M  V30 11 2 11 12
M  V30 12 1 12 13
M  V30 13 2 13 14
M  V30 14 1 12 15
M  V30 15 1 2 16
M  V30 16 1 16 17
M  V30 17 1 17 18
M  V30 18 2 18 19
M  V30 19 1 19 20
M  V30 20 1 20 21
M  V30 21 2 20 22
M  V30 22 1 22 23
M  V30 23 2 23 24
M  V30 24 1 23 25
M  V30 25 2 8 4
M  V30 26 1 14 9
M  V30 27 1 24 18
M  V30 28 1 3 26
M  V30 29 1 6 27
M  V30 30 1 10 28
M  V30 31 1 11 29
M  V30 32 1 13 30
M  V30 33 1 14 31
M  V30 34 1 16 32
M  V30 35 1 16 33
M  V30 36 1 21 34
M  V30 37 1 21 35
M  V30 38 1 22 36
M  V30 39 1 25 37
M  V30 40 1 25 38
M  V30 END BOND
M  V30 END CTAB
M  END
