
     RDKit          3D

  0  0  0  0  0  0  0  0  0  0999 V3000
M  V30 BEGIN CTAB
M  V30 COUNTS 29 28 0 0 0
M  V30 BEGIN ATOM
M  V30 1 C -4.24935 -0.210934 -0.122785 0 CFG=1
M  V30 2 N -4.40337 -1.02466 -1.29323 0
M  V30 3 C -2.94772 -0.458428 0.608007 0
M  V30 4 S -1.51237 -0.114941 -0.444715 0
M  V30 5 C -0.0262945 -0.446164 0.536765 0
M  V30 6 S 1.48911 -0.142376 -0.397413 0
M  V30 7 C 2.89117 -0.509339 0.692979 0
M  V30 8 C 4.21409 -0.275004 -0.0294691 0 CFG=2
M  V30 9 N 5.30153 -0.578256 0.872615 0
M  V30 10 C 4.27619 1.16284 -0.372472 0
M  V30 11 O 3.36561 1.7736 -1.22438 0
M  V30 12 O 5.18245 1.87769 0.116813 0
M  V30 13 C -4.35669 1.23447 -0.404419 0
M  V30 14 O -4.58267 1.72369 -1.67462 0
M  V30 15 O -4.23862 2.04287 0.541276 0
M  V30 16 H -5.06266 -0.465117 0.58705 0
M  V30 17 H -3.67343 -1.75593 -1.40151 0
M  V30 18 H -5.3369 -1.46436 -1.32167 0
M  V30 19 H -2.90672 -1.4764 1.05002 0
M  V30 20 H -2.91041 0.291867 1.4398 0
M  V30 21 H -0.0276328 -1.51676 0.858085 0
M  V30 22 H -0.0345554 0.253999 1.40048 0
M  V30 23 H 2.87097 -1.56731 1.05809 0
M  V30 24 H 2.8259 0.122525 1.60115 0
M  V30 25 H 4.27957 -0.920256 -0.928698 0
M  V30 26 H 6.08475 -1.07552 0.434945 0
M  V30 27 H 4.96594 -0.96459 1.7674 0
M  V30 28 H 3.68455 1.91062 -2.18556 0
M  V30 29 H -5.16242 2.57219 -1.76453 0
M  V30 END ATOM
M  V30 BEGIN BOND
M  V30 1 1 1 2
M  V30 2 1 1 3
M  V30 3 1 3 4
M  V30 4 1 4 5
M  V30 5 1 5 6
M  V30 6 1 6 7
M  V30 7 1 7 8
M  V30 8 1 8 9
M  V30 9 1 8 10
M  V30 10 1 10 11
M  V30 11 2 10 12
M  V30 12 1 1 13
M  V30 13 1 13 14
M  V30 14 2 13 15
M  V30 15 1 1 16 CFG=1
M  V30 16 1 2 17
M  V30 17 1 2 18
M  V30 18 1 3 19
M  V30 19 1 3 20
M  V30 20 1 5 21
M  V30 21 1 5 22
M  V30 22 1 7 23
M  V30 23 1 7 24
M  V30 24 1 8 25 CFG=3
M  V30 25 1 9 26
M  V30 26 1 9 27
M  V30 27 1 11 28
M  V30 28 1 14 29
M  V30 END BOND
M  V30 END CTAB
M  END
