
     RDKit          3D

  0  0  0  0  0  0  0  0  0  0999 V3000
M  V30 BEGIN CTAB
M  V30 COUNTS 23 23 0 0 0
M  V30 BEGIN ATOM
M  V30 1 C 3.9807 1.64344 -0.114524 0
M  V30 2 S 3.68847 0.0942927 0.792888 0
M  V30 3 C 2.05089 -0.539271 0.477385 0
M  V30 4 N 0.896531 -0.30991 1.11301 0
M  V30 5 N -0.0791034 -0.986161 0.545787 0
M  V30 6 C -1.48253 -1.05926 0.871804 0
M  V30 7 C -2.28862 -0.0272585 0.16534 0
M  V30 8 S -3.47753 -0.532902 -0.829646 0
M  V30 9 N -2.07751 1.35322 0.312145 0
M  V30 10 N -2.86364 2.26013 -0.374598 0
M  V30 11 C 0.467126 -1.6674 -0.481922 0
M  V30 12 N -0.202328 -2.53841 -1.3877 0
M  V30 13 N 1.77159 -1.39019 -0.519342 0
M  V30 14 H 3.06637 2.25981 -0.160675 0
M  V30 15 H 4.82698 2.17534 0.351275 0
M  V30 16 H 4.31921 1.40653 -1.16593 0
M  V30 17 H -1.61402 -0.843701 1.96948 0
M  V30 18 H -1.85009 -2.08161 0.660392 0
M  V30 19 H -1.32716 1.68599 0.939862 0
M  V30 20 H -3.15215 3.04398 0.270668 0
M  V30 21 H -3.72236 1.78648 -0.70183 0
M  V30 22 H -0.48551 -2.20492 -2.34777 0
M  V30 23 H -0.445279 -3.5282 -1.16265 0
M  V30 END ATOM
M  V30 BEGIN BOND
M  V30 1 1 1 2
M  V30 2 1 2 3
M  V30 3 2 3 4
M  V30 4 1 4 5
M  V30 5 1 5 6
M  V30 6 1 6 7
M  V30 7 2 7 8
M  V30 8 1 7 9
M  V30 9 1 9 10
M  V30 10 1 5 11
M  V30 11 1 11 12
M  V30 12 2 11 13
M  V30 13 1 13 3
M  V30 14 1 1 14
M  V30 15 1 1 15
M  V30 16 1 1 16
M  V30 17 1 6 17
M  V30 18 1 6 18
M  V30 19 1 9 19
M  V30 20 1 10 20
M  V30 21 1 10 21
M  V30 22 1 12 22
M  V30 23 1 12 23
M  V30 END BOND
M  V30 END CTAB
M  END
