
     RDKit          3D

  0  0  0  0  0  0  0  0  0  0999 V3000
M  V30 BEGIN CTAB
M  V30 COUNTS 24 24 0 0 0
M  V30 BEGIN ATOM
M  V30 1 C 3.65407 -0.412314 0.0479145 0
M  V30 2 C 2.71198 0.615055 -0.451046 0
M  V30 3 O 3.14732 1.64709 -1.01643 0
M  V30 4 C 1.28419 0.388083 -0.264858 0
M  V30 5 C 0.807954 -0.747168 0.355733 0
M  V30 6 C -0.548324 -0.991517 0.548001 0
M  V30 7 N -1.02262 -2.15773 1.18481 0
M  V30 8 C -1.4608 -0.0477809 0.0933427 0
M  V30 9 C -1.0089 1.09335 -0.52922 0
M  V30 10 C 0.343034 1.31674 -0.710237 0
M  V30 11 N -1.95546 2.03644 -0.981949 0
M  V30 12 C -2.92497 -0.229399 0.257628 0
M  V30 13 H 3.36755 -0.75223 1.08573 0
M  V30 14 H 3.61684 -1.342 -0.585899 0
M  V30 15 H 4.66711 0.0275496 0.0570956 0
M  V30 16 H 1.50526 -1.4916 0.715215 0
M  V30 17 H -1.89173 -2.6038 0.846189 0
M  V30 18 H -0.515447 -2.56473 1.97655 0
M  V30 19 H 0.691475 2.2009 -1.19254 0
M  V30 20 H -2.40331 2.0303 -1.91997 0
M  V30 21 H -2.24151 2.81115 -0.335126 0
M  V30 22 H -3.13173 -0.786888 1.19321 0
M  V30 23 H -3.2717 -0.806544 -0.627823 0
M  V30 24 H -3.42028 0.767054 0.253671 0
M  V30 END ATOM
M  V30 BEGIN BOND
M  V30 1 1 1 2
M  V30 2 2 2 3
M  V30 3 1 2 4
M  V30 4 2 4 5
M  V30 5 1 5 6
M  V30 6 1 6 7
M  V30 7 2 6 8
M  V30 8 1 8 9
M  V30 9 2 9 10
M  V30 10 1 9 11
M  V30 11 1 8 12
M  V30 12 1 10 4
M  V30 13 1 1 13
M  V30 14 1 1 14
M  V30 15 1 1 15
M  V30 16 1 5 16
M  V30 17 1 7 17
M  V30 18 1 7 18
M  V30 19 1 10 19
M  V30 20 1 11 20
M  V30 21 1 11 21
M  V30 22 1 12 22
M  V30 23 1 12 23
M  V30 24 1 12 24
M  V30 END BOND
M  V30 END CTAB
M  END
