
     RDKit          3D

  0  0  0  0  0  0  0  0  0  0999 V3000
M  V30 BEGIN CTAB
M  V30 COUNTS 38 40 0 0 0
M  V30 BEGIN ATOM
M  V30 1 O -0.627079 1.13505 2.00797 0
M  V30 2 C -0.252065 0.65517 0.946037 0
M  V30 3 C -1.04828 0.200139 -0.151626 0
M  V30 4 N -2.43281 0.382618 -0.311314 0
M  V30 5 C -3.44721 -0.523934 -0.218882 0
M  V30 6 C -3.50476 -1.86698 0.0788907 0
M  V30 7 C -4.73858 -2.54883 0.0451194 0
M  V30 8 C -5.8948 -1.87898 -0.279076 0
M  V30 9 C -5.86074 -0.542079 -0.578432 0
M  V30 10 C -4.61164 0.0989837 -0.538214 0
M  V30 11 N -4.37224 1.36396 -0.830257 0
M  V30 12 C -3.06064 1.54368 -0.690902 0
M  V30 13 C -2.36332 2.84873 -0.843844 0
M  V30 14 F -1.23219 2.81438 -1.60824 0
M  V30 15 F -2.13546 3.4937 0.407668 0
M  V30 16 F -3.23274 3.76362 -1.489 0
M  V30 17 O 1.13662 0.548917 0.778093 0
M  V30 18 C 2.15604 0.921537 1.57899 0
M  V30 19 C 3.45602 0.421225 0.993482 0
M  V30 20 N 4.24488 1.05192 0.145627 0
M  V30 21 C 5.4162 0.476966 -0.28109 0
M  V30 22 N 6.2871 1.09474 -1.19996 0
M  V30 23 N 5.77503 -0.737822 0.157052 0
M  V30 24 C 4.98363 -1.37313 1.00273 0
M  V30 25 N 3.84345 -0.800691 1.41204 0
M  V30 26 N 5.29904 -2.65372 1.50168 0
M  V30 27 H -0.497699 0.403204 -1.14085 0
M  V30 28 H -0.866739 -0.962786 -0.140984 0
M  V30 29 H -2.60845 -2.40004 0.361428 0
M  V30 30 H -4.77622 -3.60822 0.248911 0
M  V30 31 H -6.83883 -2.43577 -0.291746 0
M  V30 32 H -6.75108 -0.0237333 -0.851617 0
M  V30 33 H 2.35111 2.07806 1.4904 0
M  V30 34 H 2.17342 0.667209 2.63587 0
M  V30 35 H 6.93164 1.83202 -0.923631 0
M  V30 36 H 6.27832 0.77945 -2.19687 0
M  V30 37 H 5.25421 -3.45247 0.868964 0
M  V30 38 H 5.56686 -2.76611 2.49143 0
M  V30 END ATOM
M  V30 BEGIN BOND
M  V30 1 2 1 2
M  V30 2 1 2 3
M  V30 3 1 3 4
M  V30 4 1 4 5
M  V30 5 2 5 6
M  V30 6 1 6 7
M  V30 7 2 7 8
M  V30 8 1 8 9
M  V30 9 2 9 10
M  V30 10 1 10 11
M  V30 11 2 11 12
M  V30 12 1 12 13
M  V30 13 1 13 14
M  V30 14 1 13 15
M  V30 15 1 13 16
M  V30 16 1 2 17
M  V30 17 1 17 18
M  V30 18 1 18 19
M  V30 19 2 19 20
M  V30 20 1 20 21
M  V30 21 1 21 22
M  V30 22 2 21 23
M  V30 23 1 23 24
M  V30 24 2 24 25
M  V30 25 1 24 26
M  V30 26 1 12 4
M  V30 27 1 25 19
M  V30 28 1 10 5
M  V30 29 1 3 27
M  V30 30 1 3 28
M  V30 31 1 6 29
M  V30 32 1 7 30
M  V30 33 1 8 31
M  V30 34 1 9 32
M  V30 35 1 18 33
M  V30 36 1 18 34
M  V30 37 1 22 35
M  V30 38 1 22 36
M  V30 39 1 26 37
M  V30 40 1 26 38
M  V30 END BOND
M  V30 END CTAB
M  END
