
     RDKit          3D

  0  0  0  0  0  0  0  0  0  0999 V3000
M  V30 BEGIN CTAB
M  V30 COUNTS 47 47 0 0 0
M  V30 BEGIN ATOM
M  V30 1 C 4.16019 2.26711 -0.723588 0
M  V30 2 C 3.0545 1.29646 -1.059 0
M  V30 3 C 3.09033 0.0930558 -0.104171 0
M  V30 4 C 2.00079 -0.879326 -0.422258 0
M  V30 5 N 0.660003 -0.412955 -0.373238 0
M  V30 6 C -0.0520882 0.0761982 0.74142 0
M  V30 7 O 0.497116 0.135476 1.8622 0
M  V30 8 C -1.48723 0.531602 0.592895 0
M  V30 9 C -2.36651 -0.671303 0.538596 0
M  V30 10 C -3.8067 -0.350002 0.413363 0
M  V30 11 C -4.62091 -1.41055 -0.00625064 0
M  V30 12 C -5.98364 -1.26477 -0.158493 0
M  V30 13 C -6.55114 -0.039 0.111743 0
M  V30 14 C -5.74999 1.00252 0.524245 0
M  V30 15 C -4.37891 0.85056 0.676098 0
M  V30 16 N -1.94157 -1.55331 -0.557868 0
M  V30 17 C -1.49548 1.32534 -0.694788 0
M  V30 18 C 4.41404 -0.621695 -0.517784 0
M  V30 19 C 4.62799 -1.84401 0.318356 0
M  V30 20 N 3.25073 0.440339 1.25371 0
M  V30 21 H 3.71468 3.29008 -0.615082 0
M  V30 22 H 4.89912 2.32828 -1.52722 0
M  V30 23 H 4.6841 1.9532 0.201745 0
M  V30 24 H 3.21543 0.942597 -2.09694 0
M  V30 25 H 2.06375 1.78514 -1.03822 0
M  V30 26 H 2.21116 -1.36583 -1.42784 0
M  V30 27 H 2.15012 -1.75448 0.28979 0
M  V30 28 H 0.157898 -0.438077 -1.33809 0
M  V30 29 H -1.71301 1.16259 1.44493 0
M  V30 30 H -2.2307 -1.25268 1.46939 0
M  V30 31 H -4.21391 -2.38048 -0.225984 0
M  V30 32 H -6.64067 -2.05864 -0.479364 0
M  V30 33 H -7.63271 0.13368 0.00706927 0
M  V30 34 H -6.14802 2.00002 0.753251 0
M  V30 35 H -3.75198 1.66522 1.00692 0
M  V30 36 H -2.41946 -1.31976 -1.44039 0
M  V30 37 H -2.18259 -2.5266 -0.276147 0
M  V30 38 H -1.53087 0.675716 -1.58177 0
M  V30 39 H -0.520073 1.8927 -0.728206 0
M  V30 40 H -2.27942 2.06734 -0.786095 0
M  V30 41 H 5.2549 0.09666 -0.452595 0
M  V30 42 H 4.27314 -0.901777 -1.58238 0
M  V30 43 H 4.37422 -2.74779 -0.291537 0
M  V30 44 H 4.02257 -1.86389 1.23317 0
M  V30 45 H 5.71832 -1.91918 0.575447 0
M  V30 46 H 3.05667 1.44543 1.47994 0
M  V30 47 H 4.14577 0.118768 1.69815 0
M  V30 END ATOM
M  V30 BEGIN BOND
M  V30 1 1 1 2
M  V30 2 1 2 3
M  V30 3 1 3 4
M  V30 4 1 4 5
M  V30 5 1 5 6
M  V30 6 2 6 7
M  V30 7 1 6 8
M  V30 8 1 8 9
M  V30 9 1 9 10
M  V30 10 2 10 11
M  V30 11 1 11 12
M  V30 12 2 12 13
M  V30 13 1 13 14
M  V30 14 2 14 15
M  V30 15 1 9 16
M  V30 16 1 8 17
M  V30 17 1 3 18
M  V30 18 1 18 19
M  V30 19 1 3 20
M  V30 20 1 15 10
M  V30 21 1 1 21
M  V30 22 1 1 22
M  V30 23 1 1 23
M  V30 24 1 2 24
M  V30 25 1 2 25
M  V30 26 1 4 26
M  V30 27 1 4 27
M  V30 28 1 5 28
M  V30 29 1 8 29
M  V30 30 1 9 30
M  V30 31 1 11 31
M  V30 32 1 12 32
M  V30 33 1 13 33
M  V30 34 1 14 34
M  V30 35 1 15 35
M  V30 36 1 16 36
M  V30 37 1 16 37
M  V30 38 1 17 38
M  V30 39 1 17 39
M  V30 40 1 17 40
M  V30 41 1 18 41
M  V30 42 1 18 42
M  V30 43 1 19 43
M  V30 44 1 19 44
M  V30 45 1 19 45
M  V30 46 1 20 46
M  V30 47 1 20 47
M  V30 END BOND
M  V30 END CTAB
M  END
