
     RDKit          3D

  0  0  0  0  0  0  0  0  0  0999 V3000
M  V30 BEGIN CTAB
M  V30 COUNTS 16 16 0 0 0
M  V30 BEGIN ATOM
M  V30 1 N 0.31794 2.08203 0.400172 0
M  V30 2 C 0.940306 0.836884 0.136008 0
M  V30 3 N 2.2564 0.632417 -0.134468 0
M  V30 4 N 2.49974 -0.639066 -0.330844 0
M  V30 5 C 1.3544 -1.29517 -0.194417 0
M  V30 6 C 0.3327 -0.403781 0.102481 0
M  V30 7 S -1.34933 -0.779913 0.37257 0
M  V30 8 O -1.7782 -0.490996 1.77346 0
M  V30 9 O -1.54381 -2.26371 0.154463 0
M  V30 10 N -2.2723 0.0572241 -0.797129 0
M  V30 11 H -0.565765 2.35913 -0.0442878 0
M  V30 12 H 0.786912 2.72802 1.07201 0
M  V30 13 H 3.44295 -1.02565 -0.553166 0
M  V30 14 H 1.18813 -2.35889 -0.289511 0
M  V30 15 H -2.50527 1.03497 -0.539765 0
M  V30 16 H -3.1048 -0.473502 -1.12758 0
M  V30 END ATOM
M  V30 BEGIN BOND
M  V30 1 1 1 2
M  V30 2 2 2 3
M  V30 3 1 3 4
M  V30 4 1 4 5
M  V30 5 2 5 6
M  V30 6 1 6 7
M  V30 7 2 7 8
M  V30 8 2 7 9
M  V30 9 1 7 10
M  V30 10 1 6 2
M  V30 11 1 1 11
M  V30 12 1 1 12
M  V30 13 1 4 13
M  V30 14 1 5 14
M  V30 15 1 10 15
M  V30 16 1 10 16
M  V30 END BOND
M  V30 END CTAB
M  END
