
     RDKit          3D

  0  0  0  0  0  0  0  0  0  0999 V3000
M  V30 BEGIN CTAB
M  V30 COUNTS 29 30 0 0 0
M  V30 BEGIN ATOM
M  V30 1 N 4.72859 1.26084 -0.525166 0
M  V30 2 C 3.55121 0.521026 -0.256273 0
M  V30 3 C 2.981 0.467931 0.987267 0
M  V30 4 C 1.80459 -0.283769 1.16909 0
M  V30 5 Cl 1.21382 -0.283226 2.8074 0
M  V30 6 C 1.21049 -0.95609 0.172007 0
M  V30 7 C -0.018769 -1.7577 0.173676 0
M  V30 8 C -1.2857 -0.976406 0.151397 0
M  V30 9 C -2.1466 -0.831171 1.189 0
M  V30 10 Cl -2.02473 -1.84731 2.6139 0
M  V30 11 C -3.24398 0.0394206 1.13711 0
M  V30 12 C -3.50796 0.799538 0.00176471 0
M  V30 13 N -4.61662 1.68496 -0.0215233 0
M  V30 14 C -2.63658 0.646681 -1.05315 0
M  V30 15 C -1.56357 -0.203104 -0.996986 0
M  V30 16 C 1.83072 -0.875946 -1.08809 0
M  V30 17 C 2.97208 -0.154665 -1.29619 0
M  V30 18 H 5.61695 0.793389 -0.759975 0
M  V30 19 H 4.7026 2.29269 -0.484205 0
M  V30 20 H 3.44703 1.00124 1.7945 0
M  V30 21 H -0.0536913 -2.38988 1.12187 0
M  V30 22 H -0.0551043 -2.51163 -0.631755 0
M  V30 23 H -3.90787 0.152011 1.96204 0
M  V30 24 H -5.07633 2.05978 0.82555 0
M  V30 25 H -4.99922 1.97947 -0.943739 0
M  V30 26 H -2.8366 1.23882 -1.94953 0
M  V30 27 H -0.888479 -0.317135 -1.83864 0
M  V30 28 H 1.40172 -1.40899 -1.95279 0
M  V30 29 H 3.40098 -0.140781 -2.30855 0
M  V30 END ATOM
M  V30 BEGIN BOND
M  V30 1 1 1 2
M  V30 2 2 2 3
M  V30 3 1 3 4
M  V30 4 1 4 5
M  V30 5 2 4 6
M  V30 6 1 6 7
M  V30 7 1 7 8
M  V30 8 2 8 9
M  V30 9 1 9 10
M  V30 10 1 9 11
M  V30 11 2 11 12
M  V30 12 1 12 13
M  V30 13 1 12 14
M  V30 14 2 14 15
M  V30 15 1 6 16
M  V30 16 2 16 17
M  V30 17 1 17 2
M  V30 18 1 15 8
M  V30 19 1 1 18
M  V30 20 1 1 19
M  V30 21 1 3 20
M  V30 22 1 7 21
M  V30 23 1 7 22
M  V30 24 1 11 23
M  V30 25 1 13 24
M  V30 26 1 13 25
M  V30 27 1 14 26
M  V30 28 1 15 27
M  V30 29 1 16 28
M  V30 30 1 17 29
M  V30 END BOND
M  V30 END CTAB
M  END
