
     RDKit          3D

  0  0  0  0  0  0  0  0  0  0999 V3000
M  V30 BEGIN CTAB
M  V30 COUNTS 36 37 0 0 0
M  V30 BEGIN ATOM
M  V30 1 N -3.35189 -2.25303 -0.219516 0
M  V30 2 C -2.15819 -1.51237 -0.591396 0
M  V30 3 C -1.84641 -0.437595 0.444361 0
M  V30 4 C -2.96383 0.53346 0.574627 0
M  V30 5 C -3.43388 1.35956 -0.560303 0
M  V30 6 C -2.76632 2.02442 0.633723 0
M  V30 7 N -0.550693 0.146185 0.195894 0
M  V30 8 C 0.685518 -0.521094 0.247179 0
M  V30 9 O 0.686429 -1.7617 0.545278 0
M  V30 10 C 1.97089 0.104633 -0.0161214 0
M  V30 11 C 2.0374 1.40218 -0.455187 0
M  V30 12 C 3.26708 2.00565 -0.705168 0
M  V30 13 C 4.42716 1.29031 -0.508879 0
M  V30 14 C 4.38804 -0.0142253 -0.0685794 0
M  V30 15 C 3.16451 -0.576088 0.167199 0
M  V30 16 N 5.61449 -0.708677 0.118235 0
M  V30 17 C -1.72283 -1.21906 1.76684 0
M  V30 18 H -3.17234 -3.27464 -0.108662 0
M  V30 19 H -3.83107 -1.83421 0.604592 0
M  V30 20 H -2.3139 -1.08141 -1.59948 0
M  V30 21 H -1.33412 -2.23799 -0.627985 0
M  V30 22 H -3.81214 0.19022 1.24779 0
M  V30 23 H -2.84174 1.45214 -1.4975 0
M  V30 24 H -4.51959 1.50459 -0.725914 0
M  V30 25 H -3.49105 2.63484 1.22582 0
M  V30 26 H -1.81253 2.51678 0.49993 0
M  V30 27 H -0.499798 1.17141 -0.0550866 0
M  V30 28 H 1.18741 2.03368 -0.63652 0
M  V30 29 H 3.35086 3.02025 -1.04967 0
M  V30 30 H 5.40833 1.7411 -0.698006 0
M  V30 31 H 3.13111 -1.59083 0.509801 0
M  V30 32 H 6.50254 -0.25001 0.40142 0
M  V30 33 H 5.66946 -1.7513 -0.0290017 0
M  V30 34 H -2.69361 -1.10552 2.31782 0
M  V30 35 H -0.909028 -0.736715 2.34066 0
M  V30 36 H -1.46627 -2.26494 1.59354 0
M  V30 END ATOM
M  V30 BEGIN BOND
M  V30 1 1 1 2
M  V30 2 1 2 3
M  V30 3 1 3 4
M  V30 4 1 4 5
M  V30 5 1 5 6
M  V30 6 1 3 7
M  V30 7 1 7 8
M  V30 8 2 8 9
M  V30 9 1 8 10
M  V30 10 2 10 11
M  V30 11 1 11 12
M  V30 12 2 12 13
M  V30 13 1 13 14
M  V30 14 2 14 15
M  V30 15 1 14 16
M  V30 16 1 3 17
M  V30 17 1 6 4
M  V30 18 1 15 10
M  V30 19 1 1 18
M  V30 20 1 1 19
M  V30 21 1 2 20
M  V30 22 1 2 21
M  V30 23 1 4 22
M  V30 24 1 5 23
M  V30 25 1 5 24
M  V30 26 1 6 25
M  V30 27 1 6 26
M  V30 28 1 7 27
M  V30 29 1 11 28
M  V30 30 1 12 29
M  V30 31 1 13 30
M  V30 32 1 15 31
M  V30 33 1 16 32
M  V30 34 1 16 33
M  V30 35 1 17 34
M  V30 36 1 17 35
M  V30 37 1 17 36
M  V30 END BOND
M  V30 END CTAB
M  END
