
     RDKit          3D

  0  0  0  0  0  0  0  0  0  0999 V3000
M  V30 BEGIN CTAB
M  V30 COUNTS 64 67 0 0 0
M  V30 BEGIN ATOM
M  V30 1 C 2.51251 -2.79215 -0.434904 0
M  V30 2 O 1.79003 -1.56631 -0.261793 0
M  V30 3 C 2.45489 -0.367649 -0.0322912 0
M  V30 4 C 3.85166 -0.321298 0.0368051 0
M  V30 5 C 4.4867 0.886136 0.26649 0
M  V30 6 C 3.69506 2.01556 0.420392 0
M  V30 7 C 2.32109 1.97034 0.352518 0
M  V30 8 C 1.69609 0.767065 0.123962 0
M  V30 9 N 0.287519 0.695383 0.0493185 0
M  V30 10 N -0.275084 -0.43546 0.121678 0
M  V30 11 C -1.69566 -0.584227 0.0533348 0
M  V30 12 C -2.51582 0.493283 -0.249547 0
M  V30 13 O -1.93827 1.73094 -0.487593 0
M  V30 14 C -2.77286 2.84088 -0.798227 0
M  V30 15 C -3.86907 0.272903 -0.297627 0
M  V30 16 C -4.44752 -0.978666 -0.0565288 0
M  V30 17 C -3.5846 -2.01255 0.23964 0
M  V30 18 C -2.208 -1.84185 0.300611 0
M  V30 19 C -5.89878 -1.14366 -0.1253 0
M  V30 20 C -6.76194 -0.107683 0.222088 0
M  V30 21 C -8.11723 -0.203788 0.177367 0
M  V30 22 O -8.98359 0.829916 0.524025 0
M  V30 23 C -8.38559 2.06372 0.951351 0
M  V30 24 C -8.66324 -1.40671 -0.239511 0
M  V30 25 N -10.0783 -1.5688 -0.307614 0
M  V30 26 C -7.84977 -2.46992 -0.596618 0
M  V30 27 C -6.47199 -2.323 -0.534298 0
M  V30 28 C 5.94034 0.964963 0.344971 0
M  V30 29 C 6.77505 0.134418 -0.377971 0
M  V30 30 C 8.1423 0.234071 -0.27917 0
M  V30 31 O 8.95738 -0.607298 -1.01135 0
M  V30 32 C 8.50207 -1.59745 -1.88541 0
M  V30 33 C 8.70636 1.16936 0.547196 0
M  V30 34 N 10.1256 1.3093 0.683439 0
M  V30 35 C 7.85723 1.99487 1.26544 0
M  V30 36 C 6.48802 1.92046 1.18884 0
M  V30 37 H 3.16606 -2.89448 0.442078 0
M  V30 38 H 3.09994 -2.75707 -1.38204 0
M  V30 39 H 1.74051 -3.59139 -0.491149 0
M  V30 40 H 4.42969 -1.2388 -0.0909841 0
M  V30 41 H 4.18856 2.9521 0.598504 0
M  V30 42 H 1.70242 2.84516 0.471712 0
M  V30 43 H -2.18009 3.79206 -0.709098 0
M  V30 44 H -3.24985 2.72604 -1.78253 0
M  V30 45 H -3.61197 2.89241 -0.05581 0
M  V30 46 H -4.53213 1.09531 -0.531535 0
M  V30 47 H -4.03815 -2.99698 0.429459 0
M  V30 48 H -1.57972 -2.6894 0.537742 0
M  V30 49 H -6.30545 0.817749 0.54318 0
M  V30 50 H -7.83804 2.4295 0.0332358 0
M  V30 51 H -9.12783 2.79064 1.28508 0
M  V30 52 H -7.59352 1.88502 1.71123 0
M  V30 53 H -10.5085 -2.31663 0.263573 0
M  V30 54 H -10.6188 -0.930775 -0.926734 0
M  V30 55 H -8.22945 -3.42444 -0.926665 0
M  V30 56 H -5.81545 -3.15602 -0.813904 0
M  V30 57 H 6.28523 -0.595235 -1.02323 0
M  V30 58 H 7.6221 -1.22119 -2.45207 0
M  V30 59 H 8.17695 -2.53097 -1.37764 0
M  V30 60 H 9.24849 -1.90002 -2.63861 0
M  V30 61 H 10.6909 0.698844 1.30754 0
M  V30 62 H 10.6255 2.04493 0.144226 0
M  V30 63 H 8.33928 2.73432 1.91905 0
M  V30 64 H 5.84071 2.57423 1.7579 0
M  V30 END ATOM
M  V30 BEGIN BOND
M  V30 1 1 1 2
M  V30 2 1 2 3
M  V30 3 2 3 4
M  V30 4 1 4 5
M  V30 5 2 5 6
M  V30 6 1 6 7
M  V30 7 2 7 8
M  V30 8 1 8 9
M  V30 9 2 9 10 CFG=2
M  V30 10 1 10 11
M  V30 11 2 11 12
M  V30 12 1 12 13
M  V30 13 1 13 14
M  V30 14 1 12 15
M  V30 15 2 15 16
M  V30 16 1 16 17
M  V30 17 2 17 18
M  V30 18 1 16 19
M  V30 19 2 19 20
M  V30 20 1 20 21
M  V30 21 1 21 22
M  V30 22 1 22 23
M  V30 23 2 21 24
M  V30 24 1 24 25
M  V30 25 1 24 26
M  V30 26 2 26 27
M  V30 27 1 5 28
M  V30 28 2 28 29
M  V30 29 1 29 30
M  V30 30 1 30 31
M  V30 31 1 31 32
M  V30 32 2 30 33
M  V30 33 1 33 34
M  V30 34 1 33 35
M  V30 35 2 35 36
M  V30 36 1 8 3
M  V30 37 1 18 11
M  V30 38 1 27 19
M  V30 39 1 36 28
M  V30 40 1 1 37
M  V30 41 1 1 38
M  V30 42 1 1 39
M  V30 43 1 4 40
M  V30 44 1 6 41
M  V30 45 1 7 42
M  V30 46 1 14 43
M  V30 47 1 14 44
M  V30 48 1 14 45
M  V30 49 1 15 46
M  V30 50 1 17 47
M  V30 51 1 18 48
M  V30 52 1 20 49
M  V30 53 1 23 50
M  V30 54 1 23 51
M  V30 55 1 23 52
M  V30 56 1 25 53
M  V30 57 1 25 54
M  V30 58 1 26 55
M  V30 59 1 27 56
M  V30 60 1 29 57
M  V30 61 1 32 58
M  V30 62 1 32 59
M  V30 63 1 32 60
M  V30 64 1 34 61
M  V30 65 1 34 62
M  V30 66 1 35 63
M  V30 67 1 36 64
M  V30 END BOND
M  V30 END CTAB
M  END
