
     RDKit          3D

  0  0  0  0  0  0  0  0  0  0999 V3000
M  V30 BEGIN CTAB
M  V30 COUNTS 54 56 0 0 0
M  V30 BEGIN ATOM
M  V30 1 C -2.69625 -0.0244587 -2.55534 0
M  V30 2 C -2.41221 -0.952173 -1.39317 0
M  V30 3 N -3.23811 -0.681587 -0.264222 0
M  V30 4 C -2.94608 0.134615 0.804442 0
M  V30 5 O -3.96603 0.2224 1.66381 0
M  V30 6 C -1.84223 0.926632 1.26582 0 CFG=2
M  V30 7 C -2.26076 2.40129 1.24557 0
M  V30 8 C -1.74192 2.82471 -0.0897626 0 CFG=2
M  V30 9 C -0.468468 2.00991 -0.280864 0
M  V30 10 N -0.56896 0.92518 0.665303 0
M  V30 11 C 0.535685 0.0311875 0.943449 0
M  V30 12 O 0.300249 -0.814018 1.83563 0
M  V30 13 C 1.78232 0.126154 0.241568 0
M  V30 14 N 2.0199 1.02993 -0.714468 0
M  V30 15 C 3.14204 1.18988 -1.41421 0
M  V30 16 N 3.31389 2.17717 -2.41556 0
M  V30 17 N 4.14781 0.361777 -1.13917 0
M  V30 18 C 4.01775 -0.58251 -0.198344 0
M  V30 19 C 2.85488 -0.732505 0.512064 0
M  V30 20 C 2.68 -1.76713 1.55708 0
M  V30 21 C 3.9526 -2.62054 1.69055 0
M  V30 22 C 5.19667 -1.78369 1.51506 0
M  V30 23 C 5.2253 -1.45061 0.0167801 0
M  V30 24 N -1.4392 4.25894 -0.0842375 0
M  V30 25 C -4.54618 -1.37812 -0.272624 0
M  V30 26 C -4.48334 -2.71721 0.37919 0
M  V30 27 H -3.25683 -0.528254 -3.35151 0
M  V30 28 H -1.74202 0.364477 -2.92862 0
M  V30 29 H -3.30641 0.82642 -2.21291 0
M  V30 30 H -1.32894 -0.922777 -1.20352 0
M  V30 31 H -2.58308 -1.9956 -1.79288 0
M  V30 32 H -1.6926 0.755 2.40959 0
M  V30 33 H -1.85842 2.97053 2.08561 0
M  V30 34 H -3.3812 2.47529 1.2185 0
M  V30 35 H -2.42455 2.63887 -0.918057 0
M  V30 36 H -0.329229 1.71403 -1.31954 0
M  V30 37 H 0.366198 2.6898 0.0155093 0
M  V30 38 H 2.91566 2.08994 -3.36827 0
M  V30 39 H 3.86304 3.02543 -2.18462 0
M  V30 40 H 1.9041 -2.53644 1.28691 0
M  V30 41 H 2.54511 -1.34492 2.57155 0
M  V30 42 H 3.93947 -3.43472 0.921742 0
M  V30 43 H 3.96399 -3.09368 2.67429 0
M  V30 44 H 5.07009 -0.825107 2.03132 0
M  V30 45 H 6.05969 -2.36635 1.82968 0
M  V30 46 H 6.16079 -0.924229 -0.168265 0
M  V30 47 H 5.113 -2.38065 -0.567132 0
M  V30 48 H -2.25347 4.75724 -0.469008 0
M  V30 49 H -0.620634 4.44784 -0.672181 0
M  V30 50 H -5.29806 -0.768698 0.270058 0
M  V30 51 H -4.84486 -1.49651 -1.3253 0
M  V30 52 H -5.49721 -2.96145 0.758052 0
M  V30 53 H -4.24446 -3.54067 -0.353605 0
M  V30 54 H -3.79849 -2.75005 1.24828 0
M  V30 END ATOM
M  V30 BEGIN BOND
M  V30 1 1 1 2
M  V30 2 1 2 3
M  V30 3 1 3 4
M  V30 4 2 4 5
M  V30 5 1 4 6
M  V30 6 1 6 7
M  V30 7 1 7 8
M  V30 8 1 8 9
M  V30 9 1 9 10
M  V30 10 1 10 11
M  V30 11 2 11 12
M  V30 12 1 11 13
M  V30 13 2 13 14
M  V30 14 1 14 15
M  V30 15 1 15 16
M  V30 16 2 15 17
M  V30 17 1 17 18
M  V30 18 2 18 19
M  V30 19 1 19 20
M  V30 20 1 20 21
M  V30 21 1 21 22
M  V30 22 1 22 23
M  V30 23 1 8 24
M  V30 24 1 3 25
M  V30 25 1 25 26
M  V30 26 1 10 6
M  V30 27 1 19 13
M  V30 28 1 23 18
M  V30 29 1 1 27
M  V30 30 1 1 28
M  V30 31 1 1 29
M  V30 32 1 2 30
M  V30 33 1 2 31
M  V30 34 1 6 32 CFG=1
M  V30 35 1 7 33
M  V30 36 1 7 34
M  V30 37 1 8 35 CFG=3
M  V30 38 1 9 36
M  V30 39 1 9 37
M  V30 40 1 16 38
M  V30 41 1 16 39
M  V30 42 1 20 40
M  V30 43 1 20 41
M  V30 44 1 21 42
M  V30 45 1 21 43
M  V30 46 1 22 44
M  V30 47 1 22 45
M  V30 48 1 23 46
M  V30 49 1 23 47
M  V30 50 1 24 48
M  V30 51 1 24 49
M  V30 52 1 25 50
M  V30 53 1 25 51
M  V30 54 1 26 52
M  V30 55 1 26 53
M  V30 56 1 26 54
M  V30 END BOND
M  V30 END CTAB
M  END
