
     RDKit          3D

  0  0  0  0  0  0  0  0  0  0999 V3000
M  V30 BEGIN CTAB
M  V30 COUNTS 37 37 0 0 0
M  V30 BEGIN ATOM
M  V30 1 C 4.27303 0.0822375 -1.76292 0
M  V30 2 N 4.39954 -0.739449 -0.58976 0
M  V30 3 C 5.75076 -0.968603 -0.198585 0
M  V30 4 C 3.62535 -0.251962 0.526274 0
M  V30 5 C 2.13519 -0.37897 0.282113 0
M  V30 6 C 1.3782 0.141036 1.47055 0
M  V30 7 N -0.0328641 0.0425895 1.29177 0
M  V30 8 C -0.702707 0.727774 0.256702 0
M  V30 9 O -0.0575831 1.45645 -0.53817 0
M  V30 10 C -2.16093 0.63623 0.0465372 0
M  V30 11 C -2.94758 -0.296976 0.677735 0
M  V30 12 C -4.31312 -0.385003 0.49253 0
M  V30 13 N -5.10902 -1.35416 1.15129 0
M  V30 14 C -4.89573 0.52464 -0.37873 0
M  V30 15 N -6.2966 0.461594 -0.588847 0
M  V30 16 C -4.12313 1.48258 -1.03348 0
M  V30 17 C -2.76637 1.53184 -0.817205 0
M  V30 18 H 5.27377 0.517493 -1.96999 0
M  V30 19 H 4.03262 -0.569066 -2.62521 0
M  V30 20 H 3.58905 0.936122 -1.63842 0
M  V30 21 H 5.92296 -2.06719 -0.144179 0
M  V30 22 H 6.46088 -0.59051 -0.991486 0
M  V30 23 H 6.03602 -0.433169 0.723968 0
M  V30 24 H 3.9174 -0.846236 1.41672 0
M  V30 25 H 3.87037 0.793774 0.742841 0
M  V30 26 H 1.82235 -0.015286 -0.685895 0
M  V30 27 H 1.9297 -1.49341 0.270838 0
M  V30 28 H 1.66088 1.18553 1.72905 0
M  V30 29 H 1.6648 -0.506445 2.35147 0
M  V30 30 H -0.630662 -0.54267 1.92465 0
M  V30 31 H -2.50024 -1.00725 1.35468 0
M  V30 32 H -6.12752 -1.3762 0.993332 0
M  V30 33 H -4.67235 -2.03712 1.78804 0
M  V30 34 H -6.66269 0.203648 -1.52342 0
M  V30 35 H -6.94383 0.676031 0.20127 0
M  V30 36 H -4.6203 2.16865 -1.70214 0
M  V30 37 H -2.17966 2.29146 -1.34336 0
M  V30 END ATOM
M  V30 BEGIN BOND
M  V30 1 1 1 2
M  V30 2 1 2 3
M  V30 3 1 2 4
M  V30 4 1 4 5
M  V30 5 1 5 6
M  V30 6 1 6 7
M  V30 7 1 7 8
M  V30 8 2 8 9
M  V30 9 1 8 10
M  V30 10 2 10 11
M  V30 11 1 11 12
M  V30 12 1 12 13
M  V30 13 2 12 14
M  V30 14 1 14 15
M  V30 15 1 14 16
M  V30 16 2 16 17
M  V30 17 1 17 10
M  V30 18 1 1 18
M  V30 19 1 1 19
M  V30 20 1 1 20
M  V30 21 1 3 21
M  V30 22 1 3 22
M  V30 23 1 3 23
M  V30 24 1 4 24
M  V30 25 1 4 25
M  V30 26 1 5 26
M  V30 27 1 5 27
M  V30 28 1 6 28
M  V30 29 1 6 29
M  V30 30 1 7 30
M  V30 31 1 11 31
M  V30 32 1 13 32
M  V30 33 1 13 33
M  V30 34 1 15 34
M  V30 35 1 15 35
M  V30 36 1 16 36
M  V30 37 1 17 37
M  V30 END BOND
M  V30 END CTAB
M  END
