
     RDKit          3D

  0  0  0  0  0  0  0  0  0  0999 V3000
M  V30 BEGIN CTAB
M  V30 COUNTS 19 19 0 0 0
M  V30 BEGIN ATOM
M  V30 1 C -2.63285 0.120221 -0.362557 0
M  V30 2 C -1.70325 0.29017 0.83049 0
M  V30 3 C -0.317654 0.588848 0.428427 0
M  V30 4 N 0.324244 1.7571 0.46225 0
M  V30 5 N 1.56276 1.61911 0.017425 0
M  V30 6 C 1.79133 0.322697 -0.335293 0
M  V30 7 C 0.585628 -0.319265 -0.0679822 0
M  V30 8 N 0.366406 -1.70369 -0.287439 0
M  V30 9 N 2.97975 -0.241617 -0.854141 0
M  V30 10 H -2.1196 -0.312433 -1.24005 0
M  V30 11 H -3.20666 1.03961 -0.589067 0
M  V30 12 H -3.41124 -0.643098 -0.0698702 0
M  V30 13 H -1.78047 -0.615821 1.48929 0
M  V30 14 H -2.15282 1.126 1.43615 0
M  V30 15 H 2.28258 2.3705 -0.0623151 0
M  V30 16 H -0.3423 -2.0412 -0.969524 0
M  V30 17 H 0.901293 -2.43801 0.22047 0
M  V30 18 H 3.69707 -0.65487 -0.219961 0
M  V30 19 H 3.1758 -0.264258 -1.87686 0
M  V30 END ATOM
M  V30 BEGIN BOND
M  V30 1 1 1 2
M  V30 2 1 2 3
M  V30 3 2 3 4
M  V30 4 1 4 5
M  V30 5 1 5 6
M  V30 6 2 6 7
M  V30 7 1 7 8
M  V30 8 1 6 9
M  V30 9 1 7 3
M  V30 10 1 1 10
M  V30 11 1 1 11
M  V30 12 1 1 12
M  V30 13 1 2 13
M  V30 14 1 2 14
M  V30 15 1 5 15
M  V30 16 1 8 16
M  V30 17 1 8 17
M  V30 18 1 9 18
M  V30 19 1 9 19
M  V30 END BOND
M  V30 END CTAB
M  END
