
     RDKit          3D

  0  0  0  0  0  0  0  0  0  0999 V3000
M  V30 BEGIN CTAB
M  V30 COUNTS 29 29 0 0 0
M  V30 BEGIN ATOM
M  V30 1 N -0.37006 -0.0716984 2.39913 0
M  V30 2 N -0.631661 -1.01516 1.43957 0
M  V30 3 C -0.523208 -0.535113 0.0731205 0
M  V30 4 C 0.878218 -0.0752415 -0.0763306 0
M  V30 5 C 1.30217 1.20058 -0.23459 0
M  V30 6 C 2.65635 1.47592 -0.34343 0
M  V30 7 Cl 3.20178 3.13653 -0.548936 0
M  V30 8 C 3.61399 0.489769 -0.297468 0
M  V30 9 N 3.1601 -0.769977 -0.138994 0
M  V30 10 C 1.85274 -1.07788 -0.0294196 0
M  V30 11 N 1.50184 -2.4386 0.124917 0
M  V30 12 C -1.55323 0.48997 -0.260975 0
M  V30 13 C -1.36526 0.910539 -1.70948 0
M  V30 14 C -2.93185 -0.0927757 -0.125634 0
M  V30 15 H -0.104071 0.86828 2.03278 0
M  V30 16 H -1.08329 -0.0156222 3.15534 0
M  V30 17 H -1.43158 -1.63852 1.61405 0
M  V30 18 H -0.666097 -1.39914 -0.593583 0
M  V30 19 H 0.588498 1.9832 -0.270208 0
M  V30 20 H 4.68086 0.720188 -0.385935 0
M  V30 21 H 1.46775 -2.87039 1.06451 0
M  V30 22 H 1.27766 -3.00761 -0.709674 0
M  V30 23 H -1.51174 1.39552 0.378353 0
M  V30 24 H -1.21648 2.00311 -1.81693 0
M  V30 25 H -0.534918 0.340849 -2.18584 0
M  V30 26 H -2.28292 0.68534 -2.32034 0
M  V30 27 H -3.47306 0.351337 0.753711 0
M  V30 28 H -2.93338 -1.17664 0.0286327 0
M  V30 29 H -3.56915 0.133247 -1.01637 0
M  V30 END ATOM
M  V30 BEGIN BOND
M  V30 1 1 1 2
M  V30 2 1 2 3
M  V30 3 1 3 4
M  V30 4 2 4 5
M  V30 5 1 5 6
M  V30 6 1 6 7
M  V30 7 2 6 8
M  V30 8 1 8 9
M  V30 9 2 9 10
M  V30 10 1 10 11
M  V30 11 1 3 12
M  V30 12 1 12 13
M  V30 13 1 12 14
M  V30 14 1 10 4
M  V30 15 1 1 15
M  V30 16 1 1 16
M  V30 17 1 2 17
M  V30 18 1 3 18
M  V30 19 1 5 19
M  V30 20 1 8 20
M  V30 21 1 11 21
M  V30 22 1 11 22
M  V30 23 1 12 23
M  V30 24 1 13 24
M  V30 25 1 13 25
M  V30 26 1 13 26
M  V30 27 1 14 27
M  V30 28 1 14 28
M  V30 29 1 14 29
M  V30 END BOND
M  V30 END CTAB
M  END
