
     RDKit          3D

  0  0  0  0  0  0  0  0  0  0999 V3000
M  V30 BEGIN CTAB
M  V30 COUNTS 54 58 0 0 0
M  V30 BEGIN ATOM
M  V30 1 N 7.98164 -0.748989 0.921328 0
M  V30 2 C 6.7627 -0.341892 1.59953 0
M  V30 3 C 5.97729 0.691692 0.819413 0
M  V30 4 C 4.71705 -0.095453 1.15828 0
M  V30 5 C 5.62198 -1.31989 1.33704 0
M  V30 6 C 3.75889 -0.210534 0.0390582 0
M  V30 7 C 2.43272 0.0876601 0.252827 0
M  V30 8 C 1.48401 0.000157622 -0.752724 0
M  V30 9 N 1.93656 -0.395118 -1.95596 0
M  V30 10 C 3.23326 -0.697357 -2.2061 0
M  V30 11 N 4.13663 -0.597375 -1.18444 0
M  V30 12 N 3.69181 -1.11017 -3.47238 0
M  V30 13 N 0.125068 0.318994 -0.484133 0
M  V30 14 C -0.790221 0.182078 -1.5967 0
M  V30 15 C -2.12262 0.813265 -1.38713 0
M  V30 16 N -2.49952 0.658108 -0.00930055 0
M  V30 17 C -1.62638 1.27524 0.975007 0
M  V30 18 C -0.244561 0.742524 0.826395 0
M  V30 19 C -3.65605 -0.0562896 0.366064 0
M  V30 20 C -3.42989 -1.24924 1.05028 0
M  V30 21 C -4.53949 -1.97801 1.41183 0
M  V30 22 C -5.79834 -1.52572 1.09947 0
M  V30 23 C -6.01455 -0.354172 0.428291 0
M  V30 24 C -4.89916 0.395846 0.05518 0
M  V30 25 C -5.14487 1.57461 -0.614244 0
M  V30 26 C -6.42856 1.99493 -0.903769 0
M  V30 27 C -7.5191 1.24146 -0.528488 0
M  V30 28 C -7.29205 0.0488487 0.148591 0
M  V30 29 H 8.197 -1.72581 1.23969 0
M  V30 30 H 7.79781 -0.767316 -0.0888197 0
M  V30 31 H 6.91251 -0.0989466 2.67933 0
M  V30 32 H 6.26676 0.651831 -0.240727 0
M  V30 33 H 6.02058 1.68438 1.31023 0
M  V30 34 H 4.30505 0.228066 2.1128 0
M  V30 35 H 5.76863 -1.81576 0.377876 0
M  V30 36 H 5.35994 -1.95131 2.20414 0
M  V30 37 H 2.11615 0.403152 1.24607 0
M  V30 38 H 3.85565 -0.412867 -4.21098 0
M  V30 39 H 3.86085 -2.10882 -3.65244 0
M  V30 40 H -0.316728 0.679166 -2.47919 0
M  V30 41 H -0.853453 -0.899193 -1.86521 0
M  V30 42 H -2.01834 1.89968 -1.6082 0
M  V30 43 H -2.86143 0.36758 -2.05759 0
M  V30 44 H -2.05582 1.09754 1.96185 0
M  V30 45 H -1.66848 2.38639 0.788347 0
M  V30 46 H 0.453936 1.57332 1.13989 0
M  V30 47 H -0.0979024 -0.0435826 1.60886 0
M  V30 48 H -2.41566 -1.58494 1.28578 0
M  V30 49 H -4.35863 -2.91405 1.94873 0
M  V30 50 H -6.63969 -2.14045 1.40839 0
M  V30 51 H -4.29348 2.1703 -0.903435 0
M  V30 52 H -6.53157 2.95025 -1.44252 0
M  V30 53 H -8.51552 1.57093 -0.755229 0
M  V30 54 H -8.14243 -0.544745 0.444742 0
M  V30 END ATOM
M  V30 BEGIN BOND
M  V30 1 1 1 2
M  V30 2 1 2 3
M  V30 3 1 3 4
M  V30 4 1 4 5
M  V30 5 1 4 6
M  V30 6 2 6 7
M  V30 7 1 7 8
M  V30 8 2 8 9
M  V30 9 1 9 10
M  V30 10 2 10 11
M  V30 11 1 10 12
M  V30 12 1 8 13
M  V30 13 1 13 14
M  V30 14 1 14 15
M  V30 15 1 15 16
M  V30 16 1 16 17
M  V30 17 1 17 18
M  V30 18 1 16 19
M  V30 19 2 19 20
M  V30 20 1 20 21
M  V30 21 2 21 22
M  V30 22 1 22 23
M  V30 23 2 23 24
M  V30 24 1 24 25
M  V30 25 2 25 26
M  V30 26 1 26 27
M  V30 27 2 27 28
M  V30 28 1 5 2
M  V30 29 1 11 6
M  V30 30 1 18 13
M  V30 31 1 24 19
M  V30 32 1 28 23
M  V30 33 1 1 29
M  V30 34 1 1 30
M  V30 35 1 2 31
M  V30 36 1 3 32
M  V30 37 1 3 33
M  V30 38 1 4 34
M  V30 39 1 5 35
M  V30 40 1 5 36
M  V30 41 1 7 37
M  V30 42 1 12 38
M  V30 43 1 12 39
M  V30 44 1 14 40
M  V30 45 1 14 41
M  V30 46 1 15 42
M  V30 47 1 15 43
M  V30 48 1 17 44
M  V30 49 1 17 45
M  V30 50 1 18 46
M  V30 51 1 18 47
M  V30 52 1 20 48
M  V30 53 1 21 49
M  V30 54 1 22 50
M  V30 55 1 25 51
M  V30 56 1 26 52
M  V30 57 1 27 53
M  V30 58 1 28 54
M  V30 END BOND
M  V30 END CTAB
M  END
