
     RDKit          3D

  0  0  0  0  0  0  0  0  0  0999 V3000
M  V30 BEGIN CTAB
M  V30 COUNTS 19 19 0 0 0
M  V30 BEGIN ATOM
M  V30 1 N -2.7027 -0.599958 -0.385234 0
M  V30 2 C -1.28489 -0.438872 -0.259467 0
M  V30 3 C -0.418062 -1.42708 -0.699446 0
M  V30 4 C 0.949203 -1.26337 -0.574168 0
M  V30 5 F 1.82396 -2.22082 -0.999222 0
M  V30 6 C 1.39824 -0.0882532 0.000339906 0
M  V30 7 C 0.537781 0.896972 0.439122 0
M  V30 8 C -0.828123 0.734742 0.314598 0
M  V30 9 N -1.76168 1.71262 0.74732 0
M  V30 10 C 2.87224 0.0759476 0.129549 0
M  V30 11 F 3.16779 1.278 0.711568 0
M  V30 12 F 3.32917 -0.91853 0.973565 0
M  V30 13 F 3.50565 -0.0534372 -1.07099 0
M  V30 14 H -3.17927 -1.25196 0.275845 0
M  V30 15 H -3.27164 -0.0998098 -1.10014 0
M  V30 16 H -0.830816 -2.33762 -1.14687 0
M  V30 17 H 0.920318 1.80803 0.885706 0
M  V30 18 H -2.06379 2.43518 0.0601004 0
M  V30 19 H -2.16338 1.7582 1.69782 0
M  V30 END ATOM
M  V30 BEGIN BOND
M  V30 1 1 1 2
M  V30 2 2 2 3
M  V30 3 1 3 4
M  V30 4 1 4 5
M  V30 5 2 4 6
M  V30 6 1 6 7
M  V30 7 2 7 8
M  V30 8 1 8 9
M  V30 9 1 6 10
M  V30 10 1 10 11
M  V30 11 1 10 12
M  V30 12 1 10 13
M  V30 13 1 8 2
M  V30 14 1 1 14
M  V30 15 1 1 15
M  V30 16 1 3 16
M  V30 17 1 7 17
M  V30 18 1 9 18
M  V30 19 1 9 19
M  V30 END BOND
M  V30 END CTAB
M  END
