
     RDKit          3D

  0  0  0  0  0  0  0  0  0  0999 V3000
M  V30 BEGIN CTAB
M  V30 COUNTS 28 28 0 0 0
M  V30 BEGIN ATOM
M  V30 1 C 3.46188 1.01231 0.864754 0
M  V30 2 C 1.98955 0.706604 0.570338 0
M  V30 3 C 1.96793 -0.290481 -0.541771 0
M  V30 4 N 0.666214 -0.710816 -0.973769 0
M  V30 5 C -0.537727 -0.244315 -0.40664 0
M  V30 6 C -1.33989 -1.12591 0.30064 0
M  V30 7 C -2.52986 -0.720015 0.873942 0
M  V30 8 N -3.34262 -1.62798 1.59152 0
M  V30 9 N -2.87002 0.579303 0.710426 0
M  V30 10 C -2.11797 1.46344 0.0316186 0
M  V30 11 N -0.964669 1.03254 -0.513905 0
M  V30 12 N -2.53967 2.8302 -0.101816 0
M  V30 13 C 0.609644 -1.68132 -2.05133 0
M  V30 14 H 4.07082 0.161599 0.512542 0
M  V30 15 H 3.63101 1.21828 1.91981 0
M  V30 16 H 3.72261 1.87229 0.199457 0
M  V30 17 H 1.59018 0.230273 1.50841 0
M  V30 18 H 1.48127 1.64343 0.342098 0
M  V30 19 H 2.56181 -1.20945 -0.298814 0
M  V30 20 H 2.47402 0.111226 -1.46597 0
M  V30 21 H -1.00721 -2.14925 0.392244 0
M  V30 22 H -4.05802 -1.23543 2.23688 0
M  V30 23 H -3.22707 -2.64539 1.47793 0
M  V30 24 H -1.92621 3.46918 -0.649654 0
M  V30 25 H -3.39897 3.19358 0.311083 0
M  V30 26 H 1.50187 -1.66171 -2.68567 0
M  V30 27 H 0.478364 -2.68133 -1.54382 0
M  V30 28 H -0.347297 -1.54085 -2.61053 0
M  V30 END ATOM
M  V30 BEGIN BOND
M  V30 1 1 1 2
M  V30 2 1 2 3
M  V30 3 1 3 4
M  V30 4 1 4 5
M  V30 5 2 5 6
M  V30 6 1 6 7
M  V30 7 1 7 8
M  V30 8 2 7 9
M  V30 9 1 9 10
M  V30 10 2 10 11
M  V30 11 1 10 12
M  V30 12 1 4 13
M  V30 13 1 11 5
M  V30 14 1 1 14
M  V30 15 1 1 15
M  V30 16 1 1 16
M  V30 17 1 2 17
M  V30 18 1 2 18
M  V30 19 1 3 19
M  V30 20 1 3 20
M  V30 21 1 6 21
M  V30 22 1 8 22
M  V30 23 1 8 23
M  V30 24 1 12 24
M  V30 25 1 12 25
M  V30 26 1 13 26
M  V30 27 1 13 27
M  V30 28 1 13 28
M  V30 END BOND
M  V30 END CTAB
M  END
