
     RDKit          3D

  0  0  0  0  0  0  0  0  0  0999 V3000
M  V30 BEGIN CTAB
M  V30 COUNTS 56 59 0 0 0
M  V30 BEGIN ATOM
M  V30 1 N 8.32076 1.85909 -1.50805 0
M  V30 2 C 8.6363 0.742229 -0.622351 0
M  V30 3 C 7.95852 -0.466625 -1.20221 0
M  V30 4 O 6.59761 -0.415752 -1.3231 0
M  V30 5 C 5.66184 -0.342728 -0.322125 0
M  V30 6 C 6.00217 -0.34915 1.01011 0
M  V30 7 C 4.96772 -0.264919 1.9362 0
M  V30 8 C 3.63943 -0.178017 1.57811 0
M  V30 9 C 3.27459 -0.171184 0.244516 0
M  V30 10 C 4.3034 -0.254137 -0.664387 0
M  V30 11 C 1.88695 -0.0846598 -0.192181 0
M  V30 12 O 1.66277 0.0114072 -1.42304 0
M  V30 13 N 0.789387 -0.103487 0.691219 0
M  V30 14 C -0.586935 -0.0148643 0.224408 0 CFG=2
M  V30 15 C -1.28817 1.21396 0.726607 0
M  V30 16 C -2.65345 1.27461 0.123928 0
M  V30 17 C -3.42752 -0.0176307 0.313224 0 CFG=2
M  V30 18 C -2.65068 -1.18289 -0.306687 0 CFG=2
M  V30 19 C -1.36678 -1.27906 0.528426 0 CFG=2
M  V30 20 O -1.78107 -1.32592 1.85576 0
M  V30 21 O -2.37192 -0.803445 -1.61596 0
M  V30 22 N -4.72718 0.115932 -0.261133 0
M  V30 23 C -4.9663 0.521797 -1.52051 0
M  V30 24 N -6.31176 0.540261 -1.75223 0
M  V30 25 C -6.92776 0.148467 -0.647211 0
M  V30 26 C -5.91763 -0.115249 0.282822 0
M  V30 27 N -6.28236 -0.533026 1.49938 0
M  V30 28 C -7.58373 -0.688903 1.80101 0
M  V30 29 N -8.57028 -0.431395 0.892863 0
M  V30 30 C -8.26299 -0.0088793 -0.345561 0
M  V30 31 N -9.32012 0.247289 -1.25892 0
M  V30 32 H 8.50048 2.73486 -1.02231 0
M  V30 33 H 8.90172 1.75446 -2.34057 0
M  V30 34 H 8.37672 1.04094 0.372878 0
M  V30 35 H 9.75173 0.583274 -0.62581 0
M  V30 36 H 8.47408 -0.650853 -2.18647 0
M  V30 37 H 8.29145 -1.33638 -0.549303 0
M  V30 38 H 7.02697 -0.439448 1.34365 0
M  V30 39 H 5.24406 -0.269589 2.98625 0
M  V30 40 H 2.85497 -0.111917 2.33407 0
M  V30 41 H 4.04499 -0.250834 -1.72527 0
M  V30 42 H 0.988223 -0.185599 1.71232 0
M  V30 43 H -0.546942 0.0628491 -0.882542 0
M  V30 44 H -0.716944 2.09344 0.354232 0
M  V30 45 H -1.288 1.29372 1.83103 0
M  V30 46 H -2.61054 1.54333 -0.934723 0
M  V30 47 H -3.25005 2.06026 0.667467 0
M  V30 48 H -3.44163 -0.212626 1.40525 0
M  V30 49 H -3.25861 -2.09227 -0.228787 0
M  V30 50 H -0.773024 -2.13729 0.219181 0
M  V30 51 H -1.3641 -2.05082 2.37452 0
M  V30 52 H -2.33106 -1.57438 -2.23463 0
M  V30 53 H -4.26447 0.80674 -2.29098 0
M  V30 54 H -7.82554 -1.0289 2.79821 0
M  V30 55 H -9.67575 -0.458795 -1.94274 0
M  V30 56 H -9.81356 1.1827 -1.29746 0
M  V30 END ATOM
M  V30 BEGIN BOND
M  V30 1 1 1 2
M  V30 2 1 2 3
M  V30 3 1 3 4
M  V30 4 1 4 5
M  V30 5 2 5 6
M  V30 6 1 6 7
M  V30 7 2 7 8
M  V30 8 1 8 9
M  V30 9 2 9 10
M  V30 10 1 9 11
M  V30 11 2 11 12
M  V30 12 1 11 13
M  V30 13 1 13 14
M  V30 14 1 14 15
M  V30 15 1 15 16
M  V30 16 1 16 17
M  V30 17 1 17 18
M  V30 18 1 18 19
M  V30 19 1 19 20
M  V30 20 1 18 21
M  V30 21 1 17 22
M  V30 22 1 22 23
M  V30 23 2 23 24
M  V30 24 1 24 25
M  V30 25 2 25 26
M  V30 26 1 26 27
M  V30 27 2 27 28
M  V30 28 1 28 29
M  V30 29 2 29 30
M  V30 30 1 30 31
M  V30 31 1 10 5
M  V30 32 1 19 14
M  V30 33 1 26 22
M  V30 34 1 30 25
M  V30 35 1 1 32
M  V30 36 1 1 33
M  V30 37 1 2 34
M  V30 38 1 2 35
M  V30 39 1 3 36
M  V30 40 1 3 37
M  V30 41 1 6 38
M  V30 42 1 7 39
M  V30 43 1 8 40
M  V30 44 1 10 41
M  V30 45 1 13 42
M  V30 46 1 14 43 CFG=3
M  V30 47 1 15 44
M  V30 48 1 15 45
M  V30 49 1 16 46
M  V30 50 1 16 47
M  V30 51 1 17 48 CFG=1
M  V30 52 1 18 49 CFG=3
M  V30 53 1 19 50 CFG=3
M  V30 54 1 20 51
M  V30 55 1 21 52
M  V30 56 1 23 53
M  V30 57 1 28 54
M  V30 58 1 31 55
M  V30 59 1 31 56
M  V30 END BOND
M  V30 END CTAB
M  END
