
     RDKit          3D

  0  0  0  0  0  0  0  0  0  0999 V3000
M  V30 BEGIN CTAB
M  V30 COUNTS 38 40 0 0 0
M  V30 BEGIN ATOM
M  V30 1 N -6.59071 1.70786 0.141962 0
M  V30 2 C -5.46575 1.5658 -0.0767193 0
M  V30 3 C -4.02791 1.39838 -0.338024 0
M  V30 4 C -3.43854 0.471178 0.338572 0
M  V30 5 C -2.02002 0.192561 0.192237 0
M  V30 6 C -1.45649 -1.03876 -0.168154 0
M  V30 7 C -2.1015 -2.21725 -0.470228 0
M  V30 8 C -1.3654 -3.33056 -0.761807 0
M  V30 9 C 0.00615598 -3.20989 -0.735832 0
M  V30 10 C 0.586751 -1.98192 -0.421636 0
M  V30 11 N -0.116831 -0.886398 -0.138607 0
M  V30 12 C 0.249048 0.352274 0.211667 0
M  V30 13 C -0.963201 1.03204 0.423828 0
M  V30 14 N -1.10617 2.38482 0.848587 0
M  V30 15 C 1.5133 0.989254 0.456036 0
M  V30 16 O 1.43963 2.14044 1.12237 0
M  V30 17 C 2.86448 0.678125 0.143607 0
M  V30 18 C 3.33489 0.0935906 -0.992075 0
M  V30 19 C 4.68118 -0.212278 -1.21248 0
M  V30 20 C 5.59965 0.0903458 -0.231377 0
M  V30 21 C 5.18298 0.674079 0.918767 0
M  V30 22 C 3.8635 0.95748 1.09925 0
M  V30 23 N -4.15125 -0.330973 1.26748 0
M  V30 24 C -3.42439 2.22983 -1.33848 0
M  V30 25 N -2.95893 2.90152 -2.17414 0
M  V30 26 H -3.17913 -2.24915 -0.473697 0
M  V30 27 H -1.8132 -4.2916 -1.00919 0
M  V30 28 H 0.627692 -4.07543 -0.961143 0
M  V30 29 H 1.63798 -1.9382 -0.372966 0
M  V30 30 H -0.851194 3.17974 0.223544 0
M  V30 31 H -1.47064 2.64452 1.79977 0
M  V30 32 H 2.62902 -0.148093 -1.80117 0
M  V30 33 H 5.02753 -0.673099 -2.11488 0
M  V30 34 H 6.66298 -0.133659 -0.365512 0
M  V30 35 H 5.93717 0.899743 1.67315 0
M  V30 36 H 3.55693 1.41947 2.01735 0
M  V30 37 H -5.12276 -0.0718346 1.60354 0
M  V30 38 H -3.77687 -1.21395 1.6764 0
M  V30 END ATOM
M  V30 BEGIN BOND
M  V30 1 3 1 2
M  V30 2 1 2 3
M  V30 3 2 3 4 CFG=2
M  V30 4 1 4 5
M  V30 5 2 5 6
M  V30 6 1 6 7
M  V30 7 2 7 8
M  V30 8 1 8 9
M  V30 9 2 9 10
M  V30 10 1 10 11
M  V30 11 1 11 12
M  V30 12 2 12 13
M  V30 13 1 13 14
M  V30 14 1 12 15
M  V30 15 2 15 16
M  V30 16 1 15 17
M  V30 17 2 17 18
M  V30 18 1 18 19
M  V30 19 2 19 20
M  V30 20 1 20 21
M  V30 21 2 21 22
M  V30 22 1 4 23
M  V30 23 1 3 24
M  V30 24 3 24 25
M  V30 25 1 13 5
M  V30 26 1 22 17
M  V30 27 1 11 6
M  V30 28 1 7 26
M  V30 29 1 8 27
M  V30 30 1 9 28
M  V30 31 1 10 29
M  V30 32 1 14 30
M  V30 33 1 14 31
M  V30 34 1 18 32
M  V30 35 1 19 33
M  V30 36 1 20 34
M  V30 37 1 21 35
M  V30 38 1 22 36
M  V30 39 1 23 37
M  V30 40 1 23 38
M  V30 END BOND
M  V30 END CTAB
M  END
