
     RDKit          3D

  0  0  0  0  0  0  0  0  0  0999 V3000
M  V30 BEGIN CTAB
M  V30 COUNTS 57 61 0 0 0
M  V30 BEGIN ATOM
M  V30 1 C -2.9515 4.35062 -0.99221 0
M  V30 2 C -1.83931 3.67411 -0.22991 0
M  V30 3 C -2.11141 2.21003 -0.160351 0
M  V30 4 N -3.12085 1.50736 -0.645332 0
M  V30 5 N -3.00988 0.225871 -0.378701 0
M  V30 6 C -1.84771 0.075973 0.329924 0
M  V30 7 C -1.28161 1.31157 0.470241 0
M  V30 8 C -1.40072 -1.16418 0.914359 0
M  V30 9 O -2.38973 -1.93475 1.36969 0
M  V30 10 N -0.136341 -1.67611 1.08326 0
M  V30 11 C 1.14304 -1.34239 0.615499 0
M  V30 12 C 1.44897 -0.500736 -0.404262 0
M  V30 13 C 2.7443 -0.155324 -0.772948 0
M  V30 14 C 3.7935 -0.686017 -0.0809431 0
M  V30 15 C 3.49853 -1.54142 0.950844 0
M  V30 16 N 2.24589 -1.85148 1.28038 0
M  V30 17 C 5.16627 -0.416971 -0.413863 0
M  V30 18 C 5.74539 -0.997275 -1.53833 0
M  V30 19 C 7.06245 -0.792039 -1.88084 0
M  V30 20 C 7.84037 0.0171601 -1.08397 0
M  V30 21 C 7.29881 0.60716 0.035312 0
M  V30 22 C 5.95429 0.383259 0.363084 0
M  V30 23 S 5.35929 1.19239 1.76021 0
M  V30 24 N 4.00495 2.21148 1.31396 0
M  V30 25 O 4.95453 0.347218 2.89414 0
M  V30 26 O 6.40861 2.16179 2.27882 0
M  V30 27 C -3.90563 -0.833369 -0.740385 0
M  V30 28 C -5.10958 -0.948023 -0.0900444 0
M  V30 29 C -6.03143 -1.9383 -0.3756 0
M  V30 30 C -5.69663 -2.84105 -1.36788 0
M  V30 31 O -6.70502 -3.67363 -1.46263 0
M  V30 32 N -7.64059 -3.36758 -0.614204 0
M  V30 33 C -7.27874 -2.28151 0.10332 0
M  V30 34 N -7.99294 -1.61183 1.12955 0
M  V30 35 C -4.49265 -2.7298 -2.02119 0
M  V30 36 C -3.59194 -1.73866 -1.72172 0
M  V30 37 H -3.91043 3.92517 -0.657716 0
M  V30 38 H -2.81438 4.12878 -2.077 0
M  V30 39 H -2.90672 5.44731 -0.894761 0
M  V30 40 H -1.79878 4.03584 0.816022 0
M  V30 41 H -0.857018 3.85874 -0.743751 0
M  V30 42 H -0.356245 1.57948 0.983561 0
M  V30 43 H -0.158648 -2.6653 1.61758 0
M  V30 44 H 0.652413 -0.0907014 -1.02677 0
M  V30 45 H 2.92505 0.517874 -1.58832 0
M  V30 46 H 4.31072 -2.01581 1.53005 0
M  V30 47 H 5.08909 -1.63641 -2.14738 0
M  V30 48 H 7.51731 -1.23789 -2.74959 0
M  V30 49 H 8.89617 0.195733 -1.33734 0
M  V30 50 H 7.93486 1.23508 0.637922 0
M  V30 51 H 3.9005 2.91464 2.08007 0
M  V30 52 H 4.19434 2.66291 0.395828 0
M  V30 53 H -5.41554 -0.260184 0.697696 0
M  V30 54 H -8.58905 -0.783617 0.954303 0
M  V30 55 H -7.91223 -1.97636 2.12042 0
M  V30 56 H -4.20707 -3.43477 -2.81109 0
M  V30 57 H -2.6293 -1.65405 -2.24785 0
M  V30 END ATOM
M  V30 BEGIN BOND
M  V30 1 1 1 2
M  V30 2 1 2 3
M  V30 3 2 3 4
M  V30 4 1 4 5
M  V30 5 1 5 6
M  V30 6 2 6 7
M  V30 7 1 6 8
M  V30 8 2 8 9
M  V30 9 1 8 10
M  V30 10 1 10 11
M  V30 11 2 11 12
M  V30 12 1 12 13
M  V30 13 2 13 14
M  V30 14 1 14 15
M  V30 15 2 15 16
M  V30 16 1 14 17
M  V30 17 2 17 18
M  V30 18 1 18 19
M  V30 19 2 19 20
M  V30 20 1 20 21
M  V30 21 2 21 22
M  V30 22 1 22 23
M  V30 23 1 23 24
M  V30 24 2 23 25
M  V30 25 2 23 26
M  V30 26 1 5 27
M  V30 27 2 27 28
M  V30 28 1 28 29
M  V30 29 2 29 30
M  V30 30 1 30 31
M  V30 31 1 31 32
M  V30 32 2 32 33
M  V30 33 1 33 34
M  V30 34 1 30 35
M  V30 35 2 35 36
M  V30 36 1 7 3
M  V30 37 1 16 11
M  V30 38 1 22 17
M  V30 39 1 36 27
M  V30 40 1 33 29
M  V30 41 1 1 37
M  V30 42 1 1 38
M  V30 43 1 1 39
M  V30 44 1 2 40
M  V30 45 1 2 41
M  V30 46 1 7 42
M  V30 47 1 10 43
M  V30 48 1 12 44
M  V30 49 1 13 45
M  V30 50 1 15 46
M  V30 51 1 18 47
M  V30 52 1 19 48
M  V30 53 1 20 49
M  V30 54 1 21 50
M  V30 55 1 24 51
M  V30 56 1 24 52
M  V30 57 1 28 53
M  V30 58 1 34 54
M  V30 59 1 34 55
M  V30 60 1 35 56
M  V30 61 1 36 57
M  V30 END BOND
M  V30 END CTAB
M  END
