
     RDKit          3D

  0  0  0  0  0  0  0  0  0  0999 V3000
M  V30 BEGIN CTAB
M  V30 COUNTS 32 34 0 0 0
M  V30 BEGIN ATOM
M  V30 1 N 3.64027 -0.672256 1.99135 0
M  V30 2 C 2.84706 -0.567428 0.805019 0
M  V30 3 N 3.33072 -0.919255 -0.400129 0
M  V30 4 C 2.56935 -0.815508 -1.51799 0
M  V30 5 N 3.11611 -1.19613 -2.76574 0
M  V30 6 N 1.29668 -0.345974 -1.40301 0
M  V30 7 C 0.763345 0.0176434 -0.237181 0
M  V30 8 C 1.55118 -0.0935631 0.893719 0
M  V30 9 C -0.588042 0.521955 -0.0767037 0
M  V30 10 C -0.844423 1.8713 -0.164773 0
M  V30 11 C 0.300785 2.80811 -0.429723 0
M  V30 12 C -2.11102 2.4061 -0.0202444 0
M  V30 13 C -3.16817 1.55401 0.223133 0
M  V30 14 C -2.93589 0.194309 0.315897 0
M  V30 15 C -1.66766 -0.331858 0.170302 0
M  V30 16 C -1.43808 -1.68764 0.263115 0
M  V30 17 C -2.50516 -2.5251 0.506637 0
M  V30 18 C -3.7627 -1.98569 0.64933 0
M  V30 19 N -3.9665 -0.665485 0.555913 0
M  V30 20 H 3.17065 -0.811811 2.91868 0
M  V30 21 H 4.67902 -0.60898 1.92378 0
M  V30 22 H 3.18507 -2.17991 -3.08198 0
M  V30 23 H 3.46522 -0.450506 -3.39457 0
M  V30 24 H 1.19309 0.180462 1.87665 0
M  V30 25 H 0.0858431 3.46667 -1.29173 0
M  V30 26 H 1.22629 2.25787 -0.593733 0
M  V30 27 H 0.40514 3.44586 0.471166 0
M  V30 28 H -2.27466 3.48685 -0.0972115 0
M  V30 29 H -4.15997 1.97541 0.336053 0
M  V30 30 H -0.448096 -2.07766 0.147518 0
M  V30 31 H -2.36062 -3.61198 0.587119 0
M  V30 32 H -4.59483 -2.6398 0.839342 0
M  V30 END ATOM
M  V30 BEGIN BOND
M  V30 1 1 1 2
M  V30 2 2 2 3
M  V30 3 1 3 4
M  V30 4 1 4 5
M  V30 5 2 4 6
M  V30 6 1 6 7
M  V30 7 2 7 8
M  V30 8 1 7 9
M  V30 9 2 9 10
M  V30 10 1 10 11
M  V30 11 1 10 12
M  V30 12 2 12 13
M  V30 13 1 13 14
M  V30 14 2 14 15
M  V30 15 1 15 16
M  V30 16 2 16 17
M  V30 17 1 17 18
M  V30 18 2 18 19
M  V30 19 1 8 2
M  V30 20 1 15 9
M  V30 21 1 19 14
M  V30 22 1 1 20
M  V30 23 1 1 21
M  V30 24 1 5 22
M  V30 25 1 5 23
M  V30 26 1 8 24
M  V30 27 1 11 25
M  V30 28 1 11 26
M  V30 29 1 11 27
M  V30 30 1 12 28
M  V30 31 1 13 29
M  V30 32 1 16 30
M  V30 33 1 17 31
M  V30 34 1 18 32
M  V30 END BOND
M  V30 END CTAB
M  END
