
     RDKit          3D

  0  0  0  0  0  0  0  0  0  0999 V3000
M  V30 BEGIN CTAB
M  V30 COUNTS 45 46 0 0 0
M  V30 BEGIN ATOM
M  V30 1 N -3.65933 0.459142 -1.56015 0
M  V30 2 C -3.13199 -0.374701 -0.48967 0
M  V30 3 C -1.99404 0.284805 0.217038 0
M  V30 4 C -2.50791 1.57636 0.800601 0
M  V30 5 C -3.25978 1.14387 2.04135 0
M  V30 6 C -2.42463 0.0319076 2.58866 0
M  V30 7 C -1.6557 -0.550898 1.43442 0
M  V30 8 N -0.817788 0.488578 -0.598806 0
M  V30 9 C -0.0866723 -0.553794 -1.20841 0
M  V30 10 O -0.547166 -1.72246 -0.986352 0
M  V30 11 C 1.10309 -0.428827 -2.04063 0
M  V30 12 C 2.29972 0.235091 -1.40084 0
M  V30 13 C 2.82551 -0.450945 -0.209692 0
M  V30 14 C 2.64174 -1.79244 -0.0268247 0
M  V30 15 C 3.12268 -2.4491 1.11621 0
M  V30 16 C 3.78586 -1.68526 2.04124 0
M  V30 17 C 3.98094 -0.337227 1.8752 0
M  V30 18 C 3.49666 0.283541 0.740758 0
M  V30 19 N 1.97469 1.63101 -1.06758 0
M  V30 20 C 0.753298 0.476394 -3.23751 0
M  V30 21 H -2.93489 1.07745 -1.96366 0
M  V30 22 H -4.13004 -0.146769 -2.26574 0
M  V30 23 H -3.97814 -0.432124 0.259244 0
M  V30 24 H -2.96374 -1.41868 -0.789663 0
M  V30 25 H -3.25953 1.99963 0.102783 0
M  V30 26 H -1.69608 2.28329 1.04825 0
M  V30 27 H -4.30643 0.848811 1.81391 0
M  V30 28 H -3.33223 1.96624 2.78449 0
M  V30 29 H -1.74431 0.453626 3.38159 0
M  V30 30 H -3.0279 -0.768774 3.06469 0
M  V30 31 H -1.93313 -1.59582 1.27566 0
M  V30 32 H -0.55754 -0.513847 1.64026 0
M  V30 33 H -0.527403 1.48109 -0.724789 0
M  V30 34 H 1.34595 -1.40111 -2.4877 0
M  V30 35 H 3.12888 0.291009 -2.13132 0
M  V30 36 H 2.14711 -2.44782 -0.718308 0
M  V30 37 H 2.98799 -3.49966 1.2776 0
M  V30 38 H 4.17366 -2.16331 2.94284 0
M  V30 39 H 4.51081 0.274103 2.6133 0
M  V30 40 H 3.6701 1.3595 0.640891 0
M  V30 41 H 1.76899 1.66909 -0.0477905 0
M  V30 42 H 2.7533 2.27227 -1.29885 0
M  V30 43 H 0.703784 1.50207 -2.81656 0
M  V30 44 H 1.54925 0.436454 -3.99987 0
M  V30 45 H -0.247658 0.208217 -3.63027 0
M  V30 END ATOM
M  V30 BEGIN BOND
M  V30 1 1 1 2
M  V30 2 1 2 3
M  V30 3 1 3 4
M  V30 4 1 4 5
M  V30 5 1 5 6
M  V30 6 1 6 7
M  V30 7 1 3 8
M  V30 8 1 8 9
M  V30 9 2 9 10
M  V30 10 1 9 11
M  V30 11 1 11 12
M  V30 12 1 12 13
M  V30 13 2 13 14
M  V30 14 1 14 15
M  V30 15 2 15 16
M  V30 16 1 16 17
M  V30 17 2 17 18
M  V30 18 1 12 19
M  V30 19 1 11 20
M  V30 20 1 7 3
M  V30 21 1 18 13
M  V30 22 1 1 21
M  V30 23 1 1 22
M  V30 24 1 2 23
M  V30 25 1 2 24
M  V30 26 1 4 25
M  V30 27 1 4 26
M  V30 28 1 5 27
M  V30 29 1 5 28
M  V30 30 1 6 29
M  V30 31 1 6 30
M  V30 32 1 7 31
M  V30 33 1 7 32
M  V30 34 1 8 33
M  V30 35 1 11 34
M  V30 36 1 12 35
M  V30 37 1 14 36
M  V30 38 1 15 37
M  V30 39 1 16 38
M  V30 40 1 17 39
M  V30 41 1 18 40
M  V30 42 1 19 41
M  V30 43 1 19 42
M  V30 44 1 20 43
M  V30 45 1 20 44
M  V30 46 1 20 45
M  V30 END BOND
M  V30 END CTAB
M  END
