
     RDKit          3D

  0  0  0  0  0  0  0  0  0  0999 V3000
M  V30 BEGIN CTAB
M  V30 COUNTS 33 33 0 0 0
M  V30 BEGIN ATOM
M  V30 1 C -0.622161 3.38551 -0.244841 0
M  V30 2 O -0.869704 1.99375 -0.261388 0
M  V30 3 C 0.162679 1.11889 -0.127843 0
M  V30 4 C 1.46518 1.60283 0.0217851 0
M  V30 5 C 2.50453 0.738979 0.152652 0
M  V30 6 N 3.84094 1.20804 0.311442 0
M  V30 7 C 2.25165 -0.604315 0.134651 0
M  V30 8 O 3.3307 -1.48918 0.268489 0
M  V30 9 C 3.11198 -2.88667 0.252769 0
M  V30 10 C 0.985227 -1.07441 -0.0100098 0
M  V30 11 C -0.121287 -0.219236 -0.148176 0
M  V30 12 C -1.39341 -0.869819 -0.282521 0
M  V30 13 C -2.6634 -0.14419 -0.235034 0
M  V30 14 C -3.78848 -1.19215 -0.425447 0
M  V30 15 N -2.97227 0.400649 1.09593 0
M  V30 16 H -0.195428 3.6041 0.76742 0
M  V30 17 H 0.160859 3.68592 -0.965137 0
M  V30 18 H -1.53617 3.96929 -0.340277 0
M  V30 19 H 1.65205 2.67574 0.0327181 0
M  V30 20 H 4.25547 1.94726 -0.277765 0
M  V30 21 H 4.42478 0.776701 1.06246 0
M  V30 22 H 4.09214 -3.39224 0.452234 0
M  V30 23 H 2.79656 -3.22065 -0.755416 0
M  V30 24 H 2.3893 -3.22426 1.02064 0
M  V30 25 H 0.862179 -2.15597 -0.0142646 0
M  V30 26 H -1.47582 -1.76995 0.411132 0
M  V30 27 H -1.36406 -1.38531 -1.29761 0
M  V30 28 H -2.84563 0.5788 -1.03907 0
M  V30 29 H -3.80652 -1.7494 0.555624 0
M  V30 30 H -4.75975 -0.701197 -0.600131 0
M  V30 31 H -3.49993 -1.95274 -1.16521 0
M  V30 32 H -3.97863 0.425955 1.29686 0
M  V30 33 H -2.3936 -0.0807408 1.81604 0
M  V30 END ATOM
M  V30 BEGIN BOND
M  V30 1 1 1 2
M  V30 2 1 2 3
M  V30 3 2 3 4
M  V30 4 1 4 5
M  V30 5 1 5 6
M  V30 6 2 5 7
M  V30 7 1 7 8
M  V30 8 1 8 9
M  V30 9 1 7 10
M  V30 10 2 10 11
M  V30 11 1 11 12
M  V30 12 1 12 13
M  V30 13 1 13 14
M  V30 14 1 13 15
M  V30 15 1 11 3
M  V30 16 1 1 16
M  V30 17 1 1 17
M  V30 18 1 1 18
M  V30 19 1 4 19
M  V30 20 1 6 20
M  V30 21 1 6 21
M  V30 22 1 9 22
M  V30 23 1 9 23
M  V30 24 1 9 24
M  V30 25 1 10 25
M  V30 26 1 12 26
M  V30 27 1 12 27
M  V30 28 1 13 28
M  V30 29 1 14 29
M  V30 30 1 14 30
M  V30 31 1 14 31
M  V30 32 1 15 32
M  V30 33 1 15 33
M  V30 END BOND
M  V30 END CTAB
M  END
