
     RDKit          3D

  0  0  0  0  0  0  0  0  0  0999 V3000
M  V30 BEGIN CTAB
M  V30 COUNTS 29 30 0 0 0
M  V30 BEGIN ATOM
M  V30 1 C -2.85778 1.33557 -0.0431245 0
M  V30 2 C -3.05971 -0.0338307 0.560482 0
M  V30 3 N -2.27675 -1.00234 -0.160958 0
M  V30 4 C -0.841318 -0.898875 -0.249736 0
M  V30 5 N -0.11703 -1.806 -0.924495 0
M  V30 6 C 1.22747 -1.71272 -1.01004 0
M  V30 7 C 1.87448 -0.669787 -0.395822 0
M  V30 8 C 1.15465 0.257804 0.291888 0
M  V30 9 N -0.184923 0.111565 0.34212 0
M  V30 10 N 1.75497 1.27804 0.896286 0
M  V30 11 C 3.09988 1.41158 0.837122 0
M  V30 12 N 3.83588 0.522711 0.173071 0
M  V30 13 C 3.26046 -0.516642 -0.446596 0
M  V30 14 N 3.97426 -1.49456 -1.16672 0
M  V30 15 N 3.73243 2.50804 1.48803 0
M  V30 16 C -4.49683 -0.475263 0.55264 0
M  V30 17 H -2.28292 2.00104 0.626298 0
M  V30 18 H -3.80659 1.83337 -0.313005 0
M  V30 19 H -2.26467 1.25649 -0.999298 0
M  V30 20 H -2.68502 0.00998632 1.61252 0
M  V30 21 H -2.75499 -1.79609 -0.630372 0
M  V30 22 H 1.8413 -2.42524 -1.54495 0
M  V30 23 H 4.29636 -1.28434 -2.12039 0
M  V30 24 H 4.1707 -2.40919 -0.741973 0
M  V30 25 H 3.19196 3.35649 1.75506 0
M  V30 26 H 4.74988 2.4974 1.71691 0
M  V30 27 H -4.979 -0.13602 -0.390344 0
M  V30 28 H -5.05366 -0.130219 1.45879 0
M  V30 29 H -4.50352 -1.58897 0.524163 0
M  V30 END ATOM
M  V30 BEGIN BOND
M  V30 1 1 1 2
M  V30 2 1 2 3
M  V30 3 1 3 4
M  V30 4 2 4 5
M  V30 5 1 5 6
M  V30 6 2 6 7
M  V30 7 1 7 8
M  V30 8 2 8 9
M  V30 9 1 8 10
M  V30 10 2 10 11
M  V30 11 1 11 12
M  V30 12 2 12 13
M  V30 13 1 13 14
M  V30 14 1 11 15
M  V30 15 1 2 16
M  V30 16 1 9 4
M  V30 17 1 13 7
M  V30 18 1 1 17
M  V30 19 1 1 18
M  V30 20 1 1 19
M  V30 21 1 2 20
M  V30 22 1 3 21
M  V30 23 1 6 22
M  V30 24 1 14 23
M  V30 25 1 14 24
M  V30 26 1 15 25
M  V30 27 1 15 26
M  V30 28 1 16 27
M  V30 29 1 16 28
M  V30 30 1 16 29
M  V30 END BOND
M  V30 END CTAB
M  END
