
     RDKit          3D

  0  0  0  0  0  0  0  0  0  0999 V3000
M  V30 BEGIN CTAB
M  V30 COUNTS 55 57 0 0 0
M  V30 BEGIN ATOM
M  V30 1 C 6.78019 1.70492 2.0831 0
M  V30 2 C 5.9974 0.423987 2.15697 0
M  V30 3 C 5.95264 -0.162955 0.739075 0
M  V30 4 C 5.17067 -1.44698 0.800607 0
M  V30 5 C 5.04463 -2.14291 -0.524557 0
M  V30 6 C 4.35947 -1.25084 -1.5037 0
M  V30 7 C 2.99029 -0.860087 -1.02235 0
M  V30 8 C 2.14052 -2.06408 -0.828298 0
M  V30 9 O 0.85355 -1.71746 -0.392316 0
M  V30 10 C 0.000294274 -0.965347 -1.13635 0
M  V30 11 O 0.301328 -0.528925 -2.27416 0
M  V30 12 C -1.34723 -0.625461 -0.61946 0
M  V30 13 C -2.20311 0.13597 -1.3797 0
M  V30 14 N -1.78288 0.593188 -2.66461 0
M  V30 15 C -3.47088 0.447243 -0.8765 0
M  V30 16 C -3.85433 -0.00641915 0.368704 0
M  V30 17 C -5.18964 0.356002 0.829759 0
M  V30 18 O -5.62576 -0.0116936 1.95016 0
M  V30 19 C -6.07898 1.16668 0.000952423 0
M  V30 20 C -7.34828 1.50166 0.458245 0
M  V30 21 C -8.16341 2.2642 -0.34029 0
M  V30 22 C -7.76665 2.70492 -1.57148 0
M  V30 23 C -6.51703 2.38766 -2.04668 0
M  V30 24 C -5.68016 1.61251 -1.24225 0
M  V30 25 C -4.34338 1.24964 -1.70371 0
M  V30 26 O -3.99224 1.6632 -2.84025 0
M  V30 27 C -3.01627 -0.765246 1.13955 0
M  V30 28 N -3.4353 -1.2147 2.40793 0
M  V30 29 C -1.76691 -1.0554 0.610536 0
M  V30 30 H 6.68387 2.12143 1.05928 0
M  V30 31 H 7.84746 1.57373 2.35995 0
M  V30 32 H 6.26035 2.44034 2.75413 0
M  V30 33 H 6.54803 -0.271046 2.8226 0
M  V30 34 H 4.97632 0.574076 2.54909 0
M  V30 35 H 5.41443 0.559018 0.0797243 0
M  V30 36 H 6.97632 -0.379078 0.415368 0
M  V30 37 H 4.18047 -1.35238 1.2511 0
M  V30 38 H 5.73973 -2.14 1.47095 0
M  V30 39 H 4.55277 -3.11944 -0.347089 0
M  V30 40 H 6.06756 -2.41201 -0.932068 0
M  V30 41 H 4.96594 -0.336979 -1.68391 0
M  V30 42 H 4.24818 -1.72196 -2.51162 0
M  V30 43 H 3.10561 -0.279722 -0.0571682 0
M  V30 44 H 2.6005 -0.128035 -1.77942 0
M  V30 45 H 2.00007 -2.65521 -1.76779 0
M  V30 46 H 2.66098 -2.70066 -0.0523921 0
M  V30 47 H -1.20097 1.46099 -2.6749 0
M  V30 48 H -2.0515 0.0771319 -3.53033 0
M  V30 49 H -7.64881 1.14687 1.43266 0
M  V30 50 H -9.14592 2.53149 -0.00227159 0
M  V30 51 H -8.39643 3.30981 -2.21988 0
M  V30 52 H -6.14212 2.70764 -3.01759 0
M  V30 53 H -3.50719 -0.540535 3.18352 0
M  V30 54 H -3.66747 -2.20643 2.55907 0
M  V30 55 H -1.07675 -1.6523 1.18946 0
M  V30 END ATOM
M  V30 BEGIN BOND
M  V30 1 1 1 2
M  V30 2 1 2 3
M  V30 3 1 3 4
M  V30 4 1 4 5
M  V30 5 1 5 6
M  V30 6 1 6 7
M  V30 7 1 7 8
M  V30 8 1 8 9
M  V30 9 1 9 10
M  V30 10 2 10 11
M  V30 11 1 10 12
M  V30 12 2 12 13
M  V30 13 1 13 14
M  V30 14 1 13 15
M  V30 15 2 15 16
M  V30 16 1 16 17
M  V30 17 2 17 18
M  V30 18 1 17 19
M  V30 19 2 19 20
M  V30 20 1 20 21
M  V30 21 2 21 22
M  V30 22 1 22 23
M  V30 23 2 23 24
M  V30 24 1 24 25
M  V30 25 2 25 26
M  V30 26 1 16 27
M  V30 27 1 27 28
M  V30 28 2 27 29
M  V30 29 1 29 12
M  V30 30 1 25 15
M  V30 31 1 24 19
M  V30 32 1 1 30
M  V30 33 1 1 31
M  V30 34 1 1 32
M  V30 35 1 2 33
M  V30 36 1 2 34
M  V30 37 1 3 35
M  V30 38 1 3 36
M  V30 39 1 4 37
M  V30 40 1 4 38
M  V30 41 1 5 39
M  V30 42 1 5 40
M  V30 43 1 6 41
M  V30 44 1 6 42
M  V30 45 1 7 43
M  V30 46 1 7 44
M  V30 47 1 8 45
M  V30 48 1 8 46
M  V30 49 1 14 47
M  V30 50 1 14 48
M  V30 51 1 20 49
M  V30 52 1 21 50
M  V30 53 1 22 51
M  V30 54 1 23 52
M  V30 55 1 28 53
M  V30 56 1 28 54
M  V30 57 1 29 55
M  V30 END BOND
M  V30 END CTAB
M  END
