
     RDKit          3D

  0  0  0  0  0  0  0  0  0  0999 V3000
M  V30 BEGIN CTAB
M  V30 COUNTS 25 26 0 0 0
M  V30 BEGIN ATOM
M  V30 1 N 3.8539 -1.79587 0.54806 0
M  V30 2 C 2.80612 -0.902048 0.176598 0
M  V30 3 N 1.52926 -0.889764 0.585903 0
M  V30 4 N 0.826111 0.083124 0.0380416 0
M  V30 5 C 1.70173 0.719466 -0.758694 0
M  V30 6 N 2.90969 0.138474 -0.690204 0
M  V30 7 N 1.44535 1.85904 -1.58665 0
M  V30 8 C -0.548851 0.40382 0.232736 0
M  V30 9 C -1.0145 1.67458 0.496145 0
M  V30 10 C -2.34128 1.97257 0.682083 0
M  V30 11 C -3.2443 0.932328 0.59742 0
M  V30 12 C -2.84777 -0.349634 0.339155 0
M  V30 13 C -1.49245 -0.59754 0.158815 0
M  V30 14 C -1.0516 -1.99608 -0.123843 0
M  V30 15 H 4.73997 -1.44008 0.940223 0
M  V30 16 H 3.71677 -2.81327 0.419797 0
M  V30 17 H 0.636998 1.90562 -2.24613 0
M  V30 18 H 2.06295 2.70347 -1.56692 0
M  V30 19 H -0.275143 2.46184 0.554529 0
M  V30 20 H -2.69668 2.98494 0.890342 0
M  V30 21 H -4.28637 1.18442 0.746522 0
M  V30 22 H -3.54911 -1.17026 0.27125 0
M  V30 23 H -0.533636 -2.45451 0.723064 0
M  V30 24 H -1.92543 -2.6364 -0.371303 0
M  V30 25 H -0.421713 -1.97827 -1.05693 0
M  V30 END ATOM
M  V30 BEGIN BOND
M  V30 1 1 1 2
M  V30 2 2 2 3
M  V30 3 1 3 4
M  V30 4 1 4 5
M  V30 5 2 5 6
M  V30 6 1 5 7
M  V30 7 1 4 8
M  V30 8 2 8 9
M  V30 9 1 9 10
M  V30 10 2 10 11
M  V30 11 1 11 12
M  V30 12 2 12 13
M  V30 13 1 13 14
M  V30 14 1 6 2
M  V30 15 1 13 8
M  V30 16 1 1 15
M  V30 17 1 1 16
M  V30 18 1 7 17
M  V30 19 1 7 18
M  V30 20 1 9 19
M  V30 21 1 10 20
M  V30 22 1 11 21
M  V30 23 1 12 22
M  V30 24 1 14 23
M  V30 25 1 14 24
M  V30 26 1 14 25
M  V30 END BOND
M  V30 END CTAB
M  END
