
     RDKit          3D

  0  0  0  0  0  0  0  0  0  0999 V3000
M  V30 BEGIN CTAB
M  V30 COUNTS 33 33 0 0 0
M  V30 BEGIN ATOM
M  V30 1 C 2.46465 -1.77727 -0.461538 0
M  V30 2 C 1.43761 -0.833153 -1.07083 0
M  V30 3 N 0.882759 0.017416 -0.0774733 0
M  V30 4 C -0.494077 -0.070574 0.0548569 0
M  V30 5 C -1.31099 0.294424 -1.17045 0
M  V30 6 N -1.16774 1.59776 -1.66783 0
M  V30 7 C -1.05136 0.654917 1.2793 0
M  V30 8 C -2.26701 -0.202891 1.67965 0
M  V30 9 C -1.58369 -1.55543 1.67136 0
M  V30 10 C -0.857859 -1.52109 0.354824 0
M  V30 11 S 1.78361 1.37366 0.182783 0
M  V30 12 O 1.68755 1.74916 1.666 0
M  V30 13 O 3.26921 1.02685 0.016555 0
M  V30 14 N 1.49796 2.77323 -0.712046 0
M  V30 15 H 3.47665 -1.63454 -0.859007 0
M  V30 16 H 2.44563 -1.69186 0.633969 0
M  V30 17 H 2.15355 -2.81301 -0.70623 0
M  V30 18 H 0.681902 -1.39644 -1.66057 0
M  V30 19 H 2.00802 -0.252107 -1.85707 0
M  V30 20 H -1.07071 -0.428272 -1.99416 0
M  V30 21 H -2.40958 0.120858 -0.968237 0
M  V30 22 H -1.99429 2.22201 -1.57133 0
M  V30 23 H -0.672031 1.70273 -2.57124 0
M  V30 24 H -1.40282 1.64452 1.01619 0
M  V30 25 H -0.387208 0.573758 2.15382 0
M  V30 26 H -2.60408 0.0670843 2.69203 0
M  V30 27 H -3.05705 -0.190401 0.933905 0
M  V30 28 H -2.3118 -2.38957 1.68353 0
M  V30 29 H -0.830405 -1.6426 2.48326 0
M  V30 30 H -1.56352 -1.92337 -0.399907 0
M  V30 31 H 0.029456 -2.17244 0.479977 0
M  V30 32 H 2.40181 3.23648 -0.949317 0
M  V30 33 H 0.815863 3.44015 -0.28477 0
M  V30 END ATOM
M  V30 BEGIN BOND
M  V30 1 1 1 2
M  V30 2 1 2 3
M  V30 3 1 3 4
M  V30 4 1 4 5
M  V30 5 1 5 6
M  V30 6 1 4 7
M  V30 7 1 7 8
M  V30 8 1 8 9
M  V30 9 1 9 10
M  V30 10 1 3 11
M  V30 11 2 11 12
M  V30 12 2 11 13
M  V30 13 1 11 14
M  V30 14 1 10 4
M  V30 15 1 1 15
M  V30 16 1 1 16
M  V30 17 1 1 17
M  V30 18 1 2 18
M  V30 19 1 2 19
M  V30 20 1 5 20
M  V30 21 1 5 21
M  V30 22 1 6 22
M  V30 23 1 6 23
M  V30 24 1 7 24
M  V30 25 1 7 25
M  V30 26 1 8 26
M  V30 27 1 8 27
M  V30 28 1 9 28
M  V30 29 1 9 29
M  V30 30 1 10 30
M  V30 31 1 10 31
M  V30 32 1 14 32
M  V30 33 1 14 33
M  V30 END BOND
M  V30 END CTAB
M  END
