
     RDKit          3D

  0  0  0  0  0  0  0  0  0  0999 V3000
M  V30 BEGIN CTAB
M  V30 COUNTS 11 10 0 0 0
M  V30 BEGIN ATOM
M  V30 1 N 1.80429 0.242104 0.209094 0
M  V30 2 N 0.770049 0.19639 -0.715419 0
M  V30 3 S -0.570498 -0.620292 -0.0324991 0
M  V30 4 N -1.65186 0.42306 0.787169 0
M  V30 5 O -1.27871 -1.47518 -1.04674 0
M  V30 6 O -0.0175113 -1.58709 1.00798 0
M  V30 7 H 2.4444 1.04792 0.0846375 0
M  V30 8 H 2.28392 -0.676591 0.24914 0
M  V30 9 H 0.531285 1.1337 -1.10993 0
M  V30 10 H -1.74194 1.36718 0.333701 0
M  V30 11 H -2.57342 -0.0512045 0.891994 0
M  V30 END ATOM
M  V30 BEGIN BOND
M  V30 1 1 1 2
M  V30 2 1 2 3
M  V30 3 1 3 4
M  V30 4 2 3 5
M  V30 5 2 3 6
M  V30 6 1 1 7
M  V30 7 1 1 8
M  V30 8 1 2 9
M  V30 9 1 4 10
M  V30 10 1 4 11
M  V30 END BOND
M  V30 END CTAB
M  END
