
     RDKit          3D

  0  0  0  0  0  0  0  0  0  0999 V3000
M  V30 BEGIN CTAB
M  V30 COUNTS 35 36 0 0 0
M  V30 BEGIN ATOM
M  V30 1 C -4.52245 0.335026 -1.50619 0
M  V30 2 C -3.96515 -0.153464 -0.184728 0
M  V30 3 C -2.48312 -0.206961 -0.363665 0
M  V30 4 S -1.51584 -1.43055 -1.02538 0
M  V30 5 C 0.0296008 -0.629151 -0.916811 0
M  V30 6 C -0.332708 0.555692 -0.35926 0
M  V30 7 N -1.6038 0.730972 -0.0929941 0
M  V30 8 C 0.610757 1.71552 -0.118748 0
M  V30 9 S 1.62588 1.42184 1.32699 0
M  V30 10 C 3.10559 0.52398 0.8684 0
M  V30 11 N 4.21295 1.26877 0.522141 0
M  V30 12 C 5.37742 0.711299 0.155469 0
M  V30 13 N 6.5003 1.5428 -0.189404 0
M  V30 14 N 5.41776 -0.627183 0.137727 0
M  V30 15 C 4.36538 -1.40475 0.463792 0
M  V30 16 N 3.21016 -0.786083 0.829113 0
M  V30 17 N 4.5424 -2.8024 0.405885 0
M  V30 18 C -4.34571 0.897559 0.845122 0
M  V30 19 C -4.48545 -1.49049 0.215205 0
M  V30 20 H -4.00125 1.30502 -1.75012 0
M  V30 21 H -5.6194 0.499079 -1.47981 0
M  V30 22 H -4.22452 -0.400364 -2.27896 0
M  V30 23 H 1.00664 -1.02225 -1.22414 0
M  V30 24 H 0.0939906 2.67558 -0.0956839 0
M  V30 25 H 1.29591 1.79184 -1.03534 0
M  V30 26 H 6.41413 2.56415 -0.0431614 0
M  V30 27 H 7.34127 1.11562 -0.562388 0
M  V30 28 H 4.61079 -3.40888 1.27478 0
M  V30 29 H 4.61284 -3.30819 -0.504574 0
M  V30 30 H -4.00243 0.6298 1.85252 0
M  V30 31 H -5.43416 0.974594 0.82528 0
M  V30 32 H -3.95421 1.86175 0.45959 0
M  V30 33 H -3.99874 -1.824 1.14771 0
M  V30 34 H -5.58859 -1.39814 0.363957 0
M  V30 35 H -4.29625 -2.22804 -0.602791 0
M  V30 END ATOM
M  V30 BEGIN BOND
M  V30 1 1 1 2
M  V30 2 1 2 3
M  V30 3 1 3 4
M  V30 4 1 4 5
M  V30 5 2 5 6
M  V30 6 1 6 7
M  V30 7 1 6 8
M  V30 8 1 8 9
M  V30 9 1 9 10
M  V30 10 2 10 11
M  V30 11 1 11 12
M  V30 12 1 12 13
M  V30 13 2 12 14
M  V30 14 1 14 15
M  V30 15 2 15 16
M  V30 16 1 15 17
M  V30 17 1 2 18
M  V30 18 1 2 19
M  V30 19 2 7 3
M  V30 20 1 16 10
M  V30 21 1 1 20
M  V30 22 1 1 21
M  V30 23 1 1 22
M  V30 24 1 5 23
M  V30 25 1 8 24
M  V30 26 1 8 25
M  V30 27 1 13 26
M  V30 28 1 13 27
M  V30 29 1 17 28
M  V30 30 1 17 29
M  V30 31 1 18 30
M  V30 32 1 18 31
M  V30 33 1 18 32
M  V30 34 1 19 33
M  V30 35 1 19 34
M  V30 36 1 19 35
M  V30 END BOND
M  V30 END CTAB
M  END
