
     RDKit          3D

  0  0  0  0  0  0  0  0  0  0999 V3000
M  V30 BEGIN CTAB
M  V30 COUNTS 36 38 0 0 0
M  V30 BEGIN ATOM
M  V30 1 N -4.29525 2.99028 0.621248 0
M  V30 2 N -3.26973 2.33895 -0.0157151 0
M  V30 3 C -3.44503 0.908297 -0.0423336 0
M  V30 4 C -2.30784 0.20938 -0.746602 0 CFG=1
M  V30 5 O -1.08521 0.463819 -0.115948 0
M  V30 6 C -0.196208 -0.500665 -0.573238 0 CFG=2
M  V30 7 C -0.995182 -1.7062 -0.980884 0
M  V30 8 C -2.40136 -1.2957 -0.596212 0 CFG=1
M  V30 9 O -2.66383 -1.56728 0.746344 0
M  V30 10 O -0.58613 -2.88401 -0.435336 0
M  V30 11 N 0.84625 -0.793504 0.358032 0
M  V30 12 C 0.814483 -1.57742 1.46635 0
M  V30 13 N 2.01652 -1.58242 2.06448 0
M  V30 14 C 2.84344 -0.807072 1.35937 0
M  V30 15 C 2.10132 -0.320767 0.297296 0
M  V30 16 N 2.75265 0.492203 -0.54807 0
M  V30 17 C 4.04284 0.84689 -0.422303 0
M  V30 18 N 4.68577 1.71341 -1.3486 0
M  V30 19 N 4.73611 0.344466 0.63887 0
M  V30 20 C 4.16714 -0.47254 1.53051 0
M  V30 21 O 4.80019 -0.932554 2.50127 0
M  V30 22 H -3.93782 3.87488 1.01783 0
M  V30 23 H -5.1366 3.14258 0.0674273 0
M  V30 24 H -2.38788 2.52212 0.530168 0
M  V30 25 H -4.36155 0.712655 -0.657213 0
M  V30 26 H -3.64804 0.484425 0.954593 0
M  V30 27 H -2.28349 0.467288 -1.81966 0
M  V30 28 H 0.256557 -0.0911709 -1.49994 0
M  V30 29 H -1.02129 -1.8457 -2.09999 0
M  V30 30 H -3.16627 -1.73692 -1.2644 0
M  V30 31 H -2.42551 -2.51125 0.933359 0
M  V30 32 H -0.0847453 -3.42867 -1.09125 0
M  V30 33 H -0.0326189 -2.13025 1.84296 0
M  V30 34 H 5.65987 1.47428 -1.6303 0
M  V30 35 H 4.25605 2.5607 -1.76048 0
M  V30 36 H 5.7524 0.637492 0.718381 0
M  V30 END ATOM
M  V30 BEGIN BOND
M  V30 1 1 1 2
M  V30 2 1 2 3
M  V30 3 1 3 4
M  V30 4 1 4 5
M  V30 5 1 5 6
M  V30 6 1 6 7
M  V30 7 1 7 8
M  V30 8 1 8 9
M  V30 9 1 7 10
M  V30 10 1 6 11
M  V30 11 1 11 12
M  V30 12 2 12 13
M  V30 13 1 13 14
M  V30 14 2 14 15
M  V30 15 1 15 16
M  V30 16 2 16 17
M  V30 17 1 17 18
M  V30 18 1 17 19
M  V30 19 1 19 20
M  V30 20 2 20 21
M  V30 21 1 8 4
M  V30 22 1 15 11
M  V30 23 1 20 14
M  V30 24 1 1 22
M  V30 25 1 1 23
M  V30 26 1 2 24
M  V30 27 1 3 25
M  V30 28 1 3 26
M  V30 29 1 4 27 CFG=3
M  V30 30 1 6 28 CFG=3
M  V30 31 1 7 29
M  V30 32 1 8 30 CFG=3
M  V30 33 1 9 31
M  V30 34 1 10 32
M  V30 35 1 12 33
M  V30 36 1 18 34
M  V30 37 1 18 35
M  V30 38 1 19 36
M  V30 END BOND
M  V30 END CTAB
M  END
