
     RDKit          3D

  0  0  0  0  0  0  0  0  0  0999 V3000
M  V30 BEGIN CTAB
M  V30 COUNTS 53 56 0 0 0
M  V30 BEGIN ATOM
M  V30 1 C -5.80445 -3.56783 0.103335 0
M  V30 2 C -4.94931 -2.38118 0.248498 0
M  V30 3 N -5.31656 -1.13005 0.512166 0
M  V30 4 N -4.24447 -0.321489 0.568207 0
M  V30 5 C -3.15291 -1.0616 0.334783 0
M  V30 6 C -3.58184 -2.35178 0.134014 0
M  V30 7 C -1.7828 -0.541619 0.309912 0
M  V30 8 O -1.60555 0.679978 0.515069 0
M  V30 9 N -0.681869 -1.38692 0.062288 0
M  V30 10 C 0.691251 -1.04657 0.00992201 0
M  V30 11 C 1.53482 -2.07501 -0.445882 0
M  V30 12 C 2.87865 -1.8402 -0.52098 0
M  V30 13 C 3.45865 -0.642949 -0.173669 0
M  V30 14 C 2.60956 0.345151 0.269525 0
M  V30 15 C 1.2387 0.149197 0.362022 0
M  V30 16 C 4.89743 -0.410231 -0.292839 0
M  V30 17 C 5.49181 -0.218238 -1.52552 0
M  V30 18 C 6.86299 -0.0344063 -1.60084 0
M  V30 19 C 7.65118 -0.0394653 -0.465257 0
M  V30 20 C 7.08205 -0.228547 0.771441 0
M  V30 21 C 5.71769 -0.409102 0.820491 0
M  V30 22 S 4.56582 -0.175841 -2.99234 0
M  V30 23 N 3.34815 1.06571 -2.9294 0
M  V30 24 O 5.49621 0.237047 -4.12927 0
M  V30 25 O 4.02087 -1.49715 -3.37434 0
M  V30 26 C -4.35512 1.06773 0.840664 0
M  V30 27 C -4.43204 1.57014 2.12258 0
M  V30 28 C -4.54009 2.93306 2.36564 0
M  V30 29 N -4.62126 3.44819 3.68847 0
M  V30 30 C -4.57416 3.83148 1.32536 0
M  V30 31 C -4.49824 3.34221 0.0343609 0
M  V30 32 C -4.3902 1.97636 -0.190603 0
M  V30 33 H -6.89001 -3.26979 0.152821 0
M  V30 34 H -5.64411 -4.02483 -0.887639 0
M  V30 35 H -5.60282 -4.30439 0.896554 0
M  V30 36 H -2.97962 -3.22154 -0.0789039 0
M  V30 37 H -0.973575 -2.41465 -0.0959314 0
M  V30 38 H 1.16367 -3.04614 -0.740233 0
M  V30 39 H 3.51052 -2.66729 -0.862028 0
M  V30 40 H 3.07415 1.29802 0.547618 0
M  V30 41 H 0.633839 0.953795 0.721485 0
M  V30 42 H 7.34967 0.118529 -2.55655 0
M  V30 43 H 8.71481 0.100672 -0.524932 0
M  V30 44 H 7.71133 -0.232597 1.64965 0
M  V30 45 H 5.28136 -0.554442 1.78918 0
M  V30 46 H 3.12359 1.40923 -3.89126 0
M  V30 47 H 3.68356 1.87114 -2.34293 0
M  V30 48 H -4.40469 0.854941 2.94165 0
M  V30 49 H -5.27029 4.21089 3.95663 0
M  V30 50 H -3.97482 3.00681 4.40564 0
M  V30 51 H -4.66037 4.91686 1.49883 0
M  V30 52 H -4.52636 4.05623 -0.76791 0
M  V30 53 H -4.3348 1.65248 -1.21363 0
M  V30 END ATOM
M  V30 BEGIN BOND
M  V30 1 1 1 2
M  V30 2 2 2 3
M  V30 3 1 3 4
M  V30 4 1 4 5
M  V30 5 2 5 6
M  V30 6 1 5 7
M  V30 7 2 7 8
M  V30 8 1 7 9
M  V30 9 1 9 10
M  V30 10 2 10 11
M  V30 11 1 11 12
M  V30 12 2 12 13
M  V30 13 1 13 14
M  V30 14 2 14 15
M  V30 15 1 13 16
M  V30 16 2 16 17
M  V30 17 1 17 18
M  V30 18 2 18 19
M  V30 19 1 19 20
M  V30 20 2 20 21
M  V30 21 1 17 22
M  V30 22 1 22 23
M  V30 23 2 22 24
M  V30 24 2 22 25
M  V30 25 1 4 26
M  V30 26 2 26 27
M  V30 27 1 27 28
M  V30 28 1 28 29
M  V30 29 2 28 30
M  V30 30 1 30 31
M  V30 31 2 31 32
M  V30 32 1 6 2
M  V30 33 1 15 10
M  V30 34 1 21 16
M  V30 35 1 32 26
M  V30 36 1 1 33
M  V30 37 1 1 34
M  V30 38 1 1 35
M  V30 39 1 6 36
M  V30 40 1 9 37
M  V30 41 1 11 38
M  V30 42 1 12 39
M  V30 43 1 14 40
M  V30 44 1 15 41
M  V30 45 1 18 42
M  V30 46 1 19 43
M  V30 47 1 20 44
M  V30 48 1 21 45
M  V30 49 1 23 46
M  V30 50 1 23 47
M  V30 51 1 27 48
M  V30 52 1 29 49
M  V30 53 1 29 50
M  V30 54 1 30 51
M  V30 55 1 31 52
M  V30 56 1 32 53
M  V30 END BOND
M  V30 END CTAB
M  END
