
     RDKit          3D

  0  0  0  0  0  0  0  0  0  0999 V3000
M  V30 BEGIN CTAB
M  V30 COUNTS 47 51 0 0 0
M  V30 BEGIN ATOM
M  V30 1 N -6.41976 0.611517 1.51164 0
M  V30 2 C -5.25848 0.676521 1.50112 0
M  V30 3 C -3.80423 0.770494 1.51256 0
M  V30 4 C -3.1989 1.40776 2.56727 0
M  V30 5 N -4.01024 1.94222 3.5916 0
M  V30 6 N -1.8585 1.46282 2.52252 0
M  V30 7 C -1.16081 0.919636 1.49513 0
M  V30 8 C -1.71893 0.272928 0.418196 0
M  V30 9 C -3.12061 0.202422 0.44299 0
M  V30 10 C -3.9157 -0.440998 -0.596708 0
M  V30 11 C -4.47959 0.290904 -1.62535 0
M  V30 12 C -5.24584 -0.312363 -2.59977 0
M  V30 13 C -5.465 -1.6657 -2.56548 0
M  V30 14 C -4.91764 -2.44086 -1.54975 0
M  V30 15 C -4.15829 -1.79664 -0.596442 0
M  V30 16 C -0.878099 -0.202212 -0.506773 0
M  V30 17 N -1.28043 -0.906369 -1.70953 0
M  V30 18 C 0.464566 -0.0141503 -0.318815 0
M  V30 19 S 0.506398 0.836072 1.17089 0
M  V30 20 C 1.60226 -0.394834 -1.13668 0
M  V30 21 O 1.34552 -0.997606 -2.23429 0
M  V30 22 C 2.97125 -0.156281 -0.827949 0
M  V30 23 C 3.86806 0.0058721 -1.89255 0
M  V30 24 C 5.2092 0.225613 -1.73089 0
M  V30 25 C 5.7308 0.295292 -0.447922 0
M  V30 26 C 4.88083 0.140628 0.621713 0
M  V30 27 C 3.5203 -0.081955 0.417238 0
M  V30 28 C 5.38973 0.208113 1.9229 0
M  V30 29 C 6.73369 0.427866 2.11425 0
M  V30 30 C 7.55406 0.577885 1.03053 0
M  V30 31 C 7.08834 0.517452 -0.25425 0
M  V30 32 H -3.86624 2.92225 3.95021 0
M  V30 33 H -4.77021 1.31844 3.98536 0
M  V30 34 H -4.33255 1.36547 -1.69158 0
M  V30 35 H -5.67484 0.265025 -3.38719 0
M  V30 36 H -6.0676 -2.19524 -3.31628 0
M  V30 37 H -5.10413 -3.50942 -1.54302 0
M  V30 38 H -3.71838 -2.36831 0.206884 0
M  V30 39 H -1.29008 -1.9385 -1.77935 0
M  V30 40 H -1.55159 -0.282321 -2.49917 0
M  V30 41 H 3.45483 -0.0491621 -2.91202 0
M  V30 42 H 5.88427 0.348174 -2.55872 0
M  V30 43 H 2.92253 -0.202027 1.28601 0
M  V30 44 H 4.69041 0.0809866 2.75878 0
M  V30 45 H 7.12646 0.479326 3.1405 0
M  V30 46 H 8.62722 0.753681 1.15398 0
M  V30 47 H 7.69596 0.629574 -1.14113 0
M  V30 END ATOM
M  V30 BEGIN BOND
M  V30 1 3 1 2
M  V30 2 1 2 3
M  V30 3 2 3 4
M  V30 4 1 4 5
M  V30 5 1 4 6
M  V30 6 2 6 7
M  V30 7 1 7 8
M  V30 8 2 8 9
M  V30 9 1 9 10
M  V30 10 2 10 11
M  V30 11 1 11 12
M  V30 12 2 12 13
M  V30 13 1 13 14
M  V30 14 2 14 15
M  V30 15 1 8 16
M  V30 16 1 16 17
M  V30 17 2 16 18
M  V30 18 1 18 19
M  V30 19 1 18 20
M  V30 20 2 20 21
M  V30 21 1 20 22
M  V30 22 2 22 23
M  V30 23 1 23 24
M  V30 24 2 24 25
M  V30 25 1 25 26
M  V30 26 2 26 27
M  V30 27 1 26 28
M  V30 28 2 28 29
M  V30 29 1 29 30
M  V30 30 2 30 31
M  V30 31 1 9 3
M  V30 32 1 15 10
M  V30 33 1 27 22
M  V30 34 1 19 7
M  V30 35 1 31 25
M  V30 36 1 5 32
M  V30 37 1 5 33
M  V30 38 1 11 34
M  V30 39 1 12 35
M  V30 40 1 13 36
M  V30 41 1 14 37
M  V30 42 1 15 38
M  V30 43 1 17 39
M  V30 44 1 17 40
M  V30 45 1 23 41
M  V30 46 1 24 42
M  V30 47 1 27 43
M  V30 48 1 28 44
M  V30 49 1 29 45
M  V30 50 1 30 46
M  V30 51 1 31 47
M  V30 END BOND
M  V30 END CTAB
M  END
