
     RDKit          3D

  0  0  0  0  0  0  0  0  0  0999 V3000
M  V30 BEGIN CTAB
M  V30 COUNTS 22 21 0 0 0
M  V30 BEGIN ATOM
M  V30 1 C 2.10908 1.41167 -1.31282 0
M  V30 2 C 2.06382 1.45056 0.169048 0
M  V30 3 C 1.42528 0.52077 0.837118 0
M  V30 4 C 0.747976 -0.57322 0.070912 0
M  V30 5 C -0.712833 -0.512223 0.41086 0
M  V30 6 C -1.52918 -1.56307 -0.292274 0
M  V30 7 N -2.89754 -1.39019 0.121549 0
M  V30 8 N -1.24751 0.78713 0.0449801 0
M  V30 9 H 2.68258 2.28222 -1.70331 0
M  V30 10 H 2.6465 0.462637 -1.58149 0
M  V30 11 H 1.11078 1.46789 -1.7648 0
M  V30 12 H 2.55577 2.24623 0.741444 0
M  V30 13 H 1.38326 0.53701 1.93981 0
M  V30 14 H 1.19136 -1.52269 0.446339 0
M  V30 15 H 0.898843 -0.448531 -1.01165 0
M  V30 16 H -0.841321 -0.621378 1.49663 0
M  V30 17 H -1.42946 -1.4916 -1.39441 0
M  V30 18 H -1.2132 -2.57965 0.0435827 0
M  V30 19 H -3.34285 -2.2223 0.512714 0
M  V30 20 H -3.46084 -0.795746 -0.486452 0
M  V30 21 H -1.10457 1.03445 -0.938263 0
M  V30 22 H -1.03594 1.52002 0.736082 0
M  V30 END ATOM
M  V30 BEGIN BOND
M  V30 1 1 1 2
M  V30 2 2 2 3 CFG=2
M  V30 3 1 3 4
M  V30 4 1 4 5
M  V30 5 1 5 6
M  V30 6 1 6 7
M  V30 7 1 5 8
M  V30 8 1 1 9
M  V30 9 1 1 10
M  V30 10 1 1 11
M  V30 11 1 2 12
M  V30 12 1 3 13
M  V30 13 1 4 14
M  V30 14 1 4 15
M  V30 15 1 5 16
M  V30 16 1 6 17
M  V30 17 1 6 18
M  V30 18 1 7 19
M  V30 19 1 7 20
M  V30 20 1 8 21
M  V30 21 1 8 22
M  V30 END BOND
M  V30 END CTAB
M  END
