
     RDKit          3D

  0  0  0  0  0  0  0  0  0  0999 V3000
M  V30 BEGIN CTAB
M  V30 COUNTS 32 34 0 0 0
M  V30 BEGIN ATOM
M  V30 1 O 0.21626 0.733643 3.77117 0
M  V30 2 C -0.321296 0.211121 2.75889 0
M  V30 3 N -1.50853 0.781388 2.23697 0
M  V30 4 C -1.83948 0.445822 0.877108 0
M  V30 5 N -2.97681 0.986518 0.400136 0
M  V30 6 C -3.35735 0.710715 -0.855549 0
M  V30 7 N -4.55816 1.26703 -1.39435 0
M  V30 8 N -2.58066 -0.0933489 -1.57314 0
M  V30 9 C -1.43298 -0.661705 -1.14675 0
M  V30 10 C -1.01786 -0.392987 0.144827 0
M  V30 11 C 0.238778 -0.987323 0.654934 0
M  V30 12 C 0.321384 -0.981775 2.16297 0
M  V30 13 C 1.45427 -0.367384 0.0804281 0
M  V30 14 C 2.27536 -1.08782 -0.751278 0
M  V30 15 C 3.42274 -0.516825 -1.31238 0
M  V30 16 C 3.76809 0.787498 -1.04932 0
M  V30 17 C 2.94277 1.51028 -0.213357 0
M  V30 18 C 1.81577 0.945056 0.335878 0
M  V30 19 F 3.2764 2.79933 0.0520874 0
M  V30 20 N -0.694194 -1.51318 -2.02733 0
M  V30 21 H -2.12198 1.41697 2.80448 0
M  V30 22 H -5.04307 0.792134 -2.16743 0
M  V30 23 H -4.94907 2.14365 -1.01742 0
M  V30 24 H 0.238345 -2.05567 0.355635 0
M  V30 25 H -0.11408 -1.87511 2.63693 0
M  V30 26 H 1.39571 -0.950696 2.43161 0
M  V30 27 H 2.05219 -2.12851 -0.985921 0
M  V30 28 H 4.06136 -1.08945 -1.96431 0
M  V30 29 H 4.65674 1.25233 -1.47527 0
M  V30 30 H 1.18652 1.52963 0.985794 0
M  V30 31 H -0.145337 -1.06666 -2.79131 0
M  V30 32 H -0.661848 -2.54468 -1.96473 0
M  V30 END ATOM
M  V30 BEGIN BOND
M  V30 1 2 1 2
M  V30 2 1 2 3
M  V30 3 1 3 4
M  V30 4 2 4 5
M  V30 5 1 5 6
M  V30 6 1 6 7
M  V30 7 2 6 8
M  V30 8 1 8 9
M  V30 9 2 9 10
M  V30 10 1 10 11
M  V30 11 1 11 12
M  V30 12 1 11 13
M  V30 13 2 13 14
M  V30 14 1 14 15
M  V30 15 2 15 16
M  V30 16 1 16 17
M  V30 17 2 17 18
M  V30 18 1 17 19
M  V30 19 1 9 20
M  V30 20 1 12 2
M  V30 21 1 18 13
M  V30 22 1 10 4
M  V30 23 1 3 21
M  V30 24 1 7 22
M  V30 25 1 7 23
M  V30 26 1 11 24
M  V30 27 1 12 25
M  V30 28 1 12 26
M  V30 29 1 14 27
M  V30 30 1 15 28
M  V30 31 1 16 29
M  V30 32 1 18 30
M  V30 33 1 20 31
M  V30 34 1 20 32
M  V30 END BOND
M  V30 END CTAB
M  END
