
     RDKit          3D

  0  0  0  0  0  0  0  0  0  0999 V3000
M  V30 BEGIN CTAB
M  V30 COUNTS 44 46 0 0 0
M  V30 BEGIN ATOM
M  V30 1 C 5.83672 -1.03558 1.94358 0
M  V30 2 O 4.55468 -0.728186 1.43054 0
M  V30 3 C 4.49402 0.327696 0.50644 0
M  V30 4 C 5.60978 1.02921 0.115302 0
M  V30 5 C 5.56013 2.06679 -0.790874 0
M  V30 6 C 4.35385 2.43806 -1.34426 0
M  V30 7 C 3.21956 1.74149 -0.960988 0
M  V30 8 C 3.26846 0.703591 -0.0546551 0
M  V30 9 O 2.18571 -0.0168128 0.359167 0
M  V30 10 C 0.848973 0.105238 -0.00432141 0
M  V30 11 C -0.0277049 0.480269 1.19286 0
M  V30 12 C -1.35366 0.934195 0.565109 0
M  V30 13 N -1.95079 -0.310986 0.0783832 0
M  V30 14 C -1.14546 -1.42536 -0.327307 0
M  V30 15 C 0.276268 -1.13982 -0.623364 0
M  V30 16 C -3.37168 -0.35337 0.0305997 0
M  V30 17 C -4.03178 -1.4948 -0.390173 0
M  V30 18 C -5.42488 -1.56369 -0.447245 0
M  V30 19 N -6.08313 -2.74753 -0.883004 0
M  V30 20 N -6.10698 -0.477236 -0.0773683 0
M  V30 21 C -5.49586 0.652846 0.338256 0
M  V30 22 N -4.14529 0.681797 0.380132 0
M  V30 23 N -6.2518 1.78765 0.723531 0
M  V30 24 H 5.78625 -1.92974 2.61266 0
M  V30 25 H 6.23975 -0.211203 2.56612 0
M  V30 26 H 6.56606 -1.28006 1.15323 0
M  V30 27 H 6.56963 0.753689 0.53848 0
M  V30 28 H 6.45205 2.61363 -1.09143 0
M  V30 29 H 4.28681 3.25171 -2.06033 0
M  V30 30 H 2.24484 2.02584 -1.39451 0
M  V30 31 H 0.714298 0.919109 -0.736128 0
M  V30 32 H -0.221267 -0.470362 1.72917 0
M  V30 33 H 0.404343 1.27022 1.80431 0
M  V30 34 H -1.13535 1.52939 -0.357989 0
M  V30 35 H -1.98042 1.45314 1.29088 0
M  V30 36 H -1.24773 -2.27692 0.40515 0
M  V30 37 H -1.62907 -1.83394 -1.26477 0
M  V30 38 H 0.468704 -1.16176 -1.73084 0
M  V30 39 H 0.897552 -1.99669 -0.228416 0
M  V30 40 H -3.50056 -2.37501 -0.689679 0
M  V30 41 H -5.63337 -3.66679 -0.805893 0
M  V30 42 H -7.04259 -2.70167 -1.292 0
M  V30 43 H -7.02654 1.71231 1.40129 0
M  V30 44 H -6.03252 2.71963 0.323526 0
M  V30 END ATOM
M  V30 BEGIN BOND
M  V30 1 1 1 2
M  V30 2 1 2 3
M  V30 3 2 3 4
M  V30 4 1 4 5
M  V30 5 2 5 6
M  V30 6 1 6 7
M  V30 7 2 7 8
M  V30 8 1 8 9
M  V30 9 1 9 10
M  V30 10 1 10 11
M  V30 11 1 11 12
M  V30 12 1 12 13
M  V30 13 1 13 14
M  V30 14 1 14 15
M  V30 15 1 13 16
M  V30 16 2 16 17
M  V30 17 1 17 18
M  V30 18 1 18 19
M  V30 19 2 18 20
M  V30 20 1 20 21
M  V30 21 2 21 22
M  V30 22 1 21 23
M  V30 23 1 8 3
M  V30 24 1 15 10
M  V30 25 1 22 16
M  V30 26 1 1 24
M  V30 27 1 1 25
M  V30 28 1 1 26
M  V30 29 1 4 27
M  V30 30 1 5 28
M  V30 31 1 6 29
M  V30 32 1 7 30
M  V30 33 1 10 31
M  V30 34 1 11 32
M  V30 35 1 11 33
M  V30 36 1 12 34
M  V30 37 1 12 35
M  V30 38 1 14 36
M  V30 39 1 14 37
M  V30 40 1 15 38
M  V30 41 1 15 39
M  V30 42 1 17 40
M  V30 43 1 19 41
M  V30 44 1 19 42
M  V30 45 1 23 43
M  V30 46 1 23 44
M  V30 END BOND
M  V30 END CTAB
M  END
