
     RDKit          3D

  0  0  0  0  0  0  0  0  0  0999 V3000
M  V30 BEGIN CTAB
M  V30 COUNTS 25 25 0 0 0
M  V30 BEGIN ATOM
M  V30 1 C 2.36295 -1.03745 0.153418 0
M  V30 2 C 2.0363 0.158006 -0.71544 0
M  V30 3 N 3.27421 0.882833 -0.926453 0
M  V30 4 C 1.06721 1.09554 -0.0614963 0
M  V30 5 C -0.235279 0.45651 0.259426 0
M  V30 6 C -1.30585 0.433834 -0.616343 0
M  V30 7 C -2.50702 -0.159048 -0.311469 0
M  V30 8 N -3.60777 -0.178961 -1.21965 0
M  V30 9 C -2.69392 -0.768488 0.909426 0
M  V30 10 C -1.64749 -0.761043 1.79886 0
M  V30 11 C -0.456454 -0.16337 1.47435 0
M  V30 12 H 1.56327 -1.80197 0.0661468 0
M  V30 13 H 3.30943 -1.52344 -0.161026 0
M  V30 14 H 2.47259 -0.747802 1.22609 0
M  V30 15 H 1.59432 -0.190207 -1.66583 0
M  V30 16 H 3.53455 1.30838 0.00303158 0
M  V30 17 H 3.1894 1.61052 -1.67168 0
M  V30 18 H 0.863482 1.91256 -0.795384 0
M  V30 19 H 1.49087 1.60104 0.831587 0
M  V30 20 H -1.16151 0.912785 -1.57804 0
M  V30 21 H -4.29575 -0.972673 -1.21991 0
M  V30 22 H -3.76846 0.593065 -1.91499 0
M  V30 23 H -3.65491 -1.24409 1.15622 0
M  V30 24 H -1.78526 -1.24182 2.77038 0
M  V30 25 H 0.361084 -0.174721 2.20878 0
M  V30 END ATOM
M  V30 BEGIN BOND
M  V30 1 1 1 2
M  V30 2 1 2 3
M  V30 3 1 2 4
M  V30 4 1 4 5
M  V30 5 2 5 6
M  V30 6 1 6 7
M  V30 7 1 7 8
M  V30 8 2 7 9
M  V30 9 1 9 10
M  V30 10 2 10 11
M  V30 11 1 11 5
M  V30 12 1 1 12
M  V30 13 1 1 13
M  V30 14 1 1 14
M  V30 15 1 2 15
M  V30 16 1 3 16
M  V30 17 1 3 17
M  V30 18 1 4 18
M  V30 19 1 4 19
M  V30 20 1 6 20
M  V30 21 1 8 21
M  V30 22 1 8 22
M  V30 23 1 9 23
M  V30 24 1 10 24
M  V30 25 1 11 25
M  V30 END BOND
M  V30 END CTAB
M  END
