
     RDKit          3D

  0  0  0  0  0  0  0  0  0  0999 V3000
M  V30 BEGIN CTAB
M  V30 COUNTS 68 73 0 0 0
M  V30 BEGIN ATOM
M  V30 1 Cl 10.0505 -2.01776 2.3998 0
M  V30 2 C 8.99145 -1.26985 1.32099 0
M  V30 3 C 9.08364 0.0702135 1.10468 0
M  V30 4 C 8.21311 0.694776 0.215633 0
M  V30 5 C 7.25336 -0.0419933 -0.449866 0
M  V30 6 C 7.13569 -1.4093 -0.249525 0
M  V30 7 C 8.02614 -1.994 0.647913 0
M  V30 8 N 6.14009 -1.86592 -1.00796 0
M  V30 9 C 5.61007 -0.811157 -1.69825 0
M  V30 10 N 6.31337 0.260667 -1.32793 0
M  V30 11 C 4.48583 -0.977703 -2.65813 0
M  V30 12 C 3.17025 -0.866329 -1.97504 0
M  V30 13 C 2.95268 0.446805 -1.37448 0
M  V30 14 O 3.67615 1.4241 -1.63414 0
M  V30 15 N 1.88467 0.644784 -0.461951 0
M  V30 16 C 1.00584 -0.450206 -0.115762 0
M  V30 17 C 0.158699 -0.038564 1.04171 0
M  V30 18 C -0.703802 1.15706 0.700246 0
M  V30 19 C 0.127104 2.21089 -0.0165998 0
M  V30 20 C 1.61469 1.92557 0.162788 0
M  V30 21 O -1.19693 1.64285 1.9102 0
M  V30 22 C -2.26621 2.49227 1.77202 0
M  V30 23 C -3.49646 1.75004 1.2711 0 CFG=2
M  V30 24 C -3.09498 0.516421 0.54091 0 CFG=2
M  V30 25 C -1.82123 0.756144 -0.23755 0
M  V30 26 N -4.11534 0.00900322 -0.349832 0
M  V30 27 C -4.32451 0.271098 -1.64909 0
M  V30 28 N -5.38956 -0.418782 -2.09106 0
M  V30 29 C -5.8911 -1.13985 -1.09094 0
M  V30 30 C -5.08127 -0.865094 0.00695841 0
M  V30 31 N -5.35666 -1.46846 1.18884 0
M  V30 32 C -6.39094 -2.31805 1.30751 0
M  V30 33 N -6.67534 -2.95608 2.57314 0
M  V30 34 N -7.15865 -2.56637 0.229637 0
M  V30 35 C -6.95758 -2.01307 -0.977168 0
M  V30 36 N -7.75606 -2.26225 -2.12475 0
M  V30 37 C -4.28273 2.72479 0.427739 0
M  V30 38 O -4.29618 1.40361 2.35985 0
M  V30 39 H 9.82945 0.652759 1.61967 0
M  V30 40 H 8.29957 1.76824 0.0534074 0
M  V30 41 H 7.95096 -3.04986 0.816229 0
M  V30 42 H 5.81638 -2.8488 -1.07041 0
M  V30 43 H 4.53434 -1.98909 -3.13249 0
M  V30 44 H 4.56934 -0.178586 -3.44061 0
M  V30 45 H 3.07093 -1.7001 -1.22426 0
M  V30 46 H 2.35316 -1.09118 -2.71305 0
M  V30 47 H 1.62632 -1.33525 0.193823 0
M  V30 48 H 0.409752 -0.712729 -1.00598 0
M  V30 49 H -0.486474 -0.844754 1.43118 0
M  V30 50 H 0.860251 0.305738 1.85784 0
M  V30 51 H -0.0568823 2.15016 -1.10861 0
M  V30 52 H -0.138293 3.20568 0.338891 0
M  V30 53 H 2.16139 2.70924 -0.36819 0
M  V30 54 H 1.89134 1.95291 1.22635 0
M  V30 55 H -2.512 2.90321 2.75818 0
M  V30 56 H -2.02207 3.35465 1.10518 0
M  V30 57 H -2.86612 -0.270837 1.28978 0
M  V30 58 H -1.97496 1.53433 -1.01142 0
M  V30 59 H -1.53594 -0.203593 -0.701592 0
M  V30 60 H -3.7268 0.93263 -2.23753 0
M  V30 61 H -6.4245 -2.54005 3.47564 0
M  V30 62 H -7.15822 -3.88111 2.54307 0
M  V30 63 H -7.76954 -3.18319 -2.62958 0
M  V30 64 H -8.38406 -1.52217 -2.53155 0
M  V30 65 H -3.76876 3.00592 -0.503738 0
M  V30 66 H -4.39151 3.65326 1.02528 0
M  V30 67 H -5.31211 2.33778 0.262629 0
M  V30 68 H -4.48279 2.23449 2.86068 0
M  V30 END ATOM
M  V30 BEGIN BOND
M  V30 1 1 1 2
M  V30 2 2 2 3
M  V30 3 1 3 4
M  V30 4 2 4 5
M  V30 5 1 5 6
M  V30 6 2 6 7
M  V30 7 1 6 8
M  V30 8 1 8 9
M  V30 9 2 9 10
M  V30 10 1 9 11
M  V30 11 1 11 12
M  V30 12 1 12 13
M  V30 13 2 13 14
M  V30 14 1 13 15
M  V30 15 1 15 16
M  V30 16 1 16 17
M  V30 17 1 17 18
M  V30 18 1 18 19
M  V30 19 1 19 20
M  V30 20 1 18 21
M  V30 21 1 21 22
M  V30 22 1 22 23
M  V30 23 1 23 24
M  V30 24 1 24 25
M  V30 25 1 24 26
M  V30 26 1 26 27
M  V30 27 2 27 28
M  V30 28 1 28 29
M  V30 29 2 29 30
M  V30 30 1 30 31
M  V30 31 2 31 32
M  V30 32 1 32 33
M  V30 33 1 32 34
M  V30 34 2 34 35
M  V30 35 1 35 36
M  V30 36 1 23 37
M  V30 37 1 23 38 CFG=1
M  V30 38 1 7 2
M  V30 39 1 20 15
M  V30 40 1 30 26
M  V30 41 1 10 5
M  V30 42 1 25 18
M  V30 43 1 35 29
M  V30 44 1 3 39
M  V30 45 1 4 40
M  V30 46 1 7 41
M  V30 47 1 8 42
M  V30 48 1 11 43
M  V30 49 1 11 44
M  V30 50 1 12 45
M  V30 51 1 12 46
M  V30 52 1 16 47
M  V30 53 1 16 48
M  V30 54 1 17 49
M  V30 55 1 17 50
M  V30 56 1 19 51
M  V30 57 1 19 52
M  V30 58 1 20 53
M  V30 59 1 20 54
M  V30 60 1 22 55
M  V30 61 1 22 56
M  V30 62 1 24 57 CFG=1
M  V30 63 1 25 58
M  V30 64 1 25 59
M  V30 65 1 27 60
M  V30 66 1 33 61
M  V30 67 1 33 62
M  V30 68 1 36 63
M  V30 69 1 36 64
M  V30 70 1 37 65
M  V30 71 1 37 66
M  V30 72 1 37 67
M  V30 73 1 38 68
M  V30 END BOND
M  V30 END CTAB
M  END
