
     RDKit          3D

  0  0  0  0  0  0  0  0  0  0999 V3000
M  V30 BEGIN CTAB
M  V30 COUNTS 15 15 0 0 0
M  V30 BEGIN ATOM
M  V30 1 N -2.55595 0.101419 0.107884 0
M  V30 2 C -1.24331 -0.425262 -0.033796 0
M  V30 3 N -0.87568 -1.7033 -0.283846 0
M  V30 4 N 0.452894 -1.79552 -0.344536 0
M  V30 5 C 0.977228 -0.576958 -0.132735 0
M  V30 6 N 2.34094 -0.177147 -0.0822627 0
M  V30 7 C -0.0738982 0.298588 0.0635843 0
M  V30 8 N 0.0616575 1.69261 0.300399 0 CHG=1
M  V30 9 O 0.353816 2.58412 -0.728991 0 CHG=-1
M  V30 10 O -0.0585898 2.18062 1.43759 0
M  V30 11 H -2.93436 0.919778 -0.415753 0
M  V30 12 H -3.19813 -0.363058 0.796933 0
M  V30 13 H 1.01407 -2.65809 -0.526786 0
M  V30 14 H 2.70643 0.601884 0.514135 0
M  V30 15 H 3.03287 -0.679681 -0.671819 0
M  V30 END ATOM
M  V30 BEGIN BOND
M  V30 1 1 1 2
M  V30 2 2 2 3
M  V30 3 1 3 4
M  V30 4 1 4 5
M  V30 5 1 5 6
M  V30 6 2 5 7
M  V30 7 1 7 8
M  V30 8 1 8 9
M  V30 9 2 8 10
M  V30 10 1 7 2
M  V30 11 1 1 11
M  V30 12 1 1 12
M  V30 13 1 4 13
M  V30 14 1 6 14
M  V30 15 1 6 15
M  V30 END BOND
M  V30 END CTAB
M  END
