
     RDKit          3D

  0  0  0  0  0  0  0  0  0  0999 V3000
M  V30 BEGIN CTAB
M  V30 COUNTS 20 21 0 0 0
M  V30 BEGIN ATOM
M  V30 1 Cl -5.22481 -0.666412 -1.16073 0
M  V30 2 C -3.5123 -0.500345 -0.803644 0
M  V30 3 C -2.99832 -0.766748 0.447429 0
M  V30 4 C -1.63633 -0.607167 0.631894 0
M  V30 5 C -0.797792 -0.197567 -0.380747 0
M  V30 6 N -1.35873 0.0460976 -1.57584 0
M  V30 7 N -2.67267 -0.101699 -1.77605 0
M  V30 8 N 0.598377 -0.0497365 -0.1347 0
M  V30 9 N 1.52779 -0.982499 -0.0703809 0
M  V30 10 C 2.7462 -0.474851 0.180864 0
M  V30 11 N 2.54399 0.871662 0.277184 0
M  V30 12 C 1.23829 1.10541 0.0829655 0
M  V30 13 N 0.678667 2.41414 0.116306 0
M  V30 14 N 3.97975 -1.16256 0.319304 0
M  V30 15 H -3.66921 -1.08652 1.22896 0
M  V30 16 H -1.22325 -0.81739 1.62333 0
M  V30 17 H 0.658985 2.95686 1.0164 0
M  V30 18 H 0.288205 2.83177 -0.757221 0
M  V30 19 H 4.44276 -1.53411 -0.516824 0
M  V30 20 H 4.39041 -1.27834 1.2515 0
M  V30 END ATOM
M  V30 BEGIN BOND
M  V30 1 1 1 2
M  V30 2 2 2 3
M  V30 3 1 3 4
M  V30 4 2 4 5
M  V30 5 1 5 6
M  V30 6 2 6 7
M  V30 7 1 5 8
M  V30 8 1 8 9
M  V30 9 2 9 10
M  V30 10 1 10 11
M  V30 11 2 11 12
M  V30 12 1 12 13
M  V30 13 1 10 14
M  V30 14 1 7 2
M  V30 15 1 12 8
M  V30 16 1 3 15
M  V30 17 1 4 16
M  V30 18 1 13 17
M  V30 19 1 13 18
M  V30 20 1 14 19
M  V30 21 1 14 20
M  V30 END BOND
M  V30 END CTAB
M  END
