
     RDKit          3D

  0  0  0  0  0  0  0  0  0  0999 V3000
M  V30 BEGIN CTAB
M  V30 COUNTS 42 42 0 0 0
M  V30 BEGIN ATOM
M  V30 1 N -5.71802 2.42742 0.765231 0
M  V30 2 C -5.74549 1.93897 -0.570532 0
M  V30 3 C -6.01077 0.46241 -0.567324 0
M  V30 4 O -5.04899 -0.234654 0.121859 0
M  V30 5 C -3.72931 -0.419577 -0.113585 0
M  V30 6 C -3.01816 -1.16981 0.852392 0
M  V30 7 C -1.67333 -1.39805 0.66927 0
M  V30 8 C -1.0095 -0.916708 -0.424122 0
M  V30 9 C -1.71442 -0.197755 -1.34202 0
M  V30 10 C -3.08455 0.0613373 -1.20101 0
M  V30 11 N 0.373852 -1.12692 -0.581817 0
M  V30 12 C 1.23087 -1.08827 0.534715 0
M  V30 13 O 0.839861 -0.857451 1.70763 0
M  V30 14 C 2.71612 -1.33853 0.319502 0 CFG=2
M  V30 15 C 3.38624 -0.0282331 0.606283 0
M  V30 16 C 4.86436 -0.0051566 0.481852 0
M  V30 17 C 5.37642 -0.343627 -0.88512 0
M  V30 18 C 5.31737 1.42045 0.826046 0
M  V30 19 N 2.87311 -1.84114 -0.99508 0
M  V30 20 H -5.54619 3.40943 0.823895 0
M  V30 21 H -5.18022 1.81744 1.36845 0
M  V30 22 H -6.63329 2.43873 -1.07611 0
M  V30 23 H -4.83001 2.21326 -1.08819 0
M  V30 24 H -6.03941 0.0814004 -1.6196 0
M  V30 25 H -7.01443 0.265545 -0.0908755 0
M  V30 26 H -3.51155 -1.56516 1.72842 0
M  V30 27 H -1.18685 -2.00269 1.45254 0
M  V30 28 H -1.21057 0.201027 -2.22483 0
M  V30 29 H -3.56768 0.613012 -1.97543 0
M  V30 30 H 0.794039 -1.31907 -1.54368 0
M  V30 31 H 3.03118 -2.07173 1.086 0
M  V30 32 H 2.96939 0.781889 -0.049309 0
M  V30 33 H 3.12001 0.253317 1.64842 0
M  V30 34 H 5.34074 -0.655552 1.27359 0
M  V30 35 H 6.46866 -0.0356286 -0.960179 0
M  V30 36 H 4.8033 0.239234 -1.62783 0
M  V30 37 H 5.39954 -1.42933 -1.05587 0
M  V30 38 H 6.42264 1.44977 0.939643 0
M  V30 39 H 4.80773 1.75823 1.72829 0
M  V30 40 H 5.05801 2.08733 -0.00812707 0
M  V30 41 H 2.88519 -1.16767 -1.76923 0
M  V30 42 H 3.39408 -2.70748 -1.12025 0
M  V30 END ATOM
M  V30 BEGIN BOND
M  V30 1 1 1 2
M  V30 2 1 2 3
M  V30 3 1 3 4
M  V30 4 1 4 5
M  V30 5 2 5 6
M  V30 6 1 6 7
M  V30 7 2 7 8
M  V30 8 1 8 9
M  V30 9 2 9 10
M  V30 10 1 8 11
M  V30 11 1 11 12
M  V30 12 2 12 13
M  V30 13 1 12 14
M  V30 14 1 14 15
M  V30 15 1 15 16
M  V30 16 1 16 17
M  V30 17 1 16 18
M  V30 18 1 14 19
M  V30 19 1 10 5
M  V30 20 1 1 20
M  V30 21 1 1 21
M  V30 22 1 2 22
M  V30 23 1 2 23
M  V30 24 1 3 24
M  V30 25 1 3 25
M  V30 26 1 6 26
M  V30 27 1 7 27
M  V30 28 1 9 28
M  V30 29 1 10 29
M  V30 30 1 11 30
M  V30 31 1 14 31 CFG=1
M  V30 32 1 15 32
M  V30 33 1 15 33
M  V30 34 1 16 34
M  V30 35 1 17 35
M  V30 36 1 17 36
M  V30 37 1 17 37
M  V30 38 1 18 38
M  V30 39 1 18 39
M  V30 40 1 18 40
M  V30 41 1 19 41
M  V30 42 1 19 42
M  V30 END BOND
M  V30 END CTAB
M  END
