
     RDKit          3D

  0  0  0  0  0  0  0  0  0  0999 V3000
M  V30 BEGIN CTAB
M  V30 COUNTS 34 35 0 0 0
M  V30 BEGIN ATOM
M  V30 1 N -5.88321 -0.222395 1.31189 0
M  V30 2 C -4.64129 -0.289769 0.600307 0
M  V30 3 C -4.5165 -0.28984 -0.763078 0
M  V30 4 C -3.25599 -0.375113 -1.35989 0
M  V30 5 C -2.11595 -0.460843 -0.622791 0
M  V30 6 C -0.73744 -0.591738 -1.10108 0
M  V30 7 N -0.0552252 0.626005 -1.45882 0
M  V30 8 C 0.703126 1.15181 -0.377445 0
M  V30 9 C 2.10997 0.767524 -0.247516 0
M  V30 10 C 2.44374 0.0408162 0.925997 0
M  V30 11 C 3.7083 -0.387591 1.19256 0
M  V30 12 C 4.75408 -0.132918 0.314119 0
M  V30 13 N 6.07058 -0.607181 0.618193 0
M  V30 14 C 4.43757 0.571343 -0.825356 0
M  V30 15 C 3.13623 1.00943 -1.09445 0
M  V30 16 C -2.26764 -0.459629 0.789168 0
M  V30 17 C -3.49765 -0.37698 1.37725 0
M  V30 18 H -6.00922 0.630143 1.92023 0
M  V30 19 H -6.63174 -0.905698 1.28524 0
M  V30 20 H -5.40959 -0.226286 -1.36655 0
M  V30 21 H -3.23127 -0.361622 -2.45817 0
M  V30 22 H -0.82615 -1.15872 -2.10641 0
M  V30 23 H -0.100734 -1.28051 -0.506049 0
M  V30 24 H -0.814078 1.31379 -1.71555 0
M  V30 25 H 0.640559 2.30319 -0.500284 0
M  V30 26 H 0.134442 1.0133 0.57815 0
M  V30 27 H 1.62755 -0.170285 1.63458 0
M  V30 28 H 3.94803 -0.949577 2.1071 0
M  V30 29 H 6.59451 -0.301263 1.49034 0
M  V30 30 H 6.56721 -1.27215 -0.0132108 0
M  V30 31 H 5.22141 0.789592 -1.52497 0
M  V30 32 H 2.91245 1.572 -2.00463 0
M  V30 33 H -1.40392 -0.52924 1.42923 0
M  V30 34 H -3.61215 -0.376548 2.4719 0
M  V30 END ATOM
M  V30 BEGIN BOND
M  V30 1 1 1 2
M  V30 2 2 2 3
M  V30 3 1 3 4
M  V30 4 2 4 5
M  V30 5 1 5 6
M  V30 6 1 6 7
M  V30 7 1 7 8
M  V30 8 1 8 9
M  V30 9 2 9 10
M  V30 10 1 10 11
M  V30 11 2 11 12
M  V30 12 1 12 13
M  V30 13 1 12 14
M  V30 14 2 14 15
M  V30 15 1 5 16
M  V30 16 2 16 17
M  V30 17 1 17 2
M  V30 18 1 15 9
M  V30 19 1 1 18
M  V30 20 1 1 19
M  V30 21 1 3 20
M  V30 22 1 4 21
M  V30 23 1 6 22
M  V30 24 1 6 23
M  V30 25 1 7 24
M  V30 26 1 8 25
M  V30 27 1 8 26
M  V30 28 1 10 27
M  V30 29 1 11 28
M  V30 30 1 13 29
M  V30 31 1 13 30
M  V30 32 1 14 31
M  V30 33 1 15 32
M  V30 34 1 16 33
M  V30 35 1 17 34
M  V30 END BOND
M  V30 END CTAB
M  END
