
     RDKit          3D

  0  0  0  0  0  0  0  0  0  0999 V3000
M  V30 BEGIN CTAB
M  V30 COUNTS 44 46 0 0 0
M  V30 BEGIN ATOM
M  V30 1 C 3.99952 3.33124 -2.03407 0
M  V30 2 O 3.00953 2.45639 -1.52777 0
M  V30 3 C 3.45595 1.40424 -0.729803 0
M  V30 4 C 2.4953 0.545498 -0.23071 0
M  V30 5 C 2.91614 -0.517196 0.571991 0
M  V30 6 C 4.23858 -0.747788 0.887587 0
M  V30 7 C 5.17002 0.156056 0.353086 0
M  V30 8 C 4.79629 1.20738 -0.43603 0
M  V30 9 C 4.69461 -1.84675 1.7195 0
M  V30 10 N 6.08098 -1.9778 1.96989 0
M  V30 11 N 3.88954 -2.67854 2.21756 0
M  V30 12 C 1.10306 0.764697 -0.545009 0
M  V30 13 C 0.0339604 -0.025582 -0.109211 0
M  V30 14 C -1.13257 0.472381 -0.596855 0
M  V30 15 N -0.715345 1.5774 -1.32776 0
M  V30 16 O 0.566308 1.68666 -1.25752 0
M  V30 17 C -2.53263 0.137398 -0.394773 0
M  V30 18 C -3.36847 1.24577 -0.125469 0
M  V30 19 C -4.72543 1.12177 0.0309593 0
M  V30 20 C -5.31598 -0.113921 -0.0733411 0
M  V30 21 C -4.49573 -1.18078 -0.336065 0
M  V30 22 C -3.09481 -1.09545 -0.505227 0
M  V30 23 N -2.43986 -2.298 -0.869345 0 CHG=1
M  V30 24 O -1.19839 -2.72501 -0.614992 0 CHG=-1
M  V30 25 O -3.16594 -3.09201 -1.58114 0
M  V30 26 C -6.76459 -0.303172 0.0884875 0
M  V30 27 N -7.31542 -1.63839 -0.0419005 0
M  V30 28 N -7.55577 0.647336 0.336522 0
M  V30 29 H 4.77103 2.78412 -2.64719 0
M  V30 30 H 3.54882 4.09941 -2.6941 0
M  V30 31 H 4.50475 3.88481 -1.1955 0
M  V30 32 H 2.14972 -1.1737 0.949011 0
M  V30 33 H 6.20224 -0.00389542 0.585196 0
M  V30 34 H 5.49737 1.92174 -0.862311 0
M  V30 35 H 6.74069 -1.88425 1.17272 0
M  V30 36 H 6.45831 -2.16172 2.90741 0
M  V30 37 H 2.87397 -2.62062 2.06034 0
M  V30 38 H 0.177689 -0.869082 0.550595 0
M  V30 39 H -2.95524 2.24354 -0.0330062 0
M  V30 40 H -5.3577 1.99116 0.239072 0
M  V30 41 H -4.96314 -2.17385 -0.418825 0
M  V30 42 H -8.18321 -1.75625 -0.610305 0
M  V30 43 H -6.81073 -2.40903 0.44198 0
M  V30 44 H -7.28342 1.61378 0.44717 0
M  V30 END ATOM
M  V30 BEGIN BOND
M  V30 1 1 1 2
M  V30 2 1 2 3
M  V30 3 2 3 4
M  V30 4 1 4 5
M  V30 5 2 5 6
M  V30 6 1 6 7
M  V30 7 2 7 8
M  V30 8 1 6 9
M  V30 9 1 9 10
M  V30 10 2 9 11 CFG=2
M  V30 11 1 4 12
M  V30 12 2 12 13
M  V30 13 1 13 14
M  V30 14 2 14 15
M  V30 15 1 15 16
M  V30 16 1 14 17
M  V30 17 2 17 18
M  V30 18 1 18 19
M  V30 19 2 19 20
M  V30 20 1 20 21
M  V30 21 2 21 22
M  V30 22 1 22 23
M  V30 23 1 23 24
M  V30 24 2 23 25
M  V30 25 1 20 26
M  V30 26 1 26 27
M  V30 27 2 26 28 CFG=2
M  V30 28 1 8 3
M  V30 29 1 16 12
M  V30 30 1 22 17
M  V30 31 1 1 29
M  V30 32 1 1 30
M  V30 33 1 1 31
M  V30 34 1 5 32
M  V30 35 1 7 33
M  V30 36 1 8 34
M  V30 37 1 10 35
M  V30 38 1 10 36
M  V30 39 1 11 37
M  V30 40 1 13 38
M  V30 41 1 18 39
M  V30 42 1 19 40
M  V30 43 1 21 41
M  V30 44 1 27 42
M  V30 45 1 27 43
M  V30 46 1 28 44
M  V30 END BOND
M  V30 END CTAB
M  END
