
     RDKit          3D

  0  0  0  0  0  0  0  0  0  0999 V3000
M  V30 BEGIN CTAB
M  V30 COUNTS 43 44 0 0 0
M  V30 BEGIN ATOM
M  V30 1 N 7.18012 -0.692025 0.729382 0
M  V30 2 C 5.85693 -0.291335 0.401749 0
M  V30 3 N 5.18028 -0.811897 -0.643681 0
M  V30 4 C 3.92419 -0.409472 -0.929707 0
M  V30 5 C 3.15999 -0.968821 -2.07382 0
M  V30 6 S 2.20136 -2.40267 -1.59294 0
M  V30 7 C 0.880336 -2.00781 -0.438502 0
M  V30 8 C -0.1846 -1.12828 -1.07761 0
M  V30 9 O -1.17405 -0.861258 -0.135295 0
M  V30 10 C -2.18524 -0.0534673 -0.665219 0
M  V30 11 C -3.47886 -0.817305 -0.50049 0
M  V30 12 C -4.69728 0.0545805 -0.510798 0
M  V30 13 C -5.15024 0.47682 0.848973 0
M  V30 14 C -4.1799 1.33336 1.5837 0
M  V30 15 C -2.74995 0.857049 1.521 0
M  V30 16 C -2.20202 1.21336 0.163962 0
M  V30 17 N 3.39754 0.527297 -0.121074 0
M  V30 18 C 4.0271 1.06474 0.915947 0
M  V30 19 N 5.28445 0.634882 1.1695 0
M  V30 20 N 3.43639 2.0546 1.74944 0
M  V30 21 H 7.40383 -1.63508 1.08407 0
M  V30 22 H 7.94888 0.0240274 0.594832 0
M  V30 23 H 2.5436 -0.205502 -2.59144 0
M  V30 24 H 3.91606 -1.30172 -2.82051 0
M  V30 25 H 0.371737 -2.96091 -0.172722 0
M  V30 26 H 1.26638 -1.56124 0.495795 0
M  V30 27 H 0.303115 -0.158539 -1.3073 0
M  V30 28 H -0.558611 -1.54218 -2.01361 0
M  V30 29 H -1.98678 0.206902 -1.72616 0
M  V30 30 H -3.53005 -1.5018 -1.39772 0
M  V30 31 H -3.48696 -1.48677 0.367723 0
M  V30 32 H -5.52735 -0.551816 -0.958924 0
M  V30 33 H -4.57302 0.918072 -1.20803 0
M  V30 34 H -5.47954 -0.417984 1.40461 0
M  V30 35 H -6.07785 1.10256 0.690448 0
M  V30 36 H -4.19218 2.35984 1.12593 0
M  V30 37 H -4.47424 1.36716 2.65152 0
M  V30 38 H -2.19292 1.37164 2.34017 0
M  V30 39 H -2.71681 -0.213846 1.7571 0
M  V30 40 H -1.14094 1.52938 0.331834 0
M  V30 41 H -2.75212 2.03664 -0.310279 0
M  V30 42 H 2.65825 2.62197 1.3675 0
M  V30 43 H 3.75098 2.22686 2.71146 0
M  V30 END ATOM
M  V30 BEGIN BOND
M  V30 1 1 1 2
M  V30 2 2 2 3
M  V30 3 1 3 4
M  V30 4 1 4 5
M  V30 5 1 5 6
M  V30 6 1 6 7
M  V30 7 1 7 8
M  V30 8 1 8 9
M  V30 9 1 9 10
M  V30 10 1 10 11
M  V30 11 1 11 12
M  V30 12 1 12 13
M  V30 13 1 13 14
M  V30 14 1 14 15
M  V30 15 1 15 16
M  V30 16 2 4 17
M  V30 17 1 17 18
M  V30 18 2 18 19
M  V30 19 1 18 20
M  V30 20 1 19 2
M  V30 21 1 16 10
M  V30 22 1 1 21
M  V30 23 1 1 22
M  V30 24 1 5 23
M  V30 25 1 5 24
M  V30 26 1 7 25
M  V30 27 1 7 26
M  V30 28 1 8 27
M  V30 29 1 8 28
M  V30 30 1 10 29
M  V30 31 1 11 30
M  V30 32 1 11 31
M  V30 33 1 12 32
M  V30 34 1 12 33
M  V30 35 1 13 34
M  V30 36 1 13 35
M  V30 37 1 14 36
M  V30 38 1 14 37
M  V30 39 1 15 38
M  V30 40 1 15 39
M  V30 41 1 16 40
M  V30 42 1 16 41
M  V30 43 1 20 42
M  V30 44 1 20 43
M  V30 END BOND
M  V30 END CTAB
M  END
