
     RDKit          3D

  0  0  0  0  0  0  0  0  0  0999 V3000
M  V30 BEGIN CTAB
M  V30 COUNTS 31 31 0 0 0
M  V30 BEGIN ATOM
M  V30 1 C -4.19531 0.526699 1.25619 0
M  V30 2 C -3.9907 0.971863 -0.17026 0
M  V30 3 O -2.95882 0.308278 -0.832305 0
M  V30 4 C -1.62978 0.309633 -0.475672 0
M  V30 5 O -1.2863 0.96649 0.533689 0
M  V30 6 C -0.620071 -0.462407 -1.28273 0
M  V30 7 C 0.733571 -0.313262 -0.7624 0
M  V30 8 C 1.45237 0.842557 -1.01556 0
M  V30 9 N 0.855552 1.85738 -1.80471 0
M  V30 10 C 2.72758 1.0489 -0.536406 0
M  V30 11 C 3.34758 0.0785203 0.235147 0
M  V30 12 C 2.62694 -1.06414 0.480078 0
M  V30 13 C 1.33246 -1.28647 0.000213051 0
M  V30 14 C 0.678943 -2.57087 0.333979 0
M  V30 15 F 1.54132 -3.31672 1.1515 0
M  V30 16 F -0.444757 -2.34999 1.06456 0
M  V30 17 F 0.490347 -3.39218 -0.771987 0
M  V30 18 N 4.66032 0.248017 0.75174 0
M  V30 19 H -3.67419 -0.460655 1.40984 0
M  V30 20 H -3.85918 1.30996 1.92823 0
M  V30 21 H -5.28348 0.30239 1.45837 0
M  V30 22 H -3.87611 2.07733 -0.177885 0
M  V30 23 H -4.94504 0.755416 -0.725569 0
M  V30 24 H -0.613304 -0.100891 -2.33731 0
M  V30 25 H -0.949241 -1.5097 -1.20434 0
M  V30 26 H 0.562118 2.77824 -1.41922 0
M  V30 27 H 0.696241 1.69115 -2.81904 0
M  V30 28 H 3.27513 1.96247 -0.746086 0
M  V30 29 H 3.09802 -1.84337 1.08716 0
M  V30 30 H 4.85796 1.13092 1.28719 0
M  V30 31 H 5.38982 -0.49557 0.591604 0
M  V30 END ATOM
M  V30 BEGIN BOND
M  V30 1 1 1 2
M  V30 2 1 2 3
M  V30 3 1 3 4
M  V30 4 2 4 5
M  V30 5 1 4 6
M  V30 6 1 6 7
M  V30 7 2 7 8
M  V30 8 1 8 9
M  V30 9 1 8 10
M  V30 10 2 10 11
M  V30 11 1 11 12
M  V30 12 2 12 13
M  V30 13 1 13 14
M  V30 14 1 14 15
M  V30 15 1 14 16
M  V30 16 1 14 17
M  V30 17 1 11 18
M  V30 18 1 13 7
M  V30 19 1 1 19
M  V30 20 1 1 20
M  V30 21 1 1 21
M  V30 22 1 2 22
M  V30 23 1 2 23
M  V30 24 1 6 24
M  V30 25 1 6 25
M  V30 26 1 9 26
M  V30 27 1 9 27
M  V30 28 1 10 28
M  V30 29 1 12 29
M  V30 30 1 18 30
M  V30 31 1 18 31
M  V30 END BOND
M  V30 END CTAB
M  END
