
     RDKit          3D

  0  0  0  0  0  0  0  0  0  0999 V3000
M  V30 BEGIN CTAB
M  V30 COUNTS 47 49 0 0 0
M  V30 BEGIN ATOM
M  V30 1 N -8.0135 -0.263525 0.966654 0
M  V30 2 C -6.95399 0.242434 0.176604 0
M  V30 3 C -7.25615 1.07255 -0.909762 0
M  V30 4 C -6.22162 1.5609 -1.68513 0
M  V30 5 C -4.89849 1.24483 -1.4079 0
M  V30 6 C -4.60668 0.433342 -0.344001 0
M  V30 7 C -5.64783 -0.0788616 0.464279 0
M  V30 8 C -3.27631 0.0520959 0.0366714 0
M  V30 9 O -2.87926 0.281437 1.24672 0
M  V30 10 N -2.3738 -0.578088 -0.880975 0
M  V30 11 C -1.10849 -0.939974 -0.339923 0
M  V30 12 C 0.113507 -0.659568 -0.863233 0
M  V30 13 C 1.29355 -1.06191 -0.247062 0
M  V30 14 C 1.2034 -1.77035 0.933169 0
M  V30 15 C -0.0237561 -2.06428 1.46823 0
M  V30 16 C -1.17758 -1.66709 0.858871 0
M  V30 17 C -0.146818 -2.83447 2.74117 0
M  V30 18 F -1.27551 -3.66081 2.70837 0
M  V30 19 F 0.995301 -3.58061 2.9185 0
M  V30 20 F -0.288098 -1.94483 3.76314 0
M  V30 21 N 2.5906 -0.741436 -0.781975 0
M  V30 22 C 3.43742 0.127134 -0.0617565 0
M  V30 23 O 2.94038 0.564377 1.06793 0
M  V30 24 C 4.75324 0.589381 -0.391971 0
M  V30 25 C 5.37313 0.206565 -1.55405 0
M  V30 26 C 6.64605 0.662866 -1.88577 0
M  V30 27 C 7.33807 1.50614 -1.07337 0
M  V30 28 C 6.72551 1.89692 0.0973842 0
M  V30 29 C 5.4754 1.45518 0.429757 0
M  V30 30 N 7.41734 2.77857 0.983553 0
M  V30 31 H -7.89057 -0.476336 1.97466 0
M  V30 32 H -8.95561 -0.428767 0.557143 0
M  V30 33 H -8.29791 1.29396 -1.09078 0
M  V30 34 H -6.47761 2.21174 -2.52473 0
M  V30 35 H -4.13525 1.63974 -2.02867 0
M  V30 36 H -5.41841 -0.712654 1.29706 0
M  V30 37 H -2.63174 -0.772204 -1.85877 0
M  V30 38 H 0.16187 -0.107192 -1.80199 0
M  V30 39 H 2.11256 -2.10098 1.4526 0
M  V30 40 H -2.13891 -1.93896 1.28597 0
M  V30 41 H 2.89243 -1.14923 -1.67698 0
M  V30 42 H 4.85548 -0.47325 -2.24303 0
M  V30 43 H 7.10057 0.33972 -2.8211 0
M  V30 44 H 8.33795 1.86463 -1.325 0
M  V30 45 H 4.96281 1.74338 1.34509 0
M  V30 46 H 8.29102 3.28854 0.690747 0
M  V30 47 H 7.07631 2.94894 1.94718 0
M  V30 END ATOM
M  V30 BEGIN BOND
M  V30 1 1 1 2
M  V30 2 2 2 3
M  V30 3 1 3 4
M  V30 4 2 4 5
M  V30 5 1 5 6
M  V30 6 2 6 7
M  V30 7 1 6 8
M  V30 8 2 8 9
M  V30 9 1 8 10
M  V30 10 1 10 11
M  V30 11 2 11 12
M  V30 12 1 12 13
M  V30 13 2 13 14
M  V30 14 1 14 15
M  V30 15 2 15 16
M  V30 16 1 15 17
M  V30 17 1 17 18
M  V30 18 1 17 19
M  V30 19 1 17 20
M  V30 20 1 13 21
M  V30 21 1 21 22
M  V30 22 2 22 23
M  V30 23 1 22 24
M  V30 24 2 24 25
M  V30 25 1 25 26
M  V30 26 2 26 27
M  V30 27 1 27 28
M  V30 28 2 28 29
M  V30 29 1 28 30
M  V30 30 1 7 2
M  V30 31 1 16 11
M  V30 32 1 29 24
M  V30 33 1 1 31
M  V30 34 1 1 32
M  V30 35 1 3 33
M  V30 36 1 4 34
M  V30 37 1 5 35
M  V30 38 1 7 36
M  V30 39 1 10 37
M  V30 40 1 12 38
M  V30 41 1 14 39
M  V30 42 1 16 40
M  V30 43 1 21 41
M  V30 44 1 25 42
M  V30 45 1 26 43
M  V30 46 1 27 44
M  V30 47 1 29 45
M  V30 48 1 30 46
M  V30 49 1 30 47
M  V30 END BOND
M  V30 END CTAB
M  END
