
     RDKit          3D

  0  0  0  0  0  0  0  0  0  0999 V3000
M  V30 BEGIN CTAB
M  V30 COUNTS 55 59 0 0 0
M  V30 BEGIN ATOM
M  V30 1 N 7.65941 -1.86111 -1.74337 0
M  V30 2 C 7.27275 -1.95411 -0.384913 0
M  V30 3 N 7.80051 -2.8052 0.524751 0
M  V30 4 O 7.17759 -2.5882 1.66132 0
M  V30 5 C 6.28462 -1.66487 1.56569 0
M  V30 6 C 5.38715 -1.06935 2.40363 0
M  V30 7 C 4.51385 -0.0628511 2.01893 0
M  V30 8 C 4.55788 0.359903 0.690508 0
M  V30 9 C 5.45501 -0.222195 -0.190612 0
M  V30 10 C 6.30706 -1.22402 0.259105 0
M  V30 11 N 3.70492 1.38325 0.208078 0
M  V30 12 N 4.07738 2.69275 0.0786898 0
M  V30 13 C 3.03948 3.35387 -0.410681 0
M  V30 14 C 1.98897 2.47268 -0.607707 0
M  V30 15 C 2.41291 1.26422 -0.221899 0
M  V30 16 C 1.73687 -0.0729284 -0.253348 0
M  V30 17 O 2.5288 -1.0484 -0.195717 0
M  V30 18 N 0.375988 -0.231627 -0.334708 0
M  V30 19 C -0.953615 -0.414536 -0.41379 0
M  V30 20 C -1.52741 -1.58369 0.160167 0
M  V30 21 C -2.88432 -1.75704 0.181607 0
M  V30 22 C -3.74576 -0.81135 -0.353437 0
M  V30 23 C -3.23298 0.297442 -0.903615 0
M  V30 24 C -1.86422 0.491196 -0.9303 0
M  V30 25 F -1.42813 1.61816 -1.52061 0
M  V30 26 C -5.15046 -1.12664 -0.327049 0
M  V30 27 C -5.48297 -2.31284 -1.05443 0
M  V30 28 C -6.75359 -2.78072 -1.09367 0
M  V30 29 C -7.74014 -2.088 -0.416661 0
M  V30 30 C -7.42695 -0.950219 0.269628 0
M  V30 31 C -6.12384 -0.434033 0.336948 0
M  V30 32 S -5.86372 1.01556 1.23353 0
M  V30 33 N -5.63659 2.4344 0.338895 0
M  V30 34 O -7.04123 1.24404 2.16733 0
M  V30 35 O -4.67422 0.799487 2.15182 0
M  V30 36 C 3.01526 4.8107 -0.694952 0
M  V30 37 F 3.34794 5.45894 0.496548 0
M  V30 38 F 1.768 5.22358 -1.05858 0
M  V30 39 F 3.896 5.16135 -1.69605 0
M  V30 40 H 8.18911 -0.979786 -2.01822 0
M  V30 41 H 7.48291 -2.56257 -2.44765 0
M  V30 42 H 5.32694 -1.36389 3.45137 0
M  V30 43 H 3.80432 0.415678 2.65837 0
M  V30 44 H 5.53435 0.0626915 -1.23374 0
M  V30 45 H 1.01015 2.72302 -1.01288 0
M  V30 46 H 0.597272 -1.46152 -0.802102 0
M  V30 47 H -0.86412 -2.30096 0.591208 0
M  V30 48 H -3.29148 -2.65175 0.620294 0
M  V30 49 H -3.85411 1.0798 -1.37951 0
M  V30 50 H -4.69347 -2.83641 -1.56968 0
M  V30 51 H -6.95871 -3.70283 -1.6433 0
M  V30 52 H -8.73565 -2.46232 -0.464841 0
M  V30 53 H -8.22072 -0.438845 0.777793 0
M  V30 54 H -5.81528 2.25392 -0.692097 0
M  V30 55 H -6.28971 3.20815 0.607926 0
M  V30 END ATOM
M  V30 BEGIN BOND
M  V30 1 1 1 2
M  V30 2 2 2 3
M  V30 3 1 3 4
M  V30 4 1 4 5
M  V30 5 2 5 6
M  V30 6 1 6 7
M  V30 7 2 7 8
M  V30 8 1 8 9
M  V30 9 2 9 10
M  V30 10 1 8 11
M  V30 11 1 11 12
M  V30 12 2 12 13
M  V30 13 1 13 14
M  V30 14 2 14 15
M  V30 15 1 15 16
M  V30 16 2 16 17
M  V30 17 1 16 18
M  V30 18 1 18 19
M  V30 19 2 19 20
M  V30 20 1 20 21
M  V30 21 2 21 22
M  V30 22 1 22 23
M  V30 23 2 23 24
M  V30 24 1 24 25
M  V30 25 1 22 26
M  V30 26 2 26 27
M  V30 27 1 27 28
M  V30 28 2 28 29
M  V30 29 1 29 30
M  V30 30 2 30 31
M  V30 31 1 31 32
M  V30 32 1 32 33
M  V30 33 2 32 34
M  V30 34 2 32 35
M  V30 35 1 13 36
M  V30 36 1 36 37
M  V30 37 1 36 38
M  V30 38 1 36 39
M  V30 39 1 10 2
M  V30 40 1 15 11
M  V30 41 1 24 19
M  V30 42 1 31 26
M  V30 43 1 10 5
M  V30 44 1 1 40
M  V30 45 1 1 41
M  V30 46 1 6 42
M  V30 47 1 7 43
M  V30 48 1 9 44
M  V30 49 1 14 45
M  V30 50 1 18 46
M  V30 51 1 20 47
M  V30 52 1 21 48
M  V30 53 1 23 49
M  V30 54 1 27 50
M  V30 55 1 28 51
M  V30 56 1 29 52
M  V30 57 1 30 53
M  V30 58 1 33 54
M  V30 59 1 33 55
M  V30 END BOND
M  V30 END CTAB
M  END
