
     RDKit          3D

  0  0  0  0  0  0  0  0  0  0999 V3000
M  V30 BEGIN CTAB
M  V30 COUNTS 45 46 0 0 0
M  V30 BEGIN ATOM
M  V30 1 N 5.07106 -1.17691 0.215864 0
M  V30 2 C 3.63151 -1.02547 -0.0546937 0
M  V30 3 C 3.38399 0.448698 -0.205854 0
M  V30 4 N 2.03729 0.807075 -0.474943 0
M  V30 5 C 0.969897 0.504676 0.395854 0
M  V30 6 O 1.21349 -0.104333 1.45688 0
M  V30 7 C -0.439349 0.867783 0.128312 0
M  V30 8 C -0.860691 0.182076 -1.11844 0
M  V30 9 C -2.23456 -0.424074 -1.09386 0
M  V30 10 C -2.2441 -1.85198 -0.60666 0
M  V30 11 C -3.15036 -2.07435 0.566115 0
M  V30 12 C -2.95854 -1.09199 1.67589 0
M  V30 13 C -2.68897 0.310533 1.16708 0
M  V30 14 C -1.26619 0.670667 1.3351 0
M  V30 15 C -3.20023 0.370817 -0.248689 0
M  V30 16 N -3.41669 1.70018 -0.728839 0
M  V30 17 C 1.73921 1.52665 -1.71476 0
M  V30 18 C 3.88642 1.18518 1.04228 0
M  V30 19 H 5.17487 -2.18276 0.539987 0
M  V30 20 H 5.62644 -1.07808 -0.65395 0
M  V30 21 H 3.46706 -1.50288 -1.03608 0
M  V30 22 H 3.11807 -1.50383 0.774526 0
M  V30 23 H 4.03491 0.79465 -1.03129 0
M  V30 24 H -0.4075 1.98716 -0.0548828 0
M  V30 25 H -0.852027 0.905239 -1.9616 0
M  V30 26 H -0.161487 -0.632306 -1.42846 0
M  V30 27 H -2.66756 -0.431526 -2.12953 0
M  V30 28 H -1.22591 -2.21203 -0.315513 0
M  V30 29 H -2.5766 -2.56575 -1.40859 0
M  V30 30 H -2.90276 -3.08764 0.977549 0
M  V30 31 H -4.23431 -2.15267 0.268596 0
M  V30 32 H -3.81364 -1.15719 2.35282 0
M  V30 33 H -2.05963 -1.43836 2.26547 0
M  V30 34 H -3.3824 0.975285 1.7651 0
M  V30 35 H -1.22944 1.58826 2.00011 0
M  V30 36 H -0.786745 -0.117626 1.99073 0
M  V30 37 H -4.17191 -0.17528 -0.266915 0
M  V30 38 H -4.4376 1.98798 -0.648055 0
M  V30 39 H -3.22345 1.76368 -1.77273 0
M  V30 40 H 1.01644 2.34789 -1.55197 0
M  V30 41 H 2.68018 2.04625 -2.06666 0
M  V30 42 H 1.47288 0.843516 -2.53865 0
M  V30 43 H 3.52231 0.714666 1.96157 0
M  V30 44 H 5.00456 1.22075 0.988932 0
M  V30 45 H 3.54205 2.23738 1.01456 0
M  V30 END ATOM
M  V30 BEGIN BOND
M  V30 1 1 1 2
M  V30 2 1 2 3
M  V30 3 1 3 4
M  V30 4 1 4 5
M  V30 5 2 5 6
M  V30 6 1 5 7
M  V30 7 1 7 8
M  V30 8 1 8 9
M  V30 9 1 9 10
M  V30 10 1 10 11
M  V30 11 1 11 12
M  V30 12 1 12 13
M  V30 13 1 13 14
M  V30 14 1 13 15
M  V30 15 1 15 16
M  V30 16 1 4 17
M  V30 17 1 3 18
M  V30 18 1 14 7
M  V30 19 1 15 9
M  V30 20 1 1 19
M  V30 21 1 1 20
M  V30 22 1 2 21
M  V30 23 1 2 22
M  V30 24 1 3 23
M  V30 25 1 7 24
M  V30 26 1 8 25
M  V30 27 1 8 26
M  V30 28 1 9 27
M  V30 29 1 10 28
M  V30 30 1 10 29
M  V30 31 1 11 30
M  V30 32 1 11 31
M  V30 33 1 12 32
M  V30 34 1 12 33
M  V30 35 1 13 34
M  V30 36 1 14 35
M  V30 37 1 14 36
M  V30 38 1 15 37
M  V30 39 1 16 38
M  V30 40 1 16 39
M  V30 41 1 17 40
M  V30 42 1 17 41
M  V30 43 1 17 42
M  V30 44 1 18 43
M  V30 45 1 18 44
M  V30 46 1 18 45
M  V30 END BOND
M  V30 END CTAB
M  END
