
     RDKit          3D

  0  0  0  0  0  0  0  0  0  0999 V3000
M  V30 BEGIN CTAB
M  V30 COUNTS 23 23 0 0 0
M  V30 BEGIN ATOM
M  V30 1 N -2.81122 -2.25782 -0.0373814 0
M  V30 2 N -2.24119 -0.941983 -0.292429 0
M  V30 3 C -0.861865 -0.833568 -0.0694253 0
M  V30 4 O -0.331276 -1.9597 0.335597 0
M  V30 5 C 0.0327148 0.305102 -0.191556 0
M  V30 6 C 1.37051 0.242639 -0.297733 0
M  V30 7 C 2.26162 -0.976735 -0.60849 0
M  V30 8 N 3.27335 -1.1072 0.527653 0
M  V30 9 C 1.86673 1.49859 -0.216777 0
M  V30 10 N 0.816152 2.31632 -0.0651875 0
M  V30 11 N -0.314209 1.58153 -0.0538896 0
M  V30 12 C -1.57224 2.20696 0.208971 0
M  V30 13 H -3.81211 -2.19876 -0.374204 0
M  V30 14 H -2.79516 -2.36114 1.01832 0
M  V30 15 H -2.84214 -0.186647 -0.62667 0
M  V30 16 H 1.91111 -1.81594 -1.05878 0
M  V30 17 H 3.03647 -0.535756 -1.39383 0
M  V30 18 H 2.85191 -1.91923 1.11785 0
M  V30 19 H 2.9907 -0.258861 1.16896 0
M  V30 20 H 2.91291 1.85109 -0.267287 0
M  V30 21 H -2.51086 1.67332 0.178237 0
M  V30 22 H -1.54087 2.51956 1.33162 0
M  V30 23 H -1.69105 3.15824 -0.333571 0
M  V30 END ATOM
M  V30 BEGIN BOND
M  V30 1 1 1 2
M  V30 2 1 2 3
M  V30 3 2 3 4
M  V30 4 1 3 5
M  V30 5 2 5 6
M  V30 6 1 6 7
M  V30 7 1 7 8
M  V30 8 1 6 9
M  V30 9 2 9 10
M  V30 10 1 10 11
M  V30 11 1 11 12
M  V30 12 1 11 5
M  V30 13 1 1 13
M  V30 14 1 1 14
M  V30 15 1 2 15
M  V30 16 1 7 16
M  V30 17 1 7 17
M  V30 18 1 8 18
M  V30 19 1 8 19
M  V30 20 1 9 20
M  V30 21 1 12 21
M  V30 22 1 12 22
M  V30 23 1 12 23
M  V30 END BOND
M  V30 END CTAB
M  END
