
     RDKit          3D

  0  0  0  0  0  0  0  0  0  0999 V3000
M  V30 BEGIN CTAB
M  V30 COUNTS 23 23 0 0 0
M  V30 BEGIN ATOM
M  V30 1 N 3.19141 0.250127 -0.319588 0
M  V30 2 C 1.8685 0.779937 -0.63524 0
M  V30 3 C 0.875403 -0.166832 -0.135633 0
M  V30 4 C 1.27186 -1.3407 0.474473 0
M  V30 5 C 0.368489 -2.273 0.908016 0
M  V30 6 C -0.986665 -2.08698 0.756617 0
M  V30 7 C -1.39667 -0.924642 0.152362 0
M  V30 8 C -0.495231 0.0512112 -0.300884 0
M  V30 9 O -1.0347 1.16626 -0.879281 0
M  V30 10 C -1.4573 2.3047 -0.226791 0
M  V30 11 F -2.49132 2.06902 0.70499 0
M  V30 12 F -2.05153 3.20224 -1.15487 0
M  V30 13 F -0.527432 3.0131 0.492089 0
M  V30 14 N -2.79383 -0.72669 -0.0434515 0
M  V30 15 H 3.51059 0.543949 0.613413 0
M  V30 16 H 3.87095 0.409603 -1.08927 0
M  V30 17 H 1.81529 0.743008 -1.76057 0
M  V30 18 H 1.75153 1.80122 -0.339883 0
M  V30 19 H 2.34012 -1.51671 0.60784 0
M  V30 20 H 0.730738 -3.18521 1.38475 0
M  V30 21 H -1.71521 -2.81531 1.0933 0
M  V30 22 H -3.15667 -0.607591 -1.02144 0
M  V30 23 H -3.48831 -0.690734 0.719048 0
M  V30 END ATOM
M  V30 BEGIN BOND
M  V30 1 1 1 2
M  V30 2 1 2 3
M  V30 3 2 3 4
M  V30 4 1 4 5
M  V30 5 2 5 6
M  V30 6 1 6 7
M  V30 7 2 7 8
M  V30 8 1 8 9
M  V30 9 1 9 10
M  V30 10 1 10 11
M  V30 11 1 10 12
M  V30 12 1 10 13
M  V30 13 1 7 14
M  V30 14 1 8 3
M  V30 15 1 1 15
M  V30 16 1 1 16
M  V30 17 1 2 17
M  V30 18 1 2 18
M  V30 19 1 4 19
M  V30 20 1 5 20
M  V30 21 1 6 21
M  V30 22 1 14 22
M  V30 23 1 14 23
M  V30 END BOND
M  V30 END CTAB
M  END
