
     RDKit          3D

  0  0  0  0  0  0  0  0  0  0999 V3000
M  V30 BEGIN CTAB
M  V30 COUNTS 16 16 0 0 0
M  V30 BEGIN ATOM
M  V30 1 N 3.04323 -0.289359 -0.0420891 0
M  V30 2 C 1.63033 -0.160642 -0.0235052 0
M  V30 3 C 0.872331 0.99155 0.107877 0
M  V30 4 C -0.46417 0.669696 0.075789 0
M  V30 5 N -0.52063 -0.665196 -0.073644 0
M  V30 6 N 0.7049 -1.1602 -0.132772 0
M  V30 7 C -1.77121 -1.39775 -0.151978 0
M  V30 8 N -1.56211 1.58393 0.181564 0
M  V30 9 H 3.67221 0.347488 0.47905 0
M  V30 10 H 3.47375 -1.05012 -0.598042 0
M  V30 11 H 1.28448 1.98619 0.218113 0
M  V30 12 H -1.63733 -2.47705 -0.198078 0
M  V30 13 H -2.36598 -1.04562 -1.04264 0
M  V30 14 H -2.41323 -1.19493 0.749643 0
M  V30 15 H -2.38955 1.4923 -0.429549 0
M  V30 16 H -1.55701 2.36972 0.880264 0
M  V30 END ATOM
M  V30 BEGIN BOND
M  V30 1 1 1 2
M  V30 2 1 2 3
M  V30 3 2 3 4
M  V30 4 1 4 5
M  V30 5 1 5 6
M  V30 6 1 5 7
M  V30 7 1 4 8
M  V30 8 2 6 2
M  V30 9 1 1 9
M  V30 10 1 1 10
M  V30 11 1 3 11
M  V30 12 1 7 12
M  V30 13 1 7 13
M  V30 14 1 7 14
M  V30 15 1 8 15
M  V30 16 1 8 16
M  V30 END BOND
M  V30 END CTAB
M  END
