
     RDKit          3D

  0  0  0  0  0  0  0  0  0  0999 V3000
M  V30 BEGIN CTAB
M  V30 COUNTS 19 19 0 0 0
M  V30 BEGIN ATOM
M  V30 1 N -2.50443 0.811224 -0.0195952 0
M  V30 2 C -1.35473 -0.0389441 -0.0521169 0
M  V30 3 C -1.45821 -1.41142 -0.173719 0
M  V30 4 C -0.335514 -2.22728 -0.204264 0
M  V30 5 C 0.898129 -1.61911 -0.108507 0
M  V30 6 C 1.00609 -0.251231 0.0128611 0
M  V30 7 C -0.112102 0.552624 0.0425285 0
M  V30 8 N 0.00576537 1.95538 0.167255 0
M  V30 9 C 2.33229 0.434344 0.118535 0
M  V30 10 F 3.35274 -0.492961 0.0748282 0
M  V30 11 F 2.36557 1.04821 1.37151 0
M  V30 12 F 2.48742 1.40338 -0.832696 0
M  V30 13 H -2.80025 1.23484 -0.922312 0
M  V30 14 H -2.98927 0.967408 0.8939 0
M  V30 15 H -2.41831 -1.85489 -0.245686 0
M  V30 16 H -0.381879 -3.29831 -0.297948 0
M  V30 17 H 1.79722 -2.19705 -0.126495 0
M  V30 18 H 0.000295469 2.49045 1.04282 0
M  V30 19 H 0.109183 2.49333 -0.7409 0
M  V30 END ATOM
M  V30 BEGIN BOND
M  V30 1 1 1 2
M  V30 2 2 2 3
M  V30 3 1 3 4
M  V30 4 2 4 5
M  V30 5 1 5 6
M  V30 6 2 6 7
M  V30 7 1 7 8
M  V30 8 1 6 9
M  V30 9 1 9 10
M  V30 10 1 9 11
M  V30 11 1 9 12
M  V30 12 1 7 2
M  V30 13 1 1 13
M  V30 14 1 1 14
M  V30 15 1 3 15
M  V30 16 1 4 16
M  V30 17 1 5 17
M  V30 18 1 8 18
M  V30 19 1 8 19
M  V30 END BOND
M  V30 END CTAB
M  END
