
     RDKit          3D

  0  0  0  0  0  0  0  0  0  0999 V3000
M  V30 BEGIN CTAB
M  V30 COUNTS 33 35 0 0 0
M  V30 BEGIN ATOM
M  V30 1 N 7.16097 -1.56677 -0.577185 0
M  V30 2 C 6.15156 -1.02985 -0.38584 0
M  V30 3 C 4.87402 -0.378955 -0.148473 0
M  V30 4 C 3.72329 -1.06572 -0.410591 0
M  V30 5 C 2.47358 -0.443144 -0.183654 0
M  V30 6 C 2.55482 0.836767 0.295235 0
M  V30 7 N 3.72758 1.48592 0.54339 0
M  V30 8 C 4.92439 0.909075 0.333305 0
M  V30 9 N 6.1535 1.53126 0.571643 0
M  V30 10 S 0.919677 1.2901 0.457143 0
M  V30 11 C 0.183317 -0.147376 -0.0836858 0
M  V30 12 C 1.24631 -0.951821 -0.379518 0
M  V30 13 N 0.993432 -2.29757 -0.88384 0
M  V30 14 C -1.26947 -0.46905 -0.210606 0
M  V30 15 O -1.60805 -1.57595 -0.625991 0
M  V30 16 N -2.12886 0.57115 0.174377 0
M  V30 17 C -3.55729 0.537063 0.160877 0
M  V30 18 C -4.27717 -0.622592 0.0517688 0
M  V30 19 C -5.64696 -0.650576 0.019082 0
M  V30 20 C -6.3319 0.543778 0.100276 0
M  V30 21 C -5.6262 1.71759 0.210682 0
M  V30 22 C -4.26477 1.74306 0.242726 0
M  V30 23 F -7.69775 0.504814 0.0668049 0
M  V30 24 H 3.8119 -2.07023 -0.785725 0
M  V30 25 H 6.62909 1.42541 1.497 0
M  V30 26 H 6.66593 2.12409 -0.130567 0
M  V30 27 H 1.38442 -3.12076 -0.375356 0
M  V30 28 H 0.440666 -2.47168 -1.72772 0
M  V30 29 H -1.72708 1.50585 0.528437 0
M  V30 30 H -3.80792 -1.60063 -0.00515143 0
M  V30 31 H -6.21653 -1.58113 -0.0686872 0
M  V30 32 H -6.16886 2.65936 0.274846 0
M  V30 33 H -3.68963 2.6585 0.328064 0
M  V30 END ATOM
M  V30 BEGIN BOND
M  V30 1 3 1 2
M  V30 2 1 2 3
M  V30 3 2 3 4
M  V30 4 1 4 5
M  V30 5 2 5 6
M  V30 6 1 6 7
M  V30 7 2 7 8
M  V30 8 1 8 9
M  V30 9 1 6 10
M  V30 10 1 10 11
M  V30 11 2 11 12
M  V30 12 1 12 13
M  V30 13 1 11 14
M  V30 14 2 14 15
M  V30 15 1 14 16
M  V30 16 1 16 17
M  V30 17 2 17 18
M  V30 18 1 18 19
M  V30 19 2 19 20
M  V30 20 1 20 21
M  V30 21 2 21 22
M  V30 22 1 20 23
M  V30 23 1 8 3
M  V30 24 1 22 17
M  V30 25 1 12 5
M  V30 26 1 4 24
M  V30 27 1 9 25
M  V30 28 1 9 26
M  V30 29 1 13 27
M  V30 30 1 13 28
M  V30 31 1 16 29
M  V30 32 1 18 30
M  V30 33 1 19 31
M  V30 34 1 21 32
M  V30 35 1 22 33
M  V30 END BOND
M  V30 END CTAB
M  END
