
     RDKit          3D

  0  0  0  0  0  0  0  0  0  0999 V3000
M  V30 BEGIN CTAB
M  V30 COUNTS 23 23 0 0 0
M  V30 BEGIN ATOM
M  V30 1 C 3.55614 -0.0480002 -0.0707457 0
M  V30 2 N 2.21072 0.274328 -0.484425 0
M  V30 3 N 1.8922 1.02564 -1.51294 0
M  V30 4 C 0.546245 1.12495 -1.61916 0
M  V30 5 C 0.00973166 0.383175 -0.5843 0
M  V30 6 C 1.07409 -0.129763 0.0985767 0
M  V30 7 N 1.02702 -0.956013 1.23874 0
M  V30 8 C -1.42093 0.221825 -0.329242 0
M  V30 9 C -1.88986 1.06106 0.760081 0
M  V30 10 C -2.29814 1.75836 1.65539 0
M  V30 11 N -1.79614 -1.14928 -0.0380106 0
M  V30 12 N -3.16346 -1.18071 0.184983 0
M  V30 13 H 3.71859 0.376838 0.920449 0
M  V30 14 H 3.7032 -1.14975 -0.0490913 0
M  V30 15 H 4.29599 0.367464 -0.76389 0
M  V30 16 H -0.0190717 1.67121 -2.35937 0
M  V30 17 H 1.07459 -0.534672 2.17835 0
M  V30 18 H 0.945392 -1.97853 1.1402 0
M  V30 19 H -2.02248 0.514333 -1.23674 0
M  V30 20 H -2.67863 2.37874 2.44578 0
M  V30 21 H -1.47248 -1.80758 -0.782608 0
M  V30 22 H -3.63806 -0.26424 -0.0174799 0
M  V30 23 H -3.65465 -1.9594 -0.277974 0
M  V30 END ATOM
M  V30 BEGIN BOND
M  V30 1 1 1 2
M  V30 2 1 2 3
M  V30 3 2 3 4
M  V30 4 1 4 5
M  V30 5 2 5 6
M  V30 6 1 6 7
M  V30 7 1 5 8
M  V30 8 1 8 9
M  V30 9 3 9 10
M  V30 10 1 8 11
M  V30 11 1 11 12
M  V30 12 1 6 2
M  V30 13 1 1 13
M  V30 14 1 1 14
M  V30 15 1 1 15
M  V30 16 1 4 16
M  V30 17 1 7 17
M  V30 18 1 7 18
M  V30 19 1 8 19
M  V30 20 1 10 20
M  V30 21 1 11 21
M  V30 22 1 12 22
M  V30 23 1 12 23
M  V30 END BOND
M  V30 END CTAB
M  END
