
     RDKit          3D

  0  0  0  0  0  0  0  0  0  0999 V3000
M  V30 BEGIN CTAB
M  V30 COUNTS 26 26 0 0 0
M  V30 BEGIN ATOM
M  V30 1 N 3.13461 0.337056 2.1322 0
M  V30 2 C 2.43954 0.0010669 0.95181 0
M  V30 3 C 3.11436 -0.626594 -0.100413 0
M  V30 4 C 2.43849 -0.9555 -1.25318 0
M  V30 5 C 1.07536 -0.661111 -1.37144 0
M  V30 6 C 0.380814 -0.0437009 -0.354526 0
M  V30 7 C 1.08907 0.271367 0.785581 0
M  V30 8 N -0.989375 0.278569 -0.412864 0
M  V30 9 S -2.24656 -0.779816 0.101809 0
M  V30 10 O -3.10028 -0.128408 1.15253 0
M  V30 11 O -3.10888 -1.10803 -1.07024 0
M  V30 12 N -1.62086 -2.25278 0.742837 0
M  V30 13 C -1.38391 1.54696 -0.922886 0
M  V30 14 O -0.475028 2.3336 -1.30389 0
M  V30 15 C -2.78477 1.96701 -1.02059 0
M  V30 16 H 3.36187 1.32107 2.33154 0
M  V30 17 H 3.41573 -0.395857 2.79557 0
M  V30 18 H 4.17629 -0.832718 0.0451147 0
M  V30 19 H 2.98508 -1.44518 -2.0628 0
M  V30 20 H 0.54294 -0.911765 -2.26054 0
M  V30 21 H 0.600926 0.75893 1.62504 0
M  V30 22 H -2.42526 -2.90171 0.87851 0
M  V30 23 H -1.1701 -2.06968 1.68064 0
M  V30 24 H -3.21315 2.04891 0.00310143 0
M  V30 25 H -2.82541 2.97598 -1.47014 0
M  V30 26 H -3.4115 1.27234 -1.62276 0
M  V30 END ATOM
M  V30 BEGIN BOND
M  V30 1 1 1 2
M  V30 2 2 2 3
M  V30 3 1 3 4
M  V30 4 2 4 5
M  V30 5 1 5 6
M  V30 6 2 6 7
M  V30 7 1 6 8
M  V30 8 1 8 9
M  V30 9 2 9 10
M  V30 10 2 9 11
M  V30 11 1 9 12
M  V30 12 1 8 13
M  V30 13 2 13 14
M  V30 14 1 13 15
M  V30 15 1 7 2
M  V30 16 1 1 16
M  V30 17 1 1 17
M  V30 18 1 3 18
M  V30 19 1 4 19
M  V30 20 1 5 20
M  V30 21 1 7 21
M  V30 22 1 12 22
M  V30 23 1 12 23
M  V30 24 1 15 24
M  V30 25 1 15 25
M  V30 26 1 15 26
M  V30 END BOND
M  V30 END CTAB
M  END
