
     RDKit          3D

  0  0  0  0  0  0  0  0  0  0999 V3000
M  V30 BEGIN CTAB
M  V30 COUNTS 50 53 0 0 0
M  V30 BEGIN ATOM
M  V30 1 N 6.42718 2.30354 0.959058 0
M  V30 2 C 5.92211 1.58483 -0.186797 0 CFG=2
M  V30 3 C 4.53714 1.9726 -0.626735 0
M  V30 4 C 3.99136 0.918763 0.331037 0 CFG=2
M  V30 5 C 5.35359 0.254598 0.260248 0
M  V30 6 C 2.93819 0.0647369 -0.274152 0
M  V30 7 C 1.71869 -0.178371 0.36784 0
M  V30 8 C 0.767709 -0.975637 -0.226272 0
M  V30 9 N 1.04714 -1.50514 -1.42757 0
M  V30 10 C 2.21224 -1.2853 -2.06331 0
M  V30 11 N 3.12547 -0.502504 -1.46197 0
M  V30 12 C 2.56263 -1.84949 -3.3888 0
M  V30 13 N -0.472392 -1.23032 0.411467 0
M  V30 14 C -1.44226 -2.09423 -0.246996 0
M  V30 15 C -2.73926 -1.38728 -0.560475 0
M  V30 16 C -2.79613 -0.110565 0.254922 0
M  V30 17 C -2.36011 -0.513876 1.67073 0
M  V30 18 C -0.833395 -0.675406 1.69127 0
M  V30 19 C -4.16468 0.428953 0.345607 0
M  V30 20 C -4.40544 1.709 -0.091248 0
M  V30 21 C -5.69564 2.18474 0.00752075 0
M  V30 22 N -6.65094 1.38991 0.519104 0
M  V30 23 C -6.42698 0.135936 0.949661 0
M  V30 24 N -5.15547 -0.3237 0.848751 0
M  V30 25 N -7.4787 -0.660874 1.48222 0
M  V30 26 H 5.77962 2.31511 1.73157 0
M  V30 27 H 7.34247 1.9599 1.22629 0
M  V30 28 H 6.63949 1.50337 -1.02054 0
M  V30 29 H 4.31939 1.72513 -1.68141 0
M  V30 30 H 4.24792 3.01297 -0.334472 0
M  V30 31 H 3.71771 1.33039 1.32652 0
M  V30 32 H 5.74276 -0.147624 1.20098 0
M  V30 33 H 5.3917 -0.460487 -0.600649 0
M  V30 34 H 1.57148 0.279682 1.32445 0
M  V30 35 H 1.68949 -2.13369 -3.98993 0
M  V30 36 H 3.31069 -2.67025 -3.29839 0
M  V30 37 H 3.11206 -1.03187 -3.94102 0
M  V30 38 H -1.59708 -2.96366 0.446473 0
M  V30 39 H -1.01139 -2.53683 -1.17427 0
M  V30 40 H -3.59545 -2.03927 -0.232344 0
M  V30 41 H -2.83564 -1.19893 -1.65231 0
M  V30 42 H -2.08565 0.627595 -0.173795 0
M  V30 43 H -2.7108 0.191624 2.42431 0
M  V30 44 H -2.85216 -1.48966 1.88144 0
M  V30 45 H -0.572163 -1.44801 2.46612 0
M  V30 46 H -0.363242 0.277133 1.93842 0
M  V30 47 H -3.62359 2.35046 -0.506371 0
M  V30 48 H -5.89215 3.19158 -0.334786 0
M  V30 49 H -7.541 -0.732845 2.521 0
M  V30 50 H -8.1665 -1.15907 0.907602 0
M  V30 END ATOM
M  V30 BEGIN BOND
M  V30 1 1 1 2
M  V30 2 1 2 3
M  V30 3 1 3 4
M  V30 4 1 4 5
M  V30 5 1 4 6
M  V30 6 2 6 7
M  V30 7 1 7 8
M  V30 8 2 8 9
M  V30 9 1 9 10
M  V30 10 2 10 11
M  V30 11 1 10 12
M  V30 12 1 8 13
M  V30 13 1 13 14
M  V30 14 1 14 15
M  V30 15 1 15 16
M  V30 16 1 16 17
M  V30 17 1 17 18
M  V30 18 1 16 19
M  V30 19 2 19 20
M  V30 20 1 20 21
M  V30 21 2 21 22
M  V30 22 1 22 23
M  V30 23 2 23 24
M  V30 24 1 23 25
M  V30 25 1 5 2
M  V30 26 1 11 6
M  V30 27 1 18 13
M  V30 28 1 24 19
M  V30 29 1 1 26
M  V30 30 1 1 27
M  V30 31 1 2 28 CFG=3
M  V30 32 1 3 29
M  V30 33 1 3 30
M  V30 34 1 4 31 CFG=1
M  V30 35 1 5 32
M  V30 36 1 5 33
M  V30 37 1 7 34
M  V30 38 1 12 35
M  V30 39 1 12 36
M  V30 40 1 12 37
M  V30 41 1 14 38
M  V30 42 1 14 39
M  V30 43 1 15 40
M  V30 44 1 15 41
M  V30 45 1 16 42
M  V30 46 1 17 43
M  V30 47 1 17 44
M  V30 48 1 18 45
M  V30 49 1 18 46
M  V30 50 1 20 47
M  V30 51 1 21 48
M  V30 52 1 25 49
M  V30 53 1 25 50
M  V30 END BOND
M  V30 END CTAB
M  END
