
     RDKit          3D

  0  0  0  0  0  0  0  0  0  0999 V3000
M  V30 BEGIN CTAB
M  V30 COUNTS 93 100 0 0 0
M  V30 BEGIN ATOM
M  V30 1 N 11.6225 -0.437438 -2.96708 0
M  V30 2 C 11.3079 0.389603 -1.79352 0 CFG=1
M  V30 3 C 10.1978 -0.293064 -1.10058 0
M  V30 4 O 9.96386 -1.53452 -1.36382 0
M  V30 5 N 9.3278 0.277345 -0.146161 0
M  V30 6 C 9.32826 1.6415 0.293927 0
M  V30 7 C 8.98748 1.56253 1.76857 0
M  V30 8 C 8.22059 0.295756 1.90687 0
M  V30 9 C 8.27635 -0.400931 0.580428 0 CFG=1
M  V30 10 C 7.00177 -0.388085 -0.170693 0
M  V30 11 N 6.82451 -0.502811 -1.49925 0
M  V30 12 C 5.52134 -0.479243 -1.8089 0
M  V30 13 C 4.83339 -0.344437 -0.633268 0
M  V30 14 N 5.78232 -0.291609 0.348491 0
M  V30 15 C 3.37314 -0.283386 -0.462578 0
M  V30 16 C 2.76708 -0.152606 0.765469 0
M  V30 17 C 1.37645 -0.114405 0.890688 0
M  V30 18 C 0.571356 -0.205104 -0.196751 0
M  V30 19 C 1.18776 -0.337495 -1.44633 0
M  V30 20 C 2.55915 -0.375605 -1.57528 0
M  V30 21 C -0.887415 -0.175608 -0.110013 0
M  V30 22 N -1.61125 -0.284627 -1.24896 0
M  V30 23 C -2.95009 -0.267627 -1.23291 0
M  V30 24 C -3.68217 -0.139729 -0.0755997 0
M  V30 25 C -2.96883 -0.0270457 1.0947 0
M  V30 26 C -1.56877 -0.0460543 1.06806 0
M  V30 27 C -5.13339 -0.127914 -0.0902925 0
M  V30 28 C -5.92259 -0.248427 -1.21322 0
M  V30 29 N -7.19668 -0.191223 -0.798614 0
M  V30 30 C -7.22294 -0.0392415 0.544325 0
M  V30 31 N -5.96055 -0.00155366 0.967785 0
M  V30 32 C -8.50671 0.0581125 1.29264 0 CFG=2
M  V30 33 C -8.28669 -0.38832 2.74584 0
M  V30 34 C -8.29795 -1.88386 2.62759 0
M  V30 35 C -9.11436 -2.2086 1.40168 0
M  V30 36 N -9.41397 -0.911195 0.755228 0
M  V30 37 C -10.4255 -0.774288 -0.196458 0
M  V30 38 O -11.0982 -1.85381 -0.510893 0
M  V30 39 C -10.8855 0.40246 -0.933397 0 CFG=2
M  V30 40 N -10.3331 1.6532 -0.573639 0
M  V30 41 C -12.3804 0.462421 -0.829323 0
M  V30 42 C -13.1326 -0.0693107 -1.86294 0
M  V30 43 C -14.5065 -0.0321728 -1.80621 0
M  V30 44 C -15.1092 0.540637 -0.707818 0
M  V30 45 C -14.3746 1.06392 0.309699 0
M  V30 46 C -12.9902 1.03569 0.270473 0
M  V30 47 C 12.5801 0.292595 -0.974905 0
M  V30 48 C 13.1223 -0.935804 -0.694653 0
M  V30 49 C 14.2796 -1.07748 0.0263386 0
M  V30 50 C 14.9208 0.0580757 0.48589 0
M  V30 51 C 14.3796 1.29889 0.206674 0
M  V30 52 C 13.2101 1.42112 -0.522975 0
M  V30 53 H 11.1132 -0.102634 -3.80528 0
M  V30 54 H 11.5212 -1.4467 -2.77678 0
M  V30 55 H 11.1392 1.39435 -2.1258 0
M  V30 56 H 8.54519 2.25513 -0.204927 0
M  V30 57 H 10.3205 2.10446 0.23203 0
M  V30 58 H 8.38912 2.44872 2.04815 0
M  V30 59 H 9.90207 1.51537 2.39971 0
M  V30 60 H 7.13458 0.55279 2.09858 0
M  V30 61 H 8.59724 -0.355026 2.73315 0
M  V30 62 H 8.55111 -1.49117 0.717536 0
M  V30 63 H 5.04417 -0.548725 -2.78147 0
M  V30 64 H 5.46852 -0.191635 1.33843 0
M  V30 65 H 3.36934 -0.0770315 1.65689 0
M  V30 66 H 0.939743 -0.0100425 1.88015 0
M  V30 67 H 0.539775 -0.408116 -2.30269 0
M  V30 68 H 3.03186 -0.478359 -2.54552 0
M  V30 69 H -3.52909 -0.357418 -2.16241 0
M  V30 70 H -3.51326 0.0754201 2.02449 0
M  V30 71 H -1.06029 0.0452252 2.00957 0
M  V30 72 H -5.55974 -0.367414 -2.23911 0
M  V30 73 H -5.68211 0.111309 1.97976 0
M  V30 74 H -8.8578 1.07925 1.2672 0
M  V30 75 H -7.33921 -0.0126997 3.11668 0
M  V30 76 H -9.1695 -0.0462315 3.34142 0
M  V30 77 H -7.24595 -2.25209 2.52805 0
M  V30 78 H -8.7806 -2.32611 3.52621 0
M  V30 79 H -10.0628 -2.70768 1.64545 0
M  V30 80 H -8.49889 -2.79326 0.700123 0
M  V30 81 H -10.6765 0.224914 -2.04492 0
M  V30 82 H -9.99941 2.19302 -1.41435 0
M  V30 83 H -10.9315 2.28239 -0.00173735 0
M  V30 84 H -12.6598 -0.523966 -2.73326 0
M  V30 85 H -15.0598 -0.448844 -2.61632 0
M  V30 86 H -16.189 0.567767 -0.667125 0
M  V30 87 H -14.8262 1.51622 1.17598 0
M  V30 88 H -12.4069 1.45303 1.0888 0
M  V30 89 H 12.6237 -1.81979 -1.05137 0
M  V30 90 H 14.7321 -2.04246 0.263582 0
M  V30 91 H 15.8466 -0.0460361 1.06321 0
M  V30 92 H 14.8728 2.2106 0.562294 0
M  V30 93 H 12.8033 2.43017 -0.728723 0
M  V30 END ATOM
M  V30 BEGIN BOND
M  V30 1 1 1 2
M  V30 2 1 2 3
M  V30 3 2 3 4
M  V30 4 1 3 5
M  V30 5 1 5 6
M  V30 6 1 6 7
M  V30 7 1 7 8
M  V30 8 1 8 9
M  V30 9 1 9 10
M  V30 10 2 10 11
M  V30 11 1 11 12
M  V30 12 2 12 13
M  V30 13 1 13 14
M  V30 14 1 13 15
M  V30 15 2 15 16
M  V30 16 1 16 17
M  V30 17 2 17 18
M  V30 18 1 18 19
M  V30 19 2 19 20
M  V30 20 1 18 21
M  V30 21 2 21 22
M  V30 22 1 22 23
M  V30 23 2 23 24
M  V30 24 1 24 25
M  V30 25 2 25 26
M  V30 26 1 24 27
M  V30 27 2 27 28
M  V30 28 1 28 29
M  V30 29 2 29 30
M  V30 30 1 30 31
M  V30 31 1 30 32
M  V30 32 1 32 33
M  V30 33 1 33 34
M  V30 34 1 34 35
M  V30 35 1 35 36
M  V30 36 1 36 37
M  V30 37 2 37 38
M  V30 38 1 37 39
M  V30 39 1 39 40
M  V30 40 1 39 41
M  V30 41 2 41 42
M  V30 42 1 42 43
M  V30 43 2 43 44
M  V30 44 1 44 45
M  V30 45 2 45 46
M  V30 46 1 2 47
M  V30 47 2 47 48
M  V30 48 1 48 49
M  V30 49 2 49 50
M  V30 50 1 50 51
M  V30 51 2 51 52
M  V30 52 1 9 5
M  V30 53 1 14 10
M  V30 54 1 20 15
M  V30 55 1 26 21
M  V30 56 1 31 27
M  V30 57 1 36 32
M  V30 58 1 46 41
M  V30 59 1 52 47
M  V30 60 1 1 53
M  V30 61 1 1 54
M  V30 62 1 2 55 CFG=3
M  V30 63 1 6 56
M  V30 64 1 6 57
M  V30 65 1 7 58
M  V30 66 1 7 59
M  V30 67 1 8 60
M  V30 68 1 8 61
M  V30 69 1 9 62 CFG=1
M  V30 70 1 12 63
M  V30 71 1 14 64
M  V30 72 1 16 65
M  V30 73 1 17 66
M  V30 74 1 19 67
M  V30 75 1 20 68
M  V30 76 1 23 69
M  V30 77 1 25 70
M  V30 78 1 26 71
M  V30 79 1 28 72
M  V30 80 1 31 73
M  V30 81 1 32 74 CFG=1
M  V30 82 1 33 75
M  V30 83 1 33 76
M  V30 84 1 34 77
M  V30 85 1 34 78
M  V30 86 1 35 79
M  V30 87 1 35 80
M  V30 88 1 39 81 CFG=3
M  V30 89 1 40 82
M  V30 90 1 40 83
M  V30 91 1 42 84
M  V30 92 1 43 85
M  V30 93 1 44 86
M  V30 94 1 45 87
M  V30 95 1 46 88
M  V30 96 1 48 89
M  V30 97 1 49 90
M  V30 98 1 50 91
M  V30 99 1 51 92
M  V30 100 1 52 93
M  V30 END BOND
M  V30 END CTAB
M  END
