
     RDKit          3D

  0  0  0  0  0  0  0  0  0  0999 V3000
M  V30 BEGIN CTAB
M  V30 COUNTS 32 31 0 0 0
M  V30 BEGIN ATOM
M  V30 1 C 4.91278 -0.0703336 0.606369 0
M  V30 2 C 3.6116 -0.677487 0.126957 0
M  V30 3 C 2.49262 -0.0119247 0.9032 0
M  V30 4 N 1.20211 -0.501163 0.542426 0
M  V30 5 C 0.21649 0.202689 0.0984759 0
M  V30 6 N 0.44979 1.59478 -0.0394672 0
M  V30 7 N -1.02935 -0.412151 -0.23171 0
M  V30 8 C -2.14913 0.274729 -0.752671 0
M  V30 9 C -2.8252 1.2305 0.192666 0
M  V30 10 C -3.99763 1.84762 -0.58668 0
M  V30 11 C -1.1287 -1.81141 -0.0139782 0
M  V30 12 N -2.18611 -2.39607 0.713217 0
M  V30 13 N -0.21915 -2.57561 -0.501732 0
M  V30 14 H 4.85536 1.03994 0.465763 0
M  V30 15 H 5.08912 -0.304549 1.68106 0
M  V30 16 H 5.75288 -0.412009 -0.0375196 0
M  V30 17 H 3.63297 -1.77478 0.281615 0
M  V30 18 H 3.53868 -0.473838 -0.958998 0
M  V30 19 H 2.54465 1.06691 0.670571 0
M  V30 20 H 2.706 -0.119706 1.99106 0
M  V30 21 H 0.545886 2.16615 0.828863 0
M  V30 22 H 0.519343 2.00388 -0.997547 0
M  V30 23 H -1.8133 0.795111 -1.69179 0
M  V30 24 H -2.92525 -0.441681 -1.09062 0
M  V30 25 H -2.17269 1.99183 0.625201 0
M  V30 26 H -3.3124 0.692778 1.03639 0
M  V30 27 H -4.78475 2.21412 0.0896066 0
M  V30 28 H -4.42658 1.04499 -1.21546 0
M  V30 29 H -3.64691 2.66064 -1.23492 0
M  V30 30 H -2.07254 -3.02597 1.54167 0
M  V30 31 H -3.16526 -2.19573 0.41848 0
M  V30 32 H -0.21535 -3.62225 -0.387231 0
M  V30 END ATOM
M  V30 BEGIN BOND
M  V30 1 1 1 2
M  V30 2 1 2 3
M  V30 3 1 3 4
M  V30 4 2 4 5 CFG=2
M  V30 5 1 5 6
M  V30 6 1 5 7
M  V30 7 1 7 8
M  V30 8 1 8 9
M  V30 9 1 9 10
M  V30 10 1 7 11
M  V30 11 1 11 12
M  V30 12 2 11 13 CFG=2
M  V30 13 1 1 14
M  V30 14 1 1 15
M  V30 15 1 1 16
M  V30 16 1 2 17
M  V30 17 1 2 18
M  V30 18 1 3 19
M  V30 19 1 3 20
M  V30 20 1 6 21
M  V30 21 1 6 22
M  V30 22 1 8 23
M  V30 23 1 8 24
M  V30 24 1 9 25
M  V30 25 1 9 26
M  V30 26 1 10 27
M  V30 27 1 10 28
M  V30 28 1 10 29
M  V30 29 1 12 30
M  V30 30 1 12 31
M  V30 31 1 13 32
M  V30 END BOND
M  V30 END CTAB
M  END
