
     RDKit          3D

  0  0  0  0  0  0  0  0  0  0999 V3000
M  V30 BEGIN CTAB
M  V30 COUNTS 46 48 0 0 0
M  V30 BEGIN ATOM
M  V30 1 C 5.17689 0.430317 -1.24153 0
M  V30 2 C 4.05222 1.32553 -1.67026 0
M  V30 3 O 2.83881 0.663699 -1.66386 0
M  V30 4 C 2.55183 0.196593 -0.37466 0
M  V30 5 C 1.25299 -0.508056 -0.383046 0
M  V30 6 N 1.05072 -1.60741 -1.12477 0
M  V30 7 C -0.175224 -2.08685 -0.896658 0
M  V30 8 C -0.841706 -3.1914 -1.37982 0
M  V30 9 N -0.163222 -4.00388 -2.33868 0
M  V30 10 N -2.06954 -3.49676 -0.9746 0
M  V30 11 C -2.68232 -2.69839 -0.0582813 0
M  V30 12 C -3.94259 -3.03485 0.39838 0
M  V30 13 C -4.5795 -2.27547 1.35262 0
M  V30 14 C -3.95059 -1.15742 1.8641 0
M  V30 15 C -2.68984 -0.797584 1.42338 0
M  V30 16 C -2.07628 -1.5643 0.475177 0
M  V30 17 C -0.805148 -1.25531 0.0439255 0
M  V30 18 N 0.103658 -0.294812 0.329665 0
M  V30 19 C 0.0143199 0.811181 1.20603 0
M  V30 20 C -0.367624 2.10947 0.573174 0
M  V30 21 C -1.63973 2.20502 -0.174923 0
M  V30 22 C -0.594117 3.06516 1.81558 0
M  V30 23 N 0.674542 2.81187 -0.141251 0
M  V30 24 H 5.03232 -0.628977 -1.54493 0
M  V30 25 H 6.14372 0.760906 -1.68694 0
M  V30 26 H 5.33891 0.448802 -0.139688 0
M  V30 27 H 3.98737 2.15245 -0.908044 0
M  V30 28 H 4.26138 1.70191 -2.68205 0
M  V30 29 H 3.39506 -0.591929 -0.232817 0
M  V30 30 H 2.7423 0.876705 0.435477 0
M  V30 31 H 0.852179 -4.16775 -2.32066 0
M  V30 32 H -0.736918 -4.44096 -3.08042 0
M  V30 33 H -4.41233 -3.89936 -0.00671204 0
M  V30 34 H -5.56566 -2.55924 1.69477 0
M  V30 35 H -4.42401 -0.543475 2.61329 0
M  V30 36 H -2.29891 0.0737884 1.87699 0
M  V30 37 H 1.10631 1.03729 1.60974 0
M  V30 38 H -0.50035 0.748977 2.14396 0
M  V30 39 H -1.7987 1.30039 -0.805118 0
M  V30 40 H -2.49712 2.3894 0.497695 0
M  V30 41 H -1.58989 3.05571 -0.879212 0
M  V30 42 H -1.53968 2.7971 2.30503 0
M  V30 43 H -0.689305 4.09032 1.40882 0
M  V30 44 H 0.300483 3.02434 2.45945 0
M  V30 45 H 0.306735 3.73611 -0.387538 0
M  V30 46 H 1.44758 2.99112 0.569213 0
M  V30 END ATOM
M  V30 BEGIN BOND
M  V30 1 1 1 2
M  V30 2 1 2 3
M  V30 3 1 3 4
M  V30 4 1 4 5
M  V30 5 2 5 6
M  V30 6 1 6 7
M  V30 7 2 7 8
M  V30 8 1 8 9
M  V30 9 1 8 10
M  V30 10 2 10 11
M  V30 11 1 11 12
M  V30 12 2 12 13
M  V30 13 1 13 14
M  V30 14 2 14 15
M  V30 15 1 15 16
M  V30 16 2 16 17
M  V30 17 1 17 18
M  V30 18 1 18 19
M  V30 19 1 19 20
M  V30 20 1 20 21
M  V30 21 1 20 22
M  V30 22 1 20 23
M  V30 23 1 18 5
M  V30 24 1 17 7
M  V30 25 1 16 11
M  V30 26 1 1 24
M  V30 27 1 1 25
M  V30 28 1 1 26
M  V30 29 1 2 27
M  V30 30 1 2 28
M  V30 31 1 4 29
M  V30 32 1 4 30
M  V30 33 1 9 31
M  V30 34 1 9 32
M  V30 35 1 12 33
M  V30 36 1 13 34
M  V30 37 1 14 35
M  V30 38 1 15 36
M  V30 39 1 19 37
M  V30 40 1 19 38
M  V30 41 1 21 39
M  V30 42 1 21 40
M  V30 43 1 21 41
M  V30 44 1 22 42
M  V30 45 1 22 43
M  V30 46 1 22 44
M  V30 47 1 23 45
M  V30 48 1 23 46
M  V30 END BOND
M  V30 END CTAB
M  END
