
     RDKit          3D

  0  0  0  0  0  0  0  0  0  0999 V3000
M  V30 BEGIN CTAB
M  V30 COUNTS 21 22 0 0 0
M  V30 BEGIN ATOM
M  V30 1 N -3.23603 0.808289 0.165219 0
M  V30 2 C -1.81523 0.874263 0.133016 0
M  V30 3 C -1.11915 2.06178 0.225513 0
M  V30 4 N 0.226738 2.08448 0.191237 0
M  V30 5 C 0.941414 0.939109 0.0645388 0
M  V30 6 C 0.311467 -0.287459 -0.033405 0
M  V30 7 C -1.06753 -0.28509 0.00411193 0
M  V30 8 N -1.74424 -1.51577 -0.0929626 0
M  V30 9 C 1.05055 -1.44885 -0.162258 0
M  V30 10 C 2.4322 -1.43703 -0.198511 0
M  V30 11 C 3.05377 -0.209553 -0.100256 0
M  V30 12 C 2.32981 0.953185 0.0283142 0
M  V30 13 Cl 3.13228 2.52377 0.153857 0
M  V30 14 Cl 4.80149 -0.17489 -0.144275 0
M  V30 15 Br 3.45006 -3.04322 -0.37664 0
M  V30 16 H -3.82715 1.28673 0.878126 0
M  V30 17 H -3.74608 0.253205 -0.557996 0
M  V30 18 H -1.71316 2.96107 0.325881 0
M  V30 19 H -2.20723 -1.96028 0.752724 0
M  V30 20 H -1.78455 -1.99034 -1.01947 0
M  V30 21 H 0.53057 -2.3934 -0.236763 0
M  V30 END ATOM
M  V30 BEGIN BOND
M  V30 1 1 1 2
M  V30 2 2 2 3
M  V30 3 1 3 4
M  V30 4 2 4 5
M  V30 5 1 5 6
M  V30 6 2 6 7
M  V30 7 1 7 8
M  V30 8 1 6 9
M  V30 9 2 9 10
M  V30 10 1 10 11
M  V30 11 2 11 12
M  V30 12 1 12 13
M  V30 13 1 11 14
M  V30 14 1 10 15
M  V30 15 1 7 2
M  V30 16 1 12 5
M  V30 17 1 1 16
M  V30 18 1 1 17
M  V30 19 1 3 18
M  V30 20 1 8 19
M  V30 21 1 8 20
M  V30 22 1 9 21
M  V30 END BOND
M  V30 END CTAB
M  END
