
     RDKit          3D

  0  0  0  0  0  0  0  0  0  0999 V3000
M  V30 BEGIN CTAB
M  V30 COUNTS 27 27 0 0 0
M  V30 BEGIN ATOM
M  V30 1 N 3.2401 1.34075 -0.104627 0
M  V30 2 C 1.86529 1.45066 -0.0757846 0
M  V30 3 C 1.16132 0.227778 0.525348 0 CFG=2
M  V30 4 C 1.49094 -0.977138 -0.275911 0
M  V30 5 C 0.48082 -2.06396 -0.250604 0
M  V30 6 C -0.942117 -1.57926 -0.092812 0
M  V30 7 N -0.980802 -0.200036 -0.444859 0
M  V30 8 C -0.30634 0.558984 0.56891 0
M  V30 9 S -2.55059 0.430155 -0.681625 0
M  V30 10 O -2.45927 1.85049 -1.15391 0
M  V30 11 O -3.21521 -0.370948 -1.78128 0
M  V30 12 N -3.5376 0.354172 0.706214 0
M  V30 13 H 3.70655 2.00861 -0.662333 0
M  V30 14 H 3.73721 0.599252 0.250604 0
M  V30 15 H 1.4288 1.69565 -1.07153 0
M  V30 16 H 1.59273 2.29627 0.619087 0
M  V30 17 H 1.52948 0.140553 1.56017 0
M  V30 18 H 1.74348 -0.632595 -1.32019 0
M  V30 19 H 2.46034 -1.39529 0.114561 0
M  V30 20 H 0.521185 -2.58552 -1.25193 0
M  V30 21 H 0.673223 -2.86118 0.498394 0
M  V30 22 H -1.63633 -2.22675 -0.64616 0
M  V30 23 H -1.19686 -1.70024 1.00012 0
M  V30 24 H -0.52197 1.63133 0.401103 0
M  V30 25 H -0.768003 0.298223 1.54844 0
M  V30 26 H -4.42108 0.871948 0.499423 0
M  V30 27 H -3.09531 0.83808 1.52119 0
M  V30 END ATOM
M  V30 BEGIN BOND
M  V30 1 1 1 2
M  V30 2 1 2 3
M  V30 3 1 3 4
M  V30 4 1 4 5
M  V30 5 1 5 6
M  V30 6 1 6 7
M  V30 7 1 7 8
M  V30 8 1 7 9
M  V30 9 2 9 10
M  V30 10 2 9 11
M  V30 11 1 9 12
M  V30 12 1 8 3
M  V30 13 1 1 13
M  V30 14 1 1 14
M  V30 15 1 2 15
M  V30 16 1 2 16
M  V30 17 1 3 17 CFG=1
M  V30 18 1 4 18
M  V30 19 1 4 19
M  V30 20 1 5 20
M  V30 21 1 5 21
M  V30 22 1 6 22
M  V30 23 1 6 23
M  V30 24 1 8 24
M  V30 25 1 8 25
M  V30 26 1 12 26
M  V30 27 1 12 27
M  V30 END BOND
M  V30 END CTAB
M  END
