
     RDKit          3D

  0  0  0  0  0  0  0  0  0  0999 V3000
M  V30 BEGIN CTAB
M  V30 COUNTS 30 32 0 0 0
M  V30 BEGIN ATOM
M  V30 1 N 3.46499 -1.31824 -0.439048 0
M  V30 2 C 2.75794 -0.175985 -0.0425007 0
M  V30 3 C 3.50682 0.914085 0.34383 0
M  V30 4 C 2.86212 2.05412 0.73993 0
M  V30 5 C 1.46696 2.11721 0.754292 0
M  V30 6 C 0.705551 1.0262 0.367561 0
M  V30 7 C -0.673806 1.1468 0.402193 0
M  V30 8 O -1.36183 2.27213 0.792893 0
M  V30 9 C -1.4184 0.0472128 0.0125712 0
M  V30 10 C -0.799644 -1.09091 -0.382998 0
M  V30 11 C -1.54985 -2.18256 -0.769877 0
M  V30 12 C -2.93067 -2.07624 -0.740268 0
M  V30 13 C -3.56581 -0.919651 -0.338318 0
M  V30 14 C -2.80899 0.176856 0.0502986 0
M  V30 15 N -3.45358 1.37374 0.466309 0
M  V30 16 C 0.611064 -1.22769 -0.423123 0
M  V30 17 O 1.13799 -2.37609 -0.822799 0
M  V30 18 C 1.36698 -0.126718 -0.0329597 0
M  V30 19 H 3.71013 -1.41829 -1.45066 0
M  V30 20 H 3.73253 -2.04666 0.28574 0
M  V30 21 H 4.58194 0.896697 0.343714 0
M  V30 22 H 3.39495 2.93809 1.05281 0
M  V30 23 H 0.983789 3.02354 1.06936 0
M  V30 24 H -0.922516 3.09566 1.08405 0
M  V30 25 H -1.0906 -3.10687 -1.09139 0
M  V30 26 H -3.55083 -2.91214 -1.03677 0
M  V30 27 H -4.66081 -0.857357 -0.32256 0
M  V30 28 H -3.75025 1.56821 1.43631 0
M  V30 29 H -3.61966 2.08485 -0.30618 0
M  V30 30 H 1.87348 -2.90001 -1.0024 0
M  V30 END ATOM
M  V30 BEGIN BOND
M  V30 1 1 1 2
M  V30 2 2 2 3
M  V30 3 1 3 4
M  V30 4 2 4 5
M  V30 5 1 5 6
M  V30 6 2 6 7
M  V30 7 1 7 8
M  V30 8 1 7 9
M  V30 9 2 9 10
M  V30 10 1 10 11
M  V30 11 2 11 12
M  V30 12 1 12 13
M  V30 13 2 13 14
M  V30 14 1 14 15
M  V30 15 1 10 16
M  V30 16 1 16 17
M  V30 17 2 16 18
M  V30 18 1 18 2
M  V30 19 1 18 6
M  V30 20 1 14 9
M  V30 21 1 1 19
M  V30 22 1 1 20
M  V30 23 1 3 21
M  V30 24 1 4 22
M  V30 25 1 5 23
M  V30 26 1 8 24
M  V30 27 1 11 25
M  V30 28 1 12 26
M  V30 29 1 13 27
M  V30 30 1 15 28
M  V30 31 1 15 29
M  V30 32 1 17 30
M  V30 END BOND
M  V30 END CTAB
M  END
