
     RDKit          3D

  0  0  0  0  0  0  0  0  0  0999 V3000
M  V30 BEGIN CTAB
M  V30 COUNTS 59 60 0 0 0
M  V30 BEGIN ATOM
M  V30 1 C 3.64785 0.227013 -0.76676 0 CFG=1
M  V30 2 C 4.6926 0.382728 0.2024 0
M  V30 3 N 6.04873 0.0190764 0.0685488 0
M  V30 4 C 6.63674 -0.883325 0.847573 0
M  V30 5 C 8.0253 -1.06021 0.903557 0
M  V30 6 C 8.82233 -0.274432 0.124643 0
M  V30 7 N 10.279 -0.306592 0.150499 0
M  V30 8 N 8.19785 0.649619 -0.677665 0
M  V30 9 C 6.8669 0.787463 -0.699497 0
M  V30 10 O 6.29877 1.6379 -1.43224 0
M  V30 11 C 3.2961 -1.10061 -1.2806 0
M  V30 12 O 2.02547 -1.00507 -1.99096 0
M  V30 13 P 0.915373 -0.939686 -0.793676 0
M  V30 14 O 0.208656 -2.16189 -0.385487 0
M  V30 15 C 1.92099 -0.245667 0.683435 0
M  V30 16 O 2.50794 0.829398 -0.0366289 0
M  V30 17 O -0.16001 0.38388 -0.975817 0
M  V30 18 C -1.4632 -0.156234 -0.89189 0
M  V30 19 C -2.08934 0.52383 0.307047 0 CFG=2
M  V30 20 N -3.46076 0.101142 0.546351 0
M  V30 21 C -4.49607 0.359243 -0.367431 0
M  V30 22 O -4.21449 1.00082 -1.45848 0
M  V30 23 C -5.86669 -0.0546272 -0.120693 0 CFG=1
M  V30 24 N -6.73043 0.509477 -1.08975 0
M  V30 25 C -6.16653 -1.38752 0.426623 0
M  V30 26 C -7.70128 -1.46515 0.479229 0
M  V30 27 C -5.53186 -2.60153 -0.0902627 0
M  V30 28 C -2.09338 2.01459 0.0897071 0
M  V30 29 O -1.68523 2.58819 -0.90231 0
M  V30 30 O -2.65454 2.74687 1.15443 0
M  V30 31 C -2.84275 4.1513 1.10216 0
M  V30 32 H 3.66938 0.923794 -1.66587 0
M  V30 33 H 4.29496 -0.132306 1.18074 0
M  V30 34 H 4.63354 1.48244 0.579674 0
M  V30 35 H 5.97342 -1.51342 1.46014 0
M  V30 36 H 8.46322 -1.77998 1.57032 0
M  V30 37 H 10.841 0.480505 -0.29429 0
M  V30 38 H 10.7585 -1.0552 0.635898 0
M  V30 39 H 3.21063 -1.91575 -0.547871 0
M  V30 40 H 4.00162 -1.41634 -2.06377 0
M  V30 41 H 1.19414 0.267875 1.35111 0
M  V30 42 H 2.50966 -1.02558 1.02095 0
M  V30 43 H -1.96059 0.441015 -1.78417 0
M  V30 44 H -1.63055 -1.15063 -1.10993 0
M  V30 45 H -1.47693 0.325211 1.1698 0
M  V30 46 H -3.70802 -0.369485 1.4855 0
M  V30 47 H -6.12894 0.646516 0.853203 0
M  V30 48 H -6.64443 0.244004 -2.05919 0
M  V30 49 H -6.5258 1.59401 -1.00414 0
M  V30 50 H -5.91425 -1.40898 1.58096 0
M  V30 51 H -7.99811 -0.560989 1.05156 0
M  V30 52 H -8.0171 -2.41024 0.867148 0
M  V30 53 H -8.01983 -1.33477 -0.602972 0
M  V30 54 H -4.58437 -2.48716 -0.631667 0
M  V30 55 H -5.21854 -3.35357 0.748576 0
M  V30 56 H -6.18537 -3.20901 -0.746683 0
M  V30 57 H -2.86823 4.51953 2.13803 0
M  V30 58 H -3.86587 4.31052 0.628601 0
M  V30 59 H -2.03716 4.61799 0.534938 0
M  V30 END ATOM
M  V30 BEGIN BOND
M  V30 1 1 1 2
M  V30 2 1 2 3
M  V30 3 1 3 4
M  V30 4 2 4 5
M  V30 5 1 5 6
M  V30 6 1 6 7
M  V30 7 2 6 8
M  V30 8 1 8 9
M  V30 9 2 9 10
M  V30 10 1 1 11
M  V30 11 1 11 12
M  V30 12 1 12 13
M  V30 13 2 13 14
M  V30 14 1 13 15
M  V30 15 1 15 16
M  V30 16 1 13 17
M  V30 17 1 17 18
M  V30 18 1 18 19
M  V30 19 1 19 20
M  V30 20 1 20 21
M  V30 21 2 21 22
M  V30 22 1 21 23
M  V30 23 1 23 24
M  V30 24 1 23 25
M  V30 25 1 25 26
M  V30 26 1 25 27
M  V30 27 1 19 28
M  V30 28 2 28 29
M  V30 29 1 28 30
M  V30 30 1 30 31
M  V30 31 1 16 1
M  V30 32 1 9 3
M  V30 33 1 1 32 CFG=3
M  V30 34 1 2 33
M  V30 35 1 2 34
M  V30 36 1 4 35
M  V30 37 1 5 36
M  V30 38 1 7 37
M  V30 39 1 7 38
M  V30 40 1 11 39
M  V30 41 1 11 40
M  V30 42 1 15 41
M  V30 43 1 15 42
M  V30 44 1 18 43
M  V30 45 1 18 44
M  V30 46 1 19 45 CFG=1
M  V30 47 1 20 46
M  V30 48 1 23 47 CFG=1
M  V30 49 1 24 48
M  V30 50 1 24 49
M  V30 51 1 25 50
M  V30 52 1 26 51
M  V30 53 1 26 52
M  V30 54 1 26 53
M  V30 55 1 27 54
M  V30 56 1 27 55
M  V30 57 1 27 56
M  V30 58 1 31 57
M  V30 59 1 31 58
M  V30 60 1 31 59
M  V30 END BOND
M  V30 END CTAB
M  END
