
     RDKit          3D

  0  0  0  0  0  0  0  0  0  0999 V3000
M  V30 BEGIN CTAB
M  V30 COUNTS 22 22 0 0 0
M  V30 BEGIN ATOM
M  V30 1 Cl 4.73009 0.852939 0.468554 0
M  V30 2 C 3.00448 1.19916 0.307436 0
M  V30 3 C 2.2533 -0.0668746 0.401172 0
M  V30 4 O 2.85915 -1.13262 0.567014 0
M  V30 5 C 0.794578 -0.0900621 0.301437 0
M  V30 6 C 0.0773974 1.08113 0.115572 0
M  V30 7 C -1.29431 1.12037 0.0147202 0
M  V30 8 O -1.97907 2.31042 -0.171044 0
M  V30 9 C -1.99584 -0.0617305 0.102234 0
M  V30 10 C -1.28787 -1.24861 0.289266 0
M  V30 11 C 0.0858009 -1.26231 0.387302 0
M  V30 12 N 0.785887 -2.48403 0.577819 0
M  V30 13 N -3.4157 -0.0734636 0.00389096 0
M  V30 14 H 2.67071 1.95186 1.05579 0
M  V30 15 H 2.75667 1.64402 -0.683233 0
M  V30 16 H 0.609804 2.02592 0.043639 0
M  V30 17 H -2.98403 2.36591 -0.24801 0
M  V30 18 H -1.84119 -2.17968 0.358146 0
M  V30 19 H 1.16338 -2.66665 1.5275 0
M  V30 20 H 0.8868 -3.13011 -0.230711 0
M  V30 21 H -3.97996 0.706395 0.39684 0
M  V30 22 H -3.90007 -0.861992 -0.46169 0
M  V30 END ATOM
M  V30 BEGIN BOND
M  V30 1 1 1 2
M  V30 2 1 2 3
M  V30 3 2 3 4
M  V30 4 1 3 5
M  V30 5 2 5 6
M  V30 6 1 6 7
M  V30 7 1 7 8
M  V30 8 2 7 9
M  V30 9 1 9 10
M  V30 10 2 10 11
M  V30 11 1 11 12
M  V30 12 1 9 13
M  V30 13 1 11 5
M  V30 14 1 2 14
M  V30 15 1 2 15
M  V30 16 1 6 16
M  V30 17 1 8 17
M  V30 18 1 10 18
M  V30 19 1 12 19
M  V30 20 1 12 20
M  V30 21 1 13 21
M  V30 22 1 13 22
M  V30 END BOND
M  V30 END CTAB
M  END
