
     RDKit          3D

  0  0  0  0  0  0  0  0  0  0999 V3000
M  V30 BEGIN CTAB
M  V30 COUNTS 47 48 0 0 0
M  V30 BEGIN ATOM
M  V30 1 C 5.13717 0.28954 -1.30474 0
M  V30 2 C 3.84164 0.98285 -0.890476 0
M  V30 3 C 3.61136 0.612236 0.567631 0
M  V30 4 C 2.36837 1.23117 1.09477 0
M  V30 5 N 1.15201 0.878314 0.438279 0
M  V30 6 C 0.557398 -0.403018 0.558171 0
M  V30 7 C -0.570531 -0.75177 -0.197562 0
M  V30 8 O -1.05797 0.188086 -1.06493 0
M  V30 9 C -1.96068 1.20649 -0.728415 0
M  V30 10 C -2.38288 2.01274 -1.74479 0
M  V30 11 C -3.2602 3.03186 -1.51493 0
M  V30 12 C -3.71933 3.23998 -0.234089 0
M  V30 13 N -4.63565 4.29589 0.0363547 0
M  V30 14 C -3.30313 2.43502 0.804149 0
M  V30 15 C -2.41619 1.40829 0.559021 0
M  V30 16 C -1.15308 -1.99176 -0.0634935 0
M  V30 17 C -0.572006 -2.86689 0.849232 0
M  V30 18 C 0.523409 -2.57729 1.60864 0
M  V30 19 C 1.08233 -1.31693 1.44452 0
M  V30 20 C 1.11803 -3.50395 2.55817 0
M  V30 21 O 2.22057 -3.14315 3.28813 0
M  V30 22 O 0.614651 -4.63336 2.70313 0
M  V30 23 S -2.55542 -2.47227 -1.00769 0
M  V30 24 N -2.96088 -4.11285 -0.554717 0
M  V30 25 O -2.22467 -2.51681 -2.47481 0
M  V30 26 O -3.7627 -1.66301 -0.748957 0
M  V30 27 H 5.18856 -0.675833 -0.754232 0
M  V30 28 H 6.0169 0.886596 -0.994703 0
M  V30 29 H 5.10005 0.0902808 -2.38753 0
M  V30 30 H 3.93118 2.08055 -0.974987 0
M  V30 31 H 3.03646 0.641986 -1.54829 0
M  V30 32 H 4.46902 1.10587 1.1158 0
M  V30 33 H 3.71768 -0.459819 0.737641 0
M  V30 34 H 2.27869 0.978484 2.1723 0
M  V30 35 H 2.46725 2.35194 1.04842 0
M  V30 36 H 0.63038 1.56797 -0.179021 0
M  V30 37 H -2.02414 1.84893 -2.74129 0
M  V30 38 H -3.61044 3.69312 -2.33106 0
M  V30 39 H -5.4637 4.14829 0.616132 0
M  V30 40 H -4.44785 5.23545 -0.370953 0
M  V30 41 H -3.67696 2.60986 1.8278 0
M  V30 42 H -2.0688 0.757705 1.34968 0
M  V30 43 H -1.0321 -3.84483 0.95469 0
M  V30 44 H 1.94197 -1.09557 2.06427 0
M  V30 45 H 3.10489 -2.85432 2.92298 0
M  V30 46 H -2.23761 -4.78037 -0.926654 0
M  V30 47 H -3.01302 -4.14569 0.494964 0
M  V30 END ATOM
M  V30 BEGIN BOND
M  V30 1 1 1 2
M  V30 2 1 2 3
M  V30 3 1 3 4
M  V30 4 1 4 5
M  V30 5 1 5 6
M  V30 6 2 6 7
M  V30 7 1 7 8
M  V30 8 1 8 9
M  V30 9 2 9 10
M  V30 10 1 10 11
M  V30 11 2 11 12
M  V30 12 1 12 13
M  V30 13 1 12 14
M  V30 14 2 14 15
M  V30 15 1 7 16
M  V30 16 2 16 17
M  V30 17 1 17 18
M  V30 18 2 18 19
M  V30 19 1 18 20
M  V30 20 1 20 21
M  V30 21 2 20 22
M  V30 22 1 16 23
M  V30 23 1 23 24
M  V30 24 2 23 25
M  V30 25 2 23 26
M  V30 26 1 19 6
M  V30 27 1 15 9
M  V30 28 1 1 27
M  V30 29 1 1 28
M  V30 30 1 1 29
M  V30 31 1 2 30
M  V30 32 1 2 31
M  V30 33 1 3 32
M  V30 34 1 3 33
M  V30 35 1 4 34
M  V30 36 1 4 35
M  V30 37 1 5 36
M  V30 38 1 10 37
M  V30 39 1 11 38
M  V30 40 1 13 39
M  V30 41 1 13 40
M  V30 42 1 14 41
M  V30 43 1 15 42
M  V30 44 1 17 43
M  V30 45 1 19 44
M  V30 46 1 21 45
M  V30 47 1 24 46
M  V30 48 1 24 47
M  V30 END BOND
M  V30 END CTAB
M  END
