
     RDKit          3D

  0  0  0  0  0  0  0  0  0  0999 V3000
M  V30 BEGIN CTAB
M  V30 COUNTS 41 42 0 0 0
M  V30 BEGIN ATOM
M  V30 1 N -7.4921 -0.562781 1.63678 0
M  V30 2 C -7.23768 0.850339 1.45207 0
M  V30 3 C -6.77595 1.1635 0.0601124 0
M  V30 4 C -5.49444 0.420114 -0.24272 0
M  V30 5 S -5.27627 -1.12931 -0.920283 0
M  V30 6 C -3.56933 -1.17182 -0.906683 0
M  V30 7 C -3.26309 0.0574887 -0.360033 0
M  V30 8 N -4.25807 0.823165 -0.0419922 0
M  V30 9 C -1.85765 0.445577 -0.162694 0
M  V30 10 O -1.61767 1.56624 0.334954 0
M  V30 11 N -0.781942 -0.402996 -0.515744 0
M  V30 12 C 0.582716 0.00167924 -0.311876 0
M  V30 13 C 1.55956 -1.06266 -0.761756 0
M  V30 14 C 2.91622 -0.524428 -0.49926 0
M  V30 15 C 3.53111 -0.755963 0.722978 0
M  V30 16 C 4.80461 -0.257536 0.985208 0
M  V30 17 C 5.48999 0.478727 0.0404058 0
M  V30 18 C 4.84976 0.691044 -1.16548 0
M  V30 19 C 3.60002 0.209717 -1.44092 0
M  V30 20 S 7.09026 1.10998 0.358455 0
M  V30 21 O 7.2228 1.3185 1.83546 0
M  V30 22 O 7.32724 2.39568 -0.39655 0
M  V30 23 N 8.22604 -0.0965495 -0.148208 0
M  V30 24 H -6.70245 -1.01521 2.14149 0
M  V30 25 H -7.76092 -1.04273 0.754295 0
M  V30 26 H -6.44573 1.18758 2.15068 0
M  V30 27 H -8.17187 1.39063 1.63925 0
M  V30 28 H -6.51538 2.22938 -0.00215872 0
M  V30 29 H -7.50158 0.843061 -0.715462 0
M  V30 30 H -2.87601 -1.96532 -1.24267 0
M  V30 31 H -0.978039 -1.33857 -0.931127 0
M  V30 32 H 0.762605 0.918024 -0.909222 0
M  V30 33 H 0.724957 0.206395 0.767691 0
M  V30 34 H 1.39211 -1.30854 -1.81505 0
M  V30 35 H 1.40586 -1.98149 -0.170201 0
M  V30 36 H 3.03469 -1.32849 1.49837 0
M  V30 37 H 5.27786 -0.438905 1.93326 0
M  V30 38 H 5.39192 1.27058 -1.90615 0
M  V30 39 H 3.09247 0.375581 -2.3912 0
M  V30 40 H 7.86123 -0.587601 -0.979737 0
M  V30 41 H 8.43214 -0.770384 0.62571 0
M  V30 END ATOM
M  V30 BEGIN BOND
M  V30 1 1 1 2
M  V30 2 1 2 3
M  V30 3 1 3 4
M  V30 4 1 4 5
M  V30 5 1 5 6
M  V30 6 2 6 7
M  V30 7 1 7 8
M  V30 8 1 7 9
M  V30 9 2 9 10
M  V30 10 1 9 11
M  V30 11 1 11 12
M  V30 12 1 12 13
M  V30 13 1 13 14
M  V30 14 2 14 15
M  V30 15 1 15 16
M  V30 16 2 16 17
M  V30 17 1 17 18
M  V30 18 2 18 19
M  V30 19 1 17 20
M  V30 20 2 20 21
M  V30 21 2 20 22
M  V30 22 1 20 23
M  V30 23 2 8 4
M  V30 24 1 19 14
M  V30 25 1 1 24
M  V30 26 1 1 25
M  V30 27 1 2 26
M  V30 28 1 2 27
M  V30 29 1 3 28
M  V30 30 1 3 29
M  V30 31 1 6 30
M  V30 32 1 11 31
M  V30 33 1 12 32
M  V30 34 1 12 33
M  V30 35 1 13 34
M  V30 36 1 13 35
M  V30 37 1 15 36
M  V30 38 1 16 37
M  V30 39 1 18 38
M  V30 40 1 19 39
M  V30 41 1 23 40
M  V30 42 1 23 41
M  V30 END BOND
M  V30 END CTAB
M  END
