
     RDKit          3D

  0  0  0  0  0  0  0  0  0  0999 V3000
M  V30 BEGIN CTAB
M  V30 COUNTS 19 20 0 0 0
M  V30 BEGIN ATOM
M  V30 1 N -1.12098 0.588396 1.26905 0
M  V30 2 N -1.06888 0.181581 -0.0614779 0
M  V30 3 C -2.13619 0.131905 -0.900432 0
M  V30 4 N -3.4493 0.499222 -0.496765 0
M  V30 5 N -1.72679 -0.304969 -2.10655 0
M  V30 6 N -0.425976 -0.523003 -2.01764 0
M  V30 7 C -0.0010195 -0.225425 -0.752632 0
M  V30 8 C 1.36372 -0.332915 -0.252936 0
M  V30 9 C 1.89458 -0.0629461 0.986164 0
M  V30 10 N 3.22322 -0.309474 0.997222 0
M  V30 11 N 3.51453 -0.722149 -0.202036 0
M  V30 12 C 2.46111 -0.763413 -1.00402 0
M  V30 13 H -0.722229 1.50773 1.56949 0
M  V30 14 H -1.55037 0.0188659 2.03846 0
M  V30 15 H -4.18823 -0.213281 -0.424798 0
M  V30 16 H -3.70161 1.48384 -0.264881 0
M  V30 17 H 1.34171 0.29599 1.84059 0
M  V30 18 H 3.83036 -0.175727 1.8279 0
M  V30 19 H 2.46235 -1.07422 -2.04471 0
M  V30 END ATOM
M  V30 BEGIN BOND
M  V30 1 1 1 2
M  V30 2 1 2 3
M  V30 3 1 3 4
M  V30 4 2 3 5
M  V30 5 1 5 6
M  V30 6 2 6 7
M  V30 7 1 7 8
M  V30 8 2 8 9
M  V30 9 1 9 10
M  V30 10 1 10 11
M  V30 11 2 11 12
M  V30 12 1 7 2
M  V30 13 1 12 8
M  V30 14 1 1 13
M  V30 15 1 1 14
M  V30 16 1 4 15
M  V30 17 1 4 16
M  V30 18 1 9 17
M  V30 19 1 10 18
M  V30 20 1 12 19
M  V30 END BOND
M  V30 END CTAB
M  END
