
     RDKit          3D

  0  0  0  0  0  0  0  0  0  0999 V3000
M  V30 BEGIN CTAB
M  V30 COUNTS 34 36 0 0 0
M  V30 BEGIN ATOM
M  V30 1 N 6.97244 0.339794 -0.498071 0
M  V30 2 C 5.56026 0.294826 -0.401218 0
M  V30 3 C 4.88059 0.98425 0.586641 0
M  V30 4 C 3.5084 0.948114 0.690276 0
M  V30 5 C 2.74352 0.216051 -0.194546 0
M  V30 6 C 3.41579 -0.474278 -1.18279 0
M  V30 7 C 4.7904 -0.4432 -1.29339 0
M  V30 8 C 1.2802 0.175626 -0.087701 0
M  V30 9 C 0.586581 -0.949794 -0.477684 0
M  V30 10 N -0.77026 -0.98569 -0.379061 0
M  V30 11 C -1.44039 0.0774048 0.0995807 0
M  V30 12 N -0.798795 1.18965 0.488701 0
M  V30 13 C 0.556526 1.24352 0.397365 0
M  V30 14 C -2.88199 0.00557248 0.190001 0
M  V30 15 C -3.58191 1.08531 0.677154 0
M  V30 16 C -4.95911 1.10977 0.799765 0
M  V30 17 C -5.67145 -0.0120542 0.411596 0
M  V30 18 N -7.08873 -0.00384839 0.530895 0
M  V30 19 C -5.00361 -1.10786 -0.0792948 0
M  V30 20 C -3.60834 -1.10414 -0.192188 0
M  V30 21 H 7.44132 1.26306 -0.520647 0
M  V30 22 H 7.54736 -0.516688 -0.546633 0
M  V30 23 H 5.4778 1.55952 1.28253 0
M  V30 24 H 2.98517 1.49401 1.47066 0
M  V30 25 H 2.82183 -1.05486 -1.88583 0
M  V30 26 H 5.31983 -0.99158 -2.07788 0
M  V30 27 H 1.14499 -1.79634 -0.860868 0
M  V30 28 H 1.10947 2.11461 0.697891 0
M  V30 29 H -3.01035 1.97171 0.983106 0
M  V30 30 H -5.45443 1.98741 1.18965 0
M  V30 31 H -7.65987 0.86675 0.523949 0
M  V30 32 H -7.57087 -0.926919 0.630171 0
M  V30 33 H -5.54781 -2.00498 -0.391749 0
M  V30 34 H -3.09457 -1.97384 -0.580385 0
M  V30 END ATOM
M  V30 BEGIN BOND
M  V30 1 1 1 2
M  V30 2 2 2 3
M  V30 3 1 3 4
M  V30 4 2 4 5
M  V30 5 1 5 6
M  V30 6 2 6 7
M  V30 7 1 5 8
M  V30 8 2 8 9
M  V30 9 1 9 10
M  V30 10 2 10 11
M  V30 11 1 11 12
M  V30 12 2 12 13
M  V30 13 1 11 14
M  V30 14 2 14 15
M  V30 15 1 15 16
M  V30 16 2 16 17
M  V30 17 1 17 18
M  V30 18 1 17 19
M  V30 19 2 19 20
M  V30 20 1 7 2
M  V30 21 1 13 8
M  V30 22 1 20 14
M  V30 23 1 1 21
M  V30 24 1 1 22
M  V30 25 1 3 23
M  V30 26 1 4 24
M  V30 27 1 6 25
M  V30 28 1 7 26
M  V30 29 1 9 27
M  V30 30 1 13 28
M  V30 31 1 15 29
M  V30 32 1 16 30
M  V30 33 1 18 31
M  V30 34 1 18 32
M  V30 35 1 19 33
M  V30 36 1 20 34
M  V30 END BOND
M  V30 END CTAB
M  END
