
     RDKit          3D

  0  0  0  0  0  0  0  0  0  0999 V3000
M  V30 BEGIN CTAB
M  V30 COUNTS 25 25 0 0 0
M  V30 BEGIN ATOM
M  V30 1 N 1.23966 -2.01588 -0.257595 0
M  V30 2 C 1.67035 -0.693899 0.0442788 0
M  V30 3 C 3.00963 -0.405708 -0.218142 0
M  V30 4 C 3.48581 0.855973 0.0588222 0
M  V30 5 C 2.61216 1.79524 0.590277 0
M  V30 6 C 1.28059 1.49132 0.845422 0
M  V30 7 C 0.804597 0.235427 0.570169 0
M  V30 8 C -0.609439 -0.135158 0.818273 0
M  V30 9 C -1.31897 -0.141247 -0.497031 0
M  V30 10 S -3.02589 -0.568093 -0.399592 0
M  V30 11 O -3.62204 -0.47816 -1.79684 0
M  V30 12 O -3.25517 -1.9517 0.0786281 0
M  V30 13 N -3.91769 0.523688 0.595116 0
M  V30 14 H 0.591867 -2.526 0.392902 0
M  V30 15 H 1.59363 -2.44363 -1.14078 0
M  V30 16 H 3.66402 -1.14079 -0.626355 0
M  V30 17 H 4.52081 1.09915 -0.138764 0
M  V30 18 H 3.0072 2.76598 0.795891 0
M  V30 19 H 0.659139 2.28043 1.26207 0
M  V30 20 H -0.652731 -1.09133 1.35655 0
M  V30 21 H -1.03422 0.625972 1.50054 0
M  V30 22 H -1.23444 0.896248 -0.911065 0
M  V30 23 H -0.81874 -0.798634 -1.23104 0
M  V30 24 H -3.70653 1.5234 0.327626 0
M  V30 25 H -4.94357 0.297401 0.420456 0
M  V30 END ATOM
M  V30 BEGIN BOND
M  V30 1 1 1 2
M  V30 2 2 2 3
M  V30 3 1 3 4
M  V30 4 2 4 5
M  V30 5 1 5 6
M  V30 6 2 6 7
M  V30 7 1 7 8
M  V30 8 1 8 9
M  V30 9 1 9 10
M  V30 10 2 10 11
M  V30 11 2 10 12
M  V30 12 1 10 13
M  V30 13 1 7 2
M  V30 14 1 1 14
M  V30 15 1 1 15
M  V30 16 1 3 16
M  V30 17 1 4 17
M  V30 18 1 5 18
M  V30 19 1 6 19
M  V30 20 1 8 20
M  V30 21 1 8 21
M  V30 22 1 9 22
M  V30 23 1 9 23
M  V30 24 1 13 24
M  V30 25 1 13 25
M  V30 END BOND
M  V30 END CTAB
M  END
