
     RDKit          3D

  0  0  0  0  0  0  0  0  0  0999 V3000
M  V30 BEGIN CTAB
M  V30 COUNTS 35 36 0 0 0
M  V30 BEGIN ATOM
M  V30 1 N -3.40537 1.73901 0.310784 0
M  V30 2 C -3.39782 0.900331 -0.850188 0
M  V30 3 C -3.10978 -0.494864 -0.448157 0
M  V30 4 N -1.91826 -0.792196 0.192453 0
M  V30 5 C -1.77353 -2.14017 0.515628 0
M  V30 6 C -0.384015 -2.68955 0.529954 0
M  V30 7 N 0.639217 -1.71152 0.664411 0
M  V30 8 C 0.430733 -0.529382 -0.145958 0 CFG=1
M  V30 9 C -0.86571 0.101011 0.305204 0
M  V30 10 C 1.61257 0.342943 0.0484908 0
M  V30 11 C 1.50322 1.69513 0.27136 0
M  V30 12 C 2.66653 2.45307 0.445465 0
M  V30 13 C 3.887 1.84338 0.392043 0
M  V30 14 C 3.9655 0.496094 0.168794 0
M  V30 15 N 2.84378 -0.191595 0.00814748 0
M  V30 16 N 5.26932 -0.112 0.119006 0
M  V30 17 H -3.46217 2.70683 0.0865738 0
M  V30 18 H -4.09572 1.44147 0.980167 0
M  V30 19 H -4.43676 0.945985 -1.24696 0
M  V30 20 H -2.74745 1.32662 -1.61438 0
M  V30 21 H -3.95804 -0.837752 0.205694 0
M  V30 22 H -3.19572 -1.14229 -1.36486 0
M  V30 23 H -2.35716 -2.75655 -0.22976 0
M  V30 24 H -2.2867 -2.34115 1.49983 0
M  V30 25 H -0.164423 -3.31116 -0.371096 0
M  V30 26 H -0.285183 -3.3994 1.40087 0
M  V30 27 H 0.966102 -1.52102 1.61449 0
M  V30 28 H 0.349446 -0.878433 -1.19667 0
M  V30 29 H -0.981803 1.02687 -0.271131 0
M  V30 30 H -0.724845 0.395897 1.37259 0
M  V30 31 H 0.552077 2.19946 0.318582 0
M  V30 32 H 2.57979 3.50881 0.619383 0
M  V30 33 H 4.79213 2.42489 0.526124 0
M  V30 34 H 5.46998 -0.821324 -0.623828 0
M  V30 35 H 6.02307 0.122544 0.790003 0
M  V30 END ATOM
M  V30 BEGIN BOND
M  V30 1 1 1 2
M  V30 2 1 2 3
M  V30 3 1 3 4
M  V30 4 1 4 5
M  V30 5 1 5 6
M  V30 6 1 6 7
M  V30 7 1 7 8
M  V30 8 1 8 9
M  V30 9 1 8 10
M  V30 10 2 10 11
M  V30 11 1 11 12
M  V30 12 2 12 13
M  V30 13 1 13 14
M  V30 14 2 14 15
M  V30 15 1 14 16
M  V30 16 1 9 4
M  V30 17 1 15 10
M  V30 18 1 1 17
M  V30 19 1 1 18
M  V30 20 1 2 19
M  V30 21 1 2 20
M  V30 22 1 3 21
M  V30 23 1 3 22
M  V30 24 1 5 23
M  V30 25 1 5 24
M  V30 26 1 6 25
M  V30 27 1 6 26
M  V30 28 1 7 27
M  V30 29 1 8 28 CFG=3
M  V30 30 1 9 29
M  V30 31 1 9 30
M  V30 32 1 11 31
M  V30 33 1 12 32
M  V30 34 1 13 33
M  V30 35 1 16 34
M  V30 36 1 16 35
M  V30 END BOND
M  V30 END CTAB
M  END
