
     RDKit          3D

  0  0  0  0  0  0  0  0  0  0999 V3000
M  V30 BEGIN CTAB
M  V30 COUNTS 69 73 0 0 0
M  V30 BEGIN ATOM
M  V30 1 C 9.15023 0.119331 0.362865 0
M  V30 2 C 7.65297 0.548713 0.56465 0
M  V30 3 C 7.48479 1.81997 -0.193279 0
M  V30 4 N 7.58288 0.816024 1.99871 0
M  V30 5 C 6.82997 -0.572929 0.199395 0
M  V30 6 C 5.52435 -0.817101 0.245083 0
M  V30 7 C 5.22167 -2.16364 -0.269703 0
M  V30 8 N 5.03688 -3.26017 -0.692701 0
M  V30 9 C 4.48856 0.02679 0.71011 0
M  V30 10 O 4.91407 1.19195 1.14985 0
M  V30 11 N 3.11454 -0.194385 0.767947 0
M  V30 12 C 2.31911 0.913864 1.33195 0
M  V30 13 C 1.13829 0.487478 2.10865 0
M  V30 14 C 0.778121 -0.955213 2.021 0
M  V30 15 C 1.00195 -1.43451 0.626075 0 CFG=2
M  V30 16 C 2.47539 -1.39101 0.317229 0
M  V30 17 N 0.135209 -0.84427 -0.342679 0
M  V30 18 N -1.1892 -0.86415 -0.0924461 0
M  V30 19 C -1.81954 -0.271916 -1.11201 0
M  V30 20 C -0.902272 0.1316 -2.02536 0
M  V30 21 C -0.961372 0.770495 -3.25166 0
M  V30 22 N -2.20401 1.13747 -3.79541 0
M  V30 23 N 0.205721 1.00023 -3.89313 0
M  V30 24 C 1.38929 0.628787 -3.37543 0
M  V30 25 N 1.43953 0.00698849 -2.184 0
M  V30 26 C 0.334873 -0.248061 -1.50421 0
M  V30 27 C -3.27601 -0.134442 -1.19784 0
M  V30 28 C -4.03617 -1.28706 -1.2374 0
M  V30 29 F -3.44357 -2.52484 -1.23309 0
M  V30 30 C -5.40419 -1.17064 -1.28186 0
M  V30 31 C -6.06286 0.0424511 -1.28901 0
M  V30 32 O -7.43181 0.0233714 -1.33609 0
M  V30 33 C -8.28654 -0.0123004 -0.244578 0
M  V30 34 C -8.76487 1.12327 0.360642 0
M  V30 35 C -9.60742 0.998467 1.4365 0
M  V30 36 C -10.0144 -0.212475 1.96184 0
M  V30 37 C -9.52032 -1.33698 1.33639 0
M  V30 38 C -8.67214 -1.23691 0.253208 0
M  V30 39 C -5.31038 1.1872 -1.24905 0
M  V30 40 C -3.93655 1.0724 -1.20427 0
M  V30 41 H 9.21812 -0.977198 0.407517 0
M  V30 42 H 9.46246 0.440693 -0.647412 0
M  V30 43 H 9.78032 0.551903 1.15923 0
M  V30 44 H 8.45851 2.12794 -0.683072 0
M  V30 45 H 6.73595 1.75994 -1.00476 0
M  V30 46 H 7.29908 2.65997 0.526524 0
M  V30 47 H 7.25524 -0.0464817 2.49672 0
M  V30 48 H 8.50143 1.16301 2.35191 0
M  V30 49 H 7.41136 -1.44472 -0.22315 0
M  V30 50 H 2.97746 1.54339 1.96001 0
M  V30 51 H 2.03306 1.5445 0.465983 0
M  V30 52 H 0.280496 1.15676 1.81966 0
M  V30 53 H 1.29736 0.724853 3.20228 0
M  V30 54 H 1.46252 -1.51838 2.69512 0
M  V30 55 H -0.284099 -1.06522 2.32986 0
M  V30 56 H 0.728902 -2.53871 0.639649 0
M  V30 57 H 2.67822 -1.65332 -0.728405 0
M  V30 58 H 2.90168 -2.20765 0.95844 0
M  V30 59 H -2.52864 2.13399 -3.876 0
M  V30 60 H -2.86493 0.409616 -4.14665 0
M  V30 61 H 2.27237 0.852801 -3.95648 0
M  V30 62 H -5.99815 -2.09867 -1.31225 0
M  V30 63 H -8.46255 2.10246 -0.0302483 0
M  V30 64 H -9.99606 1.89792 1.9274 0
M  V30 65 H -10.6909 -0.275627 2.8254 0
M  V30 66 H -9.81571 -2.31655 1.71809 0
M  V30 67 H -8.31419 -2.17682 -0.199028 0
M  V30 68 H -5.81841 2.13275 -1.25326 0
M  V30 69 H -3.35569 2.00301 -1.16247 0
M  V30 END ATOM
M  V30 BEGIN BOND
M  V30 1 1 1 2
M  V30 2 1 2 3
M  V30 3 1 2 4
M  V30 4 1 2 5
M  V30 5 2 5 6 CFG=2
M  V30 6 1 6 7
M  V30 7 3 7 8
M  V30 8 1 6 9
M  V30 9 2 9 10
M  V30 10 1 9 11
M  V30 11 1 11 12
M  V30 12 1 12 13
M  V30 13 1 13 14
M  V30 14 1 14 15
M  V30 15 1 15 16
M  V30 16 1 15 17
M  V30 17 1 17 18
M  V30 18 2 18 19
M  V30 19 1 19 20
M  V30 20 2 20 21
M  V30 21 1 21 22
M  V30 22 1 21 23
M  V30 23 2 23 24
M  V30 24 1 24 25
M  V30 25 2 25 26
M  V30 26 1 19 27
M  V30 27 2 27 28
M  V30 28 1 28 29
M  V30 29 1 28 30
M  V30 30 2 30 31
M  V30 31 1 31 32
M  V30 32 1 32 33
M  V30 33 2 33 34
M  V30 34 1 34 35
M  V30 35 2 35 36
M  V30 36 1 36 37
M  V30 37 2 37 38
M  V30 38 1 31 39
M  V30 39 2 39 40
M  V30 40 1 16 11
M  V30 41 1 26 17
M  V30 42 1 40 27
M  V30 43 1 26 20
M  V30 44 1 38 33
M  V30 45 1 1 41
M  V30 46 1 1 42
M  V30 47 1 1 43
M  V30 48 1 3 44
M  V30 49 1 3 45
M  V30 50 1 3 46
M  V30 51 1 4 47
M  V30 52 1 4 48
M  V30 53 1 5 49
M  V30 54 1 12 50
M  V30 55 1 12 51
M  V30 56 1 13 52
M  V30 57 1 13 53
M  V30 58 1 14 54
M  V30 59 1 14 55
M  V30 60 1 15 56 CFG=1
M  V30 61 1 16 57
M  V30 62 1 16 58
M  V30 63 1 22 59
M  V30 64 1 22 60
M  V30 65 1 24 61
M  V30 66 1 30 62
M  V30 67 1 34 63
M  V30 68 1 35 64
M  V30 69 1 36 65
M  V30 70 1 37 66
M  V30 71 1 38 67
M  V30 72 1 39 68
M  V30 73 1 40 69
M  V30 END BOND
M  V30 END CTAB
M  END
