
     RDKit          3D

  0  0  0  0  0  0  0  0  0  0999 V3000
M  V30 BEGIN CTAB
M  V30 COUNTS 22 22 0 0 0
M  V30 BEGIN ATOM
M  V30 1 C -3.9589 -0.813362 -0.23469 0
M  V30 2 O -2.58794 -0.649825 -0.540601 0
M  V30 3 C -1.6489 -0.194564 0.361877 0
M  V30 4 O -2.03693 0.0903429 1.52157 0
M  V30 5 C -0.238667 -0.0268087 0.0454832 0
M  V30 6 C 0.66898 0.431186 0.97561 0
M  V30 7 N 0.172476 0.737338 2.27003 0
M  V30 8 C 2.01819 0.586949 0.657536 0
M  V30 9 C 2.48805 0.286765 -0.601287 0
M  V30 10 C 1.57651 -0.170948 -1.52812 0
M  V30 11 C 0.225224 -0.329007 -1.21623 0
M  V30 12 Cl -0.9329 -0.910425 -2.39339 0
M  V30 13 N 3.87012 0.442892 -0.938371 0
M  V30 14 H -4.04621 -1.74391 0.352022 0
M  V30 15 H -4.39348 0.05796 0.285874 0
M  V30 16 H -4.50486 -0.973495 -1.18905 0
M  V30 17 H -0.0173149 1.7324 2.51749 0
M  V30 18 H 0.00224571 -0.0373095 2.96157 0
M  V30 19 H 2.70463 0.948071 1.40859 0
M  V30 20 H 1.89895 -0.421962 -2.53777 0
M  V30 21 H 4.51755 1.01725 -0.395548 0
M  V30 22 H 4.22318 -0.0595414 -1.78259 0
M  V30 END ATOM
M  V30 BEGIN BOND
M  V30 1 1 1 2
M  V30 2 1 2 3
M  V30 3 2 3 4
M  V30 4 1 3 5
M  V30 5 2 5 6
M  V30 6 1 6 7
M  V30 7 1 6 8
M  V30 8 2 8 9
M  V30 9 1 9 10
M  V30 10 2 10 11
M  V30 11 1 11 12
M  V30 12 1 9 13
M  V30 13 1 11 5
M  V30 14 1 1 14
M  V30 15 1 1 15
M  V30 16 1 1 16
M  V30 17 1 7 17
M  V30 18 1 7 18
M  V30 19 1 8 19
M  V30 20 1 10 20
M  V30 21 1 13 21
M  V30 22 1 13 22
M  V30 END BOND
M  V30 END CTAB
M  END
