
     RDKit          3D

  0  0  0  0  0  0  0  0  0  0999 V3000
M  V30 BEGIN CTAB
M  V30 COUNTS 46 48 0 0 0
M  V30 BEGIN ATOM
M  V30 1 N -7.17224 0.982748 0.413747 0
M  V30 2 C -5.81861 0.526545 0.205848 0 CFG=2
M  V30 3 C -5.12 0.0620462 1.46577 0
M  V30 4 C -3.86959 0.830136 1.00641 0 CFG=2
M  V30 5 C -4.78082 1.61592 0.103194 0
M  V30 6 C -2.95826 -0.0355613 0.209068 0
M  V30 7 C -1.61862 0.217601 0.185703 0
M  V30 8 C -0.78213 -0.618471 -0.550014 0
M  V30 9 N 0.592766 -0.303792 -0.693274 0
M  V30 10 C 1.07949 1.01431 -0.258886 0
M  V30 11 C 2.4301 1.24679 -0.8264 0
M  V30 12 C 3.57966 0.554234 -0.258156 0
M  V30 13 N 4.43378 1.36561 0.489968 0
M  V30 14 C 5.52889 0.937053 1.07898 0
M  V30 15 C 6.44157 1.88186 1.81385 0
M  V30 16 C 5.84283 -0.410459 0.945878 0
M  V30 17 C 5.03008 -1.26002 0.218709 0
M  V30 18 N 3.91499 -0.728257 -0.359658 0
M  V30 19 C 5.35805 -2.68029 0.0830569 0
M  V30 20 F 5.41839 -3.15592 -1.18413 0
M  V30 21 F 6.61507 -2.88474 0.666136 0
M  V30 22 F 4.45697 -3.49055 0.786318 0
M  V30 23 N -1.30141 -1.68422 -1.23708 0
M  V30 24 C -2.63801 -1.91566 -1.19474 0
M  V30 25 N -3.40785 -1.09495 -0.48292 0
M  V30 26 N -3.17913 -3.02042 -1.93345 0
M  V30 27 H -7.40621 1.71975 -0.232873 0
M  V30 28 H -7.83764 0.207055 0.358475 0
M  V30 29 H -5.81861 -0.196074 -0.644468 0
M  V30 30 H -4.91885 -1.03152 1.50782 0
M  V30 31 H -5.5748 0.514877 2.35478 0
M  V30 32 H -3.35739 1.40569 1.78243 0
M  V30 33 H -5.1512 2.5712 0.536912 0
M  V30 34 H -4.41888 1.77354 -0.949525 0
M  V30 35 H -1.1547 1.04729 0.699188 0
M  V30 36 H 1.23619 -1.01457 -1.09012 0
M  V30 37 H 1.09644 1.03437 0.876872 0
M  V30 38 H 0.324939 1.77589 -0.524963 0
M  V30 39 H 2.58979 2.36253 -0.807421 0
M  V30 40 H 2.43427 0.996811 -1.93803 0
M  V30 41 H 6.6429 2.69345 1.05234 0
M  V30 42 H 7.35641 1.35072 2.08894 0
M  V30 43 H 5.93485 2.3983 2.64917 0
M  V30 44 H 6.73951 -0.779521 1.41282 0
M  V30 45 H -2.75559 -3.96752 -1.91393 0
M  V30 46 H -4.03742 -2.81383 -2.49042 0
M  V30 END ATOM
M  V30 BEGIN BOND
M  V30 1 1 1 2
M  V30 2 1 2 3
M  V30 3 1 3 4
M  V30 4 1 4 5
M  V30 5 1 4 6
M  V30 6 2 6 7
M  V30 7 1 7 8
M  V30 8 1 8 9
M  V30 9 1 9 10
M  V30 10 1 10 11
M  V30 11 1 11 12
M  V30 12 2 12 13
M  V30 13 1 13 14
M  V30 14 1 14 15
M  V30 15 2 14 16
M  V30 16 1 16 17
M  V30 17 2 17 18
M  V30 18 1 17 19
M  V30 19 1 19 20
M  V30 20 1 19 21
M  V30 21 1 19 22
M  V30 22 2 8 23
M  V30 23 1 23 24
M  V30 24 2 24 25
M  V30 25 1 24 26
M  V30 26 1 5 2
M  V30 27 1 25 6
M  V30 28 1 18 12
M  V30 29 1 1 27
M  V30 30 1 1 28
M  V30 31 1 2 29 CFG=3
M  V30 32 1 3 30
M  V30 33 1 3 31
M  V30 34 1 4 32 CFG=1
M  V30 35 1 5 33
M  V30 36 1 5 34
M  V30 37 1 7 35
M  V30 38 1 9 36
M  V30 39 1 10 37
M  V30 40 1 10 38
M  V30 41 1 11 39
M  V30 42 1 11 40
M  V30 43 1 15 41
M  V30 44 1 15 42
M  V30 45 1 15 43
M  V30 46 1 16 44
M  V30 47 1 26 45
M  V30 48 1 26 46
M  V30 END BOND
M  V30 END CTAB
M  END
