
     RDKit          3D

  0  0  0  0  0  0  0  0  0  0999 V3000
M  V30 BEGIN CTAB
M  V30 COUNTS 38 39 0 0 0
M  V30 BEGIN ATOM
M  V30 1 O -0.16211 1.00725 -0.0828731 0
M  V30 2 C -0.184638 -0.216029 0.133988 0
M  V30 3 N -1.4133 -0.873006 0.337391 0
M  V30 4 C -2.69038 -0.303555 0.328456 0
M  V30 5 C -3.01585 1.01186 0.120293 0
M  V30 6 C -4.33689 1.49554 0.129618 0
M  V30 7 C -5.3942 0.656554 0.352793 0
M  V30 8 C -5.091 -0.667324 0.564036 0
M  V30 9 C -3.80763 -1.1411 0.55566 0
M  V30 10 N -3.56469 -2.53431 0.783412 0
M  V30 11 C -6.80742 1.10816 0.374362 0
M  V30 12 N 1.00334 -1.00207 0.187419 0
M  V30 13 C 2.2994 -0.506595 0.0161576 0
M  V30 14 C 3.32149 -1.42607 -0.30654 0
M  V30 15 C 4.62479 -1.0591 -0.475884 0
M  V30 16 C 4.95016 0.270108 -0.323527 0
M  V30 17 C 4.01235 1.22579 -0.0095022 0
M  V30 18 C 2.69024 0.794925 0.15344 0
M  V30 19 S 6.61275 0.749492 -0.538239 0
M  V30 20 O 6.91867 1.96305 0.323572 0
M  V30 21 O 7.51267 -0.372552 -0.16074 0
M  V30 22 N 6.81841 1.1461 -2.22556 0
M  V30 23 H -1.37027 -1.92786 0.519922 0
M  V30 24 H -2.21749 1.72207 -0.0617217 0
M  V30 25 H -4.49835 2.53179 -0.0411569 0
M  V30 26 H -5.95148 -1.3351 0.743024 0
M  V30 27 H -3.61773 -2.85609 1.77375 0
M  V30 28 H -3.34587 -3.20153 0.0121536 0
M  V30 29 H -7.41125 0.427395 0.981778 0
M  V30 30 H -6.88276 2.12006 0.864507 0
M  V30 31 H -7.18929 1.23926 -0.65843 0
M  V30 32 H 0.878048 -2.03046 0.372903 0
M  V30 33 H 3.01844 -2.47773 -0.419845 0
M  V30 34 H 5.39525 -1.80695 -0.727723 0
M  V30 35 H 4.23026 2.2599 0.115164 0
M  V30 36 H 1.96626 1.5481 0.414564 0
M  V30 37 H 6.37611 2.06084 -2.43925 0
M  V30 38 H 6.32396 0.399183 -2.75453 0
M  V30 END ATOM
M  V30 BEGIN BOND
M  V30 1 2 1 2
M  V30 2 1 2 3
M  V30 3 1 3 4
M  V30 4 2 4 5
M  V30 5 1 5 6
M  V30 6 2 6 7
M  V30 7 1 7 8
M  V30 8 2 8 9
M  V30 9 1 9 10
M  V30 10 1 7 11
M  V30 11 1 2 12
M  V30 12 1 12 13
M  V30 13 2 13 14
M  V30 14 1 14 15
M  V30 15 2 15 16
M  V30 16 1 16 17
M  V30 17 2 17 18
M  V30 18 1 16 19
M  V30 19 2 19 20
M  V30 20 2 19 21
M  V30 21 1 19 22
M  V30 22 1 9 4
M  V30 23 1 18 13
M  V30 24 1 3 23
M  V30 25 1 5 24
M  V30 26 1 6 25
M  V30 27 1 8 26
M  V30 28 1 10 27
M  V30 29 1 10 28
M  V30 30 1 11 29
M  V30 31 1 11 30
M  V30 32 1 11 31
M  V30 33 1 12 32
M  V30 34 1 14 33
M  V30 35 1 15 34
M  V30 36 1 17 35
M  V30 37 1 18 36
M  V30 38 1 22 37
M  V30 39 1 22 38
M  V30 END BOND
M  V30 END CTAB
M  END
