
     RDKit          3D

  0  0  0  0  0  0  0  0  0  0999 V3000
M  V30 BEGIN CTAB
M  V30 COUNTS 27 28 0 0 0
M  V30 BEGIN ATOM
M  V30 1 C -3.34202 0.619793 0.493215 0
M  V30 2 N -2.43274 -0.462688 0.176659 0
M  V30 3 C -2.18872 -0.501932 -1.23897 0
M  V30 4 C -0.683192 -0.467371 -1.43439 0
M  V30 5 C -0.241381 -1.07011 -0.12975 0
M  V30 6 C -1.14086 -0.302074 0.830357 0
M  V30 7 C 1.16687 -0.959307 0.164315 0
M  V30 8 N 1.98073 -2.01071 0.43583 0
M  V30 9 N 3.19258 -1.56655 0.657096 0
M  V30 10 C 3.20914 -0.241311 0.539989 0
M  V30 11 N 1.93836 0.114848 0.233111 0
M  V30 12 N 1.50444 1.41927 0.0205843 0
M  V30 13 N 4.30547 0.650239 0.695573 0
M  V30 14 H -3.03171 1.05384 1.46846 0
M  V30 15 H -4.38859 0.217201 0.566396 0
M  V30 16 H -3.2763 1.41022 -0.279947 0
M  V30 17 H -2.52384 -1.49702 -1.62371 0
M  V30 18 H -2.68748 0.337852 -1.76544 0
M  V30 19 H -0.428528 0.599352 -1.54242 0
M  V30 20 H -0.36838 -1.06274 -2.31348 0
M  V30 21 H -0.605379 -2.11671 -0.113382 0
M  V30 22 H -1.11875 -0.70241 1.84201 0
M  V30 23 H -0.917625 0.769471 0.831899 0
M  V30 24 H 1.16244 1.96607 0.833967 0
M  V30 25 H 1.50671 1.87165 -0.913915 0
M  V30 26 H 4.68272 1.20268 -0.0838784 0
M  V30 27 H 4.72603 0.728441 1.64982 0
M  V30 END ATOM
M  V30 BEGIN BOND
M  V30 1 1 1 2
M  V30 2 1 2 3
M  V30 3 1 3 4
M  V30 4 1 4 5
M  V30 5 1 5 6
M  V30 6 1 5 7
M  V30 7 2 7 8
M  V30 8 1 8 9
M  V30 9 2 9 10
M  V30 10 1 10 11
M  V30 11 1 11 12
M  V30 12 1 10 13
M  V30 13 1 6 2
M  V30 14 1 11 7
M  V30 15 1 1 14
M  V30 16 1 1 15
M  V30 17 1 1 16
M  V30 18 1 3 17
M  V30 19 1 3 18
M  V30 20 1 4 19
M  V30 21 1 4 20
M  V30 22 1 5 21
M  V30 23 1 6 22
M  V30 24 1 6 23
M  V30 25 1 12 24
M  V30 26 1 12 25
M  V30 27 1 13 26
M  V30 28 1 13 27
M  V30 END BOND
M  V30 END CTAB
M  END
