
     RDKit          3D

  0  0  0  0  0  0  0  0  0  0999 V3000
M  V30 BEGIN CTAB
M  V30 COUNTS 21 22 0 0 0
M  V30 BEGIN ATOM
M  V30 1 N -3.12553 -0.66316 0.877848 0
M  V30 2 C -2.48276 -0.767129 -0.440047 0
M  V30 3 C -1.23792 0.00791245 -0.421693 0
M  V30 4 C -1.25402 1.33215 -0.779234 0
M  V30 5 N -0.0936292 2.00749 -0.749507 0
M  V30 6 C 1.07988 1.49695 -0.399834 0
M  V30 7 C 1.10431 0.156607 -0.0364656 0
M  V30 8 C -0.0563211 -0.591884 -0.0466467 0
M  V30 9 C 2.43477 -0.0937696 0.272021 0
M  V30 10 N 2.90983 -1.35547 0.696081 0
M  V30 11 N 3.15739 1.03467 0.100971 0
M  V30 12 N 2.33559 1.99101 -0.304265 0
M  V30 13 H -3.54309 -1.60456 1.07482 0
M  V30 14 H -2.44404 -0.358891 1.60907 0
M  V30 15 H -3.18582 -0.307419 -1.17515 0
M  V30 16 H -2.23344 -1.81347 -0.680906 0
M  V30 17 H -2.19099 1.82599 -1.08151 0
M  V30 18 H 0.0143519 -1.62952 0.244053 0
M  V30 19 H 3.10903 -2.13163 0.0429464 0
M  V30 20 H 3.06375 -1.50408 1.7084 0
M  V30 21 H 2.63868 2.96821 -0.510957 0
M  V30 END ATOM
M  V30 BEGIN BOND
M  V30 1 1 1 2
M  V30 2 1 2 3
M  V30 3 2 3 4
M  V30 4 1 4 5
M  V30 5 2 5 6
M  V30 6 1 6 7
M  V30 7 2 7 8
M  V30 8 1 7 9
M  V30 9 1 9 10
M  V30 10 2 9 11
M  V30 11 1 11 12
M  V30 12 1 8 3
M  V30 13 1 12 6
M  V30 14 1 1 13
M  V30 15 1 1 14
M  V30 16 1 2 15
M  V30 17 1 2 16
M  V30 18 1 4 17
M  V30 19 1 8 18
M  V30 20 1 10 19
M  V30 21 1 10 20
M  V30 22 1 12 21
M  V30 END BOND
M  V30 END CTAB
M  END
