
     RDKit          3D

  0  0  0  0  0  0  0  0  0  0999 V3000
M  V30 BEGIN CTAB
M  V30 COUNTS 46 48 0 0 0
M  V30 BEGIN ATOM
M  V30 1 C -3.58376 3.31569 1.10784 0
M  V30 2 C -2.74581 3.05629 -0.106912 0
M  V30 3 O -2.39442 1.71228 -0.176275 0
M  V30 4 C -3.2331 0.642586 -0.294095 0
M  V30 5 C -4.59278 0.81667 -0.37248 0
M  V30 6 C -5.47444 -0.253247 -0.494538 0
M  V30 7 C -4.95249 -1.52152 -0.537188 0
M  V30 8 C -3.58788 -1.70881 -0.459652 0
M  V30 9 C -2.71422 -0.672874 -0.339991 0
M  V30 10 C -1.25718 -0.749868 -0.249758 0
M  V30 11 N -0.666206 -2.03501 -0.289096 0
M  V30 12 C 0.762341 -2.23623 -0.208179 0
M  V30 13 C 1.64341 -1.18076 -0.0868055 0
M  V30 14 C 2.9962 -1.37556 -0.01046 0
M  V30 15 N 3.44689 -2.6424 -0.0578586 0
M  V30 16 C 2.61489 -3.69635 -0.175941 0
M  V30 17 N 1.2995 -3.46634 -0.247718 0
M  V30 18 N 3.19044 -4.99542 -0.217149 0
M  V30 19 C 3.98111 -0.288059 0.119657 0 CFG=2
M  V30 20 C 3.69755 0.741483 1.17665 0
M  V30 21 C 4.3111 1.76741 0.21281 0 CFG=1
M  V30 22 C 3.84034 0.83044 -0.9088 0
M  V30 23 N 3.69097 3.05062 0.222466 0
M  V30 24 H -3.81769 2.37923 1.64302 0
M  V30 25 H -4.52457 3.78683 0.835927 0
M  V30 26 H -3.03255 4.00599 1.77991 0
M  V30 27 H -1.84653 3.72529 -0.0452332 0
M  V30 28 H -3.36319 3.35409 -1.01266 0
M  V30 29 H -5.09107 1.78768 -0.355093 0
M  V30 30 H -6.54707 -0.110872 -0.555774 0
M  V30 31 H -5.57923 -2.41428 -0.631938 0
M  V30 32 H -3.1923 -2.72376 -0.495375 0
M  V30 33 H -0.860299 -0.138829 0.616904 0
M  V30 34 H -0.861637 -0.181173 -1.14536 0
M  V30 35 H -1.24687 -2.89198 -0.378863 0
M  V30 36 H 1.2742 -0.177033 -0.0500455 0
M  V30 37 H 3.95524 -5.23551 0.444969 0
M  V30 38 H 2.85948 -5.71664 -0.901693 0
M  V30 39 H 5.03764 -0.609764 0.168726 0
M  V30 40 H 2.63237 1.00549 1.31669 0
M  V30 41 H 4.31872 0.691153 2.08115 0
M  V30 42 H 5.40245 1.80196 0.27474 0
M  V30 43 H 2.77793 1.05578 -1.11177 0
M  V30 44 H 4.51112 0.771667 -1.76507 0
M  V30 45 H 2.67999 3.04074 0.383519 0
M  V30 46 H 4.24142 3.6829 0.82531 0
M  V30 END ATOM
M  V30 BEGIN BOND
M  V30 1 1 1 2
M  V30 2 1 2 3
M  V30 3 1 3 4
M  V30 4 2 4 5
M  V30 5 1 5 6
M  V30 6 2 6 7
M  V30 7 1 7 8
M  V30 8 2 8 9
M  V30 9 1 9 10
M  V30 10 1 10 11
M  V30 11 1 11 12
M  V30 12 2 12 13
M  V30 13 1 13 14
M  V30 14 2 14 15
M  V30 15 1 15 16
M  V30 16 2 16 17
M  V30 17 1 16 18
M  V30 18 1 14 19
M  V30 19 1 19 20
M  V30 20 1 20 21
M  V30 21 1 21 22
M  V30 22 1 21 23
M  V30 23 1 9 4
M  V30 24 1 17 12
M  V30 25 1 22 19
M  V30 26 1 1 24
M  V30 27 1 1 25
M  V30 28 1 1 26
M  V30 29 1 2 27
M  V30 30 1 2 28
M  V30 31 1 5 29
M  V30 32 1 6 30
M  V30 33 1 7 31
M  V30 34 1 8 32
M  V30 35 1 10 33
M  V30 36 1 10 34
M  V30 37 1 11 35
M  V30 38 1 13 36
M  V30 39 1 18 37
M  V30 40 1 18 38
M  V30 41 1 19 39 CFG=1
M  V30 42 1 20 40
M  V30 43 1 20 41
M  V30 44 1 21 42 CFG=1
M  V30 45 1 22 43
M  V30 46 1 22 44
M  V30 47 1 23 45
M  V30 48 1 23 46
M  V30 END BOND
M  V30 END CTAB
M  END
