
     RDKit          3D

  0  0  0  0  0  0  0  0  0  0999 V3000
M  V30 BEGIN CTAB
M  V30 COUNTS 69 75 0 0 0
M  V30 BEGIN ATOM
M  V30 1 N 10.9908 -2.86816 -2.85969 0
M  V30 2 C 9.60161 -2.7394 -2.60553 0
M  V30 3 N 8.57865 -3.47453 -3.03294 0
M  V30 4 N 7.40143 -3.19251 -2.68949 0
M  V30 5 C 7.16819 -2.1555 -1.89488 0
M  V30 6 S 8.75461 -1.57286 -1.64483 0
M  V30 7 C 5.91036 -1.63675 -1.36659 0
M  V30 8 C 5.89643 -0.530964 -0.54547 0
M  V30 9 C 4.69681 -0.0256811 -0.0337581 0
M  V30 10 C 4.69608 1.1416 0.831004 0
M  V30 11 C 4.06982 2.31537 0.476338 0
M  V30 12 C 4.06733 3.42838 1.2955 0
M  V30 13 C 4.70883 3.38185 2.51424 0
M  V30 14 C 5.33908 2.21211 2.87951 0
M  V30 15 C 5.3365 1.09766 2.04952 0
M  V30 16 C 3.50933 -0.645235 -0.357153 0
M  V30 17 N 3.56237 -1.73738 -1.17267 0
M  V30 18 C 4.7105 -2.22815 -1.66769 0
M  V30 19 C 2.21081 -0.174294 0.140613 0
M  V30 20 C 1.90207 -0.171032 1.48527 0
M  V30 21 C 0.679318 0.274457 1.93528 0
M  V30 22 C -0.298266 0.740088 1.06128 0
M  V30 23 C -1.5875 1.21324 1.58783 0
M  V30 24 N -2.5297 0.187896 1.8914 0
M  V30 25 C -3.77842 0.704135 2.41088 0
M  V30 26 C -4.96822 0.267357 1.5857 0
M  V30 27 C -4.65523 0.539528 0.147995 0
M  V30 28 C -3.54678 -0.390143 -0.274251 0
M  V30 29 C -2.70722 -0.823977 0.901832 0
M  V30 30 N -5.80246 0.4724 -0.709624 0
M  V30 31 N -5.885 1.01729 -1.92902 0
M  V30 32 C -7.08205 0.779767 -2.46996 0
M  V30 33 C -7.7855 0.0457583 -1.53615 0
M  V30 34 C -6.96086 -0.137715 -0.432412 0
M  V30 35 N -7.41953 -0.82285 0.611833 0
M  V30 36 C -8.66642 -1.32897 0.593296 0
M  V30 37 N -9.48284 -1.16452 -0.463184 0
M  V30 38 C -9.05022 -0.476991 -1.53508 0
M  V30 39 N -9.85842 -0.265239 -2.68338 0
M  V30 40 C 0.0108393 0.736321 -0.281049 0
M  V30 41 C 1.23475 0.289588 -0.721664 0
M  V30 42 H 11.5429 -3.56426 -2.34357 0
M  V30 43 H 11.436 -2.26197 -3.56075 0
M  V30 44 H 6.80363 -0.0387185 -0.284238 0
M  V30 45 H 3.56931 2.37688 -0.458777 0
M  V30 46 H 3.57665 4.35629 1.02439 0
M  V30 47 H 4.7055 4.26897 3.16433 0
M  V30 48 H 5.84124 2.19622 3.84836 0
M  V30 49 H 5.84286 0.189995 2.36689 0
M  V30 50 H 4.73866 -3.09697 -2.31502 0
M  V30 51 H 2.65509 -0.533628 2.18631 0
M  V30 52 H 0.473855 0.261816 2.99787 0
M  V30 53 H -1.99127 1.98832 0.896853 0
M  V30 54 H -1.37588 1.76146 2.54528 0
M  V30 55 H -3.90248 0.329686 3.435 0
M  V30 56 H -3.79474 1.81341 2.45256 0
M  V30 57 H -5.85314 0.80633 1.96581 0
M  V30 58 H -5.11997 -0.808569 1.80422 0
M  V30 59 H -4.24671 1.58473 0.0924584 0
M  V30 60 H -2.94582 0.0410632 -1.10023 0
M  V30 61 H -4.01801 -1.31204 -0.698194 0
M  V30 62 H -1.71432 -1.12292 0.513332 0
M  V30 63 H -3.12523 -1.76021 1.35345 0
M  V30 64 H -7.44949 1.09082 -3.4444 0
M  V30 65 H -9.00868 -1.88795 1.47278 0
M  V30 66 H -10.6485 0.417509 -2.63941 0
M  V30 67 H -9.70814 -0.759379 -3.58545 0
M  V30 68 H -0.736227 1.0952 -0.985748 0
M  V30 69 H 1.48105 0.285989 -1.78524 0
M  V30 END ATOM
M  V30 BEGIN BOND
M  V30 1 1 1 2
M  V30 2 2 2 3
M  V30 3 1 3 4
M  V30 4 2 4 5
M  V30 5 1 5 6
M  V30 6 1 5 7
M  V30 7 2 7 8
M  V30 8 1 8 9
M  V30 9 1 9 10
M  V30 10 2 10 11
M  V30 11 1 11 12
M  V30 12 2 12 13
M  V30 13 1 13 14
M  V30 14 2 14 15
M  V30 15 2 9 16
M  V30 16 1 16 17
M  V30 17 2 17 18
M  V30 18 1 16 19
M  V30 19 2 19 20
M  V30 20 1 20 21
M  V30 21 2 21 22
M  V30 22 1 22 23
M  V30 23 1 23 24
M  V30 24 1 24 25
M  V30 25 1 25 26
M  V30 26 1 26 27
M  V30 27 1 27 28
M  V30 28 1 28 29
M  V30 29 1 27 30
M  V30 30 1 30 31
M  V30 31 2 31 32
M  V30 32 1 32 33
M  V30 33 2 33 34
M  V30 34 1 34 35
M  V30 35 2 35 36
M  V30 36 1 36 37
M  V30 37 2 37 38
M  V30 38 1 38 39
M  V30 39 1 22 40
M  V30 40 2 40 41
M  V30 41 1 6 2
M  V30 42 1 18 7
M  V30 43 1 41 19
M  V30 44 1 15 10
M  V30 45 1 29 24
M  V30 46 1 34 30
M  V30 47 1 38 33
M  V30 48 1 1 42
M  V30 49 1 1 43
M  V30 50 1 8 44
M  V30 51 1 11 45
M  V30 52 1 12 46
M  V30 53 1 13 47
M  V30 54 1 14 48
M  V30 55 1 15 49
M  V30 56 1 18 50
M  V30 57 1 20 51
M  V30 58 1 21 52
M  V30 59 1 23 53
M  V30 60 1 23 54
M  V30 61 1 25 55
M  V30 62 1 25 56
M  V30 63 1 26 57
M  V30 64 1 26 58
M  V30 65 1 27 59
M  V30 66 1 28 60
M  V30 67 1 28 61
M  V30 68 1 29 62
M  V30 69 1 29 63
M  V30 70 1 32 64
M  V30 71 1 36 65
M  V30 72 1 39 66
M  V30 73 1 39 67
M  V30 74 1 40 68
M  V30 75 1 41 69
M  V30 END BOND
M  V30 END CTAB
M  END
