
     RDKit          3D

  0  0  0  0  0  0  0  0  0  0999 V3000
M  V30 BEGIN CTAB
M  V30 COUNTS 22 22 0 0 0
M  V30 BEGIN ATOM
M  V30 1 N -2.21891 -1.99499 -0.204456 0
M  V30 2 C -2.01798 -0.619153 0.136913 0
M  V30 3 C -3.05533 0.0563919 0.687165 0
M  V30 4 N -2.89424 1.34784 1.01685 0
M  V30 5 C -1.71791 1.9786 0.808146 0
M  V30 6 N -0.71286 1.29467 0.266286 0
M  V30 7 C -0.809165 0.0144637 -0.0818808 0
M  V30 8 N 0.266908 -0.728456 -0.676177 0
M  V30 9 C 1.55979 -0.169215 -0.934286 0
M  V30 10 C 2.32468 0.218361 0.307492 0
M  V30 11 N 3.61166 0.764801 -0.0850618 0
M  V30 12 F -1.56943 3.26566 1.14078 0
M  V30 13 H -2.98082 -2.2156 -0.885097 0
M  V30 14 H -1.62632 -2.73776 0.212612 0
M  V30 15 H -4.03654 -0.382975 0.887049 0
M  V30 16 H 0.0954656 -1.73587 -0.93444 0
M  V30 17 H 2.14887 -0.881352 -1.56253 0
M  V30 18 H 1.45046 0.7737 -1.53595 0
M  V30 19 H 2.54367 -0.703845 0.89287 0
M  V30 20 H 1.72012 0.94006 0.878088 0
M  V30 21 H 3.5585 1.44888 -0.84514 0
M  V30 22 H 4.35938 0.0657839 -0.142867 0
M  V30 END ATOM
M  V30 BEGIN BOND
M  V30 1 1 1 2
M  V30 2 2 2 3
M  V30 3 1 3 4
M  V30 4 2 4 5
M  V30 5 1 5 6
M  V30 6 2 6 7
M  V30 7 1 7 8
M  V30 8 1 8 9
M  V30 9 1 9 10
M  V30 10 1 10 11
M  V30 11 1 5 12
M  V30 12 1 7 2
M  V30 13 1 1 13
M  V30 14 1 1 14
M  V30 15 1 3 15
M  V30 16 1 8 16
M  V30 17 1 9 17
M  V30 18 1 9 18
M  V30 19 1 10 19
M  V30 20 1 10 20
M  V30 21 1 11 21
M  V30 22 1 11 22
M  V30 END BOND
M  V30 END CTAB
M  END
