
     RDKit          3D

  0  0  0  0  0  0  0  0  0  0999 V3000
M  V30 BEGIN CTAB
M  V30 COUNTS 37 38 0 0 0
M  V30 BEGIN ATOM
M  V30 1 C 5.08309 0.217968 1.71661 0
M  V30 2 C 3.81303 0.177918 0.925306 0
M  V30 3 C 3.83766 -0.166553 -0.418048 0
M  V30 4 C 2.65995 -0.204174 -1.15376 0
M  V30 5 C 1.43868 0.0914342 -0.599814 0
M  V30 6 N 0.269672 0.0623494 -1.38271 0
M  V30 7 C -1.03719 0.187074 -0.883894 0
M  V30 8 C -1.53003 1.44825 -0.643926 0
M  V30 9 N -0.690088 2.55396 -0.894245 0
M  V30 10 C -2.83481 1.61809 -0.163585 0
M  V30 11 C -3.62821 0.517849 0.0696238 0
M  V30 12 C -3.12972 -0.741521 -0.172768 0
M  V30 13 C -1.82063 -0.90188 -0.654638 0
M  V30 14 S -1.28403 -2.52569 -0.959673 0
M  V30 15 N 0.064694 -2.94354 -0.0169596 0
M  V30 16 O -0.931952 -2.65126 -2.43919 0
M  V30 17 O -2.41819 -3.5016 -0.758449 0
M  V30 18 C -4.99411 0.70915 0.573587 0
M  V30 19 O -5.46141 1.9922 0.805834 0
M  V30 20 O -5.74626 -0.265318 0.798041 0
M  V30 21 C 1.43819 0.432794 0.743405 0
M  V30 22 C 2.5959 0.474402 1.48479 0
M  V30 23 H 5.82905 0.889832 1.21567 0
M  V30 24 H 4.83885 0.599981 2.72709 0
M  V30 25 H 5.53532 -0.790405 1.82131 0
M  V30 26 H 4.80554 -0.398155 -0.846546 0
M  V30 27 H 2.71688 -0.477641 -2.20154 0
M  V30 28 H 0.406548 -0.0640726 -2.43329 0
M  V30 29 H -0.576607 3.27658 -0.173148 0
M  V30 30 H -0.198905 2.62915 -1.79314 0
M  V30 31 H -3.19296 2.63214 0.0155885 0
M  V30 32 H -3.75863 -1.6042 0.0125489 0
M  V30 33 H 0.785277 -3.47971 -0.547344 0
M  V30 34 H -0.232939 -3.56321 0.770044 0
M  V30 35 H -5.66835 2.35153 1.73185 0
M  V30 36 H 0.469879 0.67232 1.20422 0
M  V30 37 H 2.5468 0.74397 2.52114 0
M  V30 END ATOM
M  V30 BEGIN BOND
M  V30 1 1 1 2
M  V30 2 2 2 3
M  V30 3 1 3 4
M  V30 4 2 4 5
M  V30 5 1 5 6
M  V30 6 1 6 7
M  V30 7 2 7 8
M  V30 8 1 8 9
M  V30 9 1 8 10
M  V30 10 2 10 11
M  V30 11 1 11 12
M  V30 12 2 12 13
M  V30 13 1 13 14
M  V30 14 1 14 15
M  V30 15 2 14 16
M  V30 16 2 14 17
M  V30 17 1 11 18
M  V30 18 1 18 19
M  V30 19 2 18 20
M  V30 20 1 5 21
M  V30 21 2 21 22
M  V30 22 1 22 2
M  V30 23 1 13 7
M  V30 24 1 1 23
M  V30 25 1 1 24
M  V30 26 1 1 25
M  V30 27 1 3 26
M  V30 28 1 4 27
M  V30 29 1 6 28
M  V30 30 1 9 29
M  V30 31 1 9 30
M  V30 32 1 10 31
M  V30 33 1 12 32
M  V30 34 1 15 33
M  V30 35 1 15 34
M  V30 36 1 19 35
M  V30 37 1 21 36
M  V30 38 1 22 37
M  V30 END BOND
M  V30 END CTAB
M  END
