
     RDKit          3D

  0  0  0  0  0  0  0  0  0  0999 V3000
M  V30 BEGIN CTAB
M  V30 COUNTS 52 54 0 0 0
M  V30 BEGIN ATOM
M  V30 1 C 6.0065 1.59559 0.216674 0
M  V30 2 N 5.3076 1.16839 1.40207 0
M  V30 3 C 5.89098 1.67872 2.60362 0
M  V30 4 C 5.20747 -0.278845 1.47944 0
M  V30 5 C 4.27219 -0.76196 0.365029 0
M  V30 6 C 4.12784 -2.2593 0.392357 0
M  V30 7 C 3.1836 -2.63142 -0.745699 0
M  V30 8 N 1.90104 -2.03372 -0.600689 0
M  V30 9 C 0.887446 -2.25604 -1.5608 0
M  V30 10 O 1.13336 -2.99962 -2.56171 0
M  V30 11 C -0.436921 -1.66332 -1.45019 0
M  V30 12 N -0.764502 -0.868827 -0.417984 0
M  V30 13 C -1.98894 -0.309535 -0.303196 0
M  V30 14 C -2.93498 -0.55679 -1.26922 0
M  V30 15 N -2.61793 -1.35394 -2.31131 0
M  V30 16 C -1.37449 -1.91514 -2.41727 0
M  V30 17 N -1.09968 -2.74328 -3.53295 0
M  V30 18 N -4.17373 0.00707919 -1.15799 0
M  V30 19 C -4.48607 0.800549 -0.119887 0
M  V30 20 N -3.54131 1.02315 0.807597 0
M  V30 21 C -2.31158 0.497496 0.749935 0
M  V30 22 N -1.31917 0.745239 1.74468 0
M  V30 23 C -5.7963 1.41887 0.0287532 0
M  V30 24 C -6.0855 2.22409 1.10618 0
M  V30 25 C -7.31649 2.83732 1.29236 0
M  V30 26 C -8.31652 2.63796 0.353002 0
M  V30 27 C -8.05366 1.83475 -0.73728 0
M  V30 28 C -6.81064 1.23279 -0.898294 0
M  V30 29 H 6.84324 0.887951 -0.00746143 0
M  V30 30 H 5.37466 1.58681 -0.696215 0
M  V30 31 H 6.4103 2.62461 0.319472 0
M  V30 32 H 6.6519 2.45992 2.3109 0
M  V30 33 H 5.10605 2.26661 3.14898 0
M  V30 34 H 6.36569 0.910477 3.23721 0
M  V30 35 H 4.74156 -0.502078 2.47452 0
M  V30 36 H 6.17311 -0.785545 1.41779 0
M  V30 37 H 4.74201 -0.418377 -0.578973 0
M  V30 38 H 3.31228 -0.238414 0.446222 0
M  V30 39 H 5.09514 -2.7437 0.170933 0
M  V30 40 H 3.72741 -2.58363 1.37001 0
M  V30 41 H 3.1115 -3.74688 -0.79426 0
M  V30 42 H 3.66396 -2.2235 -1.66525 0
M  V30 43 H 1.68846 -1.42684 0.21309 0
M  V30 44 H -0.88506 -2.29869 -4.4428 0
M  V30 45 H -1.11898 -3.77121 -3.41857 0
M  V30 46 H -0.536073 1.39921 1.51669 0
M  V30 47 H -1.37984 0.282916 2.67061 0
M  V30 48 H -5.32226 2.39928 1.8598 0
M  V30 49 H -7.50816 3.46467 2.1545 0
M  V30 50 H -9.29655 3.09487 0.451371 0
M  V30 51 H -8.8503 1.68525 -1.47215 0
M  V30 52 H -6.59967 0.606026 -1.74641 0
M  V30 END ATOM
M  V30 BEGIN BOND
M  V30 1 1 1 2
M  V30 2 1 2 3
M  V30 3 1 2 4
M  V30 4 1 4 5
M  V30 5 1 5 6
M  V30 6 1 6 7
M  V30 7 1 7 8
M  V30 8 1 8 9
M  V30 9 2 9 10
M  V30 10 1 9 11
M  V30 11 2 11 12
M  V30 12 1 12 13
M  V30 13 2 13 14
M  V30 14 1 14 15
M  V30 15 2 15 16
M  V30 16 1 16 17
M  V30 17 1 14 18
M  V30 18 2 18 19
M  V30 19 1 19 20
M  V30 20 2 20 21
M  V30 21 1 21 22
M  V30 22 1 19 23
M  V30 23 2 23 24
M  V30 24 1 24 25
M  V30 25 2 25 26
M  V30 26 1 26 27
M  V30 27 2 27 28
M  V30 28 1 16 11
M  V30 29 1 28 23
M  V30 30 1 21 13
M  V30 31 1 1 29
M  V30 32 1 1 30
M  V30 33 1 1 31
M  V30 34 1 3 32
M  V30 35 1 3 33
M  V30 36 1 3 34
M  V30 37 1 4 35
M  V30 38 1 4 36
M  V30 39 1 5 37
M  V30 40 1 5 38
M  V30 41 1 6 39
M  V30 42 1 6 40
M  V30 43 1 7 41
M  V30 44 1 7 42
M  V30 45 1 8 43
M  V30 46 1 17 44
M  V30 47 1 17 45
M  V30 48 1 22 46
M  V30 49 1 22 47
M  V30 50 1 24 48
M  V30 51 1 25 49
M  V30 52 1 26 50
M  V30 53 1 27 51
M  V30 54 1 28 52
M  V30 END BOND
M  V30 END CTAB
M  END
