
     RDKit          3D

  0  0  0  0  0  0  0  0  0  0999 V3000
M  V30 BEGIN CTAB
M  V30 COUNTS 21 21 0 0 0
M  V30 BEGIN ATOM
M  V30 1 Cl 4.55812 -0.673486 0.28386 0
M  V30 2 C 3.07809 0.235096 0.640721 0
M  V30 3 C 1.9388 -0.439521 0.0284007 0
M  V30 4 O 2.13704 -1.49743 -0.623894 0
M  V30 5 C 0.551815 0.0697731 0.142051 0
M  V30 6 C 0.264662 1.21739 0.838556 0
M  V30 7 C -1.02142 1.71659 0.961388 0
M  V30 8 Cl -1.37027 3.18322 1.85432 0
M  V30 9 C -2.0628 1.0486 0.36849 0
M  V30 10 C -1.78317 -0.105485 -0.33336 0
M  V30 11 C -0.479345 -0.604472 -0.453299 0
M  V30 12 N -0.249119 -1.78684 -1.18108 0
M  V30 13 N -2.86915 -0.779014 -0.936731 0
M  V30 14 H 2.96044 0.442779 1.72081 0
M  V30 15 H 3.19146 1.24151 0.146251 0
M  V30 16 H 1.07487 1.75002 1.30818 0
M  V30 17 H -3.08673 1.40285 0.438372 0
M  V30 18 H -0.229295 -1.74291 -2.2031 0
M  V30 19 H -0.105039 -2.67105 -0.687116 0
M  V30 20 H -3.17667 -1.69814 -0.557805 0
M  V30 21 H -3.32229 -0.30949 -1.75501 0
M  V30 END ATOM
M  V30 BEGIN BOND
M  V30 1 1 1 2
M  V30 2 1 2 3
M  V30 3 2 3 4
M  V30 4 1 3 5
M  V30 5 2 5 6
M  V30 6 1 6 7
M  V30 7 1 7 8
M  V30 8 2 7 9
M  V30 9 1 9 10
M  V30 10 2 10 11
M  V30 11 1 11 12
M  V30 12 1 10 13
M  V30 13 1 11 5
M  V30 14 1 2 14
M  V30 15 1 2 15
M  V30 16 1 6 16
M  V30 17 1 9 17
M  V30 18 1 12 18
M  V30 19 1 12 19
M  V30 20 1 13 20
M  V30 21 1 13 21
M  V30 END BOND
M  V30 END CTAB
M  END
