
     RDKit          3D

  0  0  0  0  0  0  0  0  0  0999 V3000
M  V30 BEGIN CTAB
M  V30 COUNTS 25 25 0 0 0
M  V30 BEGIN ATOM
M  V30 1 C 4.05227 1.04336 -0.373493 0
M  V30 2 O 2.96198 0.247247 -0.787156 0
M  V30 3 C 2.2723 -0.492805 0.15238 0
M  V30 4 O 2.64214 -0.440901 1.35831 0
M  V30 5 C 1.10373 -1.34019 -0.200305 0
M  V30 6 C -0.156019 -0.607197 0.0289336 0
M  V30 7 C -0.121928 0.746137 0.298512 0
M  V30 8 C -1.25653 1.48823 0.440294 0
M  V30 9 Cl -1.10931 3.17605 0.791588 0
M  V30 10 C -2.49786 0.890229 0.316418 0
M  V30 11 C -2.53338 -0.462184 0.0528456 0
M  V30 12 C -1.35949 -1.22172 -0.0922598 0
M  V30 13 N -1.5342 -2.58905 -0.356077 0
M  V30 14 N -3.68776 1.64563 0.43477 0
M  V30 15 H 4.95767 0.412934 -0.341088 0
M  V30 16 H 3.86212 1.50774 0.645756 0
M  V30 17 H 4.20766 1.88501 -1.08474 0
M  V30 18 H 1.08947 -2.21828 0.43783 0
M  V30 19 H 1.1875 -1.66363 -1.2498 0
M  V30 20 H 0.849795 1.18673 0.389917 0
M  V30 21 H -3.50944 -0.918979 -0.0465045 0
M  V30 22 H -1.45645 -2.96337 -1.32395 0
M  V30 23 H -1.74016 -3.21113 0.452969 0
M  V30 24 H -3.63998 2.58043 0.934383 0
M  V30 25 H -4.58411 1.3197 0.0395226 0
M  V30 END ATOM
M  V30 BEGIN BOND
M  V30 1 1 1 2
M  V30 2 1 2 3
M  V30 3 2 3 4
M  V30 4 1 3 5
M  V30 5 1 5 6
M  V30 6 2 6 7
M  V30 7 1 7 8
M  V30 8 1 8 9
M  V30 9 2 8 10
M  V30 10 1 10 11
M  V30 11 2 11 12
M  V30 12 1 12 13
M  V30 13 1 10 14
M  V30 14 1 12 6
M  V30 15 1 1 15
M  V30 16 1 1 16
M  V30 17 1 1 17
M  V30 18 1 5 18
M  V30 19 1 5 19
M  V30 20 1 7 20
M  V30 21 1 11 21
M  V30 22 1 13 22
M  V30 23 1 13 23
M  V30 24 1 14 24
M  V30 25 1 14 25
M  V30 END BOND
M  V30 END CTAB
M  END
