
     RDKit          3D

  0  0  0  0  0  0  0  0  0  0999 V3000
M  V30 BEGIN CTAB
M  V30 COUNTS 48 51 0 0 0
M  V30 BEGIN ATOM
M  V30 1 C -7.12115 2.12994 0.484971 0
M  V30 2 C -5.93739 1.19173 0.583516 0
M  V30 3 O -5.07702 1.43655 -0.501745 0
M  V30 4 C -3.89002 0.718096 -0.683128 0
M  V30 5 C -3.57963 -0.261938 0.256992 0
M  V30 6 C -2.42895 -0.997056 0.128466 0
M  V30 7 C -1.5766 -0.778499 -0.918283 0
M  V30 8 C -1.90368 0.190524 -1.82904 0
M  V30 9 C -3.04778 0.954713 -1.74276 0
M  V30 10 C -0.376916 -1.5797 -1.08086 0
M  V30 11 C -0.500051 -2.79659 -1.73098 0
M  V30 12 C -1.79378 -3.20235 -2.20976 0
M  V30 13 N -2.83185 -3.53848 -2.58024 0
M  V30 14 C 0.567207 -3.62379 -1.9322 0
M  V30 15 N 0.363684 -4.84481 -2.60184 0
M  V30 16 N 1.75756 -3.21004 -1.4709 0
M  V30 17 C 1.88896 -2.00468 -0.824909 0
M  V30 18 C 0.86565 -1.12735 -0.588682 0
M  V30 19 C 1.19209 0.0214793 0.0706952 0
M  V30 20 N 0.205985 1.05753 0.391042 0
M  V30 21 C 2.49279 0.181473 0.426429 0
M  V30 22 S 3.24635 -1.23057 -0.141795 0
M  V30 23 C 3.07611 1.3219 1.17028 0
M  V30 24 O 2.275 2.23281 1.54539 0
M  V30 25 C 4.49287 1.38874 1.45685 0
M  V30 26 C 4.91902 2.00697 2.63954 0
M  V30 27 C 6.24592 2.13547 2.97349 0
M  V30 28 C 7.21822 1.63744 2.11475 0
M  V30 29 C 6.83831 1.03374 0.961799 0
M  V30 30 C 5.47478 0.913228 0.638941 0
M  V30 31 H -7.67406 2.22227 1.44953 0
M  V30 32 H -7.831 1.78124 -0.308169 0
M  V30 33 H -6.74417 3.162 0.255297 0
M  V30 34 H -5.48518 1.32032 1.568 0
M  V30 35 H -6.35043 0.147832 0.534267 0
M  V30 36 H -4.25101 -0.452668 1.10256 0
M  V30 37 H -2.2534 -1.75574 0.913703 0
M  V30 38 H -1.27624 0.433704 -2.70092 0
M  V30 39 H -3.30724 1.71702 -2.45857 0
M  V30 40 H -0.301984 -4.85931 -3.40558 0
M  V30 41 H 0.824023 -5.74803 -2.36457 0
M  V30 42 H -0.398685 1.03395 1.2067 0
M  V30 43 H 0.162544 1.85685 -0.277362 0
M  V30 44 H 4.18307 2.40821 3.33511 0
M  V30 45 H 6.60652 2.60529 3.87542 0
M  V30 46 H 8.2813 1.70941 2.3257 0
M  V30 47 H 7.549 0.619237 0.23958 0
M  V30 48 H 5.21124 0.441947 -0.296743 0
M  V30 END ATOM
M  V30 BEGIN BOND
M  V30 1 1 1 2
M  V30 2 1 2 3
M  V30 3 1 3 4
M  V30 4 2 4 5
M  V30 5 1 5 6
M  V30 6 2 6 7
M  V30 7 1 7 8
M  V30 8 2 8 9
M  V30 9 1 7 10
M  V30 10 2 10 11
M  V30 11 1 11 12
M  V30 12 3 12 13
M  V30 13 1 11 14
M  V30 14 1 14 15
M  V30 15 2 14 16
M  V30 16 1 16 17
M  V30 17 2 17 18
M  V30 18 1 18 19
M  V30 19 1 19 20
M  V30 20 2 19 21
M  V30 21 1 21 22
M  V30 22 1 21 23
M  V30 23 2 23 24
M  V30 24 1 23 25
M  V30 25 2 25 26
M  V30 26 1 26 27
M  V30 27 2 27 28
M  V30 28 1 28 29
M  V30 29 2 29 30
M  V30 30 1 9 4
M  V30 31 1 18 10
M  V30 32 1 30 25
M  V30 33 1 22 17
M  V30 34 1 1 31
M  V30 35 1 1 32
M  V30 36 1 1 33
M  V30 37 1 2 34
M  V30 38 1 2 35
M  V30 39 1 5 36
M  V30 40 1 6 37
M  V30 41 1 8 38
M  V30 42 1 9 39
M  V30 43 1 15 40
M  V30 44 1 15 41
M  V30 45 1 20 42
M  V30 46 1 20 43
M  V30 47 1 26 44
M  V30 48 1 27 45
M  V30 49 1 28 46
M  V30 50 1 29 47
M  V30 51 1 30 48
M  V30 END BOND
M  V30 END CTAB
M  END
