
     RDKit          3D

  0  0  0  0  0  0  0  0  0  0999 V3000
M  V30 BEGIN CTAB
M  V30 COUNTS 24 25 0 0 0
M  V30 BEGIN ATOM
M  V30 1 N -3.75054 0.512007 -1.00518 0
M  V30 2 C -2.79049 0.136696 -0.0308301 0
M  V30 3 N -3.13985 -0.273824 1.20029 0
M  V30 4 C -2.18372 -0.625298 2.10585 0
M  V30 5 N -0.872951 -0.586473 1.83866 0
M  V30 6 C -0.457747 -0.178491 0.607541 0
M  V30 7 C -1.43777 0.177252 -0.308363 0
M  V30 8 N -1.03117 0.600151 -1.60629 0
M  V30 9 C 0.970977 -0.131877 0.28299 0
M  V30 10 C 1.54922 0.944311 -0.332373 0
M  V30 11 C 2.89477 0.926662 -0.617018 0
M  V30 12 C 3.68237 -0.15089 -0.297886 0
M  V30 13 C 3.11789 -1.24152 0.321302 0
M  V30 14 C 1.74986 -1.21315 0.605836 0
M  V30 15 H -4.76677 0.488609 -0.783126 0
M  V30 16 H -3.48282 0.81945 -1.9614 0
M  V30 17 H -2.46219 -0.958713 3.10477 0
M  V30 18 H -0.528217 -0.0401346 -2.26175 0
M  V30 19 H -1.22801 1.56918 -1.93646 0
M  V30 20 H 0.976154 1.83062 -0.605708 0
M  V30 21 H 3.36617 1.78266 -1.10915 0
M  V30 22 H 4.74772 -0.188026 -0.512725 0
M  V30 23 H 3.71448 -2.10088 0.582763 0
M  V30 24 H 1.36265 -2.09833 1.09296 0
M  V30 END ATOM
M  V30 BEGIN BOND
M  V30 1 1 1 2
M  V30 2 2 2 3
M  V30 3 1 3 4
M  V30 4 2 4 5
M  V30 5 1 5 6
M  V30 6 2 6 7
M  V30 7 1 7 8
M  V30 8 1 6 9
M  V30 9 2 9 10
M  V30 10 1 10 11
M  V30 11 2 11 12
M  V30 12 1 12 13
M  V30 13 2 13 14
M  V30 14 1 7 2
M  V30 15 1 14 9
M  V30 16 1 1 15
M  V30 17 1 1 16
M  V30 18 1 4 17
M  V30 19 1 8 18
M  V30 20 1 8 19
M  V30 21 1 10 20
M  V30 22 1 11 21
M  V30 23 1 12 22
M  V30 24 1 13 23
M  V30 25 1 14 24
M  V30 END BOND
M  V30 END CTAB
M  END
