
     RDKit          3D

  0  0  0  0  0  0  0  0  0  0999 V3000
M  V30 BEGIN CTAB
M  V30 COUNTS 27 27 0 0 0
M  V30 BEGIN ATOM
M  V30 1 C -1.98319 2.02791 0.408124 0
M  V30 2 C -0.983366 0.923927 0.370004 0
M  V30 3 C -1.61768 -0.454451 0.268683 0
M  V30 4 C -0.450009 -1.43058 0.467653 0
M  V30 5 N -0.936407 -2.79284 0.536974 0
M  V30 6 C 0.428361 -1.26938 -0.736251 0
M  V30 7 N 0.811176 0.0328869 -1.0595 0
M  V30 8 C -0.0794419 1.09264 -0.803828 0
M  V30 9 S 2.46267 0.408114 -0.939668 0
M  V30 10 O 2.66436 1.82263 -1.423 0
M  V30 11 O 3.21802 -0.545545 -1.85522 0
M  V30 12 N 3.11248 0.248476 0.625209 0
M  V30 13 H -1.50229 2.89743 0.939829 0
M  V30 14 H -2.91413 1.75932 0.919524 0
M  V30 15 H -2.15581 2.40524 -0.639518 0
M  V30 16 H -0.356213 0.93084 1.28813 0
M  V30 17 H -2.01942 -0.620267 -0.748084 0
M  V30 18 H -2.37759 -0.592655 1.03441 0
M  V30 19 H 0.0908616 -1.12029 1.36611 0
M  V30 20 H -0.363755 -3.28344 1.27888 0
M  V30 21 H -1.92085 -2.85779 0.866893 0
M  V30 22 H 1.33996 -1.90717 -0.559574 0
M  V30 23 H -0.121166 -1.73813 -1.60374 0
M  V30 24 H 0.492454 2.05296 -0.640338 0
M  V30 25 H -0.698451 1.30198 -1.72294 0
M  V30 26 H 3.19224 1.16151 1.13932 0
M  V30 27 H 2.6672 -0.453331 1.22194 0
M  V30 END ATOM
M  V30 BEGIN BOND
M  V30 1 1 1 2
M  V30 2 1 2 3
M  V30 3 1 3 4
M  V30 4 1 4 5
M  V30 5 1 4 6
M  V30 6 1 6 7
M  V30 7 1 7 8
M  V30 8 1 7 9
M  V30 9 2 9 10
M  V30 10 2 9 11
M  V30 11 1 9 12
M  V30 12 1 8 2
M  V30 13 1 1 13
M  V30 14 1 1 14
M  V30 15 1 1 15
M  V30 16 1 2 16
M  V30 17 1 3 17
M  V30 18 1 3 18
M  V30 19 1 4 19
M  V30 20 1 5 20
M  V30 21 1 5 21
M  V30 22 1 6 22
M  V30 23 1 6 23
M  V30 24 1 8 24
M  V30 25 1 8 25
M  V30 26 1 12 26
M  V30 27 1 12 27
M  V30 END BOND
M  V30 END CTAB
M  END
