
     RDKit          3D

  0  0  0  0  0  0  0  0  0  0999 V3000
M  V30 BEGIN CTAB
M  V30 COUNTS 21 21 0 0 0
M  V30 BEGIN ATOM
M  V30 1 N 3.27277 1.92961 0.417027 0
M  V30 2 N 2.74457 0.788998 -0.0168149 0
M  V30 3 C 1.36224 0.381207 0.11816 0
M  V30 4 O 0.658752 1.22151 0.703347 0
M  V30 5 C 0.857195 -0.874625 -0.378283 0 CFG=1
M  V30 6 C 0.0345134 -1.83684 0.438471 0
M  V30 7 C -0.482873 -1.21318 -0.85407 0 CFG=1
M  V30 8 C -1.73293 -0.507829 -0.684485 0
M  V30 9 O -2.49791 -0.466264 -1.73195 0
M  V30 10 N -2.27565 0.14169 0.418528 0
M  V30 11 N -3.51195 0.772802 0.358035 0
M  V30 12 H 3.03976 2.16341 1.35981 0
M  V30 13 H 3.48804 2.66278 -0.212257 0
M  V30 14 H 3.36005 0.0866332 -0.512604 0
M  V30 15 H 1.69702 -1.47384 -0.903037 0
M  V30 16 H 0.201578 -2.9252 0.405786 0
M  V30 17 H -0.325496 -1.41393 1.39697 0
M  V30 18 H -0.455739 -1.83604 -1.8043 0
M  V30 19 H -1.78934 0.157225 1.3256 0
M  V30 20 H -4.18814 0.447362 1.05635 0
M  V30 21 H -3.45647 1.79452 0.236647 0
M  V30 END ATOM
M  V30 BEGIN BOND
M  V30 1 1 1 2
M  V30 2 1 2 3
M  V30 3 2 3 4
M  V30 4 1 3 5
M  V30 5 1 5 6
M  V30 6 1 6 7
M  V30 7 1 7 8
M  V30 8 2 8 9
M  V30 9 1 8 10
M  V30 10 1 10 11
M  V30 11 1 7 5
M  V30 12 1 1 12
M  V30 13 1 1 13
M  V30 14 1 2 14
M  V30 15 1 5 15 CFG=3
M  V30 16 1 6 16
M  V30 17 1 6 17
M  V30 18 1 7 18 CFG=3
M  V30 19 1 10 19
M  V30 20 1 11 20
M  V30 21 1 11 21
M  V30 END BOND
M  V30 END CTAB
M  END
