
     RDKit          3D

  0  0  0  0  0  0  0  0  0  0999 V3000
M  V30 BEGIN CTAB
M  V30 COUNTS 31 32 0 0 0
M  V30 BEGIN ATOM
M  V30 1 N -4.68119 1.82032 -0.490122 0
M  V30 2 C -3.52574 1.08211 -0.173955 0
M  V30 3 C -2.31136 1.67577 -0.012614 0
M  V30 4 C -1.16782 0.955101 0.299293 0
M  V30 5 C -1.21687 -0.400046 0.458561 0
M  V30 6 O -0.164874 -1.19885 0.758421 0
M  V30 7 C 1.16346 -0.974097 0.55096 0
M  V30 8 C 1.64181 -0.168488 -0.455339 0
M  V30 9 C 3.01295 0.0522237 -0.649856 0
M  V30 10 C 3.92954 -0.549611 0.183852 0
M  V30 11 N 5.31143 -0.306347 -0.0385075 0
M  V30 12 C 3.47841 -1.3655 1.20385 0
M  V30 13 C 2.12926 -1.57034 1.38009 0
M  V30 14 N 3.49284 0.889283 -1.69383 0 CHG=1
M  V30 15 O 4.7323 0.696281 -2.243 0 CHG=-1
M  V30 16 O 2.71358 1.80958 -2.07617 0
M  V30 17 C -2.46298 -1.03467 0.296801 0
M  V30 18 C -3.58576 -0.298636 -0.0127456 0
M  V30 19 N -4.86716 -0.908198 -0.186438 0 CHG=1
M  V30 20 O -5.85031 -0.382614 -0.981178 0 CHG=-1
M  V30 21 O -5.10381 -1.96935 0.41283 0
M  V30 22 H -5.22712 2.31719 0.246483 0
M  V30 23 H -5.04171 1.90408 -1.465 0
M  V30 24 H -2.22079 2.75267 -0.130231 0
M  V30 25 H -0.238176 1.47179 0.434079 0
M  V30 26 H 0.970951 0.329876 -1.16829 0
M  V30 27 H 5.81827 0.51365 0.348209 0
M  V30 28 H 5.81664 -1.01407 -0.630359 0
M  V30 29 H 4.21951 -1.83811 1.85911 0
M  V30 30 H 1.76211 -2.20274 2.16992 0
M  V30 31 H -2.52738 -2.08827 0.416626 0
M  V30 END ATOM
M  V30 BEGIN BOND
M  V30 1 1 1 2
M  V30 2 2 2 3
M  V30 3 1 3 4
M  V30 4 2 4 5
M  V30 5 1 5 6
M  V30 6 1 6 7
M  V30 7 2 7 8
M  V30 8 1 8 9
M  V30 9 2 9 10
M  V30 10 1 10 11
M  V30 11 1 10 12
M  V30 12 2 12 13
M  V30 13 1 9 14
M  V30 14 1 14 15
M  V30 15 2 14 16
M  V30 16 1 5 17
M  V30 17 2 17 18
M  V30 18 1 18 19
M  V30 19 1 19 20
M  V30 20 2 19 21
M  V30 21 1 18 2
M  V30 22 1 13 7
M  V30 23 1 1 22
M  V30 24 1 1 23
M  V30 25 1 3 24
M  V30 26 1 4 25
M  V30 27 1 8 26
M  V30 28 1 11 27
M  V30 29 1 11 28
M  V30 30 1 12 29
M  V30 31 1 13 30
M  V30 32 1 17 31
M  V30 END BOND
M  V30 END CTAB
M  END
