
     RDKit          3D

  0  0  0  0  0  0  0  0  0  0999 V3000
M  V30 BEGIN CTAB
M  V30 COUNTS 43 44 0 0 0
M  V30 BEGIN ATOM
M  V30 1 N 5.92112 0.361428 2.04763 0
M  V30 2 C 5.29048 -0.389098 0.985355 0
M  V30 3 C 4.18451 0.423428 0.375669 0
M  V30 4 C 3.99137 1.71431 0.803457 0
M  V30 5 C 2.98972 2.48451 0.242993 0
M  V30 6 C 2.17321 1.9464 -0.76093 0
M  V30 7 C 2.34315 0.655012 -1.20896 0
M  V30 8 C 3.37608 -0.0726599 -0.599894 0
M  V30 9 C 1.51742 0.0564791 -2.27314 0
M  V30 10 N 0.493039 -0.785024 -1.70486 0
M  V30 11 C -0.716688 -0.300966 -1.15865 0
M  V30 12 O -0.909948 0.966214 -1.17156 0
M  V30 13 N -1.72737 -1.09119 -0.605567 0
M  V30 14 C -2.90613 -0.386544 -0.116608 0
M  V30 15 C -4.07321 -0.573993 -0.805954 0
M  V30 16 C -5.19522 0.0853002 -0.340362 0
M  V30 17 C -5.13801 0.892826 0.765954 0
M  V30 18 C -3.95302 1.08754 1.4713 0
M  V30 19 C -2.8493 0.4113 0.975535 0
M  V30 20 N -3.89003 1.91637 2.60815 0
M  V30 21 C -1.72808 -2.48395 -0.482797 0
M  V30 22 O -0.819138 -3.26719 -0.82701 0
M  V30 23 C -2.9466 -3.14271 0.127765 0
M  V30 24 H 6.37375 -0.254472 2.7754 0
M  V30 25 H 6.65651 0.976534 1.60101 0
M  V30 26 H 6.03036 -0.613717 0.173527 0
M  V30 27 H 4.8165 -1.32532 1.3478 0
M  V30 28 H 4.62189 2.13896 1.57864 0
M  V30 29 H 2.82109 3.51314 0.567869 0
M  V30 30 H 1.40908 2.60147 -1.16949 0
M  V30 31 H 3.53244 -1.09158 -0.939069 0
M  V30 32 H 1.06421 0.815294 -2.94151 0
M  V30 33 H 2.14725 -0.593627 -2.94599 0
M  V30 34 H 0.673843 -1.81249 -1.70335 0
M  V30 35 H -4.13796 -1.21257 -1.68572 0
M  V30 36 H -6.12821 -0.0573018 -0.879133 0
M  V30 37 H -6.04167 1.39048 1.09947 0
M  V30 38 H -1.90417 0.554909 1.52205 0
M  V30 39 H -3.00853 1.86149 3.19994 0
M  V30 40 H -4.63729 2.56479 2.90019 0
M  V30 41 H -3.67259 -3.348 -0.686657 0
M  V30 42 H -2.63352 -4.09085 0.642354 0
M  V30 43 H -3.41032 -2.52492 0.897651 0
M  V30 END ATOM
M  V30 BEGIN BOND
M  V30 1 1 1 2
M  V30 2 1 2 3
M  V30 3 2 3 4
M  V30 4 1 4 5
M  V30 5 2 5 6
M  V30 6 1 6 7
M  V30 7 2 7 8
M  V30 8 1 7 9
M  V30 9 1 9 10
M  V30 10 1 10 11
M  V30 11 2 11 12
M  V30 12 1 11 13
M  V30 13 1 13 14
M  V30 14 2 14 15
M  V30 15 1 15 16
M  V30 16 2 16 17
M  V30 17 1 17 18
M  V30 18 2 18 19
M  V30 19 1 18 20
M  V30 20 1 13 21
M  V30 21 2 21 22
M  V30 22 1 21 23
M  V30 23 1 8 3
M  V30 24 1 19 14
M  V30 25 1 1 24
M  V30 26 1 1 25
M  V30 27 1 2 26
M  V30 28 1 2 27
M  V30 29 1 4 28
M  V30 30 1 5 29
M  V30 31 1 6 30
M  V30 32 1 8 31
M  V30 33 1 9 32
M  V30 34 1 9 33
M  V30 35 1 10 34
M  V30 36 1 15 35
M  V30 37 1 16 36
M  V30 38 1 17 37
M  V30 39 1 19 38
M  V30 40 1 20 39
M  V30 41 1 20 40
M  V30 42 1 23 41
M  V30 43 1 23 42
M  V30 44 1 23 43
M  V30 END BOND
M  V30 END CTAB
M  END
