
     RDKit          3D

  0  0  0  0  0  0  0  0  0  0999 V3000
M  V30 BEGIN CTAB
M  V30 COUNTS 44 46 0 0 0
M  V30 BEGIN ATOM
M  V30 1 C -5.15774 -1.7939 0.301768 0
M  V30 2 O -3.85742 -2.22129 0.00728608 0
M  V30 3 C -3.15551 -1.07145 -0.388168 0
M  V30 4 C -1.74099 -1.46541 -0.72068 0
M  V30 5 O -1.03184 -0.35659 -1.11189 0
M  V30 6 C -0.933986 0.557845 -0.10217 0 CFG=2
M  V30 7 C -1.4821 1.93333 -0.530196 0 CFG=2
M  V30 8 O -1.59673 1.88178 -1.91883 0
M  V30 9 C -0.361168 2.85477 -0.0997405 0 CFG=1
M  V30 10 C -0.873376 4.09784 0.577952 0
M  V30 11 O -1.63019 3.83972 1.69185 0
M  V30 12 O 0.448162 2.10383 0.770938 0
M  V30 13 C 0.531152 0.911718 0.0494471 0 CFG=1
M  V30 14 N 1.30109 -0.0983104 0.686579 0
M  V30 15 C 1.07874 -0.622968 1.88389 0
M  V30 16 N 2.04659 -1.54796 2.10149 0
M  V30 17 C 2.87517 -1.60555 1.04532 0
M  V30 18 C 2.39186 -0.677533 0.147988 0
M  V30 19 N 3.04609 -0.52323 -1.02396 0
M  V30 20 C 4.14392 -1.24128 -1.33748 0
M  V30 21 N 4.77715 -1.01628 -2.59982 0
M  V30 22 N 4.5936 -2.13365 -0.453666 0
M  V30 23 C 4.00156 -2.35303 0.741837 0
M  V30 24 N 4.50869 -3.30623 1.64859 0
M  V30 25 H -5.61016 -1.33413 -0.614682 0
M  V30 26 H -5.1006 -1.02413 1.09706 0
M  V30 27 H -5.73038 -2.65028 0.656014 0
M  V30 28 H -3.18942 -0.288346 0.377145 0
M  V30 29 H -3.59737 -0.694786 -1.35652 0
M  V30 30 H -1.33137 -1.93964 0.202029 0
M  V30 31 H -1.76956 -2.25883 -1.50279 0
M  V30 32 H -1.38411 0.296627 0.857098 0
M  V30 33 H -2.43709 2.14684 -0.0473496 0
M  V30 34 H -1.39109 2.76784 -2.33813 0
M  V30 35 H 0.2873 3.11028 -0.9618 0
M  V30 36 H 0.01296 4.70858 0.846102 0
M  V30 37 H -1.44638 4.67358 -0.175735 0
M  V30 38 H -1.8401 4.70577 2.12186 0
M  V30 39 H 0.896387 1.18127 -0.962457 0
M  V30 40 H 0.283738 -0.385585 2.5891 0
M  V30 41 H 5.6174 -0.4018 -2.63282 0
M  V30 42 H 4.41677 -1.45263 -3.48377 0
M  V30 43 H 4.12648 -4.26316 1.66243 0
M  V30 44 H 5.2639 -3.04365 2.29888 0
M  V30 END ATOM
M  V30 BEGIN BOND
M  V30 1 1 1 2
M  V30 2 1 2 3
M  V30 3 1 3 4
M  V30 4 1 4 5
M  V30 5 1 5 6
M  V30 6 1 6 7
M  V30 7 1 7 8
M  V30 8 1 7 9
M  V30 9 1 9 10
M  V30 10 1 10 11
M  V30 11 1 9 12
M  V30 12 1 12 13
M  V30 13 1 13 14
M  V30 14 1 14 15
M  V30 15 2 15 16
M  V30 16 1 16 17
M  V30 17 2 17 18
M  V30 18 1 18 19
M  V30 19 2 19 20
M  V30 20 1 20 21
M  V30 21 1 20 22
M  V30 22 2 22 23
M  V30 23 1 23 24
M  V30 24 1 13 6
M  V30 25 1 18 14
M  V30 26 1 23 17
M  V30 27 1 1 25
M  V30 28 1 1 26
M  V30 29 1 1 27
M  V30 30 1 3 28
M  V30 31 1 3 29
M  V30 32 1 4 30
M  V30 33 1 4 31
M  V30 34 1 6 32 CFG=1
M  V30 35 1 7 33 CFG=1
M  V30 36 1 8 34
M  V30 37 1 9 35 CFG=3
M  V30 38 1 10 36
M  V30 39 1 10 37
M  V30 40 1 11 38
M  V30 41 1 13 39 CFG=3
M  V30 42 1 15 40
M  V30 43 1 21 41
M  V30 44 1 21 42
M  V30 45 1 24 43
M  V30 46 1 24 44
M  V30 END BOND
M  V30 END CTAB
M  END
