
     RDKit          3D

  0  0  0  0  0  0  0  0  0  0999 V3000
M  V30 BEGIN CTAB
M  V30 COUNTS 51 54 0 0 0
M  V30 BEGIN ATOM
M  V30 1 O 0.532129 0.412503 -1.48908 0
M  V30 2 C 0.259785 0.0389475 -0.328832 0
M  V30 3 C -1.15916 0.0571223 0.0934018 0
M  V30 4 S -1.82339 -0.391696 1.60014 0
M  V30 5 C -3.4698 -0.086499 1.27694 0
M  V30 6 C -3.4545 0.361188 -0.00961682 0
M  V30 7 C -2.24815 0.437151 -0.630337 0
M  V30 8 N -2.05946 0.89607 -2.00715 0
M  V30 9 C -4.72099 0.695675 -0.543594 0
M  V30 10 C -5.84375 0.56319 0.210994 0
M  V30 11 C -5.81932 0.104483 1.51579 0
M  V30 12 N -4.62539 -0.211023 2.01971 0
M  V30 13 C -7.09199 0.00238333 2.23343 0
M  V30 14 C -8.1135 -0.718082 1.38493 0
M  V30 15 C -8.11012 -0.263871 -0.045729 0
M  V30 16 C -7.20562 0.902004 -0.303395 0
M  V30 17 N 1.21784 -0.405687 0.623649 0
M  V30 18 C 2.61634 -0.473972 0.351908 0
M  V30 19 C 3.21752 0.870318 -0.00976241 0
M  V30 20 C 4.66967 0.629392 -0.261341 0
M  V30 21 C 5.56483 0.728569 0.79387 0
M  V30 22 C 6.91025 0.51424 0.603948 0
M  V30 23 C 7.42041 0.193909 -0.636362 0
M  V30 24 C 6.53297 0.0938722 -1.69084 0
M  V30 25 C 5.17175 0.309903 -1.50267 0
M  V30 26 S 9.13005 -0.0686505 -0.829761 0
M  V30 27 O 9.83473 0.7869 0.187134 0
M  V30 28 O 9.53222 0.311081 -2.2162 0
M  V30 29 N 9.55551 -1.72342 -0.581844 0
M  V30 30 H -2.19642 0.245718 -2.80489 0
M  V30 31 H -1.78625 1.87572 -2.21539 0
M  V30 32 H -4.82618 1.06478 -1.56492 0
M  V30 33 H -6.91394 -0.647754 3.13123 0
M  V30 34 H -7.47124 0.95851 2.62119 0
M  V30 35 H -9.10671 -0.554357 1.85217 0
M  V30 36 H -7.91525 -1.81437 1.45923 0
M  V30 37 H -7.77329 -1.10815 -0.692005 0
M  V30 38 H -9.12615 0.00846892 -0.412176 0
M  V30 39 H -7.56803 1.75227 0.339538 0
M  V30 40 H -7.21499 1.13023 -1.36869 0
M  V30 41 H 0.890646 -0.693002 1.55588 0
M  V30 42 H 3.16652 -0.94234 1.17106 0
M  V30 43 H 2.75353 -1.12051 -0.543739 0
M  V30 44 H 2.79951 1.2301 -0.97544 0
M  V30 45 H 3.11846 1.61044 0.800365 0
M  V30 46 H 5.16583 0.980822 1.77232 0
M  V30 47 H 7.59391 0.595111 1.43487 0
M  V30 48 H 6.90643 -0.154198 -2.66516 0
M  V30 49 H 4.50045 0.225916 -2.34098 0
M  V30 50 H 8.68726 -2.29684 -0.758537 0
M  V30 51 H 9.89504 -1.88685 0.394738 0
M  V30 END ATOM
M  V30 BEGIN BOND
M  V30 1 2 1 2
M  V30 2 1 2 3
M  V30 3 1 3 4
M  V30 4 1 4 5
M  V30 5 2 5 6
M  V30 6 1 6 7
M  V30 7 1 7 8
M  V30 8 1 6 9
M  V30 9 2 9 10
M  V30 10 1 10 11
M  V30 11 2 11 12
M  V30 12 1 11 13
M  V30 13 1 13 14
M  V30 14 1 14 15
M  V30 15 1 15 16
M  V30 16 1 2 17
M  V30 17 1 17 18
M  V30 18 1 18 19
M  V30 19 1 19 20
M  V30 20 2 20 21
M  V30 21 1 21 22
M  V30 22 2 22 23
M  V30 23 1 23 24
M  V30 24 2 24 25
M  V30 25 1 23 26
M  V30 26 2 26 27
M  V30 27 2 26 28
M  V30 28 1 26 29
M  V30 29 2 7 3
M  V30 30 1 16 10
M  V30 31 1 25 20
M  V30 32 1 12 5
M  V30 33 1 8 30
M  V30 34 1 8 31
M  V30 35 1 9 32
M  V30 36 1 13 33
M  V30 37 1 13 34
M  V30 38 1 14 35
M  V30 39 1 14 36
M  V30 40 1 15 37
M  V30 41 1 15 38
M  V30 42 1 16 39
M  V30 43 1 16 40
M  V30 44 1 17 41
M  V30 45 1 18 42
M  V30 46 1 18 43
M  V30 47 1 19 44
M  V30 48 1 19 45
M  V30 49 1 21 46
M  V30 50 1 22 47
M  V30 51 1 24 48
M  V30 52 1 25 49
M  V30 53 1 29 50
M  V30 54 1 29 51
M  V30 END BOND
M  V30 END CTAB
M  END
