
     RDKit          3D

  0  0  0  0  0  0  0  0  0  0999 V3000
M  V30 BEGIN CTAB
M  V30 COUNTS 54 56 0 0 0
M  V30 BEGIN ATOM
M  V30 1 N 5.83071 -4.02313 1.25486 0
M  V30 2 C 5.42818 -2.67156 1.10789 0
M  V30 3 N 5.78416 -1.71076 1.95966 0
M  V30 4 C 5.40148 -0.411354 1.82432 0
M  V30 5 N 5.79727 0.585059 2.74706 0
M  V30 6 C 4.60629 -0.135322 0.732073 0
M  V30 7 C 4.16624 1.14543 0.504695 0
M  V30 8 C 3.35666 1.49556 -0.584734 0
M  V30 9 N 2.96602 2.85306 -0.729294 0
M  V30 10 C 2.04806 3.2263 -1.74851 0
M  V30 11 C 0.70036 2.63295 -1.52795 0
M  V30 12 C -0.237965 2.58267 -2.55676 0
M  V30 13 C -1.48806 2.04062 -2.35994 0
M  V30 14 C -1.88285 1.51732 -1.13607 0
M  V30 15 C -0.964211 1.56138 -0.111641 0
M  V30 16 C 0.306801 2.11368 -0.315374 0
M  V30 17 C -3.21309 0.949502 -0.95768 0
M  V30 18 O -3.98844 0.936134 -1.97691 0
M  V30 19 N -3.68232 0.42007 0.269559 0
M  V30 20 C -4.99806 -0.125293 0.387729 0
M  V30 21 C -4.99754 -1.5564 0.878799 0
M  V30 22 C -4.21828 -2.4221 -0.101048 0
M  V30 23 C -4.21907 -3.8276 0.384024 0
M  V30 24 O -4.84963 -4.20972 1.5489 0
M  V30 25 O -3.62222 -4.70522 -0.291845 0
M  V30 26 C -5.77879 0.679889 1.37284 0
M  V30 27 O -7.09405 0.38164 1.69053 0
M  V30 28 O -5.25274 1.6659 1.94864 0
M  V30 29 C 2.97669 0.530407 -1.47418 0
M  V30 30 C 3.42219 -0.771277 -1.24538 0
M  V30 31 C 4.21775 -1.10286 -0.170437 0
M  V30 32 N 4.64418 -2.36155 0.0437033 0
M  V30 33 H 6.667 -4.34222 0.723446 0
M  V30 34 H 5.27439 -4.63185 1.88428 0
M  V30 35 H 5.25331 0.724588 3.61692 0
M  V30 36 H 6.62218 1.1809 2.57165 0
M  V30 37 H 4.47825 1.90287 1.22322 0
M  V30 38 H 3.34787 3.60672 -0.0862945 0
M  V30 39 H 1.98762 4.32486 -1.91423 0
M  V30 40 H 2.41467 2.79363 -2.71366 0
M  V30 41 H 0.0517757 2.98742 -3.52311 0
M  V30 42 H -2.22113 2.00048 -3.16109 0
M  V30 43 H -1.20043 1.17333 0.867754 0
M  V30 44 H 1.02577 2.14391 0.511213 0
M  V30 45 H -3.05553 0.432672 1.08855 0
M  V30 46 H -5.51298 -0.0526553 -0.590949 0
M  V30 47 H -6.04568 -1.91701 0.85848 0
M  V30 48 H -4.52707 -1.61413 1.87514 0
M  V30 49 H -4.59661 -2.3251 -1.11807 0
M  V30 50 H -3.13726 -2.11295 -0.127462 0
M  V30 51 H -5.57449 -3.61118 1.91723 0
M  V30 52 H -7.89617 0.834507 1.27017 0
M  V30 53 H 2.35744 0.748529 -2.33248 0
M  V30 54 H 3.12134 -1.53077 -1.94746 0
M  V30 END ATOM
M  V30 BEGIN BOND
M  V30 1 1 1 2
M  V30 2 2 2 3
M  V30 3 1 3 4
M  V30 4 1 4 5
M  V30 5 2 4 6
M  V30 6 1 6 7
M  V30 7 2 7 8
M  V30 8 1 8 9
M  V30 9 1 9 10
M  V30 10 1 10 11
M  V30 11 2 11 12
M  V30 12 1 12 13
M  V30 13 2 13 14
M  V30 14 1 14 15
M  V30 15 2 15 16
M  V30 16 1 14 17
M  V30 17 2 17 18
M  V30 18 1 17 19
M  V30 19 1 19 20
M  V30 20 1 20 21
M  V30 21 1 21 22
M  V30 22 1 22 23
M  V30 23 1 23 24
M  V30 24 2 23 25
M  V30 25 1 20 26
M  V30 26 1 26 27
M  V30 27 2 26 28
M  V30 28 1 8 29
M  V30 29 2 29 30
M  V30 30 1 30 31
M  V30 31 2 31 32
M  V30 32 1 32 2
M  V30 33 1 31 6
M  V30 34 1 16 11
M  V30 35 1 1 33
M  V30 36 1 1 34
M  V30 37 1 5 35
M  V30 38 1 5 36
M  V30 39 1 7 37
M  V30 40 1 9 38
M  V30 41 1 10 39
M  V30 42 1 10 40
M  V30 43 1 12 41
M  V30 44 1 13 42
M  V30 45 1 15 43
M  V30 46 1 16 44
M  V30 47 1 19 45
M  V30 48 1 20 46
M  V30 49 1 21 47
M  V30 50 1 21 48
M  V30 51 1 22 49
M  V30 52 1 22 50
M  V30 53 1 24 51
M  V30 54 1 27 52
M  V30 55 1 29 53
M  V30 56 1 30 54
M  V30 END BOND
M  V30 END CTAB
M  END
