
     RDKit          3D

  0  0  0  0  0  0  0  0  0  0999 V3000
M  V30 BEGIN CTAB
M  V30 COUNTS 26 26 0 0 0
M  V30 BEGIN ATOM
M  V30 1 C 1.54423 0.687209 3.38821 0
M  V30 2 C 0.0478766 0.648153 3.47835 0
M  V30 3 O -0.516574 -0.255795 2.58505 0
M  V30 4 C -0.426678 -0.205566 1.23957 0
M  V30 5 C 0.242651 0.776127 0.565939 0
M  V30 6 C 0.301892 0.776953 -0.827665 0
M  V30 7 C -0.314414 -0.215099 -1.58333 0
M  V30 8 C -0.994732 -1.21313 -0.902796 0
M  V30 9 C -1.04583 -1.20328 0.473069 0
M  V30 10 N -1.64986 -2.26591 -1.62249 0
M  V30 11 S -0.229902 -0.191229 -3.30641 0
M  V30 12 O -1.61119 -0.123675 -3.90675 0
M  V30 13 O 0.497361 -1.41533 -3.82161 0
M  V30 14 N 0.691702 1.18011 -3.81899 0
M  V30 15 H 1.9835 0.456296 4.38582 0
M  V30 16 H 1.87951 1.72098 3.13475 0
M  V30 17 H 1.9496 -0.0590305 2.68946 0
M  V30 18 H -0.270092 0.345693 4.50757 0
M  V30 19 H -0.391635 1.67481 3.31091 0
M  V30 20 H 0.739231 1.58026 1.05586 0
M  V30 21 H 0.832023 1.55475 -1.35748 0
M  V30 22 H -1.59153 -2.01562 0.950982 0
M  V30 23 H -1.3721 -2.45881 -2.61694 0
M  V30 24 H -2.38745 -2.83436 -1.17681 0
M  V30 25 H 0.387504 2.06242 -3.39078 0
M  V30 26 H 1.7049 0.993071 -3.81072 0
M  V30 END ATOM
M  V30 BEGIN BOND
M  V30 1 1 1 2
M  V30 2 1 2 3
M  V30 3 1 3 4
M  V30 4 2 4 5
M  V30 5 1 5 6
M  V30 6 2 6 7
M  V30 7 1 7 8
M  V30 8 2 8 9
M  V30 9 1 8 10
M  V30 10 1 7 11
M  V30 11 2 11 12
M  V30 12 2 11 13
M  V30 13 1 11 14
M  V30 14 1 9 4
M  V30 15 1 1 15
M  V30 16 1 1 16
M  V30 17 1 1 17
M  V30 18 1 2 18
M  V30 19 1 2 19
M  V30 20 1 5 20
M  V30 21 1 6 21
M  V30 22 1 9 22
M  V30 23 1 10 23
M  V30 24 1 10 24
M  V30 25 1 14 25
M  V30 26 1 14 26
M  V30 END BOND
M  V30 END CTAB
M  END
