
     RDKit          3D

  0  0  0  0  0  0  0  0  0  0999 V3000
M  V30 BEGIN CTAB
M  V30 COUNTS 19 19 0 0 0
M  V30 BEGIN ATOM
M  V30 1 I -0.278341 4.22942 -0.78292 0
M  V30 2 C -0.21052 2.15186 -0.393388 0
M  V30 3 C 0.983497 1.4727 -0.267624 0
M  V30 4 C 1.03556 0.115661 -0.0131773 0
M  V30 5 C 2.33795 -0.60041 0.119394 0
M  V30 6 C -0.124157 -0.627341 0.127742 0
M  V30 7 C -1.32493 0.0426755 0.00369561 0
M  V30 8 C -1.36113 1.40436 -0.251644 0
M  V30 9 N -2.51025 -0.711949 0.146785 0
M  V30 10 N -0.0823845 -2.01928 0.388743 0
M  V30 11 H 1.90254 2.03632 -0.3746 0
M  V30 12 H 2.56787 -0.795544 1.16774 0
M  V30 13 H 2.35274 -1.53043 -0.508547 0
M  V30 14 H 3.13049 0.0535859 -0.337512 0
M  V30 15 H -2.30068 1.91059 -0.345304 0
M  V30 16 H -3.02943 -1.07325 -0.707817 0
M  V30 17 H -2.95242 -0.964813 1.0547 0
M  V30 18 H -0.859688 -2.63418 0.0940917 0
M  V30 19 H 0.723289 -2.45997 0.879644 0
M  V30 END ATOM
M  V30 BEGIN BOND
M  V30 1 1 1 2
M  V30 2 2 2 3
M  V30 3 1 3 4
M  V30 4 1 4 5
M  V30 5 2 4 6
M  V30 6 1 6 7
M  V30 7 2 7 8
M  V30 8 1 7 9
M  V30 9 1 6 10
M  V30 10 1 8 2
M  V30 11 1 3 11
M  V30 12 1 5 12
M  V30 13 1 5 13
M  V30 14 1 5 14
M  V30 15 1 8 15
M  V30 16 1 9 16
M  V30 17 1 9 17
M  V30 18 1 10 18
M  V30 19 1 10 19
M  V30 END BOND
M  V30 END CTAB
M  END
