
     RDKit          3D

  0  0  0  0  0  0  0  0  0  0999 V3000
M  V30 BEGIN CTAB
M  V30 COUNTS 50 53 0 0 0
M  V30 BEGIN ATOM
M  V30 1 N -3.62377 -1.94068 -2.10428 0
M  V30 2 C -3.29507 -1.88278 -0.690845 0
M  V30 3 C -2.16238 -2.50868 -0.191909 0
M  V30 4 S -0.822568 -3.27673 -1.13819 0
M  V30 5 S 0.249323 -1.68542 -2.00141 0
M  V30 6 C 1.53264 -0.882989 -1.16201 0
M  V30 7 C 2.93516 -1.03873 -1.2849 0
M  V30 8 N 3.59575 -1.90955 -2.1661 0
M  V30 9 N 3.56005 -0.20025 -0.490292 0
M  V30 10 N 2.63779 0.523018 0.186856 0
M  V30 11 C 1.42016 0.127244 -0.200189 0
M  V30 12 C 0.181975 0.657002 0.325278 0
M  V30 13 N -0.804594 1.12525 0.773089 0
M  V30 14 C 4.92418 0.203598 -0.301832 0
M  V30 15 C 5.662 -0.126867 0.788783 0
M  V30 16 Cl 5.04962 -1.20198 2.01207 0
M  V30 17 C 6.96025 0.421882 0.974784 0
M  V30 18 C 7.49417 1.29872 0.0478244 0
M  V30 19 C 6.73482 1.61516 -1.04977 0
M  V30 20 C 5.4667 1.08314 -1.2449 0
M  V30 21 Cl 4.56891 1.53431 -2.66151 0
M  V30 22 C 8.81615 1.9431 0.214378 0
M  V30 23 F 8.73145 3.30389 -0.142248 0
M  V30 24 F 9.70126 1.3668 -0.673885 0
M  V30 25 F 9.29114 1.96715 1.52252 0
M  V30 26 C -2.18447 -2.32632 1.16347 0
M  V30 27 N -3.29504 -1.59663 1.48288 0
M  V30 28 N -3.95976 -1.3304 0.310566 0
M  V30 29 C -5.05643 -0.411932 0.354449 0
M  V30 30 C -4.99739 0.793231 -0.354437 0
M  V30 31 Cl -3.72829 1.08898 -1.51403 0
M  V30 32 C -5.9453 1.77021 -0.171948 0
M  V30 33 C -6.975 1.56967 0.714893 0
M  V30 34 C -7.02581 0.358239 1.41816 0
M  V30 35 C -6.07953 -0.617226 1.2399 0
M  V30 36 Cl -6.20942 -2.10576 2.1789 0
M  V30 37 C -7.99203 2.60244 0.938249 0
M  V30 38 F -8.0115 3.44595 -0.153485 0
M  V30 39 F -7.46886 3.39993 1.98659 0
M  V30 40 F -9.19893 2.10793 1.34679 0
M  V30 41 C -1.27815 -2.86837 2.17572 0
M  V30 42 N -0.519054 -3.28659 2.99813 0
M  V30 43 H -2.97604 -1.63971 -2.84926 0
M  V30 44 H -4.55701 -2.32474 -2.35911 0
M  V30 45 H 3.26753 -2.8699 -2.26153 0
M  V30 46 H 4.42263 -1.60995 -2.71787 0
M  V30 47 H 7.53477 0.160087 1.84759 0
M  V30 48 H 7.16723 2.31695 -1.78428 0
M  V30 49 H -5.88623 2.68377 -0.722465 0
M  V30 50 H -7.85304 0.174527 2.11722 0
M  V30 END ATOM
M  V30 BEGIN BOND
M  V30 1 1 1 2
M  V30 2 2 2 3
M  V30 3 1 3 4
M  V30 4 1 4 5
M  V30 5 1 5 6
M  V30 6 2 6 7
M  V30 7 1 7 8
M  V30 8 1 7 9
M  V30 9 1 9 10
M  V30 10 2 10 11
M  V30 11 1 11 12
M  V30 12 3 12 13
M  V30 13 1 9 14
M  V30 14 2 14 15
M  V30 15 1 15 16
M  V30 16 1 15 17
M  V30 17 2 17 18
M  V30 18 1 18 19
M  V30 19 2 19 20
M  V30 20 1 20 21
M  V30 21 1 18 22
M  V30 22 1 22 23
M  V30 23 1 22 24
M  V30 24 1 22 25
M  V30 25 1 3 26
M  V30 26 2 26 27
M  V30 27 1 27 28
M  V30 28 1 28 29
M  V30 29 2 29 30
M  V30 30 1 30 31
M  V30 31 1 30 32
M  V30 32 2 32 33
M  V30 33 1 33 34
M  V30 34 2 34 35
M  V30 35 1 35 36
M  V30 36 1 33 37
M  V30 37 1 37 38
M  V30 38 1 37 39
M  V30 39 1 37 40
M  V30 40 1 26 41
M  V30 41 3 41 42
M  V30 42 1 28 2
M  V30 43 1 35 29
M  V30 44 1 11 6
M  V30 45 1 20 14
M  V30 46 1 1 43
M  V30 47 1 1 44
M  V30 48 1 8 45
M  V30 49 1 8 46
M  V30 50 1 17 47
M  V30 51 1 19 48
M  V30 52 1 32 49
M  V30 53 1 34 50
M  V30 END BOND
M  V30 END CTAB
M  END
