
     RDKit          3D

  0  0  0  0  0  0  0  0  0  0999 V3000
M  V30 BEGIN CTAB
M  V30 COUNTS 28 29 0 0 0
M  V30 BEGIN ATOM
M  V30 1 N 0.351227 3.54551 -0.0655683 0
M  V30 2 C -0.264561 2.57267 0.0154689 0
M  V30 3 C -1.02964 1.31723 0.128264 0
M  V30 4 C -2.25862 1.40713 -0.297098 0
M  V30 5 N -2.83003 2.61078 -0.830273 0
M  V30 6 S -3.33125 -0.0181812 -0.223508 0
M  V30 7 C -2.28611 -1.36932 0.262863 0
M  V30 8 C -1.06841 -1.15179 0.62576 0
M  V30 9 C -0.40113 0.132397 0.692587 0
M  V30 10 C 1.0237 0.0181514 0.223163 0
M  V30 11 C 2.04821 -0.181605 1.14682 0
M  V30 12 C 3.36411 -0.268818 0.788265 0
M  V30 13 C 3.70735 -0.156027 -0.541742 0
M  V30 14 C 2.71882 0.0411762 -1.4787 0
M  V30 15 C 1.37607 0.127256 -1.09113 0
M  V30 16 Cl 0.143095 0.340453 -2.30761 0
M  V30 17 Cl 5.37678 -0.26121 -1.04031 0
M  V30 18 C -0.318083 -2.36696 1.00039 0
M  V30 19 N 0.28611 -3.30648 1.29778 0
M  V30 20 N -2.8768 -2.68258 0.224175 0
M  V30 21 H -3.34781 3.2289 -0.157426 0
M  V30 22 H -2.73249 2.85688 -1.84379 0
M  V30 23 H -0.298331 0.361515 1.81514 0
M  V30 24 H 1.76939 -0.268663 2.183 0
M  V30 25 H 4.11056 -0.427262 1.57905 0
M  V30 26 H 2.91131 0.138293 -2.53366 0
M  V30 27 H -2.67096 -3.32424 1.01163 0
M  V30 28 H -3.47251 -2.9152 -0.583536 0
M  V30 END ATOM
M  V30 BEGIN BOND
M  V30 1 3 1 2
M  V30 2 1 2 3
M  V30 3 2 3 4
M  V30 4 1 4 5
M  V30 5 1 4 6
M  V30 6 1 6 7
M  V30 7 2 7 8
M  V30 8 1 8 9
M  V30 9 1 9 10
M  V30 10 2 10 11
M  V30 11 1 11 12
M  V30 12 2 12 13
M  V30 13 1 13 14
M  V30 14 2 14 15
M  V30 15 1 15 16
M  V30 16 1 13 17
M  V30 17 1 8 18
M  V30 18 3 18 19
M  V30 19 1 7 20
M  V30 20 1 9 3
M  V30 21 1 15 10
M  V30 22 1 5 21
M  V30 23 1 5 22
M  V30 24 1 9 23
M  V30 25 1 11 24
M  V30 26 1 12 25
M  V30 27 1 14 26
M  V30 28 1 20 27
M  V30 29 1 20 28
M  V30 END BOND
M  V30 END CTAB
M  END
