
     RDKit          3D

  0  0  0  0  0  0  0  0  0  0999 V3000
M  V30 BEGIN CTAB
M  V30 COUNTS 37 38 0 0 0
M  V30 BEGIN ATOM
M  V30 1 N 4.56805 -0.518127 -0.284131 0
M  V30 2 C 3.16549 -0.706884 -0.676717 0
M  V30 3 C 2.27891 -0.559702 0.522915 0
M  V30 4 C 2.46132 0.849434 1.05735 0
M  V30 5 N 1.98545 1.76292 0.03968 0
M  V30 6 C 0.804677 1.35324 -0.640006 0
M  V30 7 C 0.00222749 0.533689 0.352446 0
M  V30 8 C 0.845992 -0.812217 0.285091 0
M  V30 9 C -1.34012 0.11674 -0.0909768 0
M  V30 10 C -1.65517 -1.16822 -0.476282 0
M  V30 11 C -2.95 -1.61877 -0.709518 0
M  V30 12 N -3.18822 -2.99629 -1.05006 0
M  V30 13 C -3.99129 -0.744367 -0.557798 0
M  V30 14 C -3.7097 0.564903 -0.171735 0
M  V30 15 C -2.41397 0.972339 0.0533332 0
M  V30 16 C -2.2317 2.41152 0.398154 0
M  V30 17 H 5.11862 -0.545741 -1.17527 0
M  V30 18 H 4.85821 -1.2961 0.373915 0
M  V30 19 H 3.02144 0.0827909 -1.46099 0
M  V30 20 H 2.99311 -1.68818 -1.13376 0
M  V30 21 H 2.66703 -1.30113 1.26397 0
M  V30 22 H 1.92537 0.963318 2.01371 0
M  V30 23 H 3.55169 1.01676 1.17057 0
M  V30 24 H 2.68194 2.28323 -0.470346 0
M  V30 25 H 0.255936 2.30585 -0.893269 0
M  V30 26 H 0.890852 0.808577 -1.56681 0
M  V30 27 H 0.00511093 0.911063 1.35215 0
M  V30 28 H 0.371307 -1.48418 0.976046 0
M  V30 29 H 0.748183 -1.06723 -0.805848 0
M  V30 30 H -0.895355 -1.93493 -0.608215 0
M  V30 31 H -2.6932 -3.53069 -1.76229 0
M  V30 32 H -3.94608 -3.51293 -0.503668 0
M  V30 33 H -5.00181 -1.10574 -0.749679 0
M  V30 34 H -4.57821 1.22399 -0.0654384 0
M  V30 35 H -2.15936 2.92422 -0.611927 0
M  V30 36 H -1.33861 2.64552 0.969862 0
M  V30 37 H -3.10812 2.86133 0.899826 0
M  V30 END ATOM
M  V30 BEGIN BOND
M  V30 1 1 1 2
M  V30 2 1 2 3
M  V30 3 1 3 4
M  V30 4 1 4 5
M  V30 5 1 5 6
M  V30 6 1 6 7
M  V30 7 1 7 8
M  V30 8 1 7 9
M  V30 9 2 9 10
M  V30 10 1 10 11
M  V30 11 1 11 12
M  V30 12 2 11 13
M  V30 13 1 13 14
M  V30 14 2 14 15
M  V30 15 1 15 16
M  V30 16 1 8 3
M  V30 17 1 15 9
M  V30 18 1 1 17
M  V30 19 1 1 18
M  V30 20 1 2 19
M  V30 21 1 2 20
M  V30 22 1 3 21
M  V30 23 1 4 22
M  V30 24 1 4 23
M  V30 25 1 5 24
M  V30 26 1 6 25
M  V30 27 1 6 26
M  V30 28 1 7 27
M  V30 29 1 8 28
M  V30 30 1 8 29
M  V30 31 1 10 30
M  V30 32 1 12 31
M  V30 33 1 12 32
M  V30 34 1 13 33
M  V30 35 1 14 34
M  V30 36 1 16 35
M  V30 37 1 16 36
M  V30 38 1 16 37
M  V30 END BOND
M  V30 END CTAB
M  END
