
     RDKit          3D

  0  0  0  0  0  0  0  0  0  0999 V3000
M  V30 BEGIN CTAB
M  V30 COUNTS 29 30 0 0 0
M  V30 BEGIN ATOM
M  V30 1 N -1.80711 -1.49912 -1.73653 0
M  V30 2 C -1.7065 -0.589828 -0.650322 0
M  V30 3 C -0.559247 0.00494077 -0.196965 0
M  V30 4 C 0.785554 -0.239416 -0.815094 0
M  V30 5 C 1.77558 0.611976 -0.0114138 0
M  V30 6 C 3.16531 0.450069 -0.539572 0
M  V30 7 C 3.84967 -0.84212 -0.57761 0
M  V30 8 C 4.21163 0.114952 0.501298 0
M  V30 9 N -0.888259 0.779222 0.826615 0
M  V30 10 C -2.21333 0.706513 1.05294 0
M  V30 11 N -2.71177 -0.142394 0.135009 0
M  V30 12 N -4.03713 -0.524405 -0.0162389 0
M  V30 13 C -2.96279 1.43202 2.11695 0
M  V30 14 H -2.70065 -1.56112 -2.26296 0
M  V30 15 H -1.02236 -2.1125 -2.03424 0
M  V30 16 H 1.09807 -1.28207 -0.717413 0
M  V30 17 H 0.827772 0.157209 -1.85037 0
M  V30 18 H 1.41916 1.65853 -0.134621 0
M  V30 19 H 1.72781 0.369085 1.05876 0
M  V30 20 H 3.42428 1.16737 -1.34415 0
M  V30 21 H 4.59538 -1.03714 -1.36008 0
M  V30 22 H 3.28111 -1.75395 -0.275913 0
M  V30 23 H 5.12922 0.726965 0.423619 0
M  V30 24 H 3.90503 -0.0990818 1.53048 0
M  V30 25 H -4.29654 -1.49883 -0.234516 0
M  V30 26 H -4.79044 0.180388 0.0911349 0
M  V30 27 H -3.35472 0.711429 2.85482 0
M  V30 28 H -3.83359 1.91214 1.60126 0
M  V30 29 H -2.31112 2.19918 2.56512 0
M  V30 END ATOM
M  V30 BEGIN BOND
M  V30 1 1 1 2
M  V30 2 2 2 3
M  V30 3 1 3 4
M  V30 4 1 4 5
M  V30 5 1 5 6
M  V30 6 1 6 7
M  V30 7 1 7 8
M  V30 8 1 3 9
M  V30 9 2 9 10
M  V30 10 1 10 11
M  V30 11 1 11 12
M  V30 12 1 10 13
M  V30 13 1 11 2
M  V30 14 1 8 6
M  V30 15 1 1 14
M  V30 16 1 1 15
M  V30 17 1 4 16
M  V30 18 1 4 17
M  V30 19 1 5 18
M  V30 20 1 5 19
M  V30 21 1 6 20
M  V30 22 1 7 21
M  V30 23 1 7 22
M  V30 24 1 8 23
M  V30 25 1 8 24
M  V30 26 1 12 25
M  V30 27 1 12 26
M  V30 28 1 13 27
M  V30 29 1 13 28
M  V30 30 1 13 29
M  V30 END BOND
M  V30 END CTAB
M  END
