
     RDKit          3D

  0  0  0  0  0  0  0  0  0  0999 V3000
M  V30 BEGIN CTAB
M  V30 COUNTS 42 42 0 0 0
M  V30 BEGIN ATOM
M  V30 1 C 5.76232 -2.57243 0.901037 0
M  V30 2 C 4.98473 -1.27406 0.710624 0
M  V30 3 C 3.5326 -1.59956 0.376236 0
M  V30 4 C 2.80336 -0.287204 0.196954 0
M  V30 5 O 1.44152 -0.497463 -0.117384 0
M  V30 6 C 0.652729 0.628503 -0.3091 0
M  V30 7 C 1.15505 1.90487 -0.202439 0
M  V30 8 C 0.376738 3.02302 -0.391682 0
M  V30 9 N 0.91856 4.32637 -0.275742 0
M  V30 10 C -0.951295 2.84207 -0.698736 0
M  V30 11 N -1.73774 4.03171 -0.89046 0
M  V30 12 C -1.49302 1.58904 -0.815027 0
M  V30 13 C -0.717095 0.470271 -0.625683 0
M  V30 14 O -1.14371 -0.805049 -0.712009 0
M  V30 15 C -2.32181 -1.4421 -0.95493 0
M  V30 16 C -3.34805 -1.14842 0.0904303 0
M  V30 17 C -4.66466 -1.86351 -0.181666 0
M  V30 18 C -5.61111 -1.4864 0.93943 0
M  V30 19 H 6.45496 -2.73379 0.0645813 0
M  V30 20 H 5.03573 -3.39059 1.02678 0
M  V30 21 H 6.34265 -2.51474 1.8443 0
M  V30 22 H 5.42485 -0.679126 -0.109495 0
M  V30 23 H 4.9736 -0.666914 1.61959 0
M  V30 24 H 3.53435 -2.12327 -0.601367 0
M  V30 25 H 3.0777 -2.24651 1.12475 0
M  V30 26 H 2.82697 0.311983 1.14036 0
M  V30 27 H 3.32109 0.319915 -0.561108 0
M  V30 28 H 2.22081 2.03028 0.0438653 0
M  V30 29 H 0.770047 5.04098 -0.996904 0
M  V30 30 H 1.49895 4.60603 0.566522 0
M  V30 31 H -2.68141 4.02546 -0.444753 0
M  V30 32 H -1.39313 4.84916 -1.43745 0
M  V30 33 H -2.53136 1.52657 -1.07013 0
M  V30 34 H -2.12187 -2.56242 -0.926742 0
M  V30 35 H -2.71697 -1.29403 -1.99156 0
M  V30 36 H -2.94857 -1.57831 1.05204 0
M  V30 37 H -3.57731 -0.0971397 0.156565 0
M  V30 38 H -4.54096 -2.96582 -0.168947 0
M  V30 39 H -5.11525 -1.49615 -1.12737 0
M  V30 40 H -5.50523 -0.406788 1.16634 0
M  V30 41 H -5.32803 -2.02419 1.88612 0
M  V30 42 H -6.66074 -1.77024 0.704172 0
M  V30 END ATOM
M  V30 BEGIN BOND
M  V30 1 1 1 2
M  V30 2 1 2 3
M  V30 3 1 3 4
M  V30 4 1 4 5
M  V30 5 1 5 6
M  V30 6 2 6 7
M  V30 7 1 7 8
M  V30 8 1 8 9
M  V30 9 2 8 10
M  V30 10 1 10 11
M  V30 11 1 10 12
M  V30 12 2 12 13
M  V30 13 1 13 14
M  V30 14 1 14 15
M  V30 15 1 15 16
M  V30 16 1 16 17
M  V30 17 1 17 18
M  V30 18 1 13 6
M  V30 19 1 1 19
M  V30 20 1 1 20
M  V30 21 1 1 21
M  V30 22 1 2 22
M  V30 23 1 2 23
M  V30 24 1 3 24
M  V30 25 1 3 25
M  V30 26 1 4 26
M  V30 27 1 4 27
M  V30 28 1 7 28
M  V30 29 1 9 29
M  V30 30 1 9 30
M  V30 31 1 11 31
M  V30 32 1 11 32
M  V30 33 1 12 33
M  V30 34 1 15 34
M  V30 35 1 15 35
M  V30 36 1 16 36
M  V30 37 1 16 37
M  V30 38 1 17 38
M  V30 39 1 17 39
M  V30 40 1 18 40
M  V30 41 1 18 41
M  V30 42 1 18 42
M  V30 END BOND
M  V30 END CTAB
M  END
