
     RDKit          3D

  0  0  0  0  0  0  0  0  0  0999 V3000
M  V30 BEGIN CTAB
M  V30 COUNTS 26 26 0 0 0
M  V30 BEGIN ATOM
M  V30 1 N -3.26337 1.69867 0.227926 0
M  V30 2 C -1.99228 1.37664 -0.440469 0
M  V30 3 C -2.0914 -0.0429814 -0.933087 0
M  V30 4 S -0.628788 -0.61079 -1.7779 0
M  V30 5 C 0.807159 -0.742066 -0.728029 0
M  V30 6 C 1.65235 0.335618 -0.56026 0
M  V30 7 C 2.7905 0.294909 0.242557 0
M  V30 8 N 3.63337 1.41636 0.393261 0
M  V30 9 C 3.10673 -0.871573 0.91179 0
M  V30 10 C 2.26416 -1.94809 0.744967 0
M  V30 11 C 1.1393 -1.89785 -0.0521141 0
M  V30 12 Cl 0.121344 -3.3132 -0.21097 0
M  V30 13 C -2.5545 -0.923586 0.184635 0
M  V30 14 H -3.22228 1.33165 1.21515 0
M  V30 15 H -3.42932 2.74895 0.20552 0
M  V30 16 H -1.83524 2.03312 -1.30943 0
M  V30 17 H -1.16578 1.46675 0.304639 0
M  V30 18 H -2.92722 -0.0474986 -1.69298 0
M  V30 19 H 1.39767 1.25252 -1.09095 0
M  V30 20 H 4.33013 1.63015 -0.332571 0
M  V30 21 H 3.54391 2.01055 1.229 0
M  V30 22 H 3.98148 -0.957221 1.55033 0
M  V30 23 H 2.52613 -2.86465 1.27989 0
M  V30 24 H -2.74072 -1.96382 -0.157224 0
M  V30 25 H -1.8794 -0.846312 1.04512 0
M  V30 26 H -3.56394 -0.566252 0.547063 0
M  V30 END ATOM
M  V30 BEGIN BOND
M  V30 1 1 1 2
M  V30 2 1 2 3
M  V30 3 1 3 4
M  V30 4 1 4 5
M  V30 5 2 5 6
M  V30 6 1 6 7
M  V30 7 1 7 8
M  V30 8 2 7 9
M  V30 9 1 9 10
M  V30 10 2 10 11
M  V30 11 1 11 12
M  V30 12 1 3 13
M  V30 13 1 11 5
M  V30 14 1 1 14
M  V30 15 1 1 15
M  V30 16 1 2 16
M  V30 17 1 2 17
M  V30 18 1 3 18
M  V30 19 1 6 19
M  V30 20 1 8 20
M  V30 21 1 8 21
M  V30 22 1 9 22
M  V30 23 1 10 23
M  V30 24 1 13 24
M  V30 25 1 13 25
M  V30 26 1 13 26
M  V30 END BOND
M  V30 END CTAB
M  END
