
     RDKit          3D

  0  0  0  0  0  0  0  0  0  0999 V3000
M  V30 BEGIN CTAB
M  V30 COUNTS 32 33 0 0 0
M  V30 BEGIN ATOM
M  V30 1 C -3.65608 0.0876533 0.378519 0
M  V30 2 O -2.34603 0.163916 0.798436 0
M  V30 3 C -1.89246 0.258959 2.06897 0
M  V30 4 C -2.66713 0.303077 3.17181 0
M  V30 5 C -2.11722 0.396479 4.46841 0
M  V30 6 C -0.738238 0.447939 4.58803 0
M  V30 7 F -0.163584 0.529719 5.81807 0
M  V30 8 C 0.0498217 0.403091 3.46541 0
M  V30 9 C -0.494803 0.313774 2.2456 0
M  V30 10 C 0.335669 0.243179 1.05303 0
M  V30 11 C 1.67919 0.195845 0.96614 0
M  V30 12 C 2.0235 0.134024 -0.368372 0
M  V30 13 C 0.818852 0.144835 -1.09566 0
M  V30 14 O -0.117537 0.208449 -0.1617 0
M  V30 15 C 0.555777 0.089037 -2.50359 0
M  V30 16 O -0.770764 0.242568 -2.7349 0
M  V30 17 N 1.20159 -0.0788111 -3.63704 0
M  V30 18 C 2.24384 -0.437671 -4.19475 0
M  V30 19 N 2.31974 -0.359928 -5.63434 0
M  V30 20 N 3.36526 -0.900269 -3.52303 0
M  V30 21 H -3.87901 -0.902699 -0.103268 0
M  V30 22 H -3.91693 0.869683 -0.379496 0
M  V30 23 H -4.34821 0.268063 1.21508 0
M  V30 24 H -3.74848 0.260733 3.15556 0
M  V30 25 H -2.77875 0.42507 5.30662 0
M  V30 26 H 1.14351 0.429443 3.62025 0
M  V30 27 H 2.4568 0.201146 1.75331 0
M  V30 28 H 3.00969 0.0954394 -0.806475 0
M  V30 29 H 2.39149 -1.23356 -6.18272 0
M  V30 30 H 2.32581 0.537338 -6.14024 0
M  V30 31 H 4.29863 -0.422058 -3.80254 0
M  V30 32 H 3.41605 -1.66333 -2.80511 0
M  V30 END ATOM
M  V30 BEGIN BOND
M  V30 1 1 1 2
M  V30 2 1 2 3
M  V30 3 2 3 4
M  V30 4 1 4 5
M  V30 5 2 5 6
M  V30 6 1 6 7
M  V30 7 1 6 8
M  V30 8 2 8 9
M  V30 9 1 9 10
M  V30 10 2 10 11
M  V30 11 1 11 12
M  V30 12 2 12 13
M  V30 13 1 13 14
M  V30 14 1 13 15
M  V30 15 2 15 16
M  V30 16 1 15 17
M  V30 17 2 17 18
M  V30 18 1 18 19
M  V30 19 1 18 20
M  V30 20 1 9 3
M  V30 21 1 14 10
M  V30 22 1 1 21
M  V30 23 1 1 22
M  V30 24 1 1 23
M  V30 25 1 4 24
M  V30 26 1 5 25
M  V30 27 1 8 26
M  V30 28 1 11 27
M  V30 29 1 12 28
M  V30 30 1 19 29
M  V30 31 1 19 30
M  V30 32 1 20 31
M  V30 33 1 20 32
M  V30 END BOND
M  V30 END CTAB
M  END
