
     RDKit          3D

  0  0  0  0  0  0  0  0  0  0999 V3000
M  V30 BEGIN CTAB
M  V30 COUNTS 57 59 0 0 0
M  V30 BEGIN ATOM
M  V30 1 C 6.73127 1.95143 3.36316 0
M  V30 2 O 6.38858 0.827713 2.64356 0
M  V30 3 C 5.35672 0.67863 1.72658 0
M  V30 4 C 4.48115 1.67559 1.38873 0
M  V30 5 C 3.47129 1.45798 0.463126 0
M  V30 6 C 3.27486 0.251472 -0.172905 0
M  V30 7 C 4.14855 -0.75163 0.161593 0
M  V30 8 C 5.176 -0.554028 1.09342 0
M  V30 9 O 6.06385 -1.55132 1.43959 0
M  V30 10 C 5.95344 -2.82161 0.845944 0
M  V30 11 C 2.19285 0.0877654 -1.15475 0
M  V30 12 N 1.36433 1.14181 -1.46238 0
M  V30 13 N 0.485236 0.772333 -2.36121 0
M  V30 14 C 0.720891 -0.503223 -2.64872 0
M  V30 15 N 1.7923 -0.920977 -1.88625 0
M  V30 16 N 2.33425 -2.20682 -1.91439 0
M  V30 17 S -0.117379 -1.56427 -3.81656 0
M  V30 18 C -1.49927 -2.36613 -2.99249 0
M  V30 19 C -2.58759 -1.35754 -2.7749 0
M  V30 20 O -3.48865 -1.71498 -2.00016 0
M  V30 21 N -2.55091 -0.132363 -3.41597 0
M  V30 22 C -3.41184 0.974181 -3.36126 0
M  V30 23 C -3.51462 1.77332 -2.14422 0
M  V30 24 C -3.95279 1.19826 -0.884674 0
M  V30 25 C -5.31963 1.02362 -0.631295 0
M  V30 26 C -5.76777 0.546726 0.580547 0
M  V30 27 C -4.89786 0.219466 1.59975 0
M  V30 28 C -3.54865 0.383812 1.37245 0
M  V30 29 C -3.09605 0.858993 0.165142 0
M  V30 30 S -5.50945 -0.38866 3.13346 0
M  V30 31 O -4.46351 -1.24636 3.77906 0
M  V30 32 O -6.7665 -1.14099 2.90391 0
M  V30 33 N -5.7782 0.99623 4.15481 0
M  V30 34 H 7.72132 2.35197 3.03051 0
M  V30 35 H 6.01112 2.77089 3.21762 0
M  V30 36 H 6.74363 1.71696 4.45489 0
M  V30 37 H 4.58103 2.66494 1.85814 0
M  V30 38 H 2.7957 2.2758 0.221356 0
M  V30 39 H 4.05601 -1.73314 -0.295852 0
M  V30 40 H 5.08715 -3.35902 1.30336 0
M  V30 41 H 6.87045 -3.40984 1.08909 0
M  V30 42 H 5.7731 -2.74685 -0.228464 0
M  V30 43 H 2.16894 -2.92524 -1.1732 0
M  V30 44 H 2.95076 -2.49543 -2.72299 0
M  V30 45 H -1.89376 -3.22659 -3.60355 0
M  V30 46 H -1.22981 -2.76544 -1.9824 0
M  V30 47 H -1.70604 -0.0221203 -4.11195 0
M  V30 48 H -4.49691 0.651681 -3.62596 0
M  V30 49 H -3.19222 1.67339 -4.24909 0
M  V30 50 H -4.1249 2.73802 -2.36329 0
M  V30 51 H -2.48239 2.26734 -1.96661 0
M  V30 52 H -6.0004 1.27994 -1.43079 0
M  V30 53 H -6.82593 0.404741 0.793385 0
M  V30 54 H -2.85854 0.121655 2.18854 0
M  V30 55 H -2.02687 0.990095 -0.0213643 0
M  V30 56 H -6.6186 1.52813 3.80159 0
M  V30 57 H -4.96772 1.64968 4.08712 0
M  V30 END ATOM
M  V30 BEGIN BOND
M  V30 1 1 1 2
M  V30 2 1 2 3
M  V30 3 2 3 4
M  V30 4 1 4 5
M  V30 5 2 5 6
M  V30 6 1 6 7
M  V30 7 2 7 8
M  V30 8 1 8 9
M  V30 9 1 9 10
M  V30 10 1 6 11
M  V30 11 2 11 12
M  V30 12 1 12 13
M  V30 13 2 13 14
M  V30 14 1 14 15
M  V30 15 1 15 16
M  V30 16 1 14 17
M  V30 17 1 17 18
M  V30 18 1 18 19
M  V30 19 2 19 20
M  V30 20 1 19 21
M  V30 21 1 21 22
M  V30 22 1 22 23
M  V30 23 1 23 24
M  V30 24 2 24 25
M  V30 25 1 25 26
M  V30 26 2 26 27
M  V30 27 1 27 28
M  V30 28 2 28 29
M  V30 29 1 27 30
M  V30 30 2 30 31
M  V30 31 2 30 32
M  V30 32 1 30 33
M  V30 33 1 8 3
M  V30 34 1 15 11
M  V30 35 1 29 24
M  V30 36 1 1 34
M  V30 37 1 1 35
M  V30 38 1 1 36
M  V30 39 1 4 37
M  V30 40 1 5 38
M  V30 41 1 7 39
M  V30 42 1 10 40
M  V30 43 1 10 41
M  V30 44 1 10 42
M  V30 45 1 16 43
M  V30 46 1 16 44
M  V30 47 1 18 45
M  V30 48 1 18 46
M  V30 49 1 21 47
M  V30 50 1 22 48
M  V30 51 1 22 49
M  V30 52 1 23 50
M  V30 53 1 23 51
M  V30 54 1 25 52
M  V30 55 1 26 53
M  V30 56 1 28 54
M  V30 57 1 29 55
M  V30 58 1 33 56
M  V30 59 1 33 57
M  V30 END BOND
M  V30 END CTAB
M  END
