
     RDKit          3D

  0  0  0  0  0  0  0  0  0  0999 V3000
M  V30 BEGIN CTAB
M  V30 COUNTS 29 30 0 0 0
M  V30 BEGIN ATOM
M  V30 1 N 3.86755 -0.205608 -2.31614 0
M  V30 2 C 3.03133 -0.376222 -1.16427 0
M  V30 3 N 1.93036 -1.13878 -1.17512 0
M  V30 4 C 1.11996 -1.28664 -0.0862896 0
M  V30 5 S -0.270501 -2.32871 -0.0453333 0
M  V30 6 C -1.80006 -1.80104 -0.691368 0
M  V30 7 C -2.51938 -0.672792 -0.0992352 0
M  V30 8 C -2.191 0.0405845 1.00732 0
M  V30 9 C -2.9857 1.08692 1.42366 0
M  V30 10 C -4.12999 1.44594 0.74449 0
M  V30 11 C -4.47786 0.719653 -0.39354 0
M  V30 12 C -3.68543 -0.310649 -0.795871 0
M  V30 13 N 1.5164 -0.602779 0.999669 0
M  V30 14 C 2.58347 0.169642 1.10692 0
M  V30 15 N 2.90392 0.834433 2.32139 0
M  V30 16 C 3.3808 0.289756 -0.0340308 0
M  V30 17 N 4.52163 1.11487 0.0795962 0
M  V30 18 O 5.05486 1.72405 -0.857761 0
M  V30 19 H 3.79756 0.611599 -2.96094 0
M  V30 20 H 4.58625 -0.924648 -2.52526 0
M  V30 21 H -2.52419 -2.6693 -0.652992 0
M  V30 22 H -1.72167 -1.61081 -1.81593 0
M  V30 23 H -1.2962 -0.237459 1.57274 0
M  V30 24 H -2.6563 1.62862 2.32529 0
M  V30 25 H -4.72902 2.26379 1.09685 0
M  V30 26 H -5.3778 1.02599 -0.897214 0
M  V30 27 H -3.99072 -0.85224 -1.68798 0
M  V30 28 H 3.34214 0.234076 3.06715 0
M  V30 29 H 2.71958 1.82774 2.45421 0
M  V30 END ATOM
M  V30 BEGIN BOND
M  V30 1 1 1 2
M  V30 2 2 2 3
M  V30 3 1 3 4
M  V30 4 1 4 5
M  V30 5 1 5 6
M  V30 6 1 6 7
M  V30 7 2 7 8
M  V30 8 1 8 9
M  V30 9 2 9 10
M  V30 10 1 10 11
M  V30 11 2 11 12
M  V30 12 2 4 13
M  V30 13 1 13 14
M  V30 14 1 14 15
M  V30 15 2 14 16
M  V30 16 1 16 17
M  V30 17 2 17 18
M  V30 18 1 16 2
M  V30 19 1 12 7
M  V30 20 1 1 19
M  V30 21 1 1 20
M  V30 22 1 6 21
M  V30 23 1 6 22
M  V30 24 1 8 23
M  V30 25 1 9 24
M  V30 26 1 10 25
M  V30 27 1 11 26
M  V30 28 1 12 27
M  V30 29 1 15 28
M  V30 30 1 15 29
M  V30 END BOND
M  V30 END CTAB
M  END
