
     RDKit          3D

  0  0  0  0  0  0  0  0  0  0999 V3000
M  V30 BEGIN CTAB
M  V30 COUNTS 28 29 0 0 0
M  V30 BEGIN ATOM
M  V30 1 O 1.25756 -0.527684 -1.38557 0
M  V30 2 C 0.59367 -1.27766 -0.714458 0
M  V30 3 C 1.20588 -2.57141 -0.260029 0
M  V30 4 S 2.0711 -2.22749 1.30193 0
M  V30 5 C 3.4396 -1.1366 0.984143 0
M  V30 6 N 4.674 -1.5398 0.663017 0
M  V30 7 N 5.46384 -0.480346 0.485249 0
M  V30 8 C 4.70197 0.611068 0.700826 0
M  V30 9 N 3.45322 0.198034 1.0088 0
M  V30 10 N 5.14869 1.9575 0.615514 0
M  V30 11 C -0.804885 -0.930003 -0.343982 0
M  V30 12 S -1.20446 0.671849 -1.03402 0
M  V30 13 C -2.87455 1.17803 -0.677472 0
M  V30 14 N -3.40042 2.34923 -1.07766 0
M  V30 15 N -4.64509 2.43694 -0.665037 0
M  V30 16 C -4.97329 1.31862 0.0224673 0
M  V30 17 N -3.85285 0.555684 -0.00235755 0
M  V30 18 N -6.22026 1.03523 0.622865 0
M  V30 19 H 0.369762 -3.24657 -0.0450032 0
M  V30 20 H 1.88215 -2.90699 -1.0572 0
M  V30 21 H 2.67128 0.841346 1.22023 0
M  V30 22 H 6.15157 2.19264 0.522917 0
M  V30 23 H 4.43515 2.71237 0.648783 0
M  V30 24 H -1.45493 -1.74176 -0.758543 0
M  V30 25 H -0.952135 -0.976672 0.756525 0
M  V30 26 H -3.76653 -0.373797 0.437524 0
M  V30 27 H -6.99348 1.71377 0.525968 0
M  V30 28 H -6.37655 0.164471 1.156 0
M  V30 END ATOM
M  V30 BEGIN BOND
M  V30 1 2 1 2
M  V30 2 1 2 3
M  V30 3 1 3 4
M  V30 4 1 4 5
M  V30 5 2 5 6
M  V30 6 1 6 7
M  V30 7 2 7 8
M  V30 8 1 8 9
M  V30 9 1 8 10
M  V30 10 1 2 11
M  V30 11 1 11 12
M  V30 12 1 12 13
M  V30 13 2 13 14
M  V30 14 1 14 15
M  V30 15 2 15 16
M  V30 16 1 16 17
M  V30 17 1 16 18
M  V30 18 1 9 5
M  V30 19 1 17 13
M  V30 20 1 3 19
M  V30 21 1 3 20
M  V30 22 1 9 21
M  V30 23 1 10 22
M  V30 24 1 10 23
M  V30 25 1 11 24
M  V30 26 1 11 25
M  V30 27 1 17 26
M  V30 28 1 18 27
M  V30 29 1 18 28
M  V30 END BOND
M  V30 END CTAB
M  END
