
     RDKit          3D

  0  0  0  0  0  0  0  0  0  0999 V3000
M  V30 BEGIN CTAB
M  V30 COUNTS 38 39 0 0 0
M  V30 BEGIN ATOM
M  V30 1 C 3.28686 -2.49706 0.280288 0
M  V30 2 C 3.46439 -1.10984 -0.271374 0
M  V30 3 C 3.77045 -0.118587 0.831293 0
M  V30 4 C 2.63032 -0.100802 1.82534 0
M  V30 5 O 1.40243 0.267002 1.25859 0
M  V30 6 C 1.13728 1.45604 0.639921 0
M  V30 7 O 2.04704 2.31498 0.553858 0
M  V30 8 C -0.153507 1.80557 0.0606609 0
M  V30 9 C -0.380513 3.01758 -0.556353 0
M  V30 10 C -1.59886 3.35954 -1.10857 0
M  V30 11 N -1.81094 4.61554 -1.74043 0
M  V30 12 C -2.62513 2.44093 -1.03347 0
M  V30 13 C -2.44903 1.21968 -0.428969 0
M  V30 14 C -1.23506 0.917483 0.104003 0
M  V30 15 S -0.895519 -0.657676 0.921 0
M  V30 16 C -2.40902 -1.60319 0.84975 0
M  V30 17 N -3.42223 -1.61922 1.74765 0
M  V30 18 N -4.36316 -2.45136 1.32906 0
M  V30 19 C -3.98806 -2.99496 0.15447 0
M  V30 20 N -2.78559 -2.46089 -0.121855 0
M  V30 21 N -2.02404 -2.74799 -1.25514 0
M  V30 22 H 2.23274 -2.65414 0.648728 0
M  V30 23 H 3.45233 -3.20964 -0.560213 0
M  V30 24 H 4.0162 -2.7092 1.06437 0
M  V30 25 H 2.5073 -0.805848 -0.762607 0
M  V30 26 H 4.29878 -1.13195 -1.00255 0
M  V30 27 H 4.03032 0.861098 0.430431 0
M  V30 28 H 4.66557 -0.483242 1.40121 0
M  V30 29 H 2.5495 -1.12526 2.25927 0
M  V30 30 H 2.83945 0.568823 2.68236 0
M  V30 31 H 0.437442 3.72513 -0.605187 0
M  V30 32 H -1.97138 4.70475 -2.75623 0
M  V30 33 H -1.8051 5.48181 -1.1607 0
M  V30 34 H -3.59213 2.68914 -1.46137 0
M  V30 35 H -3.25998 0.480319 -0.363531 0
M  V30 36 H -4.54117 -3.72136 -0.455037 0
M  V30 37 H -2.4307 -3.25177 -2.07532 0
M  V30 38 H -1.02729 -2.47142 -1.32335 0
M  V30 END ATOM
M  V30 BEGIN BOND
M  V30 1 1 1 2
M  V30 2 1 2 3
M  V30 3 1 3 4
M  V30 4 1 4 5
M  V30 5 1 5 6
M  V30 6 2 6 7
M  V30 7 1 6 8
M  V30 8 2 8 9
M  V30 9 1 9 10
M  V30 10 1 10 11
M  V30 11 2 10 12
M  V30 12 1 12 13
M  V30 13 2 13 14
M  V30 14 1 14 15
M  V30 15 1 15 16
M  V30 16 2 16 17
M  V30 17 1 17 18
M  V30 18 2 18 19
M  V30 19 1 19 20
M  V30 20 1 20 21
M  V30 21 1 14 8
M  V30 22 1 20 16
M  V30 23 1 1 22
M  V30 24 1 1 23
M  V30 25 1 1 24
M  V30 26 1 2 25
M  V30 27 1 2 26
M  V30 28 1 3 27
M  V30 29 1 3 28
M  V30 30 1 4 29
M  V30 31 1 4 30
M  V30 32 1 9 31
M  V30 33 1 11 32
M  V30 34 1 11 33
M  V30 35 1 12 34
M  V30 36 1 13 35
M  V30 37 1 19 36
M  V30 38 1 21 37
M  V30 39 1 21 38
M  V30 END BOND
M  V30 END CTAB
M  END
