
     RDKit          3D

  0  0  0  0  0  0  0  0  0  0999 V3000
M  V30 BEGIN CTAB
M  V30 COUNTS 60 63 0 0 0
M  V30 BEGIN ATOM
M  V30 1 C -8.11204 -1.10551 3.62386 0
M  V30 2 O -8.85121 -0.745691 2.46575 0
M  V30 3 C -8.14591 -0.394028 1.323 0
M  V30 4 C -6.7721 -0.379567 1.26568 0
M  V30 5 C -6.06199 -0.0256741 0.115421 0
M  V30 6 C -6.80794 0.312696 -0.972424 0
M  V30 7 C -8.21299 0.308967 -0.949926 0
M  V30 8 C -8.864 -0.0440553 0.196428 0
M  V30 9 O -10.2448 -0.0357129 0.179328 0
M  V30 10 C -11.011 0.309859 -0.933366 0
M  V30 11 N -4.6641 -0.0489875 0.206068 0
M  V30 12 C -3.77266 0.134316 -0.855485 0
M  V30 13 O -4.07369 0.344063 -2.04526 0
M  V30 14 C -2.32448 0.0668988 -0.499074 0
M  V30 15 S -1.66908 -0.205817 1.05388 0
M  V30 16 C -0.0287147 -0.13263 0.604987 0
M  V30 17 C -0.00430713 0.103338 -0.749498 0
M  V30 18 C -1.26103 0.205842 -1.31544 0
M  V30 19 N -1.55409 0.454041 -2.7371 0
M  V30 20 C 1.26968 0.190719 -1.27147 0
M  V30 21 C 2.30658 0.0394721 -0.420152 0
M  V30 22 S 1.59499 -0.224989 1.10877 0
M  V30 23 C 3.75914 0.0914226 -0.73712 0
M  V30 24 O 4.14273 0.290575 -1.88779 0
M  V30 25 N 4.61987 -0.10148 0.363507 0
M  V30 26 C 6.02989 -0.106858 0.347517 0
M  V30 27 C 6.77091 -0.243642 -0.801307 0
M  V30 28 C 8.17047 -0.21644 -0.772734 0
M  V30 29 C 8.81971 -0.0505154 0.425353 0
M  V30 30 C 8.11812 0.0898078 1.60184 0
M  V30 31 C 6.74885 0.0586872 1.53699 0
M  V30 32 O 8.8262 0.254014 2.78138 0
M  V30 33 C 8.20298 0.407088 4.04271 0
M  V30 34 O 10.2054 -0.0315895 0.389595 0
M  V30 35 C 10.9512 -0.169981 -0.781873 0
M  V30 36 N 1.62138 0.435787 -2.68262 0
M  V30 37 H -7.39313 -1.89024 3.29539 0
M  V30 38 H -7.50258 -0.223921 3.91005 0
M  V30 39 H -8.78073 -1.45882 4.43116 0
M  V30 40 H -6.24975 -0.653152 2.14585 0
M  V30 41 H -6.32547 0.598075 -1.88054 0
M  V30 42 H -8.73371 0.588221 -1.84825 0
M  V30 43 H -11.0473 1.41332 -1.11997 0
M  V30 44 H -10.6333 -0.145735 -1.89357 0
M  V30 45 H -12.0552 -0.0528668 -0.844482 0
M  V30 46 H -4.19823 -0.218355 1.16419 0
M  V30 47 H -1.32476 1.39294 -3.12131 0
M  V30 48 H -1.96655 -0.251318 -3.34509 0
M  V30 49 H 4.19972 -0.272562 1.34579 0
M  V30 50 H 6.32167 -0.390695 -1.7836 0
M  V30 51 H 8.73301 -0.327409 -1.70019 0
M  V30 52 H 6.1803 0.166276 2.43787 0
M  V30 53 H 8.8547 0.94097 4.76367 0
M  V30 54 H 7.97529 -0.604502 4.43414 0
M  V30 55 H 7.2818 1.01573 3.92456 0
M  V30 56 H 10.8674 -1.17215 -1.23984 0
M  V30 57 H 10.5591 0.559903 -1.54923 0
M  V30 58 H 12.0136 0.085586 -0.643172 0
M  V30 59 H 2.13849 1.30318 -2.93659 0
M  V30 60 H 1.36377 -0.236883 -3.42006 0
M  V30 END ATOM
M  V30 BEGIN BOND
M  V30 1 1 1 2
M  V30 2 1 2 3
M  V30 3 2 3 4
M  V30 4 1 4 5
M  V30 5 2 5 6
M  V30 6 1 6 7
M  V30 7 2 7 8
M  V30 8 1 8 9
M  V30 9 1 9 10
M  V30 10 1 5 11
M  V30 11 1 11 12
M  V30 12 2 12 13
M  V30 13 1 12 14
M  V30 14 1 14 15
M  V30 15 1 15 16
M  V30 16 2 16 17
M  V30 17 1 17 18
M  V30 18 1 18 19
M  V30 19 1 17 20
M  V30 20 2 20 21
M  V30 21 1 21 22
M  V30 22 1 21 23
M  V30 23 2 23 24
M  V30 24 1 23 25
M  V30 25 1 25 26
M  V30 26 2 26 27
M  V30 27 1 27 28
M  V30 28 2 28 29
M  V30 29 1 29 30
M  V30 30 2 30 31
M  V30 31 1 30 32
M  V30 32 1 32 33
M  V30 33 1 29 34
M  V30 34 1 34 35
M  V30 35 1 20 36
M  V30 36 1 8 3
M  V30 37 2 18 14
M  V30 38 1 31 26
M  V30 39 1 22 16
M  V30 40 1 1 37
M  V30 41 1 1 38
M  V30 42 1 1 39
M  V30 43 1 4 40
M  V30 44 1 6 41
M  V30 45 1 7 42
M  V30 46 1 10 43
M  V30 47 1 10 44
M  V30 48 1 10 45
M  V30 49 1 11 46
M  V30 50 1 19 47
M  V30 51 1 19 48
M  V30 52 1 25 49
M  V30 53 1 27 50
M  V30 54 1 28 51
M  V30 55 1 31 52
M  V30 56 1 33 53
M  V30 57 1 33 54
M  V30 58 1 33 55
M  V30 59 1 35 56
M  V30 60 1 35 57
M  V30 61 1 35 58
M  V30 62 1 36 59
M  V30 63 1 36 60
M  V30 END BOND
M  V30 END CTAB
M  END
