
     RDKit          3D

  0  0  0  0  0  0  0  0  0  0999 V3000
M  V30 BEGIN CTAB
M  V30 COUNTS 30 31 0 0 0
M  V30 BEGIN ATOM
M  V30 1 N 1.62314 -1.91658 -0.853259 0
M  V30 2 C 1.71054 -0.59425 -0.342398 0
M  V30 3 N 0.660913 0.0760001 -0.0855003 0
M  V30 4 N -0.635376 -0.366095 -0.25866 0
M  V30 5 C -1.60057 0.384373 0.150797 0
M  V30 6 N -1.37007 1.63814 0.767606 0
M  V30 7 C -2.98401 -0.047451 -0.0140765 0
M  V30 8 C -3.30929 -1.25722 -0.605508 0
M  V30 9 C -4.59193 -1.68845 -0.773768 0
M  V30 10 C -5.62127 -0.881937 -0.334018 0
M  V30 11 C -5.30499 0.323517 0.25559 0
M  V30 12 N -4.02263 0.700398 0.396756 0
M  V30 13 C 3.01921 -0.00468487 -0.112272 0
M  V30 14 C 3.13645 1.28248 0.385044 0
M  V30 15 C 4.36419 1.85968 0.610234 0
M  V30 16 C 5.52049 1.16114 0.342612 0
M  V30 17 C 5.3764 -0.120697 -0.152698 0
M  V30 18 N 4.16644 -0.665773 -0.365451 0
M  V30 19 H 1.00421 -2.06397 -1.68074 0
M  V30 20 H 2.16688 -2.68613 -0.398459 0
M  V30 21 H -1.50809 2.49156 0.196744 0
M  V30 22 H -1.07394 1.65536 1.76019 0
M  V30 23 H -2.50582 -1.88169 -0.946232 0
M  V30 24 H -4.84474 -2.64644 -1.24228 0
M  V30 25 H -6.67139 -1.19615 -0.452405 0
M  V30 26 H -6.10327 0.953862 0.599054 0
M  V30 27 H 2.21576 1.8162 0.589454 0
M  V30 28 H 4.42775 2.85634 0.995257 0
M  V30 29 H 6.50906 1.54027 0.490858 0
M  V30 30 H 6.24597 -0.721797 -0.383231 0
M  V30 END ATOM
M  V30 BEGIN BOND
M  V30 1 1 1 2
M  V30 2 2 2 3 CFG=2
M  V30 3 1 3 4
M  V30 4 2 4 5 CFG=2
M  V30 5 1 5 6
M  V30 6 1 5 7
M  V30 7 2 7 8
M  V30 8 1 8 9
M  V30 9 2 9 10
M  V30 10 1 10 11
M  V30 11 2 11 12
M  V30 12 1 2 13
M  V30 13 2 13 14
M  V30 14 1 14 15
M  V30 15 2 15 16
M  V30 16 1 16 17
M  V30 17 2 17 18
M  V30 18 1 12 7
M  V30 19 1 18 13
M  V30 20 1 1 19
M  V30 21 1 1 20
M  V30 22 1 6 21
M  V30 23 1 6 22
M  V30 24 1 8 23
M  V30 25 1 9 24
M  V30 26 1 10 25
M  V30 27 1 11 26
M  V30 28 1 14 27
M  V30 29 1 15 28
M  V30 30 1 16 29
M  V30 31 1 17 30
M  V30 END BOND
M  V30 END CTAB
M  END
