
     RDKit          3D

  0  0  0  0  0  0  0  0  0  0999 V3000
M  V30 BEGIN CTAB
M  V30 COUNTS 40 42 0 0 0
M  V30 BEGIN ATOM
M  V30 1 N 6.23063 0.939061 0.019391 0
M  V30 2 C 4.87025 0.520557 -0.00835522 0
M  V30 3 C 4.52439 -0.804519 -0.0331503 0
M  V30 4 C 3.20866 -1.2007 -0.0636991 0
M  V30 5 C 2.13232 -0.290754 -0.0729903 0
M  V30 6 C 2.49782 1.02029 -0.0488988 0
M  V30 7 C 3.84495 1.43018 -0.0161619 0
M  V30 8 C 0.787143 -0.823541 -0.139361 0
M  V30 9 O 0.715716 -2.13476 -0.324819 0
M  V30 10 N -0.455463 -0.237959 -0.0467147 0
M  V30 11 C -1.60587 -1.10957 -0.202937 0
M  V30 12 C -1.91954 -1.68676 -1.3983 0
M  V30 13 C -3.02759 -2.5077 -1.54654 0
M  V30 14 C -3.79429 -2.71436 -0.43613 0
M  V30 15 C -3.52219 -2.16185 0.774643 0
M  V30 16 C -2.40393 -1.34419 0.887375 0
M  V30 17 N -4.93937 -3.55553 -0.582674 0
M  V30 18 C -0.766372 1.10479 0.217611 0
M  V30 19 C -0.749869 1.65265 1.51211 0
M  V30 20 C -1.10123 2.95253 1.77604 0
M  V30 21 C -1.49343 3.7862 0.745532 0
M  V30 22 C -1.5236 3.2918 -0.52919 0
M  V30 23 C -1.17108 1.98794 -0.79467 0
M  V30 24 H 6.82148 0.749278 -0.820046 0
M  V30 25 H 6.69197 1.42455 0.815434 0
M  V30 26 H 5.34332 -1.52165 -0.025662 0
M  V30 27 H 2.97707 -2.24767 -0.0788964 0
M  V30 28 H 1.7418 1.77681 -0.0724966 0
M  V30 29 H 4.0657 2.47599 0.00344606 0
M  V30 30 H -1.28412 -1.49657 -2.24545 0
M  V30 31 H -3.26807 -2.95101 -2.47632 0
M  V30 32 H -4.14152 -2.33916 1.63701 0
M  V30 33 H -2.21657 -0.92336 1.86756 0
M  V30 34 H -5.08459 -4.18578 -1.4008 0
M  V30 35 H -5.67719 -3.55861 0.144647 0
M  V30 36 H -0.449225 1.02875 2.33096 0
M  V30 37 H -1.06736 3.32112 2.80385 0
M  V30 38 H -1.75945 4.79915 1.00144 0
M  V30 39 H -1.83671 3.94575 -1.3572 0
M  V30 40 H -1.19459 1.58864 -1.81558 0
M  V30 END ATOM
M  V30 BEGIN BOND
M  V30 1 1 1 2
M  V30 2 2 2 3
M  V30 3 1 3 4
M  V30 4 2 4 5
M  V30 5 1 5 6
M  V30 6 2 6 7
M  V30 7 1 5 8
M  V30 8 2 8 9
M  V30 9 1 8 10
M  V30 10 1 10 11
M  V30 11 2 11 12
M  V30 12 1 12 13
M  V30 13 2 13 14
M  V30 14 1 14 15
M  V30 15 2 15 16
M  V30 16 1 14 17
M  V30 17 1 10 18
M  V30 18 2 18 19
M  V30 19 1 19 20
M  V30 20 2 20 21
M  V30 21 1 21 22
M  V30 22 2 22 23
M  V30 23 1 7 2
M  V30 24 1 16 11
M  V30 25 1 23 18
M  V30 26 1 1 24
M  V30 27 1 1 25
M  V30 28 1 3 26
M  V30 29 1 4 27
M  V30 30 1 6 28
M  V30 31 1 7 29
M  V30 32 1 12 30
M  V30 33 1 13 31
M  V30 34 1 15 32
M  V30 35 1 16 33
M  V30 36 1 17 34
M  V30 37 1 17 35
M  V30 38 1 19 36
M  V30 39 1 20 37
M  V30 40 1 21 38
M  V30 41 1 22 39
M  V30 42 1 23 40
M  V30 END BOND
M  V30 END CTAB
M  END
