
     RDKit          3D

  0  0  0  0  0  0  0  0  0  0999 V3000
M  V30 BEGIN CTAB
M  V30 COUNTS 47 50 0 0 0
M  V30 BEGIN ATOM
M  V30 1 N -5.02285 1.75718 -3.06756 0
M  V30 2 C -4.85759 0.46754 -2.51781 0
M  V30 3 C -4.6793 -0.621356 -3.35594 0
M  V30 4 Cl -4.66138 -0.381919 -5.09117 0
M  V30 5 C -4.51484 -1.88975 -2.87978 0
M  V30 6 C -4.52772 -2.0879 -1.50954 0
M  V30 7 C -4.70457 -1.00933 -0.67101 0
M  V30 8 C -4.86821 0.256772 -1.16371 0
M  V30 9 N -4.72147 -1.18865 0.745373 0
M  V30 10 N -5.75336 -1.41305 1.51595 0
M  V30 11 N -5.3499 -1.51942 2.76603 0
M  V30 12 N -4.04355 -1.36136 2.7977 0
M  V30 13 C -3.6413 -1.15452 1.54335 0
M  V30 14 C -2.25068 -0.929806 1.12572 0
M  V30 15 O -1.95871 -0.743709 -0.0728914 0
M  V30 16 N -1.19505 -0.917622 2.07541 0
M  V30 17 C 0.151018 -0.706306 1.72045 0
M  V30 18 N 0.508668 -0.501947 0.440099 0
M  V30 19 C 1.78306 -0.295653 0.0543841 0
M  V30 20 C 2.77956 -0.288909 0.998088 0
M  V30 21 C 2.4383 -0.499077 2.33679 0
M  V30 22 C 1.12784 -0.706689 2.69311 0
M  V30 23 C 4.17313 -0.0437136 0.669477 0
M  V30 24 C 4.57319 1.21486 0.274465 0
M  V30 25 C 5.92329 1.39617 -0.0591446 0
M  V30 26 C 6.80789 0.351948 0.00917207 0
M  V30 27 C 6.41622 -0.905726 0.403217 0
M  V30 28 C 5.09954 -1.09472 0.731025 0
M  V30 29 S 3.51446 2.57556 0.196477 0
M  V30 30 N 2.74531 2.88799 1.71689 0
M  V30 31 O 2.54583 2.5684 -0.937166 0
M  V30 32 O 4.38013 3.82129 -0.0501864 0
M  V30 33 H -5.79124 2.39558 -2.79486 0
M  V30 34 H -4.33046 2.07189 -3.78315 0
M  V30 35 H -4.37667 -2.72541 -3.56788 0
M  V30 36 H -4.39868 -3.08701 -1.11781 0
M  V30 37 H -5.00963 1.12344 -0.512798 0
M  V30 38 H -1.44472 -1.07328 3.07262 0
M  V30 39 H 1.99893 -0.158502 -1.01516 0
M  V30 40 H 3.17501 -0.506375 3.12625 0
M  V30 41 H 0.859907 -0.871953 3.7463 0
M  V30 42 H 6.28402 2.38077 -0.37954 0
M  V30 43 H 7.83896 0.497748 -0.247405 0
M  V30 44 H 7.12504 -1.74203 0.458271 0
M  V30 45 H 4.70791 -2.05797 1.05237 0
M  V30 46 H 1.79417 3.29642 1.59718 0
M  V30 47 H 3.35049 3.42011 2.36467 0
M  V30 END ATOM
M  V30 BEGIN BOND
M  V30 1 1 1 2
M  V30 2 2 2 3
M  V30 3 1 3 4
M  V30 4 1 3 5
M  V30 5 2 5 6
M  V30 6 1 6 7
M  V30 7 2 7 8
M  V30 8 1 7 9
M  V30 9 1 9 10
M  V30 10 2 10 11
M  V30 11 1 11 12
M  V30 12 2 12 13
M  V30 13 1 13 14
M  V30 14 2 14 15
M  V30 15 1 14 16
M  V30 16 1 16 17
M  V30 17 2 17 18
M  V30 18 1 18 19
M  V30 19 2 19 20
M  V30 20 1 20 21
M  V30 21 2 21 22
M  V30 22 1 20 23
M  V30 23 2 23 24
M  V30 24 1 24 25
M  V30 25 2 25 26
M  V30 26 1 26 27
M  V30 27 2 27 28
M  V30 28 1 24 29
M  V30 29 1 29 30
M  V30 30 2 29 31
M  V30 31 2 29 32
M  V30 32 1 8 2
M  V30 33 1 13 9
M  V30 34 1 22 17
M  V30 35 1 28 23
M  V30 36 1 1 33
M  V30 37 1 1 34
M  V30 38 1 5 35
M  V30 39 1 6 36
M  V30 40 1 8 37
M  V30 41 1 16 38
M  V30 42 1 19 39
M  V30 43 1 21 40
M  V30 44 1 22 41
M  V30 45 1 25 42
M  V30 46 1 26 43
M  V30 47 1 27 44
M  V30 48 1 28 45
M  V30 49 1 30 46
M  V30 50 1 30 47
M  V30 END BOND
M  V30 END CTAB
M  END
