
     RDKit          3D

  0  0  0  0  0  0  0  0  0  0999 V3000
M  V30 BEGIN CTAB
M  V30 COUNTS 27 26 0 0 0
M  V30 BEGIN ATOM
M  V30 1 C -1.66958 -0.970779 0.569008 0
M  V30 2 C -0.736126 0.164874 0.200194 0
M  V30 3 C -1.11399 0.541083 -1.24164 0
M  V30 4 C -1.08756 1.34482 1.04402 0
M  V30 5 C 0.699414 -0.231507 0.245323 0
M  V30 6 C 1.64961 0.88114 -0.122228 0
M  V30 7 N 1.58968 2.03255 0.711865 0
M  V30 8 C 1.03125 -1.4016 -0.634945 0
M  V30 9 N 0.331409 -2.60973 -0.331295 0
M  V30 10 H -1.31089 -1.59206 1.38993 0
M  V30 11 H -2.01276 -1.54061 -0.32899 0
M  V30 12 H -2.61205 -0.482528 0.943284 0
M  V30 13 H -1.04523 -0.359816 -1.84952 0
M  V30 14 H -2.19867 0.84456 -1.24565 0
M  V30 15 H -0.510575 1.39057 -1.56609 0
M  V30 16 H -2.1701 1.24924 1.34213 0
M  V30 17 H -0.956566 2.32715 0.549912 0
M  V30 18 H -0.530426 1.3425 1.99774 0
M  V30 19 H 0.970757 -0.530029 1.29141 0
M  V30 20 H 2.68807 0.449305 -0.00154178 0
M  V30 21 H 1.59241 1.13341 -1.20644 0
M  V30 22 H 1.33941 2.86997 0.106363 0
M  V30 23 H 2.49773 2.241 1.2109 0
M  V30 24 H 2.11814 -1.63415 -0.615152 0
M  V30 25 H 0.819264 -1.17722 -1.721 0
M  V30 26 H -0.126479 -3.07411 -1.1196 0
M  V30 27 H 0.753853 -3.20803 0.382009 0
M  V30 END ATOM
M  V30 BEGIN BOND
M  V30 1 1 1 2
M  V30 2 1 2 3
M  V30 3 1 2 4
M  V30 4 1 2 5
M  V30 5 1 5 6
M  V30 6 1 6 7
M  V30 7 1 5 8
M  V30 8 1 8 9
M  V30 9 1 1 10
M  V30 10 1 1 11
M  V30 11 1 1 12
M  V30 12 1 3 13
M  V30 13 1 3 14
M  V30 14 1 3 15
M  V30 15 1 4 16
M  V30 16 1 4 17
M  V30 17 1 4 18
M  V30 18 1 5 19
M  V30 19 1 6 20
M  V30 20 1 6 21
M  V30 21 1 7 22
M  V30 22 1 7 23
M  V30 23 1 8 24
M  V30 24 1 8 25
M  V30 25 1 9 26
M  V30 26 1 9 27
M  V30 END BOND
M  V30 END CTAB
M  END
