
     RDKit          3D

  0  0  0  0  0  0  0  0  0  0999 V3000
M  V30 BEGIN CTAB
M  V30 COUNTS 33 35 0 0 0
M  V30 BEGIN ATOM
M  V30 1 N 5.47318 1.3513 1.93745 0
M  V30 2 C 4.46767 0.473899 1.44717 0
M  V30 3 C 3.45109 0.957842 0.662831 0
M  V30 4 C 2.4798 0.0954116 0.192331 0
M  V30 5 C 2.50992 -1.23463 0.494804 0
M  V30 6 C 1.48394 -2.14776 0.0886179 0
M  V30 7 C 0.276032 -2.1191 -0.261436 0
M  V30 8 C -0.791294 -1.16826 -0.448981 0
M  V30 9 N -1.93796 -1.47504 -1.17678 0
M  V30 10 C -2.80019 -0.466191 -1.12306 0
M  V30 11 C -2.21924 0.505399 -0.35759 0
M  V30 12 N -0.997622 0.0416359 0.0355864 0
M  V30 13 C -2.90419 1.67634 -0.13681 0
M  V30 14 C -4.17535 1.85502 -0.694272 0
M  V30 15 C -4.7628 0.879725 -1.46489 0
M  V30 16 N -6.07487 1.07486 -2.03567 0
M  V30 17 C -4.07574 -0.287029 -1.68251 0
M  V30 18 C 3.56371 -1.70961 1.30117 0
M  V30 19 C 4.52194 -0.858734 1.76418 0
M  V30 20 H 5.80649 2.1337 1.31086 0
M  V30 21 H 5.90723 1.27844 2.87409 0
M  V30 22 H 3.41308 2.00611 0.416636 0
M  V30 23 H 1.72926 0.52239 -0.451505 0
M  V30 24 H 1.93988 -3.23786 0.0622705 0
M  V30 25 H -0.0989496 -3.23031 -0.506606 0
M  V30 26 H -0.342056 0.58041 0.659509 0
M  V30 27 H -2.43002 2.43525 0.471489 0
M  V30 28 H -4.72033 2.78119 -0.521279 0
M  V30 29 H -6.78854 0.330257 -2.086 0
M  V30 30 H -6.32363 2.01068 -2.41871 0
M  V30 31 H -4.4953 -1.07368 -2.27653 0
M  V30 32 H 3.57963 -2.75161 1.53623 0
M  V30 33 H 5.33523 -1.23003 2.38743 0
M  V30 END ATOM
M  V30 BEGIN BOND
M  V30 1 1 1 2
M  V30 2 2 2 3
M  V30 3 1 3 4
M  V30 4 2 4 5
M  V30 5 1 5 6
M  V30 6 2 6 7 CFG=2
M  V30 7 1 7 8
M  V30 8 2 8 9
M  V30 9 1 9 10
M  V30 10 2 10 11
M  V30 11 1 11 12
M  V30 12 1 11 13
M  V30 13 2 13 14
M  V30 14 1 14 15
M  V30 15 1 15 16
M  V30 16 2 15 17
M  V30 17 1 5 18
M  V30 18 2 18 19
M  V30 19 1 19 2
M  V30 20 1 12 8
M  V30 21 1 17 10
M  V30 22 1 1 20
M  V30 23 1 1 21
M  V30 24 1 3 22
M  V30 25 1 4 23
M  V30 26 1 6 24
M  V30 27 1 7 25
M  V30 28 1 12 26
M  V30 29 1 13 27
M  V30 30 1 14 28
M  V30 31 1 16 29
M  V30 32 1 16 30
M  V30 33 1 17 31
M  V30 34 1 18 32
M  V30 35 1 19 33
M  V30 END BOND
M  V30 END CTAB
M  END
