
     RDKit          3D

  0  0  0  0  0  0  0  0  0  0999 V3000
M  V30 BEGIN CTAB
M  V30 COUNTS 23 24 0 0 0
M  V30 BEGIN ATOM
M  V30 1 N 4.05273 -0.645661 -0.624264 0
M  V30 2 C 2.7432 -0.20497 -0.268839 0
M  V30 3 N 1.62263 -0.908734 -0.110245 0
M  V30 4 N 0.617393 -0.114895 0.223964 0
M  V30 5 C 1.13061 1.14083 0.277036 0
M  V30 6 N 2.44276 1.06877 -0.029363 0
M  V30 7 N 0.371654 2.29267 0.603792 0
M  V30 8 C -0.716231 -0.575875 0.463412 0
M  V30 9 C -1.18622 -1.59082 -0.535174 0
M  V30 10 O -2.53787 -1.46315 -0.692888 0
M  V30 11 C -2.97609 -0.331026 -0.0689034 0
M  V30 12 C -1.75844 0.526874 0.243357 0
M  V30 13 H 4.64215 -1.02908 0.14832 0
M  V30 14 H 4.45023 -0.614072 -1.5655 0
M  V30 15 H 0.108034 2.43791 1.60022 0
M  V30 16 H 0.05804 3.00654 -0.0853134 0
M  V30 17 H -0.865231 -0.965226 1.51074 0
M  V30 18 H -0.660084 -1.36543 -1.50699 0
M  V30 19 H -0.913976 -2.63114 -0.197256 0
M  V30 20 H -3.65503 0.299897 -0.703377 0
M  V30 21 H -3.55625 -0.550734 0.872986 0
M  V30 22 H -1.89321 1.14216 1.12799 0
M  V30 23 H -1.5208 1.07517 -0.683704 0
M  V30 END ATOM
M  V30 BEGIN BOND
M  V30 1 1 1 2
M  V30 2 2 2 3
M  V30 3 1 3 4
M  V30 4 1 4 5
M  V30 5 2 5 6
M  V30 6 1 5 7
M  V30 7 1 4 8
M  V30 8 1 8 9
M  V30 9 1 9 10
M  V30 10 1 10 11
M  V30 11 1 11 12
M  V30 12 1 6 2
M  V30 13 1 12 8
M  V30 14 1 1 13
M  V30 15 1 1 14
M  V30 16 1 7 15
M  V30 17 1 7 16
M  V30 18 1 8 17
M  V30 19 1 9 18
M  V30 20 1 9 19
M  V30 21 1 11 20
M  V30 22 1 11 21
M  V30 23 1 12 22
M  V30 24 1 12 23
M  V30 END BOND
M  V30 END CTAB
M  END
