
     RDKit          3D

  0  0  0  0  0  0  0  0  0  0999 V3000
M  V30 BEGIN CTAB
M  V30 COUNTS 47 49 0 0 0
M  V30 BEGIN ATOM
M  V30 1 C 6.45992 -0.224499 0.324962 0
M  V30 2 O 5.13491 -0.697355 0.171926 0
M  V30 3 C 4.10204 0.212755 -0.00591979 0
M  V30 4 C 4.3761 1.57212 -0.0320445 0
M  V30 5 C 3.35582 2.4801 -0.208205 0
M  V30 6 C 2.06056 1.99427 -0.356622 0
M  V30 7 C 1.73579 0.67551 -0.338789 0
M  V30 8 C 2.8007 -0.217263 -0.157843 0
M  V30 9 O 2.60377 -1.58931 -0.121806 0
M  V30 10 C 2.69567 -2.26847 -1.38463 0
M  V30 11 C 0.418122 0.0803264 -0.477081 0 CFG=2
M  V30 12 C -0.725927 0.969369 -0.756759 0
M  V30 13 N -1.71329 0.576247 0.248455 0
M  V30 14 C -0.918426 0.335213 1.43294 0
M  V30 15 C 0.109927 -0.635716 0.849361 0 CFG=1
M  V30 16 C -0.602867 -1.90255 0.628146 0
M  V30 17 O -0.883233 -2.27319 -0.535452 0
M  V30 18 O -0.958832 -2.67526 1.69983 0
M  V30 19 C -3.11113 0.440779 0.167362 0
M  V30 20 C -3.83989 0.681912 -0.978789 0
M  V30 21 C -5.2089 0.537438 -1.01733 0
M  V30 22 N -5.96839 0.783846 -2.1941 0
M  V30 23 N -5.82326 0.142999 0.132139 0
M  V30 24 C -5.13679 -0.0949872 1.25039 0
M  V30 25 N -3.81083 0.056215 1.24764 0
M  V30 26 N -5.79778 -0.502863 2.42705 0
M  V30 27 H 6.53237 0.496922 1.1808 0
M  V30 28 H 7.18755 -1.02562 0.459767 0
M  V30 29 H 6.76168 0.327156 -0.603705 0
M  V30 30 H 5.39988 1.94518 0.0858499 0
M  V30 31 H 3.56077 3.54771 -0.230357 0
M  V30 32 H 1.27523 2.71704 -0.494243 0
M  V30 33 H 3.78115 -2.53449 -1.54721 0
M  V30 34 H 2.0641 -3.17663 -1.40235 0
M  V30 35 H 2.45331 -1.56842 -2.20727 0
M  V30 36 H 0.419108 -0.763952 -1.22873 0
M  V30 37 H -0.584968 2.04923 -0.564411 0
M  V30 38 H -1.13171 0.7989 -1.78695 0
M  V30 39 H -0.402126 1.28384 1.68198 0
M  V30 40 H -1.4852 -0.105344 2.25354 0
M  V30 41 H 0.980489 -0.696619 1.50018 0
M  V30 42 H -0.232583 -3.16096 2.22716 0
M  V30 43 H -3.30528 0.98997 -1.85422 0
M  V30 44 H -6.89953 0.36694 -2.29599 0
M  V30 45 H -5.60354 1.38221 -2.96527 0
M  V30 46 H -5.3742 -0.380403 3.37365 0
M  V30 47 H -6.7503 -0.95028 2.40294 0
M  V30 END ATOM
M  V30 BEGIN BOND
M  V30 1 1 1 2
M  V30 2 1 2 3
M  V30 3 2 3 4
M  V30 4 1 4 5
M  V30 5 2 5 6
M  V30 6 1 6 7
M  V30 7 2 7 8
M  V30 8 1 8 9
M  V30 9 1 9 10
M  V30 10 1 7 11
M  V30 11 1 11 12
M  V30 12 1 12 13
M  V30 13 1 13 14
M  V30 14 1 14 15
M  V30 15 1 15 16
M  V30 16 2 16 17
M  V30 17 1 16 18
M  V30 18 1 13 19
M  V30 19 2 19 20
M  V30 20 1 20 21
M  V30 21 1 21 22
M  V30 22 2 21 23
M  V30 23 1 23 24
M  V30 24 2 24 25
M  V30 25 1 24 26
M  V30 26 1 8 3
M  V30 27 1 15 11
M  V30 28 1 25 19
M  V30 29 1 1 27
M  V30 30 1 1 28
M  V30 31 1 1 29
M  V30 32 1 4 30
M  V30 33 1 5 31
M  V30 34 1 6 32
M  V30 35 1 10 33
M  V30 36 1 10 34
M  V30 37 1 10 35
M  V30 38 1 11 36 CFG=3
M  V30 39 1 12 37
M  V30 40 1 12 38
M  V30 41 1 14 39
M  V30 42 1 14 40
M  V30 43 1 15 41 CFG=1
M  V30 44 1 18 42
M  V30 45 1 20 43
M  V30 46 1 22 44
M  V30 47 1 22 45
M  V30 48 1 26 46
M  V30 49 1 26 47
M  V30 END BOND
M  V30 END CTAB
M  END
