
     RDKit          3D

  0  0  0  0  0  0  0  0  0  0999 V3000
M  V30 BEGIN CTAB
M  V30 COUNTS 44 45 0 0 0
M  V30 BEGIN ATOM
M  V30 1 C -0.342 2.4185 -1.39701 0
M  V30 2 C -1.63998 1.75334 -1.17692 0
M  V30 3 C -1.71614 0.635177 -0.23663 0
M  V30 4 N -0.78508 0.104737 0.422205 0
M  V30 5 N 0.526657 0.441303 0.421866 0
M  V30 6 C 1.40803 -0.325707 -0.184265 0
M  V30 7 C 2.79461 0.0575995 -0.161881 0
M  V30 8 C 3.73801 -0.683003 -0.857343 0
M  V30 9 C 5.07539 -0.347717 -0.890402 0
M  V30 10 C 5.46458 0.778029 -0.192956 0
M  V30 11 C 4.56898 1.54311 0.510167 0
M  V30 12 C 3.22813 1.17008 0.518503 0
M  V30 13 N 2.35996 1.99607 1.28505 0
M  V30 14 Br 7.31035 1.31134 -0.190687 0
M  V30 15 C 0.890105 -1.53844 -0.836509 0
M  V30 16 C 1.44051 -2.82299 -0.257564 0
M  V30 17 C -3.07055 0.0454654 -0.0435661 0
M  V30 18 C -4.16404 0.543764 -0.718229 0
M  V30 19 C -5.40857 -0.0227717 -0.521928 0
M  V30 20 C -5.58543 -1.07935 0.336126 0
M  V30 21 C -4.48611 -1.56957 1.00536 0
M  V30 22 C -3.222 -1.00235 0.813013 0
M  V30 23 N -2.11282 -1.52001 1.51132 0
M  V30 24 Br -7.32427 -1.86686 0.606853 0
M  V30 25 H 0.322203 1.83129 -2.06481 0
M  V30 26 H 0.108975 2.79247 -0.478978 0
M  V30 27 H -0.51762 3.36763 -2.02629 0
M  V30 28 H -2.13934 1.42778 -2.12402 0
M  V30 29 H -2.34528 2.54818 -0.773782 0
M  V30 30 H 3.46383 -1.58523 -1.42816 0
M  V30 31 H 5.80166 -0.947644 -1.44614 0
M  V30 32 H 4.92493 2.4142 1.03894 0
M  V30 33 H 2.04702 2.93908 0.988128 0
M  V30 34 H 2.02364 1.61369 2.20599 0
M  V30 35 H 1.19929 -1.45106 -1.91904 0
M  V30 36 H -0.212638 -1.50017 -0.860563 0
M  V30 37 H 1.86347 -3.4425 -1.07808 0
M  V30 38 H 2.21454 -2.58062 0.499855 0
M  V30 39 H 0.607296 -3.4099 0.17737 0
M  V30 40 H -4.03929 1.38544 -1.40457 0
M  V30 41 H -6.24823 0.379091 -1.05637 0
M  V30 42 H -4.61842 -2.39529 1.67731 0
M  V30 43 H -1.52678 -2.28086 1.1282 0
M  V30 44 H -1.87759 -1.12532 2.43795 0
M  V30 END ATOM
M  V30 BEGIN BOND
M  V30 1 1 1 2
M  V30 2 1 2 3
M  V30 3 2 3 4
M  V30 4 1 4 5
M  V30 5 2 5 6
M  V30 6 1 6 7
M  V30 7 2 7 8
M  V30 8 1 8 9
M  V30 9 2 9 10
M  V30 10 1 10 11
M  V30 11 2 11 12
M  V30 12 1 12 13
M  V30 13 1 10 14
M  V30 14 1 6 15
M  V30 15 1 15 16
M  V30 16 1 3 17
M  V30 17 2 17 18
M  V30 18 1 18 19
M  V30 19 2 19 20
M  V30 20 1 20 21
M  V30 21 2 21 22
M  V30 22 1 22 23
M  V30 23 1 20 24
M  V30 24 1 12 7
M  V30 25 1 22 17
M  V30 26 1 1 25
M  V30 27 1 1 26
M  V30 28 1 1 27
M  V30 29 1 2 28
M  V30 30 1 2 29
M  V30 31 1 8 30
M  V30 32 1 9 31
M  V30 33 1 11 32
M  V30 34 1 13 33
M  V30 35 1 13 34
M  V30 36 1 15 35
M  V30 37 1 15 36
M  V30 38 1 16 37
M  V30 39 1 16 38
M  V30 40 1 16 39
M  V30 41 1 18 40
M  V30 42 1 19 41
M  V30 43 1 21 42
M  V30 44 1 23 43
M  V30 45 1 23 44
M  V30 END BOND
M  V30 END CTAB
M  END
