
     RDKit          3D

  0  0  0  0  0  0  0  0  0  0999 V3000
M  V30 BEGIN CTAB
M  V30 COUNTS 37 38 0 0 0
M  V30 BEGIN ATOM
M  V30 1 O 0.565357 0.628797 0.364361 0
M  V30 2 C 0.194716 -0.411947 -0.183011 0
M  V30 3 N -1.10487 -0.694896 -0.510594 0
M  V30 4 C -2.22669 0.123581 -0.293456 0
M  V30 5 C -2.20495 1.40065 0.194308 0
M  V30 6 C -3.35979 2.1734 0.398681 0
M  V30 7 C -4.59031 1.64717 0.102512 0
M  V30 8 C -4.66222 0.354156 -0.395463 0
M  V30 9 C -3.5177 -0.366739 -0.580777 0
M  V30 10 S -6.23186 -0.329622 -0.778178 0
M  V30 11 O -6.15982 -1.31334 -1.89898 0
M  V30 12 O -7.20593 0.74605 -1.16831 0
M  V30 13 N -6.86147 -1.12895 0.611155 0
M  V30 14 C 1.26238 -1.41062 -0.496006 0
M  V30 15 O 2.54564 -1.03166 -0.160448 0
M  V30 16 C 3.2819 0.0326084 -0.624973 0
M  V30 17 O 2.73715 0.779648 -1.47661 0
M  V30 18 C 4.64024 0.289161 -0.152308 0
M  V30 19 N 5.36298 1.32632 -0.602393 0
M  V30 20 C 6.6254 1.58804 -0.181215 0
M  V30 21 C 7.19054 0.747141 0.753632 0
M  V30 22 N 6.48595 -0.299605 1.22017 0
M  V30 23 C 5.21557 -0.544084 0.781626 0
M  V30 24 N 4.45806 -1.64529 1.26438 0
M  V30 25 H -1.29412 -1.63877 -0.98465 0
M  V30 26 H -1.2986 1.88657 0.4446 0
M  V30 27 H -3.25808 3.17356 0.787471 0
M  V30 28 H -5.49662 2.19613 0.241019 0
M  V30 29 H -3.60881 -1.38239 -0.974479 0
M  V30 30 H -7.3068 -0.475019 1.28224 0
M  V30 31 H -6.14809 -1.68778 1.1193 0
M  V30 32 H 1.2444 -1.69604 -1.56878 0
M  V30 33 H 1.00992 -2.33223 0.0681114 0
M  V30 34 H 7.1732 2.44889 -0.580569 0
M  V30 35 H 8.19516 0.960073 1.08517 0
M  V30 36 H 3.88646 -1.56189 2.13241 0
M  V30 37 H 4.46171 -2.55108 0.760063 0
M  V30 END ATOM
M  V30 BEGIN BOND
M  V30 1 2 1 2
M  V30 2 1 2 3
M  V30 3 1 3 4
M  V30 4 2 4 5
M  V30 5 1 5 6
M  V30 6 2 6 7
M  V30 7 1 7 8
M  V30 8 2 8 9
M  V30 9 1 8 10
M  V30 10 2 10 11
M  V30 11 2 10 12
M  V30 12 1 10 13
M  V30 13 1 2 14
M  V30 14 1 14 15
M  V30 15 1 15 16
M  V30 16 2 16 17
M  V30 17 1 16 18
M  V30 18 2 18 19
M  V30 19 1 19 20
M  V30 20 2 20 21
M  V30 21 1 21 22
M  V30 22 2 22 23
M  V30 23 1 23 24
M  V30 24 1 9 4
M  V30 25 1 23 18
M  V30 26 1 3 25
M  V30 27 1 5 26
M  V30 28 1 6 27
M  V30 29 1 7 28
M  V30 30 1 9 29
M  V30 31 1 13 30
M  V30 32 1 13 31
M  V30 33 1 14 32
M  V30 34 1 14 33
M  V30 35 1 20 34
M  V30 36 1 21 35
M  V30 37 1 24 36
M  V30 38 1 24 37
M  V30 END BOND
M  V30 END CTAB
M  END
