
     RDKit          3D

  0  0  0  0  0  0  0  0  0  0999 V3000
M  V30 BEGIN CTAB
M  V30 COUNTS 29 30 0 0 0
M  V30 BEGIN ATOM
M  V30 1 N -5.15723 -2.15436 -1.39866 0
M  V30 2 C -4.22433 -1.24182 -0.822434 0
M  V30 3 C -4.63835 -0.133115 -0.117902 0
M  V30 4 C -3.72251 0.745172 0.436627 0
M  V30 5 N -4.17382 1.88369 1.16017 0
M  V30 6 N -2.42393 0.465773 0.255641 0
M  V30 7 C -2.00094 -0.605872 -0.42541 0
M  V30 8 S -0.279413 -0.991956 -0.67533 0
M  V30 9 C 0.802364 0.183403 0.0671083 0
M  V30 10 O 0.319732 1.1593 0.687563 0
M  V30 11 C 2.23289 -0.00547726 -0.0568578 0
M  V30 12 C 3.07458 0.910039 0.521483 0
M  V30 13 C 4.44677 0.743482 0.411887 0
M  V30 14 C 4.97728 -0.318688 -0.263421 0
M  V30 15 C 4.14508 -1.24815 -0.850637 0
M  V30 16 C 2.77898 -1.0686 -0.732813 0
M  V30 17 N 5.26488 1.70888 1.02198 0 CHG=1
M  V30 18 O 6.62872 1.5833 0.938513 0 CHG=-1
M  V30 19 O 4.82022 2.68961 1.64532 0
M  V30 20 N -2.90542 -1.44176 -0.953071 0
M  V30 21 H -5.42351 -2.11971 -2.41723 0
M  V30 22 H -5.57364 -2.86955 -0.76489 0
M  V30 23 H -5.69494 0.0730849 0.0159545 0
M  V30 24 H -3.62091 2.75876 1.26185 0
M  V30 25 H -5.10375 1.85182 1.61594 0
M  V30 26 H 2.67626 1.77422 1.07082 0
M  V30 27 H 6.0671 -0.454609 -0.352757 0
M  V30 28 H 4.57768 -2.08345 -1.38175 0
M  V30 29 H 2.13015 -1.79342 -1.19073 0
M  V30 END ATOM
M  V30 BEGIN BOND
M  V30 1 1 1 2
M  V30 2 2 2 3
M  V30 3 1 3 4
M  V30 4 1 4 5
M  V30 5 2 4 6
M  V30 6 1 6 7
M  V30 7 1 7 8
M  V30 8 1 8 9
M  V30 9 2 9 10
M  V30 10 1 9 11
M  V30 11 2 11 12
M  V30 12 1 12 13
M  V30 13 2 13 14
M  V30 14 1 14 15
M  V30 15 2 15 16
M  V30 16 1 13 17
M  V30 17 1 17 18
M  V30 18 2 17 19
M  V30 19 2 7 20
M  V30 20 1 20 2
M  V30 21 1 16 11
M  V30 22 1 1 21
M  V30 23 1 1 22
M  V30 24 1 3 23
M  V30 25 1 5 24
M  V30 26 1 5 25
M  V30 27 1 12 26
M  V30 28 1 14 27
M  V30 29 1 15 28
M  V30 30 1 16 29
M  V30 END BOND
M  V30 END CTAB
M  END
