
     RDKit          3D

  0  0  0  0  0  0  0  0  0  0999 V3000
M  V30 BEGIN CTAB
M  V30 COUNTS 51 54 0 0 0
M  V30 BEGIN ATOM
M  V30 1 C -3.33129 -2.15796 1.11326 0
M  V30 2 C -1.95915 -1.62955 1.42562 0
M  V30 3 C -1.93992 -0.133114 1.51913 0
M  V30 4 N -2.34236 0.527704 0.316478 0
M  V30 5 C -3.57006 0.945901 -0.0260179 0
M  V30 6 N -3.43999 1.49246 -1.26129 0
M  V30 7 C -2.17247 1.41365 -1.66598 0
M  V30 8 C -1.45247 0.80265 -0.677701 0
M  V30 9 N -0.135692 0.598566 -0.834696 0
M  V30 10 C 0.54469 0.965642 -1.93214 0
M  V30 11 N 1.97345 0.723449 -2.05751 0
M  V30 12 C 2.60785 0.0805278 -0.961648 0
M  V30 13 C 4.0295 -0.143037 -1.12422 0
M  V30 14 C 4.75078 0.21785 -2.22706 0
M  V30 15 C 6.12869 -0.0245536 -2.32936 0
M  V30 16 C 6.74552 -0.643317 -1.27751 0
M  V30 17 C 6.04698 -1.02944 -0.130658 0
M  V30 18 C 4.69999 -0.770509 -0.0778828 0
M  V30 19 C 3.93491 -1.16254 1.11215 0
M  V30 20 N 4.78019 -1.80638 2.11424 0
M  V30 21 N -0.161898 1.56683 -2.90545 0
M  V30 22 C -1.47527 1.79414 -2.79993 0
M  V30 23 N -2.15731 2.4289 -3.85679 0
M  V30 24 N -4.80472 0.879771 0.705691 0
M  V30 25 C -5.08824 1.27 1.95514 0
M  V30 26 C -6.40675 1.02231 2.23904 0
M  V30 27 C -6.92719 0.455552 1.09379 0
M  V30 28 N -5.93484 0.385842 0.193677 0
M  V30 29 H -3.31018 -3.27857 1.18892 0
M  V30 30 H -3.59819 -1.84296 0.0824356 0
M  V30 31 H -4.02733 -1.81204 1.89065 0
M  V30 32 H -1.6636 -2.09333 2.40272 0
M  V30 33 H -1.25906 -1.96592 0.619042 0
M  V30 34 H -0.911378 0.239677 1.78647 0
M  V30 35 H -2.58046 0.184211 2.38901 0
M  V30 36 H 2.38077 1.04898 -2.94188 0
M  V30 37 H 2.1307 -0.952089 -0.895916 0
M  V30 38 H 2.33575 0.530581 0.0273004 0
M  V30 39 H 4.26503 0.712707 -3.07169 0
M  V30 40 H 6.63279 0.286554 -3.22686 0
M  V30 41 H 7.7994 -0.848996 -1.31216 0
M  V30 42 H 6.6006 -1.51774 0.669156 0
M  V30 43 H 3.57302 -0.217255 1.60083 0
M  V30 44 H 3.02645 -1.74725 0.889844 0
M  V30 45 H 4.24352 -2.1701 2.90719 0
M  V30 46 H 5.45571 -1.07866 2.43776 0
M  V30 47 H -2.38141 1.92095 -4.7211 0
M  V30 48 H -2.43442 3.42093 -3.75641 0
M  V30 49 H -4.3744 1.71636 2.62808 0
M  V30 50 H -6.88978 1.24385 3.18025 0
M  V30 51 H -7.95645 0.148782 1.01123 0
M  V30 END ATOM
M  V30 BEGIN BOND
M  V30 1 1 1 2
M  V30 2 1 2 3
M  V30 3 1 3 4
M  V30 4 1 4 5
M  V30 5 2 5 6
M  V30 6 1 6 7
M  V30 7 2 7 8
M  V30 8 1 8 9
M  V30 9 2 9 10
M  V30 10 1 10 11
M  V30 11 1 11 12
M  V30 12 1 12 13
M  V30 13 2 13 14
M  V30 14 1 14 15
M  V30 15 2 15 16
M  V30 16 1 16 17
M  V30 17 2 17 18
M  V30 18 1 18 19
M  V30 19 1 19 20
M  V30 20 1 10 21
M  V30 21 2 21 22
M  V30 22 1 22 23
M  V30 23 1 5 24
M  V30 24 1 24 25
M  V30 25 2 25 26
M  V30 26 1 26 27
M  V30 27 2 27 28
M  V30 28 1 8 4
M  V30 29 1 18 13
M  V30 30 1 28 24
M  V30 31 1 22 7
M  V30 32 1 1 29
M  V30 33 1 1 30
M  V30 34 1 1 31
M  V30 35 1 2 32
M  V30 36 1 2 33
M  V30 37 1 3 34
M  V30 38 1 3 35
M  V30 39 1 11 36
M  V30 40 1 12 37
M  V30 41 1 12 38
M  V30 42 1 14 39
M  V30 43 1 15 40
M  V30 44 1 16 41
M  V30 45 1 17 42
M  V30 46 1 19 43
M  V30 47 1 19 44
M  V30 48 1 20 45
M  V30 49 1 20 46
M  V30 50 1 23 47
M  V30 51 1 23 48
M  V30 52 1 25 49
M  V30 53 1 26 50
M  V30 54 1 27 51
M  V30 END BOND
M  V30 END CTAB
M  END
