
     RDKit          3D

  0  0  0  0  0  0  0  0  0  0999 V3000
M  V30 BEGIN CTAB
M  V30 COUNTS 21 21 0 0 0
M  V30 BEGIN ATOM
M  V30 1 C -3.41932 0.798371 0.381618 0
M  V30 2 C -2.46079 -0.240392 -0.16736 0
M  V30 3 C -1.15231 -0.257797 0.559585 0
M  V30 4 S -0.180239 1.24099 0.471661 0
M  V30 5 C 1.49918 0.866772 -0.0108394 0
M  V30 6 N 2.03022 0.762952 -1.201 0
M  V30 7 N 3.24954 0.478212 -1.34888 0
M  V30 8 C 4.0276 0.27424 -0.278754 0
M  V30 9 S 2.87484 0.522391 0.98128 0
M  V30 10 N 5.41697 -0.0482859 -0.177091 0
M  V30 11 N -3.07058 -1.56062 0.0852509 0
M  V30 12 H -3.45785 1.72787 -0.208664 0
M  V30 13 H -3.14376 0.943454 1.45229 0
M  V30 14 H -4.42853 0.354778 0.404048 0
M  V30 15 H -2.28377 -0.0762379 -1.23673 0
M  V30 16 H -0.516654 -1.08491 0.103277 0
M  V30 17 H -1.2234 -0.546868 1.62908 0
M  V30 18 H 6.0253 0.609089 0.347416 0
M  V30 19 H 5.83571 -0.89737 -0.593036 0
M  V30 20 H -2.33871 -2.31049 -0.0132298 0
M  V30 21 H -3.28344 -1.55615 1.12431 0
M  V30 END ATOM
M  V30 BEGIN BOND
M  V30 1 1 1 2
M  V30 2 1 2 3
M  V30 3 1 3 4
M  V30 4 1 4 5
M  V30 5 2 5 6
M  V30 6 1 6 7
M  V30 7 2 7 8
M  V30 8 1 8 9
M  V30 9 1 8 10
M  V30 10 1 2 11
M  V30 11 1 9 5
M  V30 12 1 1 12
M  V30 13 1 1 13
M  V30 14 1 1 14
M  V30 15 1 2 15
M  V30 16 1 3 16
M  V30 17 1 3 17
M  V30 18 1 10 18
M  V30 19 1 10 19
M  V30 20 1 11 20
M  V30 21 1 11 21
M  V30 END BOND
M  V30 END CTAB
M  END
