
     RDKit          3D

  0  0  0  0  0  0  0  0  0  0999 V3000
M  V30 BEGIN CTAB
M  V30 COUNTS 41 43 0 0 0
M  V30 BEGIN ATOM
M  V30 1 C 6.36744 -0.526937 -0.892866 0
M  V30 2 S 5.79766 0.100057 0.653232 0
M  V30 3 O 6.44675 1.44244 0.898036 0
M  V30 4 O 6.28088 -0.800889 1.77182 0
M  V30 5 C 4.06723 0.208486 0.752435 0
M  V30 6 C 3.42167 1.36736 0.364853 0
M  V30 7 C 2.06459 1.40083 0.463365 0
M  V30 8 C 1.28381 0.344273 0.929075 0
M  V30 9 N -0.13492 0.458291 1.03363 0
M  V30 10 N -0.796616 0.67552 2.18307 0
M  V30 11 C -2.11157 0.752844 1.9733 0
M  V30 12 C -2.34594 0.580672 0.629959 0
M  V30 13 C -3.63483 0.577901 -0.0517947 0
M  V30 14 O -3.82198 0.377284 -1.25918 0
M  V30 15 N -4.79521 0.835281 0.772183 0
M  V30 16 C -5.86665 0.1793 0.494944 0
M  V30 17 N -7.03879 0.410921 1.29418 0
M  V30 18 N -5.93545 -0.761771 -0.566296 0
M  V30 19 C -1.05742 0.395888 0.0697491 0
M  V30 20 C -0.902994 0.20133 -1.37999 0
M  V30 21 C 0.262527 -0.317562 -2.07589 0
M  V30 22 C -0.893956 -1.24873 -1.88712 0
M  V30 23 C 1.94993 -0.823263 1.31812 0
M  V30 24 Cl 1.01095 -2.18777 1.91322 0
M  V30 25 C 3.32326 -0.870298 1.22346 0
M  V30 26 H 5.5715 -0.756574 -1.6078 0
M  V30 27 H 6.97459 -1.46617 -0.738431 0
M  V30 28 H 7.07431 0.176473 -1.39906 0
M  V30 29 H 4.0111 2.20062 -0.000437996 0
M  V30 30 H 1.56713 2.33185 0.150251 0
M  V30 31 H -2.91052 0.922959 2.71197 0
M  V30 32 H -7.7615 -0.320734 1.36352 0
M  V30 33 H -7.14384 1.31104 1.79102 0
M  V30 34 H -5.76438 -1.79048 -0.429906 0
M  V30 35 H -6.16759 -0.403853 -1.52336 0
M  V30 36 H -1.58479 0.896668 -1.96603 0
M  V30 37 H 0.412849 0.0840359 -3.12904 0
M  V30 38 H 1.18986 -0.637973 -1.63768 0
M  V30 39 H -0.772605 -2.04433 -1.11626 0
M  V30 40 H -1.46307 -1.49024 -2.7917 0
M  V30 41 H 3.82661 -1.78475 1.52963 0
M  V30 END ATOM
M  V30 BEGIN BOND
M  V30 1 1 1 2
M  V30 2 2 2 3
M  V30 3 2 2 4
M  V30 4 1 2 5
M  V30 5 2 5 6
M  V30 6 1 6 7
M  V30 7 2 7 8
M  V30 8 1 8 9
M  V30 9 1 9 10
M  V30 10 2 10 11
M  V30 11 1 11 12
M  V30 12 1 12 13
M  V30 13 2 13 14
M  V30 14 1 13 15
M  V30 15 2 15 16
M  V30 16 1 16 17
M  V30 17 1 16 18
M  V30 18 2 12 19
M  V30 19 1 19 20
M  V30 20 1 20 21
M  V30 21 1 21 22
M  V30 22 1 8 23
M  V30 23 1 23 24
M  V30 24 2 23 25
M  V30 25 1 25 5
M  V30 26 1 19 9
M  V30 27 1 22 20
M  V30 28 1 1 26
M  V30 29 1 1 27
M  V30 30 1 1 28
M  V30 31 1 6 29
M  V30 32 1 7 30
M  V30 33 1 11 31
M  V30 34 1 17 32
M  V30 35 1 17 33
M  V30 36 1 18 34
M  V30 37 1 18 35
M  V30 38 1 20 36
M  V30 39 1 21 37
M  V30 40 1 21 38
M  V30 41 1 22 39
M  V30 42 1 22 40
M  V30 43 1 25 41
M  V30 END BOND
M  V30 END CTAB
M  END
