
     RDKit          3D

  0  0  0  0  0  0  0  0  0  0999 V3000
M  V30 BEGIN CTAB
M  V30 COUNTS 26 26 0 0 0
M  V30 BEGIN ATOM
M  V30 1 C 3.74815 -0.605794 -0.53888 0
M  V30 2 C 3.33681 0.218297 0.662947 0
M  V30 3 O 2.0092 0.612811 0.488628 0
M  V30 4 C 0.957047 -0.24773 0.350857 0
M  V30 5 O 1.19033 -1.48326 0.381864 0
M  V30 6 C -0.415559 0.239299 0.170606 0
M  V30 7 C -0.677891 1.58077 0.135772 0
M  V30 8 C 0.367087 2.59084 0.272568 0
M  V30 9 N 1.17781 3.412 0.378717 0
M  V30 10 C -1.99975 2.00842 -0.037807 0
M  V30 11 C -3.01045 1.09128 -0.170141 0
M  V30 12 C -2.75334 -0.262774 -0.135984 0
M  V30 13 C -1.46039 -0.66862 0.0337937 0
M  V30 14 N -1.1051 -2.03773 0.0808373 0
M  V30 15 N -3.82328 -1.2128 -0.27608 0
M  V30 16 H 3.15608 -0.247112 -1.40422 0
M  V30 17 H 3.55582 -1.66815 -0.286159 0
M  V30 18 H 4.85016 -0.536952 -0.716081 0
M  V30 19 H 3.52178 -0.353834 1.59617 0
M  V30 20 H 3.94908 1.16408 0.725025 0
M  V30 21 H -2.179 3.07706 -0.0616524 0
M  V30 22 H -4.02649 1.47118 -0.303574 0
M  V30 23 H -0.942629 -2.56863 -0.78552 0
M  V30 24 H -1.0129 -2.49049 1.00218 0
M  V30 25 H -4.78239 -0.881955 -0.13145 0
M  V30 26 H -3.63017 -2.20021 -0.51562 0
M  V30 END ATOM
M  V30 BEGIN BOND
M  V30 1 1 1 2
M  V30 2 1 2 3
M  V30 3 1 3 4
M  V30 4 2 4 5
M  V30 5 1 4 6
M  V30 6 2 6 7
M  V30 7 1 7 8
M  V30 8 3 8 9
M  V30 9 1 7 10
M  V30 10 2 10 11
M  V30 11 1 11 12
M  V30 12 2 12 13
M  V30 13 1 13 14
M  V30 14 1 12 15
M  V30 15 1 13 6
M  V30 16 1 1 16
M  V30 17 1 1 17
M  V30 18 1 1 18
M  V30 19 1 2 19
M  V30 20 1 2 20
M  V30 21 1 10 21
M  V30 22 1 11 22
M  V30 23 1 14 23
M  V30 24 1 14 24
M  V30 25 1 15 25
M  V30 26 1 15 26
M  V30 END BOND
M  V30 END CTAB
M  END
