
     RDKit          3D

  0  0  0  0  0  0  0  0  0  0999 V3000
M  V30 BEGIN CTAB
M  V30 COUNTS 32 32 0 0 0
M  V30 BEGIN ATOM
M  V30 1 N 2.3117 1.6279 0.172653 0
M  V30 2 C 0.953463 1.43932 -0.374732 0
M  V30 3 C 0.600812 0.0137207 -0.141719 0
M  V30 4 C 1.63768 -0.860412 -0.872693 0
M  V30 5 C 2.35576 -1.16025 0.420433 0
M  V30 6 C 1.22296 -0.477239 1.15701 0
M  V30 7 C -0.748631 -0.492277 -0.446273 0
M  V30 8 C -1.91163 0.09505 0.243148 0
M  V30 9 N -2.14749 1.49022 0.069642 0
M  V30 10 C -1.95022 -0.229999 1.73614 0
M  V30 11 O -0.754066 -1.87297 -0.11324 0
M  V30 12 C -0.963643 -0.443056 -1.94667 0
M  V30 13 H 2.91066 2.19822 -0.457746 0
M  V30 14 H 2.29428 2.06032 1.10372 0
M  V30 15 H 1.05518 1.70206 -1.4538 0
M  V30 16 H 0.331882 2.13346 0.185464 0
M  V30 17 H 1.22848 -1.79722 -1.28963 0
M  V30 18 H 2.22041 -0.338752 -1.63494 0
M  V30 19 H 2.43713 -2.26005 0.664569 0
M  V30 20 H 3.35088 -0.716391 0.54316 0
M  V30 21 H 1.57801 0.298886 1.83805 0
M  V30 22 H 0.606507 -1.22449 1.70547 0
M  V30 23 H -2.82448 -0.431652 -0.171229 0
M  V30 24 H -2.93878 1.71337 -0.581402 0
M  V30 25 H -2.3709 1.95798 0.975535 0
M  V30 26 H -1.19845 0.407075 2.23521 0
M  V30 27 H -1.78463 -1.31408 1.8794 0
M  V30 28 H -2.93391 0.0496077 2.16696 0
M  V30 29 H -1.54808 -2.31331 -0.540255 0
M  V30 30 H -1.9792 -0.0961952 -2.22026 0
M  V30 31 H -0.816037 -1.42499 -2.43358 0
M  V30 32 H -0.225665 0.266146 -2.41842 0
M  V30 END ATOM
M  V30 BEGIN BOND
M  V30 1 1 1 2
M  V30 2 1 2 3
M  V30 3 1 3 4
M  V30 4 1 4 5
M  V30 5 1 5 6
M  V30 6 1 3 7
M  V30 7 1 7 8
M  V30 8 1 8 9
M  V30 9 1 8 10
M  V30 10 1 7 11
M  V30 11 1 7 12
M  V30 12 1 6 3
M  V30 13 1 1 13
M  V30 14 1 1 14
M  V30 15 1 2 15
M  V30 16 1 2 16
M  V30 17 1 4 17
M  V30 18 1 4 18
M  V30 19 1 5 19
M  V30 20 1 5 20
M  V30 21 1 6 21
M  V30 22 1 6 22
M  V30 23 1 8 23
M  V30 24 1 9 24
M  V30 25 1 9 25
M  V30 26 1 10 26
M  V30 27 1 10 27
M  V30 28 1 10 28
M  V30 29 1 11 29
M  V30 30 1 12 30
M  V30 31 1 12 31
M  V30 32 1 12 32
M  V30 END BOND
M  V30 END CTAB
M  END
