
     RDKit          3D

  0  0  0  0  0  0  0  0  0  0999 V3000
M  V30 BEGIN CTAB
M  V30 COUNTS 32 32 0 0 0
M  V30 BEGIN ATOM
M  V30 1 N -4.13698 -0.432207 0.844611 0
M  V30 2 C -2.77287 -0.793046 0.608958 0
M  V30 3 C -1.89496 0.397711 0.226036 0
M  V30 4 N -0.570182 0.0367111 -0.00886637 0
M  V30 5 C 0.198869 -0.49446 1.07468 0
M  V30 6 C 1.17146 -1.46975 0.425212 0
M  V30 7 N 1.99518 -0.85664 -0.535285 0
M  V30 8 C 1.47452 0.195227 -1.32649 0
M  V30 9 C 0.244111 0.871658 -0.802697 0
M  V30 10 S 3.59203 -0.636208 0.015569 0
M  V30 11 O 4.58474 -1.26123 -0.922161 0
M  V30 12 O 3.74978 -1.36181 1.34142 0
M  V30 13 N 4.03552 0.998252 0.238707 0
M  V30 14 C -2.58351 1.10458 -0.904961 0
M  V30 15 H -4.29905 0.528449 1.16732 0
M  V30 16 H -4.76836 -0.735917 0.0521377 0
M  V30 17 H -2.65029 -1.51951 -0.219879 0
M  V30 18 H -2.377 -1.24597 1.53586 0
M  V30 19 H -1.99011 1.08509 1.12813 0
M  V30 20 H 0.833027 0.327055 1.5219 0
M  V30 21 H -0.397714 -0.997877 1.86158 0
M  V30 22 H 1.78086 -1.94248 1.23838 0
M  V30 23 H 0.5337 -2.26666 -0.031931 0
M  V30 24 H 2.25652 0.960655 -1.50417 0
M  V30 25 H 1.21265 -0.216429 -2.33231 0
M  V30 26 H -0.309351 1.35406 -1.66392 0
M  V30 27 H 0.580148 1.73495 -0.182207 0
M  V30 28 H 4.11835 1.5509 -0.62966 0
M  V30 29 H 4.79274 1.15118 0.922634 0
M  V30 30 H -3.68322 1.07479 -0.689729 0
M  V30 31 H -2.30747 2.18343 -0.839982 0
M  V30 32 H -2.41315 0.675486 -1.89706 0
M  V30 END ATOM
M  V30 BEGIN BOND
M  V30 1 1 1 2
M  V30 2 1 2 3
M  V30 3 1 3 4
M  V30 4 1 4 5
M  V30 5 1 5 6
M  V30 6 1 6 7
M  V30 7 1 7 8
M  V30 8 1 8 9
M  V30 9 1 7 10
M  V30 10 2 10 11
M  V30 11 2 10 12
M  V30 12 1 10 13
M  V30 13 1 3 14
M  V30 14 1 9 4
M  V30 15 1 1 15
M  V30 16 1 1 16
M  V30 17 1 2 17
M  V30 18 1 2 18
M  V30 19 1 3 19
M  V30 20 1 5 20
M  V30 21 1 5 21
M  V30 22 1 6 22
M  V30 23 1 6 23
M  V30 24 1 8 24
M  V30 25 1 8 25
M  V30 26 1 9 26
M  V30 27 1 9 27
M  V30 28 1 13 28
M  V30 29 1 13 29
M  V30 30 1 14 30
M  V30 31 1 14 31
M  V30 32 1 14 32
M  V30 END BOND
M  V30 END CTAB
M  END
