
     RDKit          3D

  0  0  0  0  0  0  0  0  0  0999 V3000
M  V30 BEGIN CTAB
M  V30 COUNTS 52 54 0 0 0
M  V30 BEGIN ATOM
M  V30 1 N 9.62917 -0.0494613 1.32083 0
M  V30 2 C 8.31814 0.144456 0.748983 0
M  V30 3 N 7.21826 0.00718106 1.50968 0
M  V30 4 C 5.98342 0.183594 0.996017 0
M  V30 5 N 4.81439 0.0681814 1.81022 0
M  V30 6 C 5.78563 0.511438 -0.326763 0
M  V30 7 C 4.67675 0.748758 -1.10911 0
M  V30 8 C 3.2389 0.675801 -0.765281 0
M  V30 9 C 2.64088 -0.684472 -0.815319 0
M  V30 10 C 1.1958 -0.586464 -0.436511 0
M  V30 11 C 0.8169 -0.733267 0.877019 0
M  V30 12 C -0.514097 -0.642935 1.2097 0
M  V30 13 C -1.49808 -0.40535 0.247713 0
M  V30 14 C -1.06577 -0.265218 -1.05211 0
M  V30 15 C 0.255383 -0.351184 -1.40836 0
M  V30 16 C -2.89131 -0.330551 0.615685 0
M  V30 17 O -3.26001 -0.781941 1.73859 0
M  V30 18 N -3.84137 0.230725 -0.247645 0
M  V30 19 C -5.28891 0.311413 0.102358 0
M  V30 20 C -6.04415 -0.412503 -0.957815 0
M  V30 21 C -7.51843 -0.496853 -0.821209 0
M  V30 22 C -7.95874 -1.20615 0.389083 0
M  V30 23 O -8.83895 -2.31018 0.25616 0
M  V30 24 O -7.62581 -0.927561 1.5496 0
M  V30 25 C -5.59826 1.75051 0.207611 0
M  V30 26 O -6.87132 2.17171 0.534538 0
M  V30 27 O -4.72951 2.61494 0.00681395 0
M  V30 28 C 5.22181 1.03565 -2.37293 0
M  V30 29 O 6.52442 0.962654 -2.29959 0
M  V30 30 C 6.93735 0.650005 -1.09479 0
M  V30 31 N 8.16381 0.464746 -0.544037 0
M  V30 32 H 10.0319 0.732562 1.89833 0
M  V30 33 H 10.1831 -0.906685 1.19333 0
M  V30 34 H 4.3731 -0.826243 2.07126 0
M  V30 35 H 4.42617 1.00422 2.13543 0
M  V30 36 H 2.70797 1.28608 -1.55282 0
M  V30 37 H 3.0054 1.20806 0.18113 0
M  V30 38 H 3.09121 -1.36859 -0.0865347 0
M  V30 39 H 2.7423 -1.12246 -1.83798 0
M  V30 40 H 1.56142 -0.924031 1.66736 0
M  V30 41 H -0.845099 -0.753726 2.23801 0
M  V30 42 H -1.82521 -0.076622 -1.82601 0
M  V30 43 H 0.518684 -0.229909 -2.46288 0
M  V30 44 H -3.61496 0.625133 -1.17778 0
M  V30 45 H -5.37638 -0.19637 1.07923 0
M  V30 46 H -5.65363 -1.46036 -1.09576 0
M  V30 47 H -5.83855 0.073586 -1.9625 0
M  V30 48 H -8.02353 0.495327 -0.799667 0
M  V30 49 H -7.90977 -0.995535 -1.74549 0
M  V30 50 H -8.66783 -3.1607 0.787916 0
M  V30 51 H -7.34516 2.97771 0.147572 0
M  V30 52 H 4.5825 1.27087 -3.22113 0
M  V30 END ATOM
M  V30 BEGIN BOND
M  V30 1 1 1 2
M  V30 2 2 2 3
M  V30 3 1 3 4
M  V30 4 1 4 5
M  V30 5 2 4 6
M  V30 6 1 6 7
M  V30 7 1 7 8
M  V30 8 1 8 9
M  V30 9 1 9 10
M  V30 10 2 10 11
M  V30 11 1 11 12
M  V30 12 2 12 13
M  V30 13 1 13 14
M  V30 14 2 14 15
M  V30 15 1 13 16
M  V30 16 2 16 17
M  V30 17 1 16 18
M  V30 18 1 18 19
M  V30 19 1 19 20
M  V30 20 1 20 21
M  V30 21 1 21 22
M  V30 22 1 22 23
M  V30 23 2 22 24
M  V30 24 1 19 25
M  V30 25 1 25 26
M  V30 26 2 25 27
M  V30 27 2 7 28
M  V30 28 1 28 29
M  V30 29 1 29 30
M  V30 30 2 30 31
M  V30 31 1 31 2
M  V30 32 1 30 6
M  V30 33 1 15 10
M  V30 34 1 1 32
M  V30 35 1 1 33
M  V30 36 1 5 34
M  V30 37 1 5 35
M  V30 38 1 8 36
M  V30 39 1 8 37
M  V30 40 1 9 38
M  V30 41 1 9 39
M  V30 42 1 11 40
M  V30 43 1 12 41
M  V30 44 1 14 42
M  V30 45 1 15 43
M  V30 46 1 18 44
M  V30 47 1 19 45
M  V30 48 1 20 46
M  V30 49 1 20 47
M  V30 50 1 21 48
M  V30 51 1 21 49
M  V30 52 1 23 50
M  V30 53 1 26 51
M  V30 54 1 28 52
M  V30 END BOND
M  V30 END CTAB
M  END
