
     RDKit          3D

  0  0  0  0  0  0  0  0  0  0999 V3000
M  V30 BEGIN CTAB
M  V30 COUNTS 48 51 0 0 0
M  V30 BEGIN ATOM
M  V30 1 C 2.78495 4.04502 1.19423 0
M  V30 2 C 2.8211 2.54488 1.072 0
M  V30 3 N 3.86848 1.7724 0.748306 0
M  V30 4 N 3.49223 0.490424 0.74777 0
M  V30 5 C 2.19962 0.445547 1.07263 0
M  V30 6 N 1.41661 -0.712824 1.20625 0
M  V30 7 C 1.70225 1.73236 1.29483 0
M  V30 8 S 0.152457 2.30877 1.7803 0
M  V30 9 S -0.749018 2.81925 -0.0545157 0
M  V30 10 C -1.59056 1.38976 -0.498265 0
M  V30 11 C -2.88207 1.07362 -0.0486843 0
M  V30 12 N -3.67363 1.85195 0.855056 0
M  V30 13 N -3.29598 -0.0664089 -0.576555 0
M  V30 14 N -2.30677 -0.506904 -1.36393 0
M  V30 15 C -1.27433 0.353695 -1.33101 0
M  V30 16 C -0.0275144 0.211165 -2.09341 0
M  V30 17 C -4.54083 -0.723404 -0.368112 0
M  V30 18 C -4.66707 -1.84246 0.417094 0
M  V30 19 C -5.89446 -2.44624 0.592049 0
M  V30 20 C -7.04234 -1.96416 -0.00425801 0
M  V30 21 C -6.92638 -0.843943 -0.792616 0
M  V30 22 C -5.70386 -0.238593 -0.969693 0
M  V30 23 C 4.40432 -0.574468 0.438382 0
M  V30 24 C 4.44037 -1.74213 1.15011 0
M  V30 25 C 5.34364 -2.74124 0.815073 0
M  V30 26 C 6.22568 -2.57115 -0.248762 0
M  V30 27 C 6.20356 -1.40145 -0.977237 0
M  V30 28 C 5.30488 -0.438953 -0.623621 0
M  V30 29 H 2.21368 4.3044 2.10288 0
M  V30 30 H 2.16383 4.38131 0.314876 0
M  V30 31 H 3.77632 4.48019 1.11021 0
M  V30 32 H 0.7532 -0.900375 1.97488 0
M  V30 33 H 1.50087 -1.46544 0.466032 0
M  V30 34 H -3.93581 2.84137 0.690481 0
M  V30 35 H -3.9888 1.3537 1.72746 0
M  V30 36 H -0.314902 -0.0289955 -3.15764 0
M  V30 37 H 0.474938 -0.723599 -1.71058 0
M  V30 38 H 0.654489 1.06242 -2.01092 0
M  V30 39 H -3.81526 -2.26266 0.904974 0
M  V30 40 H -6.02136 -3.33587 1.21031 0
M  V30 41 H -8.01858 -2.44043 0.131868 0
M  V30 42 H -7.8362 -0.453306 -1.27065 0
M  V30 43 H -5.63726 0.641076 -1.59346 0
M  V30 44 H 3.77175 -1.90252 1.97693 0
M  V30 45 H 5.40881 -3.68287 1.35094 0
M  V30 46 H 6.93441 -3.34207 -0.520645 0
M  V30 47 H 6.88199 -1.23925 -1.81833 0
M  V30 48 H 5.24854 0.48839 -1.15951 0
M  V30 END ATOM
M  V30 BEGIN BOND
M  V30 1 1 1 2
M  V30 2 2 2 3
M  V30 3 1 3 4
M  V30 4 1 4 5
M  V30 5 1 5 6
M  V30 6 2 5 7
M  V30 7 1 7 8
M  V30 8 1 8 9
M  V30 9 1 9 10
M  V30 10 2 10 11
M  V30 11 1 11 12
M  V30 12 1 11 13
M  V30 13 1 13 14
M  V30 14 2 14 15
M  V30 15 1 15 16
M  V30 16 1 13 17
M  V30 17 2 17 18
M  V30 18 1 18 19
M  V30 19 2 19 20
M  V30 20 1 20 21
M  V30 21 2 21 22
M  V30 22 1 4 23
M  V30 23 2 23 24
M  V30 24 1 24 25
M  V30 25 2 25 26
M  V30 26 1 26 27
M  V30 27 2 27 28
M  V30 28 1 7 2
M  V30 29 1 15 10
M  V30 30 1 22 17
M  V30 31 1 28 23
M  V30 32 1 1 29
M  V30 33 1 1 30
M  V30 34 1 1 31
M  V30 35 1 6 32
M  V30 36 1 6 33
M  V30 37 1 12 34
M  V30 38 1 12 35
M  V30 39 1 16 36
M  V30 40 1 16 37
M  V30 41 1 16 38
M  V30 42 1 18 39
M  V30 43 1 19 40
M  V30 44 1 20 41
M  V30 45 1 21 42
M  V30 46 1 22 43
M  V30 47 1 24 44
M  V30 48 1 25 45
M  V30 49 1 26 46
M  V30 50 1 27 47
M  V30 51 1 28 48
M  V30 END BOND
M  V30 END CTAB
M  END
