
     RDKit          3D

  0  0  0  0  0  0  0  0  0  0999 V3000
M  V30 BEGIN CTAB
M  V30 COUNTS 29 30 0 0 0
M  V30 BEGIN ATOM
M  V30 1 N -4.29528 0.974235 -0.0705342 0
M  V30 2 C -2.99552 0.397701 -0.237488 0
M  V30 3 C -2.24806 0.661219 -1.36557 0
M  V30 4 C -0.992452 0.119067 -1.55251 0
M  V30 5 C -0.421734 -0.717375 -0.614178 0
M  V30 6 C 0.923956 -1.31106 -0.792608 0
M  V30 7 C 1.99904 -0.461936 -0.239932 0
M  V30 8 C 2.39748 -0.61748 1.0706 0
M  V30 9 C 3.415 0.177851 1.61329 0
M  V30 10 C 4.03836 1.1348 0.841303 0
M  V30 11 C 3.63236 1.27966 -0.46205 0
M  V30 12 C 2.62566 0.492714 -0.998773 0
M  V30 13 C -1.18029 -0.979126 0.520802 0
M  V30 14 C -2.4352 -0.435564 0.70468 0
M  V30 15 N -3.18697 -0.722826 1.87781 0
M  V30 16 H -5.07349 0.836071 -0.749517 0
M  V30 17 H -4.50303 1.56673 0.762475 0
M  V30 18 H -2.66698 1.31628 -2.12558 0
M  V30 19 H -0.401863 0.326467 -2.44244 0
M  V30 20 H 0.980613 -2.34041 -0.35541 0
M  V30 21 H 1.16455 -1.45793 -1.88227 0
M  V30 22 H 1.91751 -1.3654 1.69109 0
M  V30 23 H 3.7296 0.0574062 2.64245 0
M  V30 24 H 4.83644 1.75775 1.26895 0
M  V30 25 H 4.11187 2.02377 -1.07468 0
M  V30 26 H 2.30766 0.612285 -2.03396 0
M  V30 27 H -0.723268 -1.63932 1.25555 0
M  V30 28 H -3.52794 -1.69126 2.06715 0
M  V30 29 H -3.42802 0.00567262 2.58955 0
M  V30 END ATOM
M  V30 BEGIN BOND
M  V30 1 1 1 2
M  V30 2 2 2 3
M  V30 3 1 3 4
M  V30 4 2 4 5
M  V30 5 1 5 6
M  V30 6 1 6 7
M  V30 7 2 7 8
M  V30 8 1 8 9
M  V30 9 2 9 10
M  V30 10 1 10 11
M  V30 11 2 11 12
M  V30 12 1 5 13
M  V30 13 2 13 14
M  V30 14 1 14 15
M  V30 15 1 14 2
M  V30 16 1 12 7
M  V30 17 1 1 16
M  V30 18 1 1 17
M  V30 19 1 3 18
M  V30 20 1 4 19
M  V30 21 1 6 20
M  V30 22 1 6 21
M  V30 23 1 8 22
M  V30 24 1 9 23
M  V30 25 1 10 24
M  V30 26 1 11 25
M  V30 27 1 12 26
M  V30 28 1 13 27
M  V30 29 1 15 28
M  V30 30 1 15 29
M  V30 END BOND
M  V30 END CTAB
M  END
