
     RDKit          3D

  0  0  0  0  0  0  0  0  0  0999 V3000
M  V30 BEGIN CTAB
M  V30 COUNTS 18 18 0 0 0
M  V30 BEGIN ATOM
M  V30 1 N 2.54248 0.152466 0.111534 0
M  V30 2 C 1.16742 0.462046 0.0743815 0
M  V30 3 C 0.237951 -0.552491 0.0277532 0
M  V30 4 N 0.662012 -1.91327 0.022721 0
M  V30 5 C -1.1288 -0.302989 -0.0209094 0
M  V30 6 C -1.52681 1.0212 -0.0221209 0
M  V30 7 Cl -3.26227 1.39046 -0.0772095 0
M  V30 8 C -0.60444 2.03513 0.0250068 0
M  V30 9 C 0.747674 1.78274 0.0733653 0
M  V30 10 N -2.07981 -1.36191 -0.092001 0 CHG=1
M  V30 11 O -2.60542 -1.6329 -1.3661 0 CHG=-1
M  V30 12 O -2.4571 -2.01516 0.883488 0
M  V30 13 H 2.96218 -0.610876 0.668528 0
M  V30 14 H 3.18376 0.732104 -0.473914 0
M  V30 15 H 0.4755 -2.48899 -0.829092 0
M  V30 16 H 1.13544 -2.28746 0.862535 0
M  V30 17 H -0.947868 3.06093 0.0263907 0
M  V30 18 H 1.4981 2.52898 0.105643 0
M  V30 END ATOM
M  V30 BEGIN BOND
M  V30 1 1 1 2
M  V30 2 2 2 3
M  V30 3 1 3 4
M  V30 4 1 3 5
M  V30 5 2 5 6
M  V30 6 1 6 7
M  V30 7 1 6 8
M  V30 8 2 8 9
M  V30 9 1 5 10
M  V30 10 1 10 11
M  V30 11 2 10 12
M  V30 12 1 9 2
M  V30 13 1 1 13
M  V30 14 1 1 14
M  V30 15 1 4 15
M  V30 16 1 4 16
M  V30 17 1 8 17
M  V30 18 1 9 18
M  V30 END BOND
M  V30 END CTAB
M  END
