
     RDKit          3D

  0  0  0  0  0  0  0  0  0  0999 V3000
M  V30 BEGIN CTAB
M  V30 COUNTS 38 38 0 0 0
M  V30 BEGIN ATOM
M  V30 1 C -2.64761 2.11014 -0.406305 0
M  V30 2 N -2.18045 0.822866 0.0561735 0
M  V30 3 C -0.788843 0.54631 -0.0412131 0
M  V30 4 N -0.0168424 0.242921 1.01296 0
M  V30 5 C 1.30794 -0.0177847 0.887161 0
M  V30 6 N 2.11087 -0.338529 2.0226 0
M  V30 7 C 1.86665 0.0333289 -0.36485 0
M  V30 8 N 1.13395 0.330092 -1.43072 0
M  V30 9 C -0.190068 0.587444 -1.28089 0
M  V30 10 Cl -1.09343 0.976467 -2.74794 0
M  V30 11 C 3.31535 -0.252937 -0.494893 0
M  V30 12 O 3.98293 -0.529737 0.52281 0
M  V30 13 N 3.94193 -0.215195 -1.7528 0
M  V30 14 C 5.30791 -0.485172 -1.87552 0
M  V30 15 N 6.07509 -0.800362 -0.728935 0
M  V30 16 N 5.86398 -0.445809 -3.03489 0
M  V30 17 C -3.11952 -0.13927 0.603883 0
M  V30 18 C -2.46334 -1.41533 1.02075 0
M  V30 19 C -4.14247 -0.467501 -0.459314 0
M  V30 20 C -3.87264 0.412759 1.79624 0
M  V30 21 H -3.0262 2.68883 0.48614 0
M  V30 22 H -1.78267 2.67914 -0.776864 0
M  V30 23 H -3.44765 2.01988 -1.16875 0
M  V30 24 H 2.676 0.446428 2.41598 0
M  V30 25 H 2.16564 -1.25936 2.46095 0
M  V30 26 H 3.37622 0.0161909 -2.59116 0
M  V30 27 H 6.38406 -1.77597 -0.496689 0
M  V30 28 H 6.38039 -0.0682178 -0.0407229 0
M  V30 29 H 5.30965 -0.214847 -3.88746 0
M  V30 30 H -1.79093 -1.81503 0.209521 0
M  V30 31 H -1.92928 -1.36796 1.97679 0
M  V30 32 H -3.27375 -2.18852 1.11919 0
M  V30 33 H -5.09712 0.0597062 -0.263436 0
M  V30 34 H -4.38877 -1.55416 -0.442167 0
M  V30 35 H -3.71136 -0.228916 -1.45082 0
M  V30 36 H -4.1505 1.47217 1.67803 0
M  V30 37 H -3.26703 0.325353 2.72013 0
M  V30 38 H -4.8181 -0.18941 1.88348 0
M  V30 END ATOM
M  V30 BEGIN BOND
M  V30 1 1 1 2
M  V30 2 1 2 3
M  V30 3 2 3 4
M  V30 4 1 4 5
M  V30 5 1 5 6
M  V30 6 2 5 7
M  V30 7 1 7 8
M  V30 8 2 8 9
M  V30 9 1 9 10
M  V30 10 1 7 11
M  V30 11 2 11 12
M  V30 12 1 11 13
M  V30 13 1 13 14
M  V30 14 1 14 15
M  V30 15 2 14 16 CFG=2
M  V30 16 1 2 17
M  V30 17 1 17 18
M  V30 18 1 17 19
M  V30 19 1 17 20
M  V30 20 1 9 3
M  V30 21 1 1 21
M  V30 22 1 1 22
M  V30 23 1 1 23
M  V30 24 1 6 24
M  V30 25 1 6 25
M  V30 26 1 13 26
M  V30 27 1 15 27
M  V30 28 1 15 28
M  V30 29 1 16 29
M  V30 30 1 18 30
M  V30 31 1 18 31
M  V30 32 1 18 32
M  V30 33 1 19 33
M  V30 34 1 19 34
M  V30 35 1 19 35
M  V30 36 1 20 36
M  V30 37 1 20 37
M  V30 38 1 20 38
M  V30 END BOND
M  V30 END CTAB
M  END
