
     RDKit          3D

  0  0  0  0  0  0  0  0  0  0999 V3000
M  V30 BEGIN CTAB
M  V30 COUNTS 31 32 0 0 0
M  V30 BEGIN ATOM
M  V30 1 N 4.9913 0.808968 -0.138617 0
M  V30 2 C 3.63611 0.460753 -0.00473818 0
M  V30 3 C 2.69276 1.46165 -0.032606 0
M  V30 4 C 1.34897 1.12255 0.0994925 0
M  V30 5 C 0.924485 -0.175784 0.255365 0
M  V30 6 C 1.89418 -1.18952 0.283569 0
M  V30 7 C 3.21244 -0.848098 0.15396 0
M  V30 8 N 1.52226 -2.55326 0.44281 0
M  V30 9 N -0.411553 -0.565474 0.461233 0
M  V30 10 C -1.56418 0.152972 0.114063 0
M  V30 11 C -1.62543 1.12456 -0.863147 0
M  V30 12 C -2.82049 1.75402 -1.21015 0
M  V30 13 C -3.94843 1.35699 -0.528135 0
M  V30 14 C -3.90605 0.386108 0.450379 0
M  V30 15 C -2.7354 -0.232441 0.793582 0
M  V30 16 C -2.69621 -1.28157 1.85572 0
M  V30 17 H 5.57548 0.378892 -0.887026 0
M  V30 18 H 5.39603 1.50349 0.524416 0
M  V30 19 H 2.99394 2.50839 -0.156708 0
M  V30 20 H 0.669372 1.95596 0.110672 0
M  V30 21 H 3.97266 -1.64509 0.176225 0
M  V30 22 H 1.87326 -3.11323 1.23171 0
M  V30 23 H 0.887669 -3.01846 -0.23212 0
M  V30 24 H -0.53103 -1.51088 0.932194 0
M  V30 25 H -0.761717 1.42391 -1.44156 0
M  V30 26 H -2.85355 2.51555 -1.97768 0
M  V30 27 H -4.89393 1.81872 -0.765749 0
M  V30 28 H -4.81589 0.0782269 0.98689 0
M  V30 29 H -1.79041 -1.16278 2.49457 0
M  V30 30 H -2.64624 -2.27526 1.35381 0
M  V30 31 H -3.59041 -1.23987 2.48922 0
M  V30 END ATOM
M  V30 BEGIN BOND
M  V30 1 1 1 2
M  V30 2 2 2 3
M  V30 3 1 3 4
M  V30 4 2 4 5
M  V30 5 1 5 6
M  V30 6 2 6 7
M  V30 7 1 6 8
M  V30 8 1 5 9
M  V30 9 1 9 10
M  V30 10 2 10 11
M  V30 11 1 11 12
M  V30 12 2 12 13
M  V30 13 1 13 14
M  V30 14 2 14 15
M  V30 15 1 15 16
M  V30 16 1 7 2
M  V30 17 1 15 10
M  V30 18 1 1 17
M  V30 19 1 1 18
M  V30 20 1 3 19
M  V30 21 1 4 20
M  V30 22 1 7 21
M  V30 23 1 8 22
M  V30 24 1 8 23
M  V30 25 1 9 24
M  V30 26 1 11 25
M  V30 27 1 12 26
M  V30 28 1 13 27
M  V30 29 1 14 28
M  V30 30 1 16 29
M  V30 31 1 16 30
M  V30 32 1 16 31
M  V30 END BOND
M  V30 END CTAB
M  END
