
     RDKit          3D

  0  0  0  0  0  0  0  0  0  0999 V3000
M  V30 BEGIN CTAB
M  V30 COUNTS 38 39 0 0 0
M  V30 BEGIN ATOM
M  V30 1 N 4.73692 -2.51165 -0.152461 0
M  V30 2 C 3.77123 -1.45443 -0.309536 0
M  V30 3 N 4.3089 -0.168265 -0.634007 0
M  V30 4 N 2.52591 -1.67938 -0.174136 0
M  V30 5 C 1.49736 -0.719682 -0.311843 0
M  V30 6 O 1.21891 -0.357884 -1.48778 0
M  V30 7 C 0.858037 -0.246411 0.917436 0
M  V30 8 C -0.348987 0.58907 0.774668 0 CFG=1
M  V30 9 N -0.296272 1.80577 0.0758412 0
M  V30 10 C 0.765054 2.76177 -0.210328 0
M  V30 11 C 0.902117 3.85706 0.781159 0
M  V30 12 F 1.19551 3.43064 2.04643 0
M  V30 13 F 1.9262 4.69523 0.330388 0
M  V30 14 F -0.243707 4.6556 0.800065 0
M  V30 15 C -1.63431 2.03915 -0.45504 0
M  V30 16 O -2.06301 3.12085 -0.930729 0
M  V30 17 C -2.3653 0.78348 -0.320164 0
M  V30 18 C -3.61145 0.390836 -0.805909 0
M  V30 19 C -4.00566 -0.92669 -0.703906 0
M  V30 20 C -3.19427 -1.87903 -0.122674 0
M  V30 21 C -1.9653 -1.452 0.354596 0
M  V30 22 C -1.52689 -0.133857 0.271044 0
M  V30 23 C -3.5936 -3.29431 -0.0156741 0
M  V30 24 F -3.55522 -3.64749 1.34265 0
M  V30 25 F -4.88417 -3.47817 -0.457925 0
M  V30 26 F -2.78024 -4.12101 -0.780072 0
M  V30 27 H 4.87917 -3.20375 -0.900881 0
M  V30 28 H 5.28347 -2.56243 0.716073 0
M  V30 29 H 3.65547 0.593325 -0.901356 0
M  V30 30 H 5.32144 0.0416947 -0.61075 0
M  V30 31 H 0.532578 -1.19299 1.46455 0
M  V30 32 H 1.56675 0.242324 1.61566 0
M  V30 33 H -0.65071 0.886997 1.85509 0
M  V30 34 H 1.74351 2.24106 -0.311304 0
M  V30 35 H 0.606954 3.25472 -1.21154 0
M  V30 36 H -4.25056 1.10699 -1.25049 0
M  V30 37 H -4.98462 -1.25695 -1.09826 0
M  V30 38 H -1.34125 -2.2102 0.811126 0
M  V30 END ATOM
M  V30 BEGIN BOND
M  V30 1 1 1 2
M  V30 2 1 2 3
M  V30 3 2 2 4
M  V30 4 1 4 5
M  V30 5 2 5 6
M  V30 6 1 5 7
M  V30 7 1 7 8
M  V30 8 1 8 9
M  V30 9 1 9 10
M  V30 10 1 10 11
M  V30 11 1 11 12
M  V30 12 1 11 13
M  V30 13 1 11 14
M  V30 14 1 9 15
M  V30 15 2 15 16
M  V30 16 1 15 17
M  V30 17 2 17 18
M  V30 18 1 18 19
M  V30 19 2 19 20
M  V30 20 1 20 21
M  V30 21 2 21 22
M  V30 22 1 20 23
M  V30 23 1 23 24
M  V30 24 1 23 25
M  V30 25 1 23 26
M  V30 26 1 22 8
M  V30 27 1 22 17
M  V30 28 1 1 27
M  V30 29 1 1 28
M  V30 30 1 3 29
M  V30 31 1 3 30
M  V30 32 1 7 31
M  V30 33 1 7 32
M  V30 34 1 8 33 CFG=1
M  V30 35 1 10 34
M  V30 36 1 10 35
M  V30 37 1 18 36
M  V30 38 1 19 37
M  V30 39 1 21 38
M  V30 END BOND
M  V30 END CTAB
M  END
