
     RDKit          3D

  0  0  0  0  0  0  0  0  0  0999 V3000
M  V30 BEGIN CTAB
M  V30 COUNTS 32 33 0 0 0
M  V30 BEGIN ATOM
M  V30 1 N -4.68165 0.466916 -1.24987 0
M  V30 2 C -3.742 -0.339978 -0.50168 0
M  V30 3 C -2.33878 0.207499 -0.602577 0
M  V30 4 N -1.36776 -0.535018 0.122588 0
M  V30 5 C -1.47804 -0.467043 1.53996 0
M  V30 6 C -0.733754 0.659517 2.19227 0
M  V30 7 O 0.542251 0.807341 1.67238 0
M  V30 8 C 0.89541 -0.243559 0.832554 0 CFG=1
M  V30 9 C -0.0538684 -0.221992 -0.349226 0
M  V30 10 C 2.30742 -0.0730648 0.423519 0
M  V30 11 N 3.30403 0.292351 1.25789 0
M  V30 12 N 4.45526 0.355871 0.617706 0
M  V30 13 C 4.26413 0.0312602 -0.679457 0
M  V30 14 C 2.91353 -0.238804 -0.803912 0
M  V30 15 N 5.2761 -0.00988502 -1.6667 0
M  V30 16 H -5.45541 -0.154898 -1.56381 0
M  V30 17 H -4.26195 1.00196 -2.01723 0
M  V30 18 H -4.04446 -0.308073 0.560048 0
M  V30 19 H -3.81163 -1.3717 -0.905391 0
M  V30 20 H -2.32367 1.29783 -0.360024 0
M  V30 21 H -2.06291 0.150683 -1.69789 0
M  V30 22 H -2.52342 -0.403725 1.90613 0
M  V30 23 H -1.08932 -1.42088 1.9728 0
M  V30 24 H -1.32247 1.60468 2.11021 0
M  V30 25 H -0.606271 0.373578 3.26802 0
M  V30 26 H 0.821161 -1.23734 1.3094 0
M  V30 27 H -0.00259181 0.788242 -0.825856 0
M  V30 28 H 0.276517 -0.937756 -1.12686 0
M  V30 29 H 3.1664 0.497866 2.29505 0
M  V30 30 H 2.41298 -0.531254 -1.71098 0
M  V30 31 H 5.75934 0.874992 -1.91688 0
M  V30 32 H 5.50544 -0.915601 -2.11032 0
M  V30 END ATOM
M  V30 BEGIN BOND
M  V30 1 1 1 2
M  V30 2 1 2 3
M  V30 3 1 3 4
M  V30 4 1 4 5
M  V30 5 1 5 6
M  V30 6 1 6 7
M  V30 7 1 7 8
M  V30 8 1 8 9
M  V30 9 1 8 10
M  V30 10 1 10 11
M  V30 11 1 11 12
M  V30 12 2 12 13
M  V30 13 1 13 14
M  V30 14 1 13 15
M  V30 15 1 9 4
M  V30 16 2 14 10
M  V30 17 1 1 16
M  V30 18 1 1 17
M  V30 19 1 2 18
M  V30 20 1 2 19
M  V30 21 1 3 20
M  V30 22 1 3 21
M  V30 23 1 5 22
M  V30 24 1 5 23
M  V30 25 1 6 24
M  V30 26 1 6 25
M  V30 27 1 8 26 CFG=1
M  V30 28 1 9 27
M  V30 29 1 9 28
M  V30 30 1 11 29
M  V30 31 1 14 30
M  V30 32 1 15 31
M  V30 33 1 15 32
M  V30 END BOND
M  V30 END CTAB
M  END
