
     RDKit          3D

  0  0  0  0  0  0  0  0  0  0999 V3000
M  V30 BEGIN CTAB
M  V30 COUNTS 30 31 0 0 0
M  V30 BEGIN ATOM
M  V30 1 N 3.86334 2.13221 1.18795 0
M  V30 2 C 3.43119 0.89214 0.699102 0
M  V30 3 N 2.14036 0.557777 0.524537 0
M  V30 4 C 1.77581 -0.602918 0.0777399 0
M  V30 5 C 0.387547 -1.12865 -0.104627 0
M  V30 6 S -0.406366 -0.666406 -1.62427 0
M  V30 7 C -1.42714 0.84471 -1.52338 0
M  V30 8 C -2.62628 0.524651 -0.681776 0
M  V30 9 C -3.58731 -0.351391 -1.14062 0
M  V30 10 F -3.34853 -0.971978 -2.3176 0
M  V30 11 C -4.70081 -0.58371 -0.35219 0
M  V30 12 C -4.87496 0.0372864 0.889639 0
M  V30 13 C -3.87941 0.925239 1.33013 0
M  V30 14 C -2.76342 1.17123 0.547202 0
M  V30 15 Cl -1.63425 2.42995 1.12353 0
M  V30 16 N 2.77779 -1.53021 -0.22148 0
M  V30 17 C 4.05952 -1.25718 -0.0673559 0
M  V30 18 N 4.39291 -0.0356171 0.396356 0
M  V30 19 N 5.05929 -2.26214 -0.321535 0
M  V30 20 H 4.11171 2.90897 0.561384 0
M  V30 21 H 3.96729 2.3032 2.2138 0
M  V30 22 H -0.178379 -0.751438 0.806662 0
M  V30 23 H 0.393182 -2.2274 0.0510051 0
M  V30 24 H -0.8978 1.66431 -0.955923 0
M  V30 25 H -1.69184 1.22167 -2.48759 0
M  V30 26 H -5.44131 -1.2724 -0.729033 0
M  V30 27 H -5.71831 -0.135668 1.50049 0
M  V30 28 H -4.01207 1.42789 2.26438 0
M  V30 29 H 5.20384 -2.52828 -1.34439 0
M  V30 30 H 5.62441 -2.73586 0.441391 0
M  V30 END ATOM
M  V30 BEGIN BOND
M  V30 1 1 1 2
M  V30 2 2 2 3
M  V30 3 1 3 4
M  V30 4 1 4 5
M  V30 5 1 5 6
M  V30 6 1 6 7
M  V30 7 1 7 8
M  V30 8 2 8 9
M  V30 9 1 9 10
M  V30 10 1 9 11
M  V30 11 2 11 12
M  V30 12 1 12 13
M  V30 13 2 13 14
M  V30 14 1 14 15
M  V30 15 2 4 16
M  V30 16 1 16 17
M  V30 17 2 17 18
M  V30 18 1 17 19
M  V30 19 1 18 2
M  V30 20 1 14 8
M  V30 21 1 1 20
M  V30 22 1 1 21
M  V30 23 1 5 22
M  V30 24 1 5 23
M  V30 25 1 7 24
M  V30 26 1 7 25
M  V30 27 1 11 26
M  V30 28 1 12 27
M  V30 29 1 13 28
M  V30 30 1 19 29
M  V30 31 1 19 30
M  V30 END BOND
M  V30 END CTAB
M  END
