
     RDKit          3D

  0  0  0  0  0  0  0  0  0  0999 V3000
M  V30 BEGIN CTAB
M  V30 COUNTS 37 39 0 0 0
M  V30 BEGIN ATOM
M  V30 1 C 1.34017 -4.13355 0.324862 0
M  V30 2 C -0.0405957 -3.76639 0.822289 0
M  V30 3 O -0.569277 -2.76229 0.0484696 0
M  V30 4 C -0.149363 -1.48716 -0.186049 0
M  V30 5 C 0.99967 -1.02985 0.431267 0
M  V30 6 C 1.46084 0.247586 0.223032 0
M  V30 7 C 0.744527 1.05772 -0.618386 0
M  V30 8 C -0.414903 0.613813 -1.24862 0
M  V30 9 C -0.87701 -0.644248 -1.04848 0
M  V30 10 O -2.0036 -1.21839 -1.59746 0
M  V30 11 C -2.8441 -0.505271 -2.44816 0
M  V30 12 C -3.47393 0.67543 -1.75887 0
M  V30 13 N -4.14376 1.6894 -2.28871 0
M  V30 14 N -4.60966 2.59484 -1.54643 0
M  V30 15 C -4.43064 2.5352 -0.231354 0
M  V30 16 S -3.53968 1.08554 -0.0864905 0
M  V30 17 N -4.87254 3.45155 0.792196 0
M  V30 18 C 2.68131 0.722757 0.883076 0
M  V30 19 N 3.48495 0.0730863 1.71882 0
M  V30 20 N 4.49818 0.645401 2.19263 0
M  V30 21 C 4.77819 1.90361 1.86511 0
M  V30 22 S 3.46156 2.24618 0.796698 0
M  V30 23 N 5.85562 2.73448 2.27628 0
M  V30 24 H 2.11404 -3.99579 1.12119 0
M  V30 25 H 1.40271 -5.17182 -0.0512739 0
M  V30 26 H 1.65617 -3.45139 -0.501437 0
M  V30 27 H 0.0541959 -3.52716 1.90222 0
M  V30 28 H -0.670767 -4.67978 0.67022 0
M  V30 29 H 1.59178 -1.6541 1.11609 0
M  V30 30 H 1.04262 2.07094 -0.83116 0
M  V30 31 H -0.958626 1.27558 -1.92452 0
M  V30 32 H -2.3096 -0.0690535 -3.33199 0
M  V30 33 H -3.68706 -1.12183 -2.80532 0
M  V30 34 H -5.4729 3.12051 1.57444 0
M  V30 35 H -4.56695 4.42455 0.704556 0
M  V30 36 H 5.82691 3.16944 3.20718 0
M  V30 37 H 6.64151 2.88045 1.62823 0
M  V30 END ATOM
M  V30 BEGIN BOND
M  V30 1 1 1 2
M  V30 2 1 2 3
M  V30 3 1 3 4
M  V30 4 2 4 5
M  V30 5 1 5 6
M  V30 6 2 6 7
M  V30 7 1 7 8
M  V30 8 2 8 9
M  V30 9 1 9 10
M  V30 10 1 10 11
M  V30 11 1 11 12
M  V30 12 2 12 13
M  V30 13 1 13 14
M  V30 14 2 14 15
M  V30 15 1 15 16
M  V30 16 1 15 17
M  V30 17 1 6 18
M  V30 18 2 18 19
M  V30 19 1 19 20
M  V30 20 2 20 21
M  V30 21 1 21 22
M  V30 22 1 21 23
M  V30 23 1 9 4
M  V30 24 1 16 12
M  V30 25 1 22 18
M  V30 26 1 1 24
M  V30 27 1 1 25
M  V30 28 1 1 26
M  V30 29 1 2 27
M  V30 30 1 2 28
M  V30 31 1 5 29
M  V30 32 1 7 30
M  V30 33 1 8 31
M  V30 34 1 11 32
M  V30 35 1 11 33
M  V30 36 1 17 34
M  V30 37 1 17 35
M  V30 38 1 23 36
M  V30 39 1 23 37
M  V30 END BOND
M  V30 END CTAB
M  END
