
     RDKit          3D

  0  0  0  0  0  0  0  0  0  0999 V3000
M  V30 BEGIN CTAB
M  V30 COUNTS 25 26 0 0 0
M  V30 BEGIN ATOM
M  V30 1 N -1.79537 -1.3372 1.71553 0
M  V30 2 C -1.92543 -0.273612 0.756832 0
M  V30 3 N -3.04175 0.486421 0.925599 0
M  V30 4 C -3.23329 1.49864 0.0675032 0
M  V30 5 C -2.36369 1.7907 -0.953135 0
M  V30 6 C -1.2314 1.0345 -1.13904 0
M  V30 7 C -1.02156 -0.0276099 -0.245964 0
M  V30 8 C 0.160423 -0.868056 -0.388989 0
M  V30 9 C 1.44249 -0.11674 -0.400636 0
M  V30 10 N 2.61859 -0.743167 -0.251264 0
M  V30 11 C 3.5939 0.177535 -0.301131 0
M  V30 12 C 2.98023 1.39355 -0.486356 0
M  V30 13 N 1.66411 1.1897 -0.544366 0
M  V30 14 N 0.238673 -1.78173 0.724411 0
M  V30 15 H -2.16086 -2.29759 1.48117 0
M  V30 16 H -1.3574 -1.21273 2.64732 0
M  V30 17 H -4.12911 2.1228 0.188237 0
M  V30 18 H -2.51747 2.60808 -1.64625 0
M  V30 19 H -0.515473 1.22952 -1.93468 0
M  V30 20 H 0.0388279 -1.46738 -1.32357 0
M  V30 21 H 2.82962 -1.76009 -0.115331 0
M  V30 22 H 4.66144 -0.010568 -0.211239 0
M  V30 23 H 3.51848 2.35952 -0.568646 0
M  V30 24 H 0.760664 -2.66196 0.503812 0
M  V30 25 H 0.785355 -1.33254 1.50017 0
M  V30 END ATOM
M  V30 BEGIN BOND
M  V30 1 1 1 2
M  V30 2 2 2 3
M  V30 3 1 3 4
M  V30 4 2 4 5
M  V30 5 1 5 6
M  V30 6 2 6 7
M  V30 7 1 7 8
M  V30 8 1 8 9
M  V30 9 1 9 10
M  V30 10 1 10 11
M  V30 11 2 11 12
M  V30 12 1 12 13
M  V30 13 1 8 14
M  V30 14 1 7 2
M  V30 15 2 13 9
M  V30 16 1 1 15
M  V30 17 1 1 16
M  V30 18 1 4 17
M  V30 19 1 5 18
M  V30 20 1 6 19
M  V30 21 1 8 20
M  V30 22 1 10 21
M  V30 23 1 11 22
M  V30 24 1 12 23
M  V30 25 1 14 24
M  V30 26 1 14 25
M  V30 END BOND
M  V30 END CTAB
M  END
