
     RDKit          3D

  0  0  0  0  0  0  0  0  0  0999 V3000
M  V30 BEGIN CTAB
M  V30 COUNTS 57 60 0 0 0
M  V30 BEGIN ATOM
M  V30 1 C -4.97808 1.48663 -1.55219 0
M  V30 2 O -4.53675 1.91913 -0.290576 0
M  V30 3 C -3.5719 1.21028 0.382001 0
M  V30 4 C -3.0491 0.0684177 -0.210051 0
M  V30 5 C -2.10562 -0.684617 0.376504 0
M  V30 6 C -1.62815 -0.2856 1.65057 0
M  V30 7 C -2.12996 0.840671 2.2568 0
M  V30 8 C -3.10322 1.59086 1.62394 0
M  V30 9 O -3.64082 2.72987 2.18946 0
M  V30 10 C -3.29439 3.26916 3.43183 0
M  V30 11 C -0.553235 -1.10885 2.25094 0
M  V30 12 C 0.556983 -1.46237 1.23675 0
M  V30 13 N -0.0287909 -1.42219 -0.108325 0
M  V30 14 C -1.42099 -1.90197 -0.101018 0
M  V30 15 C -1.87408 -2.68756 -1.17636 0
M  V30 16 C -3.16723 -2.77584 -1.58877 0
M  V30 17 C -3.58817 -3.556 -2.65306 0
M  V30 18 C -2.6749 -4.2935 -3.34824 0
M  V30 19 C -1.35283 -4.23281 -2.95906 0
M  V30 20 C -0.950491 -3.4525 -1.8999 0
M  V30 21 C 0.701479 -0.93263 -1.17161 0
M  V30 22 O 0.335534 -0.782613 -2.36919 0
M  V30 23 C 2.13214 -0.508411 -0.912758 0
M  V30 24 S 2.18998 1.21382 -0.368078 0
M  V30 25 C 3.88854 1.67807 -0.0696107 0
M  V30 26 N 4.6611 2.19822 -1.03845 0
M  V30 27 C 5.94225 2.5589 -0.854997 0
M  V30 28 N 6.69949 3.10084 -1.9176 0
M  V30 29 C 6.50636 2.39244 0.385761 0
M  V30 30 C 5.74231 1.862 1.40121 0
M  V30 31 N 4.4662 1.52227 1.14895 0
M  V30 32 N 6.35983 1.70343 2.67308 0
M  V30 33 H -5.81657 2.08876 -1.93709 0
M  V30 34 H -4.11858 1.54049 -2.27868 0
M  V30 35 H -5.32748 0.429171 -1.55435 0
M  V30 36 H -3.40024 -0.176351 -1.18212 0
M  V30 37 H -1.76383 1.13919 3.22742 0
M  V30 38 H -2.92612 2.54225 4.16738 0
M  V30 39 H -2.55682 4.09826 3.24744 0
M  V30 40 H -4.19088 3.8003 3.86158 0
M  V30 41 H -0.989986 -2.04256 2.63923 0
M  V30 42 H -0.115472 -0.496477 3.07699 0
M  V30 43 H 0.920693 -2.48922 1.38523 0
M  V30 44 H 1.34463 -0.731089 1.38746 0
M  V30 45 H -1.47685 -2.61163 0.818434 0
M  V30 46 H -3.99034 -2.25251 -1.05841 0
M  V30 47 H -4.62492 -3.59812 -2.95099 0
M  V30 48 H -2.98107 -4.92464 -4.20148 0
M  V30 49 H -0.653045 -4.83856 -3.54076 0
M  V30 50 H 0.104373 -3.49234 -1.67011 0
M  V30 51 H 2.74894 -0.664785 -1.84322 0
M  V30 52 H 2.61501 -1.12792 -0.138751 0
M  V30 53 H 7.36591 3.88415 -1.78659 0
M  V30 54 H 6.59834 2.71176 -2.87814 0
M  V30 55 H 7.55268 2.68336 0.548312 0
M  V30 56 H 6.83695 2.51583 3.13437 0
M  V30 57 H 6.31123 0.755125 3.1089 0
M  V30 END ATOM
M  V30 BEGIN BOND
M  V30 1 1 1 2
M  V30 2 1 2 3
M  V30 3 2 3 4
M  V30 4 1 4 5
M  V30 5 2 5 6
M  V30 6 1 6 7
M  V30 7 2 7 8
M  V30 8 1 8 9
M  V30 9 1 9 10
M  V30 10 1 6 11
M  V30 11 1 11 12
M  V30 12 1 12 13
M  V30 13 1 13 14
M  V30 14 1 14 15
M  V30 15 2 15 16
M  V30 16 1 16 17
M  V30 17 2 17 18
M  V30 18 1 18 19
M  V30 19 2 19 20
M  V30 20 1 13 21
M  V30 21 2 21 22
M  V30 22 1 21 23
M  V30 23 1 23 24
M  V30 24 1 24 25
M  V30 25 2 25 26
M  V30 26 1 26 27
M  V30 27 1 27 28
M  V30 28 2 27 29
M  V30 29 1 29 30
M  V30 30 2 30 31
M  V30 31 1 30 32
M  V30 32 1 8 3
M  V30 33 1 20 15
M  V30 34 1 31 25
M  V30 35 1 14 5
M  V30 36 1 1 33
M  V30 37 1 1 34
M  V30 38 1 1 35
M  V30 39 1 4 36
M  V30 40 1 7 37
M  V30 41 1 10 38
M  V30 42 1 10 39
M  V30 43 1 10 40
M  V30 44 1 11 41
M  V30 45 1 11 42
M  V30 46 1 12 43
M  V30 47 1 12 44
M  V30 48 1 14 45
M  V30 49 1 16 46
M  V30 50 1 17 47
M  V30 51 1 18 48
M  V30 52 1 19 49
M  V30 53 1 20 50
M  V30 54 1 23 51
M  V30 55 1 23 52
M  V30 56 1 28 53
M  V30 57 1 28 54
M  V30 58 1 29 55
M  V30 59 1 32 56
M  V30 60 1 32 57
M  V30 END BOND
M  V30 END CTAB
M  END
