
     RDKit          3D

  0  0  0  0  0  0  0  0  0  0999 V3000
M  V30 BEGIN CTAB
M  V30 COUNTS 47 48 0 0 0
M  V30 BEGIN ATOM
M  V30 1 C -4.25762 -1.95224 0.92704 0
M  V30 2 C -4.65971 -0.497573 0.883887 0
M  V30 3 C -5.58277 -0.220093 2.02645 0
M  V30 4 C -3.45801 0.422164 0.938878 0
M  V30 5 N -3.92918 1.78615 0.893111 0
M  V30 6 C -2.53251 0.192525 -0.188258 0
M  V30 7 O -2.26313 1.10058 -1.00111 0
M  V30 8 O -1.95286 -1.04332 -0.351146 0
M  V30 9 C -1.0626 -1.4372 -1.34527 0
M  V30 10 C 0.211568 -0.65606 -1.29022 0
M  V30 11 C 1.04651 -1.09182 -2.49381 0
M  V30 12 O 0.273785 -0.851107 -3.62915 0
M  V30 13 O 0.841985 -0.83414 -0.111513 0
M  V30 14 C 1.19613 0.224034 0.651276 0
M  V30 15 N 2.12592 1.12133 -0.0300683 0
M  V30 16 C 1.88952 2.19705 -0.786748 0
M  V30 17 N 3.08501 2.70909 -1.19513 0
M  V30 18 C 4.09159 1.966 -0.703343 0
M  V30 19 C 3.47551 0.960622 0.0347367 0
M  V30 20 N 4.27823 0.0687733 0.639898 0
M  V30 21 C 5.62015 0.0810899 0.581831 0
M  V30 22 N 6.4091 -0.89664 1.2486 0
M  V30 23 N 6.19492 1.0789 -0.149343 0
M  V30 24 C 5.4663 2.00056 -0.778439 0
M  V30 25 O 6.04843 2.89376 -1.43545 0
M  V30 26 H -4.0225 -2.35404 -0.0778911 0
M  V30 27 H -3.43343 -2.09305 1.64521 0
M  V30 28 H -5.138 -2.52186 1.31404 0
M  V30 29 H -5.20323 -0.318905 -0.0648595 0
M  V30 30 H -6.33315 0.580855 1.78669 0
M  V30 31 H -6.19755 -1.14303 2.2034 0
M  V30 32 H -5.03884 -0.0115153 2.96709 0
M  V30 33 H -2.90864 0.275379 1.8947 0
M  V30 34 H -4.21659 1.99176 -0.0910918 0
M  V30 35 H -4.70014 1.9637 1.56807 0
M  V30 36 H -0.843395 -2.53237 -1.22748 0
M  V30 37 H -1.5561 -1.24945 -2.33256 0
M  V30 38 H 0.0224316 0.416059 -1.46041 0
M  V30 39 H 1.25027 -2.18023 -2.4616 0
M  V30 40 H 1.96302 -0.495867 -2.57978 0
M  V30 41 H 0.372618 -1.5488 -4.31187 0
M  V30 42 H 0.30705 0.853676 0.862085 0
M  V30 43 H 1.58502 -0.0445988 1.65926 0
M  V30 44 H 0.90615 2.58046 -1.02052 0
M  V30 45 H 7.31012 -0.684828 1.73235 0
M  V30 46 H 6.09691 -1.89475 1.27431 0
M  V30 47 H 7.22173 1.08896 -0.194228 0
M  V30 END ATOM
M  V30 BEGIN BOND
M  V30 1 1 1 2
M  V30 2 1 2 3
M  V30 3 1 2 4
M  V30 4 1 4 5
M  V30 5 1 4 6
M  V30 6 2 6 7
M  V30 7 1 6 8
M  V30 8 1 8 9
M  V30 9 1 9 10
M  V30 10 1 10 11
M  V30 11 1 11 12
M  V30 12 1 10 13
M  V30 13 1 13 14
M  V30 14 1 14 15
M  V30 15 1 15 16
M  V30 16 2 16 17
M  V30 17 1 17 18
M  V30 18 2 18 19
M  V30 19 1 19 20
M  V30 20 2 20 21
M  V30 21 1 21 22
M  V30 22 1 21 23
M  V30 23 1 23 24
M  V30 24 2 24 25
M  V30 25 1 19 15
M  V30 26 1 24 18
M  V30 27 1 1 26
M  V30 28 1 1 27
M  V30 29 1 1 28
M  V30 30 1 2 29
M  V30 31 1 3 30
M  V30 32 1 3 31
M  V30 33 1 3 32
M  V30 34 1 4 33
M  V30 35 1 5 34
M  V30 36 1 5 35
M  V30 37 1 9 36
M  V30 38 1 9 37
M  V30 39 1 10 38
M  V30 40 1 11 39
M  V30 41 1 11 40
M  V30 42 1 12 41
M  V30 43 1 14 42
M  V30 44 1 14 43
M  V30 45 1 16 44
M  V30 46 1 22 45
M  V30 47 1 22 46
M  V30 48 1 23 47
M  V30 END BOND
M  V30 END CTAB
M  END
