
     RDKit          3D

  0  0  0  0  0  0  0  0  0  0999 V3000
M  V30 BEGIN CTAB
M  V30 COUNTS 24 24 0 0 0
M  V30 BEGIN ATOM
M  V30 1 N 4.27008 0.920543 -0.706161 0
M  V30 2 S 3.54325 0.113509 0.629204 0
M  V30 3 O 4.59906 -0.736483 1.29652 0
M  V30 4 O 3.16216 1.17199 1.63203 0
M  V30 5 N 2.24216 -0.884478 0.177881 0
M  V30 6 C 0.885883 -0.484911 0.0997167 0
M  V30 7 C 0.127174 -0.858091 -1.00339 0
M  V30 8 C -1.19644 -0.508323 -1.15151 0
M  V30 9 C -1.82415 0.244371 -0.180221 0
M  V30 10 C -1.09909 0.622386 0.911928 0
M  V30 11 C 0.246155 0.267177 1.06298 0
M  V30 12 S -3.50092 0.71415 -0.320401 0
M  V30 13 O -3.85454 0.891559 -1.76305 0
M  V30 14 O -3.74045 2.00546 0.439778 0
M  V30 15 N -4.49863 -0.499913 0.404807 0
M  V30 16 H 3.76021 0.742614 -1.59866 0
M  V30 17 H 5.29953 0.691254 -0.776656 0
M  V30 18 H 2.44692 -1.88315 -0.0661301 0
M  V30 19 H 0.607665 -1.44684 -1.76921 0
M  V30 20 H -1.80074 -0.790978 -2.00425 0
M  V30 21 H -1.5997 1.22035 1.68244 0
M  V30 22 H 0.790659 0.579469 1.93403 0
M  V30 23 H -4.92714 -1.10895 -0.30482 0
M  V30 24 H -3.9391 -0.982715 1.12453 0
M  V30 END ATOM
M  V30 BEGIN BOND
M  V30 1 1 1 2
M  V30 2 2 2 3
M  V30 3 2 2 4
M  V30 4 1 2 5
M  V30 5 1 5 6
M  V30 6 2 6 7
M  V30 7 1 7 8
M  V30 8 2 8 9
M  V30 9 1 9 10
M  V30 10 2 10 11
M  V30 11 1 9 12
M  V30 12 2 12 13
M  V30 13 2 12 14
M  V30 14 1 12 15
M  V30 15 1 11 6
M  V30 16 1 1 16
M  V30 17 1 1 17
M  V30 18 1 5 18
M  V30 19 1 7 19
M  V30 20 1 8 20
M  V30 21 1 10 21
M  V30 22 1 11 22
M  V30 23 1 15 23
M  V30 24 1 15 24
M  V30 END BOND
M  V30 END CTAB
M  END
