
     RDKit          3D

  0  0  0  0  0  0  0  0  0  0999 V3000
M  V30 BEGIN CTAB
M  V30 COUNTS 67 66 0 0 0
M  V30 BEGIN ATOM
M  V30 1 C 7.15929 -0.966785 0.848206 0 CFG=2
M  V30 2 C 7.624 -2.38135 0.598334 0
M  V30 3 O 8.64455 -2.64097 1.51264 0
M  V30 4 N 6.09349 -0.553835 -0.0326972 0
M  V30 5 C 4.86932 -0.00238462 0.420075 0
M  V30 6 O 4.693 0.143042 1.6366 0
M  V30 7 C 3.81437 0.394085 -0.540869 0 CFG=2
M  V30 8 C 4.31644 1.17701 -1.68834 0
M  V30 9 C 4.98109 2.46697 -1.4869 0
M  V30 10 C 4.14658 3.56739 -0.979615 0
M  V30 11 O 4.7267 4.71761 -0.403419 0
M  V30 12 O 2.89836 3.58791 -1.00892 0
M  V30 13 N 2.72559 0.920755 0.217106 0
M  V30 14 C 1.38407 0.459802 0.0787343 0
M  V30 15 O 1.17671 -0.456018 -0.752687 0
M  V30 16 C 0.25657 0.992452 0.84516 0
M  V30 17 N -0.96199 0.308888 0.488513 0
M  V30 18 C -2.19985 0.642141 1.07916 0
M  V30 19 O -2.2558 1.55357 1.92802 0
M  V30 20 C -3.41882 -0.104091 0.677977 0 CFG=2
M  V30 21 C -3.6433 -0.0168637 -0.821794 0
M  V30 22 C -4.90342 -0.808197 -1.16285 0
M  V30 23 C -5.13037 -0.731689 -2.65667 0
M  V30 24 N -6.31204 -1.48246 -2.99569 0
M  V30 25 C -7.62504 -1.13237 -2.64149 0
M  V30 26 N -8.09674 -1.17221 -1.31126 0
M  V30 27 N -8.44195 -0.757433 -3.56611 0
M  V30 28 N -4.53509 0.439985 1.42148 0
M  V30 29 C -5.17784 -0.327901 2.41641 0
M  V30 30 O -4.81179 -1.51029 2.69973 0
M  V30 31 C -6.31999 0.23814 3.17294 0
M  V30 32 N -6.78955 -0.729119 4.12919 0
M  V30 33 C 8.32559 -0.0814357 0.55297 0
M  V30 34 O 9.4834 -0.30834 1.28365 0
M  V30 35 O 8.32015 0.826208 -0.290386 0
M  V30 36 H 6.92771 -0.866544 1.92151 0
M  V30 37 H 8.07747 -2.43015 -0.413643 0
M  V30 38 H 6.842 -3.14175 0.774036 0
M  V30 39 H 8.91113 -3.59223 1.54079 0
M  V30 40 H 6.29293 -0.69483 -1.05921 0
M  V30 41 H 3.37436 -0.555433 -1.0262 0
M  V30 42 H 3.41355 1.34262 -2.36813 0
M  V30 43 H 4.97757 0.543879 -2.368 0
M  V30 44 H 5.39412 2.85856 -2.47743 0
M  V30 45 H 5.90764 2.41305 -0.858372 0
M  V30 46 H 4.80201 4.67626 0.625551 0
M  V30 47 H 2.87716 1.65966 0.938306 0
M  V30 48 H 0.131565 2.07635 0.551626 0
M  V30 49 H 0.414064 1.02413 1.93626 0
M  V30 50 H -0.924322 -0.46428 -0.237511 0
M  V30 51 H -3.25184 -1.1777 0.951296 0
M  V30 52 H -2.79535 -0.470984 -1.33996 0
M  V30 53 H -3.77404 1.04354 -1.10655 0
M  V30 54 H -5.75473 -0.357069 -0.606391 0
M  V30 55 H -4.77739 -1.85806 -0.869509 0
M  V30 56 H -5.17895 0.319406 -3.01427 0
M  V30 57 H -4.23188 -1.15911 -3.14717 0
M  V30 58 H -6.15439 -2.37117 -3.56034 0
M  V30 59 H -8.30117 -2.09075 -0.833512 0
M  V30 60 H -8.27197 -0.31628 -0.723035 0
M  V30 61 H -8.15728 -0.706566 -4.57771 0
M  V30 62 H -4.86499 1.39568 1.22292 0
M  V30 63 H -6.06474 1.19599 3.67638 0
M  V30 64 H -7.17144 0.495369 2.48936 0
M  V30 65 H -7.78408 -0.548739 4.37585 0
M  V30 66 H -6.19838 -0.685565 5.00843 0
M  V30 67 H 10.298 -0.779829 0.907421 0
M  V30 END ATOM
M  V30 BEGIN BOND
M  V30 1 1 1 2
M  V30 2 1 2 3
M  V30 3 1 1 4
M  V30 4 1 4 5
M  V30 5 2 5 6
M  V30 6 1 5 7
M  V30 7 1 7 8
M  V30 8 1 8 9
M  V30 9 1 9 10
M  V30 10 1 10 11
M  V30 11 2 10 12
M  V30 12 1 7 13
M  V30 13 1 13 14
M  V30 14 2 14 15
M  V30 15 1 14 16
M  V30 16 1 16 17
M  V30 17 1 17 18
M  V30 18 2 18 19
M  V30 19 1 18 20
M  V30 20 1 20 21
M  V30 21 1 21 22
M  V30 22 1 22 23
M  V30 23 1 23 24
M  V30 24 1 24 25
M  V30 25 1 25 26
M  V30 26 2 25 27 CFG=2
M  V30 27 1 20 28
M  V30 28 1 28 29
M  V30 29 2 29 30
M  V30 30 1 29 31
M  V30 31 1 31 32
M  V30 32 1 1 33
M  V30 33 1 33 34
M  V30 34 2 33 35
M  V30 35 1 1 36 CFG=1
M  V30 36 1 2 37
M  V30 37 1 2 38
M  V30 38 1 3 39
M  V30 39 1 4 40
M  V30 40 1 7 41 CFG=3
M  V30 41 1 8 42
M  V30 42 1 8 43
M  V30 43 1 9 44
M  V30 44 1 9 45
M  V30 45 1 11 46
M  V30 46 1 13 47
M  V30 47 1 16 48
M  V30 48 1 16 49
M  V30 49 1 17 50
M  V30 50 1 20 51 CFG=1
M  V30 51 1 21 52
M  V30 52 1 21 53
M  V30 53 1 22 54
M  V30 54 1 22 55
M  V30 55 1 23 56
M  V30 56 1 23 57
M  V30 57 1 24 58
M  V30 58 1 26 59
M  V30 59 1 26 60
M  V30 60 1 27 61
M  V30 61 1 28 62
M  V30 62 1 31 63
M  V30 63 1 31 64
M  V30 64 1 32 65
M  V30 65 1 32 66
M  V30 66 1 34 67
M  V30 END BOND
M  V30 END CTAB
M  END
