
     RDKit          3D

  0  0  0  0  0  0  0  0  0  0999 V3000
M  V30 BEGIN CTAB
M  V30 COUNTS 22 23 0 0 0
M  V30 BEGIN ATOM
M  V30 1 Br -2.95071 3.09328 2.05548 0
M  V30 2 C -2.36754 1.72011 0.864148 0
M  V30 3 C -3.23315 1.14972 -0.0506815 0
M  V30 4 C -2.82487 0.145909 -0.928407 0
M  V30 5 C -1.52139 -0.305098 -0.898171 0
M  V30 6 C -0.669551 0.267317 0.0135244 0
M  V30 7 C -1.06106 1.26425 0.890528 0
M  V30 8 C 0.71476 -0.213138 0.0440728 0
M  V30 9 N 1.28087 -1.16412 -0.719488 0
M  V30 10 N 2.54556 -1.29816 -0.377997 0
M  V30 11 C 2.83735 -0.425103 0.630583 0
M  V30 12 N 1.68736 0.22552 0.863901 0
M  V30 13 N 4.09014 -0.254484 1.28095 0
M  V30 14 N -1.01826 -1.31868 -1.74997 0
M  V30 15 H -4.25914 1.49968 -0.079669 0
M  V30 16 H -3.51447 -0.291024 -1.63925 0
M  V30 17 H -0.350542 1.68727 1.59499 0
M  V30 18 H 3.28847 -1.93352 -0.749914 0
M  V30 19 H 4.93229 -0.0859285 0.706151 0
M  V30 20 H 4.09501 -0.308896 2.31838 0
M  V30 21 H -0.492186 -1.14145 -2.62861 0
M  V30 22 H -1.20893 -2.31346 -1.44055 0
M  V30 END ATOM
M  V30 BEGIN BOND
M  V30 1 1 1 2
M  V30 2 2 2 3
M  V30 3 1 3 4
M  V30 4 2 4 5
M  V30 5 1 5 6
M  V30 6 2 6 7
M  V30 7 1 6 8
M  V30 8 2 8 9
M  V30 9 1 9 10
M  V30 10 1 10 11
M  V30 11 2 11 12
M  V30 12 1 11 13
M  V30 13 1 5 14
M  V30 14 1 7 2
M  V30 15 1 12 8
M  V30 16 1 3 15
M  V30 17 1 4 16
M  V30 18 1 7 17
M  V30 19 1 10 18
M  V30 20 1 13 19
M  V30 21 1 13 20
M  V30 22 1 14 21
M  V30 23 1 14 22
M  V30 END BOND
M  V30 END CTAB
M  END
