
     RDKit          3D

  0  0  0  0  0  0  0  0  0  0999 V3000
M  V30 BEGIN CTAB
M  V30 COUNTS 30 31 0 0 0
M  V30 BEGIN ATOM
M  V30 1 C -4.06771 0.533812 -0.253902 0
M  V30 2 C -2.73701 1.12878 0.0973156 0
M  V30 3 C -1.64499 0.0635319 0.18756 0
M  V30 4 C -1.9065 -0.972248 1.20321 0
M  V30 5 C -2.01469 -1.32397 -0.229777 0
M  V30 6 N -0.321645 0.595716 -0.0251799 0
M  V30 7 C 0.896263 -0.125901 0.0337686 0
M  V30 8 N 0.947353 -1.45517 0.31762 0
M  V30 9 C 2.09087 -2.14162 0.378678 0
M  V30 10 C 3.25848 -1.45972 0.141666 0
M  V30 11 C 3.28304 -0.111565 -0.152063 0
M  V30 12 C 2.09086 0.564538 -0.207155 0
M  V30 13 N 2.09979 1.9574 -0.509361 0
M  V30 14 N 4.52005 0.577977 -0.396041 0
M  V30 15 H -4.82897 1.33995 -0.127492 0
M  V30 16 H -4.1565 0.172873 -1.27776 0
M  V30 17 H -4.31191 -0.295716 0.433804 0
M  V30 18 H -2.43002 1.88774 -0.643115 0
M  V30 19 H -2.81752 1.58087 1.10624 0
M  V30 20 H -1.08537 -1.29856 1.84195 0
M  V30 21 H -2.8779 -0.952189 1.76663 0
M  V30 22 H -1.30762 -2.03424 -0.632729 0
M  V30 23 H -3.02849 -1.41862 -0.683521 0
M  V30 24 H -0.234284 1.62461 -0.24855 0
M  V30 25 H 2.1296 -3.18509 0.601607 0
M  V30 26 H 4.23675 -1.96258 0.175634 0
M  V30 27 H 1.45881 2.39935 -1.20592 0
M  V30 28 H 2.76921 2.63294 -0.0354259 0
M  V30 29 H 4.56579 1.41666 -1.00122 0
M  V30 30 H 5.42426 0.260437 0.0279215 0
M  V30 END ATOM
M  V30 BEGIN BOND
M  V30 1 1 1 2
M  V30 2 1 2 3
M  V30 3 1 3 4
M  V30 4 1 4 5
M  V30 5 1 3 6
M  V30 6 1 6 7
M  V30 7 2 7 8
M  V30 8 1 8 9
M  V30 9 2 9 10
M  V30 10 1 10 11
M  V30 11 2 11 12
M  V30 12 1 12 13
M  V30 13 1 11 14
M  V30 14 1 5 3
M  V30 15 1 12 7
M  V30 16 1 1 15
M  V30 17 1 1 16
M  V30 18 1 1 17
M  V30 19 1 2 18
M  V30 20 1 2 19
M  V30 21 1 4 20
M  V30 22 1 4 21
M  V30 23 1 5 22
M  V30 24 1 5 23
M  V30 25 1 6 24
M  V30 26 1 9 25
M  V30 27 1 10 26
M  V30 28 1 13 27
M  V30 29 1 13 28
M  V30 30 1 14 29
M  V30 31 1 14 30
M  V30 END BOND
M  V30 END CTAB
M  END
