
     RDKit          3D

  0  0  0  0  0  0  0  0  0  0999 V3000
M  V30 BEGIN CTAB
M  V30 COUNTS 62 65 0 0 0
M  V30 BEGIN ATOM
M  V30 1 C 5.16025 4.09115 1.59039 0
M  V30 2 C 4.31236 5.21306 1.0551 0
M  V30 3 S 3.18378 4.71767 -0.215582 0
M  V30 4 C 1.77545 3.75153 0.201168 0
M  V30 5 C 1.95179 2.35545 0.630956 0
M  V30 6 C 2.64957 1.4586 -0.386665 0
M  V30 7 C 3.2719 0.403733 0.487731 0
M  V30 8 N 3.28131 0.854794 1.70228 0
M  V30 9 O 2.72549 2.12455 1.76188 0
M  V30 10 C 3.74844 -0.864587 -0.0219035 0
M  V30 11 C 4.31391 -1.79376 0.84586 0
M  V30 12 C 4.7822 -3.01336 0.422216 0
M  V30 13 C 4.68691 -3.32936 -0.922989 0
M  V30 14 C 4.13133 -2.42786 -1.80446 0
M  V30 15 C 3.66986 -1.20804 -1.34185 0
M  V30 16 C 4.05094 -2.8016 -3.20921 0
M  V30 17 N 4.52789 -4.05493 -3.66062 0
M  V30 18 N 3.54323 -1.99078 -4.04996 0
M  V30 19 C 0.553403 1.78756 0.840476 0
M  V30 20 O 0.338192 1.2858 1.97262 0
M  V30 21 N -0.432928 1.82291 -0.172494 0
M  V30 22 C -1.73042 1.26545 0.0978825 0
M  V30 23 N -2.68124 1.28933 -0.848342 0
M  V30 24 C -3.91774 0.759305 -0.601435 0
M  V30 25 C -4.22836 0.190157 0.605863 0
M  V30 26 C -3.22056 0.1815 1.56661 0
M  V30 27 N -2.00583 0.718234 1.28308 0
M  V30 28 C -5.52747 -0.405956 0.889321 0
M  V30 29 C -5.97682 -1.60212 0.39221 0
M  V30 30 C -7.25508 -2.09186 0.690447 0
M  V30 31 C -8.08228 -1.37404 1.493 0
M  V30 32 C -7.66996 -0.169951 2.01305 0
M  V30 33 C -6.41657 0.301607 1.71487 0
M  V30 34 S -4.92925 -2.55838 -0.605684 0
M  V30 35 N -5.7526 -4.05419 -1.01481 0
M  V30 36 O -3.68662 -2.94104 0.132286 0
M  V30 37 O -4.58568 -1.94037 -1.91894 0
M  V30 38 H 4.83957 3.78594 2.59161 0
M  V30 39 H 6.25229 4.43841 1.64695 0
M  V30 40 H 5.17036 3.23011 0.89683 0
M  V30 41 H 4.99858 6.04986 0.717642 0
M  V30 42 H 3.7929 5.6501 1.95111 0
M  V30 43 H 1.00068 3.7685 -0.645455 0
M  V30 44 H 1.22518 4.32029 1.03714 0
M  V30 45 H 1.93157 0.947394 -1.05663 0
M  V30 46 H 3.45394 1.96192 -0.921527 0
M  V30 47 H 4.3788 -1.53198 1.88028 0
M  V30 48 H 5.21852 -3.73425 1.08269 0
M  V30 49 H 5.05849 -4.29688 -1.25737 0
M  V30 50 H 3.23715 -0.510589 -2.04143 0
M  V30 51 H 5.21241 -4.13296 -4.44285 0
M  V30 52 H 4.21234 -4.95735 -3.22671 0
M  V30 53 H 3.43007 -2.13396 -5.05712 0
M  V30 54 H -0.195572 2.2471 -1.08352 0
M  V30 55 H -4.68803 0.804803 -1.37651 0
M  V30 56 H -3.45515 -0.264742 2.52296 0
M  V30 57 H -7.586 -3.04064 0.283548 0
M  V30 58 H -9.08386 -1.72988 1.74304 0
M  V30 59 H -8.3632 0.386883 2.65953 0
M  V30 60 H -6.0684 1.25344 2.11553 0
M  V30 61 H -6.64895 -3.83001 -1.45994 0
M  V30 62 H -5.88254 -4.63174 -0.174154 0
M  V30 END ATOM
M  V30 BEGIN BOND
M  V30 1 1 1 2
M  V30 2 1 2 3
M  V30 3 1 3 4
M  V30 4 1 4 5
M  V30 5 1 5 6
M  V30 6 1 6 7
M  V30 7 2 7 8
M  V30 8 1 8 9
M  V30 9 1 7 10
M  V30 10 2 10 11
M  V30 11 1 11 12
M  V30 12 2 12 13
M  V30 13 1 13 14
M  V30 14 2 14 15
M  V30 15 1 14 16
M  V30 16 1 16 17
M  V30 17 2 16 18 CFG=2
M  V30 18 1 5 19
M  V30 19 2 19 20
M  V30 20 1 19 21
M  V30 21 1 21 22
M  V30 22 2 22 23
M  V30 23 1 23 24
M  V30 24 2 24 25
M  V30 25 1 25 26
M  V30 26 2 26 27
M  V30 27 1 25 28
M  V30 28 2 28 29
M  V30 29 1 29 30
M  V30 30 2 30 31
M  V30 31 1 31 32
M  V30 32 2 32 33
M  V30 33 1 29 34
M  V30 34 1 34 35
M  V30 35 2 34 36
M  V30 36 2 34 37
M  V30 37 1 9 5
M  V30 38 1 15 10
M  V30 39 1 27 22
M  V30 40 1 33 28
M  V30 41 1 1 38
M  V30 42 1 1 39
M  V30 43 1 1 40
M  V30 44 1 2 41
M  V30 45 1 2 42
M  V30 46 1 4 43
M  V30 47 1 4 44
M  V30 48 1 6 45
M  V30 49 1 6 46
M  V30 50 1 11 47
M  V30 51 1 12 48
M  V30 52 1 13 49
M  V30 53 1 15 50
M  V30 54 1 17 51
M  V30 55 1 17 52
M  V30 56 1 18 53
M  V30 57 1 21 54
M  V30 58 1 24 55
M  V30 59 1 26 56
M  V30 60 1 30 57
M  V30 61 1 31 58
M  V30 62 1 32 59
M  V30 63 1 33 60
M  V30 64 1 35 61
M  V30 65 1 35 62
M  V30 END BOND
M  V30 END CTAB
M  END
