
     RDKit          3D

  0  0  0  0  0  0  0  0  0  0999 V3000
M  V30 BEGIN CTAB
M  V30 COUNTS 33 35 0 0 0
M  V30 BEGIN ATOM
M  V30 1 N 4.13294 2.21542 0.804834 0
M  V30 2 C 3.44525 1.00714 0.555225 0
M  V30 3 N 2.10987 0.88725 0.640011 0
M  V30 4 C 1.42284 -0.239974 0.411067 0
M  V30 5 C 2.16745 -1.36452 0.0590316 0
M  V30 6 N 1.27156 -2.34767 -0.115002 0
M  V30 7 C 0.0164495 -1.86477 0.117037 0
M  V30 8 N 0.119636 -0.576212 0.437727 0
M  V30 9 C -0.940842 0.341734 0.764187 0 CFG=2
M  V30 10 O -2.05209 -0.234914 1.30236 0
M  V30 11 C -3.17596 0.417503 0.87629 0 CFG=2
M  V30 12 C -3.94113 -0.542569 -0.0452151 0
M  V30 13 O -4.25675 -1.65847 0.693114 0
M  V30 14 C -2.76348 1.58459 0.0238177 0
M  V30 15 C -1.39651 1.13859 -0.456519 0 CFG=1
M  V30 16 O -0.558617 2.20161 -0.721878 0
M  V30 17 C 3.53438 -1.27412 -0.0360281 0
M  V30 18 N 4.2974 -2.41349 -0.393457 0
M  V30 19 N 4.14666 -0.0949919 0.212656 0
M  V30 20 H 4.25682 2.9084 0.0646999 0
M  V30 21 H 4.51123 2.39471 1.74382 0
M  V30 22 H -0.882696 -2.45996 0.0425377 0
M  V30 23 H -0.577507 1.11925 1.49674 0
M  V30 24 H -3.815 0.713162 1.72561 0
M  V30 25 H -4.85966 -0.0212653 -0.405767 0
M  V30 26 H -3.33542 -0.766882 -0.932004 0
M  V30 27 H -3.9444 -2.47841 0.229677 0
M  V30 28 H -3.45971 1.78469 -0.804452 0
M  V30 29 H -2.59192 2.49842 0.648141 0
M  V30 30 H -1.47033 0.422683 -1.31643 0
M  V30 31 H -0.610935 2.39602 -1.70093 0
M  V30 32 H 5.29822 -2.48287 -0.102889 0
M  V30 33 H 3.90224 -3.2101 -0.947269 0
M  V30 END ATOM
M  V30 BEGIN BOND
M  V30 1 1 1 2
M  V30 2 2 2 3
M  V30 3 1 3 4
M  V30 4 2 4 5
M  V30 5 1 5 6
M  V30 6 2 6 7
M  V30 7 1 7 8
M  V30 8 1 8 9
M  V30 9 1 9 10
M  V30 10 1 10 11
M  V30 11 1 11 12
M  V30 12 1 12 13
M  V30 13 1 11 14
M  V30 14 1 14 15
M  V30 15 1 15 16
M  V30 16 1 5 17
M  V30 17 1 17 18
M  V30 18 2 17 19
M  V30 19 1 19 2
M  V30 20 1 8 4
M  V30 21 1 15 9
M  V30 22 1 1 20
M  V30 23 1 1 21
M  V30 24 1 7 22
M  V30 25 1 9 23 CFG=1
M  V30 26 1 11 24 CFG=1
M  V30 27 1 12 25
M  V30 28 1 12 26
M  V30 29 1 13 27
M  V30 30 1 14 28
M  V30 31 1 14 29
M  V30 32 1 15 30 CFG=3
M  V30 33 1 16 31
M  V30 34 1 18 32
M  V30 35 1 18 33
M  V30 END BOND
M  V30 END CTAB
M  END
