
     RDKit          3D

  0  0  0  0  0  0  0  0  0  0999 V3000
M  V30 BEGIN CTAB
M  V30 COUNTS 68 67 0 0 0
M  V30 BEGIN ATOM
M  V30 1 N 11.957 -1.09714 -1.8891 0
M  V30 2 C 10.5334 -1.4248 -1.81038 0
M  V30 3 C 9.96807 -0.715404 -0.608548 0
M  V30 4 C 8.47984 -0.989682 -0.410505 0
M  V30 5 C 7.75334 -0.512257 -1.622 0
M  V30 6 C 6.2839 -0.717566 -1.55498 0
M  V30 7 C 5.65439 0.0307509 -0.456148 0
M  V30 8 O 6.26684 0.834723 0.283076 0
M  V30 9 N 4.25972 -0.192825 -0.242544 0
M  V30 10 C 3.59927 0.520609 0.825372 0
M  V30 11 C 2.12612 0.162969 0.906652 0
M  V30 12 C 1.41366 0.50621 -0.383399 0
M  V30 13 C -0.0426979 0.158564 -0.324717 0
M  V30 14 C -0.713188 0.913267 0.78309 0
M  V30 15 C -2.20791 0.575556 0.86134 0
M  V30 16 C -2.75655 1.39727 2.0086 0
M  V30 17 C -4.22732 1.18448 2.22685 0
M  V30 18 N -4.93552 1.56017 1.02594 0
M  V30 19 C -6.37209 1.43303 1.02057 0
M  V30 20 O -6.97903 1.0086 2.03162 0
M  V30 21 C -7.11561 1.80832 -0.187983 0
M  V30 22 C -8.5663 1.4505 -0.101957 0
M  V30 23 C -8.8344 -0.017986 0.00771139 0
M  V30 24 C -8.25142 -0.699828 -1.23524 0
M  V30 25 C -8.54834 -2.19737 -1.08056 0
M  V30 26 N -9.96947 -2.3749 -1.00162 0
M  V30 27 H 12.4291 -1.5584 -2.68565 0
M  V30 28 H 12.418 -1.33514 -0.993861 0
M  V30 29 H 10.4138 -2.51222 -1.73042 0
M  V30 30 H 10.1074 -1.04686 -2.76863 0
M  V30 31 H 10.5021 -1.00327 0.298491 0
M  V30 32 H 10.135 0.380046 -0.764631 0
M  V30 33 H 8.17438 -0.536114 0.52724 0
M  V30 34 H 8.35083 -2.10156 -0.367799 0
M  V30 35 H 7.99273 0.576395 -1.78043 0
M  V30 36 H 8.11594 -1.00328 -2.56123 0
M  V30 37 H 5.77696 -0.44271 -2.50584 0
M  V30 38 H 6.01483 -1.80032 -1.38933 0
M  V30 39 H 3.68762 -0.838749 -0.808739 0
M  V30 40 H 3.71946 1.61625 0.732256 0
M  V30 41 H 4.10629 0.228069 1.76708 0
M  V30 42 H 2.07281 -0.906612 1.14615 0
M  V30 43 H 1.71007 0.810688 1.706 0
M  V30 44 H 1.47378 1.6142 -0.537612 0
M  V30 45 H 1.91967 0.0663623 -1.27069 0
M  V30 46 H -0.0943897 -0.938749 -0.0671259 0
M  V30 47 H -0.564562 0.264501 -1.2747 0
M  V30 48 H -0.65822 2.00964 0.643305 0
M  V30 49 H -0.307676 0.579317 1.76921 0
M  V30 50 H -2.65679 0.906443 -0.0762342 0
M  V30 51 H -2.36626 -0.511004 1.01578 0
M  V30 52 H -2.16125 1.25733 2.93518 0
M  V30 53 H -2.61683 2.46754 1.72204 0
M  V30 54 H -4.54126 1.88601 3.02654 0
M  V30 55 H -4.47086 0.162735 2.56425 0
M  V30 56 H -4.47644 1.91642 0.164676 0
M  V30 57 H -6.66565 1.37916 -1.11546 0
M  V30 58 H -7.07098 2.91916 -0.350254 0
M  V30 59 H -9.05008 1.9283 0.806134 0
M  V30 60 H -9.15082 1.91309 -0.950559 0
M  V30 61 H -8.36767 -0.463044 0.882822 0
M  V30 62 H -9.93272 -0.215346 -0.0430647 0
M  V30 63 H -7.15752 -0.606816 -1.21102 0
M  V30 64 H -8.73236 -0.347713 -2.15156 0
M  V30 65 H -8.10394 -2.72759 -1.95276 0
M  V30 66 H -8.02822 -2.57568 -0.169093 0
M  V30 67 H -10.2758 -2.42966 -0.00184119 0
M  V30 68 H -10.4464 -1.58607 -1.46442 0
M  V30 END ATOM
M  V30 BEGIN BOND
M  V30 1 1 1 2
M  V30 2 1 2 3
M  V30 3 1 3 4
M  V30 4 1 4 5
M  V30 5 1 5 6
M  V30 6 1 6 7
M  V30 7 2 7 8
M  V30 8 1 7 9
M  V30 9 1 9 10
M  V30 10 1 10 11
M  V30 11 1 11 12
M  V30 12 1 12 13
M  V30 13 1 13 14
M  V30 14 1 14 15
M  V30 15 1 15 16
M  V30 16 1 16 17
M  V30 17 1 17 18
M  V30 18 1 18 19
M  V30 19 2 19 20
M  V30 20 1 19 21
M  V30 21 1 21 22
M  V30 22 1 22 23
M  V30 23 1 23 24
M  V30 24 1 24 25
M  V30 25 1 25 26
M  V30 26 1 1 27
M  V30 27 1 1 28
M  V30 28 1 2 29
M  V30 29 1 2 30
M  V30 30 1 3 31
M  V30 31 1 3 32
M  V30 32 1 4 33
M  V30 33 1 4 34
M  V30 34 1 5 35
M  V30 35 1 5 36
M  V30 36 1 6 37
M  V30 37 1 6 38
M  V30 38 1 9 39
M  V30 39 1 10 40
M  V30 40 1 10 41
M  V30 41 1 11 42
M  V30 42 1 11 43
M  V30 43 1 12 44
M  V30 44 1 12 45
M  V30 45 1 13 46
M  V30 46 1 13 47
M  V30 47 1 14 48
M  V30 48 1 14 49
M  V30 49 1 15 50
M  V30 50 1 15 51
M  V30 51 1 16 52
M  V30 52 1 16 53
M  V30 53 1 17 54
M  V30 54 1 17 55
M  V30 55 1 18 56
M  V30 56 1 21 57
M  V30 57 1 21 58
M  V30 58 1 22 59
M  V30 59 1 22 60
M  V30 60 1 23 61
M  V30 61 1 23 62
M  V30 62 1 24 63
M  V30 63 1 24 64
M  V30 64 1 25 65
M  V30 65 1 25 66
M  V30 66 1 26 67
M  V30 67 1 26 68
M  V30 END BOND
M  V30 END CTAB
M  END
