
     RDKit          3D

  0  0  0  0  0  0  0  0  0  0999 V3000
M  V30 BEGIN CTAB
M  V30 COUNTS 30 31 0 0 0
M  V30 BEGIN ATOM
M  V30 1 C -4.3729 0.599788 0.490943 0
M  V30 2 C -3.53565 -0.585814 0.0255298 0
M  V30 3 C -2.22265 -0.0470101 -0.454776 0
M  V30 4 C -1.49016 0.682655 0.627199 0
M  V30 5 N -0.263482 0.0572362 0.166544 0
M  V30 6 C -1.05388 -0.998772 -0.376285 0
M  V30 7 C 1.11003 0.449151 0.279313 0
M  V30 8 N 1.48166 1.57728 0.898087 0
M  V30 9 C 2.76106 1.95876 1.01259 0
M  V30 10 C 3.74973 1.17099 0.478022 0
M  V30 11 C 3.43746 -0.0173314 -0.180271 0
M  V30 12 C 2.10832 -0.350012 -0.262608 0
M  V30 13 N 1.75716 -1.54406 -0.920991 0
M  V30 14 N 4.48428 -0.790318 -0.711126 0
M  V30 15 H -4.13902 0.850902 1.54827 0
M  V30 16 H -4.09366 1.49686 -0.103889 0
M  V30 17 H -5.45104 0.409972 0.404937 0
M  V30 18 H -4.09107 -1.00729 -0.854895 0
M  V30 19 H -3.45185 -1.37258 0.771795 0
M  V30 20 H -2.29309 0.473504 -1.42754 0
M  V30 21 H -1.49522 1.78193 0.573053 0
M  V30 22 H -1.75929 0.268324 1.63215 0
M  V30 23 H -1.19038 -1.84283 0.332895 0
M  V30 24 H -0.787097 -1.36388 -1.38762 0
M  V30 25 H 3.03239 2.86408 1.51136 0
M  V30 26 H 4.79274 1.45386 0.555183 0
M  V30 27 H 1.60572 -1.576 -1.9461 0
M  V30 28 H 1.64717 -2.41454 -0.365294 0
M  V30 29 H 4.27075 -1.45713 -1.48436 0
M  V30 30 H 5.45198 -0.727729 -0.370969 0
M  V30 END ATOM
M  V30 BEGIN BOND
M  V30 1 1 1 2
M  V30 2 1 2 3
M  V30 3 1 3 4
M  V30 4 1 4 5
M  V30 5 1 5 6
M  V30 6 1 5 7
M  V30 7 2 7 8
M  V30 8 1 8 9
M  V30 9 2 9 10
M  V30 10 1 10 11
M  V30 11 2 11 12
M  V30 12 1 12 13
M  V30 13 1 11 14
M  V30 14 1 6 3
M  V30 15 1 12 7
M  V30 16 1 1 15
M  V30 17 1 1 16
M  V30 18 1 1 17
M  V30 19 1 2 18
M  V30 20 1 2 19
M  V30 21 1 3 20
M  V30 22 1 4 21
M  V30 23 1 4 22
M  V30 24 1 6 23
M  V30 25 1 6 24
M  V30 26 1 9 25
M  V30 27 1 10 26
M  V30 28 1 13 27
M  V30 29 1 13 28
M  V30 30 1 14 29
M  V30 31 1 14 30
M  V30 END BOND
M  V30 END CTAB
M  END
