
     RDKit          3D

  0  0  0  0  0  0  0  0  0  0999 V3000
M  V30 BEGIN CTAB
M  V30 COUNTS 44 45 0 0 0
M  V30 BEGIN ATOM
M  V30 1 C -1.53222 2.46553 -0.676364 0
M  V30 2 C -1.38679 1.5755 0.505214 0
M  V30 3 N -1.11622 0.187598 0.19727 0
M  V30 4 C 0.0431512 -0.113607 -0.567784 0
M  V30 5 O 0.745939 0.860903 -1.01184 0
M  V30 6 C 0.456931 -1.50753 -0.853926 0
M  V30 7 S 2.01073 -1.49902 -1.7919 0
M  V30 8 C 3.33461 -0.893008 -0.797414 0
M  V30 9 N 3.65402 0.405743 -0.760819 0
M  V30 10 C 4.64996 0.877921 -0.0171914 0
M  V30 11 N 4.98089 2.26868 0.0105229 0
M  V30 12 C 5.39739 0.0137514 0.75586 0
M  V30 13 C 5.09318 -1.33846 0.741569 0
M  V30 14 N 4.06819 -1.72808 -0.0408276 0
M  V30 15 N 5.86578 -2.21134 1.53631 0
M  V30 16 C -1.99758 -0.85968 0.605347 0
M  V30 17 C -3.25378 -0.978923 -0.161641 0
M  V30 18 C -3.33285 -1.42367 -1.44976 0
M  V30 19 C -4.59262 -1.49396 -2.05768 0
M  V30 20 C -5.74465 -1.12836 -1.39404 0
M  V30 21 C -5.66784 -0.674895 -0.0820756 0
M  V30 22 C -4.41942 -0.616543 0.488736 0
M  V30 23 C -0.359803 2.18802 1.43605 0
M  V30 24 H -0.583929 2.93207 -1.01348 0
M  V30 25 H -1.92605 1.92111 -1.58487 0
M  V30 26 H -2.2443 3.30237 -0.522086 0
M  V30 27 H -2.34934 1.59022 1.08548 0
M  V30 28 H -0.259343 -2.07909 -1.47041 0
M  V30 29 H 0.563144 -2.10211 0.0877366 0
M  V30 30 H 4.27429 2.98317 0.296501 0
M  V30 31 H 5.92255 2.58538 -0.252281 0
M  V30 32 H 6.22009 0.373671 1.37471 0
M  V30 33 H 5.42504 -2.70714 2.32568 0
M  V30 34 H 6.86631 -2.35484 1.3314 0
M  V30 35 H -1.50712 -1.85729 0.53669 0
M  V30 36 H -2.18922 -0.728498 1.69859 0
M  V30 37 H -2.45714 -1.72517 -2.02591 0
M  V30 38 H -4.60968 -1.85238 -3.07823 0
M  V30 39 H -6.69879 -1.20696 -1.92348 0
M  V30 40 H -6.58211 -0.38532 0.443687 0
M  V30 41 H -4.39887 -0.254086 1.52472 0
M  V30 42 H 0.673621 1.89375 1.18939 0
M  V30 43 H -0.425518 3.28637 1.29605 0
M  V30 44 H -0.61062 2.00821 2.50153 0
M  V30 END ATOM
M  V30 BEGIN BOND
M  V30 1 1 1 2
M  V30 2 1 2 3
M  V30 3 1 3 4
M  V30 4 2 4 5
M  V30 5 1 4 6
M  V30 6 1 6 7
M  V30 7 1 7 8
M  V30 8 2 8 9
M  V30 9 1 9 10
M  V30 10 1 10 11
M  V30 11 2 10 12
M  V30 12 1 12 13
M  V30 13 2 13 14
M  V30 14 1 13 15
M  V30 15 1 3 16
M  V30 16 1 16 17
M  V30 17 2 17 18
M  V30 18 1 18 19
M  V30 19 2 19 20
M  V30 20 1 20 21
M  V30 21 2 21 22
M  V30 22 1 2 23
M  V30 23 1 14 8
M  V30 24 1 22 17
M  V30 25 1 1 24
M  V30 26 1 1 25
M  V30 27 1 1 26
M  V30 28 1 2 27
M  V30 29 1 6 28
M  V30 30 1 6 29
M  V30 31 1 11 30
M  V30 32 1 11 31
M  V30 33 1 12 32
M  V30 34 1 15 33
M  V30 35 1 15 34
M  V30 36 1 16 35
M  V30 37 1 16 36
M  V30 38 1 18 37
M  V30 39 1 19 38
M  V30 40 1 20 39
M  V30 41 1 21 40
M  V30 42 1 22 41
M  V30 43 1 23 42
M  V30 44 1 23 43
M  V30 45 1 23 44
M  V30 END BOND
M  V30 END CTAB
M  END
