
     RDKit          3D

  0  0  0  0  0  0  0  0  0  0999 V3000
M  V30 BEGIN CTAB
M  V30 COUNTS 28 30 0 0 0
M  V30 BEGIN ATOM
M  V30 1 N -4.44996 2.03974 0.717542 0
M  V30 2 C -3.54731 1.10775 0.167612 0
M  V30 3 N -2.6862 0.336616 0.865725 0
M  V30 4 N -1.98054 -0.427057 0.0725213 0
M  V30 5 C -0.977588 -1.35983 0.513408 0
M  V30 6 C 0.361266 -0.788573 0.604695 0
M  V30 7 C 1.23964 -0.804351 -0.456486 0
M  V30 8 C 2.51908 -0.245491 -0.331974 0
M  V30 9 C 2.90343 0.324488 0.859659 0
M  V30 10 O 4.20936 0.792237 0.691932 0
M  V30 11 C 4.74156 0.315313 -0.504571 0
M  V30 12 O 3.59681 -0.118737 -1.21452 0
M  V30 13 C 2.03167 0.341484 1.9167 0
M  V30 14 C 0.787129 -0.209857 1.77341 0
M  V30 15 C -2.39824 -0.140976 -1.17766 0
M  V30 16 N -1.90931 -0.731303 -2.36133 0
M  V30 17 N -3.34364 0.785366 -1.11794 0
M  V30 18 H -5.42489 2.06439 0.38813 0
M  V30 19 H -4.12662 2.69069 1.44657 0
M  V30 20 H -0.987918 -2.29413 -0.123172 0
M  V30 21 H -1.27357 -1.72128 1.52834 0
M  V30 22 H 0.970799 -1.24438 -1.4087 0
M  V30 23 H 5.26972 1.08112 -1.10878 0
M  V30 24 H 5.43877 -0.532675 -0.295031 0
M  V30 25 H 2.36058 0.794702 2.83736 0
M  V30 26 H 0.119103 -0.179971 2.63181 0
M  V30 27 H -1.53167 -0.119108 -3.10762 0
M  V30 28 H -1.91146 -1.75617 -2.51771 0
M  V30 END ATOM
M  V30 BEGIN BOND
M  V30 1 1 1 2
M  V30 2 2 2 3
M  V30 3 1 3 4
M  V30 4 1 4 5
M  V30 5 1 5 6
M  V30 6 2 6 7
M  V30 7 1 7 8
M  V30 8 2 8 9
M  V30 9 1 9 10
M  V30 10 1 10 11
M  V30 11 1 11 12
M  V30 12 1 9 13
M  V30 13 2 13 14
M  V30 14 1 4 15
M  V30 15 1 15 16
M  V30 16 2 15 17
M  V30 17 1 17 2
M  V30 18 1 14 6
M  V30 19 1 12 8
M  V30 20 1 1 18
M  V30 21 1 1 19
M  V30 22 1 5 20
M  V30 23 1 5 21
M  V30 24 1 7 22
M  V30 25 1 11 23
M  V30 26 1 11 24
M  V30 27 1 13 25
M  V30 28 1 14 26
M  V30 29 1 16 27
M  V30 30 1 16 28
M  V30 END BOND
M  V30 END CTAB
M  END
