
     RDKit          3D

  0  0  0  0  0  0  0  0  0  0999 V3000
M  V30 BEGIN CTAB
M  V30 COUNTS 45 46 0 0 0
M  V30 BEGIN ATOM
M  V30 1 O 1.65915 -2.38714 0.642555 0
M  V30 2 C 1.42215 -1.13509 0.509701 0
M  V30 3 N 2.45887 -0.229978 0.30418 0
M  V30 4 C 3.85451 -0.492612 0.210034 0
M  V30 5 C 4.442 -1.72515 0.307517 0
M  V30 6 C 5.83545 -1.88324 0.200496 0
M  V30 7 C 6.67609 -0.819562 -0.00584722 0
M  V30 8 C 6.09128 0.420266 -0.10446 0
M  V30 9 C 4.73043 0.585014 -0.00120008 0
M  V30 10 C 4.16551 1.95306 -0.117288 0
M  V30 11 C 8.14789 -1.00635 -0.116473 0
M  V30 12 N 0.0741706 -0.775846 0.58758 0
M  V30 13 C -0.523625 0.480537 0.48705 0
M  V30 14 O 0.0912551 1.53466 0.301253 0
M  V30 15 C -2.02497 0.609703 0.607523 0
M  V30 16 S -2.74212 -0.37504 -0.719706 0
M  V30 17 C -4.52664 -0.295484 -0.674947 0
M  V30 18 N -5.20822 -1.19671 0.0543776 0
M  V30 19 C -6.56887 -1.19078 0.130103 0
M  V30 20 N -7.28207 -2.14048 0.898413 0
M  V30 21 C -7.20581 -0.200268 -0.589703 0
M  V30 22 C -6.54131 0.739448 -1.34744 0
M  V30 23 N -5.1808 0.656377 -1.36418 0
M  V30 24 N -7.22951 1.74348 -2.0746 0
M  V30 25 C -2.46792 2.03304 0.615573 0
M  V30 26 H 2.19317 0.786151 0.202944 0
M  V30 27 H 3.86931 -2.6084 0.467431 0
M  V30 28 H 6.28354 -2.8658 0.280055 0
M  V30 29 H 6.76799 1.26741 -0.269416 0
M  V30 30 H 3.56189 2.17888 0.789033 0
M  V30 31 H 3.50247 1.95142 -1.01096 0
M  V30 32 H 4.96416 2.69071 -0.170821 0
M  V30 33 H 8.39199 -1.9592 -0.661788 0
M  V30 34 H 8.64732 -1.00136 0.873016 0
M  V30 35 H 8.56597 -0.187844 -0.735761 0
M  V30 36 H -0.6324 -1.59709 0.752859 0
M  V30 37 H -2.36267 0.152288 1.57912 0
M  V30 38 H -8.20219 -1.93663 1.32524 0
M  V30 39 H -6.86804 -3.07799 1.0404 0
M  V30 40 H -8.28389 -0.167546 -0.551151 0
M  V30 41 H -7.35294 2.67466 -1.64147 0
M  V30 42 H -7.58981 1.52893 -3.01061 0
M  V30 43 H -3.43465 2.14466 1.13427 0
M  V30 44 H -2.44092 2.51584 -0.376054 0
M  V30 45 H -1.72715 2.60907 1.24316 0
M  V30 END ATOM
M  V30 BEGIN BOND
M  V30 1 2 1 2
M  V30 2 1 2 3
M  V30 3 1 3 4
M  V30 4 2 4 5
M  V30 5 1 5 6
M  V30 6 2 6 7
M  V30 7 1 7 8
M  V30 8 2 8 9
M  V30 9 1 9 10
M  V30 10 1 7 11
M  V30 11 1 2 12
M  V30 12 1 12 13
M  V30 13 2 13 14
M  V30 14 1 13 15
M  V30 15 1 15 16
M  V30 16 1 16 17
M  V30 17 2 17 18
M  V30 18 1 18 19
M  V30 19 1 19 20
M  V30 20 2 19 21
M  V30 21 1 21 22
M  V30 22 2 22 23
M  V30 23 1 22 24
M  V30 24 1 15 25
M  V30 25 1 9 4
M  V30 26 1 23 17
M  V30 27 1 3 26
M  V30 28 1 5 27
M  V30 29 1 6 28
M  V30 30 1 8 29
M  V30 31 1 10 30
M  V30 32 1 10 31
M  V30 33 1 10 32
M  V30 34 1 11 33
M  V30 35 1 11 34
M  V30 36 1 11 35
M  V30 37 1 12 36
M  V30 38 1 15 37
M  V30 39 1 20 38
M  V30 40 1 20 39
M  V30 41 1 21 40
M  V30 42 1 24 41
M  V30 43 1 24 42
M  V30 44 1 25 43
M  V30 45 1 25 44
M  V30 46 1 25 45
M  V30 END BOND
M  V30 END CTAB
M  END
