
     RDKit          3D

  0  0  0  0  0  0  0  0  0  0999 V3000
M  V30 BEGIN CTAB
M  V30 COUNTS 38 37 0 0 0
M  V30 BEGIN ATOM
M  V30 1 N -6.21139 -1.39367 -1.04107 0
M  V30 2 C -5.50025 -0.14946 -0.813081 0
M  V30 3 C -4.03591 -0.457649 -0.669954 0
M  V30 4 C -3.19973 0.754904 -0.42741 0
M  V30 5 C -1.74672 0.307775 -0.296038 0
M  V30 6 C -0.835241 1.46493 -0.0395719 0
M  V30 7 C 0.5868 0.9735 0.0811885 0
M  V30 8 N 0.762449 0.0338702 1.15647 0
M  V30 9 C 2.17645 -0.276941 1.27847 0
M  V30 10 C 2.71597 -1.0563 0.1241 0
M  V30 11 C 4.16631 -1.38935 0.320331 0
M  V30 12 C 4.96946 -0.13186 0.449837 0
M  V30 13 N 6.3678 -0.507305 0.623464 0
M  V30 14 H -5.90785 -2.13527 -0.347406 0
M  V30 15 H -7.2448 -1.25167 -0.8204 0
M  V30 16 H -5.67573 0.513278 -1.69621 0
M  V30 17 H -5.92177 0.359688 0.0734496 0
M  V30 18 H -3.93513 -1.18927 0.161504 0
M  V30 19 H -3.70159 -0.928332 -1.6211 0
M  V30 20 H -3.53987 1.34648 0.433747 0
M  V30 21 H -3.30922 1.4366 -1.31893 0
M  V30 22 H -1.62873 -0.426528 0.514233 0
M  V30 23 H -1.49599 -0.163145 -1.26445 0
M  V30 24 H -1.08545 1.96108 0.942901 0
M  V30 25 H -0.938273 2.27266 -0.781747 0
M  V30 26 H 1.23662 1.85506 0.161258 0
M  V30 27 H 0.897282 0.440752 -0.868864 0
M  V30 28 H 0.275009 -0.889263 0.942447 0
M  V30 29 H 2.69615 0.724389 1.2613 0
M  V30 30 H 2.43474 -0.716748 2.25514 0
M  V30 31 H 2.64954 -0.508836 -0.841931 0
M  V30 32 H 2.17843 -2.02137 -0.053475 0
M  V30 33 H 4.26234 -1.99934 1.25401 0
M  V30 34 H 4.56743 -1.98578 -0.531867 0
M  V30 35 H 4.65579 0.45705 1.3543 0
M  V30 36 H 4.86364 0.52352 -0.430265 0
M  V30 37 H 6.51864 -1.5393 0.589678 0
M  V30 38 H 6.9328 -0.0756087 -0.114058 0
M  V30 END ATOM
M  V30 BEGIN BOND
M  V30 1 1 1 2
M  V30 2 1 2 3
M  V30 3 1 3 4
M  V30 4 1 4 5
M  V30 5 1 5 6
M  V30 6 1 6 7
M  V30 7 1 7 8
M  V30 8 1 8 9
M  V30 9 1 9 10
M  V30 10 1 10 11
M  V30 11 1 11 12
M  V30 12 1 12 13
M  V30 13 1 1 14
M  V30 14 1 1 15
M  V30 15 1 2 16
M  V30 16 1 2 17
M  V30 17 1 3 18
M  V30 18 1 3 19
M  V30 19 1 4 20
M  V30 20 1 4 21
M  V30 21 1 5 22
M  V30 22 1 5 23
M  V30 23 1 6 24
M  V30 24 1 6 25
M  V30 25 1 7 26
M  V30 26 1 7 27
M  V30 27 1 8 28
M  V30 28 1 9 29
M  V30 29 1 9 30
M  V30 30 1 10 31
M  V30 31 1 10 32
M  V30 32 1 11 33
M  V30 33 1 11 34
M  V30 34 1 12 35
M  V30 35 1 12 36
M  V30 36 1 13 37
M  V30 37 1 13 38
M  V30 END BOND
M  V30 END CTAB
M  END
