
     RDKit          3D

  0  0  0  0  0  0  0  0  0  0999 V3000
M  V30 BEGIN CTAB
M  V30 COUNTS 21 21 0 0 0
M  V30 BEGIN ATOM
M  V30 1 C -3.13897 0.337161 -0.094105 0
M  V30 2 C -1.73089 -0.225605 -0.0347971 0
M  V30 3 C -0.790215 0.944475 -0.196935 0
M  V30 4 C 0.647558 0.505312 -0.154201 0
M  V30 5 C 1.62225 0.716948 -1.10105 0
M  V30 6 N 2.80581 0.245345 -0.854967 0
M  V30 7 C 3.03344 -0.408642 0.271516 0
M  V30 8 S 1.50752 -0.364014 1.03359 0
M  V30 9 N 4.28921 -0.981166 0.670862 0
M  V30 10 F -0.987191 1.81683 0.85256 0
M  V30 11 N -1.59356 -0.909892 1.20049 0
M  V30 12 H -3.88 -0.450887 -0.368099 0
M  V30 13 H -3.19343 1.21194 -0.796343 0
M  V30 14 H -3.3971 0.642167 0.943208 0
M  V30 15 H -1.55944 -0.887039 -0.93298 0
M  V30 16 H -0.993587 1.49222 -1.1334 0
M  V30 17 H 1.40919 1.27258 -2.04724 0
M  V30 18 H 5.09037 -0.376205 0.955912 0
M  V30 19 H 4.44877 -2.01181 0.691714 0
M  V30 20 H -2.25063 -0.661505 1.94366 0
M  V30 21 H -1.33911 -1.90822 1.14017 0
M  V30 END ATOM
M  V30 BEGIN BOND
M  V30 1 1 1 2
M  V30 2 1 2 3
M  V30 3 1 3 4
M  V30 4 2 4 5
M  V30 5 1 5 6
M  V30 6 2 6 7
M  V30 7 1 7 8
M  V30 8 1 7 9
M  V30 9 1 3 10
M  V30 10 1 2 11
M  V30 11 1 8 4
M  V30 12 1 1 12
M  V30 13 1 1 13
M  V30 14 1 1 14
M  V30 15 1 2 15
M  V30 16 1 3 16
M  V30 17 1 5 17
M  V30 18 1 9 18
M  V30 19 1 9 19
M  V30 20 1 11 20
M  V30 21 1 11 21
M  V30 END BOND
M  V30 END CTAB
M  END
