
     RDKit          3D

  0  0  0  0  0  0  0  0  0  0999 V3000
M  V30 BEGIN CTAB
M  V30 COUNTS 22 22 0 0 0
M  V30 BEGIN ATOM
M  V30 1 C 3.19949 0.776478 -0.620795 0
M  V30 2 C 1.95447 0.0358834 -0.211992 0
M  V30 3 C 1.92245 -1.29324 0.154214 0
M  V30 4 C 0.622666 -1.57828 0.448468 0
M  V30 5 C -0.100435 -0.421343 0.255006 0
M  V30 6 O 0.745355 0.485218 -0.13225 0
M  V30 7 C -1.55876 -0.34335 0.47715 0
M  V30 8 C -2.17386 0.882117 -0.149051 0
M  V30 9 N -1.64025 2.10736 0.353775 0
M  V30 10 N -2.17311 -1.5168 -0.129004 0
M  V30 11 H 3.53673 1.46856 0.166872 0
M  V30 12 H 4.01854 0.0542105 -0.798897 0
M  V30 13 H 3.03026 1.29292 -1.60268 0
M  V30 14 H 2.78635 -1.95017 0.188434 0
M  V30 15 H 0.236328 -2.55538 0.778214 0
M  V30 16 H -1.75741 -0.398057 1.56307 0
M  V30 17 H -2.0668 0.830939 -1.25054 0
M  V30 18 H -3.27695 0.810974 0.0435389 0
M  V30 19 H -1.11662 1.88621 1.2417 0
M  V30 20 H -0.906516 2.43539 -0.326638 0
M  V30 21 H -3.18834 -1.58956 0.0772067 0
M  V30 22 H -2.09359 -1.42008 -1.17465 0
M  V30 END ATOM
M  V30 BEGIN BOND
M  V30 1 1 1 2
M  V30 2 2 2 3
M  V30 3 1 3 4
M  V30 4 2 4 5
M  V30 5 1 5 6
M  V30 6 1 5 7
M  V30 7 1 7 8
M  V30 8 1 8 9
M  V30 9 1 7 10
M  V30 10 1 6 2
M  V30 11 1 1 11
M  V30 12 1 1 12
M  V30 13 1 1 13
M  V30 14 1 3 14
M  V30 15 1 4 15
M  V30 16 1 7 16
M  V30 17 1 8 17
M  V30 18 1 8 18
M  V30 19 1 9 19
M  V30 20 1 9 20
M  V30 21 1 10 21
M  V30 22 1 10 22
M  V30 END BOND
M  V30 END CTAB
M  END
