
     RDKit          3D

  0  0  0  0  0  0  0  0  0  0999 V3000
M  V30 BEGIN CTAB
M  V30 COUNTS 30 31 0 0 0
M  V30 BEGIN ATOM
M  V30 1 N -3.75089 -1.86152 -0.686139 0
M  V30 2 C -2.91748 -0.715693 -0.738488 0
M  V30 3 C -1.59999 -0.770438 -0.706601 0
M  V30 4 C -0.995073 -2.09631 -0.611054 0
M  V30 5 N -0.50318 -3.14113 -0.542001 0
M  V30 6 C -0.72228 0.393689 -0.769582 0
M  V30 7 C 0.667219 -0.00790765 -0.383744 0
M  V30 8 C 0.935587 -0.545513 0.868368 0
M  V30 9 C 2.20106 -0.927388 1.26105 0
M  V30 10 C 3.25571 -0.770142 0.371151 0
M  V30 11 C 3.00845 -0.237565 -0.877839 0
M  V30 12 C 1.73086 0.137367 -1.24715 0
M  V30 13 N 4.56712 -1.15484 0.749833 0 CHG=1
M  V30 14 O 4.82528 -1.68215 1.98024 0 CHG=-1
M  V30 15 O 5.50343 -1.00737 -0.0603114 0
M  V30 16 C -1.14763 1.56606 0.0236279 0
M  V30 17 C -0.155814 2.30666 0.742595 0
M  V30 18 N 0.65544 2.91832 1.31004 0
M  V30 19 C -2.4218 1.94605 0.0842177 0
M  V30 20 N -2.76335 3.06066 0.848009 0
M  V30 21 S -3.62561 0.950303 -0.845245 0
M  V30 22 H -3.50631 -2.77105 -1.12418 0
M  V30 23 H -4.65505 -1.79389 -0.18463 0
M  V30 24 H -0.627839 0.790237 -1.82818 0
M  V30 25 H 0.0756305 -0.647671 1.52725 0
M  V30 26 H 2.36543 -1.34274 2.24833 0
M  V30 27 H 3.85471 -0.129726 -1.54496 0
M  V30 28 H 1.56826 0.552233 -2.23393 0
M  V30 29 H -3.12706 2.92466 1.8294 0
M  V30 30 H -2.69484 4.05682 0.539914 0
M  V30 END ATOM
M  V30 BEGIN BOND
M  V30 1 1 1 2
M  V30 2 2 2 3
M  V30 3 1 3 4
M  V30 4 3 4 5
M  V30 5 1 3 6
M  V30 6 1 6 7
M  V30 7 2 7 8
M  V30 8 1 8 9
M  V30 9 2 9 10
M  V30 10 1 10 11
M  V30 11 2 11 12
M  V30 12 1 10 13
M  V30 13 1 13 14
M  V30 14 2 13 15
M  V30 15 1 6 16
M  V30 16 1 16 17
M  V30 17 3 17 18
M  V30 18 2 16 19
M  V30 19 1 19 20
M  V30 20 1 19 21
M  V30 21 1 21 2
M  V30 22 1 12 7
M  V30 23 1 1 22
M  V30 24 1 1 23
M  V30 25 1 6 24
M  V30 26 1 8 25
M  V30 27 1 9 26
M  V30 28 1 11 27
M  V30 29 1 12 28
M  V30 30 1 20 29
M  V30 31 1 20 30
M  V30 END BOND
M  V30 END CTAB
M  END
