
     RDKit          3D

  0  0  0  0  0  0  0  0  0  0999 V3000
M  V30 BEGIN CTAB
M  V30 COUNTS 35 37 0 0 0
M  V30 BEGIN ATOM
M  V30 1 C -5.95864 -2.29329 -1.67313 0
M  V30 2 C -4.59601 -1.72172 -1.77461 0
M  V30 3 C -3.65544 -2.00879 -0.813078 0
M  V30 4 C -2.39617 -1.46659 -0.926994 0
M  V30 5 C -1.22071 -1.51118 -0.200337 0
M  V30 6 C -0.273514 -0.738804 -0.837195 0
M  V30 7 O -0.837046 -0.247547 -1.89591 0
M  V30 8 C -2.08394 -0.635533 -2.00859 0
M  V30 9 C -3.04109 -0.355982 -2.96791 0
M  V30 10 C -4.30375 -0.894841 -2.86094 0
M  V30 11 Br -2.68145 0.769223 -4.46629 0
M  V30 12 C 1.10229 -0.527151 -0.386029 0
M  V30 13 O 1.8593 0.207434 -1.07561 0
M  V30 14 O 1.63205 -1.08163 0.753057 0
M  V30 15 C 2.92266 -0.928337 1.25107 0
M  V30 16 C 3.27539 0.464361 1.57189 0
M  V30 17 N 4.55477 0.760488 1.80748 0
M  V30 18 C 4.90264 2.02092 2.10888 0
M  V30 19 N 6.28164 2.35143 2.36298 0
M  V30 20 N 3.98161 2.98105 2.17563 0
M  V30 21 C 2.69171 2.66926 1.93557 0
M  V30 22 N 2.3288 1.39917 1.62979 0
M  V30 23 N 1.66386 3.63922 1.98921 0
M  V30 24 H -6.6142 -1.6907 -0.988091 0
M  V30 25 H -6.43162 -2.43466 -2.65946 0
M  V30 26 H -5.83325 -3.32425 -1.24213 0
M  V30 27 H -3.88929 -2.64675 0.0214666 0
M  V30 28 H -1.09552 -2.07214 0.717842 0
M  V30 29 H -5.09499 -0.717695 -3.57272 0
M  V30 30 H 2.95364 -1.48939 2.23206 0
M  V30 31 H 3.70747 -1.40233 0.633346 0
M  V30 32 H 6.60185 3.32687 2.27767 0
M  V30 33 H 6.97532 1.62564 2.63404 0
M  V30 34 H 1.86037 4.62201 1.74857 0
M  V30 35 H 0.711267 3.35226 2.27304 0
M  V30 END ATOM
M  V30 BEGIN BOND
M  V30 1 1 1 2
M  V30 2 2 2 3
M  V30 3 1 3 4
M  V30 4 1 4 5
M  V30 5 2 5 6
M  V30 6 1 6 7
M  V30 7 1 7 8
M  V30 8 1 8 9
M  V30 9 2 9 10
M  V30 10 1 9 11
M  V30 11 1 6 12
M  V30 12 2 12 13
M  V30 13 1 12 14
M  V30 14 1 14 15
M  V30 15 1 15 16
M  V30 16 2 16 17
M  V30 17 1 17 18
M  V30 18 1 18 19
M  V30 19 2 18 20
M  V30 20 1 20 21
M  V30 21 2 21 22
M  V30 22 1 21 23
M  V30 23 1 10 2
M  V30 24 1 22 16
M  V30 25 2 8 4
M  V30 26 1 1 24
M  V30 27 1 1 25
M  V30 28 1 1 26
M  V30 29 1 3 27
M  V30 30 1 5 28
M  V30 31 1 10 29
M  V30 32 1 15 30
M  V30 33 1 15 31
M  V30 34 1 19 32
M  V30 35 1 19 33
M  V30 36 1 23 34
M  V30 37 1 23 35
M  V30 END BOND
M  V30 END CTAB
M  END
