
     RDKit          3D

  0  0  0  0  0  0  0  0  0  0999 V3000
M  V30 BEGIN CTAB
M  V30 COUNTS 24 24 0 0 0
M  V30 BEGIN ATOM
M  V30 1 N 3.53157 2.54229 1.18039 0
M  V30 2 N 3.8394 1.19078 1.2723 0
M  V30 3 C 2.99895 0.251445 1.02015 0
M  V30 4 S 1.34753 0.686132 0.525311 0
M  V30 5 C 0.339659 -0.796049 0.22342 0
M  V30 6 C -1.04533 -0.421845 -0.191498 0
M  V30 7 C -1.54514 0.783804 -0.341357 0
M  V30 8 C -2.9867 0.735668 -0.772191 0
M  V30 9 C -3.3679 -0.67812 -0.306758 0
M  V30 10 C -2.08376 -1.42257 -0.510779 0
M  V30 11 N 3.40523 -1.09694 1.14161 0
M  V30 12 H 3.65654 3.22852 1.95941 0
M  V30 13 H 3.15312 2.89619 0.282036 0
M  V30 14 H 0.34695 -1.40043 1.15313 0
M  V30 15 H 0.796622 -1.4026 -0.573581 0
M  V30 16 H -0.965567 1.68958 -0.16851 0
M  V30 17 H -3.59394 1.45086 -0.214848 0
M  V30 18 H -3.0751 0.811015 -1.86023 0
M  V30 19 H -3.65842 -0.683042 0.76026 0
M  V30 20 H -4.19288 -1.07105 -0.90183 0
M  V30 21 H -2.04391 -2.30778 0.176257 0
M  V30 22 H -1.96675 -1.77391 -1.55744 0
M  V30 23 H 3.40129 -1.53251 2.08582 0
M  V30 24 H 3.70851 -1.67945 0.338821 0
M  V30 END ATOM
M  V30 BEGIN BOND
M  V30 1 1 1 2
M  V30 2 2 2 3 CFG=2
M  V30 3 1 3 4
M  V30 4 1 4 5
M  V30 5 1 5 6
M  V30 6 2 6 7
M  V30 7 1 7 8
M  V30 8 1 8 9
M  V30 9 1 9 10
M  V30 10 1 3 11
M  V30 11 1 10 6
M  V30 12 1 1 12
M  V30 13 1 1 13
M  V30 14 1 5 14
M  V30 15 1 5 15
M  V30 16 1 7 16
M  V30 17 1 8 17
M  V30 18 1 8 18
M  V30 19 1 9 19
M  V30 20 1 9 20
M  V30 21 1 10 21
M  V30 22 1 10 22
M  V30 23 1 11 23
M  V30 24 1 11 24
M  V30 END BOND
M  V30 END CTAB
M  END
