
     RDKit          3D

  0  0  0  0  0  0  0  0  0  0999 V3000
M  V30 BEGIN CTAB
M  V30 COUNTS 16 16 0 0 0
M  V30 BEGIN ATOM
M  V30 1 N -2.08405 -0.892586 -0.0802365 0
M  V30 2 C -0.672608 -0.623817 -0.0463413 0
M  V30 3 C 0.246536 -1.65341 -0.101399 0
M  V30 4 C 1.5813 -1.30957 -0.0635879 0
M  V30 5 C 1.9709 -0.00057599 0.0248457 0
M  V30 6 C 1.04566 1.03082 0.0799423 0
M  V30 7 C -0.290616 0.701014 0.0430117 0
M  V30 8 N -1.26984 1.75124 0.098668 0
M  V30 9 Br 1.60997 2.86837 0.204291 0
M  V30 10 I 4.00895 0.563921 0.0851439 0
M  V30 11 H -2.57439 -0.890528 -0.980931 0
M  V30 12 H -2.5259 -1.07769 0.849744 0
M  V30 13 H -0.107009 -2.67356 -0.170909 0
M  V30 14 H 2.33348 -2.07985 -0.104029 0
M  V30 15 H -1.6445 2.12765 -0.806513 0
M  V30 16 H -1.6279 2.15858 0.968299 0
M  V30 END ATOM
M  V30 BEGIN BOND
M  V30 1 1 1 2
M  V30 2 2 2 3
M  V30 3 1 3 4
M  V30 4 2 4 5
M  V30 5 1 5 6
M  V30 6 2 6 7
M  V30 7 1 7 8
M  V30 8 1 6 9
M  V30 9 1 5 10
M  V30 10 1 7 2
M  V30 11 1 1 11
M  V30 12 1 1 12
M  V30 13 1 3 13
M  V30 14 1 4 14
M  V30 15 1 8 15
M  V30 16 1 8 16
M  V30 END BOND
M  V30 END CTAB
M  END
