
     RDKit          3D

  0  0  0  0  0  0  0  0  0  0999 V3000
M  V30 BEGIN CTAB
M  V30 COUNTS 92 94 0 0 0
M  V30 BEGIN ATOM
M  V30 1 C -6.45128 0.428513 -2.42552 0
M  V30 2 C -6.58592 -0.354739 -1.15056 0
M  V30 3 C -8.0177 -0.722472 -0.948081 0
M  V30 4 Si -5.88365 0.575037 0.308367 0 VAL=4
M  V30 5 C -4.05536 0.496372 0.309361 0
M  V30 6 C -2.84647 0.432072 0.299605 0
M  V30 7 C -1.40418 0.330191 0.288825 0
M  V30 8 C -0.656492 0.976876 1.24895 0
M  V30 9 N -1.32628 1.73012 2.22728 0
M  V30 10 C 0.733146 0.87221 1.2313 0
M  V30 11 N 1.51947 1.52971 2.20973 0
M  V30 12 C 1.39466 0.133607 0.272865 0
M  V30 13 C 2.8285 0.0411485 0.275421 0
M  V30 14 C 4.03131 -0.0573832 0.280359 0
M  V30 15 Si 5.86412 -0.23848 0.29525 0 VAL=4
M  V30 16 C 6.27287 -1.55636 1.5218 0
M  V30 17 C 5.92068 -1.07917 2.91363 0
M  V30 18 C 7.64697 -2.1201 1.40728 0
M  V30 19 C 6.45393 -0.747551 -1.4237 0
M  V30 20 C 7.9219 -0.528324 -1.51697 0
M  V30 21 C 5.73408 0.112448 -2.43003 0
M  V30 22 C 6.5673 1.41585 0.677905 0
M  V30 23 C 7.33705 1.49285 1.96668 0
M  V30 24 C 5.49922 2.49973 0.749625 0
M  V30 25 C 0.644438 -0.52196 -0.699873 0
M  V30 26 C 1.2564 -1.27533 -1.68355 0
M  V30 27 C 0.547657 -1.93415 -2.65719 0
M  V30 28 C 1.22363 -2.67143 -3.61261 0
M  V30 29 C 0.486504 -3.32084 -4.57552 0
M  V30 30 C -0.892441 -3.22164 -4.56424 0
M  V30 31 C -1.55218 -2.48081 -3.60243 0
M  V30 32 C -0.827346 -1.82528 -2.63224 0
M  V30 33 C -1.43458 -1.07131 -1.64736 0
M  V30 34 C -0.730056 -0.405225 -0.664171 0
M  V30 35 C -6.47416 -0.223157 1.86914 0
M  V30 36 C -6.29763 -1.71379 1.80579 0
M  V30 37 C -5.75585 0.306976 3.08843 0
M  V30 38 C -6.39141 2.34748 0.205493 0
M  V30 39 C -7.77139 2.57966 0.790246 0
M  V30 40 C -5.34453 3.19949 0.857934 0
M  V30 41 H -6.04643 -0.267552 -3.21106 0
M  V30 42 H -5.67506 1.22 -2.28538 0
M  V30 43 H -7.40966 0.829037 -2.78564 0
M  V30 44 H -6.00418 -1.31383 -1.21452 0
M  V30 45 H -8.5059 -0.763856 -1.96581 0
M  V30 46 H -8.60546 0.0114619 -0.371811 0
M  V30 47 H -8.11733 -1.76402 -0.556812 0
M  V30 48 H -1.55687 1.28545 3.13803 0
M  V30 49 H -1.60163 2.71727 2.0773 0
M  V30 50 H 1.84795 1.05502 3.08161 0
M  V30 51 H 1.76262 2.53578 2.01572 0
M  V30 52 H 5.56505 -2.41313 1.3008 0
M  V30 53 H 5.49242 -1.94669 3.49758 0
M  V30 54 H 6.80729 -0.758142 3.47757 0
M  V30 55 H 5.12842 -0.302783 2.87315 0
M  V30 56 H 7.99653 -2.35886 2.44963 0
M  V30 57 H 7.65954 -3.10884 0.880794 0
M  V30 58 H 8.33674 -1.39877 0.975026 0
M  V30 59 H 6.16322 -1.79587 -1.60831 0
M  V30 60 H 8.34151 0.192161 -0.818014 0
M  V30 61 H 8.1361 -0.143756 -2.55681 0
M  V30 62 H 8.42018 -1.52237 -1.4862 0
M  V30 63 H 5.39824 -0.492442 -3.29425 0
M  V30 64 H 6.3965 0.914869 -2.82641 0
M  V30 65 H 4.83073 0.594566 -2.00024 0
M  V30 66 H 7.26577 1.77553 -0.134781 0
M  V30 67 H 6.64875 1.54744 2.8429 0
M  V30 68 H 8.10301 0.701679 2.08843 0
M  V30 69 H 7.94479 2.44583 1.90329 0
M  V30 70 H 4.79702 2.42615 -0.104172 0
M  V30 71 H 6.02512 3.47451 0.679543 0
M  V30 72 H 5.01044 2.47009 1.7339 0
M  V30 73 H 2.33523 -1.36126 -1.70432 0
M  V30 74 H 2.31516 -2.7512 -3.6236 0
M  V30 75 H 0.980769 -3.90611 -5.33802 0
M  V30 76 H -1.46112 -3.74308 -5.33573 0
M  V30 77 H -2.63528 -2.38995 -3.57611 0
M  V30 78 H -2.51922 -0.984383 -1.62594 0
M  V30 79 H -7.56289 -0.00843285 1.97077 0
M  V30 80 H -5.49341 -1.91413 1.04345 0
M  V30 81 H -7.21423 -2.27289 1.6075 0
M  V30 82 H -5.87483 -2.11516 2.76584 0
M  V30 83 H -6.45609 0.480866 3.93623 0
M  V30 84 H -5.0131 -0.429955 3.40343 0
M  V30 85 H -5.19354 1.23752 2.82057 0
M  V30 86 H -6.40622 2.63993 -0.882562 0
M  V30 87 H -7.93776 1.98508 1.69894 0
M  V30 88 H -7.83381 3.6502 1.07377 0
M  V30 89 H -8.52892 2.41834 -0.000643296 0
M  V30 90 H -5.18326 4.14027 0.292916 0
M  V30 91 H -5.65458 3.40973 1.91177 0
M  V30 92 H -4.40323 2.63783 0.89947 0
M  V30 END ATOM
M  V30 BEGIN BOND
M  V30 1 1 1 2
M  V30 2 1 2 3
M  V30 3 1 2 4
M  V30 4 1 4 5
M  V30 5 3 5 6
M  V30 6 1 6 7
M  V30 7 2 7 8
M  V30 8 1 8 9
M  V30 9 1 8 10
M  V30 10 1 10 11
M  V30 11 2 10 12
M  V30 12 1 12 13
M  V30 13 3 13 14
M  V30 14 1 14 15
M  V30 15 1 15 16
M  V30 16 1 16 17
M  V30 17 1 16 18
M  V30 18 1 15 19
M  V30 19 1 19 20
M  V30 20 1 19 21
M  V30 21 1 15 22
M  V30 22 1 22 23
M  V30 23 1 22 24
M  V30 24 1 12 25
M  V30 25 2 25 26
M  V30 26 1 26 27
M  V30 27 2 27 28
M  V30 28 1 28 29
M  V30 29 2 29 30
M  V30 30 1 30 31
M  V30 31 2 31 32
M  V30 32 1 32 33
M  V30 33 2 33 34
M  V30 34 1 4 35
M  V30 35 1 35 36
M  V30 36 1 35 37
M  V30 37 1 4 38
M  V30 38 1 38 39
M  V30 39 1 38 40
M  V30 40 1 34 7
M  V30 41 1 34 25
M  V30 42 1 32 27
M  V30 43 1 1 41
M  V30 44 1 1 42
M  V30 45 1 1 43
M  V30 46 1 2 44
M  V30 47 1 3 45
M  V30 48 1 3 46
M  V30 49 1 3 47
M  V30 50 1 9 48
M  V30 51 1 9 49
M  V30 52 1 11 50
M  V30 53 1 11 51
M  V30 54 1 16 52
M  V30 55 1 17 53
M  V30 56 1 17 54
M  V30 57 1 17 55
M  V30 58 1 18 56
M  V30 59 1 18 57
M  V30 60 1 18 58
M  V30 61 1 19 59
M  V30 62 1 20 60
M  V30 63 1 20 61
M  V30 64 1 20 62
M  V30 65 1 21 63
M  V30 66 1 21 64
M  V30 67 1 21 65
M  V30 68 1 22 66
M  V30 69 1 23 67
M  V30 70 1 23 68
M  V30 71 1 23 69
M  V30 72 1 24 70
M  V30 73 1 24 71
M  V30 74 1 24 72
M  V30 75 1 26 73
M  V30 76 1 28 74
M  V30 77 1 29 75
M  V30 78 1 30 76
M  V30 79 1 31 77
M  V30 80 1 33 78
M  V30 81 1 35 79
M  V30 82 1 36 80
M  V30 83 1 36 81
M  V30 84 1 36 82
M  V30 85 1 37 83
M  V30 86 1 37 84
M  V30 87 1 37 85
M  V30 88 1 38 86
M  V30 89 1 39 87
M  V30 90 1 39 88
M  V30 91 1 39 89
M  V30 92 1 40 90
M  V30 93 1 40 91
M  V30 94 1 40 92
M  V30 END BOND
M  V30 END CTAB
M  END
