
     RDKit          3D

  0  0  0  0  0  0  0  0  0  0999 V3000
M  V30 BEGIN CTAB
M  V30 COUNTS 25 26 0 0 0
M  V30 BEGIN ATOM
M  V30 1 N -4.08744 -0.712993 -0.396129 0
M  V30 2 C -2.67809 -0.571802 -0.316599 0
M  V30 3 C -2.12587 0.688254 -0.309882 0
M  V30 4 N -2.93203 1.85351 -0.380653 0
M  V30 5 C -0.773855 0.827921 -0.233664 0
M  V30 6 O -0.188567 1.96087 -0.222428 0
M  V30 7 N -0.0140208 -0.276395 -0.166832 0
M  V30 8 N -0.523359 -1.51141 -0.17155 0
M  V30 9 C -1.84988 -1.67282 -0.245834 0
M  V30 10 C 1.39425 -0.192082 -0.0861964 0
M  V30 11 C 2.21428 -0.789341 -1.01695 0
M  V30 12 C 3.59296 -0.708663 -0.940837 0
M  V30 13 C 4.15113 0.00305753 0.117147 0
M  V30 14 C 3.33429 0.602267 1.05075 0
M  V30 15 C 1.95809 0.501544 0.944233 0
M  V30 16 H -4.47969 -1.09077 -1.28418 0
M  V30 17 H -4.68767 -0.446472 0.405656 0
M  V30 18 H -3.23852 2.28228 0.517216 0
M  V30 19 H -3.18506 2.23332 -1.31619 0
M  V30 20 H -2.28255 -2.67607 -0.25078 0
M  V30 21 H 1.75454 -1.33684 -1.82981 0
M  V30 22 H 4.21337 -1.18574 -1.68314 0
M  V30 23 H 5.23875 0.0567882 0.1622 0
M  V30 24 H 3.80575 1.15749 1.87488 0
M  V30 25 H 1.3892 1.00409 1.72333 0
M  V30 END ATOM
M  V30 BEGIN BOND
M  V30 1 1 1 2
M  V30 2 2 2 3
M  V30 3 1 3 4
M  V30 4 1 3 5
M  V30 5 2 5 6
M  V30 6 1 5 7
M  V30 7 1 7 8
M  V30 8 2 8 9
M  V30 9 1 7 10
M  V30 10 2 10 11
M  V30 11 1 11 12
M  V30 12 2 12 13
M  V30 13 1 13 14
M  V30 14 2 14 15
M  V30 15 1 9 2
M  V30 16 1 15 10
M  V30 17 1 1 16
M  V30 18 1 1 17
M  V30 19 1 4 18
M  V30 20 1 4 19
M  V30 21 1 9 20
M  V30 22 1 11 21
M  V30 23 1 12 22
M  V30 24 1 13 23
M  V30 25 1 14 24
M  V30 26 1 15 25
M  V30 END BOND
M  V30 END CTAB
M  END
