
     RDKit          3D

  0  0  0  0  0  0  0  0  0  0999 V3000
M  V30 BEGIN CTAB
M  V30 COUNTS 42 43 0 0 0
M  V30 BEGIN ATOM
M  V30 1 N -3.66431 1.90576 0.00524632 0
M  V30 2 C -4.74103 0.944993 -0.0353276 0
M  V30 3 C -4.23843 -0.46431 0.0503926 0
M  V30 4 C -3.33113 -0.765394 -1.08228 0
M  V30 5 C -1.86016 -0.51476 -0.841607 0
M  V30 6 N -1.35665 -1.02575 0.397984 0
M  V30 7 C -2.41262 -1.6501 1.23862 0
M  V30 8 C -3.5695 -0.680096 1.39498 0
M  V30 9 C -0.0605211 -1.01413 0.896367 0
M  V30 10 O 0.0435748 -1.57692 2.07454 0
M  V30 11 C 1.16131 -0.503081 0.356287 0
M  V30 12 C 1.27638 0.128848 -0.853744 0
M  V30 13 C 2.51545 0.594886 -1.30249 0
M  V30 14 C 3.66014 0.4252 -0.525573 0
M  V30 15 C 3.56797 -0.206126 0.692166 0
M  V30 16 C 2.3596 -0.650324 1.1093 0
M  V30 17 C 4.76793 -0.393117 1.52377 0
M  V30 18 S 5.19923 1.00014 -1.07349 0
M  V30 19 O 5.75653 2.1024 -0.202825 0
M  V30 20 O 6.18117 -0.105887 -1.28849 0
M  V30 21 N 4.96416 1.74021 -2.63961 0
M  V30 22 H -4.01995 2.75782 0.494757 0
M  V30 23 H -3.45132 2.19434 -0.972738 0
M  V30 24 H -5.49596 1.1517 0.772368 0
M  V30 25 H -5.27291 1.09387 -1.02137 0
M  V30 26 H -5.14226 -1.1185 0.0197973 0
M  V30 27 H -3.61579 -0.195037 -1.99126 0
M  V30 28 H -3.43969 -1.86303 -1.31883 0
M  V30 29 H -1.34324 -1.01998 -1.70965 0
M  V30 30 H -1.69256 0.573397 -0.930589 0
M  V30 31 H -2.68571 -2.58748 0.73863 0
M  V30 32 H -1.95044 -1.87541 2.20502 0
M  V30 33 H -4.30481 -1.15929 2.0629 0
M  V30 34 H -3.22541 0.245053 1.87548 0
M  V30 35 H 0.471589 0.31457 -1.5288 0
M  V30 36 H 2.57353 1.09124 -2.26549 0
M  V30 37 H 2.28862 -1.1494 2.07255 0
M  V30 38 H 5.677 0.0319819 1.1109 0
M  V30 39 H 4.95091 -1.50449 1.61247 0
M  V30 40 H 4.60903 -0.055944 2.57423 0
M  V30 41 H 4.38344 1.12195 -3.22028 0
M  V30 42 H 4.46684 2.6602 -2.51264 0
M  V30 END ATOM
M  V30 BEGIN BOND
M  V30 1 1 1 2
M  V30 2 1 2 3
M  V30 3 1 3 4
M  V30 4 1 4 5
M  V30 5 1 5 6
M  V30 6 1 6 7
M  V30 7 1 7 8
M  V30 8 1 6 9
M  V30 9 2 9 10
M  V30 10 1 9 11
M  V30 11 2 11 12
M  V30 12 1 12 13
M  V30 13 2 13 14
M  V30 14 1 14 15
M  V30 15 2 15 16
M  V30 16 1 15 17
M  V30 17 1 14 18
M  V30 18 2 18 19
M  V30 19 2 18 20
M  V30 20 1 18 21
M  V30 21 1 8 3
M  V30 22 1 16 11
M  V30 23 1 1 22
M  V30 24 1 1 23
M  V30 25 1 2 24
M  V30 26 1 2 25
M  V30 27 1 3 26
M  V30 28 1 4 27
M  V30 29 1 4 28
M  V30 30 1 5 29
M  V30 31 1 5 30
M  V30 32 1 7 31
M  V30 33 1 7 32
M  V30 34 1 8 33
M  V30 35 1 8 34
M  V30 36 1 12 35
M  V30 37 1 13 36
M  V30 38 1 16 37
M  V30 39 1 17 38
M  V30 40 1 17 39
M  V30 41 1 17 40
M  V30 42 1 21 41
M  V30 43 1 21 42
M  V30 END BOND
M  V30 END CTAB
M  END
