
     RDKit          3D

  0  0  0  0  0  0  0  0  0  0999 V3000
M  V30 BEGIN CTAB
M  V30 COUNTS 26 26 0 0 0
M  V30 BEGIN ATOM
M  V30 1 C 5.65826 0.334701 -0.138297 0
M  V30 2 O 4.28927 0.439161 -0.493691 0
M  V30 3 C 3.29369 -0.185242 0.26403 0
M  V30 4 O 3.6606 -0.830583 1.25481 0
M  V30 5 C 1.90388 -0.01677 -0.18721 0
M  V30 6 S 0.733589 -0.884306 0.897659 0
M  V30 7 C -0.936831 -0.63888 0.29477 0
M  V30 8 N -1.4998 -1.47886 -0.598222 0
M  V30 9 C -2.74985 -1.31675 -1.06579 0
M  V30 10 N -3.31987 -2.23011 -2.01704 0
M  V30 11 C -3.48828 -0.244715 -0.612326 0
M  V30 12 C -2.91678 0.627692 0.308933 0
M  V30 13 C -1.63308 0.442267 0.774956 0
M  V30 14 C -1.01816 1.32023 1.72094 0
M  V30 15 N -0.54169 2.03173 2.48303 0
M  V30 16 N -3.61693 1.74876 0.816974 0
M  V30 17 H 5.8339 0.715503 0.885308 0
M  V30 18 H 6.04858 -0.690477 -0.298784 0
M  V30 19 H 6.21374 1.02466 -0.831283 0
M  V30 20 H 1.74741 -0.394576 -1.20668 0
M  V30 21 H 1.59022 1.06592 -0.202654 0
M  V30 22 H -4.25744 -2.66649 -1.9152 0
M  V30 23 H -2.74352 -2.45406 -2.84919 0
M  V30 24 H -4.49827 -0.0602599 -0.950156 0
M  V30 25 H -3.83064 2.53996 0.180468 0
M  V30 26 H -3.922 1.80151 1.80648 0
M  V30 END ATOM
M  V30 BEGIN BOND
M  V30 1 1 1 2
M  V30 2 1 2 3
M  V30 3 2 3 4
M  V30 4 1 3 5
M  V30 5 1 5 6
M  V30 6 1 6 7
M  V30 7 2 7 8
M  V30 8 1 8 9
M  V30 9 1 9 10
M  V30 10 2 9 11
M  V30 11 1 11 12
M  V30 12 2 12 13
M  V30 13 1 13 14
M  V30 14 3 14 15
M  V30 15 1 12 16
M  V30 16 1 13 7
M  V30 17 1 1 17
M  V30 18 1 1 18
M  V30 19 1 1 19
M  V30 20 1 5 20
M  V30 21 1 5 21
M  V30 22 1 10 22
M  V30 23 1 10 23
M  V30 24 1 11 24
M  V30 25 1 16 25
M  V30 26 1 16 26
M  V30 END BOND
M  V30 END CTAB
M  END
