
     RDKit          3D

  0  0  0  0  0  0  0  0  0  0999 V3000
M  V30 BEGIN CTAB
M  V30 COUNTS 23 23 0 0 0
M  V30 BEGIN ATOM
M  V30 1 C 3.15439 0.538416 -0.330397 0
M  V30 2 O 2.16254 0.453186 0.630851 0
M  V30 3 C 0.842409 0.168461 0.384865 0
M  V30 4 C 0.331158 -1.11334 0.341567 0
M  V30 5 N 1.18785 -2.22944 0.546798 0
M  V30 6 C -1.0063 -1.33449 0.0950255 0
M  V30 7 C -1.92015 -0.315745 -0.126243 0
M  V30 8 C -1.41521 0.96657 -0.0873149 0
M  V30 9 C -0.0774163 1.20933 0.159791 0
M  V30 10 N 0.410221 2.5256 0.19918 0
M  V30 11 C -3.37153 -0.583298 -0.374301 0
M  V30 12 F -3.98186 0.62925 -0.619898 0
M  V30 13 F -3.94227 -1.22852 0.735527 0
M  V30 14 F -3.47301 -1.46273 -1.41231 0
M  V30 15 H 3.40188 -0.454777 -0.76936 0
M  V30 16 H 2.88778 1.29954 -1.09098 0
M  V30 17 H 4.10608 0.841656 0.225093 0
M  V30 18 H 2.22865 -2.15893 0.536334 0
M  V30 19 H 0.820069 -3.19276 0.722116 0
M  V30 20 H -1.39682 -2.35709 0.067998 0
M  V30 21 H -2.121 1.78885 -0.259841 0
M  V30 22 H 0.614343 2.97177 1.10268 0
M  V30 23 H 0.558205 3.03849 -0.677177 0
M  V30 END ATOM
M  V30 BEGIN BOND
M  V30 1 1 1 2
M  V30 2 1 2 3
M  V30 3 2 3 4
M  V30 4 1 4 5
M  V30 5 1 4 6
M  V30 6 2 6 7
M  V30 7 1 7 8
M  V30 8 2 8 9
M  V30 9 1 9 10
M  V30 10 1 7 11
M  V30 11 1 11 12
M  V30 12 1 11 13
M  V30 13 1 11 14
M  V30 14 1 9 3
M  V30 15 1 1 15
M  V30 16 1 1 16
M  V30 17 1 1 17
M  V30 18 1 5 18
M  V30 19 1 5 19
M  V30 20 1 6 20
M  V30 21 1 8 21
M  V30 22 1 10 22
M  V30 23 1 10 23
M  V30 END BOND
M  V30 END CTAB
M  END
