
     RDKit          3D

  0  0  0  0  0  0  0  0  0  0999 V3000
M  V30 BEGIN CTAB
M  V30 COUNTS 24 24 0 0 0
M  V30 BEGIN ATOM
M  V30 1 C -2.59603 0.974262 0.594432 0
M  V30 2 C -1.27883 0.906987 -0.133297 0
M  V30 3 C -1.28411 -0.281305 -1.05981 0
M  V30 4 C -0.0136614 -0.433913 -1.83031 0
M  V30 5 C 1.18193 -0.614432 -0.918833 0
M  V30 6 C 1.60472 -1.84353 -0.499257 0
M  V30 7 S 2.94582 -1.43142 0.475114 0
M  V30 8 C 2.89393 0.26418 0.295768 0
M  V30 9 N 1.85256 0.430589 -0.501058 0
M  V30 10 N 3.71772 1.29922 0.829623 0
M  V30 11 N -1.65017 -1.43976 -0.290142 0
M  V30 12 H -2.79737 1.96671 1.04559 0
M  V30 13 H -2.64325 0.152964 1.33021 0
M  V30 14 H -3.38942 0.76575 -0.157081 0
M  V30 15 H -1.15498 1.8751 -0.684761 0
M  V30 16 H -0.477711 0.829588 0.638851 0
M  V30 17 H -2.09286 -0.108952 -1.79951 0
M  V30 18 H 0.10203 0.44719 -2.47956 0
M  V30 19 H -0.036775 -1.31652 -2.48658 0
M  V30 20 H 1.17154 -2.83376 -0.743092 0
M  V30 21 H 4.55708 1.66296 0.342765 0
M  V30 22 H 3.45599 1.69785 1.74546 0
M  V30 23 H -1.36932 -1.37202 0.713987 0
M  V30 24 H -2.69883 -1.59773 -0.331759 0
M  V30 END ATOM
M  V30 BEGIN BOND
M  V30 1 1 1 2
M  V30 2 1 2 3
M  V30 3 1 3 4
M  V30 4 1 4 5
M  V30 5 2 5 6
M  V30 6 1 6 7
M  V30 7 1 7 8
M  V30 8 2 8 9
M  V30 9 1 8 10
M  V30 10 1 3 11
M  V30 11 1 9 5
M  V30 12 1 1 12
M  V30 13 1 1 13
M  V30 14 1 1 14
M  V30 15 1 2 15
M  V30 16 1 2 16
M  V30 17 1 3 17
M  V30 18 1 4 18
M  V30 19 1 4 19
M  V30 20 1 6 20
M  V30 21 1 10 21
M  V30 22 1 10 22
M  V30 23 1 11 23
M  V30 24 1 11 24
M  V30 END BOND
M  V30 END CTAB
M  END
