
     RDKit          3D

  0  0  0  0  0  0  0  0  0  0999 V3000
M  V30 BEGIN CTAB
M  V30 COUNTS 24 24 0 0 0
M  V30 BEGIN ATOM
M  V30 1 N -1.19774 -2.26958 -0.877902 0
M  V30 2 C -1.47962 -0.951069 -0.392934 0
M  V30 3 C -2.71973 -0.422245 -0.670508 0
M  V30 4 C -3.03427 0.843455 -0.223375 0
M  V30 5 C -2.09897 1.5575 0.49529 0
M  V30 6 C -0.849186 0.999378 0.763838 0
M  V30 7 C -0.529234 -0.25714 0.322534 0
M  V30 8 N 0.725374 -0.817892 0.61563 0
M  V30 9 C 1.81048 -0.119416 1.26702 0
M  V30 10 C 2.43995 0.94746 0.418366 0
M  V30 11 N 2.95587 0.249045 -0.770562 0
M  V30 12 Br -2.5244 3.30681 1.11713 0
M  V30 13 H -1.42296 -3.0947 -0.323225 0
M  V30 14 H -0.757568 -2.35368 -1.81096 0
M  V30 15 H -3.45473 -1.00229 -1.24367 0
M  V30 16 H -4.01506 1.30183 -0.424798 0
M  V30 17 H -0.180413 1.62964 1.34708 0
M  V30 18 H 0.864585 -1.82831 0.329756 0
M  V30 19 H 1.3666 0.390635 2.17331 0
M  V30 20 H 2.55906 -0.816676 1.69431 0
M  V30 21 H 1.76018 1.73201 0.0737653 0
M  V30 22 H 3.29389 1.43851 0.905978 0
M  V30 23 H 3.99969 0.188746 -0.750122 0
M  V30 24 H 2.4882 -0.652018 -0.916109 0
M  V30 END ATOM
M  V30 BEGIN BOND
M  V30 1 1 1 2
M  V30 2 2 2 3
M  V30 3 1 3 4
M  V30 4 2 4 5
M  V30 5 1 5 6
M  V30 6 2 6 7
M  V30 7 1 7 8
M  V30 8 1 8 9
M  V30 9 1 9 10
M  V30 10 1 10 11
M  V30 11 1 5 12
M  V30 12 1 7 2
M  V30 13 1 1 13
M  V30 14 1 1 14
M  V30 15 1 3 15
M  V30 16 1 4 16
M  V30 17 1 6 17
M  V30 18 1 8 18
M  V30 19 1 9 19
M  V30 20 1 9 20
M  V30 21 1 10 21
M  V30 22 1 10 22
M  V30 23 1 11 23
M  V30 24 1 11 24
M  V30 END BOND
M  V30 END CTAB
M  END
