
     RDKit          3D

  0  0  0  0  0  0  0  0  0  0999 V3000
M  V30 BEGIN CTAB
M  V30 COUNTS 56 58 0 0 0
M  V30 BEGIN ATOM
M  V30 1 N 6.67191 1.89557 1.54787 0
M  V30 2 C 6.44051 0.467639 1.69635 0
M  V30 3 C 5.75796 0.0015187 0.429439 0
M  V30 4 C 5.47825 -1.48862 0.50152 0
M  V30 5 C 4.80423 -1.99589 -0.728139 0
M  V30 6 N 3.50515 -1.35821 -0.984263 0
M  V30 7 C 2.39945 -1.57909 -0.160197 0
M  V30 8 C 1.23984 -0.838665 -0.239937 0
M  V30 9 C 1.08597 0.288965 -1.14357 0
M  V30 10 O 1.99566 0.643706 -1.90221 0
M  V30 11 C -0.152451 1.08718 -1.2212 0
M  V30 12 C -0.228581 2.13293 -2.11397 0
M  V30 13 C -1.39032 2.84442 -2.17387 0
M  V30 14 C -2.46684 2.54257 -1.37293 0
M  V30 15 C -2.39851 1.47549 -0.456861 0
M  V30 16 N -3.50913 1.25065 0.400422 0
M  V30 17 C -4.83081 1.83154 0.145728 0
M  V30 18 C -5.51091 1.31642 -1.06034 0
M  V30 19 C -5.77352 -0.142524 -1.12038 0
M  V30 20 C -6.66062 -0.706696 -0.0572323 0
M  V30 21 N -6.17766 -0.56907 1.27224 0
M  V30 22 C -1.23146 0.743146 -0.383631 0
M  V30 23 C -1.10606 -0.381236 0.530971 0
M  V30 24 O -2.04144 -0.735088 1.29968 0
M  V30 25 C 0.155247 -1.13486 0.558835 0
M  V30 26 C 0.237809 -2.18149 1.44346 0
M  V30 27 C 1.39955 -2.91834 1.52004 0
M  V30 28 C 2.49535 -2.65058 0.740082 0
M  V30 29 H 6.25007 2.4039 2.34859 0
M  V30 30 H 7.66436 2.15147 1.49455 0
M  V30 31 H 5.74767 0.301115 2.54705 0
M  V30 32 H 7.41358 -0.0438597 1.86719 0
M  V30 33 H 4.79687 0.550648 0.365198 0
M  V30 34 H 6.35259 0.25581 -0.467794 0
M  V30 35 H 4.96895 -1.69161 1.4342 0
M  V30 36 H 6.4723 -2.00199 0.557036 0
M  V30 37 H 5.45855 -1.80361 -1.61788 0
M  V30 38 H 4.63853 -3.08999 -0.730718 0
M  V30 39 H 3.48695 -0.769305 -1.81865 0
M  V30 40 H 0.604978 2.37745 -2.74265 0
M  V30 41 H -1.45087 3.67697 -2.88582 0
M  V30 42 H -3.3636 3.14348 -1.44627 0
M  V30 43 H -3.43158 0.698296 1.26056 0
M  V30 44 H -5.41242 1.77653 1.07998 0
M  V30 45 H -4.65627 2.93162 0.00763412 0
M  V30 46 H -6.54898 1.80335 -1.04813 0
M  V30 47 H -5.07753 1.71691 -2.00368 0
M  V30 48 H -6.26789 -0.338793 -2.12292 0
M  V30 49 H -4.81132 -0.739427 -1.20312 0
M  V30 50 H -7.66014 -0.185575 -0.199163 0
M  V30 51 H -6.84769 -1.77391 -0.329156 0
M  V30 52 H -6.90706 -0.235221 1.9339 0
M  V30 53 H -5.82888 -1.48075 1.63167 0
M  V30 54 H -0.62343 -2.41804 2.07887 0
M  V30 55 H 1.44934 -3.73774 2.22064 0
M  V30 56 H 3.39434 -3.26555 0.820978 0
M  V30 END ATOM
M  V30 BEGIN BOND
M  V30 1 1 1 2
M  V30 2 1 2 3
M  V30 3 1 3 4
M  V30 4 1 4 5
M  V30 5 1 5 6
M  V30 6 1 6 7
M  V30 7 2 7 8
M  V30 8 1 8 9
M  V30 9 2 9 10
M  V30 10 1 9 11
M  V30 11 2 11 12
M  V30 12 1 12 13
M  V30 13 2 13 14
M  V30 14 1 14 15
M  V30 15 1 15 16
M  V30 16 1 16 17
M  V30 17 1 17 18
M  V30 18 1 18 19
M  V30 19 1 19 20
M  V30 20 1 20 21
M  V30 21 2 15 22
M  V30 22 1 22 23
M  V30 23 2 23 24
M  V30 24 1 23 25
M  V30 25 2 25 26
M  V30 26 1 26 27
M  V30 27 2 27 28
M  V30 28 1 28 7
M  V30 29 1 25 8
M  V30 30 1 22 11
M  V30 31 1 1 29
M  V30 32 1 1 30
M  V30 33 1 2 31
M  V30 34 1 2 32
M  V30 35 1 3 33
M  V30 36 1 3 34
M  V30 37 1 4 35
M  V30 38 1 4 36
M  V30 39 1 5 37
M  V30 40 1 5 38
M  V30 41 1 6 39
M  V30 42 1 12 40
M  V30 43 1 13 41
M  V30 44 1 14 42
M  V30 45 1 16 43
M  V30 46 1 17 44
M  V30 47 1 17 45
M  V30 48 1 18 46
M  V30 49 1 18 47
M  V30 50 1 19 48
M  V30 51 1 19 49
M  V30 52 1 20 50
M  V30 53 1 20 51
M  V30 54 1 21 52
M  V30 55 1 21 53
M  V30 56 1 26 54
M  V30 57 1 27 55
M  V30 58 1 28 56
M  V30 END BOND
M  V30 END CTAB
M  END
