
     RDKit          3D

  0  0  0  0  0  0  0  0  0  0999 V3000
M  V30 BEGIN CTAB
M  V30 COUNTS 46 47 0 0 0
M  V30 BEGIN ATOM
M  V30 1 C -0.0770953 -1.22341 0.0563581 0 CFG=2
M  V30 2 N 0.422919 -2.00445 1.17602 0
M  V30 3 C 0.0254887 0.241389 0.323029 0
M  V30 4 O 1.32737 0.606976 0.543869 0
M  V30 5 C 2.21842 0.384229 -0.473176 0
M  V30 6 C 3.55182 0.90163 -0.00100321 0
M  V30 7 C 4.4305 0.0960591 0.669891 0
M  V30 8 C 5.65651 0.576758 1.10248 0
M  V30 9 C 5.9893 1.89035 0.848677 0
M  V30 10 C 5.1231 2.71975 0.17624 0
M  V30 11 C 3.9159 2.20686 -0.237291 0
M  V30 12 C -1.47677 -1.71856 -0.204213 0 CFG=1
M  V30 13 C -1.27221 -3.24233 -0.471835 0
M  V30 14 N -0.449926 -3.4619 -1.61752 0
M  V30 15 O -2.25737 -1.54136 0.883783 0
M  V30 16 C -3.4964 -1.03845 0.79931 0
M  V30 17 C -3.61404 0.327684 0.263929 0
M  V30 18 C -3.54034 1.43569 1.0879 0
M  V30 19 C -3.67075 2.69802 0.578461 0
M  V30 20 C -3.87945 2.88251 -0.777052 0
M  V30 21 C -3.95366 1.78492 -1.59965 0
M  V30 22 C -3.82134 0.52053 -1.07628 0
M  V30 23 H 0.561724 -1.49387 -0.81338 0
M  V30 24 H 0.715938 -1.41381 1.97909 0
M  V30 25 H 1.09963 -2.72298 0.895385 0
M  V30 26 H -0.582218 0.508883 1.22947 0
M  V30 27 H -0.386257 0.835627 -0.536117 0
M  V30 28 H 2.35457 -0.718062 -0.624294 0
M  V30 29 H 1.92914 0.836582 -1.42972 0
M  V30 30 H 4.16166 -0.943713 0.868213 0
M  V30 31 H 6.30801 -0.0892388 1.62147 0
M  V30 32 H 6.95171 2.26183 1.19009 0
M  V30 33 H 5.38051 3.7406 -0.0215856 0
M  V30 34 H 3.20714 2.82838 -0.769579 0
M  V30 35 H -1.90154 -1.32803 -1.14561 0
M  V30 36 H -0.821566 -3.7299 0.400971 0
M  V30 37 H -2.28303 -3.64865 -0.672832 0
M  V30 38 H -0.935784 -3.38588 -2.52565 0
M  V30 39 H 0.186971 -4.28266 -1.539 0
M  V30 40 H -4.21304 -1.66835 0.20676 0
M  V30 41 H -3.89811 -0.980878 1.86466 0
M  V30 42 H -3.37591 1.30336 2.15963 0
M  V30 43 H -3.60937 3.56138 1.24711 0
M  V30 44 H -3.98382 3.88815 -1.1874 0
M  V30 45 H -4.11612 1.91332 -2.65923 0
M  V30 46 H -3.9022 -0.314975 -1.79037 0
M  V30 END ATOM
M  V30 BEGIN BOND
M  V30 1 1 1 2
M  V30 2 1 1 3
M  V30 3 1 3 4
M  V30 4 1 4 5
M  V30 5 1 5 6
M  V30 6 2 6 7
M  V30 7 1 7 8
M  V30 8 2 8 9
M  V30 9 1 9 10
M  V30 10 2 10 11
M  V30 11 1 1 12
M  V30 12 1 12 13
M  V30 13 1 13 14
M  V30 14 1 12 15
M  V30 15 1 15 16
M  V30 16 1 16 17
M  V30 17 2 17 18
M  V30 18 1 18 19
M  V30 19 2 19 20
M  V30 20 1 20 21
M  V30 21 2 21 22
M  V30 22 1 11 6
M  V30 23 1 22 17
M  V30 24 1 1 23 CFG=3
M  V30 25 1 2 24
M  V30 26 1 2 25
M  V30 27 1 3 26
M  V30 28 1 3 27
M  V30 29 1 5 28
M  V30 30 1 5 29
M  V30 31 1 7 30
M  V30 32 1 8 31
M  V30 33 1 9 32
M  V30 34 1 10 33
M  V30 35 1 11 34
M  V30 36 1 12 35 CFG=3
M  V30 37 1 13 36
M  V30 38 1 13 37
M  V30 39 1 14 38
M  V30 40 1 14 39
M  V30 41 1 16 40
M  V30 42 1 16 41
M  V30 43 1 18 42
M  V30 44 1 19 43
M  V30 45 1 20 44
M  V30 46 1 21 45
M  V30 47 1 22 46
M  V30 END BOND
M  V30 END CTAB
M  END
