
     RDKit          3D

  0  0  0  0  0  0  0  0  0  0999 V3000
M  V30 BEGIN CTAB
M  V30 COUNTS 21 21 0 0 0
M  V30 BEGIN ATOM
M  V30 1 C -2.65488 1.32209 0.438199 0
M  V30 2 C -2.8136 0.0301735 -0.325562 0
M  V30 3 O -1.91661 -0.93426 0.187494 0
M  V30 4 C -0.563869 -0.675087 0.14984 0
M  V30 5 N -0.02091 0.449246 -0.348398 0
M  V30 6 C 1.30919 0.654787 -0.362079 0
M  V30 7 N 1.85866 1.84926 -0.893074 0
M  V30 8 C 2.1102 -0.354407 0.166157 0
M  V30 9 C 1.58504 -1.51985 0.684985 0
M  V30 10 N 0.24593 -1.64812 0.661507 0
M  V30 11 N 2.40163 -2.55239 1.22529 0
M  V30 12 H -2.05034 1.12752 1.35565 0
M  V30 13 H -3.65488 1.74502 0.698598 0
M  V30 14 H -2.06584 2.03161 -0.167864 0
M  V30 15 H -3.87077 -0.295524 -0.235202 0
M  V30 16 H -2.61225 0.219408 -1.38892 0
M  V30 17 H 2.75234 1.81061 -1.42686 0
M  V30 18 H 1.4132 2.78408 -0.779394 0
M  V30 19 H 3.16616 -0.219839 0.16883 0
M  V30 20 H 2.49193 -2.56191 2.28011 0
M  V30 21 H 2.88968 -3.26242 0.664766 0
M  V30 END ATOM
M  V30 BEGIN BOND
M  V30 1 1 1 2
M  V30 2 1 2 3
M  V30 3 1 3 4
M  V30 4 2 4 5
M  V30 5 1 5 6
M  V30 6 1 6 7
M  V30 7 2 6 8
M  V30 8 1 8 9
M  V30 9 2 9 10
M  V30 10 1 9 11
M  V30 11 1 10 4
M  V30 12 1 1 12
M  V30 13 1 1 13
M  V30 14 1 1 14
M  V30 15 1 2 15
M  V30 16 1 2 16
M  V30 17 1 7 17
M  V30 18 1 7 18
M  V30 19 1 8 19
M  V30 20 1 11 20
M  V30 21 1 11 21
M  V30 END BOND
M  V30 END CTAB
M  END
