
     RDKit          3D

  0  0  0  0  0  0  0  0  0  0999 V3000
M  V30 BEGIN CTAB
M  V30 COUNTS 27 28 0 0 0
M  V30 BEGIN ATOM
M  V30 1 N -0.740708 -1.45737 -1.12118 0
M  V30 2 C -0.872172 -0.196111 -0.413122 0
M  V30 3 C -2.08778 0.545385 -0.913349 0
M  V30 4 C -2.79401 1.07999 0.313173 0
M  V30 5 C -2.42348 0.118355 1.42465 0
M  V30 6 C -1.09386 -0.463358 1.04602 0
M  V30 7 C 0.338638 0.633783 -0.693749 0
M  V30 8 C 1.59796 -0.0123649 -0.257389 0
M  V30 9 O 1.8161 -1.15369 0.314886 0
M  V30 10 N 3.08322 -1.34184 0.531037 0
M  V30 11 C 3.75574 -0.255456 0.0733902 0
M  V30 12 N 2.80444 0.559856 -0.414121 0
M  V30 13 N 5.17004 -0.044524 0.111545 0
M  V30 14 H -1.11933 -1.32023 -2.09614 0
M  V30 15 H -1.30443 -2.17114 -0.628219 0
M  V30 16 H -1.83357 1.40674 -1.55215 0
M  V30 17 H -2.78038 -0.111631 -1.47123 0
M  V30 18 H -2.51854 2.11808 0.53843 0
M  V30 19 H -3.89236 1.05337 0.157215 0
M  V30 20 H -2.37937 0.723046 2.35636 0
M  V30 21 H -3.22364 -0.625664 1.54508 0
M  V30 22 H -1.10958 -1.55303 1.24828 0
M  V30 23 H -0.32913 -0.000429724 1.6962 0
M  V30 24 H 0.204335 1.63093 -0.242939 0
M  V30 25 H 0.404504 0.773071 -1.79241 0
M  V30 26 H 5.61553 0.491107 -0.649357 0
M  V30 27 H 5.71181 -0.426879 0.889103 0
M  V30 END ATOM
M  V30 BEGIN BOND
M  V30 1 1 1 2
M  V30 2 1 2 3
M  V30 3 1 3 4
M  V30 4 1 4 5
M  V30 5 1 5 6
M  V30 6 1 2 7
M  V30 7 1 7 8
M  V30 8 1 8 9
M  V30 9 1 9 10
M  V30 10 2 10 11
M  V30 11 1 11 12
M  V30 12 1 11 13
M  V30 13 1 6 2
M  V30 14 2 12 8
M  V30 15 1 1 14
M  V30 16 1 1 15
M  V30 17 1 3 16
M  V30 18 1 3 17
M  V30 19 1 4 18
M  V30 20 1 4 19
M  V30 21 1 5 20
M  V30 22 1 5 21
M  V30 23 1 6 22
M  V30 24 1 6 23
M  V30 25 1 7 24
M  V30 26 1 7 25
M  V30 27 1 13 26
M  V30 28 1 13 27
M  V30 END BOND
M  V30 END CTAB
M  END
