
     RDKit          3D

  0  0  0  0  0  0  0  0  0  0999 V3000
M  V30 BEGIN CTAB
M  V30 COUNTS 25 25 0 0 0
M  V30 BEGIN ATOM
M  V30 1 N -2.27418 1.45743 -0.776644 0
M  V30 2 C -1.85783 0.852084 0.458745 0
M  V30 3 C -1.54346 -0.611836 0.328469 0
M  V30 4 C -0.45955 -0.941657 -0.608279 0
M  V30 5 C 0.868665 -0.396919 -0.353041 0
M  V30 6 C 1.29397 0.795853 -0.884531 0
M  V30 7 C 2.56788 1.30468 -0.624669 0
M  V30 8 C 3.4601 0.63198 0.179057 0
M  V30 9 C 3.04699 -0.565824 0.718759 0
M  V30 10 C 1.79 -1.06507 0.460766 0
M  V30 11 F 4.70782 1.1221 0.438567 0
M  V30 12 N -2.76972 -1.23913 -0.199065 0
M  V30 13 H -2.91056 2.24819 -0.548594 0
M  V30 14 H -2.73293 0.726645 -1.36319 0
M  V30 15 H -2.71606 0.94137 1.17747 0
M  V30 16 H -0.965943 1.38505 0.862103 0
M  V30 17 H -1.4369 -1.02887 1.34679 0
M  V30 18 H -0.772366 -0.565923 -1.62833 0
M  V30 19 H -0.374306 -2.04563 -0.751626 0
M  V30 20 H 0.641468 1.36229 -1.52294 0
M  V30 21 H 2.87028 2.25497 -1.06415 0
M  V30 22 H 3.75373 -1.1057 1.35954 0
M  V30 23 H 1.45339 -2.00196 0.876899 0
M  V30 24 H -2.68701 -1.36238 -1.21809 0
M  V30 25 H -2.95347 -2.15175 0.235907 0
M  V30 END ATOM
M  V30 BEGIN BOND
M  V30 1 1 1 2
M  V30 2 1 2 3
M  V30 3 1 3 4
M  V30 4 1 4 5
M  V30 5 2 5 6
M  V30 6 1 6 7
M  V30 7 2 7 8
M  V30 8 1 8 9
M  V30 9 2 9 10
M  V30 10 1 8 11
M  V30 11 1 3 12
M  V30 12 1 10 5
M  V30 13 1 1 13
M  V30 14 1 1 14
M  V30 15 1 2 15
M  V30 16 1 2 16
M  V30 17 1 3 17
M  V30 18 1 4 18
M  V30 19 1 4 19
M  V30 20 1 6 20
M  V30 21 1 7 21
M  V30 22 1 9 22
M  V30 23 1 10 23
M  V30 24 1 12 24
M  V30 25 1 12 25
M  V30 END BOND
M  V30 END CTAB
M  END
