
     RDKit          3D

  0  0  0  0  0  0  0  0  0  0999 V3000
M  V30 BEGIN CTAB
M  V30 COUNTS 32 33 0 0 0
M  V30 BEGIN ATOM
M  V30 1 N 4.02644 1.0631 1.11112 0
M  V30 2 C 3.03479 0.763225 0.149205 0
M  V30 3 N 3.35808 0.99325 -1.16091 0
M  V30 4 C 2.50084 0.748577 -2.17135 0
M  V30 5 C 1.25561 0.248561 -1.86388 0
M  V30 6 C 0.917111 0.0105995 -0.527596 0
M  V30 7 C 1.8027 0.266141 0.48217 0
M  V30 8 C -0.424506 -0.522704 -0.263691 0 CFG=1
M  V30 9 C -0.184709 -1.97637 0.183849 0
M  V30 10 N -1.39756 -2.69234 -0.121954 0
M  V30 11 C -2.50691 -1.85907 0.308411 0
M  V30 12 C -2.05504 -0.851468 1.36186 0
M  V30 13 N -1.11588 0.109594 0.812148 0
M  V30 14 S -1.94612 1.53353 0.439932 0
M  V30 15 O -2.71512 1.96635 1.66456 0
M  V30 16 O -3.00725 1.20797 -0.605793 0
M  V30 17 N -1.03824 2.82562 -0.126662 0
M  V30 18 H 5.0324 0.857298 0.962774 0
M  V30 19 H 3.76946 1.50826 2.01431 0
M  V30 20 H 2.82979 0.95692 -3.18881 0
M  V30 21 H 0.572987 0.0541616 -2.67373 0
M  V30 22 H 1.53429 0.0814847 1.49216 0
M  V30 23 H -1.07415 -0.494479 -1.15419 0
M  V30 24 H 0.703311 -2.39121 -0.309101 0
M  V30 25 H 0.020069 -1.97438 1.2743 0
M  V30 26 H -1.40266 -2.85553 -1.15889 0
M  V30 27 H -3.21301 -2.54309 0.841063 0
M  V30 28 H -3.05122 -1.39703 -0.51251 0
M  V30 29 H -2.99766 -0.337228 1.6922 0
M  V30 30 H -1.67745 -1.38432 2.23864 0
M  V30 31 H -0.0579055 2.67129 -0.338051 0
M  V30 32 H -1.4925 3.4133 -0.851595 0
M  V30 END ATOM
M  V30 BEGIN BOND
M  V30 1 1 1 2
M  V30 2 2 2 3
M  V30 3 1 3 4
M  V30 4 2 4 5
M  V30 5 1 5 6
M  V30 6 2 6 7
M  V30 7 1 6 8
M  V30 8 1 8 9
M  V30 9 1 9 10
M  V30 10 1 10 11
M  V30 11 1 11 12
M  V30 12 1 12 13
M  V30 13 1 13 14
M  V30 14 2 14 15
M  V30 15 2 14 16
M  V30 16 1 14 17
M  V30 17 1 7 2
M  V30 18 1 13 8
M  V30 19 1 1 18
M  V30 20 1 1 19
M  V30 21 1 4 20
M  V30 22 1 5 21
M  V30 23 1 7 22
M  V30 24 1 8 23 CFG=3
M  V30 25 1 9 24
M  V30 26 1 9 25
M  V30 27 1 10 26
M  V30 28 1 11 27
M  V30 29 1 11 28
M  V30 30 1 12 29
M  V30 31 1 12 30
M  V30 32 1 17 31
M  V30 33 1 17 32
M  V30 END BOND
M  V30 END CTAB
M  END
