
     RDKit          3D

  0  0  0  0  0  0  0  0  0  0999 V3000
M  V30 BEGIN CTAB
M  V30 COUNTS 19 19 0 0 0
M  V30 BEGIN ATOM
M  V30 1 N -1.62472 1.73413 0.0676444 0
M  V30 2 C -0.589587 0.738254 0.0339111 0
M  V30 3 C 0.712904 1.16444 0.151499 0
M  V30 4 C 1.74841 0.249796 0.125514 0
M  V30 5 N 3.10634 0.637664 0.242741 0
M  V30 6 C 1.39149 -1.09638 -0.02388 0
M  V30 7 C 0.089869 -1.51508 -0.140702 0
M  V30 8 C -0.925444 -0.583863 -0.111946 0
M  V30 9 C -2.35608 -0.9721 -0.233467 0
M  V30 10 F -3.0754 -0.58135 0.900138 0
M  V30 11 F -2.95725 -0.403841 -1.34282 0
M  V30 12 F -2.50417 -2.328 -0.340583 0
M  V30 13 I 2.99413 -2.48297 -0.0613215 0
M  V30 14 H -1.73356 2.43616 -0.695707 0
M  V30 15 H -2.30257 1.78846 0.857311 0
M  V30 16 H 0.970445 2.22385 0.267685 0
M  V30 17 H 3.48108 1.34434 -0.404209 0
M  V30 18 H 3.71013 0.220207 0.963136 0
M  V30 19 H -0.136015 -2.57373 -0.254944 0
M  V30 END ATOM
M  V30 BEGIN BOND
M  V30 1 1 1 2
M  V30 2 2 2 3
M  V30 3 1 3 4
M  V30 4 1 4 5
M  V30 5 2 4 6
M  V30 6 1 6 7
M  V30 7 2 7 8
M  V30 8 1 8 9
M  V30 9 1 9 10
M  V30 10 1 9 11
M  V30 11 1 9 12
M  V30 12 1 6 13
M  V30 13 1 8 2
M  V30 14 1 1 14
M  V30 15 1 1 15
M  V30 16 1 3 16
M  V30 17 1 5 17
M  V30 18 1 5 18
M  V30 19 1 7 19
M  V30 END BOND
M  V30 END CTAB
M  END
