
     RDKit          3D

  0  0  0  0  0  0  0  0  0  0999 V3000
M  V30 BEGIN CTAB
M  V30 COUNTS 51 53 0 0 0
M  V30 BEGIN ATOM
M  V30 1 C 3.26825 1.60933 -0.323683 0
M  V30 2 N 2.66911 0.457399 -0.830737 0
M  V30 3 C 3.35531 -0.294523 -1.81719 0
M  V30 4 C 4.56618 -1.00506 -1.38939 0
M  V30 5 C 5.06684 -1.01306 -0.164104 0
M  V30 6 C 6.30562 -1.7679 0.166649 0
M  V30 7 N 6.05255 -2.76814 1.18957 0
M  V30 8 C 1.49994 -0.0881828 -0.307121 0
M  V30 9 C 0.276156 0.697357 -0.561682 0 CFG=1
M  V30 10 O -0.874275 0.00181391 -0.0296222 0
M  V30 11 C -1.83989 0.891497 -0.519294 0 CFG=2
M  V30 12 C -1.41303 2.18809 0.0726618 0 CFG=2
M  V30 13 O -1.78166 3.29778 -0.681762 0
M  V30 14 C 0.126778 2.0276 0.0846175 0 CFG=1
M  V30 15 O 0.591643 2.10372 1.39187 0
M  V30 16 N -3.17433 0.483946 -0.185644 0
M  V30 17 C -4.29955 0.876028 -0.801679 0
M  V30 18 C -4.38875 1.81388 -1.95962 0
M  V30 19 N -5.36467 0.273761 -0.199637 0
M  V30 20 C -4.88644 -0.484834 0.782485 0
M  V30 21 C -5.51732 -1.30889 1.70581 0
M  V30 22 N -6.91649 -1.44198 1.69494 0
M  V30 23 N -4.72281 -1.95762 2.59139 0
M  V30 24 C -3.37267 -1.81979 2.59076 0
M  V30 25 N -2.7786 -1.01798 1.68893 0
M  V30 26 C -3.51474 -0.360776 0.800199 0
M  V30 27 H 3.31377 1.68161 0.798409 0
M  V30 28 H 4.3307 1.71742 -0.717507 0
M  V30 29 H 2.77623 2.52217 -0.679688 0
M  V30 30 H 2.6305 -0.9633 -2.35235 0
M  V30 31 H 3.68028 0.430946 -2.62381 0
M  V30 32 H 5.1365 -1.59688 -2.12831 0
M  V30 33 H 4.5716 -0.465623 0.625394 0
M  V30 34 H 7.13628 -1.09535 0.474833 0
M  V30 35 H 6.6431 -2.27304 -0.761019 0
M  V30 36 H 6.87764 -2.90956 1.82238 0
M  V30 37 H 5.27178 -2.42879 1.79418 0
M  V30 38 H 1.58445 -0.418749 0.768314 0
M  V30 39 H 1.33561 -1.09104 -0.834714 0
M  V30 40 H 0.0292504 0.809272 -1.63504 0
M  V30 41 H -1.70701 0.937849 -1.61619 0
M  V30 42 H -1.71692 2.32401 1.11932 0
M  V30 43 H -1.12026 4.02223 -0.481061 0
M  V30 44 H 0.509824 2.87275 -0.491015 0
M  V30 45 H 0.692537 1.2167 1.81944 0
M  V30 46 H -4.50265 2.82745 -1.53105 0
M  V30 47 H -3.43012 1.77537 -2.50841 0
M  V30 48 H -5.25057 1.52297 -2.59318 0
M  V30 49 H -7.46325 -1.25709 2.56043 0
M  V30 50 H -7.42396 -1.72434 0.836306 0
M  V30 51 H -2.83846 -2.38632 3.34562 0
M  V30 END ATOM
M  V30 BEGIN BOND
M  V30 1 1 1 2
M  V30 2 1 2 3
M  V30 3 1 3 4
M  V30 4 2 4 5
M  V30 5 1 5 6
M  V30 6 1 6 7
M  V30 7 1 2 8
M  V30 8 1 8 9
M  V30 9 1 9 10
M  V30 10 1 10 11
M  V30 11 1 11 12
M  V30 12 1 12 13
M  V30 13 1 12 14
M  V30 14 1 14 15
M  V30 15 1 11 16
M  V30 16 1 16 17
M  V30 17 1 17 18
M  V30 18 2 17 19
M  V30 19 1 19 20
M  V30 20 2 20 21
M  V30 21 1 21 22
M  V30 22 1 21 23
M  V30 23 2 23 24
M  V30 24 1 24 25
M  V30 25 2 25 26
M  V30 26 1 14 9
M  V30 27 1 26 16
M  V30 28 1 26 20
M  V30 29 1 1 27
M  V30 30 1 1 28
M  V30 31 1 1 29
M  V30 32 1 3 30
M  V30 33 1 3 31
M  V30 34 1 4 32
M  V30 35 1 5 33
M  V30 36 1 6 34
M  V30 37 1 6 35
M  V30 38 1 7 36
M  V30 39 1 7 37
M  V30 40 1 8 38
M  V30 41 1 8 39
M  V30 42 1 9 40 CFG=3
M  V30 43 1 11 41 CFG=3
M  V30 44 1 12 42 CFG=1
M  V30 45 1 13 43
M  V30 46 1 14 44 CFG=3
M  V30 47 1 15 45
M  V30 48 1 18 46
M  V30 49 1 18 47
M  V30 50 1 18 48
M  V30 51 1 22 49
M  V30 52 1 22 50
M  V30 53 1 24 51
M  V30 END BOND
M  V30 END CTAB
M  END
