
     RDKit          3D

  0  0  0  0  0  0  0  0  0  0999 V3000
M  V30 BEGIN CTAB
M  V30 COUNTS 39 42 0 0 0
M  V30 BEGIN ATOM
M  V30 1 N 5.48049 0.483999 -2.2025 0
M  V30 2 C 4.6607 0.221867 -1.0722 0
M  V30 3 N 3.57696 -0.583899 -1.15405 0
M  V30 4 C 2.79668 -0.837038 -0.0906671 0
M  V30 5 N 3.12325 -0.261053 1.07747 0
M  V30 6 C 4.21534 0.555071 1.17422 0
M  V30 7 N 4.96552 0.783048 0.0990163 0
M  V30 8 N 4.56765 1.17102 2.4159 0
M  V30 9 C 1.60718 -1.71429 -0.155796 0
M  V30 10 N 0.414536 -0.979262 -0.487044 0
M  V30 11 C -0.142598 -0.695961 -1.76261 0
M  V30 12 O 0.388741 -1.08893 -2.83811 0
M  V30 13 N -1.33739 0.0670812 -1.59572 0
M  V30 14 C -1.67512 0.134406 -0.217484 0
M  V30 15 C -0.459769 -0.376647 0.460862 0
M  V30 16 O -0.284425 -0.260856 1.71688 0
M  V30 17 C -1.95874 1.48741 0.319153 0
M  V30 18 C -3.17912 2.14109 -0.218695 0
M  V30 19 C -4.38284 1.27185 -0.319194 0
M  V30 20 C -4.13551 -0.147859 0.0483719 0
M  V30 21 C -2.89593 -0.722581 0.108391 0
M  V30 22 C -2.84714 -2.03382 0.458967 0
M  V30 23 C -4.03823 -2.65396 0.718167 0
M  V30 24 S -5.17989 -1.41456 0.471106 0
M  V30 25 H 6.01662 1.36402 -2.30801 0
M  V30 26 H 5.52675 -0.246859 -2.93309 0
M  V30 27 H 4.42295 2.19826 2.49359 0
M  V30 28 H 4.95655 0.620751 3.22187 0
M  V30 29 H 1.73753 -2.50814 -0.947614 0
M  V30 30 H 1.46856 -2.2959 0.791611 0
M  V30 31 H -1.85097 0.492449 -2.39779 0
M  V30 32 H -1.08765 2.14262 0.0946602 0
M  V30 33 H -2.00282 1.41498 1.43318 0
M  V30 34 H -3.44176 2.98363 0.487708 0
M  V30 35 H -2.93483 2.66318 -1.17791 0
M  V30 36 H -5.23859 1.62308 0.292996 0
M  V30 37 H -4.75253 1.34747 -1.38495 0
M  V30 38 H -1.90409 -2.63923 0.550031 0
M  V30 39 H -4.19604 -3.70641 1.01469 0
M  V30 END ATOM
M  V30 BEGIN BOND
M  V30 1 1 1 2
M  V30 2 2 2 3
M  V30 3 1 3 4
M  V30 4 2 4 5
M  V30 5 1 5 6
M  V30 6 2 6 7
M  V30 7 1 6 8
M  V30 8 1 4 9
M  V30 9 1 9 10
M  V30 10 1 10 11
M  V30 11 2 11 12
M  V30 12 1 11 13
M  V30 13 1 13 14
M  V30 14 1 14 15
M  V30 15 2 15 16
M  V30 16 1 14 17
M  V30 17 1 17 18
M  V30 18 1 18 19
M  V30 19 1 19 20
M  V30 20 2 20 21
M  V30 21 1 21 22
M  V30 22 2 22 23
M  V30 23 1 23 24
M  V30 24 1 7 2
M  V30 25 1 15 10
M  V30 26 1 24 20
M  V30 27 1 21 14
M  V30 28 1 1 25
M  V30 29 1 1 26
M  V30 30 1 8 27
M  V30 31 1 8 28
M  V30 32 1 9 29
M  V30 33 1 9 30
M  V30 34 1 13 31
M  V30 35 1 17 32
M  V30 36 1 17 33
M  V30 37 1 18 34
M  V30 38 1 18 35
M  V30 39 1 19 36
M  V30 40 1 19 37
M  V30 41 1 22 38
M  V30 42 1 23 39
M  V30 END BOND
M  V30 END CTAB
M  END
