
     RDKit          3D

  0  0  0  0  0  0  0  0  0  0999 V3000
M  V30 BEGIN CTAB
M  V30 COUNTS 15 15 0 0 0
M  V30 BEGIN ATOM
M  V30 1 N 2.7012 0.60914 0.239505 0
M  V30 2 C 1.33324 0.216349 0.106536 0
M  V30 3 C 0.972111 -1.09631 -0.119958 0
M  V30 4 N -0.324352 -1.4848 -0.248531 0
M  V30 5 C -1.32674 -0.593968 -0.159357 0
M  V30 6 C -0.990604 0.722066 0.0663751 0
M  V30 7 C 0.309894 1.14589 0.200752 0
M  V30 8 Br -2.38071 1.99569 0.1961 0
M  V30 9 N -2.67926 -0.998509 -0.293352 0
M  V30 10 H 3.04982 1.26055 0.974638 0
M  V30 11 H 3.38623 0.217708 -0.441999 0
M  V30 12 H 1.77783 -1.83809 -0.195723 0
M  V30 13 H 0.596292 2.17827 0.379008 0
M  V30 14 H -2.9466 -1.86733 -0.830591 0
M  V30 15 H -3.47835 -0.466665 0.126598 0
M  V30 END ATOM
M  V30 BEGIN BOND
M  V30 1 1 1 2
M  V30 2 2 2 3
M  V30 3 1 3 4
M  V30 4 2 4 5
M  V30 5 1 5 6
M  V30 6 2 6 7
M  V30 7 1 6 8
M  V30 8 1 5 9
M  V30 9 1 7 2
M  V30 10 1 1 10
M  V30 11 1 1 11
M  V30 12 1 3 12
M  V30 13 1 7 13
M  V30 14 1 9 14
M  V30 15 1 9 15
M  V30 END BOND
M  V30 END CTAB
M  END
