
     RDKit          3D

  0  0  0  0  0  0  0  0  0  0999 V3000
M  V30 BEGIN CTAB
M  V30 COUNTS 43 42 0 0 0
M  V30 BEGIN ATOM
M  V30 1 N 7.57602 -0.376646 -0.52224 0
M  V30 2 C 6.31898 -0.05546 0.00208087 0
M  V30 3 N 6.04292 1.18653 0.273603 0
M  V30 4 N 5.32903 -1.01852 0.25301 0
M  V30 5 C 3.92693 -0.676553 0.279892 0
M  V30 6 C 3.44709 -0.301686 -1.08832 0
M  V30 7 C 1.99558 0.0707398 -1.1403 0
M  V30 8 C 1.62084 1.22951 -0.295797 0
M  V30 9 C 0.145585 1.4938 -0.444832 0
M  V30 10 C -0.732699 0.361989 -0.0355438 0
M  V30 11 C -2.20895 0.718713 -0.203915 0
M  V30 12 C -3.07221 -0.4485 0.222237 0
M  V30 13 C -4.51397 -0.0213685 0.0348613 0
M  V30 14 N -5.43198 -1.08819 0.425652 0
M  V30 15 C -6.81672 -0.839384 0.318073 0
M  V30 16 N -7.55306 -0.462512 1.45404 0
M  V30 17 N -7.41016 -0.95634 -0.813311 0
M  V30 18 H 8.33378 -0.817041 0.0377151 0
M  V30 19 H 7.78082 -0.171453 -1.5219 0
M  V30 20 H 6.71203 1.95011 0.119182 0
M  V30 21 H 5.60764 -2.00335 0.423411 0
M  V30 22 H 3.3667 -1.56843 0.620736 0
M  V30 23 H 3.7485 0.108683 1.04007 0
M  V30 24 H 3.65447 -1.12985 -1.79185 0
M  V30 25 H 4.03977 0.569112 -1.43207 0
M  V30 26 H 1.66985 0.260064 -2.18191 0
M  V30 27 H 1.39798 -0.813004 -0.787621 0
M  V30 28 H 1.82029 1.01841 0.774142 0
M  V30 29 H 2.12899 2.18577 -0.615068 0
M  V30 30 H -0.178398 2.40125 0.104908 0
M  V30 31 H -0.0772454 1.69321 -1.53389 0
M  V30 32 H -0.534645 0.146405 1.02819 0
M  V30 33 H -0.588153 -0.559796 -0.640104 0
M  V30 34 H -2.38539 1.59324 0.446198 0
M  V30 35 H -2.42153 1.04289 -1.23652 0
M  V30 36 H -2.8145 -1.37314 -0.297617 0
M  V30 37 H -2.92114 -0.603156 1.30822 0
M  V30 38 H -4.71214 0.241775 -1.03456 0
M  V30 39 H -4.66955 0.894399 0.618915 0
M  V30 40 H -5.10495 -2.00216 0.771924 0
M  V30 41 H -7.65661 0.534259 1.69485 0
M  V30 42 H -7.99486 -1.18062 2.05401 0
M  V30 43 H -6.86495 -1.23371 -1.64374 0
M  V30 END ATOM
M  V30 BEGIN BOND
M  V30 1 1 1 2
M  V30 2 2 2 3 CFG=2
M  V30 3 1 2 4
M  V30 4 1 4 5
M  V30 5 1 5 6
M  V30 6 1 6 7
M  V30 7 1 7 8
M  V30 8 1 8 9
M  V30 9 1 9 10
M  V30 10 1 10 11
M  V30 11 1 11 12
M  V30 12 1 12 13
M  V30 13 1 13 14
M  V30 14 1 14 15
M  V30 15 1 15 16
M  V30 16 2 15 17 CFG=2
M  V30 17 1 1 18
M  V30 18 1 1 19
M  V30 19 1 3 20
M  V30 20 1 4 21
M  V30 21 1 5 22
M  V30 22 1 5 23
M  V30 23 1 6 24
M  V30 24 1 6 25
M  V30 25 1 7 26
M  V30 26 1 7 27
M  V30 27 1 8 28
M  V30 28 1 8 29
M  V30 29 1 9 30
M  V30 30 1 9 31
M  V30 31 1 10 32
M  V30 32 1 10 33
M  V30 33 1 11 34
M  V30 34 1 11 35
M  V30 35 1 12 36
M  V30 36 1 12 37
M  V30 37 1 13 38
M  V30 38 1 13 39
M  V30 39 1 14 40
M  V30 40 1 16 41
M  V30 41 1 16 42
M  V30 42 1 17 43
M  V30 END BOND
M  V30 END CTAB
M  END
