
     RDKit          3D

  0  0  0  0  0  0  0  0  0  0999 V3000
M  V30 BEGIN CTAB
M  V30 COUNTS 30 31 0 0 0
M  V30 BEGIN ATOM
M  V30 1 C 4.38302 1.37033 -0.521572 0
M  V30 2 O 3.27599 0.588614 -0.10792 0
M  V30 3 C 3.46816 -0.715144 0.233671 0
M  V30 4 O 4.62448 -1.20579 0.177002 0
M  V30 5 C 2.36652 -1.60475 0.677389 0
M  V30 6 S 2.43442 -3.24401 1.13652 0
M  V30 7 C 0.795001 -3.50417 1.49172 0
M  V30 8 C 0.221498 -2.28901 1.24112 0
M  V30 9 C 1.03348 -1.29338 0.815801 0
M  V30 10 O 0.618251 0.0291598 0.504307 0
M  V30 11 C -0.644943 0.498718 0.526093 0
M  V30 12 C -0.970521 1.50466 1.42608 0
M  V30 13 C -2.24562 1.98839 1.45519 0
M  V30 14 C -3.23283 1.51173 0.616778 0
M  V30 15 C -2.92213 0.514361 -0.280518 0
M  V30 16 C -1.62977 0.0201426 -0.31458 0
M  V30 17 N -1.38444 -0.988488 -1.28243 0
M  V30 18 N -4.54762 2.05683 0.694264 0
M  V30 19 H 4.631 1.24434 -1.58178 0
M  V30 20 H 4.14846 2.41815 -0.238873 0
M  V30 21 H 5.25491 1.07528 0.124932 0
M  V30 22 H 0.296002 -4.41706 1.8391 0
M  V30 23 H -0.880954 -2.15053 1.40357 0
M  V30 24 H -0.196281 1.88059 2.08574 0
M  V30 25 H -2.48583 2.7795 2.16869 0
M  V30 26 H -3.69276 0.136187 -0.941177 0
M  V30 27 H -0.694003 -0.876143 -2.04612 0
M  V30 28 H -1.93279 -1.86371 -1.19799 0
M  V30 29 H -4.71575 3.07479 0.519188 0
M  V30 30 H -5.37495 1.46041 0.926285 0
M  V30 END ATOM
M  V30 BEGIN BOND
M  V30 1 1 1 2
M  V30 2 1 2 3
M  V30 3 2 3 4
M  V30 4 1 3 5
M  V30 5 1 5 6
M  V30 6 1 6 7
M  V30 7 2 7 8
M  V30 8 1 8 9
M  V30 9 1 9 10
M  V30 10 1 10 11
M  V30 11 2 11 12
M  V30 12 1 12 13
M  V30 13 2 13 14
M  V30 14 1 14 15
M  V30 15 2 15 16
M  V30 16 1 16 17
M  V30 17 1 14 18
M  V30 18 2 9 5
M  V30 19 1 16 11
M  V30 20 1 1 19
M  V30 21 1 1 20
M  V30 22 1 1 21
M  V30 23 1 7 22
M  V30 24 1 8 23
M  V30 25 1 12 24
M  V30 26 1 13 25
M  V30 27 1 15 26
M  V30 28 1 17 27
M  V30 29 1 17 28
M  V30 30 1 18 29
M  V30 31 1 18 30
M  V30 END BOND
M  V30 END CTAB
M  END
