
     RDKit          3D

  0  0  0  0  0  0  0  0  0  0999 V3000
M  V30 BEGIN CTAB
M  V30 COUNTS 24 23 0 0 0
M  V30 BEGIN ATOM
M  V30 1 N 2.74318 0.654432 0.908646 0
M  V30 2 C 1.30003 0.668623 1.09298 0
M  V30 3 C 0.716848 0.0621273 -0.143471 0 CFG=2
M  V30 4 C -0.779611 -0.0147042 -0.148395 0
M  V30 5 C -1.36841 -0.815809 0.949583 0
M  V30 6 C -1.37856 1.37044 -0.140294 0
M  V30 7 C -1.17601 -0.666392 -1.47878 0
M  V30 8 N 1.34613 -1.2094 -0.379916 0
M  V30 9 H 2.98438 1.30136 0.141645 0
M  V30 10 H 3.00636 -0.291973 0.628017 0
M  V30 11 H 1.02534 1.73078 1.23296 0
M  V30 12 H 1.13142 0.054597 2.00142 0
M  V30 13 H 1.00911 0.726044 -0.999392 0
M  V30 14 H -0.779155 -0.881468 1.86749 0
M  V30 15 H -1.61585 -1.86035 0.612662 0
M  V30 16 H -2.36877 -0.39109 1.25698 0
M  V30 17 H -0.63196 2.17199 -0.0851544 0
M  V30 18 H -2.01198 1.56171 -1.03784 0
M  V30 19 H -2.06695 1.50925 0.73885 0
M  V30 20 H -2.15426 -0.297976 -1.83573 0
M  V30 21 H -0.423279 -0.339182 -2.24921 0
M  V30 22 H -1.10583 -1.76522 -1.43206 0
M  V30 23 H 1.87061 -1.25045 -1.28255 0
M  V30 24 H 0.727214 -2.02735 -0.218448 0
M  V30 END ATOM
M  V30 BEGIN BOND
M  V30 1 1 1 2
M  V30 2 1 2 3
M  V30 3 1 3 4
M  V30 4 1 4 5
M  V30 5 1 4 6
M  V30 6 1 4 7
M  V30 7 1 3 8
M  V30 8 1 1 9
M  V30 9 1 1 10
M  V30 10 1 2 11
M  V30 11 1 2 12
M  V30 12 1 3 13 CFG=3
M  V30 13 1 5 14
M  V30 14 1 5 15
M  V30 15 1 5 16
M  V30 16 1 6 17
M  V30 17 1 6 18
M  V30 18 1 6 19
M  V30 19 1 7 20
M  V30 20 1 7 21
M  V30 21 1 7 22
M  V30 22 1 8 23
M  V30 23 1 8 24
M  V30 END BOND
M  V30 END CTAB
M  END
