
     RDKit          3D

  0  0  0  0  0  0  0  0  0  0999 V3000
M  V30 BEGIN CTAB
M  V30 COUNTS 20 20 0 0 0
M  V30 BEGIN ATOM
M  V30 1 N -1.78384 1.37535 -0.643894 0
M  V30 2 C -1.46213 -0.0237669 -0.618063 0
M  V30 3 C -0.117547 -0.313888 -0.00684771 0
M  V30 4 C 0.224991 -1.79829 0.0211559 0
M  V30 5 C -0.02099 -1.04487 1.28163 0
M  V30 6 C 0.931575 0.688796 -0.267342 0
M  V30 7 N 1.93329 0.475988 -1.02392 0
M  V30 8 O 2.2695 -0.623453 -1.72517 0
M  V30 9 N 0.872245 2.00452 0.312428 0
M  V30 10 H -2.72747 1.46781 -1.08146 0
M  V30 11 H -1.8414 1.80838 0.291934 0
M  V30 12 H -2.24017 -0.54759 -0.0441356 0
M  V30 13 H -1.44011 -0.395976 -1.65497 0
M  V30 14 H -0.576275 -2.52619 -0.236674 0
M  V30 15 H 1.20878 -2.1716 -0.240329 0
M  V30 16 H -0.90529 -1.28255 1.88459 0
M  V30 17 H 0.886766 -0.868782 1.89392 0
M  V30 18 H 3.09233 -1.18018 -1.54063 0
M  V30 19 H 1.04173 2.15764 1.31638 0
M  V30 20 H 0.654012 2.79864 -0.30616 0
M  V30 END ATOM
M  V30 BEGIN BOND
M  V30 1 1 1 2
M  V30 2 1 2 3
M  V30 3 1 3 4
M  V30 4 1 4 5
M  V30 5 1 3 6
M  V30 6 2 6 7 CFG=2
M  V30 7 1 7 8
M  V30 8 1 6 9
M  V30 9 1 5 3
M  V30 10 1 1 10
M  V30 11 1 1 11
M  V30 12 1 2 12
M  V30 13 1 2 13
M  V30 14 1 4 14
M  V30 15 1 4 15
M  V30 16 1 5 16
M  V30 17 1 5 17
M  V30 18 1 8 18
M  V30 19 1 9 19
M  V30 20 1 9 20
M  V30 END BOND
M  V30 END CTAB
M  END
