
     RDKit          3D

  0  0  0  0  0  0  0  0  0  0999 V3000
M  V30 BEGIN CTAB
M  V30 COUNTS 35 35 0 0 0
M  V30 BEGIN ATOM
M  V30 1 C -5.37329 0.580543 -1.09998 0
M  V30 2 C -4.39584 1.38866 -0.272937 0
M  V30 3 C -3.07454 0.621659 -0.277685 0
M  V30 4 C -2.02284 1.32507 0.511902 0
M  V30 5 O -0.787835 0.716204 0.575363 0
M  V30 6 C -0.346607 -0.457952 1.08892 0
M  V30 7 C -1.12806 -1.38722 1.74878 0
M  V30 8 C -0.610921 -2.56662 2.25045 0
M  V30 9 C 0.734529 -2.84271 2.09627 0
M  V30 10 C 1.52578 -1.92965 1.44357 0
M  V30 11 C 1.02117 -0.753174 0.940246 0
M  V30 12 C 1.85926 0.206799 0.252645 0
M  V30 13 N 3.12258 0.0352031 0.0624821 0
M  V30 14 N 3.87465 1.00182 -0.609539 0
M  V30 15 C 5.03042 0.744192 -1.08329 0
M  V30 16 N 5.58017 -0.53747 -0.936922 0
M  V30 17 N 5.7504 1.75162 -1.75289 0
M  V30 18 H -4.8376 0.165584 -1.97798 0
M  V30 19 H -5.72375 -0.260858 -0.451882 0
M  V30 20 H -6.23193 1.19602 -1.43961 0
M  V30 21 H -4.24595 2.35266 -0.82561 0
M  V30 22 H -4.75257 1.60936 0.735347 0
M  V30 23 H -3.25293 -0.393084 0.0852509 0
M  V30 24 H -2.79809 0.592017 -1.37616 0
M  V30 25 H -2.38267 1.42742 1.5872 0
M  V30 26 H -1.91769 2.40479 0.20539 0
M  V30 27 H -2.18555 -1.21628 1.91381 0
M  V30 28 H -1.27809 -3.25021 2.75566 0
M  V30 29 H 1.12308 -3.77315 2.49633 0
M  V30 30 H 2.58305 -2.12811 1.31306 0
M  V30 31 H 1.43916 1.11934 -0.131388 0
M  V30 32 H 5.50206 -1.00623 -0.0144915 0
M  V30 33 H 6.05198 -1.01715 -1.71018 0
M  V30 34 H 6.81128 1.75489 -1.71131 0
M  V30 35 H 5.33717 2.526 -2.30753 0
M  V30 END ATOM
M  V30 BEGIN BOND
M  V30 1 1 1 2
M  V30 2 1 2 3
M  V30 3 1 3 4
M  V30 4 1 4 5
M  V30 5 1 5 6
M  V30 6 2 6 7
M  V30 7 1 7 8
M  V30 8 2 8 9
M  V30 9 1 9 10
M  V30 10 2 10 11
M  V30 11 1 11 12
M  V30 12 2 12 13
M  V30 13 1 13 14
M  V30 14 2 14 15
M  V30 15 1 15 16
M  V30 16 1 15 17
M  V30 17 1 11 6
M  V30 18 1 1 18
M  V30 19 1 1 19
M  V30 20 1 1 20
M  V30 21 1 2 21
M  V30 22 1 2 22
M  V30 23 1 3 23
M  V30 24 1 3 24
M  V30 25 1 4 25
M  V30 26 1 4 26
M  V30 27 1 7 27
M  V30 28 1 8 28
M  V30 29 1 9 29
M  V30 30 1 10 30
M  V30 31 1 12 31
M  V30 32 1 16 32
M  V30 33 1 16 33
M  V30 34 1 17 34
M  V30 35 1 17 35
M  V30 END BOND
M  V30 END CTAB
M  END
