
     RDKit          3D

  0  0  0  0  0  0  0  0  0  0999 V3000
M  V30 BEGIN CTAB
M  V30 COUNTS 41 43 0 0 0
M  V30 BEGIN ATOM
M  V30 1 N -2.99587 -1.97614 -1.177 0
M  V30 2 C -2.6293 -2.50825 0.121923 0
M  V30 3 C -2.48628 -1.34559 1.10891 0
M  V30 4 N -1.49183 -0.408746 0.740404 0
M  V30 5 C -0.100418 -0.849804 0.817234 0
M  V30 6 C 0.779945 -0.0387739 -0.105022 0 CFG=1
M  V30 7 C 0.656055 1.40136 0.35475 0
M  V30 8 C -0.74127 1.82378 0.122433 0
M  V30 9 C -1.77623 0.906544 0.310258 0
M  V30 10 C -3.0935 1.27539 0.0883652 0
M  V30 11 C -3.33026 2.5742 -0.320488 0
M  V30 12 C -2.32669 3.4905 -0.509971 0
M  V30 13 C -1.02516 3.0997 -0.283539 0
M  V30 14 C 2.18424 -0.440411 0.0536993 0
M  V30 15 C 2.66476 -1.24327 1.07114 0
M  V30 16 C 4.0216 -1.56122 1.14695 0
M  V30 17 C 4.90859 -1.08409 0.2135 0
M  V30 18 C 4.42996 -0.283762 -0.801746 0
M  V30 19 C 3.08486 0.039325 -0.888504 0
M  V30 20 N 2.61862 0.850098 -1.94203 0
M  V30 21 H -3.95536 -1.58111 -1.06104 0
M  V30 22 H -3.06044 -2.75579 -1.83566 0
M  V30 23 H -1.71715 -3.08576 -0.0121394 0
M  V30 24 H -3.41223 -3.20453 0.483484 0
M  V30 25 H -3.50307 -0.989503 1.26976 0
M  V30 26 H -2.09266 -1.86602 2.04669 0
M  V30 27 H 0.271871 -0.624008 1.86203 0
M  V30 28 H 0.0396669 -1.89956 0.56273 0
M  V30 29 H 0.393437 -0.192166 -1.13427 0
M  V30 30 H 1.3967 2.08163 -0.0427942 0
M  V30 31 H 0.837109 1.36636 1.46806 0
M  V30 32 H -3.90392 0.573607 0.223322 0
M  V30 33 H -4.34741 2.89024 -0.500335 0
M  V30 34 H -2.50737 4.50352 -0.827062 0
M  V30 35 H -0.185843 3.78194 -0.418622 0
M  V30 36 H 1.98854 -1.62877 1.81021 0
M  V30 37 H 4.34981 -2.18915 1.96002 0
M  V30 38 H 5.97188 -1.35483 0.30356 0
M  V30 39 H 5.11551 0.0972422 -1.54373 0
M  V30 40 H 1.63285 1.03388 -2.17983 0
M  V30 41 H 3.33624 1.32192 -2.55566 0
M  V30 END ATOM
M  V30 BEGIN BOND
M  V30 1 1 1 2
M  V30 2 1 2 3
M  V30 3 1 3 4
M  V30 4 1 4 5
M  V30 5 1 5 6
M  V30 6 1 6 7
M  V30 7 1 7 8
M  V30 8 2 8 9
M  V30 9 1 9 10
M  V30 10 2 10 11
M  V30 11 1 11 12
M  V30 12 2 12 13
M  V30 13 1 6 14
M  V30 14 2 14 15
M  V30 15 1 15 16
M  V30 16 2 16 17
M  V30 17 1 17 18
M  V30 18 2 18 19
M  V30 19 1 19 20
M  V30 20 1 9 4
M  V30 21 1 19 14
M  V30 22 1 13 8
M  V30 23 1 1 21
M  V30 24 1 1 22
M  V30 25 1 2 23
M  V30 26 1 2 24
M  V30 27 1 3 25
M  V30 28 1 3 26
M  V30 29 1 5 27
M  V30 30 1 5 28
M  V30 31 1 6 29 CFG=3
M  V30 32 1 7 30
M  V30 33 1 7 31
M  V30 34 1 10 32
M  V30 35 1 11 33
M  V30 36 1 12 34
M  V30 37 1 13 35
M  V30 38 1 15 36
M  V30 39 1 16 37
M  V30 40 1 17 38
M  V30 41 1 18 39
M  V30 42 1 20 40
M  V30 43 1 20 41
M  V30 END BOND
M  V30 END CTAB
M  END
