
     RDKit          3D

  0  0  0  0  0  0  0  0  0  0999 V3000
M  V30 BEGIN CTAB
M  V30 COUNTS 36 37 0 0 0
M  V30 BEGIN ATOM
M  V30 1 O 0.228896 -0.799502 -0.142435 0
M  V30 2 C 0.019874 0.279103 -0.746911 0
M  V30 3 C -1.26977 1.00901 -0.429265 0
M  V30 4 O -2.0298 0.361668 0.494209 0
M  V30 5 C -3.26835 -0.161794 0.330342 0
M  V30 6 C -3.93958 -0.808382 1.38109 0
M  V30 7 C -5.19388 -1.3486 1.24686 0
M  V30 8 C -5.85151 -1.26928 0.037993 0
M  V30 9 C -5.22854 -0.647466 -1.00538 0
M  V30 10 C -3.94905 -0.102096 -0.850561 0
M  V30 11 Cl -7.47092 -1.96686 -0.135044 0
M  V30 12 C -0.929359 2.44209 -0.029794 0
M  V30 13 O 0.945648 0.73013 -1.64093 0
M  V30 14 C 2.14752 0.130726 -1.991 0
M  V30 15 C 3.10982 -0.062053 -0.888301 0
M  V30 16 N 3.19348 -1.23047 -0.239011 0
M  V30 17 C 4.06704 -1.43406 0.775775 0
M  V30 18 N 4.06965 -2.71329 1.39327 0
M  V30 19 N 4.85319 -0.422959 1.11511 0
M  V30 20 C 4.79807 0.76211 0.487769 0
M  V30 21 N 3.92725 0.929011 -0.506519 0
M  V30 22 N 5.66557 1.80366 0.897868 0
M  V30 23 H -1.77301 1.08632 -1.40521 0
M  V30 24 H -3.40411 -0.857926 2.31814 0
M  V30 25 H -5.7109 -1.84643 2.05551 0
M  V30 26 H -5.70218 -0.563018 -1.96184 0
M  V30 27 H -3.51366 0.385432 -1.74605 0
M  V30 28 H -0.33501 2.8614 -0.87303 0
M  V30 29 H -0.323328 2.48947 0.874457 0
M  V30 30 H -1.87496 2.99692 0.00115777 0
M  V30 31 H 2.01869 -0.861457 -2.48827 0
M  V30 32 H 2.60525 0.776209 -2.79856 0
M  V30 33 H 3.81874 -2.75703 2.40588 0
M  V30 34 H 4.31314 -3.58212 0.85788 0
M  V30 35 H 6.0922 2.46386 0.217122 0
M  V30 36 H 5.89387 1.92769 1.90074 0
M  V30 END ATOM
M  V30 BEGIN BOND
M  V30 1 2 1 2
M  V30 2 1 2 3
M  V30 3 1 3 4
M  V30 4 1 4 5
M  V30 5 2 5 6
M  V30 6 1 6 7
M  V30 7 2 7 8
M  V30 8 1 8 9
M  V30 9 2 9 10
M  V30 10 1 8 11
M  V30 11 1 3 12
M  V30 12 1 2 13
M  V30 13 1 13 14
M  V30 14 1 14 15
M  V30 15 2 15 16
M  V30 16 1 16 17
M  V30 17 1 17 18
M  V30 18 2 17 19
M  V30 19 1 19 20
M  V30 20 2 20 21
M  V30 21 1 20 22
M  V30 22 1 10 5
M  V30 23 1 21 15
M  V30 24 1 3 23
M  V30 25 1 6 24
M  V30 26 1 7 25
M  V30 27 1 9 26
M  V30 28 1 10 27
M  V30 29 1 12 28
M  V30 30 1 12 29
M  V30 31 1 12 30
M  V30 32 1 14 31
M  V30 33 1 14 32
M  V30 34 1 18 33
M  V30 35 1 18 34
M  V30 36 1 22 35
M  V30 37 1 22 36
M  V30 END BOND
M  V30 END CTAB
M  END
