
     RDKit          3D

  0  0  0  0  0  0  0  0  0  0999 V3000
M  V30 BEGIN CTAB
M  V30 COUNTS 18 17 0 0 0
M  V30 BEGIN ATOM
M  V30 1 N -3.29678 -0.0433886 0.0095297 0
M  V30 2 C -1.91406 -0.275508 0.406369 0
M  V30 3 C -1.0581 0.604813 -0.46688 0
M  V30 4 O 0.311619 0.514638 -0.225807 0
M  V30 5 C 1.07614 -0.623434 -0.344365 0
M  V30 6 O 0.519283 -1.68904 -0.699858 0
M  V30 7 C 2.51903 -0.555326 -0.0513063 0
M  V30 8 N 2.8492 0.801288 0.328374 0
M  V30 9 H -3.38209 0.915241 -0.357575 0
M  V30 10 H -3.89883 -0.24281 0.842447 0
M  V30 11 H -1.66973 -1.34435 0.347791 0
M  V30 12 H -1.7393 0.0379623 1.45787 0
M  V30 13 H -1.37275 1.66115 -0.243122 0
M  V30 14 H -1.32256 0.46676 -1.55057 0
M  V30 15 H 3.13663 -0.886006 -0.925789 0
M  V30 16 H 2.72044 -1.25742 0.81212 0
M  V30 17 H 2.69464 0.911337 1.35514 0
M  V30 18 H 3.82721 1.0041 0.0701373 0
M  V30 END ATOM
M  V30 BEGIN BOND
M  V30 1 1 1 2
M  V30 2 1 2 3
M  V30 3 1 3 4
M  V30 4 1 4 5
M  V30 5 2 5 6
M  V30 6 1 5 7
M  V30 7 1 7 8
M  V30 8 1 1 9
M  V30 9 1 1 10
M  V30 10 1 2 11
M  V30 11 1 2 12
M  V30 12 1 3 13
M  V30 13 1 3 14
M  V30 14 1 7 15
M  V30 15 1 7 16
M  V30 16 1 8 17
M  V30 17 1 8 18
M  V30 END BOND
M  V30 END CTAB
M  END
