
     RDKit          3D

  0  0  0  0  0  0  0  0  0  0999 V3000
M  V30 BEGIN CTAB
M  V30 COUNTS 39 41 0 0 0
M  V30 BEGIN ATOM
M  V30 1 N -4.83681 -2.3869 -0.922728 0
M  V30 2 C -3.98521 -1.97084 0.132409 0
M  V30 3 S -4.42928 -2.3225 1.6581 0
M  V30 4 C -2.75463 -1.24805 -0.216751 0
M  V30 5 C -1.94272 -0.865465 1.00517 0
M  V30 6 N -0.742307 -0.157721 0.623427 0
M  V30 7 C -0.735536 1.27546 0.497286 0
M  V30 8 N -1.84808 1.99804 0.731278 0
M  V30 9 C -1.82577 3.35123 0.607899 0
M  V30 10 N -2.9964 4.12026 0.853339 0
M  V30 11 C -0.680397 4.02799 0.243724 0
M  V30 12 C 0.452639 3.27794 0.00665195 0
M  V30 13 C 0.441955 1.89127 0.129833 0
M  V30 14 O 1.5765 1.12879 -0.106559 0
M  V30 15 C 1.44809 -0.208829 -0.545677 0
M  V30 16 C 0.462452 -0.870784 0.363936 0
M  V30 17 O 0.66137 -1.99395 0.884079 0
M  V30 18 C 2.7681 -0.841797 -0.494294 0
M  V30 19 C 3.21075 -1.61588 -1.54469 0
M  V30 20 C 4.44339 -2.22921 -1.53951 0
M  V30 21 C 5.26368 -2.05529 -0.430182 0
M  V30 22 C 4.84922 -1.28654 0.63685 0
M  V30 23 C 3.60853 -0.692521 0.587351 0
M  V30 24 H -5.08163 -1.76277 -1.74153 0
M  V30 25 H -5.28116 -3.33761 -0.964806 0
M  V30 26 H -2.96596 -0.330113 -0.80221 0
M  V30 27 H -2.11085 -1.9578 -0.80194 0
M  V30 28 H -1.70425 -1.80321 1.53992 0
M  V30 29 H -2.5613 -0.237623 1.68277 0
M  V30 30 H -3.00686 4.74688 1.69811 0
M  V30 31 H -3.82123 4.08147 0.236879 0
M  V30 32 H -0.66628 5.12449 0.144808 0
M  V30 33 H 1.36762 3.77459 -0.280457 0
M  V30 34 H 1.01152 -0.21084 -1.5532 0
M  V30 35 H 2.58713 -1.77138 -2.4323 0
M  V30 36 H 4.78077 -2.83982 -2.37929 0
M  V30 37 H 6.24125 -2.54941 -0.440738 0
M  V30 38 H 5.50605 -1.16435 1.49271 0
M  V30 39 H 3.29565 -0.0872069 1.44033 0
M  V30 END ATOM
M  V30 BEGIN BOND
M  V30 1 1 1 2
M  V30 2 2 2 3
M  V30 3 1 2 4
M  V30 4 1 4 5
M  V30 5 1 5 6
M  V30 6 1 6 7
M  V30 7 2 7 8
M  V30 8 1 8 9
M  V30 9 1 9 10
M  V30 10 2 9 11
M  V30 11 1 11 12
M  V30 12 2 12 13
M  V30 13 1 13 14
M  V30 14 1 14 15
M  V30 15 1 15 16
M  V30 16 2 16 17
M  V30 17 1 15 18
M  V30 18 2 18 19
M  V30 19 1 19 20
M  V30 20 2 20 21
M  V30 21 1 21 22
M  V30 22 2 22 23
M  V30 23 1 16 6
M  V30 24 1 23 18
M  V30 25 1 13 7
M  V30 26 1 1 24
M  V30 27 1 1 25
M  V30 28 1 4 26
M  V30 29 1 4 27
M  V30 30 1 5 28
M  V30 31 1 5 29
M  V30 32 1 10 30
M  V30 33 1 10 31
M  V30 34 1 11 32
M  V30 35 1 12 33
M  V30 36 1 15 34
M  V30 37 1 19 35
M  V30 38 1 20 36
M  V30 39 1 21 37
M  V30 40 1 22 38
M  V30 41 1 23 39
M  V30 END BOND
M  V30 END CTAB
M  END
