
     RDKit          3D

  0  0  0  0  0  0  0  0  0  0999 V3000
M  V30 BEGIN CTAB
M  V30 COUNTS 23 23 0 0 0
M  V30 BEGIN ATOM
M  V30 1 F -3.73811 -0.677218 0.141983 0
M  V30 2 C -2.54513 -1.26209 -0.194407 0
M  V30 3 O -1.53128 -1.06619 0.759772 0
M  V30 4 C -0.368995 -0.42763 0.377655 0
M  V30 5 C -0.31806 0.946068 0.501044 0
M  V30 6 C -1.49823 1.67517 1.03248 0
M  V30 7 C 0.839059 1.61097 0.123681 0
M  V30 8 C 1.90189 0.872539 -0.363424 0
M  V30 9 C 1.82793 -0.520943 -0.479987 0
M  V30 10 C 0.675237 -1.17526 -0.103234 0
M  V30 11 N 0.541398 -2.58237 -0.198094 0
M  V30 12 N 3.09355 1.52294 -0.755608 0
M  V30 13 F -2.80493 -2.61413 -0.395598 0
M  V30 14 H -2.25626 -0.84992 -1.19278 0
M  V30 15 H -1.1603 2.59508 1.59482 0
M  V30 16 H -2.05743 1.07734 1.77956 0
M  V30 17 H -2.19201 2.0077 0.236478 0
M  V30 18 H 0.923349 2.68773 0.203322 0
M  V30 19 H 2.67958 -1.06153 -0.864961 0
M  V30 20 H 0.651858 -3.12404 -1.08168 0
M  V30 21 H 0.317888 -3.1366 0.657631 0
M  V30 22 H 3.44045 1.38223 -1.72097 0
M  V30 23 H 3.57852 2.12014 -0.0576809 0
M  V30 END ATOM
M  V30 BEGIN BOND
M  V30 1 1 1 2
M  V30 2 1 2 3
M  V30 3 1 3 4
M  V30 4 2 4 5
M  V30 5 1 5 6
M  V30 6 1 5 7
M  V30 7 2 7 8
M  V30 8 1 8 9
M  V30 9 2 9 10
M  V30 10 1 10 11
M  V30 11 1 8 12
M  V30 12 1 2 13
M  V30 13 1 10 4
M  V30 14 1 2 14
M  V30 15 1 6 15
M  V30 16 1 6 16
M  V30 17 1 6 17
M  V30 18 1 7 18
M  V30 19 1 9 19
M  V30 20 1 11 20
M  V30 21 1 11 21
M  V30 22 1 12 22
M  V30 23 1 12 23
M  V30 END BOND
M  V30 END CTAB
M  END
