
     RDKit          3D

  0  0  0  0  0  0  0  0  0  0999 V3000
M  V30 BEGIN CTAB
M  V30 COUNTS 28 28 0 0 0
M  V30 BEGIN ATOM
M  V30 1 N -2.83073 1.26496 0.573234 0
M  V30 2 C -1.59824 1.00973 -0.142198 0
M  V30 3 C -1.27308 -0.475094 -0.17343 0
M  V30 4 C -0.0160251 -0.775491 -0.896037 0
M  V30 5 C 1.21689 -0.182678 -0.416497 0
M  V30 6 C 1.67684 0.962671 -1.03436 0
M  V30 7 C 2.83514 1.55592 -0.57834 0
M  V30 8 C 3.56774 1.05165 0.482263 0
M  V30 9 C 3.09209 -0.0879648 1.08099 0
M  V30 10 C 1.91723 -0.709538 0.635311 0
M  V30 11 F 1.56762 -1.84402 1.29879 0
M  V30 12 N -2.35187 -1.04958 -1.02162 0
M  V30 13 C -1.47273 -1.11386 1.15941 0
M  V30 14 H -2.59654 1.46245 1.56497 0
M  V30 15 H -3.49439 0.474915 0.463175 0
M  V30 16 H -1.77282 1.39392 -1.18789 0
M  V30 17 H -0.810776 1.62499 0.289257 0
M  V30 18 H -0.212695 -0.506624 -1.98339 0
M  V30 19 H 0.0402494 -1.91104 -0.94962 0
M  V30 20 H 1.14121 1.41545 -1.88387 0
M  V30 21 H 3.19972 2.45821 -1.06345 0
M  V30 22 H 4.48916 1.55116 0.821715 0
M  V30 23 H 3.64158 -0.50243 1.90776 0
M  V30 24 H -1.98455 -1.88034 -1.51981 0
M  V30 25 H -3.17486 -1.3135 -0.453573 0
M  V30 26 H -2.57075 -1.04526 1.47344 0
M  V30 27 H -1.28033 -2.19035 1.17975 0
M  V30 28 H -0.945077 -0.638245 2.00129 0
M  V30 END ATOM
M  V30 BEGIN BOND
M  V30 1 1 1 2
M  V30 2 1 2 3
M  V30 3 1 3 4
M  V30 4 1 4 5
M  V30 5 2 5 6
M  V30 6 1 6 7
M  V30 7 2 7 8
M  V30 8 1 8 9
M  V30 9 2 9 10
M  V30 10 1 10 11
M  V30 11 1 3 12
M  V30 12 1 3 13
M  V30 13 1 10 5
M  V30 14 1 1 14
M  V30 15 1 1 15
M  V30 16 1 2 16
M  V30 17 1 2 17
M  V30 18 1 4 18
M  V30 19 1 4 19
M  V30 20 1 6 20
M  V30 21 1 7 21
M  V30 22 1 8 22
M  V30 23 1 9 23
M  V30 24 1 12 24
M  V30 25 1 12 25
M  V30 26 1 13 26
M  V30 27 1 13 27
M  V30 28 1 13 28
M  V30 END BOND
M  V30 END CTAB
M  END
