
     RDKit          3D

  0  0  0  0  0  0  0  0  0  0999 V3000
M  V30 BEGIN CTAB
M  V30 COUNTS 65 70 0 0 0
M  V30 BEGIN ATOM
M  V30 1 O -3.39899 -0.319267 1.83756 0
M  V30 2 C -3.6053 0.738474 1.20537 0
M  V30 3 N -4.82626 1.22989 0.723982 0
M  V30 4 C -6.07245 0.615536 0.86768 0
M  V30 5 C -7.15939 1.17078 0.174659 0
M  V30 6 C -8.42133 0.646965 0.258324 0
M  V30 7 C -8.63862 -0.460656 1.0463 0
M  V30 8 C -7.61601 -1.02874 1.73337 0
M  V30 9 C -6.32439 -0.475377 1.63471 0
M  V30 10 S -10.2326 -1.16372 1.18024 0
M  V30 11 O -11.2999 -0.111326 1.05023 0
M  V30 12 O -10.3305 -1.87519 2.49914 0
M  V30 13 N -10.3749 -2.35837 -0.0736393 0
M  V30 14 C -2.36293 1.57892 0.937532 0
M  V30 15 S -0.886595 0.771236 1.61294 0
M  V30 16 C -0.556237 -0.743824 0.725415 0
M  V30 17 N -1.01279 -1.95752 0.992295 0
M  V30 18 N -0.526573 -2.7844 0.0897725 0
M  V30 19 C 0.266352 -2.10682 -0.79021 0
M  V30 20 N 0.239857 -0.839305 -0.385101 0
M  V30 21 C 0.89966 0.271641 -0.983967 0
M  V30 22 C 1.84975 0.969979 -0.282568 0
M  V30 23 C 2.50703 2.05599 -0.811626 0
M  V30 24 C 2.18098 2.43494 -2.09297 0
M  V30 25 C 1.24289 1.77768 -2.83965 0
M  V30 26 C 0.605576 0.68605 -2.26168 0
M  V30 27 C 0.973774 -2.66543 -1.95722 0
M  V30 28 S 2.53962 -3.42715 -1.57732 0
M  V30 29 C 3.7796 -2.32377 -0.985226 0
M  V30 30 N 4.63338 -1.65976 -1.75133 0
M  V30 31 C 5.57119 -0.843135 -1.30032 0
M  V30 32 N 6.41804 -0.197542 -2.25839 0
M  V30 33 C 5.74198 -0.606273 0.086459 0
M  V30 34 C 4.85608 -1.29586 0.868998 0
M  V30 35 N 3.90264 -2.13041 0.346436 0
M  V30 36 S 5.29625 -0.822423 2.45165 0
M  V30 37 C 6.57719 0.225522 2.09102 0
M  V30 38 C 6.63982 0.187981 0.731805 0
M  V30 39 C 7.78428 1.12372 0.352159 0
M  V30 40 C 8.67359 1.02735 1.54913 0
M  V30 41 C 7.62864 1.14023 2.66974 0
M  V30 42 H -4.7549 2.17099 0.201452 0
M  V30 43 H -7.02722 2.0408 -0.453979 0
M  V30 44 H -9.24949 1.09961 -0.292457 0
M  V30 45 H -7.77222 -1.9005 2.35722 0
M  V30 46 H -5.54823 -0.961369 2.20571 0
M  V30 47 H -10.045 -1.90537 -0.958034 0
M  V30 48 H -11.3896 -2.57397 -0.161949 0
M  V30 49 H -2.51884 2.555 1.41778 0
M  V30 50 H -2.2062 1.70776 -0.142077 0
M  V30 51 H 2.11255 0.67638 0.730663 0
M  V30 52 H 3.254 2.63153 -0.305389 0
M  V30 53 H 2.67038 3.29476 -2.57341 0
M  V30 54 H 0.958492 2.03547 -3.83488 0
M  V30 55 H -0.133348 0.14886 -2.81366 0
M  V30 56 H 1.1666 -1.85864 -2.70436 0
M  V30 57 H 0.328245 -3.46898 -2.42574 0
M  V30 58 H 6.47078 0.84013 -2.23012 0
M  V30 59 H 6.9768 -0.69523 -2.97158 0
M  V30 60 H 8.2615 0.816138 -0.585117 0
M  V30 61 H 7.33213 2.12125 0.324045 0
M  V30 62 H 9.40697 1.85428 1.61378 0
M  V30 63 H 9.1748 0.0396308 1.61064 0
M  V30 64 H 8.08355 0.706912 3.56382 0
M  V30 65 H 7.28587 2.16796 2.77817 0
M  V30 END ATOM
M  V30 BEGIN BOND
M  V30 1 2 1 2
M  V30 2 1 2 3
M  V30 3 1 3 4
M  V30 4 2 4 5
M  V30 5 1 5 6
M  V30 6 2 6 7
M  V30 7 1 7 8
M  V30 8 2 8 9
M  V30 9 1 7 10
M  V30 10 2 10 11
M  V30 11 2 10 12
M  V30 12 1 10 13
M  V30 13 1 2 14
M  V30 14 1 14 15
M  V30 15 1 15 16
M  V30 16 2 16 17
M  V30 17 1 17 18
M  V30 18 2 18 19
M  V30 19 1 19 20
M  V30 20 1 20 21
M  V30 21 2 21 22
M  V30 22 1 22 23
M  V30 23 2 23 24
M  V30 24 1 24 25
M  V30 25 2 25 26
M  V30 26 1 19 27
M  V30 27 1 27 28
M  V30 28 1 28 29
M  V30 29 2 29 30
M  V30 30 1 30 31
M  V30 31 1 31 32
M  V30 32 2 31 33
M  V30 33 1 33 34
M  V30 34 2 34 35
M  V30 35 1 34 36
M  V30 36 1 36 37
M  V30 37 2 37 38
M  V30 38 1 38 39
M  V30 39 1 39 40
M  V30 40 1 40 41
M  V30 41 1 9 4
M  V30 42 1 20 16
M  V30 43 1 26 21
M  V30 44 1 35 29
M  V30 45 1 41 37
M  V30 46 1 38 33
M  V30 47 1 3 42
M  V30 48 1 5 43
M  V30 49 1 6 44
M  V30 50 1 8 45
M  V30 51 1 9 46
M  V30 52 1 13 47
M  V30 53 1 13 48
M  V30 54 1 14 49
M  V30 55 1 14 50
M  V30 56 1 22 51
M  V30 57 1 23 52
M  V30 58 1 24 53
M  V30 59 1 25 54
M  V30 60 1 26 55
M  V30 61 1 27 56
M  V30 62 1 27 57
M  V30 63 1 32 58
M  V30 64 1 32 59
M  V30 65 1 39 60
M  V30 66 1 39 61
M  V30 67 1 40 62
M  V30 68 1 40 63
M  V30 69 1 41 64
M  V30 70 1 41 65
M  V30 END BOND
M  V30 END CTAB
M  END
