
     RDKit          3D

  0  0  0  0  0  0  0  0  0  0999 V3000
M  V30 BEGIN CTAB
M  V30 COUNTS 8 7 0 0 0
M  V30 BEGIN ATOM
M  V30 1 N 1.23724 0.0919816 0.0409004 0
M  V30 2 C -0.136447 0.454023 0.0184343 0 MASS=13
M  V30 3 N -1.08547 -0.591655 -0.059973 0
M  V30 4 S -0.599984 2.03815 0.0818077 0
M  V30 5 H 1.55776 -0.636779 -0.631948 0
M  V30 6 H 1.86223 0.557718 0.714657 0
M  V30 7 H -1.52393 -0.913367 0.81937 0
M  V30 8 H -1.3114 -1.00007 -0.983249 0
M  V30 END ATOM
M  V30 BEGIN BOND
M  V30 1 1 1 2
M  V30 2 1 2 3
M  V30 3 2 2 4
M  V30 4 1 1 5
M  V30 5 1 1 6
M  V30 6 1 3 7
M  V30 7 1 3 8
M  V30 END BOND
M  V30 END CTAB
M  END
