
     RDKit          3D

  0  0  0  0  0  0  0  0  0  0999 V3000
M  V30 BEGIN CTAB
M  V30 COUNTS 41 42 0 0 0
M  V30 BEGIN ATOM
M  V30 1 C -3.95694 2.31221 0.796376 0
M  V30 2 C -4.39262 0.907916 0.468449 0
M  V30 3 C -3.23792 -0.0690788 0.486829 0
M  V30 4 C -2.19083 0.310385 -0.519814 0
M  V30 5 N -1.06919 -0.597415 -0.537305 0
M  V30 6 C -0.0348357 -0.300147 0.281515 0
M  V30 7 O -0.067565 0.728837 1.00365 0
M  V30 8 N 1.08349 -1.07181 0.379912 0
M  V30 9 C 2.12908 -0.764609 1.32318 0
M  V30 10 C 3.05625 0.320928 0.982437 0
M  V30 11 C 4.07442 0.315076 0.0703822 0
M  V30 12 F 4.3202 -0.810441 -0.65314 0
M  V30 13 C 4.89891 1.42085 -0.147142 0
M  V30 14 C 4.72856 2.5829 0.551059 0
M  V30 15 C 3.71712 2.62674 1.47687 0
M  V30 16 C 2.9123 1.53615 1.68413 0
M  V30 17 C 1.13162 -2.1749 -0.38293 0
M  V30 18 O 2.11165 -2.97158 -0.367664 0
M  V30 19 C 0.0589177 -2.48905 -1.23833 0
M  V30 20 N 0.121597 -3.6582 -2.03874 0
M  V30 21 C -1.04533 -1.67411 -1.29899 0
M  V30 22 N -2.12742 -1.99757 -2.16561 0
M  V30 23 H -3.53587 2.40278 1.8253 0
M  V30 24 H -3.27285 2.73318 0.0319952 0
M  V30 25 H -4.86024 2.95668 0.777751 0
M  V30 26 H -5.19292 0.620054 1.17174 0
M  V30 27 H -4.86465 0.956392 -0.546488 0
M  V30 28 H -2.76385 0.0472294 1.50236 0
M  V30 29 H -3.65616 -1.06726 0.334278 0
M  V30 30 H -2.658 0.265893 -1.52433 0
M  V30 31 H -1.83275 1.32631 -0.35809 0
M  V30 32 H 2.69758 -1.71018 1.58048 0
M  V30 33 H 1.65359 -0.510603 2.31814 0
M  V30 34 H 5.68967 1.32168 -0.898861 0
M  V30 35 H 5.37954 3.42984 0.366836 0
M  V30 36 H 3.56559 3.55499 2.04871 0
M  V30 37 H 2.13036 1.58225 2.43682 0
M  V30 38 H 0.953715 -3.86415 -2.62441 0
M  V30 39 H -0.664652 -4.33623 -2.05734 0
M  V30 40 H -2.77175 -2.75534 -1.90871 0
M  V30 41 H -2.21784 -1.4366 -3.0409 0
M  V30 END ATOM
M  V30 BEGIN BOND
M  V30 1 1 1 2
M  V30 2 1 2 3
M  V30 3 1 3 4
M  V30 4 1 4 5
M  V30 5 1 5 6
M  V30 6 2 6 7
M  V30 7 1 6 8
M  V30 8 1 8 9
M  V30 9 1 9 10
M  V30 10 2 10 11
M  V30 11 1 11 12
M  V30 12 1 11 13
M  V30 13 2 13 14
M  V30 14 1 14 15
M  V30 15 2 15 16
M  V30 16 1 8 17
M  V30 17 2 17 18
M  V30 18 1 17 19
M  V30 19 1 19 20
M  V30 20 2 19 21
M  V30 21 1 21 22
M  V30 22 1 21 5
M  V30 23 1 16 10
M  V30 24 1 1 23
M  V30 25 1 1 24
M  V30 26 1 1 25
M  V30 27 1 2 26
M  V30 28 1 2 27
M  V30 29 1 3 28
M  V30 30 1 3 29
M  V30 31 1 4 30
M  V30 32 1 4 31
M  V30 33 1 9 32
M  V30 34 1 9 33
M  V30 35 1 13 34
M  V30 36 1 14 35
M  V30 37 1 15 36
M  V30 38 1 16 37
M  V30 39 1 20 38
M  V30 40 1 20 39
M  V30 41 1 22 40
M  V30 42 1 22 41
M  V30 END BOND
M  V30 END CTAB
M  END
