
     RDKit          3D

  0  0  0  0  0  0  0  0  0  0999 V3000
M  V30 BEGIN CTAB
M  V30 COUNTS 45 47 0 0 0
M  V30 BEGIN ATOM
M  V30 1 N -1.2688 1.73024 -3.01931 0
M  V30 2 C -1.31493 1.25433 -1.66409 0
M  V30 3 N -1.70326 0.0783855 -1.36274 0
M  V30 4 C -1.7747 -0.411674 -0.00652711 0
M  V30 5 N -0.944343 0.337477 0.860011 0
M  V30 6 C -0.353891 -0.234641 2.08192 0
M  V30 7 C 0.723333 -1.24868 1.63827 0
M  V30 8 C 1.76573 -0.527827 0.814666 0
M  V30 9 O 2.77037 -1.45538 0.370511 0
M  V30 10 C 3.82068 -1.00835 -0.404052 0
M  V30 11 C 4.779 -1.87556 -0.839459 0
M  V30 12 C 5.85312 -1.49116 -1.61681 0
M  V30 13 C 5.94027 -0.139922 -1.96104 0
M  V30 14 Cl 7.2968 0.412827 -2.9553 0
M  V30 15 C 4.986 0.75442 -1.53347 0
M  V30 16 C 3.92586 0.330223 -0.757268 0
M  V30 17 C -0.557486 1.66394 0.552372 0
M  V30 18 N 0.0160663 2.52233 1.5664 0
M  V30 19 N -0.727564 2.08597 -0.648641 0
M  V30 20 C -3.23506 -0.412849 0.419013 0
M  V30 21 C -3.67597 0.137755 1.58805 0
M  V30 22 C -5.04305 0.137146 1.9206 0
M  V30 23 C -5.97713 -0.417548 1.07791 0
M  V30 24 Cl -7.69411 -0.42025 1.4922 0
M  V30 25 C -5.5229 -0.970516 -0.100077 0
M  V30 26 C -4.17402 -0.968948 -0.425869 0
M  V30 27 Cl -3.59772 -1.67442 -1.92682 0
M  V30 28 H -1.50154 2.71688 -3.20205 0
M  V30 29 H -1.01129 1.1147 -3.8036 0
M  V30 30 H -1.45399 -1.49581 -0.0687662 0
M  V30 31 H -1.14826 -0.742312 2.63423 0
M  V30 32 H 0.167675 0.518801 2.68208 0
M  V30 33 H 0.26954 -2.07431 1.08925 0
M  V30 34 H 1.20497 -1.59478 2.57176 0
M  V30 35 H 1.37602 -0.0656815 -0.095364 0
M  V30 36 H 2.30476 0.233539 1.45076 0
M  V30 37 H 4.74874 -2.94608 -0.593239 0
M  V30 38 H 6.62366 -2.17478 -1.97048 0
M  V30 39 H 5.03315 1.82112 -1.79144 0
M  V30 40 H 3.19941 1.06562 -0.442142 0
M  V30 41 H 0.847475 3.09876 1.31263 0
M  V30 42 H -0.385839 2.5688 2.52729 0
M  V30 43 H -2.97022 0.593426 2.26144 0
M  V30 44 H -5.36489 0.580691 2.85377 0
M  V30 45 H -6.25169 -1.4059 -0.761162 0
M  V30 END ATOM
M  V30 BEGIN BOND
M  V30 1 1 1 2
M  V30 2 2 2 3
M  V30 3 1 3 4
M  V30 4 1 4 5
M  V30 5 1 5 6
M  V30 6 1 6 7
M  V30 7 1 7 8
M  V30 8 1 8 9
M  V30 9 1 9 10
M  V30 10 2 10 11
M  V30 11 1 11 12
M  V30 12 2 12 13
M  V30 13 1 13 14
M  V30 14 1 13 15
M  V30 15 2 15 16
M  V30 16 1 5 17
M  V30 17 1 17 18
M  V30 18 2 17 19
M  V30 19 1 4 20
M  V30 20 2 20 21
M  V30 21 1 21 22
M  V30 22 2 22 23
M  V30 23 1 23 24
M  V30 24 1 23 25
M  V30 25 2 25 26
M  V30 26 1 26 27
M  V30 27 1 19 2
M  V30 28 1 26 20
M  V30 29 1 16 10
M  V30 30 1 1 28
M  V30 31 1 1 29
M  V30 32 1 4 30
M  V30 33 1 6 31
M  V30 34 1 6 32
M  V30 35 1 7 33
M  V30 36 1 7 34
M  V30 37 1 8 35
M  V30 38 1 8 36
M  V30 39 1 11 37
M  V30 40 1 12 38
M  V30 41 1 15 39
M  V30 42 1 16 40
M  V30 43 1 18 41
M  V30 44 1 18 42
M  V30 45 1 21 43
M  V30 46 1 22 44
M  V30 47 1 25 45
M  V30 END BOND
M  V30 END CTAB
M  END
