
     RDKit          3D

  0  0  0  0  0  0  0  0  0  0999 V3000
M  V30 BEGIN CTAB
M  V30 COUNTS 73 75 0 0 0
M  V30 BEGIN ATOM
M  V30 1 N -11.061 -0.48542 2.6308 0
M  V30 2 C -10.7063 -0.314761 1.25213 0
M  V30 3 N -11.6632 -0.243519 0.410908 0
M  V30 4 C -9.30131 -0.23196 0.877527 0
M  V30 5 C -8.34121 -0.320197 1.8711 0
M  V30 6 C -6.99368 -0.2519 1.59741 0
M  V30 7 C -6.5332 -0.0891189 0.292635 0
M  V30 8 C -7.49315 -0.00306631 -0.684176 0
M  V30 9 C -8.85621 -0.0715629 -0.411365 0
M  V30 10 C -5.08118 -0.020251 0.0143227 0
M  V30 11 O -4.32921 -0.251741 0.969148 0
M  V30 12 N -4.58328 0.28853 -1.25238 0
M  V30 13 C -3.13715 0.365636 -1.518 0
M  V30 14 C -2.46795 1.41935 -0.76333 0
M  V30 15 C -0.99539 1.68827 -0.899881 0
M  V30 16 C -0.150888 0.573614 -0.532264 0 CFG=2
M  V30 17 N 1.32291 0.812151 -0.470132 0
M  V30 18 C 2.02546 -0.323364 0.087964 0
M  V30 19 C 1.13964 -1.57254 0.277557 0
M  V30 20 N 0.429948 -1.75861 -0.96523 0
M  V30 21 C 0.304299 -3.06685 -1.53492 0
M  V30 22 C -0.923695 -3.70821 -1.01447 0
M  V30 23 O -1.6906 -3.04525 -0.0793181 0
M  V30 24 O -1.31283 -4.84633 -1.38465 0
M  V30 25 C -0.0911768 -0.56763 -1.54396 0
M  V30 26 O -0.4422 -0.456527 -2.70739 0
M  V30 27 C 1.97131 1.94884 -0.899611 0
M  V30 28 O 1.16251 2.87906 -1.44661 0
M  V30 29 C 3.33392 2.40568 -0.910618 0
M  V30 30 N 4.39677 1.65562 -0.392938 0
M  V30 31 C 5.72806 2.22641 -0.46688 0
M  V30 32 O 5.8672 3.36098 -0.989927 0
M  V30 33 C 6.85299 1.50665 0.0462493 0
M  V30 34 C 8.12194 2.03011 -0.198225 0
M  V30 35 C 9.24524 1.3835 0.274765 0
M  V30 36 C 9.17855 0.223965 0.990629 0
M  V30 37 C 7.89763 -0.279814 1.22211 0
M  V30 38 C 6.75211 0.344612 0.76166 0
M  V30 39 C 10.3405 -0.469139 1.49597 0
M  V30 40 N 10.1694 -1.67602 2.22929 0
M  V30 41 N 11.5214 -0.0506951 1.31589 0
M  V30 42 H -11.7237 -1.21866 2.88686 0
M  V30 43 H -10.6317 0.14389 3.32556 0
M  V30 44 H -11.518 -0.120571 -0.608679 0
M  V30 45 H -8.66139 -0.446622 2.89799 0
M  V30 46 H -6.23947 -0.321773 2.38239 0
M  V30 47 H -7.18352 0.121724 -1.70787 0
M  V30 48 H -9.59553 -0.001873 -1.19604 0
M  V30 49 H -5.24498 0.473638 -2.04356 0
M  V30 50 H -2.98512 0.520641 -2.60803 0
M  V30 51 H -2.72561 -0.632929 -1.24682 0
M  V30 52 H -3.03462 2.41901 -0.868066 0
M  V30 53 H -2.66389 1.21721 0.350594 0
M  V30 54 H -0.804295 2.57449 -0.231396 0
M  V30 55 H -0.872042 2.04162 -1.96839 0
M  V30 56 H -0.416659 0.127304 0.434422 0
M  V30 57 H 2.50686 -0.0816852 1.05195 0
M  V30 58 H 2.74218 -0.646197 -0.693906 0
M  V30 59 H 1.85874 -2.3993 0.473703 0
M  V30 60 H 0.50318 -1.48501 1.15967 0
M  V30 61 H 0.30515 -3.05347 -2.64879 0
M  V30 62 H 1.1793 -3.67235 -1.15293 0
M  V30 63 H -1.74642 -3.41141 0.881607 0
M  V30 64 H 3.60841 2.71541 -1.98391 0
M  V30 65 H 3.37579 3.43991 -0.381128 0
M  V30 66 H 4.33665 0.741951 0.0373773 0
M  V30 67 H 8.21702 2.95122 -0.764123 0
M  V30 68 H 10.2423 1.81159 0.0722651 0
M  V30 69 H 7.77934 -1.2081 1.79075 0
M  V30 70 H 5.7795 -0.121053 0.992694 0
M  V30 71 H 9.76852 -1.71611 3.19919 0
M  V30 72 H 10.4628 -2.57025 1.76732 0
M  V30 73 H 11.7742 0.799239 0.807788 0
M  V30 END ATOM
M  V30 BEGIN BOND
M  V30 1 1 1 2
M  V30 2 2 2 3 CFG=2
M  V30 3 1 2 4
M  V30 4 2 4 5
M  V30 5 1 5 6
M  V30 6 2 6 7
M  V30 7 1 7 8
M  V30 8 2 8 9
M  V30 9 1 7 10
M  V30 10 2 10 11
M  V30 11 1 10 12
M  V30 12 1 12 13
M  V30 13 1 13 14
M  V30 14 1 14 15
M  V30 15 1 15 16
M  V30 16 1 16 17
M  V30 17 1 17 18
M  V30 18 1 18 19
M  V30 19 1 19 20
M  V30 20 1 20 21
M  V30 21 1 21 22
M  V30 22 1 22 23
M  V30 23 2 22 24
M  V30 24 1 20 25
M  V30 25 2 25 26
M  V30 26 1 17 27
M  V30 27 2 27 28
M  V30 28 1 27 29
M  V30 29 1 29 30
M  V30 30 1 30 31
M  V30 31 2 31 32
M  V30 32 1 31 33
M  V30 33 2 33 34
M  V30 34 1 34 35
M  V30 35 2 35 36
M  V30 36 1 36 37
M  V30 37 2 37 38
M  V30 38 1 36 39
M  V30 39 1 39 40
M  V30 40 2 39 41 CFG=2
M  V30 41 1 9 4
M  V30 42 1 25 16
M  V30 43 1 38 33
M  V30 44 1 1 42
M  V30 45 1 1 43
M  V30 46 1 3 44
M  V30 47 1 5 45
M  V30 48 1 6 46
M  V30 49 1 8 47
M  V30 50 1 9 48
M  V30 51 1 12 49
M  V30 52 1 13 50
M  V30 53 1 13 51
M  V30 54 1 14 52
M  V30 55 1 14 53
M  V30 56 1 15 54
M  V30 57 1 15 55
M  V30 58 1 16 56 CFG=1
M  V30 59 1 18 57
M  V30 60 1 18 58
M  V30 61 1 19 59
M  V30 62 1 19 60
M  V30 63 1 21 61
M  V30 64 1 21 62
M  V30 65 1 23 63
M  V30 66 1 29 64
M  V30 67 1 29 65
M  V30 68 1 30 66
M  V30 69 1 34 67
M  V30 70 1 35 68
M  V30 71 1 37 69
M  V30 72 1 38 70
M  V30 73 1 40 71
M  V30 74 1 40 72
M  V30 75 1 41 73
M  V30 END BOND
M  V30 END CTAB
M  END
