
     RDKit          3D

  0  0  0  0  0  0  0  0  0  0999 V3000
M  V30 BEGIN CTAB
M  V30 COUNTS 17 18 0 0 0
M  V30 BEGIN ATOM
M  V30 1 N 3.31319 -0.680366 0.142495 0
M  V30 2 C 1.90321 -0.394592 0.0829383 0
M  V30 3 N 1.01589 -1.37895 -0.087721 0
M  V30 4 C -0.308096 -1.20534 -0.154486 0
M  V30 5 N -1.18873 -2.20675 -0.326659 0
M  V30 6 N -2.5062 -1.98425 -0.387409 0
M  V30 7 C -2.96031 -0.724913 -0.273064 0
M  V30 8 N -2.10297 0.296632 -0.100112 0
M  V30 9 C -0.779106 0.089036 -0.0372389 0
M  V30 10 C 0.13541 1.12388 0.140973 0
M  V30 11 N -0.384589 2.44024 0.257533 0
M  V30 12 N 1.45375 0.860477 0.197101 0
M  V30 13 H 3.84811 -0.565445 -0.741333 0
M  V30 14 H 3.76959 -0.986834 1.03011 0
M  V30 15 H -4.04186 -0.593163 -0.328772 0
M  V30 16 H -0.297922 3.12603 -0.525911 0
M  V30 17 H -0.86937 2.78432 1.11156 0
M  V30 END ATOM
M  V30 BEGIN BOND
M  V30 1 1 1 2
M  V30 2 2 2 3
M  V30 3 1 3 4
M  V30 4 2 4 5
M  V30 5 1 5 6
M  V30 6 2 6 7
M  V30 7 1 7 8
M  V30 8 2 8 9
M  V30 9 1 9 10
M  V30 10 1 10 11
M  V30 11 2 10 12
M  V30 12 1 12 2
M  V30 13 1 9 4
M  V30 14 1 1 13
M  V30 15 1 1 14
M  V30 16 1 7 15
M  V30 17 1 11 16
M  V30 18 1 11 17
M  V30 END BOND
M  V30 END CTAB
M  END
