
     RDKit          3D

  0  0  0  0  0  0  0  0  0  0999 V3000
M  V30 BEGIN CTAB
M  V30 COUNTS 24 25 0 0 0
M  V30 BEGIN ATOM
M  V30 1 C 3.73654 -0.995626 -0.284012 0
M  V30 2 C 2.3284 -0.503682 -0.146576 0
M  V30 3 N 1.33003 -1.37268 -0.383406 0
M  V30 4 C 0.0285891 -0.979847 -0.273352 0
M  V30 5 C -1.00514 -1.86709 -0.515129 0
M  V30 6 C -2.32244 -1.4726 -0.40459 0
M  V30 7 C -2.65364 -0.180774 -0.0494225 0
M  V30 8 N -4.01493 0.23384 0.0667133 0
M  V30 9 C -1.60561 0.703398 0.191492 0
M  V30 10 C -0.286146 0.315552 0.0827718 0
M  V30 11 C 0.770155 1.19191 0.321526 0
M  V30 12 N 0.463655 2.514 0.684963 0
M  V30 13 C 2.08018 0.80748 0.21376 0
M  V30 14 H 4.01102 -1.05485 -1.35898 0
M  V30 15 H 4.42832 -0.311836 0.282891 0
M  V30 16 H 3.83702 -2.01775 0.184284 0
M  V30 17 H -0.80311 -2.89964 -0.798938 0
M  V30 18 H -3.15767 -2.16241 -0.592476 0
M  V30 19 H -4.35055 0.394436 1.06106 0
M  V30 20 H -4.62452 0.367282 -0.745302 0
M  V30 21 H -1.8512 1.71091 0.468495 0
M  V30 22 H 1.05322 3.28142 0.264624 0
M  V30 23 H -0.29081 2.8109 1.33055 0
M  V30 24 H 2.89862 1.48767 0.399051 0
M  V30 END ATOM
M  V30 BEGIN BOND
M  V30 1 1 1 2
M  V30 2 2 2 3
M  V30 3 1 3 4
M  V30 4 2 4 5
M  V30 5 1 5 6
M  V30 6 2 6 7
M  V30 7 1 7 8
M  V30 8 1 7 9
M  V30 9 2 9 10
M  V30 10 1 10 11
M  V30 11 1 11 12
M  V30 12 2 11 13
M  V30 13 1 13 2
M  V30 14 1 10 4
M  V30 15 1 1 14
M  V30 16 1 1 15
M  V30 17 1 1 16
M  V30 18 1 5 17
M  V30 19 1 6 18
M  V30 20 1 8 19
M  V30 21 1 8 20
M  V30 22 1 9 21
M  V30 23 1 12 22
M  V30 24 1 12 23
M  V30 25 1 13 24
M  V30 END BOND
M  V30 END CTAB
M  END
