
     RDKit          3D

  0  0  0  0  0  0  0  0  0  0999 V3000
M  V30 BEGIN CTAB
M  V30 COUNTS 25 26 0 0 0
M  V30 BEGIN ATOM
M  V30 1 N -3.70198 1.3921 -0.0440276 0
M  V30 2 C -2.49056 0.696251 0.0773037 0
M  V30 3 C -2.41135 -0.673775 -0.166163 0
M  V30 4 N -3.58733 -1.36982 -0.547139 0
M  V30 5 C -1.20379 -1.32515 -0.036279 0
M  V30 6 C -0.053505 -0.621503 0.339152 0
M  V30 7 C -0.180535 0.712764 0.565948 0
M  V30 8 C -1.37823 1.42028 0.448465 0
M  V30 9 C 1.18093 -1.35245 0.467679 0
M  V30 10 O 1.19171 -2.57778 0.749423 0
M  V30 11 C 2.49241 -0.705959 0.276629 0
M  V30 12 C 2.795 0.382819 -0.496636 0
M  V30 13 C 4.08213 0.79191 -0.50434 0
M  V30 14 C 4.9673 0.0856647 0.257939 0
M  V30 15 S 3.99488 -1.12069 0.96086 0
M  V30 16 H -4.12055 1.56598 -0.970921 0
M  V30 17 H -4.18295 1.73635 0.804833 0
M  V30 18 H -3.8666 -1.42159 -1.5408 0
M  V30 19 H -4.1927 -1.84325 0.165615 0
M  V30 20 H -1.10854 -2.39758 -0.220637 0
M  V30 21 H 0.687913 1.28579 0.860807 0
M  V30 22 H -1.42603 2.48866 0.640617 0
M  V30 23 H 2.01066 0.90721 -1.09528 0
M  V30 24 H 4.45233 1.66513 -1.09347 0
M  V30 25 H 6.04938 0.278637 0.36991 0
M  V30 END ATOM
M  V30 BEGIN BOND
M  V30 1 1 1 2
M  V30 2 2 2 3
M  V30 3 1 3 4
M  V30 4 1 3 5
M  V30 5 2 5 6
M  V30 6 1 6 7
M  V30 7 2 7 8
M  V30 8 1 6 9
M  V30 9 2 9 10
M  V30 10 1 9 11
M  V30 11 2 11 12
M  V30 12 1 12 13
M  V30 13 2 13 14
M  V30 14 1 14 15
M  V30 15 1 8 2
M  V30 16 1 15 11
M  V30 17 1 1 16
M  V30 18 1 1 17
M  V30 19 1 4 18
M  V30 20 1 4 19
M  V30 21 1 5 20
M  V30 22 1 7 21
M  V30 23 1 8 22
M  V30 24 1 12 23
M  V30 25 1 13 24
M  V30 26 1 14 25
M  V30 END BOND
M  V30 END CTAB
M  END
