
     RDKit          3D

  0  0  0  0  0  0  0  0  0  0999 V3000
M  V30 BEGIN CTAB
M  V30 COUNTS 42 44 0 0 0
M  V30 BEGIN ATOM
M  V30 1 N -1.26657 -3.4792 1.28992 0
M  V30 2 C -1.66058 -2.50301 0.802534 0
M  V30 3 C -2.17488 -1.2757 0.207373 0
M  V30 4 C -2.94368 -1.45684 -0.846069 0
M  V30 5 N -3.30348 -2.65925 -1.44038 0
M  V30 6 S -3.65452 0.0739393 -1.51261 0
M  V30 7 C -4.03733 0.980901 0.0160217 0
M  V30 8 C -3.11332 0.873466 0.950513 0
M  V30 9 C -1.85465 0.0643619 0.745741 0
M  V30 10 C -0.894174 0.856983 -0.0590751 0
M  V30 11 C -1.17164 2.21619 -0.306832 0
M  V30 12 C -0.33006 3.02133 -1.0434 0
M  V30 13 C 0.82427 2.50659 -1.56481 0
M  V30 14 C 1.09859 1.1795 -1.32471 0
M  V30 15 C 0.259987 0.338635 -0.578221 0
M  V30 16 O 0.609779 -0.978799 -0.385458 0
M  V30 17 C 1.72452 -1.6673 -0.809954 0
M  V30 18 C 3.00609 -1.16851 -0.261953 0
M  V30 19 C 4.14878 -1.44614 -0.989325 0
M  V30 20 C 5.374 -1.01817 -0.526527 0
M  V30 21 C 5.46514 -0.316234 0.655494 0
M  V30 22 C 4.32096 -0.0428767 1.37588 0
M  V30 23 C 3.1033 -0.472719 0.908207 0
M  V30 24 Cl 7.05259 0.217364 1.21933 0
M  V30 25 C -3.33959 1.55897 2.1885 0
M  V30 26 N -3.51712 2.10883 3.20238 0
M  V30 27 N -5.22203 1.69727 0.103205 0
M  V30 28 H -3.29637 -2.82236 -2.49458 0
M  V30 29 H -3.61549 -3.51959 -0.915499 0
M  V30 30 H -1.4142 -0.0587704 1.75383 0
M  V30 31 H -2.05116 2.68166 0.0765071 0
M  V30 32 H -0.569626 4.06558 -1.21824 0
M  V30 33 H 1.51853 3.11268 -2.15506 0
M  V30 34 H 1.99264 0.726176 -1.73073 0
M  V30 35 H 1.78253 -1.59752 -1.91731 0
M  V30 36 H 1.6205 -2.73184 -0.480455 0
M  V30 37 H 4.06155 -2.00599 -1.92888 0
M  V30 38 H 6.2805 -1.22562 -1.08164 0
M  V30 39 H 4.4249 0.515283 2.30885 0
M  V30 40 H 2.2115 -0.259678 1.46966 0
M  V30 41 H -5.31325 2.72429 0.262369 0
M  V30 42 H -6.13693 1.18612 0.0035636 0
M  V30 END ATOM
M  V30 BEGIN BOND
M  V30 1 3 1 2
M  V30 2 1 2 3
M  V30 3 2 3 4
M  V30 4 1 4 5
M  V30 5 1 4 6
M  V30 6 1 6 7
M  V30 7 2 7 8
M  V30 8 1 8 9
M  V30 9 1 9 10
M  V30 10 2 10 11
M  V30 11 1 11 12
M  V30 12 2 12 13
M  V30 13 1 13 14
M  V30 14 2 14 15
M  V30 15 1 15 16
M  V30 16 1 16 17
M  V30 17 1 17 18
M  V30 18 2 18 19
M  V30 19 1 19 20
M  V30 20 2 20 21
M  V30 21 1 21 22
M  V30 22 2 22 23
M  V30 23 1 21 24
M  V30 24 1 8 25
M  V30 25 3 25 26
M  V30 26 1 7 27
M  V30 27 1 9 3
M  V30 28 1 15 10
M  V30 29 1 23 18
M  V30 30 1 5 28
M  V30 31 1 5 29
M  V30 32 1 9 30
M  V30 33 1 11 31
M  V30 34 1 12 32
M  V30 35 1 13 33
M  V30 36 1 14 34
M  V30 37 1 17 35
M  V30 38 1 17 36
M  V30 39 1 19 37
M  V30 40 1 20 38
M  V30 41 1 22 39
M  V30 42 1 23 40
M  V30 43 1 27 41
M  V30 44 1 27 42
M  V30 END BOND
M  V30 END CTAB
M  END
