
     RDKit          3D

  0  0  0  0  0  0  0  0  0  0999 V3000
M  V30 BEGIN CTAB
M  V30 COUNTS 24 24 0 0 0
M  V30 BEGIN ATOM
M  V30 1 C -4.12423 0.419356 -0.357112 0
M  V30 2 C -3.43983 -0.47463 0.630544 0
M  V30 3 O -2.04685 -0.59081 0.394593 0
M  V30 4 C -1.24947 0.53526 0.427964 0
M  V30 5 O -1.80317 1.63131 0.670012 0
M  V30 6 C 0.19751 0.482653 0.19251 0
M  V30 7 C 0.821118 -0.712045 -0.074446 0
M  V30 8 C 2.18121 -0.711811 -0.288731 0
M  V30 9 N 2.85146 -1.93264 -0.566702 0
M  V30 10 C 2.93172 0.452464 -0.242597 0
M  V30 11 N 4.32947 0.373954 -0.473933 0
M  V30 12 N 2.27266 1.58207 0.0207545 0
M  V30 13 C 0.946773 1.63299 0.236871 0
M  V30 14 H -5.14699 0.00210727 -0.551624 0
M  V30 15 H -4.21846 1.45739 -0.0218862 0
M  V30 16 H -3.56375 0.429734 -1.33183 0
M  V30 17 H -3.94227 -1.43549 0.712151 0
M  V30 18 H -3.53302 0.0148055 1.6438 0
M  V30 19 H 0.250909 -1.65123 -0.117188 0
M  V30 20 H 2.29979 -2.70519 -1.00117 0
M  V30 21 H 3.84063 -2.11117 -0.371205 0
M  V30 22 H 4.9316 1.11488 -0.0627682 0
M  V30 23 H 4.74163 -0.385501 -1.02762 0
M  V30 24 H 0.471563 2.58156 0.445692 0
M  V30 END ATOM
M  V30 BEGIN BOND
M  V30 1 1 1 2
M  V30 2 1 2 3
M  V30 3 1 3 4
M  V30 4 2 4 5
M  V30 5 1 4 6
M  V30 6 2 6 7
M  V30 7 1 7 8
M  V30 8 1 8 9
M  V30 9 2 8 10
M  V30 10 1 10 11
M  V30 11 1 10 12
M  V30 12 2 12 13
M  V30 13 1 13 6
M  V30 14 1 1 14
M  V30 15 1 1 15
M  V30 16 1 1 16
M  V30 17 1 2 17
M  V30 18 1 2 18
M  V30 19 1 7 19
M  V30 20 1 9 20
M  V30 21 1 9 21
M  V30 22 1 11 22
M  V30 23 1 11 23
M  V30 24 1 13 24
M  V30 END BOND
M  V30 END CTAB
M  END
