
     RDKit          3D

  0  0  0  0  0  0  0  0  0  0999 V3000
M  V30 BEGIN CTAB
M  V30 COUNTS 20 20 0 0 0
M  V30 BEGIN ATOM
M  V30 1 N 2.97793 -0.93637 -0.782436 0
M  V30 2 C 2.39451 -0.0394912 0.127503 0
M  V30 3 N 3.11131 0.640598 0.942877 0
M  V30 4 C 0.946657 0.13716 0.162575 0
M  V30 5 C 0.133958 -0.574031 -0.696919 0
M  V30 6 C -1.23081 -0.427308 -0.685336 0
M  V30 7 S -2.30842 -1.34241 -1.79476 0
M  V30 8 C -1.84722 0.441531 0.190639 0
M  V30 9 N -3.25932 0.598526 0.208251 0
M  V30 10 C -1.04596 1.16005 1.05685 0
M  V30 11 C 0.343992 1.01085 1.0453 0
M  V30 12 H 2.78175 -1.95661 -0.731938 0
M  V30 13 H 3.61447 -0.56926 -1.51514 0
M  V30 14 H 4.14559 0.593473 1.00362 0
M  V30 15 H 0.559328 -1.26929 -1.40521 0
M  V30 16 H -3.14066 -2.19276 -1.03394 0
M  V30 17 H -3.73783 1.47731 0.506327 0
M  V30 18 H -3.87282 -0.186524 -0.086035 0
M  V30 19 H -1.51862 1.85573 1.76049 0
M  V30 20 H 0.952155 1.57882 1.72729 0
M  V30 END ATOM
M  V30 BEGIN BOND
M  V30 1 1 1 2
M  V30 2 2 2 3 CFG=2
M  V30 3 1 2 4
M  V30 4 2 4 5
M  V30 5 1 5 6
M  V30 6 1 6 7
M  V30 7 2 6 8
M  V30 8 1 8 9
M  V30 9 1 8 10
M  V30 10 2 10 11
M  V30 11 1 11 4
M  V30 12 1 1 12
M  V30 13 1 1 13
M  V30 14 1 3 14
M  V30 15 1 5 15
M  V30 16 1 7 16
M  V30 17 1 9 17
M  V30 18 1 9 18
M  V30 19 1 10 19
M  V30 20 1 11 20
M  V30 END BOND
M  V30 END CTAB
M  END
