
     RDKit          3D

  0  0  0  0  0  0  0  0  0  0999 V3000
M  V30 BEGIN CTAB
M  V30 COUNTS 63 65 0 0 0
M  V30 BEGIN ATOM
M  V30 1 N 7.43749 2.0511 1.22696 0
M  V30 2 C 7.01327 1.00532 2.05525 0
M  V30 3 C 6.20885 0.0145245 1.24588 0
M  V30 4 C 5.00838 0.745327 0.667261 0
M  V30 5 C 4.16583 -0.227212 -0.16414 0
M  V30 6 C 2.98379 0.554195 -0.717973 0 CFG=2
M  V30 7 C 2.1269 -0.330102 -1.53775 0
M  V30 8 O 2.15826 -0.134361 -2.80054 0
M  V30 9 N 1.30095 -1.34386 -1.03677 0
M  V30 10 C 0.513438 -2.15663 -1.93029 0
M  V30 11 C -0.965164 -1.99755 -1.65997 0
M  V30 12 C -1.24959 -1.50988 -0.27338 0
M  V30 13 C -0.21936 -2.0628 0.691813 0
M  V30 14 C 1.1899 -1.60899 0.373636 0
M  V30 15 O -1.13299 -0.145039 -0.240145 0
M  V30 16 C -2.02711 0.575442 -0.950396 0
M  V30 17 C -3.46839 0.201966 -0.87138 0 CFG=1
M  V30 18 C -3.74152 -1.20558 -0.456546 0 CFG=1
M  V30 19 C -2.60045 -1.87865 0.235324 0
M  V30 20 C -4.96175 -1.32373 0.451232 0
M  V30 21 O -4.05896 -2.04238 -1.5593 0
M  V30 22 N -4.26687 1.18549 -0.16325 0
M  V30 23 C -5.39705 1.72513 -0.666893 0
M  V30 24 C -6.16277 2.65903 -0.00149184 0
M  V30 25 C -5.74747 3.05457 1.23535 0
M  V30 26 O -6.42984 3.90506 1.8607 0
M  V30 27 N -4.63422 2.52828 1.74062 0
M  V30 28 C -3.91025 1.61563 1.05885 0
M  V30 29 O -2.88061 1.19541 1.64407 0
M  V30 30 N 3.56057 1.6246 -1.52601 0
M  V30 31 H 7.30363 2.99749 1.49936 0
M  V30 32 H 7.91278 1.81051 0.402859 0
M  V30 33 H 6.36156 1.39383 2.88391 0
M  V30 34 H 7.8738 0.43708 2.50744 0
M  V30 35 H 5.89453 -0.810687 1.88608 0
M  V30 36 H 6.86032 -0.331933 0.401019 0
M  V30 37 H 5.35117 1.57517 0.0186303 0
M  V30 38 H 4.39888 1.14834 1.47997 0
M  V30 39 H 3.7757 -1.01306 0.497967 0
M  V30 40 H 4.79028 -0.635152 -0.994227 0
M  V30 41 H 2.43222 1.0093 0.105884 0
M  V30 42 H 0.81692 -3.22455 -1.90278 0
M  V30 43 H 0.697351 -1.81353 -2.96504 0
M  V30 44 H -1.39932 -1.28318 -2.38218 0
M  V30 45 H -1.44371 -2.97328 -1.86961 0
M  V30 46 H -0.243239 -3.17057 0.668337 0
M  V30 47 H -0.43143 -1.75564 1.73524 0
M  V30 48 H 1.87872 -2.44906 0.614901 0
M  V30 49 H 1.44963 -0.674216 0.92055 0
M  V30 50 H -1.63588 0.680829 -2.00639 0
M  V30 51 H -1.96009 1.64432 -0.577268 0
M  V30 52 H -3.84082 0.270429 -1.94425 0
M  V30 53 H -2.7597 -2.995 0.171061 0
M  V30 54 H -2.63242 -1.66791 1.32885 0
M  V30 55 H -5.27259 -2.39884 0.551176 0
M  V30 56 H -5.84487 -0.811536 0.040242 0
M  V30 57 H -4.75353 -1.00279 1.49256 0
M  V30 58 H -4.95904 -1.80555 -1.91681 0
M  V30 59 H -5.72771 1.41301 -1.64705 0
M  V30 60 H -7.07875 3.07323 -0.450369 0
M  V30 61 H -4.34405 2.85692 2.69773 0
M  V30 62 H 3.68606 1.31564 -2.5227 0
M  V30 63 H 3.03029 2.51608 -1.44493 0
M  V30 END ATOM
M  V30 BEGIN BOND
M  V30 1 1 1 2
M  V30 2 1 2 3
M  V30 3 1 3 4
M  V30 4 1 4 5
M  V30 5 1 5 6
M  V30 6 1 6 7
M  V30 7 2 7 8
M  V30 8 1 7 9
M  V30 9 1 9 10
M  V30 10 1 10 11
M  V30 11 1 11 12
M  V30 12 1 12 13
M  V30 13 1 13 14
M  V30 14 1 12 15
M  V30 15 1 15 16
M  V30 16 1 16 17
M  V30 17 1 17 18
M  V30 18 1 18 19
M  V30 19 1 18 20
M  V30 20 1 18 21 CFG=3
M  V30 21 1 17 22
M  V30 22 1 22 23
M  V30 23 2 23 24
M  V30 24 1 24 25
M  V30 25 2 25 26
M  V30 26 1 25 27
M  V30 27 1 27 28
M  V30 28 2 28 29
M  V30 29 1 6 30
M  V30 30 1 14 9
M  V30 31 1 28 22
M  V30 32 1 19 12
M  V30 33 1 1 31
M  V30 34 1 1 32
M  V30 35 1 2 33
M  V30 36 1 2 34
M  V30 37 1 3 35
M  V30 38 1 3 36
M  V30 39 1 4 37
M  V30 40 1 4 38
M  V30 41 1 5 39
M  V30 42 1 5 40
M  V30 43 1 6 41 CFG=1
M  V30 44 1 10 42
M  V30 45 1 10 43
M  V30 46 1 11 44
M  V30 47 1 11 45
M  V30 48 1 13 46
M  V30 49 1 13 47
M  V30 50 1 14 48
M  V30 51 1 14 49
M  V30 52 1 16 50
M  V30 53 1 16 51
M  V30 54 1 17 52 CFG=3
M  V30 55 1 19 53
M  V30 56 1 19 54
M  V30 57 1 20 55
M  V30 58 1 20 56
M  V30 59 1 20 57
M  V30 60 1 21 58
M  V30 61 1 23 59
M  V30 62 1 24 60
M  V30 63 1 27 61
M  V30 64 1 30 62
M  V30 65 1 30 63
M  V30 END BOND
M  V30 END CTAB
M  END
