
     RDKit          3D

  0  0  0  0  0  0  0  0  0  0999 V3000
M  V30 BEGIN CTAB
M  V30 COUNTS 42 43 0 0 0
M  V30 BEGIN ATOM
M  V30 1 C -6.74552 0.239053 1.40135 0
M  V30 2 C -5.43448 0.0304572 0.686802 0
M  V30 3 N -4.75512 -1.12012 0.824499 0
M  V30 4 C -3.60088 -1.38118 0.250492 0
M  V30 5 C -2.8667 -2.64493 0.466 0
M  V30 6 C -3.04747 -0.392063 -0.558928 0
M  V30 7 C -1.76463 -0.773404 -1.22494 0
M  V30 8 S -0.471236 -0.907819 -0.0396406 0
M  V30 9 S 0.275246 0.688069 0.991924 0
M  V30 10 C 1.70788 1.4703 0.294882 0
M  V30 11 C 2.93238 0.690337 0.289921 0
M  V30 12 C 4.00072 1.27371 -0.405874 0
M  V30 13 C 3.77932 2.64512 -0.988185 0
M  V30 14 N 5.19713 0.657286 -0.561848 0
M  V30 15 C 5.40034 -0.571262 -0.0304777 0
M  V30 16 C 6.6817 -1.29614 -0.256667 0
M  V30 17 N 4.38462 -1.13407 0.64556 0
M  V30 18 C 3.17122 -0.517086 0.806955 0
M  V30 19 N 2.23018 -1.16859 1.6353 0
M  V30 20 C -3.69631 0.803871 -0.734833 0
M  V30 21 N -3.248 1.76465 -1.65438 0
M  V30 22 N -4.89905 0.983919 -0.0907134 0
M  V30 23 H -7.09096 -0.754668 1.71707 0
M  V30 24 H -6.51087 0.930699 2.24304 0
M  V30 25 H -7.39515 0.793584 0.719629 0
M  V30 26 H -2.19834 -2.94756 -0.3371 0
M  V30 27 H -2.25256 -2.52783 1.41701 0
M  V30 28 H -3.60146 -3.51084 0.589823 0
M  V30 29 H -1.86221 -1.64485 -1.85371 0
M  V30 30 H -1.49983 0.0868647 -1.92994 0
M  V30 31 H 1.91365 2.41877 0.874756 0
M  V30 32 H 1.4624 1.81229 -0.754397 0
M  V30 33 H 4.72261 2.9519 -1.49012 0
M  V30 34 H 2.97009 2.66373 -1.74873 0
M  V30 35 H 3.54736 3.33314 -0.167437 0
M  V30 36 H 7.49432 -0.744449 0.221159 0
M  V30 37 H 6.60689 -2.29336 0.228673 0
M  V30 38 H 6.86319 -1.37989 -1.35532 0
M  V30 39 H 1.88463 -0.660576 2.49151 0
M  V30 40 H 1.8895 -2.10575 1.43854 0
M  V30 41 H -3.30546 1.57943 -2.69326 0
M  V30 42 H -2.86912 2.65926 -1.35839 0
M  V30 END ATOM
M  V30 BEGIN BOND
M  V30 1 1 1 2
M  V30 2 2 2 3
M  V30 3 1 3 4
M  V30 4 1 4 5
M  V30 5 2 4 6
M  V30 6 1 6 7
M  V30 7 1 7 8
M  V30 8 1 8 9
M  V30 9 1 9 10
M  V30 10 1 10 11
M  V30 11 2 11 12
M  V30 12 1 12 13
M  V30 13 1 12 14
M  V30 14 2 14 15
M  V30 15 1 15 16
M  V30 16 1 15 17
M  V30 17 2 17 18
M  V30 18 1 18 19
M  V30 19 1 6 20
M  V30 20 1 20 21
M  V30 21 2 20 22
M  V30 22 1 22 2
M  V30 23 1 18 11
M  V30 24 1 1 23
M  V30 25 1 1 24
M  V30 26 1 1 25
M  V30 27 1 5 26
M  V30 28 1 5 27
M  V30 29 1 5 28
M  V30 30 1 7 29
M  V30 31 1 7 30
M  V30 32 1 10 31
M  V30 33 1 10 32
M  V30 34 1 13 33
M  V30 35 1 13 34
M  V30 36 1 13 35
M  V30 37 1 16 36
M  V30 38 1 16 37
M  V30 39 1 16 38
M  V30 40 1 19 39
M  V30 41 1 19 40
M  V30 42 1 21 41
M  V30 43 1 21 42
M  V30 END BOND
M  V30 END CTAB
M  END
