
     RDKit          3D

  0  0  0  0  0  0  0  0  0  0999 V3000
M  V30 BEGIN CTAB
M  V30 COUNTS 58 62 0 0 0
M  V30 BEGIN ATOM
M  V30 1 N 8.84622 1.26827 0.650647 0
M  V30 2 C 7.44724 0.98612 0.441944 0
M  V30 3 C 6.95672 -0.287161 0.538244 0
M  V30 4 C 5.59891 -0.589703 0.339854 0
M  V30 5 C 4.76999 0.458895 0.0398822 0
M  V30 6 C 5.29093 1.74386 -0.0522546 0
M  V30 7 C 6.60469 2.01293 0.143561 0
M  V30 8 C 3.36106 0.220505 -0.201536 0
M  V30 9 C 2.93785 -0.361894 -1.36094 0
M  V30 10 C 1.5868 -0.613616 -1.59737 0
M  V30 11 C 0.64405 -0.264569 -0.633079 0
M  V30 12 N -0.742216 -0.594258 -0.905626 0
M  V30 13 C -1.83849 0.16144 -0.451729 0
M  V30 14 C -1.68911 1.53317 -0.17753 0
M  V30 15 C -2.74296 2.34526 0.17146 0
M  V30 16 C -4.00445 1.82089 0.26246 0
M  V30 17 N -5.12503 2.65827 0.626469 0
M  V30 18 C -4.1852 0.484444 0.00139525 0
M  V30 19 C -3.1135 -0.346718 -0.353403 0
M  V30 20 C -3.37601 -1.76224 -0.594628 0
M  V30 21 O -2.48361 -2.60022 -0.912966 0
M  V30 22 C -4.75274 -2.2673 -0.461666 0
M  V30 23 C -5.82523 -1.48336 -0.119076 0
M  V30 24 C -7.10718 -1.97329 0.000199884 0
M  V30 25 C -7.33791 -3.30198 -0.230597 0
M  V30 26 C -6.27307 -4.10281 -0.575286 0
M  V30 27 C -5.00241 -3.61753 -0.693598 0
M  V30 28 C -5.52431 -0.0680634 0.117877 0
M  V30 29 O -6.51038 0.666653 0.436295 0
M  V30 30 S -2.49582 4.05262 0.504043 0
M  V30 31 O -2.95654 4.44737 2.0576 0
M  V30 32 O -3.24909 4.85297 -0.534709 0
M  V30 33 O -1.0443 4.40809 0.355622 0
M  V30 34 C 1.06684 0.313198 0.516086 0
M  V30 35 C 2.43025 0.561615 0.742798 0
M  V30 36 S 5.07949 -2.22711 0.511741 0
M  V30 37 O 6.42138 -3.18051 0.972319 0
M  V30 38 O 4.54571 -2.86787 -0.709748 0
M  V30 39 O 4.06276 -2.38767 1.60802 0
M  V30 40 H 9.25828 0.922174 1.52895 0
M  V30 41 H 9.32814 1.79614 -0.0970618 0
M  V30 42 H 7.64599 -1.09664 0.777801 0
M  V30 43 H 4.61068 2.54697 -0.28945 0
M  V30 44 H 7.04079 3.00418 0.0786084 0
M  V30 45 H 3.58981 -0.654411 -2.17491 0
M  V30 46 H 1.23581 -1.07259 -2.50587 0
M  V30 47 H -0.898055 -1.42423 -1.51278 0
M  V30 48 H -0.702598 1.95543 -0.274482 0
M  V30 49 H -5.47771 3.28821 -0.129368 0
M  V30 50 H -5.542 2.63003 1.56921 0
M  V30 51 H -7.89643 -1.31735 0.268364 0
M  V30 52 H -8.34481 -3.74132 -0.14802 0
M  V30 53 H -6.48171 -5.15461 -0.753537 0
M  V30 54 H -4.16815 -4.23848 -0.962346 0
M  V30 55 H -3.67152 3.86951 2.42097 0
M  V30 56 H 0.352985 0.589052 1.29877 0
M  V30 57 H 2.71297 1.01834 1.66192 0
M  V30 58 H 7.13623 -3.01911 0.311091 0
M  V30 END ATOM
M  V30 BEGIN BOND
M  V30 1 1 1 2
M  V30 2 2 2 3
M  V30 3 1 3 4
M  V30 4 2 4 5
M  V30 5 1 5 6
M  V30 6 2 6 7
M  V30 7 1 5 8
M  V30 8 2 8 9
M  V30 9 1 9 10
M  V30 10 2 10 11
M  V30 11 1 11 12
M  V30 12 1 12 13
M  V30 13 2 13 14
M  V30 14 1 14 15
M  V30 15 2 15 16
M  V30 16 1 16 17
M  V30 17 1 16 18
M  V30 18 2 18 19
M  V30 19 1 19 20
M  V30 20 2 20 21
M  V30 21 1 20 22
M  V30 22 2 22 23
M  V30 23 1 23 24
M  V30 24 2 24 25
M  V30 25 1 25 26
M  V30 26 2 26 27
M  V30 27 1 23 28
M  V30 28 2 28 29
M  V30 29 1 15 30
M  V30 30 1 30 31
M  V30 31 2 30 32
M  V30 32 2 30 33
M  V30 33 1 11 34
M  V30 34 2 34 35
M  V30 35 1 4 36
M  V30 36 1 36 37
M  V30 37 2 36 38
M  V30 38 2 36 39
M  V30 39 1 7 2
M  V30 40 1 35 8
M  V30 41 1 19 13
M  V30 42 1 27 22
M  V30 43 1 28 18
M  V30 44 1 1 40
M  V30 45 1 1 41
M  V30 46 1 3 42
M  V30 47 1 6 43
M  V30 48 1 7 44
M  V30 49 1 9 45
M  V30 50 1 10 46
M  V30 51 1 12 47
M  V30 52 1 14 48
M  V30 53 1 17 49
M  V30 54 1 17 50
M  V30 55 1 24 51
M  V30 56 1 25 52
M  V30 57 1 26 53
M  V30 58 1 27 54
M  V30 59 1 31 55
M  V30 60 1 34 56
M  V30 61 1 35 57
M  V30 62 1 37 58
M  V30 END BOND
M  V30 END CTAB
M  END
