
     RDKit          3D

  0  0  0  0  0  0  0  0  0  0999 V3000
M  V30 BEGIN CTAB
M  V30 COUNTS 42 43 0 0 0
M  V30 BEGIN ATOM
M  V30 1 C -4.2465 -1.58681 1.45402 0
M  V30 2 C -3.34082 -0.401767 1.04446 0
M  V30 3 C -3.04426 0.347886 2.32324 0
M  V30 4 N -4.31229 0.541423 0.32877 0
M  V30 5 C -4.42674 0.507732 -0.921668 0
M  V30 6 N -5.33846 1.40255 -1.63366 0
M  V30 7 N -3.5927 -0.308329 -1.74786 0
M  V30 8 C -2.65898 -0.993659 -1.22691 0
M  V30 9 N -1.85258 -1.78825 -2.03289 0
M  V30 10 N -2.35085 -0.715052 0.183601 0
M  V30 11 O -0.99301 -0.734903 0.247646 0
M  V30 12 C -0.478496 0.464571 0.663823 0
M  V30 13 C 0.661022 0.929342 -0.240305 0
M  V30 14 C 1.91024 0.0999679 -0.152259 0
M  V30 15 O 2.83224 0.47777 -1.09145 0
M  V30 16 C 4.20362 0.361536 -0.759269 0
M  V30 17 C 4.51105 -0.0492349 0.544537 0
M  V30 18 C 5.8334 -0.113311 0.93255 0
M  V30 19 Cl 6.23242 -0.527804 2.57315 0
M  V30 20 C 6.83338 0.224224 0.000321725 0
M  V30 21 Cl 8.523 0.166686 0.537084 0
M  V30 22 C 6.48708 0.596667 -1.24896 0
M  V30 23 C 5.15441 0.670666 -1.65421 0
M  V30 24 Cl 4.79839 1.108 -3.32303 0
M  V30 25 H -3.60267 -2.45273 1.64709 0
M  V30 26 H -4.96603 -1.8525 0.655574 0
M  V30 27 H -4.79475 -1.32025 2.40036 0
M  V30 28 H -2.74484 1.38445 2.07552 0
M  V30 29 H -4.05478 0.488771 2.82608 0
M  V30 30 H -2.41748 -0.194478 3.00869 0
M  V30 31 H -5.05009 2.42282 -1.75947 0
M  V30 32 H -6.2126 1.03175 -1.99626 0
M  V30 33 H -1.59761 -1.36315 -3.01125 0
M  V30 34 H -1.41535 -2.68378 -1.88835 0
M  V30 35 H 0.242464 -0.0124212 1.56971 0
M  V30 36 H -0.937972 1.20387 1.22762 0
M  V30 37 H 0.291579 0.93832 -1.32362 0
M  V30 38 H 0.905643 1.99791 -0.0350635 0
M  V30 39 H 1.66535 -1.0076 -0.24879 0
M  V30 40 H 2.32251 0.226091 0.851456 0
M  V30 41 H 3.76507 -0.353072 1.22134 0
M  V30 42 H 7.25698 0.866098 -1.93607 0
M  V30 END ATOM
M  V30 BEGIN BOND
M  V30 1 1 1 2
M  V30 2 1 2 3
M  V30 3 1 2 4
M  V30 4 2 4 5
M  V30 5 1 5 6
M  V30 6 1 5 7
M  V30 7 2 7 8
M  V30 8 1 8 9
M  V30 9 1 8 10
M  V30 10 1 10 11
M  V30 11 1 11 12
M  V30 12 1 12 13
M  V30 13 1 13 14
M  V30 14 1 14 15
M  V30 15 1 15 16
M  V30 16 2 16 17
M  V30 17 1 17 18
M  V30 18 1 18 19
M  V30 19 2 18 20
M  V30 20 1 20 21
M  V30 21 1 20 22
M  V30 22 2 22 23
M  V30 23 1 23 24
M  V30 24 1 10 2
M  V30 25 1 23 16
M  V30 26 1 1 25
M  V30 27 1 1 26
M  V30 28 1 1 27
M  V30 29 1 3 28
M  V30 30 1 3 29
M  V30 31 1 3 30
M  V30 32 1 6 31
M  V30 33 1 6 32
M  V30 34 1 9 33
M  V30 35 1 9 34
M  V30 36 1 12 35
M  V30 37 1 12 36
M  V30 38 1 13 37
M  V30 39 1 13 38
M  V30 40 1 14 39
M  V30 41 1 14 40
M  V30 42 1 17 41
M  V30 43 1 22 42
M  V30 END BOND
M  V30 END CTAB
M  END
