
     RDKit          3D

  0  0  0  0  0  0  0  0  0  0999 V3000
M  V30 BEGIN CTAB
M  V30 COUNTS 30 32 0 0 0
M  V30 BEGIN ATOM
M  V30 1 N 5.39156 -0.887351 0.952594 0
M  V30 2 C 4.08607 -0.542607 0.510635 0
M  V30 3 C 3.54006 0.673289 0.808067 0
M  V30 4 C 2.26146 1.00187 0.369285 0
M  V30 5 C 1.55038 0.0858163 -0.370271 0
M  V30 6 C 2.10809 -1.1444 -0.668495 0
M  V30 7 C 3.39568 -1.47097 -0.22439 0
M  V30 8 O 1.24294 -1.80464 -1.36306 0
M  V30 9 C 0.150234 -1.05685 -1.52793 0
M  V30 10 O -0.856315 -1.45773 -2.17279 0
M  V30 11 N 0.293114 0.12733 -0.928475 0
M  V30 12 C -0.605732 1.21468 -0.862041 0
M  V30 13 O -0.269924 2.29253 -0.258186 0
M  V30 14 C -1.96016 1.21659 -1.45665 0
M  V30 15 N -2.92108 0.910421 -0.417546 0
M  V30 16 N -3.49681 1.85404 0.346358 0
M  V30 17 N -4.32457 1.31217 1.20015 0
M  V30 18 C -4.33117 -0.0415159 1.03147 0
M  V30 19 C -3.43581 -0.254351 0.00579381 0
M  V30 20 N -5.09756 -0.995537 1.75771 0
M  V30 21 H 5.54767 -1.13874 1.94521 0
M  V30 22 H 6.17914 -0.883355 0.273263 0
M  V30 23 H 4.07392 1.4287 1.39533 0
M  V30 24 H 1.86115 1.98437 0.629652 0
M  V30 25 H 3.79787 -2.43366 -0.47718 0
M  V30 26 H -2.02026 0.579732 -2.33276 0
M  V30 27 H -2.2006 2.25719 -1.83645 0
M  V30 28 H -3.19247 -1.23164 -0.392867 0
M  V30 29 H -5.31667 -0.835442 2.75499 0
M  V30 30 H -5.45021 -1.86415 1.30858 0
M  V30 END ATOM
M  V30 BEGIN BOND
M  V30 1 1 1 2
M  V30 2 2 2 3
M  V30 3 1 3 4
M  V30 4 2 4 5
M  V30 5 1 5 6
M  V30 6 2 6 7
M  V30 7 1 6 8
M  V30 8 1 8 9
M  V30 9 2 9 10
M  V30 10 1 9 11
M  V30 11 1 11 12
M  V30 12 2 12 13
M  V30 13 1 12 14
M  V30 14 1 14 15
M  V30 15 1 15 16
M  V30 16 2 16 17
M  V30 17 1 17 18
M  V30 18 2 18 19
M  V30 19 1 18 20
M  V30 20 1 7 2
M  V30 21 1 19 15
M  V30 22 1 11 5
M  V30 23 1 1 21
M  V30 24 1 1 22
M  V30 25 1 3 23
M  V30 26 1 4 24
M  V30 27 1 7 25
M  V30 28 1 14 26
M  V30 29 1 14 27
M  V30 30 1 19 28
M  V30 31 1 20 29
M  V30 32 1 20 30
M  V30 END BOND
M  V30 END CTAB
M  END
