
     RDKit          3D

  0  0  0  0  0  0  0  0  0  0999 V3000
M  V30 BEGIN CTAB
M  V30 COUNTS 29 30 0 0 0
M  V30 BEGIN ATOM
M  V30 1 N 3.35865 0.241912 -0.665754 0
M  V30 2 N 2.51309 -0.084625 0.395534 0
M  V30 3 C 1.2341 -0.55594 0.307258 0
M  V30 4 C 0.623077 -0.847329 -0.978282 0
M  V30 5 C -0.821297 -1.02967 -1.09381 0
M  V30 6 C -1.69384 0.141547 -0.941566 0
M  V30 7 C -1.7165 0.947658 0.291722 0
M  V30 8 O -2.49451 0.117473 1.13767 0
M  V30 9 C -3.66149 0.0458442 0.381771 0
M  V30 10 C -3.19084 -0.314104 -0.994704 0
M  V30 11 N 0.841752 -0.717923 1.58757 0
M  V30 12 N 1.81336 -0.369782 2.40516 0
M  V30 13 C 2.86902 0.0298884 1.6803 0
M  V30 14 N 4.12974 0.48945 2.20134 0
M  V30 15 H 4.27025 -0.229834 -0.758306 0
M  V30 16 H 3.07388 0.952606 -1.35597 0
M  V30 17 H 1.13044 -1.80684 -1.33807 0
M  V30 18 H 1.02848 -0.0895657 -1.70994 0
M  V30 19 H -1.05667 -1.45018 -2.13986 0
M  V30 20 H -1.18472 -1.90963 -0.448948 0
M  V30 21 H -1.59426 0.806312 -1.86935 0
M  V30 22 H -2.40914 1.86301 0.065273 0
M  V30 23 H -0.813439 1.33023 0.706252 0
M  V30 24 H -4.37609 -0.699465 0.788399 0
M  V30 25 H -4.10963 1.07526 0.41772 0
M  V30 26 H -3.215 -1.39954 -1.11476 0
M  V30 27 H -3.73772 0.24557 -1.76569 0
M  V30 28 H 4.54497 1.39826 1.90052 0
M  V30 29 H 4.64434 -0.115798 2.90852 0
M  V30 END ATOM
M  V30 BEGIN BOND
M  V30 1 1 1 2
M  V30 2 1 2 3
M  V30 3 1 3 4
M  V30 4 1 4 5
M  V30 5 1 5 6
M  V30 6 1 6 7
M  V30 7 1 7 8
M  V30 8 1 8 9
M  V30 9 1 9 10
M  V30 10 2 3 11
M  V30 11 1 11 12
M  V30 12 2 12 13
M  V30 13 1 13 14
M  V30 14 1 13 2
M  V30 15 1 10 6
M  V30 16 1 1 15
M  V30 17 1 1 16
M  V30 18 1 4 17
M  V30 19 1 4 18
M  V30 20 1 5 19
M  V30 21 1 5 20
M  V30 22 1 6 21
M  V30 23 1 7 22
M  V30 24 1 7 23
M  V30 25 1 9 24
M  V30 26 1 9 25
M  V30 27 1 10 26
M  V30 28 1 10 27
M  V30 29 1 14 28
M  V30 30 1 14 29
M  V30 END BOND
M  V30 END CTAB
M  END
