
     RDKit          3D

  0  0  0  0  0  0  0  0  0  0999 V3000
M  V30 BEGIN CTAB
M  V30 COUNTS 49 52 0 0 0
M  V30 BEGIN ATOM
M  V30 1 N -5.90479 -1.48653 0.725822 0
M  V30 2 C -5.18839 -1.81979 -0.494575 0
M  V30 3 C -3.76869 -2.20218 -0.213175 0
M  V30 4 C -3.29577 -1.0343 -1.02137 0
M  V30 5 C -4.72259 -0.682136 -1.34046 0
M  V30 6 C -2.6014 0.0498662 -0.277856 0
M  V30 7 C -1.40542 -0.0905813 0.380804 0
M  V30 8 C -0.817793 0.982883 1.03958 0
M  V30 9 N -1.422 2.16238 1.02912 0
M  V30 10 C -2.58484 2.32613 0.396401 0
M  V30 11 N -3.15964 1.29217 -0.241849 0
M  V30 12 N -3.20676 3.63013 0.405335 0
M  V30 13 N 0.41441 0.810528 1.74979 0
M  V30 14 C 1.63424 0.326177 1.21867 0
M  V30 15 C 2.37051 1.18618 0.297287 0
M  V30 16 C 2.08627 2.45667 -0.123341 0
M  V30 17 N 3.06851 2.82641 -0.962749 0
M  V30 18 N 3.94999 1.87644 -1.09867 0
M  V30 19 C 3.5557 0.820062 -0.324178 0
M  V30 20 C 4.30811 -0.423244 -0.269781 0
M  V30 21 C 4.69418 -1.0441 -1.46592 0
M  V30 22 C 5.41277 -2.21211 -1.47025 0
M  V30 23 C 5.78482 -2.82279 -0.297782 0
M  V30 24 C 5.41755 -2.23124 0.896539 0
M  V30 25 C 4.68775 -1.04445 0.886699 0
M  V30 26 F 6.49253 -3.98173 -0.26451 0
M  V30 27 C 0.34559 1.19291 3.17105 0
M  V30 28 H -5.33334 -0.866623 1.34848 0
M  V30 29 H -6.79439 -0.973191 0.532149 0
M  V30 30 H -5.79298 -2.54576 -1.07537 0
M  V30 31 H -3.5322 -3.18953 -0.681851 0
M  V30 32 H -3.50632 -2.1247 0.853402 0
M  V30 33 H -2.76266 -1.3661 -1.96542 0
M  V30 34 H -5.01125 -0.749287 -2.41738 0
M  V30 35 H -5.00774 0.338043 -0.929647 0
M  V30 36 H -0.914582 -1.07731 0.37835 0
M  V30 37 H -2.69389 4.38202 -0.0819531 0
M  V30 38 H -4.11404 3.69958 0.899503 0
M  V30 39 H 1.43352 -0.685654 0.728706 0
M  V30 40 H 2.28116 0.049258 2.08869 0
M  V30 41 H 1.24766 3.10233 0.137709 0
M  V30 42 H 3.15959 3.75175 -1.47006 0
M  V30 43 H 4.39778 -0.550092 -2.3928 0
M  V30 44 H 5.68558 -2.64631 -2.4159 0
M  V30 45 H 5.70336 -2.70386 1.83419 0
M  V30 46 H 4.45403 -0.641017 1.84927 0
M  V30 47 H 1.18609 0.808588 3.75665 0
M  V30 48 H -0.602909 0.811858 3.6201 0
M  V30 49 H 0.372665 2.31223 3.19912 0
M  V30 END ATOM
M  V30 BEGIN BOND
M  V30 1 1 1 2
M  V30 2 1 2 3
M  V30 3 1 3 4
M  V30 4 1 4 5
M  V30 5 1 4 6
M  V30 6 2 6 7
M  V30 7 1 7 8
M  V30 8 2 8 9
M  V30 9 1 9 10
M  V30 10 2 10 11
M  V30 11 1 10 12
M  V30 12 1 8 13
M  V30 13 1 13 14
M  V30 14 1 14 15
M  V30 15 2 15 16
M  V30 16 1 16 17
M  V30 17 1 17 18
M  V30 18 2 18 19
M  V30 19 1 19 20
M  V30 20 2 20 21
M  V30 21 1 21 22
M  V30 22 2 22 23
M  V30 23 1 23 24
M  V30 24 2 24 25
M  V30 25 1 23 26
M  V30 26 1 13 27
M  V30 27 1 5 2
M  V30 28 1 11 6
M  V30 29 1 19 15
M  V30 30 1 25 20
M  V30 31 1 1 28
M  V30 32 1 1 29
M  V30 33 1 2 30
M  V30 34 1 3 31
M  V30 35 1 3 32
M  V30 36 1 4 33
M  V30 37 1 5 34
M  V30 38 1 5 35
M  V30 39 1 7 36
M  V30 40 1 12 37
M  V30 41 1 12 38
M  V30 42 1 14 39
M  V30 43 1 14 40
M  V30 44 1 16 41
M  V30 45 1 17 42
M  V30 46 1 21 43
M  V30 47 1 22 44
M  V30 48 1 24 45
M  V30 49 1 25 46
M  V30 50 1 27 47
M  V30 51 1 27 48
M  V30 52 1 27 49
M  V30 END BOND
M  V30 END CTAB
M  END
