
     RDKit          3D

  0  0  0  0  0  0  0  0  0  0999 V3000
M  V30 BEGIN CTAB
M  V30 COUNTS 22 21 0 0 0
M  V30 BEGIN ATOM
M  V30 1 N 2.55283 0.571488 -0.714696 0
M  V30 2 C 2.56061 -0.44059 0.267159 0
M  V30 3 S 3.89672 -1.35471 0.437881 0
M  V30 4 N 1.4442 -0.671453 1.08877 0
M  V30 5 C 0.197108 0.0537204 1.03577 0
M  V30 6 C -0.550927 -0.258299 -0.250469 0
M  V30 7 S -2.08952 0.597166 -0.374375 0
M  V30 8 O -2.98886 0.273238 0.789065 0
M  V30 9 O -2.77789 0.155694 -1.63455 0
M  V30 10 N -1.87341 2.30612 -0.48096 0
M  V30 11 C -0.845528 -1.75378 -0.321929 0
M  V30 12 H 2.31106 0.457348 -1.72063 0
M  V30 13 H 2.8183 1.56688 -0.442288 0
M  V30 14 H 1.52805 -1.44955 1.81446 0
M  V30 15 H -0.422496 -0.268148 1.90707 0
M  V30 16 H 0.317994 1.15016 1.14922 0
M  V30 17 H 0.0473202 -0.00561517 -1.14087 0
M  V30 18 H -0.890175 2.57507 -0.436937 0
M  V30 19 H -2.54326 2.82326 0.0880841 0
M  V30 20 H -1.77239 -1.93755 -0.876442 0
M  V30 21 H -0.890034 -2.17339 0.721488 0
M  V30 22 H -0.0297083 -2.21705 -0.904814 0
M  V30 END ATOM
M  V30 BEGIN BOND
M  V30 1 1 1 2
M  V30 2 2 2 3
M  V30 3 1 2 4
M  V30 4 1 4 5
M  V30 5 1 5 6
M  V30 6 1 6 7
M  V30 7 2 7 8
M  V30 8 2 7 9
M  V30 9 1 7 10
M  V30 10 1 6 11
M  V30 11 1 1 12
M  V30 12 1 1 13
M  V30 13 1 4 14
M  V30 14 1 5 15
M  V30 15 1 5 16
M  V30 16 1 6 17
M  V30 17 1 10 18
M  V30 18 1 10 19
M  V30 19 1 11 20
M  V30 20 1 11 21
M  V30 21 1 11 22
M  V30 END BOND
M  V30 END CTAB
M  END
