
     RDKit          3D

  0  0  0  0  0  0  0  0  0  0999 V3000
M  V30 BEGIN CTAB
M  V30 COUNTS 36 38 0 0 0
M  V30 BEGIN ATOM
M  V30 1 N 6.52699 2.19301 -0.710089 0
M  V30 2 C 5.48506 1.29146 -0.37662 0
M  V30 3 N 4.19094 1.5734 -0.564262 0
M  V30 4 C 3.1954 0.729108 -0.252991 0
M  V30 5 C 1.7669 1.07188 -0.47364 0
M  V30 6 O 0.968049 -0.0202096 -0.0452147 0
M  V30 7 C -0.418399 0.0447931 -0.144071 0
M  V30 8 O -0.882831 1.09595 -0.619591 0
M  V30 9 C -1.24463 -1.07464 0.29485 0
M  V30 10 O -0.771547 -2.20967 0.78279 0
M  V30 11 C -1.71035 -3.04046 1.09456 0
M  V30 12 C -2.92241 -2.46416 0.813016 0
M  V30 13 C -2.6099 -1.19085 0.296428 0
M  V30 14 C -3.60186 -0.206263 -0.109633 0
M  V30 15 C -4.52328 -0.563172 -1.09092 0
M  V30 16 C -5.51961 0.28609 -1.52197 0
M  V30 17 C -5.6332 1.54737 -0.977166 0
M  V30 18 C -4.73269 1.91886 -0.00623892 0
M  V30 19 C -3.73413 1.05328 0.418729 0
M  V30 20 N 3.55947 -0.470674 0.280878 0
M  V30 21 C 4.82641 -0.807655 0.490756 0
M  V30 22 N 5.7872 0.0743356 0.161507 0
M  V30 23 N 5.11858 -2.0816 1.05275 0
M  V30 24 H 7.15709 2.60302 -0.00829969 0
M  V30 25 H 6.65405 2.44633 -1.70888 0
M  V30 26 H 1.64812 1.17386 -1.58804 0
M  V30 27 H 1.47678 2.02614 -0.0341666 0
M  V30 28 H -1.61214 -4.04655 1.51537 0
M  V30 29 H -3.93287 -2.82938 0.928717 0
M  V30 30 H -4.44554 -1.54447 -1.524 0
M  V30 31 H -6.24114 0.0170972 -2.28504 0
M  V30 32 H -6.41109 2.23585 -1.30101 0
M  V30 33 H -4.81555 2.92026 0.432678 0
M  V30 34 H -3.06989 1.38011 1.17595 0
M  V30 35 H 5.42306 -2.82721 0.378884 0
M  V30 36 H 5.04895 -2.30523 2.05989 0
M  V30 END ATOM
M  V30 BEGIN BOND
M  V30 1 1 1 2
M  V30 2 2 2 3
M  V30 3 1 3 4
M  V30 4 1 4 5
M  V30 5 1 5 6
M  V30 6 1 6 7
M  V30 7 2 7 8
M  V30 8 1 7 9
M  V30 9 1 9 10
M  V30 10 1 10 11
M  V30 11 2 11 12
M  V30 12 1 12 13
M  V30 13 1 13 14
M  V30 14 2 14 15
M  V30 15 1 15 16
M  V30 16 2 16 17
M  V30 17 1 17 18
M  V30 18 2 18 19
M  V30 19 2 4 20
M  V30 20 1 20 21
M  V30 21 2 21 22
M  V30 22 1 21 23
M  V30 23 1 22 2
M  V30 24 2 13 9
M  V30 25 1 19 14
M  V30 26 1 1 24
M  V30 27 1 1 25
M  V30 28 1 5 26
M  V30 29 1 5 27
M  V30 30 1 11 28
M  V30 31 1 12 29
M  V30 32 1 15 30
M  V30 33 1 16 31
M  V30 34 1 17 32
M  V30 35 1 18 33
M  V30 36 1 19 34
M  V30 37 1 23 35
M  V30 38 1 23 36
M  V30 END BOND
M  V30 END CTAB
M  END
