
     RDKit          3D

  0  0  0  0  0  0  0  0  0  0999 V3000
M  V30 BEGIN CTAB
M  V30 COUNTS 25 26 0 0 0
M  V30 BEGIN ATOM
M  V30 1 N 1.77929 1.97741 -1.67862 0
M  V30 2 C 2.1227 0.658209 -1.20257 0
M  V30 3 O 2.95219 -0.184375 -1.7565 0
M  V30 4 N 3.06102 -1.28946 -1.09076 0
M  V30 5 C 2.2621 -1.21162 -0.0134602 0
M  V30 6 C 1.65513 0.0261696 -0.0722877 0
M  V30 7 C 0.66695 0.553122 0.860399 0
M  V30 8 C -0.748176 0.320322 0.503034 0
M  V30 9 C -1.71096 0.252006 1.51981 0
M  V30 10 C -3.04397 0.00805418 1.27314 0
M  V30 11 C -3.47479 -0.181649 -0.0284036 0
M  V30 12 C -2.53715 -0.116314 -1.02449 0
M  V30 13 C -1.17253 0.132419 -0.783108 0
M  V30 14 N 2.11971 -2.23689 0.945124 0
M  V30 15 H 1.15357 2.62564 -1.16727 0
M  V30 16 H 2.18343 2.28677 -2.5785 0
M  V30 17 H 0.822316 1.66514 0.987843 0
M  V30 18 H 0.808819 0.141141 1.90632 0
M  V30 19 H -1.35015 0.401233 2.52607 0
M  V30 20 H -3.77877 -0.0372024 2.0878 0
M  V30 21 H -4.51976 -0.370529 -0.200744 0
M  V30 22 H -2.86282 -0.258659 -2.05743 0
M  V30 23 H -0.489948 0.154606 -1.62365 0
M  V30 24 H 2.8394 -2.4536 1.67038 0
M  V30 25 H 1.26241 -2.86194 0.997894 0
M  V30 END ATOM
M  V30 BEGIN BOND
M  V30 1 1 1 2
M  V30 2 1 2 3
M  V30 3 1 3 4
M  V30 4 2 4 5
M  V30 5 1 5 6
M  V30 6 1 6 7
M  V30 7 1 7 8
M  V30 8 2 8 9
M  V30 9 1 9 10
M  V30 10 2 10 11
M  V30 11 1 11 12
M  V30 12 2 12 13
M  V30 13 1 5 14
M  V30 14 2 6 2
M  V30 15 1 13 8
M  V30 16 1 1 15
M  V30 17 1 1 16
M  V30 18 1 7 17
M  V30 19 1 7 18
M  V30 20 1 9 19
M  V30 21 1 10 20
M  V30 22 1 11 21
M  V30 23 1 12 22
M  V30 24 1 13 23
M  V30 25 1 14 24
M  V30 26 1 14 25
M  V30 END BOND
M  V30 END CTAB
M  END
