
     RDKit          3D

  0  0  0  0  0  0  0  0  0  0999 V3000
M  V30 BEGIN CTAB
M  V30 COUNTS 47 50 0 0 0
M  V30 BEGIN ATOM
M  V30 1 C 6.63613 0.22863 0.955273 0
M  V30 2 O 5.23365 0.112105 0.66371 0
M  V30 3 C 4.68949 -1.04991 0.179466 0
M  V30 4 O 5.49438 -2.02364 -0.000312237 0
M  V30 5 C 3.28191 -1.20974 -0.125749 0
M  V30 6 C 2.65675 -2.32823 -0.604618 0
M  V30 7 N 3.31657 -3.56458 -0.901166 0
M  V30 8 O 1.39808 -2.0455 -0.727449 0
M  V30 9 C 1.11708 -0.833033 -0.372955 0
M  V30 10 C 2.28913 -0.242147 0.0243065 0
M  V30 11 C 2.32754 1.0539 0.459391 0
M  V30 12 C 1.17356 1.80335 0.507588 0
M  V30 13 O 0.937777 3.02876 0.869139 0
M  V30 14 C -0.310622 3.30568 0.741879 0
M  V30 15 C -1.01034 2.16903 0.245087 0
M  V30 16 C -0.0491843 1.21327 0.102285 0
M  V30 17 C -0.0701208 -0.0776935 -0.326204 0
M  V30 18 C -1.22909 -0.817628 -0.716828 0
M  V30 19 C -1.6713 -0.995004 -2.00974 0
M  V30 20 C -2.74868 -1.81598 -2.28385 0
M  V30 21 C -3.39008 -2.46737 -1.25686 0
M  V30 22 C -2.98162 -2.32021 0.0520928 0
M  V30 23 C -1.92419 -1.50941 0.29458 0
M  V30 24 C -3.68059 -3.02748 1.17071 0
M  V30 25 F -3.84337 -2.10129 2.20683 0
M  V30 26 F -2.77888 -3.96754 1.65121 0
M  V30 27 F -4.87269 -3.56352 0.782721 0
M  V30 28 C -2.42518 2.16475 -0.0344723 0
M  V30 29 O -3.23413 1.36104 -0.447731 0
M  V30 30 O -3.12079 3.42071 0.223252 0
M  V30 31 C -4.51177 3.51364 -0.0188235 0
M  V30 32 N -0.923486 4.54678 1.04395 0
M  V30 33 H 6.85946 1.24007 1.34252 0
M  V30 34 H 6.87269 -0.570808 1.69251 0
M  V30 35 H 7.18028 0.0575321 0.00220556 0
M  V30 36 H 2.92837 -4.48733 -0.615821 0
M  V30 37 H 4.21988 -3.56329 -1.42243 0
M  V30 38 H 3.2425 1.55313 0.779993 0
M  V30 39 H -1.15904 -0.48079 -2.81968 0
M  V30 40 H -3.02971 -1.90209 -3.31952 0
M  V30 41 H -4.223 -3.09235 -1.50864 0
M  V30 42 H -1.60752 -1.38949 1.32382 0
M  V30 43 H -4.7517 3.98182 -0.988117 0
M  V30 44 H -5.02942 2.53502 0.0519322 0
M  V30 45 H -4.93929 4.18786 0.760914 0
M  V30 46 H -0.71163 5.4229 0.542439 0
M  V30 47 H -1.62782 4.54608 1.83117 0
M  V30 END ATOM
M  V30 BEGIN BOND
M  V30 1 1 1 2
M  V30 2 1 2 3
M  V30 3 2 3 4
M  V30 4 1 3 5
M  V30 5 2 5 6
M  V30 6 1 6 7
M  V30 7 1 6 8
M  V30 8 1 8 9
M  V30 9 2 9 10
M  V30 10 1 10 11
M  V30 11 2 11 12
M  V30 12 1 12 13
M  V30 13 1 13 14
M  V30 14 2 14 15
M  V30 15 1 15 16
M  V30 16 2 16 17
M  V30 17 1 17 18
M  V30 18 2 18 19
M  V30 19 1 19 20
M  V30 20 2 20 21
M  V30 21 1 21 22
M  V30 22 2 22 23
M  V30 23 1 22 24
M  V30 24 1 24 25
M  V30 25 1 24 26
M  V30 26 1 24 27
M  V30 27 1 15 28
M  V30 28 2 28 29
M  V30 29 1 28 30
M  V30 30 1 30 31
M  V30 31 1 14 32
M  V30 32 1 10 5
M  V30 33 1 16 12
M  V30 34 1 23 18
M  V30 35 1 17 9
M  V30 36 1 1 33
M  V30 37 1 1 34
M  V30 38 1 1 35
M  V30 39 1 7 36
M  V30 40 1 7 37
M  V30 41 1 11 38
M  V30 42 1 19 39
M  V30 43 1 20 40
M  V30 44 1 21 41
M  V30 45 1 23 42
M  V30 46 1 31 43
M  V30 47 1 31 44
M  V30 48 1 31 45
M  V30 49 1 32 46
M  V30 50 1 32 47
M  V30 END BOND
M  V30 END CTAB
M  END
