
     RDKit          3D

  0  0  0  0  0  0  0  0  0  0999 V3000
M  V30 BEGIN CTAB
M  V30 COUNTS 22 23 0 0 0
M  V30 BEGIN ATOM
M  V30 1 F -4.80693 0.264253 -0.0682001 0
M  V30 2 C -3.45143 0.200226 -0.0834262 0
M  V30 3 C -2.75455 0.374341 1.09368 0
M  V30 4 C -1.3757 0.316181 1.11815 0
M  V30 5 C -0.634663 0.0826012 -0.0266554 0
M  V30 6 C -1.35048 -0.0901228 -1.20071 0
M  V30 7 C -2.72869 -0.0326865 -1.22914 0
M  V30 8 N 0.7927 0.0209185 -0.009794 0
M  V30 9 N 1.53769 1.02164 -0.479311 0
M  V30 10 C 2.84061 0.710194 -0.345776 0
M  V30 11 N 2.87809 -0.492138 0.210687 0
M  V30 12 C 1.61341 -0.921597 0.41993 0
M  V30 13 N 1.19228 -2.152 0.99315 0
M  V30 14 N 3.88548 1.58166 -0.757898 0
M  V30 15 H -3.33669 0.559869 2.00458 0
M  V30 16 H -0.83154 0.453949 2.0477 0
M  V30 17 H -0.782014 -0.277303 -2.12479 0
M  V30 18 H -3.26907 -0.170388 -2.15726 0
M  V30 19 H 0.937853 -2.26045 2.00226 0
M  V30 20 H 1.12827 -3.00013 0.390125 0
M  V30 21 H 3.92031 2.54901 -0.347447 0
M  V30 22 H 4.59507 1.26197 -1.44985 0
M  V30 END ATOM
M  V30 BEGIN BOND
M  V30 1 1 1 2
M  V30 2 2 2 3
M  V30 3 1 3 4
M  V30 4 2 4 5
M  V30 5 1 5 6
M  V30 6 2 6 7
M  V30 7 1 5 8
M  V30 8 1 8 9
M  V30 9 2 9 10
M  V30 10 1 10 11
M  V30 11 2 11 12
M  V30 12 1 12 13
M  V30 13 1 10 14
M  V30 14 1 7 2
M  V30 15 1 12 8
M  V30 16 1 3 15
M  V30 17 1 4 16
M  V30 18 1 6 17
M  V30 19 1 7 18
M  V30 20 1 13 19
M  V30 21 1 13 20
M  V30 22 1 14 21
M  V30 23 1 14 22
M  V30 END BOND
M  V30 END CTAB
M  END
