
     RDKit          3D

  0  0  0  0  0  0  0  0  0  0999 V3000
M  V30 BEGIN CTAB
M  V30 COUNTS 21 21 0 0 0
M  V30 BEGIN ATOM
M  V30 1 N -3.78274 -0.0849623 0.59371 0
M  V30 2 C -2.41172 -0.186976 0.266868 0
M  V30 3 C -1.92922 0.493744 -0.826314 0
M  V30 4 C -0.609519 0.447059 -1.21111 0
M  V30 5 C 0.262324 -0.311329 -0.472202 0
M  V30 6 C -0.191419 -0.996055 0.616433 0
M  V30 7 C -1.50935 -0.937169 0.984084 0
M  V30 8 F -2.00628 -1.60965 2.07093 0
M  V30 9 N 1.60811 -0.341259 -0.881107 0
M  V30 10 S 2.98067 -0.155844 0.109821 0
M  V30 11 O 4.08861 -1.00448 -0.454335 0
M  V30 12 O 2.67966 -0.63596 1.49889 0
M  V30 13 N 3.4818 1.48571 0.239974 0
M  V30 14 H -4.21408 0.804086 0.902482 0
M  V30 15 H -4.37957 -0.928061 0.522702 0
M  V30 16 H -2.6228 1.09971 -1.41771 0
M  V30 17 H -0.281912 1.01275 -2.09464 0
M  V30 18 H 0.462711 -1.61566 1.2344 0
M  V30 19 H 1.75499 -0.498045 -1.92424 0
M  V30 20 H 3.69216 1.93184 -0.662513 0
M  V30 21 H 2.92757 2.03054 0.903877 0
M  V30 END ATOM
M  V30 BEGIN BOND
M  V30 1 1 1 2
M  V30 2 2 2 3
M  V30 3 1 3 4
M  V30 4 2 4 5
M  V30 5 1 5 6
M  V30 6 2 6 7
M  V30 7 1 7 8
M  V30 8 1 5 9
M  V30 9 1 9 10
M  V30 10 2 10 11
M  V30 11 2 10 12
M  V30 12 1 10 13
M  V30 13 1 7 2
M  V30 14 1 1 14
M  V30 15 1 1 15
M  V30 16 1 3 16
M  V30 17 1 4 17
M  V30 18 1 6 18
M  V30 19 1 9 19
M  V30 20 1 13 20
M  V30 21 1 13 21
M  V30 END BOND
M  V30 END CTAB
M  END
