
     RDKit          3D

  0  0  0  0  0  0  0  0  0  0999 V3000
M  V30 BEGIN CTAB
M  V30 COUNTS 26 26 0 0 0
M  V30 BEGIN ATOM
M  V30 1 N 2.92407 0.893897 -1.49822 0
M  V30 2 C 3.2235 0.552269 -0.156611 0
M  V30 3 S 4.73862 0.0475907 0.179543 0
M  V30 4 C 2.22118 0.639312 0.922144 0
M  V30 5 N 1.06566 -0.226579 0.653911 0
M  V30 6 C 1.08671 -1.5078 1.10558 0
M  V30 7 C 0.00272867 -2.33062 0.857612 0
M  V30 8 C -1.0764 -1.83025 0.156208 0
M  V30 9 O -2.04769 -2.57514 -0.0633618 0
M  V30 10 N -1.08461 -0.549134 -0.289133 0
M  V30 11 C -0.00897614 0.214338 -0.0248089 0
M  V30 12 O -0.00132778 1.40748 -0.432072 0
M  V30 13 C -2.23819 -0.028208 -1.0341 0
M  V30 14 C -3.24261 0.571832 -0.116921 0
M  V30 15 S -4.7792 0.0326537 -0.00474161 0
M  V30 16 N -2.86366 1.66201 0.70346 0
M  V30 17 H 2.17985 0.405189 -2.06074 0
M  V30 18 H 3.43165 1.66068 -2.01271 0
M  V30 19 H 1.84669 1.70175 0.925241 0
M  V30 20 H 2.67133 0.445001 1.89489 0
M  V30 21 H 1.94342 -1.88063 1.65401 0
M  V30 22 H 0.0258559 -3.35871 1.22311 0
M  V30 23 H -1.9044 0.767207 -1.72916 0
M  V30 24 H -2.68769 -0.826619 -1.65908 0
M  V30 25 H -3.23519 2.62024 0.55714 0
M  V30 26 H -2.19132 1.49223 1.47603 0
M  V30 END ATOM
M  V30 BEGIN BOND
M  V30 1 1 1 2
M  V30 2 2 2 3
M  V30 3 1 2 4
M  V30 4 1 4 5
M  V30 5 1 5 6
M  V30 6 2 6 7
M  V30 7 1 7 8
M  V30 8 2 8 9
M  V30 9 1 8 10
M  V30 10 1 10 11
M  V30 11 2 11 12
M  V30 12 1 10 13
M  V30 13 1 13 14
M  V30 14 2 14 15
M  V30 15 1 14 16
M  V30 16 1 11 5
M  V30 17 1 1 17
M  V30 18 1 1 18
M  V30 19 1 4 19
M  V30 20 1 4 20
M  V30 21 1 6 21
M  V30 22 1 7 22
M  V30 23 1 13 23
M  V30 24 1 13 24
M  V30 25 1 16 25
M  V30 26 1 16 26
M  V30 END BOND
M  V30 END CTAB
M  END
