
     RDKit          3D

  0  0  0  0  0  0  0  0  0  0999 V3000
M  V30 BEGIN CTAB
M  V30 COUNTS 25 25 0 0 0
M  V30 BEGIN ATOM
M  V30 1 C -2.86273 1.13776 -0.707428 0
M  V30 2 C -2.39944 0.131407 0.321324 0
M  V30 3 C -2.05732 -1.16249 -0.410201 0
M  V30 4 S -0.761721 -0.914423 -1.61943 0
M  V30 5 C 0.801962 -0.49561 -0.84311 0
M  V30 6 C 1.9381 -0.260291 -1.58751 0
M  V30 7 C 3.14971 0.0628832 -1.0012 0
M  V30 8 C 3.25208 0.160151 0.383326 0
M  V30 9 C 2.0827 -0.0851179 1.08715 0
M  V30 10 N 0.916492 -0.39777 0.494362 0
M  V30 11 N 4.46504 0.487776 1.02715 0
M  V30 12 N -3.47493 -0.0750701 1.26618 0
M  V30 13 H -1.99762 1.75867 -1.02065 0
M  V30 14 H -3.66136 1.74511 -0.253235 0
M  V30 15 H -3.29778 0.560738 -1.56615 0
M  V30 16 H -1.4989 0.471802 0.859773 0
M  V30 17 H -2.94155 -1.64091 -0.858153 0
M  V30 18 H -1.66815 -1.88963 0.356622 0
M  V30 19 H 1.87028 -0.332839 -2.65938 0
M  V30 20 H 4.05096 0.250134 -1.5732 0
M  V30 21 H 2.18849 -0.00289786 2.1801 0
M  V30 22 H 4.76023 1.47145 1.17445 0
M  V30 23 H 5.09722 -0.259909 1.37305 0
M  V30 24 H -3.58381 -1.08439 1.50063 0
M  V30 25 H -4.36798 0.363446 0.983287 0
M  V30 END ATOM
M  V30 BEGIN BOND
M  V30 1 1 1 2
M  V30 2 1 2 3
M  V30 3 1 3 4
M  V30 4 1 4 5
M  V30 5 2 5 6
M  V30 6 1 6 7
M  V30 7 2 7 8
M  V30 8 1 8 9
M  V30 9 2 9 10
M  V30 10 1 8 11
M  V30 11 1 2 12
M  V30 12 1 10 5
M  V30 13 1 1 13
M  V30 14 1 1 14
M  V30 15 1 1 15
M  V30 16 1 2 16
M  V30 17 1 3 17
M  V30 18 1 3 18
M  V30 19 1 6 19
M  V30 20 1 7 20
M  V30 21 1 9 21
M  V30 22 1 11 22
M  V30 23 1 11 23
M  V30 24 1 12 24
M  V30 25 1 12 25
M  V30 END BOND
M  V30 END CTAB
M  END
