
     RDKit          3D

  0  0  0  0  0  0  0  0  0  0999 V3000
M  V30 BEGIN CTAB
M  V30 COUNTS 44 44 0 0 0
M  V30 BEGIN ATOM
M  V30 1 N -2.42949 1.97745 0.341432 0
M  V30 2 C -2.76313 1.03261 -0.689934 0
M  V30 3 C -2.84985 -0.391279 -0.278055 0
M  V30 4 C -1.6575 -1.06642 0.254983 0
M  V30 5 N -0.495551 -1.19103 -0.535483 0
M  V30 6 C 0.709293 -0.49091 -0.605898 0
M  V30 7 O 1.48569 -0.832569 -1.59195 0
M  V30 8 C 1.27885 0.55722 0.226119 0
M  V30 9 C 2.74796 0.371407 0.491167 0
M  V30 10 C 3.23654 0.340439 1.80517 0
M  V30 11 C 4.57481 0.20987 2.08709 0
M  V30 12 C 5.50679 0.102588 1.08742 0
M  V30 13 C 5.06411 0.129891 -0.212631 0
M  V30 14 C 3.69537 0.264121 -0.488781 0
M  V30 15 N 0.675479 0.78825 1.49327 0
M  V30 16 C 1.19913 1.8504 -0.611429 0
M  V30 17 C -0.569662 -2.33478 -1.5142 0
M  V30 18 C -3.95581 -0.401686 0.825621 0
M  V30 19 C -3.51897 -1.15463 -1.41544 0
M  V30 20 H -2.67785 1.69177 1.29349 0
M  V30 21 H -2.83559 2.90747 0.127033 0
M  V30 22 H -3.76421 1.36002 -1.09451 0
M  V30 23 H -1.98533 1.16074 -1.49397 0
M  V30 24 H -1.98012 -2.11992 0.556535 0
M  V30 25 H -1.46299 -0.616584 1.27564 0
M  V30 26 H 2.50632 0.42762 2.61251 0
M  V30 27 H 4.88532 0.192737 3.11505 0
M  V30 28 H 6.58162 -0.00264079 1.31898 0
M  V30 29 H 5.78316 0.0470138 -0.996809 0
M  V30 30 H 3.42008 0.30567 -1.5221 0
M  V30 31 H 0.631596 0.00930968 2.14206 0
M  V30 32 H 1.05713 1.66004 1.90792 0
M  V30 33 H 1.07575 2.67176 0.105465 0
M  V30 34 H 0.271752 1.77337 -1.20191 0
M  V30 35 H 2.09759 1.93875 -1.2543 0
M  V30 36 H -1.18004 -2.03866 -2.36737 0
M  V30 37 H 0.43211 -2.64285 -1.82934 0
M  V30 38 H -1.08906 -3.13659 -0.962038 0
M  V30 39 H -4.75176 0.29772 0.565324 0
M  V30 40 H -3.49481 -0.110486 1.78816 0
M  V30 41 H -4.27224 -1.45383 0.92926 0
M  V30 42 H -3.21606 -0.806984 -2.40568 0
M  V30 43 H -3.3404 -2.24653 -1.36438 0
M  V30 44 H -4.62604 -1.02985 -1.3773 0
M  V30 END ATOM
M  V30 BEGIN BOND
M  V30 1 1 1 2
M  V30 2 1 2 3
M  V30 3 1 3 4
M  V30 4 1 4 5
M  V30 5 1 5 6
M  V30 6 2 6 7
M  V30 7 1 6 8
M  V30 8 1 8 9
M  V30 9 2 9 10
M  V30 10 1 10 11
M  V30 11 2 11 12
M  V30 12 1 12 13
M  V30 13 2 13 14
M  V30 14 1 8 15
M  V30 15 1 8 16
M  V30 16 1 5 17
M  V30 17 1 3 18
M  V30 18 1 3 19
M  V30 19 1 14 9
M  V30 20 1 1 20
M  V30 21 1 1 21
M  V30 22 1 2 22
M  V30 23 1 2 23
M  V30 24 1 4 24
M  V30 25 1 4 25
M  V30 26 1 10 26
M  V30 27 1 11 27
M  V30 28 1 12 28
M  V30 29 1 13 29
M  V30 30 1 14 30
M  V30 31 1 15 31
M  V30 32 1 15 32
M  V30 33 1 16 33
M  V30 34 1 16 34
M  V30 35 1 16 35
M  V30 36 1 17 36
M  V30 37 1 17 37
M  V30 38 1 17 38
M  V30 39 1 18 39
M  V30 40 1 18 40
M  V30 41 1 18 41
M  V30 42 1 19 42
M  V30 43 1 19 43
M  V30 44 1 19 44
M  V30 END BOND
M  V30 END CTAB
M  END
