
     RDKit          3D

  0  0  0  0  0  0  0  0  0  0999 V3000
M  V30 BEGIN CTAB
M  V30 COUNTS 20 19 0 0 0
M  V30 BEGIN ATOM
M  V30 1 C 2.46071 -0.259448 0.0299511 0
M  V30 2 C 1.03441 -0.704599 0.030346 0
M  V30 3 C 0.0598055 0.443204 0.101673 0
M  V30 4 N 0.186577 1.35135 -1.00474 0
M  V30 5 C -1.36412 -0.0621536 0.208733 0
M  V30 6 N -1.75233 -0.797512 -0.979822 0
M  V30 7 O -1.48031 -0.943395 1.28482 0
M  V30 8 O -2.22711 0.996394 0.461058 0
M  V30 9 H 3.07035 -1.06499 0.493078 0
M  V30 10 H 2.84516 -0.150502 -1.01535 0
M  V30 11 H 2.61371 0.706566 0.568597 0
M  V30 12 H 0.835624 -1.22856 -0.9358 0
M  V30 13 H 0.874426 -1.44399 0.836542 0
M  V30 14 H 0.268808 1.0191 1.0343 0
M  V30 15 H -0.772529 1.61202 -1.33255 0
M  V30 16 H 0.721549 2.22038 -0.769322 0
M  V30 17 H -1.97607 -1.7771 -0.803952 0
M  V30 18 H -2.38555 -0.282128 -1.60185 0
M  V30 19 H -0.766004 -0.772518 1.94879 0
M  V30 20 H -2.24709 1.13788 1.4455 0
M  V30 END ATOM
M  V30 BEGIN BOND
M  V30 1 1 1 2
M  V30 2 1 2 3
M  V30 3 1 3 4
M  V30 4 1 3 5
M  V30 5 1 5 6
M  V30 6 1 5 7
M  V30 7 1 5 8
M  V30 8 1 1 9
M  V30 9 1 1 10
M  V30 10 1 1 11
M  V30 11 1 2 12
M  V30 12 1 2 13
M  V30 13 1 3 14
M  V30 14 1 4 15
M  V30 15 1 4 16
M  V30 16 1 6 17
M  V30 17 1 6 18
M  V30 18 1 7 19
M  V30 19 1 8 20
M  V30 END BOND
M  V30 END CTAB
M  END
