
     RDKit          3D

  0  0  0  0  0  0  0  0  0  0999 V3000
M  V30 BEGIN CTAB
M  V30 COUNTS 36 37 0 0 0
M  V30 BEGIN ATOM
M  V30 1 N -6.62171 1.53433 -0.13447 0
M  V30 2 C -6.11156 0.248757 0.254558 0
M  V30 3 N -6.97155 -0.626346 0.573237 0
M  V30 4 C -4.67151 0.0270545 0.261328 0
M  V30 5 C -4.12868 -1.17963 0.623668 0
M  V30 6 C -2.74479 -1.34677 0.615466 0
M  V30 7 C -1.8783 -0.331589 0.251597 0
M  V30 8 C -0.455148 -0.593185 0.27192 0
M  V30 9 C 0.411674 0.332357 -0.0632287 0
M  V30 10 C 1.85812 0.107549 -0.0557268 0
M  V30 11 C 2.70778 1.15016 -0.42762 0
M  V30 12 C 4.07301 0.976052 -0.432732 0
M  V30 13 C 4.67509 -0.22161 -0.0759111 0
M  V30 14 C 3.81809 -1.23381 0.286568 0
M  V30 15 C 2.42314 -1.08482 0.30105 0
M  V30 16 C 6.12444 -0.35319 -0.0983957 0
M  V30 17 N 6.89581 0.793953 -0.5003 0
M  V30 18 N 6.71224 -1.4515 0.227251 0
M  V30 19 C -2.41585 0.863268 -0.10719 0
M  V30 20 C -3.80333 1.02841 -0.0981884 0
M  V30 21 H -7.27272 1.65925 -0.936242 0
M  V30 22 H -6.31396 2.34964 0.420721 0
M  V30 23 H -6.71335 -1.57931 0.866969 0
M  V30 24 H -4.77732 -2.00678 0.917578 0
M  V30 25 H -2.35186 -2.31608 0.908444 0
M  V30 26 H -0.0930444 -1.60149 0.578764 0
M  V30 27 H 0.0366657 1.30294 -0.357419 0
M  V30 28 H 2.27066 2.10374 -0.713606 0
M  V30 29 H 4.74856 1.79736 -0.725964 0
M  V30 30 H 4.22393 -2.20177 0.57855 0
M  V30 31 H 1.83008 -1.94158 0.60195 0
M  V30 32 H 6.84013 1.04887 -1.50716 0
M  V30 33 H 7.4746 1.33288 0.185294 0
M  V30 34 H 6.21484 -2.30096 0.521576 0
M  V30 35 H -1.82136 1.70712 -0.404042 0
M  V30 36 H -4.19281 2.00675 -0.394226 0
M  V30 END ATOM
M  V30 BEGIN BOND
M  V30 1 1 1 2
M  V30 2 2 2 3 CFG=2
M  V30 3 1 2 4
M  V30 4 2 4 5
M  V30 5 1 5 6
M  V30 6 2 6 7
M  V30 7 1 7 8
M  V30 8 2 8 9 CFG=2
M  V30 9 1 9 10
M  V30 10 2 10 11
M  V30 11 1 11 12
M  V30 12 2 12 13
M  V30 13 1 13 14
M  V30 14 2 14 15
M  V30 15 1 13 16
M  V30 16 1 16 17
M  V30 17 2 16 18 CFG=2
M  V30 18 1 7 19
M  V30 19 2 19 20
M  V30 20 1 20 4
M  V30 21 1 15 10
M  V30 22 1 1 21
M  V30 23 1 1 22
M  V30 24 1 3 23
M  V30 25 1 5 24
M  V30 26 1 6 25
M  V30 27 1 8 26
M  V30 28 1 9 27
M  V30 29 1 11 28
M  V30 30 1 12 29
M  V30 31 1 14 30
M  V30 32 1 15 31
M  V30 33 1 17 32
M  V30 34 1 17 33
M  V30 35 1 18 34
M  V30 36 1 19 35
M  V30 37 1 20 36
M  V30 END BOND
M  V30 END CTAB
M  END
