
     RDKit          3D

  0  0  0  0  0  0  0  0  0  0999 V3000
M  V30 BEGIN CTAB
M  V30 COUNTS 38 39 0 0 0
M  V30 BEGIN ATOM
M  V30 1 C 4.25527 -2.63754 0.158066 0
M  V30 2 C 2.93496 -2.11008 -0.411174 0
M  V30 3 C 2.15106 -1.57198 0.758683 0
M  V30 4 N 0.878433 -1.0371 0.386921 0
M  V30 5 C -0.326011 -1.62918 0.296983 0
M  V30 6 O -0.50978 -2.84623 0.552189 0
M  V30 7 N -1.26012 -0.743365 -0.0937941 0
M  V30 8 C -0.643612 0.435687 -0.256836 0
M  V30 9 C 0.683183 0.248571 0.0425774 0
M  V30 10 C 1.55947 1.33653 -0.0488516 0
M  V30 11 C 1.14073 2.58497 -0.427248 0
M  V30 12 N 2.06523 3.66179 -0.506777 0
M  V30 13 C -0.192165 2.77547 -0.728651 0
M  V30 14 C -1.0526 1.70137 -0.637476 0
M  V30 15 N -0.600501 4.07782 -1.118 0
M  V30 16 C -2.68148 -0.966571 -0.313448 0
M  V30 17 C -3.41167 -0.716625 0.970536 0
M  V30 18 C -4.9079 -0.947071 0.75668 0
M  V30 19 H 5.04453 -2.61649 -0.63633 0
M  V30 20 H 4.60065 -1.90144 0.927497 0
M  V30 21 H 4.13865 -3.64908 0.583425 0
M  V30 22 H 3.20719 -1.32683 -1.14065 0
M  V30 23 H 2.43758 -2.91543 -0.953259 0
M  V30 24 H 2.74783 -0.794104 1.24869 0
M  V30 25 H 1.96899 -2.42734 1.44214 0
M  V30 26 H 2.6138 1.19594 0.187171 0
M  V30 27 H 1.96988 4.38895 -1.24368 0
M  V30 28 H 2.83087 3.7086 0.178476 0
M  V30 29 H -2.08971 1.86832 -0.876466 0
M  V30 30 H -1.28277 4.59896 -0.535537 0
M  V30 31 H -0.237625 4.53762 -1.9769 0
M  V30 32 H -3.04672 -0.248663 -1.07267 0
M  V30 33 H -2.88108 -1.99214 -0.666986 0
M  V30 34 H -3.30415 0.346953 1.28167 0
M  V30 35 H -3.07358 -1.33452 1.80088 0
M  V30 36 H -5.01833 -1.7333 -0.025921 0
M  V30 37 H -5.32631 -1.3026 1.70612 0
M  V30 38 H -5.38219 -0.0198751 0.39194 0
M  V30 END ATOM
M  V30 BEGIN BOND
M  V30 1 1 1 2
M  V30 2 1 2 3
M  V30 3 1 3 4
M  V30 4 1 4 5
M  V30 5 2 5 6
M  V30 6 1 5 7
M  V30 7 1 7 8
M  V30 8 2 8 9
M  V30 9 1 9 10
M  V30 10 2 10 11
M  V30 11 1 11 12
M  V30 12 1 11 13
M  V30 13 2 13 14
M  V30 14 1 13 15
M  V30 15 1 7 16
M  V30 16 1 16 17
M  V30 17 1 17 18
M  V30 18 1 9 4
M  V30 19 1 14 8
M  V30 20 1 1 19
M  V30 21 1 1 20
M  V30 22 1 1 21
M  V30 23 1 2 22
M  V30 24 1 2 23
M  V30 25 1 3 24
M  V30 26 1 3 25
M  V30 27 1 10 26
M  V30 28 1 12 27
M  V30 29 1 12 28
M  V30 30 1 14 29
M  V30 31 1 15 30
M  V30 32 1 15 31
M  V30 33 1 16 32
M  V30 34 1 16 33
M  V30 35 1 17 34
M  V30 36 1 17 35
M  V30 37 1 18 36
M  V30 38 1 18 37
M  V30 39 1 18 38
M  V30 END BOND
M  V30 END CTAB
M  END
