
     RDKit          3D

  0  0  0  0  0  0  0  0  0  0999 V3000
M  V30 BEGIN CTAB
M  V30 COUNTS 32 34 0 0 0
M  V30 BEGIN ATOM
M  V30 1 N 4.54676 -1.77601 0.727041 0
M  V30 2 C 3.34592 -1.10013 0.360134 0
M  V30 3 N 2.9676 0.0158836 0.998757 0
M  V30 4 C 1.84153 0.684858 0.684156 0
M  V30 5 C 1.00303 0.233347 -0.342742 0
M  V30 6 C -0.234319 0.936631 -0.707741 0
M  V30 7 C -0.276264 2.37141 -0.242135 0
M  V30 8 C 0.351854 2.56195 1.0699 0
M  V30 9 O -0.164746 3.34771 1.89783 0
M  V30 10 N 1.54156 1.87302 1.43063 0
M  V30 11 C -1.47681 0.20713 -0.315412 0
M  V30 12 C -2.32526 -0.385516 -1.22376 0
M  V30 13 C -3.47357 -1.06903 -0.836892 0
M  V30 14 C -3.80639 -1.17763 0.490063 0
M  V30 15 C -2.96415 -0.587453 1.41223 0
M  V30 16 C -1.82794 0.0887598 1.0307 0
M  V30 17 C 1.40589 -0.913966 -0.988872 0
M  V30 18 N 0.657888 -1.49197 -2.05623 0
M  V30 19 N 2.55191 -1.53949 -0.622639 0
M  V30 20 H 5.44106 -1.24805 0.938019 0
M  V30 21 H 4.60536 -2.81949 0.805947 0
M  V30 22 H -0.262061 0.98209 -1.8362 0
M  V30 23 H -1.2929 2.75953 -0.223856 0
M  V30 24 H 0.318352 2.98594 -0.978727 0
M  V30 25 H 2.17208 2.20851 2.20014 0
M  V30 26 H -2.10324 -0.317872 -2.28868 0
M  V30 27 H -4.13308 -1.531 -1.55676 0
M  V30 28 H -4.70223 -1.70873 0.820926 0
M  V30 29 H -3.23954 -0.680102 2.47003 0
M  V30 30 H -1.21472 0.524682 1.79495 0
M  V30 31 H 0.207001 -2.43686 -1.94283 0
M  V30 32 H 0.53943 -0.998145 -2.96798 0
M  V30 END ATOM
M  V30 BEGIN BOND
M  V30 1 1 1 2
M  V30 2 2 2 3
M  V30 3 1 3 4
M  V30 4 2 4 5
M  V30 5 1 5 6
M  V30 6 1 6 7
M  V30 7 1 7 8
M  V30 8 2 8 9
M  V30 9 1 8 10
M  V30 10 1 6 11
M  V30 11 2 11 12
M  V30 12 1 12 13
M  V30 13 2 13 14
M  V30 14 1 14 15
M  V30 15 2 15 16
M  V30 16 1 5 17
M  V30 17 1 17 18
M  V30 18 2 17 19
M  V30 19 1 19 2
M  V30 20 1 10 4
M  V30 21 1 16 11
M  V30 22 1 1 20
M  V30 23 1 1 21
M  V30 24 1 6 22
M  V30 25 1 7 23
M  V30 26 1 7 24
M  V30 27 1 10 25
M  V30 28 1 12 26
M  V30 29 1 13 27
M  V30 30 1 14 28
M  V30 31 1 15 29
M  V30 32 1 16 30
M  V30 33 1 18 31
M  V30 34 1 18 32
M  V30 END BOND
M  V30 END CTAB
M  END
