
     RDKit          3D

  0  0  0  0  0  0  0  0  0  0999 V3000
M  V30 BEGIN CTAB
M  V30 COUNTS 32 32 0 0 0
M  V30 BEGIN ATOM
M  V30 1 C -3.87533 -2.18124 -0.366168 0
M  V30 2 C -3.68576 -1.75482 1.06149 0
M  V30 3 O -3.00437 -0.504558 1.07605 0
M  V30 4 C -1.74877 -0.369771 0.513273 0
M  V30 5 O -1.24154 -1.3926 -0.00873912 0
M  V30 6 C -0.988114 0.882792 0.492552 0
M  V30 7 C 0.305079 0.801209 -0.164992 0
M  V30 8 C 0.456268 0.775389 -1.52484 0
M  V30 9 N -0.700152 0.832736 -2.3362 0
M  V30 10 C 1.71561 0.695166 -2.12592 0
M  V30 11 C 2.83349 0.640548 -1.33796 0
M  V30 12 C 2.70201 0.665669 0.0461431 0
M  V30 13 C 1.46188 0.744279 0.620697 0
M  V30 14 O 1.27338 0.771696 1.96905 0
M  V30 15 C 2.30847 0.729088 2.89547 0
M  V30 16 F 2.10539 -0.317639 3.82426 0
M  V30 17 F 2.27084 1.87381 3.72059 0
M  V30 18 N 4.11534 0.557766 -1.96272 0
M  V30 19 H -3.44891 -1.46241 -1.09527 0
M  V30 20 H -4.93283 -2.32013 -0.646851 0
M  V30 21 H -3.3328 -3.14293 -0.542317 0
M  V30 22 H -3.03564 -2.4652 1.59814 0
M  V30 23 H -4.65238 -1.679 1.60598 0
M  V30 24 H -0.924377 1.25428 1.54672 0
M  V30 25 H -1.6462 1.64607 -0.0161172 0
M  V30 26 H -0.794055 0.187132 -3.13233 0
M  V30 27 H -1.42933 1.53004 -2.1059 0
M  V30 28 H 1.78832 0.677344 -3.21725 0
M  V30 29 H 3.62636 0.619423 0.6041 0
M  V30 30 H 3.32609 0.704177 2.51138 0
M  V30 31 H 4.73754 1.38578 -2.08401 0
M  V30 32 H 4.41448 -0.384093 -2.30209 0
M  V30 END ATOM
M  V30 BEGIN BOND
M  V30 1 1 1 2
M  V30 2 1 2 3
M  V30 3 1 3 4
M  V30 4 2 4 5
M  V30 5 1 4 6
M  V30 6 1 6 7
M  V30 7 2 7 8
M  V30 8 1 8 9
M  V30 9 1 8 10
M  V30 10 2 10 11
M  V30 11 1 11 12
M  V30 12 2 12 13
M  V30 13 1 13 14
M  V30 14 1 14 15
M  V30 15 1 15 16
M  V30 16 1 15 17
M  V30 17 1 11 18
M  V30 18 1 13 7
M  V30 19 1 1 19
M  V30 20 1 1 20
M  V30 21 1 1 21
M  V30 22 1 2 22
M  V30 23 1 2 23
M  V30 24 1 6 24
M  V30 25 1 6 25
M  V30 26 1 9 26
M  V30 27 1 9 27
M  V30 28 1 10 28
M  V30 29 1 12 29
M  V30 30 1 15 30
M  V30 31 1 18 31
M  V30 32 1 18 32
M  V30 END BOND
M  V30 END CTAB
M  END
