
     RDKit          3D

  0  0  0  0  0  0  0  0  0  0999 V3000
M  V30 BEGIN CTAB
M  V30 COUNTS 38 41 0 0 0
M  V30 BEGIN ATOM
M  V30 1 N 1.28183 -3.80505 1.49137 0
M  V30 2 C 0.508777 -2.99304 1.19909 0
M  V30 3 C -0.451758 -1.95558 0.809971 0
M  V30 4 C -1.59295 -1.94649 1.45927 0
M  V30 5 N -1.82827 -2.93904 2.49664 0
M  V30 6 O -2.57986 -1.0148 1.18146 0
M  V30 7 C -2.40229 -0.0475682 0.200371 0
M  V30 8 C -1.22279 -0.036101 -0.489691 0
M  V30 9 C -0.140116 -0.999304 -0.238441 0
M  V30 10 C 0.0296147 -1.76753 -1.50534 0
M  V30 11 O -0.872379 -2.50174 -2.05097 0
M  V30 12 N 1.33733 -1.53804 -1.97592 0
M  V30 13 C 1.99588 -0.667165 -1.0715 0
M  V30 14 C 1.16515 -0.326195 -0.0369672 0
M  V30 15 C 1.68957 0.524999 0.921613 0
M  V30 16 C 2.97767 1.00924 0.848305 0
M  V30 17 C 3.54423 1.9246 1.87756 0
M  V30 18 C 3.78779 0.645566 -0.207662 0
M  V30 19 C 3.30265 -0.18796 -1.16409 0
M  V30 20 Br 5.58241 1.33201 -0.292045 0
M  V30 21 C -1.08621 0.952595 -1.46665 0
M  V30 22 C -2.08601 1.85279 -1.7084 0
M  V30 23 C -3.28619 1.85387 -1.01784 0
M  V30 24 C -3.42159 0.880892 -0.0558329 0
M  V30 25 N -4.29784 2.80557 -1.29955 0
M  V30 26 H -2.75884 -3.40144 2.47251 0
M  V30 27 H -1.13445 -3.18173 3.21474 0
M  V30 28 H 1.72196 -1.96629 -2.86349 0
M  V30 29 H 1.07511 0.815686 1.74498 0
M  V30 30 H 2.90257 1.8241 2.77403 0
M  V30 31 H 3.5269 2.95974 1.46124 0
M  V30 32 H 4.58716 1.66016 2.06527 0
M  V30 33 H 3.9385 -0.472247 -1.99114 0
M  V30 34 H -0.153841 0.960857 -2.01138 0
M  V30 35 H -1.97107 2.61753 -2.46942 0
M  V30 36 H -4.32769 0.824276 0.517677 0
M  V30 37 H -4.81137 2.74994 -2.19386 0
M  V30 38 H -4.52963 3.5529 -0.625915 0
M  V30 END ATOM
M  V30 BEGIN BOND
M  V30 1 3 1 2
M  V30 2 1 2 3
M  V30 3 2 3 4
M  V30 4 1 4 5
M  V30 5 1 4 6
M  V30 6 1 6 7
M  V30 7 2 7 8
M  V30 8 1 8 9
M  V30 9 1 9 10
M  V30 10 2 10 11
M  V30 11 1 10 12
M  V30 12 1 12 13
M  V30 13 2 13 14
M  V30 14 1 14 15
M  V30 15 2 15 16
M  V30 16 1 16 17
M  V30 17 1 16 18
M  V30 18 2 18 19
M  V30 19 1 18 20
M  V30 20 1 8 21
M  V30 21 2 21 22
M  V30 22 1 22 23
M  V30 23 2 23 24
M  V30 24 1 23 25
M  V30 25 1 9 3
M  V30 26 1 19 13
M  V30 27 1 24 7
M  V30 28 1 14 9
M  V30 29 1 5 26
M  V30 30 1 5 27
M  V30 31 1 12 28
M  V30 32 1 15 29
M  V30 33 1 17 30
M  V30 34 1 17 31
M  V30 35 1 17 32
M  V30 36 1 19 33
M  V30 37 1 21 34
M  V30 38 1 22 35
M  V30 39 1 24 36
M  V30 40 1 25 37
M  V30 41 1 25 38
M  V30 END BOND
M  V30 END CTAB
M  END
