
     RDKit          3D

  0  0  0  0  0  0  0  0  0  0999 V3000
M  V30 BEGIN CTAB
M  V30 COUNTS 19 18 0 0 0
M  V30 BEGIN ATOM
M  V30 1 C -1.86756 1.71171 -0.716785 0
M  V30 2 C -1.76232 0.717629 0.147482 0
M  V30 3 C -0.729461 -0.324991 -0.107325 0
M  V30 4 N 0.412931 -0.0383805 0.668017 0
M  V30 5 C 1.6227 0.0459141 0.306331 0
M  V30 6 N 2.59432 0.348716 1.2843 0
M  V30 7 N 2.08716 -0.14446 -1.03431 0
M  V30 8 C -1.36463 -1.65581 0.311451 0
M  V30 9 H -2.60196 2.49066 -0.573327 0
M  V30 10 H -1.21238 1.77655 -1.60662 0
M  V30 11 H -2.43304 0.713501 0.996004 0
M  V30 12 H -0.570104 -0.402442 -1.19545 0
M  V30 13 H 3.22919 -0.392432 1.61446 0
M  V30 14 H 2.67481 1.30116 1.67037 0
M  V30 15 H 1.97557 -1.01309 -1.56967 0
M  V30 16 H 2.5744 0.66328 -1.49602 0
M  V30 17 H -1.78685 -1.47634 1.33514 0
M  V30 18 H -2.22926 -1.86705 -0.339415 0
M  V30 19 H -0.613511 -2.45412 0.305376 0
M  V30 END ATOM
M  V30 BEGIN BOND
M  V30 1 2 1 2 CFG=2
M  V30 2 1 2 3
M  V30 3 1 3 4
M  V30 4 2 4 5 CFG=2
M  V30 5 1 5 6
M  V30 6 1 5 7
M  V30 7 1 3 8
M  V30 8 1 1 9
M  V30 9 1 1 10
M  V30 10 1 2 11
M  V30 11 1 3 12
M  V30 12 1 6 13
M  V30 13 1 6 14
M  V30 14 1 7 15
M  V30 15 1 7 16
M  V30 16 1 8 17
M  V30 17 1 8 18
M  V30 18 1 8 19
M  V30 END BOND
M  V30 END CTAB
M  END
