
     RDKit          3D

  0  0  0  0  0  0  0  0  0  0999 V3000
M  V30 BEGIN CTAB
M  V30 COUNTS 24 24 0 0 0
M  V30 BEGIN ATOM
M  V30 1 N 3.69524 0.656397 0.510719 0
M  V30 2 C 2.91841 1.16089 -0.569938 0
M  V30 3 C 1.44758 0.866049 -0.449581 0
M  V30 4 C 1.13295 -0.594224 -0.397105 0
M  V30 5 C -0.366383 -0.717341 -0.277908 0
M  V30 6 N -1.15216 0.371414 -0.237593 0
M  V30 7 C -2.47144 0.352594 -0.134455 0
M  V30 8 N -3.17555 1.58181 -0.103217 0
M  V30 9 C -3.10898 -0.876378 -0.0611912 0
M  V30 10 C -2.3017 -1.9797 -0.102898 0
M  V30 11 O -2.8573 -3.1274 -0.0375808 0
M  V30 12 N -0.965132 -1.90919 -0.208378 0
M  V30 13 H 4.18117 -0.223117 0.23229 0
M  V30 14 H 3.15355 0.56288 1.40009 0
M  V30 15 H 3.0213 2.27376 -0.573096 0
M  V30 16 H 3.27632 0.699797 -1.51489 0
M  V30 17 H 0.900138 1.29378 -1.31302 0
M  V30 18 H 1.01396 1.33922 0.46631 0
M  V30 19 H 1.51403 -1.12521 -1.27425 0
M  V30 20 H 1.54132 -0.985141 0.572191 0
M  V30 21 H -3.82998 1.7997 0.684946 0
M  V30 22 H -3.0258 2.27131 -0.890606 0
M  V30 23 H -4.19082 -0.919342 0.0239245 0
M  V30 24 H -0.350719 -2.77256 -0.239668 0
M  V30 END ATOM
M  V30 BEGIN BOND
M  V30 1 1 1 2
M  V30 2 1 2 3
M  V30 3 1 3 4
M  V30 4 1 4 5
M  V30 5 2 5 6
M  V30 6 1 6 7
M  V30 7 1 7 8
M  V30 8 2 7 9
M  V30 9 1 9 10
M  V30 10 2 10 11
M  V30 11 1 10 12
M  V30 12 1 12 5
M  V30 13 1 1 13
M  V30 14 1 1 14
M  V30 15 1 2 15
M  V30 16 1 2 16
M  V30 17 1 3 17
M  V30 18 1 3 18
M  V30 19 1 4 19
M  V30 20 1 4 20
M  V30 21 1 8 21
M  V30 22 1 8 22
M  V30 23 1 9 23
M  V30 24 1 12 24
M  V30 END BOND
M  V30 END CTAB
M  END
