
     RDKit          3D

  0  0  0  0  0  0  0  0  0  0999 V3000
M  V30 BEGIN CTAB
M  V30 COUNTS 49 51 0 0 0
M  V30 BEGIN ATOM
M  V30 1 N -3.00304 3.86404 -0.69182 0
M  V30 2 C -3.03002 2.60274 -1.32094 0
M  V30 3 C -2.47634 1.59605 -0.30247 0 CFG=2
M  V30 4 C -1.08369 1.96438 0.076524 0
M  V30 5 N -0.207513 0.899359 -0.410917 0
M  V30 6 C -0.958645 0.177125 -1.41156 0
M  V30 7 C -2.4097 0.24693 -0.91393 0 CFG=1
M  V30 8 C -2.73683 -0.876053 -0.0473814 0
M  V30 9 C -2.17412 -1.11814 1.18534 0
M  V30 10 C -2.50661 -2.19319 1.97615 0
M  V30 11 C -3.44684 -3.07605 1.52223 0
M  V30 12 C -4.03494 -2.87124 0.294221 0
M  V30 13 C -3.6828 -1.7927 -0.468548 0
M  V30 14 C 1.08149 0.64209 0.0462024 0
M  V30 15 O 1.50059 1.41604 0.994122 0
M  V30 16 C 2.04117 -0.375607 -0.376442 0
M  V30 17 C 3.16979 -0.514462 0.610647 0
M  V30 18 C 3.3507 -1.73559 1.20663 0
M  V30 19 C 4.37045 -1.95814 2.13142 0
M  V30 20 C 5.22396 -0.940168 2.46527 0
M  V30 21 C 5.04897 0.285977 1.87231 0
M  V30 22 C 4.022 0.50402 0.94315 0
M  V30 23 F 6.23805 -1.12342 3.37106 0
M  V30 24 C 2.75246 -0.0289533 -1.69372 0
M  V30 25 N 1.89262 0.125497 -2.8095 0
M  V30 26 H -2.48659 4.59426 -1.04133 0
M  V30 27 H -3.33972 3.86448 0.215587 0
M  V30 28 H -2.43213 2.60058 -2.25047 0
M  V30 29 H -4.0999 2.35997 -1.50492 0
M  V30 30 H -3.1651 1.66617 0.56558 0
M  V30 31 H -0.926511 2.0537 1.17238 0
M  V30 32 H -0.840706 2.94299 -0.360648 0
M  V30 33 H -0.979035 0.770524 -2.36057 0
M  V30 34 H -0.689664 -0.866543 -1.53989 0
M  V30 35 H -3.08143 0.23746 -1.81464 0
M  V30 36 H -1.44363 -0.440909 1.55354 0
M  V30 37 H -2.01685 -2.31027 2.93212 0
M  V30 38 H -3.70595 -3.92139 2.14793 0
M  V30 39 H -4.77428 -3.58472 -0.0386293 0
M  V30 40 H -4.16358 -1.6555 -1.43478 0
M  V30 41 H 1.57354 -1.35783 -0.48338 0
M  V30 42 H 2.69754 -2.5674 0.970455 0
M  V30 43 H 4.50787 -2.92884 2.59988 0
M  V30 44 H 5.72083 1.0877 2.13496 0
M  V30 45 H 3.90505 1.46305 0.494127 0
M  V30 46 H 3.28128 0.95567 -1.5396 0
M  V30 47 H 3.57496 -0.758953 -1.88148 0
M  V30 48 H 2.27614 0.818866 -3.48249 0
M  V30 49 H 1.66669 -0.743642 -3.30178 0
M  V30 END ATOM
M  V30 BEGIN BOND
M  V30 1 1 1 2
M  V30 2 1 2 3
M  V30 3 1 3 4
M  V30 4 1 4 5
M  V30 5 1 5 6
M  V30 6 1 6 7
M  V30 7 1 7 8
M  V30 8 2 8 9
M  V30 9 1 9 10
M  V30 10 2 10 11
M  V30 11 1 11 12
M  V30 12 2 12 13
M  V30 13 1 5 14
M  V30 14 2 14 15
M  V30 15 1 14 16
M  V30 16 1 16 17
M  V30 17 2 17 18
M  V30 18 1 18 19
M  V30 19 2 19 20
M  V30 20 1 20 21
M  V30 21 2 21 22
M  V30 22 1 20 23
M  V30 23 1 16 24
M  V30 24 1 24 25
M  V30 25 1 7 3
M  V30 26 1 13 8
M  V30 27 1 22 17
M  V30 28 1 1 26
M  V30 29 1 1 27
M  V30 30 1 2 28
M  V30 31 1 2 29
M  V30 32 1 3 30 CFG=1
M  V30 33 1 4 31
M  V30 34 1 4 32
M  V30 35 1 6 33
M  V30 36 1 6 34
M  V30 37 1 7 35 CFG=3
M  V30 38 1 9 36
M  V30 39 1 10 37
M  V30 40 1 11 38
M  V30 41 1 12 39
M  V30 42 1 13 40
M  V30 43 1 16 41
M  V30 44 1 18 42
M  V30 45 1 19 43
M  V30 46 1 21 44
M  V30 47 1 22 45
M  V30 48 1 24 46
M  V30 49 1 24 47
M  V30 50 1 25 48
M  V30 51 1 25 49
M  V30 END BOND
M  V30 END CTAB
M  END
