
     RDKit          3D

  0  0  0  0  0  0  0  0  0  0999 V3000
M  V30 BEGIN CTAB
M  V30 COUNTS 30 31 0 0 0
M  V30 BEGIN ATOM
M  V30 1 N 6.11342 -0.105506 0.443756 0
M  V30 2 C 4.68569 -0.0316275 0.440264 0
M  V30 3 C 3.9377 -0.51079 -0.609311 0
M  V30 4 C 2.54348 -0.456731 -0.649253 0
M  V30 5 C 1.86078 0.100545 0.405138 0
M  V30 6 C 2.61822 0.586759 1.46999 0
M  V30 7 C 3.98998 0.524585 1.49111 0
M  V30 8 C 0.400679 0.194866 0.439602 0
M  V30 9 C -0.403078 -0.229733 -0.505582 0
M  V30 10 C -1.8549 -0.108878 -0.416543 0
M  V30 11 C -2.53813 0.44599 0.632918 0
M  V30 12 C -3.93116 0.526411 0.646482 0
M  V30 13 C -4.69164 0.0501026 -0.398603 0
M  V30 14 N -6.1106 0.120243 -0.408614 0
M  V30 15 C -3.99901 -0.512481 -1.46267 0
M  V30 16 C -2.62644 -0.594433 -1.48153 0
M  V30 17 H 6.63988 0.288621 1.23276 0
M  V30 18 H 6.62831 -0.549016 -0.334243 0
M  V30 19 H 4.46836 -0.956249 -1.45376 0
M  V30 20 H 2.02219 -0.851979 -1.50475 0
M  V30 21 H 2.08638 1.02655 2.30282 0
M  V30 22 H 4.57329 0.901557 2.31626 0
M  V30 23 H -0.025809 0.651881 1.31864 0
M  V30 24 H 0.0543076 -0.692778 -1.39349 0
M  V30 25 H -1.97648 0.835994 1.4821 0
M  V30 26 H -4.44106 0.976252 1.502 0
M  V30 27 H -6.70357 0.0443161 0.436817 0
M  V30 28 H -6.58548 0.256169 -1.3198 0
M  V30 29 H -4.62257 -0.884878 -2.28286 0
M  V30 30 H -2.11274 -1.04576 -2.33965 0
M  V30 END ATOM
M  V30 BEGIN BOND
M  V30 1 1 1 2
M  V30 2 2 2 3
M  V30 3 1 3 4
M  V30 4 2 4 5
M  V30 5 1 5 6
M  V30 6 2 6 7
M  V30 7 1 5 8
M  V30 8 2 8 9
M  V30 9 1 9 10
M  V30 10 2 10 11
M  V30 11 1 11 12
M  V30 12 2 12 13
M  V30 13 1 13 14
M  V30 14 1 13 15
M  V30 15 2 15 16
M  V30 16 1 7 2
M  V30 17 1 16 10
M  V30 18 1 1 17
M  V30 19 1 1 18
M  V30 20 1 3 19
M  V30 21 1 4 20
M  V30 22 1 6 21
M  V30 23 1 7 22
M  V30 24 1 8 23
M  V30 25 1 9 24
M  V30 26 1 11 25
M  V30 27 1 12 26
M  V30 28 1 14 27
M  V30 29 1 14 28
M  V30 30 1 15 29
M  V30 31 1 16 30
M  V30 END BOND
M  V30 END CTAB
M  END
