
     RDKit          3D

  0  0  0  0  0  0  0  0  0  0999 V3000
M  V30 BEGIN CTAB
M  V30 COUNTS 52 54 0 0 0
M  V30 BEGIN ATOM
M  V30 1 C -5.58299 -0.0613928 2.65868 0
M  V30 2 C -6.64868 0.141895 1.6508 0
M  V30 3 C -6.35463 1.19905 0.664734 0
M  V30 4 C -5.24529 0.997667 -0.266448 0
M  V30 5 C -3.88029 0.843767 0.285037 0
M  V30 6 C -2.96254 0.721348 -0.915512 0
M  V30 7 O -2.4685 1.74754 -1.38018 0
M  V30 8 O -2.72918 -0.513742 -1.42495 0
M  V30 9 C -1.93416 -0.867111 -2.48293 0
M  V30 10 C -0.47764 -0.757074 -2.41185 0
M  V30 11 C 0.189551 -1.02703 -3.61765 0
M  V30 12 F -0.487326 -1.29958 -4.75827 0
M  V30 13 C 1.55509 -1.00872 -3.61548 0
M  V30 14 N 2.26076 -1.28058 -4.82584 0
M  V30 15 C 2.31717 -0.741321 -2.50149 0
M  V30 16 C 3.69476 -0.727751 -2.51854 0
M  V30 17 O 4.28323 -0.967969 -3.59482 0
M  V30 18 C 4.40403 -0.450204 -1.35258 0
M  V30 19 C 3.67407 -0.197862 -0.217133 0
M  V30 20 O 2.34508 -0.223245 -0.254246 0
M  V30 21 C 1.65831 -0.478391 -1.32252 0
M  V30 22 C 0.250833 -0.491747 -1.29673 0
M  V30 23 F -0.297729 -0.282919 -0.0756869 0
M  V30 24 C 4.36267 0.0994186 1.03502 0
M  V30 25 C 3.58198 0.381395 2.16645 0
M  V30 26 C 4.14925 0.664731 3.38939 0
M  V30 27 C 5.51445 0.683294 3.55486 0
M  V30 28 N 6.09394 0.975371 4.82229 0
M  V30 29 C 6.29086 0.408367 2.45229 0
M  V30 30 F 7.63456 0.42477 2.61306 0
M  V30 31 C 5.71718 0.12004 1.2071 0
M  V30 32 H -4.90195 0.805063 2.68894 0
M  V30 33 H -5.05622 -1.00972 2.46143 0
M  V30 34 H -6.03029 -0.214713 3.70203 0
M  V30 35 H -6.84574 -0.847019 1.10367 0
M  V30 36 H -7.6484 0.347924 2.14843 0
M  V30 37 H -7.28962 1.41652 0.0191113 0
M  V30 38 H -6.19965 2.21089 1.20586 0
M  V30 39 H -5.49602 0.107708 -0.95056 0
M  V30 40 H -5.18739 1.84199 -1.0401 0
M  V30 41 H -3.71622 -0.0880343 0.869012 0
M  V30 42 H -3.57891 1.68983 0.909709 0
M  V30 43 H -2.30983 -0.375536 -3.45573 0
M  V30 44 H -2.2104 -1.96059 -2.71127 0
M  V30 45 H 2.42387 -2.24786 -5.16362 0
M  V30 46 H 2.62721 -0.493909 -5.39433 0
M  V30 47 H 5.4887 -0.435801 -1.35217 0
M  V30 48 H 2.50552 0.374254 2.06603 0
M  V30 49 H 3.55314 0.885825 4.27768 0
M  V30 50 H 6.24782 1.97598 5.06394 0
M  V30 51 H 6.36558 0.234616 5.50534 0
M  V30 52 H 6.35 -0.0884779 0.379764 0
M  V30 END ATOM
M  V30 BEGIN BOND
M  V30 1 1 1 2
M  V30 2 1 2 3
M  V30 3 1 3 4
M  V30 4 1 4 5
M  V30 5 1 5 6
M  V30 6 2 6 7
M  V30 7 1 6 8
M  V30 8 1 8 9
M  V30 9 1 9 10
M  V30 10 2 10 11
M  V30 11 1 11 12
M  V30 12 1 11 13
M  V30 13 1 13 14
M  V30 14 2 13 15
M  V30 15 1 15 16
M  V30 16 2 16 17
M  V30 17 1 16 18
M  V30 18 2 18 19
M  V30 19 1 19 20
M  V30 20 1 20 21
M  V30 21 2 21 22
M  V30 22 1 22 23
M  V30 23 1 19 24
M  V30 24 2 24 25
M  V30 25 1 25 26
M  V30 26 2 26 27
M  V30 27 1 27 28
M  V30 28 1 27 29
M  V30 29 1 29 30
M  V30 30 2 29 31
M  V30 31 1 22 10
M  V30 32 1 31 24
M  V30 33 1 21 15
M  V30 34 1 1 32
M  V30 35 1 1 33
M  V30 36 1 1 34
M  V30 37 1 2 35
M  V30 38 1 2 36
M  V30 39 1 3 37
M  V30 40 1 3 38
M  V30 41 1 4 39
M  V30 42 1 4 40
M  V30 43 1 5 41
M  V30 44 1 5 42
M  V30 45 1 9 43
M  V30 46 1 9 44
M  V30 47 1 14 45
M  V30 48 1 14 46
M  V30 49 1 18 47
M  V30 50 1 25 48
M  V30 51 1 26 49
M  V30 52 1 28 50
M  V30 53 1 28 51
M  V30 54 1 31 52
M  V30 END BOND
M  V30 END CTAB
M  END
