
     RDKit          3D

  0  0  0  0  0  0  0  0  0  0999 V3000
M  V30 BEGIN CTAB
M  V30 COUNTS 82 83 0 0 0
M  V30 BEGIN ATOM
M  V30 1 C 5.96892 -1.5556 2.38836 0 CFG=2
M  V30 2 C 5.57779 -2.39019 3.62249 0
M  V30 3 N 5.05116 -1.83863 1.29985 0
M  V30 4 C 4.06774 -0.939289 0.860321 0
M  V30 5 O 4.01286 0.180844 1.48269 0
M  V30 6 C 3.10046 -1.12425 -0.211922 0 CFG=2
M  V30 7 C 3.75094 -1.34721 -1.54725 0
M  V30 8 C 4.61266 -0.260864 -2.03137 0
M  V30 9 C 4.09405 0.762543 -2.81554 0
M  V30 10 C 4.87126 1.79993 -3.30167 0
M  V30 11 C 6.21406 1.83409 -3.00566 0
M  V30 12 C 6.76025 0.853032 -2.24267 0
M  V30 13 C 5.95963 -0.172488 -1.76997 0
M  V30 14 N 2.14944 -0.0239035 -0.30387 0
M  V30 15 C 0.772905 -0.319373 -0.203924 0
M  V30 16 O 0.521777 -1.57973 -0.0518172 0
M  V30 17 C -0.385122 0.54355 -0.237608 0 CFG=1
M  V30 18 C -0.602702 1.46472 -1.37599 0
M  V30 19 C 0.452537 2.50705 -1.61387 0
M  V30 20 C 0.014661 3.40509 -2.79523 0
M  V30 21 N -1.21197 4.08611 -2.50431 0
M  V30 22 C -1.3078 5.1035 -1.54033 0
M  V30 23 N -1.31192 4.78374 -0.16329 0
M  V30 24 N -1.39128 6.33322 -1.9217 0
M  V30 25 N -1.58918 -0.300119 -0.0365817 0
M  V30 26 C -2.48142 -0.14143 1.02489 0
M  V30 27 O -2.23217 0.786438 1.85795 0
M  V30 28 C -3.6873 -0.989709 1.22364 0 CFG=2
M  V30 29 C -4.43272 -1.26954 -0.0566081 0
M  V30 30 C -5.61804 -2.09609 0.12418 0
M  V30 31 C -5.57137 -3.47363 0.09577 0
M  V30 32 C -6.71764 -4.23563 0.265016 0
M  V30 33 C -7.93121 -3.62137 0.465618 0
M  V30 34 O -9.10901 -4.3544 0.64049 0
M  V30 35 C -7.99435 -2.248 0.496301 0
M  V30 36 C -6.84898 -1.52321 0.326705 0
M  V30 37 N -4.48056 -0.634583 2.345 0
M  V30 38 C -5.06422 0.614391 2.63704 0
M  V30 39 N -5.60428 0.854316 3.92864 0
M  V30 40 N -5.13844 1.56555 1.79266 0
M  V30 41 C 7.3173 -2.01899 2.0216 0
M  V30 42 O 8.385 -1.85186 2.88422 0
M  V30 43 O 7.51409 -2.57272 0.918647 0
M  V30 44 H 5.90795 -0.511661 2.71049 0
M  V30 45 H 5.7869 -1.75588 4.50256 0
M  V30 46 H 6.19336 -3.28916 3.72213 0
M  V30 47 H 4.49007 -2.59803 3.60768 0
M  V30 48 H 5.13946 -2.76198 0.830518 0
M  V30 49 H 2.54402 -2.08376 0.0308951 0
M  V30 50 H 4.35304 -2.31088 -1.53875 0
M  V30 51 H 2.9661 -1.57421 -2.33649 0
M  V30 52 H 3.06036 0.763121 -3.06723 0
M  V30 53 H 4.48165 2.59934 -3.91073 0
M  V30 54 H 6.82562 2.65372 -3.3894 0
M  V30 55 H 7.813 0.901577 -2.02422 0
M  V30 56 H 6.45569 -0.921109 -1.1792 0
M  V30 57 H 2.57569 0.908152 -0.425056 0
M  V30 58 H -0.406687 1.22251 0.691282 0
M  V30 59 H -0.775132 0.874897 -2.31653 0
M  V30 60 H -1.5933 1.97476 -1.18967 0
M  V30 61 H 1.39973 2.06444 -1.99498 0
M  V30 62 H 0.59046 3.10412 -0.698032 0
M  V30 63 H 0.851922 4.12375 -2.96976 0
M  V30 64 H -0.1001 2.70336 -3.64547 0
M  V30 65 H -2.06999 3.81013 -3.03479 0
M  V30 66 H -1.79249 3.93842 0.178491 0
M  V30 67 H -0.815038 5.42529 0.509544 0
M  V30 68 H -1.3916 6.61971 -2.91213 0
M  V30 69 H -1.7631 -1.05292 -0.742276 0
M  V30 70 H -3.22355 -2.0131 1.47761 0
M  V30 71 H -4.59368 -0.305508 -0.576416 0
M  V30 72 H -3.76174 -1.84039 -0.776357 0
M  V30 73 H -4.64735 -4.00616 -0.0577949 0
M  V30 74 H -6.69102 -5.31151 0.244478 0
M  V30 75 H -9.68985 -4.6198 -0.141189 0
M  V30 76 H -8.96208 -1.74173 0.657087 0
M  V30 77 H -6.93306 -0.424235 0.351177 0
M  V30 78 H -4.6777 -1.39768 3.07251 0
M  V30 79 H -6.13011 1.71552 4.19182 0
M  V30 80 H -5.49139 0.139453 4.70871 0
M  V30 81 H -4.80707 1.57111 0.831506 0
M  V30 82 H 8.4232 -1.18899 3.63706 0
M  V30 END ATOM
M  V30 BEGIN BOND
M  V30 1 1 1 2
M  V30 2 1 1 3
M  V30 3 1 3 4
M  V30 4 2 4 5
M  V30 5 1 4 6
M  V30 6 1 6 7
M  V30 7 1 7 8
M  V30 8 2 8 9
M  V30 9 1 9 10
M  V30 10 2 10 11
M  V30 11 1 11 12
M  V30 12 2 12 13
M  V30 13 1 6 14
M  V30 14 1 14 15
M  V30 15 2 15 16
M  V30 16 1 15 17
M  V30 17 1 17 18
M  V30 18 1 18 19
M  V30 19 1 19 20
M  V30 20 1 20 21
M  V30 21 1 21 22
M  V30 22 1 22 23
M  V30 23 2 22 24 CFG=2
M  V30 24 1 17 25
M  V30 25 1 25 26
M  V30 26 2 26 27
M  V30 27 1 26 28
M  V30 28 1 28 29
M  V30 29 1 29 30
M  V30 30 2 30 31
M  V30 31 1 31 32
M  V30 32 2 32 33
M  V30 33 1 33 34
M  V30 34 1 33 35
M  V30 35 2 35 36
M  V30 36 1 28 37
M  V30 37 1 37 38
M  V30 38 1 38 39
M  V30 39 2 38 40 CFG=2
M  V30 40 1 1 41
M  V30 41 1 41 42
M  V30 42 2 41 43
M  V30 43 1 13 8
M  V30 44 1 36 30
M  V30 45 1 1 44 CFG=1
M  V30 46 1 2 45
M  V30 47 1 2 46
M  V30 48 1 2 47
M  V30 49 1 3 48
M  V30 50 1 6 49 CFG=1
M  V30 51 1 7 50
M  V30 52 1 7 51
M  V30 53 1 9 52
M  V30 54 1 10 53
M  V30 55 1 11 54
M  V30 56 1 12 55
M  V30 57 1 13 56
M  V30 58 1 14 57
M  V30 59 1 17 58 CFG=1
M  V30 60 1 18 59
M  V30 61 1 18 60
M  V30 62 1 19 61
M  V30 63 1 19 62
M  V30 64 1 20 63
M  V30 65 1 20 64
M  V30 66 1 21 65
M  V30 67 1 23 66
M  V30 68 1 23 67
M  V30 69 1 24 68
M  V30 70 1 25 69
M  V30 71 1 28 70 CFG=1
M  V30 72 1 29 71
M  V30 73 1 29 72
M  V30 74 1 31 73
M  V30 75 1 32 74
M  V30 76 1 34 75
M  V30 77 1 35 76
M  V30 78 1 36 77
M  V30 79 1 37 78
M  V30 80 1 39 79
M  V30 81 1 39 80
M  V30 82 1 40 81
M  V30 83 1 42 82
M  V30 END BOND
M  V30 END CTAB
M  END
