
     RDKit          3D

  0  0  0  0  0  0  0  0  0  0999 V3000
M  V30 BEGIN CTAB
M  V30 COUNTS 34 35 0 0 0
M  V30 BEGIN ATOM
M  V30 1 C -3.87628 1.55422 0.000383037 0
M  V30 2 C -2.98152 0.307788 0.122034 0
M  V30 3 C -2.86078 -0.328526 -1.22237 0
M  V30 4 C -1.79008 -1.39671 -1.24274 0
M  V30 5 C -1.14743 -1.4526 0.127924 0
M  V30 6 N -0.586116 -0.130893 0.451132 0
M  V30 7 C -1.62966 0.851731 0.633389 0
M  V30 8 C 0.797318 0.0833508 0.531561 0
M  V30 9 C 1.67427 -0.877701 0.0628843 0
M  V30 10 C 3.0491 -0.749754 0.0810882 0
M  V30 11 N 3.91312 -1.76565 -0.412288 0
M  V30 12 C 3.56729 0.429048 0.608498 0
M  V30 13 C 2.6924 1.38944 1.07683 0
M  V30 14 C 1.30929 1.24366 1.051 0
M  V30 15 Cl 0.328136 2.54829 1.69717 0
M  V30 16 N 4.97385 0.583808 0.637881 0
M  V30 17 H -4.05059 1.90952 1.0517 0
M  V30 18 H -4.80715 1.28741 -0.50764 0
M  V30 19 H -3.32867 2.34723 -0.557651 0
M  V30 20 H -3.49839 -0.297316 0.889802 0
M  V30 21 H -2.64532 0.453312 -1.96805 0
M  V30 22 H -3.83283 -0.779481 -1.46695 0
M  V30 23 H -2.23948 -2.37383 -1.46242 0
M  V30 24 H -1.06529 -1.15372 -2.03612 0
M  V30 25 H -0.476657 -2.28217 0.295935 0
M  V30 26 H -2.01044 -1.65216 0.836965 0
M  V30 27 H -1.48383 1.74448 -0.00894948 0
M  V30 28 H -1.85867 1.0668 1.69237 0
M  V30 29 H 1.3284 -1.81215 -0.362761 0
M  V30 30 H 3.59854 -2.31811 -1.23794 0
M  V30 31 H 4.84489 -2.00714 -0.0134936 0
M  V30 32 H 3.09888 2.31249 1.48968 0
M  V30 33 H 5.53333 0.000516958 1.28322 0
M  V30 34 H 5.46039 1.26483 0.0314759 0
M  V30 END ATOM
M  V30 BEGIN BOND
M  V30 1 1 1 2
M  V30 2 1 2 3
M  V30 3 1 3 4
M  V30 4 1 4 5
M  V30 5 1 5 6
M  V30 6 1 6 7
M  V30 7 1 6 8
M  V30 8 2 8 9
M  V30 9 1 9 10
M  V30 10 1 10 11
M  V30 11 2 10 12
M  V30 12 1 12 13
M  V30 13 2 13 14
M  V30 14 1 14 15
M  V30 15 1 12 16
M  V30 16 1 7 2
M  V30 17 1 14 8
M  V30 18 1 1 17
M  V30 19 1 1 18
M  V30 20 1 1 19
M  V30 21 1 2 20
M  V30 22 1 3 21
M  V30 23 1 3 22
M  V30 24 1 4 23
M  V30 25 1 4 24
M  V30 26 1 5 25
M  V30 27 1 5 26
M  V30 28 1 7 27
M  V30 29 1 7 28
M  V30 30 1 9 29
M  V30 31 1 11 30
M  V30 32 1 11 31
M  V30 33 1 13 32
M  V30 34 1 16 33
M  V30 35 1 16 34
M  V30 END BOND
M  V30 END CTAB
M  END
