
     RDKit          3D

  0  0  0  0  0  0  0  0  0  0999 V3000
M  V30 BEGIN CTAB
M  V30 COUNTS 34 35 0 0 0
M  V30 BEGIN ATOM
M  V30 1 N 3.62496 -0.0897416 1.85446 0
M  V30 2 C 2.93582 -0.126808 0.622301 0
M  V30 3 N 3.66815 -0.172046 -0.506451 0
M  V30 4 C 3.03942 -0.208074 -1.69379 0
M  V30 5 C 1.63944 -0.198742 -1.75769 0
M  V30 6 C 0.875331 -0.152751 -0.614371 0
M  V30 7 C 1.5508 -0.116564 0.587809 0
M  V30 8 C -0.60112 -0.143005 -0.716961 0 CFG=1
M  V30 9 C -1.15828 -1.53978 -0.824191 0
M  V30 10 C -1.06176 -2.39054 0.36577 0
M  V30 11 O -1.25786 -1.8265 1.59005 0
M  V30 12 C -2.35653 -0.971335 1.50562 0
M  V30 13 C -1.78758 0.426468 1.35026 0
M  V30 14 N -1.2691 0.7525 0.11475 0
M  V30 15 S -1.59266 2.29073 -0.518086 0
M  V30 16 O -2.3494 2.18903 -1.83562 0
M  V30 17 O -2.38016 3.17084 0.368812 0
M  V30 18 N -0.0896197 3.05936 -0.88897 0
M  V30 19 H 3.23882 0.430355 2.66234 0
M  V30 20 H 4.52861 -0.583741 1.96705 0
M  V30 21 H 3.65611 -0.243856 -2.57807 0
M  V30 22 H 1.23224 -0.23016 -2.75977 0
M  V30 23 H 1.0434 -0.0786461 1.54006 0
M  V30 24 H -0.802618 0.260203 -1.77068 0
M  V30 25 H -2.20385 -1.51827 -1.19509 0
M  V30 26 H -0.585981 -2.03832 -1.65174 0
M  V30 27 H -0.0498441 -2.89251 0.388046 0
M  V30 28 H -1.77932 -3.25738 0.273853 0
M  V30 29 H -2.97214 -1.00764 2.43674 0
M  V30 30 H -3.02075 -1.22346 0.63798 0
M  V30 31 H -2.67473 1.1035 1.55192 0
M  V30 32 H -1.14203 0.58897 2.2384 0
M  V30 33 H 0.281727 2.64332 -1.78965 0
M  V30 34 H -0.179494 4.09462 -0.955096 0
M  V30 END ATOM
M  V30 BEGIN BOND
M  V30 1 1 1 2
M  V30 2 2 2 3
M  V30 3 1 3 4
M  V30 4 2 4 5
M  V30 5 1 5 6
M  V30 6 2 6 7
M  V30 7 1 6 8
M  V30 8 1 8 9
M  V30 9 1 9 10
M  V30 10 1 10 11
M  V30 11 1 11 12
M  V30 12 1 12 13
M  V30 13 1 13 14
M  V30 14 1 14 15
M  V30 15 2 15 16
M  V30 16 2 15 17
M  V30 17 1 15 18
M  V30 18 1 7 2
M  V30 19 1 14 8
M  V30 20 1 1 19
M  V30 21 1 1 20
M  V30 22 1 4 21
M  V30 23 1 5 22
M  V30 24 1 7 23
M  V30 25 1 8 24 CFG=3
M  V30 26 1 9 25
M  V30 27 1 9 26
M  V30 28 1 10 27
M  V30 29 1 10 28
M  V30 30 1 12 29
M  V30 31 1 12 30
M  V30 32 1 13 31
M  V30 33 1 13 32
M  V30 34 1 18 33
M  V30 35 1 18 34
M  V30 END BOND
M  V30 END CTAB
M  END
