
     RDKit          3D

  0  0  0  0  0  0  0  0  0  0999 V3000
M  V30 BEGIN CTAB
M  V30 COUNTS 26 26 0 0 0
M  V30 BEGIN ATOM
M  V30 1 N 3.0482 -1.03055 -0.776529 0
M  V30 2 C 2.42927 0.197634 -0.405978 0
M  V30 3 C 0.940007 -0.000896459 -0.29157 0 CFG=1
M  V30 4 O 0.618007 -0.95875 0.668845 0
M  V30 5 C -0.665237 -1.40616 0.313273 0
M  V30 6 O -0.976144 -2.54295 1.04784 0
M  V30 7 C -1.69245 -0.336754 0.379123 0 CFG=2
M  V30 8 N -2.63808 -0.569553 -0.722269 0
M  V30 9 C -1.20441 1.05188 0.393282 0 CFG=1
M  V30 10 O -1.5281 1.69291 1.61208 0
M  V30 11 C 0.233662 1.26461 0.129685 0 CFG=2
M  V30 12 O 0.475827 2.23129 -0.85212 0
M  V30 13 H 3.97487 -1.10101 -0.477101 0
M  V30 14 H 2.4801 -1.83335 -0.802628 0
M  V30 15 H 2.87304 0.537308 0.541414 0
M  V30 16 H 2.69408 0.93783 -1.18539 0
M  V30 17 H 0.560175 -0.28183 -1.30025 0
M  V30 18 H -0.55841 -1.74732 -0.758829 0
M  V30 19 H -1.68706 -3.07502 0.639747 0
M  V30 20 H -2.30577 -0.519384 1.30999 0
M  V30 21 H -3.61279 -0.387093 -0.429185 0
M  V30 22 H -2.31574 -0.0154367 -1.53624 0
M  V30 23 H -1.78374 1.63655 -0.381225 0
M  V30 24 H -0.798214 1.50979 2.26557 0
M  V30 25 H 0.781353 1.62915 1.04752 0
M  V30 26 H 0.657542 3.1171 -0.429068 0
M  V30 END ATOM
M  V30 BEGIN BOND
M  V30 1 1 1 2
M  V30 2 1 2 3
M  V30 3 1 3 4
M  V30 4 1 4 5
M  V30 5 1 5 6
M  V30 6 1 5 7
M  V30 7 1 7 8
M  V30 8 1 7 9
M  V30 9 1 9 10
M  V30 10 1 9 11
M  V30 11 1 11 12
M  V30 12 1 11 3
M  V30 13 1 1 13
M  V30 14 1 1 14
M  V30 15 1 2 15
M  V30 16 1 2 16
M  V30 17 1 3 17 CFG=3
M  V30 18 1 5 18
M  V30 19 1 6 19
M  V30 20 1 7 20 CFG=1
M  V30 21 1 8 21
M  V30 22 1 8 22
M  V30 23 1 9 23 CFG=3
M  V30 24 1 10 24
M  V30 25 1 11 25 CFG=1
M  V30 26 1 12 26
M  V30 END BOND
M  V30 END CTAB
M  END
