
     RDKit          3D

  0  0  0  0  0  0  0  0  0  0999 V3000
M  V30 BEGIN CTAB
M  V30 COUNTS 23 24 0 0 0
M  V30 BEGIN ATOM
M  V30 1 N -0.151043 -2.34663 -0.0898346 0
M  V30 2 C -0.99722 -1.19864 -0.116209 0
M  V30 3 C -2.38077 -1.36572 -0.198049 0
M  V30 4 C -3.22142 -0.288353 -0.231001 0
M  V30 5 C -2.63474 0.953697 -0.179668 0
M  V30 6 C -1.26865 1.14572 -0.0984101 0
M  V30 7 C -0.409536 0.045227 -0.0645576 0
M  V30 8 C 0.891757 0.479486 0.0156819 0
M  V30 9 C 0.808381 1.87785 0.0297222 0
M  V30 10 N -0.477526 2.22979 -0.038735 0
M  V30 11 S 2.35775 -0.464603 0.0950822 0
M  V30 12 O 2.56759 -1.36133 -1.07296 0
M  V30 13 O 2.46967 -1.23665 1.38858 0
M  V30 14 N 3.7184 0.650326 0.158815 0
M  V30 15 H 0.202954 -2.79321 0.757269 0
M  V30 16 H 0.0970847 -2.74407 -1.02164 0
M  V30 17 H -2.77998 -2.36214 -0.235139 0
M  V30 18 H -4.30359 -0.3827 -0.294477 0
M  V30 19 H -3.26112 1.82777 -0.203287 0
M  V30 20 H 1.67254 2.51524 0.0874704 0
M  V30 21 H -0.880443 3.20036 -0.0485765 0
M  V30 22 H 4.53009 0.160812 0.595239 0
M  V30 23 H 3.44983 1.45775 0.764685 0
M  V30 END ATOM
M  V30 BEGIN BOND
M  V30 1 1 1 2
M  V30 2 2 2 3
M  V30 3 1 3 4
M  V30 4 2 4 5
M  V30 5 1 5 6
M  V30 6 2 6 7
M  V30 7 1 7 8
M  V30 8 2 8 9
M  V30 9 1 9 10
M  V30 10 1 8 11
M  V30 11 2 11 12
M  V30 12 2 11 13
M  V30 13 1 11 14
M  V30 14 1 7 2
M  V30 15 1 10 6
M  V30 16 1 1 15
M  V30 17 1 1 16
M  V30 18 1 3 17
M  V30 19 1 4 18
M  V30 20 1 5 19
M  V30 21 1 9 20
M  V30 22 1 10 21
M  V30 23 1 14 22
M  V30 24 1 14 23
M  V30 END BOND
M  V30 END CTAB
M  END
