
     RDKit          3D

  0  0  0  0  0  0  0  0  0  0999 V3000
M  V30 BEGIN CTAB
M  V30 COUNTS 26 26 0 0 0
M  V30 BEGIN ATOM
M  V30 1 O -3.50664 -0.950143 -1.10387 0
M  V30 2 C -2.39 -0.728208 -0.305767 0
M  V30 3 C -2.59111 0.435019 0.616592 0
M  V30 4 C -1.15941 0.895132 0.862401 0
M  V30 5 C -0.603832 0.887952 -0.531318 0
M  V30 6 C -1.21359 -0.349813 -1.15486 0
M  V30 7 C 0.908716 0.830056 -0.546479 0
M  V30 8 N 1.38816 -0.358013 0.107082 0
M  V30 9 C 2.62569 -0.463084 0.400833 0
M  V30 10 N 3.50476 0.594136 0.0770264 0
M  V30 11 N 3.11162 -1.62788 1.04479 0
M  V30 12 H -3.68055 -1.91676 -1.20028 0
M  V30 13 H -2.12483 -1.63796 0.296046 0
M  V30 14 H -3.08112 1.25496 0.0308915 0
M  V30 15 H -3.12276 0.190288 1.53912 0
M  V30 16 H -1.14694 1.89284 1.3433 0
M  V30 17 H -0.691241 0.118285 1.49105 0
M  V30 18 H -0.98963 1.752 -1.09784 0
M  V30 19 H -0.479005 -1.1765 -1.24229 0
M  V30 20 H -1.55269 -0.132644 -2.19976 0
M  V30 21 H 1.25129 1.76434 -0.0203595 0
M  V30 22 H 1.30667 0.919134 -1.57662 0
M  V30 23 H 4.06227 1.09997 0.80067 0
M  V30 24 H 3.59111 0.871778 -0.935409 0
M  V30 25 H 3.84972 -2.24552 0.641262 0
M  V30 26 H 2.73333 -1.91937 1.98114 0
M  V30 END ATOM
M  V30 BEGIN BOND
M  V30 1 1 1 2
M  V30 2 1 2 3
M  V30 3 1 3 4
M  V30 4 1 4 5
M  V30 5 1 5 6
M  V30 6 1 5 7
M  V30 7 1 7 8
M  V30 8 2 8 9 CFG=2
M  V30 9 1 9 10
M  V30 10 1 9 11
M  V30 11 1 6 2
M  V30 12 1 1 12
M  V30 13 1 2 13
M  V30 14 1 3 14
M  V30 15 1 3 15
M  V30 16 1 4 16
M  V30 17 1 4 17
M  V30 18 1 5 18
M  V30 19 1 6 19
M  V30 20 1 6 20
M  V30 21 1 7 21
M  V30 22 1 7 22
M  V30 23 1 10 23
M  V30 24 1 10 24
M  V30 25 1 11 25
M  V30 26 1 11 26
M  V30 END BOND
M  V30 END CTAB
M  END
