
     RDKit          3D

  0  0  0  0  0  0  0  0  0  0999 V3000
M  V30 BEGIN CTAB
M  V30 COUNTS 76 76 0 0 0
M  V30 BEGIN ATOM
M  V30 1 C -5.54325 -2.08914 -2.63336 0 CFG=1
M  V30 2 N -5.50425 -1.41383 -3.95416 0
M  V30 3 C -5.30059 -3.51301 -2.94048 0
M  V30 4 C -5.29055 -4.49687 -1.89602 0
M  V30 5 O -4.97736 -5.82811 -2.24555 0
M  V30 6 O -5.53033 -4.3094 -0.69525 0
M  V30 7 C -4.58548 -1.42407 -1.72924 0
M  V30 8 O -4.53454 -1.71957 -0.510861 0
M  V30 9 N -3.67768 -0.427927 -2.16914 0
M  V30 10 C -2.70393 0.294072 -1.45513 0 CFG=1
M  V30 11 C -3.0792 1.44126 -0.6381 0
M  V30 12 C -4.02097 1.30284 0.490308 0
M  V30 13 C -4.19793 2.66537 1.13353 0
M  V30 14 N -2.96965 3.21734 1.65559 0
M  V30 15 C -3.02271 4.50745 2.2587 0
M  V30 16 N -2.86521 5.63887 1.40378 0
M  V30 17 N -3.20382 4.63007 3.50964 0
M  V30 18 C -1.69636 -0.655808 -0.85141 0
M  V30 19 O -1.86463 -1.86169 -1.15216 0
M  V30 20 N -0.672969 -0.259068 -0.0389753 0
M  V30 21 C 0.35539 -0.998262 0.642397 0 CFG=1
M  V30 22 C 0.301631 -2.47041 0.551259 0
M  V30 23 C 1.4709 -3.10286 1.30242 0
M  V30 24 C -0.910537 -2.94119 1.41177 0
M  V30 25 C 1.6291 -0.298464 0.488034 0
M  V30 26 O 1.48391 1.00203 0.673262 0
M  V30 27 N 2.91069 -0.718888 0.1911 0
M  V30 28 C 4.05148 0.23059 0.10056 0 CFG=1
M  V30 29 C 5.09123 -0.189425 1.07586 0
M  V30 30 C 6.30353 0.612149 1.15141 0
M  V30 31 C 6.27781 1.70719 2.01102 0
M  V30 32 C 7.37925 2.5166 2.16788 0
M  V30 33 C 8.54985 2.27018 1.4772 0
M  V30 34 O 9.68949 3.07455 1.61396 0
M  V30 35 C 8.55966 1.18964 0.63564 0
M  V30 36 C 7.47343 0.379645 0.471785 0
M  V30 37 C 4.51743 0.172864 -1.29795 0
M  V30 38 O 5.54189 0.954678 -1.799 0
M  V30 39 O 3.9804 -0.623899 -2.13852 0
M  V30 40 H -6.56074 -1.94425 -2.22857 0
M  V30 41 H -4.58936 -1.62006 -4.36287 0
M  V30 42 H -5.66334 -0.402199 -3.82368 0
M  V30 43 H -4.37234 -3.57571 -3.59681 0
M  V30 44 H -6.11155 -3.81944 -3.67568 0
M  V30 45 H -5.50834 -6.31735 -2.9762 0
M  V30 46 H -3.76915 -0.205898 -3.2128 0
M  V30 47 H -2.0307 0.763323 -2.26999 0
M  V30 48 H -3.5381 2.20546 -1.33674 0
M  V30 49 H -2.16665 1.95839 -0.278498 0
M  V30 50 H -3.69771 0.623766 1.29518 0
M  V30 51 H -5.04999 1.00282 0.203271 0
M  V30 52 H -4.56783 3.40686 0.372281 0
M  V30 53 H -4.98641 2.64057 1.92414 0
M  V30 54 H -2.09492 2.68488 1.59077 0
M  V30 55 H -1.90117 5.94272 1.19371 0
M  V30 56 H -3.71717 6.09134 1.04275 0
M  V30 57 H -3.24556 5.5659 3.96971 0
M  V30 58 H -0.597093 0.803983 0.141958 0
M  V30 59 H 0.10667 -0.850136 1.79878 0
M  V30 60 H 0.250587 -2.85573 -0.46308 0
M  V30 61 H 2.03631 -2.39423 1.91225 0
M  V30 62 H 2.13438 -3.63961 0.613797 0
M  V30 63 H 1.12554 -3.88943 2.03017 0
M  V30 64 H -1.45943 -3.73757 0.921549 0
M  V30 65 H -0.515159 -3.23732 2.41291 0
M  V30 66 H -1.53542 -2.05444 1.60677 0
M  V30 67 H 3.17344 -1.6904 -0.00909958 0
M  V30 68 H 3.70411 1.26338 0.301367 0
M  V30 69 H 4.68835 -0.306851 2.11413 0
M  V30 70 H 5.3797 -1.24726 0.79506 0
M  V30 71 H 5.38413 1.96036 2.58887 0
M  V30 72 H 7.39471 3.37774 2.82859 0
M  V30 73 H 9.80755 3.87244 0.998049 0
M  V30 74 H 9.46519 0.95491 0.067197 0
M  V30 75 H 7.47869 -0.481227 -0.196227 0
M  V30 76 H 6.13368 0.684791 -2.56481 0
M  V30 END ATOM
M  V30 BEGIN BOND
M  V30 1 1 1 2
M  V30 2 1 1 3
M  V30 3 1 3 4
M  V30 4 1 4 5
M  V30 5 2 4 6
M  V30 6 1 1 7
M  V30 7 2 7 8
M  V30 8 1 7 9
M  V30 9 1 9 10
M  V30 10 1 10 11
M  V30 11 1 11 12
M  V30 12 1 12 13
M  V30 13 1 13 14
M  V30 14 1 14 15
M  V30 15 1 15 16
M  V30 16 2 15 17 CFG=2
M  V30 17 1 10 18
M  V30 18 2 18 19
M  V30 19 1 18 20
M  V30 20 1 20 21
M  V30 21 1 21 22
M  V30 22 1 22 23
M  V30 23 1 22 24
M  V30 24 1 21 25
M  V30 25 2 25 26
M  V30 26 1 25 27
M  V30 27 1 27 28
M  V30 28 1 28 29
M  V30 29 1 29 30
M  V30 30 2 30 31
M  V30 31 1 31 32
M  V30 32 2 32 33
M  V30 33 1 33 34
M  V30 34 1 33 35
M  V30 35 2 35 36
M  V30 36 1 28 37
M  V30 37 1 37 38
M  V30 38 2 37 39
M  V30 39 1 36 30
M  V30 40 1 1 40 CFG=1
M  V30 41 1 2 41
M  V30 42 1 2 42
M  V30 43 1 3 43
M  V30 44 1 3 44
M  V30 45 1 5 45
M  V30 46 1 9 46
M  V30 47 1 10 47 CFG=3
M  V30 48 1 11 48
M  V30 49 1 11 49
M  V30 50 1 12 50
M  V30 51 1 12 51
M  V30 52 1 13 52
M  V30 53 1 13 53
M  V30 54 1 14 54
M  V30 55 1 16 55
M  V30 56 1 16 56
M  V30 57 1 17 57
M  V30 58 1 20 58
M  V30 59 1 21 59 CFG=1
M  V30 60 1 22 60
M  V30 61 1 23 61
M  V30 62 1 23 62
M  V30 63 1 23 63
M  V30 64 1 24 64
M  V30 65 1 24 65
M  V30 66 1 24 66
M  V30 67 1 27 67
M  V30 68 1 28 68 CFG=1
M  V30 69 1 29 69
M  V30 70 1 29 70
M  V30 71 1 31 71
M  V30 72 1 32 72
M  V30 73 1 34 73
M  V30 74 1 35 74
M  V30 75 1 36 75
M  V30 76 1 38 76
M  V30 END BOND
M  V30 END CTAB
M  END
