
     RDKit          3D

  0  0  0  0  0  0  0  0  0  0999 V3000
M  V30 BEGIN CTAB
M  V30 COUNTS 33 35 0 0 0
M  V30 BEGIN ATOM
M  V30 1 N -3.02059 2.54554 0.355201 0
M  V30 2 C -3.32182 1.12982 0.546278 0
M  V30 3 C -2.46874 0.362239 -0.425053 0 CFG=1
M  V30 4 O -1.1031 0.579454 -0.213285 0
M  V30 5 C -0.539506 -0.357586 -1.03548 0 CFG=2
M  V30 6 C -1.22401 -1.63801 -0.590323 0 CFG=2
M  V30 7 O -1.19324 -2.61776 -1.54922 0
M  V30 8 C -2.64732 -1.12133 -0.343334 0 CFG=2
M  V30 9 O -3.48575 -1.6251 -1.32608 0
M  V30 10 N 0.893975 -0.440692 -0.951068 0
M  V30 11 N 1.60346 -1.3489 -1.60151 0
M  V30 12 C 2.90724 -1.16853 -1.3204 0
M  V30 13 Br 4.37693 -2.20694 -1.99484 0
M  V30 14 C 3.0167 -0.0983993 -0.454558 0
M  V30 15 C 1.73035 0.341449 -0.238693 0
M  V30 16 N 1.46895 1.37455 0.558594 0
M  V30 17 C 2.51297 1.99831 1.16637 0
M  V30 18 N 3.7891 1.59415 0.977917 0
M  V30 19 C 4.07108 0.546511 0.171194 0
M  V30 20 N 5.38342 0.076256 -0.0662094 0
M  V30 21 H -3.78148 3.10723 0.835006 0
M  V30 22 H -3.13317 2.70749 -0.688141 0
M  V30 23 H -3.19102 0.806239 1.588 0
M  V30 24 H -4.3768 0.999609 0.228178 0
M  V30 25 H -2.74616 0.686036 -1.44694 0
M  V30 26 H -0.845477 -0.136809 -2.0823 0
M  V30 27 H -0.791395 -1.92863 0.381007 0
M  V30 28 H -0.70731 -3.40783 -1.18569 0
M  V30 29 H -3.01819 -1.44501 0.642228 0
M  V30 30 H -4.31681 -1.98188 -0.940954 0
M  V30 31 H 2.37761 2.84477 1.82792 0
M  V30 32 H 6.09846 0.717025 -0.500277 0
M  V30 33 H 5.68165 -0.893258 0.172893 0
M  V30 END ATOM
M  V30 BEGIN BOND
M  V30 1 1 1 2
M  V30 2 1 2 3
M  V30 3 1 3 4
M  V30 4 1 4 5
M  V30 5 1 5 6
M  V30 6 1 6 7
M  V30 7 1 6 8
M  V30 8 1 8 9
M  V30 9 1 5 10
M  V30 10 1 10 11
M  V30 11 2 11 12
M  V30 12 1 12 13
M  V30 13 1 12 14
M  V30 14 2 14 15
M  V30 15 1 15 16
M  V30 16 2 16 17
M  V30 17 1 17 18
M  V30 18 2 18 19
M  V30 19 1 19 20
M  V30 20 1 8 3
M  V30 21 1 15 10
M  V30 22 1 19 14
M  V30 23 1 1 21
M  V30 24 1 1 22
M  V30 25 1 2 23
M  V30 26 1 2 24
M  V30 27 1 3 25 CFG=3
M  V30 28 1 5 26 CFG=3
M  V30 29 1 6 27 CFG=1
M  V30 30 1 7 28
M  V30 31 1 8 29 CFG=1
M  V30 32 1 9 30
M  V30 33 1 17 31
M  V30 34 1 20 32
M  V30 35 1 20 33
M  V30 END BOND
M  V30 END CTAB
M  END
