
     RDKit          3D

  0  0  0  0  0  0  0  0  0  0999 V3000
M  V30 BEGIN CTAB
M  V30 COUNTS 44 45 0 0 0
M  V30 BEGIN ATOM
M  V30 1 N -3.54059 -1.73268 -0.790412 0
M  V30 2 C -2.99381 -0.643314 0.030156 0
M  V30 3 C -4.07551 -0.255044 0.986485 0
M  V30 4 C -3.94568 1.19441 1.37605 0
M  V30 5 C -4.2207 1.94942 0.0685029 0
M  V30 6 C -3.04828 1.74432 -0.821205 0
M  V30 7 C -2.38429 0.419079 -0.773252 0
M  V30 8 C -0.912761 0.651953 -0.449198 0
M  V30 9 C -0.0642292 -0.511214 -0.668706 0
M  V30 10 O -0.549595 -1.57829 -1.10161 0
M  V30 11 N 1.32115 -0.468685 -0.401173 0
M  V30 12 C 2.15223 -1.63184 -0.623892 0
M  V30 13 C 3.20528 -1.82762 0.410289 0
M  V30 14 N 3.73509 -0.682425 1.00217 0
M  V30 15 C 2.94164 0.447944 1.18884 0
M  V30 16 C 1.93295 0.724833 0.0955886 0
M  V30 17 S 5.40964 -0.46521 0.940121 0
M  V30 18 O 6.19286 -1.49658 1.67092 0
M  V30 19 O 5.73486 0.876612 1.58207 0
M  V30 20 N 5.89648 -0.357762 -0.724194 0
M  V30 21 H -4.50059 -1.4242 -1.06377 0
M  V30 22 H -3.67265 -2.57157 -0.164941 0
M  V30 23 H -2.19702 -1.14103 0.658648 0
M  V30 24 H -5.06446 -0.376256 0.456083 0
M  V30 25 H -4.08247 -0.913604 1.86751 0
M  V30 26 H -4.641 1.49499 2.16056 0
M  V30 27 H -2.90413 1.38449 1.67681 0
M  V30 28 H -4.34509 3.00227 0.326672 0
M  V30 29 H -5.16936 1.59832 -0.391994 0
M  V30 30 H -3.40142 2.00323 -1.86615 0
M  V30 31 H -2.3314 2.59294 -0.598545 0
M  V30 32 H -2.34052 0.035936 -1.84191 0
M  V30 33 H -0.794696 1.08881 0.57191 0
M  V30 34 H -0.613198 1.49206 -1.1432 0
M  V30 35 H 2.63319 -1.60296 -1.63601 0
M  V30 36 H 1.50919 -2.56032 -0.651836 0
M  V30 37 H 4.02753 -2.43274 -0.053877 0
M  V30 38 H 2.78719 -2.50164 1.21425 0
M  V30 39 H 3.57917 1.36188 1.27639 0
M  V30 40 H 2.40939 0.374992 2.17231 0
M  V30 41 H 1.21097 1.45796 0.521798 0
M  V30 42 H 2.41858 1.26395 -0.769587 0
M  V30 43 H 5.77648 0.631584 -1.06226 0
M  V30 44 H 6.91958 -0.616992 -0.761732 0
M  V30 END ATOM
M  V30 BEGIN BOND
M  V30 1 1 1 2
M  V30 2 1 2 3
M  V30 3 1 3 4
M  V30 4 1 4 5
M  V30 5 1 5 6
M  V30 6 1 6 7
M  V30 7 1 7 8
M  V30 8 1 8 9
M  V30 9 2 9 10
M  V30 10 1 9 11
M  V30 11 1 11 12
M  V30 12 1 12 13
M  V30 13 1 13 14
M  V30 14 1 14 15
M  V30 15 1 15 16
M  V30 16 1 14 17
M  V30 17 2 17 18
M  V30 18 2 17 19
M  V30 19 1 17 20
M  V30 20 1 7 2
M  V30 21 1 16 11
M  V30 22 1 1 21
M  V30 23 1 1 22
M  V30 24 1 2 23
M  V30 25 1 3 24
M  V30 26 1 3 25
M  V30 27 1 4 26
M  V30 28 1 4 27
M  V30 29 1 5 28
M  V30 30 1 5 29
M  V30 31 1 6 30
M  V30 32 1 6 31
M  V30 33 1 7 32
M  V30 34 1 8 33
M  V30 35 1 8 34
M  V30 36 1 12 35
M  V30 37 1 12 36
M  V30 38 1 13 37
M  V30 39 1 13 38
M  V30 40 1 15 39
M  V30 41 1 15 40
M  V30 42 1 16 41
M  V30 43 1 16 42
M  V30 44 1 20 43
M  V30 45 1 20 44
M  V30 END BOND
M  V30 END CTAB
M  END
