
     RDKit          3D

  0  0  0  0  0  0  0  0  0  0999 V3000
M  V30 BEGIN CTAB
M  V30 COUNTS 21 21 0 0 0
M  V30 BEGIN ATOM
M  V30 1 Cl 3.35031 -0.718877 1.44519 0
M  V30 2 C 2.84019 -0.451591 -0.217561 0
M  V30 3 C 1.84608 0.628253 -0.358246 0
M  V30 4 O 2.22704 1.76301 -0.649073 0
M  V30 5 C 0.442707 0.345519 -0.156521 0
M  V30 6 C 0.0353083 -0.94256 0.209958 0
M  V30 7 C -1.27981 -1.28492 0.434135 0
M  V30 8 N -1.63812 -2.61638 0.805322 0
M  V30 9 C -2.21793 -0.287389 0.281917 0
M  V30 10 C -1.83858 0.993547 -0.0799814 0
M  V30 11 C -0.509931 1.32803 -0.303675 0
M  V30 12 N -0.192798 2.66047 -0.67823 0
M  V30 13 Cl -3.0859 2.23584 -0.263315 0
M  V30 14 H 3.75273 -0.173092 -0.835459 0
M  V30 15 H 2.4429 -1.37967 -0.701439 0
M  V30 16 H 0.766678 -1.75018 0.338706 0
M  V30 17 H -0.881988 -3.32123 0.918608 0
M  V30 18 H -2.63439 -2.90099 0.965142 0
M  V30 19 H -3.26825 -0.537803 0.454425 0
M  V30 20 H 0.290483 2.93262 -1.56237 0
M  V30 21 H -0.446729 3.47737 -0.0475318 0
M  V30 END ATOM
M  V30 BEGIN BOND
M  V30 1 1 1 2
M  V30 2 1 2 3
M  V30 3 2 3 4
M  V30 4 1 3 5
M  V30 5 2 5 6
M  V30 6 1 6 7
M  V30 7 1 7 8
M  V30 8 2 7 9
M  V30 9 1 9 10
M  V30 10 2 10 11
M  V30 11 1 11 12
M  V30 12 1 10 13
M  V30 13 1 11 5
M  V30 14 1 2 14
M  V30 15 1 2 15
M  V30 16 1 6 16
M  V30 17 1 8 17
M  V30 18 1 8 18
M  V30 19 1 9 19
M  V30 20 1 12 20
M  V30 21 1 12 21
M  V30 END BOND
M  V30 END CTAB
M  END
