
     RDKit          3D

  0  0  0  0  0  0  0  0  0  0999 V3000
M  V30 BEGIN CTAB
M  V30 COUNTS 51 53 0 0 0
M  V30 BEGIN ATOM
M  V30 1 C -5.46142 -1.42696 -1.57933 0
M  V30 2 O -5.61005 -0.536884 -0.491178 0
M  V30 3 C -4.66246 0.409046 -0.149196 0
M  V30 4 C -3.62527 0.153582 0.741307 0
M  V30 5 C -3.63269 -1.19501 1.33252 0
M  V30 6 C -2.68881 1.0698 1.08481 0
M  V30 7 C -1.53351 0.937537 1.95954 0
M  V30 8 N -0.334149 0.389031 1.41458 0
M  V30 9 C 0.572713 1.08965 0.63659 0
M  V30 10 C 1.58927 0.287779 0.239786 0
M  V30 11 C 2.74236 0.621808 -0.584134 0
M  V30 12 C 3.69078 0.920921 -1.27024 0
M  V30 13 C 4.82805 1.27191 -2.1212 0
M  V30 14 C 6.11096 0.83924 -1.44089 0
M  V30 15 C 7.32381 1.18154 -2.28603 0
M  V30 16 N 8.50483 0.740103 -1.57349 0
M  V30 17 C 1.3225 -0.948558 0.778308 0
M  V30 18 C 0.120019 -0.860146 1.50552 0
M  V30 19 N -0.262795 -1.9972 2.11046 0
M  V30 20 C 0.38221 -3.16345 2.07731 0
M  V30 21 N -0.123686 -4.32528 2.76834 0
M  V30 22 N 1.52761 -3.24036 1.38038 0
M  V30 23 C 1.99834 -2.15354 0.737083 0
M  V30 24 Cl 3.4873 -2.20196 -0.185355 0
M  V30 25 N -2.82262 2.30436 0.490296 0
M  V30 26 C -3.80413 2.587 -0.367917 0
M  V30 27 C -4.74893 1.65665 -0.713908 0
M  V30 28 C -5.82724 2.03578 -1.68546 0
M  V30 29 H -4.5317 -2.02765 -1.51522 0
M  V30 30 H -5.56823 -0.911838 -2.55596 0
M  V30 31 H -6.30565 -2.15098 -1.5199 0
M  V30 32 H -3.21319 -1.1143 2.36148 0
M  V30 33 H -4.6109 -1.67446 1.33247 0
M  V30 34 H -2.96918 -1.83825 0.68664 0
M  V30 35 H -1.33622 1.93482 2.4708 0
M  V30 36 H -1.81761 0.271045 2.81976 0
M  V30 37 H 0.451464 2.12672 0.401862 0
M  V30 38 H 4.75607 0.708959 -3.07838 0
M  V30 39 H 4.8005 2.36477 -2.25042 0
M  V30 40 H 6.09713 -0.241172 -1.20277 0
M  V30 41 H 6.19253 1.39452 -0.501344 0
M  V30 42 H 7.3469 2.22876 -2.58668 0
M  V30 43 H 7.24788 0.516596 -3.19539 0
M  V30 44 H 8.95483 1.50232 -1.02611 0
M  V30 45 H 8.28201 -0.0505818 -0.926428 0
M  V30 46 H -0.871513 -4.18106 3.47912 0
M  V30 47 H 0.251635 -5.26333 2.55635 0
M  V30 48 H -3.842 3.583 -0.794125 0
M  V30 49 H -6.612 1.24986 -1.69166 0
M  V30 50 H -6.34574 2.97292 -1.35865 0
M  V30 51 H -5.42002 2.15296 -2.71118 0
M  V30 END ATOM
M  V30 BEGIN BOND
M  V30 1 1 1 2
M  V30 2 1 2 3
M  V30 3 2 3 4
M  V30 4 1 4 5
M  V30 5 1 4 6
M  V30 6 1 6 7
M  V30 7 1 7 8
M  V30 8 1 8 9
M  V30 9 2 9 10
M  V30 10 1 10 11
M  V30 11 3 11 12
M  V30 12 1 12 13
M  V30 13 1 13 14
M  V30 14 1 14 15
M  V30 15 1 15 16
M  V30 16 1 10 17
M  V30 17 2 17 18
M  V30 18 1 18 19
M  V30 19 2 19 20
M  V30 20 1 20 21
M  V30 21 1 20 22
M  V30 22 2 22 23
M  V30 23 1 23 24
M  V30 24 2 6 25
M  V30 25 1 25 26
M  V30 26 2 26 27
M  V30 27 1 27 28
M  V30 28 1 27 3
M  V30 29 1 18 8
M  V30 30 1 23 17
M  V30 31 1 1 29
M  V30 32 1 1 30
M  V30 33 1 1 31
M  V30 34 1 5 32
M  V30 35 1 5 33
M  V30 36 1 5 34
M  V30 37 1 7 35
M  V30 38 1 7 36
M  V30 39 1 9 37
M  V30 40 1 13 38
M  V30 41 1 13 39
M  V30 42 1 14 40
M  V30 43 1 14 41
M  V30 44 1 15 42
M  V30 45 1 15 43
M  V30 46 1 16 44
M  V30 47 1 16 45
M  V30 48 1 21 46
M  V30 49 1 21 47
M  V30 50 1 26 48
M  V30 51 1 28 49
M  V30 52 1 28 50
M  V30 53 1 28 51
M  V30 END BOND
M  V30 END CTAB
M  END
