
     RDKit          3D

  0  0  0  0  0  0  0  0  0  0999 V3000
M  V30 BEGIN CTAB
M  V30 COUNTS 18 18 0 0 0
M  V30 BEGIN ATOM
M  V30 1 C 2.2116 -0.329613 -0.023871 0
M  V30 2 N 1.14564 0.623359 -0.15369 0
M  V30 3 N 1.23248 1.93225 -0.367786 0
M  V30 4 N 0.0544232 2.47961 -0.42968 0
M  V30 5 C -0.8461 1.49821 -0.250134 0
M  V30 6 N -2.24724 1.74137 -0.257676 0
M  V30 7 C -0.157087 0.320779 -0.0749877 0
M  V30 8 C -0.784483 -0.982569 0.150067 0
M  V30 9 N 0.127856 -2.06739 0.306075 0
M  V30 10 H 3.18341 0.235955 -0.140404 0
M  V30 11 H 2.23703 -1.08751 -0.832413 0
M  V30 12 H 2.27086 -0.780598 0.992827 0
M  V30 13 H -2.67871 2.37783 0.462909 0
M  V30 14 H -2.90294 1.31982 -0.95033 0
M  V30 15 H -1.44193 -0.872409 1.06175 0
M  V30 16 H -1.51773 -1.23906 -0.667657 0
M  V30 17 H 0.401458 -2.24879 1.30067 0
M  V30 18 H -0.288536 -2.92124 -0.125671 0
M  V30 END ATOM
M  V30 BEGIN BOND
M  V30 1 1 1 2
M  V30 2 1 2 3
M  V30 3 2 3 4
M  V30 4 1 4 5
M  V30 5 1 5 6
M  V30 6 2 5 7
M  V30 7 1 7 8
M  V30 8 1 8 9
M  V30 9 1 7 2
M  V30 10 1 1 10
M  V30 11 1 1 11
M  V30 12 1 1 12
M  V30 13 1 6 13
M  V30 14 1 6 14
M  V30 15 1 8 15
M  V30 16 1 8 16
M  V30 17 1 9 17
M  V30 18 1 9 18
M  V30 END BOND
M  V30 END CTAB
M  END
