
     RDKit          3D

  0  0  0  0  0  0  0  0  0  0999 V3000
M  V30 BEGIN CTAB
M  V30 COUNTS 29 30 0 0 0
M  V30 BEGIN ATOM
M  V30 1 C -2.31672 -1.21807 1.58409 0
M  V30 2 C -1.45714 -0.095921 1.00856 0
M  V30 3 C -2.42197 0.968277 0.515242 0
M  V30 4 C -2.64173 0.64629 -0.950331 0
M  V30 5 C -1.36119 -0.00938287 -1.41438 0
M  V30 6 C -0.707635 -0.598911 -0.1784 0
M  V30 7 C 0.720468 -0.214013 -0.181095 0
M  V30 8 N 1.15523 1.04034 -0.125434 0
M  V30 9 C 2.47153 1.29912 -0.132679 0
M  V30 10 N 3.01187 2.60266 -0.0761866 0
M  V30 11 N 3.37702 0.284191 -0.196914 0
M  V30 12 C 2.96065 -0.991729 -0.253926 0
M  V30 13 N 1.64111 -1.19157 -0.2437 0
M  V30 14 N 3.9077 -2.06002 -0.321454 0
M  V30 15 H -2.85359 -1.70253 0.764616 0
M  V30 16 H -1.70464 -1.97372 2.09714 0
M  V30 17 H -3.04448 -0.826629 2.32393 0
M  V30 18 H -0.821293 0.263242 1.83053 0
M  V30 19 H -1.98231 1.99603 0.641695 0
M  V30 20 H -3.39366 0.912079 1.04684 0
M  V30 21 H -3.48655 -0.0632073 -1.06134 0
M  V30 22 H -2.83883 1.52117 -1.56782 0
M  V30 23 H -1.62533 -0.822336 -2.15045 0
M  V30 24 H -0.684007 0.672318 -1.93553 0
M  V30 25 H -0.790564 -1.69686 -0.23179 0
M  V30 26 H 2.93803 3.21545 -0.896079 0
M  V30 27 H 3.47079 2.91582 0.787039 0
M  V30 28 H 4.49762 -2.16858 -1.17086 0
M  V30 29 H 3.97963 -2.70352 0.488698 0
M  V30 END ATOM
M  V30 BEGIN BOND
M  V30 1 1 1 2
M  V30 2 1 2 3
M  V30 3 1 3 4
M  V30 4 1 4 5
M  V30 5 1 5 6
M  V30 6 1 6 7
M  V30 7 2 7 8
M  V30 8 1 8 9
M  V30 9 1 9 10
M  V30 10 2 9 11
M  V30 11 1 11 12
M  V30 12 2 12 13
M  V30 13 1 12 14
M  V30 14 1 6 2
M  V30 15 1 13 7
M  V30 16 1 1 15
M  V30 17 1 1 16
M  V30 18 1 1 17
M  V30 19 1 2 18
M  V30 20 1 3 19
M  V30 21 1 3 20
M  V30 22 1 4 21
M  V30 23 1 4 22
M  V30 24 1 5 23
M  V30 25 1 5 24
M  V30 26 1 6 25
M  V30 27 1 10 26
M  V30 28 1 10 27
M  V30 29 1 14 28
M  V30 30 1 14 29
M  V30 END BOND
M  V30 END CTAB
M  END
