
     RDKit          3D

  0  0  0  0  0  0  0  0  0  0999 V3000
M  V30 BEGIN CTAB
M  V30 COUNTS 40 39 0 0 0
M  V30 BEGIN ATOM
M  V30 1 C -3.86331 2.84044 -0.327716 0
M  V30 2 C -3.99567 1.35447 -0.436363 0
M  V30 3 C -2.72458 0.66678 0.0582778 0
M  V30 4 C -2.86338 -0.842088 -0.0539291 0
M  V30 5 C -1.58376 -1.47847 0.445939 0
M  V30 6 N -0.450414 -1.0491 -0.331754 0
M  V30 7 C 0.693229 -0.456955 0.267723 0
M  V30 8 O 0.692674 -0.311736 1.53562 0
M  V30 9 C 1.84951 -0.0223787 -0.55665 0
M  V30 10 C 2.92529 0.570146 0.314781 0
M  V30 11 C 4.12078 1.03056 -0.441647 0
M  V30 12 N 4.78844 0.0105089 -1.18278 0
M  V30 13 C 5.12225 1.57219 0.583369 0
M  V30 14 C -1.73568 -2.98297 0.189475 0
M  V30 15 N -1.91659 -3.19674 -1.22839 0
M  V30 16 H -3.68 3.11662 0.732199 0
M  V30 17 H -4.81048 3.29682 -0.685787 0
M  V30 18 H -3.05681 3.18866 -0.997356 0
M  V30 19 H -4.19586 1.06059 -1.48189 0
M  V30 20 H -4.84832 0.991709 0.18835 0
M  V30 21 H -1.87743 0.975844 -0.583185 0
M  V30 22 H -2.51786 0.938467 1.11027 0
M  V30 23 H -2.95719 -1.12771 -1.12432 0
M  V30 24 H -3.71768 -1.22307 0.519744 0
M  V30 25 H -1.45308 -1.29423 1.52863 0
M  V30 26 H -0.468146 -1.17571 -1.36429 0
M  V30 27 H 1.45667 0.762906 -1.25901 0
M  V30 28 H 2.18076 -0.879565 -1.15104 0
M  V30 29 H 2.48252 1.44355 0.837302 0
M  V30 30 H 3.17655 -0.16569 1.09792 0
M  V30 31 H 3.84395 1.84129 -1.14596 0
M  V30 32 H 5.66914 0.434214 -1.57819 0
M  V30 33 H 5.11111 -0.789129 -0.591764 0
M  V30 34 H 6.16307 1.27381 0.312269 0
M  V30 35 H 4.98923 2.66144 0.66725 0
M  V30 36 H 4.91535 1.14242 1.57933 0
M  V30 37 H -2.60983 -3.33829 0.76243 0
M  V30 38 H -0.829245 -3.51427 0.540084 0
M  V30 39 H -1.16094 -3.7361 -1.67114 0
M  V30 40 H -2.86427 -3.58923 -1.42879 0
M  V30 END ATOM
M  V30 BEGIN BOND
M  V30 1 1 1 2
M  V30 2 1 2 3
M  V30 3 1 3 4
M  V30 4 1 4 5
M  V30 5 1 5 6
M  V30 6 1 6 7
M  V30 7 2 7 8
M  V30 8 1 7 9
M  V30 9 1 9 10
M  V30 10 1 10 11
M  V30 11 1 11 12
M  V30 12 1 11 13
M  V30 13 1 5 14
M  V30 14 1 14 15
M  V30 15 1 1 16
M  V30 16 1 1 17
M  V30 17 1 1 18
M  V30 18 1 2 19
M  V30 19 1 2 20
M  V30 20 1 3 21
M  V30 21 1 3 22
M  V30 22 1 4 23
M  V30 23 1 4 24
M  V30 24 1 5 25
M  V30 25 1 6 26
M  V30 26 1 9 27
M  V30 27 1 9 28
M  V30 28 1 10 29
M  V30 29 1 10 30
M  V30 30 1 11 31
M  V30 31 1 12 32
M  V30 32 1 12 33
M  V30 33 1 13 34
M  V30 34 1 13 35
M  V30 35 1 13 36
M  V30 36 1 14 37
M  V30 37 1 14 38
M  V30 38 1 15 39
M  V30 39 1 15 40
M  V30 END BOND
M  V30 END CTAB
M  END
