
     RDKit          3D

  0  0  0  0  0  0  0  0  0  0999 V3000
M  V30 BEGIN CTAB
M  V30 COUNTS 25 26 0 0 0
M  V30 BEGIN ATOM
M  V30 1 C -2.98908 -0.911626 -0.17995 0
M  V30 2 C -1.68566 -0.110671 -0.105646 0
M  V30 3 C -1.87524 1.34276 0.11754 0
M  V30 4 C -1.36447 0.432226 1.24342 0
M  V30 5 C -0.62058 -0.640416 -0.990082 0
M  V30 6 C 0.646638 0.100642 -0.934554 0
M  V30 7 N 0.931117 1.17834 -1.68059 0
M  V30 8 N 2.15528 1.53911 -1.35853 0
M  V30 9 C 2.6427 0.706302 -0.424063 0
M  V30 10 N 1.69163 -0.205974 -0.152742 0
M  V30 11 N 1.81691 -1.27724 0.778064 0
M  V30 12 N 3.91234 0.71515 0.211827 0
M  V30 13 H -3.30074 -0.964654 -1.22489 0
M  V30 14 H -3.72487 -0.407346 0.447067 0
M  V30 15 H -2.772 -1.92091 0.26877 0
M  V30 16 H -1.14577 2.08986 -0.18944 0
M  V30 17 H -2.90786 1.74651 0.202548 0
M  V30 18 H -2.12944 0.311693 2.06924 0
M  V30 19 H -0.359606 0.600161 1.62238 0
M  V30 20 H -0.937079 -0.650073 -2.07486 0
M  V30 21 H -0.412115 -1.72908 -0.775239 0
M  V30 22 H 2.43334 -2.09788 0.590122 0
M  V30 23 H 1.29823 -1.28302 1.68219 0
M  V30 24 H 3.93996 0.805534 1.245 0
M  V30 25 H 4.75637 0.630595 -0.387576 0
M  V30 END ATOM
M  V30 BEGIN BOND
M  V30 1 1 1 2
M  V30 2 1 2 3
M  V30 3 1 3 4
M  V30 4 1 2 5
M  V30 5 1 5 6
M  V30 6 2 6 7
M  V30 7 1 7 8
M  V30 8 2 8 9
M  V30 9 1 9 10
M  V30 10 1 10 11
M  V30 11 1 9 12
M  V30 12 1 4 2
M  V30 13 1 10 6
M  V30 14 1 1 13
M  V30 15 1 1 14
M  V30 16 1 1 15
M  V30 17 1 3 16
M  V30 18 1 3 17
M  V30 19 1 4 18
M  V30 20 1 4 19
M  V30 21 1 5 20
M  V30 22 1 5 21
M  V30 23 1 11 22
M  V30 24 1 11 23
M  V30 25 1 12 24
M  V30 26 1 12 25
M  V30 END BOND
M  V30 END CTAB
M  END
