
     RDKit          3D

  0  0  0  0  0  0  0  0  0  0999 V3000
M  V30 BEGIN CTAB
M  V30 COUNTS 41 43 0 0 0
M  V30 BEGIN ATOM
M  V30 1 N 5.96209 -0.727624 1.14305 0
M  V30 2 C 4.85812 -0.0079603 0.618819 0
M  V30 3 C 5.14195 0.994821 -0.302625 0
M  V30 4 C 4.06393 1.69072 -0.808447 0
M  V30 5 C 2.76065 1.43466 -0.444151 0
M  V30 6 C 2.48075 0.440885 0.468874 0
M  V30 7 C 3.55621 -0.264293 0.983211 0
M  V30 8 C 1.10795 0.119761 0.898314 0
M  V30 9 N 0.524721 -1.01271 0.216781 0
M  V30 10 C -0.820562 -1.19796 0.765996 0
M  V30 11 C -1.79503 -1.03497 -0.351631 0 CFG=2
M  V30 12 C -1.001 -0.138345 -1.31154 0 CFG=1
M  V30 13 C 0.366781 -0.825934 -1.19197 0
M  V30 14 N -1.51485 -0.186688 -2.64297 0
M  V30 15 C -3.06499 -0.424716 0.036207 0
M  V30 16 C -3.10443 0.778819 0.705076 0
M  V30 17 C -4.33001 1.33049 1.05872 0
M  V30 18 C -5.53247 0.692075 0.751589 0
M  V30 19 C -5.4831 -0.512461 0.0817801 0
M  V30 20 C -4.25162 -1.05536 -0.267232 0
M  V30 21 H 5.96814 -1.75409 1.28679 0
M  V30 22 H 6.81316 -0.191022 1.39684 0
M  V30 23 H 6.15888 1.21637 -0.606222 0
M  V30 24 H 4.29559 2.48447 -1.53854 0
M  V30 25 H 1.97425 2.01335 -0.876306 0
M  V30 26 H 3.40485 -1.06315 1.70944 0
M  V30 27 H 0.435357 0.997592 0.758047 0
M  V30 28 H 1.0841 -0.119374 1.98941 0
M  V30 29 H -0.876544 -2.22602 1.21984 0
M  V30 30 H -1.01874 -0.503651 1.61022 0
M  V30 31 H -1.91597 -1.99682 -0.880595 0
M  V30 32 H -0.867694 0.869006 -0.90089 0
M  V30 33 H 1.15656 -0.266664 -1.69978 0
M  V30 34 H 0.204151 -1.83508 -1.67407 0
M  V30 35 H -0.783348 0.06089 -3.33084 0
M  V30 36 H -2.26049 0.54606 -2.72324 0
M  V30 37 H -2.15581 1.24725 0.92784 0
M  V30 38 H -4.35433 2.28535 1.58911 0
M  V30 39 H -6.48666 1.13186 1.03263 0
M  V30 40 H -6.42627 -0.98961 -0.146034 0
M  V30 41 H -4.27427 -1.99992 -0.79007 0
M  V30 END ATOM
M  V30 BEGIN BOND
M  V30 1 1 1 2
M  V30 2 2 2 3
M  V30 3 1 3 4
M  V30 4 2 4 5
M  V30 5 1 5 6
M  V30 6 2 6 7
M  V30 7 1 6 8
M  V30 8 1 8 9
M  V30 9 1 9 10
M  V30 10 1 10 11
M  V30 11 1 11 12
M  V30 12 1 12 13
M  V30 13 1 12 14
M  V30 14 1 11 15
M  V30 15 2 15 16
M  V30 16 1 16 17
M  V30 17 2 17 18
M  V30 18 1 18 19
M  V30 19 2 19 20
M  V30 20 1 7 2
M  V30 21 1 13 9
M  V30 22 1 20 15
M  V30 23 1 1 21
M  V30 24 1 1 22
M  V30 25 1 3 23
M  V30 26 1 4 24
M  V30 27 1 5 25
M  V30 28 1 7 26
M  V30 29 1 8 27
M  V30 30 1 8 28
M  V30 31 1 10 29
M  V30 32 1 10 30
M  V30 33 1 11 31 CFG=3
M  V30 34 1 12 32 CFG=1
M  V30 35 1 13 33
M  V30 36 1 13 34
M  V30 37 1 14 35
M  V30 38 1 14 36
M  V30 39 1 16 37
M  V30 40 1 17 38
M  V30 41 1 18 39
M  V30 42 1 19 40
M  V30 43 1 20 41
M  V30 END BOND
M  V30 END CTAB
M  END
