
     RDKit          3D

  0  0  0  0  0  0  0  0  0  0999 V3000
M  V30 BEGIN CTAB
M  V30 COUNTS 44 46 0 0 0
M  V30 BEGIN ATOM
M  V30 1 N -4.93072 1.9849 2.1322 0
M  V30 2 C -4.81733 0.797772 1.3337 0
M  V30 3 C -5.96104 0.109031 0.990585 0
M  V30 4 C -5.89383 -1.03432 0.225426 0
M  V30 5 C -4.6829 -1.50332 -0.206007 0
M  V30 6 C -3.54767 -0.79375 0.151971 0
M  V30 7 C -3.5719 0.347059 0.910798 0
M  V30 8 O -2.42933 1.01814 1.24941 0
M  V30 9 C -1.11998 0.771835 0.928438 0
M  V30 10 C -0.766864 0.925608 -0.498175 0
M  V30 11 C 0.528991 0.611086 -0.908725 0
M  V30 12 C 1.4667 0.0882582 0.109199 0
M  V30 13 O 2.73082 -0.184096 -0.44586 0
M  V30 14 C 3.80174 -0.675081 0.244253 0
M  V30 15 C 4.98639 -0.896859 -0.424494 0
M  V30 16 N 5.13913 -0.629617 -1.82844 0
M  V30 17 C 6.05321 -1.39332 0.295446 0
M  V30 18 C 5.99505 -1.67813 1.64614 0
M  V30 19 C 4.80252 -1.45189 2.30624 0
M  V30 20 C 3.72292 -0.953981 1.5975 0
M  V30 21 C 0.980013 0.75862 -2.19538 0
M  V30 22 C 0.119698 1.24383 -3.15293 0
M  V30 23 C -1.16753 1.56926 -2.8003 0
M  V30 24 C -1.59031 1.40625 -1.48138 0
M  V30 25 H -5.84877 2.33432 2.41996 0
M  V30 26 H -4.0622 2.47652 2.40831 0
M  V30 27 H -6.95294 0.461351 1.3228 0
M  V30 28 H -6.82062 -1.54661 -0.0223993 0
M  V30 29 H -4.61611 -2.4011 -0.808399 0
M  V30 30 H -2.61643 -1.2352 -0.222999 0
M  V30 31 H -0.8643 -0.285029 1.2726 0
M  V30 32 H -0.402711 1.38709 1.56458 0
M  V30 33 H 0.988075 -0.824921 0.5402 0
M  V30 34 H 1.60801 0.790932 0.95344 0
M  V30 35 H 5.41132 -1.37778 -2.49793 0
M  V30 36 H 4.973 0.333006 -2.17651 0
M  V30 37 H 6.98655 -1.56301 -0.253876 0
M  V30 38 H 6.8621 -2.07215 2.18884 0
M  V30 39 H 4.74467 -1.67065 3.36235 0
M  V30 40 H 2.78357 -0.776884 2.12184 0
M  V30 41 H 1.97999 0.516533 -2.51525 0
M  V30 42 H 0.452643 1.37127 -4.1875 0
M  V30 43 H -1.84341 1.94823 -3.54261 0
M  V30 44 H -2.61024 1.69678 -1.22235 0
M  V30 END ATOM
M  V30 BEGIN BOND
M  V30 1 1 1 2
M  V30 2 2 2 3
M  V30 3 1 3 4
M  V30 4 2 4 5
M  V30 5 1 5 6
M  V30 6 2 6 7
M  V30 7 1 7 8
M  V30 8 1 8 9
M  V30 9 1 9 10
M  V30 10 1 10 11
M  V30 11 1 11 12
M  V30 12 1 12 13
M  V30 13 1 13 14
M  V30 14 2 14 15
M  V30 15 1 15 16
M  V30 16 1 15 17
M  V30 17 2 17 18
M  V30 18 1 18 19
M  V30 19 2 19 20
M  V30 20 2 11 21
M  V30 21 1 21 22
M  V30 22 2 22 23
M  V30 23 1 23 24
M  V30 24 1 7 2
M  V30 25 2 24 10
M  V30 26 1 20 14
M  V30 27 1 1 25
M  V30 28 1 1 26
M  V30 29 1 3 27
M  V30 30 1 4 28
M  V30 31 1 5 29
M  V30 32 1 6 30
M  V30 33 1 9 31
M  V30 34 1 9 32
M  V30 35 1 12 33
M  V30 36 1 12 34
M  V30 37 1 16 35
M  V30 38 1 16 36
M  V30 39 1 17 37
M  V30 40 1 18 38
M  V30 41 1 19 39
M  V30 42 1 20 40
M  V30 43 1 21 41
M  V30 44 1 22 42
M  V30 45 1 23 43
M  V30 46 1 24 44
M  V30 END BOND
M  V30 END CTAB
M  END
