
     RDKit          3D

  0  0  0  0  0  0  0  0  0  0999 V3000
M  V30 BEGIN CTAB
M  V30 COUNTS 42 43 0 0 0
M  V30 BEGIN ATOM
M  V30 1 N -5.9567 0.759321 -2.54351 0
M  V30 2 C -4.50853 0.995358 -2.43183 0
M  V30 3 C -4.17057 0.790086 -1.00311 0
M  V30 4 C -4.22914 1.87834 -0.164806 0
M  V30 5 C -3.92782 1.77695 1.19133 0
M  V30 6 C -3.5632 0.543416 1.68709 0
M  V30 7 C -3.4876 -0.598099 0.876588 0
M  V30 8 C -3.80347 -0.425975 -0.477118 0
M  V30 9 C -3.12611 -1.88069 1.45683 0
M  V30 10 N -1.73065 -2.12947 1.49938 0
M  V30 11 C -0.741735 -1.31008 0.990946 0
M  V30 12 O -0.95166 -0.235274 0.422607 0
M  V30 13 C 0.669745 -1.71765 1.11943 0
M  V30 14 O 0.972442 -2.80638 1.68946 0
M  V30 15 N 1.7111 -0.898982 0.607741 0
M  V30 16 C 3.05604 -1.32986 0.753291 0
M  V30 17 O 3.30884 -2.44078 1.34249 0
M  V30 18 C 4.12126 -0.505137 0.233187 0
M  V30 19 C 3.84775 0.580648 -0.555467 0
M  V30 20 C 4.88193 1.38408 -1.05792 0
M  V30 21 C 6.16322 1.02383 -0.718314 0
M  V30 22 C 6.47031 -0.0492829 0.063372 0
M  V30 23 C 5.43696 -0.824911 0.546222 0
M  V30 24 N 7.21592 1.84996 -1.23562 0
M  V30 25 H -6.06101 -0.295798 -2.56012 0
M  V30 26 H -6.42927 1.04319 -1.63427 0
M  V30 27 H -4.03094 0.260174 -3.1032 0
M  V30 28 H -4.27309 2.04493 -2.70762 0
M  V30 29 H -4.51511 2.8627 -0.536253 0
M  V30 30 H -3.98562 2.65826 1.81979 0
M  V30 31 H -3.32978 0.468389 2.74041 0
M  V30 32 H -3.75474 -1.27342 -1.11446 0
M  V30 33 H -3.47913 -1.87434 2.53774 0
M  V30 34 H -3.69889 -2.70037 0.94196 0
M  V30 35 H -1.38809 -3.04704 1.97319 0
M  V30 36 H 1.4187 -0.0184334 0.149754 0
M  V30 37 H 2.85294 0.888868 -0.842969 0
M  V30 38 H 4.60727 2.21816 -1.66788 0
M  V30 39 H 7.51524 -0.281129 0.296327 0
M  V30 40 H 5.70324 -1.67116 1.16436 0
M  V30 41 H 7.53145 1.72661 -2.22172 0
M  V30 42 H 7.6585 2.56101 -0.638386 0
M  V30 END ATOM
M  V30 BEGIN BOND
M  V30 1 1 1 2
M  V30 2 1 2 3
M  V30 3 2 3 4
M  V30 4 1 4 5
M  V30 5 2 5 6
M  V30 6 1 6 7
M  V30 7 2 7 8
M  V30 8 1 7 9
M  V30 9 1 9 10
M  V30 10 1 10 11
M  V30 11 2 11 12
M  V30 12 1 11 13
M  V30 13 2 13 14
M  V30 14 1 13 15
M  V30 15 1 15 16
M  V30 16 2 16 17
M  V30 17 1 16 18
M  V30 18 2 18 19
M  V30 19 1 19 20
M  V30 20 2 20 21
M  V30 21 1 21 22
M  V30 22 2 22 23
M  V30 23 1 21 24
M  V30 24 1 8 3
M  V30 25 1 23 18
M  V30 26 1 1 25
M  V30 27 1 1 26
M  V30 28 1 2 27
M  V30 29 1 2 28
M  V30 30 1 4 29
M  V30 31 1 5 30
M  V30 32 1 6 31
M  V30 33 1 8 32
M  V30 34 1 9 33
M  V30 35 1 9 34
M  V30 36 1 10 35
M  V30 37 1 15 36
M  V30 38 1 19 37
M  V30 39 1 20 38
M  V30 40 1 22 39
M  V30 41 1 23 40
M  V30 42 1 24 41
M  V30 43 1 24 42
M  V30 END BOND
M  V30 END CTAB
M  END
