
     RDKit          3D

  0  0  0  0  0  0  0  0  0  0999 V3000
M  V30 BEGIN CTAB
M  V30 COUNTS 21 21 0 0 0
M  V30 BEGIN ATOM
M  V30 1 Cl -2.76228 -3.90496 0.706259 0
M  V30 2 C -2.26177 -2.253 0.505455 0
M  V30 3 C -0.918854 -1.87823 0.509586 0
M  V30 4 C -0.532634 -0.566165 0.349641 0
M  V30 5 N 0.854399 -0.235269 0.361439 0
M  V30 6 N 1.31618 1.07124 0.205207 0
M  V30 7 S 2.82029 1.08497 -0.624384 0
M  V30 8 O 2.8804 2.3538 -1.42984 0
M  V30 9 O 2.934 -0.0976124 -1.54829 0
M  V30 10 N 4.13268 0.983414 0.490812 0
M  V30 11 N -1.49448 0.355791 0.187414 0
M  V30 12 C -2.81094 0.0287526 0.177967 0
M  V30 13 N -3.15204 -1.26516 0.337304 0
M  V30 14 N -3.83396 0.990547 0.00795734 0
M  V30 15 H -0.188556 -2.65097 0.642487 0
M  V30 16 H 1.57088 -0.978032 0.489855 0
M  V30 17 H 0.59479 1.6805 -0.238897 0
M  V30 18 H 4.99176 0.641713 0.0153984 0
M  V30 19 H 4.2907 1.88124 0.99463 0
M  V30 20 H -3.74885 1.90049 0.503956 0
M  V30 21 H -4.68171 0.85693 -0.585888 0
M  V30 END ATOM
M  V30 BEGIN BOND
M  V30 1 1 1 2
M  V30 2 2 2 3
M  V30 3 1 3 4
M  V30 4 1 4 5
M  V30 5 1 5 6
M  V30 6 1 6 7
M  V30 7 2 7 8
M  V30 8 2 7 9
M  V30 9 1 7 10
M  V30 10 2 4 11
M  V30 11 1 11 12
M  V30 12 2 12 13
M  V30 13 1 12 14
M  V30 14 1 13 2
M  V30 15 1 3 15
M  V30 16 1 5 16
M  V30 17 1 6 17
M  V30 18 1 10 18
M  V30 19 1 10 19
M  V30 20 1 14 20
M  V30 21 1 14 21
M  V30 END BOND
M  V30 END CTAB
M  END
