
     RDKit          3D

  0  0  0  0  0  0  0  0  0  0999 V3000
M  V30 BEGIN CTAB
M  V30 COUNTS 41 41 0 0 0
M  V30 BEGIN ATOM
M  V30 1 N 3.99792 -1.75362 1.23856 0
M  V30 2 C 4.14828 -0.331742 1.04435 0
M  V30 3 C 2.91582 0.278724 0.391566 0
M  V30 4 C 2.6442 -0.322006 -0.94609 0
M  V30 5 C 1.46335 0.24098 -1.65799 0
M  V30 6 N 0.198214 0.0872883 -0.898252 0
M  V30 7 C -0.174263 1.20642 -0.100919 0
M  V30 8 C -1.0483 2.19765 -0.858402 0
M  V30 9 C -1.40382 3.35454 0.0509457 0
M  V30 10 N -2.2329 4.3219 -0.623739 0
M  V30 11 C -0.459167 -1.12065 -1.08791 0
M  V30 12 O 0.1682 -1.93452 -1.91993 0
M  V30 13 C -1.67842 -1.67233 -0.569193 0
M  V30 14 C -2.07894 -2.97208 -0.940685 0
M  V30 15 C -3.22328 -3.56891 -0.497297 0
M  V30 16 C -4.07327 -2.92008 0.359364 0
M  V30 17 C -3.7203 -1.65408 0.744841 0
M  V30 18 C -2.54584 -1.04676 0.287127 0
M  V30 19 H 4.80372 -2.06523 1.82843 0
M  V30 20 H 4.06771 -2.22286 0.308361 0
M  V30 21 H 4.32048 0.2144 1.98811 0
M  V30 22 H 4.99857 -0.110026 0.374196 0
M  V30 23 H 2.02949 0.152676 1.0759 0
M  V30 24 H 3.11391 1.35746 0.282024 0
M  V30 25 H 3.57951 -0.188304 -1.54712 0
M  V30 26 H 2.52512 -1.44473 -0.872786 0
M  V30 27 H 1.64766 1.32027 -1.88309 0
M  V30 28 H 1.34509 -0.248981 -2.64463 0
M  V30 29 H -0.511042 1.01793 0.916833 0
M  V30 30 H 0.791231 1.83307 0.052267 0
M  V30 31 H -0.52334 2.61211 -1.72138 0
M  V30 32 H -1.9889 1.68776 -1.13872 0
M  V30 33 H -0.50326 3.87912 0.417084 0
M  V30 34 H -1.91578 2.94643 0.968636 0
M  V30 35 H -1.92439 5.29786 -0.416099 0
M  V30 36 H -2.12432 4.22655 -1.676 0
M  V30 37 H -1.40856 -3.49748 -1.62229 0
M  V30 38 H -3.46828 -4.56983 -0.823946 0
M  V30 39 H -4.99672 -3.39428 0.720861 0
M  V30 40 H -4.37553 -1.13135 1.4161 0
M  V30 41 H -2.37987 -0.0632692 0.650042 0
M  V30 END ATOM
M  V30 BEGIN BOND
M  V30 1 1 1 2
M  V30 2 1 2 3
M  V30 3 1 3 4
M  V30 4 1 4 5
M  V30 5 1 5 6
M  V30 6 1 6 7
M  V30 7 1 7 8
M  V30 8 1 8 9
M  V30 9 1 9 10
M  V30 10 1 6 11
M  V30 11 2 11 12
M  V30 12 1 11 13
M  V30 13 2 13 14
M  V30 14 1 14 15
M  V30 15 2 15 16
M  V30 16 1 16 17
M  V30 17 2 17 18
M  V30 18 1 18 13
M  V30 19 1 1 19
M  V30 20 1 1 20
M  V30 21 1 2 21
M  V30 22 1 2 22
M  V30 23 1 3 23
M  V30 24 1 3 24
M  V30 25 1 4 25
M  V30 26 1 4 26
M  V30 27 1 5 27
M  V30 28 1 5 28
M  V30 29 1 7 29
M  V30 30 1 7 30
M  V30 31 1 8 31
M  V30 32 1 8 32
M  V30 33 1 9 33
M  V30 34 1 9 34
M  V30 35 1 10 35
M  V30 36 1 10 36
M  V30 37 1 14 37
M  V30 38 1 15 38
M  V30 39 1 16 39
M  V30 40 1 17 40
M  V30 41 1 18 41
M  V30 END BOND
M  V30 END CTAB
M  END
