
     RDKit          3D

  0  0  0  0  0  0  0  0  0  0999 V3000
M  V30 BEGIN CTAB
M  V30 COUNTS 26 26 0 0 0
M  V30 BEGIN ATOM
M  V30 1 N 3.19334 1.77974 0.312236 0
M  V30 2 C 3.1247 0.389952 -0.0916366 0
M  V30 3 C 1.6875 0.0270646 -0.451704 0
M  V30 4 S 0.636713 0.290443 0.995069 0
M  V30 5 C -1.04926 -0.122393 0.635739 0
M  V30 6 C -1.91054 0.844292 0.121421 0
M  V30 7 N -1.38301 2.14531 -0.0998034 0
M  V30 8 C -3.21073 0.481776 -0.138988 0
M  V30 9 C -3.65893 -0.800622 0.0990715 0
M  V30 10 C -2.80864 -1.75883 0.607981 0
M  V30 11 C -1.48561 -1.41505 0.880181 0
M  V30 12 Cl -0.414025 -2.64706 1.53554 0
M  V30 13 C 1.67606 -1.37865 -0.956073 0
M  V30 14 H 3.68912 1.82806 1.22888 0
M  V30 15 H 2.23367 2.11876 0.461403 0
M  V30 16 H 3.51191 -0.25953 0.708744 0
M  V30 17 H 3.77411 0.251581 -0.999221 0
M  V30 18 H 1.38601 0.709224 -1.28709 0
M  V30 19 H -0.477887 2.35083 -0.546914 0
M  V30 20 H -1.97173 2.94632 0.222381 0
M  V30 21 H -3.88128 1.25369 -0.544917 0
M  V30 22 H -4.69133 -1.03595 -0.122598 0
M  V30 23 H -3.14083 -2.77267 0.802367 0
M  V30 24 H 2.32576 -1.43677 -1.87802 0
M  V30 25 H 0.689911 -1.73393 -1.2814 0
M  V30 26 H 2.15499 -2.0556 -0.212648 0
M  V30 END ATOM
M  V30 BEGIN BOND
M  V30 1 1 1 2
M  V30 2 1 2 3
M  V30 3 1 3 4
M  V30 4 1 4 5
M  V30 5 2 5 6
M  V30 6 1 6 7
M  V30 7 1 6 8
M  V30 8 2 8 9
M  V30 9 1 9 10
M  V30 10 2 10 11
M  V30 11 1 11 12
M  V30 12 1 3 13
M  V30 13 1 11 5
M  V30 14 1 1 14
M  V30 15 1 1 15
M  V30 16 1 2 16
M  V30 17 1 2 17
M  V30 18 1 3 18
M  V30 19 1 7 19
M  V30 20 1 7 20
M  V30 21 1 8 21
M  V30 22 1 9 22
M  V30 23 1 10 23
M  V30 24 1 13 24
M  V30 25 1 13 25
M  V30 26 1 13 26
M  V30 END BOND
M  V30 END CTAB
M  END
