
     RDKit          3D

  0  0  0  0  0  0  0  0  0  0999 V3000
M  V30 BEGIN CTAB
M  V30 COUNTS 47 47 0 0 0
M  V30 BEGIN ATOM
M  V30 1 C -3.06992 -1.22346 1.5337 0
M  V30 2 C -4.04764 -0.524873 0.670868 0
M  V30 3 C -3.68113 -0.256515 -0.738798 0
M  V30 4 C -2.49933 0.586671 -1.00697 0
M  V30 5 N -1.22423 0.100849 -0.531035 0
M  V30 6 C -0.0375456 0.878795 -0.733178 0
M  V30 7 O -0.0959902 1.99679 -1.33243 0
M  V30 8 C 1.25539 0.448731 -0.281542 0
M  V30 9 C 1.37568 -0.532867 0.667588 0
M  V30 10 C 2.62359 -0.97155 1.11512 0
M  V30 11 C 2.7256 -2.03086 2.13849 0
M  V30 12 C 3.75611 -0.401703 0.587973 0
M  V30 13 C 3.66507 0.582058 -0.362345 0
M  V30 14 C 2.42899 0.996166 -0.786111 0
M  V30 15 S 5.09519 1.3184 -1.04391 0
M  V30 16 O 4.70935 2.37177 -2.04014 0
M  V30 17 O 5.96823 0.298376 -1.73933 0
M  V30 18 N 6.06584 2.08617 0.15736 0
M  V30 19 C 5.12623 -0.833779 1.03159 0
M  V30 20 C -4.8628 0.299414 -1.53665 0
M  V30 21 C -5.37044 1.58692 -0.965548 0
M  V30 22 N -3.42906 -1.57739 -1.36275 0
M  V30 23 H -2.64876 -2.15685 1.10949 0
M  V30 24 H -3.64937 -1.5758 2.44508 0
M  V30 25 H -2.30611 -0.545307 1.96634 0
M  V30 26 H -4.31572 0.434044 1.22434 0
M  V30 27 H -5.04759 -1.0682 0.656788 0
M  V30 28 H -2.62383 1.64625 -0.64054 0
M  V30 29 H -2.36127 0.737137 -2.12274 0
M  V30 30 H -1.08346 -0.804667 -0.0544083 0
M  V30 31 H 0.489281 -1.00762 1.11513 0
M  V30 32 H 3.12507 -1.64901 3.08786 0
M  V30 33 H 1.70726 -2.42412 2.35367 0
M  V30 34 H 3.32449 -2.90694 1.77929 0
M  V30 35 H 2.32652 1.77824 -1.54219 0
M  V30 36 H 5.98915 3.11024 0.142799 0
M  V30 37 H 7.04471 1.76621 0.135083 0
M  V30 38 H 4.98415 -1.70254 1.71882 0
M  V30 39 H 5.68259 -1.24503 0.158715 0
M  V30 40 H 5.65918 -0.0464139 1.57102 0
M  V30 41 H -5.69645 -0.419152 -1.58163 0
M  V30 42 H -4.53974 0.483348 -2.58186 0
M  V30 43 H -4.5835 2.17406 -0.434742 0
M  V30 44 H -5.73443 2.22348 -1.79031 0
M  V30 45 H -6.25588 1.41142 -0.304337 0
M  V30 46 H -3.42087 -1.43058 -2.38809 0
M  V30 47 H -2.54261 -1.9803 -0.992275 0
M  V30 END ATOM
M  V30 BEGIN BOND
M  V30 1 1 1 2
M  V30 2 1 2 3
M  V30 3 1 3 4
M  V30 4 1 4 5
M  V30 5 1 5 6
M  V30 6 2 6 7
M  V30 7 1 6 8
M  V30 8 2 8 9
M  V30 9 1 9 10
M  V30 10 1 10 11
M  V30 11 2 10 12
M  V30 12 1 12 13
M  V30 13 2 13 14
M  V30 14 1 13 15
M  V30 15 2 15 16
M  V30 16 2 15 17
M  V30 17 1 15 18
M  V30 18 1 12 19
M  V30 19 1 3 20
M  V30 20 1 20 21
M  V30 21 1 3 22
M  V30 22 1 14 8
M  V30 23 1 1 23
M  V30 24 1 1 24
M  V30 25 1 1 25
M  V30 26 1 2 26
M  V30 27 1 2 27
M  V30 28 1 4 28
M  V30 29 1 4 29
M  V30 30 1 5 30
M  V30 31 1 9 31
M  V30 32 1 11 32
M  V30 33 1 11 33
M  V30 34 1 11 34
M  V30 35 1 14 35
M  V30 36 1 18 36
M  V30 37 1 18 37
M  V30 38 1 19 38
M  V30 39 1 19 39
M  V30 40 1 19 40
M  V30 41 1 20 41
M  V30 42 1 20 42
M  V30 43 1 21 43
M  V30 44 1 21 44
M  V30 45 1 21 45
M  V30 46 1 22 46
M  V30 47 1 22 47
M  V30 END BOND
M  V30 END CTAB
M  END
