
     RDKit          3D

  0  0  0  0  0  0  0  0  0  0999 V3000
M  V30 BEGIN CTAB
M  V30 COUNTS 19 19 0 0 0
M  V30 BEGIN ATOM
M  V30 1 F -2.52772 0.538271 1.1543 0
M  V30 2 C -1.73282 0.955756 0.103538 0
M  V30 3 C -0.462123 0.229205 0.024494 0
M  V30 4 C -0.413145 -1.13787 -0.147032 0
M  V30 5 N -1.63541 -1.84338 -0.247689 0
M  V30 6 C 0.820571 -1.79799 -0.218075 0
M  V30 7 C 1.98471 -1.06427 -0.114425 0
M  V30 8 C 1.95745 0.298804 0.0568093 0
M  V30 9 C 0.726746 0.910153 0.121746 0
M  V30 10 N 0.716434 2.31956 0.298985 0
M  V30 11 Br 3.67574 -1.9354 -0.20756 0
M  V30 12 F -2.49593 0.804756 -1.05619 0
M  V30 13 F -1.53309 2.30538 0.25972 0
M  V30 14 H -2.2695 -1.87047 0.57319 0
M  V30 15 H -1.93662 -2.34047 -1.10519 0
M  V30 16 H 0.805505 -2.85853 -0.35166 0
M  V30 17 H 2.89264 0.838698 0.13386 0
M  V30 18 H 0.724955 2.95053 -0.550521 0
M  V30 19 H 0.701601 2.69726 1.27171 0
M  V30 END ATOM
M  V30 BEGIN BOND
M  V30 1 1 1 2
M  V30 2 1 2 3
M  V30 3 2 3 4
M  V30 4 1 4 5
M  V30 5 1 4 6
M  V30 6 2 6 7
M  V30 7 1 7 8
M  V30 8 2 8 9
M  V30 9 1 9 10
M  V30 10 1 7 11
M  V30 11 1 2 12
M  V30 12 1 2 13
M  V30 13 1 9 3
M  V30 14 1 5 14
M  V30 15 1 5 15
M  V30 16 1 6 16
M  V30 17 1 8 17
M  V30 18 1 10 18
M  V30 19 1 10 19
M  V30 END BOND
M  V30 END CTAB
M  END
