
     RDKit          3D

  0  0  0  0  0  0  0  0  0  0999 V3000
M  V30 BEGIN CTAB
M  V30 COUNTS 32 33 0 0 0
M  V30 BEGIN ATOM
M  V30 1 C 3.09824 -1.63156 0.27204 0
M  V30 2 C 2.72028 -0.160789 0.346275 0
M  V30 3 C 1.28783 0.0511631 0.00849251 0
M  V30 4 N 0.197926 -0.394997 0.659424 0
M  V30 5 C -0.915431 -0.00151586 0.0549392 0
M  V30 6 C -0.540786 0.738628 -1.04591 0
M  V30 7 N 0.806023 0.74779 -1.03987 0
M  V30 8 N 1.62646 1.37822 -1.97014 0
M  V30 9 N -1.39627 1.374 -2.00822 0
M  V30 10 C -2.34122 -0.245183 0.398241 0
M  V30 11 C -3.13993 1.00308 0.654262 0
M  V30 12 C -2.60594 -1.48515 1.16578 0
M  V30 13 C -3.05828 -1.35481 -0.314745 0
M  V30 14 C 3.08117 0.391364 1.69413 0
M  V30 15 H 4.21187 -1.66009 0.32796 0
M  V30 16 H 2.82476 -2.02342 -0.726177 0
M  V30 17 H 2.71165 -2.22052 1.10485 0
M  V30 18 H 3.34211 0.354131 -0.41413 0
M  V30 19 H 1.54989 2.41046 -2.06352 0
M  V30 20 H 2.27385 0.809659 -2.52815 0
M  V30 21 H -1.9061 0.844298 -2.74596 0
M  V30 22 H -1.50138 2.40604 -1.95393 0
M  V30 23 H -3.35726 1.4806 -0.316116 0
M  V30 24 H -2.59687 1.72403 1.29421 0
M  V30 25 H -4.10632 0.792202 1.16334 0
M  V30 26 H -3.42459 -1.52074 1.89676 0
M  V30 27 H -1.76141 -2.17395 1.36285 0
M  V30 28 H -4.16401 -1.27982 -0.465824 0
M  V30 29 H -2.53291 -2.00753 -1.01357 0
M  V30 30 H 3.14861 -0.405131 2.46715 0
M  V30 31 H 2.38025 1.17059 2.05785 0
M  V30 32 H 4.08778 0.888946 1.67773 0
M  V30 END ATOM
M  V30 BEGIN BOND
M  V30 1 1 1 2
M  V30 2 1 2 3
M  V30 3 2 3 4
M  V30 4 1 4 5
M  V30 5 2 5 6
M  V30 6 1 6 7
M  V30 7 1 7 8
M  V30 8 1 6 9
M  V30 9 1 5 10
M  V30 10 1 10 11
M  V30 11 1 10 12
M  V30 12 1 12 13
M  V30 13 1 2 14
M  V30 14 1 7 3
M  V30 15 1 13 10
M  V30 16 1 1 15
M  V30 17 1 1 16
M  V30 18 1 1 17
M  V30 19 1 2 18
M  V30 20 1 8 19
M  V30 21 1 8 20
M  V30 22 1 9 21
M  V30 23 1 9 22
M  V30 24 1 11 23
M  V30 25 1 11 24
M  V30 26 1 11 25
M  V30 27 1 12 26
M  V30 28 1 12 27
M  V30 29 1 13 28
M  V30 30 1 13 29
M  V30 31 1 14 30
M  V30 32 1 14 31
M  V30 33 1 14 32
M  V30 END BOND
M  V30 END CTAB
M  END
