
     RDKit          3D

  0  0  0  0  0  0  0  0  0  0999 V3000
M  V30 BEGIN CTAB
M  V30 COUNTS 20 20 0 0 0
M  V30 BEGIN ATOM
M  V30 1 N 3.29883 0.595995 -0.783173 0
M  V30 2 C 2.7129 -0.334163 0.113134 0
M  V30 3 S 3.73601 -1.21867 1.02888 0
M  V30 4 C 1.26224 -0.468357 0.18757 0
M  V30 5 C 0.672069 -1.66947 0.555815 0
M  V30 6 N -0.663672 -1.80935 0.629149 0
M  V30 7 C -1.52294 -0.799799 0.352202 0
M  V30 8 C -0.969901 0.409059 -0.017437 0
M  V30 9 C 0.400835 0.568431 -0.0973545 0
M  V30 10 C -1.89686 1.54412 -0.329729 0
M  V30 11 N -2.93086 -0.987813 0.441455 0
M  V30 12 H 3.41576 0.319439 -1.77869 0
M  V30 13 H 3.60553 1.52188 -0.476628 0
M  V30 14 H 1.31012 -2.5226 0.791969 0
M  V30 15 H 0.844792 1.51314 -0.386508 0
M  V30 16 H -2.83183 1.39952 0.244291 0
M  V30 17 H -2.1044 1.58125 -1.43864 0
M  V30 18 H -1.41788 2.49554 -0.0155497 0
M  V30 19 H -3.30768 -1.57219 1.20451 0
M  V30 20 H -3.61307 -0.565956 -0.225267 0
M  V30 END ATOM
M  V30 BEGIN BOND
M  V30 1 1 1 2
M  V30 2 2 2 3
M  V30 3 1 2 4
M  V30 4 2 4 5
M  V30 5 1 5 6
M  V30 6 2 6 7
M  V30 7 1 7 8
M  V30 8 2 8 9
M  V30 9 1 8 10
M  V30 10 1 7 11
M  V30 11 1 9 4
M  V30 12 1 1 12
M  V30 13 1 1 13
M  V30 14 1 5 14
M  V30 15 1 9 15
M  V30 16 1 10 16
M  V30 17 1 10 17
M  V30 18 1 10 18
M  V30 19 1 11 19
M  V30 20 1 11 20
M  V30 END BOND
M  V30 END CTAB
M  END
