
     RDKit          3D

  0  0  0  0  0  0  0  0  0  0999 V3000
M  V30 BEGIN CTAB
M  V30 COUNTS 47 50 0 0 0
M  V30 BEGIN ATOM
M  V30 1 N 6.76293 1.24272 0.752959 0
M  V30 2 C 5.4581 0.619184 0.64555 0
M  V30 3 C 4.84763 0.788687 -0.720816 0
M  V30 4 C 3.57027 1.27651 -0.0440924 0
M  V30 5 C 4.35675 1.48898 1.2143 0
M  V30 6 C 2.5186 0.224851 0.123549 0
M  V30 7 C 1.35787 0.301272 -0.599667 0
M  V30 8 C 0.385353 -0.671576 -0.412233 0
M  V30 9 N 0.625436 -1.63773 0.464304 0
M  V30 10 C 1.76048 -1.73489 1.18881 0
M  V30 11 N 2.68681 -0.785036 0.991816 0
M  V30 12 N 1.96802 -2.79732 2.11839 0
M  V30 13 N -0.816062 -0.648535 -1.16483 0
M  V30 14 C -1.88663 0.230475 -0.845716 0
M  V30 15 C -2.96018 -0.315081 -0.000946014 0
M  V30 16 C -2.97985 -1.63547 0.391238 0
M  V30 17 C -4.03103 -2.1365 1.15582 0
M  V30 18 C -5.09272 -1.35398 1.55629 0
M  V30 19 C -5.07999 -0.0307187 1.16721 0
M  V30 20 C -4.0369 0.459606 0.410339 0
M  V30 21 C -4.04904 1.79399 0.0298242 0
M  V30 22 C -5.10399 2.59009 0.418919 0
M  V30 23 C -6.13118 2.07362 1.17339 0
M  V30 24 N -6.1016 0.776971 1.53322 0
M  V30 25 C -0.948964 -1.56643 -2.27209 0
M  V30 26 H 6.87008 1.73186 1.69105 0
M  V30 27 H 7.52739 0.511141 0.730037 0
M  V30 28 H 5.38486 -0.424495 1.0157 0
M  V30 29 H 4.71516 -0.12585 -1.32206 0
M  V30 30 H 5.33938 1.62732 -1.29067 0
M  V30 31 H 3.15624 2.18748 -0.540525 0
M  V30 32 H 3.94623 1.03863 2.14334 0
M  V30 33 H 4.60023 2.57212 1.30086 0
M  V30 34 H 1.17995 1.08207 -1.2998 0
M  V30 35 H 2.80384 -3.39519 1.98746 0
M  V30 36 H 1.31037 -2.95859 2.8882 0
M  V30 37 H -2.27002 0.788648 -1.74041 0
M  V30 38 H -1.42958 1.06574 -0.222877 0
M  V30 39 H -2.1737 -2.30629 0.0855943 0
M  V30 40 H -3.99757 -3.1824 1.43528 0
M  V30 41 H -5.92595 -1.72567 2.15184 0
M  V30 42 H -3.22261 2.14665 -0.557062 0
M  V30 43 H -5.08626 3.62404 0.10895 0
M  V30 44 H -6.97394 2.70295 1.48872 0
M  V30 45 H -0.325528 -1.26962 -3.14929 0
M  V30 46 H -1.9917 -1.69218 -2.62931 0
M  V30 47 H -0.516939 -2.55203 -1.93991 0
M  V30 END ATOM
M  V30 BEGIN BOND
M  V30 1 1 1 2
M  V30 2 1 2 3
M  V30 3 1 3 4
M  V30 4 1 4 5
M  V30 5 1 4 6
M  V30 6 2 6 7
M  V30 7 1 7 8
M  V30 8 2 8 9
M  V30 9 1 9 10
M  V30 10 2 10 11
M  V30 11 1 10 12
M  V30 12 1 8 13
M  V30 13 1 13 14
M  V30 14 1 14 15
M  V30 15 2 15 16
M  V30 16 1 16 17
M  V30 17 2 17 18
M  V30 18 1 18 19
M  V30 19 2 19 20
M  V30 20 1 20 21
M  V30 21 2 21 22
M  V30 22 1 22 23
M  V30 23 2 23 24
M  V30 24 1 13 25
M  V30 25 1 5 2
M  V30 26 1 11 6
M  V30 27 1 20 15
M  V30 28 1 24 19
M  V30 29 1 1 26
M  V30 30 1 1 27
M  V30 31 1 2 28
M  V30 32 1 3 29
M  V30 33 1 3 30
M  V30 34 1 4 31
M  V30 35 1 5 32
M  V30 36 1 5 33
M  V30 37 1 7 34
M  V30 38 1 12 35
M  V30 39 1 12 36
M  V30 40 1 14 37
M  V30 41 1 14 38
M  V30 42 1 16 39
M  V30 43 1 17 40
M  V30 44 1 18 41
M  V30 45 1 21 42
M  V30 46 1 22 43
M  V30 47 1 23 44
M  V30 48 1 25 45
M  V30 49 1 25 46
M  V30 50 1 25 47
M  V30 END BOND
M  V30 END CTAB
M  END
