
     RDKit          3D

  0  0  0  0  0  0  0  0  0  0999 V3000
M  V30 BEGIN CTAB
M  V30 COUNTS 31 32 0 0 0
M  V30 BEGIN ATOM
M  V30 1 N 5.22027 -1.22376 -1.2557 0
M  V30 2 C 4.08644 -0.601173 -0.650542 0
M  V30 3 C 2.89134 -0.544033 -1.33431 0
M  V30 4 C 1.76783 0.0526559 -0.786459 0
M  V30 5 C 1.79793 0.617221 0.47292 0
M  V30 6 C 3.00468 0.554006 1.15017 0
M  V30 7 C 4.12727 -0.0384445 0.610528 0
M  V30 8 C 0.624089 1.24733 1.0978 0
M  V30 9 O 0.808296 2.12661 1.99197 0
M  V30 10 C -0.745459 0.912058 0.739229 0
M  V30 11 C -1.73022 1.88667 0.820319 0
M  V30 12 C -3.04827 1.6103 0.50576 0
M  V30 13 C -3.43585 0.350504 0.0975493 0
M  V30 14 C -2.45447 -0.636532 0.0134186 0
M  V30 15 C -1.13067 -0.346607 0.332663 0
M  V30 16 N -2.85108 -1.93652 -0.399149 0
M  V30 17 C -4.81981 -0.0225598 -0.264763 0
M  V30 18 H 5.81269 -1.87599 -0.700886 0
M  V30 19 H 5.49501 -1.05458 -2.25598 0
M  V30 20 H 2.87485 -0.990568 -2.3291 0
M  V30 21 H 0.840829 0.0941708 -1.35523 0
M  V30 22 H 3.03844 0.994778 2.14284 0
M  V30 23 H 5.06903 -0.0902186 1.14033 0
M  V30 24 H -1.46345 2.88316 1.13504 0
M  V30 25 H -3.81821 2.36436 0.566769 0
M  V30 26 H -0.381623 -1.12605 0.271202 0
M  V30 27 H -3.2379 -2.60103 0.311912 0
M  V30 28 H -2.74017 -2.18432 -1.40433 0
M  V30 29 H -5.06516 -1.05425 0.0603506 0
M  V30 30 H -5.59484 0.649854 0.126714 0
M  V30 31 H -4.9418 -0.0170632 -1.38091 0
M  V30 END ATOM
M  V30 BEGIN BOND
M  V30 1 1 1 2
M  V30 2 2 2 3
M  V30 3 1 3 4
M  V30 4 2 4 5
M  V30 5 1 5 6
M  V30 6 2 6 7
M  V30 7 1 5 8
M  V30 8 2 8 9
M  V30 9 1 8 10
M  V30 10 2 10 11
M  V30 11 1 11 12
M  V30 12 2 12 13
M  V30 13 1 13 14
M  V30 14 2 14 15
M  V30 15 1 14 16
M  V30 16 1 13 17
M  V30 17 1 7 2
M  V30 18 1 15 10
M  V30 19 1 1 18
M  V30 20 1 1 19
M  V30 21 1 3 20
M  V30 22 1 4 21
M  V30 23 1 6 22
M  V30 24 1 7 23
M  V30 25 1 11 24
M  V30 26 1 12 25
M  V30 27 1 15 26
M  V30 28 1 16 27
M  V30 29 1 16 28
M  V30 30 1 17 29
M  V30 31 1 17 30
M  V30 32 1 17 31
M  V30 END BOND
M  V30 END CTAB
M  END
