
     RDKit          3D

  0  0  0  0  0  0  0  0  0  0999 V3000
M  V30 BEGIN CTAB
M  V30 COUNTS 45 47 0 0 0
M  V30 BEGIN ATOM
M  V30 1 C -5.209 2.31146 -0.251305 0
M  V30 2 N -5.21683 0.879204 -0.385912 0
M  V30 3 C -4.0209 0.152807 -0.181942 0
M  V30 4 C -3.4834 -0.15869 1.04271 0
M  V30 5 C -2.33389 -0.877087 1.23133 0
M  V30 6 C -1.62806 -1.34508 0.0947116 0
M  V30 7 C -2.13683 -1.05397 -1.13989 0
M  V30 8 C -3.31774 -0.313452 -1.2729 0
M  V30 9 C -0.389305 -2.12363 0.312496 0
M  V30 10 C 0.89123 -1.43726 0.159837 0
M  V30 11 C 1.51947 -1.28513 -1.05117 0
M  V30 12 N 1.01209 -1.88601 -2.23032 0
M  V30 13 N 2.68427 -0.594265 -1.09065 0
M  V30 14 C 3.24343 -0.0581541 0.0123829 0
M  V30 15 N 2.62326 -0.215623 1.18936 0
M  V30 16 C 1.45833 -0.888763 1.3218 0
M  V30 17 N 0.894907 -1.03287 2.60999 0
M  V30 18 C 4.50526 0.664395 -0.0794969 0
M  V30 19 C 5.17086 0.791654 -1.29323 0
M  V30 20 C 6.35988 1.47248 -1.379 0
M  V30 21 C 6.90186 2.04326 -0.231107 0
M  V30 22 C 6.23656 1.91394 0.968316 0
M  V30 23 C 5.04535 1.22917 1.04595 0
M  V30 24 C -6.44343 0.203644 -0.741849 0
M  V30 25 H -6.22772 2.74852 -0.142411 0
M  V30 26 H -4.74149 2.8374 -1.10191 0
M  V30 27 H -4.67178 2.57176 0.700152 0
M  V30 28 H -4.02571 0.198708 1.92415 0
M  V30 29 H -1.94097 -1.12657 2.19348 0
M  V30 30 H -1.67899 -1.38682 -2.04134 0
M  V30 31 H -3.67289 -0.110991 -2.27203 0
M  V30 32 H -0.392111 -3.0324 -0.36757 0
M  V30 33 H -0.466311 -2.60905 1.3392 0
M  V30 34 H 0.653281 -1.38226 -3.06436 0
M  V30 35 H 1.01552 -2.95156 -2.21966 0
M  V30 36 H 0.95158 -1.9658 3.06727 0
M  V30 37 H 0.443907 -0.245141 3.0872 0
M  V30 38 H 4.75117 0.352592 -2.17207 0
M  V30 39 H 6.9098 1.59434 -2.29413 0
M  V30 40 H 7.85574 2.59047 -0.299931 0
M  V30 41 H 6.67273 2.36708 1.85696 0
M  V30 42 H 4.56616 1.15922 2.01044 0
M  V30 43 H -7.26994 0.377615 -0.0270055 0
M  V30 44 H -6.808 0.531686 -1.73828 0
M  V30 45 H -6.29134 -0.910814 -0.788943 0
M  V30 END ATOM
M  V30 BEGIN BOND
M  V30 1 1 1 2
M  V30 2 1 2 3
M  V30 3 2 3 4
M  V30 4 1 4 5
M  V30 5 2 5 6
M  V30 6 1 6 7
M  V30 7 2 7 8
M  V30 8 1 6 9
M  V30 9 1 9 10
M  V30 10 2 10 11
M  V30 11 1 11 12
M  V30 12 1 11 13
M  V30 13 2 13 14
M  V30 14 1 14 15
M  V30 15 2 15 16
M  V30 16 1 16 17
M  V30 17 1 14 18
M  V30 18 2 18 19
M  V30 19 1 19 20
M  V30 20 2 20 21
M  V30 21 1 21 22
M  V30 22 2 22 23
M  V30 23 1 2 24
M  V30 24 1 8 3
M  V30 25 1 16 10
M  V30 26 1 23 18
M  V30 27 1 1 25
M  V30 28 1 1 26
M  V30 29 1 1 27
M  V30 30 1 4 28
M  V30 31 1 5 29
M  V30 32 1 7 30
M  V30 33 1 8 31
M  V30 34 1 9 32
M  V30 35 1 9 33
M  V30 36 1 12 34
M  V30 37 1 12 35
M  V30 38 1 17 36
M  V30 39 1 17 37
M  V30 40 1 19 38
M  V30 41 1 20 39
M  V30 42 1 21 40
M  V30 43 1 22 41
M  V30 44 1 23 42
M  V30 45 1 24 43
M  V30 46 1 24 44
M  V30 47 1 24 45
M  V30 END BOND
M  V30 END CTAB
M  END
