
     RDKit          3D

  0  0  0  0  0  0  0  0  0  0999 V3000
M  V30 BEGIN CTAB
M  V30 COUNTS 58 61 0 0 0
M  V30 BEGIN ATOM
M  V30 1 C 5.47556 -0.904684 1.04715 0
M  V30 2 C 5.05362 -0.26913 -0.235602 0
M  V30 3 N 3.9421 0.634149 -0.0779327 0
M  V30 4 C 2.64169 0.251437 0.354172 0
M  V30 5 C 1.74151 1.19872 0.781965 0
M  V30 6 C 0.482648 0.835571 1.20082 0
M  V30 7 C 0.0693865 -0.459788 1.21256 0
M  V30 8 C 0.988832 -1.41079 0.775786 0
M  V30 9 C 2.25416 -1.06813 0.352634 0
M  V30 10 C -1.22009 -0.952212 1.66001 0
M  V30 11 C -2.35117 -0.818506 0.860662 0
M  V30 12 C -2.15817 -0.161413 -0.453817 0
M  V30 13 O -3.29889 -0.0251447 -1.19678 0
M  V30 14 C -4.26993 0.790284 -0.713536 0
M  V30 15 C -5.46071 0.869747 -1.60726 0
M  V30 16 C -5.49374 0.504394 -2.91376 0
M  V30 17 C -6.64888 0.601374 -3.6903 0
M  V30 18 C -7.80978 1.09279 -3.10009 0
M  V30 19 C -7.78713 1.46688 -1.77517 0
M  V30 20 C -6.61924 1.35929 -1.021 0
M  V30 21 N -3.53261 -1.29321 1.2978 0
M  V30 22 C -3.66573 -1.89365 2.48079 0
M  V30 23 N -4.89231 -2.4156 2.99731 0
M  V30 24 N -2.57641 -2.02841 3.26408 0
M  V30 25 C -1.3701 -1.57916 2.89072 0
M  V30 26 N -0.245488 -1.73775 3.74128 0
M  V30 27 C 6.20789 0.457906 -0.819075 0
M  V30 28 C 7.46877 0.487694 -0.237507 0
M  V30 29 C 8.49314 1.17353 -0.854667 0
M  V30 30 N 8.31019 1.82235 -2.01369 0
M  V30 31 C 7.10793 1.82392 -2.61719 0
M  V30 32 C 6.06767 1.1476 -2.02419 0
M  V30 33 H 6.3237 -1.60488 0.88912 0
M  V30 34 H 4.69926 -1.48569 1.57089 0
M  V30 35 H 5.88216 -0.128041 1.76248 0
M  V30 36 H 4.77459 -1.11458 -0.9325 0
M  V30 37 H 4.07327 1.6658 -0.294728 0
M  V30 38 H 2.01807 2.2681 0.795646 0
M  V30 39 H -0.231777 1.5993 1.54027 0
M  V30 40 H 0.747181 -2.45798 0.751241 0
M  V30 41 H 2.95834 -1.84634 0.00611981 0
M  V30 42 H -1.67216 0.835635 -0.308614 0
M  V30 43 H -1.46625 -0.804292 -1.04573 0
M  V30 44 H -3.83718 1.84889 -0.762254 0
M  V30 45 H -4.56137 0.689871 0.341648 0
M  V30 46 H -4.58547 0.119843 -3.37683 0
M  V30 47 H -6.70946 0.320956 -4.71691 0
M  V30 48 H -8.74587 1.18773 -3.67682 0
M  V30 49 H -8.68041 1.84588 -1.30639 0
M  V30 50 H -6.65816 1.66098 -0.0023204 0
M  V30 51 H -5.72622 -1.7929 3.0042 0
M  V30 52 H -4.97289 -3.38653 3.36243 0
M  V30 53 H -0.0902697 -1.0394 4.49835 0
M  V30 54 H 0.433428 -2.52359 3.6421 0
M  V30 55 H 7.6131 -0.0410514 0.707006 0
M  V30 56 H 9.47794 1.20797 -0.41333 0
M  V30 57 H 6.94066 2.33851 -3.54746 0
M  V30 58 H 5.09106 1.13578 -2.49445 0
M  V30 END ATOM
M  V30 BEGIN BOND
M  V30 1 1 1 2
M  V30 2 1 2 3
M  V30 3 1 3 4
M  V30 4 2 4 5
M  V30 5 1 5 6
M  V30 6 2 6 7
M  V30 7 1 7 8
M  V30 8 2 8 9
M  V30 9 1 7 10
M  V30 10 1 10 11
M  V30 11 1 11 12
M  V30 12 1 12 13
M  V30 13 1 13 14
M  V30 14 1 14 15
M  V30 15 2 15 16
M  V30 16 1 16 17
M  V30 17 2 17 18
M  V30 18 1 18 19
M  V30 19 2 19 20
M  V30 20 2 11 21
M  V30 21 1 21 22
M  V30 22 1 22 23
M  V30 23 2 22 24
M  V30 24 1 24 25
M  V30 25 1 25 26
M  V30 26 1 2 27
M  V30 27 2 27 28
M  V30 28 1 28 29
M  V30 29 2 29 30
M  V30 30 1 30 31
M  V30 31 2 31 32
M  V30 32 1 9 4
M  V30 33 2 25 10
M  V30 34 1 32 27
M  V30 35 1 20 15
M  V30 36 1 1 33
M  V30 37 1 1 34
M  V30 38 1 1 35
M  V30 39 1 2 36
M  V30 40 1 3 37
M  V30 41 1 5 38
M  V30 42 1 6 39
M  V30 43 1 8 40
M  V30 44 1 9 41
M  V30 45 1 12 42
M  V30 46 1 12 43
M  V30 47 1 14 44
M  V30 48 1 14 45
M  V30 49 1 16 46
M  V30 50 1 17 47
M  V30 51 1 18 48
M  V30 52 1 19 49
M  V30 53 1 20 50
M  V30 54 1 23 51
M  V30 55 1 23 52
M  V30 56 1 26 53
M  V30 57 1 26 54
M  V30 58 1 28 55
M  V30 59 1 29 56
M  V30 60 1 31 57
M  V30 61 1 32 58
M  V30 END BOND
M  V30 END CTAB
M  END
