
     RDKit          3D

  0  0  0  0  0  0  0  0  0  0999 V3000
M  V30 BEGIN CTAB
M  V30 COUNTS 30 31 0 0 0
M  V30 BEGIN ATOM
M  V30 1 N 5.6381 0.651399 0.908577 0
M  V30 2 N 4.95468 0.0514212 -0.13188 0
M  V30 3 C 3.54169 0.0108593 -0.12551 0
M  V30 4 C 2.86057 -0.589119 -1.16831 0
M  V30 5 C 1.45906 -0.630682 -1.1632 0
M  V30 6 C 0.746414 -0.0816127 -0.132632 0
M  V30 7 C 1.43884 0.51079 0.895907 0
M  V30 8 C 2.82049 0.567225 0.918681 0
M  V30 9 C -0.69749 -0.118228 -0.116494 0
M  V30 10 C -1.43682 -0.180128 1.05382 0
M  V30 11 C -2.81579 -0.214016 1.04887 0
M  V30 12 C -3.53101 -0.187837 -0.129431 0
M  V30 13 N -4.96195 -0.222997 -0.132921 0
M  V30 14 N -5.60948 -0.28461 1.08893 0
M  V30 15 C -2.8074 -0.126235 -1.30236 0
M  V30 16 C -1.43722 -0.0930589 -1.28363 0
M  V30 17 H 6.66195 0.690312 0.711663 0
M  V30 18 H 5.27107 1.58361 1.18784 0
M  V30 19 H 5.47189 -0.370117 -0.919202 0
M  V30 20 H 3.42745 -1.01591 -1.97063 0
M  V30 21 H 0.929846 -1.09422 -1.96858 0
M  V30 22 H 0.899646 0.952302 1.72249 0
M  V30 23 H 3.38146 1.02767 1.71697 0
M  V30 24 H -0.885712 -0.201164 1.97747 0
M  V30 25 H -3.38655 -0.262988 1.98503 0
M  V30 26 H -5.50744 -0.203489 -1.01752 0
M  V30 27 H -6.57636 -0.647874 0.9393 0
M  V30 28 H -5.62009 0.62866 1.59627 0
M  V30 29 H -3.36983 -0.105734 -2.22387 0
M  V30 30 H -0.859997 -0.0442286 -2.21584 0
M  V30 END ATOM
M  V30 BEGIN BOND
M  V30 1 1 1 2
M  V30 2 1 2 3
M  V30 3 2 3 4
M  V30 4 1 4 5
M  V30 5 2 5 6
M  V30 6 1 6 7
M  V30 7 2 7 8
M  V30 8 1 6 9
M  V30 9 2 9 10
M  V30 10 1 10 11
M  V30 11 2 11 12
M  V30 12 1 12 13
M  V30 13 1 13 14
M  V30 14 1 12 15
M  V30 15 2 15 16
M  V30 16 1 8 3
M  V30 17 1 16 9
M  V30 18 1 1 17
M  V30 19 1 1 18
M  V30 20 1 2 19
M  V30 21 1 4 20
M  V30 22 1 5 21
M  V30 23 1 7 22
M  V30 24 1 8 23
M  V30 25 1 10 24
M  V30 26 1 11 25
M  V30 27 1 13 26
M  V30 28 1 14 27
M  V30 29 1 14 28
M  V30 30 1 15 29
M  V30 31 1 16 30
M  V30 END BOND
M  V30 END CTAB
M  END
