
     RDKit          3D

  0  0  0  0  0  0  0  0  0  0999 V3000
M  V30 BEGIN CTAB
M  V30 COUNTS 27 27 0 0 0
M  V30 BEGIN ATOM
M  V30 1 N 2.38807 1.86172 1.34661 0
M  V30 2 N 1.72435 1.19873 0.342266 0
M  V30 3 C 1.84609 -0.0720277 0.17246 0
M  V30 4 N 1.13953 -0.709942 -0.879476 0
M  V30 5 C -0.011737 -0.114519 -1.46253 0
M  V30 6 C -1.15185 0.108203 -0.555319 0
M  V30 7 C -1.26612 -0.362883 0.714545 0
M  V30 8 C -2.40224 -0.0762937 1.47537 0
M  V30 9 C -3.42033 0.68695 0.947952 0
M  V30 10 C -3.32795 1.18067 -0.348414 0
M  V30 11 C -2.19167 0.876527 -1.0674 0
M  V30 12 Cl -4.62499 2.15588 -1.02734 0
M  V30 13 C 1.61126 -1.98833 -1.35615 0
M  V30 14 N 2.69438 -0.785546 1.05925 0
M  V30 15 H 3.42077 1.79073 1.44398 0
M  V30 16 H 1.80987 2.44397 2.0131 0
M  V30 17 H -0.385104 -0.674169 -2.36134 0
M  V30 18 H 0.251939 0.902791 -1.8789 0
M  V30 19 H -0.470205 -0.960307 1.122 0
M  V30 20 H -2.46606 -0.469572 2.49558 0
M  V30 21 H -4.29159 0.897889 1.55256 0
M  V30 22 H -2.15455 1.28295 -2.08506 0
M  V30 23 H 1.687 -1.95187 -2.46597 0
M  V30 24 H 2.62249 -2.23994 -0.988894 0
M  V30 25 H 0.942906 -2.83294 -1.03171 0
M  V30 26 H 2.30921 -1.55027 1.65827 0
M  V30 27 H 3.71652 -0.598389 1.16455 0
M  V30 END ATOM
M  V30 BEGIN BOND
M  V30 1 1 1 2
M  V30 2 2 2 3 CFG=2
M  V30 3 1 3 4
M  V30 4 1 4 5
M  V30 5 1 5 6
M  V30 6 2 6 7
M  V30 7 1 7 8
M  V30 8 2 8 9
M  V30 9 1 9 10
M  V30 10 2 10 11
M  V30 11 1 10 12
M  V30 12 1 4 13
M  V30 13 1 3 14
M  V30 14 1 11 6
M  V30 15 1 1 15
M  V30 16 1 1 16
M  V30 17 1 5 17
M  V30 18 1 5 18
M  V30 19 1 7 19
M  V30 20 1 8 20
M  V30 21 1 9 21
M  V30 22 1 11 22
M  V30 23 1 13 23
M  V30 24 1 13 24
M  V30 25 1 13 25
M  V30 26 1 14 26
M  V30 27 1 14 27
M  V30 END BOND
M  V30 END CTAB
M  END
