
     RDKit          3D

  0  0  0  0  0  0  0  0  0  0999 V3000
M  V30 BEGIN CTAB
M  V30 COUNTS 51 53 0 0 0
M  V30 BEGIN ATOM
M  V30 1 C -2.97261 -1.27088 2.34688 0
M  V30 2 C -2.62493 -0.766764 0.98917 0
M  V30 3 C -1.39343 -0.260688 0.68436 0
M  V30 4 C -1.12617 0.187177 -0.572157 0
M  V30 5 C -2.11713 0.121119 -1.52763 0
M  V30 6 C -3.3773 -0.37669 -1.28607 0
M  V30 7 C -4.43602 -0.442596 -2.32334 0
M  V30 8 C -3.59816 -0.823141 0.0206518 0
M  V30 9 N -4.89367 -1.33719 0.276716 0
M  V30 10 C 0.17852 0.744787 -0.976645 0
M  V30 11 C 0.317041 2.17471 -0.680808 0
M  V30 12 C -0.734807 3.03453 -0.440863 0
M  V30 13 C -0.539043 4.37118 -0.181235 0
M  V30 14 C 0.729833 4.90316 -0.151661 0
M  V30 15 C 1.79259 4.06604 -0.387816 0
M  V30 16 C 1.57826 2.72761 -0.64679 0
M  V30 17 C 1.24738 -0.105838 -0.396589 0
M  V30 18 C 1.65223 -1.20719 -1.14359 0
M  V30 19 C 2.63666 -2.00261 -0.63028 0
M  V30 20 C 3.06031 -3.18179 -1.445 0
M  V30 21 C 3.21797 -1.73422 0.586194 0
M  V30 22 N 4.24012 -2.60161 1.06771 0
M  V30 23 C 2.82593 -0.639025 1.34513 0
M  V30 24 C 3.49436 -0.407508 2.6485 0
M  V30 25 C 1.83831 0.156482 0.82716 0
M  V30 26 H -3.68516 -2.11372 2.32045 0
M  V30 27 H -3.39992 -0.485044 2.99267 0
M  V30 28 H -2.04644 -1.63196 2.86184 0
M  V30 29 H -0.669089 -0.235981 1.47601 0
M  V30 30 H -1.9427 0.472604 -2.55572 0
M  V30 31 H -5.13826 -1.28493 -2.09257 0
M  V30 32 H -4.96887 0.528395 -2.39724 0
M  V30 33 H -3.98993 -0.673492 -3.3167 0
M  V30 34 H -5.01971 -2.3528 0.392472 0
M  V30 35 H -5.69619 -0.696006 0.345051 0
M  V30 36 H 0.266294 0.668837 -2.10507 0
M  V30 37 H -1.75524 2.6245 -0.461034 0
M  V30 38 H -1.38511 5.0454 0.00824361 0
M  V30 39 H 0.887927 5.97902 0.0573925 0
M  V30 40 H 2.78985 4.48347 -0.364713 0
M  V30 41 H 2.47043 2.10567 -0.83517 0
M  V30 42 H 1.17442 -1.40322 -2.11306 0
M  V30 43 H 2.12309 -3.76763 -1.62898 0
M  V30 44 H 3.80713 -3.78763 -0.903919 0
M  V30 45 H 3.42738 -2.85856 -2.42933 0
M  V30 46 H 5.13773 -2.6032 0.535024 0
M  V30 47 H 4.04215 -3.17193 1.90257 0
M  V30 48 H 2.83976 0.0426116 3.40295 0
M  V30 49 H 3.80547 -1.41351 3.04883 0
M  V30 50 H 4.42073 0.169021 2.44753 0
M  V30 51 H 1.50803 1.03103 1.41048 0
M  V30 END ATOM
M  V30 BEGIN BOND
M  V30 1 1 1 2
M  V30 2 2 2 3
M  V30 3 1 3 4
M  V30 4 2 4 5
M  V30 5 1 5 6
M  V30 6 1 6 7
M  V30 7 2 6 8
M  V30 8 1 8 9
M  V30 9 1 4 10
M  V30 10 1 10 11
M  V30 11 2 11 12
M  V30 12 1 12 13
M  V30 13 2 13 14
M  V30 14 1 14 15
M  V30 15 2 15 16
M  V30 16 1 10 17
M  V30 17 2 17 18
M  V30 18 1 18 19
M  V30 19 1 19 20
M  V30 20 2 19 21
M  V30 21 1 21 22
M  V30 22 1 21 23
M  V30 23 1 23 24
M  V30 24 2 23 25
M  V30 25 1 8 2
M  V30 26 1 16 11
M  V30 27 1 25 17
M  V30 28 1 1 26
M  V30 29 1 1 27
M  V30 30 1 1 28
M  V30 31 1 3 29
M  V30 32 1 5 30
M  V30 33 1 7 31
M  V30 34 1 7 32
M  V30 35 1 7 33
M  V30 36 1 9 34
M  V30 37 1 9 35
M  V30 38 1 10 36
M  V30 39 1 12 37
M  V30 40 1 13 38
M  V30 41 1 14 39
M  V30 42 1 15 40
M  V30 43 1 16 41
M  V30 44 1 18 42
M  V30 45 1 20 43
M  V30 46 1 20 44
M  V30 47 1 20 45
M  V30 48 1 22 46
M  V30 49 1 22 47
M  V30 50 1 24 48
M  V30 51 1 24 49
M  V30 52 1 24 50
M  V30 53 1 25 51
M  V30 END BOND
M  V30 END CTAB
M  END
