
     RDKit          3D

  0  0  0  0  0  0  0  0  0  0999 V3000
M  V30 BEGIN CTAB
M  V30 COUNTS 25 25 0 0 0
M  V30 BEGIN ATOM
M  V30 1 N -3.64781 0.0277128 0.565281 0
M  V30 2 C -3.30292 0.140596 -0.847831 0
M  V30 3 C -1.92314 -0.408343 -1.03216 0
M  V30 4 N -0.995293 0.349252 -0.230562 0
M  V30 5 C 0.393705 0.081578 -0.182045 0
M  V30 6 C 0.922471 -0.943635 -0.922042 0
M  V30 7 C 2.26762 -1.25669 -0.919293 0
M  V30 8 C 3.12971 -0.522306 -0.14946 0
M  V30 9 C 2.62787 0.519997 0.609774 0
M  V30 10 C 1.26833 0.809814 0.585156 0
M  V30 11 N 0.822162 1.89358 1.3892 0
M  V30 12 C 4.53744 -0.835936 -0.135078 0
M  V30 13 N 5.66683 -1.10805 -0.120856 0
M  V30 14 H -4.28609 -0.773309 0.742911 0
M  V30 15 H -2.81033 -0.11764 1.15612 0
M  V30 16 H -3.2835 1.25141 -1.05127 0
M  V30 17 H -4.07227 -0.372616 -1.43302 0
M  V30 18 H -1.91734 -1.47546 -0.656877 0
M  V30 19 H -1.61694 -0.490076 -2.09142 0
M  V30 20 H -1.41526 1.13751 0.335786 0
M  V30 21 H 0.298916 -1.57855 -1.56408 0
M  V30 22 H 2.66665 -2.07223 -1.51211 0
M  V30 23 H 3.33929 1.0756 1.20361 0
M  V30 24 H 0.438418 1.81311 2.33813 0
M  V30 25 H 0.89148 2.85468 0.977249 0
M  V30 END ATOM
M  V30 BEGIN BOND
M  V30 1 1 1 2
M  V30 2 1 2 3
M  V30 3 1 3 4
M  V30 4 1 4 5
M  V30 5 2 5 6
M  V30 6 1 6 7
M  V30 7 2 7 8
M  V30 8 1 8 9
M  V30 9 2 9 10
M  V30 10 1 10 11
M  V30 11 1 8 12
M  V30 12 3 12 13
M  V30 13 1 10 5
M  V30 14 1 1 14
M  V30 15 1 1 15
M  V30 16 1 2 16
M  V30 17 1 2 17
M  V30 18 1 3 18
M  V30 19 1 3 19
M  V30 20 1 4 20
M  V30 21 1 6 21
M  V30 22 1 7 22
M  V30 23 1 9 23
M  V30 24 1 11 24
M  V30 25 1 11 25
M  V30 END BOND
M  V30 END CTAB
M  END
