
     RDKit          3D

  0  0  0  0  0  0  0  0  0  0999 V3000
M  V30 BEGIN CTAB
M  V30 COUNTS 34 35 0 0 0
M  V30 BEGIN ATOM
M  V30 1 C -3.85883 -2.06079 -1.12407 0
M  V30 2 C -2.9738 -1.0437 -0.482656 0
M  V30 3 C -3.4586 0.148776 -0.00023269 0
M  V30 4 C -2.67657 1.11517 0.598779 0
M  V30 5 C -3.22325 2.39915 1.11386 0
M  V30 6 C -1.30487 0.873963 0.726728 0
M  V30 7 N -0.50059 1.87192 1.34472 0
M  V30 8 C -0.791778 -0.313047 0.25192 0
M  V30 9 N 0.602299 -0.548699 0.386468 0
M  V30 10 N 1.39243 0.221686 -0.203149 0
M  V30 11 C 2.79373 0.146002 -0.186643 0
M  V30 12 C 3.50107 0.294355 0.992984 0
M  V30 13 C 4.87647 0.221893 1.02062 0
M  V30 14 C 5.56235 -0.00540581 -0.165825 0
M  V30 15 C 4.86909 -0.155653 -1.35241 0
M  V30 16 C 3.50142 -0.0798419 -1.3563 0
M  V30 17 C -1.60461 -1.25428 -0.340552 0
M  V30 18 N -1.09567 -2.48854 -0.838616 0
M  V30 19 H -4.89538 -1.83394 -0.796275 0
M  V30 20 H -3.81256 -1.85162 -2.22247 0
M  V30 21 H -3.54207 -3.08093 -0.902432 0
M  V30 22 H -4.52455 0.327454 -0.103842 0
M  V30 23 H -2.92626 2.59167 2.15883 0
M  V30 24 H -4.30924 2.42668 0.98189 0
M  V30 25 H -2.81226 3.19415 0.424857 0
M  V30 26 H -0.335886 1.92474 2.36959 0
M  V30 27 H -0.0303337 2.61562 0.756461 0
M  V30 28 H 2.93729 0.47259 1.9142 0
M  V30 29 H 5.37587 0.343812 1.9613 0
M  V30 30 H 6.65188 -0.0582017 -0.115021 0
M  V30 31 H 5.44349 -0.334645 -2.27467 0
M  V30 32 H 3.00001 -0.204509 -2.31497 0
M  V30 33 H -1.55194 -3.37173 -0.53517 0
M  V30 34 H -0.278339 -2.5041 -1.49707 0
M  V30 END ATOM
M  V30 BEGIN BOND
M  V30 1 1 1 2
M  V30 2 2 2 3
M  V30 3 1 3 4
M  V30 4 1 4 5
M  V30 5 2 4 6
M  V30 6 1 6 7
M  V30 7 1 6 8
M  V30 8 1 8 9
M  V30 9 2 9 10 CFG=2
M  V30 10 1 10 11
M  V30 11 2 11 12
M  V30 12 1 12 13
M  V30 13 2 13 14
M  V30 14 1 14 15
M  V30 15 2 15 16
M  V30 16 2 8 17
M  V30 17 1 17 18
M  V30 18 1 17 2
M  V30 19 1 16 11
M  V30 20 1 1 19
M  V30 21 1 1 20
M  V30 22 1 1 21
M  V30 23 1 3 22
M  V30 24 1 5 23
M  V30 25 1 5 24
M  V30 26 1 5 25
M  V30 27 1 7 26
M  V30 28 1 7 27
M  V30 29 1 12 28
M  V30 30 1 13 29
M  V30 31 1 14 30
M  V30 32 1 15 31
M  V30 33 1 16 32
M  V30 34 1 18 33
M  V30 35 1 18 34
M  V30 END BOND
M  V30 END CTAB
M  END
