
     RDKit          3D

  0  0  0  0  0  0  0  0  0  0999 V3000
M  V30 BEGIN CTAB
M  V30 COUNTS 26 27 0 0 0
M  V30 BEGIN ATOM
M  V30 1 N -3.14204 -0.798292 0.918537 0
M  V30 2 C -2.59525 -0.879724 -0.395092 0
M  V30 3 C -2.00228 0.395587 -0.915191 0
M  V30 4 C -0.890281 0.918374 -0.099038 0
M  V30 5 C -0.927061 1.97748 0.789412 0
M  V30 6 N 0.29703 2.13511 1.33346 0
M  V30 7 C 1.14009 1.22021 0.837818 0
M  V30 8 C 2.47319 0.938122 1.04443 0
M  V30 9 C 3.09203 -0.0841231 0.382406 0
M  V30 10 C 2.36892 -0.846016 -0.508228 0
M  V30 11 N 2.96838 -1.91602 -1.2198 0
M  V30 12 C 1.04055 -0.564919 -0.714214 0
M  V30 13 C 0.410668 0.461833 -0.0513182 0
M  V30 14 H -3.09856 -1.76401 1.34046 0
M  V30 15 H -4.15489 -0.551392 0.880102 0
M  V30 16 H -3.45619 -1.11728 -1.09001 0
M  V30 17 H -1.88641 -1.7381 -0.554435 0
M  V30 18 H -1.6864 0.196506 -1.97292 0
M  V30 19 H -2.82307 1.1612 -1.00398 0
M  V30 20 H -1.77583 2.61551 1.04892 0
M  V30 21 H 0.616825 2.85317 2.05199 0
M  V30 22 H 3.08257 1.52316 1.74791 0
M  V30 23 H 4.13587 -0.321197 0.528647 0
M  V30 24 H 2.50479 -2.83342 -1.21262 0
M  V30 25 H 3.85823 -1.83212 -1.75694 0
M  V30 26 H 0.449107 -1.14965 -1.4103 0
M  V30 END ATOM
M  V30 BEGIN BOND
M  V30 1 1 1 2
M  V30 2 1 2 3
M  V30 3 1 3 4
M  V30 4 2 4 5
M  V30 5 1 5 6
M  V30 6 1 6 7
M  V30 7 2 7 8
M  V30 8 1 8 9
M  V30 9 2 9 10
M  V30 10 1 10 11
M  V30 11 1 10 12
M  V30 12 2 12 13
M  V30 13 1 13 4
M  V30 14 1 13 7
M  V30 15 1 1 14
M  V30 16 1 1 15
M  V30 17 1 2 16
M  V30 18 1 2 17
M  V30 19 1 3 18
M  V30 20 1 3 19
M  V30 21 1 5 20
M  V30 22 1 6 21
M  V30 23 1 8 22
M  V30 24 1 9 23
M  V30 25 1 11 24
M  V30 26 1 11 25
M  V30 27 1 12 26
M  V30 END BOND
M  V30 END CTAB
M  END
