
     RDKit          3D

  0  0  0  0  0  0  0  0  0  0999 V3000
M  V30 BEGIN CTAB
M  V30 COUNTS 39 40 0 0 0
M  V30 BEGIN ATOM
M  V30 1 N -4.39799 -2.0693 -0.686836 0
M  V30 2 C -5.31668 -1.03438 -0.327838 0
M  V30 3 C -4.85458 -0.199447 0.846236 0
M  V30 4 O -3.72393 0.43146 0.669786 0
M  V30 5 C -2.44639 0.607629 0.4613 0
M  V30 6 C -1.48419 -0.356272 0.313343 0
M  V30 7 C -0.138072 -0.122581 0.0897783 0
M  V30 8 C 0.281911 1.16014 0.00804137 0
M  V30 9 C -0.641446 2.20388 0.149674 0
M  V30 10 C -1.96373 1.93889 0.369333 0
M  V30 11 O -2.88907 2.96891 0.511442 0
M  V30 12 C -2.45699 4.29579 0.427826 0
M  V30 13 C 0.786474 -1.23969 -0.0563449 0
M  V30 14 O 0.274137 -2.39744 -0.187371 0
M  V30 15 N 2.17761 -1.0731 -0.0552471 0
M  V30 16 C 3.10246 -2.20268 -0.203875 0
M  V30 17 C 4.51505 -1.70262 -0.163168 0
M  V30 18 N 5.31706 -1.54636 0.887109 0
M  V30 19 N 6.48859 -1.10728 0.724799 0
M  V30 20 C 6.92589 -0.799995 -0.489573 0
M  V30 21 S 5.55448 -1.17288 -1.435 0
M  V30 22 N 8.22302 -0.293335 -0.834099 0
M  V30 23 H -4.67582 -2.43576 -1.62379 0
M  V30 24 H -4.39166 -2.79352 0.0470613 0
M  V30 25 H -6.33144 -1.46261 -0.130817 0
M  V30 26 H -5.41024 -0.315756 -1.18763 0
M  V30 27 H -4.87005 -0.95585 1.71657 0
M  V30 28 H -5.74367 0.477631 1.07761 0
M  V30 29 H -1.78843 -1.39171 0.391478 0
M  V30 30 H 1.31007 1.36839 -0.165918 0
M  V30 31 H -0.247226 3.20114 0.0753879 0
M  V30 32 H -2.25497 4.61096 -0.611215 0
M  V30 33 H -1.55643 4.43649 1.04233 0
M  V30 34 H -3.23717 4.97363 0.837443 0
M  V30 35 H 2.57729 -0.126145 0.0560517 0
M  V30 36 H 2.9466 -2.9681 0.566928 0
M  V30 37 H 2.93038 -2.63862 -1.2037 0
M  V30 38 H 9.00591 -0.949603 -0.766345 0
M  V30 39 H 8.40323 0.680095 -1.14075 0
M  V30 END ATOM
M  V30 BEGIN BOND
M  V30 1 1 1 2
M  V30 2 1 2 3
M  V30 3 1 3 4
M  V30 4 1 4 5
M  V30 5 2 5 6
M  V30 6 1 6 7
M  V30 7 2 7 8
M  V30 8 1 8 9
M  V30 9 2 9 10
M  V30 10 1 10 11
M  V30 11 1 11 12
M  V30 12 1 7 13
M  V30 13 2 13 14
M  V30 14 1 13 15
M  V30 15 1 15 16
M  V30 16 1 16 17
M  V30 17 2 17 18
M  V30 18 1 18 19
M  V30 19 2 19 20
M  V30 20 1 20 21
M  V30 21 1 20 22
M  V30 22 1 10 5
M  V30 23 1 21 17
M  V30 24 1 1 23
M  V30 25 1 1 24
M  V30 26 1 2 25
M  V30 27 1 2 26
M  V30 28 1 3 27
M  V30 29 1 3 28
M  V30 30 1 6 29
M  V30 31 1 8 30
M  V30 32 1 9 31
M  V30 33 1 12 32
M  V30 34 1 12 33
M  V30 35 1 12 34
M  V30 36 1 15 35
M  V30 37 1 16 36
M  V30 38 1 16 37
M  V30 39 1 22 38
M  V30 40 1 22 39
M  V30 END BOND
M  V30 END CTAB
M  END
