
     RDKit          3D

  0  0  0  0  0  0  0  0  0  0999 V3000
M  V30 BEGIN CTAB
M  V30 COUNTS 29 29 0 0 0
M  V30 BEGIN ATOM
M  V30 1 C 4.03076 1.45492 -0.645833 0
M  V30 2 C 4.23518 -0.0423607 -0.564828 0
M  V30 3 O 3.00396 -0.740526 -0.635873 0
M  V30 4 C 1.98144 -0.544576 0.309379 0
M  V30 5 O 2.26216 0.28945 1.20475 0
M  V30 6 C 0.704143 -1.24524 0.261949 0
M  V30 7 C -0.494031 -0.382513 0.156291 0
M  V30 8 C -0.388726 0.979967 0.0491243 0
M  V30 9 C -1.56437 1.7162 -0.0484505 0
M  V30 10 C -2.81812 1.14984 -0.0431148 0
M  V30 11 C -2.91601 -0.220993 0.0643712 0
M  V30 12 C -1.77389 -0.966687 0.161784 0
M  V30 13 N -1.87574 -2.38966 0.267932 0
M  V30 14 N -4.19453 -0.830585 0.0701516 0
M  V30 15 C -4.01521 1.96164 -0.150964 0
M  V30 16 N -4.95982 2.62591 -0.239836 0
M  V30 17 H 3.19737 1.60418 -1.36527 0
M  V30 18 H 3.85225 1.94131 0.318735 0
M  V30 19 H 4.95267 1.88644 -1.07887 0
M  V30 20 H 4.82578 -0.339261 0.326372 0
M  V30 21 H 4.82899 -0.337736 -1.45352 0
M  V30 22 H 0.67522 -1.93856 -0.631701 0
M  V30 23 H 0.601465 -1.95761 1.13787 0
M  V30 24 H 0.571139 1.50902 0.0300515 0
M  V30 25 H -1.46882 2.8068 -0.13369 0
M  V30 26 H -2.34869 -2.81004 1.09502 0
M  V30 27 H -1.48771 -3.02576 -0.463028 0
M  V30 28 H -4.35419 -1.83874 0.335766 0
M  V30 29 H -5.06267 -0.31481 -0.189306 0
M  V30 END ATOM
M  V30 BEGIN BOND
M  V30 1 1 1 2
M  V30 2 1 2 3
M  V30 3 1 3 4
M  V30 4 2 4 5
M  V30 5 1 4 6
M  V30 6 1 6 7
M  V30 7 2 7 8
M  V30 8 1 8 9
M  V30 9 2 9 10
M  V30 10 1 10 11
M  V30 11 2 11 12
M  V30 12 1 12 13
M  V30 13 1 11 14
M  V30 14 1 10 15
M  V30 15 3 15 16
M  V30 16 1 12 7
M  V30 17 1 1 17
M  V30 18 1 1 18
M  V30 19 1 1 19
M  V30 20 1 2 20
M  V30 21 1 2 21
M  V30 22 1 6 22
M  V30 23 1 6 23
M  V30 24 1 8 24
M  V30 25 1 9 25
M  V30 26 1 13 26
M  V30 27 1 13 27
M  V30 28 1 14 28
M  V30 29 1 14 29
M  V30 END BOND
M  V30 END CTAB
M  END
