
     RDKit          3D

  0  0  0  0  0  0  0  0  0  0999 V3000
M  V30 BEGIN CTAB
M  V30 COUNTS 31 33 0 0 0
M  V30 BEGIN ATOM
M  V30 1 N -6.67075 -1.11223 -0.021042 0
M  V30 2 C -5.59555 -0.682367 -0.000665107 0
M  V30 3 C -4.23745 -0.168402 0.0159963 0
M  V30 4 C -3.17944 -1.02168 0.197463 0
M  V30 5 C -1.86646 -0.514649 0.21187 0
M  V30 6 C -1.77676 0.83514 0.0361006 0
M  V30 7 N -2.84458 1.66499 -0.142794 0
M  V30 8 C -4.10679 1.19276 -0.15888 0
M  V30 9 N -5.24585 2.01447 -0.34234 0
M  V30 10 S -0.103501 1.11016 0.103584 0
M  V30 11 C 0.447441 -0.49124 0.352825 0
M  V30 12 C -0.729587 -1.20306 0.375225 0
M  V30 13 N -0.654923 -2.65091 0.574854 0
M  V30 14 C 1.81448 -1.00985 0.484206 0
M  V30 15 O 1.972 -2.25327 0.614724 0
M  V30 16 C 2.97292 -0.157916 0.46633 0
M  V30 17 C 3.02936 1.16243 0.822502 0
M  V30 18 C 4.21788 1.89413 0.729802 0
M  V30 19 C 5.37232 1.30684 0.276844 0
M  V30 20 C 5.29076 -0.029329 -0.0766398 0
M  V30 21 C 4.15723 -0.76189 0.00171472 0
M  V30 22 Br 7.02759 2.24251 0.123346 0
M  V30 23 H -3.41157 -2.06522 0.323819 0
M  V30 24 H -6.20566 1.74101 -0.0471066 0
M  V30 25 H -5.14064 2.94724 -0.793757 0
M  V30 26 H -0.267063 -3.26256 -0.163857 0
M  V30 27 H -1.01475 -2.98849 1.49251 0
M  V30 28 H 2.15975 1.65616 1.19614 0
M  V30 29 H 4.23126 2.9431 1.01999 0
M  V30 30 H 6.19842 -0.530848 -0.443644 0
M  V30 31 H 4.1599 -1.80704 -0.292045 0
M  V30 END ATOM
M  V30 BEGIN BOND
M  V30 1 3 1 2
M  V30 2 1 2 3
M  V30 3 2 3 4
M  V30 4 1 4 5
M  V30 5 2 5 6
M  V30 6 1 6 7
M  V30 7 2 7 8
M  V30 8 1 8 9
M  V30 9 1 6 10
M  V30 10 1 10 11
M  V30 11 2 11 12
M  V30 12 1 12 13
M  V30 13 1 11 14
M  V30 14 2 14 15
M  V30 15 1 14 16
M  V30 16 2 16 17
M  V30 17 1 17 18
M  V30 18 2 18 19
M  V30 19 1 19 20
M  V30 20 2 20 21
M  V30 21 1 19 22
M  V30 22 1 8 3
M  V30 23 1 21 16
M  V30 24 1 12 5
M  V30 25 1 4 23
M  V30 26 1 9 24
M  V30 27 1 9 25
M  V30 28 1 13 26
M  V30 29 1 13 27
M  V30 30 1 17 28
M  V30 31 1 18 29
M  V30 32 1 20 30
M  V30 33 1 21 31
M  V30 END BOND
M  V30 END CTAB
M  END
