
     RDKit          3D

  0  0  0  0  0  0  0  0  0  0999 V3000
M  V30 BEGIN CTAB
M  V30 COUNTS 57 60 0 0 0
M  V30 BEGIN ATOM
M  V30 1 N -2.91153 3.07552 1.03696 0
M  V30 2 C -2.96357 1.83067 0.380871 0
M  V30 3 N -1.82564 1.24802 -0.0625924 0
M  V30 4 C -1.86493 0.0660341 -0.686708 0
M  V30 5 C -0.649808 -0.648653 -1.21005 0
M  V30 6 S 0.0128794 -1.74716 0.0627889 0
M  V30 7 C 0.704105 -0.743154 1.39745 0
M  V30 8 C 1.92908 -0.0574304 0.86892 0
M  V30 9 N 1.80025 1.152 0.309962 0
M  V30 10 C 2.8784 1.79681 -0.174608 0
M  V30 11 N 2.73826 3.07437 -0.764617 0
M  V30 12 N 4.05592 1.17246 -0.066772 0
M  V30 13 C 4.26504 -0.0281287 0.474896 0
M  V30 14 N 3.12707 -0.630337 0.948747 0
M  V30 15 N 5.48921 -0.707599 0.602384 0
M  V30 16 C 6.76917 -0.292046 0.196628 0
M  V30 17 C 7.08629 0.889746 -0.41609 0
M  V30 18 C 8.40963 1.20087 -0.778045 0
M  V30 19 C 9.44435 0.335815 -0.534562 0
M  V30 20 C 9.14141 -0.8541 0.0796834 0
M  V30 21 C 7.85157 -1.15745 0.432515 0
M  V30 22 C 7.58333 -2.46816 1.09798 0
M  V30 23 N -3.06463 -0.513471 -0.854112 0
M  V30 24 C -4.23708 0.0305833 -0.427128 0
M  V30 25 N -4.12373 1.19774 0.180372 0
M  V30 26 N -5.43604 -0.685894 -0.667233 0
M  V30 27 C -6.73563 -0.337525 -0.329705 0
M  V30 28 C -7.15143 0.794165 0.31799 0
M  V30 29 C -8.47335 1.06513 0.616689 0
M  V30 30 C -9.44601 0.171099 0.257895 0
M  V30 31 C -9.09023 -0.980556 -0.393261 0
M  V30 32 C -7.77291 -1.22288 -0.676271 0
M  V30 33 C -7.4447 -2.4767 -1.3781 0
M  V30 34 H -2.10389 3.72059 0.92765 0
M  V30 35 H -3.68082 3.39521 1.6558 0
M  V30 36 H 0.108344 0.0573389 -1.57985 0
M  V30 37 H -0.976641 -1.30403 -2.06488 0
M  V30 38 H 0.96858 -1.41633 2.24211 0
M  V30 39 H -0.0463687 0.0119225 1.73847 0
M  V30 40 H 2.02114 3.72722 -0.364106 0
M  V30 41 H 3.28959 3.4251 -1.56811 0
M  V30 42 H 5.39967 -1.67417 1.07984 0
M  V30 43 H 6.31947 1.60312 -0.630758 0
M  V30 44 H 8.59387 2.15237 -1.25976 0
M  V30 45 H 10.4498 0.611142 -0.828089 0
M  V30 46 H 9.96584 -1.53073 0.267595 0
M  V30 47 H 6.82316 -3.0127 0.498365 0
M  V30 48 H 8.49826 -3.08411 1.11278 0
M  V30 49 H 7.20645 -2.34867 2.12153 0
M  V30 50 H -5.30733 -1.63009 -1.18415 0
M  V30 51 H -6.443 1.53856 0.628521 0
M  V30 52 H -8.77374 1.97608 1.1339 0
M  V30 53 H -10.4963 0.340394 0.470861 0
M  V30 54 H -9.85859 -1.70797 -0.687727 0
M  V30 55 H -6.96528 -2.27669 -2.37293 0
M  V30 56 H -6.73995 -3.06693 -0.754538 0
M  V30 57 H -8.34696 -3.05642 -1.56992 0
M  V30 END ATOM
M  V30 BEGIN BOND
M  V30 1 1 1 2
M  V30 2 2 2 3
M  V30 3 1 3 4
M  V30 4 1 4 5
M  V30 5 1 5 6
M  V30 6 1 6 7
M  V30 7 1 7 8
M  V30 8 2 8 9
M  V30 9 1 9 10
M  V30 10 1 10 11
M  V30 11 2 10 12
M  V30 12 1 12 13
M  V30 13 2 13 14
M  V30 14 1 13 15
M  V30 15 1 15 16
M  V30 16 2 16 17
M  V30 17 1 17 18
M  V30 18 2 18 19
M  V30 19 1 19 20
M  V30 20 2 20 21
M  V30 21 1 21 22
M  V30 22 2 4 23
M  V30 23 1 23 24
M  V30 24 2 24 25
M  V30 25 1 24 26
M  V30 26 1 26 27
M  V30 27 2 27 28
M  V30 28 1 28 29
M  V30 29 2 29 30
M  V30 30 1 30 31
M  V30 31 2 31 32
M  V30 32 1 32 33
M  V30 33 1 25 2
M  V30 34 1 32 27
M  V30 35 1 14 8
M  V30 36 1 21 16
M  V30 37 1 1 34
M  V30 38 1 1 35
M  V30 39 1 5 36
M  V30 40 1 5 37
M  V30 41 1 7 38
M  V30 42 1 7 39
M  V30 43 1 11 40
M  V30 44 1 11 41
M  V30 45 1 15 42
M  V30 46 1 17 43
M  V30 47 1 18 44
M  V30 48 1 19 45
M  V30 49 1 20 46
M  V30 50 1 22 47
M  V30 51 1 22 48
M  V30 52 1 22 49
M  V30 53 1 26 50
M  V30 54 1 28 51
M  V30 55 1 29 52
M  V30 56 1 30 53
M  V30 57 1 31 54
M  V30 58 1 33 55
M  V30 59 1 33 56
M  V30 60 1 33 57
M  V30 END BOND
M  V30 END CTAB
M  END
