
     RDKit          3D

  0  0  0  0  0  0  0  0  0  0999 V3000
M  V30 BEGIN CTAB
M  V30 COUNTS 43 45 0 0 0
M  V30 BEGIN ATOM
M  V30 1 N -6.08234 3.5788 -0.101629 0
M  V30 2 C -5.15208 2.49321 -0.107163 0
M  V30 3 C -3.82391 2.75983 0.143169 0
M  V30 4 C -2.91431 1.73412 0.142541 0
M  V30 5 C -3.31675 0.427019 -0.107742 0
M  V30 6 C -4.62992 0.138561 -0.358655 0
M  V30 7 C -5.5367 1.1977 -0.353039 0
M  V30 8 F -6.84625 0.914445 -0.60229 0
M  V30 9 C -2.27521 -0.604926 -0.0861918 0
M  V30 10 C -2.52447 -1.93915 -0.31531 0
M  V30 11 C -1.5303 -2.89921 -0.291146 0
M  V30 12 O -1.75209 -4.11319 -0.498625 0
M  V30 13 C -0.239782 -2.48149 -0.0238638 0
M  V30 14 C 0.814695 -3.37965 0.0192791 0
M  V30 15 N 0.564573 -4.74909 -0.213923 0
M  V30 16 C 2.05686 -2.89831 0.286437 0
M  V30 17 F 3.10928 -3.75634 0.334463 0
M  V30 18 C 2.34995 -1.53471 0.525169 0
M  V30 19 C 3.73466 -1.18124 0.879273 0
M  V30 20 O 4.04433 0.151511 0.958339 0
M  V30 21 C 4.11119 1.02299 -0.107728 0
M  V30 22 O 3.89452 0.62973 -1.27067 0
M  V30 23 C 4.44456 2.43925 0.12876 0
M  V30 24 C 5.94313 2.58954 -0.17345 0
M  V30 25 Br 6.53819 4.38703 0.0860523 0
M  V30 26 C 1.26896 -0.701753 0.471264 0
M  V30 27 F 1.33207 0.63415 0.749911 0
M  V30 28 C -0.033984 -1.1388 0.199378 0
M  V30 29 O -1.02414 -0.28615 0.160535 0
M  V30 30 H -6.90626 3.55665 0.52689 0
M  V30 31 H -5.95086 4.40695 -0.724447 0
M  V30 32 H -3.47723 3.7835 0.344051 0
M  V30 33 H -1.86413 1.96975 0.344081 0
M  V30 34 H -4.96826 -0.872258 -0.556365 0
M  V30 35 H -3.53097 -2.26533 -0.524565 0
M  V30 36 H 0.601013 -5.11665 -1.17773 0
M  V30 37 H 0.347033 -5.37502 0.577497 0
M  V30 38 H 4.45847 -1.72302 0.161802 0
M  V30 39 H 3.95804 -1.72526 1.86218 0
M  V30 40 H 3.84829 3.06969 -0.573986 0
M  V30 41 H 4.30973 2.7531 1.18883 0
M  V30 42 H 6.20564 2.16322 -1.15619 0
M  V30 43 H 6.44478 1.9408 0.602245 0
M  V30 END ATOM
M  V30 BEGIN BOND
M  V30 1 1 1 2
M  V30 2 2 2 3
M  V30 3 1 3 4
M  V30 4 2 4 5
M  V30 5 1 5 6
M  V30 6 2 6 7
M  V30 7 1 7 8
M  V30 8 1 5 9
M  V30 9 2 9 10
M  V30 10 1 10 11
M  V30 11 2 11 12
M  V30 12 1 11 13
M  V30 13 2 13 14
M  V30 14 1 14 15
M  V30 15 1 14 16
M  V30 16 1 16 17
M  V30 17 2 16 18
M  V30 18 1 18 19
M  V30 19 1 19 20
M  V30 20 1 20 21
M  V30 21 2 21 22
M  V30 22 1 21 23
M  V30 23 1 23 24
M  V30 24 1 24 25
M  V30 25 1 18 26
M  V30 26 1 26 27
M  V30 27 2 26 28
M  V30 28 1 28 29
M  V30 29 1 7 2
M  V30 30 1 29 9
M  V30 31 1 28 13
M  V30 32 1 1 30
M  V30 33 1 1 31
M  V30 34 1 3 32
M  V30 35 1 4 33
M  V30 36 1 6 34
M  V30 37 1 10 35
M  V30 38 1 15 36
M  V30 39 1 15 37
M  V30 40 1 19 38
M  V30 41 1 19 39
M  V30 42 1 23 40
M  V30 43 1 23 41
M  V30 44 1 24 42
M  V30 45 1 24 43
M  V30 END BOND
M  V30 END CTAB
M  END
