
     RDKit          3D

  0  0  0  0  0  0  0  0  0  0999 V3000
M  V30 BEGIN CTAB
M  V30 COUNTS 41 42 0 0 0
M  V30 BEGIN ATOM
M  V30 1 Cl 7.16978 3.26967 -0.911902 0
M  V30 2 C 5.96169 2.00649 -0.806479 0
M  V30 3 C 6.0023 1.12782 0.250554 0
M  V30 4 C 5.04518 0.143555 0.31606 0
M  V30 5 C 4.04219 -0.00788378 -0.627669 0
M  V30 6 C 4.00158 0.870775 -1.68359 0
M  V30 7 C 4.96515 1.86407 -1.75344 0
M  V30 8 Cl 2.77095 0.778624 -2.95631 0
M  V30 9 C 3.02777 -1.06719 -0.516384 0
M  V30 10 N 1.74019 -0.573117 -0.0394988 0
M  V30 11 C 0.499981 -0.926657 -0.604686 0
M  V30 12 O 0.490577 -1.7194 -1.58376 0
M  V30 13 C -0.823352 -0.42831 -0.126421 0
M  V30 14 S -2.17195 -1.06321 -1.1283 0
M  V30 15 C -3.70968 -0.387793 -0.548104 0
M  V30 16 N -3.70314 0.463773 0.484599 0
M  V30 17 C -4.79569 1.0147 0.992086 0
M  V30 18 N -4.84243 1.91904 2.0812 0
M  V30 19 C -5.99935 0.657563 0.383555 0
M  V30 20 C -6.02517 -0.205803 -0.666073 0
M  V30 21 N -4.88721 -0.736158 -1.14211 0
M  V30 22 N -7.29703 -0.517208 -1.22955 0
M  V30 23 C -1.02824 -0.991688 1.28991 0
M  V30 24 C 3.50062 -2.00986 0.609577 0
M  V30 25 H 6.79478 1.2588 0.983836 0
M  V30 26 H 5.11626 -0.537139 1.18104 0
M  V30 27 H 4.90442 2.53504 -2.5957 0
M  V30 28 H 2.9264 -1.66763 -1.4232 0
M  V30 29 H 1.70666 0.0977064 0.786167 0
M  V30 30 H -0.841236 0.675699 0.00102898 0
M  V30 31 H -4.22266 1.68512 2.90072 0
M  V30 32 H -5.43831 2.77257 2.11089 0
M  V30 33 H -6.92267 1.07091 0.751065 0
M  V30 34 H -7.4563 -0.267914 -2.22451 0
M  V30 35 H -8.06801 -0.975652 -0.70658 0
M  V30 36 H 0.00271755 -0.985247 1.75056 0
M  V30 37 H -1.74799 -0.411134 1.86462 0
M  V30 38 H -1.36552 -2.04927 1.1378 0
M  V30 39 H 2.82585 -2.88853 0.61299 0
M  V30 40 H 3.31802 -1.45533 1.55013 0
M  V30 41 H 4.53287 -2.3398 0.456833 0
M  V30 END ATOM
M  V30 BEGIN BOND
M  V30 1 1 1 2
M  V30 2 2 2 3
M  V30 3 1 3 4
M  V30 4 2 4 5
M  V30 5 1 5 6
M  V30 6 2 6 7
M  V30 7 1 6 8
M  V30 8 1 5 9
M  V30 9 1 9 10
M  V30 10 1 10 11
M  V30 11 2 11 12
M  V30 12 1 11 13
M  V30 13 1 13 14
M  V30 14 1 14 15
M  V30 15 2 15 16
M  V30 16 1 16 17
M  V30 17 1 17 18
M  V30 18 2 17 19
M  V30 19 1 19 20
M  V30 20 2 20 21
M  V30 21 1 20 22
M  V30 22 1 13 23
M  V30 23 1 9 24
M  V30 24 1 7 2
M  V30 25 1 21 15
M  V30 26 1 3 25
M  V30 27 1 4 26
M  V30 28 1 7 27
M  V30 29 1 9 28
M  V30 30 1 10 29
M  V30 31 1 13 30
M  V30 32 1 18 31
M  V30 33 1 18 32
M  V30 34 1 19 33
M  V30 35 1 22 34
M  V30 36 1 22 35
M  V30 37 1 23 36
M  V30 38 1 23 37
M  V30 39 1 23 38
M  V30 40 1 24 39
M  V30 41 1 24 40
M  V30 42 1 24 41
M  V30 END BOND
M  V30 END CTAB
M  END
