
     RDKit          3D

  0  0  0  0  0  0  0  0  0  0999 V3000
M  V30 BEGIN CTAB
M  V30 COUNTS 28 29 0 0 0
M  V30 BEGIN ATOM
M  V30 1 N -2.90726 -1.17063 -0.670256 0
M  V30 2 C -1.70091 -1.04041 0.114488 0 CFG=1
M  V30 3 C -0.640025 -1.99182 -0.322449 0
M  V30 4 C 0.630147 -1.69309 0.470523 0
M  V30 5 N 1.07434 -0.378408 -0.0217177 0
M  V30 6 C 0.111646 0.675834 0.0600744 0
M  V30 7 C -1.22522 0.355296 0.109598 0
M  V30 8 C -2.12756 1.42357 0.178494 0
M  V30 9 C -1.69605 2.73797 0.196766 0
M  V30 10 C -0.342695 3.04524 0.147356 0
M  V30 11 C 0.545239 1.99231 0.0794132 0
M  V30 12 S 2.64138 -0.206977 -0.626946 0
M  V30 13 O 2.8544 -1.33724 -1.66065 0
M  V30 14 O 2.91762 1.03592 -1.39439 0
M  V30 15 N 3.85089 -0.538582 0.582787 0
M  V30 16 H -2.80958 -2.02439 -1.26126 0
M  V30 17 H -3.73373 -1.3089 -0.0352952 0
M  V30 18 H -1.92372 -1.28448 1.19028 0
M  V30 19 H -0.946751 -3.0366 -0.128598 0
M  V30 20 H -0.372905 -1.8293 -1.39493 0
M  V30 21 H 1.37981 -2.42609 0.190277 0
M  V30 22 H 0.389441 -1.62994 1.53826 0
M  V30 23 H -3.17074 1.17771 0.216586 0
M  V30 24 H -2.41771 3.54986 0.250403 0
M  V30 25 H -0.00983603 4.07321 0.162194 0
M  V30 26 H 1.59061 2.20665 0.0548731 0
M  V30 27 H 4.64555 0.116574 0.470326 0
M  V30 28 H 3.3936 -0.493284 1.50379 0
M  V30 END ATOM
M  V30 BEGIN BOND
M  V30 1 1 1 2
M  V30 2 1 2 3
M  V30 3 1 3 4
M  V30 4 1 4 5
M  V30 5 1 5 6
M  V30 6 2 6 7
M  V30 7 1 7 8
M  V30 8 2 8 9
M  V30 9 1 9 10
M  V30 10 2 10 11
M  V30 11 1 5 12
M  V30 12 2 12 13
M  V30 13 2 12 14
M  V30 14 1 12 15
M  V30 15 1 7 2
M  V30 16 1 11 6
M  V30 17 1 1 16
M  V30 18 1 1 17
M  V30 19 1 2 18 CFG=1
M  V30 20 1 3 19
M  V30 21 1 3 20
M  V30 22 1 4 21
M  V30 23 1 4 22
M  V30 24 1 8 23
M  V30 25 1 9 24
M  V30 26 1 10 25
M  V30 27 1 11 26
M  V30 28 1 15 27
M  V30 29 1 15 28
M  V30 END BOND
M  V30 END CTAB
M  END
