
     RDKit          3D

  0  0  0  0  0  0  0  0  0  0999 V3000
M  V30 BEGIN CTAB
M  V30 COUNTS 63 69 0 0 0
M  V30 BEGIN ATOM
M  V30 1 C -3.89506 -2.10281 2.53003 0
M  V30 2 C -4.03149 -2.39686 1.10343 0
M  V30 3 C -3.53237 -1.54466 0.149628 0
M  V30 4 N -3.68495 -1.83889 -1.13111 0
M  V30 5 C -4.30722 -2.93715 -1.57514 0
M  V30 6 C -4.82167 -3.81762 -0.649136 0
M  V30 7 C -4.67964 -3.54024 0.688115 0
M  V30 8 N -2.85449 -0.329004 0.494253 0
M  V30 9 C -1.60678 -0.276465 0.946348 0
M  V30 10 C -0.782848 -1.49282 1.06476 0
M  V30 11 N 0.448246 -1.41493 0.267701 0
M  V30 12 N 1.60185 -0.91761 0.65937 0
M  V30 13 C 2.53856 -0.991742 -0.320801 0
M  V30 14 C 1.93077 -1.57477 -1.40649 0
M  V30 15 C 2.34531 -1.90083 -2.68187 0
M  V30 16 N 3.65217 -1.63136 -3.17008 0
M  V30 17 N 1.45726 -2.47133 -3.51924 0
M  V30 18 C 0.211192 -2.72138 -3.14996 0
M  V30 19 N -0.194537 -2.40263 -1.91083 0
M  V30 20 C 0.615022 -1.8266 -0.992405 0
M  V30 21 C 3.89952 -0.512266 -0.242967 0
M  V30 22 C 4.98264 -1.31909 -0.424942 0
M  V30 23 C 6.24493 -0.802213 -0.362649 0
M  V30 24 C 6.40233 0.564943 -0.108716 0
M  V30 25 O 7.46185 1.32499 0.00527383 0
M  V30 26 C 7.14402 2.5635 0.248262 0
M  V30 27 N 8.09213 3.62108 0.421622 0
M  V30 28 N 5.80921 2.63265 0.298693 0
M  V30 29 C 5.33347 1.402 0.0793907 0
M  V30 30 C 4.07149 0.837997 0.00775745 0
M  V30 31 C -1.0719 0.947333 1.27856 0
M  V30 32 C -1.7599 2.13174 1.16785 0
M  V30 33 C -1.21488 3.35178 1.50299 0
M  V30 34 C -1.90507 4.53788 1.39135 0
M  V30 35 C -3.19365 4.47143 0.921723 0
M  V30 36 C -3.77832 3.2472 0.571905 0
M  V30 37 C -5.15887 3.19077 0.0704443 0
M  V30 38 C -3.06212 2.06773 0.693641 0
M  V30 39 C -3.57278 0.833791 0.369573 0
M  V30 40 O -4.73323 0.745478 -0.0565924 0
M  V30 41 H -3.7069 -1.01957 2.73157 0
M  V30 42 H -4.7959 -2.44757 3.0916 0
M  V30 43 H -3.01828 -2.64649 2.96153 0
M  V30 44 H -4.41524 -3.14888 -2.64423 0
M  V30 45 H -5.33427 -4.72076 -0.925201 0
M  V30 46 H -5.08868 -4.24024 1.42793 0
M  V30 47 H -1.38064 -2.39118 0.732535 0
M  V30 48 H -0.465001 -1.69767 2.09269 0
M  V30 49 H 4.00801 -0.678661 -3.40197 0
M  V30 50 H 4.31026 -2.42829 -3.31096 0
M  V30 51 H -0.513265 -3.18629 -3.82868 0
M  V30 52 H 4.89945 -2.38897 -0.605885 0
M  V30 53 H 7.14708 -1.38726 -0.498487 0
M  V30 54 H 8.7428 3.62985 1.22918 0
M  V30 55 H 8.1476 4.40106 -0.257848 0
M  V30 56 H 3.21195 1.47553 0.152314 0
M  V30 57 H -0.0580115 1.00512 1.64867 0
M  V30 58 H -0.194699 3.39227 1.87341 0
M  V30 59 H -1.4413 5.49886 1.66769 0
M  V30 60 H -3.77923 5.37425 0.81514 0
M  V30 61 H -5.52389 4.268 0.0633083 0
M  V30 62 H -5.26291 2.91385 -0.996184 0
M  V30 63 H -5.88912 2.71403 0.752119 0
M  V30 END ATOM
M  V30 BEGIN BOND
M  V30 1 1 1 2
M  V30 2 2 2 3
M  V30 3 1 3 4
M  V30 4 2 4 5
M  V30 5 1 5 6
M  V30 6 2 6 7
M  V30 7 1 3 8
M  V30 8 1 8 9
M  V30 9 1 9 10
M  V30 10 1 10 11
M  V30 11 1 11 12
M  V30 12 2 12 13
M  V30 13 1 13 14
M  V30 14 2 14 15
M  V30 15 1 15 16
M  V30 16 1 15 17
M  V30 17 2 17 18
M  V30 18 1 18 19
M  V30 19 2 19 20
M  V30 20 1 13 21
M  V30 21 2 21 22
M  V30 22 1 22 23
M  V30 23 2 23 24
M  V30 24 1 24 25
M  V30 25 1 25 26
M  V30 26 1 26 27
M  V30 27 2 26 28
M  V30 28 1 28 29
M  V30 29 2 29 30
M  V30 30 2 9 31
M  V30 31 1 31 32
M  V30 32 2 32 33
M  V30 33 1 33 34
M  V30 34 2 34 35
M  V30 35 1 35 36
M  V30 36 1 36 37
M  V30 37 2 36 38
M  V30 38 1 38 39
M  V30 39 2 39 40
M  V30 40 1 7 2
M  V30 41 1 39 8
M  V30 42 1 20 11
M  V30 43 1 30 21
M  V30 44 1 38 32
M  V30 45 1 20 14
M  V30 46 1 29 24
M  V30 47 1 1 41
M  V30 48 1 1 42
M  V30 49 1 1 43
M  V30 50 1 5 44
M  V30 51 1 6 45
M  V30 52 1 7 46
M  V30 53 1 10 47
M  V30 54 1 10 48
M  V30 55 1 16 49
M  V30 56 1 16 50
M  V30 57 1 18 51
M  V30 58 1 22 52
M  V30 59 1 23 53
M  V30 60 1 27 54
M  V30 61 1 27 55
M  V30 62 1 30 56
M  V30 63 1 31 57
M  V30 64 1 33 58
M  V30 65 1 34 59
M  V30 66 1 35 60
M  V30 67 1 37 61
M  V30 68 1 37 62
M  V30 69 1 37 63
M  V30 END BOND
M  V30 END CTAB
M  END
