
     RDKit          3D

  0  0  0  0  0  0  0  0  0  0999 V3000
M  V30 BEGIN CTAB
M  V30 COUNTS 30 31 0 0 0
M  V30 BEGIN ATOM
M  V30 1 N -2.94929 -0.941972 -1.38087 0
M  V30 2 C -1.64699 -1.23393 -0.758827 0
M  V30 3 C -1.93868 -1.72103 0.638763 0
M  V30 4 C -1.99339 -0.456207 1.4208 0
M  V30 5 O -2.28385 -0.405235 2.63843 0
M  V30 6 N -1.67126 0.664933 0.588883 0
M  V30 7 C -0.968989 0.10802 -0.553555 0
M  V30 8 C 0.485789 0.0243129 -0.379398 0
M  V30 9 C 1.26783 -1.07482 -0.64829 0
M  V30 10 C 2.64834 -1.04974 -0.452768 0
M  V30 11 C 3.27977 0.0805992 0.0182353 0
M  V30 12 C 2.52244 1.18467 0.292096 0
M  V30 13 C 1.16014 1.1347 0.0904461 0
M  V30 14 N 4.67714 0.159759 0.234575 0
M  V30 15 C -1.99822 2.03359 0.851253 0
M  V30 16 H -3.31259 -0.0717492 -0.888372 0
M  V30 17 H -2.69816 -0.589446 -2.34803 0
M  V30 18 H -1.14341 -1.92403 -1.41083 0
M  V30 19 H -1.14538 -2.34129 1.05877 0
M  V30 20 H -2.9089 -2.21559 0.737824 0
M  V30 21 H -1.17644 0.771835 -1.41689 0
M  V30 22 H 0.796701 -1.96014 -1.01313 0
M  V30 23 H 3.24901 -1.91279 -0.665747 0
M  V30 24 H 2.99788 2.0914 0.665711 0
M  V30 25 H 0.571608 2.03763 0.31454 0
M  V30 26 H 5.33785 -0.0519798 -0.539731 0
M  V30 27 H 5.05593 0.429487 1.16661 0
M  V30 28 H -1.37431 2.39606 1.70448 0
M  V30 29 H -3.08422 2.20145 1.02495 0
M  V30 30 H -1.75635 2.63151 -0.0694457 0
M  V30 END ATOM
M  V30 BEGIN BOND
M  V30 1 1 1 2
M  V30 2 1 2 3
M  V30 3 1 3 4
M  V30 4 2 4 5
M  V30 5 1 4 6
M  V30 6 1 6 7
M  V30 7 1 7 8
M  V30 8 2 8 9
M  V30 9 1 9 10
M  V30 10 2 10 11
M  V30 11 1 11 12
M  V30 12 2 12 13
M  V30 13 1 11 14
M  V30 14 1 6 15
M  V30 15 1 7 2
M  V30 16 1 13 8
M  V30 17 1 1 16
M  V30 18 1 1 17
M  V30 19 1 2 18
M  V30 20 1 3 19
M  V30 21 1 3 20
M  V30 22 1 7 21
M  V30 23 1 9 22
M  V30 24 1 10 23
M  V30 25 1 12 24
M  V30 26 1 13 25
M  V30 27 1 14 26
M  V30 28 1 14 27
M  V30 29 1 15 28
M  V30 30 1 15 29
M  V30 31 1 15 30
M  V30 END BOND
M  V30 END CTAB
M  END
