
     RDKit          3D

  0  0  0  0  0  0  0  0  0  0999 V3000
M  V30 BEGIN CTAB
M  V30 COUNTS 23 23 0 0 0
M  V30 BEGIN ATOM
M  V30 1 C 2.95983 -0.927479 -0.580252 0
M  V30 2 C 2.95731 -0.212717 0.748343 0
M  V30 3 O 2.02328 0.801975 0.741174 0
M  V30 4 C 0.664742 0.733495 0.564389 0
M  V30 5 C 0.00372998 -0.45434 0.359174 0
M  V30 6 C -1.3834 -0.530935 0.178486 0
M  V30 7 N -2.01837 -1.78559 -0.0305451 0
M  V30 8 C -2.14706 0.61634 0.202227 0
M  V30 9 C -1.50195 1.81313 0.406546 0
M  V30 10 C -0.137846 1.87785 0.583061 0
M  V30 11 Br 0.751249 3.54073 0.866057 0
M  V30 12 N -3.55035 0.574225 0.023122 0
M  V30 13 H 2.73921 -2.00991 -0.416505 0
M  V30 14 H 3.91271 -0.791182 -1.13004 0
M  V30 15 H 2.17062 -0.478618 -1.21088 0
M  V30 16 H 2.79403 -0.920326 1.59342 0
M  V30 17 H 3.97053 0.228488 0.890254 0
M  V30 18 H 0.527572 -1.41388 0.328748 0
M  V30 19 H -1.4792 -2.56893 -0.44136 0
M  V30 20 H -3.01188 -1.94767 0.215538 0
M  V30 21 H -2.11053 2.72854 0.425646 0
M  V30 22 H -4.14539 -0.0845287 0.574779 0
M  V30 23 H -3.98881 1.21133 -0.669615 0
M  V30 END ATOM
M  V30 BEGIN BOND
M  V30 1 1 1 2
M  V30 2 1 2 3
M  V30 3 1 3 4
M  V30 4 2 4 5
M  V30 5 1 5 6
M  V30 6 1 6 7
M  V30 7 2 6 8
M  V30 8 1 8 9
M  V30 9 2 9 10
M  V30 10 1 10 11
M  V30 11 1 8 12
M  V30 12 1 10 4
M  V30 13 1 1 13
M  V30 14 1 1 14
M  V30 15 1 1 15
M  V30 16 1 2 16
M  V30 17 1 2 17
M  V30 18 1 5 18
M  V30 19 1 7 19
M  V30 20 1 7 20
M  V30 21 1 9 21
M  V30 22 1 12 22
M  V30 23 1 12 23
M  V30 END BOND
M  V30 END CTAB
M  END
