
     RDKit          3D

  0  0  0  0  0  0  0  0  0  0999 V3000
M  V30 BEGIN CTAB
M  V30 COUNTS 29 30 0 0 0
M  V30 BEGIN ATOM
M  V30 1 N 4.05653 1.1775 1.8625 0
M  V30 2 C 3.28171 0.394316 0.970497 0
M  V30 3 C 2.04294 -0.106323 1.28877 0
M  V30 4 C 1.31965 -0.864086 0.393994 0
M  V30 5 C 1.88832 -1.10321 -0.840827 0
M  V30 6 C 3.12526 -0.616277 -1.18873 0
M  V30 7 C 3.83043 0.13953 -0.276838 0
M  V30 8 S -0.2391 -1.53479 0.699862 0
M  V30 9 O -0.32081 -2.88184 0.0202181 0
M  V30 10 O -0.334747 -1.81791 2.18556 0
M  V30 11 C -1.54504 -0.499935 0.260981 0
M  V30 12 C -2.03381 0.379506 1.2027 0
M  V30 13 C -3.0841 1.24528 0.92504 0
M  V30 14 C -3.63809 1.20818 -0.331125 0
M  V30 15 C -3.18256 0.339603 -1.3188 0
M  V30 16 N -3.76956 0.317987 -2.61 0
M  V30 17 C -2.13532 -0.498119 -0.984525 0
M  V30 18 H 4.69966 1.94048 1.57766 0
M  V30 19 H 3.97474 0.972665 2.87769 0
M  V30 20 H 1.62231 0.0899005 2.24703 0
M  V30 21 H 1.3792 -1.69727 -1.61156 0
M  V30 22 H 3.59499 -0.787772 -2.14831 0
M  V30 23 H 4.8242 0.544092 -0.525332 0
M  V30 24 H -1.60317 0.423811 2.2139 0
M  V30 25 H -3.45713 1.93007 1.67433 0
M  V30 26 H -4.4675 1.85732 -0.628048 0
M  V30 27 H -3.24017 0.261225 -3.49742 0
M  V30 28 H -4.80942 0.361915 -2.68496 0
M  V30 29 H -1.77942 -1.17586 -1.75427 0
M  V30 END ATOM
M  V30 BEGIN BOND
M  V30 1 1 1 2
M  V30 2 2 2 3
M  V30 3 1 3 4
M  V30 4 2 4 5
M  V30 5 1 5 6
M  V30 6 2 6 7
M  V30 7 1 4 8
M  V30 8 2 8 9
M  V30 9 2 8 10
M  V30 10 1 8 11
M  V30 11 2 11 12
M  V30 12 1 12 13
M  V30 13 2 13 14
M  V30 14 1 14 15
M  V30 15 1 15 16
M  V30 16 2 15 17
M  V30 17 1 7 2
M  V30 18 1 17 11
M  V30 19 1 1 18
M  V30 20 1 1 19
M  V30 21 1 3 20
M  V30 22 1 5 21
M  V30 23 1 6 22
M  V30 24 1 7 23
M  V30 25 1 12 24
M  V30 26 1 13 25
M  V30 27 1 14 26
M  V30 28 1 16 27
M  V30 29 1 16 28
M  V30 30 1 17 29
M  V30 END BOND
M  V30 END CTAB
M  END
