
     RDKit          3D

  0  0  0  0  0  0  0  0  0  0999 V3000
M  V30 BEGIN CTAB
M  V30 COUNTS 49 50 0 0 0
M  V30 BEGIN ATOM
M  V30 1 N 8.96951 -2.51744 1.10299 0
M  V30 2 C 8.16392 -1.51789 0.506558 0
M  V30 3 N 6.82246 -1.58385 0.472378 0
M  V30 4 C 6.04847 -0.66287 -0.113306 0
M  V30 5 C 4.55594 -0.706012 -0.10867 0
M  V30 6 S 3.87914 0.569905 0.952025 0
M  V30 7 C 2.09382 0.530521 1.06538 0
M  V30 8 C 1.50423 0.55011 -0.338059 0
M  V30 9 C 0.0197392 0.662769 -0.359145 0
M  V30 10 O -0.692214 -0.276985 0.39466 0
M  V30 11 C -2.08057 -0.172026 0.34989 0
M  V30 12 C -2.8748 -1.01947 1.09519 0
M  V30 13 C -4.26942 -0.94035 1.06956 0
M  V30 14 C -4.89523 0.0198285 0.268948 0
M  V30 15 C -4.07195 0.846249 -0.461225 0
M  V30 16 C -2.68072 0.779021 -0.442679 0
M  V30 17 C -6.37621 0.126675 0.243855 0
M  V30 18 C -6.79697 1.11701 -0.819021 0
M  V30 19 C -7.08164 -1.18805 0.125077 0
M  V30 20 C -6.7996 0.75796 1.56641 0
M  V30 21 N 6.69822 0.391569 -0.697249 0
M  V30 22 C 8.03767 0.500106 -0.685351 0
M  V30 23 N 8.74371 -0.459949 -0.0821233 0
M  V30 24 N 8.71074 1.61416 -1.30133 0
M  V30 25 H 8.93265 -2.7078 2.10584 0
M  V30 26 H 9.60342 -3.0639 0.496739 0
M  V30 27 H 4.2397 -1.70583 0.204257 0
M  V30 28 H 4.25079 -0.599484 -1.18751 0
M  V30 29 H 1.75222 1.45946 1.56081 0
M  V30 30 H 1.77226 -0.35952 1.646 0
M  V30 31 H 1.9051 1.45393 -0.854945 0
M  V30 32 H 1.89094 -0.305572 -0.919866 0
M  V30 33 H -0.265649 0.602624 -1.45888 0
M  V30 34 H -0.232174 1.73367 -0.0838335 0
M  V30 35 H -2.45162 -1.79044 1.73422 0
M  V30 36 H -4.89551 -1.60053 1.66078 0
M  V30 37 H -4.52835 1.59431 -1.10023 0
M  V30 38 H -2.0958 1.46476 -1.04449 0
M  V30 39 H -6.35287 2.09141 -0.549723 0
M  V30 40 H -7.90997 1.27126 -0.770431 0
M  V30 41 H -6.44292 0.853091 -1.84376 0
M  V30 42 H -7.40504 -1.38769 -0.915449 0
M  V30 43 H -8.05632 -1.07569 0.714248 0
M  V30 44 H -6.55023 -2.03475 0.586536 0
M  V30 45 H -7.89172 0.927197 1.45598 0
M  V30 46 H -6.23203 1.6849 1.66969 0
M  V30 47 H -6.54811 0.0548336 2.37267 0
M  V30 48 H 8.70782 1.66644 -2.32456 0
M  V30 49 H 9.17515 2.35232 -0.723521 0
M  V30 END ATOM
M  V30 BEGIN BOND
M  V30 1 1 1 2
M  V30 2 2 2 3
M  V30 3 1 3 4
M  V30 4 1 4 5
M  V30 5 1 5 6
M  V30 6 1 6 7
M  V30 7 1 7 8
M  V30 8 1 8 9
M  V30 9 1 9 10
M  V30 10 1 10 11
M  V30 11 2 11 12
M  V30 12 1 12 13
M  V30 13 2 13 14
M  V30 14 1 14 15
M  V30 15 2 15 16
M  V30 16 1 14 17
M  V30 17 1 17 18
M  V30 18 1 17 19
M  V30 19 1 17 20
M  V30 20 2 4 21
M  V30 21 1 21 22
M  V30 22 2 22 23
M  V30 23 1 22 24
M  V30 24 1 23 2
M  V30 25 1 16 11
M  V30 26 1 1 25
M  V30 27 1 1 26
M  V30 28 1 5 27
M  V30 29 1 5 28
M  V30 30 1 7 29
M  V30 31 1 7 30
M  V30 32 1 8 31
M  V30 33 1 8 32
M  V30 34 1 9 33
M  V30 35 1 9 34
M  V30 36 1 12 35
M  V30 37 1 13 36
M  V30 38 1 15 37
M  V30 39 1 16 38
M  V30 40 1 18 39
M  V30 41 1 18 40
M  V30 42 1 18 41
M  V30 43 1 19 42
M  V30 44 1 19 43
M  V30 45 1 19 44
M  V30 46 1 20 45
M  V30 47 1 20 46
M  V30 48 1 20 47
M  V30 49 1 24 48
M  V30 50 1 24 49
M  V30 END BOND
M  V30 END CTAB
M  END
