
     RDKit          3D

  0  0  0  0  0  0  0  0  0  0999 V3000
M  V30 BEGIN CTAB
M  V30 COUNTS 18 18 0 0 0
M  V30 BEGIN ATOM
M  V30 1 C -2.32928 -0.578841 0.0549378 0
M  V30 2 C -0.847553 -0.388452 -0.00994929 0
M  V30 3 C -0.00999534 -1.44562 -0.227414 0
M  V30 4 C 1.34842 -1.22699 -0.28004 0
M  V30 5 C 1.80002 0.0631414 -0.108561 0
M  V30 6 N 3.177 0.379877 -0.147125 0
M  V30 7 N 0.954092 1.10615 0.107234 0
M  V30 8 C -0.370308 0.914549 0.161885 0
M  V30 9 N -1.28816 1.97239 0.384543 0
M  V30 10 H -2.78411 0.0127811 0.870775 0
M  V30 11 H -2.81043 -0.435573 -0.926093 0
M  V30 12 H -2.49217 -1.65185 0.331186 0
M  V30 13 H -0.454234 -2.43312 -0.352404 0
M  V30 14 H 2.01654 -2.04895 -0.4502 0
M  V30 15 H 3.53418 0.935053 -0.944112 0
M  V30 16 H 3.82619 0.0725202 0.5945 0
M  V30 17 H -0.981396 2.86547 0.818403 0
M  V30 18 H -2.2888 1.88747 0.122434 0
M  V30 END ATOM
M  V30 BEGIN BOND
M  V30 1 1 1 2
M  V30 2 2 2 3
M  V30 3 1 3 4
M  V30 4 2 4 5
M  V30 5 1 5 6
M  V30 6 1 5 7
M  V30 7 2 7 8
M  V30 8 1 8 9
M  V30 9 1 8 2
M  V30 10 1 1 10
M  V30 11 1 1 11
M  V30 12 1 1 12
M  V30 13 1 3 13
M  V30 14 1 4 14
M  V30 15 1 6 15
M  V30 16 1 6 16
M  V30 17 1 9 17
M  V30 18 1 9 18
M  V30 END BOND
M  V30 END CTAB
M  END
