
     RDKit          3D

  0  0  0  0  0  0  0  0  0  0999 V3000
M  V30 BEGIN CTAB
M  V30 COUNTS 20 20 0 0 0
M  V30 BEGIN ATOM
M  V30 1 N -2.30482 -1.7342 0.335912 0
M  V30 2 C -1.97896 -0.374824 -0.0567533 0
M  V30 3 C -0.487386 -0.279584 -0.00738295 0
M  V30 4 C 0.320107 -1.33854 0.35406 0
M  V30 5 N 1.65541 -1.19891 0.381858 0
M  V30 6 C 2.27643 -0.0457245 0.0667754 0
M  V30 7 N 1.49439 0.990063 -0.286355 0
M  V30 8 C 0.162858 0.900981 -0.329192 0
M  V30 9 C -0.629577 2.06709 -0.722134 0
M  V30 10 N 3.69684 0.0537969 0.111139 0
M  V30 11 H -3.29542 -1.82262 0.650186 0
M  V30 12 H -1.99772 -2.43881 -0.340974 0
M  V30 13 H -2.34663 -0.250909 -1.09784 0
M  V30 14 H -2.46789 0.334365 0.616556 0
M  V30 15 H -0.182029 -2.26971 0.608462 0
M  V30 16 H -1.70118 1.96259 -0.633173 0
M  V30 17 H -0.358039 2.3349 -1.76606 0
M  V30 18 H -0.326999 2.91964 -0.0516084 0
M  V30 19 H 4.32202 -0.758672 -0.141033 0
M  V30 20 H 4.14859 0.949092 0.399276 0
M  V30 END ATOM
M  V30 BEGIN BOND
M  V30 1 1 1 2
M  V30 2 1 2 3
M  V30 3 2 3 4
M  V30 4 1 4 5
M  V30 5 2 5 6
M  V30 6 1 6 7
M  V30 7 2 7 8
M  V30 8 1 8 9
M  V30 9 1 6 10
M  V30 10 1 8 3
M  V30 11 1 1 11
M  V30 12 1 1 12
M  V30 13 1 2 13
M  V30 14 1 2 14
M  V30 15 1 4 15
M  V30 16 1 9 16
M  V30 17 1 9 17
M  V30 18 1 9 18
M  V30 19 1 10 19
M  V30 20 1 10 20
M  V30 END BOND
M  V30 END CTAB
M  END
