
     RDKit          3D

  0  0  0  0  0  0  0  0  0  0999 V3000
M  V30 BEGIN CTAB
M  V30 COUNTS 40 43 0 0 0
M  V30 BEGIN ATOM
M  V30 1 N -3.78902 -3.84153 0.23924 0
M  V30 2 C -2.62588 -3.06517 0.156501 0
M  V30 3 C -1.65932 -3.12475 1.12991 0
M  V30 4 C -0.538324 -2.36453 1.03331 0
M  V30 5 C -0.290106 -1.48926 -0.0328464 0
M  V30 6 C -1.25283 -1.43038 -1.00188 0
M  V30 7 C -2.39912 -2.20128 -0.912629 0
M  V30 8 C 0.941376 -0.699217 -0.069611 0
M  V30 9 N 2.16523 -1.27316 -0.113772 0
M  V30 10 C 3.30368 -0.556545 -0.146206 0
M  V30 11 C 4.56438 -1.11761 -0.191414 0
M  V30 12 C 5.7178 -0.391416 -0.22394 0
M  V30 13 C 5.65294 0.990004 -0.212131 0
M  V30 14 C 4.41063 1.59193 -0.167374 0
M  V30 15 C 3.25081 0.825036 -0.134838 0
M  V30 16 N 2.02775 1.40259 -0.0907653 0
M  V30 17 C 0.893227 0.679352 -0.058608 0
M  V30 18 C -0.360303 1.41356 -0.0142009 0
M  V30 19 C -1.20766 1.27631 1.05843 0
M  V30 20 C -2.41488 1.97345 1.12119 0
M  V30 21 C -2.72622 2.81472 0.0515104 0
M  V30 22 N -3.96355 3.50754 0.153002 0
M  V30 23 C -1.87868 2.95222 -1.02207 0
M  V30 24 C -0.695532 2.25103 -1.05417 0
M  V30 25 H -4.70289 -3.37472 0.398789 0
M  V30 26 H -3.77138 -4.86704 0.147238 0
M  V30 27 H -1.75581 -3.7787 2.00858 0
M  V30 28 H 0.251543 -2.39102 1.79663 0
M  V30 29 H -1.11034 -0.77258 -1.84378 0
M  V30 30 H -3.17813 -2.1698 -1.67286 0
M  V30 31 H 4.61694 -2.1975 -0.200344 0
M  V30 32 H 6.71513 -0.821366 -0.259619 0
M  V30 33 H 6.57071 1.5805 -0.23762 0
M  V30 34 H 4.34793 2.66589 -0.157814 0
M  V30 35 H -0.982505 0.631006 1.8933 0
M  V30 36 H -3.08493 1.86871 1.96328 0
M  V30 37 H -4.79247 3.01939 0.541569 0
M  V30 38 H -4.02088 4.49632 -0.164376 0
M  V30 39 H -2.17877 3.61753 -1.81472 0
M  V30 40 H -0.0505457 2.3705 -1.8949 0
M  V30 END ATOM
M  V30 BEGIN BOND
M  V30 1 1 1 2
M  V30 2 2 2 3
M  V30 3 1 3 4
M  V30 4 2 4 5
M  V30 5 1 5 6
M  V30 6 2 6 7
M  V30 7 1 5 8
M  V30 8 2 8 9
M  V30 9 1 9 10
M  V30 10 2 10 11
M  V30 11 1 11 12
M  V30 12 2 12 13
M  V30 13 1 13 14
M  V30 14 2 14 15
M  V30 15 1 15 16
M  V30 16 2 16 17
M  V30 17 1 17 18
M  V30 18 2 18 19
M  V30 19 1 19 20
M  V30 20 2 20 21
M  V30 21 1 21 22
M  V30 22 1 21 23
M  V30 23 2 23 24
M  V30 24 1 7 2
M  V30 25 1 17 8
M  V30 26 1 24 18
M  V30 27 1 15 10
M  V30 28 1 1 25
M  V30 29 1 1 26
M  V30 30 1 3 27
M  V30 31 1 4 28
M  V30 32 1 6 29
M  V30 33 1 7 30
M  V30 34 1 11 31
M  V30 35 1 12 32
M  V30 36 1 13 33
M  V30 37 1 14 34
M  V30 38 1 19 35
M  V30 39 1 20 36
M  V30 40 1 22 37
M  V30 41 1 22 38
M  V30 42 1 23 39
M  V30 43 1 24 40
M  V30 END BOND
M  V30 END CTAB
M  END
