
     RDKit          3D

  0  0  0  0  0  0  0  0  0  0999 V3000
M  V30 BEGIN CTAB
M  V30 COUNTS 54 56 0 0 0
M  V30 BEGIN ATOM
M  V30 1 C 1.16389 -0.0812334 1.81628 0
M  V30 2 N 0.494909 0.167784 0.555781 0
M  V30 3 C -0.965354 -0.00223736 0.58061 0 CFG=2
M  V30 4 C -1.35613 -1.02923 -0.381509 0
M  V30 5 N -2.73389 -1.37993 -0.449858 0
M  V30 6 C -3.2496 -2.09784 0.680758 0
M  V30 7 C -3.99203 -3.30614 0.0921882 0
M  V30 8 C -4.45065 -2.69461 -1.23443 0
M  V30 9 C -3.14504 -2.01448 -1.65869 0
M  V30 10 C -1.59283 1.33679 0.520334 0
M  V30 11 C -0.888724 2.42798 1.08795 0
M  V30 12 C -1.42207 3.69037 1.11111 0
M  V30 13 N -0.6988 4.76018 1.66793 0
M  V30 14 C -2.67817 3.93028 0.574356 0
M  V30 15 C -3.34935 2.86077 0.0277519 0
M  V30 16 C -2.81385 1.55741 -0.00671592 0
M  V30 17 C 1.25206 0.623937 -0.515261 0
M  V30 18 O 0.650819 0.68435 -1.68623 0
M  V30 19 C 2.65357 1.05527 -0.533147 0
M  V30 20 C 3.68311 0.0951979 -0.856222 0
M  V30 21 C 4.5957 -0.303198 0.100596 0
M  V30 22 N 4.68792 0.344703 1.3799 0
M  V30 23 C 5.52746 -1.29499 -0.139353 0
M  V30 24 C 5.58005 -1.92242 -1.346 0
M  V30 25 C 4.66869 -1.52417 -2.31197 0
M  V30 26 C 3.73897 -0.536249 -2.07998 0
M  V30 27 H 1.87781 -0.946418 1.61753 0
M  V30 28 H 0.488412 -0.453277 2.60902 0
M  V30 29 H 1.70417 0.780174 2.23651 0
M  V30 30 H -1.21452 -0.390122 1.61133 0
M  V30 31 H -0.698521 -1.95321 -0.297969 0
M  V30 32 H -1.0983 -0.685552 -1.42784 0
M  V30 33 H -3.99121 -1.48644 1.19274 0
M  V30 34 H -2.48265 -2.42942 1.40168 0
M  V30 35 H -4.81358 -3.63674 0.717046 0
M  V30 36 H -3.21954 -4.06717 -0.130376 0
M  V30 37 H -4.7934 -3.44467 -1.95343 0
M  V30 38 H -5.18201 -1.93408 -0.969833 0
M  V30 39 H -3.31286 -1.2881 -2.48055 0
M  V30 40 H -2.4524 -2.81873 -1.90854 0
M  V30 41 H 0.0887071 2.25541 1.49325 0
M  V30 42 H -0.999119 5.75347 1.62292 0
M  V30 43 H 0.200324 4.59246 2.16173 0
M  V30 44 H -3.12737 4.91242 0.57995 0
M  V30 45 H -4.33871 3.02726 -0.397897 0
M  V30 46 H -3.48187 0.838376 -0.4721 0
M  V30 47 H 2.75736 1.91383 -1.25594 0
M  V30 48 H 2.88148 1.55905 0.458797 0
M  V30 49 H 4.87295 1.36568 1.34522 0
M  V30 50 H 4.57168 -0.143605 2.28382 0
M  V30 51 H 6.24193 -1.59394 0.643897 0
M  V30 52 H 6.31575 -2.71677 -1.55066 0
M  V30 53 H 4.76692 -2.07164 -3.25762 0
M  V30 54 H 3.07792 -0.286536 -2.86888 0
M  V30 END ATOM
M  V30 BEGIN BOND
M  V30 1 1 1 2
M  V30 2 1 2 3
M  V30 3 1 3 4
M  V30 4 1 4 5
M  V30 5 1 5 6
M  V30 6 1 6 7
M  V30 7 1 7 8
M  V30 8 1 8 9
M  V30 9 1 3 10
M  V30 10 2 10 11
M  V30 11 1 11 12
M  V30 12 1 12 13
M  V30 13 2 12 14
M  V30 14 1 14 15
M  V30 15 2 15 16
M  V30 16 1 2 17
M  V30 17 2 17 18
M  V30 18 1 17 19
M  V30 19 1 19 20
M  V30 20 2 20 21
M  V30 21 1 21 22
M  V30 22 1 21 23
M  V30 23 2 23 24
M  V30 24 1 24 25
M  V30 25 2 25 26
M  V30 26 1 9 5
M  V30 27 1 16 10
M  V30 28 1 26 20
M  V30 29 1 1 27
M  V30 30 1 1 28
M  V30 31 1 1 29
M  V30 32 1 3 30 CFG=1
M  V30 33 1 4 31
M  V30 34 1 4 32
M  V30 35 1 6 33
M  V30 36 1 6 34
M  V30 37 1 7 35
M  V30 38 1 7 36
M  V30 39 1 8 37
M  V30 40 1 8 38
M  V30 41 1 9 39
M  V30 42 1 9 40
M  V30 43 1 11 41
M  V30 44 1 13 42
M  V30 45 1 13 43
M  V30 46 1 14 44
M  V30 47 1 15 45
M  V30 48 1 16 46
M  V30 49 1 19 47
M  V30 50 1 19 48
M  V30 51 1 22 49
M  V30 52 1 22 50
M  V30 53 1 23 51
M  V30 54 1 24 52
M  V30 55 1 25 53
M  V30 56 1 26 54
M  V30 END BOND
M  V30 END CTAB
M  END
