
     RDKit          3D

  0  0  0  0  0  0  0  0  0  0999 V3000
M  V30 BEGIN CTAB
M  V30 COUNTS 25 25 0 0 0
M  V30 BEGIN ATOM
M  V30 1 C 4.26052 0.33291 0.329375 0
M  V30 2 C 3.6169 -0.914929 -0.173576 0
M  V30 3 O 2.24417 -0.984927 0.0380507 0
M  V30 4 C 1.41904 -0.0230746 -0.514405 0
M  V30 5 O 1.96131 0.881342 -1.19159 0
M  V30 6 C -0.0249612 -0.0747832 -0.306609 0
M  V30 7 C -0.897116 0.836058 -0.818819 0
M  V30 8 C -2.26209 0.758898 -0.603222 0
M  V30 9 N -3.14692 1.72947 -1.15437 0
M  V30 10 C -2.79539 -0.254811 0.146829 0
M  V30 11 N -4.17747 -0.332787 0.365053 0
M  V30 12 C -1.92588 -1.18443 0.672066 0
M  V30 13 C -0.563723 -1.1053 0.455471 0
M  V30 14 H 5.28699 0.101516 0.682644 0
M  V30 15 H 4.34359 1.09513 -0.473997 0
M  V30 16 H 3.71852 0.745768 1.22767 0
M  V30 17 H 3.86698 -1.0231 -1.26695 0
M  V30 18 H 4.08496 -1.77871 0.361201 0
M  V30 19 H -0.476825 1.64537 -1.41697 0
M  V30 20 H -3.91712 2.11539 -0.57947 0
M  V30 21 H -2.97521 2.01657 -2.14008 0
M  V30 22 H -4.50026 -0.517523 1.35339 0
M  V30 23 H -4.90569 -0.224923 -0.358385 0
M  V30 24 H -2.34417 -1.98982 1.26733 0
M  V30 25 H 0.109855 -1.84929 0.878494 0
M  V30 END ATOM
M  V30 BEGIN BOND
M  V30 1 1 1 2
M  V30 2 1 2 3
M  V30 3 1 3 4
M  V30 4 2 4 5
M  V30 5 1 4 6
M  V30 6 2 6 7
M  V30 7 1 7 8
M  V30 8 1 8 9
M  V30 9 2 8 10
M  V30 10 1 10 11
M  V30 11 1 10 12
M  V30 12 2 12 13
M  V30 13 1 13 6
M  V30 14 1 1 14
M  V30 15 1 1 15
M  V30 16 1 1 16
M  V30 17 1 2 17
M  V30 18 1 2 18
M  V30 19 1 7 19
M  V30 20 1 9 20
M  V30 21 1 9 21
M  V30 22 1 11 22
M  V30 23 1 11 23
M  V30 24 1 12 24
M  V30 25 1 13 25
M  V30 END BOND
M  V30 END CTAB
M  END
