
     RDKit          3D

  0  0  0  0  0  0  0  0  0  0999 V3000
M  V30 BEGIN CTAB
M  V30 COUNTS 27 29 0 0 0
M  V30 BEGIN ATOM
M  V30 1 N -4.11518 -0.499374 -0.140081 0
M  V30 2 C -2.72558 -0.219273 -0.114916 0
M  V30 3 C -1.80414 -1.23819 -0.177024 0
M  V30 4 C -0.427433 -1.02667 -0.156421 0
M  V30 5 C 0.00290299 0.26993 -0.0695083 0
M  V30 6 C -0.895484 1.33276 -0.00441438 0
M  V30 7 C -2.24397 1.08497 -0.0272458 0
M  V30 8 N -3.16736 2.15891 0.0384408 0
M  V30 9 C 1.46053 0.246102 -0.0638971 0
M  V30 10 C 2.38282 1.30116 0.00963718 0
M  V30 11 C 3.7294 1.01501 -0.00245241 0
M  V30 12 C 4.16367 -0.291843 -0.0857806 0
M  V30 13 C 3.28569 -1.33467 -0.1583 0
M  V30 14 C 1.90975 -1.04402 -0.146062 0
M  V30 15 C 0.739571 -1.91882 -0.209037 0
M  V30 16 H -4.53283 -1.08659 0.59771 0
M  V30 17 H -4.7055 -0.115769 -0.895474 0
M  V30 18 H -2.15817 -2.26497 -0.245918 0
M  V30 19 H -0.467178 2.32021 0.0622652 0
M  V30 20 H -4.08336 2.02064 0.509247 0
M  V30 21 H -2.99038 3.10892 -0.363713 0
M  V30 22 H 2.00383 2.31625 0.0741705 0
M  V30 23 H 4.40407 1.85639 0.0558698 0
M  V30 24 H 5.22515 -0.487649 -0.0933561 0
M  V30 25 H 3.58635 -2.37547 -0.224892 0
M  V30 26 H 0.702414 -2.43159 -1.19621 0
M  V30 27 H 0.72041 -2.69634 0.581094 0
M  V30 END ATOM
M  V30 BEGIN BOND
M  V30 1 1 1 2
M  V30 2 2 2 3
M  V30 3 1 3 4
M  V30 4 2 4 5
M  V30 5 1 5 6
M  V30 6 2 6 7
M  V30 7 1 7 8
M  V30 8 1 5 9
M  V30 9 2 9 10
M  V30 10 1 10 11
M  V30 11 2 11 12
M  V30 12 1 12 13
M  V30 13 2 13 14
M  V30 14 1 14 15
M  V30 15 1 7 2
M  V30 16 1 14 9
M  V30 17 1 15 4
M  V30 18 1 1 16
M  V30 19 1 1 17
M  V30 20 1 3 18
M  V30 21 1 6 19
M  V30 22 1 8 20
M  V30 23 1 8 21
M  V30 24 1 10 22
M  V30 25 1 11 23
M  V30 26 1 12 24
M  V30 27 1 13 25
M  V30 28 1 15 26
M  V30 29 1 15 27
M  V30 END BOND
M  V30 END CTAB
M  END
