
     RDKit          3D

  0  0  0  0  0  0  0  0  0  0999 V3000
M  V30 BEGIN CTAB
M  V30 COUNTS 58 62 0 0 0
M  V30 BEGIN ATOM
M  V30 1 N -8.57048 0.55065 -2.49989 0
M  V30 2 C -7.43108 0.431676 -1.672 0
M  V30 3 N -6.43878 1.34556 -1.70686 0
M  V30 4 C -5.35208 1.23583 -0.920143 0
M  V30 5 N -4.29598 2.19094 -0.944244 0
M  V30 6 C -5.2222 0.168911 -0.0433882 0
M  V30 7 C -4.07922 0.0590449 0.779975 0
M  V30 8 O -3.13727 1.02993 0.6751 0
M  V30 9 C -1.93616 1.12599 1.34373 0
M  V30 10 C -0.918151 0.056425 1.04379 0
M  V30 11 C 0.299669 0.373436 1.89317 0
M  V30 12 C 1.48045 -0.443315 1.49426 0
M  V30 13 N 1.2439 -1.22734 0.328773 0
M  V30 14 C 0.71405 -0.468437 -0.781746 0
M  V30 15 C -0.590977 0.208313 -0.435649 0
M  V30 16 S 2.54556 -2.23226 -0.113522 0
M  V30 17 O 2.85996 -3.2603 0.923977 0
M  V30 18 O 2.21706 -2.97898 -1.38527 0
M  V30 19 C 3.94182 -1.21796 -0.473301 0
M  V30 20 C 4.83478 -0.874358 0.516645 0
M  V30 21 C 5.93048 -0.0753155 0.221185 0
M  V30 22 C 6.16608 0.403218 -1.06958 0
M  V30 23 C 7.26354 1.20272 -1.36239 0
M  V30 24 C 8.1586 1.54935 -0.379112 0
M  V30 25 C 7.9186 1.0725 0.89328 0
M  V30 26 C 6.83402 0.28007 1.19182 0
M  V30 27 C 5.26468 0.0515861 -2.04972 0
M  V30 28 C 4.18257 -0.74228 -1.73897 0
M  V30 29 C -3.96016 -0.999794 1.64529 0
M  V30 30 C -4.99189 -1.93409 1.66886 0
M  V30 31 C -6.09728 -1.80675 0.856161 0
M  V30 32 C -6.23527 -0.746913 -0.0205656 0
M  V30 33 N -7.31337 -0.62046 -0.81411 0
M  V30 34 H -8.47813 0.492877 -3.52612 0
M  V30 35 H -9.49888 0.696192 -2.07067 0
M  V30 36 H -4.37841 2.98238 -0.248217 0
M  V30 37 H -3.48597 2.12919 -1.59942 0
M  V30 38 H -2.0539 1.21609 2.4568 0
M  V30 39 H -1.44793 2.08791 0.971366 0
M  V30 40 H -1.18605 -0.96547 1.24192 0
M  V30 41 H 0.0882779 0.174361 2.96374 0
M  V30 42 H 0.541602 1.46072 1.84086 0
M  V30 43 H 2.32986 0.241395 1.27157 0
M  V30 44 H 1.79749 -1.13248 2.30471 0
M  V30 45 H 1.44906 0.334385 -1.00621 0
M  V30 46 H 0.647122 -1.10381 -1.68725 0
M  V30 47 H -0.593827 1.26025 -0.735993 0
M  V30 48 H -1.39891 -0.316914 -0.985669 0
M  V30 49 H 4.67737 -1.2335 1.53688 0
M  V30 50 H 7.42315 1.56442 -2.38702 0
M  V30 51 H 8.99872 2.17085 -0.641347 0
M  V30 52 H 8.61813 1.34219 1.66656 0
M  V30 53 H 6.71325 -0.0533568 2.20613 0
M  V30 54 H 5.43757 0.416288 -3.05094 0
M  V30 55 H 3.4535 -1.0334 -2.50481 0
M  V30 56 H -3.12291 -1.13746 2.32543 0
M  V30 57 H -4.9008 -2.76926 2.34827 0
M  V30 58 H -6.91488 -2.53144 0.863161 0
M  V30 END ATOM
M  V30 BEGIN BOND
M  V30 1 1 1 2
M  V30 2 2 2 3
M  V30 3 1 3 4
M  V30 4 1 4 5
M  V30 5 2 4 6
M  V30 6 1 6 7
M  V30 7 1 7 8
M  V30 8 1 8 9
M  V30 9 1 9 10
M  V30 10 1 10 11
M  V30 11 1 11 12
M  V30 12 1 12 13
M  V30 13 1 13 14
M  V30 14 1 14 15
M  V30 15 1 13 16
M  V30 16 2 16 17
M  V30 17 2 16 18
M  V30 18 1 16 19
M  V30 19 2 19 20
M  V30 20 1 20 21
M  V30 21 2 21 22
M  V30 22 1 22 23
M  V30 23 2 23 24
M  V30 24 1 24 25
M  V30 25 2 25 26
M  V30 26 1 22 27
M  V30 27 2 27 28
M  V30 28 2 7 29
M  V30 29 1 29 30
M  V30 30 2 30 31
M  V30 31 1 31 32
M  V30 32 2 32 33
M  V30 33 1 33 2
M  V30 34 1 32 6
M  V30 35 1 15 10
M  V30 36 1 28 19
M  V30 37 1 26 21
M  V30 38 1 1 34
M  V30 39 1 1 35
M  V30 40 1 5 36
M  V30 41 1 5 37
M  V30 42 1 9 38
M  V30 43 1 9 39
M  V30 44 1 10 40
M  V30 45 1 11 41
M  V30 46 1 11 42
M  V30 47 1 12 43
M  V30 48 1 12 44
M  V30 49 1 14 45
M  V30 50 1 14 46
M  V30 51 1 15 47
M  V30 52 1 15 48
M  V30 53 1 20 49
M  V30 54 1 23 50
M  V30 55 1 24 51
M  V30 56 1 25 52
M  V30 57 1 26 53
M  V30 58 1 27 54
M  V30 59 1 28 55
M  V30 60 1 29 56
M  V30 61 1 30 57
M  V30 62 1 31 58
M  V30 END BOND
M  V30 END CTAB
M  END
