
     RDKit          3D

  0  0  0  0  0  0  0  0  0  0999 V3000
M  V30 BEGIN CTAB
M  V30 COUNTS 36 37 0 0 0
M  V30 BEGIN ATOM
M  V30 1 N 4.31156 -0.371199 -0.789585 0
M  V30 2 C 3.84674 0.0142668 0.514521 0
M  V30 3 C 2.54675 -0.721269 0.737298 0
M  V30 4 C 1.49074 -0.348835 -0.30463 0 CFG=1
M  V30 5 C 0.285377 -1.14824 0.0106796 0
M  V30 6 N -0.923719 -0.420946 0.266925 0
M  V30 7 C -2.06002 -1.22765 0.690223 0
M  V30 8 C -2.55564 -2.09556 -0.470562 0
M  V30 9 N -3.68148 -2.85154 0.0389982 0
M  V30 10 C -1.08255 0.962406 0.136556 0
M  V30 11 C 0.0490015 1.7344 -0.149535 0
M  V30 12 N 1.27305 1.07777 -0.289452 0
M  V30 13 C -0.0886813 3.11156 -0.284381 0
M  V30 14 C -1.31302 3.73743 -0.143729 0
M  V30 15 C -2.43058 2.99306 0.136747 0
M  V30 16 C -2.27248 1.63683 0.265694 0
M  V30 17 H 4.10065 -1.34613 -0.939577 0
M  V30 18 H 5.27217 -0.14023 -0.9246 0
M  V30 19 H 3.78473 1.0979 0.64241 0
M  V30 20 H 4.57924 -0.442251 1.23428 0
M  V30 21 H 2.09572 -0.508098 1.72666 0
M  V30 22 H 2.70462 -1.81139 0.653292 0
M  V30 23 H 1.85833 -0.619121 -1.31256 0
M  V30 24 H 0.428736 -1.82664 0.90529 0
M  V30 25 H 0.0664583 -1.87958 -0.82363 0
M  V30 26 H -1.71725 -2.00063 1.45145 0
M  V30 27 H -2.84923 -0.686577 1.20375 0
M  V30 28 H -1.73371 -2.79552 -0.710564 0
M  V30 29 H -2.80976 -1.46421 -1.34725 0
M  V30 30 H -3.5054 -3.89 -0.101536 0
M  V30 31 H -4.5383 -2.53154 -0.472039 0
M  V30 32 H 2.13118 1.68496 -0.397448 0
M  V30 33 H 0.768157 3.72416 -0.500989 0
M  V30 34 H -1.43889 4.8127 -0.248149 0
M  V30 35 H -3.40857 3.45804 0.257181 0
M  V30 36 H -3.18392 1.08168 0.476722 0
M  V30 END ATOM
M  V30 BEGIN BOND
M  V30 1 1 1 2
M  V30 2 1 2 3
M  V30 3 1 3 4
M  V30 4 1 4 5
M  V30 5 1 5 6
M  V30 6 1 6 7
M  V30 7 1 7 8
M  V30 8 1 8 9
M  V30 9 1 6 10
M  V30 10 2 10 11
M  V30 11 1 11 12
M  V30 12 1 11 13
M  V30 13 2 13 14
M  V30 14 1 14 15
M  V30 15 2 15 16
M  V30 16 1 12 4
M  V30 17 1 16 10
M  V30 18 1 1 17
M  V30 19 1 1 18
M  V30 20 1 2 19
M  V30 21 1 2 20
M  V30 22 1 3 21
M  V30 23 1 3 22
M  V30 24 1 4 23 CFG=3
M  V30 25 1 5 24
M  V30 26 1 5 25
M  V30 27 1 7 26
M  V30 28 1 7 27
M  V30 29 1 8 28
M  V30 30 1 8 29
M  V30 31 1 9 30
M  V30 32 1 9 31
M  V30 33 1 12 32
M  V30 34 1 13 33
M  V30 35 1 14 34
M  V30 36 1 15 35
M  V30 37 1 16 36
M  V30 END BOND
M  V30 END CTAB
M  END
