
     RDKit          3D

  0  0  0  0  0  0  0  0  0  0999 V3000
M  V30 BEGIN CTAB
M  V30 COUNTS 26 27 0 0 0
M  V30 BEGIN ATOM
M  V30 1 N 3.25581 -2.24548 -0.770923 0
M  V30 2 C 2.52238 -1.06751 -0.468941 0
M  V30 3 C 3.18301 0.137265 -0.292402 0
M  V30 4 C 2.48068 1.28757 0.00128884 0
M  V30 5 C 1.0879 1.26864 0.128284 0
M  V30 6 N 0.361351 2.4482 0.434993 0
M  V30 7 C 0.417096 0.0815479 -0.043977 0
M  V30 8 C 1.14988 -1.05757 -0.338225 0
M  V30 9 C -1.0423 -0.0158187 0.068438 0
M  V30 10 C -1.89836 0.870677 -0.548311 0
M  V30 11 C -3.28537 0.744798 -0.412225 0
M  V30 12 C -3.85032 -0.260803 0.336601 0
M  V30 13 C -3.00018 -1.15595 0.959638 0
M  V30 14 C -1.63776 -1.02348 0.819643 0
M  V30 15 H 2.9943 -2.85783 -1.54644 0
M  V30 16 H 4.08024 -2.49175 -0.188265 0
M  V30 17 H 4.26 0.14741 -0.391485 0
M  V30 18 H 2.95547 2.23705 0.144706 0
M  V30 19 H 0.30268 3.27388 -0.199243 0
M  V30 20 H -0.150141 2.51302 1.34159 0
M  V30 21 H 0.633442 -1.98966 -0.474307 0
M  V30 22 H -1.50784 1.67387 -1.14853 0
M  V30 23 H -3.9436 1.4642 -0.913744 0
M  V30 24 H -4.92636 -0.319318 0.413738 0
M  V30 25 H -3.46487 -1.94012 1.54426 0
M  V30 26 H -0.977127 -1.72281 1.30648 0
M  V30 END ATOM
M  V30 BEGIN BOND
M  V30 1 1 1 2
M  V30 2 2 2 3
M  V30 3 1 3 4
M  V30 4 2 4 5
M  V30 5 1 5 6
M  V30 6 1 5 7
M  V30 7 2 7 8
M  V30 8 1 7 9
M  V30 9 2 9 10
M  V30 10 1 10 11
M  V30 11 2 11 12
M  V30 12 1 12 13
M  V30 13 2 13 14
M  V30 14 1 8 2
M  V30 15 1 14 9
M  V30 16 1 1 15
M  V30 17 1 1 16
M  V30 18 1 3 17
M  V30 19 1 4 18
M  V30 20 1 6 19
M  V30 21 1 6 20
M  V30 22 1 8 21
M  V30 23 1 10 22
M  V30 24 1 11 23
M  V30 25 1 12 24
M  V30 26 1 13 25
M  V30 27 1 14 26
M  V30 END BOND
M  V30 END CTAB
M  END
