
     RDKit          3D

  0  0  0  0  0  0  0  0  0  0999 V3000
M  V30 BEGIN CTAB
M  V30 COUNTS 22 22 0 0 0
M  V30 BEGIN ATOM
M  V30 1 C 2.31892 1.19418 0.367019 0
M  V30 2 C 0.992128 0.578015 0.166222 0
M  V30 3 C -0.152394 1.35122 0.220028 0
M  V30 4 C -1.41153 0.814567 0.0378399 0
M  V30 5 N -2.58453 1.6198 0.0952101 0
M  V30 6 C -1.47315 -0.542429 -0.202618 0
M  V30 7 N -2.77426 -1.10678 -0.392601 0
M  V30 8 C -0.33199 -1.3149 -0.256534 0
M  V30 9 C 0.926323 -0.779643 -0.0746472 0
M  V30 10 C 2.15667 -1.61794 -0.13373 0
M  V30 11 H 2.67069 1.00872 1.40277 0
M  V30 12 H 3.03701 0.70846 -0.320546 0
M  V30 13 H 2.23792 2.285 0.17157 0
M  V30 14 H -0.10441 2.428 0.410767 0
M  V30 15 H -3.51613 1.21896 0.295233 0
M  V30 16 H -2.53268 2.64883 -0.0653922 0
M  V30 17 H -3.15582 -1.15556 -1.3541 0
M  V30 18 H -3.27433 -1.44067 0.442363 0
M  V30 19 H -0.396996 -2.39427 -0.448925 0
M  V30 20 H 2.71431 -1.59608 0.834494 0
M  V30 21 H 2.81778 -1.24363 -0.920027 0
M  V30 22 H 1.83648 -2.66388 -0.274398 0
M  V30 END ATOM
M  V30 BEGIN BOND
M  V30 1 1 1 2
M  V30 2 2 2 3
M  V30 3 1 3 4
M  V30 4 1 4 5
M  V30 5 2 4 6
M  V30 6 1 6 7
M  V30 7 1 6 8
M  V30 8 2 8 9
M  V30 9 1 9 10
M  V30 10 1 9 2
M  V30 11 1 1 11
M  V30 12 1 1 12
M  V30 13 1 1 13
M  V30 14 1 3 14
M  V30 15 1 5 15
M  V30 16 1 5 16
M  V30 17 1 7 17
M  V30 18 1 7 18
M  V30 19 1 8 19
M  V30 20 1 10 20
M  V30 21 1 10 21
M  V30 22 1 10 22
M  V30 END BOND
M  V30 END CTAB
M  END
