
     RDKit          3D

  0  0  0  0  0  0  0  0  0  0999 V3000
M  V30 BEGIN CTAB
M  V30 COUNTS 56 59 0 0 0
M  V30 BEGIN ATOM
M  V30 1 O -5.00013 3.21421 0.859441 0
M  V30 2 C -4.24482 2.11077 0.393602 0
M  V30 3 C -4.77594 0.880196 1.06971 0
M  V30 4 N -4.11713 -0.335392 0.70558 0
M  V30 5 C -2.93279 -0.294448 -0.0980873 0
M  V30 6 N -3.04601 -0.463598 -1.41668 0
M  V30 7 C -1.94277 -0.390036 -2.17263 0
M  V30 8 N -2.10103 -0.573149 -3.57373 0
M  V30 9 C -0.711778 -0.141505 -1.57793 0
M  V30 10 C -0.589605 0.0358686 -0.191421 0
M  V30 11 C -1.7085 -0.0425474 0.546626 0
M  V30 12 C -1.6898 0.0941433 1.97369 0
M  V30 13 N -1.72386 0.198711 3.15162 0
M  V30 14 C 0.629967 0.286629 0.404048 0
M  V30 15 C 1.11649 0.510865 1.76237 0
M  V30 16 C 2.60396 0.729391 1.60629 0
M  V30 17 O 3.3306 0.965937 2.62061 0
M  V30 18 N 2.92691 0.619773 0.257681 0
M  V30 19 C 1.72352 0.35234 -0.449513 0
M  V30 20 N 1.58022 0.175693 -1.79802 0
M  V30 21 C 0.39783 -0.0659648 -2.35911 0
M  V30 22 N 0.257493 -0.25135 -3.76214 0
M  V30 23 C 4.24435 0.761349 -0.286922 0
M  V30 24 C 5.01333 -0.539519 -0.350189 0
M  V30 25 C 6.40809 -0.178258 -0.846593 0
M  V30 26 C 7.07977 0.191901 0.458107 0
M  V30 27 C 6.3725 -0.732241 1.42221 0
M  V30 28 O 5.17611 -1.11241 0.888908 0
M  V30 29 C -4.56265 -1.6424 1.14911 0
M  V30 30 C -5.88974 -2.02779 0.532984 0
M  V30 31 O -5.82843 -2.07327 -0.847422 0
M  V30 32 H -4.94648 3.91924 0.157735 0
M  V30 33 H -3.19335 2.33819 0.541285 0
M  V30 34 H -4.51507 2.04325 -0.696629 0
M  V30 35 H -5.87277 0.856653 0.846252 0
M  V30 36 H -4.73726 1.0799 2.17155 0
M  V30 37 H -2.04549 -1.51307 -4.01856 0
M  V30 38 H -2.2778 0.255627 -4.16439 0
M  V30 39 H 1.08004 -0.373747 2.43081 0
M  V30 40 H 0.784308 1.46035 2.22967 0
M  V30 41 H 0.0830193 0.575409 -4.36242 0
M  V30 42 H 0.326184 -1.18321 -4.19888 0
M  V30 43 H 4.20643 1.15848 -1.3402 0
M  V30 44 H 4.84934 1.50139 0.273777 0
M  V30 45 H 4.57273 -1.22989 -1.08937 0
M  V30 46 H 6.92959 -1.04 -1.26343 0
M  V30 47 H 6.37624 0.710438 -1.50774 0
M  V30 48 H 8.17247 0.0107043 0.429878 0
M  V30 49 H 6.82247 1.24115 0.699933 0
M  V30 50 H 6.98002 -1.67448 1.57137 0
M  V30 51 H 6.2887 -0.251086 2.42237 0
M  V30 52 H -3.82567 -2.41511 0.898399 0
M  V30 53 H -4.64149 -1.56411 2.25785 0
M  V30 54 H -6.72621 -1.41536 0.910317 0
M  V30 55 H -6.08985 -3.07854 0.883693 0
M  V30 56 H -6.59624 -1.67609 -1.29485 0
M  V30 END ATOM
M  V30 BEGIN BOND
M  V30 1 1 1 2
M  V30 2 1 2 3
M  V30 3 1 3 4
M  V30 4 1 4 5
M  V30 5 2 5 6
M  V30 6 1 6 7
M  V30 7 1 7 8
M  V30 8 2 7 9
M  V30 9 1 9 10
M  V30 10 2 10 11
M  V30 11 1 11 12
M  V30 12 3 12 13
M  V30 13 1 10 14
M  V30 14 1 14 15
M  V30 15 1 15 16
M  V30 16 2 16 17
M  V30 17 1 16 18
M  V30 18 1 18 19
M  V30 19 1 19 20
M  V30 20 2 20 21
M  V30 21 1 21 22
M  V30 22 1 18 23
M  V30 23 1 23 24
M  V30 24 1 24 25
M  V30 25 1 25 26
M  V30 26 1 26 27
M  V30 27 1 27 28
M  V30 28 1 4 29
M  V30 29 1 29 30
M  V30 30 1 30 31
M  V30 31 1 11 5
M  V30 32 2 19 14
M  V30 33 1 28 24
M  V30 34 1 21 9
M  V30 35 1 1 32
M  V30 36 1 2 33
M  V30 37 1 2 34
M  V30 38 1 3 35
M  V30 39 1 3 36
M  V30 40 1 8 37
M  V30 41 1 8 38
M  V30 42 1 15 39
M  V30 43 1 15 40
M  V30 44 1 22 41
M  V30 45 1 22 42
M  V30 46 1 23 43
M  V30 47 1 23 44
M  V30 48 1 24 45
M  V30 49 1 25 46
M  V30 50 1 25 47
M  V30 51 1 26 48
M  V30 52 1 26 49
M  V30 53 1 27 50
M  V30 54 1 27 51
M  V30 55 1 29 52
M  V30 56 1 29 53
M  V30 57 1 30 54
M  V30 58 1 30 55
M  V30 59 1 31 56
M  V30 END BOND
M  V30 END CTAB
M  END
