
     RDKit          3D

  0  0  0  0  0  0  0  0  0  0999 V3000
M  V30 BEGIN CTAB
M  V30 COUNTS 27 28 0 0 0
M  V30 BEGIN ATOM
M  V30 1 N -3.75216 -1.24994 -0.142487 0
M  V30 2 C -2.6546 -0.369094 -0.135758 0
M  V30 3 N -2.76544 0.975603 -0.167356 0
M  V30 4 C -1.68942 1.76474 -0.160567 0
M  V30 5 N -1.85951 3.17345 -0.189064 0
M  V30 6 N -0.454521 1.21614 -0.121543 0
M  V30 7 C -0.294631 -0.121252 -0.0889496 0
M  V30 8 N -1.4089 -0.874693 -0.0974803 0
M  V30 9 C 1.07115 -0.719177 -0.0477579 0
M  V30 10 C 0.925247 -2.2364 0.0487419 0
M  V30 11 C 1.91876 -0.32832 -1.2176 0
M  V30 12 O 2.82394 0.629577 -0.820151 0
M  V30 13 C 2.57117 0.984164 0.467787 0
M  V30 14 C 1.87164 -0.19488 1.1131 0
M  V30 15 H -3.92069 -1.92798 0.618288 0
M  V30 16 H -4.4083 -1.21144 -0.949726 0
M  V30 17 H -1.88194 3.62909 -1.12639 0
M  V30 18 H -1.96293 3.77563 0.647951 0
M  V30 19 H 0.249982 -2.61537 -0.73829 0
M  V30 20 H 1.92702 -2.70142 -0.0812634 0
M  V30 21 H 0.455351 -2.50891 1.01747 0
M  V30 22 H 1.33197 -0.0872118 -2.10987 0
M  V30 23 H 2.50997 -1.2491 -1.50265 0
M  V30 24 H 3.49943 1.16729 1.04621 0
M  V30 25 H 1.97333 1.91838 0.532651 0
M  V30 26 H 1.2807 0.0843557 1.99702 0
M  V30 27 H 2.64339 -0.923217 1.40566 0
M  V30 END ATOM
M  V30 BEGIN BOND
M  V30 1 1 1 2
M  V30 2 2 2 3
M  V30 3 1 3 4
M  V30 4 1 4 5
M  V30 5 2 4 6
M  V30 6 1 6 7
M  V30 7 2 7 8
M  V30 8 1 7 9
M  V30 9 1 9 10
M  V30 10 1 9 11
M  V30 11 1 11 12
M  V30 12 1 12 13
M  V30 13 1 13 14
M  V30 14 1 8 2
M  V30 15 1 14 9
M  V30 16 1 1 15
M  V30 17 1 1 16
M  V30 18 1 5 17
M  V30 19 1 5 18
M  V30 20 1 10 19
M  V30 21 1 10 20
M  V30 22 1 10 21
M  V30 23 1 11 22
M  V30 24 1 11 23
M  V30 25 1 13 24
M  V30 26 1 13 25
M  V30 27 1 14 26
M  V30 28 1 14 27
M  V30 END BOND
M  V30 END CTAB
M  END
