
     RDKit          3D

  0  0  0  0  0  0  0  0  0  0999 V3000
M  V30 BEGIN CTAB
M  V30 COUNTS 28 28 0 0 0
M  V30 BEGIN ATOM
M  V30 1 C -2.47593 1.14133 -0.882631 0
M  V30 2 C -2.32815 0.350765 0.39034 0
M  V30 3 N -1.21869 -0.536246 0.289832 0
M  V30 4 C 0.142196 -0.131404 0.129985 0
M  V30 5 C 0.546507 1.18277 0.0919175 0
M  V30 6 C 1.89873 1.52113 -0.0609724 0
M  V30 7 C 2.86579 0.553157 -0.177769 0
M  V30 8 C 2.4697 -0.764929 -0.140492 0
M  V30 9 C 1.14228 -1.08978 0.00955234 0
M  V30 10 F 0.782499 -2.39633 0.0426877 0
M  V30 11 N 3.45402 -1.77013 -0.25938 0
M  V30 12 N 4.24942 0.854909 -0.334482 0
M  V30 13 C -3.60788 -0.456948 0.548291 0
M  V30 14 O -3.56407 -1.25131 1.69758 0
M  V30 15 H -1.58404 0.9665 -1.51154 0
M  V30 16 H -2.50414 2.23624 -0.68146 0
M  V30 17 H -3.38403 0.870024 -1.46282 0
M  V30 18 H -2.2174 1.06822 1.24032 0
M  V30 19 H -1.41482 -1.58183 0.337214 0
M  V30 20 H -0.203957 1.95892 0.186545 0
M  V30 21 H 2.18914 2.56312 -0.0878447 0
M  V30 22 H 3.59044 -2.46764 0.506319 0
M  V30 23 H 4.06354 -1.85383 -1.08793 0
M  V30 24 H 4.81024 0.617946 -1.15876 0
M  V30 25 H 4.71927 1.35239 0.448733 0
M  V30 26 H -3.80637 -1.08954 -0.320979 0
M  V30 27 H -4.48378 0.227519 0.693819 0
M  V30 28 H -4.1305 -2.07501 1.55393 0
M  V30 END ATOM
M  V30 BEGIN BOND
M  V30 1 1 1 2
M  V30 2 1 2 3
M  V30 3 1 3 4
M  V30 4 2 4 5
M  V30 5 1 5 6
M  V30 6 2 6 7
M  V30 7 1 7 8
M  V30 8 2 8 9
M  V30 9 1 9 10
M  V30 10 1 8 11
M  V30 11 1 7 12
M  V30 12 1 2 13
M  V30 13 1 13 14
M  V30 14 1 9 4
M  V30 15 1 1 15
M  V30 16 1 1 16
M  V30 17 1 1 17
M  V30 18 1 2 18
M  V30 19 1 3 19
M  V30 20 1 5 20
M  V30 21 1 6 21
M  V30 22 1 11 22
M  V30 23 1 11 23
M  V30 24 1 12 24
M  V30 25 1 12 25
M  V30 26 1 13 26
M  V30 27 1 13 27
M  V30 28 1 14 28
M  V30 END BOND
M  V30 END CTAB
M  END
