
     RDKit          3D

  0  0  0  0  0  0  0  0  0  0999 V3000
M  V30 BEGIN CTAB
M  V30 COUNTS 41 42 0 0 0
M  V30 BEGIN ATOM
M  V30 1 C -3.17346 1.82356 -0.957631 0
M  V30 2 C -3.15743 0.375809 -0.50557 0
M  V30 3 C -2.70754 -0.517959 -1.67159 0
M  V30 4 N -4.46733 -0.0878057 -0.143135 0
M  V30 5 C -4.82744 -0.560927 0.997654 0
M  V30 6 N -6.1793 -0.992499 1.2305 0
M  V30 7 N -3.84644 -0.641955 2.01589 0
M  V30 8 C -2.63803 -0.262773 1.8272 0
M  V30 9 N -1.65754 -0.356971 2.88538 0
M  V30 10 N -2.20978 0.262836 0.58098 0
M  V30 11 O -0.924513 0.661906 0.398852 0
M  V30 12 C -0.0370728 -0.366975 0.197475 0
M  V30 13 C 1.33682 0.294914 0.0172918 0
M  V30 14 C 2.33377 -0.816634 -0.206298 0
M  V30 15 C 3.70676 -0.315278 -0.395518 0
M  V30 16 C 4.57291 -0.131959 0.647968 0
M  V30 17 C 5.8625 0.337254 0.485772 0
M  V30 18 Cl 6.96438 0.568906 1.82637 0
M  V30 19 C 6.31375 0.640162 -0.783603 0
M  V30 20 Cl 7.9437 1.24247 -1.06937 0
M  V30 21 C 5.45205 0.461301 -1.85247 0
M  V30 22 C 4.14836 -0.0154996 -1.66707 0
M  V30 23 H -2.1397 2.2187 -0.904347 0
M  V30 24 H -3.82681 2.44989 -0.34335 0
M  V30 25 H -3.48858 1.82559 -2.0346 0
M  V30 26 H -1.87589 -0.021521 -2.17303 0
M  V30 27 H -2.50977 -1.5344 -1.34047 0
M  V30 28 H -3.56664 -0.50169 -2.39507 0
M  V30 29 H -6.56856 -0.857274 2.17486 0
M  V30 30 H -6.76071 -1.42436 0.498152 0
M  V30 31 H -1.55787 -1.25815 3.38488 0
M  V30 32 H -1.05776 0.45265 3.15146 0
M  V30 33 H 0.0146954 -1.09255 1.05714 0
M  V30 34 H -0.268802 -0.99454 -0.684005 0
M  V30 35 H 1.27538 0.908378 -0.899368 0
M  V30 36 H 1.57793 0.94664 0.853454 0
M  V30 37 H 2.02253 -1.38358 -1.10812 0
M  V30 38 H 2.31673 -1.54877 0.631336 0
M  V30 39 H 4.24479 -0.359996 1.63899 0
M  V30 40 H 5.83463 0.706723 -2.82908 0
M  V30 41 H 3.52526 -0.133629 -2.5379 0
M  V30 END ATOM
M  V30 BEGIN BOND
M  V30 1 1 1 2
M  V30 2 1 2 3
M  V30 3 1 2 4
M  V30 4 2 4 5
M  V30 5 1 5 6
M  V30 6 1 5 7
M  V30 7 2 7 8
M  V30 8 1 8 9
M  V30 9 1 8 10
M  V30 10 1 10 11
M  V30 11 1 11 12
M  V30 12 1 12 13
M  V30 13 1 13 14
M  V30 14 1 14 15
M  V30 15 2 15 16
M  V30 16 1 16 17
M  V30 17 1 17 18
M  V30 18 2 17 19
M  V30 19 1 19 20
M  V30 20 1 19 21
M  V30 21 2 21 22
M  V30 22 1 10 2
M  V30 23 1 22 15
M  V30 24 1 1 23
M  V30 25 1 1 24
M  V30 26 1 1 25
M  V30 27 1 3 26
M  V30 28 1 3 27
M  V30 29 1 3 28
M  V30 30 1 6 29
M  V30 31 1 6 30
M  V30 32 1 9 31
M  V30 33 1 9 32
M  V30 34 1 12 33
M  V30 35 1 12 34
M  V30 36 1 13 35
M  V30 37 1 13 36
M  V30 38 1 14 37
M  V30 39 1 14 38
M  V30 40 1 16 39
M  V30 41 1 21 40
M  V30 42 1 22 41
M  V30 END BOND
M  V30 END CTAB
M  END
