
     RDKit          3D

  0  0  0  0  0  0  0  0  0  0999 V3000
M  V30 BEGIN CTAB
M  V30 COUNTS 19 19 0 0 0
M  V30 BEGIN ATOM
M  V30 1 C -1.69052 -1.74724 0.207604 0
M  V30 2 C -0.212916 -1.59046 0.0411578 0
M  V30 3 N 0.637476 -2.62134 -0.0711865 0
M  V30 4 O 1.81184 -2.14525 -0.19796 0
M  V30 5 C 1.82213 -0.842654 -0.179691 0
M  V30 6 N 2.97501 -0.0259285 -0.298928 0
M  V30 7 C 0.497154 -0.424522 -0.0224076 0
M  V30 8 C 0.0684391 0.957627 0.047222 0
M  V30 9 O 1.00641 1.84494 -0.0454701 0
M  V30 10 N -1.22372 1.46011 0.201188 0
M  V30 11 N -1.44475 2.83633 0.247319 0
M  V30 12 H -1.93909 -2.83264 0.281951 0
M  V30 13 H -1.97821 -1.31399 1.181 0
M  V30 14 H -2.16323 -1.29113 -0.66565 0
M  V30 15 H 3.66087 -0.232757 -1.07972 0
M  V30 16 H 3.18631 0.755634 0.326767 0
M  V30 17 H -2.03938 0.851827 0.283958 0
M  V30 18 H -2.34644 3.04325 -0.233591 0
M  V30 19 H -0.627379 3.31819 -0.176207 0
M  V30 END ATOM
M  V30 BEGIN BOND
M  V30 1 1 1 2
M  V30 2 2 2 3
M  V30 3 1 3 4
M  V30 4 1 4 5
M  V30 5 1 5 6
M  V30 6 2 5 7
M  V30 7 1 7 8
M  V30 8 2 8 9
M  V30 9 1 8 10
M  V30 10 1 10 11
M  V30 11 1 7 2
M  V30 12 1 1 12
M  V30 13 1 1 13
M  V30 14 1 1 14
M  V30 15 1 6 15
M  V30 16 1 6 16
M  V30 17 1 10 17
M  V30 18 1 11 18
M  V30 19 1 11 19
M  V30 END BOND
M  V30 END CTAB
M  END
