
     RDKit          3D

  0  0  0  0  0  0  0  0  0  0999 V3000
M  V30 BEGIN CTAB
M  V30 COUNTS 31 31 0 0 0
M  V30 BEGIN ATOM
M  V30 1 C -3.47408 -1.68871 0.925043 0
M  V30 2 C -3.46449 -0.244567 1.34813 0
M  V30 3 O -2.64956 0.562687 0.548526 0
M  V30 4 C -1.26485 0.34815 0.402637 0
M  V30 5 O -0.871582 -0.614353 1.05054 0
M  V30 6 C -0.450118 1.24508 -0.465501 0
M  V30 7 C -1.10767 2.29089 -1.11796 0
M  V30 8 N -2.52226 2.61612 -1.05 0
M  V30 9 S 0.0995179 3.07236 -1.98565 0
M  V30 10 C 1.42013 2.10957 -1.54506 0
M  V30 11 N 2.80378 2.25165 -1.96335 0
M  V30 12 C 0.88101 1.144 -0.686124 0
M  V30 13 C 1.84279 0.145032 -0.137561 0
M  V30 14 O 3.08897 0.205914 -0.462995 0
M  V30 15 O 1.58626 -0.885177 0.707525 0
M  V30 16 C 2.56529 -1.76796 1.16341 0
M  V30 17 C 3.26696 -2.53266 0.0897238 0
M  V30 18 H -4.46871 -2.14916 1.13231 0
M  V30 19 H -3.27444 -1.82845 -0.14266 0
M  V30 20 H -2.75387 -2.25146 1.56692 0
M  V30 21 H -4.49214 0.133564 1.26622 0
M  V30 22 H -3.14043 -0.133969 2.41185 0
M  V30 23 H -3.18022 2.33445 -1.80244 0
M  V30 24 H -2.80405 3.14841 -0.189783 0
M  V30 25 H 3.48905 2.65545 -1.3117 0
M  V30 26 H 3.02265 1.9269 -2.92387 0
M  V30 27 H 3.34925 -1.24713 1.78123 0
M  V30 28 H 2.09176 -2.49344 1.85639 0
M  V30 29 H 4.16023 -2.00998 -0.319404 0
M  V30 30 H 2.57015 -2.873 -0.709942 0
M  V30 31 H 3.68066 -3.47019 0.563532 0
M  V30 END ATOM
M  V30 BEGIN BOND
M  V30 1 1 1 2
M  V30 2 1 2 3
M  V30 3 1 3 4
M  V30 4 2 4 5
M  V30 5 1 4 6
M  V30 6 2 6 7
M  V30 7 1 7 8
M  V30 8 1 7 9
M  V30 9 1 9 10
M  V30 10 1 10 11
M  V30 11 2 10 12
M  V30 12 1 12 13
M  V30 13 2 13 14
M  V30 14 1 13 15
M  V30 15 1 15 16
M  V30 16 1 16 17
M  V30 17 1 12 6
M  V30 18 1 1 18
M  V30 19 1 1 19
M  V30 20 1 1 20
M  V30 21 1 2 21
M  V30 22 1 2 22
M  V30 23 1 8 23
M  V30 24 1 8 24
M  V30 25 1 11 25
M  V30 26 1 11 26
M  V30 27 1 16 27
M  V30 28 1 16 28
M  V30 29 1 17 29
M  V30 30 1 17 30
M  V30 31 1 17 31
M  V30 END BOND
M  V30 END CTAB
M  END
