
     RDKit          3D

  0  0  0  0  0  0  0  0  0  0999 V3000
M  V30 BEGIN CTAB
M  V30 COUNTS 22 23 0 0 0
M  V30 BEGIN ATOM
M  V30 1 N -0.336367 2.96699 0.192437 0
M  V30 2 C 0.284545 1.68882 0.12766 0
M  V30 3 C 1.65949 1.54626 0.163972 0
M  V30 4 C 2.21647 0.284241 0.0981354 0
M  V30 5 Cl 3.95682 0.129727 0.145818 0
M  V30 6 C 1.45016 -0.847375 -0.00310539 0
M  V30 7 C 0.0816261 -0.703458 -0.0391132 0
M  V30 8 C -0.515718 0.558021 0.025342 0
M  V30 9 C -1.87807 0.689629 -0.0112887 0
M  V30 10 C -2.64359 -0.46259 -0.113886 0
M  V30 11 C -2.09008 -1.71458 -0.179168 0
M  V30 12 C -0.720148 -1.84383 -0.142127 0
M  V30 13 N 1.98348 -2.16169 -0.0732418 0
M  V30 14 H -0.974012 3.25772 0.978488 0
M  V30 15 H -0.128651 3.63231 -0.598783 0
M  V30 16 H 2.23562 2.44688 0.243427 0
M  V30 17 H -2.30321 1.67132 0.0402089 0
M  V30 18 H -3.72014 -0.386956 -0.144716 0
M  V30 19 H -2.69005 -2.60528 -0.258736 0
M  V30 20 H -0.251894 -2.80209 -0.190617 0
M  V30 21 H 2.19619 -2.58789 -1.02053 0
M  V30 22 H 2.18753 -2.7562 0.759828 0
M  V30 END ATOM
M  V30 BEGIN BOND
M  V30 1 1 1 2
M  V30 2 2 2 3
M  V30 3 1 3 4
M  V30 4 1 4 5
M  V30 5 2 4 6
M  V30 6 1 6 7
M  V30 7 2 7 8
M  V30 8 1 8 9
M  V30 9 2 9 10
M  V30 10 1 10 11
M  V30 11 2 11 12
M  V30 12 1 6 13
M  V30 13 1 8 2
M  V30 14 1 12 7
M  V30 15 1 1 14
M  V30 16 1 1 15
M  V30 17 1 3 16
M  V30 18 1 9 17
M  V30 19 1 10 18
M  V30 20 1 11 19
M  V30 21 1 12 20
M  V30 22 1 13 21
M  V30 23 1 13 22
M  V30 END BOND
M  V30 END CTAB
M  END
