
     RDKit          3D

  0  0  0  0  0  0  0  0  0  0999 V3000
M  V30 BEGIN CTAB
M  V30 COUNTS 19 19 0 0 0
M  V30 BEGIN ATOM
M  V30 1 N 2.99228 -0.512116 -0.381713 0
M  V30 2 C 2.19382 0.68667 -0.261359 0
M  V30 3 C 0.772159 0.353202 -0.0867251 0
M  V30 4 C -0.175965 1.3557 0.0499434 0
M  V30 5 C -1.50702 1.06681 0.213833 0
M  V30 6 I -2.93434 2.60076 0.419987 0
M  V30 7 C -1.87845 -0.250823 0.239166 0
M  V30 8 N -3.23521 -0.617101 0.405045 0
M  V30 9 C -0.934346 -1.24895 0.103081 0
M  V30 10 Cl -1.4062 -2.94808 0.13485 0
M  V30 11 C 0.397073 -0.972674 -0.0610634 0
M  V30 12 H 3.31779 -0.714697 -1.33076 0
M  V30 13 H 3.72339 -0.593749 0.357809 0
M  V30 14 H 2.2681 1.30776 -1.2013 0
M  V30 15 H 2.58992 1.33778 0.545595 0
M  V30 16 H 0.106957 2.40801 0.0314627 0
M  V30 17 H -3.91498 -0.32246 -0.319055 0
M  V30 18 H -3.52419 -1.16655 1.23624 0
M  V30 19 H 1.14922 -1.76949 -0.169512 0
M  V30 END ATOM
M  V30 BEGIN BOND
M  V30 1 1 1 2
M  V30 2 1 2 3
M  V30 3 2 3 4
M  V30 4 1 4 5
M  V30 5 1 5 6
M  V30 6 2 5 7
M  V30 7 1 7 8
M  V30 8 1 7 9
M  V30 9 1 9 10
M  V30 10 2 9 11
M  V30 11 1 11 3
M  V30 12 1 1 12
M  V30 13 1 1 13
M  V30 14 1 2 14
M  V30 15 1 2 15
M  V30 16 1 4 16
M  V30 17 1 8 17
M  V30 18 1 8 18
M  V30 19 1 11 19
M  V30 END BOND
M  V30 END CTAB
M  END
