
     RDKit          3D

  0  0  0  0  0  0  0  0  0  0999 V3000
M  V30 BEGIN CTAB
M  V30 COUNTS 31 32 0 0 0
M  V30 BEGIN ATOM
M  V30 1 N -5.47818 0.912156 1.59603 0
M  V30 2 N -5.08329 -0.134834 0.730751 0
M  V30 3 C -3.70303 -0.229361 0.354478 0
M  V30 4 O -2.86699 0.59738 0.783208 0
M  V30 5 C -3.29337 -1.28922 -0.523632 0
M  V30 6 N -4.10594 -2.24983 -1.05707 0
M  V30 7 O -3.37664 -3.01384 -1.78629 0
M  V30 8 N -2.14511 -2.63679 -1.77923 0
M  V30 9 C -2.02278 -1.5277 -0.982471 0
M  V30 10 N -0.807886 -0.861639 -0.757009 0
M  V30 11 C 0.438869 -1.32375 -1.3767 0
M  V30 12 N 1.53582 -0.442527 -0.965136 0
M  V30 13 C 1.80538 -0.354374 0.415896 0
M  V30 14 N 1.17903 -0.983665 1.43763 0
M  V30 15 O 1.72652 -0.634107 2.54295 0
M  V30 16 N 2.69725 0.204489 2.32182 0
M  V30 17 C 2.78778 0.41495 0.983016 0
M  V30 18 C 3.77153 1.30107 0.397449 0
M  V30 19 O 3.83853 1.4843 -0.867426 0
M  V30 20 N 4.71664 2.01799 1.17472 0
M  V30 21 N 5.65167 2.86249 0.595523 0
M  V30 22 H -4.63498 1.24555 2.10424 0
M  V30 23 H -5.84335 1.70495 1.02302 0
M  V30 24 H -5.76733 -0.826956 0.368313 0
M  V30 25 H -0.769398 -0.0341125 -0.15079 0
M  V30 26 H 0.354574 -1.35696 -2.48201 0
M  V30 27 H 0.639961 -2.34083 -0.989311 0
M  V30 28 H 2.05053 0.0627865 -1.68731 0
M  V30 29 H 4.69277 1.89469 2.20385 0
M  V30 30 H 5.42502 3.14384 -0.368913 0
M  V30 31 H 6.58641 2.39383 0.570978 0
M  V30 END ATOM
M  V30 BEGIN BOND
M  V30 1 1 1 2
M  V30 2 1 2 3
M  V30 3 2 3 4
M  V30 4 1 3 5
M  V30 5 2 5 6
M  V30 6 1 6 7
M  V30 7 1 7 8
M  V30 8 2 8 9
M  V30 9 1 9 10
M  V30 10 1 10 11
M  V30 11 1 11 12
M  V30 12 1 12 13
M  V30 13 2 13 14
M  V30 14 1 14 15
M  V30 15 1 15 16
M  V30 16 2 16 17
M  V30 17 1 17 18
M  V30 18 2 18 19
M  V30 19 1 18 20
M  V30 20 1 20 21
M  V30 21 1 9 5
M  V30 22 1 17 13
M  V30 23 1 1 22
M  V30 24 1 1 23
M  V30 25 1 2 24
M  V30 26 1 10 25
M  V30 27 1 11 26
M  V30 28 1 11 27
M  V30 29 1 12 28
M  V30 30 1 20 29
M  V30 31 1 21 30
M  V30 32 1 21 31
M  V30 END BOND
M  V30 END CTAB
M  END
