
     RDKit          3D

  0  0  0  0  0  0  0  0  0  0999 V3000
M  V30 BEGIN CTAB
M  V30 COUNTS 34 36 0 0 0
M  V30 BEGIN ATOM
M  V30 1 Br 6.43688 -2.07072 -1.69174 0
M  V30 2 C 4.70033 -1.42751 -1.17298 0
M  V30 3 S 3.20928 -1.91177 -1.76672 0
M  V30 4 C 2.17628 -0.842927 -0.819001 0
M  V30 5 C 3.09488 -0.164094 -0.0881657 0
M  V30 6 C 4.41178 -0.434367 -0.251834 0
M  V30 7 S 5.69677 0.320101 0.648219 0
M  V30 8 O 7.0076 0.134921 0.0107441 0
M  V30 9 O 5.65107 -0.355973 2.03419 0
M  V30 10 N 5.39962 1.97312 0.944322 0
M  V30 11 C 0.729411 -0.900722 -0.865126 0
M  V30 12 O 0.00555527 -1.37287 -1.81886 0
M  V30 13 N -1.27416 -1.25013 -1.5351 0
M  V30 14 C -1.37612 -0.648133 -0.301923 0
M  V30 15 N -0.113592 -0.43967 0.101179 0
M  V30 16 C -2.68922 -0.416372 0.309218 0
M  V30 17 N -3.16372 -1.40643 1.21068 0
M  V30 18 C -2.71535 0.942022 1.01153 0
M  V30 19 C -4.13078 1.4446 0.923645 0
M  V30 20 C -4.78412 0.729041 -0.215794 0
M  V30 21 C -3.77691 -0.218826 -0.767703 0
M  V30 22 H 2.68499 0.594833 0.635863 0
M  V30 23 H 4.40273 2.27487 0.849332 0
M  V30 24 H 6.03088 2.60102 0.375819 0
M  V30 25 H -3.58046 -2.24212 0.789533 0
M  V30 26 H -2.56144 -1.5933 2.01151 0
M  V30 27 H -2.47106 0.733388 2.06143 0
M  V30 28 H -1.96451 1.6198 0.543461 0
M  V30 29 H -4.10536 2.51588 0.686053 0
M  V30 30 H -4.69926 1.21335 1.84477 0
M  V30 31 H -5.68243 0.170319 0.0674073 0
M  V30 32 H -5.08576 1.42099 -1.04611 0
M  V30 33 H -4.19419 -1.19119 -1.07277 0
M  V30 34 H -3.2696 0.198864 -1.692 0
M  V30 END ATOM
M  V30 BEGIN BOND
M  V30 1 1 1 2
M  V30 2 1 2 3
M  V30 3 1 3 4
M  V30 4 2 4 5
M  V30 5 1 5 6
M  V30 6 1 6 7
M  V30 7 2 7 8
M  V30 8 2 7 9
M  V30 9 1 7 10
M  V30 10 1 4 11
M  V30 11 1 11 12
M  V30 12 1 12 13
M  V30 13 2 13 14
M  V30 14 1 14 15
M  V30 15 1 14 16
M  V30 16 1 16 17
M  V30 17 1 16 18
M  V30 18 1 18 19
M  V30 19 1 19 20
M  V30 20 1 20 21
M  V30 21 2 6 2
M  V30 22 2 15 11
M  V30 23 1 21 16
M  V30 24 1 5 22
M  V30 25 1 10 23
M  V30 26 1 10 24
M  V30 27 1 17 25
M  V30 28 1 17 26
M  V30 29 1 18 27
M  V30 30 1 18 28
M  V30 31 1 19 29
M  V30 32 1 19 30
M  V30 33 1 20 31
M  V30 34 1 20 32
M  V30 35 1 21 33
M  V30 36 1 21 34
M  V30 END BOND
M  V30 END CTAB
M  END
