
     RDKit          3D

  0  0  0  0  0  0  0  0  0  0999 V3000
M  V30 BEGIN CTAB
M  V30 COUNTS 34 35 0 0 0
M  V30 BEGIN ATOM
M  V30 1 N 5.49254 1.34794 0.0840753 0
M  V30 2 C 4.16742 0.845518 0.205612 0
M  V30 3 C 3.45007 0.564648 -0.948894 0
M  V30 4 C 2.16336 0.0765474 -0.859401 0
M  V30 5 C 1.53651 -0.152789 0.347686 0
M  V30 6 C 2.29041 0.141733 1.46955 0
M  V30 7 N 3.55939 0.623056 1.37432 0
M  V30 8 C 0.198914 -0.659613 0.526201 0 CFG=2
M  V30 9 C -0.141109 -1.94503 -0.131172 0
M  V30 10 O -1.02096 -2.74387 0.593005 0
M  V30 11 C -2.23349 -2.20576 0.835195 0
M  V30 12 C -2.66321 -1.09281 -0.0510357 0
M  V30 13 N -2.1049 0.132667 0.441823 0
M  V30 14 C -0.776852 0.398605 -0.0143219 0
M  V30 15 S -3.16131 1.44433 0.423334 0
M  V30 16 O -2.53212 2.60188 1.14628 0
M  V30 17 O -4.39823 1.07216 1.22814 0
M  V30 18 N -3.72078 1.88156 -1.14062 0
M  V30 19 H 5.68737 2.26818 -0.326427 0
M  V30 20 H 6.26568 0.738798 0.431731 0
M  V30 21 H 3.87569 0.719086 -1.93951 0
M  V30 22 H 1.63547 -0.130471 -1.75362 0
M  V30 23 H 1.9245 0.0101016 2.48266 0
M  V30 24 H -0.0447594 -0.74515 1.60156 0
M  V30 25 H 0.75239 -2.61828 -0.287472 0
M  V30 26 H -0.505517 -1.72589 -1.15925 0
M  V30 27 H -2.28457 -1.84674 1.88827 0
M  V30 28 H -3.00489 -3.02481 0.769642 0
M  V30 29 H -3.78456 -0.996535 0.0575172 0
M  V30 30 H -2.49201 -1.26386 -1.12461 0
M  V30 31 H -0.448044 1.3567 0.437941 0
M  V30 32 H -0.666159 0.494691 -1.0949 0
M  V30 33 H -3.12554 1.53504 -1.90756 0
M  V30 34 H -3.89071 2.89837 -1.14167 0
M  V30 END ATOM
M  V30 BEGIN BOND
M  V30 1 1 1 2
M  V30 2 2 2 3
M  V30 3 1 3 4
M  V30 4 2 4 5
M  V30 5 1 5 6
M  V30 6 2 6 7
M  V30 7 1 5 8
M  V30 8 1 8 9
M  V30 9 1 9 10
M  V30 10 1 10 11
M  V30 11 1 11 12
M  V30 12 1 12 13
M  V30 13 1 13 14
M  V30 14 1 13 15
M  V30 15 2 15 16
M  V30 16 2 15 17
M  V30 17 1 15 18
M  V30 18 1 7 2
M  V30 19 1 14 8
M  V30 20 1 1 19
M  V30 21 1 1 20
M  V30 22 1 3 21
M  V30 23 1 4 22
M  V30 24 1 6 23
M  V30 25 1 8 24 CFG=1
M  V30 26 1 9 25
M  V30 27 1 9 26
M  V30 28 1 11 27
M  V30 29 1 11 28
M  V30 30 1 12 29
M  V30 31 1 12 30
M  V30 32 1 14 31
M  V30 33 1 14 32
M  V30 34 1 18 33
M  V30 35 1 18 34
M  V30 END BOND
M  V30 END CTAB
M  END
