
     RDKit          3D

  0  0  0  0  0  0  0  0  0  0999 V3000
M  V30 BEGIN CTAB
M  V30 COUNTS 19 19 0 0 0
M  V30 BEGIN ATOM
M  V30 1 N -3.00343 -1.74476 0.436641 0
M  V30 2 N -2.58798 -0.478606 0.0484886 0
M  V30 3 C -1.20197 -0.0924553 0.00653727 0
M  V30 4 N -0.913949 1.20418 -0.0899134 0
M  V30 5 C 0.352997 1.67039 -0.149447 0
M  V30 6 N 0.643217 3.05913 -0.213241 0
M  V30 7 C 1.38913 0.753912 -0.113837 0
M  V30 8 C 1.11098 -0.593828 -0.0172755 0
M  V30 9 N -0.188214 -0.961053 0.0415218 0
M  V30 10 C 2.24814 -1.53529 -0.0329729 0
M  V30 11 F 3.2743 -1.12594 0.819089 0
M  V30 12 F 1.88069 -2.82801 0.321759 0
M  V30 13 F 2.80524 -1.53453 -1.30589 0
M  V30 14 H -3.83409 -2.01939 -0.0502452 0
M  V30 15 H -2.55445 -2.2183 1.18519 0
M  V30 16 H -3.33998 0.214987 -0.25282 0
M  V30 17 H 0.189536 3.64238 -0.926885 0
M  V30 18 H 1.30095 3.48137 0.464796 0
M  V30 19 H 2.42888 1.10581 -0.171498 0
M  V30 END ATOM
M  V30 BEGIN BOND
M  V30 1 1 1 2
M  V30 2 1 2 3
M  V30 3 2 3 4
M  V30 4 1 4 5
M  V30 5 1 5 6
M  V30 6 2 5 7
M  V30 7 1 7 8
M  V30 8 2 8 9
M  V30 9 1 8 10
M  V30 10 1 10 11
M  V30 11 1 10 12
M  V30 12 1 10 13
M  V30 13 1 9 3
M  V30 14 1 1 14
M  V30 15 1 1 15
M  V30 16 1 2 16
M  V30 17 1 6 17
M  V30 18 1 6 18
M  V30 19 1 7 19
M  V30 END BOND
M  V30 END CTAB
M  END
