
     RDKit          3D

  0  0  0  0  0  0  0  0  0  0999 V3000
M  V30 BEGIN CTAB
M  V30 COUNTS 32 32 0 0 0
M  V30 BEGIN ATOM
M  V30 1 C -2.25606 2.18585 -0.598223 0
M  V30 2 C -2.3167 0.859622 0.142724 0
M  V30 3 C -1.76327 -0.184498 -0.768683 0
M  V30 4 N -0.429799 -0.0292394 -1.21195 0
M  V30 5 C 0.772312 -0.0186967 -0.457855 0
M  V30 6 C 0.861705 -0.185448 0.903848 0
M  V30 7 C 2.08827 -0.154574 1.56405 0
M  V30 8 C 3.2382 0.0470166 0.839492 0
M  V30 9 C 3.1527 0.214598 -0.527384 0
M  V30 10 N 1.94783 0.173308 -1.08983 0
M  V30 11 N 4.35408 0.421514 -1.25626 0
M  V30 12 N 4.5257 0.0906944 1.44481 0
M  V30 13 C -2.08468 -1.60823 -0.278953 0
M  V30 14 C -3.6087 -1.77631 -0.216613 0
M  V30 15 H -2.92431 2.89339 -0.0800088 0
M  V30 16 H -2.57792 2.02572 -1.63521 0
M  V30 17 H -1.22769 2.57246 -0.491657 0
M  V30 18 H -3.42208 0.610951 0.230085 0
M  V30 19 H -1.96376 0.898694 1.15888 0
M  V30 20 H -2.45107 -0.113183 -1.68288 0
M  V30 21 H -0.312924 0.0985425 -2.27427 0
M  V30 22 H -0.0257919 -0.348034 1.48385 0
M  V30 23 H 2.15056 -0.286017 2.63255 0
M  V30 24 H 4.52239 -0.138248 -2.11038 0
M  V30 25 H 5.06373 1.11095 -0.96233 0
M  V30 26 H 5.02605 -0.745146 1.78478 0
M  V30 27 H 4.99563 1.01506 1.55419 0
M  V30 28 H -1.73527 -1.79341 0.732261 0
M  V30 29 H -1.72935 -2.31529 -1.04624 0
M  V30 30 H -3.98648 -1.29427 0.70179 0
M  V30 31 H -3.78567 -2.86346 -0.100904 0
M  V30 32 H -4.09764 -1.36431 -1.10003 0
M  V30 END ATOM
M  V30 BEGIN BOND
M  V30 1 1 1 2
M  V30 2 1 2 3
M  V30 3 1 3 4
M  V30 4 1 4 5
M  V30 5 2 5 6
M  V30 6 1 6 7
M  V30 7 2 7 8
M  V30 8 1 8 9
M  V30 9 2 9 10
M  V30 10 1 9 11
M  V30 11 1 8 12
M  V30 12 1 3 13
M  V30 13 1 13 14
M  V30 14 1 10 5
M  V30 15 1 1 15
M  V30 16 1 1 16
M  V30 17 1 1 17
M  V30 18 1 2 18
M  V30 19 1 2 19
M  V30 20 1 3 20
M  V30 21 1 4 21
M  V30 22 1 6 22
M  V30 23 1 7 23
M  V30 24 1 11 24
M  V30 25 1 11 25
M  V30 26 1 12 26
M  V30 27 1 12 27
M  V30 28 1 13 28
M  V30 29 1 13 29
M  V30 30 1 14 30
M  V30 31 1 14 31
M  V30 32 1 14 32
M  V30 END BOND
M  V30 END CTAB
M  END
