
     RDKit          3D

  0  0  0  0  0  0  0  0  0  0999 V3000
M  V30 BEGIN CTAB
M  V30 COUNTS 41 42 0 0 0
M  V30 BEGIN ATOM
M  V30 1 N 5.81217 1.75013 0.471144 0
M  V30 2 C 6.24154 0.484924 0.0134678 0
M  V30 3 C 5.20872 -0.567426 0.378176 0
M  V30 4 C 3.9246 -0.183757 -0.281836 0
M  V30 5 N 3.66405 0.873229 -1.0599 0
M  V30 6 N 2.39682 0.840337 -1.44065 0
M  V30 7 C 1.81728 -0.246018 -0.910011 0
M  V30 8 N 2.75984 -0.875742 -0.196473 0
M  V30 9 C 2.57213 -2.11769 0.560881 0
M  V30 10 S 0.115306 -0.708106 -1.14667 0
M  V30 11 C -0.882614 0.0490704 0.138298 0
M  V30 12 C -2.35606 -0.334372 -0.0437427 0 CFG=2
M  V30 13 C -2.77569 0.159943 -1.38252 0
M  V30 14 C -4.23543 0.369017 -1.56062 0
M  V30 15 C -4.97238 0.804774 -0.343928 0
M  V30 16 C -4.58563 -0.00706707 0.887876 0 CFG=1
M  V30 17 C -3.10364 0.25051 1.10745 0
M  V30 18 N -5.38716 0.424658 1.99815 0
M  V30 19 H 5.62393 2.41168 -0.277044 0
M  V30 20 H 6.26857 2.11512 1.30436 0
M  V30 21 H 6.4005 0.536738 -1.08595 0
M  V30 22 H 7.22351 0.237682 0.460389 0
M  V30 23 H 5.12614 -0.567949 1.48387 0
M  V30 24 H 5.57126 -1.55268 0.0193074 0
M  V30 25 H 3.56341 -2.54142 0.806816 0
M  V30 26 H 2.0248 -2.8664 -0.0189539 0
M  V30 27 H 2.0477 -1.812 1.4937 0
M  V30 28 H -0.764091 1.1563 0.125544 0
M  V30 29 H -0.547706 -0.365272 1.12535 0
M  V30 30 H -2.39167 -1.44263 -0.00295251 0
M  V30 31 H -2.45423 -0.617012 -2.13735 0
M  V30 32 H -2.16163 1.06693 -1.65182 0
M  V30 33 H -4.36254 1.18559 -2.33144 0
M  V30 34 H -4.75972 -0.516092 -2.01754 0
M  V30 35 H -4.82093 1.88102 -0.0980496 0
M  V30 36 H -6.05563 0.668795 -0.511802 0
M  V30 37 H -4.68938 -1.08035 0.64754 0
M  V30 38 H -2.73613 -0.221933 2.03452 0
M  V30 39 H -2.97772 1.34743 1.1324 0
M  V30 40 H -6.34324 0.0276435 1.87386 0
M  V30 41 H -4.99907 -0.0175998 2.88069 0
M  V30 END ATOM
M  V30 BEGIN BOND
M  V30 1 1 1 2
M  V30 2 1 2 3
M  V30 3 1 3 4
M  V30 4 2 4 5
M  V30 5 1 5 6
M  V30 6 2 6 7
M  V30 7 1 7 8
M  V30 8 1 8 9
M  V30 9 1 7 10
M  V30 10 1 10 11
M  V30 11 1 11 12
M  V30 12 1 12 13
M  V30 13 1 13 14
M  V30 14 1 14 15
M  V30 15 1 15 16
M  V30 16 1 16 17
M  V30 17 1 16 18
M  V30 18 1 8 4
M  V30 19 1 17 12
M  V30 20 1 1 19
M  V30 21 1 1 20
M  V30 22 1 2 21
M  V30 23 1 2 22
M  V30 24 1 3 23
M  V30 25 1 3 24
M  V30 26 1 9 25
M  V30 27 1 9 26
M  V30 28 1 9 27
M  V30 29 1 11 28
M  V30 30 1 11 29
M  V30 31 1 12 30 CFG=3
M  V30 32 1 13 31
M  V30 33 1 13 32
M  V30 34 1 14 33
M  V30 35 1 14 34
M  V30 36 1 15 35
M  V30 37 1 15 36
M  V30 38 1 16 37 CFG=3
M  V30 39 1 17 38
M  V30 40 1 17 39
M  V30 41 1 18 40
M  V30 42 1 18 41
M  V30 END BOND
M  V30 END CTAB
M  END
