
     RDKit          3D

  0  0  0  0  0  0  0  0  0  0999 V3000
M  V30 BEGIN CTAB
M  V30 COUNTS 28 29 0 0 0
M  V30 BEGIN ATOM
M  V30 1 N 3.01519 2.01395 -0.37139 0
M  V30 2 C 2.24544 0.875454 -0.0120746 0
M  V30 3 N 0.891461 0.84293 -0.0664811 0
M  V30 4 C 0.217551 -0.242679 0.287978 0
M  V30 5 N 0.82981 -1.37608 0.721245 0
M  V30 6 C 2.17631 -1.39513 0.792621 0
M  V30 7 O 2.81487 -2.40955 1.18423 0
M  V30 8 C 2.88902 -0.268384 0.425809 0
M  V30 9 N 4.31432 -0.276784 0.495226 0
M  V30 10 N -1.22362 -0.285726 0.21753 0
M  V30 11 C -2.05284 0.456102 1.14012 0
M  V30 12 C -3.19458 1.08854 0.413766 0
M  V30 13 O -3.8841 0.197437 -0.389257 0
M  V30 14 C -3.08347 -0.409587 -1.33604 0
M  V30 15 C -1.87807 -1.10245 -0.7778 0
M  V30 16 H 3.42918 2.16327 -1.32612 0
M  V30 17 H 3.14985 2.72264 0.400567 0
M  V30 18 H 0.279527 -2.22627 0.99747 0
M  V30 19 H 4.85197 0.183976 -0.267703 0
M  V30 20 H 4.82615 -0.720012 1.26473 0
M  V30 21 H -1.41995 1.26829 1.5576 0
M  V30 22 H -2.46299 -0.199154 1.92717 0
M  V30 23 H -3.92606 1.42257 1.19026 0
M  V30 24 H -2.87883 2.00665 -0.113775 0
M  V30 25 H -2.75403 0.278964 -2.13813 0
M  V30 26 H -3.7186 -1.23102 -1.78617 0
M  V30 27 H -1.21953 -1.35452 -1.62933 0
M  V30 28 H -2.23396 -2.02341 -0.245455 0
M  V30 END ATOM
M  V30 BEGIN BOND
M  V30 1 1 1 2
M  V30 2 1 2 3
M  V30 3 2 3 4
M  V30 4 1 4 5
M  V30 5 1 5 6
M  V30 6 2 6 7
M  V30 7 1 6 8
M  V30 8 1 8 9
M  V30 9 1 4 10
M  V30 10 1 10 11
M  V30 11 1 11 12
M  V30 12 1 12 13
M  V30 13 1 13 14
M  V30 14 1 14 15
M  V30 15 2 8 2
M  V30 16 1 15 10
M  V30 17 1 1 16
M  V30 18 1 1 17
M  V30 19 1 5 18
M  V30 20 1 9 19
M  V30 21 1 9 20
M  V30 22 1 11 21
M  V30 23 1 11 22
M  V30 24 1 12 23
M  V30 25 1 12 24
M  V30 26 1 14 25
M  V30 27 1 14 26
M  V30 28 1 15 27
M  V30 29 1 15 28
M  V30 END BOND
M  V30 END CTAB
M  END
