
     RDKit          3D

  0  0  0  0  0  0  0  0  0  0999 V3000
M  V30 BEGIN CTAB
M  V30 COUNTS 25 25 0 0 0
M  V30 BEGIN ATOM
M  V30 1 C -4.16352 0.0988076 0.0853142 0
M  V30 2 C -3.39108 -0.627099 -0.971321 0
M  V30 3 O -2.00695 -0.716564 -0.659819 0
M  V30 4 C -1.22418 0.414891 -0.482581 0
M  V30 5 O -1.78257 1.53331 -0.607272 0
M  V30 6 C 0.193412 0.293093 -0.163571 0
M  V30 7 C 1.00357 1.38253 0.0198056 0
M  V30 8 C 2.32798 1.20332 0.317797 0
M  V30 9 N 3.1948 2.33511 0.513964 0
M  V30 10 C 2.87563 -0.0595692 0.439933 0
M  V30 11 C 2.09645 -1.17442 0.263504 0
M  V30 12 C 0.752795 -0.970703 -0.0387943 0
M  V30 13 N 2.61276 -2.49988 0.378503 0
M  V30 14 Cl 4.57367 -0.313259 0.82196 0
M  V30 15 H -4.91719 -0.566559 0.566673 0
M  V30 16 H -3.48959 0.542843 0.872412 0
M  V30 17 H -4.69967 0.94233 -0.396145 0
M  V30 18 H -3.55685 -0.194603 -1.97064 0
M  V30 19 H -3.75597 -1.6844 -1.00842 0
M  V30 20 H 0.605996 2.36723 -0.0687995 0
M  V30 21 H 4.09118 2.22787 1.00564 0
M  V30 22 H 2.92262 3.2722 0.160189 0
M  V30 23 H 0.162624 -1.8682 -0.172486 0
M  V30 24 H 3.46271 -2.76585 -0.141449 0
M  V30 25 H 2.11138 -3.17242 0.992261 0
M  V30 END ATOM
M  V30 BEGIN BOND
M  V30 1 1 1 2
M  V30 2 1 2 3
M  V30 3 1 3 4
M  V30 4 2 4 5
M  V30 5 1 4 6
M  V30 6 2 6 7
M  V30 7 1 7 8
M  V30 8 1 8 9
M  V30 9 2 8 10
M  V30 10 1 10 11
M  V30 11 2 11 12
M  V30 12 1 11 13
M  V30 13 1 10 14
M  V30 14 1 12 6
M  V30 15 1 1 15
M  V30 16 1 1 16
M  V30 17 1 1 17
M  V30 18 1 2 18
M  V30 19 1 2 19
M  V30 20 1 7 20
M  V30 21 1 9 21
M  V30 22 1 9 22
M  V30 23 1 12 23
M  V30 24 1 13 24
M  V30 25 1 13 25
M  V30 END BOND
M  V30 END CTAB
M  END
