
     RDKit          3D

  0  0  0  0  0  0  0  0  0  0999 V3000
M  V30 BEGIN CTAB
M  V30 COUNTS 26 26 0 0 0
M  V30 BEGIN ATOM
M  V30 1 N 2.14534 1.55601 -0.671407 0
M  V30 2 C 1.82962 0.410291 0.0940526 0
M  V30 3 C 0.709117 -0.451977 -0.413666 0 CFG=1
M  V30 4 C 0.657141 -1.6096 0.628494 0
M  V30 5 N -0.230059 -2.59489 -0.00632011 0
M  V30 6 C -1.55561 -2.03318 0.173552 0
M  V30 7 C -1.70198 -0.675328 -0.376017 0
M  V30 8 N -0.535912 0.0881059 -0.581767 0
M  V30 9 S -0.862336 1.72143 -0.655708 0
M  V30 10 O -0.363753 2.46935 -1.83985 0
M  V30 11 O -2.39452 1.92555 -0.678149 0
M  V30 12 N -0.386443 2.47198 0.84994 0
M  V30 13 H 2.78858 1.31567 -1.44489 0
M  V30 14 H 2.62392 2.25799 -0.060121 0
M  V30 15 H 2.7919 -0.183246 0.175786 0
M  V30 16 H 1.62644 0.749485 1.13912 0
M  V30 17 H 1.09984 -0.961792 -1.34671 0
M  V30 18 H 1.65294 -1.99867 0.819012 0
M  V30 19 H 0.178991 -1.14683 1.51634 0
M  V30 20 H -0.151491 -3.5013 0.463722 0
M  V30 21 H -2.30604 -2.7406 -0.279907 0
M  V30 22 H -1.76017 -2.06651 1.26783 0
M  V30 23 H -2.28587 -0.744531 -1.34005 0
M  V30 24 H -2.38826 -0.0883453 0.302816 0
M  V30 25 H -1.13004 2.39831 1.56541 0
M  V30 26 H -0.0513508 3.43263 0.698473 0
M  V30 END ATOM
M  V30 BEGIN BOND
M  V30 1 1 1 2
M  V30 2 1 2 3
M  V30 3 1 3 4
M  V30 4 1 4 5
M  V30 5 1 5 6
M  V30 6 1 6 7
M  V30 7 1 7 8
M  V30 8 1 8 9
M  V30 9 2 9 10
M  V30 10 2 9 11
M  V30 11 1 9 12
M  V30 12 1 8 3
M  V30 13 1 1 13
M  V30 14 1 1 14
M  V30 15 1 2 15
M  V30 16 1 2 16
M  V30 17 1 3 17 CFG=3
M  V30 18 1 4 18
M  V30 19 1 4 19
M  V30 20 1 5 20
M  V30 21 1 6 21
M  V30 22 1 6 22
M  V30 23 1 7 23
M  V30 24 1 7 24
M  V30 25 1 12 25
M  V30 26 1 12 26
M  V30 END BOND
M  V30 END CTAB
M  END
