
     RDKit          3D

  0  0  0  0  0  0  0  0  0  0999 V3000
M  V30 BEGIN CTAB
M  V30 COUNTS 26 28 0 0 0
M  V30 BEGIN ATOM
M  V30 1 N 4.97724 -1.20257 -0.932695 0
M  V30 2 N 4.27325 -0.0933974 -0.465044 0
M  V30 3 C 2.85987 -0.0681314 -0.367568 0
M  V30 4 N 2.23495 1.01434 0.0849381 0
M  V30 5 C 0.924241 1.10451 0.201158 0
M  V30 6 N 0.421394 2.34868 0.707805 0
M  V30 7 C 0.0658078 0.0395655 -0.152088 0
M  V30 8 C 0.727274 -1.06349 -0.614773 0
M  V30 9 N 2.09263 -1.11842 -0.720961 0
M  V30 10 S -0.540319 -2.16043 -0.953432 0
M  V30 11 C -1.8682 -1.20253 -0.503857 0
M  V30 12 C -1.29651 -0.0471722 -0.0991886 0
M  V30 13 C -2.44035 0.872811 0.322906 0
M  V30 14 C -3.62768 -0.0012321 0.500908 0
M  V30 15 C -3.36553 -1.18685 -0.399331 0
M  V30 16 H 5.60654 -1.5628 -0.157627 0
M  V30 17 H 4.34804 -2.00328 -1.16327 0
M  V30 18 H 4.82099 0.73998 -0.180577 0
M  V30 19 H 0.0571406 3.02333 0.0107999 0
M  V30 20 H 0.431588 2.54517 1.7387 0
M  V30 21 H -2.18772 1.32917 1.31414 0
M  V30 22 H -2.56401 1.68582 -0.389276 0
M  V30 23 H -4.55114 0.523305 0.194495 0
M  V30 24 H -3.78181 -0.383589 1.52329 0
M  V30 25 H -3.8512 -0.999309 -1.37898 0
M  V30 26 H -3.76649 -2.13348 -0.0075214 0
M  V30 END ATOM
M  V30 BEGIN BOND
M  V30 1 1 1 2
M  V30 2 1 2 3
M  V30 3 2 3 4
M  V30 4 1 4 5
M  V30 5 1 5 6
M  V30 6 2 5 7
M  V30 7 1 7 8
M  V30 8 2 8 9
M  V30 9 1 8 10
M  V30 10 1 10 11
M  V30 11 2 11 12
M  V30 12 1 12 13
M  V30 13 1 13 14
M  V30 14 1 14 15
M  V30 15 1 9 3
M  V30 16 1 15 11
M  V30 17 1 12 7
M  V30 18 1 1 16
M  V30 19 1 1 17
M  V30 20 1 2 18
M  V30 21 1 6 19
M  V30 22 1 6 20
M  V30 23 1 13 21
M  V30 24 1 13 22
M  V30 25 1 14 23
M  V30 26 1 14 24
M  V30 27 1 15 25
M  V30 28 1 15 26
M  V30 END BOND
M  V30 END CTAB
M  END
