
     RDKit          3D

  0  0  0  0  0  0  0  0  0  0999 V3000
M  V30 BEGIN CTAB
M  V30 COUNTS 23 23 0 0 0
M  V30 BEGIN ATOM
M  V30 1 O 2.48477 1.44578 0.21613 0
M  V30 2 C 1.47598 0.7718 -0.511294 0
M  V30 3 C 1.60509 -0.671024 -0.242944 0
M  V30 4 C 0.365399 -1.45547 -0.125099 0
M  V30 5 C -0.817201 -0.728694 0.423496 0
M  V30 6 C -1.00989 0.52749 -0.428941 0
M  V30 7 C 0.181218 1.40029 -0.166689 0
M  V30 8 N -2.23507 1.19926 -0.153685 0
M  V30 9 N -1.99103 -1.55154 0.208739 0
M  V30 10 H 3.2453 0.812655 0.326164 0
M  V30 11 H 1.71308 1.01087 -1.58917 0
M  V30 12 H 2.22805 -1.1242 -1.07043 0
M  V30 13 H 2.22693 -0.85838 0.681486 0
M  V30 14 H 0.537699 -2.34953 0.534035 0
M  V30 15 H 0.0693246 -1.90689 -1.11749 0
M  V30 16 H -0.673669 -0.449965 1.48604 0
M  V30 17 H -0.948992 0.18539 -1.47978 0
M  V30 18 H 0.176593 1.7901 0.888305 0
M  V30 19 H 0.0518647 2.31805 -0.803117 0
M  V30 20 H -2.45039 1.81634 -0.985334 0
M  V30 21 H -2.15181 1.77671 0.696079 0
M  V30 22 H -1.755 -2.56057 0.276124 0
M  V30 23 H -2.32826 -1.39847 -0.773325 0
M  V30 END ATOM
M  V30 BEGIN BOND
M  V30 1 1 1 2
M  V30 2 1 2 3
M  V30 3 1 3 4
M  V30 4 1 4 5
M  V30 5 1 5 6
M  V30 6 1 6 7
M  V30 7 1 6 8
M  V30 8 1 5 9
M  V30 9 1 7 2
M  V30 10 1 1 10
M  V30 11 1 2 11
M  V30 12 1 3 12
M  V30 13 1 3 13
M  V30 14 1 4 14
M  V30 15 1 4 15
M  V30 16 1 5 16
M  V30 17 1 6 17
M  V30 18 1 7 18
M  V30 19 1 7 19
M  V30 20 1 8 20
M  V30 21 1 8 21
M  V30 22 1 9 22
M  V30 23 1 9 23
M  V30 END BOND
M  V30 END CTAB
M  END
