
     RDKit          3D

  0  0  0  0  0  0  0  0  0  0999 V3000
M  V30 BEGIN CTAB
M  V30 COUNTS 26 26 0 0 0
M  V30 BEGIN ATOM
M  V30 1 C -1.90115 -1.11689 2.55107 0
M  V30 2 C -2.21743 -1.03308 1.38801 0
M  V30 3 C -2.58723 -0.910351 -0.0167795 0
M  V30 4 C -1.38817 -1.11281 -0.931052 0
M  V30 5 C -0.331852 -0.108529 -0.658535 0
M  V30 6 N -0.461725 1.1377 -1.14673 0
M  V30 7 C 0.480639 2.09482 -0.923933 0
M  V30 8 N 0.273066 3.38985 -1.47288 0
M  V30 9 N 1.55373 1.75804 -0.196631 0
M  V30 10 C 1.73217 0.526781 0.314449 0
M  V30 11 N 0.77117 -0.374836 0.0625337 0
M  V30 12 N 2.89273 0.230435 1.07848 0
M  V30 13 C 3.13152 -1.07148 1.64763 0
M  V30 14 N -1.81833 -1.11109 -2.30047 0
M  V30 15 H -1.6142 -1.18522 3.57304 0
M  V30 16 H -3.05401 0.091394 -0.185042 0
M  V30 17 H -3.32856 -1.70088 -0.250332 0
M  V30 18 H -1.01539 -2.14753 -0.711531 0
M  V30 19 H 0.332356 4.25716 -0.889672 0
M  V30 20 H 0.0566894 3.46073 -2.48586 0
M  V30 21 H 3.60456 0.970135 1.24123 0
M  V30 22 H 2.22475 -1.69758 1.71544 0
M  V30 23 H 3.83932 -1.5985 0.949221 0
M  V30 24 H 3.61135 -0.920893 2.64067 0
M  V30 25 H -2.07273 -0.160966 -2.65269 0
M  V30 26 H -2.71328 -1.66643 -2.33964 0
M  V30 END ATOM
M  V30 BEGIN BOND
M  V30 1 3 1 2
M  V30 2 1 2 3
M  V30 3 1 3 4
M  V30 4 1 4 5
M  V30 5 2 5 6
M  V30 6 1 6 7
M  V30 7 1 7 8
M  V30 8 2 7 9
M  V30 9 1 9 10
M  V30 10 2 10 11
M  V30 11 1 10 12
M  V30 12 1 12 13
M  V30 13 1 4 14
M  V30 14 1 11 5
M  V30 15 1 1 15
M  V30 16 1 3 16
M  V30 17 1 3 17
M  V30 18 1 4 18
M  V30 19 1 8 19
M  V30 20 1 8 20
M  V30 21 1 12 21
M  V30 22 1 13 22
M  V30 23 1 13 23
M  V30 24 1 13 24
M  V30 25 1 14 25
M  V30 26 1 14 26
M  V30 END BOND
M  V30 END CTAB
M  END
