
     RDKit          3D

  0  0  0  0  0  0  0  0  0  0999 V3000
M  V30 BEGIN CTAB
M  V30 COUNTS 47 48 0 0 0
M  V30 BEGIN ATOM
M  V30 1 C 5.81596 1.58528 -0.303172 0
M  V30 2 C 4.68147 0.568747 -0.303794 0
M  V30 3 C 3.59631 1.09173 0.629175 0
M  V30 4 C 2.46296 0.0865347 0.634976 0
M  V30 5 C 1.35119 0.539464 1.53893 0
M  V30 6 C 0.194465 -0.419003 1.59333 0
M  V30 7 C -0.421505 -0.616815 0.252667 0
M  V30 8 C -0.947639 0.619744 -0.350675 0
M  V30 9 C -0.878128 0.864773 -1.70543 0
M  V30 10 C -1.36402 2.01261 -2.28332 0
M  V30 11 C -1.9576 2.99369 -1.50989 0
M  V30 12 N -2.46712 4.19541 -2.10907 0
M  V30 13 C -2.03515 2.76581 -0.158312 0
M  V30 14 C -1.54961 1.61685 0.425975 0
M  V30 15 C -1.47666 -1.67062 0.292618 0
M  V30 16 C -1.61928 -2.56828 -0.755442 0
M  V30 17 C -2.57653 -3.55882 -0.769764 0
M  V30 18 C -3.45166 -3.69409 0.291259 0
M  V30 19 N -4.44628 -4.70188 0.306156 0
M  V30 20 C -3.31114 -2.79636 1.3424 0
M  V30 21 C -2.34841 -1.80337 1.35226 0
M  V30 22 H 5.61466 2.40997 0.408899 0
M  V30 23 H 6.7379 1.08606 0.0467045 0
M  V30 24 H 6.01023 1.98486 -1.31202 0
M  V30 25 H 4.2925 0.457316 -1.33353 0
M  V30 26 H 5.04948 -0.412059 0.0552084 0
M  V30 27 H 3.28833 2.10077 0.348116 0
M  V30 28 H 4.00971 1.1362 1.65271 0
M  V30 29 H 2.16375 -0.0917162 -0.398231 0
M  V30 30 H 2.87997 -0.858932 1.06854 0
M  V30 31 H 1.73961 0.651718 2.57187 0
M  V30 32 H 1.04526 1.55106 1.1914 0
M  V30 33 H -0.544374 -0.125361 2.36004 0
M  V30 34 H 0.632173 -1.41081 1.89586 0
M  V30 35 H 0.372921 -1.02336 -0.437006 0
M  V30 36 H -0.404416 0.075629 -2.30076 0
M  V30 37 H -1.28428 2.15436 -3.34797 0
M  V30 38 H -1.88853 4.61328 -2.86023 0
M  V30 39 H -3.36691 4.58217 -1.77344 0
M  V30 40 H -2.48998 3.50733 0.470225 0
M  V30 41 H -1.59683 1.41047 1.48642 0
M  V30 42 H -0.933042 -2.45327 -1.57503 0
M  V30 43 H -2.67024 -4.25454 -1.60607 0
M  V30 44 H -4.35904 -5.50596 -0.339579 0
M  V30 45 H -5.2438 -4.63424 0.950459 0
M  V30 46 H -4.01276 -2.92525 2.16463 0
M  V30 47 H -2.29391 -1.13709 2.20189 0
M  V30 END ATOM
M  V30 BEGIN BOND
M  V30 1 1 1 2
M  V30 2 1 2 3
M  V30 3 1 3 4
M  V30 4 1 4 5
M  V30 5 1 5 6
M  V30 6 1 6 7
M  V30 7 1 7 8
M  V30 8 2 8 9
M  V30 9 1 9 10
M  V30 10 2 10 11
M  V30 11 1 11 12
M  V30 12 1 11 13
M  V30 13 2 13 14
M  V30 14 1 7 15
M  V30 15 2 15 16
M  V30 16 1 16 17
M  V30 17 2 17 18
M  V30 18 1 18 19
M  V30 19 1 18 20
M  V30 20 2 20 21
M  V30 21 1 14 8
M  V30 22 1 21 15
M  V30 23 1 1 22
M  V30 24 1 1 23
M  V30 25 1 1 24
M  V30 26 1 2 25
M  V30 27 1 2 26
M  V30 28 1 3 27
M  V30 29 1 3 28
M  V30 30 1 4 29
M  V30 31 1 4 30
M  V30 32 1 5 31
M  V30 33 1 5 32
M  V30 34 1 6 33
M  V30 35 1 6 34
M  V30 36 1 7 35
M  V30 37 1 9 36
M  V30 38 1 10 37
M  V30 39 1 12 38
M  V30 40 1 12 39
M  V30 41 1 13 40
M  V30 42 1 14 41
M  V30 43 1 16 42
M  V30 44 1 17 43
M  V30 45 1 19 44
M  V30 46 1 19 45
M  V30 47 1 20 46
M  V30 48 1 21 47
M  V30 END BOND
M  V30 END CTAB
M  END
