
     RDKit          3D

  0  0  0  0  0  0  0  0  0  0999 V3000
M  V30 BEGIN CTAB
M  V30 COUNTS 50 51 0 0 0
M  V30 BEGIN ATOM
M  V30 1 N -5.13162 -1.93316 -1.49049 0
M  V30 2 C -5.49889 -0.763218 -0.685897 0
M  V30 3 C -4.32712 -0.476073 0.2259 0
M  V30 4 C -4.64139 0.710672 1.08724 0
M  V30 5 C -4.69224 1.95503 0.246125 0
M  V30 6 C -3.32335 2.18441 -0.341685 0
M  V30 7 C -2.93598 1.03736 -1.25495 0
M  V30 8 N -3.17 -0.239629 -0.607757 0
M  V30 9 C -2.2328 -1.27607 -0.800402 0
M  V30 10 O -2.45088 -2.38093 -0.229189 0
M  V30 11 C -1.03112 -1.06236 -1.65101 0
M  V30 12 S -0.0190827 -2.55363 -1.76716 0
M  V30 13 C 0.72619 -3.02289 -0.209018 0
M  V30 14 C 1.73922 -2.03998 0.29241 0
M  V30 15 O 2.821 -1.84338 -0.584307 0
M  V30 16 C 3.80313 -0.937789 -0.174712 0
M  V30 17 C 4.91058 -0.673455 -0.969816 0
M  V30 18 C 5.88448 0.216432 -0.57698 0
M  V30 19 C 5.77064 0.86625 0.629514 0
M  V30 20 C 4.6906 0.635953 1.45063 0
M  V30 21 C 3.74215 -0.256595 1.02492 0
M  V30 22 S 6.99986 2.01168 1.16534 0
M  V30 23 O 7.07614 2.00813 2.65406 0
M  V30 24 O 8.32821 1.59663 0.620888 0
M  V30 25 N 6.62336 3.60182 0.637144 0
M  V30 26 H -4.90725 -1.68054 -2.46759 0
M  V30 27 H -5.88 -2.65429 -1.40653 0
M  V30 28 H -5.69718 0.04639 -1.4139 0
M  V30 29 H -6.3948 -0.967288 -0.0688595 0
M  V30 30 H -4.10547 -1.37212 0.857123 0
M  V30 31 H -3.77834 0.786828 1.81649 0
M  V30 32 H -5.58555 0.548506 1.64864 0
M  V30 33 H -5.39077 1.81291 -0.578305 0
M  V30 34 H -4.94068 2.85764 0.862778 0
M  V30 35 H -3.31979 3.14035 -0.902721 0
M  V30 36 H -2.59315 2.22242 0.493894 0
M  V30 37 H -1.90344 1.15905 -1.57887 0
M  V30 38 H -3.611 1.0841 -2.1338 0
M  V30 39 H -1.38905 -0.822958 -2.66988 0
M  V30 40 H -0.428534 -0.181841 -1.312 0
M  V30 41 H 3.53254e-05 -3.19932 0.607293 0
M  V30 42 H 1.24748 -3.99374 -0.364032 0
M  V30 43 H 2.17953 -2.48814 1.22894 0
M  V30 44 H 1.27978 -1.08394 0.629006 0
M  V30 45 H 4.99491 -1.18792 -1.91975 0
M  V30 46 H 6.76296 0.427559 -1.20573 0
M  V30 47 H 4.63427 1.16498 2.39178 0
M  V30 48 H 2.89225 -0.425739 1.69193 0
M  V30 49 H 6.60993 3.59921 -0.401251 0
M  V30 50 H 5.66276 3.84268 1.01015 0
M  V30 END ATOM
M  V30 BEGIN BOND
M  V30 1 1 1 2
M  V30 2 1 2 3
M  V30 3 1 3 4
M  V30 4 1 4 5
M  V30 5 1 5 6
M  V30 6 1 6 7
M  V30 7 1 7 8
M  V30 8 1 8 9
M  V30 9 2 9 10
M  V30 10 1 9 11
M  V30 11 1 11 12
M  V30 12 1 12 13
M  V30 13 1 13 14
M  V30 14 1 14 15
M  V30 15 1 15 16
M  V30 16 2 16 17
M  V30 17 1 17 18
M  V30 18 2 18 19
M  V30 19 1 19 20
M  V30 20 2 20 21
M  V30 21 1 19 22
M  V30 22 2 22 23
M  V30 23 2 22 24
M  V30 24 1 22 25
M  V30 25 1 8 3
M  V30 26 1 21 16
M  V30 27 1 1 26
M  V30 28 1 1 27
M  V30 29 1 2 28
M  V30 30 1 2 29
M  V30 31 1 3 30
M  V30 32 1 4 31
M  V30 33 1 4 32
M  V30 34 1 5 33
M  V30 35 1 5 34
M  V30 36 1 6 35
M  V30 37 1 6 36
M  V30 38 1 7 37
M  V30 39 1 7 38
M  V30 40 1 11 39
M  V30 41 1 11 40
M  V30 42 1 13 41
M  V30 43 1 13 42
M  V30 44 1 14 43
M  V30 45 1 14 44
M  V30 46 1 17 45
M  V30 47 1 18 46
M  V30 48 1 20 47
M  V30 49 1 21 48
M  V30 50 1 25 49
M  V30 51 1 25 50
M  V30 END BOND
M  V30 END CTAB
M  END
