
     RDKit          3D

  0  0  0  0  0  0  0  0  0  0999 V3000
M  V30 BEGIN CTAB
M  V30 COUNTS 19 19 0 0 0
M  V30 BEGIN ATOM
M  V30 1 N -2.26391 -2.10751 0.11738 0
M  V30 2 C -1.33181 -1.06507 0.0160647 0
M  V30 3 N -1.77822 0.193065 0.255905 0
M  V30 4 C -0.922228 1.20058 0.168303 0
M  V30 5 C -1.33695 2.61197 0.417514 0
M  V30 6 N 0.36571 0.99904 -0.150461 0
M  V30 7 C 0.869902 -0.226777 -0.400098 0
M  V30 8 C -0.00720168 -1.28228 -0.312856 0
M  V30 9 C 2.26096 -0.365159 -0.735771 0
M  V30 10 S 2.71966 -0.515102 -2.27328 0
M  V30 11 N 3.22548 -0.369864 0.279546 0
M  V30 12 H -2.95452 -2.27987 -0.619531 0
M  V30 13 H -2.24489 -2.71189 0.961968 0
M  V30 14 H -1.1718 3.18131 -0.517935 0
M  V30 15 H -0.605399 3.02374 1.1574 0
M  V30 16 H -2.35918 2.69116 0.803468 0
M  V30 17 H 0.364301 -2.27098 -0.506093 0
M  V30 18 H 3.31809 0.488446 0.898366 0
M  V30 19 H 3.85201 -1.19481 0.440116 0
M  V30 END ATOM
M  V30 BEGIN BOND
M  V30 1 1 1 2
M  V30 2 2 2 3
M  V30 3 1 3 4
M  V30 4 1 4 5
M  V30 5 2 4 6
M  V30 6 1 6 7
M  V30 7 2 7 8
M  V30 8 1 7 9
M  V30 9 2 9 10
M  V30 10 1 9 11
M  V30 11 1 8 2
M  V30 12 1 1 12
M  V30 13 1 1 13
M  V30 14 1 5 14
M  V30 15 1 5 15
M  V30 16 1 5 16
M  V30 17 1 8 17
M  V30 18 1 11 18
M  V30 19 1 11 19
M  V30 END BOND
M  V30 END CTAB
M  END
