
     RDKit          3D

  0  0  0  0  0  0  0  0  0  0999 V3000
M  V30 BEGIN CTAB
M  V30 COUNTS 28 27 0 0 0
M  V30 BEGIN ATOM
M  V30 1 C -2.30426 2.38854 0.41418 0
M  V30 2 O -2.72395 1.14115 0.354864 0
M  V30 3 C -2.20572 0.0898101 -0.236367 0
M  V30 4 C -0.790844 -0.375385 0.168558 0
M  V30 5 C 0.290792 0.453591 -0.387747 0
M  V30 6 C 1.66662 0.166763 -0.0069881 0
M  V30 7 O 2.11169 -0.56582 0.893827 0
M  V30 8 O 2.66712 0.814968 -0.773623 0
M  V30 9 C 4.03468 0.595136 -0.475628 0
M  V30 10 C -0.720225 -1.81926 -0.433332 0
M  V30 11 N 0.469561 -2.50681 -0.205847 0
M  V30 12 N -0.759616 -0.572535 1.56941 0
M  V30 13 H -1.34527 2.63632 0.8941 0
M  V30 14 H -2.32314 2.94031 -0.569968 0
M  V30 15 H -3.05471 2.98216 1.0556 0
M  V30 16 H -2.85368 -0.816848 0.0236372 0
M  V30 17 H -2.259 0.0977988 -1.36494 0
M  V30 18 H 0.157981 1.5602 -0.287941 0
M  V30 19 H 0.29052 0.348206 -1.54411 0
M  V30 20 H 4.7005 0.798857 -1.32508 0
M  V30 21 H 4.12087 -0.502183 -0.249773 0
M  V30 22 H 4.31863 1.13429 0.450607 0
M  V30 23 H -1.63979 -2.36305 -0.143063 0
M  V30 24 H -0.811783 -1.62715 -1.54341 0
M  V30 25 H 0.585008 -3.24087 -0.95847 0
M  V30 26 H 0.540565 -3.03258 0.701944 0
M  V30 27 H -1.59786 -1.06118 1.92983 0
M  V30 28 H -0.564704 0.335562 2.04974 0
M  V30 END ATOM
M  V30 BEGIN BOND
M  V30 1 1 1 2
M  V30 2 1 2 3
M  V30 3 1 3 4
M  V30 4 1 4 5
M  V30 5 1 5 6
M  V30 6 2 6 7
M  V30 7 1 6 8
M  V30 8 1 8 9
M  V30 9 1 4 10
M  V30 10 1 10 11
M  V30 11 1 4 12
M  V30 12 1 1 13
M  V30 13 1 1 14
M  V30 14 1 1 15
M  V30 15 1 3 16
M  V30 16 1 3 17
M  V30 17 1 5 18
M  V30 18 1 5 19
M  V30 19 1 9 20
M  V30 20 1 9 21
M  V30 21 1 9 22
M  V30 22 1 10 23
M  V30 23 1 10 24
M  V30 24 1 11 25
M  V30 25 1 11 26
M  V30 26 1 12 27
M  V30 27 1 12 28
M  V30 END BOND
M  V30 END CTAB
M  END
