
     RDKit          3D

  0  0  0  0  0  0  0  0  0  0999 V3000
M  V30 BEGIN CTAB
M  V30 COUNTS 17 18 0 0 0
M  V30 BEGIN ATOM
M  V30 1 N 3.19895 -0.310553 -0.302404 0
M  V30 2 C 1.79177 -0.171933 -0.16668 0
M  V30 3 N 1.18942 1.02663 -0.0583525 0
M  V30 4 C -0.159257 1.14247 0.0709603 0
M  V30 5 N -0.810672 2.3961 0.186229 0
M  V30 6 C -0.961361 0.0164683 0.0951724 0
M  V30 7 C -0.331339 -1.19837 -0.0164239 0
M  V30 8 N 1.00945 -1.27583 -0.143316 0
M  V30 9 C -1.32313 -2.15281 0.032804 0
M  V30 10 N -2.47787 -1.49908 0.167976 0
M  V30 11 N -2.30008 -0.192671 0.209227 0
M  V30 12 H 3.56095 -0.960605 -1.0297 0
M  V30 13 H 3.90421 0.192545 0.274802 0
M  V30 14 H -0.553204 3.06826 0.919322 0
M  V30 15 H -1.56631 2.59436 -0.517617 0
M  V30 16 H -1.13643 -3.23145 -0.0319741 0
M  V30 17 H -3.0351 0.55648 0.309977 0
M  V30 END ATOM
M  V30 BEGIN BOND
M  V30 1 1 1 2
M  V30 2 2 2 3
M  V30 3 1 3 4
M  V30 4 1 4 5
M  V30 5 2 4 6
M  V30 6 1 6 7
M  V30 7 2 7 8
M  V30 8 1 7 9
M  V30 9 2 9 10
M  V30 10 1 10 11
M  V30 11 1 8 2
M  V30 12 1 11 6
M  V30 13 1 1 12
M  V30 14 1 1 13
M  V30 15 1 5 14
M  V30 16 1 5 15
M  V30 17 1 9 16
M  V30 18 1 11 17
M  V30 END BOND
M  V30 END CTAB
M  END
