
     RDKit          3D

  0  0  0  0  0  0  0  0  0  0999 V3000
M  V30 BEGIN CTAB
M  V30 COUNTS 21 22 0 0 0
M  V30 BEGIN ATOM
M  V30 1 N -3.01146 1.64178 0.651254 0
M  V30 2 C -2.28621 0.53923 0.0689137 0
M  V30 3 C -2.94443 -0.531604 -0.494656 0
M  V30 4 C -2.25084 -1.58689 -1.05203 0
M  V30 5 C -0.850661 -1.55083 -1.0351 0
M  V30 6 C -0.181637 -0.483707 -0.473506 0
M  V30 7 C -0.905511 0.552603 0.0739133 0
M  V30 8 C 1.2712 -0.462423 -0.46447 0
M  V30 9 O 2.12807 -1.33243 -0.92451 0
M  V30 10 N 3.33932 -0.971981 -0.736263 0
M  V30 11 C 3.31584 0.220827 -0.107262 0
M  V30 12 N 2.0259 0.527304 0.0562762 0
M  V30 13 N 4.48641 0.925376 0.262495 0
M  V30 14 H -3.98308 1.85524 0.301013 0
M  V30 15 H -2.53546 2.17343 1.39198 0
M  V30 16 H -4.02569 -0.517347 -0.485542 0
M  V30 17 H -2.7666 -2.43714 -1.49953 0
M  V30 18 H -0.271937 -2.34438 -1.45432 0
M  V30 19 H -0.406403 1.4191 0.529983 0
M  V30 20 H 4.60842 1.37585 1.2162 0
M  V30 21 H 5.24476 0.987976 -0.453866 0
M  V30 END ATOM
M  V30 BEGIN BOND
M  V30 1 1 1 2
M  V30 2 2 2 3
M  V30 3 1 3 4
M  V30 4 2 4 5
M  V30 5 1 5 6
M  V30 6 2 6 7
M  V30 7 1 6 8
M  V30 8 1 8 9
M  V30 9 1 9 10
M  V30 10 2 10 11
M  V30 11 1 11 12
M  V30 12 1 11 13
M  V30 13 1 7 2
M  V30 14 2 12 8
M  V30 15 1 1 14
M  V30 16 1 1 15
M  V30 17 1 3 16
M  V30 18 1 4 17
M  V30 19 1 5 18
M  V30 20 1 7 19
M  V30 21 1 13 20
M  V30 22 1 13 21
M  V30 END BOND
M  V30 END CTAB
M  END
