
     RDKit          3D

  0  0  0  0  0  0  0  0  0  0999 V3000
M  V30 BEGIN CTAB
M  V30 COUNTS 40 42 0 0 0
M  V30 BEGIN ATOM
M  V30 1 N -3.2315 -0.503497 2.42559 0
M  V30 2 C -3.49955 -0.335736 1.00623 0
M  V30 3 C -3.89301 1.09761 0.77707 0
M  V30 4 C -4.11423 1.32785 -0.683442 0
M  V30 5 C -2.98923 0.939522 -1.56043 0
M  V30 6 C -2.27945 -0.31658 -1.19091 0
M  V30 7 C -2.25142 -0.62951 0.256115 0
M  V30 8 C -1.06757 0.194302 0.752188 0
M  V30 9 N -0.107606 -0.0764064 -0.281382 0
M  V30 10 C -0.801599 -0.13451 -1.52679 0
M  V30 11 C 1.29941 -0.261029 -0.129234 0
M  V30 12 N 2.21162 -0.511392 -1.05674 0
M  V30 13 C 3.45305 -0.649894 -0.730954 0
M  V30 14 C 3.78271 -0.528548 0.597287 0
M  V30 15 S 2.25 -0.217458 1.29524 0
M  V30 16 S 5.3491 -0.657144 1.36977 0
M  V30 17 O 6.19128 -1.69978 0.746927 0
M  V30 18 O 5.08947 -1.08781 2.80395 0
M  V30 19 N 6.0693 0.893889 1.40684 0
M  V30 20 C 4.53235 -0.936893 -1.75974 0
M  V30 21 H -4.09265 -0.270059 2.9735 0
M  V30 22 H -2.92219 -1.46463 2.65509 0
M  V30 23 H -4.29645 -0.9876 0.658483 0
M  V30 24 H -3.21798 1.82092 1.25475 0
M  V30 25 H -4.89306 1.23337 1.28377 0
M  V30 26 H -4.28233 2.43785 -0.814181 0
M  V30 27 H -5.08893 0.866773 -0.991929 0
M  V30 28 H -3.39846 0.800285 -2.60425 0
M  V30 29 H -2.27241 1.79992 -1.66941 0
M  V30 30 H -2.62418 -1.18702 -1.787 0
M  V30 31 H -1.93278 -1.69912 0.374281 0
M  V30 32 H -1.33998 1.26868 0.67708 0
M  V30 33 H -0.737155 -0.110404 1.75468 0
M  V30 34 H -0.426363 -0.915573 -2.2058 0
M  V30 35 H -0.62272 0.838534 -2.05273 0
M  V30 36 H 6.43863 1.08935 0.430149 0
M  V30 37 H 5.31531 1.61494 1.54666 0
M  V30 38 H 4.09527 -1.17233 -2.74853 0
M  V30 39 H 5.18484 -0.0419687 -1.78567 0
M  V30 40 H 5.12047 -1.82891 -1.46653 0
M  V30 END ATOM
M  V30 BEGIN BOND
M  V30 1 1 1 2
M  V30 2 1 2 3
M  V30 3 1 3 4
M  V30 4 1 4 5
M  V30 5 1 5 6
M  V30 6 1 6 7
M  V30 7 1 7 8
M  V30 8 1 8 9
M  V30 9 1 9 10
M  V30 10 1 9 11
M  V30 11 2 11 12
M  V30 12 1 12 13
M  V30 13 2 13 14
M  V30 14 1 14 15
M  V30 15 1 14 16
M  V30 16 2 16 17
M  V30 17 2 16 18
M  V30 18 1 16 19
M  V30 19 1 13 20
M  V30 20 1 7 2
M  V30 21 1 15 11
M  V30 22 1 10 6
M  V30 23 1 1 21
M  V30 24 1 1 22
M  V30 25 1 2 23
M  V30 26 1 3 24
M  V30 27 1 3 25
M  V30 28 1 4 26
M  V30 29 1 4 27
M  V30 30 1 5 28
M  V30 31 1 5 29
M  V30 32 1 6 30
M  V30 33 1 7 31
M  V30 34 1 8 32
M  V30 35 1 8 33
M  V30 36 1 10 34
M  V30 37 1 10 35
M  V30 38 1 19 36
M  V30 39 1 19 37
M  V30 40 1 20 38
M  V30 41 1 20 39
M  V30 42 1 20 40
M  V30 END BOND
M  V30 END CTAB
M  END
