
     RDKit          3D

  0  0  0  0  0  0  0  0  0  0999 V3000
M  V30 BEGIN CTAB
M  V30 COUNTS 22 22 0 0 0
M  V30 BEGIN ATOM
M  V30 1 C 2.89304 -0.154594 -0.388994 0
M  V30 2 C 2.05596 -0.0931625 0.876304 0
M  V30 3 C 0.628466 0.000762483 0.464086 0
M  V30 4 C -0.111248 -1.18525 0.486438 0
M  V30 5 C -1.42476 -1.16688 0.101972 0
M  V30 6 N -2.15634 -2.38007 0.115972 0
M  V30 7 C -1.99187 0.0439009 -0.302715 0
M  V30 8 C -1.2668 1.21437 -0.324548 0
M  V30 9 C 0.0658931 1.19148 0.0652325 0
M  V30 10 Cl 1.06125 2.6337 0.0732492 0
M  V30 11 N -1.84591 2.4442 -0.733395 0
M  V30 12 H 3.6938 -0.935598 -0.289899 0
M  V30 13 H 2.27141 -0.510156 -1.26479 0
M  V30 14 H 3.28533 0.844948 -0.613329 0
M  V30 15 H 2.25244 -0.955238 1.54058 0
M  V30 16 H 2.30205 0.869418 1.41356 0
M  V30 17 H 0.349583 -2.10674 0.808795 0
M  V30 18 H -2.82386 -2.54692 0.895883 0
M  V30 19 H -2.05849 -3.09862 -0.611246 0
M  V30 20 H -3.0274 0.00835801 -0.598837 0
M  V30 21 H -2.09291 3.1669 0.000334261 0
M  V30 22 H -2.05964 2.71519 -1.71464 0
M  V30 END ATOM
M  V30 BEGIN BOND
M  V30 1 1 1 2
M  V30 2 1 2 3
M  V30 3 2 3 4
M  V30 4 1 4 5
M  V30 5 1 5 6
M  V30 6 2 5 7
M  V30 7 1 7 8
M  V30 8 2 8 9
M  V30 9 1 9 10
M  V30 10 1 8 11
M  V30 11 1 9 3
M  V30 12 1 1 12
M  V30 13 1 1 13
M  V30 14 1 1 14
M  V30 15 1 2 15
M  V30 16 1 2 16
M  V30 17 1 4 17
M  V30 18 1 6 18
M  V30 19 1 6 19
M  V30 20 1 7 20
M  V30 21 1 11 21
M  V30 22 1 11 22
M  V30 END BOND
M  V30 END CTAB
M  END
