
     RDKit          3D

  0  0  0  0  0  0  0  0  0  0999 V3000
M  V30 BEGIN CTAB
M  V30 COUNTS 49 50 0 0 0
M  V30 BEGIN ATOM
M  V30 1 C -6.39671 -1.18108 -0.264783 0
M  V30 2 C -5.33568 -0.261814 -0.837595 0
M  V30 3 C -4.03732 -0.456494 -0.0776058 0
M  V30 4 C -3.00438 0.45272 -0.654866 0
M  V30 5 N -1.71883 0.352596 0.0140687 0
M  V30 6 C -1.38195 1.12205 1.05807 0
M  V30 7 C -2.21696 2.19265 1.71356 0
M  V30 8 C -0.119547 0.740643 1.41744 0
M  V30 9 C 0.306134 -0.286862 0.560559 0
M  V30 10 C -0.731071 -0.50271 -0.310948 0
M  V30 11 C -0.773909 -1.51341 -1.43548 0
M  V30 12 C 1.5948 -0.937052 0.661367 0
M  V30 13 O 2.3965 -0.510625 1.57446 0
M  V30 14 C 2.12473 -2.03478 -0.145826 0
M  V30 15 S 3.20567 -1.34675 -1.46532 0
M  V30 16 C 4.64465 -0.619329 -0.733752 0
M  V30 17 N 4.60963 0.678112 -0.391191 0
M  V30 18 C 5.67601 1.28746 0.165429 0
M  V30 19 N 5.60669 2.6716 0.519583 0
M  V30 20 C 6.84516 0.597509 0.404161 0
M  V30 21 C 6.88037 -0.740672 0.0507274 0
M  V30 22 N 5.78256 -1.30429 -0.505232 0
M  V30 23 N 8.07971 -1.49345 0.276551 0
M  V30 24 C -5.8072 1.17503 -0.729956 0
M  V30 25 H -6.16798 -2.20942 -0.584455 0
M  V30 26 H -6.39206 -1.05595 0.835153 0
M  V30 27 H -7.38916 -0.887754 -0.636493 0
M  V30 28 H -5.24209 -0.49562 -1.9167 0
M  V30 29 H -4.2596 -0.294934 0.991975 0
M  V30 30 H -3.7163 -1.52381 -0.247995 0
M  V30 31 H -3.35589 1.52087 -0.586424 0
M  V30 32 H -2.90486 0.249497 -1.7328 0
M  V30 33 H -2.8512 2.7128 0.979178 0
M  V30 34 H -1.49101 2.95691 2.10378 0
M  V30 35 H -2.752 1.80673 2.59346 0
M  V30 36 H 0.451284 1.17548 2.23961 0
M  V30 37 H 0.125476 -1.35374 -2.05593 0
M  V30 38 H -0.933966 -2.52438 -1.06739 0
M  V30 39 H -1.64743 -1.25192 -2.07441 0
M  V30 40 H 2.78251 -2.71537 0.497648 0
M  V30 41 H 1.36623 -2.71218 -0.538526 0
M  V30 42 H 5.6403 3.39156 -0.222802 0
M  V30 43 H 5.52271 2.93405 1.51658 0
M  V30 44 H 7.71294 1.08179 0.854478 0
M  V30 45 H 8.98063 -0.997858 0.174301 0
M  V30 46 H 8.09456 -2.4919 0.532396 0
M  V30 47 H -5.48066 1.81171 -1.57414 0
M  V30 48 H -6.91121 1.15512 -0.644744 0
M  V30 49 H -5.41026 1.63728 0.191388 0
M  V30 END ATOM
M  V30 BEGIN BOND
M  V30 1 1 1 2
M  V30 2 1 2 3
M  V30 3 1 3 4
M  V30 4 1 4 5
M  V30 5 1 5 6
M  V30 6 1 6 7
M  V30 7 2 6 8
M  V30 8 1 8 9
M  V30 9 2 9 10
M  V30 10 1 10 11
M  V30 11 1 9 12
M  V30 12 2 12 13
M  V30 13 1 12 14
M  V30 14 1 14 15
M  V30 15 1 15 16
M  V30 16 2 16 17
M  V30 17 1 17 18
M  V30 18 1 18 19
M  V30 19 2 18 20
M  V30 20 1 20 21
M  V30 21 2 21 22
M  V30 22 1 21 23
M  V30 23 1 2 24
M  V30 24 1 10 5
M  V30 25 1 22 16
M  V30 26 1 1 25
M  V30 27 1 1 26
M  V30 28 1 1 27
M  V30 29 1 2 28
M  V30 30 1 3 29
M  V30 31 1 3 30
M  V30 32 1 4 31
M  V30 33 1 4 32
M  V30 34 1 7 33
M  V30 35 1 7 34
M  V30 36 1 7 35
M  V30 37 1 8 36
M  V30 38 1 11 37
M  V30 39 1 11 38
M  V30 40 1 11 39
M  V30 41 1 14 40
M  V30 42 1 14 41
M  V30 43 1 19 42
M  V30 44 1 19 43
M  V30 45 1 20 44
M  V30 46 1 23 45
M  V30 47 1 23 46
M  V30 48 1 24 47
M  V30 49 1 24 48
M  V30 50 1 24 49
M  V30 END BOND
M  V30 END CTAB
M  END
