
     RDKit          3D

  0  0  0  0  0  0  0  0  0  0999 V3000
M  V30 BEGIN CTAB
M  V30 COUNTS 30 30 0 0 0
M  V30 BEGIN ATOM
M  V30 1 C -3.41388 0.486216 -2.52881 0
M  V30 2 O -3.09901 0.539214 -1.17056 0
M  V30 3 C -1.85324 0.191294 -0.66675 0
M  V30 4 C -1.5801 0.253422 0.673063 0
M  V30 5 O -2.54123 0.66481 1.55884 0
M  V30 6 C -2.35179 0.75819 2.95533 0
M  V30 7 C -0.333588 -0.098867 1.14108 0
M  V30 8 C 0.649248 -0.518952 0.246021 0
M  V30 9 C 1.9736 -0.879288 0.78219 0
M  V30 10 C 2.93608 0.28153 0.499255 0
M  V30 11 N 4.25688 0.0169295 0.985178 0
M  V30 12 C 0.385333 -0.585769 -1.1058 0
M  V30 13 N 1.39722 -1.01743 -1.98074 0
M  V30 14 C -0.882263 -0.223879 -1.55107 0
M  V30 15 H -2.87776 1.20282 -3.1517 0
M  V30 16 H -4.51402 0.606026 -2.65472 0
M  V30 17 H -3.12551 -0.541149 -2.88871 0
M  V30 18 H -3.09989 1.45429 3.41785 0
M  V30 19 H -2.31738 -0.228272 3.44757 0
M  V30 20 H -1.36249 1.2368 3.11451 0
M  V30 21 H -0.0768349 -0.0622415 2.21017 0
M  V30 22 H 1.89437 -1.04597 1.86939 0
M  V30 23 H 2.40492 -1.76727 0.310901 0
M  V30 24 H 2.98629 0.502676 -0.580507 0
M  V30 25 H 2.56269 1.18021 1.04334 0
M  V30 26 H 4.80171 0.898513 0.90206 0
M  V30 27 H 4.78079 -0.705677 0.449416 0
M  V30 28 H 2.2652 -1.47822 -1.7031 0
M  V30 29 H 1.24901 -0.852613 -3.01912 0
M  V30 30 H -1.11436 -0.267346 -2.60459 0
M  V30 END ATOM
M  V30 BEGIN BOND
M  V30 1 1 1 2
M  V30 2 1 2 3
M  V30 3 2 3 4
M  V30 4 1 4 5
M  V30 5 1 5 6
M  V30 6 1 4 7
M  V30 7 2 7 8
M  V30 8 1 8 9
M  V30 9 1 9 10
M  V30 10 1 10 11
M  V30 11 1 8 12
M  V30 12 1 12 13
M  V30 13 2 12 14
M  V30 14 1 14 3
M  V30 15 1 1 15
M  V30 16 1 1 16
M  V30 17 1 1 17
M  V30 18 1 6 18
M  V30 19 1 6 19
M  V30 20 1 6 20
M  V30 21 1 7 21
M  V30 22 1 9 22
M  V30 23 1 9 23
M  V30 24 1 10 24
M  V30 25 1 10 25
M  V30 26 1 11 26
M  V30 27 1 11 27
M  V30 28 1 13 28
M  V30 29 1 13 29
M  V30 30 1 14 30
M  V30 END BOND
M  V30 END CTAB
M  END
