
     RDKit          3D

  0  0  0  0  0  0  0  0  0  0999 V3000
M  V30 BEGIN CTAB
M  V30 COUNTS 26 26 0 0 0
M  V30 BEGIN ATOM
M  V30 1 N 1.70724 1.31731 -0.27987 0
M  V30 2 C 2.62896 0.261197 -0.031791 0
M  V30 3 C 2.06042 -1.10845 -0.125898 0
M  V30 4 S 0.737302 -1.48993 1.01084 0
M  V30 5 C -0.710014 -0.545202 0.633529 0
M  V30 6 C -1.59367 -1.06105 -0.311315 0
M  V30 7 C -2.73603 -0.347057 -0.603938 0
M  V30 8 C -3.01599 0.855619 0.0157159 0
M  V30 9 C -2.12013 1.35021 0.954212 0
M  V30 10 C -0.961054 0.649515 1.2669 0
M  V30 11 Cl -2.50444 2.88598 1.72515 0
M  V30 12 N -4.19206 1.60157 -0.27916 0
M  V30 13 C 3.13937 -2.19935 -0.0590038 0
M  V30 14 H 1.44986 1.43012 -1.2862 0
M  V30 15 H 2.04428 2.22367 0.0875582 0
M  V30 16 H 3.12931 0.477657 0.934523 0
M  V30 17 H 3.43205 0.330521 -0.813027 0
M  V30 18 H 1.68664 -1.20166 -1.20159 0
M  V30 19 H -1.3742 -1.99946 -0.794358 0
M  V30 20 H -3.41894 -0.75066 -1.33764 0
M  V30 21 H -0.285478 1.08222 2.0154 0
M  V30 22 H -4.63504 1.45779 -1.21499 0
M  V30 23 H -4.5728 2.25799 0.432775 0
M  V30 24 H 4.07453 -1.81905 -0.486296 0
M  V30 25 H 3.25537 -2.57008 0.986789 0
M  V30 26 H 2.77453 -3.08942 -0.64912 0
M  V30 END ATOM
M  V30 BEGIN BOND
M  V30 1 1 1 2
M  V30 2 1 2 3
M  V30 3 1 3 4
M  V30 4 1 4 5
M  V30 5 2 5 6
M  V30 6 1 6 7
M  V30 7 2 7 8
M  V30 8 1 8 9
M  V30 9 2 9 10
M  V30 10 1 9 11
M  V30 11 1 8 12
M  V30 12 1 3 13
M  V30 13 1 10 5
M  V30 14 1 1 14
M  V30 15 1 1 15
M  V30 16 1 2 16
M  V30 17 1 2 17
M  V30 18 1 3 18
M  V30 19 1 6 19
M  V30 20 1 7 20
M  V30 21 1 10 21
M  V30 22 1 12 22
M  V30 23 1 12 23
M  V30 24 1 13 24
M  V30 25 1 13 25
M  V30 26 1 13 26
M  V30 END BOND
M  V30 END CTAB
M  END
