
     RDKit          3D

  0  0  0  0  0  0  0  0  0  0999 V3000
M  V30 BEGIN CTAB
M  V30 COUNTS 39 40 0 0 0
M  V30 BEGIN ATOM
M  V30 1 O 1.00877 1.94475 0.16878 0
M  V30 2 C 0.0212583 1.5828 0.872419 0
M  V30 3 C -1.05187 2.64227 0.933148 0
M  V30 4 S -2.59006 2.0238 1.59326 0
M  V30 5 C -3.43963 0.956825 0.466369 0
M  V30 6 N -4.29531 1.48134 -0.460669 0
M  V30 7 C -4.98622 0.732842 -1.32223 0
M  V30 8 N -5.86965 1.25847 -2.28738 0
M  V30 9 C -4.79972 -0.651959 -1.24229 0
M  V30 10 C -3.942 -1.21555 -0.316059 0
M  V30 11 N -3.30414 -0.360971 0.494576 0
M  V30 12 N -3.72457 -2.61652 -0.189773 0
M  V30 13 N -0.114297 0.371224 1.53416 0
M  V30 14 C 0.791096 -0.72253 1.54584 0
M  V30 15 C 1.07205 -1.43632 0.273263 0
M  V30 16 S 1.91249 -0.578795 -1.02644 0
M  V30 17 C 3.64788 -0.321853 -0.668666 0
M  V30 18 C 4.40846 0.454042 -1.496 0
M  V30 19 C 5.76367 0.635613 -1.22231 0
M  V30 20 C 6.31278 0.0249252 -0.114976 0
M  V30 21 C 5.53895 -0.751211 0.706552 0
M  V30 22 C 4.20195 -0.921768 0.423223 0
M  V30 23 H -1.24012 2.93927 -0.147418 0
M  V30 24 H -0.663628 3.54601 1.44109 0
M  V30 25 H -6.5891 0.651046 -2.7106 0
M  V30 26 H -5.7882 2.24648 -2.56448 0
M  V30 27 H -5.33079 -1.31295 -1.9112 0
M  V30 28 H -4.5324 -3.30324 -0.292011 0
M  V30 29 H -2.79882 -3.05183 0.00312484 0
M  V30 30 H -1.00088 0.22545 2.14456 0
M  V30 31 H 0.504409 -1.48111 2.34711 0
M  V30 32 H 1.81112 -0.372 1.9364 0
M  V30 33 H 0.0712126 -1.81212 -0.108669 0
M  V30 34 H 1.65847 -2.37555 0.53041 0
M  V30 35 H 4.00801 0.955669 -2.38511 0
M  V30 36 H 6.39018 1.24987 -1.87061 0
M  V30 37 H 7.36092 0.134862 0.138942 0
M  V30 38 H 5.97017 -1.22274 1.56427 0
M  V30 39 H 3.60756 -1.54854 1.07081 0
M  V30 END ATOM
M  V30 BEGIN BOND
M  V30 1 2 1 2
M  V30 2 1 2 3
M  V30 3 1 3 4
M  V30 4 1 4 5
M  V30 5 2 5 6
M  V30 6 1 6 7
M  V30 7 1 7 8
M  V30 8 2 7 9
M  V30 9 1 9 10
M  V30 10 2 10 11
M  V30 11 1 10 12
M  V30 12 1 2 13
M  V30 13 1 13 14
M  V30 14 1 14 15
M  V30 15 1 15 16
M  V30 16 1 16 17
M  V30 17 2 17 18
M  V30 18 1 18 19
M  V30 19 2 19 20
M  V30 20 1 20 21
M  V30 21 2 21 22
M  V30 22 1 11 5
M  V30 23 1 22 17
M  V30 24 1 3 23
M  V30 25 1 3 24
M  V30 26 1 8 25
M  V30 27 1 8 26
M  V30 28 1 9 27
M  V30 29 1 12 28
M  V30 30 1 12 29
M  V30 31 1 13 30
M  V30 32 1 14 31
M  V30 33 1 14 32
M  V30 34 1 15 33
M  V30 35 1 15 34
M  V30 36 1 18 35
M  V30 37 1 19 36
M  V30 38 1 20 37
M  V30 39 1 21 38
M  V30 40 1 22 39
M  V30 END BOND
M  V30 END CTAB
M  END
