
     RDKit          3D

  0  0  0  0  0  0  0  0  0  0999 V3000
M  V30 BEGIN CTAB
M  V30 COUNTS 55 56 0 0 0
M  V30 BEGIN ATOM
M  V30 1 C -7.21411 0.0499931 0.307155 0
M  V30 2 N -6.14847 0.850019 -0.293952 0
M  V30 3 C -6.51511 2.22731 -0.597245 0
M  V30 4 C -4.85665 0.336849 -0.56586 0
M  V30 5 C -4.49293 0.173883 -1.90733 0
M  V30 6 C -3.25916 -0.341117 -2.21926 0
M  V30 7 C -2.34889 -0.709316 -1.2543 0
M  V30 8 C -2.67466 -0.559297 0.0667598 0
M  V30 9 C -1.76231 -0.942415 1.00617 0
M  V30 10 C -2.18109 -0.776984 2.34333 0
M  V30 11 C -3.40725 -0.267978 2.67005 0
M  V30 12 C -4.30165 0.111505 1.70386 0
M  V30 13 C -3.93724 -0.0339054 0.383411 0
M  V30 14 S -0.152991 -1.49329 0.752682 0
M  V30 15 O 0.384008 -2.09581 2.06084 0
M  V30 16 O -0.086173 -2.66071 -0.212143 0
M  V30 17 N 0.98538 -0.354634 0.242128 0
M  V30 18 C 1.57368 -0.674389 -1.02127 0
M  V30 19 C 2.59829 0.370623 -1.43723 0
M  V30 20 N 3.65408 0.427708 -0.362889 0
M  V30 21 C 4.41817 1.55405 -0.809537 0
M  V30 22 C 5.67126 1.97068 -0.207636 0
M  V30 23 N 6.7668 1.05045 -0.38134 0
M  V30 24 C 4.38531 -0.786502 -0.281764 0
M  V30 25 C 4.89768 -1.07502 1.12306 0
M  V30 26 N 5.68046 -2.29821 1.11745 0
M  V30 27 H -7.69012 0.535773 1.1571 0
M  V30 28 H -6.73195 -0.890999 0.690159 0
M  V30 29 H -7.93921 -0.296782 -0.469387 0
M  V30 30 H -5.68165 2.76428 -1.07632 0
M  V30 31 H -7.41711 2.19058 -1.25555 0
M  V30 32 H -6.81775 2.70832 0.349536 0
M  V30 33 H -5.21434 0.467559 -2.67469 0
M  V30 34 H -2.96149 -0.472295 -3.27216 0
M  V30 35 H -1.39234 -1.13706 -1.51124 0
M  V30 36 H -1.51107 -1.0641 3.12326 0
M  V30 37 H -3.73746 -0.137399 3.70675 0
M  V30 38 H -5.28101 0.531001 1.96313 0
M  V30 39 H 1.73403 -0.208717 0.946095 0
M  V30 40 H 1.94642 -1.69815 -1.06994 0
M  V30 41 H 0.743781 -0.64092 -1.79763 0
M  V30 42 H 3.1327 -0.0397122 -2.31361 0
M  V30 43 H 2.16858 1.35663 -1.57162 0
M  V30 44 H 3.69804 2.44709 -0.774672 0
M  V30 45 H 4.61311 1.38993 -1.92341 0
M  V30 46 H 5.53512 2.15742 0.905193 0
M  V30 47 H 6.02042 2.98181 -0.57255 0
M  V30 48 H 7.51252 1.45184 -1.02465 0
M  V30 49 H 7.27199 0.90999 0.536576 0
M  V30 50 H 5.2701 -0.830903 -0.990427 0
M  V30 51 H 3.80348 -1.70135 -0.597394 0
M  V30 52 H 5.42855 -0.298998 1.62881 0
M  V30 53 H 3.97993 -1.36995 1.75617 0
M  V30 54 H 5.21701 -3.04347 0.524042 0
M  V30 55 H 6.6233 -2.11491 0.696406 0
M  V30 END ATOM
M  V30 BEGIN BOND
M  V30 1 1 1 2
M  V30 2 1 2 3
M  V30 3 1 2 4
M  V30 4 2 4 5
M  V30 5 1 5 6
M  V30 6 2 6 7
M  V30 7 1 7 8
M  V30 8 2 8 9
M  V30 9 1 9 10
M  V30 10 2 10 11
M  V30 11 1 11 12
M  V30 12 2 12 13
M  V30 13 1 9 14
M  V30 14 2 14 15
M  V30 15 2 14 16
M  V30 16 1 14 17
M  V30 17 1 17 18
M  V30 18 1 18 19
M  V30 19 1 19 20
M  V30 20 1 20 21
M  V30 21 1 21 22
M  V30 22 1 22 23
M  V30 23 1 20 24
M  V30 24 1 24 25
M  V30 25 1 25 26
M  V30 26 1 13 4
M  V30 27 1 13 8
M  V30 28 1 1 27
M  V30 29 1 1 28
M  V30 30 1 1 29
M  V30 31 1 3 30
M  V30 32 1 3 31
M  V30 33 1 3 32
M  V30 34 1 5 33
M  V30 35 1 6 34
M  V30 36 1 7 35
M  V30 37 1 10 36
M  V30 38 1 11 37
M  V30 39 1 12 38
M  V30 40 1 17 39
M  V30 41 1 18 40
M  V30 42 1 18 41
M  V30 43 1 19 42
M  V30 44 1 19 43
M  V30 45 1 21 44
M  V30 46 1 21 45
M  V30 47 1 22 46
M  V30 48 1 22 47
M  V30 49 1 23 48
M  V30 50 1 23 49
M  V30 51 1 24 50
M  V30 52 1 24 51
M  V30 53 1 25 52
M  V30 54 1 25 53
M  V30 55 1 26 54
M  V30 56 1 26 55
M  V30 END BOND
M  V30 END CTAB
M  END
