
     RDKit          3D

  0  0  0  0  0  0  0  0  0  0999 V3000
M  V30 BEGIN CTAB
M  V30 COUNTS 18 18 0 0 0
M  V30 BEGIN ATOM
M  V30 1 N -3.10622 0.674016 -0.448259 0
M  V30 2 C -1.85894 0.122787 -0.0408595 0
M  V30 3 C -1.82604 -0.994951 0.749993 0
M  V30 4 C -0.645598 -1.55003 1.15916 0
M  V30 5 C 0.523835 -0.934349 0.740303 0
M  V30 6 C 0.508126 0.194357 -0.0580611 0
M  V30 7 N -0.679187 0.675785 -0.415249 0
M  V30 8 C 1.76512 0.807574 -0.473931 0
M  V30 9 N 1.75061 1.86118 -1.21914 0
M  V30 10 N 3.0123 0.257623 -0.0674702 0
M  V30 11 H -3.44123 1.54074 0.000412947 0
M  V30 12 H -3.65178 0.195318 -1.18546 0
M  V30 13 H -2.75361 -1.44256 1.05342 0
M  V30 14 H -0.632655 -2.42866 1.78065 0
M  V30 15 H 1.47131 -1.34207 1.04196 0
M  V30 16 H 2.64101 2.30946 -1.52356 0
M  V30 17 H 3.78865 0.823392 0.345519 0
M  V30 18 H 3.1343 -0.769617 -0.199223 0
M  V30 END ATOM
M  V30 BEGIN BOND
M  V30 1 1 1 2
M  V30 2 2 2 3
M  V30 3 1 3 4
M  V30 4 2 4 5
M  V30 5 1 5 6
M  V30 6 2 6 7
M  V30 7 1 6 8
M  V30 8 2 8 9 CFG=2
M  V30 9 1 8 10
M  V30 10 1 7 2
M  V30 11 1 1 11
M  V30 12 1 1 12
M  V30 13 1 3 13
M  V30 14 1 4 14
M  V30 15 1 5 15
M  V30 16 1 9 16
M  V30 17 1 10 17
M  V30 18 1 10 18
M  V30 END BOND
M  V30 END CTAB
M  END
