
     RDKit          3D

  0  0  0  0  0  0  0  0  0  0999 V3000
M  V30 BEGIN CTAB
M  V30 COUNTS 29 30 0 0 0
M  V30 BEGIN ATOM
M  V30 1 N -5.01244 1.17769 -0.677715 0
M  V30 2 C -3.64969 0.769483 -0.557731 0
M  V30 3 C -3.34667 -0.485545 -0.0654212 0
M  V30 4 N -4.42189 -1.32994 0.306296 0
M  V30 5 C -2.0511 -0.914357 0.0650573 0
M  V30 6 C -1.0245 -0.0424274 -0.316131 0
M  V30 7 C -1.28726 1.20499 -0.806908 0
M  V30 8 C -2.61953 1.60104 -0.923008 0
M  V30 9 C 0.372807 -0.513087 -0.180721 0
M  V30 10 O 0.528716 -1.75214 -0.102226 0
M  V30 11 N 1.44987 0.389094 -0.143105 0
M  V30 12 C 2.82508 0.0898513 -0.0191746 0
M  V30 13 N 3.71126 1.13832 -0.00406236 0
M  V30 14 C 5.0262 0.953693 0.109088 0
M  V30 15 C 5.6102 -0.283416 0.21956 0
M  V30 16 C 4.77011 -1.36513 0.209809 0
M  V30 17 C 3.39067 -1.14858 0.0899128 0
M  V30 18 H -5.37207 1.53912 -1.57626 0
M  V30 19 H -5.66934 1.12203 0.126929 0
M  V30 20 H -5.12301 -1.60134 -0.416205 0
M  V30 21 H -4.50767 -1.67194 1.28505 0
M  V30 22 H -1.83029 -1.90836 0.455582 0
M  V30 23 H -0.49247 1.90361 -1.1168 0
M  V30 24 H -2.82598 2.58861 -1.31142 0
M  V30 25 H 1.19987 1.43367 -0.217526 0
M  V30 26 H 5.70009 1.82721 0.116607 0
M  V30 27 H 6.67962 -0.357759 0.307636 0
M  V30 28 H 5.20066 -2.34863 0.294977 0
M  V30 29 H 2.76877 -2.01576 0.0861181 0
M  V30 END ATOM
M  V30 BEGIN BOND
M  V30 1 1 1 2
M  V30 2 2 2 3
M  V30 3 1 3 4
M  V30 4 1 3 5
M  V30 5 2 5 6
M  V30 6 1 6 7
M  V30 7 2 7 8
M  V30 8 1 6 9
M  V30 9 2 9 10
M  V30 10 1 9 11
M  V30 11 1 11 12
M  V30 12 2 12 13
M  V30 13 1 13 14
M  V30 14 2 14 15
M  V30 15 1 15 16
M  V30 16 2 16 17
M  V30 17 1 8 2
M  V30 18 1 17 12
M  V30 19 1 1 18
M  V30 20 1 1 19
M  V30 21 1 4 20
M  V30 22 1 4 21
M  V30 23 1 5 22
M  V30 24 1 7 23
M  V30 25 1 8 24
M  V30 26 1 11 25
M  V30 27 1 14 26
M  V30 28 1 15 27
M  V30 29 1 16 28
M  V30 30 1 17 29
M  V30 END BOND
M  V30 END CTAB
M  END
