
     RDKit          3D

  0  0  0  0  0  0  0  0  0  0999 V3000
M  V30 BEGIN CTAB
M  V30 COUNTS 25 25 0 0 0
M  V30 BEGIN ATOM
M  V30 1 N -3.151 -0.966307 -1.15246 0
M  V30 2 C -2.99272 0.212019 -0.321702 0
M  V30 3 C -1.6351 0.149051 0.343971 0
M  V30 4 N -0.58031 0.114462 -0.650259 0
M  V30 5 C 0.765652 0.0541878 -0.201115 0
M  V30 6 C 1.4548 1.22471 0.0235052 0
M  V30 7 N 0.794573 2.46332 -0.201936 0
M  V30 8 C 2.7622 1.14987 0.459649 0
M  V30 9 C 3.35235 -0.0900175 0.661786 0
M  V30 10 C 2.67389 -1.27342 0.44079 0
M  V30 11 C 1.36728 -1.19175 0.00487794 0
M  V30 12 C 0.605627 -2.38614 -0.243767 0
M  V30 13 N -0.000785373 -3.35056 -0.454029 0
M  V30 14 F 3.25243 -2.48188 0.638926 0
M  V30 15 H -2.67756 -1.80257 -0.693335 0
M  V30 16 H -4.15073 -1.24403 -1.24694 0
M  V30 17 H -3.06551 1.12687 -0.912711 0
M  V30 18 H -3.76885 0.211259 0.468355 0
M  V30 19 H -1.48938 0.990229 1.05227 0
M  V30 20 H -1.52238 -0.777702 0.948039 0
M  V30 21 H -0.806442 0.133419 -1.66749 0
M  V30 22 H 0.594403 3.06244 0.644311 0
M  V30 23 H 0.50204 2.80662 -1.14255 0
M  V30 24 H 3.32739 2.0442 0.644132 0
M  V30 25 H 4.38815 -0.178267 1.00747 0
M  V30 END ATOM
M  V30 BEGIN BOND
M  V30 1 1 1 2
M  V30 2 1 2 3
M  V30 3 1 3 4
M  V30 4 1 4 5
M  V30 5 2 5 6
M  V30 6 1 6 7
M  V30 7 1 6 8
M  V30 8 2 8 9
M  V30 9 1 9 10
M  V30 10 2 10 11
M  V30 11 1 11 12
M  V30 12 3 12 13
M  V30 13 1 10 14
M  V30 14 1 11 5
M  V30 15 1 1 15
M  V30 16 1 1 16
M  V30 17 1 2 17
M  V30 18 1 2 18
M  V30 19 1 3 19
M  V30 20 1 3 20
M  V30 21 1 4 21
M  V30 22 1 7 22
M  V30 23 1 7 23
M  V30 24 1 8 24
M  V30 25 1 9 25
M  V30 END BOND
M  V30 END CTAB
M  END
