
     RDKit          3D

  0  0  0  0  0  0  0  0  0  0999 V3000
M  V30 BEGIN CTAB
M  V30 COUNTS 34 35 0 0 0
M  V30 BEGIN ATOM
M  V30 1 N -4.47266 -0.80811 0.0287124 0
M  V30 2 C -3.16071 -0.715085 0.59607 0
M  V30 3 C -2.20941 -0.430257 -0.556707 0
M  V30 4 N -0.838164 -0.326026 -0.090611 0
M  V30 5 C -0.20237 -1.55102 0.330942 0
M  V30 6 C 0.987568 -1.29836 1.18122 0
M  V30 7 C 1.91435 -0.276772 0.584725 0 CFG=2
M  V30 8 C 1.19446 0.979704 0.301082 0
M  V30 9 C -0.158885 0.903454 -0.0288232 0
M  V30 10 C -0.797486 2.09438 -0.280828 0
M  V30 11 C -0.143802 3.32589 -0.215499 0
M  V30 12 C 1.18254 3.34624 0.112988 0
M  V30 13 C 1.8447 2.17088 0.369892 0
M  V30 14 C 2.58719 -0.808152 -0.656729 0
M  V30 15 N 3.34621 -1.99275 -0.248515 0
M  V30 16 H -4.65854 -1.78406 -0.18742 0
M  V30 17 H -4.55231 -0.220838 -0.780799 0
M  V30 18 H -2.88657 -1.64133 1.13719 0
M  V30 19 H -3.20171 0.158836 1.2963 0
M  V30 20 H -2.53697 0.403143 -1.14543 0
M  V30 21 H -2.30021 -1.33306 -1.24651 0
M  V30 22 H -0.894005 -2.22668 0.892842 0
M  V30 23 H 0.101303 -2.14871 -0.570568 0
M  V30 24 H 1.5586 -2.23635 1.38081 0
M  V30 25 H 0.656922 -0.925651 2.19004 0
M  V30 26 H 2.71506 -0.0878793 1.32843 0
M  V30 27 H -1.83606 2.09168 -0.529515 0
M  V30 28 H -0.706945 4.22074 -0.427627 0
M  V30 29 H 1.69996 4.31669 0.173174 0
M  V30 30 H 2.90218 2.25454 0.622226 0
M  V30 31 H 1.8337 -1.11474 -1.38552 0
M  V30 32 H 3.27158 -0.033498 -1.07937 0
M  V30 33 H 3.70371 -2.51313 -1.08028 0
M  V30 34 H 4.05678 -1.79372 0.462583 0
M  V30 END ATOM
M  V30 BEGIN BOND
M  V30 1 1 1 2
M  V30 2 1 2 3
M  V30 3 1 3 4
M  V30 4 1 4 5
M  V30 5 1 5 6
M  V30 6 1 6 7
M  V30 7 1 7 8
M  V30 8 2 8 9
M  V30 9 1 9 10
M  V30 10 2 10 11
M  V30 11 1 11 12
M  V30 12 2 12 13
M  V30 13 1 7 14
M  V30 14 1 14 15
M  V30 15 1 9 4
M  V30 16 1 13 8
M  V30 17 1 1 16
M  V30 18 1 1 17
M  V30 19 1 2 18
M  V30 20 1 2 19
M  V30 21 1 3 20
M  V30 22 1 3 21
M  V30 23 1 5 22
M  V30 24 1 5 23
M  V30 25 1 6 24
M  V30 26 1 6 25
M  V30 27 1 7 26 CFG=1
M  V30 28 1 10 27
M  V30 29 1 11 28
M  V30 30 1 12 29
M  V30 31 1 13 30
M  V30 32 1 14 31
M  V30 33 1 14 32
M  V30 34 1 15 33
M  V30 35 1 15 34
M  V30 END BOND
M  V30 END CTAB
M  END
