
     RDKit          3D

  0  0  0  0  0  0  0  0  0  0999 V3000
M  V30 BEGIN CTAB
M  V30 COUNTS 29 30 0 0 0
M  V30 BEGIN ATOM
M  V30 1 N 2.20788 2.25333 -0.112574 0
M  V30 2 C 2.68535 0.979557 0.281941 0
M  V30 3 C 1.74936 -0.0169518 0.459385 0
M  V30 4 C 2.20958 -1.26386 0.843033 0
M  V30 5 C 3.57929 -1.48167 1.03806 0
M  V30 6 C 4.46367 -0.470003 0.852075 0
M  V30 7 C 4.04477 0.786327 0.469338 0
M  V30 8 N 0.381809 0.23355 0.258826 0
M  V30 9 N -0.39979 -0.481894 -0.446283 0 CHG=1
M  V30 10 O 0.0267631 -1.59962 -1.09767 0 CHG=-1
M  V30 11 C -1.76218 -0.0423017 -0.495326 0
M  V30 12 C -2.78089 -0.935259 -0.227646 0
M  V30 13 N -2.43366 -2.2759 0.0912286 0
M  V30 14 C -4.09207 -0.490518 -0.277857 0
M  V30 15 C -4.41187 0.81316 -0.585357 0
M  V30 16 C -3.38147 1.68773 -0.848819 0
M  V30 17 C -2.0402 1.27074 -0.807091 0
M  V30 18 H 1.48242 2.80349 0.387017 0
M  V30 19 H 2.6352 2.66716 -0.994223 0
M  V30 20 H 1.49 -2.04845 0.982104 0
M  V30 21 H 3.8939 -2.46877 1.33522 0
M  V30 22 H 5.52578 -0.674028 1.01302 0
M  V30 23 H 4.77212 1.57908 0.325309 0
M  V30 24 H -2.60733 -2.99543 -0.655848 0
M  V30 25 H -2.02882 -2.53454 1.0188 0
M  V30 26 H -4.88084 -1.1699 -0.0711801 0
M  V30 27 H -5.44978 1.16975 -0.624257 0
M  V30 28 H -3.62051 2.72288 -1.09304 0
M  V30 29 H -1.25852 1.98234 -1.01818 0
M  V30 END ATOM
M  V30 BEGIN BOND
M  V30 1 1 1 2
M  V30 2 2 2 3
M  V30 3 1 3 4
M  V30 4 2 4 5
M  V30 5 1 5 6
M  V30 6 2 6 7
M  V30 7 1 3 8
M  V30 8 2 8 9 CFG=2
M  V30 9 1 9 10
M  V30 10 1 9 11
M  V30 11 2 11 12
M  V30 12 1 12 13
M  V30 13 1 12 14
M  V30 14 2 14 15
M  V30 15 1 15 16
M  V30 16 2 16 17
M  V30 17 1 7 2
M  V30 18 1 17 11
M  V30 19 1 1 18
M  V30 20 1 1 19
M  V30 21 1 4 20
M  V30 22 1 5 21
M  V30 23 1 6 22
M  V30 24 1 7 23
M  V30 25 1 13 24
M  V30 26 1 13 25
M  V30 27 1 14 26
M  V30 28 1 15 27
M  V30 29 1 16 28
M  V30 30 1 17 29
M  V30 END BOND
M  V30 END CTAB
M  END
