
     RDKit          3D

  0  0  0  0  0  0  0  0  0  0999 V3000
M  V30 BEGIN CTAB
M  V30 COUNTS 40 40 0 0 0
M  V30 BEGIN ATOM
M  V30 1 C 4.67805 0.147289 1.24699 0
M  V30 2 C 3.33004 0.343469 0.60202 0
M  V30 3 N 3.22681 0.0723764 -0.774888 0
M  V30 4 C 3.36141 -1.2817 -1.19353 0
M  V30 5 C 4.76853 -1.77852 -1.06622 0
M  V30 6 C 2.31451 0.823152 -1.56119 0
M  V30 7 C 0.869643 0.6078 -1.41814 0
M  V30 8 N 0.294504 0.881672 -0.132872 0
M  V30 9 C -1.11272 0.642619 0.0547361 0
M  V30 10 C -1.63551 0.910066 1.29787 0
M  V30 11 Cl -0.630883 1.51265 2.59156 0
M  V30 12 N -2.93585 0.699896 1.49544 0
M  V30 13 C -3.7264 0.237086 0.507791 0
M  V30 14 C -5.13437 0.0369546 0.785753 0
M  V30 15 O -5.8801 -0.379238 -0.127741 0
M  V30 16 N -5.68512 0.299775 2.06059 0
M  V30 17 N -7.03495 0.102045 2.30184 0
M  V30 18 C -3.21745 -0.0414521 -0.762431 0
M  V30 19 N -4.05178 -0.530262 -1.8068 0
M  V30 20 N -1.89167 0.181701 -0.93411 0
M  V30 21 H 4.73709 -0.863068 1.70033 0
M  V30 22 H 5.50367 0.413985 0.590801 0
M  V30 23 H 4.76204 0.87021 2.12413 0
M  V30 24 H 2.60874 -0.219682 1.24274 0
M  V30 25 H 3.091 1.44123 0.820677 0
M  V30 26 H 2.67596 -1.89188 -0.526518 0
M  V30 27 H 2.9751 -1.3899 -2.23271 0
M  V30 28 H 5.53673 -0.983463 -1.2601 0
M  V30 29 H 5.02525 -2.26362 -0.128597 0
M  V30 30 H 4.92469 -2.53745 -1.91776 0
M  V30 31 H 2.62969 0.65288 -2.64157 0
M  V30 32 H 2.53467 1.91758 -1.42508 0
M  V30 33 H 0.5216 -0.388695 -1.80151 0
M  V30 34 H 0.332184 1.32659 -2.12523 0
M  V30 35 H 0.843036 1.24963 0.656638 0
M  V30 36 H -5.04704 0.645489 2.81863 0
M  V30 37 H -7.49871 0.870687 2.8027 0
M  V30 38 H -7.30769 -0.853113 2.56936 0
M  V30 39 H -4.62688 0.0838937 -2.42605 0
M  V30 40 H -4.12782 -1.56868 -2.00754 0
M  V30 END ATOM
M  V30 BEGIN BOND
M  V30 1 1 1 2
M  V30 2 1 2 3
M  V30 3 1 3 4
M  V30 4 1 4 5
M  V30 5 1 3 6
M  V30 6 1 6 7
M  V30 7 1 7 8
M  V30 8 1 8 9
M  V30 9 2 9 10
M  V30 10 1 10 11
M  V30 11 1 10 12
M  V30 12 2 12 13
M  V30 13 1 13 14
M  V30 14 2 14 15
M  V30 15 1 14 16
M  V30 16 1 16 17
M  V30 17 1 13 18
M  V30 18 1 18 19
M  V30 19 2 18 20
M  V30 20 1 20 9
M  V30 21 1 1 21
M  V30 22 1 1 22
M  V30 23 1 1 23
M  V30 24 1 2 24
M  V30 25 1 2 25
M  V30 26 1 4 26
M  V30 27 1 4 27
M  V30 28 1 5 28
M  V30 29 1 5 29
M  V30 30 1 5 30
M  V30 31 1 6 31
M  V30 32 1 6 32
M  V30 33 1 7 33
M  V30 34 1 7 34
M  V30 35 1 8 35
M  V30 36 1 16 36
M  V30 37 1 17 37
M  V30 38 1 17 38
M  V30 39 1 19 39
M  V30 40 1 19 40
M  V30 END BOND
M  V30 END CTAB
M  END
