
     RDKit          3D

  0  0  0  0  0  0  0  0  0  0999 V3000
M  V30 BEGIN CTAB
M  V30 COUNTS 36 37 0 0 0
M  V30 BEGIN ATOM
M  V30 1 N 6.25356 0.274931 -1.38682 0
M  V30 2 C 5.64192 0.494758 -0.100836 0
M  V30 3 N 6.29647 1.06895 0.828388 0
M  V30 4 C 4.27404 0.0503963 0.109348 0
M  V30 5 C 3.62365 0.226472 1.31265 0
M  V30 6 C 2.31302 -0.227062 1.43496 0
M  V30 7 C 1.62603 -0.843178 0.421259 0
M  V30 8 C 0.225632 -1.32167 0.569424 0
M  V30 9 O -0.664267 -0.290822 0.200575 0
M  V30 10 C -2.03062 -0.441431 0.235501 0
M  V30 11 C -2.83386 0.615146 -0.14119 0
M  V30 12 C -4.2227 0.509703 -0.122218 0
M  V30 13 C -4.79902 -0.662394 0.277065 0
M  V30 14 C -4.02311 -1.75183 0.664811 0
M  V30 15 C -2.64123 -1.61218 0.633877 0
M  V30 16 C -5.03992 1.64101 -0.52499 0
M  V30 17 N -4.41706 2.87519 -0.945207 0
M  V30 18 N -6.32315 1.65992 -0.547806 0
M  V30 19 C 2.29444 -1.00808 -0.769658 0
M  V30 20 C 3.58581 -0.57694 -0.934968 0
M  V30 21 H 7.21946 -0.0859761 -1.4409 0
M  V30 22 H 5.74419 0.471584 -2.26933 0
M  V30 23 H 5.95618 1.27303 1.77676 0
M  V30 24 H 4.10675 0.708876 2.16547 0
M  V30 25 H 1.80443 -0.0863021 2.38465 0
M  V30 26 H 0.0396283 -1.728 1.5621 0
M  V30 27 H 0.0846428 -2.138 -0.182644 0
M  V30 28 H -2.37999 1.56339 -0.464374 0
M  V30 29 H -5.86119 -0.767257 0.299976 0
M  V30 30 H -4.49001 -2.67409 0.978813 0
M  V30 31 H -1.98192 -2.4282 0.925296 0
M  V30 32 H -4.24633 3.60215 -0.23345 0
M  V30 33 H -4.1772 2.95042 -1.95815 0
M  V30 34 H -6.89453 0.844637 -0.272249 0
M  V30 35 H 1.81313 -1.48911 -1.62052 0
M  V30 36 H 4.12314 -0.698042 -1.8597 0
M  V30 END ATOM
M  V30 BEGIN BOND
M  V30 1 1 1 2
M  V30 2 2 2 3 CFG=2
M  V30 3 1 2 4
M  V30 4 2 4 5
M  V30 5 1 5 6
M  V30 6 2 6 7
M  V30 7 1 7 8
M  V30 8 1 8 9
M  V30 9 1 9 10
M  V30 10 2 10 11
M  V30 11 1 11 12
M  V30 12 2 12 13
M  V30 13 1 13 14
M  V30 14 2 14 15
M  V30 15 1 12 16
M  V30 16 1 16 17
M  V30 17 2 16 18 CFG=2
M  V30 18 1 7 19
M  V30 19 2 19 20
M  V30 20 1 20 4
M  V30 21 1 15 10
M  V30 22 1 1 21
M  V30 23 1 1 22
M  V30 24 1 3 23
M  V30 25 1 5 24
M  V30 26 1 6 25
M  V30 27 1 8 26
M  V30 28 1 8 27
M  V30 29 1 11 28
M  V30 30 1 13 29
M  V30 31 1 14 30
M  V30 32 1 15 31
M  V30 33 1 17 32
M  V30 34 1 17 33
M  V30 35 1 18 34
M  V30 36 1 19 35
M  V30 37 1 20 36
M  V30 END BOND
M  V30 END CTAB
M  END
