
     RDKit          3D

  0  0  0  0  0  0  0  0  0  0999 V3000
M  V30 BEGIN CTAB
M  V30 COUNTS 29 29 0 0 0
M  V30 BEGIN ATOM
M  V30 1 C 4.3955 -0.107546 0.728184 0
M  V30 2 C 3.24209 0.309392 -0.106529 0
M  V30 3 C 2.14458 -0.719065 -0.253041 0
M  V30 4 S 0.897796 0.00295371 -1.32885 0
M  V30 5 C -0.763614 -0.082256 -0.762235 0
M  V30 6 C -1.55919 -1.1908 -1.14773 0
M  V30 7 C -2.86502 -1.34579 -0.779212 0
M  V30 8 C -3.442 -0.377409 0.00461021 0
M  V30 9 C -2.70675 0.707891 0.397306 0
M  V30 10 C -1.36964 0.858359 0.0182473 0
M  V30 11 N -0.647132 2.01441 0.445134 0
M  V30 12 C -4.8899 -0.536395 0.397918 0
M  V30 13 N 3.70748 0.621783 -1.45339 0
M  V30 14 H 5.06459 0.795046 0.848952 0
M  V30 15 H 4.17443 -0.450756 1.73991 0
M  V30 16 H 5.05411 -0.864441 0.225382 0
M  V30 17 H 2.83032 1.24232 0.318724 0
M  V30 18 H 1.74706 -0.934291 0.769432 0
M  V30 19 H 2.52249 -1.63576 -0.685862 0
M  V30 20 H -1.09426 -1.93766 -1.75904 0
M  V30 21 H -3.46915 -2.20323 -1.08516 0
M  V30 22 H -3.13366 1.49599 1.03084 0
M  V30 23 H 0.389718 2.04948 0.476976 0
M  V30 24 H -1.17551 2.85918 0.74661 0
M  V30 25 H -5.09401 -0.00137592 1.31977 0
M  V30 26 H -5.46387 -0.114042 -0.481464 0
M  V30 27 H -5.14032 -1.59665 0.449854 0
M  V30 28 H 3.57489 -0.228939 -2.08564 0
M  V30 29 H 3.06897 1.36959 -1.83914 0
M  V30 END ATOM
M  V30 BEGIN BOND
M  V30 1 1 1 2
M  V30 2 1 2 3
M  V30 3 1 3 4
M  V30 4 1 4 5
M  V30 5 2 5 6
M  V30 6 1 6 7
M  V30 7 2 7 8
M  V30 8 1 8 9
M  V30 9 2 9 10
M  V30 10 1 10 11
M  V30 11 1 8 12
M  V30 12 1 2 13
M  V30 13 1 10 5
M  V30 14 1 1 14
M  V30 15 1 1 15
M  V30 16 1 1 16
M  V30 17 1 2 17
M  V30 18 1 3 18
M  V30 19 1 3 19
M  V30 20 1 6 20
M  V30 21 1 7 21
M  V30 22 1 9 22
M  V30 23 1 11 23
M  V30 24 1 11 24
M  V30 25 1 12 25
M  V30 26 1 12 26
M  V30 27 1 12 27
M  V30 28 1 13 28
M  V30 29 1 13 29
M  V30 END BOND
M  V30 END CTAB
M  END
