
     RDKit          3D

  0  0  0  0  0  0  0  0  0  0999 V3000
M  V30 BEGIN CTAB
M  V30 COUNTS 48 50 0 0 0
M  V30 BEGIN ATOM
M  V30 1 C 0.369154 4.89645 1.97018 0
M  V30 2 C -0.203136 3.49647 1.83148 0
M  V30 3 O 0.571865 2.71734 0.938747 0
M  V30 4 C 0.286549 1.41271 0.623968 0
M  V30 5 C -0.788685 0.717211 1.14523 0
M  V30 6 C -1.02694 -0.589838 0.793159 0
M  V30 7 C -2.16692 -1.31368 1.32933 0
M  V30 8 C -3.28995 -1.53924 0.388748 0
M  V30 9 C -4.16267 -0.522848 0.102874 0
M  V30 10 N -4.07869 0.783467 0.675679 0
M  V30 11 N -5.16549 -0.801337 -0.777854 0
M  V30 12 C -5.32636 -1.99883 -1.35881 0
M  V30 13 N -6.37389 -2.27441 -2.27455 0
M  V30 14 N -4.44167 -2.97502 -1.04794 0
M  V30 15 C -3.43533 -2.78157 -0.197118 0
M  V30 16 C -0.171162 -1.20549 -0.0949471 0
M  V30 17 C 0.929642 -0.533141 -0.644432 0
M  V30 18 C 1.15054 0.776248 -0.278811 0
M  V30 19 O 2.22537 1.47436 -0.796396 0
M  V30 20 C 3.1843 1.00742 -1.67459 0
M  V30 21 C 3.99547 -0.106664 -1.16502 0
M  V30 22 C 4.64348 -0.941196 -2.04844 0
M  V30 23 C 5.42746 -1.99564 -1.64589 0
M  V30 24 C 5.56368 -2.21794 -0.293154 0
M  V30 25 C 4.93696 -1.41311 0.632939 0
M  V30 26 C 4.1635 -0.371473 0.191064 0
M  V30 27 H 0.643129 5.31775 0.9641 0
M  V30 28 H 1.31205 4.89646 2.54932 0
M  V30 29 H -0.396065 5.52091 2.47839 0
M  V30 30 H -0.166999 3.05614 2.86533 0
M  V30 31 H -1.26408 3.57903 1.52343 0
M  V30 32 H -1.39721 1.28589 1.84677 0
M  V30 33 H -1.80521 -2.3087 1.68464 0
M  V30 34 H -2.53415 -0.779173 2.23988 0
M  V30 35 H -4.09193 0.983044 1.69446 0
M  V30 36 H -3.9985 1.60255 0.0414326 0
M  V30 37 H -7.27952 -1.78242 -2.17114 0
M  V30 38 H -6.24378 -2.95854 -3.04158 0
M  V30 39 H -2.7611 -3.5799 0.0190834 0
M  V30 40 H -0.391304 -2.2304 -0.345962 0
M  V30 41 H 1.55226 -1.0845 -1.34529 0
M  V30 42 H 3.86433 1.86835 -1.91587 0
M  V30 43 H 2.77246 0.704374 -2.66356 0
M  V30 44 H 4.52112 -0.746431 -3.1127 0
M  V30 45 H 5.9382 -2.65286 -2.31597 0
M  V30 46 H 6.16827 -3.03289 0.0831672 0
M  V30 47 H 5.07255 -1.62525 1.69396 0
M  V30 48 H 3.66842 0.266314 0.902648 0
M  V30 END ATOM
M  V30 BEGIN BOND
M  V30 1 1 1 2
M  V30 2 1 2 3
M  V30 3 1 3 4
M  V30 4 2 4 5
M  V30 5 1 5 6
M  V30 6 1 6 7
M  V30 7 1 7 8
M  V30 8 2 8 9
M  V30 9 1 9 10
M  V30 10 1 9 11
M  V30 11 2 11 12
M  V30 12 1 12 13
M  V30 13 1 12 14
M  V30 14 2 14 15
M  V30 15 2 6 16
M  V30 16 1 16 17
M  V30 17 2 17 18
M  V30 18 1 18 19
M  V30 19 1 19 20
M  V30 20 1 20 21
M  V30 21 2 21 22
M  V30 22 1 22 23
M  V30 23 2 23 24
M  V30 24 1 24 25
M  V30 25 2 25 26
M  V30 26 1 18 4
M  V30 27 1 26 21
M  V30 28 1 15 8
M  V30 29 1 1 27
M  V30 30 1 1 28
M  V30 31 1 1 29
M  V30 32 1 2 30
M  V30 33 1 2 31
M  V30 34 1 5 32
M  V30 35 1 7 33
M  V30 36 1 7 34
M  V30 37 1 10 35
M  V30 38 1 10 36
M  V30 39 1 13 37
M  V30 40 1 13 38
M  V30 41 1 15 39
M  V30 42 1 16 40
M  V30 43 1 17 41
M  V30 44 1 20 42
M  V30 45 1 20 43
M  V30 46 1 22 44
M  V30 47 1 23 45
M  V30 48 1 24 46
M  V30 49 1 25 47
M  V30 50 1 26 48
M  V30 END BOND
M  V30 END CTAB
M  END
