
     RDKit          3D

  0  0  0  0  0  0  0  0  0  0999 V3000
M  V30 BEGIN CTAB
M  V30 COUNTS 46 45 0 0 0
M  V30 BEGIN ATOM
M  V30 1 C -6.35063 1.20216 -0.0095878 0 CFG=2
M  V30 2 C -6.8174 1.75009 -1.36214 0
M  V30 3 N -5.7288 2.27957 0.756365 0
M  V30 4 C -5.4006 0.0889814 -0.231561 0
M  V30 5 O -5.77604 -0.920417 -0.872219 0
M  V30 6 N -4.08691 0.173252 0.277366 0
M  V30 7 C -3.09177 -0.866007 0.108506 0 CFG=1
M  V30 8 C -1.95854 -0.318509 -0.727376 0
M  V30 9 S -0.724409 -1.61541 -0.933743 0
M  V30 10 S 0.923173 -0.987401 -2.09243 0
M  V30 11 C 2.2348 -0.261557 -1.11728 0
M  V30 12 C 2.90503 -1.23756 -0.192196 0 CFG=2
M  V30 13 N 3.96098 -0.599308 0.576221 0
M  V30 14 C 5.10607 -0.0209679 -0.0127542 0
M  V30 15 O 5.24656 -0.0440363 -1.25124 0
M  V30 16 C 6.13988 0.611874 0.826566 0 CFG=2
M  V30 17 C 5.48603 1.74378 1.62299 0
M  V30 18 N 7.20702 1.12983 0.00481225 0
M  V30 19 C 3.42278 -2.44622 -0.823374 0
M  V30 20 O 2.66935 -3.28437 -1.63857 0
M  V30 21 O 4.6203 -2.77845 -0.638716 0
M  V30 22 C -2.64646 -1.29604 1.44757 0
M  V30 23 O -1.69537 -2.28398 1.55464 0
M  V30 24 O -3.10432 -0.792795 2.49391 0
M  V30 25 H -7.19843 0.813547 0.581834 0
M  V30 26 H -5.96972 1.61662 -2.07973 0
M  V30 27 H -7.01269 2.82027 -1.2679 0
M  V30 28 H -7.69818 1.1441 -1.65696 0
M  V30 29 H -6.20341 3.19178 0.57689 0
M  V30 30 H -5.73093 2.04525 1.7795 0
M  V30 31 H -3.80409 1.0223 0.804432 0
M  V30 32 H -3.53384 -1.7024 -0.471367 0
M  V30 33 H -2.3367 0.092714 -1.68409 0
M  V30 34 H -1.46455 0.534431 -0.199548 0
M  V30 35 H 1.75927 0.514507 -0.447363 0
M  V30 36 H 2.89721 0.291864 -1.78222 0
M  V30 37 H 2.13028 -1.57155 0.563093 0
M  V30 38 H 3.90167 -0.547026 1.63723 0
M  V30 39 H 6.60158 -0.110954 1.55161 0
M  V30 40 H 5.33055 2.58394 0.91755 0
M  V30 41 H 6.12857 2.07112 2.45995 0
M  V30 42 H 4.48776 1.38956 1.94611 0
M  V30 43 H 6.76525 1.66012 -0.774161 0
M  V30 44 H 7.72229 0.301322 -0.379113 0
M  V30 45 H 2.41815 -4.19597 -1.24098 0
M  V30 46 H -1.73076 -3.19205 1.16191 0
M  V30 END ATOM
M  V30 BEGIN BOND
M  V30 1 1 1 2
M  V30 2 1 1 3
M  V30 3 1 1 4
M  V30 4 2 4 5
M  V30 5 1 4 6
M  V30 6 1 6 7
M  V30 7 1 7 8
M  V30 8 1 8 9
M  V30 9 1 9 10
M  V30 10 1 10 11
M  V30 11 1 11 12
M  V30 12 1 12 13
M  V30 13 1 13 14
M  V30 14 2 14 15
M  V30 15 1 14 16
M  V30 16 1 16 17
M  V30 17 1 16 18
M  V30 18 1 12 19
M  V30 19 1 19 20
M  V30 20 2 19 21
M  V30 21 1 7 22
M  V30 22 1 22 23
M  V30 23 2 22 24
M  V30 24 1 1 25 CFG=1
M  V30 25 1 2 26
M  V30 26 1 2 27
M  V30 27 1 2 28
M  V30 28 1 3 29
M  V30 29 1 3 30
M  V30 30 1 6 31
M  V30 31 1 7 32 CFG=3
M  V30 32 1 8 33
M  V30 33 1 8 34
M  V30 34 1 11 35
M  V30 35 1 11 36
M  V30 36 1 12 37 CFG=1
M  V30 37 1 13 38
M  V30 38 1 16 39 CFG=1
M  V30 39 1 17 40
M  V30 40 1 17 41
M  V30 41 1 17 42
M  V30 42 1 18 43
M  V30 43 1 18 44
M  V30 44 1 20 45
M  V30 45 1 23 46
M  V30 END BOND
M  V30 END CTAB
M  END
