
     RDKit          3D

  0  0  0  0  0  0  0  0  0  0999 V3000
M  V30 BEGIN CTAB
M  V30 COUNTS 37 39 0 0 0
M  V30 BEGIN ATOM
M  V30 1 N 2.71354 -1.76466 2.51448 0
M  V30 2 C 2.76579 -0.890187 1.38542 0
M  V30 3 N 1.65555 -0.495376 0.737061 0
M  V30 4 C 1.75171 0.32136 -0.311694 0
M  V30 5 C 3.00384 0.759548 -0.727607 0
M  V30 6 N 2.80716 1.55073 -1.77904 0
M  V30 7 C 1.4796 1.60734 -2.01486 0
M  V30 8 N 0.821771 0.853087 -1.11586 0
M  V30 9 C -0.594936 0.689035 -1.07596 0 CFG=2
M  V30 10 O -1.06912 0.477738 0.237675 0
M  V30 11 C -2.39953 0.177616 0.0317543 0 CFG=2
M  V30 12 C -3.03403 -0.531624 1.21553 0
M  V30 13 C -2.95988 0.332959 2.4644 0
M  V30 14 O -3.62139 1.53806 2.29154 0
M  V30 15 C -2.50555 -0.626584 -1.22216 0 CFG=2
M  V30 16 O -2.94651 -1.91964 -1.02026 0
M  V30 17 C -1.06514 -0.590563 -1.73813 0 CFG=1
M  V30 18 O -1.01772 -0.521893 -3.11689 0
M  V30 19 C 4.15101 0.363116 -0.072621 0
M  V30 20 N 5.40992 0.829855 -0.524748 0
M  V30 21 N 3.99052 -0.461287 0.978221 0
M  V30 22 H 1.86127 -1.74582 3.11003 0
M  V30 23 H 3.49356 -2.41058 2.75378 0
M  V30 24 H 1.03887 2.18668 -2.82104 0
M  V30 25 H -1.1543 1.52475 -1.53577 0
M  V30 26 H -2.93517 1.15432 -0.0825589 0
M  V30 27 H -4.11113 -0.655213 0.980394 0
M  V30 28 H -2.60359 -1.52029 1.4032 0
M  V30 29 H -1.90786 0.518949 2.77264 0
M  V30 30 H -3.44087 -0.183488 3.31931 0
M  V30 31 H -2.96823 2.294 2.37817 0
M  V30 32 H -3.10437 -0.0764096 -1.98093 0
M  V30 33 H -3.92679 -1.92975 -1.26202 0
M  V30 34 H -0.475009 -1.44041 -1.34264 0
M  V30 35 H -0.845146 -1.4324 -3.46648 0
M  V30 36 H 5.85477 0.430231 -1.3603 0
M  V30 37 H 5.8874 1.58678 -0.00206061 0
M  V30 END ATOM
M  V30 BEGIN BOND
M  V30 1 1 1 2
M  V30 2 2 2 3
M  V30 3 1 3 4
M  V30 4 2 4 5
M  V30 5 1 5 6
M  V30 6 2 6 7
M  V30 7 1 7 8
M  V30 8 1 8 9
M  V30 9 1 9 10
M  V30 10 1 10 11
M  V30 11 1 11 12
M  V30 12 1 12 13
M  V30 13 1 13 14
M  V30 14 1 11 15
M  V30 15 1 15 16
M  V30 16 1 15 17
M  V30 17 1 17 18
M  V30 18 1 5 19
M  V30 19 1 19 20
M  V30 20 2 19 21
M  V30 21 1 21 2
M  V30 22 1 8 4
M  V30 23 1 17 9
M  V30 24 1 1 22
M  V30 25 1 1 23
M  V30 26 1 7 24
M  V30 27 1 9 25 CFG=3
M  V30 28 1 11 26 CFG=3
M  V30 29 1 12 27
M  V30 30 1 12 28
M  V30 31 1 13 29
M  V30 32 1 13 30
M  V30 33 1 14 31
M  V30 34 1 15 32 CFG=3
M  V30 35 1 16 33
M  V30 36 1 17 34 CFG=1
M  V30 37 1 18 35
M  V30 38 1 20 36
M  V30 39 1 20 37
M  V30 END BOND
M  V30 END CTAB
M  END
