
     RDKit          3D

  0  0  0  0  0  0  0  0  0  0999 V3000
M  V30 BEGIN CTAB
M  V30 COUNTS 43 44 0 0 0
M  V30 BEGIN ATOM
M  V30 1 O 3.74448 -0.791111 -1.6319 0
M  V30 2 C 2.9602 -0.883421 -0.653416 0
M  V30 3 O 3.37815 -0.315473 0.545984 0
M  V30 4 N 4.59319 0.324524 0.655571 0
M  V30 5 C 5.76982 -0.0410555 1.3614 0
M  V30 6 O 5.88071 -1.13229 1.97618 0
M  V30 7 C 6.74809 1.07047 1.21444 0
M  V30 8 C 6.31779 1.6884 -0.102964 0
M  V30 9 C 4.83692 1.58324 -0.00793328 0
M  V30 10 O 3.97019 2.40217 -0.411962 0
M  V30 11 C 1.62171 -1.57426 -0.755664 0
M  V30 12 C 0.614174 -0.56066 -1.23168 0
M  V30 13 C -0.772656 -1.08133 -1.38392 0
M  V30 14 C -1.34593 -1.62295 -0.0941073 0
M  V30 15 C -1.39141 -0.601812 0.990468 0
M  V30 16 N -2.15361 0.568803 0.726108 0
M  V30 17 C -3.54981 0.527321 0.462633 0
M  V30 18 N -4.22814 -0.62908 0.45039 0
M  V30 19 C -5.54309 -0.720365 0.205488 0
M  V30 20 N -6.2361 -1.95429 0.199075 0
M  V30 21 N -6.19614 0.447198 -0.0413548 0
M  V30 22 C -5.56672 1.6368 -0.0415891 0
M  V30 23 N -4.25304 1.65814 0.210092 0
M  V30 24 N -6.31922 2.81711 -0.311999 0
M  V30 25 H 6.58534 1.85078 1.98306 0
M  V30 26 H 7.79085 0.71612 1.15762 0
M  V30 27 H 6.62622 1.06062 -0.969649 0
M  V30 28 H 6.63373 2.74316 -0.203218 0
M  V30 29 H 1.75976 -2.36844 -1.50702 0
M  V30 30 H 1.32613 -2.03019 0.211305 0
M  V30 31 H 0.960552 -0.220588 -2.24248 0
M  V30 32 H 0.675105 0.308249 -0.524198 0
M  V30 33 H -1.4086 -0.244326 -1.7206 0
M  V30 34 H -0.772739 -1.84986 -2.17357 0
M  V30 35 H -0.668556 -2.44724 0.2657 0
M  V30 36 H -2.30581 -2.11918 -0.319831 0
M  V30 37 H -0.363423 -0.305685 1.30015 0
M  V30 38 H -1.81783 -1.13492 1.89597 0
M  V30 39 H -1.69248 1.50419 0.719599 0
M  V30 40 H -6.60929 -2.34067 1.07609 0
M  V30 41 H -6.35964 -2.45581 -0.692603 0
M  V30 42 H -6.1042 3.74987 0.103375 0
M  V30 43 H -7.13467 2.76784 -0.958772 0
M  V30 END ATOM
M  V30 BEGIN BOND
M  V30 1 2 1 2
M  V30 2 1 2 3
M  V30 3 1 3 4
M  V30 4 1 4 5
M  V30 5 2 5 6
M  V30 6 1 5 7
M  V30 7 1 7 8
M  V30 8 1 8 9
M  V30 9 2 9 10
M  V30 10 1 2 11
M  V30 11 1 11 12
M  V30 12 1 12 13
M  V30 13 1 13 14
M  V30 14 1 14 15
M  V30 15 1 15 16
M  V30 16 1 16 17
M  V30 17 2 17 18
M  V30 18 1 18 19
M  V30 19 1 19 20
M  V30 20 2 19 21
M  V30 21 1 21 22
M  V30 22 2 22 23
M  V30 23 1 22 24
M  V30 24 1 9 4
M  V30 25 1 23 17
M  V30 26 1 7 25
M  V30 27 1 7 26
M  V30 28 1 8 27
M  V30 29 1 8 28
M  V30 30 1 11 29
M  V30 31 1 11 30
M  V30 32 1 12 31
M  V30 33 1 12 32
M  V30 34 1 13 33
M  V30 35 1 13 34
M  V30 36 1 14 35
M  V30 37 1 14 36
M  V30 38 1 15 37
M  V30 39 1 15 38
M  V30 40 1 16 39
M  V30 41 1 20 40
M  V30 42 1 20 41
M  V30 43 1 24 42
M  V30 44 1 24 43
M  V30 END BOND
M  V30 END CTAB
M  END
