
     RDKit          3D

  0  0  0  0  0  0  0  0  0  0999 V3000
M  V30 BEGIN CTAB
M  V30 COUNTS 58 59 0 0 0
M  V30 BEGIN ATOM
M  V30 1 N 10.6529 0.608086 1.82485 0
M  V30 2 C 9.78846 -0.329069 2.42394 0
M  V30 3 N 10.2391 -1.23961 3.23482 0
M  V30 4 C 8.35733 -0.318291 2.17172 0
M  V30 5 C 7.4593 -1.18377 2.743 0
M  V30 6 C 6.08603 -1.13231 2.46141 0
M  V30 7 C 5.62419 -0.184054 1.58242 0
M  V30 8 N 4.26407 -0.0851663 1.19911 0
M  V30 9 C 3.28032 -1.07865 1.27872 0
M  V30 10 O 3.4945 -2.21515 1.68271 0
M  V30 11 C 1.86716 -0.753939 0.843129 0
M  V30 12 C 1.31145 -1.99856 0.206466 0
M  V30 13 C -0.0885129 -2.05006 -0.146601 0
M  V30 14 C -0.82326 -1.07516 -0.953418 0
M  V30 15 C -1.00177 0.263914 -0.387909 0
M  V30 16 C -1.86031 1.26529 -1.11042 0
M  V30 17 C -3.28017 0.893629 -1.2517 0
M  V30 18 O -3.68904 -0.276055 -1.03199 0
M  V30 19 N -4.27023 1.83849 -1.63052 0
M  V30 20 C -5.62076 1.45386 -1.75995 0
M  V30 21 C -5.99539 0.264532 -2.32799 0
M  V30 22 C -7.34322 -0.126694 -2.39801 0
M  V30 23 C -8.31769 0.698412 -1.88706 0
M  V30 24 C -7.95223 1.9092 -1.3109 0
M  V30 25 C -6.64509 2.26557 -1.2549 0
M  V30 26 C -9.70682 0.288614 -1.93773 0
M  V30 27 N -10.6929 1.18513 -1.436 0
M  V30 28 N -10.0336 -0.842 -2.4194 0
M  V30 29 C 6.53174 0.6736 1.01931 0
M  V30 30 C 7.85654 0.637792 1.28027 0
M  V30 31 H 10.8823 0.566214 0.812857 0
M  V30 32 H 11.0997 1.38186 2.37882 0
M  V30 33 H 11.2798 -1.22544 3.40341 0
M  V30 34 H 7.8468 -1.92699 3.44324 0
M  V30 35 H 5.43936 -1.83739 2.95638 0
M  V30 36 H 3.94154 0.868086 0.799515 0
M  V30 37 H 1.30102 -0.391368 1.6949 0
M  V30 38 H 1.95694 0.0842483 0.0930962 0
M  V30 39 H 1.48807 -2.79705 1.00198 0
M  V30 40 H 2.02807 -2.37143 -0.601179 0
M  V30 41 H -0.255397 -3.07765 -0.649037 0
M  V30 42 H -0.677294 -2.24632 0.837031 0
M  V30 43 H -1.77283 -1.53106 -1.2667 0
M  V30 44 H -0.276687 -0.951355 -1.95654 0
M  V30 45 H -1.49684 0.160867 0.649517 0
M  V30 46 H -0.0820794 0.834391 -0.11975 0
M  V30 47 H -1.86852 2.25009 -0.543668 0
M  V30 48 H -1.49834 1.53365 -2.11769 0
M  V30 49 H -4.04852 2.84415 -1.82804 0
M  V30 50 H -5.26946 -0.422458 -2.76409 0
M  V30 51 H -7.55545 -1.09042 -2.87574 0
M  V30 52 H -8.73633 2.56257 -0.904687 0
M  V30 53 H -6.3508 3.20856 -0.801644 0
M  V30 54 H -11.4501 0.834911 -0.837336 0
M  V30 55 H -10.6526 2.19886 -1.67652 0
M  V30 56 H -9.46185 -1.57941 -2.80935 0
M  V30 57 H 6.1542 1.41806 0.328625 0
M  V30 58 H 8.54329 1.34422 0.813005 0
M  V30 END ATOM
M  V30 BEGIN BOND
M  V30 1 1 1 2
M  V30 2 2 2 3 CFG=2
M  V30 3 1 2 4
M  V30 4 2 4 5
M  V30 5 1 5 6
M  V30 6 2 6 7
M  V30 7 1 7 8
M  V30 8 1 8 9
M  V30 9 2 9 10
M  V30 10 1 9 11
M  V30 11 1 11 12
M  V30 12 1 12 13
M  V30 13 1 13 14
M  V30 14 1 14 15
M  V30 15 1 15 16
M  V30 16 1 16 17
M  V30 17 2 17 18
M  V30 18 1 17 19
M  V30 19 1 19 20
M  V30 20 2 20 21
M  V30 21 1 21 22
M  V30 22 2 22 23
M  V30 23 1 23 24
M  V30 24 2 24 25
M  V30 25 1 23 26
M  V30 26 1 26 27
M  V30 27 2 26 28 CFG=2
M  V30 28 1 7 29
M  V30 29 2 29 30
M  V30 30 1 30 4
M  V30 31 1 25 20
M  V30 32 1 1 31
M  V30 33 1 1 32
M  V30 34 1 3 33
M  V30 35 1 5 34
M  V30 36 1 6 35
M  V30 37 1 8 36
M  V30 38 1 11 37
M  V30 39 1 11 38
M  V30 40 1 12 39
M  V30 41 1 12 40
M  V30 42 1 13 41
M  V30 43 1 13 42
M  V30 44 1 14 43
M  V30 45 1 14 44
M  V30 46 1 15 45
M  V30 47 1 15 46
M  V30 48 1 16 47
M  V30 49 1 16 48
M  V30 50 1 19 49
M  V30 51 1 21 50
M  V30 52 1 22 51
M  V30 53 1 24 52
M  V30 54 1 25 53
M  V30 55 1 27 54
M  V30 56 1 27 55
M  V30 57 1 28 56
M  V30 58 1 29 57
M  V30 59 1 30 58
M  V30 END BOND
M  V30 END CTAB
M  END
