
     RDKit          3D

  0  0  0  0  0  0  0  0  0  0999 V3000
M  V30 BEGIN CTAB
M  V30 COUNTS 27 29 0 0 0
M  V30 BEGIN ATOM
M  V30 1 Cl -6.60262 1.13828 -0.107993 0
M  V30 2 C -5.06149 0.35299 -0.330846 0
M  V30 3 C -4.93651 -0.917571 -0.853974 0
M  V30 4 N -3.72065 -1.49686 -1.01295 0
M  V30 5 C -2.58864 -0.857075 -0.667512 0
M  V30 6 C -2.71213 0.410407 -0.145572 0
M  V30 7 C -3.9225 1.0413 0.0353709 0
M  V30 8 N -1.4688 0.846557 0.122286 0
M  V30 9 C -0.611611 -0.129157 -0.227195 0
M  V30 10 O -1.30308 -1.11641 -0.6878 0
M  V30 11 C 0.845129 -0.0444488 -0.0917511 0
M  V30 12 C 1.46734 1.0698 0.417317 0
M  V30 13 C 2.84195 1.10468 0.526273 0
M  V30 14 N 3.41819 2.28454 1.05965 0
M  V30 15 C 3.60566 0.0198634 0.124666 0
M  V30 16 C 3.00205 -1.11808 -0.393039 0
M  V30 17 C 1.62595 -1.11698 -0.48704 0
M  V30 18 N 3.80846 -2.21566 -0.797049 0
M  V30 19 H -5.85208 -1.42345 -1.12852 0
M  V30 20 H -3.9883 2.05255 0.454039 0
M  V30 21 H 0.829199 1.89305 0.718062 0
M  V30 22 H 4.31112 2.61758 0.649619 0
M  V30 23 H 2.92667 2.77212 1.84018 0
M  V30 24 H 4.68096 0.114118 0.237953 0
M  V30 25 H 1.15426 -2.00519 -0.891174 0
M  V30 26 H 3.77063 -2.63142 -1.75304 0
M  V30 27 H 4.48084 -2.64553 -0.121372 0
M  V30 END ATOM
M  V30 BEGIN BOND
M  V30 1 1 1 2
M  V30 2 2 2 3
M  V30 3 1 3 4
M  V30 4 2 4 5
M  V30 5 1 5 6
M  V30 6 2 6 7
M  V30 7 1 6 8
M  V30 8 2 8 9
M  V30 9 1 9 10
M  V30 10 1 9 11
M  V30 11 2 11 12
M  V30 12 1 12 13
M  V30 13 1 13 14
M  V30 14 2 13 15
M  V30 15 1 15 16
M  V30 16 2 16 17
M  V30 17 1 16 18
M  V30 18 1 7 2
M  V30 19 1 17 11
M  V30 20 1 10 5
M  V30 21 1 3 19
M  V30 22 1 7 20
M  V30 23 1 12 21
M  V30 24 1 14 22
M  V30 25 1 14 23
M  V30 26 1 15 24
M  V30 27 1 17 25
M  V30 28 1 18 26
M  V30 29 1 18 27
M  V30 END BOND
M  V30 END CTAB
M  END
