
     RDKit          3D

  0  0  0  0  0  0  0  0  0  0999 V3000
M  V30 BEGIN CTAB
M  V30 COUNTS 24 24 0 0 0
M  V30 BEGIN ATOM
M  V30 1 C 1.06296 -1.7542 1.05561 0
M  V30 2 N 0.842815 -0.740327 0.0409367 0
M  V30 3 S 2.21729 -0.185712 -0.817688 0
M  V30 4 O 1.89779 0.184196 -2.23462 0
M  V30 5 O 3.25429 -1.27099 -0.868504 0
M  V30 6 N 2.87714 1.16869 0.0454724 0
M  V30 7 C -0.475216 -0.257155 -0.196515 0
M  V30 8 C -1.29945 -0.86339 -1.12688 0
M  V30 9 C -2.58302 -0.430747 -1.39084 0
M  V30 10 Cl -3.62232 -1.19787 -2.56628 0
M  V30 11 C -3.09265 0.655366 -0.708726 0
M  V30 12 C -2.2755 1.26493 0.221001 0
M  V30 13 C -0.993097 0.827393 0.480173 0
M  V30 14 N -0.221064 1.5115 1.45179 0
M  V30 15 H 1.93536 -2.41051 0.781639 0
M  V30 16 H 0.192396 -2.43787 1.15357 0
M  V30 17 H 1.22085 -1.29562 2.04634 0
M  V30 18 H 2.76849 1.04561 1.07121 0
M  V30 19 H 3.91692 1.2328 -0.162588 0
M  V30 20 H -0.922911 -1.716 -1.67401 0
M  V30 21 H -4.10268 1.0165 -0.898618 0
M  V30 22 H -2.66804 2.11581 0.758716 0
M  V30 23 H -0.18349 2.56259 1.35153 0
M  V30 24 H 0.253139 0.975013 2.18728 0
M  V30 END ATOM
M  V30 BEGIN BOND
M  V30 1 1 1 2
M  V30 2 1 2 3
M  V30 3 2 3 4
M  V30 4 2 3 5
M  V30 5 1 3 6
M  V30 6 1 2 7
M  V30 7 2 7 8
M  V30 8 1 8 9
M  V30 9 1 9 10
M  V30 10 2 9 11
M  V30 11 1 11 12
M  V30 12 2 12 13
M  V30 13 1 13 14
M  V30 14 1 13 7
M  V30 15 1 1 15
M  V30 16 1 1 16
M  V30 17 1 1 17
M  V30 18 1 6 18
M  V30 19 1 6 19
M  V30 20 1 8 20
M  V30 21 1 11 21
M  V30 22 1 12 22
M  V30 23 1 14 23
M  V30 24 1 14 24
M  V30 END BOND
M  V30 END CTAB
M  END
