
     RDKit          3D

  0  0  0  0  0  0  0  0  0  0999 V3000
M  V30 BEGIN CTAB
M  V30 COUNTS 33 33 0 0 0
M  V30 BEGIN ATOM
M  V30 1 N -3.51939 2.10468 0.937541 0
M  V30 2 C -2.92014 1.18181 0.0126002 0
M  V30 3 C -2.48451 -0.0473102 0.789164 0
M  V30 4 N -1.86597 -1.05398 -0.0304547 0
M  V30 5 C -0.447988 -1.03095 -0.27282 0
M  V30 6 S 0.228086 -2.21064 -1.19401 0
M  V30 7 N 0.369287 -0.0293156 0.279127 0
M  V30 8 C 1.76136 0.159471 0.140443 0
M  V30 9 C 2.52579 -0.20222 -0.939667 0
M  V30 10 C 3.91183 0.00323214 -0.9472 0
M  V30 11 C 4.5764 0.57152 0.11063 0
M  V30 12 C 3.82023 0.940116 1.20033 0
M  V30 13 C 2.46554 0.742417 1.21595 0
M  V30 14 N 5.98385 0.776937 0.0987148 0
M  V30 15 C -2.64312 -2.07028 -0.605039 0
M  V30 16 O -2.13427 -2.94889 -1.31877 0
M  V30 17 C -4.10552 -2.10442 -0.359999 0
M  V30 18 H -2.74987 2.58695 1.45455 0
M  V30 19 H -4.169 2.78831 0.473081 0
M  V30 20 H -3.54518 0.932837 -0.856292 0
M  V30 21 H -2.01633 1.70603 -0.411188 0
M  V30 22 H -1.87235 0.243585 1.64772 0
M  V30 23 H -3.40857 -0.521553 1.20916 0
M  V30 24 H -0.131882 0.699143 0.885576 0
M  V30 25 H 2.08928 -0.629297 -1.81295 0
M  V30 26 H 4.50401 -0.289433 -1.81 0
M  V30 27 H 4.36001 1.39191 2.03596 0
M  V30 28 H 1.87634 1.03192 2.06999 0
M  V30 29 H 6.59842 0.578404 0.919893 0
M  V30 30 H 6.46476 1.14253 -0.752313 0
M  V30 31 H -4.56581 -2.97658 -0.899406 0
M  V30 32 H -4.61084 -1.20548 -0.720134 0
M  V30 33 H -4.34447 -2.26146 0.712955 0
M  V30 END ATOM
M  V30 BEGIN BOND
M  V30 1 1 1 2
M  V30 2 1 2 3
M  V30 3 1 3 4
M  V30 4 1 4 5
M  V30 5 2 5 6
M  V30 6 1 5 7
M  V30 7 1 7 8
M  V30 8 2 8 9
M  V30 9 1 9 10
M  V30 10 2 10 11
M  V30 11 1 11 12
M  V30 12 2 12 13
M  V30 13 1 11 14
M  V30 14 1 4 15
M  V30 15 2 15 16
M  V30 16 1 15 17
M  V30 17 1 13 8
M  V30 18 1 1 18
M  V30 19 1 1 19
M  V30 20 1 2 20
M  V30 21 1 2 21
M  V30 22 1 3 22
M  V30 23 1 3 23
M  V30 24 1 7 24
M  V30 25 1 9 25
M  V30 26 1 10 26
M  V30 27 1 12 27
M  V30 28 1 13 28
M  V30 29 1 14 29
M  V30 30 1 14 30
M  V30 31 1 17 31
M  V30 32 1 17 32
M  V30 33 1 17 33
M  V30 END BOND
M  V30 END CTAB
M  END
