
     RDKit          3D

  0  0  0  0  0  0  0  0  0  0999 V3000
M  V30 BEGIN CTAB
M  V30 COUNTS 28 29 0 0 0
M  V30 BEGIN ATOM
M  V30 1 N -4.2546 -0.402184 -0.478765 0
M  V30 2 C -2.9431 0.126259 -0.305143 0
M  V30 3 C -2.67283 1.47292 -0.411006 0
M  V30 4 C -1.37328 1.88767 -0.226484 0
M  V30 5 C -0.341296 1.0185 0.0572074 0
M  V30 6 N -0.669846 -0.276676 0.146774 0
M  V30 7 C -1.91408 -0.742573 -0.0220248 0
M  V30 8 N -2.2205 -2.13946 0.0831105 0
M  V30 9 N 0.98942 1.49438 0.240557 0
M  V30 10 C 2.11155 0.693999 0.532035 0
M  V30 11 C 2.04525 -0.102898 1.80356 0
M  V30 12 S 3.63165 -1.02966 1.6244 0
M  V30 13 C 3.80667 -0.853771 -0.197881 0
M  V30 14 C 2.39423 -0.360906 -0.541963 0
M  V30 15 H -4.38095 -1.38771 -0.744766 0
M  V30 16 H -5.0858 0.194413 -0.340349 0
M  V30 17 H -3.47695 2.15757 -0.632908 0
M  V30 18 H -1.18644 2.9712 -0.317134 0
M  V30 19 H -2.14221 -2.71875 -0.751008 0
M  V30 20 H -2.51704 -2.56714 0.981757 0
M  V30 21 H 1.137 2.52556 0.149651 0
M  V30 22 H 3.03391 1.3058 0.581193 0
M  V30 23 H 2.13732 0.481179 2.71627 0
M  V30 24 H 1.27667 -0.879411 1.81309 0
M  V30 25 H 4.52275 -0.0615519 -0.439559 0
M  V30 26 H 3.99809 -1.81858 -0.671465 0
M  V30 27 H 2.42135 0.185238 -1.50019 0
M  V30 28 H 1.67305 -1.17342 -0.499959 0
M  V30 END ATOM
M  V30 BEGIN BOND
M  V30 1 1 1 2
M  V30 2 2 2 3
M  V30 3 1 3 4
M  V30 4 2 4 5
M  V30 5 1 5 6
M  V30 6 2 6 7
M  V30 7 1 7 8
M  V30 8 1 5 9
M  V30 9 1 9 10
M  V30 10 1 10 11
M  V30 11 1 11 12
M  V30 12 1 12 13
M  V30 13 1 13 14
M  V30 14 1 7 2
M  V30 15 1 14 10
M  V30 16 1 1 15
M  V30 17 1 1 16
M  V30 18 1 3 17
M  V30 19 1 4 18
M  V30 20 1 8 19
M  V30 21 1 8 20
M  V30 22 1 9 21
M  V30 23 1 10 22
M  V30 24 1 11 23
M  V30 25 1 11 24
M  V30 26 1 13 25
M  V30 27 1 13 26
M  V30 28 1 14 27
M  V30 29 1 14 28
M  V30 END BOND
M  V30 END CTAB
M  END
