
     RDKit          3D

  0  0  0  0  0  0  0  0  0  0999 V3000
M  V30 BEGIN CTAB
M  V30 COUNTS 34 35 0 0 0
M  V30 BEGIN ATOM
M  V30 1 C 5.69725 -0.154595 -0.02835 0
M  V30 2 O 4.9834 0.822218 0.608291 0
M  V30 3 C 3.62334 0.799308 0.43187 0
M  V30 4 C 2.96757 -0.453411 0.907891 0
M  V30 5 O 1.60468 -0.430107 0.713382 0
M  V30 6 C 1.19712 -0.294287 -0.59181 0
M  V30 7 N -0.274933 -0.298957 -0.562206 0
M  V30 8 C -1.03865 -1.375 -0.659912 0
M  V30 9 C -2.35175 -0.967038 -0.590121 0
M  V30 10 C -3.54578 -1.80613 -0.654089 0
M  V30 11 N -4.14656 -2.21021 0.561606 0
M  V30 12 S -4.20181 -2.28704 -2.06043 0
M  V30 13 C -2.35365 0.402651 -0.445843 0
M  V30 14 C -1.03311 0.786493 -0.432413 0
M  V30 15 N -0.781265 2.11451 -0.297714 0
M  V30 16 C -1.76506 3.02399 -0.181831 0
M  V30 17 N -3.03707 2.61492 -0.198909 0
M  V30 18 C -3.39793 1.3137 -0.328558 0
M  V30 19 N -4.76142 0.914465 -0.342707 0
M  V30 20 H 5.42901 -1.17735 0.2756 0
M  V30 21 H 5.69897 -0.0574488 -1.13678 0
M  V30 22 H 6.77622 -0.0150237 0.267297 0
M  V30 23 H 3.43886 0.999205 -0.652712 0
M  V30 24 H 3.15939 1.64465 0.990209 0
M  V30 25 H 3.12048 -0.498396 2.02306 0
M  V30 26 H 3.44086 -1.38529 0.524726 0
M  V30 27 H 1.48494 0.658881 -1.07864 0
M  V30 28 H 1.50634 -1.14014 -1.24086 0
M  V30 29 H -0.710015 -2.40271 -0.774852 0
M  V30 30 H -5.09265 -1.88198 0.835898 0
M  V30 31 H -3.62321 -2.86106 1.20781 0
M  V30 32 H -1.48087 4.07101 -0.0773853 0
M  V30 33 H -5.21759 0.633103 -1.23484 0
M  V30 34 H -5.3151 0.897077 0.520539 0
M  V30 END ATOM
M  V30 BEGIN BOND
M  V30 1 1 1 2
M  V30 2 1 2 3
M  V30 3 1 3 4
M  V30 4 1 4 5
M  V30 5 1 5 6
M  V30 6 1 6 7
M  V30 7 1 7 8
M  V30 8 2 8 9
M  V30 9 1 9 10
M  V30 10 1 10 11
M  V30 11 2 10 12
M  V30 12 1 9 13
M  V30 13 2 13 14
M  V30 14 1 14 15
M  V30 15 2 15 16
M  V30 16 1 16 17
M  V30 17 2 17 18
M  V30 18 1 18 19
M  V30 19 1 14 7
M  V30 20 1 18 13
M  V30 21 1 1 20
M  V30 22 1 1 21
M  V30 23 1 1 22
M  V30 24 1 3 23
M  V30 25 1 3 24
M  V30 26 1 4 25
M  V30 27 1 4 26
M  V30 28 1 6 27
M  V30 29 1 6 28
M  V30 30 1 8 29
M  V30 31 1 11 30
M  V30 32 1 11 31
M  V30 33 1 16 32
M  V30 34 1 19 33
M  V30 35 1 19 34
M  V30 END BOND
M  V30 END CTAB
M  END
