
     RDKit          3D

  0  0  0  0  0  0  0  0  0  0999 V3000
M  V30 BEGIN CTAB
M  V30 COUNTS 41 42 0 0 0
M  V30 BEGIN ATOM
M  V30 1 N -0.68435 1.14918 -2.58158 0
M  V30 2 C -1.46755 0.26828 -1.74205 0
M  V30 3 C -0.568931 -0.559168 -0.939905 0
M  V30 4 O -1.12532 -1.51641 -0.296799 0
M  V30 5 N 0.811847 -0.409697 -0.809107 0
M  V30 6 C 1.56462 -1.35949 0.0549341 0
M  V30 7 C 2.22911 -0.531346 1.13351 0
M  V30 8 N 3.04475 0.525946 0.562345 0
M  V30 9 C 3.06856 0.442957 -0.889851 0
M  V30 10 C 1.64274 0.591389 -1.42624 0
M  V30 11 S 4.64667 0.333803 1.1615 0
M  V30 12 O 5.50527 1.41439 0.544788 0
M  V30 13 O 4.7053 0.4522 2.64006 0
M  V30 14 N 5.32931 -1.17757 0.690567 0
M  V30 15 C -2.35468 1.1826 -0.913154 0
M  V30 16 C -3.24803 0.521656 0.0224584 0
M  V30 17 C -4.50633 0.0795253 -0.35318 0
M  V30 18 C -5.36172 -0.529489 0.539538 0
M  V30 19 C -4.99832 -0.725996 1.85468 0
M  V30 20 C -3.74892 -0.291296 2.24368 0
M  V30 21 C -2.89521 0.320288 1.3387 0
M  V30 22 H -1.09303 1.17449 -3.52083 0
M  V30 23 H -0.734556 2.10764 -2.18854 0
M  V30 24 H -2.13836 -0.360641 -2.3983 0
M  V30 25 H 2.31077 -1.84712 -0.570063 0
M  V30 26 H 0.873313 -2.05855 0.534387 0
M  V30 27 H 1.43501 -0.0384962 1.73288 0
M  V30 28 H 2.79143 -1.19629 1.78625 0
M  V30 29 H 3.6096 1.34756 -1.24088 0
M  V30 30 H 3.58789 -0.429957 -1.2817 0
M  V30 31 H 1.73813 0.435817 -2.52964 0
M  V30 32 H 1.36757 1.63589 -1.1694 0
M  V30 33 H 6.36954 -1.12388 0.768907 0
M  V30 34 H 5.0118 -1.91407 1.34443 0
M  V30 35 H -2.90211 1.819 -1.66977 0
M  V30 36 H -1.65079 1.90768 -0.420287 0
M  V30 37 H -4.77843 0.241986 -1.39494 0
M  V30 38 H -6.33887 -0.868666 0.232345 0
M  V30 39 H -5.68049 -1.20934 2.55786 0
M  V30 40 H -3.44453 -0.438061 3.27887 0
M  V30 41 H -1.92271 0.63324 1.73604 0
M  V30 END ATOM
M  V30 BEGIN BOND
M  V30 1 1 1 2
M  V30 2 1 2 3
M  V30 3 2 3 4
M  V30 4 1 3 5
M  V30 5 1 5 6
M  V30 6 1 6 7
M  V30 7 1 7 8
M  V30 8 1 8 9
M  V30 9 1 9 10
M  V30 10 1 8 11
M  V30 11 2 11 12
M  V30 12 2 11 13
M  V30 13 1 11 14
M  V30 14 1 2 15
M  V30 15 1 15 16
M  V30 16 2 16 17
M  V30 17 1 17 18
M  V30 18 2 18 19
M  V30 19 1 19 20
M  V30 20 2 20 21
M  V30 21 1 10 5
M  V30 22 1 21 16
M  V30 23 1 1 22
M  V30 24 1 1 23
M  V30 25 1 2 24
M  V30 26 1 6 25
M  V30 27 1 6 26
M  V30 28 1 7 27
M  V30 29 1 7 28
M  V30 30 1 9 29
M  V30 31 1 9 30
M  V30 32 1 10 31
M  V30 33 1 10 32
M  V30 34 1 14 33
M  V30 35 1 14 34
M  V30 36 1 15 35
M  V30 37 1 15 36
M  V30 38 1 17 37
M  V30 39 1 18 38
M  V30 40 1 19 39
M  V30 41 1 20 40
M  V30 42 1 21 41
M  V30 END BOND
M  V30 END CTAB
M  END
