
     RDKit          3D

  0  0  0  0  0  0  0  0  0  0999 V3000
M  V30 BEGIN CTAB
M  V30 COUNTS 24 24 0 0 0
M  V30 BEGIN ATOM
M  V30 1 C -1.7419 -2.14804 -0.611059 0
M  V30 2 O -0.845076 -1.64705 0.341836 0
M  V30 3 C -0.513774 -0.309769 0.337037 0
M  V30 4 C -1.27467 0.564328 1.07958 0
M  V30 5 N -2.37152 0.07707 1.82601 0
M  V30 6 C -0.904418 1.89094 1.04309 0
M  V30 7 C 0.188021 2.32078 0.289379 0
M  V30 8 C 0.936119 1.4039 -0.451331 0
M  V30 9 C 0.560911 0.0863723 -0.409375 0
M  V30 10 O 1.27843 -0.838131 -1.12817 0
M  V30 11 C 2.39343 -1.50491 -0.542149 0
M  V30 12 N 2.05063 1.86633 -1.21582 0
M  V30 13 H -2.10544 -3.15708 -0.40015 0
M  V30 14 H -1.33467 -2.14968 -1.64327 0
M  V30 15 H -2.64603 -1.48843 -0.651135 0
M  V30 16 H -2.39722 -0.865612 2.27295 0
M  V30 17 H -3.23537 0.665817 1.96542 0
M  V30 18 H -1.47346 2.62317 1.61296 0
M  V30 19 H 0.40709 3.36739 0.316308 0
M  V30 20 H 2.80674 -0.790285 0.226923 0
M  V30 21 H 2.08364 -2.39634 0.0285554 0
M  V30 22 H 3.19839 -1.67375 -1.26195 0
M  V30 23 H 2.99749 1.42809 -1.17076 0
M  V30 24 H 1.94267 2.67487 -1.85487 0
M  V30 END ATOM
M  V30 BEGIN BOND
M  V30 1 1 1 2
M  V30 2 1 2 3
M  V30 3 2 3 4
M  V30 4 1 4 5
M  V30 5 1 4 6
M  V30 6 2 6 7
M  V30 7 1 7 8
M  V30 8 2 8 9
M  V30 9 1 9 10
M  V30 10 1 10 11
M  V30 11 1 8 12
M  V30 12 1 9 3
M  V30 13 1 1 13
M  V30 14 1 1 14
M  V30 15 1 1 15
M  V30 16 1 5 16
M  V30 17 1 5 17
M  V30 18 1 6 18
M  V30 19 1 7 19
M  V30 20 1 11 20
M  V30 21 1 11 21
M  V30 22 1 11 22
M  V30 23 1 12 23
M  V30 24 1 12 24
M  V30 END BOND
M  V30 END CTAB
M  END
