
     RDKit          3D

  0  0  0  0  0  0  0  0  0  0999 V3000
M  V30 BEGIN CTAB
M  V30 COUNTS 49 52 0 0 0
M  V30 BEGIN ATOM
M  V30 1 N 7.70505 0.0567111 2.55015 0
M  V30 2 C 7.02787 -0.175248 1.33277 0
M  V30 3 N 5.76537 0.254714 1.13634 0
M  V30 4 C 5.10881 0.0440073 -0.00990432 0
M  V30 5 C 3.72634 0.528359 -0.192354 0
M  V30 6 S 2.60627 -0.782014 0.35955 0
M  V30 7 C 0.886484 -0.270311 0.170019 0
M  V30 8 N 0.420729 0.885629 -0.299261 0
M  V30 9 N -0.919729 0.804187 -0.249567 0
M  V30 10 C -1.2995 -0.385363 0.24335 0
M  V30 11 N -0.129382 -1.0454 0.500628 0
M  V30 12 C -2.59172 -0.993887 0.494604 0
M  V30 13 C -3.13582 -1.59354 -0.793761 0
M  V30 14 C -4.1532 -2.63226 -0.355949 0
M  V30 15 C -4.57537 -2.52605 1.06268 0
M  V30 16 C -4.71281 -1.16381 1.63339 0
M  V30 17 C -3.66095 -0.180516 1.09766 0
M  V30 18 C -1.78196 1.83818 -0.654581 0
M  V30 19 C -2.21061 1.92045 -1.94136 0
M  V30 20 C -3.0618 2.95406 -2.36531 0
M  V30 21 C -3.46247 3.9006 -1.43829 0
M  V30 22 C -3.02644 3.81324 -0.13833 0
M  V30 23 C -2.18367 2.77524 0.245626 0
M  V30 24 N 5.71824 -0.614697 -0.999681 0
M  V30 25 C 6.99187 -1.0667 -0.845393 0
M  V30 26 N 7.62402 -0.833643 0.330794 0
M  V30 27 N 7.62297 -1.76327 -1.90506 0
M  V30 28 H 7.22801 -0.0785136 3.49031 0
M  V30 29 H 8.69884 0.370089 2.6118 0
M  V30 30 H 3.51278 0.767999 -1.25812 0
M  V30 31 H 3.55045 1.40777 0.460249 0
M  V30 32 H -2.4446 -1.89288 1.16981 0
M  V30 33 H -3.60819 -0.793399 -1.37181 0
M  V30 34 H -2.29616 -2.0353 -1.36847 0
M  V30 35 H -3.62815 -3.62583 -0.475958 0
M  V30 36 H -4.97916 -2.65719 -1.09056 0
M  V30 37 H -5.59888 -3.0064 1.12538 0
M  V30 38 H -3.93773 -3.15521 1.72324 0
M  V30 39 H -5.74318 -0.787921 1.48369 0
M  V30 40 H -4.60907 -1.26351 2.75478 0
M  V30 41 H -3.30046 0.386769 1.95712 0
M  V30 42 H -4.2296 0.430002 0.355329 0
M  V30 43 H -1.93686 1.21317 -2.72308 0
M  V30 44 H -3.39475 3.0083 -3.38851 0
M  V30 45 H -4.11184 4.70406 -1.72518 0
M  V30 46 H -3.32184 4.53791 0.610804 0
M  V30 47 H -1.8668 2.75188 1.2886 0
M  V30 48 H 8.24741 -1.24978 -2.57672 0
M  V30 49 H 7.47118 -2.7807 -2.02145 0
M  V30 END ATOM
M  V30 BEGIN BOND
M  V30 1 1 1 2
M  V30 2 2 2 3
M  V30 3 1 3 4
M  V30 4 1 4 5
M  V30 5 1 5 6
M  V30 6 1 6 7
M  V30 7 2 7 8
M  V30 8 1 8 9
M  V30 9 1 9 10
M  V30 10 2 10 11
M  V30 11 1 10 12
M  V30 12 1 12 13
M  V30 13 1 13 14
M  V30 14 1 14 15
M  V30 15 1 15 16
M  V30 16 1 16 17
M  V30 17 1 9 18
M  V30 18 2 18 19
M  V30 19 1 19 20
M  V30 20 2 20 21
M  V30 21 1 21 22
M  V30 22 2 22 23
M  V30 23 2 4 24
M  V30 24 1 24 25
M  V30 25 2 25 26
M  V30 26 1 25 27
M  V30 27 1 26 2
M  V30 28 1 11 7
M  V30 29 1 17 12
M  V30 30 1 23 18
M  V30 31 1 1 28
M  V30 32 1 1 29
M  V30 33 1 5 30
M  V30 34 1 5 31
M  V30 35 1 12 32
M  V30 36 1 13 33
M  V30 37 1 13 34
M  V30 38 1 14 35
M  V30 39 1 14 36
M  V30 40 1 15 37
M  V30 41 1 15 38
M  V30 42 1 16 39
M  V30 43 1 16 40
M  V30 44 1 17 41
M  V30 45 1 17 42
M  V30 46 1 19 43
M  V30 47 1 20 44
M  V30 48 1 21 45
M  V30 49 1 22 46
M  V30 50 1 23 47
M  V30 51 1 27 48
M  V30 52 1 27 49
M  V30 END BOND
M  V30 END CTAB
M  END
