
     RDKit          3D

  0  0  0  0  0  0  0  0  0  0999 V3000
M  V30 BEGIN CTAB
M  V30 COUNTS 35 37 0 0 0
M  V30 BEGIN ATOM
M  V30 1 N 4.74076 0.1031 0.745233 0
M  V30 2 C 3.48619 -0.500085 0.590885 0
M  V30 3 N 3.25881 -1.80899 0.371621 0
M  V30 4 N 1.93984 -1.98839 0.281882 0
M  V30 5 C 1.31738 -0.809459 0.441039 0
M  V30 6 C 2.26692 0.152716 0.63848 0
M  V30 7 C -0.175853 -0.66159 0.395469 0 CFG=1
M  V30 8 C -0.578318 0.743093 0.43962 0
M  V30 9 C -0.894993 1.42365 1.6185 0
M  V30 10 C -1.26592 2.75207 1.5694 0
M  V30 11 C -1.33299 3.4358 0.366644 0
M  V30 12 C -1.02122 2.77188 -0.81043 0
M  V30 13 C -0.654919 1.45354 -0.744457 0
M  V30 14 C -0.303655 0.673124 -1.98436 0
M  V30 15 C -0.920236 -0.683087 -1.89942 0
M  V30 16 N -0.646142 -1.40763 -0.713092 0
M  V30 17 S -1.82156 -2.58609 -0.322129 0
M  V30 18 O -1.23944 -3.55498 0.697767 0
M  V30 19 O -2.17392 -3.39755 -1.52647 0
M  V30 20 N -3.24956 -1.93144 0.351367 0
M  V30 21 H 5.35068 -0.202481 1.53261 0
M  V30 22 H 5.08597 0.843375 0.104566 0
M  V30 23 H 1.53781 -2.93566 0.112194 0
M  V30 24 H 2.07103 1.19827 0.796134 0
M  V30 25 H -0.534008 -1.14176 1.3526 0
M  V30 26 H -0.836317 0.873389 2.54182 0
M  V30 27 H -1.50537 3.2635 2.46934 0
M  V30 28 H -1.62001 4.47496 0.298444 0
M  V30 29 H -1.05072 3.23626 -1.77986 0
M  V30 30 H 0.780262 0.642641 -2.11767 0
M  V30 31 H -0.755112 1.20464 -2.85237 0
M  V30 32 H -2.01549 -0.574653 -2.11173 0
M  V30 33 H -0.530372 -1.28245 -2.77167 0
M  V30 34 H -3.68969 -2.66921 0.956765 0
M  V30 35 H -3.01985 -1.11049 0.961269 0
M  V30 END ATOM
M  V30 BEGIN BOND
M  V30 1 1 1 2
M  V30 2 2 2 3
M  V30 3 1 3 4
M  V30 4 1 4 5
M  V30 5 2 5 6
M  V30 6 1 5 7
M  V30 7 1 7 8
M  V30 8 2 8 9
M  V30 9 1 9 10
M  V30 10 2 10 11
M  V30 11 1 11 12
M  V30 12 2 12 13
M  V30 13 1 13 14
M  V30 14 1 14 15
M  V30 15 1 15 16
M  V30 16 1 16 17
M  V30 17 2 17 18
M  V30 18 2 17 19
M  V30 19 1 17 20
M  V30 20 1 6 2
M  V30 21 1 16 7
M  V30 22 1 13 8
M  V30 23 1 1 21
M  V30 24 1 1 22
M  V30 25 1 4 23
M  V30 26 1 6 24
M  V30 27 1 7 25 CFG=1
M  V30 28 1 9 26
M  V30 29 1 10 27
M  V30 30 1 11 28
M  V30 31 1 12 29
M  V30 32 1 14 30
M  V30 33 1 14 31
M  V30 34 1 15 32
M  V30 35 1 15 33
M  V30 36 1 20 34
M  V30 37 1 20 35
M  V30 END BOND
M  V30 END CTAB
M  END
