
     RDKit          3D

  0  0  0  0  0  0  0  0  0  0999 V3000
M  V30 BEGIN CTAB
M  V30 COUNTS 36 38 0 0 0
M  V30 BEGIN ATOM
M  V30 1 N 4.1115 0.325877 0.0596949 0
M  V30 2 C 2.70492 0.673577 0.133169 0
M  V30 3 C 1.83276 -0.540036 -0.132667 0
M  V30 4 N 2.1456 -1.01338 -1.4422 0
M  V30 5 C 0.382984 -0.220318 0.0211371 0
M  V30 6 C -0.00117946 0.855593 -0.947679 0
M  V30 7 C -1.48608 1.13107 -0.848135 0
M  V30 8 C -1.76314 1.59585 0.557576 0
M  V30 9 C -1.4592 0.466929 1.50093 0
M  V30 10 C -2.24891 -0.779458 1.18557 0
M  V30 11 C -1.88447 -1.21426 -0.205268 0
M  V30 12 C -2.30496 -0.0879924 -1.14603 0
M  V30 13 C -0.414241 -1.46926 -0.371039 0
M  V30 14 C 0.00865417 0.0983127 1.4396 0
M  V30 15 H 4.29881 -0.672712 0.257004 0
M  V30 16 H 4.60605 0.949285 0.736981 0
M  V30 17 H 2.53082 1.48244 -0.573317 0
M  V30 18 H 2.47786 1.00425 1.16644 0
M  V30 19 H 2.08315 -1.34574 0.58805 0
M  V30 20 H 1.77649 -1.92894 -1.69233 0
M  V30 21 H 2.18688 -0.302995 -2.17663 0
M  V30 22 H 0.531558 1.80902 -0.803282 0
M  V30 23 H 0.160735 0.432682 -1.97866 0
M  V30 24 H -1.76565 1.91009 -1.58314 0
M  V30 25 H -2.78417 1.96494 0.708995 0
M  V30 26 H -1.01852 2.4057 0.776861 0
M  V30 27 H -1.67015 0.803788 2.5387 0
M  V30 28 H -2.016 -1.53684 1.95212 0
M  V30 29 H -3.32923 -0.4954 1.16429 0
M  V30 30 H -2.43361 -2.13952 -0.42827 0
M  V30 31 H -2.26847 -0.396893 -2.19925 0
M  V30 32 H -3.36568 0.153389 -0.902783 0
M  V30 33 H -0.233767 -1.6509 -1.46092 0
M  V30 34 H -0.0846098 -2.35959 0.171485 0
M  V30 35 H 0.570989 0.920866 1.88683 0
M  V30 36 H 0.122269 -0.829393 2.04617 0
M  V30 END ATOM
M  V30 BEGIN BOND
M  V30 1 1 1 2
M  V30 2 1 2 3
M  V30 3 1 3 4
M  V30 4 1 3 5
M  V30 5 1 5 6
M  V30 6 1 6 7
M  V30 7 1 7 8
M  V30 8 1 8 9
M  V30 9 1 9 10
M  V30 10 1 10 11
M  V30 11 1 11 12
M  V30 12 1 11 13
M  V30 13 1 9 14
M  V30 14 1 13 5
M  V30 15 1 14 5
M  V30 16 1 12 7
M  V30 17 1 1 15
M  V30 18 1 1 16
M  V30 19 1 2 17
M  V30 20 1 2 18
M  V30 21 1 3 19
M  V30 22 1 4 20
M  V30 23 1 4 21
M  V30 24 1 6 22
M  V30 25 1 6 23
M  V30 26 1 7 24
M  V30 27 1 8 25
M  V30 28 1 8 26
M  V30 29 1 9 27
M  V30 30 1 10 28
M  V30 31 1 10 29
M  V30 32 1 11 30
M  V30 33 1 12 31
M  V30 34 1 12 32
M  V30 35 1 13 33
M  V30 36 1 13 34
M  V30 37 1 14 35
M  V30 38 1 14 36
M  V30 END BOND
M  V30 END CTAB
M  END
