
     RDKit          3D

  0  0  0  0  0  0  0  0  0  0999 V3000
M  V30 BEGIN CTAB
M  V30 COUNTS 28 30 0 0 0
M  V30 BEGIN ATOM
M  V30 1 N 4.46315 1.5867 -0.172483 0
M  V30 2 C 3.31596 0.734407 -0.285403 0
M  V30 3 C 2.03163 1.22523 -0.176862 0
M  V30 4 C 0.928894 0.386955 -0.288475 0
M  V30 5 C 1.07382 -0.965386 -0.511591 0
M  V30 6 C 2.36516 -1.46234 -0.621286 0
M  V30 7 C 3.44993 -0.61936 -0.508506 0
M  V30 8 C -0.0275955 -1.79783 -0.622278 0
M  V30 9 O 0.127701 -3.02662 -0.82554 0
M  V30 10 C -1.27739 -1.22974 -0.501939 0
M  V30 11 C -2.43403 -2.00016 -0.6013 0
M  V30 12 C -3.69579 -1.45563 -0.484513 0
M  V30 13 C -3.83113 -0.101304 -0.261293 0
M  V30 14 C -2.70726 0.691573 -0.157547 0
M  V30 15 N -2.78788 2.09487 0.0724145 0
M  V30 16 C -1.43624 0.121025 -0.278769 0
M  V30 17 N -0.333253 0.880168 -0.180033 0
M  V30 18 H 4.97259 1.96905 -0.981021 0
M  V30 19 H 4.79182 1.82674 0.778796 0
M  V30 20 H 1.85856 2.29126 0.000325024 0
M  V30 21 H 2.49123 -2.54105 -0.799488 0
M  V30 22 H 4.43811 -1.02883 -0.597202 0
M  V30 23 H -2.28856 -3.05533 -0.776114 0
M  V30 24 H -4.59076 -2.07262 -0.564785 0
M  V30 25 H -4.78898 0.390666 -0.15986 0
M  V30 26 H -2.21391 2.80257 -0.400697 0
M  V30 27 H -3.48729 2.4496 0.781354 0
M  V30 28 H -0.408477 1.90539 -0.0116595 0
M  V30 END ATOM
M  V30 BEGIN BOND
M  V30 1 1 1 2
M  V30 2 2 2 3
M  V30 3 1 3 4
M  V30 4 2 4 5
M  V30 5 1 5 6
M  V30 6 2 6 7
M  V30 7 1 5 8
M  V30 8 2 8 9
M  V30 9 1 8 10
M  V30 10 2 10 11
M  V30 11 1 11 12
M  V30 12 2 12 13
M  V30 13 1 13 14
M  V30 14 1 14 15
M  V30 15 2 14 16
M  V30 16 1 16 17
M  V30 17 1 7 2
M  V30 18 1 16 10
M  V30 19 1 17 4
M  V30 20 1 1 18
M  V30 21 1 1 19
M  V30 22 1 3 20
M  V30 23 1 6 21
M  V30 24 1 7 22
M  V30 25 1 11 23
M  V30 26 1 12 24
M  V30 27 1 13 25
M  V30 28 1 15 26
M  V30 29 1 15 27
M  V30 30 1 17 28
M  V30 END BOND
M  V30 END CTAB
M  END
