
     RDKit          3D

  0  0  0  0  0  0  0  0  0  0999 V3000
M  V30 BEGIN CTAB
M  V30 COUNTS 23 24 0 0 0
M  V30 BEGIN ATOM
M  V30 1 N 1.46488 -1.72012 0.408324 0
M  V30 2 C 1.33673 -0.334966 0.157561 0
M  V30 3 N 2.3883 0.471629 -0.128056 0
M  V30 4 N 3.73535 0.12845 -0.225865 0
M  V30 5 C 1.84491 1.69916 -0.290079 0
M  V30 6 N 0.509036 1.64805 -0.109383 0
M  V30 7 C 0.15846 0.388091 0.17134 0
M  V30 8 C -1.18084 -0.214598 0.445858 0
M  V30 9 C -2.28162 0.770066 0.702231 0
M  V30 10 C -3.18165 -0.0664467 -0.196054 0
M  V30 11 C -1.90755 -0.579795 -0.867463 0
M  V30 12 H 1.61294 -2.06478 1.36934 0
M  V30 13 H 1.40567 -2.38396 -0.380042 0
M  V30 14 H 4.32981 0.466276 -1.00564 0
M  V30 15 H 4.17816 -0.478735 0.489606 0
M  V30 16 H 2.46498 2.56867 -0.539113 0
M  V30 17 H -1.10861 -1.02942 1.16599 0
M  V30 18 H -2.11312 1.77731 0.307943 0
M  V30 19 H -2.61455 0.76738 1.7763 0
M  V30 20 H -3.74705 -0.850844 0.358307 0
M  V30 21 H -3.83153 0.552965 -0.850782 0
M  V30 22 H -1.90668 -1.64246 -1.11217 0
M  V30 23 H -1.55604 0.128081 -1.64814 0
M  V30 END ATOM
M  V30 BEGIN BOND
M  V30 1 1 1 2
M  V30 2 1 2 3
M  V30 3 1 3 4
M  V30 4 1 3 5
M  V30 5 2 5 6
M  V30 6 1 6 7
M  V30 7 1 7 8
M  V30 8 1 8 9
M  V30 9 1 9 10
M  V30 10 1 10 11
M  V30 11 2 7 2
M  V30 12 1 11 8
M  V30 13 1 1 12
M  V30 14 1 1 13
M  V30 15 1 4 14
M  V30 16 1 4 15
M  V30 17 1 5 16
M  V30 18 1 8 17
M  V30 19 1 9 18
M  V30 20 1 9 19
M  V30 21 1 10 20
M  V30 22 1 10 21
M  V30 23 1 11 22
M  V30 24 1 11 23
M  V30 END BOND
M  V30 END CTAB
M  END
