
     RDKit          3D

  0  0  0  0  0  0  0  0  0  0999 V3000
M  V30 BEGIN CTAB
M  V30 COUNTS 21 22 0 0 0
M  V30 BEGIN ATOM
M  V30 1 F -4.689 -0.478222 -0.246158 0
M  V30 2 C -3.33115 -0.337448 -0.280866 0
M  V30 3 C -2.71826 -0.239321 -1.51282 0
M  V30 4 C -1.33852 -0.0941913 -1.62121 0
M  V30 5 C -0.546415 -0.0446471 -0.495519 0
M  V30 6 C -1.16425 -0.143133 0.731157 0
M  V30 7 C -2.55173 -0.288836 0.831644 0
M  V30 8 N -0.344089 -0.0915689 1.88868 0
M  V30 9 C 0.902229 0.106571 -0.568538 0
M  V30 10 O 1.60891 0.210853 -1.67708 0
M  V30 11 N 2.87231 0.332986 -1.39782 0
M  V30 12 C 3.05113 0.312877 -0.0433121 0
M  V30 13 N 1.79258 0.169665 0.436092 0
M  V30 14 N 4.26538 0.417727 0.667087 0
M  V30 15 H -3.29339 -0.272634 -2.42341 0
M  V30 16 H -0.836992 -0.0153254 -2.57926 0
M  V30 17 H -3.02981 -0.365612 1.80059 0
M  V30 18 H -0.01434 0.845829 2.21007 0
M  V30 19 H -0.0571125 -0.9355 2.42911 0
M  V30 20 H 5.1181 -0.0204293 0.291782 0
M  V30 21 H 4.30443 0.930361 1.55979 0
M  V30 END ATOM
M  V30 BEGIN BOND
M  V30 1 1 1 2
M  V30 2 2 2 3
M  V30 3 1 3 4
M  V30 4 2 4 5
M  V30 5 1 5 6
M  V30 6 2 6 7
M  V30 7 1 6 8
M  V30 8 1 5 9
M  V30 9 1 9 10
M  V30 10 1 10 11
M  V30 11 2 11 12
M  V30 12 1 12 13
M  V30 13 1 12 14
M  V30 14 1 7 2
M  V30 15 2 13 9
M  V30 16 1 3 15
M  V30 17 1 4 16
M  V30 18 1 7 17
M  V30 19 1 8 18
M  V30 20 1 8 19
M  V30 21 1 14 20
M  V30 22 1 14 21
M  V30 END BOND
M  V30 END CTAB
M  END
