
     RDKit          3D

  0  0  0  0  0  0  0  0  0  0999 V3000
M  V30 BEGIN CTAB
M  V30 COUNTS 79 82 0 0 0
M  V30 BEGIN ATOM
M  V30 1 N -8.41172 1.85922 1.2266 0
M  V30 2 C -8.71587 1.40747 -0.0822125 0
M  V30 3 C -7.83542 1.85465 -1.19082 0
M  V30 4 C -6.38897 1.4509 -1.06451 0
M  V30 5 C -5.7863 2.0269 0.144027 0
M  V30 6 C -4.28253 2.31929 0.0639998 0
M  V30 7 N -3.72946 1.97044 -1.16717 0
M  V30 8 C -4.5358 2.63485 -2.3016 0
M  V30 9 C -5.74118 1.77543 -2.38455 0
M  V30 10 C -2.7029 1.19176 -1.56772 0
M  V30 11 O -2.4267 1.10034 -2.82401 0
M  V30 12 C -1.73987 0.347878 -0.759566 0 CFG=2
M  V30 13 C -1.82317 0.457761 0.681446 0
M  V30 14 C -0.879086 -0.417952 1.41671 0
M  V30 15 C -1.27435 -1.80543 1.42593 0
M  V30 16 C -0.462861 -2.62675 2.16709 0
M  V30 17 C 0.680597 -2.19877 2.88284 0
M  V30 18 C 0.969646 -0.880763 2.81506 0
M  V30 19 C 0.199235 0.00143885 2.0886 0
M  V30 20 C 2.1449 -0.310185 3.50084 0
M  V30 21 N 2.35505 1.0753 3.68296 0
M  V30 22 N 2.99871 -1.12458 4.0103 0
M  V30 23 N -0.450049 0.58505 -1.33591 0
M  V30 24 S 0.301374 -0.676728 -2.17038 0
M  V30 25 O -0.47411 -1.96233 -2.12372 0
M  V30 26 O 0.552406 -0.27736 -3.61933 0
M  V30 27 C 1.88013 -1.01279 -1.45593 0
M  V30 28 C 2.87281 -0.107647 -1.83257 0
M  V30 29 C 4.13824 -0.328557 -1.33864 0
M  V30 30 C 4.43135 -1.41011 -0.494063 0
M  V30 31 C 3.42671 -2.24333 -0.171941 0
M  V30 32 C 2.12937 -2.06885 -0.64187 0
M  V30 33 C 5.82432 -1.5333 -0.059232 0
M  V30 34 C 6.56607 -2.35488 -1.12589 0
M  V30 35 C 8.04846 -2.19602 -0.980203 0
M  V30 36 C 8.49993 -1.69015 0.355996 0
M  V30 37 C 7.82141 -0.416792 0.794549 0
M  V30 38 C 6.54253 -0.202082 -0.00539052 0
M  V30 39 H -8.5049 2.86409 1.40955 0
M  V30 40 H -8.82672 1.25843 1.954 0
M  V30 41 H -9.75479 1.77682 -0.341761 0
M  V30 42 H -8.8075 0.281216 -0.0591704 0
M  V30 43 H -7.82432 2.98203 -1.21256 0
M  V30 44 H -8.22804 1.55783 -2.19599 0
M  V30 45 H -6.42082 0.314097 -0.949635 0
M  V30 46 H -6.32911 2.97222 0.451413 0
M  V30 47 H -5.90927 1.32811 0.997566 0
M  V30 48 H -3.79012 2.14264 1.00502 0
M  V30 49 H -4.3011 3.49442 0.0443026 0
M  V30 50 H -3.92185 2.53747 -3.19745 0
M  V30 51 H -4.7669 3.64948 -2.01376 0
M  V30 52 H -6.44437 2.21514 -3.11985 0
M  V30 53 H -5.4059 0.805871 -2.8631 0
M  V30 54 H -2.01559 -0.705002 -1.05259 0
M  V30 55 H -2.87382 0.188391 1.05072 0
M  V30 56 H -1.61923 1.49145 1.0598 0
M  V30 57 H -2.12289 -2.11659 0.86999 0
M  V30 58 H -0.72667 -3.66377 2.22138 0
M  V30 59 H 1.23969 -2.9112 3.42639 0
M  V30 60 H 0.478303 1.05543 2.0679 0
M  V30 61 H 1.74928 1.58044 4.3551 0
M  V30 62 H 3.09713 1.55833 3.15949 0
M  V30 63 H 3.04412 -2.12622 4.04481 0
M  V30 64 H -0.482823 1.47585 -1.93646 0
M  V30 65 H 2.63057 0.702987 -2.48071 0
M  V30 66 H 4.91611 0.362677 -1.62188 0
M  V30 67 H 3.62435 -3.08726 0.489001 0
M  V30 68 H 1.35506 -2.75786 -0.373182 0
M  V30 69 H 5.98885 -2.06388 0.881594 0
M  V30 70 H 6.19996 -3.38867 -1.0646 0
M  V30 71 H 6.27017 -1.96852 -2.12176 0
M  V30 72 H 8.52361 -3.17739 -1.1306 0
M  V30 73 H 8.44646 -1.49808 -1.76747 0
M  V30 74 H 8.39602 -2.47963 1.13913 0
M  V30 75 H 9.58547 -1.4905 0.275127 0
M  V30 76 H 7.5144 -0.534139 1.85998 0
M  V30 77 H 8.46174 0.478892 0.745242 0
M  V30 78 H 6.84953 0.0803002 -1.05098 0
M  V30 79 H 5.98305 0.600783 0.486295 0
M  V30 END ATOM
M  V30 BEGIN BOND
M  V30 1 1 1 2
M  V30 2 1 2 3
M  V30 3 1 3 4
M  V30 4 1 4 5
M  V30 5 1 5 6
M  V30 6 1 6 7
M  V30 7 1 7 8
M  V30 8 1 8 9
M  V30 9 1 7 10
M  V30 10 2 10 11
M  V30 11 1 10 12
M  V30 12 1 12 13
M  V30 13 1 13 14
M  V30 14 2 14 15
M  V30 15 1 15 16
M  V30 16 2 16 17
M  V30 17 1 17 18
M  V30 18 2 18 19
M  V30 19 1 18 20
M  V30 20 1 20 21
M  V30 21 2 20 22 CFG=2
M  V30 22 1 12 23
M  V30 23 1 23 24
M  V30 24 2 24 25
M  V30 25 2 24 26
M  V30 26 1 24 27
M  V30 27 2 27 28
M  V30 28 1 28 29
M  V30 29 2 29 30
M  V30 30 1 30 31
M  V30 31 2 31 32
M  V30 32 1 30 33
M  V30 33 1 33 34
M  V30 34 1 34 35
M  V30 35 1 35 36
M  V30 36 1 36 37
M  V30 37 1 37 38
M  V30 38 1 9 4
M  V30 39 1 19 14
M  V30 40 1 32 27
M  V30 41 1 38 33
M  V30 42 1 1 39
M  V30 43 1 1 40
M  V30 44 1 2 41
M  V30 45 1 2 42
M  V30 46 1 3 43
M  V30 47 1 3 44
M  V30 48 1 4 45
M  V30 49 1 5 46
M  V30 50 1 5 47
M  V30 51 1 6 48
M  V30 52 1 6 49
M  V30 53 1 8 50
M  V30 54 1 8 51
M  V30 55 1 9 52
M  V30 56 1 9 53
M  V30 57 1 12 54 CFG=1
M  V30 58 1 13 55
M  V30 59 1 13 56
M  V30 60 1 15 57
M  V30 61 1 16 58
M  V30 62 1 17 59
M  V30 63 1 19 60
M  V30 64 1 21 61
M  V30 65 1 21 62
M  V30 66 1 22 63
M  V30 67 1 23 64
M  V30 68 1 28 65
M  V30 69 1 29 66
M  V30 70 1 31 67
M  V30 71 1 32 68
M  V30 72 1 33 69
M  V30 73 1 34 70
M  V30 74 1 34 71
M  V30 75 1 35 72
M  V30 76 1 35 73
M  V30 77 1 36 74
M  V30 78 1 36 75
M  V30 79 1 37 76
M  V30 80 1 37 77
M  V30 81 1 38 78
M  V30 82 1 38 79
M  V30 END BOND
M  V30 END CTAB
M  END
