
     RDKit          3D

  0  0  0  0  0  0  0  0  0  0999 V3000
M  V30 BEGIN CTAB
M  V30 COUNTS 17 17 0 0 0
M  V30 BEGIN ATOM
M  V30 1 O -0.321728 2.91969 -0.7441 0
M  V30 2 C -0.156032 1.56758 -0.422616 0
M  V30 3 C -1.23349 0.716029 -0.297901 0
M  V30 4 C -1.06489 -0.622376 0.0206209 0
M  V30 5 N -2.17441 -1.47375 0.143181 0
M  V30 6 C 0.189912 -1.15461 0.225429 0
M  V30 7 C 1.27042 -0.308236 0.102104 0
M  V30 8 C 1.09599 1.02708 -0.216092 0
M  V30 9 N 2.58658 -0.833014 0.309235 0
M  V30 10 F 0.362953 -2.46637 0.538094 0
M  V30 11 H -1.20339 3.34437 -0.899654 0
M  V30 12 H -2.22118 1.14576 -0.461618 0
M  V30 13 H -3.00419 -1.13524 0.678028 0
M  V30 14 H -2.22877 -2.43094 -0.266849 0
M  V30 15 H 1.9509 1.7124 -0.317256 0
M  V30 16 H 3.42197 -0.21503 0.127163 0
M  V30 17 H 2.72935 -1.79334 0.629526 0
M  V30 END ATOM
M  V30 BEGIN BOND
M  V30 1 1 1 2
M  V30 2 2 2 3
M  V30 3 1 3 4
M  V30 4 1 4 5
M  V30 5 2 4 6
M  V30 6 1 6 7
M  V30 7 2 7 8
M  V30 8 1 7 9
M  V30 9 1 6 10
M  V30 10 1 8 2
M  V30 11 1 1 11
M  V30 12 1 3 12
M  V30 13 1 5 13
M  V30 14 1 5 14
M  V30 15 1 8 15
M  V30 16 1 9 16
M  V30 17 1 9 17
M  V30 END BOND
M  V30 END CTAB
M  END
