
     RDKit          3D

  0  0  0  0  0  0  0  0  0  0999 V3000
M  V30 BEGIN CTAB
M  V30 COUNTS 22 22 0 0 0
M  V30 BEGIN ATOM
M  V30 1 N 0.430007 2.41571 -0.293004 0
M  V30 2 C -0.65907 1.64667 -0.00194302 0
M  V30 3 C -0.741034 0.219376 0.00826976 0
M  V30 4 C -2.02935 -0.270351 0.337828 0
M  V30 5 F -3.05689 0.572091 0.633202 0
M  V30 6 C -2.32175 -1.60803 0.380404 0
M  V30 7 C -1.32851 -2.51372 0.0926235 0
M  V30 8 C -0.0880568 -2.03128 -0.223634 0
M  V30 9 C 0.238431 -0.661708 -0.273674 0
M  V30 10 S 1.82447 -0.128381 -0.632827 0
M  V30 11 O 1.99511 0.535714 -1.96791 0
M  V30 12 O 2.66921 -1.40164 -0.822628 0
M  V30 13 N 2.65487 0.661862 0.65139 0
M  V30 14 H 0.772698 3.11018 0.420721 0
M  V30 15 H 0.349236 2.97058 -1.19327 0
M  V30 16 H -1.01666 1.98397 1.03487 0
M  V30 17 H -1.53723 2.02473 -0.633604 0
M  V30 18 H -3.29735 -1.99986 0.629345 0
M  V30 19 H -1.48261 -3.59648 0.104557 0
M  V30 20 H 0.719723 -2.74029 -0.457287 0
M  V30 21 H 3.66311 0.499774 0.666337 0
M  V30 22 H 2.24166 0.311095 1.54024 0
M  V30 END ATOM
M  V30 BEGIN BOND
M  V30 1 1 1 2
M  V30 2 1 2 3
M  V30 3 2 3 4
M  V30 4 1 4 5
M  V30 5 1 4 6
M  V30 6 2 6 7
M  V30 7 1 7 8
M  V30 8 2 8 9
M  V30 9 1 9 10
M  V30 10 2 10 11
M  V30 11 2 10 12
M  V30 12 1 10 13
M  V30 13 1 9 3
M  V30 14 1 1 14
M  V30 15 1 1 15
M  V30 16 1 2 16
M  V30 17 1 2 17
M  V30 18 1 6 18
M  V30 19 1 7 19
M  V30 20 1 8 20
M  V30 21 1 13 21
M  V30 22 1 13 22
M  V30 END BOND
M  V30 END CTAB
M  END
