
     RDKit          3D

  0  0  0  0  0  0  0  0  0  0999 V3000
M  V30 BEGIN CTAB
M  V30 COUNTS 34 36 0 0 0
M  V30 BEGIN ATOM
M  V30 1 N 2.35585 2.73769 0.64586 0
M  V30 2 C 2.64487 1.35883 0.366442 0
M  V30 3 C 3.61734 1.02827 -0.560986 0
M  V30 4 C 3.90611 -0.296559 -0.839922 0
M  V30 5 N 4.90653 -0.612266 -1.79407 0
M  V30 6 N 3.20183 -1.23264 -0.171616 0
M  V30 7 C 2.25471 -0.948962 0.731543 0
M  V30 8 N 2.00181 0.365191 0.976232 0
M  V30 9 S 1.35667 -2.22014 1.5917 0
M  V30 10 C -0.128543 -2.75935 0.757643 0
M  V30 11 C -1.17644 -1.70272 0.672564 0
M  V30 12 N -2.1105 -1.39963 1.59845 0
M  V30 13 C -2.88336 -0.397579 1.15172 0
M  V30 14 C -2.43992 -0.0379964 -0.101051 0
M  V30 15 N -1.38779 -0.87913 -0.337986 0
M  V30 16 C -0.64814 -0.815047 -1.59433 0
M  V30 17 F -0.246086 0.480883 -1.78903 0
M  V30 18 F -1.52372 -1.14586 -2.63071 0
M  V30 19 C -3.02718 0.970487 -0.839206 0
M  V30 20 C -4.10359 1.65721 -0.316581 0
M  V30 21 C -4.56772 1.31567 0.938314 0
M  V30 22 C -3.9676 0.304379 1.66165 0
M  V30 23 H 1.93537 3.02493 1.55517 0
M  V30 24 H 2.55618 3.49143 -0.0478647 0
M  V30 25 H 4.13359 1.83321 -1.05042 0
M  V30 26 H 4.82963 -1.45802 -2.41952 0
M  V30 27 H 5.75179 0.00295931 -1.89183 0
M  V30 28 H -0.605846 -3.62493 1.25532 0
M  V30 29 H 0.171971 -3.0965 -0.276743 0
M  V30 30 H 0.196057 -1.51401 -1.54914 0
M  V30 31 H -2.662 1.23637 -1.82191 0
M  V30 32 H -4.58597 2.45323 -0.870895 0
M  V30 33 H -5.4242 1.84416 1.38318 0
M  V30 34 H -4.33168 0.0364348 2.64606 0
M  V30 END ATOM
M  V30 BEGIN BOND
M  V30 1 1 1 2
M  V30 2 2 2 3
M  V30 3 1 3 4
M  V30 4 1 4 5
M  V30 5 2 4 6
M  V30 6 1 6 7
M  V30 7 2 7 8
M  V30 8 1 7 9
M  V30 9 1 9 10
M  V30 10 1 10 11
M  V30 11 2 11 12
M  V30 12 1 12 13
M  V30 13 2 13 14
M  V30 14 1 14 15
M  V30 15 1 15 16
M  V30 16 1 16 17
M  V30 17 1 16 18
M  V30 18 1 14 19
M  V30 19 2 19 20
M  V30 20 1 20 21
M  V30 21 2 21 22
M  V30 22 1 8 2
M  V30 23 1 15 11
M  V30 24 1 22 13
M  V30 25 1 1 23
M  V30 26 1 1 24
M  V30 27 1 3 25
M  V30 28 1 5 26
M  V30 29 1 5 27
M  V30 30 1 10 28
M  V30 31 1 10 29
M  V30 32 1 16 30
M  V30 33 1 19 31
M  V30 34 1 20 32
M  V30 35 1 21 33
M  V30 36 1 22 34
M  V30 END BOND
M  V30 END CTAB
M  END
