
     RDKit          3D

  0  0  0  0  0  0  0  0  0  0999 V3000
M  V30 BEGIN CTAB
M  V30 COUNTS 34 33 0 0 0
M  V30 BEGIN ATOM
M  V30 1 C 5.75733 1.79663 -0.213296 0
M  V30 2 O 4.77488 0.778634 -0.232742 0
M  V30 3 C 3.41905 1.12327 -0.279791 0
M  V30 4 O 3.13768 2.34658 -0.302841 0
M  V30 5 C 2.35182 0.0924603 -0.301818 0 CFG=1
M  V30 6 N 2.95158 -1.22753 -0.267107 0
M  V30 7 C 1.4071 0.269086 0.882642 0
M  V30 8 C 0.338611 -0.730408 0.896417 0
M  V30 9 C -0.967348 -0.447828 0.840239 0
M  V30 10 C -2.02438 -1.49237 0.856567 0
M  V30 11 C -2.88083 -1.45377 -0.387664 0 CFG=2
M  V30 12 N -2.105 -1.66479 -1.5745 0
M  V30 13 C -3.66119 -0.201467 -0.464189 0
M  V30 14 O -3.5629 0.497434 -1.5011 0
M  V30 15 O -4.48779 0.221947 0.558077 0
M  V30 16 C -5.19541 1.44046 0.387391 0
M  V30 17 H 6.28446 1.7588 0.746223 0
M  V30 18 H 6.47375 1.54505 -1.03697 0
M  V30 19 H 5.29939 2.78818 -0.393659 0
M  V30 20 H 1.76533 0.189985 -1.23591 0
M  V30 21 H 3.4589 -1.3407 0.645762 0
M  V30 22 H 2.22789 -1.95996 -0.328053 0
M  V30 23 H 2.01812 0.124074 1.81202 0
M  V30 24 H 1.07696 1.30402 0.883448 0
M  V30 25 H 0.585369 -1.78424 0.955647 0
M  V30 26 H -1.2395 0.592948 0.780863 0
M  V30 27 H -1.62386 -2.49486 0.981021 0
M  V30 28 H -2.68311 -1.25754 1.72599 0
M  V30 29 H -3.58599 -2.32257 -0.300736 0
M  V30 30 H -2.02063 -2.6823 -1.78542 0
M  V30 31 H -1.1724 -1.19413 -1.52952 0
M  V30 32 H -4.6623 2.23517 0.950035 0
M  V30 33 H -6.22828 1.40014 0.738022 0
M  V30 34 H -5.2273 1.74961 -0.694637 0
M  V30 END ATOM
M  V30 BEGIN BOND
M  V30 1 1 1 2
M  V30 2 1 2 3
M  V30 3 2 3 4
M  V30 4 1 3 5
M  V30 5 1 5 6
M  V30 6 1 5 7
M  V30 7 1 7 8
M  V30 8 2 8 9
M  V30 9 1 9 10
M  V30 10 1 10 11
M  V30 11 1 11 12
M  V30 12 1 11 13
M  V30 13 2 13 14
M  V30 14 1 13 15
M  V30 15 1 15 16
M  V30 16 1 1 17
M  V30 17 1 1 18
M  V30 18 1 1 19
M  V30 19 1 5 20 CFG=3
M  V30 20 1 6 21
M  V30 21 1 6 22
M  V30 22 1 7 23
M  V30 23 1 7 24
M  V30 24 1 8 25
M  V30 25 1 9 26
M  V30 26 1 10 27
M  V30 27 1 10 28
M  V30 28 1 11 29 CFG=1
M  V30 29 1 12 30
M  V30 30 1 12 31
M  V30 31 1 16 32
M  V30 32 1 16 33
M  V30 33 1 16 34
M  V30 END BOND
M  V30 END CTAB
M  END
