
     RDKit          3D

  0  0  0  0  0  0  0  0  0  0999 V3000
M  V30 BEGIN CTAB
M  V30 COUNTS 30 30 0 0 0
M  V30 BEGIN ATOM
M  V30 1 N 4.40687 -0.261719 0.651624 0
M  V30 2 C 2.98812 -0.396934 0.68438 0
M  V30 3 C 2.38421 -1.40588 1.41454 0
M  V30 4 C 1.01413 -1.52569 1.43805 0
M  V30 5 C 0.181476 -0.659506 0.745444 0
M  V30 6 C 0.800528 0.326589 0.0332804 0
M  V30 7 C 2.18284 0.473787 -0.0102787 0
M  V30 8 N 2.80851 1.50753 -0.758015 0
M  V30 9 N -1.22607 -0.805071 0.788609 0
M  V30 10 C -2.17885 0.00631545 0.10326 0
M  V30 11 C -1.9863 -0.0632821 -1.41342 0
M  V30 12 C -3.59754 -0.484208 0.413086 0
M  V30 13 C -2.13276 1.44895 0.568333 0
M  V30 14 H 4.93467 -0.564539 1.49572 0
M  V30 15 H 4.94501 0.115864 -0.151991 0
M  V30 16 H 3.02354 -2.08915 1.96001 0
M  V30 17 H 0.55872 -2.33554 2.02557 0
M  V30 18 H 0.255806 1.0536 -0.539221 0
M  V30 19 H 3.51513 2.09859 -0.243331 0
M  V30 20 H 2.59852 1.69122 -1.75825 0
M  V30 21 H -1.59586 -1.59941 1.39386 0
M  V30 22 H -1.82817 0.943231 -1.84613 0
M  V30 23 H -1.09657 -0.719547 -1.59606 0
M  V30 24 H -2.83733 -0.556285 -1.88074 0
M  V30 25 H -3.63746 -1.58305 0.497342 0
M  V30 26 H -4.27285 -0.099654 -0.378873 0
M  V30 27 H -3.91028 -0.00663854 1.38004 0
M  V30 28 H -1.88085 2.11568 -0.283881 0
M  V30 29 H -1.31991 1.57242 1.32985 0
M  V30 30 H -3.09727 1.80232 0.965411 0
M  V30 END ATOM
M  V30 BEGIN BOND
M  V30 1 1 1 2
M  V30 2 2 2 3
M  V30 3 1 3 4
M  V30 4 2 4 5
M  V30 5 1 5 6
M  V30 6 2 6 7
M  V30 7 1 7 8
M  V30 8 1 5 9
M  V30 9 1 9 10
M  V30 10 1 10 11
M  V30 11 1 10 12
M  V30 12 1 10 13
M  V30 13 1 7 2
M  V30 14 1 1 14
M  V30 15 1 1 15
M  V30 16 1 3 16
M  V30 17 1 4 17
M  V30 18 1 6 18
M  V30 19 1 8 19
M  V30 20 1 8 20
M  V30 21 1 9 21
M  V30 22 1 11 22
M  V30 23 1 11 23
M  V30 24 1 11 24
M  V30 25 1 12 25
M  V30 26 1 12 26
M  V30 27 1 12 27
M  V30 28 1 13 28
M  V30 29 1 13 29
M  V30 30 1 13 30
M  V30 END BOND
M  V30 END CTAB
M  END
