
     RDKit          3D

  0  0  0  0  0  0  0  0  0  0999 V3000
M  V30 BEGIN CTAB
M  V30 COUNTS 32 33 0 0 0
M  V30 BEGIN ATOM
M  V30 1 O 0.736101 -3.51291 0.126629 0
M  V30 2 C 0.927126 -2.58718 -0.691958 0
M  V30 3 N 0.139321 -1.44987 -0.716724 0
M  V30 4 C -0.942258 -1.11616 0.116658 0
M  V30 5 C -1.15845 -1.73538 1.31675 0
M  V30 6 C -2.27964 -1.34445 2.05923 0
M  V30 7 C -3.14743 -0.37449 1.61959 0
M  V30 8 C -2.94836 0.263343 0.412865 0
M  V30 9 C -1.85212 -0.1227 -0.307717 0
M  V30 10 S -4.06326 1.49645 -0.133074 0
M  V30 11 O -5.46123 1.22871 0.309961 0
M  V30 12 O -4.03561 1.55101 -1.63981 0
M  V30 13 N -3.55731 3.06859 0.429878 0
M  V30 14 C 2.06806 -2.76594 -1.66912 0
M  V30 15 S 2.44983 -1.28861 -2.58749 0
M  V30 16 C 3.21933 -0.041706 -1.54897 0
M  V30 17 N 4.52983 0.0877019 -1.32831 0
M  V30 18 N 4.95365 1.01019 -0.581604 0
M  V30 19 C 4.09751 1.85421 -0.013451 0
M  V30 20 S 2.60549 1.24644 -0.617986 0
M  V30 21 N 4.3635 2.96161 0.861153 0
M  V30 22 H 0.354473 -0.71557 -1.47213 0
M  V30 23 H -0.505895 -2.50171 1.7332 0
M  V30 24 H -2.43415 -1.84464 3.0033 0
M  V30 25 H -4.02081 -0.0824132 2.21757 0
M  V30 26 H -1.69401 0.374851 -1.2528 0
M  V30 27 H -2.6896 3.37593 -0.0426776 0
M  V30 28 H -3.35916 2.97951 1.45207 0
M  V30 29 H 1.83326 -3.64014 -2.29334 0
M  V30 30 H 2.97281 -3.03165 -1.05665 0
M  V30 31 H 4.91415 2.77686 1.69635 0
M  V30 32 H 3.98485 3.88014 0.598616 0
M  V30 END ATOM
M  V30 BEGIN BOND
M  V30 1 2 1 2
M  V30 2 1 2 3
M  V30 3 1 3 4
M  V30 4 2 4 5
M  V30 5 1 5 6
M  V30 6 2 6 7
M  V30 7 1 7 8
M  V30 8 2 8 9
M  V30 9 1 8 10
M  V30 10 2 10 11
M  V30 11 2 10 12
M  V30 12 1 10 13
M  V30 13 1 2 14
M  V30 14 1 14 15
M  V30 15 1 15 16
M  V30 16 2 16 17
M  V30 17 1 17 18
M  V30 18 2 18 19
M  V30 19 1 19 20
M  V30 20 1 19 21
M  V30 21 1 9 4
M  V30 22 1 20 16
M  V30 23 1 3 22
M  V30 24 1 5 23
M  V30 25 1 6 24
M  V30 26 1 7 25
M  V30 27 1 9 26
M  V30 28 1 13 27
M  V30 29 1 13 28
M  V30 30 1 14 29
M  V30 31 1 14 30
M  V30 32 1 21 31
M  V30 33 1 21 32
M  V30 END BOND
M  V30 END CTAB
M  END
