
     RDKit          3D

  0  0  0  0  0  0  0  0  0  0999 V3000
M  V30 BEGIN CTAB
M  V30 COUNTS 22 23 0 0 0
M  V30 BEGIN ATOM
M  V30 1 N -1.234 2.59661 0.0102456 0
M  V30 2 C -1.87834 1.31002 -0.100155 0
M  V30 3 S -3.52629 0.915242 -0.2594 0
M  V30 4 N -3.39326 -0.759971 -0.308304 0
M  V30 5 C -2.08079 -0.992625 -0.200415 0
M  V30 6 C -1.27382 0.0744565 -0.0908479 0
M  V30 7 C 0.219126 -0.0261116 0.0251568 0
M  V30 8 C 0.968743 -0.389086 -1.06961 0
M  V30 9 C 2.34901 -0.450798 -0.968576 0
M  V30 10 C 2.96979 -0.152171 0.216876 0
M  V30 11 C 2.21609 0.210962 1.3117 0
M  V30 12 C 0.835543 0.272211 1.2073 0
M  V30 13 N -1.61142 -2.37307 -0.227202 0
M  V30 14 H -1.09168 2.9945 0.945191 0
M  V30 15 H -0.940422 3.06909 -0.854323 0
M  V30 16 H 0.466081 -0.62335 -2.00192 0
M  V30 17 H 2.93091 -0.733992 -1.8186 0
M  V30 18 H 4.05516 -0.201646 0.30298 0
M  V30 19 H 2.65955 0.465336 2.27865 0
M  V30 20 H 0.222268 0.560493 2.06294 0
M  V30 21 H -1.94441 -3.0552 -0.929423 0
M  V30 22 H -0.917827 -2.7109 0.46773 0
M  V30 END ATOM
M  V30 BEGIN BOND
M  V30 1 1 1 2
M  V30 2 1 2 3
M  V30 3 1 3 4
M  V30 4 2 4 5
M  V30 5 1 5 6
M  V30 6 1 6 7
M  V30 7 2 7 8
M  V30 8 1 8 9
M  V30 9 2 9 10
M  V30 10 1 10 11
M  V30 11 2 11 12
M  V30 12 1 5 13
M  V30 13 2 6 2
M  V30 14 1 12 7
M  V30 15 1 1 14
M  V30 16 1 1 15
M  V30 17 1 8 16
M  V30 18 1 9 17
M  V30 19 1 10 18
M  V30 20 1 11 19
M  V30 21 1 12 20
M  V30 22 1 13 21
M  V30 23 1 13 22
M  V30 END BOND
M  V30 END CTAB
M  END
