
     RDKit          3D

  0  0  0  0  0  0  0  0  0  0999 V3000
M  V30 BEGIN CTAB
M  V30 COUNTS 47 49 0 0 0
M  V30 BEGIN ATOM
M  V30 1 N 3.90825 -1.19292 -3.53333 0
M  V30 2 C 3.31837 -1.05072 -2.24171 0
M  V30 3 C 3.35612 -2.11919 -1.40531 0
M  V30 4 C 2.78976 -1.98965 -0.159278 0
M  V30 5 C 2.17157 -0.815839 0.302557 0
M  V30 6 C 2.1357 0.291902 -0.573158 0
M  V30 7 C 2.71932 0.116221 -1.81802 0
M  V30 8 O 1.59128 1.48918 -0.300502 0
M  V30 9 C 0.480364 2.07222 0.195257 0
M  V30 10 C 0.655861 2.95381 1.27672 0
M  V30 11 C -0.37551 3.6268 1.8945 0
M  V30 12 N -0.148048 4.51494 2.99456 0
M  V30 13 C -1.64792 3.45019 1.45629 0
M  V30 14 C -1.85673 2.59891 0.40329 0
M  V30 15 C -0.832436 1.89377 -0.253641 0
M  V30 16 O -1.24212 1.10213 -1.27575 0
M  V30 17 C -1.05419 -0.150821 -1.77114 0
M  V30 18 C -2.45884 -0.674932 -2.15336 0
M  V30 19 O -3.21896 -0.813888 -0.967225 0
M  V30 20 C -2.86276 -2.01185 -0.404267 0
M  V30 21 C -2.72914 -1.96881 1.0973 0
M  V30 22 O -1.73694 -1.1399 1.55423 0
M  V30 23 C -0.555331 -1.79729 1.84647 0
M  V30 24 C 0.50264 -0.784194 2.25828 0
M  V30 25 O 1.6512 -0.791222 1.53747 0
M  V30 26 H 3.74132 -2.04063 -4.09254 0
M  V30 27 H 4.50278 -0.414012 -3.87474 0
M  V30 28 H 3.82063 -3.07545 -1.69323 0
M  V30 29 H 2.88309 -2.90524 0.44884 0
M  V30 30 H 2.76358 0.902594 -2.5909 0
M  V30 31 H 1.63655 3.18373 1.71233 0
M  V30 32 H -0.717426 4.44608 3.84241 0
M  V30 33 H 0.626866 5.21392 2.85259 0
M  V30 34 H -2.47103 3.9709 1.93205 0
M  V30 35 H -2.91607 2.52586 0.114958 0
M  V30 36 H -0.51808 -0.158856 -2.77154 0
M  V30 37 H -0.670609 -0.939077 -1.13249 0
M  V30 38 H -2.93539 -0.0107633 -2.88045 0
M  V30 39 H -2.38579 -1.69641 -2.57496 0
M  V30 40 H -1.96778 -2.48655 -0.849148 0
M  V30 41 H -3.70603 -2.73168 -0.612623 0
M  V30 42 H -2.49308 -2.99813 1.46036 0
M  V30 43 H -3.69328 -1.70109 1.57547 0
M  V30 44 H -0.661563 -2.64312 2.51642 0
M  V30 45 H -0.188322 -2.21676 0.864881 0
M  V30 46 H 0.802026 -1.17439 3.30419 0
M  V30 47 H -0.0138834 0.140215 2.4879 0
M  V30 END ATOM
M  V30 BEGIN BOND
M  V30 1 1 1 2
M  V30 2 2 2 3
M  V30 3 1 3 4
M  V30 4 2 4 5
M  V30 5 1 5 6
M  V30 6 2 6 7
M  V30 7 1 6 8
M  V30 8 1 8 9
M  V30 9 2 9 10
M  V30 10 1 10 11
M  V30 11 1 11 12
M  V30 12 2 11 13
M  V30 13 1 13 14
M  V30 14 2 14 15
M  V30 15 1 15 16
M  V30 16 1 16 17
M  V30 17 1 17 18
M  V30 18 1 18 19
M  V30 19 1 19 20
M  V30 20 1 20 21
M  V30 21 1 21 22
M  V30 22 1 22 23
M  V30 23 1 23 24
M  V30 24 1 24 25
M  V30 25 1 7 2
M  V30 26 1 15 9
M  V30 27 1 25 5
M  V30 28 1 1 26
M  V30 29 1 1 27
M  V30 30 1 3 28
M  V30 31 1 4 29
M  V30 32 1 7 30
M  V30 33 1 10 31
M  V30 34 1 12 32
M  V30 35 1 12 33
M  V30 36 1 13 34
M  V30 37 1 14 35
M  V30 38 1 17 36
M  V30 39 1 17 37
M  V30 40 1 18 38
M  V30 41 1 18 39
M  V30 42 1 20 40
M  V30 43 1 20 41
M  V30 44 1 21 42
M  V30 45 1 21 43
M  V30 46 1 23 44
M  V30 47 1 23 45
M  V30 48 1 24 46
M  V30 49 1 24 47
M  V30 END BOND
M  V30 END CTAB
M  END
