
     RDKit          3D

  0  0  0  0  0  0  0  0  0  0999 V3000
M  V30 BEGIN CTAB
M  V30 COUNTS 42 43 0 0 0
M  V30 BEGIN ATOM
M  V30 1 N -6.2867 1.22415 -2.22366 0
M  V30 2 C -5.60371 0.923564 -1.01862 0
M  V30 3 N -4.64586 -0.0465669 -0.968108 0
M  V30 4 C -4.0046 -0.333379 0.14962 0
M  V30 5 C -4.28651 0.350397 1.32495 0
M  V30 6 N -3.49848 -0.147102 2.26502 0
M  V30 7 C -2.74012 -1.1161 1.70457 0
M  V30 8 N -3.04378 -1.23835 0.404053 0
M  V30 9 C -2.43157 -2.16515 -0.480395 0
M  V30 10 C -1.21719 -1.66755 -1.18162 0
M  V30 11 O -0.237826 -1.31348 -0.25622 0
M  V30 12 C 0.912692 -0.842844 -0.895781 0
M  V30 13 P 2.17435 -0.386831 0.299391 0
M  V30 14 O 2.53691 -1.74277 1.24345 0
M  V30 15 O 1.70889 0.771912 1.11843 0
M  V30 16 O 3.58512 0.0427691 -0.525163 0
M  V30 17 P 4.89556 0.219043 0.506521 0
M  V30 18 O 6.03008 -1.01957 0.326612 0
M  V30 19 O 4.3819 0.211818 1.93178 0
M  V30 20 O 5.61 1.71425 0.202744 0
M  V30 21 P 7.17561 1.57699 -0.376499 0
M  V30 22 O 7.5695 3.01442 -1.20646 0
M  V30 23 O 8.29649 1.32541 0.857944 0
M  V30 24 O 7.33257 0.443766 -1.36711 0
M  V30 25 C -5.25335 1.33671 1.29513 0
M  V30 26 N -5.5315 2.02565 2.49751 0
M  V30 27 N -5.85771 1.57118 0.134604 0
M  V30 28 H -5.89002 1.87773 -2.9019 0
M  V30 29 H -7.19455 0.768288 -2.40195 0
M  V30 30 H -2.01053 -1.67398 2.28419 0
M  V30 31 H -3.19039 -2.43905 -1.26263 0
M  V30 32 H -2.16384 -3.13058 0.0171127 0
M  V30 33 H -0.793008 -2.51694 -1.77072 0
M  V30 34 H -1.41474 -0.862154 -1.91354 0
M  V30 35 H 1.3199 -1.57433 -1.60996 0
M  V30 36 H 0.603171 0.098386 -1.42952 0
M  V30 37 H 2.38472 -2.53473 0.689417 0
M  V30 38 H 5.94128 -1.71261 1.03253 0
M  V30 39 H 8.183 2.82009 -1.97958 0
M  V30 40 H 7.88521 1.57676 1.72247 0
M  V30 41 H -6.48654 2.12289 2.86982 0
M  V30 42 H -4.7444 2.44789 3.02256 0
M  V30 END ATOM
M  V30 BEGIN BOND
M  V30 1 1 1 2
M  V30 2 2 2 3
M  V30 3 1 3 4
M  V30 4 2 4 5
M  V30 5 1 5 6
M  V30 6 2 6 7
M  V30 7 1 7 8
M  V30 8 1 8 9
M  V30 9 1 9 10
M  V30 10 1 10 11
M  V30 11 1 11 12
M  V30 12 1 12 13
M  V30 13 1 13 14
M  V30 14 2 13 15
M  V30 15 1 13 16
M  V30 16 1 16 17
M  V30 17 1 17 18
M  V30 18 2 17 19
M  V30 19 1 17 20
M  V30 20 1 20 21
M  V30 21 1 21 22
M  V30 22 1 21 23
M  V30 23 2 21 24
M  V30 24 1 5 25
M  V30 25 1 25 26
M  V30 26 2 25 27
M  V30 27 1 27 2
M  V30 28 1 8 4
M  V30 29 1 1 28
M  V30 30 1 1 29
M  V30 31 1 7 30
M  V30 32 1 9 31
M  V30 33 1 9 32
M  V30 34 1 10 33
M  V30 35 1 10 34
M  V30 36 1 12 35
M  V30 37 1 12 36
M  V30 38 1 14 37
M  V30 39 1 18 38
M  V30 40 1 22 39
M  V30 41 1 23 40
M  V30 42 1 26 41
M  V30 43 1 26 42
M  V30 END BOND
M  V30 END CTAB
M  END
