
     RDKit          3D

  0  0  0  0  0  0  0  0  0  0999 V3000
M  V30 BEGIN CTAB
M  V30 COUNTS 41 44 0 0 0
M  V30 BEGIN ATOM
M  V30 1 C 2.41039 -2.50041 -0.00546923 0
M  V30 2 C 2.56213 -1.06164 0.223094 0
M  V30 3 C 3.53827 -0.415596 0.950702 0
M  V30 4 C 3.53486 0.951881 1.12224 0
M  V30 5 N 4.55305 1.55937 1.87088 0
M  V30 6 C 2.51409 1.73787 0.549203 0
M  V30 7 C 1.5302 1.1735 -0.171737 0
M  V30 8 C 1.57169 -0.243541 -0.329476 0
M  V30 9 N 0.583289 -0.901945 -1.04415 0
M  V30 10 C 0.156466 -0.0837831 -2.27039 0
M  V30 11 N -0.435275 0.81917 -1.18426 0
M  V30 12 C 0.296385 1.93608 -0.749981 0
M  V30 13 C -1.51949 0.21628 -0.565107 0
M  V30 14 C -2.57257 1.06558 -0.219782 0
M  V30 15 C -2.38006 2.48857 -0.53842 0
M  V30 16 C -3.64177 0.471099 0.41123 0
M  V30 17 C -3.66813 -0.878133 0.684988 0
M  V30 18 N -4.76294 -1.4662 1.3253 0
M  V30 19 C -2.58503 -1.70009 0.323222 0
M  V30 20 C -1.5061 -1.1867 -0.295472 0
M  V30 21 C -0.207133 -1.98496 -0.640109 0
M  V30 22 H 3.46206 -2.85615 0.0060186 0
M  V30 23 H 1.99205 -3.11532 0.79699 0
M  V30 24 H 2.16085 -2.80753 -1.04959 0
M  V30 25 H 4.30919 -1.05666 1.37922 0
M  V30 26 H 5.07884 2.36242 1.47694 0
M  V30 27 H 4.84193 1.25558 2.84275 0
M  V30 28 H 2.52486 2.8093 0.693429 0
M  V30 29 H -0.606198 -0.567232 -2.81064 0
M  V30 30 H 0.988507 0.359615 -2.7367 0
M  V30 31 H 0.100139 2.46132 0.169042 0
M  V30 32 H 0.711007 2.57209 -1.55879 0
M  V30 33 H -1.98032 2.70519 -1.55467 0
M  V30 34 H -3.41981 2.84319 -0.707599 0
M  V30 35 H -2.07528 3.1609 0.267092 0
M  V30 36 H -4.4634 1.13847 0.678842 0
M  V30 37 H -5.62425 -1.82978 0.87799 0
M  V30 38 H -4.71499 -1.55337 2.38127 0
M  V30 39 H -2.5956 -2.76287 0.534636 0
M  V30 40 H -0.51206 -2.66949 -1.46241 0
M  V30 41 H -0.14985 -2.44606 0.329667 0
M  V30 END ATOM
M  V30 BEGIN BOND
M  V30 1 1 1 2
M  V30 2 2 2 3
M  V30 3 1 3 4
M  V30 4 1 4 5
M  V30 5 2 4 6
M  V30 6 1 6 7
M  V30 7 2 7 8
M  V30 8 1 8 9
M  V30 9 1 9 10
M  V30 10 1 10 11
M  V30 11 1 11 12
M  V30 12 1 11 13
M  V30 13 2 13 14
M  V30 14 1 14 15
M  V30 15 1 14 16
M  V30 16 2 16 17
M  V30 17 1 17 18
M  V30 18 1 17 19
M  V30 19 2 19 20
M  V30 20 1 20 21
M  V30 21 1 8 2
M  V30 22 1 21 9
M  V30 23 1 12 7
M  V30 24 1 20 13
M  V30 25 1 1 22
M  V30 26 1 1 23
M  V30 27 1 1 24
M  V30 28 1 3 25
M  V30 29 1 5 26
M  V30 30 1 5 27
M  V30 31 1 6 28
M  V30 32 1 10 29
M  V30 33 1 10 30
M  V30 34 1 12 31
M  V30 35 1 12 32
M  V30 36 1 15 33
M  V30 37 1 15 34
M  V30 38 1 15 35
M  V30 39 1 16 36
M  V30 40 1 18 37
M  V30 41 1 18 38
M  V30 42 1 19 39
M  V30 43 1 21 40
M  V30 44 1 21 41
M  V30 END BOND
M  V30 END CTAB
M  END
