
     RDKit          3D

  0  0  0  0  0  0  0  0  0  0999 V3000
M  V30 BEGIN CTAB
M  V30 COUNTS 26 27 0 0 0
M  V30 BEGIN ATOM
M  V30 1 C -3.18804 0.402052 -0.908505 0
M  V30 2 C -1.73408 0.638632 -0.742855 0
M  V30 3 C -0.998276 -0.315597 -0.0224977 0
M  V30 4 C -1.6374 -1.50145 0.544566 0
M  V30 5 C 0.362761 -0.0981028 0.134883 0
M  V30 6 C 0.940557 1.05524 -0.427245 0
M  V30 7 C 0.168044 1.95309 -1.12192 0
M  V30 8 C -1.18464 1.76409 -1.29439 0
M  V30 9 N 2.2666 1.25336 -0.265854 0
M  V30 10 C 3.06882 0.419978 0.396822 0
M  V30 11 N 4.46826 0.694186 0.528523 0
M  V30 12 N 2.50591 -0.689282 0.936013 0
M  V30 13 C 1.19112 -0.950162 0.814197 0
M  V30 14 N 0.685403 -2.11908 1.40228 0
M  V30 15 H -3.72915 0.380803 0.0584946 0
M  V30 16 H -3.38771 -0.54392 -1.48387 0
M  V30 17 H -3.63886 1.2076 -1.52008 0
M  V30 18 H -1.43648 -2.46415 0.0381285 0
M  V30 19 H -2.74284 -1.39307 0.253659 0
M  V30 20 H -1.76911 -1.53093 1.63468 0
M  V30 21 H 0.634254 2.84499 -1.55253 0
M  V30 22 H -1.78522 2.49469 -1.85374 0
M  V30 23 H 5.11699 0.507667 -0.284742 0
M  V30 24 H 4.83282 1.07192 1.41676 0
M  V30 25 H 0.359244 -2.04483 2.41007 0
M  V30 26 H 0.631028 -3.03772 0.909159 0
M  V30 END ATOM
M  V30 BEGIN BOND
M  V30 1 1 1 2
M  V30 2 2 2 3
M  V30 3 1 3 4
M  V30 4 1 3 5
M  V30 5 2 5 6
M  V30 6 1 6 7
M  V30 7 2 7 8
M  V30 8 1 6 9
M  V30 9 2 9 10
M  V30 10 1 10 11
M  V30 11 1 10 12
M  V30 12 2 12 13
M  V30 13 1 13 14
M  V30 14 1 8 2
M  V30 15 1 13 5
M  V30 16 1 1 15
M  V30 17 1 1 16
M  V30 18 1 1 17
M  V30 19 1 4 18
M  V30 20 1 4 19
M  V30 21 1 4 20
M  V30 22 1 7 21
M  V30 23 1 8 22
M  V30 24 1 11 23
M  V30 25 1 11 24
M  V30 26 1 14 25
M  V30 27 1 14 26
M  V30 END BOND
M  V30 END CTAB
M  END
