
     RDKit          3D

  0  0  0  0  0  0  0  0  0  0999 V3000
M  V30 BEGIN CTAB
M  V30 COUNTS 26 26 0 0 0
M  V30 BEGIN ATOM
M  V30 1 N -4.16288 0.35546 0.420493 0
M  V30 2 C -2.76143 0.498815 0.649251 0
M  V30 3 C -1.9233 -0.513751 -0.162612 0
M  V30 4 C -0.502132 -0.376844 0.0741407 0
M  V30 5 C 0.216354 0.754819 -0.424693 0
M  V30 6 C 1.56806 0.737653 -0.257824 0
M  V30 7 C 2.34848 -0.207835 0.333888 0
M  V30 8 C 1.60403 -1.32077 0.819635 0
M  V30 9 C 0.259546 -1.3731 0.681464 0
M  V30 10 F -0.395417 -2.46279 1.2144 0
M  V30 11 O 3.70446 -0.220019 0.483422 0
M  V30 12 C 4.58916 0.738702 0.0328333 0
M  V30 13 N -2.18662 -0.0974498 -1.59829 0
M  V30 14 H -4.52491 0.930431 -0.354237 0
M  V30 15 H -4.45592 -0.647138 0.367638 0
M  V30 16 H -2.6368 0.1046 1.76262 0
M  V30 17 H -2.39749 1.50661 0.598072 0
M  V30 18 H -2.30684 -1.50961 -0.0641267 0
M  V30 19 H -0.328387 1.53081 -0.9223 0
M  V30 20 H 2.10456 1.60665 -0.683364 0
M  V30 21 H 2.17728 -2.11211 1.30256 0
M  V30 22 H 5.50992 0.228657 -0.419992 0
M  V30 23 H 4.93913 1.38875 0.861487 0
M  V30 24 H 4.09884 1.34665 -0.758295 0
M  V30 25 H -3.09469 -0.533212 -1.82651 0
M  V30 26 H -1.44301 -0.569108 -2.12966 0
M  V30 END ATOM
M  V30 BEGIN BOND
M  V30 1 1 1 2
M  V30 2 1 2 3
M  V30 3 1 3 4
M  V30 4 2 4 5
M  V30 5 1 5 6
M  V30 6 2 6 7
M  V30 7 1 7 8
M  V30 8 2 8 9
M  V30 9 1 9 10
M  V30 10 1 7 11
M  V30 11 1 11 12
M  V30 12 1 3 13
M  V30 13 1 9 4
M  V30 14 1 1 14
M  V30 15 1 1 15
M  V30 16 1 2 16
M  V30 17 1 2 17
M  V30 18 1 3 18
M  V30 19 1 5 19
M  V30 20 1 6 20
M  V30 21 1 8 21
M  V30 22 1 12 22
M  V30 23 1 12 23
M  V30 24 1 12 24
M  V30 25 1 13 25
M  V30 26 1 13 26
M  V30 END BOND
M  V30 END CTAB
M  END
