
     RDKit          3D

  0  0  0  0  0  0  0  0  0  0999 V3000
M  V30 BEGIN CTAB
M  V30 COUNTS 21 21 0 0 0
M  V30 BEGIN ATOM
M  V30 1 N -2.1896 -1.01071 -1.76135 0
M  V30 2 N -2.59939 -0.891343 -0.426305 0
M  V30 3 C -2.09427 -0.0610801 0.401977 0
M  V30 4 N -1.06585 0.794744 -0.0240464 0
M  V30 5 C 0.313831 0.456833 0.0168097 0
M  V30 6 C 0.734489 -0.753941 0.485727 0
M  V30 7 C 2.08125 -1.05331 0.513054 0
M  V30 8 C 3.03932 -0.151664 0.0731991 0
M  V30 9 C 2.59954 1.06993 -0.39882 0
M  V30 10 C 1.24685 1.36275 -0.42302 0
M  V30 11 F 0.850279 2.58917 -0.900103 0
M  V30 12 Cl 4.74847 -0.519393 0.102858 0
M  V30 13 N -2.53619 0.0264478 1.73748 0
M  V30 14 H -2.72544 -1.68088 -2.35179 0
M  V30 15 H -1.37746 -0.439806 -2.12416 0
M  V30 16 H -1.36716 1.73663 -0.390708 0
M  V30 17 H 0.0190908 -1.47756 0.834911 0
M  V30 18 H 2.45086 -2.00968 0.880792 0
M  V30 19 H 3.32403 1.81241 -0.756419 0
M  V30 20 H -3.04619 0.902032 2.05416 0
M  V30 21 H -2.40644 -0.701586 2.45576 0
M  V30 END ATOM
M  V30 BEGIN BOND
M  V30 1 1 1 2
M  V30 2 2 2 3
M  V30 3 1 3 4
M  V30 4 1 4 5
M  V30 5 2 5 6
M  V30 6 1 6 7
M  V30 7 2 7 8
M  V30 8 1 8 9
M  V30 9 2 9 10
M  V30 10 1 10 11
M  V30 11 1 8 12
M  V30 12 1 3 13
M  V30 13 1 10 5
M  V30 14 1 1 14
M  V30 15 1 1 15
M  V30 16 1 4 16
M  V30 17 1 6 17
M  V30 18 1 7 18
M  V30 19 1 9 19
M  V30 20 1 13 20
M  V30 21 1 13 21
M  V30 END BOND
M  V30 END CTAB
M  END
