
     RDKit          3D

  0  0  0  0  0  0  0  0  0  0999 V3000
M  V30 BEGIN CTAB
M  V30 COUNTS 22 23 0 0 0
M  V30 BEGIN ATOM
M  V30 1 N 4.05754 -0.803906 0.436174 0
M  V30 2 N 2.75864 -1.25002 0.359549 0
M  V30 3 C 1.63677 -0.361217 0.18635 0
M  V30 4 N 1.847 0.975089 0.0925494 0
M  V30 5 C 0.81728 1.82376 -0.0691832 0
M  V30 6 N 1.13109 3.20347 -0.157525 0
M  V30 7 N -0.430505 1.32868 -0.137178 0
M  V30 8 C -0.683722 0.0039793 -0.0481293 0
M  V30 9 N 0.386856 -0.794099 0.11294 0
M  V30 10 N -2.02597 -0.452791 -0.127633 0
M  V30 11 C -2.8294 -0.320993 -1.19916 0
M  V30 12 N -4.04305 -0.855948 -0.962877 0
M  V30 13 C -4.03508 -1.34788 0.287534 0
M  V30 14 C -2.77961 -1.09161 0.793913 0
M  V30 15 H 4.60955 -1.47422 1.0219 0
M  V30 16 H 4.44271 -0.720118 -0.536933 0
M  V30 17 H 2.56743 -2.27061 0.428477 0
M  V30 18 H 0.645408 3.79802 -0.864174 0
M  V30 19 H 1.83227 3.6629 0.455534 0
M  V30 20 H -2.5789 0.143609 -2.14293 0
M  V30 21 H -4.88977 -1.83535 0.733774 0
M  V30 22 H -2.43653 -1.36074 1.78936 0
M  V30 END ATOM
M  V30 BEGIN BOND
M  V30 1 1 1 2
M  V30 2 1 2 3
M  V30 3 2 3 4
M  V30 4 1 4 5
M  V30 5 1 5 6
M  V30 6 2 5 7
M  V30 7 1 7 8
M  V30 8 2 8 9
M  V30 9 1 8 10
M  V30 10 1 10 11
M  V30 11 2 11 12
M  V30 12 1 12 13
M  V30 13 2 13 14
M  V30 14 1 9 3
M  V30 15 1 14 10
M  V30 16 1 1 15
M  V30 17 1 1 16
M  V30 18 1 2 17
M  V30 19 1 6 18
M  V30 20 1 6 19
M  V30 21 1 11 20
M  V30 22 1 13 21
M  V30 23 1 14 22
M  V30 END BOND
M  V30 END CTAB
M  END
