
     RDKit          3D

  0  0  0  0  0  0  0  0  0  0999 V3000
M  V30 BEGIN CTAB
M  V30 COUNTS 22 22 0 0 0
M  V30 BEGIN ATOM
M  V30 1 N -3.36655 0.0146591 0.559666 0
M  V30 2 C -3.02669 0.408171 -0.757537 0
M  V30 3 C -1.93608 -0.382175 -1.38225 0
M  V30 4 N -0.658537 -0.37767 -0.770974 0
M  V30 5 C -0.255149 -0.829325 0.493328 0
M  V30 6 O -0.979782 -1.35714 1.3696 0
M  V30 7 C 1.16744 -0.696596 0.896561 0
M  V30 8 N 1.76368 -1.05462 2.03742 0
M  V30 9 O 3.02867 -0.7647 1.99225 0
M  V30 10 C 3.34888 -0.211438 0.853453 0
M  V30 11 C 2.18165 -0.148604 0.119041 0
M  V30 12 N 4.6463 0.236853 0.452521 0
M  V30 13 H -3.55813 0.793786 1.22124 0
M  V30 14 H -3.982 -0.797753 0.642475 0
M  V30 15 H -2.79564 1.5197 -0.78929 0
M  V30 16 H -3.9204 0.294713 -1.44749 0
M  V30 17 H -1.8976 -0.039185 -2.46285 0
M  V30 18 H -2.26754 -1.45048 -1.4688 0
M  V30 19 H 0.134361 0.0383869 -1.36792 0
M  V30 20 H 2.09987 0.257471 -0.876053 0
M  V30 21 H 5.27203 0.615599 1.19592 0
M  V30 22 H 5.00122 0.211468 -0.510306 0
M  V30 END ATOM
M  V30 BEGIN BOND
M  V30 1 1 1 2
M  V30 2 1 2 3
M  V30 3 1 3 4
M  V30 4 1 4 5
M  V30 5 2 5 6
M  V30 6 1 5 7
M  V30 7 2 7 8
M  V30 8 1 8 9
M  V30 9 1 9 10
M  V30 10 2 10 11
M  V30 11 1 10 12
M  V30 12 1 11 7
M  V30 13 1 1 13
M  V30 14 1 1 14
M  V30 15 1 2 15
M  V30 16 1 2 16
M  V30 17 1 3 17
M  V30 18 1 3 18
M  V30 19 1 4 19
M  V30 20 1 11 20
M  V30 21 1 12 21
M  V30 22 1 12 22
M  V30 END BOND
M  V30 END CTAB
M  END
