
     RDKit          3D

  0  0  0  0  0  0  0  0  0  0999 V3000
M  V30 BEGIN CTAB
M  V30 COUNTS 36 37 0 0 0
M  V30 BEGIN ATOM
M  V30 1 N 6.40728 0.923486 0.093074 0
M  V30 2 C 5.54311 1.51825 -0.867656 0
M  V30 3 S 5.67157 3.08801 -1.24416 0
M  V30 4 N 4.55239 0.712605 -1.50317 0
M  V30 5 N 4.38705 -0.58882 -1.24371 0
M  V30 6 C 3.58171 -1.31495 -0.677553 0
M  V30 7 C 2.35804 -0.967874 0.00240534 0
M  V30 8 C 1.58988 -1.9863 0.582969 0
M  V30 9 C 0.431863 -1.6885 1.23026 0
M  V30 10 C -0.023136 -0.402661 1.33927 0
M  V30 11 C 0.721352 0.596246 0.775126 0
M  V30 12 C 1.9198 0.326173 0.100488 0
M  V30 13 S -1.50055 0.039184 2.15742 0
M  V30 14 O -1.36988 1.39677 2.75097 0
M  V30 15 O -1.75572 -0.988863 3.23566 0
M  V30 16 C -2.87417 0.0343163 1.08512 0
M  V30 17 C -3.17275 1.20931 0.425654 0
M  V30 18 C -4.23784 1.30756 -0.442793 0
M  V30 19 C -4.99983 0.151486 -0.619471 0
M  V30 20 N -6.0916 0.249109 -1.50856 0
M  V30 21 C -4.70551 -1.01938 0.035169 0
M  V30 22 C -3.64948 -1.10013 0.890185 0
M  V30 23 H 6.11309 0.121026 0.675178 0
M  V30 24 H 7.37231 1.29135 0.232245 0
M  V30 25 H 3.93219 1.2117 -2.21939 0
M  V30 26 H 3.83554 -2.41097 -0.691311 0
M  V30 27 H 1.93417 -3.02091 0.508142 0
M  V30 28 H -0.172584 -2.48223 1.68614 0
M  V30 29 H 0.43546 1.64006 0.814292 0
M  V30 30 H 2.47696 1.14822 -0.33098 0
M  V30 31 H -2.56916 2.11255 0.570137 0
M  V30 32 H -4.49486 2.2177 -0.973746 0
M  V30 33 H -6.01786 0.829263 -2.35477 0
M  V30 34 H -6.96197 -0.266421 -1.30087 0
M  V30 35 H -5.31106 -1.90618 -0.11681 0
M  V30 36 H -3.35581 -1.9802 1.43889 0
M  V30 END ATOM
M  V30 BEGIN BOND
M  V30 1 1 1 2
M  V30 2 2 2 3
M  V30 3 1 2 4
M  V30 4 1 4 5
M  V30 5 2 5 6 CFG=2
M  V30 6 1 6 7
M  V30 7 2 7 8
M  V30 8 1 8 9
M  V30 9 2 9 10
M  V30 10 1 10 11
M  V30 11 2 11 12
M  V30 12 1 10 13
M  V30 13 2 13 14
M  V30 14 2 13 15
M  V30 15 1 13 16
M  V30 16 2 16 17
M  V30 17 1 17 18
M  V30 18 2 18 19
M  V30 19 1 19 20
M  V30 20 1 19 21
M  V30 21 2 21 22
M  V30 22 1 12 7
M  V30 23 1 22 16
M  V30 24 1 1 23
M  V30 25 1 1 24
M  V30 26 1 4 25
M  V30 27 1 6 26
M  V30 28 1 8 27
M  V30 29 1 9 28
M  V30 30 1 11 29
M  V30 31 1 12 30
M  V30 32 1 17 31
M  V30 33 1 18 32
M  V30 34 1 20 33
M  V30 35 1 20 34
M  V30 36 1 21 35
M  V30 37 1 22 36
M  V30 END BOND
M  V30 END CTAB
M  END
