
     RDKit          3D

  0  0  0  0  0  0  0  0  0  0999 V3000
M  V30 BEGIN CTAB
M  V30 COUNTS 29 28 0 0 0
M  V30 BEGIN ATOM
M  V30 1 N 4.42275 -0.713852 2.3872 0
M  V30 2 C 4.25182 -0.610133 0.972109 0
M  V30 3 C 2.91637 0.00662024 0.687985 0
M  V30 4 O 2.20067 0.302514 1.66615 0
M  V30 5 N 2.52111 0.226873 -0.636087 0
M  V30 6 C 1.26162 0.810624 -1.01009 0
M  V30 7 C 0.128401 -0.0324151 -0.561171 0
M  V30 8 C -1.22784 0.564637 -0.937261 0
M  V30 9 N -2.32816 -0.126042 -0.589812 0
M  V30 10 C -3.45245 -0.831938 -0.234871 0
M  V30 11 O -3.74699 -1.99778 -0.55565 0
M  V30 12 C -4.52349 -0.201947 0.65106 0
M  V30 13 N -4.08954 1.12465 0.995569 0
M  V30 14 H 3.99822 -1.58712 2.72622 0
M  V30 15 H 3.97417 0.128351 2.83185 0
M  V30 16 H 4.29042 -1.62661 0.49571 0
M  V30 17 H 4.98157 0.0763204 0.476291 0
M  V30 18 H 3.20651 -0.062828 -1.40311 0
M  V30 19 H 1.25046 0.8778 -2.14128 0
M  V30 20 H 1.16272 1.88479 -0.704455 0
M  V30 21 H 0.082889 -0.168539 0.525927 0
M  V30 22 H 0.149998 -1.03801 -1.00832 0
M  V30 23 H -1.19307 0.925943 -2.00838 0
M  V30 24 H -1.19741 1.57547 -0.384535 0
M  V30 25 H -1.89916 -1.18568 -1.3246 0
M  V30 26 H -4.71404 -0.776948 1.54846 0
M  V30 27 H -5.43313 -0.170271 0.0331502 0
M  V30 28 H -3.58354 1.53881 0.19845 0
M  V30 29 H -3.41086 1.08672 1.81684 0
M  V30 END ATOM
M  V30 BEGIN BOND
M  V30 1 1 1 2
M  V30 2 1 2 3
M  V30 3 2 3 4
M  V30 4 1 3 5
M  V30 5 1 5 6
M  V30 6 1 6 7
M  V30 7 1 7 8
M  V30 8 1 8 9
M  V30 9 1 9 10
M  V30 10 2 10 11
M  V30 11 1 10 12
M  V30 12 1 12 13
M  V30 13 1 1 14
M  V30 14 1 1 15
M  V30 15 1 2 16
M  V30 16 1 2 17
M  V30 17 1 5 18
M  V30 18 1 6 19
M  V30 19 1 6 20
M  V30 20 1 7 21
M  V30 21 1 7 22
M  V30 22 1 8 23
M  V30 23 1 8 24
M  V30 24 1 9 25
M  V30 25 1 12 26
M  V30 26 1 12 27
M  V30 27 1 13 28
M  V30 28 1 13 29
M  V30 END BOND
M  V30 END CTAB
M  END
