
     RDKit          3D

  0  0  0  0  0  0  0  0  0  0999 V3000
M  V30 BEGIN CTAB
M  V30 COUNTS 31 32 0 0 0
M  V30 BEGIN ATOM
M  V30 1 N 4.34225 -0.844501 0.452689 0
M  V30 2 C 2.92636 -0.797075 0.261503 0 CFG=2
M  V30 3 C 2.62139 -0.0425657 -1.00046 0
M  V30 4 C 1.21807 0.51582 -0.886951 0
M  V30 5 C 0.409416 -0.452166 -0.0626851 0 CFG=1
M  V30 6 C 0.800784 -0.264024 1.39019 0
M  V30 7 C 2.29482 -0.140616 1.47049 0
M  V30 8 C -1.03735 -0.159592 -0.169094 0
M  V30 9 N -1.66365 0.980464 0.113117 0
M  V30 10 N -2.97139 0.819339 -0.120949 0
M  V30 11 C -3.13666 -0.450864 -0.555401 0
M  V30 12 N -1.95056 -1.04791 -0.583856 0
M  V30 13 N -4.35531 -1.06601 -0.924168 0
M  V30 14 C -3.98985 1.83378 0.0660174 0
M  V30 15 H 4.80502 -1.38037 -0.266347 0
M  V30 16 H 4.77319 0.0722525 0.560099 0
M  V30 17 H 2.55813 -1.85244 0.239893 0
M  V30 18 H 3.37502 0.78973 -1.08984 0
M  V30 19 H 2.65976 -0.675469 -1.90264 0
M  V30 20 H 1.2197 1.53014 -0.430462 0
M  V30 21 H 0.798857 0.635614 -1.90945 0
M  V30 22 H 0.644547 -1.4861 -0.364911 0
M  V30 23 H 0.428895 -1.08893 2.01466 0
M  V30 24 H 0.370922 0.717197 1.71097 0
M  V30 25 H 2.62862 -0.732672 2.35743 0
M  V30 26 H 2.62278 0.923825 1.55236 0
M  V30 27 H -4.6508 -0.998594 -1.9252 0
M  V30 28 H -4.94249 -1.56916 -0.231606 0
M  V30 29 H -3.70346 2.75379 -0.503935 0
M  V30 30 H -4.15686 2.0524 1.14137 0
M  V30 31 H -4.94014 1.4247 -0.332954 0
M  V30 END ATOM
M  V30 BEGIN BOND
M  V30 1 1 1 2
M  V30 2 1 2 3
M  V30 3 1 3 4
M  V30 4 1 4 5
M  V30 5 1 5 6
M  V30 6 1 6 7
M  V30 7 1 5 8
M  V30 8 2 8 9
M  V30 9 1 9 10
M  V30 10 1 10 11
M  V30 11 2 11 12
M  V30 12 1 11 13
M  V30 13 1 10 14
M  V30 14 1 7 2
M  V30 15 1 12 8
M  V30 16 1 1 15
M  V30 17 1 1 16
M  V30 18 1 2 17 CFG=3
M  V30 19 1 3 18
M  V30 20 1 3 19
M  V30 21 1 4 20
M  V30 22 1 4 21
M  V30 23 1 5 22 CFG=3
M  V30 24 1 6 23
M  V30 25 1 6 24
M  V30 26 1 7 25
M  V30 27 1 7 26
M  V30 28 1 13 27
M  V30 29 1 13 28
M  V30 30 1 14 29
M  V30 31 1 14 30
M  V30 32 1 14 31
M  V30 END BOND
M  V30 END CTAB
M  END
