
     RDKit          3D

  0  0  0  0  0  0  0  0  0  0999 V3000
M  V30 BEGIN CTAB
M  V30 COUNTS 23 23 0 0 0
M  V30 BEGIN ATOM
M  V30 1 O -3.72808 -0.810519 0.837453 0
M  V30 2 C -2.43937 -0.606492 0.341991 0
M  V30 3 C -1.6218 -1.63816 -0.0375651 0
M  V30 4 C -0.337047 -1.37916 -0.528384 0
M  V30 5 C 0.125761 -0.0848391 -0.637725 0
M  V30 6 C -0.726165 0.925807 -0.245836 0
M  V30 7 C -1.99869 0.70612 0.242383 0
M  V30 8 N -2.85641 1.76403 0.639234 0
M  V30 9 C 1.49575 0.136445 -1.16418 0
M  V30 10 S 2.71732 0.151915 0.114898 0
M  V30 11 O 2.72537 -1.12083 0.90278 0
M  V30 12 O 2.48906 1.30074 1.06323 0
M  V30 13 N 4.25334 0.416283 -0.631557 0
M  V30 14 H -4.13013 -1.72899 0.943999 0
M  V30 15 H -1.97222 -2.66778 0.0424488 0
M  V30 16 H 0.255132 -2.24215 -0.809803 0
M  V30 17 H -0.369542 1.94827 -0.328675 0
M  V30 18 H -3.88541 1.71438 0.510721 0
M  V30 19 H -2.45343 2.61734 1.07186 0
M  V30 20 H 1.78042 -0.663116 -1.88586 0
M  V30 21 H 1.55999 1.12067 -1.68427 0
M  V30 22 H 4.93391 -0.350372 -0.417596 0
M  V30 23 H 4.18225 0.490413 -1.67167 0
M  V30 END ATOM
M  V30 BEGIN BOND
M  V30 1 1 1 2
M  V30 2 2 2 3
M  V30 3 1 3 4
M  V30 4 2 4 5
M  V30 5 1 5 6
M  V30 6 2 6 7
M  V30 7 1 7 8
M  V30 8 1 5 9
M  V30 9 1 9 10
M  V30 10 2 10 11
M  V30 11 2 10 12
M  V30 12 1 10 13
M  V30 13 1 7 2
M  V30 14 1 1 14
M  V30 15 1 3 15
M  V30 16 1 4 16
M  V30 17 1 6 17
M  V30 18 1 8 18
M  V30 19 1 8 19
M  V30 20 1 9 20
M  V30 21 1 9 21
M  V30 22 1 13 22
M  V30 23 1 13 23
M  V30 END BOND
M  V30 END CTAB
M  END
