
     RDKit          3D

  0  0  0  0  0  0  0  0  0  0999 V3000
M  V30 BEGIN CTAB
M  V30 COUNTS 35 36 0 0 0
M  V30 BEGIN ATOM
M  V30 1 C -3.12163 -3.13703 -0.192661 0
M  V30 2 O -2.54516 -2.16992 0.597964 0
M  V30 3 C -1.87714 -1.19678 -0.107922 0
M  V30 4 C -1.30248 -0.210841 0.917711 0
M  V30 5 N -0.578197 0.853717 0.255808 0
M  V30 6 C -1.10439 2.02056 -0.156238 0
M  V30 7 C -2.54228 2.41959 0.00152017 0
M  V30 8 N -2.75055 3.72794 -0.552349 0
M  V30 9 N -0.147331 2.78326 -0.734469 0
M  V30 10 N 0.957078 2.07672 -0.671539 0
M  V30 11 C 0.724098 0.895815 -0.072771 0
M  V30 12 C 1.74096 -0.157371 0.170514 0 CFG=2
M  V30 13 C 3.02153 0.386384 0.774707 0
M  V30 14 C 3.80789 -0.463578 -0.195127 0 CFG=2
M  V30 15 C 2.55053 -0.533309 -1.05465 0
M  V30 16 N 4.16875 -1.74765 0.383802 0
M  V30 17 H -2.36233 -3.68289 -0.817927 0
M  V30 18 H -3.52975 -3.92408 0.497025 0
M  V30 19 H -3.97589 -2.7817 -0.791616 0
M  V30 20 H -2.62306 -0.678948 -0.75716 0
M  V30 21 H -1.07713 -1.57701 -0.75309 0
M  V30 22 H -2.10765 0.167348 1.57392 0
M  V30 23 H -0.624505 -0.815521 1.5717 0
M  V30 24 H -3.21856 1.6816 -0.449811 0
M  V30 25 H -2.72291 2.5026 1.11054 0
M  V30 26 H -1.85982 4.29499 -0.545135 0
M  V30 27 H -3.14096 3.70777 -1.52057 0
M  V30 28 H 1.37551 -1.05473 0.670691 0
M  V30 29 H 3.16347 0.132927 1.84737 0
M  V30 30 H 3.16599 1.45896 0.518373 0
M  V30 31 H 4.66014 0.0206116 -0.687418 0
M  V30 32 H 2.33871 -1.56481 -1.43138 0
M  V30 33 H 2.56427 0.240423 -1.84606 0
M  V30 34 H 3.78106 -1.8545 1.35159 0
M  V30 35 H 5.19174 -1.82055 0.44143 0
M  V30 END ATOM
M  V30 BEGIN BOND
M  V30 1 1 1 2
M  V30 2 1 2 3
M  V30 3 1 3 4
M  V30 4 1 4 5
M  V30 5 1 5 6
M  V30 6 1 6 7
M  V30 7 1 7 8
M  V30 8 2 6 9
M  V30 9 1 9 10
M  V30 10 2 10 11
M  V30 11 1 11 12
M  V30 12 1 12 13
M  V30 13 1 13 14
M  V30 14 1 14 15
M  V30 15 1 14 16
M  V30 16 1 11 5
M  V30 17 1 15 12
M  V30 18 1 1 17
M  V30 19 1 1 18
M  V30 20 1 1 19
M  V30 21 1 3 20
M  V30 22 1 3 21
M  V30 23 1 4 22
M  V30 24 1 4 23
M  V30 25 1 7 24
M  V30 26 1 7 25
M  V30 27 1 8 26
M  V30 28 1 8 27
M  V30 29 1 12 28 CFG=1
M  V30 30 1 13 29
M  V30 31 1 13 30
M  V30 32 1 14 31 CFG=3
M  V30 33 1 15 32
M  V30 34 1 15 33
M  V30 35 1 16 34
M  V30 36 1 16 35
M  V30 END BOND
M  V30 END CTAB
M  END
