
     RDKit          3D

  0  0  0  0  0  0  0  0  0  0999 V3000
M  V30 BEGIN CTAB
M  V30 COUNTS 33 34 0 0 0
M  V30 BEGIN ATOM
M  V30 1 N -2.42746 -2.18879 -0.869338 0
M  V30 2 C -2.81188 -0.849679 -0.586717 0
M  V30 3 N -4.08256 -0.469891 -0.818916 0
M  V30 4 C -4.56797 0.745016 -0.584263 0
M  V30 5 C -3.70832 1.68952 -0.0644527 0
M  V30 6 C -2.39061 1.3566 0.194482 0
M  V30 7 C -1.94561 0.0816913 -0.0690879 0
M  V30 8 C -0.562005 -0.266783 0.179635 0
M  V30 9 C 0.205293 0.734081 1.01975 0
M  V30 10 C 1.48802 -0.00278918 1.43027 0
M  V30 11 N 2.22027 -0.521914 0.348687 0
M  V30 12 C 1.49087 -1.17233 -0.698074 0
M  V30 13 C 0.260796 -0.388272 -1.10174 0
M  V30 14 S 3.52645 0.388061 -0.224286 0
M  V30 15 O 3.12763 1.76508 -0.690072 0
M  V30 16 O 4.16478 -0.352086 -1.36352 0
M  V30 17 N 4.75908 0.609432 0.983669 0
M  V30 18 H -1.46151 -2.54592 -0.823693 0
M  V30 19 H -3.15525 -2.88549 -1.14106 0
M  V30 20 H -5.59946 0.990585 -0.79017 0
M  V30 21 H -4.12502 2.66837 0.118145 0
M  V30 22 H -1.77365 2.14735 0.602071 0
M  V30 23 H -0.495726 -1.2411 0.694176 0
M  V30 24 H -0.329026 0.981509 1.94541 0
M  V30 25 H 0.554582 1.61152 0.43703 0
M  V30 26 H 1.12887 -0.851017 2.08768 0
M  V30 27 H 2.10461 0.659967 2.0322 0
M  V30 28 H 1.10754 -2.13912 -0.290301 0
M  V30 29 H 2.15509 -1.30747 -1.56746 0
M  V30 30 H -0.258832 -0.835473 -1.9359 0
M  V30 31 H 0.634134 0.652956 -1.34878 0
M  V30 32 H 5.27943 -0.307642 1.13426 0
M  V30 33 H 5.48742 1.24405 0.563043 0
M  V30 END ATOM
M  V30 BEGIN BOND
M  V30 1 1 1 2
M  V30 2 2 2 3
M  V30 3 1 3 4
M  V30 4 2 4 5
M  V30 5 1 5 6
M  V30 6 2 6 7
M  V30 7 1 7 8
M  V30 8 1 8 9
M  V30 9 1 9 10
M  V30 10 1 10 11
M  V30 11 1 11 12
M  V30 12 1 12 13
M  V30 13 1 11 14
M  V30 14 2 14 15
M  V30 15 2 14 16
M  V30 16 1 14 17
M  V30 17 1 7 2
M  V30 18 1 13 8
M  V30 19 1 1 18
M  V30 20 1 1 19
M  V30 21 1 4 20
M  V30 22 1 5 21
M  V30 23 1 6 22
M  V30 24 1 8 23
M  V30 25 1 9 24
M  V30 26 1 9 25
M  V30 27 1 10 26
M  V30 28 1 10 27
M  V30 29 1 12 28
M  V30 30 1 12 29
M  V30 31 1 13 30
M  V30 32 1 13 31
M  V30 33 1 17 32
M  V30 34 1 17 33
M  V30 END BOND
M  V30 END CTAB
M  END
