
     RDKit          3D

  0  0  0  0  0  0  0  0  0  0999 V3000
M  V30 BEGIN CTAB
M  V30 COUNTS 21 21 0 0 0
M  V30 BEGIN ATOM
M  V30 1 N 0.76181 2.41231 0.427244 0
M  V30 2 N -0.401859 1.79318 0.111075 0
M  V30 3 C -0.796089 0.470523 -0.000481528 0
M  V30 4 C 0.0427586 -0.60005 0.182774 0
M  V30 5 C -0.452544 -1.91854 0.0782297 0
M  V30 6 C -1.76479 -2.1828 -0.206031 0
M  V30 7 C -2.61391 -1.12222 -0.392698 0
M  V30 8 C -2.13732 0.160275 -0.291351 0
M  V30 9 S 1.71257 -0.36703 0.50553 0
M  V30 10 N 2.61282 0.385073 -0.744946 0
M  V30 11 O 2.01158 0.194367 1.88004 0
M  V30 12 O 2.36628 -1.75299 0.609866 0
M  V30 13 H 0.774778 2.98707 1.29418 0
M  V30 14 H 1.0506 2.98242 -0.415301 0
M  V30 15 H -1.17676 2.52476 -0.0939106 0
M  V30 16 H 0.248137 -2.75473 0.232286 0
M  V30 17 H -2.04976 -3.23204 -0.267073 0
M  V30 18 H -3.64672 -1.33911 -0.616654 0
M  V30 19 H -2.83215 1.00062 -0.443607 0
M  V30 20 H 2.76737 -0.310198 -1.50422 0
M  V30 21 H 3.5232 0.669102 -0.344951 0
M  V30 END ATOM
M  V30 BEGIN BOND
M  V30 1 1 1 2
M  V30 2 1 2 3
M  V30 3 2 3 4
M  V30 4 1 4 5
M  V30 5 2 5 6
M  V30 6 1 6 7
M  V30 7 2 7 8
M  V30 8 1 4 9
M  V30 9 1 9 10
M  V30 10 2 9 11
M  V30 11 2 9 12
M  V30 12 1 8 3
M  V30 13 1 1 13
M  V30 14 1 1 14
M  V30 15 1 2 15
M  V30 16 1 5 16
M  V30 17 1 6 17
M  V30 18 1 7 18
M  V30 19 1 8 19
M  V30 20 1 10 20
M  V30 21 1 10 21
M  V30 END BOND
M  V30 END CTAB
M  END
