
     RDKit          3D

  0  0  0  0  0  0  0  0  0  0999 V3000
M  V30 BEGIN CTAB
M  V30 COUNTS 13 12 0 0 0
M  V30 BEGIN ATOM
M  V30 1 N 2.04857 0.307523 -0.593758 0
M  V30 2 C 1.11565 0.640402 0.409394 0
M  V30 3 S 1.37156 1.93443 1.36888 0
M  V30 4 C -0.12117 -0.14436 0.646195 0
M  V30 5 C -0.908306 -0.0945771 -0.618886 0
M  V30 6 N -2.14445 -0.767166 -0.668706 0
M  V30 7 S -0.398298 0.705673 -1.94717 0
M  V30 8 H 1.90845 -0.526723 -1.18536 0
M  V30 9 H 2.87812 0.90067 -0.739479 0
M  V30 10 H 0.215997 -1.18841 0.865303 0
M  V30 11 H -0.676548 0.24113 1.49518 0
M  V30 12 H -2.28884 -1.76522 -0.422819 0
M  V30 13 H -3.00074 -0.243371 -0.974126 0
M  V30 END ATOM
M  V30 BEGIN BOND
M  V30 1 1 1 2
M  V30 2 2 2 3
M  V30 3 1 2 4
M  V30 4 1 4 5
M  V30 5 1 5 6
M  V30 6 2 5 7
M  V30 7 1 1 8
M  V30 8 1 1 9
M  V30 9 1 4 10
M  V30 10 1 4 11
M  V30 11 1 6 12
M  V30 12 1 6 13
M  V30 END BOND
M  V30 END CTAB
M  END
