
     RDKit          3D

  0  0  0  0  0  0  0  0  0  0999 V3000
M  V30 BEGIN CTAB
M  V30 COUNTS 28 29 0 0 0
M  V30 BEGIN ATOM
M  V30 1 Cl 6.61924 1.09849 0.294274 0
M  V30 2 C 4.98057 0.472976 0.0806194 0
M  V30 3 C 3.98016 0.79177 0.967557 0
M  V30 4 C 2.67494 0.314285 0.827492 0
M  V30 5 C 2.36497 -0.508294 -0.235513 0
M  V30 6 C 3.35994 -0.830354 -1.12488 0
M  V30 7 C 4.66072 -0.34757 -0.975238 0
M  V30 8 Cl 2.98366 -1.87644 -2.48429 0
M  V30 9 C 0.991039 -1.04233 -0.428606 0
M  V30 10 O 0.123874 -0.592924 0.591661 0
M  V30 11 N -1.18586 -0.93825 0.645363 0
M  V30 12 C -2.16028 -0.132162 0.378456 0
M  V30 13 C -3.5167 -0.631937 0.475097 0
M  V30 14 N -3.95731 -1.85194 0.811805 0
M  V30 15 O -5.26143 -1.87214 0.771749 0
M  V30 16 N -5.70731 -0.681909 0.412446 0
M  V30 17 C -4.63782 0.12488 0.217164 0
M  V30 18 N -4.68776 1.47452 -0.17422 0
M  V30 19 N -1.87067 1.19392 0.00584693 0
M  V30 20 H 4.2046 1.43545 1.80705 0
M  V30 21 H 1.8918 0.572449 1.53429 0
M  V30 22 H 5.44668 -0.598366 -1.67256 0
M  V30 23 H 0.614458 -0.80193 -1.43791 0
M  V30 24 H 1.03602 -2.14597 -0.350938 0
M  V30 25 H -5.02132 1.73986 -1.12055 0
M  V30 26 H -4.39591 2.25834 0.460117 0
M  V30 27 H -1.36795 1.82976 0.64237 0
M  V30 28 H -2.16234 1.54582 -0.91865 0
M  V30 END ATOM
M  V30 BEGIN BOND
M  V30 1 1 1 2
M  V30 2 2 2 3
M  V30 3 1 3 4
M  V30 4 2 4 5
M  V30 5 1 5 6
M  V30 6 2 6 7
M  V30 7 1 6 8
M  V30 8 1 5 9
M  V30 9 1 9 10
M  V30 10 1 10 11
M  V30 11 2 11 12
M  V30 12 1 12 13
M  V30 13 2 13 14
M  V30 14 1 14 15
M  V30 15 1 15 16
M  V30 16 2 16 17
M  V30 17 1 17 18
M  V30 18 1 12 19
M  V30 19 1 7 2
M  V30 20 1 17 13
M  V30 21 1 3 20
M  V30 22 1 4 21
M  V30 23 1 7 22
M  V30 24 1 9 23
M  V30 25 1 9 24
M  V30 26 1 18 25
M  V30 27 1 18 26
M  V30 28 1 19 27
M  V30 29 1 19 28
M  V30 END BOND
M  V30 END CTAB
M  END
