
     RDKit          3D

  0  0  0  0  0  0  0  0  0  0999 V3000
M  V30 BEGIN CTAB
M  V30 COUNTS 56 59 0 0 0
M  V30 BEGIN ATOM
M  V30 1 N -9.12388 -1.58068 -2.46059 0
M  V30 2 C -7.90479 -1.113 -2.97673 0
M  V30 3 N -7.64498 -1.21118 -4.22392 0
M  V30 4 C -6.90501 -0.511487 -2.10521 0
M  V30 5 C -5.68716 -0.0587552 -2.62653 0
M  V30 6 C -4.7506 0.511724 -1.78535 0
M  V30 7 C -4.94971 0.663362 -0.438359 0
M  V30 8 C -3.88462 1.30362 0.409072 0
M  V30 9 O -2.67892 0.555097 0.389261 0
M  V30 10 C -1.59461 0.998709 1.11621 0
M  V30 11 C -1.67844 2.1685 1.86726 0
M  V30 12 C -0.599099 2.6041 2.58654 0
M  V30 13 C 0.562236 1.8717 2.55484 0
M  V30 14 C 0.661554 0.715469 1.81915 0
M  V30 15 C 1.88878 0.0432294 1.85507 0
M  V30 16 O 2.89991 0.567546 2.61173 0
M  V30 17 C 4.14627 0.00605949 2.7174 0
M  V30 18 C 4.95939 -0.066198 1.50024 0
M  V30 19 C 6.04126 -0.927413 1.5151 0
M  V30 20 C 6.90667 -1.04225 0.442327 0
M  V30 21 C 6.71525 -0.28574 -0.701166 0
M  V30 22 C 5.63436 0.564566 -0.69949 0
M  V30 23 C 4.77966 0.676363 0.361404 0
M  V30 24 C 7.65249 -0.369325 -1.82758 0
M  V30 25 N 8.8037 -1.24156 -1.6731 0
M  V30 26 N 7.51318 0.243387 -2.85899 0
M  V30 27 C 1.96496 -1.11253 1.11083 0
M  V30 28 C 0.889212 -1.59137 0.363331 0
M  V30 29 C -0.295259 -0.88605 0.366322 0
M  V30 30 C -0.42619 0.276825 1.09434 0
M  V30 31 C -6.14509 0.223797 0.0911562 0
M  V30 32 C -7.09966 -0.356053 -0.754619 0
M  V30 33 H -9.4495 -2.55393 -2.63606 0
M  V30 34 H -9.74476 -0.970723 -1.88466 0
M  V30 35 H -8.32463 -1.64065 -4.90405 0
M  V30 36 H -5.52181 -0.174751 -3.68529 0
M  V30 37 H -3.79625 0.86754 -2.19029 0
M  V30 38 H -3.73035 2.3503 0.0854834 0
M  V30 39 H -4.20292 1.33339 1.47174 0
M  V30 40 H -2.59771 2.74634 1.88532 0
M  V30 41 H -0.657283 3.49363 3.16204 0
M  V30 42 H 1.4214 2.23532 3.13431 0
M  V30 43 H 4.7848 0.503913 3.51035 0
M  V30 44 H 4.01299 -1.0342 3.13664 0
M  V30 45 H 6.23984 -1.54788 2.37877 0
M  V30 46 H 7.76167 -1.72448 0.459772 0
M  V30 47 H 5.48966 1.15577 -1.59806 0
M  V30 48 H 3.93173 1.34998 0.361718 0
M  V30 49 H 8.85751 -2.14415 -2.19007 0
M  V30 50 H 9.59368 -0.982607 -1.04436 0
M  V30 51 H 6.99274 0.87691 -3.40939 0
M  V30 52 H 2.87804 -1.66684 1.10614 0
M  V30 53 H 0.965899 -2.49593 -0.210865 0
M  V30 54 H -1.1479 -1.22624 -0.200233 0
M  V30 55 H -6.34615 0.323658 1.14539 0
M  V30 56 H -8.06159 -0.71487 -0.362051 0
M  V30 END ATOM
M  V30 BEGIN BOND
M  V30 1 1 1 2
M  V30 2 2 2 3 CFG=2
M  V30 3 1 2 4
M  V30 4 2 4 5
M  V30 5 1 5 6
M  V30 6 2 6 7
M  V30 7 1 7 8
M  V30 8 1 8 9
M  V30 9 1 9 10
M  V30 10 2 10 11
M  V30 11 1 11 12
M  V30 12 2 12 13
M  V30 13 1 13 14
M  V30 14 2 14 15
M  V30 15 1 15 16
M  V30 16 1 16 17
M  V30 17 1 17 18
M  V30 18 2 18 19
M  V30 19 1 19 20
M  V30 20 2 20 21
M  V30 21 1 21 22
M  V30 22 2 22 23
M  V30 23 1 21 24
M  V30 24 1 24 25
M  V30 25 2 24 26 CFG=2
M  V30 26 1 15 27
M  V30 27 2 27 28
M  V30 28 1 28 29
M  V30 29 2 29 30
M  V30 30 1 7 31
M  V30 31 2 31 32
M  V30 32 1 32 4
M  V30 33 1 30 10
M  V30 34 1 30 14
M  V30 35 1 23 18
M  V30 36 1 1 33
M  V30 37 1 1 34
M  V30 38 1 3 35
M  V30 39 1 5 36
M  V30 40 1 6 37
M  V30 41 1 8 38
M  V30 42 1 8 39
M  V30 43 1 11 40
M  V30 44 1 12 41
M  V30 45 1 13 42
M  V30 46 1 17 43
M  V30 47 1 17 44
M  V30 48 1 19 45
M  V30 49 1 20 46
M  V30 50 1 22 47
M  V30 51 1 23 48
M  V30 52 1 25 49
M  V30 53 1 25 50
M  V30 54 1 26 51
M  V30 55 1 27 52
M  V30 56 1 28 53
M  V30 57 1 29 54
M  V30 58 1 31 55
M  V30 59 1 32 56
M  V30 END BOND
M  V30 END CTAB
M  END
