
     RDKit          3D

  0  0  0  0  0  0  0  0  0  0999 V3000
M  V30 BEGIN CTAB
M  V30 COUNTS 29 30 0 0 0
M  V30 BEGIN ATOM
M  V30 1 C -3.90613 1.0841 -0.5747 0
M  V30 2 N -3.33318 -0.242192 -0.693244 0
M  V30 3 C -1.89329 -0.130831 -0.881216 0
M  V30 4 C -1.73214 -0.204312 0.614433 0
M  V30 5 C -3.08136 -0.902693 0.570864 0
M  V30 6 N -0.652924 -1.0013 1.10406 0
M  V30 7 C 0.678475 -0.674208 0.734807 0
M  V30 8 C 1.69412 -1.46557 1.22633 0
M  V30 9 C 2.9833 -1.14125 0.863146 0
M  V30 10 C 3.20654 -0.0572813 0.0367599 0
M  V30 11 C 2.16471 0.720251 -0.442008 0
M  V30 12 N 0.920133 0.382987 -0.0734354 0
M  V30 13 N 2.49504 1.80774 -1.28119 0
M  V30 14 N 4.54083 0.257144 -0.323303 0
M  V30 15 H -3.19564 1.86826 -0.873016 0
M  V30 16 H -4.36518 1.26056 0.418429 0
M  V30 17 H -4.74758 1.12967 -1.31397 0
M  V30 18 H -1.43819 -0.986092 -1.41902 0
M  V30 19 H -1.55994 0.808056 -1.35052 0
M  V30 20 H -1.80066 0.801036 1.06076 0
M  V30 21 H -3.70248 -0.591871 1.41232 0
M  V30 22 H -2.99975 -1.99952 0.390115 0
M  V30 23 H -0.848533 -1.81382 1.72611 0
M  V30 24 H 1.49692 -2.32467 1.8832 0
M  V30 25 H 3.80302 -1.75655 1.24245 0
M  V30 26 H 3.0697 1.71436 -2.12464 0
M  V30 27 H 2.1312 2.74808 -1.02083 0
M  V30 28 H 4.87623 1.25281 -0.448 0
M  V30 29 H 5.19677 -0.542898 -0.464696 0
M  V30 END ATOM
M  V30 BEGIN BOND
M  V30 1 1 1 2
M  V30 2 1 2 3
M  V30 3 1 3 4
M  V30 4 1 4 5
M  V30 5 1 4 6
M  V30 6 1 6 7
M  V30 7 2 7 8
M  V30 8 1 8 9
M  V30 9 2 9 10
M  V30 10 1 10 11
M  V30 11 2 11 12
M  V30 12 1 11 13
M  V30 13 1 10 14
M  V30 14 1 5 2
M  V30 15 1 12 7
M  V30 16 1 1 15
M  V30 17 1 1 16
M  V30 18 1 1 17
M  V30 19 1 3 18
M  V30 20 1 3 19
M  V30 21 1 4 20
M  V30 22 1 5 21
M  V30 23 1 5 22
M  V30 24 1 6 23
M  V30 25 1 8 24
M  V30 26 1 9 25
M  V30 27 1 13 26
M  V30 28 1 13 27
M  V30 29 1 14 28
M  V30 30 1 14 29
M  V30 END BOND
M  V30 END CTAB
M  END
