
     RDKit          3D

  0  0  0  0  0  0  0  0  0  0999 V3000
M  V30 BEGIN CTAB
M  V30 COUNTS 29 30 0 0 0
M  V30 BEGIN ATOM
M  V30 1 N -2.04759 2.29447 0.45678 0
M  V30 2 C -0.66449 1.81071 0.678169 0
M  V30 3 C -0.449824 0.733981 -0.312137 0
M  V30 4 C 0.825919 0.0882861 -0.434246 0
M  V30 5 C 1.4404 0.0889884 -1.70045 0
M  V30 6 N 2.58798 -0.540291 -1.95518 0
M  V30 7 C 3.25976 -1.22763 -1.03683 0
M  V30 8 C 2.72218 -1.27291 0.226462 0
M  V30 9 C 1.52952 -0.622931 0.510093 0
M  V30 10 N 1.0699 -0.632529 1.82134 0
M  V30 11 C -1.59608 -0.254866 -0.363198 0
M  V30 12 C -2.08883 -1.07768 0.726649 0
M  V30 13 C -1.35318 -1.72782 -0.438362 0
M  V30 14 O -0.655762 1.43381 -1.58399 0
M  V30 15 H -2.05163 2.97958 -0.3559 0
M  V30 16 H -2.31992 2.86298 1.29049 0
M  V30 17 H -0.038479 2.69322 0.435359 0
M  V30 18 H -0.663764 1.53183 1.73474 0
M  V30 19 H 0.998368 0.608572 -2.5328 0
M  V30 20 H 4.17177 -1.73152 -1.23087 0
M  V30 21 H 3.22767 -1.81733 1.009 0
M  V30 22 H 1.16729 0.201114 2.43267 0
M  V30 23 H 0.623206 -1.48443 2.21264 0
M  V30 24 H -2.44328 0.0345162 -1.10649 0
M  V30 25 H -3.19967 -1.35456 0.696826 0
M  V30 26 H -1.72177 -1.17285 1.73753 0
M  V30 27 H -0.420652 -2.22084 -0.195812 0
M  V30 28 H -1.95262 -2.34842 -1.16524 0
M  V30 29 H 0.0435787 2.12454 -1.55723 0
M  V30 END ATOM
M  V30 BEGIN BOND
M  V30 1 1 1 2
M  V30 2 1 2 3
M  V30 3 1 3 4
M  V30 4 2 4 5
M  V30 5 1 5 6
M  V30 6 2 6 7
M  V30 7 1 7 8
M  V30 8 2 8 9
M  V30 9 1 9 10
M  V30 10 1 3 11
M  V30 11 1 11 12
M  V30 12 1 12 13
M  V30 13 1 3 14
M  V30 14 1 9 4
M  V30 15 1 13 11
M  V30 16 1 1 15
M  V30 17 1 1 16
M  V30 18 1 2 17
M  V30 19 1 2 18
M  V30 20 1 5 19
M  V30 21 1 7 20
M  V30 22 1 8 21
M  V30 23 1 10 22
M  V30 24 1 10 23
M  V30 25 1 11 24
M  V30 26 1 12 25
M  V30 27 1 12 26
M  V30 28 1 13 27
M  V30 29 1 13 28
M  V30 30 1 14 29
M  V30 END BOND
M  V30 END CTAB
M  END
