
     RDKit          3D

  0  0  0  0  0  0  0  0  0  0999 V3000
M  V30 BEGIN CTAB
M  V30 COUNTS 39 40 0 0 0
M  V30 BEGIN ATOM
M  V30 1 C -4.64724 -0.332241 -1.14415 0
M  V30 2 C -4.34831 -1.32905 -0.064444 0
M  V30 3 C -3.7228 -0.738198 1.12937 0
M  V30 4 C -2.41186 -0.0908402 1.05472 0
M  V30 5 C -2.21422 1.08154 0.171803 0
M  V30 6 C -0.796254 1.63787 0.267486 0
M  V30 7 O 0.161757 0.652174 -0.112264 0
M  V30 8 C 1.49777 1.02889 -0.069705 0
M  V30 9 C 2.488 0.121735 -0.426149 0
M  V30 10 C 2.15366 -1.1648 -0.827134 0
M  V30 11 N 0.781635 -1.53406 -0.86575 0
M  V30 12 N 3.13627 -2.02172 -1.16688 0
M  V30 13 C 4.44486 -1.69374 -1.13843 0
M  V30 14 N 5.45143 -2.62664 -1.50452 0
M  V30 15 N 4.73528 -0.439862 -0.745521 0
M  V30 16 C 3.82376 0.470556 -0.392552 0
M  V30 17 C 4.16472 1.75434 0.00683506 0
M  V30 18 C 3.21999 2.69098 0.370151 0
M  V30 19 C 1.90257 2.3015 0.322158 0
M  V30 20 H -3.99168 -0.4195 -2.03522 0
M  V30 21 H -5.70236 -0.480965 -1.5496 0
M  V30 22 H -4.66316 0.709693 -0.774763 0
M  V30 23 H -3.82682 -2.23328 -0.455964 0
M  V30 24 H -5.35209 -1.74273 0.269476 0
M  V30 25 H -3.65419 -1.50153 1.97836 0
M  V30 26 H -4.44703 0.0171525 1.59415 0
M  V30 27 H -2.15652 0.246087 2.11226 0
M  V30 28 H -1.63789 -0.896811 0.873069 0
M  V30 29 H -2.89898 1.9027 0.407449 0
M  V30 30 H -2.28599 0.737268 -0.894027 0
M  V30 31 H -0.57298 2.06079 1.25258 0
M  V30 32 H -0.714894 2.45597 -0.47767 0
M  V30 33 H 0.35996 -1.91152 0.0103682 0
M  V30 34 H 0.215921 -1.43217 -1.73654 0
M  V30 35 H 6.20857 -2.89705 -0.845133 0
M  V30 36 H 5.43802 -3.04992 -2.44399 0
M  V30 37 H 5.21746 1.98644 0.0193323 0
M  V30 38 H 3.52394 3.68801 0.677972 0
M  V30 39 H 1.11971 2.99294 0.595514 0
M  V30 END ATOM
M  V30 BEGIN BOND
M  V30 1 1 1 2
M  V30 2 1 2 3
M  V30 3 1 3 4
M  V30 4 1 4 5
M  V30 5 1 5 6
M  V30 6 1 6 7
M  V30 7 1 7 8
M  V30 8 2 8 9
M  V30 9 1 9 10
M  V30 10 1 10 11
M  V30 11 2 10 12
M  V30 12 1 12 13
M  V30 13 1 13 14
M  V30 14 2 13 15
M  V30 15 1 15 16
M  V30 16 2 16 17
M  V30 17 1 17 18
M  V30 18 2 18 19
M  V30 19 1 19 8
M  V30 20 1 16 9
M  V30 21 1 1 20
M  V30 22 1 1 21
M  V30 23 1 1 22
M  V30 24 1 2 23
M  V30 25 1 2 24
M  V30 26 1 3 25
M  V30 27 1 3 26
M  V30 28 1 4 27
M  V30 29 1 4 28
M  V30 30 1 5 29
M  V30 31 1 5 30
M  V30 32 1 6 31
M  V30 33 1 6 32
M  V30 34 1 11 33
M  V30 35 1 11 34
M  V30 36 1 14 35
M  V30 37 1 14 36
M  V30 38 1 17 37
M  V30 39 1 18 38
M  V30 40 1 19 39
M  V30 END BOND
M  V30 END CTAB
M  END
