
     RDKit          3D

  0  0  0  0  0  0  0  0  0  0999 V3000
M  V30 BEGIN CTAB
M  V30 COUNTS 42 44 0 0 0
M  V30 BEGIN ATOM
M  V30 1 O 0.0258779 -1.83344 -1.13291 0
M  V30 2 C 0.218385 -1.23706 -0.0330038 0
M  V30 3 N 1.14361 -0.180999 0.091879 0
M  V30 4 C 1.34052 0.471938 1.34318 0
M  V30 5 C 2.50155 1.42033 1.40204 0
M  V30 6 C 3.63397 1.03721 0.539367 0
M  V30 7 C 3.32868 0.456492 -0.684894 0
M  V30 8 C 1.90229 0.230548 -1.06694 0
M  V30 9 C 4.32498 0.0794723 -1.54847 0
M  V30 10 C 5.67383 0.263059 -1.23283 0
M  V30 11 C 5.95435 0.842659 -0.00886467 0
M  V30 12 C 4.9533 1.21804 0.851141 0
M  V30 13 C -0.578203 -1.70325 1.12169 0
M  V30 14 S -1.72285 -0.495843 1.77662 0
M  V30 15 C -3.02905 -0.0828605 0.66252 0
M  V30 16 N -4.20975 -0.727373 0.602637 0
M  V30 17 C -5.19696 -0.403961 -0.250348 0
M  V30 18 N -6.43445 -1.07514 -0.316877 0
M  V30 19 C -5.00512 0.652994 -1.12732 0
M  V30 20 C -3.80102 1.32394 -1.07903 0
M  V30 21 N -2.85531 0.947123 -0.199462 0
M  V30 22 N -3.56376 2.42105 -1.968 0
M  V30 23 C -1.2317 -3.04354 0.848942 0
M  V30 24 H 1.48294 -0.288064 2.15393 0
M  V30 25 H 0.432029 1.09638 1.60755 0
M  V30 26 H 2.89573 1.41351 2.45392 0
M  V30 27 H 2.18045 2.47009 1.17056 0
M  V30 28 H 1.47577 1.17648 -1.44302 0
M  V30 29 H 1.87222 -0.536404 -1.87307 0
M  V30 30 H 4.07375 -0.376506 -2.50955 0
M  V30 31 H 6.46136 -0.0342265 -1.91443 0
M  V30 32 H 7.01439 0.978737 0.221603 0
M  V30 33 H 5.20851 1.66637 1.79515 0
M  V30 34 H 0.174789 -1.90945 1.94043 0
M  V30 35 H -7.04586 -1.10666 0.511696 0
M  V30 36 H -6.73135 -1.53482 -1.18946 0
M  V30 37 H -5.77386 0.955875 -1.8392 0
M  V30 38 H -4.34738 3.00389 -2.34146 0
M  V30 39 H -2.60071 2.68422 -2.28004 0
M  V30 40 H -1.01759 -3.79702 1.63504 0
M  V30 41 H -0.806126 -3.46302 -0.10269 0
M  V30 42 H -2.3222 -2.98075 0.735237 0
M  V30 END ATOM
M  V30 BEGIN BOND
M  V30 1 2 1 2
M  V30 2 1 2 3
M  V30 3 1 3 4
M  V30 4 1 4 5
M  V30 5 1 5 6
M  V30 6 2 6 7
M  V30 7 1 7 8
M  V30 8 1 7 9
M  V30 9 2 9 10
M  V30 10 1 10 11
M  V30 11 2 11 12
M  V30 12 1 2 13
M  V30 13 1 13 14
M  V30 14 1 14 15
M  V30 15 2 15 16
M  V30 16 1 16 17
M  V30 17 1 17 18
M  V30 18 2 17 19
M  V30 19 1 19 20
M  V30 20 2 20 21
M  V30 21 1 20 22
M  V30 22 1 13 23
M  V30 23 1 8 3
M  V30 24 1 21 15
M  V30 25 1 12 6
M  V30 26 1 4 24
M  V30 27 1 4 25
M  V30 28 1 5 26
M  V30 29 1 5 27
M  V30 30 1 8 28
M  V30 31 1 8 29
M  V30 32 1 9 30
M  V30 33 1 10 31
M  V30 34 1 11 32
M  V30 35 1 12 33
M  V30 36 1 13 34
M  V30 37 1 18 35
M  V30 38 1 18 36
M  V30 39 1 19 37
M  V30 40 1 22 38
M  V30 41 1 22 39
M  V30 42 1 23 40
M  V30 43 1 23 41
M  V30 44 1 23 42
M  V30 END BOND
M  V30 END CTAB
M  END
