
     RDKit          3D

  0  0  0  0  0  0  0  0  0  0999 V3000
M  V30 BEGIN CTAB
M  V30 COUNTS 91 93 0 0 0
M  V30 BEGIN ATOM
M  V30 1 C -8.60925 5.97839 1.41307 0
M  V30 2 N -7.65942 5.15017 0.69213 0
M  V30 3 C -7.64299 5.43128 -0.713076 0
M  V30 4 C -7.70317 3.78956 1.06829 0
M  V30 5 C -6.71533 2.89739 0.367069 0
M  V30 6 C -5.32388 3.37128 0.653726 0
M  V30 7 N -4.27177 2.6127 0.0430005 0
M  V30 8 C -4.06226 1.24648 0.328923 0
M  V30 9 O -4.81723 0.671412 1.14836 0
M  V30 10 C -2.94458 0.4975 -0.344809 0
M  V30 11 C -2.96053 -0.914335 0.186695 0
M  V30 12 C -1.85146 -1.68732 -0.472139 0
M  V30 13 N -0.535088 -1.11069 -0.217049 0
M  V30 14 C 0.31083 -0.7038 -1.27246 0
M  V30 15 O -0.109447 -0.849934 -2.45323 0
M  V30 16 C 1.61211 -0.140771 -1.02533 0
M  V30 17 C 2.45635 0.104403 -2.09687 0
M  V30 18 C 3.69962 0.629889 -1.91599 0
M  V30 19 C 4.1351 0.928323 -0.630042 0
M  V30 20 C 3.33749 0.702755 0.44252 0
M  V30 21 C 2.07033 0.16478 0.231676 0
M  V30 22 N 5.4366 1.46982 -0.50586 0
M  V30 23 C 5.60164 2.89186 -0.560514 0
M  V30 24 C 6.53856 0.560879 -0.329789 0
M  V30 25 C 7.82241 1.31662 -0.263633 0
M  V30 26 N 8.34447 1.77964 0.880035 0
M  V30 27 C 9.49768 2.4484 0.858247 0
M  V30 28 C 10.0665 2.94272 2.03003 0
M  V30 29 N 9.36853 2.70301 3.24287 0
M  V30 30 N 11.2358 3.61933 1.99472 0
M  V30 31 C 11.8878 3.83954 0.844035 0
M  V30 32 N 13.1136 4.55477 0.842943 0
M  V30 33 N 11.3376 3.35983 -0.299778 0
M  V30 34 C 10.1767 2.68185 -0.308404 0
M  V30 35 N 9.64422 2.20979 -1.47155 0
M  V30 36 C 8.48539 1.53553 -1.46577 0
M  V30 37 C -1.86703 -3.1184 -0.0457465 0
M  V30 38 O -0.823814 -3.61507 0.469574 0
M  V30 39 N -3.03697 -3.89146 -0.223188 0
M  V30 40 C -3.03459 -5.29104 0.202064 0
M  V30 41 C -4.38502 -5.88632 -0.0999796 0
M  V30 42 C -4.44178 -7.34787 0.326915 0
M  V30 43 N -3.40217 -8.05226 -0.422506 0
M  V30 44 C -3.38624 -9.46029 -0.0512899 0
M  V30 45 C -3.72958 -7.89157 -1.83146 0
M  V30 46 H -8.53294 7.03166 1.09817 0
M  V30 47 H -8.4314 5.88275 2.50245 0
M  V30 48 H -9.62826 5.64001 1.11318 0
M  V30 49 H -8.56237 5.00875 -1.16584 0
M  V30 50 H -7.78366 6.55258 -0.789097 0
M  V30 51 H -6.7223 5.21265 -1.23778 0
M  V30 52 H -8.74079 3.40591 0.940331 0
M  V30 53 H -7.48743 3.719 2.15948 0
M  V30 54 H -6.83685 1.89923 0.830719 0
M  V30 55 H -6.93638 2.75518 -0.711122 0
M  V30 56 H -5.16644 4.44184 0.407931 0
M  V30 57 H -5.23337 3.35017 1.78589 0
M  V30 58 H -3.61305 3.07581 -0.654036 0
M  V30 59 H -3.1306 0.486412 -1.43728 0
M  V30 60 H -1.97643 1.00194 -0.174002 0
M  V30 61 H -3.9192 -1.39425 -0.156103 0
M  V30 62 H -2.92656 -0.955665 1.28225 0
M  V30 63 H -2.00438 -1.67552 -1.56476 0
M  V30 64 H -0.20773 -0.995481 0.76527 0
M  V30 65 H 2.09458 -0.136201 -3.08576 0
M  V30 66 H 4.32197 0.803833 -2.78231 0
M  V30 67 H 3.65497 0.926994 1.44525 0
M  V30 68 H 1.47855 0.00772832 1.11834 0
M  V30 69 H 6.65334 3.1978 -0.47973 0
M  V30 70 H 5.03385 3.33589 0.288154 0
M  V30 71 H 5.18752 3.26575 -1.53286 0
M  V30 72 H 6.44124 0.0322983 0.642957 0
M  V30 73 H 6.59019 -0.216845 -1.11004 0
M  V30 74 H 9.46216 3.38809 4.01195 0
M  V30 75 H 8.7872 1.84399 3.31271 0
M  V30 76 H 13.9955 4.05969 1.07757 0
M  V30 77 H 13.125 5.5564 0.61124 0
M  V30 78 H 8.04505 1.15228 -2.37728 0
M  V30 79 H -3.88789 -3.471 -0.650794 0
M  V30 80 H -2.80579 -5.31459 1.30731 0
M  V30 81 H -2.23114 -5.85226 -0.314623 0
M  V30 82 H -5.1783 -5.3144 0.402824 0
M  V30 83 H -4.53693 -5.78638 -1.19407 0
M  V30 84 H -4.33315 -7.43252 1.41069 0
M  V30 85 H -5.44604 -7.73162 -0.000281917 0
M  V30 86 H -3.04896 -10.121 -0.868475 0
M  V30 87 H -4.3647 -9.72034 0.363918 0
M  V30 88 H -2.65802 -9.53254 0.804671 0
M  V30 89 H -3.2155 -6.97748 -2.18618 0
M  V30 90 H -3.37225 -8.75384 -2.44118 0
M  V30 91 H -4.8181 -7.78144 -2.01606 0
M  V30 END ATOM
M  V30 BEGIN BOND
M  V30 1 1 1 2
M  V30 2 1 2 3
M  V30 3 1 2 4
M  V30 4 1 4 5
M  V30 5 1 5 6
M  V30 6 1 6 7
M  V30 7 1 7 8
M  V30 8 2 8 9
M  V30 9 1 8 10
M  V30 10 1 10 11
M  V30 11 1 11 12
M  V30 12 1 12 13
M  V30 13 1 13 14
M  V30 14 2 14 15
M  V30 15 1 14 16
M  V30 16 2 16 17
M  V30 17 1 17 18
M  V30 18 2 18 19
M  V30 19 1 19 20
M  V30 20 2 20 21
M  V30 21 1 19 22
M  V30 22 1 22 23
M  V30 23 1 22 24
M  V30 24 1 24 25
M  V30 25 2 25 26
M  V30 26 1 26 27
M  V30 27 2 27 28
M  V30 28 1 28 29
M  V30 29 1 28 30
M  V30 30 2 30 31
M  V30 31 1 31 32
M  V30 32 1 31 33
M  V30 33 2 33 34
M  V30 34 1 34 35
M  V30 35 2 35 36
M  V30 36 1 12 37
M  V30 37 2 37 38
M  V30 38 1 37 39
M  V30 39 1 39 40
M  V30 40 1 40 41
M  V30 41 1 41 42
M  V30 42 1 42 43
M  V30 43 1 43 44
M  V30 44 1 43 45
M  V30 45 1 21 16
M  V30 46 1 36 25
M  V30 47 1 34 27
M  V30 48 1 1 46
M  V30 49 1 1 47
M  V30 50 1 1 48
M  V30 51 1 3 49
M  V30 52 1 3 50
M  V30 53 1 3 51
M  V30 54 1 4 52
M  V30 55 1 4 53
M  V30 56 1 5 54
M  V30 57 1 5 55
M  V30 58 1 6 56
M  V30 59 1 6 57
M  V30 60 1 7 58
M  V30 61 1 10 59
M  V30 62 1 10 60
M  V30 63 1 11 61
M  V30 64 1 11 62
M  V30 65 1 12 63
M  V30 66 1 13 64
M  V30 67 1 17 65
M  V30 68 1 18 66
M  V30 69 1 20 67
M  V30 70 1 21 68
M  V30 71 1 23 69
M  V30 72 1 23 70
M  V30 73 1 23 71
M  V30 74 1 24 72
M  V30 75 1 24 73
M  V30 76 1 29 74
M  V30 77 1 29 75
M  V30 78 1 32 76
M  V30 79 1 32 77
M  V30 80 1 36 78
M  V30 81 1 39 79
M  V30 82 1 40 80
M  V30 83 1 40 81
M  V30 84 1 41 82
M  V30 85 1 41 83
M  V30 86 1 42 84
M  V30 87 1 42 85
M  V30 88 1 44 86
M  V30 89 1 44 87
M  V30 90 1 44 88
M  V30 91 1 45 89
M  V30 92 1 45 90
M  V30 93 1 45 91
M  V30 END BOND
M  V30 END CTAB
M  END
