
     RDKit          3D

  0  0  0  0  0  0  0  0  0  0999 V3000
M  V30 BEGIN CTAB
M  V30 COUNTS 22 23 0 0 0
M  V30 BEGIN ATOM
M  V30 1 N 4.65181 -0.0989147 0.383179 0
M  V30 2 C 3.30178 0.278309 0.159053 0
M  V30 3 N 2.94488 1.43313 -0.430325 0
M  V30 4 N 1.62567 1.43389 -0.464502 0
M  V30 5 C 1.14288 0.31252 0.0865536 0
M  V30 6 N 2.17815 -0.41827 0.480257 0
M  V30 7 C -0.273606 -0.0217078 0.218201 0
M  V30 8 C -1.27059 0.812401 -0.22641 0
M  V30 9 C -2.60374 0.496468 -0.101814 0
M  V30 10 N -3.58758 1.40085 -0.581389 0
M  V30 11 C -2.95468 -0.707627 0.494175 0
M  V30 12 C -1.9787 -1.55366 0.944238 0
M  V30 13 C -0.652023 -1.21854 0.809834 0
M  V30 14 F -2.29054 -2.74956 1.53711 0
M  V30 15 H 4.97446 -1.06647 0.210272 0
M  V30 16 H 5.29835 0.636387 0.726939 0
M  V30 17 H 2.19601 -1.36348 0.955633 0
M  V30 18 H -0.944258 1.75274 -0.690504 0
M  V30 19 H -4.5179 1.4208 -0.135204 0
M  V30 20 H -3.3931 2.03976 -1.36735 0
M  V30 21 H -4.00148 -0.942878 0.585565 0
M  V30 22 H 0.15422 -1.87615 1.16088 0
M  V30 END ATOM
M  V30 BEGIN BOND
M  V30 1 1 1 2
M  V30 2 2 2 3
M  V30 3 1 3 4
M  V30 4 2 4 5
M  V30 5 1 5 6
M  V30 6 1 5 7
M  V30 7 2 7 8
M  V30 8 1 8 9
M  V30 9 1 9 10
M  V30 10 2 9 11
M  V30 11 1 11 12
M  V30 12 2 12 13
M  V30 13 1 12 14
M  V30 14 1 6 2
M  V30 15 1 13 7
M  V30 16 1 1 15
M  V30 17 1 1 16
M  V30 18 1 6 17
M  V30 19 1 8 18
M  V30 20 1 10 19
M  V30 21 1 10 20
M  V30 22 1 11 21
M  V30 23 1 13 22
M  V30 END BOND
M  V30 END CTAB
M  END
