
     RDKit          3D

  0  0  0  0  0  0  0  0  0  0999 V3000
M  V30 BEGIN CTAB
M  V30 COUNTS 24 23 0 0 0
M  V30 BEGIN ATOM
M  V30 1 N -3.15703 -1.24227 -0.152227 0
M  V30 2 C -2.00796 -0.3991 0.126917 0
M  V30 3 C -0.843874 -0.953264 -0.666883 0
M  V30 4 N 0.368103 -0.170864 -0.4548 0
M  V30 5 C 0.871665 -0.336173 0.888935 0
M  V30 6 C 2.16325 0.401775 1.08536 0
M  V30 7 N 3.20732 -0.0482436 0.190811 0
M  V30 8 N 0.154029 1.1676 -0.78857 0
M  V30 9 O -0.147409 2.11901 0.0828671 0
M  V30 10 N 0.259329 1.50158 -2.14384 0
M  V30 11 O -0.386373 2.45111 -2.6476 0
M  V30 12 H -3.08347 -1.66439 -1.09829 0
M  V30 13 H -3.28778 -1.94192 0.608205 0
M  V30 14 H -1.85231 -0.407559 1.21422 0
M  V30 15 H -2.3012 0.620993 -0.249522 0
M  V30 16 H -0.646873 -1.98111 -0.362578 0
M  V30 17 H -1.10188 -0.842032 -1.73952 0
M  V30 18 H 0.132721 0.00104744 1.64813 0
M  V30 19 H 1.04436 -1.4183 1.03866 0
M  V30 20 H 2.53567 0.154467 2.12599 0
M  V30 21 H 1.97627 1.4725 1.05817 0
M  V30 22 H 3.47207 0.651059 -0.536442 0
M  V30 23 H 3.01439 -0.990972 -0.206323 0
M  V30 24 H -0.383019 1.85505 0.978332 0
M  V30 END ATOM
M  V30 BEGIN BOND
M  V30 1 1 1 2
M  V30 2 1 2 3
M  V30 3 1 3 4
M  V30 4 1 4 5
M  V30 5 1 5 6
M  V30 6 1 6 7
M  V30 7 1 4 8
M  V30 8 1 8 9
M  V30 9 1 8 10
M  V30 10 2 10 11
M  V30 11 1 1 12
M  V30 12 1 1 13
M  V30 13 1 2 14
M  V30 14 1 2 15
M  V30 15 1 3 16
M  V30 16 1 3 17
M  V30 17 1 5 18
M  V30 18 1 5 19
M  V30 19 1 6 20
M  V30 20 1 6 21
M  V30 21 1 7 22
M  V30 22 1 7 23
M  V30 23 1 9 24
M  V30 END BOND
M  V30 END CTAB
M  END
