
     RDKit          3D

  0  0  0  0  0  0  0  0  0  0999 V3000
M  V30 BEGIN CTAB
M  V30 COUNTS 59 64 0 0 0
M  V30 BEGIN ATOM
M  V30 1 O 4.74 -1.39466 3.29645 0
M  V30 2 C 3.86345 -1.24548 2.41289 0
M  V30 3 C 2.37401 -1.45232 2.52474 0
M  V30 4 N 2.07779 -1.8278 1.15463 0
M  V30 5 C 3.04949 -1.18401 0.346466 0
M  V30 6 C 4.11719 -0.819553 1.02423 0
M  V30 7 C 5.30468 -0.136433 0.505525 0
M  V30 8 N 6.03643 0.804054 1.10231 0
M  V30 9 C 7.04249 1.15384 0.259901 0
M  V30 10 C 6.91354 0.397721 -0.885744 0
M  V30 11 N 5.83914 -0.384101 -0.705998 0
M  V30 12 C 7.78095 0.506357 -1.95399 0
M  V30 13 C 8.82293 1.42086 -1.8551 0
M  V30 14 C 8.96189 2.18251 -0.713786 0
M  V30 15 C 8.08066 2.05385 0.339108 0
M  V30 16 N 2.89294 -0.956857 -1.03715 0
M  V30 17 C 0.993437 -2.69827 0.70246 0
M  V30 18 C -0.303776 -1.97277 0.956611 0
M  V30 19 C -0.404327 -0.655924 0.225634 0
M  V30 20 N -1.68735 -0.0748546 0.556266 0
M  V30 21 C -2.04246 0.420827 1.87058 0
M  V30 22 C -3.54319 0.318458 1.81619 0
M  V30 23 O -4.33067 0.227146 2.77526 0
M  V30 24 C -3.91534 0.346828 0.389661 0
M  V30 25 C -2.81131 0.114521 -0.308015 0
M  V30 26 N -2.71069 0.0540722 -1.70734 0
M  V30 27 C -5.24858 0.584763 -0.156675 0
M  V30 28 N -6.16543 1.44184 0.345972 0
M  V30 29 C -7.28751 1.4142 -0.399092 0
M  V30 30 C -7.08061 0.506026 -1.4155 0
M  V30 31 N -5.83868 0.0314888 -1.22937 0
M  V30 32 C -8.07375 0.250732 -2.36615 0
M  V30 33 C -9.25497 0.908838 -2.28165 0
M  V30 34 C -9.48696 1.81509 -1.28352 0
M  V30 35 C -8.49983 2.05664 -0.354013 0
M  V30 36 H 2.12906 -2.23803 3.25565 0
M  V30 37 H 1.85765 -0.489619 2.73178 0
M  V30 38 H 5.50116 -1.0728 -1.43052 0
M  V30 39 H 7.64455 -0.106388 -2.83619 0
M  V30 40 H 9.51154 1.5168 -2.68601 0
M  V30 41 H 9.7731 2.89657 -0.634301 0
M  V30 42 H 8.18888 2.65265 1.23701 0
M  V30 43 H 2.38463 -1.65021 -1.61161 0
M  V30 44 H 3.28407 -0.104726 -1.47026 0
M  V30 45 H 1.1335 -3.00568 -0.330736 0
M  V30 46 H 1.00296 -3.57668 1.3797 0
M  V30 47 H -1.18077 -2.58126 0.633688 0
M  V30 48 H -0.426901 -1.79187 2.02878 0
M  V30 49 H -0.278391 -0.773105 -0.874786 0
M  V30 50 H 0.405506 0.0459342 0.578826 0
M  V30 51 H -1.61162 -0.256588 2.6204 0
M  V30 52 H -1.71856 1.47634 1.96201 0
M  V30 53 H -2.25657 -0.693944 -2.24924 0
M  V30 54 H -3.131 0.837098 -2.29199 0
M  V30 55 H -5.3888 -0.675615 -1.8382 0
M  V30 56 H -7.86821 -0.467963 -3.14416 0
M  V30 57 H -10.0479 0.718629 -3.02207 0
M  V30 58 H -10.4439 2.35611 -1.20552 0
M  V30 59 H -8.6696 2.77673 0.447866 0
M  V30 END ATOM
M  V30 BEGIN BOND
M  V30 1 2 1 2
M  V30 2 1 2 3
M  V30 3 1 3 4
M  V30 4 1 4 5
M  V30 5 2 5 6
M  V30 6 1 6 7
M  V30 7 2 7 8
M  V30 8 1 8 9
M  V30 9 2 9 10
M  V30 10 1 10 11
M  V30 11 1 10 12
M  V30 12 2 12 13
M  V30 13 1 13 14
M  V30 14 2 14 15
M  V30 15 1 5 16
M  V30 16 1 4 17
M  V30 17 1 17 18
M  V30 18 1 18 19
M  V30 19 1 19 20
M  V30 20 1 20 21
M  V30 21 1 21 22
M  V30 22 2 22 23
M  V30 23 1 22 24
M  V30 24 2 24 25
M  V30 25 1 25 26
M  V30 26 1 24 27
M  V30 27 2 27 28
M  V30 28 1 28 29
M  V30 29 2 29 30
M  V30 30 1 30 31
M  V30 31 1 30 32
M  V30 32 2 32 33
M  V30 33 1 33 34
M  V30 34 2 34 35
M  V30 35 1 6 2
M  V30 36 1 11 7
M  V30 37 1 25 20
M  V30 38 1 31 27
M  V30 39 1 15 9
M  V30 40 1 35 29
M  V30 41 1 3 36
M  V30 42 1 3 37
M  V30 43 1 11 38
M  V30 44 1 12 39
M  V30 45 1 13 40
M  V30 46 1 14 41
M  V30 47 1 15 42
M  V30 48 1 16 43
M  V30 49 1 16 44
M  V30 50 1 17 45
M  V30 51 1 17 46
M  V30 52 1 18 47
M  V30 53 1 18 48
M  V30 54 1 19 49
M  V30 55 1 19 50
M  V30 56 1 21 51
M  V30 57 1 21 52
M  V30 58 1 26 53
M  V30 59 1 26 54
M  V30 60 1 31 55
M  V30 61 1 32 56
M  V30 62 1 33 57
M  V30 63 1 34 58
M  V30 64 1 35 59
M  V30 END BOND
M  V30 END CTAB
M  END
