
     RDKit          3D

  0  0  0  0  0  0  0  0  0  0999 V3000
M  V30 BEGIN CTAB
M  V30 COUNTS 26 27 0 0 0
M  V30 BEGIN ATOM
M  V30 1 N -2.91648 -2.03562 -0.890554 0
M  V30 2 C -2.41546 -0.788036 -0.432156 0
M  V30 3 C -1.08072 -0.640595 -0.0883432 0
M  V30 4 C -0.591472 0.564777 0.355541 0
M  V30 5 N 0.75348 0.781168 0.716073 0
M  V30 6 C 1.78323 -0.194343 0.65638 0
M  V30 7 C 2.14243 -0.770229 -0.692847 0
M  V30 8 C 3.59387 -0.786115 -0.182615 0
M  V30 9 C 3.20612 0.389751 0.684359 0
M  V30 10 N -1.49405 1.57908 0.430857 0
M  V30 11 C -2.79038 1.44514 0.0995772 0
M  V30 12 N -3.24737 0.261195 -0.331236 0
M  V30 13 N -3.72342 2.50662 0.181014 0
M  V30 14 H -2.77351 -2.89798 -0.299592 0
M  V30 15 H -3.42326 -2.12721 -1.79622 0
M  V30 16 H -0.451945 -1.49804 -0.178691 0
M  V30 17 H 1.04052 1.74061 1.06204 0
M  V30 18 H 1.7489 -1.00599 1.40974 0
M  V30 19 H 1.77123 -1.77612 -0.929368 0
M  V30 20 H 1.98723 0.00109334 -1.47579 0
M  V30 21 H 4.34262 -0.57181 -0.960662 0
M  V30 22 H 3.73834 -1.70874 0.396877 0
M  V30 23 H 3.27492 1.33064 0.131103 0
M  V30 24 H 3.65471 0.38885 1.69736 0
M  V30 25 H -3.55693 3.28118 0.84773 0
M  V30 26 H -4.57262 2.53073 -0.410564 0
M  V30 END ATOM
M  V30 BEGIN BOND
M  V30 1 1 1 2
M  V30 2 2 2 3
M  V30 3 1 3 4
M  V30 4 1 4 5
M  V30 5 1 5 6
M  V30 6 1 6 7
M  V30 7 1 7 8
M  V30 8 1 8 9
M  V30 9 2 4 10
M  V30 10 1 10 11
M  V30 11 2 11 12
M  V30 12 1 11 13
M  V30 13 1 12 2
M  V30 14 1 9 6
M  V30 15 1 1 14
M  V30 16 1 1 15
M  V30 17 1 3 16
M  V30 18 1 5 17
M  V30 19 1 6 18
M  V30 20 1 7 19
M  V30 21 1 7 20
M  V30 22 1 8 21
M  V30 23 1 8 22
M  V30 24 1 9 23
M  V30 25 1 9 24
M  V30 26 1 13 25
M  V30 27 1 13 26
M  V30 END BOND
M  V30 END CTAB
M  END
