
     RDKit          3D

  0  0  0  0  0  0  0  0  0  0999 V3000
M  V30 BEGIN CTAB
M  V30 COUNTS 52 54 0 0 0
M  V30 BEGIN ATOM
M  V30 1 C -4.86826 -0.446717 -2.02927 0
M  V30 2 C -5.34624 -0.703006 -0.592959 0
M  V30 3 C -5.21837 -2.19795 -0.305412 0
M  V30 4 N -6.7464 -0.390112 -0.561779 0
M  V30 5 C -7.32026 0.472338 0.173086 0
M  V30 6 N -8.74351 0.696516 0.112467 0
M  V30 7 N -6.54293 1.23941 1.08103 0
M  V30 8 C -5.26948 1.04286 1.13926 0
M  V30 9 N -4.50546 1.81856 2.05306 0
M  V30 10 N -4.59574 0.0861808 0.331481 0
M  V30 11 C -3.18713 -0.0798343 0.446527 0
M  V30 12 C -2.29426 0.646266 -0.319565 0
M  V30 13 C -0.929033 0.488722 -0.211378 0
M  V30 14 C -0.392079 -0.413916 0.679662 0
M  V30 15 O 0.991071 -0.58543 0.801301 0
M  V30 16 C 1.82643 0.190165 -0.0125663 0
M  V30 17 C 3.26279 -0.164851 0.292402 0
M  V30 18 O 3.50739 -1.02024 1.14655 0
M  V30 19 N 4.26368 0.502318 -0.418014 0
M  V30 20 C 5.65167 0.296401 -0.270327 0
M  V30 21 C 6.25039 -0.767709 0.351727 0
M  V30 22 C 7.64343 -0.851703 0.454105 0
M  V30 23 C 8.43599 0.122588 -0.0629764 0
M  V30 24 C 7.82446 1.17627 -0.680274 0
M  V30 25 C 6.48074 1.29565 -0.800315 0
M  V30 26 S 10.18 0.0621657 0.0400351 0
M  V30 27 F 10.6914 0.816028 1.44749 0
M  V30 28 O 10.6878 -1.34824 -0.0389191 0
M  V30 29 O 10.7459 0.83968 -1.13125 0
M  V30 30 C -1.27758 -1.14739 1.45291 0
M  V30 31 C -2.64132 -0.981793 1.33655 0
M  V30 32 H -3.81433 -0.733104 -2.15242 0
M  V30 33 H -5.53856 -1.07848 -2.67015 0
M  V30 34 H -5.04542 0.613393 -2.22817 0
M  V30 35 H -5.37002 -2.32253 0.783459 0
M  V30 36 H -4.29083 -2.62418 -0.68924 0
M  V30 37 H -6.08351 -2.67567 -0.813247 0
M  V30 38 H -9.34012 0.467108 0.933464 0
M  V30 39 H -9.1294 1.08185 -0.753426 0
M  V30 40 H -4.23268 1.47031 2.99216 0
M  V30 41 H -4.18654 2.79027 1.79943 0
M  V30 42 H -2.72456 1.35535 -1.01923 0
M  V30 43 H -0.239461 1.06042 -0.814069 0
M  V30 44 H 1.72881 1.27287 0.163237 0
M  V30 45 H 1.68043 -0.00915628 -1.08031 0
M  V30 46 H 3.92087 1.21651 -1.12799 0
M  V30 47 H 5.67889 -1.56317 0.763212 0
M  V30 48 H 8.11106 -1.69448 0.946999 0
M  V30 49 H 8.44658 1.95798 -1.09593 0
M  V30 50 H 6.01524 2.15043 -1.29881 0
M  V30 51 H -0.84412 -1.85957 2.15558 0
M  V30 52 H -3.30731 -1.56938 1.95439 0
M  V30 END ATOM
M  V30 BEGIN BOND
M  V30 1 1 1 2
M  V30 2 1 2 3
M  V30 3 1 2 4
M  V30 4 2 4 5
M  V30 5 1 5 6
M  V30 6 1 5 7
M  V30 7 2 7 8
M  V30 8 1 8 9
M  V30 9 1 8 10
M  V30 10 1 10 11
M  V30 11 2 11 12
M  V30 12 1 12 13
M  V30 13 2 13 14
M  V30 14 1 14 15
M  V30 15 1 15 16
M  V30 16 1 16 17
M  V30 17 2 17 18
M  V30 18 1 17 19
M  V30 19 1 19 20
M  V30 20 2 20 21
M  V30 21 1 21 22
M  V30 22 2 22 23
M  V30 23 1 23 24
M  V30 24 2 24 25
M  V30 25 1 23 26
M  V30 26 1 26 27
M  V30 27 2 26 28
M  V30 28 2 26 29
M  V30 29 1 14 30
M  V30 30 2 30 31
M  V30 31 1 10 2
M  V30 32 1 31 11
M  V30 33 1 25 20
M  V30 34 1 1 32
M  V30 35 1 1 33
M  V30 36 1 1 34
M  V30 37 1 3 35
M  V30 38 1 3 36
M  V30 39 1 3 37
M  V30 40 1 6 38
M  V30 41 1 6 39
M  V30 42 1 9 40
M  V30 43 1 9 41
M  V30 44 1 12 42
M  V30 45 1 13 43
M  V30 46 1 16 44
M  V30 47 1 16 45
M  V30 48 1 19 46
M  V30 49 1 21 47
M  V30 50 1 22 48
M  V30 51 1 24 49
M  V30 52 1 25 50
M  V30 53 1 30 51
M  V30 54 1 31 52
M  V30 END BOND
M  V30 END CTAB
M  END
