
     RDKit          3D

  0  0  0  0  0  0  0  0  0  0999 V3000
M  V30 BEGIN CTAB
M  V30 COUNTS 58 61 0 0 0
M  V30 BEGIN ATOM
M  V30 1 C -4.08467 -2.9217 -2.76558 0
M  V30 2 C -3.29928 -3.42605 -1.57335 0
M  V30 3 O -2.79267 -2.39671 -0.76712 0
M  V30 4 C -3.5989 -1.49105 -0.163847 0
M  V30 5 O -4.86054 -1.59615 -0.356389 0
M  V30 6 C -3.16055 -0.371825 0.711932 0
M  V30 7 C -1.8797 -0.241442 0.963665 0
M  V30 8 C -0.779875 -1.0971 0.472677 0
M  V30 9 S 0.432184 -0.192402 -0.518145 0
M  V30 10 C 2.06257 -0.480794 0.166802 0
M  V30 11 N 2.25489 -1.3017 1.22309 0
M  V30 12 C 3.47527 -1.5843 1.72688 0
M  V30 13 N 3.62357 -2.45676 2.81788 0
M  V30 14 C 4.58288 -0.989092 1.11724 0
M  V30 15 C 4.45569 -0.147752 0.0461709 0
M  V30 16 C 3.16567 0.101236 -0.425271 0
M  V30 17 C 2.97147 0.971052 -1.52359 0
M  V30 18 N 2.79727 1.69001 -2.41386 0
M  V30 19 C 5.60546 0.445409 -0.586476 0
M  V30 20 C 6.06543 -0.0398555 -1.81227 0
M  V30 21 C 7.14122 0.473935 -2.47935 0
M  V30 22 C 7.86491 1.55559 -1.94755 0
M  V30 23 C 7.41203 2.03552 -0.736195 0
M  V30 24 C 6.33549 1.51418 -0.0797105 0
M  V30 25 F 8.91003 2.0236 -2.63594 0
M  V30 26 C 5.91301 -1.25715 1.6073 0
M  V30 27 N 6.99394 -1.49183 1.99045 0
M  V30 28 O -1.55373 0.857061 1.80571 0
M  V30 29 C -2.48705 1.71512 2.31729 0
M  V30 30 C -3.75773 1.57196 2.05745 0
M  V30 31 C -4.24414 0.483926 1.20042 0
M  V30 32 C -4.95401 1.17871 0.0672177 0
M  V30 33 C -6.21891 1.08475 -0.374628 0
M  V30 34 C -6.61515 1.83433 -1.41464 0
M  V30 35 C -5.64079 2.67061 -1.95646 0
M  V30 36 S -4.28823 2.34369 -0.990115 0
M  V30 37 C -4.72489 2.53131 2.61797 0
M  V30 38 N -5.50039 3.26421 3.05161 0
M  V30 39 N -2.12622 2.82292 3.16706 0
M  V30 40 H -3.79855 -1.86071 -2.91637 0
M  V30 41 H -3.87419 -3.52531 -3.68433 0
M  V30 42 H -5.17281 -3.02659 -2.5982 0
M  V30 43 H -3.94167 -4.08359 -0.942129 0
M  V30 44 H -2.43479 -4.04156 -1.96221 0
M  V30 45 H -0.152617 -1.39029 1.43402 0
M  V30 46 H -1.02833 -2.068 0.100517 0
M  V30 47 H 2.93341 -2.4931 3.58218 0
M  V30 48 H 4.45928 -3.08272 2.85041 0
M  V30 49 H 5.50804 -0.875138 -2.2278 0
M  V30 50 H 7.4667 0.0572725 -3.44929 0
M  V30 51 H 7.95172 2.8706 -0.302239 0
M  V30 52 H 5.99527 1.90924 0.888008 0
M  V30 53 H -5.02232 -0.0821265 1.76421 0
M  V30 54 H -6.94219 0.375194 0.122356 0
M  V30 55 H -7.6282 1.83448 -1.87504 0
M  V30 56 H -5.79179 3.35784 -2.81053 0
M  V30 57 H -2.23229 3.76754 2.75598 0
M  V30 58 H -1.79023 2.67151 4.11726 0
M  V30 END ATOM
M  V30 BEGIN BOND
M  V30 1 1 1 2
M  V30 2 1 2 3
M  V30 3 1 3 4
M  V30 4 2 4 5
M  V30 5 1 4 6
M  V30 6 2 6 7
M  V30 7 1 7 8
M  V30 8 1 8 9
M  V30 9 1 9 10
M  V30 10 2 10 11
M  V30 11 1 11 12
M  V30 12 1 12 13
M  V30 13 2 12 14
M  V30 14 1 14 15
M  V30 15 2 15 16
M  V30 16 1 16 17
M  V30 17 3 17 18
M  V30 18 1 15 19
M  V30 19 2 19 20
M  V30 20 1 20 21
M  V30 21 2 21 22
M  V30 22 1 22 23
M  V30 23 2 23 24
M  V30 24 1 22 25
M  V30 25 1 14 26
M  V30 26 3 26 27
M  V30 27 1 7 28
M  V30 28 1 28 29
M  V30 29 2 29 30
M  V30 30 1 30 31
M  V30 31 1 31 32
M  V30 32 2 32 33
M  V30 33 1 33 34
M  V30 34 2 34 35
M  V30 35 1 35 36
M  V30 36 1 30 37
M  V30 37 3 37 38
M  V30 38 1 29 39
M  V30 39 1 31 6
M  V30 40 1 36 32
M  V30 41 1 16 10
M  V30 42 1 24 19
M  V30 43 1 1 40
M  V30 44 1 1 41
M  V30 45 1 1 42
M  V30 46 1 2 43
M  V30 47 1 2 44
M  V30 48 1 8 45
M  V30 49 1 8 46
M  V30 50 1 13 47
M  V30 51 1 13 48
M  V30 52 1 20 49
M  V30 53 1 21 50
M  V30 54 1 23 51
M  V30 55 1 24 52
M  V30 56 1 31 53
M  V30 57 1 33 54
M  V30 58 1 34 55
M  V30 59 1 35 56
M  V30 60 1 39 57
M  V30 61 1 39 58
M  V30 END BOND
M  V30 END CTAB
M  END
