
     RDKit          3D

  0  0  0  0  0  0  0  0  0  0999 V3000
M  V30 BEGIN CTAB
M  V30 COUNTS 34 34 0 0 0
M  V30 BEGIN ATOM
M  V30 1 C -0.326515 1.45294 1.35022 0
M  V30 2 C -0.0080194 0.688901 0.0946139 0
M  V30 3 C 0.0206684 1.67863 -1.04664 0
M  V30 4 C 1.26797 -0.097164 0.2136 0
M  V30 5 C 2.50135 0.751694 0.139441 0
M  V30 6 N 3.64758 -0.145823 0.268889 0
M  V30 7 C 1.13536 -1.0386 -0.965016 0
M  V30 8 C -0.251671 -1.5877 -0.686837 0
M  V30 9 C -1.01995 -0.401545 -0.183714 0
M  V30 10 C -2.00923 -0.00436847 -1.25824 0
M  V30 11 C -1.79932 -0.677359 1.07045 0
M  V30 12 N -2.79119 -1.70209 0.911895 0
M  V30 13 H 0.452863 2.25038 1.45694 0
M  V30 14 H -0.290233 0.86205 2.26553 0
M  V30 15 H -1.27862 1.99858 1.18774 0
M  V30 16 H -0.0650946 1.21038 -2.03685 0
M  V30 17 H 0.896327 2.33855 -0.977293 0
M  V30 18 H -0.898612 2.32238 -0.911995 0
M  V30 19 H 1.24191 -0.660514 1.14311 0
M  V30 20 H 2.61263 1.24404 -0.845055 0
M  V30 21 H 2.46694 1.46095 0.986371 0
M  V30 22 H 3.76369 -0.480917 1.2437 0
M  V30 23 H 4.49774 0.237409 -0.167461 0
M  V30 24 H 1.91159 -1.82199 -0.97041 0
M  V30 25 H 1.10524 -0.46047 -1.92231 0
M  V30 26 H -0.122429 -2.37841 0.0834536 0
M  V30 27 H -0.644562 -1.99131 -1.64055 0
M  V30 28 H -2.83791 -0.770209 -1.19967 0
M  V30 29 H -2.4325 0.993727 -1.11986 0
M  V30 30 H -1.56164 -0.153764 -2.2839 0
M  V30 31 H -1.13158 -0.963347 1.92572 0
M  V30 32 H -2.33161 0.259175 1.33859 0
M  V30 33 H -3.31875 -1.7677 1.81124 0
M  V30 34 H -2.40241 -2.64649 0.724274 0
M  V30 END ATOM
M  V30 BEGIN BOND
M  V30 1 1 1 2
M  V30 2 1 2 3
M  V30 3 1 2 4
M  V30 4 1 4 5
M  V30 5 1 5 6
M  V30 6 1 4 7
M  V30 7 1 7 8
M  V30 8 1 8 9
M  V30 9 1 9 10
M  V30 10 1 9 11
M  V30 11 1 11 12
M  V30 12 1 9 2
M  V30 13 1 1 13
M  V30 14 1 1 14
M  V30 15 1 1 15
M  V30 16 1 3 16
M  V30 17 1 3 17
M  V30 18 1 3 18
M  V30 19 1 4 19
M  V30 20 1 5 20
M  V30 21 1 5 21
M  V30 22 1 6 22
M  V30 23 1 6 23
M  V30 24 1 7 24
M  V30 25 1 7 25
M  V30 26 1 8 26
M  V30 27 1 8 27
M  V30 28 1 10 28
M  V30 29 1 10 29
M  V30 30 1 10 30
M  V30 31 1 11 31
M  V30 32 1 11 32
M  V30 33 1 12 33
M  V30 34 1 12 34
M  V30 END BOND
M  V30 END CTAB
M  END
