
     RDKit          3D

  0  0  0  0  0  0  0  0  0  0999 V3000
M  V30 BEGIN CTAB
M  V30 COUNTS 48 50 0 0 0
M  V30 BEGIN ATOM
M  V30 1 C 5.56954 0.612278 -0.0550048 0
M  V30 2 C 4.14415 0.189205 -0.17138 0
M  V30 3 C 3.25821 0.402801 0.864803 0
M  V30 4 N 3.74043 1.03293 2.03667 0
M  V30 5 C 1.92471 0.0103227 0.763221 0
M  V30 6 C 1.44297 -0.600014 -0.363825 0
M  V30 7 C 2.32248 -0.815156 -1.39969 0
M  V30 8 C 3.66385 -0.424179 -1.30633 0
M  V30 9 C 0.03306 -1.03589 -0.516594 0
M  V30 10 C -0.161922 -1.7257 -1.86465 0
M  V30 11 C -0.294478 -1.95332 0.622947 0
M  V30 12 C -1.73164 -1.70123 0.904196 0
M  V30 13 C -2.04895 -1.63962 2.38473 0
M  V30 14 C -2.60429 -2.73186 0.21779 0
M  V30 15 C -1.95257 -0.332622 0.368603 0
M  V30 16 C -3.00061 0.56055 0.578951 0
M  V30 17 C -2.99329 1.79341 -0.0340405 0
M  V30 18 N -4.09193 2.69283 0.204462 0
M  V30 19 C -1.97829 2.21042 -0.870518 0
M  V30 20 C -2.00807 3.5506 -1.51341 0
M  V30 21 C -0.952174 1.30496 -1.06117 0
M  V30 22 C -0.931861 0.0671417 -0.462883 0
M  V30 23 H 5.85667 0.667368 0.999697 0
M  V30 24 H 5.65821 1.65228 -0.466134 0
M  V30 25 H 6.17969 -0.0923276 -0.654184 0
M  V30 26 H 3.39481 1.96508 2.33254 0
M  V30 27 H 4.45745 0.572462 2.63249 0
M  V30 28 H 1.22383 0.174272 1.5714 0
M  V30 29 H 2.02074 -1.29266 -2.32569 0
M  V30 30 H 4.36297 -0.586912 -2.11086 0
M  V30 31 H 0.509538 -2.59294 -1.91097 0
M  V30 32 H -1.23967 -2.02093 -1.98899 0
M  V30 33 H 0.0405858 -1.03132 -2.69591 0
M  V30 34 H -0.07277 -2.98964 0.309653 0
M  V30 35 H 0.361713 -1.76183 1.51077 0
M  V30 36 H -3.17368 -1.64846 2.45057 0
M  V30 37 H -1.70598 -2.52411 2.9288 0
M  V30 38 H -1.732 -0.67781 2.83507 0
M  V30 39 H -3.23282 -3.22804 0.988439 0
M  V30 40 H -2.0094 -3.50473 -0.268522 0
M  V30 41 H -3.2665 -2.2425 -0.499996 0
M  V30 42 H -3.79187 0.242422 1.22765 0
M  V30 43 H -5.06365 2.47649 -0.1038 0
M  V30 44 H -3.92461 3.57941 0.693557 0
M  V30 45 H -1.52215 3.54015 -2.51928 0
M  V30 46 H -3.04329 3.90681 -1.67523 0
M  V30 47 H -1.49359 4.30963 -0.859343 0
M  V30 48 H -0.143546 1.63997 -1.72862 0
M  V30 END ATOM
M  V30 BEGIN BOND
M  V30 1 1 1 2
M  V30 2 2 2 3
M  V30 3 1 3 4
M  V30 4 1 3 5
M  V30 5 2 5 6
M  V30 6 1 6 7
M  V30 7 2 7 8
M  V30 8 1 6 9
M  V30 9 1 9 10
M  V30 10 1 9 11
M  V30 11 1 11 12
M  V30 12 1 12 13
M  V30 13 1 12 14
M  V30 14 1 12 15
M  V30 15 2 15 16
M  V30 16 1 16 17
M  V30 17 1 17 18
M  V30 18 2 17 19
M  V30 19 1 19 20
M  V30 20 1 19 21
M  V30 21 2 21 22
M  V30 22 1 8 2
M  V30 23 1 22 9
M  V30 24 1 22 15
M  V30 25 1 1 23
M  V30 26 1 1 24
M  V30 27 1 1 25
M  V30 28 1 4 26
M  V30 29 1 4 27
M  V30 30 1 5 28
M  V30 31 1 7 29
M  V30 32 1 8 30
M  V30 33 1 10 31
M  V30 34 1 10 32
M  V30 35 1 10 33
M  V30 36 1 11 34
M  V30 37 1 11 35
M  V30 38 1 13 36
M  V30 39 1 13 37
M  V30 40 1 13 38
M  V30 41 1 14 39
M  V30 42 1 14 40
M  V30 43 1 14 41
M  V30 44 1 16 42
M  V30 45 1 18 43
M  V30 46 1 18 44
M  V30 47 1 20 45
M  V30 48 1 20 46
M  V30 49 1 20 47
M  V30 50 1 21 48
M  V30 END BOND
M  V30 END CTAB
M  END
