
     RDKit          3D

  0  0  0  0  0  0  0  0  0  0999 V3000
M  V30 BEGIN CTAB
M  V30 COUNTS 42 45 0 0 0
M  V30 BEGIN ATOM
M  V30 1 N 5.34671 2.45253 1.36908 0
M  V30 2 C 4.7397 1.34127 0.740166 0
M  V30 3 N 3.75158 0.689721 1.34305 0
M  V30 4 C 3.13256 -0.377213 0.794871 0
M  V30 5 N 3.56741 -0.762144 -0.41444 0
M  V30 6 C 4.58007 -0.104832 -1.04694 0
M  V30 7 N 5.17112 0.953453 -0.467945 0
M  V30 8 N 5.04777 -0.503266 -2.32559 0
M  V30 9 C 2.0396 -1.08171 1.48461 0
M  V30 10 N 0.730089 -0.543771 1.17581 0
M  V30 11 C 0.0950455 0.495945 1.90639 0
M  V30 12 O 0.601324 1.08424 2.92553 0
M  V30 13 N -1.16756 0.772619 1.3355 0
M  V30 14 C -1.30153 0.0568671 0.109081 0
M  V30 15 C -0.16442 -0.908673 0.137274 0
M  V30 16 O 0.0407081 -1.91213 -0.607317 0
M  V30 17 C -1.09207 0.987565 -1.04303 0
M  V30 18 C -2.29296 1.61355 -1.6205 0
M  V30 19 C -3.59633 1.2552 -1.018 0
M  V30 20 C -3.66932 -0.126891 -0.48886 0
M  V30 21 C -2.54621 -0.708243 0.0611209 0
M  V30 22 C -2.56635 -1.99104 0.566914 0
M  V30 23 C -3.75242 -2.71002 0.517505 0
M  V30 24 C -4.87903 -2.13704 -0.0301857 0
M  V30 25 C -4.83114 -0.843779 -0.532231 0
M  V30 26 H 6.3699 2.53555 1.5631 0
M  V30 27 H 4.72872 3.24572 1.6599 0
M  V30 28 H 5.65681 -1.33708 -2.38243 0
M  V30 29 H 4.80427 0.00483653 -3.19482 0
M  V30 30 H 2.16546 -1.03298 2.58683 0
M  V30 31 H 2.03909 -2.18399 1.24575 0
M  V30 32 H -1.91278 1.40293 1.72926 0
M  V30 33 H -0.488881 0.449712 -1.82726 0
M  V30 34 H -0.39277 1.79717 -0.679757 0
M  V30 35 H -2.21424 2.74015 -1.61559 0
M  V30 36 H -2.34678 1.36171 -2.72068 0
M  V30 37 H -3.85408 1.96662 -0.195115 0
M  V30 38 H -4.43999 1.35962 -1.75305 0
M  V30 39 H -1.72664 -2.49276 1.00534 0
M  V30 40 H -3.84693 -3.71647 0.892005 0
M  V30 41 H -5.80508 -2.69489 -0.0701844 0
M  V30 42 H -5.72043 -0.398068 -0.961935 0
M  V30 END ATOM
M  V30 BEGIN BOND
M  V30 1 1 1 2
M  V30 2 2 2 3
M  V30 3 1 3 4
M  V30 4 2 4 5
M  V30 5 1 5 6
M  V30 6 2 6 7
M  V30 7 1 6 8
M  V30 8 1 4 9
M  V30 9 1 9 10
M  V30 10 1 10 11
M  V30 11 2 11 12
M  V30 12 1 11 13
M  V30 13 1 13 14
M  V30 14 1 14 15
M  V30 15 2 15 16
M  V30 16 1 14 17
M  V30 17 1 17 18
M  V30 18 1 18 19
M  V30 19 1 19 20
M  V30 20 2 20 21
M  V30 21 1 21 22
M  V30 22 2 22 23
M  V30 23 1 23 24
M  V30 24 2 24 25
M  V30 25 1 7 2
M  V30 26 1 15 10
M  V30 27 1 25 20
M  V30 28 1 21 14
M  V30 29 1 1 26
M  V30 30 1 1 27
M  V30 31 1 8 28
M  V30 32 1 8 29
M  V30 33 1 9 30
M  V30 34 1 9 31
M  V30 35 1 13 32
M  V30 36 1 17 33
M  V30 37 1 17 34
M  V30 38 1 18 35
M  V30 39 1 18 36
M  V30 40 1 19 37
M  V30 41 1 19 38
M  V30 42 1 22 39
M  V30 43 1 23 40
M  V30 44 1 24 41
M  V30 45 1 25 42
M  V30 END BOND
M  V30 END CTAB
M  END
