
     RDKit          3D

  0  0  0  0  0  0  0  0  0  0999 V3000
M  V30 BEGIN CTAB
M  V30 COUNTS 34 34 0 0 0
M  V30 BEGIN ATOM
M  V30 1 C -3.43894 1.70041 1.12824 0
M  V30 2 C -3.77313 0.307462 0.625964 0
M  V30 3 S -2.69485 -0.0165856 -0.750514 0
M  V30 4 O -2.98217 -1.37748 -1.28706 0
M  V30 5 O -2.99859 1.01762 -1.79135 0
M  V30 6 C -1.0185 0.0762281 -0.18381 0
M  V30 7 C -0.0391105 -0.285161 -1.27512 0
M  V30 8 C 1.37041 -0.206393 -0.820416 0
M  V30 9 C 2.3749 -0.795404 -1.59718 0
M  V30 10 C 3.70459 -0.762161 -1.24843 0
M  V30 11 C 4.09533 -0.128178 -0.0886345 0
M  V30 12 C 3.13739 0.465053 0.705358 0
M  V30 13 C 1.79185 0.419685 0.332444 0
M  V30 14 N 3.50564 1.12196 1.89899 0
M  V30 15 N -0.282511 -1.62623 -1.77505 0
M  V30 16 C -0.905008 -0.891225 0.982488 0
M  V30 17 H -4.30623 2.14903 1.64251 0
M  V30 18 H -3.09094 2.36863 0.308186 0
M  V30 19 H -2.60073 1.59709 1.85633 0
M  V30 20 H -3.53085 -0.425931 1.40799 0
M  V30 21 H -4.84176 0.26353 0.308205 0
M  V30 22 H -0.823783 1.08612 0.220052 0
M  V30 23 H -0.192964 0.409223 -2.1232 0
M  V30 24 H 2.07688 -1.29704 -2.51244 0
M  V30 25 H 4.46196 -1.22581 -1.86721 0
M  V30 26 H 5.1469 -0.0901839 0.207109 0
M  V30 27 H 1.05846 0.892069 0.964676 0
M  V30 28 H 3.75644 0.560801 2.72817 0
M  V30 29 H 3.5279 2.15213 1.95515 0
M  V30 30 H 0.0600475 -1.68529 -2.75147 0
M  V30 31 H 0.0647878 -2.36961 -1.15033 0
M  V30 32 H 0.0257574 -1.49536 0.938814 0
M  V30 33 H -1.78239 -1.56109 1.05211 0
M  V30 34 H -0.856796 -0.34792 1.95941 0
M  V30 END ATOM
M  V30 BEGIN BOND
M  V30 1 1 1 2
M  V30 2 1 2 3
M  V30 3 2 3 4
M  V30 4 2 3 5
M  V30 5 1 3 6
M  V30 6 1 6 7
M  V30 7 1 7 8
M  V30 8 2 8 9
M  V30 9 1 9 10
M  V30 10 2 10 11
M  V30 11 1 11 12
M  V30 12 2 12 13
M  V30 13 1 12 14
M  V30 14 1 7 15
M  V30 15 1 6 16
M  V30 16 1 13 8
M  V30 17 1 1 17
M  V30 18 1 1 18
M  V30 19 1 1 19
M  V30 20 1 2 20
M  V30 21 1 2 21
M  V30 22 1 6 22
M  V30 23 1 7 23
M  V30 24 1 9 24
M  V30 25 1 10 25
M  V30 26 1 11 26
M  V30 27 1 13 27
M  V30 28 1 14 28
M  V30 29 1 14 29
M  V30 30 1 15 30
M  V30 31 1 15 31
M  V30 32 1 16 32
M  V30 33 1 16 33
M  V30 34 1 16 34
M  V30 END BOND
M  V30 END CTAB
M  END
