
     RDKit          3D

  0  0  0  0  0  0  0  0  0  0999 V3000
M  V30 BEGIN CTAB
M  V30 COUNTS 29 30 0 0 0
M  V30 BEGIN ATOM
M  V30 1 N -3.69253 1.89522 -2.02341 0
M  V30 2 C -2.97561 0.763516 -1.50114 0
M  V30 3 C -3.42499 0.0902853 -0.403534 0
M  V30 4 F -4.5682 0.511272 0.18938 0
M  V30 5 C -2.71134 -0.990854 0.0698828 0
M  V30 6 C -1.53504 -1.41766 -0.546751 0
M  V30 7 C -1.1181 -0.715284 -1.64601 0
M  V30 8 C -1.83274 0.382108 -2.13492 0
M  V30 9 Cl -1.25855 1.25249 -3.54779 0
M  V30 10 S -0.715231 -2.80896 0.120587 0
M  V30 11 O 0.144296 -3.48032 -0.922161 0
M  V30 12 O -1.76394 -3.79855 0.607653 0
M  V30 13 N 0.205518 -2.3246 1.48079 0
M  V30 14 C 1.28242 -1.37605 1.40096 0
M  V30 15 N 2.05342 -0.934457 2.3974 0
M  V30 16 N 2.962 -0.0996264 2.1544 0
M  V30 17 C 3.15626 0.341774 0.917263 0
M  V30 18 S 1.9388 -0.518909 0.0803055 0
M  V30 19 S 4.35977 1.49693 0.367914 0
M  V30 20 N 3.78964 3.10756 0.424144 0
M  V30 21 O 5.56022 1.38683 1.2974 0
M  V30 22 O 4.82864 1.18816 -1.00944 0
M  V30 23 H -3.42115 2.85721 -1.77782 0
M  V30 24 H -4.49487 1.74607 -2.65668 0
M  V30 25 H -3.07899 -1.50366 0.928712 0
M  V30 26 H -0.221343 -1.02347 -2.15084 0
M  V30 27 H -0.0405737 -2.75095 2.41467 0
M  V30 28 H 3.48564 3.43194 -0.510054 0
M  V30 29 H 3.08658 3.29198 1.15125 0
M  V30 END ATOM
M  V30 BEGIN BOND
M  V30 1 1 1 2
M  V30 2 2 2 3
M  V30 3 1 3 4
M  V30 4 1 3 5
M  V30 5 2 5 6
M  V30 6 1 6 7
M  V30 7 2 7 8
M  V30 8 1 8 9
M  V30 9 1 6 10
M  V30 10 2 10 11
M  V30 11 2 10 12
M  V30 12 1 10 13
M  V30 13 1 13 14
M  V30 14 2 14 15
M  V30 15 1 15 16
M  V30 16 2 16 17
M  V30 17 1 17 18
M  V30 18 1 17 19
M  V30 19 1 19 20
M  V30 20 2 19 21
M  V30 21 2 19 22
M  V30 22 1 8 2
M  V30 23 1 18 14
M  V30 24 1 1 23
M  V30 25 1 1 24
M  V30 26 1 5 25
M  V30 27 1 7 26
M  V30 28 1 13 27
M  V30 29 1 20 28
M  V30 30 1 20 29
M  V30 END BOND
M  V30 END CTAB
M  END
