
     RDKit          3D

  0  0  0  0  0  0  0  0  0  0999 V3000
M  V30 BEGIN CTAB
M  V30 COUNTS 33 35 0 0 0
M  V30 BEGIN ATOM
M  V30 1 N -2.50645 -3.15867 -1.6434 0
M  V30 2 C -1.55961 -2.57809 -1.3269 0
M  V30 3 C -0.370351 -1.81694 -0.927784 0
M  V30 4 C 0.718768 -2.48604 -0.62545 0
M  V30 5 N 0.655023 -3.93528 -0.711775 0
M  V30 6 O 1.89341 -1.88597 -0.238617 0
M  V30 7 C 1.94013 -0.491428 -0.160349 0
M  V30 8 C 0.834226 0.246184 -0.464656 0
M  V30 9 C -0.419326 -0.365197 -0.874008 0
M  V30 10 C -1.59182 0.141806 -0.104692 0
M  V30 11 C -1.97966 -0.427469 1.08373 0
M  V30 12 C -3.05472 0.0383719 1.78277 0
M  V30 13 C -3.81589 1.11474 1.3298 0
M  V30 14 C -3.43636 1.69226 0.140891 0
M  V30 15 C -2.34426 1.20873 -0.556146 0
M  V30 16 Cl -4.3371 3.06298 -0.51828 0
M  V30 17 C 0.965301 1.62992 -0.361663 0
M  V30 18 C 2.14378 2.1924 0.024116 0
M  V30 19 C 3.27338 1.45825 0.335947 0
M  V30 20 C 3.15545 0.098192 0.237957 0
M  V30 21 N 4.48702 2.07948 0.735189 0
M  V30 22 H -0.256235 -4.41102 -0.603479 0
M  V30 23 H 1.52819 -4.45432 -0.880195 0
M  V30 24 H -0.603293 -0.0182078 -1.94086 0
M  V30 25 H -1.41537 -1.25671 1.45924 0
M  V30 26 H -3.35055 -0.422813 2.72349 0
M  V30 27 H -4.66128 1.50253 1.85226 0
M  V30 28 H -2.09411 1.70942 -1.49219 0
M  V30 29 H 0.118823 2.22558 -0.594035 0
M  V30 30 H 2.25648 3.27463 0.107813 0
M  V30 31 H 3.98832 -0.567418 0.462199 0
M  V30 32 H 4.62583 2.34508 1.7224 0
M  V30 33 H 5.21225 2.25501 0.0266827 0
M  V30 END ATOM
M  V30 BEGIN BOND
M  V30 1 3 1 2
M  V30 2 1 2 3
M  V30 3 2 3 4
M  V30 4 1 4 5
M  V30 5 1 4 6
M  V30 6 1 6 7
M  V30 7 2 7 8
M  V30 8 1 8 9
M  V30 9 1 9 10
M  V30 10 2 10 11
M  V30 11 1 11 12
M  V30 12 2 12 13
M  V30 13 1 13 14
M  V30 14 2 14 15
M  V30 15 1 14 16
M  V30 16 1 8 17
M  V30 17 2 17 18
M  V30 18 1 18 19
M  V30 19 2 19 20
M  V30 20 1 19 21
M  V30 21 1 9 3
M  V30 22 1 15 10
M  V30 23 1 20 7
M  V30 24 1 5 22
M  V30 25 1 5 23
M  V30 26 1 9 24
M  V30 27 1 11 25
M  V30 28 1 12 26
M  V30 29 1 13 27
M  V30 30 1 15 28
M  V30 31 1 17 29
M  V30 32 1 18 30
M  V30 33 1 20 31
M  V30 34 1 21 32
M  V30 35 1 21 33
M  V30 END BOND
M  V30 END CTAB
M  END
