
     RDKit          3D

  0  0  0  0  0  0  0  0  0  0999 V3000
M  V30 BEGIN CTAB
M  V30 COUNTS 33 35 0 0 0
M  V30 BEGIN ATOM
M  V30 1 N 3.08747 0.51953 -0.78882 0
M  V30 2 C 2.49092 0.0667169 0.455551 0
M  V30 3 C 0.99822 -0.0919507 0.265969 0
M  V30 4 C 0.364623 -0.562822 1.55383 0
M  V30 5 C -1.11377 -0.757409 1.37867 0
M  V30 6 C -1.34355 -1.80999 0.323321 0
M  V30 7 C -0.742178 -1.33038 -0.988195 0
M  V30 8 C 0.729952 -1.17666 -0.780602 0
M  V30 9 C -1.43967 -0.0566448 -1.36301 0
M  V30 10 C -1.12342 0.993043 -0.33262 0
M  V30 11 C 0.371269 1.17163 -0.257074 0
M  V30 12 C -1.71874 0.560945 0.973342 0
M  V30 13 N -1.68913 2.28806 -0.687879 0
M  V30 14 H 2.72067 1.50563 -0.947266 0
M  V30 15 H 4.12395 0.654618 -0.627438 0
M  V30 16 H 2.68076 0.771937 1.27467 0
M  V30 17 H 2.9425 -0.919764 0.677444 0
M  V30 18 H 0.585642 0.126117 2.39653 0
M  V30 19 H 0.806216 -1.54839 1.80228 0
M  V30 20 H -1.53161 -1.08209 2.34808 0
M  V30 21 H -0.746922 -2.70597 0.627138 0
M  V30 22 H -2.41429 -2.00381 0.251475 0
M  V30 23 H -0.915924 -2.11685 -1.72532 0
M  V30 24 H 1.30062 -0.951623 -1.68466 0
M  V30 25 H 1.12148 -2.11508 -0.358301 0
M  V30 26 H -2.54509 -0.260805 -1.28521 0
M  V30 27 H -1.25945 0.262816 -2.39193 0
M  V30 28 H 0.727192 1.28659 -1.32249 0
M  V30 29 H 0.669916 2.04687 0.331024 0
M  V30 30 H -2.8052 0.417401 0.823791 0
M  V30 31 H -1.5216 1.30062 1.75712 0
M  V30 32 H -1.52821 2.53535 -1.67934 0
M  V30 33 H -1.28263 2.98236 -0.0200901 0
M  V30 END ATOM
M  V30 BEGIN BOND
M  V30 1 1 1 2
M  V30 2 1 2 3
M  V30 3 1 3 4
M  V30 4 1 4 5
M  V30 5 1 5 6
M  V30 6 1 6 7
M  V30 7 1 7 8
M  V30 8 1 7 9
M  V30 9 1 9 10
M  V30 10 1 10 11
M  V30 11 1 10 12
M  V30 12 1 10 13
M  V30 13 1 8 3
M  V30 14 1 11 3
M  V30 15 1 12 5
M  V30 16 1 1 14
M  V30 17 1 1 15
M  V30 18 1 2 16
M  V30 19 1 2 17
M  V30 20 1 4 18
M  V30 21 1 4 19
M  V30 22 1 5 20
M  V30 23 1 6 21
M  V30 24 1 6 22
M  V30 25 1 7 23
M  V30 26 1 8 24
M  V30 27 1 8 25
M  V30 28 1 9 26
M  V30 29 1 9 27
M  V30 30 1 11 28
M  V30 31 1 11 29
M  V30 32 1 12 30
M  V30 33 1 12 31
M  V30 34 1 13 32
M  V30 35 1 13 33
M  V30 END BOND
M  V30 END CTAB
M  END
