
     RDKit          3D

  0  0  0  0  0  0  0  0  0  0999 V3000
M  V30 BEGIN CTAB
M  V30 COUNTS 19 19 0 0 0
M  V30 BEGIN ATOM
M  V30 1 N 3.14054 0.187034 -0.355249 0
M  V30 2 C 1.74349 -0.00308996 -0.214923 0
M  V30 3 C 0.876243 1.03628 0.0181787 0
M  V30 4 C -0.480192 0.826983 0.1513 0
M  V30 5 N -1.33973 1.93205 0.391777 0
M  V30 6 C -0.942247 -0.467917 0.0422987 0
M  V30 7 C -0.0708646 -1.51224 -0.191916 0
M  V30 8 C 1.26815 -1.30717 -0.323522 0
M  V30 9 F -0.594734 -2.77381 -0.289441 0
M  V30 10 C -2.39411 -0.73648 0.179164 0
M  V30 11 F -2.79172 -0.409411 1.48037 0
M  V30 12 F -3.09979 -0.0431059 -0.761602 0
M  V30 13 H 3.7067 0.174202 0.522178 0
M  V30 14 H 3.62752 0.33622 -1.26614 0
M  V30 15 H 1.3248 2.02976 0.0907621 0
M  V30 16 H -2.01461 2.26502 -0.332814 0
M  V30 17 H -1.31291 2.4356 1.30333 0
M  V30 18 H 1.94335 -2.14372 -0.508504 0
M  V30 19 H -2.58988 -1.82621 0.0647535 0
M  V30 END ATOM
M  V30 BEGIN BOND
M  V30 1 1 1 2
M  V30 2 2 2 3
M  V30 3 1 3 4
M  V30 4 1 4 5
M  V30 5 2 4 6
M  V30 6 1 6 7
M  V30 7 2 7 8
M  V30 8 1 7 9
M  V30 9 1 6 10
M  V30 10 1 10 11
M  V30 11 1 10 12
M  V30 12 1 8 2
M  V30 13 1 1 13
M  V30 14 1 1 14
M  V30 15 1 3 15
M  V30 16 1 5 16
M  V30 17 1 5 17
M  V30 18 1 8 18
M  V30 19 1 10 19
M  V30 END BOND
M  V30 END CTAB
M  END
