
     RDKit          3D

  0  0  0  0  0  0  0  0  0  0999 V3000
M  V30 BEGIN CTAB
M  V30 COUNTS 32 33 0 0 0
M  V30 BEGIN ATOM
M  V30 1 C 4.83018 -2.4305 0.867252 0
M  V30 2 S 3.06441 -2.28842 0.940307 0
M  V30 3 C 2.3869 -0.805136 0.228521 0
M  V30 4 C 1.00258 -0.63678 0.255025 0
M  V30 5 C 0.358412 0.46976 -0.263921 0
M  V30 6 O -0.923561 0.681036 -0.267826 0
M  V30 7 C -2.15156 0.922922 -0.291341 0
M  V30 8 C -2.66007 2.1107 -0.843351 0
M  V30 9 C -4.00852 2.37464 -0.867738 0
M  V30 10 N -4.86457 1.49649 -0.361811 0
M  V30 11 C -4.47327 0.340846 0.18337 0
M  V30 12 N -5.45215 -0.540845 0.702958 0
M  V30 13 C -3.11813 0.0590144 0.216249 0
M  V30 14 N -2.74316 -1.17647 0.801171 0 CHG=1
M  V30 15 O -2.80705 -1.3177 2.15829 0 CHG=-1
M  V30 16 O -2.36233 -2.117 0.0730306 0
M  V30 17 C 1.21346 1.43869 -0.834904 0
M  V30 18 C 2.56732 1.28891 -0.868641 0
M  V30 19 C 3.17701 0.157481 -0.33375 0
M  V30 20 N 4.59074 0.0585541 -0.395021 0
M  V30 21 H 5.19323 -2.51584 -0.175726 0
M  V30 22 H 5.41248 -1.63761 1.36804 0
M  V30 23 H 5.18187 -3.41096 1.33223 0
M  V30 24 H 0.368443 -1.39737 0.700227 0
M  V30 25 H -1.97633 2.86027 -1.27176 0
M  V30 26 H -4.36794 3.30287 -1.30241 0
M  V30 27 H -6.17594 -0.908332 0.0590468 0
M  V30 28 H -5.47842 -0.835786 1.69728 0
M  V30 29 H 0.738974 2.33414 -1.25935 0
M  V30 30 H 3.23288 2.03951 -1.31152 0
M  V30 31 H 5.134 0.475399 0.384463 0
M  V30 32 H 5.1101 -0.392485 -1.16841 0
M  V30 END ATOM
M  V30 BEGIN BOND
M  V30 1 1 1 2
M  V30 2 1 2 3
M  V30 3 2 3 4
M  V30 4 1 4 5
M  V30 5 1 5 6
M  V30 6 1 6 7
M  V30 7 2 7 8
M  V30 8 1 8 9
M  V30 9 2 9 10
M  V30 10 1 10 11
M  V30 11 1 11 12
M  V30 12 2 11 13
M  V30 13 1 13 14
M  V30 14 1 14 15
M  V30 15 2 14 16
M  V30 16 2 5 17
M  V30 17 1 17 18
M  V30 18 2 18 19
M  V30 19 1 19 20
M  V30 20 1 19 3
M  V30 21 1 13 7
M  V30 22 1 1 21
M  V30 23 1 1 22
M  V30 24 1 1 23
M  V30 25 1 4 24
M  V30 26 1 8 25
M  V30 27 1 9 26
M  V30 28 1 12 27
M  V30 29 1 12 28
M  V30 30 1 17 29
M  V30 31 1 18 30
M  V30 32 1 20 31
M  V30 33 1 20 32
M  V30 END BOND
M  V30 END CTAB
M  END
