
     RDKit          3D

  0  0  0  0  0  0  0  0  0  0999 V3000
M  V30 BEGIN CTAB
M  V30 COUNTS 24 25 0 0 0
M  V30 BEGIN ATOM
M  V30 1 N -0.170895 -1.34195 0.884744 0
M  V30 2 C 0.0721019 -0.563105 -0.272409 0 CFG=2
M  V30 3 C 1.3944 0.13743 -0.143735 0
M  V30 4 O 1.69731 1.37218 -0.407819 0
M  V30 5 N 2.95447 1.61113 -0.168786 0
M  V30 6 C 3.52942 0.466083 0.283295 0
M  V30 7 N 2.53475 -0.436651 0.289193 0
M  V30 8 N 4.88776 0.301945 0.656991 0
M  V30 9 C -0.953716 0.48691 -0.546997 0
M  V30 10 C -2.33957 -0.0149917 -0.758087 0
M  V30 11 C -3.10744 -0.769868 0.235018 0
M  V30 12 C -3.39922 0.681223 0.0853452 0
M  V30 13 H 0.243013 -2.25109 0.903949 0
M  V30 14 H -0.0770276 -0.83751 1.74699 0
M  V30 15 H 0.16224 -1.20986 -1.17869 0
M  V30 16 H 5.62877 0.279105 -0.0753243 0
M  V30 17 H 5.11161 0.207345 1.66678 0
M  V30 18 H -0.927837 1.29844 0.220672 0
M  V30 19 H -0.629036 0.998574 -1.50177 0
M  V30 20 H -2.58926 -0.225674 -1.82313 0
M  V30 21 H -3.93327 -1.43325 -0.139937 0
M  V30 22 H -2.7117 -1.11714 1.18784 0
M  V30 23 H -4.29275 1.03249 -0.468492 0
M  V30 24 H -3.08411 1.32824 0.910538 0
M  V30 END ATOM
M  V30 BEGIN BOND
M  V30 1 1 1 2
M  V30 2 1 2 3
M  V30 3 1 3 4
M  V30 4 1 4 5
M  V30 5 2 5 6
M  V30 6 1 6 7
M  V30 7 1 6 8
M  V30 8 1 2 9
M  V30 9 1 9 10
M  V30 10 1 10 11
M  V30 11 1 11 12
M  V30 12 2 7 3
M  V30 13 1 12 10
M  V30 14 1 1 13
M  V30 15 1 1 14
M  V30 16 1 2 15 CFG=3
M  V30 17 1 8 16
M  V30 18 1 8 17
M  V30 19 1 9 18
M  V30 20 1 9 19
M  V30 21 1 10 20
M  V30 22 1 11 21
M  V30 23 1 11 22
M  V30 24 1 12 23
M  V30 25 1 12 24
M  V30 END BOND
M  V30 END CTAB
M  END
