
     RDKit          3D

  0  0  0  0  0  0  0  0  0  0999 V3000
M  V30 BEGIN CTAB
M  V30 COUNTS 72 76 0 0 0
M  V30 BEGIN ATOM
M  V30 1 N -5.37229 0.298672 1.5199 0
M  V30 2 C -4.47393 0.378084 2.65051 0
M  V30 3 C -3.3303 -0.584603 2.56979 0
M  V30 4 O -2.51987 -0.400665 1.50511 0
M  V30 5 C -2.78979 -0.382865 0.0816994 0
M  V30 6 C -3.02383 0.825367 -0.601984 0
M  V30 7 C -2.81317 2.25807 -0.19439 0
M  V30 8 C -1.35958 2.63435 0.0836706 0
M  V30 9 C -1.27196 2.93305 1.44742 0
M  V30 10 C -0.125208 3.19642 2.14139 0
M  V30 11 C 0.979275 3.1342 1.33972 0
M  V30 12 C 0.980121 2.84465 -0.0223622 0
M  V30 13 C 2.42609 2.73226 -0.471614 0
M  V30 14 C 2.79954 1.30627 -0.846785 0
M  V30 15 C 2.80852 0.127941 -0.156415 0
M  V30 16 O 2.67235 0.041936 1.29474 0
M  V30 17 C 3.67036 0.0284979 2.23188 0
M  V30 18 C 4.52442 1.24049 2.20673 0
M  V30 19 N 5.5684 1.17169 3.22499 0
M  V30 20 C 2.97443 -1.03715 -0.932279 0
M  V30 21 C 2.80121 -2.49211 -0.573931 0
M  V30 22 C 1.39247 -2.98204 -0.826482 0
M  V30 23 C 1.33521 -3.65384 -2.03701 0
M  V30 24 C 0.201874 -4.12059 -2.63951 0
M  V30 25 C -0.952613 -3.87443 -1.94538 0
M  V30 26 C -0.964034 -3.19792 -0.711292 0
M  V30 27 C -2.43368 -2.97037 -0.334377 0
M  V30 28 C -2.84809 -1.53789 -0.666323 0
M  V30 29 C -3.14975 -1.46734 -2.03616 0
M  V30 30 C -3.39454 -0.324013 -2.73391 0
M  V30 31 C -3.31664 0.807726 -1.96342 0
M  V30 32 C 0.197144 -2.73572 -0.102278 0
M  V30 33 O 0.209451 -2.08824 1.13806 0
M  V30 34 C 3.13475 -0.936499 -2.31171 0
M  V30 35 C 3.1419 0.231037 -3.02926 0
M  V30 36 C 2.96785 1.3372 -2.2537 0
M  V30 37 C -0.223108 2.59247 -0.680831 0
M  V30 38 O -0.192365 2.32092 -2.10105 0
M  V30 39 H -5.90824 1.19403 1.48487 0
M  V30 40 H -5.99858 -0.535091 1.60243 0
M  V30 41 H -4.11311 1.44611 2.67883 0
M  V30 42 H -5.02758 0.259158 3.60894 0
M  V30 43 H -2.70717 -0.441955 3.49913 0
M  V30 44 H -3.73239 -1.62923 2.68778 0
M  V30 45 H -3.48286 2.61728 0.627967 0
M  V30 46 H -3.20606 2.91094 -0.996533 0
M  V30 47 H -2.21447 2.97149 2.07345 0
M  V30 48 H -0.0966772 3.42483 3.18441 0
M  V30 49 H 1.95929 3.34609 1.86931 0
M  V30 50 H 3.1492 3.1792 0.282365 0
M  V30 51 H 2.71058 3.50088 -1.25041 0
M  V30 52 H 3.25516 -0.231272 3.20182 0
M  V30 53 H 4.3478 -0.852277 1.97619 0
M  V30 54 H 4.97653 1.40641 1.19876 0
M  V30 55 H 3.96101 2.16927 2.42853 0
M  V30 56 H 6.42676 1.60246 2.80909 0
M  V30 57 H 5.24164 1.61955 4.08835 0
M  V30 58 H 3.35383 -2.94055 0.255576 0
M  V30 59 H 3.45763 -3.00835 -1.3591 0
M  V30 60 H 2.2546 -3.88971 -2.63103 0
M  V30 61 H 0.201911 -4.63948 -3.57874 0
M  V30 62 H -1.87599 -4.26399 -2.41555 0
M  V30 63 H -3.104 -3.63347 -1.0263 0
M  V30 64 H -2.78536 -3.44934 0.565234 0
M  V30 65 H -3.21217 -2.40754 -2.646 0
M  V30 66 H -3.62895 -0.30433 -3.78615 0
M  V30 67 H -3.51771 1.75973 -2.52283 0
M  V30 68 H 0.161167 -1.69258 1.90763 0
M  V30 69 H 3.27943 -1.83677 -2.95958 0
M  V30 70 H 3.27514 0.262578 -4.09953 0
M  V30 71 H 2.97069 2.28945 -2.81717 0
M  V30 72 H -0.601668 2.14145 -2.85274 0
M  V30 END ATOM
M  V30 BEGIN BOND
M  V30 1 1 1 2
M  V30 2 1 2 3
M  V30 3 1 3 4
M  V30 4 1 4 5
M  V30 5 2 5 6
M  V30 6 1 6 7
M  V30 7 1 7 8
M  V30 8 2 8 9
M  V30 9 1 9 10
M  V30 10 2 10 11
M  V30 11 1 11 12
M  V30 12 1 12 13
M  V30 13 1 13 14
M  V30 14 2 14 15
M  V30 15 1 15 16
M  V30 16 1 16 17
M  V30 17 1 17 18
M  V30 18 1 18 19
M  V30 19 1 15 20
M  V30 20 1 20 21
M  V30 21 1 21 22
M  V30 22 2 22 23
M  V30 23 1 23 24
M  V30 24 2 24 25
M  V30 25 1 25 26
M  V30 26 1 26 27
M  V30 27 1 27 28
M  V30 28 2 28 29
M  V30 29 1 29 30
M  V30 30 2 30 31
M  V30 31 2 26 32
M  V30 32 1 32 33
M  V30 33 2 20 34
M  V30 34 1 34 35
M  V30 35 2 35 36
M  V30 36 2 12 37
M  V30 37 1 37 38
M  V30 38 1 28 5
M  V30 39 1 31 6
M  V30 40 1 37 8
M  V30 41 1 36 14
M  V30 42 1 32 22
M  V30 43 1 1 39
M  V30 44 1 1 40
M  V30 45 1 2 41
M  V30 46 1 2 42
M  V30 47 1 3 43
M  V30 48 1 3 44
M  V30 49 1 7 45
M  V30 50 1 7 46
M  V30 51 1 9 47
M  V30 52 1 10 48
M  V30 53 1 11 49
M  V30 54 1 13 50
M  V30 55 1 13 51
M  V30 56 1 17 52
M  V30 57 1 17 53
M  V30 58 1 18 54
M  V30 59 1 18 55
M  V30 60 1 19 56
M  V30 61 1 19 57
M  V30 62 1 21 58
M  V30 63 1 21 59
M  V30 64 1 23 60
M  V30 65 1 24 61
M  V30 66 1 25 62
M  V30 67 1 27 63
M  V30 68 1 27 64
M  V30 69 1 29 65
M  V30 70 1 30 66
M  V30 71 1 31 67
M  V30 72 1 33 68
M  V30 73 1 34 69
M  V30 74 1 35 70
M  V30 75 1 36 71
M  V30 76 1 38 72
M  V30 END BOND
M  V30 END CTAB
M  END
