
     RDKit          3D

  0  0  0  0  0  0  0  0  0  0999 V3000
M  V30 BEGIN CTAB
M  V30 COUNTS 44 45 0 0 0
M  V30 BEGIN ATOM
M  V30 1 N -5.42875 0.955899 -0.527863 0
M  V30 2 C -4.71033 -0.135341 0.0997646 0 CFG=1
M  V30 3 C -4.10093 -1.01144 -0.964211 0
M  V30 4 C -2.69324 -0.469633 -1.11015 0
M  V30 5 N -2.34788 -0.0680534 0.245716 0
M  V30 6 C -3.55474 0.332854 0.930285 0 CFG=1
M  V30 7 C -3.51999 1.8423 1.08952 0
M  V30 8 C -1.0587 -0.0531879 0.846115 0
M  V30 9 O -0.956605 0.334675 2.05615 0
M  V30 10 N 0.110061 -0.454147 0.144519 0
M  V30 11 C 1.35672 -0.411555 0.81006 0
M  V30 12 C 2.53445 -0.857084 -0.0218053 0
M  V30 13 N 2.24498 -2.23472 -0.399157 0
M  V30 14 C 3.7541 -0.916312 0.858487 0
M  V30 15 C 4.49721 0.386571 0.938412 0
M  V30 16 C 4.82217 0.926457 -0.438558 0
M  V30 17 C 3.50134 1.18549 -1.11994 0
M  V30 18 C 2.71263 -0.086432 -1.27299 0
M  V30 19 H -6.15655 1.32448 0.130075 0
M  V30 20 H -5.89213 0.568841 -1.37891 0
M  V30 21 H -5.45088 -0.711811 0.683154 0
M  V30 22 H -4.12134 -2.06659 -0.634808 0
M  V30 23 H -4.62631 -0.902783 -1.94234 0
M  V30 24 H -2.06335 -1.28103 -1.48938 0
M  V30 25 H -2.72085 0.410098 -1.77378 0
M  V30 26 H -3.62304 -0.119281 1.93775 0
M  V30 27 H -2.76741 2.05098 1.89563 0
M  V30 28 H -3.11335 2.28555 0.150411 0
M  V30 29 H -4.49541 2.24849 1.36873 0
M  V30 30 H -0.0129274 -0.763337 -0.838036 0
M  V30 31 H 1.29079 -0.999389 1.74768 0
M  V30 32 H 1.54119 0.652132 1.13701 0
M  V30 33 H 2.40986 -2.87043 0.434938 0
M  V30 34 H 2.84778 -2.53258 -1.18468 0
M  V30 35 H 3.46186 -1.20279 1.88993 0
M  V30 36 H 4.48818 -1.68434 0.502752 0
M  V30 37 H 3.88776 1.09898 1.51778 0
M  V30 38 H 5.46318 0.186721 1.44668 0
M  V30 39 H 5.33389 1.91104 -0.291701 0
M  V30 40 H 5.44813 0.195401 -0.973744 0
M  V30 41 H 2.97688 1.96621 -0.548062 0
M  V30 42 H 3.72954 1.55422 -2.15606 0
M  V30 43 H 1.7329 0.126227 -1.72027 0
M  V30 44 H 3.26912 -0.711348 -2.03125 0
M  V30 END ATOM
M  V30 BEGIN BOND
M  V30 1 1 1 2
M  V30 2 1 2 3
M  V30 3 1 3 4
M  V30 4 1 4 5
M  V30 5 1 5 6
M  V30 6 1 6 7
M  V30 7 1 5 8
M  V30 8 2 8 9
M  V30 9 1 8 10
M  V30 10 1 10 11
M  V30 11 1 11 12
M  V30 12 1 12 13
M  V30 13 1 12 14
M  V30 14 1 14 15
M  V30 15 1 15 16
M  V30 16 1 16 17
M  V30 17 1 17 18
M  V30 18 1 6 2
M  V30 19 1 18 12
M  V30 20 1 1 19
M  V30 21 1 1 20
M  V30 22 1 2 21 CFG=1
M  V30 23 1 3 22
M  V30 24 1 3 23
M  V30 25 1 4 24
M  V30 26 1 4 25
M  V30 27 1 6 26 CFG=1
M  V30 28 1 7 27
M  V30 29 1 7 28
M  V30 30 1 7 29
M  V30 31 1 10 30
M  V30 32 1 11 31
M  V30 33 1 11 32
M  V30 34 1 13 33
M  V30 35 1 13 34
M  V30 36 1 14 35
M  V30 37 1 14 36
M  V30 38 1 15 37
M  V30 39 1 15 38
M  V30 40 1 16 39
M  V30 41 1 16 40
M  V30 42 1 17 41
M  V30 43 1 17 42
M  V30 44 1 18 43
M  V30 45 1 18 44
M  V30 END BOND
M  V30 END CTAB
M  END
