
     RDKit          3D

  0  0  0  0  0  0  0  0  0  0999 V3000
M  V30 BEGIN CTAB
M  V30 COUNTS 44 46 0 0 0
M  V30 BEGIN ATOM
M  V30 1 O 1.17091 -1.9014 0.5928 0
M  V30 2 C 0.756167 -1.21089 -0.417783 0
M  V30 3 N -0.456314 -0.543067 -0.245777 0
M  V30 4 C -1.15876 0.279511 -1.14884 0
M  V30 5 C -0.806411 0.619662 -2.4231 0
M  V30 6 C -1.83362 1.45132 -2.89323 0
M  V30 7 N -2.71913 1.56598 -1.91636 0
M  V30 8 N -2.35545 0.879327 -0.849597 0
M  V30 9 C -3.07045 0.78633 0.365685 0
M  V30 10 C -2.92411 1.66929 1.42085 0
M  V30 11 C -3.64591 1.54786 2.60441 0
M  V30 12 C -4.54033 0.505078 2.72461 0
M  V30 13 C -4.70376 -0.387901 1.68674 0
M  V30 14 C -3.97075 -0.242394 0.51834 0
M  V30 15 C -4.15929 -1.20726 -0.582428 0
M  V30 16 C -1.8346 2.04576 -4.25486 0
M  V30 17 C 1.6046 -1.21577 -1.60808 0
M  V30 18 S 3.1047 -2.24291 -1.32693 0
M  V30 19 C 4.10568 -1.44778 -0.0793088 0
M  V30 20 N 5.25464 -1.97788 0.321891 0
M  V30 21 C 6.05016 -1.41933 1.25983 0
M  V30 22 N 7.27049 -2.03059 1.65199 0
M  V30 23 N 5.62745 -0.253949 1.80426 0
M  V30 24 C 4.4654 0.308206 1.4171 0
M  V30 25 N 3.71507 -0.29078 0.480956 0
M  V30 26 N 4.02012 1.52481 1.98418 0
M  V30 27 H -0.938 -0.665366 0.718576 0
M  V30 28 H 0.0539801 0.346606 -3.00151 0
M  V30 29 H -2.21627 2.47897 1.30183 0
M  V30 30 H -3.49098 2.27475 3.40762 0
M  V30 31 H -5.1067 0.399222 3.637 0
M  V30 32 H -5.42194 -1.19583 1.82771 0
M  V30 33 H -5.22121 -1.24459 -0.949122 0
M  V30 34 H -3.43935 -1.09126 -1.39277 0
M  V30 35 H -3.96513 -2.2282 -0.140294 0
M  V30 36 H -1.07807 2.84771 -4.29983 0
M  V30 37 H -2.85541 2.43494 -4.44513 0
M  V30 38 H -1.51819 1.2782 -4.99453 0
M  V30 39 H 1.12081 -1.68701 -2.49143 0
M  V30 40 H 2.00327 -0.20562 -1.80707 0
M  V30 41 H 8.13336 -2.01893 1.08706 0
M  V30 42 H 7.29362 -2.52761 2.58075 0
M  V30 43 H 4.37086 1.89869 2.90178 0
M  V30 44 H 3.30887 2.09408 1.48276 0
M  V30 END ATOM
M  V30 BEGIN BOND
M  V30 1 2 1 2
M  V30 2 1 2 3
M  V30 3 1 3 4
M  V30 4 2 4 5
M  V30 5 1 5 6
M  V30 6 2 6 7
M  V30 7 1 7 8
M  V30 8 1 8 9
M  V30 9 2 9 10
M  V30 10 1 10 11
M  V30 11 2 11 12
M  V30 12 1 12 13
M  V30 13 2 13 14
M  V30 14 1 14 15
M  V30 15 1 6 16
M  V30 16 1 2 17
M  V30 17 1 17 18
M  V30 18 1 18 19
M  V30 19 2 19 20
M  V30 20 1 20 21
M  V30 21 1 21 22
M  V30 22 2 21 23
M  V30 23 1 23 24
M  V30 24 2 24 25
M  V30 25 1 24 26
M  V30 26 1 8 4
M  V30 27 1 14 9
M  V30 28 1 25 19
M  V30 29 1 3 27
M  V30 30 1 5 28
M  V30 31 1 10 29
M  V30 32 1 11 30
M  V30 33 1 12 31
M  V30 34 1 13 32
M  V30 35 1 15 33
M  V30 36 1 15 34
M  V30 37 1 15 35
M  V30 38 1 16 36
M  V30 39 1 16 37
M  V30 40 1 16 38
M  V30 41 1 17 39
M  V30 42 1 17 40
M  V30 43 1 22 41
M  V30 44 1 22 42
M  V30 45 1 26 43
M  V30 46 1 26 44
M  V30 END BOND
M  V30 END CTAB
M  END
