
     RDKit          3D

  0  0  0  0  0  0  0  0  0  0999 V3000
M  V30 BEGIN CTAB
M  V30 COUNTS 45 47 0 0 0
M  V30 BEGIN ATOM
M  V30 1 N -4.55665 0.990758 -1.49472 0
M  V30 2 C -4.40626 0.378264 -0.200786 0
M  V30 3 C -4.06894 -1.0822 -0.37893 0
M  V30 4 C -3.8781 -1.85222 0.87284 0
M  V30 5 S -2.73362 -1.40718 2.07372 0
M  V30 6 C -1.02115 -1.52049 1.9873 0
M  V30 7 C -0.284482 -0.590989 1.08379 0 CFG=2
M  V30 8 C -0.615002 -0.756358 -0.334594 0
M  V30 9 C 0.76834 -0.65458 -1.01163 0 CFG=1
M  V30 10 O 0.726464 0.0738829 -2.17527 0
M  V30 11 C 1.57206 -0.0114316 0.0956255 0 CFG=1
M  V30 12 O 1.10983 -0.731308 1.21056 0
M  V30 13 N 2.98201 -0.072992 -0.0844143 0
M  V30 14 C 3.73133 -1.1106 -0.482098 0
M  V30 15 N 5.03991 -0.740681 -0.524015 0
M  V30 16 C 5.13656 0.541115 -0.152088 0
M  V30 17 C 6.22189 1.4015 -0.0218452 0
M  V30 18 N 7.55814 0.98119 -0.3059 0
M  V30 19 N 5.9415 2.65315 0.385115 0
M  V30 20 C 4.70152 3.09226 0.661209 0
M  V30 21 N 3.67509 2.22272 0.521223 0
M  V30 22 C 3.84657 0.948643 0.120424 0
M  V30 23 C -5.64017 0.627385 0.555434 0
M  V30 24 O -6.70697 1.26364 -0.0394148 0
M  V30 25 O -5.72175 0.258539 1.74853 0
M  V30 26 H -4.04827 1.80091 -1.68897 0
M  V30 27 H -5.21896 0.615463 -2.1159 0
M  V30 28 H -3.51477 0.870723 0.272845 0
M  V30 29 H -3.35684 -1.28735 -1.16919 0
M  V30 30 H -5.07676 -1.51008 -0.803741 0
M  V30 31 H -3.64535 -2.92757 0.497663 0
M  V30 32 H -4.91412 -1.98715 1.37222 0
M  V30 33 H -0.596621 -1.41467 3.0614 0
M  V30 34 H -0.676591 -2.60978 1.75098 0
M  V30 35 H -0.455979 0.485487 1.42598 0
M  V30 36 H -1.07213 -1.73981 -0.58759 0
M  V30 37 H -1.20179 0.114905 -0.690442 0
M  V30 38 H 1.08461 -1.71551 -1.17785 0
M  V30 39 H 0.936045 -0.537552 -2.93313 0
M  V30 40 H 1.18042 1.01988 0.205882 0
M  V30 41 H 3.36782 -2.09197 -0.733192 0
M  V30 42 H 8.33043 1.01676 0.402806 0
M  V30 43 H 7.84037 0.611319 -1.2471 0
M  V30 44 H 4.53381 4.13005 0.991003 0
M  V30 45 H -6.87345 2.25392 0.112812 0
M  V30 END ATOM
M  V30 BEGIN BOND
M  V30 1 1 1 2
M  V30 2 1 2 3
M  V30 3 1 3 4
M  V30 4 1 4 5
M  V30 5 1 5 6
M  V30 6 1 6 7
M  V30 7 1 7 8
M  V30 8 1 8 9
M  V30 9 1 9 10
M  V30 10 1 9 11
M  V30 11 1 11 12
M  V30 12 1 11 13
M  V30 13 1 13 14
M  V30 14 2 14 15
M  V30 15 1 15 16
M  V30 16 2 16 17
M  V30 17 1 17 18
M  V30 18 1 17 19
M  V30 19 2 19 20
M  V30 20 1 20 21
M  V30 21 2 21 22
M  V30 22 1 2 23
M  V30 23 1 23 24
M  V30 24 2 23 25
M  V30 25 1 12 7
M  V30 26 1 22 13
M  V30 27 1 22 16
M  V30 28 1 1 26
M  V30 29 1 1 27
M  V30 30 1 2 28
M  V30 31 1 3 29
M  V30 32 1 3 30
M  V30 33 1 4 31
M  V30 34 1 4 32
M  V30 35 1 6 33
M  V30 36 1 6 34
M  V30 37 1 7 35 CFG=1
M  V30 38 1 8 36
M  V30 39 1 8 37
M  V30 40 1 9 38 CFG=3
M  V30 41 1 10 39
M  V30 42 1 11 40 CFG=1
M  V30 43 1 14 41
M  V30 44 1 18 42
M  V30 45 1 18 43
M  V30 46 1 20 44
M  V30 47 1 24 45
M  V30 END BOND
M  V30 END CTAB
M  END
