
     RDKit          3D

  0  0  0  0  0  0  0  0  0  0999 V3000
M  V30 BEGIN CTAB
M  V30 COUNTS 25 24 0 0 0
M  V30 BEGIN ATOM
M  V30 1 O 4.09732 1.19052 -0.0632625 0
M  V30 2 C 2.7704 0.975131 -0.0973708 0
M  V30 3 O 2.03145 1.69828 0.610042 0
M  V30 4 C 2.21868 -0.0883424 -0.950557 0 CFG=2
M  V30 5 C 1.56694 -1.17004 -0.13706 0
M  V30 6 C 0.432471 -0.749503 0.716587 0
M  V30 7 C -0.713108 -0.129327 -0.0391753 0
M  V30 8 N -1.73038 0.223179 0.929702 0
M  V30 9 C -2.99339 0.225371 0.639561 0
M  V30 10 N -3.99856 0.562267 1.55775 0
M  V30 11 N -3.35161 -0.137051 -0.687385 0
M  V30 12 O 3.29299 -0.660652 -1.68133 0
M  V30 13 H 4.79771 0.62922 0.251603 0
M  V30 14 H 1.5212 0.313367 -1.72801 0
M  V30 15 H 1.30973 -2.01421 -0.821979 0
M  V30 16 H 2.33304 -1.62832 0.557685 0
M  V30 17 H -0.00213374 -1.71452 1.13994 0
M  V30 18 H 0.733211 -0.101312 1.5299 0
M  V30 19 H -1.14389 -0.842437 -0.782303 0
M  V30 20 H -0.436713 0.772238 -0.59847 0
M  V30 21 H -4.57601 -0.171676 2.0526 0
M  V30 22 H -4.21906 1.56952 1.79199 0
M  V30 23 H -3.15476 -1.10934 -0.998021 0
M  V30 24 H -3.7978 0.564701 -1.31659 0
M  V30 25 H 3.01226 -1.60009 -1.87586 0
M  V30 END ATOM
M  V30 BEGIN BOND
M  V30 1 1 1 2
M  V30 2 2 2 3
M  V30 3 1 2 4
M  V30 4 1 4 5
M  V30 5 1 5 6
M  V30 6 1 6 7
M  V30 7 1 7 8
M  V30 8 2 8 9 CFG=2
M  V30 9 1 9 10
M  V30 10 1 9 11
M  V30 11 1 4 12
M  V30 12 1 1 13
M  V30 13 1 4 14 CFG=3
M  V30 14 1 5 15
M  V30 15 1 5 16
M  V30 16 1 6 17
M  V30 17 1 6 18
M  V30 18 1 7 19
M  V30 19 1 7 20
M  V30 20 1 10 21
M  V30 21 1 10 22
M  V30 22 1 11 23
M  V30 23 1 11 24
M  V30 24 1 12 25
M  V30 END BOND
M  V30 END CTAB
M  END
