
     RDKit          3D

  0  0  0  0  0  0  0  0  0  0999 V3000
M  V30 BEGIN CTAB
M  V30 COUNTS 34 34 0 0 0
M  V30 BEGIN ATOM
M  V30 1 N -3.42852 2.0766 -1.591 0
M  V30 2 N -2.75332 1.44498 -0.552484 0
M  V30 3 C -1.39388 1.05225 -0.724171 0
M  V30 4 O -0.8468 1.29434 -1.82331 0
M  V30 5 C -0.627529 0.373606 0.358595 0
M  V30 6 N 0.641953 0.0919758 -0.0720484 0
M  V30 7 C 0.964793 -0.759818 -1.11107 0
M  V30 8 C 2.48327 -0.941574 -0.881099 0
M  V30 9 C 2.91324 0.396204 -0.278855 0
M  V30 10 C 1.63322 1.1061 0.088074 0
M  V30 11 N 3.72702 0.123755 0.875635 0
M  V30 12 C -1.47686 -0.700406 0.931648 0
M  V30 13 C -1.91689 -1.75343 -0.0209303 0
M  V30 14 C -0.791535 -1.3142 2.16448 0
M  V30 15 H -4.2455 2.61366 -1.21245 0
M  V30 16 H -2.77443 2.81123 -1.9764 0
M  V30 17 H -3.27299 1.27883 0.331794 0
M  V30 18 H -0.551214 1.16189 1.17325 0
M  V30 19 H 0.909045 -0.373618 -2.15 0
M  V30 20 H 0.565575 -1.78908 -1.05052 0
M  V30 21 H 3.02685 -1.07821 -1.81091 0
M  V30 22 H 2.67845 -1.77889 -0.198025 0
M  V30 23 H 3.50103 0.9752 -1.02573 0
M  V30 24 H 1.70439 1.44262 1.13982 0
M  V30 25 H 1.52142 1.95981 -0.609787 0
M  V30 26 H 4.71817 -0.00767679 0.519814 0
M  V30 27 H 3.78307 0.977907 1.48082 0
M  V30 28 H -2.3857 -0.220908 1.35251 0
M  V30 29 H -3.02175 -1.97464 0.100058 0
M  V30 30 H -1.42658 -2.73148 0.229312 0
M  V30 31 H -1.80603 -1.46072 -1.06534 0
M  V30 32 H -0.801927 -0.516455 2.93958 0
M  V30 33 H 0.211307 -1.66955 1.94915 0
M  V30 34 H -1.46133 -2.11032 2.51958 0
M  V30 END ATOM
M  V30 BEGIN BOND
M  V30 1 1 1 2
M  V30 2 1 2 3
M  V30 3 2 3 4
M  V30 4 1 3 5
M  V30 5 1 5 6
M  V30 6 1 6 7
M  V30 7 1 7 8
M  V30 8 1 8 9
M  V30 9 1 9 10
M  V30 10 1 9 11
M  V30 11 1 5 12
M  V30 12 1 12 13
M  V30 13 1 12 14
M  V30 14 1 10 6
M  V30 15 1 1 15
M  V30 16 1 1 16
M  V30 17 1 2 17
M  V30 18 1 5 18
M  V30 19 1 7 19
M  V30 20 1 7 20
M  V30 21 1 8 21
M  V30 22 1 8 22
M  V30 23 1 9 23
M  V30 24 1 10 24
M  V30 25 1 10 25
M  V30 26 1 11 26
M  V30 27 1 11 27
M  V30 28 1 12 28
M  V30 29 1 13 29
M  V30 30 1 13 30
M  V30 31 1 13 31
M  V30 32 1 14 32
M  V30 33 1 14 33
M  V30 34 1 14 34
M  V30 END BOND
M  V30 END CTAB
M  END
