
     RDKit          3D

  0  0  0  0  0  0  0  0  0  0999 V3000
M  V30 BEGIN CTAB
M  V30 COUNTS 41 44 0 0 0
M  V30 BEGIN ATOM
M  V30 1 N -0.218267 -1.67126 -0.140273 0
M  V30 2 C 0.184366 -0.281766 0.115265 0
M  V30 3 C 1.49354 0.0798345 0.143186 0
M  V30 4 S 1.47395 1.73018 0.460336 0
M  V30 5 C -0.229473 1.96839 0.559789 0
M  V30 6 C -0.73122 0.714641 0.335276 0
M  V30 7 C -2.13579 0.677514 0.371459 0
M  V30 8 C -2.84847 -0.57316 0.156323 0
M  V30 9 C -3.2002 -0.907061 -1.12099 0
M  V30 10 Br -2.7694 0.170152 -2.6736 0
M  V30 11 C -3.90081 -2.06132 -1.37732 0
M  V30 12 C -4.25783 -2.9013 -0.331139 0
M  V30 13 C -3.91191 -2.58161 0.965345 0
M  V30 14 C -3.21057 -1.41548 1.17247 0
M  V30 15 C -2.92071 1.78616 0.607732 0
M  V30 16 C -4.36903 1.67027 0.629961 0
M  V30 17 N -5.51547 1.5584 0.643488 0
M  V30 18 C -2.32461 3.00118 0.821885 0
M  V30 19 N -3.16171 4.12699 1.06333 0
M  V30 20 N -0.984222 3.09011 0.797669 0
M  V30 21 C 2.63709 -0.794904 -0.0789584 0
M  V30 22 O 2.45427 -2.02506 -0.34474 0
M  V30 23 C 4.00354 -0.336682 -0.0164904 0
M  V30 24 C 4.94068 -0.985328 -0.825529 0
M  V30 25 C 6.27767 -0.655003 -0.844628 0
M  V30 26 Cl 7.38778 -1.52651 -1.89626 0
M  V30 27 C 6.75261 0.355067 -0.0444103 0
M  V30 28 C 5.86234 1.00902 0.758607 0
M  V30 29 C 4.50208 0.66462 0.770881 0
M  V30 30 H -0.377016 -2.35831 0.584396 0
M  V30 31 H -0.316114 -1.91827 -1.14014 0
M  V30 32 H -4.18297 -2.33122 -2.39238 0
M  V30 33 H -4.81458 -3.81855 -0.535775 0
M  V30 34 H -4.18035 -3.22329 1.79729 0
M  V30 35 H -2.94578 -1.18488 2.2337 0
M  V30 36 H -2.85972 5.03386 0.629948 0
M  V30 37 H -4.02462 4.09295 1.62745 0
M  V30 38 H 4.56047 -1.79318 -1.46547 0
M  V30 39 H 7.79776 0.617328 -0.0555249 0
M  V30 40 H 6.21891 1.80766 1.39561 0
M  V30 41 H 3.84375 1.18982 1.41926 0
M  V30 END ATOM
M  V30 BEGIN BOND
M  V30 1 1 1 2
M  V30 2 2 2 3
M  V30 3 1 3 4
M  V30 4 1 4 5
M  V30 5 2 5 6
M  V30 6 1 6 7
M  V30 7 1 7 8
M  V30 8 2 8 9
M  V30 9 1 9 10
M  V30 10 1 9 11
M  V30 11 2 11 12
M  V30 12 1 12 13
M  V30 13 2 13 14
M  V30 14 2 7 15
M  V30 15 1 15 16
M  V30 16 3 16 17
M  V30 17 1 15 18
M  V30 18 1 18 19
M  V30 19 2 18 20
M  V30 20 1 3 21
M  V30 21 2 21 22
M  V30 22 1 21 23
M  V30 23 2 23 24
M  V30 24 1 24 25
M  V30 25 1 25 26
M  V30 26 2 25 27
M  V30 27 1 27 28
M  V30 28 2 28 29
M  V30 29 1 6 2
M  V30 30 1 14 8
M  V30 31 1 29 23
M  V30 32 1 20 5
M  V30 33 1 1 30
M  V30 34 1 1 31
M  V30 35 1 11 32
M  V30 36 1 12 33
M  V30 37 1 13 34
M  V30 38 1 14 35
M  V30 39 1 19 36
M  V30 40 1 19 37
M  V30 41 1 24 38
M  V30 42 1 27 39
M  V30 43 1 28 40
M  V30 44 1 29 41
M  V30 END BOND
M  V30 END CTAB
M  END
