
     RDKit          3D

  0  0  0  0  0  0  0  0  0  0999 V3000
M  V30 BEGIN CTAB
M  V30 COUNTS 25 24 0 0 0
M  V30 BEGIN ATOM
M  V30 1 N 2.38745 1.77192 0.304087 0
M  V30 2 C 2.12225 0.471509 -0.266136 0
M  V30 3 C 1.72036 -0.471352 0.840472 0
M  V30 4 C 1.42835 -1.83692 0.344803 0
M  V30 5 C 0.363519 -2.00456 -0.670994 0
M  V30 6 S -1.26672 -1.49713 -0.235119 0
M  V30 7 C -1.58164 0.239872 -0.0724369 0
M  V30 8 C -3.05545 0.52035 0.281517 0
M  V30 9 N -3.21741 1.96373 0.395893 0
M  V30 10 H 3.32611 1.83761 0.73163 0
M  V30 11 H 1.64937 2.12968 0.921505 0
M  V30 12 H 3.09487 0.0978828 -0.657312 0
M  V30 13 H 1.38162 0.587717 -1.06211 0
M  V30 14 H 2.69068 -0.581591 1.45276 0
M  V30 15 H 1.02612 -0.0274502 1.54509 0
M  V30 16 H 2.41193 -2.25482 -0.031944 0
M  V30 17 H 1.15184 -2.52857 1.20212 0
M  V30 18 H 0.63671 -1.55459 -1.66209 0
M  V30 19 H 0.336887 -3.12199 -0.899635 0
M  V30 20 H -1.45136 0.73474 -1.06766 0
M  V30 21 H -0.928947 0.726259 0.641664 0
M  V30 22 H -3.33774 0.0295002 1.21704 0
M  V30 23 H -3.63811 0.118848 -0.595808 0
M  V30 24 H -4.11418 2.20652 0.865536 0
M  V30 25 H -3.13652 2.44284 -0.510429 0
M  V30 END ATOM
M  V30 BEGIN BOND
M  V30 1 1 1 2
M  V30 2 1 2 3
M  V30 3 1 3 4
M  V30 4 1 4 5
M  V30 5 1 5 6
M  V30 6 1 6 7
M  V30 7 1 7 8
M  V30 8 1 8 9
M  V30 9 1 1 10
M  V30 10 1 1 11
M  V30 11 1 2 12
M  V30 12 1 2 13
M  V30 13 1 3 14
M  V30 14 1 3 15
M  V30 15 1 4 16
M  V30 16 1 4 17
M  V30 17 1 5 18
M  V30 18 1 5 19
M  V30 19 1 7 20
M  V30 20 1 7 21
M  V30 21 1 8 22
M  V30 22 1 8 23
M  V30 23 1 9 24
M  V30 24 1 9 25
M  V30 END BOND
M  V30 END CTAB
M  END
