
     RDKit          3D

  0  0  0  0  0  0  0  0  0  0999 V3000
M  V30 BEGIN CTAB
M  V30 COUNTS 33 35 0 0 0
M  V30 BEGIN ATOM
M  V30 1 N -2.37739 3.56704 -0.13725 0
M  V30 2 C -1.42778 2.89858 -0.0699138 0
M  V30 3 C -0.251959 2.0662 0.00816983 0
M  V30 4 C 0.875351 2.50715 0.508063 0
M  V30 5 N 0.90983 3.86244 0.979481 0
M  V30 6 O 2.03883 1.77812 0.625166 0
M  V30 7 C 1.98552 0.446039 0.163263 0
M  V30 8 C 0.864902 -0.113729 -0.373378 0
M  V30 9 C -0.373272 0.705869 -0.528379 0
M  V30 10 C -1.60609 -0.00759078 -0.211692 0
M  V30 11 C -2.45148 -0.410167 -1.26606 0
M  V30 12 C -3.60962 -1.08909 -1.00197 0
M  V30 13 C -3.94594 -1.37842 0.302799 0
M  V30 14 C -3.11479 -0.983603 1.35051 0
M  V30 15 C -1.95108 -0.301131 1.08915 0
M  V30 16 Br -0.81501 0.243435 2.50473 0
M  V30 17 C 0.834673 -1.41678 -0.812855 0
M  V30 18 C 1.96594 -2.18364 -0.712204 0
M  V30 19 C 3.11794 -1.65671 -0.178146 0
M  V30 20 C 3.12995 -0.350624 0.257622 0
M  V30 21 N 4.26147 -2.50536 -0.106841 0
M  V30 22 H 0.675967 4.01278 1.9781 0
M  V30 23 H 1.14996 4.68002 0.389937 0
M  V30 24 H -0.38962 0.885558 -1.6656 0
M  V30 25 H -2.20216 -0.192207 -2.29136 0
M  V30 26 H -4.24523 -1.38809 -1.83944 0
M  V30 27 H -4.86126 -1.91629 0.529617 0
M  V30 28 H -3.43055 -1.23851 2.35569 0
M  V30 29 H -0.100409 -1.83879 -1.24485 0
M  V30 30 H 1.90816 -3.21281 -1.06768 0
M  V30 31 H 4.02434 0.0779901 0.678017 0
M  V30 32 H 5.14423 -2.1017 -0.517388 0
M  V30 33 H 4.26658 -3.44598 0.304695 0
M  V30 END ATOM
M  V30 BEGIN BOND
M  V30 1 3 1 2
M  V30 2 1 2 3
M  V30 3 2 3 4
M  V30 4 1 4 5
M  V30 5 1 4 6
M  V30 6 1 6 7
M  V30 7 2 7 8
M  V30 8 1 8 9
M  V30 9 1 9 10
M  V30 10 2 10 11
M  V30 11 1 11 12
M  V30 12 2 12 13
M  V30 13 1 13 14
M  V30 14 2 14 15
M  V30 15 1 15 16
M  V30 16 1 8 17
M  V30 17 2 17 18
M  V30 18 1 18 19
M  V30 19 2 19 20
M  V30 20 1 19 21
M  V30 21 1 9 3
M  V30 22 1 15 10
M  V30 23 1 20 7
M  V30 24 1 5 22
M  V30 25 1 5 23
M  V30 26 1 9 24
M  V30 27 1 11 25
M  V30 28 1 12 26
M  V30 29 1 13 27
M  V30 30 1 14 28
M  V30 31 1 17 29
M  V30 32 1 18 30
M  V30 33 1 20 31
M  V30 34 1 21 32
M  V30 35 1 21 33
M  V30 END BOND
M  V30 END CTAB
M  END
