
     RDKit          3D

  0  0  0  0  0  0  0  0  0  0999 V3000
M  V30 BEGIN CTAB
M  V30 COUNTS 43 44 0 0 0
M  V30 BEGIN ATOM
M  V30 1 C 4.15451 -0.606897 1.18817 0
M  V30 2 N 4.14142 0.632317 0.549288 0
M  V30 3 C 3.00882 1.26172 0.0876567 0
M  V30 4 C 2.22129 0.862282 -1.08544 0
M  V30 5 N 1.63877 -0.429461 -1.17691 0
M  V30 6 C 0.244488 -0.728445 -0.960284 0
M  V30 7 C -0.618377 0.26406 -0.548048 0
M  V30 8 C -1.95134 -0.0885574 -0.3479 0
M  V30 9 N -2.3696 -1.35023 -0.552037 0
M  V30 10 C -1.52392 -2.31432 -0.95456 0
M  V30 11 N -0.237738 -1.97527 -1.14773 0
M  V30 12 N -1.95007 -3.67697 -1.178 0
M  V30 13 C -2.88534 0.972446 0.100403 0
M  V30 14 C -3.54638 0.644898 1.45246 0
M  V30 15 C -4.79241 1.33316 0.879986 0
M  V30 16 C -4.26412 0.955542 -0.504391 0
M  V30 17 N -6.02936 0.724947 1.26795 0
M  V30 18 C 2.44812 -1.60595 -1.47219 0
M  V30 19 C 5.32495 1.43535 0.729147 0
M  V30 20 H 4.65079 -1.45394 0.709321 0
M  V30 21 H 4.6673 -0.481599 2.18417 0
M  V30 22 H 3.09876 -0.892799 1.47873 0
M  V30 23 H 3.27431 2.38455 -0.0180404 0
M  V30 24 H 2.29991 1.35027 1.00246 0
M  V30 25 H 1.37627 1.61674 -1.19642 0
M  V30 26 H 2.80271 1.09395 -2.06018 0
M  V30 27 H -0.351448 1.28 -0.362835 0
M  V30 28 H -2.11416 -4.0816 -2.10153 0
M  V30 29 H -2.09732 -4.28865 -0.330004 0
M  V30 30 H -2.44655 1.99296 0.100488 0
M  V30 31 H -3.10415 1.17024 2.30208 0
M  V30 32 H -3.63422 -0.457616 1.53108 0
M  V30 33 H -4.7104 2.41616 1.10042 0
M  V30 34 H -4.60949 -0.0534109 -0.784269 0
M  V30 35 H -4.45312 1.7511 -1.2581 0
M  V30 36 H -5.92012 -0.25414 1.62484 0
M  V30 37 H -6.4426 1.34983 2.01741 0
M  V30 38 H 2.33452 -2.29564 -0.633958 0
M  V30 39 H 3.48671 -1.40472 -1.69892 0
M  V30 40 H 2.01865 -2.0542 -2.42711 0
M  V30 41 H 6.2571 0.865199 0.595275 0
M  V30 42 H 5.30663 2.34547 0.102577 0
M  V30 43 H 5.29618 1.79122 1.79496 0
M  V30 END ATOM
M  V30 BEGIN BOND
M  V30 1 1 1 2
M  V30 2 1 2 3
M  V30 3 1 3 4
M  V30 4 1 4 5
M  V30 5 1 5 6
M  V30 6 2 6 7
M  V30 7 1 7 8
M  V30 8 2 8 9
M  V30 9 1 9 10
M  V30 10 2 10 11
M  V30 11 1 10 12
M  V30 12 1 8 13
M  V30 13 1 13 14
M  V30 14 1 14 15
M  V30 15 1 15 16
M  V30 16 1 15 17
M  V30 17 1 5 18
M  V30 18 1 2 19
M  V30 19 1 11 6
M  V30 20 1 16 13
M  V30 21 1 1 20
M  V30 22 1 1 21
M  V30 23 1 1 22
M  V30 24 1 3 23
M  V30 25 1 3 24
M  V30 26 1 4 25
M  V30 27 1 4 26
M  V30 28 1 7 27
M  V30 29 1 12 28
M  V30 30 1 12 29
M  V30 31 1 13 30
M  V30 32 1 14 31
M  V30 33 1 14 32
M  V30 34 1 15 33
M  V30 35 1 16 34
M  V30 36 1 16 35
M  V30 37 1 17 36
M  V30 38 1 17 37
M  V30 39 1 18 38
M  V30 40 1 18 39
M  V30 41 1 18 40
M  V30 42 1 19 41
M  V30 43 1 19 42
M  V30 44 1 19 43
M  V30 END BOND
M  V30 END CTAB
M  END
