
     RDKit          3D

  0  0  0  0  0  0  0  0  0  0999 V3000
M  V30 BEGIN CTAB
M  V30 COUNTS 15 15 0 0 0
M  V30 BEGIN ATOM
M  V30 1 N -2.38437 0.771156 -0.185319 0
M  V30 2 C -1.17463 0.0527762 -0.118946 0
M  V30 3 C -1.12921 -1.31064 -0.230736 0
M  V30 4 N 0.0277383 -1.99189 -0.166761 0
M  V30 5 C 1.20163 -1.359 0.0113779 0
M  V30 6 C 1.16476 0.0156542 0.125033 0
M  V30 7 N 2.38277 0.732538 0.315011 0
M  V30 8 N 0.00471462 0.702564 0.0612136 0 CHG=1
M  V30 9 O -0.0217912 2.07401 0.175689 0 CHG=-1
M  V30 10 H -2.48764 1.74344 0.175323 0
M  V30 11 H -3.238 0.34374 -0.607865 0
M  V30 12 H -2.08798 -1.834 -0.376781 0
M  V30 13 H 2.14433 -1.89428 0.0651979 0
M  V30 14 H 3.05186 0.758785 -0.478034 0
M  V30 15 H 2.54582 1.19514 1.2356 0
M  V30 END ATOM
M  V30 BEGIN BOND
M  V30 1 1 1 2
M  V30 2 2 2 3
M  V30 3 1 3 4
M  V30 4 2 4 5
M  V30 5 1 5 6
M  V30 6 1 6 7
M  V30 7 2 6 8
M  V30 8 1 8 9
M  V30 9 1 8 2
M  V30 10 1 1 10
M  V30 11 1 1 11
M  V30 12 1 3 12
M  V30 13 1 5 13
M  V30 14 1 7 14
M  V30 15 1 7 15
M  V30 END BOND
M  V30 END CTAB
M  END
