
     RDKit          3D

  0  0  0  0  0  0  0  0  0  0999 V3000
M  V30 BEGIN CTAB
M  V30 COUNTS 30 31 0 0 0
M  V30 BEGIN ATOM
M  V30 1 N -1.15787 -2.72857 1.46757 0
M  V30 2 C -1.62894 -1.75456 1.07704 0
M  V30 3 C -2.23679 -0.540387 0.604873 0
M  V30 4 C -3.61333 -0.463695 0.373345 0
M  V30 5 N -4.43422 -1.60277 0.606455 0
M  V30 6 C -4.16587 0.713945 -0.0789094 0
M  V30 7 C -3.30897 1.77635 -0.282602 0
M  V30 8 N -1.96895 1.6799 -0.0503652 0
M  V30 9 C -1.41429 0.545415 0.388676 0
M  V30 10 S 0.340335 0.428608 0.689742 0
M  V30 11 C 1.22125 -0.125886 -0.798367 0
M  V30 12 C 2.6735 -0.220395 -0.542784 0
M  V30 13 C 3.27251 0.0754242 0.668846 0
M  V30 14 C 4.62952 -0.0227724 0.874799 0
M  V30 15 C 5.4549 -0.429948 -0.148051 0
M  V30 16 C 4.87876 -0.728917 -1.36115 0
M  V30 17 C 3.51952 -0.625674 -1.55128 0
M  V30 18 Br 2.82353 -1.06244 -3.26677 0
M  V30 19 N -3.81533 3.00325 -0.74334 0
M  V30 20 H -4.14731 -2.22957 1.40767 0
M  V30 21 H -5.27006 -1.82568 0.0369521 0
M  V30 22 H -5.23778 0.815967 -0.272435 0
M  V30 23 H 0.870964 -1.16664 -1.03429 0
M  V30 24 H 1.03302 0.516178 -1.66425 0
M  V30 25 H 2.6393 0.397237 1.48496 0
M  V30 26 H 5.08456 0.210472 1.82322 0
M  V30 27 H 6.53696 -0.519051 -0.0194153 0
M  V30 28 H 5.51122 -1.04835 -2.1693 0
M  V30 29 H -3.39714 3.93487 -0.563822 0
M  V30 30 H -4.69302 2.99768 -1.32162 0
M  V30 END ATOM
M  V30 BEGIN BOND
M  V30 1 3 1 2
M  V30 2 1 2 3
M  V30 3 2 3 4
M  V30 4 1 4 5
M  V30 5 1 4 6
M  V30 6 2 6 7
M  V30 7 1 7 8
M  V30 8 2 8 9
M  V30 9 1 9 10
M  V30 10 1 10 11
M  V30 11 1 11 12
M  V30 12 2 12 13
M  V30 13 1 13 14
M  V30 14 2 14 15
M  V30 15 1 15 16
M  V30 16 2 16 17
M  V30 17 1 17 18
M  V30 18 1 7 19
M  V30 19 1 9 3
M  V30 20 1 17 12
M  V30 21 1 5 20
M  V30 22 1 5 21
M  V30 23 1 6 22
M  V30 24 1 11 23
M  V30 25 1 11 24
M  V30 26 1 13 25
M  V30 27 1 14 26
M  V30 28 1 15 27
M  V30 29 1 16 28
M  V30 30 1 19 29
M  V30 31 1 19 30
M  V30 END BOND
M  V30 END CTAB
M  END
