
     RDKit          3D

  0  0  0  0  0  0  0  0  0  0999 V3000
M  V30 BEGIN CTAB
M  V30 COUNTS 45 47 0 0 0
M  V30 BEGIN ATOM
M  V30 1 N 7.22829 -0.609548 -1.08841 0
M  V30 2 C 5.99751 -0.133295 -1.69054 0
M  V30 3 C 4.89137 -1.16884 -1.50273 0
M  V30 4 C 4.6714 -0.615813 -0.144326 0
M  V30 5 C 5.25326 0.722209 -0.691657 0
M  V30 6 C 3.27633 -0.43368 0.329179 0
M  V30 7 C 2.16209 -0.490643 -0.445852 0
M  V30 8 C 0.900502 -0.257155 0.0874886 0
M  V30 9 N -0.260045 -0.318559 -0.719626 0
M  V30 10 C -1.54006 -0.0298098 -0.133225 0
M  V30 11 C -2.66596 -0.215455 -1.1302 0
M  V30 12 C -3.98723 0.130127 -0.560441 0
M  V30 13 C -4.4246 1.45009 -0.693113 0
M  V30 14 C -5.64801 1.87245 -0.205759 0
M  V30 15 C -6.46884 0.981188 0.429251 0
M  V30 16 C -6.05558 -0.330606 0.571798 0
M  V30 17 C -4.82639 -0.75587 0.0840011 0
M  V30 18 C -6.92973 -1.34117 1.26005 0
M  V30 19 F -7.11842 -2.36709 0.361044 0
M  V30 20 F -6.34918 -1.7506 2.44246 0
M  V30 21 F -8.16886 -0.751693 1.46752 0
M  V30 22 N 0.842924 0.0247683 1.41177 0
M  V30 23 C 1.93183 0.0844362 2.19736 0
M  V30 24 N 3.11288 -0.144884 1.63778 0
M  V30 25 N 1.84651 0.388885 3.57473 0
M  V30 26 H 7.4403 -0.100457 -0.196405 0
M  V30 27 H 8.03305 -0.613192 -1.76071 0
M  V30 28 H 6.07879 0.300035 -2.70467 0
M  V30 29 H 5.32726 -2.1834 -1.60365 0
M  V30 30 H 4.10922 -0.959019 -2.2607 0
M  V30 31 H 5.33043 -1.01187 0.62223 0
M  V30 32 H 4.39995 1.30081 -1.09724 0
M  V30 33 H 5.84815 1.19023 0.0988648 0
M  V30 34 H 2.26169 -0.721458 -1.47609 0
M  V30 35 H -0.18837 -0.562135 -1.71711 0
M  V30 36 H -1.66798 -0.593776 0.779065 0
M  V30 37 H -1.4904 1.0573 0.182756 0
M  V30 38 H -2.69446 -1.34306 -1.30068 0
M  V30 39 H -2.45705 0.212514 -2.10492 0
M  V30 40 H -3.74996 2.14141 -1.20046 0
M  V30 41 H -5.96166 2.90866 -0.32176 0
M  V30 42 H -7.42448 1.27372 0.813069 0
M  V30 43 H -4.49099 -1.78898 0.184939 0
M  V30 44 H 1.65262 -0.37221 4.25572 0
M  V30 45 H 1.9719 1.3532 3.95918 0
M  V30 END ATOM
M  V30 BEGIN BOND
M  V30 1 1 1 2
M  V30 2 1 2 3
M  V30 3 1 3 4
M  V30 4 1 4 5
M  V30 5 1 4 6
M  V30 6 2 6 7
M  V30 7 1 7 8
M  V30 8 1 8 9
M  V30 9 1 9 10
M  V30 10 1 10 11
M  V30 11 1 11 12
M  V30 12 2 12 13
M  V30 13 1 13 14
M  V30 14 2 14 15
M  V30 15 1 15 16
M  V30 16 2 16 17
M  V30 17 1 16 18
M  V30 18 1 18 19
M  V30 19 1 18 20
M  V30 20 1 18 21
M  V30 21 2 8 22
M  V30 22 1 22 23
M  V30 23 2 23 24
M  V30 24 1 23 25
M  V30 25 1 5 2
M  V30 26 1 24 6
M  V30 27 1 17 12
M  V30 28 1 1 26
M  V30 29 1 1 27
M  V30 30 1 2 28
M  V30 31 1 3 29
M  V30 32 1 3 30
M  V30 33 1 4 31
M  V30 34 1 5 32
M  V30 35 1 5 33
M  V30 36 1 7 34
M  V30 37 1 9 35
M  V30 38 1 10 36
M  V30 39 1 10 37
M  V30 40 1 11 38
M  V30 41 1 11 39
M  V30 42 1 13 40
M  V30 43 1 14 41
M  V30 44 1 15 42
M  V30 45 1 17 43
M  V30 46 1 25 44
M  V30 47 1 25 45
M  V30 END BOND
M  V30 END CTAB
M  END
