
     RDKit          3D

  0  0  0  0  0  0  0  0  0  0999 V3000
M  V30 BEGIN CTAB
M  V30 COUNTS 47 48 0 0 0
M  V30 BEGIN ATOM
M  V30 1 N 2.67343 -2.24962 0.142398 0
M  V30 2 C 3.25942 -0.990852 0.35878 0 CFG=1
M  V30 3 C 3.9553 -0.516643 -0.891837 0 CFG=2
M  V30 4 O 5.34685 -0.508981 -0.745333 0
M  V30 5 O 3.52181 0.781472 -1.13668 0
M  V30 6 C 2.13924 0.733507 -1.42773 0 CFG=2
M  V30 7 C 1.83909 2.02448 -2.14085 0
M  V30 8 O 2.12415 3.15013 -1.37116 0
M  V30 9 C 1.31117 0.488842 -0.217065 0 CFG=1
M  V30 10 O 0.39305 -0.540104 -0.344461 0
M  V30 11 C -0.877834 -0.237692 0.0407876 0 CFG=2
M  V30 12 O -1.27994 -0.973535 1.14938 0
M  V30 13 C -2.40997 -0.517918 1.74669 0 CFG=2
M  V30 14 C -3.27411 -1.71612 2.15781 0
M  V30 15 O -4.44759 -1.2944 2.77675 0
M  V30 16 C -3.21937 0.459322 0.996412 0 CFG=1
M  V30 17 O -2.91488 1.77927 1.40006 0
M  V30 18 C -3.18418 0.311337 -0.496018 0 CFG=2
M  V30 19 O -4.29691 -0.396994 -0.966837 0
M  V30 20 C -1.92994 -0.367957 -0.995131 0 CFG=1
M  V30 21 N -1.59489 0.241735 -2.25908 0
M  V30 22 C 2.28125 0.0432663 0.888954 0 CFG=2
M  V30 23 O 2.89683 1.10841 1.50033 0
M  V30 24 H 3.12638 -3.01805 0.587377 0
M  V30 25 H 2.23575 -2.43939 -0.727156 0
M  V30 26 H 4.03416 -1.11205 1.14408 0
M  V30 27 H 3.66009 -1.14775 -1.73519 0
M  V30 28 H 5.51906 -0.293825 0.213498 0
M  V30 29 H 2.03381 -0.0802148 -2.17916 0
M  V30 30 H 2.54815 2.07372 -3.00961 0
M  V30 31 H 0.828277 2.06188 -2.58438 0
M  V30 32 H 2.8008 2.99932 -0.694755 0
M  V30 33 H 0.790375 1.36656 0.185202 0
M  V30 34 H -0.874124 0.838431 0.387736 0
M  V30 35 H -2.11096 -0.0450794 2.72841 0
M  V30 36 H -2.68372 -2.25422 2.94078 0
M  V30 37 H -3.49803 -2.36218 1.2845 0
M  V30 38 H -4.24706 -0.457055 3.28504 0
M  V30 39 H -4.2991 0.321751 1.30172 0
M  V30 40 H -3.15499 2.36997 0.620096 0
M  V30 41 H -3.25746 1.33059 -0.930621 0
M  V30 42 H -5.11588 -0.123859 -0.476182 0
M  V30 43 H -2.10828 -1.4551 -1.17461 0
M  V30 44 H -2.38638 0.240112 -2.90707 0
M  V30 45 H -0.726132 -0.214587 -2.61033 0
M  V30 46 H 1.71587 -0.505179 1.69802 0
M  V30 47 H 2.85742 1.09523 2.48644 0
M  V30 END ATOM
M  V30 BEGIN BOND
M  V30 1 1 1 2
M  V30 2 1 2 3
M  V30 3 1 3 4
M  V30 4 1 3 5
M  V30 5 1 5 6
M  V30 6 1 6 7
M  V30 7 1 7 8
M  V30 8 1 6 9
M  V30 9 1 9 10
M  V30 10 1 10 11
M  V30 11 1 11 12
M  V30 12 1 12 13
M  V30 13 1 13 14
M  V30 14 1 14 15
M  V30 15 1 13 16
M  V30 16 1 16 17
M  V30 17 1 16 18
M  V30 18 1 18 19
M  V30 19 1 18 20
M  V30 20 1 20 21
M  V30 21 1 9 22
M  V30 22 1 22 23
M  V30 23 1 22 2
M  V30 24 1 20 11
M  V30 25 1 1 24
M  V30 26 1 1 25
M  V30 27 1 2 26 CFG=1
M  V30 28 1 3 27 CFG=3
M  V30 29 1 4 28
M  V30 30 1 6 29 CFG=3
M  V30 31 1 7 30
M  V30 32 1 7 31
M  V30 33 1 8 32
M  V30 34 1 9 33 CFG=1
M  V30 35 1 11 34 CFG=1
M  V30 36 1 13 35 CFG=1
M  V30 37 1 14 36
M  V30 38 1 14 37
M  V30 39 1 15 38
M  V30 40 1 16 39 CFG=1
M  V30 41 1 17 40
M  V30 42 1 18 41 CFG=3
M  V30 43 1 19 42
M  V30 44 1 20 43 CFG=3
M  V30 45 1 21 44
M  V30 46 1 21 45
M  V30 47 1 22 46 CFG=1
M  V30 48 1 23 47
M  V30 END BOND
M  V30 END CTAB
M  END
