
     RDKit          3D

  0  0  0  0  0  0  0  0  0  0999 V3000
M  V30 BEGIN CTAB
M  V30 COUNTS 47 48 0 0 0
M  V30 BEGIN ATOM
M  V30 1 C -2.24213 2.03021 -2.74249 0
M  V30 2 O -2.97629 1.72222 -1.59519 0
M  V30 3 C -2.69482 0.65135 -0.758753 0
M  V30 4 C -1.63293 -0.218026 -1.00675 0
M  V30 5 C -1.36138 -1.27561 -0.173545 0
M  V30 6 C -2.16522 -1.46566 0.924639 0
M  V30 7 C -3.22915 -0.612995 1.19285 0
M  V30 8 O -4.04455 -0.805087 2.30608 0
M  V30 9 C -3.83378 -1.86862 3.21328 0
M  V30 10 C -3.4901 0.443985 0.3485 0
M  V30 11 O -4.56149 1.27329 0.650073 0
M  V30 12 C -4.37558 2.41154 1.46809 0
M  V30 13 C -0.254943 -2.19586 -0.416459 0 CFG=1
M  V30 14 C -0.429192 -2.78319 -1.808 0
M  V30 15 C 1.00568 -1.42111 -0.338327 0
M  V30 16 C 2.03131 -0.787359 -0.293146 0
M  V30 17 C 3.25424 -0.0348281 -0.263948 0
M  V30 18 C 3.68876 0.567786 0.899721 0
M  V30 19 C 2.89104 0.445865 2.15011 0
M  V30 20 N 4.83861 1.26687 0.897916 0
M  V30 21 C 5.59906 1.40636 -0.213992 0
M  V30 22 N 6.79674 2.157 -0.138567 0
M  V30 23 N 5.16329 0.815912 -1.33319 0
M  V30 24 C 4.02709 0.101422 -1.41296 0
M  V30 25 N 3.60945 -0.50788 -2.63496 0
M  V30 26 H -2.50204 3.03561 -3.08603 0
M  V30 27 H -2.51669 1.30989 -3.56085 0
M  V30 28 H -1.1669 1.94765 -2.5205 0
M  V30 29 H -1.01364 -0.0424881 -1.88408 0
M  V30 30 H -1.99247 -2.29111 1.61858 0
M  V30 31 H -2.96563 -1.62292 3.85868 0
M  V30 32 H -4.74341 -1.91821 3.8525 0
M  V30 33 H -3.68019 -2.8102 2.64006 0
M  V30 34 H -3.99327 3.23039 0.848945 0
M  V30 35 H -5.3051 2.65759 2.01049 0
M  V30 36 H -3.59538 2.19064 2.22916 0
M  V30 37 H -0.192901 -2.97507 0.350843 0
M  V30 38 H -0.537303 -1.93213 -2.50432 0
M  V30 39 H -1.34648 -3.37621 -1.79985 0
M  V30 40 H 0.487682 -3.35779 -2.03628 0
M  V30 41 H 2.39198 1.42523 2.40297 0
M  V30 42 H 2.13738 -0.34251 2.02575 0
M  V30 43 H 3.54129 0.187495 3.01117 0
M  V30 44 H 7.19228 2.56873 -0.992292 0
M  V30 45 H 7.27137 2.29056 0.770403 0
M  V30 46 H 3.58772 -1.53981 -2.68028 0
M  V30 47 H 3.32802 0.0470745 -3.47603 0
M  V30 END ATOM
M  V30 BEGIN BOND
M  V30 1 1 1 2
M  V30 2 1 2 3
M  V30 3 2 3 4
M  V30 4 1 4 5
M  V30 5 2 5 6
M  V30 6 1 6 7
M  V30 7 1 7 8
M  V30 8 1 8 9
M  V30 9 2 7 10
M  V30 10 1 10 11
M  V30 11 1 11 12
M  V30 12 1 5 13
M  V30 13 1 13 14
M  V30 14 1 13 15
M  V30 15 3 15 16
M  V30 16 1 16 17
M  V30 17 2 17 18
M  V30 18 1 18 19
M  V30 19 1 18 20
M  V30 20 2 20 21
M  V30 21 1 21 22
M  V30 22 1 21 23
M  V30 23 2 23 24
M  V30 24 1 24 25
M  V30 25 1 10 3
M  V30 26 1 24 17
M  V30 27 1 1 26
M  V30 28 1 1 27
M  V30 29 1 1 28
M  V30 30 1 4 29
M  V30 31 1 6 30
M  V30 32 1 9 31
M  V30 33 1 9 32
M  V30 34 1 9 33
M  V30 35 1 12 34
M  V30 36 1 12 35
M  V30 37 1 12 36
M  V30 38 1 13 37 CFG=1
M  V30 39 1 14 38
M  V30 40 1 14 39
M  V30 41 1 14 40
M  V30 42 1 19 41
M  V30 43 1 19 42
M  V30 44 1 19 43
M  V30 45 1 22 44
M  V30 46 1 22 45
M  V30 47 1 25 46
M  V30 48 1 25 47
M  V30 END BOND
M  V30 END CTAB
M  END
