
     RDKit          3D

  0  0  0  0  0  0  0  0  0  0999 V3000
M  V30 BEGIN CTAB
M  V30 COUNTS 27 27 0 0 0
M  V30 BEGIN ATOM
M  V30 1 N -0.902498 -1.48037 -0.738946 0
M  V30 2 C -0.798871 -0.621521 0.362141 0 CFG=1
M  V30 3 C 0.484777 0.100872 0.314951 0
M  V30 4 N 0.64808 1.39995 0.533174 0
M  V30 5 C 1.87969 1.96644 0.464367 0
M  V30 6 C 3.01001 1.2341 0.168622 0
M  V30 7 C 2.86968 -0.132164 -0.0653257 0
M  V30 8 C 1.60851 -0.660265 0.0147894 0
M  V30 9 N 3.97556 -0.949118 -0.373323 0
M  V30 10 C -1.98974 0.275714 0.50126 0
M  V30 11 C -2.22212 1.16299 -0.674932 0
M  V30 12 C -3.21005 -0.620205 0.664348 0
M  V30 13 H -0.437174 -2.33851 -0.6502 0
M  V30 14 H -0.983026 -1.05509 -1.60835 0
M  V30 15 H -0.769144 -1.26665 1.27823 0
M  V30 16 H 2.0331 3.03273 0.640746 0
M  V30 17 H 3.99192 1.6579 0.108586 0
M  V30 18 H 1.52065 -1.74189 -0.173699 0
M  V30 19 H 4.80505 -0.939297 0.2375 0
M  V30 20 H 3.95563 -1.55453 -1.20631 0
M  V30 21 H -1.92402 0.898519 1.42776 0
M  V30 22 H -1.8529 2.20676 -0.47344 0
M  V30 23 H -3.3359 1.29504 -0.810518 0
M  V30 24 H -1.84283 0.794781 -1.62671 0
M  V30 25 H -4.10362 -0.201422 0.16118 0
M  V30 26 H -3.02801 -1.62064 0.173729 0
M  V30 27 H -3.38274 -0.844115 1.72818 0
M  V30 END ATOM
M  V30 BEGIN BOND
M  V30 1 1 1 2
M  V30 2 1 2 3
M  V30 3 2 3 4
M  V30 4 1 4 5
M  V30 5 2 5 6
M  V30 6 1 6 7
M  V30 7 2 7 8
M  V30 8 1 7 9
M  V30 9 1 2 10
M  V30 10 1 10 11
M  V30 11 1 10 12
M  V30 12 1 8 3
M  V30 13 1 1 13
M  V30 14 1 1 14
M  V30 15 1 2 15 CFG=1
M  V30 16 1 5 16
M  V30 17 1 6 17
M  V30 18 1 8 18
M  V30 19 1 9 19
M  V30 20 1 9 20
M  V30 21 1 10 21
M  V30 22 1 11 22
M  V30 23 1 11 23
M  V30 24 1 11 24
M  V30 25 1 12 25
M  V30 26 1 12 26
M  V30 27 1 12 27
M  V30 END BOND
M  V30 END CTAB
M  END
