
     RDKit          3D

  0  0  0  0  0  0  0  0  0  0999 V3000
M  V30 BEGIN CTAB
M  V30 COUNTS 54 57 0 0 0
M  V30 BEGIN ATOM
M  V30 1 N -6.39821 -2.42716 -0.790145 0
M  V30 2 C -6.41036 -1.37057 0.16781 0 CFG=2
M  V30 3 C -5.86114 -0.0441168 -0.323305 0
M  V30 4 C -5.21696 0.0937698 1.0626 0 CFG=1
M  V30 5 C -5.24954 -1.38679 1.17068 0
M  V30 6 C -3.90125 0.748535 1.04842 0
M  V30 7 C -2.84019 0.340324 0.283343 0
M  V30 8 C -1.62733 0.99719 0.312451 0
M  V30 9 N -1.54249 2.05868 1.13132 0
M  V30 10 C -2.55527 2.50623 1.9082 0
M  V30 11 N -3.71602 1.8216 1.83528 0
M  V30 12 N -2.39208 3.63665 2.75019 0
M  V30 13 N -0.518321 0.583984 -0.476256 0
M  V30 14 C 0.718741 1.33735 -0.396373 0
M  V30 15 C 1.78263 0.291484 -0.03183 0
M  V30 16 N 1.92408 -0.57155 -1.135 0
M  V30 17 C 0.768802 -1.09758 -1.73187 0
M  V30 18 C -0.542606 -0.539864 -1.35389 0
M  V30 19 C 3.06415 -0.409324 -1.96592 0
M  V30 20 C 4.35723 -0.601386 -1.27217 0
M  V30 21 C 4.82483 -1.88945 -1.09768 0
M  V30 22 C 6.01054 -2.11137 -0.470769 0
M  V30 23 C 6.81343 -1.08889 0.0247554 0
M  V30 24 C 6.35082 0.200121 -0.146988 0
M  V30 25 C 5.14546 0.419063 -0.784657 0
M  V30 26 C 7.1821 1.32929 0.370327 0
M  V30 27 H -6.58645 -2.01577 -1.7314 0
M  V30 28 H -7.1837 -3.07762 -0.585766 0
M  V30 29 H -7.39734 -1.17342 0.661866 0
M  V30 30 H -5.07081 -0.137764 -1.10558 0
M  V30 31 H -6.62033 0.729803 -0.53882 0
M  V30 32 H -5.94785 0.56109 1.74123 0
M  V30 33 H -5.63432 -1.7464 2.1627 0
M  V30 34 H -4.40047 -1.96044 0.800805 0
M  V30 35 H -2.98663 -0.51712 -0.346195 0
M  V30 36 H -2.93785 3.70456 3.62554 0
M  V30 37 H -1.73719 4.40156 2.51163 0
M  V30 38 H 0.950675 1.76215 -1.38977 0
M  V30 39 H 0.69497 2.09173 0.415358 0
M  V30 40 H 1.36579 -0.263523 0.842695 0
M  V30 41 H 2.7108 0.807539 0.197269 0
M  V30 42 H 0.878707 -1.0053 -2.85308 0
M  V30 43 H 0.75712 -2.21254 -1.56599 0
M  V30 44 H -1.18933 -1.32539 -0.862789 0
M  V30 45 H -1.1507 -0.232874 -2.25521 0
M  V30 46 H 3.06893 0.672116 -2.29895 0
M  V30 47 H 3.00513 -0.978646 -2.91474 0
M  V30 48 H 4.22846 -2.71239 -1.4697 0
M  V30 49 H 6.3556 -3.11345 -0.345225 0
M  V30 50 H 7.75601 -1.31102 0.520399 0
M  V30 51 H 4.80262 1.43808 -0.908047 0
M  V30 52 H 6.48313 2.11933 0.703261 0
M  V30 53 H 7.85208 1.66956 -0.432124 0
M  V30 54 H 7.76192 0.999921 1.24484 0
M  V30 END ATOM
M  V30 BEGIN BOND
M  V30 1 1 1 2
M  V30 2 1 2 3
M  V30 3 1 3 4
M  V30 4 1 4 5
M  V30 5 1 4 6
M  V30 6 2 6 7
M  V30 7 1 7 8
M  V30 8 2 8 9
M  V30 9 1 9 10
M  V30 10 2 10 11
M  V30 11 1 10 12
M  V30 12 1 8 13
M  V30 13 1 13 14
M  V30 14 1 14 15
M  V30 15 1 15 16
M  V30 16 1 16 17
M  V30 17 1 17 18
M  V30 18 1 16 19
M  V30 19 1 19 20
M  V30 20 2 20 21
M  V30 21 1 21 22
M  V30 22 2 22 23
M  V30 23 1 23 24
M  V30 24 2 24 25
M  V30 25 1 24 26
M  V30 26 1 5 2
M  V30 27 1 11 6
M  V30 28 1 18 13
M  V30 29 1 25 20
M  V30 30 1 1 27
M  V30 31 1 1 28
M  V30 32 1 2 29 CFG=1
M  V30 33 1 3 30
M  V30 34 1 3 31
M  V30 35 1 4 32 CFG=1
M  V30 36 1 5 33
M  V30 37 1 5 34
M  V30 38 1 7 35
M  V30 39 1 12 36
M  V30 40 1 12 37
M  V30 41 1 14 38
M  V30 42 1 14 39
M  V30 43 1 15 40
M  V30 44 1 15 41
M  V30 45 1 17 42
M  V30 46 1 17 43
M  V30 47 1 18 44
M  V30 48 1 18 45
M  V30 49 1 19 46
M  V30 50 1 19 47
M  V30 51 1 21 48
M  V30 52 1 22 49
M  V30 53 1 23 50
M  V30 54 1 25 51
M  V30 55 1 26 52
M  V30 56 1 26 53
M  V30 57 1 26 54
M  V30 END BOND
M  V30 END CTAB
M  END
