
     RDKit          3D

  0  0  0  0  0  0  0  0  0  0999 V3000
M  V30 BEGIN CTAB
M  V30 COUNTS 26 25 0 0 0
M  V30 BEGIN ATOM
M  V30 1 C 2.64102 -1.22243 -0.0620142 0 CFG=1
M  V30 2 N 2.69375 -2.13785 1.04006 0
M  V30 3 C 1.90015 0.0332069 0.395232 0
M  V30 4 S 0.243606 -0.496449 0.89575 0
M  V30 5 S -0.921821 1.14948 1.56637 0
M  V30 6 C -1.83617 1.90621 0.206451 0
M  V30 7 C -2.87883 0.982597 -0.344471 0
M  V30 8 N -2.24449 -0.207614 -0.83051 0
M  V30 9 C -3.93299 0.699713 0.653998 0
M  V30 10 O -4.21599 -0.604561 1.01474 0
M  V30 11 O -4.59641 1.6155 1.20003 0
M  V30 12 C 3.99477 -0.83737 -0.523846 0
M  V30 13 O 4.15159 0.035605 -1.5793 0
M  V30 14 O 5.00648 -1.31003 0.050631 0
M  V30 15 H 2.0442 -1.66831 -0.878956 0
M  V30 16 H 2.08562 -1.8107 1.836 0
M  V30 17 H 3.66502 -2.1856 1.44815 0
M  V30 18 H 2.40514 0.525591 1.23023 0
M  V30 19 H 1.77282 0.742617 -0.44426 0
M  V30 20 H -1.10753 2.2074 -0.560205 0
M  V30 21 H -2.30359 2.84489 0.579217 0
M  V30 22 H -3.35743 1.48446 -1.2193 0
M  V30 23 H -2.64776 -0.508733 -1.74222 0
M  V30 24 H -2.30859 -0.937194 -0.0896337 0
M  V30 25 H -5.12397 -1.03633 0.887574 0
M  V30 26 H 4.8714 0.73591 -1.56561 0
M  V30 END ATOM
M  V30 BEGIN BOND
M  V30 1 1 1 2
M  V30 2 1 1 3
M  V30 3 1 3 4
M  V30 4 1 4 5
M  V30 5 1 5 6
M  V30 6 1 6 7
M  V30 7 1 7 8
M  V30 8 1 7 9
M  V30 9 1 9 10
M  V30 10 2 9 11
M  V30 11 1 1 12
M  V30 12 1 12 13
M  V30 13 2 12 14
M  V30 14 1 1 15 CFG=3
M  V30 15 1 2 16
M  V30 16 1 2 17
M  V30 17 1 3 18
M  V30 18 1 3 19
M  V30 19 1 6 20
M  V30 20 1 6 21
M  V30 21 1 7 22
M  V30 22 1 8 23
M  V30 23 1 8 24
M  V30 24 1 10 25
M  V30 25 1 13 26
M  V30 END BOND
M  V30 END CTAB
M  END
