
     RDKit          3D

  0  0  0  0  0  0  0  0  0  0999 V3000
M  V30 BEGIN CTAB
M  V30 COUNTS 40 41 0 0 0
M  V30 BEGIN ATOM
M  V30 1 N 7.08077 -2.08807 0.344969 0
M  V30 2 C 6.00701 -1.19952 0.0564692 0
M  V30 3 C 4.86902 -1.30424 0.824814 0
M  V30 4 C 3.78473 -0.448067 0.575624 0
M  V30 5 C 3.80589 0.492466 -0.404087 0
M  V30 6 O 2.81991 1.34887 -0.719515 0
M  V30 7 C 1.54685 1.44593 -0.150688 0
M  V30 8 C 0.727847 0.231121 -0.423175 0
M  V30 9 C -0.622243 0.327658 0.246451 0
M  V30 10 C -1.38418 1.49884 -0.283651 0
M  V30 11 O -2.65605 1.68805 0.203197 0
M  V30 12 C -3.75987 0.904974 0.065546 0
M  V30 13 C -3.81981 -0.263086 -0.652385 0
M  V30 14 C -4.98824 -1.01307 -0.741269 0
M  V30 15 C -6.1192 -0.590523 -0.10351 0
M  V30 16 N -7.31625 -1.33885 -0.181946 0
M  V30 17 C -6.10354 0.577906 0.627686 0
M  V30 18 C -4.95577 1.30098 0.707119 0
M  V30 19 C 4.98722 0.559743 -1.15812 0
M  V30 20 C 6.06289 -0.255561 -0.944916 0
M  V30 21 H 7.2343 -2.97502 -0.196151 0
M  V30 22 H 7.74963 -1.85875 1.12462 0
M  V30 23 H 4.79126 -2.02843 1.61337 0
M  V30 24 H 2.92562 -0.540784 1.21455 0
M  V30 25 H 1.61559 1.52129 0.978808 0
M  V30 26 H 1.05871 2.40089 -0.453637 0
M  V30 27 H 1.22649 -0.72424 -0.200986 0
M  V30 28 H 0.533085 0.144081 -1.55363 0
M  V30 29 H -0.377314 0.50135 1.35716 0
M  V30 30 H -1.15128 -0.615682 0.152317 0
M  V30 31 H -0.797956 2.43993 -0.107764 0
M  V30 32 H -1.43597 1.37487 -1.39268 0
M  V30 33 H -2.92601 -0.598119 -1.19018 0
M  V30 34 H -4.95386 -1.93216 -1.33181 0
M  V30 35 H -7.9767 -1.32506 0.611889 0
M  V30 36 H -7.51573 -1.8915 -1.03468 0
M  V30 37 H -7.02198 0.885396 1.12254 0
M  V30 38 H -4.91715 2.22722 1.27815 0
M  V30 39 H 5.01572 1.3047 -1.93933 0
M  V30 40 H 6.95653 -0.185541 -1.53495 0
M  V30 END ATOM
M  V30 BEGIN BOND
M  V30 1 1 1 2
M  V30 2 2 2 3
M  V30 3 1 3 4
M  V30 4 2 4 5
M  V30 5 1 5 6
M  V30 6 1 6 7
M  V30 7 1 7 8
M  V30 8 1 8 9
M  V30 9 1 9 10
M  V30 10 1 10 11
M  V30 11 1 11 12
M  V30 12 2 12 13
M  V30 13 1 13 14
M  V30 14 2 14 15
M  V30 15 1 15 16
M  V30 16 1 15 17
M  V30 17 2 17 18
M  V30 18 1 5 19
M  V30 19 2 19 20
M  V30 20 1 20 2
M  V30 21 1 18 12
M  V30 22 1 1 21
M  V30 23 1 1 22
M  V30 24 1 3 23
M  V30 25 1 4 24
M  V30 26 1 7 25
M  V30 27 1 7 26
M  V30 28 1 8 27
M  V30 29 1 8 28
M  V30 30 1 9 29
M  V30 31 1 9 30
M  V30 32 1 10 31
M  V30 33 1 10 32
M  V30 34 1 13 33
M  V30 35 1 14 34
M  V30 36 1 16 35
M  V30 37 1 16 36
M  V30 38 1 17 37
M  V30 39 1 18 38
M  V30 40 1 19 39
M  V30 41 1 20 40
M  V30 END BOND
M  V30 END CTAB
M  END
