
     RDKit          3D

  0  0  0  0  0  0  0  0  0  0999 V3000
M  V30 BEGIN CTAB
M  V30 COUNTS 27 28 0 0 0
M  V30 BEGIN ATOM
M  V30 1 O 0.576548 0.180234 -1.60689 0
M  V30 2 C 1.16895 -0.190535 -0.540817 0
M  V30 3 C 2.51086 0.299611 -0.295891 0
M  V30 4 C 3.23597 -0.0993775 0.802807 0
M  V30 5 C 4.53149 0.373705 1.04097 0
M  V30 6 C 5.06682 1.25802 0.137251 0
M  V30 7 N 4.34892 1.64178 -0.934148 0
M  V30 8 C 3.10913 1.19002 -1.16329 0
M  V30 9 N 0.4694 -1.05711 0.328861 0
M  V30 10 N -0.82331 -1.49856 0.0424158 0
M  V30 11 C -1.8584 -0.748066 0.112143 0
M  V30 12 C -3.16924 -1.27895 -0.199526 0
M  V30 13 N -3.48947 -2.53288 -0.579845 0
M  V30 14 O -4.7706 -2.62778 -0.768916 0
M  V30 15 N -5.33308 -1.4973 -0.534517 0
M  V30 16 C -4.38676 -0.597038 -0.170022 0
M  V30 17 N -4.52102 0.760964 0.180884 0
M  V30 18 N -1.70078 0.603038 0.494149 0
M  V30 19 H 2.8216 -0.792015 1.51455 0
M  V30 20 H 5.10235 0.0524698 1.91633 0
M  V30 21 H 6.06322 1.65408 0.272711 0
M  V30 22 H 2.54687 1.50673 -2.02574 0
M  V30 23 H 0.925331 -1.37565 1.20399 0
M  V30 24 H -4.41191 1.12056 1.15995 0
M  V30 25 H -4.74148 1.44981 -0.569685 0
M  V30 26 H -1.35637 0.800524 1.45804 0
M  V30 27 H -1.91504 1.40371 -0.147635 0
M  V30 END ATOM
M  V30 BEGIN BOND
M  V30 1 2 1 2
M  V30 2 1 2 3
M  V30 3 2 3 4
M  V30 4 1 4 5
M  V30 5 2 5 6
M  V30 6 1 6 7
M  V30 7 2 7 8
M  V30 8 1 2 9
M  V30 9 1 9 10
M  V30 10 2 10 11
M  V30 11 1 11 12
M  V30 12 2 12 13
M  V30 13 1 13 14
M  V30 14 1 14 15
M  V30 15 2 15 16
M  V30 16 1 16 17
M  V30 17 1 11 18
M  V30 18 1 8 3
M  V30 19 1 16 12
M  V30 20 1 4 19
M  V30 21 1 5 20
M  V30 22 1 6 21
M  V30 23 1 8 22
M  V30 24 1 9 23
M  V30 25 1 17 24
M  V30 26 1 17 25
M  V30 27 1 18 26
M  V30 28 1 18 27
M  V30 END BOND
M  V30 END CTAB
M  END
