
     RDKit          3D

  0  0  0  0  0  0  0  0  0  0999 V3000
M  V30 BEGIN CTAB
M  V30 COUNTS 44 45 0 0 0
M  V30 BEGIN ATOM
M  V30 1 N -3.40105 -0.438437 2.46643 0
M  V30 2 C -3.64108 0.550342 1.43542 0
M  V30 3 C -3.77029 -0.141498 0.089884 0
M  V30 4 C -4.01962 0.823434 -1.02112 0
M  V30 5 C -3.53232 0.10966 -2.27417 0
M  V30 6 C -2.77303 -1.10602 -1.80114 0
M  V30 7 C -2.50044 -0.820893 -0.320093 0
M  V30 8 N -1.34216 0.00683931 -0.151882 0
M  V30 9 C -0.234097 -0.459734 0.571715 0
M  V30 10 O -0.20215 -1.61654 1.10379 0
M  V30 11 C 0.982319 0.383 0.760251 0
M  V30 12 C 2.03373 -0.295323 1.55187 0
M  V30 13 C 3.41353 -0.209169 1.00202 0
M  V30 14 N 3.74414 1.00422 0.338466 0
M  V30 15 C 2.71406 1.59059 -0.441132 0
M  V30 16 C 1.50062 0.720794 -0.616657 0
M  V30 17 S 5.11589 0.674124 -0.688608 0
M  V30 18 O 4.78893 -0.388179 -1.68661 0
M  V30 19 O 5.47746 1.93411 -1.43543 0
M  V30 20 N 6.43846 0.174819 0.291381 0
M  V30 21 H -2.9002 -1.27924 2.11205 0
M  V30 22 H -4.30026 -0.690765 2.94608 0
M  V30 23 H -2.81583 1.28893 1.42982 0
M  V30 24 H -4.60959 1.03841 1.67026 0
M  V30 25 H -4.5789 -0.87382 0.120294 0
M  V30 26 H -3.41269 1.76282 -0.932375 0
M  V30 27 H -5.1071 1.0434 -1.06309 0
M  V30 28 H -4.40432 -0.137825 -2.9017 0
M  V30 29 H -2.83223 0.735116 -2.86233 0
M  V30 30 H -3.44039 -1.98541 -1.85914 0
M  V30 31 H -1.85108 -1.26467 -2.3655 0
M  V30 32 H -2.40884 -1.80234 0.161537 0
M  V30 33 H -1.32009 0.958726 -0.567241 0
M  V30 34 H 0.688358 1.35837 1.2338 0
M  V30 35 H 1.97289 0.0733487 2.61726 0
M  V30 36 H 1.7673 -1.3851 1.62245 0
M  V30 37 H 4.12631 -0.323544 1.85986 0
M  V30 38 H 3.65487 -1.07284 0.321311 0
M  V30 39 H 3.09374 1.87646 -1.44144 0
M  V30 40 H 2.36966 2.52486 0.0798627 0
M  V30 41 H 0.747166 1.32329 -1.18703 0
M  V30 42 H 1.73906 -0.229428 -1.13131 0
M  V30 43 H 6.07294 -0.19838 1.19822 0
M  V30 44 H 6.95633 -0.566114 -0.236034 0
M  V30 END ATOM
M  V30 BEGIN BOND
M  V30 1 1 1 2
M  V30 2 1 2 3
M  V30 3 1 3 4
M  V30 4 1 4 5
M  V30 5 1 5 6
M  V30 6 1 6 7
M  V30 7 1 7 8
M  V30 8 1 8 9
M  V30 9 2 9 10
M  V30 10 1 9 11
M  V30 11 1 11 12
M  V30 12 1 12 13
M  V30 13 1 13 14
M  V30 14 1 14 15
M  V30 15 1 15 16
M  V30 16 1 14 17
M  V30 17 2 17 18
M  V30 18 2 17 19
M  V30 19 1 17 20
M  V30 20 1 7 3
M  V30 21 1 16 11
M  V30 22 1 1 21
M  V30 23 1 1 22
M  V30 24 1 2 23
M  V30 25 1 2 24
M  V30 26 1 3 25
M  V30 27 1 4 26
M  V30 28 1 4 27
M  V30 29 1 5 28
M  V30 30 1 5 29
M  V30 31 1 6 30
M  V30 32 1 6 31
M  V30 33 1 7 32
M  V30 34 1 8 33
M  V30 35 1 11 34
M  V30 36 1 12 35
M  V30 37 1 12 36
M  V30 38 1 13 37
M  V30 39 1 13 38
M  V30 40 1 15 39
M  V30 41 1 15 40
M  V30 42 1 16 41
M  V30 43 1 16 42
M  V30 44 1 20 43
M  V30 45 1 20 44
M  V30 END BOND
M  V30 END CTAB
M  END
