
     RDKit          3D

  0  0  0  0  0  0  0  0  0  0999 V3000
M  V30 BEGIN CTAB
M  V30 COUNTS 33 35 0 0 0
M  V30 BEGIN ATOM
M  V30 1 C 0.137596 1.71322 -0.305704 0
M  V30 2 C -0.120438 0.287666 -0.0605965 0
M  V30 3 N 0.850659 -0.504911 0.152415 0
M  V30 4 N 2.19343 -0.0754543 0.165673 0
M  V30 5 C 2.99161 -0.662329 -0.661739 0
M  V30 6 C 4.38913 -0.268766 -0.700909 0
M  V30 7 N 5.3573 -0.764938 -1.49061 0
M  V30 8 O 6.49566 -0.168746 -1.24913 0
M  V30 9 N 6.2896 0.712295 -0.31193 0
M  V30 10 C 5.01345 0.70351 0.071573 0
M  V30 11 N 4.32348 1.47169 1.04556 0
M  V30 12 N 2.55752 -1.6877 -1.54533 0
M  V30 13 C -1.51103 -0.190869 -0.0680798 0
M  V30 14 C -1.80811 -1.5144 0.155537 0
M  V30 15 C -3.1195 -1.91099 0.138392 0
M  V30 16 C -4.15371 -1.0348 -0.0943817 0
M  V30 17 C -3.87504 0.309954 -0.32318 0
M  V30 18 C -2.54511 0.681984 -0.300228 0
M  V30 19 O -5.0794 0.968256 -0.527485 0
M  V30 20 C -6.14376 0.129979 -0.132345 0
M  V30 21 O -5.53926 -1.1502 -0.168486 0
M  V30 22 H 0.0200427 2.00442 -1.37369 0
M  V30 23 H 1.14724 2.03273 -0.00338067 0
M  V30 24 H -0.568733 2.34625 0.307609 0
M  V30 25 H 3.50859 2.0743 0.774397 0
M  V30 26 H 4.57911 1.47936 2.04843 0
M  V30 27 H 2.00378 -1.37428 -2.39428 0
M  V30 28 H 2.75212 -2.69723 -1.40133 0
M  V30 29 H -0.98672 -2.21474 0.341236 0
M  V30 30 H -3.36293 -2.97008 0.316935 0
M  V30 31 H -2.35666 1.74525 -0.483333 0
M  V30 32 H -6.42909 0.330278 0.914069 0
M  V30 33 H -7.01083 0.199299 -0.819094 0
M  V30 END ATOM
M  V30 BEGIN BOND
M  V30 1 1 1 2
M  V30 2 2 2 3
M  V30 3 1 3 4
M  V30 4 2 4 5
M  V30 5 1 5 6
M  V30 6 2 6 7
M  V30 7 1 7 8
M  V30 8 1 8 9
M  V30 9 2 9 10
M  V30 10 1 10 11
M  V30 11 1 5 12
M  V30 12 1 2 13
M  V30 13 2 13 14
M  V30 14 1 14 15
M  V30 15 2 15 16
M  V30 16 1 16 17
M  V30 17 2 17 18
M  V30 18 1 17 19
M  V30 19 1 19 20
M  V30 20 1 20 21
M  V30 21 1 10 6
M  V30 22 1 18 13
M  V30 23 1 21 16
M  V30 24 1 1 22
M  V30 25 1 1 23
M  V30 26 1 1 24
M  V30 27 1 11 25
M  V30 28 1 11 26
M  V30 29 1 12 27
M  V30 30 1 12 28
M  V30 31 1 14 29
M  V30 32 1 15 30
M  V30 33 1 18 31
M  V30 34 1 20 32
M  V30 35 1 20 33
M  V30 END BOND
M  V30 END CTAB
M  END
