
     RDKit          3D

  0  0  0  0  0  0  0  0  0  0999 V3000
M  V30 BEGIN CTAB
M  V30 COUNTS 26 27 0 0 0
M  V30 BEGIN ATOM
M  V30 1 O -0.254315 -0.287663 -2.63437 0
M  V30 2 C -1.02726 -0.269487 -1.6028 0
M  V30 3 C -2.29964 0.364491 -1.73272 0
M  V30 4 N -2.71739 0.945084 -2.88575 0
M  V30 5 O -3.88319 1.41351 -2.67071 0
M  V30 6 N -4.29316 1.20525 -1.48347 0
M  V30 7 C -3.30374 0.527422 -0.830745 0
M  V30 8 C -3.40074 0.0988675 0.579207 0
M  V30 9 N -0.518749 -0.880732 -0.467653 0
M  V30 10 N 0.765967 -1.48179 -0.455116 0
M  V30 11 C 1.77772 -0.902685 0.0924112 0
M  V30 12 C 1.60507 0.397711 0.713783 0
M  V30 13 N 0.519966 1.17555 0.841225 0
M  V30 14 O 0.851203 2.27369 1.48464 0
M  V30 15 N 2.10176 2.27432 1.79606 0
M  V30 16 C 2.62127 1.10022 1.32547 0
M  V30 17 N 3.99056 0.708404 1.46589 0
M  V30 18 N 3.02093 -1.57889 0.0562297 0
M  V30 19 H -4.42181 0.420279 0.952087 0
M  V30 20 H -2.62395 0.547907 1.22384 0
M  V30 21 H -3.34462 -1.01894 0.607494 0
M  V30 22 H -1.02124 -0.939962 0.41949 0
M  V30 23 H 4.53625 0.506365 0.606541 0
M  V30 24 H 4.36228 0.648572 2.43179 0
M  V30 25 H 3.26355 -2.17555 0.879901 0
M  V30 26 H 3.6933 -1.5254 -0.712728 0
M  V30 END ATOM
M  V30 BEGIN BOND
M  V30 1 2 1 2
M  V30 2 1 2 3
M  V30 3 2 3 4
M  V30 4 1 4 5
M  V30 5 1 5 6
M  V30 6 2 6 7
M  V30 7 1 7 8
M  V30 8 1 2 9
M  V30 9 1 9 10
M  V30 10 2 10 11
M  V30 11 1 11 12
M  V30 12 2 12 13
M  V30 13 1 13 14
M  V30 14 1 14 15
M  V30 15 2 15 16
M  V30 16 1 16 17
M  V30 17 1 11 18
M  V30 18 1 7 3
M  V30 19 1 16 12
M  V30 20 1 8 19
M  V30 21 1 8 20
M  V30 22 1 8 21
M  V30 23 1 9 22
M  V30 24 1 17 23
M  V30 25 1 17 24
M  V30 26 1 18 25
M  V30 27 1 18 26
M  V30 END BOND
M  V30 END CTAB
M  END
