
     RDKit          3D

  0  0  0  0  0  0  0  0  0  0999 V3000
M  V30 BEGIN CTAB
M  V30 COUNTS 45 48 0 0 0
M  V30 BEGIN ATOM
M  V30 1 C -2.34577 -3.92156 -1.20042 0
M  V30 2 C -1.74633 -2.65311 -0.721327 0
M  V30 3 C -0.43361 -2.30651 -0.903621 0
M  V30 4 N -0.183944 -1.08422 -0.352065 0
M  V30 5 C -1.35235 -0.663249 0.180024 0
M  V30 6 C -2.31745 -1.61359 -0.0386419 0
M  V30 7 C -3.65646 -1.40037 0.432981 0
M  V30 8 O -4.42213 -2.36329 0.546906 0
M  V30 9 C -4.13716 -0.0354754 0.787125 0
M  V30 10 C -3.08111 1.00836 0.453585 0
M  V30 11 C -3.15053 1.27211 -1.02559 0
M  V30 12 C -3.44964 2.26635 1.20965 0
M  V30 13 C -1.72809 0.570306 0.910153 0
M  V30 14 C 1.04814 -0.375179 -0.328642 0
M  V30 15 C 2.20147 -0.853085 0.255866 0
M  V30 16 C 3.38404 -0.135484 0.260112 0
M  V30 17 N 4.51147 -0.609409 0.834829 0
M  V30 18 C 5.6728 0.065577 0.853645 0
M  V30 19 N 6.8538 -0.433873 1.45716 0
M  V30 20 N 5.68697 1.28064 0.259181 0
M  V30 21 C 4.58902 1.80721 -0.332559 0
M  V30 22 N 4.58863 3.08103 -0.960386 0
M  V30 23 C 3.40308 1.10281 -0.344331 0
M  V30 24 N 2.27616 1.57374 -0.917414 0
M  V30 25 C 1.12665 0.868867 -0.917921 0
M  V30 26 H -2.00061 -4.79132 -0.600794 0
M  V30 27 H -2.02954 -4.10944 -2.24808 0
M  V30 28 H -3.43664 -3.92302 -1.17047 0
M  V30 29 H 0.339298 -2.87721 -1.40371 0
M  V30 30 H -5.02546 0.164727 0.156351 0
M  V30 31 H -4.39145 -0.0406762 1.86566 0
M  V30 32 H -4.08419 1.88389 -1.19117 0
M  V30 33 H -3.27939 0.362181 -1.6337 0
M  V30 34 H -2.26234 1.86338 -1.37227 0
M  V30 35 H -3.44943 3.14517 0.525697 0
M  V30 36 H -2.70487 2.49754 2.00149 0
M  V30 37 H -4.44445 2.20507 1.68805 0
M  V30 38 H -0.998461 1.35865 0.696112 0
M  V30 39 H -1.79012 0.345809 1.99383 0
M  V30 40 H 2.18071 -1.81241 0.722324 0
M  V30 41 H 7.32631 -1.30202 1.13902 0
M  V30 42 H 7.26284 0.088221 2.24819 0
M  V30 43 H 5.01105 3.23738 -1.9058 0
M  V30 44 H 4.16481 3.93081 -0.508588 0
M  V30 45 H 0.274293 1.32464 -1.40044 0
M  V30 END ATOM
M  V30 BEGIN BOND
M  V30 1 1 1 2
M  V30 2 2 2 3
M  V30 3 1 3 4
M  V30 4 1 4 5
M  V30 5 2 5 6
M  V30 6 1 6 7
M  V30 7 2 7 8
M  V30 8 1 7 9
M  V30 9 1 9 10
M  V30 10 1 10 11
M  V30 11 1 10 12
M  V30 12 1 10 13
M  V30 13 1 4 14
M  V30 14 2 14 15
M  V30 15 1 15 16
M  V30 16 2 16 17
M  V30 17 1 17 18
M  V30 18 1 18 19
M  V30 19 2 18 20
M  V30 20 1 20 21
M  V30 21 1 21 22
M  V30 22 2 21 23
M  V30 23 1 23 24
M  V30 24 2 24 25
M  V30 25 1 6 2
M  V30 26 1 25 14
M  V30 27 1 13 5
M  V30 28 1 23 16
M  V30 29 1 1 26
M  V30 30 1 1 27
M  V30 31 1 1 28
M  V30 32 1 3 29
M  V30 33 1 9 30
M  V30 34 1 9 31
M  V30 35 1 11 32
M  V30 36 1 11 33
M  V30 37 1 11 34
M  V30 38 1 12 35
M  V30 39 1 12 36
M  V30 40 1 12 37
M  V30 41 1 13 38
M  V30 42 1 13 39
M  V30 43 1 15 40
M  V30 44 1 19 41
M  V30 45 1 19 42
M  V30 46 1 22 43
M  V30 47 1 22 44
M  V30 48 1 25 45
M  V30 END BOND
M  V30 END CTAB
M  END
