
     RDKit          3D

  0  0  0  0  0  0  0  0  0  0999 V3000
M  V30 BEGIN CTAB
M  V30 COUNTS 31 31 0 0 0
M  V30 BEGIN ATOM
M  V30 1 C 4.787 0.417479 -0.124995 0
M  V30 2 O 3.64623 -0.0277521 -0.796404 0
M  V30 3 C 2.43445 -0.0982889 -0.143445 0
M  V30 4 O 2.36512 0.239251 1.05351 0
M  V30 5 C 1.25518 -0.569814 -0.875737 0
M  V30 6 C -0.0168742 -0.594991 -0.0237048 0
M  V30 7 N 0.236384 -1.49251 1.08733 0
M  V30 8 C -1.06296 -1.25752 -0.880435 0
M  V30 9 C -2.19635 -0.351021 -1.26982 0
M  V30 10 C -2.77418 0.151109 0.0636234 0
M  V30 11 C -1.76261 1.17289 0.528145 0
M  V30 12 C -0.353181 0.744183 0.49568 0
M  V30 13 N -4.03531 0.83766 -0.15317 0
M  V30 14 H 4.7551 0.0397973 0.918463 0
M  V30 15 H 4.75317 1.5261 -0.0984368 0
M  V30 16 H 5.73503 0.0485022 -0.576992 0
M  V30 17 H 1.09006 0.0713616 -1.77934 0
M  V30 18 H 1.48733 -1.57741 -1.2736 0
M  V30 19 H 1.05525 -2.09336 0.86002 0
M  V30 20 H 0.443114 -0.988217 1.97095 0
M  V30 21 H -1.54464 -2.13752 -0.35697 0
M  V30 22 H -0.656941 -1.69018 -1.81882 0
M  V30 23 H -2.93671 -0.938734 -1.80782 0
M  V30 24 H -1.78004 0.496675 -1.85109 0
M  V30 25 H -2.86123 -0.702384 0.741625 0
M  V30 26 H -2.11267 1.5128 1.53622 0
M  V30 27 H -1.93677 2.0758 -0.130327 0
M  V30 28 H 0.243461 1.54568 -0.0371499 0
M  V30 29 H 0.0337298 0.831306 1.55775 0
M  V30 30 H -4.11591 1.70109 0.446412 0
M  V30 31 H -4.1742 1.10801 -1.14956 0
M  V30 END ATOM
M  V30 BEGIN BOND
M  V30 1 1 1 2
M  V30 2 1 2 3
M  V30 3 2 3 4
M  V30 4 1 3 5
M  V30 5 1 5 6
M  V30 6 1 6 7
M  V30 7 1 6 8
M  V30 8 1 8 9
M  V30 9 1 9 10
M  V30 10 1 10 11
M  V30 11 1 11 12
M  V30 12 1 10 13
M  V30 13 1 12 6
M  V30 14 1 1 14
M  V30 15 1 1 15
M  V30 16 1 1 16
M  V30 17 1 5 17
M  V30 18 1 5 18
M  V30 19 1 7 19
M  V30 20 1 7 20
M  V30 21 1 8 21
M  V30 22 1 8 22
M  V30 23 1 9 23
M  V30 24 1 9 24
M  V30 25 1 10 25
M  V30 26 1 11 26
M  V30 27 1 11 27
M  V30 28 1 12 28
M  V30 29 1 12 29
M  V30 30 1 13 30
M  V30 31 1 13 31
M  V30 END BOND
M  V30 END CTAB
M  END
