
     RDKit          3D

  0  0  0  0  0  0  0  0  0  0999 V3000
M  V30 BEGIN CTAB
M  V30 COUNTS 25 25 0 0 0
M  V30 BEGIN ATOM
M  V30 1 N 2.08132 -1.0094 -0.833069 0
M  V30 2 C 1.28132 0.155771 -0.923929 0
M  V30 3 C 0.421454 0.437477 0.27426 0
M  V30 4 N 1.35874 0.588564 1.40469 0
M  V30 5 C -0.283946 1.75663 0.157151 0
M  V30 6 C -1.54861 1.56182 -0.624006 0
M  V30 7 S -2.03921 -0.0932719 -0.172954 0
M  V30 8 O -2.33668 -0.936228 -1.36381 0
M  V30 9 O -3.20322 -0.0876716 0.749159 0
M  V30 10 C -0.548635 -0.602819 0.653781 0
M  V30 11 C -0.238855 -2.00535 0.308347 0
M  V30 12 H 2.84708 -0.994344 -0.155557 0
M  V30 13 H 2.238 -1.53235 -1.6939 0
M  V30 14 H 1.97063 1.03528 -1.0431 0
M  V30 15 H 0.704283 0.11547 -1.87045 0
M  V30 16 H 0.974695 1.24458 2.11558 0
M  V30 17 H 1.5373 -0.356982 1.83886 0
M  V30 18 H -0.427369 2.24328 1.12939 0
M  V30 19 H 0.371136 2.42341 -0.454989 0
M  V30 20 H -1.41094 1.58274 -1.70758 0
M  V30 21 H -2.34379 2.24598 -0.262169 0
M  V30 22 H -0.755047 -0.541339 1.74024 0
M  V30 23 H 0.662963 -2.38332 0.835866 0
M  V30 24 H -0.201399 -2.22225 -0.778671 0
M  V30 25 H -1.11123 -2.62568 0.676846 0
M  V30 END ATOM
M  V30 BEGIN BOND
M  V30 1 1 1 2
M  V30 2 1 2 3
M  V30 3 1 3 4
M  V30 4 1 3 5
M  V30 5 1 5 6
M  V30 6 1 6 7
M  V30 7 2 7 8
M  V30 8 2 7 9
M  V30 9 1 7 10
M  V30 10 1 10 11
M  V30 11 1 10 3
M  V30 12 1 1 12
M  V30 13 1 1 13
M  V30 14 1 2 14
M  V30 15 1 2 15
M  V30 16 1 4 16
M  V30 17 1 4 17
M  V30 18 1 5 18
M  V30 19 1 5 19
M  V30 20 1 6 20
M  V30 21 1 6 21
M  V30 22 1 10 22
M  V30 23 1 11 23
M  V30 24 1 11 24
M  V30 25 1 11 25
M  V30 END BOND
M  V30 END CTAB
M  END
