
     RDKit          3D

  0  0  0  0  0  0  0  0  0  0999 V3000
M  V30 BEGIN CTAB
M  V30 COUNTS 26 27 0 0 0
M  V30 BEGIN ATOM
M  V30 1 N 1.71736 -0.839702 0.955602 0
M  V30 2 N 1.98786 0.0115182 -0.0851701 0
M  V30 3 C 3.23704 0.416914 -0.44271 0
M  V30 4 N 4.46977 0.0647807 0.15355 0
M  V30 5 N 3.02064 1.23362 -1.49991 0
M  V30 6 N 1.75035 1.32586 -1.77289 0
M  V30 7 C 1.07184 0.564552 -0.895916 0
M  V30 8 C -0.376717 0.359778 -0.816118 0
M  V30 9 C -0.938876 0.730398 0.559076 0
M  V30 10 C -2.42548 0.914012 0.376338 0
M  V30 11 C -3.12132 -0.270186 -0.181728 0
M  V30 12 C -2.36557 -1.56434 -0.0323443 0
M  V30 13 S -0.827521 -1.39969 -1.01908 0
M  V30 14 H 1.68181 -0.487238 1.9271 0
M  V30 15 H 1.54552 -1.84435 0.782905 0
M  V30 16 H 5.10978 0.816899 0.457967 0
M  V30 17 H 4.71924 -0.929507 0.279307 0
M  V30 18 H -0.919826 0.922939 -1.59362 0
M  V30 19 H -0.805777 -0.105386 1.27736 0
M  V30 20 H -0.486499 1.66431 0.887097 0
M  V30 21 H -2.56001 1.77213 -0.318261 0
M  V30 22 H -2.9017 1.24478 1.33959 0
M  V30 23 H -4.0999 -0.39842 0.365294 0
M  V30 24 H -3.36568 -0.124834 -1.23382 0
M  V30 25 H -2.97643 -2.35704 -0.496851 0
M  V30 26 H -2.1399 -1.72181 1.02724 0
M  V30 END ATOM
M  V30 BEGIN BOND
M  V30 1 1 1 2
M  V30 2 1 2 3
M  V30 3 1 3 4
M  V30 4 2 3 5
M  V30 5 1 5 6
M  V30 6 2 6 7
M  V30 7 1 7 8
M  V30 8 1 8 9
M  V30 9 1 9 10
M  V30 10 1 10 11
M  V30 11 1 11 12
M  V30 12 1 12 13
M  V30 13 1 7 2
M  V30 14 1 13 8
M  V30 15 1 1 14
M  V30 16 1 1 15
M  V30 17 1 4 16
M  V30 18 1 4 17
M  V30 19 1 8 18
M  V30 20 1 9 19
M  V30 21 1 9 20
M  V30 22 1 10 21
M  V30 23 1 10 22
M  V30 24 1 11 23
M  V30 25 1 11 24
M  V30 26 1 12 25
M  V30 27 1 12 26
M  V30 END BOND
M  V30 END CTAB
M  END
