
     RDKit          3D

  0  0  0  0  0  0  0  0  0  0999 V3000
M  V30 BEGIN CTAB
M  V30 COUNTS 32 33 0 0 0
M  V30 BEGIN ATOM
M  V30 1 O -0.194836 2.00857 -0.409786 0
M  V30 2 C 0.514357 0.989692 -0.312664 0
M  V30 3 C 1.73199 0.89788 -1.16214 0
M  V30 4 C 2.95533 0.57932 -0.404059 0
M  V30 5 C 3.65414 1.48738 0.337386 0
M  V30 6 F 3.27074 2.76911 0.424316 0
M  V30 7 C 4.80649 1.12176 1.03585 0
M  V30 8 C 5.27186 -0.166724 0.997741 0
M  V30 9 C 4.58319 -1.09178 0.261758 0
M  V30 10 C 3.44869 -0.737087 -0.427588 0
M  V30 11 Cl 2.56279 -1.89995 -1.38227 0
M  V30 12 O 0.128124 0.0293428 0.567368 0
M  V30 13 C -0.990004 -0.0230612 1.38339 0
M  V30 14 C -2.28451 -0.194854 0.662892 0
M  V30 15 N -3.37657 0.520116 0.894121 0
M  V30 16 C -4.55534 0.281321 0.256125 0
M  V30 17 N -5.73809 1.02821 0.477577 0
M  V30 18 N -4.5767 -0.721677 -0.636218 0
M  V30 19 C -3.50947 -1.46803 -0.904938 0
M  V30 20 N -2.3705 -1.2016 -0.255865 0
M  V30 21 N -3.61089 -2.51421 -1.85179 0
M  V30 22 H 1.88553 1.95586 -1.56983 0
M  V30 23 H 1.65385 0.211427 -1.99989 0
M  V30 24 H 5.37532 1.85694 1.62996 0
M  V30 25 H 6.16177 -0.47799 1.53414 0
M  V30 26 H 4.88458 -2.13433 0.193532 0
M  V30 27 H -0.912314 -0.820848 2.15653 0
M  V30 28 H -1.10628 0.962637 1.95347 0
M  V30 29 H -5.81578 2.00904 0.208951 0
M  V30 30 H -6.52288 0.527417 0.932789 0
M  V30 31 H -3.03409 -3.36797 -1.80965 0
M  V30 32 H -4.2905 -2.41594 -2.63104 0
M  V30 END ATOM
M  V30 BEGIN BOND
M  V30 1 2 1 2
M  V30 2 1 2 3
M  V30 3 1 3 4
M  V30 4 2 4 5
M  V30 5 1 5 6
M  V30 6 1 5 7
M  V30 7 2 7 8
M  V30 8 1 8 9
M  V30 9 2 9 10
M  V30 10 1 10 11
M  V30 11 1 2 12
M  V30 12 1 12 13
M  V30 13 1 13 14
M  V30 14 2 14 15
M  V30 15 1 15 16
M  V30 16 1 16 17
M  V30 17 2 16 18
M  V30 18 1 18 19
M  V30 19 2 19 20
M  V30 20 1 19 21
M  V30 21 1 10 4
M  V30 22 1 20 14
M  V30 23 1 3 22
M  V30 24 1 3 23
M  V30 25 1 7 24
M  V30 26 1 8 25
M  V30 27 1 9 26
M  V30 28 1 13 27
M  V30 29 1 13 28
M  V30 30 1 17 29
M  V30 31 1 17 30
M  V30 32 1 21 31
M  V30 33 1 21 32
M  V30 END BOND
M  V30 END CTAB
M  END
