
     RDKit          3D

  0  0  0  0  0  0  0  0  0  0999 V3000
M  V30 BEGIN CTAB
M  V30 COUNTS 20 20 0 0 0
M  V30 BEGIN ATOM
M  V30 1 C 2.65965 -0.462914 -1.38793 0
M  V30 2 O 2.11134 0.189151 -0.29183 0
M  V30 3 C 0.889248 -0.0852341 0.284433 0
M  V30 4 C 0.709926 -0.991733 1.30217 0
M  V30 5 Br 2.26317 -1.90889 1.93349 0
M  V30 6 C -0.50705 -1.25935 1.86996 0
M  V30 7 C -1.61306 -0.575417 1.38719 0
M  V30 8 C -1.50138 0.345292 0.36969 0
M  V30 9 C -0.234933 0.578959 -0.172897 0
M  V30 10 N -0.13459 1.52722 -1.21759 0
M  V30 11 N -2.65377 1.01874 -0.0910707 0
M  V30 12 I -3.52334 -0.929799 2.20765 0
M  V30 13 H 2.76948 0.287139 -2.22357 0
M  V30 14 H 3.6964 -0.77493 -1.14121 0
M  V30 15 H 2.08613 -1.31699 -1.76833 0
M  V30 16 H -0.663548 -1.97223 2.67383 0
M  V30 17 H -0.109095 1.21878 -2.20971 0
M  V30 18 H -0.0850172 2.5428 -1.01017 0
M  V30 19 H -3.40121 0.541153 -0.623128 0
M  V30 20 H -2.75835 2.02825 0.109003 0
M  V30 END ATOM
M  V30 BEGIN BOND
M  V30 1 1 1 2
M  V30 2 1 2 3
M  V30 3 2 3 4
M  V30 4 1 4 5
M  V30 5 1 4 6
M  V30 6 2 6 7
M  V30 7 1 7 8
M  V30 8 2 8 9
M  V30 9 1 9 10
M  V30 10 1 8 11
M  V30 11 1 7 12
M  V30 12 1 9 3
M  V30 13 1 1 13
M  V30 14 1 1 14
M  V30 15 1 1 15
M  V30 16 1 6 16
M  V30 17 1 10 17
M  V30 18 1 10 18
M  V30 19 1 11 19
M  V30 20 1 11 20
M  V30 END BOND
M  V30 END CTAB
M  END
