
     RDKit          3D

  0  0  0  0  0  0  0  0  0  0999 V3000
M  V30 BEGIN CTAB
M  V30 COUNTS 19 20 0 0 0
M  V30 BEGIN ATOM
M  V30 1 N 2.88211 1.28724 0.563025 0
M  V30 2 C 2.89195 0.032428 -0.0818682 0
M  V30 3 N 3.89222 -0.549334 -0.788573 0
M  V30 4 O 3.48702 -1.70196 -1.21133 0
M  V30 5 N 2.28127 -1.95447 -0.846562 0
M  V30 6 C 1.85358 -0.883735 -0.124586 0
M  V30 7 N 0.610224 -0.677727 0.489727 0
M  V30 8 N -0.449024 -0.34541 -0.0785409 0 CHG=1
M  V30 9 O -0.451635 -0.149781 -1.43604 0 CHG=-1
M  V30 10 C -1.63308 -0.17558 0.689878 0
M  V30 11 N -1.80295 -0.32585 2.01557 0
M  V30 12 O -3.05284 -0.0754952 2.33194 0
M  V30 13 N -3.71276 0.235141 1.25692 0
M  V30 14 C -2.8841 0.192288 0.190206 0
M  V30 15 N -3.15721 0.452914 -1.1738 0
M  V30 16 H 2.81726 1.40199 1.59352 0
M  V30 17 H 2.94292 2.14456 -0.0222293 0
M  V30 18 H -3.5986 1.34125 -1.47272 0
M  V30 19 H -2.91635 -0.248468 -1.89454 0
M  V30 END ATOM
M  V30 BEGIN BOND
M  V30 1 1 1 2
M  V30 2 2 2 3
M  V30 3 1 3 4
M  V30 4 1 4 5
M  V30 5 2 5 6
M  V30 6 1 6 7
M  V30 7 2 7 8 CFG=2
M  V30 8 1 8 9
M  V30 9 1 8 10
M  V30 10 2 10 11
M  V30 11 1 11 12
M  V30 12 1 12 13
M  V30 13 2 13 14
M  V30 14 1 14 15
M  V30 15 1 6 2
M  V30 16 1 14 10
M  V30 17 1 1 16
M  V30 18 1 1 17
M  V30 19 1 15 18
M  V30 20 1 15 19
M  V30 END BOND
M  V30 END CTAB
M  END
