
     RDKit          3D

  0  0  0  0  0  0  0  0  0  0999 V3000
M  V30 BEGIN CTAB
M  V30 COUNTS 44 47 0 0 0
M  V30 BEGIN ATOM
M  V30 1 C -3.16441 -2.13127 2.03239 0
M  V30 2 C -3.61659 -0.71263 2.15604 0
M  V30 3 C -4.19676 -0.125917 0.944816 0
M  V30 4 C -5.5581 0.0186848 0.763343 0
M  V30 5 C -6.12122 0.549352 -0.355775 0
M  V30 6 C -5.30122 0.962723 -1.35566 0
M  V30 7 C -3.92325 0.83493 -1.2125 0
M  V30 8 C -3.3427 0.29761 -0.0802487 0
M  V30 9 N -1.95262 0.177238 0.07328 0
M  V30 10 C -0.911275 0.515025 -0.796214 0
M  V30 11 N -1.00834 1.04425 -2.00322 0
M  V30 12 C 0.0127614 1.35615 -2.80445 0
M  V30 13 N -0.221442 1.92953 -4.09563 0
M  V30 14 N 1.25423 1.11086 -2.34547 0
M  V30 15 C 1.44683 0.570714 -1.12216 0
M  V30 16 N 0.378502 0.286104 -0.378811 0
M  V30 17 C 2.77966 0.296667 -0.597558 0
M  V30 18 O 3.93083 0.511509 -1.17408 0
M  V30 19 C 4.94521 0.156707 -0.441393 0
M  V30 20 C 4.43178 -0.342435 0.736097 0
M  V30 21 C 3.05015 -0.25511 0.641267 0
M  V30 22 N 2.1259 -0.663293 1.64648 0
M  V30 23 C 5.26092 -0.818585 1.76005 0
M  V30 24 C 6.62795 -0.767271 1.54009 0
M  V30 25 C 7.1344 -0.267587 0.362325 0
M  V30 26 C 6.33105 0.196215 -0.635511 0
M  V30 27 H -3.17996 -2.5403 1.00959 0
M  V30 28 H -3.68459 -2.78055 2.77339 0
M  V30 29 H -2.08392 -2.16378 2.35869 0
M  V30 30 H -4.44412 -0.696347 2.93427 0
M  V30 31 H -2.82691 -0.0539456 2.6269 0
M  V30 32 H -6.20924 -0.31254 1.56133 0
M  V30 33 H -7.20487 0.64152 -0.449801 0
M  V30 34 H -5.74323 1.38642 -2.2508 0
M  V30 35 H -3.36347 1.18653 -2.04683 0
M  V30 36 H -1.64872 -0.238549 1.01449 0
M  V30 37 H -0.710246 1.42829 -4.85823 0
M  V30 38 H 0.13913 2.90672 -4.22345 0
M  V30 39 H 1.63817 -1.56338 1.68521 0
M  V30 40 H 1.90924 0.0113142 2.43567 0
M  V30 41 H 4.81179 -1.19382 2.65135 0
M  V30 42 H 7.30612 -1.12858 2.31337 0
M  V30 43 H 8.21871 -0.220186 0.175591 0
M  V30 44 H 6.68389 0.601014 -1.58466 0
M  V30 END ATOM
M  V30 BEGIN BOND
M  V30 1 1 1 2
M  V30 2 1 2 3
M  V30 3 2 3 4
M  V30 4 1 4 5
M  V30 5 2 5 6
M  V30 6 1 6 7
M  V30 7 2 7 8
M  V30 8 1 8 9
M  V30 9 1 9 10
M  V30 10 2 10 11
M  V30 11 1 11 12
M  V30 12 1 12 13
M  V30 13 2 12 14
M  V30 14 1 14 15
M  V30 15 2 15 16
M  V30 16 1 15 17
M  V30 17 1 17 18
M  V30 18 1 18 19
M  V30 19 2 19 20
M  V30 20 1 20 21
M  V30 21 1 21 22
M  V30 22 1 20 23
M  V30 23 2 23 24
M  V30 24 1 24 25
M  V30 25 2 25 26
M  V30 26 1 8 3
M  V30 27 1 16 10
M  V30 28 2 21 17
M  V30 29 1 26 19
M  V30 30 1 1 27
M  V30 31 1 1 28
M  V30 32 1 1 29
M  V30 33 1 2 30
M  V30 34 1 2 31
M  V30 35 1 4 32
M  V30 36 1 5 33
M  V30 37 1 6 34
M  V30 38 1 7 35
M  V30 39 1 9 36
M  V30 40 1 13 37
M  V30 41 1 13 38
M  V30 42 1 22 39
M  V30 43 1 22 40
M  V30 44 1 23 41
M  V30 45 1 24 42
M  V30 46 1 25 43
M  V30 47 1 26 44
M  V30 END BOND
M  V30 END CTAB
M  END
