
     RDKit          3D

  0  0  0  0  0  0  0  0  0  0999 V3000
M  V30 BEGIN CTAB
M  V30 COUNTS 43 47 0 0 0
M  V30 BEGIN ATOM
M  V30 1 N 7.32709 0.948151 0.125331 0
M  V30 2 C 5.95088 0.614227 0.222036 0
M  V30 3 C 5.17137 1.26401 1.15993 0
M  V30 4 C 3.81961 0.96219 1.28502 0
M  V30 5 C 3.23132 0.00792299 0.473865 0
M  V30 6 C 4.03004 -0.62521 -0.453524 0
M  V30 7 C 5.37339 -0.336052 -0.588322 0
M  V30 8 C 1.78953 -0.358684 0.658494 0
M  V30 9 C 1.46411 -1.04781 1.81148 0
M  V30 10 S -0.194812 -1.34316 1.63116 0
M  V30 11 C -0.451061 -0.597689 0.116453 0
M  V30 12 C -1.58976 -0.412512 -0.703144 0
M  V30 13 C -1.47033 0.270232 -1.89519 0
M  V30 14 N -0.254014 0.714609 -2.18666 0
M  V30 15 C 0.848589 0.560962 -1.44048 0
M  V30 16 N 2.04325 1.14483 -1.93616 0
M  V30 17 C 0.791917 -0.129139 -0.21288 0
M  V30 18 C -2.79283 -1.01023 -0.222749 0
M  V30 19 C -3.95462 -0.302565 -0.0862683 0
M  V30 20 C -4.06869 1.0477 -0.332996 0
M  V30 21 C -5.27211 1.70902 -0.15983 0
M  V30 22 C -6.40932 1.06273 0.264325 0
M  V30 23 C -6.3192 -0.289137 0.518337 0
M  V30 24 C -5.12645 -0.937523 0.345349 0
M  V30 25 C -5.08608 -2.29329 0.632009 0
M  V30 26 N -3.93864 -2.93893 0.486786 0
M  V30 27 C -2.80825 -2.35284 0.0753605 0
M  V30 28 H 7.59725 1.76186 -0.467932 0
M  V30 29 H 8.09655 0.437026 0.605385 0
M  V30 30 H 5.64586 2.00339 1.77997 0
M  V30 31 H 3.1942 1.46012 2.01263 0
M  V30 32 H 3.54743 -1.36864 -1.0766 0
M  V30 33 H 5.9846 -0.841116 -1.31854 0
M  V30 34 H 2.13763 -1.32659 2.63294 0
M  V30 35 H -2.34253 0.390424 -2.49021 0
M  V30 36 H 2.50711 1.93759 -1.44576 0
M  V30 37 H 2.48288 0.790359 -2.80483 0
M  V30 38 H -3.21716 1.60685 -0.64997 0
M  V30 39 H -5.29988 2.76425 -0.367717 0
M  V30 40 H -7.32031 1.61304 0.385773 0
M  V30 41 H -7.2165 -0.789849 0.851247 0
M  V30 42 H -5.99395 -2.78878 0.967195 0
M  V30 43 H -1.90811 -2.98175 -0.0114683 0
M  V30 END ATOM
M  V30 BEGIN BOND
M  V30 1 1 1 2
M  V30 2 2 2 3
M  V30 3 1 3 4
M  V30 4 2 4 5
M  V30 5 1 5 6
M  V30 6 2 6 7
M  V30 7 1 5 8
M  V30 8 2 8 9
M  V30 9 1 9 10
M  V30 10 1 10 11
M  V30 11 2 11 12
M  V30 12 1 12 13
M  V30 13 2 13 14
M  V30 14 1 14 15
M  V30 15 1 15 16
M  V30 16 2 15 17
M  V30 17 1 12 18
M  V30 18 1 18 19
M  V30 19 2 19 20
M  V30 20 1 20 21
M  V30 21 2 21 22
M  V30 22 1 22 23
M  V30 23 2 23 24
M  V30 24 1 24 25
M  V30 25 2 25 26
M  V30 26 1 26 27
M  V30 27 1 7 2
M  V30 28 1 17 8
M  V30 29 2 27 18
M  V30 30 1 17 11
M  V30 31 1 24 19
M  V30 32 1 1 28
M  V30 33 1 1 29
M  V30 34 1 3 30
M  V30 35 1 4 31
M  V30 36 1 6 32
M  V30 37 1 7 33
M  V30 38 1 9 34
M  V30 39 1 13 35
M  V30 40 1 16 36
M  V30 41 1 16 37
M  V30 42 1 20 38
M  V30 43 1 21 39
M  V30 44 1 22 40
M  V30 45 1 23 41
M  V30 46 1 25 42
M  V30 47 1 27 43
M  V30 END BOND
M  V30 END CTAB
M  END
