
     RDKit          3D

  0  0  0  0  0  0  0  0  0  0999 V3000
M  V30 BEGIN CTAB
M  V30 COUNTS 38 38 0 0 0
M  V30 BEGIN ATOM
M  V30 1 C 2.45785 -0.0543237 -3.45787 0
M  V30 2 C 3.18594 -0.442069 -2.25904 0
M  V30 3 C 4.48159 0.41907 -2.22489 0
M  V30 4 C 2.60814 -0.577894 -0.93618 0
M  V30 5 N 1.98158 0.430312 -0.197498 0
M  V30 6 C 2.69061 1.62947 0.193397 0
M  V30 7 C 0.682354 0.279726 0.344294 0
M  V30 8 N 0.620576 -0.253915 1.60828 0
M  V30 9 C -0.543046 -0.506828 2.22856 0
M  V30 10 N -0.659418 -1.06009 3.53332 0
M  V30 11 C -1.7011 -0.219603 1.56121 0
M  V30 12 N -1.67723 0.317039 0.294093 0
M  V30 13 C -0.464998 0.562693 -0.298426 0
M  V30 14 Cl -0.460228 1.3524 -1.85308 0
M  V30 15 C -3.01743 -0.444766 2.22729 0
M  V30 16 O -2.92413 -0.743879 3.42473 0
M  V30 17 N -4.1561 -0.307317 1.43606 0
M  V30 18 C -5.2412 -0.176368 0.682179 0
M  V30 19 N -6.62192 -0.378149 1.08318 0
M  V30 20 N -5.22119 0.168208 -0.613858 0
M  V30 21 H 1.47147 -0.587761 -3.58478 0
M  V30 22 H 2.20954 1.02022 -3.58127 0
M  V30 23 H 2.99916 -0.32926 -4.41326 0
M  V30 24 H 3.65702 -1.47675 -2.51439 0
M  V30 25 H 4.20679 1.47547 -2.26594 0
M  V30 26 H 5.11948 0.130571 -3.10161 0
M  V30 27 H 5.06604 0.158325 -1.32084 0
M  V30 28 H 1.90896 -1.52671 -0.962877 0
M  V30 29 H 3.42862 -1.03234 -0.273294 0
M  V30 30 H 2.24776 2.09328 1.11484 0
M  V30 31 H 3.7244 1.35073 0.504147 0
M  V30 32 H 2.74724 2.39755 -0.602795 0
M  V30 33 H -0.825541 -2.07852 3.70681 0
M  V30 34 H -0.579276 -0.444601 4.37976 0
M  V30 35 H -4.91176 -0.646455 2.50499 0
M  V30 36 H -7.30408 -0.827932 0.450178 0
M  V30 37 H -6.8345 -0.0261912 2.05848 0
M  V30 38 H -4.35196 0.356667 -1.11704 0
M  V30 END ATOM
M  V30 BEGIN BOND
M  V30 1 1 1 2
M  V30 2 1 2 3
M  V30 3 1 2 4
M  V30 4 1 4 5
M  V30 5 1 5 6
M  V30 6 1 5 7
M  V30 7 2 7 8
M  V30 8 1 8 9
M  V30 9 1 9 10
M  V30 10 2 9 11
M  V30 11 1 11 12
M  V30 12 2 12 13
M  V30 13 1 13 14
M  V30 14 1 11 15
M  V30 15 2 15 16
M  V30 16 1 15 17
M  V30 17 1 17 18
M  V30 18 1 18 19
M  V30 19 2 18 20 CFG=2
M  V30 20 1 13 7
M  V30 21 1 1 21
M  V30 22 1 1 22
M  V30 23 1 1 23
M  V30 24 1 2 24
M  V30 25 1 3 25
M  V30 26 1 3 26
M  V30 27 1 3 27
M  V30 28 1 4 28
M  V30 29 1 4 29
M  V30 30 1 6 30
M  V30 31 1 6 31
M  V30 32 1 6 32
M  V30 33 1 10 33
M  V30 34 1 10 34
M  V30 35 1 17 35
M  V30 36 1 19 36
M  V30 37 1 19 37
M  V30 38 1 20 38
M  V30 END BOND
M  V30 END CTAB
M  END
