
     RDKit          3D

  0  0  0  0  0  0  0  0  0  0999 V3000
M  V30 BEGIN CTAB
M  V30 COUNTS 38 38 0 0 0
M  V30 BEGIN ATOM
M  V30 1 N -3.75798 -3.76854 -1.33421 0
M  V30 2 N -3.35188 -2.49412 -0.988885 0
M  V30 3 C -2.02424 -2.25219 -0.522503 0
M  V30 4 O -1.20251 -3.18097 -0.414517 0
M  V30 5 C -1.62434 -0.868682 -0.159276 0
M  V30 6 C -0.163714 -0.911215 0.322543 0
M  V30 7 N 0.27359 0.403682 0.699488 0
M  V30 8 C 1.46968 0.760898 1.3727 0
M  V30 9 C 2.78126 0.62171 0.715063 0
M  V30 10 C 3.27315 -0.710048 0.377011 0
M  V30 11 O 2.75397 -1.79393 0.700603 0
M  V30 12 N 4.47178 -0.806229 -0.404013 0
M  V30 13 N 5.04598 -1.99444 -0.796202 0
M  V30 14 C -0.583715 1.54241 0.356484 0
M  V30 15 C -0.420121 2.13125 -0.871714 0
M  V30 16 C -1.22429 3.22512 -1.21967 0
M  V30 17 C -2.15655 3.69317 -0.341681 0
M  V30 18 C -2.29784 3.08242 0.881918 0
M  V30 19 C -1.5081 1.9864 1.25852 0
M  V30 20 H -3.71713 -3.92666 -2.38773 0
M  V30 21 H -4.76647 -3.94661 -1.05433 0
M  V30 22 H -4.02957 -1.71382 -1.07793 0
M  V30 23 H -1.75103 -0.170373 -1.00244 0
M  V30 24 H -2.26416 -0.503883 0.680645 0
M  V30 25 H 0.40336 -1.30817 -0.578137 0
M  V30 26 H -0.0912378 -1.622 1.12542 0
M  V30 27 H 1.53375 0.120495 2.32978 0
M  V30 28 H 1.40207 1.80612 1.82503 0
M  V30 29 H 3.52513 1.16385 1.40585 0
M  V30 30 H 2.86568 1.26602 -0.21788 0
M  V30 31 H 4.93018 0.085025 -0.682113 0
M  V30 32 H 6.01165 -2.1286 -0.367989 0
M  V30 33 H 4.44699 -2.8318 -0.667744 0
M  V30 34 H 0.300205 1.79443 -1.58942 0
M  V30 35 H -1.08937 3.68167 -2.18786 0
M  V30 36 H -2.7609 4.54252 -0.646102 0
M  V30 37 H -3.04496 3.48125 1.5532 0
M  V30 38 H -1.65832 1.54383 2.23089 0
M  V30 END ATOM
M  V30 BEGIN BOND
M  V30 1 1 1 2
M  V30 2 1 2 3
M  V30 3 2 3 4
M  V30 4 1 3 5
M  V30 5 1 5 6
M  V30 6 1 6 7
M  V30 7 1 7 8
M  V30 8 1 8 9
M  V30 9 1 9 10
M  V30 10 2 10 11
M  V30 11 1 10 12
M  V30 12 1 12 13
M  V30 13 1 7 14
M  V30 14 2 14 15
M  V30 15 1 15 16
M  V30 16 2 16 17
M  V30 17 1 17 18
M  V30 18 2 18 19
M  V30 19 1 19 14
M  V30 20 1 1 20
M  V30 21 1 1 21
M  V30 22 1 2 22
M  V30 23 1 5 23
M  V30 24 1 5 24
M  V30 25 1 6 25
M  V30 26 1 6 26
M  V30 27 1 8 27
M  V30 28 1 8 28
M  V30 29 1 9 29
M  V30 30 1 9 30
M  V30 31 1 12 31
M  V30 32 1 13 32
M  V30 33 1 13 33
M  V30 34 1 15 34
M  V30 35 1 16 35
M  V30 36 1 17 36
M  V30 37 1 18 37
M  V30 38 1 19 38
M  V30 END BOND
M  V30 END CTAB
M  END
