
     RDKit          3D

  0  0  0  0  0  0  0  0  0  0999 V3000
M  V30 BEGIN CTAB
M  V30 COUNTS 20 20 0 0 0
M  V30 BEGIN ATOM
M  V30 1 N 2.83234 0.895169 0.219887 0
M  V30 2 P 2.14565 -0.594197 -0.455723 0
M  V30 3 N 2.37763 -1.84126 0.751406 0
M  V30 4 S 3.209 -0.979464 -1.8103 0
M  V30 5 O 0.604144 -0.315125 -0.940288 0
M  V30 6 C -0.576046 0.0291175 -0.463568 0
M  V30 7 C -0.831448 0.290128 0.853101 0
M  V30 8 Cl 0.36232 0.211253 2.12442 0
M  V30 9 C -2.12444 0.648008 1.24976 0
M  V30 10 C -3.15604 0.744975 0.339356 0
M  V30 11 Cl -4.7824 1.1954 0.839983 0
M  V30 12 C -2.91218 0.48518 -0.986617 0
M  V30 13 Cl -4.2481 0.617503 -2.1218 0
M  V30 14 C -1.64683 0.136198 -1.36668 0
M  V30 15 H 3.61799 0.626942 0.853061 0
M  V30 16 H 3.17591 1.51147 -0.550568 0
M  V30 17 H 3.27925 -1.65616 1.26838 0
M  V30 18 H 2.47479 -2.79407 0.327669 0
M  V30 19 H -2.31692 0.85245 2.29225 0
M  V30 20 H -1.48461 -0.0635343 -2.42373 0
M  V30 END ATOM
M  V30 BEGIN BOND
M  V30 1 1 1 2
M  V30 2 1 2 3
M  V30 3 2 2 4
M  V30 4 1 2 5
M  V30 5 1 5 6
M  V30 6 2 6 7
M  V30 7 1 7 8
M  V30 8 1 7 9
M  V30 9 2 9 10
M  V30 10 1 10 11
M  V30 11 1 10 12
M  V30 12 1 12 13
M  V30 13 2 12 14
M  V30 14 1 14 6
M  V30 15 1 1 15
M  V30 16 1 1 16
M  V30 17 1 3 17
M  V30 18 1 3 18
M  V30 19 1 9 19
M  V30 20 1 14 20
M  V30 END BOND
M  V30 END CTAB
M  END
