
     RDKit          3D

  0  0  0  0  0  0  0  0  0  0999 V3000
M  V30 BEGIN CTAB
M  V30 COUNTS 23 23 0 0 0
M  V30 BEGIN ATOM
M  V30 1 N 4.56659 -0.93783 0.309867 0
M  V30 2 C 3.36181 -0.185261 0.0851119 0
M  V30 3 N 2.29163 -0.658441 0.600992 0
M  V30 4 N 1.03324 -0.0997878 0.508754 0
M  V30 5 C 0.00627315 -0.769051 0.0712342 0
M  V30 6 C -1.30812 -0.158032 -0.01625 0
M  V30 7 C -1.47356 1.17431 0.376899 0
M  V30 8 C -2.71388 1.77421 0.301814 0
M  V30 9 C -3.77854 1.02833 -0.16853 0
M  V30 10 C -3.64442 -0.28643 -0.562786 0
M  V30 11 C -2.37318 -0.873526 -0.476899 0
M  V30 12 O -2.23372 -2.18477 -0.868871 0
M  V30 13 N 3.38959 1.02746 -0.680622 0
M  V30 14 H 5.3678 -0.55431 0.829714 0
M  V30 15 H 4.58587 -1.90316 -0.0859417 0
M  V30 16 H 0.227449 -1.78598 -0.208348 0
M  V30 17 H -0.62098 1.7165 0.735811 0
M  V30 18 H -2.86082 2.8051 0.601916 0
M  V30 19 H -4.74859 1.50434 -0.225055 0
M  V30 20 H -4.46081 -0.891488 -0.934123 0
M  V30 21 H -1.3972 -2.73213 -0.864206 0
M  V30 22 H 3.71239 1.06952 -1.66736 0
M  V30 23 H 3.07119 1.92043 -0.233491 0
M  V30 END ATOM
M  V30 BEGIN BOND
M  V30 1 1 1 2
M  V30 2 2 2 3
M  V30 3 1 3 4
M  V30 4 2 4 5
M  V30 5 1 5 6
M  V30 6 2 6 7
M  V30 7 1 7 8
M  V30 8 2 8 9
M  V30 9 1 9 10
M  V30 10 2 10 11
M  V30 11 1 11 12
M  V30 12 1 2 13
M  V30 13 1 11 6
M  V30 14 1 1 14
M  V30 15 1 1 15
M  V30 16 1 5 16
M  V30 17 1 7 17
M  V30 18 1 8 18
M  V30 19 1 9 19
M  V30 20 1 10 20
M  V30 21 1 12 21
M  V30 22 1 13 22
M  V30 23 1 13 23
M  V30 END BOND
M  V30 END CTAB
M  END
