
     RDKit          3D

  0  0  0  0  0  0  0  0  0  0999 V3000
M  V30 BEGIN CTAB
M  V30 COUNTS 32 33 0 0 0
M  V30 BEGIN ATOM
M  V30 1 N 5.80984 -0.243336 0.595331 0
M  V30 2 C 4.42776 -0.25547 0.271103 0
M  V30 3 C 3.58823 -1.16869 0.885772 0
M  V30 4 C 2.25507 -1.20947 0.599039 0
M  V30 5 C 1.74416 -0.320037 -0.321789 0
M  V30 6 C 0.295883 -0.350563 -0.64572 0
M  V30 7 C -0.470946 0.586481 0.297982 0
M  V30 8 C -1.91046 0.576511 -0.000281937 0
M  V30 9 C -2.75031 -0.338479 0.636025 0
M  V30 10 C -4.09857 -0.343766 0.352929 0
M  V30 11 N -4.97597 -1.27175 0.992791 0
M  V30 12 C -4.57274 0.570568 -0.563296 0
M  V30 13 C -3.73764 1.47814 -1.194 0
M  V30 14 C -2.38584 1.49103 -0.916925 0
M  V30 15 C 2.56682 0.598869 -0.945646 0
M  V30 16 C 3.91057 0.63162 -0.649145 0
M  V30 17 H 6.50847 -0.258206 -0.173695 0
M  V30 18 H 6.13469 -0.220023 1.58054 0
M  V30 19 H 3.99521 -1.86237 1.60599 0
M  V30 20 H 1.56242 -1.90293 1.05241 0
M  V30 21 H 0.193718 -0.00304483 -1.69624 0
M  V30 22 H -0.0831498 -1.38503 -0.529299 0
M  V30 23 H -0.292356 0.217735 1.33041 0
M  V30 24 H -0.0542784 1.59419 0.240577 0
M  V30 25 H -2.35308 -1.04686 1.35226 0
M  V30 26 H -6.00289 -1.14722 0.961449 0
M  V30 27 H -4.59359 -2.08922 1.50141 0
M  V30 28 H -5.61639 0.609701 -0.820968 0
M  V30 29 H -4.13353 2.20008 -1.92201 0
M  V30 30 H -1.72416 2.20218 -1.40957 0
M  V30 31 H 2.18918 1.30545 -1.67032 0
M  V30 32 H 4.57388 1.3539 -1.13548 0
M  V30 END ATOM
M  V30 BEGIN BOND
M  V30 1 1 1 2
M  V30 2 2 2 3
M  V30 3 1 3 4
M  V30 4 2 4 5
M  V30 5 1 5 6
M  V30 6 1 6 7
M  V30 7 1 7 8
M  V30 8 2 8 9
M  V30 9 1 9 10
M  V30 10 1 10 11
M  V30 11 2 10 12
M  V30 12 1 12 13
M  V30 13 2 13 14
M  V30 14 1 5 15
M  V30 15 2 15 16
M  V30 16 1 16 2
M  V30 17 1 14 8
M  V30 18 1 1 17
M  V30 19 1 1 18
M  V30 20 1 3 19
M  V30 21 1 4 20
M  V30 22 1 6 21
M  V30 23 1 6 22
M  V30 24 1 7 23
M  V30 25 1 7 24
M  V30 26 1 9 25
M  V30 27 1 11 26
M  V30 28 1 11 27
M  V30 29 1 12 28
M  V30 30 1 13 29
M  V30 31 1 14 30
M  V30 32 1 15 31
M  V30 33 1 16 32
M  V30 END BOND
M  V30 END CTAB
M  END
