
     RDKit          3D

  0  0  0  0  0  0  0  0  0  0999 V3000
M  V30 BEGIN CTAB
M  V30 COUNTS 55 57 0 0 0
M  V30 BEGIN ATOM
M  V30 1 N 8.00761 -0.781409 -0.771824 0
M  V30 2 C 6.69066 -0.406822 -0.337951 0
M  V30 3 C 6.03324 -1.04292 0.663438 0
M  V30 4 C 4.74504 -0.646782 1.03411 0
M  V30 5 C 4.10994 0.376355 0.412743 0
M  V30 6 C 4.81596 1.0251 -0.625714 0
M  V30 7 C 6.07384 0.647453 -0.995464 0
M  V30 8 C 2.75269 0.824565 0.701647 0
M  V30 9 N 1.79472 -0.252527 0.805799 0
M  V30 10 C 1.08308 -0.25079 -0.477416 0
M  V30 11 C -0.335927 -0.644818 -0.423252 0
M  V30 12 N -1.22384 0.187792 0.272297 0
M  V30 13 C -1.64922 1.40182 -0.273943 0
M  V30 14 C -2.46797 2.19879 0.71542 0
M  V30 15 C -2.84689 3.50485 0.0553179 0
M  V30 16 S -1.4862 3.82975 -1.02024 0
M  V30 17 O -0.656911 4.98978 -0.643332 0
M  V30 18 O -2.00525 3.92857 -2.42962 0
M  V30 19 C -0.578481 2.27673 -0.799747 0
M  V30 20 C -1.99383 -0.366992 1.32208 0
M  V30 21 C -3.02393 -1.33089 0.997157 0
M  V30 22 C -3.45209 -1.6098 -0.265382 0
M  V30 23 C -4.45437 -2.52163 -0.545463 0
M  V30 24 C -5.06231 -3.19015 0.485208 0
M  V30 25 C -4.63562 -2.91703 1.78552 0
M  V30 26 C -3.63363 -2.00331 2.04367 0
M  V30 27 N -6.09663 -4.11912 0.235114 0
M  V30 28 H 8.81312 -0.323925 -0.333108 0
M  V30 29 H 8.06892 -1.49788 -1.51352 0
M  V30 30 H 6.5239 -1.87195 1.18136 0
M  V30 31 H 4.29109 -1.19199 1.83465 0
M  V30 32 H 4.3484 1.84509 -1.14376 0
M  V30 33 H 6.62643 1.1346 -1.79126 0
M  V30 34 H 2.75217 1.43241 1.66281 0
M  V30 35 H 2.4103 1.54617 -0.0902025 0
M  V30 36 H 1.15505 -0.0943802 1.59434 0
M  V30 37 H 1.63593 -1.12385 -1.03161 0
M  V30 38 H 1.2923 0.607751 -1.07736 0
M  V30 39 H -0.392201 -1.67085 0.0602889 0
M  V30 40 H -0.663015 -0.876695 -1.48206 0
M  V30 41 H -2.36831 1.26103 -1.15344 0
M  V30 42 H -1.95674 2.40245 1.66283 0
M  V30 43 H -3.43781 1.64513 0.816915 0
M  V30 44 H -2.86965 4.29362 0.82244 0
M  V30 45 H -3.81331 3.45148 -0.483469 0
M  V30 46 H 0.23758 2.52685 -0.132393 0
M  V30 47 H -0.28828 1.99664 -1.84383 0
M  V30 48 H -2.3709 0.412125 1.98008 0
M  V30 49 H -1.24219 -0.931654 1.97693 0
M  V30 50 H -3.00189 -1.10072 -1.08395 0
M  V30 51 H -4.77403 -2.72162 -1.55962 0
M  V30 52 H -5.13679 -3.45922 2.55821 0
M  V30 53 H -3.36546 -1.85969 3.07917 0
M  V30 54 H -6.40181 -4.31465 -0.738316 0
M  V30 55 H -6.57648 -4.62288 0.999143 0
M  V30 END ATOM
M  V30 BEGIN BOND
M  V30 1 1 1 2
M  V30 2 2 2 3
M  V30 3 1 3 4
M  V30 4 2 4 5
M  V30 5 1 5 6
M  V30 6 2 6 7
M  V30 7 1 5 8
M  V30 8 1 8 9
M  V30 9 1 9 10
M  V30 10 1 10 11
M  V30 11 1 11 12
M  V30 12 1 12 13
M  V30 13 1 13 14
M  V30 14 1 14 15
M  V30 15 1 15 16
M  V30 16 2 16 17
M  V30 17 2 16 18
M  V30 18 1 16 19
M  V30 19 1 12 20
M  V30 20 1 20 21
M  V30 21 2 21 22
M  V30 22 1 22 23
M  V30 23 2 23 24
M  V30 24 1 24 25
M  V30 25 2 25 26
M  V30 26 1 24 27
M  V30 27 1 7 2
M  V30 28 1 19 13
M  V30 29 1 26 21
M  V30 30 1 1 28
M  V30 31 1 1 29
M  V30 32 1 3 30
M  V30 33 1 4 31
M  V30 34 1 6 32
M  V30 35 1 7 33
M  V30 36 1 8 34
M  V30 37 1 8 35
M  V30 38 1 9 36
M  V30 39 1 10 37
M  V30 40 1 10 38
M  V30 41 1 11 39
M  V30 42 1 11 40
M  V30 43 1 13 41
M  V30 44 1 14 42
M  V30 45 1 14 43
M  V30 46 1 15 44
M  V30 47 1 15 45
M  V30 48 1 19 46
M  V30 49 1 19 47
M  V30 50 1 20 48
M  V30 51 1 20 49
M  V30 52 1 22 50
M  V30 53 1 23 51
M  V30 54 1 25 52
M  V30 55 1 26 53
M  V30 56 1 27 54
M  V30 57 1 27 55
M  V30 END BOND
M  V30 END CTAB
M  END
