
     RDKit          3D

  0  0  0  0  0  0  0  0  0  0999 V3000
M  V30 BEGIN CTAB
M  V30 COUNTS 28 29 0 0 0
M  V30 BEGIN ATOM
M  V30 1 C 2.20952 -0.805968 -0.880831 0
M  V30 2 C 1.97346 -0.933138 0.582476 0
M  V30 3 C 2.42172 0.351136 1.35202 0
M  V30 4 C 1.02177 -0.191762 1.39422 0
M  V30 5 C -0.062512 0.68705 0.914861 0
M  V30 6 C -1.08614 -0.0190974 0.0704969 0
M  V30 7 C -1.12107 -1.38593 0.0605234 0
M  V30 8 C -2.09794 -2.00898 -0.713063 0
M  V30 9 C -2.98817 -1.2379 -1.43474 0
M  V30 10 N -2.90175 0.0868329 -1.38253 0
M  V30 11 C -1.9777 0.752898 -0.652792 0
M  V30 12 N -1.94128 2.17616 -0.65281 0
M  V30 13 N 0.338073 1.8799 0.261901 0
M  V30 14 H 2.29371 0.252779 -1.2441 0
M  V30 15 H 1.55713 -1.43742 -1.51649 0
M  V30 16 H 3.24413 -1.22344 -1.08997 0
M  V30 17 H 2.39892 -1.86234 1.01681 0
M  V30 18 H 2.6582 1.24262 0.777266 0
M  V30 19 H 3.11269 0.189697 2.20686 0
M  V30 20 H 0.787355 -0.667798 2.39688 0
M  V30 21 H -0.655248 1.02669 1.81811 0
M  V30 22 H -0.437114 -2.02633 0.619411 0
M  V30 23 H -2.11821 -3.09841 -0.71347 0
M  V30 24 H -3.74203 -1.77383 -2.0296 0
M  V30 25 H -1.73687 2.76204 -1.49027 0
M  V30 26 H -2.13322 2.66433 0.243546 0
M  V30 27 H 0.366289 2.74491 0.792501 0
M  V30 28 H 0.616283 1.8553 -0.70723 0
M  V30 END ATOM
M  V30 BEGIN BOND
M  V30 1 1 1 2
M  V30 2 1 2 3
M  V30 3 1 3 4
M  V30 4 1 4 5
M  V30 5 1 5 6
M  V30 6 2 6 7
M  V30 7 1 7 8
M  V30 8 2 8 9
M  V30 9 1 9 10
M  V30 10 2 10 11
M  V30 11 1 11 12
M  V30 12 1 5 13
M  V30 13 1 4 2
M  V30 14 1 11 6
M  V30 15 1 1 14
M  V30 16 1 1 15
M  V30 17 1 1 16
M  V30 18 1 2 17
M  V30 19 1 3 18
M  V30 20 1 3 19
M  V30 21 1 4 20
M  V30 22 1 5 21
M  V30 23 1 7 22
M  V30 24 1 8 23
M  V30 25 1 9 24
M  V30 26 1 12 25
M  V30 27 1 12 26
M  V30 28 1 13 27
M  V30 29 1 13 28
M  V30 END BOND
M  V30 END CTAB
M  END
