
     RDKit          3D

  0  0  0  0  0  0  0  0  0  0999 V3000
M  V30 BEGIN CTAB
M  V30 COUNTS 49 51 0 0 0
M  V30 BEGIN ATOM
M  V30 1 N -4.62552 -1.52623 2.18127 0
M  V30 2 C -4.1827 -0.590257 1.13357 0
M  V30 3 C -3.84987 -1.40631 -0.0673502 0
M  V30 4 C -2.9426 -0.704259 -1.0489 0
M  V30 5 C -3.57532 0.436921 -1.75266 0
M  V30 6 C -3.60649 1.71919 -1.01149 0
M  V30 7 C -2.51496 1.9318 -0.0331958 0
M  V30 8 C -2.07617 0.713208 0.709211 0
M  V30 9 C -3.05871 0.200224 1.69552 0
M  V30 10 C -1.6779 -0.336449 -0.302349 0
M  V30 11 N -0.647889 0.171729 -1.17722 0
M  V30 12 C 0.605225 -0.485508 -1.26065 0
M  V30 13 O 0.798359 -1.50634 -0.566323 0
M  V30 14 C 1.63409 0.0355044 -2.14483 0
M  V30 15 C 2.95294 -0.640071 -2.14536 0
M  V30 16 N 3.68758 -0.653249 -0.931423 0
M  V30 17 N 3.66901 -1.55499 0.0204205 0
M  V30 18 C 4.47936 -1.26315 1.02568 0
M  V30 19 C 5.0886 -0.0706324 0.721586 0
M  V30 20 C 4.57567 0.296846 -0.516167 0
M  V30 21 S 6.27201 0.817021 1.68697 0
M  V30 22 O 6.13205 2.26718 1.31289 0
M  V30 23 O 5.99874 0.678467 3.14542 0
M  V30 24 N 7.87725 0.318702 1.28055 0
M  V30 25 H -5.16813 -2.26839 1.68436 0
M  V30 26 H -5.27056 -1.036 2.85585 0
M  V30 27 H -5.08404 0.0674327 0.958793 0
M  V30 28 H -3.34038 -2.35541 0.225401 0
M  V30 29 H -4.78603 -1.69562 -0.573749 0
M  V30 30 H -2.64799 -1.46432 -1.80716 0
M  V30 31 H -3.11943 0.563427 -2.77086 0
M  V30 32 H -4.64509 0.146648 -1.97164 0
M  V30 33 H -4.60424 1.90101 -0.513492 0
M  V30 34 H -3.54301 2.55157 -1.77451 0
M  V30 35 H -1.62074 2.42641 -0.489466 0
M  V30 36 H -2.8909 2.6647 0.739692 0
M  V30 37 H -1.1321 0.991834 1.26325 0
M  V30 38 H -2.49027 -0.349596 2.49066 0
M  V30 39 H -3.50521 1.09322 2.22142 0
M  V30 40 H -1.33711 -1.22918 0.224241 0
M  V30 41 H -0.812982 1.01856 -1.75091 0
M  V30 42 H 1.69771 1.13797 -1.98589 0
M  V30 43 H 1.22902 -0.0641965 -3.20116 0
M  V30 44 H 2.77262 -1.68804 -2.54484 0
M  V30 45 H 3.54218 -0.169112 -2.99449 0
M  V30 46 H 4.64347 -1.83678 1.91843 0
M  V30 47 H 4.85808 1.20496 -1.04414 0
M  V30 48 H 8.42977 0.0278318 2.101 0
M  V30 49 H 7.81261 -0.488297 0.630683 0
M  V30 END ATOM
M  V30 BEGIN BOND
M  V30 1 1 1 2
M  V30 2 1 2 3
M  V30 3 1 3 4
M  V30 4 1 4 5
M  V30 5 1 5 6
M  V30 6 1 6 7
M  V30 7 1 7 8
M  V30 8 1 8 9
M  V30 9 1 8 10
M  V30 10 1 10 11
M  V30 11 1 11 12
M  V30 12 2 12 13
M  V30 13 1 12 14
M  V30 14 1 14 15
M  V30 15 1 15 16
M  V30 16 1 16 17
M  V30 17 2 17 18
M  V30 18 1 18 19
M  V30 19 2 19 20
M  V30 20 1 19 21
M  V30 21 2 21 22
M  V30 22 2 21 23
M  V30 23 1 21 24
M  V30 24 1 9 2
M  V30 25 1 20 16
M  V30 26 1 10 4
M  V30 27 1 1 25
M  V30 28 1 1 26
M  V30 29 1 2 27
M  V30 30 1 3 28
M  V30 31 1 3 29
M  V30 32 1 4 30
M  V30 33 1 5 31
M  V30 34 1 5 32
M  V30 35 1 6 33
M  V30 36 1 6 34
M  V30 37 1 7 35
M  V30 38 1 7 36
M  V30 39 1 8 37
M  V30 40 1 9 38
M  V30 41 1 9 39
M  V30 42 1 10 40
M  V30 43 1 11 41
M  V30 44 1 14 42
M  V30 45 1 14 43
M  V30 46 1 15 44
M  V30 47 1 15 45
M  V30 48 1 18 46
M  V30 49 1 20 47
M  V30 50 1 24 48
M  V30 51 1 24 49
M  V30 END BOND
M  V30 END CTAB
M  END
