
     RDKit          3D

  0  0  0  0  0  0  0  0  0  0999 V3000
M  V30 BEGIN CTAB
M  V30 COUNTS 26 27 0 0 0
M  V30 BEGIN ATOM
M  V30 1 N 4.01232 0.108399 -0.512639 0
M  V30 2 C 2.58471 -0.0631609 -0.471332 0
M  V30 3 C 1.94265 -0.89447 -1.35879 0
M  V30 4 C 0.58607 -1.07336 -1.33903 0
M  V30 5 C -0.190454 -0.397442 -0.39266 0
M  V30 6 C 0.476493 0.42127 0.476159 0
M  V30 7 C 1.86102 0.61714 0.471403 0
M  V30 8 N 2.43668 1.48885 1.41854 0
M  V30 9 C -1.62159 -0.610368 -0.361261 0
M  V30 10 C -2.23562 -1.56212 -1.16957 0
M  V30 11 N -3.554 -1.52558 -0.951035 0
M  V30 12 C -3.83704 -0.603469 -0.0454142 0
M  V30 13 N -2.62951 -0.0523343 0.302909 0
M  V30 14 C -2.53817 1.01557 1.26505 0
M  V30 15 H 4.44335 1.02142 -0.312392 0
M  V30 16 H 4.58009 -0.724304 -0.751601 0
M  V30 17 H 2.54308 -1.40761 -2.07917 0
M  V30 18 H 0.127024 -1.7467 -2.07399 0
M  V30 19 H -0.014512 0.981164 1.2558 0
M  V30 20 H 2.76526 1.08851 2.31179 0
M  V30 21 H 2.50443 2.50719 1.17041 0
M  V30 22 H -1.73133 -2.23012 -1.86294 0
M  V30 23 H -4.82208 -0.318113 0.361013 0
M  V30 24 H -3.58671 1.36529 1.55642 0
M  V30 25 H -2.03358 1.9289 0.890788 0
M  V30 26 H -2.06859 0.665448 2.20155 0
M  V30 END ATOM
M  V30 BEGIN BOND
M  V30 1 1 1 2
M  V30 2 2 2 3
M  V30 3 1 3 4
M  V30 4 2 4 5
M  V30 5 1 5 6
M  V30 6 2 6 7
M  V30 7 1 7 8
M  V30 8 1 5 9
M  V30 9 2 9 10
M  V30 10 1 10 11
M  V30 11 2 11 12
M  V30 12 1 12 13
M  V30 13 1 13 14
M  V30 14 1 7 2
M  V30 15 1 13 9
M  V30 16 1 1 15
M  V30 17 1 1 16
M  V30 18 1 3 17
M  V30 19 1 4 18
M  V30 20 1 6 19
M  V30 21 1 8 20
M  V30 22 1 8 21
M  V30 23 1 10 22
M  V30 24 1 12 23
M  V30 25 1 14 24
M  V30 26 1 14 25
M  V30 27 1 14 26
M  V30 END BOND
M  V30 END CTAB
M  END
