
     RDKit          3D

  0  0  0  0  0  0  0  0  0  0999 V3000
M  V30 BEGIN CTAB
M  V30 COUNTS 47 49 0 0 0
M  V30 BEGIN ATOM
M  V30 1 O -1.11866 0.636999 -0.923889 0
M  V30 2 C -1.11889 -0.457988 -0.325101 0
M  V30 3 C 0.180922 -1.08629 -0.149424 0
M  V30 4 C 0.373181 -2.05901 0.788741 0
M  V30 5 C 1.61638 -2.66167 0.949235 0
M  V30 6 C 2.66993 -2.29561 0.175091 0
M  V30 7 C 2.49976 -1.32286 -0.771146 0
M  V30 8 C 1.27067 -0.723206 -0.933957 0
M  V30 9 C 3.99858 -2.95764 0.368127 0
M  V30 10 S 4.88855 -1.96432 1.60741 0
M  V30 11 C 5.24676 -0.331355 0.9078 0
M  V30 12 N 4.35706 0.649683 1.05843 0
M  V30 13 C 4.55828 1.87477 0.569765 0
M  V30 14 N 3.57848 2.91386 0.748315 0
M  V30 15 C 5.72854 2.12855 -0.113473 0
M  V30 16 C 6.65012 1.09673 -0.264613 0
M  V30 17 N 6.38506 -0.106824 0.250172 0
M  V30 18 N 7.88759 1.29461 -0.964478 0
M  V30 19 N -2.2949 -1.03819 0.143236 0
M  V30 20 C -3.60514 -0.516799 0.0383007 0
M  V30 21 C -4.68294 -1.3912 0.281971 0
M  V30 22 C -5.9846 -0.961119 0.217772 0
M  V30 23 C -6.3174 0.341409 -0.0863234 0
M  V30 24 C -5.27546 1.20425 -0.325794 0
M  V30 25 C -3.93876 0.768396 -0.260977 0
M  V30 26 C -7.70649 0.790059 -0.153252 0
M  V30 27 O -8.66066 0.00629181 0.062939 0
M  V30 28 C -8.00494 2.19833 -0.482634 0
M  V30 29 H -0.416849 -2.40155 1.44791 0
M  V30 30 H 1.73482 -3.42137 1.69343 0
M  V30 31 H 3.34973 -1.03239 -1.39061 0
M  V30 32 H 1.09931 0.0431132 -1.66544 0
M  V30 33 H 3.82187 -3.96255 0.784866 0
M  V30 34 H 4.55867 -3.04145 -0.569681 0
M  V30 35 H 3.61195 3.51426 1.59385 0
M  V30 36 H 2.86312 3.01373 -0.00397744 0
M  V30 37 H 5.94195 3.10057 -0.528556 0
M  V30 38 H 7.88045 1.4771 -1.98297 0
M  V30 39 H 8.80724 1.2617 -0.482817 0
M  V30 40 H -2.16172 -1.9921 0.634305 0
M  V30 41 H -4.44629 -2.42198 0.522955 0
M  V30 42 H -6.82197 -1.64851 0.409054 0
M  V30 43 H -5.45062 2.23818 -0.569881 0
M  V30 44 H -3.15229 1.49992 -0.448308 0
M  V30 45 H -9.03917 2.27963 -0.923641 0
M  V30 46 H -8.02805 2.84977 0.416829 0
M  V30 47 H -7.33316 2.61407 -1.26151 0
M  V30 END ATOM
M  V30 BEGIN BOND
M  V30 1 2 1 2
M  V30 2 1 2 3
M  V30 3 2 3 4
M  V30 4 1 4 5
M  V30 5 2 5 6
M  V30 6 1 6 7
M  V30 7 2 7 8
M  V30 8 1 6 9
M  V30 9 1 9 10
M  V30 10 1 10 11
M  V30 11 2 11 12
M  V30 12 1 12 13
M  V30 13 1 13 14
M  V30 14 2 13 15
M  V30 15 1 15 16
M  V30 16 2 16 17
M  V30 17 1 16 18
M  V30 18 1 2 19
M  V30 19 1 19 20
M  V30 20 2 20 21
M  V30 21 1 21 22
M  V30 22 2 22 23
M  V30 23 1 23 24
M  V30 24 2 24 25
M  V30 25 1 23 26
M  V30 26 2 26 27
M  V30 27 1 26 28
M  V30 28 1 8 3
M  V30 29 1 17 11
M  V30 30 1 25 20
M  V30 31 1 4 29
M  V30 32 1 5 30
M  V30 33 1 7 31
M  V30 34 1 8 32
M  V30 35 1 9 33
M  V30 36 1 9 34
M  V30 37 1 14 35
M  V30 38 1 14 36
M  V30 39 1 15 37
M  V30 40 1 18 38
M  V30 41 1 18 39
M  V30 42 1 19 40
M  V30 43 1 21 41
M  V30 44 1 22 42
M  V30 45 1 24 43
M  V30 46 1 25 44
M  V30 47 1 28 45
M  V30 48 1 28 46
M  V30 49 1 28 47
M  V30 END BOND
M  V30 END CTAB
M  END
