
     RDKit          3D

  0  0  0  0  0  0  0  0  0  0999 V3000
M  V30 BEGIN CTAB
M  V30 COUNTS 18 18 0 0 0
M  V30 BEGIN ATOM
M  V30 1 O -1.16534 -3.54534 -0.221388 0 CHG=-1
M  V30 2 N -1.67967 -2.29107 -0.268854 0 CHG=1
M  V30 3 O -2.9044 -2.09711 -0.389956 0
M  V30 4 C -0.822827 -1.135 -0.180395 0
M  V30 5 C -1.33563 0.141281 -0.227656 0
M  V30 6 C -0.5753 1.28717 -0.148831 0
M  V30 7 N -1.11527 2.59653 -0.198667 0
M  V30 8 C 0.799687 1.11026 -0.0127654 0
M  V30 9 C 1.35935 -0.150461 0.0391952 0
M  V30 10 C 0.545775 -1.2653 -0.0448246 0
M  V30 11 N 2.76812 -0.296392 0.178659 0
M  V30 12 F 1.59056 2.20609 0.0689448 0
M  V30 13 H -2.40164 0.262602 -0.333177 0
M  V30 14 H -0.772111 3.25101 -0.927292 0
M  V30 15 H -1.83167 2.88509 0.476105 0
M  V30 16 H 0.932457 -2.27567 -0.00933498 0
M  V30 17 H 3.25311 -1.19829 0.0182361 0
M  V30 18 H 3.35479 0.514609 0.450096 0
M  V30 END ATOM
M  V30 BEGIN BOND
M  V30 1 1 1 2
M  V30 2 2 2 3
M  V30 3 1 2 4
M  V30 4 2 4 5
M  V30 5 1 5 6
M  V30 6 1 6 7
M  V30 7 2 6 8
M  V30 8 1 8 9
M  V30 9 2 9 10
M  V30 10 1 9 11
M  V30 11 1 8 12
M  V30 12 1 10 4
M  V30 13 1 5 13
M  V30 14 1 7 14
M  V30 15 1 7 15
M  V30 16 1 10 16
M  V30 17 1 11 17
M  V30 18 1 11 18
M  V30 END BOND
M  V30 END CTAB
M  END
