
     RDKit          3D

  0  0  0  0  0  0  0  0  0  0999 V3000
M  V30 BEGIN CTAB
M  V30 COUNTS 26 28 0 0 0
M  V30 BEGIN ATOM
M  V30 1 N -4.96249 1.86726 -0.0937021 0
M  V30 2 C -3.80066 1.04261 -0.121429 0
M  V30 3 N -2.61361 1.65455 -0.0149614 0
M  V30 4 C -1.47826 0.937367 -0.0338342 0
M  V30 5 N -0.155583 1.21827 0.0476426 0
M  V30 6 C 0.556476 0.079514 -0.0280421 0
M  V30 7 N -0.315185 -0.911879 -0.156457 0
M  V30 8 N -1.54581 -0.401294 -0.160725 0
M  V30 9 C -2.73416 -1.05547 -0.271162 0
M  V30 10 N -2.78484 -2.4717 -0.404537 0
M  V30 11 N -3.83349 -0.279707 -0.245349 0
M  V30 12 C 2.02201 0.0322507 0.029005 0
M  V30 13 C 2.78107 1.17569 0.166791 0
M  V30 14 C 4.16012 1.17186 0.224233 0
M  V30 15 C 4.79567 -0.0478041 0.137834 0
M  V30 16 C 4.07832 -1.21105 -4.05392e-05 0
M  V30 17 C 2.70689 -1.16541 -0.0532907 0
M  V30 18 H -5.58535 1.9933 -0.92658 0
M  V30 19 H -5.25022 2.38867 0.763904 0
M  V30 20 H -3.28023 -2.99105 0.356167 0
M  V30 21 H -2.36136 -2.98482 -1.20309 0
M  V30 22 H 2.24159 2.11221 0.230979 0
M  V30 23 H 4.74001 2.08591 0.333252 0
M  V30 24 H 5.88551 -0.0300488 0.185156 0
M  V30 25 H 4.61502 -2.14037 -0.0636726 0
M  V30 26 H 2.11855 -2.06886 -0.161675 0
M  V30 END ATOM
M  V30 BEGIN BOND
M  V30 1 1 1 2
M  V30 2 2 2 3
M  V30 3 1 3 4
M  V30 4 2 4 5
M  V30 5 1 5 6
M  V30 6 2 6 7
M  V30 7 1 7 8
M  V30 8 1 8 9
M  V30 9 1 9 10
M  V30 10 2 9 11
M  V30 11 1 6 12
M  V30 12 2 12 13
M  V30 13 1 13 14
M  V30 14 2 14 15
M  V30 15 1 15 16
M  V30 16 2 16 17
M  V30 17 1 11 2
M  V30 18 1 17 12
M  V30 19 1 8 4
M  V30 20 1 1 18
M  V30 21 1 1 19
M  V30 22 1 10 20
M  V30 23 1 10 21
M  V30 24 1 13 22
M  V30 25 1 14 23
M  V30 26 1 15 24
M  V30 27 1 16 25
M  V30 28 1 17 26
M  V30 END BOND
M  V30 END CTAB
M  END
