
     RDKit          3D

  0  0  0  0  0  0  0  0  0  0999 V3000
M  V30 BEGIN CTAB
M  V30 COUNTS 50 52 0 0 0
M  V30 BEGIN ATOM
M  V30 1 N -6.02366 1.46275 -0.600338 0
M  V30 2 C -5.34566 0.593312 0.341524 0
M  V30 3 C -5.24255 -0.800524 -0.236011 0
M  V30 4 C -4.55398 -1.75962 0.685252 0
M  V30 5 O -4.45903 -3.01745 0.166599 0
M  V30 6 C -3.36502 -3.31141 -0.572837 0
M  V30 7 C -2.46811 -2.17537 -0.927989 0
M  V30 8 N -2.28048 -1.23701 0.166563 0
M  V30 9 C -3.23458 -1.24658 1.2257 0
M  V30 10 C -1.14306 -0.364948 0.0963478 0
M  V30 11 C -0.901992 0.487739 1.15292 0
M  V30 12 C 0.194618 1.33074 1.07699 0
M  V30 13 N 0.443431 2.21004 2.16545 0
M  V30 14 N 0.960892 1.27102 -0.019311 0
M  V30 15 C 0.766063 0.46145 -1.06661 0
M  V30 16 N -0.326854 -0.355922 -0.954219 0
M  V30 17 S 1.78815 0.395759 -2.51571 0
M  V30 18 C 3.15483 1.52041 -2.48277 0
M  V30 19 C 4.17776 1.18354 -1.46779 0
M  V30 20 C 4.2701 1.78948 -0.239142 0
M  V30 21 C 5.25647 1.39565 0.676176 0
M  V30 22 C 6.16718 0.402578 0.399731 0
M  V30 23 C 6.07946 -0.208532 -0.832808 0
M  V30 24 C 5.11414 0.171522 -1.73684 0
M  V30 25 C 7.21365 -0.00338628 1.38993 0
M  V30 26 H -6.38013 2.28861 -0.0944217 0
M  V30 27 H -5.39462 1.72394 -1.3924 0
M  V30 28 H -4.33499 1.012 0.526734 0
M  V30 29 H -5.96497 0.556641 1.25485 0
M  V30 30 H -4.8229 -0.745042 -1.24982 0
M  V30 31 H -6.3072 -1.14144 -0.372093 0
M  V30 32 H -5.22259 -1.84075 1.59582 0
M  V30 33 H -2.76833 -4.11569 -0.052328 0
M  V30 34 H -3.68461 -3.79813 -1.53553 0
M  V30 35 H -1.44188 -2.62199 -1.09618 0
M  V30 36 H -2.71476 -1.68825 -1.88125 0
M  V30 37 H -2.89783 -2.00027 1.97151 0
M  V30 38 H -3.38988 -0.304546 1.74476 0
M  V30 39 H -1.55673 0.492232 2.01823 0
M  V30 40 H 0.496899 1.84248 3.14641 0
M  V30 41 H 0.567307 3.22131 1.93476 0
M  V30 42 H 2.84355 2.60116 -2.34284 0
M  V30 43 H 3.61576 1.54121 -3.51925 0
M  V30 44 H 3.5909 2.58485 0.0137716 0
M  V30 45 H 5.30992 1.88638 1.63835 0
M  V30 46 H 6.79095 -0.99081 -1.06131 0
M  V30 47 H 5.03085 -0.305615 -2.72134 0
M  V30 48 H 7.83862 -0.823815 0.989008 0
M  V30 49 H 7.87693 0.825893 1.66142 0
M  V30 50 H 6.67803 -0.395587 2.27817 0
M  V30 END ATOM
M  V30 BEGIN BOND
M  V30 1 1 1 2
M  V30 2 1 2 3
M  V30 3 1 3 4
M  V30 4 1 4 5
M  V30 5 1 5 6
M  V30 6 1 6 7
M  V30 7 1 7 8
M  V30 8 1 8 9
M  V30 9 1 8 10
M  V30 10 2 10 11
M  V30 11 1 11 12
M  V30 12 1 12 13
M  V30 13 2 12 14
M  V30 14 1 14 15
M  V30 15 2 15 16
M  V30 16 1 15 17
M  V30 17 1 17 18
M  V30 18 1 18 19
M  V30 19 2 19 20
M  V30 20 1 20 21
M  V30 21 2 21 22
M  V30 22 1 22 23
M  V30 23 2 23 24
M  V30 24 1 22 25
M  V30 25 1 9 4
M  V30 26 1 16 10
M  V30 27 1 24 19
M  V30 28 1 1 26
M  V30 29 1 1 27
M  V30 30 1 2 28
M  V30 31 1 2 29
M  V30 32 1 3 30
M  V30 33 1 3 31
M  V30 34 1 4 32
M  V30 35 1 6 33
M  V30 36 1 6 34
M  V30 37 1 7 35
M  V30 38 1 7 36
M  V30 39 1 9 37
M  V30 40 1 9 38
M  V30 41 1 11 39
M  V30 42 1 13 40
M  V30 43 1 13 41
M  V30 44 1 18 42
M  V30 45 1 18 43
M  V30 46 1 20 44
M  V30 47 1 21 45
M  V30 48 1 23 46
M  V30 49 1 24 47
M  V30 50 1 25 48
M  V30 51 1 25 49
M  V30 52 1 25 50
M  V30 END BOND
M  V30 END CTAB
M  END
