
     RDKit          3D

  0  0  0  0  0  0  0  0  0  0999 V3000
M  V30 BEGIN CTAB
M  V30 COUNTS 29 29 0 0 0
M  V30 BEGIN ATOM
M  V30 1 C -3.45021 0.904563 1.28012 0
M  V30 2 C -2.89859 0.304431 0.0548694 0
M  V30 3 C -1.63921 0.512891 -0.286555 0
M  V30 4 C -1.02483 -0.0664122 -1.51258 0
M  V30 5 N 0.0735877 -0.898007 -1.12762 0
M  V30 6 C 1.25188 -0.447057 -0.465309 0
M  V30 7 C 2.24561 -1.33909 -0.130867 0
M  V30 8 C 3.41136 -0.962935 0.50578 0
M  V30 9 N 4.4206 -1.92561 0.835696 0
M  V30 10 N 3.5535 0.346151 0.800345 0
M  V30 11 C 2.59971 1.24015 0.485844 0
M  V30 12 N 1.46528 0.829811 -0.141305 0
M  V30 13 N 2.737 2.62168 0.790513 0
M  V30 14 C -3.7698 -0.549069 -0.812414 0
M  V30 15 H -3.44351 0.234403 2.15323 0
M  V30 16 H -4.50108 1.25186 1.06038 0
M  V30 17 H -2.89416 1.82043 1.57243 0
M  V30 18 H -1.02956 1.12869 0.345783 0
M  V30 19 H -0.719536 0.752764 -2.21691 0
M  V30 20 H -1.74796 -0.669265 -2.09412 0
M  V30 21 H -0.00118243 -1.93574 -1.35634 0
M  V30 22 H 2.09191 -2.38373 -0.385645 0
M  V30 23 H 5.01898 -1.85505 1.66331 0
M  V30 24 H 4.54787 -2.74478 0.189673 0
M  V30 25 H 1.89844 3.23325 0.915479 0
M  V30 26 H 3.69218 3.03206 0.891085 0
M  V30 27 H -4.70478 -0.828279 -0.262924 0
M  V30 28 H -3.96258 -0.102468 -1.7947 0
M  V30 29 H -3.22089 -1.50565 -0.957253 0
M  V30 END ATOM
M  V30 BEGIN BOND
M  V30 1 1 1 2
M  V30 2 2 2 3 CFG=2
M  V30 3 1 3 4
M  V30 4 1 4 5
M  V30 5 1 5 6
M  V30 6 2 6 7
M  V30 7 1 7 8
M  V30 8 1 8 9
M  V30 9 2 8 10
M  V30 10 1 10 11
M  V30 11 2 11 12
M  V30 12 1 11 13
M  V30 13 1 2 14
M  V30 14 1 12 6
M  V30 15 1 1 15
M  V30 16 1 1 16
M  V30 17 1 1 17
M  V30 18 1 3 18
M  V30 19 1 4 19
M  V30 20 1 4 20
M  V30 21 1 5 21
M  V30 22 1 7 22
M  V30 23 1 9 23
M  V30 24 1 9 24
M  V30 25 1 13 25
M  V30 26 1 13 26
M  V30 27 1 14 27
M  V30 28 1 14 28
M  V30 29 1 14 29
M  V30 END BOND
M  V30 END CTAB
M  END
