
     RDKit          3D

  0  0  0  0  0  0  0  0  0  0999 V3000
M  V30 BEGIN CTAB
M  V30 COUNTS 26 26 0 0 0
M  V30 BEGIN ATOM
M  V30 1 C 4.56015 -0.0726752 -0.572524 0
M  V30 2 O 3.31929 0.246442 0.0643777 0
M  V30 3 C 2.15375 -0.306084 -0.417546 0
M  V30 4 O 2.20549 -1.07241 -1.39847 0
M  V30 5 C 0.889784 -0.00510312 0.200666 0
M  V30 6 C 0.85436 0.859692 1.30334 0
M  V30 7 C -0.362068 1.11788 1.85839 0
M  V30 8 C -1.52898 0.569769 1.38227 0
M  V30 9 C -1.45429 -0.272501 0.300787 0
M  V30 10 C -0.26005 -0.580657 -0.313433 0
M  V30 11 N -0.176101 -1.45693 -1.43968 0
M  V30 12 O -2.62808 -0.852298 -0.214205 0
M  V30 13 C -3.3255 -0.140925 -1.23281 0
M  V30 14 F -4.57139 0.226704 -0.730833 0
M  V30 15 F -3.45816 -0.898508 -2.37862 0
M  V30 16 N -2.74621 0.89135 2.01776 0
M  V30 17 H 5.3054 -0.125461 0.264274 0
M  V30 18 H 4.44358 -1.08385 -1.02517 0
M  V30 19 H 4.83829 0.642661 -1.34275 0
M  V30 20 H 1.79532 1.26749 1.64394 0
M  V30 21 H -0.382886 1.78932 2.71328 0
M  V30 22 H -0.221963 -1.14318 -2.41851 0
M  V30 23 H -0.0609956 -2.48136 -1.27269 0
M  V30 24 H -2.80629 0.822839 -1.48234 0
M  V30 25 H -3.30699 0.189351 2.51678 0
M  V30 26 H -3.07547 1.86844 1.97372 0
M  V30 END ATOM
M  V30 BEGIN BOND
M  V30 1 1 1 2
M  V30 2 1 2 3
M  V30 3 2 3 4
M  V30 4 1 3 5
M  V30 5 2 5 6
M  V30 6 1 6 7
M  V30 7 2 7 8
M  V30 8 1 8 9
M  V30 9 2 9 10
M  V30 10 1 10 11
M  V30 11 1 9 12
M  V30 12 1 12 13
M  V30 13 1 13 14
M  V30 14 1 13 15
M  V30 15 1 8 16
M  V30 16 1 10 5
M  V30 17 1 1 17
M  V30 18 1 1 18
M  V30 19 1 1 19
M  V30 20 1 6 20
M  V30 21 1 7 21
M  V30 22 1 11 22
M  V30 23 1 11 23
M  V30 24 1 13 24
M  V30 25 1 16 25
M  V30 26 1 16 26
M  V30 END BOND
M  V30 END CTAB
M  END
