
     RDKit          3D

  0  0  0  0  0  0  0  0  0  0999 V3000
M  V30 BEGIN CTAB
M  V30 COUNTS 45 46 0 0 0
M  V30 BEGIN ATOM
M  V30 1 N -2.87338 2.86348 -0.915213 0
M  V30 2 C -3.34489 2.07982 0.185719 0
M  V30 3 C -2.92533 0.605166 0.0441008 0
M  V30 4 C -3.47768 -0.0835655 1.24531 0
M  V30 5 C -5.01579 0.0291278 1.32468 0
M  V30 6 C -4.28525 -1.28971 1.25387 0
M  V30 7 N -1.47387 0.588456 0.0165333 0
M  V30 8 C -0.723937 -0.613722 -0.0991995 0
M  V30 9 O -1.4007 -1.6922 -0.177981 0
M  V30 10 C 0.728 -0.644981 -0.128801 0
M  V30 11 C 1.35713 -1.87938 -0.253019 0
M  V30 12 C 2.72518 -1.99492 -0.288532 0
M  V30 13 C 3.4021 -3.32626 -0.422465 0
M  V30 14 C 3.53753 -0.868339 -0.200462 0
M  V30 15 C 2.93857 0.365882 -0.0769161 0
M  V30 16 C 1.53904 0.455845 -0.0431145 0
M  V30 17 S 3.90739 1.79681 0.0322294 0
M  V30 18 O 4.69208 2.0914 -1.20332 0
M  V30 19 O 2.99421 2.9904 0.255323 0
M  V30 20 N 4.9812 1.7568 1.40447 0
M  V30 21 C 5.01434 -0.99091 -0.236038 0
M  V30 22 C -3.41627 0.0330423 -1.24874 0
M  V30 23 H -3.60079 3.60314 -1.13506 0
M  V30 24 H -2.71637 2.33363 -1.78466 0
M  V30 25 H -4.4311 2.16478 0.323764 0
M  V30 26 H -2.87673 2.43689 1.13839 0
M  V30 27 H -2.92737 0.194519 2.18272 0
M  V30 28 H -5.5674 0.285501 0.421998 0
M  V30 29 H -5.41823 0.399184 2.27035 0
M  V30 30 H -4.33036 -1.83952 2.24142 0
M  V30 31 H -4.49802 -1.96003 0.423665 0
M  V30 32 H -0.922603 1.47168 0.0816444 0
M  V30 33 H 0.737854 -2.76725 -0.322809 0
M  V30 34 H 2.67069 -4.13883 -0.533247 0
M  V30 35 H 3.96348 -3.47491 0.539388 0
M  V30 36 H 4.13363 -3.2988 -1.2613 0
M  V30 37 H 1.0935 1.42682 0.0537264 0
M  V30 38 H 5.75004 2.41686 1.18462 0
M  V30 39 H 4.41754 2.00211 2.23154 0
M  V30 40 H 5.53839 -0.047931 -0.36635 0
M  V30 41 H 5.40026 -1.45192 0.719794 0
M  V30 42 H 5.36043 -1.683 -1.05205 0
M  V30 43 H -4.39302 0.55066 -1.47788 0
M  V30 44 H -2.69457 0.160189 -2.07787 0
M  V30 45 H -3.56892 -1.05601 -1.12746 0
M  V30 END ATOM
M  V30 BEGIN BOND
M  V30 1 1 1 2
M  V30 2 1 2 3
M  V30 3 1 3 4
M  V30 4 1 4 5
M  V30 5 1 5 6
M  V30 6 1 3 7
M  V30 7 1 7 8
M  V30 8 2 8 9
M  V30 9 1 8 10
M  V30 10 2 10 11
M  V30 11 1 11 12
M  V30 12 1 12 13
M  V30 13 2 12 14
M  V30 14 1 14 15
M  V30 15 2 15 16
M  V30 16 1 15 17
M  V30 17 2 17 18
M  V30 18 2 17 19
M  V30 19 1 17 20
M  V30 20 1 14 21
M  V30 21 1 3 22
M  V30 22 1 6 4
M  V30 23 1 16 10
M  V30 24 1 1 23
M  V30 25 1 1 24
M  V30 26 1 2 25
M  V30 27 1 2 26
M  V30 28 1 4 27
M  V30 29 1 5 28
M  V30 30 1 5 29
M  V30 31 1 6 30
M  V30 32 1 6 31
M  V30 33 1 7 32
M  V30 34 1 11 33
M  V30 35 1 13 34
M  V30 36 1 13 35
M  V30 37 1 13 36
M  V30 38 1 16 37
M  V30 39 1 20 38
M  V30 40 1 20 39
M  V30 41 1 21 40
M  V30 42 1 21 41
M  V30 43 1 21 42
M  V30 44 1 22 43
M  V30 45 1 22 44
M  V30 46 1 22 45
M  V30 END BOND
M  V30 END CTAB
M  END
