
     RDKit          3D

  0  0  0  0  0  0  0  0  0  0999 V3000
M  V30 BEGIN CTAB
M  V30 COUNTS 27 29 0 0 0
M  V30 BEGIN ATOM
M  V30 1 N 3.40101 -2.17867 -1.70157 0
M  V30 2 C 2.84801 -1.0265 -1.09054 0
M  V30 3 N 3.59186 0.0374707 -0.759123 0
M  V30 4 C 3.08867 1.14413 -0.177412 0
M  V30 5 N 3.90502 2.25522 0.161354 0
M  V30 6 N 1.74789 1.15858 0.0778224 0
M  V30 7 C 0.924972 0.14324 -0.217462 0
M  V30 8 C 1.47566 -0.96394 -0.808219 0
M  V30 9 C -0.498202 0.18825 0.066568 0
M  V30 10 C -1.01242 1.33985 0.67021 0
M  V30 11 C -2.35189 1.4884 0.984399 0
M  V30 12 C -3.22635 0.476419 0.700135 0
M  V30 13 C -2.74044 -0.668368 0.104754 0
M  V30 14 C -1.38329 -0.823974 -0.21583 0
M  V30 15 N -3.77615 -1.51946 -0.0785663 0
M  V30 16 N -4.87343 -0.929899 0.385283 0
M  V30 17 C -4.59238 0.274932 0.864791 0
M  V30 18 H 4.16872 -2.10679 -2.36582 0
M  V30 19 H 3.00159 -3.10324 -1.45367 0
M  V30 20 H 4.78653 2.41764 -0.3211 0
M  V30 21 H 3.58078 2.89071 0.90731 0
M  V30 22 H 0.917792 -1.84288 -1.0925 0
M  V30 23 H -0.312781 2.12386 0.886317 0
M  V30 24 H -2.71915 2.39412 1.45226 0
M  V30 25 H -1.03061 -1.73178 -0.681921 0
M  V30 26 H -3.7024 -2.4702 -0.511795 0
M  V30 27 H -5.219 1.03289 1.31558 0
M  V30 END ATOM
M  V30 BEGIN BOND
M  V30 1 1 1 2
M  V30 2 2 2 3
M  V30 3 1 3 4
M  V30 4 1 4 5
M  V30 5 2 4 6
M  V30 6 1 6 7
M  V30 7 2 7 8
M  V30 8 1 7 9
M  V30 9 2 9 10
M  V30 10 1 10 11
M  V30 11 2 11 12
M  V30 12 1 12 13
M  V30 13 2 13 14
M  V30 14 1 13 15
M  V30 15 1 15 16
M  V30 16 2 16 17
M  V30 17 1 8 2
M  V30 18 1 14 9
M  V30 19 1 17 12
M  V30 20 1 1 18
M  V30 21 1 1 19
M  V30 22 1 5 20
M  V30 23 1 5 21
M  V30 24 1 8 22
M  V30 25 1 10 23
M  V30 26 1 11 24
M  V30 27 1 14 25
M  V30 28 1 15 26
M  V30 29 1 17 27
M  V30 END BOND
M  V30 END CTAB
M  END
