
     RDKit          3D

  0  0  0  0  0  0  0  0  0  0999 V3000
M  V30 BEGIN CTAB
M  V30 COUNTS 39 40 0 0 0
M  V30 BEGIN ATOM
M  V30 1 N 4.23792 -2.99147 -0.00919045 0
M  V30 2 C 4.2756 -1.58304 0.00614669 0
M  V30 3 C 5.13736 -0.897803 -0.819532 0
M  V30 4 C 5.12315 0.47905 -0.753396 0
M  V30 5 N 5.99228 1.23416 -1.58345 0
M  V30 6 N 4.28655 1.13045 0.0980428 0
M  V30 7 C 3.43751 0.443152 0.911003 0
M  V30 8 N 3.47401 -0.891153 0.824511 0
M  V30 9 S 2.34977 1.23789 2.04387 0
M  V30 10 C 0.723079 1.65827 1.28113 0
M  V30 11 C -0.0391058 0.438723 0.993585 0
M  V30 12 O 0.563534 -0.699098 1.1799 0
M  V30 13 C -1.38066 0.334779 0.537373 0
M  V30 14 C -2.04311 -0.911235 0.737641 0
M  V30 15 C -3.35092 -1.0488 0.360481 0
M  V30 16 C -4.04812 -2.35463 0.56951 0
M  V30 17 C -4.07437 -0.0270831 -0.213079 0
M  V30 18 C -3.45639 1.18318 -0.416461 0
M  V30 19 C -2.10507 1.34 -0.0325389 0
M  V30 20 C -1.52172 2.66897 -0.329928 0
M  V30 21 C -5.49796 -0.269688 -0.591571 0
M  V30 22 H 4.00428 -3.53119 -0.851771 0
M  V30 23 H 4.4578 -3.4946 0.875079 0
M  V30 24 H 5.79016 -1.45615 -1.48588 0
M  V30 25 H 6.05707 2.26182 -1.51268 0
M  V30 26 H 6.5887 0.75557 -2.28937 0
M  V30 27 H 0.91695 2.29149 0.407228 0
M  V30 28 H 0.219944 2.26552 2.05268 0
M  V30 29 H -1.48667 -1.7104 1.18581 0
M  V30 30 H -4.50911 -2.63643 -0.414247 0
M  V30 31 H -4.91807 -2.20098 1.25737 0
M  V30 32 H -3.36163 -3.1365 0.901406 0
M  V30 33 H -3.99567 2.00261 -0.862478 0
M  V30 34 H -1.22018 3.24826 0.539404 0
M  V30 35 H -0.690115 2.61906 -1.07457 0
M  V30 36 H -2.29271 3.28846 -0.915948 0
M  V30 37 H -6.09394 -0.624807 0.276348 0
M  V30 38 H -5.97752 0.665656 -0.931973 0
M  V30 39 H -5.5726 -1.08199 -1.36265 0
M  V30 END ATOM
M  V30 BEGIN BOND
M  V30 1 1 1 2
M  V30 2 2 2 3
M  V30 3 1 3 4
M  V30 4 1 4 5
M  V30 5 2 4 6
M  V30 6 1 6 7
M  V30 7 2 7 8
M  V30 8 1 7 9
M  V30 9 1 9 10
M  V30 10 1 10 11
M  V30 11 2 11 12
M  V30 12 1 11 13
M  V30 13 2 13 14
M  V30 14 1 14 15
M  V30 15 1 15 16
M  V30 16 2 15 17
M  V30 17 1 17 18
M  V30 18 2 18 19
M  V30 19 1 19 20
M  V30 20 1 17 21
M  V30 21 1 8 2
M  V30 22 1 19 13
M  V30 23 1 1 22
M  V30 24 1 1 23
M  V30 25 1 3 24
M  V30 26 1 5 25
M  V30 27 1 5 26
M  V30 28 1 10 27
M  V30 29 1 10 28
M  V30 30 1 14 29
M  V30 31 1 16 30
M  V30 32 1 16 31
M  V30 33 1 16 32
M  V30 34 1 18 33
M  V30 35 1 20 34
M  V30 36 1 20 35
M  V30 37 1 20 36
M  V30 38 1 21 37
M  V30 39 1 21 38
M  V30 40 1 21 39
M  V30 END BOND
M  V30 END CTAB
M  END
