
     RDKit          3D

  0  0  0  0  0  0  0  0  0  0999 V3000
M  V30 BEGIN CTAB
M  V30 COUNTS 34 35 0 0 0
M  V30 BEGIN ATOM
M  V30 1 N 3.4449 1.99338 0.325279 0
M  V30 2 C 2.57231 1.3184 -0.647226 0
M  V30 3 C 1.38916 0.799021 0.0782106 0
M  V30 4 N 0.419549 0.0884045 -0.760937 0
M  V30 5 C 1.03298 -1.12888 -1.27673 0
M  V30 6 C 1.3327 -2.07848 -0.16409 0
M  V30 7 C 0.136147 -2.51563 0.609716 0
M  V30 8 C -1.05694 -1.70803 0.208026 0
M  V30 9 C -0.701155 -0.272851 0.0289133 0 CFG=2
M  V30 10 C -1.84655 0.64089 0.130037 0
M  V30 11 C -2.29154 1.39961 1.18889 0
M  V30 12 N -3.28275 2.23505 0.811564 0
M  V30 13 N -3.48244 2.00717 -0.476699 0
M  V30 14 C -2.6602 1.07455 -0.938032 0
M  V30 15 N -2.65609 0.546624 -2.24759 0
M  V30 16 H 3.29535 1.60285 1.27279 0
M  V30 17 H 4.45313 1.77585 0.0724975 0
M  V30 18 H 3.19508 0.440189 -0.999822 0
M  V30 19 H 2.32507 2.03526 -1.41963 0
M  V30 20 H 0.79079 1.67991 0.476418 0
M  V30 21 H 1.68429 0.250479 0.979853 0
M  V30 22 H 1.97552 -0.93273 -1.84798 0
M  V30 23 H 0.349397 -1.55646 -2.04362 0
M  V30 24 H 2.05608 -1.61896 0.516093 0
M  V30 25 H 1.85142 -3.00766 -0.57198 0
M  V30 26 H -0.0923242 -3.61073 0.399233 0
M  V30 27 H 0.304146 -2.40987 1.70919 0
M  V30 28 H -1.9006 -1.76819 0.920378 0
M  V30 29 H -1.47922 -2.15224 -0.75529 0
M  V30 30 H -0.221265 -0.107929 1.13665 0
M  V30 31 H -1.87043 1.37828 2.1969 0
M  V30 32 H -3.76762 2.93421 1.41364 0
M  V30 33 H -2.88425 -0.460776 -2.40319 0
M  V30 34 H -2.41465 1.12928 -3.04366 0
M  V30 END ATOM
M  V30 BEGIN BOND
M  V30 1 1 1 2
M  V30 2 1 2 3
M  V30 3 1 3 4
M  V30 4 1 4 5
M  V30 5 1 5 6
M  V30 6 1 6 7
M  V30 7 1 7 8
M  V30 8 1 8 9
M  V30 9 1 9 10
M  V30 10 2 10 11
M  V30 11 1 11 12
M  V30 12 1 12 13
M  V30 13 2 13 14
M  V30 14 1 14 15
M  V30 15 1 9 4
M  V30 16 1 14 10
M  V30 17 1 1 16
M  V30 18 1 1 17
M  V30 19 1 2 18
M  V30 20 1 2 19
M  V30 21 1 3 20
M  V30 22 1 3 21
M  V30 23 1 5 22
M  V30 24 1 5 23
M  V30 25 1 6 24
M  V30 26 1 6 25
M  V30 27 1 7 26
M  V30 28 1 7 27
M  V30 29 1 8 28
M  V30 30 1 8 29
M  V30 31 1 9 30 CFG=1
M  V30 32 1 11 31
M  V30 33 1 12 32
M  V30 34 1 15 33
M  V30 35 1 15 34
M  V30 END BOND
M  V30 END CTAB
M  END
