
     RDKit          3D

  0  0  0  0  0  0  0  0  0  0999 V3000
M  V30 BEGIN CTAB
M  V30 COUNTS 22 22 0 0 0
M  V30 BEGIN ATOM
M  V30 1 O 1.17449 -1.28781 1.60173 0
M  V30 2 C 0.708359 -0.904224 0.54936 0
M  V30 3 C -0.6646 -0.495603 0.35765 0
M  V30 4 C -1.07367 -0.0695238 -0.926455 0
M  V30 5 C -2.34845 0.336073 -1.20998 0
M  V30 6 Cl -2.80854 0.857372 -2.82381 0
M  V30 7 C -3.32676 0.353665 -0.24352 0
M  V30 8 C -2.97004 -0.0504646 1.00759 0
M  V30 9 C -1.65133 -0.473452 1.31467 0
M  V30 10 O -1.38822 -0.862238 2.60319 0
M  V30 11 N 1.60047 -0.860465 -0.573135 0
M  V30 12 C 2.53821 0.0417973 -0.587352 0
M  V30 13 N 2.68979 0.980971 0.490347 0
M  V30 14 N 3.43391 0.11207 -1.67857 0
M  V30 15 H -0.310617 -0.0787853 -1.69827 0
M  V30 16 H -4.33571 0.677338 -0.478642 0
M  V30 17 H -3.67455 -0.0681717 1.82604 0
M  V30 18 H -0.548179 -1.1693 2.95041 0
M  V30 19 H 2.29109 1.93537 0.306209 0
M  V30 20 H 3.1559 0.731551 1.37612 0
M  V30 21 H 3.25968 0.812787 -2.42038 0
M  V30 22 H 4.24877 -0.518966 -1.74321 0
M  V30 END ATOM
M  V30 BEGIN BOND
M  V30 1 2 1 2
M  V30 2 1 2 3
M  V30 3 2 3 4
M  V30 4 1 4 5
M  V30 5 1 5 6
M  V30 6 2 5 7
M  V30 7 1 7 8
M  V30 8 2 8 9
M  V30 9 1 9 10
M  V30 10 1 2 11
M  V30 11 2 11 12 CFG=2
M  V30 12 1 12 13
M  V30 13 1 12 14
M  V30 14 1 9 3
M  V30 15 1 4 15
M  V30 16 1 7 16
M  V30 17 1 8 17
M  V30 18 1 10 18
M  V30 19 1 13 19
M  V30 20 1 13 20
M  V30 21 1 14 21
M  V30 22 1 14 22
M  V30 END BOND
M  V30 END CTAB
M  END
