
     RDKit          3D

  0  0  0  0  0  0  0  0  0  0999 V3000
M  V30 BEGIN CTAB
M  V30 COUNTS 27 27 0 0 0
M  V30 BEGIN ATOM
M  V30 1 N -3.95242 -1.23225 -0.685146 0
M  V30 2 C -2.61031 -1.27292 -0.12546 0
M  V30 3 N -2.20404 -2.35563 0.353197 0
M  V30 4 C -1.82336 -0.0569152 -0.128183 0
M  V30 5 N -0.688072 0.00337975 0.375572 0
M  V30 6 N 0.258848 -0.650121 1.0052 0
M  V30 7 C 1.64593 -0.321147 0.678228 0
M  V30 8 C 2.32568 0.406724 1.61466 0
M  V30 9 C 3.63109 0.739999 1.3304 0
M  V30 10 C 4.23146 0.358904 0.154054 0
M  V30 11 C 3.52803 -0.375943 -0.778448 0
M  V30 12 C 2.21021 -0.716154 -0.498596 0
M  V30 13 C -2.35451 1.17384 -0.76421 0
M  V30 14 N -1.45525 2.32505 -0.708164 0
M  V30 15 N -3.41137 1.32219 -1.31762 0
M  V30 16 H -4.70159 -0.974006 -0.00545714 0
M  V30 17 H -4.0474 -1.45708 -1.67798 0
M  V30 18 H -1.35323 -2.5999 0.770267 0
M  V30 19 H 0.215612 -1.39717 1.75909 0
M  V30 20 H 1.89813 0.727923 2.55541 0
M  V30 21 H 4.24397 1.32072 2.02896 0
M  V30 22 H 5.26562 0.622336 -0.0751893 0
M  V30 23 H 4.02651 -0.669046 -1.7111 0
M  V30 24 H 1.65428 -1.29151 -1.23466 0
M  V30 25 H -1.15129 2.81604 -1.55 0
M  V30 26 H -1.13432 2.6272 0.232409 0
M  V30 27 H -4.24821 0.92549 -1.59725 0
M  V30 END ATOM
M  V30 BEGIN BOND
M  V30 1 1 1 2
M  V30 2 2 2 3 CFG=2
M  V30 3 1 2 4
M  V30 4 2 4 5
M  V30 5 1 5 6
M  V30 6 1 6 7
M  V30 7 2 7 8
M  V30 8 1 8 9
M  V30 9 2 9 10
M  V30 10 1 10 11
M  V30 11 2 11 12
M  V30 12 1 4 13
M  V30 13 1 13 14
M  V30 14 2 13 15
M  V30 15 1 12 7
M  V30 16 1 1 16
M  V30 17 1 1 17
M  V30 18 1 3 18
M  V30 19 1 6 19
M  V30 20 1 8 20
M  V30 21 1 9 21
M  V30 22 1 10 22
M  V30 23 1 11 23
M  V30 24 1 12 24
M  V30 25 1 14 25
M  V30 26 1 14 26
M  V30 27 1 15 27
M  V30 END BOND
M  V30 END CTAB
M  END
