
     RDKit          3D

  0  0  0  0  0  0  0  0  0  0999 V3000
M  V30 BEGIN CTAB
M  V30 COUNTS 29 29 0 0 0
M  V30 BEGIN ATOM
M  V30 1 O -3.08241 1.41558 -1.12763 0
M  V30 2 C -3.50079 0.104682 -1.17841 0
M  V30 3 C -2.89742 -0.763943 -0.140851 0
M  V30 4 C -1.40775 -0.903763 -0.150606 0
M  V30 5 N -0.704137 0.334293 0.0540518 0
M  V30 6 C 0.738798 0.387777 -0.0281068 0
M  V30 7 C 1.40862 1.57102 0.168881 0
M  V30 8 C 2.79383 1.60655 0.0860815 0
M  V30 9 N 3.50683 2.82617 0.287647 0
M  V30 10 N 3.47208 0.491837 -0.184578 0
M  V30 11 C 2.81722 -0.68669 -0.381578 0
M  V30 12 N 1.47528 -0.698194 -0.296711 0
M  V30 13 N 3.58292 -1.8369 -0.665143 0
M  V30 14 C -1.08077 -1.77081 1.08006 0
M  V30 15 H -3.5775 1.87628 -0.402231 0
M  V30 16 H -4.61156 0.135282 -0.954923 0
M  V30 17 H -3.36304 -0.275555 -2.2158 0
M  V30 18 H -3.15056 -0.376732 0.894821 0
M  V30 19 H -3.306 -1.82101 -0.175681 0
M  V30 20 H -1.03585 -1.41791 -1.07163 0
M  V30 21 H -1.20647 1.21125 0.277207 0
M  V30 22 H 0.882767 2.48702 0.389256 0
M  V30 23 H 3.12909 3.61448 0.818692 0
M  V30 24 H 4.46529 2.92844 -0.124918 0
M  V30 25 H 4.51023 -1.73601 -1.12348 0
M  V30 26 H 3.2273 -2.79791 -0.418405 0
M  V30 27 H -1.89792 -2.50997 1.19119 0
M  V30 28 H -1.06494 -1.08028 1.94937 0
M  V30 29 H -0.123118 -2.31499 0.940313 0
M  V30 END ATOM
M  V30 BEGIN BOND
M  V30 1 1 1 2
M  V30 2 1 2 3
M  V30 3 1 3 4
M  V30 4 1 4 5
M  V30 5 1 5 6
M  V30 6 2 6 7
M  V30 7 1 7 8
M  V30 8 1 8 9
M  V30 9 2 8 10
M  V30 10 1 10 11
M  V30 11 2 11 12
M  V30 12 1 11 13
M  V30 13 1 4 14
M  V30 14 1 12 6
M  V30 15 1 1 15
M  V30 16 1 2 16
M  V30 17 1 2 17
M  V30 18 1 3 18
M  V30 19 1 3 19
M  V30 20 1 4 20
M  V30 21 1 5 21
M  V30 22 1 7 22
M  V30 23 1 9 23
M  V30 24 1 9 24
M  V30 25 1 13 25
M  V30 26 1 13 26
M  V30 27 1 14 27
M  V30 28 1 14 28
M  V30 29 1 14 29
M  V30 END BOND
M  V30 END CTAB
M  END
