
     RDKit          3D

  0  0  0  0  0  0  0  0  0  0999 V3000
M  V30 BEGIN CTAB
M  V30 COUNTS 74 77 0 0 0
M  V30 BEGIN ATOM
M  V30 1 C -10.3662 0.812871 3.04102 0
M  V30 2 C -9.17843 1.0301 2.19769 0
M  V30 3 N -8.50586 -0.0333643 1.7167 0
M  V30 4 C -7.41465 0.0832788 0.943715 0
M  V30 5 C -6.74492 -1.01766 0.467201 0
M  V30 6 C -5.5984 -0.893249 -0.34314 0
M  V30 7 C -5.10817 0.333439 -0.687387 0
M  V30 8 N -3.98565 0.58212 -1.50626 0
M  V30 9 C -3.49614 -0.341191 -2.4479 0
M  V30 10 O -4.04512 -1.43642 -2.61806 0
M  V30 11 C -2.29169 -0.0356414 -3.28059 0
M  V30 12 C -1.85053 -1.19919 -4.05746 0
M  V30 13 C -1.46512 -2.44453 -3.42555 0
M  V30 14 C -0.329791 -2.47215 -2.48779 0
M  V30 15 C -0.483935 -1.69641 -1.23809 0
M  V30 16 C 0.835721 -1.98066 -0.433398 0
M  V30 17 C 0.710827 -1.20925 0.829608 0
M  V30 18 C 1.82243 -1.31039 1.79798 0
M  V30 19 C 3.15025 -0.844092 1.28054 0
M  V30 20 O 3.27528 -0.394038 0.129318 0
M  V30 21 N 4.23935 -0.940573 2.15635 0
M  V30 22 C 5.578 -0.566256 1.90869 0
M  V30 23 C 6.5869 -1.0015 2.79736 0
M  V30 24 C 7.89852 -0.648936 2.60514 0
M  V30 25 C 8.26221 0.141042 1.53608 0
M  V30 26 N 9.53656 0.509142 1.30852 0
M  V30 27 C 9.87363 1.28602 0.249322 0
M  V30 28 C 11.2981 1.67126 0.0314098 0
M  V30 29 C 8.92993 1.73171 -0.638121 0
M  V30 30 C 7.6105 1.37369 -0.436663 0
M  V30 31 N 6.60468 1.81739 -1.33646 0
M  V30 32 C 7.29891 0.570735 0.666844 0
M  V30 33 C 5.97294 0.209459 0.869123 0
M  V30 34 C -5.82783 1.4337 -0.174927 0
M  V30 35 C -6.93441 1.3372 0.607784 0
M  V30 36 C -7.62067 2.43744 1.09809 0
M  V30 37 N -7.15091 3.71837 0.768327 0
M  V30 38 C -8.7364 2.30166 1.88895 0
M  V30 39 H -10.3301 1.38968 3.98981 0
M  V30 40 H -11.3098 1.06948 2.52777 0
M  V30 41 H -10.4405 -0.257455 3.32684 0
M  V30 42 H -7.10477 -2.00419 0.718992 0
M  V30 43 H -5.10494 -1.79103 -0.669792 0
M  V30 44 H -3.46565 1.51659 -1.41986 0
M  V30 45 H -1.56265 0.559948 -2.73834 0
M  V30 46 H -2.69374 0.773963 -4.0394 0
M  V30 47 H -2.63117 -1.4591 -4.86492 0
M  V30 48 H -1.0072 -0.818788 -4.76463 0
M  V30 49 H -2.36202 -2.96596 -2.93782 0
M  V30 50 H -1.2537 -3.2498 -4.2649 0
M  V30 51 H 0.639793 -2.13231 -3.00067 0
M  V30 52 H -0.113578 -3.57455 -2.26056 0
M  V30 53 H -1.28733 -2.07901 -0.568771 0
M  V30 54 H -0.591236 -0.632481 -1.31579 0
M  V30 55 H 1.61233 -1.62344 -1.13215 0
M  V30 56 H 0.820765 -3.07808 -0.295334 0
M  V30 57 H -0.216028 -1.57809 1.36047 0
M  V30 58 H 0.484877 -0.15295 0.564092 0
M  V30 59 H 1.58755 -0.594867 2.64035 0
M  V30 60 H 1.90282 -2.29461 2.27641 0
M  V30 61 H 4.03636 -1.34951 3.14916 0
M  V30 62 H 6.29767 -1.61514 3.62525 0
M  V30 63 H 8.63589 -1.00235 3.30722 0
M  V30 64 H 11.5782 2.34639 0.85005 0
M  V30 65 H 11.4358 2.09464 -0.96539 0
M  V30 66 H 11.9227 0.73198 0.082797 0
M  V30 67 H 9.15466 2.3523 -1.49501 0
M  V30 68 H 5.87452 2.47615 -1.00658 0
M  V30 69 H 6.57137 1.50347 -2.325 0
M  V30 70 H 5.27299 0.602754 0.141064 0
M  V30 71 H -5.44674 2.41021 -0.442332 0
M  V30 72 H -6.92381 3.95023 -0.209602 0
M  V30 73 H -7.03267 4.42958 1.50471 0
M  V30 74 H -9.30048 3.13123 2.29247 0
M  V30 END ATOM
M  V30 BEGIN BOND
M  V30 1 1 1 2
M  V30 2 2 2 3
M  V30 3 1 3 4
M  V30 4 2 4 5
M  V30 5 1 5 6
M  V30 6 2 6 7
M  V30 7 1 7 8
M  V30 8 1 8 9
M  V30 9 2 9 10
M  V30 10 1 9 11
M  V30 11 1 11 12
M  V30 12 1 12 13
M  V30 13 1 13 14
M  V30 14 1 14 15
M  V30 15 1 15 16
M  V30 16 1 16 17
M  V30 17 1 17 18
M  V30 18 1 18 19
M  V30 19 2 19 20
M  V30 20 1 19 21
M  V30 21 1 21 22
M  V30 22 2 22 23
M  V30 23 1 23 24
M  V30 24 2 24 25
M  V30 25 1 25 26
M  V30 26 2 26 27
M  V30 27 1 27 28
M  V30 28 1 27 29
M  V30 29 2 29 30
M  V30 30 1 30 31
M  V30 31 1 30 32
M  V30 32 2 32 33
M  V30 33 1 7 34
M  V30 34 2 34 35
M  V30 35 1 35 36
M  V30 36 1 36 37
M  V30 37 2 36 38
M  V30 38 1 38 2
M  V30 39 1 35 4
M  V30 40 1 33 22
M  V30 41 1 32 25
M  V30 42 1 1 39
M  V30 43 1 1 40
M  V30 44 1 1 41
M  V30 45 1 5 42
M  V30 46 1 6 43
M  V30 47 1 8 44
M  V30 48 1 11 45
M  V30 49 1 11 46
M  V30 50 1 12 47
M  V30 51 1 12 48
M  V30 52 1 13 49
M  V30 53 1 13 50
M  V30 54 1 14 51
M  V30 55 1 14 52
M  V30 56 1 15 53
M  V30 57 1 15 54
M  V30 58 1 16 55
M  V30 59 1 16 56
M  V30 60 1 17 57
M  V30 61 1 17 58
M  V30 62 1 18 59
M  V30 63 1 18 60
M  V30 64 1 21 61
M  V30 65 1 23 62
M  V30 66 1 24 63
M  V30 67 1 28 64
M  V30 68 1 28 65
M  V30 69 1 28 66
M  V30 70 1 29 67
M  V30 71 1 31 68
M  V30 72 1 31 69
M  V30 73 1 33 70
M  V30 74 1 34 71
M  V30 75 1 37 72
M  V30 76 1 37 73
M  V30 77 1 38 74
M  V30 END BOND
M  V30 END CTAB
M  END
