
     RDKit          3D

  0  0  0  0  0  0  0  0  0  0999 V3000
M  V30 BEGIN CTAB
M  V30 COUNTS 41 44 0 0 0
M  V30 BEGIN ATOM
M  V30 1 N 3.66543 -4.48647 0.260655 0
M  V30 2 C 3.29914 -3.38117 0.170068 0
M  V30 3 C 2.84663 -2.01523 0.0824421 0
M  V30 4 C 3.72114 -1.10193 -0.432406 0
M  V30 5 N 5.02463 -1.42012 -0.876579 0
M  V30 6 N 3.31445 0.160203 -0.517633 0
M  V30 7 C 2.08436 0.58511 -0.122254 0
M  V30 8 C 1.18869 -0.319842 0.399747 0
M  V30 9 C 1.57755 -1.64811 0.503991 0
M  V30 10 N 0.779803 -2.69999 1.00445 0
M  V30 11 C -0.166021 0.0935669 0.848225 0
M  V30 12 C -0.388822 1.52268 0.65637 0
M  V30 13 C 0.527529 2.32503 0.144897 0
M  V30 14 O 1.77758 1.93823 -0.265084 0
M  V30 15 C 0.110937 3.78048 0.0248464 0
M  V30 16 C -1.15536 3.77646 -0.821518 0
M  V30 17 C -2.25328 3.18809 0.0563703 0
M  V30 18 C -1.64984 2.19647 1.01267 0
M  V30 19 O -2.2071 1.9652 2.0641 0
M  V30 20 C -1.22442 -0.745695 0.250312 0
M  V30 21 C -1.34442 -0.861647 -1.14566 0
M  V30 22 C -2.3228 -1.62786 -1.74018 0
M  V30 23 C -3.22494 -2.31235 -0.962679 0
M  V30 24 C -3.12891 -2.21557 0.406131 0
M  V30 25 C -2.13619 -1.43869 0.987654 0
M  V30 26 Cl -2.12098 -1.41315 2.74403 0
M  V30 27 H 5.31929 -1.12815 -1.82029 0
M  V30 28 H 5.66967 -1.93744 -0.262442 0
M  V30 29 H 0.648425 -2.82668 2.03019 0
M  V30 30 H 0.290757 -3.3906 0.382037 0
M  V30 31 H -0.170905 -0.0892527 1.96404 0
M  V30 32 H 0.908017 4.39299 -0.394771 0
M  V30 33 H -0.186272 4.17528 1.02589 0
M  V30 34 H -1.40574 4.82952 -1.06583 0
M  V30 35 H -1.02449 3.14154 -1.7247 0
M  V30 36 H -3.00427 2.71446 -0.607203 0
M  V30 37 H -2.75792 3.98089 0.633741 0
M  V30 38 H -0.64382 -0.330138 -1.75192 0
M  V30 39 H -2.41068 -1.7135 -2.81526 0
M  V30 40 H -4.00998 -2.92606 -1.38028 0
M  V30 41 H -3.81687 -2.73655 1.05385 0
M  V30 END ATOM
M  V30 BEGIN BOND
M  V30 1 3 1 2
M  V30 2 1 2 3
M  V30 3 2 3 4
M  V30 4 1 4 5
M  V30 5 1 4 6
M  V30 6 2 6 7
M  V30 7 1 7 8
M  V30 8 2 8 9
M  V30 9 1 9 10
M  V30 10 1 8 11
M  V30 11 1 11 12
M  V30 12 2 12 13
M  V30 13 1 13 14
M  V30 14 1 13 15
M  V30 15 1 15 16
M  V30 16 1 16 17
M  V30 17 1 17 18
M  V30 18 2 18 19
M  V30 19 1 11 20
M  V30 20 2 20 21
M  V30 21 1 21 22
M  V30 22 2 22 23
M  V30 23 1 23 24
M  V30 24 2 24 25
M  V30 25 1 25 26
M  V30 26 1 9 3
M  V30 27 1 18 12
M  V30 28 1 25 20
M  V30 29 1 14 7
M  V30 30 1 5 27
M  V30 31 1 5 28
M  V30 32 1 10 29
M  V30 33 1 10 30
M  V30 34 1 11 31
M  V30 35 1 15 32
M  V30 36 1 15 33
M  V30 37 1 16 34
M  V30 38 1 16 35
M  V30 39 1 17 36
M  V30 40 1 17 37
M  V30 41 1 21 38
M  V30 42 1 22 39
M  V30 43 1 23 40
M  V30 44 1 24 41
M  V30 END BOND
M  V30 END CTAB
M  END
