
     RDKit          3D

  0  0  0  0  0  0  0  0  0  0999 V3000
M  V30 BEGIN CTAB
M  V30 COUNTS 38 39 0 0 0
M  V30 BEGIN ATOM
M  V30 1 O -0.832623 1.63421 -1.31709 0
M  V30 2 C -0.711181 0.917515 -0.310461 0
M  V30 3 C 0.625585 0.957075 0.357925 0
M  V30 4 C 1.2206 -0.43408 0.343769 0
M  V30 5 C 2.6108 -0.346723 -0.238143 0
M  V30 6 N 3.36428 0.583257 0.543315 0
M  V30 7 C 2.85522 1.91513 0.484879 0
M  V30 8 C 1.53539 1.9706 -0.268895 0
M  V30 9 S 5.03575 0.449166 0.225219 0
M  V30 10 O 5.76089 1.54312 0.96042 0
M  V30 11 O 5.23415 0.635226 -1.27061 0
M  V30 12 N 5.61163 -1.10682 0.631525 0
M  V30 13 N -1.76303 0.120683 0.16916 0
M  V30 14 C -3.0567 -0.0425067 -0.31339 0
M  V30 15 C -3.57131 0.59464 -1.42701 0
M  V30 16 C -4.89144 0.374262 -1.84847 0
M  V30 17 C -5.70544 -0.487976 -1.15468 0
M  V30 18 C -5.21973 -1.13757 -0.0402822 0
M  V30 19 C -3.9219 -0.913559 0.364401 0
M  V30 20 N -3.43054 -1.58221 1.50689 0
M  V30 21 H 0.471719 1.28073 1.42294 0
M  V30 22 H 0.642618 -1.11348 -0.347179 0
M  V30 23 H 1.25956 -0.833748 1.36459 0
M  V30 24 H 2.49594 -0.0467254 -1.30135 0
M  V30 25 H 3.08766 -1.33591 -0.234065 0
M  V30 26 H 2.59806 2.21321 1.54361 0
M  V30 27 H 3.57425 2.67444 0.138933 0
M  V30 28 H 1.67158 1.82229 -1.35745 0
M  V30 29 H 1.11222 2.98215 -0.108304 0
M  V30 30 H 4.81507 -1.70549 0.880076 0
M  V30 31 H 6.395 -1.1144 1.30624 0
M  V30 32 H -1.50048 -0.441679 1.04892 0
M  V30 33 H -2.98223 1.27582 -2.00417 0
M  V30 34 H -5.29277 0.870227 -2.71572 0
M  V30 35 H -6.71592 -0.64859 -1.48787 0
M  V30 36 H -5.86689 -1.82496 0.513769 0
M  V30 37 H -2.97968 -2.50335 1.51035 0
M  V30 38 H -3.53609 -1.09509 2.42822 0
M  V30 END ATOM
M  V30 BEGIN BOND
M  V30 1 2 1 2
M  V30 2 1 2 3
M  V30 3 1 3 4
M  V30 4 1 4 5
M  V30 5 1 5 6
M  V30 6 1 6 7
M  V30 7 1 7 8
M  V30 8 1 6 9
M  V30 9 2 9 10
M  V30 10 2 9 11
M  V30 11 1 9 12
M  V30 12 1 2 13
M  V30 13 1 13 14
M  V30 14 2 14 15
M  V30 15 1 15 16
M  V30 16 2 16 17
M  V30 17 1 17 18
M  V30 18 2 18 19
M  V30 19 1 19 20
M  V30 20 1 8 3
M  V30 21 1 19 14
M  V30 22 1 3 21
M  V30 23 1 4 22
M  V30 24 1 4 23
M  V30 25 1 5 24
M  V30 26 1 5 25
M  V30 27 1 7 26
M  V30 28 1 7 27
M  V30 29 1 8 28
M  V30 30 1 8 29
M  V30 31 1 12 30
M  V30 32 1 12 31
M  V30 33 1 13 32
M  V30 34 1 15 33
M  V30 35 1 16 34
M  V30 36 1 17 35
M  V30 37 1 18 36
M  V30 38 1 20 37
M  V30 39 1 20 38
M  V30 END BOND
M  V30 END CTAB
M  END
