
     RDKit          3D

  0  0  0  0  0  0  0  0  0  0999 V3000
M  V30 BEGIN CTAB
M  V30 COUNTS 29 30 0 0 0
M  V30 BEGIN ATOM
M  V30 1 N 4.61212 0.877473 1.85415 0
M  V30 2 C 3.66946 0.405127 0.882908 0
M  V30 3 C 2.31686 0.527395 1.13272 0
M  V30 4 C 1.36268 0.0854125 0.223854 0
M  V30 5 O 0.0103772 0.220462 0.49992 0
M  V30 6 C -0.895556 -0.253379 -0.474336 0
M  V30 7 C -2.30377 -0.065726 -0.0903475 0
M  V30 8 C -3.02905 -1.00827 0.61341 0
M  V30 9 C -4.35436 -0.792817 0.955862 0
M  V30 10 C -4.99929 0.375964 0.604459 0
M  V30 11 F -6.30152 0.596988 0.936415 0
M  V30 12 C -4.28201 1.32747 -0.10096 0
M  V30 13 C -2.96117 1.10038 -0.436237 0
M  V30 14 C 1.84235 -0.479401 -0.935903 0
M  V30 15 C 3.19059 -0.589656 -1.16104 0
M  V30 16 N 3.59372 -1.18942 -2.39269 0
M  V30 17 N 4.0726 -0.148152 -0.253229 0
M  V30 18 H 4.33851 1.52264 2.62103 0
M  V30 19 H 5.60109 0.571414 1.7984 0
M  V30 20 H 1.99008 0.986421 2.07533 0
M  V30 21 H -0.727407 0.339669 -1.40428 0
M  V30 22 H -0.632448 -1.30917 -0.684292 0
M  V30 23 H -2.52973 -1.91679 0.887236 0
M  V30 24 H -4.91183 -1.54631 1.51092 0
M  V30 25 H -4.80828 2.23773 -0.366541 0
M  V30 26 H -2.4154 1.86478 -0.992655 0
M  V30 27 H 1.10156 -0.83346 -1.66394 0
M  V30 28 H 3.45508 -2.23046 -2.45106 0
M  V30 29 H 3.99473 -0.676315 -3.18911 0
M  V30 END ATOM
M  V30 BEGIN BOND
M  V30 1 1 1 2
M  V30 2 2 2 3
M  V30 3 1 3 4
M  V30 4 1 4 5
M  V30 5 1 5 6
M  V30 6 1 6 7
M  V30 7 2 7 8
M  V30 8 1 8 9
M  V30 9 2 9 10
M  V30 10 1 10 11
M  V30 11 1 10 12
M  V30 12 2 12 13
M  V30 13 2 4 14
M  V30 14 1 14 15
M  V30 15 1 15 16
M  V30 16 2 15 17
M  V30 17 1 17 2
M  V30 18 1 13 7
M  V30 19 1 1 18
M  V30 20 1 1 19
M  V30 21 1 3 20
M  V30 22 1 6 21
M  V30 23 1 6 22
M  V30 24 1 8 23
M  V30 25 1 9 24
M  V30 26 1 12 25
M  V30 27 1 13 26
M  V30 28 1 14 27
M  V30 29 1 16 28
M  V30 30 1 16 29
M  V30 END BOND
M  V30 END CTAB
M  END
