
     RDKit          3D

  0  0  0  0  0  0  0  0  0  0999 V3000
M  V30 BEGIN CTAB
M  V30 COUNTS 55 57 0 0 0
M  V30 BEGIN ATOM
M  V30 1 N 5.86315 -2.05262 -0.743556 0
M  V30 2 C 5.76936 -1.52597 0.598947 0
M  V30 3 C 5.11107 -0.180597 0.612844 0
M  V30 4 C 3.68869 -0.252305 0.0478794 0
M  V30 5 C 3.10714 1.16088 0.0981463 0 CFG=2
M  V30 6 C 1.74021 1.24945 -0.414594 0
M  V30 7 O 1.59386 1.82961 -1.5553 0
M  V30 8 N 0.588418 0.75057 0.24935 0
M  V30 9 C 0.724942 0.117148 1.50826 0
M  V30 10 C -0.394887 0.370212 2.46931 0
M  V30 11 C -1.71491 0.633418 1.87815 0
M  V30 12 C -1.84801 0.416604 0.402598 0
M  V30 13 C -0.688785 0.922371 -0.393823 0
M  V30 14 C -2.06571 -1.01304 0.0281876 0
M  V30 15 C -2.28181 -1.25718 -1.33768 0
M  V30 16 C -2.49641 -2.52897 -1.81068 0
M  V30 17 C -2.4952 -3.56632 -0.910807 0
M  V30 18 C -2.28422 -3.32821 0.422737 0
M  V30 19 C -2.06833 -2.06029 0.907927 0
M  V30 20 C -3.10339 1.08648 -0.0178517 0
M  V30 21 C -4.23064 0.856026 0.732517 0
M  V30 22 C -5.45535 1.43869 0.415056 0
M  V30 23 C -5.55977 2.25938 -0.660777 0
M  V30 24 C -4.44527 2.50322 -1.42516 0
M  V30 25 C -3.21536 1.9159 -1.10332 0
M  V30 26 N 3.97722 1.98568 -0.763405 0
M  V30 27 H 6.50735 -1.51615 -1.31632 0
M  V30 28 H 4.98238 -2.31407 -1.14121 0
M  V30 29 H 6.78919 -1.50472 1.0091 0
M  V30 30 H 5.15533 -2.21093 1.23763 0
M  V30 31 H 5.08124 0.180416 1.6611 0
M  V30 32 H 5.72933 0.544648 0.00766603 0
M  V30 33 H 3.12089 -0.927735 0.684594 0
M  V30 34 H 3.77972 -0.554514 -1.00801 0
M  V30 35 H 3.2616 1.52401 1.10976 0
M  V30 36 H 1.67384 0.452673 1.97864 0
M  V30 37 H 0.84513 -0.987569 1.3391 0
M  V30 38 H -0.0960741 1.24963 3.10491 0
M  V30 39 H -0.410364 -0.475891 3.19258 0
M  V30 40 H -2.45876 -0.00995016 2.38335 0
M  V30 41 H -2.05778 1.68503 2.12138 0
M  V30 42 H -0.786121 2.03238 -0.550117 0
M  V30 43 H -0.618788 0.482367 -1.40247 0
M  V30 44 H -2.29008 -0.464613 -2.07362 0
M  V30 45 H -2.66198 -2.71397 -2.85857 0
M  V30 46 H -2.65905 -4.56122 -1.25237 0
M  V30 47 H -2.2903 -4.15353 1.09103 0
M  V30 48 H -1.90067 -1.87855 1.95348 0
M  V30 49 H -4.27483 0.218272 1.61061 0
M  V30 50 H -6.33898 1.25652 1.00669 0
M  V30 51 H -6.52589 2.7192 -0.910615 0
M  V30 52 H -4.55059 3.15432 -2.27001 0
M  V30 53 H -2.38096 2.12744 -1.72496 0
M  V30 54 H 3.94938 2.98514 -0.496542 0
M  V30 55 H 3.60981 1.93124 -1.7483 0
M  V30 END ATOM
M  V30 BEGIN BOND
M  V30 1 1 1 2
M  V30 2 1 2 3
M  V30 3 1 3 4
M  V30 4 1 4 5
M  V30 5 1 5 6
M  V30 6 2 6 7
M  V30 7 1 6 8
M  V30 8 1 8 9
M  V30 9 1 9 10
M  V30 10 1 10 11
M  V30 11 1 11 12
M  V30 12 1 12 13
M  V30 13 1 12 14
M  V30 14 2 14 15
M  V30 15 1 15 16
M  V30 16 2 16 17
M  V30 17 1 17 18
M  V30 18 2 18 19
M  V30 19 1 12 20
M  V30 20 2 20 21
M  V30 21 1 21 22
M  V30 22 2 22 23
M  V30 23 1 23 24
M  V30 24 2 24 25
M  V30 25 1 5 26
M  V30 26 1 13 8
M  V30 27 1 19 14
M  V30 28 1 25 20
M  V30 29 1 1 27
M  V30 30 1 1 28
M  V30 31 1 2 29
M  V30 32 1 2 30
M  V30 33 1 3 31
M  V30 34 1 3 32
M  V30 35 1 4 33
M  V30 36 1 4 34
M  V30 37 1 5 35 CFG=1
M  V30 38 1 9 36
M  V30 39 1 9 37
M  V30 40 1 10 38
M  V30 41 1 10 39
M  V30 42 1 11 40
M  V30 43 1 11 41
M  V30 44 1 13 42
M  V30 45 1 13 43
M  V30 46 1 15 44
M  V30 47 1 16 45
M  V30 48 1 17 46
M  V30 49 1 18 47
M  V30 50 1 19 48
M  V30 51 1 21 49
M  V30 52 1 22 50
M  V30 53 1 23 51
M  V30 54 1 24 52
M  V30 55 1 25 53
M  V30 56 1 26 54
M  V30 57 1 26 55
M  V30 END BOND
M  V30 END CTAB
M  END
