
     RDKit          3D

  0  0  0  0  0  0  0  0  0  0999 V3000
M  V30 BEGIN CTAB
M  V30 COUNTS 67 72 0 0 0
M  V30 BEGIN ATOM
M  V30 1 N -8.53904 2.73174 -0.882378 0
M  V30 2 C -8.35523 1.50222 -0.149234 0
M  V30 3 N -7.23728 0.774335 -0.303055 0
M  V30 4 C -7.02596 -0.375332 0.359529 0
M  V30 5 C -7.99402 -0.835291 1.2378 0
M  V30 6 N -7.57727 -1.97696 1.77524 0
M  V30 7 C -6.35932 -2.25909 1.25854 0
M  V30 8 N -6.04579 -1.28866 0.412706 0
M  V30 9 C -4.81884 -1.20783 -0.357313 0 CFG=2
M  V30 10 O -3.87414 -2.11919 0.0324255 0
M  V30 11 C -2.78162 -1.46753 0.541055 0 CFG=2
M  V30 12 C -2.77583 -1.47753 2.04543 0
M  V30 13 O -1.65666 -0.809398 2.50629 0
M  V30 14 C -2.76089 -0.0698221 -0.0307249 0 CFG=1
M  V30 15 O -1.96948 0.0613773 -1.14407 0
M  V30 16 P -0.731023 1.16983 -0.969591 0
M  V30 17 O -0.654391 1.80299 0.575099 0
M  V30 18 O -0.967988 2.33079 -1.93646 0
M  V30 19 O 0.7503 0.447707 -1.34759 0
M  V30 20 C 1.79663 1.13985 -0.740852 0
M  V30 21 C 3.08179 0.438588 -1.12324 0 CFG=1
M  V30 22 O 4.1953 1.0554 -0.564439 0
M  V30 23 C 5.16196 0.033528 -0.593136 0 CFG=2
M  V30 24 C 4.39543 -1.09957 0.0653601 0 CFG=2
M  V30 25 O 4.98194 -2.32823 -0.212469 0
M  V30 26 C 3.03716 -0.962424 -0.592827 0 CFG=2
M  V30 27 O 2.98718 -1.84411 -1.67102 0
M  V30 28 N 6.33057 0.397063 0.173872 0
M  V30 29 C 6.3611 1.00081 1.35612 0
M  V30 30 N 7.64647 1.15074 1.71085 0
M  V30 31 C 8.45694 0.637983 0.7468 0
M  V30 32 C 7.59292 0.163226 -0.22305 0
M  V30 33 N 8.17501 -0.400074 -1.29688 0
M  V30 34 C 9.50023 -0.503158 -1.43509 0
M  V30 35 N 10.3096 -0.0424586 -0.495357 0
M  V30 36 C 9.82253 0.534556 0.609855 0
M  V30 37 N 10.6968 1.02243 1.60582 0
M  V30 38 C -4.22627 0.163838 -0.317203 0 CFG=1
M  V30 39 O -4.3822 0.888567 -1.4758 0
M  V30 40 C -9.15041 -0.0704798 1.38878 0
M  V30 41 O -10.0621 -0.447028 2.17721 0
M  V30 42 N -9.29781 1.06951 0.695588 0
M  V30 43 H -8.47726 3.63199 -0.388998 0
M  V30 44 H -8.73371 2.74889 -1.90039 0
M  V30 45 H -5.79837 -3.13106 1.52767 0
M  V30 46 H -5.05997 -1.42948 -1.43734 0
M  V30 47 H -1.85743 -1.99578 0.201772 0
M  V30 48 H -2.68718 -2.54209 2.35963 0
M  V30 49 H -3.68994 -1.01245 2.42794 0
M  V30 50 H -0.830308 -1.10803 2.08871 0
M  V30 51 H -2.38599 0.60924 0.755769 0
M  V30 52 H -1.37954 2.42565 0.800072 0
M  V30 53 H 1.65008 1.20903 0.336199 0
M  V30 54 H 1.86765 2.17066 -1.18111 0
M  V30 55 H 3.19319 0.492145 -2.22596 0
M  V30 56 H 5.42334 -0.218678 -1.62481 0
M  V30 57 H 4.28116 -0.905075 1.14619 0
M  V30 58 H 4.92138 -2.87566 0.607735 0
M  V30 59 H 2.20986 -1.12959 0.12384 0
M  V30 60 H 2.9193 -1.38534 -2.54515 0
M  V30 61 H 5.46652 1.30173 1.90181 0
M  V30 62 H 9.8887 -0.969716 -2.32897 0
M  V30 63 H 11.6505 1.35179 1.37701 0
M  V30 64 H 10.3737 1.05045 2.58857 0
M  V30 65 H -4.62158 0.780686 0.521732 0
M  V30 66 H -4.19068 0.369779 -2.29597 0
M  V30 67 H -10.1696 1.62798 0.821837 0
M  V30 END ATOM
M  V30 BEGIN BOND
M  V30 1 1 1 2
M  V30 2 2 2 3
M  V30 3 1 3 4
M  V30 4 2 4 5
M  V30 5 1 5 6
M  V30 6 2 6 7
M  V30 7 1 7 8
M  V30 8 1 8 9
M  V30 9 1 9 10
M  V30 10 1 10 11
M  V30 11 1 11 12
M  V30 12 1 12 13
M  V30 13 1 11 14
M  V30 14 1 14 15
M  V30 15 1 15 16
M  V30 16 1 16 17
M  V30 17 2 16 18
M  V30 18 1 16 19
M  V30 19 1 19 20
M  V30 20 1 20 21
M  V30 21 1 21 22
M  V30 22 1 22 23
M  V30 23 1 23 24
M  V30 24 1 24 25
M  V30 25 1 24 26
M  V30 26 1 26 27
M  V30 27 1 23 28
M  V30 28 1 28 29
M  V30 29 2 29 30
M  V30 30 1 30 31
M  V30 31 2 31 32
M  V30 32 1 32 33
M  V30 33 2 33 34
M  V30 34 1 34 35
M  V30 35 2 35 36
M  V30 36 1 36 37
M  V30 37 1 14 38
M  V30 38 1 38 39
M  V30 39 1 5 40
M  V30 40 2 40 41
M  V30 41 1 40 42
M  V30 42 1 42 2
M  V30 43 1 8 4
M  V30 44 1 38 9
M  V30 45 1 26 21
M  V30 46 1 32 28
M  V30 47 1 36 31
M  V30 48 1 1 43
M  V30 49 1 1 44
M  V30 50 1 7 45
M  V30 51 1 9 46 CFG=3
M  V30 52 1 11 47 CFG=3
M  V30 53 1 12 48
M  V30 54 1 12 49
M  V30 55 1 13 50
M  V30 56 1 14 51 CFG=1
M  V30 57 1 17 52
M  V30 58 1 20 53
M  V30 59 1 20 54
M  V30 60 1 21 55 CFG=3
M  V30 61 1 23 56 CFG=3
M  V30 62 1 24 57 CFG=1
M  V30 63 1 25 58
M  V30 64 1 26 59 CFG=1
M  V30 65 1 27 60
M  V30 66 1 29 61
M  V30 67 1 34 62
M  V30 68 1 37 63
M  V30 69 1 37 64
M  V30 70 1 38 65 CFG=1
M  V30 71 1 39 66
M  V30 72 1 42 67
M  V30 END BOND
M  V30 END CTAB
M  END
