
     RDKit          3D

  0  0  0  0  0  0  0  0  0  0999 V3000
M  V30 BEGIN CTAB
M  V30 COUNTS 38 38 0 0 0
M  V30 BEGIN ATOM
M  V30 1 C -4.46363 1.95445 0.783018 0
M  V30 2 C -3.05653 2.46079 0.516659 0
M  V30 3 C -2.27567 1.32177 -0.104131 0
M  V30 4 C -2.25254 0.165971 0.855097 0
M  V30 5 C -1.49345 -1.02302 0.322937 0
M  V30 6 N -0.131554 -0.752746 0.0309179 0
M  V30 7 C 0.900159 -1.43867 0.697589 0
M  V30 8 O 0.623434 -2.30373 1.56453 0
M  V30 9 C 2.30818 -1.18515 0.421511 0
M  V30 10 C 3.41672 -1.75852 0.974643 0
M  V30 11 C 4.51831 -1.16934 0.369059 0
M  V30 12 C 4.02666 -0.26714 -0.522099 0
M  V30 13 O 2.73684 -0.318021 -0.449966 0
M  V30 14 S 4.88923 0.816029 -1.61613 0
M  V30 15 O 4.53333 2.24054 -1.25655 0
M  V30 16 O 4.42231 0.524757 -3.00627 0
M  V30 17 N 6.58108 0.601615 -1.43041 0
M  V30 18 C -2.15631 -1.60853 -0.90489 0
M  V30 19 N -3.5091 -2.05503 -0.6178 0
M  V30 20 H -5.19395 2.7923 0.715748 0
M  V30 21 H -4.68978 1.20094 0.00992236 0
M  V30 22 H -4.4424 1.49436 1.80217 0
M  V30 23 H -3.16258 3.31833 -0.176038 0
M  V30 24 H -2.57812 2.84882 1.42952 0
M  V30 25 H -2.7651 1.05463 -1.06324 0
M  V30 26 H -1.28024 1.70944 -0.3517 0
M  V30 27 H -1.81261 0.506228 1.81319 0
M  V30 28 H -3.30197 -0.122793 1.06629 0
M  V30 29 H -1.55092 -1.80652 1.10534 0
M  V30 30 H 0.113984 -0.0422926 -0.681401 0
M  V30 31 H 3.40279 -2.52476 1.73866 0
M  V30 32 H 5.54446 -1.37011 0.552133 0
M  V30 33 H 7.04741 1.46365 -1.75675 0
M  V30 34 H 6.77003 0.375586 -0.431364 0
M  V30 35 H -2.17762 -0.922879 -1.75722 0
M  V30 36 H -1.58003 -2.50664 -1.20073 0
M  V30 37 H -3.73906 -2.02943 0.390166 0
M  V30 38 H -4.22175 -1.64489 -1.23137 0
M  V30 END ATOM
M  V30 BEGIN BOND
M  V30 1 1 1 2
M  V30 2 1 2 3
M  V30 3 1 3 4
M  V30 4 1 4 5
M  V30 5 1 5 6
M  V30 6 1 6 7
M  V30 7 2 7 8
M  V30 8 1 7 9
M  V30 9 2 9 10
M  V30 10 1 10 11
M  V30 11 2 11 12
M  V30 12 1 12 13
M  V30 13 1 12 14
M  V30 14 2 14 15
M  V30 15 2 14 16
M  V30 16 1 14 17
M  V30 17 1 5 18
M  V30 18 1 18 19
M  V30 19 1 13 9
M  V30 20 1 1 20
M  V30 21 1 1 21
M  V30 22 1 1 22
M  V30 23 1 2 23
M  V30 24 1 2 24
M  V30 25 1 3 25
M  V30 26 1 3 26
M  V30 27 1 4 27
M  V30 28 1 4 28
M  V30 29 1 5 29
M  V30 30 1 6 30
M  V30 31 1 10 31
M  V30 32 1 11 32
M  V30 33 1 17 33
M  V30 34 1 17 34
M  V30 35 1 18 35
M  V30 36 1 18 36
M  V30 37 1 19 37
M  V30 38 1 19 38
M  V30 END BOND
M  V30 END CTAB
M  END
