
     RDKit          3D

  0  0  0  0  0  0  0  0  0  0999 V3000
M  V30 BEGIN CTAB
M  V30 COUNTS 36 37 0 0 0
M  V30 BEGIN ATOM
M  V30 1 N 6.07381 0.854299 -0.801904 0
M  V30 2 C 4.84589 0.339329 -0.319719 0
M  V30 3 C 4.49719 -1.00147 -0.520821 0
M  V30 4 C 3.31919 -1.5138 -0.0634092 0
M  V30 5 C 2.39265 -0.719797 0.63506 0
M  V30 6 C 2.71697 0.595466 0.841373 0
M  V30 7 C 3.9296 1.09284 0.362039 0
M  V30 8 N 1.84296 1.46905 1.5346 0
M  V30 9 O 1.23729 -1.34498 1.0489 0
M  V30 10 C -0.058108 -1.00215 0.688912 0
M  V30 11 C -0.55587 -1.40171 -0.564682 0
M  V30 12 C -1.83248 -1.0813 -0.95153 0
M  V30 13 C -2.6625 -0.364317 -0.133542 0
M  V30 14 C -2.19189 0.0329764 1.09352 0
M  V30 15 C -0.90695 -0.28579 1.49147 0
M  V30 16 C -4.02463 -0.0230889 -0.548476 0
M  V30 17 C -4.97998 -0.674438 0.449634 0
M  V30 18 C -4.16523 1.49096 -0.485514 0
M  V30 19 H 6.3896 1.77935 -0.464986 0
M  V30 20 H 6.64346 0.328711 -1.47017 0
M  V30 21 H 5.23862 -1.59009 -1.06653 0
M  V30 22 H 3.09562 -2.55618 -0.244041 0
M  V30 23 H 4.15663 2.15076 0.545306 0
M  V30 24 H 1.21608 2.16042 1.08087 0
M  V30 25 H 1.83432 1.40696 2.57909 0
M  V30 26 H 0.122735 -1.96424 -1.18367 0
M  V30 27 H -2.17157 -1.41845 -1.9421 0
M  V30 28 H -2.86536 0.598436 1.72297 0
M  V30 29 H -0.583536 0.0297543 2.45803 0
M  V30 30 H -4.28097 -0.395321 -1.54419 0
M  V30 31 H -5.2734 0.0127973 1.24786 0
M  V30 32 H -4.51056 -1.56157 0.939134 0
M  V30 33 H -5.89176 -1.04429 -0.0496703 0
M  V30 34 H -4.93616 1.84378 -1.20966 0
M  V30 35 H -3.16815 1.95638 -0.687248 0
M  V30 36 H -4.49352 1.80072 0.521897 0
M  V30 END ATOM
M  V30 BEGIN BOND
M  V30 1 1 1 2
M  V30 2 2 2 3
M  V30 3 1 3 4
M  V30 4 2 4 5
M  V30 5 1 5 6
M  V30 6 2 6 7
M  V30 7 1 6 8
M  V30 8 1 5 9
M  V30 9 1 9 10
M  V30 10 2 10 11
M  V30 11 1 11 12
M  V30 12 2 12 13
M  V30 13 1 13 14
M  V30 14 2 14 15
M  V30 15 1 13 16
M  V30 16 1 16 17
M  V30 17 1 16 18
M  V30 18 1 7 2
M  V30 19 1 15 10
M  V30 20 1 1 19
M  V30 21 1 1 20
M  V30 22 1 3 21
M  V30 23 1 4 22
M  V30 24 1 7 23
M  V30 25 1 8 24
M  V30 26 1 8 25
M  V30 27 1 11 26
M  V30 28 1 12 27
M  V30 29 1 14 28
M  V30 30 1 15 29
M  V30 31 1 16 30
M  V30 32 1 17 31
M  V30 33 1 17 32
M  V30 34 1 17 33
M  V30 35 1 18 34
M  V30 36 1 18 35
M  V30 37 1 18 36
M  V30 END BOND
M  V30 END CTAB
M  END
