
     RDKit          3D

  0  0  0  0  0  0  0  0  0  0999 V3000
M  V30 BEGIN CTAB
M  V30 COUNTS 38 39 0 0 0
M  V30 BEGIN ATOM
M  V30 1 C 4.42075 2.86982 -0.0894069 0
M  V30 2 C 3.53394 1.67367 -0.39054 0
M  V30 3 C 2.58141 1.53186 0.763333 0
M  V30 4 O 1.72615 0.45852 0.558076 0
M  V30 5 C 2.06039 -0.852116 0.441555 0
M  V30 6 O 3.26871 -1.1892 0.526081 0
M  V30 7 C 1.05794 -1.91363 0.217308 0
M  V30 8 C 1.45549 -3.21148 0.108676 0
M  V30 9 C 0.564121 -4.2599 -0.102712 0
M  V30 10 N 1.00896 -5.5939 -0.210688 0
M  V30 11 C -0.760257 -3.91948 -0.198624 0
M  V30 12 C -1.22844 -2.60414 -0.0951848 0
M  V30 13 C -0.307725 -1.60658 0.113349 0
M  V30 14 S -0.743232 0.0773141 0.262477 0
M  V30 15 C -2.47424 0.452353 0.12911 0
M  V30 16 N -3.53015 -0.337645 -0.069316 0
M  V30 17 N -4.63368 0.350935 -0.102696 0
M  V30 18 C -4.3094 1.63586 0.0780158 0
M  V30 19 N -2.99911 1.7203 0.2213 0
M  V30 20 N -2.23052 2.87691 0.432566 0
M  V30 21 C -5.29177 2.77122 0.108361 0
M  V30 22 H 5.34363 2.88148 -0.681494 0
M  V30 23 H 3.81248 3.78516 -0.2252 0
M  V30 24 H 4.68928 2.82413 0.983949 0
M  V30 25 H 4.13588 0.781021 -0.504377 0
M  V30 26 H 2.99851 1.91446 -1.3411 0
M  V30 27 H 3.19124 1.44082 1.68989 0
M  V30 28 H 2.01316 2.49246 0.870048 0
M  V30 29 H 2.51319 -3.4621 0.187712 0
M  V30 30 H 1.39677 -5.93815 -1.10188 0
M  V30 31 H 0.948974 -6.23022 0.598419 0
M  V30 32 H -1.49304 -4.70901 -0.364074 0
M  V30 33 H -2.29118 -2.45046 -0.185881 0
M  V30 34 H -2.08717 3.55296 -0.326566 0
M  V30 35 H -1.82242 3.00277 1.3918 0
M  V30 36 H -6.27966 2.3847 0.383457 0
M  V30 37 H -5.28596 3.30463 -0.844896 0
M  V30 38 H -4.95301 3.49467 0.894382 0
M  V30 END ATOM
M  V30 BEGIN BOND
M  V30 1 1 1 2
M  V30 2 1 2 3
M  V30 3 1 3 4
M  V30 4 1 4 5
M  V30 5 2 5 6
M  V30 6 1 5 7
M  V30 7 2 7 8
M  V30 8 1 8 9
M  V30 9 1 9 10
M  V30 10 2 9 11
M  V30 11 1 11 12
M  V30 12 2 12 13
M  V30 13 1 13 14
M  V30 14 1 14 15
M  V30 15 2 15 16
M  V30 16 1 16 17
M  V30 17 2 17 18
M  V30 18 1 18 19
M  V30 19 1 19 20
M  V30 20 1 18 21
M  V30 21 1 13 7
M  V30 22 1 19 15
M  V30 23 1 1 22
M  V30 24 1 1 23
M  V30 25 1 1 24
M  V30 26 1 2 25
M  V30 27 1 2 26
M  V30 28 1 3 27
M  V30 29 1 3 28
M  V30 30 1 8 29
M  V30 31 1 10 30
M  V30 32 1 10 31
M  V30 33 1 11 32
M  V30 34 1 12 33
M  V30 35 1 20 34
M  V30 36 1 20 35
M  V30 37 1 21 36
M  V30 38 1 21 37
M  V30 39 1 21 38
M  V30 END BOND
M  V30 END CTAB
M  END
