
     RDKit          3D

  0  0  0  0  0  0  0  0  0  0999 V3000
M  V30 BEGIN CTAB
M  V30 COUNTS 26 25 0 0 0
M  V30 BEGIN ATOM
M  V30 1 C -0.623076 2.33667 -0.435341 0
M  V30 2 C 0.316301 1.33411 0.184005 0
M  V30 3 C -0.350193 0.011528 0.453306 0
M  V30 4 C -0.862453 -0.584623 -0.806855 0
M  V30 5 N -0.736912 -0.0232225 -1.9492 0
M  V30 6 N -1.52395 -1.86018 -0.666961 0
M  V30 7 N 0.480288 -0.932774 1.1079 0
M  V30 8 S 1.89336 -1.38104 0.317459 0
M  V30 9 O 2.35826 -2.76053 0.749669 0
M  V30 10 O 1.83783 -1.38221 -1.16065 0
M  V30 11 N 3.16901 -0.291528 0.80819 0
M  V30 12 C -1.58361 0.22747 1.34117 0
M  V30 13 H -1.67852 2.00932 -0.401689 0
M  V30 14 H -0.538305 3.3448 0.0633265 0
M  V30 15 H -0.358966 2.49834 -1.49798 0
M  V30 16 H 1.16918 1.2144 -0.510028 0
M  V30 17 H 0.690344 1.77978 1.12369 0
M  V30 18 H -1.12503 -0.5083 -2.78729 0
M  V30 19 H -0.942485 -2.66543 -0.334821 0
M  V30 20 H -2.51851 -2.00596 -0.875273 0
M  V30 21 H 0.0163392 -1.62873 1.68819 0
M  V30 22 H 2.77589 0.591794 1.19715 0
M  V30 23 H 3.82586 -0.134485 0.0106822 0
M  V30 24 H -2.50866 0.29341 0.728573 0
M  V30 25 H -1.69849 -0.619798 2.04932 0
M  V30 26 H -1.48351 1.13718 1.95394 0
M  V30 END ATOM
M  V30 BEGIN BOND
M  V30 1 1 1 2
M  V30 2 1 2 3
M  V30 3 1 3 4
M  V30 4 2 4 5 CFG=2
M  V30 5 1 4 6
M  V30 6 1 3 7
M  V30 7 1 7 8
M  V30 8 2 8 9
M  V30 9 2 8 10
M  V30 10 1 8 11
M  V30 11 1 3 12
M  V30 12 1 1 13
M  V30 13 1 1 14
M  V30 14 1 1 15
M  V30 15 1 2 16
M  V30 16 1 2 17
M  V30 17 1 5 18
M  V30 18 1 6 19
M  V30 19 1 6 20
M  V30 20 1 7 21
M  V30 21 1 11 22
M  V30 22 1 11 23
M  V30 23 1 12 24
M  V30 24 1 12 25
M  V30 25 1 12 26
M  V30 END BOND
M  V30 END CTAB
M  END
