
     RDKit          3D

  0  0  0  0  0  0  0  0  0  0999 V3000
M  V30 BEGIN CTAB
M  V30 COUNTS 74 77 0 0 0
M  V30 BEGIN ATOM
M  V30 1 C -2.07175 -0.634933 0.762176 0 CFG=1
M  V30 2 C -1.09079 -0.822485 1.88686 0
M  V30 3 C -1.11029 0.22854 2.90923 0
M  V30 4 C -1.9703 0.0962491 3.98002 0
M  V30 5 C -2.01466 1.0556 4.98193 0
M  V30 6 C -1.19642 2.15645 4.91812 0
M  V30 7 C -0.337819 2.31189 3.87174 0
M  V30 8 C -0.306554 1.33936 2.87541 0
M  V30 9 N -3.43682 -0.57605 1.26635 0
M  V30 10 C -4.44615 -1.51222 0.881871 0
M  V30 11 O -4.18984 -2.45059 0.066935 0
M  V30 12 O -5.73622 -1.45818 1.36157 0
M  V30 13 C -6.67565 -2.41557 0.923663 0
M  V30 14 C -6.80632 -2.24468 -0.558082 0
M  V30 15 C -7.15279 -3.3147 -1.35783 0
M  V30 16 C -7.28882 -3.19319 -2.72896 0
M  V30 17 C -7.07863 -1.976 -3.35043 0
M  V30 18 C -6.73472 -0.905975 -2.56898 0
M  V30 19 C -6.59903 -1.03211 -1.19306 0
M  V30 20 C -1.7516 0.52204 -0.0886575 0
M  V30 21 O -2.3052 1.65518 0.175997 0
M  V30 22 N -0.886004 0.502645 -1.19188 0
M  V30 23 C -0.578997 1.61137 -2.06291 0
M  V30 24 C -0.866485 0.971868 -3.42231 0
M  V30 25 C -0.286859 -0.408766 -3.25893 0
M  V30 26 C -0.150047 -0.604566 -1.73544 0 CFG=1
M  V30 27 C 1.29187 -0.636139 -1.36657 0
M  V30 28 O 1.99663 -1.5297 -1.89417 0
M  V30 29 N 1.88159 0.279092 -0.469249 0
M  V30 30 C 3.21876 0.357063 -0.0534347 0
M  V30 31 C 3.51281 1.3554 0.886988 0
M  V30 32 C 4.78213 1.55537 1.38179 0
M  V30 33 C 5.8157 0.7727 0.964808 0
M  V30 34 C 5.56825 -0.211715 0.0490288 0
M  V30 35 C 4.27342 -0.407663 -0.449084 0
M  V30 36 S 7.45565 0.962933 1.53825 0
M  V30 37 O 7.50402 1.46544 2.93951 0
M  V30 38 O 8.13658 -0.387567 1.46747 0
M  V30 39 N 8.3366 2.06955 0.556971 0
M  V30 40 C 9.02696 1.71868 -0.46965 0
M  V30 41 N 9.10222 0.362069 -0.859385 0
M  V30 42 N 9.72137 2.70167 -1.2234 0
M  V30 43 H -2.02041 -1.54296 0.121534 0
M  V30 44 H -0.0838302 -0.918699 1.44515 0
M  V30 45 H -1.27467 -1.84631 2.34752 0
M  V30 46 H -2.64178 -0.742034 4.09215 0
M  V30 47 H -2.68049 0.961958 5.81991 0
M  V30 48 H -1.26109 2.89517 5.7351 0
M  V30 49 H 0.288877 3.17892 3.84967 0
M  V30 50 H 0.396903 1.52951 2.08186 0
M  V30 51 H -3.67314 0.175067 1.92218 0
M  V30 52 H -7.67966 -2.25364 1.35896 0
M  V30 53 H -6.39043 -3.45943 1.17652 0
M  V30 54 H -7.31915 -4.26364 -0.873743 0
M  V30 55 H -7.56266 -4.03207 -3.36307 0
M  V30 56 H -7.19148 -1.89968 -4.44123 0
M  V30 57 H -6.56489 0.051282 -3.01542 0
M  V30 58 H -6.32342 -0.180693 -0.565999 0
M  V30 59 H 0.422581 2.01511 -2.00736 0
M  V30 60 H -1.30429 2.44445 -1.97279 0
M  V30 61 H -0.341205 1.55965 -4.19077 0
M  V30 62 H -1.95235 0.989787 -3.59432 0
M  V30 63 H -1.02082 -1.12837 -3.68314 0
M  V30 64 H 0.684753 -0.438571 -3.7532 0
M  V30 65 H -0.569498 -1.59291 -1.51737 0
M  V30 66 H 1.16271 0.984832 -0.0732619 0
M  V30 67 H 2.74587 2.01768 1.26828 0
M  V30 68 H 5.00892 2.33121 2.11163 0
M  V30 69 H 6.35629 -0.857551 -0.310653 0
M  V30 70 H 4.12485 -1.18139 -1.16031 0
M  V30 71 H 9.77975 -0.290879 -0.444244 0
M  V30 72 H 8.43933 -0.00053927 -1.60404 0
M  V30 73 H 9.1389 3.46618 -1.6336 0
M  V30 74 H 10.7498 2.70018 -1.38268 0
M  V30 END ATOM
M  V30 BEGIN BOND
M  V30 1 1 1 2
M  V30 2 1 2 3
M  V30 3 2 3 4
M  V30 4 1 4 5
M  V30 5 2 5 6
M  V30 6 1 6 7
M  V30 7 2 7 8
M  V30 8 1 1 9
M  V30 9 1 9 10
M  V30 10 2 10 11
M  V30 11 1 10 12
M  V30 12 1 12 13
M  V30 13 1 13 14
M  V30 14 2 14 15
M  V30 15 1 15 16
M  V30 16 2 16 17
M  V30 17 1 17 18
M  V30 18 2 18 19
M  V30 19 1 1 20
M  V30 20 2 20 21
M  V30 21 1 20 22
M  V30 22 1 22 23
M  V30 23 1 23 24
M  V30 24 1 24 25
M  V30 25 1 25 26
M  V30 26 1 26 27
M  V30 27 2 27 28
M  V30 28 1 27 29
M  V30 29 1 29 30
M  V30 30 2 30 31
M  V30 31 1 31 32
M  V30 32 2 32 33
M  V30 33 1 33 34
M  V30 34 2 34 35
M  V30 35 1 33 36
M  V30 36 2 36 37
M  V30 37 2 36 38
M  V30 38 1 36 39
M  V30 39 2 39 40
M  V30 40 1 40 41
M  V30 41 1 40 42
M  V30 42 1 8 3
M  V30 43 1 19 14
M  V30 44 1 26 22
M  V30 45 1 35 30
M  V30 46 1 1 43 CFG=3
M  V30 47 1 2 44
M  V30 48 1 2 45
M  V30 49 1 4 46
M  V30 50 1 5 47
M  V30 51 1 6 48
M  V30 52 1 7 49
M  V30 53 1 8 50
M  V30 54 1 9 51
M  V30 55 1 13 52
M  V30 56 1 13 53
M  V30 57 1 15 54
M  V30 58 1 16 55
M  V30 59 1 17 56
M  V30 60 1 18 57
M  V30 61 1 19 58
M  V30 62 1 23 59
M  V30 63 1 23 60
M  V30 64 1 24 61
M  V30 65 1 24 62
M  V30 66 1 25 63
M  V30 67 1 25 64
M  V30 68 1 26 65 CFG=1
M  V30 69 1 29 66
M  V30 70 1 31 67
M  V30 71 1 32 68
M  V30 72 1 34 69
M  V30 73 1 35 70
M  V30 74 1 41 71
M  V30 75 1 41 72
M  V30 76 1 42 73
M  V30 77 1 42 74
M  V30 END BOND
M  V30 END CTAB
M  END
