
     RDKit          3D

  0  0  0  0  0  0  0  0  0  0999 V3000
M  V30 BEGIN CTAB
M  V30 COUNTS 24 24 0 0 0
M  V30 BEGIN ATOM
M  V30 1 N -2.25944 1.98533 1.51733 0
M  V30 2 C -2.28187 1.09295 0.783645 0
M  V30 3 C -2.28491 -0.0349935 -0.142673 0
M  V30 4 S -1.04725 0.18273 -1.42963 0
M  V30 5 C 0.616967 0.142671 -0.79425 0
M  V30 6 N 1.16569 1.29988 -0.399992 0
M  V30 7 C 2.39985 1.42305 0.096132 0
M  V30 8 N 2.92286 2.68388 0.496985 0
M  V30 9 N 3.12698 0.29356 0.199194 0
M  V30 10 C 2.60424 -0.89181 -0.18948 0
M  V30 11 N 1.34515 -0.976436 -0.689198 0
M  V30 12 N 3.37867 -2.09657 -0.0791603 0
M  V30 13 C -3.63606 -0.102453 -0.817129 0
M  V30 14 C -1.96351 -1.28177 0.63323 0
M  V30 15 H 2.50269 3.5491 0.0957416 0
M  V30 16 H 3.69826 2.78636 1.16607 0
M  V30 17 H 2.89511 -3.01771 -0.104086 0
M  V30 18 H 4.41244 -2.06287 0.0247208 0
M  V30 19 H -4.09523 0.922232 -0.767326 0
M  V30 20 H -4.31949 -0.826692 -0.313817 0
M  V30 21 H -3.56313 -0.331637 -1.89986 0
M  V30 22 H -1.09084 -1.05281 1.29498 0
M  V30 23 H -1.71353 -2.14566 -0.0100673 0
M  V30 24 H -2.81366 -1.54032 1.32863 0
M  V30 END ATOM
M  V30 BEGIN BOND
M  V30 1 3 1 2
M  V30 2 1 2 3
M  V30 3 1 3 4
M  V30 4 1 4 5
M  V30 5 2 5 6
M  V30 6 1 6 7
M  V30 7 1 7 8
M  V30 8 2 7 9
M  V30 9 1 9 10
M  V30 10 2 10 11
M  V30 11 1 10 12
M  V30 12 1 3 13
M  V30 13 1 3 14
M  V30 14 1 11 5
M  V30 15 1 8 15
M  V30 16 1 8 16
M  V30 17 1 12 17
M  V30 18 1 12 18
M  V30 19 1 13 19
M  V30 20 1 13 20
M  V30 21 1 13 21
M  V30 22 1 14 22
M  V30 23 1 14 23
M  V30 24 1 14 24
M  V30 END BOND
M  V30 END CTAB
M  END
