
     RDKit          3D

  0  0  0  0  0  0  0  0  0  0999 V3000
M  V30 BEGIN CTAB
M  V30 COUNTS 22 22 0 0 0
M  V30 BEGIN ATOM
M  V30 1 N 3.07025 1.10009 -0.274563 0
M  V30 2 C 2.68344 -0.294002 -0.22782 0
M  V30 3 C 1.20458 -0.377334 -0.113532 0
M  V30 4 C 0.432316 0.778533 -0.0685953 0
M  V30 5 C -0.942397 0.728021 0.0372966 0
M  V30 6 N -1.69978 1.95546 0.0801966 0
M  V30 7 C -1.54741 -0.492922 0.0986301 0
M  V30 8 C -0.841253 -1.67516 0.0590812 0
M  V30 9 C 0.535493 -1.5768 -0.0475546 0
M  V30 10 Br 1.5279 -3.20601 -0.103511 0
M  V30 11 C -3.02587 -0.533029 0.212325 0
M  V30 12 H 3.04492 1.56714 0.633024 0
M  V30 13 H 3.93575 1.25474 -0.832613 0
M  V30 14 H 3.08869 -0.863196 -1.07595 0
M  V30 15 H 3.15559 -0.714799 0.705386 0
M  V30 16 H 0.898938 1.76193 -0.116418 0
M  V30 17 H -1.22333 2.84559 0.361863 0
M  V30 18 H -2.70324 1.97764 -0.160814 0
M  V30 19 H -1.34231 -2.65143 0.109452 0
M  V30 20 H -3.41634 -1.55511 0.359824 0
M  V30 21 H -3.34149 0.0909767 1.05897 0
M  V30 22 H -3.49445 -0.120322 -0.69468 0
M  V30 END ATOM
M  V30 BEGIN BOND
M  V30 1 1 1 2
M  V30 2 1 2 3
M  V30 3 2 3 4
M  V30 4 1 4 5
M  V30 5 1 5 6
M  V30 6 2 5 7
M  V30 7 1 7 8
M  V30 8 2 8 9
M  V30 9 1 9 10
M  V30 10 1 7 11
M  V30 11 1 9 3
M  V30 12 1 1 12
M  V30 13 1 1 13
M  V30 14 1 2 14
M  V30 15 1 2 15
M  V30 16 1 4 16
M  V30 17 1 6 17
M  V30 18 1 6 18
M  V30 19 1 8 19
M  V30 20 1 11 20
M  V30 21 1 11 21
M  V30 22 1 11 22
M  V30 END BOND
M  V30 END CTAB
M  END
