
     RDKit          3D

  0  0  0  0  0  0  0  0  0  0999 V3000
M  V30 BEGIN CTAB
M  V30 COUNTS 39 40 0 0 0
M  V30 BEGIN ATOM
M  V30 1 N -1.98701 0.429321 2.6694 0
M  V30 2 C -0.882487 0.394995 1.68959 0
M  V30 3 C -1.52394 0.558621 0.33167 0
M  V30 4 C -2.50786 -0.546526 0.0270936 0
M  V30 5 C -2.88829 -0.54245 -1.41862 0
M  V30 6 C -2.77191 0.8076 -2.05437 0
M  V30 7 C -1.42083 1.43284 -1.9005 0
M  V30 8 C -0.579071 0.731861 -0.800901 0
M  V30 9 N -0.0630772 -0.49936 -1.27353 0
M  V30 10 S 1.61798 -0.5984 -1.484 0
M  V30 11 O 2.09504 0.336883 -2.58973 0
M  V30 12 O 1.90383 -1.99204 -2.04003 0
M  V30 13 C 2.56967 -0.394585 -0.0492901 0
M  V30 14 C 3.40754 0.709524 0.123671 0
M  V30 15 C 4.1479 0.875806 1.27574 0
M  V30 16 Cl 5.20521 2.25469 1.51187 0
M  V30 17 C 4.07975 -0.0511854 2.29524 0
M  V30 18 N 3.27164 -1.11043 2.12049 0
M  V30 19 C 2.53447 -1.29443 0.995313 0
M  V30 20 N 1.71459 -2.44812 0.86423 0
M  V30 21 H -2.56893 -0.410524 2.51728 0
M  V30 22 H -2.56303 1.25954 2.42734 0
M  V30 23 H -0.176066 1.19785 1.90614 0
M  V30 24 H -0.421425 -0.583658 1.81518 0
M  V30 25 H -2.19366 1.48979 0.401477 0
M  V30 26 H -2.07184 -1.52442 0.310478 0
M  V30 27 H -3.43877 -0.42199 0.668613 0
M  V30 28 H -3.9908 -0.811261 -1.45723 0
M  V30 29 H -2.37209 -1.28637 -2.04744 0
M  V30 30 H -3.57881 1.47819 -1.64141 0
M  V30 31 H -3.03431 0.690883 -3.12773 0
M  V30 32 H -0.843931 1.50514 -2.83603 0
M  V30 33 H -1.55963 2.46705 -1.5231 0
M  V30 34 H 0.263418 1.43602 -0.569017 0
M  V30 35 H -0.393988 -1.27853 -0.699736 0
M  V30 36 H 3.49847 1.46588 -0.643436 0
M  V30 37 H 4.66778 0.0738903 3.21964 0
M  V30 38 H 2.01287 -3.17121 0.178183 0
M  V30 39 H 0.841624 -2.63089 1.39601 0
M  V30 END ATOM
M  V30 BEGIN BOND
M  V30 1 1 1 2
M  V30 2 1 2 3
M  V30 3 1 3 4
M  V30 4 1 4 5
M  V30 5 1 5 6
M  V30 6 1 6 7
M  V30 7 1 7 8
M  V30 8 1 8 9
M  V30 9 1 9 10
M  V30 10 2 10 11
M  V30 11 2 10 12
M  V30 12 1 10 13
M  V30 13 2 13 14
M  V30 14 1 14 15
M  V30 15 1 15 16
M  V30 16 2 15 17
M  V30 17 1 17 18
M  V30 18 2 18 19
M  V30 19 1 19 20
M  V30 20 1 8 3
M  V30 21 1 19 13
M  V30 22 1 1 21
M  V30 23 1 1 22
M  V30 24 1 2 23
M  V30 25 1 2 24
M  V30 26 1 3 25
M  V30 27 1 4 26
M  V30 28 1 4 27
M  V30 29 1 5 28
M  V30 30 1 5 29
M  V30 31 1 6 30
M  V30 32 1 6 31
M  V30 33 1 7 32
M  V30 34 1 7 33
M  V30 35 1 8 34
M  V30 36 1 9 35
M  V30 37 1 14 36
M  V30 38 1 17 37
M  V30 39 1 20 38
M  V30 40 1 20 39
M  V30 END BOND
M  V30 END CTAB
M  END
