
     RDKit          3D

  0  0  0  0  0  0  0  0  0  0999 V3000
M  V30 BEGIN CTAB
M  V30 COUNTS 21 21 0 0 0
M  V30 BEGIN ATOM
M  V30 1 F -3.86107 -1.82678 -0.287904 0
M  V30 2 C -2.67937 -1.20836 -0.0370358 0
M  V30 3 C -2.4662 0.0886215 -0.424018 0
M  V30 4 C -1.24648 0.715676 -0.160982 0
M  V30 5 N -1.07129 2.05001 -0.576907 0
M  V30 6 C -0.228306 0.0547581 0.49043 0
M  V30 7 C -0.468867 -1.25091 0.86954 0
M  V30 8 C -1.67083 -1.88402 0.615876 0
M  V30 9 F 0.476427 -1.97046 1.51295 0
M  V30 10 N 1.00665 0.685577 0.758259 0
M  V30 11 S 2.35178 0.653917 -0.319848 0
M  V30 12 O 1.90671 0.531342 -1.74705 0
M  V30 13 O 3.12003 1.93637 -0.117451 0
M  V30 14 N 3.30233 -0.713564 0.0628245 0
M  V30 15 H -3.24597 0.62553 -0.934124 0
M  V30 16 H -0.753051 2.27689 -1.53628 0
M  V30 17 H -1.25845 2.84274 0.0732183 0
M  V30 18 H -1.85426 -2.92403 0.921137 0
M  V30 19 H 1.08046 1.20103 1.6848 0
M  V30 20 H 3.45409 -1.36618 -0.705858 0
M  V30 21 H 4.10565 -0.518152 0.673094 0
M  V30 END ATOM
M  V30 BEGIN BOND
M  V30 1 1 1 2
M  V30 2 2 2 3
M  V30 3 1 3 4
M  V30 4 1 4 5
M  V30 5 2 4 6
M  V30 6 1 6 7
M  V30 7 2 7 8
M  V30 8 1 7 9
M  V30 9 1 6 10
M  V30 10 1 10 11
M  V30 11 2 11 12
M  V30 12 2 11 13
M  V30 13 1 11 14
M  V30 14 1 8 2
M  V30 15 1 3 15
M  V30 16 1 5 16
M  V30 17 1 5 17
M  V30 18 1 8 18
M  V30 19 1 10 19
M  V30 20 1 14 20
M  V30 21 1 14 21
M  V30 END BOND
M  V30 END CTAB
M  END
