
     RDKit          3D

  0  0  0  0  0  0  0  0  0  0999 V3000
M  V30 BEGIN CTAB
M  V30 COUNTS 43 44 0 0 0
M  V30 BEGIN ATOM
M  V30 1 N 6.94923 -0.909151 0.0244032 0
M  V30 2 C 5.60611 -0.705443 0.45835 0
M  V30 3 C 4.62308 -0.720818 -0.640571 0
M  V30 4 C 4.94533 -0.945789 -1.96146 0
M  V30 5 C 3.98614 -0.944998 -2.92429 0
M  V30 6 C 2.67744 -0.717005 -2.57955 0
M  V30 7 C 2.30072 -0.483304 -1.25038 0
M  V30 8 C 3.27975 -0.490972 -0.316246 0
M  V30 9 C 0.845763 -0.256497 -1.06394 0
M  V30 10 N 0.393876 0.00398015 0.225583 0
M  V30 11 C -0.870239 0.235106 0.728568 0
M  V30 12 S -0.868076 0.4708 2.45654 0
M  V30 13 N -2.17529 0.315134 0.231695 0
M  V30 14 C -3.16919 0.50157 1.3107 0
M  V30 15 C -3.45044 1.76598 1.71781 0
M  V30 16 C -4.3966 1.97033 2.7449 0
M  V30 17 C -5.00178 0.864461 3.29729 0
M  V30 18 C -4.70851 -0.428237 2.87506 0
M  V30 19 C -3.75662 -0.593106 1.84518 0
M  V30 20 N -5.9563 1.06905 4.33107 0
M  V30 21 C -2.75531 0.240037 -1.02773 0
M  V30 22 O -4.07941 0.277031 -0.997774 0
M  V30 23 C -2.26048 0.131594 -2.39256 0
M  V30 24 H 7.28162 -0.213126 -0.678285 0
M  V30 25 H 7.56957 -0.868381 0.869475 0
M  V30 26 H 5.50866 0.271406 0.99551 0
M  V30 27 H 5.35042 -1.52962 1.16271 0
M  V30 28 H 5.99285 -1.12194 -2.19089 0
M  V30 29 H 4.26827 -1.12475 -3.95628 0
M  V30 30 H 1.95252 -0.72677 -3.38307 0
M  V30 31 H 3.0387 -0.318696 0.704533 0
M  V30 32 H 0.344637 -1.15853 -1.49353 0
M  V30 33 H 0.647105 0.675173 -1.68555 0
M  V30 34 H 1.1819 0.0329535 0.978661 0
M  V30 35 H -3.00115 2.66201 1.31447 0
M  V30 36 H -4.65391 2.94062 3.10166 0
M  V30 37 H -5.18352 -1.28441 3.30989 0
M  V30 38 H -3.52171 -1.58191 1.51078 0
M  V30 39 H -6.96779 1.20843 4.12043 0
M  V30 40 H -5.62655 1.07782 5.31879 0
M  V30 41 H -1.72767 -0.813881 -2.59942 0
M  V30 42 H -1.51916 0.965547 -2.56935 0
M  V30 43 H -3.09397 0.258288 -3.15401 0
M  V30 END ATOM
M  V30 BEGIN BOND
M  V30 1 1 1 2
M  V30 2 1 2 3
M  V30 3 2 3 4
M  V30 4 1 4 5
M  V30 5 2 5 6
M  V30 6 1 6 7
M  V30 7 2 7 8
M  V30 8 1 7 9
M  V30 9 1 9 10
M  V30 10 1 10 11
M  V30 11 2 11 12
M  V30 12 1 11 13
M  V30 13 1 13 14
M  V30 14 2 14 15
M  V30 15 1 15 16
M  V30 16 2 16 17
M  V30 17 1 17 18
M  V30 18 2 18 19
M  V30 19 1 17 20
M  V30 20 1 13 21
M  V30 21 2 21 22
M  V30 22 1 21 23
M  V30 23 1 8 3
M  V30 24 1 19 14
M  V30 25 1 1 24
M  V30 26 1 1 25
M  V30 27 1 2 26
M  V30 28 1 2 27
M  V30 29 1 4 28
M  V30 30 1 5 29
M  V30 31 1 6 30
M  V30 32 1 8 31
M  V30 33 1 9 32
M  V30 34 1 9 33
M  V30 35 1 10 34
M  V30 36 1 15 35
M  V30 37 1 16 36
M  V30 38 1 18 37
M  V30 39 1 19 38
M  V30 40 1 20 39
M  V30 41 1 20 40
M  V30 42 1 23 41
M  V30 43 1 23 42
M  V30 44 1 23 43
M  V30 END BOND
M  V30 END CTAB
M  END
