
     RDKit          3D

  0  0  0  0  0  0  0  0  0  0999 V3000
M  V30 BEGIN CTAB
M  V30 COUNTS 27 27 0 0 0
M  V30 BEGIN ATOM
M  V30 1 O -4.00621 1.40783 -0.615664 0
M  V30 2 C -2.92702 0.880087 0.089411 0
M  V30 3 C -2.61 -0.5015 -0.433785 0
M  V30 4 S -1.23751 -1.29787 0.385174 0
M  V30 5 C 0.327455 -0.531416 0.0448022 0
M  V30 6 C 0.521419 0.530641 -0.806361 0
M  V30 7 C 1.77483 1.10769 -1.03528 0
M  V30 8 C 2.87899 0.595955 -0.382221 0
M  V30 9 C 2.70245 -0.46875 0.474015 0
M  V30 10 C 1.46138 -1.02843 0.691229 0
M  V30 11 N 3.8655 -0.983913 1.14235 0
M  V30 12 N 4.18367 1.12809 -0.562061 0
M  V30 13 C -3.81711 -1.41484 -0.334091 0
M  V30 14 H -3.84823 2.34885 -0.910617 0
M  V30 15 H -3.27779 0.788149 1.14537 0
M  V30 16 H -2.11 1.59365 0.0560485 0
M  V30 17 H -2.43533 -0.370087 -1.53912 0
M  V30 18 H -0.321016 0.929358 -1.32198 0
M  V30 19 H 1.88862 1.9419 -1.7107 0
M  V30 20 H 1.33785 -1.87383 1.37415 0
M  V30 21 H 4.40291 -0.428553 1.82001 0
M  V30 22 H 4.13714 -1.96089 0.900605 0
M  V30 23 H 5.01033 0.54539 -0.418968 0
M  V30 24 H 4.31538 2.1237 -0.843349 0
M  V30 25 H -4.49896 -1.21776 -1.18989 0
M  V30 26 H -4.30189 -1.38558 0.643454 0
M  V30 27 H -3.41685 -2.45786 -0.485709 0
M  V30 END ATOM
M  V30 BEGIN BOND
M  V30 1 1 1 2
M  V30 2 1 2 3
M  V30 3 1 3 4
M  V30 4 1 4 5
M  V30 5 2 5 6
M  V30 6 1 6 7
M  V30 7 2 7 8
M  V30 8 1 8 9
M  V30 9 2 9 10
M  V30 10 1 9 11
M  V30 11 1 8 12
M  V30 12 1 3 13
M  V30 13 1 10 5
M  V30 14 1 1 14
M  V30 15 1 2 15
M  V30 16 1 2 16
M  V30 17 1 3 17
M  V30 18 1 6 18
M  V30 19 1 7 19
M  V30 20 1 10 20
M  V30 21 1 11 21
M  V30 22 1 11 22
M  V30 23 1 12 23
M  V30 24 1 12 24
M  V30 25 1 13 25
M  V30 26 1 13 26
M  V30 27 1 13 27
M  V30 END BOND
M  V30 END CTAB
M  END
