
     RDKit          3D

  0  0  0  0  0  0  0  0  0  0999 V3000
M  V30 BEGIN CTAB
M  V30 COUNTS 27 29 0 0 0
M  V30 BEGIN ATOM
M  V30 1 N 5.2055 1.34843 0.225325 0
M  V30 2 C 3.9451 0.655696 0.19596 0
M  V30 3 N 3.87948 -0.685667 0.270578 0
M  V30 4 C 2.70022 -1.36089 0.244677 0
M  V30 5 N 2.63167 -2.77454 0.323345 0
M  V30 6 C 1.51461 -0.665473 0.138463 0
M  V30 7 N 0.226567 -1.00651 0.0870505 0
M  V30 8 C -0.5532 0.0845693 -0.0197702 0
M  V30 9 N 0.295634 1.12752 -0.0336217 0
M  V30 10 C 1.57608 0.706782 0.0618123 0
M  V30 11 N 2.77802 1.31521 0.0928663 0
M  V30 12 C -2.02249 0.121596 -0.103275 0
M  V30 13 C -2.73487 -1.04789 -0.0744892 0
M  V30 14 C -4.11995 -1.00442 -0.153718 0
M  V30 15 C -4.76916 0.212461 -0.260663 0
M  V30 16 Cl -6.51375 0.317898 -0.363421 0
M  V30 17 C -4.03443 1.3661 -0.287286 0
M  V30 18 Cl -4.85079 2.93186 -0.423846 0
M  V30 19 C -2.67281 1.31301 -0.208795 0
M  V30 20 H 6.07855 0.900168 -0.124612 0
M  V30 21 H 5.26896 2.32343 0.601867 0
M  V30 22 H 2.11136 -3.2698 1.09636 0
M  V30 23 H 3.09263 -3.38353 -0.379478 0
M  V30 24 H 0.0393302 2.12777 -0.106163 0
M  V30 25 H -2.23164 -2.02871 0.0106018 0
M  V30 26 H -4.68943 -1.90178 -0.132895 0
M  V30 27 H -2.1512 2.2767 -0.236139 0
M  V30 END ATOM
M  V30 BEGIN BOND
M  V30 1 1 1 2
M  V30 2 2 2 3
M  V30 3 1 3 4
M  V30 4 1 4 5
M  V30 5 2 4 6
M  V30 6 1 6 7
M  V30 7 2 7 8
M  V30 8 1 8 9
M  V30 9 1 9 10
M  V30 10 2 10 11
M  V30 11 1 8 12
M  V30 12 2 12 13
M  V30 13 1 13 14
M  V30 14 2 14 15
M  V30 15 1 15 16
M  V30 16 1 15 17
M  V30 17 1 17 18
M  V30 18 2 17 19
M  V30 19 1 11 2
M  V30 20 1 19 12
M  V30 21 1 10 6
M  V30 22 1 1 20
M  V30 23 1 1 21
M  V30 24 1 5 22
M  V30 25 1 5 23
M  V30 26 1 9 24
M  V30 27 1 13 25
M  V30 28 1 14 26
M  V30 29 1 19 27
M  V30 END BOND
M  V30 END CTAB
M  END
