
     RDKit          3D

  0  0  0  0  0  0  0  0  0  0999 V3000
M  V30 BEGIN CTAB
M  V30 COUNTS 53 56 0 0 0
M  V30 BEGIN ATOM
M  V30 1 N -3.61504 1.8785 -3.75097 0
M  V30 2 C -2.45252 1.33351 -3.16312 0
M  V30 3 N -2.35317 1.02059 -1.86988 0
M  V30 4 C -1.27203 0.499605 -1.27459 0
M  V30 5 C -1.17605 0.181515 0.15705 0
M  V30 6 O -2.29748 0.403478 0.905414 0
M  V30 7 C -3.39596 -0.351242 0.637137 0
M  V30 8 C -4.5598 -0.0201931 1.5029 0
M  V30 9 C -4.60116 0.940919 2.45506 0
M  V30 10 C -5.72714 1.18509 3.21471 0
M  V30 11 C -6.87105 0.452786 3.03405 0
M  V30 12 C -6.84875 -0.543527 2.05627 0
M  V30 13 C -5.71793 -0.78062 1.3013 0
M  V30 14 C -0.164556 0.269805 -2.08533 0
M  V30 15 C -0.247891 0.591241 -3.44548 0
M  V30 16 N 0.935521 0.331857 -4.22454 0
M  V30 17 N -1.36775 1.10655 -3.9492 0
M  V30 18 C 1.06038 -0.288923 -1.5363 0
M  V30 19 C 1.20188 -1.61536 -1.20502 0
M  V30 20 C 2.41442 -2.04665 -0.725284 0
M  V30 21 C 3.51918 -1.21522 -0.552098 0
M  V30 22 N 4.71703 -1.7736 -0.0758962 0
M  V30 23 C 5.88077 -1.09289 0.386473 0
M  V30 24 C 5.71804 -0.357692 1.65922 0
M  V30 25 C 5.60744 -0.958548 2.9222 0
M  V30 26 O 5.49178 0.00187992 3.81868 0
M  V30 27 C 5.51812 1.19074 3.23261 0
M  V30 28 C 5.65928 0.996044 1.87724 0
M  V30 29 C 3.35406 0.0993789 -0.887857 0
M  V30 30 C 2.14109 0.545656 -1.37061 0
M  V30 31 H -3.58129 2.81889 -4.18295 0
M  V30 32 H -4.49449 1.33117 -3.74523 0
M  V30 33 H -0.374903 0.842989 0.603399 0
M  V30 34 H -0.890142 -0.886269 0.335155 0
M  V30 35 H -3.74863 -0.328574 -0.384025 0
M  V30 36 H -3.1552 -1.43843 0.871073 0
M  V30 37 H -3.71471 1.53567 2.62146 0
M  V30 38 H -5.73428 1.97491 3.98468 0
M  V30 39 H -7.73998 0.657362 3.63625 0
M  V30 40 H -7.75681 -1.12498 1.91161 0
M  V30 41 H -5.72315 -1.55723 0.551088 0
M  V30 42 H 1.39511 -0.605045 -4.04236 0
M  V30 43 H 1.33586 0.980412 -4.91075 0
M  V30 44 H 0.360085 -2.31736 -1.32209 0
M  V30 45 H 2.49314 -3.10796 -0.47123 0
M  V30 46 H 4.77981 -2.84038 -0.0540144 0
M  V30 47 H 6.75852 -1.79569 0.486718 0
M  V30 48 H 6.26005 -0.384011 -0.417896 0
M  V30 49 H 5.61999 -2.02748 3.0783 0
M  V30 50 H 5.44062 2.14203 3.74525 0
M  V30 51 H 5.71812 1.74503 1.08524 0
M  V30 52 H 4.17673 0.792173 -0.788247 0
M  V30 53 H 2.02482 1.60809 -1.63557 0
M  V30 END ATOM
M  V30 BEGIN BOND
M  V30 1 1 1 2
M  V30 2 2 2 3
M  V30 3 1 3 4
M  V30 4 1 4 5
M  V30 5 1 5 6
M  V30 6 1 6 7
M  V30 7 1 7 8
M  V30 8 2 8 9
M  V30 9 1 9 10
M  V30 10 2 10 11
M  V30 11 1 11 12
M  V30 12 2 12 13
M  V30 13 2 4 14
M  V30 14 1 14 15
M  V30 15 1 15 16
M  V30 16 2 15 17
M  V30 17 1 14 18
M  V30 18 2 18 19
M  V30 19 1 19 20
M  V30 20 2 20 21
M  V30 21 1 21 22
M  V30 22 1 22 23
M  V30 23 1 23 24
M  V30 24 2 24 25
M  V30 25 1 25 26
M  V30 26 1 26 27
M  V30 27 2 27 28
M  V30 28 1 21 29
M  V30 29 2 29 30
M  V30 30 1 17 2
M  V30 31 1 30 18
M  V30 32 1 13 8
M  V30 33 1 28 24
M  V30 34 1 1 31
M  V30 35 1 1 32
M  V30 36 1 5 33
M  V30 37 1 5 34
M  V30 38 1 7 35
M  V30 39 1 7 36
M  V30 40 1 9 37
M  V30 41 1 10 38
M  V30 42 1 11 39
M  V30 43 1 12 40
M  V30 44 1 13 41
M  V30 45 1 16 42
M  V30 46 1 16 43
M  V30 47 1 19 44
M  V30 48 1 20 45
M  V30 49 1 22 46
M  V30 50 1 23 47
M  V30 51 1 23 48
M  V30 52 1 25 49
M  V30 53 1 27 50
M  V30 54 1 28 51
M  V30 55 1 29 52
M  V30 56 1 30 53
M  V30 END BOND
M  V30 END CTAB
M  END
