
     RDKit          3D

  0  0  0  0  0  0  0  0  0  0999 V3000
M  V30 BEGIN CTAB
M  V30 COUNTS 30 30 0 0 0
M  V30 BEGIN ATOM
M  V30 1 N -2.56276 0.501638 -1.16271 0
M  V30 2 C -2.4101 0.516317 0.286249 0
M  V30 3 C -3.64342 -0.0405704 0.874385 0
M  V30 4 O -3.75348 -0.0959797 2.11979 0
M  V30 5 O -4.65381 -0.492155 0.0474355 0
M  V30 6 C -1.29649 -0.467986 0.607745 0
M  V30 7 N -0.0623873 -0.130463 0.00307058 0
M  V30 8 C 0.557867 1.04314 0.525572 0
M  V30 9 C 1.87447 1.37161 -0.0904866 0
M  V30 10 C 2.59932 0.278791 -0.751004 0
M  V30 11 C 1.89063 -1.01499 -0.932119 0
M  V30 12 C 0.872657 -1.21805 0.194923 0
M  V30 13 N 3.84568 -0.0284334 -0.0222613 0
M  V30 14 H -1.63252 0.718602 -1.61792 0
M  V30 15 H -3.33677 1.11162 -1.4934 0
M  V30 16 H -2.11844 1.49386 0.686526 0
M  V30 17 H -4.62816 -1.44368 -0.339904 0
M  V30 18 H -1.63384 -1.45344 0.230334 0
M  V30 19 H -1.18893 -0.581841 1.72251 0
M  V30 20 H -0.0928728 1.94604 0.483914 0
M  V30 21 H 0.704528 0.865864 1.63371 0
M  V30 22 H 2.51765 1.82212 0.717796 0
M  V30 23 H 1.72493 2.20781 -0.820097 0
M  V30 24 H 2.97069 0.59534 -1.77237 0
M  V30 25 H 1.27747 -1.03899 -1.88076 0
M  V30 26 H 2.55419 -1.88008 -0.981404 0
M  V30 27 H 0.396502 -2.21198 0.116735 0
M  V30 28 H 1.45177 -1.13513 1.13586 0
M  V30 29 H 4.26873 -0.883637 -0.453565 0
M  V30 30 H 3.50688 -0.35534 0.93145 0
M  V30 END ATOM
M  V30 BEGIN BOND
M  V30 1 1 1 2
M  V30 2 1 2 3
M  V30 3 2 3 4
M  V30 4 1 3 5
M  V30 5 1 2 6
M  V30 6 1 6 7
M  V30 7 1 7 8
M  V30 8 1 8 9
M  V30 9 1 9 10
M  V30 10 1 10 11
M  V30 11 1 11 12
M  V30 12 1 10 13
M  V30 13 1 12 7
M  V30 14 1 1 14
M  V30 15 1 1 15
M  V30 16 1 2 16
M  V30 17 1 5 17
M  V30 18 1 6 18
M  V30 19 1 6 19
M  V30 20 1 8 20
M  V30 21 1 8 21
M  V30 22 1 9 22
M  V30 23 1 9 23
M  V30 24 1 10 24
M  V30 25 1 11 25
M  V30 26 1 11 26
M  V30 27 1 12 27
M  V30 28 1 12 28
M  V30 29 1 13 29
M  V30 30 1 13 30
M  V30 END BOND
M  V30 END CTAB
M  END
