
     RDKit          3D

  0  0  0  0  0  0  0  0  0  0999 V3000
M  V30 BEGIN CTAB
M  V30 COUNTS 47 49 0 0 0
M  V30 BEGIN ATOM
M  V30 1 C 7.61832 -0.230783 0.943682 0
M  V30 2 O 6.86731 -0.566392 -0.205886 0
M  V30 3 C 5.48908 -0.601241 -0.105887 0
M  V30 4 C 4.85834 -0.312073 1.10019 0
M  V30 5 C 3.48327 -0.350987 1.18424 0
M  V30 6 C 2.71995 -0.674826 0.0815261 0
M  V30 7 C 3.38132 -0.960131 -1.11505 0
M  V30 8 C 4.74608 -0.925451 -1.21344 0
M  V30 9 O 5.39839 -1.20683 -2.39355 0
M  V30 10 C 1.24131 -0.736913 0.113477 0
M  V30 11 N 0.714327 0.563104 -0.185925 0
M  V30 12 C -0.699338 0.813919 -0.232265 0
M  V30 13 C -1.60855 -0.19533 0.0116574 0
M  V30 14 C -2.95586 0.0556892 -0.0352636 0
M  V30 15 N -3.37942 1.27775 -0.317305 0
M  V30 16 C -2.52082 2.2878 -0.560972 0
M  V30 17 N -1.18965 2.03415 -0.513295 0
M  V30 18 N -3.05312 3.55661 -0.852989 0
M  V30 19 C -3.92108 -1.04023 0.229418 0
M  V30 20 C -5.04589 -1.06827 -0.76062 0
M  V30 21 C -6.02045 -1.29182 0.40125 0
M  V30 22 C -4.93231 -0.71521 1.30746 0
M  V30 23 N -7.18764 -0.476594 0.269125 0
M  V30 24 C 1.62744 1.64469 -0.445886 0
M  V30 25 H 8.7001 -0.151806 0.718695 0
M  V30 26 H 7.5035 -1.10902 1.64337 0
M  V30 27 H 7.28261 0.70037 1.40947 0
M  V30 28 H 5.44225 -0.0558415 1.9761 0
M  V30 29 H 2.96962 -0.131896 2.10406 0
M  V30 30 H 2.80271 -1.21394 -1.98256 0
M  V30 31 H 4.84435 -1.4449 -3.20536 0
M  V30 32 H 0.906643 -1.51504 -0.608916 0
M  V30 33 H 0.891383 -0.976287 1.15105 0
M  V30 34 H -1.23049 -1.19173 0.24133 0
M  V30 35 H -2.90123 3.97533 -1.78133 0
M  V30 36 H -3.59381 4.06651 -0.140366 0
M  V30 37 H -3.45551 -2.01985 0.454549 0
M  V30 38 H -4.96 -1.94802 -1.42894 0
M  V30 39 H -5.19293 -0.0963335 -1.24014 0
M  V30 40 H -6.25073 -2.3455 0.598747 0
M  V30 41 H -4.8585 -1.31157 2.21872 0
M  V30 42 H -5.09849 0.350302 1.47867 0
M  V30 43 H -8.05725 -0.921168 0.646359 0
M  V30 44 H -7.03542 0.476898 0.643576 0
M  V30 45 H 2.31782 1.47535 -1.28455 0
M  V30 46 H 2.26169 1.90246 0.452759 0
M  V30 47 H 1.08067 2.60504 -0.657475 0
M  V30 END ATOM
M  V30 BEGIN BOND
M  V30 1 1 1 2
M  V30 2 1 2 3
M  V30 3 2 3 4
M  V30 4 1 4 5
M  V30 5 2 5 6
M  V30 6 1 6 7
M  V30 7 2 7 8
M  V30 8 1 8 9
M  V30 9 1 6 10
M  V30 10 1 10 11
M  V30 11 1 11 12
M  V30 12 2 12 13
M  V30 13 1 13 14
M  V30 14 2 14 15
M  V30 15 1 15 16
M  V30 16 2 16 17
M  V30 17 1 16 18
M  V30 18 1 14 19
M  V30 19 1 19 20
M  V30 20 1 20 21
M  V30 21 1 21 22
M  V30 22 1 21 23
M  V30 23 1 11 24
M  V30 24 1 8 3
M  V30 25 1 17 12
M  V30 26 1 22 19
M  V30 27 1 1 25
M  V30 28 1 1 26
M  V30 29 1 1 27
M  V30 30 1 4 28
M  V30 31 1 5 29
M  V30 32 1 7 30
M  V30 33 1 9 31
M  V30 34 1 10 32
M  V30 35 1 10 33
M  V30 36 1 13 34
M  V30 37 1 18 35
M  V30 38 1 18 36
M  V30 39 1 19 37
M  V30 40 1 20 38
M  V30 41 1 20 39
M  V30 42 1 21 40
M  V30 43 1 22 41
M  V30 44 1 22 42
M  V30 45 1 23 43
M  V30 46 1 23 44
M  V30 47 1 24 45
M  V30 48 1 24 46
M  V30 49 1 24 47
M  V30 END BOND
M  V30 END CTAB
M  END
