
     RDKit          3D

  0  0  0  0  0  0  0  0  0  0999 V3000
M  V30 BEGIN CTAB
M  V30 COUNTS 20 20 0 0 0
M  V30 BEGIN ATOM
M  V30 1 O 3.20425 -1.65907 -0.78247 0
M  V30 2 C 2.7037 -0.362664 -0.806106 0
M  V30 3 O 3.46561 0.548088 -1.15345 0
M  V30 4 C 1.30691 -0.141018 -0.420706 0
M  V30 5 C 0.504175 -1.19561 -0.0420793 0
M  V30 6 C -0.823931 -0.999558 0.326333 0
M  V30 7 N -1.61778 -2.12945 0.712306 0
M  V30 8 C -1.38529 0.259189 0.325725 0
M  V30 9 C -0.580559 1.31165 -0.0532148 0
M  V30 10 C 0.740095 1.11558 -0.419409 0
M  V30 11 N -1.11825 2.62324 -0.067887 0
M  V30 12 O -2.71983 0.414978 0.701414 0
M  V30 13 H 3.62722 -1.95047 0.107239 0
M  V30 14 H 0.95109 -2.18744 -0.0429727 0
M  V30 15 H -2.20905 -2.09541 1.57413 0
M  V30 16 H -1.64246 -3.01669 0.165383 0
M  V30 17 H 1.38341 1.94388 -0.720608 0
M  V30 18 H -1.60776 2.99846 -0.902668 0
M  V30 19 H -1.00919 3.2029 0.783443 0
M  V30 20 H -3.17236 1.31942 0.715594 0
M  V30 END ATOM
M  V30 BEGIN BOND
M  V30 1 1 1 2
M  V30 2 2 2 3
M  V30 3 1 2 4
M  V30 4 2 4 5
M  V30 5 1 5 6
M  V30 6 1 6 7
M  V30 7 2 6 8
M  V30 8 1 8 9
M  V30 9 2 9 10
M  V30 10 1 9 11
M  V30 11 1 8 12
M  V30 12 1 10 4
M  V30 13 1 1 13
M  V30 14 1 5 14
M  V30 15 1 7 15
M  V30 16 1 7 16
M  V30 17 1 10 17
M  V30 18 1 11 18
M  V30 19 1 11 19
M  V30 20 1 12 20
M  V30 END BOND
M  V30 END CTAB
M  END
