
     RDKit          3D

  0  0  0  0  0  0  0  0  0  0999 V3000
M  V30 BEGIN CTAB
M  V30 COUNTS 19 20 0 0 0
M  V30 BEGIN ATOM
M  V30 1 N -2.92665 -1.9194 -0.244335 0
M  V30 2 C -1.9904 -0.848891 -0.191547 0
M  V30 3 N -2.39944 0.41814 -0.309563 0
M  V30 4 C -1.54849 1.45314 -0.264978 0
M  V30 5 N -1.96573 2.80084 -0.388385 0
M  V30 6 N -0.228787 1.14744 -0.0912387 0
M  V30 7 C 0.225225 -0.0980248 0.0309476 0
M  V30 8 N -0.658074 -1.10401 -0.0190745 0
M  V30 9 C 1.6426 -0.422204 0.21732 0
M  V30 10 C 2.71419 0.43083 0.298128 0
M  V30 11 N 3.8876 -0.0841609 0.465916 0
M  V30 12 C 4.02757 -1.39805 0.55447 0
M  V30 13 S 2.41708 -1.93481 0.392242 0
M  V30 14 H -3.42941 -2.14767 -1.13256 0
M  V30 15 H -3.08307 -2.45464 0.631002 0
M  V30 16 H -2.27294 3.31132 0.445888 0
M  V30 17 H -1.95478 3.24766 -1.31104 0
M  V30 18 H 2.55608 1.52517 0.219432 0
M  V30 19 H 4.98741 -1.9227 0.697378 0
M  V30 END ATOM
M  V30 BEGIN BOND
M  V30 1 1 1 2
M  V30 2 2 2 3
M  V30 3 1 3 4
M  V30 4 1 4 5
M  V30 5 2 4 6
M  V30 6 1 6 7
M  V30 7 2 7 8
M  V30 8 1 7 9
M  V30 9 2 9 10
M  V30 10 1 10 11
M  V30 11 2 11 12
M  V30 12 1 12 13
M  V30 13 1 8 2
M  V30 14 1 13 9
M  V30 15 1 1 14
M  V30 16 1 1 15
M  V30 17 1 5 16
M  V30 18 1 5 17
M  V30 19 1 10 18
M  V30 20 1 12 19
M  V30 END BOND
M  V30 END CTAB
M  END
