
     RDKit          3D

  0  0  0  0  0  0  0  0  0  0999 V3000
M  V30 BEGIN CTAB
M  V30 COUNTS 51 51 0 0 0
M  V30 BEGIN ATOM
M  V30 1 C 1.95101 -3.27012 0.628479 0
M  V30 2 C 2.1948 -2.29588 -0.487568 0
M  V30 3 N 0.982356 -1.88853 -1.09926 0
M  V30 4 C -0.0356917 -1.24402 -0.361911 0
M  V30 5 O 0.151536 -1.06658 0.870533 0
M  V30 6 C -1.27182 -0.80937 -1.06918 0
M  V30 7 N -2.25297 -0.185872 -0.315998 0
M  V30 8 C -3.20878 0.42148 0.417755 0
M  V30 9 O -3.81926 -0.116662 1.41018 0
M  V30 10 C -3.66295 1.85144 0.12094 0 CFG=2
M  V30 11 C -5.09546 1.90099 -0.274812 0
M  V30 12 C -6.04876 1.37471 0.77792 0
M  V30 13 C -5.35787 1.18919 -1.59622 0
M  V30 14 N -2.8392 2.44527 -0.882246 0
M  V30 15 C 0.793222 -2.13688 -2.52932 0
M  V30 16 C 3.00221 -1.11957 0.00989564 0
M  V30 17 C 4.04161 -1.32144 0.888631 0
M  V30 18 C 4.81418 -0.274059 1.37322 0
M  V30 19 C 4.56051 1.02364 0.982558 0
M  V30 20 C 3.52271 1.23529 0.105674 0
M  V30 21 C 2.74588 0.171234 -0.379554 0
M  V30 22 S 5.54793 2.35878 1.57267 0
M  V30 23 O 6.97261 1.92226 1.78819 0
M  V30 24 O 5.57907 3.47641 0.55895 0
M  V30 25 N 4.97487 2.96437 3.08588 0
M  V30 26 H 0.864324 -3.4976 0.700485 0
M  V30 27 H 2.49288 -4.20302 0.46546 0
M  V30 28 H 2.33442 -2.82628 1.5689 0
M  V30 29 H 2.83386 -2.80261 -1.24492 0
M  V30 30 H -0.953139 -0.162993 -1.9671 0
M  V30 31 H -1.65631 -1.72748 -1.60437 0
M  V30 32 H -2.38376 -1.30503 0.462025 0
M  V30 33 H -3.52866 2.39355 1.06892 0
M  V30 34 H -5.41015 2.95914 -0.435249 0
M  V30 35 H -6.14384 0.277497 0.767093 0
M  V30 36 H -7.05389 1.86442 0.629106 0
M  V30 37 H -5.75899 1.65672 1.80919 0
M  V30 38 H -5.36865 0.0890842 -1.33412 0
M  V30 39 H -4.65217 1.43994 -2.38219 0
M  V30 40 H -6.42802 1.39293 -1.89201 0
M  V30 41 H -1.96013 1.89124 -1.03248 0
M  V30 42 H -3.30271 2.78772 -1.71988 0
M  V30 43 H 0.0439969 -2.93544 -2.72371 0
M  V30 44 H 1.76089 -2.43833 -3.00604 0
M  V30 45 H 0.434104 -1.19277 -3.01289 0
M  V30 46 H 4.26055 -2.33742 1.21133 0
M  V30 47 H 5.63846 -0.411763 2.07237 0
M  V30 48 H 3.31458 2.24959 -0.20297 0
M  V30 49 H 1.93335 0.376375 -1.06083 0
M  V30 50 H 4.76737 2.17557 3.75376 0
M  V30 51 H 5.67989 3.61892 3.51472 0
M  V30 END ATOM
M  V30 BEGIN BOND
M  V30 1 1 1 2
M  V30 2 1 2 3
M  V30 3 1 3 4
M  V30 4 2 4 5
M  V30 5 1 4 6
M  V30 6 1 6 7
M  V30 7 1 7 8
M  V30 8 2 8 9
M  V30 9 1 8 10
M  V30 10 1 10 11
M  V30 11 1 11 12
M  V30 12 1 11 13
M  V30 13 1 10 14
M  V30 14 1 3 15
M  V30 15 1 2 16
M  V30 16 2 16 17
M  V30 17 1 17 18
M  V30 18 2 18 19
M  V30 19 1 19 20
M  V30 20 2 20 21
M  V30 21 1 19 22
M  V30 22 2 22 23
M  V30 23 2 22 24
M  V30 24 1 22 25
M  V30 25 1 21 16
M  V30 26 1 1 26
M  V30 27 1 1 27
M  V30 28 1 1 28
M  V30 29 1 2 29
M  V30 30 1 6 30
M  V30 31 1 6 31
M  V30 32 1 7 32
M  V30 33 1 10 33 CFG=1
M  V30 34 1 11 34
M  V30 35 1 12 35
M  V30 36 1 12 36
M  V30 37 1 12 37
M  V30 38 1 13 38
M  V30 39 1 13 39
M  V30 40 1 13 40
M  V30 41 1 14 41
M  V30 42 1 14 42
M  V30 43 1 15 43
M  V30 44 1 15 44
M  V30 45 1 15 45
M  V30 46 1 17 46
M  V30 47 1 18 47
M  V30 48 1 20 48
M  V30 49 1 21 49
M  V30 50 1 25 50
M  V30 51 1 25 51
M  V30 END BOND
M  V30 END CTAB
M  END
