
     RDKit          3D

  0  0  0  0  0  0  0  0  0  0999 V3000
M  V30 BEGIN CTAB
M  V30 COUNTS 23 23 0 0 0
M  V30 BEGIN ATOM
M  V30 1 N 2.37531 0.971997 -0.356244 0
M  V30 2 C 1.95531 -0.0146814 0.612955 0
M  V30 3 C 0.538344 -0.502229 0.341536 0
M  V30 4 N 0.220519 -1.48236 1.36595 0
M  V30 5 C 0.400501 -1.05356 -1.03904 0
M  V30 6 S -1.35813 -0.686136 -1.42821 0
M  V30 7 C -1.76716 0.0767198 0.165407 0
M  V30 8 C -0.4034 0.653116 0.48535 0
M  V30 9 C -2.83001 1.12629 0.0555689 0
M  V30 10 H 2.73737 1.85154 0.105512 0
M  V30 11 H 3.13389 0.634521 -0.978986 0
M  V30 12 H 2.67391 -0.874983 0.51475 0
M  V30 13 H 2.00309 0.38798 1.63621 0
M  V30 14 H -0.502085 -2.15013 1.02025 0
M  V30 15 H 1.10545 -2.00181 1.62887 0
M  V30 16 H 1.07754 -0.640247 -1.78189 0
M  V30 17 H 0.53722 -2.1603 -0.976477 0
M  V30 18 H -2.08677 -0.707045 0.843353 0
M  V30 19 H -0.321732 1.06818 1.48404 0
M  V30 20 H -0.165131 1.39258 -0.321552 0
M  V30 21 H -3.07435 1.43593 1.09336 0
M  V30 22 H -2.51437 2.02898 -0.48082 0
M  V30 23 H -3.73531 0.645667 -0.362099 0
M  V30 END ATOM
M  V30 BEGIN BOND
M  V30 1 1 1 2
M  V30 2 1 2 3
M  V30 3 1 3 4
M  V30 4 1 3 5
M  V30 5 1 5 6
M  V30 6 1 6 7
M  V30 7 1 7 8
M  V30 8 1 7 9
M  V30 9 1 8 3
M  V30 10 1 1 10
M  V30 11 1 1 11
M  V30 12 1 2 12
M  V30 13 1 2 13
M  V30 14 1 4 14
M  V30 15 1 4 15
M  V30 16 1 5 16
M  V30 17 1 5 17
M  V30 18 1 7 18
M  V30 19 1 8 19
M  V30 20 1 8 20
M  V30 21 1 9 21
M  V30 22 1 9 22
M  V30 23 1 9 23
M  V30 END BOND
M  V30 END CTAB
M  END
