
     RDKit          3D

  0  0  0  0  0  0  0  0  0  0999 V3000
M  V30 BEGIN CTAB
M  V30 COUNTS 23 23 0 0 0
M  V30 BEGIN ATOM
M  V30 1 C -2.84211 -0.542979 1.8242 0
M  V30 2 C -2.65916 -0.330985 0.327618 0
M  V30 3 C -1.2529 0.0499787 0.0299145 0
M  V30 4 N -0.91999 1.3558 0.0294872 0
M  V30 5 C 0.328149 1.78697 -0.22891 0
M  V30 6 N 0.645673 3.17066 -0.223474 0
M  V30 7 C 1.25946 0.81035 -0.497096 0
M  V30 8 C 0.959375 -0.533933 -0.507552 0
M  V30 9 N -0.304884 -0.893111 -0.240854 0
M  V30 10 C 1.99512 -1.56199 -0.805924 0
M  V30 11 N 1.70353 -2.71536 -0.807366 0
M  V30 12 N 3.33366 -1.10156 -1.08363 0
M  V30 13 H -1.88695 -0.835291 2.28912 0
M  V30 14 H -3.23916 0.381113 2.31378 0
M  V30 15 H -3.61487 -1.33146 2.02455 0
M  V30 16 H -2.92829 -1.30128 -0.161138 0
M  V30 17 H -3.35868 0.478686 0.0145991 0
M  V30 18 H 1.61864 3.53802 -0.033149 0
M  V30 19 H -0.0663896 3.8959 -0.407978 0
M  V30 20 H 2.26957 1.11013 -0.708501 0
M  V30 21 H 1.35083 -3.5639 -0.776534 0
M  V30 22 H 3.45687 -0.269544 -1.66325 0
M  V30 23 H 4.1525 -1.59621 -0.707917 0
M  V30 END ATOM
M  V30 BEGIN BOND
M  V30 1 1 1 2
M  V30 2 1 2 3
M  V30 3 2 3 4
M  V30 4 1 4 5
M  V30 5 1 5 6
M  V30 6 2 5 7
M  V30 7 1 7 8
M  V30 8 2 8 9
M  V30 9 1 8 10
M  V30 10 2 10 11 CFG=2
M  V30 11 1 10 12
M  V30 12 1 9 3
M  V30 13 1 1 13
M  V30 14 1 1 14
M  V30 15 1 1 15
M  V30 16 1 2 16
M  V30 17 1 2 17
M  V30 18 1 6 18
M  V30 19 1 6 19
M  V30 20 1 7 20
M  V30 21 1 11 21
M  V30 22 1 12 22
M  V30 23 1 12 23
M  V30 END BOND
M  V30 END CTAB
M  END
