
     RDKit          3D

  0  0  0  0  0  0  0  0  0  0999 V3000
M  V30 BEGIN CTAB
M  V30 COUNTS 38 40 0 0 0
M  V30 BEGIN ATOM
M  V30 1 N -2.62136 0.380276 -0.539387 0
M  V30 2 C -2.09629 -0.825441 -0.000979803 0
M  V30 3 N -2.91855 -1.90945 -0.0268517 0
M  V30 4 C -2.49353 -3.08396 0.456907 0
M  V30 5 S -3.46281 -4.41979 0.442102 0
M  V30 6 N -1.25829 -3.20134 0.969172 0
M  V30 7 C -0.417832 -2.16306 1.01467 0
M  V30 8 O 0.720505 -2.35116 1.50837 0
M  V30 9 C -0.833216 -0.913909 0.514495 0
M  V30 10 C 0.143825 0.158181 0.601024 0
M  V30 11 C 1.47171 -0.199684 0.00461184 0
M  V30 12 C 1.61401 -0.689248 -1.26881 0
M  V30 13 N 0.431721 -0.938313 -2.02909 0
M  V30 14 N 2.83818 -0.969881 -1.81452 0
M  V30 15 C 3.91526 -0.750229 -1.05585 0
M  V30 16 S 5.37819 -1.09274 -1.72648 0
M  V30 17 N 3.87219 -0.279947 0.185451 0
M  V30 18 C 2.65701 -0.00855794 0.706086 0
M  V30 19 O 2.57814 0.440644 1.8824 0
M  V30 20 C -0.230396 1.54587 0.466381 0
M  V30 21 C -0.914101 2.21963 1.48691 0
M  V30 22 C -1.25891 3.54257 1.4188 0
M  V30 23 C -0.928592 4.26356 0.305431 0
M  V30 24 N -0.274085 3.62995 -0.677889 0
M  V30 25 C 0.0722671 2.32324 -0.622249 0
M  V30 26 H -3.28023 1.00537 -0.0324161 0
M  V30 27 H -2.35047 0.660062 -1.50475 0
M  V30 28 H -3.86193 -1.78219 -0.428234 0
M  V30 29 H -0.953881 -4.14157 1.34238 0
M  V30 30 H 0.427928 0.0884352 1.7513 0
M  V30 31 H -0.0362115 -0.164984 -2.54498 0
M  V30 32 H 0.00500763 -1.88212 -2.09344 0
M  V30 33 H 2.88319 -1.33334 -2.77222 0
M  V30 34 H 4.76509 -0.140906 0.701308 0
M  V30 35 H -1.19546 1.675 2.39404 0
M  V30 36 H -1.79531 4.02156 2.24889 0
M  V30 37 H -1.19464 5.32001 0.23139 0
M  V30 38 H 0.601854 1.96747 -1.49399 0
M  V30 END ATOM
M  V30 BEGIN BOND
M  V30 1 1 1 2
M  V30 2 1 2 3
M  V30 3 1 3 4
M  V30 4 2 4 5
M  V30 5 1 4 6
M  V30 6 1 6 7
M  V30 7 2 7 8
M  V30 8 1 7 9
M  V30 9 1 9 10
M  V30 10 1 10 11
M  V30 11 2 11 12
M  V30 12 1 12 13
M  V30 13 1 12 14
M  V30 14 1 14 15
M  V30 15 2 15 16
M  V30 16 1 15 17
M  V30 17 1 17 18
M  V30 18 2 18 19
M  V30 19 1 10 20
M  V30 20 2 20 21
M  V30 21 1 21 22
M  V30 22 2 22 23
M  V30 23 1 23 24
M  V30 24 2 24 25
M  V30 25 2 9 2
M  V30 26 1 18 11
M  V30 27 1 25 20
M  V30 28 1 1 26
M  V30 29 1 1 27
M  V30 30 1 3 28
M  V30 31 1 6 29
M  V30 32 1 10 30
M  V30 33 1 13 31
M  V30 34 1 13 32
M  V30 35 1 14 33
M  V30 36 1 17 34
M  V30 37 1 21 35
M  V30 38 1 22 36
M  V30 39 1 23 37
M  V30 40 1 25 38
M  V30 END BOND
M  V30 END CTAB
M  END
