
     RDKit          3D

  0  0  0  0  0  0  0  0  0  0999 V3000
M  V30 BEGIN CTAB
M  V30 COUNTS 43 46 0 0 0
M  V30 BEGIN ATOM
M  V30 1 N 2.09923 2.81654 -1.87079 0
M  V30 2 C 1.24314 2.34694 -1.2491 0
M  V30 3 C 0.137894 1.76973 -0.497462 0
M  V30 4 C -0.66401 2.64934 0.202548 0
M  V30 5 N -0.304282 4.01586 0.256134 0
M  V30 6 N -1.78555 2.20779 0.833853 0
M  V30 7 C -2.15815 0.937297 0.810942 0
M  V30 8 C -1.34585 0.0208806 0.10128 0
M  V30 9 C -0.204161 0.448109 -0.54598 0
M  V30 10 C 0.680763 -0.534953 -1.15916 0
M  V30 11 C 0.187177 -1.47117 -2.09677 0
M  V30 12 C 1.21319 -2.32287 -2.40668 0
M  V30 13 C 2.30125 -1.9132 -1.67338 0
M  V30 14 N 1.95538 -0.818989 -0.914158 0
M  V30 15 C 2.86375 -0.238976 0.0141055 0
M  V30 16 C 4.15145 0.0464979 -0.357215 0
M  V30 17 C 5.04786 0.572846 0.524268 0
M  V30 18 C 4.69033 0.837645 1.82453 0
M  V30 19 C 3.38571 0.543113 2.18225 0
M  V30 20 N 2.51621 0.0247625 1.30009 0
M  V30 21 C -1.82577 -1.36093 0.177134 0
M  V30 22 C -3.27939 -1.47307 -0.254093 0
M  V30 23 C -4.15075 -0.50655 0.50427 0
M  V30 24 C -3.38004 0.381614 1.4624 0
M  V30 25 N -3.77991 -2.8173 -0.0862103 0
M  V30 26 H -0.358502 4.53544 1.14442 0
M  V30 27 H 0.0140788 4.494 -0.599825 0
M  V30 28 H -0.819753 -1.48828 -2.48146 0
M  V30 29 H 1.1784 -3.15593 -3.09338 0
M  V30 30 H 3.26183 -2.36445 -1.68495 0
M  V30 31 H 4.42452 -0.167176 -1.39009 0
M  V30 32 H 6.06407 0.789155 0.200019 0
M  V30 33 H 5.39183 1.26242 2.55915 0
M  V30 34 H 3.12561 0.761601 3.2181 0
M  V30 35 H -1.8911 -1.57461 1.31048 0
M  V30 36 H -1.1894 -2.15053 -0.182584 0
M  V30 37 H -3.32974 -1.20894 -1.32737 0
M  V30 38 H -4.72032 0.117965 -0.179948 0
M  V30 39 H -4.86765 -1.0946 1.1101 0
M  V30 40 H -4.07619 1.19386 1.75712 0
M  V30 41 H -3.12801 -0.15752 2.41083 0
M  V30 42 H -4.13908 -2.90001 0.912485 0
M  V30 43 H -4.53605 -3.05336 -0.765884 0
M  V30 END ATOM
M  V30 BEGIN BOND
M  V30 1 3 1 2
M  V30 2 1 2 3
M  V30 3 2 3 4
M  V30 4 1 4 5
M  V30 5 1 4 6
M  V30 6 2 6 7
M  V30 7 1 7 8
M  V30 8 2 8 9
M  V30 9 1 9 10
M  V30 10 2 10 11
M  V30 11 1 11 12
M  V30 12 2 12 13
M  V30 13 1 13 14
M  V30 14 1 14 15
M  V30 15 2 15 16
M  V30 16 1 16 17
M  V30 17 2 17 18
M  V30 18 1 18 19
M  V30 19 2 19 20
M  V30 20 1 8 21
M  V30 21 1 21 22
M  V30 22 1 22 23
M  V30 23 1 23 24
M  V30 24 1 22 25
M  V30 25 1 9 3
M  V30 26 1 14 10
M  V30 27 1 20 15
M  V30 28 1 24 7
M  V30 29 1 5 26
M  V30 30 1 5 27
M  V30 31 1 11 28
M  V30 32 1 12 29
M  V30 33 1 13 30
M  V30 34 1 16 31
M  V30 35 1 17 32
M  V30 36 1 18 33
M  V30 37 1 19 34
M  V30 38 1 21 35
M  V30 39 1 21 36
M  V30 40 1 22 37
M  V30 41 1 23 38
M  V30 42 1 23 39
M  V30 43 1 24 40
M  V30 44 1 24 41
M  V30 45 1 25 42
M  V30 46 1 25 43
M  V30 END BOND
M  V30 END CTAB
M  END
