
     RDKit          3D

  0  0  0  0  0  0  0  0  0  0999 V3000
M  V30 BEGIN CTAB
M  V30 COUNTS 56 59 0 0 0
M  V30 BEGIN ATOM
M  V30 1 N -6.88479 -0.690588 1.84324 0
M  V30 2 C -7.42891 0.417293 1.18055 0 CFG=1
M  V30 3 C -6.48273 1.58945 1.31851 0
M  V30 4 C -5.17672 1.21054 0.712622 0
M  V30 5 C -4.86515 1.46665 -0.60058 0
M  V30 6 C -3.64698 1.09603 -1.13737 0
M  V30 7 C -2.68147 0.44892 -0.377775 0
M  V30 8 C -2.99408 0.195993 0.927144 0
M  V30 9 C -4.22803 0.569617 1.47658 0
M  V30 10 C -1.4162 0.0736141 -0.96278 0
M  V30 11 N -1.19552 0.378902 -2.27597 0
M  V30 12 C -0.0500234 0.0673953 -2.90014 0
M  V30 13 N 0.198586 0.374737 -4.26224 0
M  V30 14 N 0.897287 -0.566617 -2.18711 0
M  V30 15 C 0.759937 -0.898372 -0.907066 0
M  V30 16 O 1.79271 -1.54887 -0.261985 0
M  V30 17 C 3.01479 -1.87306 -0.937359 0 CFG=1
M  V30 18 C 4.1522 -1.16359 -0.33083 0
M  V30 19 C 3.97421 0.213068 -0.133788 0
M  V30 20 C 4.94024 0.995807 0.427036 0
M  V30 21 C 6.13617 0.425987 0.81746 0
M  V30 22 C 6.33731 -0.910203 0.638211 0
M  V30 23 C 5.34274 -1.7099 0.0621483 0
M  V30 24 C 7.16085 1.28104 1.4194 0
M  V30 25 C 6.88277 2.3935 2.19247 0
M  V30 26 O 8.01164 2.92423 2.5692 0
M  V30 27 N 8.99209 2.22687 2.08955 0
M  V30 28 C 8.51427 1.18761 1.36282 0
M  V30 29 C 3.14858 -3.34893 -1.05391 0
M  V30 30 F 2.01324 -3.77561 -1.78095 0
M  V30 31 F 4.20416 -3.6659 -1.9004 0
M  V30 32 F 3.14993 -4.04265 0.114601 0
M  V30 33 C -0.428398 -0.572432 -0.268714 0
M  V30 34 C -7.68324 0.130726 -0.239212 0
M  V30 35 O -7.34149 -1.07571 -0.84662 0
M  V30 36 O -8.233 1.00232 -0.951183 0
M  V30 37 H -6.75253 -0.561803 2.80853 0
M  V30 38 H -6.22791 -1.21342 1.36915 0
M  V30 39 H -8.37732 0.740582 1.70461 0
M  V30 40 H -6.36144 1.90682 2.35891 0
M  V30 41 H -6.88268 2.46024 0.742812 0
M  V30 42 H -5.54742 1.9629 -1.25263 0
M  V30 43 H -3.39666 1.29571 -2.1725 0
M  V30 44 H -2.29112 -0.30636 1.58517 0
M  V30 45 H -4.45204 0.356202 2.51932 0
M  V30 46 H -0.291427 1.15341 -4.7631 0
M  V30 47 H 0.888251 -0.186417 -4.78838 0
M  V30 48 H 2.8994 -1.4828 -1.98892 0
M  V30 49 H 3.03974 0.703033 -0.429835 0
M  V30 50 H 4.79602 2.07965 0.580459 0
M  V30 51 H 7.27879 -1.3812 0.941083 0
M  V30 52 H 5.50421 -2.76735 -0.0724403 0
M  V30 53 H 5.87267 2.73593 2.42455 0
M  V30 54 H 9.08529 0.427704 0.837006 0
M  V30 55 H -0.560397 -0.834529 0.77446 0
M  V30 56 H -7.11034 -1.91614 -0.340273 0
M  V30 END ATOM
M  V30 BEGIN BOND
M  V30 1 1 1 2
M  V30 2 1 2 3
M  V30 3 1 3 4
M  V30 4 2 4 5
M  V30 5 1 5 6
M  V30 6 2 6 7
M  V30 7 1 7 8
M  V30 8 2 8 9
M  V30 9 1 7 10
M  V30 10 2 10 11
M  V30 11 1 11 12
M  V30 12 1 12 13
M  V30 13 2 12 14
M  V30 14 1 14 15
M  V30 15 1 15 16
M  V30 16 1 16 17
M  V30 17 1 17 18
M  V30 18 2 18 19
M  V30 19 1 19 20
M  V30 20 2 20 21
M  V30 21 1 21 22
M  V30 22 2 22 23
M  V30 23 1 21 24
M  V30 24 2 24 25
M  V30 25 1 25 26
M  V30 26 1 26 27
M  V30 27 2 27 28
M  V30 28 1 17 29
M  V30 29 1 29 30
M  V30 30 1 29 31
M  V30 31 1 29 32
M  V30 32 2 15 33
M  V30 33 1 2 34
M  V30 34 1 34 35
M  V30 35 2 34 36
M  V30 36 1 9 4
M  V30 37 1 33 10
M  V30 38 1 23 18
M  V30 39 1 28 24
M  V30 40 1 1 37
M  V30 41 1 1 38
M  V30 42 1 2 39 CFG=1
M  V30 43 1 3 40
M  V30 44 1 3 41
M  V30 45 1 5 42
M  V30 46 1 6 43
M  V30 47 1 8 44
M  V30 48 1 9 45
M  V30 49 1 13 46
M  V30 50 1 13 47
M  V30 51 1 17 48 CFG=3
M  V30 52 1 19 49
M  V30 53 1 20 50
M  V30 54 1 22 51
M  V30 55 1 23 52
M  V30 56 1 25 53
M  V30 57 1 28 54
M  V30 58 1 33 55
M  V30 59 1 35 56
M  V30 END BOND
M  V30 END CTAB
M  END
