
     RDKit          3D

  0  0  0  0  0  0  0  0  0  0999 V3000
M  V30 BEGIN CTAB
M  V30 COUNTS 52 55 0 0 0
M  V30 BEGIN ATOM
M  V30 1 N 7.04692 1.78423 1.30867 0
M  V30 2 C 6.21015 0.618296 1.5176 0
M  V30 3 C 5.78552 -0.0919806 0.248063 0
M  V30 4 C 4.42351 -0.297119 0.925315 0
M  V30 5 C 4.73777 0.956435 1.72666 0
M  V30 6 C 3.27718 -0.191712 0.0251833 0
M  V30 7 C 2.35367 -1.21109 -0.0229809 0
M  V30 8 C 1.23233 -1.1839 -0.856217 0
M  V30 9 N 1.12409 -0.0783434 -1.61215 0
M  V30 10 C 2.01452 0.92832 -1.58033 0
M  V30 11 N 3.08258 0.871264 -0.767613 0
M  V30 12 N 1.76224 2.03729 -2.44325 0
M  V30 13 N 0.304716 -2.25119 -0.883816 0
M  V30 14 C -0.855953 -2.22829 -1.71967 0
M  V30 15 C -1.8124 -1.14317 -1.43325 0
M  V30 16 C -2.03512 0.0262276 -2.12817 0
M  V30 17 N -2.9877 0.695902 -1.49824 0
M  V30 18 N -3.4229 0.0599844 -0.427457 0
M  V30 19 C -2.70723 -1.0858 -0.366323 0
M  V30 20 C -4.4347 0.47088 0.491827 0
M  V30 21 C -4.38215 0.116782 1.81179 0
M  V30 22 C -5.3551 0.50526 2.72416 0
M  V30 23 C -6.40962 1.27359 2.28559 0
M  V30 24 C -6.48624 1.64248 0.96706 0
M  V30 25 C -5.49462 1.24054 0.0617202 0
M  V30 26 C -5.58661 1.64053 -1.3466 0
M  V30 27 C 0.543029 -3.39755 -0.0386231 0
M  V30 28 H 8.03336 1.45029 1.3035 0
M  V30 29 H 6.85353 2.16702 0.356415 0
M  V30 30 H 6.60267 -0.125271 2.23993 0
M  V30 31 H 6.32545 -1.03765 0.0480557 0
M  V30 32 H 5.7151 0.625266 -0.579067 0
M  V30 33 H 4.47308 -1.21064 1.52301 0
M  V30 34 H 4.51074 1.88596 1.16731 0
M  V30 35 H 4.40158 0.922292 2.77162 0
M  V30 36 H 2.44671 -2.1119 0.596397 0
M  V30 37 H 1.54436 2.9872 -2.03811 0
M  V30 38 H 1.8031 1.86529 -3.47151 0
M  V30 39 H -1.40146 -3.20013 -1.72945 0
M  V30 40 H -0.511967 -2.09465 -2.7837 0
M  V30 41 H -1.53477 0.353956 -3.02554 0
M  V30 42 H -2.79248 -1.85771 0.381689 0
M  V30 43 H -3.54955 -0.48805 2.14995 0
M  V30 44 H -5.33595 0.2406 3.76289 0
M  V30 45 H -7.17791 1.58707 2.97778 0
M  V30 46 H -7.30734 2.24565 0.605768 0
M  V30 47 H -6.60427 2.05353 -1.53398 0
M  V30 48 H -5.5131 0.766319 -2.05737 0
M  V30 49 H -4.88434 2.45376 -1.62787 0
M  V30 50 H 1.58873 -3.75555 -0.255982 0
M  V30 51 H 0.502515 -3.1851 1.02947 0
M  V30 52 H -0.115673 -4.24545 -0.331585 0
M  V30 END ATOM
M  V30 BEGIN BOND
M  V30 1 1 1 2
M  V30 2 1 2 3
M  V30 3 1 3 4
M  V30 4 1 4 5
M  V30 5 1 4 6
M  V30 6 2 6 7
M  V30 7 1 7 8
M  V30 8 2 8 9
M  V30 9 1 9 10
M  V30 10 2 10 11
M  V30 11 1 10 12
M  V30 12 1 8 13
M  V30 13 1 13 14
M  V30 14 1 14 15
M  V30 15 1 15 16
M  V30 16 2 16 17
M  V30 17 1 17 18
M  V30 18 1 18 19
M  V30 19 1 18 20
M  V30 20 2 20 21
M  V30 21 1 21 22
M  V30 22 2 22 23
M  V30 23 1 23 24
M  V30 24 2 24 25
M  V30 25 1 25 26
M  V30 26 1 13 27
M  V30 27 1 5 2
M  V30 28 1 11 6
M  V30 29 2 19 15
M  V30 30 1 25 20
M  V30 31 1 1 28
M  V30 32 1 1 29
M  V30 33 1 2 30
M  V30 34 1 3 31
M  V30 35 1 3 32
M  V30 36 1 4 33
M  V30 37 1 5 34
M  V30 38 1 5 35
M  V30 39 1 7 36
M  V30 40 1 12 37
M  V30 41 1 12 38
M  V30 42 1 14 39
M  V30 43 1 14 40
M  V30 44 1 16 41
M  V30 45 1 19 42
M  V30 46 1 21 43
M  V30 47 1 22 44
M  V30 48 1 23 45
M  V30 49 1 24 46
M  V30 50 1 26 47
M  V30 51 1 26 48
M  V30 52 1 26 49
M  V30 53 1 27 50
M  V30 54 1 27 51
M  V30 55 1 27 52
M  V30 END BOND
M  V30 END CTAB
M  END
