
     RDKit          3D

  0  0  0  0  0  0  0  0  0  0999 V3000
M  V30 BEGIN CTAB
M  V30 COUNTS 34 34 0 0 0
M  V30 BEGIN ATOM
M  V30 1 C -2.1058 -2.32782 -1.00121 0
M  V30 2 C -1.13185 -1.48131 -0.206196 0
M  V30 3 C -1.33416 -0.0116062 -0.447826 0
M  V30 4 S -3.00829 0.369373 0.0561997 0
M  V30 5 O -3.12634 -0.0384504 1.49636 0
M  V30 6 O -4.00111 -0.449821 -0.714011 0
M  V30 7 C -3.3306 2.08805 -0.0908473 0
M  V30 8 C -0.410571 0.743074 0.492809 0
M  V30 9 C 1.02626 0.465449 0.264232 0
M  V30 10 C 1.57484 -0.0239648 -0.896124 0
M  V30 11 C 2.93623 -0.252102 -1.01115 0
M  V30 12 C 3.79243 0.00912266 0.050707 0
M  V30 13 C 3.2639 0.500275 1.22361 0
M  V30 14 C 1.91821 0.711623 1.29764 0
M  V30 15 N 5.1887 -0.211524 -0.029866 0
M  V30 16 N -0.714234 0.407413 1.85627 0
M  V30 17 H -1.54149 -3.27203 -1.25735 0
M  V30 18 H -2.37642 -1.87979 -1.96897 0
M  V30 19 H -2.97222 -2.66601 -0.40216 0
M  V30 20 H -1.45076 -1.63255 0.874411 0
M  V30 21 H -0.115614 -1.83431 -0.256641 0
M  V30 22 H -1.16402 0.277034 -1.50493 0
M  V30 23 H -3.90786 2.45838 0.790421 0
M  V30 24 H -3.98268 2.26225 -0.969709 0
M  V30 25 H -2.3984 2.68847 -0.123229 0
M  V30 26 H -0.557585 1.83703 0.379213 0
M  V30 27 H 0.884566 -0.22587 -1.72853 0
M  V30 28 H 3.35079 -0.638958 -1.93563 0
M  V30 29 H 3.94681 0.702899 2.05447 0
M  V30 30 H 1.51897 1.10329 2.24151 0
M  V30 31 H 5.67369 -0.0523588 -0.928386 0
M  V30 32 H 5.75229 -0.529031 0.781007 0
M  V30 33 H -1.14203 1.1332 2.41575 0
M  V30 34 H -0.0556526 -0.229434 2.31263 0
M  V30 END ATOM
M  V30 BEGIN BOND
M  V30 1 1 1 2
M  V30 2 1 2 3
M  V30 3 1 3 4
M  V30 4 2 4 5
M  V30 5 2 4 6
M  V30 6 1 4 7
M  V30 7 1 3 8
M  V30 8 1 8 9
M  V30 9 2 9 10
M  V30 10 1 10 11
M  V30 11 2 11 12
M  V30 12 1 12 13
M  V30 13 2 13 14
M  V30 14 1 12 15
M  V30 15 1 8 16
M  V30 16 1 14 9
M  V30 17 1 1 17
M  V30 18 1 1 18
M  V30 19 1 1 19
M  V30 20 1 2 20
M  V30 21 1 2 21
M  V30 22 1 3 22
M  V30 23 1 7 23
M  V30 24 1 7 24
M  V30 25 1 7 25
M  V30 26 1 8 26
M  V30 27 1 10 27
M  V30 28 1 11 28
M  V30 29 1 13 29
M  V30 30 1 14 30
M  V30 31 1 15 31
M  V30 32 1 15 32
M  V30 33 1 16 33
M  V30 34 1 16 34
M  V30 END BOND
M  V30 END CTAB
M  END
