
     RDKit          3D

  0  0  0  0  0  0  0  0  0  0999 V3000
M  V30 BEGIN CTAB
M  V30 COUNTS 24 25 0 0 0
M  V30 BEGIN ATOM
M  V30 1 N 4.43602 0.0434399 -1.03201 0
M  V30 2 C 3.04279 0.0226164 -0.662666 0
M  V30 3 N 2.5153 -1.00793 -0.00893905 0
M  V30 4 C 1.1918 -0.998441 0.327654 0
M  V30 5 C 0.357705 0.0471271 0.0156716 0
M  V30 6 C 0.955339 1.09766 -0.66617 0
M  V30 7 N 2.25566 1.04283 -0.972626 0
M  V30 8 C -1.09586 0.0377036 0.297469 0
M  V30 9 C -1.91679 1.15771 0.333309 0
M  V30 10 N -1.49798 2.50448 0.210917 0
M  V30 11 C -3.2445 0.75575 0.5468 0
M  V30 12 N -3.17754 -0.559255 0.630533 0
M  V30 13 N -1.91158 -1.00471 0.48453 0
M  V30 14 C -1.57702 -2.43132 0.500935 0
M  V30 15 H 4.91268 0.961391 -1.00419 0
M  V30 16 H 4.94946 -0.80705 -1.31338 0
M  V30 17 H 0.830527 -1.84667 0.889855 0
M  V30 18 H 0.417473 1.95296 -0.980148 0
M  V30 19 H -0.900524 2.94704 0.933621 0
M  V30 20 H -1.79685 3.04368 -0.612146 0
M  V30 21 H -4.06522 1.45071 0.611999 0
M  V30 22 H -1.20022 -2.76306 1.48486 0
M  V30 23 H -2.55106 -2.99296 0.327414 0
M  V30 24 H -0.92962 -2.65369 -0.343296 0
M  V30 END ATOM
M  V30 BEGIN BOND
M  V30 1 1 1 2
M  V30 2 2 2 3
M  V30 3 1 3 4
M  V30 4 2 4 5
M  V30 5 1 5 6
M  V30 6 2 6 7
M  V30 7 1 5 8
M  V30 8 2 8 9
M  V30 9 1 9 10
M  V30 10 1 9 11
M  V30 11 2 11 12
M  V30 12 1 12 13
M  V30 13 1 13 14
M  V30 14 1 7 2
M  V30 15 1 13 8
M  V30 16 1 1 15
M  V30 17 1 1 16
M  V30 18 1 4 17
M  V30 19 1 6 18
M  V30 20 1 10 19
M  V30 21 1 10 20
M  V30 22 1 11 21
M  V30 23 1 14 22
M  V30 24 1 14 23
M  V30 25 1 14 24
M  V30 END BOND
M  V30 END CTAB
M  END
