
     RDKit          3D

  0  0  0  0  0  0  0  0  0  0999 V3000
M  V30 BEGIN CTAB
M  V30 COUNTS 33 34 0 0 0
M  V30 BEGIN ATOM
M  V30 1 N -3.74522 1.76156 -1.16398 0
M  V30 2 C -3.43554 0.661549 -0.345948 0
M  V30 3 C -4.45486 -0.183358 0.0143536 0
M  V30 4 C -4.24611 -1.28343 0.811049 0
M  V30 5 C -2.95781 -1.508 1.24006 0
M  V30 6 C -1.9186 -0.655193 0.879311 0
M  V30 7 C -2.11859 0.429644 0.0934464 0
M  V30 8 C -1.10941 1.40412 -0.304011 0
M  V30 9 O 0.181971 1.20632 0.0185697 0
M  V30 10 C 0.874453 0.200162 -0.578657 0
M  V30 11 C 2.2821 0.0959701 -0.0744982 0
M  V30 12 C 3.10057 -0.884835 -0.595699 0
M  V30 13 N 2.57603 -1.75585 -1.58877 0
M  V30 14 C 4.40599 -0.979027 -0.12617 0
M  V30 15 C 4.85624 -0.108159 0.835045 0
M  V30 16 C 4.05309 0.871349 1.3616 0
M  V30 17 C 2.761 0.965398 0.89761 0
M  V30 18 H -3.54194 1.73716 -2.18066 0
M  V30 19 H -4.18041 2.60898 -0.75804 0
M  V30 20 H -5.48295 -0.023876 -0.313966 0
M  V30 21 H -5.03406 -1.96529 1.10865 0
M  V30 22 H -2.74488 -2.35193 1.86244 0
M  V30 23 H -0.958816 -0.906478 1.2903 0
M  V30 24 H -1.44862 2.39857 0.140094 0
M  V30 25 H -1.25402 1.61086 -1.41988 0
M  V30 26 H 0.391647 -0.766594 -0.461623 0
M  V30 27 H 0.911566 0.366026 -1.6984 0
M  V30 28 H 2.19903 -2.6859 -1.29401 0
M  V30 29 H 2.54638 -1.51483 -2.60773 0
M  V30 30 H 5.00971 -1.76422 -0.565245 0
M  V30 31 H 5.89739 -0.237382 1.16157 0
M  V30 32 H 4.46544 1.52515 2.11473 0
M  V30 33 H 2.11922 1.73156 1.30375 0
M  V30 END ATOM
M  V30 BEGIN BOND
M  V30 1 1 1 2
M  V30 2 2 2 3
M  V30 3 1 3 4
M  V30 4 2 4 5
M  V30 5 1 5 6
M  V30 6 2 6 7
M  V30 7 1 7 8
M  V30 8 1 8 9
M  V30 9 1 9 10
M  V30 10 1 10 11
M  V30 11 2 11 12
M  V30 12 1 12 13
M  V30 13 1 12 14
M  V30 14 2 14 15
M  V30 15 1 15 16
M  V30 16 2 16 17
M  V30 17 1 7 2
M  V30 18 1 17 11
M  V30 19 1 1 18
M  V30 20 1 1 19
M  V30 21 1 3 20
M  V30 22 1 4 21
M  V30 23 1 5 22
M  V30 24 1 6 23
M  V30 25 1 8 24
M  V30 26 1 8 25
M  V30 27 1 10 26
M  V30 28 1 10 27
M  V30 29 1 13 28
M  V30 30 1 13 29
M  V30 31 1 14 30
M  V30 32 1 15 31
M  V30 33 1 16 32
M  V30 34 1 17 33
M  V30 END BOND
M  V30 END CTAB
M  END
