
     RDKit          3D

  0  0  0  0  0  0  0  0  0  0999 V3000
M  V30 BEGIN CTAB
M  V30 COUNTS 26 27 0 0 0
M  V30 BEGIN ATOM
M  V30 1 N -3.96368 -0.498811 0.48094 0
M  V30 2 C -2.55241 -0.306874 0.284442 0
M  V30 3 C -1.66985 -1.30178 0.499005 0
M  V30 4 C -0.305403 -1.07653 0.297345 0
M  V30 5 N 0.52506 -2.18639 0.504856 0
M  V30 6 C 0.140715 0.139037 -0.112252 0
M  V30 7 C -0.800907 1.17446 -0.334861 0
M  V30 8 C -0.415978 2.42234 -0.76829 0
M  V30 9 C 0.890479 2.66404 -0.98543 0
M  V30 10 C 1.80397 1.68158 -0.774144 0
M  V30 11 C 1.50063 0.370154 -0.328104 0
M  V30 12 S 2.71546 -0.772702 -0.0275486 0
M  V30 13 O 3.0135 -1.28018 1.53192 0
M  V30 14 O 4.0267 0.0970839 -0.123639 0
M  V30 15 O 3.12063 -1.70992 -1.1255 0
M  V30 16 C -2.14107 0.934006 -0.131484 0
M  V30 17 H -4.33184 -1.33036 0.987513 0
M  V30 18 H -4.66916 0.182726 0.126191 0
M  V30 19 H -1.9741 -2.27944 0.824735 0
M  V30 20 H 0.71929 -2.48376 1.47749 0
M  V30 21 H 0.889383 -2.7272 -0.277348 0
M  V30 22 H -1.16379 3.1843 -0.926679 0
M  V30 23 H 1.21191 3.64187 -1.32846 0
M  V30 24 H 2.86507 1.88092 -0.956574 0
M  V30 25 H 3.40987 -2.16481 1.49482 0
M  V30 26 H -2.84448 1.74625 -0.308947 0
M  V30 END ATOM
M  V30 BEGIN BOND
M  V30 1 1 1 2
M  V30 2 2 2 3
M  V30 3 1 3 4
M  V30 4 1 4 5
M  V30 5 2 4 6
M  V30 6 1 6 7
M  V30 7 1 7 8
M  V30 8 2 8 9
M  V30 9 1 9 10
M  V30 10 2 10 11
M  V30 11 1 11 12
M  V30 12 1 12 13
M  V30 13 2 12 14
M  V30 14 2 12 15
M  V30 15 2 7 16
M  V30 16 1 16 2
M  V30 17 1 11 6
M  V30 18 1 1 17
M  V30 19 1 1 18
M  V30 20 1 3 19
M  V30 21 1 5 20
M  V30 22 1 5 21
M  V30 23 1 8 22
M  V30 24 1 9 23
M  V30 25 1 10 24
M  V30 26 1 13 25
M  V30 27 1 16 26
M  V30 END BOND
M  V30 END CTAB
M  END
