
     RDKit          3D

  0  0  0  0  0  0  0  0  0  0999 V3000
M  V30 BEGIN CTAB
M  V30 COUNTS 27 28 0 0 0
M  V30 BEGIN ATOM
M  V30 1 C -3.92074 0.0357883 0.570823 0
M  V30 2 C -2.84878 -0.0804901 -0.476749 0
M  V30 3 O -2.47905 -1.36391 -0.757209 0
M  V30 4 C -1.14478 -1.41686 -1.04469 0
M  V30 5 C -0.608063 -0.000368296 -1.05424 0
M  V30 6 C -1.58272 0.663291 -0.0696785 0
M  V30 7 C 0.772749 0.0998958 -0.599378 0
M  V30 8 N 1.71612 0.647197 -1.37647 0
M  V30 9 C 3.00071 0.741719 -0.956001 0
M  V30 10 N 3.9935 1.32366 -1.78732 0
M  V30 11 N 3.31652 0.275248 0.260112 0
M  V30 12 C 2.37944 -0.272885 1.0422 0
M  V30 13 N 1.12156 -0.353843 0.604123 0
M  V30 14 N 2.72918 -0.762237 2.32709 0
M  V30 15 H -4.89816 -0.0777599 0.0585272 0
M  V30 16 H -3.86747 1.04429 0.997709 0
M  V30 17 H -3.75535 -0.736757 1.34377 0
M  V30 18 H -3.19414 0.421075 -1.42054 0
M  V30 19 H -0.908103 -1.91875 -2.00962 0
M  V30 20 H -0.638622 -1.93141 -0.179579 0
M  V30 21 H -0.758581 0.415738 -2.07423 0
M  V30 22 H -1.65892 1.73862 -0.24277 0
M  V30 23 H -1.23824 0.377708 0.940229 0
M  V30 24 H 3.96176 2.30364 -2.12292 0
M  V30 25 H 4.79148 0.718429 -2.06636 0
M  V30 26 H 2.45039 -0.253958 3.17734 0
M  V30 27 H 3.2683 -1.63708 2.39632 0
M  V30 END ATOM
M  V30 BEGIN BOND
M  V30 1 1 1 2
M  V30 2 1 2 3
M  V30 3 1 3 4
M  V30 4 1 4 5
M  V30 5 1 5 6
M  V30 6 1 5 7
M  V30 7 2 7 8
M  V30 8 1 8 9
M  V30 9 1 9 10
M  V30 10 2 9 11
M  V30 11 1 11 12
M  V30 12 2 12 13
M  V30 13 1 12 14
M  V30 14 1 6 2
M  V30 15 1 13 7
M  V30 16 1 1 15
M  V30 17 1 1 16
M  V30 18 1 1 17
M  V30 19 1 2 18
M  V30 20 1 4 19
M  V30 21 1 4 20
M  V30 22 1 5 21
M  V30 23 1 6 22
M  V30 24 1 6 23
M  V30 25 1 10 24
M  V30 26 1 10 25
M  V30 27 1 14 26
M  V30 28 1 14 27
M  V30 END BOND
M  V30 END CTAB
M  END
