
     RDKit          3D

  0  0  0  0  0  0  0  0  0  0999 V3000
M  V30 BEGIN CTAB
M  V30 COUNTS 25 25 0 0 0
M  V30 BEGIN ATOM
M  V30 1 C -3.81236 -0.389247 -0.629887 0
M  V30 2 C -2.46978 -0.41866 0.0816254 0
M  V30 3 C -1.77203 0.892483 0.0158099 0
M  V30 4 C -0.458214 0.845891 0.746778 0
M  V30 5 C 0.560555 -0.0452359 0.188841 0
M  V30 6 N 0.490578 -1.19021 -0.477413 0
M  V30 7 N 1.67741 -1.63845 -0.832938 0
M  V30 8 C 2.57433 -0.749034 -0.379446 0
M  V30 9 C 1.9348 0.271947 0.269966 0
M  V30 10 N 2.50516 1.40594 0.913473 0
M  V30 11 N 3.99784 -0.789571 -0.501301 0
M  V30 12 H -3.65994 -0.70216 -1.67133 0
M  V30 13 H -4.4714 -1.09237 -0.0572852 0
M  V30 14 H -4.27025 0.610919 -0.628645 0
M  V30 15 H -2.61606 -0.678131 1.16523 0
M  V30 16 H -1.89125 -1.20053 -0.409292 0
M  V30 17 H -2.389 1.75919 0.38143 0
M  V30 18 H -1.5704 1.1638 -1.07147 0
M  V30 19 H -0.598757 0.523619 1.81603 0
M  V30 20 H -0.0509428 1.91384 0.745668 0
M  V30 21 H 1.88597 -2.50479 -1.36238 0
M  V30 22 H 2.60662 1.35946 1.95748 0
M  V30 23 H 2.80867 2.23921 0.407615 0
M  V30 24 H 4.42849 -0.188825 -1.23495 0
M  V30 25 H 4.55996 -1.39909 0.125005 0
M  V30 END ATOM
M  V30 BEGIN BOND
M  V30 1 1 1 2
M  V30 2 1 2 3
M  V30 3 1 3 4
M  V30 4 1 4 5
M  V30 5 2 5 6
M  V30 6 1 6 7
M  V30 7 1 7 8
M  V30 8 2 8 9
M  V30 9 1 9 10
M  V30 10 1 8 11
M  V30 11 1 9 5
M  V30 12 1 1 12
M  V30 13 1 1 13
M  V30 14 1 1 14
M  V30 15 1 2 15
M  V30 16 1 2 16
M  V30 17 1 3 17
M  V30 18 1 3 18
M  V30 19 1 4 19
M  V30 20 1 4 20
M  V30 21 1 7 21
M  V30 22 1 10 22
M  V30 23 1 10 23
M  V30 24 1 11 24
M  V30 25 1 11 25
M  V30 END BOND
M  V30 END CTAB
M  END
