
     RDKit          3D

  0  0  0  0  0  0  0  0  0  0999 V3000
M  V30 BEGIN CTAB
M  V30 COUNTS 22 22 0 0 0
M  V30 BEGIN ATOM
M  V30 1 C 4.13692 0.388004 0.0141972 0
M  V30 2 O 2.7318 0.55955 0.0118053 0
M  V30 3 C 1.83213 -0.495242 7.09546e-05 0
M  V30 4 O 2.30666 -1.65938 -0.00881742 0
M  V30 5 C 0.380558 -0.268129 -0.00196204 0
M  V30 6 C -0.455356 -1.35767 -0.0137938 0
M  V30 7 C -1.8309 -1.16527 -0.0159285 0
M  V30 8 N -2.66737 -2.3098 -0.028234 0
M  V30 9 C -2.34945 0.122846 -0.00611852 0
M  V30 10 C -1.5222 1.22031 0.00575595 0
M  V30 11 C -0.164163 0.992958 0.00753629 0
M  V30 12 N -2.08926 2.51712 0.0155057 0
M  V30 13 F -3.69995 0.282707 -0.00845404 0
M  V30 14 H 4.50959 0.833277 -0.92876 0
M  V30 15 H 4.40949 -0.66917 0.142282 0
M  V30 16 H 4.5603 0.951149 0.891052 0
M  V30 17 H -0.06641 -2.38391 -0.0216796 0
M  V30 18 H -2.93321 -2.75505 -0.922009 0
M  V30 19 H -3.0124 -2.69991 0.861943 0
M  V30 20 H 0.493552 1.85187 0.0168683 0
M  V30 21 H -1.71694 3.21539 -0.660516 0
M  V30 22 H -2.85339 2.82834 0.649256 0
M  V30 END ATOM
M  V30 BEGIN BOND
M  V30 1 1 1 2
M  V30 2 1 2 3
M  V30 3 2 3 4
M  V30 4 1 3 5
M  V30 5 2 5 6
M  V30 6 1 6 7
M  V30 7 1 7 8
M  V30 8 2 7 9
M  V30 9 1 9 10
M  V30 10 2 10 11
M  V30 11 1 10 12
M  V30 12 1 9 13
M  V30 13 1 11 5
M  V30 14 1 1 14
M  V30 15 1 1 15
M  V30 16 1 1 16
M  V30 17 1 6 17
M  V30 18 1 8 18
M  V30 19 1 8 19
M  V30 20 1 11 20
M  V30 21 1 12 21
M  V30 22 1 12 22
M  V30 END BOND
M  V30 END CTAB
M  END
