
     RDKit          3D

  0  0  0  0  0  0  0  0  0  0999 V3000
M  V30 BEGIN CTAB
M  V30 COUNTS 30 32 0 0 0
M  V30 BEGIN ATOM
M  V30 1 N -6.69843 -0.164975 -2.51793 0
M  V30 2 C -5.61634 -0.119471 -2.0895 0
M  V30 3 C -4.27377 -0.0385514 -1.55658 0
M  V30 4 N -3.18592 0.0131923 -2.34441 0
M  V30 5 N -1.97014 0.0870971 -1.80641 0
M  V30 6 C -1.84367 0.109347 -0.465404 0
M  V30 7 N -2.90475 0.05951 0.35891 0
M  V30 8 C -4.14799 -0.0158157 -0.169353 0
M  V30 9 N -5.26865 -0.068662 0.682685 0
M  V30 10 N -2.48939 0.0971109 1.63256 0
M  V30 11 C -1.14727 0.17182 1.61965 0
M  V30 12 C -0.704719 0.181675 0.311384 0
M  V30 13 N 0.624846 0.250159 -0.18991 0
M  V30 14 N 1.61064 -0.192245 0.429649 0
M  V30 15 C 2.95642 -0.15113 -0.0210634 0
M  V30 16 C 3.34635 -0.367538 -1.3231 0
M  V30 17 C 4.6769 -0.308043 -1.67193 0
M  V30 18 C 5.62475 -0.0306938 -0.714854 0
M  V30 19 C 5.25972 0.188545 0.589477 0
M  V30 20 C 3.92936 0.124685 0.915816 0
M  V30 21 N -0.328946 0.230511 2.77091 0
M  V30 22 H -5.66122 -0.981832 0.977034 0
M  V30 23 H -5.69205 0.822547 1.0088 0
M  V30 24 H 2.58781 -0.585104 -2.06651 0
M  V30 25 H 4.9927 -0.476593 -2.69198 0
M  V30 26 H 6.67551 0.0210832 -0.965737 0
M  V30 27 H 5.99566 0.407646 1.35188 0
M  V30 28 H 3.66636 0.304795 1.96922 0
M  V30 29 H -0.170823 1.07565 3.35091 0
M  V30 30 H 0.157049 -0.644717 3.06439 0
M  V30 END ATOM
M  V30 BEGIN BOND
M  V30 1 3 1 2
M  V30 2 1 2 3
M  V30 3 1 3 4
M  V30 4 2 4 5
M  V30 5 1 5 6
M  V30 6 1 6 7
M  V30 7 1 7 8
M  V30 8 1 8 9
M  V30 9 1 7 10
M  V30 10 2 10 11
M  V30 11 1 11 12
M  V30 12 1 12 13
M  V30 13 2 13 14
M  V30 14 1 14 15
M  V30 15 2 15 16
M  V30 16 1 16 17
M  V30 17 2 17 18
M  V30 18 1 18 19
M  V30 19 2 19 20
M  V30 20 1 11 21
M  V30 21 2 8 3
M  V30 22 1 20 15
M  V30 23 2 12 6
M  V30 24 1 9 22
M  V30 25 1 9 23
M  V30 26 1 16 24
M  V30 27 1 17 25
M  V30 28 1 18 26
M  V30 29 1 19 27
M  V30 30 1 20 28
M  V30 31 1 21 29
M  V30 32 1 21 30
M  V30 END BOND
M  V30 END CTAB
M  END
