
     RDKit          3D

  0  0  0  0  0  0  0  0  0  0999 V3000
M  V30 BEGIN CTAB
M  V30 COUNTS 30 30 0 0 0
M  V30 BEGIN ATOM
M  V30 1 C 3.33427 -0.610376 1.04081 0
M  V30 2 C 3.36632 0.374506 -0.0906935 0
M  V30 3 C 2.27917 1.05541 -0.424279 0
M  V30 4 C 1.03877 0.841778 0.320043 0
M  V30 5 N -0.0546022 0.370354 -0.503945 0
M  V30 6 C -1.30439 0.134254 0.13632 0
M  V30 7 N -1.49354 0.331994 1.4532 0
M  V30 8 C -2.63467 0.128198 2.09921 0
M  V30 9 C -3.73429 -0.321688 1.39701 0
M  V30 10 C -3.60316 -0.542863 0.0446594 0
M  V30 11 C -2.38986 -0.316326 -0.590705 0
M  V30 12 N -2.21937 -0.532018 -1.97357 0
M  V30 13 N -4.66781 -1.00382 -0.767868 0
M  V30 14 C 4.66244 0.560508 -0.826232 0
M  V30 15 H 4.33679 -1.01263 1.23154 0
M  V30 16 H 2.62453 -1.42886 0.854978 0
M  V30 17 H 3.03222 -0.0904856 1.99639 0
M  V30 18 H 2.35906 1.75351 -1.24941 0
M  V30 19 H 0.70978 1.84387 0.713743 0
M  V30 20 H 1.19546 0.133015 1.13851 0
M  V30 21 H 0.040678 0.205863 -1.50637 0
M  V30 22 H -2.70827 0.311781 3.16887 0
M  V30 23 H -4.6879 -0.50718 1.85749 0
M  V30 24 H -1.69823 0.0908116 -2.61839 0
M  V30 25 H -2.65256 -1.39529 -2.40312 0
M  V30 26 H -4.82103 -0.530395 -1.67814 0
M  V30 27 H -5.28188 -1.78681 -0.476436 0
M  V30 28 H 5.29999 1.31349 -0.290436 0
M  V30 29 H 5.22865 -0.380703 -0.912288 0
M  V30 30 H 4.44343 1.0101 -1.81618 0
M  V30 END ATOM
M  V30 BEGIN BOND
M  V30 1 1 1 2
M  V30 2 2 2 3 CFG=2
M  V30 3 1 3 4
M  V30 4 1 4 5
M  V30 5 1 5 6
M  V30 6 2 6 7
M  V30 7 1 7 8
M  V30 8 2 8 9
M  V30 9 1 9 10
M  V30 10 2 10 11
M  V30 11 1 11 12
M  V30 12 1 10 13
M  V30 13 1 2 14
M  V30 14 1 11 6
M  V30 15 1 1 15
M  V30 16 1 1 16
M  V30 17 1 1 17
M  V30 18 1 3 18
M  V30 19 1 4 19
M  V30 20 1 4 20
M  V30 21 1 5 21
M  V30 22 1 8 22
M  V30 23 1 9 23
M  V30 24 1 12 24
M  V30 25 1 12 25
M  V30 26 1 13 26
M  V30 27 1 13 27
M  V30 28 1 14 28
M  V30 29 1 14 29
M  V30 30 1 14 30
M  V30 END BOND
M  V30 END CTAB
M  END
