
     RDKit          3D

  0  0  0  0  0  0  0  0  0  0999 V3000
M  V30 BEGIN CTAB
M  V30 COUNTS 74 73 0 0 0
M  V30 BEGIN ATOM
M  V30 1 C 9.36782 -1.26369 -1.39877 0
M  V30 2 C 9.52701 -1.12637 0.065565 0
M  V30 3 C 9.07473 -2.39717 0.733961 0
M  V30 4 C 8.71306 0.0362677 0.600726 0 CFG=2
M  V30 5 N 8.91367 0.130032 2.0537 0
M  V30 6 C 7.2601 -0.189864 0.423974 0
M  V30 7 O 6.51634 -0.542691 1.39777 0
M  V30 8 N 6.66608 -0.0152022 -0.835559 0
M  V30 9 C 5.24682 -0.223835 -1.06393 0
M  V30 10 C 4.37153 0.679983 -0.274553 0
M  V30 11 C 2.86517 0.440725 -0.521535 0
M  V30 12 C 2.48208 0.66613 -1.92263 0
M  V30 13 C 1.11942 0.400239 -2.36596 0
M  V30 14 C -0.072082 1.05298 -1.80646 0
M  V30 15 C -0.436864 0.763976 -0.398643 0
M  V30 16 C -1.67428 1.55311 -0.00445791 0
M  V30 17 C -2.83318 1.16355 -0.85472 0
M  V30 18 C -4.05621 1.94977 -0.432529 0
M  V30 19 C -4.38452 1.6537 1.0009 0
M  V30 20 C -4.65299 0.207803 1.25948 0
M  V30 21 N -5.74653 -0.330588 0.499616 0
M  V30 22 C -7.06397 0.157227 0.629103 0
M  V30 23 O -7.31296 1.08619 1.42966 0
M  V30 24 C -8.18584 -0.418049 -0.179426 0 CFG=1
M  V30 25 N -7.63147 -1.46429 -1.01361 0
M  V30 26 C -9.2728 -0.968918 0.703214 0
M  V30 27 C -8.75577 -2.07006 1.60537 0
M  V30 28 C -9.90181 0.130048 1.50728 0
M  V30 29 H 10.1698 -1.96338 -1.78543 0
M  V30 30 H 8.41979 -1.78627 -1.68118 0
M  V30 31 H 9.53971 -0.330832 -1.97798 0
M  V30 32 H 10.5877 -0.886355 0.286955 0
M  V30 33 H 9.3706 -3.27306 0.11242 0
M  V30 34 H 7.97892 -2.43536 0.815223 0
M  V30 35 H 9.53684 -2.41615 1.74593 0
M  V30 36 H 9.09313 0.957366 0.144141 0
M  V30 37 H 8.13039 0.641008 2.50703 0
M  V30 38 H 9.84997 0.498059 2.28541 0
M  V30 39 H 7.26797 0.294425 -1.65623 0
M  V30 40 H 5.00426 -1.2753 -0.725329 0
M  V30 41 H 5.09817 -0.218273 -2.14297 0
M  V30 42 H 4.47708 0.578711 0.819309 0
M  V30 43 H 4.53096 1.75843 -0.493325 0
M  V30 44 H 2.42404 1.27761 0.119951 0
M  V30 45 H 2.53013 -0.504949 -0.121609 0
M  V30 46 H 3.22965 0.123363 -2.60359 0
M  V30 47 H 2.70054 1.76694 -2.1759 0
M  V30 48 H 0.954748 -0.739446 -2.22741 0
M  V30 49 H 1.1307 0.480207 -3.50984 0
M  V30 50 H -0.922013 0.800509 -2.51804 0
M  V30 51 H 0.0715035 2.16815 -1.88359 0
M  V30 52 H 0.365733 0.894065 0.310576 0
M  V30 53 H -0.681993 -0.342534 -0.35947 0
M  V30 54 H -1.40157 2.61935 -0.123715 0
M  V30 55 H -1.84139 1.37848 1.07958 0
M  V30 56 H -3.09642 0.0829097 -0.76457 0
M  V30 57 H -2.6355 1.31951 -1.94045 0
M  V30 58 H -3.7792 3.02116 -0.512503 0
M  V30 59 H -4.87358 1.65999 -1.09813 0
M  V30 60 H -5.26433 2.30295 1.26667 0
M  V30 61 H -3.58954 1.99892 1.69211 0
M  V30 62 H -3.73245 -0.404061 1.09381 0
M  V30 63 H -4.86616 0.0690728 2.35953 0
M  V30 64 H -5.59616 -1.12511 -0.194404 0
M  V30 65 H -8.65011 0.376568 -0.808244 0
M  V30 66 H -8.3681 -2.13295 -1.34809 0
M  V30 67 H -7.07676 -1.09628 -1.80348 0
M  V30 68 H -10.0445 -1.40048 0.0413013 0
M  V30 69 H -9.56789 -2.80956 1.74294 0
M  V30 70 H -8.53009 -1.67988 2.63132 0
M  V30 71 H -7.86931 -2.56247 1.15248 0
M  V30 72 H -10.9937 -0.077053 1.5995 0
M  V30 73 H -9.47784 0.234342 2.51958 0
M  V30 74 H -9.74622 1.09666 0.98028 0
M  V30 END ATOM
M  V30 BEGIN BOND
M  V30 1 1 1 2
M  V30 2 1 2 3
M  V30 3 1 2 4
M  V30 4 1 4 5
M  V30 5 1 4 6
M  V30 6 2 6 7
M  V30 7 1 6 8
M  V30 8 1 8 9
M  V30 9 1 9 10
M  V30 10 1 10 11
M  V30 11 1 11 12
M  V30 12 1 12 13
M  V30 13 1 13 14
M  V30 14 1 14 15
M  V30 15 1 15 16
M  V30 16 1 16 17
M  V30 17 1 17 18
M  V30 18 1 18 19
M  V30 19 1 19 20
M  V30 20 1 20 21
M  V30 21 1 21 22
M  V30 22 2 22 23
M  V30 23 1 22 24
M  V30 24 1 24 25
M  V30 25 1 24 26
M  V30 26 1 26 27
M  V30 27 1 26 28
M  V30 28 1 1 29
M  V30 29 1 1 30
M  V30 30 1 1 31
M  V30 31 1 2 32
M  V30 32 1 3 33
M  V30 33 1 3 34
M  V30 34 1 3 35
M  V30 35 1 4 36 CFG=3
M  V30 36 1 5 37
M  V30 37 1 5 38
M  V30 38 1 8 39
M  V30 39 1 9 40
M  V30 40 1 9 41
M  V30 41 1 10 42
M  V30 42 1 10 43
M  V30 43 1 11 44
M  V30 44 1 11 45
M  V30 45 1 12 46
M  V30 46 1 12 47
M  V30 47 1 13 48
M  V30 48 1 13 49
M  V30 49 1 14 50
M  V30 50 1 14 51
M  V30 51 1 15 52
M  V30 52 1 15 53
M  V30 53 1 16 54
M  V30 54 1 16 55
M  V30 55 1 17 56
M  V30 56 1 17 57
M  V30 57 1 18 58
M  V30 58 1 18 59
M  V30 59 1 19 60
M  V30 60 1 19 61
M  V30 61 1 20 62
M  V30 62 1 20 63
M  V30 63 1 21 64
M  V30 64 1 24 65 CFG=3
M  V30 65 1 25 66
M  V30 66 1 25 67
M  V30 67 1 26 68
M  V30 68 1 27 69
M  V30 69 1 27 70
M  V30 70 1 27 71
M  V30 71 1 28 72
M  V30 72 1 28 73
M  V30 73 1 28 74
M  V30 END BOND
M  V30 END CTAB
M  END
