
     RDKit          3D

  0  0  0  0  0  0  0  0  0  0999 V3000
M  V30 BEGIN CTAB
M  V30 COUNTS 27 28 0 0 0
M  V30 BEGIN ATOM
M  V30 1 N 3.60571 0.635398 -1.46864 0
M  V30 2 C 2.72383 0.224678 -0.413816 0
M  V30 3 C 3.26376 0.0133838 0.854209 0
M  V30 4 C 2.42926 -0.383298 1.89001 0
M  V30 5 N 1.12685 -0.542857 1.59856 0
M  V30 6 C 0.593775 -0.345649 0.383365 0
M  V30 7 N 1.42372 0.0392219 -0.606638 0
M  V30 8 C -0.855547 -0.518492 0.112368 0
M  V30 9 N -1.2659 -1.85464 -0.0610224 0
M  V30 10 C -1.69923 0.247991 1.1162 0
M  V30 11 C -2.82855 0.864335 0.366172 0
M  V30 12 C -2.70966 0.298395 -1.04242 0
M  V30 13 C -1.20289 0.264878 -1.17039 0
M  V30 14 H 3.52437 0.145698 -2.37318 0
M  V30 15 H 4.27477 1.39465 -1.2938 0
M  V30 16 H 4.32137 0.153044 1.06708 0
M  V30 17 H 2.8344 -0.554804 2.89004 0
M  V30 18 H -0.795623 -2.51451 0.554516 0
M  V30 19 H -1.10667 -2.13087 -1.06898 0
M  V30 20 H -1.99557 -0.391832 1.96905 0
M  V30 21 H -1.07659 1.05394 1.55511 0
M  V30 22 H -2.77411 1.97137 0.342088 0
M  V30 23 H -3.81854 0.604398 0.733494 0
M  V30 24 H -3.172 0.989993 -1.76679 0
M  V30 25 H -3.16022 -0.719686 -1.02535 0
M  V30 26 H -0.842126 -0.245625 -2.07833 0
M  V30 27 H -0.818592 1.3009 -1.0629 0
M  V30 END ATOM
M  V30 BEGIN BOND
M  V30 1 1 1 2
M  V30 2 2 2 3
M  V30 3 1 3 4
M  V30 4 2 4 5
M  V30 5 1 5 6
M  V30 6 2 6 7
M  V30 7 1 6 8
M  V30 8 1 8 9
M  V30 9 1 8 10
M  V30 10 1 10 11
M  V30 11 1 11 12
M  V30 12 1 12 13
M  V30 13 1 7 2
M  V30 14 1 13 8
M  V30 15 1 1 14
M  V30 16 1 1 15
M  V30 17 1 3 16
M  V30 18 1 4 17
M  V30 19 1 9 18
M  V30 20 1 9 19
M  V30 21 1 10 20
M  V30 22 1 10 21
M  V30 23 1 11 22
M  V30 24 1 11 23
M  V30 25 1 12 24
M  V30 26 1 12 25
M  V30 27 1 13 26
M  V30 28 1 13 27
M  V30 END BOND
M  V30 END CTAB
M  END
