
     RDKit          3D

  0  0  0  0  0  0  0  0  0  0999 V3000
M  V30 BEGIN CTAB
M  V30 COUNTS 33 34 0 0 0
M  V30 BEGIN ATOM
M  V30 1 N -0.587131 -2.37165 -2.43675 0
M  V30 2 C -1.09849 -1.57744 -1.76686 0
M  V30 3 C -1.74496 -0.608189 -0.961077 0
M  V30 4 C -1.05121 0.433021 -0.399204 0
M  V30 5 C 0.418754 0.602157 -0.599972 0
M  V30 6 C 1.15882 -0.376552 0.269847 0
M  V30 7 C 2.63083 -0.245083 0.105279 0
M  V30 8 C 3.28305 0.641123 0.924414 0
M  V30 9 C 4.65458 0.83339 0.844281 0
M  V30 10 C 5.39501 0.124973 -0.0750436 0
M  V30 11 C 4.73457 -0.763736 -0.895009 0
M  V30 12 C 3.37083 -0.955761 -0.816105 0
M  V30 13 N -1.71283 1.32555 0.353996 0
M  V30 14 C -3.03119 1.26944 0.600795 0
M  V30 15 C -3.77125 0.219574 0.042971 0
M  V30 16 C -3.09868 -0.699141 -0.730657 0
M  V30 17 N -3.8688 -1.75778 -1.28825 0
M  V30 18 C -5.18913 0.142257 0.295144 0
M  V30 19 N -6.33127 0.0976882 0.504391 0
M  V30 20 N -3.70538 2.22315 1.39914 0
M  V30 21 H 0.713501 1.61477 -0.267181 0
M  V30 22 H 0.688394 0.532278 -1.66145 0
M  V30 23 H 0.868584 -1.40633 0.0538037 0
M  V30 24 H 0.892779 -0.154981 1.31812 0
M  V30 25 H 2.76243 1.23969 1.67876 0
M  V30 26 H 5.19026 1.52946 1.48227 0
M  V30 27 H 6.46453 0.246683 -0.168239 0
M  V30 28 H 5.31234 -1.32798 -1.62445 0
M  V30 29 H 2.84776 -1.66197 -1.46854 0
M  V30 30 H -4.431 -1.62586 -2.14353 0
M  V30 31 H -3.84445 -2.67667 -0.798585 0
M  V30 32 H -3.32867 3.17415 1.5339 0
M  V30 33 H -4.59258 1.95975 1.85545 0
M  V30 END ATOM
M  V30 BEGIN BOND
M  V30 1 3 1 2
M  V30 2 1 2 3
M  V30 3 2 3 4
M  V30 4 1 4 5
M  V30 5 1 5 6
M  V30 6 1 6 7
M  V30 7 2 7 8
M  V30 8 1 8 9
M  V30 9 2 9 10
M  V30 10 1 10 11
M  V30 11 2 11 12
M  V30 12 1 4 13
M  V30 13 2 13 14
M  V30 14 1 14 15
M  V30 15 2 15 16
M  V30 16 1 16 17
M  V30 17 1 15 18
M  V30 18 3 18 19
M  V30 19 1 14 20
M  V30 20 1 16 3
M  V30 21 1 12 7
M  V30 22 1 5 21
M  V30 23 1 5 22
M  V30 24 1 6 23
M  V30 25 1 6 24
M  V30 26 1 8 25
M  V30 27 1 9 26
M  V30 28 1 10 27
M  V30 29 1 11 28
M  V30 30 1 12 29
M  V30 31 1 17 30
M  V30 32 1 17 31
M  V30 33 1 20 32
M  V30 34 1 20 33
M  V30 END BOND
M  V30 END CTAB
M  END
