
     RDKit          3D

  0  0  0  0  0  0  0  0  0  0999 V3000
M  V30 BEGIN CTAB
M  V30 COUNTS 23 23 0 0 0
M  V30 BEGIN ATOM
M  V30 1 C 4.34446 0.616051 -0.514751 0
M  V30 2 O 2.94928 0.695841 -0.726721 0
M  V30 3 C 2.12028 -0.0631063 0.0993628 0
M  V30 4 O 2.61758 -0.788065 0.997264 0
M  V30 5 C 0.680054 -0.0421709 -0.0469159 0
M  V30 6 C -0.127384 -0.796876 0.776018 0
M  V30 7 C -1.50398 -0.826022 0.694253 0
M  V30 8 N -2.32145 -1.60512 1.54515 0
M  V30 9 C -2.12927 -0.0462865 -0.279152 0
M  V30 10 C -1.32937 0.713238 -1.10841 0
M  V30 11 C 0.0461835 0.735526 -1.01864 0
M  V30 12 O -1.98082 1.49284 -2.08388 0
M  V30 13 N -3.54133 -0.0154779 -0.434684 0
M  V30 14 H 4.62497 0.0849359 0.397615 0
M  V30 15 H 4.77273 1.6288 -0.60774 0
M  V30 16 H 4.74889 0.025238 -1.38883 0
M  V30 17 H 0.304324 -1.43434 1.56512 0
M  V30 18 H -3.12066 -2.13302 1.14532 0
M  V30 19 H -2.12132 -1.64544 2.55413 0
M  V30 20 H 0.62683 1.33186 -1.67373 0
M  V30 21 H -1.49413 2.07033 -2.72457 0
M  V30 22 H -4.02352 -0.142299 -1.34015 0
M  V30 23 H -4.14235 0.143566 0.404747 0
M  V30 END ATOM
M  V30 BEGIN BOND
M  V30 1 1 1 2
M  V30 2 1 2 3
M  V30 3 2 3 4
M  V30 4 1 3 5
M  V30 5 2 5 6
M  V30 6 1 6 7
M  V30 7 1 7 8
M  V30 8 2 7 9
M  V30 9 1 9 10
M  V30 10 2 10 11
M  V30 11 1 10 12
M  V30 12 1 9 13
M  V30 13 1 11 5
M  V30 14 1 1 14
M  V30 15 1 1 15
M  V30 16 1 1 16
M  V30 17 1 6 17
M  V30 18 1 8 18
M  V30 19 1 8 19
M  V30 20 1 11 20
M  V30 21 1 12 21
M  V30 22 1 13 22
M  V30 23 1 13 23
M  V30 END BOND
M  V30 END CTAB
M  END
