
     RDKit          3D

  0  0  0  0  0  0  0  0  0  0999 V3000
M  V30 BEGIN CTAB
M  V30 COUNTS 21 21 0 0 0
M  V30 BEGIN ATOM
M  V30 1 C -2.38444 -1.30494 -0.228382 0
M  V30 2 C -1.09897 -0.575023 -0.107032 0
M  V30 3 C -1.03182 0.787226 0.0592989 0
M  V30 4 C 0.199722 1.44637 0.173684 0
M  V30 5 C 1.37334 0.733324 0.120767 0
M  V30 6 N 2.63222 1.38345 0.23492 0
M  V30 7 C 1.30947 -0.641529 -0.0471735 0
M  V30 8 N 2.53798 -1.33788 -0.0966634 0
M  V30 9 C 0.0818465 -1.28785 -0.159874 0
M  V30 10 N -2.2478 1.51731 0.115304 0 CHG=1
M  V30 11 O -3.40912 1.12362 -0.494534 0 CHG=-1
M  V30 12 O -2.28506 2.58792 0.753958 0
M  V30 13 H -3.09175 -1.04262 0.601048 0
M  V30 14 H -2.19525 -2.40596 -0.0448159 0
M  V30 15 H -2.89087 -1.1667 -1.18876 0
M  V30 16 H 0.184929 2.52849 0.303811 0
M  V30 17 H 3.07568 1.94422 -0.518322 0
M  V30 18 H 3.19613 1.31974 1.1334 0
M  V30 19 H 2.69894 -1.94827 -0.930438 0
M  V30 20 H 3.28694 -1.2994 0.610188 0
M  V30 21 H 0.0578942 -2.36149 -0.29039 0
M  V30 END ATOM
M  V30 BEGIN BOND
M  V30 1 1 1 2
M  V30 2 2 2 3
M  V30 3 1 3 4
M  V30 4 2 4 5
M  V30 5 1 5 6
M  V30 6 1 5 7
M  V30 7 1 7 8
M  V30 8 2 7 9
M  V30 9 1 3 10
M  V30 10 1 10 11
M  V30 11 2 10 12
M  V30 12 1 9 2
M  V30 13 1 1 13
M  V30 14 1 1 14
M  V30 15 1 1 15
M  V30 16 1 4 16
M  V30 17 1 6 17
M  V30 18 1 6 18
M  V30 19 1 8 19
M  V30 20 1 8 20
M  V30 21 1 9 21
M  V30 END BOND
M  V30 END CTAB
M  END
