
     RDKit          3D

  0  0  0  0  0  0  0  0  0  0999 V3000
M  V30 BEGIN CTAB
M  V30 COUNTS 48 49 0 0 0
M  V30 BEGIN ATOM
M  V30 1 C 6.51195 -0.993684 1.32276 0
M  V30 2 C 5.01203 -0.759786 1.20669 0
M  V30 3 C 4.53198 -1.13297 -0.180347 0
M  V30 4 C 3.05449 -0.897221 -0.277033 0
M  V30 5 O 2.6962 0.448051 -0.0457903 0
M  V30 6 C 1.33698 0.749882 -0.115562 0
M  V30 7 C 0.596035 0.657807 1.04441 0
M  V30 8 O 1.23718 0.27226 2.21362 0
M  V30 9 C 0.46014 0.182336 3.39683 0
M  V30 10 C -0.76108 0.954772 0.992782 0
M  V30 11 C -1.384 1.33585 -0.175573 0
M  V30 12 C -2.80199 1.65282 -0.183403 0
M  V30 13 C -3.75199 0.551751 -0.144411 0
M  V30 14 C -4.09161 -0.247652 -1.20141 0
M  V30 15 N -3.49902 -0.00618733 -2.45768 0
M  V30 16 N -4.99342 -1.26653 -1.06237 0
M  V30 17 C -5.58651 -1.52994 0.113809 0
M  V30 18 N -6.51974 -2.60225 0.208469 0
M  V30 19 N -5.27145 -0.759651 1.16855 0
M  V30 20 C -4.3912 0.248327 1.0702 0
M  V30 21 C -0.622834 1.41816 -1.30742 0
M  V30 22 C 0.736695 1.12905 -1.29642 0
M  V30 23 O 1.53296 1.2039 -2.43052 0
M  V30 24 C 0.913869 1.59273 -3.63604 0
M  V30 25 H 6.77289 -1.88526 0.717005 0
M  V30 26 H 7.06879 -0.0894202 1.05873 0
M  V30 27 H 6.75009 -1.23316 2.37459 0
M  V30 28 H 4.76958 0.271612 1.48608 0
M  V30 29 H 4.54336 -1.47416 1.92418 0
M  V30 30 H 4.70955 -2.21971 -0.307803 0
M  V30 31 H 5.11482 -0.617368 -0.96815 0
M  V30 32 H 2.69531 -1.20701 -1.29639 0
M  V30 33 H 2.56041 -1.51253 0.495448 0
M  V30 34 H -0.131725 1.1141 3.57271 0
M  V30 35 H 1.10058 0.0565633 4.29758 0
M  V30 36 H -0.259292 -0.669383 3.35081 0
M  V30 37 H -1.33071 0.875588 1.92867 0
M  V30 38 H -3.09878 2.28583 -1.07894 0
M  V30 39 H -3.0479 2.34996 0.675255 0
M  V30 40 H -3.85606 0.679448 -3.15908 0
M  V30 41 H -2.62736 -0.533346 -2.75788 0
M  V30 42 H -6.18284 -3.56794 0.0156571 0
M  V30 43 H -7.5235 -2.49476 0.457781 0
M  V30 44 H -4.14319 0.869582 1.94036 0
M  V30 45 H -1.07669 1.72429 -2.23718 0
M  V30 46 H -0.017354 1.01939 -3.82974 0
M  V30 47 H 1.58006 1.36738 -4.50867 0
M  V30 48 H 0.684282 2.68846 -3.59045 0
M  V30 END ATOM
M  V30 BEGIN BOND
M  V30 1 1 1 2
M  V30 2 1 2 3
M  V30 3 1 3 4
M  V30 4 1 4 5
M  V30 5 1 5 6
M  V30 6 2 6 7
M  V30 7 1 7 8
M  V30 8 1 8 9
M  V30 9 1 7 10
M  V30 10 2 10 11
M  V30 11 1 11 12
M  V30 12 1 12 13
M  V30 13 2 13 14
M  V30 14 1 14 15
M  V30 15 1 14 16
M  V30 16 2 16 17
M  V30 17 1 17 18
M  V30 18 1 17 19
M  V30 19 2 19 20
M  V30 20 1 11 21
M  V30 21 2 21 22
M  V30 22 1 22 23
M  V30 23 1 23 24
M  V30 24 1 22 6
M  V30 25 1 20 13
M  V30 26 1 1 25
M  V30 27 1 1 26
M  V30 28 1 1 27
M  V30 29 1 2 28
M  V30 30 1 2 29
M  V30 31 1 3 30
M  V30 32 1 3 31
M  V30 33 1 4 32
M  V30 34 1 4 33
M  V30 35 1 9 34
M  V30 36 1 9 35
M  V30 37 1 9 36
M  V30 38 1 10 37
M  V30 39 1 12 38
M  V30 40 1 12 39
M  V30 41 1 15 40
M  V30 42 1 15 41
M  V30 43 1 18 42
M  V30 44 1 18 43
M  V30 45 1 20 44
M  V30 46 1 21 45
M  V30 47 1 24 46
M  V30 48 1 24 47
M  V30 49 1 24 48
M  V30 END BOND
M  V30 END CTAB
M  END
