
     RDKit          3D

  0  0  0  0  0  0  0  0  0  0999 V3000
M  V30 BEGIN CTAB
M  V30 COUNTS 21 22 0 0 0
M  V30 BEGIN ATOM
M  V30 1 N -3.2682 2.2461 -0.703784 0
M  V30 2 C -2.22441 1.27951 -0.567881 0
M  V30 3 N -2.48039 -0.0316083 -0.538801 0
M  V30 4 C -1.50841 -0.964594 -0.410927 0
M  V30 5 N -1.79277 -2.35834 -0.381158 0
M  V30 6 C -0.192986 -0.564176 -0.304911 0
M  V30 7 C 0.0801207 0.788248 -0.334065 0
M  V30 8 N -0.950622 1.67359 -0.465475 0
M  V30 9 N 1.39555 0.910529 -0.216833 0
M  V30 10 C 1.99523 -0.292556 -0.112644 0
M  V30 11 C 1.00723 -1.22017 -0.167009 0
M  V30 12 C 3.42298 -0.526615 0.0293943 0
M  V30 13 O 3.85001 -1.70403 0.116505 0
M  V30 14 O 4.33347 0.51715 0.0718931 0
M  V30 15 H -3.02121 3.23327 -0.939006 0
M  V30 16 H -4.26346 2.0187 -0.58069 0
M  V30 17 H -2.66015 -2.69822 -0.816503 0
M  V30 18 H -1.12399 -3.01556 0.0781682 0
M  V30 19 H 1.9095 1.83927 -0.206549 0
M  V30 20 H 1.09059 -2.30163 -0.115675 0
M  V30 21 H 4.40192 1.17112 0.848038 0
M  V30 END ATOM
M  V30 BEGIN BOND
M  V30 1 1 1 2
M  V30 2 2 2 3
M  V30 3 1 3 4
M  V30 4 1 4 5
M  V30 5 2 4 6
M  V30 6 1 6 7
M  V30 7 2 7 8
M  V30 8 1 7 9
M  V30 9 1 9 10
M  V30 10 2 10 11
M  V30 11 1 10 12
M  V30 12 2 12 13
M  V30 13 1 12 14
M  V30 14 1 8 2
M  V30 15 1 11 6
M  V30 16 1 1 15
M  V30 17 1 1 16
M  V30 18 1 5 17
M  V30 19 1 5 18
M  V30 20 1 9 19
M  V30 21 1 11 20
M  V30 22 1 14 21
M  V30 END BOND
M  V30 END CTAB
M  END
