
     RDKit          3D

  0  0  0  0  0  0  0  0  0  0999 V3000
M  V30 BEGIN CTAB
M  V30 COUNTS 25 25 0 0 0
M  V30 BEGIN ATOM
M  V30 1 C 2.78011 -1.30887 -0.0191525 0
M  V30 2 C 1.39444 -0.839365 -0.00947801 0
M  V30 3 C 0.355494 -1.73488 -0.0183726 0
M  V30 4 C -0.980587 -1.3108 -0.00940733 0
M  V30 5 N -2.05879 -2.24092 -0.0186546 0
M  V30 6 C -1.22734 0.0505738 0.00885936 0
M  V30 7 C -2.63245 0.521912 0.0186133 0
M  V30 8 C -0.20745 0.968044 0.0180881 0
M  V30 9 C -0.469637 2.4276 0.0376813 0
M  V30 10 C 1.11428 0.503604 0.00864151 0
M  V30 11 N 2.18649 1.42217 0.017747 0
M  V30 12 H 3.15555 -1.29046 -1.08298 0
M  V30 13 H 3.46577 -0.750843 0.613858 0
M  V30 14 H 2.86666 -2.38572 0.279589 0
M  V30 15 H 0.49567 -2.80697 -0.0326203 0
M  V30 16 H -2.49485 -2.53077 0.891068 0
M  V30 17 H -2.43544 -2.65004 -0.913156 0
M  V30 18 H -2.85588 1.28335 -0.722123 0
M  V30 19 H -2.86008 0.946022 1.03464 0
M  V30 20 H -3.33102 -0.337037 -0.185003 0
M  V30 21 H -0.325362 2.8708 1.05201 0
M  V30 22 H 0.324529 2.89885 -0.611924 0
M  V30 23 H -1.42699 2.70775 -0.420466 0
M  V30 24 H 3.13183 1.19466 -0.316525 0
M  V30 25 H 2.03506 2.39135 0.379063 0
M  V30 END ATOM
M  V30 BEGIN BOND
M  V30 1 1 1 2
M  V30 2 2 2 3
M  V30 3 1 3 4
M  V30 4 1 4 5
M  V30 5 2 4 6
M  V30 6 1 6 7
M  V30 7 1 6 8
M  V30 8 1 8 9
M  V30 9 2 8 10
M  V30 10 1 10 11
M  V30 11 1 10 2
M  V30 12 1 1 12
M  V30 13 1 1 13
M  V30 14 1 1 14
M  V30 15 1 3 15
M  V30 16 1 5 16
M  V30 17 1 5 17
M  V30 18 1 7 18
M  V30 19 1 7 19
M  V30 20 1 7 20
M  V30 21 1 9 21
M  V30 22 1 9 22
M  V30 23 1 9 23
M  V30 24 1 11 24
M  V30 25 1 11 25
M  V30 END BOND
M  V30 END CTAB
M  END
