
     RDKit          3D

  0  0  0  0  0  0  0  0  0  0999 V3000
M  V30 BEGIN CTAB
M  V30 COUNTS 24 24 0 0 0
M  V30 BEGIN ATOM
M  V30 1 C 2.95085 0.16073 1.34783 0
M  V30 2 C 2.93202 -0.61124 0.273371 0
M  V30 3 C 2.73832 -0.0358758 -1.08042 0
M  V30 4 S 1.27974 -0.675862 -1.91366 0
M  V30 5 C -0.188374 -0.154531 -1.06869 0
M  V30 6 C -0.728548 -0.919413 -0.0493883 0
M  V30 7 N -0.0684979 -2.12223 0.288012 0
M  V30 8 C -1.85786 -0.537424 0.614408 0
M  V30 9 C -2.51207 0.632518 0.296427 0
M  V30 10 C -2.00118 1.41716 -0.712885 0
M  V30 11 C -0.853066 1.0235 -1.38383 0
M  V30 12 F -0.319245 1.77824 -2.39041 0
M  V30 13 Cl -2.81269 2.90462 -1.13371 0
M  V30 14 N -3.68336 1.03126 0.982825 0
M  V30 15 H 3.09159 -0.25807 2.33103 0
M  V30 16 H 2.82644 1.23557 1.28066 0
M  V30 17 H 3.05807 -1.67866 0.363195 0
M  V30 18 H 3.62453 -0.343396 -1.68123 0
M  V30 19 H 2.65074 1.06138 -1.0021 0
M  V30 20 H 0.174753 -2.7627 -0.512161 0
M  V30 21 H 0.142805 -2.32019 1.27349 0
M  V30 22 H -2.2735 -1.15903 1.42314 0
M  V30 23 H -3.72436 0.871393 2.01313 0
M  V30 24 H -4.44711 1.46226 0.440966 0
M  V30 END ATOM
M  V30 BEGIN BOND
M  V30 1 2 1 2 CFG=2
M  V30 2 1 2 3
M  V30 3 1 3 4
M  V30 4 1 4 5
M  V30 5 2 5 6
M  V30 6 1 6 7
M  V30 7 1 6 8
M  V30 8 2 8 9
M  V30 9 1 9 10
M  V30 10 2 10 11
M  V30 11 1 11 12
M  V30 12 1 10 13
M  V30 13 1 9 14
M  V30 14 1 11 5
M  V30 15 1 1 15
M  V30 16 1 1 16
M  V30 17 1 2 17
M  V30 18 1 3 18
M  V30 19 1 3 19
M  V30 20 1 7 20
M  V30 21 1 7 21
M  V30 22 1 8 22
M  V30 23 1 14 23
M  V30 24 1 14 24
M  V30 END BOND
M  V30 END CTAB
M  END
