
     RDKit          3D

  0  0  0  0  0  0  0  0  0  0999 V3000
M  V30 BEGIN CTAB
M  V30 COUNTS 19 19 0 0 0
M  V30 BEGIN ATOM
M  V30 1 F -3.15969 0.233655 -0.522173 0
M  V30 2 C -2.41037 -0.653833 0.227132 0
M  V30 3 C -0.967319 -0.44604 0.0290289 0
M  V30 4 C -0.160616 -1.44041 -0.442943 0
M  V30 5 C 1.19234 -1.25479 -0.631695 0
M  V30 6 Br 2.31327 -2.64805 -1.29123 0
M  V30 7 C 1.69261 -0.000428524 -0.315822 0
M  V30 8 C 0.880955 1.00812 0.161677 0
M  V30 9 C -0.471255 0.821408 0.349938 0
M  V30 10 N -1.31428 1.84312 0.837528 0
M  V30 11 N 3.08623 0.200235 -0.507196 0
M  V30 12 F -2.68304 -0.514117 1.58918 0
M  V30 13 H -2.64776 -1.69477 -0.0676491 0
M  V30 14 H -0.535584 -2.4396 -0.698917 0
M  V30 15 H 1.28366 2.00014 0.410207 0
M  V30 16 H -1.73255 1.78023 1.77736 0
M  V30 17 H -1.5149 2.66302 0.247135 0
M  V30 18 H 3.43106 0.567151 -1.42701 0
M  V30 19 H 3.71722 -0.0250445 0.275451 0
M  V30 END ATOM
M  V30 BEGIN BOND
M  V30 1 1 1 2
M  V30 2 1 2 3
M  V30 3 2 3 4
M  V30 4 1 4 5
M  V30 5 1 5 6
M  V30 6 2 5 7
M  V30 7 1 7 8
M  V30 8 2 8 9
M  V30 9 1 9 10
M  V30 10 1 7 11
M  V30 11 1 2 12
M  V30 12 1 9 3
M  V30 13 1 2 13
M  V30 14 1 4 14
M  V30 15 1 8 15
M  V30 16 1 10 16
M  V30 17 1 10 17
M  V30 18 1 11 18
M  V30 19 1 11 19
M  V30 END BOND
M  V30 END CTAB
M  END
