
     RDKit          3D

  0  0  0  0  0  0  0  0  0  0999 V3000
M  V30 BEGIN CTAB
M  V30 COUNTS 56 59 0 0 0
M  V30 BEGIN ATOM
M  V30 1 C -4.36139 5.39013 2.40735 0
M  V30 2 O -4.44774 4.41493 1.37875 0
M  V30 3 C -3.40764 3.51386 1.21346 0
M  V30 4 C -2.2853 3.52383 2.01277 0
M  V30 5 C -1.28337 2.6074 1.80526 0
M  V30 6 C -1.34327 1.63448 0.794719 0
M  V30 7 C -2.46157 1.66283 0.0346803 0
M  V30 8 C -3.48062 2.579 0.230467 0
M  V30 9 C -0.206968 0.729239 0.630896 0
M  V30 10 N 0.982586 0.95191 1.30637 0
M  V30 11 N 1.8417 0.0208006 0.996407 0
M  V30 12 C 1.2899 -0.832589 0.135709 0
M  V30 13 N 0.00723775 -0.370366 -0.0751788 0
M  V30 14 C -0.897973 -1.05645 -0.92074 0
M  V30 15 C -0.735084 -0.894087 -2.31385 0
M  V30 16 C -1.57375 -1.57185 -3.17424 0
M  V30 17 C -2.5515 -2.39105 -2.67772 0
M  V30 18 C -2.69461 -2.53648 -1.31716 0
M  V30 19 C -1.86249 -1.8654 -0.41223 0
M  V30 20 C -2.08431 -2.08145 1.00134 0
M  V30 21 C -3.44217 -2.79301 1.23051 0
M  V30 22 C -1.06896 -3.11984 1.50292 0
M  V30 23 S 2.0365 -2.2602 -0.6428 0
M  V30 24 C 3.73416 -2.41675 -0.102334 0
M  V30 25 C 4.54708 -1.29581 -0.624465 0
M  V30 26 N 4.76167 -0.150482 0.0284978 0
M  V30 27 C 5.49502 0.868745 -0.436749 0
M  V30 28 N 5.64096 2.03476 0.363581 0
M  V30 29 N 6.06471 0.748839 -1.64757 0
M  V30 30 C 5.87488 -0.391645 -2.34367 0
M  V30 31 N 5.14087 -1.38092 -1.84991 0
M  V30 32 N 6.47519 -0.517711 -3.61938 0
M  V30 33 H -3.48036 6.03875 2.1687 0
M  V30 34 H -5.29138 5.98317 2.46713 0
M  V30 35 H -4.10357 4.86603 3.34104 0
M  V30 36 H -2.24178 4.27017 2.78728 0
M  V30 37 H -0.434453 2.66993 2.46526 0
M  V30 38 H -2.5763 0.96731 -0.775621 0
M  V30 39 H -4.3416 2.50334 -0.450376 0
M  V30 40 H 0.0534959 -0.234268 -2.65566 0
M  V30 41 H -1.46218 -1.45916 -4.23794 0
M  V30 42 H -3.23969 -2.94863 -3.31428 0
M  V30 43 H -3.47742 -3.19338 -0.955166 0
M  V30 44 H -2.12039 -1.2182 1.65834 0
M  V30 45 H -3.68155 -2.69844 2.31826 0
M  V30 46 H -3.36952 -3.85612 0.958618 0
M  V30 47 H -4.25569 -2.30003 0.689352 0
M  V30 48 H -0.546369 -3.58152 0.642075 0
M  V30 49 H -1.56702 -3.96507 2.02175 0
M  V30 50 H -0.294548 -2.64244 2.137 0
M  V30 51 H 4.19326 -3.37343 -0.421471 0
M  V30 52 H 3.74636 -2.3496 1.01596 0
M  V30 53 H 5.59761 1.93285 1.39198 0
M  V30 54 H 5.78831 2.97929 -0.0360601 0
M  V30 55 H 6.07637 -0.0333386 -4.4292 0
M  V30 56 H 7.32467 -1.11189 -3.70263 0
M  V30 END ATOM
M  V30 BEGIN BOND
M  V30 1 1 1 2
M  V30 2 1 2 3
M  V30 3 2 3 4
M  V30 4 1 4 5
M  V30 5 2 5 6
M  V30 6 1 6 7
M  V30 7 2 7 8
M  V30 8 1 6 9
M  V30 9 2 9 10
M  V30 10 1 10 11
M  V30 11 2 11 12
M  V30 12 1 12 13
M  V30 13 1 13 14
M  V30 14 2 14 15
M  V30 15 1 15 16
M  V30 16 2 16 17
M  V30 17 1 17 18
M  V30 18 2 18 19
M  V30 19 1 19 20
M  V30 20 1 20 21
M  V30 21 1 20 22
M  V30 22 1 12 23
M  V30 23 1 23 24
M  V30 24 1 24 25
M  V30 25 2 25 26
M  V30 26 1 26 27
M  V30 27 1 27 28
M  V30 28 2 27 29
M  V30 29 1 29 30
M  V30 30 2 30 31
M  V30 31 1 30 32
M  V30 32 1 8 3
M  V30 33 1 13 9
M  V30 34 1 19 14
M  V30 35 1 31 25
M  V30 36 1 1 33
M  V30 37 1 1 34
M  V30 38 1 1 35
M  V30 39 1 4 36
M  V30 40 1 5 37
M  V30 41 1 7 38
M  V30 42 1 8 39
M  V30 43 1 15 40
M  V30 44 1 16 41
M  V30 45 1 17 42
M  V30 46 1 18 43
M  V30 47 1 20 44
M  V30 48 1 21 45
M  V30 49 1 21 46
M  V30 50 1 21 47
M  V30 51 1 22 48
M  V30 52 1 22 49
M  V30 53 1 22 50
M  V30 54 1 24 51
M  V30 55 1 24 52
M  V30 56 1 28 53
M  V30 57 1 28 54
M  V30 58 1 32 55
M  V30 59 1 32 56
M  V30 END BOND
M  V30 END CTAB
M  END
