
     RDKit          3D

  0  0  0  0  0  0  0  0  0  0999 V3000
M  V30 BEGIN CTAB
M  V30 COUNTS 70 76 0 0 0
M  V30 BEGIN ATOM
M  V30 1 O 4.26912 -1.58055 1.13387 0
M  V30 2 C 3.61833 -1.16301 -0.0498021 0
M  V30 3 C 2.2247 -0.699009 0.24283 0
M  V30 4 O 1.24128 -1.59319 -0.052449 0
M  V30 5 P 1.03617 -1.96507 -1.64537 0
M  V30 6 O 0.898297 -3.48005 -1.77352 0
M  V30 7 O 2.24493 -1.45617 -2.66561 0
M  V30 8 O -0.471652 -1.33066 -2.15068 0
M  V30 9 C -1.47679 -1.78278 -1.28686 0
M  V30 10 C -2.42302 -0.661185 -0.893331 0
M  V30 11 O -3.7468 -1.08924 -0.866271 0
M  V30 12 C -4.41456 -0.199253 -0.0284977 0
M  V30 13 C -3.45835 -0.0763525 1.14407 0
M  V30 14 C -2.10522 -0.196416 0.497679 0
M  V30 15 O -1.46638 1.03111 0.514636 0
M  V30 16 P -0.561122 1.12661 1.92976 0
M  V30 17 O -0.817847 -0.0829154 2.83167 0
M  V30 18 O 1.08957 1.18683 1.6528 0
M  V30 19 C 1.42701 1.66375 0.41073 0
M  V30 20 C 2.12924 0.619516 -0.444253 0
M  V30 21 O 3.3676 1.01395 -0.854983 0
M  V30 22 C 4.30396 0.0817307 -0.509843 0
M  V30 23 N 5.281 0.559844 0.451902 0
M  V30 24 C 5.02842 1.01687 1.69173 0
M  V30 25 N 6.16576 1.37836 2.31142 0
M  V30 26 C 7.17028 1.14488 1.44171 0
M  V30 27 C 6.62869 0.635904 0.283055 0
M  V30 28 N 7.38597 0.29926 -0.784282 0
M  V30 29 C 8.71609 0.473881 -0.695515 0
M  V30 30 N 9.59872 0.146058 -1.77393 0
M  V30 31 N 9.26809 0.970281 0.428076 0
M  V30 32 C 8.54438 1.31737 1.51311 0
M  V30 33 O 9.04022 1.77921 2.56325 0
M  V30 34 O -1.02103 2.49311 2.85021 0
M  V30 35 O -3.63196 1.107 1.84142 0
M  V30 36 N -5.64616 -0.781008 0.484456 0
M  V30 37 C -5.77452 -1.88233 1.23879 0
M  V30 38 N -7.07162 -2.10977 1.51963 0
M  V30 39 C -7.78085 -1.14685 0.940944 0
M  V30 40 C -6.89073 -0.316793 0.294333 0
M  V30 41 N -7.36587 0.760723 -0.384584 0
M  V30 42 C -8.67936 1.04011 -0.443485 0
M  V30 43 N -9.18046 2.17698 -1.15986 0
M  V30 44 N -9.53142 0.217541 0.19431 0
M  V30 45 C -9.12637 -0.858043 0.878828 0
M  V30 46 O -9.90826 -1.64279 1.48426 0
M  V30 47 H 4.58877 -2.49387 1.0864 0
M  V30 48 H 3.68575 -2.00751 -0.743396 0
M  V30 49 H 2.17669 -0.500415 1.3487 0
M  V30 50 H 1.8893 -0.9344 -3.43527 0
M  V30 51 H -0.973374 -2.20917 -0.370356 0
M  V30 52 H -2.08618 -2.57903 -1.74015 0
M  V30 53 H -2.2644 0.195812 -1.58603 0
M  V30 54 H -4.5852 0.769712 -0.496609 0
M  V30 55 H -3.65214 -0.925534 1.82967 0
M  V30 56 H -1.52597 -0.97957 1.04421 0
M  V30 57 H 0.522394 2.06992 -0.0725846 0
M  V30 58 H 2.12326 2.53898 0.53969 0
M  V30 59 H 1.49196 0.490254 -1.35497 0
M  V30 60 H 4.86277 -0.188578 -1.45383 0
M  V30 61 H 4.01164 1.07347 2.11136 0
M  V30 62 H 9.46698 0.504431 -2.74564 0
M  V30 63 H 10.4337 -0.480895 -1.63433 0
M  V30 64 H 10.3236 1.09579 0.465033 0
M  V30 65 H -0.659942 2.31888 3.77072 0
M  V30 66 H -3.69984 0.948896 2.83292 0
M  V30 67 H -4.93782 -2.48604 1.56288 0
M  V30 68 H -10.1353 2.16159 -1.60647 0
M  V30 69 H -8.62967 3.05475 -1.26799 0
M  V30 70 H -10.5545 0.415082 0.161924 0
M  V30 END ATOM
M  V30 BEGIN BOND
M  V30 1 1 1 2
M  V30 2 1 2 3
M  V30 3 1 3 4
M  V30 4 1 4 5
M  V30 5 2 5 6
M  V30 6 1 5 7
M  V30 7 1 5 8
M  V30 8 1 8 9
M  V30 9 1 9 10
M  V30 10 1 10 11
M  V30 11 1 11 12
M  V30 12 1 12 13
M  V30 13 1 13 14
M  V30 14 1 14 15
M  V30 15 1 15 16
M  V30 16 2 16 17
M  V30 17 1 16 18
M  V30 18 1 18 19
M  V30 19 1 19 20
M  V30 20 1 20 21
M  V30 21 1 21 22
M  V30 22 1 22 23
M  V30 23 1 23 24
M  V30 24 2 24 25
M  V30 25 1 25 26
M  V30 26 2 26 27
M  V30 27 1 27 28
M  V30 28 2 28 29
M  V30 29 1 29 30
M  V30 30 1 29 31
M  V30 31 1 31 32
M  V30 32 2 32 33
M  V30 33 1 16 34
M  V30 34 1 13 35
M  V30 35 1 12 36
M  V30 36 1 36 37
M  V30 37 2 37 38
M  V30 38 1 38 39
M  V30 39 2 39 40
M  V30 40 1 40 41
M  V30 41 2 41 42
M  V30 42 1 42 43
M  V30 43 1 42 44
M  V30 44 1 44 45
M  V30 45 2 45 46
M  V30 46 1 22 2
M  V30 47 1 27 23
M  V30 48 1 40 36
M  V30 49 1 20 3
M  V30 50 1 32 26
M  V30 51 1 45 39
M  V30 52 1 14 10
M  V30 53 1 1 47
M  V30 54 1 2 48
M  V30 55 1 3 49
M  V30 56 1 7 50
M  V30 57 1 9 51
M  V30 58 1 9 52
M  V30 59 1 10 53
M  V30 60 1 12 54
M  V30 61 1 13 55
M  V30 62 1 14 56
M  V30 63 1 19 57
M  V30 64 1 19 58
M  V30 65 1 20 59
M  V30 66 1 22 60
M  V30 67 1 24 61
M  V30 68 1 30 62
M  V30 69 1 30 63
M  V30 70 1 31 64
M  V30 71 1 34 65
M  V30 72 1 35 66
M  V30 73 1 37 67
M  V30 74 1 43 68
M  V30 75 1 43 69
M  V30 76 1 44 70
M  V30 END BOND
M  V30 END CTAB
M  END
