
     RDKit          3D

  0  0  0  0  0  0  0  0  0  0999 V3000
M  V30 BEGIN CTAB
M  V30 COUNTS 25 26 0 0 0
M  V30 BEGIN ATOM
M  V30 1 N -3.61145 -0.274486 0.976979 0
M  V30 2 C -2.59318 -0.0298742 0.0273003 0
M  V30 3 C -2.9516 0.336561 -1.27481 0
M  V30 4 C -1.90142 0.55887 -2.14586 0
M  V30 5 N -0.612539 0.434445 -1.77839 0
M  V30 6 C -0.244527 0.0821072 -0.52787 0
M  V30 7 C -1.26573 -0.148086 0.369844 0
M  V30 8 N -0.942206 -0.522623 1.70342 0
M  V30 9 N 1.12595 -0.0457804 -0.1532 0
M  V30 10 C 2.23281 0.183376 -1.05276 0
M  V30 11 C 3.40819 -0.218886 -0.186798 0
M  V30 12 C 2.85467 0.05987 1.19634 0
M  V30 13 O 1.54645 -0.391458 1.06987 0
M  V30 14 H -4.40302 -0.912432 0.784246 0
M  V30 15 H -3.56537 0.19982 1.89706 0
M  V30 16 H -3.97645 0.428791 -1.54274 0
M  V30 17 H -2.19306 0.846616 -3.16768 0
M  V30 18 H -0.798528 0.266132 2.38305 0
M  V30 19 H -0.848417 -1.51402 2.00924 0
M  V30 20 H 2.33804 1.28205 -1.24443 0
M  V30 21 H 2.16895 -0.401579 -1.98253 0
M  V30 22 H 4.30618 0.393595 -0.39656 0
M  V30 23 H 3.62269 -1.31386 -0.271491 0
M  V30 24 H 2.88698 1.16189 1.33671 0
M  V30 25 H 3.41658 -0.461038 1.97106 0
M  V30 END ATOM
M  V30 BEGIN BOND
M  V30 1 1 1 2
M  V30 2 2 2 3
M  V30 3 1 3 4
M  V30 4 2 4 5
M  V30 5 1 5 6
M  V30 6 2 6 7
M  V30 7 1 7 8
M  V30 8 1 6 9
M  V30 9 1 9 10
M  V30 10 1 10 11
M  V30 11 1 11 12
M  V30 12 1 12 13
M  V30 13 1 7 2
M  V30 14 1 13 9
M  V30 15 1 1 14
M  V30 16 1 1 15
M  V30 17 1 3 16
M  V30 18 1 4 17
M  V30 19 1 8 18
M  V30 20 1 8 19
M  V30 21 1 10 20
M  V30 22 1 10 21
M  V30 23 1 11 22
M  V30 24 1 11 23
M  V30 25 1 12 24
M  V30 26 1 12 25
M  V30 END BOND
M  V30 END CTAB
M  END
