
     RDKit          3D

  0  0  0  0  0  0  0  0  0  0999 V3000
M  V30 BEGIN CTAB
M  V30 COUNTS 39 42 0 0 0
M  V30 BEGIN ATOM
M  V30 1 N -3.72262 -4.44758 -0.0894661 0
M  V30 2 C -3.00696 -3.21672 -0.320834 0
M  V30 3 N -3.44501 -1.99828 -0.0986109 0
M  V30 4 C -2.67015 -0.962438 -0.327409 0
M  V30 5 C -1.41466 -1.21812 -0.791874 0
M  V30 6 S 0.00262496 -0.103343 -1.05234 0
M  V30 7 C 1.39508 -0.962662 -0.252733 0
M  V30 8 C 2.66695 -0.600429 0.0136236 0
M  V30 9 N 3.45589 -1.52094 0.536275 0
M  V30 10 C 3.01221 -2.72685 0.781107 0
M  V30 11 N 3.69418 -3.86982 1.33181 0
M  V30 12 S 1.38029 -2.62205 0.26637 0
M  V30 13 C 3.20737 0.787586 -0.174149 0
M  V30 14 C 2.44829 1.90203 0.0599375 0
M  V30 15 C 3.01301 3.18019 -0.0257465 0
M  V30 16 C 4.33893 3.31505 -0.345925 0
M  V30 17 C 5.13923 2.20601 -0.59199 0
M  V30 18 C 4.53536 0.962258 -0.496942 0
M  V30 19 S -1.42286 -2.94258 -0.883991 0
M  V30 20 C -3.22548 0.413086 -0.105206 0
M  V30 21 C -3.05307 1.39034 -1.05722 0
M  V30 22 C -3.60253 2.63286 -0.873605 0
M  V30 23 C -4.32137 2.91343 0.248643 0
M  V30 24 C -4.5151 1.96718 1.21999 0
M  V30 25 C -3.94871 0.700142 1.02143 0
M  V30 26 H -3.69143 -5.20659 -0.771253 0
M  V30 27 H -4.2565 -4.54214 0.776483 0
M  V30 28 H 4.31116 -4.40241 0.701171 0
M  V30 29 H 3.55357 -4.13147 2.30662 0
M  V30 30 H 1.42017 1.816 0.301252 0
M  V30 31 H 2.4404 4.08576 0.154696 0
M  V30 32 H 4.83779 4.27598 -0.426737 0
M  V30 33 H 6.20317 2.33267 -0.844958 0
M  V30 34 H 5.12973 0.0837056 -0.683515 0
M  V30 35 H -2.48575 1.1811 -1.95818 0
M  V30 36 H -3.48011 3.39724 -1.60657 0
M  V30 37 H -4.77052 3.88205 0.415366 0
M  V30 38 H -5.07664 2.13477 2.12404 0
M  V30 39 H -4.07595 -0.0849873 1.75982 0
M  V30 END ATOM
M  V30 BEGIN BOND
M  V30 1 1 1 2
M  V30 2 2 2 3
M  V30 3 1 3 4
M  V30 4 2 4 5
M  V30 5 1 5 6
M  V30 6 1 6 7
M  V30 7 2 7 8
M  V30 8 1 8 9
M  V30 9 2 9 10
M  V30 10 1 10 11
M  V30 11 1 10 12
M  V30 12 1 8 13
M  V30 13 2 13 14
M  V30 14 1 14 15
M  V30 15 2 15 16
M  V30 16 1 16 17
M  V30 17 2 17 18
M  V30 18 1 5 19
M  V30 19 1 4 20
M  V30 20 2 20 21
M  V30 21 1 21 22
M  V30 22 2 22 23
M  V30 23 1 23 24
M  V30 24 2 24 25
M  V30 25 1 19 2
M  V30 26 1 25 20
M  V30 27 1 12 7
M  V30 28 1 18 13
M  V30 29 1 1 26
M  V30 30 1 1 27
M  V30 31 1 11 28
M  V30 32 1 11 29
M  V30 33 1 14 30
M  V30 34 1 15 31
M  V30 35 1 16 32
M  V30 36 1 17 33
M  V30 37 1 18 34
M  V30 38 1 21 35
M  V30 39 1 22 36
M  V30 40 1 23 37
M  V30 41 1 24 38
M  V30 42 1 25 39
M  V30 END BOND
M  V30 END CTAB
M  END
