
     RDKit          3D

  0  0  0  0  0  0  0  0  0  0999 V3000
M  V30 BEGIN CTAB
M  V30 COUNTS 48 50 0 0 0
M  V30 BEGIN ATOM
M  V30 1 C 0.246954 -4.29571 0.560096 0
M  V30 2 O 1.07914 -3.23186 0.907902 0
M  V30 3 C 0.723475 -1.91571 0.547594 0
M  V30 4 C -0.4399 -1.6719 -0.144915 0
M  V30 5 C -0.848293 -0.41231 -0.528028 0
M  V30 6 C -2.10744 -0.25282 -1.24961 0
M  V30 7 C -3.21626 0.378196 -0.561862 0
M  V30 8 C -3.97074 -0.266728 0.373955 0
M  V30 9 C -3.75176 -1.69306 0.773524 0
M  V30 10 N -5.00095 0.378666 0.995747 0
M  V30 11 C -5.31222 1.63138 0.728034 0
M  V30 12 N -6.38838 2.28449 1.38682 0
M  V30 13 N -4.56741 2.26566 -0.195903 0
M  V30 14 C -3.54281 1.70062 -0.847296 0
M  V30 15 N -2.83555 2.4736 -1.81348 0
M  V30 16 C -0.0156679 0.629772 -0.1783 0
M  V30 17 C 1.15594 0.386264 0.518786 0
M  V30 18 C 1.55274 -0.874308 0.895719 0
M  V30 19 O 2.70418 -1.18132 1.58787 0
M  V30 20 C 3.68749 -0.309003 2.03177 0
M  V30 21 C 4.38093 0.451917 0.980836 0
M  V30 22 C 4.44867 0.00143759 -0.308832 0
M  V30 23 C 5.11017 0.749354 -1.26675 0
M  V30 24 C 5.70986 1.9513 -0.950664 0
M  V30 25 C 5.62253 2.37644 0.360154 0
M  V30 26 C 4.97339 1.65827 1.33579 0
M  V30 27 H -0.687976 -4.2175 1.13567 0
M  V30 28 H 0.809289 -5.24393 0.802268 0
M  V30 29 H 0.0582536 -4.27618 -0.543694 0
M  V30 30 H -1.03252 -2.56049 -0.389847 0
M  V30 31 H -1.83832 0.298635 -2.20418 0
M  V30 32 H -2.40869 -1.26927 -1.64749 0
M  V30 33 H -3.48459 -2.33504 -0.086915 0
M  V30 34 H -3.03507 -1.70421 1.59379 0
M  V30 35 H -4.75319 -2.10431 1.10798 0
M  V30 36 H -7.26297 2.51813 0.882044 0
M  V30 37 H -6.30204 2.53242 2.38514 0
M  V30 38 H -2.45228 3.38747 -1.55512 0
M  V30 39 H -2.69562 2.13257 -2.78463 0
M  V30 40 H -0.293058 1.61954 -0.455666 0
M  V30 41 H 1.80777 1.22664 0.796658 0
M  V30 42 H 4.47383 -0.939831 2.53959 0
M  V30 43 H 3.30012 0.371161 2.84318 0
M  V30 44 H 3.98817 -0.924365 -0.558186 0
M  V30 45 H 5.15782 0.385125 -2.28118 0
M  V30 46 H 6.23108 2.54963 -1.68566 0
M  V30 47 H 6.08779 3.31137 0.610535 0
M  V30 48 H 4.93412 2.02979 2.33249 0
M  V30 END ATOM
M  V30 BEGIN BOND
M  V30 1 1 1 2
M  V30 2 1 2 3
M  V30 3 2 3 4
M  V30 4 1 4 5
M  V30 5 1 5 6
M  V30 6 1 6 7
M  V30 7 2 7 8
M  V30 8 1 8 9
M  V30 9 1 8 10
M  V30 10 2 10 11
M  V30 11 1 11 12
M  V30 12 1 11 13
M  V30 13 2 13 14
M  V30 14 1 14 15
M  V30 15 2 5 16
M  V30 16 1 16 17
M  V30 17 2 17 18
M  V30 18 1 18 19
M  V30 19 1 19 20
M  V30 20 1 20 21
M  V30 21 2 21 22
M  V30 22 1 22 23
M  V30 23 2 23 24
M  V30 24 1 24 25
M  V30 25 2 25 26
M  V30 26 1 18 3
M  V30 27 1 26 21
M  V30 28 1 14 7
M  V30 29 1 1 27
M  V30 30 1 1 28
M  V30 31 1 1 29
M  V30 32 1 4 30
M  V30 33 1 6 31
M  V30 34 1 6 32
M  V30 35 1 9 33
M  V30 36 1 9 34
M  V30 37 1 9 35
M  V30 38 1 12 36
M  V30 39 1 12 37
M  V30 40 1 15 38
M  V30 41 1 15 39
M  V30 42 1 16 40
M  V30 43 1 17 41
M  V30 44 1 20 42
M  V30 45 1 20 43
M  V30 46 1 22 44
M  V30 47 1 23 45
M  V30 48 1 24 46
M  V30 49 1 25 47
M  V30 50 1 26 48
M  V30 END BOND
M  V30 END CTAB
M  END
