
     RDKit          3D

  0  0  0  0  0  0  0  0  0  0999 V3000
M  V30 BEGIN CTAB
M  V30 COUNTS 44 46 0 0 0
M  V30 BEGIN ATOM
M  V30 1 C 1.44101 -2.50654 -1.01095 0
M  V30 2 C 1.17707 -1.5705 0.139567 0
M  V30 3 C 0.141507 -2.09302 1.07986 0
M  V30 4 N 0.820167 -0.231591 -0.339373 0
M  V30 5 C 1.70863 0.553862 -1.13426 0
M  V30 6 C 3.01868 0.786599 -0.533099 0
M  V30 7 C 4.13197 0.882855 -1.33271 0
M  V30 8 C 5.41303 1.1047 -0.81207 0
M  V30 9 C 5.51657 1.22578 0.562439 0
M  V30 10 Cl 7.11413 1.50846 1.27149 0
M  V30 11 C 4.42602 1.13618 1.40129 0
M  V30 12 C 3.1907 0.915705 0.821359 0
M  V30 13 C -0.453525 0.292694 -0.00487367 0
M  V30 14 C -1.61155 -0.335464 -0.466707 0
M  V30 15 C -2.85786 0.140486 -0.175039 0
M  V30 16 C -2.98155 1.27764 0.599445 0
M  V30 17 C -1.86941 1.93013 1.07646 0
M  V30 18 C -0.616966 1.4157 0.758933 0
M  V30 19 N -4.23543 1.68832 0.846425 0
M  V30 20 C -5.32721 1.0311 0.367625 0
M  V30 21 N -6.61565 1.52023 0.664234 0
M  V30 22 N -5.21458 -0.0693509 -0.381453 0
M  V30 23 C -3.98226 -0.524554 -0.659679 0
M  V30 24 N -3.85594 -1.68837 -1.4467 0
M  V30 25 H 1.79122 -1.955 -1.91916 0
M  V30 26 H 0.528051 -3.11685 -1.26175 0
M  V30 27 H 2.25691 -3.24263 -0.793212 0
M  V30 28 H 2.14254 -1.53389 0.718847 0
M  V30 29 H -0.58591 -2.73382 0.52726 0
M  V30 30 H -0.362226 -1.32469 1.67961 0
M  V30 31 H 0.602047 -2.80085 1.83328 0
M  V30 32 H 1.78826 0.0485916 -2.14262 0
M  V30 33 H 1.20314 1.53043 -1.39619 0
M  V30 34 H 4.10118 0.792807 -2.41404 0
M  V30 35 H 6.26841 1.17174 -1.46831 0
M  V30 36 H 4.55014 1.24049 2.47503 0
M  V30 37 H 2.35372 0.849668 1.52991 0
M  V30 38 H -1.5426 -1.22518 -1.07333 0
M  V30 39 H -2.02188 2.81235 1.67435 0
M  V30 40 H 0.240628 1.95247 1.14865 0
M  V30 41 H -6.98485 1.45161 1.62374 0
M  V30 42 H -7.19205 1.9479 -0.0764785 0
M  V30 43 H -3.678 -2.5934 -0.974334 0
M  V30 44 H -3.93625 -1.6628 -2.47475 0
M  V30 END ATOM
M  V30 BEGIN BOND
M  V30 1 1 1 2
M  V30 2 1 2 3
M  V30 3 1 2 4
M  V30 4 1 4 5
M  V30 5 1 5 6
M  V30 6 2 6 7
M  V30 7 1 7 8
M  V30 8 2 8 9
M  V30 9 1 9 10
M  V30 10 1 9 11
M  V30 11 2 11 12
M  V30 12 1 4 13
M  V30 13 2 13 14
M  V30 14 1 14 15
M  V30 15 2 15 16
M  V30 16 1 16 17
M  V30 17 2 17 18
M  V30 18 1 16 19
M  V30 19 2 19 20
M  V30 20 1 20 21
M  V30 21 1 20 22
M  V30 22 2 22 23
M  V30 23 1 23 24
M  V30 24 1 12 6
M  V30 25 1 18 13
M  V30 26 1 23 15
M  V30 27 1 1 25
M  V30 28 1 1 26
M  V30 29 1 1 27
M  V30 30 1 2 28
M  V30 31 1 3 29
M  V30 32 1 3 30
M  V30 33 1 3 31
M  V30 34 1 5 32
M  V30 35 1 5 33
M  V30 36 1 7 34
M  V30 37 1 8 35
M  V30 38 1 11 36
M  V30 39 1 12 37
M  V30 40 1 14 38
M  V30 41 1 17 39
M  V30 42 1 18 40
M  V30 43 1 21 41
M  V30 44 1 21 42
M  V30 45 1 24 43
M  V30 46 1 24 44
M  V30 END BOND
M  V30 END CTAB
M  END
