
     RDKit          3D

  0  0  0  0  0  0  0  0  0  0999 V3000
M  V30 BEGIN CTAB
M  V30 COUNTS 26 26 0 0 0
M  V30 BEGIN ATOM
M  V30 1 N 4.21852 -0.665831 -0.397903 0
M  V30 2 N 3.0548 -0.0629139 -0.121359 0
M  V30 3 C 1.86071 -0.801679 0.0864376 0
M  V30 4 O 1.92845 -2.05864 0.00193321 0
M  V30 5 C 0.571826 -0.121245 0.393487 0 CFG=2
M  V30 6 C -0.485764 -1.15929 0.556006 0
M  V30 7 C -1.87209 -0.5136 0.657933 0
M  V30 8 C -2.07793 0.26871 -0.602171 0 CFG=2
M  V30 9 C -1.1222 1.41793 -0.61599 0
M  V30 10 C 0.282488 0.863388 -0.711004 0
M  V30 11 N -3.44487 0.701495 -0.782731 0
M  V30 12 H 4.90115 -0.0873851 -0.798147 0
M  V30 13 H 4.5117 -1.45965 0.0615573 0
M  V30 14 H 2.98863 0.992992 -0.0483789 0
M  V30 15 H 0.652149 0.455081 1.33666 0
M  V30 16 H -0.248105 -1.77704 1.42226 0
M  V30 17 H -0.537892 -1.83382 -0.324393 0
M  V30 18 H -1.80039 0.154948 1.56492 0
M  V30 19 H -2.61341 -1.29108 0.840399 0
M  V30 20 H -1.84049 -0.405933 -1.45675 0
M  V30 21 H -1.22167 1.97684 0.346235 0
M  V30 22 H -1.30018 2.0727 -1.47705 0
M  V30 23 H 1.00964 1.69451 -0.621198 0
M  V30 24 H 0.396277 0.433319 -1.72078 0
M  V30 25 H -4.04912 -0.144448 -0.859525 0
M  V30 26 H -3.76224 1.35064 -0.030444 0
M  V30 END ATOM
M  V30 BEGIN BOND
M  V30 1 1 1 2
M  V30 2 1 2 3
M  V30 3 2 3 4
M  V30 4 1 3 5
M  V30 5 1 5 6
M  V30 6 1 6 7
M  V30 7 1 7 8
M  V30 8 1 8 9
M  V30 9 1 9 10
M  V30 10 1 8 11
M  V30 11 1 10 5
M  V30 12 1 1 12
M  V30 13 1 1 13
M  V30 14 1 2 14
M  V30 15 1 5 15 CFG=1
M  V30 16 1 6 16
M  V30 17 1 6 17
M  V30 18 1 7 18
M  V30 19 1 7 19
M  V30 20 1 8 20 CFG=3
M  V30 21 1 9 21
M  V30 22 1 9 22
M  V30 23 1 10 23
M  V30 24 1 10 24
M  V30 25 1 11 25
M  V30 26 1 11 26
M  V30 END BOND
M  V30 END CTAB
M  END
