
     RDKit          3D

  0  0  0  0  0  0  0  0  0  0999 V3000
M  V30 BEGIN CTAB
M  V30 COUNTS 29 31 0 0 0
M  V30 BEGIN ATOM
M  V30 1 N -4.01498 -2.0507 -1.77562 0
M  V30 2 C -3.34307 -1.04436 -1.04342 0
M  V30 3 N -2.06521 -1.17884 -0.641441 0
M  V30 4 C -1.39824 -0.260227 0.0465226 0
M  V30 5 C -2.04955 0.910206 0.374473 0
M  V30 6 N -1.15473 1.64234 1.05556 0
M  V30 7 C 0.00891225 0.952056 1.14703 0
M  V30 8 N -0.131322 -0.231266 0.523552 0
M  V30 9 C 0.832759 -1.26934 0.373907 0
M  V30 10 C 2.13233 -1.03799 0.478406 0
M  V30 11 C 3.52982 -1.54158 0.449496 0
M  V30 12 C 3.20469 -0.0800366 0.708665 0
M  V30 13 C 3.62315 0.890309 -0.364217 0
M  V30 14 O 4.66063 1.67135 0.142696 0
M  V30 15 C -3.35783 1.08333 -0.0199442 0
M  V30 16 N -4.07438 2.26613 0.290108 0
M  V30 17 N -3.95783 0.118733 -0.705666 0
M  V30 18 H -5.01632 -2.23567 -1.59635 0
M  V30 19 H -3.53328 -2.61632 -2.49439 0
M  V30 20 H 0.888387 1.31432 1.64366 0
M  V30 21 H 0.513929 -2.28369 0.168443 0
M  V30 22 H 3.91721 -2.12072 1.30453 0
M  V30 23 H 3.92198 -1.80067 -0.540947 0
M  V30 24 H 3.28164 0.279013 1.76496 0
M  V30 25 H 2.75289 1.52321 -0.681976 0
M  V30 26 H 4.00261 0.376391 -1.27737 0
M  V30 27 H 5.52896 1.34761 -0.177234 0
M  V30 28 H -3.90481 3.15745 -0.22017 0
M  V30 29 H -4.79836 2.21896 1.06674 0
M  V30 END ATOM
M  V30 BEGIN BOND
M  V30 1 1 1 2
M  V30 2 2 2 3
M  V30 3 1 3 4
M  V30 4 2 4 5
M  V30 5 1 5 6
M  V30 6 2 6 7
M  V30 7 1 7 8
M  V30 8 1 8 9
M  V30 9 2 9 10
M  V30 10 1 10 11
M  V30 11 1 11 12
M  V30 12 1 12 13
M  V30 13 1 13 14
M  V30 14 1 5 15
M  V30 15 1 15 16
M  V30 16 2 15 17
M  V30 17 1 17 2
M  V30 18 1 8 4
M  V30 19 1 12 10
M  V30 20 1 1 18
M  V30 21 1 1 19
M  V30 22 1 7 20
M  V30 23 1 9 21
M  V30 24 1 11 22
M  V30 25 1 11 23
M  V30 26 1 12 24
M  V30 27 1 13 25
M  V30 28 1 13 26
M  V30 29 1 14 27
M  V30 30 1 16 28
M  V30 31 1 16 29
M  V30 END BOND
M  V30 END CTAB
M  END
