
     RDKit          3D

  0  0  0  0  0  0  0  0  0  0999 V3000
M  V30 BEGIN CTAB
M  V30 COUNTS 30 31 0 0 0
M  V30 BEGIN ATOM
M  V30 1 N 6.06246 -0.00404724 0.750417 0
M  V30 2 C 4.65517 0.0379529 0.609015 0
M  V30 3 C 4.03663 -0.389919 -0.522838 0
M  V30 4 C 2.6327 -0.339222 -0.642841 0
M  V30 5 C 1.84861 0.138721 0.36772 0
M  V30 6 N 0.458854 0.20076 0.276472 0
M  V30 7 C -0.389192 -0.170271 -0.769386 0
M  V30 8 O -0.0328653 -0.657163 -1.88129 0
M  V30 9 C -1.8519 -0.00895398 -0.63749 0
M  V30 10 C -2.43338 0.782183 0.326351 0
M  V30 11 C -3.81852 0.919172 0.444078 0
M  V30 12 C -4.65367 0.251017 -0.421005 0
M  V30 13 N -6.06445 0.402825 -0.285762 0
M  V30 14 C -4.09169 -0.541232 -1.38728 0
M  V30 15 C -2.72943 -0.669758 -1.49519 0
M  V30 16 C 2.51016 0.570446 1.51621 0
M  V30 17 C 3.89317 0.519667 1.63243 0
M  V30 18 H 6.60425 -0.695858 0.19486 0
M  V30 19 H 6.58665 0.627293 1.38721 0
M  V30 20 H 4.63259 -0.768982 -1.32878 0
M  V30 21 H 2.2465 -0.704951 -1.58547 0
M  V30 22 H -0.0281538 0.594562 1.15889 0
M  V30 23 H -1.85373 1.33215 1.02753 0
M  V30 24 H -4.27397 1.53992 1.20059 0
M  V30 25 H -6.45822 0.760793 0.606104 0
M  V30 26 H -6.67085 0.146428 -1.09814 0
M  V30 27 H -4.76477 -1.06689 -2.06862 0
M  V30 28 H -2.29078 -1.30758 -2.27345 0
M  V30 29 H 1.91816 0.956024 2.33838 0
M  V30 30 H 4.31968 0.876612 2.56128 0
M  V30 END ATOM
M  V30 BEGIN BOND
M  V30 1 1 1 2
M  V30 2 2 2 3
M  V30 3 1 3 4
M  V30 4 2 4 5
M  V30 5 1 5 6
M  V30 6 1 6 7
M  V30 7 2 7 8
M  V30 8 1 7 9
M  V30 9 2 9 10
M  V30 10 1 10 11
M  V30 11 2 11 12
M  V30 12 1 12 13
M  V30 13 1 12 14
M  V30 14 2 14 15
M  V30 15 1 5 16
M  V30 16 2 16 17
M  V30 17 1 17 2
M  V30 18 1 15 9
M  V30 19 1 1 18
M  V30 20 1 1 19
M  V30 21 1 3 20
M  V30 22 1 4 21
M  V30 23 1 6 22
M  V30 24 1 10 23
M  V30 25 1 11 24
M  V30 26 1 13 25
M  V30 27 1 13 26
M  V30 28 1 14 27
M  V30 29 1 15 28
M  V30 30 1 16 29
M  V30 31 1 17 30
M  V30 END BOND
M  V30 END CTAB
M  END
