
     RDKit          3D

  0  0  0  0  0  0  0  0  0  0999 V3000
M  V30 BEGIN CTAB
M  V30 COUNTS 19 19 0 0 0
M  V30 BEGIN ATOM
M  V30 1 N -1.56777 -2.491 -0.483839 0
M  V30 2 C -0.999599 -1.21615 -0.344965 0
M  V30 3 C 0.350238 -0.983081 -0.55899 0
M  V30 4 C 0.906951 0.270161 -0.422118 0
M  V30 5 N 0.0842209 1.26995 -0.0694976 0
M  V30 6 C -1.23128 1.12658 0.155383 0
M  V30 7 C -1.77266 -0.1297 0.0149733 0
M  V30 8 N -2.05055 2.2549 0.532349 0
M  V30 9 O 2.23161 0.562139 -0.619843 0
M  V30 10 C 3.24022 0.529815 0.335207 0
M  V30 11 F 3.00573 1.4038 1.39742 0
M  V30 12 F 3.37867 -0.77293 0.773331 0
M  V30 13 F 4.42266 0.937401 -0.297242 0
M  V30 14 H -2.4448 -2.63855 -1.00893 0
M  V30 15 H -1.12205 -3.34225 -0.0588723 0
M  V30 16 H 1.01775 -1.78822 -0.843908 0
M  V30 17 H -2.83414 -0.226105 0.200182 0
M  V30 18 H -1.72744 3.18249 0.214753 0
M  V30 19 H -2.88776 2.05074 1.0846 0
M  V30 END ATOM
M  V30 BEGIN BOND
M  V30 1 1 1 2
M  V30 2 2 2 3
M  V30 3 1 3 4
M  V30 4 2 4 5
M  V30 5 1 5 6
M  V30 6 2 6 7
M  V30 7 1 6 8
M  V30 8 1 4 9
M  V30 9 1 9 10
M  V30 10 1 10 11
M  V30 11 1 10 12
M  V30 12 1 10 13
M  V30 13 1 7 2
M  V30 14 1 1 14
M  V30 15 1 1 15
M  V30 16 1 3 16
M  V30 17 1 7 17
M  V30 18 1 8 18
M  V30 19 1 8 19
M  V30 END BOND
M  V30 END CTAB
M  END
