
     RDKit          3D

  0  0  0  0  0  0  0  0  0  0999 V3000
M  V30 BEGIN CTAB
M  V30 COUNTS 45 46 0 0 0
M  V30 BEGIN ATOM
M  V30 1 N 7.59394 0.670982 -0.939034 0
M  V30 2 C 6.20651 0.426469 -1.34391 0
M  V30 3 C 5.56466 -0.340685 -0.211137 0
M  V30 4 N 4.17949 -0.658639 -0.46628 0
M  V30 5 C 3.68159 -1.3851 0.677433 0
M  V30 6 C 2.83341 -0.456349 1.53612 0
M  V30 7 N 1.67847 -0.137622 0.731459 0
M  V30 8 C 1.91661 0.339934 -0.607351 0
M  V30 9 C 3.41539 0.472254 -0.864597 0
M  V30 10 C 0.387386 -0.294869 1.25397 0
M  V30 11 O 0.242059 -0.71743 2.44655 0
M  V30 12 C -0.83791 0.0148225 0.463999 0
M  V30 13 O -0.715606 0.426472 -0.706072 0
M  V30 14 N -2.10766 -0.159461 1.04287 0
M  V30 15 C -3.37597 0.068711 0.472489 0
M  V30 16 C -4.50645 0.0553465 1.3132 0
M  V30 17 C -5.76548 0.251073 0.865175 0
M  V30 18 C -5.98235 0.476511 -0.472164 0
M  V30 19 C -4.92413 0.501176 -1.34039 0
M  V30 20 C -3.63809 0.296883 -0.855361 0
M  V30 21 S -7.61603 0.724881 -1.01465 0
M  V30 22 O -8.4244 1.27959 0.120726 0
M  V30 23 O -7.68423 1.66843 -2.1803 0
M  V30 24 N -8.27451 -0.821624 -1.42396 0
M  V30 25 H 7.61022 0.844704 0.102496 0
M  V30 26 H 8.10524 -0.23399 -1.10547 0
M  V30 27 H 6.13388 -0.100023 -2.29679 0
M  V30 28 H 5.65598 1.40419 -1.41811 0
M  V30 29 H 5.62686 0.225612 0.719004 0
M  V30 30 H 6.10387 -1.32141 -0.114649 0
M  V30 31 H 4.5117 -1.72515 1.32916 0
M  V30 32 H 3.0117 -2.2195 0.381584 0
M  V30 33 H 2.56942 -0.962575 2.49194 0
M  V30 34 H 3.35012 0.475601 1.78762 0
M  V30 35 H 1.52326 -0.350617 -1.3652 0
M  V30 36 H 1.53115 1.39448 -0.729709 0
M  V30 37 H 3.51604 0.605433 -1.96897 0
M  V30 38 H 3.81218 1.38626 -0.404929 0
M  V30 39 H -2.10632 -0.520429 2.06075 0
M  V30 40 H -4.36427 -0.119399 2.37127 0
M  V30 41 H -6.59993 0.225676 1.58778 0
M  V30 42 H -5.08076 0.679541 -2.4085 0
M  V30 43 H -2.81345 0.312026 -1.56394 0
M  V30 44 H -8.40688 -1.33207 -0.511352 0
M  V30 45 H -7.53669 -1.37012 -1.93698 0
M  V30 END ATOM
M  V30 BEGIN BOND
M  V30 1 1 1 2
M  V30 2 1 2 3
M  V30 3 1 3 4
M  V30 4 1 4 5
M  V30 5 1 5 6
M  V30 6 1 6 7
M  V30 7 1 7 8
M  V30 8 1 8 9
M  V30 9 1 7 10
M  V30 10 2 10 11
M  V30 11 1 10 12
M  V30 12 2 12 13
M  V30 13 1 12 14
M  V30 14 1 14 15
M  V30 15 2 15 16
M  V30 16 1 16 17
M  V30 17 2 17 18
M  V30 18 1 18 19
M  V30 19 2 19 20
M  V30 20 1 18 21
M  V30 21 2 21 22
M  V30 22 2 21 23
M  V30 23 1 21 24
M  V30 24 1 9 4
M  V30 25 1 20 15
M  V30 26 1 1 25
M  V30 27 1 1 26
M  V30 28 1 2 27
M  V30 29 1 2 28
M  V30 30 1 3 29
M  V30 31 1 3 30
M  V30 32 1 5 31
M  V30 33 1 5 32
M  V30 34 1 6 33
M  V30 35 1 6 34
M  V30 36 1 8 35
M  V30 37 1 8 36
M  V30 38 1 9 37
M  V30 39 1 9 38
M  V30 40 1 14 39
M  V30 41 1 16 40
M  V30 42 1 17 41
M  V30 43 1 19 42
M  V30 44 1 20 43
M  V30 45 1 24 44
M  V30 46 1 24 45
M  V30 END BOND
M  V30 END CTAB
M  END
