
     RDKit          3D

  0  0  0  0  0  0  0  0  0  0999 V3000
M  V30 BEGIN CTAB
M  V30 COUNTS 26 25 0 0 0
M  V30 BEGIN ATOM
M  V30 1 C 5.70821 0.507743 0.0724743 0
M  V30 2 O 4.4906 0.261765 -0.599993 0
M  V30 3 C 3.52758 -0.532833 0.0305868 0
M  V30 4 O 3.68468 -1.03606 1.1537 0
M  V30 5 O 2.34908 -0.743751 -0.672898 0
M  V30 6 N 1.33727 -1.50004 -0.162547 0
M  V30 7 C 0.126062 -1.04502 -0.280825 0
M  V30 8 C -0.0927761 0.235581 -0.944587 0
M  V30 9 N -1.30676 0.657968 -1.04505 0
M  V30 10 O -2.32185 -0.109308 -0.528445 0
M  V30 11 C -3.54246 0.442232 -0.16088 0
M  V30 12 O -3.65715 1.70322 -0.334345 0
M  V30 13 O -4.58957 -0.29951 0.36343 0
M  V30 14 C -5.80135 0.383695 0.704997 0
M  V30 15 N 1.01614 0.967116 -1.45186 0
M  V30 16 N -0.967584 -1.80878 0.241993 0
M  V30 17 H 5.69125 0.186211 1.12849 0
M  V30 18 H 6.56906 0.00230778 -0.413019 0
M  V30 19 H 5.95721 1.60765 0.043567 0
M  V30 20 H -6.601 0.130976 -0.00158296 0
M  V30 21 H -6.03736 0.177026 1.74796 0
M  V30 22 H -5.65396 1.49607 0.619955 0
M  V30 23 H 1.45256 1.68568 -0.839159 0
M  V30 24 H 1.38702 0.804154 -2.39034 0
M  V30 25 H -1.31855 -1.63073 1.2084 0
M  V30 26 H -1.40635 -2.54336 -0.356346 0
M  V30 END ATOM
M  V30 BEGIN BOND
M  V30 1 1 1 2
M  V30 2 1 2 3
M  V30 3 2 3 4
M  V30 4 1 3 5
M  V30 5 1 5 6
M  V30 6 2 6 7
M  V30 7 1 7 8
M  V30 8 2 8 9
M  V30 9 1 9 10
M  V30 10 1 10 11
M  V30 11 2 11 12
M  V30 12 1 11 13
M  V30 13 1 13 14
M  V30 14 1 8 15
M  V30 15 1 7 16
M  V30 16 1 1 17
M  V30 17 1 1 18
M  V30 18 1 1 19
M  V30 19 1 14 20
M  V30 20 1 14 21
M  V30 21 1 14 22
M  V30 22 1 15 23
M  V30 23 1 15 24
M  V30 24 1 16 25
M  V30 25 1 16 26
M  V30 END BOND
M  V30 END CTAB
M  END
