
     RDKit          3D

  0  0  0  0  0  0  0  0  0  0999 V3000
M  V30 BEGIN CTAB
M  V30 COUNTS 35 36 0 0 0
M  V30 BEGIN ATOM
M  V30 1 O 1.28909 1.79217 0.975936 0
M  V30 2 C 1.22901 1.32129 -0.17499 0
M  V30 3 N 2.11318 0.386197 -0.730256 0
M  V30 4 C 3.22219 -0.187614 -0.0930257 0
M  V30 5 C 3.65358 0.0476127 1.17633 0
M  V30 6 C 4.77789 -0.57089 1.74335 0
M  V30 7 C 5.49835 -1.46557 0.997589 0
M  V30 8 C 5.0959 -1.73275 -0.292845 0
M  V30 9 C 3.99599 -1.11577 -0.821302 0
M  V30 10 F 3.61129 -1.39118 -2.10103 0
M  V30 11 Br 7.03535 -2.35937 1.66664 0
M  V30 12 C 0.0717398 1.84612 -1.0036 0
M  V30 13 C -0.710014 2.82082 -0.197019 0
M  V30 14 S -1.37711 2.05342 1.30462 0
M  V30 15 C -2.58718 0.822525 0.811479 0
M  V30 16 N -3.88252 1.14854 0.654271 0
M  V30 17 C -4.81332 0.241523 0.284526 0
M  V30 18 N -6.18754 0.5914 0.118845 0
M  V30 19 C -4.45892 -1.07536 0.0513779 0
M  V30 20 C -3.12632 -1.40286 0.214924 0
M  V30 21 N -2.2337 -0.456314 0.586676 0
M  V30 22 N -2.67654 -2.74226 -0.00624057 0
M  V30 23 H 1.88446 0.108978 -1.74206 0
M  V30 24 H 3.11243 0.74689 1.79659 0
M  V30 25 H 5.0826 -0.356715 2.74702 0
M  V30 26 H 5.65877 -2.44362 -0.902172 0
M  V30 27 H 0.437399 2.31009 -1.93375 0
M  V30 28 H -0.582822 0.996953 -1.3088 0
M  V30 29 H -1.53737 3.21363 -0.840741 0
M  V30 30 H -0.0790537 3.71002 0.0594944 0
M  V30 31 H -6.45769 1.07802 -0.74406 0
M  V30 32 H -6.89186 0.367737 0.834766 0
M  V30 33 H -5.19256 -1.81289 -0.24513 0
M  V30 34 H -2.83725 -3.28455 -0.859196 0
M  V30 35 H -2.13745 -3.20622 0.770719 0
M  V30 END ATOM
M  V30 BEGIN BOND
M  V30 1 2 1 2
M  V30 2 1 2 3
M  V30 3 1 3 4
M  V30 4 2 4 5
M  V30 5 1 5 6
M  V30 6 2 6 7
M  V30 7 1 7 8
M  V30 8 2 8 9
M  V30 9 1 9 10
M  V30 10 1 7 11
M  V30 11 1 2 12
M  V30 12 1 12 13
M  V30 13 1 13 14
M  V30 14 1 14 15
M  V30 15 2 15 16
M  V30 16 1 16 17
M  V30 17 1 17 18
M  V30 18 2 17 19
M  V30 19 1 19 20
M  V30 20 2 20 21
M  V30 21 1 20 22
M  V30 22 1 9 4
M  V30 23 1 21 15
M  V30 24 1 3 23
M  V30 25 1 5 24
M  V30 26 1 6 25
M  V30 27 1 8 26
M  V30 28 1 12 27
M  V30 29 1 12 28
M  V30 30 1 13 29
M  V30 31 1 13 30
M  V30 32 1 18 31
M  V30 33 1 18 32
M  V30 34 1 19 33
M  V30 35 1 22 34
M  V30 36 1 22 35
M  V30 END BOND
M  V30 END CTAB
M  END
