
     RDKit          3D

  0  0  0  0  0  0  0  0  0  0999 V3000
M  V30 BEGIN CTAB
M  V30 COUNTS 120 121 0 0 0
M  V30 BEGIN ATOM
M  V30 1 C -5.48586 2.77698 0.374491 0 CFG=1
M  V30 2 C -5.36796 2.83396 1.91986 0
M  V30 3 C -4.83393 3.99343 -0.107896 0
M  V30 4 C -4.77367 4.30746 -1.55712 0
M  V30 5 C -4.8862 1.41044 -0.0549807 0 CFG=2
M  V30 6 N -3.62643 1.14652 0.206285 0
M  V30 7 C -2.25914 0.871062 0.493322 0
M  V30 8 O -1.43797 1.67455 0.898188 0
M  V30 9 C -1.7318 -0.541786 0.278772 0 CFG=2
M  V30 10 C -2.08184 -1.28805 1.49674 0
M  V30 11 C -1.69444 -2.67957 1.60988 0
M  V30 12 C -0.551211 -3.00075 2.34179 0
M  V30 13 C -0.117163 -4.28772 2.50977 0
M  V30 14 C -0.867565 -5.29595 1.91653 0
M  V30 15 O -0.448362 -6.61391 2.06541 0
M  V30 16 C -2.02622 -5.02884 1.17114 0
M  V30 17 C -2.42198 -3.69679 1.02906 0
M  V30 18 N -0.269188 -0.453402 0.15844 0
M  V30 19 C 0.305436 -0.175284 -1.10099 0
M  V30 20 O -0.597284 -0.00861438 -2.03991 0
M  V30 21 C 1.65722 -0.0394277 -1.54652 0 CFG=2
M  V30 22 C 1.75992 -0.764992 -2.92037 0
M  V30 23 C 2.01093 -2.21976 -2.50426 0
M  V30 24 C 2.567 -2.09941 -1.09216 0
M  V30 25 N 2.72669 -0.674773 -0.867156 0
M  V30 26 C 3.78481 -0.052796 -0.151489 0
M  V30 27 O 3.78981 1.21487 -0.0707207 0
M  V30 28 C 4.89324 -0.79243 0.493122 0 CFG=2
M  V30 29 C 4.69667 -0.925054 1.95724 0
M  V30 30 C 3.49865 -1.66422 2.45173 0
M  V30 31 C 3.54414 -1.58441 4.02451 0
M  V30 32 N 4.76573 -2.21015 4.47748 0
M  V30 33 C 5.33101 -2.07644 5.77776 0
M  V30 34 N 5.5757 -0.779573 6.34814 0
M  V30 35 N 5.64941 -3.1225 6.46442 0
M  V30 36 N 6.17556 -0.0497561 0.380975 0
M  V30 37 C 7.33434 -0.640366 -0.14491 0
M  V30 38 O 7.21623 -1.85415 -0.549236 0
M  V30 39 C 8.64888 -0.0251066 -0.280189 0 CFG=2
M  V30 40 C 8.72427 1.33157 -0.849617 0
M  V30 41 C 8.19471 1.51702 -2.22672 0
M  V30 42 C 8.39084 2.99264 -2.57709 0
M  V30 43 C 7.85127 3.29109 -3.97818 0
M  V30 44 N 6.43619 2.97071 -3.96118 0
M  V30 45 N 9.58382 -0.913532 -0.977708 0
M  V30 46 N 9.87399 -2.00186 -0.461373 0 CHG=1
M  V30 47 N 10.5779 -2.90858 -0.0406984 0 CHG=-1
M  V30 48 C -5.52936 1.01816 -1.36609 0
M  V30 49 O -4.79138 0.753479 -2.34147 0
M  V30 50 N -6.89243 0.953434 -1.47995 0
M  V30 51 C -7.83354 0.68976 -2.50301 0 CFG=1
M  V30 52 C -8.92458 -0.180549 -2.06523 0
M  V30 53 C -9.85679 0.121239 -0.99732 0
M  V30 54 C -10.6941 1.38523 -1.1404 0
M  V30 55 C -9.42309 -0.0694102 0.436144 0
M  V30 56 C -8.27632 1.90475 -3.2421 0
M  V30 57 O -9.19514 1.83115 -4.27208 0
M  V30 58 O -7.84218 3.04978 -2.97771 0
M  V30 59 H -6.55043 2.75921 0.151712 0
M  V30 60 H -6.2919 3.25078 2.3319 0
M  V30 61 H -5.21206 1.81897 2.33493 0
M  V30 62 H -4.47418 3.41003 2.17394 0
M  V30 63 H -3.85611 4.22765 0.418202 0
M  V30 64 H -5.48602 4.85056 0.330451 0
M  V30 65 H -4.0401 5.15949 -1.77231 0
M  V30 66 H -5.7595 4.78645 -1.91554 0
M  V30 67 H -4.61191 3.46911 -2.18282 0
M  V30 68 H -5.58895 0.762383 0.686358 0
M  V30 69 H -3.43529 2.37106 0.751143 0
M  V30 70 H -2.18792 -0.835806 -0.660687 0
M  V30 71 H -3.21232 -1.25639 1.64046 0
M  V30 72 H -1.71399 -0.698174 2.37965 0
M  V30 73 H 0.0530467 -2.20834 2.80965 0
M  V30 74 H 0.775354 -4.55472 3.07266 0
M  V30 75 H 0.399077 -6.8062 2.60559 0
M  V30 76 H -2.60669 -5.80171 0.720448 0
M  V30 77 H -3.28744 -3.43426 0.46993 0
M  V30 78 H 0.321201 -0.579324 0.981205 0
M  V30 79 H 1.87819 1.03701 -1.74768 0
M  V30 80 H 2.60242 -0.312932 -3.46169 0
M  V30 81 H 0.805327 -0.70235 -3.43356 0
M  V30 82 H 2.75712 -2.60358 -3.22139 0
M  V30 83 H 1.13651 -2.86402 -2.56961 0
M  V30 84 H 3.54316 -2.63545 -1.10426 0
M  V30 85 H 1.91215 -2.60371 -0.373338 0
M  V30 86 H 5.06099 -1.80034 0.0635289 0
M  V30 87 H 5.59569 -1.48849 2.38743 0
M  V30 88 H 4.81 0.074063 2.49214 0
M  V30 89 H 3.63609 -2.73481 2.25926 0
M  V30 90 H 2.59815 -1.22446 2.05522 0
M  V30 91 H 3.59747 -0.513772 4.27144 0
M  V30 92 H 2.61853 -2.06139 4.33345 0
M  V30 93 H 5.2644 -2.83335 3.80904 0
M  V30 94 H 5.44432 -0.528375 7.34602 0
M  V30 95 H 5.92593 -0.0810965 5.63114 0
M  V30 96 H 5.47219 -4.09881 6.04028 0
M  V30 97 H 6.1688 0.921036 0.701026 0
M  V30 98 H 9.13623 0.0543568 0.76912 0
M  V30 99 H 8.29461 2.09531 -0.14392 0
M  V30 100 H 9.83252 1.60494 -0.85815 0
M  V30 101 H 7.12821 1.2582 -2.30899 0
M  V30 102 H 8.73264 0.944419 -3.01853 0
M  V30 103 H 7.91349 3.64298 -1.80872 0
M  V30 104 H 9.47897 3.27249 -2.54539 0
M  V30 105 H 8.06566 4.33373 -4.19829 0
M  V30 106 H 8.33176 2.59208 -4.69255 0
M  V30 107 H 5.98814 3.64252 -4.64359 0
M  V30 108 H 6.09144 3.26768 -2.97227 0
M  V30 109 H -7.4057 1.1553 -0.524509 0
M  V30 110 H -7.23775 0.122334 -3.29608 0
M  V30 111 H -8.49415 -1.22186 -1.81288 0
M  V30 112 H -9.57141 -0.457898 -2.98397 0
M  V30 113 H -10.6819 -0.705481 -1.09113 0
M  V30 114 H -11.222 1.64166 -0.17474 0
M  V30 115 H -10.0317 2.26371 -1.3055 0
M  V30 116 H -11.5091 1.28347 -1.85608 0
M  V30 117 H -9.19599 0.912402 0.952564 0
M  V30 118 H -8.60935 -0.795816 0.472738 0
M  V30 119 H -10.255 -0.487871 1.08446 0
M  V30 120 H -9.66823 2.62608 -4.68424 0
M  V30 END ATOM
M  V30 BEGIN BOND
M  V30 1 1 1 2
M  V30 2 1 1 3
M  V30 3 1 3 4
M  V30 4 1 1 5
M  V30 5 1 5 6
M  V30 6 1 6 7
M  V30 7 2 7 8
M  V30 8 1 7 9
M  V30 9 1 9 10
M  V30 10 1 10 11
M  V30 11 2 11 12
M  V30 12 1 12 13
M  V30 13 2 13 14
M  V30 14 1 14 15
M  V30 15 1 14 16
M  V30 16 2 16 17
M  V30 17 1 9 18
M  V30 18 1 18 19
M  V30 19 2 19 20
M  V30 20 1 19 21
M  V30 21 1 21 22
M  V30 22 1 22 23
M  V30 23 1 23 24
M  V30 24 1 24 25
M  V30 25 1 25 26
M  V30 26 2 26 27
M  V30 27 1 26 28
M  V30 28 1 28 29
M  V30 29 1 29 30
M  V30 30 1 30 31
M  V30 31 1 31 32
M  V30 32 1 32 33
M  V30 33 1 33 34
M  V30 34 2 33 35 CFG=2
M  V30 35 1 28 36
M  V30 36 1 36 37
M  V30 37 2 37 38
M  V30 38 1 37 39
M  V30 39 1 39 40
M  V30 40 1 40 41
M  V30 41 1 41 42
M  V30 42 1 42 43
M  V30 43 1 43 44
M  V30 44 1 39 45
M  V30 45 2 45 46 CFG=2
M  V30 46 2 46 47
M  V30 47 1 5 48
M  V30 48 2 48 49
M  V30 49 1 48 50
M  V30 50 1 50 51
M  V30 51 1 51 52
M  V30 52 1 52 53
M  V30 53 1 53 54
M  V30 54 1 53 55
M  V30 55 1 51 56
M  V30 56 1 56 57
M  V30 57 2 56 58
M  V30 58 1 17 11
M  V30 59 1 25 21
M  V30 60 1 1 59 CFG=1
M  V30 61 1 2 60
M  V30 62 1 2 61
M  V30 63 1 2 62
M  V30 64 1 3 63
M  V30 65 1 3 64
M  V30 66 1 4 65
M  V30 67 1 4 66
M  V30 68 1 4 67
M  V30 69 1 5 68 CFG=1
M  V30 70 1 6 69
M  V30 71 1 9 70 CFG=3
M  V30 72 1 10 71
M  V30 73 1 10 72
M  V30 74 1 12 73
M  V30 75 1 13 74
M  V30 76 1 15 75
M  V30 77 1 16 76
M  V30 78 1 17 77
M  V30 79 1 18 78
M  V30 80 1 21 79 CFG=3
M  V30 81 1 22 80
M  V30 82 1 22 81
M  V30 83 1 23 82
M  V30 84 1 23 83
M  V30 85 1 24 84
M  V30 86 1 24 85
M  V30 87 1 28 86 CFG=3
M  V30 88 1 29 87
M  V30 89 1 29 88
M  V30 90 1 30 89
M  V30 91 1 30 90
M  V30 92 1 31 91
M  V30 93 1 31 92
M  V30 94 1 32 93
M  V30 95 1 34 94
M  V30 96 1 34 95
M  V30 97 1 35 96
M  V30 98 1 36 97
M  V30 99 1 39 98 CFG=1
M  V30 100 1 40 99
M  V30 101 1 40 100
M  V30 102 1 41 101
M  V30 103 1 41 102
M  V30 104 1 42 103
M  V30 105 1 42 104
M  V30 106 1 43 105
M  V30 107 1 43 106
M  V30 108 1 44 107
M  V30 109 1 44 108
M  V30 110 1 50 109
M  V30 111 1 51 110 CFG=3
M  V30 112 1 52 111
M  V30 113 1 52 112
M  V30 114 1 53 113
M  V30 115 1 54 114
M  V30 116 1 54 115
M  V30 117 1 54 116
M  V30 118 1 55 117
M  V30 119 1 55 118
M  V30 120 1 55 119
M  V30 121 1 57 120
M  V30 END BOND
M  V30 END CTAB
M  END
