
     RDKit          3D

  0  0  0  0  0  0  0  0  0  0999 V3000
M  V30 BEGIN CTAB
M  V30 COUNTS 53 55 0 0 0
M  V30 BEGIN ATOM
M  V30 1 O -8.83629 3.14654 -0.605586 0
M  V30 2 C -7.75669 2.54012 -0.0726953 0
M  V30 3 O -7.03334 3.09275 0.841288 0
M  V30 4 C -7.37792 1.15991 -0.568988 0
M  V30 5 C -6.10894 0.730218 0.0586335 0
M  V30 6 C -5.67049 -0.643275 -0.317155 0
M  V30 7 C -6.6434 -1.67561 0.170958 0
M  V30 8 O -6.21171 -2.68244 0.878265 0
M  V30 9 O -8.00572 -1.59554 -0.0927064 0
M  V30 10 N -4.31927 -0.892687 -0.0798106 0
M  V30 11 C -3.50297 -2.0439 -0.0711758 0
M  V30 12 O -3.87149 -3.20891 -0.273829 0
M  V30 13 C -2.047 -1.80438 0.215027 0
M  V30 14 C -1.68733 -0.875461 1.1609 0
M  V30 15 C -0.323058 -0.570625 1.32562 0
M  V30 16 C 0.642854 -1.17906 0.56375 0
M  V30 17 C 0.304312 -2.10066 -0.370511 0
M  V30 18 C -1.06182 -2.4211 -0.538971 0
M  V30 19 N 2.03604 -0.84204 0.723072 0
M  V30 20 C 2.69354 -0.591621 -0.577082 0
M  V30 21 C 3.96362 0.150911 -0.377861 0
M  V30 22 N 5.07509 -0.467792 0.109348 0
M  V30 23 C 6.27626 0.205017 0.102213 0
M  V30 24 C 7.44808 -0.364634 0.516599 0
M  V30 25 N 7.48977 -1.68195 0.98703 0
M  V30 26 N 8.62946 0.318554 0.479872 0
M  V30 27 C 8.66729 1.61508 -0.00416522 0
M  V30 28 N 7.49893 2.09726 -0.40533 0
M  V30 29 C 6.31216 1.49809 -0.394566 0
M  V30 30 N 5.18697 2.08 -0.871715 0
M  V30 31 C 4.05212 1.44646 -0.865392 0
M  V30 32 O 2.96391 1.98098 -1.29201 0
M  V30 33 N 9.80912 2.43155 -0.0809607 0
M  V30 34 H -9.00531 4.10171 -0.716387 0
M  V30 35 H -8.23241 0.522869 -0.508481 0
M  V30 36 H -7.25997 1.30556 -1.70595 0
M  V30 37 H -5.2947 1.49441 -0.162671 0
M  V30 38 H -6.24429 0.729628 1.15426 0
M  V30 39 H -5.85243 -0.74396 -1.46105 0
M  V30 40 H -8.68287 -1.74886 0.638453 0
M  V30 41 H -3.75736 0.0512359 0.171558 0
M  V30 42 H -2.41469 -0.397444 1.76209 0
M  V30 43 H -0.0236269 0.179288 2.06019 0
M  V30 44 H 1.0239 -2.62284 -1.01116 0
M  V30 45 H -1.35329 -3.14135 -1.27479 0
M  V30 46 H 2.52315 -0.79572 1.5956 0
M  V30 47 H 2.11224 -0.339653 -1.42395 0
M  V30 48 H 3.13394 -1.69263 -0.861585 0
M  V30 49 H 7.69924 -2.42811 0.300362 0
M  V30 50 H 7.33836 -1.91963 1.97093 0
M  V30 51 H 5.24686 3.09232 -1.1991 0
M  V30 52 H 10.1304 2.80127 -1.03112 0
M  V30 53 H 10.3208 2.70016 0.753146 0
M  V30 END ATOM
M  V30 BEGIN BOND
M  V30 1 1 1 2
M  V30 2 2 2 3
M  V30 3 1 2 4
M  V30 4 1 4 5
M  V30 5 1 5 6
M  V30 6 1 6 7
M  V30 7 2 7 8
M  V30 8 1 7 9
M  V30 9 1 6 10
M  V30 10 1 10 11
M  V30 11 2 11 12
M  V30 12 1 11 13
M  V30 13 2 13 14
M  V30 14 1 14 15
M  V30 15 2 15 16
M  V30 16 1 16 17
M  V30 17 2 17 18
M  V30 18 1 16 19
M  V30 19 1 19 20
M  V30 20 1 20 21
M  V30 21 2 21 22
M  V30 22 1 22 23
M  V30 23 2 23 24
M  V30 24 1 24 25
M  V30 25 1 24 26
M  V30 26 2 26 27
M  V30 27 1 27 28
M  V30 28 2 28 29
M  V30 29 1 29 30
M  V30 30 1 30 31
M  V30 31 2 31 32
M  V30 32 1 27 33
M  V30 33 1 18 13
M  V30 34 1 31 21
M  V30 35 1 29 23
M  V30 36 1 1 34
M  V30 37 1 4 35
M  V30 38 1 4 36
M  V30 39 1 5 37
M  V30 40 1 5 38
M  V30 41 1 6 39
M  V30 42 1 9 40
M  V30 43 1 10 41
M  V30 44 1 14 42
M  V30 45 1 15 43
M  V30 46 1 17 44
M  V30 47 1 18 45
M  V30 48 1 19 46
M  V30 49 1 20 47
M  V30 50 1 20 48
M  V30 51 1 25 49
M  V30 52 1 25 50
M  V30 53 1 30 51
M  V30 54 1 33 52
M  V30 55 1 33 53
M  V30 END BOND
M  V30 END CTAB
M  END
