
     RDKit          3D

  0  0  0  0  0  0  0  0  0  0999 V3000
M  V30 BEGIN CTAB
M  V30 COUNTS 26 27 0 0 0
M  V30 BEGIN ATOM
M  V30 1 N 2.54688 -1.71863 -0.36028 0
M  V30 2 N 2.21287 -0.392716 -0.130299 0
M  V30 3 C 0.948363 -0.000533486 0.193782 0
M  V30 4 N 1.02254 1.32759 0.334353 0
M  V30 5 N 2.26761 1.73332 0.108787 0
M  V30 6 C 3.02982 0.661885 -0.185186 0
M  V30 7 N 4.42894 0.623107 -0.497094 0
M  V30 8 C -0.230072 -0.897316 0.346789 0
M  V30 9 C -1.42425 -0.0162252 0.712761 0
M  V30 10 C -1.63609 0.964764 -0.385739 0
M  V30 11 C -3.06217 0.780503 -0.771546 0
M  V30 12 C -3.54507 -0.347114 0.0653421 0
M  V30 13 O -2.51622 -0.84252 0.806335 0
M  V30 14 H 2.46908 -2.39731 0.41808 0
M  V30 15 H 2.86572 -2.01074 -1.29441 0
M  V30 16 H 4.735 0.346632 -1.4659 0
M  V30 17 H 5.1125 0.864607 0.225688 0
M  V30 18 H -0.420098 -1.44576 -0.596256 0
M  V30 19 H -0.00930609 -1.62529 1.1444 0
M  V30 20 H -1.24502 0.5029 1.65677 0
M  V30 21 H -1.44296 2.02616 -0.054419 0
M  V30 22 H -0.987035 0.744568 -1.26049 0
M  V30 23 H -3.6102 1.73261 -0.597715 0
M  V30 24 H -3.14881 0.534908 -1.86495 0
M  V30 25 H -4.40163 0.00413035 0.684423 0
M  V30 26 H -3.9604 -1.15352 -0.60424 0
M  V30 END ATOM
M  V30 BEGIN BOND
M  V30 1 1 1 2
M  V30 2 1 2 3
M  V30 3 2 3 4
M  V30 4 1 4 5
M  V30 5 2 5 6
M  V30 6 1 6 7
M  V30 7 1 3 8
M  V30 8 1 8 9
M  V30 9 1 9 10
M  V30 10 1 10 11
M  V30 11 1 11 12
M  V30 12 1 12 13
M  V30 13 1 6 2
M  V30 14 1 13 9
M  V30 15 1 1 14
M  V30 16 1 1 15
M  V30 17 1 7 16
M  V30 18 1 7 17
M  V30 19 1 8 18
M  V30 20 1 8 19
M  V30 21 1 9 20
M  V30 22 1 10 21
M  V30 23 1 10 22
M  V30 24 1 11 23
M  V30 25 1 11 24
M  V30 26 1 12 25
M  V30 27 1 12 26
M  V30 END BOND
M  V30 END CTAB
M  END
