
     RDKit          3D

  0  0  0  0  0  0  0  0  0  0999 V3000
M  V30 BEGIN CTAB
M  V30 COUNTS 46 49 0 0 0
M  V30 BEGIN ATOM
M  V30 1 N 3.67179 -2.65352 -1.8364 0
M  V30 2 C 4.08417 -1.43343 -1.25229 0
M  V30 3 N 3.28892 -0.36351 -1.11194 0
M  V30 4 C 3.69231 0.795226 -0.5532 0
M  V30 5 C 2.75742 1.94326 -0.429253 0
M  V30 6 S 1.89914 1.81112 1.16164 0
M  V30 7 C 0.83257 0.355157 1.18681 0
M  V30 8 N 1.1629 -0.873967 1.57719 0
M  V30 9 N 0.114804 -1.62466 1.43137 0
M  V30 10 C -0.952247 -0.887546 0.929018 0
M  V30 11 N -0.498428 0.346003 0.781001 0
M  V30 12 C -1.1641 1.52172 0.347217 0
M  V30 13 C -2.42702 1.93474 0.997674 0
M  V30 14 C -3.27271 2.59517 -0.0876376 0
M  V30 15 C -2.48086 2.60401 -1.35051 0
M  V30 16 C -1.2395 1.75395 -1.13759 0
M  V30 17 C -2.22642 -1.53546 0.72913 0
M  V30 18 C -3.22038 -1.22999 -0.141192 0
M  V30 19 C -4.42456 -1.9229 -0.174165 0
M  V30 20 C -4.7039 -2.97018 0.668733 0
M  V30 21 C -3.71213 -3.30274 1.56225 0
M  V30 22 C -2.52835 -2.61685 1.5906 0
M  V30 23 Cl -1.34326 -3.15153 2.79476 0
M  V30 24 N 4.95977 0.882639 -0.11325 0
M  V30 25 C 5.79089 -0.18077 -0.239642 0
M  V30 26 N 5.35343 -1.32283 -0.803114 0
M  V30 27 N 7.13947 -0.115333 0.218042 0
M  V30 28 H 3.29253 -2.65893 -2.78596 0
M  V30 29 H 3.78779 -3.51557 -1.22697 0
M  V30 30 H 3.38824 2.8538 -0.371906 0
M  V30 31 H 2.00666 1.98279 -1.2238 0
M  V30 32 H -0.456453 2.40386 0.658695 0
M  V30 33 H -2.9898 1.21483 1.5719 0
M  V30 34 H -2.27178 2.7916 1.74944 0
M  V30 35 H -3.64629 3.58345 0.199394 0
M  V30 36 H -4.14462 1.89983 -0.260144 0
M  V30 37 H -3.0204 2.21433 -2.22591 0
M  V30 38 H -2.21709 3.66279 -1.58482 0
M  V30 39 H -1.2714 0.808415 -1.73126 0
M  V30 40 H -0.38641 2.32293 -1.55957 0
M  V30 41 H -3.10569 -0.450076 -0.852453 0
M  V30 42 H -5.2064 -1.65589 -0.883788 0
M  V30 43 H -5.61271 -3.52352 0.672998 0
M  V30 44 H -3.91779 -4.13575 2.24366 0
M  V30 45 H 7.35076 0.569424 0.975914 0
M  V30 46 H 7.86715 -0.726099 -0.192317 0
M  V30 END ATOM
M  V30 BEGIN BOND
M  V30 1 1 1 2
M  V30 2 2 2 3
M  V30 3 1 3 4
M  V30 4 1 4 5
M  V30 5 1 5 6
M  V30 6 1 6 7
M  V30 7 2 7 8
M  V30 8 1 8 9
M  V30 9 2 9 10
M  V30 10 1 10 11
M  V30 11 1 11 12
M  V30 12 1 12 13
M  V30 13 1 13 14
M  V30 14 1 14 15
M  V30 15 1 15 16
M  V30 16 1 10 17
M  V30 17 2 17 18
M  V30 18 1 18 19
M  V30 19 2 19 20
M  V30 20 1 20 21
M  V30 21 2 21 22
M  V30 22 1 22 23
M  V30 23 2 4 24
M  V30 24 1 24 25
M  V30 25 2 25 26
M  V30 26 1 25 27
M  V30 27 1 26 2
M  V30 28 1 11 7
M  V30 29 1 16 12
M  V30 30 1 22 17
M  V30 31 1 1 28
M  V30 32 1 1 29
M  V30 33 1 5 30
M  V30 34 1 5 31
M  V30 35 1 12 32
M  V30 36 1 13 33
M  V30 37 1 13 34
M  V30 38 1 14 35
M  V30 39 1 14 36
M  V30 40 1 15 37
M  V30 41 1 15 38
M  V30 42 1 16 39
M  V30 43 1 16 40
M  V30 44 1 18 41
M  V30 45 1 19 42
M  V30 46 1 20 43
M  V30 47 1 21 44
M  V30 48 1 27 45
M  V30 49 1 27 46
M  V30 END BOND
M  V30 END CTAB
M  END
