
     RDKit          3D

  0  0  0  0  0  0  0  0  0  0999 V3000
M  V30 BEGIN CTAB
M  V30 COUNTS 26 27 0 0 0
M  V30 BEGIN ATOM
M  V30 1 N -2.96503 2.80888 -0.207406 0
M  V30 2 C -2.42362 1.50398 -0.0814955 0
M  V30 3 C -3.21265 0.374278 0.0389648 0
M  V30 4 C -2.66003 -0.887828 0.160475 0
M  V30 5 N -3.51372 -2.02648 0.282413 0
M  V30 6 C -1.29635 -1.06405 0.165715 0
M  V30 7 C -0.495648 0.0479544 0.0469227 0
M  V30 8 C -1.05003 1.29576 -0.0731383 0
M  V30 9 C 0.979019 -0.0991047 0.0482254 0
M  V30 10 C 1.91348 0.893047 -0.0598119 0
M  V30 11 C 3.21105 0.513036 -0.0335435 0
M  V30 12 C 3.47235 -0.817899 0.0975549 0
M  V30 13 S 1.92283 -1.51144 0.18126 0
M  V30 14 C 4.81765 -1.50191 0.153869 0
M  V30 15 H -2.45279 3.63323 0.164466 0
M  V30 16 H -3.87981 2.97528 -0.670365 0
M  V30 17 H -4.2996 0.512655 0.0349966 0
M  V30 18 H -4.48024 -1.95361 0.650398 0
M  V30 19 H -3.19213 -2.99037 0.00135568 0
M  V30 20 H -0.852825 -2.05673 0.261204 0
M  V30 21 H -0.452065 2.20443 -0.169695 0
M  V30 22 H 1.56767 1.95194 -0.16285 0
M  V30 23 H 4.02814 1.26994 -0.116913 0
M  V30 24 H 5.43105 -1.15446 -0.674426 0
M  V30 25 H 5.2524 -1.3331 1.15082 0
M  V30 26 H 4.63089 -2.58744 -0.000846762 0
M  V30 END ATOM
M  V30 BEGIN BOND
M  V30 1 1 1 2
M  V30 2 2 2 3
M  V30 3 1 3 4
M  V30 4 1 4 5
M  V30 5 2 4 6
M  V30 6 1 6 7
M  V30 7 2 7 8
M  V30 8 1 7 9
M  V30 9 2 9 10
M  V30 10 1 10 11
M  V30 11 2 11 12
M  V30 12 1 12 13
M  V30 13 1 12 14
M  V30 14 1 8 2
M  V30 15 1 13 9
M  V30 16 1 1 15
M  V30 17 1 1 16
M  V30 18 1 3 17
M  V30 19 1 5 18
M  V30 20 1 5 19
M  V30 21 1 6 20
M  V30 22 1 8 21
M  V30 23 1 10 22
M  V30 24 1 11 23
M  V30 25 1 14 24
M  V30 26 1 14 25
M  V30 27 1 14 26
M  V30 END BOND
M  V30 END CTAB
M  END
