
     RDKit          3D

  0  0  0  0  0  0  0  0  0  0999 V3000
M  V30 BEGIN CTAB
M  V30 COUNTS 18 18 0 0 0
M  V30 BEGIN ATOM
M  V30 1 C 3.27368 -0.439577 0.409717 0
M  V30 2 S 2.19715 -0.567085 -1.02718 0
M  V30 3 C 0.676984 0.343908 -0.815773 0
M  V30 4 C -0.451515 -0.235772 -0.257257 0
M  V30 5 N -0.421178 -1.59582 0.167117 0
M  V30 6 C -1.63222 0.455291 -0.0874068 0
M  V30 7 N -2.80678 -0.0947003 0.476573 0
M  V30 8 C -1.64019 1.77439 -0.506389 0
M  V30 9 N -0.53046 2.30203 -1.04214 0
M  V30 10 N 0.600081 1.63324 -1.20229 0
M  V30 11 H 2.97164 -1.11162 1.24555 0
M  V30 12 H 4.32328 -0.656888 0.12478 0
M  V30 13 H 3.29235 0.585804 0.852273 0
M  V30 14 H -0.718269 -2.3753 -0.456556 0
M  V30 15 H -0.090623 -1.78934 1.12731 0
M  V30 16 H -2.76087 -0.842003 1.21351 0
M  V30 17 H -3.75803 0.209091 0.19388 0
M  V30 18 H -2.52503 2.40435 -0.415726 0
M  V30 END ATOM
M  V30 BEGIN BOND
M  V30 1 1 1 2
M  V30 2 1 2 3
M  V30 3 2 3 4
M  V30 4 1 4 5
M  V30 5 1 4 6
M  V30 6 1 6 7
M  V30 7 2 6 8
M  V30 8 1 8 9
M  V30 9 2 9 10
M  V30 10 1 10 3
M  V30 11 1 1 11
M  V30 12 1 1 12
M  V30 13 1 1 13
M  V30 14 1 5 14
M  V30 15 1 5 15
M  V30 16 1 7 16
M  V30 17 1 7 17
M  V30 18 1 8 18
M  V30 END BOND
M  V30 END CTAB
M  END
