
     RDKit          3D

  0  0  0  0  0  0  0  0  0  0999 V3000
M  V30 BEGIN CTAB
M  V30 COUNTS 21 21 0 0 0
M  V30 BEGIN ATOM
M  V30 1 C -1.45647 -2.16303 -0.0330627 0
M  V30 2 C -0.491024 -1.03208 -0.0218053 0
M  V30 3 C -0.937436 0.290523 0.000141917 0
M  V30 4 N -2.34686 0.478244 0.0107 0
M  V30 5 C -0.0585879 1.347 0.0108472 0
M  V30 6 N -0.532611 2.68118 0.0331194 0
M  V30 7 C 1.30165 1.14534 0.000369735 0
M  V30 8 C 1.77964 -0.164038 -0.0215548 0
M  V30 9 C 0.879522 -1.20963 -0.0319888 0
M  V30 10 N 3.17896 -0.366049 -0.0322626 0 CHG=1
M  V30 11 O 4.05374 0.679937 -0.0216837 0 CHG=-1
M  V30 12 O 3.59697 -1.53186 -0.0517825 0
M  V30 13 H -2.09458 -2.16019 -0.939289 0
M  V30 14 H -2.09305 -2.05731 0.8474 0
M  V30 15 H -0.888194 -3.10466 0.00417838 0
M  V30 16 H -2.82356 0.565147 0.943994 0
M  V30 17 H -2.91471 0.53186 -0.859022 0
M  V30 18 H -0.730213 3.26067 -0.797186 0
M  V30 19 H -0.689483 3.09605 0.99974 0
M  V30 20 H 2.02716 1.95781 0.00834798 0
M  V30 21 H 1.23915 -2.24494 -0.0492019 0
M  V30 END ATOM
M  V30 BEGIN BOND
M  V30 1 1 1 2
M  V30 2 2 2 3
M  V30 3 1 3 4
M  V30 4 1 3 5
M  V30 5 1 5 6
M  V30 6 2 5 7
M  V30 7 1 7 8
M  V30 8 2 8 9
M  V30 9 1 8 10
M  V30 10 1 10 11
M  V30 11 2 10 12
M  V30 12 1 9 2
M  V30 13 1 1 13
M  V30 14 1 1 14
M  V30 15 1 1 15
M  V30 16 1 4 16
M  V30 17 1 4 17
M  V30 18 1 6 18
M  V30 19 1 6 19
M  V30 20 1 7 20
M  V30 21 1 9 21
M  V30 END BOND
M  V30 END CTAB
M  END
