
     RDKit          3D

  0  0  0  0  0  0  0  0  0  0999 V3000
M  V30 BEGIN CTAB
M  V30 COUNTS 31 31 0 0 0
M  V30 BEGIN ATOM
M  V30 1 N 3.57717 -1.09821 -1.22089 0
M  V30 2 C 2.16721 -1.16573 -0.959927 0
M  V30 3 C 1.65569 0.161083 -0.407723 0
M  V30 4 N 0.242283 0.109654 -0.140595 0
M  V30 5 C -0.705555 0.926582 -0.841539 0
M  V30 6 O -0.303757 1.49991 -1.89473 0
M  V30 7 C -2.08417 1.13927 -0.428648 0
M  V30 8 C -2.63181 0.143988 0.533736 0
M  V30 9 C -1.75979 -1.04157 0.789825 0
M  V30 10 C -0.331453 -0.757362 0.842001 0
M  V30 11 O 0.425044 -1.25151 1.72895 0
M  V30 12 C -3.94938 -0.378666 -0.0322733 0
M  V30 13 C 2.48021 0.610632 0.758875 0
M  V30 14 N 1.92107 1.87999 1.21894 0
M  V30 15 H 4.15666 -0.995972 -0.368593 0
M  V30 16 H 3.83577 -1.99019 -1.7258 0
M  V30 17 H 1.89875 -2.00586 -0.280735 0
M  V30 18 H 1.66162 -1.37821 -1.92519 0
M  V30 19 H 1.80214 0.922381 -1.21754 0
M  V30 20 H -2.13663 2.16157 0.0505165 0
M  V30 21 H -2.71134 1.23289 -1.34445 0
M  V30 22 H -2.88371 0.614098 1.50975 0
M  V30 23 H -2.05363 -1.49387 1.77765 0
M  V30 24 H -1.95888 -1.8464 0.0344536 0
M  V30 25 H -3.89529 -0.347967 -1.14895 0
M  V30 26 H -4.81157 0.200368 0.305199 0
M  V30 27 H -4.08792 -1.4668 0.212916 0
M  V30 28 H 3.49578 0.881212 0.344701 0
M  V30 29 H 2.60651 -0.12057 1.55241 0
M  V30 30 H 1.70456 2.4242 0.35304 0
M  V30 31 H 2.67442 2.43105 1.72221 0
M  V30 END ATOM
M  V30 BEGIN BOND
M  V30 1 1 1 2
M  V30 2 1 2 3
M  V30 3 1 3 4
M  V30 4 1 4 5
M  V30 5 2 5 6
M  V30 6 1 5 7
M  V30 7 1 7 8
M  V30 8 1 8 9
M  V30 9 1 9 10
M  V30 10 2 10 11
M  V30 11 1 8 12
M  V30 12 1 3 13
M  V30 13 1 13 14
M  V30 14 1 10 4
M  V30 15 1 1 15
M  V30 16 1 1 16
M  V30 17 1 2 17
M  V30 18 1 2 18
M  V30 19 1 3 19
M  V30 20 1 7 20
M  V30 21 1 7 21
M  V30 22 1 8 22
M  V30 23 1 9 23
M  V30 24 1 9 24
M  V30 25 1 12 25
M  V30 26 1 12 26
M  V30 27 1 12 27
M  V30 28 1 13 28
M  V30 29 1 13 29
M  V30 30 1 14 30
M  V30 31 1 14 31
M  V30 END BOND
M  V30 END CTAB
M  END
