
     RDKit          3D

  0  0  0  0  0  0  0  0  0  0999 V3000
M  V30 BEGIN CTAB
M  V30 COUNTS 38 39 0 0 0
M  V30 BEGIN ATOM
M  V30 1 N 1.68663 -2.25485 -0.67687 0
M  V30 2 C 2.17126 -1.04466 -0.146266 0
M  V30 3 C 3.50673 -0.77581 -0.863668 0
M  V30 4 N 3.72421 0.654772 -0.984683 0
M  V30 5 C 3.48457 1.21731 0.333634 0
M  V30 6 C 1.97229 1.2365 0.584526 0
M  V30 7 C 1.36294 0.174357 -0.308746 0
M  V30 8 C -0.0764547 0.0989658 -0.15294 0
M  V30 9 C -0.631071 0.936453 0.71475 0
M  V30 10 C -2.07575 1.01788 1.01738 0
M  V30 11 C -2.95476 0.0980179 0.280453 0
M  V30 12 C -2.37369 -0.507642 -0.959576 0
M  V30 13 C -0.927446 -0.840926 -0.896598 0
M  V30 14 C -4.23455 0.836009 -0.0680881 0
M  V30 15 N -3.36057 -0.977772 1.20069 0
M  V30 16 H 2.05576 -3.0779 -0.168223 0
M  V30 17 H 1.7675 -2.37624 -1.69824 0
M  V30 18 H 2.45599 -1.17518 0.9279 0
M  V30 19 H 4.35141 -1.22879 -0.310644 0
M  V30 20 H 3.43385 -1.16866 -1.90817 0
M  V30 21 H 4.72561 0.780986 -1.23253 0
M  V30 22 H 3.98087 0.521785 1.05535 0
M  V30 23 H 3.92565 2.21609 0.436665 0
M  V30 24 H 1.65192 2.25854 0.319108 0
M  V30 25 H 1.86028 0.999028 1.66256 0
M  V30 26 H 1.55187 0.556055 -1.35944 0
M  V30 27 H -0.0286828 1.66098 1.29575 0
M  V30 28 H -2.18021 0.885416 2.12008 0
M  V30 29 H -2.37408 2.08225 0.829956 0
M  V30 30 H -2.97978 -1.41678 -1.17177 0
M  V30 31 H -2.59935 0.181774 -1.80284 0
M  V30 32 H -0.533551 -0.887071 -1.93347 0
M  V30 33 H -0.845591 -1.83321 -0.36811 0
M  V30 34 H -5.03016 0.105961 -0.383461 0
M  V30 35 H -4.58054 1.4722 0.772908 0
M  V30 36 H -4.00657 1.48531 -0.939934 0
M  V30 37 H -4.22666 -1.39981 0.793837 0
M  V30 38 H -3.64985 -0.511336 2.08852 0
M  V30 END ATOM
M  V30 BEGIN BOND
M  V30 1 1 1 2
M  V30 2 1 2 3
M  V30 3 1 3 4
M  V30 4 1 4 5
M  V30 5 1 5 6
M  V30 6 1 6 7
M  V30 7 1 7 8
M  V30 8 2 8 9
M  V30 9 1 9 10
M  V30 10 1 10 11
M  V30 11 1 11 12
M  V30 12 1 12 13
M  V30 13 1 11 14
M  V30 14 1 11 15
M  V30 15 1 7 2
M  V30 16 1 13 8
M  V30 17 1 1 16
M  V30 18 1 1 17
M  V30 19 1 2 18
M  V30 20 1 3 19
M  V30 21 1 3 20
M  V30 22 1 4 21
M  V30 23 1 5 22
M  V30 24 1 5 23
M  V30 25 1 6 24
M  V30 26 1 6 25
M  V30 27 1 7 26
M  V30 28 1 9 27
M  V30 29 1 10 28
M  V30 30 1 10 29
M  V30 31 1 12 30
M  V30 32 1 12 31
M  V30 33 1 13 32
M  V30 34 1 13 33
M  V30 35 1 14 34
M  V30 36 1 14 35
M  V30 37 1 14 36
M  V30 38 1 15 37
M  V30 39 1 15 38
M  V30 END BOND
M  V30 END CTAB
M  END
