
     RDKit          3D

  0  0  0  0  0  0  0  0  0  0999 V3000
M  V30 BEGIN CTAB
M  V30 COUNTS 47 50 0 0 0
M  V30 BEGIN ATOM
M  V30 1 C -4.02773 3.10123 0.561895 0
M  V30 2 C -2.59871 2.63602 0.51477 0
M  V30 3 C -1.46247 3.36321 0.648333 0
M  V30 4 C -0.31972 2.54596 0.540352 0
M  V30 5 C 1.07045 3.03313 0.62686 0
M  V30 6 C -0.823798 1.28255 0.334864 0
M  V30 7 N -2.18125 1.34879 0.320565 0
M  V30 8 B -3.07541 0.141968 0.102698 0 CHG=-1
M  V30 9 F -3.94706 0.0592032 1.29355 0
M  V30 10 F -3.9712 0.42166 -1.00796 0
M  V30 11 N -2.28361 -1.12282 -0.083794 0 CHG=1
M  V30 12 C -2.66575 -2.35913 -0.284618 0
M  V30 13 C -4.08016 -2.78162 -0.374428 0
M  V30 14 C -1.53822 -3.23242 -0.39745 0
M  V30 15 C -0.395089 -2.52399 -0.263224 0
M  V30 16 C 0.956937 -3.10712 -0.324866 0
M  V30 17 C -0.868608 -1.14065 -0.0582018 0
M  V30 18 C -0.157998 -0.0186317 0.137041 0
M  V30 19 C 1.28136 -0.042153 0.11877 0
M  V30 20 C 2.05031 -0.163733 -1.04864 0
M  V30 21 C 3.41381 -0.216782 -1.0465 0
M  V30 22 N 4.16296 -0.340519 -2.25657 0
M  V30 23 C 4.0838 -0.148864 0.156134 0
M  V30 24 N 5.49185 -0.202827 0.173254 0
M  V30 25 C 3.34556 -0.0291511 1.31631 0
M  V30 26 C 1.98121 0.0258296 1.33562 0
M  V30 27 H -4.55012 2.58076 1.38935 0
M  V30 28 H -4.45838 2.88188 -0.433221 0
M  V30 29 H -4.00297 4.19173 0.690283 0
M  V30 30 H -1.38856 4.43442 0.819132 0
M  V30 31 H 1.01653 4.17105 0.443423 0
M  V30 32 H 1.49702 3.03168 1.65055 0
M  V30 33 H 1.73935 2.72896 -0.177253 0
M  V30 34 H -4.78229 -1.9264 -0.399639 0
M  V30 35 H -4.38611 -3.44134 0.458104 0
M  V30 36 H -4.20797 -3.31583 -1.3395 0
M  V30 37 H -1.5569 -4.32351 -0.569157 0
M  V30 38 H 1.64607 -2.84759 0.468301 0
M  V30 39 H 1.3857 -3.14081 -1.35617 0
M  V30 40 H 0.808678 -4.23376 -0.132416 0
M  V30 41 H 1.52158 -0.218061 -2.00096 0
M  V30 42 H 4.88275 0.346191 -2.50879 0
M  V30 43 H 3.97872 -1.13727 -2.89576 0
M  V30 44 H 5.98261 -1.04428 -0.169898 0
M  V30 45 H 6.04568 0.593883 0.525841 0
M  V30 46 H 3.93718 0.0200609 2.24187 0
M  V30 47 H 1.44996 0.119093 2.26114 0
M  V30 END ATOM
M  V30 BEGIN BOND
M  V30 1 1 1 2
M  V30 2 2 2 3
M  V30 3 1 3 4
M  V30 4 1 4 5
M  V30 5 2 4 6
M  V30 6 1 6 7
M  V30 7 1 7 8
M  V30 8 1 8 9
M  V30 9 1 8 10
M  V30 10 1 8 11
M  V30 11 2 11 12
M  V30 12 1 12 13
M  V30 13 1 12 14
M  V30 14 2 14 15
M  V30 15 1 15 16
M  V30 16 1 15 17
M  V30 17 2 17 18
M  V30 18 1 18 19
M  V30 19 2 19 20
M  V30 20 1 20 21
M  V30 21 1 21 22
M  V30 22 2 21 23
M  V30 23 1 23 24
M  V30 24 1 23 25
M  V30 25 2 25 26
M  V30 26 1 7 2
M  V30 27 1 17 11
M  V30 28 1 26 19
M  V30 29 1 18 6
M  V30 30 1 1 27
M  V30 31 1 1 28
M  V30 32 1 1 29
M  V30 33 1 3 30
M  V30 34 1 5 31
M  V30 35 1 5 32
M  V30 36 1 5 33
M  V30 37 1 13 34
M  V30 38 1 13 35
M  V30 39 1 13 36
M  V30 40 1 14 37
M  V30 41 1 16 38
M  V30 42 1 16 39
M  V30 43 1 16 40
M  V30 44 1 20 41
M  V30 45 1 22 42
M  V30 46 1 22 43
M  V30 47 1 24 44
M  V30 48 1 24 45
M  V30 49 1 25 46
M  V30 50 1 26 47
M  V30 END BOND
M  V30 END CTAB
M  END
