
     RDKit          3D

  0  0  0  0  0  0  0  0  0  0999 V3000
M  V30 BEGIN CTAB
M  V30 COUNTS 27 27 0 0 0
M  V30 BEGIN ATOM
M  V30 1 N 0.000734747 2.54574 -2.50999 0
M  V30 2 C -0.0568959 1.56053 -1.48919 0
M  V30 3 N 1.09134 1.05374 -1.03902 0
M  V30 4 C 1.09363 0.109481 -0.0776348 0
M  V30 5 N -0.0769678 -0.314734 0.421133 0
M  V30 6 C -1.26029 0.163033 0.00385299 0
M  V30 7 N -1.20567 1.11291 -0.965986 0
M  V30 8 C -2.57588 -0.30434 0.548386 0
M  V30 9 N -2.49581 -0.659852 1.92733 0
M  V30 10 C -3.26493 -1.32054 -0.288505 0
M  V30 11 N 2.35125 -0.341326 0.360637 0
M  V30 12 C 3.13373 -1.22549 -0.455578 0
M  V30 13 C 2.84873 0.0847208 1.64302 0
M  V30 14 H -0.0299453 2.31404 -3.52119 0
M  V30 15 H 0.0748259 3.54462 -2.23719 0
M  V30 16 H -3.25856 0.619168 0.526677 0
M  V30 17 H -3.30564 -0.30868 2.47023 0
M  V30 18 H -1.63103 -0.241016 2.32743 0
M  V30 19 H -4.38613 -1.1374 -0.277353 0
M  V30 20 H -2.99572 -1.24554 -1.36547 0
M  V30 21 H -3.11058 -2.32244 0.13794 0
M  V30 22 H 4.18826 -1.3319 -0.0546633 0
M  V30 23 H 2.68233 -2.21553 -0.606012 0
M  V30 24 H 3.31054 -0.78131 -1.48002 0
M  V30 25 H 3.86807 -0.292643 1.83705 0
M  V30 26 H 2.13779 -0.251186 2.44804 0
M  V30 27 H 2.87281 1.18597 1.71608 0
M  V30 END ATOM
M  V30 BEGIN BOND
M  V30 1 1 1 2
M  V30 2 2 2 3
M  V30 3 1 3 4
M  V30 4 2 4 5
M  V30 5 1 5 6
M  V30 6 2 6 7
M  V30 7 1 6 8
M  V30 8 1 8 9
M  V30 9 1 8 10
M  V30 10 1 4 11
M  V30 11 1 11 12
M  V30 12 1 11 13
M  V30 13 1 7 2
M  V30 14 1 1 14
M  V30 15 1 1 15
M  V30 16 1 8 16
M  V30 17 1 9 17
M  V30 18 1 9 18
M  V30 19 1 10 19
M  V30 20 1 10 20
M  V30 21 1 10 21
M  V30 22 1 12 22
M  V30 23 1 12 23
M  V30 24 1 12 24
M  V30 25 1 13 25
M  V30 26 1 13 26
M  V30 27 1 13 27
M  V30 END BOND
M  V30 END CTAB
M  END
