
     RDKit          3D

  0  0  0  0  0  0  0  0  0  0999 V3000
M  V30 BEGIN CTAB
M  V30 COUNTS 39 40 0 0 0
M  V30 BEGIN ATOM
M  V30 1 C -1.26131 -1.56115 -1.46999 0
M  V30 2 C -2.00515 -1.02649 -0.294925 0
M  V30 3 C -1.60465 0.299784 0.19372 0
M  V30 4 C -1.81145 1.29402 -0.967206 0
M  V30 5 C -2.0768 2.61125 -0.275786 0
M  V30 6 C -1.11513 2.9362 0.796386 0
M  V30 7 C -0.313602 1.83135 1.36005 0
M  V30 8 N -0.344015 0.583078 0.675508 0
M  V30 9 S 0.690312 -0.519745 1.34058 0
M  V30 10 O 0.136105 -1.86702 1.67133 0
M  V30 11 O 1.21165 0.0234054 2.67245 0
M  V30 12 C 2.11645 -0.796332 0.373069 0
M  V30 13 C 2.27043 -0.0991143 -0.797759 0
M  V30 14 C 3.39938 -0.312582 -1.56189 0
M  V30 15 Cl 3.59574 0.57631 -3.05458 0
M  V30 16 C 4.35577 -1.2185 -1.14446 0
M  V30 17 N 4.17202 -1.88236 0.00578946 0
M  V30 18 C 3.07019 -1.69777 0.786442 0
M  V30 19 N 2.86156 -2.39015 2.00218 0
M  V30 20 N -3.41202 -0.889105 -0.729433 0
M  V30 21 H -0.30819 -2.04365 -1.2329 0
M  V30 22 H -1.91265 -2.35468 -1.94012 0
M  V30 23 H -1.15471 -0.777759 -2.26468 0
M  V30 24 H -2.05029 -1.82084 0.485423 0
M  V30 25 H -2.3578 0.576642 0.998241 0
M  V30 26 H -2.62012 0.993045 -1.6183 0
M  V30 27 H -0.887017 1.40542 -1.56096 0
M  V30 28 H -2.16836 3.42633 -1.0443 0
M  V30 29 H -3.12392 2.51497 0.140128 0
M  V30 30 H -0.42144 3.73887 0.403533 0
M  V30 31 H -1.67059 3.45915 1.62249 0
M  V30 32 H 0.75963 2.13563 1.46068 0
M  V30 33 H -0.63616 1.62234 2.42379 0
M  V30 34 H 1.49914 0.594197 -1.07967 0
M  V30 35 H 5.24155 -1.37321 -1.76275 0
M  V30 36 H 3.17539 -1.99508 2.88631 0
M  V30 37 H 2.38163 -3.30847 1.96867 0
M  V30 38 H -4.06456 -1.1358 0.0417283 0
M  V30 39 H -3.61702 -1.55217 -1.50877 0
M  V30 END ATOM
M  V30 BEGIN BOND
M  V30 1 1 1 2
M  V30 2 1 2 3
M  V30 3 1 3 4
M  V30 4 1 4 5
M  V30 5 1 5 6
M  V30 6 1 6 7
M  V30 7 1 7 8
M  V30 8 1 8 9
M  V30 9 2 9 10
M  V30 10 2 9 11
M  V30 11 1 9 12
M  V30 12 2 12 13
M  V30 13 1 13 14
M  V30 14 1 14 15
M  V30 15 2 14 16
M  V30 16 1 16 17
M  V30 17 2 17 18
M  V30 18 1 18 19
M  V30 19 1 2 20
M  V30 20 1 8 3
M  V30 21 1 18 12
M  V30 22 1 1 21
M  V30 23 1 1 22
M  V30 24 1 1 23
M  V30 25 1 2 24
M  V30 26 1 3 25
M  V30 27 1 4 26
M  V30 28 1 4 27
M  V30 29 1 5 28
M  V30 30 1 5 29
M  V30 31 1 6 30
M  V30 32 1 6 31
M  V30 33 1 7 32
M  V30 34 1 7 33
M  V30 35 1 13 34
M  V30 36 1 16 35
M  V30 37 1 19 36
M  V30 38 1 19 37
M  V30 39 1 20 38
M  V30 40 1 20 39
M  V30 END BOND
M  V30 END CTAB
M  END
