
     RDKit          3D

  0  0  0  0  0  0  0  0  0  0999 V3000
M  V30 BEGIN CTAB
M  V30 COUNTS 33 33 0 0 0
M  V30 BEGIN ATOM
M  V30 1 N -4.53589 0.830022 -0.322836 0
M  V30 2 C -3.14563 0.932523 -0.410795 0
M  V30 3 C -2.48468 -0.34861 0.0154528 0
M  V30 4 N -1.03656 -0.296943 -0.0582542 0
M  V30 5 C -0.503395 -1.56796 0.364822 0
M  V30 6 C 0.715648 -2.00778 -0.344876 0
M  V30 7 C 1.55417 -0.966988 -0.9568 0
M  V30 8 C 1.44975 0.401048 -0.412261 0 CFG=1
M  V30 9 C 0.943735 0.503209 0.985351 0
M  V30 10 C -0.576978 0.691523 0.900689 0
M  V30 11 S 3.04848 1.18944 -0.475244 0
M  V30 12 O 3.55293 1.26387 -1.88902 0
M  V30 13 O 2.87201 2.58027 0.0893844 0
M  V30 14 N 4.17877 0.333007 0.508362 0
M  V30 15 H -5.03041 1.63743 -0.440634 0
M  V30 16 H -4.88015 0.088161 0.166178 0
M  V30 17 H -2.9202 1.16247 -1.47904 0
M  V30 18 H -2.79675 1.80219 0.167698 0
M  V30 19 H -2.8067 -1.16485 -0.683977 0
M  V30 20 H -2.78893 -0.619118 1.03337 0
M  V30 21 H -1.31354 -2.34271 0.218459 0
M  V30 22 H -0.345816 -1.57571 1.48389 0
M  V30 23 H 1.32389 -2.63178 0.374159 0
M  V30 24 H 0.427362 -2.7446 -1.14958 0
M  V30 25 H 1.37083 -0.915753 -2.07001 0
M  V30 26 H 2.63235 -1.29722 -0.886044 0
M  V30 27 H 0.785216 1.01886 -1.07359 0
M  V30 28 H 1.32189 1.46473 1.43712 0
M  V30 29 H 1.23593 -0.303027 1.65234 0
M  V30 30 H -0.811658 1.73033 0.597798 0
M  V30 31 H -0.965452 0.516694 1.91425 0
M  V30 32 H 4.84415 0.999355 0.978283 0
M  V30 33 H 4.68566 -0.362079 -0.0773043 0
M  V30 END ATOM
M  V30 BEGIN BOND
M  V30 1 1 1 2
M  V30 2 1 2 3
M  V30 3 1 3 4
M  V30 4 1 4 5
M  V30 5 1 5 6
M  V30 6 1 6 7
M  V30 7 1 7 8
M  V30 8 1 8 9
M  V30 9 1 9 10
M  V30 10 1 8 11
M  V30 11 2 11 12
M  V30 12 2 11 13
M  V30 13 1 11 14
M  V30 14 1 10 4
M  V30 15 1 1 15
M  V30 16 1 1 16
M  V30 17 1 2 17
M  V30 18 1 2 18
M  V30 19 1 3 19
M  V30 20 1 3 20
M  V30 21 1 5 21
M  V30 22 1 5 22
M  V30 23 1 6 23
M  V30 24 1 6 24
M  V30 25 1 7 25
M  V30 26 1 7 26
M  V30 27 1 8 27 CFG=3
M  V30 28 1 9 28
M  V30 29 1 9 29
M  V30 30 1 10 30
M  V30 31 1 10 31
M  V30 32 1 14 32
M  V30 33 1 14 33
M  V30 END BOND
M  V30 END CTAB
M  END
