
     RDKit          3D

  0  0  0  0  0  0  0  0  0  0999 V3000
M  V30 BEGIN CTAB
M  V30 COUNTS 92 93 0 0 0
M  V30 BEGIN ATOM
M  V30 1 N 9.66347 2.61751 2.2546 0
M  V30 2 C 9.48457 3.94608 1.93939 0
M  V30 3 C 9.2045 4.16445 0.491723 0
M  V30 4 C 7.94039 3.58519 -0.0197515 0
M  V30 5 C 7.83501 2.112 0.189291 0
M  V30 6 C 6.65228 1.44021 -0.439701 0 CFG=2
M  V30 7 N 6.60577 1.59662 -1.87333 0
M  V30 8 C 5.40481 1.71217 0.263743 0
M  V30 9 O 5.52814 2.42038 1.35332 0
M  V30 10 N 4.09737 1.30153 -0.102422 0
M  V30 11 C 2.91563 1.64649 0.612521 0
M  V30 12 C 1.63339 1.12302 0.146005 0
M  V30 13 O 0.634439 1.6879 0.805456 0
M  V30 14 N 1.38118 0.199262 -0.809957 0
M  V30 15 C 0.221873 -0.392514 -1.39253 0 CFG=1
M  V30 16 C 0.432761 -1.51892 -2.32326 0
M  V30 17 C 1.19922 -2.62599 -1.70191 0
M  V30 18 C 2.52629 -2.78249 -2.02798 0
M  V30 19 C 3.27732 -3.80163 -1.43187 0
M  V30 20 C 2.7334 -4.66418 -0.521624 0
M  V30 21 O 3.44771 -5.69184 0.0966135 0
M  V30 22 C 1.38758 -4.47228 -0.223548 0
M  V30 23 C 0.629912 -3.47734 -0.794411 0
M  V30 24 C -0.842816 -0.684635 -0.326056 0
M  V30 25 O -0.341294 -0.847061 0.8004 0
M  V30 26 N -2.15288 -0.699485 -0.692055 0
M  V30 27 C -3.5086 -0.720332 -1.0343 0 CFG=1
M  V30 28 C -4.0961 -1.79339 -1.83251 0
M  V30 29 C -4.18804 -3.16735 -1.40306 0
M  V30 30 C -3.16235 -4.08079 -1.50627 0
M  V30 31 C -3.17043 -5.39672 -1.16263 0
M  V30 32 C -4.34708 -5.90676 -0.647223 0
M  V30 33 O -4.43916 -7.23078 -0.270569 0
M  V30 34 C -5.4618 -5.05555 -0.503638 0
M  V30 35 C -5.34865 -3.73201 -0.881709 0
M  V30 36 C -4.45189 -0.240579 0.078761 0
M  V30 37 O -3.89541 0.260275 1.11111 0
M  V30 38 N -5.84336 -0.36299 -0.0472087 0
M  V30 39 C -6.78607 0.0645102 0.947865 0
M  V30 40 C -6.74271 1.60226 1.06339 0
M  V30 41 C -7.70862 2.05003 2.09459 0
M  V30 42 C -7.85609 3.50254 2.27432 0
M  V30 43 C -6.68145 4.29148 2.64715 0
M  V30 44 C -5.58107 4.44892 1.71782 0
M  V30 45 O -4.22633 4.61295 2.1068 0
M  V30 46 O -5.75244 4.45292 0.465572 0
M  V30 47 H 9.31461 2.22438 3.09151 0
M  V30 48 H 10.363 2.08206 1.78034 0
M  V30 49 H 8.67991 4.37724 2.59319 0
M  V30 50 H 10.411 4.52918 2.25947 0
M  V30 51 H 9.18347 5.26786 0.251996 0
M  V30 52 H 10.0762 3.75589 -0.133291 0
M  V30 53 H 7.87045 3.87753 -1.11533 0
M  V30 54 H 7.10492 4.13161 0.528853 0
M  V30 55 H 8.79387 1.6223 0.0333502 0
M  V30 56 H 7.64809 2.0059 1.32882 0
M  V30 57 H 6.86844 0.314244 -0.277072 0
M  V30 58 H 6.22674 0.722656 -2.3073 0
M  V30 59 H 5.97534 2.42509 -2.09899 0
M  V30 60 H 4.05703 0.696642 -0.973595 0
M  V30 61 H 3.08464 1.29166 1.68209 0
M  V30 62 H 2.84695 2.76688 0.68505 0
M  V30 63 H 2.29605 -0.224317 -1.28747 0
M  V30 64 H -0.246578 0.479723 -1.99188 0
M  V30 65 H 0.932069 -1.1362 -3.23051 0
M  V30 66 H -0.553555 -1.91894 -2.65868 0
M  V30 67 H 3.02911 -2.13695 -2.72544 0
M  V30 68 H 4.31732 -3.91637 -1.69197 0
M  V30 69 H 2.99978 -6.27727 0.772577 0
M  V30 70 H 0.942364 -5.17287 0.501372 0
M  V30 71 H -0.395042 -3.36315 -0.513537 0
M  V30 72 H -2.51154 -1.05908 0.579814 0
M  V30 73 H -3.62292 0.238735 -1.71023 0
M  V30 74 H -5.11331 -1.49609 -2.23528 0
M  V30 75 H -3.52366 -1.87199 -2.85733 0
M  V30 76 H -2.21438 -3.70872 -1.93627 0
M  V30 77 H -2.31596 -6.04801 -1.26948 0
M  V30 78 H -4.73818 -7.9204 -0.939987 0
M  V30 79 H -6.36676 -5.47782 -0.0908934 0
M  V30 80 H -6.24584 -3.14222 -0.766154 0
M  V30 81 H -6.28485 -0.760242 -0.918178 0
M  V30 82 H -7.81179 -0.218834 0.788651 0
M  V30 83 H -6.44518 -0.335 1.96305 0
M  V30 84 H -5.72903 1.82431 1.38643 0
M  V30 85 H -7.00865 2.05024 0.0969722 0
M  V30 86 H -8.72054 1.59801 1.8498 0
M  V30 87 H -7.47588 1.58504 3.10285 0
M  V30 88 H -8.7313 3.72345 3.00025 0
M  V30 89 H -8.28488 3.98484 1.31694 0
M  V30 90 H -7.07589 5.33782 2.94844 0
M  V30 91 H -6.27547 3.91659 3.63018 0
M  V30 92 H -3.58261 3.86156 2.10245 0
M  V30 END ATOM
M  V30 BEGIN BOND
M  V30 1 1 1 2
M  V30 2 1 2 3
M  V30 3 1 3 4
M  V30 4 1 4 5
M  V30 5 1 5 6
M  V30 6 1 6 7
M  V30 7 1 6 8
M  V30 8 2 8 9
M  V30 9 1 8 10
M  V30 10 1 10 11
M  V30 11 1 11 12
M  V30 12 2 12 13
M  V30 13 1 12 14
M  V30 14 1 14 15
M  V30 15 1 15 16
M  V30 16 1 16 17
M  V30 17 2 17 18
M  V30 18 1 18 19
M  V30 19 2 19 20
M  V30 20 1 20 21
M  V30 21 1 20 22
M  V30 22 2 22 23
M  V30 23 1 15 24
M  V30 24 2 24 25
M  V30 25 1 24 26
M  V30 26 1 26 27
M  V30 27 1 27 28
M  V30 28 1 28 29
M  V30 29 2 29 30
M  V30 30 1 30 31
M  V30 31 2 31 32
M  V30 32 1 32 33
M  V30 33 1 32 34
M  V30 34 2 34 35
M  V30 35 1 27 36
M  V30 36 2 36 37
M  V30 37 1 36 38
M  V30 38 1 38 39
M  V30 39 1 39 40
M  V30 40 1 40 41
M  V30 41 1 41 42
M  V30 42 1 42 43
M  V30 43 1 43 44
M  V30 44 1 44 45
M  V30 45 2 44 46
M  V30 46 1 23 17
M  V30 47 1 35 29
M  V30 48 1 1 47
M  V30 49 1 1 48
M  V30 50 1 2 49
M  V30 51 1 2 50
M  V30 52 1 3 51
M  V30 53 1 3 52
M  V30 54 1 4 53
M  V30 55 1 4 54
M  V30 56 1 5 55
M  V30 57 1 5 56
M  V30 58 1 6 57 CFG=3
M  V30 59 1 7 58
M  V30 60 1 7 59
M  V30 61 1 10 60
M  V30 62 1 11 61
M  V30 63 1 11 62
M  V30 64 1 14 63
M  V30 65 1 15 64 CFG=3
M  V30 66 1 16 65
M  V30 67 1 16 66
M  V30 68 1 18 67
M  V30 69 1 19 68
M  V30 70 1 21 69
M  V30 71 1 22 70
M  V30 72 1 23 71
M  V30 73 1 26 72
M  V30 74 1 27 73 CFG=3
M  V30 75 1 28 74
M  V30 76 1 28 75
M  V30 77 1 30 76
M  V30 78 1 31 77
M  V30 79 1 33 78
M  V30 80 1 34 79
M  V30 81 1 35 80
M  V30 82 1 38 81
M  V30 83 1 39 82
M  V30 84 1 39 83
M  V30 85 1 40 84
M  V30 86 1 40 85
M  V30 87 1 41 86
M  V30 88 1 41 87
M  V30 89 1 42 88
M  V30 90 1 42 89
M  V30 91 1 43 90
M  V30 92 1 43 91
M  V30 93 1 45 92
M  V30 END BOND
M  V30 END CTAB
M  END
