
     RDKit          3D

  0  0  0  0  0  0  0  0  0  0999 V3000
M  V30 BEGIN CTAB
M  V30 COUNTS 33 34 0 0 0
M  V30 BEGIN ATOM
M  V30 1 N -2.57866 -0.818997 1.00363 0
M  V30 2 C -1.27449 -1.21681 0.503162 0
M  V30 3 C -0.792983 -0.216506 -0.502002 0
M  V30 4 N -1.73653 -0.150311 -1.60835 0
M  V30 5 C 0.601701 -0.416295 -1.02991 0
M  V30 6 C 1.30626 -1.65212 -0.634082 0
M  V30 7 C 2.23081 -1.55543 0.533226 0
M  V30 8 C 2.83406 -0.165499 0.520574 0
M  V30 9 O 1.77584 0.710593 0.767596 0
M  V30 10 C 1.02711 0.850506 -0.368705 0
M  V30 11 C -0.419035 1.12521 -0.0251009 0
M  V30 12 C -0.934707 2.26606 -0.906507 0
M  V30 13 C -0.635079 1.4736 1.41293 0
M  V30 14 H -2.86079 0.120673 0.688018 0
M  V30 15 H -3.30053 -1.55273 0.888023 0
M  V30 16 H -1.39884 -2.2345 0.0829819 0
M  V30 17 H -0.623758 -1.32093 1.38819 0
M  V30 18 H -1.88698 -1.08245 -2.05382 0
M  V30 19 H -2.60859 0.317668 -1.32607 0
M  V30 20 H 0.67645 -0.267476 -2.15041 0
M  V30 21 H 1.92891 -2.04272 -1.49438 0
M  V30 22 H 0.584987 -2.50064 -0.453189 0
M  V30 23 H 3.09382 -2.26009 0.41481 0
M  V30 24 H 1.7413 -1.67276 1.52062 0
M  V30 25 H 3.58823 -0.0868651 1.31664 0
M  V30 26 H 3.23592 0.104565 -0.491519 0
M  V30 27 H 1.49949 1.62183 -1.03965 0
M  V30 28 H -1.73622 2.82338 -0.392181 0
M  V30 29 H -0.0963887 3.00629 -1.05184 0
M  V30 30 H -1.21946 1.90771 -1.91268 0
M  V30 31 H -1.60249 2.03418 1.47532 0
M  V30 32 H 0.14808 2.20933 1.69611 0
M  V30 33 H -0.567407 0.641533 2.11116 0
M  V30 END ATOM
M  V30 BEGIN BOND
M  V30 1 1 1 2
M  V30 2 1 2 3
M  V30 3 1 3 4
M  V30 4 1 3 5
M  V30 5 1 5 6
M  V30 6 1 6 7
M  V30 7 1 7 8
M  V30 8 1 8 9
M  V30 9 1 9 10
M  V30 10 1 10 11
M  V30 11 1 11 12
M  V30 12 1 11 13
M  V30 13 1 11 3
M  V30 14 1 10 5
M  V30 15 1 1 14
M  V30 16 1 1 15
M  V30 17 1 2 16
M  V30 18 1 2 17
M  V30 19 1 4 18
M  V30 20 1 4 19
M  V30 21 1 5 20
M  V30 22 1 6 21
M  V30 23 1 6 22
M  V30 24 1 7 23
M  V30 25 1 7 24
M  V30 26 1 8 25
M  V30 27 1 8 26
M  V30 28 1 10 27
M  V30 29 1 12 28
M  V30 30 1 12 29
M  V30 31 1 12 30
M  V30 32 1 13 31
M  V30 33 1 13 32
M  V30 34 1 13 33
M  V30 END BOND
M  V30 END CTAB
M  END
