
     RDKit          3D

  0  0  0  0  0  0  0  0  0  0999 V3000
M  V30 BEGIN CTAB
M  V30 COUNTS 34 35 0 0 0
M  V30 BEGIN ATOM
M  V30 1 O 1.726 0.373498 -1.18498 0
M  V30 2 C 1.47277 0.124325 0.0119998 0
M  V30 3 C 0.0389414 0.0335906 0.415781 0
M  V30 4 S -1.00841 0.325469 -1.0105 0
M  V30 5 C -2.7512 0.227841 -0.580885 0
M  V30 6 N -3.37389 1.33462 -0.183057 0
M  V30 7 C -4.67352 1.31845 0.148903 0
M  V30 8 N -5.25521 2.54669 0.562102 0
M  V30 9 C -5.37305 0.131802 0.0751669 0
M  V30 10 C -4.72081 -1.02882 -0.341853 0
M  V30 11 N -3.43632 -0.916018 -0.64916 0
M  V30 12 N -5.45789 -2.23769 -0.410924 0
M  V30 13 C -0.195016 -1.34763 1.02412 0
M  V30 14 N 2.5086 -0.0611397 0.932272 0
M  V30 15 C 3.88587 0.0131411 0.60847 0
M  V30 16 N 4.91717 -0.167355 1.50308 0
M  V30 17 O 6.05228 -0.0366949 0.902855 0
M  V30 18 C 5.89539 0.225484 -0.362762 0
M  V30 19 C 4.52782 0.263968 -0.582376 0
M  V30 20 C 6.96177 0.447135 -1.40224 0
M  V30 21 H -0.198775 0.810587 1.17741 0
M  V30 22 H -5.81501 3.13504 -0.101298 0
M  V30 23 H -5.13022 2.87158 1.52615 0
M  V30 24 H -6.40313 0.115911 0.3376 0
M  V30 25 H -5.71114 -2.68393 0.502215 0
M  V30 26 H -5.70968 -2.62082 -1.33598 0
M  V30 27 H 0.335163 -2.08521 0.390281 0
M  V30 28 H -1.27665 -1.60259 1.00155 0
M  V30 29 H 0.226954 -1.38974 2.03926 0
M  V30 30 H 2.2409 -0.26894 1.92842 0
M  V30 31 H 4.06548 0.460646 -1.54063 0
M  V30 32 H 7.22985 -0.472358 -1.92571 0
M  V30 33 H 6.58759 1.25455 -2.06404 0
M  V30 34 H 7.81739 0.90461 -0.835512 0
M  V30 END ATOM
M  V30 BEGIN BOND
M  V30 1 2 1 2
M  V30 2 1 2 3
M  V30 3 1 3 4
M  V30 4 1 4 5
M  V30 5 2 5 6
M  V30 6 1 6 7
M  V30 7 1 7 8
M  V30 8 2 7 9
M  V30 9 1 9 10
M  V30 10 2 10 11
M  V30 11 1 10 12
M  V30 12 1 3 13
M  V30 13 1 2 14
M  V30 14 1 14 15
M  V30 15 2 15 16
M  V30 16 1 16 17
M  V30 17 1 17 18
M  V30 18 2 18 19
M  V30 19 1 18 20
M  V30 20 1 11 5
M  V30 21 1 19 15
M  V30 22 1 3 21
M  V30 23 1 8 22
M  V30 24 1 8 23
M  V30 25 1 9 24
M  V30 26 1 12 25
M  V30 27 1 12 26
M  V30 28 1 13 27
M  V30 29 1 13 28
M  V30 30 1 13 29
M  V30 31 1 14 30
M  V30 32 1 19 31
M  V30 33 1 20 32
M  V30 34 1 20 33
M  V30 35 1 20 34
M  V30 END BOND
M  V30 END CTAB
M  END
