
     RDKit          3D

  0  0  0  0  0  0  0  0  0  0999 V3000
M  V30 BEGIN CTAB
M  V30 COUNTS 42 45 0 0 0
M  V30 BEGIN ATOM
M  V30 1 N 6.0438 -0.0866772 1.52065 0
M  V30 2 C 4.82821 -0.00327099 0.779568 0
M  V30 3 N 3.69557 -0.610726 1.1682 0
M  V30 4 C 2.57717 -0.518965 0.4627 0
M  V30 5 C 1.33543 -1.19133 0.893905 0
M  V30 6 N 0.2151 -0.915369 0.0453898 0
M  V30 7 C -0.942103 -1.62737 0.539952 0
M  V30 8 C -2.02183 -0.674736 0.839387 0
M  V30 9 C -1.52022 0.666341 0.343001 0
M  V30 10 C -0.108791 0.472973 -0.0831925 0
M  V30 11 C -1.69454 1.72503 1.39883 0
M  V30 12 C -2.47908 0.955308 -0.773364 0 CFG=2
M  V30 13 C -3.78455 0.537525 -0.0649213 0
M  V30 14 C -3.33479 -0.927056 0.154428 0 CFG=1
M  V30 15 C -3.19412 -1.30636 -1.29512 0
M  V30 16 C -2.43147 -0.126071 -1.84951 0
M  V30 17 N 2.57919 0.198717 -0.666643 0
M  V30 18 C 3.68482 0.831428 -1.1086 0
M  V30 19 N 4.79082 0.710498 -0.363377 0
M  V30 20 N 3.73893 1.59806 -2.289 0
M  V30 21 H 6.90546 -0.397095 1.06804 0
M  V30 22 H 6.02719 0.172276 2.51379 0
M  V30 23 H 1.13748 -0.951799 1.96142 0
M  V30 24 H 1.53349 -2.2904 0.835103 0
M  V30 25 H -1.17537 -2.3987 -0.217361 0
M  V30 26 H -0.668634 -2.20899 1.45834 0
M  V30 27 H -2.22994 -0.584583 1.92454 0
M  V30 28 H 0.124004 0.903385 -1.07589 0
M  V30 29 H 0.527336 1.03099 0.667406 0
M  V30 30 H -2.40821 2.51259 1.07998 0
M  V30 31 H -0.71532 2.21132 1.61175 0
M  V30 32 H -2.0282 1.26177 2.36294 0
M  V30 33 H -2.49991 1.9597 -1.14633 0
M  V30 34 H -3.89928 1.06046 0.891609 0
M  V30 35 H -4.63968 0.582713 -0.737289 0
M  V30 36 H -4.05649 -1.49747 0.717618 0
M  V30 37 H -2.75822 -2.27122 -1.49113 0
M  V30 38 H -4.24286 -1.33061 -1.70834 0
M  V30 39 H -1.41715 -0.36567 -2.16089 0
M  V30 40 H -3.00991 0.264053 -2.72535 0
M  V30 41 H 3.57661 2.62101 -2.25211 0
M  V30 42 H 3.94006 1.17967 -3.23015 0
M  V30 END ATOM
M  V30 BEGIN BOND
M  V30 1 1 1 2
M  V30 2 2 2 3
M  V30 3 1 3 4
M  V30 4 1 4 5
M  V30 5 1 5 6
M  V30 6 1 6 7
M  V30 7 1 7 8
M  V30 8 1 8 9
M  V30 9 1 9 10
M  V30 10 1 9 11
M  V30 11 1 9 12
M  V30 12 1 12 13
M  V30 13 1 13 14
M  V30 14 1 14 15
M  V30 15 1 15 16
M  V30 16 2 4 17
M  V30 17 1 17 18
M  V30 18 2 18 19
M  V30 19 1 18 20
M  V30 20 1 19 2
M  V30 21 1 10 6
M  V30 22 1 16 12
M  V30 23 1 14 8
M  V30 24 1 1 21
M  V30 25 1 1 22
M  V30 26 1 5 23
M  V30 27 1 5 24
M  V30 28 1 7 25
M  V30 29 1 7 26
M  V30 30 1 8 27
M  V30 31 1 10 28
M  V30 32 1 10 29
M  V30 33 1 11 30
M  V30 34 1 11 31
M  V30 35 1 11 32
M  V30 36 1 12 33 CFG=3
M  V30 37 1 13 34
M  V30 38 1 13 35
M  V30 39 1 14 36 CFG=1
M  V30 40 1 15 37
M  V30 41 1 15 38
M  V30 42 1 16 39
M  V30 43 1 16 40
M  V30 44 1 20 41
M  V30 45 1 20 42
M  V30 END BOND
M  V30 END CTAB
M  END
