
     RDKit          3D

  0  0  0  0  0  0  0  0  0  0999 V3000
M  V30 BEGIN CTAB
M  V30 COUNTS 47 49 0 0 0
M  V30 BEGIN ATOM
M  V30 1 N 5.83844 0.364064 3.28583 0
M  V30 2 C 4.73779 0.293136 2.35419 0
M  V30 3 C 4.72063 -0.655295 1.3623 0
M  V30 4 C 3.65784 -0.716332 0.470406 0
M  V30 5 C 2.60587 0.158898 0.552942 0
M  V30 6 C 2.63509 1.10066 1.54741 0
M  V30 7 C 3.68685 1.17739 2.44692 0
M  V30 8 N 1.47549 0.0854787 -0.403877 0
M  V30 9 C 0.420709 -0.692674 0.013332 0
M  V30 10 S 0.918465 -1.86531 1.16297 0
M  V30 11 N -0.971383 -0.689784 -0.155325 0
M  V30 12 C -1.63928 0.321298 -0.882324 0
M  V30 13 C -2.48566 0.126043 -1.91697 0
M  V30 14 C -3.2026 1.21787 -2.46161 0
M  V30 15 C -3.07264 2.49519 -1.97596 0
M  V30 16 C -2.19978 2.6598 -0.921219 0
M  V30 17 C -1.49199 1.64823 -0.365072 0
M  V30 18 N -3.79985 3.57897 -2.53418 0
M  V30 19 C -1.71853 -1.80164 0.332059 0
M  V30 20 C -2.51242 -2.6181 -0.391227 0
M  V30 21 C -3.30478 -3.57624 0.271951 0
M  V30 22 C -3.31031 -3.72661 1.63508 0
M  V30 23 C -2.5025 -2.89873 2.38019 0
M  V30 24 C -1.73226 -1.96482 1.73973 0
M  V30 25 C 1.61206 0.918713 -1.49614 0
M  V30 26 O 2.44669 1.91462 -1.35174 0
M  V30 27 C 0.99534 0.891154 -2.83065 0
M  V30 28 H 5.75961 0.757068 4.24144 0
M  V30 29 H 6.74624 -0.00396764 2.95915 0
M  V30 30 H 5.54399 -1.34741 1.29023 0
M  V30 31 H 3.65018 -1.47213 -0.315514 0
M  V30 32 H 1.80013 1.79405 1.61156 0
M  V30 33 H 3.6811 1.94275 3.23217 0
M  V30 34 H -2.63082 -0.834978 -2.38948 0
M  V30 35 H -3.86379 0.998546 -3.28529 0
M  V30 36 H -2.1099 3.68191 -0.549958 0
M  V30 37 H -0.805874 1.78063 0.464001 0
M  V30 38 H -4.76439 3.79831 -2.21799 0
M  V30 39 H -3.33616 4.15034 -3.27343 0
M  V30 40 H -2.53913 -2.60529 -1.47086 0
M  V30 41 H -3.92295 -4.19957 -0.382587 0
M  V30 42 H -3.94575 -4.48849 2.09513 0
M  V30 43 H -2.4914 -3.00158 3.45671 0
M  V30 44 H -1.15843 -1.32324 2.3814 0
M  V30 45 H 0.562543 -0.108269 -3.0825 0
M  V30 46 H 0.241763 1.68473 -3.00059 0
M  V30 47 H 1.77574 1.05063 -3.63262 0
M  V30 END ATOM
M  V30 BEGIN BOND
M  V30 1 1 1 2
M  V30 2 2 2 3
M  V30 3 1 3 4
M  V30 4 2 4 5
M  V30 5 1 5 6
M  V30 6 2 6 7
M  V30 7 1 5 8
M  V30 8 1 8 9
M  V30 9 2 9 10
M  V30 10 1 9 11
M  V30 11 1 11 12
M  V30 12 2 12 13
M  V30 13 1 13 14
M  V30 14 2 14 15
M  V30 15 1 15 16
M  V30 16 2 16 17
M  V30 17 1 15 18
M  V30 18 1 11 19
M  V30 19 2 19 20
M  V30 20 1 20 21
M  V30 21 2 21 22
M  V30 22 1 22 23
M  V30 23 2 23 24
M  V30 24 1 8 25
M  V30 25 2 25 26
M  V30 26 1 25 27
M  V30 27 1 7 2
M  V30 28 1 17 12
M  V30 29 1 24 19
M  V30 30 1 1 28
M  V30 31 1 1 29
M  V30 32 1 3 30
M  V30 33 1 4 31
M  V30 34 1 6 32
M  V30 35 1 7 33
M  V30 36 1 13 34
M  V30 37 1 14 35
M  V30 38 1 16 36
M  V30 39 1 17 37
M  V30 40 1 18 38
M  V30 41 1 18 39
M  V30 42 1 20 40
M  V30 43 1 21 41
M  V30 44 1 22 42
M  V30 45 1 23 43
M  V30 46 1 24 44
M  V30 47 1 27 45
M  V30 48 1 27 46
M  V30 49 1 27 47
M  V30 END BOND
M  V30 END CTAB
M  END
