
     RDKit          3D

  0  0  0  0  0  0  0  0  0  0999 V3000
M  V30 BEGIN CTAB
M  V30 COUNTS 28 29 0 0 0
M  V30 BEGIN ATOM
M  V30 1 N 3.67503 1.18279 -0.239813 0
M  V30 2 C 3.2733 0.0294879 0.49092 0
M  V30 3 N 2.20834 -0.603776 0.242134 0
M  V30 4 C 1.27225 -0.28194 -0.768719 0
M  V30 5 N 1.71631 0.311453 -1.81978 0
M  V30 6 N -0.0941737 -0.617255 -0.592561 0
M  V30 7 C -0.633404 -1.93544 -0.864571 0
M  V30 8 C -1.9733 -1.99881 -0.183599 0
M  V30 9 C -2.2858 -0.571903 0.10639 0
M  V30 10 C -1.1702 0.197139 -0.143248 0
M  V30 11 C -1.26637 1.55457 0.0690431 0
M  V30 12 C -2.41989 2.15545 0.514233 0
M  V30 13 C -3.54031 1.38903 0.765748 0
M  V30 14 C -3.43961 0.0349695 0.552472 0
M  V30 15 N 4.10792 -0.428969 1.54686 0
M  V30 16 H 4.09688 1.13415 -1.19374 0
M  V30 17 H 3.56511 2.16397 0.152252 0
M  V30 18 H 1.07803 0.57478 -2.59906 0
M  V30 19 H 0.0499557 -2.69254 -0.410657 0
M  V30 20 H -0.756289 -2.1476 -1.92604 0
M  V30 21 H -2.77566 -2.40323 -0.794289 0
M  V30 22 H -1.88966 -2.55301 0.781241 0
M  V30 23 H -0.413595 2.19289 -0.115019 0
M  V30 24 H -2.43233 3.23417 0.662712 0
M  V30 25 H -4.46524 1.84488 1.11924 0
M  V30 26 H -4.32661 -0.559857 0.753186 0
M  V30 27 H 3.70029 -0.779889 2.43551 0
M  V30 28 H 5.13905 -0.425504 1.45916 0
M  V30 END ATOM
M  V30 BEGIN BOND
M  V30 1 1 1 2
M  V30 2 2 2 3 CFG=2
M  V30 3 1 3 4
M  V30 4 2 4 5 CFG=2
M  V30 5 1 4 6
M  V30 6 1 6 7
M  V30 7 1 7 8
M  V30 8 1 8 9
M  V30 9 2 9 10
M  V30 10 1 10 11
M  V30 11 2 11 12
M  V30 12 1 12 13
M  V30 13 2 13 14
M  V30 14 1 2 15
M  V30 15 1 10 6
M  V30 16 1 14 9
M  V30 17 1 1 16
M  V30 18 1 1 17
M  V30 19 1 5 18
M  V30 20 1 7 19
M  V30 21 1 7 20
M  V30 22 1 8 21
M  V30 23 1 8 22
M  V30 24 1 11 23
M  V30 25 1 12 24
M  V30 26 1 13 25
M  V30 27 1 14 26
M  V30 28 1 15 27
M  V30 29 1 15 28
M  V30 END BOND
M  V30 END CTAB
M  END
