
     RDKit          3D

  0  0  0  0  0  0  0  0  0  0999 V3000
M  V30 BEGIN CTAB
M  V30 COUNTS 32 32 0 0 0
M  V30 BEGIN ATOM
M  V30 1 C -4.4141 0.809186 0.917464 0
M  V30 2 C -3.40512 -0.323253 0.79898 0
M  V30 3 C -2.58996 -0.0407099 -0.431621 0
M  V30 4 N -1.56329 -1.05297 -0.677117 0
M  V30 5 C -2.02273 -2.34488 -1.04914 0
M  V30 6 C -0.216931 -0.640707 -0.505466 0
M  V30 7 C 0.884049 -1.41341 -0.772491 0
M  V30 8 Cl 0.656663 -3.05616 -1.41385 0
M  V30 9 N 2.11819 -0.943373 -0.56476 0
M  V30 10 C 2.34384 0.28959 -0.0916263 0
M  V30 11 C 3.68723 0.803773 0.13691 0
M  V30 12 O 3.86203 1.95674 0.578195 0
M  V30 13 N 4.79152 -0.0107724 -0.143334 0
M  V30 14 N 6.08325 0.458211 0.0668066 0
M  V30 15 C 1.25673 1.09966 0.18961 0
M  V30 16 N 1.41429 2.43465 0.699936 0
M  V30 17 N 0.038562 0.612344 -0.0243985 0
M  V30 18 H -4.78683 1.09347 -0.101356 0
M  V30 19 H -5.24194 0.583645 1.59384 0
M  V30 20 H -3.8991 1.71571 1.31301 0
M  V30 21 H -3.98327 -1.26286 0.72668 0
M  V30 22 H -2.77555 -0.277372 1.70914 0
M  V30 23 H -3.28562 -0.0215421 -1.31739 0
M  V30 24 H -2.15837 0.974579 -0.318894 0
M  V30 25 H -1.7063 -3.14261 -0.314299 0
M  V30 26 H -3.16156 -2.41517 -0.969355 0
M  V30 27 H -1.84116 -2.62285 -2.10153 0
M  V30 28 H 4.65527 -0.968136 -0.509409 0
M  V30 29 H 6.09462 1.4667 -0.240015 0
M  V30 30 H 6.24952 0.477456 1.10007 0
M  V30 31 H 1.25032 2.5158 1.74395 0
M  V30 32 H 1.66574 3.24527 0.0997523 0
M  V30 END ATOM
M  V30 BEGIN BOND
M  V30 1 1 1 2
M  V30 2 1 2 3
M  V30 3 1 3 4
M  V30 4 1 4 5
M  V30 5 1 4 6
M  V30 6 2 6 7
M  V30 7 1 7 8
M  V30 8 1 7 9
M  V30 9 2 9 10
M  V30 10 1 10 11
M  V30 11 2 11 12
M  V30 12 1 11 13
M  V30 13 1 13 14
M  V30 14 1 10 15
M  V30 15 1 15 16
M  V30 16 2 15 17
M  V30 17 1 17 6
M  V30 18 1 1 18
M  V30 19 1 1 19
M  V30 20 1 1 20
M  V30 21 1 2 21
M  V30 22 1 2 22
M  V30 23 1 3 23
M  V30 24 1 3 24
M  V30 25 1 5 25
M  V30 26 1 5 26
M  V30 27 1 5 27
M  V30 28 1 13 28
M  V30 29 1 14 29
M  V30 30 1 14 30
M  V30 31 1 16 31
M  V30 32 1 16 32
M  V30 END BOND
M  V30 END CTAB
M  END
