
     RDKit          3D

  0  0  0  0  0  0  0  0  0  0999 V3000
M  V30 BEGIN CTAB
M  V30 COUNTS 41 42 0 0 0
M  V30 BEGIN ATOM
M  V30 1 C 7.35725 -0.518679 -0.460318 0
M  V30 2 C 6.24496 -0.249374 0.499687 0
M  V30 3 C 4.87774 -0.337034 -0.153692 0
M  V30 4 C 3.86428 -0.0382865 0.954672 0
M  V30 5 C 2.48316 -0.0867163 0.470339 0
M  V30 6 C 1.77047 -1.26561 0.502579 0
M  V30 7 C 0.465682 -1.34277 0.0526624 0
M  V30 8 C -0.148368 -0.198593 -0.447768 0
M  V30 9 C 0.583943 0.953356 -0.466369 0
M  V30 10 C 1.88812 1.05683 -0.0231045 0
M  V30 11 C -1.51897 -0.293082 -0.917145 0
M  V30 12 O -2.15056 -1.36649 -0.881633 0
M  V30 13 O -2.13316 0.834147 -1.41344 0
M  V30 14 C -3.43513 0.914808 -1.89734 0
M  V30 15 C -4.3924 0.562234 -0.824296 0
M  V30 16 N -4.09153 0.446181 0.474067 0
M  V30 17 C -5.02921 0.120305 1.38475 0
M  V30 18 N -4.68614 0.00310809 2.75621 0
M  V30 19 N -6.3079 -0.103205 1.03413 0
M  V30 20 C -6.6199 0.0119858 -0.275132 0
M  V30 21 N -5.68346 0.335194 -1.16846 0
M  V30 22 N -7.94894 -0.205456 -0.746758 0
M  V30 23 H 7.76993 -1.51352 -0.293156 0
M  V30 24 H 8.14798 0.257042 -0.285747 0
M  V30 25 H 6.96538 -0.408248 -1.50108 0
M  V30 26 H 6.32148 0.756156 0.941179 0
M  V30 27 H 6.25024 -0.986994 1.32608 0
M  V30 28 H 4.70142 -1.34237 -0.571538 0
M  V30 29 H 4.74057 0.455255 -0.911261 0
M  V30 30 H 4.04163 -0.695512 1.8218 0
M  V30 31 H 4.10387 0.996342 1.29503 0
M  V30 32 H 2.20386 -2.1732 0.880242 0
M  V30 33 H -0.109949 -2.25204 0.0682066 0
M  V30 34 H 0.126357 1.85419 -0.851069 0
M  V30 35 H 2.45552 1.97891 -0.0447409 0
M  V30 36 H -3.52105 0.21836 -2.76919 0
M  V30 37 H -3.65593 1.92197 -2.32005 0
M  V30 38 H -3.91342 -0.655805 3.06 0
M  V30 39 H -5.18871 0.560347 3.46611 0
M  V30 40 H -8.12006 -0.482511 -1.72329 0
M  V30 41 H -8.70906 -0.0645678 -0.0411681 0
M  V30 END ATOM
M  V30 BEGIN BOND
M  V30 1 1 1 2
M  V30 2 1 2 3
M  V30 3 1 3 4
M  V30 4 1 4 5
M  V30 5 2 5 6
M  V30 6 1 6 7
M  V30 7 2 7 8
M  V30 8 1 8 9
M  V30 9 2 9 10
M  V30 10 1 8 11
M  V30 11 2 11 12
M  V30 12 1 11 13
M  V30 13 1 13 14
M  V30 14 1 14 15
M  V30 15 2 15 16
M  V30 16 1 16 17
M  V30 17 1 17 18
M  V30 18 2 17 19
M  V30 19 1 19 20
M  V30 20 2 20 21
M  V30 21 1 20 22
M  V30 22 1 10 5
M  V30 23 1 21 15
M  V30 24 1 1 23
M  V30 25 1 1 24
M  V30 26 1 1 25
M  V30 27 1 2 26
M  V30 28 1 2 27
M  V30 29 1 3 28
M  V30 30 1 3 29
M  V30 31 1 4 30
M  V30 32 1 4 31
M  V30 33 1 6 32
M  V30 34 1 7 33
M  V30 35 1 9 34
M  V30 36 1 10 35
M  V30 37 1 14 36
M  V30 38 1 14 37
M  V30 39 1 18 38
M  V30 40 1 18 39
M  V30 41 1 22 40
M  V30 42 1 22 41
M  V30 END BOND
M  V30 END CTAB
M  END
