
     RDKit          3D

  0  0  0  0  0  0  0  0  0  0999 V3000
M  V30 BEGIN CTAB
M  V30 COUNTS 26 26 0 0 0
M  V30 BEGIN ATOM
M  V30 1 C 1.79469 1.91334 0.43907 0
M  V30 2 C 1.83383 0.415272 0.411496 0
M  V30 3 C 0.815352 -0.220413 -0.472487 0
M  V30 4 C -0.585351 0.0514986 -0.132585 0
M  V30 5 C -0.9379 0.638099 1.05645 0
M  V30 6 C -2.26629 0.860099 1.33032 0
M  V30 7 Cl -2.7046 1.617 2.86601 0
M  V30 8 C -3.20574 0.489374 0.408857 0
M  V30 9 N -2.83098 -0.0820557 -0.743813 0
M  V30 10 C -1.55426 -0.327112 -1.07427 0
M  V30 11 N -1.15725 -0.928113 -2.28526 0
M  V30 12 N 1.00967 -1.62603 -0.664475 0
M  V30 13 N 0.986009 -2.40575 0.455353 0
M  V30 14 H 2.7468 2.36651 0.0416149 0
M  V30 15 H 0.979741 2.28853 -0.221617 0
M  V30 16 H 1.68404 2.35258 1.4512 0
M  V30 17 H 1.61293 0.0813307 1.46758 0
M  V30 18 H 2.85491 0.109648 0.127105 0
M  V30 19 H 0.968146 0.240132 -1.49764 0
M  V30 20 H -0.20718 0.939088 1.81769 0
M  V30 21 H -4.23737 0.65787 0.61336 0
M  V30 22 H -1.37594 -1.90364 -2.5785 0
M  V30 23 H -0.595272 -0.349865 -2.94853 0
M  V30 24 H 1.59475 -1.9096 -1.44853 0
M  V30 25 H 1.45635 -3.31275 0.248482 0
M  V30 26 H 1.3209 -1.95504 1.33313 0
M  V30 END ATOM
M  V30 BEGIN BOND
M  V30 1 1 1 2
M  V30 2 1 2 3
M  V30 3 1 3 4
M  V30 4 2 4 5
M  V30 5 1 5 6
M  V30 6 1 6 7
M  V30 7 2 6 8
M  V30 8 1 8 9
M  V30 9 2 9 10
M  V30 10 1 10 11
M  V30 11 1 3 12
M  V30 12 1 12 13
M  V30 13 1 10 4
M  V30 14 1 1 14
M  V30 15 1 1 15
M  V30 16 1 1 16
M  V30 17 1 2 17
M  V30 18 1 2 18
M  V30 19 1 3 19
M  V30 20 1 5 20
M  V30 21 1 8 21
M  V30 22 1 11 22
M  V30 23 1 11 23
M  V30 24 1 12 24
M  V30 25 1 13 25
M  V30 26 1 13 26
M  V30 END BOND
M  V30 END CTAB
M  END
