
     RDKit          3D

  0  0  0  0  0  0  0  0  0  0999 V3000
M  V30 BEGIN CTAB
M  V30 COUNTS 37 39 0 0 0
M  V30 BEGIN ATOM
M  V30 1 N -1.26792 4.08884 0.759417 0
M  V30 2 C -1.28268 2.72272 0.403221 0
M  V30 3 N -0.171674 2.01889 0.187963 0
M  V30 4 C -0.159888 0.701731 -0.156086 0
M  V30 5 N 1.05766 0.0157197 -0.378817 0
M  V30 6 C 2.29531 0.725721 -0.223939 0
M  V30 7 C 3.46638 -0.205513 -0.52251 0
M  V30 8 C 3.32869 -1.22297 -1.43637 0
M  V30 9 S 4.87546 -1.9421 -1.38549 0
M  V30 10 C 5.60391 -0.906932 -0.206595 0
M  V30 11 N 4.60836 -0.0801639 0.0665964 0
M  V30 12 N 6.92584 -0.944725 0.321772 0
M  V30 13 C -1.38952 0.0849038 -0.281731 0
M  V30 14 C -2.53255 0.810328 -0.0603658 0
M  V30 15 N -2.45678 2.09772 0.273385 0
M  V30 16 C -3.96249 0.382572 -0.14017 0
M  V30 17 C -4.22573 -0.771578 0.795286 0
M  V30 18 N -3.1815 -1.74076 0.774787 0
M  V30 19 C -2.59836 -2.0056 -0.501291 0
M  V30 20 C -1.22932 -1.346 -0.652576 0
M  V30 21 H -1.07138 4.42369 1.7229 0
M  V30 22 H -1.4634 4.79338 0.0207134 0
M  V30 23 H 1.05642 -0.971121 -0.647022 0
M  V30 24 H 2.35208 1.08226 0.819172 0
M  V30 25 H 2.34331 1.60435 -0.882113 0
M  V30 26 H 2.43621 -1.48063 -2.03335 0
M  V30 27 H 7.59019 -0.204721 0.0742869 0
M  V30 28 H 7.19418 -1.71387 0.943707 0
M  V30 29 H -4.61453 1.25421 0.126085 0
M  V30 30 H -4.25657 0.0619885 -1.15898 0
M  V30 31 H -5.20453 -1.23515 0.558445 0
M  V30 32 H -4.28236 -0.346416 1.81846 0
M  V30 33 H -2.48415 -1.58885 1.53611 0
M  V30 34 H -3.29336 -1.70764 -1.2953 0
M  V30 35 H -2.49144 -3.1207 -0.578199 0
M  V30 36 H -0.939622 -1.43066 -1.71235 0
M  V30 37 H -0.574265 -1.90295 0.0517596 0
M  V30 END ATOM
M  V30 BEGIN BOND
M  V30 1 1 1 2
M  V30 2 2 2 3
M  V30 3 1 3 4
M  V30 4 1 4 5
M  V30 5 1 5 6
M  V30 6 1 6 7
M  V30 7 2 7 8
M  V30 8 1 8 9
M  V30 9 1 9 10
M  V30 10 2 10 11
M  V30 11 1 10 12
M  V30 12 2 4 13
M  V30 13 1 13 14
M  V30 14 2 14 15
M  V30 15 1 14 16
M  V30 16 1 16 17
M  V30 17 1 17 18
M  V30 18 1 18 19
M  V30 19 1 19 20
M  V30 20 1 15 2
M  V30 21 1 11 7
M  V30 22 1 20 13
M  V30 23 1 1 21
M  V30 24 1 1 22
M  V30 25 1 5 23
M  V30 26 1 6 24
M  V30 27 1 6 25
M  V30 28 1 8 26
M  V30 29 1 12 27
M  V30 30 1 12 28
M  V30 31 1 16 29
M  V30 32 1 16 30
M  V30 33 1 17 31
M  V30 34 1 17 32
M  V30 35 1 18 33
M  V30 36 1 19 34
M  V30 37 1 19 35
M  V30 38 1 20 36
M  V30 39 1 20 37
M  V30 END BOND
M  V30 END CTAB
M  END
