
     RDKit          3D

  0  0  0  0  0  0  0  0  0  0999 V3000
M  V30 BEGIN CTAB
M  V30 COUNTS 43 44 0 0 0
M  V30 BEGIN ATOM
M  V30 1 C -4.42549 0.0958942 -1.75481 0
M  V30 2 C -4.00028 0.23942 -0.326876 0
M  V30 3 C -2.47975 0.221687 -0.16825 0
M  V30 4 C -2.23134 0.374876 1.3117 0
M  V30 5 C -0.814882 -0.0154525 1.6825 0
M  V30 6 C -0.674349 -1.45914 1.27421 0
M  V30 7 N -0.830039 -1.62194 -0.105607 0
M  V30 8 C -1.83787 -0.950598 -0.789709 0
M  V30 9 S 0.627776 -1.90063 -0.899796 0
M  V30 10 O 1.22258 -3.19693 -0.365281 0
M  V30 11 O 0.32644 -2.18612 -2.3653 0
M  V30 12 C 1.78204 -0.59738 -0.756871 0
M  V30 13 C 1.79344 0.427663 -1.69704 0
M  V30 14 C 2.69099 1.47212 -1.61512 0
M  V30 15 C 3.61561 1.54325 -0.596002 0
M  V30 16 C 3.6238 0.536322 0.350302 0
M  V30 17 C 2.71622 -0.505303 0.253987 0
M  V30 18 S 4.79762 0.615917 1.65413 0
M  V30 19 O 5.07339 2.05799 1.91407 0
M  V30 20 O 4.25082 -0.048656 2.90142 0
M  V30 21 N 6.25742 -0.17386 1.24782 0
M  V30 22 N -4.51482 1.4409 0.304832 0
M  V30 23 H -4.52953 -0.976976 -2.01086 0
M  V30 24 H -3.77875 0.64899 -2.46221 0
M  V30 25 H -5.44724 0.539253 -1.84822 0
M  V30 26 H -4.43458 -0.620259 0.246351 0
M  V30 27 H -2.12647 1.16865 -0.641716 0
M  V30 28 H -2.90286 -0.361725 1.82075 0
M  V30 29 H -2.51659 1.37017 1.65572 0
M  V30 30 H -0.0794476 0.624461 1.16235 0
M  V30 31 H -0.72465 0.120425 2.78142 0
M  V30 32 H -1.41069 -2.06501 1.83775 0
M  V30 33 H 0.371066 -1.76551 1.56352 0
M  V30 34 H -1.44145 -0.645047 -1.80491 0
M  V30 35 H -2.65227 -1.69198 -1.04807 0
M  V30 36 H 1.05659 0.367305 -2.5058 0
M  V30 37 H 2.69692 2.26588 -2.34654 0
M  V30 38 H 4.3308 2.34691 -0.504088 0
M  V30 39 H 2.71744 -1.29735 0.992243 0
M  V30 40 H 6.16192 -0.832794 0.444281 0
M  V30 41 H 7.04761 0.498162 1.12394 0
M  V30 42 H -5.45407 1.71255 -0.0613625 0
M  V30 43 H -3.85305 2.22385 0.151149 0
M  V30 END ATOM
M  V30 BEGIN BOND
M  V30 1 1 1 2
M  V30 2 1 2 3
M  V30 3 1 3 4
M  V30 4 1 4 5
M  V30 5 1 5 6
M  V30 6 1 6 7
M  V30 7 1 7 8
M  V30 8 1 7 9
M  V30 9 2 9 10
M  V30 10 2 9 11
M  V30 11 1 9 12
M  V30 12 2 12 13
M  V30 13 1 13 14
M  V30 14 2 14 15
M  V30 15 1 15 16
M  V30 16 2 16 17
M  V30 17 1 16 18
M  V30 18 2 18 19
M  V30 19 2 18 20
M  V30 20 1 18 21
M  V30 21 1 2 22
M  V30 22 1 8 3
M  V30 23 1 17 12
M  V30 24 1 1 23
M  V30 25 1 1 24
M  V30 26 1 1 25
M  V30 27 1 2 26
M  V30 28 1 3 27
M  V30 29 1 4 28
M  V30 30 1 4 29
M  V30 31 1 5 30
M  V30 32 1 5 31
M  V30 33 1 6 32
M  V30 34 1 6 33
M  V30 35 1 8 34
M  V30 36 1 8 35
M  V30 37 1 13 36
M  V30 38 1 14 37
M  V30 39 1 15 38
M  V30 40 1 17 39
M  V30 41 1 21 40
M  V30 42 1 21 41
M  V30 43 1 22 42
M  V30 44 1 22 43
M  V30 END BOND
M  V30 END CTAB
M  END
