
     RDKit          3D

  0  0  0  0  0  0  0  0  0  0999 V3000
M  V30 BEGIN CTAB
M  V30 COUNTS 44 46 0 0 0
M  V30 BEGIN ATOM
M  V30 1 C 7.17438 -0.0428259 -1.31689 0
M  V30 2 C 7.15876 -0.793873 -0.0201132 0
M  V30 3 O 6.00639 -1.51438 0.236723 0
M  V30 4 C 4.76705 -0.935902 0.382089 0
M  V30 5 C 4.5693 0.405926 0.304402 0
M  V30 6 C 3.30048 0.93756 0.455072 0
M  V30 7 C 2.17101 0.167457 0.689645 0
M  V30 8 C 2.39342 -1.18469 0.765682 0
M  V30 9 C 3.64226 -1.74203 0.619554 0
M  V30 10 C 0.884003 0.77435 0.859533 0
M  V30 11 O 0.854305 1.94038 1.38154 0
M  V30 12 C -0.385393 0.128216 0.463485 0
M  V30 13 S -0.633408 -1.3728 -0.295676 0
M  V30 14 C -2.33419 -1.3437 -0.422207 0
M  V30 15 C -2.66895 -0.148001 0.138193 0
M  V30 16 C -1.65727 0.623909 0.602433 0
M  V30 17 N -1.80985 1.92919 1.24764 0
M  V30 18 C -4.04919 0.129938 0.162995 0
M  V30 19 C -4.64647 1.35741 0.688865 0
M  V30 20 C -4.5519 2.54118 -0.274059 0
M  V30 21 C -4.92022 -0.807223 -0.366656 0
M  V30 22 C -4.54965 -1.99848 -0.92128 0
M  V30 23 N -3.23029 -2.24403 -0.936082 0
M  V30 24 N -5.50244 -2.91572 -1.44786 0
M  V30 25 C -6.35233 -0.541964 -0.352623 0
M  V30 26 N -7.4866 -0.318539 -0.356437 0
M  V30 27 H 7.41978 1.01992 -1.13442 0
M  V30 28 H 6.1565 -0.13777 -1.78174 0
M  V30 29 H 7.96257 -0.405857 -2.01433 0
M  V30 30 H 7.3994 -0.0527867 0.79965 0
M  V30 31 H 8.08048 -1.45157 -0.0258898 0
M  V30 32 H 5.39505 1.08363 0.136679 0
M  V30 33 H 3.1843 2.00296 0.386991 0
M  V30 34 H 1.59109 -1.88376 0.95979 0
M  V30 35 H 3.83111 -2.80157 0.676876 0
M  V30 36 H -2.07554 1.94975 2.24654 0
M  V30 37 H -1.64893 2.80903 0.735316 0
M  V30 38 H -5.76455 1.2167 0.81488 0
M  V30 39 H -4.32678 1.64049 1.71567 0
M  V30 40 H -3.76865 2.37492 -1.04276 0
M  V30 41 H -5.49287 2.70566 -0.835792 0
M  V30 42 H -4.36002 3.45902 0.301418 0
M  V30 43 H -6.0136 -2.77347 -2.34506 0
M  V30 44 H -5.71256 -3.78669 -0.91603 0
M  V30 END ATOM
M  V30 BEGIN BOND
M  V30 1 1 1 2
M  V30 2 1 2 3
M  V30 3 1 3 4
M  V30 4 2 4 5
M  V30 5 1 5 6
M  V30 6 2 6 7
M  V30 7 1 7 8
M  V30 8 2 8 9
M  V30 9 1 7 10
M  V30 10 2 10 11
M  V30 11 1 10 12
M  V30 12 1 12 13
M  V30 13 1 13 14
M  V30 14 2 14 15
M  V30 15 1 15 16
M  V30 16 1 16 17
M  V30 17 1 15 18
M  V30 18 1 18 19
M  V30 19 1 19 20
M  V30 20 2 18 21
M  V30 21 1 21 22
M  V30 22 2 22 23
M  V30 23 1 22 24
M  V30 24 1 21 25
M  V30 25 3 25 26
M  V30 26 1 9 4
M  V30 27 2 16 12
M  V30 28 1 23 14
M  V30 29 1 1 27
M  V30 30 1 1 28
M  V30 31 1 1 29
M  V30 32 1 2 30
M  V30 33 1 2 31
M  V30 34 1 5 32
M  V30 35 1 6 33
M  V30 36 1 8 34
M  V30 37 1 9 35
M  V30 38 1 17 36
M  V30 39 1 17 37
M  V30 40 1 19 38
M  V30 41 1 19 39
M  V30 42 1 20 40
M  V30 43 1 20 41
M  V30 44 1 20 42
M  V30 45 1 24 43
M  V30 46 1 24 44
M  V30 END BOND
M  V30 END CTAB
M  END
