
     RDKit          3D

  0  0  0  0  0  0  0  0  0  0999 V3000
M  V30 BEGIN CTAB
M  V30 COUNTS 28 28 0 0 0
M  V30 BEGIN ATOM
M  V30 1 N 4.282 -0.257058 1.09298 0
M  V30 2 C 3.10933 -0.481551 0.259534 0
M  V30 3 C 2.15569 0.678993 0.528222 0
M  V30 4 C 0.915267 0.506647 -0.30737 0
M  V30 5 C -0.178679 -0.190363 0.167 0
M  V30 6 C -1.31459 -0.345472 -0.604332 0
M  V30 7 C -2.49343 -1.09256 -0.102153 0
M  V30 8 C -3.46757 -0.21442 0.618378 0
M  V30 9 N -2.80499 0.390127 1.74536 0
M  V30 10 C -1.36805 0.204802 -1.87995 0
M  V30 11 C -0.265291 0.895966 -2.33266 0
M  V30 12 C 0.877252 1.05993 -1.57447 0
M  V30 13 H 3.98954 0.256887 1.96522 0
M  V30 14 H 4.67352 -1.21036 1.33519 0
M  V30 15 H 3.45813 -0.47054 -0.792897 0
M  V30 16 H 2.63529 -1.44801 0.454633 0
M  V30 17 H 1.83806 0.66549 1.58903 0
M  V30 18 H 2.68912 1.60407 0.2931 0
M  V30 19 H -0.119793 -0.614304 1.16717 0
M  V30 20 H -3.00919 -1.53449 -0.986507 0
M  V30 21 H -2.20183 -1.92663 0.586155 0
M  V30 22 H -4.30017 -0.8498 0.971472 0
M  V30 23 H -3.85087 0.547817 -0.0741319 0
M  V30 24 H -2.15982 1.12015 1.40488 0
M  V30 25 H -2.24422 -0.319518 2.26959 0
M  V30 26 H -2.27025 0.0816206 -2.49259 0
M  V30 27 H -0.313785 1.32516 -3.33436 0
M  V30 28 H 1.73931 1.61742 -1.96648 0
M  V30 END ATOM
M  V30 BEGIN BOND
M  V30 1 1 1 2
M  V30 2 1 2 3
M  V30 3 1 3 4
M  V30 4 2 4 5
M  V30 5 1 5 6
M  V30 6 1 6 7
M  V30 7 1 7 8
M  V30 8 1 8 9
M  V30 9 2 6 10
M  V30 10 1 10 11
M  V30 11 2 11 12
M  V30 12 1 12 4
M  V30 13 1 1 13
M  V30 14 1 1 14
M  V30 15 1 2 15
M  V30 16 1 2 16
M  V30 17 1 3 17
M  V30 18 1 3 18
M  V30 19 1 5 19
M  V30 20 1 7 20
M  V30 21 1 7 21
M  V30 22 1 8 22
M  V30 23 1 8 23
M  V30 24 1 9 24
M  V30 25 1 9 25
M  V30 26 1 10 26
M  V30 27 1 11 27
M  V30 28 1 12 28
M  V30 END BOND
M  V30 END CTAB
M  END
