
     RDKit          3D

  0  0  0  0  0  0  0  0  0  0999 V3000
M  V30 BEGIN CTAB
M  V30 COUNTS 39 40 0 0 0
M  V30 BEGIN ATOM
M  V30 1 N 4.91344 -1.55478 1.14505 0
M  V30 2 C 3.49219 -1.43007 0.962525 0
M  V30 3 C 3.26689 -0.182948 0.145045 0
M  V30 4 N 1.87821 0.0724661 -0.119275 0
M  V30 5 C 1.79725 1.28908 -0.906653 0
M  V30 6 C 0.855917 2.29202 -0.261478 0
M  V30 7 C -0.557551 1.76702 -0.292533 0
M  V30 8 C -0.661205 0.329386 0.092036 0 CFG=2
M  V30 9 C -0.224608 -0.609685 -1.01338 0
M  V30 10 C 1.24374 -0.974356 -0.878346 0
M  V30 11 C -2.09143 0.0436127 0.428316 0
M  V30 12 C -2.4675 -0.399226 1.68026 0
M  V30 13 C -3.78227 -0.664673 1.99814 0
M  V30 14 N -4.71156 -0.479497 1.04317 0
M  V30 15 C -4.42337 -0.0509452 -0.198481 0
M  V30 16 C -3.10059 0.211094 -0.502395 0
M  V30 17 N -5.44082 0.137017 -1.19738 0
M  V30 18 H 5.21559 -2.20444 1.8361 0
M  V30 19 H 5.39914 -0.698577 0.986176 0
M  V30 20 H 3.05256 -1.316 1.96903 0
M  V30 21 H 3.11297 -2.3421 0.504057 0
M  V30 22 H 3.85171 -0.181377 -0.781912 0
M  V30 23 H 3.64383 0.670603 0.757746 0
M  V30 24 H 2.77538 1.79453 -1.00325 0
M  V30 25 H 1.42172 1.11967 -1.92891 0
M  V30 26 H 0.883891 3.19674 -0.905468 0
M  V30 27 H 1.22618 2.49397 0.747242 0
M  V30 28 H -1.14249 2.35819 0.44853 0
M  V30 29 H -0.931957 1.89495 -1.32665 0
M  V30 30 H -0.0504247 0.126236 0.97865 0
M  V30 31 H -0.452824 -0.14396 -1.99171 0
M  V30 32 H -0.817026 -1.54608 -0.957165 0
M  V30 33 H 1.66793 -0.967245 -1.90854 0
M  V30 34 H 1.33275 -1.97044 -0.427021 0
M  V30 35 H -1.70192 -0.541999 2.43602 0
M  V30 36 H -4.01554 -1.00994 2.99813 0
M  V30 37 H -2.84687 0.555351 -1.49102 0
M  V30 38 H -5.54653 -0.504523 -2.00286 0
M  V30 39 H -6.06482 0.95718 -1.0618 0
M  V30 END ATOM
M  V30 BEGIN BOND
M  V30 1 1 1 2
M  V30 2 1 2 3
M  V30 3 1 3 4
M  V30 4 1 4 5
M  V30 5 1 5 6
M  V30 6 1 6 7
M  V30 7 1 7 8
M  V30 8 1 8 9
M  V30 9 1 9 10
M  V30 10 1 8 11
M  V30 11 2 11 12
M  V30 12 1 12 13
M  V30 13 2 13 14
M  V30 14 1 14 15
M  V30 15 2 15 16
M  V30 16 1 15 17
M  V30 17 1 10 4
M  V30 18 1 16 11
M  V30 19 1 1 18
M  V30 20 1 1 19
M  V30 21 1 2 20
M  V30 22 1 2 21
M  V30 23 1 3 22
M  V30 24 1 3 23
M  V30 25 1 5 24
M  V30 26 1 5 25
M  V30 27 1 6 26
M  V30 28 1 6 27
M  V30 29 1 7 28
M  V30 30 1 7 29
M  V30 31 1 8 30 CFG=1
M  V30 32 1 9 31
M  V30 33 1 9 32
M  V30 34 1 10 33
M  V30 35 1 10 34
M  V30 36 1 12 35
M  V30 37 1 13 36
M  V30 38 1 16 37
M  V30 39 1 17 38
M  V30 40 1 17 39
M  V30 END BOND
M  V30 END CTAB
M  END
