
     RDKit          3D

  0  0  0  0  0  0  0  0  0  0999 V3000
M  V30 BEGIN CTAB
M  V30 COUNTS 38 41 0 0 0
M  V30 BEGIN ATOM
M  V30 1 N -5.16718 -3.01135 -0.573302 0
M  V30 2 C -4.19107 -2.44168 -0.314717 0
M  V30 3 C -2.98645 -1.7251 -0.0197987 0
M  V30 4 C -1.89426 -2.26926 0.623137 0
M  V30 5 N -1.98955 -3.63091 1.02734 0
M  V30 6 N -0.759328 -1.55448 0.88548 0
M  V30 7 C -0.662805 -0.26416 0.521218 0
M  V30 8 C -1.74753 0.323307 -0.130538 0
M  V30 9 C -2.88908 -0.402019 -0.394167 0
M  V30 10 N -3.94627 0.237414 -1.05296 0
M  V30 11 C -1.41268 1.6456 -0.381357 0
M  V30 12 C -2.08733 2.67645 -0.990651 0
M  V30 13 C -1.45053 3.89254 -1.08085 0
M  V30 14 C -0.16811 4.08107 -0.576795 0
M  V30 15 C 0.46309 3.0341 0.0181756 0
M  V30 16 N -0.153091 1.83906 0.112092 0
M  V30 17 C 0.30134 0.69882 0.653376 0
M  V30 18 C 1.60708 0.509864 1.25459 0
M  V30 19 O 1.86426 1.09029 2.37382 0
M  V30 20 C 2.67968 -0.287741 0.698835 0
M  V30 21 C 2.78875 -0.611071 -0.631911 0
M  V30 22 C 3.84953 -1.3674 -1.1361 0
M  V30 23 C 4.83792 -1.81854 -0.275912 0
M  V30 24 C 4.74932 -1.5089 1.05561 0
M  V30 25 C 3.69229 -0.760903 1.52323 0
M  V30 26 H -2.19557 -4.39896 0.376812 0
M  V30 27 H -1.84764 -3.88313 2.04617 0
M  V30 28 H -4.76016 0.554875 -0.471386 0
M  V30 29 H -4.02296 0.439409 -2.07721 0
M  V30 30 H -3.06476 2.58016 -1.39204 0
M  V30 31 H -1.95741 4.72719 -1.55365 0
M  V30 32 H 0.269412 5.06974 -0.684644 0
M  V30 33 H 1.48106 3.20906 0.409103 0
M  V30 34 H 2.03093 -0.275583 -1.33594 0
M  V30 35 H 3.95436 -1.63271 -2.17613 0
M  V30 36 H 5.67203 -2.4186 -0.683417 0
M  V30 37 H 5.49253 -1.83646 1.75846 0
M  V30 38 H 3.62018 -0.510002 2.59603 0
M  V30 END ATOM
M  V30 BEGIN BOND
M  V30 1 3 1 2
M  V30 2 1 2 3
M  V30 3 1 3 4
M  V30 4 1 4 5
M  V30 5 2 4 6
M  V30 6 1 6 7
M  V30 7 1 7 8
M  V30 8 1 8 9
M  V30 9 1 9 10
M  V30 10 2 8 11
M  V30 11 1 11 12
M  V30 12 2 12 13
M  V30 13 1 13 14
M  V30 14 2 14 15
M  V30 15 1 15 16
M  V30 16 1 16 17
M  V30 17 1 17 18
M  V30 18 2 18 19
M  V30 19 1 18 20
M  V30 20 2 20 21
M  V30 21 1 21 22
M  V30 22 2 22 23
M  V30 23 1 23 24
M  V30 24 2 24 25
M  V30 25 2 9 3
M  V30 26 1 16 11
M  V30 27 1 25 20
M  V30 28 2 17 7
M  V30 29 1 5 26
M  V30 30 1 5 27
M  V30 31 1 10 28
M  V30 32 1 10 29
M  V30 33 1 12 30
M  V30 34 1 13 31
M  V30 35 1 14 32
M  V30 36 1 15 33
M  V30 37 1 21 34
M  V30 38 1 22 35
M  V30 39 1 23 36
M  V30 40 1 24 37
M  V30 41 1 25 38
M  V30 END BOND
M  V30 END CTAB
M  END
