
     RDKit          3D

  0  0  0  0  0  0  0  0  0  0999 V3000
M  V30 BEGIN CTAB
M  V30 COUNTS 42 43 0 0 0
M  V30 BEGIN ATOM
M  V30 1 N -5.3201 -0.106354 -1.16652 0
M  V30 2 C -5.20755 -1.01409 -0.0676898 0
M  V30 3 C -3.79737 -1.32945 0.332024 0
M  V30 4 N -2.98062 -1.95088 -0.637614 0
M  V30 5 C -2.64247 -1.15387 -1.78912 0
M  V30 6 C -1.13603 -1.31619 -2.08925 0
M  V30 7 N -0.366473 -0.934797 -0.94834 0
M  V30 8 C -0.7623 -1.46272 0.34133 0
M  V30 9 C -1.81704 -2.51835 0.0280129 0
M  V30 10 C 0.72101 -0.0484682 -1.08516 0
M  V30 11 S 1.13299 0.477779 -2.5698 0
M  V30 12 N 1.50378 0.333783 0.027176 0
M  V30 13 C 2.65835 1.12618 0.0135673 0
M  V30 14 O 3.07108 1.55049 -1.10856 0
M  V30 15 C 3.37792 1.46927 1.21468 0
M  V30 16 C 3.00939 1.08634 2.45311 0
M  V30 17 C 3.69546 1.41855 3.63125 0
M  V30 18 C 4.8075 2.18058 3.48911 0
M  V30 19 C 5.238 2.6058 2.24383 0
M  V30 20 C 4.53319 2.25755 1.10467 0
M  V30 21 N 4.94779 2.69987 -0.1679 0
M  V30 22 H -5.5074 -0.659715 -2.04255 0
M  V30 23 H -6.15928 0.540171 -1.09749 0
M  V30 24 H -5.80391 -1.93056 -0.301005 0
M  V30 25 H -5.70639 -0.562098 0.816415 0
M  V30 26 H -3.85173 -1.95425 1.24519 0
M  V30 27 H -3.31786 -0.379637 0.651695 0
M  V30 28 H -3.16375 -1.44653 -2.69903 0
M  V30 29 H -2.75582 -0.0877192 -1.5068 0
M  V30 30 H -0.923735 -0.65822 -2.94219 0
M  V30 31 H -0.99429 -2.38386 -2.36733 0
M  V30 32 H 0.0549029 -1.88261 0.925983 0
M  V30 33 H -1.30629 -0.690491 0.9472 0
M  V30 34 H -1.36893 -3.30802 -0.5873 0
M  V30 35 H -2.13326 -2.92901 0.988953 0
M  V30 36 H 1.17903 -0.0228478 0.982015 0
M  V30 37 H 2.10695 0.474427 2.58875 0
M  V30 38 H 3.30834 1.06136 4.56674 0
M  V30 39 H 5.38557 2.4713 4.36244 0
M  V30 40 H 6.12041 3.21121 2.13802 0
M  V30 41 H 4.44122 3.49848 -0.612212 0
M  V30 42 H 5.7297 2.26761 -0.672806 0
M  V30 END ATOM
M  V30 BEGIN BOND
M  V30 1 1 1 2
M  V30 2 1 2 3
M  V30 3 1 3 4
M  V30 4 1 4 5
M  V30 5 1 5 6
M  V30 6 1 6 7
M  V30 7 1 7 8
M  V30 8 1 8 9
M  V30 9 1 7 10
M  V30 10 2 10 11
M  V30 11 1 10 12
M  V30 12 1 12 13
M  V30 13 2 13 14
M  V30 14 1 13 15
M  V30 15 2 15 16
M  V30 16 1 16 17
M  V30 17 2 17 18
M  V30 18 1 18 19
M  V30 19 2 19 20
M  V30 20 1 20 21
M  V30 21 1 9 4
M  V30 22 1 20 15
M  V30 23 1 1 22
M  V30 24 1 1 23
M  V30 25 1 2 24
M  V30 26 1 2 25
M  V30 27 1 3 26
M  V30 28 1 3 27
M  V30 29 1 5 28
M  V30 30 1 5 29
M  V30 31 1 6 30
M  V30 32 1 6 31
M  V30 33 1 8 32
M  V30 34 1 8 33
M  V30 35 1 9 34
M  V30 36 1 9 35
M  V30 37 1 12 36
M  V30 38 1 16 37
M  V30 39 1 17 38
M  V30 40 1 18 39
M  V30 41 1 19 40
M  V30 42 1 21 41
M  V30 43 1 21 42
M  V30 END BOND
M  V30 END CTAB
M  END
