
     RDKit          3D

  0  0  0  0  0  0  0  0  0  0999 V3000
M  V30 BEGIN CTAB
M  V30 COUNTS 44 45 0 0 0
M  V30 BEGIN ATOM
M  V30 1 O -0.552992 1.85778 1.0489 0
M  V30 2 C -0.366077 1.27845 -0.0554281 0
M  V30 3 C 0.921456 0.551633 -0.331871 0
M  V30 4 S 1.97946 0.708865 1.13136 0
M  V30 5 C 3.53825 -0.12395 0.900258 0
M  V30 6 N 4.58156 0.551329 0.366132 0
M  V30 7 C 5.78612 -0.00640828 0.161135 0
M  V30 8 N 6.85564 0.736692 -0.402043 0
M  V30 9 C 5.98364 -1.3273 0.505981 0
M  V30 10 C 4.92494 -2.04027 1.05652 0
M  V30 11 N 3.73622 -1.41079 1.23447 0
M  V30 12 N 5.12352 -3.39526 1.41161 0
M  V30 13 C 1.65718 1.18566 -1.49389 0
M  V30 14 N -1.37808 1.30994 -1.05057 0
M  V30 15 C -2.62778 1.97208 -0.871711 0
M  V30 16 C -3.46494 1.4438 0.265994 0
M  V30 17 C -3.78253 0.00607872 0.0603634 0
M  V30 18 C -4.42123 -0.352236 -1.09774 0
M  V30 19 C -4.71494 -1.69431 -1.28432 0
M  V30 20 C -4.36149 -2.6068 -0.317009 0
M  V30 21 C -3.72445 -2.21652 0.828453 0
M  V30 22 C -3.41724 -0.888409 1.04582 0
M  V30 23 C -4.74769 2.27826 0.256694 0
M  V30 24 H 0.723162 -0.507909 -0.504241 0
M  V30 25 H 7.6382 1.13467 0.167061 0
M  V30 26 H 6.84708 0.88499 -1.43548 0
M  V30 27 H 6.95765 -1.75205 0.33219 0
M  V30 28 H 5.60848 -3.61052 2.30143 0
M  V30 29 H 4.79955 -4.16951 0.810331 0
M  V30 30 H 1.60217 2.29539 -1.41366 0
M  V30 31 H 1.26878 0.85011 -2.4741 0
M  V30 32 H 2.72061 0.860989 -1.44687 0
M  V30 33 H -1.19038 0.818196 -1.96309 0
M  V30 34 H -2.44918 3.06109 -0.639382 0
M  V30 35 H -3.20739 1.98249 -1.82289 0
M  V30 36 H -2.95516 1.63798 1.21627 0
M  V30 37 H -4.70311 0.377187 -1.86978 0
M  V30 38 H -5.22331 -2.03784 -2.18908 0
M  V30 39 H -4.58944 -3.64806 -0.461937 0
M  V30 40 H -3.45309 -2.94507 1.57937 0
M  V30 41 H -2.90684 -0.548935 1.95564 0
M  V30 42 H -5.02286 2.39017 -0.822434 0
M  V30 43 H -5.54762 1.82289 0.838029 0
M  V30 44 H -4.44584 3.28541 0.615753 0
M  V30 END ATOM
M  V30 BEGIN BOND
M  V30 1 2 1 2
M  V30 2 1 2 3
M  V30 3 1 3 4
M  V30 4 1 4 5
M  V30 5 2 5 6
M  V30 6 1 6 7
M  V30 7 1 7 8
M  V30 8 2 7 9
M  V30 9 1 9 10
M  V30 10 2 10 11
M  V30 11 1 10 12
M  V30 12 1 3 13
M  V30 13 1 2 14
M  V30 14 1 14 15
M  V30 15 1 15 16
M  V30 16 1 16 17
M  V30 17 2 17 18
M  V30 18 1 18 19
M  V30 19 2 19 20
M  V30 20 1 20 21
M  V30 21 2 21 22
M  V30 22 1 16 23
M  V30 23 1 11 5
M  V30 24 1 22 17
M  V30 25 1 3 24
M  V30 26 1 8 25
M  V30 27 1 8 26
M  V30 28 1 9 27
M  V30 29 1 12 28
M  V30 30 1 12 29
M  V30 31 1 13 30
M  V30 32 1 13 31
M  V30 33 1 13 32
M  V30 34 1 14 33
M  V30 35 1 15 34
M  V30 36 1 15 35
M  V30 37 1 16 36
M  V30 38 1 18 37
M  V30 39 1 19 38
M  V30 40 1 20 39
M  V30 41 1 21 40
M  V30 42 1 22 41
M  V30 43 1 23 42
M  V30 44 1 23 43
M  V30 45 1 23 44
M  V30 END BOND
M  V30 END CTAB
M  END
