
     RDKit          3D

  0  0  0  0  0  0  0  0  0  0999 V3000
M  V30 BEGIN CTAB
M  V30 COUNTS 27 27 0 0 0
M  V30 BEGIN ATOM
M  V30 1 N 3.99578 -1.7124 0.258513 0
M  V30 2 C 3.39878 -0.465532 -0.0708566 0
M  V30 3 C 1.8717 -0.504968 -0.0337301 0
M  V30 4 C 1.39308 0.871408 -0.40048 0
M  V30 5 C -0.0843764 0.975866 -0.403429 0
M  V30 6 N -0.715933 2.12165 -0.704916 0
M  V30 7 C -2.06377 2.22114 -0.708724 0
M  V30 8 N -2.73848 3.42075 -1.02416 0
M  V30 9 N -2.82074 1.15471 -0.404848 0
M  V30 10 C -2.21096 -0.00256632 -0.0998469 0
M  V30 11 N -0.85746 -0.0798577 -0.102193 0
M  V30 12 N -3.0171 -1.13337 0.222452 0
M  V30 13 C -2.3873 -2.39421 0.555358 0
M  V30 14 H 4.21137 -1.84095 1.26757 0
M  V30 15 H 4.77585 -2.00202 -0.368556 0
M  V30 16 H 3.68875 -0.148356 -1.0918 0
M  V30 17 H 3.69511 0.287206 0.68908 0
M  V30 18 H 1.51866 -0.71723 0.999465 0
M  V30 19 H 1.46724 -1.28928 -0.677156 0
M  V30 20 H 1.75017 1.07872 -1.43169 0
M  V30 21 H 1.84029 1.60846 0.287644 0
M  V30 22 H -3.01864 3.63498 -1.99398 0
M  V30 23 H -2.95319 4.09144 -0.270702 0
M  V30 24 H -4.04997 -1.0404 0.214979 0
M  V30 25 H -2.24377 -2.46888 1.64966 0
M  V30 26 H -1.40055 -2.44944 0.0658307 0
M  V30 27 H -3.04454 -3.21685 0.201784 0
M  V30 END ATOM
M  V30 BEGIN BOND
M  V30 1 1 1 2
M  V30 2 1 2 3
M  V30 3 1 3 4
M  V30 4 1 4 5
M  V30 5 2 5 6
M  V30 6 1 6 7
M  V30 7 1 7 8
M  V30 8 2 7 9
M  V30 9 1 9 10
M  V30 10 2 10 11
M  V30 11 1 10 12
M  V30 12 1 12 13
M  V30 13 1 11 5
M  V30 14 1 1 14
M  V30 15 1 1 15
M  V30 16 1 2 16
M  V30 17 1 2 17
M  V30 18 1 3 18
M  V30 19 1 3 19
M  V30 20 1 4 20
M  V30 21 1 4 21
M  V30 22 1 8 22
M  V30 23 1 8 23
M  V30 24 1 12 24
M  V30 25 1 13 25
M  V30 26 1 13 26
M  V30 27 1 13 27
M  V30 END BOND
M  V30 END CTAB
M  END
