
     RDKit          3D

  0  0  0  0  0  0  0  0  0  0999 V3000
M  V30 BEGIN CTAB
M  V30 COUNTS 83 87 0 0 0
M  V30 BEGIN ATOM
M  V30 1 C -5.95196 -0.55444 2.25861 0
M  V30 2 N -5.26354 0.19436 1.21157 0
M  V30 3 C -6.00491 0.908955 0.221449 0
M  V30 4 C -7.09294 0.191803 -0.441425 0
M  V30 5 N -8.31407 0.103379 0.135674 0
M  V30 6 C -9.34492 -0.497242 -0.469851 0
M  V30 7 C -10.5933 -0.57405 0.132746 0
M  V30 8 N -10.6925 0.0171993 1.40985 0
M  V30 9 N -11.6113 -1.17394 -0.496343 0
M  V30 10 C -11.4926 -1.72784 -1.72297 0
M  V30 11 N -12.5885 -2.35319 -2.37312 0
M  V30 12 N -10.2735 -1.6482 -2.29944 0
M  V30 13 C -9.20798 -1.06186 -1.72679 0
M  V30 14 N -8.00015 -0.981236 -2.30526 0
M  V30 15 C -6.94833 -0.36709 -1.68499 0
M  V30 16 C -3.86037 0.284207 1.25041 0
M  V30 17 C -3.2005 0.229349 2.48817 0
M  V30 18 C -1.82961 0.28942 2.59117 0
M  V30 19 C -1.0209 0.406358 1.47848 0
M  V30 20 C -1.64927 0.457013 0.265399 0
M  V30 21 C -3.04627 0.397308 0.148 0
M  V30 22 C 0.438019 0.440565 1.61665 0
M  V30 23 O 1.01354 0.151682 2.6888 0
M  V30 24 N 1.18171 0.806075 0.49072 0
M  V30 25 C 2.6706 0.816716 0.609716 0
M  V30 26 C 3.19592 -0.261601 -0.229581 0
M  V30 27 C 4.65746 -0.448525 -0.290026 0
M  V30 28 C 4.93996 -1.80238 -1.0458 0
M  V30 29 O 3.80641 -2.20817 -1.54721 0
M  V30 30 N 6.06561 -2.29579 -1.07007 0
M  V30 31 C 7.44199 -2.90558 -1.1034 0
M  V30 32 C 7.60207 -4.03333 -0.21043 0
M  V30 33 C 8.05678 -3.90586 1.09315 0
M  V30 34 C 8.23793 -4.95401 1.94965 0
M  V30 35 C 7.94955 -6.22265 1.48687 0
M  V30 36 C 7.50116 -6.40974 0.216839 0
M  V30 37 C 7.3234 -5.34259 -0.633839 0
M  V30 38 C 3.12221 2.16654 0.617715 0
M  V30 39 O 2.19868 3.09436 0.555456 0
M  V30 40 N 4.46424 2.59543 0.697618 0
M  V30 41 C 4.81408 3.98299 0.75275 0
M  V30 42 C 4.63254 4.74453 -0.481621 0
M  V30 43 C 4.97005 6.11494 -0.468107 0
M  V30 44 C 4.82117 6.93032 -1.55459 0
M  V30 45 C 4.31645 6.42407 -2.75138 0
M  V30 46 C 3.98474 5.09546 -2.7826 0
M  V30 47 C 4.14231 4.27369 -1.67075 0
M  V30 48 H -5.25235 -1.10492 2.90609 0
M  V30 49 H -6.59526 -1.3227 1.80739 0
M  V30 50 H -6.54204 0.143227 2.90534 0
M  V30 51 H -5.27352 1.22583 -0.58721 0
M  V30 52 H -6.38489 1.86292 0.689566 0
M  V30 53 H -10.172 -0.407609 2.19552 0
M  V30 54 H -11.2612 0.864851 1.6049 0
M  V30 55 H -12.8657 -3.30688 -2.10713 0
M  V30 56 H -13.1109 -1.86931 -3.11625 0
M  V30 57 H -6.00604 -0.342374 -2.23983 0
M  V30 58 H -3.80836 0.157136 3.38788 0
M  V30 59 H -1.327 0.244378 3.57992 0
M  V30 60 H -1.09676 0.541562 -0.632882 0
M  V30 61 H -3.50949 0.43495 -0.831838 0
M  V30 62 H 0.765326 1.06239 -0.409865 0
M  V30 63 H 2.86225 0.418243 1.71126 0
M  V30 64 H 2.73821 -0.158958 -1.25808 0
M  V30 65 H 2.77915 -1.24073 0.201963 0
M  V30 66 H 5.08626 0.324395 -0.940375 0
M  V30 67 H 5.17208 -0.483811 0.658688 0
M  V30 68 H 5.64993 -3.45718 -1.67256 0
M  V30 69 H 7.694 -3.12301 -2.13098 0
M  V30 70 H 8.15734 -2.10336 -0.778077 0
M  V30 71 H 8.26971 -2.8883 1.40074 0
M  V30 72 H 8.5972 -4.84752 2.96121 0
M  V30 73 H 8.09726 -7.05705 2.15077 0
M  V30 74 H 7.28857 -7.43763 -0.095112 0
M  V30 75 H 6.96426 -5.5306 -1.63659 0
M  V30 76 H 5.26641 1.91044 0.734288 0
M  V30 77 H 5.89535 4.09046 1.03929 0
M  V30 78 H 4.25551 4.51158 1.58583 0
M  V30 79 H 5.36461 6.51561 0.473598 0
M  V30 80 H 5.09111 7.9962 -1.50967 0
M  V30 81 H 4.19462 7.08432 -3.60828 0
M  V30 82 H 3.58238 4.6781 -3.72016 0
M  V30 83 H 3.87277 3.22793 -1.72724 0
M  V30 END ATOM
M  V30 BEGIN BOND
M  V30 1 1 1 2
M  V30 2 1 2 3
M  V30 3 1 3 4
M  V30 4 2 4 5
M  V30 5 1 5 6
M  V30 6 2 6 7
M  V30 7 1 7 8
M  V30 8 1 7 9
M  V30 9 2 9 10
M  V30 10 1 10 11
M  V30 11 1 10 12
M  V30 12 2 12 13
M  V30 13 1 13 14
M  V30 14 2 14 15
M  V30 15 1 2 16
M  V30 16 2 16 17
M  V30 17 1 17 18
M  V30 18 2 18 19
M  V30 19 1 19 20
M  V30 20 2 20 21
M  V30 21 1 19 22
M  V30 22 2 22 23
M  V30 23 1 22 24
M  V30 24 1 24 25
M  V30 25 1 25 26
M  V30 26 1 26 27
M  V30 27 1 27 28
M  V30 28 2 28 29
M  V30 29 1 28 30
M  V30 30 1 30 31
M  V30 31 1 31 32
M  V30 32 2 32 33
M  V30 33 1 33 34
M  V30 34 2 34 35
M  V30 35 1 35 36
M  V30 36 2 36 37
M  V30 37 1 25 38
M  V30 38 2 38 39
M  V30 39 1 38 40
M  V30 40 1 40 41
M  V30 41 1 41 42
M  V30 42 2 42 43
M  V30 43 1 43 44
M  V30 44 2 44 45
M  V30 45 1 45 46
M  V30 46 2 46 47
M  V30 47 1 15 4
M  V30 48 1 21 16
M  V30 49 1 37 32
M  V30 50 1 47 42
M  V30 51 1 13 6
M  V30 52 1 1 48
M  V30 53 1 1 49
M  V30 54 1 1 50
M  V30 55 1 3 51
M  V30 56 1 3 52
M  V30 57 1 8 53
M  V30 58 1 8 54
M  V30 59 1 11 55
M  V30 60 1 11 56
M  V30 61 1 15 57
M  V30 62 1 17 58
M  V30 63 1 18 59
M  V30 64 1 20 60
M  V30 65 1 21 61
M  V30 66 1 24 62
M  V30 67 1 25 63
M  V30 68 1 26 64
M  V30 69 1 26 65
M  V30 70 1 27 66
M  V30 71 1 27 67
M  V30 72 1 30 68
M  V30 73 1 31 69
M  V30 74 1 31 70
M  V30 75 1 33 71
M  V30 76 1 34 72
M  V30 77 1 35 73
M  V30 78 1 36 74
M  V30 79 1 37 75
M  V30 80 1 40 76
M  V30 81 1 41 77
M  V30 82 1 41 78
M  V30 83 1 43 79
M  V30 84 1 44 80
M  V30 85 1 45 81
M  V30 86 1 46 82
M  V30 87 1 47 83
M  V30 END BOND
M  V30 END CTAB
M  END
