
     RDKit          3D

  0  0  0  0  0  0  0  0  0  0999 V3000
M  V30 BEGIN CTAB
M  V30 COUNTS 30 31 0 0 0
M  V30 BEGIN ATOM
M  V30 1 N -3.09992 -1.36697 -0.992253 0
M  V30 2 C -3.048 0.0667144 -0.760439 0
M  V30 3 C -1.86354 0.700314 -1.447 0
M  V30 4 C -0.598863 0.0282948 -0.958197 0
M  V30 5 N -0.43899 0.278215 0.438669 0
M  V30 6 C -1.55159 -0.341361 1.13453 0
M  V30 7 C -2.87234 0.277136 0.729948 0
M  V30 8 C 0.770092 -0.268521 0.989119 0
M  V30 9 C 2.00081 0.317086 0.39138 0
M  V30 10 N 2.13782 1.44039 -0.335293 0
M  V30 11 N 3.40228 1.60481 -0.678074 0
M  V30 12 C 4.13078 0.566308 -0.168721 0
M  V30 13 N 3.24541 -0.193917 0.473673 0
M  V30 14 N 5.52734 0.400905 -0.330906 0
M  V30 15 H -3.54159 -1.59805 -1.90465 0
M  V30 16 H -3.61731 -1.77399 -0.178408 0
M  V30 17 H -3.99568 0.558008 -1.03998 0
M  V30 18 H -1.98551 0.59665 -2.5427 0
M  V30 19 H -1.85615 1.77078 -1.20174 0
M  V30 20 H -0.745115 -1.06561 -1.16388 0
M  V30 21 H 0.217686 0.350115 -1.61216 0
M  V30 22 H -1.35515 -0.217646 2.21946 0
M  V30 23 H -1.51343 -1.42776 0.912475 0
M  V30 24 H -2.80127 1.35684 0.964015 0
M  V30 25 H -3.65839 -0.237513 1.32086 0
M  V30 26 H 0.836752 -0.0532656 2.08305 0
M  V30 27 H 0.729953 -1.37292 0.804698 0
M  V30 28 H 3.48491 -1.07557 0.978101 0
M  V30 29 H 5.89356 0.0741001 -1.23498 0
M  V30 30 H 6.16545 0.606431 0.449402 0
M  V30 END ATOM
M  V30 BEGIN BOND
M  V30 1 1 1 2
M  V30 2 1 2 3
M  V30 3 1 3 4
M  V30 4 1 4 5
M  V30 5 1 5 6
M  V30 6 1 6 7
M  V30 7 1 5 8
M  V30 8 1 8 9
M  V30 9 2 9 10
M  V30 10 1 10 11
M  V30 11 2 11 12
M  V30 12 1 12 13
M  V30 13 1 12 14
M  V30 14 1 7 2
M  V30 15 1 13 9
M  V30 16 1 1 15
M  V30 17 1 1 16
M  V30 18 1 2 17
M  V30 19 1 3 18
M  V30 20 1 3 19
M  V30 21 1 4 20
M  V30 22 1 4 21
M  V30 23 1 6 22
M  V30 24 1 6 23
M  V30 25 1 7 24
M  V30 26 1 7 25
M  V30 27 1 8 26
M  V30 28 1 8 27
M  V30 29 1 13 28
M  V30 30 1 14 29
M  V30 31 1 14 30
M  V30 END BOND
M  V30 END CTAB
M  END
