
     RDKit          3D

  0  0  0  0  0  0  0  0  0  0999 V3000
M  V30 BEGIN CTAB
M  V30 COUNTS 32 34 0 0 0
M  V30 BEGIN ATOM
M  V30 1 N -6.25333 -0.108629 -0.72345 0
M  V30 2 C -4.85755 -0.153795 -0.469681 0
M  V30 3 N -3.94714 0.467457 -1.24426 0
M  V30 4 C -2.63205 0.386269 -0.949326 0
M  V30 5 N -1.6462 1.02872 -1.74433 0
M  V30 6 C -2.18941 -0.329124 0.14402 0
M  V30 7 C -0.947248 -0.593376 0.693577 0
M  V30 8 C 0.309177 -0.0830085 0.125929 0
M  V30 9 N 1.47381 -0.480368 0.857322 0
M  V30 10 C 2.74789 -0.0559636 0.416134 0
M  V30 11 C 3.85306 -0.441684 1.12275 0
M  V30 12 Cl 3.70319 -1.45599 2.56813 0
M  V30 13 C 5.11051 -0.0457906 0.720513 0
M  V30 14 C 5.25785 0.737368 -0.391237 0
M  V30 15 C 4.16346 1.13494 -1.11353 0
M  V30 16 Cl 4.40449 2.13448 -2.52529 0
M  V30 17 C 2.89523 0.729178 -0.698486 0
M  V30 18 C -1.19006 -1.38081 1.79841 0
M  V30 19 O -2.47998 -1.56892 1.89596 0
M  V30 20 C -3.12384 -0.962361 0.93267 0
M  V30 21 N -4.41895 -0.845822 0.589367 0
M  V30 22 H -6.65923 -0.659871 -1.50362 0
M  V30 23 H -6.87948 0.474445 -0.132867 0
M  V30 24 H -1.19629 0.597971 -2.56741 0
M  V30 25 H -1.36324 1.99291 -1.47675 0
M  V30 26 H 0.258321 1.04128 0.164099 0
M  V30 27 H 0.400122 -0.460186 -0.908167 0
M  V30 28 H 1.35068 -1.07063 1.69355 0
M  V30 29 H 5.95734 -0.375985 1.31201 0
M  V30 30 H 6.23352 1.04317 -0.701374 0
M  V30 31 H 2.06826 1.07184 -1.30535 0
M  V30 32 H -0.402927 -1.76773 2.46373 0
M  V30 END ATOM
M  V30 BEGIN BOND
M  V30 1 1 1 2
M  V30 2 2 2 3
M  V30 3 1 3 4
M  V30 4 1 4 5
M  V30 5 2 4 6
M  V30 6 1 6 7
M  V30 7 1 7 8
M  V30 8 1 8 9
M  V30 9 1 9 10
M  V30 10 2 10 11
M  V30 11 1 11 12
M  V30 12 1 11 13
M  V30 13 2 13 14
M  V30 14 1 14 15
M  V30 15 1 15 16
M  V30 16 2 15 17
M  V30 17 2 7 18
M  V30 18 1 18 19
M  V30 19 1 19 20
M  V30 20 2 20 21
M  V30 21 1 21 2
M  V30 22 1 20 6
M  V30 23 1 17 10
M  V30 24 1 1 22
M  V30 25 1 1 23
M  V30 26 1 5 24
M  V30 27 1 5 25
M  V30 28 1 8 26
M  V30 29 1 8 27
M  V30 30 1 9 28
M  V30 31 1 13 29
M  V30 32 1 14 30
M  V30 33 1 17 31
M  V30 34 1 18 32
M  V30 END BOND
M  V30 END CTAB
M  END
