
     RDKit          3D

  0  0  0  0  0  0  0  0  0  0999 V3000
M  V30 BEGIN CTAB
M  V30 COUNTS 27 27 0 0 0
M  V30 BEGIN ATOM
M  V30 1 C 3.88207 -0.429498 1.29338 0
M  V30 2 C 2.93142 -0.258556 0.0967929 0
M  V30 3 N 1.58385 -0.0190334 0.52884 0
M  V30 4 C 0.71878 -0.149504 -0.620513 0
M  V30 5 C -0.722138 -0.153087 -0.264013 0
M  V30 6 N -1.42111 1.01059 -0.240518 0
M  V30 7 C -2.72054 1.05386 0.0803006 0
M  V30 8 N -3.45049 2.26811 0.0873126 0
M  V30 9 N -3.39407 -0.0612142 0.394347 0
M  V30 10 C -2.72486 -1.25403 0.382322 0
M  V30 11 N -1.42561 -1.25414 0.0568004 0
M  V30 12 N -3.45502 -2.4185 0.70742 0
M  V30 13 C 0.976541 0.837788 -1.69687 0
M  V30 14 H 4.35112 0.558693 1.45745 0
M  V30 15 H 4.62716 -1.22232 1.02377 0
M  V30 16 H 3.35433 -0.73592 2.20924 0
M  V30 17 H 3.30329 0.623044 -0.513747 0
M  V30 18 H 3.05223 -1.12661 -0.579997 0
M  V30 19 H 1.51913 0.889972 1.01126 0
M  V30 20 H 0.988529 -1.1727 -1.06226 0
M  V30 21 H -3.34301 2.89775 -0.730109 0
M  V30 22 H -4.05885 2.52476 0.876486 0
M  V30 23 H -4.45878 -2.53641 0.45615 0
M  V30 24 H -2.99425 -3.19819 1.21085 0
M  V30 25 H 0.351295 1.75382 -1.48514 0
M  V30 26 H 1.99778 1.15734 -1.85905 0
M  V30 27 H 0.531186 0.413961 -2.65847 0
M  V30 END ATOM
M  V30 BEGIN BOND
M  V30 1 1 1 2
M  V30 2 1 2 3
M  V30 3 1 3 4
M  V30 4 1 4 5
M  V30 5 2 5 6
M  V30 6 1 6 7
M  V30 7 1 7 8
M  V30 8 2 7 9
M  V30 9 1 9 10
M  V30 10 2 10 11
M  V30 11 1 10 12
M  V30 12 1 4 13
M  V30 13 1 11 5
M  V30 14 1 1 14
M  V30 15 1 1 15
M  V30 16 1 1 16
M  V30 17 1 2 17
M  V30 18 1 2 18
M  V30 19 1 3 19
M  V30 20 1 4 20
M  V30 21 1 8 21
M  V30 22 1 8 22
M  V30 23 1 12 23
M  V30 24 1 12 24
M  V30 25 1 13 25
M  V30 26 1 13 26
M  V30 27 1 13 27
M  V30 END BOND
M  V30 END CTAB
M  END
