
     RDKit          3D

  0  0  0  0  0  0  0  0  0  0999 V3000
M  V30 BEGIN CTAB
M  V30 COUNTS 45 47 0 0 0
M  V30 BEGIN ATOM
M  V30 1 C -2.36268 2.68321 -0.158833 0
M  V30 2 C -2.59524 1.67414 -1.25774 0
M  V30 3 C -3.18467 0.458293 -0.673091 0
M  V30 4 C -2.42849 -0.470632 -0.0435671 0
M  V30 5 N -1.03123 -0.349679 0.0462103 0
M  V30 6 C -0.284416 -0.959354 -1.07805 0
M  V30 7 C 1.11715 -0.424022 -1.15933 0
M  V30 8 N 1.78713 -0.371779 0.136842 0
M  V30 9 C 0.972239 -0.620522 1.29546 0
M  V30 10 C -0.278793 0.269588 1.10194 0
M  V30 11 C 3.16927 -0.0800625 0.156031 0
M  V30 12 C 3.86337 -0.0723321 1.33024 0
M  V30 13 C 5.2251 0.220597 1.34714 0
M  V30 14 C 5.90891 0.509266 0.187314 0
M  V30 15 C 5.2001 0.500826 -1.00864 0
M  V30 16 C 3.86341 0.212036 -1.01413 0
M  V30 17 C 7.31232 0.815475 0.178559 0
M  V30 18 N 8.43937 1.06889 0.155102 0
M  V30 19 C -3.09208 -1.5814 0.501219 0
M  V30 20 N -2.30015 -2.55291 1.16002 0
M  V30 21 N -4.41603 -1.66264 0.370897 0
M  V30 22 C -5.14473 -0.731587 -0.257072 0
M  V30 23 N -6.56111 -0.822549 -0.393831 0
M  V30 24 N -4.52091 0.328328 -0.777661 0
M  V30 25 H -1.28833 3.00033 -0.0911714 0
M  V30 26 H -3.02087 3.55292 -0.371683 0
M  V30 27 H -2.64512 2.31667 0.843129 0
M  V30 28 H -1.62252 1.47641 -1.78211 0
M  V30 29 H -3.24975 2.08841 -2.06494 0
M  V30 30 H -0.28424 -2.06909 -0.891725 0
M  V30 31 H -0.812231 -0.757162 -2.01688 0
M  V30 32 H 1.15577 0.530717 -1.69629 0
M  V30 33 H 1.68911 -1.16609 -1.78923 0
M  V30 34 H 0.59231 -1.66455 1.17717 0
M  V30 35 H 1.42885 -0.436443 2.26152 0
M  V30 36 H 0.175366 1.25174 0.786092 0
M  V30 37 H -0.819791 0.424197 2.03105 0
M  V30 38 H 3.39367 -0.290439 2.26989 0
M  V30 39 H 5.74006 0.216725 2.30159 0
M  V30 40 H 5.7501 0.731793 -1.931 0
M  V30 41 H 3.28374 0.19697 -1.92536 0
M  V30 42 H -1.71965 -2.24074 1.96476 0
M  V30 43 H -2.25301 -3.55792 0.90081 0
M  V30 44 H -7.10962 -0.00563203 -0.045243 0
M  V30 45 H -7.04172 -1.64 -0.811064 0
M  V30 END ATOM
M  V30 BEGIN BOND
M  V30 1 1 1 2
M  V30 2 1 2 3
M  V30 3 2 3 4
M  V30 4 1 4 5
M  V30 5 1 5 6
M  V30 6 1 6 7
M  V30 7 1 7 8
M  V30 8 1 8 9
M  V30 9 1 9 10
M  V30 10 1 8 11
M  V30 11 2 11 12
M  V30 12 1 12 13
M  V30 13 2 13 14
M  V30 14 1 14 15
M  V30 15 2 15 16
M  V30 16 1 14 17
M  V30 17 3 17 18
M  V30 18 1 4 19
M  V30 19 1 19 20
M  V30 20 2 19 21
M  V30 21 1 21 22
M  V30 22 1 22 23
M  V30 23 2 22 24
M  V30 24 1 24 3
M  V30 25 1 10 5
M  V30 26 1 16 11
M  V30 27 1 1 25
M  V30 28 1 1 26
M  V30 29 1 1 27
M  V30 30 1 2 28
M  V30 31 1 2 29
M  V30 32 1 6 30
M  V30 33 1 6 31
M  V30 34 1 7 32
M  V30 35 1 7 33
M  V30 36 1 9 34
M  V30 37 1 9 35
M  V30 38 1 10 36
M  V30 39 1 10 37
M  V30 40 1 12 38
M  V30 41 1 13 39
M  V30 42 1 15 40
M  V30 43 1 16 41
M  V30 44 1 20 42
M  V30 45 1 20 43
M  V30 46 1 23 44
M  V30 47 1 23 45
M  V30 END BOND
M  V30 END CTAB
M  END
