
     RDKit          3D

  0  0  0  0  0  0  0  0  0  0999 V3000
M  V30 BEGIN CTAB
M  V30 COUNTS 45 47 0 0 0
M  V30 BEGIN ATOM
M  V30 1 N 4.98726 2.37115 -0.159176 0
M  V30 2 C 4.95128 0.944666 -0.12962 0
M  V30 3 C 3.9852 0.299451 -1.13228 0
M  V30 4 C 3.7274 -0.738782 -0.0416007 0
M  V30 5 C 4.0448 0.35501 0.960853 0
M  V30 6 C 2.36624 -1.26836 0.00545831 0
M  V30 7 C 1.2447 -0.466308 0.0138478 0
M  V30 8 C 0.0128556 -1.03167 0.058067 0
M  V30 9 N -0.106725 -2.3859 0.0945467 0
M  V30 10 C 0.975936 -3.17261 0.0870067 0
M  V30 11 N 2.18462 -2.59854 0.0426609 0
M  V30 12 N 0.844701 -4.58591 0.125247 0
M  V30 13 N -1.20258 -0.291742 0.052417 0
M  V30 14 C -1.1266 1.04155 -0.488426 0
M  V30 15 C -2.2311 1.60501 -1.33263 0
M  V30 16 C -3.4584 2.07415 -0.656597 0
M  V30 17 C -4.73294 1.30074 -0.701204 0
M  V30 18 C -4.80811 0.0818382 0.271806 0
M  V30 19 C -3.4986 -0.41124 0.34159 0
M  V30 20 C -2.32202 -1.10028 0.664022 0
M  V30 21 H 5.44853 2.70478 0.706244 0
M  V30 22 H 4.05977 2.76415 -0.34593 0
M  V30 23 H 5.94568 0.450819 -0.148886 0
M  V30 24 H 3.13423 1.01615 -1.27023 0
M  V30 25 H 4.45167 -0.080877 -2.04064 0
M  V30 26 H 4.54637 -1.47365 -0.0447689 0
M  V30 27 H 4.61824 0.020968 1.84589 0
M  V30 28 H 3.23052 1.06621 1.16248 0
M  V30 29 H 1.38793 0.589612 -0.00490644 0
M  V30 30 H 0.350334 -5.04278 -0.668941 0
M  V30 31 H 1.20311 -5.20183 0.883611 0
M  V30 32 H -0.987191 1.76129 0.36069 0
M  V30 33 H -0.165155 1.06719 -1.06811 0
M  V30 34 H -2.42683 0.998464 -2.2585 0
M  V30 35 H -1.71673 2.51132 -1.80206 0
M  V30 36 H -3.76483 3.04797 -1.17508 0
M  V30 37 H -3.1852 2.48112 0.348618 0
M  V30 38 H -4.78532 0.835893 -1.71424 0
M  V30 39 H -5.60685 1.92699 -0.586798 0
M  V30 40 H -5.33769 0.485868 1.16939 0
M  V30 41 H -5.5426 -0.620696 -0.18322 0
M  V30 42 H -3.13166 0.544369 0.837059 0
M  V30 43 H -3.37664 -0.570737 -0.758337 0
M  V30 44 H -2.00142 -1.1702 1.74717 0
M  V30 45 H -2.18619 -2.13463 0.286423 0
M  V30 END ATOM
M  V30 BEGIN BOND
M  V30 1 1 1 2
M  V30 2 1 2 3
M  V30 3 1 3 4
M  V30 4 1 4 5
M  V30 5 1 4 6
M  V30 6 2 6 7
M  V30 7 1 7 8
M  V30 8 2 8 9
M  V30 9 1 9 10
M  V30 10 2 10 11
M  V30 11 1 10 12
M  V30 12 1 8 13
M  V30 13 1 13 14
M  V30 14 1 14 15
M  V30 15 1 15 16
M  V30 16 1 16 17
M  V30 17 1 17 18
M  V30 18 1 18 19
M  V30 19 1 19 20
M  V30 20 1 5 2
M  V30 21 1 11 6
M  V30 22 1 20 13
M  V30 23 1 1 21
M  V30 24 1 1 22
M  V30 25 1 2 23
M  V30 26 1 3 24
M  V30 27 1 3 25
M  V30 28 1 4 26
M  V30 29 1 5 27
M  V30 30 1 5 28
M  V30 31 1 7 29
M  V30 32 1 12 30
M  V30 33 1 12 31
M  V30 34 1 14 32
M  V30 35 1 14 33
M  V30 36 1 15 34
M  V30 37 1 15 35
M  V30 38 1 16 36
M  V30 39 1 16 37
M  V30 40 1 17 38
M  V30 41 1 17 39
M  V30 42 1 18 40
M  V30 43 1 18 41
M  V30 44 1 19 42
M  V30 45 1 19 43
M  V30 46 1 20 44
M  V30 47 1 20 45
M  V30 END BOND
M  V30 END CTAB
M  END
