
     RDKit          3D

  0  0  0  0  0  0  0  0  0  0999 V3000
M  V30 BEGIN CTAB
M  V30 COUNTS 37 38 0 0 0
M  V30 BEGIN ATOM
M  V30 1 N -1.82726 3.44219 -0.984459 0
M  V30 2 C -1.79208 2.34459 -0.085364 0
M  V30 3 C -1.11733 1.15163 -0.711244 0
M  V30 4 N -1.07739 0.0121313 0.2238 0
M  V30 5 C -2.41088 -0.422427 0.387183 0
M  V30 6 C -2.65137 -1.79605 0.896356 0
M  V30 7 O -2.27289 -2.82494 0.0790858 0
M  V30 8 C -0.944043 -3.18229 0.175188 0
M  V30 9 C -0.0772272 -2.09605 0.749449 0
M  V30 10 C -0.11752 -0.938042 -0.225917 0 CFG=2
M  V30 11 C 1.21659 -0.301522 -0.234111 0
M  V30 12 C 2.08917 -0.504105 -1.27899 0
M  V30 13 C 3.34028 0.120123 -1.25627 0
M  V30 14 C 3.687 0.923524 -0.200989 0
M  V30 15 N 2.80683 1.09186 0.793672 0
M  V30 16 C 1.58109 0.505499 0.812618 0
M  V30 17 N 4.95959 1.55901 -0.182171 0
M  V30 18 H -1.66185 4.34775 -0.626737 0
M  V30 19 H -2.28937 3.34496 -1.84239 0
M  V30 20 H -1.31045 2.68668 0.854539 0
M  V30 21 H -2.85101 2.07587 0.135731 0
M  V30 22 H -0.136621 1.38475 -1.13764 0
M  V30 23 H -1.77842 0.86011 -1.58161 0
M  V30 24 H -2.96381 -0.311031 -0.567284 0
M  V30 25 H -2.89447 0.293501 1.11639 0
M  V30 26 H -2.34535 -1.95593 1.9683 0
M  V30 27 H -3.78348 -1.88719 0.971874 0
M  V30 28 H -0.795411 -4.14387 0.699196 0
M  V30 29 H -0.591703 -3.33961 -0.877588 0
M  V30 30 H -0.335604 -1.75539 1.74597 0
M  V30 31 H 0.959253 -2.53283 0.825044 0
M  V30 32 H -0.315648 -1.30738 -1.26219 0
M  V30 33 H 1.85864 -1.12903 -2.12891 0
M  V30 34 H 4.04039 -0.0229021 -2.06287 0
M  V30 35 H 0.969429 0.725086 1.67248 0
M  V30 36 H 5.04451 2.52563 0.193395 0
M  V30 37 H 5.78839 1.05571 -0.541348 0
M  V30 END ATOM
M  V30 BEGIN BOND
M  V30 1 1 1 2
M  V30 2 1 2 3
M  V30 3 1 3 4
M  V30 4 1 4 5
M  V30 5 1 5 6
M  V30 6 1 6 7
M  V30 7 1 7 8
M  V30 8 1 8 9
M  V30 9 1 9 10
M  V30 10 1 10 11
M  V30 11 2 11 12
M  V30 12 1 12 13
M  V30 13 2 13 14
M  V30 14 1 14 15
M  V30 15 2 15 16
M  V30 16 1 14 17
M  V30 17 1 10 4
M  V30 18 1 16 11
M  V30 19 1 1 18
M  V30 20 1 1 19
M  V30 21 1 2 20
M  V30 22 1 2 21
M  V30 23 1 3 22
M  V30 24 1 3 23
M  V30 25 1 5 24
M  V30 26 1 5 25
M  V30 27 1 6 26
M  V30 28 1 6 27
M  V30 29 1 8 28
M  V30 30 1 8 29
M  V30 31 1 9 30
M  V30 32 1 9 31
M  V30 33 1 10 32 CFG=3
M  V30 34 1 12 33
M  V30 35 1 13 34
M  V30 36 1 16 35
M  V30 37 1 17 36
M  V30 38 1 17 37
M  V30 END BOND
M  V30 END CTAB
M  END
