
     RDKit          3D

  0  0  0  0  0  0  0  0  0  0999 V3000
M  V30 BEGIN CTAB
M  V30 COUNTS 23 22 0 0 0
M  V30 BEGIN ATOM
M  V30 1 N -2.74848 0.293389 0.0385457 0
M  V30 2 C -1.47208 0.834283 -0.287168 0
M  V30 3 C -0.325658 -0.0833074 0.131461 0
M  V30 4 C 0.944008 0.552458 -0.241926 0
M  V30 5 C 2.19068 -0.117389 0.0469553 0
M  V30 6 S 2.43271 -1.54249 0.75926 0
M  V30 7 N 3.38402 0.56273 -0.346048 0
M  V30 8 C -0.493367 -1.36709 -0.672947 0
M  V30 9 C -0.55364 -0.414294 1.55484 0
M  V30 10 H -3.25621 0.971398 0.649094 0
M  V30 11 H -3.31885 0.155512 -0.842406 0
M  V30 12 H -1.37363 1.06886 -1.37569 0
M  V30 13 H -1.29478 1.79255 0.240317 0
M  V30 14 H 0.996294 1.56093 0.272559 0
M  V30 15 H 0.942745 0.812441 -1.32232 0
M  V30 16 H 3.55129 1.55987 -0.0992635 0
M  V30 17 H 4.08619 0.0393997 -0.886397 0
M  V30 18 H -1.21134 -1.245 -1.50632 0
M  V30 19 H -0.863474 -2.19945 -0.0491475 0
M  V30 20 H 0.467605 -1.7055 -1.1155 0
M  V30 21 H -1.66259 -0.549789 1.69131 0
M  V30 22 H -0.29511 0.411042 2.25766 0
M  V30 23 H -0.126316 -1.39056 1.87587 0
M  V30 END ATOM
M  V30 BEGIN BOND
M  V30 1 1 1 2
M  V30 2 1 2 3
M  V30 3 1 3 4
M  V30 4 1 4 5
M  V30 5 2 5 6
M  V30 6 1 5 7
M  V30 7 1 3 8
M  V30 8 1 3 9
M  V30 9 1 1 10
M  V30 10 1 1 11
M  V30 11 1 2 12
M  V30 12 1 2 13
M  V30 13 1 4 14
M  V30 14 1 4 15
M  V30 15 1 7 16
M  V30 16 1 7 17
M  V30 17 1 8 18
M  V30 18 1 8 19
M  V30 19 1 8 20
M  V30 20 1 9 21
M  V30 21 1 9 22
M  V30 22 1 9 23
M  V30 END BOND
M  V30 END CTAB
M  END
