
     RDKit          3D

  0  0  0  0  0  0  0  0  0  0999 V3000
M  V30 BEGIN CTAB
M  V30 COUNTS 58 61 0 0 0
M  V30 BEGIN ATOM
M  V30 1 N -1.32379 -2.70916 -1.20503 0
M  V30 2 C -2.07709 -1.50413 -1.09902 0
M  V30 3 N -3.26119 -1.44516 -0.46751 0
M  V30 4 C -3.96883 -0.29782 -0.371705 0
M  V30 5 N -3.45165 0.799999 -0.932018 0
M  V30 6 C -2.24779 0.804415 -1.59033 0
M  V30 7 C -1.75999 2.04636 -2.18567 0
M  V30 8 C -0.454163 2.05889 -2.84841 0
M  V30 9 C 0.721984 1.73324 -2.01765 0
M  V30 10 C 1.25016 2.68508 -1.13081 0
M  V30 11 C 2.37493 2.4218 -0.387127 0
M  V30 12 C 3.04147 1.20555 -0.476451 0
M  V30 13 C 2.53946 0.272632 -1.33398 0
M  V30 14 C 1.38624 0.549452 -2.09389 0
M  V30 15 C 4.24556 0.985448 0.361748 0
M  V30 16 O 4.45229 1.76714 1.32891 0
M  V30 17 N 5.13201 -0.0603177 0.089675 0
M  V30 18 C 6.30494 -0.424468 0.758533 0
M  V30 19 C 7.03039 -1.52121 0.293366 0
M  V30 20 N 6.55357 -2.23534 -0.846736 0
M  V30 21 C 8.19262 -1.93957 0.897348 0
M  V30 22 C 8.70209 -1.29276 1.99879 0
M  V30 23 C 7.99801 -0.212848 2.46592 0
M  V30 24 C 6.81177 0.216084 1.85143 0
M  V30 25 N -1.61172 -0.357993 -1.64327 0
M  V30 26 N -5.23423 -0.270182 0.312018 0
M  V30 27 C -5.92145 0.99097 0.370535 0
M  V30 28 C -7.41241 0.859315 0.55246 0
M  V30 29 C -7.6493 -0.114436 1.67835 0
M  V30 30 C -7.13416 -1.46761 1.30681 0
M  V30 31 C -5.71018 -1.4906 0.878423 0
M  V30 32 H -0.486537 -2.91994 -0.617026 0
M  V30 33 H -1.67383 -3.39624 -1.93571 0
M  V30 34 H -2.52366 2.3316 -2.99435 0
M  V30 35 H -1.89635 2.90768 -1.46072 0
M  V30 36 H -0.323087 3.09888 -3.29552 0
M  V30 37 H -0.512178 1.39032 -3.74896 0
M  V30 38 H 0.73628 3.62918 -1.05878 0
M  V30 39 H 2.78801 3.16849 0.307677 0
M  V30 40 H 3.02324 -0.694351 -1.43425 0
M  V30 41 H 1.05768 -0.237526 -2.77983 0
M  V30 42 H 4.86359 -0.659391 -0.761748 0
M  V30 43 H 6.38281 -3.25286 -0.735044 0
M  V30 44 H 6.37403 -1.78761 -1.76521 0
M  V30 45 H 8.74736 -2.80523 0.514332 0
M  V30 46 H 9.61436 -1.65293 2.44082 0
M  V30 47 H 8.39075 0.308014 3.33741 0
M  V30 48 H 6.33181 1.08207 2.30082 0
M  V30 49 H -5.49941 1.55352 1.23764 0
M  V30 50 H -5.65899 1.57808 -0.526732 0
M  V30 51 H -7.83467 1.8245 0.854132 0
M  V30 52 H -7.87469 0.430356 -0.358563 0
M  V30 53 H -8.74967 -0.192605 1.8083 0
M  V30 54 H -7.13867 0.26198 2.58978 0
M  V30 55 H -7.76035 -1.84609 0.452679 0
M  V30 56 H -7.33038 -2.14082 2.19201 0
M  V30 57 H -5.06977 -1.72772 1.75727 0
M  V30 58 H -5.49723 -2.30413 0.137019 0
M  V30 END ATOM
M  V30 BEGIN BOND
M  V30 1 1 1 2
M  V30 2 2 2 3
M  V30 3 1 3 4
M  V30 4 2 4 5
M  V30 5 1 5 6
M  V30 6 1 6 7
M  V30 7 1 7 8
M  V30 8 1 8 9
M  V30 9 2 9 10
M  V30 10 1 10 11
M  V30 11 2 11 12
M  V30 12 1 12 13
M  V30 13 2 13 14
M  V30 14 1 12 15
M  V30 15 2 15 16
M  V30 16 1 15 17
M  V30 17 1 17 18
M  V30 18 2 18 19
M  V30 19 1 19 20
M  V30 20 1 19 21
M  V30 21 2 21 22
M  V30 22 1 22 23
M  V30 23 2 23 24
M  V30 24 2 6 25
M  V30 25 1 4 26
M  V30 26 1 26 27
M  V30 27 1 27 28
M  V30 28 1 28 29
M  V30 29 1 29 30
M  V30 30 1 30 31
M  V30 31 1 25 2
M  V30 32 1 31 26
M  V30 33 1 14 9
M  V30 34 1 24 18
M  V30 35 1 1 32
M  V30 36 1 1 33
M  V30 37 1 7 34
M  V30 38 1 7 35
M  V30 39 1 8 36
M  V30 40 1 8 37
M  V30 41 1 10 38
M  V30 42 1 11 39
M  V30 43 1 13 40
M  V30 44 1 14 41
M  V30 45 1 17 42
M  V30 46 1 20 43
M  V30 47 1 20 44
M  V30 48 1 21 45
M  V30 49 1 22 46
M  V30 50 1 23 47
M  V30 51 1 24 48
M  V30 52 1 27 49
M  V30 53 1 27 50
M  V30 54 1 28 51
M  V30 55 1 28 52
M  V30 56 1 29 53
M  V30 57 1 29 54
M  V30 58 1 30 55
M  V30 59 1 30 56
M  V30 60 1 31 57
M  V30 61 1 31 58
M  V30 END BOND
M  V30 END CTAB
M  END
