
     RDKit          3D

  0  0  0  0  0  0  0  0  0  0999 V3000
M  V30 BEGIN CTAB
M  V30 COUNTS 57 59 0 0 0
M  V30 BEGIN ATOM
M  V30 1 C -4.42796 -0.898728 -1.89001 0
M  V30 2 C -4.91779 0.509105 -1.62681 0
M  V30 3 C -5.20322 0.642658 -0.176943 0
M  V30 4 N -6.49111 0.488109 0.252326 0
M  V30 5 C -6.82604 0.555987 1.55315 0
M  V30 6 N -8.18345 0.390013 1.97871 0
M  V30 7 N -5.83559 0.78485 2.43091 0
M  V30 8 C -4.55711 0.94372 2.06226 0
M  V30 9 N -3.50238 1.18798 2.97911 0
M  V30 10 C -4.19312 0.876501 0.71746 0
M  V30 11 C -2.80294 1.07601 0.304881 0
M  V30 12 C -2.42186 2.39981 0.0544935 0
M  V30 13 C -1.14304 2.70457 -0.351606 0
M  V30 14 C -0.242493 1.67565 -0.508586 0
M  V30 15 Cl 1.39725 2.01541 -1.02063 0
M  V30 16 C -0.622258 0.349799 -0.25901 0
M  V30 17 C -1.91028 0.0737735 0.148102 0
M  V30 18 N 0.299806 -0.700161 -0.45639 0
M  V30 19 N 1.54814 -0.559024 -0.466238 0
M  V30 20 N 2.37211 -1.72185 -0.680404 0
M  V30 21 C 2.2671 -2.32277 -1.95988 0
M  V30 22 C 3.40422 -2.10378 -2.89087 0
M  V30 23 O 3.54154 -0.724765 -3.1674 0
M  V30 24 C 3.17477 -2.12264 0.393482 0
M  V30 25 C 4.63177 -1.9858 0.469764 0
M  V30 26 C 5.20124 -0.630668 0.476589 0
M  V30 27 C 5.76093 0.0348365 -0.580524 0
M  V30 28 C 6.25116 1.31924 -0.513646 0
M  V30 29 C 6.16689 1.97022 0.707988 0
M  V30 30 C 5.61201 1.34774 1.80914 0
M  V30 31 C 5.14317 0.0775054 1.68784 0
M  V30 32 H -3.4492 -0.943099 -2.3911 0
M  V30 33 H -5.23813 -1.39967 -2.49142 0
M  V30 34 H -4.36371 -1.45795 -0.908104 0
M  V30 35 H -5.77644 0.750417 -2.2573 0
M  V30 36 H -4.04288 1.16194 -1.86351 0
M  V30 37 H -8.95931 0.999623 1.65277 0
M  V30 38 H -8.42447 -0.370701 2.64371 0
M  V30 39 H -3.53987 0.75784 3.91558 0
M  V30 40 H -2.67837 1.79418 2.73097 0
M  V30 41 H -3.17405 3.19121 0.192418 0
M  V30 42 H -0.841678 3.72622 -0.544061 0
M  V30 43 H -2.20639 -0.967434 0.347426 0
M  V30 44 H 1.30469 -1.96048 -2.45791 0
M  V30 45 H 2.04102 -3.44268 -1.87108 0
M  V30 46 H 3.23703 -2.61156 -3.88255 0
M  V30 47 H 4.37781 -2.48261 -2.5269 0
M  V30 48 H 3.20033 -0.202471 -2.40205 0
M  V30 49 H 2.70082 -1.72981 1.38452 0
M  V30 50 H 2.89948 -3.2495 0.547098 0
M  V30 51 H 5.19534 -2.55258 -0.30886 0
M  V30 52 H 4.94153 -2.44845 1.47289 0
M  V30 53 H 5.83397 -0.482992 -1.52968 0
M  V30 54 H 6.69144 1.83254 -1.37251 0
M  V30 55 H 6.52569 2.98276 0.847841 0
M  V30 56 H 5.55491 1.87324 2.75608 0
M  V30 57 H 4.69896 -0.421258 2.55851 0
M  V30 END ATOM
M  V30 BEGIN BOND
M  V30 1 1 1 2
M  V30 2 1 2 3
M  V30 3 2 3 4
M  V30 4 1 4 5
M  V30 5 1 5 6
M  V30 6 2 5 7
M  V30 7 1 7 8
M  V30 8 1 8 9
M  V30 9 2 8 10
M  V30 10 1 10 11
M  V30 11 2 11 12
M  V30 12 1 12 13
M  V30 13 2 13 14
M  V30 14 1 14 15
M  V30 15 1 14 16
M  V30 16 2 16 17
M  V30 17 1 16 18
M  V30 18 2 18 19
M  V30 19 1 19 20
M  V30 20 1 20 21
M  V30 21 1 21 22
M  V30 22 1 22 23
M  V30 23 1 20 24
M  V30 24 1 24 25
M  V30 25 1 25 26
M  V30 26 2 26 27
M  V30 27 1 27 28
M  V30 28 2 28 29
M  V30 29 1 29 30
M  V30 30 2 30 31
M  V30 31 1 10 3
M  V30 32 1 17 11
M  V30 33 1 31 26
M  V30 34 1 1 32
M  V30 35 1 1 33
M  V30 36 1 1 34
M  V30 37 1 2 35
M  V30 38 1 2 36
M  V30 39 1 6 37
M  V30 40 1 6 38
M  V30 41 1 9 39
M  V30 42 1 9 40
M  V30 43 1 12 41
M  V30 44 1 13 42
M  V30 45 1 17 43
M  V30 46 1 21 44
M  V30 47 1 21 45
M  V30 48 1 22 46
M  V30 49 1 22 47
M  V30 50 1 23 48
M  V30 51 1 24 49
M  V30 52 1 24 50
M  V30 53 1 25 51
M  V30 54 1 25 52
M  V30 55 1 27 53
M  V30 56 1 28 54
M  V30 57 1 29 55
M  V30 58 1 30 56
M  V30 59 1 31 57
M  V30 END BOND
M  V30 END CTAB
M  END
