
     RDKit          3D

  0  0  0  0  0  0  0  0  0  0999 V3000
M  V30 BEGIN CTAB
M  V30 COUNTS 44 46 0 0 0
M  V30 BEGIN ATOM
M  V30 1 N 4.53935 -1.67584 -1.54322 0
M  V30 2 C 4.41745 -0.291273 -1.32803 0
M  V30 3 C 3.26995 0.456828 -1.32966 0
M  V30 4 N 1.88257 0.0736609 -0.956024 0
M  V30 5 C 1.96413 -0.818583 0.254859 0
M  V30 6 O 2.92717 -1.38629 0.540418 0
M  V30 7 C 0.780536 -0.912471 1.11205 0
M  V30 8 C -0.455608 -1.11016 1.0654 0
M  V30 9 C -1.33753 -0.843755 2.14831 0
M  V30 10 C -0.85392 -0.359251 3.37612 0
M  V30 11 C 0.473295 -0.139669 3.44537 0
M  V30 12 C 1.29298 -0.383243 2.40391 0
M  V30 13 C -1.23574 -1.84244 -0.12725 0
M  V30 14 O -0.569736 -2.7183 -0.425852 0
M  V30 15 N -2.41964 -1.1674 -0.276213 0
M  V30 16 C -3.60385 -0.556215 -0.467466 0
M  V30 17 C -3.83665 0.840773 -0.658972 0
M  V30 18 N -2.70369 1.65984 -1.0204 0
M  V30 19 C -5.04678 1.39793 -0.579413 0
M  V30 20 C -6.17045 0.610333 -0.294286 0
M  V30 21 C -6.0678 -0.75015 -0.0983032 0
M  V30 22 C -4.81587 -1.27171 -0.190226 0
M  V30 23 C 3.32224 1.89526 -1.21547 0
M  V30 24 C 4.54757 2.50562 -1.06551 0
M  V30 25 C 5.70444 1.80135 -1.01463 0
M  V30 26 C 5.60832 0.466716 -1.14452 0
M  V30 27 H 5.15369 -2.30869 -0.984924 0
M  V30 28 H 4.02391 -2.18101 -2.29304 0
M  V30 29 H 1.12248 0.349691 -1.44263 0
M  V30 30 H -2.3897 -0.967169 2.03479 0
M  V30 31 H -1.45082 -0.158757 4.20473 0
M  V30 32 H 0.923009 0.190359 4.39345 0
M  V30 33 H 2.33532 -0.178673 2.49379 0
M  V30 34 H -2.77018 -2.17008 -1.19792 0
M  V30 35 H -2.34778 1.66625 -2.00541 0
M  V30 36 H -2.2977 2.2746 -0.289553 0
M  V30 37 H -5.30182 2.42468 -0.685889 0
M  V30 38 H -7.15066 1.04419 -0.241032 0
M  V30 39 H -6.92535 -1.3554 0.0369394 0
M  V30 40 H -4.69301 -2.35025 -0.0247033 0
M  V30 41 H 2.33176 2.45669 -1.40099 0
M  V30 42 H 4.52728 3.62009 -0.976453 0
M  V30 43 H 6.73374 2.29287 -0.886404 0
M  V30 44 H 6.56309 -0.130976 -1.07689 0
M  V30 END ATOM
M  V30 BEGIN BOND
M  V30 1 1 1 2
M  V30 2 2 2 3
M  V30 3 1 3 4
M  V30 4 1 4 5
M  V30 5 2 5 6
M  V30 6 1 5 7
M  V30 7 1 7 8
M  V30 8 2 8 9
M  V30 9 1 9 10
M  V30 10 2 10 11
M  V30 11 1 11 12
M  V30 12 1 8 13
M  V30 13 2 13 14
M  V30 14 1 13 15
M  V30 15 1 15 16
M  V30 16 2 16 17
M  V30 17 1 17 18
M  V30 18 1 17 19
M  V30 19 2 19 20
M  V30 20 1 20 21
M  V30 21 2 21 22
M  V30 22 1 3 23
M  V30 23 2 23 24
M  V30 24 1 24 25
M  V30 25 2 25 26
M  V30 26 1 26 2
M  V30 27 2 12 7
M  V30 28 1 22 16
M  V30 29 1 1 27
M  V30 30 1 1 28
M  V30 31 1 4 29
M  V30 32 1 9 30
M  V30 33 1 10 31
M  V30 34 1 11 32
M  V30 35 1 12 33
M  V30 36 1 15 34
M  V30 37 1 18 35
M  V30 38 1 18 36
M  V30 39 1 19 37
M  V30 40 1 20 38
M  V30 41 1 21 39
M  V30 42 1 22 40
M  V30 43 1 23 41
M  V30 44 1 24 42
M  V30 45 1 25 43
M  V30 46 1 26 44
M  V30 END BOND
M  V30 END CTAB
M  END
