
     RDKit          3D

  0  0  0  0  0  0  0  0  0  0999 V3000
M  V30 BEGIN CTAB
M  V30 COUNTS 20 20 0 0 0
M  V30 BEGIN ATOM
M  V30 1 O -0.257566 2.66663 0.233042 0
M  V30 2 C -0.06672 1.42022 -0.342186 0 CFG=2
M  V30 3 C -1.22369 0.497518 -0.0881179 0
M  V30 4 C -0.679284 -0.776349 0.483402 0 CFG=2
M  V30 5 C 0.809946 -0.646348 0.567016 0 CFG=2
M  V30 6 C 1.15222 0.7986 0.28304 0
M  V30 7 N 1.48607 -1.54884 -0.362654 0
M  V30 8 N -1.11759 -1.95729 -0.215768 0
M  V30 9 H -0.71024 3.31361 -0.306518 0
M  V30 10 H 0.119434 1.54473 -1.43985 0
M  V30 11 H -1.78489 0.239791 -1.01453 0
M  V30 12 H -1.93416 0.996317 0.597259 0
M  V30 13 H -1.06304 -0.868188 1.5342 0
M  V30 14 H 1.19287 -0.935883 1.58493 0
M  V30 15 H 2.02925 0.853166 -0.376862 0
M  V30 16 H 1.41048 1.28628 1.2562 0
M  V30 17 H 1.50998 -1.1394 -1.31819 0
M  V30 18 H 2.46822 -1.66806 -0.0422777 0
M  V30 19 H -1.30215 -1.80388 -1.22664 0
M  V30 20 H -2.03913 -2.27261 0.194489 0
M  V30 END ATOM
M  V30 BEGIN BOND
M  V30 1 1 1 2
M  V30 2 1 2 3
M  V30 3 1 3 4
M  V30 4 1 4 5
M  V30 5 1 5 6
M  V30 6 1 5 7
M  V30 7 1 4 8
M  V30 8 1 6 2
M  V30 9 1 1 9
M  V30 10 1 2 10 CFG=3
M  V30 11 1 3 11
M  V30 12 1 3 12
M  V30 13 1 4 13 CFG=1
M  V30 14 1 5 14 CFG=1
M  V30 15 1 6 15
M  V30 16 1 6 16
M  V30 17 1 7 17
M  V30 18 1 7 18
M  V30 19 1 8 19
M  V30 20 1 8 20
M  V30 END BOND
M  V30 END CTAB
M  END
