
     RDKit          3D

  0  0  0  0  0  0  0  0  0  0999 V3000
M  V30 BEGIN CTAB
M  V30 COUNTS 38 39 0 0 0
M  V30 BEGIN ATOM
M  V30 1 S -0.825046 4.10495 0.731558 0
M  V30 2 C -1.15383 2.41882 0.453675 0
M  V30 3 N -2.50596 2.192 0.344692 0
M  V30 4 C -3.38221 1.12262 0.168696 0
M  V30 5 C -3.18152 -0.166069 0.516474 0
M  V30 6 C -4.14088 -1.1936 0.37459 0
M  V30 7 C -5.36249 -0.869739 -0.148935 0
M  V30 8 C -5.62553 0.414163 -0.516675 0
M  V30 9 C -4.66999 1.38797 -0.366093 0
M  V30 10 Cl -5.02693 3.01885 -0.854288 0
M  V30 11 N -6.33783 -1.88262 -0.300202 0
M  V30 12 N 0.0244735 1.71013 0.409302 0
M  V30 13 C 0.30282 0.34402 0.204715 0
M  V30 14 C 1.74389 0.0223855 -0.0120929 0
M  V30 15 C 2.69303 0.885004 -0.450302 0
M  V30 16 C 4.02457 0.477304 -0.617608 0
M  V30 17 C 4.40017 -0.802757 -0.342862 0
M  V30 18 C 3.43883 -1.70024 0.107264 0
M  V30 19 C 2.13796 -1.27639 0.263805 0
M  V30 20 S 6.03927 -1.3249 -0.543201 0
M  V30 21 O 6.68477 -0.515577 -1.64584 0
M  V30 22 O 6.08814 -2.76619 -0.982488 0
M  V30 23 N 6.9878 -1.11455 0.872123 0
M  V30 24 H -3.07285 3.16798 0.443857 0
M  V30 25 H -2.26217 -0.476362 0.977377 0
M  V30 26 H -3.90154 -2.20871 0.67705 0
M  V30 27 H -6.60391 0.628126 -0.925478 0
M  V30 28 H -7.34334 -1.65652 -0.421597 0
M  V30 29 H -6.07819 -2.89311 -0.294751 0
M  V30 30 H 0.927744 2.30183 0.569815 0
M  V30 31 H -0.250884 -0.0613548 -0.666131 0
M  V30 32 H 0.0109405 -0.284234 1.09915 0
M  V30 33 H 2.41471 1.90067 -0.678689 0
M  V30 34 H 4.72838 1.23873 -0.975995 0
M  V30 35 H 3.76823 -2.71017 0.316965 0
M  V30 36 H 1.42333 -1.999 0.613741 0
M  V30 37 H 6.48267 -1.27303 1.74824 0
M  V30 38 H 7.40339 -0.160413 0.841148 0
M  V30 END ATOM
M  V30 BEGIN BOND
M  V30 1 2 1 2
M  V30 2 1 2 3
M  V30 3 1 3 4
M  V30 4 2 4 5
M  V30 5 1 5 6
M  V30 6 2 6 7
M  V30 7 1 7 8
M  V30 8 2 8 9
M  V30 9 1 9 10
M  V30 10 1 7 11
M  V30 11 1 2 12
M  V30 12 1 12 13
M  V30 13 1 13 14
M  V30 14 2 14 15
M  V30 15 1 15 16
M  V30 16 2 16 17
M  V30 17 1 17 18
M  V30 18 2 18 19
M  V30 19 1 17 20
M  V30 20 2 20 21
M  V30 21 2 20 22
M  V30 22 1 20 23
M  V30 23 1 9 4
M  V30 24 1 19 14
M  V30 25 1 3 24
M  V30 26 1 5 25
M  V30 27 1 6 26
M  V30 28 1 8 27
M  V30 29 1 11 28
M  V30 30 1 11 29
M  V30 31 1 12 30
M  V30 32 1 13 31
M  V30 33 1 13 32
M  V30 34 1 15 33
M  V30 35 1 16 34
M  V30 36 1 18 35
M  V30 37 1 19 36
M  V30 38 1 23 37
M  V30 39 1 23 38
M  V30 END BOND
M  V30 END CTAB
M  END
