
     RDKit          3D

  0  0  0  0  0  0  0  0  0  0999 V3000
M  V30 BEGIN CTAB
M  V30 COUNTS 22 21 0 0 0
M  V30 BEGIN ATOM
M  V30 1 N -2.64538 1.13726 0.700732 0
M  V30 2 C -2.82797 0.0197245 -0.178131 0
M  V30 3 C -1.70342 -0.128468 -1.14613 0
M  V30 4 N -0.469435 -0.324882 -0.42434 0
M  V30 5 C 0.781116 -0.498032 -1.05516 0
M  V30 6 O 0.846009 -0.484001 -2.29943 0
M  V30 7 C 1.99723 -0.69332 -0.251768 0 CFG=2
M  V30 8 N 1.66188 -0.670648 1.15512 0
M  V30 9 C 3.02471 0.387 -0.533835 0
M  V30 10 H -3.37191 1.07776 1.46156 0
M  V30 11 H -2.71125 2.03558 0.176165 0
M  V30 12 H -2.8726 -0.916676 0.446113 0
M  V30 13 H -3.8154 0.0632373 -0.701944 0
M  V30 14 H -1.63774 0.760397 -1.81306 0
M  V30 15 H -1.8537 -0.998102 -1.80191 0
M  V30 16 H -0.51033 -0.338928 0.632652 0
M  V30 17 H 2.44987 -1.65687 -0.531394 0
M  V30 18 H 1.27522 0.234354 1.45244 0
M  V30 19 H 2.53323 -0.913083 1.70696 0
M  V30 20 H 3.43702 0.227154 -1.55778 0
M  V30 21 H 3.8346 0.27716 0.220942 0
M  V30 22 H 2.57826 1.40339 -0.524542 0
M  V30 END ATOM
M  V30 BEGIN BOND
M  V30 1 1 1 2
M  V30 2 1 2 3
M  V30 3 1 3 4
M  V30 4 1 4 5
M  V30 5 2 5 6
M  V30 6 1 5 7
M  V30 7 1 7 8
M  V30 8 1 7 9
M  V30 9 1 1 10
M  V30 10 1 1 11
M  V30 11 1 2 12
M  V30 12 1 2 13
M  V30 13 1 3 14
M  V30 14 1 3 15
M  V30 15 1 4 16
M  V30 16 1 7 17 CFG=3
M  V30 17 1 8 18
M  V30 18 1 8 19
M  V30 19 1 9 20
M  V30 20 1 9 21
M  V30 21 1 9 22
M  V30 END BOND
M  V30 END CTAB
M  END
