
     RDKit          3D

  0  0  0  0  0  0  0  0  0  0999 V3000
M  V30 BEGIN CTAB
M  V30 COUNTS 20 20 0 0 0
M  V30 BEGIN ATOM
M  V30 1 C -2.5991 -1.26198 0.214349 0
M  V30 2 O -1.6186 -0.604264 0.984783 0
M  V30 3 C -0.454249 -0.0838608 0.468141 0
M  V30 4 C -0.409997 1.22035 0.0159225 0
M  V30 5 N -1.57674 2.0281 0.0859493 0
M  V30 6 C 0.794176 1.66216 -0.485924 0
M  V30 7 C 1.90718 0.864933 -0.54374 0
M  V30 8 C 1.84719 -0.435437 -0.0881999 0
M  V30 9 C 0.671632 -0.910089 0.416313 0
M  V30 10 F 0.62206 -2.19217 0.862645 0
M  V30 11 N 2.9712 -1.28269 -0.132391 0
M  V30 12 H -2.67691 -2.33335 0.537071 0
M  V30 13 H -3.58802 -0.808085 0.430696 0
M  V30 14 H -2.31341 -1.22995 -0.84495 0
M  V30 15 H -2.12456 2.17087 0.97298 0
M  V30 16 H -1.92699 2.51487 -0.775342 0
M  V30 17 H 0.861962 2.66552 -0.843722 0
M  V30 18 H 2.86225 1.21067 -0.940193 0
M  V30 19 H 3.12143 -1.86696 -0.995084 0
M  V30 20 H 3.6295 -1.32865 0.660694 0
M  V30 END ATOM
M  V30 BEGIN BOND
M  V30 1 1 1 2
M  V30 2 1 2 3
M  V30 3 2 3 4
M  V30 4 1 4 5
M  V30 5 1 4 6
M  V30 6 2 6 7
M  V30 7 1 7 8
M  V30 8 2 8 9
M  V30 9 1 9 10
M  V30 10 1 8 11
M  V30 11 1 9 3
M  V30 12 1 1 12
M  V30 13 1 1 13
M  V30 14 1 1 14
M  V30 15 1 5 15
M  V30 16 1 5 16
M  V30 17 1 6 17
M  V30 18 1 7 18
M  V30 19 1 11 19
M  V30 20 1 11 20
M  V30 END BOND
M  V30 END CTAB
M  END
