
     RDKit          3D

  0  0  0  0  0  0  0  0  0  0999 V3000
M  V30 BEGIN CTAB
M  V30 COUNTS 30 32 0 0 0
M  V30 BEGIN ATOM
M  V30 1 N -2.78272 -2.46684 0.118531 0
M  V30 2 C -2.61785 -1.0623 0.135934 0
M  V30 3 C -1.35337 -0.521809 0.0689884 0
M  V30 4 C -0.229563 -1.42703 -0.017643 0
M  V30 5 O -0.483021 -2.65989 -0.0262494 0
M  V30 6 C 1.12215 -0.899463 -0.0901852 0
M  V30 7 C 1.32748 0.486419 -0.0756308 0
M  V30 8 C 2.59733 1.03842 -0.142689 0
M  V30 9 N 2.74971 2.4455 -0.124482 0
M  V30 10 C 3.67766 0.191399 -0.225527 0
M  V30 11 Cl 5.31453 0.888651 -0.312228 0
M  V30 12 C 3.47897 -1.14738 -0.239567 0
M  V30 13 C 2.19908 -1.7369 -0.172626 0
M  V30 14 O 2.08987 -3.07894 -0.192216 0
M  V30 15 C 0.192326 1.4003 0.0118678 0
M  V30 16 O 0.430057 2.63468 0.0214723 0
M  V30 17 C -1.1622 0.868514 0.084499 0
M  V30 18 C -2.25142 1.70761 0.167718 0
M  V30 19 O -2.15873 3.04966 0.188322 0
M  V30 20 C -3.54113 1.14126 0.235705 0
M  V30 21 C -3.68362 -0.202764 0.218118 0
M  V30 22 H -2.8805 -2.96213 1.02568 0
M  V30 23 H -2.81162 -3.03183 -0.750609 0
M  V30 24 H 2.86884 3.04017 -0.971942 0
M  V30 25 H 2.74764 2.96865 0.799881 0
M  V30 26 H 4.31125 -1.8235 -0.303863 0
M  V30 27 H 1.41339 -3.72117 -0.163311 0
M  V30 28 H -1.48484 3.71728 0.16008 0
M  V30 29 H -4.41 1.8171 0.302214 0
M  V30 30 H -4.6697 -0.653673 0.269756 0
M  V30 END ATOM
M  V30 BEGIN BOND
M  V30 1 1 1 2
M  V30 2 2 2 3
M  V30 3 1 3 4
M  V30 4 2 4 5
M  V30 5 1 4 6
M  V30 6 2 6 7
M  V30 7 1 7 8
M  V30 8 1 8 9
M  V30 9 2 8 10
M  V30 10 1 10 11
M  V30 11 1 10 12
M  V30 12 2 12 13
M  V30 13 1 13 14
M  V30 14 1 7 15
M  V30 15 2 15 16
M  V30 16 1 15 17
M  V30 17 2 17 18
M  V30 18 1 18 19
M  V30 19 1 18 20
M  V30 20 2 20 21
M  V30 21 1 21 2
M  V30 22 1 17 3
M  V30 23 1 13 6
M  V30 24 1 1 22
M  V30 25 1 1 23
M  V30 26 1 9 24
M  V30 27 1 9 25
M  V30 28 1 12 26
M  V30 29 1 14 27
M  V30 30 1 19 28
M  V30 31 1 20 29
M  V30 32 1 21 30
M  V30 END BOND
M  V30 END CTAB
M  END
