
     RDKit          3D

  0  0  0  0  0  0  0  0  0  0999 V3000
M  V30 BEGIN CTAB
M  V30 COUNTS 26 27 0 0 0
M  V30 BEGIN ATOM
M  V30 1 N 5.08739 -1.06031 0.333469 0
M  V30 2 C 3.81678 -0.416452 0.278425 0
M  V30 3 C 3.29939 0.0669555 -0.910778 0
M  V30 4 N 2.11328 0.677699 -1.01362 0
M  V30 5 C 1.31416 0.876531 0.0385607 0
M  V30 6 O 0.0808106 1.49728 0.00707496 0
M  V30 7 C -1.1582 0.923834 -0.0679016 0
M  V30 8 C -1.55501 0.161348 -1.13197 0
M  V30 9 Cl -0.506072 -0.143762 -2.52471 0
M  V30 10 C -2.84104 -0.377447 -1.10983 0
M  V30 11 C -3.73684 -0.19768 -0.0984836 0
M  V30 12 N -5.04517 -0.752126 -0.087265 0
M  V30 13 C -3.32571 0.575109 0.971937 0
M  V30 14 C -2.069 1.12372 0.990495 0
M  V30 15 C 1.80849 0.39774 1.26404 0
M  V30 16 C 3.02242 -0.231128 1.38928 0
M  V30 17 H 5.8117 -0.854817 -0.374116 0
M  V30 18 H 5.32306 -1.74829 1.07748 0
M  V30 19 H 3.94971 -0.0925796 -1.77898 0
M  V30 20 H -3.12915 -0.978564 -1.96682 0
M  V30 21 H -5.6045 -0.655014 -0.962455 0
M  V30 22 H -5.43682 -1.23056 0.738941 0
M  V30 23 H -3.98917 0.753086 1.80099 0
M  V30 24 H -1.76548 1.72198 1.83046 0
M  V30 25 H 1.18034 0.542351 2.15303 0
M  V30 26 H 3.35464 -0.578908 2.34998 0
M  V30 END ATOM
M  V30 BEGIN BOND
M  V30 1 1 1 2
M  V30 2 2 2 3
M  V30 3 1 3 4
M  V30 4 2 4 5
M  V30 5 1 5 6
M  V30 6 1 6 7
M  V30 7 2 7 8
M  V30 8 1 8 9
M  V30 9 1 8 10
M  V30 10 2 10 11
M  V30 11 1 11 12
M  V30 12 1 11 13
M  V30 13 2 13 14
M  V30 14 1 5 15
M  V30 15 2 15 16
M  V30 16 1 16 2
M  V30 17 1 14 7
M  V30 18 1 1 17
M  V30 19 1 1 18
M  V30 20 1 3 19
M  V30 21 1 10 20
M  V30 22 1 12 21
M  V30 23 1 12 22
M  V30 24 1 13 23
M  V30 25 1 14 24
M  V30 26 1 15 25
M  V30 27 1 16 26
M  V30 END BOND
M  V30 END CTAB
M  END
