
     RDKit          3D

  0  0  0  0  0  0  0  0  0  0999 V3000
M  V30 BEGIN CTAB
M  V30 COUNTS 37 39 0 0 0
M  V30 BEGIN ATOM
M  V30 1 O 0.39425 -4.76116 0.573922 0
M  V30 2 C -0.347888 -3.52097 0.366952 0
M  V30 3 O -1.5607 -3.6791 0.243484 0
M  V30 4 C 0.377315 -2.30398 0.33045 0
M  V30 5 C 0.0970105 -1.04923 0.174976 0
M  V30 6 C 1.18262 -0.00625469 0.196897 0
M  V30 7 C 2.53872 -0.106382 0.362226 0
M  V30 8 C 3.38045 1.00428 0.349558 0
M  V30 9 C 2.79078 2.23267 0.161191 0
M  V30 10 C 1.42853 2.32819 -0.00439081 0
M  V30 11 C 0.59139 1.20821 0.00972135 0
M  V30 12 C -0.843548 1.05895 -0.140109 0
M  V30 13 C -1.12272 -0.308574 -0.0376684 0
M  V30 14 C -2.43405 -0.655296 -0.153917 0
M  V30 15 C -3.42805 0.296383 -0.361435 0
M  V30 16 C -3.14082 1.62628 -0.459255 0
M  V30 17 C -1.83192 2.00909 -0.346834 0
M  V30 18 S -5.0665 -0.273505 -0.4932 0
M  V30 19 O -5.21068 -1.49186 0.373567 0
M  V30 20 O -5.9588 0.844635 0.0269903 0
M  V30 21 N -5.49174 -0.641011 -2.12423 0
M  V30 22 S 5.10005 0.8088 0.565957 0
M  V30 23 O 5.41847 -0.316088 1.50722 0
M  V30 24 O 5.61725 2.1152 1.14917 0
M  V30 25 N 5.8238 0.588855 -0.979498 0
M  V30 26 H 0.654975 -5.01148 1.5058 0
M  V30 27 H 1.50771 -2.51738 0.480995 0
M  V30 28 H 2.9878 -1.08865 0.510263 0
M  V30 29 H 3.42789 3.10708 0.148286 0
M  V30 30 H 0.93446 3.28128 -0.154726 0
M  V30 31 H -2.69626 -1.6832 -0.0829041 0
M  V30 32 H -3.89715 2.37222 -0.619308 0
M  V30 33 H -1.53827 3.04085 -0.414605 0
M  V30 34 H -6.55299 -0.624463 -2.19834 0
M  V30 35 H -5.12122 0.0560442 -2.78771 0
M  V30 36 H 5.23132 1.02419 -1.72493 0
M  V30 37 H 6.75852 1.03539 -1.03288 0
M  V30 END ATOM
M  V30 BEGIN BOND
M  V30 1 1 1 2
M  V30 2 2 2 3
M  V30 3 1 2 4
M  V30 4 2 4 5 CFG=2
M  V30 5 1 5 6
M  V30 6 2 6 7
M  V30 7 1 7 8
M  V30 8 2 8 9
M  V30 9 1 9 10
M  V30 10 2 10 11
M  V30 11 1 11 12
M  V30 12 2 12 13
M  V30 13 1 13 14
M  V30 14 2 14 15
M  V30 15 1 15 16
M  V30 16 2 16 17
M  V30 17 1 15 18
M  V30 18 2 18 19
M  V30 19 2 18 20
M  V30 20 1 18 21
M  V30 21 1 8 22
M  V30 22 2 22 23
M  V30 23 2 22 24
M  V30 24 1 22 25
M  V30 25 1 13 5
M  V30 26 1 11 6
M  V30 27 1 17 12
M  V30 28 1 1 26
M  V30 29 1 4 27
M  V30 30 1 7 28
M  V30 31 1 9 29
M  V30 32 1 10 30
M  V30 33 1 14 31
M  V30 34 1 16 32
M  V30 35 1 17 33
M  V30 36 1 21 34
M  V30 37 1 21 35
M  V30 38 1 25 36
M  V30 39 1 25 37
M  V30 END BOND
M  V30 END CTAB
M  END
