
     RDKit          3D

  0  0  0  0  0  0  0  0  0  0999 V3000
M  V30 BEGIN CTAB
M  V30 COUNTS 19 19 0 0 0
M  V30 BEGIN ATOM
M  V30 1 Br -1.90389 3.5872 0.0503886 0
M  V30 2 C -1.09321 1.87222 0.0326465 0
M  V30 3 C -1.85313 0.739636 0.0939346 0
M  V30 4 C -1.27286 -0.513764 0.0816446 0
M  V30 5 N -2.03436 -1.7101 0.144058 0
M  V30 6 C 0.121025 -0.582199 0.00418764 0
M  V30 7 C 0.915789 0.540082 -0.0588935 0
M  V30 8 C 0.299096 1.77124 -0.0441875 0
M  V30 9 C 2.39906 0.39544 -0.140142 0
M  V30 10 F 3.03451 1.10448 0.855422 0
M  V30 11 F 2.82216 0.899318 -1.36471 0
M  V30 12 N 0.713204 -1.87609 -0.0081116 0
M  V30 13 H -2.95142 0.774163 0.155278 0
M  V30 14 H -2.92535 -1.70293 0.681089 0
M  V30 15 H -1.75835 -2.60104 -0.315392 0
M  V30 16 H 0.901407 2.66999 -0.0927753 0
M  V30 17 H 2.67966 -0.675601 -0.138463 0
M  V30 18 H 1.29496 -2.12364 0.823741 0
M  V30 19 H 0.611706 -2.5684 -0.759716 0
M  V30 END ATOM
M  V30 BEGIN BOND
M  V30 1 1 1 2
M  V30 2 2 2 3
M  V30 3 1 3 4
M  V30 4 1 4 5
M  V30 5 2 4 6
M  V30 6 1 6 7
M  V30 7 2 7 8
M  V30 8 1 7 9
M  V30 9 1 9 10
M  V30 10 1 9 11
M  V30 11 1 6 12
M  V30 12 1 8 2
M  V30 13 1 3 13
M  V30 14 1 5 14
M  V30 15 1 5 15
M  V30 16 1 8 16
M  V30 17 1 9 17
M  V30 18 1 12 18
M  V30 19 1 12 19
M  V30 END BOND
M  V30 END CTAB
M  END
