
     RDKit          3D

  0  0  0  0  0  0  0  0  0  0999 V3000
M  V30 BEGIN CTAB
M  V30 COUNTS 34 36 0 0 0
M  V30 BEGIN ATOM
M  V30 1 C -1.06803 -2.41785 -0.737749 0
M  V30 2 C -0.988843 -0.992583 -0.437468 0
M  V30 3 C -2.16319 -0.252335 -0.273826 0
M  V30 4 C -3.40983 -0.797582 -0.378454 0
M  V30 5 N -3.58045 -2.16071 -0.659277 0
M  V30 6 N -4.52125 -0.0528049 -0.21452 0
M  V30 7 C -4.38786 1.24762 0.0563252 0
M  V30 8 N -5.572 2.03666 0.23 0
M  V30 9 N -3.17329 1.80548 0.163956 0
M  V30 10 C -2.02914 1.12352 0.0128993 0
M  V30 11 C -0.81647 1.75607 0.136159 0
M  V30 12 C 0.316331 0.995353 -0.0313521 0
M  V30 13 C 0.250815 -0.340815 -0.310337 0
M  V30 14 S 1.70046 -1.35399 -0.532965 0
M  V30 15 C 3.20139 -0.456404 -0.356393 0
M  V30 16 C 3.78674 -0.361913 0.907827 0
M  V30 17 C 4.96557 0.34734 1.02659 0
M  V30 18 C 5.52538 0.934679 -0.0887553 0
M  V30 19 Cl 7.00515 1.82183 0.0751875 0
M  V30 20 C 4.94889 0.845208 -1.3506 0
M  V30 21 Cl 5.66072 1.59044 -2.76134 0
M  V30 22 C 3.77523 0.133883 -1.44459 0
M  V30 23 H 0.0338708 -2.75211 -0.816525 0
M  V30 24 H -1.36954 -3.09366 0.0722697 0
M  V30 25 H -1.37146 -2.6937 -1.76723 0
M  V30 26 H -3.65537 -2.8069 0.184343 0
M  V30 27 H -3.65593 -2.58119 -1.60309 0
M  V30 28 H -5.78006 2.75228 -0.498986 0
M  V30 29 H -6.15942 1.85603 1.06915 0
M  V30 30 H -0.789854 2.8109 0.356553 0
M  V30 31 H 1.29576 1.43961 0.0543067 0
M  V30 32 H 3.30125 -0.84598 1.75675 0
M  V30 33 H 5.40907 0.411539 2.01904 0
M  V30 34 H 3.31538 0.0520742 -2.4023 0
M  V30 END ATOM
M  V30 BEGIN BOND
M  V30 1 1 1 2
M  V30 2 2 2 3
M  V30 3 1 3 4
M  V30 4 1 4 5
M  V30 5 2 4 6
M  V30 6 1 6 7
M  V30 7 1 7 8
M  V30 8 2 7 9
M  V30 9 1 9 10
M  V30 10 2 10 11
M  V30 11 1 11 12
M  V30 12 2 12 13
M  V30 13 1 13 14
M  V30 14 1 14 15
M  V30 15 2 15 16
M  V30 16 1 16 17
M  V30 17 2 17 18
M  V30 18 1 18 19
M  V30 19 1 18 20
M  V30 20 1 20 21
M  V30 21 2 20 22
M  V30 22 1 13 2
M  V30 23 1 22 15
M  V30 24 1 10 3
M  V30 25 1 1 23
M  V30 26 1 1 24
M  V30 27 1 1 25
M  V30 28 1 5 26
M  V30 29 1 5 27
M  V30 30 1 8 28
M  V30 31 1 8 29
M  V30 32 1 11 30
M  V30 33 1 12 31
M  V30 34 1 16 32
M  V30 35 1 17 33
M  V30 36 1 22 34
M  V30 END BOND
M  V30 END CTAB
M  END
