
     RDKit          3D

  0  0  0  0  0  0  0  0  0  0999 V3000
M  V30 BEGIN CTAB
M  V30 COUNTS 44 47 0 0 0
M  V30 BEGIN ATOM
M  V30 1 C 8.31967 -0.945649 -0.232952 0
M  V30 2 O 7.75213 0.0799585 0.555331 0
M  V30 3 C 6.37652 0.269994 0.567335 0
M  V30 4 C 5.56036 -0.520306 -0.172358 0
M  V30 5 C 4.19626 -0.306847 -0.139756 0
M  V30 6 C 3.63079 0.667203 0.606713 0
M  V30 7 C 4.51527 1.46971 1.36341 0
M  V30 8 C 5.85881 1.29543 1.36074 0
M  V30 9 N 2.25748 0.925033 0.696062 0
M  V30 10 C 1.2349 0.0906415 0.225777 0
M  V30 11 O 1.36441 -0.996394 -0.333792 0
M  V30 12 C -0.180119 0.539533 0.407355 0
M  V30 13 S -0.69585 1.98765 1.13642 0
M  V30 14 C -2.3743 1.78822 0.972039 0
M  V30 15 C -2.50113 0.569777 0.340652 0
M  V30 16 C -1.34797 -0.0697676 0.0497496 0
M  V30 17 N -1.22457 -1.33436 -0.674373 0
M  V30 18 C -3.82663 0.199503 0.0760409 0
M  V30 19 C -4.25787 -1.10839 -0.425071 0
M  V30 20 C -5.11885 -1.31333 -1.51325 0
M  V30 21 C -5.34633 -2.57231 -1.8707 0
M  V30 22 C -4.73988 -3.57207 -1.17325 0
M  V30 23 S -3.84959 -2.71362 -0.0122711 0
M  V30 24 C -4.84487 1.04155 0.444611 0
M  V30 25 C -4.67773 2.26005 1.07394 0
M  V30 26 N -3.40592 2.59732 1.32286 0
M  V30 27 N -5.7529 3.09833 1.43404 0
M  V30 28 C -6.21702 0.656835 0.244285 0
M  V30 29 N -7.34367 0.353787 0.113753 0
M  V30 30 H 7.79675 -1.90656 -0.140839 0
M  V30 31 H 9.3881 -1.03924 0.104801 0
M  V30 32 H 8.31843 -0.646692 -1.31704 0
M  V30 33 H 5.95398 -1.32878 -0.799436 0
M  V30 34 H 3.58327 -0.954423 -0.753532 0
M  V30 35 H 4.1098 2.26489 1.97886 0
M  V30 36 H 6.54032 1.90445 1.93606 0
M  V30 37 H 1.97994 1.84719 1.16542 0
M  V30 38 H -1.527 -1.41988 -1.64597 0
M  V30 39 H -0.801777 -2.11819 -0.137243 0
M  V30 40 H -5.53806 -0.42113 -2.03886 0
M  V30 41 H -6.01644 -2.83384 -2.72132 0
M  V30 42 H -4.81581 -4.66315 -1.33227 0
M  V30 43 H -6.71617 2.749 1.66279 0
M  V30 44 H -5.61673 4.12888 1.4854 0
M  V30 END ATOM
M  V30 BEGIN BOND
M  V30 1 1 1 2
M  V30 2 1 2 3
M  V30 3 2 3 4
M  V30 4 1 4 5
M  V30 5 2 5 6
M  V30 6 1 6 7
M  V30 7 2 7 8
M  V30 8 1 6 9
M  V30 9 1 9 10
M  V30 10 2 10 11
M  V30 11 1 10 12
M  V30 12 1 12 13
M  V30 13 1 13 14
M  V30 14 2 14 15
M  V30 15 1 15 16
M  V30 16 1 16 17
M  V30 17 1 15 18
M  V30 18 1 18 19
M  V30 19 2 19 20
M  V30 20 1 20 21
M  V30 21 2 21 22
M  V30 22 1 22 23
M  V30 23 2 18 24
M  V30 24 1 24 25
M  V30 25 2 25 26
M  V30 26 1 25 27
M  V30 27 1 24 28
M  V30 28 3 28 29
M  V30 29 1 8 3
M  V30 30 2 16 12
M  V30 31 1 23 19
M  V30 32 1 26 14
M  V30 33 1 1 30
M  V30 34 1 1 31
M  V30 35 1 1 32
M  V30 36 1 4 33
M  V30 37 1 5 34
M  V30 38 1 7 35
M  V30 39 1 8 36
M  V30 40 1 9 37
M  V30 41 1 17 38
M  V30 42 1 17 39
M  V30 43 1 20 40
M  V30 44 1 21 41
M  V30 45 1 22 42
M  V30 46 1 27 43
M  V30 47 1 27 44
M  V30 END BOND
M  V30 END CTAB
M  END
