
     RDKit          3D

  0  0  0  0  0  0  0  0  0  0999 V3000
M  V30 BEGIN CTAB
M  V30 COUNTS 82 81 0 0 0
M  V30 BEGIN ATOM
M  V30 1 C -0.987044 -2.38215 2.02485 0 CFG=1
M  V30 2 C -1.75818 -2.43401 3.34464 0
M  V30 3 C -1.31311 -3.67301 1.31367 0
M  V30 4 C -0.664645 -3.84551 -0.0132253 0
M  V30 5 C -1.44267 -1.15258 1.3001 0 CFG=2
M  V30 6 N -2.83254 -1.16669 1.01219 0
M  V30 7 C -3.63075 -0.0103914 1.07061 0
M  V30 8 O -2.98138 1.07907 1.32521 0
M  V30 9 C -5.07852 0.0131743 0.881327 0 CFG=2
M  V30 10 C -5.66256 -0.819163 -0.141316 0
M  V30 11 C -5.39333 -0.657328 -1.57896 0
M  V30 12 C -4.02697 -0.780912 -2.09964 0
M  V30 13 C -6.19759 -1.80047 -2.27593 0
M  V30 14 N -5.55872 1.40378 0.868544 0
M  V30 15 C -5.82927 2.12407 2.01699 0
M  V30 16 O -5.67017 1.61432 3.15277 0
M  V30 17 C -6.3164 3.53235 1.97481 0 CFG=1
M  V30 18 N -6.31012 4.16197 3.27323 0
M  V30 19 C -5.52285 4.36671 1.00961 0
M  V30 20 O -6.14043 5.62233 0.94587 0
M  V30 21 C -0.499819 -0.779957 0.242654 0
M  V30 22 O -0.729423 -0.517481 -0.950491 0
M  V30 23 N 0.891802 -0.694862 0.615985 0
M  V30 24 C 1.90727 -0.313144 -0.370932 0
M  V30 25 C 3.2096 -0.324955 0.316888 0
M  V30 26 O 3.30147 -0.671866 1.50292 0
M  V30 27 N 4.44262 0.0650733 -0.347331 0
M  V30 28 C 5.69308 0.036283 0.362161 0 CFG=1
M  V30 29 C 6.90963 -0.358208 -0.358188 0
M  V30 30 C 7.44699 0.431699 -1.46535 0
M  V30 31 C 6.62393 0.686792 -2.6901 0
M  V30 32 N 7.48396 1.44699 -3.6186 0
M  V30 33 C 8.61549 0.796121 -4.17205 0
M  V30 34 N 9.88322 1.01397 -3.61369 0
M  V30 35 N 8.42047 0.0230137 -5.17911 0
M  V30 36 C 5.91004 1.42452 0.994277 0
M  V30 37 O 7.02645 1.68423 1.75528 0
M  V30 38 O 5.06243 2.31576 0.811661 0
M  V30 39 H 0.0714739 -2.33034 2.24885 0
M  V30 40 H -2.81826 -2.68292 3.10327 0
M  V30 41 H -1.37264 -3.26813 3.96529 0
M  V30 42 H -1.75142 -1.45496 3.85756 0
M  V30 43 H -0.906944 -4.48768 1.98438 0
M  V30 44 H -2.38616 -3.85245 1.22636 0
M  V30 45 H 0.409586 -3.6193 -0.06487 0
M  V30 46 H -0.753845 -4.95042 -0.273786 0
M  V30 47 H -1.19347 -3.33342 -0.851239 0
M  V30 48 H -1.26219 -0.290559 2.07268 0
M  V30 49 H -3.29498 -2.06576 0.748482 0
M  V30 50 H -5.47428 -0.35367 1.89979 0
M  V30 51 H -6.81815 -0.804275 -0.0552386 0
M  V30 52 H -5.47575 -1.9167 0.103711 0
M  V30 53 H -5.91342 0.264194 -2.01015 0
M  V30 54 H -3.35226 0.0692351 -1.86546 0
M  V30 55 H -3.4917 -1.70494 -1.86631 0
M  V30 56 H -4.09852 -0.740943 -3.23541 0
M  V30 57 H -7.24885 -1.7821 -1.98425 0
M  V30 58 H -5.74251 -2.73293 -1.85786 0
M  V30 59 H -5.97899 -1.79171 -3.34694 0
M  V30 60 H -5.68876 1.82532 -0.0764663 0
M  V30 61 H -7.38886 3.53441 1.62442 0
M  V30 62 H -5.78519 3.58138 3.94059 0
M  V30 63 H -5.91308 5.14194 3.1666 0
M  V30 64 H -4.49266 4.51616 1.36877 0
M  V30 65 H -5.56195 3.96279 -0.0352643 0
M  V30 66 H -6.96147 5.66987 1.46705 0
M  V30 67 H 1.15656 -0.897278 1.59041 0
M  V30 68 H 1.92509 -1.0438 -1.21313 0
M  V30 69 H 1.70052 0.686566 -0.800924 0
M  V30 70 H 4.29481 0.341695 -1.32314 0
M  V30 71 H 5.54417 -0.647684 1.24958 0
M  V30 72 H 6.8138 -1.42791 -0.735262 0
M  V30 73 H 7.7531 -0.45049 0.408959 0
M  V30 74 H 8.35753 -0.142965 -1.86055 0
M  V30 75 H 7.95149 1.38804 -1.11837 0
M  V30 76 H 6.25553 -0.213229 -3.17153 0
M  V30 77 H 5.76744 1.37527 -2.46596 0
M  V30 78 H 7.235 2.42799 -3.83609 0
M  V30 79 H 10.6903 0.388846 -3.81146 0
M  V30 80 H 10.0377 1.82342 -2.98115 0
M  V30 81 H 9.26655 -0.459685 -5.58598 0
M  V30 82 H 7.61365 0.98959 2.19895 0
M  V30 END ATOM
M  V30 BEGIN BOND
M  V30 1 1 1 2
M  V30 2 1 1 3
M  V30 3 1 3 4
M  V30 4 1 1 5
M  V30 5 1 5 6
M  V30 6 1 6 7
M  V30 7 2 7 8
M  V30 8 1 7 9
M  V30 9 1 9 10
M  V30 10 1 10 11
M  V30 11 1 11 12
M  V30 12 1 11 13
M  V30 13 1 9 14
M  V30 14 1 14 15
M  V30 15 2 15 16
M  V30 16 1 15 17
M  V30 17 1 17 18
M  V30 18 1 17 19
M  V30 19 1 19 20
M  V30 20 1 5 21
M  V30 21 2 21 22
M  V30 22 1 21 23
M  V30 23 1 23 24
M  V30 24 1 24 25
M  V30 25 2 25 26
M  V30 26 1 25 27
M  V30 27 1 27 28
M  V30 28 1 28 29
M  V30 29 1 29 30
M  V30 30 1 30 31
M  V30 31 1 31 32
M  V30 32 1 32 33
M  V30 33 1 33 34
M  V30 34 2 33 35 CFG=2
M  V30 35 1 28 36
M  V30 36 1 36 37
M  V30 37 2 36 38
M  V30 38 1 1 39 CFG=1
M  V30 39 1 2 40
M  V30 40 1 2 41
M  V30 41 1 2 42
M  V30 42 1 3 43
M  V30 43 1 3 44
M  V30 44 1 4 45
M  V30 45 1 4 46
M  V30 46 1 4 47
M  V30 47 1 5 48 CFG=1
M  V30 48 1 6 49
M  V30 49 1 9 50 CFG=1
M  V30 50 1 10 51
M  V30 51 1 10 52
M  V30 52 1 11 53
M  V30 53 1 12 54
M  V30 54 1 12 55
M  V30 55 1 12 56
M  V30 56 1 13 57
M  V30 57 1 13 58
M  V30 58 1 13 59
M  V30 59 1 14 60
M  V30 60 1 17 61 CFG=3
M  V30 61 1 18 62
M  V30 62 1 18 63
M  V30 63 1 19 64
M  V30 64 1 19 65
M  V30 65 1 20 66
M  V30 66 1 23 67
M  V30 67 1 24 68
M  V30 68 1 24 69
M  V30 69 1 27 70
M  V30 70 1 28 71 CFG=1
M  V30 71 1 29 72
M  V30 72 1 29 73
M  V30 73 1 30 74
M  V30 74 1 30 75
M  V30 75 1 31 76
M  V30 76 1 31 77
M  V30 77 1 32 78
M  V30 78 1 34 79
M  V30 79 1 34 80
M  V30 80 1 35 81
M  V30 81 1 37 82
M  V30 END BOND
M  V30 END CTAB
M  END
