
     RDKit          3D

  0  0  0  0  0  0  0  0  0  0999 V3000
M  V30 BEGIN CTAB
M  V30 COUNTS 32 32 0 0 0
M  V30 BEGIN ATOM
M  V30 1 C 4.35819 0.695099 0.988009 0
M  V30 2 C 3.35774 0.0217406 0.0867044 0
M  V30 3 C 3.76324 -0.382999 -1.1689 0
M  V30 4 C 2.84415 -1.0087 -2.01389 0
M  V30 5 C 1.54562 -1.21931 -1.59699 0
M  V30 6 C 1.19054 -0.794394 -0.328873 0
M  V30 7 C 2.057 -0.177745 0.531783 0
M  V30 8 N 1.71216 0.265395 1.83627 0
M  V30 9 S -0.482069 -1.07164 0.194004 0
M  V30 10 C -1.48401 0.341977 -0.261976 0
M  V30 11 C -2.93085 0.187643 0.148698 0
M  V30 12 N -3.10154 0.0280105 1.55687 0
M  V30 13 C -3.58289 -0.981487 -0.554079 0
M  V30 14 C -3.64153 1.48047 -0.258557 0
M  V30 15 H 5.03399 -0.0620313 1.43448 0
M  V30 16 H 3.8201 1.17417 1.8257 0
M  V30 17 H 4.96098 1.41181 0.389374 0
M  V30 18 H 4.77962 -0.23518 -1.53599 0
M  V30 19 H 3.16033 -1.31923 -2.98085 0
M  V30 20 H 0.818238 -1.71204 -2.25985 0
M  V30 21 H 1.4574 1.28955 1.92503 0
M  V30 22 H 1.70025 -0.349302 2.6725 0
M  V30 23 H -1.04951 1.27471 0.144796 0
M  V30 24 H -1.4473 0.440951 -1.37044 0
M  V30 25 H -3.93544 -0.537495 1.81916 0
M  V30 26 H -2.2425 -0.228312 2.07395 0
M  V30 27 H -4.59881 -0.679357 -0.929546 0
M  V30 28 H -2.9666 -1.35718 -1.3952 0
M  V30 29 H -3.72383 -1.84924 0.130028 0
M  V30 30 H -3.54933 2.18759 0.575039 0
M  V30 31 H -4.7053 1.26635 -0.531963 0
M  V30 32 H -3.11806 1.90019 -1.14529 0
M  V30 END ATOM
M  V30 BEGIN BOND
M  V30 1 1 1 2
M  V30 2 2 2 3
M  V30 3 1 3 4
M  V30 4 2 4 5
M  V30 5 1 5 6
M  V30 6 2 6 7
M  V30 7 1 7 8
M  V30 8 1 6 9
M  V30 9 1 9 10
M  V30 10 1 10 11
M  V30 11 1 11 12
M  V30 12 1 11 13
M  V30 13 1 11 14
M  V30 14 1 7 2
M  V30 15 1 1 15
M  V30 16 1 1 16
M  V30 17 1 1 17
M  V30 18 1 3 18
M  V30 19 1 4 19
M  V30 20 1 5 20
M  V30 21 1 8 21
M  V30 22 1 8 22
M  V30 23 1 10 23
M  V30 24 1 10 24
M  V30 25 1 12 25
M  V30 26 1 12 26
M  V30 27 1 13 27
M  V30 28 1 13 28
M  V30 29 1 13 29
M  V30 30 1 14 30
M  V30 31 1 14 31
M  V30 32 1 14 32
M  V30 END BOND
M  V30 END CTAB
M  END
