
     RDKit          3D

  0  0  0  0  0  0  0  0  0  0999 V3000
M  V30 BEGIN CTAB
M  V30 COUNTS 20 20 0 0 0
M  V30 BEGIN ATOM
M  V30 1 N -1.30285 -3.61247 -0.314787 0
M  V30 2 C -0.805661 -2.57899 -0.211767 0
M  V30 3 C -0.159379 -1.27943 -0.0938823 0
M  V30 4 C 1.2158 -1.196 -0.0387667 0
M  V30 5 C 1.86088 0.0286481 0.0736139 0
M  V30 6 N 3.26556 0.0783253 0.127346 0
M  V30 7 C 1.05806 1.14992 0.126828 0
M  V30 8 C -0.317273 1.10278 0.0743569 0
M  V30 9 C -0.917212 -0.12334 -0.0365181 0
M  V30 10 C -2.38927 -0.285479 -0.100805 0
M  V30 11 F -2.76297 -1.07607 0.988 0
M  V30 12 F -3.06633 0.89677 -0.142577 0
M  V30 13 F -2.69602 -1.04087 -1.22706 0
M  V30 14 N -1.11774 2.27182 0.131152 0
M  V30 15 H 1.8224 -2.1098 -0.0838468 0
M  V30 16 H 3.81525 0.375994 -0.702127 0
M  V30 17 H 3.78845 -0.178593 0.989222 0
M  V30 18 H 1.53477 2.12926 0.215308 0
M  V30 19 H -1.19503 2.84304 -0.738938 0
M  V30 20 H -1.63145 2.6045 0.965252 0
M  V30 END ATOM
M  V30 BEGIN BOND
M  V30 1 3 1 2
M  V30 2 1 2 3
M  V30 3 2 3 4
M  V30 4 1 4 5
M  V30 5 1 5 6
M  V30 6 2 5 7
M  V30 7 1 7 8
M  V30 8 2 8 9
M  V30 9 1 9 10
M  V30 10 1 10 11
M  V30 11 1 10 12
M  V30 12 1 10 13
M  V30 13 1 8 14
M  V30 14 1 9 3
M  V30 15 1 4 15
M  V30 16 1 6 16
M  V30 17 1 6 17
M  V30 18 1 7 18
M  V30 19 1 14 19
M  V30 20 1 14 20
M  V30 END BOND
M  V30 END CTAB
M  END
