
     RDKit          3D

  0  0  0  0  0  0  0  0  0  0999 V3000
M  V30 BEGIN CTAB
M  V30 COUNTS 19 19 0 0 0
M  V30 BEGIN ATOM
M  V30 1 O -1.84866 1.51305 -0.434234 0
M  V30 2 C -2.17401 0.525494 0.478599 0
M  V30 3 C -1.397 -0.760112 0.172097 0
M  V30 4 C 0.0388493 -0.504982 0.342698 0
M  V30 5 N 0.782623 -0.919091 1.38041 0
M  V30 6 N 2.01618 -0.496411 1.17309 0
M  V30 7 C 2.10175 0.18449 0.0262103 0
M  V30 8 N 0.861221 0.182122 -0.499982 0
M  V30 9 N 3.27754 0.787309 -0.518916 0
M  V30 10 N -1.75062 -1.17528 -1.13582 0
M  V30 11 H -1.36871 2.27926 -0.017783 0
M  V30 12 H -1.91284 0.78995 1.52049 0
M  V30 13 H -3.24831 0.244225 0.369798 0
M  V30 14 H -1.74358 -1.51184 0.894971 0
M  V30 15 H 2.86121 -0.648148 1.7981 0
M  V30 16 H 3.41528 1.82071 -0.570652 0
M  V30 17 H 4.07162 0.200361 -0.899578 0
M  V30 18 H -2.3329 -1.98872 -1.23826 0
M  V30 19 H -1.64963 -0.522384 -1.89209 0
M  V30 END ATOM
M  V30 BEGIN BOND
M  V30 1 1 1 2
M  V30 2 1 2 3
M  V30 3 1 3 4
M  V30 4 2 4 5
M  V30 5 1 5 6
M  V30 6 1 6 7
M  V30 7 2 7 8
M  V30 8 1 7 9
M  V30 9 1 3 10
M  V30 10 1 8 4
M  V30 11 1 1 11
M  V30 12 1 2 12
M  V30 13 1 2 13
M  V30 14 1 3 14
M  V30 15 1 6 15
M  V30 16 1 9 16
M  V30 17 1 9 17
M  V30 18 1 10 18
M  V30 19 1 10 19
M  V30 END BOND
M  V30 END CTAB
M  END
