
     RDKit          3D

  0  0  0  0  0  0  0  0  0  0999 V3000
M  V30 BEGIN CTAB
M  V30 COUNTS 23 22 0 0 0
M  V30 BEGIN ATOM
M  V30 1 C -3.20443 0.506243 0.829973 0
M  V30 2 C -2.11558 -0.152058 -0.00587107 0
M  V30 3 C -0.835716 0.532161 0.334605 0
M  V30 4 C 0.365263 0.00192803 -0.362173 0
M  V30 5 N 1.53037 0.749503 0.101076 0
M  V30 6 S 2.90755 -0.233517 -0.192981 0
M  V30 7 O 2.80984 -0.765138 -1.585 0
M  V30 8 O 2.89155 -1.39673 0.803945 0
M  V30 9 N 4.34976 0.684886 -0.00478903 0
M  V30 10 N -2.04299 -1.52329 0.411863 0
M  V30 11 H -3.3074 1.56116 0.5302 0
M  V30 12 H -4.15203 -0.0695964 0.805101 0
M  V30 13 H -2.77712 0.52375 1.8775 0
M  V30 14 H -2.34791 -0.00721531 -1.06808 0
M  V30 15 H -0.699209 0.53134 1.43926 0
M  V30 16 H -0.966452 1.61504 0.0501917 0
M  V30 17 H 0.247581 0.19371 -1.45947 0
M  V30 18 H 0.567123 -1.05047 -0.143443 0
M  V30 19 H 1.40055 0.980828 1.09996 0
M  V30 20 H 4.31697 1.33996 0.79706 0
M  V30 21 H 5.17961 0.0624349 -0.00202546 0
M  V30 22 H -1.19487 -2.02822 0.0970984 0
M  V30 23 H -2.92248 -2.0567 0.324767 0
M  V30 END ATOM
M  V30 BEGIN BOND
M  V30 1 1 1 2
M  V30 2 1 2 3
M  V30 3 1 3 4
M  V30 4 1 4 5
M  V30 5 1 5 6
M  V30 6 2 6 7
M  V30 7 2 6 8
M  V30 8 1 6 9
M  V30 9 1 2 10
M  V30 10 1 1 11
M  V30 11 1 1 12
M  V30 12 1 1 13
M  V30 13 1 2 14
M  V30 14 1 3 15
M  V30 15 1 3 16
M  V30 16 1 4 17
M  V30 17 1 4 18
M  V30 18 1 5 19
M  V30 19 1 9 20
M  V30 20 1 9 21
M  V30 21 1 10 22
M  V30 22 1 10 23
M  V30 END BOND
M  V30 END CTAB
M  END
