
     RDKit          3D

  0  0  0  0  0  0  0  0  0  0999 V3000
M  V30 BEGIN CTAB
M  V30 COUNTS 30 30 0 0 0
M  V30 BEGIN ATOM
M  V30 1 C -1.48865 -2.02378 0.556977 0
M  V30 2 C -1.36536 -0.64646 1.10375 0
M  V30 3 N -0.444468 0.188627 0.367819 0
M  V30 4 C 0.935573 -0.132388 0.221921 0
M  V30 5 N 1.49355 -1.23238 0.753359 0
M  V30 6 C 2.81969 -1.50436 0.590953 0
M  V30 7 C 3.65536 -0.670482 -0.123156 0
M  V30 8 C 3.09967 0.464942 -0.676724 0
M  V30 9 C 1.73621 0.723988 -0.497217 0
M  V30 10 N 1.17099 1.88564 -1.06438 0
M  V30 11 N 3.92472 1.35294 -1.42111 0
M  V30 12 C -2.66244 0.0695916 1.26399 0
M  V30 13 C -3.41762 0.238707 -0.0206441 0
M  V30 14 O -4.6064 0.919637 0.263241 0
M  V30 15 H -1.20085 -2.1088 -0.51228 0
M  V30 16 H -2.54118 -2.4047 0.670738 0
M  V30 17 H -0.846082 -2.74357 1.10384 0
M  V30 18 H -0.918994 -0.741397 2.13775 0
M  V30 19 H -0.816574 1.05576 -0.068952 0
M  V30 20 H 3.27879 -2.39016 1.01649 0
M  V30 21 H 4.72012 -0.916883 -0.236499 0
M  V30 22 H 1.04336 2.78458 -0.552933 0
M  V30 23 H 0.864709 1.82458 -2.06543 0
M  V30 24 H 4.54234 2.01594 -0.883529 0
M  V30 25 H 3.90841 1.33707 -2.46208 0
M  V30 26 H -3.35235 -0.475761 1.96932 0
M  V30 27 H -2.54066 1.07629 1.71156 0
M  V30 28 H -3.70618 -0.726821 -0.488361 0
M  V30 29 H -2.82303 0.886752 -0.684261 0
M  V30 30 H -4.46266 1.89289 0.35176 0
M  V30 END ATOM
M  V30 BEGIN BOND
M  V30 1 1 1 2
M  V30 2 1 2 3
M  V30 3 1 3 4
M  V30 4 2 4 5
M  V30 5 1 5 6
M  V30 6 2 6 7
M  V30 7 1 7 8
M  V30 8 2 8 9
M  V30 9 1 9 10
M  V30 10 1 8 11
M  V30 11 1 2 12
M  V30 12 1 12 13
M  V30 13 1 13 14
M  V30 14 1 9 4
M  V30 15 1 1 15
M  V30 16 1 1 16
M  V30 17 1 1 17
M  V30 18 1 2 18
M  V30 19 1 3 19
M  V30 20 1 6 20
M  V30 21 1 7 21
M  V30 22 1 10 22
M  V30 23 1 10 23
M  V30 24 1 11 24
M  V30 25 1 11 25
M  V30 26 1 12 26
M  V30 27 1 12 27
M  V30 28 1 13 28
M  V30 29 1 13 29
M  V30 30 1 14 30
M  V30 END BOND
M  V30 END CTAB
M  END
