
     RDKit          3D

  0  0  0  0  0  0  0  0  0  0999 V3000
M  V30 BEGIN CTAB
M  V30 COUNTS 23 23 0 0 0
M  V30 BEGIN ATOM
M  V30 1 N -4.92868 0.726943 0.342031 0
M  V30 2 N -3.97375 0.145228 -0.423497 0
M  V30 3 C -3.02999 -0.439578 -1.19025 0
M  V30 4 O -3.22264 -1.31717 -2.07828 0
M  V30 5 C -1.55011 -0.0971632 -1.06486 0
M  V30 6 S -0.848607 -0.800357 0.440433 0
M  V30 7 C 0.915088 -0.471357 0.369412 0
M  V30 8 C 1.47234 0.688435 0.846088 0
M  V30 9 C 2.82641 0.843367 0.739978 0
M  V30 10 C 3.61969 -0.146964 0.164186 0
M  V30 11 N 3.03946 -1.29178 -0.309284 0
M  V30 12 C 1.71844 -1.43306 -0.19929 0
M  V30 13 N 5.01912 0.0500344 0.106551 0
M  V30 14 H -5.52946 1.42025 -0.151277 0
M  V30 15 H -4.55346 1.10346 1.21088 0
M  V30 16 H -4.99534 -0.637577 -0.918616 0
M  V30 17 H -1.01222 -0.453367 -1.98775 0
M  V30 18 H -1.41157 0.990833 -1.00405 0
M  V30 19 H 0.862497 1.50272 1.28499 0
M  V30 20 H 3.30599 1.75265 1.09896 0
M  V30 21 H 1.2643 -2.36691 -0.561799 0
M  V30 22 H 5.43434 0.166626 -0.821414 0
M  V30 23 H 5.57813 0.0647334 0.991632 0
M  V30 END ATOM
M  V30 BEGIN BOND
M  V30 1 1 1 2
M  V30 2 1 2 3
M  V30 3 2 3 4
M  V30 4 1 3 5
M  V30 5 1 5 6
M  V30 6 1 6 7
M  V30 7 2 7 8
M  V30 8 1 8 9
M  V30 9 2 9 10
M  V30 10 1 10 11
M  V30 11 2 11 12
M  V30 12 1 10 13
M  V30 13 1 12 7
M  V30 14 1 1 14
M  V30 15 1 1 15
M  V30 16 1 2 16
M  V30 17 1 5 17
M  V30 18 1 5 18
M  V30 19 1 8 19
M  V30 20 1 9 20
M  V30 21 1 12 21
M  V30 22 1 13 22
M  V30 23 1 13 23
M  V30 END BOND
M  V30 END CTAB
M  END
