
     RDKit          3D

  0  0  0  0  0  0  0  0  0  0999 V3000
M  V30 BEGIN CTAB
M  V30 COUNTS 25 25 0 0 0
M  V30 BEGIN ATOM
M  V30 1 C 4.10852 1.07973 0.269104 0
M  V30 2 C 3.5732 -0.219962 -0.236122 0
M  V30 3 C 2.09107 -0.218225 -0.476369 0
M  V30 4 S 1.14185 0.137483 1.00765 0
M  V30 5 C -0.596238 0.109726 0.590363 0
M  V30 6 N -1.27523 1.17984 0.176241 0
M  V30 7 C -2.57572 1.18302 -0.141501 0
M  V30 8 N -3.23976 2.3666 -0.57838 0
M  V30 9 C -3.27474 -0.00147015 -0.0367033 0
M  V30 10 C -2.59563 -1.12313 0.389421 0
M  V30 11 N -1.28632 -1.05323 0.69233 0
M  V30 12 N -3.29905 -2.37196 0.508108 0
M  V30 13 C 1.71838 -1.55159 -0.951236 0
M  V30 14 N 1.41063 -2.61034 -1.34611 0
M  V30 15 H 3.44265 1.93688 0.138241 0
M  V30 16 H 4.32322 1.01194 1.37269 0
M  V30 17 H 5.10327 1.2701 -0.225095 0
M  V30 18 H 3.77621 -1.01149 0.524936 0
M  V30 19 H 4.05976 -0.569134 -1.16864 0
M  V30 20 H 1.7925 0.523217 -1.25561 0
M  V30 21 H -2.73403 3.04224 -1.17941 0
M  V30 22 H -4.2341 2.58044 -0.3098 0
M  V30 23 H -4.33711 -0.0488442 -0.284649 0
M  V30 24 H -3.43674 -2.91149 -0.370708 0
M  V30 25 H -3.65663 -2.73037 1.41359 0
M  V30 END ATOM
M  V30 BEGIN BOND
M  V30 1 1 1 2
M  V30 2 1 2 3
M  V30 3 1 3 4
M  V30 4 1 4 5
M  V30 5 2 5 6
M  V30 6 1 6 7
M  V30 7 1 7 8
M  V30 8 2 7 9
M  V30 9 1 9 10
M  V30 10 2 10 11
M  V30 11 1 10 12
M  V30 12 1 3 13
M  V30 13 3 13 14
M  V30 14 1 11 5
M  V30 15 1 1 15
M  V30 16 1 1 16
M  V30 17 1 1 17
M  V30 18 1 2 18
M  V30 19 1 2 19
M  V30 20 1 3 20
M  V30 21 1 8 21
M  V30 22 1 8 22
M  V30 23 1 9 23
M  V30 24 1 12 24
M  V30 25 1 12 25
M  V30 END BOND
M  V30 END CTAB
M  END
