
     RDKit          3D

  0  0  0  0  0  0  0  0  0  0999 V3000
M  V30 BEGIN CTAB
M  V30 COUNTS 33 34 0 0 0
M  V30 BEGIN ATOM
M  V30 1 N 5.9221 -1.17966 0.585478 0
M  V30 2 C 4.61502 -0.662225 0.460282 0
M  V30 3 C 3.95899 -0.807996 -0.748678 0
M  V30 4 C 2.69001 -0.322058 -0.916588 0
M  V30 5 C 2.01381 0.329621 0.104065 0
M  V30 6 C 2.6672 0.474495 1.30729 0
M  V30 7 C 3.94849 -0.0128512 1.48616 0
M  V30 8 C 0.661563 0.812132 -0.174731 0
M  V30 9 O -0.348612 -0.0974354 0.104304 0
M  V30 10 C -1.66916 0.238085 -0.115923 0
M  V30 11 C -1.96547 1.48395 -0.614524 0
M  V30 12 C -3.28448 1.88321 -0.859104 0
M  V30 13 C -4.31261 1.0135 -0.596604 0
M  V30 14 C -4.01432 -0.234966 -0.0968692 0
M  V30 15 C -2.7133 -0.62973 0.144745 0
M  V30 16 C -2.4206 -1.96687 0.678123 0
M  V30 17 O -3.38173 -2.74372 0.909658 0
M  V30 18 O -1.11886 -2.35069 0.915576 0
M  V30 19 N -5.66725 1.4134 -0.843916 0
M  V30 20 H 6.0895 -2.1804 0.285611 0
M  V30 21 H 6.73747 -0.650354 0.951638 0
M  V30 22 H 4.44386 -1.30844 -1.57427 0
M  V30 23 H 2.21504 -0.46309 -1.89221 0
M  V30 24 H 2.15319 0.976626 2.10226 0
M  V30 25 H 4.48443 0.0902621 2.42865 0
M  V30 26 H 0.505795 1.76421 0.406666 0
M  V30 27 H 0.566156 1.12309 -1.24683 0
M  V30 28 H -1.21594 2.22796 -0.848086 0
M  V30 29 H -3.49937 2.88138 -1.25702 0
M  V30 30 H -4.82151 -0.925777 0.112288 0
M  V30 31 H -0.919478 -3.29157 1.19788 0
M  V30 32 H -5.98292 1.64015 -1.81386 0
M  V30 33 H -6.33702 1.47574 -0.0414338 0
M  V30 END ATOM
M  V30 BEGIN BOND
M  V30 1 1 1 2
M  V30 2 2 2 3
M  V30 3 1 3 4
M  V30 4 2 4 5
M  V30 5 1 5 6
M  V30 6 2 6 7
M  V30 7 1 5 8
M  V30 8 1 8 9
M  V30 9 1 9 10
M  V30 10 2 10 11
M  V30 11 1 11 12
M  V30 12 2 12 13
M  V30 13 1 13 14
M  V30 14 2 14 15
M  V30 15 1 15 16
M  V30 16 2 16 17
M  V30 17 1 16 18
M  V30 18 1 13 19
M  V30 19 1 7 2
M  V30 20 1 15 10
M  V30 21 1 1 20
M  V30 22 1 1 21
M  V30 23 1 3 22
M  V30 24 1 4 23
M  V30 25 1 6 24
M  V30 26 1 7 25
M  V30 27 1 8 26
M  V30 28 1 8 27
M  V30 29 1 11 28
M  V30 30 1 12 29
M  V30 31 1 14 30
M  V30 32 1 18 31
M  V30 33 1 19 32
M  V30 34 1 19 33
M  V30 END BOND
M  V30 END CTAB
M  END
