
     RDKit          3D

  0  0  0  0  0  0  0  0  0  0999 V3000
M  V30 BEGIN CTAB
M  V30 COUNTS 43 45 0 0 0
M  V30 BEGIN ATOM
M  V30 1 C 8.09738 -0.624167 0.258151 0
M  V30 2 S 7.15576 -0.348914 -1.2646 0
M  V30 3 C 5.40521 -0.279043 -0.931793 0
M  V30 4 N 4.58266 -0.0783034 -1.9772 0
M  V30 5 C 3.23769 -0.00728514 -1.8454 0
M  V30 6 C 2.74198 -0.154985 -0.552245 0
M  V30 7 C 1.37375 -0.0967262 -0.317745 0
M  V30 8 C 0.539683 0.109187 -1.3944 0
M  V30 9 C -0.900021 0.175852 -1.18574 0
M  V30 10 O -1.63431 0.36707 -2.2046 0
M  V30 11 N -1.53965 0.0443008 0.0605269 0
M  V30 12 C -2.96017 0.125492 0.156298 0
M  V30 13 C -3.59708 -1.13755 0.70513 0
M  V30 14 C -4.87572 -0.827261 1.43455 0
M  V30 15 C -5.64425 0.314945 0.823347 0
M  V30 16 C -4.83174 1.56588 0.671873 0
M  V30 17 C -3.40133 1.25193 1.10256 0
M  V30 18 C 1.08813 0.248232 -2.65074 0
M  V30 19 N 0.163101 0.460674 -3.73079 0
M  V30 20 N 2.4207 0.19203 -2.88296 0
M  V30 21 C 3.56922 -0.360451 0.524749 0
M  V30 22 N 3.00065 -0.501056 1.80167 0
M  V30 23 N 4.91523 -0.420604 0.314682 0
M  V30 24 H 7.42993 -0.48427 1.13824 0
M  V30 25 H 8.85652 0.188052 0.322612 0
M  V30 26 H 8.62629 -1.58425 0.266582 0
M  V30 27 H 0.986891 -0.21257 0.695622 0
M  V30 28 H -1.00338 -0.116253 0.954002 0
M  V30 29 H -3.4079 0.294562 -0.839743 0
M  V30 30 H -2.88682 -1.55095 1.45108 0
M  V30 31 H -3.71545 -1.9125 -0.0800491 0
M  V30 32 H -4.74012 -0.665251 2.50606 0
M  V30 33 H -5.5333 -1.73699 1.32395 0
M  V30 34 H -6.48305 0.545248 1.52015 0
M  V30 35 H -6.11802 -0.00719327 -0.128359 0
M  V30 36 H -5.24672 2.43476 1.21312 0
M  V30 37 H -4.75879 1.76777 -0.437206 0
M  V30 38 H -3.39168 0.84588 2.13298 0
M  V30 39 H -2.73577 2.13289 0.987302 0
M  V30 40 H -0.172501 1.4373 -3.87591 0
M  V30 41 H -0.180165 -0.275846 -4.35523 0
M  V30 42 H 2.3013 -1.2486 1.97273 0
M  V30 43 H 3.26586 0.128959 2.5808 0
M  V30 END ATOM
M  V30 BEGIN BOND
M  V30 1 1 1 2
M  V30 2 1 2 3
M  V30 3 2 3 4
M  V30 4 1 4 5
M  V30 5 2 5 6
M  V30 6 1 6 7
M  V30 7 2 7 8
M  V30 8 1 8 9
M  V30 9 2 9 10
M  V30 10 1 9 11
M  V30 11 1 11 12
M  V30 12 1 12 13
M  V30 13 1 13 14
M  V30 14 1 14 15
M  V30 15 1 15 16
M  V30 16 1 16 17
M  V30 17 1 8 18
M  V30 18 1 18 19
M  V30 19 2 18 20
M  V30 20 1 6 21
M  V30 21 1 21 22
M  V30 22 2 21 23
M  V30 23 1 23 3
M  V30 24 1 20 5
M  V30 25 1 17 12
M  V30 26 1 1 24
M  V30 27 1 1 25
M  V30 28 1 1 26
M  V30 29 1 7 27
M  V30 30 1 11 28
M  V30 31 1 12 29
M  V30 32 1 13 30
M  V30 33 1 13 31
M  V30 34 1 14 32
M  V30 35 1 14 33
M  V30 36 1 15 34
M  V30 37 1 15 35
M  V30 38 1 16 36
M  V30 39 1 16 37
M  V30 40 1 17 38
M  V30 41 1 17 39
M  V30 42 1 19 40
M  V30 43 1 19 41
M  V30 44 1 22 42
M  V30 45 1 22 43
M  V30 END BOND
M  V30 END CTAB
M  END
