
     RDKit          3D

  0  0  0  0  0  0  0  0  0  0999 V3000
M  V30 BEGIN CTAB
M  V30 COUNTS 25 25 0 0 0
M  V30 BEGIN ATOM
M  V30 1 N 3.48846 -0.25555 -0.362855 0
M  V30 2 C 2.40854 -1.14078 -0.327348 0
M  V30 3 N 2.6746 -2.52592 -0.478979 0
M  V30 4 N 1.17996 -0.804387 -0.167212 0
M  V30 5 C 0.729148 0.523851 -0.00107537 0
M  V30 6 N 1.6057 1.54687 -0.00281413 0
M  V30 7 C 1.22445 2.82506 0.151503 0
M  V30 8 C -0.120881 3.0772 0.316567 0
M  V30 9 Cl -0.690851 4.72914 0.524186 0
M  V30 10 C -1.03394 2.02777 0.319821 0
M  V30 11 C -0.635953 0.720565 0.161142 0
M  V30 12 C -1.53753 -0.41815 0.15522 0
M  V30 13 C -2.84367 -0.335624 0.300969 0
M  V30 14 C -3.69657 -1.54438 0.283648 0
M  V30 15 O -3.13562 -2.80059 0.112279 0
M  V30 16 O -4.93111 -1.4578 0.422181 0
M  V30 17 H 3.72468 0.227398 -1.25134 0
M  V30 18 H 4.07437 -0.0552574 0.470216 0
M  V30 19 H 3.33867 -2.81625 -1.21812 0
M  V30 20 H 2.2348 -3.24791 0.114682 0
M  V30 21 H 1.92669 3.66154 0.151621 0
M  V30 22 H -2.07811 2.26426 0.45157 0
M  V30 23 H -1.13746 -1.41825 0.0237425 0
M  V30 24 H -3.27049 0.642975 0.433375 0
M  V30 25 H -3.49788 -3.42578 -0.582981 0
M  V30 END ATOM
M  V30 BEGIN BOND
M  V30 1 1 1 2
M  V30 2 1 2 3
M  V30 3 2 2 4
M  V30 4 1 4 5
M  V30 5 2 5 6
M  V30 6 1 6 7
M  V30 7 2 7 8
M  V30 8 1 8 9
M  V30 9 1 8 10
M  V30 10 2 10 11
M  V30 11 1 11 12
M  V30 12 2 12 13
M  V30 13 1 13 14
M  V30 14 1 14 15
M  V30 15 2 14 16
M  V30 16 1 11 5
M  V30 17 1 1 17
M  V30 18 1 1 18
M  V30 19 1 3 19
M  V30 20 1 3 20
M  V30 21 1 7 21
M  V30 22 1 10 22
M  V30 23 1 12 23
M  V30 24 1 13 24
M  V30 25 1 15 25
M  V30 END BOND
M  V30 END CTAB
M  END
