
     RDKit          3D

  0  0  0  0  0  0  0  0  0  0999 V3000
M  V30 BEGIN CTAB
M  V30 COUNTS 47 49 0 0 0
M  V30 BEGIN ATOM
M  V30 1 C 5.56596 0.976094 1.52664 0
M  V30 2 O 5.13794 1.54917 0.368682 0
M  V30 3 C 5.26131 0.730332 -0.734378 0
M  V30 4 C 4.43563 -0.51152 -0.530627 0
M  V30 5 N 3.04776 -0.133321 -0.349441 0
M  V30 6 C 2.03503 -1.09014 -0.13655 0
M  V30 7 O 2.42572 -2.31489 -0.114359 0
M  V30 8 C 0.628957 -0.823122 0.054611 0
M  V30 9 C -0.320063 -1.81633 0.260461 0
M  V30 10 N -0.0979751 -3.23347 0.32034 0
M  V30 11 N -1.50305 -1.19778 0.395478 0
M  V30 12 C -1.36979 0.125561 0.289045 0
M  V30 13 C -0.0117902 0.39441 0.0699486 0
M  V30 14 N 0.425872 1.65513 -0.0775665 0
M  V30 15 C -0.452528 2.67033 -0.0137338 0
M  V30 16 C -0.0394601 3.98831 -0.161352 0
M  V30 17 C -0.922568 5.0365 -0.0989854 0
M  V30 18 C -2.26969 4.80427 0.116099 0
M  V30 19 C -2.71238 3.50648 0.266792 0
M  V30 20 C -1.80238 2.46171 0.200211 0
M  V30 21 N -2.20269 1.18927 0.34295 0
M  V30 22 C -2.75197 -1.89133 0.626141 0
M  V30 23 C -3.44794 -2.25421 -0.667463 0
M  V30 24 C -4.73663 -2.97213 -0.292144 0
M  V30 25 N -5.45588 -3.34931 -1.49623 0
M  V30 26 H 5.03639 0.0709011 1.8285 0
M  V30 27 H 6.6522 0.749373 1.43802 0
M  V30 28 H 5.5093 1.74427 2.34073 0
M  V30 29 H 6.31852 0.433791 -0.932967 0
M  V30 30 H 4.83995 1.2947 -1.59673 0
M  V30 31 H 4.55444 -1.12301 -1.4687 0
M  V30 32 H 4.78825 -1.15926 0.289416 0
M  V30 33 H 2.7974 0.867516 -0.377778 0
M  V30 34 H -0.383021 -3.80747 1.13444 0
M  V30 35 H 0.36829 -3.66782 -0.500006 0
M  V30 36 H 1.01992 4.14904 -0.329061 0
M  V30 37 H -0.571038 6.05151 -0.217619 0
M  V30 38 H -2.91741 5.66364 0.155905 0
M  V30 39 H -3.76821 3.34167 0.434246 0
M  V30 40 H -3.43049 -1.2607 1.22909 0
M  V30 41 H -2.59134 -2.87099 1.1628 0
M  V30 42 H -3.70125 -1.32935 -1.19448 0
M  V30 43 H -2.80987 -2.93034 -1.23788 0
M  V30 44 H -5.37935 -2.32439 0.340142 0
M  V30 45 H -4.53981 -3.88727 0.293483 0
M  V30 46 H -4.83539 -3.18324 -2.3169 0
M  V30 47 H -5.82489 -4.32261 -1.45539 0
M  V30 END ATOM
M  V30 BEGIN BOND
M  V30 1 1 1 2
M  V30 2 1 2 3
M  V30 3 1 3 4
M  V30 4 1 4 5
M  V30 5 1 5 6
M  V30 6 2 6 7
M  V30 7 1 6 8
M  V30 8 2 8 9
M  V30 9 1 9 10
M  V30 10 1 9 11
M  V30 11 1 11 12
M  V30 12 2 12 13
M  V30 13 1 13 14
M  V30 14 2 14 15
M  V30 15 1 15 16
M  V30 16 2 16 17
M  V30 17 1 17 18
M  V30 18 2 18 19
M  V30 19 1 19 20
M  V30 20 2 20 21
M  V30 21 1 11 22
M  V30 22 1 22 23
M  V30 23 1 23 24
M  V30 24 1 24 25
M  V30 25 1 13 8
M  V30 26 1 20 15
M  V30 27 1 21 12
M  V30 28 1 1 26
M  V30 29 1 1 27
M  V30 30 1 1 28
M  V30 31 1 3 29
M  V30 32 1 3 30
M  V30 33 1 4 31
M  V30 34 1 4 32
M  V30 35 1 5 33
M  V30 36 1 10 34
M  V30 37 1 10 35
M  V30 38 1 16 36
M  V30 39 1 17 37
M  V30 40 1 18 38
M  V30 41 1 19 39
M  V30 42 1 22 40
M  V30 43 1 22 41
M  V30 44 1 23 42
M  V30 45 1 23 43
M  V30 46 1 24 44
M  V30 47 1 24 45
M  V30 48 1 25 46
M  V30 49 1 25 47
M  V30 END BOND
M  V30 END CTAB
M  END
