
     RDKit          3D

  0  0  0  0  0  0  0  0  0  0999 V3000
M  V30 BEGIN CTAB
M  V30 COUNTS 18 18 0 0 0
M  V30 BEGIN ATOM
M  V30 1 O 3.40413 -0.962919 0.375578 0 CHG=-1
M  V30 2 N 2.47384 -0.180078 -0.254489 0 CHG=1
M  V30 3 O 2.89989 0.730292 -0.985979 0
M  V30 4 C 1.08822 -0.435102 -0.0500287 0
M  V30 5 C 0.729939 -1.75014 0.175458 0
M  V30 6 C -0.618075 -2.01049 0.376136 0
M  V30 7 C -1.55044 -0.994927 0.349386 0
M  V30 8 C -1.16919 0.307926 0.122674 0
M  V30 9 C 0.166301 0.598583 -0.0804316 0
M  V30 10 N 0.578059 1.93131 -0.3149 0
M  V30 11 N -2.14258 1.33139 0.100478 0
M  V30 12 F -2.8628 -1.27863 0.549203 0
M  V30 13 H 1.48629 -2.53172 0.19035 0
M  V30 14 H -0.92102 -3.04539 0.556832 0
M  V30 15 H 0.00527135 2.53623 -0.962756 0
M  V30 16 H 1.41173 2.35964 0.109597 0
M  V30 17 H -2.56982 1.64751 0.989544 0
M  V30 18 H -2.40976 1.7465 -0.811234 0
M  V30 END ATOM
M  V30 BEGIN BOND
M  V30 1 1 1 2
M  V30 2 2 2 3
M  V30 3 1 2 4
M  V30 4 2 4 5
M  V30 5 1 5 6
M  V30 6 2 6 7
M  V30 7 1 7 8
M  V30 8 2 8 9
M  V30 9 1 9 10
M  V30 10 1 8 11
M  V30 11 1 7 12
M  V30 12 1 9 4
M  V30 13 1 5 13
M  V30 14 1 6 14
M  V30 15 1 10 15
M  V30 16 1 10 16
M  V30 17 1 11 17
M  V30 18 1 11 18
M  V30 END BOND
M  V30 END CTAB
M  END
