
     RDKit          3D

  0  0  0  0  0  0  0  0  0  0999 V3000
M  V30 BEGIN CTAB
M  V30 COUNTS 45 47 0 0 0
M  V30 BEGIN ATOM
M  V30 1 N 1.29196 -2.45249 -1.8358 0
M  V30 2 C 1.79999 -2.4499 -0.53229 0
M  V30 3 C 1.24512 -1.37552 0.370904 0 CFG=2
M  V30 4 C -0.256122 -1.57515 0.469292 0
M  V30 5 N -0.724287 -0.307176 0.885662 0
M  V30 6 C 0.264357 0.697304 0.658589 0
M  V30 7 C 1.31541 -0.00788608 -0.228438 0 CFG=1
M  V30 8 C 2.55139 0.736217 -0.0340897 0
M  V30 9 C 3.04794 1.43064 -1.14714 0
M  V30 10 C 4.19218 2.1701 -1.11094 0
M  V30 11 C 4.90759 2.24936 0.0680002 0
M  V30 12 C 4.42544 1.56454 1.17941 0
M  V30 13 C 3.26684 0.824887 1.11626 0
M  V30 14 C -2.0444 0.0610451 0.50951 0 CFG=1
M  V30 15 C -2.2956 0.166187 -0.96245 0
M  V30 16 C -3.79112 0.50836 -0.96263 0 CFG=1
M  V30 17 C -4.30662 -0.47886 0.0458395 0
M  V30 18 C -3.15776 -0.766534 1.01575 0 CFG=2
M  V30 19 O -3.58431 -0.368177 2.30396 0
M  V30 20 N -3.9165 1.84329 -0.45205 0
M  V30 21 H 1.2724 -3.39217 -2.2284 0
M  V30 22 H 1.62171 -1.78835 -2.50659 0
M  V30 23 H 1.57787 -3.44244 -0.0644919 0
M  V30 24 H 2.91947 -2.40742 -0.575074 0
M  V30 25 H 1.73421 -1.39882 1.34631 0
M  V30 26 H -0.507665 -2.40547 1.16071 0
M  V30 27 H -0.585771 -1.81783 -0.584288 0
M  V30 28 H -0.0947187 1.59464 0.153459 0
M  V30 29 H 0.733448 0.944902 1.63953 0
M  V30 30 H 0.950925 0.0224312 -1.26727 0
M  V30 31 H 2.50785 1.39281 -2.10305 0
M  V30 32 H 4.5279 2.68779 -2.00578 0
M  V30 33 H 5.79475 2.83289 0.067911 0
M  V30 34 H 4.99497 1.64215 2.07585 0
M  V30 35 H 2.90286 0.298864 1.98261 0
M  V30 36 H -2.20223 1.10698 0.915926 0
M  V30 37 H -1.75623 1.00562 -1.43957 0
M  V30 38 H -2.15563 -0.798825 -1.48657 0
M  V30 39 H -4.20442 0.378874 -1.96674 0
M  V30 40 H -4.61385 -1.38935 -0.494975 0
M  V30 41 H -5.18935 -0.093026 0.58885 0
M  V30 42 H -3.01647 -1.843 1.03946 0
M  V30 43 H -2.78854 0.0347161 2.77284 0
M  V30 44 H -4.22181 1.87756 0.545714 0
M  V30 45 H -4.43316 2.48624 -1.06393 0
M  V30 END ATOM
M  V30 BEGIN BOND
M  V30 1 1 1 2
M  V30 2 1 2 3
M  V30 3 1 3 4
M  V30 4 1 4 5
M  V30 5 1 5 6
M  V30 6 1 6 7
M  V30 7 1 7 8
M  V30 8 2 8 9
M  V30 9 1 9 10
M  V30 10 2 10 11
M  V30 11 1 11 12
M  V30 12 2 12 13
M  V30 13 1 5 14
M  V30 14 1 14 15
M  V30 15 1 15 16
M  V30 16 1 16 17
M  V30 17 1 17 18
M  V30 18 1 18 19
M  V30 19 1 16 20
M  V30 20 1 7 3
M  V30 21 1 13 8
M  V30 22 1 18 14
M  V30 23 1 1 21
M  V30 24 1 1 22
M  V30 25 1 2 23
M  V30 26 1 2 24
M  V30 27 1 3 25 CFG=1
M  V30 28 1 4 26
M  V30 29 1 4 27
M  V30 30 1 6 28
M  V30 31 1 6 29
M  V30 32 1 7 30 CFG=3
M  V30 33 1 9 31
M  V30 34 1 10 32
M  V30 35 1 11 33
M  V30 36 1 12 34
M  V30 37 1 13 35
M  V30 38 1 14 36 CFG=1
M  V30 39 1 15 37
M  V30 40 1 15 38
M  V30 41 1 16 39 CFG=3
M  V30 42 1 17 40
M  V30 43 1 17 41
M  V30 44 1 18 42 CFG=1
M  V30 45 1 19 43
M  V30 46 1 20 44
M  V30 47 1 20 45
M  V30 END BOND
M  V30 END CTAB
M  END
