
     RDKit          3D

  0  0  0  0  0  0  0  0  0  0999 V3000
M  V30 BEGIN CTAB
M  V30 COUNTS 40 42 0 0 0
M  V30 BEGIN ATOM
M  V30 1 N 5.99128 1.96252 0.192789 0
M  V30 2 C 4.75235 1.25755 -0.0232346 0
M  V30 3 N 4.66872 -0.0549142 0.246271 0
M  V30 4 C 3.50282 -0.74046 0.0479396 0
M  V30 5 C 3.43423 -2.09473 0.331384 0
M  V30 6 C 2.23443 -2.7349 0.112048 0
M  V30 7 C 1.1363 -2.06097 -0.371684 0
M  V30 8 C 1.2159 -0.719209 -0.647849 0
M  V30 9 O 0.206835 0.0523226 -1.12914 0
M  V30 10 C -1.10241 -0.216316 -1.43942 0
M  V30 11 C -1.95606 -0.606607 -0.257041 0
M  V30 12 C -3.36746 -0.888101 -0.676631 0
M  V30 13 C -4.37791 0.0987564 -0.226876 0
M  V30 14 C -4.23945 0.587296 1.17726 0
M  V30 15 C -2.89446 0.287452 1.7911 0
M  V30 16 C -1.8657 0.554997 0.716945 0
M  V30 17 C 2.43264 -0.0321296 -0.434529 0
M  V30 18 C 2.50816 1.31956 -0.715293 0
M  V30 19 N 1.38061 2.01051 -1.21117 0
M  V30 20 N 3.69371 1.92618 -0.493299 0
M  V30 21 H 6.03936 2.97894 0.0581026 0
M  V30 22 H 6.83103 1.43718 0.484314 0
M  V30 23 H 4.3154 -2.59657 0.710806 0
M  V30 24 H 2.19166 -3.81271 0.341196 0
M  V30 25 H 0.226385 -2.61164 -0.548273 0
M  V30 26 H -1.15533 -0.99899 -2.24446 0
M  V30 27 H -1.56452 0.704582 -1.93067 0
M  V30 28 H -1.5048 -1.45878 0.249353 0
M  V30 29 H -3.6347 -1.90697 -0.326081 0
M  V30 30 H -3.38467 -0.934952 -1.78617 0
M  V30 31 H -5.38539 -0.359541 -0.327848 0
M  V30 32 H -4.38575 0.983153 -0.905807 0
M  V30 33 H -4.36997 1.69806 1.23464 0
M  V30 34 H -5.00666 0.168102 1.86715 0
M  V30 35 H -2.81561 -0.747206 2.1695 0
M  V30 36 H -2.73086 0.986792 2.63532 0
M  V30 37 H -0.86899 0.491254 1.19626 0
M  V30 38 H -2.05912 1.52476 0.249225 0
M  V30 39 H 1.17614 2.08835 -2.2236 0
M  V30 40 H 0.731868 2.45737 -0.537835 0
M  V30 END ATOM
M  V30 BEGIN BOND
M  V30 1 1 1 2
M  V30 2 2 2 3
M  V30 3 1 3 4
M  V30 4 2 4 5
M  V30 5 1 5 6
M  V30 6 2 6 7
M  V30 7 1 7 8
M  V30 8 1 8 9
M  V30 9 1 9 10
M  V30 10 1 10 11
M  V30 11 1 11 12
M  V30 12 1 12 13
M  V30 13 1 13 14
M  V30 14 1 14 15
M  V30 15 1 15 16
M  V30 16 2 8 17
M  V30 17 1 17 18
M  V30 18 1 18 19
M  V30 19 2 18 20
M  V30 20 1 20 2
M  V30 21 1 17 4
M  V30 22 1 16 11
M  V30 23 1 1 21
M  V30 24 1 1 22
M  V30 25 1 5 23
M  V30 26 1 6 24
M  V30 27 1 7 25
M  V30 28 1 10 26
M  V30 29 1 10 27
M  V30 30 1 11 28
M  V30 31 1 12 29
M  V30 32 1 12 30
M  V30 33 1 13 31
M  V30 34 1 13 32
M  V30 35 1 14 33
M  V30 36 1 14 34
M  V30 37 1 15 35
M  V30 38 1 15 36
M  V30 39 1 16 37
M  V30 40 1 16 38
M  V30 41 1 19 39
M  V30 42 1 19 40
M  V30 END BOND
M  V30 END CTAB
M  END
