
     RDKit          3D

  0  0  0  0  0  0  0  0  0  0999 V3000
M  V30 BEGIN CTAB
M  V30 COUNTS 38 40 0 0 0
M  V30 BEGIN ATOM
M  V30 1 N 0.222904 0.350427 -3.19134 0
M  V30 2 C -0.682527 0.322665 -2.08503 0
M  V30 3 N -2.00631 0.12374 -2.13571 0
M  V30 4 N -2.5479 0.159617 -0.905035 0
M  V30 5 C -1.52539 0.389165 -0.066229 0
M  V30 6 C -0.353146 0.49519 -0.762774 0
M  V30 7 N 0.990239 0.715365 -0.296782 0
M  V30 8 N 1.57107 -0.115629 0.431617 0
M  V30 9 C 2.87264 -0.00284232 0.938153 0
M  V30 10 C 3.09111 0.230445 2.27806 0
M  V30 11 C 4.38842 0.320801 2.7553 0
M  V30 12 C 5.46775 0.182415 1.91828 0
M  V30 13 C 5.26772 -0.0524304 0.56453 0
M  V30 14 C 3.97597 -0.141386 0.0951682 0
M  V30 15 C 6.37918 -0.221017 -0.408654 0
M  V30 16 F 6.36416 0.745654 -1.38269 0
M  V30 17 F 6.20787 -1.44297 -1.05915 0
M  V30 18 F 7.57319 -0.227947 0.292924 0
M  V30 19 N -1.5839 0.520958 1.356 0
M  V30 20 C -3.92876 -0.0218655 -0.595667 0
M  V30 21 C -4.89321 0.374501 -1.49605 0
M  V30 22 C -6.24053 0.220985 -1.23068 0
M  V30 23 C -6.63899 -0.343943 -0.0305768 0
M  V30 24 C -5.69914 -0.746237 0.882155 0
M  V30 25 C -4.37123 -0.580286 0.585512 0
M  V30 26 H -0.0861712 0.596234 -4.14955 0
M  V30 27 H 1.22504 0.119579 -3.04979 0
M  V30 28 H 2.29869 0.34735 3.00131 0
M  V30 29 H 4.54509 0.500877 3.79329 0
M  V30 30 H 6.4979 0.24748 2.27942 0
M  V30 31 H 3.83215 -0.321867 -0.958918 0
M  V30 32 H -1.29648 -0.269965 1.9424 0
M  V30 33 H -1.91614 1.41411 1.80032 0
M  V30 34 H -4.63642 0.82575 -2.45988 0
M  V30 35 H -7.01918 0.537512 -1.94845 0
M  V30 36 H -7.70543 -0.451869 0.147012 0
M  V30 37 H -5.97497 -1.18507 1.81303 0
M  V30 38 H -3.66527 -0.921183 1.3385 0
M  V30 END ATOM
M  V30 BEGIN BOND
M  V30 1 1 1 2
M  V30 2 2 2 3
M  V30 3 1 3 4
M  V30 4 1 4 5
M  V30 5 2 5 6
M  V30 6 1 6 7
M  V30 7 2 7 8
M  V30 8 1 8 9
M  V30 9 2 9 10
M  V30 10 1 10 11
M  V30 11 2 11 12
M  V30 12 1 12 13
M  V30 13 2 13 14
M  V30 14 1 13 15
M  V30 15 1 15 16
M  V30 16 1 15 17
M  V30 17 1 15 18
M  V30 18 1 5 19
M  V30 19 1 4 20
M  V30 20 2 20 21
M  V30 21 1 21 22
M  V30 22 2 22 23
M  V30 23 1 23 24
M  V30 24 2 24 25
M  V30 25 1 6 2
M  V30 26 1 14 9
M  V30 27 1 25 20
M  V30 28 1 1 26
M  V30 29 1 1 27
M  V30 30 1 10 28
M  V30 31 1 11 29
M  V30 32 1 12 30
M  V30 33 1 14 31
M  V30 34 1 19 32
M  V30 35 1 19 33
M  V30 36 1 21 34
M  V30 37 1 22 35
M  V30 38 1 23 36
M  V30 39 1 24 37
M  V30 40 1 25 38
M  V30 END BOND
M  V30 END CTAB
M  END
