
     RDKit          3D

  0  0  0  0  0  0  0  0  0  0999 V3000
M  V30 BEGIN CTAB
M  V30 COUNTS 50 52 0 0 0
M  V30 BEGIN ATOM
M  V30 1 C 5.2793 0.334978 -1.42475 0
M  V30 2 C 4.05185 0.121087 -0.56196 0
M  V30 3 C 4.54461 -0.238054 0.814455 0
M  V30 4 C 3.11233 1.27057 -0.608089 0
M  V30 5 N 1.92505 1.11684 0.198135 0
M  V30 6 C 1.83375 1.54902 1.47006 0
M  V30 7 O 2.83622 2.13351 1.98236 0
M  V30 8 N 0.717134 1.37353 2.18666 0
M  V30 9 C 0.616358 1.83633 3.55366 0
M  V30 10 C -0.357152 0.744425 1.62346 0
M  V30 11 O -1.35792 0.620296 2.36105 0
M  V30 12 C -0.317408 0.284774 0.328744 0
M  V30 13 C 0.859723 0.487797 -0.375383 0
M  V30 14 N 0.982721 0.061476 -1.64467 0
M  V30 15 C 0.000137808 -0.567601 -2.28355 0
M  V30 16 N 0.152586 -1.00918 -3.62355 0
M  V30 17 C -1.20185 -0.777987 -1.57292 0
M  V30 18 C -2.2098 -1.4922 -2.3502 0
M  V30 19 N -3.46465 -1.80102 -1.78818 0
M  V30 20 C -1.39193 -0.373284 -0.295155 0
M  V30 21 C -2.62608 -0.548689 0.464005 0
M  V30 22 C -3.59554 0.458556 0.385748 0
M  V30 23 C -4.7712 0.351197 1.06892 0
M  V30 24 C -5.04817 -0.733868 1.85068 0
M  V30 25 C -4.07473 -1.73291 1.92226 0
M  V30 26 C -2.89074 -1.64434 1.2455 0
M  V30 27 C -3.3668 1.62998 -0.412929 0
M  V30 28 N -3.17292 2.59096 -1.06091 0
M  V30 29 H 5.14982 1.18483 -2.12156 0
M  V30 30 H 5.51977 -0.588392 -1.98723 0
M  V30 31 H 6.17886 0.566579 -0.808755 0
M  V30 32 H 3.52167 -0.782615 -0.96432 0
M  V30 33 H 3.70495 -0.554616 1.46698 0
M  V30 34 H 5.22993 -1.13247 0.773872 0
M  V30 35 H 5.14096 0.573939 1.27348 0
M  V30 36 H 3.60809 2.22068 -0.266922 0
M  V30 37 H 2.80693 1.41596 -1.6694 0
M  V30 38 H -0.315133 2.43065 3.67168 0
M  V30 39 H 1.50669 2.37992 3.87144 0
M  V30 40 H 0.497811 0.968451 4.26164 0
M  V30 41 H 0.0610685 -0.345423 -4.4254 0
M  V30 42 H 0.360495 -2.00325 -3.87157 0
M  V30 43 H -1.77552 -2.48143 -2.71176 0
M  V30 44 H -2.41365 -0.970373 -3.33391 0
M  V30 45 H -4.28414 -1.38365 -2.29159 0
M  V30 46 H -3.62549 -2.81071 -1.58665 0
M  V30 47 H -5.53672 1.13338 1.01458 0
M  V30 48 H -5.97372 -0.824545 2.39219 0
M  V30 49 H -4.25736 -2.61425 2.53504 0
M  V30 50 H -2.17021 -2.42883 1.32471 0
M  V30 END ATOM
M  V30 BEGIN BOND
M  V30 1 1 1 2
M  V30 2 1 2 3
M  V30 3 1 2 4
M  V30 4 1 4 5
M  V30 5 1 5 6
M  V30 6 2 6 7
M  V30 7 1 6 8
M  V30 8 1 8 9
M  V30 9 1 8 10
M  V30 10 2 10 11
M  V30 11 1 10 12
M  V30 12 2 12 13
M  V30 13 1 13 14
M  V30 14 2 14 15
M  V30 15 1 15 16
M  V30 16 1 15 17
M  V30 17 1 17 18
M  V30 18 1 18 19
M  V30 19 2 17 20
M  V30 20 1 20 21
M  V30 21 2 21 22
M  V30 22 1 22 23
M  V30 23 2 23 24
M  V30 24 1 24 25
M  V30 25 2 25 26
M  V30 26 1 22 27
M  V30 27 3 27 28
M  V30 28 1 13 5
M  V30 29 1 26 21
M  V30 30 1 20 12
M  V30 31 1 1 29
M  V30 32 1 1 30
M  V30 33 1 1 31
M  V30 34 1 2 32
M  V30 35 1 3 33
M  V30 36 1 3 34
M  V30 37 1 3 35
M  V30 38 1 4 36
M  V30 39 1 4 37
M  V30 40 1 9 38
M  V30 41 1 9 39
M  V30 42 1 9 40
M  V30 43 1 16 41
M  V30 44 1 16 42
M  V30 45 1 18 43
M  V30 46 1 18 44
M  V30 47 1 19 45
M  V30 48 1 19 46
M  V30 49 1 23 47
M  V30 50 1 24 48
M  V30 51 1 25 49
M  V30 52 1 26 50
M  V30 END BOND
M  V30 END CTAB
M  END
