
     RDKit          3D

  0  0  0  0  0  0  0  0  0  0999 V3000
M  V30 BEGIN CTAB
M  V30 COUNTS 37 39 0 0 0
M  V30 BEGIN ATOM
M  V30 1 C 5.70263 -0.950456 1.67503 0
M  V30 2 O 4.92471 -1.50976 0.635229 0
M  V30 3 C 3.88608 -0.756516 0.114765 0
M  V30 4 C 3.61278 0.488871 0.583667 0
M  V30 5 C 2.59462 1.26527 0.0954457 0
M  V30 6 C 1.81297 0.756806 -0.918377 0
M  V30 7 C 0.70376 1.56999 -1.46916 0
M  V30 8 C -0.561966 1.30367 -0.709297 0
M  V30 9 C -1.42893 0.304647 -1.1002 0
M  V30 10 C -2.57962 0.0957255 -0.372344 0
M  V30 11 C -2.88796 0.867738 0.746794 0
M  V30 12 C -1.99939 1.86218 1.11454 0
M  V30 13 C -0.845535 2.07621 0.389728 0
M  V30 14 N -4.01675 0.612058 1.40417 0
M  V30 15 C -4.83749 -0.368828 0.994898 0
M  V30 16 N -6.02971 -0.598475 1.73432 0
M  V30 17 N -4.54358 -1.116 -0.0844648 0
M  V30 18 C -3.41503 -0.920931 -0.809294 0
M  V30 19 N -3.11374 -1.71657 -1.94892 0
M  V30 20 C 2.06675 -0.486597 -1.4041 0
M  V30 21 C 3.0861 -1.24513 -0.904453 0
M  V30 22 H 6.44465 -1.70215 2.00232 0
M  V30 23 H 6.16093 0.0191428 1.39163 0
M  V30 24 H 4.98991 -0.720474 2.50742 0
M  V30 25 H 4.24033 0.886483 1.39149 0
M  V30 26 H 2.37145 2.25206 0.460883 0
M  V30 27 H 0.944713 2.65014 -1.44068 0
M  V30 28 H 0.539807 1.26028 -2.52684 0
M  V30 29 H -1.17449 -0.29643 -1.98354 0
M  V30 30 H -2.254 2.45234 1.98585 0
M  V30 31 H -0.144635 2.85922 0.678239 0
M  V30 32 H -6.42637 0.146518 2.35661 0
M  V30 33 H -6.48987 -1.52636 1.63525 0
M  V30 34 H -3.34549 -2.73527 -1.89064 0
M  V30 35 H -2.69095 -1.37722 -2.81753 0
M  V30 36 H 1.45045 -0.893958 -2.20719 0
M  V30 37 H 3.25286 -2.2136 -1.31123 0
M  V30 END ATOM
M  V30 BEGIN BOND
M  V30 1 1 1 2
M  V30 2 1 2 3
M  V30 3 2 3 4
M  V30 4 1 4 5
M  V30 5 2 5 6
M  V30 6 1 6 7
M  V30 7 1 7 8
M  V30 8 2 8 9
M  V30 9 1 9 10
M  V30 10 2 10 11
M  V30 11 1 11 12
M  V30 12 2 12 13
M  V30 13 1 11 14
M  V30 14 2 14 15
M  V30 15 1 15 16
M  V30 16 1 15 17
M  V30 17 2 17 18
M  V30 18 1 18 19
M  V30 19 1 6 20
M  V30 20 2 20 21
M  V30 21 1 21 3
M  V30 22 1 13 8
M  V30 23 1 18 10
M  V30 24 1 1 22
M  V30 25 1 1 23
M  V30 26 1 1 24
M  V30 27 1 4 25
M  V30 28 1 5 26
M  V30 29 1 7 27
M  V30 30 1 7 28
M  V30 31 1 9 29
M  V30 32 1 12 30
M  V30 33 1 13 31
M  V30 34 1 16 32
M  V30 35 1 16 33
M  V30 36 1 19 34
M  V30 37 1 19 35
M  V30 38 1 20 36
M  V30 39 1 21 37
M  V30 END BOND
M  V30 END CTAB
M  END
