
     RDKit          3D

  0  0  0  0  0  0  0  0  0  0999 V3000
M  V30 BEGIN CTAB
M  V30 COUNTS 32 33 0 0 0
M  V30 BEGIN ATOM
M  V30 1 C -3.7023 -2.68067 -0.353714 0
M  V30 2 O -2.5456 -1.96879 -0.7419 0
M  V30 3 C -2.29067 -0.680512 -0.284315 0
M  V30 4 C -3.15095 -0.0281849 0.571719 0
M  V30 5 C -2.88317 1.24507 1.01396 0
M  V30 6 C -3.80295 1.90785 1.91291 0
M  V30 7 N -4.53452 2.42311 2.64503 0
M  V30 8 C -1.73184 1.8414 0.573404 0
M  V30 9 C -0.847936 1.18916 -0.297756 0
M  V30 10 C -1.10663 -0.0874238 -0.746789 0
M  V30 11 O -0.296751 -0.80885 -1.60196 0
M  V30 12 C 0.894404 -0.364185 -2.11687 0
M  V30 13 C 1.96771 -0.0594476 -1.15228 0
M  V30 14 N 3.0216 0.712319 -1.42582 0
M  V30 15 C 3.94824 0.913614 -0.465111 0
M  V30 16 N 5.09806 1.72711 -0.691833 0
M  V30 17 N 3.83782 0.358919 0.756101 0
M  V30 18 C 2.76778 -0.434852 1.05945 0
M  V30 19 N 1.8727 -0.607777 0.0773142 0
M  V30 20 N 2.64968 -1.01839 2.34111 0
M  V30 21 H -3.80643 -3.54128 -1.0451 0
M  V30 22 H -4.61963 -2.02669 -0.414883 0
M  V30 23 H -3.55929 -3.07183 0.674307 0
M  V30 24 H -4.03902 -0.537233 0.887769 0
M  V30 25 H -1.50527 2.85004 0.914606 0
M  V30 26 H 0.0514738 1.68476 -0.639246 0
M  V30 27 H 0.734033 0.565155 -2.71977 0
M  V30 28 H 1.30403 -1.16707 -2.79594 0
M  V30 29 H 5.94192 1.39769 -1.20372 0
M  V30 30 H 5.12168 2.71709 -0.333525 0
M  V30 31 H 2.17693 -0.491783 3.09069 0
M  V30 32 H 3.0349 -1.95832 2.51216 0
M  V30 END ATOM
M  V30 BEGIN BOND
M  V30 1 1 1 2
M  V30 2 1 2 3
M  V30 3 2 3 4
M  V30 4 1 4 5
M  V30 5 1 5 6
M  V30 6 3 6 7
M  V30 7 2 5 8
M  V30 8 1 8 9
M  V30 9 2 9 10
M  V30 10 1 10 11
M  V30 11 1 11 12
M  V30 12 1 12 13
M  V30 13 2 13 14
M  V30 14 1 14 15
M  V30 15 1 15 16
M  V30 16 2 15 17
M  V30 17 1 17 18
M  V30 18 2 18 19
M  V30 19 1 18 20
M  V30 20 1 10 3
M  V30 21 1 19 13
M  V30 22 1 1 21
M  V30 23 1 1 22
M  V30 24 1 1 23
M  V30 25 1 4 24
M  V30 26 1 8 25
M  V30 27 1 9 26
M  V30 28 1 12 27
M  V30 29 1 12 28
M  V30 30 1 16 29
M  V30 31 1 16 30
M  V30 32 1 20 31
M  V30 33 1 20 32
M  V30 END BOND
M  V30 END CTAB
M  END
