
     RDKit          3D

  0  0  0  0  0  0  0  0  0  0999 V3000
M  V30 BEGIN CTAB
M  V30 COUNTS 35 35 0 0 0
M  V30 BEGIN ATOM
M  V30 1 C -2.89528 1.56429 -0.154824 0
M  V30 2 C -2.72851 0.416855 0.78262 0
M  V30 3 C -2.4187 -0.878892 0.0695926 0
M  V30 4 C -1.13584 -0.749328 -0.718253 0
M  V30 5 O -1.14552 -0.914499 -1.95965 0
M  V30 6 N 0.0250309 -0.441165 0.0192578 0
M  V30 7 C 1.33941 -0.262999 -0.442645 0
M  V30 8 C 1.74558 -0.361624 -1.75324 0
M  V30 9 C 3.08051 -0.167106 -2.11898 0
M  V30 10 Br 3.62812 -0.307357 -3.94124 0
M  V30 11 C 4.03361 0.130813 -1.17148 0
M  V30 12 C 3.63396 0.231662 0.146982 0
M  V30 13 C 2.32239 0.0420178 0.517503 0
M  V30 14 N 1.96742 0.159652 1.90187 0
M  V30 15 C 4.62324 0.553386 1.22537 0
M  V30 16 C -3.5064 -1.21239 -0.911181 0
M  V30 17 N -3.95895 0.208365 1.52207 0
M  V30 18 H -1.88413 1.95391 -0.399655 0
M  V30 19 H -3.43949 1.33068 -1.07767 0
M  V30 20 H -3.40421 2.38869 0.401404 0
M  V30 21 H -1.94916 0.662915 1.5141 0
M  V30 22 H -2.27864 -1.67643 0.824858 0
M  V30 23 H -0.126319 -0.330033 1.0724 0
M  V30 24 H 1.0475 -0.590948 -2.53195 0
M  V30 25 H 5.073 0.28829 -1.41048 0
M  V30 26 H 2.24175 1.02565 2.41165 0
M  V30 27 H 1.44848 -0.631755 2.33535 0
M  V30 28 H 4.19956 1.33348 1.91048 0
M  V30 29 H 5.56301 0.963055 0.820122 0
M  V30 30 H 4.83773 -0.358775 1.85298 0
M  V30 31 H -3.28776 -2.25569 -1.28002 0
M  V30 32 H -3.35335 -0.568468 -1.8171 0
M  V30 33 H -4.51567 -1.11223 -0.517741 0
M  V30 34 H -3.97714 -0.741356 1.95741 0
M  V30 35 H -4.80524 0.307339 0.920095 0
M  V30 END ATOM
M  V30 BEGIN BOND
M  V30 1 1 1 2
M  V30 2 1 2 3
M  V30 3 1 3 4
M  V30 4 2 4 5
M  V30 5 1 4 6
M  V30 6 1 6 7
M  V30 7 2 7 8
M  V30 8 1 8 9
M  V30 9 1 9 10
M  V30 10 2 9 11
M  V30 11 1 11 12
M  V30 12 2 12 13
M  V30 13 1 13 14
M  V30 14 1 12 15
M  V30 15 1 3 16
M  V30 16 1 2 17
M  V30 17 1 13 7
M  V30 18 1 1 18
M  V30 19 1 1 19
M  V30 20 1 1 20
M  V30 21 1 2 21
M  V30 22 1 3 22
M  V30 23 1 6 23
M  V30 24 1 8 24
M  V30 25 1 11 25
M  V30 26 1 14 26
M  V30 27 1 14 27
M  V30 28 1 15 28
M  V30 29 1 15 29
M  V30 30 1 15 30
M  V30 31 1 16 31
M  V30 32 1 16 32
M  V30 33 1 16 33
M  V30 34 1 17 34
M  V30 35 1 17 35
M  V30 END BOND
M  V30 END CTAB
M  END
