
     RDKit          3D

  0  0  0  0  0  0  0  0  0  0999 V3000
M  V30 BEGIN CTAB
M  V30 COUNTS 21 21 0 0 0
M  V30 BEGIN ATOM
M  V30 1 C -2.99158 -0.337804 0.730952 0
M  V30 2 C -1.54337 -0.0471649 0.58861 0
M  V30 3 N -0.757105 0.296883 1.61741 0
M  V30 4 C 0.569715 0.5586 1.45987 0
M  V30 5 C 1.18019 0.483225 0.224671 0
M  V30 6 C 2.62291 0.768307 0.0562599 0
M  V30 7 N 3.38007 -0.459271 0.223823 0
M  V30 8 C 0.393416 0.130781 -0.853334 0
M  V30 9 C -0.954748 -0.128471 -0.653642 0
M  V30 10 N -1.77415 -0.491745 -1.75402 0
M  V30 11 H -3.19822 -1.23404 1.33951 0
M  V30 12 H -3.45908 -0.400244 -0.250314 0
M  V30 13 H -3.4385 0.553895 1.24766 0
M  V30 14 H 1.19806 0.835527 2.29386 0
M  V30 15 H 2.97778 1.54823 0.786063 0
M  V30 16 H 2.84786 1.197 -0.950129 0
M  V30 17 H 3.48083 -0.872313 -0.745552 0
M  V30 18 H 2.80442 -1.11352 0.798669 0
M  V30 19 H 0.817082 0.0535375 -1.85866 0
M  V30 20 H -2.14542 0.16497 -2.45483 0
M  V30 21 H -2.01017 -1.50638 -1.84688 0
M  V30 END ATOM
M  V30 BEGIN BOND
M  V30 1 1 1 2
M  V30 2 2 2 3
M  V30 3 1 3 4
M  V30 4 2 4 5
M  V30 5 1 5 6
M  V30 6 1 6 7
M  V30 7 1 5 8
M  V30 8 2 8 9
M  V30 9 1 9 10
M  V30 10 1 9 2
M  V30 11 1 1 11
M  V30 12 1 1 12
M  V30 13 1 1 13
M  V30 14 1 4 14
M  V30 15 1 6 15
M  V30 16 1 6 16
M  V30 17 1 7 17
M  V30 18 1 7 18
M  V30 19 1 8 19
M  V30 20 1 10 20
M  V30 21 1 10 21
M  V30 END BOND
M  V30 END CTAB
M  END
