
     RDKit          3D

  0  0  0  0  0  0  0  0  0  0999 V3000
M  V30 BEGIN CTAB
M  V30 COUNTS 41 43 0 0 0
M  V30 BEGIN ATOM
M  V30 1 N -2.06244 -2.94841 -1.19599 0
M  V30 2 C -2.82443 -1.7397 -0.954811 0
M  V30 3 C -1.94031 -0.571826 -0.710553 0
M  V30 4 C -0.573987 -0.758042 -0.739061 0
M  V30 5 C 0.250187 0.304588 -0.516632 0
M  V30 6 C -0.321366 1.54002 -0.268633 0
M  V30 7 C -1.70685 1.71966 -0.241603 0
M  V30 8 C -2.53734 0.641582 -0.467222 0
M  V30 9 C -4.02625 0.745389 -0.456556 0
M  V30 10 C -4.67149 2.0714 -0.185388 0
M  V30 11 C -4.77299 0.871708 0.802664 0
M  V30 12 C 1.72717 0.23508 -0.52058 0
M  V30 13 C 2.20624 -1.16607 -0.317432 0
M  V30 14 C 3.66565 -1.27892 -0.124453 0
M  V30 15 C 4.36112 -0.113703 0.447962 0
M  V30 16 C 3.58802 1.15017 0.521158 0
M  V30 17 N 2.1776 0.994502 0.657471 0
M  V30 18 N 5.56738 0.154478 -0.353339 0
M  V30 19 H -2.60127 -3.64701 -1.74349 0
M  V30 20 H -1.58302 -3.31417 -0.365077 0
M  V30 21 H -3.48206 -1.92235 -0.0872084 0
M  V30 22 H -3.40974 -1.52724 -1.86809 0
M  V30 23 H -0.144511 -1.73099 -0.934513 0
M  V30 24 H 0.279543 2.42869 -0.0832171 0
M  V30 25 H -2.12143 2.68292 -0.0480804 0
M  V30 26 H -4.54052 0.163544 -1.26487 0
M  V30 27 H -4.12582 2.92366 0.21725 0
M  V30 28 H -5.63023 2.33334 -0.675809 0
M  V30 29 H -4.23888 0.98472 1.76798 0
M  V30 30 H -5.78048 0.419652 0.919459 0
M  V30 31 H 2.19196 0.687731 -1.39865 0
M  V30 32 H 1.87992 -1.80008 -1.17557 0
M  V30 33 H 1.67177 -1.58049 0.573221 0
M  V30 34 H 4.12405 -1.59552 -1.10723 0
M  V30 35 H 3.85677 -2.16561 0.549041 0
M  V30 36 H 4.76254 -0.32333 1.48187 0
M  V30 37 H 3.95955 1.79219 1.3529 0
M  V30 38 H 3.77109 1.74996 -0.415348 0
M  V30 39 H 1.98627 0.392596 1.48878 0
M  V30 40 H 5.26024 0.0113271 -1.36249 0
M  V30 41 H 5.80834 1.18454 -0.311414 0
M  V30 END ATOM
M  V30 BEGIN BOND
M  V30 1 1 1 2
M  V30 2 1 2 3
M  V30 3 2 3 4
M  V30 4 1 4 5
M  V30 5 2 5 6
M  V30 6 1 6 7
M  V30 7 2 7 8
M  V30 8 1 8 9
M  V30 9 1 9 10
M  V30 10 1 10 11
M  V30 11 1 5 12
M  V30 12 1 12 13
M  V30 13 1 13 14
M  V30 14 1 14 15
M  V30 15 1 15 16
M  V30 16 1 16 17
M  V30 17 1 15 18
M  V30 18 1 8 3
M  V30 19 1 11 9
M  V30 20 1 17 12
M  V30 21 1 1 19
M  V30 22 1 1 20
M  V30 23 1 2 21
M  V30 24 1 2 22
M  V30 25 1 4 23
M  V30 26 1 6 24
M  V30 27 1 7 25
M  V30 28 1 9 26
M  V30 29 1 10 27
M  V30 30 1 10 28
M  V30 31 1 11 29
M  V30 32 1 11 30
M  V30 33 1 12 31
M  V30 34 1 13 32
M  V30 35 1 13 33
M  V30 36 1 14 34
M  V30 37 1 14 35
M  V30 38 1 15 36
M  V30 39 1 16 37
M  V30 40 1 16 38
M  V30 41 1 17 39
M  V30 42 1 18 40
M  V30 43 1 18 41
M  V30 END BOND
M  V30 END CTAB
M  END
