
     RDKit          3D

  0  0  0  0  0  0  0  0  0  0999 V3000
M  V30 BEGIN CTAB
M  V30 COUNTS 53 55 0 0 0
M  V30 BEGIN ATOM
M  V30 1 O -0.866349 2.30341 0.823034 0
M  V30 2 C -1.69522 2.1718 -0.103063 0
M  V30 3 N -1.733 1.14859 -1.05632 0
M  V30 4 C -0.831599 0.0652417 -1.1252 0
M  V30 5 C 0.207834 -0.189435 -0.278694 0
M  V30 6 C 1.06236 -1.29899 -0.413697 0
M  V30 7 C 0.819602 -2.15753 -1.45863 0
M  V30 8 C -0.217545 -1.94916 -2.34524 0
M  V30 9 C -1.0289 -0.849602 -2.17473 0
M  V30 10 Cl -2.35665 -0.57556 -3.30309 0
M  V30 11 S 2.33155 -1.50468 0.720258 0
M  V30 12 O 1.86328 -0.945179 2.0544 0
M  V30 13 O 2.58584 -2.98792 0.915742 0
M  V30 14 N 3.79737 -0.771583 0.331469 0
M  V30 15 C 3.80164 0.642983 0.197236 0
M  V30 16 C 4.92236 1.17225 1.10371 0
M  V30 17 C 6.21504 0.489029 0.746065 0
M  V30 18 C 6.29406 -0.895226 1.30679 0
M  V30 19 C 5.8724 -1.96863 0.334583 0
M  V30 20 C 4.68776 -1.49436 -0.504161 0
M  V30 21 C -2.72973 3.27553 -0.128797 0
M  V30 22 S -4.1263 2.94723 -1.17811 0
M  V30 23 C -5.20665 1.68999 -0.531611 0
M  V30 24 N -6.21512 2.09898 0.297367 0
M  V30 25 C -7.09919 1.27906 0.847224 0
M  V30 26 N -8.11757 1.78134 1.69867 0
M  V30 27 C -7.02426 -0.0698417 0.5877 0
M  V30 28 C -6.00038 -0.476339 -0.252519 0
M  V30 29 N -5.12983 0.389307 -0.785211 0
M  V30 30 N -5.89794 -1.84929 -0.536553 0
M  V30 31 H -2.50132 1.2246 -1.79071 0
M  V30 32 H 0.397686 0.483764 0.542509 0
M  V30 33 H 1.47733 -3.00824 -1.55952 0
M  V30 34 H -0.410443 -2.63452 -3.17761 0
M  V30 35 H 4.01376 0.998069 -0.83774 0
M  V30 36 H 2.86624 1.1171 0.519186 0
M  V30 37 H 4.65225 0.829114 2.12329 0
M  V30 38 H 5.00874 2.26623 1.01937 0
M  V30 39 H 6.40195 0.454084 -0.336072 0
M  V30 40 H 7.03184 1.08876 1.24495 0
M  V30 41 H 7.31036 -1.1444 1.65456 0
M  V30 42 H 5.64075 -0.96255 2.21759 0
M  V30 43 H 5.51024 -2.82541 0.951198 0
M  V30 44 H 6.6751 -2.29453 -0.333626 0
M  V30 45 H 5.08925 -0.806383 -1.27819 0
M  V30 46 H 4.23009 -2.40632 -0.927093 0
M  V30 47 H -2.20917 4.18852 -0.504175 0
M  V30 48 H -3.01632 3.53116 0.926967 0
M  V30 49 H -8.67785 2.60173 1.34448 0
M  V30 50 H -8.26479 1.33206 2.60977 0
M  V30 51 H -7.71808 -0.784646 1.00822 0
M  V30 52 H -6.15987 -2.24887 -1.44692 0
M  V30 53 H -5.53257 -2.47072 0.240936 0
M  V30 END ATOM
M  V30 BEGIN BOND
M  V30 1 2 1 2
M  V30 2 1 2 3
M  V30 3 1 3 4
M  V30 4 2 4 5
M  V30 5 1 5 6
M  V30 6 2 6 7
M  V30 7 1 7 8
M  V30 8 2 8 9
M  V30 9 1 9 10
M  V30 10 1 6 11
M  V30 11 2 11 12
M  V30 12 2 11 13
M  V30 13 1 11 14
M  V30 14 1 14 15
M  V30 15 1 15 16
M  V30 16 1 16 17
M  V30 17 1 17 18
M  V30 18 1 18 19
M  V30 19 1 19 20
M  V30 20 1 2 21
M  V30 21 1 21 22
M  V30 22 1 22 23
M  V30 23 2 23 24
M  V30 24 1 24 25
M  V30 25 1 25 26
M  V30 26 2 25 27
M  V30 27 1 27 28
M  V30 28 2 28 29
M  V30 29 1 28 30
M  V30 30 1 9 4
M  V30 31 1 20 14
M  V30 32 1 29 23
M  V30 33 1 3 31
M  V30 34 1 5 32
M  V30 35 1 7 33
M  V30 36 1 8 34
M  V30 37 1 15 35
M  V30 38 1 15 36
M  V30 39 1 16 37
M  V30 40 1 16 38
M  V30 41 1 17 39
M  V30 42 1 17 40
M  V30 43 1 18 41
M  V30 44 1 18 42
M  V30 45 1 19 43
M  V30 46 1 19 44
M  V30 47 1 20 45
M  V30 48 1 20 46
M  V30 49 1 21 47
M  V30 50 1 21 48
M  V30 51 1 26 49
M  V30 52 1 26 50
M  V30 53 1 27 51
M  V30 54 1 30 52
M  V30 55 1 30 53
M  V30 END BOND
M  V30 END CTAB
M  END
