
     RDKit          3D

  0  0  0  0  0  0  0  0  0  0999 V3000
M  V30 BEGIN CTAB
M  V30 COUNTS 49 51 0 0 0
M  V30 BEGIN ATOM
M  V30 1 N 7.61988 1.39805 -0.981624 0
M  V30 2 C 6.30331 0.979872 -0.699809 0
M  V30 3 C 5.24476 1.80751 -1.07205 0
M  V30 4 C 3.95207 1.43636 -0.808749 0
M  V30 5 C 3.63848 0.265103 -0.185521 0
M  V30 6 C 2.25738 -0.164446 0.117882 0
M  V30 7 C 1.24621 0.807539 -0.40546 0
M  V30 8 N -0.106845 0.382692 -0.12985 0
M  V30 9 C -0.508529 0.496098 1.25898 0
M  V30 10 C -2.04298 0.554259 1.17846 0
M  V30 11 N -2.54696 -0.519766 0.355352 0
M  V30 12 C -1.67049 -1.45688 -0.278459 0
M  V30 13 C -0.253396 -1.0456 -0.436539 0
M  V30 14 C -3.94449 -0.637144 0.166349 0
M  V30 15 C -4.45949 -1.79136 -0.426524 0
M  V30 16 C -5.79644 -1.98103 -0.660841 0
M  V30 17 C -6.66297 -0.995601 -0.302269 0
M  V30 18 C -6.21275 0.179489 0.291635 0
M  V30 19 C -4.87351 0.327755 0.510054 0
M  V30 20 C -7.19636 1.23617 0.668468 0
M  V30 21 F -6.80483 1.90983 1.80609 0
M  V30 22 F -7.32764 2.06097 -0.430903 0
M  V30 23 F -8.40833 0.585757 0.882222 0
M  V30 24 C 4.67712 -0.573689 0.190827 0
M  V30 25 C 5.99506 -0.203715 -0.0721319 0
M  V30 26 N 7.10837 -1.01887 0.296113 0
M  V30 27 H 7.83708 2.42631 -1.10946 0
M  V30 28 H 8.4335 0.758261 -1.08674 0
M  V30 29 H 5.44242 2.75848 -1.57596 0
M  V30 30 H 3.15485 2.08148 -1.10037 0
M  V30 31 H 2.14737 -0.255918 1.20531 0
M  V30 32 H 2.15647 -1.17391 -0.381956 0
M  V30 33 H 1.32146 1.02162 -1.48423 0
M  V30 34 H 1.39285 1.74384 0.211367 0
M  V30 35 H -0.275807 -0.408109 1.85293 0
M  V30 36 H -0.121803 1.42206 1.72021 0
M  V30 37 H -2.52978 0.593285 2.1479 0
M  V30 38 H -2.23498 1.51867 0.624569 0
M  V30 39 H -1.76286 -2.4102 0.327302 0
M  V30 40 H -2.02569 -1.75515 -1.29321 0
M  V30 41 H 0.335337 -1.64398 0.30921 0
M  V30 42 H 0.197777 -1.20946 -1.42306 0
M  V30 43 H -3.75996 -2.56866 -0.701263 0
M  V30 44 H -6.12159 -2.89894 -1.11942 0
M  V30 45 H -7.7404 -1.07816 -0.47435 0
M  V30 46 H -4.52573 1.26543 0.970253 0
M  V30 47 H 4.49394 -1.52288 0.686205 0
M  V30 48 H 8.02296 -0.662664 0.594098 0
M  V30 49 H 6.93593 -2.04073 0.248195 0
M  V30 END ATOM
M  V30 BEGIN BOND
M  V30 1 1 1 2
M  V30 2 2 2 3
M  V30 3 1 3 4
M  V30 4 2 4 5
M  V30 5 1 5 6
M  V30 6 1 6 7
M  V30 7 1 7 8
M  V30 8 1 8 9
M  V30 9 1 9 10
M  V30 10 1 10 11
M  V30 11 1 11 12
M  V30 12 1 12 13
M  V30 13 1 11 14
M  V30 14 2 14 15
M  V30 15 1 15 16
M  V30 16 2 16 17
M  V30 17 1 17 18
M  V30 18 2 18 19
M  V30 19 1 18 20
M  V30 20 1 20 21
M  V30 21 1 20 22
M  V30 22 1 20 23
M  V30 23 1 5 24
M  V30 24 2 24 25
M  V30 25 1 25 26
M  V30 26 1 25 2
M  V30 27 1 13 8
M  V30 28 1 19 14
M  V30 29 1 1 27
M  V30 30 1 1 28
M  V30 31 1 3 29
M  V30 32 1 4 30
M  V30 33 1 6 31
M  V30 34 1 6 32
M  V30 35 1 7 33
M  V30 36 1 7 34
M  V30 37 1 9 35
M  V30 38 1 9 36
M  V30 39 1 10 37
M  V30 40 1 10 38
M  V30 41 1 12 39
M  V30 42 1 12 40
M  V30 43 1 13 41
M  V30 44 1 13 42
M  V30 45 1 15 43
M  V30 46 1 16 44
M  V30 47 1 17 45
M  V30 48 1 19 46
M  V30 49 1 24 47
M  V30 50 1 26 48
M  V30 51 1 26 49
M  V30 END BOND
M  V30 END CTAB
M  END
