
     RDKit          3D

  0  0  0  0  0  0  0  0  0  0999 V3000
M  V30 BEGIN CTAB
M  V30 COUNTS 32 33 0 0 0
M  V30 BEGIN ATOM
M  V30 1 C 5.09671 0.65787 -0.159292 0
M  V30 2 O 4.28396 -0.0885289 0.701898 0
M  V30 3 C 2.96745 -0.425839 0.399721 0
M  V30 4 C 2.4399 -0.000437272 -0.79672 0
M  V30 5 C 1.14741 -0.308413 -1.13742 0
M  V30 6 C 0.324807 -1.05366 -0.30153 0
M  V30 7 C -1.04738 -1.37412 -0.729024 0
M  V30 8 C -2.01743 -0.272905 -0.611972 0
M  V30 9 C -2.57106 0.0477736 0.589958 0
M  V30 10 N -2.29517 -0.634443 1.80874 0
M  V30 11 N -3.46517 1.07926 0.672045 0
M  V30 12 C -3.81654 1.79164 -0.413103 0
M  V30 13 N -4.73784 2.85578 -0.350465 0
M  V30 14 N -3.25947 1.46019 -1.59373 0
M  V30 15 C -2.37829 0.457275 -1.71995 0
M  V30 16 C 0.884982 -1.46217 0.885207 0
M  V30 17 C 2.18323 -1.16501 1.25186 0
M  V30 18 O 2.74586 -1.57753 2.4503 0
M  V30 19 H 4.60943 1.56888 -0.539063 0
M  V30 20 H 5.39111 0.0665304 -1.07133 0
M  V30 21 H 6.05175 0.892577 0.355752 0
M  V30 22 H 3.08032 0.582789 -1.45594 0
M  V30 23 H 0.758967 0.0499572 -2.10581 0
M  V30 24 H -0.99623 -1.66062 -1.82363 0
M  V30 25 H -1.43167 -2.30546 -0.247282 0
M  V30 26 H -2.17627 -1.66784 1.89909 0
M  V30 27 H -2.20543 -0.0443079 2.66491 0
M  V30 28 H -4.93179 3.31638 0.554804 0
M  V30 29 H -5.21206 3.16235 -1.21533 0
M  V30 30 H -1.96935 0.246367 -2.70318 0
M  V30 31 H 0.302528 -2.06719 1.5977 0
M  V30 32 H 2.24273 -2.12716 3.14279 0
M  V30 END ATOM
M  V30 BEGIN BOND
M  V30 1 1 1 2
M  V30 2 1 2 3
M  V30 3 2 3 4
M  V30 4 1 4 5
M  V30 5 2 5 6
M  V30 6 1 6 7
M  V30 7 1 7 8
M  V30 8 2 8 9
M  V30 9 1 9 10
M  V30 10 1 9 11
M  V30 11 2 11 12
M  V30 12 1 12 13
M  V30 13 1 12 14
M  V30 14 2 14 15
M  V30 15 1 6 16
M  V30 16 2 16 17
M  V30 17 1 17 18
M  V30 18 1 17 3
M  V30 19 1 15 8
M  V30 20 1 1 19
M  V30 21 1 1 20
M  V30 22 1 1 21
M  V30 23 1 4 22
M  V30 24 1 5 23
M  V30 25 1 7 24
M  V30 26 1 7 25
M  V30 27 1 10 26
M  V30 28 1 10 27
M  V30 29 1 13 28
M  V30 30 1 13 29
M  V30 31 1 15 30
M  V30 32 1 16 31
M  V30 33 1 18 32
M  V30 END BOND
M  V30 END CTAB
M  END
