
     RDKit          3D

  0  0  0  0  0  0  0  0  0  0999 V3000
M  V30 BEGIN CTAB
M  V30 COUNTS 42 45 0 0 0
M  V30 BEGIN ATOM
M  V30 1 N -2.57007 -2.56278 -2.40242 0
M  V30 2 C -2.22232 -2.20338 -1.08549 0
M  V30 3 C -2.70202 -2.94301 -0.0255884 0
M  V30 4 O -3.52924 -4.04624 -0.221214 0
M  V30 5 C -2.36136 -2.59103 1.26596 0
M  V30 6 C -1.54529 -1.49998 1.43276 0
M  V30 7 C -1.0391 -0.72639 0.398349 0
M  V30 8 C -1.39181 -1.09631 -0.871853 0
M  V30 9 C -0.164948 0.449983 0.6707 0
M  V30 10 O -0.484856 0.805442 2.04022 0
M  V30 11 C -1.09295 2.01643 2.11715 0
M  V30 12 O -1.52664 2.51179 3.20743 0
M  V30 13 C -1.1407 2.58768 0.782717 0
M  V30 14 C -1.61797 3.80665 0.381931 0
M  V30 15 C -1.51373 4.17167 -0.940677 0
M  V30 16 C -0.930897 3.30579 -1.83977 0
M  V30 17 C -0.453891 2.06866 -1.40033 0
M  V30 18 C -0.544542 1.6676 -0.0718403 0
M  V30 19 C 1.26873 0.168389 0.671285 0
M  V30 20 C 1.85326 -0.475646 -0.391981 0
M  V30 21 C 3.19953 -0.751237 -0.445474 0
M  V30 22 N 3.79099 -1.41969 -1.54991 0
M  V30 23 C 4.00399 -0.357892 0.628649 0
M  V30 24 O 5.36421 -0.653377 0.538603 0
M  V30 25 C 3.45497 0.288764 1.71024 0
M  V30 26 C 2.10182 0.552468 1.73844 0
M  V30 27 H -3.54279 -2.53465 -2.75993 0
M  V30 28 H -1.82722 -2.87467 -3.06221 0
M  V30 29 H -3.86826 -4.57225 0.559214 0
M  V30 30 H -2.73566 -3.17033 2.12596 0
M  V30 31 H -1.29185 -1.24334 2.45975 0
M  V30 32 H -1.06294 -0.569062 -1.7619 0
M  V30 33 H -2.08161 4.50121 1.0848 0
M  V30 34 H -1.89999 5.13927 -1.22167 0
M  V30 35 H -0.858021 3.61537 -2.88013 0
M  V30 36 H -0.00474301 1.46107 -2.16175 0
M  V30 37 H 1.24171 -0.782202 -1.22226 0
M  V30 38 H 4.32307 -2.29849 -1.43063 0
M  V30 39 H 3.69445 -1.02833 -2.50667 0
M  V30 40 H 5.93923 -0.364568 1.31926 0
M  V30 41 H 4.10034 0.584012 2.52923 0
M  V30 42 H 1.6691 1.0626 2.59104 0
M  V30 END ATOM
M  V30 BEGIN BOND
M  V30 1 1 1 2
M  V30 2 2 2 3
M  V30 3 1 3 4
M  V30 4 1 3 5
M  V30 5 2 5 6
M  V30 6 1 6 7
M  V30 7 2 7 8
M  V30 8 1 7 9
M  V30 9 1 9 10
M  V30 10 1 10 11
M  V30 11 2 11 12
M  V30 12 1 11 13
M  V30 13 2 13 14
M  V30 14 1 14 15
M  V30 15 2 15 16
M  V30 16 1 16 17
M  V30 17 2 17 18
M  V30 18 1 9 19
M  V30 19 2 19 20
M  V30 20 1 20 21
M  V30 21 1 21 22
M  V30 22 2 21 23
M  V30 23 1 23 24
M  V30 24 1 23 25
M  V30 25 2 25 26
M  V30 26 1 8 2
M  V30 27 1 18 9
M  V30 28 1 26 19
M  V30 29 1 18 13
M  V30 30 1 1 27
M  V30 31 1 1 28
M  V30 32 1 4 29
M  V30 33 1 5 30
M  V30 34 1 6 31
M  V30 35 1 8 32
M  V30 36 1 14 33
M  V30 37 1 15 34
M  V30 38 1 16 35
M  V30 39 1 17 36
M  V30 40 1 20 37
M  V30 41 1 22 38
M  V30 42 1 22 39
M  V30 43 1 24 40
M  V30 44 1 25 41
M  V30 45 1 26 42
M  V30 END BOND
M  V30 END CTAB
M  END
