
     RDKit          3D

  0  0  0  0  0  0  0  0  0  0999 V3000
M  V30 BEGIN CTAB
M  V30 COUNTS 47 49 0 0 0
M  V30 BEGIN ATOM
M  V30 1 C -2.87915 3.18697 -2.58483 0
M  V30 2 C -2.34941 2.4717 -1.37478 0
M  V30 3 C -2.15684 3.17894 -0.207454 0
M  V30 4 C -1.66961 2.49104 0.881693 0
M  V30 5 C -1.38674 1.14214 0.799788 0
M  V30 6 C -1.5692 0.408089 -0.354299 0
M  V30 7 C -2.06572 1.12777 -1.45052 0
M  V30 8 N -1.28787 -0.976509 -0.46505 0
M  V30 9 C 0.0697104 -1.38117 -0.513293 0
M  V30 10 O 0.386005 -2.6006 -0.608165 0
M  V30 11 C 1.17667 -0.394008 -0.455056 0
M  V30 12 S 2.76662 -1.2184 -0.552857 0
M  V30 13 C 4.13313 -0.0967049 -0.495017 0
M  V30 14 N 5.37605 -0.626802 -0.561412 0
M  V30 15 C 6.48798 0.111408 -0.52867 0
M  V30 16 N 7.7896 -0.443549 -0.598653 0
M  V30 17 N 6.33577 1.44724 -0.423917 0
M  V30 18 C 5.13029 2.03429 -0.35393 0
M  V30 19 N 4.04136 1.22518 -0.39256 0
M  V30 20 N 4.95531 3.43281 -0.243967 0
M  V30 21 C -2.37948 -1.90099 -0.535208 0
M  V30 22 C -2.82689 -2.4512 0.746376 0
M  V30 23 C -2.15261 -2.3024 1.93628 0
M  V30 24 C -2.65786 -2.85605 3.08997 0
M  V30 25 C -3.85962 -3.576 3.07225 0
M  V30 26 C -4.53684 -3.727 1.88332 0
M  V30 27 C -4.02241 -3.16989 0.739505 0
M  V30 28 H -3.34386 2.42828 -3.22259 0
M  V30 29 H -2.06997 3.76075 -3.08866 0
M  V30 30 H -3.6528 3.91031 -2.26956 0
M  V30 31 H -2.38556 4.24489 -0.160899 0
M  V30 32 H -1.5251 3.06623 1.79156 0
M  V30 33 H -0.997016 0.610255 1.68277 0
M  V30 34 H -2.21543 0.557631 -2.37191 0
M  V30 35 H 1.05235 0.398901 -1.24741 0
M  V30 36 H 1.06519 0.130599 0.540155 0
M  V30 37 H 8.43235 -0.404639 0.213466 0
M  V30 38 H 8.11958 -0.90754 -1.49083 0
M  V30 39 H 5.36468 3.89473 0.60493 0
M  V30 40 H 4.45857 4.01218 -0.936772 0
M  V30 41 H -2.16855 -2.73546 -1.25455 0
M  V30 42 H -3.2709 -1.36038 -0.972822 0
M  V30 43 H -1.22506 -1.75661 1.98601 0
M  V30 44 H -2.18125 -2.77838 4.05622 0
M  V30 45 H -4.25852 -4.01149 3.97689 0
M  V30 46 H -5.47489 -4.29606 1.90083 0
M  V30 47 H -4.57208 -3.30051 -0.186398 0
M  V30 END ATOM
M  V30 BEGIN BOND
M  V30 1 1 1 2
M  V30 2 2 2 3
M  V30 3 1 3 4
M  V30 4 2 4 5
M  V30 5 1 5 6
M  V30 6 2 6 7
M  V30 7 1 6 8
M  V30 8 1 8 9
M  V30 9 2 9 10
M  V30 10 1 9 11
M  V30 11 1 11 12
M  V30 12 1 12 13
M  V30 13 2 13 14
M  V30 14 1 14 15
M  V30 15 1 15 16
M  V30 16 2 15 17
M  V30 17 1 17 18
M  V30 18 2 18 19
M  V30 19 1 18 20
M  V30 20 1 8 21
M  V30 21 1 21 22
M  V30 22 2 22 23
M  V30 23 1 23 24
M  V30 24 2 24 25
M  V30 25 1 25 26
M  V30 26 2 26 27
M  V30 27 1 7 2
M  V30 28 1 19 13
M  V30 29 1 27 22
M  V30 30 1 1 28
M  V30 31 1 1 29
M  V30 32 1 1 30
M  V30 33 1 3 31
M  V30 34 1 4 32
M  V30 35 1 5 33
M  V30 36 1 7 34
M  V30 37 1 11 35
M  V30 38 1 11 36
M  V30 39 1 16 37
M  V30 40 1 16 38
M  V30 41 1 20 39
M  V30 42 1 20 40
M  V30 43 1 21 41
M  V30 44 1 21 42
M  V30 45 1 23 43
M  V30 46 1 24 44
M  V30 47 1 25 45
M  V30 48 1 26 46
M  V30 49 1 27 47
M  V30 END BOND
M  V30 END CTAB
M  END
