
     RDKit          3D

  0  0  0  0  0  0  0  0  0  0999 V3000
M  V30 BEGIN CTAB
M  V30 COUNTS 31 31 0 0 0
M  V30 BEGIN ATOM
M  V30 1 O -3.3429 -1.87379 -0.393554 0
M  V30 2 C -2.19847 -1.78964 0.396788 0
M  V30 3 C -1.42239 -0.57187 -0.0697422 0
M  V30 4 C -2.29453 0.636325 0.106976 0
M  V30 5 C -1.74976 1.87296 -0.553438 0
M  V30 6 C -0.37113 2.23923 -0.0681662 0
M  V30 7 C 0.704952 1.42988 -0.732962 0
M  V30 8 N 0.862193 0.214443 0.041082 0
M  V30 9 C -0.158105 -0.503976 0.764183 0
M  V30 10 C 2.15717 -0.359574 0.115481 0
M  V30 11 N 2.60234 -0.916411 1.20141 0
M  V30 12 N 3.87575 -1.47582 1.25963 0
M  V30 13 N 2.95747 -0.298661 -1.06454 0
M  V30 14 H -3.08022 -2.40668 -1.20404 0
M  V30 15 H -2.44206 -1.64442 1.47065 0
M  V30 16 H -1.59403 -2.72335 0.324305 0
M  V30 17 H -1.10218 -0.737647 -1.11814 0
M  V30 18 H -3.27099 0.415179 -0.371458 0
M  V30 19 H -2.46894 0.772532 1.1833 0
M  V30 20 H -2.423 2.7119 -0.277237 0
M  V30 21 H -1.78717 1.77258 -1.64013 0
M  V30 22 H -0.33855 2.09848 1.03272 0
M  V30 23 H -0.236553 3.32553 -0.257157 0
M  V30 24 H 1.66168 2.02072 -0.743028 0
M  V30 25 H 0.458523 1.1948 -1.79679 0
M  V30 26 H 0.145421 -1.54445 0.997117 0
M  V30 27 H -0.401941 -0.0225755 1.73395 0
M  V30 28 H 4.23729 -2.19528 0.600385 0
M  V30 29 H 4.50617 -1.14285 2.02362 0
M  V30 30 H 2.95823 -1.05529 -1.77932 0
M  V30 31 H 3.55572 0.557719 -1.18189 0
M  V30 END ATOM
M  V30 BEGIN BOND
M  V30 1 1 1 2
M  V30 2 1 2 3
M  V30 3 1 3 4
M  V30 4 1 4 5
M  V30 5 1 5 6
M  V30 6 1 6 7
M  V30 7 1 7 8
M  V30 8 1 8 9
M  V30 9 1 8 10
M  V30 10 2 10 11 CFG=2
M  V30 11 1 11 12
M  V30 12 1 10 13
M  V30 13 1 9 3
M  V30 14 1 1 14
M  V30 15 1 2 15
M  V30 16 1 2 16
M  V30 17 1 3 17
M  V30 18 1 4 18
M  V30 19 1 4 19
M  V30 20 1 5 20
M  V30 21 1 5 21
M  V30 22 1 6 22
M  V30 23 1 6 23
M  V30 24 1 7 24
M  V30 25 1 7 25
M  V30 26 1 9 26
M  V30 27 1 9 27
M  V30 28 1 12 28
M  V30 29 1 12 29
M  V30 30 1 13 30
M  V30 31 1 13 31
M  V30 END BOND
M  V30 END CTAB
M  END
