
     RDKit          3D

  0  0  0  0  0  0  0  0  0  0999 V3000
M  V30 BEGIN CTAB
M  V30 COUNTS 31 33 0 0 0
M  V30 BEGIN ATOM
M  V30 1 C -4.73514 -0.377134 0.130704 0
M  V30 2 C -3.25324 -0.178951 0.14109 0
M  V30 3 C -2.7226 1.09041 0.0766633 0
M  V30 4 N -3.58372 2.21352 0.00022072 0
M  V30 5 C -1.34902 1.30731 0.0844011 0
M  V30 6 C -0.536756 0.202366 0.159105 0
M  V30 7 C -1.05755 -1.06642 0.223643 0
M  V30 8 C -2.43367 -1.28036 0.215699 0
M  V30 9 N -2.97663 -2.59291 0.282407 0
M  V30 10 C 0.935145 0.346495 0.172473 0
M  V30 11 N 1.84129 -0.598478 0.239495 0
M  V30 12 C 3.11903 -0.277915 0.24002 0
M  V30 13 C 3.43295 1.04707 0.169296 0
M  V30 14 S 1.87985 1.76977 0.105417 0
M  V30 15 C 4.75349 1.521 0.161738 0
M  V30 16 C 5.82305 0.651729 0.226863 0
M  V30 17 C 5.47739 -0.688527 0.297988 0
M  V30 18 C 4.21231 -1.1752 0.307084 0
M  V30 19 H -5.14931 -0.195952 1.14711 0
M  V30 20 H -4.98629 -1.42802 -0.119089 0
M  V30 21 H -5.2275 0.245204 -0.649824 0
M  V30 22 H -3.29198 3.15425 0.349869 0
M  V30 23 H -4.5389 2.1498 -0.40546 0
M  V30 24 H -0.962692 2.30863 0.0331059 0
M  V30 25 H -0.438771 -1.95102 0.282997 0
M  V30 26 H -2.67825 -3.21105 1.07648 0
M  V30 27 H -3.64134 -2.98633 -0.388528 0
M  V30 28 H 4.8639 2.58905 0.102646 0
M  V30 29 H 6.82068 1.01632 0.220774 0
M  V30 30 H 6.35025 -1.36286 0.349137 0
M  V30 31 H 4.05404 -2.2418 0.365405 0
M  V30 END ATOM
M  V30 BEGIN BOND
M  V30 1 1 1 2
M  V30 2 2 2 3
M  V30 3 1 3 4
M  V30 4 1 3 5
M  V30 5 2 5 6
M  V30 6 1 6 7
M  V30 7 2 7 8
M  V30 8 1 8 9
M  V30 9 1 6 10
M  V30 10 2 10 11
M  V30 11 1 11 12
M  V30 12 2 12 13
M  V30 13 1 13 14
M  V30 14 1 13 15
M  V30 15 2 15 16
M  V30 16 1 16 17
M  V30 17 2 17 18
M  V30 18 1 8 2
M  V30 19 1 14 10
M  V30 20 1 18 12
M  V30 21 1 1 19
M  V30 22 1 1 20
M  V30 23 1 1 21
M  V30 24 1 4 22
M  V30 25 1 4 23
M  V30 26 1 5 24
M  V30 27 1 7 25
M  V30 28 1 9 26
M  V30 29 1 9 27
M  V30 30 1 15 28
M  V30 31 1 16 29
M  V30 32 1 17 30
M  V30 33 1 18 31
M  V30 END BOND
M  V30 END CTAB
M  END
