
     RDKit          3D

  0  0  0  0  0  0  0  0  0  0999 V3000
M  V30 BEGIN CTAB
M  V30 COUNTS 24 24 0 0 0
M  V30 BEGIN ATOM
M  V30 1 Br 3.55716 0.555021 2.04073 0
M  V30 2 C 3.40736 0.600411 0.104758 0
M  V30 3 C 2.21898 0.0395549 -0.449949 0
M  V30 4 O 2.4285 -0.674748 -1.54414 0
M  V30 5 C 0.841192 0.0757884 -0.087788 0
M  V30 6 C 0.361423 0.813311 0.985494 0
M  V30 7 C -0.963416 0.895528 1.37143 0
M  V30 8 N -1.36152 1.68508 2.4917 0
M  V30 9 C -1.89281 0.184008 0.627236 0
M  V30 10 C -1.47707 -0.565381 -0.448378 0
M  V30 11 C -0.14629 -0.618251 -0.797451 0
M  V30 12 N 0.209215 -1.38691 -1.90177 0
M  V30 13 C -2.4987 -1.31796 -1.22114 0
M  V30 14 H 3.4602 1.7115 -0.138157 0
M  V30 15 H 4.36274 0.249391 -0.374445 0
M  V30 16 H 1.04787 1.40371 1.60166 0
M  V30 17 H -0.639138 1.96494 3.16744 0
M  V30 18 H -2.33746 1.96489 2.61731 0
M  V30 19 H -2.93543 0.241506 0.920736 0
M  V30 20 H 0.228756 -0.97549 -2.8564 0
M  V30 21 H 0.461552 -2.38792 -1.78844 0
M  V30 22 H -2.10616 -2.27749 -1.62828 0
M  V30 23 H -2.81527 -0.667877 -2.06883 0
M  V30 24 H -3.41169 -1.51262 -0.62332 0
M  V30 END ATOM
M  V30 BEGIN BOND
M  V30 1 1 1 2
M  V30 2 1 2 3
M  V30 3 2 3 4
M  V30 4 1 3 5
M  V30 5 2 5 6
M  V30 6 1 6 7
M  V30 7 1 7 8
M  V30 8 2 7 9
M  V30 9 1 9 10
M  V30 10 2 10 11
M  V30 11 1 11 12
M  V30 12 1 10 13
M  V30 13 1 11 5
M  V30 14 1 2 14
M  V30 15 1 2 15
M  V30 16 1 6 16
M  V30 17 1 8 17
M  V30 18 1 8 18
M  V30 19 1 9 19
M  V30 20 1 12 20
M  V30 21 1 12 21
M  V30 22 1 13 22
M  V30 23 1 13 23
M  V30 24 1 13 24
M  V30 END BOND
M  V30 END CTAB
M  END
