
     RDKit          3D

  0  0  0  0  0  0  0  0  0  0999 V3000
M  V30 BEGIN CTAB
M  V30 COUNTS 41 43 0 0 0
M  V30 BEGIN ATOM
M  V30 1 N 7.44181 -0.432471 -3.30655 0
M  V30 2 C 6.34203 -0.384927 -2.38392 0
M  V30 3 S 6.28557 0.276113 -0.794038 0
M  V30 4 C 4.65917 -0.075409 -0.417615 0
M  V30 5 C 4.23881 -0.697018 -1.56341 0
M  V30 6 N 5.11061 -0.833716 -2.52666 0
M  V30 7 C 2.89316 -1.136 -1.59893 0
M  V30 8 C 2.09782 -0.926783 -0.522198 0
M  V30 9 C 2.49772 -0.306027 0.6367 0
M  V30 10 C 3.8027 0.123136 0.679198 0
M  V30 11 C 1.61167 -0.107794 1.75472 0
M  V30 12 O 2.0728 0.474496 2.77678 0
M  V30 13 N 0.259649 -0.523735 1.77966 0
M  V30 14 C -0.547035 -0.281132 2.94293 0
M  V30 15 C -1.95184 -0.758775 2.86028 0
M  V30 16 C -2.77217 -0.191058 1.79578 0
M  V30 17 C -2.85817 -0.825771 0.577961 0
M  V30 18 C -3.62746 -0.305904 -0.46213 0
M  V30 19 C -4.31706 0.868313 -0.267657 0
M  V30 20 C -4.23053 1.49637 0.941654 0
M  V30 21 C -3.46989 0.981505 1.96833 0
M  V30 22 S -5.27711 1.51342 -1.57149 0
M  V30 23 O -5.69334 0.384533 -2.47162 0
M  V30 24 O -6.51646 2.18258 -1.08781 0
M  V30 25 N -4.29147 2.57401 -2.53016 0
M  V30 26 H 7.77658 0.464613 -3.68966 0
M  V30 27 H 7.86652 -1.32697 -3.56456 0
M  V30 28 H 2.49004 -1.63425 -2.46851 0
M  V30 29 H 1.05825 -1.28794 -0.601235 0
M  V30 30 H 4.23394 0.623676 1.53341 0
M  V30 31 H -0.172648 -1.00748 0.968084 0
M  V30 32 H -0.0618265 -0.854185 3.78511 0
M  V30 33 H -0.491945 0.796871 3.23681 0
M  V30 34 H -1.90417 -1.87522 2.69094 0
M  V30 35 H -2.4327 -0.566219 3.85485 0
M  V30 36 H -2.33722 -1.75587 0.381036 0
M  V30 37 H -3.64952 -0.855132 -1.38961 0
M  V30 38 H -4.78137 2.43672 1.10117 0
M  V30 39 H -3.38618 1.46808 2.94572 0
M  V30 40 H -3.29581 2.31609 -2.5052 0
M  V30 41 H -4.67296 2.56606 -3.48817 0
M  V30 END ATOM
M  V30 BEGIN BOND
M  V30 1 1 1 2
M  V30 2 1 2 3
M  V30 3 1 3 4
M  V30 4 2 4 5
M  V30 5 1 5 6
M  V30 6 1 5 7
M  V30 7 2 7 8
M  V30 8 1 8 9
M  V30 9 2 9 10
M  V30 10 1 9 11
M  V30 11 2 11 12
M  V30 12 1 11 13
M  V30 13 1 13 14
M  V30 14 1 14 15
M  V30 15 1 15 16
M  V30 16 2 16 17
M  V30 17 1 17 18
M  V30 18 2 18 19
M  V30 19 1 19 20
M  V30 20 2 20 21
M  V30 21 1 19 22
M  V30 22 2 22 23
M  V30 23 2 22 24
M  V30 24 1 22 25
M  V30 25 2 6 2
M  V30 26 1 21 16
M  V30 27 1 10 4
M  V30 28 1 1 26
M  V30 29 1 1 27
M  V30 30 1 7 28
M  V30 31 1 8 29
M  V30 32 1 10 30
M  V30 33 1 13 31
M  V30 34 1 14 32
M  V30 35 1 14 33
M  V30 36 1 15 34
M  V30 37 1 15 35
M  V30 38 1 17 36
M  V30 39 1 18 37
M  V30 40 1 20 38
M  V30 41 1 21 39
M  V30 42 1 25 40
M  V30 43 1 25 41
M  V30 END BOND
M  V30 END CTAB
M  END
