
     RDKit          3D

  0  0  0  0  0  0  0  0  0  0999 V3000
M  V30 BEGIN CTAB
M  V30 COUNTS 26 26 0 0 0
M  V30 BEGIN ATOM
M  V30 1 N 3.91204 1.63159 0.213697 0
M  V30 2 C 2.79315 0.844217 -0.339485 0
M  V30 3 C 2.42582 -0.183017 0.683537 0
M  V30 4 N 1.35234 -1.03718 0.28592 0
M  V30 5 C 0.0433829 -0.530408 0.102059 0
M  V30 6 N -0.286577 0.747734 0.30413 0
M  V30 7 C -1.49739 1.29449 0.162059 0
M  V30 8 C -2.52407 0.43965 -0.239554 0
M  V30 9 C -2.25731 -0.899959 -0.468228 0
M  V30 10 C -0.989719 -1.3885 -0.301619 0
M  V30 11 N -0.721052 -2.75281 -0.535151 0
M  V30 12 C -3.86834 1.03562 -0.399674 0
M  V30 13 H 3.49977 2.29001 0.914751 0
M  V30 14 H 4.60444 0.980379 0.650542 0
M  V30 15 H 1.97313 1.5631 -0.457166 0
M  V30 16 H 3.11489 0.412236 -1.30003 0
M  V30 17 H 2.16928 0.371726 1.63328 0
M  V30 18 H 3.35587 -0.746494 0.933905 0
M  V30 19 H 1.53208 -2.04423 0.128928 0
M  V30 20 H -1.70268 2.34276 0.341749 0
M  V30 21 H -3.10659 -1.50128 -0.777885 0
M  V30 22 H -0.797479 -3.42824 0.241324 0
M  V30 23 H -0.449446 -3.06987 -1.4804 0
M  V30 24 H -4.14073 1.48187 0.583045 0
M  V30 25 H -4.6298 0.293461 -0.666579 0
M  V30 26 H -3.80501 1.85315 -1.16695 0
M  V30 END ATOM
M  V30 BEGIN BOND
M  V30 1 1 1 2
M  V30 2 1 2 3
M  V30 3 1 3 4
M  V30 4 1 4 5
M  V30 5 2 5 6
M  V30 6 1 6 7
M  V30 7 2 7 8
M  V30 8 1 8 9
M  V30 9 2 9 10
M  V30 10 1 10 11
M  V30 11 1 8 12
M  V30 12 1 10 5
M  V30 13 1 1 13
M  V30 14 1 1 14
M  V30 15 1 2 15
M  V30 16 1 2 16
M  V30 17 1 3 17
M  V30 18 1 3 18
M  V30 19 1 4 19
M  V30 20 1 7 20
M  V30 21 1 9 21
M  V30 22 1 11 22
M  V30 23 1 11 23
M  V30 24 1 12 24
M  V30 25 1 12 25
M  V30 26 1 12 26
M  V30 END BOND
M  V30 END CTAB
M  END
