
     RDKit          3D

  0  0  0  0  0  0  0  0  0  0999 V3000
M  V30 BEGIN CTAB
M  V30 COUNTS 25 25 0 0 0
M  V30 BEGIN ATOM
M  V30 1 C 3.08092 -0.165894 -1.52069 0
M  V30 2 S 2.51079 0.829036 -0.0942494 0
M  V30 3 C 1.59865 -0.202115 1.05194 0
M  V30 4 C 0.306507 -0.740862 0.538935 0
M  V30 5 C -0.696635 0.249806 0.151689 0
M  V30 6 C -0.548949 1.59482 0.394566 0
M  V30 7 C -1.5408 2.47953 0.00863484 0
M  V30 8 C -2.69795 2.01893 -0.628983 0
M  V30 9 N -2.78508 0.703867 -0.837567 0
M  V30 10 C -1.8574 -0.191622 -0.485155 0
M  V30 11 N -2.07622 -1.56771 -0.767412 0
M  V30 12 N -0.247189 -1.61179 1.56049 0
M  V30 13 H 4.14596 0.0162971 -1.73295 0
M  V30 14 H 2.43848 0.0300901 -2.41109 0
M  V30 15 H 2.97757 -1.23636 -1.27754 0
M  V30 16 H 1.48383 0.308082 2.02709 0
M  V30 17 H 2.24857 -1.09813 1.27424 0
M  V30 18 H 0.481001 -1.37218 -0.387071 0
M  V30 19 H 0.313868 2.02018 0.885115 0
M  V30 20 H -1.47168 3.53715 0.175583 0
M  V30 21 H -3.46754 2.70344 -0.929145 0
M  V30 22 H -2.58079 -2.16732 -0.0871162 0
M  V30 23 H -1.7412 -2.00156 -1.64865 0
M  V30 24 H 0.315133 -1.52631 2.43194 0
M  V30 25 H -0.189838 -2.60938 1.2562 0
M  V30 END ATOM
M  V30 BEGIN BOND
M  V30 1 1 1 2
M  V30 2 1 2 3
M  V30 3 1 3 4
M  V30 4 1 4 5
M  V30 5 2 5 6
M  V30 6 1 6 7
M  V30 7 2 7 8
M  V30 8 1 8 9
M  V30 9 2 9 10
M  V30 10 1 10 11
M  V30 11 1 4 12
M  V30 12 1 10 5
M  V30 13 1 1 13
M  V30 14 1 1 14
M  V30 15 1 1 15
M  V30 16 1 3 16
M  V30 17 1 3 17
M  V30 18 1 4 18
M  V30 19 1 6 19
M  V30 20 1 7 20
M  V30 21 1 8 21
M  V30 22 1 11 22
M  V30 23 1 11 23
M  V30 24 1 12 24
M  V30 25 1 12 25
M  V30 END BOND
M  V30 END CTAB
M  END
