
     RDKit          3D

  0  0  0  0  0  0  0  0  0  0999 V3000
M  V30 BEGIN CTAB
M  V30 COUNTS 107 110 0 0 0
M  V30 BEGIN ATOM
M  V30 1 C -9.91608 -1.27951 2.66374 0
M  V30 2 C -10.1685 0.167086 3.09917 0
M  V30 3 S -9.65974 1.29941 1.85633 0
M  V30 4 C -10.4061 1.3056 0.266804 0
M  V30 5 S -12.0211 1.94624 0.119088 0
M  V30 6 C -13.3843 1.00939 0.695186 0
M  V30 7 C -13.5634 0.865896 2.15862 0
M  V30 8 C -9.47518 2.07599 -0.692836 0 CFG=2
M  V30 9 C -10.0752 2.09238 -2.07466 0
M  V30 10 C -9.93535 0.623748 -2.50649 0
M  V30 11 C -8.69135 0.151107 -1.71012 0
M  V30 12 N -8.25963 1.28808 -0.941433 0
M  V30 13 C -6.97365 1.68365 -0.565547 0
M  V30 14 O -6.89458 2.87927 -0.0429862 0
M  V30 15 C -5.74149 0.983577 -0.669489 0
M  V30 16 C -5.59682 -0.369538 -0.939615 0
M  V30 17 C -4.37288 -1.00823 -0.953755 0
M  V30 18 O -4.31241 -2.34784 -1.22845 0
M  V30 19 C -5.46743 -3.12261 -1.49813 0
M  V30 20 C -3.22111 -0.288528 -0.689201 0
M  V30 21 O -2.02802 -0.934642 -0.714811 0
M  V30 22 C -0.760131 -0.433955 -0.55836 0
M  V30 23 C -0.305754 0.48201 -1.658 0
M  V30 24 C 1.11254 0.967306 -1.3486 0
M  V30 25 O 1.9667 -0.153283 -1.20639 0
M  V30 26 C 3.32811 -0.063711 -0.959084 0
M  V30 27 C 3.98458 1.13291 -0.852835 0
M  V30 28 C 5.3336 1.1716 -0.60576 0
M  V30 29 N 5.97187 2.44748 -0.496967 0
M  V30 30 C 6.11117 0.0149312 -0.449147 0
M  V30 31 C 5.42537 -1.16357 -0.560884 0
M  V30 32 C 4.04517 -1.22609 -0.813633 0
M  V30 33 O 3.37986 -2.43763 -0.921288 0
M  V30 34 C 4.12331 -3.62665 -0.772322 0
M  V30 35 C 7.53826 0.086769 -0.283863 0
M  V30 36 O 7.96178 1.31974 -0.485784 0
M  V30 37 N 8.50622 -0.839932 0.0311477 0
M  V30 38 C 8.44551 -2.23973 0.364018 0
M  V30 39 C 9.33471 -2.79326 -0.772032 0
M  V30 40 C 10.2411 -1.60087 -1.17034 0
M  V30 41 C 9.96827 -0.693147 0.0253318 0 CFG=1
M  V30 42 C 10.5927 0.616323 0.0301606 0
M  V30 43 S 12.3847 0.414629 -0.0683513 0
M  V30 44 C 13.1913 -0.388923 1.27621 0
M  V30 45 C 12.8801 -1.83961 1.48888 0
M  V30 46 S 10.1136 1.73774 1.32245 0
M  V30 47 C 10.4771 1.30246 2.99501 0
M  V30 48 C 9.83503 2.38379 3.89286 0
M  V30 49 C -3.35249 1.05059 -0.418673 0
M  V30 50 C -4.56018 1.70052 -0.401205 0
M  V30 51 N -4.58859 3.09099 -0.127598 0
M  V30 52 H -10.4987 -1.94128 3.2988 0
M  V30 53 H -8.86652 -1.50822 2.75364 0
M  V30 54 H -10.1922 -1.33298 1.58878 0
M  V30 55 H -11.1192 0.300037 3.60563 0
M  V30 56 H -9.40234 0.280732 3.96712 0
M  V30 57 H -10.3831 0.208137 -0.167709 0
M  V30 58 H -14.3765 1.38296 0.283939 0
M  V30 59 H -13.2711 -0.0532357 0.286327 0
M  V30 60 H -14.615 1.06032 2.49486 0
M  V30 61 H -13.3442 -0.173023 2.53814 0
M  V30 62 H -12.9515 1.57638 2.76419 0
M  V30 63 H -9.27587 3.04142 -0.285621 0
M  V30 64 H -9.39383 2.69499 -2.7172 0
M  V30 65 H -11.1119 2.44382 -2.12582 0
M  V30 66 H -9.79279 0.536727 -3.57943 0
M  V30 67 H -10.7919 0.0478351 -2.15392 0
M  V30 68 H -7.94669 -0.0868121 -2.53018 0
M  V30 69 H -8.88309 -0.761235 -1.16127 0
M  V30 70 H -6.47936 -0.981642 -1.12168 0
M  V30 71 H -5.21919 -4.1512 -1.74269 0
M  V30 72 H -6.00451 -2.59506 -2.32064 0
M  V30 73 H -6.13021 -3.08029 -0.596078 0
M  V30 74 H -0.656899 0.143612 0.413634 0
M  V30 75 H -0.0121021 -1.26587 -0.446969 0
M  V30 76 H -0.91951 1.35869 -1.79789 0
M  V30 77 H -0.25285 -0.0703525 -2.63791 0
M  V30 78 H 1.50834 1.58883 -2.16941 0
M  V30 79 H 1.04621 1.51362 -0.389557 0
M  V30 80 H 3.42587 2.05071 -0.964392 0
M  V30 81 H 6.30623 2.93131 -1.36117 0
M  V30 82 H 6.13004 2.93913 0.407954 0
M  V30 83 H 5.89095 -2.12584 -0.492086 0
M  V30 84 H 4.99575 -3.67223 -1.46623 0
M  V30 85 H 4.54938 -3.72875 0.257396 0
M  V30 86 H 3.51035 -4.5324 -0.985327 0
M  V30 87 H 9.11935 -2.36586 1.30265 0
M  V30 88 H 7.5308 -2.73713 0.508656 0
M  V30 89 H 8.72506 -3.14732 -1.59987 0
M  V30 90 H 10.003 -3.5836 -0.421661 0
M  V30 91 H 11.2823 -1.90881 -1.26201 0
M  V30 92 H 9.79129 -1.14866 -2.05621 0
M  V30 93 H 10.3155 -1.32373 0.90639 0
M  V30 94 H 10.3452 1.14499 -0.969028 0
M  V30 95 H 14.3063 -0.369765 1.0293 0
M  V30 96 H 13.1534 0.104287 2.26453 0
M  V30 97 H 12.107 -1.99061 2.29565 0
M  V30 98 H 12.6893 -2.41893 0.587029 0
M  V30 99 H 13.8001 -2.31873 1.95391 0
M  V30 100 H 11.5417 1.36375 3.23463 0
M  V30 101 H 10.0061 0.3516 3.31574 0
M  V30 102 H 9.57388 3.28998 3.30423 0
M  V30 103 H 10.5207 2.70734 4.69576 0
M  V30 104 H 8.8477 2.01788 4.29674 0
M  V30 105 H -2.45542 1.65018 -0.179483 0
M  V30 106 H -4.61497 3.75952 -0.909179 0
M  V30 107 H -4.58148 3.44486 0.84234 0
M  V30 END ATOM
M  V30 BEGIN BOND
M  V30 1 1 1 2
M  V30 2 1 2 3
M  V30 3 1 3 4
M  V30 4 1 4 5
M  V30 5 1 5 6
M  V30 6 1 6 7
M  V30 7 1 4 8
M  V30 8 1 8 9
M  V30 9 1 9 10
M  V30 10 1 10 11
M  V30 11 1 11 12
M  V30 12 1 12 13
M  V30 13 2 13 14
M  V30 14 1 13 15
M  V30 15 2 15 16
M  V30 16 1 16 17
M  V30 17 1 17 18
M  V30 18 1 18 19
M  V30 19 2 17 20
M  V30 20 1 20 21
M  V30 21 1 21 22
M  V30 22 1 22 23
M  V30 23 1 23 24
M  V30 24 1 24 25
M  V30 25 1 25 26
M  V30 26 2 26 27
M  V30 27 1 27 28
M  V30 28 1 28 29
M  V30 29 2 28 30
M  V30 30 1 30 31
M  V30 31 2 31 32
M  V30 32 1 32 33
M  V30 33 1 33 34
M  V30 34 1 30 35
M  V30 35 2 35 36
M  V30 36 1 35 37
M  V30 37 1 37 38
M  V30 38 1 38 39
M  V30 39 1 39 40
M  V30 40 1 40 41
M  V30 41 1 41 42
M  V30 42 1 42 43
M  V30 43 1 43 44
M  V30 44 1 44 45
M  V30 45 1 42 46
M  V30 46 1 46 47
M  V30 47 1 47 48
M  V30 48 1 20 49
M  V30 49 2 49 50
M  V30 50 1 50 51
M  V30 51 1 12 8
M  V30 52 1 50 15
M  V30 53 1 32 26
M  V30 54 1 41 37
M  V30 55 1 1 52
M  V30 56 1 1 53
M  V30 57 1 1 54
M  V30 58 1 2 55
M  V30 59 1 2 56
M  V30 60 1 4 57
M  V30 61 1 6 58
M  V30 62 1 6 59
M  V30 63 1 7 60
M  V30 64 1 7 61
M  V30 65 1 7 62
M  V30 66 1 8 63 CFG=1
M  V30 67 1 9 64
M  V30 68 1 9 65
M  V30 69 1 10 66
M  V30 70 1 10 67
M  V30 71 1 11 68
M  V30 72 1 11 69
M  V30 73 1 16 70
M  V30 74 1 19 71
M  V30 75 1 19 72
M  V30 76 1 19 73
M  V30 77 1 22 74
M  V30 78 1 22 75
M  V30 79 1 23 76
M  V30 80 1 23 77
M  V30 81 1 24 78
M  V30 82 1 24 79
M  V30 83 1 27 80
M  V30 84 1 29 81
M  V30 85 1 29 82
M  V30 86 1 31 83
M  V30 87 1 34 84
M  V30 88 1 34 85
M  V30 89 1 34 86
M  V30 90 1 38 87
M  V30 91 1 38 88
M  V30 92 1 39 89
M  V30 93 1 39 90
M  V30 94 1 40 91
M  V30 95 1 40 92
M  V30 96 1 41 93 CFG=1
M  V30 97 1 42 94
M  V30 98 1 44 95
M  V30 99 1 44 96
M  V30 100 1 45 97
M  V30 101 1 45 98
M  V30 102 1 45 99
M  V30 103 1 47 100
M  V30 104 1 47 101
M  V30 105 1 48 102
M  V30 106 1 48 103
M  V30 107 1 48 104
M  V30 108 1 49 105
M  V30 109 1 51 106
M  V30 110 1 51 107
M  V30 END BOND
M  V30 END CTAB
M  END
