
     RDKit          3D

  0  0  0  0  0  0  0  0  0  0999 V3000
M  V30 BEGIN CTAB
M  V30 COUNTS 30 31 0 0 0
M  V30 BEGIN ATOM
M  V30 1 N -4.3405 -0.764356 -1.47835 0
M  V30 2 C -3.55992 -0.183758 -0.446595 0
M  V30 3 C -2.17659 -0.290254 -0.544363 0
M  V30 4 N -1.61126 -0.96388 -1.65328 0
M  V30 5 C -1.33786 0.243414 0.41125 0
M  V30 6 O 0.0214197 0.101438 0.251847 0
M  V30 7 C 0.998267 0.580737 1.12348 0
M  V30 8 C 2.33532 0.210598 0.575701 0
M  V30 9 C 3.00653 1.05487 -0.285495 0
M  V30 10 C 4.24381 0.752177 -0.815087 0
M  V30 11 C 4.85824 -0.42506 -0.493679 0
M  V30 12 C 4.1996 -1.27944 0.366139 0
M  V30 13 C 2.95628 -0.978737 0.900286 0
M  V30 14 C -1.92551 0.892562 1.47729 0
M  V30 15 C -3.31313 1.00781 1.58965 0
M  V30 16 C -4.13648 0.474309 0.635248 0
M  V30 17 H -4.33889 -0.297894 -2.40827 0
M  V30 18 H -4.90603 -1.62606 -1.34223 0
M  V30 19 H -1.67941 -2.00417 -1.68982 0
M  V30 20 H -1.12991 -0.474101 -2.43609 0
M  V30 21 H 0.882513 0.121427 2.12714 0
M  V30 22 H 0.980945 1.68816 1.23766 0
M  V30 23 H 2.54887 1.99062 -0.558399 0
M  V30 24 H 4.77513 1.41778 -1.49527 0
M  V30 25 H 5.82722 -0.740103 -0.864029 0
M  V30 26 H 4.64803 -2.22797 0.651542 0
M  V30 27 H 2.44137 -1.65247 1.57577 0
M  V30 28 H -1.26826 1.31617 2.23529 0
M  V30 29 H -3.77323 1.51759 2.4269 0
M  V30 30 H -5.22658 0.538594 0.678984 0
M  V30 END ATOM
M  V30 BEGIN BOND
M  V30 1 1 1 2
M  V30 2 2 2 3
M  V30 3 1 3 4
M  V30 4 1 3 5
M  V30 5 1 5 6
M  V30 6 1 6 7
M  V30 7 1 7 8
M  V30 8 2 8 9
M  V30 9 1 9 10
M  V30 10 2 10 11
M  V30 11 1 11 12
M  V30 12 2 12 13
M  V30 13 2 5 14
M  V30 14 1 14 15
M  V30 15 2 15 16
M  V30 16 1 16 2
M  V30 17 1 13 8
M  V30 18 1 1 17
M  V30 19 1 1 18
M  V30 20 1 4 19
M  V30 21 1 4 20
M  V30 22 1 7 21
M  V30 23 1 7 22
M  V30 24 1 9 23
M  V30 25 1 10 24
M  V30 26 1 11 25
M  V30 27 1 12 26
M  V30 28 1 13 27
M  V30 29 1 14 28
M  V30 30 1 15 29
M  V30 31 1 16 30
M  V30 END BOND
M  V30 END CTAB
M  END
