
     RDKit          3D

  0  0  0  0  0  0  0  0  0  0999 V3000
M  V30 BEGIN CTAB
M  V30 COUNTS 31 31 0 0 0
M  V30 BEGIN ATOM
M  V30 1 C -2.67613 1.36626 1.70893 0
M  V30 2 C -2.18191 -0.0366492 1.25826 0
M  V30 3 N -1.57827 0.0852033 -0.0452697 0
M  V30 4 C -2.30592 0.338586 -1.25132 0
M  V30 5 C -3.20073 -0.826548 -1.64052 0
M  V30 6 C -0.15377 -0.0205846 -0.0945746 0
M  V30 7 N 0.525793 -0.861146 0.697914 0
M  V30 8 C 1.86679 -0.935584 0.733587 0
M  V30 9 C 2.62205 -1.86808 1.59985 0
M  V30 10 C 2.56353 -0.0717807 -0.117527 0
M  V30 11 N 3.97728 -0.0911179 -0.108863 0
M  V30 12 C 1.91327 0.813903 -0.957299 0
M  V30 13 N 2.63867 1.69495 -1.795 0
M  V30 14 N 0.566696 0.791332 -0.900179 0
M  V30 15 H -1.78396 1.9309 2.0231 0
M  V30 16 H -3.14429 1.79097 0.787489 0
M  V30 17 H -3.45003 1.22323 2.46156 0
M  V30 18 H -1.4771 -0.451488 1.98107 0
M  V30 19 H -3.10387 -0.661371 1.26544 0
M  V30 20 H -1.59654 0.477447 -2.09566 0
M  V30 21 H -2.87942 1.25829 -1.15971 0
M  V30 22 H -3.84483 -1.16306 -0.816059 0
M  V30 23 H -3.8923 -0.471239 -2.44901 0
M  V30 24 H -2.59428 -1.69339 -1.97058 0
M  V30 25 H 3.57276 -1.43657 1.92479 0
M  V30 26 H 2.86671 -2.77928 0.978528 0
M  V30 27 H 1.97821 -2.25037 2.42633 0
M  V30 28 H 4.48691 -0.887893 -0.550335 0
M  V30 29 H 4.46429 0.722299 0.357697 0
M  V30 30 H 2.76083 1.422 -2.80002 0
M  V30 31 H 3.05956 2.59078 -1.45262 0
M  V30 END ATOM
M  V30 BEGIN BOND
M  V30 1 1 1 2
M  V30 2 1 2 3
M  V30 3 1 3 4
M  V30 4 1 4 5
M  V30 5 1 3 6
M  V30 6 2 6 7
M  V30 7 1 7 8
M  V30 8 1 8 9
M  V30 9 2 8 10
M  V30 10 1 10 11
M  V30 11 1 10 12
M  V30 12 1 12 13
M  V30 13 2 12 14
M  V30 14 1 14 6
M  V30 15 1 1 15
M  V30 16 1 1 16
M  V30 17 1 1 17
M  V30 18 1 2 18
M  V30 19 1 2 19
M  V30 20 1 4 20
M  V30 21 1 4 21
M  V30 22 1 5 22
M  V30 23 1 5 23
M  V30 24 1 5 24
M  V30 25 1 9 25
M  V30 26 1 9 26
M  V30 27 1 9 27
M  V30 28 1 11 28
M  V30 29 1 11 29
M  V30 30 1 13 30
M  V30 31 1 13 31
M  V30 END BOND
M  V30 END CTAB
M  END
