
     RDKit          3D

  0  0  0  0  0  0  0  0  0  0999 V3000
M  V30 BEGIN CTAB
M  V30 COUNTS 37 39 0 0 0
M  V30 BEGIN ATOM
M  V30 1 C -6.58868 -0.0527321 1.83691 0
M  V30 2 C -5.30013 -0.202392 1.09979 0
M  V30 3 C -4.7107 0.874382 0.483733 0
M  V30 4 C -3.50521 0.725713 -0.203616 0
M  V30 5 C -2.90145 -0.488374 -0.270253 0
M  V30 6 C -3.455 -1.57156 0.325797 0
M  V30 7 C -4.65096 -1.41517 1.00547 0
M  V30 8 C -1.62068 -0.594058 -1.01184 0
M  V30 9 S -0.631871 -1.95828 -1.27698 0
M  V30 10 C 0.6079 -1.19254 -2.20083 0
M  V30 11 C 0.153692 0.0989572 -2.23715 0
M  V30 12 N -0.959484 0.365749 -1.63587 0
M  V30 13 C 0.948843 1.18138 -2.94969 0
M  V30 14 S 1.91902 2.04893 -1.74535 0
M  V30 15 C 3.22146 1.16686 -0.97834 0
M  V30 16 N 3.59448 -0.0946004 -1.19478 0
M  V30 17 C 4.6085 -0.693752 -0.558401 0
M  V30 18 N 4.9684 -2.06065 -0.833641 0
M  V30 19 C 5.31555 0.0250827 0.377449 0
M  V30 20 C 4.95204 1.31979 0.616783 0
M  V30 21 N 3.94143 1.85646 -0.0437275 0
M  V30 22 N 5.68334 2.07516 1.59059 0
M  V30 23 H -6.62926 0.86426 2.43603 0
M  V30 24 H -7.4409 -0.126075 1.13818 0
M  V30 25 H -6.65948 -0.930504 2.52253 0
M  V30 26 H -5.15268 1.85437 0.51042 0
M  V30 27 H -3.06214 1.5894 -0.679883 0
M  V30 28 H -2.9794 -2.53517 0.275048 0
M  V30 29 H -5.1365 -2.25498 1.50137 0
M  V30 30 H 1.51335 -1.64043 -2.64715 0
M  V30 31 H 1.49806 0.745283 -3.79414 0
M  V30 32 H 0.23651 1.92206 -3.40838 0
M  V30 33 H 5.86868 -2.25488 -1.31609 0
M  V30 34 H 4.37803 -2.87598 -0.577736 0
M  V30 35 H 6.13849 -0.439064 0.903421 0
M  V30 36 H 6.09687 1.56709 2.37887 0
M  V30 37 H 5.7399 3.10028 1.42068 0
M  V30 END ATOM
M  V30 BEGIN BOND
M  V30 1 1 1 2
M  V30 2 2 2 3
M  V30 3 1 3 4
M  V30 4 2 4 5
M  V30 5 1 5 6
M  V30 6 2 6 7
M  V30 7 1 5 8
M  V30 8 1 8 9
M  V30 9 1 9 10
M  V30 10 2 10 11
M  V30 11 1 11 12
M  V30 12 1 11 13
M  V30 13 1 13 14
M  V30 14 1 14 15
M  V30 15 2 15 16
M  V30 16 1 16 17
M  V30 17 1 17 18
M  V30 18 2 17 19
M  V30 19 1 19 20
M  V30 20 2 20 21
M  V30 21 1 20 22
M  V30 22 1 7 2
M  V30 23 2 12 8
M  V30 24 1 21 15
M  V30 25 1 1 23
M  V30 26 1 1 24
M  V30 27 1 1 25
M  V30 28 1 3 26
M  V30 29 1 4 27
M  V30 30 1 6 28
M  V30 31 1 7 29
M  V30 32 1 10 30
M  V30 33 1 13 31
M  V30 34 1 13 32
M  V30 35 1 18 33
M  V30 36 1 18 34
M  V30 37 1 19 35
M  V30 38 1 22 36
M  V30 39 1 22 37
M  V30 END BOND
M  V30 END CTAB
M  END
