
     RDKit          3D

  0  0  0  0  0  0  0  0  0  0999 V3000
M  V30 BEGIN CTAB
M  V30 COUNTS 41 41 0 0 0
M  V30 BEGIN ATOM
M  V30 1 C -5.03054 -1.25645 0.116083 0
M  V30 2 C -4.3608 -0.980582 -1.15735 0
M  V30 3 C -3.26544 0.121847 -1.13973 0
M  V30 4 C -2.24045 -0.261452 -0.143468 0
M  V30 5 C -0.947121 0.489957 -0.0594403 0
M  V30 6 O -0.89853 1.628 0.325657 0
M  V30 7 N 0.201873 -0.296273 -0.4531 0
M  V30 8 C 1.51554 0.13447 -0.374793 0
M  V30 9 C 2.47828 -0.893545 -0.208974 0
M  V30 10 C 3.79625 -0.659832 -0.0621467 0
M  V30 11 C 4.7514 -1.76281 0.153953 0
M  V30 12 N 4.287 -3.05688 -0.269321 0
M  V30 13 C 4.25239 0.641599 -0.0780518 0
M  V30 14 C 3.38679 1.69847 -0.235912 0
M  V30 15 C 2.01804 1.39087 -0.385482 0
M  V30 16 C 3.87375 3.11228 -0.203822 0
M  V30 17 F 3.08457 3.88398 0.618402 0
M  V30 18 F 5.12858 3.09438 0.408832 0
M  V30 19 F 4.03069 3.65694 -1.45939 0
M  V30 20 N -2.84874 0.196695 1.20708 0
M  V30 21 C -3.99069 1.42804 -0.782479 0
M  V30 22 H -4.34617 -1.59838 0.957139 0
M  V30 23 H -5.6038 -2.2473 -0.054085 0
M  V30 24 H -5.79184 -0.58201 0.489783 0
M  V30 25 H -5.09261 -0.691358 -1.93939 0
M  V30 26 H -3.81511 -1.89896 -1.48017 0
M  V30 27 H -2.91944 0.184203 -2.15169 0
M  V30 28 H -2.10914 -1.32619 0.00282453 0
M  V30 29 H 0.00846842 -1.2799 -0.865709 0
M  V30 30 H 2.17038 -1.93143 -0.190083 0
M  V30 31 H 4.85862 -1.82717 1.29319 0
M  V30 32 H 5.7308 -1.51477 -0.258609 0
M  V30 33 H 3.46574 -3.40559 0.213196 0
M  V30 34 H 4.95808 -3.69568 -0.67001 0
M  V30 35 H 5.30377 0.878422 0.0351473 0
M  V30 36 H 1.37129 2.23377 -0.534139 0
M  V30 37 H -2.84022 1.2578 1.13455 0
M  V30 38 H -2.12953 -0.0565586 1.90574 0
M  V30 39 H -3.24674 2.20861 -0.694024 0
M  V30 40 H -4.50933 1.32187 0.197514 0
M  V30 41 H -4.68607 1.66091 -1.59602 0
M  V30 END ATOM
M  V30 BEGIN BOND
M  V30 1 1 1 2
M  V30 2 1 2 3
M  V30 3 1 3 4
M  V30 4 1 4 5
M  V30 5 2 5 6
M  V30 6 1 5 7
M  V30 7 1 7 8
M  V30 8 2 8 9
M  V30 9 1 9 10
M  V30 10 1 10 11
M  V30 11 1 11 12
M  V30 12 2 10 13
M  V30 13 1 13 14
M  V30 14 2 14 15
M  V30 15 1 14 16
M  V30 16 1 16 17
M  V30 17 1 16 18
M  V30 18 1 16 19
M  V30 19 1 4 20
M  V30 20 1 3 21
M  V30 21 1 15 8
M  V30 22 1 1 22
M  V30 23 1 1 23
M  V30 24 1 1 24
M  V30 25 1 2 25
M  V30 26 1 2 26
M  V30 27 1 3 27
M  V30 28 1 4 28
M  V30 29 1 7 29
M  V30 30 1 9 30
M  V30 31 1 11 31
M  V30 32 1 11 32
M  V30 33 1 12 33
M  V30 34 1 12 34
M  V30 35 1 13 35
M  V30 36 1 15 36
M  V30 37 1 20 37
M  V30 38 1 20 38
M  V30 39 1 21 39
M  V30 40 1 21 40
M  V30 41 1 21 41
M  V30 END BOND
M  V30 END CTAB
M  END
