
     RDKit          3D

  0  0  0  0  0  0  0  0  0  0999 V3000
M  V30 BEGIN CTAB
M  V30 COUNTS 28 28 0 0 0
M  V30 BEGIN ATOM
M  V30 1 N 2.8329 2.36139 -0.121551 0
M  V30 2 N 2.00413 1.25281 -0.0883221 0
M  V30 3 C 2.34145 0.0584993 -0.313939 0
M  V30 4 C 1.40855 -1.07679 -0.261612 0
M  V30 5 O 1.71786 -2.33147 -0.472933 0
M  V30 6 C 0.706105 -3.13517 -0.361062 0
M  V30 7 C -0.38982 -2.35492 -0.0449107 0
M  V30 8 C 0.0365164 -1.06324 0.0188576 0
M  V30 9 C -0.637839 0.19596 0.30073 0
M  V30 10 C -2.09072 0.218228 0.521584 0
M  V30 11 C -2.96704 -0.236734 -0.595593 0
M  V30 12 C -2.45444 1.70314 0.746336 0
M  V30 13 N 3.70382 -0.196059 -0.637389 0
M  V30 14 H 3.04058 2.87478 0.749996 0
M  V30 15 H 3.24517 2.67629 -1.01195 0
M  V30 16 H 0.685638 -4.22044 -0.484784 0
M  V30 17 H -1.39839 -2.68715 0.134965 0
M  V30 18 H -0.43679 0.893138 -0.560968 0
M  V30 19 H -0.157824 0.621822 1.22324 0
M  V30 20 H -2.43094 -0.313231 1.43951 0
M  V30 21 H -2.80009 -1.23693 -0.949379 0
M  V30 22 H -4.02841 -0.114852 -0.268774 0
M  V30 23 H -2.76826 0.44527 -1.46334 0
M  V30 24 H -1.57245 2.24643 1.13631 0
M  V30 25 H -2.73704 2.16504 -0.211153 0
M  V30 26 H -3.25382 1.80367 1.50161 0
M  V30 27 H 4.03959 0.135031 -1.56721 0
M  V30 28 H 4.36156 -0.684515 -0.00712061 0
M  V30 END ATOM
M  V30 BEGIN BOND
M  V30 1 1 1 2
M  V30 2 2 2 3
M  V30 3 1 3 4
M  V30 4 1 4 5
M  V30 5 1 5 6
M  V30 6 2 6 7
M  V30 7 1 7 8
M  V30 8 1 8 9
M  V30 9 1 9 10
M  V30 10 1 10 11
M  V30 11 1 10 12
M  V30 12 1 3 13
M  V30 13 2 8 4
M  V30 14 1 1 14
M  V30 15 1 1 15
M  V30 16 1 6 16
M  V30 17 1 7 17
M  V30 18 1 9 18
M  V30 19 1 9 19
M  V30 20 1 10 20
M  V30 21 1 11 21
M  V30 22 1 11 22
M  V30 23 1 11 23
M  V30 24 1 12 24
M  V30 25 1 12 25
M  V30 26 1 12 26
M  V30 27 1 13 27
M  V30 28 1 13 28
M  V30 END BOND
M  V30 END CTAB
M  END
