
     RDKit          3D

  0  0  0  0  0  0  0  0  0  0999 V3000
M  V30 BEGIN CTAB
M  V30 COUNTS 31 33 0 0 0
M  V30 BEGIN ATOM
M  V30 1 N -2.89495 1.8892 0.975793 0
M  V30 2 C -3.01346 1.45572 -0.37458 0
M  V30 3 C -2.25916 0.165818 -0.664448 0
M  V30 4 C -2.75979 -0.969541 0.191808 0
M  V30 5 C -1.9625 -2.20403 -0.164205 0
M  V30 6 N -0.570353 -1.96028 0.148545 0
M  V30 7 C -0.0352624 -0.674332 -0.132219 0
M  V30 8 N -0.831593 0.353222 -0.522477 0
M  V30 9 N -0.0688137 1.41636 -0.711196 0
M  V30 10 C 1.23156 1.09414 -0.446412 0
M  V30 11 C 1.27224 -0.234077 -0.075963 0
M  V30 12 C 2.48213 -0.81055 0.246394 0
M  V30 13 C 3.66155 -0.0790232 0.205244 0
M  V30 14 C 3.56978 1.24861 -0.171971 0
M  V30 15 C 2.37677 1.85292 -0.499691 0
M  V30 16 N 4.89924 -0.685648 0.539625 0
M  V30 17 H -2.07955 2.47729 1.18264 0
M  V30 18 H -3.15061 1.19706 1.68747 0
M  V30 19 H -4.04914 1.39236 -0.759105 0
M  V30 20 H -2.51395 2.23811 -1.01813 0
M  V30 21 H -2.5222 -0.0997859 -1.72341 0
M  V30 22 H -2.59459 -0.78581 1.27362 0
M  V30 23 H -3.8185 -1.15905 -0.0514002 0
M  V30 24 H -2.35628 -3.09601 0.351987 0
M  V30 25 H -2.06758 -2.40755 -1.26324 0
M  V30 26 H 0.0509244 -2.68192 0.567402 0
M  V30 27 H 2.47575 -1.86427 0.535054 0
M  V30 28 H 4.47992 1.83271 -0.209119 0
M  V30 29 H 2.32714 2.90832 -0.796389 0
M  V30 30 H 5.37177 -0.408975 1.41558 0
M  V30 31 H 5.34951 -1.40099 -0.0669579 0
M  V30 END ATOM
M  V30 BEGIN BOND
M  V30 1 1 1 2
M  V30 2 1 2 3
M  V30 3 1 3 4
M  V30 4 1 4 5
M  V30 5 1 5 6
M  V30 6 1 6 7
M  V30 7 1 7 8
M  V30 8 1 8 9
M  V30 9 2 9 10
M  V30 10 1 10 11
M  V30 11 1 11 12
M  V30 12 2 12 13
M  V30 13 1 13 14
M  V30 14 2 14 15
M  V30 15 1 13 16
M  V30 16 1 8 3
M  V30 17 1 15 10
M  V30 18 2 11 7
M  V30 19 1 1 17
M  V30 20 1 1 18
M  V30 21 1 2 19
M  V30 22 1 2 20
M  V30 23 1 3 21
M  V30 24 1 4 22
M  V30 25 1 4 23
M  V30 26 1 5 24
M  V30 27 1 5 25
M  V30 28 1 6 26
M  V30 29 1 12 27
M  V30 30 1 14 28
M  V30 31 1 15 29
M  V30 32 1 16 30
M  V30 33 1 16 31
M  V30 END BOND
M  V30 END CTAB
M  END
