
     RDKit          3D

  0  0  0  0  0  0  0  0  0  0999 V3000
M  V30 BEGIN CTAB
M  V30 COUNTS 56 58 0 0 0
M  V30 BEGIN ATOM
M  V30 1 N -4.42466 3.59396 0.587392 0
M  V30 2 C -5.13329 2.40155 0.759058 0 CFG=2
M  V30 3 C -4.3285 1.35141 1.53694 0
M  V30 4 C -4.90274 0.33701 0.569207 0 CFG=1
M  V30 5 C -4.98224 1.4609 -0.443951 0
M  V30 6 C -4.04019 -0.79557 0.21845 0
M  V30 7 C -2.73343 -0.660074 -0.193671 0
M  V30 8 C -1.97097 -1.75089 -0.512389 0
M  V30 9 N -2.57902 -2.9505 -0.396271 0
M  V30 10 C -3.83895 -3.13552 -0.00240573 0
M  V30 11 N -4.55047 -2.03994 0.300055 0
M  V30 12 N -4.42574 -4.43374 0.100598 0
M  V30 13 N -0.613582 -1.70255 -0.944536 0
M  V30 14 C 0.121755 -0.465299 -1.08147 0
M  V30 15 C 1.19676 -0.455489 0.00260803 0
M  V30 16 C 2.01706 0.802275 -0.0481059 0
M  V30 17 N 3.03107 0.852066 0.940128 0
M  V30 18 C 3.82478 2.00388 0.974302 0
M  V30 19 C 4.65791 2.32495 -0.200391 0
M  V30 20 C 5.36004 1.17951 -0.837085 0
M  V30 21 C 5.77657 0.110663 0.149226 0
M  V30 22 C 4.61934 -0.889599 0.191172 0
M  V30 23 C 3.67631 -0.378137 1.25988 0
M  V30 24 C 0.0627263 -2.94671 -1.26299 0
M  V30 25 H -4.97376 4.31825 0.154366 0
M  V30 26 H -3.47387 3.47435 0.329455 0
M  V30 27 H -6.1698 2.48719 1.10545 0
M  V30 28 H -3.24521 1.49654 1.48903 0
M  V30 29 H -4.7601 1.26686 2.55212 0
M  V30 30 H -5.90759 0.0598815 0.885248 0
M  V30 31 H -4.07415 1.64859 -1.02314 0
M  V30 32 H -5.92607 1.46807 -1.02724 0
M  V30 33 H -2.32489 0.31607 -0.260235 0
M  V30 34 H -5.20483 -4.6585 0.754561 0
M  V30 35 H -4.07123 -5.21443 -0.500676 0
M  V30 36 H 0.602148 -0.518127 -2.09539 0
M  V30 37 H -0.47617 0.4431 -1.01083 0
M  V30 38 H 0.654017 -0.58693 0.954337 0
M  V30 39 H 1.88725 -1.28831 -0.237377 0
M  V30 40 H 2.41199 0.907391 -1.07955 0
M  V30 41 H 1.32156 1.65403 0.110386 0
M  V30 42 H 3.15603 2.89176 1.17544 0
M  V30 43 H 4.47754 1.95954 1.89426 0
M  V30 44 H 4.06391 2.853 -0.981058 0
M  V30 45 H 5.44738 3.07015 0.109199 0
M  V30 46 H 6.28614 1.54919 -1.32211 0
M  V30 47 H 4.76797 0.688214 -1.65848 0
M  V30 48 H 6.00042 0.494258 1.15166 0
M  V30 49 H 6.64085 -0.464153 -0.26929 0
M  V30 50 H 5.02371 -1.85587 0.558755 0
M  V30 51 H 4.18754 -0.959315 -0.805109 0
M  V30 52 H 2.9843 -1.16751 1.6226 0
M  V30 53 H 4.33946 -0.16185 2.15138 0
M  V30 54 H 1.13102 -2.95732 -1.07158 0
M  V30 55 H -0.212878 -3.30554 -2.28286 0
M  V30 56 H -0.383194 -3.72274 -0.572343 0
M  V30 END ATOM
M  V30 BEGIN BOND
M  V30 1 1 1 2
M  V30 2 1 2 3
M  V30 3 1 3 4
M  V30 4 1 4 5
M  V30 5 1 4 6
M  V30 6 2 6 7
M  V30 7 1 7 8
M  V30 8 2 8 9
M  V30 9 1 9 10
M  V30 10 2 10 11
M  V30 11 1 10 12
M  V30 12 1 8 13
M  V30 13 1 13 14
M  V30 14 1 14 15
M  V30 15 1 15 16
M  V30 16 1 16 17
M  V30 17 1 17 18
M  V30 18 1 18 19
M  V30 19 1 19 20
M  V30 20 1 20 21
M  V30 21 1 21 22
M  V30 22 1 22 23
M  V30 23 1 13 24
M  V30 24 1 5 2
M  V30 25 1 11 6
M  V30 26 1 23 17
M  V30 27 1 1 25
M  V30 28 1 1 26
M  V30 29 1 2 27 CFG=1
M  V30 30 1 3 28
M  V30 31 1 3 29
M  V30 32 1 4 30 CFG=1
M  V30 33 1 5 31
M  V30 34 1 5 32
M  V30 35 1 7 33
M  V30 36 1 12 34
M  V30 37 1 12 35
M  V30 38 1 14 36
M  V30 39 1 14 37
M  V30 40 1 15 38
M  V30 41 1 15 39
M  V30 42 1 16 40
M  V30 43 1 16 41
M  V30 44 1 18 42
M  V30 45 1 18 43
M  V30 46 1 19 44
M  V30 47 1 19 45
M  V30 48 1 20 46
M  V30 49 1 20 47
M  V30 50 1 21 48
M  V30 51 1 21 49
M  V30 52 1 22 50
M  V30 53 1 22 51
M  V30 54 1 23 52
M  V30 55 1 23 53
M  V30 56 1 24 54
M  V30 57 1 24 55
M  V30 58 1 24 56
M  V30 END BOND
M  V30 END CTAB
M  END
