
     RDKit          3D

  0  0  0  0  0  0  0  0  0  0999 V3000
M  V30 BEGIN CTAB
M  V30 COUNTS 28 29 0 0 0
M  V30 BEGIN ATOM
M  V30 1 C -1.3683 -1.82493 0.550812 0
M  V30 2 C -0.663609 -0.582634 -0.0109266 0
M  V30 3 C 0.771425 -0.719031 0.190152 0
M  V30 4 N 1.4241 -1.79982 0.63879 0
M  V30 5 N 2.71797 -1.57291 0.664522 0
M  V30 6 C 2.94084 -0.322907 0.224502 0
M  V30 7 N 1.74195 0.200708 -0.0635876 0
M  V30 8 N 1.56831 1.49861 -0.542811 0
M  V30 9 N 4.23534 0.238683 0.0930919 0
M  V30 10 C -1.3302 0.596216 0.602076 0
M  V30 11 C -2.84331 0.668923 0.276714 0
M  V30 12 C -1.89677 1.70209 -0.194654 0
M  V30 13 C -0.882411 -0.650786 -1.52328 0
M  V30 14 H -0.796127 -2.69527 0.204429 0
M  V30 15 H -2.39528 -1.89295 0.162173 0
M  V30 16 H -1.39448 -1.69957 1.66034 0
M  V30 17 H 1.21055 2.23091 0.11825 0
M  V30 18 H 1.77085 1.78772 -1.51156 0
M  V30 19 H 4.75153 0.452373 0.961551 0
M  V30 20 H 4.56437 0.387542 -0.874915 0
M  V30 21 H -1.06996 0.789487 1.67676 0
M  V30 22 H -3.50099 0.836056 1.14888 0
M  V30 23 H -3.2496 -0.00133227 -0.480836 0
M  V30 24 H -1.67923 1.78272 -1.27647 0
M  V30 25 H -2.01173 2.68139 0.340239 0
M  V30 26 H -0.542661 -1.66539 -1.82247 0
M  V30 27 H -1.90217 -0.508756 -1.83786 0
M  V30 28 H -0.170419 0.0828618 -1.96274 0
M  V30 END ATOM
M  V30 BEGIN BOND
M  V30 1 1 1 2
M  V30 2 1 2 3
M  V30 3 2 3 4
M  V30 4 1 4 5
M  V30 5 2 5 6
M  V30 6 1 6 7
M  V30 7 1 7 8
M  V30 8 1 6 9
M  V30 9 1 2 10
M  V30 10 1 10 11
M  V30 11 1 11 12
M  V30 12 1 2 13
M  V30 13 1 7 3
M  V30 14 1 12 10
M  V30 15 1 1 14
M  V30 16 1 1 15
M  V30 17 1 1 16
M  V30 18 1 8 17
M  V30 19 1 8 18
M  V30 20 1 9 19
M  V30 21 1 9 20
M  V30 22 1 10 21
M  V30 23 1 11 22
M  V30 24 1 11 23
M  V30 25 1 12 24
M  V30 26 1 12 25
M  V30 27 1 13 26
M  V30 28 1 13 27
M  V30 29 1 13 28
M  V30 END BOND
M  V30 END CTAB
M  END
