
     RDKit          3D

  0  0  0  0  0  0  0  0  0  0999 V3000
M  V30 BEGIN CTAB
M  V30 COUNTS 23 23 0 0 0
M  V30 BEGIN ATOM
M  V30 1 N -4.14064 1.32988 -0.718603 0
M  V30 2 C -2.78996 1.12458 -0.239102 0
M  V30 3 C -2.26588 -0.217739 -0.689164 0
M  V30 4 N -0.92117 -0.411689 -0.206832 0
M  V30 5 C -0.582378 -0.977059 0.968673 0
M  V30 6 N 0.75918 -0.992486 1.08663 0
M  V30 7 C 1.3009 -0.445695 0.00579279 0
M  V30 8 C 0.234647 -0.0806539 -0.807828 0
M  V30 9 C 2.70658 -0.246823 -0.309316 0
M  V30 10 O 3.04951 0.299917 -1.40318 0
M  V30 11 N 3.66377 -0.683717 0.644352 0
M  V30 12 N 5.01568 -0.480273 0.316455 0
M  V30 13 H -4.11005 1.96432 -1.54928 0
M  V30 14 H -4.50096 0.404146 -1.04132 0
M  V30 15 H -2.83897 1.09984 0.870998 0
M  V30 16 H -2.15061 1.95851 -0.519249 0
M  V30 17 H -2.35257 -0.299813 -1.7926 0
M  V30 18 H -2.88155 -1.03834 -0.266827 0
M  V30 19 H -1.24953 -1.37193 1.7314 0
M  V30 20 H 0.271504 0.39986 -1.78597 0
M  V30 21 H 3.36792 -1.13082 1.53789 0
M  V30 22 H 5.11077 -0.712578 -0.695826 0
M  V30 23 H 5.3038 0.508573 0.495569 0
M  V30 END ATOM
M  V30 BEGIN BOND
M  V30 1 1 1 2
M  V30 2 1 2 3
M  V30 3 1 3 4
M  V30 4 1 4 5
M  V30 5 2 5 6
M  V30 6 1 6 7
M  V30 7 2 7 8
M  V30 8 1 7 9
M  V30 9 2 9 10
M  V30 10 1 9 11
M  V30 11 1 11 12
M  V30 12 1 8 4
M  V30 13 1 1 13
M  V30 14 1 1 14
M  V30 15 1 2 15
M  V30 16 1 2 16
M  V30 17 1 3 17
M  V30 18 1 3 18
M  V30 19 1 5 19
M  V30 20 1 8 20
M  V30 21 1 11 21
M  V30 22 1 12 22
M  V30 23 1 12 23
M  V30 END BOND
M  V30 END CTAB
M  END
