
     RDKit          3D

  0  0  0  0  0  0  0  0  0  0999 V3000
M  V30 BEGIN CTAB
M  V30 COUNTS 158 159 0 0 0
M  V30 BEGIN ATOM
M  V30 1 C 11.837 2.89283 -1.12519 0
M  V30 2 C 10.5693 3.27359 -0.395804 0
M  V30 3 C 10.1062 4.60083 -0.910608 0
M  V30 4 C 9.52328 2.20984 -0.688893 0
M  V30 5 C 8.25559 2.53326 0.000751661 0 CFG=2
M  V30 6 N 8.40491 2.60758 1.43442 0
M  V30 7 C 8.02259 3.69209 2.23209 0
M  V30 8 O 7.5002 4.70247 1.71671 0
M  V30 9 C 8.23167 3.65249 3.69593 0 CFG=2
M  V30 10 C 7.84983 2.31463 4.27974 0
M  V30 11 N 7.56449 4.69549 4.40318 0
M  V30 12 C 7.06161 1.79057 -0.442292 0
M  V30 13 O 5.96239 1.9397 0.201196 0
M  V30 14 N 7.00823 0.896738 -1.54982 0
M  V30 15 C 5.79978 0.232079 -1.93458 0 CFG=1
M  V30 16 C 5.56761 0.124563 -3.379 0
M  V30 17 C 6.59316 -0.598905 -4.18972 0
M  V30 18 C 6.82993 -2.0195 -3.8354 0
M  V30 19 C 6.18435 -0.508956 -5.64816 0
M  V30 20 C 5.48703 -0.984055 -1.11367 0
M  V30 21 O 6.31587 -1.25728 -0.231807 0
M  V30 22 N 4.3253 -1.72678 -1.35046 0
M  V30 23 C 3.86438 -2.90397 -0.661561 0 CFG=1
M  V30 24 C 4.83385 -3.67428 0.147807 0
M  V30 25 C 5.97299 -4.31844 -0.550809 0
M  V30 26 C 6.80845 -5.02105 0.539778 0
M  V30 27 C 5.48861 -5.42183 -1.50933 0
M  V30 28 C 2.57128 -2.69897 -0.0204173 0
M  V30 29 O 1.98344 -1.5888 -0.309728 0
M  V30 30 N 1.87448 -3.52661 0.86723 0
M  V30 31 C 0.602472 -3.25305 1.47416 0 CFG=1
M  V30 32 C 0.645612 -1.9947 2.25315 0
M  V30 33 C 1.56955 -1.88664 3.39562 0
M  V30 34 C 3.02064 -2.07592 3.18282 0
M  V30 35 N 3.66253 -1.86781 4.50914 0
M  V30 36 C 5.05766 -2.06712 4.55803 0
M  V30 37 N 5.94436 -1.36882 3.70884 0
M  V30 38 N 5.532 -2.91394 5.40026 0
M  V30 39 C -0.480451 -3.20588 0.460249 0
M  V30 40 O -0.16698 -3.40068 -0.743635 0
M  V30 41 N -1.84364 -2.95906 0.735998 0
M  V30 42 C -2.86264 -2.92637 -0.305423 0 CFG=1
M  V30 43 C -3.85931 -4.05015 -0.0961245 0 CFG=1
M  V30 44 C -3.10762 -5.38381 -0.183822 0
M  V30 45 O -4.51242 -3.94345 1.12457 0
M  V30 46 C -3.53902 -1.6197 -0.297043 0
M  V30 47 O -3.18992 -0.797505 0.629409 0
M  V30 48 N -4.52349 -1.1889 -1.20316 0
M  V30 49 C -5.06011 -1.9126 -2.33217 0
M  V30 50 C -5.52013 -0.904116 -3.35502 0
M  V30 51 C -5.41336 0.414382 -2.67266 0
M  V30 52 C -5.20721 0.102087 -1.19722 0 CFG=1
M  V30 53 C -6.56451 0.0302677 -0.606107 0
M  V30 54 O -7.08305 -1.05654 -0.300028 0
M  V30 55 N -7.24712 1.23297 -0.40017 0
M  V30 56 C -8.62784 1.28798 0.195533 0 CFG=1
M  V30 57 C -8.53243 1.64765 1.60249 0
M  V30 58 C -9.74837 1.67742 2.4059 0
M  V30 59 C -10.3971 2.79217 2.8504 0
M  V30 60 C -11.5577 2.73283 3.59265 0
M  V30 61 C -12.1242 1.50956 3.92207 0
M  V30 62 O -13.2873 1.42404 4.6631 0
M  V30 63 C -11.4964 0.365884 3.49069 0
M  V30 64 C -10.3442 0.451874 2.75635 0
M  V30 65 C -9.43076 1.97013 -0.782675 0
M  V30 66 O -9.33976 1.5369 -2.03782 0
M  V30 67 N -10.3156 3.04297 -0.679349 0
M  V30 68 C -11.0724 3.57539 -1.84472 0 CFG=1
M  V30 69 C -12.3513 4.1805 -1.36738 0
M  V30 70 C -13.2321 3.17754 -0.638871 0
M  V30 71 C -13.122 4.82562 -2.47355 0
M  V30 72 C -10.2061 4.62335 -2.46412 0
M  V30 73 O -10.6318 5.27032 -3.59767 0
M  V30 74 O -9.11492 4.90335 -1.9594 0
M  V30 75 H 12.7453 3.07743 -0.478019 0
M  V30 76 H 11.8319 1.85044 -1.48606 0
M  V30 77 H 12.001 3.56273 -2.00786 0
M  V30 78 H 10.799 3.28003 0.688744 0
M  V30 79 H 9.29665 4.41559 -1.64004 0
M  V30 80 H 9.7492 5.17817 -0.0272909 0
M  V30 81 H 10.8991 5.15596 -1.46598 0
M  V30 82 H 9.42011 2.12209 -1.79253 0
M  V30 83 H 9.92356 1.24866 -0.294617 0
M  V30 84 H 8.0095 3.62014 -0.290967 0
M  V30 85 H 8.84182 1.76951 1.89828 0
M  V30 86 H 9.33259 3.77322 3.94059 0
M  V30 87 H 7.31732 1.69546 3.50523 0
M  V30 88 H 8.71434 1.75237 4.6905 0
M  V30 89 H 7.11792 2.47303 5.0832 0
M  V30 90 H 8.02137 4.81847 5.32881 0
M  V30 91 H 6.55305 4.42917 4.5706 0
M  V30 92 H 7.87488 0.730581 -2.07877 0
M  V30 93 H 4.97395 0.951859 -1.54758 0
M  V30 94 H 4.58816 -0.346314 -3.59145 0
M  V30 95 H 5.47208 1.14902 -3.86794 0
M  V30 96 H 7.56041 -0.0383031 -4.12693 0
M  V30 97 H 7.56023 -2.0652 -2.99564 0
M  V30 98 H 5.95567 -2.64783 -3.67705 0
M  V30 99 H 7.38969 -2.52036 -4.68303 0
M  V30 100 H 6.66993 -1.30159 -6.23303 0
M  V30 101 H 5.0814 -0.662056 -5.69108 0
M  V30 102 H 6.3707 0.505976 -6.06827 0
M  V30 103 H 3.70459 -1.35791 -2.15401 0
M  V30 104 H 3.66693 -3.64693 -1.55101 0
M  V30 105 H 4.24537 -4.53746 0.60242 0
M  V30 106 H 5.16698 -3.11897 1.06515 0
M  V30 107 H 6.61239 -3.69298 -1.15265 0
M  V30 108 H 6.50508 -6.07179 0.651704 0
M  V30 109 H 7.88069 -4.96645 0.258073 0
M  V30 110 H 6.69317 -4.41142 1.45892 0
M  V30 111 H 6.28606 -6.18965 -1.50008 0
M  V30 112 H 5.46287 -5.01798 -2.55099 0
M  V30 113 H 4.56425 -5.89071 -1.17048 0
M  V30 114 H 2.32835 -4.45599 1.1238 0
M  V30 115 H 0.304426 -4.12953 2.13439 0
M  V30 116 H 0.744953 -1.06199 1.63435 0
M  V30 117 H -0.433897 -1.86086 2.65583 0
M  V30 118 H 1.45762 -0.91589 3.95979 0
M  V30 119 H 1.24846 -2.65749 4.16715 0
M  V30 120 H 3.34907 -3.10255 2.91024 0
M  V30 121 H 3.47772 -1.27942 2.55876 0
M  V30 122 H 3.09976 -1.58365 5.34843 0
M  V30 123 H 6.44203 -0.48828 4.00217 0
M  V30 124 H 6.11184 -1.74813 2.74884 0
M  V30 125 H 6.52038 -3.1582 5.54456 0
M  V30 126 H -2.14864 -2.79519 1.71033 0
M  V30 127 H -2.35186 -3.0552 -1.27131 0
M  V30 128 H -4.61099 -4.06159 -0.89159 0
M  V30 129 H -2.5277 -5.41932 -1.1371 0
M  V30 130 H -2.37578 -5.4082 0.639697 0
M  V30 131 H -3.78462 -6.23517 -0.0629648 0
M  V30 132 H -5.02833 -3.08068 1.06966 0
M  V30 133 H -4.32036 -2.62003 -2.76678 0
M  V30 134 H -5.98359 -2.48067 -2.02414 0
M  V30 135 H -6.57985 -1.06216 -3.67243 0
M  V30 136 H -4.82821 -0.92993 -4.22374 0
M  V30 137 H -4.55186 1.02034 -3.04949 0
M  V30 138 H -6.32456 1.04882 -2.83871 0
M  V30 139 H -4.56852 0.897478 -0.771871 0
M  V30 140 H -6.84402 2.15836 -0.647441 0
M  V30 141 H -8.98402 0.175864 0.171567 0
M  V30 142 H -8.00335 2.64872 1.70638 0
M  V30 143 H -7.82741 0.880219 2.09138 0
M  V30 144 H -9.98702 3.7671 2.60813 0
M  V30 145 H -12.03 3.65385 3.91574 0
M  V30 146 H -14.1665 1.4125 4.18043 0
M  V30 147 H -11.9496 -0.595711 3.75802 0
M  V30 148 H -9.8753 -0.46111 2.43123 0
M  V30 149 H -10.498 3.56713 0.191086 0
M  V30 150 H -11.2496 2.76275 -2.57078 0
M  V30 151 H -12.1595 5.00616 -0.606619 0
M  V30 152 H -14.26 3.62399 -0.553119 0
M  V30 153 H -13.27 2.2229 -1.16995 0
M  V30 154 H -12.8675 3.0245 0.412655 0
M  V30 155 H -14.1943 4.96232 -2.17357 0
M  V30 156 H -12.7564 5.88027 -2.66365 0
M  V30 157 H -13.0691 4.22595 -3.3801 0
M  V30 158 H -10.8528 4.72398 -4.42968 0
M  V30 END ATOM
M  V30 BEGIN BOND
M  V30 1 1 1 2
M  V30 2 1 2 3
M  V30 3 1 2 4
M  V30 4 1 4 5
M  V30 5 1 5 6
M  V30 6 1 6 7
M  V30 7 2 7 8
M  V30 8 1 7 9
M  V30 9 1 9 10
M  V30 10 1 9 11
M  V30 11 1 5 12
M  V30 12 2 12 13
M  V30 13 1 12 14
M  V30 14 1 14 15
M  V30 15 1 15 16
M  V30 16 1 16 17
M  V30 17 1 17 18
M  V30 18 1 17 19
M  V30 19 1 15 20
M  V30 20 2 20 21
M  V30 21 1 20 22
M  V30 22 1 22 23
M  V30 23 1 23 24
M  V30 24 1 24 25
M  V30 25 1 25 26
M  V30 26 1 25 27
M  V30 27 1 23 28
M  V30 28 2 28 29
M  V30 29 1 28 30
M  V30 30 1 30 31
M  V30 31 1 31 32
M  V30 32 1 32 33
M  V30 33 1 33 34
M  V30 34 1 34 35
M  V30 35 1 35 36
M  V30 36 1 36 37
M  V30 37 2 36 38 CFG=2
M  V30 38 1 31 39
M  V30 39 2 39 40
M  V30 40 1 39 41
M  V30 41 1 41 42
M  V30 42 1 42 43
M  V30 43 1 43 44
M  V30 44 1 43 45
M  V30 45 1 42 46
M  V30 46 2 46 47
M  V30 47 1 46 48
M  V30 48 1 48 49
M  V30 49 1 49 50
M  V30 50 1 50 51
M  V30 51 1 51 52
M  V30 52 1 52 53
M  V30 53 2 53 54
M  V30 54 1 53 55
M  V30 55 1 55 56
M  V30 56 1 56 57
M  V30 57 1 57 58
M  V30 58 2 58 59
M  V30 59 1 59 60
M  V30 60 2 60 61
M  V30 61 1 61 62
M  V30 62 1 61 63
M  V30 63 2 63 64
M  V30 64 1 56 65
M  V30 65 2 65 66
M  V30 66 1 65 67
M  V30 67 1 67 68
M  V30 68 1 68 69
M  V30 69 1 69 70
M  V30 70 1 69 71
M  V30 71 1 68 72
M  V30 72 1 72 73
M  V30 73 2 72 74
M  V30 74 1 52 48
M  V30 75 1 64 58
M  V30 76 1 1 75
M  V30 77 1 1 76
M  V30 78 1 1 77
M  V30 79 1 2 78
M  V30 80 1 3 79
M  V30 81 1 3 80
M  V30 82 1 3 81
M  V30 83 1 4 82
M  V30 84 1 4 83
M  V30 85 1 5 84 CFG=3
M  V30 86 1 6 85
M  V30 87 1 9 86 CFG=3
M  V30 88 1 10 87
M  V30 89 1 10 88
M  V30 90 1 10 89
M  V30 91 1 11 90
M  V30 92 1 11 91
M  V30 93 1 14 92
M  V30 94 1 15 93 CFG=1
M  V30 95 1 16 94
M  V30 96 1 16 95
M  V30 97 1 17 96
M  V30 98 1 18 97
M  V30 99 1 18 98
M  V30 100 1 18 99
M  V30 101 1 19 100
M  V30 102 1 19 101
M  V30 103 1 19 102
M  V30 104 1 22 103
M  V30 105 1 23 104 CFG=3
M  V30 106 1 24 105
M  V30 107 1 24 106
M  V30 108 1 25 107
M  V30 109 1 26 108
M  V30 110 1 26 109
M  V30 111 1 26 110
M  V30 112 1 27 111
M  V30 113 1 27 112
M  V30 114 1 27 113
M  V30 115 1 30 114
M  V30 116 1 31 115 CFG=1
M  V30 117 1 32 116
M  V30 118 1 32 117
M  V30 119 1 33 118
M  V30 120 1 33 119
M  V30 121 1 34 120
M  V30 122 1 34 121
M  V30 123 1 35 122
M  V30 124 1 37 123
M  V30 125 1 37 124
M  V30 126 1 38 125
M  V30 127 1 41 126
M  V30 128 1 42 127 CFG=3
M  V30 129 1 43 128 CFG=3
M  V30 130 1 44 129
M  V30 131 1 44 130
M  V30 132 1 44 131
M  V30 133 1 45 132
M  V30 134 1 49 133
M  V30 135 1 49 134
M  V30 136 1 50 135
M  V30 137 1 50 136
M  V30 138 1 51 137
M  V30 139 1 51 138
M  V30 140 1 52 139 CFG=1
M  V30 141 1 55 140
M  V30 142 1 56 141 CFG=1
M  V30 143 1 57 142
M  V30 144 1 57 143
M  V30 145 1 59 144
M  V30 146 1 60 145
M  V30 147 1 62 146
M  V30 148 1 63 147
M  V30 149 1 64 148
M  V30 150 1 67 149
M  V30 151 1 68 150 CFG=3
M  V30 152 1 69 151
M  V30 153 1 70 152
M  V30 154 1 70 153
M  V30 155 1 70 154
M  V30 156 1 71 155
M  V30 157 1 71 156
M  V30 158 1 71 157
M  V30 159 1 73 158
M  V30 END BOND
M  V30 END CTAB
M  END
