
     RDKit          3D

  0  0  0  0  0  0  0  0  0  0999 V3000
M  V30 BEGIN CTAB
M  V30 COUNTS 62 66 0 0 0
M  V30 BEGIN ATOM
M  V30 1 C -4.43563 -5.28811 2.38503 0
M  V30 2 S -2.69723 -5.05913 2.89573 0
M  V30 3 C -2.08568 -3.65687 1.9422 0
M  V30 4 N -1.52504 -3.82129 0.742923 0
M  V30 5 C -1.05525 -2.78608 -0.00340181 0
M  V30 6 N -0.466256 -2.98948 -1.27012 0
M  V30 7 C -1.16227 -1.50501 0.501647 0
M  V30 8 C -1.74113 -1.37726 1.73042 0
M  V30 9 O -1.86372 -0.250343 2.23296 0
M  V30 10 N -2.20179 -2.43 2.45348 0
M  V30 11 C -0.654892 -0.328235 -0.306029 0
M  V30 12 C -1.53995 0.826708 -0.24546 0
M  V30 13 C -1.29916 2.06626 0.249628 0
M  V30 14 N -0.0845946 2.4169 0.823242 0
M  V30 15 N -2.25823 3.00252 0.198624 0
M  V30 16 C -3.46979 2.81578 -0.313274 0
M  V30 17 N -3.75347 1.60618 -0.813769 0
M  V30 18 C -2.82912 0.646123 -0.78362 0
M  V30 19 O -3.11829 -0.501122 -1.26603 0
M  V30 20 S -4.6966 4.13302 -0.346078 0
M  V30 21 C -4.45898 5.01936 -1.91192 0
M  V30 22 C 0.776044 -0.131549 -0.0983623 0
M  V30 23 C 1.50014 -0.370613 1.06316 0
M  V30 24 N 2.79149 -0.0988113 0.889712 0
M  V30 25 N 2.92646 0.311209 -0.355759 0
M  V30 26 C 1.70942 0.306162 -1.00019 0
M  V30 27 C 1.56584 0.748631 -2.37605 0
M  V30 28 C 0.952172 0.0827771 -3.39582 0
M  V30 29 C 0.835563 0.586757 -4.68412 0
M  V30 30 C 1.35877 1.81612 -4.9674 0
M  V30 31 C 1.99014 2.53012 -3.97185 0
M  V30 32 C 2.08874 2.00424 -2.70769 0
M  V30 33 C 3.85378 -0.221539 1.85068 0
M  V30 34 C 3.68996 -0.0295875 3.19819 0
M  V30 35 C 4.736 -0.157706 4.08615 0
M  V30 36 C 5.99902 -0.489208 3.62746 0
M  V30 37 C 6.1907 -0.687263 2.28169 0
M  V30 38 C 5.11966 -0.55155 1.41263 0
M  V30 39 H -4.84685 -6.1681 2.89998 0
M  V30 40 H -4.49808 -5.44858 1.27826 0
M  V30 41 H -5.01421 -4.37855 2.62513 0
M  V30 42 H -1.02352 -3.32343 -2.07478 0
M  V30 43 H 0.538422 -2.80526 -1.4081 0
M  V30 44 H -2.63698 -2.2401 3.39729 0
M  V30 45 H -0.835256 -0.738736 -1.37558 0
M  V30 46 H 0.742426 2.85858 0.405722 0
M  V30 47 H 0.0152328 2.21271 1.86687 0
M  V30 48 H -4.68755 1.39374 -1.23011 0
M  V30 49 H -3.6987 4.54462 -2.56478 0
M  V30 50 H -5.42746 5.1825 -2.38905 0
M  V30 51 H -4.06552 6.03629 -1.62091 0
M  V30 52 H 1.06139 -0.730699 1.98482 0
M  V30 53 H 0.551337 -0.892539 -3.19362 0
M  V30 54 H 0.331409 0.0116705 -5.46878 0
M  V30 55 H 1.27732 2.2356 -5.98323 0
M  V30 56 H 2.38413 3.49633 -4.25611 0
M  V30 57 H 2.58645 2.58209 -1.9498 0
M  V30 58 H 2.72283 0.228302 3.58553 0
M  V30 59 H 4.56836 0.0010106 5.13877 0
M  V30 60 H 6.8276 -0.590147 4.33514 0
M  V30 61 H 7.1741 -0.948591 1.89649 0
M  V30 62 H 5.26631 -0.706835 0.35225 0
M  V30 END ATOM
M  V30 BEGIN BOND
M  V30 1 1 1 2
M  V30 2 1 2 3
M  V30 3 2 3 4
M  V30 4 1 4 5
M  V30 5 1 5 6
M  V30 6 2 5 7
M  V30 7 1 7 8
M  V30 8 2 8 9
M  V30 9 1 8 10
M  V30 10 1 7 11
M  V30 11 1 11 12
M  V30 12 2 12 13
M  V30 13 1 13 14
M  V30 14 1 13 15
M  V30 15 2 15 16
M  V30 16 1 16 17
M  V30 17 1 17 18
M  V30 18 2 18 19
M  V30 19 1 16 20
M  V30 20 1 20 21
M  V30 21 1 11 22
M  V30 22 2 22 23
M  V30 23 1 23 24
M  V30 24 1 24 25
M  V30 25 2 25 26
M  V30 26 1 26 27
M  V30 27 2 27 28
M  V30 28 1 28 29
M  V30 29 2 29 30
M  V30 30 1 30 31
M  V30 31 2 31 32
M  V30 32 1 24 33
M  V30 33 2 33 34
M  V30 34 1 34 35
M  V30 35 2 35 36
M  V30 36 1 36 37
M  V30 37 2 37 38
M  V30 38 1 10 3
M  V30 39 1 18 12
M  V30 40 1 26 22
M  V30 41 1 32 27
M  V30 42 1 38 33
M  V30 43 1 1 39
M  V30 44 1 1 40
M  V30 45 1 1 41
M  V30 46 1 6 42
M  V30 47 1 6 43
M  V30 48 1 10 44
M  V30 49 1 11 45
M  V30 50 1 14 46
M  V30 51 1 14 47
M  V30 52 1 17 48
M  V30 53 1 21 49
M  V30 54 1 21 50
M  V30 55 1 21 51
M  V30 56 1 23 52
M  V30 57 1 28 53
M  V30 58 1 29 54
M  V30 59 1 30 55
M  V30 60 1 31 56
M  V30 61 1 32 57
M  V30 62 1 34 58
M  V30 63 1 35 59
M  V30 64 1 36 60
M  V30 65 1 37 61
M  V30 66 1 38 62
M  V30 END BOND
M  V30 END CTAB
M  END
