
     RDKit          3D

  0  0  0  0  0  0  0  0  0  0999 V3000
M  V30 BEGIN CTAB
M  V30 COUNTS 22 23 0 0 0
M  V30 BEGIN ATOM
M  V30 1 C -3.7231 -0.722359 -0.658454 0
M  V30 2 C -2.64573 -0.0106655 0.135303 0
M  V30 3 C -3.02399 0.836734 1.14337 0
M  V30 4 S -1.53278 1.40068 1.74694 0
M  V30 5 C -0.47562 0.550791 0.709713 0
M  V30 6 C -1.33281 -0.154841 -0.0844773 0
M  V30 7 C 0.990567 0.61573 0.729211 0
M  V30 8 N 1.69837 1.36894 1.58507 0
M  V30 9 N 2.99141 1.22323 1.36423 0
M  V30 10 C 3.15612 0.36036 0.346055 0
M  V30 11 N 1.89793 -0.0012966 -0.029392 0
M  V30 12 N 1.63518 -0.883794 -1.05407 0
M  V30 13 N 4.39004 -0.0755429 -0.212802 0
M  V30 14 H -3.27873 -1.69648 -0.946669 0
M  V30 15 H -4.60364 -0.93569 -0.0174384 0
M  V30 16 H -3.94238 -0.137899 -1.54907 0
M  V30 17 H -4.03569 1.10194 1.49335 0
M  V30 18 H -0.916624 -0.813872 -0.87327 0
M  V30 19 H 1.64663 -0.60079 -2.06038 0
M  V30 20 H 1.40629 -1.90328 -0.869498 0
M  V30 21 H 4.44058 -0.330037 -1.22944 0
M  V30 22 H 5.25799 -0.15888 0.331724 0
M  V30 END ATOM
M  V30 BEGIN BOND
M  V30 1 1 1 2
M  V30 2 2 2 3
M  V30 3 1 3 4
M  V30 4 1 4 5
M  V30 5 2 5 6
M  V30 6 1 5 7
M  V30 7 2 7 8
M  V30 8 1 8 9
M  V30 9 2 9 10
M  V30 10 1 10 11
M  V30 11 1 11 12
M  V30 12 1 10 13
M  V30 13 1 6 2
M  V30 14 1 11 7
M  V30 15 1 1 14
M  V30 16 1 1 15
M  V30 17 1 1 16
M  V30 18 1 3 17
M  V30 19 1 6 18
M  V30 20 1 12 19
M  V30 21 1 12 20
M  V30 22 1 13 21
M  V30 23 1 13 22
M  V30 END BOND
M  V30 END CTAB
M  END
