
     RDKit          3D

  0  0  0  0  0  0  0  0  0  0999 V3000
M  V30 BEGIN CTAB
M  V30 COUNTS 17 18 0 0 0
M  V30 BEGIN ATOM
M  V30 1 N -2.82361 -1.55675 0.213071 0
M  V30 2 C -1.61922 -0.839353 0.0617723 0
M  V30 3 N -0.438527 -1.48117 0.110984 0
M  V30 4 C 0.738627 -0.842481 -0.0277249 0
M  V30 5 C 0.681188 0.523163 -0.226091 0
M  V30 6 N 1.9445 0.935711 -0.334882 0
M  V30 7 C 2.74284 -0.130894 -0.208703 0
M  V30 8 Br 4.63624 -0.0578138 -0.291682 0
M  V30 9 N 2.03405 -1.25548 -0.0165016 0
M  V30 10 C -0.529932 1.20827 -0.280499 0
M  V30 11 N -0.52141 2.61884 -0.487993 0
M  V30 12 N -1.63785 0.492351 -0.133089 0
M  V30 13 H -3.49145 -1.5946 -0.562004 0
M  V30 14 H -3.00657 -2.03414 1.11514 0
M  V30 15 H 2.34832 -2.23834 0.115857 0
M  V30 16 H 0.320663 3.18675 -0.302598 0
M  V30 17 H -1.37786 3.06594 -0.829277 0
M  V30 END ATOM
M  V30 BEGIN BOND
M  V30 1 1 1 2
M  V30 2 2 2 3
M  V30 3 1 3 4
M  V30 4 2 4 5
M  V30 5 1 5 6
M  V30 6 2 6 7
M  V30 7 1 7 8
M  V30 8 1 7 9
M  V30 9 1 5 10
M  V30 10 1 10 11
M  V30 11 2 10 12
M  V30 12 1 12 2
M  V30 13 1 9 4
M  V30 14 1 1 13
M  V30 15 1 1 14
M  V30 16 1 9 15
M  V30 17 1 11 16
M  V30 18 1 11 17
M  V30 END BOND
M  V30 END CTAB
M  END
