
     RDKit          3D

  0  0  0  0  0  0  0  0  0  0999 V3000
M  V30 BEGIN CTAB
M  V30 COUNTS 36 38 0 0 0
M  V30 BEGIN ATOM
M  V30 1 N 5.27768 -2.33487 -0.204362 0
M  V30 2 C 4.70476 -1.10097 -0.178813 0
M  V30 3 N 3.37688 -0.761743 -0.223342 0
M  V30 4 C 3.06346 0.574113 -0.260013 0
M  V30 5 N 4.0308 1.62148 -0.285216 0
M  V30 6 C 5.38612 1.15536 -0.275542 0
M  V30 7 N 5.47901 -0.105272 -0.211566 0
M  V30 8 N 6.40705 2.04443 -0.227729 0
M  V30 9 S 1.44196 1.11692 -0.665438 0
M  V30 10 C 0.150344 0.419693 0.250723 0
M  V30 11 C -0.919291 -0.120589 -0.62773 0
M  V30 12 O -0.707526 -0.226267 -1.92665 0
M  V30 13 C -2.26854 -0.566999 -0.203074 0
M  V30 14 C -2.5794 -1.87898 -0.234237 0
M  V30 15 N -4.02058 -1.86587 -0.118518 0
M  V30 16 C -4.40489 -0.574988 -0.0363973 0
M  V30 17 C -3.32584 0.282054 -0.0547819 0
M  V30 18 C -3.48356 1.63569 0.0110155 0
M  V30 19 C -4.78874 2.11251 0.18237 0
M  V30 20 C -5.88207 1.25537 0.182849 0
M  V30 21 C -5.66688 -0.0659284 0.0419457 0
M  V30 22 C 0.523088 -0.771566 1.12892 0
M  V30 23 H 5.37543 -2.77852 -1.22613 0
M  V30 24 H 5.52032 -2.93881 0.580004 0
M  V30 25 H 7.16576 2.21493 -0.854566 0
M  V30 26 H 6.27738 2.70597 0.615852 0
M  V30 27 H -0.39616 1.15354 0.928494 0
M  V30 28 H -2.00063 -2.70815 -0.379406 0
M  V30 29 H -4.59044 -2.70694 -0.0351353 0
M  V30 30 H -2.61245 2.28427 0.0717162 0
M  V30 31 H -4.92142 3.15922 0.362629 0
M  V30 32 H -6.88613 1.64996 0.133525 0
M  V30 33 H -6.55632 -0.718605 -0.1701 0
M  V30 34 H -0.350308 -1.03734 1.73221 0
M  V30 35 H 0.810947 -1.61154 0.448668 0
M  V30 36 H 1.37018 -0.511546 1.7559 0
M  V30 END ATOM
M  V30 BEGIN BOND
M  V30 1 1 1 2
M  V30 2 2 2 3
M  V30 3 1 3 4
M  V30 4 2 4 5
M  V30 5 1 5 6
M  V30 6 2 6 7
M  V30 7 1 6 8
M  V30 8 1 4 9
M  V30 9 1 9 10
M  V30 10 1 10 11
M  V30 11 2 11 12
M  V30 12 1 11 13
M  V30 13 2 13 14
M  V30 14 1 14 15
M  V30 15 1 15 16
M  V30 16 2 16 17
M  V30 17 1 17 18
M  V30 18 2 18 19
M  V30 19 1 19 20
M  V30 20 2 20 21
M  V30 21 1 10 22
M  V30 22 1 7 2
M  V30 23 1 17 13
M  V30 24 1 21 16
M  V30 25 1 1 23
M  V30 26 1 1 24
M  V30 27 1 8 25
M  V30 28 1 8 26
M  V30 29 1 10 27
M  V30 30 1 14 28
M  V30 31 1 15 29
M  V30 32 1 18 30
M  V30 33 1 19 31
M  V30 34 1 20 32
M  V30 35 1 21 33
M  V30 36 1 22 34
M  V30 37 1 22 35
M  V30 38 1 22 36
M  V30 END BOND
M  V30 END CTAB
M  END
