
     RDKit          3D

  0  0  0  0  0  0  0  0  0  0999 V3000
M  V30 BEGIN CTAB
M  V30 COUNTS 25 26 0 0 0
M  V30 BEGIN ATOM
M  V30 1 N 4.30355 -1.17189 0.447506 0
M  V30 2 C 3.18834 -0.270031 0.294005 0
M  V30 3 N 3.32105 1.05691 0.175822 0
M  V30 4 N 2.10301 1.54899 0.0550716 0
M  V30 5 C 1.20018 0.543204 0.0959438 0
M  V30 6 N 1.88983 -0.586065 0.245242 0
M  V30 7 C -0.248732 0.70623 -0.00734688 0
M  V30 8 C -0.782923 1.99079 -0.161047 0
M  V30 9 C -2.13811 2.17263 -0.260383 0
M  V30 10 C -3.01938 1.12073 -0.214471 0
M  V30 11 C -2.48902 -0.135792 -0.0636532 0
M  V30 12 C -1.1129 -0.339527 0.0390138 0
M  V30 13 C -0.647752 -1.73496 0.198847 0
M  V30 14 N -3.39961 -1.2324 -0.0153154 0
M  V30 15 H 4.29731 -2.13459 0.0450262 0
M  V30 16 H 5.13613 -0.837526 0.980301 0
M  V30 17 H 4.23839 1.60554 0.179307 0
M  V30 18 H -0.130538 2.85584 -0.203182 0
M  V30 19 H -2.56386 3.17287 -0.380656 0
M  V30 20 H -4.07707 1.27895 -0.293538 0
M  V30 21 H -0.105339 -1.90032 1.15187 0
M  V30 22 H -0.0164025 -2.03579 -0.642687 0
M  V30 23 H -1.52372 -2.45181 0.185717 0
M  V30 24 H -3.58278 -1.72971 -0.913987 0
M  V30 25 H -3.83966 -1.49226 0.894666 0
M  V30 END ATOM
M  V30 BEGIN BOND
M  V30 1 1 1 2
M  V30 2 1 2 3
M  V30 3 1 3 4
M  V30 4 2 4 5
M  V30 5 1 5 6
M  V30 6 1 5 7
M  V30 7 2 7 8
M  V30 8 1 8 9
M  V30 9 2 9 10
M  V30 10 1 10 11
M  V30 11 2 11 12
M  V30 12 1 12 13
M  V30 13 1 11 14
M  V30 14 2 6 2
M  V30 15 1 12 7
M  V30 16 1 1 15
M  V30 17 1 1 16
M  V30 18 1 3 17
M  V30 19 1 8 18
M  V30 20 1 9 19
M  V30 21 1 10 20
M  V30 22 1 13 21
M  V30 23 1 13 22
M  V30 24 1 13 23
M  V30 25 1 14 24
M  V30 26 1 14 25
M  V30 END BOND
M  V30 END CTAB
M  END
