
     RDKit          3D

  0  0  0  0  0  0  0  0  0  0999 V3000
M  V30 BEGIN CTAB
M  V30 COUNTS 43 46 0 0 0
M  V30 BEGIN ATOM
M  V30 1 N 0.185186 1.33919 2.05139 0
M  V30 2 C 1.04674 0.712619 1.13247 0
M  V30 3 N 2.38891 0.726087 1.26071 0
M  V30 4 C 3.19904 0.123022 0.374726 0
M  V30 5 N 2.6869 -0.52423 -0.686332 0
M  V30 6 C 1.35905 -0.585022 -0.888027 0
M  V30 7 N 0.816614 -1.22486 -1.93983 0
M  V30 8 C -0.547588 -1.23595 -2.0661 0
M  V30 9 N -1.15169 -1.90397 -3.16723 0
M  V30 10 C -1.36835 -0.614998 -1.15278 0
M  V30 11 N -0.810536 0.0240577 -0.100979 0
M  V30 12 C 0.538827 0.0384934 0.0293846 0
M  V30 13 C -2.81272 -0.66497 -1.34721 0
M  V30 14 O -3.23664 -1.29869 -2.38083 0
M  V30 15 N -3.76707 -0.0767097 -0.495675 0
M  V30 16 C -3.3883 0.646444 0.67613 0
M  V30 17 C -4.71237 1.05719 1.35471 0
M  V30 18 O -5.47397 -0.0581786 1.59528 0
M  V30 19 C -5.90625 -0.639752 0.432936 0
M  V30 20 C -5.16916 -0.196958 -0.799388 0
M  V30 21 C 4.64404 0.200282 0.611706 0
M  V30 22 C 5.12335 0.873513 1.71121 0
M  V30 23 C 6.46732 0.945089 1.93113 0
M  V30 24 C 7.33458 0.342534 1.05033 0
M  V30 25 C 6.85893 -0.340926 -0.0650137 0
M  V30 26 C 5.51551 -0.403527 -0.270742 0
M  V30 27 H -0.503796 2.08048 1.80539 0
M  V30 28 H 0.236514 1.04392 3.04988 0
M  V30 29 H -1.42295 -1.45452 -4.06173 0
M  V30 30 H -1.33352 -2.92365 -3.06164 0
M  V30 31 H -2.76832 1.54697 0.495717 0
M  V30 32 H -2.85366 0.0176695 1.42563 0
M  V30 33 H -4.51163 1.65302 2.25897 0
M  V30 34 H -5.2416 1.72242 0.645414 0
M  V30 35 H -5.80917 -1.761 0.492671 0
M  V30 36 H -7.00075 -0.43548 0.263982 0
M  V30 37 H -5.36571 -0.975116 -1.57476 0
M  V30 38 H -5.61195 0.791109 -1.12317 0
M  V30 39 H 4.43581 1.35643 2.41773 0
M  V30 40 H 6.91104 1.46564 2.78711 0
M  V30 41 H 8.40748 0.365436 1.17191 0
M  V30 42 H 7.51578 -0.823164 -0.772916 0
M  V30 43 H 5.09609 -0.929958 -1.13405 0
M  V30 END ATOM
M  V30 BEGIN BOND
M  V30 1 1 1 2
M  V30 2 2 2 3
M  V30 3 1 3 4
M  V30 4 2 4 5
M  V30 5 1 5 6
M  V30 6 2 6 7
M  V30 7 1 7 8
M  V30 8 1 8 9
M  V30 9 2 8 10
M  V30 10 1 10 11
M  V30 11 2 11 12
M  V30 12 1 10 13
M  V30 13 2 13 14
M  V30 14 1 13 15
M  V30 15 1 15 16
M  V30 16 1 16 17
M  V30 17 1 17 18
M  V30 18 1 18 19
M  V30 19 1 19 20
M  V30 20 1 4 21
M  V30 21 2 21 22
M  V30 22 1 22 23
M  V30 23 2 23 24
M  V30 24 1 24 25
M  V30 25 2 25 26
M  V30 26 1 12 2
M  V30 27 1 20 15
M  V30 28 1 26 21
M  V30 29 1 12 6
M  V30 30 1 1 27
M  V30 31 1 1 28
M  V30 32 1 9 29
M  V30 33 1 9 30
M  V30 34 1 16 31
M  V30 35 1 16 32
M  V30 36 1 17 33
M  V30 37 1 17 34
M  V30 38 1 19 35
M  V30 39 1 19 36
M  V30 40 1 20 37
M  V30 41 1 20 38
M  V30 42 1 22 39
M  V30 43 1 23 40
M  V30 44 1 24 41
M  V30 45 1 25 42
M  V30 46 1 26 43
M  V30 END BOND
M  V30 END CTAB
M  END
