
     RDKit          3D

  0  0  0  0  0  0  0  0  0  0999 V3000
M  V30 BEGIN CTAB
M  V30 COUNTS 41 44 0 0 0
M  V30 BEGIN ATOM
M  V30 1 C 5.59533 -1.02254 3.07586 0
M  V30 2 S 6.0497 -0.120758 1.56743 0
M  V30 3 C 4.66084 0.000471195 0.449493 0
M  V30 4 C 4.41062 -0.954083 -0.512597 0
M  V30 5 C 3.33743 -0.837584 -1.35858 0
M  V30 6 C 2.45446 0.236611 -1.29242 0
M  V30 7 C 1.30932 0.387953 -2.18171 0
M  V30 8 N 0.104047 -0.257509 -1.78682 0
M  V30 9 C -0.264976 -1.51427 -2.06359 0
M  V30 10 C -1.49829 -1.78505 -1.49901 0
M  V30 11 C -1.87446 -0.629982 -0.857919 0
M  V30 12 C -0.871012 0.301856 -1.04777 0
M  V30 13 C -1.00471 1.56994 -0.498939 0
M  V30 14 C -2.10439 1.93268 0.230291 0
M  V30 15 C -3.10662 1.01358 0.424851 0
M  V30 16 N -4.20826 1.33253 1.13891 0
M  V30 17 C -5.17782 0.428704 1.32162 0
M  V30 18 N -6.34514 0.797412 2.08981 0
M  V30 19 N -5.06747 -0.791676 0.8029 0
M  V30 20 C -3.98606 -1.15789 0.0819679 0
M  V30 21 N -3.9631 -2.47433 -0.425537 0
M  V30 22 C -2.98521 -0.261069 -0.120264 0
M  V30 23 C 2.70379 1.18846 -0.33341 0
M  V30 24 C 3.79773 1.07072 0.529816 0
M  V30 25 H 5.00875 -1.92527 2.80971 0
M  V30 26 H 6.5105 -1.28369 3.60734 0
M  V30 27 H 4.95969 -0.412795 3.75018 0
M  V30 28 H 5.09865 -1.81129 -0.579869 0
M  V30 29 H 3.13417 -1.57131 -2.10763 0
M  V30 30 H 1.12761 1.47524 -2.33344 0
M  V30 31 H 1.61353 -0.00887817 -3.19112 0
M  V30 32 H 0.327761 -2.21292 -2.6491 0
M  V30 33 H -1.9829 -2.7282 -1.59425 0
M  V30 34 H -0.223656 2.30561 -0.648449 0
M  V30 35 H -2.23992 2.91527 0.672941 0
M  V30 36 H -6.55429 0.232868 2.92146 0
M  V30 37 H -6.88065 1.60364 1.74106 0
M  V30 38 H -3.54632 -3.2266 0.142283 0
M  V30 39 H -4.35933 -2.68622 -1.35287 0
M  V30 40 H 2.08794 2.06587 -0.19172 0
M  V30 41 H 3.95272 1.84596 1.26909 0
M  V30 END ATOM
M  V30 BEGIN BOND
M  V30 1 1 1 2
M  V30 2 1 2 3
M  V30 3 2 3 4
M  V30 4 1 4 5
M  V30 5 2 5 6
M  V30 6 1 6 7
M  V30 7 1 7 8
M  V30 8 1 8 9
M  V30 9 2 9 10
M  V30 10 1 10 11
M  V30 11 2 11 12
M  V30 12 1 12 13
M  V30 13 2 13 14
M  V30 14 1 14 15
M  V30 15 2 15 16
M  V30 16 1 16 17
M  V30 17 1 17 18
M  V30 18 2 17 19
M  V30 19 1 19 20
M  V30 20 1 20 21
M  V30 21 2 20 22
M  V30 22 1 6 23
M  V30 23 2 23 24
M  V30 24 1 24 3
M  V30 25 1 12 8
M  V30 26 1 22 15
M  V30 27 1 22 11
M  V30 28 1 1 25
M  V30 29 1 1 26
M  V30 30 1 1 27
M  V30 31 1 4 28
M  V30 32 1 5 29
M  V30 33 1 7 30
M  V30 34 1 7 31
M  V30 35 1 9 32
M  V30 36 1 10 33
M  V30 37 1 13 34
M  V30 38 1 14 35
M  V30 39 1 18 36
M  V30 40 1 18 37
M  V30 41 1 21 38
M  V30 42 1 21 39
M  V30 43 1 23 40
M  V30 44 1 24 41
M  V30 END BOND
M  V30 END CTAB
M  END
