
     RDKit          3D

  0  0  0  0  0  0  0  0  0  0999 V3000
M  V30 BEGIN CTAB
M  V30 COUNTS 23 23 0 0 0
M  V30 BEGIN ATOM
M  V30 1 C 3.78691 -0.994185 0.231471 0
M  V30 2 O 2.59654 -0.244441 0.341979 0
M  V30 3 C 1.35641 -0.68602 -0.046567 0
M  V30 4 O 1.27375 -1.83824 -0.534999 0
M  V30 5 C 0.157377 0.10974 0.0814523 0
M  V30 6 C 0.116793 1.38145 0.598603 0
M  V30 7 C 1.35769 1.98053 1.05224 0
M  V30 8 N 2.35139 2.48933 1.42753 0
M  V30 9 C -1.06505 2.10264 0.698767 0
M  V30 10 C -2.24682 1.57227 0.283335 0
M  V30 11 C -2.26028 0.28232 -0.250329 0
M  V30 12 C -1.07219 -0.414135 -0.339267 0
M  V30 13 N -1.06229 -1.72597 -0.878161 0
M  V30 14 N -3.49171 -0.273899 -0.684647 0
M  V30 15 H 4.50328 -0.364076 -0.358633 0
M  V30 16 H 4.215 -1.29219 1.18754 0
M  V30 17 H 3.65182 -1.92554 -0.372222 0
M  V30 18 H -1.04767 3.09384 1.11001 0
M  V30 19 H -3.16799 2.14682 0.366541 0
M  V30 20 H -1.30322 -2.57484 -0.335888 0
M  V30 21 H -0.797193 -1.84169 -1.87741 0
M  V30 22 H -4.38607 0.182717 -0.492714 0
M  V30 23 H -3.46648 -1.16642 -1.20864 0
M  V30 END ATOM
M  V30 BEGIN BOND
M  V30 1 1 1 2
M  V30 2 1 2 3
M  V30 3 2 3 4
M  V30 4 1 3 5
M  V30 5 2 5 6
M  V30 6 1 6 7
M  V30 7 3 7 8
M  V30 8 1 6 9
M  V30 9 2 9 10
M  V30 10 1 10 11
M  V30 11 2 11 12
M  V30 12 1 12 13
M  V30 13 1 11 14
M  V30 14 1 12 5
M  V30 15 1 1 15
M  V30 16 1 1 16
M  V30 17 1 1 17
M  V30 18 1 9 18
M  V30 19 1 10 19
M  V30 20 1 13 20
M  V30 21 1 13 21
M  V30 22 1 14 22
M  V30 23 1 14 23
M  V30 END BOND
M  V30 END CTAB
M  END
