
     RDKit          3D

  0  0  0  0  0  0  0  0  0  0999 V3000
M  V30 BEGIN CTAB
M  V30 COUNTS 15 14 0 0 0
M  V30 BEGIN ATOM
M  V30 1 C -0.939639 -1.0137 0.0713002 0
M  V30 2 C -0.0370551 0.219156 -0.0373008 0
M  V30 3 N 0.479362 0.554449 1.25607 0
M  V30 4 N -0.762114 1.28835 -0.675122 0
M  V30 5 C 1.10257 -0.130311 -0.920495 0
M  V30 6 O 2.39884 -0.106059 -0.477166 0
M  V30 7 O 0.840607 -0.450837 -2.09365 0
M  V30 8 H -0.846795 -1.47074 1.08579 0
M  V30 9 H -1.99189 -0.758466 -0.146953 0
M  V30 10 H -0.638741 -1.77617 -0.691258 0
M  V30 11 H 0.695204 -0.326302 1.76458 0
M  V30 12 H -0.103712 1.22291 1.7946 0
M  V30 13 H -1.39333 0.828678 -1.39187 0
M  V30 14 H -1.39872 1.80141 -0.0348952 0
M  V30 15 H 2.59541 0.117633 0.496373 0
M  V30 END ATOM
M  V30 BEGIN BOND
M  V30 1 1 1 2
M  V30 2 1 2 3
M  V30 3 1 2 4
M  V30 4 1 2 5
M  V30 5 1 5 6
M  V30 6 2 5 7
M  V30 7 1 1 8
M  V30 8 1 1 9
M  V30 9 1 1 10
M  V30 10 1 3 11
M  V30 11 1 3 12
M  V30 12 1 4 13
M  V30 13 1 4 14
M  V30 14 1 6 15
M  V30 END BOND
M  V30 END CTAB
M  END
