
     RDKit          3D

  0  0  0  0  0  0  0  0  0  0999 V3000
M  V30 BEGIN CTAB
M  V30 COUNTS 48 50 0 0 0
M  V30 BEGIN ATOM
M  V30 1 C 2.40064 -1.81354 -1.68259 0
M  V30 2 N 2.11608 -0.501418 -1.19133 0
M  V30 3 C 3.27289 0.337432 -1.42062 0
M  V30 4 C 4.36223 -0.11444 -0.536814 0
M  V30 5 C 4.92274 0.634616 0.367236 0
M  V30 6 C 4.52408 2.03775 0.610721 0
M  V30 7 N 5.70657 2.87808 0.346115 0
M  V30 8 C 1.69057 -0.378791 0.141184 0
M  V30 9 C 0.370617 -0.83455 0.56263 0 CFG=1
M  V30 10 O -0.71482 -0.154213 -0.0736613 0
M  V30 11 C -1.73059 -0.728563 0.732273 0 CFG=2
M  V30 12 C -1.54137 -2.16755 0.341355 0 CFG=2
M  V30 13 O -2.1941 -3.07908 1.12343 0
M  V30 14 C 0.000518836 -2.25839 0.48475 0 CFG=2
M  V30 15 O 0.227771 -2.92754 1.70448 0
M  V30 16 N -3.01285 -0.168621 0.539658 0
M  V30 17 C -4.07771 -0.499846 1.32039 0
M  V30 18 N -5.14909 0.193007 0.930311 0
M  V30 19 C -4.80233 0.968426 -0.0876596 0
M  V30 20 C -3.473 0.746048 -0.335259 0
M  V30 21 N -2.85212 1.40652 -1.32826 0
M  V30 22 C -3.5676 2.28379 -2.06142 0
M  V30 23 N -4.88552 2.52062 -1.83301 0
M  V30 24 C -5.53147 1.88202 -0.856631 0
M  V30 25 N -6.90487 2.07603 -0.545521 0
M  V30 26 H 3.29704 -1.85865 -2.33452 0
M  V30 27 H 2.61909 -2.47357 -0.816538 0
M  V30 28 H 1.56379 -2.17935 -2.32066 0
M  V30 29 H 3.04888 1.39789 -1.42517 0
M  V30 30 H 3.65681 0.105848 -2.47913 0
M  V30 31 H 4.7604 -1.15081 -0.614186 0
M  V30 32 H 5.7397 0.176629 0.973415 0
M  V30 33 H 3.63756 2.38703 0.108137 0
M  V30 34 H 4.41383 2.11232 1.74231 0
M  V30 35 H 5.91019 2.8388 -0.680016 0
M  V30 36 H 5.5319 3.85547 0.693067 0
M  V30 37 H 1.72499 0.735538 0.381319 0
M  V30 38 H 2.47396 -0.783092 0.855039 0
M  V30 39 H 0.243059 -0.526016 1.64696 0
M  V30 40 H -1.40742 -0.534859 1.78449 0
M  V30 41 H -1.81179 -2.24031 -0.73926 0
M  V30 42 H -2.90672 -3.52239 0.564437 0
M  V30 43 H 0.312368 -2.84183 -0.371107 0
M  V30 44 H 0.0707523 -3.89885 1.63186 0
M  V30 45 H -4.08863 -1.20259 2.13369 0
M  V30 46 H -3.14159 2.85705 -2.87664 0
M  V30 47 H -7.62948 1.3433 -0.569065 0
M  V30 48 H -7.17593 3.06462 -0.266766 0
M  V30 END ATOM
M  V30 BEGIN BOND
M  V30 1 1 1 2
M  V30 2 1 2 3
M  V30 3 1 3 4
M  V30 4 2 4 5
M  V30 5 1 5 6
M  V30 6 1 6 7
M  V30 7 1 2 8
M  V30 8 1 8 9
M  V30 9 1 9 10
M  V30 10 1 10 11
M  V30 11 1 11 12
M  V30 12 1 12 13
M  V30 13 1 12 14
M  V30 14 1 14 15
M  V30 15 1 11 16
M  V30 16 1 16 17
M  V30 17 2 17 18
M  V30 18 1 18 19
M  V30 19 2 19 20
M  V30 20 1 20 21
M  V30 21 2 21 22
M  V30 22 1 22 23
M  V30 23 2 23 24
M  V30 24 1 24 25
M  V30 25 1 14 9
M  V30 26 1 20 16
M  V30 27 1 24 19
M  V30 28 1 1 26
M  V30 29 1 1 27
M  V30 30 1 1 28
M  V30 31 1 3 29
M  V30 32 1 3 30
M  V30 33 1 4 31
M  V30 34 1 5 32
M  V30 35 1 6 33
M  V30 36 1 6 34
M  V30 37 1 7 35
M  V30 38 1 7 36
M  V30 39 1 8 37
M  V30 40 1 8 38
M  V30 41 1 9 39 CFG=1
M  V30 42 1 11 40 CFG=1
M  V30 43 1 12 41 CFG=3
M  V30 44 1 13 42
M  V30 45 1 14 43 CFG=3
M  V30 46 1 15 44
M  V30 47 1 17 45
M  V30 48 1 22 46
M  V30 49 1 25 47
M  V30 50 1 25 48
M  V30 END BOND
M  V30 END CTAB
M  END
