
     RDKit          3D

  0  0  0  0  0  0  0  0  0  0999 V3000
M  V30 BEGIN CTAB
M  V30 COUNTS 20 20 0 0 0
M  V30 BEGIN ATOM
M  V30 1 C 2.3046 -0.973483 0.228741 0
M  V30 2 O 1.21974 -0.598481 1.03475 0
M  V30 3 C 0.0978938 -0.0431447 0.397861 0
M  V30 4 C -0.879295 -0.94809 -0.00762328 0
M  V30 5 N -0.720746 -2.34258 0.223902 0
M  V30 6 C -2.00065 -0.434076 -0.639832 0
M  V30 7 C -2.11537 0.927238 -0.845213 0
M  V30 8 C -1.14419 1.82102 -0.441624 0
M  V30 9 C -0.0220958 1.31518 0.190094 0
M  V30 10 N 1.00762 2.18039 0.626868 0
M  V30 11 H 2.06121 -0.932777 -0.863737 0
M  V30 12 H 3.13973 -0.271802 0.394193 0
M  V30 13 H 2.65166 -2.02547 0.440353 0
M  V30 14 H -0.175899 -2.72038 1.02938 0
M  V30 15 H -1.16131 -3.00764 -0.429533 0
M  V30 16 H -2.77128 -1.13777 -0.960681 0
M  V30 17 H -2.98803 1.32293 -1.33677 0
M  V30 18 H -1.2393 2.89821 -0.606399 0
M  V30 19 H 0.84618 2.74826 1.47615 0
M  V30 20 H 1.88954 2.22246 0.0891142 0
M  V30 END ATOM
M  V30 BEGIN BOND
M  V30 1 1 1 2
M  V30 2 1 2 3
M  V30 3 2 3 4
M  V30 4 1 4 5
M  V30 5 1 4 6
M  V30 6 2 6 7
M  V30 7 1 7 8
M  V30 8 2 8 9
M  V30 9 1 9 10
M  V30 10 1 9 3
M  V30 11 1 1 11
M  V30 12 1 1 12
M  V30 13 1 1 13
M  V30 14 1 5 14
M  V30 15 1 5 15
M  V30 16 1 6 16
M  V30 17 1 7 17
M  V30 18 1 8 18
M  V30 19 1 10 19
M  V30 20 1 10 20
M  V30 END BOND
M  V30 END CTAB
M  END
