
     RDKit          3D

  0  0  0  0  0  0  0  0  0  0999 V3000
M  V30 BEGIN CTAB
M  V30 COUNTS 28 29 0 0 0
M  V30 BEGIN ATOM
M  V30 1 C -1.02726 2.11288 -0.111761 0
M  V30 2 C -0.591844 0.632528 0.148428 0
M  V30 3 C -1.09168 0.0827778 1.43098 0
M  V30 4 C -1.66544 -0.401385 0.146241 0
M  V30 5 C -1.4216 -1.85286 -0.130925 0
M  V30 6 C -3.0263 0.161904 -0.281025 0
M  V30 7 C 0.73063 0.356496 -0.381261 0
M  V30 8 N 1.05257 0.608196 -1.69741 0
M  V30 9 N 2.32813 0.316814 -1.88537 0
M  V30 10 C 2.85603 -0.121976 -0.722273 0
M  V30 11 N 1.84537 -0.0799605 0.158873 0
M  V30 12 N 1.96713 -0.453708 1.4795 0
M  V30 13 N 4.22 -0.501753 -0.462587 0
M  V30 14 H -2.04475 2.23991 0.214592 0
M  V30 15 H -0.347483 2.80037 0.378663 0
M  V30 16 H -0.871641 2.21909 -1.20401 0
M  V30 17 H -1.79646 0.737838 2.03472 0
M  V30 18 H -0.546311 -0.621554 2.04943 0
M  V30 19 H -1.02663 -2.39841 0.78911 0
M  V30 20 H -2.4208 -2.32549 -0.279072 0
M  V30 21 H -0.724713 -2.05066 -0.935505 0
M  V30 22 H -3.62286 -0.650469 -0.686692 0
M  V30 23 H -2.82871 0.862209 -1.14493 0
M  V30 24 H -3.49717 0.782079 0.495762 0
M  V30 25 H 1.728 0.175017 2.27389 0
M  V30 26 H 2.34096 -1.4249 1.73854 0
M  V30 27 H 4.91388 0.261994 -0.184177 0
M  V30 28 H 4.56893 -1.46697 -0.510111 0
M  V30 END ATOM
M  V30 BEGIN BOND
M  V30 1 1 1 2
M  V30 2 1 2 3
M  V30 3 1 3 4
M  V30 4 1 4 5
M  V30 5 1 4 6
M  V30 6 1 2 7
M  V30 7 2 7 8
M  V30 8 1 8 9
M  V30 9 2 9 10
M  V30 10 1 10 11
M  V30 11 1 11 12
M  V30 12 1 10 13
M  V30 13 1 4 2
M  V30 14 1 11 7
M  V30 15 1 1 14
M  V30 16 1 1 15
M  V30 17 1 1 16
M  V30 18 1 3 17
M  V30 19 1 3 18
M  V30 20 1 5 19
M  V30 21 1 5 20
M  V30 22 1 5 21
M  V30 23 1 6 22
M  V30 24 1 6 23
M  V30 25 1 6 24
M  V30 26 1 12 25
M  V30 27 1 12 26
M  V30 28 1 13 27
M  V30 29 1 13 28
M  V30 END BOND
M  V30 END CTAB
M  END
