
     RDKit          3D

  0  0  0  0  0  0  0  0  0  0999 V3000
M  V30 BEGIN CTAB
M  V30 COUNTS 32 32 0 0 0
M  V30 BEGIN ATOM
M  V30 1 O -3.64522 -0.486508 -1.11585 0
M  V30 2 C -2.82571 -1.08846 -0.171057 0
M  V30 3 C -1.61298 -0.202975 0.0157914 0
M  V30 4 O -1.93957 1.07072 0.455532 0
M  V30 5 C -2.58827 1.02562 1.66172 0
M  V30 6 C -0.593555 -0.855247 0.937323 0
M  V30 7 C 0.532907 0.13453 1.11597 0
M  V30 8 N 1.16481 0.301967 -0.176177 0
M  V30 9 C 0.36124 0.573899 -1.32199 0
M  V30 10 C -0.948714 -0.128639 -1.35663 0
M  V30 11 C 2.59009 0.195205 -0.303883 0
M  V30 12 N 3.15572 -0.925039 -0.0228553 0
M  V30 13 N 4.5345 -1.07542 -0.131901 0
M  V30 14 N 3.3247 1.32541 -0.734469 0
M  V30 15 H -3.59769 0.503687 -1.10397 0
M  V30 16 H -3.32051 -1.3721 0.750806 0
M  V30 17 H -2.43875 -2.02824 -0.658715 0
M  V30 18 H -3.53655 0.450956 1.63832 0
M  V30 19 H -1.98034 0.587249 2.47904 0
M  V30 20 H -2.81287 2.07463 1.99566 0
M  V30 21 H -0.999839 -1.10921 1.91175 0
M  V30 22 H -0.267816 -1.7825 0.444106 0
M  V30 23 H 1.2362 -0.23046 1.8879 0
M  V30 24 H 0.103496 1.11669 1.3982 0
M  V30 25 H 0.267975 1.68591 -1.45548 0
M  V30 26 H 0.940708 0.242658 -2.23293 0
M  V30 27 H -1.61663 0.340909 -2.09787 0
M  V30 28 H -0.79502 -1.18163 -1.67723 0
M  V30 29 H 4.91918 -1.63783 -0.920327 0
M  V30 30 H 5.22211 -0.658065 0.530799 0
M  V30 31 H 3.45082 2.10139 -0.0522655 0
M  V30 32 H 3.7156 1.36827 -1.68932 0
M  V30 END ATOM
M  V30 BEGIN BOND
M  V30 1 1 1 2
M  V30 2 1 2 3
M  V30 3 1 3 4
M  V30 4 1 4 5
M  V30 5 1 3 6
M  V30 6 1 6 7
M  V30 7 1 7 8
M  V30 8 1 8 9
M  V30 9 1 9 10
M  V30 10 1 8 11
M  V30 11 2 11 12 CFG=2
M  V30 12 1 12 13
M  V30 13 1 11 14
M  V30 14 1 10 3
M  V30 15 1 1 15
M  V30 16 1 2 16
M  V30 17 1 2 17
M  V30 18 1 5 18
M  V30 19 1 5 19
M  V30 20 1 5 20
M  V30 21 1 6 21
M  V30 22 1 6 22
M  V30 23 1 7 23
M  V30 24 1 7 24
M  V30 25 1 9 25
M  V30 26 1 9 26
M  V30 27 1 10 27
M  V30 28 1 10 28
M  V30 29 1 13 29
M  V30 30 1 13 30
M  V30 31 1 14 31
M  V30 32 1 14 32
M  V30 END BOND
M  V30 END CTAB
M  END
