
     RDKit          3D

  0  0  0  0  0  0  0  0  0  0999 V3000
M  V30 BEGIN CTAB
M  V30 COUNTS 43 45 0 0 0
M  V30 BEGIN ATOM
M  V30 1 Br -5.59428 3.04724 1.7659 0
M  V30 2 C -4.13659 2.02745 1.06715 0
M  V30 3 C -3.43757 1.13197 1.85385 0
M  V30 4 C -2.37715 0.401409 1.31435 0
M  V30 5 C -2.01665 0.564728 -0.00530769 0
M  V30 6 C -2.73257 1.46279 -0.75841 0
M  V30 7 C -3.78759 2.19719 -0.242492 0
M  V30 8 C -0.885338 -0.1853 -0.623503 0
M  V30 9 C -1.0483 -1.64016 -0.437912 0
M  V30 10 C -0.108777 -2.37551 0.11492 0
M  V30 11 N -0.314094 -3.80615 0.281094 0
M  V30 12 O 1.10433 -1.85387 0.559303 0
M  V30 13 C 1.31701 -0.500066 0.405314 0
M  V30 14 C 0.411061 0.291455 -0.140729 0
M  V30 15 C 0.798061 1.71105 -0.236603 0
M  V30 16 O -0.0520637 2.62726 -0.134193 0
M  V30 17 C 2.20349 2.13264 -0.457594 0
M  V30 18 C 3.12173 0.941479 -0.306453 0
M  V30 19 C 2.59422 0.138785 0.85388 0
M  V30 20 C 3.15859 0.0646222 -1.52093 0
M  V30 21 C 4.51222 1.40257 0.0430847 0
M  V30 22 C -2.29026 -2.31742 -0.889414 0
M  V30 23 S -3.52369 -1.53551 -1.60061 0
M  V30 24 N -2.45447 -3.7063 -0.71123 0
M  V30 25 H -3.70196 0.989101 2.88544 0
M  V30 26 H -1.82021 -0.297023 1.89965 0
M  V30 27 H -2.46435 1.60209 -1.78934 0
M  V30 28 H -4.29575 2.88162 -0.906782 0
M  V30 29 H -0.908044 0.0405054 -1.73172 0
M  V30 30 H -0.0105214 -4.44661 -0.469441 0
M  V30 31 H -0.743725 -4.18413 1.13533 0
M  V30 32 H 2.53062 2.87243 0.324724 0
M  V30 33 H 2.36999 2.59266 -1.44598 0
M  V30 34 H 3.33803 -0.620121 1.15981 0
M  V30 35 H 2.33747 0.774451 1.7255 0
M  V30 36 H 2.21593 0.160064 -2.11338 0
M  V30 37 H 3.9741 0.347898 -2.22359 0
M  V30 38 H 3.24757 -0.986909 -1.18457 0
M  V30 39 H 4.81507 2.30921 -0.498118 0
M  V30 40 H 4.52154 1.60571 1.13657 0
M  V30 41 H 5.21575 0.581488 -0.226093 0
M  V30 42 H -2.1781 -4.43708 -1.40052 0
M  V30 43 H -2.90476 -4.00771 0.202669 0
M  V30 END ATOM
M  V30 BEGIN BOND
M  V30 1 1 1 2
M  V30 2 2 2 3
M  V30 3 1 3 4
M  V30 4 2 4 5
M  V30 5 1 5 6
M  V30 6 2 6 7
M  V30 7 1 5 8
M  V30 8 1 8 9
M  V30 9 2 9 10
M  V30 10 1 10 11
M  V30 11 1 10 12
M  V30 12 1 12 13
M  V30 13 2 13 14
M  V30 14 1 14 15
M  V30 15 2 15 16
M  V30 16 1 15 17
M  V30 17 1 17 18
M  V30 18 1 18 19
M  V30 19 1 18 20
M  V30 20 1 18 21
M  V30 21 1 9 22
M  V30 22 2 22 23
M  V30 23 1 22 24
M  V30 24 1 7 2
M  V30 25 1 14 8
M  V30 26 1 19 13
M  V30 27 1 3 25
M  V30 28 1 4 26
M  V30 29 1 6 27
M  V30 30 1 7 28
M  V30 31 1 8 29
M  V30 32 1 11 30
M  V30 33 1 11 31
M  V30 34 1 17 32
M  V30 35 1 17 33
M  V30 36 1 19 34
M  V30 37 1 19 35
M  V30 38 1 20 36
M  V30 39 1 20 37
M  V30 40 1 20 38
M  V30 41 1 21 39
M  V30 42 1 21 40
M  V30 43 1 21 41
M  V30 44 1 24 42
M  V30 45 1 24 43
M  V30 END BOND
M  V30 END CTAB
M  END
