
     RDKit          3D

  0  0  0  0  0  0  0  0  0  0999 V3000
M  V30 BEGIN CTAB
M  V30 COUNTS 18 18 0 0 0
M  V30 BEGIN ATOM
M  V30 1 N 3.33231 -0.0902554 0.0594553 0
M  V30 2 C 1.89704 -0.049808 0.029792 0
M  V30 3 C 1.19236 -0.524059 1.11226 0
M  V30 4 C -0.201736 -0.479475 1.0718 0
M  V30 5 C -0.808898 0.0363555 -0.0479143 0
M  V30 6 N -0.0671837 0.484351 -1.07365 0
M  V30 7 C 1.27672 0.465817 -1.08892 0
M  V30 8 C -2.25575 0.0814034 -0.0871772 0
M  V30 9 N -3.05221 -0.315709 0.827881 0
M  V30 10 N -2.86549 0.625379 -1.26924 0
M  V30 11 H 3.8902 -0.153783 -0.821834 0
M  V30 12 H 3.79701 -0.053926 0.992025 0
M  V30 13 H 1.69212 -0.934341 2.00216 0
M  V30 14 H -0.744578 -0.862128 1.94414 0
M  V30 15 H 1.84611 0.83828 -1.93974 0
M  V30 16 H -2.7321 -0.725123 1.72337 0
M  V30 17 H -2.65708 1.59658 -1.60016 0
M  V30 18 H -3.53884 0.0604417 -1.83426 0
M  V30 END ATOM
M  V30 BEGIN BOND
M  V30 1 1 1 2
M  V30 2 2 2 3
M  V30 3 1 3 4
M  V30 4 2 4 5
M  V30 5 1 5 6
M  V30 6 2 6 7
M  V30 7 1 5 8
M  V30 8 2 8 9 CFG=2
M  V30 9 1 8 10
M  V30 10 1 7 2
M  V30 11 1 1 11
M  V30 12 1 1 12
M  V30 13 1 3 13
M  V30 14 1 4 14
M  V30 15 1 7 15
M  V30 16 1 9 16
M  V30 17 1 10 17
M  V30 18 1 10 18
M  V30 END BOND
M  V30 END CTAB
M  END
