
     RDKit          3D

  0  0  0  0  0  0  0  0  0  0999 V3000
M  V30 BEGIN CTAB
M  V30 COUNTS 34 35 0 0 0
M  V30 BEGIN ATOM
M  V30 1 C 6.38001 -0.114059 0.88925 0
M  V30 2 O 5.43583 0.911614 1.12837 0
M  V30 3 C 4.15901 0.847853 0.58715 0
M  V30 4 C 3.82697 -0.238622 -0.192244 0
M  V30 5 C 2.55719 -0.283333 -0.719606 0
M  V30 6 C 1.64317 0.730966 -0.474924 0
M  V30 7 C 1.99874 1.80682 0.307314 0
M  V30 8 C 3.26532 1.87001 0.844647 0
M  V30 9 F 3.66157 2.9217 1.63021 0
M  V30 10 C 0.286692 0.684476 -1.03801 0
M  V30 11 O -0.524919 1.59153 -0.817688 0
M  V30 12 C -0.0745125 -0.471142 -1.86905 0
M  V30 13 S -1.74828 -0.408956 -2.50073 0
M  V30 14 C -2.98349 -0.530273 -1.2445 0
M  V30 15 N -3.5032 -1.69371 -0.810869 0
M  V30 16 C -4.44559 -1.73087 0.148489 0
M  V30 17 N -4.99201 -2.96675 0.604701 0
M  V30 18 C -4.92196 -0.575725 0.731577 0
M  V30 19 C -4.3898 0.618106 0.287807 0
M  V30 20 N -3.45018 0.594937 -0.673633 0
M  V30 21 N -4.83823 1.83584 0.845722 0
M  V30 22 H 6.61049 -0.0574693 -0.211706 0
M  V30 23 H 5.96192 -1.11108 1.11129 0
M  V30 24 H 7.30326 0.0864711 1.47014 0
M  V30 25 H 4.54788 -1.04465 -0.388962 0
M  V30 26 H 2.26157 -1.13707 -1.34529 0
M  V30 27 H 1.30578 2.62379 0.520323 0
M  V30 28 H 0.617498 -0.504258 -2.74803 0
M  V30 29 H 0.10497 -1.3843 -1.25369 0
M  V30 30 H -4.78835 -3.27259 1.57877 0
M  V30 31 H -5.57466 -3.5542 -0.000437637 0
M  V30 32 H -5.69114 -0.599033 1.51449 0
M  V30 33 H -4.89713 1.94701 1.87217 0
M  V30 34 H -5.10441 2.60697 0.216962 0
M  V30 END ATOM
M  V30 BEGIN BOND
M  V30 1 1 1 2
M  V30 2 1 2 3
M  V30 3 2 3 4
M  V30 4 1 4 5
M  V30 5 2 5 6
M  V30 6 1 6 7
M  V30 7 2 7 8
M  V30 8 1 8 9
M  V30 9 1 6 10
M  V30 10 2 10 11
M  V30 11 1 10 12
M  V30 12 1 12 13
M  V30 13 1 13 14
M  V30 14 2 14 15
M  V30 15 1 15 16
M  V30 16 1 16 17
M  V30 17 2 16 18
M  V30 18 1 18 19
M  V30 19 2 19 20
M  V30 20 1 19 21
M  V30 21 1 8 3
M  V30 22 1 20 14
M  V30 23 1 1 22
M  V30 24 1 1 23
M  V30 25 1 1 24
M  V30 26 1 4 25
M  V30 27 1 5 26
M  V30 28 1 7 27
M  V30 29 1 12 28
M  V30 30 1 12 29
M  V30 31 1 17 30
M  V30 32 1 17 31
M  V30 33 1 18 32
M  V30 34 1 21 33
M  V30 35 1 21 34
M  V30 END BOND
M  V30 END CTAB
M  END
