
     RDKit          3D

  0  0  0  0  0  0  0  0  0  0999 V3000
M  V30 BEGIN CTAB
M  V30 COUNTS 51 52 0 0 0
M  V30 BEGIN ATOM
M  V30 1 N 0.0822671 0.076437 1.82482 0
M  V30 2 C 0.496978 -0.0851935 0.424874 0
M  V30 3 C 1.98917 0.0597114 0.322778 0
M  V30 4 C 2.58138 0.819507 -0.663518 0
M  V30 5 C 3.9463 0.967275 -0.777387 0
M  V30 6 C 4.79025 0.343075 0.115876 0
M  V30 7 C 4.21008 -0.420305 1.10775 0
M  V30 8 C 2.84224 -0.563513 1.2153 0
M  V30 9 C 6.271 0.474851 0.0308081 0
M  V30 10 C 6.6934 -0.0887822 -1.3082 0
M  V30 11 C 6.72108 1.90447 0.199558 0
M  V30 12 C 0.0318692 -1.38143 -0.144213 0
M  V30 13 N -1.39921 -1.56681 -0.144486 0
M  V30 14 C -2.3321 -0.757189 -0.812322 0
M  V30 15 O -1.86393 0.212968 -1.46829 0
M  V30 16 C -3.77627 -1.03628 -0.742641 0
M  V30 17 C -4.57394 0.00266778 -0.0745324 0
M  V30 18 C -4.41806 1.3433 -0.350865 0
M  V30 19 C -5.21928 2.23468 0.339373 0
M  V30 20 C -6.15165 1.84461 1.27619 0
M  V30 21 C -6.31674 0.505294 1.56092 0
M  V30 22 C -5.52203 -0.382616 0.876782 0
M  V30 23 N -3.93198 -2.28141 0.00927535 0
M  V30 24 C -4.35077 -1.34699 -2.12493 0
M  V30 25 H -0.150258 1.05315 2.05308 0
M  V30 26 H -0.627352 -0.616636 2.10333 0
M  V30 27 H 0.0797692 0.759082 -0.127421 0
M  V30 28 H 1.88261 1.30541 -1.36147 0
M  V30 29 H 4.34519 1.57222 -1.5672 0
M  V30 30 H 4.8832 -0.915587 1.81674 0
M  V30 31 H 2.3974 -1.17664 2.01326 0
M  V30 32 H 6.72523 -0.114809 0.852466 0
M  V30 33 H 5.83217 -0.52947 -1.87075 0
M  V30 34 H 7.45404 -0.878143 -1.20388 0
M  V30 35 H 7.07241 0.738006 -1.97709 0
M  V30 36 H 7.34618 2.22145 -0.649042 0
M  V30 37 H 7.30244 2.05494 1.13706 0
M  V30 38 H 5.80201 2.52562 0.306093 0
M  V30 39 H 0.556538 -2.20276 0.392805 0
M  V30 40 H 0.385564 -1.42751 -1.19454 0
M  V30 41 H -1.79231 -2.39231 0.411232 0
M  V30 42 H -3.69467 1.7134 -1.09109 0
M  V30 43 H -5.07903 3.29124 0.105057 0
M  V30 44 H -6.77507 2.57407 1.80992 0
M  V30 45 H -7.04616 0.223666 2.29148 0
M  V30 46 H -5.66364 -1.44192 1.11109 0
M  V30 47 H -3.75206 -2.10497 0.99812 0
M  V30 48 H -4.83414 -2.76007 -0.185165 0
M  V30 49 H -4.50737 -0.425876 -2.71825 0
M  V30 50 H -5.29157 -1.9235 -1.9643 0
M  V30 51 H -3.65117 -2.0004 -2.66639 0
M  V30 END ATOM
M  V30 BEGIN BOND
M  V30 1 1 1 2
M  V30 2 1 2 3
M  V30 3 2 3 4
M  V30 4 1 4 5
M  V30 5 2 5 6
M  V30 6 1 6 7
M  V30 7 2 7 8
M  V30 8 1 6 9
M  V30 9 1 9 10
M  V30 10 1 9 11
M  V30 11 1 2 12
M  V30 12 1 12 13
M  V30 13 1 13 14
M  V30 14 2 14 15
M  V30 15 1 14 16
M  V30 16 1 16 17
M  V30 17 2 17 18
M  V30 18 1 18 19
M  V30 19 2 19 20
M  V30 20 1 20 21
M  V30 21 2 21 22
M  V30 22 1 16 23
M  V30 23 1 16 24
M  V30 24 1 8 3
M  V30 25 1 22 17
M  V30 26 1 1 25
M  V30 27 1 1 26
M  V30 28 1 2 27
M  V30 29 1 4 28
M  V30 30 1 5 29
M  V30 31 1 7 30
M  V30 32 1 8 31
M  V30 33 1 9 32
M  V30 34 1 10 33
M  V30 35 1 10 34
M  V30 36 1 10 35
M  V30 37 1 11 36
M  V30 38 1 11 37
M  V30 39 1 11 38
M  V30 40 1 12 39
M  V30 41 1 12 40
M  V30 42 1 13 41
M  V30 43 1 18 42
M  V30 44 1 19 43
M  V30 45 1 20 44
M  V30 46 1 21 45
M  V30 47 1 22 46
M  V30 48 1 23 47
M  V30 49 1 23 48
M  V30 50 1 24 49
M  V30 51 1 24 50
M  V30 52 1 24 51
M  V30 END BOND
M  V30 END CTAB
M  END
