
     RDKit          3D

  0  0  0  0  0  0  0  0  0  0999 V3000
M  V30 BEGIN CTAB
M  V30 COUNTS 35 36 0 0 0
M  V30 BEGIN ATOM
M  V30 1 N 5.42917 1.06688 -0.250714 0
M  V30 2 C 4.07703 0.635392 -0.153879 0
M  V30 3 C 3.72762 -0.642444 0.234593 0
M  V30 4 C 2.4069 -1.03578 0.320433 0
M  V30 5 C 1.37035 -0.174878 0.0233432 0
M  V30 6 C 1.71489 1.10175 -0.364889 0
M  V30 7 C 3.04028 1.49595 -0.450862 0
M  V30 8 C -0.0413699 -0.639318 0.128746 0 CFG=2
M  V30 9 O -0.1262 -1.86988 -0.450475 0
M  V30 10 C -1.38723 -2.3152 -0.740262 0
M  V30 11 C -2.20501 -2.25129 0.549224 0
M  V30 12 C -2.66144 -0.839317 0.712427 0
M  V30 13 N -2.33288 0.00267137 -0.407165 0
M  V30 14 C -0.94544 0.402462 -0.423997 0
M  V30 15 S -3.32228 1.41329 -0.47576 0
M  V30 16 O -4.7697 1.04863 -0.63644 0
M  V30 17 O -2.91599 2.21006 -1.68223 0
M  V30 18 N -3.07793 2.35378 0.944488 0
M  V30 19 H 6.17025 0.41192 -0.5903 0
M  V30 20 H 5.74367 2.02774 0.00335125 0
M  V30 21 H 4.53918 -1.34337 0.475592 0
M  V30 22 H 2.12819 -2.05223 0.629424 0
M  V30 23 H 0.903364 1.7875 -0.601192 0
M  V30 24 H 3.28948 2.50096 -0.757099 0
M  V30 25 H -0.296379 -0.760506 1.21715 0
M  V30 26 H -1.88531 -1.77127 -1.56432 0
M  V30 27 H -1.30846 -3.37551 -1.06817 0
M  V30 28 H -1.49975 -2.48928 1.3713 0
M  V30 29 H -3.04715 -2.96981 0.522481 0
M  V30 30 H -2.26243 -0.384333 1.61718 0
M  V30 31 H -3.7716 -0.851835 0.793813 0
M  V30 32 H -0.659062 0.768627 -1.42542 0
M  V30 33 H -0.878509 1.29776 0.258961 0
M  V30 34 H -2.35052 1.91648 1.53789 0
M  V30 35 H -2.79576 3.32438 0.702777 0
M  V30 END ATOM
M  V30 BEGIN BOND
M  V30 1 1 1 2
M  V30 2 2 2 3
M  V30 3 1 3 4
M  V30 4 2 4 5
M  V30 5 1 5 6
M  V30 6 2 6 7
M  V30 7 1 5 8
M  V30 8 1 8 9
M  V30 9 1 9 10
M  V30 10 1 10 11
M  V30 11 1 11 12
M  V30 12 1 12 13
M  V30 13 1 13 14
M  V30 14 1 13 15
M  V30 15 2 15 16
M  V30 16 2 15 17
M  V30 17 1 15 18
M  V30 18 1 7 2
M  V30 19 1 14 8
M  V30 20 1 1 19
M  V30 21 1 1 20
M  V30 22 1 3 21
M  V30 23 1 4 22
M  V30 24 1 6 23
M  V30 25 1 7 24
M  V30 26 1 8 25 CFG=1
M  V30 27 1 10 26
M  V30 28 1 10 27
M  V30 29 1 11 28
M  V30 30 1 11 29
M  V30 31 1 12 30
M  V30 32 1 12 31
M  V30 33 1 14 32
M  V30 34 1 14 33
M  V30 35 1 18 34
M  V30 36 1 18 35
M  V30 END BOND
M  V30 END CTAB
M  END
