
     RDKit          3D

  0  0  0  0  0  0  0  0  0  0999 V3000
M  V30 BEGIN CTAB
M  V30 COUNTS 24 25 0 0 0
M  V30 BEGIN ATOM
M  V30 1 N 4.28997 -1.07401 0.60529 0
M  V30 2 C 4.09929 0.0828662 -0.230524 0
M  V30 3 S 5.37074 1.05453 -0.559268 0
M  V30 4 N 2.83141 0.39535 -0.773435 0
M  V30 5 N 1.69107 -0.379478 -0.544264 0
M  V30 6 C 0.504321 0.145432 -0.454394 0
M  V30 7 N 0.188058 1.52092 -0.568392 0
M  V30 8 C -1.09655 1.72343 -0.43028 0
M  V30 9 C -1.73414 0.439905 -0.20721 0
M  V30 10 C -0.760043 -0.538264 -0.219876 0
M  V30 11 C -1.09507 -1.86224 -0.0301483 0
M  V30 12 C -2.41507 -2.1897 0.171558 0
M  V30 13 C -3.41979 -1.22513 0.189574 0
M  V30 14 C -3.04993 0.103119 -0.00499065 0
M  V30 15 N -1.7021 3.01354 -0.498556 0
M  V30 16 H 5.0583 -1.00104 1.32802 0
M  V30 17 H 3.69521 -1.9163 0.484844 0
M  V30 18 H 2.74282 1.23992 -1.37042 0
M  V30 19 H -0.368003 -2.65151 -0.0329988 0
M  V30 20 H -2.67448 -3.21624 0.318629 0
M  V30 21 H -4.43112 -1.52926 0.350055 0
M  V30 22 H -3.85134 0.845984 0.0123382 0
M  V30 23 H -1.8755 3.61113 0.336223 0
M  V30 24 H -1.99807 3.40704 -1.41954 0
M  V30 END ATOM
M  V30 BEGIN BOND
M  V30 1 1 1 2
M  V30 2 2 2 3
M  V30 3 1 2 4
M  V30 4 1 4 5
M  V30 5 2 5 6
M  V30 6 1 6 7
M  V30 7 2 7 8
M  V30 8 1 8 9
M  V30 9 2 9 10
M  V30 10 1 10 11
M  V30 11 2 11 12
M  V30 12 1 12 13
M  V30 13 2 13 14
M  V30 14 1 8 15
M  V30 15 1 6 10
M  V30 16 1 14 9
M  V30 17 1 1 16
M  V30 18 1 1 17
M  V30 19 1 4 18
M  V30 20 1 11 19
M  V30 21 1 12 20
M  V30 22 1 13 21
M  V30 23 1 14 22
M  V30 24 1 15 23
M  V30 25 1 15 24
M  V30 END BOND
M  V30 END CTAB
M  END
