
     RDKit          3D

  0  0  0  0  0  0  0  0  0  0999 V3000
M  V30 BEGIN CTAB
M  V30 COUNTS 38 38 0 0 0
M  V30 BEGIN ATOM
M  V30 1 N 3.84912 1.48099 0.524795 0
M  V30 2 C 3.35282 0.597752 -0.434111 0
M  V30 3 C 3.24494 -0.792445 0.165086 0
M  V30 4 C 2.43736 -1.68702 -0.756228 0
M  V30 5 C 1.01838 -1.15386 -0.873541 0
M  V30 6 N 0.93461 0.220609 -0.47052 0
M  V30 7 C 1.99462 1.10948 -0.885672 0
M  V30 8 C -0.117731 0.698787 0.293612 0
M  V30 9 O -0.062129 1.94877 0.62914 0
M  V30 10 C -1.26533 -0.119912 0.736034 0 CFG=2
M  V30 11 C -2.438 -0.100327 -0.200269 0
M  V30 12 C -2.96823 1.32641 -0.377316 0
M  V30 13 C -3.56832 -0.819141 0.562958 0
M  V30 14 C -2.29686 -0.806374 -1.48635 0
M  V30 15 N -1.8177 0.530967 1.96677 0
M  V30 16 H 3.95996 2.40677 0.287927 0
M  V30 17 H 4.267 1.06293 1.29637 0
M  V30 18 H 4.08762 0.572041 -1.27315 0
M  V30 19 H 4.25431 -1.19048 0.29997 0
M  V30 20 H 2.70475 -0.694817 1.12317 0
M  V30 21 H 2.87262 -1.72174 -1.77182 0
M  V30 22 H 2.39274 -2.71094 -0.363605 0
M  V30 23 H 0.72814 -1.19355 -1.95264 0
M  V30 24 H 0.375169 -1.79353 -0.273499 0
M  V30 25 H 2.04032 1.17895 -1.99559 0
M  V30 26 H 1.81709 2.15871 -0.53639 0
M  V30 27 H -1.02837 -1.13536 1.02203 0
M  V30 28 H -2.16967 2.0306 -0.646782 0
M  V30 29 H -3.71885 1.3511 -1.17566 0
M  V30 30 H -3.39515 1.67628 0.59683 0
M  V30 31 H -3.69109 -0.416672 1.57163 0
M  V30 32 H -4.49527 -0.609698 -0.0299683 0
M  V30 33 H -3.314 -1.89668 0.531475 0
M  V30 34 H -1.68171 -0.308415 -2.25119 0
M  V30 35 H -2.01841 -1.85866 -1.29102 0
M  V30 36 H -3.32917 -0.871701 -1.94157 0
M  V30 37 H -1.48212 0.0235253 2.80263 0
M  V30 38 H -1.47347 1.50664 2.02336 0
M  V30 END ATOM
M  V30 BEGIN BOND
M  V30 1 1 1 2
M  V30 2 1 2 3
M  V30 3 1 3 4
M  V30 4 1 4 5
M  V30 5 1 5 6
M  V30 6 1 6 7
M  V30 7 1 6 8
M  V30 8 2 8 9
M  V30 9 1 8 10
M  V30 10 1 10 11
M  V30 11 1 11 12
M  V30 12 1 11 13
M  V30 13 1 11 14
M  V30 14 1 10 15
M  V30 15 1 7 2
M  V30 16 1 1 16
M  V30 17 1 1 17
M  V30 18 1 2 18
M  V30 19 1 3 19
M  V30 20 1 3 20
M  V30 21 1 4 21
M  V30 22 1 4 22
M  V30 23 1 5 23
M  V30 24 1 5 24
M  V30 25 1 7 25
M  V30 26 1 7 26
M  V30 27 1 10 27 CFG=1
M  V30 28 1 12 28
M  V30 29 1 12 29
M  V30 30 1 12 30
M  V30 31 1 13 31
M  V30 32 1 13 32
M  V30 33 1 13 33
M  V30 34 1 14 34
M  V30 35 1 14 35
M  V30 36 1 14 36
M  V30 37 1 15 37
M  V30 38 1 15 38
M  V30 END BOND
M  V30 END CTAB
M  END
