
     RDKit          3D

  0  0  0  0  0  0  0  0  0  0999 V3000
M  V30 BEGIN CTAB
M  V30 COUNTS 68 68 0 0 0
M  V30 BEGIN ATOM
M  V30 1 N 9.94665 2.34025 -2.4291 0
M  V30 2 C 10.1287 1.4805 -1.28612 0
M  V30 3 C 8.92317 0.564511 -1.17311 0
M  V30 4 C 9.14915 -0.315688 0.017661 0
M  V30 5 N 8.07249 -1.24302 0.25094 0
M  V30 6 C 6.8537 -0.556309 0.677912 0
M  V30 7 C 5.81861 -1.61409 0.88955 0
M  V30 8 C 4.53063 -1.03099 1.34933 0
M  V30 9 C 3.97485 -0.0707306 0.352111 0
M  V30 10 N 2.71914 0.524768 0.735238 0
M  V30 11 C 1.54968 -0.231178 0.960978 0
M  V30 12 O 1.57103 -1.47675 0.824404 0
M  V30 13 C 0.300599 0.42736 1.35758 0
M  V30 14 C 0.478555 1.28481 2.60099 0
M  V30 15 O -0.671404 2.0009 2.8832 0
M  V30 16 N -0.775873 -0.519649 1.52336 0
M  V30 17 C -1.95874 -0.369487 0.764954 0
M  V30 18 O -2.03725 0.587849 -0.0407679 0
M  V30 19 C -3.05644 -1.31618 0.930405 0
M  V30 20 C -4.31972 -1.00356 0.210201 0
M  V30 21 C -4.97082 0.280201 0.597194 0
M  V30 22 C -6.22368 0.444026 -0.196534 0
M  V30 23 C -6.25031 1.05476 -1.44104 0
M  V30 24 C -7.39901 1.22252 -2.18048 0
M  V30 25 C -8.6043 0.767194 -1.67967 0
M  V30 26 N -9.78022 0.947563 -2.45212 0
M  V30 27 C -11.0191 0.514713 -1.89014 0
M  V30 28 N -11.6698 -0.64128 -2.38961 0
M  V30 29 N -11.5321 1.19628 -0.924367 0
M  V30 30 C -8.60225 0.15782 -0.446662 0
M  V30 31 C -7.43485 -0.00252773 0.283732 0
M  V30 32 H 8.92635 2.40672 -2.62716 0
M  V30 33 H 10.4763 1.98361 -3.23708 0
M  V30 34 H 11.0734 0.905152 -1.29327 0
M  V30 35 H 10.1256 2.14105 -0.376172 0
M  V30 36 H 7.99831 1.14776 -1.12473 0
M  V30 37 H 8.85735 -0.108051 -2.06309 0
M  V30 38 H 9.28665 0.276458 0.957466 0
M  V30 39 H 10.0689 -0.935547 -0.136843 0
M  V30 40 H 8.32107 -2.01123 0.887763 0
M  V30 41 H 7.10003 -0.00071656 1.60251 0
M  V30 42 H 6.54047 0.182983 -0.0745763 0
M  V30 43 H 6.17481 -2.40946 1.60177 0
M  V30 44 H 5.6488 -2.15943 -0.0838058 0
M  V30 45 H 4.77318 -0.423492 2.27843 0
M  V30 46 H 3.8057 -1.77831 1.71521 0
M  V30 47 H 4.682 0.781315 0.174605 0
M  V30 48 H 3.90335 -0.557054 -0.664996 0
M  V30 49 H 2.66278 1.57687 0.855524 0
M  V30 50 H 0.029145 1.16309 0.5501 0
M  V30 51 H 1.32087 1.97803 2.49838 0
M  V30 52 H 0.712365 0.60471 3.4566 0
M  V30 53 H -0.462925 2.95936 2.94143 0
M  V30 54 H -0.698313 -1.31155 2.1918 0
M  V30 55 H -2.70751 -2.32943 0.595478 0
M  V30 56 H -3.29801 -1.43752 2.0195 0
M  V30 57 H -4.13884 -1.02102 -0.897297 0
M  V30 58 H -5.04272 -1.83168 0.388928 0
M  V30 59 H -4.34015 1.14598 0.341004 0
M  V30 60 H -5.18891 0.272207 1.68823 0
M  V30 61 H -5.29502 1.40181 -1.81071 0
M  V30 62 H -7.38958 1.71096 -3.1656 0
M  V30 63 H -9.72624 1.38296 -3.39979 0
M  V30 64 H -12.4373 -1.06116 -1.84164 0
M  V30 65 H -11.4026 -1.08217 -3.28857 0
M  V30 66 H -11.0595 2.04845 -0.553355 0
M  V30 67 H -9.54383 -0.200834 -0.0486424 0
M  V30 68 H -7.467 -0.491472 1.26254 0
M  V30 END ATOM
M  V30 BEGIN BOND
M  V30 1 1 1 2
M  V30 2 1 2 3
M  V30 3 1 3 4
M  V30 4 1 4 5
M  V30 5 1 5 6
M  V30 6 1 6 7
M  V30 7 1 7 8
M  V30 8 1 8 9
M  V30 9 1 9 10
M  V30 10 1 10 11
M  V30 11 2 11 12
M  V30 12 1 11 13
M  V30 13 1 13 14
M  V30 14 1 14 15
M  V30 15 1 13 16
M  V30 16 1 16 17
M  V30 17 2 17 18
M  V30 18 1 17 19
M  V30 19 1 19 20
M  V30 20 1 20 21
M  V30 21 1 21 22
M  V30 22 2 22 23
M  V30 23 1 23 24
M  V30 24 2 24 25
M  V30 25 1 25 26
M  V30 26 1 26 27
M  V30 27 1 27 28
M  V30 28 2 27 29 CFG=2
M  V30 29 1 25 30
M  V30 30 2 30 31
M  V30 31 1 31 22
M  V30 32 1 1 32
M  V30 33 1 1 33
M  V30 34 1 2 34
M  V30 35 1 2 35
M  V30 36 1 3 36
M  V30 37 1 3 37
M  V30 38 1 4 38
M  V30 39 1 4 39
M  V30 40 1 5 40
M  V30 41 1 6 41
M  V30 42 1 6 42
M  V30 43 1 7 43
M  V30 44 1 7 44
M  V30 45 1 8 45
M  V30 46 1 8 46
M  V30 47 1 9 47
M  V30 48 1 9 48
M  V30 49 1 10 49
M  V30 50 1 13 50
M  V30 51 1 14 51
M  V30 52 1 14 52
M  V30 53 1 15 53
M  V30 54 1 16 54
M  V30 55 1 19 55
M  V30 56 1 19 56
M  V30 57 1 20 57
M  V30 58 1 20 58
M  V30 59 1 21 59
M  V30 60 1 21 60
M  V30 61 1 23 61
M  V30 62 1 24 62
M  V30 63 1 26 63
M  V30 64 1 28 64
M  V30 65 1 28 65
M  V30 66 1 29 66
M  V30 67 1 30 67
M  V30 68 1 31 68
M  V30 END BOND
M  V30 END CTAB
M  END
