
     RDKit          3D

  0  0  0  0  0  0  0  0  0  0999 V3000
M  V30 BEGIN CTAB
M  V30 COUNTS 38 40 0 0 0
M  V30 BEGIN ATOM
M  V30 1 C -1.60382 0.251486 4.27928 0
M  V30 2 O -1.0897 0.142159 2.98531 0
M  V30 3 C -1.83182 0.16793 1.83181 0
M  V30 4 C -3.21772 0.314265 1.8571 0
M  V30 5 C -3.95669 0.342977 0.691148 0
M  V30 6 C -3.28248 0.220049 -0.511251 0
M  V30 7 C -1.92164 0.0723016 -0.583563 0
M  V30 8 C -1.20893 0.0506688 0.615333 0
M  V30 9 C 0.25132 -0.0669382 0.564388 0
M  V30 10 O 1.06347 -0.0742634 1.62474 0
M  V30 11 N 2.30142 -0.190926 1.24337 0
M  V30 12 C 2.3395 -0.266084 -0.0806461 0
M  V30 13 N 1.05284 -0.186934 -0.484215 0
M  V30 14 C 3.48026 -0.396264 -1.0082 0
M  V30 15 N 3.51343 -1.6501 -1.74882 0
M  V30 16 C 4.84832 -0.216219 -0.309796 0
M  V30 17 C 5.31865 0.406239 -1.61188 0
M  V30 18 C 3.84405 0.817623 -1.81952 0
M  V30 19 S -4.24847 0.309958 -1.98964 0
M  V30 20 O -4.62547 1.68812 -2.34989 0
M  V30 21 O -3.43723 -0.257424 -3.1712 0
M  V30 22 N -5.63319 -0.7376 -1.85569 0
M  V30 23 H -1.8394 1.28692 4.56893 0
M  V30 24 H -2.46049 -0.44976 4.3939 0
M  V30 25 H -0.825237 -0.138742 4.97604 0
M  V30 26 H -3.69576 0.406542 2.80791 0
M  V30 27 H -5.02478 0.452576 0.667954 0
M  V30 28 H -1.37698 -0.022565 -1.53499 0
M  V30 29 H 3.02481 -2.34687 -1.11464 0
M  V30 30 H 3.03057 -1.61236 -2.67078 0
M  V30 31 H 4.75875 0.540051 0.486948 0
M  V30 32 H 5.34565 -1.14391 -0.0135328 0
M  V30 33 H 6.02879 1.2265 -1.54502 0
M  V30 34 H 5.55471 -0.40501 -2.3615 0
M  V30 35 H 3.58653 0.717332 -2.9103 0
M  V30 36 H 3.57426 1.75699 -1.33017 0
M  V30 37 H -6.34684 -0.260273 -1.24696 0
M  V30 38 H -5.29069 -1.58376 -1.34195 0
M  V30 END ATOM
M  V30 BEGIN BOND
M  V30 1 1 1 2
M  V30 2 1 2 3
M  V30 3 2 3 4
M  V30 4 1 4 5
M  V30 5 2 5 6
M  V30 6 1 6 7
M  V30 7 2 7 8
M  V30 8 1 8 9
M  V30 9 1 9 10
M  V30 10 1 10 11
M  V30 11 2 11 12
M  V30 12 1 12 13
M  V30 13 1 12 14
M  V30 14 1 14 15
M  V30 15 1 14 16
M  V30 16 1 16 17
M  V30 17 1 17 18
M  V30 18 1 6 19
M  V30 19 2 19 20
M  V30 20 2 19 21
M  V30 21 1 19 22
M  V30 22 1 8 3
M  V30 23 2 13 9
M  V30 24 1 18 14
M  V30 25 1 1 23
M  V30 26 1 1 24
M  V30 27 1 1 25
M  V30 28 1 4 26
M  V30 29 1 5 27
M  V30 30 1 7 28
M  V30 31 1 15 29
M  V30 32 1 15 30
M  V30 33 1 16 31
M  V30 34 1 16 32
M  V30 35 1 17 33
M  V30 36 1 17 34
M  V30 37 1 18 35
M  V30 38 1 18 36
M  V30 39 1 22 37
M  V30 40 1 22 38
M  V30 END BOND
M  V30 END CTAB
M  END
