
     RDKit          3D

  0  0  0  0  0  0  0  0  0  0999 V3000
M  V30 BEGIN CTAB
M  V30 COUNTS 33 35 0 0 0
M  V30 BEGIN ATOM
M  V30 1 N 5.75472 -0.571255 1.06086 0
M  V30 2 C 4.43919 -0.513873 0.514665 0
M  V30 3 N 3.37228 -0.982882 1.18938 0
M  V30 4 C 2.10695 -0.954656 0.720288 0
M  V30 5 C 1.88864 -0.410804 -0.530912 0
M  V30 6 C 0.578309 -0.380393 -1.0234 0
M  V30 7 C -0.482929 -0.862696 -0.322015 0
M  V30 8 C -1.8559 -0.792898 -0.879698 0
M  V30 9 C -2.75083 0.14792 -0.212149 0
M  V30 10 C -3.66437 -0.357157 0.700306 0
M  V30 11 C -4.52891 0.504105 1.37523 0
M  V30 12 C -4.48115 1.85533 1.14113 0
M  V30 13 C -3.58706 2.3716 0.244975 0
M  V30 14 C -2.72848 1.49095 -0.422222 0
M  V30 15 Cl -1.63357 2.2456 -1.55297 0
M  V30 16 C -0.235687 -1.40466 0.934071 0
M  V30 17 C 1.0396 -1.45294 1.45428 0
M  V30 18 C 2.96649 0.0721677 -1.23176 0
M  V30 19 N 2.78148 0.634034 -2.51325 0
M  V30 20 N 4.20234 0.0177405 -0.715952 0
M  V30 21 H 6.12769 -1.4275 1.48877 0
M  V30 22 H 6.31145 0.3208 0.993993 0
M  V30 23 H 0.479987 0.043924 -2.00725 0
M  V30 24 H -2.27447 -1.84362 -0.905018 0
M  V30 25 H -1.81941 -0.529239 -1.97946 0
M  V30 26 H -3.69338 -1.40264 0.876453 0
M  V30 27 H -5.23755 0.0959126 2.08641 0
M  V30 28 H -5.15191 2.51799 1.66581 0
M  V30 29 H -3.55496 3.44068 0.0671347 0
M  V30 30 H -1.06301 -1.78555 1.49143 0
M  V30 31 H 1.25847 -1.86527 2.42654 0
M  V30 32 H 2.93057 1.66961 -2.64118 0
M  V30 33 H 2.50542 0.109656 -3.35925 0
M  V30 END ATOM
M  V30 BEGIN BOND
M  V30 1 1 1 2
M  V30 2 2 2 3
M  V30 3 1 3 4
M  V30 4 2 4 5
M  V30 5 1 5 6
M  V30 6 2 6 7
M  V30 7 1 7 8
M  V30 8 1 8 9
M  V30 9 2 9 10
M  V30 10 1 10 11
M  V30 11 2 11 12
M  V30 12 1 12 13
M  V30 13 2 13 14
M  V30 14 1 14 15
M  V30 15 1 7 16
M  V30 16 2 16 17
M  V30 17 1 5 18
M  V30 18 1 18 19
M  V30 19 2 18 20
M  V30 20 1 20 2
M  V30 21 1 17 4
M  V30 22 1 14 9
M  V30 23 1 1 21
M  V30 24 1 1 22
M  V30 25 1 6 23
M  V30 26 1 8 24
M  V30 27 1 8 25
M  V30 28 1 10 26
M  V30 29 1 11 27
M  V30 30 1 12 28
M  V30 31 1 13 29
M  V30 32 1 16 30
M  V30 33 1 17 31
M  V30 34 1 19 32
M  V30 35 1 19 33
M  V30 END BOND
M  V30 END CTAB
M  END
