
     RDKit          3D

  0  0  0  0  0  0  0  0  0  0999 V3000
M  V30 BEGIN CTAB
M  V30 COUNTS 49 50 0 0 0
M  V30 BEGIN ATOM
M  V30 1 N 7.61466 0.773821 2.54555 0
M  V30 2 C 6.84549 1.37064 1.51008 0
M  V30 3 N 7.03559 2.61857 1.3007 0
M  V30 4 C 5.91357 0.546417 0.771457 0
M  V30 5 C 5.76899 -0.792164 1.06056 0
M  V30 6 C 4.88693 -1.58927 0.367382 0
M  V30 7 C 4.09867 -1.05798 -0.666731 0
M  V30 8 O 3.26606 -1.91561 -1.28776 0
M  V30 9 C 2.35288 -1.80174 -2.30191 0
M  V30 10 C 1.18834 -0.893407 -2.0921 0
M  V30 11 C 0.350944 -1.30603 -0.896365 0
M  V30 12 C -0.826374 -0.392314 -0.665929 0
M  V30 13 C -1.76655 -0.34927 -1.82471 0
M  V30 14 O -2.87924 0.43905 -1.71021 0
M  V30 15 C -3.96158 0.391364 -0.86482 0
M  V30 16 C -4.91915 1.40981 -1.03982 0
M  V30 17 I -4.63866 2.88899 -2.53049 0
M  V30 18 C -6.01665 1.40709 -0.225465 0
M  V30 19 C -6.24132 0.451203 0.769948 0
M  V30 20 C -5.28533 -0.527087 0.910695 0
M  V30 21 C -4.14624 -0.568074 0.10295 0
M  V30 22 C -7.43589 0.551636 1.56722 0
M  V30 23 N -8.3556 1.60315 1.33607 0
M  V30 24 N -7.69036 -0.290328 2.4859 0
M  V30 25 C 4.25774 0.260658 -0.934032 0
M  V30 26 C 5.15339 1.07163 -0.230398 0
M  V30 27 H 8.64083 0.947427 2.54492 0
M  V30 28 H 7.21054 0.185537 3.28672 0
M  V30 29 H 6.54921 3.18586 0.582612 0
M  V30 30 H 6.38613 -1.19334 1.86527 0
M  V30 31 H 4.81391 -2.63434 0.636427 0
M  V30 32 H 2.86216 -1.47083 -3.261 0
M  V30 33 H 1.92599 -2.80922 -2.58028 0
M  V30 34 H 1.46579 0.154813 -2.07644 0
M  V30 35 H 0.50067 -1.06537 -2.98065 0
M  V30 36 H 0.0724833 -2.36474 -0.930891 0
M  V30 37 H 1.02107 -1.18203 -0.00266255 0
M  V30 38 H -1.30507 -0.571357 0.303737 0
M  V30 39 H -0.367283 0.646565 -0.55024 0
M  V30 40 H -1.18043 0.0179412 -2.7261 0
M  V30 41 H -2.0641 -1.39191 -2.15226 0
M  V30 42 H -6.7426 2.21774 -0.391567 0
M  V30 43 H -5.39377 -1.29897 1.66045 0
M  V30 44 H -3.44179 -1.3714 0.254046 0
M  V30 45 H -8.47212 2.37056 2.02915 0
M  V30 46 H -8.90747 1.58133 0.453848 0
M  V30 47 H -7.06729 -1.08344 2.71253 0
M  V30 48 H 3.68618 0.718245 -1.72228 0
M  V30 49 H 5.23665 2.11018 -0.486158 0
M  V30 END ATOM
M  V30 BEGIN BOND
M  V30 1 1 1 2
M  V30 2 2 2 3 CFG=2
M  V30 3 1 2 4
M  V30 4 2 4 5
M  V30 5 1 5 6
M  V30 6 2 6 7
M  V30 7 1 7 8
M  V30 8 1 8 9
M  V30 9 1 9 10
M  V30 10 1 10 11
M  V30 11 1 11 12
M  V30 12 1 12 13
M  V30 13 1 13 14
M  V30 14 1 14 15
M  V30 15 2 15 16
M  V30 16 1 16 17
M  V30 17 1 16 18
M  V30 18 2 18 19
M  V30 19 1 19 20
M  V30 20 2 20 21
M  V30 21 1 19 22
M  V30 22 1 22 23
M  V30 23 2 22 24 CFG=2
M  V30 24 1 7 25
M  V30 25 2 25 26
M  V30 26 1 26 4
M  V30 27 1 21 15
M  V30 28 1 1 27
M  V30 29 1 1 28
M  V30 30 1 3 29
M  V30 31 1 5 30
M  V30 32 1 6 31
M  V30 33 1 9 32
M  V30 34 1 9 33
M  V30 35 1 10 34
M  V30 36 1 10 35
M  V30 37 1 11 36
M  V30 38 1 11 37
M  V30 39 1 12 38
M  V30 40 1 12 39
M  V30 41 1 13 40
M  V30 42 1 13 41
M  V30 43 1 18 42
M  V30 44 1 20 43
M  V30 45 1 21 44
M  V30 46 1 23 45
M  V30 47 1 23 46
M  V30 48 1 24 47
M  V30 49 1 25 48
M  V30 50 1 26 49
M  V30 END BOND
M  V30 END CTAB
M  END
