
     RDKit          3D

  0  0  0  0  0  0  0  0  0  0999 V3000
M  V30 BEGIN CTAB
M  V30 COUNTS 41 44 0 0 0
M  V30 BEGIN ATOM
M  V30 1 N -2.84908 -0.00843884 2.12277 0
M  V30 2 C -1.56008 -0.128954 1.54104 0
M  V30 3 N -0.523516 -0.118197 2.38787 0
M  V30 4 C 0.760644 -0.244819 2.067 0
M  V30 5 C 1.01481 -0.401991 0.714788 0
M  V30 6 C -0.0490569 -0.418392 -0.209631 0
M  V30 7 C -1.36188 -0.283501 0.158287 0
M  V30 8 C -2.28413 -0.326853 -0.826946 0
M  V30 9 C -1.81078 -0.506958 -2.11237 0
M  V30 10 S -0.131848 -0.603844 -1.9033 0
M  V30 11 C -3.76544 -0.140068 -0.692034 0
M  V30 12 C -4.21159 1.10697 -0.335757 0
M  V30 13 C -5.56174 1.40566 -0.178753 0
M  V30 14 C -6.44682 0.364574 -0.403695 0
M  V30 15 F -7.76481 0.658243 -0.249866 0
M  V30 16 C -6.00019 -0.894815 -0.76327 0
M  V30 17 Cl -7.19941 -2.15126 -1.02719 0
M  V30 18 C -4.64947 -1.14762 -0.908144 0
M  V30 19 C 2.36173 -0.556557 0.195111 0
M  V30 20 C 3.40833 0.25418 0.592575 0
M  V30 21 C 4.6924 0.123044 0.115036 0
M  V30 22 C 4.93386 -0.874178 -0.808555 0
M  V30 23 C 3.92246 -1.7068 -1.23474 0
M  V30 24 C 2.64544 -1.53811 -0.726951 0
M  V30 25 S 5.9851 1.16867 0.643881 0
M  V30 26 N 6.10888 2.57916 -0.370996 0
M  V30 27 O 5.79642 1.63329 2.05987 0
M  V30 28 O 7.28888 0.43635 0.533414 0
M  V30 29 H -3.51041 -0.816003 2.05125 0
M  V30 30 H -3.1472 0.848984 2.61147 0
M  V30 31 H 1.58653 -0.237055 2.73066 0
M  V30 32 H -2.41863 -0.568895 -3.0386 0
M  V30 33 H -3.53757 1.95185 -0.150651 0
M  V30 34 H -5.88564 2.39888 0.103205 0
M  V30 35 H -4.29378 -2.12469 -1.18763 0
M  V30 36 H 3.18159 1.02084 1.31434 0
M  V30 37 H 5.93156 -0.977867 -1.1812 0
M  V30 38 H 4.10927 -2.49352 -1.96234 0
M  V30 39 H 1.88722 -2.2144 -1.08857 0
M  V30 40 H 6.79965 3.21605 0.119765 0
M  V30 41 H 6.54829 2.31704 -1.28612 0
M  V30 END ATOM
M  V30 BEGIN BOND
M  V30 1 1 1 2
M  V30 2 2 2 3
M  V30 3 1 3 4
M  V30 4 2 4 5
M  V30 5 1 5 6
M  V30 6 2 6 7
M  V30 7 1 7 8
M  V30 8 2 8 9
M  V30 9 1 9 10
M  V30 10 1 8 11
M  V30 11 2 11 12
M  V30 12 1 12 13
M  V30 13 2 13 14
M  V30 14 1 14 15
M  V30 15 1 14 16
M  V30 16 1 16 17
M  V30 17 2 16 18
M  V30 18 1 5 19
M  V30 19 2 19 20
M  V30 20 1 20 21
M  V30 21 2 21 22
M  V30 22 1 22 23
M  V30 23 2 23 24
M  V30 24 1 21 25
M  V30 25 1 25 26
M  V30 26 2 25 27
M  V30 27 2 25 28
M  V30 28 1 7 2
M  V30 29 1 18 11
M  V30 30 1 24 19
M  V30 31 1 10 6
M  V30 32 1 1 29
M  V30 33 1 1 30
M  V30 34 1 4 31
M  V30 35 1 9 32
M  V30 36 1 12 33
M  V30 37 1 13 34
M  V30 38 1 18 35
M  V30 39 1 20 36
M  V30 40 1 22 37
M  V30 41 1 23 38
M  V30 42 1 24 39
M  V30 43 1 26 40
M  V30 44 1 26 41
M  V30 END BOND
M  V30 END CTAB
M  END
