
     RDKit          3D

  0  0  0  0  0  0  0  0  0  0999 V3000
M  V30 BEGIN CTAB
M  V30 COUNTS 57 60 0 0 0
M  V30 BEGIN ATOM
M  V30 1 N 5.55947 1.11149 1.88416 0
M  V30 2 S 5.74287 0.194094 0.389617 0
M  V30 3 O 5.85013 -1.23512 0.814074 0
M  V30 4 O 6.97637 0.644 -0.354251 0
M  V30 5 C 4.29791 0.365083 -0.567456 0
M  V30 6 C 3.16599 -0.319493 -0.268687 0
M  V30 7 C 1.98128 -0.223689 -1.03701 0
M  V30 8 C 2.02561 0.591793 -2.102 0
M  V30 9 C 3.17624 1.32638 -2.45319 0
M  V30 10 C 4.32676 1.20668 -1.67064 0
M  V30 11 C 0.87553 -1.05298 -0.620404 0
M  V30 12 N 1.23005 -2.38393 -0.480291 0
M  V30 13 C 0.399521 -3.32874 -0.0906081 0
M  V30 14 N -0.853219 -2.96909 0.180503 0
M  V30 15 C -1.30062 -1.6555 0.0661382 0
M  V30 16 N -2.6605 -1.53153 0.34216 0
M  V30 17 C -3.60128 -2.27239 -0.542076 0
M  V30 18 C -4.98681 -2.02825 -0.02785 0
M  V30 19 N -5.04691 -2.51018 1.33999 0
M  V30 20 C -4.04549 -1.89612 2.20451 0
M  V30 21 C -3.21324 -0.847184 1.44766 0
M  V30 22 C -0.408659 -0.693473 -0.342618 0
M  V30 23 C -0.786865 0.698397 -0.506729 0
M  V30 24 C -1.91398 1.03336 -1.25357 0
M  V30 25 C -2.21818 2.37446 -1.42697 0
M  V30 26 C -1.43466 3.36729 -0.88964 0
M  V30 27 C -0.297534 3.07578 -0.138885 0
M  V30 28 C -0.00798817 1.73921 0.0367802 0
M  V30 29 S 0.732526 4.39871 0.415334 0
M  V30 30 N -0.0884374 5.36911 1.60923 0
M  V30 31 O 1.04742 5.30776 -0.767557 0
M  V30 32 O 1.99829 3.8638 0.941027 0
M  V30 33 C 0.896775 -4.73147 0.0245563 0
M  V30 34 F 2.28119 -4.69242 0.0743299 0
M  V30 35 F 0.356115 -5.36136 1.11159 0
M  V30 36 F 0.537725 -5.4079 -1.13123 0
M  V30 37 H 6.36317 0.796675 2.51814 0
M  V30 38 H 4.71673 0.64633 2.34036 0
M  V30 39 H 3.11901 -0.97476 0.586231 0
M  V30 40 H 1.15101 0.706613 -2.73777 0
M  V30 41 H 3.2219 1.98024 -3.3037 0
M  V30 42 H 5.18674 1.75729 -1.92975 0
M  V30 43 H -3.33009 -3.3378 -0.514065 0
M  V30 44 H -3.50003 -1.88881 -1.53975 0
M  V30 45 H -5.27167 -0.9559 -0.137644 0
M  V30 46 H -5.67392 -2.66569 -0.635052 0
M  V30 47 H -4.92113 -3.54286 1.28902 0
M  V30 48 H -3.36955 -2.70029 2.6283 0
M  V30 49 H -4.53858 -1.45086 3.06444 0
M  V30 50 H -3.93408 -0.0367897 1.19962 0
M  V30 51 H -2.51509 -0.463691 2.19336 0
M  V30 52 H -2.5139 0.257981 -1.69417 0
M  V30 53 H -3.12037 2.61837 -2.01708 0
M  V30 54 H -1.65914 4.44075 -1.03242 0
M  V30 55 H 0.86267 1.5259 0.642693 0
M  V30 56 H -1.1008 5.38366 1.3559 0
M  V30 57 H 0.23371 6.37704 1.51336 0
M  V30 END ATOM
M  V30 BEGIN BOND
M  V30 1 1 1 2
M  V30 2 2 2 3
M  V30 3 2 2 4
M  V30 4 1 2 5
M  V30 5 2 5 6
M  V30 6 1 6 7
M  V30 7 2 7 8
M  V30 8 1 8 9
M  V30 9 2 9 10
M  V30 10 1 7 11
M  V30 11 2 11 12
M  V30 12 1 12 13
M  V30 13 2 13 14
M  V30 14 1 14 15
M  V30 15 1 15 16
M  V30 16 1 16 17
M  V30 17 1 17 18
M  V30 18 1 18 19
M  V30 19 1 19 20
M  V30 20 1 20 21
M  V30 21 2 15 22
M  V30 22 1 22 23
M  V30 23 2 23 24
M  V30 24 1 24 25
M  V30 25 2 25 26
M  V30 26 1 26 27
M  V30 27 2 27 28
M  V30 28 1 27 29
M  V30 29 1 29 30
M  V30 30 2 29 31
M  V30 31 2 29 32
M  V30 32 1 13 33
M  V30 33 1 33 34
M  V30 34 1 33 35
M  V30 35 1 33 36
M  V30 36 1 10 5
M  V30 37 1 22 11
M  V30 38 1 28 23
M  V30 39 1 21 16
M  V30 40 1 1 37
M  V30 41 1 1 38
M  V30 42 1 6 39
M  V30 43 1 8 40
M  V30 44 1 9 41
M  V30 45 1 10 42
M  V30 46 1 17 43
M  V30 47 1 17 44
M  V30 48 1 18 45
M  V30 49 1 18 46
M  V30 50 1 19 47
M  V30 51 1 20 48
M  V30 52 1 20 49
M  V30 53 1 21 50
M  V30 54 1 21 51
M  V30 55 1 24 52
M  V30 56 1 25 53
M  V30 57 1 26 54
M  V30 58 1 28 55
M  V30 59 1 30 56
M  V30 60 1 30 57
M  V30 END BOND
M  V30 END CTAB
M  END
