
     RDKit          3D

  0  0  0  0  0  0  0  0  0  0999 V3000
M  V30 BEGIN CTAB
M  V30 COUNTS 50 55 0 0 0
M  V30 BEGIN ATOM
M  V30 1 N 0.244984 -2.79496 -0.755766 0
M  V30 2 C 1.09963 -1.66192 -0.64924 0
M  V30 3 C 0.827662 -0.656503 0.253495 0
M  V30 4 C 1.72376 0.413089 0.292099 0
M  V30 5 C 2.81717 0.441226 -0.538619 0
M  V30 6 C 3.06726 -0.571136 -1.42933 0
M  V30 7 C 2.19587 -1.64937 -1.49342 0
M  V30 8 C 3.77032 1.56363 -0.505926 0
M  V30 9 N 4.86094 1.74621 -1.22166 0
M  V30 10 C 5.58247 2.80967 -1.04782 0
M  V30 11 C 6.7659 3.12989 -1.74014 0
M  V30 12 C 7.4496 4.27554 -1.48015 0
M  V30 13 C 7.03915 5.18475 -0.539219 0
M  V30 14 C 5.88931 4.89829 0.150427 0
M  V30 15 C 5.17284 3.71761 -0.108526 0
M  V30 16 S 3.749 2.97427 0.479098 0
M  V30 17 C -0.329537 -0.67647 1.12811 0
M  V30 18 C -0.264227 -0.420046 2.48421 0
M  V30 19 N 0.971108 -0.130717 3.09034 0
M  V30 20 C -1.38387 -0.434893 3.31302 0
M  V30 21 C -2.62843 -0.718373 2.76873 0
M  V30 22 C -2.69015 -0.973349 1.41688 0
M  V30 23 C -1.58497 -0.952653 0.630155 0
M  V30 24 C -4.0377 -1.27081 0.874462 0
M  V30 25 N -4.37443 -1.55267 -0.37298 0
M  V30 26 C -5.62138 -1.79043 -0.670924 0
M  V30 27 C -6.11984 -2.10301 -1.9511 0
M  V30 28 C -7.43755 -2.33406 -2.1518 0
M  V30 29 C -8.3628 -2.28015 -1.13635 0
M  V30 30 C -7.90144 -1.97878 0.112205 0
M  V30 31 C -6.53563 -1.73395 0.348825 0
M  V30 32 S -5.5409 -1.3403 1.68036 0
M  V30 33 H -0.0528398 -3.31715 0.105574 0
M  V30 34 H -0.0983218 -3.1261 -1.6795 0
M  V30 35 H 1.54793 1.21523 0.975887 0
M  V30 36 H 3.93169 -0.525412 -2.0696 0
M  V30 37 H 2.42279 -2.42696 -2.2057 0
M  V30 38 H 7.16704 2.45906 -2.50973 0
M  V30 39 H 8.38068 4.46664 -2.06662 0
M  V30 40 H 7.60187 6.06775 -0.366142 0
M  V30 41 H 5.47403 5.53973 0.912252 0
M  V30 42 H 1.10052 0.773997 3.61425 0
M  V30 43 H 1.78147 -0.761684 3.05581 0
M  V30 44 H -1.32867 -0.233476 4.37666 0
M  V30 45 H -3.51731 -0.737235 3.39187 0
M  V30 46 H -1.69871 -1.15909 -0.438911 0
M  V30 47 H -5.43815 -2.16406 -2.81433 0
M  V30 48 H -7.75741 -2.57462 -3.18658 0
M  V30 49 H -9.38888 -2.46424 -1.31656 0
M  V30 50 H -8.54182 -1.90765 0.99195 0
M  V30 END ATOM
M  V30 BEGIN BOND
M  V30 1 1 1 2
M  V30 2 2 2 3
M  V30 3 1 3 4
M  V30 4 2 4 5
M  V30 5 1 5 6
M  V30 6 2 6 7
M  V30 7 1 5 8
M  V30 8 2 8 9
M  V30 9 1 9 10
M  V30 10 2 10 11
M  V30 11 1 11 12
M  V30 12 2 12 13
M  V30 13 1 13 14
M  V30 14 2 14 15
M  V30 15 1 15 16
M  V30 16 1 3 17
M  V30 17 2 17 18
M  V30 18 1 18 19
M  V30 19 1 18 20
M  V30 20 2 20 21
M  V30 21 1 21 22
M  V30 22 2 22 23
M  V30 23 1 22 24
M  V30 24 2 24 25
M  V30 25 1 25 26
M  V30 26 2 26 27
M  V30 27 1 27 28
M  V30 28 2 28 29
M  V30 29 1 29 30
M  V30 30 2 30 31
M  V30 31 1 31 32
M  V30 32 1 7 2
M  V30 33 1 16 8
M  V30 34 1 23 17
M  V30 35 1 32 24
M  V30 36 1 15 10
M  V30 37 1 31 26
M  V30 38 1 1 33
M  V30 39 1 1 34
M  V30 40 1 4 35
M  V30 41 1 6 36
M  V30 42 1 7 37
M  V30 43 1 11 38
M  V30 44 1 12 39
M  V30 45 1 13 40
M  V30 46 1 14 41
M  V30 47 1 19 42
M  V30 48 1 19 43
M  V30 49 1 20 44
M  V30 50 1 21 45
M  V30 51 1 23 46
M  V30 52 1 27 47
M  V30 53 1 28 48
M  V30 54 1 29 49
M  V30 55 1 30 50
M  V30 END BOND
M  V30 END CTAB
M  END
