
     RDKit          3D

  0  0  0  0  0  0  0  0  0  0999 V3000
M  V30 BEGIN CTAB
M  V30 COUNTS 30 30 0 0 0
M  V30 BEGIN ATOM
M  V30 1 N -3.27594 -2.36151 -0.392013 0
M  V30 2 C -3.70292 -1.18163 0.301687 0
M  V30 3 C -2.88447 0.0370332 -0.0409296 0
M  V30 4 O -1.53385 -0.10593 0.264227 0
M  V30 5 C -0.647753 0.920193 0.0117999 0
M  V30 6 C 0.702717 0.725356 0.337898 0
M  V30 7 O 1.1182 -0.431867 0.87994 0
M  V30 8 C 2.33125 -0.923047 1.28231 0
M  V30 9 C 3.40021 -1.07859 0.256951 0
M  V30 10 N 2.93513 -2.00636 -0.789946 0
M  V30 11 C 1.54023 1.77058 0.0693008 0
M  V30 12 C 1.11499 2.97191 -0.494335 0
M  V30 13 C -0.208746 3.12552 -0.799104 0
M  V30 14 C -1.08368 2.10114 -0.545344 0
M  V30 15 H -2.31647 -2.66287 -0.11758 0
M  V30 16 H -3.38041 -2.29817 -1.4152 0
M  V30 17 H -3.63868 -1.34115 1.38574 0
M  V30 18 H -4.76568 -0.999026 0.0525871 0
M  V30 19 H -3.07388 0.296618 -1.09342 0
M  V30 20 H -3.28148 0.880225 0.571604 0
M  V30 21 H 2.14906 -1.97265 1.67942 0
M  V30 22 H 2.7662 -0.388417 2.17283 0
M  V30 23 H 4.27105 -1.59804 0.748693 0
M  V30 24 H 3.74894 -0.198612 -0.258965 0
M  V30 25 H 3.75404 -2.50322 -1.21301 0
M  V30 26 H 2.22339 -2.65728 -0.392915 0
M  V30 27 H 2.60089 1.75009 0.282671 0
M  V30 28 H 1.80222 3.78991 -0.699064 0
M  V30 29 H -0.534788 4.07632 -1.24328 0
M  V30 30 H -2.12975 2.26348 -0.802567 0
M  V30 END ATOM
M  V30 BEGIN BOND
M  V30 1 1 1 2
M  V30 2 1 2 3
M  V30 3 1 3 4
M  V30 4 1 4 5
M  V30 5 2 5 6
M  V30 6 1 6 7
M  V30 7 1 7 8
M  V30 8 1 8 9
M  V30 9 1 9 10
M  V30 10 1 6 11
M  V30 11 2 11 12
M  V30 12 1 12 13
M  V30 13 2 13 14
M  V30 14 1 14 5
M  V30 15 1 1 15
M  V30 16 1 1 16
M  V30 17 1 2 17
M  V30 18 1 2 18
M  V30 19 1 3 19
M  V30 20 1 3 20
M  V30 21 1 8 21
M  V30 22 1 8 22
M  V30 23 1 9 23
M  V30 24 1 9 24
M  V30 25 1 10 25
M  V30 26 1 10 26
M  V30 27 1 11 27
M  V30 28 1 12 28
M  V30 29 1 13 29
M  V30 30 1 14 30
M  V30 END BOND
M  V30 END CTAB
M  END
