
     RDKit          3D

  0  0  0  0  0  0  0  0  0  0999 V3000
M  V30 BEGIN CTAB
M  V30 COUNTS 86 85 0 0 0
M  V30 BEGIN ATOM
M  V30 1 C 11.3983 -1.29665 0.405638 0
M  V30 2 C 10.7073 -0.395961 -0.593277 0 CFG=2
M  V30 3 N 10.6265 0.933365 -0.0415976 0
M  V30 4 C 9.25297 -0.922876 -0.705392 0 CFG=2
M  V30 5 O 9.35312 -2.22149 -1.25219 0
M  V30 6 C 8.55672 -0.0456628 -1.66811 0
M  V30 7 C 7.16221 -0.287176 -2.01234 0
M  V30 8 C 6.10094 -0.148691 -0.999019 0
M  V30 9 C 6.14718 -1.00451 0.188104 0
M  V30 10 C 4.8499 -0.802934 1.02226 0
M  V30 11 C 4.75644 0.589502 1.47847 0
M  V30 12 C 3.62194 0.934309 2.35557 0
M  V30 13 C 2.25982 0.909461 1.8124 0
M  V30 14 C 1.68865 -0.313123 1.22311 0
M  V30 15 C 0.224139 -0.0806139 0.826402 0
M  V30 16 C -0.591167 0.229254 2.01526 0
M  V30 17 C -2.07935 0.422893 1.654 0
M  V30 18 C -2.16175 1.56197 0.702477 0
M  V30 19 C -3.57569 1.86802 0.256 0
M  V30 20 C -4.50861 2.21954 1.36553 0
M  V30 21 C -5.86524 2.49835 0.756039 0
M  V30 22 C -6.42488 1.31226 -0.00101964 0
M  V30 23 C -6.58475 0.123359 0.906482 0
M  V30 24 C -7.1149 -1.03702 0.123629 0
M  V30 25 C -8.4459 -0.703688 -0.467223 0
M  V30 26 C -9.00143 -1.88872 -1.26539 0 CFG=1
M  V30 27 O -9.12975 -2.95517 -0.387635 0
M  V30 28 C -10.3064 -1.47956 -1.87268 0 CFG=2
M  V30 29 C -10.1242 -0.319838 -2.81883 0
M  V30 30 N -11.246 -1.07813 -0.847141 0
M  V30 31 H 11.7243 -2.24472 -0.0380227 0
M  V30 32 H 10.6731 -1.51222 1.21671 0
M  V30 33 H 12.2542 -0.711013 0.81588 0
M  V30 34 H 11.158 -0.441585 -1.59574 0
M  V30 35 H 9.79229 1.07243 0.570162 0
M  V30 36 H 11.5034 1.23261 0.407446 0
M  V30 37 H 8.88989 -1.01237 0.301609 0
M  V30 38 H 10.279 -2.45605 -1.45678 0
M  V30 39 H 9.15721 -0.0942904 -2.62829 0
M  V30 40 H 8.69707 1.04192 -1.35228 0
M  V30 41 H 6.85634 0.385478 -2.88161 0
M  V30 42 H 7.04107 -1.33089 -2.47231 0
M  V30 43 H 5.06445 -0.250352 -1.45775 0
M  V30 44 H 6.07463 0.952447 -0.658737 0
M  V30 45 H 6.24728 -2.0651 -0.0380186 0
M  V30 46 H 6.91648 -0.635238 0.94457 0
M  V30 47 H 4.07503 -1.19936 0.365307 0
M  V30 48 H 4.93211 -1.47395 1.92529 0
M  V30 49 H 4.76983 1.30622 0.598602 0
M  V30 50 H 5.70441 0.898524 2.02991 0
M  V30 51 H 3.7603 1.98924 2.78855 0
M  V30 52 H 3.6822 0.311352 3.3189 0
M  V30 53 H 2.1808 1.7948 1.09068 0
M  V30 54 H 1.60025 1.30176 2.6735 0
M  V30 55 H 1.84147 -1.23151 1.78255 0
M  V30 56 H 2.16445 -0.394768 0.174772 0
M  V30 57 H 0.282074 0.770772 0.0897817 0
M  V30 58 H -0.177728 -0.990845 0.327719 0
M  V30 59 H -0.255179 1.10642 2.5766 0
M  V30 60 H -0.562691 -0.633462 2.70238 0
M  V30 61 H -2.57349 0.668198 2.62931 0
M  V30 62 H -2.52145 -0.508477 1.2864 0
M  V30 63 H -1.74119 2.46419 1.14178 0
M  V30 64 H -1.64134 1.24288 -0.248223 0
M  V30 65 H -3.50026 2.75898 -0.410393 0
M  V30 66 H -3.9149 0.959665 -0.306597 0
M  V30 67 H -4.61934 1.40895 2.11998 0
M  V30 68 H -4.14561 3.13658 1.8609 0
M  V30 69 H -5.81017 3.35733 0.0583039 0
M  V30 70 H -6.58257 2.6872 1.59242 0
M  V30 71 H -7.42376 1.66685 -0.37525 0
M  V30 72 H -5.85919 1.01637 -0.87953 0
M  V30 73 H -5.60942 -0.194404 1.34649 0
M  V30 74 H -7.28129 0.441273 1.71764 0
M  V30 75 H -7.15167 -1.91097 0.807886 0
M  V30 76 H -6.35078 -1.27667 -0.669071 0
M  V30 77 H -9.16656 -0.53468 0.356739 0
M  V30 78 H -8.41404 0.136284 -1.16416 0
M  V30 79 H -8.28188 -2.1849 -2.05524 0
M  V30 80 H -9.87793 -3.51045 -0.718562 0
M  V30 81 H -10.7867 -2.31318 -2.42786 0
M  V30 82 H -10.0369 0.660956 -2.2877 0
M  V30 83 H -9.22875 -0.415597 -3.453 0
M  V30 84 H -11.0486 -0.209303 -3.45312 0
M  V30 85 H -11.2137 -0.0527075 -0.651433 0
M  V30 86 H -11.0907 -1.60111 0.0272517 0
M  V30 END ATOM
M  V30 BEGIN BOND
M  V30 1 1 1 2
M  V30 2 1 2 3
M  V30 3 1 2 4
M  V30 4 1 4 5
M  V30 5 1 4 6
M  V30 6 1 6 7
M  V30 7 1 7 8
M  V30 8 1 8 9
M  V30 9 1 9 10
M  V30 10 1 10 11
M  V30 11 1 11 12
M  V30 12 1 12 13
M  V30 13 1 13 14
M  V30 14 1 14 15
M  V30 15 1 15 16
M  V30 16 1 16 17
M  V30 17 1 17 18
M  V30 18 1 18 19
M  V30 19 1 19 20
M  V30 20 1 20 21
M  V30 21 1 21 22
M  V30 22 1 22 23
M  V30 23 1 23 24
M  V30 24 1 24 25
M  V30 25 1 25 26
M  V30 26 1 26 27
M  V30 27 1 26 28
M  V30 28 1 28 29
M  V30 29 1 28 30
M  V30 30 1 1 31
M  V30 31 1 1 32
M  V30 32 1 1 33
M  V30 33 1 2 34 CFG=3
M  V30 34 1 3 35
M  V30 35 1 3 36
M  V30 36 1 4 37 CFG=1
M  V30 37 1 5 38
M  V30 38 1 6 39
M  V30 39 1 6 40
M  V30 40 1 7 41
M  V30 41 1 7 42
M  V30 42 1 8 43
M  V30 43 1 8 44
M  V30 44 1 9 45
M  V30 45 1 9 46
M  V30 46 1 10 47
M  V30 47 1 10 48
M  V30 48 1 11 49
M  V30 49 1 11 50
M  V30 50 1 12 51
M  V30 51 1 12 52
M  V30 52 1 13 53
M  V30 53 1 13 54
M  V30 54 1 14 55
M  V30 55 1 14 56
M  V30 56 1 15 57
M  V30 57 1 15 58
M  V30 58 1 16 59
M  V30 59 1 16 60
M  V30 60 1 17 61
M  V30 61 1 17 62
M  V30 62 1 18 63
M  V30 63 1 18 64
M  V30 64 1 19 65
M  V30 65 1 19 66
M  V30 66 1 20 67
M  V30 67 1 20 68
M  V30 68 1 21 69
M  V30 69 1 21 70
M  V30 70 1 22 71
M  V30 71 1 22 72
M  V30 72 1 23 73
M  V30 73 1 23 74
M  V30 74 1 24 75
M  V30 75 1 24 76
M  V30 76 1 25 77
M  V30 77 1 25 78
M  V30 78 1 26 79 CFG=3
M  V30 79 1 27 80
M  V30 80 1 28 81 CFG=3
M  V30 81 1 29 82
M  V30 82 1 29 83
M  V30 83 1 29 84
M  V30 84 1 30 85
M  V30 85 1 30 86
M  V30 END BOND
M  V30 END CTAB
M  END
