
     RDKit          3D

  0  0  0  0  0  0  0  0  0  0999 V3000
M  V30 BEGIN CTAB
M  V30 COUNTS 56 59 0 0 0
M  V30 BEGIN ATOM
M  V30 1 C -3.27471 2.53996 -0.0520758 0
M  V30 2 C -3.19124 1.18557 0.597536 0
M  V30 3 N -1.92275 0.587877 0.363681 0
M  V30 4 C -0.713908 1.10358 0.899209 0
M  V30 5 N -0.656648 2.18893 1.67633 0
M  V30 6 C 0.482991 2.68613 2.18906 0
M  V30 7 N 0.500525 3.8425 3.0109 0
M  V30 8 N 1.61841 2.02197 1.87828 0
M  V30 9 C 1.64555 0.925033 1.10484 0
M  V30 10 N 0.473516 0.480862 0.625118 0
M  V30 11 C 2.87945 0.219867 0.778937 0
M  V30 12 C 4.11408 0.623956 1.23923 0
M  V30 13 C 5.27077 -0.0733562 0.908033 0
M  V30 14 C 5.24797 -1.19674 0.108737 0
M  V30 15 C 6.44312 -1.95919 -0.263192 0
M  V30 16 C 7.10271 -1.55401 -1.54734 0 CFG=2
M  V30 17 N 8.25761 -2.45404 -1.69803 0
M  V30 18 C 7.61629 -0.185828 -1.59405 0
M  V30 19 O 8.97473 0.112103 -1.653 0
M  V30 20 O 6.80786 0.777266 -1.58114 0
M  V30 21 C 3.9877 -1.59909 -0.353945 0
M  V30 22 C 2.84325 -0.902015 -0.0211892 0
M  V30 23 C -4.32462 0.291478 0.198606 0
M  V30 24 C -5.42891 0.749501 -0.48414 0
M  V30 25 C -6.47971 -0.0709936 -0.859993 0
M  V30 26 C -6.42512 -1.41117 -0.538949 0
M  V30 27 C -5.33221 -1.90228 0.145129 0
M  V30 28 C -4.30005 -1.05426 0.505076 0
M  V30 29 C -7.48181 -2.24475 -0.915059 0
M  V30 30 C -8.58387 -1.77605 -1.59908 0
M  V30 31 F -9.59041 -2.62062 -1.94631 0
M  V30 32 C -8.62624 -0.415435 -1.91812 0
M  V30 33 C -7.58062 0.396876 -1.54322 0
M  V30 34 F -7.63276 1.70959 -1.85699 0
M  V30 35 H -3.63213 2.44798 -1.12086 0
M  V30 36 H -4.00986 3.19794 0.460347 0
M  V30 37 H -2.30326 3.02216 -0.0563755 0
M  V30 38 H -3.32973 1.35421 1.69365 0
M  V30 39 H -1.88863 -0.276697 -0.235516 0
M  V30 40 H -0.274816 4.50956 3.00915 0
M  V30 41 H 1.31981 4.00198 3.61912 0
M  V30 42 H 4.14797 1.49876 1.86393 0
M  V30 43 H 6.24058 0.242568 1.26854 0
M  V30 44 H 6.17616 -3.04998 -0.398163 0
M  V30 45 H 7.20015 -1.99504 0.576939 0
M  V30 46 H 6.40627 -1.77705 -2.38115 0
M  V30 47 H 9.11262 -1.96101 -1.33524 0
M  V30 48 H 8.08869 -3.36704 -1.26221 0
M  V30 49 H 9.30935 0.805543 -0.984819 0
M  V30 50 H 3.97117 -2.48085 -0.981133 0
M  V30 51 H 1.88251 -1.23592 -0.393163 0
M  V30 52 H -5.50217 1.78862 -0.74656 0
M  V30 53 H -5.27912 -2.94896 0.401431 0
M  V30 54 H -3.4239 -1.41935 1.04724 0
M  V30 55 H -7.42798 -3.2942 -0.657816 0
M  V30 56 H -9.50464 -0.0864242 -2.45361 0
M  V30 END ATOM
M  V30 BEGIN BOND
M  V30 1 1 1 2
M  V30 2 1 2 3
M  V30 3 1 3 4
M  V30 4 2 4 5
M  V30 5 1 5 6
M  V30 6 1 6 7
M  V30 7 2 6 8
M  V30 8 1 8 9
M  V30 9 2 9 10
M  V30 10 1 9 11
M  V30 11 2 11 12
M  V30 12 1 12 13
M  V30 13 2 13 14
M  V30 14 1 14 15
M  V30 15 1 15 16
M  V30 16 1 16 17
M  V30 17 1 16 18
M  V30 18 1 18 19
M  V30 19 2 18 20
M  V30 20 1 14 21
M  V30 21 2 21 22
M  V30 22 1 2 23
M  V30 23 2 23 24
M  V30 24 1 24 25
M  V30 25 2 25 26
M  V30 26 1 26 27
M  V30 27 2 27 28
M  V30 28 1 26 29
M  V30 29 2 29 30
M  V30 30 1 30 31
M  V30 31 1 30 32
M  V30 32 2 32 33
M  V30 33 1 33 34
M  V30 34 1 10 4
M  V30 35 1 22 11
M  V30 36 1 28 23
M  V30 37 1 33 25
M  V30 38 1 1 35
M  V30 39 1 1 36
M  V30 40 1 1 37
M  V30 41 1 2 38
M  V30 42 1 3 39
M  V30 43 1 7 40
M  V30 44 1 7 41
M  V30 45 1 12 42
M  V30 46 1 13 43
M  V30 47 1 15 44
M  V30 48 1 15 45
M  V30 49 1 16 46 CFG=3
M  V30 50 1 17 47
M  V30 51 1 17 48
M  V30 52 1 19 49
M  V30 53 1 21 50
M  V30 54 1 22 51
M  V30 55 1 24 52
M  V30 56 1 27 53
M  V30 57 1 28 54
M  V30 58 1 29 55
M  V30 59 1 32 56
M  V30 END BOND
M  V30 END CTAB
M  END
