
     RDKit          3D

  0  0  0  0  0  0  0  0  0  0999 V3000
M  V30 BEGIN CTAB
M  V30 COUNTS 22 22 0 0 0
M  V30 BEGIN ATOM
M  V30 1 O -2.81071 -1.43598 0.479443 0
M  V30 2 C -1.41592 -1.59238 0.270763 0
M  V30 3 O -1.03453 -2.75918 0.27712 0
M  V30 4 C -0.615313 -0.437546 0.080726 0
M  V30 5 C -1.24597 0.822276 0.113788 0
M  V30 6 N -2.65085 0.845483 0.322748 0
M  V30 7 C -0.549046 1.98759 -0.0473758 0
M  V30 8 C 0.802989 1.96894 -0.248928 0
M  V30 9 C 1.42666 0.741917 -0.28296 0
M  V30 10 C 0.732672 -0.471844 -0.120391 0
M  V30 11 C 1.4931 -1.7043 -0.197105 0
M  V30 12 F 1.163 -2.56968 -1.21709 0
M  V30 13 F 2.84239 -1.37573 -0.48329 0
M  V30 14 F 1.59301 -2.41323 0.995285 0
M  V30 15 N 2.83925 0.788891 -0.494137 0
M  V30 16 H -3.22276 -1.55402 1.37987 0
M  V30 17 H -3.31893 0.777418 -0.493728 0
M  V30 18 H -3.05788 0.927605 1.25628 0
M  V30 19 H -1.05596 2.93508 -0.0176553 0
M  V30 20 H 1.34022 2.89429 -0.374133 0
M  V30 21 H 3.20607 0.807918 -1.47567 0
M  V30 22 H 3.53851 0.816462 0.276439 0
M  V30 END ATOM
M  V30 BEGIN BOND
M  V30 1 1 1 2
M  V30 2 2 2 3
M  V30 3 1 2 4
M  V30 4 2 4 5
M  V30 5 1 5 6
M  V30 6 1 5 7
M  V30 7 2 7 8
M  V30 8 1 8 9
M  V30 9 2 9 10
M  V30 10 1 10 11
M  V30 11 1 11 12
M  V30 12 1 11 13
M  V30 13 1 11 14
M  V30 14 1 9 15
M  V30 15 1 10 4
M  V30 16 1 1 16
M  V30 17 1 6 17
M  V30 18 1 6 18
M  V30 19 1 7 19
M  V30 20 1 8 20
M  V30 21 1 15 21
M  V30 22 1 15 22
M  V30 END BOND
M  V30 END CTAB
M  END
