
     RDKit          3D

  0  0  0  0  0  0  0  0  0  0999 V3000
M  V30 BEGIN CTAB
M  V30 COUNTS 31 32 0 0 0
M  V30 BEGIN ATOM
M  V30 1 O -3.372 2.5215 -0.406006 0
M  V30 2 C -3.54261 1.18644 -0.788132 0
M  V30 3 C -2.88047 0.281083 0.218269 0 CFG=1
M  V30 4 C -3.07479 -1.13803 -0.209005 0
M  V30 5 C -1.94044 -1.78146 -0.0333398 0
M  V30 6 C -0.880661 -0.921325 0.510274 0 CFG=2
M  V30 7 C -1.37893 0.483415 0.240845 0
M  V30 8 N 0.37036 -1.20618 -0.119867 0
M  V30 9 C 1.58414 -0.543794 0.186921 0
M  V30 10 N 1.58297 0.415197 1.12519 0
M  V30 11 C 2.7177 1.08567 1.46209 0
M  V30 12 N 2.71567 2.09881 2.45357 0
M  V30 13 N 3.85961 0.771701 0.834113 0
M  V30 14 C 3.95441 -0.170339 -0.113891 0
M  V30 15 C 2.76964 -0.836124 -0.432128 0
M  V30 16 N 2.79834 -1.84138 -1.42336 0
M  V30 17 Cl 5.46442 -0.545092 -0.904764 0
M  V30 18 H -2.49662 2.6314 0.0688453 0
M  V30 19 H -3.0607 1.07921 -1.77771 0
M  V30 20 H -4.60656 0.948922 -0.851429 0
M  V30 21 H -3.32536 0.408142 1.21178 0
M  V30 22 H -3.98148 -1.57803 -0.597281 0
M  V30 23 H -1.77598 -2.84881 -0.260838 0
M  V30 24 H -0.867269 -1.04734 1.60799 0
M  V30 25 H -1.07813 1.18911 1.03085 0
M  V30 26 H -0.99167 0.829162 -0.732331 0
M  V30 27 H 0.41984 -1.95944 -0.870489 0
M  V30 28 H 2.3637 1.85601 3.41643 0
M  V30 29 H 3.0365 3.07144 2.30602 0
M  V30 30 H 3.1594 -1.64509 -2.36985 0
M  V30 31 H 2.45696 -2.79479 -1.21744 0
M  V30 END ATOM
M  V30 BEGIN BOND
M  V30 1 1 1 2
M  V30 2 1 2 3
M  V30 3 1 3 4
M  V30 4 2 4 5
M  V30 5 1 5 6
M  V30 6 1 6 7
M  V30 7 1 6 8
M  V30 8 1 8 9
M  V30 9 2 9 10
M  V30 10 1 10 11
M  V30 11 1 11 12
M  V30 12 2 11 13
M  V30 13 1 13 14
M  V30 14 2 14 15
M  V30 15 1 15 16
M  V30 16 1 14 17
M  V30 17 1 7 3
M  V30 18 1 15 9
M  V30 19 1 1 18
M  V30 20 1 2 19
M  V30 21 1 2 20
M  V30 22 1 3 21 CFG=1
M  V30 23 1 4 22
M  V30 24 1 5 23
M  V30 25 1 6 24 CFG=1
M  V30 26 1 7 25
M  V30 27 1 7 26
M  V30 28 1 8 27
M  V30 29 1 12 28
M  V30 30 1 12 29
M  V30 31 1 16 30
M  V30 32 1 16 31
M  V30 END BOND
M  V30 END CTAB
M  END
