
     RDKit          3D

  0  0  0  0  0  0  0  0  0  0999 V3000
M  V30 BEGIN CTAB
M  V30 COUNTS 46 45 0 0 0
M  V30 BEGIN ATOM
M  V30 1 N 6.19869 -2.04775 -0.894712 0
M  V30 2 C 6.13824 -0.862296 -0.131387 0
M  V30 3 N 6.14515 -0.855038 1.16341 0
M  V30 4 N 6.06617 0.393322 -0.821059 0
M  V30 5 C 5.07391 1.34168 -0.422428 0
M  V30 6 C 3.64863 0.8773 -0.753962 0
M  V30 7 C 2.74133 1.96122 -0.274453 0
M  V30 8 C 1.27382 1.69026 -0.517401 0
M  V30 9 C 0.894953 0.438002 0.189434 0
M  V30 10 C -0.541546 0.03932 0.0437605 0
M  V30 11 C -1.51553 1.04491 0.560281 0
M  V30 12 C -2.9504 0.622362 0.399599 0
M  V30 13 C -3.26647 -0.662481 1.12315 0
M  V30 14 C -4.72862 -0.979778 0.894368 0
M  V30 15 N -5.05844 -1.15036 -0.499408 0
M  V30 16 C -6.3918 -1.43324 -0.855546 0
M  V30 17 N -7.46911 -1.03648 -0.022648 0
M  V30 18 N -6.65094 -2.05666 -1.94627 0
M  V30 19 H 7.00163 -2.69973 -0.695906 0
M  V30 20 H 5.47729 -2.24404 -1.60886 0
M  V30 21 H 6.19685 -1.7501 1.68746 0
M  V30 22 H 6.74618 0.559674 -1.58835 0
M  V30 23 H 5.26454 2.31256 -0.965376 0
M  V30 24 H 5.10684 1.59064 0.652072 0
M  V30 25 H 3.51469 -0.0761085 -0.235381 0
M  V30 26 H 3.57845 0.735245 -1.85458 0
M  V30 27 H 3.06548 2.92709 -0.707274 0
M  V30 28 H 2.9139 2.06539 0.834 0
M  V30 29 H 1.16254 1.59314 -1.62867 0
M  V30 30 H 0.738586 2.59221 -0.138647 0
M  V30 31 H 1.2116 0.509427 1.24873 0
M  V30 32 H 1.50136 -0.390859 -0.263121 0
M  V30 33 H -0.790568 -0.17608 -1.01533 0
M  V30 34 H -0.676298 -0.911573 0.600478 0
M  V30 35 H -1.37067 1.30415 1.6261 0
M  V30 36 H -1.36676 1.98528 -0.0096837 0
M  V30 37 H -3.233 0.580064 -0.671657 0
M  V30 38 H -3.63774 1.39304 0.836977 0
M  V30 39 H -2.6332 -1.50373 0.766 0
M  V30 40 H -3.14363 -0.517773 2.21639 0
M  V30 41 H -5.30599 -0.0805825 1.2613 0
M  V30 42 H -5.03498 -1.88296 1.49266 0
M  V30 43 H -4.3014 -1.06113 -1.20081 0
M  V30 44 H -7.50874 -1.48062 0.937778 0
M  V30 45 H -8.19932 -0.347495 -0.308557 0
M  V30 46 H -5.88567 -2.34942 -2.55947 0
M  V30 END ATOM
M  V30 BEGIN BOND
M  V30 1 1 1 2
M  V30 2 2 2 3 CFG=2
M  V30 3 1 2 4
M  V30 4 1 4 5
M  V30 5 1 5 6
M  V30 6 1 6 7
M  V30 7 1 7 8
M  V30 8 1 8 9
M  V30 9 1 9 10
M  V30 10 1 10 11
M  V30 11 1 11 12
M  V30 12 1 12 13
M  V30 13 1 13 14
M  V30 14 1 14 15
M  V30 15 1 15 16
M  V30 16 1 16 17
M  V30 17 2 16 18 CFG=2
M  V30 18 1 1 19
M  V30 19 1 1 20
M  V30 20 1 3 21
M  V30 21 1 4 22
M  V30 22 1 5 23
M  V30 23 1 5 24
M  V30 24 1 6 25
M  V30 25 1 6 26
M  V30 26 1 7 27
M  V30 27 1 7 28
M  V30 28 1 8 29
M  V30 29 1 8 30
M  V30 30 1 9 31
M  V30 31 1 9 32
M  V30 32 1 10 33
M  V30 33 1 10 34
M  V30 34 1 11 35
M  V30 35 1 11 36
M  V30 36 1 12 37
M  V30 37 1 12 38
M  V30 38 1 13 39
M  V30 39 1 13 40
M  V30 40 1 14 41
M  V30 41 1 14 42
M  V30 42 1 15 43
M  V30 43 1 17 44
M  V30 44 1 17 45
M  V30 45 1 18 46
M  V30 END BOND
M  V30 END CTAB
M  END
