
     RDKit          3D

  0  0  0  0  0  0  0  0  0  0999 V3000
M  V30 BEGIN CTAB
M  V30 COUNTS 50 51 0 0 0
M  V30 BEGIN ATOM
M  V30 1 N -3.64815 -2.8996 -0.197731 0
M  V30 2 C -2.45969 -3.48977 -0.688667 0
M  V30 3 C -1.26342 -3.53244 0.146779 0
M  V30 4 N -0.672337 -2.23294 0.560697 0
M  V30 5 C 0.250913 -1.72245 -0.375669 0
M  V30 6 O 0.308393 -2.53235 -1.44272 0
M  V30 7 C 1.11972 -0.588244 -0.465624 0
M  V30 8 C 0.662196 0.663263 -1.12266 0
M  V30 9 C 1.90253 1.49099 -1.50594 0
M  V30 10 N 3.11916 0.849326 -1.11056 0
M  V30 11 C 3.15653 0.528856 0.281209 0
M  V30 12 C 1.89158 -0.183391 0.776351 0
M  V30 13 S 4.40458 1.99644 -1.39525 0
M  V30 14 O 4.07458 3.21325 -0.596053 0
M  V30 15 O 5.70732 1.37106 -0.917356 0
M  V30 16 N 4.46707 2.37082 -3.05753 0
M  V30 17 C -0.984943 -1.66339 1.79529 0
M  V30 18 C -2.05087 -0.752941 2.12652 0
M  V30 19 C -2.15463 0.570328 1.5108 0
M  V30 20 C -1.50401 1.65626 2.10691 0
M  V30 21 C -1.57789 2.92286 1.61659 0
M  V30 22 C -2.31266 3.19982 0.48621 0
M  V30 23 C -2.95791 2.15088 -0.113596 0
M  V30 24 C -2.88982 0.869817 0.372858 0
M  V30 25 H -4.17548 -2.30574 -0.845692 0
M  V30 26 H -4.31768 -3.59082 0.208962 0
M  V30 27 H -2.7302 -4.57767 -0.909646 0
M  V30 28 H -2.2477 -3.10637 -1.7389 0
M  V30 29 H -0.489623 -4.14588 -0.38504 0
M  V30 30 H -1.48544 -4.12868 1.07418 0
M  V30 31 H 2.00084 -0.927385 -1.15596 0
M  V30 32 H 0.110367 0.45328 -2.08311 0
M  V30 33 H 0.0357992 1.33672 -0.563219 0
M  V30 34 H 1.94486 1.58207 -2.62334 0
M  V30 35 H 1.81595 2.50612 -1.09411 0
M  V30 36 H 4.00283 -0.161013 0.443299 0
M  V30 37 H 3.30651 1.42065 0.929312 0
M  V30 38 H 1.29567 0.537991 1.37706 0
M  V30 39 H 2.23728 -1.05686 1.35359 0
M  V30 40 H 4.26796 3.38607 -3.18769 0
M  V30 41 H 5.39269 2.15651 -3.49435 0
M  V30 42 H -0.0164044 -1.2067 2.22009 0
M  V30 43 H -1.15612 -2.59733 2.49556 0
M  V30 44 H -3.09389 -1.17784 2.10522 0
M  V30 45 H -1.99349 -0.506106 3.26891 0
M  V30 46 H -0.913603 1.47856 3.00143 0
M  V30 47 H -1.06328 3.77437 2.09043 0
M  V30 48 H -2.36357 4.21719 0.104465 0
M  V30 49 H -3.55025 2.33149 -1.01197 0
M  V30 50 H -3.40223 0.0509165 -0.103962 0
M  V30 END ATOM
M  V30 BEGIN BOND
M  V30 1 1 1 2
M  V30 2 1 2 3
M  V30 3 1 3 4
M  V30 4 1 4 5
M  V30 5 2 5 6
M  V30 6 1 5 7
M  V30 7 1 7 8
M  V30 8 1 8 9
M  V30 9 1 9 10
M  V30 10 1 10 11
M  V30 11 1 11 12
M  V30 12 1 10 13
M  V30 13 2 13 14
M  V30 14 2 13 15
M  V30 15 1 13 16
M  V30 16 1 4 17
M  V30 17 1 17 18
M  V30 18 1 18 19
M  V30 19 2 19 20
M  V30 20 1 20 21
M  V30 21 2 21 22
M  V30 22 1 22 23
M  V30 23 2 23 24
M  V30 24 1 12 7
M  V30 25 1 24 19
M  V30 26 1 1 25
M  V30 27 1 1 26
M  V30 28 1 2 27
M  V30 29 1 2 28
M  V30 30 1 3 29
M  V30 31 1 3 30
M  V30 32 1 7 31
M  V30 33 1 8 32
M  V30 34 1 8 33
M  V30 35 1 9 34
M  V30 36 1 9 35
M  V30 37 1 11 36
M  V30 38 1 11 37
M  V30 39 1 12 38
M  V30 40 1 12 39
M  V30 41 1 16 40
M  V30 42 1 16 41
M  V30 43 1 17 42
M  V30 44 1 17 43
M  V30 45 1 18 44
M  V30 46 1 18 45
M  V30 47 1 20 46
M  V30 48 1 21 47
M  V30 49 1 22 48
M  V30 50 1 23 49
M  V30 51 1 24 50
M  V30 END BOND
M  V30 END CTAB
M  END
