
     RDKit          3D

  0  0  0  0  0  0  0  0  0  0999 V3000
M  V30 BEGIN CTAB
M  V30 COUNTS 25 25 0 0 0
M  V30 BEGIN ATOM
M  V30 1 N -2.17441 -2.42963 -0.663115 0
M  V30 2 C -2.43355 -1.02892 -0.844134 0
M  V30 3 C -1.23031 -0.264226 -0.446567 0
M  V30 4 C -0.10203 -0.898642 0.00842831 0
M  V30 5 C 1.01488 -0.167046 0.376204 0
M  V30 6 C 2.26142 -0.786963 0.874007 0
M  V30 7 N 2.18939 -2.21909 0.934888 0
M  V30 8 C 0.993296 1.21799 0.284049 0
M  V30 9 C -0.126463 1.86732 -0.168713 0
M  V30 10 C -1.22151 1.11989 -0.527453 0
M  V30 11 C -0.143576 3.30674 -0.262477 0
M  V30 12 O -1.13861 3.96679 -0.669839 0
M  V30 13 O 0.971577 4.04115 0.104513 0
M  V30 14 H -1.77138 -2.8894 -1.49303 0
M  V30 15 H -2.98015 -2.94672 -0.244961 0
M  V30 16 H -3.28841 -0.674187 -0.23056 0
M  V30 17 H -2.67908 -0.778602 -1.90668 0
M  V30 18 H -0.0472684 -1.98508 0.0946899 0
M  V30 19 H 2.42892 -0.362274 1.90689 0
M  V30 20 H 3.107 -0.441157 0.222911 0
M  V30 21 H 2.63467 -2.53652 1.82685 0
M  V30 22 H 2.70225 -2.58608 0.083773 0
M  V30 23 H 1.87923 1.78922 0.576316 0
M  V30 24 H -2.14321 1.58007 -0.895609 0
M  V30 25 H 1.29731 4.10538 1.05963 0
M  V30 END ATOM
M  V30 BEGIN BOND
M  V30 1 1 1 2
M  V30 2 1 2 3
M  V30 3 2 3 4
M  V30 4 1 4 5
M  V30 5 1 5 6
M  V30 6 1 6 7
M  V30 7 2 5 8
M  V30 8 1 8 9
M  V30 9 2 9 10
M  V30 10 1 9 11
M  V30 11 2 11 12
M  V30 12 1 11 13
M  V30 13 1 10 3
M  V30 14 1 1 14
M  V30 15 1 1 15
M  V30 16 1 2 16
M  V30 17 1 2 17
M  V30 18 1 4 18
M  V30 19 1 6 19
M  V30 20 1 6 20
M  V30 21 1 7 21
M  V30 22 1 7 22
M  V30 23 1 8 23
M  V30 24 1 10 24
M  V30 25 1 13 25
M  V30 END BOND
M  V30 END CTAB
M  END
