
     RDKit          3D

  0  0  0  0  0  0  0  0  0  0999 V3000
M  V30 BEGIN CTAB
M  V30 COUNTS 21 20 0 0 0
M  V30 BEGIN ATOM
M  V30 1 N 1.50485 1.60189 -0.0428324 0
M  V30 2 C 1.95292 0.313496 0.187571 0
M  V30 3 C 0.921544 -0.700261 0.578501 0
M  V30 4 C -0.133372 -0.953893 -0.438692 0 CFG=2
M  V30 5 C -0.951776 0.203063 -0.826692 0
M  V30 6 C -1.7181 0.885415 0.208002 0
M  V30 7 O -1.73432 0.516663 1.39219 0
M  V30 8 O -2.46155 1.99894 -0.159451 0
M  V30 9 N -0.931318 -2.13294 -0.0911497 0
M  V30 10 H 1.99275 2.10704 -0.721988 0
M  V30 11 H 1.14905 2.07788 0.733658 0
M  V30 12 H 2.79191 0.292937 0.938764 0
M  V30 13 H 2.45919 -0.0298419 -0.76176 0
M  V30 14 H 0.461681 -0.438475 1.57966 0
M  V30 15 H 1.45974 -1.66934 0.81887 0
M  V30 16 H 0.390569 -1.29333 -1.3963 0
M  V30 17 H -1.74608 -0.163992 -1.57221 0
M  V30 18 H -0.368912 0.911467 -1.44716 0
M  V30 19 H -3.47751 1.86035 -0.173728 0
M  V30 20 H -1.30588 -2.58542 -0.93136 0
M  V30 21 H -0.255397 -2.80165 0.34422 0
M  V30 END ATOM
M  V30 BEGIN BOND
M  V30 1 1 1 2
M  V30 2 1 2 3
M  V30 3 1 3 4
M  V30 4 1 4 5
M  V30 5 1 5 6
M  V30 6 2 6 7
M  V30 7 1 6 8
M  V30 8 1 4 9
M  V30 9 1 1 10
M  V30 10 1 1 11
M  V30 11 1 2 12
M  V30 12 1 2 13
M  V30 13 1 3 14
M  V30 14 1 3 15
M  V30 15 1 4 16 CFG=3
M  V30 16 1 5 17
M  V30 17 1 5 18
M  V30 18 1 8 19
M  V30 19 1 9 20
M  V30 20 1 9 21
M  V30 END BOND
M  V30 END CTAB
M  END
