
     RDKit          3D

  0  0  0  0  0  0  0  0  0  0999 V3000
M  V30 BEGIN CTAB
M  V30 COUNTS 31 32 0 0 0
M  V30 BEGIN ATOM
M  V30 1 N 3.57302 2.78179 0.0475376 0
M  V30 2 C 3.19469 1.41002 0.170926 0
M  V30 3 C 4.20876 0.478884 0.0880255 0
M  V30 4 C 3.8862 -0.856723 0.202154 0
M  V30 5 C 2.56199 -1.18209 0.393307 0
M  V30 6 C 1.56201 -0.208219 0.472059 0
M  V30 7 N 1.90827 1.06339 0.358262 0
M  V30 8 C 0.159367 -0.683356 0.681537 0 CFG=2
M  V30 9 O -0.0284803 -1.74998 -0.187633 0
M  V30 10 C -1.29902 -2.29692 -0.113533 0
M  V30 11 C -2.35729 -1.25024 0.153566 0
M  V30 12 N -1.93659 0.0623814 -0.349098 0
M  V30 13 C -0.782672 0.459083 0.405167 0
M  V30 14 S -3.23196 1.15155 0.0021242 0
M  V30 15 O -3.5466 1.18229 1.46811 0
M  V30 16 O -2.86491 2.53036 -0.476942 0
M  V30 17 N -4.6813 0.654524 -0.82287 0
M  V30 18 H 4.41438 3.06494 -0.469702 0
M  V30 19 H 2.98808 3.49901 0.487349 0
M  V30 20 H 5.25438 0.789453 -0.0657949 0
M  V30 21 H 4.66732 -1.59605 0.139483 0
M  V30 22 H 2.2822 -2.21721 0.485669 0
M  V30 23 H 0.0817183 -0.975734 1.74925 0
M  V30 24 H -1.37822 -3.13037 0.61499 0
M  V30 25 H -1.52397 -2.72461 -1.11357 0
M  V30 26 H -2.53393 -1.23359 1.24357 0
M  V30 27 H -3.32415 -1.48327 -0.334932 0
M  V30 28 H -1.13533 0.941324 1.34407 0
M  V30 29 H -0.279909 1.27564 -0.182695 0
M  V30 30 H -4.45524 -0.0167986 -1.58981 0
M  V30 31 H -5.38281 0.260523 -0.152821 0
M  V30 END ATOM
M  V30 BEGIN BOND
M  V30 1 1 1 2
M  V30 2 2 2 3
M  V30 3 1 3 4
M  V30 4 2 4 5
M  V30 5 1 5 6
M  V30 6 2 6 7
M  V30 7 1 6 8
M  V30 8 1 8 9
M  V30 9 1 9 10
M  V30 10 1 10 11
M  V30 11 1 11 12
M  V30 12 1 12 13
M  V30 13 1 12 14
M  V30 14 2 14 15
M  V30 15 2 14 16
M  V30 16 1 14 17
M  V30 17 1 7 2
M  V30 18 1 13 8
M  V30 19 1 1 18
M  V30 20 1 1 19
M  V30 21 1 3 20
M  V30 22 1 4 21
M  V30 23 1 5 22
M  V30 24 1 8 23 CFG=1
M  V30 25 1 10 24
M  V30 26 1 10 25
M  V30 27 1 11 26
M  V30 28 1 11 27
M  V30 29 1 13 28
M  V30 30 1 13 29
M  V30 31 1 17 30
M  V30 32 1 17 31
M  V30 END BOND
M  V30 END CTAB
M  END
