
     RDKit          3D

  0  0  0  0  0  0  0  0  0  0999 V3000
M  V30 BEGIN CTAB
M  V30 COUNTS 71 74 0 0 0
M  V30 BEGIN ATOM
M  V30 1 N 5.44025 -0.709025 0.460215 0
M  V30 2 C 5.11125 0.690674 0.462739 0
M  V30 3 C 6.05116 1.36839 -0.541811 0
M  V30 4 C 7.45827 1.17287 -0.147969 0
M  V30 5 C 8.14619 0.0724369 -0.604831 0
M  V30 6 C 9.44901 -0.102838 -0.235368 0
M  V30 7 C 10.0513 0.824672 0.587499 0
M  V30 8 C 9.36939 1.93965 1.05584 0
M  V30 9 C 8.0565 2.09845 0.672225 0
M  V30 10 C 3.7265 0.956813 0.0113698 0
M  V30 11 O 3.37185 2.16835 0.00487238 0
M  V30 12 N 2.81869 -0.0228565 -0.394155 0
M  V30 13 C 1.50795 0.318153 -0.803519 0
M  V30 14 O 1.19664 1.52915 -0.789513 0
M  V30 15 C 0.595425 -0.685111 -1.21023 0
M  V30 16 C 0.605825 -2.01566 -0.480223 0
M  V30 17 C -0.398684 -2.78862 -1.3651 0
M  V30 18 C -1.09863 -1.64462 -2.15533 0
M  V30 19 N -0.770914 -0.529315 -1.39073 0
M  V30 20 C -1.58615 0.481462 -0.955331 0
M  V30 21 C -1.71904 0.703948 0.500377 0
M  V30 22 C -2.50988 1.82128 1.04932 0
M  V30 23 C -3.95782 1.92778 0.797534 0
M  V30 24 N -4.5066 3.12704 1.50951 0
M  V30 25 C -5.89572 3.34875 1.34959 0
M  V30 26 N -6.31928 4.23037 0.32216 0
M  V30 27 N -6.75161 2.7654 2.11674 0
M  V30 28 C -2.92649 0.244418 -1.55751 0
M  V30 29 O -3.32051 0.970179 -2.54801 0
M  V30 30 C -3.87434 -0.790771 -1.09715 0
M  V30 31 N -3.82957 -1.69306 -0.157976 0
M  V30 32 C -4.81539 -2.50493 0.0547707 0
M  V30 33 C -5.91853 -2.38065 -0.750382 0
M  V30 34 S -5.4474 -1.0868 -1.76727 0
M  V30 35 C -7.05519 -3.20013 -0.623028 0
M  V30 36 C -7.08556 -4.17638 0.344023 0
M  V30 37 C -5.98415 -4.28955 1.13694 0
M  V30 38 C -4.86975 -3.51378 1.03998 0
M  V30 39 H 4.69639 -1.24632 0.995935 0
M  V30 40 H 5.31499 -1.04101 -0.539274 0
M  V30 41 H 5.26057 1.08426 1.47318 0
M  V30 42 H 5.85789 2.47315 -0.561375 0
M  V30 43 H 5.83332 1.00913 -1.56457 0
M  V30 44 H 7.65711 -0.655346 -1.25668 0
M  V30 45 H 10.0419 -0.937552 -0.555139 0
M  V30 46 H 11.0921 0.721382 0.906493 0
M  V30 47 H 9.85754 2.65691 1.7005 0
M  V30 48 H 7.51769 2.96189 1.03073 0
M  V30 49 H 3.13496 -1.01698 -0.384135 0
M  V30 50 H 0.983254 -1.01331 -2.25844 0
M  V30 51 H 1.59587 -2.50073 -0.517661 0
M  V30 52 H 0.216083 -1.93792 0.538679 0
M  V30 53 H -1.12987 -3.24565 -0.686648 0
M  V30 54 H 0.106963 -3.48603 -2.0291 0
M  V30 55 H -2.05756 -1.88587 -2.51758 0
M  V30 56 H -0.432911 -1.58662 -3.09954 0
M  V30 57 H -1.23417 1.45828 -1.38645 0
M  V30 58 H -0.72318 0.665045 1.04162 0
M  V30 59 H -2.21056 -0.212092 1.00919 0
M  V30 60 H -2.34647 1.83991 2.18832 0
M  V30 61 H -2.063 2.83208 0.774175 0
M  V30 62 H -4.56825 1.10243 1.24467 0
M  V30 63 H -4.21873 2.15899 -0.251673 0
M  V30 64 H -3.93343 3.74834 2.07255 0
M  V30 65 H -6.49412 5.23103 0.501203 0
M  V30 66 H -6.45298 3.8425 -0.633709 0
M  V30 67 H -7.75597 2.92956 1.9964 0
M  V30 68 H -7.84601 -3.00217 -1.31029 0
M  V30 69 H -7.93496 -4.80379 0.454376 0
M  V30 70 H -6.01947 -5.07489 1.90829 0
M  V30 71 H -4.05997 -3.69477 1.72096 0
M  V30 END ATOM
M  V30 BEGIN BOND
M  V30 1 1 1 2
M  V30 2 1 2 3
M  V30 3 1 3 4
M  V30 4 2 4 5
M  V30 5 1 5 6
M  V30 6 2 6 7
M  V30 7 1 7 8
M  V30 8 2 8 9
M  V30 9 1 2 10
M  V30 10 2 10 11
M  V30 11 1 10 12
M  V30 12 1 12 13
M  V30 13 2 13 14
M  V30 14 1 13 15
M  V30 15 1 15 16
M  V30 16 1 16 17
M  V30 17 1 17 18
M  V30 18 1 18 19
M  V30 19 1 19 20
M  V30 20 1 20 21
M  V30 21 1 21 22
M  V30 22 1 22 23
M  V30 23 1 23 24
M  V30 24 1 24 25
M  V30 25 1 25 26
M  V30 26 2 25 27 CFG=2
M  V30 27 1 20 28
M  V30 28 2 28 29
M  V30 29 1 28 30
M  V30 30 2 30 31
M  V30 31 1 31 32
M  V30 32 2 32 33
M  V30 33 1 33 34
M  V30 34 1 33 35
M  V30 35 2 35 36
M  V30 36 1 36 37
M  V30 37 2 37 38
M  V30 38 1 9 4
M  V30 39 1 19 15
M  V30 40 1 34 30
M  V30 41 1 38 32
M  V30 42 1 1 39
M  V30 43 1 1 40
M  V30 44 1 2 41
M  V30 45 1 3 42
M  V30 46 1 3 43
M  V30 47 1 5 44
M  V30 48 1 6 45
M  V30 49 1 7 46
M  V30 50 1 8 47
M  V30 51 1 9 48
M  V30 52 1 12 49
M  V30 53 1 15 50
M  V30 54 1 16 51
M  V30 55 1 16 52
M  V30 56 1 17 53
M  V30 57 1 17 54
M  V30 58 1 18 55
M  V30 59 1 18 56
M  V30 60 1 20 57
M  V30 61 1 21 58
M  V30 62 1 21 59
M  V30 63 1 22 60
M  V30 64 1 22 61
M  V30 65 1 23 62
M  V30 66 1 23 63
M  V30 67 1 24 64
M  V30 68 1 26 65
M  V30 69 1 26 66
M  V30 70 1 27 67
M  V30 71 1 35 68
M  V30 72 1 36 69
M  V30 73 1 37 70
M  V30 74 1 38 71
M  V30 END BOND
M  V30 END CTAB
M  END
