
     RDKit          3D

  0  0  0  0  0  0  0  0  0  0999 V3000
M  V30 BEGIN CTAB
M  V30 COUNTS 57 61 0 0 0
M  V30 BEGIN ATOM
M  V30 1 C -5.84971 1.53429 -1.82677 0
M  V30 2 C -5.50616 1.01303 -0.434297 0
M  V30 3 O -4.17601 0.723112 -0.367796 0
M  V30 4 C -3.06372 1.3615 0.0322635 0
M  V30 5 C -2.92505 2.64787 0.498168 0
M  V30 6 N -4.08679 3.49768 0.593719 0
M  V30 7 N -1.73262 3.17112 0.868666 0
M  V30 8 C -0.599271 2.47354 0.808531 0
M  V30 9 C -0.675605 1.17243 0.347311 0
M  V30 10 C -1.83373 0.631978 -0.0235848 0
M  V30 11 C 0.588757 0.425182 0.289023 0
M  V30 12 C 0.65049 -0.917966 0.474136 0
M  V30 13 C 1.8288 -1.60862 0.421355 0
M  V30 14 C 3.05616 -0.960938 0.170012 0
M  V30 15 C 2.99575 0.386985 -0.0156286 0
M  V30 16 C 1.77243 1.07351 0.0431395 0
M  V30 17 C 4.27991 -1.69525 0.159833 0
M  V30 18 O 4.16709 -2.93467 0.53909 0
M  V30 19 N 5.58619 -1.28731 -0.196659 0
M  V30 20 C 6.11088 -0.0430562 -0.69509 0
M  V30 21 C 7.49851 -0.332088 -1.20636 0
M  V30 22 C 8.63295 -0.52411 -0.214377 0
M  V30 23 N 8.34316 -0.0808923 1.11121 0
M  V30 24 C 7.8704 -1.67658 -0.769183 0
M  V30 25 C 6.72097 -2.22281 -0.0424282 0
M  V30 26 C -6.37248 -0.118524 -0.0732254 0
M  V30 27 C -6.44926 -0.420011 1.292 0
M  V30 28 Cl -5.55674 0.579526 2.42258 0
M  V30 29 C -7.21036 -1.47838 1.75258 0
M  V30 30 C -7.91523 -2.26342 0.869071 0
M  V30 31 C -7.86521 -2.00148 -0.47552 0
M  V30 32 F -8.55676 -2.77411 -1.31746 0
M  V30 33 C -7.07231 -0.906513 -0.916379 0
M  V30 34 Cl -7.06329 -0.731852 -2.66006 0
M  V30 35 H -5.38534 2.5956 -1.88834 0
M  V30 36 H -6.90789 1.63779 -2.01985 0
M  V30 37 H -5.31125 0.993951 -2.60541 0
M  V30 38 H -5.84505 1.86099 0.246615 0
M  V30 39 H -4.38744 4.03504 -0.230644 0
M  V30 40 H -4.62531 3.57935 1.47354 0
M  V30 41 H 0.364333 2.91044 1.11463 0
M  V30 42 H -1.90968 -0.387846 -0.387121 0
M  V30 43 H -0.257369 -1.46412 0.670129 0
M  V30 44 H 1.86893 -2.68538 0.568889 0
M  V30 45 H 3.86895 1.01038 -0.199072 0
M  V30 46 H 1.77189 2.13953 -0.112766 0
M  V30 47 H 5.52285 0.309371 -1.58986 0
M  V30 48 H 6.21114 0.718099 0.0849768 0
M  V30 49 H 7.77868 0.0308337 -2.22133 0
M  V30 50 H 9.65744 -0.39406 -0.648638 0
M  V30 51 H 8.0433 -0.788762 1.78648 0
M  V30 52 H 7.9858 0.870826 1.22131 0
M  V30 53 H 8.40105 -2.39503 -1.45577 0
M  V30 54 H 6.38817 -3.22356 -0.411494 0
M  V30 55 H 6.90802 -2.31578 1.0509 0
M  V30 56 H -7.23247 -1.66999 2.83582 0
M  V30 57 H -8.5009 -3.0808 1.25913 0
M  V30 END ATOM
M  V30 BEGIN BOND
M  V30 1 1 1 2
M  V30 2 1 2 3
M  V30 3 1 3 4
M  V30 4 2 4 5
M  V30 5 1 5 6
M  V30 6 1 5 7
M  V30 7 2 7 8
M  V30 8 1 8 9
M  V30 9 2 9 10
M  V30 10 1 9 11
M  V30 11 2 11 12
M  V30 12 1 12 13
M  V30 13 2 13 14
M  V30 14 1 14 15
M  V30 15 2 15 16
M  V30 16 1 14 17
M  V30 17 2 17 18
M  V30 18 1 17 19
M  V30 19 1 19 20
M  V30 20 1 20 21
M  V30 21 1 21 22
M  V30 22 1 22 23
M  V30 23 1 22 24
M  V30 24 1 24 25
M  V30 25 1 2 26
M  V30 26 2 26 27
M  V30 27 1 27 28
M  V30 28 1 27 29
M  V30 29 2 29 30
M  V30 30 1 30 31
M  V30 31 1 31 32
M  V30 32 2 31 33
M  V30 33 1 33 34
M  V30 34 1 10 4
M  V30 35 1 16 11
M  V30 36 1 25 19
M  V30 37 1 33 26
M  V30 38 1 24 21
M  V30 39 1 1 35
M  V30 40 1 1 36
M  V30 41 1 1 37
M  V30 42 1 2 38
M  V30 43 1 6 39
M  V30 44 1 6 40
M  V30 45 1 8 41
M  V30 46 1 10 42
M  V30 47 1 12 43
M  V30 48 1 13 44
M  V30 49 1 15 45
M  V30 50 1 16 46
M  V30 51 1 20 47
M  V30 52 1 20 48
M  V30 53 1 21 49
M  V30 54 1 22 50
M  V30 55 1 23 51
M  V30 56 1 23 52
M  V30 57 1 24 53
M  V30 58 1 25 54
M  V30 59 1 25 55
M  V30 60 1 29 56
M  V30 61 1 30 57
M  V30 END BOND
M  V30 END CTAB
M  END
