
     RDKit          3D

  0  0  0  0  0  0  0  0  0  0999 V3000
M  V30 BEGIN CTAB
M  V30 COUNTS 50 54 0 0 0
M  V30 BEGIN ATOM
M  V30 1 N 6.56948 2.9197 -0.651166 0
M  V30 2 C 6.3918 2.0927 0.491402 0
M  V30 3 N 6.7143 2.33833 1.77161 0
M  V30 4 O 6.38602 1.32165 2.51669 0
M  V30 5 C 5.84301 0.367152 1.80633 0
M  V30 6 C 5.83041 0.831578 0.489854 0
M  V30 7 C 5.29976 0.00303803 -0.482791 0
M  V30 8 C 4.78799 -1.24836 -0.212404 0
M  V30 9 C 4.81413 -1.67976 1.09711 0
M  V30 10 C 5.33902 -0.878781 2.1089 0
M  V30 11 N 4.24032 -2.10829 -1.20339 0
M  V30 12 N 4.90115 -2.98556 -1.94214 0
M  V30 13 N 4.07161 -3.61529 -2.76347 0
M  V30 14 N 2.87412 -3.13151 -2.54203 0
M  V30 15 C 2.9686 -2.19712 -1.57699 0
M  V30 16 C 1.85005 -1.40153 -1.02295 0
M  V30 17 O 2.12124 -0.573937 -0.12638 0
M  V30 18 N 0.568721 -1.62433 -1.534 0
M  V30 19 C -0.591451 -0.945348 -1.09665 0
M  V30 20 C -0.716481 -0.220514 0.0491512 0
M  V30 21 C -1.89278 0.442369 0.411301 0
M  V30 22 C -3.00573 0.387304 -0.399096 0
M  V30 23 C -2.87463 -0.346531 -1.55676 0
M  V30 24 C -1.73195 -0.992903 -1.91242 0
M  V30 25 C -4.23001 1.10079 -0.0561731 0
M  V30 26 C -5.36857 0.475792 0.397257 0
M  V30 27 C -6.4876 1.27024 0.663337 0
M  V30 28 C -6.46013 2.62193 0.483008 0
M  V30 29 C -5.31036 3.23582 0.0283483 0
M  V30 30 C -4.19793 2.48375 -0.241458 0
M  V30 31 S -5.44619 -1.22602 0.672726 0
M  V30 32 N -7.02975 -1.60556 1.31408 0
M  V30 33 O -5.32525 -1.97182 -0.59649 0
M  V30 34 O -4.40874 -1.69392 1.66467 0
M  V30 35 H 7.43223 3.49232 -0.745606 0
M  V30 36 H 5.87531 2.99728 -1.42785 0
M  V30 37 H 5.28756 0.356503 -1.5004 0
M  V30 38 H 4.43858 -2.63188 1.3858 0
M  V30 39 H 5.34915 -1.23495 3.12129 0
M  V30 40 H 0.477283 -2.3631 -2.30592 0
M  V30 41 H 0.0972872 -0.137435 0.744969 0
M  V30 42 H -1.91753 0.996137 1.33122 0
M  V30 43 H -3.70321 -0.416962 -2.25492 0
M  V30 44 H -1.66346 -1.56622 -2.83732 0
M  V30 45 H -7.41113 0.832207 1.02156 0
M  V30 46 H -7.30303 3.25649 0.678851 0
M  V30 47 H -5.28018 4.31094 -0.117403 0
M  V30 48 H -3.31335 2.99242 -0.595852 0
M  V30 49 H -7.157 -1.17582 2.25366 0
M  V30 50 H -7.70271 -1.153 0.654009 0
M  V30 END ATOM
M  V30 BEGIN BOND
M  V30 1 1 1 2
M  V30 2 2 2 3
M  V30 3 1 3 4
M  V30 4 1 4 5
M  V30 5 2 5 6
M  V30 6 1 6 7
M  V30 7 2 7 8
M  V30 8 1 8 9
M  V30 9 2 9 10
M  V30 10 1 8 11
M  V30 11 1 11 12
M  V30 12 2 12 13
M  V30 13 1 13 14
M  V30 14 2 14 15
M  V30 15 1 15 16
M  V30 16 2 16 17
M  V30 17 1 16 18
M  V30 18 1 18 19
M  V30 19 2 19 20
M  V30 20 1 20 21
M  V30 21 2 21 22
M  V30 22 1 22 23
M  V30 23 2 23 24
M  V30 24 1 22 25
M  V30 25 2 25 26
M  V30 26 1 26 27
M  V30 27 2 27 28
M  V30 28 1 28 29
M  V30 29 2 29 30
M  V30 30 1 26 31
M  V30 31 1 31 32
M  V30 32 2 31 33
M  V30 33 2 31 34
M  V30 34 1 6 2
M  V30 35 1 15 11
M  V30 36 1 24 19
M  V30 37 1 30 25
M  V30 38 1 10 5
M  V30 39 1 1 35
M  V30 40 1 1 36
M  V30 41 1 7 37
M  V30 42 1 9 38
M  V30 43 1 10 39
M  V30 44 1 18 40
M  V30 45 1 20 41
M  V30 46 1 21 42
M  V30 47 1 23 43
M  V30 48 1 24 44
M  V30 49 1 27 45
M  V30 50 1 28 46
M  V30 51 1 29 47
M  V30 52 1 30 48
M  V30 53 1 32 49
M  V30 54 1 32 50
M  V30 END BOND
M  V30 END CTAB
M  END
