
     RDKit          3D

  0  0  0  0  0  0  0  0  0  0999 V3000
M  V30 BEGIN CTAB
M  V30 COUNTS 35 36 0 0 0
M  V30 BEGIN ATOM
M  V30 1 N -4.20609 0.740402 2.15627 0
M  V30 2 C -3.15216 0.10817 1.44742 0
M  V30 3 C -2.11667 -0.467588 2.16005 0
M  V30 4 C -1.05548 -1.10082 1.54985 0
M  V30 5 C -1.00736 -1.17295 0.174565 0
M  V30 6 C 0.111247 -1.84266 -0.538176 0
M  V30 7 C 1.21384 -0.893815 -0.839034 0
M  V30 8 C 2.22828 -0.713562 0.0567567 0
M  V30 9 C 3.24584 0.165246 -0.226221 0
M  V30 10 C 4.32614 0.345766 0.747071 0
M  V30 11 O 4.294 -0.38537 1.94664 0
M  V30 12 O 5.23685 1.1429 0.475843 0
M  V30 13 C 3.26567 0.878506 -1.4101 0
M  V30 14 N 4.32833 1.78955 -1.69423 0
M  V30 15 C 2.23666 0.688221 -2.30616 0
M  V30 16 C 1.21278 -0.196964 -2.01986 0
M  V30 17 C -2.03666 -0.60064 -0.533878 0
M  V30 18 C -3.10115 0.034229 0.0679511 0
M  V30 19 C -4.18266 0.634762 -0.701599 0
M  V30 20 O -5.25579 1.27325 -0.142611 0
M  V30 21 O -4.11733 0.556603 -1.95514 0
M  V30 22 H -4.31087 1.77115 2.07899 0
M  V30 23 H -4.88896 0.209688 2.75911 0
M  V30 24 H -2.14593 -0.41562 3.24819 0
M  V30 25 H -0.249277 -1.54888 2.11085 0
M  V30 26 H -0.276264 -2.28732 -1.46482 0
M  V30 27 H 0.540263 -2.64118 0.110433 0
M  V30 28 H 2.263 -1.24537 0.998052 0
M  V30 29 H 3.54006 -0.20744 2.60108 0
M  V30 30 H 5.0929 1.57152 -2.36714 0
M  V30 31 H 4.33973 2.70882 -1.20951 0
M  V30 32 H 2.26598 1.25169 -3.22523 0
M  V30 33 H 0.409401 -0.319194 -2.76403 0
M  V30 34 H -2.00823 -0.651723 -1.60905 0
M  V30 35 H -6.04011 0.820608 0.317683 0
M  V30 END ATOM
M  V30 BEGIN BOND
M  V30 1 1 1 2
M  V30 2 2 2 3
M  V30 3 1 3 4
M  V30 4 2 4 5
M  V30 5 1 5 6
M  V30 6 1 6 7
M  V30 7 2 7 8
M  V30 8 1 8 9
M  V30 9 1 9 10
M  V30 10 1 10 11
M  V30 11 2 10 12
M  V30 12 2 9 13
M  V30 13 1 13 14
M  V30 14 1 13 15
M  V30 15 2 15 16
M  V30 16 1 5 17
M  V30 17 2 17 18
M  V30 18 1 18 19
M  V30 19 1 19 20
M  V30 20 2 19 21
M  V30 21 1 18 2
M  V30 22 1 16 7
M  V30 23 1 1 22
M  V30 24 1 1 23
M  V30 25 1 3 24
M  V30 26 1 4 25
M  V30 27 1 6 26
M  V30 28 1 6 27
M  V30 29 1 8 28
M  V30 30 1 11 29
M  V30 31 1 14 30
M  V30 32 1 14 31
M  V30 33 1 15 32
M  V30 34 1 16 33
M  V30 35 1 17 34
M  V30 36 1 20 35
M  V30 END BOND
M  V30 END CTAB
M  END
