
     RDKit          3D

  0  0  0  0  0  0  0  0  0  0999 V3000
M  V30 BEGIN CTAB
M  V30 COUNTS 33 34 0 0 0
M  V30 BEGIN ATOM
M  V30 1 C 6.46637 0.809967 0.43737 0
M  V30 2 O 5.1386 0.381562 0.199806 0
M  V30 3 C 4.03524 0.983765 0.757566 0
M  V30 4 O 4.18923 1.96297 1.51768 0
M  V30 5 C 2.66978 0.522759 0.497158 0
M  V30 6 S 1.16804 1.10397 1.06845 0
M  V30 7 C 0.139701 -0.00493303 0.27202 0
M  V30 8 N 1.00051 -0.759703 -0.387743 0
M  V30 9 C 2.27009 -0.524897 -0.298402 0
M  V30 10 N 3.26667 -1.31869 -0.999184 0
M  V30 11 N -1.28602 -0.127531 0.282925 0
M  V30 12 C -2.11062 0.751806 1.03822 0
M  V30 13 C -3.43679 0.0771756 1.39305 0
M  V30 14 C -4.14091 -0.428387 0.166799 0
M  V30 15 C -3.22488 -0.726704 -0.978419 0
M  V30 16 C -1.88208 -1.18047 -0.501957 0
M  V30 17 N -5.18838 0.468971 -0.279114 0
M  V30 18 H 6.48169 1.89603 0.700451 0
M  V30 19 H 7.1118 0.632699 -0.465546 0
M  V30 20 H 6.92072 0.214694 1.26382 0
M  V30 21 H 4.01229 -1.78205 -0.455255 0
M  V30 22 H 3.20409 -1.39891 -2.01947 0
M  V30 23 H -1.66532 1.03798 2.03515 0
M  V30 24 H -2.37215 1.69953 0.516295 0
M  V30 25 H -3.20372 -0.786288 2.06622 0
M  V30 26 H -4.05394 0.774262 1.96796 0
M  V30 27 H -4.65516 -1.38302 0.44832 0
M  V30 28 H -3.14789 0.202047 -1.60531 0
M  V30 29 H -3.64054 -1.55767 -1.61987 0
M  V30 30 H -1.23757 -1.43498 -1.36862 0
M  V30 31 H -2.03861 -2.04461 0.174749 0
M  V30 32 H -5.97028 0.536602 0.406559 0
M  V30 33 H -4.81994 1.40207 -0.565773 0
M  V30 END ATOM
M  V30 BEGIN BOND
M  V30 1 1 1 2
M  V30 2 1 2 3
M  V30 3 2 3 4
M  V30 4 1 3 5
M  V30 5 1 5 6
M  V30 6 1 6 7
M  V30 7 2 7 8
M  V30 8 1 8 9
M  V30 9 1 9 10
M  V30 10 1 7 11
M  V30 11 1 11 12
M  V30 12 1 12 13
M  V30 13 1 13 14
M  V30 14 1 14 15
M  V30 15 1 15 16
M  V30 16 1 14 17
M  V30 17 2 9 5
M  V30 18 1 16 11
M  V30 19 1 1 18
M  V30 20 1 1 19
M  V30 21 1 1 20
M  V30 22 1 10 21
M  V30 23 1 10 22
M  V30 24 1 12 23
M  V30 25 1 12 24
M  V30 26 1 13 25
M  V30 27 1 13 26
M  V30 28 1 14 27
M  V30 29 1 15 28
M  V30 30 1 15 29
M  V30 31 1 16 30
M  V30 32 1 16 31
M  V30 33 1 17 32
M  V30 34 1 17 33
M  V30 END BOND
M  V30 END CTAB
M  END
