
     RDKit          3D

  0  0  0  0  0  0  0  0  0  0999 V3000
M  V30 BEGIN CTAB
M  V30 COUNTS 33 35 0 0 0
M  V30 BEGIN ATOM
M  V30 1 N -5.4535 -2.1704 -1.34098 0
M  V30 2 C -4.75688 -1.19791 -0.595025 0
M  V30 3 C -5.38424 -0.0657613 -0.112898 0
M  V30 4 C -4.67452 0.878746 0.620515 0
M  V30 5 N -5.37148 2.02337 1.09102 0
M  V30 6 N -3.37184 0.659723 0.844538 0
M  V30 7 C -2.73713 -0.43067 0.388365 0
M  V30 8 N -3.4478 -1.32691 -0.317562 0
M  V30 9 S -0.979056 -0.691159 0.71109 0
M  V30 10 C -0.0913455 0.102945 -0.684086 0
M  V30 11 C 1.36769 -0.0451877 -0.530933 0
M  V30 12 N 2.09702 0.867369 0.125821 0
M  V30 13 C 3.44463 0.73667 0.270832 0
M  V30 14 C 4.19325 1.67141 0.943785 0
M  V30 15 C 5.56003 1.51041 1.07413 0
M  V30 16 C 6.19171 0.41141 0.531828 0
M  V30 17 C 5.4393 -0.509496 -0.133623 0
M  V30 18 C 4.07461 -0.358848 -0.269717 0
M  V30 19 C 3.33112 -1.30517 -0.948645 0
M  V30 20 O 3.86715 -2.30901 -1.45072 0
M  V30 21 N 2.02027 -1.1175 -1.0541 0
M  V30 22 H -5.54624 -3.12854 -0.977221 0
M  V30 23 H -5.87067 -1.92336 -2.25118 0
M  V30 24 H -6.43825 0.0518551 -0.328415 0
M  V30 25 H -5.07149 2.94796 0.697321 0
M  V30 26 H -6.1394 1.99267 1.78368 0
M  V30 27 H -0.369463 1.172 -0.730047 0
M  V30 28 H -0.397082 -0.366689 -1.64794 0
M  V30 29 H 3.73662 2.54709 1.38357 0
M  V30 30 H 6.15456 2.24692 1.60516 0
M  V30 31 H 7.27159 0.329742 0.66161 0
M  V30 32 H 5.89464 -1.38342 -0.572628 0
M  V30 33 H 1.45618 -1.82023 -1.56027 0
M  V30 END ATOM
M  V30 BEGIN BOND
M  V30 1 1 1 2
M  V30 2 2 2 3
M  V30 3 1 3 4
M  V30 4 1 4 5
M  V30 5 2 4 6
M  V30 6 1 6 7
M  V30 7 2 7 8
M  V30 8 1 7 9
M  V30 9 1 9 10
M  V30 10 1 10 11
M  V30 11 2 11 12
M  V30 12 1 12 13
M  V30 13 2 13 14
M  V30 14 1 14 15
M  V30 15 2 15 16
M  V30 16 1 16 17
M  V30 17 2 17 18
M  V30 18 1 18 19
M  V30 19 2 19 20
M  V30 20 1 19 21
M  V30 21 1 8 2
M  V30 22 1 21 11
M  V30 23 1 18 13
M  V30 24 1 1 22
M  V30 25 1 1 23
M  V30 26 1 3 24
M  V30 27 1 5 25
M  V30 28 1 5 26
M  V30 29 1 10 27
M  V30 30 1 10 28
M  V30 31 1 14 29
M  V30 32 1 15 30
M  V30 33 1 16 31
M  V30 34 1 17 32
M  V30 35 1 21 33
M  V30 END BOND
M  V30 END CTAB
M  END
