
     RDKit          3D

  0  0  0  0  0  0  0  0  0  0999 V3000
M  V30 BEGIN CTAB
M  V30 COUNTS 35 36 0 0 0
M  V30 BEGIN ATOM
M  V30 1 C -6.34417 0.61599 -0.672503 0
M  V30 2 C -4.88911 0.342167 -0.441572 0
M  V30 3 C -3.97206 1.29549 -0.745291 0
M  V30 4 C -2.62436 1.03755 -0.529634 0
M  V30 5 C -2.16615 -0.155653 -0.0158966 0
M  V30 6 C -3.18602 -1.09578 0.274262 0
M  V30 7 C -4.50544 -0.8632 0.071487 0
M  V30 8 N -2.77381 -2.34704 0.803441 0
M  V30 9 N -0.853308 -0.505302 0.258562 0
M  V30 10 C 0.362085 0.155266 -0.0514735 0
M  V30 11 S 0.367636 1.5164 -0.894091 0
M  V30 12 N 1.56102 -0.477598 0.396347 0
M  V30 13 C 2.89649 -0.10331 0.269669 0
M  V30 14 C 3.36127 1.06539 -0.283331 0
M  V30 15 C 4.72757 1.3821 -0.367746 0
M  V30 16 C 5.6846 0.527896 0.105239 0
M  V30 17 C 5.23216 -0.643359 0.660529 0
M  V30 18 C 3.90809 -0.969095 0.751449 0
M  V30 19 Cl 3.37791 -2.4807 1.46839 0
M  V30 20 N 7.07404 0.832797 0.0277322 0
M  V30 21 H -6.9504 -0.231695 -0.28471 0
M  V30 22 H -6.60176 1.54331 -0.102635 0
M  V30 23 H -6.52836 0.774401 -1.73829 0
M  V30 24 H -4.26995 2.26134 -1.15564 0
M  V30 25 H -1.94919 1.83273 -0.774285 0
M  V30 26 H -5.27823 -1.59334 0.298436 0
M  V30 27 H -2.929 -2.52763 1.81482 0
M  V30 28 H -2.33052 -3.04217 0.164188 0
M  V30 29 H -0.734018 -1.43249 0.807446 0
M  V30 30 H 1.38732 -1.40619 0.926844 0
M  V30 31 H 2.69816 1.79691 -0.672066 0
M  V30 32 H 5.04047 2.32494 -0.817451 0
M  V30 33 H 6.0002 -1.325 1.0383 0
M  V30 34 H 7.68227 1.01548 0.853679 0
M  V30 35 H 7.52456 0.879388 -0.910645 0
M  V30 END ATOM
M  V30 BEGIN BOND
M  V30 1 1 1 2
M  V30 2 2 2 3
M  V30 3 1 3 4
M  V30 4 2 4 5
M  V30 5 1 5 6
M  V30 6 2 6 7
M  V30 7 1 6 8
M  V30 8 1 5 9
M  V30 9 1 9 10
M  V30 10 2 10 11
M  V30 11 1 10 12
M  V30 12 1 12 13
M  V30 13 2 13 14
M  V30 14 1 14 15
M  V30 15 2 15 16
M  V30 16 1 16 17
M  V30 17 2 17 18
M  V30 18 1 18 19
M  V30 19 1 16 20
M  V30 20 1 7 2
M  V30 21 1 18 13
M  V30 22 1 1 21
M  V30 23 1 1 22
M  V30 24 1 1 23
M  V30 25 1 3 24
M  V30 26 1 4 25
M  V30 27 1 7 26
M  V30 28 1 8 27
M  V30 29 1 8 28
M  V30 30 1 9 29
M  V30 31 1 12 30
M  V30 32 1 14 31
M  V30 33 1 15 32
M  V30 34 1 17 33
M  V30 35 1 20 34
M  V30 36 1 20 35
M  V30 END BOND
M  V30 END CTAB
M  END
