
     RDKit          3D

  0  0  0  0  0  0  0  0  0  0999 V3000
M  V30 BEGIN CTAB
M  V30 COUNTS 46 47 0 0 0
M  V30 BEGIN ATOM
M  V30 1 C -1.18349 -3.83167 1.07928 0
M  V30 2 O -1.5504 -2.75487 0.261802 0
M  V30 3 C -0.63922 -1.89077 -0.30801 0
M  V30 4 C -1.04781 -0.839518 -1.10986 0
M  V30 5 C -2.47585 -0.596206 -1.40554 0
M  V30 6 C -3.26612 -0.0502783 -0.307818 0
M  V30 7 C -3.17135 1.25655 0.0642663 0
M  V30 8 N -2.3043 2.20823 -0.576014 0
M  V30 9 N -3.91097 1.72043 1.07101 0
M  V30 10 C -4.76307 0.94922 1.75165 0
M  V30 11 N -5.54644 1.45489 2.82553 0
M  V30 12 N -4.85729 -0.355746 1.3791 0
M  V30 13 C -4.13628 -0.869805 0.375032 0
M  V30 14 C -0.072147 -0.04718 -1.62388 0
M  V30 15 C 1.28846 -0.237893 -1.38653 0
M  V30 16 C 2.27951 0.670324 -1.99923 0
M  V30 17 C 2.56854 1.90384 -1.20526 0
M  V30 18 C 3.17032 1.65546 0.128007 0
M  V30 19 C 4.52453 0.997128 0.0960922 0
M  V30 20 C 4.9722 0.812835 1.50716 0
M  V30 21 O 6.19238 0.228901 1.82008 0
M  V30 22 O 4.23759 1.19075 2.47179 0
M  V30 23 C 1.67002 -1.28078 -0.592447 0
M  V30 24 C 0.711659 -2.12804 -0.0375262 0
M  V30 25 H -2.06583 -4.45747 1.26856 0
M  V30 26 H -0.698696 -3.45853 2.00796 0
M  V30 27 H -0.396972 -4.45685 0.574094 0
M  V30 28 H -2.50459 0.0568269 -2.32491 0
M  V30 29 H -2.93495 -1.56173 -1.78977 0
M  V30 30 H -1.71397 2.78357 0.0625759 0
M  V30 31 H -2.22868 2.35539 -1.58497 0
M  V30 32 H -5.07803 1.86577 3.64117 0
M  V30 33 H -6.56996 1.40244 2.77138 0
M  V30 34 H -4.28581 -1.92914 0.146261 0
M  V30 35 H -0.318205 0.779476 -2.26563 0
M  V30 36 H 3.26373 0.142033 -2.15975 0
M  V30 37 H 1.95418 0.92534 -3.04002 0
M  V30 38 H 1.60024 2.4677 -1.08093 0
M  V30 39 H 3.28889 2.52505 -1.81389 0
M  V30 40 H 2.50258 0.92665 0.670967 0
M  V30 41 H 3.24678 2.57375 0.750924 0
M  V30 42 H 4.49654 -0.00296032 -0.36784 0
M  V30 43 H 5.27102 1.63565 -0.446774 0
M  V30 44 H 6.75905 -0.275631 1.16783 0
M  V30 45 H 2.69248 -1.51624 -0.350599 0
M  V30 46 H 1.02976 -2.94689 0.586905 0
M  V30 END ATOM
M  V30 BEGIN BOND
M  V30 1 1 1 2
M  V30 2 1 2 3
M  V30 3 2 3 4
M  V30 4 1 4 5
M  V30 5 1 5 6
M  V30 6 2 6 7
M  V30 7 1 7 8
M  V30 8 1 7 9
M  V30 9 2 9 10
M  V30 10 1 10 11
M  V30 11 1 10 12
M  V30 12 2 12 13
M  V30 13 1 4 14
M  V30 14 2 14 15
M  V30 15 1 15 16
M  V30 16 1 16 17
M  V30 17 1 17 18
M  V30 18 1 18 19
M  V30 19 1 19 20
M  V30 20 1 20 21
M  V30 21 2 20 22
M  V30 22 1 15 23
M  V30 23 2 23 24
M  V30 24 1 24 3
M  V30 25 1 13 6
M  V30 26 1 1 25
M  V30 27 1 1 26
M  V30 28 1 1 27
M  V30 29 1 5 28
M  V30 30 1 5 29
M  V30 31 1 8 30
M  V30 32 1 8 31
M  V30 33 1 11 32
M  V30 34 1 11 33
M  V30 35 1 13 34
M  V30 36 1 14 35
M  V30 37 1 16 36
M  V30 38 1 16 37
M  V30 39 1 17 38
M  V30 40 1 17 39
M  V30 41 1 18 40
M  V30 42 1 18 41
M  V30 43 1 19 42
M  V30 44 1 19 43
M  V30 45 1 21 44
M  V30 46 1 23 45
M  V30 47 1 24 46
M  V30 END BOND
M  V30 END CTAB
M  END
