
     RDKit          3D

  0  0  0  0  0  0  0  0  0  0999 V3000
M  V30 BEGIN CTAB
M  V30 COUNTS 32 33 0 0 0
M  V30 BEGIN ATOM
M  V30 1 O 2.22234 0.83913 1.86749 0
M  V30 2 C 1.47766 0.829782 0.85082 0
M  V30 3 N 2.01821 1.20711 -0.413859 0
M  V30 4 C 3.39879 1.59982 -0.567064 0
M  V30 5 C 4.32648 0.480885 -0.172631 0
M  V30 6 C 5.6873 0.501846 -0.0953163 0
M  V30 7 C 6.11426 -0.748619 0.307473 0
M  V30 8 C 4.96063 -1.48926 0.459614 0
M  V30 9 O 3.94309 -0.706749 0.161458 0
M  V30 10 C 0.059187 0.427909 0.990064 0
M  V30 11 S -0.7128 0.526344 -0.646042 0
M  V30 12 C -2.4362 0.0375501 -0.471742 0
M  V30 13 N -3.38946 0.966197 -0.191079 0
M  V30 14 C -4.68928 0.642206 -0.0529331 0
M  V30 15 N -5.67344 1.63696 0.242363 0
M  V30 16 C -5.03938 -0.688614 -0.206954 0
M  V30 17 C -4.07534 -1.63673 -0.492189 0
M  V30 18 N -2.79112 -1.24972 -0.618388 0
M  V30 19 N -4.45724 -2.99901 -0.646495 0
M  V30 20 H 1.4121 1.20473 -1.26285 0
M  V30 21 H 3.63906 2.52191 0.00449711 0
M  V30 22 H 3.58145 1.8575 -1.62867 0
M  V30 23 H 6.29874 1.36287 -0.317079 0
M  V30 24 H 7.14359 -1.08524 0.472125 0
M  V30 25 H 4.87046 -2.52411 0.765687 0
M  V30 26 H -0.0401689 -0.618859 1.3792 0
M  V30 27 H -0.445995 1.08177 1.72882 0
M  V30 28 H -5.4917 2.44555 0.863137 0
M  V30 29 H -6.61529 1.5378 -0.190388 0
M  V30 30 H -6.07935 -0.947702 -0.096359 0
M  V30 31 H -3.90838 -3.78602 -0.210854 0
M  V30 32 H -5.30821 -3.22724 -1.20905 0
M  V30 END ATOM
M  V30 BEGIN BOND
M  V30 1 2 1 2
M  V30 2 1 2 3
M  V30 3 1 3 4
M  V30 4 1 4 5
M  V30 5 2 5 6
M  V30 6 1 6 7
M  V30 7 2 7 8
M  V30 8 1 8 9
M  V30 9 1 2 10
M  V30 10 1 10 11
M  V30 11 1 11 12
M  V30 12 2 12 13
M  V30 13 1 13 14
M  V30 14 1 14 15
M  V30 15 2 14 16
M  V30 16 1 16 17
M  V30 17 2 17 18
M  V30 18 1 17 19
M  V30 19 1 9 5
M  V30 20 1 18 12
M  V30 21 1 3 20
M  V30 22 1 4 21
M  V30 23 1 4 22
M  V30 24 1 6 23
M  V30 25 1 7 24
M  V30 26 1 8 25
M  V30 27 1 10 26
M  V30 28 1 10 27
M  V30 29 1 15 28
M  V30 30 1 15 29
M  V30 31 1 16 30
M  V30 32 1 19 31
M  V30 33 1 19 32
M  V30 END BOND
M  V30 END CTAB
M  END
