
     RDKit          3D

  0  0  0  0  0  0  0  0  0  0999 V3000
M  V30 BEGIN CTAB
M  V30 COUNTS 24 24 0 0 0
M  V30 BEGIN ATOM
M  V30 1 C -2.63802 -0.674144 -0.581153 0
M  V30 2 C -1.28113 -0.0140676 -0.253816 0 CFG=2
M  V30 3 C -0.33158 -1.12337 -0.0137734 0 CFG=1
M  V30 4 C 1.05978 -0.7567 0.24438 0
M  V30 5 N 1.75092 0.374942 0.171237 0
M  V30 6 C 3.01531 0.167579 0.520658 0
M  V30 7 N 3.07279 -1.1537 0.814866 0
M  V30 8 O 1.92736 -1.68768 0.651459 0
M  V30 9 N 4.12622 1.02757 0.606542 0
M  V30 10 N -0.840307 -1.98346 1.03869 0
M  V30 11 O -1.53082 0.800215 0.820268 0
M  V30 12 C -1.44258 2.13083 0.508049 0
M  V30 13 H -2.67983 -1.69847 -0.126612 0
M  V30 14 H -3.4744 -0.103827 -0.176426 0
M  V30 15 H -2.70812 -0.830207 -1.67131 0
M  V30 16 H -1.03169 0.61838 -1.13244 0
M  V30 17 H -0.319506 -1.75644 -0.951206 0
M  V30 18 H 4.08295 1.95506 1.08778 0
M  V30 19 H 5.07158 0.785985 0.188789 0
M  V30 20 H -0.0302784 -2.30862 1.6035 0
M  V30 21 H -1.54381 -1.45276 1.60155 0
M  V30 22 H -2.16065 2.44837 -0.281124 0
M  V30 23 H -0.448591 2.43777 0.13255 0
M  V30 24 H -1.64559 2.79674 1.38273 0
M  V30 END ATOM
M  V30 BEGIN BOND
M  V30 1 1 1 2
M  V30 2 1 2 3
M  V30 3 1 3 4
M  V30 4 2 4 5
M  V30 5 1 5 6
M  V30 6 2 6 7
M  V30 7 1 7 8
M  V30 8 1 6 9
M  V30 9 1 3 10
M  V30 10 1 2 11
M  V30 11 1 11 12
M  V30 12 1 8 4
M  V30 13 1 1 13
M  V30 14 1 1 14
M  V30 15 1 1 15
M  V30 16 1 2 16 CFG=3
M  V30 17 1 3 17 CFG=3
M  V30 18 1 9 18
M  V30 19 1 9 19
M  V30 20 1 10 20
M  V30 21 1 10 21
M  V30 22 1 12 22
M  V30 23 1 12 23
M  V30 24 1 12 24
M  V30 END BOND
M  V30 END CTAB
M  END
