
     RDKit          3D

  0  0  0  0  0  0  0  0  0  0999 V3000
M  V30 BEGIN CTAB
M  V30 COUNTS 24 25 0 0 0
M  V30 BEGIN ATOM
M  V30 1 N -1.92484 -2.45753 -0.193266 0
M  V30 2 C -2.49624 -1.17892 -0.347211 0
M  V30 3 N -3.674 -0.917298 -0.833679 0
M  V30 4 N -3.92995 0.43254 -0.848577 0
M  V30 5 C -2.96711 1.14246 -0.385855 0
M  V30 6 N -2.83894 2.54728 -0.23358 0
M  V30 7 C -1.93104 0.122903 -0.0130104 0
M  V30 8 N -0.825202 0.449996 0.491487 0
M  V30 9 N 0.185319 -0.384942 0.875626 0
M  V30 10 C 1.52883 -0.17807 0.392582 0
M  V30 11 C 2.47463 0.384072 1.23939 0
M  V30 12 C 3.7611 0.581358 0.723328 0
M  V30 13 C 4.01963 0.215678 -0.571656 0
M  V30 14 N 3.07073 -0.326355 -1.35584 0
M  V30 15 C 1.80729 -0.537286 -0.899774 0
M  V30 16 H -2.54783 -3.29377 -0.407379 0
M  V30 17 H -0.960424 -2.69228 0.10448 0
M  V30 18 H -2.33457 3.0226 0.541955 0
M  V30 19 H -3.28601 3.15356 -0.953972 0
M  V30 20 H 0.0302712 -1.17135 1.52736 0
M  V30 21 H 2.24746 0.660314 2.25713 0
M  V30 22 H 4.49178 1.01218 1.37759 0
M  V30 23 H 5.04345 0.393985 -0.918147 0
M  V30 24 H 1.05568 -0.981118 -1.56899 0
M  V30 END ATOM
M  V30 BEGIN BOND
M  V30 1 1 1 2
M  V30 2 2 2 3
M  V30 3 1 3 4
M  V30 4 2 4 5
M  V30 5 1 5 6
M  V30 6 1 5 7
M  V30 7 2 7 8
M  V30 8 1 8 9
M  V30 9 1 9 10
M  V30 10 2 10 11
M  V30 11 1 11 12
M  V30 12 2 12 13
M  V30 13 1 13 14
M  V30 14 2 14 15
M  V30 15 1 7 2
M  V30 16 1 15 10
M  V30 17 1 1 16
M  V30 18 1 1 17
M  V30 19 1 6 18
M  V30 20 1 6 19
M  V30 21 1 9 20
M  V30 22 1 11 21
M  V30 23 1 12 22
M  V30 24 1 13 23
M  V30 25 1 15 24
M  V30 END BOND
M  V30 END CTAB
M  END
