
     RDKit          3D

  0  0  0  0  0  0  0  0  0  0999 V3000
M  V30 BEGIN CTAB
M  V30 COUNTS 21 21 0 0 0
M  V30 BEGIN ATOM
M  V30 1 C 3.8565 -0.216989 -0.298858 0
M  V30 2 C 2.48379 0.0335228 -0.765253 0
M  V30 3 O 1.98079 -0.650968 -1.70969 0
M  V30 4 N 1.70126 1.03332 -0.177173 0
M  V30 5 N 0.392094 1.33471 -0.559734 0
M  V30 6 C -0.556528 0.511834 -0.271871 0
M  V30 7 C -1.95171 0.780997 -0.651323 0
M  V30 8 N -2.43496 1.84523 -1.30967 0
M  V30 9 O -3.71782 1.70759 -1.44958 0
M  V30 10 N -4.12424 0.601683 -0.917429 0
M  V30 11 C -3.03403 -0.0282103 -0.393242 0
M  V30 12 N -3.01009 -1.27302 0.28627 0
M  V30 13 N -0.205249 -0.670427 0.428446 0
M  V30 14 H 4.57776 0.556162 -0.62396 0
M  V30 15 H 3.86333 -0.305479 0.802639 0
M  V30 16 H 4.19641 -1.17868 -0.7142 0
M  V30 17 H 2.09717 1.60377 0.597776 0
M  V30 18 H -3.16987 -1.29702 1.31369 0
M  V30 19 H -2.83858 -2.19182 -0.185899 0
M  V30 20 H 0.341721 -0.557647 1.30648 0
M  V30 21 H -0.447748 -1.63857 0.138997 0
M  V30 END ATOM
M  V30 BEGIN BOND
M  V30 1 1 1 2
M  V30 2 2 2 3
M  V30 3 1 2 4
M  V30 4 1 4 5
M  V30 5 2 5 6
M  V30 6 1 6 7
M  V30 7 2 7 8
M  V30 8 1 8 9
M  V30 9 1 9 10
M  V30 10 2 10 11
M  V30 11 1 11 12
M  V30 12 1 6 13
M  V30 13 1 11 7
M  V30 14 1 1 14
M  V30 15 1 1 15
M  V30 16 1 1 16
M  V30 17 1 4 17
M  V30 18 1 12 18
M  V30 19 1 12 19
M  V30 20 1 13 20
M  V30 21 1 13 21
M  V30 END BOND
M  V30 END CTAB
M  END
