
     RDKit          3D

  0  0  0  0  0  0  0  0  0  0999 V3000
M  V30 BEGIN CTAB
M  V30 COUNTS 49 50 0 0 0
M  V30 BEGIN ATOM
M  V30 1 O 0.777281 -0.780985 1.56693 0
M  V30 2 C 0.424754 -1.91939 1.23308 0
M  V30 3 N 1.13367 -3.10413 1.54981 0
M  V30 4 C 2.34934 -3.25235 2.25259 0
M  V30 5 C 3.61438 -2.8088 1.67122 0
M  V30 6 C 3.87256 -1.43968 1.26758 0
M  V30 7 C 3.74995 -1.00828 -0.0616783 0
M  V30 8 C 4.01404 0.284179 -0.449693 0
M  V30 9 C 4.4173 1.21455 0.484352 0
M  V30 10 C 4.55067 0.839987 1.79159 0
M  V30 11 C 4.28463 -0.453376 2.16986 0
M  V30 12 S 4.74255 2.85029 -0.057687 0
M  V30 13 O 5.78408 3.46156 0.83167 0
M  V30 14 O 5.16939 2.81324 -1.48281 0
M  V30 15 N 3.27746 3.73743 0.0558193 0
M  V30 16 C -0.850873 -2.0136 0.435869 0
M  V30 17 C -1.3863 -0.631705 0.246393 0
M  V30 18 C -2.6796 -0.68805 -0.557943 0
M  V30 19 O -3.1333 0.639473 -0.702561 0
M  V30 20 C -4.29583 0.882459 -1.39578 0
M  V30 21 C -4.98575 -0.175695 -1.93005 0
M  V30 22 C -6.15742 0.105189 -2.62506 0
M  V30 23 C -6.59133 1.39585 -2.7612 0
M  V30 24 C -5.9094 2.47045 -2.23018 0
M  V30 25 C -4.73791 2.17854 -1.53641 0
M  V30 26 N -4.03674 3.29249 -0.989484 0
M  V30 27 H 0.680026 -4.0304 1.20162 0
M  V30 28 H 2.16779 -2.76812 3.27817 0
M  V30 29 H 2.47694 -4.37242 2.47349 0
M  V30 30 H 3.84492 -3.52721 0.794863 0
M  V30 31 H 4.48456 -3.11547 2.37175 0
M  V30 32 H 3.43318 -1.75585 -0.770867 0
M  V30 33 H 3.90962 0.588024 -1.48874 0
M  V30 34 H 4.86559 1.5631 2.52592 0
M  V30 35 H 4.38272 -0.780009 3.20611 0
M  V30 36 H 2.57813 3.30215 0.693725 0
M  V30 37 H 2.81422 3.77788 -0.889051 0
M  V30 38 H -1.57712 -2.6382 1.00167 0
M  V30 39 H -0.645198 -2.44447 -0.562299 0
M  V30 40 H -1.54324 -0.134801 1.21852 0
M  V30 41 H -0.61426 -0.0468112 -0.304364 0
M  V30 42 H -2.54971 -1.20772 -1.50693 0
M  V30 43 H -3.39224 -1.28255 0.0800538 0
M  V30 44 H -4.6727 -1.20826 -1.84224 0
M  V30 45 H -6.72787 -0.711228 -3.06082 0
M  V30 46 H -7.51469 1.57463 -3.31328 0
M  V30 47 H -6.27888 3.46549 -2.35674 0
M  V30 48 H -3.36456 3.13157 -0.185129 0
M  V30 49 H -4.15483 4.24605 -1.34165 0
M  V30 END ATOM
M  V30 BEGIN BOND
M  V30 1 2 1 2
M  V30 2 1 2 3
M  V30 3 1 3 4
M  V30 4 1 4 5
M  V30 5 1 5 6
M  V30 6 2 6 7
M  V30 7 1 7 8
M  V30 8 2 8 9
M  V30 9 1 9 10
M  V30 10 2 10 11
M  V30 11 1 9 12
M  V30 12 2 12 13
M  V30 13 2 12 14
M  V30 14 1 12 15
M  V30 15 1 2 16
M  V30 16 1 16 17
M  V30 17 1 17 18
M  V30 18 1 18 19
M  V30 19 1 19 20
M  V30 20 2 20 21
M  V30 21 1 21 22
M  V30 22 2 22 23
M  V30 23 1 23 24
M  V30 24 2 24 25
M  V30 25 1 25 26
M  V30 26 1 11 6
M  V30 27 1 25 20
M  V30 28 1 3 27
M  V30 29 1 4 28
M  V30 30 1 4 29
M  V30 31 1 5 30
M  V30 32 1 5 31
M  V30 33 1 7 32
M  V30 34 1 8 33
M  V30 35 1 10 34
M  V30 36 1 11 35
M  V30 37 1 15 36
M  V30 38 1 15 37
M  V30 39 1 16 38
M  V30 40 1 16 39
M  V30 41 1 17 40
M  V30 42 1 17 41
M  V30 43 1 18 42
M  V30 44 1 18 43
M  V30 45 1 21 44
M  V30 46 1 22 45
M  V30 47 1 23 46
M  V30 48 1 24 47
M  V30 49 1 26 48
M  V30 50 1 26 49
M  V30 END BOND
M  V30 END CTAB
M  END
