
     RDKit          3D

  0  0  0  0  0  0  0  0  0  0999 V3000
M  V30 BEGIN CTAB
M  V30 COUNTS 55 57 0 0 0
M  V30 BEGIN ATOM
M  V30 1 C 8.68718 -0.466206 0.723967 0
M  V30 2 C 8.34438 0.984194 0.952943 0
M  V30 3 O 6.96675 1.13646 1.31781 0
M  V30 4 C 5.97954 0.709602 0.442396 0
M  V30 5 O 6.35118 0.201902 -0.645808 0
M  V30 6 C 4.55812 0.830585 0.742248 0
M  V30 7 C 3.52591 0.429025 -0.0781304 0
M  V30 8 N 3.69372 -0.170436 -1.35479 0
M  V30 9 N 2.35122 0.69332 0.51827 0
M  V30 10 N 2.63645 1.24305 1.6757 0
M  V30 11 N 3.9632 1.33745 1.83554 0
M  V30 12 C 1.07033 0.414286 -0.034583 0
M  V30 13 C 0.708129 -0.902519 -0.230207 0
M  V30 14 C -0.5458 -1.45094 -0.491773 0
M  V30 15 C -1.76137 -0.807863 -0.409017 0
M  V30 16 C -1.99113 0.64114 -0.497845 0
M  V30 17 C -1.02763 1.62505 -0.685717 0
M  V30 18 C 0.30757 1.52679 -0.323103 0
M  V30 19 C -3.32375 0.89002 -0.373444 0
M  V30 20 C -4.03175 2.14204 -0.393569 0
M  V30 21 O -5.28916 2.14501 -0.264165 0
M  V30 22 O -3.42769 3.34553 -0.54399 0
M  V30 23 C -4.15643 4.53648 -0.556073 0
M  V30 24 C -4.9347 4.78709 0.706466 0
M  V30 25 C -3.92091 -0.345896 -0.212743 0
M  V30 26 N -5.31517 -0.555966 -0.0467188 0
M  V30 27 C -2.9906 -1.37154 -0.232368 0
M  V30 28 C -3.28236 -2.78842 -0.0898975 0
M  V30 29 O -4.49093 -3.14534 0.0625241 0
M  V30 30 O -2.36144 -3.80198 -0.10297 0
M  V30 31 C -2.77553 -5.14219 0.0468346 0
M  V30 32 C -3.47129 -5.29694 1.37454 0
M  V30 33 H 8.67862 -0.694832 -0.360326 0
M  V30 34 H 7.8801 -1.08588 1.19403 0
M  V30 35 H 9.64878 -0.764508 1.15304 0
M  V30 36 H 8.97967 1.3512 1.77982 0
M  V30 37 H 8.59226 1.57656 0.0482046 0
M  V30 38 H 3.87125 -1.20879 -1.47965 0
M  V30 39 H 3.65363 0.368503 -2.25007 0
M  V30 40 H 1.51495 -1.59544 -0.170357 0
M  V30 41 H -0.616295 -2.46383 -0.790111 0
M  V30 42 H -1.38895 2.51923 -1.16013 0
M  V30 43 H 0.79951 2.4845 -0.266659 0
M  V30 44 H -3.42333 5.37035 -0.758741 0
M  V30 45 H -4.84488 4.51322 -1.43734 0
M  V30 46 H -5.96982 4.41407 0.674417 0
M  V30 47 H -4.35694 4.39591 1.56428 0
M  V30 48 H -5.00292 5.89861 0.824241 0
M  V30 49 H -5.97508 -0.522654 -0.846351 0
M  V30 50 H -5.70292 -0.749897 0.896076 0
M  V30 51 H -1.92812 -5.84854 -0.0738382 0
M  V30 52 H -3.54164 -5.32147 -0.747007 0
M  V30 53 H -4.55626 -5.33538 1.26342 0
M  V30 54 H -3.13004 -6.21725 1.89311 0
M  V30 55 H -3.22762 -4.45647 2.06286 0
M  V30 END ATOM
M  V30 BEGIN BOND
M  V30 1 1 1 2
M  V30 2 1 2 3
M  V30 3 1 3 4
M  V30 4 2 4 5
M  V30 5 1 4 6
M  V30 6 2 6 7
M  V30 7 1 7 8
M  V30 8 1 7 9
M  V30 9 1 9 10
M  V30 10 2 10 11
M  V30 11 1 9 12
M  V30 12 2 12 13
M  V30 13 1 13 14
M  V30 14 2 14 15
M  V30 15 1 15 16
M  V30 16 1 16 17
M  V30 17 2 17 18
M  V30 18 2 16 19
M  V30 19 1 19 20
M  V30 20 2 20 21
M  V30 21 1 20 22
M  V30 22 1 22 23
M  V30 23 1 23 24
M  V30 24 1 19 25
M  V30 25 1 25 26
M  V30 26 2 25 27
M  V30 27 1 27 28
M  V30 28 2 28 29
M  V30 29 1 28 30
M  V30 30 1 30 31
M  V30 31 1 31 32
M  V30 32 1 11 6
M  V30 33 1 18 12
M  V30 34 1 27 15
M  V30 35 1 1 33
M  V30 36 1 1 34
M  V30 37 1 1 35
M  V30 38 1 2 36
M  V30 39 1 2 37
M  V30 40 1 8 38
M  V30 41 1 8 39
M  V30 42 1 13 40
M  V30 43 1 14 41
M  V30 44 1 17 42
M  V30 45 1 18 43
M  V30 46 1 23 44
M  V30 47 1 23 45
M  V30 48 1 24 46
M  V30 49 1 24 47
M  V30 50 1 24 48
M  V30 51 1 26 49
M  V30 52 1 26 50
M  V30 53 1 31 51
M  V30 54 1 31 52
M  V30 55 1 32 53
M  V30 56 1 32 54
M  V30 57 1 32 55
M  V30 END BOND
M  V30 END CTAB
M  END
