
     RDKit          3D

  0  0  0  0  0  0  0  0  0  0999 V3000
M  V30 BEGIN CTAB
M  V30 COUNTS 44 46 0 0 0
M  V30 BEGIN ATOM
M  V30 1 F 4.6786 0.52554 -2.61298 0
M  V30 2 C 5.17858 -0.163237 -1.55472 0
M  V30 3 C 6.19877 -1.06464 -1.73129 0
M  V30 4 C 6.71216 -1.7674 -0.645499 0
M  V30 5 C 6.15895 -1.52215 0.589246 0
M  V30 6 C 5.13043 -0.610348 0.744738 0
M  V30 7 C 4.61886 0.0866089 -0.311225 0
M  V30 8 C 3.51544 1.05429 -0.199514 0
M  V30 9 N 3.20109 1.95403 -1.19414 0
M  V30 10 N 2.16607 2.66599 -0.82142 0
M  V30 11 C 1.77131 2.25314 0.421311 0
M  V30 12 N 2.62059 1.27325 0.760674 0
M  V30 13 N 2.59602 0.577212 1.99344 0
M  V30 14 S 0.441551 2.98341 1.35597 0
M  V30 15 C -1.13481 2.41194 0.727386 0
M  V30 16 C -1.47145 1.00043 0.932225 0
M  V30 17 O -0.763203 0.241622 1.59164 0
M  V30 18 C -2.68827 0.425749 0.338771 0
M  V30 19 C -2.98828 -0.911928 0.505172 0
M  V30 20 N -2.18719 -1.80944 1.26672 0
M  V30 21 N -4.09723 -1.47327 -0.0603686 0
M  V30 22 C -4.44198 -2.87245 0.0959517 0
M  V30 23 C -4.89754 -0.699248 -0.786159 0
M  V30 24 O -5.95145 -1.17667 -1.34317 0
M  V30 25 N -4.6592 0.596665 -0.97999 0
M  V30 26 C -3.54797 1.17249 -0.41515 0
M  V30 27 O -3.39034 2.41204 -0.638313 0
M  V30 28 C -5.54637 1.43135 -1.78782 0
M  V30 29 H 6.64681 -1.27222 -2.71263 0
M  V30 30 H 7.52672 -2.48561 -0.761776 0
M  V30 31 H 6.54316 -2.05396 1.44386 0
M  V30 32 H 4.76553 -0.469078 1.73592 0
M  V30 33 H 2.91793 1.11829 2.81279 0
M  V30 34 H 2.26945 -0.403974 2.0248 0
M  V30 35 H -1.18898 2.67174 -0.390622 0
M  V30 36 H -1.94627 2.9994 1.22307 0
M  V30 37 H -2.08168 -1.69278 2.28151 0
M  V30 38 H -1.73363 -2.58257 0.694124 0
M  V30 39 H -5.35296 -2.99614 0.736428 0
M  V30 40 H -3.59351 -3.46822 0.479797 0
M  V30 41 H -4.76218 -3.24213 -0.920083 0
M  V30 42 H -5.04992 1.4838 -2.79346 0
M  V30 43 H -6.52755 0.933635 -1.88879 0
M  V30 44 H -5.65606 2.46485 -1.37131 0
M  V30 END ATOM
M  V30 BEGIN BOND
M  V30 1 1 1 2
M  V30 2 2 2 3
M  V30 3 1 3 4
M  V30 4 2 4 5
M  V30 5 1 5 6
M  V30 6 2 6 7
M  V30 7 1 7 8
M  V30 8 2 8 9
M  V30 9 1 9 10
M  V30 10 2 10 11
M  V30 11 1 11 12
M  V30 12 1 12 13
M  V30 13 1 11 14
M  V30 14 1 14 15
M  V30 15 1 15 16
M  V30 16 2 16 17
M  V30 17 1 16 18
M  V30 18 2 18 19
M  V30 19 1 19 20
M  V30 20 1 19 21
M  V30 21 1 21 22
M  V30 22 1 21 23
M  V30 23 2 23 24
M  V30 24 1 23 25
M  V30 25 1 25 26
M  V30 26 2 26 27
M  V30 27 1 25 28
M  V30 28 1 7 2
M  V30 29 1 12 8
M  V30 30 1 26 18
M  V30 31 1 3 29
M  V30 32 1 4 30
M  V30 33 1 5 31
M  V30 34 1 6 32
M  V30 35 1 13 33
M  V30 36 1 13 34
M  V30 37 1 15 35
M  V30 38 1 15 36
M  V30 39 1 20 37
M  V30 40 1 20 38
M  V30 41 1 22 39
M  V30 42 1 22 40
M  V30 43 1 22 41
M  V30 44 1 28 42
M  V30 45 1 28 43
M  V30 46 1 28 44
M  V30 END BOND
M  V30 END CTAB
M  END
