
     RDKit          3D

  0  0  0  0  0  0  0  0  0  0999 V3000
M  V30 BEGIN CTAB
M  V30 COUNTS 32 32 0 0 0
M  V30 BEGIN ATOM
M  V30 1 N 2.77222 -1.53002 0.831976 0
M  V30 2 C 3.11045 -0.523258 -0.135385 0 CFG=1
M  V30 3 C 2.61196 -0.993959 -1.47839 0
M  V30 4 S 0.829776 -0.693439 -1.2599 0
M  V30 5 C 0.993542 0.696806 -0.120728 0 CFG=1
M  V30 6 C 0.104691 0.687683 1.05421 0
M  V30 7 C -1.34691 0.727447 0.822308 0
M  V30 8 C -1.97931 -0.373905 0.0351616 0
M  V30 9 C -3.49337 -0.0434418 0.0363764 0
M  V30 10 C -4.25054 -1.04374 -0.703747 0
M  V30 11 O -5.61941 -0.936535 -0.82438 0
M  V30 12 O -3.67206 -2.01265 -1.23974 0
M  V30 13 C 2.45632 0.746203 0.216389 0 CFG=2
M  V30 14 N 3.07481 1.92007 -0.330818 0
M  V30 15 H 1.8047 -1.77573 0.817462 0
M  V30 16 H 3.30603 -1.54541 1.67854 0
M  V30 17 H 4.20206 -0.368417 -0.187926 0
M  V30 18 H 2.84525 -2.06703 -1.57308 0
M  V30 19 H 2.94131 -0.377721 -2.31808 0
M  V30 20 H 0.765075 1.6118 -0.753747 0
M  V30 21 H 0.356365 1.63131 1.64328 0
M  V30 22 H 0.361919 -0.119284 1.79071 0
M  V30 23 H -1.66984 1.6906 0.347081 0
M  V30 24 H -1.85355 0.699583 1.83537 0
M  V30 25 H -1.70723 -0.328842 -1.05986 0
M  V30 26 H -1.77766 -1.38602 0.374668 0
M  V30 27 H -3.55492 0.98783 -0.388828 0
M  V30 28 H -3.75542 0.0438992 1.10841 0
M  V30 29 H -6.21192 -0.714659 -0.0399062 0
M  V30 30 H 2.50977 0.861306 1.34109 0
M  V30 31 H 2.40322 2.7172 -0.236463 0
M  V30 32 H 3.4427 1.81231 -1.28391 0
M  V30 END ATOM
M  V30 BEGIN BOND
M  V30 1 1 1 2
M  V30 2 1 2 3
M  V30 3 1 3 4
M  V30 4 1 4 5
M  V30 5 1 5 6
M  V30 6 1 6 7
M  V30 7 1 7 8
M  V30 8 1 8 9
M  V30 9 1 9 10
M  V30 10 1 10 11
M  V30 11 2 10 12
M  V30 12 1 5 13
M  V30 13 1 13 14
M  V30 14 1 13 2
M  V30 15 1 1 15
M  V30 16 1 1 16
M  V30 17 1 2 17 CFG=3
M  V30 18 1 3 18
M  V30 19 1 3 19
M  V30 20 1 5 20 CFG=3
M  V30 21 1 6 21
M  V30 22 1 6 22
M  V30 23 1 7 23
M  V30 24 1 7 24
M  V30 25 1 8 25
M  V30 26 1 8 26
M  V30 27 1 9 27
M  V30 28 1 9 28
M  V30 29 1 11 29
M  V30 30 1 13 30 CFG=1
M  V30 31 1 14 31
M  V30 32 1 14 32
M  V30 END BOND
M  V30 END CTAB
M  END
