
     RDKit          3D

  0  0  0  0  0  0  0  0  0  0999 V3000
M  V30 BEGIN CTAB
M  V30 COUNTS 43 46 0 0 0
M  V30 BEGIN ATOM
M  V30 1 C 4.83146 0.564985 -0.114556 0
M  V30 2 C 3.61774 -0.278283 0.042021 0
M  V30 3 C 2.37157 0.309704 -0.0670729 0
M  V30 4 C 1.24284 -0.464427 0.0759906 0
M  V30 5 C 0.00298301 0.116033 -0.0317271 0
M  V30 6 C -0.0962988 1.54959 -0.297637 0
M  V30 7 C 0.0132439 2.05172 -1.58452 0
M  V30 8 C -0.0875254 3.41018 -1.76783 0
M  V30 9 C -0.294226 4.27926 -0.703033 0
M  V30 10 C -0.401325 3.76988 0.569826 0
M  V30 11 C -0.300597 2.41807 0.748705 0
M  V30 12 C -1.154 -0.613892 0.103353 0
M  V30 13 C -2.36917 0.0248557 -0.015835 0
M  V30 14 C -3.51003 -0.738622 0.124866 0
M  V30 15 C -4.80565 -0.0179382 -0.0107982 0
M  V30 16 C -3.45507 -2.08772 0.374831 0
M  V30 17 N -4.67274 -2.81618 0.509266 0
M  V30 18 C -2.21884 -2.72863 0.494398 0
M  V30 19 C -1.06155 -1.99023 0.358325 0
M  V30 20 N 0.15732 -2.55656 0.46357 0
M  V30 21 C 1.28463 -1.83688 0.330398 0
M  V30 22 C 2.54568 -2.39842 0.434755 0
M  V30 23 C 3.68578 -1.63302 0.293084 0
M  V30 24 N 4.96969 -2.27648 0.412949 0
M  V30 25 H 4.60284 1.30029 -0.918065 0
M  V30 26 H 5.72659 -0.00672382 -0.393562 0
M  V30 27 H 4.96054 1.10378 0.851347 0
M  V30 28 H 2.23716 1.36605 -0.262492 0
M  V30 29 H 0.170951 1.39736 -2.40964 0
M  V30 30 H -0.0082816 3.84692 -2.76112 0
M  V30 31 H -0.375264 5.34454 -0.833876 0
M  V30 32 H -0.564993 4.44037 1.42885 0
M  V30 33 H -0.38549 2.0256 1.74966 0
M  V30 34 H -2.41091 1.08945 -0.213584 0
M  V30 35 H -4.83593 0.860172 0.65828 0
M  V30 36 H -4.87558 0.394265 -1.05971 0
M  V30 37 H -5.65272 -0.70891 0.111698 0
M  V30 38 H -4.77042 -3.73672 0.00985724 0
M  V30 39 H -5.48553 -2.50012 1.07364 0
M  V30 40 H -2.17472 -3.77358 0.688244 0
M  V30 41 H 2.65373 -3.46059 0.631305 0
M  V30 42 H 5.64889 -2.01388 1.16115 0
M  V30 43 H 5.24324 -3.02528 -0.255306 0
M  V30 END ATOM
M  V30 BEGIN BOND
M  V30 1 1 1 2
M  V30 2 2 2 3
M  V30 3 1 3 4
M  V30 4 2 4 5
M  V30 5 1 5 6
M  V30 6 2 6 7
M  V30 7 1 7 8
M  V30 8 2 8 9
M  V30 9 1 9 10
M  V30 10 2 10 11
M  V30 11 1 5 12
M  V30 12 2 12 13
M  V30 13 1 13 14
M  V30 14 1 14 15
M  V30 15 2 14 16
M  V30 16 1 16 17
M  V30 17 1 16 18
M  V30 18 2 18 19
M  V30 19 1 19 20
M  V30 20 2 20 21
M  V30 21 1 21 22
M  V30 22 2 22 23
M  V30 23 1 23 24
M  V30 24 1 23 2
M  V30 25 1 21 4
M  V30 26 1 11 6
M  V30 27 1 19 12
M  V30 28 1 1 25
M  V30 29 1 1 26
M  V30 30 1 1 27
M  V30 31 1 3 28
M  V30 32 1 7 29
M  V30 33 1 8 30
M  V30 34 1 9 31
M  V30 35 1 10 32
M  V30 36 1 11 33
M  V30 37 1 13 34
M  V30 38 1 15 35
M  V30 39 1 15 36
M  V30 40 1 15 37
M  V30 41 1 17 38
M  V30 42 1 17 39
M  V30 43 1 18 40
M  V30 44 1 22 41
M  V30 45 1 24 42
M  V30 46 1 24 43
M  V30 END BOND
M  V30 END CTAB
M  END
