
     RDKit          3D

  0  0  0  0  0  0  0  0  0  0999 V3000
M  V30 BEGIN CTAB
M  V30 COUNTS 52 55 0 0 0
M  V30 BEGIN ATOM
M  V30 1 N 7.54455 -0.316467 0.494054 0
M  V30 2 C 6.47956 -1.0002 -0.210781 0
M  V30 3 C 5.63998 -0.133644 -1.12175 0
M  V30 4 C 4.42947 -0.857749 -0.634252 0
M  V30 5 C 5.23893 -1.24814 0.617668 0
M  V30 6 C 3.27901 0.0019891 -0.267614 0
M  V30 7 C 1.98675 -0.520555 -0.320842 0
M  V30 8 C 0.898355 0.26225 -0.00174332 0
M  V30 9 N 1.11974 1.53019 0.358217 0
M  V30 10 C 2.35399 2.07873 0.424021 0
M  V30 11 N 3.4009 1.27464 0.101967 0
M  V30 12 N 2.57121 3.43506 0.809141 0
M  V30 13 N -0.40358 -0.317509 -0.0565745 0
M  V30 14 C -1.14583 -0.48718 -1.24545 0
M  V30 15 C -2.30675 0.370703 -1.53349 0
M  V30 16 N -3.38825 0.39763 -0.593959 0
M  V30 17 C -3.58692 1.31575 0.3821 0
M  V30 18 C -2.78945 2.53298 0.683562 0
M  V30 19 C -4.72607 0.997786 1.10975 0
M  V30 20 C -5.21664 -0.154042 0.535567 0
M  V30 21 C -4.39648 -0.520781 -0.508881 0
M  V30 22 C -4.72461 -1.65962 -1.21493 0
M  V30 23 C -5.8546 -2.40633 -0.870239 0
M  V30 24 C -6.66083 -2.02065 0.179359 0
M  V30 25 C -6.33174 -0.890188 0.877196 0
M  V30 26 C -0.947296 -0.718313 1.22362 0
M  V30 27 H 7.80966 -0.940306 1.29366 0
M  V30 28 H 7.23788 0.59051 0.871699 0
M  V30 29 H 6.87089 -1.92291 -0.686138 0
M  V30 30 H 5.92658 -0.294031 -2.18091 0
M  V30 31 H 5.67443 0.944537 -0.845051 0
M  V30 32 H 4.12644 -1.75827 -1.18884 0
M  V30 33 H 5.0946 -0.562809 1.46078 0
M  V30 34 H 5.07652 -2.32245 0.860767 0
M  V30 35 H 1.85616 -1.5427 -0.61291 0
M  V30 36 H 3.18488 3.59796 1.63897 0
M  V30 37 H 2.14299 4.22023 0.296134 0
M  V30 38 H -1.49674 -1.55935 -1.38229 0
M  V30 39 H -0.408461 -0.380063 -2.10195 0
M  V30 40 H -2.75031 0.0791258 -2.53707 0
M  V30 41 H -1.93343 1.4151 -1.7233 0
M  V30 42 H -1.77848 2.48854 0.239149 0
M  V30 43 H -2.77333 2.67409 1.77006 0
M  V30 44 H -3.32046 3.374 0.147874 0
M  V30 45 H -5.14066 1.55599 1.96169 0
M  V30 46 H -4.106 -1.98831 -2.0474 0
M  V30 47 H -6.09681 -3.29511 -1.43325 0
M  V30 48 H -7.54204 -2.60466 0.447946 0
M  V30 49 H -6.98022 -0.599904 1.70296 0
M  V30 50 H -1.11955 0.160938 1.90607 0
M  V30 51 H -1.87032 -1.30766 1.14655 0
M  V30 52 H -0.147604 -1.30467 1.77907 0
M  V30 END ATOM
M  V30 BEGIN BOND
M  V30 1 1 1 2
M  V30 2 1 2 3
M  V30 3 1 3 4
M  V30 4 1 4 5
M  V30 5 1 4 6
M  V30 6 2 6 7
M  V30 7 1 7 8
M  V30 8 2 8 9
M  V30 9 1 9 10
M  V30 10 2 10 11
M  V30 11 1 10 12
M  V30 12 1 8 13
M  V30 13 1 13 14
M  V30 14 1 14 15
M  V30 15 1 15 16
M  V30 16 1 16 17
M  V30 17 1 17 18
M  V30 18 2 17 19
M  V30 19 1 19 20
M  V30 20 2 20 21
M  V30 21 1 21 22
M  V30 22 2 22 23
M  V30 23 1 23 24
M  V30 24 2 24 25
M  V30 25 1 13 26
M  V30 26 1 5 2
M  V30 27 1 11 6
M  V30 28 1 21 16
M  V30 29 1 25 20
M  V30 30 1 1 27
M  V30 31 1 1 28
M  V30 32 1 2 29
M  V30 33 1 3 30
M  V30 34 1 3 31
M  V30 35 1 4 32
M  V30 36 1 5 33
M  V30 37 1 5 34
M  V30 38 1 7 35
M  V30 39 1 12 36
M  V30 40 1 12 37
M  V30 41 1 14 38
M  V30 42 1 14 39
M  V30 43 1 15 40
M  V30 44 1 15 41
M  V30 45 1 18 42
M  V30 46 1 18 43
M  V30 47 1 18 44
M  V30 48 1 19 45
M  V30 49 1 22 46
M  V30 50 1 23 47
M  V30 51 1 24 48
M  V30 52 1 25 49
M  V30 53 1 26 50
M  V30 54 1 26 51
M  V30 55 1 26 52
M  V30 END BOND
M  V30 END CTAB
M  END
