
     RDKit          3D

  0  0  0  0  0  0  0  0  0  0999 V3000
M  V30 BEGIN CTAB
M  V30 COUNTS 24 23 0 0 0
M  V30 BEGIN ATOM
M  V30 1 N -3.55424 -1.47998 0.824172 0
M  V30 2 C -4.02719 -0.3223 0.052789 0
M  V30 3 C -3.05306 0.802521 0.343099 0
M  V30 4 O -1.77816 0.355316 -0.0822704 0
M  V30 5 C -0.640648 1.10033 0.0182127 0
M  V30 6 O -0.69412 2.24549 0.508666 0
M  V30 7 C 0.649206 0.545504 -0.455095 0
M  V30 8 O 0.678353 -0.592519 -0.938052 0
M  V30 9 O 1.80789 1.26186 -0.370551 0
M  V30 10 C 3.09849 0.935328 -0.736721 0
M  V30 11 C 3.79565 -0.161863 -0.0238364 0
M  V30 12 N 3.24553 -1.46177 -0.0574399 0
M  V30 13 H -4.22459 -2.26006 0.699731 0
M  V30 14 H -2.6028 -1.75099 0.531258 0
M  V30 15 H -5.04806 -0.0738441 0.351967 0
M  V30 16 H -3.9308 -0.567799 -1.02517 0
M  V30 17 H -3.05942 1.06763 1.4247 0
M  V30 18 H -3.35306 1.69621 -0.279577 0
M  V30 19 H 3.72834 1.86697 -0.536856 0
M  V30 20 H 3.1893 0.781025 -1.8564 0
M  V30 21 H 4.84827 -0.18252 -0.455573 0
M  V30 22 H 3.95771 0.186693 1.04632 0
M  V30 23 H 3.47187 -2.01668 -0.888097 0
M  V30 24 H 3.49554 -1.97455 0.821831 0
M  V30 END ATOM
M  V30 BEGIN BOND
M  V30 1 1 1 2
M  V30 2 1 2 3
M  V30 3 1 3 4
M  V30 4 1 4 5
M  V30 5 2 5 6
M  V30 6 1 5 7
M  V30 7 2 7 8
M  V30 8 1 7 9
M  V30 9 1 9 10
M  V30 10 1 10 11
M  V30 11 1 11 12
M  V30 12 1 1 13
M  V30 13 1 1 14
M  V30 14 1 2 15
M  V30 15 1 2 16
M  V30 16 1 3 17
M  V30 17 1 3 18
M  V30 18 1 10 19
M  V30 19 1 10 20
M  V30 20 1 11 21
M  V30 21 1 11 22
M  V30 22 1 12 23
M  V30 23 1 12 24
M  V30 END BOND
M  V30 END CTAB
M  END
