
     RDKit          3D

  0  0  0  0  0  0  0  0  0  0999 V3000
M  V30 BEGIN CTAB
M  V30 COUNTS 31 32 0 0 0
M  V30 BEGIN ATOM
M  V30 1 Cl 7.0826 -0.08503 -0.0126253 0
M  V30 2 C 5.33658 -0.177574 0.1278 0
M  V30 3 C 4.56297 0.925156 -0.128123 0
M  V30 4 C 3.1771 0.866784 -0.0208729 0
M  V30 5 C 2.5729 -0.301513 0.343591 0
M  V30 6 C 3.36511 -1.41347 0.600948 0
M  V30 7 C 4.73704 -1.35959 0.495953 0
M  V30 8 C 1.11391 -0.450219 0.475639 0
M  V30 9 N 0.361503 0.438827 -0.343765 0
M  V30 10 C -1.0818 0.462833 -0.338448 0
M  V30 11 C -1.78519 1.33385 -1.14182 0
M  V30 12 C -3.16784 1.37528 -1.15402 0
M  V30 13 C -3.89086 0.525584 -0.343135 0
M  V30 14 C -3.20562 -0.366472 0.480326 0
M  V30 15 C -1.81366 -0.382162 0.468201 0
M  V30 16 N -3.96582 -1.23734 1.31181 0
M  V30 17 N -5.31805 0.574651 -0.361638 0
M  V30 18 H 5.03726 1.85332 -0.417443 0
M  V30 19 H 2.58239 1.74344 -0.221747 0
M  V30 20 H 2.88203 -2.35076 0.893385 0
M  V30 21 H 5.34476 -2.24328 0.701916 0
M  V30 22 H 0.864797 -1.49539 0.125724 0
M  V30 23 H 0.790977 -0.434683 1.53735 0
M  V30 24 H 0.843043 1.10445 -0.982278 0
M  V30 25 H -1.20955 1.99649 -1.77443 0
M  V30 26 H -3.72654 2.05592 -1.78163 0
M  V30 27 H -1.3167 -1.07939 1.11255 0
M  V30 28 H -4.45367 -2.03265 0.840946 0
M  V30 29 H -3.98883 -1.03186 2.32198 0
M  V30 30 H -5.86745 0.671203 -1.24118 0
M  V30 31 H -5.86338 0.513592 0.527785 0
M  V30 END ATOM
M  V30 BEGIN BOND
M  V30 1 1 1 2
M  V30 2 2 2 3
M  V30 3 1 3 4
M  V30 4 2 4 5
M  V30 5 1 5 6
M  V30 6 2 6 7
M  V30 7 1 5 8
M  V30 8 1 8 9
M  V30 9 1 9 10
M  V30 10 2 10 11
M  V30 11 1 11 12
M  V30 12 2 12 13
M  V30 13 1 13 14
M  V30 14 2 14 15
M  V30 15 1 14 16
M  V30 16 1 13 17
M  V30 17 1 7 2
M  V30 18 1 15 10
M  V30 19 1 3 18
M  V30 20 1 4 19
M  V30 21 1 6 20
M  V30 22 1 7 21
M  V30 23 1 8 22
M  V30 24 1 8 23
M  V30 25 1 9 24
M  V30 26 1 11 25
M  V30 27 1 12 26
M  V30 28 1 15 27
M  V30 29 1 16 28
M  V30 30 1 16 29
M  V30 31 1 17 30
M  V30 32 1 17 31
M  V30 END BOND
M  V30 END CTAB
M  END
