
     RDKit          3D

  0  0  0  0  0  0  0  0  0  0999 V3000
M  V30 BEGIN CTAB
M  V30 COUNTS 53 55 0 0 0
M  V30 BEGIN ATOM
M  V30 1 C 8.47706 -1.92184 -0.578467 0
M  V30 2 O 8.0823 -0.637438 -0.163493 0
M  V30 3 C 6.74632 -0.278186 -0.339326 0
M  V30 4 C 5.83141 -1.14176 -0.899396 0
M  V30 5 C 4.51911 -0.765589 -1.0631 0
M  V30 6 C 4.14897 0.49144 -0.653395 0
M  V30 7 C 5.05163 1.3592 -0.0946324 0
M  V30 8 C 6.37898 0.993929 0.0769087 0
M  V30 9 C 2.74568 0.9129 -0.821676 0
M  V30 10 C 1.93235 0.555007 0.40714 0
M  V30 11 N 0.550314 0.961007 0.249612 0
M  V30 12 C -0.00408606 2.12762 0.611837 0
M  V30 13 C 0.732236 3.24126 1.26976 0
M  V30 14 C -1.32762 2.14126 0.290843 0
M  V30 15 C -1.59043 0.89099 -0.308881 0
M  V30 16 C -0.41634 0.193787 -0.317751 0
M  V30 17 C -0.151385 -1.17549 -0.860154 0
M  V30 18 C -2.88897 0.484509 -0.794512 0
M  V30 19 O -3.865 1.31873 -0.797631 0
M  V30 20 C -3.15813 -0.865806 -1.29631 0
M  V30 21 S -4.88278 -1.01032 -1.90602 0
M  V30 22 C -6.02091 -0.84025 -0.512112 0
M  V30 23 N -7.34515 -0.908497 -0.696392 0
M  V30 24 C -8.22489 -0.788054 0.31405 0
M  V30 25 N -9.62899 -0.863969 0.093715 0
M  V30 26 N -7.77663 -0.590387 1.56878 0
M  V30 27 C -6.42939 -0.51707 1.78166 0
M  V30 28 N -5.57969 -0.643037 0.739989 0
M  V30 29 N -5.92028 -0.310577 3.08963 0
M  V30 30 H 8.14002 -2.06234 -1.63459 0
M  V30 31 H 8.02113 -2.70106 0.064405 0
M  V30 32 H 9.58495 -1.965 -0.58299 0
M  V30 33 H 6.14278 -2.1159 -1.21153 0
M  V30 34 H 3.78948 -1.45625 -1.51063 0
M  V30 35 H 4.74312 2.3514 0.224717 0
M  V30 36 H 7.06621 1.67967 0.512346 0
M  V30 37 H 2.68984 2.03576 -0.911382 0
M  V30 38 H 2.26408 0.452383 -1.71667 0
M  V30 39 H 2.05539 -0.508294 0.638671 0
M  V30 40 H 2.4022 1.10673 1.26095 0
M  V30 41 H 0.394239 3.41494 2.30584 0
M  V30 42 H 0.56854 4.21311 0.725193 0
M  V30 43 H 1.81219 3.0681 1.25902 0
M  V30 44 H -2.07194 2.9131 0.437277 0
M  V30 45 H -0.169927 -1.19377 -1.97327 0
M  V30 46 H 0.857547 -1.51241 -0.540686 0
M  V30 47 H -0.856464 -1.90159 -0.460385 0
M  V30 48 H -2.50484 -1.1976 -2.09754 0
M  V30 49 H -3.14054 -1.54762 -0.392669 0
M  V30 50 H -10.1703 0.0213007 0.0986706 0
M  V30 51 H -10.1115 -1.75549 -0.067001 0
M  V30 52 H -5.13524 0.332444 3.30649 0
M  V30 53 H -6.35672 -0.831372 3.87509 0
M  V30 END ATOM
M  V30 BEGIN BOND
M  V30 1 1 1 2
M  V30 2 1 2 3
M  V30 3 2 3 4
M  V30 4 1 4 5
M  V30 5 2 5 6
M  V30 6 1 6 7
M  V30 7 2 7 8
M  V30 8 1 6 9
M  V30 9 1 9 10
M  V30 10 1 10 11
M  V30 11 1 11 12
M  V30 12 1 12 13
M  V30 13 2 12 14
M  V30 14 1 14 15
M  V30 15 2 15 16
M  V30 16 1 16 17
M  V30 17 1 15 18
M  V30 18 2 18 19
M  V30 19 1 18 20
M  V30 20 1 20 21
M  V30 21 1 21 22
M  V30 22 2 22 23
M  V30 23 1 23 24
M  V30 24 1 24 25
M  V30 25 2 24 26
M  V30 26 1 26 27
M  V30 27 2 27 28
M  V30 28 1 27 29
M  V30 29 1 8 3
M  V30 30 1 16 11
M  V30 31 1 28 22
M  V30 32 1 1 30
M  V30 33 1 1 31
M  V30 34 1 1 32
M  V30 35 1 4 33
M  V30 36 1 5 34
M  V30 37 1 7 35
M  V30 38 1 8 36
M  V30 39 1 9 37
M  V30 40 1 9 38
M  V30 41 1 10 39
M  V30 42 1 10 40
M  V30 43 1 13 41
M  V30 44 1 13 42
M  V30 45 1 13 43
M  V30 46 1 14 44
M  V30 47 1 17 45
M  V30 48 1 17 46
M  V30 49 1 17 47
M  V30 50 1 20 48
M  V30 51 1 20 49
M  V30 52 1 25 50
M  V30 53 1 25 51
M  V30 54 1 29 52
M  V30 55 1 29 53
M  V30 END BOND
M  V30 END CTAB
M  END
