
     RDKit          3D

  0  0  0  0  0  0  0  0  0  0999 V3000
M  V30 BEGIN CTAB
M  V30 COUNTS 21 21 0 0 0
M  V30 BEGIN ATOM
M  V30 1 C -3.2085 0.0746544 -0.0658601 0
M  V30 2 C -1.76571 0.380859 -0.298902 0
M  V30 3 C -0.865078 -0.698002 0.292181 0
M  V30 4 N 0.513201 -0.376897 0.0530034 0
M  V30 5 N 1.18833 -0.761688 -1.01968 0
M  V30 6 C 2.45707 -0.296178 -0.94034 0
M  V30 7 N 2.50776 0.378797 0.219837 0
M  V30 8 C 1.32084 0.344124 0.852122 0
M  V30 9 N 0.959688 0.932483 2.10022 0
M  V30 10 N 3.48747 -0.504937 -1.91028 0
M  V30 11 H -3.81497 0.99149 -0.226821 0
M  V30 12 H -3.33822 -0.329671 0.958454 0
M  V30 13 H -3.50295 -0.732815 -0.774812 0
M  V30 14 H -1.50535 0.425819 -1.38297 0
M  V30 15 H -1.45242 1.33707 0.164054 0
M  V30 16 H -1.08231 -0.685093 1.39906 0
M  V30 17 H -1.18698 -1.65609 -0.120924 0
M  V30 18 H -0.00303768 1.29554 2.28492 0
M  V30 19 H 1.64159 1.02657 2.88513 0
M  V30 20 H 4.42773 -0.746538 -1.56754 0
M  V30 21 H 3.22184 -0.399493 -2.90085 0
M  V30 END ATOM
M  V30 BEGIN BOND
M  V30 1 1 1 2
M  V30 2 1 2 3
M  V30 3 1 3 4
M  V30 4 1 4 5
M  V30 5 2 5 6
M  V30 6 1 6 7
M  V30 7 2 7 8
M  V30 8 1 8 9
M  V30 9 1 6 10
M  V30 10 1 8 4
M  V30 11 1 1 11
M  V30 12 1 1 12
M  V30 13 1 1 13
M  V30 14 1 2 14
M  V30 15 1 2 15
M  V30 16 1 3 16
M  V30 17 1 3 17
M  V30 18 1 9 18
M  V30 19 1 9 19
M  V30 20 1 10 20
M  V30 21 1 10 21
M  V30 END BOND
M  V30 END CTAB
M  END
