
     RDKit          3D

  0  0  0  0  0  0  0  0  0  0999 V3000
M  V30 BEGIN CTAB
M  V30 COUNTS 37 37 0 0 0
M  V30 BEGIN ATOM
M  V30 1 C 5.83688 -1.72405 0.325762 0
M  V30 2 C 5.15099 -0.395788 0.106365 0
M  V30 3 C 3.6522 -0.59572 0.181071 0
M  V30 4 C 2.9467 0.720724 -0.0355121 0
M  V30 5 N 1.52362 0.613323 0.0207049 0
M  V30 6 C 0.691826 1.3005 0.927073 0
M  V30 7 O 1.22939 2.07173 1.75681 0
M  V30 8 C -0.7804 1.14445 0.932968 0
M  V30 9 S -1.34262 -0.0107392 -0.341184 0
M  V30 10 C -3.12333 -0.133355 -0.257443 0
M  V30 11 N -3.6986 -1.06491 0.54423 0
M  V30 12 C -5.04514 -1.1925 0.637728 0
M  V30 13 N -5.63683 -2.18668 1.49362 0
M  V30 14 C -5.86087 -0.362801 -0.093341 0
M  V30 15 C -5.27757 0.582963 -0.907245 0
M  V30 16 N -3.95035 0.657591 -0.955018 0
M  V30 17 N -6.13739 1.43233 -1.65573 0
M  V30 18 C 3.33678 1.22021 -1.4132 0
M  V30 19 H 6.65464 -1.89164 -0.416554 0
M  V30 20 H 6.20281 -1.75534 1.36929 0
M  V30 21 H 5.12569 -2.58496 0.20977 0
M  V30 22 H 5.49444 0.377578 0.824115 0
M  V30 23 H 5.42804 -0.00842978 -0.914418 0
M  V30 24 H 3.3758 -1.34803 -0.586228 0
M  V30 25 H 3.44164 -1.02612 1.18216 0
M  V30 26 H 3.31792 1.4266 0.738932 0
M  V30 27 H 1.05238 -0.0350806 -0.674537 0
M  V30 28 H -1.16207 0.759548 1.90823 0
M  V30 29 H -1.31109 2.1065 0.74767 0
M  V30 30 H -6.07862 -1.94627 2.3918 0
M  V30 31 H -5.57245 -3.17569 1.11112 0
M  V30 32 H -6.93467 -0.453706 -0.0281717 0
M  V30 33 H -5.75254 1.88213 -2.5383 0
M  V30 34 H -7.10749 1.64232 -1.40248 0
M  V30 35 H 2.49342 1.8069 -1.80893 0
M  V30 36 H 3.5457 0.318644 -2.06024 0
M  V30 37 H 4.27118 1.82777 -1.3209 0
M  V30 END ATOM
M  V30 BEGIN BOND
M  V30 1 1 1 2
M  V30 2 1 2 3
M  V30 3 1 3 4
M  V30 4 1 4 5
M  V30 5 1 5 6
M  V30 6 2 6 7
M  V30 7 1 6 8
M  V30 8 1 8 9
M  V30 9 1 9 10
M  V30 10 2 10 11
M  V30 11 1 11 12
M  V30 12 1 12 13
M  V30 13 2 12 14
M  V30 14 1 14 15
M  V30 15 2 15 16
M  V30 16 1 15 17
M  V30 17 1 4 18
M  V30 18 1 16 10
M  V30 19 1 1 19
M  V30 20 1 1 20
M  V30 21 1 1 21
M  V30 22 1 2 22
M  V30 23 1 2 23
M  V30 24 1 3 24
M  V30 25 1 3 25
M  V30 26 1 4 26
M  V30 27 1 5 27
M  V30 28 1 8 28
M  V30 29 1 8 29
M  V30 30 1 13 30
M  V30 31 1 13 31
M  V30 32 1 14 32
M  V30 33 1 17 33
M  V30 34 1 17 34
M  V30 35 1 18 35
M  V30 36 1 18 36
M  V30 37 1 18 37
M  V30 END BOND
M  V30 END CTAB
M  END
