
     RDKit          3D

  0  0  0  0  0  0  0  0  0  0999 V3000
M  V30 BEGIN CTAB
M  V30 COUNTS 31 32 0 0 0
M  V30 BEGIN ATOM
M  V30 1 N 6.04014 0.546249 0.136786 0
M  V30 2 C 4.72408 0.148439 -0.198113 0
M  V30 3 N 3.72492 0.653265 0.458726 0
M  V30 4 C 2.37949 0.2465 0.116264 0
M  V30 5 S 1.83039 -0.848397 -1.0725 0
M  V30 6 C 0.15296 -0.724844 -0.787314 0
M  V30 7 C 0.115097 0.184811 0.243262 0
M  V30 8 N 1.24858 0.648005 0.667899 0
M  V30 9 C -1.24719 0.578999 0.807546 0
M  V30 10 C -1.96126 1.2768 -0.301595 0
M  V30 11 C -3.46459 1.13463 -0.0355108 0
M  V30 12 C -3.76822 -0.314193 -0.354615 0
M  V30 13 C -3.00819 -1.21622 0.545717 0
M  V30 14 C -1.95606 -0.606127 1.36957 0
M  V30 15 N 4.49904 -0.792443 -1.24102 0
M  V30 16 H 6.49255 1.33111 -0.37257 0
M  V30 17 H 6.56844 0.0714783 0.882547 0
M  V30 18 H -0.680102 -1.23937 -1.29603 0
M  V30 19 H -1.10093 1.3113 1.6279 0
M  V30 20 H -1.73683 0.837294 -1.30806 0
M  V30 21 H -1.76143 2.37125 -0.338846 0
M  V30 22 H -4.05497 1.81658 -0.669829 0
M  V30 23 H -3.64083 1.33373 1.03268 0
M  V30 24 H -4.86865 -0.444167 -0.304157 0
M  V30 25 H -3.4686 -0.474456 -1.41059 0
M  V30 26 H -3.761 -1.71565 1.22639 0
M  V30 27 H -2.61152 -2.07445 -0.0732853 0
M  V30 28 H -2.34882 -0.408424 2.41105 0
M  V30 29 H -1.16382 -1.39522 1.54251 0
M  V30 30 H 4.38407 -0.415706 -2.20502 0
M  V30 31 H 4.44324 -1.82079 -1.09977 0
M  V30 END ATOM
M  V30 BEGIN BOND
M  V30 1 1 1 2
M  V30 2 2 2 3 CFG=2
M  V30 3 1 3 4
M  V30 4 1 4 5
M  V30 5 1 5 6
M  V30 6 2 6 7
M  V30 7 1 7 8
M  V30 8 1 7 9
M  V30 9 1 9 10
M  V30 10 1 10 11
M  V30 11 1 11 12
M  V30 12 1 12 13
M  V30 13 1 13 14
M  V30 14 1 2 15
M  V30 15 2 8 4
M  V30 16 1 14 9
M  V30 17 1 1 16
M  V30 18 1 1 17
M  V30 19 1 6 18
M  V30 20 1 9 19
M  V30 21 1 10 20
M  V30 22 1 10 21
M  V30 23 1 11 22
M  V30 24 1 11 23
M  V30 25 1 12 24
M  V30 26 1 12 25
M  V30 27 1 13 26
M  V30 28 1 13 27
M  V30 29 1 14 28
M  V30 30 1 14 29
M  V30 31 1 15 30
M  V30 32 1 15 31
M  V30 END BOND
M  V30 END CTAB
M  END
