
     RDKit          3D

  0  0  0  0  0  0  0  0  0  0999 V3000
M  V30 BEGIN CTAB
M  V30 COUNTS 61 64 0 0 0
M  V30 BEGIN ATOM
M  V30 1 O 8.23944 -0.122969 -2.25953 0
M  V30 2 C 7.43565 0.517964 -1.34162 0
M  V30 3 O 7.54111 1.75511 -1.23145 0
M  V30 4 C 6.48443 -0.229751 -0.518166 0
M  V30 5 C 5.62489 0.556325 0.393213 0
M  V30 6 C 4.70781 1.56979 -0.224494 0 CFG=1
M  V30 7 C 3.74869 0.982438 -1.16244 0
M  V30 8 O 4.23798 0.435962 -2.2154 0
M  V30 9 N 2.36429 0.957221 -1.02551 0
M  V30 10 C 1.55588 0.303637 -2.06688 0
M  V30 11 C 0.761555 -0.768149 -1.35074 0
M  V30 12 C -0.291077 -0.133154 -0.43042 0
M  V30 13 C 0.121485 1.32706 -0.281488 0
M  V30 14 C 1.57567 1.51186 0.0536027 0
M  V30 15 O -0.211031 -0.66985 0.829393 0
M  V30 16 C -0.550414 -1.99297 0.832222 0
M  V30 17 C -2.03865 -2.14373 0.617587 0 CFG=2
M  V30 18 C -2.63686 -1.09761 -0.256947 0 CFG=2
M  V30 19 C -1.66272 -0.260222 -1.01015 0
M  V30 20 N -3.64587 -0.298744 0.440054 0
M  V30 21 C -3.38624 0.645041 1.34782 0
M  V30 22 N -4.55098 1.15697 1.76626 0
M  V30 23 C -5.56522 0.559128 1.14312 0
M  V30 24 C -4.9819 -0.363549 0.303068 0
M  V30 25 N -5.79255 -1.14109 -0.478612 0
M  V30 26 C -7.12049 -0.963236 -0.38554 0
M  V30 27 N -7.69005 -0.062483 0.434579 0
M  V30 28 C -6.94375 0.735053 1.23153 0
M  V30 29 N -7.51862 1.69181 2.10421 0
M  V30 30 C -2.66759 -2.19841 1.99738 0
M  V30 31 O -2.21269 -3.42153 0.0666231 0
M  V30 32 N 4.05936 2.27852 0.89378 0
M  V30 33 H 8.36211 0.225851 -3.19179 0
M  V30 34 H 5.87425 -0.949306 -1.1382 0
M  V30 35 H 7.11265 -0.904941 0.134759 0
M  V30 36 H 6.21395 1.09607 1.17022 0
M  V30 37 H 4.97695 -0.148983 0.975172 0
M  V30 38 H 5.26401 2.35684 -0.821666 0
M  V30 39 H 2.26858 -0.229127 -2.7305 0
M  V30 40 H 0.874893 0.962595 -2.58465 0
M  V30 41 H 0.282947 -1.38227 -2.14069 0
M  V30 42 H 1.42134 -1.43265 -0.752598 0
M  V30 43 H -0.10835 1.93858 -1.17215 0
M  V30 44 H -0.455102 1.77791 0.586598 0
M  V30 45 H 1.83828 1.052 1.0309 0
M  V30 46 H 1.70784 2.61388 0.169853 0
M  V30 47 H -0.259167 -2.39315 1.85011 0
M  V30 48 H 0.0367151 -2.61077 0.123567 0
M  V30 49 H -3.23265 -1.65093 -1.05112 0
M  V30 50 H -1.52465 -0.654665 -2.06359 0
M  V30 51 H -2.03829 0.774086 -1.18473 0
M  V30 52 H -2.40689 0.980122 1.72077 0
M  V30 53 H -7.82148 -1.55634 -0.986748 0
M  V30 54 H -8.40132 1.48289 2.59546 0
M  V30 55 H -7.06638 2.6124 2.26402 0
M  V30 56 H -2.41627 -3.20163 2.41017 0
M  V30 57 H -3.79156 -2.18828 1.92872 0
M  V30 58 H -2.28013 -1.45305 2.68707 0
M  V30 59 H -2.17852 -3.37242 -0.939054 0
M  V30 60 H 4.7035 3.08122 1.16405 0
M  V30 61 H 4.05119 1.65559 1.73097 0
M  V30 END ATOM
M  V30 BEGIN BOND
M  V30 1 1 1 2
M  V30 2 2 2 3
M  V30 3 1 2 4
M  V30 4 1 4 5
M  V30 5 1 5 6
M  V30 6 1 6 7
M  V30 7 2 7 8
M  V30 8 1 7 9
M  V30 9 1 9 10
M  V30 10 1 10 11
M  V30 11 1 11 12
M  V30 12 1 12 13
M  V30 13 1 13 14
M  V30 14 1 12 15
M  V30 15 1 15 16
M  V30 16 1 16 17
M  V30 17 1 17 18
M  V30 18 1 18 19
M  V30 19 1 18 20
M  V30 20 1 20 21
M  V30 21 2 21 22
M  V30 22 1 22 23
M  V30 23 2 23 24
M  V30 24 1 24 25
M  V30 25 2 25 26
M  V30 26 1 26 27
M  V30 27 2 27 28
M  V30 28 1 28 29
M  V30 29 1 17 30
M  V30 30 1 17 31 CFG=3
M  V30 31 1 6 32
M  V30 32 1 14 9
M  V30 33 1 24 20
M  V30 34 1 19 12
M  V30 35 1 28 23
M  V30 36 1 1 33
M  V30 37 1 4 34
M  V30 38 1 4 35
M  V30 39 1 5 36
M  V30 40 1 5 37
M  V30 41 1 6 38 CFG=3
M  V30 42 1 10 39
M  V30 43 1 10 40
M  V30 44 1 11 41
M  V30 45 1 11 42
M  V30 46 1 13 43
M  V30 47 1 13 44
M  V30 48 1 14 45
M  V30 49 1 14 46
M  V30 50 1 16 47
M  V30 51 1 16 48
M  V30 52 1 18 49 CFG=3
M  V30 53 1 19 50
M  V30 54 1 19 51
M  V30 55 1 21 52
M  V30 56 1 26 53
M  V30 57 1 29 54
M  V30 58 1 29 55
M  V30 59 1 30 56
M  V30 60 1 30 57
M  V30 61 1 30 58
M  V30 62 1 31 59
M  V30 63 1 32 60
M  V30 64 1 32 61
M  V30 END BOND
M  V30 END CTAB
M  END
