
     RDKit          3D

  0  0  0  0  0  0  0  0  0  0999 V3000
M  V30 BEGIN CTAB
M  V30 COUNTS 47 49 0 0 0
M  V30 BEGIN ATOM
M  V30 1 C -3.40009 3.47455 -1.06826 0
M  V30 2 O -4.20339 2.36085 -0.773506 0
M  V30 3 C -3.61867 1.12029 -0.574497 0
M  V30 4 C -2.26217 0.997103 -0.668208 0
M  V30 5 C -1.67332 -0.220728 -0.474144 0
M  V30 6 N -0.268905 -0.420901 -0.556518 0
M  V30 7 C 0.555524 0.731357 -0.860834 0
M  V30 8 C 1.99732 0.345094 -0.908923 0
M  V30 9 C 2.72518 0.419428 0.267032 0
M  V30 10 C 4.06373 0.0872524 0.340072 0
M  V30 11 C 4.66804 -0.336805 -0.848472 0
M  V30 12 C 3.93769 -0.409216 -2.01875 0
M  V30 13 C 2.60378 -0.0711235 -2.06003 0
M  V30 14 N 5.97112 -0.659229 -0.773195 0
M  V30 15 C 6.71204 -0.602013 0.341606 0
M  V30 16 N 8.09755 -0.960294 0.352616 0
M  V30 17 N 6.09167 -0.185912 1.47604 0
M  V30 18 C 4.79415 0.158958 1.50725 0
M  V30 19 N 4.13223 0.595766 2.68589 0
M  V30 20 C -2.45683 -1.32172 -0.183702 0
M  V30 21 C -3.82758 -1.2358 -0.0812315 0
M  V30 22 O -4.63506 -2.33445 0.210837 0
M  V30 23 C -3.97824 -3.58121 0.404798 0
M  V30 24 C -4.40006 -0.00246935 -0.279852 0
M  V30 25 O -5.78191 0.170981 -0.194057 0
M  V30 26 C -6.37547 0.501162 1.05219 0
M  V30 27 H -3.96864 4.37979 -1.27862 0
M  V30 28 H -2.75793 3.18512 -1.93557 0
M  V30 29 H -2.70504 3.6221 -0.197596 0
M  V30 30 H -1.61001 1.8557 -0.898289 0
M  V30 31 H 0.18153 -1.34532 -0.409529 0
M  V30 32 H 0.281238 1.17518 -1.82876 0
M  V30 33 H 0.386514 1.45555 -0.0179363 0
M  V30 34 H 2.2442 0.752349 1.19252 0
M  V30 35 H 4.45228 -0.745954 -2.92225 0
M  V30 36 H 2.01692 -0.125229 -2.98219 0
M  V30 37 H 8.7307 -0.605326 -0.395651 0
M  V30 38 H 8.48691 -1.56306 1.08488 0
M  V30 39 H 3.46427 1.40335 2.70219 0
M  V30 40 H 4.27525 0.129541 3.62045 0
M  V30 41 H -2.00358 -2.29332 -0.0274372 0
M  V30 42 H -3.27347 -3.45051 1.23093 0
M  V30 43 H -3.36036 -3.73295 -0.525733 0
M  V30 44 H -4.69921 -4.40753 0.537826 0
M  V30 45 H -7.24695 -0.166448 1.2132 0
M  V30 46 H -6.71582 1.56548 1.06097 0
M  V30 47 H -5.64712 0.290604 1.87492 0
M  V30 END ATOM
M  V30 BEGIN BOND
M  V30 1 1 1 2
M  V30 2 1 2 3
M  V30 3 2 3 4
M  V30 4 1 4 5
M  V30 5 1 5 6
M  V30 6 1 6 7
M  V30 7 1 7 8
M  V30 8 2 8 9
M  V30 9 1 9 10
M  V30 10 2 10 11
M  V30 11 1 11 12
M  V30 12 2 12 13
M  V30 13 1 11 14
M  V30 14 2 14 15
M  V30 15 1 15 16
M  V30 16 1 15 17
M  V30 17 2 17 18
M  V30 18 1 18 19
M  V30 19 2 5 20
M  V30 20 1 20 21
M  V30 21 1 21 22
M  V30 22 1 22 23
M  V30 23 2 21 24
M  V30 24 1 24 25
M  V30 25 1 25 26
M  V30 26 1 24 3
M  V30 27 1 13 8
M  V30 28 1 18 10
M  V30 29 1 1 27
M  V30 30 1 1 28
M  V30 31 1 1 29
M  V30 32 1 4 30
M  V30 33 1 6 31
M  V30 34 1 7 32
M  V30 35 1 7 33
M  V30 36 1 9 34
M  V30 37 1 12 35
M  V30 38 1 13 36
M  V30 39 1 16 37
M  V30 40 1 16 38
M  V30 41 1 19 39
M  V30 42 1 19 40
M  V30 43 1 20 41
M  V30 44 1 23 42
M  V30 45 1 23 43
M  V30 46 1 23 44
M  V30 47 1 26 45
M  V30 48 1 26 46
M  V30 49 1 26 47
M  V30 END BOND
M  V30 END CTAB
M  END
