
     RDKit          3D

  0  0  0  0  0  0  0  0  0  0999 V3000
M  V30 BEGIN CTAB
M  V30 COUNTS 21 21 0 0 0
M  V30 BEGIN ATOM
M  V30 1 Cl -3.04909 -2.40851 -0.321845 0
M  V30 2 C -3.2515 -0.701902 -0.0435117 0
M  V30 3 C -2.09269 0.162202 0.0724405 0
M  V30 4 O -2.39854 1.42357 0.28124 0
M  V30 5 C -0.687178 -0.0863496 0.00465694 0
M  V30 6 C -0.108611 -1.31011 -0.203481 0
M  V30 7 C 1.2642 -1.44425 -0.252227 0
M  V30 8 C 2.13224 -0.396215 -0.100982 0
M  V30 9 C 1.56542 0.83556 0.108213 0
M  V30 10 C 0.208886 0.99281 0.160352 0
M  V30 11 N -0.305668 2.32553 0.384707 0
M  V30 12 I 2.84852 2.48501 0.347894 0
M  V30 13 N 3.54698 -0.59345 -0.1607 0
M  V30 14 H -3.90944 -0.329591 -0.916357 0
M  V30 15 H -3.92843 -0.515383 0.8717 0
M  V30 16 H -0.696163 -2.22203 -0.338405 0
M  V30 17 H 1.71266 -2.42936 -0.419435 0
M  V30 18 H -0.424976 2.93362 -0.450033 0
M  V30 19 H -0.551607 2.6834 1.31966 0
M  V30 20 H 4.21619 0.135393 -0.422996 0
M  V30 21 H 3.90881 -1.53993 0.0791102 0
M  V30 END ATOM
M  V30 BEGIN BOND
M  V30 1 1 1 2
M  V30 2 1 2 3
M  V30 3 2 3 4
M  V30 4 1 3 5
M  V30 5 2 5 6
M  V30 6 1 6 7
M  V30 7 2 7 8
M  V30 8 1 8 9
M  V30 9 2 9 10
M  V30 10 1 10 11
M  V30 11 1 9 12
M  V30 12 1 8 13
M  V30 13 1 10 5
M  V30 14 1 2 14
M  V30 15 1 2 15
M  V30 16 1 6 16
M  V30 17 1 7 17
M  V30 18 1 11 18
M  V30 19 1 11 19
M  V30 20 1 13 20
M  V30 21 1 13 21
M  V30 END BOND
M  V30 END CTAB
M  END
