
     RDKit          3D

  0  0  0  0  0  0  0  0  0  0999 V3000
M  V30 BEGIN CTAB
M  V30 COUNTS 69 73 0 0 0
M  V30 BEGIN ATOM
M  V30 1 C -8.55916 0.235621 -1.16748 0
M  V30 2 C -7.33951 0.667041 -1.9683 0
M  V30 3 C -7.54557 2.00217 -2.59451 0
M  V30 4 N -7.16324 -0.341494 -2.98594 0
M  V30 5 C -6.14549 0.630607 -1.02796 0
M  V30 6 C -4.94854 0.943247 -1.45678 0
M  V30 7 C -4.79279 1.33153 -2.87573 0
M  V30 8 N -4.64453 1.64021 -3.97901 0
M  V30 9 C -3.74833 0.927152 -0.696975 0
M  V30 10 O -2.68669 1.30805 -1.35861 0
M  V30 11 N -3.5523 0.559376 0.653284 0
M  V30 12 C -4.47533 0.101311 1.614 0
M  V30 13 C -3.69358 -0.22597 2.87256 0
M  V30 14 C -2.48897 0.680812 2.69919 0
M  V30 15 C -2.19181 0.620982 1.24766 0 CFG=1
M  V30 16 C -1.48542 -0.58447 0.749841 0
M  V30 17 N -0.122738 -0.757561 1.19986 0
M  V30 18 N 0.952723 -0.231331 0.598706 0
M  V30 19 C 2.08073 -0.560793 1.24103 0
M  V30 20 C 1.68777 -1.33686 2.30219 0
M  V30 21 C 2.33706 -1.99457 3.31897 0
M  V30 22 N 3.73829 -1.96659 3.43601 0
M  V30 23 N 1.67479 -2.72096 4.24872 0
M  V30 24 C 0.341266 -2.82115 4.20175 0
M  V30 25 N -0.309298 -2.18483 3.21224 0
M  V30 26 C 0.301801 -1.45539 2.2703 0
M  V30 27 C 3.43901 -0.173744 0.848236 0
M  V30 28 C 3.93095 -0.541086 -0.401269 0
M  V30 29 F 3.11597 -1.27701 -1.22923 0
M  V30 30 C 5.19524 -0.180287 -0.803624 0
M  V30 31 C 6.04588 0.553397 -0.0158318 0
M  V30 32 O 7.31523 0.925096 -0.386928 0
M  V30 33 C 7.99488 0.637792 -1.5232 0
M  V30 34 C 8.32513 -0.643833 -1.85481 0
M  V30 35 F 7.99209 -1.64877 -1.04059 0
M  V30 36 C 9.02418 -0.974169 -3.01332 0
M  V30 37 F 9.34001 -2.25566 -3.3199 0
M  V30 38 C 9.40953 0.0399374 -3.87849 0
M  V30 39 C 9.0806 1.33495 -3.55019 0
M  V30 40 C 8.38707 1.63869 -2.39782 0
M  V30 41 C 5.54814 0.918259 1.2297 0
M  V30 42 C 4.28283 0.567327 1.65251 0
M  V30 43 H -9.38402 0.101465 -1.85766 0
M  V30 44 H -8.76603 1.07411 -0.462987 0
M  V30 45 H -8.33479 -0.676085 -0.629357 0
M  V30 46 H -6.87481 2.78735 -2.23224 0
M  V30 47 H -7.6331 1.93495 -3.6985 0
M  V30 48 H -8.57776 2.35494 -2.2758 0
M  V30 49 H -7.19935 0.017581 -3.9584 0
M  V30 50 H -6.31531 -0.900483 -2.7813 0
M  V30 51 H -6.41988 0.336248 -0.0328234 0
M  V30 52 H -4.99522 -0.844691 1.29884 0
M  V30 53 H -5.21768 0.91937 1.85611 0
M  V30 54 H -3.3523 -1.28146 2.83691 0
M  V30 55 H -4.25277 -0.0406113 3.79782 0
M  V30 56 H -2.85199 1.72205 2.94237 0
M  V30 57 H -1.69702 0.463511 3.39553 0
M  V30 58 H -1.737 1.57026 0.905128 0
M  V30 59 H -2.06289 -1.53175 0.976505 0
M  V30 60 H -1.44868 -0.542119 -0.363378 0
M  V30 61 H 4.2875 -1.44937 4.13382 0
M  V30 62 H 4.28105 -2.5355 2.73565 0
M  V30 63 H -0.211273 -3.41028 4.95321 0
M  V30 64 H 5.49329 -0.506812 -1.81253 0
M  V30 65 H 9.95457 -0.139374 -4.79398 0
M  V30 66 H 9.39322 2.12234 -4.24958 0
M  V30 67 H 8.1459 2.66619 -2.16638 0
M  V30 68 H 6.18725 1.50135 1.88429 0
M  V30 69 H 3.94123 0.899795 2.6457 0
M  V30 END ATOM
M  V30 BEGIN BOND
M  V30 1 1 1 2
M  V30 2 1 2 3
M  V30 3 1 2 4
M  V30 4 1 2 5
M  V30 5 2 5 6 CFG=2
M  V30 6 1 6 7
M  V30 7 3 7 8
M  V30 8 1 6 9
M  V30 9 2 9 10
M  V30 10 1 9 11
M  V30 11 1 11 12
M  V30 12 1 12 13
M  V30 13 1 13 14
M  V30 14 1 14 15
M  V30 15 1 15 16
M  V30 16 1 16 17
M  V30 17 1 17 18
M  V30 18 2 18 19
M  V30 19 1 19 20
M  V30 20 2 20 21
M  V30 21 1 21 22
M  V30 22 1 21 23
M  V30 23 2 23 24
M  V30 24 1 24 25
M  V30 25 2 25 26
M  V30 26 1 19 27
M  V30 27 2 27 28
M  V30 28 1 28 29
M  V30 29 1 28 30
M  V30 30 2 30 31
M  V30 31 1 31 32
M  V30 32 1 32 33
M  V30 33 2 33 34
M  V30 34 1 34 35
M  V30 35 1 34 36
M  V30 36 1 36 37
M  V30 37 2 36 38
M  V30 38 1 38 39
M  V30 39 2 39 40
M  V30 40 1 31 41
M  V30 41 2 41 42
M  V30 42 1 15 11
M  V30 43 1 26 17
M  V30 44 1 42 27
M  V30 45 1 26 20
M  V30 46 1 40 33
M  V30 47 1 1 43
M  V30 48 1 1 44
M  V30 49 1 1 45
M  V30 50 1 3 46
M  V30 51 1 3 47
M  V30 52 1 3 48
M  V30 53 1 4 49
M  V30 54 1 4 50
M  V30 55 1 5 51
M  V30 56 1 12 52
M  V30 57 1 12 53
M  V30 58 1 13 54
M  V30 59 1 13 55
M  V30 60 1 14 56
M  V30 61 1 14 57
M  V30 62 1 15 58 CFG=3
M  V30 63 1 16 59
M  V30 64 1 16 60
M  V30 65 1 22 61
M  V30 66 1 22 62
M  V30 67 1 24 63
M  V30 68 1 30 64
M  V30 69 1 38 65
M  V30 70 1 39 66
M  V30 71 1 40 67
M  V30 72 1 41 68
M  V30 73 1 42 69
M  V30 END BOND
M  V30 END CTAB
M  END
