
     RDKit          3D

  0  0  0  0  0  0  0  0  0  0999 V3000
M  V30 BEGIN CTAB
M  V30 COUNTS 27 27 0 0 0
M  V30 BEGIN ATOM
M  V30 1 C 3.20481 0.00113363 0.821112 0
M  V30 2 C 2.13637 0.202139 -0.267256 0
M  V30 3 C 0.977448 -0.621845 0.131008 0
M  V30 4 N -0.177334 -0.59439 -0.733518 0
M  V30 5 C -1.03298 -1.69113 -0.233493 0
M  V30 6 C -2.45547 -1.14641 -0.376867 0
M  V30 7 C -2.19564 0.216146 0.273649 0 CFG=1
M  V30 8 C -0.958938 0.615726 -0.540523 0
M  V30 9 N -3.27622 1.127 0.165469 0
M  V30 10 N 1.93762 1.56544 -0.588645 0
M  V30 11 H 2.72112 -0.170184 1.8019 0
M  V30 12 H 3.82243 0.907047 0.959331 0
M  V30 13 H 3.81868 -0.90108 0.619986 0
M  V30 14 H 2.62512 -0.279924 -1.18012 0
M  V30 15 H 0.557707 -0.283943 1.13927 0
M  V30 16 H 1.22973 -1.68677 0.306533 0
M  V30 17 H -0.859453 -1.81272 0.855013 0
M  V30 18 H -0.889698 -2.61176 -0.830525 0
M  V30 19 H -3.16647 -1.75975 0.183171 0
M  V30 20 H -2.73777 -1.00566 -1.43415 0
M  V30 21 H -1.84628 0.016991 1.31378 0
M  V30 22 H -1.27184 1.00788 -1.53544 0
M  V30 23 H -0.438529 1.33422 0.0964784 0
M  V30 24 H -3.21028 1.64854 -0.732069 0
M  V30 25 H -3.2196 1.79395 0.977871 0
M  V30 26 H 2.16153 2.23087 0.202238 0
M  V30 27 H 2.54393 1.89849 -1.3942 0
M  V30 END ATOM
M  V30 BEGIN BOND
M  V30 1 1 1 2
M  V30 2 1 2 3
M  V30 3 1 3 4
M  V30 4 1 4 5
M  V30 5 1 5 6
M  V30 6 1 6 7
M  V30 7 1 7 8
M  V30 8 1 7 9
M  V30 9 1 2 10
M  V30 10 1 8 4
M  V30 11 1 1 11
M  V30 12 1 1 12
M  V30 13 1 1 13
M  V30 14 1 2 14
M  V30 15 1 3 15
M  V30 16 1 3 16
M  V30 17 1 5 17
M  V30 18 1 5 18
M  V30 19 1 6 19
M  V30 20 1 6 20
M  V30 21 1 7 21 CFG=1
M  V30 22 1 8 22
M  V30 23 1 8 23
M  V30 24 1 9 24
M  V30 25 1 9 25
M  V30 26 1 10 26
M  V30 27 1 10 27
M  V30 END BOND
M  V30 END CTAB
M  END
