
     RDKit          3D

  0  0  0  0  0  0  0  0  0  0999 V3000
M  V30 BEGIN CTAB
M  V30 COUNTS 20 20 0 0 0
M  V30 BEGIN ATOM
M  V30 1 F -3.56044 -1.62879 -0.806156 0
M  V30 2 C -2.90095 -0.941009 0.24394 0
M  V30 3 O -1.58288 -1.14746 0.273432 0
M  V30 4 C -0.426235 -0.473252 0.214653 0
M  V30 5 C 0.8038 -1.17958 0.293032 0
M  V30 6 C 2.01683 -0.560877 0.240133 0
M  V30 7 N 3.23037 -1.28989 0.320637 0
M  V30 8 C 2.006 0.807862 0.104573 0
M  V30 9 C 0.847234 1.53862 0.0242665 0
M  V30 10 C -0.368459 0.88203 0.0808985 0
M  V30 11 N -1.5129 1.7437 -0.0122385 0
M  V30 12 I 0.958778 3.63997 -0.183001 0
M  V30 13 F -3.4362 -1.50155 1.44033 0
M  V30 14 H -3.27412 0.0889895 0.139435 0
M  V30 15 H 0.705287 -2.24642 0.397957 0
M  V30 16 H 4.11259 -0.914744 -0.0512322 0
M  V30 17 H 3.23655 -2.2268 0.764797 0
M  V30 18 H 2.96261 1.31996 0.0604633 0
M  V30 19 H -2.04375 2.05365 0.839489 0
M  V30 20 H -1.77413 2.03559 -0.982807 0
M  V30 END ATOM
M  V30 BEGIN BOND
M  V30 1 1 1 2
M  V30 2 1 2 3
M  V30 3 1 3 4
M  V30 4 2 4 5
M  V30 5 1 5 6
M  V30 6 1 6 7
M  V30 7 2 6 8
M  V30 8 1 8 9
M  V30 9 2 9 10
M  V30 10 1 10 11
M  V30 11 1 9 12
M  V30 12 1 2 13
M  V30 13 1 10 4
M  V30 14 1 2 14
M  V30 15 1 5 15
M  V30 16 1 7 16
M  V30 17 1 7 17
M  V30 18 1 8 18
M  V30 19 1 11 19
M  V30 20 1 11 20
M  V30 END BOND
M  V30 END CTAB
M  END
