
     RDKit          3D

  0  0  0  0  0  0  0  0  0  0999 V3000
M  V30 BEGIN CTAB
M  V30 COUNTS 20 20 0 0 0
M  V30 BEGIN ATOM
M  V30 1 N -2.35255 0.541613 1.66002 0
M  V30 2 C -1.44574 0.1521 0.644822 0
M  V30 3 C -0.108908 0.0133188 0.959571 0
M  V30 4 C 0.801191 -0.364834 -0.00614182 0
M  V30 5 C 0.380198 -0.606385 -1.29184 0
M  V30 6 C -0.95684 -0.466455 -1.60193 0
M  V30 7 C -1.86723 -0.0905735 -0.645863 0
M  V30 8 O -3.19672 0.0400005 -0.989807 0
M  V30 9 S 2.50257 -0.549448 0.36113 0
M  V30 10 N 3.25826 0.986922 0.0867886 0
M  V30 11 O 3.16252 -1.54813 -0.554332 0
M  V30 12 O 2.60649 -0.962459 1.80408 0
M  V30 13 H -3.00079 1.33834 1.49731 0
M  V30 14 H -2.34102 -0.00134731 2.56939 0
M  V30 15 H 0.21321 0.210624 1.99529 0
M  V30 16 H 1.07496 -0.909883 -2.09068 0
M  V30 17 H -1.26265 -0.665348 -2.6332 0
M  V30 18 H -3.472 -0.142454 -1.93239 0
M  V30 19 H 3.15902 1.59479 0.932098 0
M  V30 20 H 2.84602 1.42961 -0.764314 0
M  V30 END ATOM
M  V30 BEGIN BOND
M  V30 1 1 1 2
M  V30 2 2 2 3
M  V30 3 1 3 4
M  V30 4 2 4 5
M  V30 5 1 5 6
M  V30 6 2 6 7
M  V30 7 1 7 8
M  V30 8 1 4 9
M  V30 9 1 9 10
M  V30 10 2 9 11
M  V30 11 2 9 12
M  V30 12 1 7 2
M  V30 13 1 1 13
M  V30 14 1 1 14
M  V30 15 1 3 15
M  V30 16 1 5 16
M  V30 17 1 6 17
M  V30 18 1 8 18
M  V30 19 1 10 19
M  V30 20 1 10 20
M  V30 END BOND
M  V30 END CTAB
M  END
