
     RDKit          3D

  0  0  0  0  0  0  0  0  0  0999 V3000
M  V30 BEGIN CTAB
M  V30 COUNTS 57 60 0 0 0
M  V30 BEGIN ATOM
M  V30 1 N 3.7324 -1.37425 -4.30281 0
M  V30 2 C 3.89445 -1.61663 -2.91188 0
M  V30 3 N 4.14633 -2.79289 -2.52372 0
M  V30 4 C 3.76488 -0.521593 -1.95706 0
M  V30 5 C 3.49351 0.759117 -2.42286 0
M  V30 6 C 3.35858 1.81431 -1.55048 0
M  V30 7 C 3.49337 1.60106 -0.203907 0
M  V30 8 C 3.75993 0.355745 0.295293 0
M  V30 9 O 3.90965 0.0518597 1.6391 0
M  V30 10 C 3.65643 0.991728 2.64709 0
M  V30 11 C 2.35494 1.46863 2.82573 0
M  V30 12 N 1.29391 0.943109 2.06025 0
M  V30 13 C 0.00210605 1.45843 1.95342 0
M  V30 14 O -0.431001 2.47506 2.51022 0
M  V30 15 C -0.994342 0.753156 1.09305 0
M  V30 16 C -0.983366 -0.612238 0.965864 0
M  V30 17 C -1.91726 -1.26268 0.151663 0
M  V30 18 C -2.87335 -0.510282 -0.53919 0
M  V30 19 C -2.84076 0.847939 -0.380947 0
M  V30 20 C -1.92707 1.49946 0.417816 0
M  V30 21 C -3.83045 -1.19124 -1.39821 0
M  V30 22 C -3.39078 -1.80965 -2.57395 0
M  V30 23 C -4.29542 -2.43869 -3.39025 0
M  V30 24 C -5.62742 -2.45593 -3.04523 0
M  V30 25 C -6.06181 -1.85266 -1.89549 0
M  V30 26 C -5.15529 -1.20586 -1.04838 0
M  V30 27 S -5.79244 -0.491621 0.407184 0
M  V30 28 N -4.97247 -1.13721 1.78476 0
M  V30 29 O -5.88105 0.98276 0.397935 0
M  V30 30 O -7.24802 -0.970648 0.564813 0
M  V30 31 C 2.15328 2.38988 3.82075 0
M  V30 32 C 3.17836 2.85827 4.64656 0
M  V30 33 F 2.94202 3.76868 5.61865 0
M  V30 34 C 4.43299 2.35661 4.42897 0
M  V30 35 C 4.67671 1.43427 3.44312 0
M  V30 36 C 3.89248 -0.696695 -0.607362 0
M  V30 37 H 4.51267 -1.00835 -4.86869 0
M  V30 38 H 2.82652 -1.56326 -4.75995 0
M  V30 39 H 4.25409 -3.62834 -3.09426 0
M  V30 40 H 3.38358 0.937753 -3.48392 0
M  V30 41 H 3.1478 2.826 -1.87632 0
M  V30 42 H 3.38985 2.43782 0.478937 0
M  V30 43 H 1.48903 0.0363454 1.52172 0
M  V30 44 H -0.228197 -1.17617 1.51557 0
M  V30 45 H -1.85633 -2.33111 0.0932626 0
M  V30 46 H -3.53771 1.50841 -0.921288 0
M  V30 47 H -1.93893 2.57494 0.515688 0
M  V30 48 H -2.33395 -1.76637 -2.79245 0
M  V30 49 H -3.93746 -2.92125 -4.313 0
M  V30 50 H -6.30489 -2.97076 -3.7322 0
M  V30 51 H -7.11435 -1.87733 -1.65006 0
M  V30 52 H -4.23407 -0.457706 2.10887 0
M  V30 53 H -5.67493 -1.32251 2.52346 0
M  V30 54 H 1.18081 2.80979 4.03942 0
M  V30 55 H 5.2738 2.69127 5.05034 0
M  V30 56 H 5.68295 1.03302 3.26815 0
M  V30 57 H 4.10568 -1.7015 -0.230664 0
M  V30 END ATOM
M  V30 BEGIN BOND
M  V30 1 1 1 2
M  V30 2 2 2 3 CFG=2
M  V30 3 1 2 4
M  V30 4 2 4 5
M  V30 5 1 5 6
M  V30 6 2 6 7
M  V30 7 1 7 8
M  V30 8 1 8 9
M  V30 9 1 9 10
M  V30 10 1 10 11
M  V30 11 1 11 12
M  V30 12 1 12 13
M  V30 13 2 13 14
M  V30 14 1 13 15
M  V30 15 2 15 16
M  V30 16 1 16 17
M  V30 17 2 17 18
M  V30 18 1 18 19
M  V30 19 2 19 20
M  V30 20 1 18 21
M  V30 21 2 21 22
M  V30 22 1 22 23
M  V30 23 2 23 24
M  V30 24 1 24 25
M  V30 25 2 25 26
M  V30 26 1 26 27
M  V30 27 1 27 28
M  V30 28 2 27 29
M  V30 29 2 27 30
M  V30 30 2 11 31
M  V30 31 1 31 32
M  V30 32 1 32 33
M  V30 33 2 32 34
M  V30 34 1 34 35
M  V30 35 2 8 36
M  V30 36 1 36 4
M  V30 37 2 35 10
M  V30 38 1 20 15
M  V30 39 1 26 21
M  V30 40 1 1 37
M  V30 41 1 1 38
M  V30 42 1 3 39
M  V30 43 1 5 40
M  V30 44 1 6 41
M  V30 45 1 7 42
M  V30 46 1 12 43
M  V30 47 1 16 44
M  V30 48 1 17 45
M  V30 49 1 19 46
M  V30 50 1 20 47
M  V30 51 1 22 48
M  V30 52 1 23 49
M  V30 53 1 24 50
M  V30 54 1 25 51
M  V30 55 1 28 52
M  V30 56 1 28 53
M  V30 57 1 31 54
M  V30 58 1 34 55
M  V30 59 1 35 56
M  V30 60 1 36 57
M  V30 END BOND
M  V30 END CTAB
M  END
