
     RDKit          3D

  0  0  0  0  0  0  0  0  0  0999 V3000
M  V30 BEGIN CTAB
M  V30 COUNTS 20 20 0 0 0
M  V30 BEGIN ATOM
M  V30 1 C -2.33213 1.55466 -0.396505 0
M  V30 2 N -1.07622 0.802652 -0.252622 0
M  V30 3 N 0.121514 1.15276 -0.653217 0
M  V30 4 C 1.04149 0.224472 -0.357611 0
M  V30 5 C 2.50425 0.209991 -0.62404 0
M  V30 6 O 2.85096 1.40381 -1.29051 0
M  V30 7 C 0.354015 -0.783226 0.278866 0
M  V30 8 N 0.933217 -1.98536 0.776245 0
M  V30 9 C -0.968046 -0.398443 0.332401 0
M  V30 10 N -1.98437 -1.19651 0.924784 0
M  V30 11 H -2.30097 2.51594 0.118327 0
M  V30 12 H -3.16458 0.96864 -0.0114714 0
M  V30 13 H -2.53931 1.71728 -1.49079 0
M  V30 14 H 3.10723 0.172101 0.298905 0
M  V30 15 H 2.77743 -0.622193 -1.31853 0
M  V30 16 H 3.04445 2.07427 -0.59083 0
M  V30 17 H 1.74862 -2.45973 0.326951 0
M  V30 18 H 0.543843 -2.43729 1.63106 0
M  V30 19 H -2.23925 -0.964783 1.91967 0
M  V30 20 H -2.42215 -1.94904 0.37891 0
M  V30 END ATOM
M  V30 BEGIN BOND
M  V30 1 1 1 2
M  V30 2 1 2 3
M  V30 3 2 3 4
M  V30 4 1 4 5
M  V30 5 1 5 6
M  V30 6 1 4 7
M  V30 7 1 7 8
M  V30 8 2 7 9
M  V30 9 1 9 10
M  V30 10 1 9 2
M  V30 11 1 1 11
M  V30 12 1 1 12
M  V30 13 1 1 13
M  V30 14 1 5 14
M  V30 15 1 5 15
M  V30 16 1 6 16
M  V30 17 1 8 17
M  V30 18 1 8 18
M  V30 19 1 10 19
M  V30 20 1 10 20
M  V30 END BOND
M  V30 END CTAB
M  END
