
     RDKit          3D

  0  0  0  0  0  0  0  0  0  0999 V3000
M  V30 BEGIN CTAB
M  V30 COUNTS 17 17 0 0 0
M  V30 BEGIN ATOM
M  V30 1 Cl 0.352999 4.06831 0.328257 0
M  V30 2 C 0.221988 2.31818 0.178931 0
M  V30 3 N 1.3662 1.63276 -0.00276377 0
M  V30 4 C 1.38054 0.287859 -0.129375 0
M  V30 5 N 2.60088 -0.418074 -0.320831 0
M  V30 6 C 0.163108 -0.359386 -0.0641285 0
M  V30 7 C -1.01364 0.346506 0.122824 0
M  V30 8 N -0.948428 1.68347 0.240496 0
M  V30 9 C -2.33762 -0.370725 0.192553 0
M  V30 10 F -3.17044 0.17182 -0.737069 0
M  V30 11 F -2.78733 -0.159496 1.50232 0
M  V30 12 N 0.110675 -1.7825 -0.191137 0
M  V30 13 H 2.98348 -0.643072 -1.26408 0
M  V30 14 H 3.10926 -0.708175 0.555088 0
M  V30 15 H -2.21618 -1.44572 0.0800189 0
M  V30 16 H -0.0405233 -2.39795 0.636997 0
M  V30 17 H 0.225043 -2.2238 -1.1281 0
M  V30 END ATOM
M  V30 BEGIN BOND
M  V30 1 1 1 2
M  V30 2 2 2 3
M  V30 3 1 3 4
M  V30 4 1 4 5
M  V30 5 2 4 6
M  V30 6 1 6 7
M  V30 7 2 7 8
M  V30 8 1 7 9
M  V30 9 1 9 10
M  V30 10 1 9 11
M  V30 11 1 6 12
M  V30 12 1 8 2
M  V30 13 1 5 13
M  V30 14 1 5 14
M  V30 15 1 9 15
M  V30 16 1 12 16
M  V30 17 1 12 17
M  V30 END BOND
M  V30 END CTAB
M  END
