
     RDKit          3D

  0  0  0  0  0  0  0  0  0  0999 V3000
M  V30 BEGIN CTAB
M  V30 COUNTS 30 30 0 0 0
M  V30 BEGIN ATOM
M  V30 1 C -3.1914 -0.737974 -0.803408 0
M  V30 2 C -2.2423 0.435668 -0.543262 0
M  V30 3 N -1.14642 -0.0263418 0.27637 0
M  V30 4 C 0.222604 0.0181396 -0.0831207 0
M  V30 5 C 0.651815 0.530451 -1.28307 0
M  V30 6 C 2.00413 0.553731 -1.59608 0
M  V30 7 C 2.93175 0.0664918 -0.713847 0
M  V30 8 C 2.48125 -0.445259 0.489087 0
M  V30 9 C 1.14401 -0.473209 0.80931 0
M  V30 10 N 3.37608 -0.968189 1.45519 0
M  V30 11 N 4.31465 0.0761977 -1.00301 0
M  V30 12 C -1.48784 -0.582886 1.58664 0
M  V30 13 C -2.97283 1.54804 0.182825 0
M  V30 14 H -3.65237 -1.10011 0.136779 0
M  V30 15 H -3.92645 -0.392691 -1.54578 0
M  V30 16 H -2.56373 -1.51502 -1.29585 0
M  V30 17 H -1.93605 0.78227 -1.53649 0
M  V30 18 H -0.0381227 0.92658 -2.01115 0
M  V30 19 H 2.28874 0.973934 -2.56723 0
M  V30 20 H 0.835705 -0.891079 1.77982 0
M  V30 21 H 3.47403 -0.477123 2.35302 0
M  V30 22 H 3.90248 -1.8231 1.2329 0
M  V30 23 H 4.68395 0.351322 -1.93332 0
M  V30 24 H 5.01394 -0.196954 -0.278946 0
M  V30 25 H -0.939887 -0.0783525 2.39845 0
M  V30 26 H -2.5679 -0.484709 1.81211 0
M  V30 27 H -1.21991 -1.66226 1.6526 0
M  V30 28 H -2.40738 1.8354 1.08648 0
M  V30 29 H -3.00769 2.47888 -0.453878 0
M  V30 30 H -4.02486 1.27815 0.396868 0
M  V30 END ATOM
M  V30 BEGIN BOND
M  V30 1 1 1 2
M  V30 2 1 2 3
M  V30 3 1 3 4
M  V30 4 2 4 5
M  V30 5 1 5 6
M  V30 6 2 6 7
M  V30 7 1 7 8
M  V30 8 2 8 9
M  V30 9 1 8 10
M  V30 10 1 7 11
M  V30 11 1 3 12
M  V30 12 1 2 13
M  V30 13 1 9 4
M  V30 14 1 1 14
M  V30 15 1 1 15
M  V30 16 1 1 16
M  V30 17 1 2 17
M  V30 18 1 5 18
M  V30 19 1 6 19
M  V30 20 1 9 20
M  V30 21 1 10 21
M  V30 22 1 10 22
M  V30 23 1 11 23
M  V30 24 1 11 24
M  V30 25 1 12 25
M  V30 26 1 12 26
M  V30 27 1 12 27
M  V30 28 1 13 28
M  V30 29 1 13 29
M  V30 30 1 13 30
M  V30 END BOND
M  V30 END CTAB
M  END
