
     RDKit          3D

  0  0  0  0  0  0  0  0  0  0999 V3000
M  V30 BEGIN CTAB
M  V30 COUNTS 36 37 0 0 0
M  V30 BEGIN ATOM
M  V30 1 N -2.27381 3.73309 0.0194895 0
M  V30 2 C -2.10481 2.3335 -0.051014 0
M  V30 3 C -0.805868 1.85321 -0.0282917 0
M  V30 4 C -0.579891 0.482197 -0.0950696 0
M  V30 5 O 0.694001 -0.0688497 -0.0771853 0
M  V30 6 C 1.78237 0.828469 0.01325 0
M  V30 7 C 3.08682 0.115198 0.0233794 0
M  V30 8 C 3.65709 -0.286068 1.21306 0
M  V30 9 C 4.88185 -0.95545 1.21892 0
M  V30 10 C 5.55622 -1.23553 0.0498348 0
M  V30 11 C 4.98484 -0.833577 -1.14098 0
M  V30 12 C 3.75778 -0.163303 -1.14207 0
M  V30 13 C -1.65301 -0.396591 -0.183918 0
M  V30 14 C -2.95123 0.0669446 -0.207533 0
M  V30 15 C -3.14561 1.43151 -0.139917 0
M  V30 16 S -4.26828 -1.04134 -0.318219 0
M  V30 17 O -4.28819 -1.81151 -1.6035 0
M  V30 18 O -5.55328 -0.264313 -0.250483 0
M  V30 19 N -4.29613 -2.15201 1.02109 0
M  V30 20 C -1.42466 -1.84823 -0.255027 0
M  V30 21 H -2.25812 4.2325 0.922081 0
M  V30 22 H -2.4159 4.26425 -0.853834 0
M  V30 23 H 0.05121 2.52958 0.0412709 0
M  V30 24 H 1.77385 1.55252 -0.83721 0
M  V30 25 H 1.65444 1.45352 0.938797 0
M  V30 26 H 3.16316 -0.0868711 2.1483 0
M  V30 27 H 5.32829 -1.27001 2.15585 0
M  V30 28 H 6.51731 -1.761 0.0569495 0
M  V30 29 H 5.5123 -1.05286 -2.0525 0
M  V30 30 H 3.31811 0.148044 -2.0855 0
M  V30 31 H -4.15531 1.86407 -0.154326 0
M  V30 32 H -4.96653 -1.83287 1.75678 0
M  V30 33 H -4.6463 -3.06504 0.670821 0
M  V30 34 H -1.66987 -2.34481 0.727674 0
M  V30 35 H -0.328891 -2.07547 -0.398866 0
M  V30 36 H -1.93395 -2.3429 -1.10211 0
M  V30 END ATOM
M  V30 BEGIN BOND
M  V30 1 1 1 2
M  V30 2 2 2 3
M  V30 3 1 3 4
M  V30 4 1 4 5
M  V30 5 1 5 6
M  V30 6 1 6 7
M  V30 7 2 7 8
M  V30 8 1 8 9
M  V30 9 2 9 10
M  V30 10 1 10 11
M  V30 11 2 11 12
M  V30 12 2 4 13
M  V30 13 1 13 14
M  V30 14 2 14 15
M  V30 15 1 14 16
M  V30 16 2 16 17
M  V30 17 2 16 18
M  V30 18 1 16 19
M  V30 19 1 13 20
M  V30 20 1 15 2
M  V30 21 1 12 7
M  V30 22 1 1 21
M  V30 23 1 1 22
M  V30 24 1 3 23
M  V30 25 1 6 24
M  V30 26 1 6 25
M  V30 27 1 8 26
M  V30 28 1 9 27
M  V30 29 1 10 28
M  V30 30 1 11 29
M  V30 31 1 12 30
M  V30 32 1 15 31
M  V30 33 1 19 32
M  V30 34 1 19 33
M  V30 35 1 20 34
M  V30 36 1 20 35
M  V30 37 1 20 36
M  V30 END BOND
M  V30 END CTAB
M  END
