
     RDKit          3D

  0  0  0  0  0  0  0  0  0  0999 V3000
M  V30 BEGIN CTAB
M  V30 COUNTS 48 49 0 0 0
M  V30 BEGIN ATOM
M  V30 1 N 6.9784 2.09634 0.163666 0
M  V30 2 C 6.13037 1.89225 -0.977436 0
M  V30 3 C 4.70887 1.81125 -0.511272 0
M  V30 4 C 3.96856 2.9586 -0.457275 0
M  V30 5 C 2.64893 2.85287 -0.0206933 0
M  V30 6 C 2.10341 1.63457 0.346324 0
M  V30 7 C 2.84768 0.498913 0.289393 0
M  V30 8 C 4.16421 0.595451 -0.145061 0
M  V30 9 C 2.31845 -0.842033 0.671587 0
M  V30 10 N 1.56013 -1.45362 -0.429014 0
M  V30 11 C 1.11673 -2.76669 -0.384558 0
M  V30 12 C -0.188479 -3.09491 -0.254511 0
M  V30 13 C -1.19092 -2.08416 -0.154044 0
M  V30 14 O -0.651403 -0.86152 -0.142067 0
M  V30 15 N -2.56594 -2.04379 -0.0648427 0
M  V30 16 C -3.13657 -0.692945 0.137865 0
M  V30 17 C -3.77113 -0.0638408 -0.904187 0
M  V30 18 C -4.34692 1.19064 -0.742398 0
M  V30 19 C -4.29748 1.84855 0.48346 0
M  V30 20 C -3.6543 1.20086 1.51987 0
M  V30 21 C -3.08088 -0.055486 1.34715 0
M  V30 22 N -4.91985 3.12634 0.605612 0
M  V30 23 C -3.51119 -3.03699 -0.173147 0
M  V30 24 O -3.3158 -4.22979 -0.373455 0
M  V30 25 C -4.98044 -2.66978 -0.0399939 0
M  V30 26 C -0.361036 -4.53159 -0.193057 0
M  V30 27 N -0.460608 -5.70723 -0.128078 0
M  V30 28 H 6.53061 1.83837 1.04538 0
M  V30 29 H 7.47922 2.98375 0.210917 0
M  V30 30 H 6.40286 0.877463 -1.40214 0
M  V30 31 H 6.2459 2.68319 -1.71711 0
M  V30 32 H 4.40175 3.92782 -0.748833 0
M  V30 33 H 2.0848 3.7896 0.00925865 0
M  V30 34 H 1.07854 1.63442 0.672143 0
M  V30 35 H 4.77985 -0.306925 -0.199517 0
M  V30 36 H 3.182 -1.51595 0.877492 0
M  V30 37 H 1.64731 -0.817482 1.54434 0
M  V30 38 H 1.40643 -0.806737 -1.25993 0
M  V30 39 H 1.8884 -3.56129 -0.460703 0
M  V30 40 H -3.82465 -0.547798 -1.87079 0
M  V30 41 H -4.85235 1.6885 -1.56863 0
M  V30 42 H -3.5954 1.68391 2.491 0
M  V30 43 H -2.57302 -0.573485 2.16446 0
M  V30 44 H -4.42949 4.00955 0.816203 0
M  V30 45 H -5.97102 3.18567 0.471179 0
M  V30 46 H -5.55722 -3.57556 0.210664 0
M  V30 47 H -5.079 -1.87316 0.72448 0
M  V30 48 H -5.35833 -2.29611 -0.999836 0
M  V30 END ATOM
M  V30 BEGIN BOND
M  V30 1 1 1 2
M  V30 2 1 2 3
M  V30 3 2 3 4
M  V30 4 1 4 5
M  V30 5 2 5 6
M  V30 6 1 6 7
M  V30 7 2 7 8
M  V30 8 1 7 9
M  V30 9 1 9 10
M  V30 10 1 10 11
M  V30 11 2 11 12
M  V30 12 1 12 13
M  V30 13 2 13 14
M  V30 14 1 13 15
M  V30 15 1 15 16
M  V30 16 2 16 17
M  V30 17 1 17 18
M  V30 18 2 18 19
M  V30 19 1 19 20
M  V30 20 2 20 21
M  V30 21 1 19 22
M  V30 22 1 15 23
M  V30 23 2 23 24
M  V30 24 1 23 25
M  V30 25 1 12 26
M  V30 26 3 26 27
M  V30 27 1 8 3
M  V30 28 1 21 16
M  V30 29 1 1 28
M  V30 30 1 1 29
M  V30 31 1 2 30
M  V30 32 1 2 31
M  V30 33 1 4 32
M  V30 34 1 5 33
M  V30 35 1 6 34
M  V30 36 1 8 35
M  V30 37 1 9 36
M  V30 38 1 9 37
M  V30 39 1 10 38
M  V30 40 1 11 39
M  V30 41 1 17 40
M  V30 42 1 18 41
M  V30 43 1 20 42
M  V30 44 1 21 43
M  V30 45 1 22 44
M  V30 46 1 22 45
M  V30 47 1 25 46
M  V30 48 1 25 47
M  V30 49 1 25 48
M  V30 END BOND
M  V30 END CTAB
M  END
