
     RDKit          3D

  0  0  0  0  0  0  0  0  0  0999 V3000
M  V30 BEGIN CTAB
M  V30 COUNTS 34 36 0 0 0
M  V30 BEGIN ATOM
M  V30 1 N 3.13759 2.57885 -0.238936 0
M  V30 2 C 3.10578 1.16308 -0.225806 0
M  V30 3 N 2.22629 0.468482 -0.967712 0
M  V30 4 C 2.15212 -0.863865 -0.998017 0
M  V30 5 C 1.1042 -1.57792 -1.80544 0
M  V30 6 S -0.217123 -2.17983 -0.782134 0
M  V30 7 C -1.12596 -0.9328 0.0894517 0
M  V30 8 N -0.765612 -0.530898 1.32463 0
M  V30 9 C -1.50824 0.392114 1.95795 0
M  V30 10 N -2.60738 0.923117 1.3718 0
M  V30 11 C -2.99377 0.548982 0.14552 0
M  V30 12 C -2.25036 -0.400139 -0.532635 0
M  V30 13 C -2.63194 -0.80437 -1.79368 0
M  V30 14 C -3.74726 -0.28633 -2.40563 0
M  V30 15 C -4.50376 0.66153 -1.74285 0
M  V30 16 C -4.10842 1.06249 -0.472944 0
M  V30 17 C -1.08934 0.78407 3.35164 0
M  V30 18 F -2.19064 0.780635 4.16343 0
M  V30 19 F -0.511926 2.02319 3.27378 0
M  V30 20 F -0.20238 -0.141077 3.87128 0
M  V30 21 N 3.03581 -1.56438 -0.219604 0
M  V30 22 C 3.94091 -0.925625 0.548625 0
M  V30 23 N 3.96623 0.424757 0.535595 0
M  V30 24 N 4.85508 -1.57971 1.40677 0
M  V30 25 H 3.15805 3.10119 0.65191 0
M  V30 26 H 3.14334 3.09468 -1.13705 0
M  V30 27 H 1.59703 -2.40084 -2.38902 0
M  V30 28 H 0.721681 -0.878616 -2.57458 0
M  V30 29 H -1.99153 -1.53923 -2.27557 0
M  V30 30 H -3.99585 -0.648093 -3.40614 0
M  V30 31 H -5.38926 1.07725 -2.24139 0
M  V30 32 H -4.70296 1.80775 0.0533549 0
M  V30 33 H 5.56806 -2.23264 1.03258 0
M  V30 34 H 4.82155 -1.40579 2.43083 0
M  V30 END ATOM
M  V30 BEGIN BOND
M  V30 1 1 1 2
M  V30 2 2 2 3
M  V30 3 1 3 4
M  V30 4 1 4 5
M  V30 5 1 5 6
M  V30 6 1 6 7
M  V30 7 2 7 8
M  V30 8 1 8 9
M  V30 9 2 9 10
M  V30 10 1 10 11
M  V30 11 2 11 12
M  V30 12 1 12 13
M  V30 13 2 13 14
M  V30 14 1 14 15
M  V30 15 2 15 16
M  V30 16 1 9 17
M  V30 17 1 17 18
M  V30 18 1 17 19
M  V30 19 1 17 20
M  V30 20 2 4 21
M  V30 21 1 21 22
M  V30 22 2 22 23
M  V30 23 1 22 24
M  V30 24 1 23 2
M  V30 25 1 12 7
M  V30 26 1 16 11
M  V30 27 1 1 25
M  V30 28 1 1 26
M  V30 29 1 5 27
M  V30 30 1 5 28
M  V30 31 1 13 29
M  V30 32 1 14 30
M  V30 33 1 15 31
M  V30 34 1 16 32
M  V30 35 1 24 33
M  V30 36 1 24 34
M  V30 END BOND
M  V30 END CTAB
M  END
