
     RDKit          3D

  0  0  0  0  0  0  0  0  0  0999 V3000
M  V30 BEGIN CTAB
M  V30 COUNTS 22 23 0 0 0
M  V30 BEGIN ATOM
M  V30 1 N -4.33848 1.15761 -0.0553871 0
M  V30 2 C -3.18962 0.318102 -0.0494163 0
M  V30 3 N -3.14697 -1.02947 -0.136834 0
M  V30 4 N -1.88232 -1.43689 -0.0958679 0
M  V30 5 C -1.09019 -0.366544 0.0180402 0
M  V30 6 N -1.88807 0.711145 0.046828 0
M  V30 7 C 0.382464 -0.434795 0.0927836 0
M  V30 8 C 1.00002 -1.65961 0.0444911 0
M  V30 9 C 2.3703 -1.72325 0.114028 0
M  V30 10 C 3.1347 -0.589721 0.230646 0
M  V30 11 C 2.51302 0.662193 0.280521 0
M  V30 12 C 1.14278 0.699902 0.20926 0
M  V30 13 F 0.517472 1.89714 0.255296 0
M  V30 14 N 3.29987 1.84123 0.401382 0
M  V30 15 H -4.31304 2.10271 0.38814 0
M  V30 16 H -5.22293 0.839208 -0.503846 0
M  V30 17 H -3.98223 -1.63269 -0.221964 0
M  V30 18 H 0.457091 -2.57661 -0.0457872 0
M  V30 19 H 2.86849 -2.686 0.0767573 0
M  V30 20 H 4.21625 -0.602703 0.288009 0
M  V30 21 H 3.61678 2.31438 -0.45092 0
M  V30 22 H 3.53461 2.19465 1.33375 0
M  V30 END ATOM
M  V30 BEGIN BOND
M  V30 1 1 1 2
M  V30 2 1 2 3
M  V30 3 1 3 4
M  V30 4 2 4 5
M  V30 5 1 5 6
M  V30 6 1 5 7
M  V30 7 2 7 8
M  V30 8 1 8 9
M  V30 9 2 9 10
M  V30 10 1 10 11
M  V30 11 2 11 12
M  V30 12 1 12 13
M  V30 13 1 11 14
M  V30 14 2 6 2
M  V30 15 1 12 7
M  V30 16 1 1 15
M  V30 17 1 1 16
M  V30 18 1 3 17
M  V30 19 1 8 18
M  V30 20 1 9 19
M  V30 21 1 10 20
M  V30 22 1 14 21
M  V30 23 1 14 22
M  V30 END BOND
M  V30 END CTAB
M  END
