
     RDKit          3D

  0  0  0  0  0  0  0  0  0  0999 V3000
M  V30 BEGIN CTAB
M  V30 COUNTS 31 32 0 0 0
M  V30 BEGIN ATOM
M  V30 1 N -1.78319 1.63002 -1.62174 0
M  V30 2 C -2.24512 0.899315 -0.509223 0
M  V30 3 C -3.43707 1.26006 0.0874361 0
M  V30 4 C -3.93642 0.578547 1.18081 0
M  V30 5 C -3.19762 -0.486274 1.66315 0
M  V30 6 C -2.00346 -0.846517 1.06414 0
M  V30 7 C -1.51309 -0.155939 -0.0311847 0
M  V30 8 C -0.243857 -0.508738 -0.703888 0 CFG=2
M  V30 9 C 0.485089 -1.64385 -0.017032 0
M  V30 10 C 1.89469 -1.4675 -0.598566 0
M  V30 11 N 2.0746 -0.0623071 -0.648743 0
M  V30 12 C 0.786502 0.579998 -0.694315 0
M  V30 13 S 3.1506 0.595516 0.474691 0
M  V30 14 O 2.74798 0.446798 1.8895 0
M  V30 15 O 3.28636 2.08626 0.194151 0
M  V30 16 N 4.72766 -0.0942638 0.173842 0
M  V30 17 H -1.72335 1.15184 -2.55141 0
M  V30 18 H -1.49245 2.6272 -1.58349 0
M  V30 19 H -4.00422 2.1027 -0.307593 0
M  V30 20 H -4.86814 0.8876 1.6192 0
M  V30 21 H -3.57209 -1.04183 2.52732 0
M  V30 22 H -1.43292 -1.69063 1.45688 0
M  V30 23 H -0.409217 -0.84081 -1.75911 0
M  V30 24 H 0.557414 -1.50013 1.08732 0
M  V30 25 H 0.0756474 -2.63251 -0.287939 0
M  V30 26 H 2.6355 -2.00975 0.0188422 0
M  V30 27 H 1.84196 -1.85909 -1.64012 0
M  V30 28 H 0.616943 1.30305 0.136624 0
M  V30 29 H 0.753353 1.12397 -1.68433 0
M  V30 30 H 5.47475 0.56699 0.399264 0
M  V30 31 H 4.75317 -0.999718 0.665494 0
M  V30 END ATOM
M  V30 BEGIN BOND
M  V30 1 1 1 2
M  V30 2 2 2 3
M  V30 3 1 3 4
M  V30 4 2 4 5
M  V30 5 1 5 6
M  V30 6 2 6 7
M  V30 7 1 7 8
M  V30 8 1 8 9
M  V30 9 1 9 10
M  V30 10 1 10 11
M  V30 11 1 11 12
M  V30 12 1 11 13
M  V30 13 2 13 14
M  V30 14 2 13 15
M  V30 15 1 13 16
M  V30 16 1 7 2
M  V30 17 1 12 8
M  V30 18 1 1 17
M  V30 19 1 1 18
M  V30 20 1 3 19
M  V30 21 1 4 20
M  V30 22 1 5 21
M  V30 23 1 6 22
M  V30 24 1 8 23 CFG=3
M  V30 25 1 9 24
M  V30 26 1 9 25
M  V30 27 1 10 26
M  V30 28 1 10 27
M  V30 29 1 12 28
M  V30 30 1 12 29
M  V30 31 1 16 30
M  V30 32 1 16 31
M  V30 END BOND
M  V30 END CTAB
M  END
