
     RDKit          3D

  0  0  0  0  0  0  0  0  0  0999 V3000
M  V30 BEGIN CTAB
M  V30 COUNTS 25 25 0 0 0
M  V30 BEGIN ATOM
M  V30 1 N -2.9253 1.40439 -0.62256 0
M  V30 2 C -2.86072 0.0829472 -0.165269 0
M  V30 3 C -1.45527 -0.118428 0.41459 0 CFG=1
M  V30 4 N -1.40376 -1.48395 0.881545 0
M  V30 5 C -0.487149 0.16546 -0.690561 0
M  V30 6 C 0.921269 0.0197137 -0.308999 0
M  V30 7 C 1.58704 -1.1763 -0.435935 0
M  V30 8 C 2.91415 -1.25803 -0.0612724 0
M  V30 9 C 3.58511 -0.149744 0.441565 0
M  V30 10 C 2.92798 1.06275 0.575577 0
M  V30 11 C 1.60598 1.11872 0.195425 0
M  V30 12 H -2.46567 2.08361 -0.067585 0
M  V30 13 H -3.55697 1.70511 -1.28517 0
M  V30 14 H -2.98517 -0.670254 -0.973391 0
M  V30 15 H -3.64091 -0.123253 0.617543 0
M  V30 16 H -1.34873 0.62504 1.2107 0
M  V30 17 H -0.469596 -1.80494 1.15945 0
M  V30 18 H -2.14659 -1.62079 1.58592 0
M  V30 19 H -0.730093 1.17543 -1.09422 0
M  V30 20 H -0.724516 -0.547873 -1.52361 0
M  V30 21 H 1.07297 -2.04904 -0.827615 0
M  V30 22 H 3.42866 -2.19698 -0.163383 0
M  V30 23 H 4.61399 -0.212068 0.732323 0
M  V30 24 H 3.4661 1.92335 0.971163 0
M  V30 25 H 1.07719 2.04512 0.289822 0
M  V30 END ATOM
M  V30 BEGIN BOND
M  V30 1 1 1 2
M  V30 2 1 2 3
M  V30 3 1 3 4
M  V30 4 1 3 5
M  V30 5 1 5 6
M  V30 6 2 6 7
M  V30 7 1 7 8
M  V30 8 2 8 9
M  V30 9 1 9 10
M  V30 10 2 10 11
M  V30 11 1 11 6
M  V30 12 1 1 12
M  V30 13 1 1 13
M  V30 14 1 2 14
M  V30 15 1 2 15
M  V30 16 1 3 16 CFG=1
M  V30 17 1 4 17
M  V30 18 1 4 18
M  V30 19 1 5 19
M  V30 20 1 5 20
M  V30 21 1 7 21
M  V30 22 1 8 22
M  V30 23 1 9 23
M  V30 24 1 10 24
M  V30 25 1 11 25
M  V30 END BOND
M  V30 END CTAB
M  END
