
     RDKit          3D

  0  0  0  0  0  0  0  0  0  0999 V3000
M  V30 BEGIN CTAB
M  V30 COUNTS 25 25 0 0 0
M  V30 BEGIN ATOM
M  V30 1 N -1.76969 0.993276 0.888759 0
M  V30 2 C -1.16173 1.21376 -0.37531 0
M  V30 3 C -0.268919 0.145523 -0.876263 0 CFG=2
M  V30 4 C -1.10498 -1.13656 -0.99943 0
M  V30 5 C -0.614246 -2.0684 0.0553806 0
M  V30 6 C 0.398665 -1.34412 0.89411 0
M  V30 7 C 0.87041 -0.274118 -0.074874 0 CFG=2
M  V30 8 C 1.63328 0.741756 0.687594 0
M  V30 9 N 2.21617 1.76618 -0.157622 0
M  V30 10 H -2.80707 0.976775 0.878377 0
M  V30 11 H -1.49399 1.77291 1.53403 0
M  V30 12 H -0.605854 2.19655 -0.414346 0
M  V30 13 H -1.98356 1.33716 -1.12349 0
M  V30 14 H 0.0388227 0.410787 -1.91018 0
M  V30 15 H -0.955181 -1.61573 -1.98981 0
M  V30 16 H -2.18531 -0.915792 -0.901666 0
M  V30 17 H -1.41086 -2.43895 0.730121 0
M  V30 18 H -0.11736 -2.98808 -0.355398 0
M  V30 19 H -0.0254672 -0.903541 1.81075 0
M  V30 20 H 1.28287 -2.00235 1.13481 0
M  V30 21 H 1.60701 -0.793729 -0.743083 0
M  V30 22 H 1.07377 1.26235 1.48111 0
M  V30 23 H 2.47792 0.22253 1.19022 0
M  V30 24 H 1.67946 1.84046 -1.05443 0
M  V30 25 H 3.22584 1.60134 -0.309366 0
M  V30 END ATOM
M  V30 BEGIN BOND
M  V30 1 1 1 2
M  V30 2 1 2 3
M  V30 3 1 3 4
M  V30 4 1 4 5
M  V30 5 1 5 6
M  V30 6 1 6 7
M  V30 7 1 7 8
M  V30 8 1 8 9
M  V30 9 1 7 3
M  V30 10 1 1 10
M  V30 11 1 1 11
M  V30 12 1 2 12
M  V30 13 1 2 13
M  V30 14 1 3 14 CFG=3
M  V30 15 1 4 15
M  V30 16 1 4 16
M  V30 17 1 5 17
M  V30 18 1 5 18
M  V30 19 1 6 19
M  V30 20 1 6 20
M  V30 21 1 7 21 CFG=3
M  V30 22 1 8 22
M  V30 23 1 8 23
M  V30 24 1 9 24
M  V30 25 1 9 25
M  V30 END BOND
M  V30 END CTAB
M  END
