
     RDKit          3D

  0  0  0  0  0  0  0  0  0  0999 V3000
M  V30 BEGIN CTAB
M  V30 COUNTS 38 39 0 0 0
M  V30 BEGIN ATOM
M  V30 1 C -5.00508 1.22913 0.426189 0
M  V30 2 C -4.90688 -0.0643282 -0.365757 0
M  V30 3 C -3.72168 -0.871437 0.0489305 0
M  V30 4 C -2.42118 -0.107192 -0.166576 0
M  V30 5 C -1.23768 -0.941893 0.259159 0
M  V30 6 C 0.0344227 -0.1642 0.0362302 0
M  V30 7 C 1.23216 -0.786408 0.375574 0
M  V30 8 C 1.28246 -2.1501 0.930785 0
M  V30 9 C 2.36752 -0.0294593 0.151287 0
M  V30 10 C 2.30555 1.26158 -0.376678 0
M  V30 11 C 1.07519 1.82677 -0.695308 0
M  V30 12 C -0.0449855 1.0983 -0.481404 0
M  V30 13 N 3.45138 1.93823 -0.56765 0
M  V30 14 C 4.66921 1.4599 -0.28506 0
M  V30 15 N 5.85082 2.21923 -0.506996 0
M  V30 16 N 4.73398 0.221956 0.221644 0
M  V30 17 C 3.60303 -0.51158 0.436772 0
M  V30 18 N 3.80325 -1.78947 0.971058 0
M  V30 19 H -6.05309 1.32417 0.81453 0
M  V30 20 H -4.85857 2.0812 -0.263655 0
M  V30 21 H -4.3132 1.22919 1.28647 0
M  V30 22 H -5.81082 -0.683994 -0.248362 0
M  V30 23 H -4.81024 0.146712 -1.45315 0
M  V30 24 H -3.73064 -1.81211 -0.550814 0
M  V30 25 H -3.73529 -1.17939 1.10431 0
M  V30 26 H -2.40189 0.131494 -1.25937 0
M  V30 27 H -2.49337 0.793017 0.47128 0
M  V30 28 H -1.2358 -1.84685 -0.385906 0
M  V30 29 H -1.37701 -1.17494 1.3302 0
M  V30 30 H 0.181882 -2.47634 0.962774 0
M  V30 31 H 1.64053 -2.93813 0.242479 0
M  V30 32 H 1.51344 -2.24907 1.98732 0
M  V30 33 H 1.04444 2.82812 -1.10355 0
M  V30 34 H -1.01324 1.52046 -0.722943 0
M  V30 35 H 6.16754 2.4808 -1.4635 0
M  V30 36 H 6.44233 2.54052 0.291158 0
M  V30 37 H 3.82284 -1.89267 2.01059 0
M  V30 38 H 3.94868 -2.66122 0.418157 0
M  V30 END ATOM
M  V30 BEGIN BOND
M  V30 1 1 1 2
M  V30 2 1 2 3
M  V30 3 1 3 4
M  V30 4 1 4 5
M  V30 5 1 5 6
M  V30 6 2 6 7
M  V30 7 1 7 8
M  V30 8 1 7 9
M  V30 9 2 9 10
M  V30 10 1 10 11
M  V30 11 2 11 12
M  V30 12 1 10 13
M  V30 13 2 13 14
M  V30 14 1 14 15
M  V30 15 1 14 16
M  V30 16 2 16 17
M  V30 17 1 17 18
M  V30 18 1 12 6
M  V30 19 1 17 9
M  V30 20 1 1 19
M  V30 21 1 1 20
M  V30 22 1 1 21
M  V30 23 1 2 22
M  V30 24 1 2 23
M  V30 25 1 3 24
M  V30 26 1 3 25
M  V30 27 1 4 26
M  V30 28 1 4 27
M  V30 29 1 5 28
M  V30 30 1 5 29
M  V30 31 1 8 30
M  V30 32 1 8 31
M  V30 33 1 8 32
M  V30 34 1 11 33
M  V30 35 1 12 34
M  V30 36 1 15 35
M  V30 37 1 15 36
M  V30 38 1 18 37
M  V30 39 1 18 38
M  V30 END BOND
M  V30 END CTAB
M  END
