
     RDKit          3D

  0  0  0  0  0  0  0  0  0  0999 V3000
M  V30 BEGIN CTAB
M  V30 COUNTS 57 58 0 0 0
M  V30 BEGIN ATOM
M  V30 1 N -5.59902 0.666518 -2.63102 0
M  V30 2 C -6.52627 -0.00349616 -1.78995 0
M  V30 3 N -7.82306 -0.17575 -2.19116 0
M  V30 4 C -8.66451 -0.828835 -1.33763 0
M  V30 5 N -10.0251 -1.03991 -1.70344 0
M  V30 6 C -8.17642 -1.27363 -0.137173 0
M  V30 7 Cl -9.26012 -2.10804 0.955167 0
M  V30 8 N -6.8994 -1.11241 0.275123 0
M  V30 9 C -6.07962 -0.466488 -0.576834 0
M  V30 10 C -4.65679 -0.248273 -0.201186 0
M  V30 11 O -3.90603 0.354869 -0.995202 0
M  V30 12 N -4.20678 -0.725155 1.02459 0
M  V30 13 C -2.90572 -0.626937 1.55909 0
M  V30 14 N -2.67334 -1.13888 2.74198 0
M  V30 15 N -1.8166 -0.0117546 0.903559 0
M  V30 16 C -0.625501 0.39505 1.6755 0
M  V30 17 C 0.300418 1.08198 0.720487 0
M  V30 18 C 1.58685 1.55764 1.28253 0
M  V30 19 C 2.46326 0.461527 1.83664 0
M  V30 20 C 2.82601 -0.527372 0.7731 0
M  V30 21 C 2.22791 -1.7512 0.716126 0
M  V30 22 C 2.52566 -2.6913 -0.246501 0
M  V30 23 C 3.47577 -2.32657 -1.16655 0
M  V30 24 C 4.09796 -1.10579 -1.14088 0
M  V30 25 C 3.79426 -0.185182 -0.18235 0
M  V30 26 O 4.35435 1.05417 -0.0718933 0
M  V30 27 C 5.30203 1.74817 -0.755544 0
M  V30 28 C 6.67108 1.16126 -0.737067 0
M  V30 29 O 7.5033 2.03354 -1.48121 0
M  V30 30 C 7.23552 1.07028 0.675176 0
M  V30 31 O 8.53714 0.571801 0.610991 0
M  V30 32 H -4.95448 0.0891438 -3.20535 0
M  V30 33 H -5.5382 1.69319 -2.69628 0
M  V30 34 H -10.2353 -1.60521 -2.55438 0
M  V30 35 H -10.8272 -0.660723 -1.16717 0
M  V30 36 H -4.93508 -1.22425 1.63081 0
M  V30 37 H -1.75978 -1.11989 3.22015 0
M  V30 38 H -1.80079 0.161174 -0.109759 0
M  V30 39 H -0.179077 -0.439881 2.21303 0
M  V30 40 H -0.985443 1.11351 2.44834 0
M  V30 41 H -0.249032 2.0009 0.358519 0
M  V30 42 H 0.50988 0.494906 -0.188474 0
M  V30 43 H 2.10076 2.15473 0.504148 0
M  V30 44 H 1.39034 2.26152 2.13334 0
M  V30 45 H 1.9116 -0.100596 2.61147 0
M  V30 46 H 3.3632 0.892623 2.31596 0
M  V30 47 H 1.45773 -2.03478 1.47044 0
M  V30 48 H 2.02404 -3.63319 -0.240385 0
M  V30 49 H 3.71282 -3.07681 -1.93471 0
M  V30 50 H 4.82483 -0.893243 -1.91341 0
M  V30 51 H 5.3167 2.8316 -0.470841 0
M  V30 52 H 4.98898 1.76189 -1.85006 0
M  V30 53 H 6.7008 0.201973 -1.22525 0
M  V30 54 H 7.57842 2.86089 -0.933918 0
M  V30 55 H 6.5819 0.459547 1.32744 0
M  V30 56 H 7.28706 2.08559 1.11158 0
M  V30 57 H 8.65816 -0.084475 -0.128561 0
M  V30 END ATOM
M  V30 BEGIN BOND
M  V30 1 1 1 2
M  V30 2 2 2 3
M  V30 3 1 3 4
M  V30 4 1 4 5
M  V30 5 2 4 6
M  V30 6 1 6 7
M  V30 7 1 6 8
M  V30 8 2 8 9
M  V30 9 1 9 10
M  V30 10 2 10 11
M  V30 11 1 10 12
M  V30 12 1 12 13
M  V30 13 2 13 14 CFG=2
M  V30 14 1 13 15
M  V30 15 1 15 16
M  V30 16 1 16 17
M  V30 17 1 17 18
M  V30 18 1 18 19
M  V30 19 1 19 20
M  V30 20 2 20 21
M  V30 21 1 21 22
M  V30 22 2 22 23
M  V30 23 1 23 24
M  V30 24 2 24 25
M  V30 25 1 25 26
M  V30 26 1 26 27
M  V30 27 1 27 28
M  V30 28 1 28 29
M  V30 29 1 28 30
M  V30 30 1 30 31
M  V30 31 1 9 2
M  V30 32 1 25 20
M  V30 33 1 1 32
M  V30 34 1 1 33
M  V30 35 1 5 34
M  V30 36 1 5 35
M  V30 37 1 12 36
M  V30 38 1 14 37
M  V30 39 1 15 38
M  V30 40 1 16 39
M  V30 41 1 16 40
M  V30 42 1 17 41
M  V30 43 1 17 42
M  V30 44 1 18 43
M  V30 45 1 18 44
M  V30 46 1 19 45
M  V30 47 1 19 46
M  V30 48 1 21 47
M  V30 49 1 22 48
M  V30 50 1 23 49
M  V30 51 1 24 50
M  V30 52 1 27 51
M  V30 53 1 27 52
M  V30 54 1 28 53
M  V30 55 1 29 54
M  V30 56 1 30 55
M  V30 57 1 30 56
M  V30 58 1 31 57
M  V30 END BOND
M  V30 END CTAB
M  END
