
     RDKit          3D

  0  0  0  0  0  0  0  0  0  0999 V3000
M  V30 BEGIN CTAB
M  V30 COUNTS 20 21 0 0 0
M  V30 BEGIN ATOM
M  V30 1 N 2.91819 -0.853866 1.12809 0
M  V30 2 C 1.67751 -0.428591 0.574663 0
M  V30 3 N 0.49949 -0.865662 1.05572 0
M  V30 4 C -0.688728 -0.471671 0.541598 0
M  V30 5 C -1.89492 -0.922292 1.0379 0
M  V30 6 C -3.07763 -0.484976 0.472159 0
M  V30 7 C -3.10016 0.399352 -0.587221 0
M  V30 8 Cl -4.61066 0.956841 -1.30853 0
M  V30 9 C -1.88191 0.835008 -1.06518 0
M  V30 10 C -0.675407 0.417612 -0.522426 0
M  V30 11 N 0.507184 0.855125 -1.00384 0
M  V30 12 C 1.67129 0.462374 -0.492062 0
M  V30 13 N 2.92996 0.912591 -0.985929 0
M  V30 14 H 3.78114 -0.268788 1.07462 0
M  V30 15 H 3.0138 -1.77332 1.61204 0
M  V30 16 H -1.91622 -1.61332 1.8643 0
M  V30 17 H -4.03673 -0.821295 0.840476 0
M  V30 18 H -1.85441 1.53575 -1.90303 0
M  V30 19 H 3.23883 0.543235 -1.89655 0
M  V30 20 H 3.49938 1.58589 -0.436798 0
M  V30 END ATOM
M  V30 BEGIN BOND
M  V30 1 1 1 2
M  V30 2 2 2 3
M  V30 3 1 3 4
M  V30 4 2 4 5
M  V30 5 1 5 6
M  V30 6 2 6 7
M  V30 7 1 7 8
M  V30 8 1 7 9
M  V30 9 2 9 10
M  V30 10 1 10 11
M  V30 11 2 11 12
M  V30 12 1 12 13
M  V30 13 1 12 2
M  V30 14 1 10 4
M  V30 15 1 1 14
M  V30 16 1 1 15
M  V30 17 1 5 16
M  V30 18 1 6 17
M  V30 19 1 9 18
M  V30 20 1 13 19
M  V30 21 1 13 20
M  V30 END BOND
M  V30 END CTAB
M  END
