
     RDKit          3D

  0  0  0  0  0  0  0  0  0  0999 V3000
M  V30 BEGIN CTAB
M  V30 COUNTS 70 74 0 0 0
M  V30 BEGIN ATOM
M  V30 1 C -5.51557 -2.94664 -2.67726 0
M  V30 2 C -5.1963 -2.6505 -1.26894 0
M  V30 3 C -6.03748 -3.21718 -0.314554 0
M  V30 4 C -5.7828 -2.96651 1.01807 0
M  V30 5 C -6.68315 -3.56719 2.03919 0
M  V30 6 N -4.74257 -2.19347 1.32108 0
M  V30 7 C -3.91584 -1.63337 0.420338 0
M  V30 8 N -4.1592 -1.87506 -0.876527 0
M  V30 9 N -2.83937 -0.786078 0.873529 0
M  V30 10 N -2.73153 -0.316991 2.09471 0
M  V30 11 C -1.65127 0.459103 2.18191 0
M  V30 12 C -1.01645 0.494321 0.928197 0
M  V30 13 C -1.80459 -0.309891 0.14022 0
M  V30 14 N -1.59116 -0.62266 -1.20506 0
M  V30 15 C 0.18538 1.28637 0.682481 0
M  V30 16 C 1.25678 0.771752 -0.136055 0
M  V30 17 C 1.58294 1.00341 -1.44545 0
M  V30 18 C 0.888735 1.87224 -2.40872 0
M  V30 19 N 2.72622 0.298389 -1.72425 0
M  V30 20 N 3.1376 -0.358536 -0.670381 0
M  V30 21 C 2.26932 -0.0967387 0.311943 0
M  V30 22 N 2.34893 -0.609844 1.64789 0
M  V30 23 C 4.31753 -1.15236 -0.640091 0
M  V30 24 N 4.22018 -2.45524 -0.849354 0
M  V30 25 C 5.30568 -3.22662 -0.82491 0
M  V30 26 C 5.22476 -4.70745 -1.05328 0
M  V30 27 C 6.53242 -2.66472 -0.580409 0
M  V30 28 C 6.63099 -1.31152 -0.363609 0
M  V30 29 N 5.52514 -0.560612 -0.394794 0
M  V30 30 C 7.95736 -0.657905 -0.0917853 0
M  V30 31 C -0.155389 2.73579 0.442771 0
M  V30 32 C 0.696043 3.75084 0.830246 0
M  V30 33 C 0.393779 5.08408 0.641564 0
M  V30 34 C -0.814601 5.35136 0.0404598 0
M  V30 35 C -1.69168 4.3665 -0.360389 0
M  V30 36 C -1.3358 3.05508 -0.146951 0
M  V30 37 C -1.18417 6.7748 -0.183476 0
M  V30 38 F -0.75476 7.55884 0.872139 0
M  V30 39 F -0.741936 7.21284 -1.40284 0
M  V30 40 F -2.5752 6.84587 -0.182625 0
M  V30 41 C -1.18815 1.17355 3.41329 0
M  V30 42 H -5.73507 -4.04491 -2.75183 0
M  V30 43 H -4.70197 -2.70424 -3.38666 0
M  V30 44 H -6.46951 -2.4465 -2.99651 0
M  V30 45 H -6.87171 -3.83811 -0.587092 0
M  V30 46 H -6.50276 -4.62057 2.24212 0
M  V30 47 H -6.58118 -3.03308 3.02976 0
M  V30 48 H -7.75089 -3.4396 1.76479 0
M  V30 49 H -0.751006 -1.14565 -1.53046 0
M  V30 50 H -2.27616 -0.335798 -1.9382 0
M  V30 51 H 0.683716 1.37737 1.7396 0
M  V30 52 H -0.156799 1.59472 -2.6295 0
M  V30 53 H 1.39368 1.77243 -3.42212 0
M  V30 54 H 1.02023 2.96779 -2.1972 0
M  V30 55 H 2.08118 -1.57734 1.86912 0
M  V30 56 H 2.69247 0.0234791 2.42815 0
M  V30 57 H 6.13124 -5.05264 -1.58683 0
M  V30 58 H 5.20684 -5.18386 -0.0681303 0
M  V30 59 H 4.35887 -4.9327 -1.6874 0
M  V30 60 H 7.44612 -3.26369 -0.549008 0
M  V30 61 H 8.32044 -0.152022 -1.00834 0
M  V30 62 H 8.67093 -1.4871 0.156507 0
M  V30 63 H 7.86124 0.0104773 0.766137 0
M  V30 64 H 1.64129 3.50714 1.29871 0
M  V30 65 H 1.10132 5.86692 0.963804 0
M  V30 66 H -2.65063 4.64237 -0.838231 0
M  V30 67 H -2.01194 2.28706 -0.453463 0
M  V30 68 H -2.07661 1.52022 3.99037 0
M  V30 69 H -0.548233 2.02653 3.22089 0
M  V30 70 H -0.615937 0.453274 4.0627 0
M  V30 END ATOM
M  V30 BEGIN BOND
M  V30 1 1 1 2
M  V30 2 2 2 3
M  V30 3 1 3 4
M  V30 4 1 4 5
M  V30 5 2 4 6
M  V30 6 1 6 7
M  V30 7 2 7 8
M  V30 8 1 7 9
M  V30 9 1 9 10
M  V30 10 2 10 11
M  V30 11 1 11 12
M  V30 12 2 12 13
M  V30 13 1 13 14
M  V30 14 1 12 15
M  V30 15 1 15 16
M  V30 16 1 16 17
M  V30 17 1 17 18
M  V30 18 2 17 19
M  V30 19 1 19 20
M  V30 20 1 20 21
M  V30 21 1 21 22
M  V30 22 1 20 23
M  V30 23 2 23 24
M  V30 24 1 24 25
M  V30 25 1 25 26
M  V30 26 2 25 27
M  V30 27 1 27 28
M  V30 28 2 28 29
M  V30 29 1 28 30
M  V30 30 1 15 31
M  V30 31 2 31 32
M  V30 32 1 32 33
M  V30 33 2 33 34
M  V30 34 1 34 35
M  V30 35 2 35 36
M  V30 36 1 34 37
M  V30 37 1 37 38
M  V30 38 1 37 39
M  V30 39 1 37 40
M  V30 40 1 11 41
M  V30 41 1 8 2
M  V30 42 1 13 9
M  V30 43 2 21 16
M  V30 44 1 29 23
M  V30 45 1 36 31
M  V30 46 1 1 42
M  V30 47 1 1 43
M  V30 48 1 1 44
M  V30 49 1 3 45
M  V30 50 1 5 46
M  V30 51 1 5 47
M  V30 52 1 5 48
M  V30 53 1 14 49
M  V30 54 1 14 50
M  V30 55 1 15 51
M  V30 56 1 18 52
M  V30 57 1 18 53
M  V30 58 1 18 54
M  V30 59 1 22 55
M  V30 60 1 22 56
M  V30 61 1 26 57
M  V30 62 1 26 58
M  V30 63 1 26 59
M  V30 64 1 27 60
M  V30 65 1 30 61
M  V30 66 1 30 62
M  V30 67 1 30 63
M  V30 68 1 32 64
M  V30 69 1 33 65
M  V30 70 1 35 66
M  V30 71 1 36 67
M  V30 72 1 41 68
M  V30 73 1 41 69
M  V30 74 1 41 70
M  V30 END BOND
M  V30 END CTAB
M  END
