
     RDKit          3D

  0  0  0  0  0  0  0  0  0  0999 V3000
M  V30 BEGIN CTAB
M  V30 COUNTS 38 39 0 0 0
M  V30 BEGIN ATOM
M  V30 1 C -3.83963 2.30199 1.08145 0
M  V30 2 O -3.97307 0.931973 0.865866 0
M  V30 3 C -3.01396 0.0520823 0.44512 0
M  V30 4 C -1.72201 0.424564 0.162896 0
M  V30 5 C -0.751794 -0.492359 -0.263206 0
M  V30 6 C 0.634532 -0.0163683 -0.433962 0
M  V30 7 C 0.937533 0.766108 -1.53148 0
M  V30 8 C 2.19617 1.28008 -1.69602 0
M  V30 9 C 3.13714 1.00239 -0.757044 0
M  V30 10 N 4.44314 1.51451 -0.909057 0
M  V30 11 C 2.9127 0.220508 0.384844 0
M  V30 12 O 3.79224 -0.0451939 1.27148 0
M  V30 13 C 4.5615 -0.404742 2.25981 0
M  V30 14 C 1.60084 -0.2841 0.507399 0
M  V30 15 N -0.0628972 1.03282 -2.50307 0 CHG=1
M  V30 16 O 0.0136918 2.24451 -3.15415 0 CHG=-1
M  V30 17 O -0.988718 0.272317 -2.81466 0
M  V30 18 C -1.13171 -1.79531 -0.397808 0
M  V30 19 C -2.46883 -2.16353 -0.102716 0
M  V30 20 C -3.40998 -1.27287 0.312778 0
M  V30 21 N -4.73624 -1.68637 0.604528 0
M  V30 22 N -0.267307 -2.78891 -0.880189 0 CHG=1
M  V30 23 O -0.841188 -3.7919 -1.6669 0 CHG=-1
M  V30 24 O 0.916385 -2.85431 -0.669348 0
M  V30 25 H -4.16487 2.89646 0.218827 0
M  V30 26 H -4.43286 2.56198 2.00627 0
M  V30 27 H -2.79866 2.60383 1.34793 0
M  V30 28 H -1.38254 1.46401 0.258613 0
M  V30 29 H 2.41276 1.90231 -2.57784 0
M  V30 30 H 5.07886 1.11432 -1.61506 0
M  V30 31 H 4.76026 2.29288 -0.310631 0
M  V30 32 H 4.03536 -0.266984 3.26272 0
M  V30 33 H 5.49579 0.232031 2.41687 0
M  V30 34 H 4.92024 -1.48833 2.22839 0
M  V30 35 H 1.35979 -0.900513 1.37565 0
M  V30 36 H -2.72633 -3.20996 -0.21663 0
M  V30 37 H -5.21971 -1.28866 1.4498 0
M  V30 38 H -5.27662 -2.36126 0.0385467 0
M  V30 END ATOM
M  V30 BEGIN BOND
M  V30 1 1 1 2
M  V30 2 1 2 3
M  V30 3 2 3 4
M  V30 4 1 4 5
M  V30 5 1 5 6
M  V30 6 2 6 7
M  V30 7 1 7 8
M  V30 8 2 8 9
M  V30 9 1 9 10
M  V30 10 1 9 11
M  V30 11 1 11 12
M  V30 12 1 12 13
M  V30 13 2 11 14
M  V30 14 1 7 15
M  V30 15 1 15 16
M  V30 16 2 15 17
M  V30 17 2 5 18
M  V30 18 1 18 19
M  V30 19 2 19 20
M  V30 20 1 20 21
M  V30 21 1 18 22
M  V30 22 1 22 23
M  V30 23 2 22 24
M  V30 24 1 20 3
M  V30 25 1 14 6
M  V30 26 1 1 25
M  V30 27 1 1 26
M  V30 28 1 1 27
M  V30 29 1 4 28
M  V30 30 1 8 29
M  V30 31 1 10 30
M  V30 32 1 10 31
M  V30 33 1 13 32
M  V30 34 1 13 33
M  V30 35 1 13 34
M  V30 36 1 14 35
M  V30 37 1 19 36
M  V30 38 1 21 37
M  V30 39 1 21 38
M  V30 END BOND
M  V30 END CTAB
M  END
