
     RDKit          3D

  0  0  0  0  0  0  0  0  0  0999 V3000
M  V30 BEGIN CTAB
M  V30 COUNTS 23 23 0 0 0
M  V30 BEGIN ATOM
M  V30 1 N 3.80517 0.889901 -0.765156 0
M  V30 2 N 2.77847 0.306627 -0.131731 0
M  V30 3 C 1.4809 0.34875 -0.686219 0
M  V30 4 O 1.25403 0.923153 -1.76923 0
M  V30 5 C 0.322356 -0.292024 -0.00163223 0 CFG=2
M  V30 6 C -0.771981 0.7477 0.24814 0
M  V30 7 C -1.89932 0.0221115 0.938834 0
M  V30 8 C -2.47195 -1.12261 0.109 0
M  V30 9 C -3.2897 0.10944 0.44156 0
M  V30 10 N 0.710264 -0.9172 1.23203 0
M  V30 11 H 4.40548 0.312369 -1.24897 0
M  V30 12 H 3.94819 1.84145 -0.568729 0
M  V30 13 H 2.92456 -0.18872 0.783708 0
M  V30 14 H -0.061707 -1.07302 -0.676834 0
M  V30 15 H -0.352663 1.56175 0.860447 0
M  V30 16 H -1.08183 1.10016 -0.756125 0
M  V30 17 H -1.76334 -0.136055 2.01857 0
M  V30 18 H -2.66608 -2.05033 0.689491 0
M  V30 19 H -2.19356 -1.22186 -0.942336 0
M  V30 20 H -3.51516 0.822355 -0.380864 0
M  V30 21 H -4.10231 -0.0661102 1.14773 0
M  V30 22 H 1.17532 -0.227206 1.83209 0
M  V30 23 H 1.36486 -1.69063 1.03598 0
M  V30 END ATOM
M  V30 BEGIN BOND
M  V30 1 1 1 2
M  V30 2 1 2 3
M  V30 3 2 3 4
M  V30 4 1 3 5
M  V30 5 1 5 6
M  V30 6 1 6 7
M  V30 7 1 7 8
M  V30 8 1 8 9
M  V30 9 1 5 10
M  V30 10 1 9 7
M  V30 11 1 1 11
M  V30 12 1 1 12
M  V30 13 1 2 13
M  V30 14 1 5 14 CFG=3
M  V30 15 1 6 15
M  V30 16 1 6 16
M  V30 17 1 7 17
M  V30 18 1 8 18
M  V30 19 1 8 19
M  V30 20 1 9 20
M  V30 21 1 9 21
M  V30 22 1 10 22
M  V30 23 1 10 23
M  V30 END BOND
M  V30 END CTAB
M  END
