
     RDKit          3D

  0  0  0  0  0  0  0  0  0  0999 V3000
M  V30 BEGIN CTAB
M  V30 COUNTS 20 20 0 0 0
M  V30 BEGIN ATOM
M  V30 1 N 0.871773 -3.40793 0.0501782 0
M  V30 2 C 0.73462 -2.26207 0.0353643 0
M  V30 3 C 0.578514 -0.834276 -0.000934739 0
M  V30 4 C 1.67797 0.00473984 -0.0865219 0
M  V30 5 N 2.9868 -0.551511 -0.139707 0
M  V30 6 C 1.47671 1.38028 -0.118724 0
M  V30 7 C 0.198243 1.89094 -0.065736 0
M  V30 8 C -0.912376 1.07243 0.0198046 0
M  V30 9 C -0.694649 -0.291392 0.0507551 0
M  V30 10 C -1.86549 -1.18345 0.141837 0
M  V30 11 N -2.24048 1.56273 0.0761119 0
M  V30 12 H 3.5543 -0.543908 0.721692 0
M  V30 13 H 3.29124 -0.936232 -1.05984 0
M  V30 14 H 2.31815 2.03055 -0.184468 0
M  V30 15 H -0.00642298 2.96885 -0.0884339 0
M  V30 16 H -2.79513 -0.739194 -0.261461 0
M  V30 17 H -2.04088 -1.5448 1.17588 0
M  V30 18 H -1.66852 -2.10907 -0.465899 0
M  V30 19 H -2.94244 1.26386 -0.619245 0
M  V30 20 H -2.52194 2.22943 0.819353 0
M  V30 END ATOM
M  V30 BEGIN BOND
M  V30 1 3 1 2
M  V30 2 1 2 3
M  V30 3 2 3 4
M  V30 4 1 4 5
M  V30 5 1 4 6
M  V30 6 2 6 7
M  V30 7 1 7 8
M  V30 8 2 8 9
M  V30 9 1 9 10
M  V30 10 1 8 11
M  V30 11 1 9 3
M  V30 12 1 5 12
M  V30 13 1 5 13
M  V30 14 1 6 14
M  V30 15 1 7 15
M  V30 16 1 10 16
M  V30 17 1 10 17
M  V30 18 1 10 18
M  V30 19 1 11 19
M  V30 20 1 11 20
M  V30 END BOND
M  V30 END CTAB
M  END
