
     RDKit          3D

  0  0  0  0  0  0  0  0  0  0999 V3000
M  V30 BEGIN CTAB
M  V30 COUNTS 61 65 0 0 0
M  V30 BEGIN ATOM
M  V30 1 N -8.76974 0.926074 0.360267 0
M  V30 2 C -7.93684 0.127649 0.473543 0
M  V30 3 C -6.90672 -0.889283 0.608906 0
M  V30 4 C -7.32777 -2.15744 0.949128 0
M  V30 5 N -8.70579 -2.43518 1.15225 0
M  V30 6 N -6.35415 -3.07385 1.06712 0
M  V30 7 C -5.0334 -2.76316 0.861974 0
M  V30 8 C -4.59033 -1.51509 0.52431 0
M  V30 9 C -5.59792 -0.543949 0.396819 0
M  V30 10 C -5.32319 0.834362 0.0465032 0
M  V30 11 C -5.22298 1.74185 1.10819 0
M  V30 12 C -4.98463 3.0754 0.931814 0
M  V30 13 C -4.83277 3.56403 -0.36172 0
M  V30 14 C -4.92959 2.6774 -1.41937 0
M  V30 15 C -5.17141 1.33281 -1.21389 0
M  V30 16 C -3.25741 -1.35988 0.355776 0
M  V30 17 N -2.59296 -0.111903 -0.00198632 0
M  V30 18 C -2.47296 -2.47281 0.539848 0
M  V30 19 S -3.597 -3.68138 0.935429 0
M  V30 20 C -0.996468 -2.562 0.415739 0
M  V30 21 O -0.475811 -3.69431 0.630329 0
M  V30 22 O -0.220697 -1.49478 0.0892063 0
M  V30 23 C 1.20289 -1.55791 -0.0344409 0
M  V30 24 C 1.64134 -1.1512 -1.42153 0
M  V30 25 C 2.5284 0.0496849 -1.43625 0
M  V30 26 N 3.61804 -0.0493222 -0.475855 0
M  V30 27 C 3.35141 -0.683409 0.782761 0
M  V30 28 C 1.85829 -0.703279 1.03163 0
M  V30 29 C 4.91116 0.480036 -0.793628 0
M  V30 30 O 5.03556 1.01848 -1.89998 0
M  V30 31 N 5.9614 0.378842 0.120624 0
M  V30 32 C 7.27295 0.858989 -0.0520978 0
M  V30 33 C 7.64088 1.79129 -0.995916 0
M  V30 34 C 8.95733 2.21646 -1.13584 0
M  V30 35 C 9.94225 1.70929 -0.321748 0
M  V30 36 C 9.60933 0.765339 0.644622 0
M  V30 37 C 8.30504 0.363095 0.761637 0
M  V30 38 H -9.18476 -1.88249 1.90645 0
M  V30 39 H -9.25924 -3.12489 0.625102 0
M  V30 40 H -5.33777 1.38555 2.13241 0
M  V30 41 H -4.91104 3.76222 1.77521 0
M  V30 42 H -4.64128 4.62933 -0.51708 0
M  V30 43 H -4.81239 3.05079 -2.42902 0
M  V30 44 H -5.24901 0.627297 -2.03986 0
M  V30 45 H -2.35996 0.604108 0.701862 0
M  V30 46 H -2.33843 0.0625091 -0.993936 0
M  V30 47 H 1.48066 -2.60939 0.182315 0
M  V30 48 H 0.773337 -0.949774 -2.07823 0
M  V30 49 H 2.19501 -1.99459 -1.88199 0
M  V30 50 H 2.03408 1.01268 -1.31236 0
M  V30 51 H 3.0029 0.0759007 -2.4611 0
M  V30 52 H 3.86221 -0.116813 1.60337 0
M  V30 53 H 3.69624 -1.72726 0.722085 0
M  V30 54 H 1.70404 -1.22967 1.9955 0
M  V30 55 H 1.42581 0.305211 1.08444 0
M  V30 56 H 5.79281 -0.105377 1.06837 0
M  V30 57 H 6.94528 2.24684 -1.65954 0
M  V30 58 H 9.22784 2.96062 -1.89588 0
M  V30 59 H 10.98 1.99731 -0.379589 0
M  V30 60 H 10.4045 0.374647 1.28168 0
M  V30 61 H 8.03355 -0.365703 1.50197 0
M  V30 END ATOM
M  V30 BEGIN BOND
M  V30 1 3 1 2
M  V30 2 1 2 3
M  V30 3 2 3 4
M  V30 4 1 4 5
M  V30 5 1 4 6
M  V30 6 2 6 7
M  V30 7 1 7 8
M  V30 8 2 8 9
M  V30 9 1 9 10
M  V30 10 2 10 11
M  V30 11 1 11 12
M  V30 12 2 12 13
M  V30 13 1 13 14
M  V30 14 2 14 15
M  V30 15 1 8 16
M  V30 16 1 16 17
M  V30 17 2 16 18
M  V30 18 1 18 19
M  V30 19 1 18 20
M  V30 20 2 20 21
M  V30 21 1 20 22
M  V30 22 1 22 23
M  V30 23 1 23 24
M  V30 24 1 24 25
M  V30 25 1 25 26
M  V30 26 1 26 27
M  V30 27 1 27 28
M  V30 28 1 26 29
M  V30 29 2 29 30
M  V30 30 1 29 31
M  V30 31 1 31 32
M  V30 32 2 32 33
M  V30 33 1 33 34
M  V30 34 2 34 35
M  V30 35 1 35 36
M  V30 36 2 36 37
M  V30 37 1 9 3
M  V30 38 1 15 10
M  V30 39 1 28 23
M  V30 40 1 37 32
M  V30 41 1 19 7
M  V30 42 1 5 38
M  V30 43 1 5 39
M  V30 44 1 11 40
M  V30 45 1 12 41
M  V30 46 1 13 42
M  V30 47 1 14 43
M  V30 48 1 15 44
M  V30 49 1 17 45
M  V30 50 1 17 46
M  V30 51 1 23 47
M  V30 52 1 24 48
M  V30 53 1 24 49
M  V30 54 1 25 50
M  V30 55 1 25 51
M  V30 56 1 27 52
M  V30 57 1 27 53
M  V30 58 1 28 54
M  V30 59 1 28 55
M  V30 60 1 31 56
M  V30 61 1 33 57
M  V30 62 1 34 58
M  V30 63 1 35 59
M  V30 64 1 36 60
M  V30 65 1 37 61
M  V30 END BOND
M  V30 END CTAB
M  END
