
     RDKit          3D

  0  0  0  0  0  0  0  0  0  0999 V3000
M  V30 BEGIN CTAB
M  V30 COUNTS 29 29 0 0 0
M  V30 BEGIN ATOM
M  V30 1 C 1.43775 0.150629 2.59078 0
M  V30 2 C 1.84721 0.719285 1.25206 0
M  V30 3 C 2.32067 -0.388793 0.35048 0
M  V30 4 C 1.31825 -1.45236 0.0772044 0
M  V30 5 C 2.82661 0.205816 -0.971982 0
M  V30 6 S 0.681064 1.79941 0.481561 0
M  V30 7 C -0.84952 1.08536 -0.032877 0
M  V30 8 N -1.9063 1.00865 0.786101 0
M  V30 9 C -3.0888 0.4807 0.410246 0
M  V30 10 N -4.16352 0.439164 1.34393 0
M  V30 11 N -3.19268 0.0166636 -0.843896 0
M  V30 12 C -2.16404 0.0688118 -1.70728 0
M  V30 13 N -1.00355 0.607062 -1.27929 0
M  V30 14 N -2.35208 -0.445725 -3.02156 0
M  V30 15 H 0.465086 -0.339676 2.58559 0
M  V30 16 H 2.18598 -0.615363 2.89368 0
M  V30 17 H 1.51468 0.949829 3.3627 0
M  V30 18 H 2.7742 1.35518 1.46379 0
M  V30 19 H 3.22429 -0.890793 0.812943 0
M  V30 20 H 1.70808 -2.47589 0.36696 0
M  V30 21 H 0.351319 -1.32755 0.609118 0
M  V30 22 H 1.1382 -1.51388 -1.02474 0
M  V30 23 H 3.72284 -0.355419 -1.3145 0
M  V30 24 H 3.12748 1.25752 -0.843057 0
M  V30 25 H 1.97227 0.10909 -1.68869 0
M  V30 26 H -4.39031 1.28361 1.89771 0
M  V30 27 H -4.70374 -0.426098 1.462 0
M  V30 28 H -3.18958 -0.249853 -3.60674 0
M  V30 29 H -1.61187 -1.05538 -3.42992 0
M  V30 END ATOM
M  V30 BEGIN BOND
M  V30 1 1 1 2
M  V30 2 1 2 3
M  V30 3 1 3 4
M  V30 4 1 3 5
M  V30 5 1 2 6
M  V30 6 1 6 7
M  V30 7 2 7 8
M  V30 8 1 8 9
M  V30 9 1 9 10
M  V30 10 2 9 11
M  V30 11 1 11 12
M  V30 12 2 12 13
M  V30 13 1 12 14
M  V30 14 1 13 7
M  V30 15 1 1 15
M  V30 16 1 1 16
M  V30 17 1 1 17
M  V30 18 1 2 18
M  V30 19 1 3 19
M  V30 20 1 4 20
M  V30 21 1 4 21
M  V30 22 1 4 22
M  V30 23 1 5 23
M  V30 24 1 5 24
M  V30 25 1 5 25
M  V30 26 1 10 26
M  V30 27 1 10 27
M  V30 28 1 14 28
M  V30 29 1 14 29
M  V30 END BOND
M  V30 END CTAB
M  END
