
     RDKit          3D

  0  0  0  0  0  0  0  0  0  0999 V3000
M  V30 BEGIN CTAB
M  V30 COUNTS 33 34 0 0 0
M  V30 BEGIN ATOM
M  V30 1 N -4.68595 -2.53234 0.640991 0
M  V30 2 C -4.20966 -1.22033 0.365196 0
M  V30 3 N -3.26018 -1.03555 -0.593433 0
M  V30 4 C -2.78725 0.190217 -0.880246 0
M  V30 5 C -1.76724 0.409514 -1.91608 0
M  V30 6 O -0.453596 0.167552 -1.53879 0
M  V30 7 C 0.252919 0.798626 -0.53131 0
M  V30 8 O -0.356505 1.69441 0.119986 0
M  V30 9 C 1.64279 0.45611 -0.221551 0
M  V30 10 C 2.2789 1.12897 0.796081 0
M  V30 11 C 3.58713 0.845383 1.12862 0
M  V30 12 C 4.29489 -0.121672 0.449542 0
M  V30 13 C 3.6659 -0.807282 -0.578111 0
M  V30 14 C 2.36544 -0.502158 -0.884156 0
M  V30 15 O 4.39599 -1.77949 -1.25184 0
M  V30 16 C 5.72038 -0.425372 0.817462 0
M  V30 17 N -3.29416 1.218 -0.178989 0
M  V30 18 C -4.23379 1.05539 0.773099 0
M  V30 19 N -4.69194 -0.180637 1.04278 0
M  V30 20 N -4.77381 2.14137 1.51863 0
M  V30 21 H -4.39159 -2.97608 1.5449 0
M  V30 22 H -5.30645 -3.06124 -0.010544 0
M  V30 23 H -1.90592 1.41953 -2.38848 0
M  V30 24 H -2.01461 -0.305822 -2.75254 0
M  V30 25 H 1.74978 1.89441 1.34859 0
M  V30 26 H 4.0707 1.38376 1.93059 0
M  V30 27 H 1.88603 -1.04023 -1.68379 0
M  V30 28 H 4.02618 -2.32537 -2.00678 0
M  V30 29 H 5.70169 -1.29459 1.50168 0
M  V30 30 H 6.22363 -0.737254 -0.119672 0
M  V30 31 H 6.23373 0.454038 1.21023 0
M  V30 32 H -4.67217 2.21776 2.53886 0
M  V30 33 H -5.29128 2.87036 0.945018 0
M  V30 END ATOM
M  V30 BEGIN BOND
M  V30 1 1 1 2
M  V30 2 2 2 3
M  V30 3 1 3 4
M  V30 4 1 4 5
M  V30 5 1 5 6
M  V30 6 1 6 7
M  V30 7 2 7 8
M  V30 8 1 7 9
M  V30 9 2 9 10
M  V30 10 1 10 11
M  V30 11 2 11 12
M  V30 12 1 12 13
M  V30 13 2 13 14
M  V30 14 1 13 15
M  V30 15 1 12 16
M  V30 16 2 4 17
M  V30 17 1 17 18
M  V30 18 2 18 19
M  V30 19 1 18 20
M  V30 20 1 19 2
M  V30 21 1 14 9
M  V30 22 1 1 21
M  V30 23 1 1 22
M  V30 24 1 5 23
M  V30 25 1 5 24
M  V30 26 1 10 25
M  V30 27 1 11 26
M  V30 28 1 14 27
M  V30 29 1 15 28
M  V30 30 1 16 29
M  V30 31 1 16 30
M  V30 32 1 16 31
M  V30 33 1 20 32
M  V30 34 1 20 33
M  V30 END BOND
M  V30 END CTAB
M  END
