
     RDKit          3D

  0  0  0  0  0  0  0  0  0  0999 V3000
M  V30 BEGIN CTAB
M  V30 COUNTS 24 24 0 0 0
M  V30 BEGIN ATOM
M  V30 1 N -0.26087 0.832902 -1.76672 0
M  V30 2 C -0.933835 0.580278 -0.523362 0
M  V30 3 C -2.06595 -0.417824 -0.656983 0
M  V30 4 C -2.30653 -0.850499 0.77446 0
M  V30 5 C -1.05935 -0.483853 1.55057 0
M  V30 6 C -0.0686325 -0.185587 0.464249 0
M  V30 7 N 1.09518 0.508665 0.868828 0
M  V30 8 S 2.57115 -0.261269 0.527981 0
M  V30 9 O 2.48392 -1.73803 0.473368 0
M  V30 10 O 3.60417 0.239902 1.49811 0
M  V30 11 N 3.08766 0.273409 -1.05477 0
M  V30 12 H 0.403799 1.6067 -1.62185 0
M  V30 13 H -0.995378 1.04693 -2.48349 0
M  V30 14 H -1.35914 1.49961 -0.0717836 0
M  V30 15 H -1.65016 -1.29285 -1.22861 0
M  V30 16 H -2.95702 -0.00117568 -1.14232 0
M  V30 17 H -2.527 -1.94607 0.849866 0
M  V30 18 H -3.20324 -0.272304 1.12834 0
M  V30 19 H -1.31596 0.412022 2.15454 0
M  V30 20 H -0.780096 -1.34926 2.18454 0
M  V30 21 H 0.189701 -1.14839 -0.0239276 0
M  V30 22 H 1.09049 1.52041 0.757752 0
M  V30 23 H 4.117 0.147912 -1.13975 0
M  V30 24 H 2.84011 1.27835 -1.20076 0
M  V30 END ATOM
M  V30 BEGIN BOND
M  V30 1 1 1 2
M  V30 2 1 2 3
M  V30 3 1 3 4
M  V30 4 1 4 5
M  V30 5 1 5 6
M  V30 6 1 6 7
M  V30 7 1 7 8
M  V30 8 2 8 9
M  V30 9 2 8 10
M  V30 10 1 8 11
M  V30 11 1 6 2
M  V30 12 1 1 12
M  V30 13 1 1 13
M  V30 14 1 2 14
M  V30 15 1 3 15
M  V30 16 1 3 16
M  V30 17 1 4 17
M  V30 18 1 4 18
M  V30 19 1 5 19
M  V30 20 1 5 20
M  V30 21 1 6 21
M  V30 22 1 7 22
M  V30 23 1 11 23
M  V30 24 1 11 24
M  V30 END BOND
M  V30 END CTAB
M  END
