
     RDKit          3D

  0  0  0  0  0  0  0  0  0  0999 V3000
M  V30 BEGIN CTAB
M  V30 COUNTS 42 44 0 0 0
M  V30 BEGIN ATOM
M  V30 1 C -5.0216 -0.297318 1.4034 0
M  V30 2 N -4.26698 0.883367 1.12611 0
M  V30 3 C -4.28567 1.73061 2.30488 0
M  V30 4 C -2.91205 0.698671 0.739025 0
M  V30 5 C -2.67366 0.0519275 -0.572652 0
M  V30 6 C -1.37715 -0.172553 -0.957423 0
M  V30 7 C -1.15177 -0.772726 -2.20121 0
M  V30 8 C -2.19775 -1.12787 -3.01621 0
M  V30 9 C -3.48108 -0.893973 -2.61264 0
M  V30 10 C -3.71499 -0.304541 -1.39252 0
M  V30 11 C 0.272228 -0.93286 -2.44677 0
M  V30 12 O 0.85697 -1.42546 -3.44151 0
M  V30 13 C 0.938888 -0.393925 -1.27612 0
M  V30 14 C -0.0308707 0.0623148 -0.381618 0
M  V30 15 C 0.337852 0.625018 0.814965 0
M  V30 16 C 1.69343 0.732276 1.12075 0
M  V30 17 C 2.6624 0.285793 0.247256 0
M  V30 18 C 2.26499 -0.270643 -0.938539 0
M  V30 19 C 4.0899 0.39134 0.553595 0
M  V30 20 O 4.41506 0.912613 1.66086 0
M  V30 21 N 5.05409 -0.0800934 -0.372035 0
M  V30 22 C 6.24298 -0.39436 0.0119367 0
M  V30 23 N 7.16609 -0.862663 -0.971035 0
M  V30 24 N 6.58069 -0.264855 1.36999 0
M  V30 25 H -6.03691 -0.168964 0.943796 0
M  V30 26 H -5.21629 -0.451522 2.50387 0
M  V30 27 H -4.53037 -1.23293 1.06193 0
M  V30 28 H -4.38747 1.0599 3.18282 0
M  V30 29 H -3.28913 2.23555 2.44203 0
M  V30 30 H -5.09827 2.4869 2.25691 0
M  V30 31 H -2.44684 1.69701 0.680744 0
M  V30 32 H -2.4708 0.019395 1.50654 0
M  V30 33 H -1.97821 -1.59831 -3.98733 0
M  V30 34 H -4.31795 -1.16909 -3.2463 0
M  V30 35 H -4.75487 -0.10709 -1.08917 0
M  V30 36 H -0.405116 0.97905 1.50256 0
M  V30 37 H 1.99367 1.17332 2.05958 0
M  V30 38 H 3.02243 -0.624592 -1.63167 0
M  V30 39 H 7.27269 -1.86321 -1.23343 0
M  V30 40 H 7.77414 -0.173702 -1.46158 0
M  V30 41 H 6.50715 -1.10699 1.98043 0
M  V30 42 H 6.90014 0.665184 1.75579 0
M  V30 END ATOM
M  V30 BEGIN BOND
M  V30 1 1 1 2
M  V30 2 1 2 3
M  V30 3 1 2 4
M  V30 4 1 4 5
M  V30 5 2 5 6
M  V30 6 1 6 7
M  V30 7 2 7 8
M  V30 8 1 8 9
M  V30 9 2 9 10
M  V30 10 1 7 11
M  V30 11 2 11 12
M  V30 12 1 11 13
M  V30 13 2 13 14
M  V30 14 1 14 15
M  V30 15 2 15 16
M  V30 16 1 16 17
M  V30 17 2 17 18
M  V30 18 1 17 19
M  V30 19 2 19 20
M  V30 20 1 19 21
M  V30 21 2 21 22
M  V30 22 1 22 23
M  V30 23 1 22 24
M  V30 24 1 10 5
M  V30 25 1 18 13
M  V30 26 1 14 6
M  V30 27 1 1 25
M  V30 28 1 1 26
M  V30 29 1 1 27
M  V30 30 1 3 28
M  V30 31 1 3 29
M  V30 32 1 3 30
M  V30 33 1 4 31
M  V30 34 1 4 32
M  V30 35 1 8 33
M  V30 36 1 9 34
M  V30 37 1 10 35
M  V30 38 1 15 36
M  V30 39 1 16 37
M  V30 40 1 18 38
M  V30 41 1 23 39
M  V30 42 1 23 40
M  V30 43 1 24 41
M  V30 44 1 24 42
M  V30 END BOND
M  V30 END CTAB
M  END
