
     RDKit          3D

  0  0  0  0  0  0  0  0  0  0999 V3000
M  V30 BEGIN CTAB
M  V30 COUNTS 22 22 0 0 0
M  V30 BEGIN ATOM
M  V30 1 N 1.07904 1.33442 -2.45579 0
M  V30 2 C 0.445787 0.66877 -1.36497 0
M  V30 3 C -0.886711 0.328811 -1.44192 0
M  V30 4 C -1.48915 -0.314688 -0.381301 0
M  V30 5 N -2.85166 -0.671675 -0.438993 0
M  V30 6 C -0.789473 -0.632817 0.769824 0
M  V30 7 C 0.545977 -0.284583 0.830126 0
M  V30 8 C 1.15805 0.359112 -0.224895 0
M  V30 9 C 2.55962 0.699889 -0.106309 0
M  V30 10 O 3.31236 0.414179 1.00571 0
M  V30 11 O 3.13265 1.28741 -1.06022 0
M  V30 12 C -1.42119 -1.3091 1.88551 0
M  V30 13 O -0.70027 -1.61512 3.0229 0
M  V30 14 O -2.62484 -1.62537 1.83663 0
M  V30 15 H 1.59849 0.78854 -3.16868 0
M  V30 16 H 1.02568 2.37116 -2.54589 0
M  V30 17 H -1.44314 0.579842 -2.35277 0
M  V30 18 H -3.13507 -1.65417 -0.579084 0
M  V30 19 H -3.57851 0.0550418 -0.340391 0
M  V30 20 H 1.09853 -0.537872 1.74379 0
M  V30 21 H 2.99085 0.756024 1.9187 0
M  V30 22 H -0.0270053 -0.997806 3.44804 0
M  V30 END ATOM
M  V30 BEGIN BOND
M  V30 1 1 1 2
M  V30 2 2 2 3
M  V30 3 1 3 4
M  V30 4 1 4 5
M  V30 5 2 4 6
M  V30 6 1 6 7
M  V30 7 2 7 8
M  V30 8 1 8 9
M  V30 9 1 9 10
M  V30 10 2 9 11
M  V30 11 1 6 12
M  V30 12 1 12 13
M  V30 13 2 12 14
M  V30 14 1 8 2
M  V30 15 1 1 15
M  V30 16 1 1 16
M  V30 17 1 3 17
M  V30 18 1 5 18
M  V30 19 1 5 19
M  V30 20 1 7 20
M  V30 21 1 10 21
M  V30 22 1 13 22
M  V30 END BOND
M  V30 END CTAB
M  END
