
     RDKit          3D

  0  0  0  0  0  0  0  0  0  0999 V3000
M  V30 BEGIN CTAB
M  V30 COUNTS 28 29 0 0 0
M  V30 BEGIN ATOM
M  V30 1 N -3.68613 1.93804 0.360951 0
M  V30 2 C -2.91253 0.81915 -0.0430211 0
M  V30 3 C -3.45519 -0.217553 -0.785333 0
M  V30 4 C -2.73835 -1.31984 -1.19663 0
M  V30 5 C -1.38605 -1.41584 -0.854805 0
M  V30 6 C -0.819606 -0.398744 -0.115863 0
M  V30 7 C -1.56621 0.702546 0.285272 0
M  V30 8 O -0.962139 1.69456 1.02098 0
M  V30 9 C 0.586886 -0.510942 0.246939 0
M  V30 10 C 1.57098 0.157682 -0.439998 0
M  V30 11 O 1.26697 0.991009 -1.5278 0
M  V30 12 C 2.89343 0.0304545 -0.0808505 0
M  V30 13 N 3.95281 0.714604 -0.775325 0
M  V30 14 C 3.19542 -0.794312 0.995956 0
M  V30 15 C 2.19975 -1.45756 1.67429 0
M  V30 16 C 0.874352 -1.33176 1.31688 0
M  V30 17 H -3.41582 2.86971 -0.00159947 0
M  V30 18 H -4.49515 1.83889 0.997729 0
M  V30 19 H -4.51771 -0.108883 -1.03333 0
M  V30 20 H -3.18556 -2.12358 -1.77885 0
M  V30 21 H -0.827513 -2.27876 -1.17725 0
M  V30 22 H 0.00811354 1.61684 1.25388 0
M  V30 23 H 1.98824 1.48509 -2.03302 0
M  V30 24 H 4.3033 0.449534 -1.70414 0
M  V30 25 H 4.41024 1.55091 -0.304366 0
M  V30 26 H 4.21191 -0.922814 1.30833 0
M  V30 27 H 2.40732 -2.11134 2.5226 0
M  V30 28 H 0.0982307 -1.86708 1.86838 0
M  V30 END ATOM
M  V30 BEGIN BOND
M  V30 1 1 1 2
M  V30 2 2 2 3
M  V30 3 1 3 4
M  V30 4 2 4 5
M  V30 5 1 5 6
M  V30 6 2 6 7
M  V30 7 1 7 8
M  V30 8 1 6 9
M  V30 9 2 9 10
M  V30 10 1 10 11
M  V30 11 1 10 12
M  V30 12 1 12 13
M  V30 13 2 12 14
M  V30 14 1 14 15
M  V30 15 2 15 16
M  V30 16 1 7 2
M  V30 17 1 16 9
M  V30 18 1 1 17
M  V30 19 1 1 18
M  V30 20 1 3 19
M  V30 21 1 4 20
M  V30 22 1 5 21
M  V30 23 1 8 22
M  V30 24 1 11 23
M  V30 25 1 13 24
M  V30 26 1 13 25
M  V30 27 1 14 26
M  V30 28 1 15 27
M  V30 29 1 16 28
M  V30 END BOND
M  V30 END CTAB
M  END
