
     RDKit          3D

  0  0  0  0  0  0  0  0  0  0999 V3000
M  V30 BEGIN CTAB
M  V30 COUNTS 20 20 0 0 0
M  V30 BEGIN ATOM
M  V30 1 C 3.71511 0.746042 0.213124 0
M  V30 2 S 2.55852 0.697883 -1.16281 0
M  V30 3 C 0.929969 0.161698 -0.660957 0
M  V30 4 C 0.678223 -1.19408 -0.710565 0
M  V30 5 C -0.55944 -1.67177 -0.336196 0
M  V30 6 C -1.56109 -0.820779 0.0904377 0
M  V30 7 C -1.27469 0.541408 0.128866 0
M  V30 8 C -0.0449106 1.04077 -0.24065 0
M  V30 9 F 0.233011 2.34373 -0.205233 0
M  V30 10 N -2.32849 1.40798 0.574828 0
M  V30 11 N -2.83625 -1.29727 0.477725 0
M  V30 12 H 3.14612 0.764098 1.14793 0
M  V30 13 H 4.44983 1.57672 0.142706 0
M  V30 14 H 4.30504 -0.21105 0.18353 0
M  V30 15 H 1.45756 -1.88755 -1.04563 0
M  V30 16 H -0.747039 -2.73759 -0.378702 0
M  V30 17 H -2.19072 2.13051 1.31278 0
M  V30 18 H -3.29381 1.35105 0.172827 0
M  V30 19 H -3.6422 -0.647585 0.533246 0
M  V30 20 H -2.99473 -2.29422 0.712514 0
M  V30 END ATOM
M  V30 BEGIN BOND
M  V30 1 1 1 2
M  V30 2 1 2 3
M  V30 3 2 3 4
M  V30 4 1 4 5
M  V30 5 2 5 6
M  V30 6 1 6 7
M  V30 7 2 7 8
M  V30 8 1 8 9
M  V30 9 1 7 10
M  V30 10 1 6 11
M  V30 11 1 8 3
M  V30 12 1 1 12
M  V30 13 1 1 13
M  V30 14 1 1 14
M  V30 15 1 4 15
M  V30 16 1 5 16
M  V30 17 1 10 17
M  V30 18 1 10 18
M  V30 19 1 11 19
M  V30 20 1 11 20
M  V30 END BOND
M  V30 END CTAB
M  END
