
     RDKit          3D

  0  0  0  0  0  0  0  0  0  0999 V3000
M  V30 BEGIN CTAB
M  V30 COUNTS 35 36 0 0 0
M  V30 BEGIN ATOM
M  V30 1 N 4.22487 0.957408 -0.905252 0
M  V30 2 C 3.51603 1.65372 0.101096 0
M  V30 3 C 2.0611 1.48533 0.0137116 0
M  V30 4 N 1.54016 0.136783 0.114865 0
M  V30 5 C 1.72315 -0.428718 1.43184 0
M  V30 6 C 1.38669 -1.90543 1.346 0
M  V30 7 O -0.0191547 -1.98562 1.45539 0
M  V30 8 C -0.542299 -2.14091 0.178475 0
M  V30 9 C -0.61969 -0.875209 -0.601711 0 CFG=2
M  V30 10 C 0.105222 0.294206 -0.0510786 0
M  V30 11 N -2.03991 -0.468561 -0.649004 0
M  V30 12 C -3.11463 -1.23697 -0.910786 0
M  V30 13 C -4.26475 -0.474709 -0.854588 0
M  V30 14 C -3.85651 0.786973 -0.548958 0
M  V30 15 N -2.52653 0.754011 -0.433694 0
M  V30 16 N -4.64145 1.96646 -0.367876 0
M  V30 17 H 4.63436 1.42151 -1.65838 0
M  V30 18 H 4.37446 -0.00405736 -0.676838 0
M  V30 19 H 3.72916 2.75554 -0.0505064 0
M  V30 20 H 3.97632 1.40509 1.07012 0
M  V30 21 H 1.51781 2.08792 0.797032 0
M  V30 22 H 1.69923 1.89145 -0.952729 0
M  V30 23 H 1.05053 0.108444 2.12178 0
M  V30 24 H 2.75788 -0.361718 1.79951 0
M  V30 25 H 1.87199 -2.44423 2.18851 0
M  V30 26 H 1.74695 -2.33709 0.387858 0
M  V30 27 H 0.106051 -2.89419 -0.330344 0
M  V30 28 H -1.53124 -2.623 0.298021 0
M  V30 29 H -0.275635 -1.06499 -1.6409 0
M  V30 30 H -0.104621 1.14965 -0.762277 0
M  V30 31 H -0.327187 0.647118 0.917364 0
M  V30 32 H -3.07124 -2.28945 -1.13143 0
M  V30 33 H -5.274 -0.796187 -1.01395 0
M  V30 34 H -5.29902 2.1075 0.403365 0
M  V30 35 H -4.51411 2.72192 -1.08463 0
M  V30 END ATOM
M  V30 BEGIN BOND
M  V30 1 1 1 2
M  V30 2 1 2 3
M  V30 3 1 3 4
M  V30 4 1 4 5
M  V30 5 1 5 6
M  V30 6 1 6 7
M  V30 7 1 7 8
M  V30 8 1 8 9
M  V30 9 1 9 10
M  V30 10 1 9 11
M  V30 11 1 11 12
M  V30 12 2 12 13
M  V30 13 1 13 14
M  V30 14 2 14 15
M  V30 15 1 14 16
M  V30 16 1 10 4
M  V30 17 1 15 11
M  V30 18 1 1 17
M  V30 19 1 1 18
M  V30 20 1 2 19
M  V30 21 1 2 20
M  V30 22 1 3 21
M  V30 23 1 3 22
M  V30 24 1 5 23
M  V30 25 1 5 24
M  V30 26 1 6 25
M  V30 27 1 6 26
M  V30 28 1 8 27
M  V30 29 1 8 28
M  V30 30 1 9 29 CFG=3
M  V30 31 1 10 30
M  V30 32 1 10 31
M  V30 33 1 12 32
M  V30 34 1 13 33
M  V30 35 1 16 34
M  V30 36 1 16 35
M  V30 END BOND
M  V30 END CTAB
M  END
