
     RDKit          3D

  0  0  0  0  0  0  0  0  0  0999 V3000
M  V30 BEGIN CTAB
M  V30 COUNTS 38 41 0 0 0
M  V30 BEGIN ATOM
M  V30 1 N -7.10695 1.61455 0.165147 0
M  V30 2 C -5.80811 1.00945 0.181159 0
M  V30 3 N -4.71239 1.76713 0.00433156 0
M  V30 4 C -3.47166 1.22547 0.0141641 0
M  V30 5 N -2.30346 2.01048 -0.170967 0
M  V30 6 C -3.30541 -0.121845 0.206804 0
M  V30 7 C -2.16648 -0.934455 0.263171 0
M  V30 8 C -0.757393 -0.467412 0.111887 0
M  V30 9 N 0.170556 -1.55065 0.221081 0
M  V30 10 C 1.56652 -1.23087 0.0925485 0
M  V30 11 C 2.47703 -2.25609 0.194016 0
M  V30 12 C 3.84674 -1.99953 0.0765123 0
M  V30 13 C 4.27901 -0.703389 -0.143062 0
M  V30 14 C 5.63517 -0.41609 -0.264375 0
M  V30 15 C 6.11069 0.859209 -0.483285 0
M  V30 16 C 5.16872 1.86114 -0.579439 0
M  V30 17 C 3.82185 1.62539 -0.466403 0
M  V30 18 C 3.38369 0.339538 -0.248062 0
M  V30 19 C 2.02569 0.0440628 -0.125391 0
M  V30 20 C -2.6779 -2.19337 0.481578 0
M  V30 21 O -4.00561 -2.12871 0.548344 0
M  V30 22 C -4.41838 -0.905703 0.388557 0
M  V30 23 N -5.64841 -0.310412 0.370057 0
M  V30 24 H -7.32213 2.47383 -0.385875 0
M  V30 25 H -7.88887 1.2016 0.717022 0
M  V30 26 H -1.81923 2.42279 0.632575 0
M  V30 27 H -1.96372 2.14802 -1.14408 0
M  V30 28 H -0.496725 0.263957 0.931909 0
M  V30 29 H -0.618215 0.106253 -0.82946 0
M  V30 30 H -0.152911 -2.51062 0.383944 0
M  V30 31 H 2.18757 -3.28327 0.364969 0
M  V30 32 H 4.58853 -2.7777 0.150591 0
M  V30 33 H 6.33294 -1.25179 -0.179109 0
M  V30 34 H 7.17817 1.03901 -0.571816 0
M  V30 35 H 5.5302 2.86586 -0.751139 0
M  V30 36 H 3.09066 2.41079 -0.542188 0
M  V30 37 H 1.31813 0.840112 -0.204156 0
M  V30 38 H -2.06792 -3.08675 0.580533 0
M  V30 END ATOM
M  V30 BEGIN BOND
M  V30 1 1 1 2
M  V30 2 2 2 3
M  V30 3 1 3 4
M  V30 4 1 4 5
M  V30 5 2 4 6
M  V30 6 1 6 7
M  V30 7 1 7 8
M  V30 8 1 8 9
M  V30 9 1 9 10
M  V30 10 2 10 11
M  V30 11 1 11 12
M  V30 12 2 12 13
M  V30 13 1 13 14
M  V30 14 2 14 15
M  V30 15 1 15 16
M  V30 16 2 16 17
M  V30 17 1 17 18
M  V30 18 2 18 19
M  V30 19 2 7 20
M  V30 20 1 20 21
M  V30 21 1 21 22
M  V30 22 2 22 23
M  V30 23 1 23 2
M  V30 24 1 22 6
M  V30 25 1 19 10
M  V30 26 1 18 13
M  V30 27 1 1 24
M  V30 28 1 1 25
M  V30 29 1 5 26
M  V30 30 1 5 27
M  V30 31 1 8 28
M  V30 32 1 8 29
M  V30 33 1 9 30
M  V30 34 1 11 31
M  V30 35 1 12 32
M  V30 36 1 14 33
M  V30 37 1 15 34
M  V30 38 1 16 35
M  V30 39 1 17 36
M  V30 40 1 19 37
M  V30 41 1 20 38
M  V30 END BOND
M  V30 END CTAB
M  END
