
     RDKit          3D

  0  0  0  0  0  0  0  0  0  0999 V3000
M  V30 BEGIN CTAB
M  V30 COUNTS 17 17 0 0 0
M  V30 BEGIN ATOM
M  V30 1 N 2.25748 -1.03852 0.429367 0
M  V30 2 C 1.47222 0.0866175 0.088573 0
M  V30 3 C 0.0182192 -0.180447 0.0325882 0
M  V30 4 C -0.554098 -1.39552 0.281898 0
M  V30 5 N -1.88374 -1.56231 0.211682 0
M  V30 6 C -2.7157 -0.535406 -0.108844 0
M  V30 7 N -2.18438 0.670687 -0.359379 0
M  V30 8 C -0.833015 0.858754 -0.292553 0
M  V30 9 N -0.270745 2.13923 -0.558697 0
M  V30 10 H 1.9388 -1.66216 1.14515 0
M  V30 11 H 3.20369 -1.08064 0.0912759 0
M  V30 12 H 1.79521 0.512233 -0.885469 0
M  V30 13 H 1.63469 0.885695 0.84319 0
M  V30 14 H 0.0760398 -2.22763 0.537905 0
M  V30 15 H -3.78428 -0.639188 -0.172672 0
M  V30 16 H 0.497787 2.22656 -1.25655 0
M  V30 17 H -0.668173 2.94205 -0.0274665 0
M  V30 END ATOM
M  V30 BEGIN BOND
M  V30 1 1 1 2
M  V30 2 1 2 3
M  V30 3 2 3 4
M  V30 4 1 4 5
M  V30 5 2 5 6
M  V30 6 1 6 7
M  V30 7 2 7 8
M  V30 8 1 8 9
M  V30 9 1 8 3
M  V30 10 1 1 10
M  V30 11 1 1 11
M  V30 12 1 2 12
M  V30 13 1 2 13
M  V30 14 1 4 14
M  V30 15 1 6 15
M  V30 16 1 9 16
M  V30 17 1 9 17
M  V30 END BOND
M  V30 END CTAB
M  END
