
     RDKit          3D

  0  0  0  0  0  0  0  0  0  0999 V3000
M  V30 BEGIN CTAB
M  V30 COUNTS 72 77 0 0 0
M  V30 BEGIN ATOM
M  V30 1 C 10.5028 0.706735 -2.64803 0
M  V30 2 O 10.0801 -0.0829233 -1.59227 0
M  V30 3 C 8.7197 -0.289587 -1.63443 0
M  V30 4 C 8.30727 -1.16073 -0.457154 0
M  V30 5 N 6.87895 -1.40607 -0.455523 0
M  V30 6 C 6.20004 -2.40511 -1.04075 0
M  V30 7 N 4.90708 -2.22363 -0.772101 0
M  V30 8 C 4.74353 -1.12376 -0.0240055 0
M  V30 9 C 5.9994 -0.611747 0.171823 0
M  V30 10 C 6.09018 0.537555 0.924341 0
M  V30 11 C 4.98236 1.13312 1.44676 0
M  V30 12 C 3.68291 0.591174 1.23589 0
M  V30 13 C 3.5815 -0.554605 0.486506 0
M  V30 14 C 2.58103 1.29368 1.81287 0
M  V30 15 O 2.84892 2.41434 2.43214 0
M  V30 16 N 1.22418 0.97609 1.82948 0
M  V30 17 C 0.52778 -0.149542 1.28795 0
M  V30 18 C -0.947849 -0.125962 1.73106 0
M  V30 19 C -1.65076 1.1115 1.19491 0
M  V30 20 C -0.794208 2.34324 1.54208 0
M  V30 21 C 0.295123 1.94128 2.51199 0
M  V30 22 O -1.63048 1.02833 -0.19145 0
M  V30 23 C -2.47227 0.103964 -0.742713 0
M  V30 24 C -3.88052 0.415286 -0.367756 0 CFG=2
M  V30 25 C -4.11447 0.620126 1.08762 0 CFG=2
M  V30 26 C -2.99144 1.31482 1.79737 0
M  V30 27 C -4.46929 -0.67537 1.79777 0
M  V30 28 O -5.25771 1.44441 1.20988 0
M  V30 29 N -4.75257 -0.623205 -0.89568 0
M  V30 30 C -4.46795 -1.91254 -1.1183 0
M  V30 31 N -5.56588 -2.50688 -1.60946 0
M  V30 32 C -6.54367 -1.61236 -1.70151 0
M  V30 33 C -6.03306 -0.432459 -1.25389 0
M  V30 34 N -6.86005 0.640953 -1.25396 0
M  V30 35 C -8.14039 0.568586 -1.67569 0
M  V30 36 N -8.97249 1.70995 -1.6611 0
M  V30 37 N -8.6316 -0.621294 -2.11956 0
M  V30 38 C -7.85116 -1.72307 -2.14091 0
M  V30 39 N -8.30858 -2.98109 -2.58986 0
M  V30 40 H 11.5926 0.867013 -2.60564 0
M  V30 41 H 10.2924 0.209942 -3.63249 0
M  V30 42 H 9.92608 1.65652 -2.64574 0
M  V30 43 H 8.11284 0.635776 -1.59065 0
M  V30 44 H 8.45312 -0.864452 -2.54576 0
M  V30 45 H 8.88978 -2.12004 -0.549398 0
M  V30 46 H 8.61244 -0.614237 0.482195 0
M  V30 47 H 6.66907 -3.20955 -1.6274 0
M  V30 48 H 7.07518 0.952555 1.08686 0
M  V30 49 H 5.05184 2.03659 2.03961 0
M  V30 50 H 2.65198 -1.0392 0.259834 0
M  V30 51 H 0.526972 -0.19258 0.199165 0
M  V30 52 H 0.904454 -1.12991 1.68721 0
M  V30 53 H -1.37121 -1.066 1.32428 0
M  V30 54 H -0.93271 -0.111383 2.83461 0
M  V30 55 H -1.45011 3.04445 2.08108 0
M  V30 56 H -0.411895 2.84167 0.653397 0
M  V30 57 H -0.0443053 1.56892 3.46619 0
M  V30 58 H 0.902137 2.84342 2.69398 0
M  V30 59 H -2.24466 -0.942738 -0.491794 0
M  V30 60 H -2.37181 0.188764 -1.84707 0
M  V30 61 H -4.15533 1.37373 -0.888538 0
M  V30 62 H -3.21219 2.42063 1.87733 0
M  V30 63 H -2.9774 0.956489 2.84826 0
M  V30 64 H -4.4357 -0.493833 2.89618 0
M  V30 65 H -5.53795 -0.884584 1.55341 0
M  V30 66 H -3.83815 -1.50775 1.48888 0
M  V30 67 H -5.43608 1.59011 2.15514 0
M  V30 68 H -3.55045 -2.42527 -0.952425 0
M  V30 69 H -9.46597 1.96829 -0.791567 0
M  V30 70 H -9.07377 2.26781 -2.52236 0
M  V30 71 H -8.79197 -3.61077 -1.91989 0
M  V30 72 H -8.17565 -3.29522 -3.57123 0
M  V30 END ATOM
M  V30 BEGIN BOND
M  V30 1 1 1 2
M  V30 2 1 2 3
M  V30 3 1 3 4
M  V30 4 1 4 5
M  V30 5 1 5 6
M  V30 6 2 6 7
M  V30 7 1 7 8
M  V30 8 2 8 9
M  V30 9 1 9 10
M  V30 10 2 10 11
M  V30 11 1 11 12
M  V30 12 2 12 13
M  V30 13 1 12 14
M  V30 14 2 14 15
M  V30 15 1 14 16
M  V30 16 1 16 17
M  V30 17 1 17 18
M  V30 18 1 18 19
M  V30 19 1 19 20
M  V30 20 1 20 21
M  V30 21 1 19 22
M  V30 22 1 22 23
M  V30 23 1 23 24
M  V30 24 1 24 25
M  V30 25 1 25 26
M  V30 26 1 25 27
M  V30 27 1 25 28 CFG=3
M  V30 28 1 24 29
M  V30 29 1 29 30
M  V30 30 2 30 31
M  V30 31 1 31 32
M  V30 32 2 32 33
M  V30 33 1 33 34
M  V30 34 2 34 35
M  V30 35 1 35 36
M  V30 36 1 35 37
M  V30 37 2 37 38
M  V30 38 1 38 39
M  V30 39 1 9 5
M  V30 40 1 21 16
M  V30 41 1 33 29
M  V30 42 1 13 8
M  V30 43 1 26 19
M  V30 44 1 38 32
M  V30 45 1 1 40
M  V30 46 1 1 41
M  V30 47 1 1 42
M  V30 48 1 3 43
M  V30 49 1 3 44
M  V30 50 1 4 45
M  V30 51 1 4 46
M  V30 52 1 6 47
M  V30 53 1 10 48
M  V30 54 1 11 49
M  V30 55 1 13 50
M  V30 56 1 17 51
M  V30 57 1 17 52
M  V30 58 1 18 53
M  V30 59 1 18 54
M  V30 60 1 20 55
M  V30 61 1 20 56
M  V30 62 1 21 57
M  V30 63 1 21 58
M  V30 64 1 23 59
M  V30 65 1 23 60
M  V30 66 1 24 61 CFG=3
M  V30 67 1 26 62
M  V30 68 1 26 63
M  V30 69 1 27 64
M  V30 70 1 27 65
M  V30 71 1 27 66
M  V30 72 1 28 67
M  V30 73 1 30 68
M  V30 74 1 36 69
M  V30 75 1 36 70
M  V30 76 1 39 71
M  V30 77 1 39 72
M  V30 END BOND
M  V30 END CTAB
M  END
