
     RDKit          3D

  0  0  0  0  0  0  0  0  0  0999 V3000
M  V30 BEGIN CTAB
M  V30 COUNTS 38 40 0 0 0
M  V30 BEGIN ATOM
M  V30 1 N -4.16385 -3.89576 1.04482 0
M  V30 2 C -2.71558 -3.83223 0.718148 0
M  V30 3 N -2.33181 -5.24742 0.614512 0
M  V30 4 C -1.95009 -3.26167 1.85287 0
M  V30 5 C -1.12455 -2.07371 1.53107 0
M  V30 6 C -1.02881 -1.51182 0.356755 0
M  V30 7 C -1.78903 -2.09485 -0.719025 0
M  V30 8 C -2.55725 -3.14607 -0.568432 0
M  V30 9 C -0.18935 -0.324151 0.09346 0
M  V30 10 C -0.09692 0.249246 -1.15435 0
M  V30 11 C 0.704141 1.37839 -1.38486 0
M  V30 12 C 1.4353 1.9691 -0.382938 0
M  V30 13 C 1.35 1.40482 0.865183 0
M  V30 14 C 0.549754 0.277148 1.09446 0
M  V30 15 C 2.2683 3.1434 -0.623129 0
M  V30 16 C 2.51408 4.11786 0.321056 0
M  V30 17 C 3.29861 5.22173 0.0895889 0
M  V30 18 C 3.87799 5.36794 -1.16311 0
M  V30 19 C 3.65933 4.4173 -2.13839 0
M  V30 20 C 2.86553 3.32548 -1.86355 0
M  V30 21 H -4.46753 -2.96449 1.43797 0
M  V30 22 H -4.62685 -3.99486 0.108585 0
M  V30 23 H -2.3141 -5.66989 1.56941 0
M  V30 24 H -3.10112 -5.7743 0.100567 0
M  V30 25 H -1.35851 -4.02835 2.41565 0
M  V30 26 H -2.70828 -2.92176 2.6281 0
M  V30 27 H -0.568833 -1.66417 2.35824 0
M  V30 28 H -1.74215 -1.65786 -1.72491 0
M  V30 29 H -3.11736 -3.53509 -1.4676 0
M  V30 30 H -0.637145 -0.154199 -1.98711 0
M  V30 31 H 0.768552 1.81956 -2.36976 0
M  V30 32 H 1.92204 1.85715 1.67651 0
M  V30 33 H 0.521954 -0.122088 2.0954 0
M  V30 34 H 2.04539 3.97919 1.30177 0
M  V30 35 H 3.49297 5.98608 0.826131 0
M  V30 36 H 4.5012 6.22253 -1.38378 0
M  V30 37 H 4.13168 4.56401 -3.11506 0
M  V30 38 H 2.68231 2.57381 -2.6076 0
M  V30 END ATOM
M  V30 BEGIN BOND
M  V30 1 1 1 2
M  V30 2 1 2 3
M  V30 3 1 2 4
M  V30 4 1 4 5
M  V30 5 2 5 6
M  V30 6 1 6 7
M  V30 7 2 7 8
M  V30 8 1 6 9
M  V30 9 2 9 10
M  V30 10 1 10 11
M  V30 11 2 11 12
M  V30 12 1 12 13
M  V30 13 2 13 14
M  V30 14 1 12 15
M  V30 15 2 15 16
M  V30 16 1 16 17
M  V30 17 2 17 18
M  V30 18 1 18 19
M  V30 19 2 19 20
M  V30 20 1 8 2
M  V30 21 1 14 9
M  V30 22 1 20 15
M  V30 23 1 1 21
M  V30 24 1 1 22
M  V30 25 1 3 23
M  V30 26 1 3 24
M  V30 27 1 4 25
M  V30 28 1 4 26
M  V30 29 1 5 27
M  V30 30 1 7 28
M  V30 31 1 8 29
M  V30 32 1 10 30
M  V30 33 1 11 31
M  V30 34 1 13 32
M  V30 35 1 14 33
M  V30 36 1 16 34
M  V30 37 1 17 35
M  V30 38 1 18 36
M  V30 39 1 19 37
M  V30 40 1 20 38
M  V30 END BOND
M  V30 END CTAB
M  END
