
     RDKit          3D

  0  0  0  0  0  0  0  0  0  0999 V3000
M  V30 BEGIN CTAB
M  V30 COUNTS 25 26 0 0 0
M  V30 BEGIN ATOM
M  V30 1 C 4.43152 0.294033 0.146749 0
M  V30 2 O 3.16955 0.616265 0.682378 0
M  V30 3 C 1.97738 0.172119 0.124981 0
M  V30 4 C 2.01212 -0.61726 -0.998934 0
M  V30 5 C 0.830837 -1.07796 -1.58049 0
M  V30 6 C -0.400206 -0.762888 -1.05655 0
M  V30 7 C -0.426992 0.0335944 0.0769563 0
M  V30 8 C 0.74508 0.487072 0.648823 0
M  V30 9 C -1.67603 0.335587 0.583415 0
M  V30 10 N -1.75966 1.14236 1.73514 0
M  V30 11 C -2.85225 -0.114346 0.0168283 0
M  V30 12 C -2.74527 -0.906368 -1.11531 0
M  V30 13 N -1.53 -1.21366 -1.6272 0
M  V30 14 N -4.12951 0.207293 0.552889 0
M  V30 15 H 4.60133 0.903681 -0.774624 0
M  V30 16 H 4.49284 -0.77666 -0.163242 0
M  V30 17 H 5.23922 0.53242 0.868026 0
M  V30 18 H 2.93534 -0.909267 -1.47126 0
M  V30 19 H 0.8509 -1.6953 -2.45901 0
M  V30 20 H 0.708303 1.10527 1.52959 0
M  V30 21 H -2.36205 1.99494 1.7554 0
M  V30 22 H -1.22937 0.920962 2.6004 0
M  V30 23 H -3.65063 -1.27789 -1.58723 0
M  V30 24 H -4.76584 -0.571979 0.784233 0
M  V30 25 H -4.46661 1.17799 0.728051 0
M  V30 END ATOM
M  V30 BEGIN BOND
M  V30 1 1 1 2
M  V30 2 1 2 3
M  V30 3 2 3 4
M  V30 4 1 4 5
M  V30 5 2 5 6
M  V30 6 1 6 7
M  V30 7 2 7 8
M  V30 8 1 7 9
M  V30 9 1 9 10
M  V30 10 2 9 11
M  V30 11 1 11 12
M  V30 12 2 12 13
M  V30 13 1 11 14
M  V30 14 1 8 3
M  V30 15 1 13 6
M  V30 16 1 1 15
M  V30 17 1 1 16
M  V30 18 1 1 17
M  V30 19 1 4 18
M  V30 20 1 5 19
M  V30 21 1 8 20
M  V30 22 1 10 21
M  V30 23 1 10 22
M  V30 24 1 12 23
M  V30 25 1 14 24
M  V30 26 1 14 25
M  V30 END BOND
M  V30 END CTAB
M  END
