
     RDKit          3D

  0  0  0  0  0  0  0  0  0  0999 V3000
M  V30 BEGIN CTAB
M  V30 COUNTS 18 18 0 0 0
M  V30 BEGIN ATOM
M  V30 1 C -1.29003 1.96638 0.252218 0
M  V30 2 C -0.383035 0.805523 0.126051 0
M  V30 3 C -0.942604 -0.415744 -0.209496 0
M  V30 4 N -2.34375 -0.511102 -0.41755 0
M  V30 5 C -0.171812 -1.56133 -0.350658 0
M  V30 6 C 1.19159 -1.4459 -0.143367 0
M  V30 7 C 1.7291 -0.22056 0.190093 0
M  V30 8 N 3.13359 -0.158724 0.391456 0
M  V30 9 N 0.946967 0.875641 0.319201 0
M  V30 10 H -1.73739 2.2062 -0.744142 0
M  V30 11 H -0.713296 2.86704 0.542003 0
M  V30 12 H -2.14305 1.78406 0.931932 0
M  V30 13 H -2.92452 0.309605 -0.681977 0
M  V30 14 H -2.83761 -1.4239 -0.308766 0
M  V30 15 H -0.64134 -2.49802 -0.613425 0
M  V30 16 H 1.83231 -2.33201 -0.246584 0
M  V30 17 H 3.78833 -0.663376 -0.212789 0
M  V30 18 H 3.50655 0.416204 1.1758 0
M  V30 END ATOM
M  V30 BEGIN BOND
M  V30 1 1 1 2
M  V30 2 2 2 3
M  V30 3 1 3 4
M  V30 4 1 3 5
M  V30 5 2 5 6
M  V30 6 1 6 7
M  V30 7 1 7 8
M  V30 8 2 7 9
M  V30 9 1 9 2
M  V30 10 1 1 10
M  V30 11 1 1 11
M  V30 12 1 1 12
M  V30 13 1 4 13
M  V30 14 1 4 14
M  V30 15 1 5 15
M  V30 16 1 6 16
M  V30 17 1 8 17
M  V30 18 1 8 18
M  V30 END BOND
M  V30 END CTAB
M  END
