
     RDKit          3D

  0  0  0  0  0  0  0  0  0  0999 V3000
M  V30 BEGIN CTAB
M  V30 COUNTS 25 25 0 0 0
M  V30 BEGIN ATOM
M  V30 1 N -0.0369893 1.90735 -0.390252 0
M  V30 2 C -0.531694 0.91687 0.565318 0
M  V30 3 C -2.0316 0.999252 0.521493 0
M  V30 4 O -2.43932 0.24563 -0.603354 0
M  V30 5 C -2.37622 -1.07635 -0.18383 0
M  V30 6 C -0.980942 -1.51295 0.0853034 0
M  V30 7 C 0.0119112 -0.446058 0.291718 0
M  V30 8 N 0.881278 -0.353831 -0.846639 0
M  V30 9 S 2.50348 -0.675463 -0.560176 0
M  V30 10 O 3.1413 -1.1234 -1.86931 0
M  V30 11 O 2.77947 -1.73686 0.442795 0
M  V30 12 N 3.30919 0.809208 -0.137325 0
M  V30 13 H 0.746535 2.46133 -0.0253774 0
M  V30 14 H -0.780171 2.47848 -0.803473 0
M  V30 15 H -0.220553 1.32001 1.57311 0
M  V30 16 H -2.46229 0.544829 1.42828 0
M  V30 17 H -2.31588 2.06175 0.375887 0
M  V30 18 H -2.89723 -1.68098 -0.953224 0
M  V30 19 H -2.97485 -1.11849 0.773533 0
M  V30 20 H -0.666883 -2.17467 -0.774987 0
M  V30 21 H -1.01955 -2.22506 0.96141 0
M  V30 22 H 0.656403 -0.731388 1.17453 0
M  V30 23 H 0.454273 -0.770655 -1.67718 0
M  V30 24 H 4.33722 0.680157 -0.104819 0
M  V30 25 H 2.91311 1.20131 0.736561 0
M  V30 END ATOM
M  V30 BEGIN BOND
M  V30 1 1 1 2
M  V30 2 1 2 3
M  V30 3 1 3 4
M  V30 4 1 4 5
M  V30 5 1 5 6
M  V30 6 1 6 7
M  V30 7 1 7 8
M  V30 8 1 8 9
M  V30 9 2 9 10
M  V30 10 2 9 11
M  V30 11 1 9 12
M  V30 12 1 7 2
M  V30 13 1 1 13
M  V30 14 1 1 14
M  V30 15 1 2 15
M  V30 16 1 3 16
M  V30 17 1 3 17
M  V30 18 1 5 18
M  V30 19 1 5 19
M  V30 20 1 6 20
M  V30 21 1 6 21
M  V30 22 1 7 22
M  V30 23 1 8 23
M  V30 24 1 12 24
M  V30 25 1 12 25
M  V30 END BOND
M  V30 END CTAB
M  END
