
     RDKit          3D

  0  0  0  0  0  0  0  0  0  0999 V3000
M  V30 BEGIN CTAB
M  V30 COUNTS 29 31 0 0 0
M  V30 BEGIN ATOM
M  V30 1 N 4.64059 -1.55799 1.50761 0
M  V30 2 C 3.67915 -0.84808 0.731417 0
M  V30 3 N 2.36077 -1.00736 0.946999 0
M  V30 4 C 1.42566 -0.350493 0.230018 0
M  V30 5 C 1.84782 0.511866 -0.755798 0
M  V30 6 C 0.915703 1.19219 -1.49935 0
M  V30 7 C -0.44424 0.981584 -1.22463 0
M  V30 8 C -0.858956 0.119694 -0.239544 0
M  V30 9 N 0.113042 -0.513723 0.44992 0
M  V30 10 C -2.26847 -0.106768 0.0544344 0
M  V30 11 C -2.62286 -0.989616 1.06158 0
M  V30 12 C -3.93012 -1.26107 1.40367 0
M  V30 13 C -4.89918 -0.601077 0.684157 0
M  V30 14 C -4.61884 0.283765 -0.323238 0
M  V30 15 C -3.28062 0.516592 -0.622529 0
M  V30 16 C 3.19634 0.677996 -0.979925 0
M  V30 17 N 3.58609 1.57796 -2.00736 0
M  V30 18 N 4.1081 -0.006689 -0.230887 0
M  V30 19 H 4.56469 -1.53266 2.56053 0
M  V30 20 H 5.42029 -2.10577 1.12321 0
M  V30 21 H 1.22523 1.8742 -2.27835 0
M  V30 22 H -1.15656 1.5409 -1.83737 0
M  V30 23 H -1.85312 -1.50801 1.62649 0
M  V30 24 H -4.22309 -1.94528 2.1847 0
M  V30 25 H -5.94604 -0.77367 0.907524 0
M  V30 26 H -5.37712 0.805423 -0.892149 0
M  V30 27 H -3.06762 1.21467 -1.41705 0
M  V30 28 H 3.6873 1.22851 -2.98705 0
M  V30 29 H 3.77605 2.5829 -1.8158 0
M  V30 END ATOM
M  V30 BEGIN BOND
M  V30 1 1 1 2
M  V30 2 2 2 3
M  V30 3 1 3 4
M  V30 4 2 4 5
M  V30 5 1 5 6
M  V30 6 2 6 7
M  V30 7 1 7 8
M  V30 8 2 8 9
M  V30 9 1 8 10
M  V30 10 2 10 11
M  V30 11 1 11 12
M  V30 12 2 12 13
M  V30 13 1 13 14
M  V30 14 2 14 15
M  V30 15 1 5 16
M  V30 16 1 16 17
M  V30 17 2 16 18
M  V30 18 1 18 2
M  V30 19 1 9 4
M  V30 20 1 15 10
M  V30 21 1 1 19
M  V30 22 1 1 20
M  V30 23 1 6 21
M  V30 24 1 7 22
M  V30 25 1 11 23
M  V30 26 1 12 24
M  V30 27 1 13 25
M  V30 28 1 14 26
M  V30 29 1 15 27
M  V30 30 1 17 28
M  V30 31 1 17 29
M  V30 END BOND
M  V30 END CTAB
M  END
