
     RDKit          3D

  0  0  0  0  0  0  0  0  0  0999 V3000
M  V30 BEGIN CTAB
M  V30 COUNTS 30 29 0 0 0
M  V30 BEGIN ATOM
M  V30 1 C -3.15375 -0.818871 -0.296311 0
M  V30 2 C -1.88053 -0.227592 0.393356 0
M  V30 3 C -1.76593 1.12495 -0.173782 0
M  V30 4 N -1.62926 1.15855 -1.61951 0
M  V30 5 C -0.812906 -1.22314 0.29879 0
M  V30 6 C 0.508797 -0.979306 0.884585 0
M  V30 7 C 1.39229 0.084931 0.373522 0
M  V30 8 C 1.75304 -0.183128 -1.09836 0
M  V30 9 C 2.77347 0.0395385 1.08306 0
M  V30 10 N 3.53101 1.13322 0.484872 0
M  V30 11 H -2.96288 -0.955452 -1.36583 0
M  V30 12 H -3.97524 -0.0827007 -0.173248 0
M  V30 13 H -3.37301 -1.79567 0.180004 0
M  V30 14 H -2.18182 -0.160927 1.47453 0
M  V30 15 H -1.13692 1.85662 0.325424 0
M  V30 16 H -2.8241 1.57475 -0.0173995 0
M  V30 17 H -1.14667 2.00798 -1.96533 0
M  V30 18 H -2.54129 1.09307 -2.11529 0
M  V30 19 H -0.718105 -1.62447 -0.768969 0
M  V30 20 H -1.24028 -2.15981 0.812548 0
M  V30 21 H 1.07015 -1.9788 0.932845 0
M  V30 22 H 0.3555 -0.766109 1.99139 0
M  V30 23 H 1.01281 1.10868 0.403246 0
M  V30 24 H 2.16173 0.737073 -1.5545 0
M  V30 25 H 0.85082 -0.574355 -1.61109 0
M  V30 26 H 2.56971 -0.936697 -1.07054 0
M  V30 27 H 2.66746 0.232178 2.15258 0
M  V30 28 H 3.20585 -0.93237 0.817868 0
M  V30 29 H 4.4621 1.22045 0.944823 0
M  V30 30 H 3.02796 2.0274 0.613253 0
M  V30 END ATOM
M  V30 BEGIN BOND
M  V30 1 1 1 2
M  V30 2 1 2 3
M  V30 3 1 3 4
M  V30 4 1 2 5
M  V30 5 1 5 6
M  V30 6 1 6 7
M  V30 7 1 7 8
M  V30 8 1 7 9
M  V30 9 1 9 10
M  V30 10 1 1 11
M  V30 11 1 1 12
M  V30 12 1 1 13
M  V30 13 1 2 14
M  V30 14 1 3 15
M  V30 15 1 3 16
M  V30 16 1 4 17
M  V30 17 1 4 18
M  V30 18 1 5 19
M  V30 19 1 5 20
M  V30 20 1 6 21
M  V30 21 1 6 22
M  V30 22 1 7 23
M  V30 23 1 8 24
M  V30 24 1 8 25
M  V30 25 1 8 26
M  V30 26 1 9 27
M  V30 27 1 9 28
M  V30 28 1 10 29
M  V30 29 1 10 30
M  V30 END BOND
M  V30 END CTAB
M  END
