
     RDKit          3D

  0  0  0  0  0  0  0  0  0  0999 V3000
M  V30 BEGIN CTAB
M  V30 COUNTS 39 41 0 0 0
M  V30 BEGIN ATOM
M  V30 1 N 7.89834 1.3131 -0.523059 0
M  V30 2 C 6.8387 0.851885 -0.385313 0
M  V30 3 C 5.53246 0.256107 -0.211781 0
M  V30 4 C 4.44991 0.965628 -0.672691 0
M  V30 5 C 3.15327 0.420411 -0.523553 0
M  V30 6 C 3.10888 -0.798436 0.0847951 0
M  V30 7 N 4.21978 -1.47367 0.531197 0
M  V30 8 C 5.46044 -0.975451 0.400294 0
M  V30 9 N 6.60347 -1.67463 0.861847 0
M  V30 10 S 1.44214 -1.16053 0.106166 0
M  V30 11 C 0.846134 0.243749 -0.657106 0
M  V30 12 C 1.97618 0.968594 -0.912534 0
M  V30 13 N 1.8512 2.25843 -1.57313 0
M  V30 14 C -0.538937 0.586234 -0.962684 0
M  V30 15 O -0.792648 1.66419 -1.52883 0
M  V30 16 N -1.58636 -0.287761 -0.624428 0
M  V30 17 C -2.9667 -0.0405289 -0.881706 0
M  V30 18 C -3.75871 -0.0363337 0.371166 0
M  V30 19 C -3.53792 -1.04984 1.27643 0
M  V30 20 C -4.23581 -1.11534 2.46937 0
M  V30 21 C -5.17482 -0.158195 2.77799 0
M  V30 22 C -5.41118 0.86463 1.88586 0
M  V30 23 C -4.69731 0.914308 0.687141 0
M  V30 24 C -3.59251 -1.08275 -1.79281 0
M  V30 25 H 4.58349 1.92905 -1.14408 0
M  V30 26 H 6.61267 -2.32554 1.65891 0
M  V30 27 H 7.51638 -1.52588 0.361048 0
M  V30 28 H 2.0217 2.25784 -2.59144 0
M  V30 29 H 1.61319 3.11427 -1.08475 0
M  V30 30 H -1.33926 -1.19003 -0.148696 0
M  V30 31 H -3.11316 0.946948 -1.40692 0
M  V30 32 H -2.80079 -1.84918 1.09092 0
M  V30 33 H -4.02741 -1.93677 3.15624 0
M  V30 34 H -5.71616 -0.229868 3.72923 0
M  V30 35 H -6.1505 1.63367 2.10968 0
M  V30 36 H -4.88741 1.70804 0.00554723 0
M  V30 37 H -4.68666 -0.871016 -1.80749 0
M  V30 38 H -3.48382 -2.07752 -1.31139 0
M  V30 39 H -3.23026 -1.03784 -2.81942 0
M  V30 END ATOM
M  V30 BEGIN BOND
M  V30 1 3 1 2
M  V30 2 1 2 3
M  V30 3 2 3 4
M  V30 4 1 4 5
M  V30 5 2 5 6
M  V30 6 1 6 7
M  V30 7 2 7 8
M  V30 8 1 8 9
M  V30 9 1 6 10
M  V30 10 1 10 11
M  V30 11 2 11 12
M  V30 12 1 12 13
M  V30 13 1 11 14
M  V30 14 2 14 15
M  V30 15 1 14 16
M  V30 16 1 16 17
M  V30 17 1 17 18
M  V30 18 2 18 19
M  V30 19 1 19 20
M  V30 20 2 20 21
M  V30 21 1 21 22
M  V30 22 2 22 23
M  V30 23 1 17 24
M  V30 24 1 8 3
M  V30 25 1 23 18
M  V30 26 1 12 5
M  V30 27 1 4 25
M  V30 28 1 9 26
M  V30 29 1 9 27
M  V30 30 1 13 28
M  V30 31 1 13 29
M  V30 32 1 16 30
M  V30 33 1 17 31
M  V30 34 1 19 32
M  V30 35 1 20 33
M  V30 36 1 21 34
M  V30 37 1 22 35
M  V30 38 1 23 36
M  V30 39 1 24 37
M  V30 40 1 24 38
M  V30 41 1 24 39
M  V30 END BOND
M  V30 END CTAB
M  END
