
     RDKit          3D

  0  0  0  0  0  0  0  0  0  0999 V3000
M  V30 BEGIN CTAB
M  V30 COUNTS 37 38 0 0 0
M  V30 BEGIN ATOM
M  V30 1 S 0.289268 -1.84807 2.05908 0
M  V30 2 C -0.333152 -0.802449 0.911908 0
M  V30 3 N -1.72341 -0.577025 0.895412 0
M  V30 4 C -2.42664 0.252927 0.0272327 0
M  V30 5 O -1.86104 0.909631 -0.862126 0
M  V30 6 C -3.88676 0.40087 0.113257 0
M  V30 7 C -4.6505 -0.266006 1.05041 0
M  V30 8 C -6.04178 -0.06533 1.0608 0
M  V30 9 C -6.64752 0.778422 0.158617 0
M  V30 10 C -5.89534 1.45699 -0.79047 0
M  V30 11 C -4.53509 1.24128 -0.777245 0
M  V30 12 N -3.75295 1.92638 -1.73962 0
M  V30 13 N 0.561105 -0.252032 0.00547009 0
M  V30 14 C 1.98098 -0.460619 0.0384195 0
M  V30 15 C 2.60571 -0.672735 -1.19663 0
M  V30 16 C 3.97818 -0.841334 -1.20973 0
M  V30 17 C 4.72935 -0.806445 -0.0624186 0
M  V30 18 C 4.10888 -0.597706 1.14151 0
M  V30 19 C 2.71804 -0.422082 1.19285 0
M  V30 20 S 6.4498 -1.02419 -0.131439 0
M  V30 21 O 6.75507 -1.84074 -1.37142 0
M  V30 22 O 6.97368 -1.71229 1.09602 0
M  V30 23 N 7.20522 0.515217 -0.33148 0
M  V30 24 H -2.30626 -1.10924 1.64126 0
M  V30 25 H -4.20795 -0.938601 1.77683 0
M  V30 26 H -6.64516 -0.582 1.78896 0
M  V30 27 H -7.72292 0.954558 0.141444 0
M  V30 28 H -6.35602 2.12394 -1.5069 0
M  V30 29 H -3.48984 1.46082 -2.62818 0
M  V30 30 H -3.42357 2.90049 -1.58856 0
M  V30 31 H 0.24657 0.357687 -0.771323 0
M  V30 32 H 1.98241 -0.693685 -2.07525 0
M  V30 33 H 4.42841 -1.00358 -2.18488 0
M  V30 34 H 4.63089 -0.557114 2.08721 0
M  V30 35 H 2.25946 -0.233302 2.16428 0
M  V30 36 H 6.49303 1.20378 -0.660543 0
M  V30 37 H 7.50984 0.823593 0.61966 0
M  V30 END ATOM
M  V30 BEGIN BOND
M  V30 1 2 1 2
M  V30 2 1 2 3
M  V30 3 1 3 4
M  V30 4 2 4 5
M  V30 5 1 4 6
M  V30 6 2 6 7
M  V30 7 1 7 8
M  V30 8 2 8 9
M  V30 9 1 9 10
M  V30 10 2 10 11
M  V30 11 1 11 12
M  V30 12 1 2 13
M  V30 13 1 13 14
M  V30 14 2 14 15
M  V30 15 1 15 16
M  V30 16 2 16 17
M  V30 17 1 17 18
M  V30 18 2 18 19
M  V30 19 1 17 20
M  V30 20 2 20 21
M  V30 21 2 20 22
M  V30 22 1 20 23
M  V30 23 1 11 6
M  V30 24 1 19 14
M  V30 25 1 3 24
M  V30 26 1 7 25
M  V30 27 1 8 26
M  V30 28 1 9 27
M  V30 29 1 10 28
M  V30 30 1 12 29
M  V30 31 1 12 30
M  V30 32 1 13 31
M  V30 33 1 15 32
M  V30 34 1 16 33
M  V30 35 1 18 34
M  V30 36 1 19 35
M  V30 37 1 23 36
M  V30 38 1 23 37
M  V30 END BOND
M  V30 END CTAB
M  END
