
     RDKit          3D

  0  0  0  0  0  0  0  0  0  0999 V3000
M  V30 BEGIN CTAB
M  V30 COUNTS 28 28 0 0 0
M  V30 BEGIN ATOM
M  V30 1 C -3.6426 -0.275427 0.757526 0
M  V30 2 C -2.15418 -0.297955 0.912699 0
M  V30 3 C -1.42532 -0.232172 -0.386574 0
M  V30 4 C 0.0569833 -0.270018 -0.113228 0
M  V30 5 N 0.815189 -1.39343 -0.323273 0
M  V30 6 C 2.11339 -1.08596 -0.18507 0
M  V30 7 N 2.19784 0.22988 0.11883 0
M  V30 8 C 0.956325 0.713975 0.158777 0
M  V30 9 N 0.561606 2.03718 0.5033 0
M  V30 10 N 3.36593 0.972748 0.376529 0
M  V30 11 C 3.22782 -2.06279 -0.420988 0
M  V30 12 C -1.81001 0.761418 -1.41003 0
M  V30 13 H -4.0647 0.481657 1.46876 0
M  V30 14 H -4.10317 -1.23217 1.09145 0
M  V30 15 H -3.92943 -0.106868 -0.269622 0
M  V30 16 H -1.82858 -1.14163 1.51056 0
M  V30 17 H -1.87115 0.671199 1.49736 0
M  V30 18 H -1.65823 -1.26665 -0.863915 0
M  V30 19 H 0.337277 2.17094 1.54161 0
M  V30 20 H 0.501464 2.8565 -0.131354 0
M  V30 21 H 3.7172 0.861095 1.37755 0
M  V30 22 H 3.86244 1.5693 -0.303041 0
M  V30 23 H 4.19917 -1.59423 -0.423048 0
M  V30 24 H 3.17584 -2.9309 0.248597 0
M  V30 25 H 3.05176 -2.40152 -1.48313 0
M  V30 26 H -2.88229 0.9515 -1.43721 0
M  V30 27 H -1.18598 1.70786 -1.38518 0
M  V30 28 H -1.5846 0.306478 -2.42788 0
M  V30 END ATOM
M  V30 BEGIN BOND
M  V30 1 1 1 2
M  V30 2 1 2 3
M  V30 3 1 3 4
M  V30 4 1 4 5
M  V30 5 2 5 6
M  V30 6 1 6 7
M  V30 7 1 7 8
M  V30 8 1 8 9
M  V30 9 1 7 10
M  V30 10 1 6 11
M  V30 11 1 3 12
M  V30 12 2 8 4
M  V30 13 1 1 13
M  V30 14 1 1 14
M  V30 15 1 1 15
M  V30 16 1 2 16
M  V30 17 1 2 17
M  V30 18 1 3 18
M  V30 19 1 9 19
M  V30 20 1 9 20
M  V30 21 1 10 21
M  V30 22 1 10 22
M  V30 23 1 11 23
M  V30 24 1 11 24
M  V30 25 1 11 25
M  V30 26 1 12 26
M  V30 27 1 12 27
M  V30 28 1 12 28
M  V30 END BOND
M  V30 END CTAB
M  END
