
     RDKit          3D

  0  0  0  0  0  0  0  0  0  0999 V3000
M  V30 BEGIN CTAB
M  V30 COUNTS 27 26 0 0 0
M  V30 BEGIN ATOM
M  V30 1 N -4.50378 0.0247643 0.8204 0
M  V30 2 C -4.78236 0.110325 -0.565638 0
M  V30 3 N -5.97174 -0.055653 -1.03283 0
M  V30 4 S -3.44992 0.456604 -1.69296 0
M  V30 5 C -1.85223 0.610864 -0.842816 0
M  V30 6 C -1.42068 -0.709545 -0.275085 0
M  V30 7 O -0.222299 -0.663379 0.400595 0
M  V30 8 C 0.784758 -0.262151 -0.432536 0
M  V30 9 C 2.1366 -0.23525 0.271085 0
M  V30 10 S 3.3619 0.309421 -0.945954 0
M  V30 11 C 4.95585 0.351929 -0.163303 0
M  V30 12 N 5.08363 -0.00748221 1.19033 0
M  V30 13 N 5.97526 0.715212 -0.859649 0
M  V30 14 H -4.33706 0.946024 1.32292 0
M  V30 15 H -4.45812 -0.888708 1.34947 0
M  V30 16 H -6.7842 -0.261807 -0.400333 0
M  V30 17 H -1.9783 1.33826 -0.0324311 0
M  V30 18 H -1.13961 1.01576 -1.61251 0
M  V30 19 H -2.25402 -1.0937 0.350601 0
M  V30 20 H -1.33836 -1.40847 -1.1635 0
M  V30 21 H 0.615828 0.789605 -0.755155 0
M  V30 22 H 0.881029 -0.952284 -1.28848 0
M  V30 23 H 2.13684 0.425139 1.15193 0
M  V30 24 H 2.42198 -1.25774 0.62515 0
M  V30 25 H 5.84152 -0.638274 1.49512 0
M  V30 26 H 4.41553 0.361483 1.88482 0
M  V30 27 H 5.88197 0.979057 -1.85407 0
M  V30 END ATOM
M  V30 BEGIN BOND
M  V30 1 1 1 2
M  V30 2 2 2 3 CFG=2
M  V30 3 1 2 4
M  V30 4 1 4 5
M  V30 5 1 5 6
M  V30 6 1 6 7
M  V30 7 1 7 8
M  V30 8 1 8 9
M  V30 9 1 9 10
M  V30 10 1 10 11
M  V30 11 1 11 12
M  V30 12 2 11 13 CFG=2
M  V30 13 1 1 14
M  V30 14 1 1 15
M  V30 15 1 3 16
M  V30 16 1 5 17
M  V30 17 1 5 18
M  V30 18 1 6 19
M  V30 19 1 6 20
M  V30 20 1 8 21
M  V30 21 1 8 22
M  V30 22 1 9 23
M  V30 23 1 9 24
M  V30 24 1 12 25
M  V30 25 1 12 26
M  V30 26 1 13 27
M  V30 END BOND
M  V30 END CTAB
M  END
