
     RDKit          3D

  0  0  0  0  0  0  0  0  0  0999 V3000
M  V30 BEGIN CTAB
M  V30 COUNTS 38 39 0 0 0
M  V30 BEGIN ATOM
M  V30 1 C -7.09195 -0.221801 -0.536313 0
M  V30 2 C -5.63343 -0.0333182 -0.338466 0
M  V30 3 C -4.76461 -1.0762 -0.100403 0
M  V30 4 C -3.41287 -0.884294 0.0811758 0
M  V30 5 C -2.90932 0.395129 0.0231255 0
M  V30 6 C -3.75073 1.47734 -0.214943 0
M  V30 7 C -5.10972 1.24061 -0.392938 0
M  V30 8 C -1.48785 0.646186 0.208955 0
M  V30 9 N -0.925361 1.94807 0.157372 0
M  V30 10 N -0.697542 -0.346221 0.43006 0
M  V30 11 N 0.665753 -0.11364 0.60914 0
M  V30 12 C 1.47575 -0.680716 -0.216688 0
M  V30 13 N 0.978408 -1.50533 -1.25986 0
M  V30 14 C 2.90569 -0.466079 -0.0676027 0
M  V30 15 C 3.39144 0.341736 0.954457 0
M  V30 16 C 4.73423 0.543686 1.09494 0
M  V30 17 C 5.59354 -0.0578612 0.218855 0
M  V30 18 C 7.05888 0.153557 0.360294 0
M  V30 19 C 5.11506 -0.865212 -0.803271 0
M  V30 20 C 3.77714 -1.07816 -0.958749 0
M  V30 21 H -7.40343 -1.13587 0.0411364 0
M  V30 22 H -7.67539 0.658934 -0.230453 0
M  V30 23 H -7.2254 -0.472718 -1.62571 0
M  V30 24 H -5.16235 -2.06592 -0.056719 0
M  V30 25 H -2.71809 -1.70635 0.270312 0
M  V30 26 H -3.38448 2.49651 -0.266388 0
M  V30 27 H -5.77109 2.07064 -0.577919 0
M  V30 28 H -0.818466 2.50512 1.04589 0
M  V30 29 H -0.617704 2.35722 -0.749663 0
M  V30 30 H 0.723253 -2.49393 -1.06407 0
M  V30 31 H 0.871369 -1.12138 -2.21 0
M  V30 32 H 2.67931 0.805036 1.63393 0
M  V30 33 H 5.11745 1.16324 1.87782 0
M  V30 34 H 7.42644 0.928895 -0.353622 0
M  V30 35 H 7.6246 -0.777963 0.104506 0
M  V30 36 H 7.262 0.424226 1.41639 0
M  V30 37 H 5.79208 -1.34306 -1.49869 0
M  V30 38 H 3.36739 -1.7101 -1.75548 0
M  V30 END ATOM
M  V30 BEGIN BOND
M  V30 1 1 1 2
M  V30 2 2 2 3
M  V30 3 1 3 4
M  V30 4 2 4 5
M  V30 5 1 5 6
M  V30 6 2 6 7
M  V30 7 1 5 8
M  V30 8 1 8 9
M  V30 9 2 8 10
M  V30 10 1 10 11
M  V30 11 2 11 12
M  V30 12 1 12 13
M  V30 13 1 12 14
M  V30 14 2 14 15
M  V30 15 1 15 16
M  V30 16 2 16 17
M  V30 17 1 17 18
M  V30 18 1 17 19
M  V30 19 2 19 20
M  V30 20 1 7 2
M  V30 21 1 20 14
M  V30 22 1 1 21
M  V30 23 1 1 22
M  V30 24 1 1 23
M  V30 25 1 3 24
M  V30 26 1 4 25
M  V30 27 1 6 26
M  V30 28 1 7 27
M  V30 29 1 9 28
M  V30 30 1 9 29
M  V30 31 1 13 30
M  V30 32 1 13 31
M  V30 33 1 15 32
M  V30 34 1 16 33
M  V30 35 1 18 34
M  V30 36 1 18 35
M  V30 37 1 18 36
M  V30 38 1 19 37
M  V30 39 1 20 38
M  V30 END BOND
M  V30 END CTAB
M  END
