
     RDKit          3D

  0  0  0  0  0  0  0  0  0  0999 V3000
M  V30 BEGIN CTAB
M  V30 COUNTS 23 23 0 0 0
M  V30 BEGIN ATOM
M  V30 1 F -3.93746 -0.0260497 -0.639295 0
M  V30 2 C -2.77323 -0.670583 -0.409121 0
M  V30 3 O -1.67546 -0.162288 -1.12782 0
M  V30 4 C -0.457486 -0.0227993 -0.475983 0
M  V30 5 C 0.392289 -1.13802 -0.458863 0
M  V30 6 N -0.0481156 -2.30815 -1.11943 0
M  V30 7 C 1.62911 -1.11551 0.165005 0
M  V30 8 C 2.05056 0.0320149 0.791894 0
M  V30 9 C 1.23107 1.12685 0.780544 0
M  V30 10 C -0.0310694 1.12632 0.150982 0
M  V30 11 C -0.798345 2.35423 0.139247 0
M  V30 12 O -0.341902 3.35159 0.778885 0
M  V30 13 O -1.9777 2.54704 -0.503453 0
M  V30 14 N 3.32364 0.0695698 1.44067 0
M  V30 15 F -2.98172 -2.01623 -0.809451 0
M  V30 16 H -2.58008 -0.730124 0.691759 0
M  V30 17 H -0.287536 -3.15668 -0.593102 0
M  V30 18 H -0.125823 -2.29534 -2.15022 0
M  V30 19 H 2.23445 -2.0156 0.139197 0
M  V30 20 H 1.57405 2.02483 1.27743 0
M  V30 21 H -1.97701 2.85494 -1.48126 0
M  V30 22 H 4.22659 0.0386725 0.934673 0
M  V30 23 H 3.33116 0.131328 2.47772 0
M  V30 END ATOM
M  V30 BEGIN BOND
M  V30 1 1 1 2
M  V30 2 1 2 3
M  V30 3 1 3 4
M  V30 4 2 4 5
M  V30 5 1 5 6
M  V30 6 1 5 7
M  V30 7 2 7 8
M  V30 8 1 8 9
M  V30 9 2 9 10
M  V30 10 1 10 11
M  V30 11 2 11 12
M  V30 12 1 11 13
M  V30 13 1 8 14
M  V30 14 1 2 15
M  V30 15 1 10 4
M  V30 16 1 2 16
M  V30 17 1 6 17
M  V30 18 1 6 18
M  V30 19 1 7 19
M  V30 20 1 9 20
M  V30 21 1 13 21
M  V30 22 1 14 22
M  V30 23 1 14 23
M  V30 END BOND
M  V30 END CTAB
M  END
