
     RDKit          3D

  0  0  0  0  0  0  0  0  0  0999 V3000
M  V30 BEGIN CTAB
M  V30 COUNTS 58 63 0 0 0
M  V30 BEGIN ATOM
M  V30 1 N 9.64428 0.862858 1.23627 0
M  V30 2 C 8.2426 0.912052 0.982617 0
M  V30 3 N 7.46968 -0.0722728 0.4975 0
M  V30 4 C 6.20648 0.420565 0.422299 0
M  V30 5 C 6.24312 1.72082 0.873372 0
M  V30 6 O 7.47488 1.9696 1.1957 0
M  V30 7 C 5.0861 2.48584 0.911675 0
M  V30 8 C 3.90725 1.91695 0.489567 0
M  V30 9 C 3.86608 0.624012 0.0395339 0
M  V30 10 C 5.00923 -0.122051 0.0060998 0
M  V30 11 C 2.58318 0.0598951 -0.325162 0
M  V30 12 N 1.49516 -0.0431401 0.477925 0
M  V30 13 N 0.473033 -0.574448 -0.13073 0
M  V30 14 C -0.802579 -0.817553 0.450154 0
M  V30 15 C -1.73872 -1.64243 -0.362329 0
M  V30 16 C -3.05262 -1.76471 0.405865 0
M  V30 17 C -3.721 -0.426882 0.594516 0
M  V30 18 C -2.8098 0.666896 0.178448 0
M  V30 19 C -1.46865 0.479131 0.898916 0
M  V30 20 N -5.01341 -0.4191 -0.00161035 0
M  V30 21 C -5.9401 -1.34292 0.569336 0
M  V30 22 C -6.84886 -0.614017 1.53754 0
M  V30 23 O -7.56953 0.314578 0.78954 0
M  V30 24 C -6.67852 1.33059 0.437783 0
M  V30 25 C -5.55398 0.807083 -0.429569 0
M  V30 26 C 0.869444 -0.839541 -1.37751 0
M  V30 27 N 0.21129 -1.37659 -2.41749 0
M  V30 28 C 0.824744 -1.53436 -3.59612 0
M  V30 29 N 2.1053 -1.16746 -3.78631 0
M  V30 30 C 2.81355 -0.622402 -2.77311 0
M  V30 31 N 4.14947 -0.189162 -2.9533 0
M  V30 32 C 2.20758 -0.451069 -1.54957 0
M  V30 33 H 10.3073 1.62453 1.03479 0
M  V30 34 H 10.0104 -0.0205431 1.65897 0
M  V30 35 H 5.09263 3.51447 1.26505 0
M  V30 36 H 3.0148 2.55217 0.534214 0
M  V30 37 H 5.05705 -1.16251 -0.320612 0
M  V30 38 H -0.644503 -1.39126 1.41861 0
M  V30 39 H -2.01692 -1.1559 -1.31378 0
M  V30 40 H -1.33359 -2.66315 -0.455616 0
M  V30 41 H -2.87438 -2.2909 1.36485 0
M  V30 42 H -3.72795 -2.41405 -0.187369 0
M  V30 43 H -3.85344 -0.308818 1.71481 0
M  V30 44 H -3.23298 1.62348 0.568875 0
M  V30 45 H -2.58111 0.734668 -0.89355 0
M  V30 46 H -0.824079 1.32605 0.565844 0
M  V30 47 H -1.58738 0.551766 1.98198 0
M  V30 48 H -6.5291 -1.80661 -0.24593 0
M  V30 49 H -5.39195 -2.16326 1.06728 0
M  V30 50 H -7.48814 -1.30311 2.11194 0
M  V30 51 H -6.17937 -0.0128948 2.20346 0
M  V30 52 H -7.25612 2.06547 -0.161729 0
M  V30 53 H -6.31351 1.85521 1.33144 0
M  V30 54 H -6.04303 0.619748 -1.43536 0
M  V30 55 H -4.8571 1.62036 -0.609359 0
M  V30 56 H 0.231397 -1.98071 -4.41015 0
M  V30 57 H 4.96171 -0.811605 -3.11685 0
M  V30 58 H 4.37466 0.846607 -2.92495 0
M  V30 END ATOM
M  V30 BEGIN BOND
M  V30 1 1 1 2
M  V30 2 2 2 3
M  V30 3 1 3 4
M  V30 4 2 4 5
M  V30 5 1 5 6
M  V30 6 1 5 7
M  V30 7 2 7 8
M  V30 8 1 8 9
M  V30 9 2 9 10
M  V30 10 1 9 11
M  V30 11 2 11 12
M  V30 12 1 12 13
M  V30 13 1 13 14
M  V30 14 1 14 15
M  V30 15 1 15 16
M  V30 16 1 16 17
M  V30 17 1 17 18
M  V30 18 1 18 19
M  V30 19 1 17 20
M  V30 20 1 20 21
M  V30 21 1 21 22
M  V30 22 1 22 23
M  V30 23 1 23 24
M  V30 24 1 24 25
M  V30 25 1 13 26
M  V30 26 2 26 27
M  V30 27 1 27 28
M  V30 28 2 28 29
M  V30 29 1 29 30
M  V30 30 1 30 31
M  V30 31 2 30 32
M  V30 32 1 6 2
M  V30 33 1 32 11
M  V30 34 1 10 4
M  V30 35 1 19 14
M  V30 36 1 25 20
M  V30 37 1 32 26
M  V30 38 1 1 33
M  V30 39 1 1 34
M  V30 40 1 7 35
M  V30 41 1 8 36
M  V30 42 1 10 37
M  V30 43 1 14 38
M  V30 44 1 15 39
M  V30 45 1 15 40
M  V30 46 1 16 41
M  V30 47 1 16 42
M  V30 48 1 17 43
M  V30 49 1 18 44
M  V30 50 1 18 45
M  V30 51 1 19 46
M  V30 52 1 19 47
M  V30 53 1 21 48
M  V30 54 1 21 49
M  V30 55 1 22 50
M  V30 56 1 22 51
M  V30 57 1 24 52
M  V30 58 1 24 53
M  V30 59 1 25 54
M  V30 60 1 25 55
M  V30 61 1 28 56
M  V30 62 1 31 57
M  V30 63 1 31 58
M  V30 END BOND
M  V30 END CTAB
M  END
