
     RDKit          3D

  0  0  0  0  0  0  0  0  0  0999 V3000
M  V30 BEGIN CTAB
M  V30 COUNTS 18 17 0 0 0
M  V30 BEGIN ATOM
M  V30 1 C -0.630885 0.532341 -0.110312 0 CFG=1
M  V30 2 C -1.48202 -0.482528 -0.857819 0
M  V30 3 N -0.945283 0.555987 1.29734 0
M  V30 4 C 0.833687 0.164893 -0.342393 0 CFG=2
M  V30 5 C 1.11846 -1.22561 0.173481 0
M  V30 6 N 1.73367 1.10389 0.243723 0
M  V30 7 H -0.764948 1.5523 -0.506366 0
M  V30 8 H -0.86554 -0.957341 -1.66176 0
M  V30 9 H -2.33783 0.0656989 -1.3062 0
M  V30 10 H -1.81957 -1.30515 -0.202535 0
M  V30 11 H -1.42013 1.43685 1.59652 0
M  V30 12 H -1.51968 -0.270994 1.57263 0
M  V30 13 H 0.989578 0.197757 -1.45371 0
M  V30 14 H 1.37577 -1.88343 -0.664712 0
M  V30 15 H 1.95841 -1.23733 0.882048 0
M  V30 16 H 0.235852 -1.64049 0.729147 0
M  V30 17 H 1.37149 1.62275 1.05839 0
M  V30 18 H 2.16896 1.7704 -0.447466 0
M  V30 END ATOM
M  V30 BEGIN BOND
M  V30 1 1 1 2
M  V30 2 1 1 3
M  V30 3 1 1 4
M  V30 4 1 4 5
M  V30 5 1 4 6
M  V30 6 1 1 7 CFG=3
M  V30 7 1 2 8
M  V30 8 1 2 9
M  V30 9 1 2 10
M  V30 10 1 3 11
M  V30 11 1 3 12
M  V30 12 1 4 13 CFG=3
M  V30 13 1 5 14
M  V30 14 1 5 15
M  V30 15 1 5 16
M  V30 16 1 6 17
M  V30 17 1 6 18
M  V30 END BOND
M  V30 END CTAB
M  END
