
     RDKit          3D

  0  0  0  0  0  0  0  0  0  0999 V3000
M  V30 BEGIN CTAB
M  V30 COUNTS 44 46 0 0 0
M  V30 BEGIN ATOM
M  V30 1 F -7.12288 -1.82411 1.87533 0
M  V30 2 C -5.99849 -1.2783 1.36993 0
M  V30 3 C -5.51487 -1.7104 0.131477 0
M  V30 4 C -4.3688 -1.16355 -0.39801 0
M  V30 5 C -3.65879 -0.190615 0.245014 0
M  V30 6 C -4.15544 0.225324 1.47429 0
M  V30 7 C -5.29841 -0.302072 2.02975 0
M  V30 8 N -2.47468 0.397908 -0.268822 0
M  V30 9 C -2.2797 1.72553 -0.49403 0
M  V30 10 C -3.29251 2.78137 -0.233454 0
M  V30 11 C -1.01295 1.91922 -0.993276 0
M  V30 12 C -0.419142 0.682518 -1.07533 0
M  V30 13 C -1.36211 -0.232462 -0.615508 0
M  V30 14 C -1.13779 -1.70335 -0.530935 0
M  V30 15 C 0.939498 0.357987 -1.55126 0
M  V30 16 O 1.31917 -0.841024 -1.57199 0
M  V30 17 C 1.7872 1.49616 -1.98372 0
M  V30 18 S 3.42425 0.94875 -2.52619 0
M  V30 19 C 4.34078 0.286705 -1.14734 0
M  V30 20 N 4.23307 -1.02044 -0.881555 0
M  V30 21 C 4.88075 -1.6253 0.135762 0
M  V30 22 N 4.74494 -3.01124 0.388927 0
M  V30 23 C 5.68774 -0.820928 0.921727 0
M  V30 24 C 5.81319 0.528524 0.66565 0
M  V30 25 N 5.13825 1.05767 -0.363196 0
M  V30 26 N 6.64579 1.33086 1.48592 0
M  V30 27 H -6.09081 -2.49055 -0.376347 0
M  V30 28 H -4.0257 -1.51924 -1.35173 0
M  V30 29 H -3.63854 0.990347 2.02939 0
M  V30 30 H -5.64936 0.0487492 2.98422 0
M  V30 31 H -3.09174 3.29942 0.742792 0
M  V30 32 H -3.17304 3.54874 -1.03855 0
M  V30 33 H -4.31028 2.37255 -0.288776 0
M  V30 34 H -0.544685 2.84176 -1.27522 0
M  V30 35 H -0.19162 -1.89931 0.0542521 0
M  V30 36 H -1.94015 -2.20247 0.0119076 0
M  V30 37 H -0.94679 -2.14652 -1.53946 0
M  V30 38 H 1.33532 2.07604 -2.81282 0
M  V30 39 H 1.8817 2.17501 -1.10871 0
M  V30 40 H 5.5835 -3.55018 0.6615 0
M  V30 41 H 3.83265 -3.51099 0.311484 0
M  V30 42 H 6.23073 -1.27389 1.7583 0
M  V30 43 H 6.82462 1.00891 2.45972 0
M  V30 44 H 7.05614 2.21689 1.09901 0
M  V30 END ATOM
M  V30 BEGIN BOND
M  V30 1 1 1 2
M  V30 2 2 2 3
M  V30 3 1 3 4
M  V30 4 2 4 5
M  V30 5 1 5 6
M  V30 6 2 6 7
M  V30 7 1 5 8
M  V30 8 1 8 9
M  V30 9 1 9 10
M  V30 10 2 9 11
M  V30 11 1 11 12
M  V30 12 2 12 13
M  V30 13 1 13 14
M  V30 14 1 12 15
M  V30 15 2 15 16
M  V30 16 1 15 17
M  V30 17 1 17 18
M  V30 18 1 18 19
M  V30 19 2 19 20
M  V30 20 1 20 21
M  V30 21 1 21 22
M  V30 22 2 21 23
M  V30 23 1 23 24
M  V30 24 2 24 25
M  V30 25 1 24 26
M  V30 26 1 7 2
M  V30 27 1 13 8
M  V30 28 1 25 19
M  V30 29 1 3 27
M  V30 30 1 4 28
M  V30 31 1 6 29
M  V30 32 1 7 30
M  V30 33 1 10 31
M  V30 34 1 10 32
M  V30 35 1 10 33
M  V30 36 1 11 34
M  V30 37 1 14 35
M  V30 38 1 14 36
M  V30 39 1 14 37
M  V30 40 1 17 38
M  V30 41 1 17 39
M  V30 42 1 22 40
M  V30 43 1 22 41
M  V30 44 1 23 42
M  V30 45 1 26 43
M  V30 46 1 26 44
M  V30 END BOND
M  V30 END CTAB
M  END
