
     RDKit          3D

  0  0  0  0  0  0  0  0  0  0999 V3000
M  V30 BEGIN CTAB
M  V30 COUNTS 24 24 0 0 0
M  V30 BEGIN ATOM
M  V30 1 N -3.67637 1.60008 0.158487 0
M  V30 2 N -2.32821 1.31035 0.202106 0
M  V30 3 C -1.85804 0.168266 -0.143433 0
M  V30 4 C -0.431269 -0.0881757 -0.079983 0
M  V30 5 C 0.0807274 -1.31762 -0.45115 0
M  V30 6 C 1.43129 -1.58663 -0.40022 0
M  V30 7 C 2.35114 -0.635007 0.0275055 0
M  V30 8 C 1.83866 0.595836 0.399125 0
M  V30 9 C 0.484829 0.853723 0.344009 0
M  V30 10 N 2.69694 1.62614 0.847788 0 CHG=1
M  V30 11 O 3.73723 1.3434 1.45885 0
M  V30 12 O 2.40336 2.93949 0.621038 0 CHG=-1
M  V30 13 N 3.73696 -0.92529 0.0746834 0
M  V30 14 C -2.80063 -0.87095 -0.604394 0
M  V30 15 H -4.01498 2.44967 -0.380746 0
M  V30 16 H -4.33512 0.972736 0.660139 0
M  V30 17 H -0.62616 -2.06609 -0.785509 0
M  V30 18 H 1.83884 -2.55391 -0.691734 0
M  V30 19 H 0.079124 1.82478 0.637223 0
M  V30 20 H 4.2043 -1.04163 0.99758 0
M  V30 21 H 4.32618 -1.03104 -0.775783 0
M  V30 22 H -3.83832 -0.547542 -0.63362 0
M  V30 23 H -2.53954 -1.28611 -1.60276 0
M  V30 24 H -2.76095 -1.73448 0.120804 0
M  V30 END ATOM
M  V30 BEGIN BOND
M  V30 1 1 1 2
M  V30 2 2 2 3
M  V30 3 1 3 4
M  V30 4 2 4 5
M  V30 5 1 5 6
M  V30 6 2 6 7
M  V30 7 1 7 8
M  V30 8 2 8 9
M  V30 9 1 8 10
M  V30 10 2 10 11
M  V30 11 1 10 12
M  V30 12 1 7 13
M  V30 13 1 3 14
M  V30 14 1 9 4
M  V30 15 1 1 15
M  V30 16 1 1 16
M  V30 17 1 5 17
M  V30 18 1 6 18
M  V30 19 1 9 19
M  V30 20 1 13 20
M  V30 21 1 13 21
M  V30 22 1 14 22
M  V30 23 1 14 23
M  V30 24 1 14 24
M  V30 END BOND
M  V30 END CTAB
M  END
