
     RDKit          3D

  0  0  0  0  0  0  0  0  0  0999 V3000
M  V30 BEGIN CTAB
M  V30 COUNTS 23 23 0 0 0
M  V30 BEGIN ATOM
M  V30 1 N 4.15133 -0.965615 -0.689276 0
M  V30 2 N 2.76095 -0.901221 -0.587288 0
M  V30 3 C 2.17713 0.274497 -0.0555483 0
M  V30 4 O 2.91475 1.21487 0.305142 0
M  V30 5 C 0.709803 0.402016 0.0774273 0
M  V30 6 N -0.191048 -0.531928 -0.271912 0
M  V30 7 N -1.41184 -0.0438575 0.00129206 0
M  V30 8 C -1.30365 1.1826 0.517644 0
M  V30 9 C 0.0520129 1.49547 0.5782 0
M  V30 10 N 0.674686 2.67895 1.04873 0
M  V30 11 C -2.67508 -0.718308 -0.217244 0
M  V30 12 C -3.09305 -1.52549 0.989229 0
M  V30 13 H 4.47182 -1.96281 -0.772356 0
M  V30 14 H 4.63125 -0.462589 0.0839508 0
M  V30 15 H 2.14229 -1.70979 -0.898235 0
M  V30 16 H -2.06854 1.87337 0.852721 0
M  V30 17 H 1.05088 3.39393 0.395656 0
M  V30 18 H 0.766813 2.85411 2.06841 0
M  V30 19 H -3.44205 0.042131 -0.417754 0
M  V30 20 H -2.59857 -1.43892 -1.08015 0
M  V30 21 H -3.12535 -0.860589 1.87492 0
M  V30 22 H -4.12943 -1.87919 0.828254 0
M  V30 23 H -2.4651 -2.41162 1.13311 0
M  V30 END ATOM
M  V30 BEGIN BOND
M  V30 1 1 1 2
M  V30 2 1 2 3
M  V30 3 2 3 4
M  V30 4 1 3 5
M  V30 5 2 5 6
M  V30 6 1 6 7
M  V30 7 1 7 8
M  V30 8 2 8 9
M  V30 9 1 9 10
M  V30 10 1 7 11
M  V30 11 1 11 12
M  V30 12 1 9 5
M  V30 13 1 1 13
M  V30 14 1 1 14
M  V30 15 1 2 15
M  V30 16 1 8 16
M  V30 17 1 10 17
M  V30 18 1 10 18
M  V30 19 1 11 19
M  V30 20 1 11 20
M  V30 21 1 12 21
M  V30 22 1 12 22
M  V30 23 1 12 23
M  V30 END BOND
M  V30 END CTAB
M  END
