
     RDKit          3D

  0  0  0  0  0  0  0  0  0  0999 V3000
M  V30 BEGIN CTAB
M  V30 COUNTS 137 141 0 0 0
M  V30 BEGIN ATOM
M  V30 1 C 3.69493 9.37721 -1.45177 0
M  V30 2 C 3.12418 9.00446 -0.124802 0
M  V30 3 O 4.02672 8.20951 0.614314 0
M  V30 4 C 1.7719 8.32694 -0.198406 0
M  V30 5 C 0.767445 9.19781 -0.873611 0
M  V30 6 O 1.11155 9.38874 -2.19726 0
M  V30 7 N 1.83415 7.04661 -0.839136 0
M  V30 8 C 1.5826 5.8448 -0.161521 0
M  V30 9 O 1.29227 5.84093 1.05056 0
M  V30 10 C 1.65176 4.51351 -0.860425 0 CFG=2
M  V30 11 C 0.469417 4.55761 -1.84147 0
M  V30 12 S -1.06316 3.97762 -1.06235 0
M  V30 13 S -1.06567 1.87433 -1.13855 0
M  V30 14 C -2.74276 1.24928 -1.12405 0
M  V30 15 C -3.11133 0.98174 0.353203 0 CFG=1
M  V30 16 N -4.49151 0.661481 0.469005 0
M  V30 17 C -5.51773 1.61266 0.71288 0
M  V30 18 O -5.1799 2.82035 0.824606 0
M  V30 19 C -6.94923 1.27618 0.840973 0 CFG=2
M  V30 20 N -7.14031 -0.166117 1.03882 0
M  V30 21 C -7.70379 1.58869 -0.448457 0
M  V30 22 C -9.13584 1.24479 -0.312845 0
M  V30 23 C -10.0797 2.13702 0.124364 0
M  V30 24 C -11.4272 1.77865 0.246394 0
M  V30 25 C -11.8288 0.517454 -0.0724858 0
M  V30 26 C -10.8878 -0.402087 -0.517745 0
M  V30 27 C -9.58475 -0.0329942 -0.628875 0
M  V30 28 C -2.15065 0.0665327 0.998505 0
M  V30 29 O -1.10133 0.692947 1.43227 0
M  V30 30 N -2.1711 -1.2967 1.21822 0
M  V30 31 C -2.12399 -2.44724 0.365539 0 CFG=1
M  V30 32 C -3.46464 -3.15932 0.249044 0
M  V30 33 C -3.85849 -3.60721 1.5979 0
M  V30 34 C -4.5859 -2.83762 2.47522 0
M  V30 35 C -4.93967 -3.31976 3.73609 0
M  V30 36 C -4.56136 -4.57194 4.10862 0
M  V30 37 C -3.84053 -5.36147 3.26469 0
M  V30 38 C -3.48976 -4.87044 2.00339 0
M  V30 39 C -1.49322 -2.27824 -0.958292 0
M  V30 40 O -2.37085 -2.44504 -1.91777 0
M  V30 41 N -0.177683 -1.98218 -1.30209 0
M  V30 42 C 1.08147 -2.68436 -1.18312 0 CFG=2
M  V30 43 C 1.20158 -3.80433 -2.15424 0
M  V30 44 C 2.39473 -4.61106 -2.23163 0
M  V30 45 C 3.5646 -4.24866 -2.91853 0
M  V30 46 N 4.48348 -5.17775 -2.74536 0
M  V30 47 C 3.99792 -6.17906 -1.96235 0
M  V30 48 C 2.70291 -5.80941 -1.65594 0
M  V30 49 C 2.00699 -6.74361 -0.874568 0
M  V30 50 C 2.54065 -7.92163 -0.438789 0
M  V30 51 C 3.83472 -8.24253 -0.767543 0
M  V30 52 C 4.54946 -7.36353 -1.52804 0
M  V30 53 C 1.53842 -2.87366 0.185974 0
M  V30 54 O 1.17701 -3.964 0.759177 0
M  V30 55 N 2.3297 -2.01931 0.991526 0
M  V30 56 C 3.58126 -1.37075 0.808878 0 CFG=1
M  V30 57 C 4.75206 -2.19085 1.30862 0
M  V30 58 C 4.95546 -3.5133 0.694113 0
M  V30 59 C 6.14212 -4.18939 1.33441 0
M  V30 60 C 7.43481 -3.43964 1.18033 0
M  V30 61 N 8.49732 -4.2252 1.83967 0
M  V30 62 C 3.82106 -0.650491 -0.442527 0
M  V30 63 O 4.67096 -1.2224 -1.24014 0
M  V30 64 N 3.26696 0.561281 -0.901663 0
M  V30 65 C 3.38099 1.90801 -0.481675 0 CFG=2
M  V30 66 C 4.7487 2.4129 -0.119526 0
M  V30 67 C 5.41443 1.93992 1.06881 0
M  V30 68 O 5.5574 2.26703 -1.24902 0
M  V30 69 C 2.32489 2.41476 0.427545 0
M  V30 70 O 2.16846 1.97115 1.62269 0
M  V30 71 N 1.38645 3.4367 0.0681128 0
M  V30 72 H 3.46721 8.67274 -2.26131 0
M  V30 73 H 3.39951 10.3959 -1.77746 0
M  V30 74 H 4.82185 9.39085 -1.36562 0
M  V30 75 H 2.99137 9.93539 0.4639 0
M  V30 76 H 3.94219 8.41289 1.59437 0
M  V30 77 H 1.45755 8.15208 0.870822 0
M  V30 78 H -0.226974 8.67957 -0.778442 0
M  V30 79 H 0.749645 10.1732 -0.347765 0
M  V30 80 H 1.07004 8.54117 -2.70145 0
M  V30 81 H 2.07481 6.99006 -1.85586 0
M  V30 82 H 2.5677 4.40892 -1.43456 0
M  V30 83 H 0.735059 3.91708 -2.73249 0
M  V30 84 H 0.300843 5.56167 -2.22337 0
M  V30 85 H -3.39792 2.07259 -1.51332 0
M  V30 86 H -2.93777 0.385971 -1.765 0
M  V30 87 H -3.04217 2.04359 0.77447 0
M  V30 88 H -4.78574 -0.323123 0.369645 0
M  V30 89 H -7.40978 1.85225 1.66606 0
M  V30 90 H -6.84004 -0.450979 1.99118 0
M  V30 91 H -6.77695 -0.722333 0.259426 0
M  V30 92 H -7.63471 2.67166 -0.659198 0
M  V30 93 H -7.25624 1.0618 -1.31053 0
M  V30 94 H -9.81022 3.15458 0.39098 0
M  V30 95 H -12.1745 2.4756 0.588893 0
M  V30 96 H -12.8581 0.17109 -0.000444597 0
M  V30 97 H -11.1852 -1.4027 -0.774813 0
M  V30 98 H -8.83627 -0.737221 -0.975347 0
M  V30 99 H -2.22739 -1.59009 2.26109 0
M  V30 100 H -1.49562 -3.26471 0.859591 0
M  V30 101 H -4.26181 -2.56226 -0.179043 0
M  V30 102 H -3.31481 -4.02598 -0.436814 0
M  V30 103 H -4.89737 -1.8473 2.21034 0
M  V30 104 H -5.51147 -2.70513 4.41913 0
M  V30 105 H -4.82797 -4.97849 5.09713 0
M  V30 106 H -3.54512 -6.35494 3.5679 0
M  V30 107 H -2.9175 -5.52924 1.3682 0
M  V30 108 H -0.0790453 -1.01626 -1.78554 0
M  V30 109 H 1.89179 -1.95809 -1.6376 0
M  V30 110 H 0.304172 -4.47734 -2.00315 0
M  V30 111 H 1.00438 -3.36782 -3.19543 0
M  V30 112 H 3.6359 -3.33594 -3.48288 0
M  V30 113 H 5.47955 -5.21567 -3.12463 0
M  V30 114 H 0.975789 -6.45988 -0.636845 0
M  V30 115 H 1.93964 -8.58885 0.160449 0
M  V30 116 H 4.26681 -9.19357 -0.415873 0
M  V30 117 H 5.56814 -7.5997 -1.79492 0
M  V30 118 H 1.85711 -1.85038 1.9485 0
M  V30 119 H 3.58808 -0.501938 1.56045 0
M  V30 120 H 5.71113 -1.61208 1.20292 0
M  V30 121 H 4.6162 -2.31745 2.40142 0
M  V30 122 H 4.1015 -4.21691 0.806768 0
M  V30 123 H 5.26205 -3.43298 -0.39323 0
M  V30 124 H 6.30633 -5.20614 0.885233 0
M  V30 125 H 5.91741 -4.35213 2.41063 0
M  V30 126 H 7.67855 -3.18779 0.149491 0
M  V30 127 H 7.39232 -2.49666 1.78056 0
M  V30 128 H 8.21498 -5.2225 1.71744 0
M  V30 129 H 9.38966 -4.1024 1.27706 0
M  V30 130 H 2.6255 0.374019 -1.77186 0
M  V30 131 H 3.20466 2.52693 -1.43928 0
M  V30 132 H 4.62011 3.53946 -0.031689 0
M  V30 133 H 6.0586 2.75823 1.50285 0
M  V30 134 H 4.8067 1.57647 1.90545 0
M  V30 135 H 6.13005 1.11981 0.810403 0
M  V30 136 H 5.09387 2.35136 -2.10012 0
M  V30 137 H 0.436725 3.3637 0.545191 0
M  V30 END ATOM
M  V30 BEGIN BOND
M  V30 1 1 1 2
M  V30 2 1 2 3
M  V30 3 1 2 4
M  V30 4 1 4 5
M  V30 5 1 5 6
M  V30 6 1 4 7
M  V30 7 1 7 8
M  V30 8 2 8 9
M  V30 9 1 8 10
M  V30 10 1 10 11
M  V30 11 1 11 12
M  V30 12 1 12 13
M  V30 13 1 13 14
M  V30 14 1 14 15
M  V30 15 1 15 16
M  V30 16 1 16 17
M  V30 17 2 17 18
M  V30 18 1 17 19
M  V30 19 1 19 20
M  V30 20 1 19 21
M  V30 21 1 21 22
M  V30 22 2 22 23
M  V30 23 1 23 24
M  V30 24 2 24 25
M  V30 25 1 25 26
M  V30 26 2 26 27
M  V30 27 1 15 28
M  V30 28 2 28 29
M  V30 29 1 28 30
M  V30 30 1 30 31
M  V30 31 1 31 32
M  V30 32 1 32 33
M  V30 33 2 33 34
M  V30 34 1 34 35
M  V30 35 2 35 36
M  V30 36 1 36 37
M  V30 37 2 37 38
M  V30 38 1 31 39
M  V30 39 2 39 40
M  V30 40 1 39 41
M  V30 41 1 41 42
M  V30 42 1 42 43
M  V30 43 1 43 44
M  V30 44 2 44 45
M  V30 45 1 45 46
M  V30 46 1 46 47
M  V30 47 2 47 48
M  V30 48 1 48 49
M  V30 49 2 49 50
M  V30 50 1 50 51
M  V30 51 2 51 52
M  V30 52 1 42 53
M  V30 53 2 53 54
M  V30 54 1 53 55
M  V30 55 1 55 56
M  V30 56 1 56 57
M  V30 57 1 57 58
M  V30 58 1 58 59
M  V30 59 1 59 60
M  V30 60 1 60 61
M  V30 61 1 56 62
M  V30 62 2 62 63
M  V30 63 1 62 64
M  V30 64 1 64 65
M  V30 65 1 65 66
M  V30 66 1 66 67
M  V30 67 1 66 68
M  V30 68 1 65 69
M  V30 69 2 69 70
M  V30 70 1 69 71
M  V30 71 1 71 10
M  V30 72 1 27 22
M  V30 73 1 38 33
M  V30 74 1 48 44
M  V30 75 1 52 47
M  V30 76 1 1 72
M  V30 77 1 1 73
M  V30 78 1 1 74
M  V30 79 1 2 75
M  V30 80 1 3 76
M  V30 81 1 4 77
M  V30 82 1 5 78
M  V30 83 1 5 79
M  V30 84 1 6 80
M  V30 85 1 7 81
M  V30 86 1 10 82 CFG=3
M  V30 87 1 11 83
M  V30 88 1 11 84
M  V30 89 1 14 85
M  V30 90 1 14 86
M  V30 91 1 15 87 CFG=1
M  V30 92 1 16 88
M  V30 93 1 19 89 CFG=1
M  V30 94 1 20 90
M  V30 95 1 20 91
M  V30 96 1 21 92
M  V30 97 1 21 93
M  V30 98 1 23 94
M  V30 99 1 24 95
M  V30 100 1 25 96
M  V30 101 1 26 97
M  V30 102 1 27 98
M  V30 103 1 30 99
M  V30 104 1 31 100 CFG=1
M  V30 105 1 32 101
M  V30 106 1 32 102
M  V30 107 1 34 103
M  V30 108 1 35 104
M  V30 109 1 36 105
M  V30 110 1 37 106
M  V30 111 1 38 107
M  V30 112 1 41 108
M  V30 113 1 42 109 CFG=3
M  V30 114 1 43 110
M  V30 115 1 43 111
M  V30 116 1 45 112
M  V30 117 1 46 113
M  V30 118 1 49 114
M  V30 119 1 50 115
M  V30 120 1 51 116
M  V30 121 1 52 117
M  V30 122 1 55 118
M  V30 123 1 56 119 CFG=1
M  V30 124 1 57 120
M  V30 125 1 57 121
M  V30 126 1 58 122
M  V30 127 1 58 123
M  V30 128 1 59 124
M  V30 129 1 59 125
M  V30 130 1 60 126
M  V30 131 1 60 127
M  V30 132 1 61 128
M  V30 133 1 61 129
M  V30 134 1 64 130
M  V30 135 1 65 131 CFG=3
M  V30 136 1 66 132
M  V30 137 1 67 133
M  V30 138 1 67 134
M  V30 139 1 67 135
M  V30 140 1 68 136
M  V30 141 1 71 137
M  V30 END BOND
M  V30 END CTAB
M  END
