
     RDKit          3D

  0  0  0  0  0  0  0  0  0  0999 V3000
M  V30 BEGIN CTAB
M  V30 COUNTS 20 20 0 0 0
M  V30 BEGIN ATOM
M  V30 1 N 4.06739 0.0516111 0.0695719 0
M  V30 2 N 2.71235 -0.0201074 0.507259 0
M  V30 3 C 1.6637 0.0279606 -0.442381 0
M  V30 4 O 1.94457 0.133908 -1.66601 0
M  V30 5 C 0.26097 -0.0410257 -0.05482 0
M  V30 6 C -0.739768 0.0103329 -1.03033 0
M  V30 7 C -2.07597 -0.0502642 -0.725012 0
M  V30 8 N -3.08768 0.00356994 -1.73467 0
M  V30 9 C -2.4129 -0.167495 0.620959 0
M  V30 10 C -1.47099 -0.222725 1.62484 0
M  V30 11 C -0.141917 -0.156769 1.25045 0
M  V30 12 F -1.79322 -0.336761 2.93604 0
M  V30 13 H 4.12251 0.993919 -0.419499 0
M  V30 14 H 4.6833 0.157081 0.908068 0
M  V30 15 H 2.50451 -0.106628 1.51392 0
M  V30 16 H -0.465496 0.101622 -2.07436 0
M  V30 17 H -2.97223 -0.557155 -2.59721 0
M  V30 18 H -3.92655 0.595949 -1.60611 0
M  V30 19 H -3.46064 -0.214755 0.85711 0
M  V30 20 H 0.588067 -0.202269 2.06219 0
M  V30 END ATOM
M  V30 BEGIN BOND
M  V30 1 1 1 2
M  V30 2 1 2 3
M  V30 3 2 3 4
M  V30 4 1 3 5
M  V30 5 2 5 6
M  V30 6 1 6 7
M  V30 7 1 7 8
M  V30 8 2 7 9
M  V30 9 1 9 10
M  V30 10 2 10 11
M  V30 11 1 10 12
M  V30 12 1 11 5
M  V30 13 1 1 13
M  V30 14 1 1 14
M  V30 15 1 2 15
M  V30 16 1 6 16
M  V30 17 1 8 17
M  V30 18 1 8 18
M  V30 19 1 9 19
M  V30 20 1 11 20
M  V30 END BOND
M  V30 END CTAB
M  END
