
     RDKit          3D

  0  0  0  0  0  0  0  0  0  0999 V3000
M  V30 BEGIN CTAB
M  V30 COUNTS 36 37 0 0 0
M  V30 BEGIN ATOM
M  V30 1 N -4.07821 1.34354 1.46674 0
M  V30 2 C -3.45855 0.801739 0.310367 0
M  V30 3 C -4.16468 0.779044 -0.878405 0
M  V30 4 C -3.55479 0.247806 -2.00876 0
M  V30 5 C -2.27531 -0.222107 -1.85595 0
M  V30 6 C -1.59387 -0.191288 -0.673777 0
M  V30 7 N -2.22296 0.33288 0.398952 0
M  V30 8 C -0.222664 -0.710767 -0.572102 0 CFG=2
M  V30 9 C -0.0735023 -1.83283 0.404739 0
M  V30 10 C 0.600392 -1.45606 1.68573 0
M  V30 11 C 2.00049 -0.987271 1.55065 0
M  V30 12 C 2.54967 -1.00581 0.163468 0
M  V30 13 N 2.01207 0.0538769 -0.591808 0
M  V30 14 C 0.691986 0.459974 -0.263056 0
M  V30 15 S 3.06604 1.23986 -1.13011 0
M  V30 16 O 4.09334 0.600674 -2.05231 0
M  V30 17 O 2.31722 2.24447 -1.95766 0
M  V30 18 N 3.86641 2.1001 0.144863 0
M  V30 19 H -4.32128 0.753273 2.27223 0
M  V30 20 H -4.28477 2.35588 1.48763 0
M  V30 21 H -5.17976 1.172 -0.920687 0
M  V30 22 H -4.10885 0.233495 -2.92782 0
M  V30 23 H -1.77931 -0.644635 -2.73785 0
M  V30 24 H 0.0869647 -1.08771 -1.56798 0
M  V30 25 H -1.11223 -2.16473 0.679949 0
M  V30 26 H 0.4107 -2.73333 -0.0246535 0
M  V30 27 H -0.0250985 -0.700801 2.24263 0
M  V30 28 H 0.587188 -2.36091 2.33436 0
M  V30 29 H 2.13781 0.0586547 1.95572 0
M  V30 30 H 2.70503 -1.6019 2.18641 0
M  V30 31 H 2.27828 -1.97248 -0.330895 0
M  V30 32 H 3.66408 -0.986861 0.202111 0
M  V30 33 H 0.551632 0.813674 0.769481 0
M  V30 34 H 0.395518 1.28986 -0.930859 0
M  V30 35 H 4.90414 1.97815 0.0895411 0
M  V30 36 H 3.53687 1.80054 1.07911 0
M  V30 END ATOM
M  V30 BEGIN BOND
M  V30 1 1 1 2
M  V30 2 2 2 3
M  V30 3 1 3 4
M  V30 4 2 4 5
M  V30 5 1 5 6
M  V30 6 2 6 7
M  V30 7 1 6 8
M  V30 8 1 8 9
M  V30 9 1 9 10
M  V30 10 1 10 11
M  V30 11 1 11 12
M  V30 12 1 12 13
M  V30 13 1 13 14
M  V30 14 1 13 15
M  V30 15 2 15 16
M  V30 16 2 15 17
M  V30 17 1 15 18
M  V30 18 1 7 2
M  V30 19 1 14 8
M  V30 20 1 1 19
M  V30 21 1 1 20
M  V30 22 1 3 21
M  V30 23 1 4 22
M  V30 24 1 5 23
M  V30 25 1 8 24 CFG=3
M  V30 26 1 9 25
M  V30 27 1 9 26
M  V30 28 1 10 27
M  V30 29 1 10 28
M  V30 30 1 11 29
M  V30 31 1 11 30
M  V30 32 1 12 31
M  V30 33 1 12 32
M  V30 34 1 14 33
M  V30 35 1 14 34
M  V30 36 1 18 35
M  V30 37 1 18 36
M  V30 END BOND
M  V30 END CTAB
M  END
