
     RDKit          3D

  0  0  0  0  0  0  0  0  0  0999 V3000
M  V30 BEGIN CTAB
M  V30 COUNTS 34 35 0 0 0
M  V30 BEGIN ATOM
M  V30 1 O -2.01897 0.112739 -1.06409 0
M  V30 2 C -2.08638 0.517768 0.131368 0
M  V30 3 C -3.02653 -0.0658347 1.07596 0
M  V30 4 N -3.12888 0.335575 2.34992 0
M  V30 5 C -4.01155 -0.223517 3.20627 0
M  V30 6 C -4.84288 -1.2379 2.78428 0
M  V30 7 N -4.74502 -1.64268 1.51348 0
M  V30 8 C -3.86134 -1.07905 0.665818 0
M  V30 9 N -3.76551 -1.5223 -0.696208 0
M  V30 10 N -1.24014 1.55677 0.577622 0
M  V30 11 C -0.277319 2.1968 -0.28076 0
M  V30 12 C 0.913436 1.31737 -0.473712 0
M  V30 13 C 1.11045 0.634728 -1.65363 0
M  V30 14 C 2.21981 -0.167801 -1.79012 0
M  V30 15 C 3.12511 -0.28693 -0.755334 0
M  V30 16 C 2.94713 0.389573 0.438535 0
M  V30 17 C 1.83375 1.18962 0.564159 0
M  V30 18 S 4.50363 -1.33016 -1.02451 0
M  V30 19 O 4.94379 -1.97873 0.261867 0
M  V30 20 O 4.07739 -2.44291 -1.93978 0
M  V30 21 N 5.82615 -0.491939 -1.69635 0
M  V30 22 H -4.09414 0.10439 4.2445 0
M  V30 23 H -5.5587 -1.69003 3.48288 0
M  V30 24 H -4.43518 -1.04054 -1.35842 0
M  V30 25 H -3.10415 -2.2449 -1.00259 0
M  V30 26 H -1.31357 1.87538 1.56889 0
M  V30 27 H -0.727999 2.44403 -1.27147 0
M  V30 28 H 0.112317 3.12893 0.199204 0
M  V30 29 H 0.409183 0.7154 -2.48869 0
M  V30 30 H 2.36605 -0.701609 -2.72443 0
M  V30 31 H 3.6865 0.264376 1.22421 0
M  V30 32 H 1.65753 1.73728 1.48397 0
M  V30 33 H 6.70908 -0.901891 -1.32902 0
M  V30 34 H 5.79696 0.528005 -1.53168 0
M  V30 END ATOM
M  V30 BEGIN BOND
M  V30 1 2 1 2
M  V30 2 1 2 3
M  V30 3 2 3 4
M  V30 4 1 4 5
M  V30 5 2 5 6
M  V30 6 1 6 7
M  V30 7 2 7 8
M  V30 8 1 8 9
M  V30 9 1 2 10
M  V30 10 1 10 11
M  V30 11 1 11 12
M  V30 12 2 12 13
M  V30 13 1 13 14
M  V30 14 2 14 15
M  V30 15 1 15 16
M  V30 16 2 16 17
M  V30 17 1 15 18
M  V30 18 2 18 19
M  V30 19 2 18 20
M  V30 20 1 18 21
M  V30 21 1 8 3
M  V30 22 1 17 12
M  V30 23 1 5 22
M  V30 24 1 6 23
M  V30 25 1 9 24
M  V30 26 1 9 25
M  V30 27 1 10 26
M  V30 28 1 11 27
M  V30 29 1 11 28
M  V30 30 1 13 29
M  V30 31 1 14 30
M  V30 32 1 16 31
M  V30 33 1 17 32
M  V30 34 1 21 33
M  V30 35 1 21 34
M  V30 END BOND
M  V30 END CTAB
M  END
