
     RDKit          3D

  0  0  0  0  0  0  0  0  0  0999 V3000
M  V30 BEGIN CTAB
M  V30 COUNTS 68 70 0 0 0
M  V30 BEGIN ATOM
M  V30 1 C 1.06346 0.546878 -0.268142 0 CFG=2
M  V30 2 N 0.649987 0.198203 -1.63103 0
M  V30 3 C 0.047969 -0.902871 -2.17453 0
M  V30 4 O -0.335593 -0.756258 -3.43381 0
M  V30 5 C -0.291423 -2.25768 -1.70019 0 CFG=1
M  V30 6 N -0.475111 -2.26389 -0.276317 0
M  V30 7 C -1.54798 -2.80142 -2.40063 0
M  V30 8 C -2.79749 -2.28634 -1.76049 0
M  V30 9 C -3.23578 -0.998476 -1.56436 0
M  V30 10 C -4.37167 -0.859191 -0.789592 0
M  V30 11 O -4.99523 0.381648 -0.410024 0
M  V30 12 C -4.11768 1.38844 0.191322 0
M  V30 13 C -3.86022 1.43796 1.51239 0
M  V30 14 C -2.97157 2.39292 2.09453 0
M  V30 15 C -2.33863 3.31691 1.28653 0
M  V30 16 C -1.28801 4.24448 1.84464 0
M  V30 17 C 0.0240371 3.37842 1.83483 0 CFG=2
M  V30 18 N 0.384263 2.99633 0.512358 0
M  V30 19 C 1.13713 2.01514 -0.0989029 0
M  V30 20 O 2.2132 2.44366 -0.710409 0
M  V30 21 C -0.0368975 2.41714 2.90026 0
M  V30 22 O -0.379793 2.95156 4.17058 0
M  V30 23 O 0.152872 1.1937 2.93574 0
M  V30 24 C -2.60329 3.2862 -0.0696322 0
M  V30 25 C -3.49603 2.31452 -0.594811 0
M  V30 26 C -5.05854 -1.93069 -0.246481 0
M  V30 27 O -6.22893 -1.80107 0.537794 0
M  V30 28 C -4.64364 -3.23206 -0.437298 0
M  V30 29 C -3.50897 -3.37044 -1.19727 0
M  V30 30 C 2.39979 -0.111147 0.00532804 0 CFG=2
M  V30 31 O 2.85549 0.196473 1.26592 0
M  V30 32 C 3.47048 0.064937 -0.996535 0 CFG=2
M  V30 33 O 3.01973 -0.169252 -2.31012 0
M  V30 34 C 4.49653 -1.07309 -0.819401 0
M  V30 35 N 5.18216 -1.09793 0.401695 0
M  V30 36 C 6.1092 -2.18306 0.61544 0
M  V30 37 N 7.48722 -1.9567 0.377698 0
M  V30 38 N 5.6985 -3.32522 1.01103 0
M  V30 39 H 0.331273 0.0586198 0.372662 0
M  V30 40 H 0.89813 1.02416 -2.312 0
M  V30 41 H 0.515914 -2.99194 -1.91428 0
M  V30 42 H -1.40784 -1.94665 0.0185169 0
M  V30 43 H -0.283282 -3.18233 0.172921 0
M  V30 44 H -1.40801 -3.90275 -2.29114 0
M  V30 45 H -1.42535 -2.64554 -3.47425 0
M  V30 46 H -2.75475 -0.101933 -2.0799 0
M  V30 47 H -4.27923 0.800905 2.34619 0
M  V30 48 H -2.97294 2.1865 3.1919 0
M  V30 49 H -1.44764 4.65474 2.85861 0
M  V30 50 H -1.08172 5.18812 1.32045 0
M  V30 51 H 0.756936 4.18873 2.20862 0
M  V30 52 H -0.0540855 3.73747 -0.183732 0
M  V30 53 H 0.321481 3.20666 4.85151 0
M  V30 54 H -2.26459 3.89519 -0.939868 0
M  V30 55 H -3.58879 2.47519 -1.70263 0
M  V30 56 H -6.60555 -0.891337 0.727015 0
M  V30 57 H -5.16318 -4.07185 -0.0273008 0
M  V30 58 H -3.17892 -4.41391 -1.34999 0
M  V30 59 H 2.19437 -1.21771 0.0429963 0
M  V30 60 H 2.68399 -0.490117 1.94138 0
M  V30 61 H 4.0365 0.974455 -0.880472 0
M  V30 62 H 3.51305 0.461506 -2.88509 0
M  V30 63 H 5.1383 -1.03771 -1.72598 0
M  V30 64 H 3.91436 -2.03796 -0.9201 0
M  V30 65 H 5.11849 -0.423543 1.17793 0
M  V30 66 H 8.06405 -1.69276 1.22049 0
M  V30 67 H 7.91332 -2.04438 -0.573026 0
M  V30 68 H 4.7062 -3.54855 1.20045 0
M  V30 END ATOM
M  V30 BEGIN BOND
M  V30 1 1 1 2
M  V30 2 1 2 3
M  V30 3 2 3 4
M  V30 4 1 3 5
M  V30 5 1 5 6
M  V30 6 1 5 7
M  V30 7 1 7 8
M  V30 8 2 8 9
M  V30 9 1 9 10
M  V30 10 1 10 11
M  V30 11 1 11 12
M  V30 12 2 12 13
M  V30 13 1 13 14
M  V30 14 2 14 15
M  V30 15 1 15 16
M  V30 16 1 16 17
M  V30 17 1 17 18
M  V30 18 1 18 19
M  V30 19 2 19 20
M  V30 20 1 17 21
M  V30 21 1 21 22
M  V30 22 2 21 23
M  V30 23 1 15 24
M  V30 24 2 24 25
M  V30 25 2 10 26
M  V30 26 1 26 27
M  V30 27 1 26 28
M  V30 28 2 28 29
M  V30 29 1 1 30
M  V30 30 1 30 31
M  V30 31 1 30 32
M  V30 32 1 32 33
M  V30 33 1 32 34
M  V30 34 1 34 35
M  V30 35 1 35 36
M  V30 36 1 36 37
M  V30 37 2 36 38 CFG=2
M  V30 38 1 19 1
M  V30 39 1 29 8
M  V30 40 1 25 12
M  V30 41 1 1 39 CFG=1
M  V30 42 1 2 40
M  V30 43 1 5 41 CFG=1
M  V30 44 1 6 42
M  V30 45 1 6 43
M  V30 46 1 7 44
M  V30 47 1 7 45
M  V30 48 1 9 46
M  V30 49 1 13 47
M  V30 50 1 14 48
M  V30 51 1 16 49
M  V30 52 1 16 50
M  V30 53 1 17 51 CFG=1
M  V30 54 1 18 52
M  V30 55 1 22 53
M  V30 56 1 24 54
M  V30 57 1 25 55
M  V30 58 1 27 56
M  V30 59 1 28 57
M  V30 60 1 29 58
M  V30 61 1 30 59 CFG=1
M  V30 62 1 31 60
M  V30 63 1 32 61 CFG=3
M  V30 64 1 33 62
M  V30 65 1 34 63
M  V30 66 1 34 64
M  V30 67 1 35 65
M  V30 68 1 37 66
M  V30 69 1 37 67
M  V30 70 1 38 68
M  V30 END BOND
M  V30 END CTAB
M  END
