
     RDKit          3D

  0  0  0  0  0  0  0  0  0  0999 V3000
M  V30 BEGIN CTAB
M  V30 COUNTS 25 26 0 0 0
M  V30 BEGIN ATOM
M  V30 1 N -2.124 2.00508 0.15326 0
M  V30 2 C -2.5093 0.735049 -0.418447 0
M  V30 3 C -1.85752 -0.43505 0.235241 0
M  V30 4 C -0.37677 -0.463521 0.154882 0
M  V30 5 C 0.320352 -1.48864 0.813678 0
M  V30 6 C 1.68955 -1.56377 0.751658 0
M  V30 7 C 2.41491 -0.618098 0.0293895 0
M  V30 8 C 1.73618 0.375228 -0.609026 0
M  V30 9 C 0.339548 0.454125 -0.547642 0
M  V30 10 O 2.67871 1.19101 -1.25855 0
M  V30 11 C 3.95419 0.794464 -0.783897 0
M  V30 12 O 3.789 -0.461898 -0.194602 0
M  V30 13 F 4.81416 0.743594 -1.84821 0
M  V30 14 F 4.35572 1.71961 0.162622 0
M  V30 15 N -2.38099 -1.71748 -0.20829 0
M  V30 16 H -2.01841 1.90113 1.1865 0
M  V30 17 H -2.79132 2.75499 -0.0498308 0
M  V30 18 H -2.37247 0.750599 -1.52132 0
M  V30 19 H -3.61829 0.647916 -0.237425 0
M  V30 20 H -2.10952 -0.382519 1.34269 0
M  V30 21 H -0.273568 -2.2142 1.37096 0
M  V30 22 H 2.22809 -2.35977 1.26344 0
M  V30 23 H -0.104364 1.28113 -1.10348 0
M  V30 24 H -3.22455 -2.00269 0.336696 0
M  V30 25 H -2.55933 -1.6463 -1.23047 0
M  V30 END ATOM
M  V30 BEGIN BOND
M  V30 1 1 1 2
M  V30 2 1 2 3
M  V30 3 1 3 4
M  V30 4 2 4 5
M  V30 5 1 5 6
M  V30 6 2 6 7
M  V30 7 1 7 8
M  V30 8 2 8 9
M  V30 9 1 8 10
M  V30 10 1 10 11
M  V30 11 1 11 12
M  V30 12 1 11 13
M  V30 13 1 11 14
M  V30 14 1 3 15
M  V30 15 1 9 4
M  V30 16 1 12 7
M  V30 17 1 1 16
M  V30 18 1 1 17
M  V30 19 1 2 18
M  V30 20 1 2 19
M  V30 21 1 3 20
M  V30 22 1 5 21
M  V30 23 1 6 22
M  V30 24 1 9 23
M  V30 25 1 15 24
M  V30 26 1 15 25
M  V30 END BOND
M  V30 END CTAB
M  END
