
     RDKit          3D

  0  0  0  0  0  0  0  0  0  0999 V3000
M  V30 BEGIN CTAB
M  V30 COUNTS 92 96 0 0 0
M  V30 BEGIN ATOM
M  V30 1 N 11.4271 -3.11622 -0.854558 0
M  V30 2 C 10.8984 -2.13047 0.00470906 0
M  V30 3 N 11.6405 -1.56802 0.929175 0
M  V30 4 N 9.53422 -1.78409 -0.175331 0
M  V30 5 C 8.59792 -2.87576 -0.377571 0
M  V30 6 C 7.47062 -2.33781 -1.20765 0
M  V30 7 N 6.8444 -1.20929 -0.509552 0
M  V30 8 C 7.65024 -0.27463 0.235423 0
M  V30 9 C 9.12653 -0.420901 -0.156101 0
M  V30 10 C 5.46208 -1.06653 -0.613429 0
M  V30 11 O 4.80119 -1.90001 -1.32348 0
M  V30 12 C 4.69063 0.00195545 0.0563978 0
M  V30 13 C 3.30323 0.0308628 -0.544725 0
M  V30 14 C 2.5458 1.20846 0.0937964 0
M  V30 15 N 2.40471 0.840082 1.46654 0
M  V30 16 C 3.62813 0.664946 2.21682 0
M  V30 17 C 4.48924 -0.382682 1.52423 0
M  V30 18 C 1.17223 0.62923 2.0728 0
M  V30 19 O 1.07424 0.27232 3.28847 0
M  V30 20 C -0.134313 0.803422 1.32858 0 CFG=2
M  V30 21 C -0.370708 2.28197 1.28786 0
M  V30 22 C -1.61131 2.69712 0.606523 0
M  V30 23 C -2.7658 2.8713 1.35339 0
M  V30 24 C -3.92986 3.26227 0.744051 0
M  V30 25 C -3.97725 3.49061 -0.626884 0
M  V30 26 C -2.85869 3.3281 -1.39496 0
M  V30 27 C -1.70859 2.9339 -0.740938 0
M  V30 28 C -2.83614 3.55552 -2.82806 0
M  V30 29 N -1.61581 3.33127 -3.56564 0
M  V30 30 N -3.85409 3.94774 -3.50246 0
M  V30 31 N -1.16704 0.220151 2.17177 0
M  V30 32 S -1.79185 -1.21879 1.52909 0
M  V30 33 O -1.01384 -1.68556 0.310949 0
M  V30 34 O -1.6937 -2.2848 2.5998 0
M  V30 35 C -3.44253 -1.00751 1.02004 0
M  V30 36 C -4.51845 -1.31013 1.79092 0
M  V30 37 C -5.80206 -1.1389 1.29278 0
M  V30 38 C -6.04573 -0.669152 0.0331255 0
M  V30 39 C -4.91759 -0.363932 -0.738771 0
M  V30 40 C -3.64885 -0.530686 -0.252682 0
M  V30 41 C -7.37259 -0.492453 -0.595079 0
M  V30 42 C -8.38361 -0.128692 0.428127 0
M  V30 43 C -9.78175 -0.144333 -0.188399 0
M  V30 44 C -10.031 -1.5768 -0.64914 0
M  V30 45 C -9.10006 -1.81887 -1.82401 0
M  V30 46 C -7.68797 -1.82854 -1.26733 0
M  V30 47 H 12.0009 -3.88575 -0.477594 0
M  V30 48 H 11.2373 -3.06755 -1.86585 0
M  V30 49 H 11.1798 -0.85729 1.51458 0
M  V30 50 H 8.19004 -3.29727 0.54588 0
M  V30 51 H 9.05434 -3.70674 -0.953585 0
M  V30 52 H 6.7459 -3.13025 -1.45648 0
M  V30 53 H 7.89445 -1.8773 -2.14079 0
M  V30 54 H 7.34 0.764963 -0.0172218 0
M  V30 55 H 7.60678 -0.389164 1.32596 0
M  V30 56 H 9.22485 0.0538375 -1.16425 0
M  V30 57 H 9.71521 0.157483 0.580895 0
M  V30 58 H 5.1687 0.970575 -0.0443654 0
M  V30 59 H 2.79057 -0.911252 -0.191264 0
M  V30 60 H 3.27627 0.0434336 -1.63196 0
M  V30 61 H 3.1796 2.10218 -0.078496 0
M  V30 62 H 1.55412 1.29793 -0.42196 0
M  V30 63 H 3.46641 0.365952 3.25903 0
M  V30 64 H 4.17997 1.63139 2.16229 0
M  V30 65 H 5.42617 -0.425704 2.07948 0
M  V30 66 H 4.00564 -1.3741 1.53748 0
M  V30 67 H -0.0124702 0.286339 0.385473 0
M  V30 68 H 0.447755 2.882 0.85367 0
M  V30 69 H -0.447389 2.69407 2.35263 0
M  V30 70 H -2.71651 2.68992 2.41595 0
M  V30 71 H -4.83134 3.40203 1.30969 0
M  V30 72 H -4.90792 3.79469 -1.05738 0
M  V30 73 H -0.826993 2.80534 -1.34231 0
M  V30 74 H -0.745659 3.76698 -3.22015 0
M  V30 75 H -1.6524 2.73742 -4.42028 0
M  V30 76 H -4.77996 4.12876 -3.03724 0
M  V30 77 H -0.911584 0.234626 3.1531 0
M  V30 78 H -4.35358 -1.68546 2.79811 0
M  V30 79 H -6.64598 -1.38569 1.92281 0
M  V30 80 H -5.06448 0.0179289 -1.75997 0
M  V30 81 H -2.82164 -0.273679 -0.909945 0
M  V30 82 H -7.24537 0.280838 -1.41178 0
M  V30 83 H -8.13446 0.839311 0.887221 0
M  V30 84 H -8.41537 -0.967057 1.17963 0
M  V30 85 H -10.4816 0.132064 0.63309 0
M  V30 86 H -9.77566 0.548401 -1.03929 0
M  V30 87 H -9.65136 -2.26244 0.166203 0
M  V30 88 H -11.0754 -1.81006 -0.839053 0
M  V30 89 H -9.27521 -2.81307 -2.28095 0
M  V30 90 H -9.14812 -1.01246 -2.5725 0
M  V30 91 H -7.51773 -2.64433 -0.536695 0
M  V30 92 H -6.94681 -1.95753 -2.07994 0
M  V30 END ATOM
M  V30 BEGIN BOND
M  V30 1 1 1 2
M  V30 2 2 2 3 CFG=2
M  V30 3 1 2 4
M  V30 4 1 4 5
M  V30 5 1 5 6
M  V30 6 1 6 7
M  V30 7 1 7 8
M  V30 8 1 8 9
M  V30 9 1 7 10
M  V30 10 2 10 11
M  V30 11 1 10 12
M  V30 12 1 12 13
M  V30 13 1 13 14
M  V30 14 1 14 15
M  V30 15 1 15 16
M  V30 16 1 16 17
M  V30 17 1 15 18
M  V30 18 2 18 19
M  V30 19 1 18 20
M  V30 20 1 20 21
M  V30 21 1 21 22
M  V30 22 2 22 23
M  V30 23 1 23 24
M  V30 24 2 24 25
M  V30 25 1 25 26
M  V30 26 2 26 27
M  V30 27 1 26 28
M  V30 28 1 28 29
M  V30 29 2 28 30 CFG=2
M  V30 30 1 20 31
M  V30 31 1 31 32
M  V30 32 2 32 33
M  V30 33 2 32 34
M  V30 34 1 32 35
M  V30 35 2 35 36
M  V30 36 1 36 37
M  V30 37 2 37 38
M  V30 38 1 38 39
M  V30 39 2 39 40
M  V30 40 1 38 41
M  V30 41 1 41 42
M  V30 42 1 42 43
M  V30 43 1 43 44
M  V30 44 1 44 45
M  V30 45 1 45 46
M  V30 46 1 9 4
M  V30 47 1 17 12
M  V30 48 1 27 22
M  V30 49 1 40 35
M  V30 50 1 46 41
M  V30 51 1 1 47
M  V30 52 1 1 48
M  V30 53 1 3 49
M  V30 54 1 5 50
M  V30 55 1 5 51
M  V30 56 1 6 52
M  V30 57 1 6 53
M  V30 58 1 8 54
M  V30 59 1 8 55
M  V30 60 1 9 56
M  V30 61 1 9 57
M  V30 62 1 12 58
M  V30 63 1 13 59
M  V30 64 1 13 60
M  V30 65 1 14 61
M  V30 66 1 14 62
M  V30 67 1 16 63
M  V30 68 1 16 64
M  V30 69 1 17 65
M  V30 70 1 17 66
M  V30 71 1 20 67 CFG=3
M  V30 72 1 21 68
M  V30 73 1 21 69
M  V30 74 1 23 70
M  V30 75 1 24 71
M  V30 76 1 25 72
M  V30 77 1 27 73
M  V30 78 1 29 74
M  V30 79 1 29 75
M  V30 80 1 30 76
M  V30 81 1 31 77
M  V30 82 1 36 78
M  V30 83 1 37 79
M  V30 84 1 39 80
M  V30 85 1 40 81
M  V30 86 1 41 82
M  V30 87 1 42 83
M  V30 88 1 42 84
M  V30 89 1 43 85
M  V30 90 1 43 86
M  V30 91 1 44 87
M  V30 92 1 44 88
M  V30 93 1 45 89
M  V30 94 1 45 90
M  V30 95 1 46 91
M  V30 96 1 46 92
M  V30 END BOND
M  V30 END CTAB
M  END
