
     RDKit          3D

  0  0  0  0  0  0  0  0  0  0999 V3000
M  V30 BEGIN CTAB
M  V30 COUNTS 26 26 0 0 0
M  V30 BEGIN ATOM
M  V30 1 C -2.18672 -1.24008 1.23314 0
M  V30 2 O -2.13595 0.0565834 0.795313 0
M  V30 3 C -1.34506 0.338127 -0.287862 0
M  V30 4 C 0.0914336 0.0685743 -0.046993 0
M  V30 5 N 0.854884 1.12177 0.391862 0
M  V30 6 C 2.16835 1.01172 0.618446 0
M  V30 7 N 2.86181 2.149 1.06669 0
M  V30 8 N 2.76805 -0.170883 0.407722 0
M  V30 9 C 2.05316 -1.22236 -0.0220984 0
M  V30 10 N 0.727987 -1.06002 -0.233699 0
M  V30 11 N 2.69579 -2.48138 -0.254544 0
M  V30 12 C -1.50431 1.8528 -0.548514 0
M  V30 13 C -1.82134 -0.321159 -1.55936 0
M  V30 14 H -1.18198 -1.59793 1.50106 0
M  V30 15 H -2.67654 -1.8496 0.434838 0
M  V30 16 H -2.85893 -1.21244 2.14587 0
M  V30 17 H 3.2681 2.79904 0.377002 0
M  V30 18 H 2.96155 2.32608 2.07509 0
M  V30 19 H 2.89123 -3.12662 0.535288 0
M  V30 20 H 2.99386 -2.7705 -1.20511 0
M  V30 21 H -0.869999 2.1549 -1.39301 0
M  V30 22 H -1.31598 2.3855 0.400103 0
M  V30 23 H -2.55391 2.0386 -0.809719 0
M  V30 24 H -1.06839 -0.103224 -2.33543 0
M  V30 25 H -2.05787 -1.38822 -1.43334 0
M  V30 26 H -2.7592 0.241707 -1.85275 0
M  V30 END ATOM
M  V30 BEGIN BOND
M  V30 1 1 1 2
M  V30 2 1 2 3
M  V30 3 1 3 4
M  V30 4 2 4 5
M  V30 5 1 5 6
M  V30 6 1 6 7
M  V30 7 2 6 8
M  V30 8 1 8 9
M  V30 9 2 9 10
M  V30 10 1 9 11
M  V30 11 1 3 12
M  V30 12 1 3 13
M  V30 13 1 10 4
M  V30 14 1 1 14
M  V30 15 1 1 15
M  V30 16 1 1 16
M  V30 17 1 7 17
M  V30 18 1 7 18
M  V30 19 1 11 19
M  V30 20 1 11 20
M  V30 21 1 12 21
M  V30 22 1 12 22
M  V30 23 1 12 23
M  V30 24 1 13 24
M  V30 25 1 13 25
M  V30 26 1 13 26
M  V30 END BOND
M  V30 END CTAB
M  END
