
     RDKit          3D

  0  0  0  0  0  0  0  0  0  0999 V3000
M  V30 BEGIN CTAB
M  V30 COUNTS 59 62 0 0 0
M  V30 BEGIN ATOM
M  V30 1 C -8.11977 -0.0182024 -0.806118 0
M  V30 2 C -7.13403 0.681389 0.0746897 0
M  V30 3 N -5.78038 0.302547 -0.15004 0
M  V30 4 C -5.43679 -1.03287 0.22378 0
M  V30 5 C -3.94008 -1.26262 -0.0494975 0
M  V30 6 N -3.20177 -0.403172 0.780563 0
M  V30 7 C -3.97299 0.571302 1.468 0
M  V30 8 C -4.9191 1.24878 0.531386 0
M  V30 9 C -1.86498 -0.110157 0.503866 0
M  V30 10 C -1.55389 0.608071 -0.780566 0
M  V30 11 C -0.120121 1.05805 -0.66852 0
M  V30 12 N 0.79361 0.114866 -0.116876 0
M  V30 13 C 0.408774 -1.02295 0.637368 0
M  V30 14 C -1.02838 -1.39561 0.442277 0
M  V30 15 C 2.19709 0.367392 -0.338034 0
M  V30 16 C 3.15784 -0.531415 0.0556669 0
M  V30 17 C 4.52571 -0.306611 -0.132516 0
M  V30 18 N 4.85628 0.851278 -0.727142 0
M  V30 19 C 3.90298 1.72926 -1.11095 0
M  V30 20 N 2.59404 1.51987 -0.933381 0
M  V30 21 N 4.33295 2.95393 -1.74157 0
M  V30 22 C 5.53398 -1.30038 0.295376 0
M  V30 23 C 6.67119 -1.51997 -0.668299 0
M  V30 24 C 7.63825 -0.790632 0.269857 0
M  V30 25 C 6.54582 -0.797649 1.30575 0
M  V30 26 N 7.94511 0.566993 -0.122411 0
M  V30 27 H -7.7171 -0.961681 -1.21522 0
M  V30 28 H -9.04171 -0.200795 -0.195654 0
M  V30 29 H -8.4811 0.635323 -1.64942 0
M  V30 30 H -7.20526 1.7796 -0.175652 0
M  V30 31 H -7.38826 0.612762 1.1535 0
M  V30 32 H -5.63503 -1.25278 1.29738 0
M  V30 33 H -6.04207 -1.75197 -0.357207 0
M  V30 34 H -3.78462 -1.20104 -1.13276 0
M  V30 35 H -3.77762 -2.34327 0.232964 0
M  V30 36 H -3.28764 1.35046 1.86902 0
M  V30 37 H -4.50267 0.148887 2.34814 0
M  V30 38 H -5.53556 1.99158 1.11607 0
M  V30 39 H -4.38375 1.86834 -0.209123 0
M  V30 40 H -1.42767 0.470032 1.34066 0
M  V30 41 H -1.59284 -0.112694 -1.64926 0
M  V30 42 H -2.15105 1.50282 -0.957652 0
M  V30 43 H -0.152757 1.91885 0.0729116 0
M  V30 44 H 0.245613 1.49949 -1.6294 0
M  V30 45 H 0.529182 -0.79757 1.73049 0
M  V30 46 H 0.995958 -1.94063 0.36818 0
M  V30 47 H -1.39076 -2.12554 1.19693 0
M  V30 48 H -1.14875 -1.77552 -0.594803 0
M  V30 49 H 2.92006 -1.46681 0.536298 0
M  V30 50 H 5.3187 3.12508 -2.01141 0
M  V30 51 H 3.64159 3.7139 -1.94391 0
M  V30 52 H 5.10088 -2.26152 0.640009 0
M  V30 53 H 6.52563 -0.990422 -1.61762 0
M  V30 54 H 6.96412 -2.58906 -0.798592 0
M  V30 55 H 8.53832 -1.39179 0.510975 0
M  V30 56 H 6.8034 -1.5665 2.08403 0
M  V30 57 H 6.32326 0.158852 1.78799 0
M  V30 58 H 8.72058 0.649433 -0.788507 0
M  V30 59 H 7.9876 1.2227 0.67737 0
M  V30 END ATOM
M  V30 BEGIN BOND
M  V30 1 1 1 2
M  V30 2 1 2 3
M  V30 3 1 3 4
M  V30 4 1 4 5
M  V30 5 1 5 6
M  V30 6 1 6 7
M  V30 7 1 7 8
M  V30 8 1 6 9
M  V30 9 1 9 10
M  V30 10 1 10 11
M  V30 11 1 11 12
M  V30 12 1 12 13
M  V30 13 1 13 14
M  V30 14 1 12 15
M  V30 15 2 15 16
M  V30 16 1 16 17
M  V30 17 2 17 18
M  V30 18 1 18 19
M  V30 19 2 19 20
M  V30 20 1 19 21
M  V30 21 1 17 22
M  V30 22 1 22 23
M  V30 23 1 23 24
M  V30 24 1 24 25
M  V30 25 1 24 26
M  V30 26 1 8 3
M  V30 27 1 14 9
M  V30 28 1 20 15
M  V30 29 1 25 22
M  V30 30 1 1 27
M  V30 31 1 1 28
M  V30 32 1 1 29
M  V30 33 1 2 30
M  V30 34 1 2 31
M  V30 35 1 4 32
M  V30 36 1 4 33
M  V30 37 1 5 34
M  V30 38 1 5 35
M  V30 39 1 7 36
M  V30 40 1 7 37
M  V30 41 1 8 38
M  V30 42 1 8 39
M  V30 43 1 9 40
M  V30 44 1 10 41
M  V30 45 1 10 42
M  V30 46 1 11 43
M  V30 47 1 11 44
M  V30 48 1 13 45
M  V30 49 1 13 46
M  V30 50 1 14 47
M  V30 51 1 14 48
M  V30 52 1 16 49
M  V30 53 1 21 50
M  V30 54 1 21 51
M  V30 55 1 22 52
M  V30 56 1 23 53
M  V30 57 1 23 54
M  V30 58 1 24 55
M  V30 59 1 25 56
M  V30 60 1 25 57
M  V30 61 1 26 58
M  V30 62 1 26 59
M  V30 END BOND
M  V30 END CTAB
M  END
