
     RDKit          3D

  0  0  0  0  0  0  0  0  0  0999 V3000
M  V30 BEGIN CTAB
M  V30 COUNTS 30 31 0 0 0
M  V30 BEGIN ATOM
M  V30 1 C 0.640723 -1.25185 -1.50215 0
M  V30 2 C 0.712559 -0.359759 -0.225089 0 CFG=2
M  V30 3 N 1.64207 0.706501 -0.575606 0
M  V30 4 C 2.74042 0.90323 0.032266 0
M  V30 5 N 3.65232 1.9592 -0.321584 0
M  V30 6 O 3.10034 0.0846414 1.08141 0
M  V30 7 C 2.63122 -1.21824 1.17453 0
M  V30 8 C 1.15109 -1.26059 0.858759 0
M  V30 9 F 0.442165 -1.07729 2.02208 0
M  V30 10 F 0.899091 -2.61858 0.504457 0
M  V30 11 C -0.630171 0.194856 0.030136 0
M  V30 12 C -0.83159 1.14936 0.985879 0
M  V30 13 F 0.193154 1.67249 1.67178 0
M  V30 14 C -2.13432 1.61937 1.22548 0
M  V30 15 C -3.1823 1.11055 0.492019 0
M  V30 16 I -5.14686 1.80563 0.839038 0
M  V30 17 C -3.00525 0.147992 -0.479051 0
M  V30 18 N -4.1136 -0.356976 -1.22125 0
M  V30 19 C -1.72181 -0.303674 -0.702119 0
M  V30 20 H 0.197862 -0.725744 -2.34115 0
M  V30 21 H 0.0658303 -2.14876 -1.26884 0
M  V30 22 H 1.70178 -1.54684 -1.68052 0
M  V30 23 H 4.28751 1.92454 -1.12598 0
M  V30 24 H 3.65487 2.80142 0.285377 0
M  V30 25 H 3.21579 -1.85221 0.476166 0
M  V30 26 H 2.74092 -1.5583 2.23057 0
M  V30 27 H -2.25678 2.36645 1.98203 0
M  V30 28 H -4.59296 0.198046 -1.95724 0
M  V30 29 H -4.47007 -1.31395 -1.03365 0
M  V30 30 H -1.58402 -1.05151 -1.45775 0
M  V30 END ATOM
M  V30 BEGIN BOND
M  V30 1 1 2 1 CFG=3
M  V30 2 1 2 3
M  V30 3 2 3 4
M  V30 4 1 4 5
M  V30 5 1 4 6
M  V30 6 1 6 7
M  V30 7 1 7 8
M  V30 8 1 8 9
M  V30 9 1 8 10
M  V30 10 1 2 11
M  V30 11 2 11 12
M  V30 12 1 12 13
M  V30 13 1 12 14
M  V30 14 2 14 15
M  V30 15 1 15 16
M  V30 16 1 15 17
M  V30 17 1 17 18
M  V30 18 2 17 19
M  V30 19 1 8 2
M  V30 20 1 19 11
M  V30 21 1 1 20
M  V30 22 1 1 21
M  V30 23 1 1 22
M  V30 24 1 5 23
M  V30 25 1 5 24
M  V30 26 1 7 25
M  V30 27 1 7 26
M  V30 28 1 14 27
M  V30 29 1 18 28
M  V30 30 1 18 29
M  V30 31 1 19 30
M  V30 END BOND
M  V30 END CTAB
M  END
