
     RDKit          3D

  0  0  0  0  0  0  0  0  0  0999 V3000
M  V30 BEGIN CTAB
M  V30 COUNTS 32 34 0 0 0
M  V30 BEGIN ATOM
M  V30 1 Cl -6.26408 2.42118 0.00310274 0
M  V30 2 C -5.27299 1.01367 0.312173 0
M  V30 3 C -5.77884 0.0362577 1.15029 0
M  V30 4 C -5.00349 -1.07586 1.39813 0
M  V30 5 C -3.76042 -1.18385 0.812051 0
M  V30 6 C -3.24309 -0.219231 -0.0244523 0
M  V30 7 C -4.01189 0.893353 -0.275981 0
M  V30 8 C -1.9155 -0.369794 -0.629672 0
M  V30 9 N -1.08375 -1.41703 -0.44638 0
M  V30 10 N 0.0312132 -1.24814 -1.12905 0
M  V30 11 C -0.115491 -0.0608973 -1.75316 0
M  V30 12 O -1.28666 0.434692 -1.43326 0
M  V30 13 S 1.0669 0.726212 -2.8358 0
M  V30 14 C 2.13942 1.75641 -1.8068 0
M  V30 15 C 2.95322 0.878747 -0.896192 0
M  V30 16 N 4.14968 0.40748 -1.26337 0
M  V30 17 C 4.8911 -0.387744 -0.442425 0
M  V30 18 N 6.15987 -0.884178 -0.838238 0
M  V30 19 N 4.3607 -0.67753 0.759567 0
M  V30 20 C 3.16983 -0.233504 1.17739 0
M  V30 21 N 2.47404 0.552568 0.323848 0
M  V30 22 N 2.65922 -0.566509 2.45099 0
M  V30 23 H -6.76684 0.159821 1.59367 0
M  V30 24 H -5.41007 -1.83176 2.05415 0
M  V30 25 H -3.14353 -2.06247 1.00522 0
M  V30 26 H -3.6525 1.67071 -0.920196 0
M  V30 27 H 1.59038 2.49706 -1.22041 0
M  V30 28 H 2.85935 2.26044 -2.47457 0
M  V30 29 H 6.45714 -1.82056 -0.55447 0
M  V30 30 H 6.79603 -0.303062 -1.41766 0
M  V30 31 H 2.90856 0.0167275 3.26611 0
M  V30 32 H 2.04248 -1.38322 2.57461 0
M  V30 END ATOM
M  V30 BEGIN BOND
M  V30 1 1 1 2
M  V30 2 2 2 3
M  V30 3 1 3 4
M  V30 4 2 4 5
M  V30 5 1 5 6
M  V30 6 2 6 7
M  V30 7 1 6 8
M  V30 8 2 8 9
M  V30 9 1 9 10
M  V30 10 2 10 11
M  V30 11 1 11 12
M  V30 12 1 11 13
M  V30 13 1 13 14
M  V30 14 1 14 15
M  V30 15 2 15 16
M  V30 16 1 16 17
M  V30 17 1 17 18
M  V30 18 2 17 19
M  V30 19 1 19 20
M  V30 20 2 20 21
M  V30 21 1 20 22
M  V30 22 1 7 2
M  V30 23 1 12 8
M  V30 24 1 21 15
M  V30 25 1 3 23
M  V30 26 1 4 24
M  V30 27 1 5 25
M  V30 28 1 7 26
M  V30 29 1 14 27
M  V30 30 1 14 28
M  V30 31 1 18 29
M  V30 32 1 18 30
M  V30 33 1 22 31
M  V30 34 1 22 32
M  V30 END BOND
M  V30 END CTAB
M  END
