
     RDKit          3D

  0  0  0  0  0  0  0  0  0  0999 V3000
M  V30 BEGIN CTAB
M  V30 COUNTS 24 24 0 0 0
M  V30 BEGIN ATOM
M  V30 1 N 3.83153 -1.43303 0.434944 0
M  V30 2 N 3.50183 -0.588938 -0.622358 0
M  V30 3 C 2.36028 0.00257818 -0.654687 0
M  V30 4 S 1.22516 -0.296585 0.694926 0
M  V30 5 C -0.304579 0.661377 0.396946 0
M  V30 6 C -0.979222 0.112303 -0.805231 0
M  V30 7 C -2.15588 -0.778445 -0.493467 0
M  V30 8 C -2.93109 -0.068357 0.61595 0
M  V30 9 O -2.11631 -0.213519 1.76068 0
M  V30 10 C -1.10115 0.693417 1.6469 0
M  V30 11 N 2.00324 0.870634 -1.73172 0
M  V30 12 H 3.21297 -1.58656 1.26279 0
M  V30 13 H 4.73758 -1.9406 0.407925 0
M  V30 14 H -0.00345146 1.7202 0.157064 0
M  V30 15 H -0.26862 -0.498565 -1.41182 0
M  V30 16 H -1.34778 0.911206 -1.50711 0
M  V30 17 H -2.78914 -0.947857 -1.35753 0
M  V30 18 H -1.75802 -1.72665 -0.053248 0
M  V30 19 H -3.9313 -0.485954 0.754826 0
M  V30 20 H -2.97347 1.00133 0.3459 0
M  V30 21 H -0.413321 0.52008 2.51984 0
M  V30 22 H -1.5383 1.70773 1.8071 0
M  V30 23 H 1.81762 0.463365 -2.65597 0
M  V30 24 H 1.92141 1.90084 -1.6249 0
M  V30 END ATOM
M  V30 BEGIN BOND
M  V30 1 1 1 2
M  V30 2 2 2 3 CFG=2
M  V30 3 1 3 4
M  V30 4 1 4 5
M  V30 5 1 5 6
M  V30 6 1 6 7
M  V30 7 1 7 8
M  V30 8 1 8 9
M  V30 9 1 9 10
M  V30 10 1 3 11
M  V30 11 1 10 5
M  V30 12 1 1 12
M  V30 13 1 1 13
M  V30 14 1 5 14
M  V30 15 1 6 15
M  V30 16 1 6 16
M  V30 17 1 7 17
M  V30 18 1 7 18
M  V30 19 1 8 19
M  V30 20 1 8 20
M  V30 21 1 10 21
M  V30 22 1 10 22
M  V30 23 1 11 23
M  V30 24 1 11 24
M  V30 END BOND
M  V30 END CTAB
M  END
