
     RDKit          3D

  0  0  0  0  0  0  0  0  0  0999 V3000
M  V30 BEGIN CTAB
M  V30 COUNTS 30 30 0 0 0
M  V30 BEGIN ATOM
M  V30 1 N 4.5344 0.955843 0.244951 0
M  V30 2 N 3.9652 -0.0539842 -0.50306 0
M  V30 3 C 2.7085 -0.346388 -0.521127 0
M  V30 4 S 1.6176 0.585148 0.462597 0
M  V30 5 C -0.11744 0.27746 0.316961 0 CFG=2
M  V30 6 C -0.546161 -1.11799 0.663074 0
M  V30 7 C -1.91791 -1.04603 1.29558 0
M  V30 8 C -2.7112 0.0405569 0.614145 0
M  V30 9 C -2.2639 0.282163 -0.800933 0
M  V30 10 C -0.825181 0.761527 -0.882794 0 CFG=2
M  V30 11 C -0.309818 0.367784 -2.21854 0
M  V30 12 O -0.802331 2.17749 -0.851599 0
M  V30 13 N 2.29373 -1.40814 -1.34139 0
M  V30 14 H 5.34982 0.835583 0.883852 0
M  V30 15 H 4.13464 1.91434 0.179972 0
M  V30 16 H -0.587498 0.923041 1.17561 0
M  V30 17 H 0.152458 -1.62131 1.35827 0
M  V30 18 H -0.664396 -1.75675 -0.256408 0
M  V30 19 H -2.44178 -2.02174 1.28212 0
M  V30 20 H -1.7721 -0.73814 2.35866 0
M  V30 21 H -3.76265 -0.325416 0.554862 0
M  V30 22 H -2.74884 0.976045 1.20196 0
M  V30 23 H -2.90216 1.11217 -1.1973 0
M  V30 24 H -2.45326 -0.614628 -1.40411 0
M  V30 25 H -0.388324 -0.701438 -2.45835 0
M  V30 26 H -1.02452 0.854644 -2.96776 0
M  V30 27 H 0.663293 0.838649 -2.45782 0
M  V30 28 H -1.43885 2.50018 -0.160996 0
M  V30 29 H 2.36047 -1.39218 -2.37817 0
M  V30 30 H 1.89821 -2.25848 -0.897675 0
M  V30 END ATOM
M  V30 BEGIN BOND
M  V30 1 1 1 2
M  V30 2 2 2 3 CFG=2
M  V30 3 1 3 4
M  V30 4 1 4 5
M  V30 5 1 5 6
M  V30 6 1 6 7
M  V30 7 1 7 8
M  V30 8 1 8 9
M  V30 9 1 9 10
M  V30 10 1 10 11
M  V30 11 1 10 12 CFG=3
M  V30 12 1 3 13
M  V30 13 1 10 5
M  V30 14 1 1 14
M  V30 15 1 1 15
M  V30 16 1 5 16 CFG=1
M  V30 17 1 6 17
M  V30 18 1 6 18
M  V30 19 1 7 19
M  V30 20 1 7 20
M  V30 21 1 8 21
M  V30 22 1 8 22
M  V30 23 1 9 23
M  V30 24 1 9 24
M  V30 25 1 11 25
M  V30 26 1 11 26
M  V30 27 1 11 27
M  V30 28 1 12 28
M  V30 29 1 13 29
M  V30 30 1 13 30
M  V30 END BOND
M  V30 END CTAB
M  END
