
     RDKit          3D

  0  0  0  0  0  0  0  0  0  0999 V3000
M  V30 BEGIN CTAB
M  V30 COUNTS 23 24 0 0 0
M  V30 BEGIN ATOM
M  V30 1 Cl 5.32408 0.894167 1.71904 0
M  V30 2 C 3.95387 0.035543 1.01602 0
M  V30 3 N 3.28116 -0.915454 1.6742 0
M  V30 4 N 2.27649 -1.50441 1.07762 0
M  V30 5 C 1.85954 -1.21907 -0.175582 0
M  V30 6 C 2.53767 -0.242751 -0.871662 0
M  V30 7 C 3.59161 0.384093 -0.263603 0
M  V30 8 Cl 2.02283 0.160478 -2.50957 0
M  V30 9 O 0.80441 -1.88233 -0.720164 0
M  V30 10 N -0.491957 -1.56967 -0.788642 0
M  V30 11 C -1.11435 -0.583396 -0.262845 0
M  V30 12 C -2.55977 -0.463763 -0.491785 0
M  V30 13 N -3.30964 -1.30888 -1.21634 0
M  V30 14 O -4.53864 -0.909886 -1.21411 0
M  V30 15 N -4.67641 0.169442 -0.524197 0
M  V30 16 C -3.44703 0.497265 -0.0415606 0
M  V30 17 N -3.0785 1.58707 0.76451 0
M  V30 18 N -0.396437 0.350674 0.514462 0
M  V30 19 H 4.11798 1.15372 -0.827171 0
M  V30 20 H -2.50124 1.42892 1.60795 0
M  V30 21 H -3.38285 2.54993 0.518216 0
M  V30 22 H -0.212639 0.167619 1.50903 0
M  V30 23 H -0.0601854 1.2207 0.0812242 0
M  V30 END ATOM
M  V30 BEGIN BOND
M  V30 1 1 1 2
M  V30 2 2 2 3
M  V30 3 1 3 4
M  V30 4 2 4 5
M  V30 5 1 5 6
M  V30 6 2 6 7
M  V30 7 1 6 8
M  V30 8 1 5 9
M  V30 9 1 9 10
M  V30 10 2 10 11
M  V30 11 1 11 12
M  V30 12 2 12 13
M  V30 13 1 13 14
M  V30 14 1 14 15
M  V30 15 2 15 16
M  V30 16 1 16 17
M  V30 17 1 11 18
M  V30 18 1 7 2
M  V30 19 1 16 12
M  V30 20 1 7 19
M  V30 21 1 17 20
M  V30 22 1 17 21
M  V30 23 1 18 22
M  V30 24 1 18 23
M  V30 END BOND
M  V30 END CTAB
M  END
