
     RDKit          3D

  0  0  0  0  0  0  0  0  0  0999 V3000
M  V30 BEGIN CTAB
M  V30 COUNTS 40 41 0 0 0
M  V30 BEGIN ATOM
M  V30 1 C 6.1928 -0.445651 -0.637863 0
M  V30 2 C 5.21494 -1.25315 0.168505 0
M  V30 3 C 3.83448 -0.688696 0.0717108 0
M  V30 4 C 3.00399 -1.12895 -0.925699 0
M  V30 5 C 1.73193 -0.624685 -1.03389 0
M  V30 6 C 1.21819 0.3384 -0.162894 0
M  V30 7 C 2.07637 0.761472 0.829225 0
M  V30 8 C 3.3739 0.259186 0.954206 0
M  V30 9 C -0.15197 0.841756 -0.340594 0
M  V30 10 N -0.758126 1.35746 0.851578 0
M  V30 11 C -2.06218 1.86956 0.629766 0
M  V30 12 C -3.07932 0.935842 0.165008 0
M  V30 13 N -3.01508 -0.405149 0.166089 0
M  V30 14 C -3.96898 -1.22246 -0.268935 0
M  V30 15 N -3.74761 -2.62288 -0.200127 0
M  V30 16 N -5.09379 -0.675016 -0.75135 0
M  V30 17 C -5.22836 0.684463 -0.782912 0
M  V30 18 N -4.22933 1.46223 -0.328892 0
M  V30 19 N -6.43847 1.20068 -1.30336 0
M  V30 20 C -0.689533 0.432499 1.96419 0
M  V30 21 H 6.63579 0.333009 0.022828 0
M  V30 22 H 6.94141 -1.11526 -1.07164 0
M  V30 23 H 5.61504 0.0493321 -1.45132 0
M  V30 24 H 5.20256 -2.28414 -0.238922 0
M  V30 25 H 5.51525 -1.3379 1.23672 0
M  V30 26 H 3.38426 -1.87862 -1.61472 0
M  V30 27 H 1.08046 -0.970504 -1.81686 0
M  V30 28 H 1.75094 1.5079 1.54126 0
M  V30 29 H 4.04942 0.58628 1.72815 0
M  V30 30 H -0.727934 0.0678274 -0.859338 0
M  V30 31 H -0.132613 1.71195 -1.06643 0
M  V30 32 H -2.42534 2.30046 1.60407 0
M  V30 33 H -1.96594 2.70732 -0.122075 0
M  V30 34 H -3.93487 -3.20272 -1.04772 0
M  V30 35 H -3.40483 -2.99814 0.708678 0
M  V30 36 H -6.9521 0.724714 -2.06459 0
M  V30 37 H -6.82108 2.07761 -0.913109 0
M  V30 38 H -0.10065 -0.466525 1.74291 0
M  V30 39 H -0.199122 0.963861 2.8031 0
M  V30 40 H -1.69451 0.146626 2.33597 0
M  V30 END ATOM
M  V30 BEGIN BOND
M  V30 1 1 1 2
M  V30 2 1 2 3
M  V30 3 2 3 4
M  V30 4 1 4 5
M  V30 5 2 5 6
M  V30 6 1 6 7
M  V30 7 2 7 8
M  V30 8 1 6 9
M  V30 9 1 9 10
M  V30 10 1 10 11
M  V30 11 1 11 12
M  V30 12 2 12 13
M  V30 13 1 13 14
M  V30 14 1 14 15
M  V30 15 2 14 16
M  V30 16 1 16 17
M  V30 17 2 17 18
M  V30 18 1 17 19
M  V30 19 1 10 20
M  V30 20 1 8 3
M  V30 21 1 18 12
M  V30 22 1 1 21
M  V30 23 1 1 22
M  V30 24 1 1 23
M  V30 25 1 2 24
M  V30 26 1 2 25
M  V30 27 1 4 26
M  V30 28 1 5 27
M  V30 29 1 7 28
M  V30 30 1 8 29
M  V30 31 1 9 30
M  V30 32 1 9 31
M  V30 33 1 11 32
M  V30 34 1 11 33
M  V30 35 1 15 34
M  V30 36 1 15 35
M  V30 37 1 19 36
M  V30 38 1 19 37
M  V30 39 1 20 38
M  V30 40 1 20 39
M  V30 41 1 20 40
M  V30 END BOND
M  V30 END CTAB
M  END
