
     RDKit          3D

  0  0  0  0  0  0  0  0  0  0999 V3000
M  V30 BEGIN CTAB
M  V30 COUNTS 36 37 0 0 0
M  V30 BEGIN ATOM
M  V30 1 N -3.38093 1.23055 -1.17429 0
M  V30 2 C -1.99644 0.755048 -1.15224 0
M  V30 3 C -1.70973 -0.0851911 0.0316645 0
M  V30 4 C -1.91755 0.638518 1.34603 0
M  V30 5 C -3.30899 0.347391 1.79886 0
M  V30 6 C -3.88683 -0.714078 0.927013 0
M  V30 7 C -2.72703 -1.20803 0.0946883 0
M  V30 8 N -0.359324 -0.588152 -0.0048786 0
M  V30 9 C 0.757204 0.245056 0.0502872 0
M  V30 10 O 0.575844 1.4987 0.144522 0
M  V30 11 C 2.13814 -0.220654 0.0073627 0
M  V30 12 C 2.45977 -1.55082 -0.100453 0
M  V30 13 C 3.8088 -1.92221 -0.1354 0
M  V30 14 C 4.81892 -0.989438 -0.0645664 0
M  V30 15 C 4.51369 0.339164 0.0430528 0
M  V30 16 C 3.1849 0.692047 0.0764563 0
M  V30 17 N 5.53947 1.34226 0.119528 0
M  V30 18 H -3.48053 1.72766 -2.11051 0
M  V30 19 H -3.42211 2.01322 -0.453762 0
M  V30 20 H -1.90151 0.10033 -2.05545 0
M  V30 21 H -1.31674 1.61181 -1.2551 0
M  V30 22 H -1.71844 1.74057 1.22584 0
M  V30 23 H -1.20243 0.230518 2.09857 0
M  V30 24 H -3.31663 -0.014549 2.8514 0
M  V30 25 H -3.89796 1.30358 1.78863 0
M  V30 26 H -4.75043 -0.384862 0.314594 0
M  V30 27 H -4.29104 -1.57097 1.54012 0
M  V30 28 H -3.05296 -1.48608 -0.939746 0
M  V30 29 H -2.31765 -2.10697 0.597862 0
M  V30 30 H -0.205625 -1.63442 -0.0764669 0
M  V30 31 H 1.67607 -2.27639 -0.155632 0
M  V30 32 H 4.01929 -2.97842 -0.22082 0
M  V30 33 H 5.83641 -1.30945 -0.0941336 0
M  V30 34 H 2.95426 1.75991 0.162918 0
M  V30 35 H 6.06305 1.67023 -0.727502 0
M  V30 36 H 5.81507 1.79411 1.01814 0
M  V30 END ATOM
M  V30 BEGIN BOND
M  V30 1 1 1 2
M  V30 2 1 2 3
M  V30 3 1 3 4
M  V30 4 1 4 5
M  V30 5 1 5 6
M  V30 6 1 6 7
M  V30 7 1 3 8
M  V30 8 1 8 9
M  V30 9 2 9 10
M  V30 10 1 9 11
M  V30 11 2 11 12
M  V30 12 1 12 13
M  V30 13 2 13 14
M  V30 14 1 14 15
M  V30 15 2 15 16
M  V30 16 1 15 17
M  V30 17 1 7 3
M  V30 18 1 16 11
M  V30 19 1 1 18
M  V30 20 1 1 19
M  V30 21 1 2 20
M  V30 22 1 2 21
M  V30 23 1 4 22
M  V30 24 1 4 23
M  V30 25 1 5 24
M  V30 26 1 5 25
M  V30 27 1 6 26
M  V30 28 1 6 27
M  V30 29 1 7 28
M  V30 30 1 7 29
M  V30 31 1 8 30
M  V30 32 1 12 31
M  V30 33 1 13 32
M  V30 34 1 14 33
M  V30 35 1 16 34
M  V30 36 1 17 35
M  V30 37 1 17 36
M  V30 END BOND
M  V30 END CTAB
M  END
