
     RDKit          3D

  0  0  0  0  0  0  0  0  0  0999 V3000
M  V30 BEGIN CTAB
M  V30 COUNTS 27 27 0 0 0
M  V30 BEGIN ATOM
M  V30 1 C 3.71479 -0.778634 0.502265 0
M  V30 2 C 2.50022 0.0800346 0.352357 0
M  V30 3 N 1.32445 -0.762727 0.36865 0
M  V30 4 C 0.0119124 -0.206204 0.280095 0
M  V30 5 C -0.246873 1.1231 0.220259 0
M  V30 6 C -1.56213 1.58293 0.132203 0
M  V30 7 C -2.63775 0.724895 0.102619 0
M  V30 8 C -2.35731 -0.626223 0.164482 0
M  V30 9 C -1.05534 -1.07468 0.251381 0
M  V30 10 N -3.39465 -1.59466 0.140838 0
M  V30 11 N -3.9858 1.1594 0.0136414 0
M  V30 12 C 2.58705 0.712148 -1.04568 0
M  V30 13 H 4.64809 -0.298048 0.159387 0
M  V30 14 H 3.78763 -1.12238 1.54724 0
M  V30 15 H 3.57475 -1.67965 -0.140624 0
M  V30 16 H 2.42508 0.873649 1.12273 0
M  V30 17 H 1.46238 -1.79298 0.447177 0
M  V30 18 H 0.553351 1.84428 0.241352 0
M  V30 19 H -1.76686 2.63426 0.084788 0
M  V30 20 H -0.871178 -2.16004 0.298831 0
M  V30 21 H -3.93138 -1.71937 -0.733783 0
M  V30 22 H -3.62328 -2.17089 0.966941 0
M  V30 23 H -4.54024 1.05246 -0.861579 0
M  V30 24 H -4.46783 1.6025 0.826643 0
M  V30 25 H 2.82788 1.76986 -0.90312 0
M  V30 26 H 3.38326 0.264205 -1.65082 0
M  V30 27 H 1.63979 0.562754 -1.59274 0
M  V30 END ATOM
M  V30 BEGIN BOND
M  V30 1 1 1 2
M  V30 2 1 2 3
M  V30 3 1 3 4
M  V30 4 2 4 5
M  V30 5 1 5 6
M  V30 6 2 6 7
M  V30 7 1 7 8
M  V30 8 2 8 9
M  V30 9 1 8 10
M  V30 10 1 7 11
M  V30 11 1 2 12
M  V30 12 1 9 4
M  V30 13 1 1 13
M  V30 14 1 1 14
M  V30 15 1 1 15
M  V30 16 1 2 16
M  V30 17 1 3 17
M  V30 18 1 5 18
M  V30 19 1 6 19
M  V30 20 1 9 20
M  V30 21 1 10 21
M  V30 22 1 10 22
M  V30 23 1 11 23
M  V30 24 1 11 24
M  V30 25 1 12 25
M  V30 26 1 12 26
M  V30 27 1 12 27
M  V30 END BOND
M  V30 END CTAB
M  END
