
     RDKit          3D

  0  0  0  0  0  0  0  0  0  0999 V3000
M  V30 BEGIN CTAB
M  V30 COUNTS 51 54 0 0 0
M  V30 BEGIN ATOM
M  V30 1 N -10.0205 1.36084 -1.03804 0
M  V30 2 C -8.667 1.13514 -0.75804 0
M  V30 3 C -7.7138 2.11966 -0.589421 0
M  V30 4 C -6.40275 1.91546 -0.318581 0
M  V30 5 C -5.91996 0.593979 -0.187719 0
M  V30 6 C -6.8406 -0.407919 -0.349301 0
M  V30 7 C -8.19383 -0.167821 -0.629587 0
M  V30 8 S -5.86684 -1.80096 -0.117141 0
M  V30 9 C -4.3693 -1.02683 0.167058 0
M  V30 10 N -4.69328 0.247822 0.0695606 0
M  V30 11 C -3.01207 -1.63051 0.457232 0
M  V30 12 C -2.06855 -0.484005 0.619727 0
M  V30 13 C -0.653393 -0.958986 0.939362 0
M  V30 14 C -0.168684 -1.81502 -0.177696 0
M  V30 15 C 1.17481 -2.3942 -0.104337 0
M  V30 16 C 2.40752 -1.62015 -0.115658 0
M  V30 17 C 2.66025 -0.616046 0.934748 0
M  V30 18 C 4.05154 -0.0487574 0.718292 0
M  V30 19 N 4.962 -0.310777 -0.189276 0
M  V30 20 C 6.10238 0.321699 -0.164117 0
M  V30 21 C 6.29896 1.24439 0.82434 0
M  V30 22 S 4.79647 1.14131 1.67439 0
M  V30 23 C 7.47109 1.98091 0.954727 0
M  V30 24 C 8.52298 1.8206 0.0784151 0
M  V30 25 C 8.3067 0.881282 -0.917371 0
M  V30 26 C 7.175 0.153261 -1.06371 0
M  V30 27 N 9.72231 2.56746 0.203669 0
M  V30 28 H -10.7723 1.10497 -0.357141 0
M  V30 29 H -10.3269 1.79836 -1.94926 0
M  V30 30 H -8.10078 3.14554 -0.693484 0
M  V30 31 H -5.75738 2.7719 -0.209157 0
M  V30 32 H -8.80971 -1.03165 -0.732848 0
M  V30 33 H -2.78662 -2.23269 -0.466146 0
M  V30 34 H -3.05462 -2.23046 1.3657 0
M  V30 35 H -2.03824 0.0690384 -0.350172 0
M  V30 36 H -2.45229 0.224121 1.36755 0
M  V30 37 H -0.0544501 -0.122817 1.25435 0
M  V30 38 H -0.745652 -1.66012 1.83603 0
M  V30 39 H -0.402856 -1.35849 -1.1851 0
M  V30 40 H -0.887736 -2.71291 -0.181699 0
M  V30 41 H 1.2841 -3.15761 -0.969069 0
M  V30 42 H 1.18476 -3.11181 0.788384 0
M  V30 43 H 2.64623 -1.18007 -1.13863 0
M  V30 44 H 3.26317 -2.38485 -0.0235335 0
M  V30 45 H 1.98788 0.291227 0.790568 0
M  V30 46 H 2.61412 -1.00525 1.94521 0
M  V30 47 H 7.51164 2.67798 1.77153 0
M  V30 48 H 9.14408 0.751605 -1.61748 0
M  V30 49 H 7.12331 -0.551407 -1.88246 0
M  V30 50 H 10.2032 3.03397 -0.59844 0
M  V30 51 H 10.1656 2.66961 1.13728 0
M  V30 END ATOM
M  V30 BEGIN BOND
M  V30 1 1 1 2
M  V30 2 2 2 3
M  V30 3 1 3 4
M  V30 4 2 4 5
M  V30 5 1 5 6
M  V30 6 2 6 7
M  V30 7 1 6 8
M  V30 8 1 8 9
M  V30 9 2 9 10
M  V30 10 1 9 11
M  V30 11 1 11 12
M  V30 12 1 12 13
M  V30 13 1 13 14
M  V30 14 1 14 15
M  V30 15 1 15 16
M  V30 16 1 16 17
M  V30 17 1 17 18
M  V30 18 2 18 19
M  V30 19 1 19 20
M  V30 20 2 20 21
M  V30 21 1 21 22
M  V30 22 1 21 23
M  V30 23 2 23 24
M  V30 24 1 24 25
M  V30 25 2 25 26
M  V30 26 1 24 27
M  V30 27 1 7 2
M  V30 28 1 22 18
M  V30 29 1 10 5
M  V30 30 1 26 20
M  V30 31 1 1 28
M  V30 32 1 1 29
M  V30 33 1 3 30
M  V30 34 1 4 31
M  V30 35 1 7 32
M  V30 36 1 11 33
M  V30 37 1 11 34
M  V30 38 1 12 35
M  V30 39 1 12 36
M  V30 40 1 13 37
M  V30 41 1 13 38
M  V30 42 1 14 39
M  V30 43 1 14 40
M  V30 44 1 15 41
M  V30 45 1 15 42
M  V30 46 1 16 43
M  V30 47 1 16 44
M  V30 48 1 17 45
M  V30 49 1 17 46
M  V30 50 1 23 47
M  V30 51 1 25 48
M  V30 52 1 26 49
M  V30 53 1 27 50
M  V30 54 1 27 51
M  V30 END BOND
M  V30 END CTAB
M  END
