
     RDKit          3D

  0  0  0  0  0  0  0  0  0  0999 V3000
M  V30 BEGIN CTAB
M  V30 COUNTS 19 19 0 0 0
M  V30 BEGIN ATOM
M  V30 1 Cl 1.93941 2.88779 -2.02411 0
M  V30 2 C 1.47156 1.47359 -1.11217 0
M  V30 3 C 0.135384 1.1401 -0.872844 0
M  V30 4 C -0.209184 0.0170549 -0.150349 0
M  V30 5 N 0.806451 -0.740198 0.312215 0
M  V30 6 C 2.10636 -0.4411 0.0963764 0
M  V30 7 N 2.41455 0.660848 -0.611975 0
M  V30 8 N 3.17614 -1.23905 0.583149 0
M  V30 9 N -1.54596 -0.376071 0.128341 0
M  V30 10 N -2.29206 -1.25218 -0.63562 0
M  V30 11 C -2.15659 0.205378 1.31957 0
M  V30 12 H -0.643676 1.75886 -1.25584 0
M  V30 13 H 3.65006 -0.917572 1.45295 0
M  V30 14 H 3.4745 -2.09349 0.104167 0
M  V30 15 H -3.29958 -1.03201 -0.499349 0
M  V30 16 H -2.1045 -1.24368 -1.65685 0
M  V30 17 H -1.40389 0.694038 1.98118 0
M  V30 18 H -2.70828 -0.534421 1.90439 0
M  V30 19 H -2.81067 1.0321 0.936775 0
M  V30 END ATOM
M  V30 BEGIN BOND
M  V30 1 1 1 2
M  V30 2 2 2 3
M  V30 3 1 3 4
M  V30 4 2 4 5
M  V30 5 1 5 6
M  V30 6 2 6 7
M  V30 7 1 6 8
M  V30 8 1 4 9
M  V30 9 1 9 10
M  V30 10 1 9 11
M  V30 11 1 7 2
M  V30 12 1 3 12
M  V30 13 1 8 13
M  V30 14 1 8 14
M  V30 15 1 10 15
M  V30 16 1 10 16
M  V30 17 1 11 17
M  V30 18 1 11 18
M  V30 19 1 11 19
M  V30 END BOND
M  V30 END CTAB
M  END
