
     RDKit          3D

  0  0  0  0  0  0  0  0  0  0999 V3000
M  V30 BEGIN CTAB
M  V30 COUNTS 24 24 0 0 0
M  V30 BEGIN ATOM
M  V30 1 N -3.93999 0.203848 -0.408595 0
M  V30 2 N -2.5805 0.491436 -0.476173 0
M  V30 3 C -1.63804 -0.308824 0.196625 0
M  V30 4 O -2.03035 -1.28616 0.859995 0
M  V30 5 C -0.20388 -0.00375332 0.124105 0 CFG=2
M  V30 6 C 0.220812 -0.0660792 -1.32306 0
M  V30 7 C 1.67071 -0.318488 -1.46218 0
M  V30 8 C 2.51364 -0.415391 -0.438787 0
M  V30 9 C 2.05199 -0.273253 0.974284 0 CFG=2
M  V30 10 C 0.638694 -0.872461 1.00806 0
M  V30 11 N 1.96521 1.10705 1.28187 0
M  V30 12 H -4.20868 -0.353615 0.426384 0
M  V30 13 H -4.50741 1.05615 -0.440269 0
M  V30 14 H -2.30744 1.3279 -1.05034 0
M  V30 15 H -0.0120768 1.06051 0.451239 0
M  V30 16 H -0.0066461 0.909794 -1.79791 0
M  V30 17 H -0.305253 -0.896737 -1.8456 0
M  V30 18 H 2.05572 -0.42955 -2.47479 0
M  V30 19 H 3.5589 -0.600324 -0.60444 0
M  V30 20 H 2.72895 -0.777232 1.66622 0
M  V30 21 H 0.259522 -0.766755 2.04397 0
M  V30 22 H 0.671358 -1.92744 0.704009 0
M  V30 23 H 1.38504 1.3732 2.08237 0
M  V30 24 H 2.01973 1.76617 0.503009 0
M  V30 END ATOM
M  V30 BEGIN BOND
M  V30 1 1 1 2
M  V30 2 1 2 3
M  V30 3 2 3 4
M  V30 4 1 3 5
M  V30 5 1 5 6
M  V30 6 1 6 7
M  V30 7 2 7 8
M  V30 8 1 8 9
M  V30 9 1 9 10
M  V30 10 1 9 11
M  V30 11 1 10 5
M  V30 12 1 1 12
M  V30 13 1 1 13
M  V30 14 1 2 14
M  V30 15 1 5 15 CFG=1
M  V30 16 1 6 16
M  V30 17 1 6 17
M  V30 18 1 7 18
M  V30 19 1 8 19
M  V30 20 1 9 20 CFG=1
M  V30 21 1 10 21
M  V30 22 1 10 22
M  V30 23 1 11 23
M  V30 24 1 11 24
M  V30 END BOND
M  V30 END CTAB
M  END
