
     RDKit          3D

  0  0  0  0  0  0  0  0  0  0999 V3000
M  V30 BEGIN CTAB
M  V30 COUNTS 26 26 0 0 0
M  V30 BEGIN ATOM
M  V30 1 N 1.16481 -2.97949 0.346242 0
M  V30 2 C 0.565903 -2.11588 -0.690378 0
M  V30 3 C 0.914127 -0.723233 -0.30104 0
M  V30 4 C 2.2169 -0.318616 -0.408668 0
M  V30 5 N 2.54725 0.982557 -0.123568 0
M  V30 6 C 1.60349 1.84532 0.241087 0
M  V30 7 N 0.318884 1.4107 0.359248 0
M  V30 8 C -0.0107306 0.136737 0.0950416 0
M  V30 9 C -1.42848 -0.230599 0.0748113 0
M  V30 10 C -2.19031 0.306134 1.27141 0
M  V30 11 C -1.95891 0.689999 -1.10391 0
M  V30 12 N 1.87514 3.24264 0.442816 0
M  V30 13 H 0.617763 -2.74514 1.26877 0
M  V30 14 H 0.972157 -3.99932 0.153607 0
M  V30 15 H 1.26643 -2.34267 -1.5859 0
M  V30 16 H -0.396245 -2.35702 -1.02489 0
M  V30 17 H 2.99896 -0.933372 -0.749106 0
M  V30 18 H -1.70782 -1.24086 -0.103017 0
M  V30 19 H -3.24656 -0.0856756 1.2036 0
M  V30 20 H -2.1348 1.35972 1.4493 0
M  V30 21 H -1.80391 -0.257661 2.20041 0
M  V30 22 H -1.7508 0.225487 -2.0674 0
M  V30 23 H -1.36467 1.66396 -1.01847 0
M  V30 24 H -2.99122 0.92771 -0.903634 0
M  V30 25 H 1.08872 3.92967 0.599583 0
M  V30 26 H 2.83392 3.60891 0.374047 0
M  V30 END ATOM
M  V30 BEGIN BOND
M  V30 1 1 1 2
M  V30 2 1 2 3
M  V30 3 2 3 4
M  V30 4 1 4 5
M  V30 5 2 5 6
M  V30 6 1 6 7
M  V30 7 2 7 8
M  V30 8 1 8 9
M  V30 9 1 9 10
M  V30 10 1 9 11
M  V30 11 1 6 12
M  V30 12 1 8 3
M  V30 13 1 1 13
M  V30 14 1 1 14
M  V30 15 1 2 15
M  V30 16 1 2 16
M  V30 17 1 4 17
M  V30 18 1 9 18
M  V30 19 1 10 19
M  V30 20 1 10 20
M  V30 21 1 10 21
M  V30 22 1 11 22
M  V30 23 1 11 23
M  V30 24 1 11 24
M  V30 25 1 12 25
M  V30 26 1 12 26
M  V30 END BOND
M  V30 END CTAB
M  END
