
     RDKit          3D

  0  0  0  0  0  0  0  0  0  0999 V3000
M  V30 BEGIN CTAB
M  V30 COUNTS 23 22 0 0 0
M  V30 BEGIN ATOM
M  V30 1 C -3.46804 0.530536 -0.905465 0
M  V30 2 C -2.91731 -0.38088 0.118122 0
M  V30 3 C -3.59732 -1.42151 0.578123 0
M  V30 4 Cl -2.90915 -2.47388 1.78832 0
M  V30 5 C -1.55576 -0.10764 0.637928 0
M  V30 6 S -0.395846 -0.169298 -0.74194 0
M  V30 7 C 1.24375 0.156793 -0.134533 0
M  V30 8 N 2.20723 0.151808 -0.994508 0
M  V30 9 C 3.56169 0.39451 -0.657889 0
M  V30 10 N 3.97735 1.51014 -0.172843 0
M  V30 11 N 4.50601 -0.641942 -0.86526 0
M  V30 12 N 1.44816 0.405667 1.23 0
M  V30 13 H -3.17416 1.58778 -0.747655 0
M  V30 14 H -3.17338 0.196929 -1.90224 0
M  V30 15 H -4.58625 0.469623 -0.823042 0
M  V30 16 H -4.59259 -1.61936 0.196655 0
M  V30 17 H -1.48 0.89024 1.11863 0
M  V30 18 H -1.23282 -0.853458 1.38674 0
M  V30 19 H 3.34411 2.30845 0.00408821 0
M  V30 20 H 5.1277 -0.544964 -1.7084 0
M  V30 21 H 4.60633 -1.45644 -0.248612 0
M  V30 22 H 1.64115 1.40305 1.52462 0
M  V30 23 H 1.41912 -0.336163 1.95691 0
M  V30 END ATOM
M  V30 BEGIN BOND
M  V30 1 1 1 2
M  V30 2 2 2 3 CFG=2
M  V30 3 1 3 4
M  V30 4 1 2 5
M  V30 5 1 5 6
M  V30 6 1 6 7
M  V30 7 2 7 8 CFG=2
M  V30 8 1 8 9
M  V30 9 2 9 10 CFG=2
M  V30 10 1 9 11
M  V30 11 1 7 12
M  V30 12 1 1 13
M  V30 13 1 1 14
M  V30 14 1 1 15
M  V30 15 1 3 16
M  V30 16 1 5 17
M  V30 17 1 5 18
M  V30 18 1 10 19
M  V30 19 1 11 20
M  V30 20 1 11 21
M  V30 21 1 12 22
M  V30 22 1 12 23
M  V30 END BOND
M  V30 END CTAB
M  END
