
     RDKit          3D

  0  0  0  0  0  0  0  0  0  0999 V3000
M  V30 BEGIN CTAB
M  V30 COUNTS 81 80 0 0 0
M  V30 BEGIN ATOM
M  V30 1 C 3.49035 -3.19527 2.3503 0
M  V30 2 C 4.5595 -2.58773 1.43078 0
M  V30 3 C 4.91806 -3.62364 0.418345 0
M  V30 4 C 5.7507 -2.288 2.28561 0
M  V30 5 O 3.97726 -1.42771 0.873909 0
M  V30 6 C 4.6194 -0.584064 -0.0154885 0
M  V30 7 O 5.79288 -0.874335 -0.342189 0
M  V30 8 N 4.02045 0.572941 -0.563888 0
M  V30 9 C 4.77789 1.3853 -1.48462 0
M  V30 10 C 5.57238 2.46822 -0.802773 0
M  V30 11 N 4.78146 3.39814 -0.0567484 0
M  V30 12 C 2.65189 0.969933 -0.223983 0
M  V30 13 C 1.66679 0.328651 -1.20338 0
M  V30 14 N 0.313964 0.739747 -0.848203 0
M  V30 15 C -0.505982 -0.00455235 0.0620907 0
M  V30 16 C -1.33785 -1.08029 -0.566803 0
M  V30 17 N -2.079 -1.74572 0.471235 0
M  V30 18 C -1.40958 -2.88635 1.11274 0
M  V30 19 C -1.80515 -4.1014 0.299661 0
M  V30 20 N -1.21151 -5.29487 0.824692 0
M  V30 21 C -3.36984 -1.4173 0.929497 0
M  V30 22 O -3.94065 -2.05278 1.86583 0
M  V30 23 O -4.08729 -0.374295 0.373161 0
M  V30 24 C -5.39278 -0.0371607 0.831185 0
M  V30 25 C -5.89849 1.13239 -0.00905969 0
M  V30 26 C -6.32157 -1.20394 0.689141 0
M  V30 27 C -5.37289 0.446601 2.27175 0
M  V30 28 C -0.214009 1.91344 -1.42862 0
M  V30 29 O 0.501346 2.55601 -2.23958 0
M  V30 30 O -1.47019 2.44379 -1.18965 0
M  V30 31 C -1.91718 3.64242 -1.82309 0
M  V30 32 C -0.977132 4.77211 -1.44658 0
M  V30 33 C -3.25757 3.99199 -1.21488 0
M  V30 34 C -2.08594 3.50182 -3.29872 0
M  V30 35 H 2.81115 -3.8602 1.76885 0
M  V30 36 H 2.92639 -2.39671 2.8728 0
M  V30 37 H 3.94567 -3.82883 3.13115 0
M  V30 38 H 5.89442 -4.07172 0.679915 0
M  V30 39 H 4.19693 -4.48517 0.402198 0
M  V30 40 H 4.96533 -3.17755 -0.599528 0
M  V30 41 H 6.6859 -2.19618 1.67742 0
M  V30 42 H 5.88669 -3.07597 3.07974 0
M  V30 43 H 5.5639 -1.34501 2.82906 0
M  V30 44 H 5.52575 0.778339 -2.06806 0
M  V30 45 H 4.09167 1.80595 -2.22124 0
M  V30 46 H 6.07512 3.05698 -1.61865 0
M  V30 47 H 6.36266 2.06831 -0.157924 0
M  V30 48 H 4.06358 3.90167 -0.589155 0
M  V30 49 H 4.4883 3.04663 0.872229 0
M  V30 50 H 2.4628 0.586136 0.798202 0
M  V30 51 H 2.57361 2.05583 -0.202085 0
M  V30 52 H 1.81245 -0.766476 -1.10152 0
M  V30 53 H 1.86484 0.647274 -2.23273 0
M  V30 54 H -1.164 0.713109 0.591534 0
M  V30 55 H 0.179142 -0.418463 0.8448 0
M  V30 56 H -2.10705 -0.568273 -1.2168 0
M  V30 57 H -0.791634 -1.74946 -1.22581 0
M  V30 58 H -1.75925 -3.03449 2.14979 0
M  V30 59 H -0.312172 -2.73438 1.08983 0
M  V30 60 H -1.52644 -3.89351 -0.74899 0
M  V30 61 H -2.92891 -4.14162 0.310626 0
M  V30 62 H -1.33306 -6.08842 0.173413 0
M  V30 63 H -1.55173 -5.45271 1.78025 0
M  V30 64 H -5.08301 1.52876 -0.615922 0
M  V30 65 H -6.37052 1.90347 0.61803 0
M  V30 66 H -6.63969 0.699485 -0.732116 0
M  V30 67 H -5.80485 -2.10017 0.259592 0
M  V30 68 H -6.79473 -1.51671 1.65397 0
M  V30 69 H -7.13326 -0.976275 -0.0615064 0
M  V30 70 H -5.53752 1.5482 2.32543 0
M  V30 71 H -6.25352 -0.012659 2.77757 0
M  V30 72 H -4.47819 0.130533 2.82163 0
M  V30 73 H -1.56445 5.70946 -1.31546 0
M  V30 74 H -0.520116 4.49656 -0.47292 0
M  V30 75 H -0.226291 4.90039 -2.25412 0
M  V30 76 H -4.09263 3.54777 -1.81917 0
M  V30 77 H -3.37338 5.1034 -1.33063 0
M  V30 78 H -3.31566 3.73644 -0.151675 0
M  V30 79 H -1.26904 4.02856 -3.86814 0
M  V30 80 H -2.15496 2.43454 -3.60204 0
M  V30 81 H -3.02993 3.97905 -3.63351 0
M  V30 END ATOM
M  V30 BEGIN BOND
M  V30 1 1 1 2
M  V30 2 1 2 3
M  V30 3 1 2 4
M  V30 4 1 2 5
M  V30 5 1 5 6
M  V30 6 2 6 7
M  V30 7 1 6 8
M  V30 8 1 8 9
M  V30 9 1 9 10
M  V30 10 1 10 11
M  V30 11 1 8 12
M  V30 12 1 12 13
M  V30 13 1 13 14
M  V30 14 1 14 15
M  V30 15 1 15 16
M  V30 16 1 16 17
M  V30 17 1 17 18
M  V30 18 1 18 19
M  V30 19 1 19 20
M  V30 20 1 17 21
M  V30 21 2 21 22
M  V30 22 1 21 23
M  V30 23 1 23 24
M  V30 24 1 24 25
M  V30 25 1 24 26
M  V30 26 1 24 27
M  V30 27 1 14 28
M  V30 28 2 28 29
M  V30 29 1 28 30
M  V30 30 1 30 31
M  V30 31 1 31 32
M  V30 32 1 31 33
M  V30 33 1 31 34
M  V30 34 1 1 35
M  V30 35 1 1 36
M  V30 36 1 1 37
M  V30 37 1 3 38
M  V30 38 1 3 39
M  V30 39 1 3 40
M  V30 40 1 4 41
M  V30 41 1 4 42
M  V30 42 1 4 43
M  V30 43 1 9 44
M  V30 44 1 9 45
M  V30 45 1 10 46
M  V30 46 1 10 47
M  V30 47 1 11 48
M  V30 48 1 11 49
M  V30 49 1 12 50
M  V30 50 1 12 51
M  V30 51 1 13 52
M  V30 52 1 13 53
M  V30 53 1 15 54
M  V30 54 1 15 55
M  V30 55 1 16 56
M  V30 56 1 16 57
M  V30 57 1 18 58
M  V30 58 1 18 59
M  V30 59 1 19 60
M  V30 60 1 19 61
M  V30 61 1 20 62
M  V30 62 1 20 63
M  V30 63 1 25 64
M  V30 64 1 25 65
M  V30 65 1 25 66
M  V30 66 1 26 67
M  V30 67 1 26 68
M  V30 68 1 26 69
M  V30 69 1 27 70
M  V30 70 1 27 71
M  V30 71 1 27 72
M  V30 72 1 32 73
M  V30 73 1 32 74
M  V30 74 1 32 75
M  V30 75 1 33 76
M  V30 76 1 33 77
M  V30 77 1 33 78
M  V30 78 1 34 79
M  V30 79 1 34 80
M  V30 80 1 34 81
M  V30 END BOND
M  V30 END CTAB
M  END
