
     RDKit          3D

  0  0  0  0  0  0  0  0  0  0999 V3000
M  V30 BEGIN CTAB
M  V30 COUNTS 43 46 0 0 0
M  V30 BEGIN ATOM
M  V30 1 C 0.770001 -2.15317 -0.02817 0
M  V30 2 C 1.3709 -1.13556 0.944035 0
M  V30 3 N 1.65583 0.130108 0.325083 0
M  V30 4 C 2.80514 0.381257 -0.375945 0
M  V30 5 N 2.70834 1.68285 -0.757407 0
M  V30 6 C 1.56691 2.21286 -0.321362 0
M  V30 7 C 0.877402 1.22215 0.37908 0
M  V30 8 C -0.341842 1.55317 0.933191 0
M  V30 9 C -0.889265 2.84172 0.805768 0
M  V30 10 N -0.177254 3.74588 0.120398 0
M  V30 11 C 1.00165 3.46757 -0.42827 0
M  V30 12 C -1.14991 0.646684 1.68339 0
M  V30 13 O -0.997961 0.539865 2.91273 0
M  V30 14 N -2.12816 -0.129077 1.048 0
M  V30 15 C -3.0501 -1.10993 1.58918 0
M  V30 16 C -4.35659 -0.639088 0.985693 0
M  V30 17 C -3.95244 -0.354692 -0.444552 0 CFG=2
M  V30 18 N -4.18005 -1.50112 -1.29857 0
M  V30 19 C -2.46357 -0.0902399 -0.38206 0
M  V30 20 C 3.90142 -0.517808 -0.680616 0
M  V30 21 N 4.13733 -1.78436 -0.389906 0
M  V30 22 O 5.25683 -2.20503 -0.866318 0
M  V30 23 N 5.79138 -1.19368 -1.4963 0
M  V30 24 C 5.01015 -0.114739 -1.42461 0
M  V30 25 N 5.29717 1.13827 -1.99861 0
M  V30 26 H 0.706682 -1.75423 -1.04823 0
M  V30 27 H 1.33964 -3.09423 -0.0604594 0
M  V30 28 H -0.245009 -2.42977 0.369965 0
M  V30 29 H 0.810699 -1.12141 1.87208 0
M  V30 30 H 2.36225 -1.58457 1.25798 0
M  V30 31 H -1.8399 3.11889 1.23119 0
M  V30 32 H 1.5335 4.23634 -0.970899 0
M  V30 33 H -2.84971 -2.12169 1.19896 0
M  V30 34 H -3.07092 -1.10775 2.69103 0
M  V30 35 H -4.6987 0.305377 1.4563 0
M  V30 36 H -5.12625 -1.43158 1.02143 0
M  V30 37 H -4.52182 0.496052 -0.869654 0
M  V30 38 H -4.63885 -2.25873 -0.740984 0
M  V30 39 H -4.82567 -1.28089 -2.09263 0
M  V30 40 H -2.32099 0.968634 -0.725972 0
M  V30 41 H -1.89277 -0.798047 -0.981179 0
M  V30 42 H 5.582 1.21617 -2.99894 0
M  V30 43 H 5.23252 2.00757 -1.44381 0
M  V30 END ATOM
M  V30 BEGIN BOND
M  V30 1 1 1 2
M  V30 2 1 2 3
M  V30 3 1 3 4
M  V30 4 2 4 5
M  V30 5 1 5 6
M  V30 6 2 6 7
M  V30 7 1 7 8
M  V30 8 2 8 9
M  V30 9 1 9 10
M  V30 10 2 10 11
M  V30 11 1 8 12
M  V30 12 2 12 13
M  V30 13 1 12 14
M  V30 14 1 14 15
M  V30 15 1 15 16
M  V30 16 1 16 17
M  V30 17 1 17 18
M  V30 18 1 17 19
M  V30 19 1 4 20
M  V30 20 2 20 21
M  V30 21 1 21 22
M  V30 22 1 22 23
M  V30 23 2 23 24
M  V30 24 1 24 25
M  V30 25 1 7 3
M  V30 26 1 19 14
M  V30 27 1 24 20
M  V30 28 1 11 6
M  V30 29 1 1 26
M  V30 30 1 1 27
M  V30 31 1 1 28
M  V30 32 1 2 29
M  V30 33 1 2 30
M  V30 34 1 9 31
M  V30 35 1 11 32
M  V30 36 1 15 33
M  V30 37 1 15 34
M  V30 38 1 16 35
M  V30 39 1 16 36
M  V30 40 1 17 37 CFG=3
M  V30 41 1 18 38
M  V30 42 1 18 39
M  V30 43 1 19 40
M  V30 44 1 19 41
M  V30 45 1 25 42
M  V30 46 1 25 43
M  V30 END BOND
M  V30 END CTAB
M  END
