
     RDKit          3D

  0  0  0  0  0  0  0  0  0  0999 V3000
M  V30 BEGIN CTAB
M  V30 COUNTS 41 42 0 0 0
M  V30 BEGIN ATOM
M  V30 1 O -0.342566 2.33869 0.646561 0
M  V30 2 C -0.372072 1.68514 -0.0605078 0
M  V30 3 C -1.69678 1.05773 -0.452624 0 CFG=2
M  V30 4 C -2.36496 0.465335 0.7701 0
M  V30 5 C -3.65834 -0.147683 0.389274 0
M  V30 6 C -3.69261 -1.47277 0.0125504 0
M  V30 7 C -4.87248 -2.09869 -0.35355 0
M  V30 8 C -6.05317 -1.39094 -0.346197 0
M  V30 9 C -6.02114 -0.0642765 0.0306059 0
M  V30 10 C -4.83875 0.55733 0.395905 0
M  V30 11 N -1.53866 0.111812 -1.52003 0
M  V30 12 N 0.776895 1.25857 -0.780351 0
M  V30 13 C 2.08741 1.78768 -0.491962 0
M  V30 14 C 2.55001 1.54205 0.903278 0
M  V30 15 C 2.6663 0.106595 1.29674 0
M  V30 16 C 3.66048 -0.650678 0.43601 0
M  V30 17 C 3.25231 -1.29875 -0.704714 0
M  V30 18 S 4.72288 -1.95607 -1.27267 0
M  V30 19 C 5.75815 -1.37539 -0.0409409 0
M  V30 20 N 4.91881 -0.709833 0.737116 0
M  V30 21 N 7.17497 -1.5599 0.11374 0
M  V30 22 H -2.3349 1.89142 -0.809034 0
M  V30 23 H -1.74158 -0.278402 1.27442 0
M  V30 24 H -2.59002 1.28507 1.47644 0
M  V30 25 H -2.79161 -2.07076 -0.00927581 0
M  V30 26 H -4.90973 -3.14696 -0.653214 0
M  V30 27 H -7.00811 -1.85203 -0.629761 0
M  V30 28 H -6.9637 0.473572 0.0288635 0
M  V30 29 H -4.85689 1.61299 0.688686 0
M  V30 30 H -0.91919 -0.680616 -1.27078 0
M  V30 31 H -1.23911 0.639785 -2.3676 0
M  V30 32 H 0.686189 0.549984 -1.53434 0
M  V30 33 H 2.03821 2.90586 -0.627346 0
M  V30 34 H 2.83755 1.44008 -1.21848 0
M  V30 35 H 3.55681 2.00396 1.04629 0
M  V30 36 H 1.88628 2.03694 1.63914 0
M  V30 37 H 2.99846 -0.0171182 2.33439 0
M  V30 38 H 1.66644 -0.361456 1.19205 0
M  V30 39 H 2.23135 -1.36522 -1.1229 0
M  V30 40 H 7.60516 -1.46624 1.03188 0
M  V30 41 H 7.73174 -1.78681 -0.72402 0
M  V30 END ATOM
M  V30 BEGIN BOND
M  V30 1 2 1 2
M  V30 2 1 2 3
M  V30 3 1 3 4
M  V30 4 1 4 5
M  V30 5 2 5 6
M  V30 6 1 6 7
M  V30 7 2 7 8
M  V30 8 1 8 9
M  V30 9 2 9 10
M  V30 10 1 3 11
M  V30 11 1 2 12
M  V30 12 1 12 13
M  V30 13 1 13 14
M  V30 14 1 14 15
M  V30 15 1 15 16
M  V30 16 2 16 17
M  V30 17 1 17 18
M  V30 18 1 18 19
M  V30 19 2 19 20
M  V30 20 1 19 21
M  V30 21 1 10 5
M  V30 22 1 20 16
M  V30 23 1 3 22 CFG=3
M  V30 24 1 4 23
M  V30 25 1 4 24
M  V30 26 1 6 25
M  V30 27 1 7 26
M  V30 28 1 8 27
M  V30 29 1 9 28
M  V30 30 1 10 29
M  V30 31 1 11 30
M  V30 32 1 11 31
M  V30 33 1 12 32
M  V30 34 1 13 33
M  V30 35 1 13 34
M  V30 36 1 14 35
M  V30 37 1 14 36
M  V30 38 1 15 37
M  V30 39 1 15 38
M  V30 40 1 17 39
M  V30 41 1 21 40
M  V30 42 1 21 41
M  V30 END BOND
M  V30 END CTAB
M  END
