
     RDKit          3D

  0  0  0  0  0  0  0  0  0  0999 V3000
M  V30 BEGIN CTAB
M  V30 COUNTS 17 17 0 0 0
M  V30 BEGIN ATOM
M  V30 1 N 3.62665 -0.527946 -0.329969 0
M  V30 2 C 2.26712 -0.427014 0.0638152 0
M  V30 3 N 1.64453 -1.01284 1.10293 0
M  V30 4 O 0.394573 -0.654088 1.1036 0
M  V30 5 C 0.139326 0.156085 0.102462 0
M  V30 6 N 1.29005 0.304472 -0.548523 0
M  V30 7 C -1.2037 0.757209 -0.189848 0
M  V30 8 N -1.81376 1.26209 1.03146 0
M  V30 9 C -2.15113 -0.332518 -0.710504 0
M  V30 10 H 4.36456 -0.715414 0.378249 0
M  V30 11 H 3.93219 -0.421182 -1.31791 0
M  V30 12 H -1.13718 1.5123 -0.971411 0
M  V30 13 H -1.43858 0.811403 1.88355 0
M  V30 14 H -2.86767 1.13692 0.996109 0
M  V30 15 H -1.95669 -0.535475 -1.76211 0
M  V30 16 H -1.88512 -1.24511 -0.105135 0
M  V30 17 H -3.20517 -0.0688834 -0.542334 0
M  V30 END ATOM
M  V30 BEGIN BOND
M  V30 1 1 1 2
M  V30 2 2 2 3
M  V30 3 1 3 4
M  V30 4 1 4 5
M  V30 5 2 5 6
M  V30 6 1 5 7
M  V30 7 1 7 8
M  V30 8 1 7 9
M  V30 9 1 6 2
M  V30 10 1 1 10
M  V30 11 1 1 11
M  V30 12 1 7 12
M  V30 13 1 8 13
M  V30 14 1 8 14
M  V30 15 1 9 15
M  V30 16 1 9 16
M  V30 17 1 9 17
M  V30 END BOND
M  V30 END CTAB
M  END
