
     RDKit          3D

  0  0  0  0  0  0  0  0  0  0999 V3000
M  V30 BEGIN CTAB
M  V30 COUNTS 22 22 0 0 0
M  V30 BEGIN ATOM
M  V30 1 C -2.14692 -1.47774 -0.459116 0
M  V30 2 C -0.880193 -0.72738 -0.227102 0
M  V30 3 C 0.357456 -1.30836 -0.414048 0
M  V30 4 C 1.53014 -0.615458 -0.199781 0
M  V30 5 N 2.81239 -1.18355 -0.382788 0
M  V30 6 C 1.38171 0.71252 0.218727 0
M  V30 7 C 0.146719 1.29718 0.406822 0
M  V30 8 C -1.0134 0.585712 0.186673 0
M  V30 9 C -2.35656 1.19446 0.3827 0
M  V30 10 Cl 0.0225991 2.95852 0.930175 0
M  V30 11 N 2.58593 1.42169 0.438015 0
M  V30 12 H -1.86588 -2.48402 -0.833109 0
M  V30 13 H -2.71457 -1.63978 0.473213 0
M  V30 14 H -2.76671 -1.00832 -1.25056 0
M  V30 15 H 0.407315 -2.35186 -0.74269 0
M  V30 16 H 3.11772 -2.03488 0.116724 0
M  V30 17 H 3.46897 -0.73009 -1.04104 0
M  V30 18 H -3.12296 0.417506 0.604103 0
M  V30 19 H -2.71382 1.74613 -0.495736 0
M  V30 20 H -2.35433 1.85797 1.29676 0
M  V30 21 H 2.81903 1.91575 1.3226 0
M  V30 22 H 3.28536 1.45401 -0.330544 0
M  V30 END ATOM
M  V30 BEGIN BOND
M  V30 1 1 1 2
M  V30 2 2 2 3
M  V30 3 1 3 4
M  V30 4 1 4 5
M  V30 5 2 4 6
M  V30 6 1 6 7
M  V30 7 2 7 8
M  V30 8 1 8 9
M  V30 9 1 7 10
M  V30 10 1 6 11
M  V30 11 1 8 2
M  V30 12 1 1 12
M  V30 13 1 1 13
M  V30 14 1 1 14
M  V30 15 1 3 15
M  V30 16 1 5 16
M  V30 17 1 5 17
M  V30 18 1 9 18
M  V30 19 1 9 19
M  V30 20 1 9 20
M  V30 21 1 11 21
M  V30 22 1 11 22
M  V30 END BOND
M  V30 END CTAB
M  END
