
     RDKit          3D

  0  0  0  0  0  0  0  0  0  0999 V3000
M  V30 BEGIN CTAB
M  V30 COUNTS 31 32 0 0 0
M  V30 BEGIN ATOM
M  V30 1 N -5.65613 0.788643 0.545184 0
M  V30 2 C -4.35499 0.303488 0.22863 0
M  V30 3 C -4.14347 -0.941292 -0.329787 0
M  V30 4 C -2.90601 -1.42888 -0.642244 0
M  V30 5 C -1.77411 -0.637237 -0.389898 0
M  V30 6 C -1.94338 0.608926 0.165728 0
M  V30 7 C -3.23349 1.0683 0.470178 0
M  V30 8 N -0.482218 -1.13312 -0.711247 0
M  V30 9 S 0.637322 -0.127956 -1.51449 0
M  V30 10 O -0.0190316 1.1896 -1.8554 0
M  V30 11 O 1.04793 -0.733988 -2.83005 0
M  V30 12 C 1.99106 0.196652 -0.492821 0
M  V30 13 C 2.02346 1.31434 0.303837 0
M  V30 14 C 3.09837 1.56839 1.11404 0
M  V30 15 C 4.16341 0.708765 1.14359 0
M  V30 16 C 4.16097 -0.421446 0.355816 0
M  V30 17 C 3.07498 -0.669767 -0.4569 0
M  V30 18 N 5.27391 -1.30155 0.399285 0
M  V30 19 H -6.13086 1.53688 -0.00374755 0
M  V30 20 H -6.19012 0.404658 1.35332 0
M  V30 21 H -5.02224 -1.53836 -0.518072 0
M  V30 22 H -2.74922 -2.41683 -1.08453 0
M  V30 23 H -1.08243 1.2201 0.362252 0
M  V30 24 H -3.33205 2.04433 0.902555 0
M  V30 25 H -0.247369 -2.13769 -0.435462 0
M  V30 26 H 1.17273 2.01622 0.289503 0
M  V30 27 H 3.10857 2.45997 1.74034 0
M  V30 28 H 5.02939 0.894688 1.78331 0
M  V30 29 H 3.07364 -1.55941 -1.07671 0
M  V30 30 H 5.15269 -2.32802 0.379077 0
M  V30 31 H 6.25868 -0.948396 0.453352 0
M  V30 END ATOM
M  V30 BEGIN BOND
M  V30 1 1 1 2
M  V30 2 2 2 3
M  V30 3 1 3 4
M  V30 4 2 4 5
M  V30 5 1 5 6
M  V30 6 2 6 7
M  V30 7 1 5 8
M  V30 8 1 8 9
M  V30 9 2 9 10
M  V30 10 2 9 11
M  V30 11 1 9 12
M  V30 12 2 12 13
M  V30 13 1 13 14
M  V30 14 2 14 15
M  V30 15 1 15 16
M  V30 16 2 16 17
M  V30 17 1 16 18
M  V30 18 1 7 2
M  V30 19 1 17 12
M  V30 20 1 1 19
M  V30 21 1 1 20
M  V30 22 1 3 21
M  V30 23 1 4 22
M  V30 24 1 6 23
M  V30 25 1 7 24
M  V30 26 1 8 25
M  V30 27 1 13 26
M  V30 28 1 14 27
M  V30 29 1 15 28
M  V30 30 1 17 29
M  V30 31 1 18 30
M  V30 32 1 18 31
M  V30 END BOND
M  V30 END CTAB
M  END
