
     RDKit          3D

  0  0  0  0  0  0  0  0  0  0999 V3000
M  V30 BEGIN CTAB
M  V30 COUNTS 98 98 0 0 0
M  V30 BEGIN ATOM
M  V30 1 C -8.42889 -2.22478 1.79135 0 CFG=1
M  V30 2 N -8.82823 -0.972311 2.45468 0
M  V30 3 C -9.41105 -2.50095 0.665829 0
M  V30 4 C -9.13722 -3.74838 -0.0725283 0
M  V30 5 C -8.36445 -3.96825 -1.18939 0
M  V30 6 N -8.40667 -5.25989 -1.51711 0
M  V30 7 C -9.18329 -5.89781 -0.650673 0
M  V30 8 N -9.63633 -4.98355 0.238362 0
M  V30 9 C -7.06349 -1.99454 1.25303 0
M  V30 10 O -6.39366 -2.99245 0.901452 0
M  V30 11 N -6.50416 -0.679756 1.12598 0
M  V30 12 C -5.17925 -0.417416 0.604592 0 CFG=1
M  V30 13 C -5.17736 0.126011 -0.777831 0
M  V30 14 C -5.85069 1.40406 -1.04846 0
M  V30 15 C -5.64567 1.67478 -2.55272 0
M  V30 16 C -7.31037 1.4961 -0.800491 0
M  V30 17 C -4.36492 0.330542 1.55841 0
M  V30 18 O -4.79509 0.59235 2.70974 0
M  V30 19 N -3.05549 0.796402 1.2163 0
M  V30 20 C -2.26447 1.53814 2.14344 0
M  V30 21 C -0.9707 2.00625 1.65887 0
M  V30 22 O -0.289693 2.66584 2.52783 0
M  V30 23 N -0.460493 1.79933 0.388161 0
M  V30 24 C 0.770118 2.2477 -0.188276 0 CFG=1
M  V30 25 C 1.35397 3.51818 0.403503 0
M  V30 26 C 0.397867 4.66237 0.179859 0
M  V30 27 C 0.172432 4.87291 -1.3214 0
M  V30 28 C 1.0058 5.96015 0.694594 0
M  V30 29 C 1.74857 1.16742 -0.363485 0
M  V30 30 O 1.49601 -0.0078507 0.00449643 0
M  V30 31 N 3.00748 1.42637 -0.954671 0
M  V30 32 C 4.02557 0.400529 -1.15581 0 CFG=1
M  V30 33 C 4.37317 0.3348 -2.63122 0
M  V30 34 C 5.20483 0.795756 -0.353537 0
M  V30 35 O 5.13201 1.83093 0.354302 0
M  V30 36 N 6.42214 0.0332661 -0.365062 0
M  V30 37 C 7.54684 0.470586 0.444418 0 CFG=1
M  V30 38 C 8.14694 -0.640702 1.26752 0
M  V30 39 C 8.64682 -1.72437 0.355318 0
M  V30 40 C 9.25993 -2.85015 1.1675 0
M  V30 41 N 9.73839 -3.85397 0.239205 0
M  V30 42 C 10.3558 -5.00326 0.790382 0
M  V30 43 N 11.7603 -5.10317 0.794267 0
M  V30 44 N 9.61011 -5.92785 1.27619 0
M  V30 45 C 8.60649 0.987577 -0.469807 0
M  V30 46 O 9.78446 1.4529 0.128703 0
M  V30 47 O 8.47816 1.01676 -1.72143 0
M  V30 48 H -8.48558 -3.05666 2.49904 0
M  V30 49 H -9.06532 -0.267123 1.73917 0
M  V30 50 H -8.06299 -0.610313 3.04787 0
M  V30 51 H -9.38484 -1.63219 -0.0573715 0
M  V30 52 H -10.427 -2.47689 1.11833 0
M  V30 53 H -7.82937 -3.15392 -1.67605 0
M  V30 54 H -7.89927 -5.69504 -2.33639 0
M  V30 55 H -9.44019 -6.94048 -0.614292 0
M  V30 56 H -7.11436 0.10816 1.44124 0
M  V30 57 H -4.70714 -1.44505 0.511132 0
M  V30 58 H -5.64535 -0.652408 -1.42907 0
M  V30 59 H -4.12661 0.192353 -1.12442 0
M  V30 60 H -5.36064 2.28859 -0.543566 0
M  V30 61 H -6.5558 1.3501 -3.09972 0
M  V30 62 H -5.40203 2.73474 -2.74127 0
M  V30 63 H -4.80268 1.07847 -2.95989 0
M  V30 64 H -7.77687 2.09753 -1.61378 0
M  V30 65 H -7.58216 2.03898 0.128501 0
M  V30 66 H -7.81408 0.49052 -0.875237 0
M  V30 67 H -2.7274 0.564248 0.284605 0
M  V30 68 H -2.87027 2.40482 2.55637 0
M  V30 69 H -2.09349 0.899041 3.06696 0
M  V30 70 H -1.09016 1.20443 -0.263303 0
M  V30 71 H 0.424792 2.66945 -1.22936 0
M  V30 72 H 1.61683 3.46018 1.4586 0
M  V30 73 H 2.27583 3.76561 -0.196734 0
M  V30 74 H -0.578646 4.56866 0.625386 0
M  V30 75 H -0.715452 4.3293 -1.67846 0
M  V30 76 H 1.0532 4.49926 -1.89067 0
M  V30 77 H 0.0597972 5.94735 -1.57936 0
M  V30 78 H 0.869326 6.06056 1.78813 0
M  V30 79 H 0.434315 6.78429 0.211287 0
M  V30 80 H 2.05869 6.07796 0.377085 0
M  V30 81 H 3.21448 2.40256 -1.26804 0
M  V30 82 H 3.62221 -0.559137 -0.814197 0
M  V30 83 H 4.45303 1.38815 -2.98584 0
M  V30 84 H 3.56435 -0.124014 -3.21905 0
M  V30 85 H 5.30527 -0.210457 -2.83506 0
M  V30 86 H 6.43959 -0.811158 -0.964843 0
M  V30 87 H 7.22216 1.32698 1.0702 0
M  V30 88 H 7.38982 -1.04193 1.97591 0
M  V30 89 H 8.99742 -0.258206 1.85213 0
M  V30 90 H 9.38479 -1.2973 -0.343519 0
M  V30 91 H 7.79552 -2.12984 -0.214252 0
M  V30 92 H 8.42609 -3.32797 1.7477 0
M  V30 93 H 10.0452 -2.47303 1.84507 0
M  V30 94 H 9.63962 -3.74832 -0.789333 0
M  V30 95 H 12.3511 -4.61904 0.0899951 0
M  V30 96 H 12.2255 -5.67671 1.5218 0
M  V30 97 H 8.57784 -5.84681 1.27137 0
M  V30 98 H 9.78846 2.4651 0.317556 0
M  V30 END ATOM
M  V30 BEGIN BOND
M  V30 1 1 1 2
M  V30 2 1 1 3
M  V30 3 1 3 4
M  V30 4 2 4 5
M  V30 5 1 5 6
M  V30 6 1 6 7
M  V30 7 2 7 8
M  V30 8 1 1 9
M  V30 9 2 9 10
M  V30 10 1 9 11
M  V30 11 1 11 12
M  V30 12 1 12 13
M  V30 13 1 13 14
M  V30 14 1 14 15
M  V30 15 1 14 16
M  V30 16 1 12 17
M  V30 17 2 17 18
M  V30 18 1 17 19
M  V30 19 1 19 20
M  V30 20 1 20 21
M  V30 21 2 21 22
M  V30 22 1 21 23
M  V30 23 1 23 24
M  V30 24 1 24 25
M  V30 25 1 25 26
M  V30 26 1 26 27
M  V30 27 1 26 28
M  V30 28 1 24 29
M  V30 29 2 29 30
M  V30 30 1 29 31
M  V30 31 1 31 32
M  V30 32 1 32 33
M  V30 33 1 32 34
M  V30 34 2 34 35
M  V30 35 1 34 36
M  V30 36 1 36 37
M  V30 37 1 37 38
M  V30 38 1 38 39
M  V30 39 1 39 40
M  V30 40 1 40 41
M  V30 41 1 41 42
M  V30 42 1 42 43
M  V30 43 2 42 44 CFG=2
M  V30 44 1 37 45
M  V30 45 1 45 46
M  V30 46 2 45 47
M  V30 47 1 8 4
M  V30 48 1 1 48 CFG=1
M  V30 49 1 2 49
M  V30 50 1 2 50
M  V30 51 1 3 51
M  V30 52 1 3 52
M  V30 53 1 5 53
M  V30 54 1 6 54
M  V30 55 1 7 55
M  V30 56 1 11 56
M  V30 57 1 12 57 CFG=3
M  V30 58 1 13 58
M  V30 59 1 13 59
M  V30 60 1 14 60
M  V30 61 1 15 61
M  V30 62 1 15 62
M  V30 63 1 15 63
M  V30 64 1 16 64
M  V30 65 1 16 65
M  V30 66 1 16 66
M  V30 67 1 19 67
M  V30 68 1 20 68
M  V30 69 1 20 69
M  V30 70 1 23 70
M  V30 71 1 24 71 CFG=3
M  V30 72 1 25 72
M  V30 73 1 25 73
M  V30 74 1 26 74
M  V30 75 1 27 75
M  V30 76 1 27 76
M  V30 77 1 27 77
M  V30 78 1 28 78
M  V30 79 1 28 79
M  V30 80 1 28 80
M  V30 81 1 31 81
M  V30 82 1 32 82 CFG=1
M  V30 83 1 33 83
M  V30 84 1 33 84
M  V30 85 1 33 85
M  V30 86 1 36 86
M  V30 87 1 37 87 CFG=1
M  V30 88 1 38 88
M  V30 89 1 38 89
M  V30 90 1 39 90
M  V30 91 1 39 91
M  V30 92 1 40 92
M  V30 93 1 40 93
M  V30 94 1 41 94
M  V30 95 1 43 95
M  V30 96 1 43 96
M  V30 97 1 44 97
M  V30 98 1 46 98
M  V30 END BOND
M  V30 END CTAB
M  END
