
     RDKit          3D

  0  0  0  0  0  0  0  0  0  0999 V3000
M  V30 BEGIN CTAB
M  V30 COUNTS 78 77 0 0 0
M  V30 BEGIN ATOM
M  V30 1 O -5.00028 1.25729 0.652548 0
M  V30 2 C -4.51433 0.663023 1.3232 0
M  V30 3 N -3.35684 -0.0899795 1.00285 0
M  V30 4 C -2.81338 -0.0374848 -0.327571 0 CFG=2
M  V30 5 C -2.75243 -1.37034 -0.968647 0
M  V30 6 O -3.15449 -2.36613 -0.33637 0
M  V30 7 N -2.24719 -1.50349 -2.26728 0
M  V30 8 C -2.17145 -2.79339 -2.8976 0
M  V30 9 C -1.27643 -3.70861 -2.15619 0
M  V30 10 O -0.643115 -3.33633 -1.13715 0
M  V30 11 O -1.15532 -5.0259 -2.63136 0
M  V30 12 C -1.41825 0.550312 -0.351388 0
M  V30 13 S -1.38224 2.24818 0.295059 0
M  V30 14 C 0.372393 2.78095 0.18048 0
M  V30 15 C 0.688143 2.84226 -1.28254 0
M  V30 16 S 2.39492 3.33344 -1.63957 0
M  V30 17 C 3.58028 2.12584 -1.07952 0
M  V30 18 C 3.53083 0.789393 -1.7849 0 CFG=1
M  V30 19 C 3.78997 0.798793 -3.20304 0
M  V30 20 O 4.8058 0.140898 -3.63076 0
M  V30 21 N 3.01055 1.47351 -4.14898 0
M  V30 22 C 3.39512 1.40073 -5.55737 0
M  V30 23 C 2.43646 2.18171 -6.37129 0
M  V30 24 O 1.47777 2.75064 -5.79429 0
M  V30 25 O 2.58038 2.29184 -7.74485 0
M  V30 26 N 4.44973 -0.075328 -1.04071 0
M  V30 27 C 3.96284 -1.01054 -0.0494121 0
M  V30 28 O 2.72688 -1.00795 0.109177 0
M  V30 29 C 4.86534 -1.87636 0.695437 0
M  V30 30 C 4.36842 -2.53172 1.92203 0
M  V30 31 C 3.98443 -1.67345 3.07181 0 CFG=1
M  V30 32 C 5.14643 -0.854232 3.53188 0
M  V30 33 O 5.04669 0.367495 3.75683 0
M  V30 34 O 6.36276 -1.49111 3.70827 0
M  V30 35 N 2.82969 -0.867819 2.95522 0
M  V30 36 C -4.99856 0.531566 2.74812 0
M  V30 37 C -6.19487 1.4223 2.91319 0
M  V30 38 C -6.66828 1.2724 4.34318 0 CFG=1
M  V30 39 C -7.02362 -0.16249 4.55891 0
M  V30 40 O -6.42164 -0.871981 5.41249 0
M  V30 41 O -8.03034 -0.728941 3.81077 0
M  V30 42 N -5.59154 1.67232 5.23101 0
M  V30 43 H -2.9029 -0.674642 1.71952 0
M  V30 44 H -3.42926 0.631399 -0.997631 0
M  V30 45 H -1.92094 -0.669832 -2.78908 0
M  V30 46 H -1.8012 -2.69825 -3.95465 0
M  V30 47 H -3.21586 -3.2045 -2.8988 0
M  V30 48 H -0.826429 -5.20062 -3.58727 0
M  V30 49 H -0.752122 -0.0684438 0.278389 0
M  V30 50 H -1.05305 0.508434 -1.39223 0
M  V30 51 H 0.549644 3.71355 0.715237 0
M  V30 52 H 0.942811 1.96622 0.681632 0
M  V30 53 H 0.0282599 3.59965 -1.76414 0
M  V30 54 H 0.458353 1.86955 -1.75667 0
M  V30 55 H 4.60494 2.53452 -1.28573 0
M  V30 56 H 3.54454 1.9173 0.00944242 0
M  V30 57 H 2.51101 0.380961 -1.58293 0
M  V30 58 H 2.16351 2.02019 -3.90712 0
M  V30 59 H 4.41545 1.82268 -5.67734 0
M  V30 60 H 3.43578 0.37337 -5.92402 0
M  V30 61 H 1.8334 2.67668 -8.31432 0
M  V30 62 H 5.46981 -0.0523871 -1.19413 0
M  V30 63 H 5.85988 -1.37611 0.84657 0
M  V30 64 H 5.13616 -2.72343 -0.0222735 0
M  V30 65 H 5.2037 -3.20252 2.29342 0
M  V30 66 H 3.55679 -3.24931 1.64366 0
M  V30 67 H 3.77031 -2.3987 3.93431 0
M  V30 68 H 7.04009 -1.4068 2.96333 0
M  V30 69 H 3.0094 0.150954 2.84932 0
M  V30 70 H 2.02683 -1.11553 3.54637 0
M  V30 71 H -5.25745 -0.537542 2.89288 0
M  V30 72 H -4.19425 0.753551 3.46203 0
M  V30 73 H -5.88081 2.4715 2.72663 0
M  V30 74 H -7.02027 1.19691 2.21726 0
M  V30 75 H -7.54855 1.89643 4.51042 0
M  V30 76 H -7.85556 -1.28147 2.97457 0
M  V30 77 H -5.92999 2.01223 6.14185 0
M  V30 78 H -4.96329 2.38814 4.81981 0
M  V30 END ATOM
M  V30 BEGIN BOND
M  V30 1 2 1 2
M  V30 2 1 2 3
M  V30 3 1 3 4
M  V30 4 1 4 5
M  V30 5 2 5 6
M  V30 6 1 5 7
M  V30 7 1 7 8
M  V30 8 1 8 9
M  V30 9 2 9 10
M  V30 10 1 9 11
M  V30 11 1 4 12
M  V30 12 1 12 13
M  V30 13 1 13 14
M  V30 14 1 14 15
M  V30 15 1 15 16
M  V30 16 1 16 17
M  V30 17 1 17 18
M  V30 18 1 18 19
M  V30 19 2 19 20
M  V30 20 1 19 21
M  V30 21 1 21 22
M  V30 22 1 22 23
M  V30 23 2 23 24
M  V30 24 1 23 25
M  V30 25 1 18 26
M  V30 26 1 26 27
M  V30 27 2 27 28
M  V30 28 1 27 29
M  V30 29 1 29 30
M  V30 30 1 30 31
M  V30 31 1 31 32
M  V30 32 2 32 33
M  V30 33 1 32 34
M  V30 34 1 31 35
M  V30 35 1 2 36
M  V30 36 1 36 37
M  V30 37 1 37 38
M  V30 38 1 38 39
M  V30 39 2 39 40
M  V30 40 1 39 41
M  V30 41 1 38 42
M  V30 42 1 3 43
M  V30 43 1 4 44 CFG=3
M  V30 44 1 7 45
M  V30 45 1 8 46
M  V30 46 1 8 47
M  V30 47 1 11 48
M  V30 48 1 12 49
M  V30 49 1 12 50
M  V30 50 1 14 51
M  V30 51 1 14 52
M  V30 52 1 15 53
M  V30 53 1 15 54
M  V30 54 1 17 55
M  V30 55 1 17 56
M  V30 56 1 18 57 CFG=3
M  V30 57 1 21 58
M  V30 58 1 22 59
M  V30 59 1 22 60
M  V30 60 1 25 61
M  V30 61 1 26 62
M  V30 62 1 29 63
M  V30 63 1 29 64
M  V30 64 1 30 65
M  V30 65 1 30 66
M  V30 66 1 31 67 CFG=1
M  V30 67 1 34 68
M  V30 68 1 35 69
M  V30 69 1 35 70
M  V30 70 1 36 71
M  V30 71 1 36 72
M  V30 72 1 37 73
M  V30 73 1 37 74
M  V30 74 1 38 75 CFG=3
M  V30 75 1 41 76
M  V30 76 1 42 77
M  V30 77 1 42 78
M  V30 END BOND
M  V30 END CTAB
M  END
