
     RDKit          3D

  0  0  0  0  0  0  0  0  0  0999 V3000
M  V30 BEGIN CTAB
M  V30 COUNTS 15 15 0 0 0
M  V30 BEGIN ATOM
M  V30 1 F -2.50184 -2.49141 0.0290405 0
M  V30 2 C -1.59343 -1.47245 0.018385 0
M  V30 3 C -2.01808 -0.160109 0.0716055 0
M  V30 4 C -1.12329 0.897434 0.0625373 0
M  V30 5 C 0.235695 0.661064 -0.000909881 0
M  V30 6 C 0.62051 -0.662886 -0.0527697 0
M  V30 7 N -0.265894 -1.6847 -0.0430945 0
M  V30 8 N 1.99919 -0.968144 -0.118864 0
M  V30 9 N 1.1499 1.74578 -0.0100917 0
M  V30 10 H -3.083 0.0258249 0.121339 0
M  V30 11 H -1.46084 1.92379 0.104376 0
M  V30 12 H 2.47753 -1.23785 -0.997002 0
M  V30 13 H 2.55044 -0.917291 0.757404 0
M  V30 14 H 1.46839 2.15694 0.915859 0
M  V30 15 H 1.54471 2.18401 -0.857816 0
M  V30 END ATOM
M  V30 BEGIN BOND
M  V30 1 1 1 2
M  V30 2 2 2 3
M  V30 3 1 3 4
M  V30 4 2 4 5
M  V30 5 1 5 6
M  V30 6 2 6 7
M  V30 7 1 6 8
M  V30 8 1 5 9
M  V30 9 1 7 2
M  V30 10 1 3 10
M  V30 11 1 4 11
M  V30 12 1 8 12
M  V30 13 1 8 13
M  V30 14 1 9 14
M  V30 15 1 9 15
M  V30 END BOND
M  V30 END CTAB
M  END
