
     RDKit          3D

  0  0  0  0  0  0  0  0  0  0999 V3000
M  V30 BEGIN CTAB
M  V30 COUNTS 19 19 0 0 0
M  V30 BEGIN ATOM
M  V30 1 N 2.93593 0.765925 -0.624701 0
M  V30 2 C 1.69108 0.168529 -0.321968 0
M  V30 3 C 1.59816 -1.19343 -0.02193 0
M  V30 4 C 0.392501 -1.7919 0.275456 0
M  V30 5 C -0.774897 -1.0604 0.287311 0
M  V30 6 C -0.689358 0.282506 -0.0076625 0
M  V30 7 C 0.519369 0.897054 -0.308873 0
M  V30 8 Br 0.561284 2.77851 -0.71109 0
M  V30 9 C -1.91215 1.07233 -0.00010863 0
M  V30 10 O -3.0207 0.554359 0.266649 0
M  V30 11 O -1.86236 2.44669 -0.296653 0
M  V30 12 N -2.04221 -1.66157 0.594025 0
M  V30 13 H 2.96005 1.60093 -1.23438 0
M  V30 14 H 3.82863 0.395724 -0.256208 0
M  V30 15 H 2.54339 -1.72727 -0.0438377 0
M  V30 16 H 0.377037 -2.85624 0.501802 0
M  V30 17 H -2.07482 3.1055 0.452032 0
M  V30 18 H -2.27011 -1.9119 1.57586 0
M  V30 19 H -2.76084 -1.86532 -0.125725 0
M  V30 END ATOM
M  V30 BEGIN BOND
M  V30 1 1 1 2
M  V30 2 2 2 3
M  V30 3 1 3 4
M  V30 4 2 4 5
M  V30 5 1 5 6
M  V30 6 2 6 7
M  V30 7 1 7 8
M  V30 8 1 6 9
M  V30 9 2 9 10
M  V30 10 1 9 11
M  V30 11 1 5 12
M  V30 12 1 7 2
M  V30 13 1 1 13
M  V30 14 1 1 14
M  V30 15 1 3 15
M  V30 16 1 4 16
M  V30 17 1 11 17
M  V30 18 1 12 18
M  V30 19 1 12 19
M  V30 END BOND
M  V30 END CTAB
M  END
