
     RDKit          3D

  0  0  0  0  0  0  0  0  0  0999 V3000
M  V30 BEGIN CTAB
M  V30 COUNTS 24 25 0 0 0
M  V30 BEGIN ATOM
M  V30 1 N -2.728 1.64824 -0.468462 0
M  V30 2 C -1.32525 1.49829 -0.26134 0
M  V30 3 C -0.838905 0.0783392 -0.466431 0
M  V30 4 C -1.53537 -0.824382 0.491733 0
M  V30 5 C -0.840953 -2.097 0.785246 0
M  V30 6 N 0.526528 -2.15514 0.380891 0
M  V30 7 C 1.29764 -0.988632 0.128868 0
M  V30 8 N 0.603143 0.0989668 -0.287332 0
M  V30 9 N 1.49924 1.04406 -0.456703 0
M  V30 10 C 2.73893 0.611723 -0.167687 0
M  V30 11 N 2.6173 -0.692928 0.209146 0
M  V30 12 N 3.96584 1.31606 -0.222236 0
M  V30 13 H -3.26117 0.77676 -0.562138 0
M  V30 14 H -3.02845 2.44061 -1.02563 0
M  V30 15 H -1.11271 1.74382 0.809426 0
M  V30 16 H -0.75837 2.19006 -0.937661 0
M  V30 17 H -1.09422 -0.20091 -1.51618 0
M  V30 18 H -1.75878 -0.246052 1.41999 0
M  V30 19 H -2.54056 -1.07117 0.0398922 0
M  V30 20 H -1.40026 -2.98969 0.381279 0
M  V30 21 H -0.856761 -2.25997 1.90272 0
M  V30 22 H 0.99086 -3.09199 0.262444 0
M  V30 23 H 4.27614 1.82377 0.625036 0
M  V30 24 H 4.56414 1.34717 -1.06488 0
M  V30 END ATOM
M  V30 BEGIN BOND
M  V30 1 1 1 2
M  V30 2 1 2 3
M  V30 3 1 3 4
M  V30 4 1 4 5
M  V30 5 1 5 6
M  V30 6 1 6 7
M  V30 7 1 7 8
M  V30 8 1 8 9
M  V30 9 2 9 10
M  V30 10 1 10 11
M  V30 11 1 10 12
M  V30 12 1 8 3
M  V30 13 2 11 7
M  V30 14 1 1 13
M  V30 15 1 1 14
M  V30 16 1 2 15
M  V30 17 1 2 16
M  V30 18 1 3 17
M  V30 19 1 4 18
M  V30 20 1 4 19
M  V30 21 1 5 20
M  V30 22 1 5 21
M  V30 23 1 6 22
M  V30 24 1 12 23
M  V30 25 1 12 24
M  V30 END BOND
M  V30 END CTAB
M  END
