
     RDKit          3D

  0  0  0  0  0  0  0  0  0  0999 V3000
M  V30 BEGIN CTAB
M  V30 COUNTS 24 24 0 0 0
M  V30 BEGIN ATOM
M  V30 1 N 2.94699 1.86084 -0.49332 0
M  V30 2 C 2.21152 0.704569 -0.132852 0
M  V30 3 C 2.79318 -0.382516 0.496496 0
M  V30 4 C 2.09722 -1.51518 0.85518 0
M  V30 5 C 0.734672 -1.52689 0.549662 0
M  V30 6 C 0.106283 -0.495708 -0.0648117 0
M  V30 7 C 0.842847 0.618215 -0.405668 0
M  V30 8 N -1.27989 -0.519837 -0.370065 0
M  V30 9 S -2.49054 0.0459383 0.700811 0
M  V30 10 O -2.06975 -0.120721 2.14578 0
M  V30 11 O -3.79812 -0.690479 0.523733 0
M  V30 12 N -2.83284 1.72547 0.463315 0
M  V30 13 C -1.69947 -1.0499 -1.65386 0
M  V30 14 H 3.97205 1.85508 -0.531704 0
M  V30 15 H 2.42453 2.72767 -0.721629 0
M  V30 16 H 3.85341 -0.350383 0.723711 0
M  V30 17 H 2.5461 -2.36497 1.34583 0
M  V30 18 H 0.194827 -2.42497 0.836772 0
M  V30 19 H 0.366497 1.45246 -0.89548 0
M  V30 20 H -1.91161 2.20479 0.30647 0
M  V30 21 H -3.45523 1.78749 -0.386579 0
M  V30 22 H -0.933702 -1.65908 -2.14666 0
M  V30 23 H -2.03912 -0.187872 -2.26831 0
M  V30 24 H -2.57984 -1.69402 -1.48152 0
M  V30 END ATOM
M  V30 BEGIN BOND
M  V30 1 1 1 2
M  V30 2 2 2 3
M  V30 3 1 3 4
M  V30 4 2 4 5
M  V30 5 1 5 6
M  V30 6 2 6 7
M  V30 7 1 6 8
M  V30 8 1 8 9
M  V30 9 2 9 10
M  V30 10 2 9 11
M  V30 11 1 9 12
M  V30 12 1 8 13
M  V30 13 1 7 2
M  V30 14 1 1 14
M  V30 15 1 1 15
M  V30 16 1 3 16
M  V30 17 1 4 17
M  V30 18 1 5 18
M  V30 19 1 7 19
M  V30 20 1 12 20
M  V30 21 1 12 21
M  V30 22 1 13 22
M  V30 23 1 13 23
M  V30 24 1 13 24
M  V30 END BOND
M  V30 END CTAB
M  END
