
     RDKit          3D

  0  0  0  0  0  0  0  0  0  0999 V3000
M  V30 BEGIN CTAB
M  V30 COUNTS 35 35 0 0 0
M  V30 BEGIN ATOM
M  V30 1 C 3.89165 -0.0161376 -0.837703 0
M  V30 2 C 2.53904 0.229846 -0.28814 0
M  V30 3 N 2.4385 0.871377 0.82127 0
M  V30 4 N 3.51242 1.3531 1.5457 0
M  V30 5 C 4.2639 0.536749 2.44561 0
M  V30 6 N 5.36109 1.02955 3.18553 0
M  V30 7 S 3.85868 -1.03145 2.64462 0
M  V30 8 C 1.33714 -0.233078 -0.968191 0
M  V30 9 C 1.48147 -0.919078 -2.15823 0
M  V30 10 C 0.36815 -1.37941 -2.84214 0
M  V30 11 C -0.871576 -1.12671 -2.29137 0
M  V30 12 C -1.00905 -0.441292 -1.10297 0
M  V30 13 N 0.102657 -0.0165031 -0.479855 0
M  V30 14 C -2.34405 -0.21391 -0.586521 0
M  V30 15 C -2.50434 0.519934 0.687153 0
M  V30 16 N -3.40417 -0.619948 -1.18233 0
M  V30 17 N -4.69075 -0.391443 -0.668562 0
M  V30 18 C -5.30995 -1.23778 0.264908 0
M  V30 19 N -6.59969 -0.955693 0.741906 0
M  V30 20 S -4.53072 -2.55279 0.797997 0
M  V30 21 H 4.05799 -1.13218 -0.81121 0
M  V30 22 H 4.65582 0.420933 -0.200958 0
M  V30 23 H 3.96739 0.279052 -1.90476 0
M  V30 24 H 3.78311 2.35322 1.42892 0
M  V30 25 H 5.14534 1.35221 4.17563 0
M  V30 26 H 6.32732 1.07932 2.79721 0
M  V30 27 H 2.46585 -1.10331 -2.56741 0
M  V30 28 H 0.42725 -1.91692 -3.76949 0
M  V30 29 H -1.74166 -1.48464 -2.82273 0
M  V30 30 H -2.03674 1.52388 0.644207 0
M  V30 31 H -1.98694 -0.0930897 1.47271 0
M  V30 32 H -3.55444 0.653925 0.977978 0
M  V30 33 H -5.22532 0.452064 -0.992269 0
M  V30 34 H -6.86197 0.00366043 0.990527 0
M  V30 35 H -7.31338 -1.70914 0.85297 0
M  V30 END ATOM
M  V30 BEGIN BOND
M  V30 1 1 1 2
M  V30 2 2 2 3 CFG=2
M  V30 3 1 3 4
M  V30 4 1 4 5
M  V30 5 1 5 6
M  V30 6 2 5 7
M  V30 7 1 2 8
M  V30 8 2 8 9
M  V30 9 1 9 10
M  V30 10 2 10 11
M  V30 11 1 11 12
M  V30 12 2 12 13
M  V30 13 1 12 14
M  V30 14 1 14 15
M  V30 15 2 14 16 CFG=2
M  V30 16 1 16 17
M  V30 17 1 17 18
M  V30 18 1 18 19
M  V30 19 2 18 20
M  V30 20 1 13 8
M  V30 21 1 1 21
M  V30 22 1 1 22
M  V30 23 1 1 23
M  V30 24 1 4 24
M  V30 25 1 6 25
M  V30 26 1 6 26
M  V30 27 1 9 27
M  V30 28 1 10 28
M  V30 29 1 11 29
M  V30 30 1 15 30
M  V30 31 1 15 31
M  V30 32 1 15 32
M  V30 33 1 17 33
M  V30 34 1 19 34
M  V30 35 1 19 35
M  V30 END BOND
M  V30 END CTAB
M  END
