
     RDKit          3D

  0  0  0  0  0  0  0  0  0  0999 V3000
M  V30 BEGIN CTAB
M  V30 COUNTS 27 28 0 0 0
M  V30 BEGIN ATOM
M  V30 1 N 4.59664 -0.195362 -1.91662 0
M  V30 2 C 3.39204 0.0430155 -1.15853 0
M  V30 3 N 2.75876 -0.962122 -0.543374 0
M  V30 4 C 1.61286 -0.758681 0.182477 0
M  V30 5 N 0.97695 -1.85312 0.826834 0
M  V30 6 C 1.07362 0.490387 0.302691 0
M  V30 7 C -0.143189 0.767563 1.0516 0
M  V30 8 C -1.41161 0.412096 0.375061 0
M  V30 9 C -2.17036 -0.693013 0.676342 0
M  V30 10 C -3.35429 -1.00112 0.00611955 0
M  V30 11 Cl -4.30702 -2.41441 0.403996 0
M  V30 12 C -3.80883 -0.181053 -1.00546 0
M  V30 13 C -3.06309 0.930697 -1.32136 0
M  V30 14 C -1.89479 1.22529 -0.653021 0
M  V30 15 C 1.75297 1.52933 -0.349532 0
M  V30 16 N 2.87254 1.27612 -1.04807 0
M  V30 17 H 4.7998 -1.17172 -2.20547 0
M  V30 18 H 5.25705 0.541603 -2.18215 0
M  V30 19 H 0.854405 -1.84323 1.85286 0
M  V30 20 H 0.630281 -2.66808 0.284476 0
M  V30 21 H -0.159224 0.260547 2.06456 0
M  V30 22 H -0.234278 1.85918 1.33816 0
M  V30 23 H -1.89503 -1.37069 1.45177 0
M  V30 24 H -4.73647 -0.410269 -1.54042 0
M  V30 25 H -3.41389 1.57319 -2.10987 0
M  V30 26 H -1.30179 2.09538 -0.893073 0
M  V30 27 H 1.31597 2.51847 -0.247738 0
M  V30 END ATOM
M  V30 BEGIN BOND
M  V30 1 1 1 2
M  V30 2 2 2 3
M  V30 3 1 3 4
M  V30 4 1 4 5
M  V30 5 2 4 6
M  V30 6 1 6 7
M  V30 7 1 7 8
M  V30 8 2 8 9
M  V30 9 1 9 10
M  V30 10 1 10 11
M  V30 11 2 10 12
M  V30 12 1 12 13
M  V30 13 2 13 14
M  V30 14 1 6 15
M  V30 15 2 15 16
M  V30 16 1 16 2
M  V30 17 1 14 8
M  V30 18 1 1 17
M  V30 19 1 1 18
M  V30 20 1 5 19
M  V30 21 1 5 20
M  V30 22 1 7 21
M  V30 23 1 7 22
M  V30 24 1 9 23
M  V30 25 1 12 24
M  V30 26 1 13 25
M  V30 27 1 14 26
M  V30 28 1 15 27
M  V30 END BOND
M  V30 END CTAB
M  END
