
     RDKit          3D

  0  0  0  0  0  0  0  0  0  0999 V3000
M  V30 BEGIN CTAB
M  V30 COUNTS 21 22 0 0 0
M  V30 BEGIN ATOM
M  V30 1 N -2.04173 2.61818 0.777825 0
M  V30 2 C -1.60722 1.2979 0.46544 0
M  V30 3 N -2.43387 0.249964 0.370359 0
M  V30 4 C -1.99234 -0.98266 0.0740494 0
M  V30 5 N -2.94414 -2.03059 -0.00467826 0
M  V30 6 N -0.684867 -1.183 -0.135335 0
M  V30 7 C 0.212898 -0.189227 -0.0600223 0
M  V30 8 C -0.264173 1.05868 0.243884 0
M  V30 9 C 1.65983 -0.468631 -0.302905 0
M  V30 10 C 2.59582 0.481252 -0.241035 0
M  V30 11 C 3.89378 0.116798 -0.480941 0
M  V30 12 S 3.77597 -1.55079 -0.788551 0
M  V30 13 C 2.09753 -1.74861 -0.607912 0
M  V30 14 Cl 1.11764 -3.21988 -0.765066 0
M  V30 15 H -2.62864 2.82508 1.5898 0
M  V30 16 H -1.75074 3.41611 0.152446 0
M  V30 17 H -3.01096 -2.58165 -0.888303 0
M  V30 18 H -3.59321 -2.29575 0.768177 0
M  V30 19 H 0.434953 1.86712 0.309231 0
M  V30 20 H 2.3759 1.55033 -0.00531596 0
M  V30 21 H 4.78756 0.76937 -0.471143 0
M  V30 END ATOM
M  V30 BEGIN BOND
M  V30 1 1 1 2
M  V30 2 2 2 3
M  V30 3 1 3 4
M  V30 4 1 4 5
M  V30 5 2 4 6
M  V30 6 1 6 7
M  V30 7 2 7 8
M  V30 8 1 7 9
M  V30 9 1 9 10
M  V30 10 2 10 11
M  V30 11 1 11 12
M  V30 12 1 12 13
M  V30 13 1 13 14
M  V30 14 1 8 2
M  V30 15 2 13 9
M  V30 16 1 1 15
M  V30 17 1 1 16
M  V30 18 1 5 17
M  V30 19 1 5 18
M  V30 20 1 8 19
M  V30 21 1 10 20
M  V30 22 1 11 21
M  V30 END BOND
M  V30 END CTAB
M  END
