
     RDKit          3D

  0  0  0  0  0  0  0  0  0  0999 V3000
M  V30 BEGIN CTAB
M  V30 COUNTS 14 13 0 0 0
M  V30 BEGIN ATOM
M  V30 1 N 2.55908 0.557352 0.356101 0
M  V30 2 C 2.04847 -0.251246 -0.706132 0
M  V30 3 C 0.600961 -0.380501 -0.525156 0
M  V30 4 C -0.595288 -0.497685 -0.386571 0
M  V30 5 C -2.04009 -0.659485 -0.230026 0
M  V30 6 N -2.535 0.43095 0.561458 0
M  V30 7 H 3.56739 0.787199 0.116166 0
M  V30 8 H 2.05898 1.45883 0.491618 0
M  V30 9 H 2.26602 0.179764 -1.72495 0
M  V30 10 H 2.53587 -1.25286 -0.625509 0
M  V30 11 H -2.56718 -0.614871 -1.22056 0
M  V30 12 H -2.30783 -1.64439 0.19964 0
M  V30 13 H -2.03301 1.30943 0.273962 0
M  V30 14 H -3.55837 0.577508 0.308804 0
M  V30 END ATOM
M  V30 BEGIN BOND
M  V30 1 1 1 2
M  V30 2 1 2 3
M  V30 3 3 3 4
M  V30 4 1 4 5
M  V30 5 1 5 6
M  V30 6 1 1 7
M  V30 7 1 1 8
M  V30 8 1 2 9
M  V30 9 1 2 10
M  V30 10 1 5 11
M  V30 11 1 5 12
M  V30 12 1 6 13
M  V30 13 1 6 14
M  V30 END BOND
M  V30 END CTAB
M  END
