
     RDKit          3D

  0  0  0  0  0  0  0  0  0  0999 V3000
M  V30 BEGIN CTAB
M  V30 COUNTS 80 84 0 0 0
M  V30 BEGIN ATOM
M  V30 1 C 8.86673 2.95813 0.508915 0
M  V30 2 C 8.16289 3.7501 -0.542267 0
M  V30 3 O 6.82515 3.33607 -0.796407 0
M  V30 4 C 5.8448 3.33325 0.175237 0
M  V30 5 O 6.18204 3.72041 1.3326 0
M  V30 6 C 4.46832 2.9321 0.0123387 0
M  V30 7 C 3.34472 3.68126 -0.324454 0
M  V30 8 C 3.4434 5.14178 -0.596515 0
M  V30 9 O 2.33053 2.88571 -0.33865 0
M  V30 10 C 2.63777 1.65167 -0.0445121 0
M  V30 11 C 3.99717 1.63668 0.186273 0
M  V30 12 C 4.55816 0.438538 0.511849 0
M  V30 13 N 5.96662 0.409098 0.743813 0
M  V30 14 N 3.80919 -0.670171 0.601775 0
M  V30 15 C 2.45206 -0.662302 0.374135 0
M  V30 16 N 1.91298 0.498596 0.0588849 0
M  V30 17 C 1.75288 -1.97799 0.511148 0
M  V30 18 N 0.311394 -1.84458 0.721841 0
M  V30 19 C -0.195633 -3.10126 1.31252 0
M  V30 20 C -0.615185 -4.15359 0.406091 0
M  V30 21 C -1.94091 -4.32137 -0.00942865 0
M  V30 22 C -2.3522 -5.28655 -0.894972 0
M  V30 23 C -1.438 -6.16803 -1.43508 0
M  V30 24 C -0.115506 -6.04084 -1.05339 0
M  V30 25 C 0.293662 -5.06441 -0.157381 0
M  V30 26 O 1.6423 -5.05793 0.144104 0
M  V30 27 C 2.52264 -5.97333 -0.430253 0
M  V30 28 C -1.31872 -2.71387 2.29861 0
M  V30 29 C -0.266993 -1.53006 -0.54451 0
M  V30 30 C -1.51433 -0.715988 -0.478282 0
M  V30 31 N -1.89736 -0.0311694 0.588267 0
M  V30 32 C -3.00704 0.715799 0.587654 0
M  V30 33 N -3.38954 1.42638 1.73645 0
M  V30 34 C -3.80086 0.802007 -0.535016 0
M  V30 35 C -3.4149 0.0930063 -1.65427 0
M  V30 36 N -2.28712 -0.636481 -1.57641 0
M  V30 37 O -4.3019 0.305636 -2.62517 0
M  V30 38 C -5.23825 1.10795 -2.20408 0
M  V30 39 C -4.9634 1.44812 -0.886893 0
M  V30 40 C -5.73618 2.31679 -0.0136252 0
M  V30 41 O -5.53444 3.55376 0.0714857 0
M  V30 42 O -6.74334 1.77344 0.766184 0
M  V30 43 C -7.50412 2.58131 1.61388 0
M  V30 44 C -8.2659 3.669 0.901533 0
M  V30 45 C -6.40215 1.59567 -2.95815 0
M  V30 46 H 9.63032 2.28698 0.018316 0
M  V30 47 H 8.18456 2.3749 1.14008 0
M  V30 48 H 9.45735 3.68031 1.13499 0
M  V30 49 H 8.1914 4.84643 -0.30576 0
M  V30 50 H 8.7164 3.65556 -1.51154 0
M  V30 51 H 3.7188 5.27133 -1.67186 0
M  V30 52 H 2.46304 5.63956 -0.431022 0
M  V30 53 H 4.19708 5.62918 0.0387494 0
M  V30 54 H 6.66007 0.53755 -0.0394934 0
M  V30 55 H 6.36176 0.258564 1.68951 0
M  V30 56 H 1.91415 -2.5229 -0.481976 0
M  V30 57 H 2.24048 -2.54485 1.28166 0
M  V30 58 H 0.643821 -3.43099 1.97174 0
M  V30 59 H -2.74251 -3.67367 0.35217 0
M  V30 60 H -3.38169 -5.38427 -1.19075 0
M  V30 61 H -1.75975 -6.9362 -2.13378 0
M  V30 62 H 0.599609 -6.74121 -1.48356 0
M  V30 63 H 2.4806 -5.89363 -1.53403 0
M  V30 64 H 2.20021 -6.98561 -0.122755 0
M  V30 65 H 3.57278 -5.77897 -0.120149 0
M  V30 66 H -1.30052 -3.5935 3.03459 0
M  V30 67 H -2.28934 -2.60245 1.86522 0
M  V30 68 H -0.995321 -1.80755 2.8222 0
M  V30 69 H 0.450642 -0.984427 -1.17089 0
M  V30 70 H -0.50826 -2.44494 -1.1486 0
M  V30 71 H -3.83597 0.934691 2.53442 0
M  V30 72 H -3.22485 2.44374 1.79727 0
M  V30 73 H -6.91195 3.0171 2.45102 0
M  V30 74 H -8.26286 1.92523 2.10269 0
M  V30 75 H -9.13525 3.92932 1.55677 0
M  V30 76 H -8.6959 3.26314 -0.0498407 0
M  V30 77 H -7.68712 4.58697 0.730586 0
M  V30 78 H -7.07852 0.761054 -3.18806 0
M  V30 79 H -6.03483 2.05171 -3.92627 0
M  V30 80 H -6.91983 2.41952 -2.41855 0
M  V30 END ATOM
M  V30 BEGIN BOND
M  V30 1 1 1 2
M  V30 2 1 2 3
M  V30 3 1 3 4
M  V30 4 2 4 5
M  V30 5 1 4 6
M  V30 6 2 6 7
M  V30 7 1 7 8
M  V30 8 1 7 9
M  V30 9 1 9 10
M  V30 10 2 10 11
M  V30 11 1 11 12
M  V30 12 1 12 13
M  V30 13 2 12 14
M  V30 14 1 14 15
M  V30 15 2 15 16
M  V30 16 1 15 17
M  V30 17 1 17 18
M  V30 18 1 18 19
M  V30 19 1 19 20
M  V30 20 2 20 21
M  V30 21 1 21 22
M  V30 22 2 22 23
M  V30 23 1 23 24
M  V30 24 2 24 25
M  V30 25 1 25 26
M  V30 26 1 26 27
M  V30 27 1 19 28
M  V30 28 1 18 29
M  V30 29 1 29 30
M  V30 30 2 30 31
M  V30 31 1 31 32
M  V30 32 1 32 33
M  V30 33 2 32 34
M  V30 34 1 34 35
M  V30 35 2 35 36
M  V30 36 1 35 37
M  V30 37 1 37 38
M  V30 38 2 38 39
M  V30 39 1 39 40
M  V30 40 2 40 41
M  V30 41 1 40 42
M  V30 42 1 42 43
M  V30 43 1 43 44
M  V30 44 1 38 45
M  V30 45 1 11 6
M  V30 46 1 25 20
M  V30 47 1 36 30
M  V30 48 1 16 10
M  V30 49 1 39 34
M  V30 50 1 1 46
M  V30 51 1 1 47
M  V30 52 1 1 48
M  V30 53 1 2 49
M  V30 54 1 2 50
M  V30 55 1 8 51
M  V30 56 1 8 52
M  V30 57 1 8 53
M  V30 58 1 13 54
M  V30 59 1 13 55
M  V30 60 1 17 56
M  V30 61 1 17 57
M  V30 62 1 19 58
M  V30 63 1 21 59
M  V30 64 1 22 60
M  V30 65 1 23 61
M  V30 66 1 24 62
M  V30 67 1 27 63
M  V30 68 1 27 64
M  V30 69 1 27 65
M  V30 70 1 28 66
M  V30 71 1 28 67
M  V30 72 1 28 68
M  V30 73 1 29 69
M  V30 74 1 29 70
M  V30 75 1 33 71
M  V30 76 1 33 72
M  V30 77 1 43 73
M  V30 78 1 43 74
M  V30 79 1 44 75
M  V30 80 1 44 76
M  V30 81 1 44 77
M  V30 82 1 45 78
M  V30 83 1 45 79
M  V30 84 1 45 80
M  V30 END BOND
M  V30 END CTAB
M  END
