
     RDKit          3D

  0  0  0  0  0  0  0  0  0  0999 V3000
M  V30 BEGIN CTAB
M  V30 COUNTS 30 30 0 0 0
M  V30 BEGIN ATOM
M  V30 1 C -0.952057 3.57942 0.276327 0
M  V30 2 O -0.100738 2.45519 0.0909916 0
M  V30 3 C -0.66449 1.17144 0.0256519 0
M  V30 4 C -2.02352 0.970685 0.136494 0
M  V30 5 C -2.56381 -0.306294 0.0695458 0
M  V30 6 O -3.93563 -0.470907 0.18494 0
M  V30 7 C -4.55767 -1.72355 0.128241 0
M  V30 8 C -1.684 -1.35166 -0.111208 0
M  V30 9 C -0.304774 -1.15129 -0.224007 0
M  V30 10 C 0.213642 0.124075 -0.15512 0
M  V30 11 C 1.6826 0.38372 -0.270961 0
M  V30 12 N 2.35559 -0.873385 -0.451661 0
M  V30 13 C 3.6323 -1.01831 -0.349146 0
M  V30 14 N 4.40576 0.134952 -0.0403063 0
M  V30 15 N 4.24268 -2.27026 -0.535267 0
M  V30 16 H -1.51178 3.4061 1.19811 0
M  V30 17 H -1.65463 3.7058 -0.572555 0
M  V30 18 H -0.289095 4.47103 0.403471 0
M  V30 19 H -2.67399 1.84475 0.279508 0
M  V30 20 H -5.55923 -1.73401 0.597442 0
M  V30 21 H -4.61092 -2.02954 -0.94595 0
M  V30 22 H -3.94717 -2.4938 0.68344 0
M  V30 23 H -2.09942 -2.35122 -0.164469 0
M  V30 24 H 0.341448 -2.0053 -0.364762 0
M  V30 25 H 1.83688 1.0887 -1.09229 0
M  V30 26 H 2.07516 0.825309 0.683218 0
M  V30 27 H 4.20983 1.00903 -0.553598 0
M  V30 28 H 5.16121 0.12641 0.684746 0
M  V30 29 H 3.70805 -3.16364 -0.496149 0
M  V30 30 H 5.26778 -2.35343 -0.722109 0
M  V30 END ATOM
M  V30 BEGIN BOND
M  V30 1 1 1 2
M  V30 2 1 2 3
M  V30 3 2 3 4
M  V30 4 1 4 5
M  V30 5 1 5 6
M  V30 6 1 6 7
M  V30 7 2 5 8
M  V30 8 1 8 9
M  V30 9 2 9 10
M  V30 10 1 10 11
M  V30 11 1 11 12
M  V30 12 2 12 13 CFG=2
M  V30 13 1 13 14
M  V30 14 1 13 15
M  V30 15 1 10 3
M  V30 16 1 1 16
M  V30 17 1 1 17
M  V30 18 1 1 18
M  V30 19 1 4 19
M  V30 20 1 7 20
M  V30 21 1 7 21
M  V30 22 1 7 22
M  V30 23 1 8 23
M  V30 24 1 9 24
M  V30 25 1 11 25
M  V30 26 1 11 26
M  V30 27 1 14 27
M  V30 28 1 14 28
M  V30 29 1 15 29
M  V30 30 1 15 30
M  V30 END BOND
M  V30 END CTAB
M  END
