
     RDKit          3D

  0  0  0  0  0  0  0  0  0  0999 V3000
M  V30 BEGIN CTAB
M  V30 COUNTS 28 28 0 0 0
M  V30 BEGIN ATOM
M  V30 1 N -3.06328 -1.0581 0.615803 0
M  V30 2 C -2.17603 0.0570937 0.525992 0
M  V30 3 C -1.0951 -0.134911 -0.539429 0
M  V30 4 C -0.241444 -1.34227 -0.257537 0
M  V30 5 C 0.726528 -1.00934 0.837186 0
M  V30 6 C 1.68376 0.0452006 0.395256 0
M  V30 7 C 1.13488 1.02601 -0.569282 0
M  V30 8 C -0.33621 1.13786 -0.642413 0
M  V30 9 N -0.793627 2.14043 0.332469 0
M  V30 10 C 2.91428 -0.603662 -0.252673 0
M  V30 11 H -2.64983 -1.91073 1.00799 0
M  V30 12 H -3.59543 -1.23575 -0.241099 0
M  V30 13 H -1.73126 0.25856 1.52004 0
M  V30 14 H -2.7645 0.940585 0.188338 0
M  V30 15 H -1.67093 -0.375636 -1.482 0
M  V30 16 H -0.858932 -2.18499 0.0700693 0
M  V30 17 H 0.328159 -1.55719 -1.19115 0
M  V30 18 H 0.194959 -0.699323 1.75863 0
M  V30 19 H 1.32454 -1.92186 1.10247 0
M  V30 20 H 2.08338 0.544932 1.32552 0
M  V30 21 H 1.54234 2.04212 -0.287172 0
M  V30 22 H 1.53908 0.861597 -1.60868 0
M  V30 23 H -0.597556 1.60066 -1.64096 0
M  V30 24 H -0.0132363 2.86431 0.341943 0
M  V30 25 H -1.62386 2.67779 -0.0569801 0
M  V30 26 H 3.81798 0.0254669 -0.0268461 0
M  V30 27 H 2.81697 -0.583398 -1.36226 0
M  V30 28 H 3.10437 -1.60546 0.136775 0
M  V30 END ATOM
M  V30 BEGIN BOND
M  V30 1 1 1 2
M  V30 2 1 2 3
M  V30 3 1 3 4
M  V30 4 1 4 5
M  V30 5 1 5 6
M  V30 6 1 6 7
M  V30 7 1 7 8
M  V30 8 1 8 9
M  V30 9 1 6 10
M  V30 10 1 8 3
M  V30 11 1 1 11
M  V30 12 1 1 12
M  V30 13 1 2 13
M  V30 14 1 2 14
M  V30 15 1 3 15
M  V30 16 1 4 16
M  V30 17 1 4 17
M  V30 18 1 5 18
M  V30 19 1 5 19
M  V30 20 1 6 20
M  V30 21 1 7 21
M  V30 22 1 7 22
M  V30 23 1 8 23
M  V30 24 1 9 24
M  V30 25 1 9 25
M  V30 26 1 10 26
M  V30 27 1 10 27
M  V30 28 1 10 28
M  V30 END BOND
M  V30 END CTAB
M  END
