
     RDKit          3D

  0  0  0  0  0  0  0  0  0  0999 V3000
M  V30 BEGIN CTAB
M  V30 COUNTS 29 29 0 0 0
M  V30 BEGIN ATOM
M  V30 1 C 0.238809 -1.26958 -2.36119 0
M  V30 2 C -0.600077 -0.657738 -1.28548 0
M  V30 3 C -0.0073636 -0.171152 -0.139882 0
M  V30 4 N 1.38905 -0.219328 0.0775489 0
M  V30 5 C 1.98424 0.294424 1.28461 0
M  V30 6 C 3.49045 0.12638 1.28437 0
M  V30 7 N 4.00352 0.853052 0.150921 0
M  V30 8 C -0.829657 0.388636 0.832931 0
M  V30 9 C -2.19649 0.447282 0.641114 0
M  V30 10 C -2.77856 -0.0424849 -0.508914 0
M  V30 11 N -4.18843 0.0340676 -0.674161 0
M  V30 12 C -1.97855 -0.604771 -1.49209 0
M  V30 13 N -3.06165 1.01271 1.61732 0 CHG=1
M  V30 14 O -2.65318 0.87033 2.94144 0 CHG=-1
M  V30 15 O -4.11135 1.60042 1.38602 0
M  V30 16 H 0.744262 -0.492864 -2.98106 0
M  V30 17 H -0.413237 -1.84407 -3.03706 0
M  V30 18 H 1.02286 -1.90845 -1.88775 0
M  V30 19 H 2.00187 -0.632464 -0.645306 0
M  V30 20 H 1.62261 -0.272891 2.19194 0
M  V30 21 H 1.75557 1.35037 1.48551 0
M  V30 22 H 3.77055 -0.959374 1.17975 0
M  V30 23 H 3.93484 0.438431 2.24972 0
M  V30 24 H 4.37637 0.244228 -0.608604 0
M  V30 25 H 4.77592 1.47136 0.477572 0
M  V30 26 H -0.403024 0.781722 1.74649 0
M  V30 27 H -4.8743 -0.306133 0.0209578 0
M  V30 28 H -4.58748 0.458956 -1.54976 0
M  V30 29 H -2.42758 -0.991067 -2.39695 0
M  V30 END ATOM
M  V30 BEGIN BOND
M  V30 1 1 1 2
M  V30 2 2 2 3
M  V30 3 1 3 4
M  V30 4 1 4 5
M  V30 5 1 5 6
M  V30 6 1 6 7
M  V30 7 1 3 8
M  V30 8 2 8 9
M  V30 9 1 9 10
M  V30 10 1 10 11
M  V30 11 2 10 12
M  V30 12 1 9 13
M  V30 13 1 13 14
M  V30 14 2 13 15
M  V30 15 1 12 2
M  V30 16 1 1 16
M  V30 17 1 1 17
M  V30 18 1 1 18
M  V30 19 1 4 19
M  V30 20 1 5 20
M  V30 21 1 5 21
M  V30 22 1 6 22
M  V30 23 1 6 23
M  V30 24 1 7 24
M  V30 25 1 7 25
M  V30 26 1 8 26
M  V30 27 1 11 27
M  V30 28 1 11 28
M  V30 29 1 12 29
M  V30 END BOND
M  V30 END CTAB
M  END
