
     RDKit          3D

  0  0  0  0  0  0  0  0  0  0999 V3000
M  V30 BEGIN CTAB
M  V30 COUNTS 20 20 0 0 0
M  V30 BEGIN ATOM
M  V30 1 F -3.04153 -1.77894 0.461012 0
M  V30 2 C -1.80282 -1.31342 0.150727 0
M  V30 3 C -0.797637 -2.21666 -0.129213 0
M  V30 4 C 0.456619 -1.73853 -0.443249 0
M  V30 5 C 0.675644 -0.358513 -0.469595 0
M  V30 6 C -0.346074 0.518786 -0.185946 0
M  V30 7 C -1.60818 0.0389218 0.13008 0
M  V30 8 N -2.64605 0.979655 0.419294 0
M  V30 9 N -0.121153 1.93487 -0.213027 0
M  V30 10 O 1.92159 0.124541 -0.781367 0
M  V30 11 C 2.95318 0.392004 0.113445 0
M  V30 12 F 4.03636 0.867459 -0.64033 0
M  V30 13 F 3.4033 -0.742705 0.7709 0
M  V30 14 F 2.62466 1.4001 0.984493 0
M  V30 15 H -0.949853 -3.28834 -0.113362 0
M  V30 16 H 1.28178 -2.42177 -0.671771 0
M  V30 17 H -2.3855 1.78974 1.02366 0
M  V30 18 H -3.60992 0.910046 0.0775409 0
M  V30 19 H -0.60107 2.57216 0.418828 0
M  V30 20 H 0.556649 2.33061 -0.902114 0
M  V30 END ATOM
M  V30 BEGIN BOND
M  V30 1 1 1 2
M  V30 2 2 2 3
M  V30 3 1 3 4
M  V30 4 2 4 5
M  V30 5 1 5 6
M  V30 6 2 6 7
M  V30 7 1 7 8
M  V30 8 1 6 9
M  V30 9 1 5 10
M  V30 10 1 10 11
M  V30 11 1 11 12
M  V30 12 1 11 13
M  V30 13 1 11 14
M  V30 14 1 7 2
M  V30 15 1 3 15
M  V30 16 1 4 16
M  V30 17 1 8 17
M  V30 18 1 8 18
M  V30 19 1 9 19
M  V30 20 1 9 20
M  V30 END BOND
M  V30 END CTAB
M  END
