
     RDKit          3D

  0  0  0  0  0  0  0  0  0  0999 V3000
M  V30 BEGIN CTAB
M  V30 COUNTS 19 18 0 0 0
M  V30 BEGIN ATOM
M  V30 1 O 1.65728 -0.220051 0.961538 0
M  V30 2 C 2.05331 -0.335631 -0.361091 0
M  V30 3 C 1.35081 0.651598 -1.26364 0
M  V30 4 C -0.130142 0.374431 -1.17361 0
M  V30 5 N -0.522923 0.552554 0.178453 0
M  V30 6 C -1.43757 -0.0686304 0.801359 0
M  V30 7 N -1.69849 0.23391 2.14862 0
M  V30 8 N -2.18394 -1.05619 0.13774 0
M  V30 9 F 1.8064 0.536247 -2.56145 0
M  V30 10 F 1.59029 1.9273 -0.75513 0
M  V30 11 H 1.95863 0.664238 1.31825 0
M  V30 12 H 1.93363 -1.37712 -0.710853 0
M  V30 13 H 3.15068 -0.0825913 -0.402295 0
M  V30 14 H -0.651519 1.04456 -1.88842 0
M  V30 15 H -0.306115 -0.658043 -1.54221 0
M  V30 16 H -1.42838 -0.450411 2.90737 0
M  V30 17 H -2.15556 1.11228 2.48732 0
M  V30 18 H -2.10549 -2.079 0.309517 0
M  V30 19 H -2.88089 -0.769454 -0.591458 0
M  V30 END ATOM
M  V30 BEGIN BOND
M  V30 1 1 1 2
M  V30 2 1 2 3
M  V30 3 1 3 4
M  V30 4 1 4 5
M  V30 5 2 5 6 CFG=2
M  V30 6 1 6 7
M  V30 7 1 6 8
M  V30 8 1 3 9
M  V30 9 1 3 10
M  V30 10 1 1 11
M  V30 11 1 2 12
M  V30 12 1 2 13
M  V30 13 1 4 14
M  V30 14 1 4 15
M  V30 15 1 7 16
M  V30 16 1 7 17
M  V30 17 1 8 18
M  V30 18 1 8 19
M  V30 END BOND
M  V30 END CTAB
M  END
