
     RDKit          3D

  0  0  0  0  0  0  0  0  0  0999 V3000
M  V30 BEGIN CTAB
M  V30 COUNTS 22 22 0 0 0
M  V30 BEGIN ATOM
M  V30 1 N 3.08267 0.378154 -1.19375 0
M  V30 2 C 2.78937 0.0923361 0.162146 0
M  V30 3 N 3.79194 0.275857 1.14808 0
M  V30 4 N 1.63191 -0.330261 0.516556 0
M  V30 5 N 0.658181 -0.504914 -0.466497 0
M  V30 6 C -0.587572 -0.399316 -0.233197 0
M  V30 7 C -1.20133 -0.0834297 1.07736 0
M  V30 8 C -2.70469 -0.0955775 0.82164 0
M  V30 9 C -2.75588 0.333203 -0.63063 0
M  V30 10 C -1.67045 -0.571008 -1.22417 0
M  V30 11 H 2.34638 0.70066 -1.87669 0
M  V30 12 H 4.04893 0.275023 -1.55553 0
M  V30 13 H 4.47369 -0.471981 1.39959 0
M  V30 14 H 3.87849 1.17644 1.65794 0
M  V30 15 H -0.931389 0.928213 1.44941 0
M  V30 16 H -0.921041 -0.817158 1.86207 0
M  V30 17 H -3.22204 0.611074 1.49511 0
M  V30 18 H -3.0687 -1.13273 0.89755 0
M  V30 19 H -2.39799 1.36212 -0.76893 0
M  V30 20 H -3.74053 0.140618 -1.09161 0
M  V30 21 H -1.39703 -0.272605 -2.23808 0
M  V30 22 H -2.10291 -1.59472 -1.20839 0
M  V30 END ATOM
M  V30 BEGIN BOND
M  V30 1 1 1 2
M  V30 2 1 2 3
M  V30 3 2 2 4
M  V30 4 1 4 5
M  V30 5 2 5 6
M  V30 6 1 6 7
M  V30 7 1 7 8
M  V30 8 1 8 9
M  V30 9 1 9 10
M  V30 10 1 10 6
M  V30 11 1 1 11
M  V30 12 1 1 12
M  V30 13 1 3 13
M  V30 14 1 3 14
M  V30 15 1 7 15
M  V30 16 1 7 16
M  V30 17 1 8 17
M  V30 18 1 8 18
M  V30 19 1 9 19
M  V30 20 1 9 20
M  V30 21 1 10 21
M  V30 22 1 10 22
M  V30 END BOND
M  V30 END CTAB
M  END
