
     RDKit          3D

  0  0  0  0  0  0  0  0  0  0999 V3000
M  V30 BEGIN CTAB
M  V30 COUNTS 25 25 0 0 0
M  V30 BEGIN ATOM
M  V30 1 N 2.41737 1.65916 0.26134 0
M  V30 2 C 2.48365 0.249552 0.405853 0
M  V30 3 N 3.54267 -0.246838 0.943577 0
M  V30 4 C 1.34581 -0.572114 -0.0628924 0
M  V30 5 O 1.16302 -0.364351 -1.42672 0
M  V30 6 C 0.191237 -1.28176 -1.82892 0
M  V30 7 C -1.12069 -0.769143 -1.28377 0
M  V30 8 N -1.10521 -0.714863 0.126922 0
M  V30 9 C 0.107586 -0.336657 0.746645 0
M  V30 10 S -2.48152 0.172193 0.668095 0
M  V30 11 O -2.42771 0.195689 2.16914 0
M  V30 12 O -3.72379 -0.519855 0.171039 0
M  V30 13 N -2.37609 1.78192 0.0423184 0
M  V30 14 H 2.09733 2.12284 -0.619181 0
M  V30 15 H 2.69088 2.31716 1.04421 0
M  V30 16 H 3.66356 -1.27248 1.0829 0
M  V30 17 H 1.6173 -1.66357 0.0401232 0
M  V30 18 H 0.120618 -1.33708 -2.92849 0
M  V30 19 H 0.373215 -2.26489 -1.34653 0
M  V30 20 H -1.3741 0.205207 -1.72463 0
M  V30 21 H -1.94558 -1.47512 -1.59373 0
M  V30 22 H 0.0906734 0.718904 1.14859 0
M  V30 23 H 0.226701 -0.966253 1.67885 0
M  V30 24 H -2.49908 2.49447 0.77156 0
M  V30 25 H -3.07784 1.86788 -0.730493 0
M  V30 END ATOM
M  V30 BEGIN BOND
M  V30 1 1 1 2
M  V30 2 2 2 3 CFG=2
M  V30 3 1 2 4
M  V30 4 1 4 5
M  V30 5 1 5 6
M  V30 6 1 6 7
M  V30 7 1 7 8
M  V30 8 1 8 9
M  V30 9 1 8 10
M  V30 10 2 10 11
M  V30 11 2 10 12
M  V30 12 1 10 13
M  V30 13 1 9 4
M  V30 14 1 1 14
M  V30 15 1 1 15
M  V30 16 1 3 16
M  V30 17 1 4 17
M  V30 18 1 6 18
M  V30 19 1 6 19
M  V30 20 1 7 20
M  V30 21 1 7 21
M  V30 22 1 9 22
M  V30 23 1 9 23
M  V30 24 1 13 24
M  V30 25 1 13 25
M  V30 END BOND
M  V30 END CTAB
M  END
