
     RDKit          3D

  0  0  0  0  0  0  0  0  0  0999 V3000
M  V30 BEGIN CTAB
M  V30 COUNTS 20 21 0 0 0
M  V30 BEGIN ATOM
M  V30 1 N -3.49485 2.1692 0.59684 0
M  V30 2 C -2.59057 1.14528 0.245427 0
M  V30 3 N -1.25639 1.2465 0.422056 0
M  V30 4 N -0.66392 0.123253 -0.00325423 0
M  V30 5 C -1.59757 -0.704237 -0.453142 0
M  V30 6 N -1.35029 -1.99115 -0.983429 0
M  V30 7 N -2.78584 -0.0627562 -0.294963 0
M  V30 8 C 0.751778 -0.0322749 0.0707872 0
M  V30 9 N 1.5349 0.250586 -0.989235 0
M  V30 10 C 2.87378 0.118862 -0.965055 0
M  V30 11 C 3.50039 -0.325257 0.187768 0
M  V30 12 C 2.70443 -0.61691 1.27757 0
M  V30 13 N 1.3685 -0.463657 1.18833 0
M  V30 14 H -3.65871 2.98247 -0.0360837 0
M  V30 15 H -4.00359 2.11007 1.4994 0
M  V30 16 H -1.54352 -2.82615 -0.40811 0
M  V30 17 H -0.970487 -2.06993 -1.96386 0
M  V30 18 H 3.44648 0.362835 -1.85102 0
M  V30 19 H 4.57665 -0.44612 0.251914 0
M  V30 20 H 3.15883 -0.970632 2.20806 0
M  V30 END ATOM
M  V30 BEGIN BOND
M  V30 1 1 1 2
M  V30 2 2 2 3
M  V30 3 1 3 4
M  V30 4 1 4 5
M  V30 5 1 5 6
M  V30 6 2 5 7
M  V30 7 1 4 8
M  V30 8 2 8 9
M  V30 9 1 9 10
M  V30 10 2 10 11
M  V30 11 1 11 12
M  V30 12 2 12 13
M  V30 13 1 7 2
M  V30 14 1 13 8
M  V30 15 1 1 14
M  V30 16 1 1 15
M  V30 17 1 6 16
M  V30 18 1 6 17
M  V30 19 1 10 18
M  V30 20 1 11 19
M  V30 21 1 12 20
M  V30 END BOND
M  V30 END CTAB
M  END
