
     RDKit          3D

  0  0  0  0  0  0  0  0  0  0999 V3000
M  V30 BEGIN CTAB
M  V30 COUNTS 55 57 0 0 0
M  V30 BEGIN ATOM
M  V30 1 C -4.98285 -1.51189 -1.70726 0
M  V30 2 C -5.37225 -1.03366 -0.294956 0
M  V30 3 C -4.74696 -2.03715 0.661019 0
M  V30 4 N -6.78768 -1.02659 -0.215985 0
M  V30 5 C -7.51424 0.00779155 0.0294673 0
M  V30 6 N -8.93454 -0.0354253 0.0987065 0
M  V30 7 N -6.90653 1.29026 0.251128 0
M  V30 8 C -5.62976 1.38063 0.199141 0
M  V30 9 N -4.97905 2.6618 0.418186 0
M  V30 10 N -4.81669 0.25619 -0.0689272 0
M  V30 11 C -3.37495 0.460341 -0.107262 0
M  V30 12 C -2.65151 0.320055 1.05019 0
M  V30 13 C -1.26346 0.506859 1.06056 0
M  V30 14 C -0.588926 0.837231 -0.0958841 0
M  V30 15 O 0.790059 1.02834 -0.112354 0
M  V30 16 C 1.56624 0.888911 1.07573 0
M  V30 17 C 3.02979 1.15102 0.770898 0
M  V30 18 C 3.84831 1.00744 2.00701 0
M  V30 19 O 5.18268 1.21681 1.77452 0
M  V30 20 C 5.99591 0.422714 1.00559 0
M  V30 21 C 5.62374 -0.739324 0.373134 0
M  V30 22 C 6.53806 -1.47072 -0.395094 0
M  V30 23 C 7.84572 -1.08229 -0.563416 0
M  V30 24 C 8.22058 0.0811796 0.070781 0
M  V30 25 C 7.3421 0.810064 0.825089 0
M  V30 26 S 8.98267 -1.9993 -1.52365 0
M  V30 27 F 9.7779 -3.13394 -0.585069 0
M  V30 28 O 9.98465 -1.08931 -2.17667 0
M  V30 29 O 8.27879 -2.7464 -2.63413 0
M  V30 30 C -1.32414 0.975802 -1.25279 0
M  V30 31 Cl -0.509743 1.3962 -2.75336 0
M  V30 32 C -2.71212 0.78893 -1.26278 0
M  V30 33 H -5.11605 -0.677279 -2.43853 0
M  V30 34 H -5.69274 -2.31076 -1.98687 0
M  V30 35 H -3.96406 -1.90239 -1.70455 0
M  V30 36 H -4.8334 -1.67698 1.70628 0
M  V30 37 H -3.67014 -2.09157 0.391258 0
M  V30 38 H -5.2438 -3.00968 0.506691 0
M  V30 39 H -9.43563 -0.428729 0.91769 0
M  V30 40 H -9.46696 0.349093 -0.717527 0
M  V30 41 H -4.62203 3.18794 -0.413686 0
M  V30 42 H -4.8643 3.05642 1.36526 0
M  V30 43 H -3.15616 0.0611206 1.97242 0
M  V30 44 H -0.688121 0.399238 1.96193 0
M  V30 45 H 1.48496 -0.146861 1.44271 0
M  V30 46 H 1.26379 1.58087 1.86365 0
M  V30 47 H 3.15309 2.23846 0.449907 0
M  V30 48 H 3.33251 0.569916 -0.0722901 0
M  V30 49 H 3.48164 1.72478 2.79188 0
M  V30 50 H 3.63136 -0.0067026 2.42241 0
M  V30 51 H 4.63156 -1.13164 0.473917 0
M  V30 52 H 6.223 -2.39386 -0.892585 0
M  V30 53 H 9.2604 0.406345 -0.0518117 0
M  V30 54 H 7.66344 1.72258 1.31374 0
M  V30 55 H -3.28413 0.897104 -2.16464 0
M  V30 END ATOM
M  V30 BEGIN BOND
M  V30 1 1 1 2
M  V30 2 1 2 3
M  V30 3 1 2 4
M  V30 4 2 4 5
M  V30 5 1 5 6
M  V30 6 1 5 7
M  V30 7 2 7 8
M  V30 8 1 8 9
M  V30 9 1 8 10
M  V30 10 1 10 11
M  V30 11 2 11 12
M  V30 12 1 12 13
M  V30 13 2 13 14
M  V30 14 1 14 15
M  V30 15 1 15 16
M  V30 16 1 16 17
M  V30 17 1 17 18
M  V30 18 1 18 19
M  V30 19 1 19 20
M  V30 20 2 20 21
M  V30 21 1 21 22
M  V30 22 2 22 23
M  V30 23 1 23 24
M  V30 24 2 24 25
M  V30 25 1 23 26
M  V30 26 1 26 27
M  V30 27 2 26 28
M  V30 28 2 26 29
M  V30 29 1 14 30
M  V30 30 1 30 31
M  V30 31 2 30 32
M  V30 32 1 10 2
M  V30 33 1 32 11
M  V30 34 1 25 20
M  V30 35 1 1 33
M  V30 36 1 1 34
M  V30 37 1 1 35
M  V30 38 1 3 36
M  V30 39 1 3 37
M  V30 40 1 3 38
M  V30 41 1 6 39
M  V30 42 1 6 40
M  V30 43 1 9 41
M  V30 44 1 9 42
M  V30 45 1 12 43
M  V30 46 1 13 44
M  V30 47 1 16 45
M  V30 48 1 16 46
M  V30 49 1 17 47
M  V30 50 1 17 48
M  V30 51 1 18 49
M  V30 52 1 18 50
M  V30 53 1 21 51
M  V30 54 1 22 52
M  V30 55 1 24 53
M  V30 56 1 25 54
M  V30 57 1 32 55
M  V30 END BOND
M  V30 END CTAB
M  END
