
     RDKit          3D

  0  0  0  0  0  0  0  0  0  0999 V3000
M  V30 BEGIN CTAB
M  V30 COUNTS 52 54 0 0 0
M  V30 BEGIN ATOM
M  V30 1 N -4.97989 0.18536 2.25115 0
M  V30 2 C -4.28281 0.697713 1.12347 0
M  V30 3 C -3.09619 0.0894338 0.653208 0
M  V30 4 C -2.40766 0.565212 -0.44017 0
M  V30 5 C -1.20759 -0.146469 -0.857276 0
M  V30 6 C 0.0666514 0.149234 -0.362564 0
M  V30 7 C 1.22892 -0.533973 -0.718433 0
M  V30 8 C 1.11523 -1.56692 -1.61701 0
M  V30 9 C -0.116963 -1.8758 -2.11681 0
M  V30 10 C -1.286 -1.18504 -1.75443 0
M  V30 11 N -2.49857 -1.62686 -2.32815 0 CHG=1
M  V30 12 O -2.66394 -2.98549 -2.63945 0 CHG=-1
M  V30 13 O -3.44151 -0.907834 -2.57704 0
M  V30 14 N 2.27203 -2.30935 -2.04454 0 CHG=1
M  V30 15 O 3.40376 -2.49223 -1.30982 0 CHG=-1
M  V30 16 O 2.2114 -2.81605 -3.17702 0
M  V30 17 C 2.49652 -0.226738 -0.108825 0
M  V30 18 C 2.85144 -0.746181 1.13969 0
M  V30 19 C 4.06481 -0.472088 1.73845 0
M  V30 20 N 4.369 -1.02601 3.00344 0
M  V30 21 C 4.97467 0.329574 1.12076 0
M  V30 22 C 4.6566 0.851671 -0.104574 0
M  V30 23 C 3.42115 0.566048 -0.70687 0
M  V30 24 N 3.22198 1.09478 -1.99379 0 CHG=1
M  V30 25 O 2.05476 1.41257 -2.58865 0 CHG=-1
M  V30 26 O 4.2556 1.30545 -2.70561 0
M  V30 27 N 6.25356 0.664962 1.68297 0 CHG=1
M  V30 28 O 7.28733 0.885891 0.806784 0 CHG=-1
M  V30 29 O 6.42255 0.749791 2.90627 0
M  V30 30 N 1.94621 -1.60342 1.81605 0 CHG=1
M  V30 31 O 2.15957 -2.95104 1.80815 0 CHG=-1
M  V30 32 O 0.985846 -1.14835 2.42524 0
M  V30 33 C -2.9317 1.67079 -1.05401 0
M  V30 34 C -4.1217 2.27726 -0.579983 0
M  V30 35 C -4.78046 1.79066 0.492537 0
M  V30 36 N -5.98045 2.41099 0.95692 0 CHG=1
M  V30 37 O -6.38279 2.3492 2.2595 0 CHG=-1
M  V30 38 O -6.66505 3.02019 0.112585 0
M  V30 39 N -2.30626 2.25356 -2.18252 0 CHG=1
M  V30 40 O -0.992512 2.16844 -2.39506 0 CHG=-1
M  V30 41 O -3.0814 2.8595 -2.98335 0
M  V30 42 N -2.69986 -1.01426 1.44387 0 CHG=1
M  V30 43 O -2.81497 -2.2829 0.982938 0 CHG=-1
M  V30 44 O -2.25507 -0.854243 2.60386 0
M  V30 45 H -4.76412 0.527216 3.20672 0
M  V30 46 H -5.7095 -0.534995 2.0997 0
M  V30 47 H 0.0860867 0.977002 0.343766 0
M  V30 48 H -0.193418 -2.70095 -2.83086 0
M  V30 49 H 4.84482 -1.95861 3.03521 0
M  V30 50 H 4.13109 -0.525225 3.88415 0
M  V30 51 H 5.36983 1.49678 -0.618522 0
M  V30 52 H -4.49105 3.14175 -1.10202 0
M  V30 END ATOM
M  V30 BEGIN BOND
M  V30 1 1 1 2
M  V30 2 2 2 3
M  V30 3 1 3 4
M  V30 4 1 4 5
M  V30 5 2 5 6
M  V30 6 1 6 7
M  V30 7 2 7 8
M  V30 8 1 8 9
M  V30 9 2 9 10
M  V30 10 1 10 11
M  V30 11 1 11 12
M  V30 12 2 11 13
M  V30 13 1 8 14
M  V30 14 1 14 15
M  V30 15 2 14 16
M  V30 16 1 7 17
M  V30 17 2 17 18
M  V30 18 1 18 19
M  V30 19 1 19 20
M  V30 20 2 19 21
M  V30 21 1 21 22
M  V30 22 2 22 23
M  V30 23 1 23 24
M  V30 24 1 24 25
M  V30 25 2 24 26
M  V30 26 1 21 27
M  V30 27 1 27 28
M  V30 28 2 27 29
M  V30 29 1 18 30
M  V30 30 1 30 31
M  V30 31 2 30 32
M  V30 32 2 4 33
M  V30 33 1 33 34
M  V30 34 2 34 35
M  V30 35 1 35 36
M  V30 36 1 36 37
M  V30 37 2 36 38
M  V30 38 1 33 39
M  V30 39 1 39 40
M  V30 40 2 39 41
M  V30 41 1 3 42
M  V30 42 1 42 43
M  V30 43 2 42 44
M  V30 44 1 35 2
M  V30 45 1 10 5
M  V30 46 1 23 17
M  V30 47 1 1 45
M  V30 48 1 1 46
M  V30 49 1 6 47
M  V30 50 1 9 48
M  V30 51 1 20 49
M  V30 52 1 20 50
M  V30 53 1 22 51
M  V30 54 1 34 52
M  V30 END BOND
M  V30 END CTAB
M  END
