
     RDKit          3D

  0  0  0  0  0  0  0  0  0  0999 V3000
M  V30 BEGIN CTAB
M  V30 COUNTS 41 41 0 0 0
M  V30 BEGIN ATOM
M  V30 1 N -0.799143 -2.35223 -1.81144 0
M  V30 2 C -1.40195 -1.05503 -1.611 0
M  V30 3 C -1.25882 -0.672431 -0.167443 0
M  V30 4 N 0.185072 -0.644225 0.122019 0
M  V30 5 C 1.1287 0.168452 -0.50285 0
M  V30 6 O 0.825462 0.974368 -1.39123 0
M  V30 7 C 2.53885 0.0845758 -0.109882 0
M  V30 8 C 3.06477 -0.99005 0.568197 0
M  V30 9 C 4.38809 -1.06427 0.943881 0
M  V30 10 C 5.24932 -0.0378816 0.644339 0
M  V30 11 C 4.71336 1.04281 -0.0396886 0
M  V30 12 C 3.40659 1.12836 -0.416738 0
M  V30 13 N 5.61265 2.11494 -0.352869 0
M  V30 14 C -1.84468 0.645406 0.172796 0
M  V30 15 C -3.29189 0.850933 -0.0752447 0
M  V30 16 C -3.57965 2.31468 0.357027 0
M  V30 17 C -4.25015 0.0336861 0.714907 0
M  V30 18 C -1.85772 -1.77196 0.709233 0
M  V30 19 H -1.42497 -3.13345 -1.51265 0
M  V30 20 H 0.167703 -2.42335 -1.44391 0
M  V30 21 H -2.46981 -1.17663 -1.91193 0
M  V30 22 H -0.954541 -0.333073 -2.27679 0
M  V30 23 H 0.48928 -1.3235 0.895395 0
M  V30 24 H 2.38797 -1.81392 0.805274 0
M  V30 25 H 4.74555 -1.93442 1.47571 0
M  V30 26 H 6.30792 -0.0602565 0.926159 0
M  V30 27 H 2.99438 1.9761 -0.951208 0
M  V30 28 H 5.81194 2.81243 0.370112 0
M  V30 29 H 6.03463 2.16495 -1.28047 0
M  V30 30 H -1.31509 1.43831 -0.4385 0
M  V30 31 H -1.56045 0.911916 1.22573 0
M  V30 32 H -3.50247 0.756126 -1.14116 0
M  V30 33 H -3.80969 2.36044 1.4302 0
M  V30 34 H -4.41586 2.73058 -0.224162 0
M  V30 35 H -2.69629 2.94645 0.169571 0
M  V30 36 H -5.25649 0.563537 0.609458 0
M  V30 37 H -4.07619 0.056474 1.81059 0
M  V30 38 H -4.43792 -0.981811 0.38609 0
M  V30 39 H -1.02463 -2.49931 0.990424 0
M  V30 40 H -2.24692 -1.42284 1.66157 0
M  V30 41 H -2.57693 -2.3849 0.164311 0
M  V30 END ATOM
M  V30 BEGIN BOND
M  V30 1 1 1 2
M  V30 2 1 2 3
M  V30 3 1 3 4
M  V30 4 1 4 5
M  V30 5 2 5 6
M  V30 6 1 5 7
M  V30 7 2 7 8
M  V30 8 1 8 9
M  V30 9 2 9 10
M  V30 10 1 10 11
M  V30 11 2 11 12
M  V30 12 1 11 13
M  V30 13 1 3 14
M  V30 14 1 14 15
M  V30 15 1 15 16
M  V30 16 1 15 17
M  V30 17 1 3 18
M  V30 18 1 12 7
M  V30 19 1 1 19
M  V30 20 1 1 20
M  V30 21 1 2 21
M  V30 22 1 2 22
M  V30 23 1 4 23
M  V30 24 1 8 24
M  V30 25 1 9 25
M  V30 26 1 10 26
M  V30 27 1 12 27
M  V30 28 1 13 28
M  V30 29 1 13 29
M  V30 30 1 14 30
M  V30 31 1 14 31
M  V30 32 1 15 32
M  V30 33 1 16 33
M  V30 34 1 16 34
M  V30 35 1 16 35
M  V30 36 1 17 36
M  V30 37 1 17 37
M  V30 38 1 17 38
M  V30 39 1 18 39
M  V30 40 1 18 40
M  V30 41 1 18 41
M  V30 END BOND
M  V30 END CTAB
M  END
