
     RDKit          3D

  0  0  0  0  0  0  0  0  0  0999 V3000
M  V30 BEGIN CTAB
M  V30 COUNTS 37 38 0 0 0
M  V30 BEGIN ATOM
M  V30 1 N 0.351706 -5.12239 -1.67151 0
M  V30 2 C 0.372791 -4.11028 -1.0776 0
M  V30 3 C 0.369419 -2.82319 -0.336138 0
M  V30 4 C 1.44365 -2.52532 0.327163 0
M  V30 5 N 1.7055 -1.38583 1.10463 0
M  V30 6 C 2.6265 -0.397625 0.640572 0
M  V30 7 C 3.24477 -0.572259 -0.558654 0
M  V30 8 C 4.15311 0.35117 -1.07056 0
M  V30 9 C 4.43521 1.4864 -0.330824 0
M  V30 10 C 3.79462 1.64725 0.890422 0
M  V30 11 C 2.90303 0.739728 1.3917 0
M  V30 12 Cl 2.09927 0.957639 2.94106 0
M  V30 13 N 5.34547 2.47061 -0.781522 0
M  V30 14 C -0.81656 -2.06492 -0.439843 0
M  V30 15 O -1.74091 -2.60871 -1.17827 0
M  V30 16 N -1.13092 -0.831669 0.13085 0
M  V30 17 C -2.37756 -0.141396 -0.0574125 0
M  V30 18 C -3.19885 -0.256462 -1.1305 0
M  V30 19 C -4.42048 0.44251 -1.20509 0
M  V30 20 C -4.82753 1.27156 -0.189737 0
M  V30 21 C -3.9926 1.3894 0.900345 0
M  V30 22 C -2.79696 0.708618 0.980203 0
M  V30 23 Cl -4.50562 2.44502 2.19727 0
M  V30 24 N -6.06121 1.97574 -0.267933 0
M  V30 25 H 2.26324 -3.2865 0.262724 0
M  V30 26 H 1.26345 -1.23359 2.03112 0
M  V30 27 H 3.05831 -1.43461 -1.16622 0
M  V30 28 H 4.64953 0.231939 -2.01121 0
M  V30 29 H 4.01179 2.54709 1.48734 0
M  V30 30 H 5.9498 2.9755 -0.0749057 0
M  V30 31 H 5.44219 2.71544 -1.77919 0
M  V30 32 H -0.424077 -0.353999 0.743865 0
M  V30 33 H -2.93284 -0.873693 -1.97638 0
M  V30 34 H -5.04871 0.333515 -2.06083 0
M  V30 35 H -2.1462 0.802995 1.8343 0
M  V30 36 H -6.99086 1.52056 -0.142767 0
M  V30 37 H -6.07146 3.00976 -0.460579 0
M  V30 END ATOM
M  V30 BEGIN BOND
M  V30 1 3 1 2
M  V30 2 1 2 3
M  V30 3 2 3 4
M  V30 4 1 4 5
M  V30 5 1 5 6
M  V30 6 2 6 7
M  V30 7 1 7 8
M  V30 8 2 8 9
M  V30 9 1 9 10
M  V30 10 2 10 11
M  V30 11 1 11 12
M  V30 12 1 9 13
M  V30 13 1 3 14
M  V30 14 2 14 15
M  V30 15 1 14 16
M  V30 16 1 16 17
M  V30 17 2 17 18
M  V30 18 1 18 19
M  V30 19 2 19 20
M  V30 20 1 20 21
M  V30 21 2 21 22
M  V30 22 1 21 23
M  V30 23 1 20 24
M  V30 24 1 11 6
M  V30 25 1 22 17
M  V30 26 1 4 25
M  V30 27 1 5 26
M  V30 28 1 7 27
M  V30 29 1 8 28
M  V30 30 1 10 29
M  V30 31 1 13 30
M  V30 32 1 13 31
M  V30 33 1 16 32
M  V30 34 1 18 33
M  V30 35 1 19 34
M  V30 36 1 22 35
M  V30 37 1 24 36
M  V30 38 1 24 37
M  V30 END BOND
M  V30 END CTAB
M  END
