
     RDKit          3D

  0  0  0  0  0  0  0  0  0  0999 V3000
M  V30 BEGIN CTAB
M  V30 COUNTS 25 24 0 0 0
M  V30 BEGIN ATOM
M  V30 1 C -0.078975 -1.44706 0.635475 0
M  V30 2 C -0.102822 -0.324179 -0.35695 0
M  V30 3 C -1.33675 0.540084 -0.227313 0
M  V30 4 O -1.29693 1.5572 -1.1766 0
M  V30 5 C -2.61224 -0.232611 -0.454167 0
M  V30 6 C -1.41935 1.19364 1.13627 0
M  V30 7 N 1.03131 0.513713 -0.140532 0
M  V30 8 C 2.24653 0.199009 -0.201052 0
M  V30 9 N 2.63251 -1.12103 -0.514505 0
M  V30 10 N 3.25653 1.15343 0.041899 0
M  V30 11 H 0.431756 -2.31187 0.163393 0
M  V30 12 H 0.510082 -1.20595 1.54563 0
M  V30 13 H -1.10286 -1.81165 0.905288 0
M  V30 14 H -0.133639 -0.767571 -1.37879 0
M  V30 15 H -1.80131 1.32684 -2.00088 0
M  V30 16 H -2.50126 -0.745772 -1.44216 0
M  V30 17 H -3.43042 0.514618 -0.529204 0
M  V30 18 H -2.85721 -0.931768 0.348816 0
M  V30 19 H -1.64296 0.41986 1.92177 0
M  V30 20 H -0.461802 1.7083 1.38938 0
M  V30 21 H -2.20374 1.97681 1.09745 0
M  V30 22 H 2.53534 -1.4651 -1.49288 0
M  V30 23 H 3.02209 -1.77895 0.223379 0
M  V30 24 H 4.19435 1.04809 -0.40574 0
M  V30 25 H 3.12177 1.99193 0.665253 0
M  V30 END ATOM
M  V30 BEGIN BOND
M  V30 1 1 1 2
M  V30 2 1 2 3
M  V30 3 1 3 4
M  V30 4 1 3 5
M  V30 5 1 3 6
M  V30 6 1 2 7
M  V30 7 2 7 8 CFG=2
M  V30 8 1 8 9
M  V30 9 1 8 10
M  V30 10 1 1 11
M  V30 11 1 1 12
M  V30 12 1 1 13
M  V30 13 1 2 14
M  V30 14 1 4 15
M  V30 15 1 5 16
M  V30 16 1 5 17
M  V30 17 1 5 18
M  V30 18 1 6 19
M  V30 19 1 6 20
M  V30 20 1 6 21
M  V30 21 1 9 22
M  V30 22 1 9 23
M  V30 23 1 10 24
M  V30 24 1 10 25
M  V30 END BOND
M  V30 END CTAB
M  END
