
     RDKit          3D

  0  0  0  0  0  0  0  0  0  0999 V3000
M  V30 BEGIN CTAB
M  V30 COUNTS 71 76 0 0 0
M  V30 BEGIN ATOM
M  V30 1 C 10.0181 -1.08102 -1.63858 0
M  V30 2 C 8.65942 -0.634741 -1.19049 0
M  V30 3 C 7.57302 -0.63596 -2.05566 0
M  V30 4 C 6.33798 -0.215364 -1.59672 0
M  V30 5 C 6.22625 0.193577 -0.287712 0
M  V30 6 C 7.30992 0.190431 0.559907 0
M  V30 7 C 8.56115 -0.225723 0.129176 0
M  V30 8 N 6.87578 0.634722 1.73506 0
M  V30 9 C 5.53952 0.928914 1.68274 0
M  V30 10 N 5.17785 0.645698 0.426821 0
M  V30 11 C 4.76008 1.45906 2.81027 0
M  V30 12 C 3.30845 1.57133 2.44784 0
M  V30 13 C 2.67543 0.277779 2.12624 0
M  V30 14 O 3.30456 -0.810808 2.25676 0
M  V30 15 N 1.33413 0.23361 1.66118 0
M  V30 16 C 0.695399 -1.02846 1.33938 0
M  V30 17 C -0.0801399 -0.931154 0.0623393 0
M  V30 18 C -0.954455 0.306945 0.014577 0
M  V30 19 C 0.00266282 1.48614 0.103344 0
M  V30 20 C 0.589758 1.44608 1.50594 0
M  V30 21 O -1.88388 0.351749 1.04022 0
M  V30 22 C -2.66085 -0.773517 1.02152 0
M  V30 23 C -3.50093 -0.922167 -0.256491 0 CFG=2
M  V30 24 C -3.22026 0.237116 -1.11527 0 CFG=2
M  V30 25 C -1.68742 0.345323 -1.26874 0
M  V30 26 C -3.65869 1.56794 -0.586199 0
M  V30 27 O -3.59205 0.0487314 -2.47305 0
M  V30 28 N -4.82949 -1.1875 0.14115 0
M  V30 29 C -5.09994 -1.98759 1.21867 0
M  V30 30 N -6.40876 -2.08814 1.39283 0
M  V30 31 C -7.04079 -1.3673 0.448382 0
M  V30 32 C -6.02686 -0.816647 -0.318221 0
M  V30 33 N -6.33543 -0.045375 -1.34156 0
M  V30 34 C -7.62023 0.201601 -1.63446 0
M  V30 35 N -8.02382 1.01961 -2.71877 0
M  V30 36 N -8.63501 -0.331734 -0.890844 0
M  V30 37 C -8.36844 -1.12528 0.163464 0
M  V30 38 N -9.37561 -1.70488 0.969945 0
M  V30 39 H 10.5427 -1.62184 -0.824202 0
M  V30 40 H 10.6154 -0.20214 -1.91356 0
M  V30 41 H 9.91645 -1.73566 -2.53029 0
M  V30 42 H 7.7315 -0.970048 -3.07184 0
M  V30 43 H 5.48178 -0.207737 -2.24967 0
M  V30 44 H 9.38038 -0.212855 0.822736 0
M  V30 45 H 4.20899 0.761519 0.0306264 0
M  V30 46 H 4.82802 0.807953 3.71649 0
M  V30 47 H 5.11979 2.48344 3.06994 0
M  V30 48 H 2.80145 2.07109 3.31457 0
M  V30 49 H 3.17056 2.30221 1.59898 0
M  V30 50 H 1.52923 -1.76562 1.15123 0
M  V30 51 H 0.116588 -1.44073 2.18822 0
M  V30 52 H -0.600099 -1.85544 -0.17417 0
M  V30 53 H 0.680087 -0.782515 -0.759741 0
M  V30 54 H 0.812151 1.27385 -0.652804 0
M  V30 55 H -0.444292 2.44221 -0.158252 0
M  V30 56 H 1.14428 2.35412 1.76206 0
M  V30 57 H -0.269783 1.3934 2.22034 0
M  V30 58 H -3.33698 -0.694941 1.9261 0
M  V30 59 H -2.06748 -1.70032 1.23025 0
M  V30 60 H -3.03999 -1.81558 -0.78288 0
M  V30 61 H -1.5407 1.28519 -1.86194 0
M  V30 62 H -1.35396 -0.489085 -1.94367 0
M  V30 63 H -2.82706 2.23607 -0.284338 0
M  V30 64 H -4.24302 2.16907 -1.34312 0
M  V30 65 H -4.27322 1.43173 0.350681 0
M  V30 66 H -3.8121 0.959828 -2.79269 0
M  V30 67 H -4.37918 -2.48995 1.86863 0
M  V30 68 H -8.91094 1.55812 -2.71118 0
M  V30 69 H -7.40351 1.07786 -3.54975 0
M  V30 70 H -9.40994 -1.55124 2.00052 0
M  V30 71 H -10.1135 -2.30494 0.541349 0
M  V30 END ATOM
M  V30 BEGIN BOND
M  V30 1 1 1 2
M  V30 2 2 2 3
M  V30 3 1 3 4
M  V30 4 2 4 5
M  V30 5 1 5 6
M  V30 6 2 6 7
M  V30 7 1 6 8
M  V30 8 2 8 9
M  V30 9 1 9 10
M  V30 10 1 9 11
M  V30 11 1 11 12
M  V30 12 1 12 13
M  V30 13 2 13 14
M  V30 14 1 13 15
M  V30 15 1 15 16
M  V30 16 1 16 17
M  V30 17 1 17 18
M  V30 18 1 18 19
M  V30 19 1 19 20
M  V30 20 1 18 21
M  V30 21 1 21 22
M  V30 22 1 22 23
M  V30 23 1 23 24
M  V30 24 1 24 25
M  V30 25 1 24 26
M  V30 26 1 24 27 CFG=3
M  V30 27 1 23 28
M  V30 28 1 28 29
M  V30 29 2 29 30
M  V30 30 1 30 31
M  V30 31 2 31 32
M  V30 32 1 32 33
M  V30 33 2 33 34
M  V30 34 1 34 35
M  V30 35 1 34 36
M  V30 36 2 36 37
M  V30 37 1 37 38
M  V30 38 1 7 2
M  V30 39 1 20 15
M  V30 40 1 32 28
M  V30 41 1 10 5
M  V30 42 1 25 18
M  V30 43 1 37 31
M  V30 44 1 1 39
M  V30 45 1 1 40
M  V30 46 1 1 41
M  V30 47 1 3 42
M  V30 48 1 4 43
M  V30 49 1 7 44
M  V30 50 1 10 45
M  V30 51 1 11 46
M  V30 52 1 11 47
M  V30 53 1 12 48
M  V30 54 1 12 49
M  V30 55 1 16 50
M  V30 56 1 16 51
M  V30 57 1 17 52
M  V30 58 1 17 53
M  V30 59 1 19 54
M  V30 60 1 19 55
M  V30 61 1 20 56
M  V30 62 1 20 57
M  V30 63 1 22 58
M  V30 64 1 22 59
M  V30 65 1 23 60 CFG=3
M  V30 66 1 25 61
M  V30 67 1 25 62
M  V30 68 1 26 63
M  V30 69 1 26 64
M  V30 70 1 26 65
M  V30 71 1 27 66
M  V30 72 1 29 67
M  V30 73 1 35 68
M  V30 74 1 35 69
M  V30 75 1 38 70
M  V30 76 1 38 71
M  V30 END BOND
M  V30 END CTAB
M  END
