
     RDKit          3D

  0  0  0  0  0  0  0  0  0  0999 V3000
M  V30 BEGIN CTAB
M  V30 COUNTS 35 36 0 0 0
M  V30 BEGIN ATOM
M  V30 1 C -5.37115 1.40868 1.53836 0
M  V30 2 C -4.69628 0.809828 0.757294 0
M  V30 3 C -3.8485 0.0941226 -0.188848 0
M  V30 4 N -2.81979 -0.654255 0.489293 0
M  V30 5 C -1.83137 0.16473 1.12761 0
M  V30 6 C -0.80525 0.724905 0.18048 0
M  V30 7 N -0.391076 -0.155048 -0.839162 0
M  V30 8 C -1.44446 -0.939327 -1.42995 0
M  V30 9 C -2.23797 -1.65755 -0.366948 0
M  V30 10 C 0.730082 -0.985436 -0.61189 0
M  V30 11 C 2.01305 -0.31933 -0.354354 0
M  V30 12 N 2.25003 0.99754 -0.468162 0
M  V30 13 C 3.4789 1.50382 -0.207016 0
M  V30 14 N 3.7575 2.8893 -0.320027 0
M  V30 15 N 4.48536 0.696185 0.172125 0
M  V30 16 C 4.2651 -0.611015 0.28899 0
M  V30 17 N 3.04824 -1.09595 0.028051 0
M  V30 18 N 5.28189 -1.53512 0.685741 0
M  V30 19 H -5.96384 1.94999 2.25465 0
M  V30 20 H -4.41457 -0.617662 -0.823594 0
M  V30 21 H -3.42409 0.855737 -0.884848 0
M  V30 22 H -1.30173 -0.470223 1.87232 0
M  V30 23 H -2.30885 0.985309 1.6769 0
M  V30 24 H 0.0274735 1.09469 0.802619 0
M  V30 25 H -1.23642 1.64316 -0.310394 0
M  V30 26 H -0.955167 -1.67276 -2.11864 0
M  V30 27 H -2.13921 -0.281596 -1.98484 0
M  V30 28 H -1.64079 -2.33073 0.248459 0
M  V30 29 H -3.05757 -2.23681 -0.831956 0
M  V30 30 H 0.594284 -1.74535 0.182134 0
M  V30 31 H 0.879787 -1.59389 -1.55192 0
M  V30 32 H 4.36414 3.35636 0.402379 0
M  V30 33 H 3.39416 3.48501 -1.08503 0
M  V30 34 H 5.32878 -1.87226 1.66657 0
M  V30 35 H 5.98932 -1.88508 0.00359576 0
M  V30 END ATOM
M  V30 BEGIN BOND
M  V30 1 3 1 2
M  V30 2 1 2 3
M  V30 3 1 3 4
M  V30 4 1 4 5
M  V30 5 1 5 6
M  V30 6 1 6 7
M  V30 7 1 7 8
M  V30 8 1 8 9
M  V30 9 1 7 10
M  V30 10 1 10 11
M  V30 11 2 11 12
M  V30 12 1 12 13
M  V30 13 1 13 14
M  V30 14 2 13 15
M  V30 15 1 15 16
M  V30 16 2 16 17
M  V30 17 1 16 18
M  V30 18 1 9 4
M  V30 19 1 17 11
M  V30 20 1 1 19
M  V30 21 1 3 20
M  V30 22 1 3 21
M  V30 23 1 5 22
M  V30 24 1 5 23
M  V30 25 1 6 24
M  V30 26 1 6 25
M  V30 27 1 8 26
M  V30 28 1 8 27
M  V30 29 1 9 28
M  V30 30 1 9 29
M  V30 31 1 10 30
M  V30 32 1 10 31
M  V30 33 1 14 32
M  V30 34 1 14 33
M  V30 35 1 18 34
M  V30 36 1 18 35
M  V30 END BOND
M  V30 END CTAB
M  END
