
     RDKit          3D

  0  0  0  0  0  0  0  0  0  0999 V3000
M  V30 BEGIN CTAB
M  V30 COUNTS 22 22 0 0 0
M  V30 BEGIN ATOM
M  V30 1 N 3.37708 -0.385506 0.525692 0
M  V30 2 C 2.23349 0.421622 0.337201 0
M  V30 3 N 1.86348 1.25239 1.26062 0
M  V30 4 C 1.42053 0.388816 -0.887697 0
M  V30 5 N 0.00369062 0.244655 -0.575729 0
M  V30 6 N -0.740683 1.0956 0.102017 0
M  V30 7 C -1.94447 0.64086 0.338909 0
M  V30 8 C -1.98184 -0.613065 -0.247044 0
M  V30 9 C -0.726571 -0.852666 -0.824327 0
M  V30 10 N -0.352788 -2.01311 -1.56752 0
M  V30 11 C -3.07809 1.23357 1.09412 0
M  V30 12 F -3.41771 2.50283 0.600794 0
M  V30 13 F -4.21955 0.440424 1.04225 0
M  V30 14 F -2.69821 1.31806 2.42154 0
M  V30 15 H 4.12233 -0.173512 1.26031 0
M  V30 16 H 3.54437 -1.25739 -0.0191343 0
M  V30 17 H 2.39819 1.35267 2.16333 0
M  V30 18 H 1.71076 -0.5861 -1.41145 0
M  V30 19 H 1.65252 1.20455 -1.56888 0
M  V30 20 H -2.79871 -1.31138 -0.274395 0
M  V30 21 H 0.0991019 -1.88098 -2.52695 0
M  V30 22 H -0.466927 -3.02235 -1.24367 0
M  V30 END ATOM
M  V30 BEGIN BOND
M  V30 1 1 1 2
M  V30 2 2 2 3 CFG=2
M  V30 3 1 2 4
M  V30 4 1 4 5
M  V30 5 1 5 6
M  V30 6 2 6 7
M  V30 7 1 7 8
M  V30 8 2 8 9
M  V30 9 1 9 10
M  V30 10 1 7 11
M  V30 11 1 11 12
M  V30 12 1 11 13
M  V30 13 1 11 14
M  V30 14 1 9 5
M  V30 15 1 1 15
M  V30 16 1 1 16
M  V30 17 1 3 17
M  V30 18 1 4 18
M  V30 19 1 4 19
M  V30 20 1 8 20
M  V30 21 1 10 21
M  V30 22 1 10 22
M  V30 END BOND
M  V30 END CTAB
M  END
