
     RDKit          3D

  0  0  0  0  0  0  0  0  0  0999 V3000
M  V30 BEGIN CTAB
M  V30 COUNTS 37 37 0 0 0
M  V30 BEGIN ATOM
M  V30 1 N -4.27446 -1.40805 0.0100213 0
M  V30 2 C -3.39069 -0.326918 0.433056 0
M  V30 3 C -2.38012 -0.10593 -0.635798 0
M  V30 4 C -1.404 0.998716 -0.32421 0
M  V30 5 C -0.400554 1.17979 -1.45123 0
M  V30 6 C 1.00677 1.30356 -0.931681 0
M  V30 7 C 1.35476 0.136477 -0.0718685 0
M  V30 8 C 0.415718 0.00196206 1.09432 0
M  V30 9 C -0.762381 0.928383 1.01299 0
M  V30 10 C 2.76469 0.143734 0.417487 0
M  V30 11 C 3.05974 -1.06051 1.28249 0
M  V30 12 C 3.78246 0.154249 -0.695591 0
M  V30 13 N -1.73208 -1.37112 -0.906927 0
M  V30 14 H -3.78175 -2.12817 -0.532742 0
M  V30 15 H -5.10038 -0.988596 -0.474425 0
M  V30 16 H -3.94254 0.609733 0.610871 0
M  V30 17 H -2.98472 -0.660491 1.41101 0
M  V30 18 H -2.92183 0.200528 -1.55629 0
M  V30 19 H -2.02501 1.94658 -0.327043 0
M  V30 20 H -0.597616 2.08881 -2.05758 0
M  V30 21 H -0.498674 0.321574 -2.15915 0
M  V30 22 H 1.08124 2.27542 -0.414148 0
M  V30 23 H 1.67898 1.26287 -1.832 0
M  V30 24 H 1.24989 -0.782893 -0.72053 0
M  V30 25 H 0.972373 0.266528 2.01681 0
M  V30 26 H 0.112998 -1.0567 1.20769 0
M  V30 27 H -1.49756 0.611152 1.76834 0
M  V30 28 H -0.447688 1.96031 1.34654 0
M  V30 29 H 2.95676 1.05004 1.03778 0
M  V30 30 H 3.67876 -1.80705 0.720109 0
M  V30 31 H 2.08284 -1.56133 1.50492 0
M  V30 32 H 3.53723 -0.779682 2.22126 0
M  V30 33 H 4.80608 0.246093 -0.281959 0
M  V30 34 H 3.65268 0.972648 -1.41178 0
M  V30 35 H 3.72607 -0.798908 -1.27069 0
M  V30 36 H -1.70928 -2.0082 -0.0988464 0
M  V30 37 H -2.06869 -1.81461 -1.79012 0
M  V30 END ATOM
M  V30 BEGIN BOND
M  V30 1 1 1 2
M  V30 2 1 2 3
M  V30 3 1 3 4
M  V30 4 1 4 5
M  V30 5 1 5 6
M  V30 6 1 6 7
M  V30 7 1 7 8
M  V30 8 1 8 9
M  V30 9 1 7 10
M  V30 10 1 10 11
M  V30 11 1 10 12
M  V30 12 1 3 13
M  V30 13 1 9 4
M  V30 14 1 1 14
M  V30 15 1 1 15
M  V30 16 1 2 16
M  V30 17 1 2 17
M  V30 18 1 3 18
M  V30 19 1 4 19
M  V30 20 1 5 20
M  V30 21 1 5 21
M  V30 22 1 6 22
M  V30 23 1 6 23
M  V30 24 1 7 24
M  V30 25 1 8 25
M  V30 26 1 8 26
M  V30 27 1 9 27
M  V30 28 1 9 28
M  V30 29 1 10 29
M  V30 30 1 11 30
M  V30 31 1 11 31
M  V30 32 1 11 32
M  V30 33 1 12 33
M  V30 34 1 12 34
M  V30 35 1 12 35
M  V30 36 1 13 36
M  V30 37 1 13 37
M  V30 END BOND
M  V30 END CTAB
M  END
