
     RDKit          3D

  0  0  0  0  0  0  0  0  0  0999 V3000
M  V30 BEGIN CTAB
M  V30 COUNTS 22 23 0 0 0
M  V30 BEGIN ATOM
M  V30 1 N -2.76861 1.71049 0.195613 0
M  V30 2 C -2.47355 0.288305 0.0585033 0
M  V30 3 C -3.52178 -0.583329 0.10492 0
M  V30 4 S -2.77323 -2.10378 -0.087645 0
M  V30 5 C -1.15313 -1.59832 -0.222004 0
M  V30 6 C -1.23826 -0.242133 -0.112078 0
M  V30 7 C -0.0178485 0.449052 -0.19021 0
M  V30 8 C 1.16235 -0.231149 -0.36609 0
M  V30 9 C 1.24516 -1.59976 -0.476695 0
M  V30 10 C 0.0386187 -2.29002 -0.399969 0
M  V30 11 S 2.70042 0.651661 -0.463649 0
M  V30 12 O 3.66397 -0.102772 -1.32643 0
M  V30 13 O 2.47215 2.00856 -1.08376 0
M  V30 14 N 3.38714 0.829047 1.10557 0
M  V30 15 H -3.18033 2.02078 1.09908 0
M  V30 16 H -2.57773 2.37281 -0.566167 0
M  V30 17 H -4.59187 -0.383269 0.23338 0
M  V30 18 H 0.0548107 1.52454 -0.117905 0
M  V30 19 H 2.184 -2.09153 -0.612945 0
M  V30 20 H 0.057651 -3.35218 -0.481025 0
M  V30 21 H 4.39863 1.07629 0.962083 0
M  V30 22 H 2.93145 1.64672 1.55879 0
M  V30 END ATOM
M  V30 BEGIN BOND
M  V30 1 1 1 2
M  V30 2 2 2 3
M  V30 3 1 3 4
M  V30 4 1 4 5
M  V30 5 2 5 6
M  V30 6 1 6 7
M  V30 7 2 7 8
M  V30 8 1 8 9
M  V30 9 2 9 10
M  V30 10 1 8 11
M  V30 11 2 11 12
M  V30 12 2 11 13
M  V30 13 1 11 14
M  V30 14 1 6 2
M  V30 15 1 10 5
M  V30 16 1 1 15
M  V30 17 1 1 16
M  V30 18 1 3 17
M  V30 19 1 7 18
M  V30 20 1 9 19
M  V30 21 1 10 20
M  V30 22 1 14 21
M  V30 23 1 14 22
M  V30 END BOND
M  V30 END CTAB
M  END
