
     RDKit          3D

  0  0  0  0  0  0  0  0  0  0999 V3000
M  V30 BEGIN CTAB
M  V30 COUNTS 26 26 0 0 0
M  V30 BEGIN ATOM
M  V30 1 C -2.93615 2.2036 0.258564 0
M  V30 2 S -1.16846 2.32576 0.465413 0
M  V30 3 C -0.273944 0.839405 0.182268 0
M  V30 4 C -0.823001 -0.369474 -0.176229 0
M  V30 5 N -2.23446 -0.467322 -0.343406 0
M  V30 6 C -0.0544878 -1.48989 -0.379757 0
M  V30 7 C -0.733096 -2.75956 -0.766494 0
M  V30 8 C 1.31398 -1.42462 -0.225488 0
M  V30 9 C 1.88896 -0.220329 0.134456 0
M  V30 10 C 3.3613 -0.161896 0.297464 0
M  V30 11 C 1.11556 0.897654 0.336888 0
M  V30 12 N 1.75823 2.10845 0.705324 0
M  V30 13 H -3.42742 1.45686 0.913571 0
M  V30 14 H -3.26119 2.06715 -0.811897 0
M  V30 15 H -3.43359 3.17797 0.547609 0
M  V30 16 H -2.62193 -0.183649 -1.26645 0
M  V30 17 H -2.87883 -0.801215 0.388499 0
M  V30 18 H -0.182267 -3.5692 -0.203834 0
M  V30 19 H -0.635668 -2.9901 -1.82958 0
M  V30 20 H -1.78436 -2.78445 -0.461608 0
M  V30 21 H 1.90172 -2.32775 -0.392755 0
M  V30 22 H 3.62107 -0.64616 1.24887 0
M  V30 23 H 3.74934 0.854994 0.175438 0
M  V30 24 H 3.7861 -0.82898 -0.508278 0
M  V30 25 H 2.53149 2.49843 0.149258 0
M  V30 26 H 1.4211 2.59431 1.56215 0
M  V30 END ATOM
M  V30 BEGIN BOND
M  V30 1 1 1 2
M  V30 2 1 2 3
M  V30 3 2 3 4
M  V30 4 1 4 5
M  V30 5 1 4 6
M  V30 6 1 6 7
M  V30 7 2 6 8
M  V30 8 1 8 9
M  V30 9 1 9 10
M  V30 10 2 9 11
M  V30 11 1 11 12
M  V30 12 1 11 3
M  V30 13 1 1 13
M  V30 14 1 1 14
M  V30 15 1 1 15
M  V30 16 1 5 16
M  V30 17 1 5 17
M  V30 18 1 7 18
M  V30 19 1 7 19
M  V30 20 1 7 20
M  V30 21 1 8 21
M  V30 22 1 10 22
M  V30 23 1 10 23
M  V30 24 1 10 24
M  V30 25 1 12 25
M  V30 26 1 12 26
M  V30 END BOND
M  V30 END CTAB
M  END
