
     RDKit          3D

  0  0  0  0  0  0  0  0  0  0999 V3000
M  V30 BEGIN CTAB
M  V30 COUNTS 17 18 0 0 0
M  V30 BEGIN ATOM
M  V30 1 N 3.06087 0.372957 -0.116569 0
M  V30 2 C 1.63815 0.225351 -0.0662228 0
M  V30 3 N 0.806694 1.27679 -0.0850866 0
M  V30 4 C -0.540588 1.13626 -0.0373786 0
M  V30 5 N -1.34489 2.30478 -0.0620626 0
M  V30 6 N -1.10144 -0.0788664 0.0315695 0
M  V30 7 C -0.315951 -1.17083 0.0535756 0
M  V30 8 C 1.05784 -1.04423 0.00563867 0
M  V30 9 Br 2.18227 -2.57878 0.035932 0
M  V30 10 N -1.1469 -2.2124 0.123525 0
M  V30 11 C -2.42877 -1.79933 0.145711 0
M  V30 12 N -2.3721 -0.438502 0.0862013 0
M  V30 13 H 3.49619 0.878428 0.690043 0
M  V30 14 H 3.64153 0.0158842 -0.882377 0
M  V30 15 H -1.56327 2.79277 0.829411 0
M  V30 16 H -1.72391 2.68885 -0.950208 0
M  V30 17 H -3.34574 -2.36912 0.198297 0
M  V30 END ATOM
M  V30 BEGIN BOND
M  V30 1 1 1 2
M  V30 2 1 2 3
M  V30 3 2 3 4
M  V30 4 1 4 5
M  V30 5 1 4 6
M  V30 6 1 6 7
M  V30 7 1 7 8
M  V30 8 1 8 9
M  V30 9 2 7 10
M  V30 10 1 10 11
M  V30 11 2 11 12
M  V30 12 2 8 2
M  V30 13 1 12 6
M  V30 14 1 1 13
M  V30 15 1 1 14
M  V30 16 1 5 15
M  V30 17 1 5 16
M  V30 18 1 11 17
M  V30 END BOND
M  V30 END CTAB
M  END
