
     RDKit          3D

  0  0  0  0  0  0  0  0  0  0999 V3000
M  V30 BEGIN CTAB
M  V30 COUNTS 62 66 0 0 0
M  V30 BEGIN ATOM
M  V30 1 C 7.25017 2.19458 1.55083 0
M  V30 2 C 6.05135 3.14589 1.50221 0
M  V30 3 C 5.08602 2.55366 0.544439 0
M  V30 4 C 5.1364 2.87195 -0.807969 0
M  V30 5 C 4.21255 2.29282 -1.66454 0
M  V30 6 C 3.25498 1.41587 -1.20206 0
M  V30 7 C 3.22863 1.11842 0.144369 0
M  V30 8 C 4.13673 1.68028 1.02238 0
M  V30 9 S 2.12149 0.730304 -2.37336 0
M  V30 10 C 0.952869 -0.383756 -1.59413 0
M  V30 11 C -0.257619 0.0870144 -1.08856 0
M  V30 12 S -0.57606 1.79054 -1.2466 0
M  V30 13 C -2.09122 2.40255 -0.627486 0
M  V30 14 C -3.16676 2.42917 -1.51152 0
M  V30 15 C -4.39201 2.9057 -1.11323 0
M  V30 16 C -4.60893 3.36879 0.150091 0
M  V30 17 C -3.52608 3.33318 1.01233 0
M  V30 18 C -2.29148 2.86521 0.649448 0
M  V30 19 C -5.93594 3.87589 0.553544 0
M  V30 20 C -6.80981 2.76753 1.11949 0
M  V30 21 C -1.10338 -0.818256 -0.506311 0
M  V30 22 N -2.36086 -0.478653 0.0499166 0
M  V30 23 C -0.780458 -2.1779 -0.412374 0
M  V30 24 C 0.429447 -2.57909 -0.930618 0
M  V30 25 C 1.3158 -1.71072 -1.52578 0
M  V30 26 N 2.56592 -2.17499 -2.05212 0
M  V30 27 C 0.773812 -4.01151 -0.833821 0
M  V30 28 O 1.88153 -4.37017 -1.30987 0
M  V30 29 C -0.131273 -4.9716 -0.212618 0
M  V30 30 C -1.34296 -4.55049 0.302797 0
M  V30 31 C -1.69955 -3.13817 0.21573 0
M  V30 32 O -2.79743 -2.75406 0.682286 0
M  V30 33 C -2.18853 -5.48162 0.889465 0
M  V30 34 C -1.87222 -6.82136 0.982785 0
M  V30 35 C -0.649802 -7.23979 0.461616 0
M  V30 36 C 0.182981 -6.30716 -0.119063 0
M  V30 37 H 8.00746 2.63929 2.20328 0
M  V30 38 H 7.67084 2.05069 0.54569 0
M  V30 39 H 6.92379 1.21726 1.94313 0
M  V30 40 H 6.39777 4.13186 1.12607 0
M  V30 41 H 5.57333 3.1986 2.48069 0
M  V30 42 H 5.87231 3.54913 -1.17921 0
M  V30 43 H 4.2511 2.54266 -2.73005 0
M  V30 44 H 2.4607 0.423654 0.473812 0
M  V30 45 H 4.05896 1.40064 2.07709 0
M  V30 46 H -3.0664 2.07552 -2.53498 0
M  V30 47 H -5.25228 2.93326 -1.80051 0
M  V30 48 H -3.68566 3.69776 2.01705 0
M  V30 49 H -1.44069 2.83447 1.31836 0
M  V30 50 H -6.46766 4.26984 -0.337458 0
M  V30 51 H -5.85061 4.72301 1.2638 0
M  V30 52 H -6.16355 2.0334 1.6409 0
M  V30 53 H -7.62776 3.15538 1.73202 0
M  V30 54 H -7.24887 2.23408 0.234212 0
M  V30 55 H -3.2192 -0.502187 -0.502683 0
M  V30 56 H -2.34481 -0.210855 1.06878 0
M  V30 57 H 2.69042 -2.48693 -3.03915 0
M  V30 58 H 3.39727 -2.20853 -1.43401 0
M  V30 59 H -3.14029 -5.12645 1.28975 0
M  V30 60 H -2.54798 -7.54118 1.44716 0
M  V30 61 H -0.393231 -8.28977 0.530504 0
M  V30 62 H 1.14673 -6.60465 -0.535969 0
M  V30 END ATOM
M  V30 BEGIN BOND
M  V30 1 1 1 2
M  V30 2 1 2 3
M  V30 3 2 3 4
M  V30 4 1 4 5
M  V30 5 2 5 6
M  V30 6 1 6 7
M  V30 7 2 7 8
M  V30 8 1 6 9
M  V30 9 1 9 10
M  V30 10 1 10 11
M  V30 11 1 11 12
M  V30 12 1 12 13
M  V30 13 2 13 14
M  V30 14 1 14 15
M  V30 15 2 15 16
M  V30 16 1 16 17
M  V30 17 2 17 18
M  V30 18 1 16 19
M  V30 19 1 19 20
M  V30 20 2 11 21
M  V30 21 1 21 22
M  V30 22 1 21 23
M  V30 23 2 23 24
M  V30 24 1 24 25
M  V30 25 1 25 26
M  V30 26 1 24 27
M  V30 27 2 27 28
M  V30 28 1 27 29
M  V30 29 2 29 30
M  V30 30 1 30 31
M  V30 31 2 31 32
M  V30 32 1 30 33
M  V30 33 2 33 34
M  V30 34 1 34 35
M  V30 35 2 35 36
M  V30 36 1 8 3
M  V30 37 2 25 10
M  V30 38 1 36 29
M  V30 39 1 18 13
M  V30 40 1 31 23
M  V30 41 1 1 37
M  V30 42 1 1 38
M  V30 43 1 1 39
M  V30 44 1 2 40
M  V30 45 1 2 41
M  V30 46 1 4 42
M  V30 47 1 5 43
M  V30 48 1 7 44
M  V30 49 1 8 45
M  V30 50 1 14 46
M  V30 51 1 15 47
M  V30 52 1 17 48
M  V30 53 1 18 49
M  V30 54 1 19 50
M  V30 55 1 19 51
M  V30 56 1 20 52
M  V30 57 1 20 53
M  V30 58 1 20 54
M  V30 59 1 22 55
M  V30 60 1 22 56
M  V30 61 1 26 57
M  V30 62 1 26 58
M  V30 63 1 33 59
M  V30 64 1 34 60
M  V30 65 1 35 61
M  V30 66 1 36 62
M  V30 END BOND
M  V30 END CTAB
M  END
