
     RDKit          3D

  0  0  0  0  0  0  0  0  0  0999 V3000
M  V30 BEGIN CTAB
M  V30 COUNTS 45 47 0 0 0
M  V30 BEGIN ATOM
M  V30 1 N -1.85195 -3.2214 -1.29896 0
M  V30 2 C -2.27809 -2.25509 -0.307581 0
M  V30 3 C -1.67643 -0.939297 -0.652237 0 CFG=2
M  V30 4 C -0.136735 -0.998872 -0.663617 0
M  V30 5 N 0.328947 0.271226 -0.233957 0
M  V30 6 C -0.872557 1.13029 -0.0815253 0
M  V30 7 C -1.84307 0.101423 0.4555 0 CFG=1
M  V30 8 C -3.21165 0.572623 0.585942 0
M  V30 9 C -3.86968 0.455994 1.79125 0
M  V30 10 C -5.18743 0.901044 1.94244 0
M  V30 11 C -5.8382 1.46384 0.873399 0
M  V30 12 C -5.18926 1.5851 -0.336038 0
M  V30 13 C -3.87753 1.13781 -0.472319 0
M  V30 14 C 1.60694 0.776119 0.0283899 0
M  V30 15 O 1.68234 2.02359 0.426904 0
M  V30 16 C 2.89886 0.129714 -0.070579 0
M  V30 17 C 3.09407 -1.1674 -0.479149 0
M  V30 18 C 4.36193 -1.74475 -0.562606 0
M  V30 19 F 4.51377 -3.02146 -0.967809 0
M  V30 20 C 5.44755 -0.992302 -0.22589 0
M  V30 21 C 5.30966 0.313117 0.190003 0
M  V30 22 C 4.04594 0.870651 0.267458 0
M  V30 23 N 3.91692 2.21764 0.698491 0
M  V30 24 N 6.43286 1.10051 0.540996 0 CHG=1
M  V30 25 O 6.44795 2.32724 0.35903 0
M  V30 26 O 7.51633 0.466579 1.09323 0 CHG=-1
M  V30 27 H -0.892927 -3.5617 -1.13574 0
M  V30 28 H -1.8599 -2.74797 -2.21995 0
M  V30 29 H -2.06599 -2.58612 0.720037 0
M  V30 30 H -3.38415 -2.15528 -0.433377 0
M  V30 31 H -2.05706 -0.543761 -1.59966 0
M  V30 32 H 0.10269 -1.84954 0.0114194 0
M  V30 33 H 0.198349 -1.291 -1.69985 0
M  V30 34 H -1.16833 1.45244 -1.08662 0
M  V30 35 H -0.6979 1.95572 0.609732 0
M  V30 36 H -1.42114 -0.321022 1.38824 0
M  V30 37 H -3.34438 0.0106254 2.62467 0
M  V30 38 H -5.7047 0.809482 2.88891 0
M  V30 39 H -6.86752 1.8088 0.999883 0
M  V30 40 H -5.70624 2.02274 -1.15364 0
M  V30 41 H -3.34798 1.22005 -1.4033 0
M  V30 42 H 2.27879 -1.79192 -0.754853 0
M  V30 43 H 6.43929 -1.43767 -0.289156 0
M  V30 44 H 3.95164 3.03258 0.0526665 0
M  V30 45 H 3.77597 2.46963 1.71769 0
M  V30 END ATOM
M  V30 BEGIN BOND
M  V30 1 1 1 2
M  V30 2 1 2 3
M  V30 3 1 3 4
M  V30 4 1 4 5
M  V30 5 1 5 6
M  V30 6 1 6 7
M  V30 7 1 7 8
M  V30 8 2 8 9
M  V30 9 1 9 10
M  V30 10 2 10 11
M  V30 11 1 11 12
M  V30 12 2 12 13
M  V30 13 1 5 14
M  V30 14 2 14 15
M  V30 15 1 14 16
M  V30 16 2 16 17
M  V30 17 1 17 18
M  V30 18 1 18 19
M  V30 19 2 18 20
M  V30 20 1 20 21
M  V30 21 2 21 22
M  V30 22 1 22 23
M  V30 23 1 21 24
M  V30 24 2 24 25
M  V30 25 1 24 26
M  V30 26 1 7 3
M  V30 27 1 13 8
M  V30 28 1 22 16
M  V30 29 1 1 27
M  V30 30 1 1 28
M  V30 31 1 2 29
M  V30 32 1 2 30
M  V30 33 1 3 31 CFG=3
M  V30 34 1 4 32
M  V30 35 1 4 33
M  V30 36 1 6 34
M  V30 37 1 6 35
M  V30 38 1 7 36 CFG=1
M  V30 39 1 9 37
M  V30 40 1 10 38
M  V30 41 1 11 39
M  V30 42 1 12 40
M  V30 43 1 13 41
M  V30 44 1 17 42
M  V30 45 1 20 43
M  V30 46 1 23 44
M  V30 47 1 23 45
M  V30 END BOND
M  V30 END CTAB
M  END
