
     RDKit          3D

  0  0  0  0  0  0  0  0  0  0999 V3000
M  V30 BEGIN CTAB
M  V30 COUNTS 49 50 0 0 0
M  V30 BEGIN ATOM
M  V30 1 C -4.06737 -0.646963 0.663917 0
M  V30 2 O -2.94338 -0.7049 -0.196057 0
M  V30 3 C -1.6617 -0.384248 0.227778 0
M  V30 4 C -0.867541 -1.38401 0.763582 0
M  V30 5 C 0.43361 -1.10236 1.20479 0
M  V30 6 C 0.982597 0.152594 1.13019 0
M  V30 7 C 2.34538 0.514258 1.55725 0
M  V30 8 C 3.32213 0.499424 0.441394 0
M  V30 9 C 3.62095 1.71861 -0.188316 0
M  V30 10 N 4.47769 1.75832 -1.23592 0
M  V30 11 C 5.07414 0.665829 -1.71847 0
M  V30 12 N 5.9715 0.680946 -2.8221 0
M  V30 13 N 4.80177 -0.525983 -1.12564 0
M  V30 14 C 3.94316 -0.614893 -0.0651035 0
M  V30 15 N 3.69981 -1.87867 0.541161 0
M  V30 16 C 0.155117 1.14614 0.58266 0
M  V30 17 C -1.12886 0.887135 0.14459 0
M  V30 18 N -1.91506 1.94627 -0.386705 0
M  V30 19 C -2.37657 2.98967 0.498196 0
M  V30 20 C -2.24815 1.99346 -1.75195 0
M  V30 21 C -3.06353 3.11125 -2.28483 0
M  V30 22 O -1.85816 1.09216 -2.52648 0
M  V30 23 N -1.42132 -2.68521 0.816781 0
M  V30 24 C -1.75322 -3.31473 -0.469316 0
M  V30 25 C -1.68899 -3.44469 2.00301 0
M  V30 26 H -4.583 0.3223 0.645149 0
M  V30 27 H -3.72053 -0.844699 1.71999 0
M  V30 28 H -4.8365 -1.41581 0.362493 0
M  V30 29 H 0.994468 -1.91572 1.63107 0
M  V30 30 H 2.32286 1.54471 2.02461 0
M  V30 31 H 2.71432 -0.133207 2.40169 0
M  V30 32 H 3.13105 2.60667 0.212402 0
M  V30 33 H 5.89866 1.37292 -3.6208 0
M  V30 34 H 6.74577 0.00719002 -2.89292 0
M  V30 35 H 3.57779 -1.87854 1.58709 0
M  V30 36 H 3.64627 -2.75313 -0.0222762 0
M  V30 37 H 0.584274 2.14697 0.518273 0
M  V30 38 H -3.49702 2.88395 0.556994 0
M  V30 39 H -2.12466 4.02171 0.130828 0
M  V30 40 H -2.00229 2.90748 1.53098 0
M  V30 41 H -3.74209 3.52443 -1.49675 0
M  V30 42 H -3.62431 2.72767 -3.148 0
M  V30 43 H -2.39916 3.97501 -2.57116 0
M  V30 44 H -1.0069 -4.14541 -0.649147 0
M  V30 45 H -1.73246 -2.56105 -1.25649 0
M  V30 46 H -2.72682 -3.83994 -0.395579 0
M  V30 47 H -0.91879 -4.22607 2.20682 0
M  V30 48 H -2.68182 -3.9567 1.81598 0
M  V30 49 H -1.85313 -2.84014 2.90436 0
M  V30 END ATOM
M  V30 BEGIN BOND
M  V30 1 1 1 2
M  V30 2 1 2 3
M  V30 3 2 3 4
M  V30 4 1 4 5
M  V30 5 2 5 6
M  V30 6 1 6 7
M  V30 7 1 7 8
M  V30 8 2 8 9
M  V30 9 1 9 10
M  V30 10 2 10 11
M  V30 11 1 11 12
M  V30 12 1 11 13
M  V30 13 2 13 14
M  V30 14 1 14 15
M  V30 15 1 6 16
M  V30 16 2 16 17
M  V30 17 1 17 18
M  V30 18 1 18 19
M  V30 19 1 18 20
M  V30 20 1 20 21
M  V30 21 2 20 22
M  V30 22 1 4 23
M  V30 23 1 23 24
M  V30 24 1 23 25
M  V30 25 1 17 3
M  V30 26 1 14 8
M  V30 27 1 1 26
M  V30 28 1 1 27
M  V30 29 1 1 28
M  V30 30 1 5 29
M  V30 31 1 7 30
M  V30 32 1 7 31
M  V30 33 1 9 32
M  V30 34 1 12 33
M  V30 35 1 12 34
M  V30 36 1 15 35
M  V30 37 1 15 36
M  V30 38 1 16 37
M  V30 39 1 19 38
M  V30 40 1 19 39
M  V30 41 1 19 40
M  V30 42 1 21 41
M  V30 43 1 21 42
M  V30 44 1 21 43
M  V30 45 1 24 44
M  V30 46 1 24 45
M  V30 47 1 24 46
M  V30 48 1 25 47
M  V30 49 1 25 48
M  V30 50 1 25 49
M  V30 END BOND
M  V30 END CTAB
M  END
