
     RDKit          3D

  0  0  0  0  0  0  0  0  0  0999 V3000
M  V30 BEGIN CTAB
M  V30 COUNTS 20 21 0 0 0
M  V30 BEGIN ATOM
M  V30 1 N -2.63294 -2.01214 1.05136 0
M  V30 2 C -1.86416 -0.873099 0.679489 0
M  V30 3 C -2.41054 0.108173 -0.127888 0
M  V30 4 C -1.65852 1.20188 -0.479305 0
M  V30 5 N -2.23965 2.20002 -1.31079 0
M  V30 6 N -0.382222 1.28796 -0.0164804 0
M  V30 7 C 0.159431 0.346321 0.76528 0
M  V30 8 N -0.592514 -0.714882 1.09727 0
M  V30 9 S 1.84242 0.591292 1.29708 0
M  V30 10 C 2.96885 -0.162141 0.0567651 0
M  V30 11 N 2.53517 -0.783083 -1.05119 0
M  V30 12 S 3.93774 -1.27463 -1.81834 0
M  V30 13 N 5.05547 -0.685122 -0.722013 0
M  V30 14 C 4.31094 -0.114536 0.224129 0
M  V30 15 Cl 5.13606 0.653755 1.61321 0
M  V30 16 H -3.65754 -2.01635 0.963212 0
M  V30 17 H -2.14258 -2.85473 1.41928 0
M  V30 18 H -3.44231 -0.02964 -0.461211 0
M  V30 19 H -2.95885 2.83746 -0.877619 0
M  V30 20 H -1.96425 2.2935 -2.30226 0
M  V30 END ATOM
M  V30 BEGIN BOND
M  V30 1 1 1 2
M  V30 2 2 2 3
M  V30 3 1 3 4
M  V30 4 1 4 5
M  V30 5 2 4 6
M  V30 6 1 6 7
M  V30 7 2 7 8
M  V30 8 1 7 9
M  V30 9 1 9 10
M  V30 10 2 10 11
M  V30 11 1 11 12
M  V30 12 1 12 13
M  V30 13 2 13 14
M  V30 14 1 14 15
M  V30 15 1 8 2
M  V30 16 1 14 10
M  V30 17 1 1 16
M  V30 18 1 1 17
M  V30 19 1 3 18
M  V30 20 1 5 19
M  V30 21 1 5 20
M  V30 END BOND
M  V30 END CTAB
M  END
