
     RDKit          3D

  0  0  0  0  0  0  0  0  0  0999 V3000
M  V30 BEGIN CTAB
M  V30 COUNTS 52 54 0 0 0
M  V30 BEGIN ATOM
M  V30 1 C -8.23485 -2.03107 0.570874 0
M  V30 2 C -6.8661 -1.65288 0.147696 0
M  V30 3 C -6.19136 -2.51694 -0.710077 0
M  V30 4 C -4.92253 -2.24734 -1.15055 0
M  V30 5 C -4.31301 -1.07642 -0.717031 0
M  V30 6 C -4.92494 -0.189089 0.125586 0
M  V30 7 C -6.21787 -0.522028 0.537787 0
M  V30 8 N -4.28384 0.968865 0.562432 0
M  V30 9 C -2.9332 1.30001 0.592155 0
M  V30 10 N -1.93114 0.514344 0.23461 0
M  V30 11 C -0.622617 0.794845 0.273797 0
M  V30 12 N 0.360787 -0.153709 -0.142845 0
M  V30 13 C 1.75918 0.159458 -0.0937192 0
M  V30 14 C 2.53671 -1.03718 -0.585424 0
M  V30 15 C 4.0044 -0.810779 -0.570439 0
M  V30 16 C 4.61562 -0.271803 -1.689 0
M  V30 17 C 5.99431 -0.0544645 -1.69366 0
M  V30 18 C 6.79029 -0.359478 -0.609933 0
M  V30 19 C 6.18251 -0.896804 0.505778 0
M  V30 20 C 4.80926 -1.11175 0.506301 0
M  V30 21 S 8.52699 -0.073959 -0.640168 0
M  V30 22 O 8.77055 1.1476 -1.45349 0
M  V30 23 O 8.98903 0.101386 0.80054 0
M  V30 24 N 9.38065 -1.4452 -1.25575 0
M  V30 25 N -0.265944 2.01735 0.728421 0
M  V30 26 C -1.2346 2.88856 1.11725 0
M  V30 27 C -2.57022 2.57084 1.06499 0
M  V30 28 N -3.53675 3.51564 1.4835 0 CHG=1
M  V30 29 O -4.27097 4.14987 0.706639 0
M  V30 30 O -3.67165 3.74636 2.82846 0 CHG=-1
M  V30 31 N -0.891027 4.19335 1.60015 0
M  V30 32 H -8.95262 -1.76082 -0.244997 0
M  V30 33 H -8.51401 -1.3696 1.43061 0
M  V30 34 H -8.30653 -3.10316 0.849038 0
M  V30 35 H -6.68701 -3.41668 -1.02978 0
M  V30 36 H -4.41622 -2.9509 -1.82989 0
M  V30 37 H -3.30541 -0.944884 -1.13415 0
M  V30 38 H -6.70486 0.169556 1.19913 0
M  V30 39 H -4.96797 1.72259 0.935415 0
M  V30 40 H 0.0187963 -1.07559 -0.481889 0
M  V30 41 H 1.9788 1.06199 -0.715426 0
M  V30 42 H 2.04279 0.378023 0.965525 0
M  V30 43 H 2.17182 -1.32069 -1.59716 0
M  V30 44 H 2.34311 -1.86442 0.160019 0
M  V30 45 H 4.00616 -0.0297599 -2.53963 0
M  V30 46 H 6.48425 0.368637 -2.56748 0
M  V30 47 H 6.81437 -1.13343 1.35216 0
M  V30 48 H 4.33224 -1.53293 1.38039 0
M  V30 49 H 9.09474 -1.67456 -2.2318 0
M  V30 50 H 9.27598 -2.23377 -0.589192 0
M  V30 51 H -0.654021 4.9709 0.980864 0
M  V30 52 H -0.892076 4.32369 2.63336 0
M  V30 END ATOM
M  V30 BEGIN BOND
M  V30 1 1 1 2
M  V30 2 2 2 3
M  V30 3 1 3 4
M  V30 4 2 4 5
M  V30 5 1 5 6
M  V30 6 2 6 7
M  V30 7 1 6 8
M  V30 8 1 8 9
M  V30 9 2 9 10
M  V30 10 1 10 11
M  V30 11 1 11 12
M  V30 12 1 12 13
M  V30 13 1 13 14
M  V30 14 1 14 15
M  V30 15 2 15 16
M  V30 16 1 16 17
M  V30 17 2 17 18
M  V30 18 1 18 19
M  V30 19 2 19 20
M  V30 20 1 18 21
M  V30 21 2 21 22
M  V30 22 2 21 23
M  V30 23 1 21 24
M  V30 24 2 11 25
M  V30 25 1 25 26
M  V30 26 2 26 27
M  V30 27 1 27 28
M  V30 28 2 28 29
M  V30 29 1 28 30
M  V30 30 1 26 31
M  V30 31 1 7 2
M  V30 32 1 27 9
M  V30 33 1 20 15
M  V30 34 1 1 32
M  V30 35 1 1 33
M  V30 36 1 1 34
M  V30 37 1 3 35
M  V30 38 1 4 36
M  V30 39 1 5 37
M  V30 40 1 7 38
M  V30 41 1 8 39
M  V30 42 1 12 40
M  V30 43 1 13 41
M  V30 44 1 13 42
M  V30 45 1 14 43
M  V30 46 1 14 44
M  V30 47 1 16 45
M  V30 48 1 17 46
M  V30 49 1 19 47
M  V30 50 1 20 48
M  V30 51 1 24 49
M  V30 52 1 24 50
M  V30 53 1 31 51
M  V30 54 1 31 52
M  V30 END BOND
M  V30 END CTAB
M  END
