
     RDKit          3D

  0  0  0  0  0  0  0  0  0  0999 V3000
M  V30 BEGIN CTAB
M  V30 COUNTS 20 20 0 0 0
M  V30 BEGIN ATOM
M  V30 1 N -4.85101 -0.878 -0.510639 0
M  V30 2 C -3.72184 -0.717312 -0.327263 0
M  V30 3 C -2.31411 -0.506609 -0.0762294 0
M  V30 4 C -1.62506 -1.42723 0.670391 0
M  V30 5 C -0.279575 -1.2374 0.917373 0
M  V30 6 C 0.415851 -0.152023 0.443512 0
M  V30 7 C -0.290383 0.761885 -0.303652 0
M  V30 8 C -1.65355 0.588294 -0.565291 0
M  V30 9 N 0.38147 1.90598 -0.819647 0
M  V30 10 S 2.11107 0.0875516 0.754475 0
M  V30 11 O 2.65513 -1.04469 1.57052 0
M  V30 12 O 2.36257 1.35061 1.52572 0
M  V30 13 N 2.96567 0.143216 -0.767763 0
M  V30 14 H -2.11973 -2.32269 1.08264 0
M  V30 15 H 0.289171 -1.95554 1.50821 0
M  V30 16 H -2.17711 1.33374 -1.16056 0
M  V30 17 H 0.399374 2.15135 -1.84051 0
M  V30 18 H 0.891874 2.5573 -0.19056 0
M  V30 19 H 2.58133 -0.643556 -1.35015 0
M  V30 20 H 3.97885 0.00511953 -0.56058 0
M  V30 END ATOM
M  V30 BEGIN BOND
M  V30 1 3 1 2
M  V30 2 1 2 3
M  V30 3 2 3 4
M  V30 4 1 4 5
M  V30 5 2 5 6
M  V30 6 1 6 7
M  V30 7 2 7 8
M  V30 8 1 7 9
M  V30 9 1 6 10
M  V30 10 2 10 11
M  V30 11 2 10 12
M  V30 12 1 10 13
M  V30 13 1 8 3
M  V30 14 1 4 14
M  V30 15 1 5 15
M  V30 16 1 8 16
M  V30 17 1 9 17
M  V30 18 1 9 18
M  V30 19 1 13 19
M  V30 20 1 13 20
M  V30 END BOND
M  V30 END CTAB
M  END
