
     RDKit          3D

  0  0  0  0  0  0  0  0  0  0999 V3000
M  V30 BEGIN CTAB
M  V30 COUNTS 76 79 0 0 0
M  V30 BEGIN ATOM
M  V30 1 C -0.491333 -2.76033 -1.29236 0 CFG=1
M  V30 2 C 0.295548 -2.43117 -2.52418 0
M  V30 3 C 1.28162 -1.32857 -2.07364 0
M  V30 4 C 1.02262 -1.33508 -0.57295 0 CFG=2
M  V30 5 N -0.383745 -1.50332 -0.578702 0
M  V30 6 C -1.38779 -0.699965 -0.0861526 0
M  V30 7 O -1.26147 0.534447 -0.305136 0
M  V30 8 C -2.60492 -1.0168 0.660448 0 CFG=1
M  V30 9 N -3.47706 0.170137 0.743638 0
M  V30 10 C -3.69481 0.836809 1.97061 0
M  V30 11 O -3.09946 0.361446 3.01735 0
M  V30 12 C -4.52199 2.01397 2.21409 0 CFG=1
M  V30 13 N -4.63682 2.29474 3.66186 0
M  V30 14 C -4.11059 3.28348 1.56646 0
M  V30 15 C -4.1007 3.17641 0.0721815 0
M  V30 16 C -3.42431 -2.13293 0.132134 0 CFG=1
M  V30 17 C -4.34412 -1.76851 -1.00456 0
M  V30 18 C -5.08883 -3.02575 -1.40324 0
M  V30 19 N -6.0178 -2.76876 -2.51418 0
M  V30 20 C -2.57338 -3.31779 -0.140527 0
M  V30 21 C -1.84068 -3.28469 -1.46089 0
M  V30 22 C 1.66781 -0.338768 0.20811 0
M  V30 23 O 1.08351 0.297211 1.10628 0
M  V30 24 N 3.03213 -0.0185212 -0.00511057 0
M  V30 25 C 3.74222 0.980889 0.758794 0
M  V30 26 C 4.94105 0.427582 1.43091 0
M  V30 27 C 6.15456 1.08389 1.4036 0
M  V30 28 C 7.27693 0.549543 2.04147 0
M  V30 29 C 7.20051 -0.647852 2.71507 0
M  V30 30 C 6.00114 -1.31332 2.75151 0
M  V30 31 C 4.91048 -0.766206 2.11516 0
M  V30 32 C 4.11347 2.1533 -0.0888977 0
M  V30 33 C 3.93185 3.44938 0.36079 0
M  V30 34 C 4.29756 4.49222 -0.48056 0
M  V30 35 C 4.82827 4.25512 -1.7319 0
M  V30 36 C 5.01158 2.96024 -2.18545 0
M  V30 37 C 4.64412 1.92789 -1.34019 0
M  V30 38 H 0.118965 -3.48416 -0.714606 0
M  V30 39 H 0.888561 -3.28906 -2.89037 0
M  V30 40 H -0.336538 -1.97597 -3.3077 0
M  V30 41 H 2.3115 -1.56844 -2.33448 0
M  V30 42 H 0.950895 -0.336001 -2.4395 0
M  V30 43 H 1.43463 -2.35549 -0.246288 0
M  V30 44 H -2.32107 -1.24115 1.70962 0
M  V30 45 H -3.93723 0.506162 -0.113223 0
M  V30 46 H -5.56707 1.76501 1.90626 0
M  V30 47 H -3.75991 2.02728 4.1453 0
M  V30 48 H -5.50451 1.93573 4.06931 0
M  V30 49 H -3.16038 3.69578 1.9748 0
M  V30 50 H -4.89905 4.05527 1.81045 0
M  V30 51 H -3.17021 2.71611 -0.257919 0
M  V30 52 H -4.99071 2.59425 -0.234441 0
M  V30 53 H -4.23291 4.20362 -0.367446 0
M  V30 54 H -4.12519 -2.43677 0.969851 0
M  V30 55 H -5.11518 -1.08302 -0.596172 0
M  V30 56 H -3.85996 -1.26878 -1.83525 0
M  V30 57 H -4.4469 -3.8499 -1.71467 0
M  V30 58 H -5.73348 -3.36975 -0.567539 0
M  V30 59 H -5.43184 -2.67855 -3.38054 0
M  V30 60 H -6.43677 -1.83671 -2.33006 0
M  V30 61 H -1.79404 -3.3834 0.657617 0
M  V30 62 H -3.17039 -4.26545 -0.0379351 0
M  V30 63 H -1.81743 -4.33207 -1.83073 0
M  V30 64 H -2.38179 -2.70457 -2.23795 0
M  V30 65 H 3.5474 -0.528997 -0.748588 0
M  V30 66 H 3.04106 1.38237 1.54791 0
M  V30 67 H 6.2448 2.01277 0.890858 0
M  V30 68 H 8.23235 1.04871 2.02968 0
M  V30 69 H 8.09599 -1.05751 3.21533 0
M  V30 70 H 5.95102 -2.26611 3.29 0
M  V30 71 H 3.9832 -1.29911 2.15398 0
M  V30 72 H 3.52014 3.64946 1.33137 0
M  V30 73 H 4.17565 5.51927 -0.175497 0
M  V30 74 H 5.10476 5.0651 -2.36679 0
M  V30 75 H 5.42268 2.72298 -3.15661 0
M  V30 76 H 4.79173 0.920736 -1.70437 0
M  V30 END ATOM
M  V30 BEGIN BOND
M  V30 1 1 1 2
M  V30 2 1 2 3
M  V30 3 1 3 4
M  V30 4 1 4 5
M  V30 5 1 5 6
M  V30 6 2 6 7
M  V30 7 1 6 8
M  V30 8 1 8 9
M  V30 9 1 9 10
M  V30 10 2 10 11
M  V30 11 1 10 12
M  V30 12 1 12 13
M  V30 13 1 12 14
M  V30 14 1 14 15
M  V30 15 1 8 16
M  V30 16 1 16 17
M  V30 17 1 17 18
M  V30 18 1 18 19
M  V30 19 1 16 20
M  V30 20 1 20 21
M  V30 21 1 4 22
M  V30 22 2 22 23
M  V30 23 1 22 24
M  V30 24 1 24 25
M  V30 25 1 25 26
M  V30 26 2 26 27
M  V30 27 1 27 28
M  V30 28 2 28 29
M  V30 29 1 29 30
M  V30 30 2 30 31
M  V30 31 1 25 32
M  V30 32 2 32 33
M  V30 33 1 33 34
M  V30 34 2 34 35
M  V30 35 1 35 36
M  V30 36 2 36 37
M  V30 37 1 5 1
M  V30 38 1 31 26
M  V30 39 1 37 32
M  V30 40 1 21 1
M  V30 41 1 1 38 CFG=1
M  V30 42 1 2 39
M  V30 43 1 2 40
M  V30 44 1 3 41
M  V30 45 1 3 42
M  V30 46 1 4 43 CFG=1
M  V30 47 1 8 44 CFG=1
M  V30 48 1 9 45
M  V30 49 1 12 46 CFG=3
M  V30 50 1 13 47
M  V30 51 1 13 48
M  V30 52 1 14 49
M  V30 53 1 14 50
M  V30 54 1 15 51
M  V30 55 1 15 52
M  V30 56 1 15 53
M  V30 57 1 16 54 CFG=1
M  V30 58 1 17 55
M  V30 59 1 17 56
M  V30 60 1 18 57
M  V30 61 1 18 58
M  V30 62 1 19 59
M  V30 63 1 19 60
M  V30 64 1 20 61
M  V30 65 1 20 62
M  V30 66 1 21 63
M  V30 67 1 21 64
M  V30 68 1 24 65
M  V30 69 1 25 66
M  V30 70 1 27 67
M  V30 71 1 28 68
M  V30 72 1 29 69
M  V30 73 1 30 70
M  V30 74 1 31 71
M  V30 75 1 33 72
M  V30 76 1 34 73
M  V30 77 1 35 74
M  V30 78 1 36 75
M  V30 79 1 37 76
M  V30 END BOND
M  V30 END CTAB
M  END
