
     RDKit          3D

  0  0  0  0  0  0  0  0  0  0999 V3000
M  V30 BEGIN CTAB
M  V30 COUNTS 29 28 0 0 0
M  V30 BEGIN ATOM
M  V30 1 N 4.84026 -0.559947 -0.605922 0
M  V30 2 C 4.00412 -0.69688 0.577022 0
M  V30 3 C 3.16823 0.549377 0.796301 0
M  V30 4 S 2.12099 0.778431 -0.670382 0
M  V30 5 C 0.918651 -0.585934 -0.73407 0
M  V30 6 C -0.0126523 -0.41511 0.453142 0
M  V30 7 C -0.697206 0.950231 0.300004 0
M  V30 8 S -1.65097 1.03876 -1.24358 0
M  V30 9 C -3.03631 -0.154241 -1.07486 0
M  V30 10 C -3.90904 0.432719 0.0411732 0
M  V30 11 N -5.0269 -0.446165 0.232055 0
M  V30 12 H 4.24901 -0.314265 -1.45673 0
M  V30 13 H 5.32583 -1.45335 -0.839057 0
M  V30 14 H 4.68812 -0.795925 1.44339 0
M  V30 15 H 3.37355 -1.60042 0.461566 0
M  V30 16 H 2.54948 0.37833 1.70738 0
M  V30 17 H 3.80029 1.45059 0.904673 0
M  V30 18 H 1.42015 -1.56536 -0.620142 0
M  V30 19 H 0.359895 -0.514579 -1.68661 0
M  V30 20 H 0.545052 -0.376813 1.39582 0
M  V30 21 H -0.789036 -1.18386 0.515065 0
M  V30 22 H 0.0962353 1.74096 0.314308 0
M  V30 23 H -1.38122 1.05644 1.16841 0
M  V30 24 H -2.6129 -1.13902 -0.787811 0
M  V30 25 H -3.60962 -0.203779 -2.00388 0
M  V30 26 H -4.18925 1.45675 -0.289552 0
M  V30 27 H -3.36774 0.526417 0.987577 0
M  V30 28 H -5.76451 -0.33655 -0.491039 0
M  V30 29 H -5.4125 -0.366426 1.20575 0
M  V30 END ATOM
M  V30 BEGIN BOND
M  V30 1 1 1 2
M  V30 2 1 2 3
M  V30 3 1 3 4
M  V30 4 1 4 5
M  V30 5 1 5 6
M  V30 6 1 6 7
M  V30 7 1 7 8
M  V30 8 1 8 9
M  V30 9 1 9 10
M  V30 10 1 10 11
M  V30 11 1 1 12
M  V30 12 1 1 13
M  V30 13 1 2 14
M  V30 14 1 2 15
M  V30 15 1 3 16
M  V30 16 1 3 17
M  V30 17 1 5 18
M  V30 18 1 5 19
M  V30 19 1 6 20
M  V30 20 1 6 21
M  V30 21 1 7 22
M  V30 22 1 7 23
M  V30 23 1 9 24
M  V30 24 1 9 25
M  V30 25 1 10 26
M  V30 26 1 10 27
M  V30 27 1 11 28
M  V30 28 1 11 29
M  V30 END BOND
M  V30 END CTAB
M  END
