
     RDKit          3D

  0  0  0  0  0  0  0  0  0  0999 V3000
M  V30 BEGIN CTAB
M  V30 COUNTS 15 14 0 0 0
M  V30 BEGIN ATOM
M  V30 1 N -2.39972 0.151604 0.0340179 0
M  V30 2 C -1.03619 0.515687 -0.274872 0
M  V30 3 C -0.12493 -0.552664 0.312256 0
M  V30 4 C 1.30324 -0.262474 0.0439679 0
M  V30 5 N 1.93826 0.91555 0.497499 0
M  V30 6 N 1.99919 -1.10838 -0.625864 0
M  V30 7 H -2.73151 0.537348 0.940783 0
M  V30 8 H -2.57202 -0.876235 -0.0590175 0
M  V30 9 H -0.889384 0.565672 -1.36671 0
M  V30 10 H -0.784686 1.48332 0.198374 0
M  V30 11 H -0.252833 -0.577691 1.41488 0
M  V30 12 H -0.441746 -1.51599 -0.081092 0
M  V30 13 H 1.83895 1.81006 -0.0241683 0
M  V30 14 H 2.51918 0.922226 1.3599 0
M  V30 15 H 1.63419 -2.00803 -1.00804 0
M  V30 END ATOM
M  V30 BEGIN BOND
M  V30 1 1 1 2
M  V30 2 1 2 3
M  V30 3 1 3 4
M  V30 4 1 4 5
M  V30 5 2 4 6 CFG=2
M  V30 6 1 1 7
M  V30 7 1 1 8
M  V30 8 1 2 9
M  V30 9 1 2 10
M  V30 10 1 3 11
M  V30 11 1 3 12
M  V30 12 1 5 13
M  V30 13 1 5 14
M  V30 14 1 6 15
M  V30 END BOND
M  V30 END CTAB
M  END
