
     RDKit          3D

  0  0  0  0  0  0  0  0  0  0999 V3000
M  V30 BEGIN CTAB
M  V30 COUNTS 35 37 0 0 0
M  V30 BEGIN ATOM
M  V30 1 N 6.70034 0.474231 -0.236089 0
M  V30 2 C 5.3096 0.231822 0.0123847 0
M  V30 3 N 4.35055 0.86675 -0.681542 0
M  V30 4 C 3.03437 0.672074 -0.483859 0
M  V30 5 C 2.68438 -0.238915 0.495616 0
M  V30 6 C 1.3558 -0.472193 0.734841 0
M  V30 7 C 0.364915 0.17251 0.0300857 0
M  V30 8 N -0.996807 -0.101587 0.313062 0
M  V30 9 C -2.0201 0.581882 -0.43393 0
M  V30 10 C -3.3968 0.206289 -0.0791085 0
M  V30 11 C -4.4222 1.10698 -0.32293 0
M  V30 12 C -5.71972 0.79121 -0.0112673 0
M  V30 13 C -6.05448 -0.431045 0.555235 0
M  V30 14 C -5.0315 -1.32206 0.795167 0
M  V30 15 C -3.71043 -1.00351 0.479014 0
M  V30 16 C 0.729603 1.07547 -0.940587 0
M  V30 17 C 2.05714 1.33296 -1.20595 0
M  V30 18 C 3.64094 -0.9203 1.23963 0
M  V30 19 N 3.24586 -1.8487 2.23747 0
M  V30 20 N 4.92529 -0.649561 0.959595 0
M  V30 21 H 7.41304 -0.089276 0.233634 0
M  V30 22 H 6.95111 1.22454 -0.894332 0
M  V30 23 H 1.09936 -1.1971 1.51445 0
M  V30 24 H -1.25914 -0.774788 1.04182 0
M  V30 25 H -1.82205 0.43224 -1.52982 0
M  V30 26 H -1.89124 1.68253 -0.206071 0
M  V30 27 H -4.21926 2.07147 -0.761591 0
M  V30 28 H -6.49703 1.52807 -0.219144 0
M  V30 29 H -7.0922 -0.635267 0.783971 0
M  V30 30 H -5.24897 -2.28915 1.23692 0
M  V30 31 H -2.973 -1.74195 0.688882 0
M  V30 32 H -0.0576077 1.57321 -1.48491 0
M  V30 33 H 2.34312 2.03788 -1.96372 0
M  V30 34 H 3.16799 -2.84609 2.01347 0
M  V30 35 H 3.03917 -1.50064 3.19014 0
M  V30 END ATOM
M  V30 BEGIN BOND
M  V30 1 1 1 2
M  V30 2 2 2 3
M  V30 3 1 3 4
M  V30 4 2 4 5
M  V30 5 1 5 6
M  V30 6 2 6 7
M  V30 7 1 7 8
M  V30 8 1 8 9
M  V30 9 1 9 10
M  V30 10 2 10 11
M  V30 11 1 11 12
M  V30 12 2 12 13
M  V30 13 1 13 14
M  V30 14 2 14 15
M  V30 15 1 7 16
M  V30 16 2 16 17
M  V30 17 1 5 18
M  V30 18 1 18 19
M  V30 19 2 18 20
M  V30 20 1 20 2
M  V30 21 1 17 4
M  V30 22 1 15 10
M  V30 23 1 1 21
M  V30 24 1 1 22
M  V30 25 1 6 23
M  V30 26 1 8 24
M  V30 27 1 9 25
M  V30 28 1 9 26
M  V30 29 1 11 27
M  V30 30 1 12 28
M  V30 31 1 13 29
M  V30 32 1 14 30
M  V30 33 1 15 31
M  V30 34 1 16 32
M  V30 35 1 17 33
M  V30 36 1 19 34
M  V30 37 1 19 35
M  V30 END BOND
M  V30 END CTAB
M  END
