
     RDKit          3D

  0  0  0  0  0  0  0  0  0  0999 V3000
M  V30 BEGIN CTAB
M  V30 COUNTS 22 22 0 0 0
M  V30 BEGIN ATOM
M  V30 1 F -0.972084 -2.48804 1.47414 0
M  V30 2 C -1.29453 -1.78164 0.366741 0
M  V30 3 C -0.63617 -0.513127 0.128451 0
M  V30 4 C -1.41293 0.639157 0.0931042 0
M  V30 5 N -2.8427 0.582174 0.277929 0
M  V30 6 C -0.904093 1.89919 -0.115045 0
M  V30 7 C 0.431102 2.03428 -0.297144 0
M  V30 8 C 1.22935 0.900529 -0.26639 0
M  V30 9 C 0.748678 -0.379204 -0.0593644 0
M  V30 10 C 1.63264 -1.53587 -0.0250803 0
M  V30 11 F 1.42649 -2.52294 -0.930635 0
M  V30 12 F 2.93074 -1.08758 -0.364023 0
M  V30 13 F 1.87498 -2.02435 1.27132 0
M  V30 14 N 2.63825 1.10177 -0.463388 0
M  V30 15 F -1.40894 -2.59093 -0.785343 0
M  V30 16 H -2.40468 -1.5627 0.537664 0
M  V30 17 H -3.25433 1.19695 1.02305 0
M  V30 18 H -3.46272 -0.018556 -0.273379 0
M  V30 19 H -1.52016 2.79082 -0.140545 0
M  V30 20 H 0.886563 2.99818 -0.464781 0
M  V30 21 H 3.21174 1.22831 0.39645 0
M  V30 22 H 3.10281 1.13357 -1.38373 0
M  V30 END ATOM
M  V30 BEGIN BOND
M  V30 1 1 1 2
M  V30 2 1 2 3
M  V30 3 2 3 4
M  V30 4 1 4 5
M  V30 5 1 4 6
M  V30 6 2 6 7
M  V30 7 1 7 8
M  V30 8 2 8 9
M  V30 9 1 9 10
M  V30 10 1 10 11
M  V30 11 1 10 12
M  V30 12 1 10 13
M  V30 13 1 8 14
M  V30 14 1 2 15
M  V30 15 1 9 3
M  V30 16 1 2 16
M  V30 17 1 5 17
M  V30 18 1 5 18
M  V30 19 1 6 19
M  V30 20 1 7 20
M  V30 21 1 14 21
M  V30 22 1 14 22
M  V30 END BOND
M  V30 END CTAB
M  END
