
     RDKit          3D

  0  0  0  0  0  0  0  0  0  0999 V3000
M  V30 BEGIN CTAB
M  V30 COUNTS 19 19 0 0 0
M  V30 BEGIN ATOM
M  V30 1 N -3.185 0.115852 1.46849 0
M  V30 2 N -1.88507 -0.300025 1.19673 0
M  V30 3 C -1.1901 0.317417 0.302603 0
M  V30 4 C 0.175406 -0.108129 0.00703799 0
M  V30 5 C 0.740476 -1.17082 0.675313 0
M  V30 6 C 2.03605 -1.54373 0.367352 0
M  V30 7 C 2.7874 -0.875184 -0.600264 0
M  V30 8 C 2.21422 0.188845 -1.26572 0
M  V30 9 C 0.920979 0.547136 -0.945873 0
M  V30 10 Br 3.21327 1.12378 -2.59329 0
M  V30 11 F 4.05453 -1.2696 -0.875007 0
M  V30 12 N -1.74571 1.42143 -0.407196 0
M  V30 13 H -3.8787 0.196245 0.694149 0
M  V30 14 H -3.50344 0.357615 2.44369 0
M  V30 15 H 0.159372 -1.70092 1.43533 0
M  V30 16 H 2.47849 -2.38699 0.900561 0
M  V30 17 H 0.481687 1.38197 -1.47315 0
M  V30 18 H -1.28683 2.34823 -0.320122 0
M  V30 19 H -2.58704 1.35688 -1.01063 0
M  V30 END ATOM
M  V30 BEGIN BOND
M  V30 1 1 1 2
M  V30 2 2 2 3 CFG=2
M  V30 3 1 3 4
M  V30 4 2 4 5
M  V30 5 1 5 6
M  V30 6 2 6 7
M  V30 7 1 7 8
M  V30 8 2 8 9
M  V30 9 1 8 10
M  V30 10 1 7 11
M  V30 11 1 3 12
M  V30 12 1 9 4
M  V30 13 1 1 13
M  V30 14 1 1 14
M  V30 15 1 5 15
M  V30 16 1 6 16
M  V30 17 1 9 17
M  V30 18 1 12 18
M  V30 19 1 12 19
M  V30 END BOND
M  V30 END CTAB
M  END
