
     RDKit          3D

  0  0  0  0  0  0  0  0  0  0999 V3000
M  V30 BEGIN CTAB
M  V30 COUNTS 31 32 0 0 0
M  V30 BEGIN ATOM
M  V30 1 N -4.39189 -2.64064 0.459577 0
M  V30 2 C -3.60372 -1.47133 0.309559 0
M  V30 3 C -2.2332 -1.56249 0.317817 0
M  V30 4 C -1.43303 -0.420016 0.171165 0
M  V30 5 C 0.014374 -0.537011 0.182562 0
M  V30 6 C 0.78225 0.506114 0.0484954 0
M  V30 7 C 2.23408 0.395422 0.0590919 0
M  V30 8 C 2.92061 -0.78403 0.20699 0
M  V30 9 C 4.32047 -0.822337 0.208559 0
M  V30 10 C 5.07559 0.318847 0.0621262 0
M  V30 11 O 6.46132 0.256015 0.0668395 0
M  V30 12 C 4.3908 1.5059 -0.0867411 0
M  V30 13 C 3.01671 1.54264 -0.0881717 0
M  V30 14 C -2.05185 0.790743 0.0192643 0
M  V30 15 C -3.44962 0.927812 0.00525921 0
M  V30 16 N -4.06718 2.19036 -0.153181 0
M  V30 17 C -4.1925 -0.216894 0.152057 0
M  V30 18 H -4.61112 -2.9677 1.41429 0
M  V30 19 H -4.72488 -3.13285 -0.385087 0
M  V30 20 H -1.73309 -2.52029 0.437952 0
M  V30 21 H 0.459455 -1.53851 0.308486 0
M  V30 22 H 0.386031 1.51618 -0.0786465 0
M  V30 23 H 2.40366 -1.71463 0.32617 0
M  V30 24 H 4.8513 -1.76858 0.327266 0
M  V30 25 H 7.03266 0.334893 0.894809 0
M  V30 26 H 4.99426 2.40482 -0.202089 0
M  V30 27 H 2.53157 2.50971 -0.209627 0
M  V30 28 H -1.52362 1.72915 -0.100881 0
M  V30 29 H -3.674 2.88031 -0.81858 0
M  V30 30 H -4.91383 2.45297 0.382809 0
M  V30 31 H -5.27163 -0.164553 0.148021 0
M  V30 END ATOM
M  V30 BEGIN BOND
M  V30 1 1 1 2
M  V30 2 2 2 3
M  V30 3 1 3 4
M  V30 4 1 4 5
M  V30 5 2 5 6
M  V30 6 1 6 7
M  V30 7 2 7 8
M  V30 8 1 8 9
M  V30 9 2 9 10
M  V30 10 1 10 11
M  V30 11 1 10 12
M  V30 12 2 12 13
M  V30 13 2 4 14
M  V30 14 1 14 15
M  V30 15 1 15 16
M  V30 16 2 15 17
M  V30 17 1 17 2
M  V30 18 1 13 7
M  V30 19 1 1 18
M  V30 20 1 1 19
M  V30 21 1 3 20
M  V30 22 1 5 21
M  V30 23 1 6 22
M  V30 24 1 8 23
M  V30 25 1 9 24
M  V30 26 1 11 25
M  V30 27 1 12 26
M  V30 28 1 13 27
M  V30 29 1 14 28
M  V30 30 1 16 29
M  V30 31 1 16 30
M  V30 32 1 17 31
M  V30 END BOND
M  V30 END CTAB
M  END
