
     RDKit          3D

  0  0  0  0  0  0  0  0  0  0999 V3000
M  V30 BEGIN CTAB
M  V30 COUNTS 48 49 0 0 0
M  V30 BEGIN ATOM
M  V30 1 C 4.80301 1.16251 0.00607951 0
M  V30 2 C 3.38374 1.07727 0.504391 0
M  V30 3 C 2.58638 0.0398068 -0.241277 0
M  V30 4 C 3.21294 -1.28922 -0.0710809 0
M  V30 5 C 2.32251 -2.32752 0.550417 0
M  V30 6 C 0.932911 -2.35512 0.00359778 0
M  V30 7 N 0.37245 -1.00486 -0.146072 0
M  V30 8 C 1.1595 0.107763 0.270859 0
M  V30 9 C -0.904282 -0.919656 -0.719345 0
M  V30 10 O -1.47246 -2.00275 -1.09601 0
M  V30 11 C -1.66839 0.320921 -0.930183 0
M  V30 12 C -2.60218 0.181961 -2.08746 0
M  V30 13 C -3.79228 -0.635087 -1.81303 0
M  V30 14 C -4.33962 -0.544177 -0.422112 0
M  V30 15 C -3.83385 0.608196 0.368619 0
M  V30 16 C -2.36349 0.868726 0.258494 0
M  V30 17 C -2.09012 2.36006 0.351006 0
M  V30 18 N -1.75755 0.279829 1.45132 0
M  V30 19 N 3.36714 0.876395 1.93402 0
M  V30 20 H 5.10171 2.19802 -0.24392 0
M  V30 21 H 5.52428 0.817921 0.803274 0
M  V30 22 H 4.95456 0.546883 -0.906727 0
M  V30 23 H 2.91941 2.08232 0.32348 0
M  V30 24 H 2.62195 0.334028 -1.31656 0
M  V30 25 H 4.10824 -1.20922 0.590972 0
M  V30 26 H 3.6198 -1.64671 -1.0485 0
M  V30 27 H 2.78447 -3.32003 0.336736 0
M  V30 28 H 2.2853 -2.24246 1.65709 0
M  V30 29 H 0.303778 -2.95907 0.68766 0
M  V30 30 H 0.948816 -2.82051 -0.99717 0
M  V30 31 H 1.27233 0.20578 1.37872 0
M  V30 32 H 0.752683 1.06959 -0.0873412 0
M  V30 33 H -0.900585 1.08082 -1.26147 0
M  V30 34 H -2.00762 -0.333696 -2.90182 0
M  V30 35 H -2.85812 1.16698 -2.5467 0
M  V30 36 H -4.59507 -0.274686 -2.53455 0
M  V30 37 H -3.63573 -1.68151 -2.13829 0
M  V30 38 H -4.10449 -1.51242 0.0715906 0
M  V30 39 H -5.4449 -0.510421 -0.485395 0
M  V30 40 H -4.34548 1.53506 0.0317709 0
M  V30 41 H -4.12814 0.477517 1.42908 0
M  V30 42 H -2.01644 2.62735 1.40847 0
M  V30 43 H -1.11702 2.54085 -0.147078 0
M  V30 44 H -2.91265 2.88818 -0.178197 0
M  V30 45 H -2.03684 0.854474 2.27637 0
M  V30 46 H -2.21147 -0.671031 1.58307 0
M  V30 47 H 4.09183 0.166248 2.25059 0
M  V30 48 H 3.70904 1.78466 2.37021 0
M  V30 END ATOM
M  V30 BEGIN BOND
M  V30 1 1 1 2
M  V30 2 1 2 3
M  V30 3 1 3 4
M  V30 4 1 4 5
M  V30 5 1 5 6
M  V30 6 1 6 7
M  V30 7 1 7 8
M  V30 8 1 7 9
M  V30 9 2 9 10
M  V30 10 1 9 11
M  V30 11 1 11 12
M  V30 12 1 12 13
M  V30 13 1 13 14
M  V30 14 1 14 15
M  V30 15 1 15 16
M  V30 16 1 16 17
M  V30 17 1 16 18
M  V30 18 1 2 19
M  V30 19 1 8 3
M  V30 20 1 16 11
M  V30 21 1 1 20
M  V30 22 1 1 21
M  V30 23 1 1 22
M  V30 24 1 2 23
M  V30 25 1 3 24
M  V30 26 1 4 25
M  V30 27 1 4 26
M  V30 28 1 5 27
M  V30 29 1 5 28
M  V30 30 1 6 29
M  V30 31 1 6 30
M  V30 32 1 8 31
M  V30 33 1 8 32
M  V30 34 1 11 33
M  V30 35 1 12 34
M  V30 36 1 12 35
M  V30 37 1 13 36
M  V30 38 1 13 37
M  V30 39 1 14 38
M  V30 40 1 14 39
M  V30 41 1 15 40
M  V30 42 1 15 41
M  V30 43 1 17 42
M  V30 44 1 17 43
M  V30 45 1 17 44
M  V30 46 1 18 45
M  V30 47 1 18 46
M  V30 48 1 19 47
M  V30 49 1 19 48
M  V30 END BOND
M  V30 END CTAB
M  END
