
     RDKit          3D

  0  0  0  0  0  0  0  0  0  0999 V3000
M  V30 BEGIN CTAB
M  V30 COUNTS 25 25 0 0 0
M  V30 BEGIN ATOM
M  V30 1 N 3.54272 -0.667367 0.114182 0
M  V30 2 C 2.0978 -0.819833 0.0428886 0
M  V30 3 C 1.49664 0.553177 0.0961675 0
M  V30 4 C 0.0359092 0.56755 0.0337528 0
M  V30 5 C -0.606663 1.77855 -0.112048 0
M  V30 6 C -1.98443 1.88242 -0.179816 0
M  V30 7 C -2.73658 0.733484 -0.0983778 0
M  V30 8 C -2.13533 -0.510326 0.0489252 0
M  V30 9 C -0.750045 -0.562194 0.111895 0
M  V30 10 C -2.97022 -1.74835 0.135655 0
M  V30 11 F -4.10055 0.784878 -0.160375 0
M  V30 12 N 2.0817 1.39097 -0.905812 0
M  V30 13 H 3.99958 -1.33941 0.734543 0
M  V30 14 H 3.92099 -0.624268 -0.853449 0
M  V30 15 H 1.87937 -1.36297 -0.884462 0
M  V30 16 H 1.78064 -1.44896 0.899686 0
M  V30 17 H 1.79085 0.990217 1.09346 0
M  V30 18 H -0.0203518 2.67667 -0.175769 0
M  V30 19 H -2.50334 2.82386 -0.293995 0
M  V30 20 H -0.279875 -1.53006 0.226635 0
M  V30 21 H -2.29622 -2.58821 -0.133829 0
M  V30 22 H -3.84629 -1.67459 -0.566162 0
M  V30 23 H -3.35613 -1.81263 1.17103 0
M  V30 24 H 1.86584 0.973599 -1.83836 0
M  V30 25 H 3.09399 1.53379 -0.731122 0
M  V30 END ATOM
M  V30 BEGIN BOND
M  V30 1 1 1 2
M  V30 2 1 2 3
M  V30 3 1 3 4
M  V30 4 2 4 5
M  V30 5 1 5 6
M  V30 6 2 6 7
M  V30 7 1 7 8
M  V30 8 2 8 9
M  V30 9 1 8 10
M  V30 10 1 7 11
M  V30 11 1 3 12
M  V30 12 1 9 4
M  V30 13 1 1 13
M  V30 14 1 1 14
M  V30 15 1 2 15
M  V30 16 1 2 16
M  V30 17 1 3 17
M  V30 18 1 5 18
M  V30 19 1 6 19
M  V30 20 1 9 20
M  V30 21 1 10 21
M  V30 22 1 10 22
M  V30 23 1 10 23
M  V30 24 1 12 24
M  V30 25 1 12 25
M  V30 END BOND
M  V30 END CTAB
M  END
