
     RDKit          3D

  0  0  0  0  0  0  0  0  0  0999 V3000
M  V30 BEGIN CTAB
M  V30 COUNTS 38 40 0 0 0
M  V30 BEGIN ATOM
M  V30 1 O 0.055913 0.268042 -1.72476 0
M  V30 2 C -0.483133 0.998372 -0.820538 0
M  V30 3 C -0.206249 2.41681 -0.498803 0
M  V30 4 C -0.829715 2.60146 0.855027 0
M  V30 5 C -1.27078 1.23168 1.31975 0
M  V30 6 N -1.49174 0.542722 0.0695093 0
M  V30 7 C -2.53269 -0.407346 -0.196129 0
M  V30 8 C -2.301 -1.513 -0.970328 0
M  V30 9 C -3.3307 -2.39491 -1.19754 0
M  V30 10 C -4.609 -2.20254 -0.665103 0
M  V30 11 C -4.83349 -1.08657 0.113194 0
M  V30 12 C -3.78122 -0.190609 0.342114 0
M  V30 13 S 1.44852 2.96172 -0.667391 0
M  V30 14 C 2.69586 2.36986 0.403972 0
M  V30 15 C 2.95818 0.92651 0.204477 0
M  V30 16 N 3.85129 0.485195 -0.706153 0
M  V30 17 C 4.1336 -0.81047 -0.915432 0
M  V30 18 N 5.08164 -1.21112 -1.88433 0
M  V30 19 N 3.47456 -1.69916 -0.160785 0
M  V30 20 C 2.56964 -1.34372 0.768121 0
M  V30 21 N 2.33539 -0.0235437 0.925233 0
M  V30 22 N 1.89445 -2.31811 1.54348 0
M  V30 23 H -0.83697 2.98869 -1.25094 0
M  V30 24 H -0.197392 3.12979 1.58688 0
M  V30 25 H -1.76867 3.2038 0.764194 0
M  V30 26 H -0.445071 0.717927 1.85643 0
M  V30 27 H -2.19029 1.28681 1.94091 0
M  V30 28 H -1.34086 -1.7351 -1.41981 0
M  V30 29 H -3.13096 -3.2627 -1.8113 0
M  V30 30 H -5.39331 -2.93246 -0.875294 0
M  V30 31 H -5.82346 -0.928906 0.530797 0
M  V30 32 H -4.03298 0.653577 0.95723 0
M  V30 33 H 2.53884 2.51637 1.49009 0
M  V30 34 H 3.66204 2.90041 0.182726 0
M  V30 35 H 5.91469 -0.641118 -2.0957 0
M  V30 36 H 4.93792 -2.0988 -2.39583 0
M  V30 37 H 1.69913 -2.21617 2.5565 0
M  V30 38 H 1.578 -3.1834 1.06593 0
M  V30 END ATOM
M  V30 BEGIN BOND
M  V30 1 2 1 2
M  V30 2 1 2 3
M  V30 3 1 3 4
M  V30 4 1 4 5
M  V30 5 1 5 6
M  V30 6 1 6 7
M  V30 7 2 7 8
M  V30 8 1 8 9
M  V30 9 2 9 10
M  V30 10 1 10 11
M  V30 11 2 11 12
M  V30 12 1 3 13
M  V30 13 1 13 14
M  V30 14 1 14 15
M  V30 15 2 15 16
M  V30 16 1 16 17
M  V30 17 1 17 18
M  V30 18 2 17 19
M  V30 19 1 19 20
M  V30 20 2 20 21
M  V30 21 1 20 22
M  V30 22 1 6 2
M  V30 23 1 12 7
M  V30 24 1 21 15
M  V30 25 1 3 23
M  V30 26 1 4 24
M  V30 27 1 4 25
M  V30 28 1 5 26
M  V30 29 1 5 27
M  V30 30 1 8 28
M  V30 31 1 9 29
M  V30 32 1 10 30
M  V30 33 1 11 31
M  V30 34 1 12 32
M  V30 35 1 14 33
M  V30 36 1 14 34
M  V30 37 1 18 35
M  V30 38 1 18 36
M  V30 39 1 22 37
M  V30 40 1 22 38
M  V30 END BOND
M  V30 END CTAB
M  END
