
     RDKit          3D

  0  0  0  0  0  0  0  0  0  0999 V3000
M  V30 BEGIN CTAB
M  V30 COUNTS 30 30 0 0 0
M  V30 BEGIN ATOM
M  V30 1 C 2.75504 -2.70839 -0.153607 0
M  V30 2 O 2.4253 -1.38432 -0.248011 0
M  V30 3 C 1.2344 -0.762151 -0.0370733 0
M  V30 4 C 0.0382481 -1.41499 0.311123 0
M  V30 5 C -1.12384 -0.77186 0.537033 0
M  V30 6 C -2.34483 -1.46878 0.991672 0
M  V30 7 N -3.04777 -2.15886 -0.113449 0
M  V30 8 C -1.11343 0.622323 0.403392 0
M  V30 9 O -2.32157 1.2176 0.614547 0
M  V30 10 C -2.62627 2.53427 0.556853 0
M  V30 11 C 0.02867 1.27052 0.0652889 0
M  V30 12 C 1.22279 0.632438 -0.171176 0
M  V30 13 C 2.4265 1.33381 -0.731765 0
M  V30 14 N 2.31612 2.73202 -0.854195 0
M  V30 15 H 3.37732 -2.98254 -1.05569 0
M  V30 16 H 1.9003 -3.41509 -0.164393 0
M  V30 17 H 3.33291 -3.02536 0.776095 0
M  V30 18 H 0.10081 -2.49919 0.401021 0
M  V30 19 H -1.94329 -2.46207 1.55117 0
M  V30 20 H -3.00541 -1.05998 1.70211 0
M  V30 21 H -2.35926 -2.2611 -0.921229 0
M  V30 22 H -3.84694 -1.5396 -0.431563 0
M  V30 23 H -3.36179 2.6851 -0.314209 0
M  V30 24 H -1.77221 3.22367 0.341287 0
M  V30 25 H -3.11444 2.92095 1.47735 0
M  V30 26 H 0.0309547 2.35424 -0.0516964 0
M  V30 27 H 2.46044 1.00493 -1.88184 0
M  V30 28 H 3.37762 0.973933 -0.39142 0
M  V30 29 H 1.98264 3.05744 -1.79769 0
M  V30 30 H 2.97097 3.35104 -0.409947 0
M  V30 END ATOM
M  V30 BEGIN BOND
M  V30 1 1 1 2
M  V30 2 1 2 3
M  V30 3 2 3 4
M  V30 4 1 4 5
M  V30 5 1 5 6
M  V30 6 1 6 7
M  V30 7 2 5 8
M  V30 8 1 8 9
M  V30 9 1 9 10
M  V30 10 1 8 11
M  V30 11 2 11 12
M  V30 12 1 12 13
M  V30 13 1 13 14
M  V30 14 1 12 3
M  V30 15 1 1 15
M  V30 16 1 1 16
M  V30 17 1 1 17
M  V30 18 1 4 18
M  V30 19 1 6 19
M  V30 20 1 6 20
M  V30 21 1 7 21
M  V30 22 1 7 22
M  V30 23 1 10 23
M  V30 24 1 10 24
M  V30 25 1 10 25
M  V30 26 1 11 26
M  V30 27 1 13 27
M  V30 28 1 13 28
M  V30 29 1 14 29
M  V30 30 1 14 30
M  V30 END BOND
M  V30 END CTAB
M  END
