
     RDKit          3D

  0  0  0  0  0  0  0  0  0  0999 V3000
M  V30 BEGIN CTAB
M  V30 COUNTS 80 82 0 0 0
M  V30 BEGIN ATOM
M  V30 1 C 8.97503 -1.0582 -0.463984 0
M  V30 2 C 7.96266 -0.00477266 -0.0329931 0
M  V30 3 N 7.1539 0.432212 -1.13073 0
M  V30 4 C 6.18151 1.41872 -0.726382 0
M  V30 5 C 5.12948 0.813659 0.174858 0
M  V30 6 C 4.93737 1.26853 1.40085 0
M  V30 7 C 3.93075 0.737351 2.35376 0
M  V30 8 C 3.46968 -0.59962 1.83918 0 CFG=1
M  V30 9 N 2.46449 -1.21425 2.67148 0
M  V30 10 C 3.09101 -0.431385 0.406903 0 CFG=1
M  V30 11 O 2.37377 0.725108 0.119215 0
M  V30 12 C 1.21057 0.431859 -0.563361 0 CFG=2
M  V30 13 C 1.24437 0.954298 -1.99154 0 CFG=1
M  V30 14 N 2.02571 0.12219 -2.87209 0
M  V30 15 C -0.146328 1.09815 -2.56969 0
M  V30 16 C -1.17766 0.199898 -1.96833 0 CFG=1
M  V30 17 N -1.35127 -1.10556 -2.47492 0
M  V30 18 C -1.86415 -1.36918 -3.75236 0
M  V30 19 C -0.985071 -1.0433 -4.90905 0
M  V30 20 C -1.20497 0.19694 -0.457247 0 CFG=2
M  V30 21 O -2.39647 0.570082 0.111926 0
M  V30 22 C -3.02265 -0.288946 0.946437 0 CFG=1
M  V30 23 O -3.15229 0.207217 2.25098 0
M  V30 24 C -4.0364 -0.587209 2.96026 0
M  V30 25 C -5.47652 -0.319786 2.57979 0 CFG=2
M  V30 26 C -6.06102 0.738408 3.49588 0
M  V30 27 O -6.17665 -1.51312 2.7539 0
M  V30 28 C -5.51599 0.076858 1.14522 0 CFG=2
M  V30 29 N -6.74226 -0.267864 0.461963 0
M  V30 30 C -7.90664 0.380518 0.991099 0
M  V30 31 C -4.38984 -0.594415 0.403144 0 CFG=1
M  V30 32 O -4.52036 -0.157299 -0.9344 0
M  V30 33 C -0.0358325 0.991552 0.063639 0 CFG=1
M  V30 34 O 0.0189128 1.01738 1.44256 0
M  V30 35 O 4.34521 -0.24439 -0.289579 0
M  V30 36 H 9.53091 -1.36006 0.446276 0
M  V30 37 H 9.61071 -0.585766 -1.22327 0
M  V30 38 H 8.43166 -1.95174 -0.860001 0
M  V30 39 H 8.5646 0.849736 0.353018 0
M  V30 40 H 7.3327 -0.460821 0.728662 0
M  V30 41 H 6.65115 -0.348012 -1.58451 0
M  V30 42 H 6.66489 2.24741 -0.16266 0
M  V30 43 H 5.65407 1.80678 -1.63817 0
M  V30 44 H 5.56598 2.09795 1.74362 0
M  V30 45 H 4.31223 0.679249 3.38877 0
M  V30 46 H 3.0565 1.44346 2.29997 0
M  V30 47 H 4.35867 -1.29876 1.88049 0
M  V30 48 H 2.90898 -1.45872 3.59388 0
M  V30 49 H 2.13879 -2.12694 2.27861 0
M  V30 50 H 2.58204 -1.34537 0.0191228 0
M  V30 51 H 1.10379 -0.665109 -0.662763 0
M  V30 52 H 1.7093 1.97181 -2.02979 0
M  V30 53 H 2.01766 -0.873573 -2.62002 0
M  V30 54 H 2.94 0.510404 -3.13771 0
M  V30 55 H -0.057256 0.921429 -3.64009 0
M  V30 56 H -0.476096 2.18377 -2.49789 0
M  V30 57 H -2.16897 0.732176 -2.31664 0
M  V30 58 H -1.67362 -1.79243 -1.76701 0
M  V30 59 H -2.81666 -0.738681 -3.92545 0
M  V30 60 H -2.19721 -2.4516 -3.78244 0
M  V30 61 H -1.20701 -0.0704694 -5.40214 0
M  V30 62 H 0.0877496 -1.18104 -4.75296 0
M  V30 63 H -1.26645 -1.7953 -5.72831 0
M  V30 64 H -1.00917 -0.84439 -0.129912 0
M  V30 65 H -2.50449 -1.28192 1.0897 0
M  V30 66 H -3.82456 -1.66649 2.87736 0
M  V30 67 H -3.92248 -0.328518 4.03112 0
M  V30 68 H -6.37614 1.58409 2.84926 0
M  V30 69 H -6.957 0.398113 4.03694 0
M  V30 70 H -5.31374 1.00945 4.24351 0
M  V30 71 H -5.87932 -1.87534 3.62073 0
M  V30 72 H -5.40236 1.19028 1.01172 0
M  V30 73 H -6.86363 -1.27162 0.281123 0
M  V30 74 H -7.86857 1.46895 0.928128 0
M  V30 75 H -8.76589 0.0460893 0.346051 0
M  V30 76 H -8.13188 -0.0097023 1.98774 0
M  V30 77 H -4.59816 -1.70403 0.398318 0
M  V30 78 H -4.24436 -0.824973 -1.58137 0
M  V30 79 H -0.131844 2.07136 -0.251478 0
M  V30 80 H 0.0824556 1.93173 1.82409 0
M  V30 END ATOM
M  V30 BEGIN BOND
M  V30 1 1 1 2
M  V30 2 1 2 3
M  V30 3 1 3 4
M  V30 4 1 4 5
M  V30 5 2 5 6
M  V30 6 1 6 7
M  V30 7 1 7 8
M  V30 8 1 8 9
M  V30 9 1 8 10
M  V30 10 1 10 11
M  V30 11 1 11 12
M  V30 12 1 12 13
M  V30 13 1 13 14
M  V30 14 1 13 15
M  V30 15 1 15 16
M  V30 16 1 16 17
M  V30 17 1 17 18
M  V30 18 1 18 19
M  V30 19 1 16 20
M  V30 20 1 20 21
M  V30 21 1 21 22
M  V30 22 1 22 23
M  V30 23 1 23 24
M  V30 24 1 24 25
M  V30 25 1 25 26
M  V30 26 1 25 27 CFG=3
M  V30 27 1 25 28
M  V30 28 1 28 29
M  V30 29 1 29 30
M  V30 30 1 28 31
M  V30 31 1 31 32
M  V30 32 1 20 33
M  V30 33 1 33 34
M  V30 34 1 10 35
M  V30 35 1 35 5
M  V30 36 1 33 12
M  V30 37 1 31 22
M  V30 38 1 1 36
M  V30 39 1 1 37
M  V30 40 1 1 38
M  V30 41 1 2 39
M  V30 42 1 2 40
M  V30 43 1 3 41
M  V30 44 1 4 42
M  V30 45 1 4 43
M  V30 46 1 6 44
M  V30 47 1 7 45
M  V30 48 1 7 46
M  V30 49 1 8 47 CFG=3
M  V30 50 1 9 48
M  V30 51 1 9 49
M  V30 52 1 10 50 CFG=3
M  V30 53 1 12 51 CFG=3
M  V30 54 1 13 52 CFG=1
M  V30 55 1 14 53
M  V30 56 1 14 54
M  V30 57 1 15 55
M  V30 58 1 15 56
M  V30 59 1 16 57 CFG=3
M  V30 60 1 17 58
M  V30 61 1 18 59
M  V30 62 1 18 60
M  V30 63 1 19 61
M  V30 64 1 19 62
M  V30 65 1 19 63
M  V30 66 1 20 64 CFG=1
M  V30 67 1 22 65 CFG=1
M  V30 68 1 24 66
M  V30 69 1 24 67
M  V30 70 1 26 68
M  V30 71 1 26 69
M  V30 72 1 26 70
M  V30 73 1 27 71
M  V30 74 1 28 72 CFG=1
M  V30 75 1 29 73
M  V30 76 1 30 74
M  V30 77 1 30 75
M  V30 78 1 30 76
M  V30 79 1 31 77 CFG=3
M  V30 80 1 32 78
M  V30 81 1 33 79 CFG=3
M  V30 82 1 34 80
M  V30 END BOND
M  V30 END CTAB
M  END
