
     RDKit          3D

  0  0  0  0  0  0  0  0  0  0999 V3000
M  V30 BEGIN CTAB
M  V30 COUNTS 48 50 0 0 0
M  V30 BEGIN ATOM
M  V30 1 C -7.66293 2.19945 -0.887307 0
M  V30 2 C -6.58361 1.82786 0.106584 0
M  V30 3 C -5.54256 0.952603 -0.499801 0
M  V30 4 N -4.41511 1.34746 -1.11688 0
M  V30 5 N -3.73207 0.293377 -1.52853 0
M  V30 6 C -4.4056 -0.794768 -1.18475 0
M  V30 7 N -5.51914 -0.389265 -0.552038 0
M  V30 8 N -6.52651 -1.2129 -0.0145198 0
M  V30 9 S -3.97272 -2.52253 -1.47588 0
M  V30 10 C -2.98607 -3.05055 -0.0257094 0
M  V30 11 C -1.71662 -2.25187 -0.0851417 0
M  V30 12 C -1.62079 -1.02963 0.544576 0
M  V30 13 C -0.46025 -0.314687 0.480256 0
M  V30 14 C 0.655884 -0.76948 -0.205234 0
M  V30 15 C 0.516819 -1.99635 -0.820496 0
M  V30 16 C -0.634745 -2.74375 -0.777405 0
M  V30 17 C 1.91449 0.0194727 -0.268084 0
M  V30 18 S 2.92687 -0.483079 1.14986 0
M  V30 19 C 4.4818 0.411848 1.18732 0
M  V30 20 N 4.64389 1.58287 1.81972 0
M  V30 21 N 5.90178 1.95005 1.64195 0
M  V30 22 C 6.53612 1.03336 0.909716 0
M  V30 23 N 5.65446 0.0777467 0.627092 0
M  V30 24 N 5.86959 -1.08276 -0.116834 0
M  V30 25 C 7.9547 1.00577 0.452167 0
M  V30 26 C 8.70098 2.24311 0.943358 0
M  V30 27 H -8.60265 2.45552 -0.3377 0
M  V30 28 H -7.89361 1.29383 -1.4838 0
M  V30 29 H -7.35248 2.98431 -1.58057 0
M  V30 30 H -7.00634 1.39671 1.03111 0
M  V30 31 H -6.10362 2.79419 0.410863 0
M  V30 32 H -6.79128 -2.05601 -0.558946 0
M  V30 33 H -6.93566 -0.914381 0.896251 0
M  V30 34 H -2.78729 -4.14134 -0.0566512 0
M  V30 35 H -3.52852 -2.73797 0.890525 0
M  V30 36 H -2.5077 -0.665206 1.0917 0
M  V30 37 H -0.397089 0.634288 0.973717 0
M  V30 38 H 1.39078 -2.3699 -1.36677 0
M  V30 39 H -0.660002 -3.69303 -1.28563 0
M  V30 40 H 1.6565 1.09229 -0.250304 0
M  V30 41 H 2.42875 -0.273888 -1.20154 0
M  V30 42 H 6.33597 -0.97798 -1.05662 0
M  V30 43 H 5.59761 -2.03571 0.202194 0
M  V30 44 H 8.02226 0.95784 -0.661529 0
M  V30 45 H 8.43114 0.124669 0.909153 0
M  V30 46 H 8.85736 2.93302 0.0888191 0
M  V30 47 H 8.13319 2.71494 1.76575 0
M  V30 48 H 9.734 1.93744 1.27599 0
M  V30 END ATOM
M  V30 BEGIN BOND
M  V30 1 1 1 2
M  V30 2 1 2 3
M  V30 3 2 3 4
M  V30 4 1 4 5
M  V30 5 2 5 6
M  V30 6 1 6 7
M  V30 7 1 7 8
M  V30 8 1 6 9
M  V30 9 1 9 10
M  V30 10 1 10 11
M  V30 11 2 11 12
M  V30 12 1 12 13
M  V30 13 2 13 14
M  V30 14 1 14 15
M  V30 15 2 15 16
M  V30 16 1 14 17
M  V30 17 1 17 18
M  V30 18 1 18 19
M  V30 19 2 19 20
M  V30 20 1 20 21
M  V30 21 2 21 22
M  V30 22 1 22 23
M  V30 23 1 23 24
M  V30 24 1 22 25
M  V30 25 1 25 26
M  V30 26 1 7 3
M  V30 27 1 16 11
M  V30 28 1 23 19
M  V30 29 1 1 27
M  V30 30 1 1 28
M  V30 31 1 1 29
M  V30 32 1 2 30
M  V30 33 1 2 31
M  V30 34 1 8 32
M  V30 35 1 8 33
M  V30 36 1 10 34
M  V30 37 1 10 35
M  V30 38 1 12 36
M  V30 39 1 13 37
M  V30 40 1 15 38
M  V30 41 1 16 39
M  V30 42 1 17 40
M  V30 43 1 17 41
M  V30 44 1 24 42
M  V30 45 1 24 43
M  V30 46 1 25 44
M  V30 47 1 25 45
M  V30 48 1 26 46
M  V30 49 1 26 47
M  V30 50 1 26 48
M  V30 END BOND
M  V30 END CTAB
M  END
