
     RDKit          3D

  0  0  0  0  0  0  0  0  0  0999 V3000
M  V30 BEGIN CTAB
M  V30 COUNTS 30 30 0 0 0
M  V30 BEGIN ATOM
M  V30 1 N -2.31905 1.7412 0.45987 0
M  V30 2 C -1.82277 1.16462 -0.742117 0
M  V30 3 C -1.00873 -0.0937497 -0.567471 0
M  V30 4 N 0.126715 0.174698 0.247597 0
M  V30 5 C 0.96853 1.10699 -0.39842 0
M  V30 6 C 2.42189 1.03071 -0.0951691 0
M  V30 7 C 2.98038 -0.311862 0.198271 0
M  V30 8 C 1.94297 -1.40247 0.0880162 0
M  V30 9 C 0.752789 -0.895116 0.908479 0
M  V30 10 C -1.77997 -1.30978 -0.22792 0
M  V30 11 N -2.53234 -1.29826 0.975187 0
M  V30 12 H -3.31145 2.03193 0.28759 0
M  V30 13 H -1.76631 2.55591 0.809541 0
M  V30 14 H -2.6016 0.998338 -1.51807 0
M  V30 15 H -1.12303 1.92027 -1.2069 0
M  V30 16 H -0.585218 -0.293389 -1.60434 0
M  V30 17 H 0.824882 1.09325 -1.51975 0
M  V30 18 H 0.621301 2.13816 -0.106616 0
M  V30 19 H 2.6693 1.7458 0.74551 0
M  V30 20 H 2.98042 1.44639 -0.970479 0
M  V30 21 H 3.32563 -0.34167 1.27553 0
M  V30 22 H 3.83336 -0.606739 -0.427871 0
M  V30 23 H 2.33262 -2.31972 0.555329 0
M  V30 24 H 1.61036 -1.55682 -0.96097 0
M  V30 25 H 0.162098 -1.75477 1.17367 0
M  V30 26 H 1.22142 -0.51569 1.8654 0
M  V30 27 H -2.53369 -1.44095 -1.06265 0
M  V30 28 H -1.13971 -2.19203 -0.311354 0
M  V30 29 H -3.25541 -0.587356 1.0465 0
M  V30 30 H -2.99539 -2.22792 1.0836 0
M  V30 END ATOM
M  V30 BEGIN BOND
M  V30 1 1 1 2
M  V30 2 1 2 3
M  V30 3 1 3 4
M  V30 4 1 4 5
M  V30 5 1 5 6
M  V30 6 1 6 7
M  V30 7 1 7 8
M  V30 8 1 8 9
M  V30 9 1 3 10
M  V30 10 1 10 11
M  V30 11 1 9 4
M  V30 12 1 1 12
M  V30 13 1 1 13
M  V30 14 1 2 14
M  V30 15 1 2 15
M  V30 16 1 3 16
M  V30 17 1 5 17
M  V30 18 1 5 18
M  V30 19 1 6 19
M  V30 20 1 6 20
M  V30 21 1 7 21
M  V30 22 1 7 22
M  V30 23 1 8 23
M  V30 24 1 8 24
M  V30 25 1 9 25
M  V30 26 1 9 26
M  V30 27 1 10 27
M  V30 28 1 10 28
M  V30 29 1 11 29
M  V30 30 1 11 30
M  V30 END BOND
M  V30 END CTAB
M  END
