
     RDKit          3D

  0  0  0  0  0  0  0  0  0  0999 V3000
M  V30 BEGIN CTAB
M  V30 COUNTS 31 32 0 0 0
M  V30 BEGIN ATOM
M  V30 1 N 3.67251 -1.23426 1.70791 0
M  V30 2 C 3.55844 -0.48264 0.528185 0
M  V30 3 C 4.72642 -0.119118 -0.128524 0
M  V30 4 C 4.67241 0.618458 -1.29028 0
M  V30 5 C 3.44298 0.984073 -1.78146 0
M  V30 6 C 2.29084 0.611416 -1.11142 0
M  V30 7 C 2.32833 -0.122662 0.0459657 0
M  V30 8 C 1.12635 -0.504005 0.73323 0
M  V30 9 O 1.19847 -1.18078 1.79758 0
M  V30 10 O -0.152494 -0.177832 0.307899 0
M  V30 11 C -1.28058 -0.584429 1.02985 0
M  V30 12 O -1.10563 -1.26738 2.09671 0
M  V30 13 C -2.62497 -0.257844 0.608486 0
M  V30 14 C -3.70815 -0.6699 1.33587 0
M  V30 15 C -5.01569 -0.371984 0.957184 0
M  V30 16 C -5.19004 0.365955 -0.19659 0
M  V30 17 C -4.11818 0.793188 -0.947149 0
M  V30 18 C -2.81818 0.47326 -0.533156 0
M  V30 19 N -1.76752 0.942694 -1.34889 0
M  V30 20 H 3.80295 -0.776951 2.62538 0
M  V30 21 H 3.62572 -2.26672 1.66333 0
M  V30 22 H 5.68448 -0.402876 0.252418 0
M  V30 23 H 5.6045 0.885797 -1.77838 0
M  V30 24 H 3.38457 1.5608 -2.68871 0
M  V30 25 H 1.33676 0.904263 -1.507 0
M  V30 26 H -3.53734 -1.24428 2.23144 0
M  V30 27 H -5.88088 -0.686733 1.51544 0
M  V30 28 H -6.21563 0.612053 -0.513228 0
M  V30 29 H -4.29093 1.36767 -1.84277 0
M  V30 30 H -1.64032 0.551685 -2.30896 0
M  V30 31 H -1.10921 1.67907 -1.00945 0
M  V30 END ATOM
M  V30 BEGIN BOND
M  V30 1 1 1 2
M  V30 2 2 2 3
M  V30 3 1 3 4
M  V30 4 2 4 5
M  V30 5 1 5 6
M  V30 6 2 6 7
M  V30 7 1 7 8
M  V30 8 2 8 9
M  V30 9 1 8 10
M  V30 10 1 10 11
M  V30 11 2 11 12
M  V30 12 1 11 13
M  V30 13 2 13 14
M  V30 14 1 14 15
M  V30 15 2 15 16
M  V30 16 1 16 17
M  V30 17 2 17 18
M  V30 18 1 18 19
M  V30 19 1 7 2
M  V30 20 1 18 13
M  V30 21 1 1 20
M  V30 22 1 1 21
M  V30 23 1 3 22
M  V30 24 1 4 23
M  V30 25 1 5 24
M  V30 26 1 6 25
M  V30 27 1 14 26
M  V30 28 1 15 27
M  V30 29 1 16 28
M  V30 30 1 17 29
M  V30 31 1 19 30
M  V30 32 1 19 31
M  V30 END BOND
M  V30 END CTAB
M  END
