
     RDKit          3D

  0  0  0  0  0  0  0  0  0  0999 V3000
M  V30 BEGIN CTAB
M  V30 COUNTS 26 25 0 0 0
M  V30 BEGIN ATOM
M  V30 1 N -2.46265 -1.51879 0.571625 0
M  V30 2 C -1.30553 -1.19094 -0.198851 0
M  V30 3 C -0.723064 0.114003 0.342692 0
M  V30 4 C 0.512666 0.491266 -0.459616 0
M  V30 5 N 1.52776 -0.52698 -0.381863 0
M  V30 6 C 2.12531 -0.658113 0.929557 0
M  V30 7 C 2.58703 -0.237894 -1.32493 0
M  V30 8 C -1.78064 1.1688 0.026469 0
M  V30 9 N -1.30919 2.43547 0.508588 0
M  V30 10 H -3.26201 -1.8689 0.00361478 0
M  V30 11 H -2.26023 -2.10348 1.40906 0
M  V30 12 H -0.525791 -1.9549 -0.235497 0
M  V30 13 H -1.64275 -1.03424 -1.25102 0
M  V30 14 H -0.541013 0.0234569 1.41266 0
M  V30 15 H 0.917938 1.44882 -0.0907287 0
M  V30 16 H 0.191419 0.599742 -1.50121 0
M  V30 17 H 1.37927 -0.980352 1.68767 0
M  V30 18 H 2.83477 -1.5326 0.831974 0
M  V30 19 H 2.6993 0.225647 1.24665 0
M  V30 20 H 2.18964 -0.0118698 -2.34956 0
M  V30 21 H 3.22102 0.626545 -1.03954 0
M  V30 22 H 3.25908 -1.12214 -1.43222 0
M  V30 23 H -1.89711 1.25521 -1.0796 0
M  V30 24 H -2.78316 0.877554 0.39403 0
M  V30 25 H -2.07724 3.13045 0.515385 0
M  V30 26 H -0.874822 2.34422 1.46465 0
M  V30 END ATOM
M  V30 BEGIN BOND
M  V30 1 1 1 2
M  V30 2 1 2 3
M  V30 3 1 3 4
M  V30 4 1 4 5
M  V30 5 1 5 6
M  V30 6 1 5 7
M  V30 7 1 3 8
M  V30 8 1 8 9
M  V30 9 1 1 10
M  V30 10 1 1 11
M  V30 11 1 2 12
M  V30 12 1 2 13
M  V30 13 1 3 14
M  V30 14 1 4 15
M  V30 15 1 4 16
M  V30 16 1 6 17
M  V30 17 1 6 18
M  V30 18 1 6 19
M  V30 19 1 7 20
M  V30 20 1 7 21
M  V30 21 1 7 22
M  V30 22 1 8 23
M  V30 23 1 8 24
M  V30 24 1 9 25
M  V30 25 1 9 26
M  V30 END BOND
M  V30 END CTAB
M  END
