
     RDKit          3D

  0  0  0  0  0  0  0  0  0  0999 V3000
M  V30 BEGIN CTAB
M  V30 COUNTS 56 58 0 0 0
M  V30 BEGIN ATOM
M  V30 1 C -5.57318 -0.643557 0.191225 0
M  V30 2 C -4.7555 0.549153 -0.366515 0
M  V30 3 C -4.6545 0.26577 -1.8563 0
M  V30 4 N -5.52811 1.7053 -0.0895557 0
M  V30 5 C -5.17221 2.63653 0.69877 0
M  V30 6 N -6.07532 3.75809 0.883764 0
M  V30 7 N -3.92612 2.62466 1.37163 0
M  V30 8 C -3.13842 1.62559 1.15767 0
M  V30 9 N -1.86632 1.54538 1.8054 0
M  V30 10 N -3.47369 0.58706 0.264152 0
M  V30 11 C -2.47015 -0.423987 0.0105487 0
M  V30 12 C -1.54973 -0.267631 -1.00365 0
M  V30 13 C -0.579867 -1.18405 -1.28813 0
M  V30 14 Cl 0.44697 -0.837809 -2.66461 0
M  V30 15 C -0.481836 -2.32455 -0.55498 0
M  V30 16 C 0.585353 -3.3306 -0.758458 0
M  V30 17 C 1.80291 -3.06316 0.0326991 0
M  V30 18 C 2.51957 -1.77363 -0.194288 0
M  V30 19 C 3.73662 -1.77682 0.766969 0
M  V30 20 C 4.4661 -0.498316 0.566179 0
M  V30 21 C 4.03875 0.694428 1.08445 0
M  V30 22 Cl 2.56614 0.746032 2.0548 0
M  V30 23 C 4.70421 1.89792 0.899913 0
M  V30 24 C 5.85962 1.87241 0.149368 0
M  V30 25 C 6.33301 0.706931 -0.392813 0
M  V30 26 C 5.64562 -0.454614 -0.18536 0
M  V30 27 S 6.76784 3.343 -0.136643 0
M  V30 28 F 7.90066 3.52153 1.08304 0
M  V30 29 O 5.86143 4.54827 -0.183862 0
M  V30 30 O 7.48668 3.23493 -1.43583 0
M  V30 31 C -1.4042 -2.5164 0.484448 0
M  V30 32 C -2.36954 -1.58015 0.749388 0
M  V30 33 H -6.62554 -0.582026 -0.141514 0
M  V30 34 H -5.16032 -1.60163 -0.114773 0
M  V30 35 H -5.58166 -0.593584 1.30321 0
M  V30 36 H -4.37536 -0.789639 -1.96763 0
M  V30 37 H -4.0502 0.980492 -2.40882 0
M  V30 38 H -5.70938 0.349991 -2.24256 0
M  V30 39 H -6.38071 3.94395 1.84298 0
M  V30 40 H -6.3747 4.31468 0.0845481 0
M  V30 41 H -1.13164 2.23061 1.59577 0
M  V30 42 H -1.71464 0.785712 2.48371 0
M  V30 43 H -1.64491 0.657401 -1.58073 0
M  V30 44 H 0.200439 -4.36672 -0.604879 0
M  V30 45 H 0.87245 -3.29352 -1.84203 0
M  V30 46 H 1.56379 -3.08784 1.14742 0
M  V30 47 H 2.57532 -3.87286 -0.167458 0
M  V30 48 H 1.89657 -0.899062 0.0535604 0
M  V30 49 H 2.99397 -1.74344 -1.20327 0
M  V30 50 H 3.39176 -1.89212 1.80914 0
M  V30 51 H 4.39612 -2.60281 0.440537 0
M  V30 52 H 4.32588 2.82951 1.33439 0
M  V30 53 H 7.23854 0.653712 -0.98766 0
M  V30 54 H 5.97159 -1.41515 -0.590913 0
M  V30 55 H -1.30985 -3.44382 1.06236 0
M  V30 56 H -3.07032 -1.74955 1.55738 0
M  V30 END ATOM
M  V30 BEGIN BOND
M  V30 1 1 1 2
M  V30 2 1 2 3
M  V30 3 1 2 4
M  V30 4 2 4 5
M  V30 5 1 5 6
M  V30 6 1 5 7
M  V30 7 2 7 8
M  V30 8 1 8 9
M  V30 9 1 8 10
M  V30 10 1 10 11
M  V30 11 2 11 12
M  V30 12 1 12 13
M  V30 13 1 13 14
M  V30 14 2 13 15
M  V30 15 1 15 16
M  V30 16 1 16 17
M  V30 17 1 17 18
M  V30 18 1 18 19
M  V30 19 1 19 20
M  V30 20 2 20 21
M  V30 21 1 21 22
M  V30 22 1 21 23
M  V30 23 2 23 24
M  V30 24 1 24 25
M  V30 25 2 25 26
M  V30 26 1 24 27
M  V30 27 1 27 28
M  V30 28 2 27 29
M  V30 29 2 27 30
M  V30 30 1 15 31
M  V30 31 2 31 32
M  V30 32 1 10 2
M  V30 33 1 32 11
M  V30 34 1 26 20
M  V30 35 1 1 33
M  V30 36 1 1 34
M  V30 37 1 1 35
M  V30 38 1 3 36
M  V30 39 1 3 37
M  V30 40 1 3 38
M  V30 41 1 6 39
M  V30 42 1 6 40
M  V30 43 1 9 41
M  V30 44 1 9 42
M  V30 45 1 12 43
M  V30 46 1 16 44
M  V30 47 1 16 45
M  V30 48 1 17 46
M  V30 49 1 17 47
M  V30 50 1 18 48
M  V30 51 1 18 49
M  V30 52 1 19 50
M  V30 53 1 19 51
M  V30 54 1 23 52
M  V30 55 1 25 53
M  V30 56 1 26 54
M  V30 57 1 31 55
M  V30 58 1 32 56
M  V30 END BOND
M  V30 END CTAB
M  END
