
     RDKit          3D

  0  0  0  0  0  0  0  0  0  0999 V3000
M  V30 BEGIN CTAB
M  V30 COUNTS 24 24 0 0 0
M  V30 BEGIN ATOM
M  V30 1 N 4.08938 -1.19362 0.766956 0
M  V30 2 C 2.97458 -1.80137 0.0222731 0
M  V30 3 C 1.85746 -0.862646 -0.0835487 0
M  V30 4 C 0.927685 -0.0688893 -0.153084 0
M  V30 5 C -0.143439 0.878425 -0.230157 0
M  V30 6 C 0.0408613 2.2433 -0.163195 0
M  V30 7 C -1.04622 3.10395 -0.244922 0
M  V30 8 C -2.33188 2.60409 -0.394932 0
M  V30 9 C -2.50805 1.25644 -0.460451 0
M  V30 10 C -1.42862 0.392089 -0.37964 0
M  V30 11 S -1.66609 -1.32633 -0.464737 0
M  V30 12 O -3.13758 -1.59613 -0.578405 0
M  V30 13 O -1.0102 -1.93039 -1.67826 0
M  V30 14 N -1.10845 -2.13007 0.957268 0
M  V30 15 H 3.68491 -0.984341 1.72438 0
M  V30 16 H 4.19671 -0.233271 0.328239 0
M  V30 17 H 3.40439 -2.03787 -0.990843 0
M  V30 18 H 2.59836 -2.7066 0.536588 0
M  V30 19 H 1.05503 2.63321 -0.0450353 0
M  V30 20 H -0.857885 4.16689 -0.188166 0
M  V30 21 H -3.14137 3.32863 -0.452863 0
M  V30 22 H -3.5159 0.872333 -0.577755 0
M  V30 23 H -1.56692 -3.06606 0.972687 0
M  V30 24 H -1.36677 -1.54176 1.7776 0
M  V30 END ATOM
M  V30 BEGIN BOND
M  V30 1 1 1 2
M  V30 2 1 2 3
M  V30 3 3 3 4
M  V30 4 1 4 5
M  V30 5 2 5 6
M  V30 6 1 6 7
M  V30 7 2 7 8
M  V30 8 1 8 9
M  V30 9 2 9 10
M  V30 10 1 10 11
M  V30 11 2 11 12
M  V30 12 2 11 13
M  V30 13 1 11 14
M  V30 14 1 10 5
M  V30 15 1 1 15
M  V30 16 1 1 16
M  V30 17 1 2 17
M  V30 18 1 2 18
M  V30 19 1 6 19
M  V30 20 1 7 20
M  V30 21 1 8 21
M  V30 22 1 9 22
M  V30 23 1 14 23
M  V30 24 1 14 24
M  V30 END BOND
M  V30 END CTAB
M  END
