
     RDKit          3D

  0  0  0  0  0  0  0  0  0  0999 V3000
M  V30 BEGIN CTAB
M  V30 COUNTS 23 23 0 0 0
M  V30 BEGIN ATOM
M  V30 1 N 0.199426 2.17372 0.631152 0
M  V30 2 N 1.15661 1.24973 0.143191 0
M  V30 3 C 0.547182 -0.0843206 0.25474 0
M  V30 4 C -0.790664 -0.124451 -0.305183 0
M  V30 5 C -1.21947 -0.00675123 -1.63249 0
M  V30 6 N -2.57349 -0.0930762 -1.60633 0
M  V30 7 N -2.95924 -0.248932 -0.386328 0
M  V30 8 C -1.94596 -0.273107 0.475127 0
M  V30 9 N -2.00346 -0.463931 1.88624 0
M  V30 10 C 1.39909 -1.04589 -0.568253 0
M  V30 11 C 2.70857 -1.16247 -0.0123033 0
M  V30 12 C 3.83835 -1.31923 0.479517 0
M  V30 13 H 0.489993 2.52994 1.60905 0
M  V30 14 H 0.299789 3.03639 -0.00912256 0
M  V30 15 H 1.17593 1.4338 -0.910216 0
M  V30 16 H 0.611116 -0.339641 1.33038 0
M  V30 17 H -0.614084 0.155476 -2.49508 0
M  V30 18 H -3.26227 -0.0672742 -2.44753 0
M  V30 19 H -1.55533 0.201853 2.53268 0
M  V30 20 H -2.52847 -1.26914 2.25677 0
M  V30 21 H 1.41048 -0.754314 -1.60476 0
M  V30 22 H 0.820724 -2.03169 -0.486545 0
M  V30 23 H 4.79519 -1.49669 0.865294 0
M  V30 END ATOM
M  V30 BEGIN BOND
M  V30 1 1 1 2
M  V30 2 1 2 3
M  V30 3 1 3 4
M  V30 4 2 4 5
M  V30 5 1 5 6
M  V30 6 1 6 7
M  V30 7 2 7 8
M  V30 8 1 8 9
M  V30 9 1 3 10
M  V30 10 1 10 11
M  V30 11 3 11 12
M  V30 12 1 8 4
M  V30 13 1 1 13
M  V30 14 1 1 14
M  V30 15 1 2 15
M  V30 16 1 3 16
M  V30 17 1 5 17
M  V30 18 1 6 18
M  V30 19 1 9 19
M  V30 20 1 9 20
M  V30 21 1 10 21
M  V30 22 1 10 22
M  V30 23 1 12 23
M  V30 END BOND
M  V30 END CTAB
M  END
