
     RDKit          3D

  0  0  0  0  0  0  0  0  0  0999 V3000
M  V30 BEGIN CTAB
M  V30 COUNTS 31 31 0 0 0
M  V30 BEGIN ATOM
M  V30 1 N 3.26832 -0.435928 -0.611017 0
M  V30 2 C 2.66484 0.556141 0.128727 0
M  V30 3 C 1.38305 0.23325 0.83004 0
M  V30 4 N 0.277648 -0.156353 0.0675857 0
M  V30 5 C 0.241237 -1.40436 -0.569907 0
M  V30 6 C -0.480895 -2.4858 0.208306 0
M  V30 7 O -1.50986 -1.99126 0.991783 0
M  V30 8 C -2.48357 -1.51149 0.101673 0
M  V30 9 C -2.12628 -0.173662 -0.416821 0
M  V30 10 C -0.963856 0.497855 0.274489 0 CFG=2
M  V30 11 S -0.987432 2.17741 -0.309541 0
M  V30 12 O -0.763786 2.22122 -1.81228 0
M  V30 13 O -2.37336 2.7817 -0.112534 0
M  V30 14 N 0.103416 3.19073 0.52344 0
M  V30 15 H 3.70936 -1.19376 -0.165295 0
M  V30 16 H 3.18158 -0.440037 -1.58565 0
M  V30 17 H 3.41033 0.865485 0.930236 0
M  V30 18 H 2.5823 1.47556 -0.500594 0
M  V30 19 H 1.68142 -0.571833 1.59305 0
M  V30 20 H 1.16701 1.10646 1.5109 0
M  V30 21 H 1.23856 -1.7969 -0.766689 0
M  V30 22 H -0.280825 -1.29012 -1.557 0
M  V30 23 H 0.211166 -3.06834 0.849174 0
M  V30 24 H -0.914749 -3.18629 -0.531926 0
M  V30 25 H -2.58153 -2.20299 -0.779135 0
M  V30 26 H -3.45988 -1.54727 0.619222 0
M  V30 27 H -3.01017 0.505046 -0.248573 0
M  V30 28 H -1.93538 -0.120325 -1.50082 0
M  V30 29 H -1.22759 0.530797 1.35425 0
M  V30 30 H -0.332156 3.38617 1.47674 0
M  V30 31 H 0.311081 4.0489 0.00816159 0
M  V30 END ATOM
M  V30 BEGIN BOND
M  V30 1 1 1 2
M  V30 2 1 2 3
M  V30 3 1 3 4
M  V30 4 1 4 5
M  V30 5 1 5 6
M  V30 6 1 6 7
M  V30 7 1 7 8
M  V30 8 1 8 9
M  V30 9 1 9 10
M  V30 10 1 10 11
M  V30 11 2 11 12
M  V30 12 2 11 13
M  V30 13 1 11 14
M  V30 14 1 10 4
M  V30 15 1 1 15
M  V30 16 1 1 16
M  V30 17 1 2 17
M  V30 18 1 2 18
M  V30 19 1 3 19
M  V30 20 1 3 20
M  V30 21 1 5 21
M  V30 22 1 5 22
M  V30 23 1 6 23
M  V30 24 1 6 24
M  V30 25 1 8 25
M  V30 26 1 8 26
M  V30 27 1 9 27
M  V30 28 1 9 28
M  V30 29 1 10 29 CFG=1
M  V30 30 1 14 30
M  V30 31 1 14 31
M  V30 END BOND
M  V30 END CTAB
M  END
