
     RDKit          3D

  0  0  0  0  0  0  0  0  0  0999 V3000
M  V30 BEGIN CTAB
M  V30 COUNTS 38 39 0 0 0
M  V30 BEGIN ATOM
M  V30 1 N -4.82144 2.71076 -0.237884 0
M  V30 2 C -5.27236 1.43024 -0.662713 0
M  V30 3 N -5.83621 1.36683 -1.81229 0
M  V30 4 N -5.12754 0.260275 0.10956 0
M  V30 5 C -3.861 -0.357406 0.225035 0
M  V30 6 C -2.79175 0.205631 -0.426322 0
M  V30 7 C -1.53935 -0.394123 -0.319736 0
M  V30 8 C -1.32817 -1.52713 0.411875 0
M  V30 9 N -0.0667457 -2.12537 0.548541 0
M  V30 10 C 1.2 -1.55866 0.432884 0
M  V30 11 C 1.46408 -0.221052 0.602533 0
M  V30 12 C 2.75308 0.293936 0.450387 0
M  V30 13 C 3.78414 -0.540214 0.126396 0
M  V30 14 N 5.08518 0.00309536 -0.0233585 0
M  V30 15 C 5.35211 1.38815 0.152695 0
M  V30 16 N 5.28508 2.03438 1.41116 0
M  V30 17 N 5.66782 2.07801 -0.881946 0
M  V30 18 C 3.55795 -1.86802 -0.0477815 0
M  V30 19 C 2.28192 -2.36288 0.104867 0
M  V30 20 C -2.4455 -2.0596 1.05335 0
M  V30 21 C -3.70074 -1.51403 0.984318 0
M  V30 22 H -4.20482 3.32932 -0.807541 0
M  V30 23 H -5.11905 3.06165 0.696879 0
M  V30 24 H -6.17919 0.470118 -2.16649 0
M  V30 25 H -5.93863 -0.156644 0.596616 0
M  V30 26 H -2.90145 1.11744 -1.029 0
M  V30 27 H -0.736087 0.0679768 -0.861472 0
M  V30 28 H -0.100767 -3.17695 0.776571 0
M  V30 29 H 0.699466 0.500538 0.877816 0
M  V30 30 H 2.92189 1.34727 0.590506 0
M  V30 31 H 5.88502 -0.617934 -0.270479 0
M  V30 32 H 4.9557 3.01983 1.43651 0
M  V30 33 H 5.54777 1.57259 2.30237 0
M  V30 34 H 5.86572 3.09107 -0.769559 0
M  V30 35 H 4.39964 -2.51005 -0.305625 0
M  V30 36 H 2.10121 -3.43755 -0.0365339 0
M  V30 37 H -2.28209 -2.96926 1.64136 0
M  V30 38 H -4.55491 -1.95224 1.49621 0
M  V30 END ATOM
M  V30 BEGIN BOND
M  V30 1 1 1 2
M  V30 2 2 2 3 CFG=2
M  V30 3 1 2 4
M  V30 4 1 4 5
M  V30 5 2 5 6
M  V30 6 1 6 7
M  V30 7 2 7 8
M  V30 8 1 8 9
M  V30 9 1 9 10
M  V30 10 2 10 11
M  V30 11 1 11 12
M  V30 12 2 12 13
M  V30 13 1 13 14
M  V30 14 1 14 15
M  V30 15 1 15 16
M  V30 16 2 15 17 CFG=2
M  V30 17 1 13 18
M  V30 18 2 18 19
M  V30 19 1 8 20
M  V30 20 2 20 21
M  V30 21 1 21 5
M  V30 22 1 19 10
M  V30 23 1 1 22
M  V30 24 1 1 23
M  V30 25 1 3 24
M  V30 26 1 4 25
M  V30 27 1 6 26
M  V30 28 1 7 27
M  V30 29 1 9 28
M  V30 30 1 11 29
M  V30 31 1 12 30
M  V30 32 1 14 31
M  V30 33 1 16 32
M  V30 34 1 16 33
M  V30 35 1 17 34
M  V30 36 1 18 35
M  V30 37 1 19 36
M  V30 38 1 20 37
M  V30 39 1 21 38
M  V30 END BOND
M  V30 END CTAB
M  END
