
     RDKit          3D

  0  0  0  0  0  0  0  0  0  0999 V3000
M  V30 BEGIN CTAB
M  V30 COUNTS 30 30 0 0 0
M  V30 BEGIN ATOM
M  V30 1 N 3.72207 1.74084 -0.685197 0
M  V30 2 C 2.624 0.793167 -0.690124 0
M  V30 3 C 1.6799 1.05401 0.456366 0
M  V30 4 C 0.5291 0.108049 0.502063 0
M  V30 5 C 0.921508 -1.33533 0.649003 0
M  V30 6 C -0.30167 -2.14782 0.862868 0
M  V30 7 C -1.57226 -1.57943 0.367944 0
M  V30 8 N -1.53775 -0.497418 -0.512366 0
M  V30 9 C -0.332285 0.182209 -0.737395 0
M  V30 10 S -2.93529 0.503073 -0.48404 0
M  V30 11 O -4.12301 -0.407836 -0.769465 0
M  V30 12 O -2.92506 1.52948 -1.56537 0
M  V30 13 N -3.1692 1.22164 1.06567 0
M  V30 14 H 4.55854 1.32121 -0.186843 0
M  V30 15 H 4.05682 1.9563 -1.66315 0
M  V30 16 H 2.03471 0.982808 -1.63318 0
M  V30 17 H 2.98476 -0.230236 -0.736458 0
M  V30 18 H 2.24527 0.988762 1.40595 0
M  V30 19 H 1.27141 2.08253 0.394375 0
M  V30 20 H -0.126208 0.358714 1.35994 0
M  V30 21 H 1.45998 -1.72192 -0.247446 0
M  V30 22 H 1.63188 -1.44088 1.50573 0
M  V30 23 H -0.382802 -2.33716 1.97552 0
M  V30 24 H -0.108338 -3.18129 0.445548 0
M  V30 25 H -2.23948 -1.29741 1.23843 0
M  V30 26 H -2.14953 -2.41816 -0.127587 0
M  V30 27 H 0.215614 -0.226803 -1.60914 0
M  V30 28 H -0.555275 1.27495 -0.902001 0
M  V30 29 H -3.72303 0.630753 1.70887 0
M  V30 30 H -3.75439 2.0932 0.892883 0
M  V30 END ATOM
M  V30 BEGIN BOND
M  V30 1 1 1 2
M  V30 2 1 2 3
M  V30 3 1 3 4
M  V30 4 1 4 5
M  V30 5 1 5 6
M  V30 6 1 6 7
M  V30 7 1 7 8
M  V30 8 1 8 9
M  V30 9 1 8 10
M  V30 10 2 10 11
M  V30 11 2 10 12
M  V30 12 1 10 13
M  V30 13 1 9 4
M  V30 14 1 1 14
M  V30 15 1 1 15
M  V30 16 1 2 16
M  V30 17 1 2 17
M  V30 18 1 3 18
M  V30 19 1 3 19
M  V30 20 1 4 20
M  V30 21 1 5 21
M  V30 22 1 5 22
M  V30 23 1 6 23
M  V30 24 1 6 24
M  V30 25 1 7 25
M  V30 26 1 7 26
M  V30 27 1 9 27
M  V30 28 1 9 28
M  V30 29 1 13 29
M  V30 30 1 13 30
M  V30 END BOND
M  V30 END CTAB
M  END
