
     RDKit          3D

  0  0  0  0  0  0  0  0  0  0999 V3000
M  V30 BEGIN CTAB
M  V30 COUNTS 28 30 0 0 0
M  V30 BEGIN ATOM
M  V30 1 N 4.92483 -1.27835 0.496801 0
M  V30 2 C 3.98973 -0.274932 0.175059 0
M  V30 3 C 4.4227 1.00166 -0.122434 0
M  V30 4 C 3.49123 1.98016 -0.437541 0
M  V30 5 C 2.17581 1.63695 -0.440206 0
M  V30 6 C 1.73464 0.36411 -0.144235 0
M  V30 7 C 2.63941 -0.606446 0.166994 0
M  V30 8 C 0.282174 0.0893729 -0.173885 0
M  V30 9 O -0.677909 0.933689 -0.45663 0
M  V30 10 C -1.85928 0.361217 -0.391209 0
M  V30 11 C -1.65963 -0.967711 -0.0365695 0
M  V30 12 N -0.32441 -1.08161 0.0846731 0
M  V30 13 C -2.73666 -1.81378 0.106224 0
M  V30 14 C -4.03153 -1.37291 -0.0961077 0
M  V30 15 C -4.2526 -0.057075 -0.448867 0
M  V30 16 C -3.16233 0.77442 -0.587007 0
M  V30 17 N -5.59507 0.412109 -0.66173 0
M  V30 18 H 5.12247 -1.49705 1.49793 0
M  V30 19 H 5.40319 -1.78513 -0.25719 0
M  V30 20 H 5.47727 1.26724 -0.117838 0
M  V30 21 H 3.78303 3.00546 -0.680338 0
M  V30 22 H 1.42933 2.38377 -0.683156 0
M  V30 23 H 2.31552 -1.60416 0.400487 0
M  V30 24 H -2.55582 -2.83781 0.381357 0
M  V30 25 H -4.89094 -2.02413 0.0117047 0
M  V30 26 H -3.35738 1.8008 -0.863713 0
M  V30 27 H -6.40148 -0.0647489 -0.243385 0
M  V30 28 H -5.68629 1.2549 -1.25999 0
M  V30 END ATOM
M  V30 BEGIN BOND
M  V30 1 1 1 2
M  V30 2 2 2 3
M  V30 3 1 3 4
M  V30 4 2 4 5
M  V30 5 1 5 6
M  V30 6 2 6 7
M  V30 7 1 6 8
M  V30 8 1 8 9
M  V30 9 1 9 10
M  V30 10 2 10 11
M  V30 11 1 11 12
M  V30 12 1 11 13
M  V30 13 2 13 14
M  V30 14 1 14 15
M  V30 15 2 15 16
M  V30 16 1 15 17
M  V30 17 1 7 2
M  V30 18 2 12 8
M  V30 19 1 16 10
M  V30 20 1 1 18
M  V30 21 1 1 19
M  V30 22 1 3 20
M  V30 23 1 4 21
M  V30 24 1 5 22
M  V30 25 1 7 23
M  V30 26 1 13 24
M  V30 27 1 14 25
M  V30 28 1 16 26
M  V30 29 1 17 27
M  V30 30 1 17 28
M  V30 END BOND
M  V30 END CTAB
M  END
