
     RDKit          3D

  0  0  0  0  0  0  0  0  0  0999 V3000
M  V30 BEGIN CTAB
M  V30 COUNTS 18 18 0 0 0
M  V30 BEGIN ATOM
M  V30 1 N -2.14798 0.659913 0.238015 0
M  V30 2 C -1.42084 -0.391199 -0.372377 0
M  V30 3 N -1.96096 -1.3484 -1.03244 0
M  V30 4 C 0.0313806 -0.388249 -0.244567 0
M  V30 5 C 0.81072 -1.38806 -0.817411 0
M  V30 6 C 2.18339 -1.39571 -0.703243 0
M  V30 7 N 2.76387 -0.413721 -0.0238584 0
M  V30 8 C 2.06035 0.582393 0.553195 0
M  V30 9 C 0.696359 0.608502 0.451604 0
M  V30 10 N -0.0928363 1.64442 1.04671 0
M  V30 11 H -2.32869 1.52794 -0.275508 0
M  V30 12 H -2.48479 0.516739 1.21025 0
M  V30 13 H -3.00031 -1.34229 -1.11861 0
M  V30 14 H 0.297997 -2.17305 -1.36472 0
M  V30 15 H 2.79307 -2.16617 -1.1439 0
M  V30 16 H 2.55752 1.38894 1.11297 0
M  V30 17 H -0.26882 2.49389 0.481021 0
M  V30 18 H -0.489422 1.58411 2.00287 0
M  V30 END ATOM
M  V30 BEGIN BOND
M  V30 1 1 1 2
M  V30 2 2 2 3 CFG=2
M  V30 3 1 2 4
M  V30 4 2 4 5
M  V30 5 1 5 6
M  V30 6 2 6 7
M  V30 7 1 7 8
M  V30 8 2 8 9
M  V30 9 1 9 10
M  V30 10 1 9 4
M  V30 11 1 1 11
M  V30 12 1 1 12
M  V30 13 1 3 13
M  V30 14 1 5 14
M  V30 15 1 6 15
M  V30 16 1 8 16
M  V30 17 1 10 17
M  V30 18 1 10 18
M  V30 END BOND
M  V30 END CTAB
M  END
