
     RDKit          3D

  0  0  0  0  0  0  0  0  0  0999 V3000
M  V30 BEGIN CTAB
M  V30 COUNTS 40 42 0 0 0
M  V30 BEGIN ATOM
M  V30 1 C 5.30683 -1.54188 -0.157884 0
M  V30 2 C 3.91381 -1.05846 0.0550874 0
M  V30 3 N 2.87677 -1.91381 0.158677 0
M  V30 4 C 1.62413 -1.46569 0.350795 0
M  V30 5 N 0.550692 -2.4093 0.455382 0
M  V30 6 C -0.784058 -1.96465 0.658602 0
M  V30 7 N -1.08454 -1.16127 1.80239 0
M  V30 8 N -1.75347 -2.24083 -0.129288 0
M  V30 9 C -3.09199 -1.80564 0.057798 0
M  V30 10 O -3.91488 -2.63604 0.517056 0
M  V30 11 C -3.54216 -0.46114 -0.254943 0
M  V30 12 C -4.85402 -0.0959458 -0.052417 0
M  V30 13 N -5.73817 -1.07932 0.46955 0
M  V30 14 C -5.2991 1.19788 -0.350494 0
M  V30 15 C -4.38678 2.10913 -0.856646 0
M  V30 16 C -3.07038 1.75824 -1.06475 0
M  V30 17 C -2.6686 0.455624 -0.753454 0
M  V30 18 N 1.42122 -0.144705 0.438373 0
M  V30 19 C 2.4345 0.753567 0.339984 0
M  V30 20 C 2.21979 2.1088 0.430724 0
M  V30 21 C 3.28172 2.98268 0.324552 0
M  V30 22 C 4.57935 2.55843 0.127341 0
M  V30 23 C 4.78825 1.19768 0.037148 0
M  V30 24 C 3.7252 0.312342 0.142958 0
M  V30 25 H 5.95469 -1.30402 0.693914 0
M  V30 26 H 5.28583 -2.64907 -0.273469 0
M  V30 27 H 5.67092 -1.133 -1.1208 0
M  V30 28 H 0.742716 -3.431 0.382833 0
M  V30 29 H -0.873225 -0.153061 1.86827 0
M  V30 30 H -1.5514 -1.68139 2.60127 0
M  V30 31 H -6.14185 -1.81298 -0.14773 0
M  V30 32 H -5.98938 -1.07269 1.47754 0
M  V30 33 H -6.33947 1.43381 -0.173057 0
M  V30 34 H -4.73102 3.11487 -1.08876 0
M  V30 35 H -2.40099 2.49833 -1.45854 0
M  V30 36 H -1.64724 0.186458 -0.91587 0
M  V30 37 H 1.19276 2.43344 0.58631 0
M  V30 38 H 3.08276 4.05697 0.400427 0
M  V30 39 H 5.41243 3.25267 0.0444347 0
M  V30 40 H 5.79839 0.804951 -0.119191 0
M  V30 END ATOM
M  V30 BEGIN BOND
M  V30 1 1 1 2
M  V30 2 2 2 3
M  V30 3 1 3 4
M  V30 4 1 4 5
M  V30 5 1 5 6
M  V30 6 1 6 7
M  V30 7 2 6 8
M  V30 8 1 8 9
M  V30 9 2 9 10
M  V30 10 1 9 11
M  V30 11 2 11 12
M  V30 12 1 12 13
M  V30 13 1 12 14
M  V30 14 2 14 15
M  V30 15 1 15 16
M  V30 16 2 16 17
M  V30 17 2 4 18
M  V30 18 1 18 19
M  V30 19 2 19 20
M  V30 20 1 20 21
M  V30 21 2 21 22
M  V30 22 1 22 23
M  V30 23 2 23 24
M  V30 24 1 24 2
M  V30 25 1 17 11
M  V30 26 1 24 19
M  V30 27 1 1 25
M  V30 28 1 1 26
M  V30 29 1 1 27
M  V30 30 1 5 28
M  V30 31 1 7 29
M  V30 32 1 7 30
M  V30 33 1 13 31
M  V30 34 1 13 32
M  V30 35 1 14 33
M  V30 36 1 15 34
M  V30 37 1 16 35
M  V30 38 1 17 36
M  V30 39 1 20 37
M  V30 40 1 21 38
M  V30 41 1 22 39
M  V30 42 1 23 40
M  V30 END BOND
M  V30 END CTAB
M  END
