
     RDKit          3D

  0  0  0  0  0  0  0  0  0  0999 V3000
M  V30 BEGIN CTAB
M  V30 COUNTS 41 42 0 0 0
M  V30 BEGIN ATOM
M  V30 1 N -5.03565 -0.0897674 2.40833 0
M  V30 2 C -4.75005 -0.968965 1.32482 0
M  V30 3 C -3.52646 -0.879207 0.660713 0
M  V30 4 O -2.65379 0.0874943 1.10715 0
M  V30 5 C -1.36531 0.322128 0.553846 0
M  V30 6 C -0.738172 1.42988 1.35425 0
M  V30 7 O 0.523859 1.79686 0.967568 0
M  V30 8 C 0.546721 2.26008 -0.318899 0
M  V30 9 C 1.97473 2.6812 -0.716461 0
M  V30 10 O 2.88479 1.75051 -0.673186 0
M  V30 11 C 3.5744 0.675395 -0.879954 0
M  V30 12 C 4.77549 0.398797 -0.214592 0
M  V30 13 N 5.27855 1.37234 0.742611 0
M  V30 14 C 5.44786 -0.750345 -0.477274 0
M  V30 15 C 4.98755 -1.67442 -1.39075 0
M  V30 16 C 3.81134 -1.44919 -2.07204 0
M  V30 17 C 3.1385 -0.286768 -1.80174 0
M  V30 18 C -3.18215 -1.69824 -0.384672 0
M  V30 19 C -4.10455 -2.64615 -0.776484 0
M  V30 20 C -5.32258 -2.76523 -0.146467 0
M  V30 21 C -5.65015 -1.92552 0.906939 0
M  V30 22 H -4.58052 -0.288338 3.33172 0
M  V30 23 H -5.66538 0.738995 2.34354 0
M  V30 24 H -1.41324 0.54319 -0.517061 0
M  V30 25 H -0.777 -0.611837 0.711779 0
M  V30 26 H -0.68803 1.1244 2.44857 0
M  V30 27 H -1.45642 2.29347 1.37533 0
M  V30 28 H -0.0292787 3.20755 -0.353638 0
M  V30 29 H 0.222764 1.57357 -1.0911 0
M  V30 30 H 1.81766 3.04495 -1.78765 0
M  V30 31 H 2.1771 3.64675 -0.156678 0
M  V30 32 H 5.46889 1.03984 1.68835 0
M  V30 33 H 5.4377 2.35512 0.498107 0
M  V30 34 H 6.3922 -0.953637 0.0567139 0
M  V30 35 H 5.56581 -2.58672 -1.56822 0
M  V30 36 H 3.45828 -2.18416 -2.7921 0
M  V30 37 H 2.20954 -0.10381 -2.3407 0
M  V30 38 H -2.24142 -1.63875 -0.904315 0
M  V30 39 H -3.87093 -3.32185 -1.60147 0
M  V30 40 H -6.05619 -3.51203 -0.452534 0
M  V30 41 H -6.58646 -2.00756 1.40568 0
M  V30 END ATOM
M  V30 BEGIN BOND
M  V30 1 1 1 2
M  V30 2 2 2 3
M  V30 3 1 3 4
M  V30 4 1 4 5
M  V30 5 1 5 6
M  V30 6 1 6 7
M  V30 7 1 7 8
M  V30 8 1 8 9
M  V30 9 1 9 10
M  V30 10 1 10 11
M  V30 11 2 11 12
M  V30 12 1 12 13
M  V30 13 1 12 14
M  V30 14 2 14 15
M  V30 15 1 15 16
M  V30 16 2 16 17
M  V30 17 1 3 18
M  V30 18 2 18 19
M  V30 19 1 19 20
M  V30 20 2 20 21
M  V30 21 1 21 2
M  V30 22 1 17 11
M  V30 23 1 1 22
M  V30 24 1 1 23
M  V30 25 1 5 24
M  V30 26 1 5 25
M  V30 27 1 6 26
M  V30 28 1 6 27
M  V30 29 1 8 28
M  V30 30 1 8 29
M  V30 31 1 9 30
M  V30 32 1 9 31
M  V30 33 1 13 32
M  V30 34 1 13 33
M  V30 35 1 14 34
M  V30 36 1 15 35
M  V30 37 1 16 36
M  V30 38 1 17 37
M  V30 39 1 18 38
M  V30 40 1 19 39
M  V30 41 1 20 40
M  V30 42 1 21 41
M  V30 END BOND
M  V30 END CTAB
M  END
