
     RDKit          3D

  0  0  0  0  0  0  0  0  0  0999 V3000
M  V30 BEGIN CTAB
M  V30 COUNTS 21 21 0 0 0
M  V30 BEGIN ATOM
M  V30 1 C 3.03741 0.278805 0.042955 0
M  V30 2 C 2.38078 -1.05371 -0.144882 0
M  V30 3 O 1.06258 -0.917463 -0.616415 0
M  V30 4 C 0.107956 -0.222185 0.118439 0
M  V30 5 N 0.343601 0.355897 1.28958 0
M  V30 6 C -0.583053 1.02754 1.99702 0
M  V30 7 N -1.81801 1.10699 1.46831 0
M  V30 8 C -2.11233 0.539011 0.28347 0
M  V30 9 C -1.1592 -0.149715 -0.440381 0
M  V30 10 N -1.44981 -0.759432 -1.69853 0
M  V30 11 N -3.41781 0.618729 -0.283191 0
M  V30 12 H 3.342 0.395972 1.11345 0
M  V30 13 H 2.33037 1.08302 -0.208749 0
M  V30 14 H 3.95798 0.35313 -0.578714 0
M  V30 15 H 2.91618 -1.70553 -0.866294 0
M  V30 16 H 2.37252 -1.62438 0.825831 0
M  V30 17 H -0.378639 1.49778 2.95657 0
M  V30 18 H -1.52827 -0.244235 -2.58281 0
M  V30 19 H -1.5903 -1.80202 -1.70755 0
M  V30 20 H -3.8158 1.47456 -0.708569 0
M  V30 21 H -3.99815 -0.25277 -0.259554 0
M  V30 END ATOM
M  V30 BEGIN BOND
M  V30 1 1 1 2
M  V30 2 1 2 3
M  V30 3 1 3 4
M  V30 4 2 4 5
M  V30 5 1 5 6
M  V30 6 2 6 7
M  V30 7 1 7 8
M  V30 8 2 8 9
M  V30 9 1 9 10
M  V30 10 1 8 11
M  V30 11 1 9 4
M  V30 12 1 1 12
M  V30 13 1 1 13
M  V30 14 1 1 14
M  V30 15 1 2 15
M  V30 16 1 2 16
M  V30 17 1 6 17
M  V30 18 1 10 18
M  V30 19 1 10 19
M  V30 20 1 11 20
M  V30 21 1 11 21
M  V30 END BOND
M  V30 END CTAB
M  END
