
     RDKit          3D

  0  0  0  0  0  0  0  0  0  0999 V3000
M  V30 BEGIN CTAB
M  V30 COUNTS 22 23 0 0 0
M  V30 BEGIN ATOM
M  V30 1 N -3.15719 -2.0875 0.382568 0
M  V30 2 C -2.32698 -0.939323 0.282587 0
M  V30 3 N -0.980084 -1.03621 0.336453 0
M  V30 4 C -0.184848 0.0407295 0.243227 0
M  V30 5 N -0.792402 1.23168 0.092457 0
M  V30 6 C -2.11898 1.37634 0.0339736 0
M  V30 7 N -2.64561 2.68243 -0.126888 0
M  V30 8 N -2.88166 0.277063 0.130707 0
M  V30 9 C 1.27062 -0.0464447 0.299493 0
M  V30 10 C 2.02444 1.10184 0.197103 0
M  V30 11 N 3.37628 1.08273 0.242552 0
M  V30 12 C 4.04436 -0.0752386 0.391594 0
M  V30 13 C 3.30315 -1.23027 0.49513 0
M  V30 14 C 1.92704 -1.23007 0.45099 0
M  V30 15 H -4.14225 -2.05201 0.045914 0
M  V30 16 H -2.83521 -2.99339 0.783888 0
M  V30 17 H -2.46378 3.17727 -1.02204 0
M  V30 18 H -3.19169 3.07786 0.670191 0
M  V30 19 H 1.48632 2.03666 0.0768198 0
M  V30 20 H 5.13779 -0.0797004 0.427146 0
M  V30 21 H 3.82034 -2.1848 0.616916 0
M  V30 22 H 1.33034 -2.12963 0.531003 0
M  V30 END ATOM
M  V30 BEGIN BOND
M  V30 1 1 1 2
M  V30 2 2 2 3
M  V30 3 1 3 4
M  V30 4 2 4 5
M  V30 5 1 5 6
M  V30 6 1 6 7
M  V30 7 2 6 8
M  V30 8 1 4 9
M  V30 9 2 9 10
M  V30 10 1 10 11
M  V30 11 2 11 12
M  V30 12 1 12 13
M  V30 13 2 13 14
M  V30 14 1 8 2
M  V30 15 1 14 9
M  V30 16 1 1 15
M  V30 17 1 1 16
M  V30 18 1 7 17
M  V30 19 1 7 18
M  V30 20 1 10 19
M  V30 21 1 12 20
M  V30 22 1 13 21
M  V30 23 1 14 22
M  V30 END BOND
M  V30 END CTAB
M  END
