
     RDKit          3D

  0  0  0  0  0  0  0  0  0  0999 V3000
M  V30 BEGIN CTAB
M  V30 COUNTS 62 65 0 0 0
M  V30 BEGIN ATOM
M  V30 1 C 7.57666 -0.860862 -0.00735557 0
M  V30 2 C 6.78375 -1.19 1.22979 0
M  V30 3 C 5.29329 -1.10316 0.989842 0
M  V30 4 C 4.87142 0.279826 0.555952 0
M  V30 5 C 3.39172 0.237134 0.352504 0
M  V30 6 C 2.88288 -0.0924302 -0.891354 0
M  V30 7 C 1.52138 -0.131675 -1.07839 0
M  V30 8 C 0.622154 0.148094 -0.0622956 0
M  V30 9 C 1.15833 0.479 1.18737 0
M  V30 10 C 2.51718 0.519607 1.37941 0
M  V30 11 C -0.794509 0.00349964 -0.179072 0
M  V30 12 C -1.65569 0.956357 -0.598731 0
M  V30 13 C -3.03667 0.667977 -0.691521 0
M  V30 14 O -3.68894 1.70813 -1.11119 0
M  V30 15 C -2.88945 2.70123 -1.32081 0
M  V30 16 C -1.55863 2.27302 -1.0051 0
M  V30 17 C -0.416981 3.1195 -1.11036 0
M  V30 18 O 0.750807 2.95122 -0.895045 0
M  V30 19 O -0.677383 4.45635 -1.5639 0
M  V30 20 C 0.413242 5.36143 -1.69424 0
M  V30 21 C 1.11594 5.55885 -0.36538 0
M  V30 22 N -3.20342 4.0047 -1.77933 0
M  V30 23 C -3.50824 -0.578527 -0.355513 0
M  V30 24 C -2.66509 -1.5563 0.0707107 0
M  V30 25 C -1.32669 -1.27064 0.158183 0
M  V30 26 O -0.690727 -2.32575 0.581519 0
M  V30 27 C -1.55775 -3.3014 0.778306 0
M  V30 28 C -2.82711 -2.86661 0.469095 0
M  V30 29 C -4.07517 -3.62328 0.544586 0
M  V30 30 O -4.086 -4.82376 0.927907 0
M  V30 31 O -5.2969 -3.06157 0.201036 0
M  V30 32 C -6.48341 -3.82962 0.288389 0
M  V30 33 C -7.67343 -3.02639 -0.128396 0
M  V30 34 N -1.29557 -4.62422 1.23746 0
M  V30 35 H 8.65055 -0.864733 0.283547 0
M  V30 36 H 7.3515 0.151639 -0.392185 0
M  V30 37 H 7.45592 -1.64734 -0.778405 0
M  V30 38 H 7.01043 -2.24462 1.4934 0
M  V30 39 H 7.11085 -0.575078 2.078 0
M  V30 40 H 4.97368 -1.86645 0.282925 0
M  V30 41 H 4.79338 -1.30245 1.96216 0
M  V30 42 H 5.14957 1.00073 1.34805 0
M  V30 43 H 5.35207 0.614921 -0.375356 0
M  V30 44 H 3.60628 -0.308324 -1.67458 0
M  V30 45 H 1.14261 -0.391293 -2.05755 0
M  V30 46 H 0.496289 0.708455 2.02299 0
M  V30 47 H 2.90697 0.780224 2.36267 0
M  V30 48 H 1.07283 4.96007 -2.47689 0
M  V30 49 H -0.0487179 6.32753 -1.94378 0
M  V30 50 H 1.41007 6.61786 -0.256294 0
M  V30 51 H 2.04671 4.95605 -0.286846 0
M  V30 52 H 0.442909 5.30997 0.463565 0
M  V30 53 H -3.47478 4.74525 -1.09953 0
M  V30 54 H -3.17178 4.25003 -2.78328 0
M  V30 55 H -4.56478 -0.795226 -0.427774 0
M  V30 56 H -6.53508 -4.21262 1.32512 0
M  V30 57 H -6.37801 -4.68061 -0.441298 0
M  V30 58 H -7.38942 -2.33195 -0.922356 0
M  V30 59 H -8.49038 -3.70992 -0.433604 0
M  V30 60 H -8.00762 -2.40766 0.751163 0
M  V30 61 H -1.04823 -4.83191 2.23551 0
M  V30 62 H -1.35483 -5.4123 0.5434 0
M  V30 END ATOM
M  V30 BEGIN BOND
M  V30 1 1 1 2
M  V30 2 1 2 3
M  V30 3 1 3 4
M  V30 4 1 4 5
M  V30 5 2 5 6
M  V30 6 1 6 7
M  V30 7 2 7 8
M  V30 8 1 8 9
M  V30 9 2 9 10
M  V30 10 1 8 11
M  V30 11 1 11 12
M  V30 12 2 12 13
M  V30 13 1 13 14
M  V30 14 1 14 15
M  V30 15 2 15 16
M  V30 16 1 16 17
M  V30 17 2 17 18
M  V30 18 1 17 19
M  V30 19 1 19 20
M  V30 20 1 20 21
M  V30 21 1 15 22
M  V30 22 1 13 23
M  V30 23 2 23 24
M  V30 24 1 24 25
M  V30 25 1 25 26
M  V30 26 1 26 27
M  V30 27 2 27 28
M  V30 28 1 28 29
M  V30 29 2 29 30
M  V30 30 1 29 31
M  V30 31 1 31 32
M  V30 32 1 32 33
M  V30 33 1 27 34
M  V30 34 1 10 5
M  V30 35 2 25 11
M  V30 36 1 16 12
M  V30 37 1 28 24
M  V30 38 1 1 35
M  V30 39 1 1 36
M  V30 40 1 1 37
M  V30 41 1 2 38
M  V30 42 1 2 39
M  V30 43 1 3 40
M  V30 44 1 3 41
M  V30 45 1 4 42
M  V30 46 1 4 43
M  V30 47 1 6 44
M  V30 48 1 7 45
M  V30 49 1 9 46
M  V30 50 1 10 47
M  V30 51 1 20 48
M  V30 52 1 20 49
M  V30 53 1 21 50
M  V30 54 1 21 51
M  V30 55 1 21 52
M  V30 56 1 22 53
M  V30 57 1 22 54
M  V30 58 1 23 55
M  V30 59 1 32 56
M  V30 60 1 32 57
M  V30 61 1 33 58
M  V30 62 1 33 59
M  V30 63 1 33 60
M  V30 64 1 34 61
M  V30 65 1 34 62
M  V30 END BOND
M  V30 END CTAB
M  END
