
     RDKit          3D

  0  0  0  0  0  0  0  0  0  0999 V3000
M  V30 BEGIN CTAB
M  V30 COUNTS 31 33 0 0 0
M  V30 BEGIN ATOM
M  V30 1 C -4.49052 -1.56915 0.742856 0
M  V30 2 C -3.18809 -0.899875 0.468368 0
M  V30 3 C -1.98487 -1.56996 0.557314 0
M  V30 4 C -0.784065 -0.921006 0.295762 0
M  V30 5 C -0.743584 0.411437 -0.0614768 0
M  V30 6 C -1.94581 1.08131 -0.150442 0
M  V30 7 N -1.885 2.45983 -0.521447 0
M  V30 8 C -3.13333 0.431048 0.110475 0
M  V30 9 C 0.533701 1.07564 -0.332756 0
M  V30 10 O 0.550197 2.30211 -0.660048 0
M  V30 11 C 1.80642 0.36776 -0.23892 0
M  V30 12 C 3.01308 0.994792 -0.495082 0
M  V30 13 N 3.0465 2.37266 -0.863865 0
M  V30 14 C 4.20546 0.292498 -0.396777 0
M  V30 15 C 4.19267 -1.04103 -0.0413018 0
M  V30 16 C 2.9752 -1.64419 0.209316 0
M  V30 17 C 1.77274 -0.968765 0.118901 0
M  V30 18 C 0.49376 -1.61952 0.38673 0
M  V30 19 O 0.451339 -2.83871 0.714004 0
M  V30 20 H -5.19426 -1.50482 -0.0912433 0
M  V30 21 H -4.2661 -2.64619 0.951888 0
M  V30 22 H -4.94822 -1.16137 1.68656 0
M  V30 23 H -1.99543 -2.62557 0.838735 0
M  V30 24 H -1.80836 2.76121 -1.52785 0
M  V30 25 H -1.92151 3.15583 0.272979 0
M  V30 26 H -4.06852 0.969818 0.0365733 0
M  V30 27 H 2.83932 3.06944 -0.105442 0
M  V30 28 H 3.25954 2.70881 -1.8178 0
M  V30 29 H 5.12972 0.811866 -0.60338 0
M  V30 30 H 5.13243 -1.5619 0.0274992 0
M  V30 31 H 2.9556 -2.69401 0.489871 0
M  V30 END ATOM
M  V30 BEGIN BOND
M  V30 1 1 1 2
M  V30 2 2 2 3
M  V30 3 1 3 4
M  V30 4 2 4 5
M  V30 5 1 5 6
M  V30 6 1 6 7
M  V30 7 2 6 8
M  V30 8 1 5 9
M  V30 9 2 9 10
M  V30 10 1 9 11
M  V30 11 2 11 12
M  V30 12 1 12 13
M  V30 13 1 12 14
M  V30 14 2 14 15
M  V30 15 1 15 16
M  V30 16 2 16 17
M  V30 17 1 17 18
M  V30 18 2 18 19
M  V30 19 1 8 2
M  V30 20 1 17 11
M  V30 21 1 18 4
M  V30 22 1 1 20
M  V30 23 1 1 21
M  V30 24 1 1 22
M  V30 25 1 3 23
M  V30 26 1 7 24
M  V30 27 1 7 25
M  V30 28 1 8 26
M  V30 29 1 13 27
M  V30 30 1 13 28
M  V30 31 1 14 29
M  V30 32 1 15 30
M  V30 33 1 16 31
M  V30 END BOND
M  V30 END CTAB
M  END
