
     RDKit          3D

  0  0  0  0  0  0  0  0  0  0999 V3000
M  V30 BEGIN CTAB
M  V30 COUNTS 24 25 0 0 0
M  V30 BEGIN ATOM
M  V30 1 N -0.687468 1.62985 0.32691 0
M  V30 2 C -1.28913 0.393074 0.73814 0
M  V30 3 C -2.55959 0.176402 -0.092685 0
M  V30 4 C -1.97361 -0.222741 -1.42059 0
M  V30 5 C -0.900648 -1.21202 -1.03449 0
M  V30 6 C -0.486149 -0.820133 0.361464 0
M  V30 7 C 0.964132 -0.619833 0.491393 0
M  V30 8 O 1.71715 -1.33185 1.29151 0
M  V30 9 N 2.94546 -0.957909 1.21812 0
M  V30 10 C 2.99247 0.0558333 0.317981 0
M  V30 11 N 1.76083 0.268398 -0.135929 0
M  V30 12 N 4.21208 0.695321 0.00432557 0
M  V30 13 H -0.309906 2.09632 1.18653 0
M  V30 14 H -1.46236 2.25052 -0.0244527 0
M  V30 15 H -1.60883 0.398736 1.79458 0
M  V30 16 H -3.13579 -0.675277 0.28899 0
M  V30 17 H -3.16049 1.11358 -0.146577 0
M  V30 18 H -1.50402 0.630606 -1.94866 0
M  V30 19 H -2.71105 -0.756826 -2.05316 0
M  V30 20 H -1.31131 -2.24147 -1.08766 0
M  V30 21 H -0.0100259 -1.09069 -1.68403 0
M  V30 22 H -0.796755 -1.64076 1.03197 0
M  V30 23 H 4.73988 1.16722 0.752362 0
M  V30 24 H 4.57515 0.693647 -0.958657 0
M  V30 END ATOM
M  V30 BEGIN BOND
M  V30 1 1 1 2
M  V30 2 1 2 3
M  V30 3 1 3 4
M  V30 4 1 4 5
M  V30 5 1 5 6
M  V30 6 1 6 7
M  V30 7 1 7 8
M  V30 8 1 8 9
M  V30 9 2 9 10
M  V30 10 1 10 11
M  V30 11 1 10 12
M  V30 12 1 6 2
M  V30 13 2 11 7
M  V30 14 1 1 13
M  V30 15 1 1 14
M  V30 16 1 2 15
M  V30 17 1 3 16
M  V30 18 1 3 17
M  V30 19 1 4 18
M  V30 20 1 4 19
M  V30 21 1 5 20
M  V30 22 1 5 21
M  V30 23 1 6 22
M  V30 24 1 12 23
M  V30 25 1 12 24
M  V30 END BOND
M  V30 END CTAB
M  END
