
     RDKit          3D

  0  0  0  0  0  0  0  0  0  0999 V3000
M  V30 BEGIN CTAB
M  V30 COUNTS 27 28 0 0 0
M  V30 BEGIN ATOM
M  V30 1 C -2.4651 1.35218 0.068779 0
M  V30 2 C -1.84501 -0.0276588 0.0886436 0
M  V30 3 C -2.37481 -0.826516 1.26896 0
M  V30 4 C -2.22916 -0.724495 -1.15152 0
M  V30 5 O -3.40063 -0.989111 -1.54477 0
M  V30 6 N -1.05346 -1.05629 -1.84495 0
M  V30 7 C 0.0654166 -0.599314 -1.09758 0
M  V30 8 C 1.43713 -0.679267 -1.34733 0
M  V30 9 C 2.37603 -0.164694 -0.481506 0
M  V30 10 N 3.76007 -0.272547 -0.782968 0
M  V30 11 C 1.91356 0.446809 0.667247 0
M  V30 12 N 2.88761 0.974894 1.55501 0
M  V30 13 C 0.561808 0.534002 0.928674 0
M  V30 14 C -0.380098 0.0127064 0.0508259 0
M  V30 15 H -3.56587 1.21369 0.130312 0
M  V30 16 H -2.22853 1.81542 -0.911455 0
M  V30 17 H -2.10283 1.9293 0.923325 0
M  V30 18 H -3.27056 -0.313041 1.64305 0
M  V30 19 H -2.57785 -1.88063 0.980798 0
M  V30 20 H -1.57217 -0.797591 2.05122 0
M  V30 21 H -0.971445 -1.55882 -2.76637 0
M  V30 22 H 1.7712 -1.1673 -2.26143 0
M  V30 23 H 4.11695 -1.01971 -1.41421 0
M  V30 24 H 4.45208 0.39024 -0.382218 0
M  V30 25 H 3.83268 0.563911 1.69167 0
M  V30 26 H 2.64142 1.8272 2.10432 0
M  V30 27 H 0.221567 1.01662 1.83349 0
M  V30 END ATOM
M  V30 BEGIN BOND
M  V30 1 1 1 2
M  V30 2 1 2 3
M  V30 3 1 2 4
M  V30 4 2 4 5
M  V30 5 1 4 6
M  V30 6 1 6 7
M  V30 7 2 7 8
M  V30 8 1 8 9
M  V30 9 1 9 10
M  V30 10 2 9 11
M  V30 11 1 11 12
M  V30 12 1 11 13
M  V30 13 2 13 14
M  V30 14 1 14 2
M  V30 15 1 14 7
M  V30 16 1 1 15
M  V30 17 1 1 16
M  V30 18 1 1 17
M  V30 19 1 3 18
M  V30 20 1 3 19
M  V30 21 1 3 20
M  V30 22 1 6 21
M  V30 23 1 8 22
M  V30 24 1 10 23
M  V30 25 1 10 24
M  V30 26 1 12 25
M  V30 27 1 12 26
M  V30 28 1 13 27
M  V30 END BOND
M  V30 END CTAB
M  END
