
     RDKit          3D

  0  0  0  0  0  0  0  0  0  0999 V3000
M  V30 BEGIN CTAB
M  V30 COUNTS 21 21 0 0 0
M  V30 BEGIN ATOM
M  V30 1 N -2.79074 -1.8307 0.1887 0
M  V30 2 C -1.72402 -0.89443 0.11912 0
M  V30 3 C -1.9405 0.46526 0.25975 0
M  V30 4 C -0.911242 1.37297 0.192939 0
M  V30 5 N -1.17993 2.76166 0.343094 0
M  V30 6 C 0.368587 0.881274 -0.0224152 0
M  V30 7 C 0.663428 -0.448137 -0.171279 0
M  V30 8 C -0.440344 -1.31033 -0.0905603 0
M  V30 9 C 1.99004 -0.986611 -0.39599 0
M  V30 10 O 2.06005 -2.26803 -0.516958 0
M  V30 11 C 3.25281 -0.271756 -0.502932 0
M  V30 12 I 1.8948 2.33988 -0.113373 0
M  V30 13 H -2.6803 -2.78442 -0.216275 0
M  V30 14 H -3.70555 -1.60834 0.63653 0
M  V30 15 H -2.95289 0.829885 0.428114 0
M  V30 16 H -1.02752 3.27715 1.2346 0
M  V30 17 H -1.5433 3.28633 -0.468122 0
M  V30 18 H -0.222573 -2.36667 -0.206559 0
M  V30 19 H 4.07661 -1.05072 -0.66732 0
M  V30 20 H 3.22405 0.34592 -1.44553 0
M  V30 21 H 3.58854 0.259809 0.386539 0
M  V30 END ATOM
M  V30 BEGIN BOND
M  V30 1 1 1 2
M  V30 2 2 2 3
M  V30 3 1 3 4
M  V30 4 1 4 5
M  V30 5 2 4 6
M  V30 6 1 6 7
M  V30 7 2 7 8
M  V30 8 1 7 9
M  V30 9 2 9 10
M  V30 10 1 9 11
M  V30 11 1 6 12
M  V30 12 1 8 2
M  V30 13 1 1 13
M  V30 14 1 1 14
M  V30 15 1 3 15
M  V30 16 1 5 16
M  V30 17 1 5 17
M  V30 18 1 8 18
M  V30 19 1 11 19
M  V30 20 1 11 20
M  V30 21 1 11 21
M  V30 END BOND
M  V30 END CTAB
M  END
