
     RDKit          3D

  0  0  0  0  0  0  0  0  0  0999 V3000
M  V30 BEGIN CTAB
M  V30 COUNTS 47 48 0 0 0
M  V30 BEGIN ATOM
M  V30 1 C 0.698554 -3.50077 -1.23091 0
M  V30 2 O 1.33289 -2.51047 -0.443134 0
M  V30 3 C 0.518627 -1.69497 0.331698 0
M  V30 4 C 1.20525 -0.726808 1.09556 0
M  V30 5 O 2.49588 -0.602218 1.08054 0
M  V30 6 C 3.77448 -0.448436 1.09179 0
M  V30 7 C 4.31291 0.922699 0.658247 0
M  V30 8 C 3.91649 1.27877 -0.734385 0
M  V30 9 C 4.41248 0.297183 -1.76784 0
M  V30 10 C 4.50322 2.63774 -1.08761 0
M  V30 11 C 0.412124 0.107224 1.88455 0
M  V30 12 C -0.960017 -0.00220356 1.91997 0
M  V30 13 Br -1.8827 1.23374 3.08696 0
M  V30 14 C -1.61351 -0.936254 1.18115 0
M  V30 15 C -3.0506 -1.10522 1.19342 0
M  V30 16 C -3.89084 -0.106865 0.520543 0
M  V30 17 C -4.77183 0.684807 1.24264 0
M  V30 18 N -5.58708 1.57849 0.621971 0
M  V30 19 C -5.59784 1.75346 -0.708547 0
M  V30 20 N -6.47485 2.7021 -1.31091 0
M  V30 21 N -4.75922 1.00248 -1.43008 0
M  V30 22 C -3.92144 0.0913625 -0.843962 0
M  V30 23 N -3.05405 -0.682741 -1.65863 0
M  V30 24 C -0.829392 -1.77447 0.390934 0
M  V30 25 H 0.0985762 -4.20982 -0.643191 0
M  V30 26 H -0.0372232 -2.95261 -1.88302 0
M  V30 27 H 1.40832 -4.02083 -1.89961 0
M  V30 28 H 4.29724 -0.594123 2.10716 0
M  V30 29 H 4.3201 -1.22061 0.435737 0
M  V30 30 H 5.39702 0.898668 0.829359 0
M  V30 31 H 3.87767 1.66032 1.34944 0
M  V30 32 H 2.81156 1.30354 -0.790285 0
M  V30 33 H 3.56325 -0.210456 -2.27675 0
M  V30 34 H 5.0215 0.787423 -2.55827 0
M  V30 35 H 5.09092 -0.428415 -1.27321 0
M  V30 36 H 5.51289 2.5604 -1.52762 0
M  V30 37 H 4.56002 3.31245 -0.225066 0
M  V30 38 H 3.86085 3.1349 -1.86635 0
M  V30 39 H 0.919654 0.855489 2.47739 0
M  V30 40 H -3.40185 -1.16957 2.26213 0
M  V30 41 H -3.29696 -2.1471 0.808423 0
M  V30 42 H -4.84084 0.575039 2.32958 0
M  V30 43 H -6.44093 3.68719 -1.00039 0
M  V30 44 H -7.14743 2.43622 -2.0525 0
M  V30 45 H -2.30983 -0.194714 -2.18216 0
M  V30 46 H -3.13863 -1.7077 -1.74674 0
M  V30 47 H -1.3154 -2.55433 -0.203394 0
M  V30 END ATOM
M  V30 BEGIN BOND
M  V30 1 1 1 2
M  V30 2 1 2 3
M  V30 3 2 3 4
M  V30 4 1 4 5
M  V30 5 1 5 6
M  V30 6 1 6 7
M  V30 7 1 7 8
M  V30 8 1 8 9
M  V30 9 1 8 10
M  V30 10 1 4 11
M  V30 11 2 11 12
M  V30 12 1 12 13
M  V30 13 1 12 14
M  V30 14 1 14 15
M  V30 15 1 15 16
M  V30 16 2 16 17
M  V30 17 1 17 18
M  V30 18 2 18 19
M  V30 19 1 19 20
M  V30 20 1 19 21
M  V30 21 2 21 22
M  V30 22 1 22 23
M  V30 23 2 14 24
M  V30 24 1 24 3
M  V30 25 1 22 16
M  V30 26 1 1 25
M  V30 27 1 1 26
M  V30 28 1 1 27
M  V30 29 1 6 28
M  V30 30 1 6 29
M  V30 31 1 7 30
M  V30 32 1 7 31
M  V30 33 1 8 32
M  V30 34 1 9 33
M  V30 35 1 9 34
M  V30 36 1 9 35
M  V30 37 1 10 36
M  V30 38 1 10 37
M  V30 39 1 10 38
M  V30 40 1 11 39
M  V30 41 1 15 40
M  V30 42 1 15 41
M  V30 43 1 17 42
M  V30 44 1 20 43
M  V30 45 1 20 44
M  V30 46 1 23 45
M  V30 47 1 23 46
M  V30 48 1 24 47
M  V30 END BOND
M  V30 END CTAB
M  END
