
     RDKit          3D

  0  0  0  0  0  0  0  0  0  0999 V3000
M  V30 BEGIN CTAB
M  V30 COUNTS 30 31 0 0 0
M  V30 BEGIN ATOM
M  V30 1 N 5.11493 -0.444308 -3.10166 0
M  V30 2 C 5.15329 -0.19419 -1.95929 0
M  V30 3 C 5.18689 0.0982642 -0.514624 0
M  V30 4 C 6.32925 0.396273 0.125736 0
M  V30 5 C 6.24493 0.645138 1.47233 0
M  V30 6 S 4.59137 0.461156 1.80159 0
M  V30 7 C 4.04046 0.070647 0.227224 0
M  V30 8 N 2.69349 -0.219307 -0.210406 0
M  V30 9 C 1.66109 -0.20659 0.750596 0
M  V30 10 O 1.94795 0.0637133 1.96905 0
M  V30 11 C 0.252062 -0.482426 0.471717 0
M  V30 12 S -0.65929 1.10003 0.336228 0
M  V30 13 C -2.3897 0.706986 0.0823315 0
M  V30 14 N -3.25975 1.72074 -0.0240335 0
M  V30 15 C -4.57808 1.47449 -0.2078 0
M  V30 16 N -5.49677 2.56125 -0.314503 0
M  V30 17 C -5.0092 0.160303 -0.283028 0
M  V30 18 C -4.11479 -0.872879 -0.173248 0
M  V30 19 N -2.82027 -0.565616 0.00762616 0
M  V30 20 N -4.54697 -2.21664 -0.251083 0
M  V30 21 H 7.32531 0.449172 -0.358754 0
M  V30 22 H 7.07329 0.902913 2.15912 0
M  V30 23 H 2.55364 -0.426665 -1.20602 0
M  V30 24 H -0.243469 -1.06057 1.28574 0
M  V30 25 H 0.108879 -1.06733 -0.483899 0
M  V30 26 H -5.75204 3.06383 0.576127 0
M  V30 27 H -5.9275 2.8861 -1.2038 0
M  V30 28 H -6.0621 -0.00649628 -0.431216 0
M  V30 29 H -4.8779 -2.6978 0.600189 0
M  V30 30 H -4.53899 -2.7407 -1.14224 0
M  V30 END ATOM
M  V30 BEGIN BOND
M  V30 1 3 1 2
M  V30 2 1 2 3
M  V30 3 1 3 4
M  V30 4 2 4 5
M  V30 5 1 5 6
M  V30 6 1 6 7
M  V30 7 1 7 8
M  V30 8 1 8 9
M  V30 9 2 9 10
M  V30 10 1 9 11
M  V30 11 1 11 12
M  V30 12 1 12 13
M  V30 13 2 13 14
M  V30 14 1 14 15
M  V30 15 1 15 16
M  V30 16 2 15 17
M  V30 17 1 17 18
M  V30 18 2 18 19
M  V30 19 1 18 20
M  V30 20 2 7 3
M  V30 21 1 19 13
M  V30 22 1 4 21
M  V30 23 1 5 22
M  V30 24 1 8 23
M  V30 25 1 11 24
M  V30 26 1 11 25
M  V30 27 1 16 26
M  V30 28 1 16 27
M  V30 29 1 17 28
M  V30 30 1 20 29
M  V30 31 1 20 30
M  V30 END BOND
M  V30 END CTAB
M  END
