
     RDKit          3D

  0  0  0  0  0  0  0  0  0  0999 V3000
M  V30 BEGIN CTAB
M  V30 COUNTS 28 29 0 0 0
M  V30 BEGIN ATOM
M  V30 1 N -0.399117 3.35335 0.647466 0
M  V30 2 C -0.467369 1.93455 0.404653 0
M  V30 3 N 0.636071 1.24453 0.0538113 0
M  V30 4 C 0.581693 -0.0686758 -0.172718 0
M  V30 5 N 1.73552 -0.827858 -0.546403 0
M  V30 6 C 3.02477 -0.234035 -0.702985 0
M  V30 7 C 3.70565 0.465279 0.421409 0
M  V30 8 C 4.14989 -0.919664 0.119528 0
M  V30 9 N -0.607471 -0.673148 -0.0386077 0
M  V30 10 C -1.739 -0.0447623 0.306827 0
M  V30 11 N -1.63819 1.28289 0.526465 0
M  V30 12 C -2.99718 -0.791613 0.429283 0 CFG=1
M  V30 13 N -4.10156 -0.0984376 -0.201554 0
M  V30 14 C -2.81095 -2.16196 -0.177838 0
M  V30 15 H 0.459055 3.81615 0.995016 0
M  V30 16 H -1.24224 3.91159 0.463714 0
M  V30 17 H 1.63958 -1.85236 -0.71215 0
M  V30 18 H 3.34773 0.0566473 -1.74074 0
M  V30 19 H 4.43313 1.2637 0.16393 0
M  V30 20 H 3.10171 0.641272 1.32182 0
M  V30 21 H 3.84052 -1.73991 0.791615 0
M  V30 22 H 5.09503 -1.10839 -0.404137 0
M  V30 23 H -3.20363 -0.938274 1.51049 0
M  V30 24 H -4.50749 0.536072 0.506847 0
M  V30 25 H -3.74124 0.407685 -1.03981 0
M  V30 26 H -2.44594 -2.04006 -1.22542 0
M  V30 27 H -2.05908 -2.73191 0.370925 0
M  V30 28 H -3.78988 -2.68264 -0.174614 0
M  V30 END ATOM
M  V30 BEGIN BOND
M  V30 1 1 1 2
M  V30 2 2 2 3
M  V30 3 1 3 4
M  V30 4 1 4 5
M  V30 5 1 5 6
M  V30 6 1 6 7
M  V30 7 1 7 8
M  V30 8 2 4 9
M  V30 9 1 9 10
M  V30 10 2 10 11
M  V30 11 1 10 12
M  V30 12 1 12 13
M  V30 13 1 12 14
M  V30 14 1 11 2
M  V30 15 1 8 6
M  V30 16 1 1 15
M  V30 17 1 1 16
M  V30 18 1 5 17
M  V30 19 1 6 18
M  V30 20 1 7 19
M  V30 21 1 7 20
M  V30 22 1 8 21
M  V30 23 1 8 22
M  V30 24 1 12 23 CFG=1
M  V30 25 1 13 24
M  V30 26 1 13 25
M  V30 27 1 14 26
M  V30 28 1 14 27
M  V30 29 1 14 28
M  V30 END BOND
M  V30 END CTAB
M  END
