
     RDKit          3D

  0  0  0  0  0  0  0  0  0  0999 V3000
M  V30 BEGIN CTAB
M  V30 COUNTS 19 19 0 0 0
M  V30 BEGIN ATOM
M  V30 1 N 2.23479 -0.365771 0.848436 0
M  V30 2 C 1.13974 0.392299 0.34515 0
M  V30 3 N 1.30224 1.65754 0.169584 0
M  V30 4 O 2.49285 2.26504 0.456721 0
M  V30 5 C -0.135752 -0.237679 0.0337541 0
M  V30 6 C -0.287905 -1.59698 0.229825 0
M  V30 7 C -1.50176 -2.1835 -0.0688971 0
M  V30 8 C -2.52446 -1.39982 -0.552652 0
M  V30 9 N -2.35128 -0.0776288 -0.734964 0
M  V30 10 C -1.17046 0.5333 -0.451701 0
M  V30 11 N -0.968699 1.92645 -0.637346 0
M  V30 12 H 2.13097 -0.918576 1.74961 0
M  V30 13 H 3.14729 -0.402959 0.36476 0
M  V30 14 H 2.92028 2.82899 -0.279284 0
M  V30 15 H 0.518141 -2.2159 0.611325 0
M  V30 16 H -1.66746 -3.25851 0.0710149 0
M  V30 17 H -3.47921 -1.89223 -0.781958 0
M  V30 18 H -0.562238 2.34456 -1.49701 0
M  V30 19 H -1.23708 2.60136 0.123633 0
M  V30 END ATOM
M  V30 BEGIN BOND
M  V30 1 1 1 2
M  V30 2 2 2 3 CFG=2
M  V30 3 1 3 4
M  V30 4 1 2 5
M  V30 5 2 5 6
M  V30 6 1 6 7
M  V30 7 2 7 8
M  V30 8 1 8 9
M  V30 9 2 9 10
M  V30 10 1 10 11
M  V30 11 1 10 5
M  V30 12 1 1 12
M  V30 13 1 1 13
M  V30 14 1 4 14
M  V30 15 1 6 15
M  V30 16 1 7 16
M  V30 17 1 8 17
M  V30 18 1 11 18
M  V30 19 1 11 19
M  V30 END BOND
M  V30 END CTAB
M  END
