
     RDKit          3D

  0  0  0  0  0  0  0  0  0  0999 V3000
M  V30 BEGIN CTAB
M  V30 COUNTS 50 50 0 0 0
M  V30 BEGIN ATOM
M  V30 1 C -6.57286 -1.04406 -1.11657 0
M  V30 2 C -5.63672 -0.00910969 -1.65531 0
M  V30 3 C -4.25904 -0.0939333 -1.11644 0
M  V30 4 C -4.09254 0.0771034 0.352027 0
M  V30 5 C -2.60459 -0.0412005 0.658138 0
M  V30 6 O -2.32995 -0.987169 1.43425 0
M  V30 7 N -1.71978 0.867972 0.0777603 0
M  V30 8 C -0.322072 0.952052 0.193623 0
M  V30 9 C 0.418697 -0.195772 -0.369557 0
M  V30 10 C 1.91327 0.0169888 -0.191355 0
M  V30 11 C 2.80112 -0.961653 -0.578699 0
M  V30 12 C 4.16494 -0.806142 -0.428067 0
M  V30 13 C 4.70231 0.340677 0.11919 0
M  V30 14 C 3.81405 1.31943 0.506584 0
M  V30 15 C 2.43011 1.1626 0.354251 0
M  V30 16 C 6.16839 0.515864 0.284641 0
M  V30 17 C 6.67771 -0.59738 1.20354 0
M  V30 18 C 6.88109 0.320908 -1.03961 0
M  V30 19 N 0.0794872 -1.4939 0.129393 0
M  V30 20 N -4.85481 -0.897571 1.08217 0
M  V30 21 C -4.5173 1.4474 0.840467 0
M  V30 22 H -7.04605 -0.650939 -0.203031 0
M  V30 23 H -6.01711 -1.96843 -0.921344 0
M  V30 24 H -7.33868 -1.29777 -1.89454 0
M  V30 25 H -5.56481 -0.198285 -2.76387 0
M  V30 26 H -6.04814 1.0216 -1.56687 0
M  V30 27 H -3.62915 0.696043 -1.62603 0
M  V30 28 H -3.75435 -1.04413 -1.39674 0
M  V30 29 H -2.1862 1.61278 -0.548027 0
M  V30 30 H 0.0499391 1.86398 -0.386675 0
M  V30 31 H 0.000335616 1.10228 1.26811 0
M  V30 32 H 0.292842 -0.251884 -1.48336 0
M  V30 33 H 2.40114 -1.8763 -1.01448 0
M  V30 34 H 4.86666 -1.58374 -0.736036 0
M  V30 35 H 4.21425 2.21762 0.933959 0
M  V30 36 H 1.7531 1.94896 0.670425 0
M  V30 37 H 6.37258 1.4903 0.734545 0
M  V30 38 H 7.75862 -0.555538 1.33341 0
M  V30 39 H 6.31093 -1.55471 0.770567 0
M  V30 40 H 6.10689 -0.48392 2.16759 0
M  V30 41 H 7.97597 0.422361 -0.820317 0
M  V30 42 H 6.72129 -0.732925 -1.33535 0
M  V30 43 H 6.54847 1.05294 -1.77643 0
M  V30 44 H 0.941743 -2.01505 0.39543 0
M  V30 45 H -0.411924 -2.06538 -0.589438 0
M  V30 46 H -4.44754 -1.83657 1.11292 0
M  V30 47 H -5.23472 -0.555203 1.97681 0
M  V30 48 H -3.8784 1.73511 1.69426 0
M  V30 49 H -4.32898 2.15932 0.0126101 0
M  V30 50 H -5.57023 1.45438 1.1852 0
M  V30 END ATOM
M  V30 BEGIN BOND
M  V30 1 1 1 2
M  V30 2 1 2 3
M  V30 3 1 3 4
M  V30 4 1 4 5
M  V30 5 2 5 6
M  V30 6 1 5 7
M  V30 7 1 7 8
M  V30 8 1 8 9
M  V30 9 1 9 10
M  V30 10 2 10 11
M  V30 11 1 11 12
M  V30 12 2 12 13
M  V30 13 1 13 14
M  V30 14 2 14 15
M  V30 15 1 13 16
M  V30 16 1 16 17
M  V30 17 1 16 18
M  V30 18 1 9 19
M  V30 19 1 4 20
M  V30 20 1 4 21
M  V30 21 1 15 10
M  V30 22 1 1 22
M  V30 23 1 1 23
M  V30 24 1 1 24
M  V30 25 1 2 25
M  V30 26 1 2 26
M  V30 27 1 3 27
M  V30 28 1 3 28
M  V30 29 1 7 29
M  V30 30 1 8 30
M  V30 31 1 8 31
M  V30 32 1 9 32
M  V30 33 1 11 33
M  V30 34 1 12 34
M  V30 35 1 14 35
M  V30 36 1 15 36
M  V30 37 1 16 37
M  V30 38 1 17 38
M  V30 39 1 17 39
M  V30 40 1 17 40
M  V30 41 1 18 41
M  V30 42 1 18 42
M  V30 43 1 18 43
M  V30 44 1 19 44
M  V30 45 1 19 45
M  V30 46 1 20 46
M  V30 47 1 20 47
M  V30 48 1 21 48
M  V30 49 1 21 49
M  V30 50 1 21 50
M  V30 END BOND
M  V30 END CTAB
M  END
