
     RDKit          3D

  0  0  0  0  0  0  0  0  0  0999 V3000
M  V30 BEGIN CTAB
M  V30 COUNTS 38 40 0 0 0
M  V30 BEGIN ATOM
M  V30 1 N 6.27328 -2.38715 0.528188 0
M  V30 2 C 5.46739 -1.28657 0.163814 0
M  V30 3 N 4.1413 -1.40033 -0.000724469 0
M  V30 4 C 3.40547 -0.339418 -0.346103 0
M  V30 5 C 1.93306 -0.399558 -0.543738 0
M  V30 6 S 1.07639 -0.0524148 1.01996 0
M  V30 7 C -0.673993 -0.141331 0.708373 0
M  V30 8 C -1.3042 -1.35589 0.863168 0
M  V30 9 C -2.65774 -1.52397 0.644667 0
M  V30 10 C -3.24632 -2.85003 0.832446 0
M  V30 11 C -3.35595 -0.39463 0.257403 0
M  V30 12 C -2.74211 0.83221 0.0967372 0
M  V30 13 N -1.4198 0.905511 0.330732 0
M  V30 14 C -3.45969 1.94327 -0.290194 0
M  V30 15 C -2.757 3.22145 -0.445637 0
M  V30 16 C -4.81291 1.8469 -0.524981 0
M  V30 17 C -5.41259 0.603985 -0.35802 0
M  V30 18 C -4.69871 -0.504043 0.0275256 0
M  V30 19 N 4.00931 0.842573 -0.526653 0
M  V30 20 C 5.33297 0.998417 -0.371976 0
M  V30 21 N 6.05388 -0.0879998 -0.0229729 0
M  V30 22 N 5.90152 2.26881 -0.57755 0
M  V30 23 H 6.25515 -2.87141 1.44278 0
M  V30 24 H 6.94752 -2.73684 -0.20232 0
M  V30 25 H 1.60504 0.353449 -1.31785 0
M  V30 26 H 1.59447 -1.40771 -0.884626 0
M  V30 27 H -0.71913 -2.23266 1.17197 0
M  V30 28 H -2.61158 -3.42695 1.53558 0
M  V30 29 H -4.2609 -2.84351 1.28085 0
M  V30 30 H -3.23292 -3.44333 -0.126791 0
M  V30 31 H -2.33105 3.25512 -1.47457 0
M  V30 32 H -1.95158 3.28631 0.301693 0
M  V30 33 H -3.4905 4.07254 -0.346841 0
M  V30 34 H -5.42072 2.68991 -0.830569 0
M  V30 35 H -6.46893 0.512286 -0.537578 0
M  V30 36 H -5.19628 -1.43584 0.143439 0
M  V30 37 H 6.14645 2.59643 -1.53519 0
M  V30 38 H 6.08139 2.8924 0.234283 0
M  V30 END ATOM
M  V30 BEGIN BOND
M  V30 1 1 1 2
M  V30 2 2 2 3
M  V30 3 1 3 4
M  V30 4 1 4 5
M  V30 5 1 5 6
M  V30 6 1 6 7
M  V30 7 2 7 8
M  V30 8 1 8 9
M  V30 9 1 9 10
M  V30 10 2 9 11
M  V30 11 1 11 12
M  V30 12 2 12 13
M  V30 13 1 12 14
M  V30 14 1 14 15
M  V30 15 2 14 16
M  V30 16 1 16 17
M  V30 17 2 17 18
M  V30 18 2 4 19
M  V30 19 1 19 20
M  V30 20 2 20 21
M  V30 21 1 20 22
M  V30 22 1 21 2
M  V30 23 1 13 7
M  V30 24 1 18 11
M  V30 25 1 1 23
M  V30 26 1 1 24
M  V30 27 1 5 25
M  V30 28 1 5 26
M  V30 29 1 8 27
M  V30 30 1 10 28
M  V30 31 1 10 29
M  V30 32 1 10 30
M  V30 33 1 15 31
M  V30 34 1 15 32
M  V30 35 1 15 33
M  V30 36 1 16 34
M  V30 37 1 17 35
M  V30 38 1 18 36
M  V30 39 1 22 37
M  V30 40 1 22 38
M  V30 END BOND
M  V30 END CTAB
M  END
