
     RDKit          3D

  0  0  0  0  0  0  0  0  0  0999 V3000
M  V30 BEGIN CTAB
M  V30 COUNTS 33 34 0 0 0
M  V30 BEGIN ATOM
M  V30 1 O 0.180595 -0.439836 0.206933 0
M  V30 2 C 0.128305 -1.19838 -0.770049 0
M  V30 3 O -0.798313 -2.22919 -0.770023 0
M  V30 4 C -1.68279 -2.44659 0.2901 0
M  V30 5 C -2.56628 -1.2649 0.478511 0
M  V30 6 N -2.71923 -0.318265 -0.457718 0
M  V30 7 C -3.51188 0.757693 -0.309293 0
M  V30 8 N -3.63231 1.72484 -1.33603 0
M  V30 9 N -4.17471 0.873036 0.838928 0
M  V30 10 C -4.07807 -0.0435913 1.84631 0
M  V30 11 N -3.27024 -1.0904 1.63008 0
M  V30 12 N -4.81104 0.149041 3.03099 0
M  V30 13 C 1.01155 -1.05796 -1.94479 0
M  V30 14 O 1.95262 -0.0522603 -1.88319 0
M  V30 15 C 2.98959 0.145299 -1.02763 0
M  V30 16 C 3.33641 -0.682821 0.0129985 0
M  V30 17 C 4.41042 -0.419533 0.847781 0
M  V30 18 C 5.18374 0.697414 0.665161 0
M  V30 19 C 4.85537 1.54929 -0.378015 0
M  V30 20 C 3.78505 1.28264 -1.20604 0
M  V30 21 Cl 3.41184 2.3906 -2.5098 0
M  V30 22 F 6.24204 0.958567 1.4863 0
M  V30 23 H -2.32965 -3.33671 0.117239 0
M  V30 24 H -1.11897 -2.56648 1.24988 0
M  V30 25 H -4.11681 2.62498 -1.13462 0
M  V30 26 H -3.24526 1.54951 -2.28455 0
M  V30 27 H -4.39253 0.663622 3.82151 0
M  V30 28 H -5.7695 -0.22276 3.11523 0
M  V30 29 H 1.4445 -2.06543 -2.19363 0
M  V30 30 H 0.33875 -0.835161 -2.82517 0
M  V30 31 H 2.79068 -1.56953 0.210958 0
M  V30 32 H 4.66406 -1.09899 1.67167 0
M  V30 33 H 5.49204 2.42319 -0.490031 0
M  V30 END ATOM
M  V30 BEGIN BOND
M  V30 1 2 1 2
M  V30 2 1 2 3
M  V30 3 1 3 4
M  V30 4 1 4 5
M  V30 5 2 5 6
M  V30 6 1 6 7
M  V30 7 1 7 8
M  V30 8 2 7 9
M  V30 9 1 9 10
M  V30 10 2 10 11
M  V30 11 1 10 12
M  V30 12 1 2 13
M  V30 13 1 13 14
M  V30 14 1 14 15
M  V30 15 2 15 16
M  V30 16 1 16 17
M  V30 17 2 17 18
M  V30 18 1 18 19
M  V30 19 2 19 20
M  V30 20 1 20 21
M  V30 21 1 18 22
M  V30 22 1 11 5
M  V30 23 1 20 15
M  V30 24 1 4 23
M  V30 25 1 4 24
M  V30 26 1 8 25
M  V30 27 1 8 26
M  V30 28 1 12 27
M  V30 29 1 12 28
M  V30 30 1 13 29
M  V30 31 1 13 30
M  V30 32 1 16 31
M  V30 33 1 17 32
M  V30 34 1 19 33
M  V30 END BOND
M  V30 END CTAB
M  END
