
     RDKit          3D

  0  0  0  0  0  0  0  0  0  0999 V3000
M  V30 BEGIN CTAB
M  V30 COUNTS 27 28 0 0 0
M  V30 BEGIN ATOM
M  V30 1 N 4.86972 -0.910611 -0.34858 0
M  V30 2 C 3.63346 -0.271133 -0.127811 0
M  V30 3 C 2.44618 -0.975233 -0.24923 0
M  V30 4 Br 2.50598 -2.82773 -0.720619 0
M  V30 5 C 1.25068 -0.321942 -0.0269264 0
M  V30 6 C 1.20745 1.01059 0.312183 0
M  V30 7 O 0.00311046 1.64472 0.530067 0
M  V30 8 C -1.19623 0.955819 0.413014 0
M  V30 9 C -1.78962 0.299551 1.47458 0
M  V30 10 C -2.98355 -0.381621 1.34164 0
M  V30 11 Br -3.80413 -1.28953 2.81099 0
M  V30 12 C -3.64091 -0.435571 0.128832 0
M  V30 13 N -4.87212 -1.13333 -0.0247704 0
M  V30 14 C -3.04978 0.219411 -0.932997 0
M  V30 15 Br -3.95261 0.149383 -2.61311 0
M  V30 16 C -1.85618 0.900695 -0.801164 0
M  V30 17 C 2.39167 1.70029 0.43011 0
M  V30 18 C 3.62129 1.06964 0.211902 0
M  V30 19 Br 5.2505 2.04234 0.380152 0
M  V30 20 H 5.19772 -1.14945 -1.29829 0
M  V30 21 H 5.46471 -1.14703 0.464428 0
M  V30 22 H 0.351547 -0.890198 -0.127749 0
M  V30 23 H -1.28345 0.330359 2.44652 0
M  V30 24 H -5.71054 -0.596054 -0.331919 0
M  V30 25 H -5.00132 -2.15296 0.148458 0
M  V30 26 H -1.40315 1.41072 -1.64353 0
M  V30 27 H 2.34958 2.74887 0.697351 0
M  V30 END ATOM
M  V30 BEGIN BOND
M  V30 1 1 1 2
M  V30 2 2 2 3
M  V30 3 1 3 4
M  V30 4 1 3 5
M  V30 5 2 5 6
M  V30 6 1 6 7
M  V30 7 1 7 8
M  V30 8 2 8 9
M  V30 9 1 9 10
M  V30 10 1 10 11
M  V30 11 2 10 12
M  V30 12 1 12 13
M  V30 13 1 12 14
M  V30 14 1 14 15
M  V30 15 2 14 16
M  V30 16 1 6 17
M  V30 17 2 17 18
M  V30 18 1 18 19
M  V30 19 1 18 2
M  V30 20 1 16 8
M  V30 21 1 1 20
M  V30 22 1 1 21
M  V30 23 1 5 22
M  V30 24 1 9 23
M  V30 25 1 13 24
M  V30 26 1 13 25
M  V30 27 1 16 26
M  V30 28 1 17 27
M  V30 END BOND
M  V30 END CTAB
M  END
