
     RDKit          3D

  0  0  0  0  0  0  0  0  0  0999 V3000
M  V30 BEGIN CTAB
M  V30 COUNTS 35 36 0 0 0
M  V30 BEGIN ATOM
M  V30 1 C -4.95336 -0.814959 -0.709369 0
M  V30 2 C -4.14909 0.344398 -0.287444 0
M  V30 3 N -2.82393 0.0738074 0.152283 0
M  V30 4 C -2.07155 1.20908 0.552555 0
M  V30 5 C -0.838205 1.38998 -0.322221 0
M  V30 6 N -0.0250582 0.208383 -0.123735 0
M  V30 7 C -0.723455 -1.04906 0.064858 0
M  V30 8 C -2.12933 -0.963484 -0.495737 0
M  V30 9 C 1.37673 0.287821 -0.115904 0
M  V30 10 N 1.97356 1.49398 -0.301491 0
M  V30 11 C 3.28718 1.67181 -0.310645 0
M  V30 12 C 4.13623 0.607415 -0.126437 0
M  V30 13 C 3.59321 -0.636217 0.0659924 0
M  V30 14 C 2.20851 -0.791585 0.0704744 0
M  V30 15 N 4.44471 -1.77008 0.261424 0
M  V30 16 N 5.52581 0.847509 -0.144498 0
M  V30 17 H -4.4024 -1.65485 -1.16024 0
M  V30 18 H -5.72989 -0.527958 -1.47911 0
M  V30 19 H -5.52648 -1.24444 0.156395 0
M  V30 20 H -4.0955 1.07383 -1.12552 0
M  V30 21 H -4.67551 0.887748 0.547347 0
M  V30 22 H -2.69153 2.11798 0.593489 0
M  V30 23 H -1.68891 1.03468 1.58709 0
M  V30 24 H -0.303331 2.30027 0.0153589 0
M  V30 25 H -1.15561 1.46186 -1.37913 0
M  V30 26 H -0.174599 -1.91179 -0.372918 0
M  V30 27 H -0.789353 -1.25088 1.1554 0
M  V30 28 H -2.01959 -0.859883 -1.58958 0
M  V30 29 H -2.6171 -1.94185 -0.219207 0
M  V30 30 H 3.69798 2.66466 -0.464611 0
M  V30 31 H 1.76953 -1.76465 0.220945 0
M  V30 32 H 4.81438 -2.23313 -0.58911 0
M  V30 33 H 4.69393 -2.12962 1.20553 0
M  V30 34 H 6.13288 0.297466 -0.77382 0
M  V30 35 H 5.92915 1.57176 0.471343 0
M  V30 END ATOM
M  V30 BEGIN BOND
M  V30 1 1 1 2
M  V30 2 1 2 3
M  V30 3 1 3 4
M  V30 4 1 4 5
M  V30 5 1 5 6
M  V30 6 1 6 7
M  V30 7 1 7 8
M  V30 8 1 6 9
M  V30 9 2 9 10
M  V30 10 1 10 11
M  V30 11 2 11 12
M  V30 12 1 12 13
M  V30 13 2 13 14
M  V30 14 1 13 15
M  V30 15 1 12 16
M  V30 16 1 8 3
M  V30 17 1 14 9
M  V30 18 1 1 17
M  V30 19 1 1 18
M  V30 20 1 1 19
M  V30 21 1 2 20
M  V30 22 1 2 21
M  V30 23 1 4 22
M  V30 24 1 4 23
M  V30 25 1 5 24
M  V30 26 1 5 25
M  V30 27 1 7 26
M  V30 28 1 7 27
M  V30 29 1 8 28
M  V30 30 1 8 29
M  V30 31 1 11 30
M  V30 32 1 14 31
M  V30 33 1 15 32
M  V30 34 1 15 33
M  V30 35 1 16 34
M  V30 36 1 16 35
M  V30 END BOND
M  V30 END CTAB
M  END
