
     RDKit          3D

  0  0  0  0  0  0  0  0  0  0999 V3000
M  V30 BEGIN CTAB
M  V30 COUNTS 37 38 0 0 0
M  V30 BEGIN ATOM
M  V30 1 N 5.27179 1.42834 -0.901241 0
M  V30 2 C 3.95771 0.93431 -0.702559 0
M  V30 3 C 2.95489 1.05183 -1.64219 0
M  V30 4 C 1.68779 0.562484 -1.422 0
M  V30 5 C 1.42553 -0.0644061 -0.216673 0
M  V30 6 C 2.43309 -0.190672 0.745466 0
M  V30 7 C 3.68955 0.306481 0.500855 0
M  V30 8 C 0.0877551 -0.620962 0.103687 0 CFG=2
M  V30 9 C -0.232248 -1.63117 -0.967209 0
M  V30 10 C -1.57767 -2.24494 -0.849381 0
M  V30 11 C -2.03699 -2.23031 0.572808 0
M  V30 12 C -2.63201 -0.908024 0.967647 0
M  V30 13 N -2.24815 0.166773 0.0859564 0
M  V30 14 C -0.87736 0.521713 0.147946 0
M  V30 15 S -3.17365 1.54397 0.584477 0
M  V30 16 O -4.62228 1.1075 0.543638 0
M  V30 17 O -3.0336 2.67533 -0.377248 0
M  V30 18 N -2.81877 1.99805 2.20262 0
M  V30 19 H 5.58133 2.27152 -0.385881 0
M  V30 20 H 5.95267 0.974005 -1.55358 0
M  V30 21 H 3.19951 1.5477 -2.57045 0
M  V30 22 H 0.876824 0.631862 -2.12518 0
M  V30 23 H 2.26094 -0.675108 1.69753 0
M  V30 24 H 4.4696 0.212419 1.2376 0
M  V30 25 H 0.134025 -1.06001 1.10763 0
M  V30 26 H 0.545516 -2.42703 -0.903484 0
M  V30 27 H -0.121039 -1.13835 -1.94686 0
M  V30 28 H -2.32911 -1.70813 -1.46468 0
M  V30 29 H -1.5089 -3.32626 -1.16443 0
M  V30 30 H -2.83307 -3.02635 0.665494 0
M  V30 31 H -1.24079 -2.55625 1.28394 0
M  V30 32 H -2.38101 -0.637292 2.00803 0
M  V30 33 H -3.74337 -0.980179 0.917394 0
M  V30 34 H -0.680728 1.09572 1.07344 0
M  V30 35 H -0.646776 1.19532 -0.700451 0
M  V30 36 H -3.67025 2.41809 2.67944 0
M  V30 37 H -2.12075 2.78202 2.16226 0
M  V30 END ATOM
M  V30 BEGIN BOND
M  V30 1 1 1 2
M  V30 2 2 2 3
M  V30 3 1 3 4
M  V30 4 2 4 5
M  V30 5 1 5 6
M  V30 6 2 6 7
M  V30 7 1 5 8
M  V30 8 1 8 9
M  V30 9 1 9 10
M  V30 10 1 10 11
M  V30 11 1 11 12
M  V30 12 1 12 13
M  V30 13 1 13 14
M  V30 14 1 13 15
M  V30 15 2 15 16
M  V30 16 2 15 17
M  V30 17 1 15 18
M  V30 18 1 7 2
M  V30 19 1 14 8
M  V30 20 1 1 19
M  V30 21 1 1 20
M  V30 22 1 3 21
M  V30 23 1 4 22
M  V30 24 1 6 23
M  V30 25 1 7 24
M  V30 26 1 8 25 CFG=1
M  V30 27 1 9 26
M  V30 28 1 9 27
M  V30 29 1 10 28
M  V30 30 1 10 29
M  V30 31 1 11 30
M  V30 32 1 11 31
M  V30 33 1 12 32
M  V30 34 1 12 33
M  V30 35 1 14 34
M  V30 36 1 14 35
M  V30 37 1 18 36
M  V30 38 1 18 37
M  V30 END BOND
M  V30 END CTAB
M  END
