
     RDKit          3D

  0  0  0  0  0  0  0  0  0  0999 V3000
M  V30 BEGIN CTAB
M  V30 COUNTS 32 33 0 0 0
M  V30 BEGIN ATOM
M  V30 1 N 1.11931 0.582446 -1.45316 0
M  V30 2 C 2.13117 -0.0149487 -0.660446 0
M  V30 3 C 3.30145 0.64241 -0.324994 0
M  V30 4 C 4.28947 0.0575695 0.432365 0
M  V30 5 C 4.09129 -1.23132 0.865403 0
M  V30 6 C 2.9258 -1.8887 0.532772 0
M  V30 7 C 1.93073 -1.30186 -0.228756 0
M  V30 8 S 0.493002 -2.25979 -0.597039 0
M  V30 9 S -0.854428 -2.03681 1.02455 0
M  V30 10 C -1.89866 -0.665437 0.679162 0
M  V30 11 C -3.06655 -0.904319 -0.0499713 0
M  V30 12 N -3.35365 -2.24738 -0.477603 0
M  V30 13 C -3.95492 0.0803609 -0.37902 0
M  V30 14 C -3.69149 1.37235 0.0248803 0
M  V30 15 C -2.5407 1.62585 0.746842 0
M  V30 16 C -1.65675 0.624345 1.07005 0
M  V30 17 N -4.56751 2.43926 -0.281053 0 CHG=1
M  V30 18 O -5.71427 2.17456 -1.00283 0 CHG=-1
M  V30 19 O -4.31983 3.59089 0.0864923 0
M  V30 20 N 5.48578 0.763322 0.761227 0 CHG=1
M  V30 21 O 6.44313 0.136636 1.52001 0 CHG=-1
M  V30 22 O 5.69172 1.91489 0.38936 0
M  V30 23 H 0.695956 0.17759 -2.29391 0
M  V30 24 H 0.777592 1.52627 -1.14393 0
M  V30 25 H 3.43285 1.65509 -0.67789 0
M  V30 26 H 4.83818 -1.74004 1.46538 0
M  V30 27 H 2.81833 -2.9066 0.900265 0
M  V30 28 H -3.97368 -2.44606 -1.26953 0
M  V30 29 H -2.92497 -3.0563 0.0238166 0
M  V30 30 H -4.86393 -0.117936 -0.948924 0
M  V30 31 H -2.34329 2.6448 1.05933 0
M  V30 32 H -0.741144 0.808882 1.64115 0
M  V30 END ATOM
M  V30 BEGIN BOND
M  V30 1 1 1 2
M  V30 2 2 2 3
M  V30 3 1 3 4
M  V30 4 2 4 5
M  V30 5 1 5 6
M  V30 6 2 6 7
M  V30 7 1 7 8
M  V30 8 1 8 9
M  V30 9 1 9 10
M  V30 10 2 10 11
M  V30 11 1 11 12
M  V30 12 1 11 13
M  V30 13 2 13 14
M  V30 14 1 14 15
M  V30 15 2 15 16
M  V30 16 1 14 17
M  V30 17 1 17 18
M  V30 18 2 17 19
M  V30 19 1 4 20
M  V30 20 1 20 21
M  V30 21 2 20 22
M  V30 22 1 7 2
M  V30 23 1 16 10
M  V30 24 1 1 23
M  V30 25 1 1 24
M  V30 26 1 3 25
M  V30 27 1 5 26
M  V30 28 1 6 27
M  V30 29 1 12 28
M  V30 30 1 12 29
M  V30 31 1 13 30
M  V30 32 1 15 31
M  V30 33 1 16 32
M  V30 END BOND
M  V30 END CTAB
M  END
