
     RDKit          3D

  0  0  0  0  0  0  0  0  0  0999 V3000
M  V30 BEGIN CTAB
M  V30 COUNTS 88 89 0 0 0
M  V30 BEGIN ATOM
M  V30 1 C -1.56895 -0.335631 0.349214 0 CFG=1
M  V30 2 C -1.97385 1.09958 0.623499 0
M  V30 3 C -1.94496 1.86332 -0.65556 0
M  V30 4 C -2.32981 3.31878 -0.473207 0
M  V30 5 N -1.43959 4.00153 0.426299 0
M  V30 6 C -1.66861 5.36901 0.700388 0
M  V30 7 N -2.32806 6.19053 -0.238668 0
M  V30 8 N -1.27413 5.85948 1.81011 0
M  V30 9 N -2.4558 -0.973712 -0.588106 0
M  V30 10 C -3.2255 -2.12489 -0.265594 0
M  V30 11 O -3.1168 -2.59723 0.889579 0
M  V30 12 C -4.13341 -2.76484 -1.25512 0 CFG=2
M  V30 13 C -5.17014 -1.84619 -1.79562 0
M  V30 14 C -6.12407 -1.27057 -0.84697 0
M  V30 15 C -5.93102 -0.12284 -0.137906 0
M  V30 16 C -6.85304 0.419619 0.754277 0
M  V30 17 C -8.05244 -0.227836 0.952988 0
M  V30 18 O -9.01003 0.269032 1.83447 0
M  V30 19 C -8.27105 -1.38961 0.245521 0
M  V30 20 C -7.35366 -1.91252 -0.629828 0
M  V30 21 N -4.69871 -3.98461 -0.707085 0
M  V30 22 C -3.84725 -5.05206 -0.307227 0
M  V30 23 N -2.58187 -5.29019 -0.857711 0
M  V30 24 N -4.27479 -5.85093 0.627059 0
M  V30 25 C -0.183824 -0.339047 -0.178035 0
M  V30 26 O 0.0459876 -0.880056 -1.27527 0
M  V30 27 N 0.856135 0.256825 0.543513 0
M  V30 28 C 2.27177 0.291434 0.084289 0 CFG=1
M  V30 29 C 2.56388 1.76781 -0.0188866 0
M  V30 30 C 3.86306 2.19877 -0.45087 0
M  V30 31 C 4.8525 2.41715 0.513007 0
M  V30 32 C 6.11687 2.85609 0.179254 0
M  V30 33 C 6.46412 3.10006 -1.13191 0
M  V30 34 C 5.48388 2.88237 -2.08915 0
M  V30 35 C 4.2256 2.44711 -1.76677 0
M  V30 36 C 3.03121 -0.325516 1.1863 0
M  V30 37 O 2.74261 0.0791686 2.39108 0
M  V30 38 N 4.02535 -1.30572 1.12809 0
M  V30 39 C 4.6431 -1.76781 2.37072 0
M  V30 40 C 4.46556 -1.90055 -0.0869311 0
M  V30 41 C 5.661 -1.31766 -0.754249 0
M  V30 42 C 6.89952 -1.34737 0.0331642 0
M  V30 43 O 7.07713 -0.519835 0.954298 0
M  V30 44 O 7.89971 -2.27368 -0.208354 0
M  V30 45 C 9.07206 -2.25449 0.582286 0
M  V30 46 H -1.58204 -0.878291 1.3347 0
M  V30 47 H -2.96716 1.13964 1.12745 0
M  V30 48 H -1.23073 1.49496 1.3677 0
M  V30 49 H -0.980901 1.74769 -1.14684 0
M  V30 50 H -2.74646 1.43723 -1.31394 0
M  V30 51 H -3.3734 3.40592 -0.0862119 0
M  V30 52 H -2.28348 3.80987 -1.45992 0
M  V30 53 H -0.617209 3.52119 0.892037 0
M  V30 54 H -3.0231 5.83117 -0.938831 0
M  V30 55 H -2.16917 7.23752 -0.306922 0
M  V30 56 H -1.44448 6.8665 2.00727 0
M  V30 57 H -2.53206 -0.565217 -1.55706 0
M  V30 58 H -3.48806 -3.08977 -2.10471 0
M  V30 59 H -4.61437 -1.04537 -2.37013 0
M  V30 60 H -5.76241 -2.36393 -2.60213 0
M  V30 61 H -5.02396 0.444807 -0.245992 0
M  V30 62 H -6.63212 1.33383 1.28387 0
M  V30 63 H -8.94412 -0.0532898 2.7917 0
M  V30 64 H -9.22239 -1.89469 0.407453 0
M  V30 65 H -7.56847 -2.83061 -1.18373 0
M  V30 66 H -5.71074 -4.07243 -0.608969 0
M  V30 67 H -1.95426 -4.51542 -1.18355 0
M  V30 68 H -2.20166 -6.25559 -0.972238 0
M  V30 69 H -3.72303 -6.65731 0.983832 0
M  V30 70 H 0.67478 0.711664 1.45197 0
M  V30 71 H 2.32657 -0.279596 -0.814935 0
M  V30 72 H 2.38794 2.16446 1.02995 0
M  V30 73 H 1.76777 2.29424 -0.61521 0
M  V30 74 H 4.64896 2.2447 1.562 0
M  V30 75 H 6.89526 3.03213 0.923045 0
M  V30 76 H 7.45404 3.44358 -1.41686 0
M  V30 77 H 5.72908 3.06641 -3.14329 0
M  V30 78 H 3.48638 2.28803 -2.53208 0
M  V30 79 H 3.89456 -2.25373 3.03282 0
M  V30 80 H 5.04002 -0.909826 2.97115 0
M  V30 81 H 5.39914 -2.54609 2.16182 0
M  V30 82 H 3.63282 -1.82735 -0.86349 0
M  V30 83 H 4.56464 -3.03224 0.0140453 0
M  V30 84 H 5.85513 -1.99845 -1.64448 0
M  V30 85 H 5.43734 -0.345281 -1.18436 0
M  V30 86 H 9.45921 -3.29314 0.669465 0
M  V30 87 H 8.83749 -1.93289 1.63853 0
M  V30 88 H 9.85492 -1.58727 0.184703 0
M  V30 END ATOM
M  V30 BEGIN BOND
M  V30 1 1 1 2
M  V30 2 1 2 3
M  V30 3 1 3 4
M  V30 4 1 4 5
M  V30 5 1 5 6
M  V30 6 1 6 7
M  V30 7 2 6 8 CFG=2
M  V30 8 1 1 9
M  V30 9 1 9 10
M  V30 10 2 10 11
M  V30 11 1 10 12
M  V30 12 1 12 13
M  V30 13 1 13 14
M  V30 14 2 14 15
M  V30 15 1 15 16
M  V30 16 2 16 17
M  V30 17 1 17 18
M  V30 18 1 17 19
M  V30 19 2 19 20
M  V30 20 1 12 21
M  V30 21 1 21 22
M  V30 22 1 22 23
M  V30 23 2 22 24 CFG=2
M  V30 24 1 1 25
M  V30 25 2 25 26
M  V30 26 1 25 27
M  V30 27 1 27 28
M  V30 28 1 28 29
M  V30 29 1 29 30
M  V30 30 2 30 31
M  V30 31 1 31 32
M  V30 32 2 32 33
M  V30 33 1 33 34
M  V30 34 2 34 35
M  V30 35 1 28 36
M  V30 36 2 36 37
M  V30 37 1 36 38
M  V30 38 1 38 39
M  V30 39 1 38 40
M  V30 40 1 40 41
M  V30 41 1 41 42
M  V30 42 2 42 43
M  V30 43 1 42 44
M  V30 44 1 44 45
M  V30 45 1 20 14
M  V30 46 1 35 30
M  V30 47 1 1 46 CFG=1
M  V30 48 1 2 47
M  V30 49 1 2 48
M  V30 50 1 3 49
M  V30 51 1 3 50
M  V30 52 1 4 51
M  V30 53 1 4 52
M  V30 54 1 5 53
M  V30 55 1 7 54
M  V30 56 1 7 55
M  V30 57 1 8 56
M  V30 58 1 9 57
M  V30 59 1 12 58 CFG=3
M  V30 60 1 13 59
M  V30 61 1 13 60
M  V30 62 1 15 61
M  V30 63 1 16 62
M  V30 64 1 18 63
M  V30 65 1 19 64
M  V30 66 1 20 65
M  V30 67 1 21 66
M  V30 68 1 23 67
M  V30 69 1 23 68
M  V30 70 1 24 69
M  V30 71 1 27 70
M  V30 72 1 28 71 CFG=3
M  V30 73 1 29 72
M  V30 74 1 29 73
M  V30 75 1 31 74
M  V30 76 1 32 75
M  V30 77 1 33 76
M  V30 78 1 34 77
M  V30 79 1 35 78
M  V30 80 1 39 79
M  V30 81 1 39 80
M  V30 82 1 39 81
M  V30 83 1 40 82
M  V30 84 1 40 83
M  V30 85 1 41 84
M  V30 86 1 41 85
M  V30 87 1 45 86
M  V30 88 1 45 87
M  V30 89 1 45 88
M  V30 END BOND
M  V30 END CTAB
M  END
