
     RDKit          3D

  0  0  0  0  0  0  0  0  0  0999 V3000
M  V30 BEGIN CTAB
M  V30 COUNTS 45 47 0 0 0
M  V30 BEGIN ATOM
M  V30 1 O -6.40082 0.149661 1.41583 0
M  V30 2 C -5.82019 0.259195 0.233677 0
M  V30 3 C -4.39333 0.0170685 0.267317 0
M  V30 4 C -3.76569 -0.297862 1.48832 0
M  V30 5 C -2.41933 -0.540664 1.60123 0
M  V30 6 C -1.60499 -0.488538 0.517144 0
M  V30 7 C -2.16654 -0.185528 -0.698321 0
M  V30 8 C -3.5538 0.0633908 -0.807395 0
M  V30 9 N -0.210542 -0.724549 0.54444 0
M  V30 10 N 0.667495 0.115655 0.826433 0
M  V30 11 C 2.06906 -0.169567 0.841011 0
M  V30 12 C 2.67171 -0.923676 1.82524 0
M  V30 13 N 2.03738 -1.53547 2.96608 0
M  V30 14 N 3.97681 -0.973936 1.5053 0
M  V30 15 N 4.18573 -0.295111 0.390307 0
M  V30 16 C 3.03068 0.222008 -0.0585204 0
M  V30 17 N 2.84724 1.01002 -1.22302 0
M  V30 18 C 5.48842 -0.174377 -0.193743 0
M  V30 19 C 6.30778 -1.28012 -0.283245 0
M  V30 20 C 7.58174 -1.1967 -0.846263 0
M  V30 21 C 8.05964 -0.00406044 -1.33054 0
M  V30 22 C 7.25103 1.10506 -1.24642 0
M  V30 23 C 5.97567 1.0197 -0.682344 0
M  V30 24 N -6.69314 0.579576 -0.776797 0
M  V30 25 C -6.38503 0.768932 -2.15666 0
M  V30 26 C -8.12627 0.743093 -0.356036 0
M  V30 27 H -4.38407 -0.345945 2.36087 0
M  V30 28 H -1.9607 -0.782028 2.55852 0
M  V30 29 H -1.55048 -0.136293 -1.57521 0
M  V30 30 H -3.91069 0.29126 -1.7854 0
M  V30 31 H 1.14145 -1.1489 3.31281 0
M  V30 32 H 2.47515 -2.34563 3.42486 0
M  V30 33 H 2.5543 0.554373 -2.12209 0
M  V30 34 H 2.99739 2.05752 -1.21834 0
M  V30 35 H 5.97721 -2.24378 0.0843467 0
M  V30 36 H 8.21539 -2.05714 -0.914233 0
M  V30 37 H 9.05514 0.0791062 -1.77473 0
M  V30 38 H 7.62855 2.04338 -1.62808 0
M  V30 39 H 5.3497 1.88372 -0.618491 0
M  V30 40 H -5.69501 1.6146 -2.32774 0
M  V30 41 H -7.31902 1.08568 -2.73461 0
M  V30 42 H -5.97992 -0.127409 -2.66241 0
M  V30 43 H -8.69925 1.17698 -1.17353 0
M  V30 44 H -8.06103 1.40525 0.531338 0
M  V30 45 H -8.44479 -0.26796 -0.0584501 0
M  V30 END ATOM
M  V30 BEGIN BOND
M  V30 1 2 1 2
M  V30 2 1 2 3
M  V30 3 2 3 4
M  V30 4 1 4 5
M  V30 5 2 5 6
M  V30 6 1 6 7
M  V30 7 2 7 8
M  V30 8 1 6 9
M  V30 9 2 9 10
M  V30 10 1 10 11
M  V30 11 1 11 12
M  V30 12 1 12 13
M  V30 13 2 12 14
M  V30 14 1 14 15
M  V30 15 1 15 16
M  V30 16 1 16 17
M  V30 17 1 15 18
M  V30 18 2 18 19
M  V30 19 1 19 20
M  V30 20 2 20 21
M  V30 21 1 21 22
M  V30 22 2 22 23
M  V30 23 1 2 24
M  V30 24 1 24 25
M  V30 25 1 24 26
M  V30 26 1 8 3
M  V30 27 2 16 11
M  V30 28 1 23 18
M  V30 29 1 4 27
M  V30 30 1 5 28
M  V30 31 1 7 29
M  V30 32 1 8 30
M  V30 33 1 13 31
M  V30 34 1 13 32
M  V30 35 1 17 33
M  V30 36 1 17 34
M  V30 37 1 19 35
M  V30 38 1 20 36
M  V30 39 1 21 37
M  V30 40 1 22 38
M  V30 41 1 23 39
M  V30 42 1 25 40
M  V30 43 1 25 41
M  V30 44 1 25 42
M  V30 45 1 26 43
M  V30 46 1 26 44
M  V30 47 1 26 45
M  V30 END BOND
M  V30 END CTAB
M  END
