
     RDKit          3D

  0  0  0  0  0  0  0  0  0  0999 V3000
M  V30 BEGIN CTAB
M  V30 COUNTS 22 23 0 0 0
M  V30 BEGIN ATOM
M  V30 1 N 3.6444 1.65221 0.444046 0
M  V30 2 C 2.4898 0.832147 0.210767 0
M  V30 3 N 1.19872 1.17606 0.325184 0
M  V30 4 N 0.385167 0.184256 0.0375965 0
M  V30 5 C 1.15935 -0.867771 -0.282746 0
M  V30 6 C 2.48168 -0.495067 -0.184173 0
M  V30 7 N 0.679062 -2.15648 -0.661804 0
M  V30 8 C -1.06491 0.199357 0.0556256 0
M  V30 9 C -1.75574 0.0869457 1.23364 0
M  V30 10 C -3.12228 0.0970328 1.29117 0
M  V30 11 N -3.81687 0.222104 0.147689 0
M  V30 12 C -3.16624 0.333961 -1.02031 0
M  V30 13 C -1.78597 0.32602 -1.10039 0
M  V30 14 H 3.6714 2.41239 1.15762 0
M  V30 15 H 4.49006 1.47796 -0.125624 0
M  V30 16 H 3.37979 -1.07934 -0.366457 0
M  V30 17 H -0.137963 -2.51959 -0.130196 0
M  V30 18 H 1.10364 -2.72713 -1.42641 0
M  V30 19 H -1.18892 -0.0129945 2.14588 0
M  V30 20 H -3.65856 0.00515615 2.25082 0
M  V30 21 H -3.71433 0.435057 -1.94618 0
M  V30 22 H -1.27132 0.417715 -2.05576 0
M  V30 END ATOM
M  V30 BEGIN BOND
M  V30 1 1 1 2
M  V30 2 2 2 3
M  V30 3 1 3 4
M  V30 4 1 4 5
M  V30 5 2 5 6
M  V30 6 1 5 7
M  V30 7 1 4 8
M  V30 8 2 8 9
M  V30 9 1 9 10
M  V30 10 2 10 11
M  V30 11 1 11 12
M  V30 12 2 12 13
M  V30 13 1 6 2
M  V30 14 1 13 8
M  V30 15 1 1 14
M  V30 16 1 1 15
M  V30 17 1 6 16
M  V30 18 1 7 17
M  V30 19 1 7 18
M  V30 20 1 9 19
M  V30 21 1 10 20
M  V30 22 1 12 21
M  V30 23 1 13 22
M  V30 END BOND
M  V30 END CTAB
M  END
