
     RDKit          3D

  0  0  0  0  0  0  0  0  0  0999 V3000
M  V30 BEGIN CTAB
M  V30 COUNTS 51 53 0 0 0
M  V30 BEGIN ATOM
M  V30 1 C -0.413398 2.37598 -0.657715 0
M  V30 2 C -0.400581 0.955817 -1.18219 0
M  V30 3 N -1.6156 0.312688 -0.908962 0
M  V30 4 C -2.00905 0.12461 0.434717 0
M  V30 5 C -3.21615 -0.755792 0.393901 0 CFG=2
M  V30 6 C -3.13746 -1.43476 -0.931563 0 CFG=1
M  V30 7 C -2.02714 -0.763223 -1.72401 0
M  V30 8 N -2.75404 -2.83324 -0.804908 0
M  V30 9 C -4.47621 -0.0413846 0.625458 0
M  V30 10 C -4.89953 1.00926 -0.152683 0
M  V30 11 C -6.0948 1.67161 0.0800891 0
M  V30 12 C -6.88665 1.27875 1.11121 0
M  V30 13 C -6.49941 0.235217 1.90983 0
M  V30 14 C -5.2911 -0.425857 1.66553 0
M  V30 15 C 0.822114 0.214463 -0.799849 0
M  V30 16 O 0.680895 -0.899083 -0.290761 0
M  V30 17 N 2.07009 0.799569 -1.02868 0
M  V30 18 C 3.35368 0.269005 -0.734203 0
M  V30 19 C 4.49954 0.880428 -1.26987 0
M  V30 20 C 5.76961 0.426274 -1.01239 0
M  V30 21 C 6.00159 -0.665129 -0.206791 0
M  V30 22 C 4.90056 -1.28543 0.332886 0
M  V30 23 C 3.6043 -0.816434 0.0659099 0
M  V30 24 S 7.63349 -1.23668 0.117297 0
M  V30 25 O 7.61531 -2.7247 0.437276 0
M  V30 26 O 8.52344 -1.06515 -1.05811 0
M  V30 27 N 8.29756 -0.461882 1.5205 0
M  V30 28 H -1.02828 3.02648 -1.34142 0
M  V30 29 H 0.587039 2.8519 -0.639336 0
M  V30 30 H -0.834499 2.4513 0.362937 0
M  V30 31 H -0.319638 1.07214 -2.3075 0
M  V30 32 H -1.21694 -0.303322 1.11276 0
M  V30 33 H -2.36363 1.09481 0.904935 0
M  V30 34 H -3.06606 -1.56157 1.1739 0
M  V30 35 H -4.10067 -1.4318 -1.48379 0
M  V30 36 H -1.2399 -1.46149 -2.04217 0
M  V30 37 H -2.51321 -0.348404 -2.65037 0
M  V30 38 H -1.73178 -2.9746 -0.89355 0
M  V30 39 H -3.05054 -3.23918 0.104839 0
M  V30 40 H -4.29775 1.33537 -0.964585 0
M  V30 41 H -6.37541 2.50217 -0.576908 0
M  V30 42 H -7.82426 1.82305 1.26666 0
M  V30 43 H -7.14308 -0.0631641 2.72525 0
M  V30 44 H -5.0439 -1.2372 2.32976 0
M  V30 45 H 2.09041 1.78415 -1.48495 0
M  V30 46 H 4.34353 1.74521 -1.91096 0
M  V30 47 H 6.65744 0.909125 -1.43463 0
M  V30 48 H 5.04694 -2.14104 0.966737 0
M  V30 49 H 2.77285 -1.342 0.527191 0
M  V30 50 H 9.05002 0.194961 1.16889 0
M  V30 51 H 7.55026 0.168205 1.894 0
M  V30 END ATOM
M  V30 BEGIN BOND
M  V30 1 1 1 2
M  V30 2 1 2 3
M  V30 3 1 3 4
M  V30 4 1 4 5
M  V30 5 1 5 6
M  V30 6 1 6 7
M  V30 7 1 6 8
M  V30 8 1 5 9
M  V30 9 2 9 10
M  V30 10 1 10 11
M  V30 11 2 11 12
M  V30 12 1 12 13
M  V30 13 2 13 14
M  V30 14 1 2 15
M  V30 15 2 15 16
M  V30 16 1 15 17
M  V30 17 1 17 18
M  V30 18 2 18 19
M  V30 19 1 19 20
M  V30 20 2 20 21
M  V30 21 1 21 22
M  V30 22 2 22 23
M  V30 23 1 21 24
M  V30 24 2 24 25
M  V30 25 2 24 26
M  V30 26 1 24 27
M  V30 27 1 7 3
M  V30 28 1 14 9
M  V30 29 1 23 18
M  V30 30 1 1 28
M  V30 31 1 1 29
M  V30 32 1 1 30
M  V30 33 1 2 31
M  V30 34 1 4 32
M  V30 35 1 4 33
M  V30 36 1 5 34 CFG=1
M  V30 37 1 6 35 CFG=3
M  V30 38 1 7 36
M  V30 39 1 7 37
M  V30 40 1 8 38
M  V30 41 1 8 39
M  V30 42 1 10 40
M  V30 43 1 11 41
M  V30 44 1 12 42
M  V30 45 1 13 43
M  V30 46 1 14 44
M  V30 47 1 17 45
M  V30 48 1 19 46
M  V30 49 1 20 47
M  V30 50 1 22 48
M  V30 51 1 23 49
M  V30 52 1 27 50
M  V30 53 1 27 51
M  V30 END BOND
M  V30 END CTAB
M  END
