
     RDKit          3D

  0  0  0  0  0  0  0  0  0  0999 V3000
M  V30 BEGIN CTAB
M  V30 COUNTS 58 60 0 0 0
M  V30 BEGIN ATOM
M  V30 1 C -5.07613 -5.31141 -1.38383 0
M  V30 2 O -3.7393 -5.58341 -1.04186 0
M  V30 3 C -2.95699 -4.57024 -0.522916 0
M  V30 4 C -3.46544 -3.32476 -0.342832 0
M  V30 5 C -2.63849 -2.31594 0.188705 0
M  V30 6 C -1.33794 -2.51105 0.540351 0
M  V30 7 C -0.468335 -1.50057 1.10531 0
M  V30 8 N 0.159103 -0.56145 0.215664 0
M  V30 9 C 1.3386 -0.86918 -0.408469 0
M  V30 10 O 1.81784 -1.98158 -0.184145 0
M  V30 11 N 1.98819 -0.0442028 -1.23381 0
M  V30 12 C 3.21952 -0.379331 -1.90419 0
M  V30 13 C 4.41528 -0.100052 -1.10119 0
M  V30 14 C 5.04175 1.10638 -0.966692 0
M  V30 15 C 6.1904 1.2971 -0.190808 0
M  V30 16 N 6.78279 2.57213 -0.0968405 0
M  V30 17 C 6.71797 0.226537 0.468052 0
M  V30 18 C 6.11081 -0.994872 0.350018 0
M  V30 19 C 4.9833 -1.16423 -0.416261 0
M  V30 20 C 1.40076 1.15712 -1.43258 0
M  V30 21 O 1.99932 1.96101 -2.22317 0
M  V30 22 N 0.252945 1.50178 -0.845132 0
M  V30 23 C -0.387029 0.628472 -0.000277547 0
M  V30 24 N -1.57206 1.09682 0.617892 0
M  V30 25 C -2.11359 2.41754 0.304235 0
M  V30 26 C -3.37777 2.67551 1.10688 0
M  V30 27 N -3.93564 3.96502 0.821593 0
M  V30 28 C -3.33508 5.19484 1.17309 0
M  V30 29 N -3.61456 5.86616 2.39691 0
M  V30 30 N -2.50077 5.74553 0.370071 0
M  V30 31 C -0.854843 -3.80165 0.340927 0
M  V30 32 C -1.65129 -4.81777 -0.183298 0
M  V30 33 H -5.5118 -6.15055 -1.98045 0
M  V30 34 H -5.71279 -5.06915 -0.501214 0
M  V30 35 H -5.12477 -4.41622 -2.04808 0
M  V30 36 H -4.49859 -3.10959 -0.606138 0
M  V30 37 H -3.12436 -1.35777 0.3061 0
M  V30 38 H 0.424745 -1.98769 1.6516 0
M  V30 39 H -0.949581 -0.932826 1.92674 0
M  V30 40 H 3.3147 0.192361 -2.87523 0
M  V30 41 H 3.20302 -1.4549 -2.24576 0
M  V30 42 H 4.64727 1.97521 -1.4921 0
M  V30 43 H 6.68549 3.30932 -0.814678 0
M  V30 44 H 7.3565 2.78434 0.753191 0
M  V30 45 H 7.61035 0.311644 1.08745 0
M  V30 46 H 6.51983 -1.87393 0.872543 0
M  V30 47 H 4.58173 -2.16078 -0.46494 0
M  V30 48 H -2.07112 0.514727 1.30696 0
M  V30 49 H -2.40034 2.44843 -0.763413 0
M  V30 50 H -1.42023 3.23136 0.504158 0
M  V30 51 H -4.10055 1.89158 0.868392 0
M  V30 52 H -3.16823 2.64519 2.20239 0
M  V30 53 H -4.86496 4.04886 0.311811 0
M  V30 54 H -4.4953 6.37104 2.54264 0
M  V30 55 H -2.89765 5.8359 3.15532 0
M  V30 56 H -2.28642 5.27012 -0.524476 0
M  V30 57 H 0.149428 -4.07288 0.595828 0
M  V30 58 H -1.25972 -5.82403 -0.334303 0
M  V30 END ATOM
M  V30 BEGIN BOND
M  V30 1 1 1 2
M  V30 2 1 2 3
M  V30 3 2 3 4
M  V30 4 1 4 5
M  V30 5 2 5 6
M  V30 6 1 6 7
M  V30 7 1 7 8
M  V30 8 1 8 9
M  V30 9 2 9 10
M  V30 10 1 9 11
M  V30 11 1 11 12
M  V30 12 1 12 13
M  V30 13 2 13 14
M  V30 14 1 14 15
M  V30 15 1 15 16
M  V30 16 2 15 17
M  V30 17 1 17 18
M  V30 18 2 18 19
M  V30 19 1 11 20
M  V30 20 2 20 21
M  V30 21 1 20 22
M  V30 22 2 22 23
M  V30 23 1 23 24
M  V30 24 1 24 25
M  V30 25 1 25 26
M  V30 26 1 26 27
M  V30 27 1 27 28
M  V30 28 1 28 29
M  V30 29 2 28 30 CFG=2
M  V30 30 1 6 31
M  V30 31 2 31 32
M  V30 32 1 32 3
M  V30 33 1 23 8
M  V30 34 1 19 13
M  V30 35 1 1 33
M  V30 36 1 1 34
M  V30 37 1 1 35
M  V30 38 1 4 36
M  V30 39 1 5 37
M  V30 40 1 7 38
M  V30 41 1 7 39
M  V30 42 1 12 40
M  V30 43 1 12 41
M  V30 44 1 14 42
M  V30 45 1 16 43
M  V30 46 1 16 44
M  V30 47 1 17 45
M  V30 48 1 18 46
M  V30 49 1 19 47
M  V30 50 1 24 48
M  V30 51 1 25 49
M  V30 52 1 25 50
M  V30 53 1 26 51
M  V30 54 1 26 52
M  V30 55 1 27 53
M  V30 56 1 29 54
M  V30 57 1 29 55
M  V30 58 1 30 56
M  V30 59 1 31 57
M  V30 60 1 32 58
M  V30 END BOND
M  V30 END CTAB
M  END
