
     RDKit          3D

  0  0  0  0  0  0  0  0  0  0999 V3000
M  V30 BEGIN CTAB
M  V30 COUNTS 39 40 0 0 0
M  V30 BEGIN ATOM
M  V30 1 N -2.84858 -2.37409 -0.929115 0
M  V30 2 C -1.63473 -1.59726 -1.16285 0
M  V30 3 C -1.42955 -0.548323 -0.0907787 0
M  V30 4 C -2.61056 0.39826 -0.11144 0
M  V30 5 C -3.36616 0.563245 1.00761 0
M  V30 6 C -4.44113 1.42727 0.975096 0
M  V30 7 C -4.79063 2.13834 -0.145932 0
M  V30 8 C -4.00781 1.95161 -1.26538 0
M  V30 9 C -2.92442 1.09012 -1.25667 0
M  V30 10 S 0.101592 0.296201 -0.107228 0
M  V30 11 C 1.59152 -0.418493 0.449304 0
M  V30 12 C 2.8026 0.403253 0.148112 0
M  V30 13 C 3.10671 0.726435 -1.14824 0
M  V30 14 C 4.24189 1.49687 -1.44898 0
M  V30 15 C 5.04583 1.92262 -0.414659 0
M  V30 16 C 4.75695 1.60798 0.893951 0
M  V30 17 C 3.62271 0.842777 1.1465 0
M  V30 18 C 1.94257 -1.82654 0.126775 0
M  V30 19 N 1.08984 -2.84662 0.632675 0
M  V30 20 H -3.66755 -1.91557 -1.34368 0
M  V30 21 H -2.72494 -3.32164 -1.29221 0
M  V30 22 H -0.759431 -2.18612 -1.35603 0
M  V30 23 H -1.91273 -0.97387 -2.08748 0
M  V30 24 H -1.52049 -1.05823 0.934544 0
M  V30 25 H -3.14497 0.0273576 1.95 0
M  V30 26 H -5.08513 1.59991 1.85192 0
M  V30 27 H -5.65029 2.82789 -0.172015 0
M  V30 28 H -4.28764 2.51978 -2.16424 0
M  V30 29 H -2.33235 0.978229 -2.16191 0
M  V30 30 H 1.53289 -0.414507 1.63186 0
M  V30 31 H 2.45786 0.378043 -1.92707 0
M  V30 32 H 4.41679 1.7117 -2.474 0
M  V30 33 H 5.91773 2.5202 -0.69014 0
M  V30 34 H 5.40778 1.95597 1.68387 0
M  V30 35 H 3.40616 0.60012 2.16796 0
M  V30 36 H 2.96254 -2.00224 0.586834 0
M  V30 37 H 2.13402 -1.93389 -0.974383 0
M  V30 38 H 1.14271 -2.80016 1.67955 0
M  V30 39 H 1.45841 -3.76661 0.279147 0
M  V30 END ATOM
M  V30 BEGIN BOND
M  V30 1 1 1 2
M  V30 2 1 2 3
M  V30 3 1 3 4
M  V30 4 2 4 5
M  V30 5 1 5 6
M  V30 6 2 6 7
M  V30 7 1 7 8
M  V30 8 2 8 9
M  V30 9 1 3 10
M  V30 10 1 10 11
M  V30 11 1 11 12
M  V30 12 2 12 13
M  V30 13 1 13 14
M  V30 14 2 14 15
M  V30 15 1 15 16
M  V30 16 2 16 17
M  V30 17 1 11 18
M  V30 18 1 18 19
M  V30 19 1 9 4
M  V30 20 1 17 12
M  V30 21 1 1 20
M  V30 22 1 1 21
M  V30 23 1 2 22
M  V30 24 1 2 23
M  V30 25 1 3 24
M  V30 26 1 5 25
M  V30 27 1 6 26
M  V30 28 1 7 27
M  V30 29 1 8 28
M  V30 30 1 9 29
M  V30 31 1 11 30
M  V30 32 1 13 31
M  V30 33 1 14 32
M  V30 34 1 15 33
M  V30 35 1 16 34
M  V30 36 1 17 35
M  V30 37 1 18 36
M  V30 38 1 18 37
M  V30 39 1 19 38
M  V30 40 1 19 39
M  V30 END BOND
M  V30 END CTAB
M  END
