
     RDKit          3D

  0  0  0  0  0  0  0  0  0  0999 V3000
M  V30 BEGIN CTAB
M  V30 COUNTS 48 49 0 0 0
M  V30 BEGIN ATOM
M  V30 1 C -1.8468 -4.72166 1.7111 0
M  V30 2 C -1.03937 -3.47045 1.58391 0
M  V30 3 O -1.79322 -2.39866 1.07205 0
M  V30 4 C -1.21778 -1.14813 0.880403 0
M  V30 5 C 0.100558 -0.960055 1.19563 0
M  V30 6 C 0.665653 0.274501 1.00655 0
M  V30 7 C 2.07702 0.592824 1.31094 0
M  V30 8 C 2.98164 0.370951 0.168554 0
M  V30 9 C 2.56732 -0.0846962 -1.05828 0
M  V30 10 N 3.45758 -0.260469 -2.04886 0
M  V30 11 C 4.776 0.0113032 -1.84486 0
M  V30 12 N 5.74647 -0.157831 -2.85407 0
M  V30 13 N 5.19129 0.457374 -0.648582 0
M  V30 14 C 4.32007 0.641771 0.35971 0
M  V30 15 N 4.79362 1.12322 1.63843 0
M  V30 16 C -0.120366 1.28047 0.503948 0
M  V30 17 C -1.45795 1.10376 0.179539 0
M  V30 18 O -2.18024 2.19634 -0.333946 0
M  V30 19 C -1.56037 3.45503 -0.515356 0
M  V30 20 C -2.57725 4.42116 -1.07626 0
M  V30 21 C -2.03246 -0.122183 0.364486 0
M  V30 22 C -3.39747 -0.36727 0.0167569 0
M  V30 23 C -3.74955 -1.73491 -0.521009 0
M  V30 24 C -4.34653 0.500079 0.123402 0
M  V30 25 H -2.37343 -4.78132 2.69058 0
M  V30 26 H -2.62918 -4.73794 0.933174 0
M  V30 27 H -1.23218 -5.63617 1.61699 0
M  V30 28 H -0.534921 -3.18477 2.54557 0
M  V30 29 H -0.215109 -3.66256 0.861629 0
M  V30 30 H 0.733047 -1.74962 1.59404 0
M  V30 31 H 2.13508 1.65686 1.61013 0
M  V30 32 H 2.38884 -0.0518151 2.15836 0
M  V30 33 H 1.50629 -0.297464 -1.20377 0
M  V30 34 H 6.52584 -0.816308 -2.7029 0
M  V30 35 H 5.66667 0.378033 -3.73147 0
M  V30 36 H 4.82872 0.566896 2.49442 0
M  V30 37 H 5.11444 2.10967 1.65574 0
M  V30 38 H 0.277861 2.29312 0.330678 0
M  V30 39 H -0.700916 3.33059 -1.22411 0
M  V30 40 H -1.20244 3.88106 0.455994 0
M  V30 41 H -2.00696 5.24495 -1.5797 0
M  V30 42 H -3.11843 4.88499 -0.216113 0
M  V30 43 H -3.25627 3.94579 -1.7946 0
M  V30 44 H -4.12684 -2.33694 0.326814 0
M  V30 45 H -4.63942 -1.59159 -1.18555 0
M  V30 46 H -2.92322 -2.1852 -1.08129 0
M  V30 47 H -5.37399 0.256493 -0.160392 0
M  V30 48 H -4.20135 1.48079 0.503404 0
M  V30 END ATOM
M  V30 BEGIN BOND
M  V30 1 1 1 2
M  V30 2 1 2 3
M  V30 3 1 3 4
M  V30 4 2 4 5
M  V30 5 1 5 6
M  V30 6 1 6 7
M  V30 7 1 7 8
M  V30 8 2 8 9
M  V30 9 1 9 10
M  V30 10 2 10 11
M  V30 11 1 11 12
M  V30 12 1 11 13
M  V30 13 2 13 14
M  V30 14 1 14 15
M  V30 15 2 6 16
M  V30 16 1 16 17
M  V30 17 1 17 18
M  V30 18 1 18 19
M  V30 19 1 19 20
M  V30 20 2 17 21
M  V30 21 1 21 22
M  V30 22 1 22 23
M  V30 23 2 22 24 CFG=2
M  V30 24 1 21 4
M  V30 25 1 14 8
M  V30 26 1 1 25
M  V30 27 1 1 26
M  V30 28 1 1 27
M  V30 29 1 2 28
M  V30 30 1 2 29
M  V30 31 1 5 30
M  V30 32 1 7 31
M  V30 33 1 7 32
M  V30 34 1 9 33
M  V30 35 1 12 34
M  V30 36 1 12 35
M  V30 37 1 15 36
M  V30 38 1 15 37
M  V30 39 1 16 38
M  V30 40 1 19 39
M  V30 41 1 19 40
M  V30 42 1 20 41
M  V30 43 1 20 42
M  V30 44 1 20 43
M  V30 45 1 23 44
M  V30 46 1 23 45
M  V30 47 1 23 46
M  V30 48 1 24 47
M  V30 49 1 24 48
M  V30 END BOND
M  V30 END CTAB
M  END
