
     RDKit          3D

  0  0  0  0  0  0  0  0  0  0999 V3000
M  V30 BEGIN CTAB
M  V30 COUNTS 25 25 0 0 0
M  V30 BEGIN ATOM
M  V30 1 N 2.31018 -0.743449 0.269125 0
M  V30 2 C 1.41196 0.308171 0.530658 0
M  V30 3 C 0.308433 0.489271 -0.458545 0
M  V30 4 N 0.759972 0.761618 -1.79282 0
M  V30 5 C -0.441403 1.7548 -0.00601343 0
M  V30 6 C -1.33656 1.25529 1.11382 0
M  V30 7 C -1.46623 -0.233497 0.923997 0
M  V30 8 C -0.778229 -0.521819 -0.369205 0
M  V30 9 C -0.32019 -1.94312 -0.506014 0
M  V30 10 H 2.58745 -1.31449 1.07566 0
M  V30 11 H 2.28771 -1.18868 -0.637692 0
M  V30 12 H 2.00699 1.26961 0.528265 0
M  V30 13 H 0.945717 0.282207 1.54925 0
M  V30 14 H 1.56225 0.175859 -2.09401 0
M  V30 15 H -0.053162 0.575416 -2.43935 0
M  V30 16 H 0.253938 2.53259 0.322394 0
M  V30 17 H -1.05149 2.07601 -0.865299 0
M  V30 18 H -0.839652 1.45101 2.08396 0
M  V30 19 H -2.33558 1.69414 1.04485 0
M  V30 20 H -2.52707 -0.564649 0.815914 0
M  V30 21 H -0.974282 -0.802313 1.73904 0
M  V30 22 H -1.49634 -0.325218 -1.1936 0
M  V30 23 H 0.188981 -2.09936 -1.46161 0
M  V30 24 H 0.246562 -2.31363 0.369281 0
M  V30 25 H -1.24997 -2.57578 -0.542055 0
M  V30 END ATOM
M  V30 BEGIN BOND
M  V30 1 1 1 2
M  V30 2 1 2 3
M  V30 3 1 3 4
M  V30 4 1 3 5
M  V30 5 1 5 6
M  V30 6 1 6 7
M  V30 7 1 7 8
M  V30 8 1 8 9
M  V30 9 1 8 3
M  V30 10 1 1 10
M  V30 11 1 1 11
M  V30 12 1 2 12
M  V30 13 1 2 13
M  V30 14 1 4 14
M  V30 15 1 4 15
M  V30 16 1 5 16
M  V30 17 1 5 17
M  V30 18 1 6 18
M  V30 19 1 6 19
M  V30 20 1 7 20
M  V30 21 1 7 21
M  V30 22 1 8 22
M  V30 23 1 9 23
M  V30 24 1 9 24
M  V30 25 1 9 25
M  V30 END BOND
M  V30 END CTAB
M  END
