
     RDKit          3D

  0  0  0  0  0  0  0  0  0  0999 V3000
M  V30 BEGIN CTAB
M  V30 COUNTS 15 15 0 0 0
M  V30 BEGIN ATOM
M  V30 1 N -1.39434 1.48525 0.109876 0
M  V30 2 C -0.301899 0.580433 0.0164745 0
M  V30 3 C 0.993783 1.02869 -0.118689 0
M  V30 4 C 2.01411 0.102304 -0.20461 0
M  V30 5 Br 3.81263 0.708686 -0.39196 0
M  V30 6 C 1.71556 -1.25292 -0.153391 0
M  V30 7 N 0.433868 -1.63761 -0.020625 0
M  V30 8 C -0.582981 -0.75969 0.0657306 0
M  V30 9 N -1.94518 -1.22685 0.207766 0
M  V30 10 H -2.01212 1.48867 0.95073 0
M  V30 11 H -1.62606 2.16834 -0.631879 0
M  V30 12 H 1.19634 2.09327 -0.155786 0
M  V30 13 H 2.52993 -1.98658 -0.222063 0
M  V30 14 H -2.63821 -1.10355 -0.561849 0
M  V30 15 H -2.19543 -1.68845 1.11028 0
M  V30 END ATOM
M  V30 BEGIN BOND
M  V30 1 1 1 2
M  V30 2 2 2 3
M  V30 3 1 3 4
M  V30 4 1 4 5
M  V30 5 2 4 6
M  V30 6 1 6 7
M  V30 7 2 7 8
M  V30 8 1 8 9
M  V30 9 1 8 2
M  V30 10 1 1 10
M  V30 11 1 1 11
M  V30 12 1 3 12
M  V30 13 1 6 13
M  V30 14 1 9 14
M  V30 15 1 9 15
M  V30 END BOND
M  V30 END CTAB
M  END
