
     RDKit          3D

  0  0  0  0  0  0  0  0  0  0999 V3000
M  V30 BEGIN CTAB
M  V30 COUNTS 19 19 0 0 0
M  V30 BEGIN ATOM
M  V30 1 C 3.08093 -0.135309 -0.184177 0
M  V30 2 N 1.68094 0.20163 0.0403751 0
M  V30 3 C 0.6778 -0.610937 -0.337819 0
M  V30 4 C -0.501674 0.0228708 0.0303616 0
M  V30 5 N -0.178029 1.19837 0.619536 0
M  V30 6 C 1.16126 1.27994 0.611299 0
M  V30 7 C -1.83036 -0.525541 -0.200535 0
M  V30 8 N -2.87884 0.121624 0.169638 0
M  V30 9 N -2.74148 1.34841 0.791998 0
M  V30 10 N -1.95135 -1.80268 -0.849341 0
M  V30 11 H 3.36904 0.0720846 -1.25262 0
M  V30 12 H 3.19752 -1.22975 -0.0438836 0
M  V30 13 H 3.74285 0.412524 0.529101 0
M  V30 14 H 0.75566 -1.57013 -0.831353 0
M  V30 15 H 1.78952 2.09303 1.00373 0
M  V30 16 H -2.69488 1.42766 1.83446 0
M  V30 17 H -2.68192 2.22213 0.217723 0
M  V30 18 H -2.38731 -2.5771 -0.324969 0
M  V30 19 H -1.60968 -1.94884 -1.82352 0
M  V30 END ATOM
M  V30 BEGIN BOND
M  V30 1 1 1 2
M  V30 2 1 2 3
M  V30 3 2 3 4
M  V30 4 1 4 5
M  V30 5 2 5 6
M  V30 6 1 4 7
M  V30 7 2 7 8 CFG=2
M  V30 8 1 8 9
M  V30 9 1 7 10
M  V30 10 1 6 2
M  V30 11 1 1 11
M  V30 12 1 1 12
M  V30 13 1 1 13
M  V30 14 1 3 14
M  V30 15 1 6 15
M  V30 16 1 9 16
M  V30 17 1 9 17
M  V30 18 1 10 18
M  V30 19 1 10 19
M  V30 END BOND
M  V30 END CTAB
M  END
