
     RDKit          3D

  0  0  0  0  0  0  0  0  0  0999 V3000
M  V30 BEGIN CTAB
M  V30 COUNTS 26 26 0 0 0
M  V30 BEGIN ATOM
M  V30 1 N -3.9836 1.21254 0.447486 0
M  V30 2 C -3.60121 -0.0773945 -0.0116301 0
M  V30 3 N -4.50357 -1.16086 0.103532 0
M  V30 4 N -2.43441 -0.249895 -0.529652 0
M  V30 5 N -1.51485 0.77058 -0.666618 0
M  V30 6 S -0.0895531 0.513531 -1.62296 0
M  V30 7 O -0.493317 -0.44367 -2.72272 0
M  V30 8 O 0.27082 1.80823 -2.30117 0
M  V30 9 C 1.21209 -0.109245 -0.664798 0
M  V30 10 C 1.38145 -1.47 -0.512242 0
M  V30 11 C 2.41324 -1.99163 0.247909 0
M  V30 12 C 3.28267 -1.11237 0.859712 0
M  V30 13 C 3.16117 0.268987 0.741435 0
M  V30 14 C 2.11291 0.719733 -0.0291246 0
M  V30 15 N 4.07368 1.14958 1.38455 0 CHG=1
M  V30 16 O 5.11345 0.690554 2.14905 0 CHG=-1
M  V30 17 O 3.93522 2.37636 1.25752 0
M  V30 18 H -4.28862 1.40263 1.43373 0
M  V30 19 H -3.95411 1.99633 -0.240797 0
M  V30 20 H -5.44692 -1.06822 -0.314385 0
M  V30 21 H -4.26363 -2.04524 0.58799 0
M  V30 22 H -1.62648 1.69917 -0.224093 0
M  V30 23 H 0.66202 -2.11738 -1.02024 0
M  V30 24 H 2.51171 -3.07332 0.342941 0
M  V30 25 H 4.09873 -1.48494 1.46006 0
M  V30 26 H 1.97111 1.79596 -0.15548 0
M  V30 END ATOM
M  V30 BEGIN BOND
M  V30 1 1 1 2
M  V30 2 1 2 3
M  V30 3 2 2 4
M  V30 4 1 4 5
M  V30 5 1 5 6
M  V30 6 2 6 7
M  V30 7 2 6 8
M  V30 8 1 6 9
M  V30 9 2 9 10
M  V30 10 1 10 11
M  V30 11 2 11 12
M  V30 12 1 12 13
M  V30 13 2 13 14
M  V30 14 1 13 15
M  V30 15 1 15 16
M  V30 16 2 15 17
M  V30 17 1 14 9
M  V30 18 1 1 18
M  V30 19 1 1 19
M  V30 20 1 3 20
M  V30 21 1 3 21
M  V30 22 1 5 22
M  V30 23 1 10 23
M  V30 24 1 11 24
M  V30 25 1 12 25
M  V30 26 1 14 26
M  V30 END BOND
M  V30 END CTAB
M  END
