
     RDKit          3D

  0  0  0  0  0  0  0  0  0  0999 V3000
M  V30 BEGIN CTAB
M  V30 COUNTS 38 40 0 0 0
M  V30 BEGIN ATOM
M  V30 1 C -6.15321 -0.838207 -0.658179 0
M  V30 2 O -5.47918 -0.0675071 -1.55451 0
M  V30 3 C -4.11331 -0.0785787 -1.50777 0
M  V30 4 C -3.43458 0.546037 -0.403525 0
M  V30 5 C -2.03941 0.461047 -0.305338 0
M  V30 6 C -1.11909 -0.240112 -1.17251 0
M  V30 7 O -1.38531 -0.905973 -2.17668 0
M  V30 8 C 0.21042 0.00205121 -0.611949 0
M  V30 9 C 0.0693062 0.793068 0.508199 0
M  V30 10 C 1.1688 1.17653 1.23637 0
M  V30 11 C 2.43011 0.759293 0.833706 0
M  V30 12 C 2.58859 -0.0315394 -0.283185 0
M  V30 13 C 1.46789 -0.40453 -0.999734 0
M  V30 14 C 3.92946 -0.472715 -0.706832 0
M  V30 15 O 4.04651 -1.19246 -1.72782 0
M  V30 16 N 5.05494 -0.0697839 0.0543139 0
M  V30 17 C 5.92122 -0.927891 0.466892 0
M  V30 18 N 5.73095 -2.2863 0.146992 0
M  V30 19 N 7.02005 -0.44152 1.22334 0
M  V30 20 C -1.34099 1.08868 0.711763 0
M  V30 21 C -2.02666 1.82861 1.67167 0
M  V30 22 C -3.39473 1.92525 1.5933 0
M  V30 23 C -4.0797 1.27842 0.549609 0
M  V30 24 H -5.93455 -0.606719 0.370917 0
M  V30 25 H -5.9191 -1.9193 -0.824196 0
M  V30 26 H -7.26895 -0.716446 -0.806587 0
M  V30 27 H -3.78312 0.484607 -2.44661 0
M  V30 28 H -3.78821 -1.12368 -1.72464 0
M  V30 29 H 1.04747 1.80095 2.11921 0
M  V30 30 H 3.32181 1.05091 1.3962 0
M  V30 31 H 1.62176 -1.03511 -1.88575 0
M  V30 32 H 4.88828 -2.78581 0.466645 0
M  V30 33 H 6.43892 -2.78641 -0.410785 0
M  V30 34 H 6.88568 -0.348945 2.26612 0
M  V30 35 H 7.93235 -0.171711 0.849513 0
M  V30 36 H -1.43941 2.30056 2.44674 0
M  V30 37 H -3.92129 2.50331 2.34474 0
M  V30 38 H -5.1537 1.45194 0.575979 0
M  V30 END ATOM
M  V30 BEGIN BOND
M  V30 1 1 1 2
M  V30 2 1 2 3
M  V30 3 1 3 4
M  V30 4 2 4 5
M  V30 5 1 5 6
M  V30 6 2 6 7
M  V30 7 1 6 8
M  V30 8 2 8 9
M  V30 9 1 9 10
M  V30 10 2 10 11
M  V30 11 1 11 12
M  V30 12 2 12 13
M  V30 13 1 12 14
M  V30 14 2 14 15
M  V30 15 1 14 16
M  V30 16 2 16 17
M  V30 17 1 17 18
M  V30 18 1 17 19
M  V30 19 1 9 20
M  V30 20 2 20 21
M  V30 21 1 21 22
M  V30 22 2 22 23
M  V30 23 1 23 4
M  V30 24 1 20 5
M  V30 25 1 13 8
M  V30 26 1 1 24
M  V30 27 1 1 25
M  V30 28 1 1 26
M  V30 29 1 3 27
M  V30 30 1 3 28
M  V30 31 1 10 29
M  V30 32 1 11 30
M  V30 33 1 13 31
M  V30 34 1 18 32
M  V30 35 1 18 33
M  V30 36 1 19 34
M  V30 37 1 19 35
M  V30 38 1 21 36
M  V30 39 1 22 37
M  V30 40 1 23 38
M  V30 END BOND
M  V30 END CTAB
M  END
