
     RDKit          3D

  0  0  0  0  0  0  0  0  0  0999 V3000
M  V30 BEGIN CTAB
M  V30 COUNTS 28 28 0 0 0
M  V30 BEGIN ATOM
M  V30 1 O -3.87364 -1.32455 1.42691 0
M  V30 2 C -2.92988 -0.467293 1.28751 0
M  V30 3 C -2.32583 -0.573853 -0.0922491 0 CFG=2
M  V30 4 C -1.04685 0.170272 -0.22675 0
M  V30 5 N 0.143633 -0.460552 -0.0419671 0
M  V30 6 C 1.3346 0.139486 -0.14633 0
M  V30 7 N 1.34384 1.44416 -0.451926 0
M  V30 8 C 0.184505 2.12261 -0.646828 0
M  V30 9 N -0.999346 1.4686 -0.530307 0
M  V30 10 N 0.266927 3.50364 -0.978388 0
M  V30 11 N 2.56329 -0.564329 0.0426267 0
M  V30 12 C 2.91351 -0.923706 1.42089 0
M  V30 13 C 3.46586 -0.924513 -1.00414 0
M  V30 14 N -3.28161 -0.30419 -1.11563 0
M  V30 15 H -3.88451 -2.09278 1.66565 0
M  V30 16 H -2.19743 -0.629998 2.09828 0
M  V30 17 H -3.43422 0.545605 1.39239 0
M  V30 18 H -2.05359 -1.67247 -0.214546 0
M  V30 19 H -0.109673 3.90213 -1.87368 0
M  V30 20 H 0.713001 4.18229 -0.33983 0
M  V30 21 H 3.94385 -1.30098 1.49619 0
M  V30 22 H 2.70037 -0.0548821 2.06102 0
M  V30 23 H 2.16848 -1.71813 1.72252 0
M  V30 24 H 4.45869 -0.446165 -0.774743 0
M  V30 25 H 3.62717 -2.02937 -1.00404 0
M  V30 26 H 3.11299 -0.613441 -1.99972 0
M  V30 27 H -3.99521 -1.05835 -1.1306 0
M  V30 28 H -2.80893 -0.319242 -2.04231 0
M  V30 END ATOM
M  V30 BEGIN BOND
M  V30 1 1 1 2
M  V30 2 1 2 3
M  V30 3 1 3 4
M  V30 4 2 4 5
M  V30 5 1 5 6
M  V30 6 2 6 7
M  V30 7 1 7 8
M  V30 8 2 8 9
M  V30 9 1 8 10
M  V30 10 1 6 11
M  V30 11 1 11 12
M  V30 12 1 11 13
M  V30 13 1 3 14
M  V30 14 1 9 4
M  V30 15 1 1 15
M  V30 16 1 2 16
M  V30 17 1 2 17
M  V30 18 1 3 18 CFG=3
M  V30 19 1 10 19
M  V30 20 1 10 20
M  V30 21 1 12 21
M  V30 22 1 12 22
M  V30 23 1 12 23
M  V30 24 1 13 24
M  V30 25 1 13 25
M  V30 26 1 13 26
M  V30 27 1 14 27
M  V30 28 1 14 28
M  V30 END BOND
M  V30 END CTAB
M  END
