
     RDKit          3D

  0  0  0  0  0  0  0  0  0  0999 V3000
M  V30 BEGIN CTAB
M  V30 COUNTS 13 12 0 0 0
M  V30 BEGIN ATOM
M  V30 1 C 1.96343 -0.180467 0.108419 0
M  V30 2 S 0.876904 0.991291 -0.749937 0
M  V30 3 C -0.82989 0.460304 -0.523186 0
M  V30 4 N -1.26513 0.88887 0.742042 0
M  V30 5 N -1.01393 -0.955837 -0.656746 0
M  V30 6 H 1.75808 -1.22812 -0.187369 0
M  V30 7 H 1.80305 -0.136202 1.21142 0
M  V30 8 H 3.02066 0.0722866 -0.15266 0
M  V30 9 H -1.48567 0.919982 -1.30135 0
M  V30 10 H -1.69936 1.80059 0.845875 0
M  V30 11 H -1.28842 0.234024 1.51627 0
M  V30 12 H -0.158864 -1.49149 -0.854284 0
M  V30 13 H -1.68087 -1.37522 0.00150244 0
M  V30 END ATOM
M  V30 BEGIN BOND
M  V30 1 1 1 2
M  V30 2 1 2 3
M  V30 3 1 3 4
M  V30 4 1 3 5
M  V30 5 1 1 6
M  V30 6 1 1 7
M  V30 7 1 1 8
M  V30 8 1 3 9
M  V30 9 1 4 10
M  V30 10 1 4 11
M  V30 11 1 5 12
M  V30 12 1 5 13
M  V30 END BOND
M  V30 END CTAB
M  END
