
     RDKit          3D

  0  0  0  0  0  0  0  0  0  0999 V3000
M  V30 BEGIN CTAB
M  V30 COUNTS 27 27 0 0 0
M  V30 BEGIN ATOM
M  V30 1 C 2.28565 -0.804503 -1.29873 0
M  V30 2 C 1.81382 -0.369717 0.056556 0
M  V30 3 C 0.339643 -0.207534 -0.0081527 0
M  V30 4 N -0.512553 -0.938305 0.704721 0
M  V30 5 C -1.86231 -0.79071 0.646417 0
M  V30 6 N -2.74907 -1.58727 1.42131 0
M  V30 7 C -2.37423 0.171211 -0.199981 0
M  V30 8 C -1.49943 0.934182 -0.943424 0
M  V30 9 O -1.98575 1.81588 -1.71827 0
M  V30 10 N -0.169116 0.740428 -0.842028 0
M  V30 11 C -3.845 0.367762 -0.295974 0
M  V30 12 C 2.51358 0.86874 0.549359 0
M  V30 13 N 3.92581 0.576601 0.622574 0
M  V30 14 H 1.85628 -0.198296 -2.12249 0
M  V30 15 H 1.90263 -1.85638 -1.44585 0
M  V30 16 H 3.39514 -0.889372 -1.36896 0
M  V30 17 H 2.00941 -1.18466 0.787247 0
M  V30 18 H -2.57158 -1.63571 2.44733 0
M  V30 19 H -3.55518 -2.11891 1.032 0
M  V30 20 H 0.473948 1.34341 -1.42687 0
M  V30 21 H -4.03531 1.39991 -0.658777 0
M  V30 22 H -4.32924 0.291283 0.694563 0
M  V30 23 H -4.28413 -0.39982 -0.96265 0
M  V30 24 H 2.27088 1.70719 -0.117831 0
M  V30 25 H 2.16674 1.06868 1.58302 0
M  V30 26 H 4.43583 1.13891 1.31585 0
M  V30 27 H 4.38354 0.556995 -0.31482 0
M  V30 END ATOM
M  V30 BEGIN BOND
M  V30 1 1 1 2
M  V30 2 1 2 3
M  V30 3 2 3 4
M  V30 4 1 4 5
M  V30 5 1 5 6
M  V30 6 2 5 7
M  V30 7 1 7 8
M  V30 8 2 8 9
M  V30 9 1 8 10
M  V30 10 1 7 11
M  V30 11 1 2 12
M  V30 12 1 12 13
M  V30 13 1 10 3
M  V30 14 1 1 14
M  V30 15 1 1 15
M  V30 16 1 1 16
M  V30 17 1 2 17
M  V30 18 1 6 18
M  V30 19 1 6 19
M  V30 20 1 10 20
M  V30 21 1 11 21
M  V30 22 1 11 22
M  V30 23 1 11 23
M  V30 24 1 12 24
M  V30 25 1 12 25
M  V30 26 1 13 26
M  V30 27 1 13 27
M  V30 END BOND
M  V30 END CTAB
M  END
