
     RDKit          3D

  0  0  0  0  0  0  0  0  0  0999 V3000
M  V30 BEGIN CTAB
M  V30 COUNTS 18 17 0 0 0
M  V30 BEGIN ATOM
M  V30 1 C 4.20837 -0.629858 0.681843 0
M  V30 2 C 2.89028 -0.151753 0.249717 0
M  V30 3 C 1.81225 0.242964 -0.119115 0
M  V30 4 C 0.493558 0.723936 -0.592048 0
M  V30 5 S -0.752329 -0.283776 0.225493 0
M  V30 6 C -2.35892 0.260868 -0.315042 0
M  V30 7 N -3.40733 -0.319267 0.141145 0
M  V30 8 N -3.2579 -1.35855 1.04624 0
M  V30 9 N -2.52239 1.32953 -1.24616 0
M  V30 10 H 4.64689 -1.35423 -0.0494923 0
M  V30 11 H 4.06689 -1.09482 1.68421 0
M  V30 12 H 4.95305 0.214583 0.734173 0
M  V30 13 H 0.375653 1.80105 -0.33979 0
M  V30 14 H 0.42954 0.598629 -1.69298 0
M  V30 15 H -3.77864 -1.3318 1.93351 0
M  V30 16 H -2.63526 -2.13635 0.823751 0
M  V30 17 H -2.683 1.18047 -2.2621 0
M  V30 18 H -2.48073 2.30837 -0.903355 0
M  V30 END ATOM
M  V30 BEGIN BOND
M  V30 1 1 1 2
M  V30 2 3 2 3
M  V30 3 1 3 4
M  V30 4 1 4 5
M  V30 5 1 5 6
M  V30 6 2 6 7 CFG=2
M  V30 7 1 7 8
M  V30 8 1 6 9
M  V30 9 1 1 10
M  V30 10 1 1 11
M  V30 11 1 1 12
M  V30 12 1 4 13
M  V30 13 1 4 14
M  V30 14 1 8 15
M  V30 15 1 8 16
M  V30 16 1 9 17
M  V30 17 1 9 18
M  V30 END BOND
M  V30 END CTAB
M  END
