
     RDKit          3D

  0  0  0  0  0  0  0  0  0  0999 V3000
M  V30 BEGIN CTAB
M  V30 COUNTS 36 38 0 0 0
M  V30 BEGIN ATOM
M  V30 1 N -7.7613 0.694307 -1.8867 0
M  V30 2 C -6.7755 0.487847 -1.31027 0
M  V30 3 C -5.5588 0.224649 -0.567214 0
M  V30 4 C -4.34809 0.400799 -1.17784 0
M  V30 5 C -3.16569 0.146561 -0.459967 0
M  V30 6 C -3.3575 -0.26615 0.821825 0
M  V30 7 N -4.57965 -0.431181 1.39985 0
M  V30 8 C -5.72771 -0.193078 0.734271 0
M  V30 9 N -6.97509 -0.36475 1.37632 0
M  V30 10 S -1.76879 -0.47447 1.39968 0
M  V30 11 C -0.895826 -0.0261208 -0.0187158 0
M  V30 12 C -1.89582 0.27467 -0.907273 0
M  V30 13 N -1.53277 0.728481 -2.25244 0
M  V30 14 C 0.545803 0.0143387 -0.184861 0
M  V30 15 O 0.936021 0.386303 -1.36292 0
M  V30 16 N 1.44984 -0.306218 0.794438 0
M  V30 17 C 2.85098 -0.274626 0.666032 0
M  V30 18 C 3.59203 0.063711 1.79074 0
M  V30 19 C 4.96514 0.111545 1.7829 0
M  V30 20 C 5.64585 -0.195243 0.589243 0
M  V30 21 C 4.93509 -0.535558 -0.536505 0
M  V30 22 C 3.53594 -0.567933 -0.472259 0
M  V30 23 C 7.12719 -0.0823474 0.570327 0
M  V30 24 F 7.48017 0.759188 1.64405 0
M  V30 25 F 7.68159 -1.32751 0.685196 0
M  V30 26 F 7.52601 0.571771 -0.593116 0
M  V30 27 H -4.34626 0.736146 -2.20181 0
M  V30 28 H -7.82882 -0.599107 0.823119 0
M  V30 29 H -7.04995 -0.25298 2.41003 0
M  V30 30 H -1.56159 1.75251 -2.43524 0
M  V30 31 H -1.25287 0.0909561 -2.99729 0
M  V30 32 H 1.05299 -0.615377 1.74006 0
M  V30 33 H 3.07481 0.295904 2.73019 0
M  V30 34 H 5.49323 0.380613 2.68427 0
M  V30 35 H 5.47795 -0.765906 -1.43944 0
M  V30 36 H 3.01137 -0.841754 -1.35445 0
M  V30 END ATOM
M  V30 BEGIN BOND
M  V30 1 3 1 2
M  V30 2 1 2 3
M  V30 3 2 3 4
M  V30 4 1 4 5
M  V30 5 2 5 6
M  V30 6 1 6 7
M  V30 7 2 7 8
M  V30 8 1 8 9
M  V30 9 1 6 10
M  V30 10 1 10 11
M  V30 11 2 11 12
M  V30 12 1 12 13
M  V30 13 1 11 14
M  V30 14 2 14 15
M  V30 15 1 14 16
M  V30 16 1 16 17
M  V30 17 2 17 18
M  V30 18 1 18 19
M  V30 19 2 19 20
M  V30 20 1 20 21
M  V30 21 2 21 22
M  V30 22 1 20 23
M  V30 23 1 23 24
M  V30 24 1 23 25
M  V30 25 1 23 26
M  V30 26 1 8 3
M  V30 27 1 22 17
M  V30 28 1 12 5
M  V30 29 1 4 27
M  V30 30 1 9 28
M  V30 31 1 9 29
M  V30 32 1 13 30
M  V30 33 1 13 31
M  V30 34 1 16 32
M  V30 35 1 18 33
M  V30 36 1 19 34
M  V30 37 1 21 35
M  V30 38 1 22 36
M  V30 END BOND
M  V30 END CTAB
M  END
