
     RDKit          3D

  0  0  0  0  0  0  0  0  0  0999 V3000
M  V30 BEGIN CTAB
M  V30 COUNTS 43 44 0 0 0
M  V30 BEGIN ATOM
M  V30 1 N -5.93533 0.579902 1.40228 0
M  V30 2 C -5.99344 -0.757805 0.935675 0
M  V30 3 N -6.95162 -1.03505 0.102646 0
M  V30 4 C -5.09573 -1.82528 1.33066 0
M  V30 5 C -3.9626 -2.24087 0.507556 0
M  V30 6 N -2.94182 -1.31406 0.183069 0
M  V30 7 C -2.97678 -0.184706 -0.643211 0
M  V30 8 O -4.00292 0.149581 -1.2609 0
M  V30 9 C -1.80506 0.704728 -0.8525 0
M  V30 10 C -0.525792 0.338437 -0.566416 0
M  V30 11 C 0.560788 1.20774 -0.765865 0
M  V30 12 N 1.82323 0.702881 -0.401982 0
M  V30 13 C 3.03249 1.18613 -0.875798 0
M  V30 14 O 3.06172 2.15042 -1.71226 0
M  V30 15 C 4.33093 0.620326 -0.446187 0
M  V30 16 C 4.42429 -0.210873 0.627687 0
M  V30 17 C 5.67774 -0.735474 1.00412 0
M  V30 18 N 5.78158 -1.60094 2.12025 0
M  V30 19 C 6.82523 -0.426972 0.307666 0
M  V30 20 C 6.72392 0.41754 -0.781447 0
M  V30 21 C 5.48734 0.930854 -1.1474 0
M  V30 22 C 0.308258 2.44316 -1.25778 0
M  V30 23 C -0.994629 2.84384 -1.56012 0
M  V30 24 C -2.02756 1.98148 -1.3573 0
M  V30 25 H -5.98095 0.775972 2.41113 0
M  V30 26 H -5.84751 1.35242 0.728978 0
M  V30 27 H -7.09894 -1.97273 -0.307373 0
M  V30 28 H -4.69391 -1.60558 2.39855 0
M  V30 29 H -5.78117 -2.74057 1.49035 0
M  V30 30 H -3.47414 -3.14453 0.989603 0
M  V30 31 H -4.34059 -2.70112 -0.487447 0
M  V30 32 H -1.95756 -1.47123 0.635697 0
M  V30 33 H -0.337075 -0.668931 -0.171954 0
M  V30 34 H 1.87756 -0.111195 0.288192 0
M  V30 35 H 3.55902 -0.487893 1.2187 0
M  V30 36 H 6.46048 -2.41467 2.14034 0
M  V30 37 H 5.18516 -1.4708 2.98092 0
M  V30 38 H 7.78176 -0.843756 0.616642 0
M  V30 39 H 7.61606 0.672441 -1.34266 0
M  V30 40 H 5.37361 1.59424 -1.99433 0
M  V30 41 H 1.06556 3.17597 -1.42692 0
M  V30 42 H -1.19843 3.83689 -1.95633 0
M  V30 43 H -3.03319 2.30009 -1.59405 0
M  V30 END ATOM
M  V30 BEGIN BOND
M  V30 1 1 1 2
M  V30 2 2 2 3 CFG=2
M  V30 3 1 2 4
M  V30 4 1 4 5
M  V30 5 1 5 6
M  V30 6 1 6 7
M  V30 7 2 7 8
M  V30 8 1 7 9
M  V30 9 2 9 10
M  V30 10 1 10 11
M  V30 11 1 11 12
M  V30 12 1 12 13
M  V30 13 2 13 14
M  V30 14 1 13 15
M  V30 15 2 15 16
M  V30 16 1 16 17
M  V30 17 1 17 18
M  V30 18 2 17 19
M  V30 19 1 19 20
M  V30 20 2 20 21
M  V30 21 2 11 22
M  V30 22 1 22 23
M  V30 23 2 23 24
M  V30 24 1 24 9
M  V30 25 1 21 15
M  V30 26 1 1 25
M  V30 27 1 1 26
M  V30 28 1 3 27
M  V30 29 1 4 28
M  V30 30 1 4 29
M  V30 31 1 5 30
M  V30 32 1 5 31
M  V30 33 1 6 32
M  V30 34 1 10 33
M  V30 35 1 12 34
M  V30 36 1 16 35
M  V30 37 1 18 36
M  V30 38 1 18 37
M  V30 39 1 19 38
M  V30 40 1 20 39
M  V30 41 1 21 40
M  V30 42 1 22 41
M  V30 43 1 23 42
M  V30 44 1 24 43
M  V30 END BOND
M  V30 END CTAB
M  END
