
     RDKit          3D

  0  0  0  0  0  0  0  0  0  0999 V3000
M  V30 BEGIN CTAB
M  V30 COUNTS 38 38 0 0 0
M  V30 BEGIN ATOM
M  V30 1 N 4.2027 1.17175 1.67611 0
M  V30 2 C 4.9053 0.646478 0.522946 0
M  V30 3 C 4.16951 -0.576959 0.037886 0
M  V30 4 N 2.80903 -0.19221 -0.326223 0
M  V30 5 C 1.9292 -1.18121 -0.810864 0
M  V30 6 O 2.29343 -2.36921 -0.931789 0
M  V30 7 C 0.545257 -0.792838 -1.18186 0
M  V30 8 C -0.160937 -0.144477 -0.0236973 0
M  V30 9 C -1.56392 0.303687 -0.295382 0
M  V30 10 C -2.51709 -0.728359 -0.674154 0
M  V30 11 C -3.96123 -0.502614 -0.321975 0
M  V30 12 C -4.18787 0.337454 0.88365 0
M  V30 13 C -3.38046 1.62746 0.680469 0
M  V30 14 C -1.9576 1.18798 0.866047 0
M  V30 15 N -0.207834 -1.93184 -1.65558 0
M  V30 16 H 4.82667 1.22558 2.52954 0
M  V30 17 H 3.87829 2.16207 1.52242 0
M  V30 18 H 4.8179 1.4115 -0.287791 0
M  V30 19 H 5.96164 0.44664 0.716023 0
M  V30 20 H 4.07665 -1.25762 0.92466 0
M  V30 21 H 4.63769 -1.07363 -0.812624 0
M  V30 22 H 2.49275 0.796013 -0.229954 0
M  V30 23 H 0.612933 -0.00662257 -1.98723 0
M  V30 24 H -0.210999 -0.877106 0.844792 0
M  V30 25 H 0.465506 0.685313 0.404724 0
M  V30 26 H -1.49653 1.04662 -1.15754 0
M  V30 27 H -2.5214 -0.944665 -1.77745 0
M  V30 28 H -2.25288 -1.6961 -0.195783 0
M  V30 29 H -4.4967 0.00796598 -1.1749 0
M  V30 30 H -4.51609 -1.45477 -0.177115 0
M  V30 31 H -3.8315 -0.213675 1.77082 0
M  V30 32 H -5.22896 0.649259 0.976365 0
M  V30 33 H -3.70492 2.41398 1.3745 0
M  V30 34 H -3.5028 1.90956 -0.386716 0
M  V30 35 H -1.80218 0.662623 1.83831 0
M  V30 36 H -1.3329 2.09762 0.910088 0
M  V30 37 H 0.0612072 -2.0785 -2.66292 0
M  V30 38 H 0.149118 -2.76717 -1.10937 0
M  V30 END ATOM
M  V30 BEGIN BOND
M  V30 1 1 1 2
M  V30 2 1 2 3
M  V30 3 1 3 4
M  V30 4 1 4 5
M  V30 5 2 5 6
M  V30 6 1 5 7
M  V30 7 1 7 8
M  V30 8 1 8 9
M  V30 9 1 9 10
M  V30 10 1 10 11
M  V30 11 1 11 12
M  V30 12 1 12 13
M  V30 13 1 13 14
M  V30 14 1 7 15
M  V30 15 1 14 9
M  V30 16 1 1 16
M  V30 17 1 1 17
M  V30 18 1 2 18
M  V30 19 1 2 19
M  V30 20 1 3 20
M  V30 21 1 3 21
M  V30 22 1 4 22
M  V30 23 1 7 23
M  V30 24 1 8 24
M  V30 25 1 8 25
M  V30 26 1 9 26
M  V30 27 1 10 27
M  V30 28 1 10 28
M  V30 29 1 11 29
M  V30 30 1 11 30
M  V30 31 1 12 31
M  V30 32 1 12 32
M  V30 33 1 13 33
M  V30 34 1 13 34
M  V30 35 1 14 35
M  V30 36 1 14 36
M  V30 37 1 15 37
M  V30 38 1 15 38
M  V30 END BOND
M  V30 END CTAB
M  END
