
     RDKit          3D

  0  0  0  0  0  0  0  0  0  0999 V3000
M  V30 BEGIN CTAB
M  V30 COUNTS 120 124 0 0 0
M  V30 BEGIN ATOM
M  V30 1 C 0.248084 5.79518 1.00217 0
M  V30 2 C 0.244059 5.13471 2.35074 0
M  V30 3 C -0.649938 3.96386 2.42322 0
M  V30 4 O -0.444139 2.86312 1.65413 0
M  V30 5 C -0.370944 2.75813 0.197349 0
M  V30 6 C -1.51048 2.61964 -0.560525 0
M  V30 7 C -2.96449 2.31889 -0.191918 0
M  V30 8 C -3.22459 0.81619 -0.316665 0
M  V30 9 C -3.97559 0.603575 -1.50067 0
M  V30 10 C -4.26571 -0.63075 -2.00649 0
M  V30 11 C -3.76396 -1.66064 -1.26964 0
M  V30 12 C -3.01939 -1.53617 -0.0979367 0
M  V30 13 C -2.51366 -2.89725 0.318114 0
M  V30 14 C -1.03814 -3.06204 0.0138507 0
M  V30 15 C -0.909835 -3.23289 -1.36306 0
M  V30 16 C 0.284423 -3.23879 -2.04403 0
M  V30 17 N 0.390657 -3.41315 -3.43756 0
M  V30 18 C 1.36161 -3.05281 -1.22889 0
M  V30 19 C 1.29037 -2.87353 0.176919 0
M  V30 20 C 2.69258 -2.49301 0.626548 0
M  V30 21 C 2.99458 -1.04773 0.246653 0
M  V30 22 C 3.91683 -1.05703 -0.802393 0
M  V30 23 C 4.32302 0.0549761 -1.48956 0
M  V30 24 C 3.71641 1.19945 -1.03515 0
M  V30 25 C 2.79086 1.28755 0.00130024 0
M  V30 26 C 2.2594 2.70089 0.0367126 0
M  V30 27 C 0.829983 2.80002 -0.460209 0
M  V30 28 C 0.84482 2.7187 -1.85741 0
M  V30 29 C -0.24962 2.59153 -2.66834 0
M  V30 30 N -0.179181 2.5182 -4.07359 0
M  V30 31 C -1.41542 2.54472 -1.95467 0
M  V30 32 C 2.41966 0.130911 0.674239 0
M  V30 33 O 1.4681 0.184124 1.79477 0
M  V30 34 C 1.78292 0.329025 3.12599 0
M  V30 35 C 2.52663 1.5697 3.50914 0
M  V30 36 C 2.76007 1.51421 5.02087 0
M  V30 37 C 5.30445 0.0246425 -2.58563 0
M  V30 38 C 4.98114 0.934924 -3.73039 0
M  V30 39 C 5.41195 -1.40319 -3.08598 0
M  V30 40 C 6.66617 0.374654 -2.02002 0
M  V30 41 C 0.0844523 -2.88283 0.829164 0
M  V30 42 O -0.021009 -2.72616 2.2716 0
M  V30 43 C -0.0111649 -3.7787 3.19162 0
M  V30 44 C 1.23569 -4.60254 3.15232 0
M  V30 45 C 1.12515 -5.70973 4.17136 0
M  V30 46 C -2.74094 -0.257143 0.411246 0
M  V30 47 O -1.9977 -0.0667961 1.64929 0
M  V30 48 C -2.48891 0.00401113 2.93875 0
M  V30 49 C -3.45955 1.09186 3.2345 0
M  V30 50 C -3.8395 0.962089 4.7128 0
M  V30 51 C -5.04857 -0.798114 -3.23831 0
M  V30 52 C -6.37255 -1.49362 -3.01597 0
M  V30 53 C -5.34441 0.547933 -3.85385 0
M  V30 54 C -4.22067 -1.5492 -4.29383 0
M  V30 55 H 1.25814 5.7076 0.553266 0
M  V30 56 H 0.0908021 6.91618 1.09832 0
M  V30 57 H -0.572956 5.46044 0.369713 0
M  V30 58 H 1.27992 4.84295 2.65717 0
M  V30 59 H -0.0589262 5.91643 3.08753 0
M  V30 60 H -1.72772 4.35291 2.32467 0
M  V30 61 H -0.655521 3.60496 3.49785 0
M  V30 62 H -3.43706 2.83623 0.620155 0
M  V30 63 H -3.61426 2.86952 -0.995801 0
M  V30 64 H -4.38713 1.46231 -2.06334 0
M  V30 65 H -4.02465 -2.65548 -1.70449 0
M  V30 66 H -2.96858 -3.35448 1.19502 0
M  V30 67 H -2.97701 -3.66044 -0.399473 0
M  V30 68 H -1.79154 -3.37936 -2.02847 0
M  V30 69 H -0.229277 -2.91667 -4.10794 0
M  V30 70 H 1.10819 -4.05572 -3.81549 0
M  V30 71 H 2.34465 -3.04988 -1.75178 0
M  V30 72 H 3.40579 -3.20953 0.0371902 0
M  V30 73 H 3.09974 -2.71577 1.58274 0
M  V30 74 H 4.39487 -2.01576 -1.13699 0
M  V30 75 H 4.04757 2.12371 -1.59041 0
M  V30 76 H 2.57158 3.2159 0.911057 0
M  V30 77 H 2.85531 3.36624 -0.73277 0
M  V30 78 H 1.83983 2.75777 -2.39376 0
M  V30 79 H -0.658096 1.76528 -4.59235 0
M  V30 80 H 0.353422 3.21195 -4.64756 0
M  V30 81 H -2.35103 2.44127 -2.57381 0
M  V30 82 H 0.857915 0.288162 3.69747 0
M  V30 83 H 2.36362 -0.600611 3.41716 0
M  V30 84 H 2.04434 2.49554 3.18789 0
M  V30 85 H 3.55054 1.59209 3.04784 0
M  V30 86 H 3.73654 1.92706 5.26133 0
M  V30 87 H 2.64675 0.469831 5.37898 0
M  V30 88 H 1.92174 2.12801 5.45227 0
M  V30 89 H 5.31008 0.422392 -4.66183 0
M  V30 90 H 3.88155 1.09942 -3.85812 0
M  V30 91 H 5.55067 1.87685 -3.65273 0
M  V30 92 H 5.9436 -1.4114 -4.06868 0
M  V30 93 H 4.4363 -1.87793 -3.25957 0
M  V30 94 H 6.01676 -1.99246 -2.34415 0
M  V30 95 H 6.70332 1.40542 -1.63323 0
M  V30 96 H 6.93751 -0.29184 -1.16734 0
M  V30 97 H 7.41203 0.1776 -2.80578 0
M  V30 98 H -0.0964393 -3.31315 4.18891 0
M  V30 99 H -0.930693 -4.38004 3.03706 0
M  V30 100 H 1.40475 -4.99226 2.13077 0
M  V30 101 H 2.13767 -3.96778 3.37756 0
M  V30 102 H 1.91812 -6.47524 3.99628 0
M  V30 103 H 0.131593 -6.20085 4.08651 0
M  V30 104 H 1.19533 -5.28078 5.19023 0
M  V30 105 H -1.61207 0.103741 3.60498 0
M  V30 106 H -2.92603 -1.00496 3.19581 0
M  V30 107 H -4.40912 0.846658 2.68551 0
M  V30 108 H -3.09355 2.08175 2.96765 0
M  V30 109 H -4.85037 1.3489 4.87596 0
M  V30 110 H -3.06184 1.44751 5.36652 0
M  V30 111 H -3.81122 -0.119149 4.97629 0
M  V30 112 H -6.94294 -0.891085 -2.28788 0
M  V30 113 H -6.92095 -1.42492 -3.98298 0
M  V30 114 H -6.19596 -2.52758 -2.70359 0
M  V30 115 H -4.40795 1.14138 -4.04195 0
M  V30 116 H -6.0068 1.14207 -3.19447 0
M  V30 117 H -5.88856 0.436028 -4.82521 0
M  V30 118 H -4.77306 -1.52576 -5.2442 0
M  V30 119 H -3.30362 -0.941084 -4.42168 0
M  V30 120 H -3.97963 -2.54368 -3.92248 0
M  V30 END ATOM
M  V30 BEGIN BOND
M  V30 1 1 1 2
M  V30 2 1 2 3
M  V30 3 1 3 4
M  V30 4 1 4 5
M  V30 5 2 5 6
M  V30 6 1 6 7
M  V30 7 1 7 8
M  V30 8 2 8 9
M  V30 9 1 9 10
M  V30 10 2 10 11
M  V30 11 1 11 12
M  V30 12 1 12 13
M  V30 13 1 13 14
M  V30 14 2 14 15
M  V30 15 1 15 16
M  V30 16 1 16 17
M  V30 17 2 16 18
M  V30 18 1 18 19
M  V30 19 1 19 20
M  V30 20 1 20 21
M  V30 21 2 21 22
M  V30 22 1 22 23
M  V30 23 2 23 24
M  V30 24 1 24 25
M  V30 25 1 25 26
M  V30 26 1 26 27
M  V30 27 2 27 28
M  V30 28 1 28 29
M  V30 29 1 29 30
M  V30 30 2 29 31
M  V30 31 2 25 32
M  V30 32 1 32 33
M  V30 33 1 33 34
M  V30 34 1 34 35
M  V30 35 1 35 36
M  V30 36 1 23 37
M  V30 37 1 37 38
M  V30 38 1 37 39
M  V30 39 1 37 40
M  V30 40 2 19 41
M  V30 41 1 41 42
M  V30 42 1 42 43
M  V30 43 1 43 44
M  V30 44 1 44 45
M  V30 45 2 12 46
M  V30 46 1 46 47
M  V30 47 1 47 48
M  V30 48 1 48 49
M  V30 49 1 49 50
M  V30 50 1 10 51
M  V30 51 1 51 52
M  V30 52 1 51 53
M  V30 53 1 51 54
M  V30 54 1 27 5
M  V30 55 1 31 6
M  V30 56 1 46 8
M  V30 57 1 41 14
M  V30 58 1 32 21
M  V30 59 1 1 55
M  V30 60 1 1 56
M  V30 61 1 1 57
M  V30 62 1 2 58
M  V30 63 1 2 59
M  V30 64 1 3 60
M  V30 65 1 3 61
M  V30 66 1 7 62
M  V30 67 1 7 63
M  V30 68 1 9 64
M  V30 69 1 11 65
M  V30 70 1 13 66
M  V30 71 1 13 67
M  V30 72 1 15 68
M  V30 73 1 17 69
M  V30 74 1 17 70
M  V30 75 1 18 71
M  V30 76 1 20 72
M  V30 77 1 20 73
M  V30 78 1 22 74
M  V30 79 1 24 75
M  V30 80 1 26 76
M  V30 81 1 26 77
M  V30 82 1 28 78
M  V30 83 1 30 79
M  V30 84 1 30 80
M  V30 85 1 31 81
M  V30 86 1 34 82
M  V30 87 1 34 83
M  V30 88 1 35 84
M  V30 89 1 35 85
M  V30 90 1 36 86
M  V30 91 1 36 87
M  V30 92 1 36 88
M  V30 93 1 38 89
M  V30 94 1 38 90
M  V30 95 1 38 91
M  V30 96 1 39 92
M  V30 97 1 39 93
M  V30 98 1 39 94
M  V30 99 1 40 95
M  V30 100 1 40 96
M  V30 101 1 40 97
M  V30 102 1 43 98
M  V30 103 1 43 99
M  V30 104 1 44 100
M  V30 105 1 44 101
M  V30 106 1 45 102
M  V30 107 1 45 103
M  V30 108 1 45 104
M  V30 109 1 48 105
M  V30 110 1 48 106
M  V30 111 1 49 107
M  V30 112 1 49 108
M  V30 113 1 50 109
M  V30 114 1 50 110
M  V30 115 1 50 111
M  V30 116 1 52 112
M  V30 117 1 52 113
M  V30 118 1 52 114
M  V30 119 1 53 115
M  V30 120 1 53 116
M  V30 121 1 53 117
M  V30 122 1 54 118
M  V30 123 1 54 119
M  V30 124 1 54 120
M  V30 END BOND
M  V30 END CTAB
M  END
