
     RDKit          3D

  0  0  0  0  0  0  0  0  0  0999 V3000
M  V30 BEGIN CTAB
M  V30 COUNTS 26 25 0 0 0
M  V30 BEGIN ATOM
M  V30 1 N -1.503 -2.05169 0.614762 0
M  V30 2 C -2.22612 -1.29044 -0.372952 0
M  V30 3 C -1.36796 -0.55675 -1.34728 0
M  V30 4 N -0.479094 0.398522 -0.76393 0
M  V30 5 S -0.84839 2.0482 -0.469862 0
M  V30 6 O 0.380104 2.89616 -0.777908 0
M  V30 7 O -1.15927 2.31268 0.984724 0
M  V30 8 N -2.10248 2.64362 -1.46776 0
M  V30 9 C 0.826107 -0.063148 -0.399539 0
M  V30 10 O 1.20274 -1.2593 -0.578208 0
M  V30 11 O 1.77791 0.774892 0.180032 0
M  V30 12 C 3.0656 0.300205 0.530862 0
M  V30 13 C 3.05392 -0.818355 1.52457 0
M  V30 14 H -2.14592 -2.14323 1.44817 0
M  V30 15 H -1.269 -2.98741 0.2435 0
M  V30 16 H -3.00607 -0.66706 0.106754 0
M  V30 17 H -2.80666 -2.04905 -0.979279 0
M  V30 18 H -0.773954 -1.33525 -1.90511 0
M  V30 19 H -2.03346 -0.107871 -2.10964 0
M  V30 20 H -2.00643 3.65378 -1.70364 0
M  V30 21 H -3.0274 2.53583 -0.991332 0
M  V30 22 H 3.55704 -0.0737439 -0.40488 0
M  V30 23 H 3.63602 1.17501 0.909158 0
M  V30 24 H 3.69571 -1.68046 1.17729 0
M  V30 25 H 3.52545 -0.494221 2.48314 0
M  V30 26 H 2.03461 -1.16093 1.73953 0
M  V30 END ATOM
M  V30 BEGIN BOND
M  V30 1 1 1 2
M  V30 2 1 2 3
M  V30 3 1 3 4
M  V30 4 1 4 5
M  V30 5 2 5 6
M  V30 6 2 5 7
M  V30 7 1 5 8
M  V30 8 1 4 9
M  V30 9 2 9 10
M  V30 10 1 9 11
M  V30 11 1 11 12
M  V30 12 1 12 13
M  V30 13 1 1 14
M  V30 14 1 1 15
M  V30 15 1 2 16
M  V30 16 1 2 17
M  V30 17 1 3 18
M  V30 18 1 3 19
M  V30 19 1 8 20
M  V30 20 1 8 21
M  V30 21 1 12 22
M  V30 22 1 12 23
M  V30 23 1 13 24
M  V30 24 1 13 25
M  V30 25 1 13 26
M  V30 END BOND
M  V30 END CTAB
M  END
