
     RDKit          3D

  0  0  0  0  0  0  0  0  0  0999 V3000
M  V30 BEGIN CTAB
M  V30 COUNTS 53 55 0 0 0
M  V30 BEGIN ATOM
M  V30 1 N 8.12463 1.21142 1.07086 0
M  V30 2 C 7.45974 0.0952662 0.492748 0
M  V30 3 N 6.28581 0.206935 -0.138189 0
M  V30 4 C 5.64795 -0.855346 -0.689162 0
M  V30 5 S 4.0892 -0.654859 -1.53068 0
M  V30 6 C 2.7647 -0.832609 -0.301956 0
M  V30 7 C 1.4259 -0.622373 -0.929979 0
M  V30 8 O 1.14548 -1.28884 -1.94078 0
M  V30 9 C 0.517034 0.346964 -0.339766 0
M  V30 10 C 0.679198 1.09519 0.797399 0
M  V30 11 C -0.426462 1.86838 0.960187 0
M  V30 12 N -1.27712 1.60156 -0.0756552 0
M  V30 13 C -0.714477 0.692218 -0.853925 0
M  V30 14 C -1.27405 0.102635 -2.13981 0
M  V30 15 C -2.52835 2.3012 -0.220201 0
M  V30 16 C -3.69251 1.81214 0.523746 0
M  V30 17 C -4.26014 0.498431 0.260071 0
M  V30 18 C -4.30438 -0.48367 1.15236 0
M  V30 19 C -4.86066 -1.82853 0.95603 0
M  V30 20 C -5.73473 -2.00511 -0.244907 0
M  V30 21 C -6.17859 -0.659036 -0.757065 0
M  V30 22 C -4.92906 0.164122 -1.05449 0
M  V30 23 C -0.654917 2.82585 2.07315 0
M  V30 24 N 6.23406 -2.05751 -0.586707 0
M  V30 25 C 7.42056 -2.23438 0.0380511 0
M  V30 26 N 7.99967 -1.13772 0.562832 0
M  V30 27 N 8.05631 -3.49822 0.151096 0
M  V30 28 H 8.90386 1.11207 1.75164 0
M  V30 29 H 7.83031 2.17456 0.810617 0
M  V30 30 H 2.9709 -0.0779857 0.48137 0
M  V30 31 H 2.75593 -1.81518 0.186265 0
M  V30 32 H 1.57889 1.03128 1.42718 0
M  V30 33 H -0.5256 0.175768 -2.96068 0
M  V30 34 H -2.15796 0.681877 -2.42633 0
M  V30 35 H -1.47002 -0.965987 -1.95425 0
M  V30 36 H -2.79195 2.35595 -1.29879 0
M  V30 37 H -2.36785 3.38104 0.0775751 0
M  V30 38 H -3.52881 1.96265 1.65281 0
M  V30 39 H -4.51483 2.59845 0.353164 0
M  V30 40 H -3.8796 -0.248224 2.126 0
M  V30 41 H -5.44798 -2.06171 1.89924 0
M  V30 42 H -4.04087 -2.59025 0.984729 0
M  V30 43 H -6.60625 -2.63589 0.028583 0
M  V30 44 H -5.1269 -2.54973 -1.01106 0
M  V30 45 H -6.70529 -0.797548 -1.71433 0
M  V30 46 H -6.81232 -0.182364 -0.00047427 0
M  V30 47 H -5.23113 1.09274 -1.57024 0
M  V30 48 H -4.27052 -0.464319 -1.64243 0
M  V30 49 H 0.313403 3.08637 2.51348 0
M  V30 50 H -1.21002 2.28218 2.89474 0
M  V30 51 H -1.2293 3.70924 1.73434 0
M  V30 52 H 8.77083 -3.79869 -0.512252 0
M  V30 53 H 7.77828 -4.1204 0.932545 0
M  V30 END ATOM
M  V30 BEGIN BOND
M  V30 1 1 1 2
M  V30 2 2 2 3
M  V30 3 1 3 4
M  V30 4 1 4 5
M  V30 5 1 5 6
M  V30 6 1 6 7
M  V30 7 2 7 8
M  V30 8 1 7 9
M  V30 9 1 9 10
M  V30 10 2 10 11
M  V30 11 1 11 12
M  V30 12 1 12 13
M  V30 13 1 13 14
M  V30 14 1 12 15
M  V30 15 1 15 16
M  V30 16 1 16 17
M  V30 17 2 17 18
M  V30 18 1 18 19
M  V30 19 1 19 20
M  V30 20 1 20 21
M  V30 21 1 21 22
M  V30 22 1 11 23
M  V30 23 2 4 24
M  V30 24 1 24 25
M  V30 25 2 25 26
M  V30 26 1 25 27
M  V30 27 1 26 2
M  V30 28 2 13 9
M  V30 29 1 22 17
M  V30 30 1 1 28
M  V30 31 1 1 29
M  V30 32 1 6 30
M  V30 33 1 6 31
M  V30 34 1 10 32
M  V30 35 1 14 33
M  V30 36 1 14 34
M  V30 37 1 14 35
M  V30 38 1 15 36
M  V30 39 1 15 37
M  V30 40 1 16 38
M  V30 41 1 16 39
M  V30 42 1 18 40
M  V30 43 1 19 41
M  V30 44 1 19 42
M  V30 45 1 20 43
M  V30 46 1 20 44
M  V30 47 1 21 45
M  V30 48 1 21 46
M  V30 49 1 22 47
M  V30 50 1 22 48
M  V30 51 1 23 49
M  V30 52 1 23 50
M  V30 53 1 23 51
M  V30 54 1 27 52
M  V30 55 1 27 53
M  V30 END BOND
M  V30 END CTAB
M  END
