
     RDKit          3D

  0  0  0  0  0  0  0  0  0  0999 V3000
M  V30 BEGIN CTAB
M  V30 COUNTS 42 44 0 0 0
M  V30 BEGIN ATOM
M  V30 1 O 2.07253 -2.1156 1.65101 0
M  V30 2 C 1.61413 -1.1502 0.906585 0
M  V30 3 C 2.49541 -0.0737058 0.615619 0
M  V30 4 N 3.72178 -0.14005 1.46763 0
M  V30 5 C 2.02032 1.34634 0.784143 0
M  V30 6 C 3.32339 2.08177 0.432306 0
M  V30 7 C 4.0517 1.1848 -0.557713 0
M  V30 8 C 3.06204 0.0242542 -0.802752 0
M  V30 9 N 0.268379 -1.3425 0.501763 0
M  V30 10 C -0.385547 -2.56902 0.971283 0
M  V30 11 C -1.56565 -2.8767 0.12389 0
M  V30 12 O -2.4014 -1.73726 0.135949 0
M  V30 13 C -1.83805 -0.833574 -0.735706 0
M  V30 14 C -0.46384 -0.414821 -0.298153 0
M  V30 15 C -2.70543 0.366722 -0.811586 0
M  V30 16 N -2.15138 1.58452 -0.672855 0
M  V30 17 C -2.88804 2.70466 -0.741872 0
M  V30 18 C -4.23825 2.6067 -0.958819 0
M  V30 19 N -4.8434 1.40559 -1.10473 0
M  V30 20 C -4.05575 0.292048 -1.02729 0
M  V30 21 N -4.6434 -0.986804 -1.17223 0
M  V30 22 H 3.87741 -1.13055 1.77209 0
M  V30 23 H 3.56953 0.457286 2.31845 0
M  V30 24 H 1.64314 1.5825 1.77364 0
M  V30 25 H 1.35054 1.58338 -0.0652005 0
M  V30 26 H 3.12224 3.02793 -0.0611227 0
M  V30 27 H 3.88088 2.23588 1.36098 0
M  V30 28 H 4.92275 0.712115 -0.0738718 0
M  V30 29 H 4.30451 1.7003 -1.48239 0
M  V30 30 H 2.3146 0.423666 -1.47048 0
M  V30 31 H 3.58797 -0.881026 -1.10656 0
M  V30 32 H -0.762486 -2.30645 1.99181 0
M  V30 33 H 0.346942 -3.4063 1.02062 0
M  V30 34 H -1.28932 -3.00542 -0.959588 0
M  V30 35 H -2.08263 -3.76752 0.479219 0
M  V30 36 H -1.69721 -1.27999 -1.75939 0
M  V30 37 H -0.652488 0.486355 0.377749 0
M  V30 38 H 0.126557 -0.0684062 -1.18877 0
M  V30 39 H -2.45226 3.68296 -0.633731 0
M  V30 40 H -4.84626 3.49871 -1.0176 0
M  V30 41 H -4.72373 -1.40616 -2.11064 0
M  V30 42 H -4.9902 -1.49642 -0.341749 0
M  V30 END ATOM
M  V30 BEGIN BOND
M  V30 1 2 1 2
M  V30 2 1 2 3
M  V30 3 1 3 4
M  V30 4 1 3 5
M  V30 5 1 5 6
M  V30 6 1 6 7
M  V30 7 1 7 8
M  V30 8 1 2 9
M  V30 9 1 9 10
M  V30 10 1 10 11
M  V30 11 1 11 12
M  V30 12 1 12 13
M  V30 13 1 13 14
M  V30 14 1 13 15
M  V30 15 2 15 16
M  V30 16 1 16 17
M  V30 17 2 17 18
M  V30 18 1 18 19
M  V30 19 2 19 20
M  V30 20 1 20 21
M  V30 21 1 8 3
M  V30 22 1 14 9
M  V30 23 1 20 15
M  V30 24 1 4 22
M  V30 25 1 4 23
M  V30 26 1 5 24
M  V30 27 1 5 25
M  V30 28 1 6 26
M  V30 29 1 6 27
M  V30 30 1 7 28
M  V30 31 1 7 29
M  V30 32 1 8 30
M  V30 33 1 8 31
M  V30 34 1 10 32
M  V30 35 1 10 33
M  V30 36 1 11 34
M  V30 37 1 11 35
M  V30 38 1 13 36
M  V30 39 1 14 37
M  V30 40 1 14 38
M  V30 41 1 17 39
M  V30 42 1 18 40
M  V30 43 1 21 41
M  V30 44 1 21 42
M  V30 END BOND
M  V30 END CTAB
M  END
