
     RDKit          3D

  0  0  0  0  0  0  0  0  0  0999 V3000
M  V30 BEGIN CTAB
M  V30 COUNTS 35 36 0 0 0
M  V30 BEGIN ATOM
M  V30 1 N 6.24346 -0.475652 0.323377 0
M  V30 2 C 4.82159 -0.499866 0.31779 0
M  V30 3 N 4.18395 -1.57249 -0.212964 0
M  V30 4 C 2.83809 -1.60282 -0.221918 0
M  V30 5 C 2.14031 -0.5499 0.305126 0
M  V30 6 C 2.75023 0.567355 0.858212 0
M  V30 7 C 4.13196 0.567941 0.852201 0
M  V30 8 N 4.88387 1.65014 1.38717 0
M  V30 9 O 0.765712 -0.580618 0.296109 0
M  V30 10 C -0.0165008 -1.61785 -0.216422 0
M  V30 11 C -1.47338 -1.23935 -0.0215229 0
M  V30 12 C -1.76691 0.0490105 -0.756556 0
M  V30 13 C -3.16001 0.455309 -0.59852 0
M  V30 14 C -3.54334 1.26589 0.439932 0
M  V30 15 C -4.84969 1.64271 0.582154 0
M  V30 16 C -5.84301 1.23438 -0.299072 0
M  V30 17 C -5.46085 0.415629 -1.34951 0
M  V30 18 C -4.13567 0.0357558 -1.4904 0
M  V30 19 H 6.7663 -0.666578 -0.559724 0
M  V30 20 H 6.80256 -0.271322 1.1885 0
M  V30 21 H 2.29924 -2.45718 -0.644529 0
M  V30 22 H 2.19292 1.39154 1.27081 0
M  V30 23 H 5.82339 1.54328 1.8287 0
M  V30 24 H 4.47982 2.61113 1.3396 0
M  V30 25 H 0.207308 -1.87622 -1.26974 0
M  V30 26 H 0.161056 -2.51475 0.428869 0
M  V30 27 H -1.63311 -1.09237 1.05093 0
M  V30 28 H -2.11469 -2.02497 -0.453433 0
M  V30 29 H -1.58789 -0.150011 -1.84054 0
M  V30 30 H -1.03788 0.847479 -0.453144 0
M  V30 31 H -2.80403 1.61175 1.15555 0
M  V30 32 H -5.10937 2.28349 1.41616 0
M  V30 33 H -6.88081 1.54399 -0.171475 0
M  V30 34 H -6.22761 0.0899753 -2.04465 0
M  V30 35 H -3.84697 -0.614798 -2.32957 0
M  V30 END ATOM
M  V30 BEGIN BOND
M  V30 1 1 1 2
M  V30 2 2 2 3
M  V30 3 1 3 4
M  V30 4 2 4 5
M  V30 5 1 5 6
M  V30 6 2 6 7
M  V30 7 1 7 8
M  V30 8 1 5 9
M  V30 9 1 9 10
M  V30 10 1 10 11
M  V30 11 1 11 12
M  V30 12 1 12 13
M  V30 13 2 13 14
M  V30 14 1 14 15
M  V30 15 2 15 16
M  V30 16 1 16 17
M  V30 17 2 17 18
M  V30 18 1 7 2
M  V30 19 1 18 13
M  V30 20 1 1 19
M  V30 21 1 1 20
M  V30 22 1 4 21
M  V30 23 1 6 22
M  V30 24 1 8 23
M  V30 25 1 8 24
M  V30 26 1 10 25
M  V30 27 1 10 26
M  V30 28 1 11 27
M  V30 29 1 11 28
M  V30 30 1 12 29
M  V30 31 1 12 30
M  V30 32 1 14 31
M  V30 33 1 15 32
M  V30 34 1 16 33
M  V30 35 1 17 34
M  V30 36 1 18 35
M  V30 END BOND
M  V30 END CTAB
M  END
