
     RDKit          3D

  0  0  0  0  0  0  0  0  0  0999 V3000
M  V30 BEGIN CTAB
M  V30 COUNTS 28 28 0 0 0
M  V30 BEGIN ATOM
M  V30 1 C -3.85954 -0.399539 -0.556448 0
M  V30 2 N -2.60823 0.249015 -0.314666 0
M  V30 3 C -2.22244 0.263635 1.08279 0
M  V30 4 C -0.720588 0.480704 1.07049 0
M  V30 5 C -0.334251 0.438806 -0.387303 0
M  V30 6 C -1.49287 -0.324798 -0.991832 0
M  V30 7 O -0.303618 1.72755 -0.881372 0
M  V30 8 C 0.982952 -0.264067 -0.601986 0
M  V30 9 N 2.05873 0.438643 0.0657238 0
M  V30 10 C 3.25824 -0.0112889 0.0370293 0
M  V30 11 N 4.29585 0.686614 0.693678 0
M  V30 12 N 3.5248 -1.21321 -0.660176 0
M  V30 13 H -4.22217 -0.0773166 -1.55927 0
M  V30 14 H -4.5954 0.0161143 0.180262 0
M  V30 15 H -3.85881 -1.48417 -0.423717 0
M  V30 16 H -2.46728 -0.673152 1.60452 0
M  V30 17 H -2.74783 1.1415 1.53851 0
M  V30 18 H -0.515955 1.46043 1.52777 0
M  V30 19 H -0.239855 -0.328856 1.65552 0
M  V30 20 H -1.47048 -0.155912 -2.07647 0
M  V30 21 H -1.33513 -1.39502 -0.72904 0
M  V30 22 H 0.069256 2.32978 -0.17624 0
M  V30 23 H 1.20242 -0.276565 -1.68954 0
M  V30 24 H 0.932246 -1.30336 -0.267997 0
M  V30 25 H 4.17441 1.14175 1.64199 0
M  V30 26 H 5.26357 0.802547 0.284445 0
M  V30 27 H 3.46541 -1.15727 -1.71645 0
M  V30 28 H 3.76659 -2.11256 -0.200957 0
M  V30 END ATOM
M  V30 BEGIN BOND
M  V30 1 1 1 2
M  V30 2 1 2 3
M  V30 3 1 3 4
M  V30 4 1 4 5
M  V30 5 1 5 6
M  V30 6 1 5 7
M  V30 7 1 5 8
M  V30 8 1 8 9
M  V30 9 2 9 10 CFG=2
M  V30 10 1 10 11
M  V30 11 1 10 12
M  V30 12 1 6 2
M  V30 13 1 1 13
M  V30 14 1 1 14
M  V30 15 1 1 15
M  V30 16 1 3 16
M  V30 17 1 3 17
M  V30 18 1 4 18
M  V30 19 1 4 19
M  V30 20 1 6 20
M  V30 21 1 6 21
M  V30 22 1 7 22
M  V30 23 1 8 23
M  V30 24 1 8 24
M  V30 25 1 11 25
M  V30 26 1 11 26
M  V30 27 1 12 27
M  V30 28 1 12 28
M  V30 END BOND
M  V30 END CTAB
M  END
