
     RDKit          3D

  0  0  0  0  0  0  0  0  0  0999 V3000
M  V30 BEGIN CTAB
M  V30 COUNTS 31 32 0 0 0
M  V30 BEGIN ATOM
M  V30 1 N -1.23983 -2.7723 -0.0928455 0
M  V30 2 C -2.06075 -1.665 -0.495476 0
M  V30 3 C -1.52041 -0.335413 -0.0170015 0
M  V30 4 C -2.48085 0.725591 -0.512363 0
M  V30 5 C -3.91167 0.523384 0.0324875 0
M  V30 6 C -3.07608 1.70814 0.414768 0
M  V30 7 N -0.177219 -0.0936496 -0.425912 0
M  V30 8 C 0.920014 0.0930194 0.446764 0
M  V30 9 O 0.712061 0.0451382 1.67879 0
M  V30 10 C 2.26646 0.335697 -0.00428535 0
M  V30 11 N 2.51295 0.391048 -1.31786 0
M  V30 12 C 3.75727 0.61597 -1.81372 0
M  V30 13 C 4.79435 0.791785 -0.915615 0
M  V30 14 N 4.58369 0.742621 0.416063 0
M  V30 15 C 3.31317 0.513511 0.860674 0
M  V30 16 N 3.0415 0.45298 2.25741 0
M  V30 17 H -1.4773 -3.01137 0.898824 0
M  V30 18 H -1.45334 -3.58394 -0.704974 0
M  V30 19 H -2.28655 -1.66765 -1.57259 0
M  V30 20 H -3.0523 -1.79857 0.025281 0
M  V30 21 H -1.53593 -0.348123 1.10077 0
M  V30 22 H -2.38121 0.940688 -1.59626 0
M  V30 23 H -4.07419 -0.216016 0.812802 0
M  V30 24 H -4.7126 0.648981 -0.723062 0
M  V30 25 H -3.41141 2.6661 -0.0332428 0
M  V30 26 H -2.69393 1.79969 1.44968 0
M  V30 27 H 0.0252086 -0.0484442 -1.4658 0
M  V30 28 H 3.94806 0.659066 -2.85872 0
M  V30 29 H 5.78104 0.970159 -1.3109 0
M  V30 30 H 3.08297 -0.448826 2.75025 0
M  V30 31 H 2.80683 1.36574 2.71606 0
M  V30 END ATOM
M  V30 BEGIN BOND
M  V30 1 1 1 2
M  V30 2 1 2 3
M  V30 3 1 3 4
M  V30 4 1 4 5
M  V30 5 1 5 6
M  V30 6 1 3 7
M  V30 7 1 7 8
M  V30 8 2 8 9
M  V30 9 1 8 10
M  V30 10 2 10 11
M  V30 11 1 11 12
M  V30 12 2 12 13
M  V30 13 1 13 14
M  V30 14 2 14 15
M  V30 15 1 15 16
M  V30 16 1 6 4
M  V30 17 1 15 10
M  V30 18 1 1 17
M  V30 19 1 1 18
M  V30 20 1 2 19
M  V30 21 1 2 20
M  V30 22 1 3 21
M  V30 23 1 4 22
M  V30 24 1 5 23
M  V30 25 1 5 24
M  V30 26 1 6 25
M  V30 27 1 6 26
M  V30 28 1 7 27
M  V30 29 1 12 28
M  V30 30 1 13 29
M  V30 31 1 16 30
M  V30 32 1 16 31
M  V30 END BOND
M  V30 END CTAB
M  END
