
     RDKit          3D

  0  0  0  0  0  0  0  0  0  0999 V3000
M  V30 BEGIN CTAB
M  V30 COUNTS 30 31 0 0 0
M  V30 BEGIN ATOM
M  V30 1 C -1.56391 2.26004 0.476278 0
M  V30 2 C -1.54162 1.39537 -0.764251 0
M  V30 3 C -1.71163 -0.0246652 -0.3506 0
M  V30 4 N -1.70801 -0.95733 -1.45258 0
M  V30 5 C -1.41006 -2.24403 -0.892632 0
M  V30 6 C -0.940562 -2.04177 0.519957 0
M  V30 7 C -0.581272 -0.546869 0.501582 0
M  V30 8 C 0.739243 -0.363586 -0.120621 0
M  V30 9 N 1.08198 -0.667858 -1.38211 0
M  V30 10 N 2.36386 -0.365919 -1.59677 0
M  V30 11 C 2.84055 0.146775 -0.424278 0
M  V30 12 N 1.83087 0.142394 0.474934 0
M  V30 13 N 1.90409 0.585372 1.79538 0
M  V30 14 N 4.16576 0.606983 -0.183082 0
M  V30 15 H -1.66077 3.3352 0.197753 0
M  V30 16 H -2.47958 1.94189 1.05308 0
M  V30 17 H -0.644965 2.07758 1.04105 0
M  V30 18 H -2.42263 1.67876 -1.37508 0
M  V30 19 H -0.654315 1.57916 -1.39095 0
M  V30 20 H -2.6396 -0.110948 0.243241 0
M  V30 21 H -2.64511 -0.935363 -1.9549 0
M  V30 22 H -2.34408 -2.84724 -0.904128 0
M  V30 23 H -0.648525 -2.76716 -1.50354 0
M  V30 24 H -1.80845 -2.16291 1.18842 0
M  V30 25 H -0.0785526 -2.65433 0.790605 0
M  V30 26 H -0.621247 -0.213385 1.54645 0
M  V30 27 H 1.82426 -0.0577485 2.61772 0
M  V30 28 H 2.04656 1.61292 2.02795 0
M  V30 29 H 4.30612 1.61028 0.0433236 0
M  V30 30 H 5.00158 -0.0116126 -0.222208 0
M  V30 END ATOM
M  V30 BEGIN BOND
M  V30 1 1 1 2
M  V30 2 1 2 3
M  V30 3 1 3 4
M  V30 4 1 4 5
M  V30 5 1 5 6
M  V30 6 1 6 7
M  V30 7 1 7 8
M  V30 8 2 8 9
M  V30 9 1 9 10
M  V30 10 2 10 11
M  V30 11 1 11 12
M  V30 12 1 12 13
M  V30 13 1 11 14
M  V30 14 1 7 3
M  V30 15 1 12 8
M  V30 16 1 1 15
M  V30 17 1 1 16
M  V30 18 1 1 17
M  V30 19 1 2 18
M  V30 20 1 2 19
M  V30 21 1 3 20
M  V30 22 1 4 21
M  V30 23 1 5 22
M  V30 24 1 5 23
M  V30 25 1 6 24
M  V30 26 1 6 25
M  V30 27 1 7 26
M  V30 28 1 13 27
M  V30 29 1 13 28
M  V30 30 1 14 29
M  V30 31 1 14 30
M  V30 END BOND
M  V30 END CTAB
M  END
