
     RDKit          3D

  0  0  0  0  0  0  0  0  0  0999 V3000
M  V30 BEGIN CTAB
M  V30 COUNTS 61 65 0 0 0
M  V30 BEGIN ATOM
M  V30 1 N -2.86631 -0.755785 1.36018 0
M  V30 2 C -3.36417 -2.03893 1.14601 0 CFG=2
M  V30 3 C -2.92727 -2.62127 -0.185752 0
M  V30 4 O -1.65366 -2.81186 -0.437098 0
M  V30 5 C -0.411667 -2.48735 -0.616393 0
M  V30 6 C 0.505526 -3.52489 -0.900483 0
M  V30 7 N 1.8092 -3.28058 -1.10015 0
M  V30 8 C 2.30486 -2.0503 -1.04103 0
M  V30 9 C 1.49222 -0.971947 -0.770988 0
M  V30 10 C 0.147481 -1.22923 -0.565841 0
M  V30 11 C 2.0805 0.366031 -0.707922 0
M  V30 12 C 3.37986 0.533016 -0.254652 0
M  V30 13 C 4.02511 1.74556 -0.168255 0
M  V30 14 C 5.35992 1.96397 0.331074 0
M  V30 15 O 5.74693 3.18352 0.434169 0
M  V30 16 C 6.33817 0.988994 0.740102 0
M  V30 17 C 7.17062 1.30085 1.8043 0
M  V30 18 C 8.15938 0.455433 2.24582 0
M  V30 19 Cl 9.16035 0.953119 3.61141 0
M  V30 20 C 8.34749 -0.754044 1.62052 0
M  V30 21 C 7.54401 -1.10393 0.559358 0
M  V30 22 C 6.54011 -0.219313 0.127625 0
M  V30 23 C 3.27328 2.84787 -0.576179 0
M  V30 24 N 3.83692 4.14918 -0.530442 0
M  V30 25 C 1.99233 2.72635 -1.02757 0
M  V30 26 C 1.39213 1.49023 -1.09559 0
M  V30 27 C -4.86232 -2.06744 1.22814 0
M  V30 28 C -5.58325 -1.21869 0.281543 0
M  V30 29 C -6.07169 -1.63672 -0.964847 0
M  V30 30 N -6.63555 -0.59233 -1.56893 0
M  V30 31 C -6.54213 0.498953 -0.776328 0
M  V30 32 C -6.99416 1.79287 -0.979365 0
M  V30 33 C -6.77095 2.70772 0.0224181 0
M  V30 34 C -6.12546 2.37159 1.18985 0
M  V30 35 C -5.6759 1.07871 1.3874 0
M  V30 36 C -5.88868 0.135123 0.387744 0
M  V30 37 H -2.8208 -0.0980605 0.612238 0
M  V30 38 H -2.95843 -0.392164 2.28386 0
M  V30 39 H -3.00694 -2.70935 1.98617 0
M  V30 40 H -3.48046 -3.62201 -0.224779 0
M  V30 41 H -3.41456 -1.97855 -0.970047 0
M  V30 42 H 0.173667 -4.54845 -0.96338 0
M  V30 43 H 3.35507 -1.86654 -1.20308 0
M  V30 44 H -0.469026 -0.375933 -0.364486 0
M  V30 45 H 3.88013 -0.351642 0.061869 0
M  V30 46 H 7.05011 2.25266 2.32462 0
M  V30 47 H 9.13609 -1.39154 1.99863 0
M  V30 48 H 7.71199 -2.05062 0.0922719 0
M  V30 49 H 5.96104 -0.540685 -0.728239 0
M  V30 50 H 4.39944 4.52539 -1.34343 0
M  V30 51 H 3.68497 4.71827 0.31389 0
M  V30 52 H 1.4215 3.60219 -1.34161 0
M  V30 53 H 0.378467 1.40876 -1.45489 0
M  V30 54 H -5.24612 -3.13419 1.20353 0
M  V30 55 H -5.1528 -1.73832 2.27276 0
M  V30 56 H -5.97233 -2.66794 -1.32215 0
M  V30 57 H -7.09137 -0.609228 -2.52886 0
M  V30 58 H -7.5053 2.03837 -1.91523 0
M  V30 59 H -7.12343 3.72404 -0.130902 0
M  V30 60 H -5.95647 3.10659 1.97506 0
M  V30 61 H -5.18766 0.774491 2.28118 0
M  V30 END ATOM
M  V30 BEGIN BOND
M  V30 1 1 1 2
M  V30 2 1 2 3
M  V30 3 1 3 4
M  V30 4 1 4 5
M  V30 5 2 5 6
M  V30 6 1 6 7
M  V30 7 2 7 8
M  V30 8 1 8 9
M  V30 9 2 9 10
M  V30 10 1 9 11
M  V30 11 2 11 12
M  V30 12 1 12 13
M  V30 13 1 13 14
M  V30 14 2 14 15
M  V30 15 1 14 16
M  V30 16 2 16 17
M  V30 17 1 17 18
M  V30 18 1 18 19
M  V30 19 2 18 20
M  V30 20 1 20 21
M  V30 21 2 21 22
M  V30 22 2 13 23
M  V30 23 1 23 24
M  V30 24 1 23 25
M  V30 25 2 25 26
M  V30 26 1 2 27
M  V30 27 1 27 28
M  V30 28 2 28 29
M  V30 29 1 29 30
M  V30 30 1 30 31
M  V30 31 2 31 32
M  V30 32 1 32 33
M  V30 33 2 33 34
M  V30 34 1 34 35
M  V30 35 2 35 36
M  V30 36 1 10 5
M  V30 37 1 26 11
M  V30 38 1 36 28
M  V30 39 1 22 16
M  V30 40 1 36 31
M  V30 41 1 1 37
M  V30 42 1 1 38
M  V30 43 1 2 39 CFG=1
M  V30 44 1 3 40
M  V30 45 1 3 41
M  V30 46 1 6 42
M  V30 47 1 8 43
M  V30 48 1 10 44
M  V30 49 1 12 45
M  V30 50 1 17 46
M  V30 51 1 20 47
M  V30 52 1 21 48
M  V30 53 1 22 49
M  V30 54 1 24 50
M  V30 55 1 24 51
M  V30 56 1 25 52
M  V30 57 1 26 53
M  V30 58 1 27 54
M  V30 59 1 27 55
M  V30 60 1 29 56
M  V30 61 1 30 57
M  V30 62 1 32 58
M  V30 63 1 33 59
M  V30 64 1 34 60
M  V30 65 1 35 61
M  V30 END BOND
M  V30 END CTAB
M  END
