
     RDKit          3D

  0  0  0  0  0  0  0  0  0  0999 V3000
M  V30 BEGIN CTAB
M  V30 COUNTS 40 43 0 0 0
M  V30 BEGIN ATOM
M  V30 1 C 7.92228 0.714876 0.0948223 0
M  V30 2 O 6.89655 1.06614 0.992662 0
M  V30 3 C 5.61936 0.607754 0.799874 0
M  V30 4 N 5.32784 -0.175904 -0.237724 0
M  V30 5 C 4.10237 -0.655245 -0.480572 0
M  V30 6 C 3.08118 -0.325517 0.384005 0
M  V30 7 C 3.37828 0.484074 1.45757 0
M  V30 8 N 4.64327 0.935574 1.64484 0
M  V30 9 C 1.75576 -0.826884 0.150089 0
M  V30 10 C 0.694257 0.066927 0.257587 0
M  V30 11 S 0.630905 1.73616 0.608606 0
M  V30 12 C -1.04589 1.97874 0.507849 0
M  V30 13 C -1.52705 0.713908 0.194909 0
M  V30 14 C -0.627835 -0.266912 0.0656598 0
M  V30 15 C -0.829941 -1.62177 -0.26163 0
M  V30 16 N -2.11178 -2.17645 -0.535511 0
M  V30 17 N 0.216299 -2.46278 -0.358861 0
M  V30 18 C 1.49821 -2.15769 -0.174437 0
M  V30 19 C -3.00868 0.596898 0.100853 0
M  V30 20 C -3.70189 -0.130156 1.02719 0
M  V30 21 C -5.06798 -0.228937 0.926349 0
M  V30 22 C -5.77149 0.38441 -0.0846941 0
M  V30 23 N -7.16959 0.268587 -0.166637 0
M  V30 24 C -5.06953 1.12256 -1.02546 0
M  V30 25 C -3.70227 1.2138 -0.913531 0
M  V30 26 H 8.06188 -0.384636 0.0124465 0
M  V30 27 H 8.90209 1.12511 0.426579 0
M  V30 28 H 7.72195 1.13594 -0.909841 0
M  V30 29 H 3.94084 -1.29058 -1.34978 0
M  V30 30 H 2.62578 0.782937 2.17879 0
M  V30 31 H -1.62357 2.90939 0.653102 0
M  V30 32 H -2.63771 -1.86693 -1.36601 0
M  V30 33 H -2.52381 -2.88752 0.0864806 0
M  V30 34 H 2.32793 -2.81025 -0.247543 0
M  V30 35 H -3.21106 -0.645239 1.85922 0
M  V30 36 H -5.64255 -0.804896 1.65561 0
M  V30 37 H -7.59236 -0.668464 -0.332925 0
M  V30 38 H -7.75728 1.12209 -0.0595507 0
M  V30 39 H -5.5563 1.62892 -1.84337 0
M  V30 40 H -3.16845 1.79195 -1.65323 0
M  V30 END ATOM
M  V30 BEGIN BOND
M  V30 1 1 1 2
M  V30 2 1 2 3
M  V30 3 2 3 4
M  V30 4 1 4 5
M  V30 5 2 5 6
M  V30 6 1 6 7
M  V30 7 2 7 8
M  V30 8 1 6 9
M  V30 9 2 9 10
M  V30 10 1 10 11
M  V30 11 1 11 12
M  V30 12 2 12 13
M  V30 13 1 13 14
M  V30 14 2 14 15
M  V30 15 1 15 16
M  V30 16 1 15 17
M  V30 17 2 17 18
M  V30 18 1 13 19
M  V30 19 2 19 20
M  V30 20 1 20 21
M  V30 21 2 21 22
M  V30 22 1 22 23
M  V30 23 1 22 24
M  V30 24 2 24 25
M  V30 25 1 8 3
M  V30 26 1 18 9
M  V30 27 1 25 19
M  V30 28 1 14 10
M  V30 29 1 1 26
M  V30 30 1 1 27
M  V30 31 1 1 28
M  V30 32 1 5 29
M  V30 33 1 7 30
M  V30 34 1 12 31
M  V30 35 1 16 32
M  V30 36 1 16 33
M  V30 37 1 18 34
M  V30 38 1 20 35
M  V30 39 1 21 36
M  V30 40 1 23 37
M  V30 41 1 23 38
M  V30 42 1 24 39
M  V30 43 1 25 40
M  V30 END BOND
M  V30 END CTAB
M  END
