
     RDKit          3D

  0  0  0  0  0  0  0  0  0  0999 V3000
M  V30 BEGIN CTAB
M  V30 COUNTS 16 16 0 0 0
M  V30 BEGIN ATOM
M  V30 1 N 2.40439 -0.652406 0.374228 0
M  V30 2 C 0.99648 -0.694347 0.11389 0
M  V30 3 N 0.328143 -1.70246 0.530731 0
M  V30 4 S -1.38431 -1.64919 0.159073 0
M  V30 5 O -2.14071 -2.54703 1.05895 0
M  V30 6 O -1.59729 -1.89692 -1.28961 0
M  V30 7 N -1.77049 0.0409268 0.459606 0
M  V30 8 C -0.870033 0.89907 0.0452893 0
M  V30 9 N -1.04964 2.30091 0.223308 0
M  V30 10 C 0.341762 0.394153 -0.627081 0
M  V30 11 H 3.02104 -0.626732 -0.478632 0
M  V30 12 H 2.81302 -0.646758 1.31404 0
M  V30 13 H -0.20673 2.88872 0.40054 0
M  V30 14 H -2.02466 2.67615 0.167405 0
M  V30 15 H 1.06916 1.23548 -0.815736 0
M  V30 16 H 0.0698683 -0.0195842 -1.63599 0
M  V30 END ATOM
M  V30 BEGIN BOND
M  V30 1 1 1 2
M  V30 2 2 2 3
M  V30 3 1 3 4
M  V30 4 2 4 5
M  V30 5 2 4 6
M  V30 6 1 4 7
M  V30 7 2 7 8
M  V30 8 1 8 9
M  V30 9 1 8 10
M  V30 10 1 10 2
M  V30 11 1 1 11
M  V30 12 1 1 12
M  V30 13 1 9 13
M  V30 14 1 9 14
M  V30 15 1 10 15
M  V30 16 1 10 16
M  V30 END BOND
M  V30 END CTAB
M  END
