
     RDKit          3D

  0  0  0  0  0  0  0  0  0  0999 V3000
M  V30 BEGIN CTAB
M  V30 COUNTS 32 32 0 0 0
M  V30 BEGIN ATOM
M  V30 1 C -2.93392 1.60117 -0.749987 0
M  V30 2 C -3.05404 0.148124 -0.482408 0
M  V30 3 C -1.87176 -0.71037 -0.638309 0
M  V30 4 N -0.707436 -0.406913 0.168752 0
M  V30 5 C 0.123739 -1.61467 0.166428 0
M  V30 6 C 1.41541 -1.21012 0.900135 0
M  V30 7 N 2.17625 -0.534641 -0.114244 0
M  V30 8 C 1.41852 0.358931 -0.896438 0
M  V30 9 C 0.0463063 0.702032 -0.391013 0
M  V30 10 S 3.78756 -0.279268 0.12375 0
M  V30 11 O 4.58607 -0.952646 -0.977247 0
M  V30 12 O 4.2203 -0.984805 1.41027 0
M  V30 13 N 4.34043 1.32911 0.244753 0
M  V30 14 N -3.77838 -0.0591857 0.763472 0
M  V30 15 H -2.21955 2.08721 -0.0376519 0
M  V30 16 H -3.93891 2.05801 -0.486806 0
M  V30 17 H -2.70137 1.8709 -1.79113 0
M  V30 18 H -3.79688 -0.230844 -1.281 0
M  V30 19 H -1.56405 -0.677756 -1.71563 0
M  V30 20 H -2.18977 -1.77894 -0.436813 0
M  V30 21 H 0.412566 -1.8562 -0.864385 0
M  V30 22 H -0.395624 -2.40678 0.717162 0
M  V30 23 H 1.92555 -2.13308 1.17964 0
M  V30 24 H 1.17826 -0.597591 1.76329 0
M  V30 25 H 1.91177 1.34794 -1.08635 0
M  V30 26 H 1.28643 -0.0995421 -1.9097 0
M  V30 27 H -0.515303 1.05884 -1.2834 0
M  V30 28 H 0.0934319 1.53704 0.323897 0
M  V30 29 H 5.26063 1.4861 -0.228044 0
M  V30 30 H 3.64544 2.06739 0.0389803 0
M  V30 31 H -4.79234 -0.260146 0.568234 0
M  V30 32 H -3.36932 -0.859302 1.30335 0
M  V30 END ATOM
M  V30 BEGIN BOND
M  V30 1 1 1 2
M  V30 2 1 2 3
M  V30 3 1 3 4
M  V30 4 1 4 5
M  V30 5 1 5 6
M  V30 6 1 6 7
M  V30 7 1 7 8
M  V30 8 1 8 9
M  V30 9 1 7 10
M  V30 10 2 10 11
M  V30 11 2 10 12
M  V30 12 1 10 13
M  V30 13 1 2 14
M  V30 14 1 9 4
M  V30 15 1 1 15
M  V30 16 1 1 16
M  V30 17 1 1 17
M  V30 18 1 2 18
M  V30 19 1 3 19
M  V30 20 1 3 20
M  V30 21 1 5 21
M  V30 22 1 5 22
M  V30 23 1 6 23
M  V30 24 1 6 24
M  V30 25 1 8 25
M  V30 26 1 8 26
M  V30 27 1 9 27
M  V30 28 1 9 28
M  V30 29 1 13 29
M  V30 30 1 13 30
M  V30 31 1 14 31
M  V30 32 1 14 32
M  V30 END BOND
M  V30 END CTAB
M  END
