
     RDKit          3D

  0  0  0  0  0  0  0  0  0  0999 V3000
M  V30 BEGIN CTAB
M  V30 COUNTS 43 44 0 0 0
M  V30 BEGIN ATOM
M  V30 1 C -2.87415 -2.69574 1.10275 0
M  V30 2 C -3.15502 -1.22405 0.981407 0
M  V30 3 N -1.97827 -0.47857 0.640409 0
M  V30 4 C -1.40637 0.510181 1.46214 0
M  V30 5 O -1.99062 0.736708 2.56915 0
M  V30 6 C -0.218685 1.30035 1.17922 0 CFG=2
M  V30 7 C -0.717657 2.71269 0.835204 0
M  V30 8 C 0.566811 3.31296 0.306959 0 CFG=2
M  V30 9 C 1.35942 2.10973 -0.15334 0
M  V30 10 N 0.436879 0.953616 -0.07399 0
M  V30 11 C 1.23805 -0.242947 0.114698 0
M  V30 12 C 1.86327 -0.782528 -1.08094 0
M  V30 13 C 1.7313 -0.293432 -2.36152 0
M  V30 14 C 2.35252 -0.881417 -3.44872 0
M  V30 15 C 3.1348 -2.00096 -3.24757 0
M  V30 16 N 3.26056 -2.47463 -1.99881 0
M  V30 17 C 2.65609 -1.90428 -0.931932 0
M  V30 18 N 2.88412 -2.5209 0.32957 0
M  V30 19 N 1.20143 4.0232 1.38653 0
M  V30 20 C -4.2887 -1.02039 0.0264092 0
M  V30 21 H -3.70099 -3.30496 0.656458 0
M  V30 22 H -2.73972 -2.98165 2.17032 0
M  V30 23 H -1.94407 -2.98944 0.548839 0
M  V30 24 H -3.49203 -0.861598 1.98353 0
M  V30 25 H -1.52993 -0.688711 -0.273748 0
M  V30 26 H 0.520689 1.35533 1.98379 0
M  V30 27 H -1.05918 3.23885 1.7421 0
M  V30 28 H -1.48565 2.64609 0.042611 0
M  V30 29 H 0.382338 4.03873 -0.509746 0
M  V30 30 H 1.70416 2.33005 -1.15378 0
M  V30 31 H 2.24449 1.93619 0.501595 0
M  V30 32 H 0.659035 -1.03012 0.609365 0
M  V30 33 H 2.07758 0.0775916 0.801785 0
M  V30 34 H 1.12252 0.572698 -2.57177 0
M  V30 35 H 2.25557 -0.506306 -4.45295 0
M  V30 36 H 3.627 -2.46818 -4.10263 0
M  V30 37 H 2.39795 -3.40933 0.575265 0
M  V30 38 H 3.53329 -2.07172 0.983511 0
M  V30 39 H 1.04776 3.62402 2.31855 0
M  V30 40 H 2.1429 4.37016 1.18566 0
M  V30 41 H -4.98104 -0.214548 0.352274 0
M  V30 42 H -4.89493 -1.94912 0.00124285 0
M  V30 43 H -3.94353 -0.853639 -1.02988 0
M  V30 END ATOM
M  V30 BEGIN BOND
M  V30 1 1 1 2
M  V30 2 1 2 3
M  V30 3 1 3 4
M  V30 4 2 4 5
M  V30 5 1 4 6
M  V30 6 1 6 7
M  V30 7 1 7 8
M  V30 8 1 8 9
M  V30 9 1 9 10
M  V30 10 1 10 11
M  V30 11 1 11 12
M  V30 12 2 12 13
M  V30 13 1 13 14
M  V30 14 2 14 15
M  V30 15 1 15 16
M  V30 16 2 16 17
M  V30 17 1 17 18
M  V30 18 1 8 19
M  V30 19 1 2 20
M  V30 20 1 10 6
M  V30 21 1 17 12
M  V30 22 1 1 21
M  V30 23 1 1 22
M  V30 24 1 1 23
M  V30 25 1 2 24
M  V30 26 1 3 25
M  V30 27 1 6 26 CFG=1
M  V30 28 1 7 27
M  V30 29 1 7 28
M  V30 30 1 8 29 CFG=3
M  V30 31 1 9 30
M  V30 32 1 9 31
M  V30 33 1 11 32
M  V30 34 1 11 33
M  V30 35 1 13 34
M  V30 36 1 14 35
M  V30 37 1 15 36
M  V30 38 1 18 37
M  V30 39 1 18 38
M  V30 40 1 19 39
M  V30 41 1 19 40
M  V30 42 1 20 41
M  V30 43 1 20 42
M  V30 44 1 20 43
M  V30 END BOND
M  V30 END CTAB
M  END
