
     RDKit          3D

  0  0  0  0  0  0  0  0  0  0999 V3000
M  V30 BEGIN CTAB
M  V30 COUNTS 40 43 0 0 0
M  V30 BEGIN ATOM
M  V30 1 N 8.85669 0.126445 0.185832 0
M  V30 2 C 7.51026 -0.212082 0.466189 0
M  V30 3 N 6.87022 -0.152335 1.65606 0
M  V30 4 N 5.59162 -0.562634 1.4983 0
M  V30 5 C 5.39913 -0.885572 0.218424 0
M  V30 6 N 6.5892 -0.663131 -0.398927 0
M  V30 7 S 3.90766 -1.47652 -0.592016 0
M  V30 8 C 2.94413 -0.0378387 -1.11254 0
M  V30 9 C 1.53421 -0.0861059 -0.747359 0
M  V30 10 N 1.02154 0.314248 0.38547 0
M  V30 11 C -0.268568 0.277972 0.697923 0
M  V30 12 N -0.599354 0.774378 1.98116 0
M  V30 13 C -1.23085 -0.216394 -0.206752 0
M  V30 14 C -0.685899 -0.636365 -1.39741 0
M  V30 15 N 0.657908 -0.574062 -1.66229 0
M  V30 16 S -2.03045 -1.16111 -2.29758 0
M  V30 17 C -3.26152 -0.851577 -1.17719 0
M  V30 18 C -2.57257 -0.325813 -0.0820438 0
M  V30 19 C -3.38155 0.0688221 1.13638 0
M  V30 20 C -4.17402 1.3414 0.800038 0
M  V30 21 C -5.03201 1.13129 -0.417997 0
M  V30 22 C -5.60281 -0.235982 -0.564927 0
M  V30 23 C -4.73363 -1.10523 -1.38134 0
M  V30 24 H 9.38172 -0.433445 -0.519643 0
M  V30 25 H 9.34194 0.911944 0.65302 0
M  V30 26 H 6.74492 -0.837203 -1.41828 0
M  V30 27 H 3.07646 0.134487 -2.20638 0
M  V30 28 H 3.3608 0.890785 -0.611633 0
M  V30 29 H -0.941072 1.7653 2.12563 0
M  V30 30 H -0.499846 0.121368 2.79927 0
M  V30 31 H -4.11099 -0.757991 1.33285 0
M  V30 32 H -2.81772 0.270496 2.02964 0
M  V30 33 H -3.38509 2.11286 0.569648 0
M  V30 34 H -4.69562 1.64851 1.70083 0
M  V30 35 H -4.54963 1.48852 -1.33962 0
M  V30 36 H -5.92063 1.82279 -0.266538 0
M  V30 37 H -5.88113 -0.717464 0.393568 0
M  V30 38 H -6.59103 -0.138958 -1.12599 0
M  V30 39 H -4.93739 -2.18198 -1.16689 0
M  V30 40 H -4.88503 -0.951822 -2.48503 0
M  V30 END ATOM
M  V30 BEGIN BOND
M  V30 1 1 1 2
M  V30 2 2 2 3
M  V30 3 1 3 4
M  V30 4 2 4 5
M  V30 5 1 5 6
M  V30 6 1 5 7
M  V30 7 1 7 8
M  V30 8 1 8 9
M  V30 9 2 9 10
M  V30 10 1 10 11
M  V30 11 1 11 12
M  V30 12 2 11 13
M  V30 13 1 13 14
M  V30 14 2 14 15
M  V30 15 1 14 16
M  V30 16 1 16 17
M  V30 17 2 17 18
M  V30 18 1 18 19
M  V30 19 1 19 20
M  V30 20 1 20 21
M  V30 21 1 21 22
M  V30 22 1 22 23
M  V30 23 1 6 2
M  V30 24 1 15 9
M  V30 25 1 23 17
M  V30 26 1 18 13
M  V30 27 1 1 24
M  V30 28 1 1 25
M  V30 29 1 6 26
M  V30 30 1 8 27
M  V30 31 1 8 28
M  V30 32 1 12 29
M  V30 33 1 12 30
M  V30 34 1 19 31
M  V30 35 1 19 32
M  V30 36 1 20 33
M  V30 37 1 20 34
M  V30 38 1 21 35
M  V30 39 1 21 36
M  V30 40 1 22 37
M  V30 41 1 22 38
M  V30 42 1 23 39
M  V30 43 1 23 40
M  V30 END BOND
M  V30 END CTAB
M  END
