
     RDKit          3D

  0  0  0  0  0  0  0  0  0  0999 V3000
M  V30 BEGIN CTAB
M  V30 COUNTS 28 30 0 0 0
M  V30 BEGIN ATOM
M  V30 1 N 6.82521 -0.390229 -0.244986 0
M  V30 2 C 5.41003 -0.233355 -0.158461 0
M  V30 3 N 4.68099 0.654717 0.510524 0
M  V30 4 N 3.41888 0.614712 0.448563 0
M  V30 5 C 2.82054 -0.310038 -0.281416 0
M  V30 6 S 4.15388 -1.15955 -0.905723 0
M  V30 7 C 1.37801 -0.462031 -0.434466 0
M  V30 8 C 0.722613 -1.42044 -1.19187 0
M  V30 9 C -0.610823 -1.15703 -1.02094 0
M  V30 10 N -0.767143 -0.102855 -0.209437 0
M  V30 11 N 0.434742 0.298555 0.130603 0
M  V30 12 C -2.0116 0.493902 0.221454 0
M  V30 13 C -2.12468 1.86569 0.223697 0
M  V30 14 C -3.31765 2.4485 0.636365 0
M  V30 15 C -4.38278 1.67736 1.04099 0
M  V30 16 C -4.25866 0.323572 1.03427 0
M  V30 17 C -3.07293 -0.2601 0.62423 0
M  V30 18 N -2.93258 -1.67393 0.613394 0
M  V30 19 H 7.29459 -1.01143 0.404321 0
M  V30 20 H 7.36662 0.125055 -0.963415 0
M  V30 21 H 1.23715 -2.17518 -1.76296 0
M  V30 22 H -1.40277 -1.72882 -1.48266 0
M  V30 23 H -1.30462 2.49732 -0.0888805 0
M  V30 24 H -3.39886 3.52513 0.635419 0
M  V30 25 H -5.29574 2.16267 1.3557 0
M  V30 26 H -5.08593 -0.290803 1.34897 0
M  V30 27 H -3.41216 -2.18465 -0.154518 0
M  V30 28 H -2.36433 -2.12675 1.36385 0
M  V30 END ATOM
M  V30 BEGIN BOND
M  V30 1 1 1 2
M  V30 2 2 2 3
M  V30 3 1 3 4
M  V30 4 2 4 5
M  V30 5 1 5 6
M  V30 6 1 5 7
M  V30 7 1 7 8
M  V30 8 2 8 9
M  V30 9 1 9 10
M  V30 10 1 10 11
M  V30 11 1 10 12
M  V30 12 2 12 13
M  V30 13 1 13 14
M  V30 14 2 14 15
M  V30 15 1 15 16
M  V30 16 2 16 17
M  V30 17 1 17 18
M  V30 18 1 6 2
M  V30 19 2 11 7
M  V30 20 1 17 12
M  V30 21 1 1 19
M  V30 22 1 1 20
M  V30 23 1 8 21
M  V30 24 1 9 22
M  V30 25 1 13 23
M  V30 26 1 14 24
M  V30 27 1 15 25
M  V30 28 1 16 26
M  V30 29 1 18 27
M  V30 30 1 18 28
M  V30 END BOND
M  V30 END CTAB
M  END
