
     RDKit          3D

  0  0  0  0  0  0  0  0  0  0999 V3000
M  V30 BEGIN CTAB
M  V30 COUNTS 19 19 0 0 0
M  V30 BEGIN ATOM
M  V30 1 N -2.93746 -0.719799 0.434018 0
M  V30 2 C -2.2126 0.157922 -0.545039 0
M  V30 3 C -0.795072 -0.307325 -0.524942 0
M  V30 4 N -0.308451 -1.54242 -0.844299 0
M  V30 5 N 1.01624 -1.54488 -0.655563 0
M  V30 6 C 1.38135 -0.361102 -0.21903 0
M  V30 7 C 0.307463 0.406039 -0.152922 0
M  V30 8 N 0.139364 1.77915 0.22264 0
M  V30 9 C 2.74112 0.0290659 0.332704 0
M  V30 10 H -2.25318 -1.51309 0.717339 0
M  V30 11 H -2.93339 -0.0978014 1.35991 0
M  V30 12 H -2.66813 -0.0630559 -1.5289 0
M  V30 13 H -2.2884 1.16183 -0.205222 0
M  V30 14 H 1.63659 -2.34841 -0.832145 0
M  V30 15 H -0.122427 1.93896 1.2347 0
M  V30 16 H 0.233224 2.54697 -0.449364 0
M  V30 17 H 2.51092 0.642081 1.287 0
M  V30 18 H 3.25474 0.693745 -0.34048 0
M  V30 19 H 3.2981 -0.857875 0.709591 0
M  V30 END ATOM
M  V30 BEGIN BOND
M  V30 1 1 1 2
M  V30 2 1 2 3
M  V30 3 2 3 4
M  V30 4 1 4 5
M  V30 5 1 5 6
M  V30 6 2 6 7
M  V30 7 1 7 8
M  V30 8 1 6 9
M  V30 9 1 7 3
M  V30 10 1 1 10
M  V30 11 1 1 11
M  V30 12 1 2 12
M  V30 13 1 2 13
M  V30 14 1 5 14
M  V30 15 1 8 15
M  V30 16 1 8 16
M  V30 17 1 9 17
M  V30 18 1 9 18
M  V30 19 1 9 19
M  V30 END BOND
M  V30 END CTAB
M  END
