
     RDKit          3D

  0  0  0  0  0  0  0  0  0  0999 V3000
M  V30 BEGIN CTAB
M  V30 COUNTS 30 30 0 0 0
M  V30 BEGIN ATOM
M  V30 1 C -3.25611 -0.668738 1.16079 0
M  V30 2 C -2.78043 0.0122177 -0.100576 0
M  V30 3 C -1.30392 -0.139907 -0.312833 0
M  V30 4 S -0.327204 0.556011 1.02393 0
M  V30 5 C 1.41004 0.303779 0.638374 0
M  V30 6 N 2.38142 0.72598 1.46739 0
M  V30 7 C 3.68931 0.550651 1.20418 0
M  V30 8 N 4.68996 1.00105 2.08691 0
M  V30 9 C 4.0904 -0.083255 0.047519 0
M  V30 10 C 3.09135 -0.515119 -0.800731 0
M  V30 11 N 1.79646 -0.317497 -0.495549 0
M  V30 12 N 3.42938 -1.17568 -2.00976 0
M  V30 13 C -3.13379 1.48197 -0.0685612 0
M  V30 14 C -3.47217 -0.675841 -1.28233 0
M  V30 15 H -2.96183 -0.0381851 2.01455 0
M  V30 16 H -2.8149 -1.67523 1.21804 0
M  V30 17 H -4.36349 -0.723729 1.09732 0
M  V30 18 H -1.03281 -1.21794 -0.400873 0
M  V30 19 H -1.03956 0.351992 -1.26392 0
M  V30 20 H 5.0468 1.96251 2.00559 0
M  V30 21 H 5.0643 0.37369 2.81078 0
M  V30 22 H 5.14776 -0.236271 -0.186196 0
M  V30 23 H 3.81024 -0.697281 -2.85038 0
M  V30 24 H 3.28824 -2.20434 -2.06145 0
M  V30 25 H -2.24237 2.13646 0.0153064 0
M  V30 26 H -3.82469 1.66298 0.799485 0
M  V30 27 H -3.62906 1.74917 -1.03564 0
M  V30 28 H -3.07752 -0.196843 -2.22309 0
M  V30 29 H -3.11375 -1.71693 -1.31083 0
M  V30 30 H -4.56205 -0.585662 -1.18745 0
M  V30 END ATOM
M  V30 BEGIN BOND
M  V30 1 1 1 2
M  V30 2 1 2 3
M  V30 3 1 3 4
M  V30 4 1 4 5
M  V30 5 2 5 6
M  V30 6 1 6 7
M  V30 7 1 7 8
M  V30 8 2 7 9
M  V30 9 1 9 10
M  V30 10 2 10 11
M  V30 11 1 10 12
M  V30 12 1 2 13
M  V30 13 1 2 14
M  V30 14 1 11 5
M  V30 15 1 1 15
M  V30 16 1 1 16
M  V30 17 1 1 17
M  V30 18 1 3 18
M  V30 19 1 3 19
M  V30 20 1 8 20
M  V30 21 1 8 21
M  V30 22 1 9 22
M  V30 23 1 12 23
M  V30 24 1 12 24
M  V30 25 1 13 25
M  V30 26 1 13 26
M  V30 27 1 13 27
M  V30 28 1 14 28
M  V30 29 1 14 29
M  V30 30 1 14 30
M  V30 END BOND
M  V30 END CTAB
M  END
