
     RDKit          3D

  0  0  0  0  0  0  0  0  0  0999 V3000
M  V30 BEGIN CTAB
M  V30 COUNTS 36 38 0 0 0
M  V30 BEGIN ATOM
M  V30 1 N 7.04586 0.0736526 -0.441449 0
M  V30 2 C 5.6536 0.00289864 -0.222874 0
M  V30 3 C 4.79258 0.530377 -1.13324 0
M  V30 4 C 3.42936 0.454918 -0.907948 0
M  V30 5 C 2.88199 -0.129212 0.196176 0
M  V30 6 C 3.79337 -0.664955 1.11845 0
M  V30 7 C 5.1458 -0.609056 0.929652 0
M  V30 8 C 1.46527 -0.21669 0.446848 0
M  V30 9 C 0.565295 0.268721 -0.384063 0
M  V30 10 C -0.866191 0.161433 -0.0961853 0
M  V30 11 N -1.38976 -0.414506 0.991385 0
M  V30 12 C -2.751 -0.318142 0.902052 0
M  V30 13 C -3.0003 0.338588 -0.283969 0
M  V30 14 N -1.83452 0.626138 -0.884785 0
M  V30 15 C -1.70031 1.31961 -2.16257 0
M  V30 16 C -4.31744 0.576889 -0.635896 0
M  V30 17 C -5.37885 0.178703 0.160736 0
M  V30 18 C -5.11171 -0.474268 1.33874 0
M  V30 19 C -3.79712 -0.719362 1.70326 0
M  V30 20 N -6.2072 -0.873069 2.13867 0
M  V30 21 H 7.54207 -0.743625 -0.830546 0
M  V30 22 H 7.55639 0.940631 -0.210943 0
M  V30 23 H 5.1176 1.0157 -2.0423 0
M  V30 24 H 2.78903 0.893564 -1.66983 0
M  V30 25 H 3.41321 -1.13574 2.00443 0
M  V30 26 H 5.88498 -1.0067 1.6102 0
M  V30 27 H 1.05592 -0.690106 1.3395 0
M  V30 28 H 0.885976 0.757289 -1.29877 0
M  V30 29 H -1.89577 0.540401 -2.94344 0
M  V30 30 H -2.43364 2.13612 -2.17752 0
M  V30 31 H -0.657112 1.65304 -2.31903 0
M  V30 32 H -4.4741 1.09977 -1.58285 0
M  V30 33 H -6.38359 0.405439 -0.19 0
M  V30 34 H -3.57151 -1.23559 2.63367 0
M  V30 35 H -6.64102 -1.82066 2.08227 0
M  V30 36 H -6.60721 -0.190472 2.82217 0
M  V30 END ATOM
M  V30 BEGIN BOND
M  V30 1 1 1 2
M  V30 2 2 2 3
M  V30 3 1 3 4
M  V30 4 2 4 5
M  V30 5 1 5 6
M  V30 6 2 6 7
M  V30 7 1 5 8
M  V30 8 2 8 9
M  V30 9 1 9 10
M  V30 10 2 10 11
M  V30 11 1 11 12
M  V30 12 2 12 13
M  V30 13 1 13 14
M  V30 14 1 14 15
M  V30 15 1 13 16
M  V30 16 2 16 17
M  V30 17 1 17 18
M  V30 18 2 18 19
M  V30 19 1 18 20
M  V30 20 1 7 2
M  V30 21 1 14 10
M  V30 22 1 19 12
M  V30 23 1 1 21
M  V30 24 1 1 22
M  V30 25 1 3 23
M  V30 26 1 4 24
M  V30 27 1 6 25
M  V30 28 1 7 26
M  V30 29 1 8 27
M  V30 30 1 9 28
M  V30 31 1 15 29
M  V30 32 1 15 30
M  V30 33 1 15 31
M  V30 34 1 16 32
M  V30 35 1 17 33
M  V30 36 1 19 34
M  V30 37 1 20 35
M  V30 38 1 20 36
M  V30 END BOND
M  V30 END CTAB
M  END
