
     RDKit          3D

  0  0  0  0  0  0  0  0  0  0999 V3000
M  V30 BEGIN CTAB
M  V30 COUNTS 60 59 0 0 0
M  V30 BEGIN ATOM
M  V30 1 N 8.39007 2.78573 -0.335617 0
M  V30 2 C 8.80711 2.14253 0.902622 0
M  V30 3 C 7.78136 0.971758 1.07688 0
M  V30 4 C 7.9422 0.13017 -0.12178 0
M  V30 5 C 7.15091 -1.11005 -0.209127 0
M  V30 6 C 5.67854 -1.05334 -0.116987 0
M  V30 7 C 5.02844 -0.770063 1.1785 0
M  V30 8 N 3.65966 -0.561918 1.16031 0
M  V30 9 C 2.73515 -1.52291 0.844588 0
M  V30 10 C 2.55108 -1.9837 -0.557432 0
M  V30 11 S 1.14732 -3.19581 -0.589803 0
M  V30 12 S -0.599718 -2.07042 -0.0577888 0
M  V30 13 C -1.30986 -1.3714 -1.57941 0
M  V30 14 C -2.5195 -0.549743 -1.1762 0
M  V30 15 N -3.5054 -1.37341 -0.563996 0
M  V30 16 C -4.60145 -0.643782 0.00407152 0
M  V30 17 C -5.40142 0.0330753 -1.08917 0
M  V30 18 C -6.55801 0.811172 -0.492376 0
M  V30 19 C -7.53342 -0.043177 0.244847 0
M  V30 20 C -8.65221 0.773143 0.856001 0
M  V30 21 C -9.43557 1.56031 -0.158968 0
M  V30 22 N -10.4627 2.29819 0.512309 0
M  V30 23 H 9.06682 3.55004 -0.59557 0
M  V30 24 H 7.47226 3.25019 -0.157769 0
M  V30 25 H 8.71986 2.7954 1.77018 0
M  V30 26 H 9.78761 1.67231 0.848658 0
M  V30 27 H 7.96334 0.538827 2.04705 0
M  V30 28 H 6.77316 1.46842 1.07216 0
M  V30 29 H 9.05053 -0.101644 -0.31372 0
M  V30 30 H 7.71591 0.766409 -1.05844 0
M  V30 31 H 7.39952 -1.65967 -1.16955 0
M  V30 32 H 7.47445 -1.86481 0.585638 0
M  V30 33 H 5.3476 -2.13996 -0.370446 0
M  V30 34 H 5.20531 -0.466716 -0.942291 0
M  V30 35 H 5.52538 -0.0640522 1.85719 0
M  V30 36 H 5.14132 -1.77161 1.82868 0
M  V30 37 H 3.32892 0.425933 1.26853 0
M  V30 38 H 2.90507 -2.48197 1.46236 0
M  V30 39 H 1.71748 -1.18559 1.25887 0
M  V30 40 H 3.3636 -2.52954 -1.02987 0
M  V30 41 H 2.23419 -1.1712 -1.24805 0
M  V30 42 H -1.64858 -2.16745 -2.24034 0
M  V30 43 H -0.566692 -0.686815 -2.00107 0
M  V30 44 H -2.95992 -0.0857796 -2.10692 0
M  V30 45 H -2.16303 0.287496 -0.54315 0
M  V30 46 H -3.13791 -2.14808 0.0208441 0
M  V30 47 H -5.23459 -1.33201 0.608247 0
M  V30 48 H -4.16379 0.0994597 0.7026 0
M  V30 49 H -5.81154 -0.685016 -1.8098 0
M  V30 50 H -4.70747 0.765023 -1.59914 0
M  V30 51 H -7.07305 1.29881 -1.36268 0
M  V30 52 H -6.12195 1.5889 0.14754 0
M  V30 53 H -7.00571 -0.549726 1.0827 0
M  V30 54 H -7.9722 -0.828024 -0.41255 0
M  V30 55 H -9.37275 0.0281361 1.31843 0
M  V30 56 H -8.32305 1.42542 1.67085 0
M  V30 57 H -9.88912 0.894962 -0.933493 0
M  V30 58 H -8.74431 2.31306 -0.642345 0
M  V30 59 H -10.1769 3.2875 0.616973 0
M  V30 60 H -11.4124 2.20702 0.152837 0
M  V30 END ATOM
M  V30 BEGIN BOND
M  V30 1 1 1 2
M  V30 2 1 2 3
M  V30 3 1 3 4
M  V30 4 1 4 5
M  V30 5 1 5 6
M  V30 6 1 6 7
M  V30 7 1 7 8
M  V30 8 1 8 9
M  V30 9 1 9 10
M  V30 10 1 10 11
M  V30 11 1 11 12
M  V30 12 1 12 13
M  V30 13 1 13 14
M  V30 14 1 14 15
M  V30 15 1 15 16
M  V30 16 1 16 17
M  V30 17 1 17 18
M  V30 18 1 18 19
M  V30 19 1 19 20
M  V30 20 1 20 21
M  V30 21 1 21 22
M  V30 22 1 1 23
M  V30 23 1 1 24
M  V30 24 1 2 25
M  V30 25 1 2 26
M  V30 26 1 3 27
M  V30 27 1 3 28
M  V30 28 1 4 29
M  V30 29 1 4 30
M  V30 30 1 5 31
M  V30 31 1 5 32
M  V30 32 1 6 33
M  V30 33 1 6 34
M  V30 34 1 7 35
M  V30 35 1 7 36
M  V30 36 1 8 37
M  V30 37 1 9 38
M  V30 38 1 9 39
M  V30 39 1 10 40
M  V30 40 1 10 41
M  V30 41 1 13 42
M  V30 42 1 13 43
M  V30 43 1 14 44
M  V30 44 1 14 45
M  V30 45 1 15 46
M  V30 46 1 16 47
M  V30 47 1 16 48
M  V30 48 1 17 49
M  V30 49 1 17 50
M  V30 50 1 18 51
M  V30 51 1 18 52
M  V30 52 1 19 53
M  V30 53 1 19 54
M  V30 54 1 20 55
M  V30 55 1 20 56
M  V30 56 1 21 57
M  V30 57 1 21 58
M  V30 58 1 22 59
M  V30 59 1 22 60
M  V30 END BOND
M  V30 END CTAB
M  END
