
     RDKit          3D

  0  0  0  0  0  0  0  0  0  0999 V3000
M  V30 BEGIN CTAB
M  V30 COUNTS 38 39 0 0 0
M  V30 BEGIN ATOM
M  V30 1 C 3.84295 -2.46877 0.846336 0
M  V30 2 O 4.53304 -1.30319 0.498669 0
M  V30 3 C 3.93275 -0.131591 0.081981 0
M  V30 4 C 2.54762 -0.0223292 -0.0260199 0
M  V30 5 C 1.9247 1.14193 -0.441473 0
M  V30 6 C 0.472672 1.27362 -0.560307 0
M  V30 7 C -0.389673 0.333867 -0.295961 0
M  V30 8 C -1.83451 0.463397 -0.413711 0
M  V30 9 C -2.62624 -0.644665 -0.0903191 0
M  V30 10 C -3.99668 -0.573923 -0.184845 0
M  V30 11 O -4.83542 -1.63785 0.12158 0
M  V30 12 C -4.26334 -2.85297 0.551112 0
M  V30 13 C -4.57403 0.609785 -0.604307 0
M  V30 14 N -5.98434 0.690702 -0.704252 0
M  V30 15 C -3.84053 1.71635 -0.930235 0
M  V30 16 C -2.44451 1.61716 -0.825017 0
M  V30 17 C 2.77645 2.18696 -0.740992 0
M  V30 18 C 4.14767 2.10925 -0.644098 0
M  V30 19 C 4.7309 0.949784 -0.232286 0
M  V30 20 N 6.15706 0.888046 -0.137794 0
M  V30 21 H 2.97413 -2.17032 1.47696 0
M  V30 22 H 4.47423 -3.14012 1.46015 0
M  V30 23 H 3.52854 -2.99946 -0.0724889 0
M  V30 24 H 1.99404 -0.888629 0.230136 0
M  V30 25 H 0.113243 2.2304 -0.893792 0
M  V30 26 H 0.0155104 -0.642129 0.046217 0
M  V30 27 H -2.16686 -1.56568 0.236587 0
M  V30 28 H -3.91476 -3.48678 -0.30411 0
M  V30 29 H -3.49351 -2.68404 1.30937 0
M  V30 30 H -5.09417 -3.41753 1.0624 0
M  V30 31 H -6.58898 -0.155841 -0.812992 0
M  V30 32 H -6.49472 1.60408 -0.674309 0
M  V30 33 H -4.27039 2.65586 -1.26168 0
M  V30 34 H -1.82719 2.46551 -1.07203 0
M  V30 35 H 2.35437 3.12377 -1.07117 0
M  V30 36 H 4.78673 2.95089 -0.887763 0
M  V30 37 H 6.74591 0.365946 -0.807676 0
M  V30 38 H 6.58736 1.40852 0.660268 0
M  V30 END ATOM
M  V30 BEGIN BOND
M  V30 1 1 1 2
M  V30 2 1 2 3
M  V30 3 2 3 4
M  V30 4 1 4 5
M  V30 5 1 5 6
M  V30 6 2 6 7
M  V30 7 1 7 8
M  V30 8 2 8 9
M  V30 9 1 9 10
M  V30 10 1 10 11
M  V30 11 1 11 12
M  V30 12 2 10 13
M  V30 13 1 13 14
M  V30 14 1 13 15
M  V30 15 2 15 16
M  V30 16 2 5 17
M  V30 17 1 17 18
M  V30 18 2 18 19
M  V30 19 1 19 20
M  V30 20 1 19 3
M  V30 21 1 16 8
M  V30 22 1 1 21
M  V30 23 1 1 22
M  V30 24 1 1 23
M  V30 25 1 4 24
M  V30 26 1 6 25
M  V30 27 1 7 26
M  V30 28 1 9 27
M  V30 29 1 12 28
M  V30 30 1 12 29
M  V30 31 1 12 30
M  V30 32 1 14 31
M  V30 33 1 14 32
M  V30 34 1 15 33
M  V30 35 1 16 34
M  V30 36 1 17 35
M  V30 37 1 18 36
M  V30 38 1 20 37
M  V30 39 1 20 38
M  V30 END BOND
M  V30 END CTAB
M  END
