
     RDKit          3D

  0  0  0  0  0  0  0  0  0  0999 V3000
M  V30 BEGIN CTAB
M  V30 COUNTS 19 19 0 0 0
M  V30 BEGIN ATOM
M  V30 1 C 4.21457 0.0308708 -0.241583 0
M  V30 2 S 3.13993 0.0241535 -1.70148 0
M  V30 3 S 1.57717 1.44124 -1.49003 0
M  V30 4 C 0.140586 0.702928 -0.71199 0
M  V30 5 N 0.103339 -0.584535 -0.329089 0
M  V30 6 C -0.994142 -1.12419 0.258317 0
M  V30 7 N -1.01925 -2.48705 0.657973 0
M  V30 8 C -2.07943 -0.293486 0.448995 0
M  V30 9 C -2.06965 1.03131 0.0662539 0
M  V30 10 N -0.931541 1.48267 -0.51193 0
M  V30 11 N -3.19266 1.89179 0.26328 0
M  V30 12 H 5.15647 -0.494858 -0.508331 0
M  V30 13 H 3.73634 -0.466131 0.62107 0
M  V30 14 H 4.49584 1.08663 0.0261472 0
M  V30 15 H -0.388861 -3.19583 0.227917 0
M  V30 16 H -1.67311 -2.78875 1.38915 0
M  V30 17 H -2.99502 -0.677339 0.920079 0
M  V30 18 H -3.5286 2.1864 1.18898 0
M  V30 19 H -3.69198 2.23417 -0.586394 0
M  V30 END ATOM
M  V30 BEGIN BOND
M  V30 1 1 1 2
M  V30 2 1 2 3
M  V30 3 1 3 4
M  V30 4 2 4 5
M  V30 5 1 5 6
M  V30 6 1 6 7
M  V30 7 2 6 8
M  V30 8 1 8 9
M  V30 9 2 9 10
M  V30 10 1 9 11
M  V30 11 1 10 4
M  V30 12 1 1 12
M  V30 13 1 1 13
M  V30 14 1 1 14
M  V30 15 1 7 15
M  V30 16 1 7 16
M  V30 17 1 8 17
M  V30 18 1 11 18
M  V30 19 1 11 19
M  V30 END BOND
M  V30 END CTAB
M  END
