
     RDKit          3D

  0  0  0  0  0  0  0  0  0  0999 V3000
M  V30 BEGIN CTAB
M  V30 COUNTS 23 23 0 0 0
M  V30 BEGIN ATOM
M  V30 1 C 4.78285 -0.327973 1.30085 0
M  V30 2 C 4.28315 -0.0866387 0.22144 0
M  V30 3 C 3.66444 0.21138 -1.06611 0
M  V30 4 C 2.18057 0.458726 -0.868815 0
M  V30 5 S 1.35555 -0.986496 -0.158095 0
M  V30 6 C -0.380949 -0.568875 0.0240039 0
M  V30 7 N -0.877801 0.61558 -0.328325 0
M  V30 8 C -2.18801 0.958597 -0.201535 0
M  V30 9 N -2.64648 2.24266 -0.599232 0
M  V30 10 C -3.00831 -0.0106853 0.327503 0
M  V30 11 C -2.49902 -1.23094 0.690988 0
M  V30 12 N -1.17726 -1.52932 0.544975 0
M  V30 13 N -3.35232 -2.22935 1.23754 0
M  V30 14 H 5.21258 -0.527927 2.26028 0
M  V30 15 H 3.83928 -0.598081 -1.80542 0
M  V30 16 H 4.08045 1.17306 -1.46337 0
M  V30 17 H 2.10062 1.28234 -0.115718 0
M  V30 18 H 1.67839 0.765319 -1.78197 0
M  V30 19 H -3.43664 2.28335 -1.27433 0
M  V30 20 H -2.23861 3.13596 -0.255109 0
M  V30 21 H -4.05327 0.213856 0.447251 0
M  V30 22 H -4.16837 -2.00344 1.85775 0
M  V30 23 H -3.15084 -3.24111 1.00545 0
M  V30 END ATOM
M  V30 BEGIN BOND
M  V30 1 3 1 2
M  V30 2 1 2 3
M  V30 3 1 3 4
M  V30 4 1 4 5
M  V30 5 1 5 6
M  V30 6 2 6 7
M  V30 7 1 7 8
M  V30 8 1 8 9
M  V30 9 2 8 10
M  V30 10 1 10 11
M  V30 11 2 11 12
M  V30 12 1 11 13
M  V30 13 1 12 6
M  V30 14 1 1 14
M  V30 15 1 3 15
M  V30 16 1 3 16
M  V30 17 1 4 17
M  V30 18 1 4 18
M  V30 19 1 9 19
M  V30 20 1 9 20
M  V30 21 1 10 21
M  V30 22 1 13 22
M  V30 23 1 13 23
M  V30 END BOND
M  V30 END CTAB
M  END
