
     RDKit          3D

  0  0  0  0  0  0  0  0  0  0999 V3000
M  V30 BEGIN CTAB
M  V30 COUNTS 17 17 0 0 0
M  V30 BEGIN ATOM
M  V30 1 C 2.99382 -0.177325 0.16215 0
M  V30 2 O 1.76333 0.460864 0.224585 0
M  V30 3 C 0.53679 -0.132834 -0.00484981 0
M  V30 4 C -0.694477 0.484449 0.0525714 0
M  V30 5 N -0.943415 1.84006 0.356063 0
M  V30 6 C -1.68868 -0.447764 -0.240349 0
M  V30 7 N -3.10499 -0.209619 -0.286225 0
M  V30 8 N -1.02737 -1.59507 -0.464653 0
M  V30 9 N 0.280418 -1.4107 -0.326429 0
M  V30 10 H 2.95848 -1.22694 -0.188672 0
M  V30 11 H 3.76917 0.411047 -0.399519 0
M  V30 12 H 3.39654 -0.226476 1.21603 0
M  V30 13 H -1.26424 2.4714 -0.402845 0
M  V30 14 H -0.797546 2.16161 1.32841 0
M  V30 15 H -3.44592 0.585966 0.304454 0
M  V30 16 H -3.70144 -0.80194 -0.870058 0
M  V30 17 H 0.969547 -2.18674 -0.460668 0
M  V30 END ATOM
M  V30 BEGIN BOND
M  V30 1 1 1 2
M  V30 2 1 2 3
M  V30 3 2 3 4
M  V30 4 1 4 5
M  V30 5 1 4 6
M  V30 6 1 6 7
M  V30 7 2 6 8
M  V30 8 1 8 9
M  V30 9 1 9 3
M  V30 10 1 1 10
M  V30 11 1 1 11
M  V30 12 1 1 12
M  V30 13 1 5 13
M  V30 14 1 5 14
M  V30 15 1 7 15
M  V30 16 1 7 16
M  V30 17 1 9 17
M  V30 END BOND
M  V30 END CTAB
M  END
