
     RDKit          3D

  0  0  0  0  0  0  0  0  0  0999 V3000
M  V30 BEGIN CTAB
M  V30 COUNTS 37 38 0 0 0
M  V30 BEGIN ATOM
M  V30 1 N 6.4873 -0.528366 -2.18697 0
M  V30 2 C 5.45435 -0.301345 -1.22637 0
M  V30 3 C 5.5767 -0.757707 0.0709404 0
M  V30 4 C 4.59933 -0.557237 1.01828 0
M  V30 5 C 3.41746 0.128864 0.707783 0
M  V30 6 S 2.19371 0.359713 1.97901 0
M  V30 7 C 0.699159 1.17275 1.42265 0
M  V30 8 C -0.13764 0.38609 0.470875 0
M  V30 9 C -0.580299 -0.944641 1.07863 0
M  V30 10 S -1.59233 -1.80394 -0.164433 0
M  V30 11 C -3.11547 -0.902923 -0.389364 0
M  V30 12 C -4.18983 -1.28959 0.410489 0
M  V30 13 C -5.40541 -0.663059 0.323723 0
M  V30 14 C -5.56388 0.368032 -0.572609 0
M  V30 15 N -6.81583 1.03309 -0.680555 0
M  V30 16 C -4.49546 0.759679 -1.37475 0
M  V30 17 C -3.28078 0.121036 -1.27644 0
M  V30 18 C 3.30306 0.580801 -0.585795 0
M  V30 19 C 4.29671 0.375681 -1.54554 0
M  V30 20 H 6.35113 -0.471211 -3.21743 0
M  V30 21 H 7.43554 -0.766931 -1.82982 0
M  V30 22 H 6.49966 -1.29029 0.303646 0
M  V30 23 H 4.70611 -0.916637 2.02356 0
M  V30 24 H 1.02605 2.09638 0.857124 0
M  V30 25 H 0.12201 1.46624 2.32785 0
M  V30 26 H -1.07685 0.986956 0.302612 0
M  V30 27 H 0.294278 0.182441 -0.500251 0
M  V30 28 H 0.326696 -1.53307 1.33131 0
M  V30 29 H -1.21417 -0.691348 1.9384 0
M  V30 30 H -4.07786 -2.08876 1.10873 0
M  V30 31 H -6.26562 -0.934883 0.927476 0
M  V30 32 H -7.19876 1.43964 0.217225 0
M  V30 33 H -7.36487 1.14623 -1.54095 0
M  V30 34 H -4.57993 1.56437 -2.08966 0
M  V30 35 H -2.41825 0.403368 -1.8906 0
M  V30 36 H 2.41293 1.12201 -0.867165 0
M  V30 37 H 4.17108 0.74858 -2.56315 0
M  V30 END ATOM
M  V30 BEGIN BOND
M  V30 1 1 1 2
M  V30 2 2 2 3
M  V30 3 1 3 4
M  V30 4 2 4 5
M  V30 5 1 5 6
M  V30 6 1 6 7
M  V30 7 1 7 8
M  V30 8 1 8 9
M  V30 9 1 9 10
M  V30 10 1 10 11
M  V30 11 2 11 12
M  V30 12 1 12 13
M  V30 13 2 13 14
M  V30 14 1 14 15
M  V30 15 1 14 16
M  V30 16 2 16 17
M  V30 17 1 5 18
M  V30 18 2 18 19
M  V30 19 1 19 2
M  V30 20 1 17 11
M  V30 21 1 1 20
M  V30 22 1 1 21
M  V30 23 1 3 22
M  V30 24 1 4 23
M  V30 25 1 7 24
M  V30 26 1 7 25
M  V30 27 1 8 26
M  V30 28 1 8 27
M  V30 29 1 9 28
M  V30 30 1 9 29
M  V30 31 1 12 30
M  V30 32 1 13 31
M  V30 33 1 15 32
M  V30 34 1 15 33
M  V30 35 1 16 34
M  V30 36 1 17 35
M  V30 37 1 18 36
M  V30 38 1 19 37
M  V30 END BOND
M  V30 END CTAB
M  END
