
     RDKit          3D

  0  0  0  0  0  0  0  0  0  0999 V3000
M  V30 BEGIN CTAB
M  V30 COUNTS 30 31 0 0 0
M  V30 BEGIN ATOM
M  V30 1 N -3.16876 1.7871 -0.895932 0
M  V30 2 C -3.58135 0.5186 -0.310623 0
M  V30 3 C -2.89138 -0.607931 -1.0535 0
M  V30 4 C -1.75237 -0.441458 -0.0658821 0
M  V30 5 C -2.76083 0.106561 0.8959 0
M  V30 6 C -1.13724 -1.763 0.28835 0
M  V30 7 S 0.215293 -1.64117 1.45142 0
M  V30 8 C 1.61649 -0.792876 0.746078 0
M  V30 9 C 2.59807 -1.48906 0.0800812 0
M  V30 10 C 3.67853 -0.831435 -0.463842 0
M  V30 11 C 3.74011 0.540173 -0.317398 0
M  V30 12 C 2.76653 1.24554 0.344836 0
M  V30 13 C 1.68744 0.569708 0.885654 0
M  V30 14 N 4.8529 1.22798 -0.873553 0
M  V30 15 H -3.05018 2.514 -0.130308 0
M  V30 16 H -3.97101 2.16681 -1.47397 0
M  V30 17 H -4.6726 0.394678 -0.19205 0
M  V30 18 H -2.60457 -0.379472 -2.09442 0
M  V30 19 H -3.40229 -1.60412 -0.941147 0
M  V30 20 H -1.06408 0.324562 -0.415563 0
M  V30 21 H -3.31501 -0.647683 1.49838 0
M  V30 22 H -2.41788 0.984649 1.49108 0
M  V30 23 H -1.88861 -2.486 0.646429 0
M  V30 24 H -0.732868 -2.19614 -0.667527 0
M  V30 25 H 2.54944 -2.55612 -0.0336485 0
M  V30 26 H 4.43983 -1.39363 -0.984506 0
M  V30 27 H 2.81741 2.33645 0.459267 0
M  V30 28 H 0.908859 1.127 1.41516 0
M  V30 29 H 5.26489 0.946207 -1.78319 0
M  V30 30 H 5.27524 2.04009 -0.36136 0
M  V30 END ATOM
M  V30 BEGIN BOND
M  V30 1 1 1 2
M  V30 2 1 2 3
M  V30 3 1 3 4
M  V30 4 1 4 5
M  V30 5 1 4 6
M  V30 6 1 6 7
M  V30 7 1 7 8
M  V30 8 2 8 9
M  V30 9 1 9 10
M  V30 10 2 10 11
M  V30 11 1 11 12
M  V30 12 2 12 13
M  V30 13 1 11 14
M  V30 14 1 5 2
M  V30 15 1 13 8
M  V30 16 1 1 15
M  V30 17 1 1 16
M  V30 18 1 2 17
M  V30 19 1 3 18
M  V30 20 1 3 19
M  V30 21 1 4 20
M  V30 22 1 5 21
M  V30 23 1 5 22
M  V30 24 1 6 23
M  V30 25 1 6 24
M  V30 26 1 9 25
M  V30 27 1 10 26
M  V30 28 1 12 27
M  V30 29 1 13 28
M  V30 30 1 14 29
M  V30 31 1 14 30
M  V30 END BOND
M  V30 END CTAB
M  END
