
     RDKit          3D

  0  0  0  0  0  0  0  0  0  0999 V3000
M  V30 BEGIN CTAB
M  V30 COUNTS 38 39 0 0 0
M  V30 BEGIN ATOM
M  V30 1 C 2.43789 -0.613763 -3.13905 0
M  V30 2 O 1.68493 0.0217529 -2.14973 0
M  V30 3 C 2.12603 0.234595 -0.855389 0
M  V30 4 C 3.40448 -0.226524 -0.553125 0
M  V30 5 C 3.92852 -0.0599403 0.710156 0
M  V30 6 O 5.19724 -0.502953 1.05469 0
M  V30 7 C 5.98154 -1.14796 0.0762857 0
M  V30 8 C 3.16836 0.570392 1.67245 0
M  V30 9 C 1.90526 1.01787 1.34742 0
M  V30 10 C 1.34349 0.868504 0.0859639 0
M  V30 11 C 0.00923042 1.3569 -0.222557 0
M  V30 12 O -0.621379 1.9205 0.728754 0
M  V30 13 C -0.632051 1.23496 -1.54781 0
M  V30 14 S -2.32499 1.92874 -1.5181 0
M  V30 15 C -3.39737 0.950617 -0.483964 0
M  V30 16 N -4.09645 -0.0950606 -0.972635 0
M  V30 17 C -4.90894 -0.845183 -0.23034 0
M  V30 18 N -5.65126 -1.94637 -0.730456 0
M  V30 19 C -5.04557 -0.538902 1.11343 0
M  V30 20 C -4.34461 0.523275 1.64277 0
M  V30 21 N -3.53681 1.239 0.819192 0
M  V30 22 N -4.47867 0.843743 3.02199 0
M  V30 23 H 3.31572 0.0144827 -3.39746 0
M  V30 24 H 2.81527 -1.58073 -2.76683 0
M  V30 25 H 1.78593 -0.835678 -4.01298 0
M  V30 26 H 3.99852 -0.723721 -1.31538 0
M  V30 27 H 7.045 -1.22885 0.419288 0
M  V30 28 H 5.97668 -0.578602 -0.867433 0
M  V30 29 H 5.54651 -2.15045 -0.0943974 0
M  V30 30 H 3.51433 0.737521 2.69116 0
M  V30 31 H 1.29928 1.51435 2.09597 0
M  V30 32 H -0.743196 0.182768 -1.81682 0
M  V30 33 H -0.0464058 1.72607 -2.36396 0
M  V30 34 H -5.34116 -2.93824 -0.687987 0
M  V30 35 H -6.57307 -1.7443 -1.17121 0
M  V30 36 H -5.68296 -1.09285 1.79271 0
M  V30 37 H -4.53692 0.126458 3.77746 0
M  V30 38 H -4.5224 1.83758 3.31619 0
M  V30 END ATOM
M  V30 BEGIN BOND
M  V30 1 1 1 2
M  V30 2 1 2 3
M  V30 3 2 3 4
M  V30 4 1 4 5
M  V30 5 1 5 6
M  V30 6 1 6 7
M  V30 7 2 5 8
M  V30 8 1 8 9
M  V30 9 2 9 10
M  V30 10 1 10 11
M  V30 11 2 11 12
M  V30 12 1 11 13
M  V30 13 1 13 14
M  V30 14 1 14 15
M  V30 15 2 15 16
M  V30 16 1 16 17
M  V30 17 1 17 18
M  V30 18 2 17 19
M  V30 19 1 19 20
M  V30 20 2 20 21
M  V30 21 1 20 22
M  V30 22 1 10 3
M  V30 23 1 21 15
M  V30 24 1 1 23
M  V30 25 1 1 24
M  V30 26 1 1 25
M  V30 27 1 4 26
M  V30 28 1 7 27
M  V30 29 1 7 28
M  V30 30 1 7 29
M  V30 31 1 8 30
M  V30 32 1 9 31
M  V30 33 1 13 32
M  V30 34 1 13 33
M  V30 35 1 18 34
M  V30 36 1 18 35
M  V30 37 1 19 36
M  V30 38 1 22 37
M  V30 39 1 22 38
M  V30 END BOND
M  V30 END CTAB
M  END
