
     RDKit          3D

  0  0  0  0  0  0  0  0  0  0999 V3000
M  V30 BEGIN CTAB
M  V30 COUNTS 42 42 0 0 0
M  V30 BEGIN ATOM
M  V30 1 C -4.54293 1.80663 1.49447 0
M  V30 2 C -3.61254 1.07166 0.505672 0
M  V30 3 C -4.10438 -0.317872 0.374405 0
M  V30 4 C -3.38151 -1.22613 -0.558862 0
M  V30 5 C -1.94972 -1.33724 -0.10161 0
M  V30 6 O -1.67007 -2.3693 0.531641 0
M  V30 7 N -1.08336 -0.275451 -0.436123 0
M  V30 8 C 0.263247 -0.207083 -0.0923281 0
M  V30 9 C 1.08471 0.656201 -0.787454 0
M  V30 10 C 2.42652 0.775826 -0.469004 0
M  V30 11 C 2.99573 0.044885 0.546703 0
M  V30 12 C 2.16721 -0.805999 1.22591 0
M  V30 13 C 0.807501 -0.940937 0.919146 0
M  V30 14 O 4.32153 0.128558 0.89981 0
M  V30 15 C 5.13996 1.02913 0.161213 0
M  V30 16 C 6.54625 0.973285 0.698734 0
M  V30 17 N 7.02137 -0.396723 0.54332 0
M  V30 18 N -3.98951 -2.55921 -0.42688 0
M  V30 19 C -3.34194 -0.750422 -1.96834 0
M  V30 20 H -4.20935 1.57651 2.52757 0
M  V30 21 H -4.51539 2.88408 1.32079 0
M  V30 22 H -5.56174 1.36441 1.39171 0
M  V30 23 H -3.56061 1.68303 -0.385248 0
M  V30 24 H -2.6012 1.12358 1.0124 0
M  V30 25 H -4.13225 -0.738604 1.42553 0
M  V30 26 H -5.20401 -0.302353 0.105401 0
M  V30 27 H -1.45653 0.558675 -0.995521 0
M  V30 28 H 0.67075 1.24301 -1.58996 0
M  V30 29 H 3.05705 1.45757 -1.02405 0
M  V30 30 H 2.55258 -1.3987 2.02377 0
M  V30 31 H 0.235344 -1.64192 1.53671 0
M  V30 32 H 4.7639 2.07786 0.312705 0
M  V30 33 H 5.05916 0.781752 -0.903032 0
M  V30 34 H 7.1643 1.67216 0.0959166 0
M  V30 35 H 6.49891 1.25747 1.76908 0
M  V30 36 H 8.05344 -0.404125 0.380343 0
M  V30 37 H 6.54114 -0.88207 -0.265313 0
M  V30 38 H -5.02264 -2.50528 -0.448653 0
M  V30 39 H -3.56667 -3.24243 -1.06531 0
M  V30 40 H -4.18606 -1.10034 -2.59068 0
M  V30 41 H -3.25837 0.359574 -1.95328 0
M  V30 42 H -2.41979 -1.12366 -2.45181 0
M  V30 END ATOM
M  V30 BEGIN BOND
M  V30 1 1 1 2
M  V30 2 1 2 3
M  V30 3 1 3 4
M  V30 4 1 4 5
M  V30 5 2 5 6
M  V30 6 1 5 7
M  V30 7 1 7 8
M  V30 8 2 8 9
M  V30 9 1 9 10
M  V30 10 2 10 11
M  V30 11 1 11 12
M  V30 12 2 12 13
M  V30 13 1 11 14
M  V30 14 1 14 15
M  V30 15 1 15 16
M  V30 16 1 16 17
M  V30 17 1 4 18
M  V30 18 1 4 19
M  V30 19 1 13 8
M  V30 20 1 1 20
M  V30 21 1 1 21
M  V30 22 1 1 22
M  V30 23 1 2 23
M  V30 24 1 2 24
M  V30 25 1 3 25
M  V30 26 1 3 26
M  V30 27 1 7 27
M  V30 28 1 9 28
M  V30 29 1 10 29
M  V30 30 1 12 30
M  V30 31 1 13 31
M  V30 32 1 15 32
M  V30 33 1 15 33
M  V30 34 1 16 34
M  V30 35 1 16 35
M  V30 36 1 17 36
M  V30 37 1 17 37
M  V30 38 1 18 38
M  V30 39 1 18 39
M  V30 40 1 19 40
M  V30 41 1 19 41
M  V30 42 1 19 42
M  V30 END BOND
M  V30 END CTAB
M  END
