
     RDKit          3D

  0  0  0  0  0  0  0  0  0  0999 V3000
M  V30 BEGIN CTAB
M  V30 COUNTS 21 21 0 0 0
M  V30 BEGIN ATOM
M  V30 1 C 3.29987 0.215745 -0.0236421 0
M  V30 2 C 1.81612 0.178263 0.0498892 0
M  V30 3 C 1.118 -0.914813 -0.410695 0
M  V30 4 C -0.275264 -0.97568 -0.353448 0
M  V30 5 N -0.937233 -2.14048 -0.849241 0
M  V30 6 C -0.997651 0.0811889 0.177408 0
M  V30 7 C -0.2981 1.19605 0.647938 0
M  V30 8 C 1.07862 1.22718 0.578009 0
M  V30 9 C -2.43973 0.0377835 0.245635 0
M  V30 10 N -3.20198 1.24641 0.170401 0
M  V30 11 S -3.19362 -1.40071 0.409279 0
M  V30 12 H 3.72709 -0.426578 0.79478 0
M  V30 13 H 3.65185 1.25122 0.178962 0
M  V30 14 H 3.68378 -0.0882385 -1.01242 0
M  V30 15 H 1.6257 -1.78221 -0.841186 0
M  V30 16 H -1.06021 -2.96177 -0.231755 0
M  V30 17 H -1.31052 -2.20722 -1.8211 0
M  V30 18 H -0.89872 1.99739 1.05367 0
M  V30 19 H 1.60466 2.09631 0.945984 0
M  V30 20 H -4.23773 1.22167 0.330927 0
M  V30 21 H -2.75491 2.14848 -0.0393956 0
M  V30 END ATOM
M  V30 BEGIN BOND
M  V30 1 1 1 2
M  V30 2 2 2 3
M  V30 3 1 3 4
M  V30 4 1 4 5
M  V30 5 2 4 6
M  V30 6 1 6 7
M  V30 7 2 7 8
M  V30 8 1 6 9
M  V30 9 1 9 10
M  V30 10 2 9 11
M  V30 11 1 8 2
M  V30 12 1 1 12
M  V30 13 1 1 13
M  V30 14 1 1 14
M  V30 15 1 3 15
M  V30 16 1 5 16
M  V30 17 1 5 17
M  V30 18 1 7 18
M  V30 19 1 8 19
M  V30 20 1 10 20
M  V30 21 1 10 21
M  V30 END BOND
M  V30 END CTAB
M  END
