
     RDKit          3D

  0  0  0  0  0  0  0  0  0  0999 V3000
M  V30 BEGIN CTAB
M  V30 COUNTS 40 41 0 0 0
M  V30 BEGIN ATOM
M  V30 1 N -4.73614 1.90927 0.782087 0
M  V30 2 C -4.2462 1.08738 -0.307462 0
M  V30 3 C -3.09829 0.217402 0.156218 0
M  V30 4 C -3.48942 -0.701725 1.26459 0
M  V30 5 C -2.53346 -0.613235 -0.971568 0
M  V30 6 C -1.08999 -0.808497 -0.488741 0
M  V30 7 N -0.738591 0.418628 0.178086 0
M  V30 8 C -1.94429 1.11411 0.501654 0
M  V30 9 S 0.318025 0.191014 1.49982 0
M  V30 10 O 0.678486 1.50767 2.08404 0
M  V30 11 O -0.212072 -0.762655 2.5254 0
M  V30 12 C 1.8099 -0.514171 0.863767 0
M  V30 13 C 1.94341 -1.8877 0.785148 0
M  V30 14 C 3.11377 -2.42265 0.286468 0
M  V30 15 C 4.11333 -1.5751 -0.117834 0
M  V30 16 C 3.99161 -0.222079 -0.0444858 0
M  V30 17 C 2.83052 0.325749 0.450525 0
M  V30 18 S 5.32534 0.783399 -0.586027 0
M  V30 19 O 5.29828 2.04298 0.238929 0
M  V30 20 O 6.59166 0.00947948 -0.366167 0
M  V30 21 N 5.18756 1.17135 -2.2616 0
M  V30 22 H -5.76016 2.07592 0.696521 0
M  V30 23 H -4.57717 1.40086 1.6755 0
M  V30 24 H -3.90872 1.78585 -1.09993 0
M  V30 25 H -5.02135 0.450589 -0.755836 0
M  V30 26 H -4.50877 -1.10976 1.02131 0
M  V30 27 H -2.8095 -1.59259 1.26126 0
M  V30 28 H -3.45181 -0.258935 2.26748 0
M  V30 29 H -3.03943 -1.58968 -1.07755 0
M  V30 30 H -2.52136 -0.00878305 -1.89215 0
M  V30 31 H -0.463382 -0.889567 -1.401 0
M  V30 32 H -1.00405 -1.69815 0.141217 0
M  V30 33 H -2.009 2.01755 -0.163564 0
M  V30 34 H -1.98964 1.46316 1.55269 0
M  V30 35 H 1.11872 -2.53409 1.11962 0
M  V30 36 H 3.22773 -3.51081 0.220769 0
M  V30 37 H 5.02173 -2.00817 -0.505182 0
M  V30 38 H 2.71307 1.39786 0.517425 0
M  V30 39 H 5.69106 2.06838 -2.4509 0
M  V30 40 H 4.1786 1.26974 -2.51738 0
M  V30 END ATOM
M  V30 BEGIN BOND
M  V30 1 1 1 2
M  V30 2 1 2 3
M  V30 3 1 3 4
M  V30 4 1 3 5
M  V30 5 1 5 6
M  V30 6 1 6 7
M  V30 7 1 7 8
M  V30 8 1 7 9
M  V30 9 2 9 10
M  V30 10 2 9 11
M  V30 11 1 9 12
M  V30 12 2 12 13
M  V30 13 1 13 14
M  V30 14 2 14 15
M  V30 15 1 15 16
M  V30 16 2 16 17
M  V30 17 1 16 18
M  V30 18 2 18 19
M  V30 19 2 18 20
M  V30 20 1 18 21
M  V30 21 1 8 3
M  V30 22 1 17 12
M  V30 23 1 1 22
M  V30 24 1 1 23
M  V30 25 1 2 24
M  V30 26 1 2 25
M  V30 27 1 4 26
M  V30 28 1 4 27
M  V30 29 1 4 28
M  V30 30 1 5 29
M  V30 31 1 5 30
M  V30 32 1 6 31
M  V30 33 1 6 32
M  V30 34 1 8 33
M  V30 35 1 8 34
M  V30 36 1 13 35
M  V30 37 1 14 36
M  V30 38 1 15 37
M  V30 39 1 17 38
M  V30 40 1 21 39
M  V30 41 1 21 40
M  V30 END BOND
M  V30 END CTAB
M  END
