
     RDKit          3D

  0  0  0  0  0  0  0  0  0  0999 V3000
M  V30 BEGIN CTAB
M  V30 COUNTS 20 19 0 0 0
M  V30 BEGIN ATOM
M  V30 1 N 1.9987 1.12342 -0.301659 0
M  V30 2 C 1.50678 0.35376 0.836883 0
M  V30 3 C 0.718594 -0.865795 0.357703 0
M  V30 4 O 1.58888 -1.62877 -0.399462 0
M  V30 5 C -0.448551 -0.411503 -0.471772 0
M  V30 6 O -1.10943 -1.53951 -0.94345 0
M  V30 7 C -1.39886 0.469756 0.292372 0
M  V30 8 N -2.48344 0.88922 -0.574287 0
M  V30 9 H 2.19071 2.09971 -0.0205175 0
M  V30 10 H 2.76787 0.650841 -0.798015 0
M  V30 11 H 0.918019 1.00022 1.49692 0
M  V30 12 H 2.41845 0.00705171 1.38082 0
M  V30 13 H 0.419982 -1.43222 1.2525 0
M  V30 14 H 1.24935 -2.51515 -0.628449 0
M  V30 15 H -0.0532423 0.180858 -1.32188 0
M  V30 16 H -1.50741 -1.99485 -0.143365 0
M  V30 17 H -1.85884 -0.0393986 1.15664 0
M  V30 18 H -0.880777 1.39228 0.61826 0
M  V30 19 H -2.68072 1.91739 -0.476316 0
M  V30 20 H -3.35606 0.342684 -0.424352 0
M  V30 END ATOM
M  V30 BEGIN BOND
M  V30 1 1 1 2
M  V30 2 1 2 3
M  V30 3 1 3 4
M  V30 4 1 3 5
M  V30 5 1 5 6
M  V30 6 1 5 7
M  V30 7 1 7 8
M  V30 8 1 1 9
M  V30 9 1 1 10
M  V30 10 1 2 11
M  V30 11 1 2 12
M  V30 12 1 3 13
M  V30 13 1 4 14
M  V30 14 1 5 15
M  V30 15 1 6 16
M  V30 16 1 7 17
M  V30 17 1 7 18
M  V30 18 1 8 19
M  V30 19 1 8 20
M  V30 END BOND
M  V30 END CTAB
M  END
