
     RDKit          3D

  0  0  0  0  0  0  0  0  0  0999 V3000
M  V30 BEGIN CTAB
M  V30 COUNTS 52 54 0 0 0
M  V30 BEGIN ATOM
M  V30 1 O -3.34378 -2.65354 1.77806 0
M  V30 2 C -2.70658 -2.03364 1.00224 0
M  V30 3 C -1.23448 -1.94395 0.84451 0
M  V30 4 C -0.58346 -0.783483 0.804358 0
M  V30 5 C 0.573527 -0.637072 0.0719755 0
M  V30 6 C 1.05412 -1.70756 -0.585607 0
M  V30 7 C 0.505909 -2.94128 -0.600936 0
M  V30 8 C -0.698049 -3.0147 0.162741 0
M  V30 9 C 2.33981 -1.42331 -1.33842 0
M  V30 10 O 2.3027 -1.96546 -2.42896 0
M  V30 11 N 3.22357 -0.661263 -0.651218 0
M  V30 12 N 4.29701 -0.0204541 -0.46149 0
M  V30 13 C 4.81024 0.866276 0.486936 0
M  V30 14 O 4.09475 1.43936 1.41143 0
M  V30 15 C 6.24797 1.08855 0.407854 0
M  V30 16 C 6.97109 -0.112206 0.464813 0
M  V30 17 C 8.31211 -0.0759821 0.360749 0
M  V30 18 C 8.97345 1.15272 0.209022 0
M  V30 19 C 8.25956 2.30462 0.162924 0
M  V30 20 C 6.83095 2.24669 0.269212 0
M  V30 21 N 10.4019 1.14226 0.0709873 0
M  V30 22 N -3.22815 -1.21056 -0.0698235 0
M  V30 23 N -4.55815 -1.20087 -0.392233 0
M  V30 24 C -5.86102 -1.23677 -0.735721 0
M  V30 25 O -6.44793 -2.17766 -1.41752 0
M  V30 26 C -6.72518 -0.107966 -0.361252 0
M  V30 27 C -6.54798 0.580908 0.724196 0
M  V30 28 C -7.36296 1.68994 0.930161 0
M  V30 29 C -8.36185 2.04884 -0.0184815 0
M  V30 30 C -8.53153 1.27137 -1.17947 0
M  V30 31 C -7.70774 0.200686 -1.32528 0
M  V30 32 N -9.19596 3.14897 0.245735 0
M  V30 33 H -1.05225 0.0790915 1.33461 0
M  V30 34 H 1.0671 0.329569 -0.00229456 0
M  V30 35 H 0.888312 -3.81968 -1.13333 0
M  V30 36 H -1.13546 -4.02571 0.195189 0
M  V30 37 H 2.7015 -0.527049 0.449135 0
M  V30 38 H 5.22992 -0.276437 -1.15543 0
M  V30 39 H 6.41098 -1.0387 0.576049 0
M  V30 40 H 8.95102 -0.932418 0.356404 0
M  V30 41 H 8.61882 3.29769 -0.0024284 0
M  V30 42 H 6.23687 3.18774 0.212834 0
M  V30 43 H 10.8561 1.03001 -0.869034 0
M  V30 44 H 11.038 1.26781 0.888731 0
M  V30 45 H -2.54305 -0.564941 -0.503776 0
M  V30 46 H -4.22976 -2.16732 -1.31378 0
M  V30 47 H -5.81624 0.355654 1.53179 0
M  V30 48 H -7.22714 2.26433 1.80232 0
M  V30 49 H -9.3406 1.54761 -1.87976 0
M  V30 50 H -7.78878 -0.388742 -2.20676 0
M  V30 51 H -9.58161 3.6846 -0.548836 0
M  V30 52 H -9.38765 3.42345 1.23344 0
M  V30 END ATOM
M  V30 BEGIN BOND
M  V30 1 2 1 2
M  V30 2 1 2 3
M  V30 3 2 3 4
M  V30 4 1 4 5
M  V30 5 2 5 6
M  V30 6 1 6 7
M  V30 7 2 7 8
M  V30 8 1 6 9
M  V30 9 2 9 10
M  V30 10 1 9 11
M  V30 11 1 11 12
M  V30 12 1 12 13
M  V30 13 2 13 14
M  V30 14 1 13 15
M  V30 15 2 15 16
M  V30 16 1 16 17
M  V30 17 2 17 18
M  V30 18 1 18 19
M  V30 19 2 19 20
M  V30 20 1 18 21
M  V30 21 1 2 22
M  V30 22 1 22 23
M  V30 23 1 23 24
M  V30 24 2 24 25
M  V30 25 1 24 26
M  V30 26 2 26 27
M  V30 27 1 27 28
M  V30 28 2 28 29
M  V30 29 1 29 30
M  V30 30 2 30 31
M  V30 31 1 29 32
M  V30 32 1 8 3
M  V30 33 1 20 15
M  V30 34 1 31 26
M  V30 35 1 4 33
M  V30 36 1 5 34
M  V30 37 1 7 35
M  V30 38 1 8 36
M  V30 39 1 11 37
M  V30 40 1 12 38
M  V30 41 1 16 39
M  V30 42 1 17 40
M  V30 43 1 19 41
M  V30 44 1 20 42
M  V30 45 1 21 43
M  V30 46 1 21 44
M  V30 47 1 22 45
M  V30 48 1 23 46
M  V30 49 1 27 47
M  V30 50 1 28 48
M  V30 51 1 30 49
M  V30 52 1 31 50
M  V30 53 1 32 51
M  V30 54 1 32 52
M  V30 END BOND
M  V30 END CTAB
M  END
