
     RDKit          3D

  0  0  0  0  0  0  0  0  0  0999 V3000
M  V30 BEGIN CTAB
M  V30 COUNTS 58 60 0 0 0
M  V30 BEGIN ATOM
M  V30 1 C 7.60509 -3.00716 -1.53936 0
M  V30 2 O 7.25456 -2.0598 -0.530485 0
M  V30 3 C 5.98706 -1.51403 -0.459918 0
M  V30 4 O 5.17891 -1.93225 -1.37139 0
M  V30 5 C 5.5189 -0.542575 0.534662 0 CFG=2
M  V30 6 N 4.12123 -0.182384 0.281974 0
M  V30 7 C 3.11751 -0.557537 1.17303 0
M  V30 8 O 3.44752 -1.20347 2.2088 0
M  V30 9 C 1.71048 -0.246607 0.97345 0
M  V30 10 C 1.10232 -0.287081 -0.256706 0
M  V30 11 C -0.247914 0.00650723 -0.392664 0
M  V30 12 C -0.98654 0.342177 0.715981 0
M  V30 13 C -0.419082 0.396446 1.96407 0
M  V30 14 C 0.934353 0.0986231 2.07766 0
M  V30 15 N -2.41593 0.618813 0.616265 0
M  V30 16 C -3.23675 -0.426064 1.11579 0
M  V30 17 C -4.67624 -0.349193 0.929694 0
M  V30 18 C -5.51398 -0.816644 1.95628 0
M  V30 19 N -6.86157 -0.798819 1.84926 0
M  V30 20 C -7.46634 -0.324299 0.736453 0
M  V30 21 C -6.65479 0.136033 -0.272943 0
M  V30 22 N -5.30587 0.11121 -0.152485 0
M  V30 23 C -7.26137 0.619906 -1.41225 0
M  V30 24 N -6.43574 1.09626 -2.44722 0
M  V30 25 N -8.62154 0.617904 -1.48456 0
M  V30 26 C -9.41601 0.168958 -0.502694 0
M  V30 27 N -8.80972 -0.30335 0.613758 0
M  V30 28 N -10.8316 0.175042 -0.621967 0
M  V30 29 C -2.74614 1.87671 0.0484776 0
M  V30 30 C 6.39555 0.619612 0.826353 0
M  V30 31 C 6.7233 1.55356 -0.266602 0
M  V30 32 C 7.4471 0.993974 -1.41714 0
M  V30 33 O 6.92272 0.653826 -2.49572 0
M  V30 34 O 8.82701 0.836837 -1.28284 0
M  V30 35 H 8.36103 -2.65511 -2.23513 0
M  V30 36 H 7.99345 -3.90646 -1.03733 0
M  V30 37 H 6.66256 -3.32846 -2.06192 0
M  V30 38 H 5.48795 -1.13277 1.5205 0
M  V30 39 H 3.90617 0.354838 -0.565787 0
M  V30 40 H 1.73336 -0.557204 -1.10805 0
M  V30 41 H -0.707716 -0.0288775 -1.38271 0
M  V30 42 H -0.978072 0.660971 2.84997 0
M  V30 43 H 1.40543 0.133706 3.06159 0
M  V30 44 H -2.99091 -0.47073 2.24081 0
M  V30 45 H -2.80584 -1.41022 0.755897 0
M  V30 46 H -5.04205 -1.20218 2.8475 0
M  V30 47 H -6.67198 1.97887 -2.94502 0
M  V30 48 H -5.58395 0.572512 -2.72476 0
M  V30 49 H -11.2802 0.95989 -1.13423 0
M  V30 50 H -11.4415 -0.562677 -0.227407 0
M  V30 51 H -2.59582 2.71265 0.802437 0
M  V30 52 H -3.71193 2.00645 -0.416962 0
M  V30 53 H -1.99297 2.10642 -0.774566 0
M  V30 54 H 5.97693 1.23281 1.69466 0
M  V30 55 H 7.3712 0.235634 1.26479 0
M  V30 56 H 7.3431 2.4246 0.119689 0
M  V30 57 H 5.79813 2.06075 -0.683714 0
M  V30 58 H 9.37708 1.44345 -0.677224 0
M  V30 END ATOM
M  V30 BEGIN BOND
M  V30 1 1 1 2
M  V30 2 1 2 3
M  V30 3 2 3 4
M  V30 4 1 3 5
M  V30 5 1 5 6
M  V30 6 1 6 7
M  V30 7 2 7 8
M  V30 8 1 7 9
M  V30 9 2 9 10
M  V30 10 1 10 11
M  V30 11 2 11 12
M  V30 12 1 12 13
M  V30 13 2 13 14
M  V30 14 1 12 15
M  V30 15 1 15 16
M  V30 16 1 16 17
M  V30 17 2 17 18
M  V30 18 1 18 19
M  V30 19 2 19 20
M  V30 20 1 20 21
M  V30 21 2 21 22
M  V30 22 1 21 23
M  V30 23 1 23 24
M  V30 24 2 23 25
M  V30 25 1 25 26
M  V30 26 2 26 27
M  V30 27 1 26 28
M  V30 28 1 15 29
M  V30 29 1 5 30
M  V30 30 1 30 31
M  V30 31 1 31 32
M  V30 32 2 32 33
M  V30 33 1 32 34
M  V30 34 1 14 9
M  V30 35 1 22 17
M  V30 36 1 27 20
M  V30 37 1 1 35
M  V30 38 1 1 36
M  V30 39 1 1 37
M  V30 40 1 5 38 CFG=1
M  V30 41 1 6 39
M  V30 42 1 10 40
M  V30 43 1 11 41
M  V30 44 1 13 42
M  V30 45 1 14 43
M  V30 46 1 16 44
M  V30 47 1 16 45
M  V30 48 1 18 46
M  V30 49 1 24 47
M  V30 50 1 24 48
M  V30 51 1 28 49
M  V30 52 1 28 50
M  V30 53 1 29 51
M  V30 54 1 29 52
M  V30 55 1 29 53
M  V30 56 1 30 54
M  V30 57 1 30 55
M  V30 58 1 31 56
M  V30 59 1 31 57
M  V30 60 1 34 58
M  V30 END BOND
M  V30 END CTAB
M  END
