
     RDKit          3D

  0  0  0  0  0  0  0  0  0  0999 V3000
M  V30 BEGIN CTAB
M  V30 COUNTS 41 43 0 0 0
M  V30 BEGIN ATOM
M  V30 1 N -7.25349 0.573858 -0.0904461 0
M  V30 2 C -5.86523 0.277632 -0.0473482 0
M  V30 3 N -5.00965 1.20947 -0.43392 0
M  V30 4 C -3.68305 0.935341 -0.396033 0
M  V30 5 C -3.17344 -0.271079 0.0263371 0
M  V30 6 C -1.71481 -0.54526 0.0462079 0
M  V30 7 C -0.996314 0.741535 0.250788 0
M  V30 8 C 0.493927 0.596983 0.373824 0
M  V30 9 C 1.15692 -0.00858986 -0.810613 0
M  V30 10 C 2.62417 -0.0811518 -0.529734 0
M  V30 11 C 3.21742 -1.16696 0.0690434 0
M  V30 12 C 4.57172 -1.20971 0.31716 0
M  V30 13 C 5.39123 -0.152809 -0.0299906 0
M  V30 14 C 4.81365 0.938403 -0.628607 0
M  V30 15 C 3.47809 0.959653 -0.863691 0
M  V30 16 C 6.82254 -0.159882 0.214763 0
M  V30 17 O 7.46757 -1.22803 0.814259 0
M  V30 18 O 7.49808 0.8374 -0.129363 0
M  V30 19 C -1.41628 1.71154 -0.765497 0
M  V30 20 O -0.662929 2.30356 -1.58068 0
M  V30 21 N -2.81364 1.99719 -0.818302 0
M  V30 22 C -4.10039 -1.21876 0.422431 0
M  V30 23 N -3.5989 -2.46987 0.862155 0
M  V30 24 N -5.39803 -0.913539 0.371813 0
M  V30 25 H -7.7695 0.601071 -0.982874 0
M  V30 26 H -7.74662 0.763443 0.785997 0
M  V30 27 H -1.44168 -1.31428 0.795115 0
M  V30 28 H -1.47701 -0.983839 -0.965801 0
M  V30 29 H -1.3346 1.14113 1.25332 0
M  V30 30 H 0.693923 -0.0376603 1.255 0
M  V30 31 H 0.904047 1.60295 0.597963 0
M  V30 32 H 0.828579 -1.08553 -0.894636 0
M  V30 33 H 0.939658 0.446878 -1.77434 0
M  V30 34 H 2.60244 -2.01288 0.353808 0
M  V30 35 H 5.06362 -2.06199 0.791587 0
M  V30 36 H 5.42931 1.78743 -0.914679 0
M  V30 37 H 3.06666 1.85443 -1.34407 0
M  V30 38 H 8.44881 -1.36683 0.766971 0
M  V30 39 H -3.20576 2.91511 -1.1428 0
M  V30 40 H -3.84219 -3.33161 0.303843 0
M  V30 41 H -3.00885 -2.57476 1.70066 0
M  V30 END ATOM
M  V30 BEGIN BOND
M  V30 1 1 1 2
M  V30 2 2 2 3
M  V30 3 1 3 4
M  V30 4 2 4 5
M  V30 5 1 5 6
M  V30 6 1 6 7
M  V30 7 1 7 8
M  V30 8 1 8 9
M  V30 9 1 9 10
M  V30 10 2 10 11
M  V30 11 1 11 12
M  V30 12 2 12 13
M  V30 13 1 13 14
M  V30 14 2 14 15
M  V30 15 1 13 16
M  V30 16 1 16 17
M  V30 17 2 16 18
M  V30 18 1 7 19
M  V30 19 2 19 20
M  V30 20 1 19 21
M  V30 21 1 5 22
M  V30 22 1 22 23
M  V30 23 2 22 24
M  V30 24 1 24 2
M  V30 25 1 21 4
M  V30 26 1 15 10
M  V30 27 1 1 25
M  V30 28 1 1 26
M  V30 29 1 6 27
M  V30 30 1 6 28
M  V30 31 1 7 29
M  V30 32 1 8 30
M  V30 33 1 8 31
M  V30 34 1 9 32
M  V30 35 1 9 33
M  V30 36 1 11 34
M  V30 37 1 12 35
M  V30 38 1 14 36
M  V30 39 1 15 37
M  V30 40 1 17 38
M  V30 41 1 21 39
M  V30 42 1 23 40
M  V30 43 1 23 41
M  V30 END BOND
M  V30 END CTAB
M  END
