
     RDKit          3D

  0  0  0  0  0  0  0  0  0  0999 V3000
M  V30 BEGIN CTAB
M  V30 COUNTS 31 31 0 0 0
M  V30 BEGIN ATOM
M  V30 1 N 3.47575 1.71915 0.48222 0
M  V30 2 N 3.89899 0.521486 -0.0162936 0
M  V30 3 C 3.23943 -0.47656 -0.413018 0
M  V30 4 N 1.85577 -0.696463 -0.482712 0
M  V30 5 C 0.924961 -0.190177 0.457533 0
M  V30 6 C -0.430667 -0.858571 0.369332 0
M  V30 7 C -1.13127 -0.728063 -0.932174 0
M  V30 8 C -2.65605 -0.572817 -0.709046 0
M  V30 9 C -2.84795 0.694016 0.050757 0
M  V30 10 C -3.82193 1.52551 -0.208748 0
M  V30 11 C -1.87575 0.994552 1.12615 0
M  V30 12 C -1.25135 -0.328322 1.53878 0
M  V30 13 N 4.11983 -1.57357 -0.844118 0
M  V30 14 H 4.04676 2.56959 0.172771 0
M  V30 15 H 2.70243 1.94668 1.1108 0
M  V30 16 H 1.48952 -1.26418 -1.30227 0
M  V30 17 H 1.29747 -0.307803 1.48703 0
M  V30 18 H 0.820145 0.910375 0.259839 0
M  V30 19 H -0.222365 -1.94162 0.625117 0
M  V30 20 H -1.05126 -1.70867 -1.47006 0
M  V30 21 H -0.749004 0.056525 -1.58228 0
M  V30 22 H -2.93264 -1.45911 -0.0761764 0
M  V30 23 H -3.13562 -0.571176 -1.68475 0
M  V30 24 H -3.97407 2.44685 0.333544 0
M  V30 25 H -4.51845 1.27984 -1.01942 0
M  V30 26 H -2.34938 1.5018 1.99211 0
M  V30 27 H -1.10202 1.68685 0.679708 0
M  V30 28 H -2.0424 -1.08033 1.72159 0
M  V30 29 H -0.593259 -0.179009 2.41995 0
M  V30 30 H 4.06438 -2.45324 -0.313697 0
M  V30 31 H 4.74999 -1.46352 -1.63918 0
M  V30 END ATOM
M  V30 BEGIN BOND
M  V30 1 1 1 2
M  V30 2 2 2 3 CFG=2
M  V30 3 1 3 4
M  V30 4 1 4 5
M  V30 5 1 5 6
M  V30 6 1 6 7
M  V30 7 1 7 8
M  V30 8 1 8 9
M  V30 9 2 9 10 CFG=2
M  V30 10 1 9 11
M  V30 11 1 11 12
M  V30 12 1 3 13
M  V30 13 1 12 6
M  V30 14 1 1 14
M  V30 15 1 1 15
M  V30 16 1 4 16
M  V30 17 1 5 17
M  V30 18 1 5 18
M  V30 19 1 6 19
M  V30 20 1 7 20
M  V30 21 1 7 21
M  V30 22 1 8 22
M  V30 23 1 8 23
M  V30 24 1 10 24
M  V30 25 1 10 25
M  V30 26 1 11 26
M  V30 27 1 11 27
M  V30 28 1 12 28
M  V30 29 1 12 29
M  V30 30 1 13 30
M  V30 31 1 13 31
M  V30 END BOND
M  V30 END CTAB
M  END
