
     RDKit          3D

  0  0  0  0  0  0  0  0  0  0999 V3000
M  V30 BEGIN CTAB
M  V30 COUNTS 61 67 0 0 0
M  V30 BEGIN ATOM
M  V30 1 C -5.56447 1.97275 -2.05 0
M  V30 2 C -4.26763 1.47305 -2.54564 0
M  V30 3 C -3.40369 0.660546 -1.80258 0
M  V30 4 C -3.76697 0.303183 -0.552468 0
M  V30 5 O -4.8685 0.708548 -0.0898299 0
M  V30 6 N -2.97576 -0.494871 0.248175 0
M  V30 7 C -1.8078 -0.951045 -0.180146 0
M  V30 8 C -0.927722 -1.7739 0.659092 0
M  V30 9 N 0.364214 -1.19415 0.909367 0
M  V30 10 N 1.40628 -1.34791 0.126078 0
M  V30 11 C 2.48864 -0.680103 0.608928 0
M  V30 12 C 2.07565 -0.07678 1.76431 0
M  V30 13 C 2.65696 0.738056 2.70996 0
M  V30 14 N 4.02717 1.15029 2.54538 0
M  V30 15 N 1.98078 1.2156 3.79372 0
M  V30 16 C 0.697411 0.857396 3.91031 0
M  V30 17 N 0.102375 0.0723263 3.01222 0
M  V30 18 C 0.714894 -0.420926 1.93616 0
M  V30 19 C 3.79304 -0.606993 -0.015155 0
M  V30 20 C 4.94023 -1.02543 0.588595 0
M  V30 21 C 6.14277 -0.901504 -0.0540053 0
M  V30 22 C 6.16777 -0.345099 -1.3253 0
M  V30 23 O 7.1623 -0.10937 -2.15955 0
M  V30 24 C 6.7533 0.435928 -3.27541 0
M  V30 25 N 7.54931 0.819802 -4.38657 0
M  V30 26 N 5.40005 0.561923 -3.15509 0
M  V30 27 C 5.02354 0.0844385 -1.95728 0
M  V30 28 C 3.82825 -0.052602 -1.28597 0
M  V30 29 C -1.41759 -0.589199 -1.47599 0
M  V30 30 C -2.19912 0.204898 -2.28194 0
M  V30 31 C -1.79922 0.553493 -3.55971 0
M  V30 32 C -2.60777 1.34287 -4.31999 0
M  V30 33 C -3.80949 1.79252 -3.83069 0
M  V30 34 C -3.50671 -0.809854 1.5153 0
M  V30 35 C -3.57286 0.144597 2.4909 0
M  V30 36 C -4.11144 -0.121755 3.73762 0
M  V30 37 C -4.5919 -1.38332 3.99665 0
M  V30 38 C -4.53456 -2.3492 3.03554 0
M  V30 39 C -3.98543 -2.06346 1.7762 0
M  V30 40 H -5.49887 2.72533 -1.24377 0
M  V30 41 H -5.99004 2.59203 -2.90849 0
M  V30 42 H -6.34549 1.20428 -1.92505 0
M  V30 43 H -0.758679 -2.72985 0.0717842 0
M  V30 44 H -1.4087 -2.13194 1.59524 0
M  V30 45 H 4.7085 0.720508 3.2108 0
M  V30 46 H 4.311 1.82832 1.81361 0
M  V30 47 H 0.161119 1.24519 4.78579 0
M  V30 48 H 4.93173 -1.48754 1.59189 0
M  V30 49 H 7.08628 -1.22397 0.395098 0
M  V30 50 H 7.79809 0.139441 -5.11855 0
M  V30 51 H 7.87909 1.79326 -4.45544 0
M  V30 52 H 2.93437 0.288741 -1.79283 0
M  V30 53 H -0.468542 -0.96072 -1.82483 0
M  V30 54 H -0.848172 0.183212 -3.91466 0
M  V30 55 H -2.32376 1.6354 -5.32804 0
M  V30 56 H -4.42726 2.41825 -4.46214 0
M  V30 57 H -3.20641 1.16855 2.34479 0
M  V30 58 H -4.1724 0.615631 4.51824 0
M  V30 59 H -5.02428 -1.6174 4.98067 0
M  V30 60 H -4.92277 -3.33466 3.27304 0
M  V30 61 H -3.97113 -2.8668 1.06788 0
M  V30 END ATOM
M  V30 BEGIN BOND
M  V30 1 1 1 2
M  V30 2 2 2 3
M  V30 3 1 3 4
M  V30 4 2 4 5
M  V30 5 1 4 6
M  V30 6 1 6 7
M  V30 7 1 7 8
M  V30 8 1 8 9
M  V30 9 1 9 10
M  V30 10 2 10 11
M  V30 11 1 11 12
M  V30 12 2 12 13
M  V30 13 1 13 14
M  V30 14 1 13 15
M  V30 15 2 15 16
M  V30 16 1 16 17
M  V30 17 2 17 18
M  V30 18 1 11 19
M  V30 19 2 19 20
M  V30 20 1 20 21
M  V30 21 2 21 22
M  V30 22 1 22 23
M  V30 23 1 23 24
M  V30 24 1 24 25
M  V30 25 2 24 26
M  V30 26 1 26 27
M  V30 27 2 27 28
M  V30 28 2 7 29
M  V30 29 1 29 30
M  V30 30 2 30 31
M  V30 31 1 31 32
M  V30 32 2 32 33
M  V30 33 1 6 34
M  V30 34 2 34 35
M  V30 35 1 35 36
M  V30 36 2 36 37
M  V30 37 1 37 38
M  V30 38 2 38 39
M  V30 39 1 33 2
M  V30 40 1 39 34
M  V30 41 1 30 3
M  V30 42 1 18 9
M  V30 43 1 28 19
M  V30 44 1 18 12
M  V30 45 1 27 22
M  V30 46 1 1 40
M  V30 47 1 1 41
M  V30 48 1 1 42
M  V30 49 1 8 43
M  V30 50 1 8 44
M  V30 51 1 14 45
M  V30 52 1 14 46
M  V30 53 1 16 47
M  V30 54 1 20 48
M  V30 55 1 21 49
M  V30 56 1 25 50
M  V30 57 1 25 51
M  V30 58 1 28 52
M  V30 59 1 29 53
M  V30 60 1 31 54
M  V30 61 1 32 55
M  V30 62 1 33 56
M  V30 63 1 35 57
M  V30 64 1 36 58
M  V30 65 1 37 59
M  V30 66 1 38 60
M  V30 67 1 39 61
M  V30 END BOND
M  V30 END CTAB
M  END
