
     RDKit          3D

  0  0  0  0  0  0  0  0  0  0999 V3000
M  V30 BEGIN CTAB
M  V30 COUNTS 30 31 0 0 0
M  V30 BEGIN ATOM
M  V30 1 C 3.75867 -0.74825 -0.204741 0
M  V30 2 C 2.44631 -0.0538517 -0.0201458 0
M  V30 3 C 2.50117 1.4203 0.214061 0
M  V30 4 C 1.38071 -0.408263 -1.0587 0
M  V30 5 N 0.416584 -0.66316 -0.0325312 0
M  V30 6 C 1.53617 -0.823313 0.904149 0
M  V30 7 C -0.982419 -0.755197 0.160149 0
M  V30 8 N -1.55098 -1.87299 0.597548 0
M  V30 9 C -2.87955 -1.97293 0.7847 0
M  V30 10 C -3.7099 -0.90266 0.525185 0
M  V30 11 C -3.14389 0.272921 0.0688723 0
M  V30 12 C -1.76348 0.330995 -0.110373 0
M  V30 13 N -1.22598 1.55558 -0.579661 0
M  V30 14 N -3.9426 1.40363 -0.214403 0
M  V30 15 H 3.60539 -1.59376 -0.91362 0
M  V30 16 H 4.54629 -0.0887083 -0.622976 0
M  V30 17 H 4.14973 -1.17138 0.727508 0
M  V30 18 H 1.62817 1.70405 0.8466 0
M  V30 19 H 3.45355 1.77453 0.625819 0
M  V30 20 H 2.32048 1.92057 -0.774883 0
M  V30 21 H 1.1496 0.45043 -1.72368 0
M  V30 22 H 1.74199 -1.31046 -1.61815 0
M  V30 23 H 1.38491 -0.312484 1.86175 0
M  V30 24 H 1.78788 -1.90064 0.950681 0
M  V30 25 H -3.26466 -2.91585 1.14272 0
M  V30 26 H -4.79061 -0.973959 0.674111 0
M  V30 27 H -0.934826 2.34201 0.0102416 0
M  V30 28 H -1.12252 1.65159 -1.62785 0
M  V30 29 H -3.90963 1.88895 -1.11428 0
M  V30 30 H -4.58657 1.75229 0.521889 0
M  V30 END ATOM
M  V30 BEGIN BOND
M  V30 1 1 1 2
M  V30 2 1 2 3
M  V30 3 1 2 4
M  V30 4 1 4 5
M  V30 5 1 5 6
M  V30 6 1 5 7
M  V30 7 2 7 8
M  V30 8 1 8 9
M  V30 9 2 9 10
M  V30 10 1 10 11
M  V30 11 2 11 12
M  V30 12 1 12 13
M  V30 13 1 11 14
M  V30 14 1 6 2
M  V30 15 1 12 7
M  V30 16 1 1 15
M  V30 17 1 1 16
M  V30 18 1 1 17
M  V30 19 1 3 18
M  V30 20 1 3 19
M  V30 21 1 3 20
M  V30 22 1 4 21
M  V30 23 1 4 22
M  V30 24 1 6 23
M  V30 25 1 6 24
M  V30 26 1 9 25
M  V30 27 1 10 26
M  V30 28 1 13 27
M  V30 29 1 13 28
M  V30 30 1 14 29
M  V30 31 1 14 30
M  V30 END BOND
M  V30 END CTAB
M  END
