
     RDKit          3D

  0  0  0  0  0  0  0  0  0  0999 V3000
M  V30 BEGIN CTAB
M  V30 COUNTS 24 24 0 0 0
M  V30 BEGIN ATOM
M  V30 1 N 2.87849 -1.8415 0.599273 0
M  V30 2 C 1.98573 -0.763804 0.248756 0
M  V30 3 C 0.619352 -0.943445 0.283431 0
M  V30 4 C -0.235502 0.0748117 -0.099559 0
M  V30 5 C -1.66338 -0.0963932 -0.312608 0
M  V30 6 O -2.32613 0.675794 -1.22818 0
M  V30 7 C -2.51259 -0.671712 0.797442 0
M  V30 8 O -1.75795 -1.3172 1.76481 0
M  V30 9 C 0.358749 1.2612 -0.515345 0
M  V30 10 N -0.574294 2.3244 -0.821615 0
M  V30 11 C 1.69773 1.47811 -0.558787 0
M  V30 12 C 2.5409 0.447699 -0.168022 0
M  V30 13 H 3.37491 -1.81007 1.48228 0
M  V30 14 H 3.06589 -2.65261 -0.0586712 0
M  V30 15 H 0.174535 -1.87862 0.573154 0
M  V30 16 H -1.62871 -1.1785 -1.00325 0
M  V30 17 H -2.14466 0.423355 -2.17278 0
M  V30 18 H -3.1134 0.180803 1.22615 0
M  V30 19 H -3.23626 -1.42618 0.424863 0
M  V30 20 H -1.42288 -0.669217 2.44596 0
M  V30 21 H -1.17138 2.71524 -0.0689497 0
M  V30 22 H -0.614452 2.68358 -1.7738 0
M  V30 23 H 2.09951 2.43358 -0.888259 0
M  V30 24 H 3.6058 0.550676 -0.176302 0
M  V30 END ATOM
M  V30 BEGIN BOND
M  V30 1 1 1 2
M  V30 2 2 2 3
M  V30 3 1 3 4
M  V30 4 1 4 5
M  V30 5 1 5 6
M  V30 6 1 5 7
M  V30 7 1 7 8
M  V30 8 2 4 9
M  V30 9 1 9 10
M  V30 10 1 9 11
M  V30 11 2 11 12
M  V30 12 1 12 2
M  V30 13 1 1 13
M  V30 14 1 1 14
M  V30 15 1 3 15
M  V30 16 1 5 16
M  V30 17 1 6 17
M  V30 18 1 7 18
M  V30 19 1 7 19
M  V30 20 1 8 20
M  V30 21 1 10 21
M  V30 22 1 10 22
M  V30 23 1 11 23
M  V30 24 1 12 24
M  V30 END BOND
M  V30 END CTAB
M  END
