
     RDKit          3D

  0  0  0  0  0  0  0  0  0  0999 V3000
M  V30 BEGIN CTAB
M  V30 COUNTS 25 25 0 0 0
M  V30 BEGIN ATOM
M  V30 1 C -3.08869 0.118386 -0.365588 0
M  V30 2 C -1.87639 0.463901 0.493174 0
M  V30 3 O -0.779409 0.824401 -0.308795 0
M  V30 4 C 0.423348 0.147962 -0.306716 0
M  V30 5 N 0.602807 -0.917787 0.487072 0
M  V30 6 C 1.77144 -1.60158 0.510919 0
M  V30 7 N 1.95927 -2.73953 1.36023 0
M  V30 8 C 2.83431 -1.23246 -0.282417 0
M  V30 9 C 2.68428 -0.141477 -1.11051 0
M  V30 10 C 1.46651 0.542161 -1.11159 0
M  V30 11 N 1.31668 1.67227 -1.97197 0
M  V30 12 C -2.29453 1.53947 1.43946 0
M  V30 13 H -3.00166 0.612676 -1.36205 0
M  V30 14 H -3.09326 -0.984821 -0.479504 0
M  V30 15 H -4.03728 0.395304 0.137818 0
M  V30 16 H -1.56491 -0.424234 1.08032 0
M  V30 17 H 1.6818 -2.75934 2.36042 0
M  V30 18 H 2.41017 -3.57695 0.887711 0
M  V30 19 H 3.77591 -1.80034 -0.24929 0
M  V30 20 H 3.50746 0.161704 -1.73917 0
M  V30 21 H 0.980163 2.60313 -1.59131 0
M  V30 22 H 1.5513 1.54053 -2.9818 0
M  V30 23 H -3.3331 1.90187 1.25147 0
M  V30 24 H -1.65603 2.46075 1.37485 0
M  V30 25 H -2.24016 1.19401 2.47727 0
M  V30 END ATOM
M  V30 BEGIN BOND
M  V30 1 1 1 2
M  V30 2 1 2 3
M  V30 3 1 3 4
M  V30 4 2 4 5
M  V30 5 1 5 6
M  V30 6 1 6 7
M  V30 7 2 6 8
M  V30 8 1 8 9
M  V30 9 2 9 10
M  V30 10 1 10 11
M  V30 11 1 2 12
M  V30 12 1 10 4
M  V30 13 1 1 13
M  V30 14 1 1 14
M  V30 15 1 1 15
M  V30 16 1 2 16
M  V30 17 1 7 17
M  V30 18 1 7 18
M  V30 19 1 8 19
M  V30 20 1 9 20
M  V30 21 1 11 21
M  V30 22 1 11 22
M  V30 23 1 12 23
M  V30 24 1 12 24
M  V30 25 1 12 25
M  V30 END BOND
M  V30 END CTAB
M  END
