
     RDKit          3D

  0  0  0  0  0  0  0  0  0  0999 V3000
M  V30 BEGIN CTAB
M  V30 COUNTS 30 30 0 0 0
M  V30 BEGIN ATOM
M  V30 1 N -0.976079 -2.25699 -0.360473 0
M  V30 2 C -0.203659 -1.0675 -0.658564 0
M  V30 3 C -1.06532 0.102707 -0.566493 0
M  V30 4 C -1.09498 1.09309 -1.49919 0
M  V30 5 N -2.04042 2.08495 -1.52905 0
M  V30 6 C -3.02213 2.10006 -0.583068 0
M  V30 7 C -3.02199 1.10907 0.381363 0
M  V30 8 C -2.07601 0.126529 0.413265 0
M  V30 9 N -2.02677 -0.792591 1.50027 0
M  V30 10 C 1.14083 -1.01174 -0.0850624 0
M  V30 11 C 2.11585 0.073477 -0.300343 0
M  V30 12 C 3.34374 -0.364654 0.594682 0
M  V30 13 C 1.70793 1.39507 0.235158 0
M  V30 14 H -0.46998 -2.92428 0.226892 0
M  V30 15 H -1.26717 -2.77314 -1.24898 0
M  V30 16 H -0.00159272 -1.18881 -1.8124 0
M  V30 17 H -0.358149 1.18785 -2.32072 0
M  V30 18 H -3.78147 2.85823 -0.567385 0
M  V30 19 H -3.81399 1.16504 1.12203 0
M  V30 20 H -2.3717 -1.74022 1.57603 0
M  V30 21 H -1.53437 -0.361746 2.36517 0
M  V30 22 H 1.66322 -2.00423 -0.343428 0
M  V30 23 H 1.06182 -1.03959 1.08819 0
M  V30 24 H 2.5354 0.176145 -1.33029 0
M  V30 25 H 4.21728 0.240318 0.340295 0
M  V30 26 H 2.99578 -0.142004 1.61972 0
M  V30 27 H 3.50268 -1.43695 0.521052 0
M  V30 28 H 1.56144 2.16263 -0.550989 0
M  V30 29 H 0.79165 1.38039 0.854679 0
M  V30 30 H 2.48815 1.84888 0.917623 0
M  V30 END ATOM
M  V30 BEGIN BOND
M  V30 1 1 1 2
M  V30 2 1 2 3
M  V30 3 2 3 4
M  V30 4 1 4 5
M  V30 5 2 5 6
M  V30 6 1 6 7
M  V30 7 2 7 8
M  V30 8 1 8 9
M  V30 9 1 2 10
M  V30 10 1 10 11
M  V30 11 1 11 12
M  V30 12 1 11 13
M  V30 13 1 8 3
M  V30 14 1 1 14
M  V30 15 1 1 15
M  V30 16 1 2 16
M  V30 17 1 4 17
M  V30 18 1 6 18
M  V30 19 1 7 19
M  V30 20 1 9 20
M  V30 21 1 9 21
M  V30 22 1 10 22
M  V30 23 1 10 23
M  V30 24 1 11 24
M  V30 25 1 12 25
M  V30 26 1 12 26
M  V30 27 1 12 27
M  V30 28 1 13 28
M  V30 29 1 13 29
M  V30 30 1 13 30
M  V30 END BOND
M  V30 END CTAB
M  END
