
     RDKit          3D

  0  0  0  0  0  0  0  0  0  0999 V3000
M  V30 BEGIN CTAB
M  V30 COUNTS 23 23 0 0 0
M  V30 BEGIN ATOM
M  V30 1 O 3.8647 0.76313 -0.631569 0
M  V30 2 C 3.47172 -0.337018 0.150733 0
M  V30 3 C 2.03548 -0.177143 0.614973 0
M  V30 4 C 1.15838 -0.0853529 -0.585992 0
M  V30 5 C -0.267915 0.0729074 -0.277007 0
M  V30 6 N -1.13162 0.163928 -1.30564 0
M  V30 7 C -2.44294 0.30895 -1.15196 0
M  V30 8 N -3.29875 0.398593 -2.31233 0
M  V30 9 N -2.9545 0.370171 0.0755235 0
M  V30 10 C -2.12855 0.283497 1.1529 0
M  V30 11 N -0.793643 0.135686 0.951338 0
M  V30 12 N -2.69875 0.351422 2.44033 0
M  V30 13 H 3.87023 1.60141 -0.101156 0
M  V30 14 H 4.18555 -0.37589 1.00055 0
M  V30 15 H 3.53045 -1.23203 -0.495337 0
M  V30 16 H 1.80971 -1.09815 1.21361 0
M  V30 17 H 1.9403 0.688581 1.2893 0
M  V30 18 H 1.55118 0.713609 -1.25114 0
M  V30 19 H 1.2634 -1.0584 -1.14944 0
M  V30 20 H -3.98617 -0.350065 -2.54674 0
M  V30 21 H -3.16986 1.26801 -2.88822 0
M  V30 22 H -2.8583 -0.510338 2.97607 0
M  V30 23 H -2.9501 1.26794 2.83121 0
M  V30 END ATOM
M  V30 BEGIN BOND
M  V30 1 1 1 2
M  V30 2 1 2 3
M  V30 3 1 3 4
M  V30 4 1 4 5
M  V30 5 2 5 6
M  V30 6 1 6 7
M  V30 7 1 7 8
M  V30 8 2 7 9
M  V30 9 1 9 10
M  V30 10 2 10 11
M  V30 11 1 10 12
M  V30 12 1 11 5
M  V30 13 1 1 13
M  V30 14 1 2 14
M  V30 15 1 2 15
M  V30 16 1 3 16
M  V30 17 1 3 17
M  V30 18 1 4 18
M  V30 19 1 4 19
M  V30 20 1 8 20
M  V30 21 1 8 21
M  V30 22 1 12 22
M  V30 23 1 12 23
M  V30 END BOND
M  V30 END CTAB
M  END
