
     RDKit          3D

  0  0  0  0  0  0  0  0  0  0999 V3000
M  V30 BEGIN CTAB
M  V30 COUNTS 38 41 0 0 0
M  V30 BEGIN ATOM
M  V30 1 N 5.86214 1.66612 1.40768 0
M  V30 2 C 5.87078 0.38099 0.805037 0
M  V30 3 N 6.98524 -0.201834 0.607395 0
M  V30 4 C 4.57843 -0.185902 0.450892 0
M  V30 5 C 4.49073 -1.42688 -0.137564 0
M  V30 6 C 3.29429 -2.02213 -0.498494 0
M  V30 7 C 2.13388 -1.28514 -0.231653 0
M  V30 8 N 0.842451 -1.5169 -0.428456 0
M  V30 9 C 0.0964477 -0.458478 0.0174913 0
M  V30 10 N 0.927798 0.446818 0.499074 0
M  V30 11 C 2.19581 -0.0471428 0.353648 0
M  V30 12 C 3.39213 0.511082 0.697191 0
M  V30 13 C -1.37326 -0.470591 -0.0883874 0
M  V30 14 C -2.17536 0.551316 0.336563 0
M  V30 15 N -1.65761 1.73391 0.92693 0
M  V30 16 C -3.57302 0.444407 0.19108 0
M  V30 17 C -4.39044 1.47218 0.617732 0
M  V30 18 C -5.75976 1.37726 0.479806 0
M  V30 19 C -6.35363 0.265375 -0.082563 0
M  V30 20 C -5.54362 -0.765512 -0.511183 0
M  V30 21 C -4.17554 -0.657419 -0.367158 0
M  V30 22 N -3.35995 -1.6408 -0.773105 0
M  V30 23 C -2.02274 -1.56001 -0.644001 0
M  V30 24 O -1.31772 -2.5416 -1.05665 0
M  V30 25 H 6.01411 1.79262 2.42016 0
M  V30 26 H 5.69893 2.49264 0.812008 0
M  V30 27 H 7.07429 -1.13232 0.176701 0
M  V30 28 H 5.36936 -2.03806 -0.364552 0
M  V30 29 H 3.20948 -2.99357 -0.960239 0
M  V30 30 H 0.688736 1.37253 0.917284 0
M  V30 31 H 3.42981 1.49194 1.16015 0
M  V30 32 H -1.43952 2.58983 0.376575 0
M  V30 33 H -1.485 1.75708 1.95248 0
M  V30 34 H -3.90475 2.34758 1.06173 0
M  V30 35 H -6.36082 2.19691 0.823528 0
M  V30 36 H -7.42149 0.16957 -0.200348 0
M  V30 37 H -6.01388 -1.64029 -0.953838 0
M  V30 38 H -3.82672 -2.47558 -1.19674 0
M  V30 END ATOM
M  V30 BEGIN BOND
M  V30 1 1 1 2
M  V30 2 2 2 3 CFG=2
M  V30 3 1 2 4
M  V30 4 2 4 5
M  V30 5 1 5 6
M  V30 6 2 6 7
M  V30 7 1 7 8
M  V30 8 2 8 9
M  V30 9 1 9 10
M  V30 10 1 10 11
M  V30 11 2 11 12
M  V30 12 1 9 13
M  V30 13 2 13 14
M  V30 14 1 14 15
M  V30 15 1 14 16
M  V30 16 2 16 17
M  V30 17 1 17 18
M  V30 18 2 18 19
M  V30 19 1 19 20
M  V30 20 2 20 21
M  V30 21 1 21 22
M  V30 22 1 22 23
M  V30 23 2 23 24
M  V30 24 1 12 4
M  V30 25 1 23 13
M  V30 26 1 11 7
M  V30 27 1 21 16
M  V30 28 1 1 25
M  V30 29 1 1 26
M  V30 30 1 3 27
M  V30 31 1 5 28
M  V30 32 1 6 29
M  V30 33 1 10 30
M  V30 34 1 12 31
M  V30 35 1 15 32
M  V30 36 1 15 33
M  V30 37 1 17 34
M  V30 38 1 18 35
M  V30 39 1 19 36
M  V30 40 1 20 37
M  V30 41 1 22 38
M  V30 END BOND
M  V30 END CTAB
M  END
