
     RDKit          3D

  0  0  0  0  0  0  0  0  0  0999 V3000
M  V30 BEGIN CTAB
M  V30 COUNTS 42 43 0 0 0
M  V30 BEGIN ATOM
M  V30 1 C -2.9481 2.47525 1.19619 0
M  V30 2 O -3.17299 1.39166 0.347979 0
M  V30 3 C -3.25097 0.251788 1.14231 0
M  V30 4 C -3.49516 -0.994116 0.319442 0
M  V30 5 C -2.35608 -1.28615 -0.583337 0
M  V30 6 O -2.60261 -1.43761 -1.81947 0
M  V30 7 N -1.01684 -1.39846 -0.103952 0
M  V30 8 C 0.114721 -1.67861 -0.934434 0
M  V30 9 C 1.12766 -0.581246 -0.901295 0
M  V30 10 C 1.71809 -0.107511 -2.05488 0
M  V30 11 C 2.65218 0.906757 -2.0083 0
M  V30 12 C 3.04575 1.4986 -0.825943 0
M  V30 13 C 2.459 1.02949 0.332298 0
M  V30 14 C 1.52526 0.0143759 0.277057 0
M  V30 15 C 2.85689 1.62535 1.5103 0
M  V30 16 C 3.7909 2.63768 1.54409 0
M  V30 17 C 4.37719 3.105 0.376726 0
M  V30 18 C 3.98637 2.51591 -0.807374 0
M  V30 19 C 0.834881 -2.94726 -0.539173 0
M  V30 20 N 0.0194326 -4.11552 -0.605568 0
M  V30 21 N -4.71299 -0.938543 -0.426379 0
M  V30 22 H -2.87542 3.43123 0.607226 0
M  V30 23 H -2.12388 2.3304 1.89265 0
M  V30 24 H -3.88727 2.56892 1.81627 0
M  V30 25 H -2.30748 0.0917133 1.70716 0
M  V30 26 H -4.13224 0.383033 1.80442 0
M  V30 27 H -3.61624 -1.82722 1.0701 0
M  V30 28 H -0.867517 -1.26603 0.91624 0
M  V30 29 H -0.191232 -1.79637 -1.99995 0
M  V30 30 H 1.42514 -0.556255 -2.99294 0
M  V30 31 H 3.1219 1.28439 -2.92071 0
M  V30 32 H 1.0739 -0.342193 1.1985 0
M  V30 33 H 2.42925 1.29611 2.44391 0
M  V30 34 H 4.10209 3.10601 2.48167 0
M  V30 35 H 5.11686 3.90792 0.412281 0
M  V30 36 H 4.43979 2.87355 -1.73685 0
M  V30 37 H 1.29276 -2.87087 0.447726 0
M  V30 38 H 1.67139 -3.0707 -1.28338 0
M  V30 39 H -0.220213 -4.4266 0.359622 0
M  V30 40 H 0.417984 -4.87969 -1.19046 0
M  V30 41 H -5.11516 -1.87104 -0.6323 0
M  V30 42 H -4.70698 -0.333186 -1.25179 0
M  V30 END ATOM
M  V30 BEGIN BOND
M  V30 1 1 1 2
M  V30 2 1 2 3
M  V30 3 1 3 4
M  V30 4 1 4 5
M  V30 5 2 5 6
M  V30 6 1 5 7
M  V30 7 1 7 8
M  V30 8 1 8 9
M  V30 9 2 9 10
M  V30 10 1 10 11
M  V30 11 2 11 12
M  V30 12 1 12 13
M  V30 13 2 13 14
M  V30 14 1 13 15
M  V30 15 2 15 16
M  V30 16 1 16 17
M  V30 17 2 17 18
M  V30 18 1 8 19
M  V30 19 1 19 20
M  V30 20 1 4 21
M  V30 21 1 14 9
M  V30 22 1 18 12
M  V30 23 1 1 22
M  V30 24 1 1 23
M  V30 25 1 1 24
M  V30 26 1 3 25
M  V30 27 1 3 26
M  V30 28 1 4 27
M  V30 29 1 7 28
M  V30 30 1 8 29
M  V30 31 1 10 30
M  V30 32 1 11 31
M  V30 33 1 14 32
M  V30 34 1 15 33
M  V30 35 1 16 34
M  V30 36 1 17 35
M  V30 37 1 18 36
M  V30 38 1 19 37
M  V30 39 1 19 38
M  V30 40 1 20 39
M  V30 41 1 20 40
M  V30 42 1 21 41
M  V30 43 1 21 42
M  V30 END BOND
M  V30 END CTAB
M  END
