
     RDKit          3D

  0  0  0  0  0  0  0  0  0  0999 V3000
M  V30 BEGIN CTAB
M  V30 COUNTS 46 48 0 0 0
M  V30 BEGIN ATOM
M  V30 1 N 1.76668 -0.73375 0.21127 0
M  V30 2 C 1.93147 0.614553 -0.0182841 0
M  V30 3 C 0.706294 1.43681 -0.00904635 0
M  V30 4 O 0.902643 2.70233 -0.199777 0
M  V30 5 N -0.609009 1.01645 0.177658 0
M  V30 6 C -1.26862 -0.237342 0.40512 0
M  V30 7 C -2.45689 -0.141189 -0.566493 0 CFG=2
M  V30 8 C -2.62505 1.30787 -0.871504 0 CFG=1
M  V30 9 C -1.75484 1.96022 0.181051 0
M  V30 10 N -2.04488 1.64827 -2.16122 0
M  V30 11 C -3.65071 -0.826588 -0.0687096 0
M  V30 12 C -4.32156 -0.427756 1.06758 0
M  V30 13 C -5.45899 -1.09056 1.53112 0
M  V30 14 C -5.9275 -2.19224 0.816637 0
M  V30 15 C -5.276 -2.60331 -0.312806 0
M  V30 16 C -4.16316 -1.92882 -0.737912 0
M  V30 17 C 2.98069 1.23234 0.919466 0
M  V30 18 C 4.27316 0.544092 0.68648 0
M  V30 19 C 5.13004 1.0302 -0.250892 0
M  V30 20 C 6.33109 0.385724 -0.46338 0
M  V30 21 C 6.62688 -0.740917 0.288356 0
M  V30 22 C 5.75921 -1.23167 1.23631 0
M  V30 23 C 4.5585 -0.587803 1.4491 0
M  V30 24 H 1.76511 -1.31238 -0.573766 0
M  V30 25 H 1.63747 -1.13968 1.08146 0
M  V30 26 H 2.41177 0.726027 -1.03852 0
M  V30 27 H -0.699681 -1.14045 0.251338 0
M  V30 28 H -1.71828 -0.238164 1.43429 0
M  V30 29 H -2.09189 -0.644817 -1.49677 0
M  V30 30 H -3.67554 1.65574 -0.815194 0
M  V30 31 H -1.44622 2.97785 -0.100147 0
M  V30 32 H -2.1685 1.88928 1.19924 0
M  V30 33 H -2.62192 2.34655 -2.67383 0
M  V30 34 H -1.84177 0.80169 -2.73475 0
M  V30 35 H -3.99901 0.409888 1.64604 0
M  V30 36 H -5.95975 -0.753863 2.42189 0
M  V30 37 H -6.81748 -2.68023 1.21277 0
M  V30 38 H -5.67133 -3.46837 -0.845156 0
M  V30 39 H -3.67158 -2.28119 -1.63623 0
M  V30 40 H 3.09389 2.28519 0.624522 0
M  V30 41 H 2.68616 1.10017 1.97696 0
M  V30 42 H 4.91831 1.9172 -0.855901 0
M  V30 43 H 7.04657 0.724561 -1.19037 0
M  V30 44 H 7.57132 -1.23904 0.114073 0
M  V30 45 H 5.97509 -2.10506 1.82743 0
M  V30 46 H 3.8678 -0.967823 2.19487 0
M  V30 END ATOM
M  V30 BEGIN BOND
M  V30 1 1 1 2
M  V30 2 1 2 3
M  V30 3 2 3 4
M  V30 4 1 3 5
M  V30 5 1 5 6
M  V30 6 1 6 7
M  V30 7 1 7 8
M  V30 8 1 8 9
M  V30 9 1 8 10
M  V30 10 1 7 11
M  V30 11 2 11 12
M  V30 12 1 12 13
M  V30 13 2 13 14
M  V30 14 1 14 15
M  V30 15 2 15 16
M  V30 16 1 2 17
M  V30 17 1 17 18
M  V30 18 2 18 19
M  V30 19 1 19 20
M  V30 20 2 20 21
M  V30 21 1 21 22
M  V30 22 2 22 23
M  V30 23 1 9 5
M  V30 24 1 16 11
M  V30 25 1 23 18
M  V30 26 1 1 24
M  V30 27 1 1 25
M  V30 28 1 2 26
M  V30 29 1 6 27
M  V30 30 1 6 28
M  V30 31 1 7 29 CFG=3
M  V30 32 1 8 30 CFG=3
M  V30 33 1 9 31
M  V30 34 1 9 32
M  V30 35 1 10 33
M  V30 36 1 10 34
M  V30 37 1 12 35
M  V30 38 1 13 36
M  V30 39 1 14 37
M  V30 40 1 15 38
M  V30 41 1 16 39
M  V30 42 1 17 40
M  V30 43 1 17 41
M  V30 44 1 19 42
M  V30 45 1 20 43
M  V30 46 1 21 44
M  V30 47 1 22 45
M  V30 48 1 23 46
M  V30 END BOND
M  V30 END CTAB
M  END
