
     RDKit          3D

  0  0  0  0  0  0  0  0  0  0999 V3000
M  V30 BEGIN CTAB
M  V30 COUNTS 38 38 0 0 0
M  V30 BEGIN ATOM
M  V30 1 O -2.49822 -1.56978 1.31831 0
M  V30 2 C -2.87807 -0.680975 0.536718 0
M  V30 3 C -4.32463 -0.451252 0.349815 0
M  V30 4 N -5.10587 -1.36178 1.163 0
M  V30 5 C -4.6 0.997659 0.755747 0
M  V30 6 C -4.63377 -0.608443 -1.12565 0
M  V30 7 N -1.94743 0.116531 -0.178816 0
M  V30 8 C -0.520397 -0.0672517 -0.0322465 0
M  V30 9 C 0.19926 0.921241 -0.914363 0
M  V30 10 C 1.67408 0.695297 -0.730922 0
M  V30 11 C 2.3355 1.38426 0.241912 0
M  V30 12 C 3.69293 1.21003 0.44877 0
M  V30 13 C 4.38459 0.326119 -0.341862 0
M  V30 14 C 3.69785 -0.36149 -1.32069 0
M  V30 15 C 2.35526 -0.203629 -1.54158 0
M  V30 16 S 6.10203 0.0783626 -0.110954 0
M  V30 17 O 6.74509 1.34685 0.386422 0
M  V30 18 O 6.66988 -0.342675 -1.43337 0
M  V30 19 N 6.28645 -1.20436 1.03067 0
M  V30 20 H -5.07831 -2.30027 0.705404 0
M  V30 21 H -6.05721 -1.02165 1.36002 0
M  V30 22 H -5.43951 1.42109 0.172944 0
M  V30 23 H -3.68494 1.58593 0.538156 0
M  V30 24 H -4.75664 1.02317 1.84512 0
M  V30 25 H -4.65752 0.367409 -1.65198 0
M  V30 26 H -5.6028 -1.16843 -1.27286 0
M  V30 27 H -3.86568 -1.23211 -1.64784 0
M  V30 28 H -2.26402 0.872736 -0.84394 0
M  V30 29 H -0.296234 -1.0882 -0.41896 0
M  V30 30 H -0.233873 0.0416076 1.03226 0
M  V30 31 H -0.0507378 1.9666 -0.630881 0
M  V30 32 H -0.106105 0.779974 -1.96188 0
M  V30 33 H 1.76289 2.07644 0.851857 0
M  V30 34 H 4.19017 1.77661 1.23497 0
M  V30 35 H 4.2148 -1.07463 -1.97078 0
M  V30 36 H 1.80253 -0.735505 -2.30516 0
M  V30 37 H 7.07942 -1.7971 0.698728 0
M  V30 38 H 5.40924 -1.71839 1.19694 0
M  V30 END ATOM
M  V30 BEGIN BOND
M  V30 1 2 1 2
M  V30 2 1 2 3
M  V30 3 1 3 4
M  V30 4 1 3 5
M  V30 5 1 3 6
M  V30 6 1 2 7
M  V30 7 1 7 8
M  V30 8 1 8 9
M  V30 9 1 9 10
M  V30 10 2 10 11
M  V30 11 1 11 12
M  V30 12 2 12 13
M  V30 13 1 13 14
M  V30 14 2 14 15
M  V30 15 1 13 16
M  V30 16 2 16 17
M  V30 17 2 16 18
M  V30 18 1 16 19
M  V30 19 1 15 10
M  V30 20 1 4 20
M  V30 21 1 4 21
M  V30 22 1 5 22
M  V30 23 1 5 23
M  V30 24 1 5 24
M  V30 25 1 6 25
M  V30 26 1 6 26
M  V30 27 1 6 27
M  V30 28 1 7 28
M  V30 29 1 8 29
M  V30 30 1 8 30
M  V30 31 1 9 31
M  V30 32 1 9 32
M  V30 33 1 11 33
M  V30 34 1 12 34
M  V30 35 1 14 35
M  V30 36 1 15 36
M  V30 37 1 19 37
M  V30 38 1 19 38
M  V30 END BOND
M  V30 END CTAB
M  END
