
     RDKit          3D

  0  0  0  0  0  0  0  0  0  0999 V3000
M  V30 BEGIN CTAB
M  V30 COUNTS 23 23 0 0 0
M  V30 BEGIN ATOM
M  V30 1 C 2.94337 1.03454 0.466184 0
M  V30 2 C 2.92582 -0.430737 0.134282 0
M  V30 3 O 2.00308 -0.738136 -0.843373 0
M  V30 4 C 0.649619 -0.55397 -0.734527 0
M  V30 5 C 0.0370557 -0.044166 0.38501 0
M  V30 6 C -1.35805 0.114933 0.423238 0
M  V30 7 N -1.98385 0.641263 1.57942 0
M  V30 8 C -2.11866 -0.242738 -0.668672 0
M  V30 9 C -1.49062 -0.753772 -1.78612 0
M  V30 10 C -0.14487 -0.914112 -1.84076 0
M  V30 11 F 0.447358 -1.41505 -2.94209 0
M  V30 12 N -3.5323 -0.0724778 -0.607146 0
M  V30 13 H 3.92958 1.45276 0.148581 0
M  V30 14 H 2.17929 1.5981 -0.128095 0
M  V30 15 H 2.78266 1.25114 1.5376 0
M  V30 16 H 2.77292 -1.02018 1.08708 0
M  V30 17 H 3.93914 -0.77702 -0.213231 0
M  V30 18 H 0.620584 0.235266 1.26139 0
M  V30 19 H -1.72451 0.256641 2.50702 0
M  V30 20 H -2.68881 1.39676 1.5082 0
M  V30 21 H -2.15794 -1.01866 -2.62113 0
M  V30 22 H -4.14904 -0.910242 -0.544473 0
M  V30 23 H -3.88183 0.909843 -0.62887 0
M  V30 END ATOM
M  V30 BEGIN BOND
M  V30 1 1 1 2
M  V30 2 1 2 3
M  V30 3 1 3 4
M  V30 4 2 4 5
M  V30 5 1 5 6
M  V30 6 1 6 7
M  V30 7 2 6 8
M  V30 8 1 8 9
M  V30 9 2 9 10
M  V30 10 1 10 11
M  V30 11 1 8 12
M  V30 12 1 10 4
M  V30 13 1 1 13
M  V30 14 1 1 14
M  V30 15 1 1 15
M  V30 16 1 2 16
M  V30 17 1 2 17
M  V30 18 1 5 18
M  V30 19 1 7 19
M  V30 20 1 7 20
M  V30 21 1 9 21
M  V30 22 1 12 22
M  V30 23 1 12 23
M  V30 END BOND
M  V30 END CTAB
M  END
