
     RDKit          3D

  0  0  0  0  0  0  0  0  0  0999 V3000
M  V30 BEGIN CTAB
M  V30 COUNTS 20 20 0 0 0
M  V30 BEGIN ATOM
M  V30 1 N 0.0671898 1.65159 1.27286 0
M  V30 2 C -0.893181 0.841824 0.652684 0
M  V30 3 N -2.20298 0.732736 1.00362 0
M  V30 4 C -2.9925 -0.201912 0.375806 0
M  V30 5 C -2.48974 -1.0037 -0.591984 0
M  V30 6 C -1.14491 -0.940216 -1.00686 0
M  V30 7 C -0.399603 -0.0196148 -0.367094 0
M  V30 8 C 1.04407 0.280811 -0.689027 0
M  V30 9 N 1.84494 -0.756666 -0.113056 0
M  V30 10 N 3.17107 -0.586234 -0.00662719 0
M  V30 11 H 0.544774 2.46405 0.874554 0
M  V30 12 H 0.366348 1.34648 2.24497 0
M  V30 13 H -4.04374 -0.25243 0.727921 0
M  V30 14 H -3.1038 -1.72912 -1.07325 0
M  V30 15 H -0.742724 -1.57049 -1.81635 0
M  V30 16 H 1.18054 0.0797852 -1.84053 0
M  V30 17 H 1.245 1.33355 -0.584809 0
M  V30 18 H 1.43931 -1.34728 0.600857 0
M  V30 19 H 3.54721 0.15271 -0.623076 0
M  V30 20 H 3.56273 -0.475877 0.959383 0
M  V30 END ATOM
M  V30 BEGIN BOND
M  V30 1 1 1 2
M  V30 2 2 2 3
M  V30 3 1 3 4
M  V30 4 2 4 5
M  V30 5 1 5 6
M  V30 6 2 6 7
M  V30 7 1 7 8
M  V30 8 1 8 9
M  V30 9 1 9 10
M  V30 10 1 7 2
M  V30 11 1 1 11
M  V30 12 1 1 12
M  V30 13 1 4 13
M  V30 14 1 5 14
M  V30 15 1 6 15
M  V30 16 1 8 16
M  V30 17 1 8 17
M  V30 18 1 9 18
M  V30 19 1 10 19
M  V30 20 1 10 20
M  V30 END BOND
M  V30 END CTAB
M  END
