
     RDKit          3D

  0  0  0  0  0  0  0  0  0  0999 V3000
M  V30 BEGIN CTAB
M  V30 COUNTS 43 44 0 0 0
M  V30 BEGIN ATOM
M  V30 1 N -5.4063 2.74464 1.45891 0
M  V30 2 C -4.51377 1.79575 0.864281 0
M  V30 3 C -3.95452 0.767888 1.59024 0
M  V30 4 C -3.09843 -0.134015 0.997564 0
M  V30 5 C -2.75941 -0.0577303 -0.33948 0
M  V30 6 C -3.31875 0.970841 -1.06712 0
M  V30 7 C -4.18106 1.87983 -0.470033 0
M  V30 8 N -1.85356 -1.02277 -0.946724 0
M  V30 9 C -0.591072 -0.572273 -1.40889 0
M  V30 10 O -0.311793 0.671517 -1.2576 0
M  V30 11 N 0.413544 -1.33399 -2.026 0
M  V30 12 C 1.64465 -0.703814 -2.43371 0
M  V30 13 C 2.58924 -0.441551 -1.33499 0
M  V30 14 C 2.31589 -0.713345 -0.0172462 0
M  V30 15 C 3.24921 -0.452442 0.983591 0
M  V30 16 C 4.46112 0.0838171 0.652861 0
M  V30 17 C 4.7672 0.369307 -0.667065 0
M  V30 18 C 3.82514 0.102069 -1.64296 0
M  V30 19 S 5.60957 0.399442 1.94367 0
M  V30 20 O 7.01665 0.285792 1.44469 0
M  V30 21 O 5.34553 -0.479227 3.13445 0
M  V30 22 N 5.31798 2.03163 2.4686 0
M  V30 23 C -2.34589 -2.33521 -1.01017 0
M  V30 24 O -1.67387 -3.26115 -1.50026 0
M  V30 25 C -3.69622 -2.7074 -0.498946 0
M  V30 26 H -6.43169 2.70198 1.234 0
M  V30 27 H -5.1113 3.49041 2.11177 0
M  V30 28 H -4.20855 0.691513 2.63712 0
M  V30 29 H -2.63936 -0.962607 1.556 0
M  V30 30 H -3.07748 1.06452 -2.1181 0
M  V30 31 H -4.61909 2.68806 -1.04943 0
M  V30 32 H 0.330033 -2.34856 -2.21363 0
M  V30 33 H 1.34839 0.233431 -2.96233 0
M  V30 34 H 2.15728 -1.34092 -3.16801 0
M  V30 35 H 1.37274 -1.13687 0.285934 0
M  V30 36 H 3.03893 -0.663877 2.02045 0
M  V30 37 H 5.74383 0.795405 -0.880331 0
M  V30 38 H 4.08009 0.333041 -2.68325 0
M  V30 39 H 6.11907 2.39333 3.02467 0
M  V30 40 H 5.15122 2.61836 1.61996 0
M  V30 41 H -3.65132 -2.99191 0.590816 0
M  V30 42 H -4.40997 -1.85795 -0.552087 0
M  V30 43 H -4.04392 -3.59497 -1.03158 0
M  V30 END ATOM
M  V30 BEGIN BOND
M  V30 1 1 1 2
M  V30 2 2 2 3
M  V30 3 1 3 4
M  V30 4 2 4 5
M  V30 5 1 5 6
M  V30 6 2 6 7
M  V30 7 1 5 8
M  V30 8 1 8 9
M  V30 9 2 9 10
M  V30 10 1 9 11
M  V30 11 1 11 12
M  V30 12 1 12 13
M  V30 13 2 13 14
M  V30 14 1 14 15
M  V30 15 2 15 16
M  V30 16 1 16 17
M  V30 17 2 17 18
M  V30 18 1 16 19
M  V30 19 2 19 20
M  V30 20 2 19 21
M  V30 21 1 19 22
M  V30 22 1 8 23
M  V30 23 2 23 24
M  V30 24 1 23 25
M  V30 25 1 7 2
M  V30 26 1 18 13
M  V30 27 1 1 26
M  V30 28 1 1 27
M  V30 29 1 3 28
M  V30 30 1 4 29
M  V30 31 1 6 30
M  V30 32 1 7 31
M  V30 33 1 11 32
M  V30 34 1 12 33
M  V30 35 1 12 34
M  V30 36 1 14 35
M  V30 37 1 15 36
M  V30 38 1 17 37
M  V30 39 1 18 38
M  V30 40 1 22 39
M  V30 41 1 22 40
M  V30 42 1 25 41
M  V30 43 1 25 42
M  V30 44 1 25 43
M  V30 END BOND
M  V30 END CTAB
M  END
