
     RDKit          3D

  0  0  0  0  0  0  0  0  0  0999 V3000
M  V30 BEGIN CTAB
M  V30 COUNTS 56 57 0 0 0
M  V30 BEGIN ATOM
M  V30 1 C 6.91208 1.63562 -1.40852 0
M  V30 2 C 5.94479 1.02314 -0.419341 0
M  V30 3 C 6.81078 0.399807 0.683142 0
M  V30 4 O 5.20255 0.00411019 -0.959701 0
M  V30 5 S 3.55381 0.286358 -0.81232 0
M  V30 6 O 3.01573 0.514955 -2.18323 0
M  V30 7 O 3.3029 1.47501 0.102977 0
M  V30 8 C 2.78679 -1.08774 -0.0216812 0
M  V30 9 C 3.59329 -2.15899 0.371409 0
M  V30 10 C 3.05073 -3.26507 1.00055 0
M  V30 11 N 3.87189 -4.35175 1.39881 0
M  V30 12 C 1.68638 -3.26154 1.22031 0
M  V30 13 C 0.888796 -2.20525 0.832988 0
M  V30 14 C 1.4347 -1.13083 0.218716 0
M  V30 15 C 0.619392 -0.0021881 -0.206306 0
M  V30 16 C -0.685585 0.0971877 -0.0402247 0
M  V30 17 C -1.48572 1.2357 -0.472737 0
M  V30 18 C -2.85514 1.21921 -0.229478 0
M  V30 19 C -3.64122 2.29572 -0.640418 0
M  V30 20 C -3.10056 3.38258 -1.28395 0
M  V30 21 N -3.95043 4.44332 -1.67604 0
M  V30 22 C -1.74402 3.38016 -1.51519 0
M  V30 23 C -0.931802 2.32459 -1.11945 0
M  V30 24 S -3.55186 -0.143597 0.58852 0
M  V30 25 O -3.42847 -1.43033 -0.149138 0
M  V30 26 O -3.0001 -0.333879 1.98402 0
M  V30 27 O -5.23194 0.15084 0.705373 0
M  V30 28 C -5.88778 -1.07016 0.789926 0
M  V30 29 C -6.83541 -1.26602 -0.394181 0
M  V30 30 C -6.72266 -1.18724 2.0384 0
M  V30 31 H 7.67913 2.18671 -0.803272 0
M  V30 32 H 6.41557 2.33646 -2.10089 0
M  V30 33 H 7.45472 0.812075 -1.91571 0
M  V30 34 H 5.29214 1.81302 0.00205461 0
M  V30 35 H 6.19025 -0.176088 1.38644 0
M  V30 36 H 7.53018 -0.257276 0.138501 0
M  V30 37 H 7.40889 1.19957 1.15467 0
M  V30 38 H 4.66186 -2.15045 0.193734 0
M  V30 39 H 4.49603 -4.7746 0.684927 0
M  V30 40 H 3.88657 -4.74753 2.35515 0
M  V30 41 H 1.26852 -4.12491 1.71054 0
M  V30 42 H -0.154785 -2.28272 1.04039 0
M  V30 43 H 1.07675 0.855666 -0.708217 0
M  V30 44 H -1.1901 -0.7217 0.446743 0
M  V30 45 H -4.71346 2.26326 -0.440181 0
M  V30 46 H -3.64669 5.43539 -1.68982 0
M  V30 47 H -4.92182 4.22258 -1.96332 0
M  V30 48 H -1.27754 4.19976 -2.01048 0
M  V30 49 H 0.124178 2.37756 -1.3276 0
M  V30 50 H -5.18111 -1.91961 0.761629 0
M  V30 51 H -7.62455 -2.00306 -0.145984 0
M  V30 52 H -6.2942 -1.64485 -1.27955 0
M  V30 53 H -7.28128 -0.287438 -0.689985 0
M  V30 54 H -6.33594 -1.97278 2.70501 0
M  V30 55 H -6.69215 -0.225066 2.59829 0
M  V30 56 H -7.79307 -1.3877 1.82565 0
M  V30 END ATOM
M  V30 BEGIN BOND
M  V30 1 1 1 2
M  V30 2 1 2 3
M  V30 3 1 2 4
M  V30 4 1 4 5
M  V30 5 2 5 6
M  V30 6 2 5 7
M  V30 7 1 5 8
M  V30 8 2 8 9
M  V30 9 1 9 10
M  V30 10 1 10 11
M  V30 11 2 10 12
M  V30 12 1 12 13
M  V30 13 2 13 14
M  V30 14 1 14 15
M  V30 15 2 15 16
M  V30 16 1 16 17
M  V30 17 2 17 18
M  V30 18 1 18 19
M  V30 19 2 19 20
M  V30 20 1 20 21
M  V30 21 1 20 22
M  V30 22 2 22 23
M  V30 23 1 18 24
M  V30 24 2 24 25
M  V30 25 2 24 26
M  V30 26 1 24 27
M  V30 27 1 27 28
M  V30 28 1 28 29
M  V30 29 1 28 30
M  V30 30 1 14 8
M  V30 31 1 23 17
M  V30 32 1 1 31
M  V30 33 1 1 32
M  V30 34 1 1 33
M  V30 35 1 2 34
M  V30 36 1 3 35
M  V30 37 1 3 36
M  V30 38 1 3 37
M  V30 39 1 9 38
M  V30 40 1 11 39
M  V30 41 1 11 40
M  V30 42 1 12 41
M  V30 43 1 13 42
M  V30 44 1 15 43
M  V30 45 1 16 44
M  V30 46 1 19 45
M  V30 47 1 21 46
M  V30 48 1 21 47
M  V30 49 1 22 48
M  V30 50 1 23 49
M  V30 51 1 28 50
M  V30 52 1 29 51
M  V30 53 1 29 52
M  V30 54 1 29 53
M  V30 55 1 30 54
M  V30 56 1 30 55
M  V30 57 1 30 56
M  V30 END BOND
M  V30 END CTAB
M  END
