
     RDKit          3D

  0  0  0  0  0  0  0  0  0  0999 V3000
M  V30 BEGIN CTAB
M  V30 COUNTS 60 63 0 0 0
M  V30 BEGIN ATOM
M  V30 1 C 4.6362 3.9205 -1.00342 0
M  V30 2 O 3.33757 3.64336 -0.62734 0
M  V30 3 C 2.69463 2.42711 -0.768213 0
M  V30 4 C 1.37188 2.331 -0.326562 0
M  V30 5 O 0.793813 3.50144 0.221007 0
M  V30 6 C 0.164104 4.43124 -0.670911 0
M  V30 7 C 0.621313 1.20756 -0.396631 0
M  V30 8 C -0.72567 0.975966 0.140454 0
M  V30 9 C -1.40658 1.65766 0.998756 0
M  V30 10 C -2.69278 1.54311 1.58222 0
M  V30 11 O -2.92283 2.54752 2.43864 0
M  V30 12 N -3.77297 0.635804 1.47644 0
M  V30 13 N -4.93957 0.908047 2.25816 0
M  V30 14 C -6.05976 0.346504 2.15313 0
M  V30 15 C -6.21842 -0.697391 1.14834 0
M  V30 16 C -5.15041 -1.02526 0.38401 0
M  V30 17 C -5.31832 -1.95864 -0.655237 0
M  V30 18 C -6.55684 -2.51233 -0.862669 0
M  V30 19 C -7.64485 -2.18885 -0.0903875 0
M  V30 20 C -7.48176 -1.27439 0.92555 0
M  V30 21 C -3.76745 -0.510076 0.65867 0
M  V30 22 C -2.99457 -1.67288 1.35063 0
M  V30 23 C 1.26901 0.0815414 -0.971352 0
M  V30 24 C 2.55261 0.129673 -1.41485 0
M  V30 25 C 3.28801 -1.02476 -2.00597 0
M  V30 26 C 4.22806 -1.59532 -1.01847 0
M  V30 27 C 3.90542 -2.41998 0.0264711 0
M  V30 28 N 2.56298 -2.81741 0.205424 0
M  V30 29 N 4.88863 -2.84752 0.86429 0
M  V30 30 C 6.17084 -2.49598 0.712526 0
M  V30 31 N 7.11863 -2.99597 1.64471 0
M  V30 32 N 6.49371 -1.69201 -0.305392 0
M  V30 33 C 5.5707 -1.22541 -1.18049 0
M  V30 34 C 3.2723 1.31678 -1.31094 0
M  V30 35 H 5.17836 4.5849 -0.268765 0
M  V30 36 H 4.65903 4.51474 -1.95897 0
M  V30 37 H 5.30155 3.06256 -1.15194 0
M  V30 38 H 0.913675 5.01306 -1.22291 0
M  V30 39 H -0.511517 3.93313 -1.3762 0
M  V30 40 H -0.437664 5.10555 -0.0306445 0
M  V30 41 H -1.25183 0.0896288 -0.257112 0
M  V30 42 H -0.805372 2.52735 1.41711 0
M  V30 43 H -6.90982 0.608294 2.77955 0
M  V30 44 H -4.44356 -2.21541 -1.27249 0
M  V30 45 H -6.67639 -3.24132 -1.67845 0
M  V30 46 H -8.58555 -2.6539 -0.298484 0
M  V30 47 H -8.29343 -0.976488 1.56897 0
M  V30 48 H -3.29976 -0.393906 -0.354739 0
M  V30 49 H -3.73553 -2.24412 1.92768 0
M  V30 50 H -2.23523 -1.21956 2.0218 0
M  V30 51 H -2.44788 -2.26119 0.592299 0
M  V30 52 H 0.707089 -0.837945 -1.06011 0
M  V30 53 H 2.51178 -1.73961 -2.35017 0
M  V30 54 H 3.81424 -0.691083 -2.92212 0
M  V30 55 H 1.87717 -2.40395 0.8575 0
M  V30 56 H 2.18781 -3.6247 -0.377722 0
M  V30 57 H 7.86247 -2.37799 2.07361 0
M  V30 58 H 7.13463 -3.99334 1.95763 0
M  V30 59 H 5.90533 -0.584148 -1.97336 0
M  V30 60 H 4.29278 1.36881 -1.65881 0
M  V30 END ATOM
M  V30 BEGIN BOND
M  V30 1 1 1 2
M  V30 2 1 2 3
M  V30 3 2 3 4
M  V30 4 1 4 5
M  V30 5 1 5 6
M  V30 6 1 4 7
M  V30 7 1 7 8
M  V30 8 2 8 9
M  V30 9 1 9 10
M  V30 10 2 10 11
M  V30 11 1 10 12
M  V30 12 1 12 13
M  V30 13 2 13 14
M  V30 14 1 14 15
M  V30 15 2 15 16
M  V30 16 1 16 17
M  V30 17 2 17 18
M  V30 18 1 18 19
M  V30 19 2 19 20
M  V30 20 1 16 21
M  V30 21 1 21 22
M  V30 22 2 7 23
M  V30 23 1 23 24
M  V30 24 1 24 25
M  V30 25 1 25 26
M  V30 26 2 26 27
M  V30 27 1 27 28
M  V30 28 1 27 29
M  V30 29 2 29 30
M  V30 30 1 30 31
M  V30 31 1 30 32
M  V30 32 2 32 33
M  V30 33 2 24 34
M  V30 34 1 34 3
M  V30 35 1 21 12
M  V30 36 1 33 26
M  V30 37 1 20 15
M  V30 38 1 1 35
M  V30 39 1 1 36
M  V30 40 1 1 37
M  V30 41 1 6 38
M  V30 42 1 6 39
M  V30 43 1 6 40
M  V30 44 1 8 41
M  V30 45 1 9 42
M  V30 46 1 14 43
M  V30 47 1 17 44
M  V30 48 1 18 45
M  V30 49 1 19 46
M  V30 50 1 20 47
M  V30 51 1 21 48
M  V30 52 1 22 49
M  V30 53 1 22 50
M  V30 54 1 22 51
M  V30 55 1 23 52
M  V30 56 1 25 53
M  V30 57 1 25 54
M  V30 58 1 28 55
M  V30 59 1 28 56
M  V30 60 1 31 57
M  V30 61 1 31 58
M  V30 62 1 33 59
M  V30 63 1 34 60
M  V30 END BOND
M  V30 END CTAB
M  END
