
     RDKit          3D

  0  0  0  0  0  0  0  0  0  0999 V3000
M  V30 BEGIN CTAB
M  V30 COUNTS 18 17 0 0 0
M  V30 BEGIN ATOM
M  V30 1 C -0.688798 0.175311 0.216869 0 CFG=2
M  V30 2 C -1.29883 -0.78888 1.1376 0
M  V30 3 N -1.63626 0.408843 -0.873801 0
M  V30 4 C 0.621537 -0.138196 -0.383877 0 CFG=2
M  V30 5 C 1.769 -0.352147 0.513669 0
M  V30 6 N 0.992166 0.951955 -1.27708 0
M  V30 7 H -0.608948 1.16901 0.733578 0
M  V30 8 H -1.89856 -0.278344 1.95139 0
M  V30 9 H -2.04477 -1.46196 0.642529 0
M  V30 10 H -0.60282 -1.45407 1.67774 0
M  V30 11 H -1.46667 -0.329684 -1.58706 0
M  V30 12 H -1.61665 1.36991 -1.22642 0
M  V30 13 H 0.510415 -1.03715 -1.05386 0
M  V30 14 H 1.59132 -0.963204 1.408 0
M  V30 15 H 2.58366 -0.851754 -0.0552863 0
M  V30 16 H 2.20412 0.61568 0.866756 0
M  V30 17 H 1.31583 1.78458 -0.721492 0
M  V30 18 H 0.274235 1.18009 -1.96925 0
M  V30 END ATOM
M  V30 BEGIN BOND
M  V30 1 1 1 2
M  V30 2 1 1 3
M  V30 3 1 1 4
M  V30 4 1 4 5
M  V30 5 1 4 6
M  V30 6 1 1 7 CFG=1
M  V30 7 1 2 8
M  V30 8 1 2 9
M  V30 9 1 2 10
M  V30 10 1 3 11
M  V30 11 1 3 12
M  V30 12 1 4 13 CFG=3
M  V30 13 1 5 14
M  V30 14 1 5 15
M  V30 15 1 5 16
M  V30 16 1 6 17
M  V30 17 1 6 18
M  V30 END BOND
M  V30 END CTAB
M  END
