
     RDKit          3D

  0  0  0  0  0  0  0  0  0  0999 V3000
M  V30 BEGIN CTAB
M  V30 COUNTS 46 49 0 0 0
M  V30 BEGIN ATOM
M  V30 1 C 5.09156 0.657269 -2.03634 0
M  V30 2 O 5.14951 -0.501118 -1.23942 0
M  V30 3 C 4.02811 -0.865972 -0.511439 0
M  V30 4 C 4.06454 -1.99693 0.275049 0
M  V30 5 N 5.24538 -2.77017 0.329009 0
M  V30 6 C 2.97577 -2.4051 1.02005 0
M  V30 7 C 1.83717 -1.64174 0.956038 0
M  V30 8 C 1.72886 -0.481017 0.179165 0
M  V30 9 C 2.85344 -0.142866 -0.532419 0
M  V30 10 C 0.455721 0.189895 0.160782 0
M  V30 11 N -0.740807 -0.378174 -0.193138 0
M  V30 12 N -1.70327 0.503815 -0.072728 0
M  V30 13 C -3.13038 0.312286 -0.348899 0
M  V30 14 C -3.28884 -0.933746 -1.20765 0
M  V30 15 C -4.75265 -1.04702 -1.59462 0
M  V30 16 C -5.50277 -1.24124 -0.300159 0
M  V30 17 O -6.69212 -1.50084 -0.274665 0
M  V30 18 C -4.719 -1.10054 0.957189 0
M  V30 19 C -3.91505 0.186055 0.935273 0
M  V30 20 C -1.21573 1.68018 0.358552 0
M  V30 21 N -1.77319 2.8689 0.645279 0
M  V30 22 C -1.0088 3.87541 1.08136 0
M  V30 23 N 0.313821 3.72549 1.24163 0
M  V30 24 C 0.930973 2.53885 0.964545 0
M  V30 25 N 2.31976 2.41219 1.17893 0
M  V30 26 C 0.162083 1.48062 0.509046 0
M  V30 27 H 5.00627 1.53034 -1.34209 0
M  V30 28 H 5.95666 0.762156 -2.70976 0
M  V30 29 H 4.18818 0.645118 -2.70109 0
M  V30 30 H 6.12623 -2.32955 0.640135 0
M  V30 31 H 5.22937 -3.7593 0.0621352 0
M  V30 32 H 3.03376 -3.31208 1.63826 0
M  V30 33 H 0.984151 -1.97522 1.54943 0
M  V30 34 H 2.83719 0.733016 -1.17509 0
M  V30 35 H -3.44813 1.18762 -0.9559 0
M  V30 36 H -2.63548 -0.798412 -2.09467 0
M  V30 37 H -2.9535 -1.83514 -0.685086 0
M  V30 38 H -5.08749 -0.116388 -2.08069 0
M  V30 39 H -4.87663 -1.93868 -2.24374 0
M  V30 40 H -5.39484 -1.05672 1.83636 0
M  V30 41 H -4.00544 -1.95607 1.08504 0
M  V30 42 H -4.57041 1.0661 1.03788 0
M  V30 43 H -3.24867 0.17644 1.83768 0
M  V30 44 H -1.50918 4.82766 1.30207 0
M  V30 45 H 2.99346 2.89803 0.56463 0
M  V30 46 H 2.66042 1.82662 1.95928 0
M  V30 END ATOM
M  V30 BEGIN BOND
M  V30 1 1 1 2
M  V30 2 1 2 3
M  V30 3 2 3 4
M  V30 4 1 4 5
M  V30 5 1 4 6
M  V30 6 2 6 7
M  V30 7 1 7 8
M  V30 8 2 8 9
M  V30 9 1 8 10
M  V30 10 2 10 11
M  V30 11 1 11 12
M  V30 12 1 12 13
M  V30 13 1 13 14
M  V30 14 1 14 15
M  V30 15 1 15 16
M  V30 16 2 16 17
M  V30 17 1 16 18
M  V30 18 1 18 19
M  V30 19 1 12 20
M  V30 20 2 20 21
M  V30 21 1 21 22
M  V30 22 2 22 23
M  V30 23 1 23 24
M  V30 24 1 24 25
M  V30 25 2 24 26
M  V30 26 1 9 3
M  V30 27 1 26 10
M  V30 28 1 19 13
M  V30 29 1 26 20
M  V30 30 1 1 27
M  V30 31 1 1 28
M  V30 32 1 1 29
M  V30 33 1 5 30
M  V30 34 1 5 31
M  V30 35 1 6 32
M  V30 36 1 7 33
M  V30 37 1 9 34
M  V30 38 1 13 35
M  V30 39 1 14 36
M  V30 40 1 14 37
M  V30 41 1 15 38
M  V30 42 1 15 39
M  V30 43 1 18 40
M  V30 44 1 18 41
M  V30 45 1 19 42
M  V30 46 1 19 43
M  V30 47 1 22 44
M  V30 48 1 25 45
M  V30 49 1 25 46
M  V30 END BOND
M  V30 END CTAB
M  END
