
     RDKit          3D

  0  0  0  0  0  0  0  0  0  0999 V3000
M  V30 BEGIN CTAB
M  V30 COUNTS 44 44 0 0 0
M  V30 BEGIN ATOM
M  V30 1 N 3.14397 1.53077 -1.21972 0
M  V30 2 C 2.81204 0.186115 -1.56154 0
M  V30 3 C 2.69296 -0.748795 -0.399569 0
M  V30 4 C 3.99586 -0.822318 0.363805 0
M  V30 5 C 3.87505 0.221407 1.42518 0
M  V30 6 C 2.45401 0.66622 1.47449 0
M  V30 7 C 1.71675 -0.333255 0.654653 0
M  V30 8 N 0.460481 0.0994919 0.164015 0
M  V30 9 C -0.732556 -0.577506 0.512208 0
M  V30 10 O -0.632332 -1.577 1.27346 0
M  V30 11 C -2.06661 -0.151925 0.0166011 0
M  V30 12 C -3.10292 -1.08343 0.575865 0
M  V30 13 N -2.88587 -2.45725 0.179869 0
M  V30 14 C -2.40758 1.25095 0.524516 0
M  V30 15 C -2.42766 1.26341 2.01631 0
M  V30 16 C -2.05149 -0.172165 -1.49417 0
M  V30 17 C -3.34916 0.241257 -2.10283 0
M  V30 18 H 4.15795 1.75484 -1.29777 0
M  V30 19 H 2.58926 2.22404 -1.75578 0
M  V30 20 H 1.94153 0.191634 -2.21835 0
M  V30 21 H 3.66413 -0.209502 -2.18817 0
M  V30 22 H 2.37617 -1.75935 -0.758244 0
M  V30 23 H 4.87741 -0.698201 -0.289695 0
M  V30 24 H 4.07827 -1.84788 0.797867 0
M  V30 25 H 4.60011 1.03189 1.20871 0
M  V30 26 H 4.16153 -0.249433 2.40075 0
M  V30 27 H 2.06659 0.580691 2.53434 0
M  V30 28 H 2.28149 1.72469 1.20134 0
M  V30 29 H 1.56348 -1.23064 1.30634 0
M  V30 30 H 0.397825 0.926224 -0.462948 0
M  V30 31 H -4.14082 -0.791872 0.341249 0
M  V30 32 H -3.01976 -1.02575 1.69106 0
M  V30 33 H -3.58342 -2.707 -0.573372 0
M  V30 34 H -3.08096 -3.13361 0.958698 0
M  V30 35 H -3.38614 1.57977 0.146693 0
M  V30 36 H -1.65095 1.94002 0.111629 0
M  V30 37 H -2.3666 2.31861 2.37184 0
M  V30 38 H -3.3873 0.852425 2.40528 0
M  V30 39 H -1.55934 0.725576 2.46517 0
M  V30 40 H -1.25823 0.521155 -1.83809 0
M  V30 41 H -1.78414 -1.22744 -1.77686 0
M  V30 42 H -4.18809 0.317946 -1.36651 0
M  V30 43 H -3.61528 -0.529353 -2.88481 0
M  V30 44 H -3.22966 1.18454 -2.66769 0
M  V30 END ATOM
M  V30 BEGIN BOND
M  V30 1 1 1 2
M  V30 2 1 2 3
M  V30 3 1 3 4
M  V30 4 1 4 5
M  V30 5 1 5 6
M  V30 6 1 6 7
M  V30 7 1 7 8
M  V30 8 1 8 9
M  V30 9 2 9 10
M  V30 10 1 9 11
M  V30 11 1 11 12
M  V30 12 1 12 13
M  V30 13 1 11 14
M  V30 14 1 14 15
M  V30 15 1 11 16
M  V30 16 1 16 17
M  V30 17 1 7 3
M  V30 18 1 1 18
M  V30 19 1 1 19
M  V30 20 1 2 20
M  V30 21 1 2 21
M  V30 22 1 3 22
M  V30 23 1 4 23
M  V30 24 1 4 24
M  V30 25 1 5 25
M  V30 26 1 5 26
M  V30 27 1 6 27
M  V30 28 1 6 28
M  V30 29 1 7 29
M  V30 30 1 8 30
M  V30 31 1 12 31
M  V30 32 1 12 32
M  V30 33 1 13 33
M  V30 34 1 13 34
M  V30 35 1 14 35
M  V30 36 1 14 36
M  V30 37 1 15 37
M  V30 38 1 15 38
M  V30 39 1 15 39
M  V30 40 1 16 40
M  V30 41 1 16 41
M  V30 42 1 17 42
M  V30 43 1 17 43
M  V30 44 1 17 44
M  V30 END BOND
M  V30 END CTAB
M  END
