
     RDKit          3D

  0  0  0  0  0  0  0  0  0  0999 V3000
M  V30 BEGIN CTAB
M  V30 COUNTS 58 61 0 0 0
M  V30 BEGIN ATOM
M  V30 1 C -1.95323 -0.972219 0.605462 0 CFG=2
M  V30 2 C -2.90174 -2.06307 0.788591 0
M  V30 3 C -4.2486 -1.37666 0.775165 0
M  V30 4 C -3.97532 0.0837212 0.386905 0 CFG=2
M  V30 5 O -5.02049 0.47907 -0.442414 0
M  V30 6 S -5.82477 1.75492 0.260158 0
M  V30 7 N -4.76271 2.6638 1.26053 0
M  V30 8 O -6.9707 1.27883 1.12912 0
M  V30 9 O -6.44108 2.63632 -0.802347 0
M  V30 10 C -2.67592 -0.0390058 -0.335065 0 CFG=2
M  V30 11 C -2.91226 -0.622006 -1.68424 0
M  V30 12 C -1.88251 1.23697 -0.397898 0
M  V30 13 C -0.442813 1.00225 -0.772908 0
M  V30 14 C 0.175809 -0.0206629 0.130139 0 CFG=2
M  V30 15 C 1.59756 -0.230653 -0.0527248 0
M  V30 16 C 2.38036 0.65408 -0.739754 0
M  V30 17 C 3.75559 0.438714 -0.909816 0
M  V30 18 O 4.53175 1.35049 -1.61126 0
M  V30 19 C 3.93521 2.51159 -2.16308 0
M  V30 20 C 4.34249 -0.680764 -0.380306 0
M  V30 21 O 5.72106 -0.916684 -0.539059 0
M  V30 22 S 6.72832 -0.279749 0.676644 0
M  V30 23 N 7.34186 1.2826 0.222407 0
M  V30 24 O 5.96951 -0.0909936 1.95979 0
M  V30 25 O 7.87385 -1.21912 0.920823 0
M  V30 26 C 3.54105 -1.56491 0.310399 0
M  V30 27 C 2.18817 -1.35686 0.479938 0
M  V30 28 C 1.32644 -2.30998 1.22442 0
M  V30 29 C 0.0259555 -2.51106 0.528698 0
M  V30 30 C -0.636753 -1.30351 -0.00939003 0 CFG=1
M  V30 31 H -1.7818 -0.435318 1.53837 0
M  V30 32 H -2.77118 -2.49706 1.82193 0
M  V30 33 H -2.84104 -2.87749 0.0425311 0
M  V30 34 H -4.71742 -1.34805 1.76569 0
M  V30 35 H -4.88485 -1.84022 0.000509995 0
M  V30 36 H -3.91397 0.707238 1.30215 0
M  V30 37 H -5.13149 3.64663 1.3035 0
M  V30 38 H -4.76984 2.29621 2.25477 0
M  V30 39 H -2.7286 -1.71377 -1.74341 0
M  V30 40 H -3.98756 -0.483967 -1.98572 0
M  V30 41 H -2.28504 -0.135976 -2.46631 0
M  V30 42 H -2.33163 1.87647 -1.18575 0
M  V30 43 H -1.92861 1.80395 0.547354 0
M  V30 44 H 0.0713651 1.98541 -0.64989 0
M  V30 45 H -0.313474 0.712752 -1.82935 0
M  V30 46 H -0.000470986 0.340544 1.1859 0
M  V30 47 H 1.99883 1.55468 -1.18526 0
M  V30 48 H 3.52283 3.17725 -1.39356 0
M  V30 49 H 4.63055 3.05528 -2.80863 0
M  V30 50 H 3.06566 2.19121 -2.80341 0
M  V30 51 H 6.59136 2.01274 0.366467 0
M  V30 52 H 8.07118 1.51895 0.950392 0
M  V30 53 H 3.97319 -2.45516 0.738952 0
M  V30 54 H 1.81626 -3.30303 1.32929 0
M  V30 55 H 1.12238 -1.84929 2.22578 0
M  V30 56 H -0.667148 -3.03949 1.24247 0
M  V30 57 H 0.203 -3.27973 -0.280492 0
M  V30 58 H -0.798562 -1.43621 -1.10322 0
M  V30 END ATOM
M  V30 BEGIN BOND
M  V30 1 1 1 2
M  V30 2 1 2 3
M  V30 3 1 3 4
M  V30 4 1 4 5
M  V30 5 1 5 6
M  V30 6 1 6 7
M  V30 7 2 6 8
M  V30 8 2 6 9
M  V30 9 1 4 10
M  V30 10 1 10 11 CFG=3
M  V30 11 1 10 12
M  V30 12 1 12 13
M  V30 13 1 13 14
M  V30 14 1 14 15
M  V30 15 2 15 16
M  V30 16 1 16 17
M  V30 17 1 17 18
M  V30 18 1 18 19
M  V30 19 2 17 20
M  V30 20 1 20 21
M  V30 21 1 21 22
M  V30 22 1 22 23
M  V30 23 2 22 24
M  V30 24 2 22 25
M  V30 25 1 20 26
M  V30 26 2 26 27
M  V30 27 1 27 28
M  V30 28 1 28 29
M  V30 29 1 29 30
M  V30 30 1 10 1
M  V30 31 1 30 14
M  V30 32 1 30 1
M  V30 33 1 27 15
M  V30 34 1 1 31 CFG=1
M  V30 35 1 2 32
M  V30 36 1 2 33
M  V30 37 1 3 34
M  V30 38 1 3 35
M  V30 39 1 4 36 CFG=1
M  V30 40 1 7 37
M  V30 41 1 7 38
M  V30 42 1 11 39
M  V30 43 1 11 40
M  V30 44 1 11 41
M  V30 45 1 12 42
M  V30 46 1 12 43
M  V30 47 1 13 44
M  V30 48 1 13 45
M  V30 49 1 14 46 CFG=1
M  V30 50 1 16 47
M  V30 51 1 19 48
M  V30 52 1 19 49
M  V30 53 1 19 50
M  V30 54 1 23 51
M  V30 55 1 23 52
M  V30 56 1 26 53
M  V30 57 1 28 54
M  V30 58 1 28 55
M  V30 59 1 29 56
M  V30 60 1 29 57
M  V30 61 1 30 58 CFG=3
M  V30 END BOND
M  V30 END CTAB
M  END
