
     RDKit          3D

  0  0  0  0  0  0  0  0  0  0999 V3000
M  V30 BEGIN CTAB
M  V30 COUNTS 26 26 0 0 0
M  V30 BEGIN ATOM
M  V30 1 C 4.28489 -0.688476 0.234934 0
M  V30 2 C 3.3807 -1.42006 -0.722103 0
M  V30 3 O 2.0068 -1.2368 -0.419476 0
M  V30 4 C 1.41125 0.016646 -0.408766 0
M  V30 5 O 2.1283 1.01279 -0.678736 0
M  V30 6 C -0.00743603 0.146144 -0.0901506 0
M  V30 7 C -0.560634 1.40618 -0.0900485 0
M  V30 8 C -1.89869 1.60153 0.202958 0
M  V30 9 N -2.43024 2.91422 0.192584 0
M  V30 10 C -2.65491 0.490968 0.49387 0
M  V30 11 C -2.13829 -0.804019 0.505914 0
M  V30 12 C -0.800123 -0.939871 0.206774 0
M  V30 13 N -2.97588 -1.91051 0.815451 0
M  V30 14 O -3.98809 0.647245 0.789744 0
M  V30 15 H 5.28444 -1.19477 0.172725 0
M  V30 16 H 4.41056 0.376012 0.0022923 0
M  V30 17 H 3.93689 -0.861107 1.29431 0
M  V30 18 H 3.63274 -2.49908 -0.68206 0
M  V30 19 H 3.61343 -1.08178 -1.75453 0
M  V30 20 H 0.0291146 2.29732 -0.319494 0
M  V30 21 H -2.16578 3.60242 -0.518404 0
M  V30 22 H -3.10604 3.16992 0.93395 0
M  V30 23 H -0.372087 -1.93061 0.208319 0
M  V30 24 H -3.34522 -2.07329 1.791 0
M  V30 25 H -3.26061 -2.60208 0.106698 0
M  V30 26 H -4.41508 1.56105 0.795856 0
M  V30 END ATOM
M  V30 BEGIN BOND
M  V30 1 1 1 2
M  V30 2 1 2 3
M  V30 3 1 3 4
M  V30 4 2 4 5
M  V30 5 1 4 6
M  V30 6 2 6 7
M  V30 7 1 7 8
M  V30 8 1 8 9
M  V30 9 2 8 10
M  V30 10 1 10 11
M  V30 11 2 11 12
M  V30 12 1 11 13
M  V30 13 1 10 14
M  V30 14 1 12 6
M  V30 15 1 1 15
M  V30 16 1 1 16
M  V30 17 1 1 17
M  V30 18 1 2 18
M  V30 19 1 2 19
M  V30 20 1 7 20
M  V30 21 1 9 21
M  V30 22 1 9 22
M  V30 23 1 12 23
M  V30 24 1 13 24
M  V30 25 1 13 25
M  V30 26 1 14 26
M  V30 END BOND
M  V30 END CTAB
M  END
