
     RDKit          3D

  0  0  0  0  0  0  0  0  0  0999 V3000
M  V30 BEGIN CTAB
M  V30 COUNTS 60 63 0 0 0
M  V30 BEGIN ATOM
M  V30 1 N -6.30569 1.56591 2.30557 0
M  V30 2 C -6.97341 1.58741 1.0236 0 CFG=1
M  V30 3 C -6.59297 0.302987 0.294812 0
M  V30 4 C -5.13869 0.209814 0.0485009 0
M  V30 5 C -4.28152 -0.288902 0.989641 0
M  V30 6 C -2.90489 -0.434152 0.745914 0
M  V30 7 C -2.41021 -0.0628592 -0.480683 0
M  V30 8 C -3.25655 0.448091 -1.45082 0
M  V30 9 C -4.61145 0.583512 -1.18302 0
M  V30 10 C -1.0008 -0.27819 -0.789642 0
M  V30 11 N -0.597808 0.107015 -2.02294 0
M  V30 12 C 0.638872 -0.0927041 -2.46196 0
M  V30 13 N 0.95986 0.341973 -3.77832 0
M  V30 14 N 1.51349 -0.699844 -1.6462 0
M  V30 15 C 1.18066 -1.10638 -0.407884 0
M  V30 16 O 2.10223 -1.7513 0.425824 0
M  V30 17 C 3.38075 -2.11101 -0.0854632 0
M  V30 18 C 4.54115 -1.89582 0.752807 0
M  V30 19 C 5.21086 -2.99181 1.31228 0
M  V30 20 C 6.3702 -2.84372 2.06011 0
M  V30 21 C 6.89435 -1.57836 2.27577 0
M  V30 22 C 6.23595 -0.512085 1.73327 0
M  V30 23 C 5.05435 -0.639112 0.968943 0
M  V30 24 N 4.44749 0.550367 0.494149 0
M  V30 25 C 3.59372 1.27588 1.25223 0
M  V30 26 C 3.22645 2.38415 0.56803 0
M  V30 27 C 3.89503 2.31707 -0.663586 0
M  V30 28 N 4.60759 1.17953 -0.626015 0
M  V30 29 C 3.79403 3.35002 -1.71609 0
M  V30 30 F 3.72521 4.62793 -1.13104 0
M  V30 31 F 2.66096 3.22143 -2.47175 0
M  V30 32 F 4.9456 3.40055 -2.49638 0
M  V30 33 C 3.1837 -3.57555 -0.526504 0
M  V30 34 F 4.30957 -4.12749 -1.06533 0
M  V30 35 F 2.25287 -3.55966 -1.58377 0
M  V30 36 F 2.56363 -4.30837 0.455301 0
M  V30 37 C -0.0973688 -0.891721 0.029384 0
M  V30 38 C -8.42032 1.52743 1.24828 0
M  V30 39 O -9.28932 1.77344 0.190257 0
M  V30 40 O -8.87389 1.26072 2.37769 0
M  V30 41 H -6.3499 2.44441 2.79816 0
M  V30 42 H -6.46399 0.736649 2.83269 0
M  V30 43 H -6.66417 2.48991 0.515685 0
M  V30 44 H -7.16967 0.24513 -0.6753 0
M  V30 45 H -6.91731 -0.534214 0.915316 0
M  V30 46 H -4.62463 -0.598929 1.97838 0
M  V30 47 H -2.27304 -0.818372 1.49998 0
M  V30 48 H -2.83517 0.735417 -2.4046 0
M  V30 49 H -5.2976 0.973702 -1.90653 0
M  V30 50 H 0.746525 -0.335219 -4.56124 0
M  V30 51 H 1.3777 1.24478 -3.9953 0
M  V30 52 H 3.48049 -1.56153 -1.07061 0
M  V30 53 H 4.79899 -3.97822 1.16823 0
M  V30 54 H 6.86173 -3.70177 2.47729 0
M  V30 55 H 7.81076 -1.51823 2.85358 0
M  V30 56 H 6.6314 0.498085 1.87429 0
M  V30 57 H 3.25781 1.02277 2.24995 0
M  V30 58 H 2.5761 3.1927 0.837313 0
M  V30 59 H -0.424912 -1.19757 1.01404 0
M  V30 60 H -9.05476 2.39428 -0.58328 0
M  V30 END ATOM
M  V30 BEGIN BOND
M  V30 1 1 1 2
M  V30 2 1 2 3
M  V30 3 1 3 4
M  V30 4 2 4 5
M  V30 5 1 5 6
M  V30 6 2 6 7
M  V30 7 1 7 8
M  V30 8 2 8 9
M  V30 9 1 7 10
M  V30 10 2 10 11
M  V30 11 1 11 12
M  V30 12 1 12 13
M  V30 13 2 12 14
M  V30 14 1 14 15
M  V30 15 1 15 16
M  V30 16 1 16 17
M  V30 17 1 17 18
M  V30 18 2 18 19
M  V30 19 1 19 20
M  V30 20 2 20 21
M  V30 21 1 21 22
M  V30 22 2 22 23
M  V30 23 1 23 24
M  V30 24 1 24 25
M  V30 25 2 25 26
M  V30 26 1 26 27
M  V30 27 2 27 28
M  V30 28 1 27 29
M  V30 29 1 29 30
M  V30 30 1 29 31
M  V30 31 1 29 32
M  V30 32 1 17 33
M  V30 33 1 33 34
M  V30 34 1 33 35
M  V30 35 1 33 36
M  V30 36 2 15 37
M  V30 37 1 2 38
M  V30 38 1 38 39
M  V30 39 2 38 40
M  V30 40 1 9 4
M  V30 41 1 37 10
M  V30 42 1 23 18
M  V30 43 1 28 24
M  V30 44 1 1 41
M  V30 45 1 1 42
M  V30 46 1 2 43 CFG=3
M  V30 47 1 3 44
M  V30 48 1 3 45
M  V30 49 1 5 46
M  V30 50 1 6 47
M  V30 51 1 8 48
M  V30 52 1 9 49
M  V30 53 1 13 50
M  V30 54 1 13 51
M  V30 55 1 17 52
M  V30 56 1 19 53
M  V30 57 1 20 54
M  V30 58 1 21 55
M  V30 59 1 22 56
M  V30 60 1 25 57
M  V30 61 1 26 58
M  V30 62 1 37 59
M  V30 63 1 39 60
M  V30 END BOND
M  V30 END CTAB
M  END
