
     RDKit          3D

  0  0  0  0  0  0  0  0  0  0999 V3000
M  V30 BEGIN CTAB
M  V30 COUNTS 30 31 0 0 0
M  V30 BEGIN ATOM
M  V30 1 O 3.13426 2.07119 0.496614 0
M  V30 2 C 3.84923 0.876503 0.387701 0
M  V30 3 C 3.06037 -0.232806 1.0764 0
M  V30 4 N 1.76653 -0.414515 0.479452 0
M  V30 5 N 0.663608 0.199327 0.83481 0
M  V30 6 C -0.382128 -0.183687 0.0868888 0
M  V30 7 C 0.0837511 -1.09998 -0.801809 0
M  V30 8 C 1.44409 -1.22981 -0.534927 0
M  V30 9 N 2.27976 -2.10567 -1.26593 0
M  V30 10 N -0.698223 -1.76225 -1.78364 0
M  V30 11 C -1.73778 0.344386 0.269194 0
M  V30 12 C -1.92971 1.70079 0.436618 0
M  V30 13 C -3.2098 2.21267 0.610218 0
M  V30 14 C -4.32586 1.40414 0.622927 0
M  V30 15 C -4.13752 0.0458693 0.455625 0
M  V30 16 C -2.86038 -0.457201 0.283267 0
M  V30 17 Br -5.66704 -1.11155 0.467551 0
M  V30 18 H 2.4122 2.08313 -0.153715 0
M  V30 19 H 3.98494 0.67873 -0.690885 0
M  V30 20 H 4.84581 0.925802 0.858427 0
M  V30 21 H 3.01915 0.0466587 2.15108 0
M  V30 22 H 3.67107 -1.16883 1.02757 0
M  V30 23 H 2.27954 -3.11287 -1.08684 0
M  V30 24 H 2.90277 -1.70729 -1.99761 0
M  V30 25 H -1.06631 -2.73343 -1.66507 0
M  V30 26 H -0.908769 -1.25191 -2.65443 0
M  V30 27 H -1.08238 2.39136 0.435439 0
M  V30 28 H -3.36865 3.28141 0.742835 0
M  V30 29 H -5.3194 1.83 0.760815 0
M  V30 30 H -2.70312 -1.52016 0.151422 0
M  V30 END ATOM
M  V30 BEGIN BOND
M  V30 1 1 1 2
M  V30 2 1 2 3
M  V30 3 1 3 4
M  V30 4 1 4 5
M  V30 5 2 5 6
M  V30 6 1 6 7
M  V30 7 2 7 8
M  V30 8 1 8 9
M  V30 9 1 7 10
M  V30 10 1 6 11
M  V30 11 2 11 12
M  V30 12 1 12 13
M  V30 13 2 13 14
M  V30 14 1 14 15
M  V30 15 2 15 16
M  V30 16 1 15 17
M  V30 17 1 8 4
M  V30 18 1 16 11
M  V30 19 1 1 18
M  V30 20 1 2 19
M  V30 21 1 2 20
M  V30 22 1 3 21
M  V30 23 1 3 22
M  V30 24 1 9 23
M  V30 25 1 9 24
M  V30 26 1 10 25
M  V30 27 1 10 26
M  V30 28 1 12 27
M  V30 29 1 13 28
M  V30 30 1 14 29
M  V30 31 1 16 30
M  V30 END BOND
M  V30 END CTAB
M  END
