
     RDKit          3D

  0  0  0  0  0  0  0  0  0  0999 V3000
M  V30 BEGIN CTAB
M  V30 COUNTS 29 30 0 0 0
M  V30 BEGIN ATOM
M  V30 1 N -1.8747 2.26049 -0.30436 0
M  V30 2 C -2.21002 1.01162 0.329276 0
M  V30 3 C -3.12809 0.242548 -0.584899 0
M  V30 4 C -2.53897 -1.13588 -0.759647 0
M  V30 5 C -1.65144 -1.24475 0.461123 0
M  V30 6 C -0.97807 0.121202 0.537199 0
M  V30 7 S 0.161325 0.398015 -0.806984 0
M  V30 8 C 1.86753 0.329992 -0.388896 0
M  V30 9 C 2.60881 1.44815 -0.064655 0
M  V30 10 C 3.94585 1.38657 0.270619 0
M  V30 11 N 4.54864 0.188663 0.281235 0
M  V30 12 C 3.83913 -0.92205 -0.033569 0
M  V30 13 C 2.50448 -0.900054 -0.372812 0
M  V30 14 N 1.82142 -2.10744 -0.679259 0
M  V30 15 H -1.05307 2.68107 0.138403 0
M  V30 16 H -2.71693 2.87883 -0.21674 0
M  V30 17 H -2.72384 1.16758 1.31491 0
M  V30 18 H -3.29607 0.760923 -1.5585 0
M  V30 19 H -4.13949 0.136747 -0.130254 0
M  V30 20 H -3.30667 -1.92059 -0.68939 0
M  V30 21 H -2.00397 -1.27563 -1.70792 0
M  V30 22 H -2.316 -1.3335 1.34892 0
M  V30 23 H -0.976882 -2.08832 0.466644 0
M  V30 24 H -0.599523 0.251766 1.54142 0
M  V30 25 H 2.16745 2.44249 -0.0596504 0
M  V30 26 H 4.54348 2.2475 0.525768 0
M  V30 27 H 4.34572 -1.90183 -0.0195017 0
M  V30 28 H 1.01742 -2.15449 -1.35936 0
M  V30 29 H 2.14247 -2.96961 -0.195272 0
M  V30 END ATOM
M  V30 BEGIN BOND
M  V30 1 1 1 2
M  V30 2 1 2 3
M  V30 3 1 3 4
M  V30 4 1 4 5
M  V30 5 1 5 6
M  V30 6 1 6 7
M  V30 7 1 7 8
M  V30 8 2 8 9
M  V30 9 1 9 10
M  V30 10 2 10 11
M  V30 11 1 11 12
M  V30 12 2 12 13
M  V30 13 1 13 14
M  V30 14 1 6 2
M  V30 15 1 13 8
M  V30 16 1 1 15
M  V30 17 1 1 16
M  V30 18 1 2 17
M  V30 19 1 3 18
M  V30 20 1 3 19
M  V30 21 1 4 20
M  V30 22 1 4 21
M  V30 23 1 5 22
M  V30 24 1 5 23
M  V30 25 1 6 24
M  V30 26 1 9 25
M  V30 27 1 10 26
M  V30 28 1 12 27
M  V30 29 1 14 28
M  V30 30 1 14 29
M  V30 END BOND
M  V30 END CTAB
M  END
