
     RDKit          3D

  0  0  0  0  0  0  0  0  0  0999 V3000
M  V30 BEGIN CTAB
M  V30 COUNTS 34 35 0 0 0
M  V30 BEGIN ATOM
M  V30 1 C 3.6718 -1.30115 1.92679 0
M  V30 2 O 3.50496 -0.131577 1.19855 0
M  V30 3 C 2.49546 0.18916 0.337528 0
M  V30 4 C 1.41877 -0.628051 0.0239876 0
M  V30 5 C 0.42207 -0.248962 -0.85905 0
M  V30 6 C -0.729645 -1.08648 -1.20017 0
M  V30 7 C -2.00297 -0.709052 -0.545591 0
M  V30 8 C -2.28393 -1.01973 0.763307 0
M  V30 9 N -1.37184 -1.74112 1.5781 0
M  V30 10 N -3.48973 -0.613677 1.26414 0
M  V30 11 C -4.39226 0.0559075 0.562589 0
M  V30 12 N -5.64589 0.485032 1.06193 0
M  V30 13 N -4.08884 0.343907 -0.711604 0
M  V30 14 C -2.94004 -0.0082133 -1.29078 0
M  V30 15 C 0.482971 1.0105 -1.47521 0
M  V30 16 C 1.54661 1.82627 -1.17 0
M  V30 17 C 2.52944 1.41773 -0.280738 0
M  V30 18 C 3.63395 2.35126 -0.00750951 0
M  V30 19 H 3.32854 -2.1715 1.32591 0
M  V30 20 H 3.20295 -1.27739 2.93184 0
M  V30 21 H 4.77858 -1.46116 2.05668 0
M  V30 22 H 1.4054 -1.58776 0.502029 0
M  V30 23 H -0.477103 -2.13162 -0.852079 0
M  V30 24 H -0.916961 -1.17988 -2.28556 0
M  V30 25 H -1.19754 -2.75166 1.43908 0
M  V30 26 H -0.86256 -1.25159 2.33394 0
M  V30 27 H -6.44538 -0.200594 1.12484 0
M  V30 28 H -5.7704 1.48374 1.36628 0
M  V30 29 H -2.72835 0.248709 -2.34421 0
M  V30 30 H -0.287089 1.32246 -2.16752 0
M  V30 31 H 1.58376 2.80128 -1.65341 0
M  V30 32 H 3.17716 3.21827 0.556301 0
M  V30 33 H 4.04398 2.80176 -0.933325 0
M  V30 34 H 4.40415 1.94519 0.658649 0
M  V30 END ATOM
M  V30 BEGIN BOND
M  V30 1 1 1 2
M  V30 2 1 2 3
M  V30 3 2 3 4
M  V30 4 1 4 5
M  V30 5 1 5 6
M  V30 6 1 6 7
M  V30 7 2 7 8
M  V30 8 1 8 9
M  V30 9 1 8 10
M  V30 10 2 10 11
M  V30 11 1 11 12
M  V30 12 1 11 13
M  V30 13 2 13 14
M  V30 14 2 5 15
M  V30 15 1 15 16
M  V30 16 2 16 17
M  V30 17 1 17 18
M  V30 18 1 17 3
M  V30 19 1 14 7
M  V30 20 1 1 19
M  V30 21 1 1 20
M  V30 22 1 1 21
M  V30 23 1 4 22
M  V30 24 1 6 23
M  V30 25 1 6 24
M  V30 26 1 9 25
M  V30 27 1 9 26
M  V30 28 1 12 27
M  V30 29 1 12 28
M  V30 30 1 14 29
M  V30 31 1 15 30
M  V30 32 1 16 31
M  V30 33 1 18 32
M  V30 34 1 18 33
M  V30 35 1 18 34
M  V30 END BOND
M  V30 END CTAB
M  END
