
     RDKit          3D

  0  0  0  0  0  0  0  0  0  0999 V3000
M  V30 BEGIN CTAB
M  V30 COUNTS 42 43 0 0 0
M  V30 BEGIN ATOM
M  V30 1 C -5.54361 0.0234462 0.335869 0
M  V30 2 C -4.82959 1.23952 0.862636 0
M  V30 3 C -3.42302 0.921122 1.31835 0
M  V30 4 C -2.57671 0.371859 0.199652 0
M  V30 5 C -1.22134 0.0917759 0.742844 0
M  V30 6 O -0.932528 0.311732 1.94775 0
M  V30 7 N -0.249852 -0.438249 -0.150299 0
M  V30 8 C 1.08041 -0.723641 0.342011 0
M  V30 9 C 1.3247 -2.22472 0.114666 0
M  V30 10 C 2.56919 -2.54932 0.871276 0
M  V30 11 C 3.72738 -1.80692 0.311924 0
M  V30 12 C 3.39497 -0.62558 -0.504718 0
M  V30 13 C 2.13255 -0.0712911 -0.516209 0
M  V30 14 C 1.86463 1.0217 -1.28271 0
M  V30 15 C 2.82682 1.62804 -2.08004 0
M  V30 16 C 4.09595 1.08891 -2.08284 0
M  V30 17 C 4.37185 -0.0172884 -1.30858 0
M  V30 18 N 5.10595 1.6933 -2.89476 0
M  V30 19 N -5.57663 1.7326 2.00474 0
M  V30 20 H -6.59946 0.30612 0.148332 0
M  V30 21 H -5.56962 -0.746413 1.14271 0
M  V30 22 H -5.07705 -0.332941 -0.589688 0
M  V30 23 H -4.79961 1.99337 0.0517255 0
M  V30 24 H -2.97484 1.8483 1.7213 0
M  V30 25 H -3.43773 0.183807 2.14531 0
M  V30 26 H -2.44114 1.10808 -0.616614 0
M  V30 27 H -2.98195 -0.572118 -0.191288 0
M  V30 28 H -0.444364 -0.631308 -1.1368 0
M  V30 29 H 1.22194 -0.495943 1.3987 0
M  V30 30 H 1.52504 -2.35585 -0.969097 0
M  V30 31 H 0.436226 -2.78273 0.453352 0
M  V30 32 H 2.73093 -3.6524 0.885946 0
M  V30 33 H 2.39303 -2.27209 1.94401 0
M  V30 34 H 4.32218 -2.48815 -0.35718 0
M  V30 35 H 4.41704 -1.56988 1.1493 0
M  V30 36 H 0.852862 1.41708 -1.25351 0
M  V30 37 H 2.61884 2.49643 -2.6907 0
M  V30 38 H 5.35289 -0.448779 -1.29916 0
M  V30 39 H 5.88068 2.25027 -2.47405 0
M  V30 40 H 5.0491 1.56257 -3.92984 0
M  V30 41 H -5.06896 2.54316 2.43894 0
M  V30 42 H -5.54716 0.972411 2.73287 0
M  V30 END ATOM
M  V30 BEGIN BOND
M  V30 1 1 1 2
M  V30 2 1 2 3
M  V30 3 1 3 4
M  V30 4 1 4 5
M  V30 5 2 5 6
M  V30 6 1 5 7
M  V30 7 1 7 8
M  V30 8 1 8 9
M  V30 9 1 9 10
M  V30 10 1 10 11
M  V30 11 1 11 12
M  V30 12 2 12 13
M  V30 13 1 13 14
M  V30 14 2 14 15
M  V30 15 1 15 16
M  V30 16 2 16 17
M  V30 17 1 16 18
M  V30 18 1 2 19
M  V30 19 1 13 8
M  V30 20 1 17 12
M  V30 21 1 1 20
M  V30 22 1 1 21
M  V30 23 1 1 22
M  V30 24 1 2 23
M  V30 25 1 3 24
M  V30 26 1 3 25
M  V30 27 1 4 26
M  V30 28 1 4 27
M  V30 29 1 7 28
M  V30 30 1 8 29
M  V30 31 1 9 30
M  V30 32 1 9 31
M  V30 33 1 10 32
M  V30 34 1 10 33
M  V30 35 1 11 34
M  V30 36 1 11 35
M  V30 37 1 14 36
M  V30 38 1 15 37
M  V30 39 1 17 38
M  V30 40 1 18 39
M  V30 41 1 18 40
M  V30 42 1 19 41
M  V30 43 1 19 42
M  V30 END BOND
M  V30 END CTAB
M  END
