
     RDKit          3D

  0  0  0  0  0  0  0  0  0  0999 V3000
M  V30 BEGIN CTAB
M  V30 COUNTS 53 55 0 0 0
M  V30 BEGIN ATOM
M  V30 1 N -3.63149 -3.9567 -2.25804 0
M  V30 2 C -3.49224 -2.71867 -1.57432 0
M  V30 3 C -3.83237 -2.65367 -0.233493 0
M  V30 4 C -3.68694 -1.44523 0.400875 0
M  V30 5 C -3.21809 -0.312149 -0.25362 0
M  V30 6 C -2.87789 -0.37439 -1.59179 0
M  V30 7 C -3.02595 -1.59086 -2.22227 0
M  V30 8 N -3.08714 0.908239 0.438814 0
M  V30 9 C -1.87339 1.48947 0.880761 0
M  V30 10 O -1.92629 2.60478 1.4667 0
M  V30 11 C -0.559298 0.894794 0.711073 0
M  V30 12 O -0.371989 -0.221417 0.161496 0
M  V30 13 N 0.579647 1.57684 1.1745 0
M  V30 14 C 1.92722 1.07922 1.06085 0
M  V30 15 C 2.3827 0.857831 -0.329412 0
M  V30 16 C 3.77633 0.339191 -0.379777 0
M  V30 17 C 3.99556 -1.02906 -0.453255 0
M  V30 18 C 5.25841 -1.56955 -0.494687 0
M  V30 19 C 6.36374 -0.752224 -0.463318 0
M  V30 20 C 6.15017 0.620595 -0.389222 0
M  V30 21 C 4.88087 1.15512 -0.348865 0
M  V30 22 S 7.9726 -1.38672 -0.550226 0
M  V30 23 O 8.98437 -0.286675 -0.807761 0
M  V30 24 O 8.0367 -2.44982 -1.58324 0
M  V30 25 N 8.40919 -2.09319 0.97938 0
M  V30 26 C -4.3099 1.59664 0.721821 0
M  V30 27 C -5.13945 2.0032 -0.288849 0
M  V30 28 C -6.32679 2.67496 0.0284984 0
M  V30 29 C -6.67204 2.93237 1.33641 0
M  V30 30 C -5.83104 2.51882 2.33569 0
M  V30 31 C -4.65224 1.8524 2.03085 0
M  V30 32 H -4.59646 -4.25649 -2.51438 0
M  V30 33 H -2.84628 -4.58218 -2.52018 0
M  V30 34 H -4.1933 -3.5453 0.258844 0
M  V30 35 H -3.95861 -1.40126 1.46107 0
M  V30 36 H -2.50219 0.509726 -2.13339 0
M  V30 37 H -2.75606 -1.64559 -3.28436 0
M  V30 38 H 0.456901 2.50104 1.62758 0
M  V30 39 H 1.93058 0.0981958 1.60582 0
M  V30 40 H 2.64366 1.71775 1.59606 0
M  V30 41 H 1.77914 0.138829 -0.920193 0
M  V30 42 H 2.32309 1.82541 -0.891315 0
M  V30 43 H 3.13226 -1.71118 -0.480878 0
M  V30 44 H 5.43639 -2.63901 -0.552644 0
M  V30 45 H 6.98686 1.30895 -0.360665 0
M  V30 46 H 4.70349 2.21533 -0.29442 0
M  V30 47 H 7.6024 -2.61077 1.40176 0
M  V30 48 H 9.24837 -2.7142 0.865933 0
M  V30 49 H -4.91379 1.82598 -1.33616 0
M  V30 50 H -6.95177 2.97726 -0.800046 0
M  V30 51 H -7.61169 3.46154 1.56298 0
M  V30 52 H -6.10107 2.72115 3.36459 0
M  V30 53 H -4.01489 1.54068 2.8517 0
M  V30 END ATOM
M  V30 BEGIN BOND
M  V30 1 1 1 2
M  V30 2 2 2 3
M  V30 3 1 3 4
M  V30 4 2 4 5
M  V30 5 1 5 6
M  V30 6 2 6 7
M  V30 7 1 5 8
M  V30 8 1 8 9
M  V30 9 2 9 10
M  V30 10 1 9 11
M  V30 11 2 11 12
M  V30 12 1 11 13
M  V30 13 1 13 14
M  V30 14 1 14 15
M  V30 15 1 15 16
M  V30 16 2 16 17
M  V30 17 1 17 18
M  V30 18 2 18 19
M  V30 19 1 19 20
M  V30 20 2 20 21
M  V30 21 1 19 22
M  V30 22 2 22 23
M  V30 23 2 22 24
M  V30 24 1 22 25
M  V30 25 1 8 26
M  V30 26 2 26 27
M  V30 27 1 27 28
M  V30 28 2 28 29
M  V30 29 1 29 30
M  V30 30 2 30 31
M  V30 31 1 7 2
M  V30 32 1 21 16
M  V30 33 1 31 26
M  V30 34 1 1 32
M  V30 35 1 1 33
M  V30 36 1 3 34
M  V30 37 1 4 35
M  V30 38 1 6 36
M  V30 39 1 7 37
M  V30 40 1 13 38
M  V30 41 1 14 39
M  V30 42 1 14 40
M  V30 43 1 15 41
M  V30 44 1 15 42
M  V30 45 1 17 43
M  V30 46 1 18 44
M  V30 47 1 20 45
M  V30 48 1 21 46
M  V30 49 1 25 47
M  V30 50 1 25 48
M  V30 51 1 27 49
M  V30 52 1 28 50
M  V30 53 1 29 51
M  V30 54 1 30 52
M  V30 55 1 31 53
M  V30 END BOND
M  V30 END CTAB
M  END
