
     RDKit          3D

  0  0  0  0  0  0  0  0  0  0999 V3000
M  V30 BEGIN CTAB
M  V30 COUNTS 35 36 0 0 0
M  V30 BEGIN ATOM
M  V30 1 N 5.89367 0.760307 0.286886 0
M  V30 2 C 4.63627 0.164513 0.0627488 0
M  V30 3 N 4.53281 -0.78785 -0.906283 0
M  V30 4 C 3.3627 -1.39334 -1.16863 0
M  V30 5 C 2.22098 -1.0715 -0.464236 0
M  V30 6 C 2.27684 -0.116076 0.52324 0
M  V30 7 C 3.49077 0.486164 0.768143 0
M  V30 8 C 1.09446 0.252387 1.2882 0
M  V30 9 N -0.16656 -0.117842 0.762353 0
M  V30 10 C -0.535569 0.434412 -0.497609 0
M  V30 11 C -1.79898 -0.200869 -1.00011 0
M  V30 12 N -2.69544 -0.664278 -0.0331235 0
M  V30 13 C -2.45515 -0.418208 1.32148 0
M  V30 14 C -1.19759 0.260507 1.71027 0
M  V30 15 S -4.34598 -0.653291 -0.492315 0
M  V30 16 O -5.16974 -1.1118 0.682225 0
M  V30 17 O -4.60065 -1.48331 -1.71609 0
M  V30 18 N -4.79543 0.983589 -0.817273 0
M  V30 19 H 6.62297 0.238589 0.795496 0
M  V30 20 H 6.09195 1.71334 -0.0527954 0
M  V30 21 H 3.31622 -2.14113 -1.94065 0
M  V30 22 H 1.32232 -1.59193 -0.723422 0
M  V30 23 H 3.59458 1.24171 1.52995 0
M  V30 24 H 1.18855 -0.258498 2.2929 0
M  V30 25 H 1.09101 1.34585 1.57262 0
M  V30 26 H 0.231303 0.472165 -1.26922 0
M  V30 27 H -0.803289 1.51611 -0.291725 0
M  V30 28 H -2.27557 0.52536 -1.70291 0
M  V30 29 H -1.49 -1.06246 -1.66125 0
M  V30 30 H -2.49559 -1.39882 1.87981 0
M  V30 31 H -3.30875 0.169417 1.76081 0
M  V30 32 H -0.925398 0.0136692 2.75632 0
M  V30 33 H -1.32244 1.37611 1.58694 0
M  V30 34 H -5.69572 1.04565 -1.33524 0
M  V30 35 H -4.88954 1.47135 0.0874537 0
M  V30 END ATOM
M  V30 BEGIN BOND
M  V30 1 1 1 2
M  V30 2 2 2 3
M  V30 3 1 3 4
M  V30 4 2 4 5
M  V30 5 1 5 6
M  V30 6 2 6 7
M  V30 7 1 6 8
M  V30 8 1 8 9
M  V30 9 1 9 10
M  V30 10 1 10 11
M  V30 11 1 11 12
M  V30 12 1 12 13
M  V30 13 1 13 14
M  V30 14 1 12 15
M  V30 15 2 15 16
M  V30 16 2 15 17
M  V30 17 1 15 18
M  V30 18 1 7 2
M  V30 19 1 14 9
M  V30 20 1 1 19
M  V30 21 1 1 20
M  V30 22 1 4 21
M  V30 23 1 5 22
M  V30 24 1 7 23
M  V30 25 1 8 24
M  V30 26 1 8 25
M  V30 27 1 10 26
M  V30 28 1 10 27
M  V30 29 1 11 28
M  V30 30 1 11 29
M  V30 31 1 13 30
M  V30 32 1 13 31
M  V30 33 1 14 32
M  V30 34 1 14 33
M  V30 35 1 18 34
M  V30 36 1 18 35
M  V30 END BOND
M  V30 END CTAB
M  END
