
     RDKit          3D

  0  0  0  0  0  0  0  0  0  0999 V3000
M  V30 BEGIN CTAB
M  V30 COUNTS 26 26 0 0 0
M  V30 BEGIN ATOM
M  V30 1 N 3.34802 0.715979 1.4484 0
M  V30 2 N 1.99403 0.577094 1.29137 0
M  V30 3 C 1.47666 0.202345 0.0062681 0
M  V30 4 O 2.25516 0.00152832 -0.972489 0
M  V30 5 C 0.0322752 0.0451864 -0.195401 0
M  V30 6 C -0.270766 -0.350175 -1.61914 0
M  V30 7 N 0.394078 -1.60459 -1.88315 0
M  V30 8 C -0.583433 -0.963965 0.749201 0
M  V30 9 C -2.06716 -0.692193 0.568878 0
M  V30 10 C -2.16921 0.77153 0.171345 0
M  V30 11 C -0.758695 1.29396 0.113822 0
M  V30 12 H 3.88624 0.878841 0.594483 0
M  V30 13 H 3.63316 1.30228 2.26081 0
M  V30 14 H 1.33708 0.736096 2.0774 0
M  V30 15 H 0.200578 0.437702 -2.26704 0
M  V30 16 H -1.33357 -0.347772 -1.85299 0
M  V30 17 H -0.227146 -2.41828 -1.84209 0
M  V30 18 H 1.05158 -1.57391 -2.67184 0
M  V30 19 H -0.326333 -1.98712 0.457411 0
M  V30 20 H -0.326487 -0.696921 1.77793 0
M  V30 21 H -2.58477 -0.870265 1.51989 0
M  V30 22 H -2.45774 -1.36516 -0.198429 0
M  V30 23 H -2.65585 0.820844 -0.810614 0
M  V30 24 H -2.73064 1.35721 0.927672 0
M  V30 25 H -0.417047 1.71429 1.07604 0
M  V30 26 H -0.700012 2.01545 -0.727744 0
M  V30 END ATOM
M  V30 BEGIN BOND
M  V30 1 1 1 2
M  V30 2 1 2 3
M  V30 3 2 3 4
M  V30 4 1 3 5
M  V30 5 1 5 6
M  V30 6 1 6 7
M  V30 7 1 5 8
M  V30 8 1 8 9
M  V30 9 1 9 10
M  V30 10 1 10 11
M  V30 11 1 11 5
M  V30 12 1 1 12
M  V30 13 1 1 13
M  V30 14 1 2 14
M  V30 15 1 6 15
M  V30 16 1 6 16
M  V30 17 1 7 17
M  V30 18 1 7 18
M  V30 19 1 8 19
M  V30 20 1 8 20
M  V30 21 1 9 21
M  V30 22 1 9 22
M  V30 23 1 10 23
M  V30 24 1 10 24
M  V30 25 1 11 25
M  V30 26 1 11 26
M  V30 END BOND
M  V30 END CTAB
M  END
