
     RDKit          3D

  0  0  0  0  0  0  0  0  0  0999 V3000
M  V30 BEGIN CTAB
M  V30 COUNTS 49 53 0 0 0
M  V30 BEGIN ATOM
M  V30 1 C 1.61123 2.32344 0.596528 0
M  V30 2 C 1.403 0.831799 0.417489 0
M  V30 3 C 0.827871 0.220499 1.61722 0
M  V30 4 C -0.616693 -0.126382 1.59769 0
M  V30 5 C -1.12198 -0.596854 0.262809 0
M  V30 6 C -0.77867 0.403868 -0.773717 0
M  V30 7 C -1.45207 1.72626 -0.556369 0
M  V30 8 C -2.93537 1.62844 -0.408493 0
M  V30 9 C -3.41707 0.282644 -0.0104289 0
M  V30 10 C -4.79512 0.131466 0.0276378 0
M  V30 11 C -5.36511 -1.07175 0.382898 0
M  V30 12 O -6.76701 -1.20135 0.414423 0
M  V30 13 C -4.55848 -2.14338 0.705914 0
M  V30 14 C -3.1937 -1.95984 0.658149 0
M  V30 15 C -2.59058 -0.770219 0.3071 0
M  V30 16 C 0.690443 0.605403 -0.873441 0
M  V30 17 C 1.3549 -0.576407 -1.53874 0
M  V30 18 C 2.71942 -0.532573 -1.01625 0
M  V30 19 C 2.74974 0.262917 0.0991974 0
M  V30 20 N 3.94623 0.411049 0.717293 0
M  V30 21 C 5.05807 -0.187134 0.269229 0
M  V30 22 N 6.3024 -0.0244775 0.923984 0
M  V30 23 N 5.00598 -0.958395 -0.82037 0
M  V30 24 C 3.86621 -1.15435 -1.48522 0
M  V30 25 N 3.76739 -1.96214 -2.64167 0
M  V30 26 H 1.01456 2.72715 1.43856 0
M  V30 27 H 1.40955 2.87992 -0.356908 0
M  V30 28 H 2.66988 2.53726 0.849199 0
M  V30 29 H 0.993558 0.913281 2.49474 0
M  V30 30 H 1.39984 -0.70097 1.8898 0
M  V30 31 H -0.842511 -0.929904 2.33089 0
M  V30 32 H -1.24929 0.74107 1.90515 0
M  V30 33 H -0.686485 -1.57902 0.0108802 0
M  V30 34 H -1.11869 -0.0130686 -1.76624 0
M  V30 35 H -1.20867 2.3638 -1.4542 0
M  V30 36 H -1.04737 2.20752 0.331677 0
M  V30 37 H -3.31385 2.3331 0.389064 0
M  V30 38 H -3.47063 1.91782 -1.34128 0
M  V30 39 H -5.46943 0.953448 -0.220402 0
M  V30 40 H -7.28798 -0.999494 1.26473 0
M  V30 41 H -5.02338 -3.0777 0.98166 0
M  V30 42 H -2.57996 -2.82668 0.919235 0
M  V30 43 H 0.859898 1.47584 -1.56177 0
M  V30 44 H 1.34791 -0.464931 -2.65422 0
M  V30 45 H 0.907105 -1.54456 -1.26138 0
M  V30 46 H 6.6808 -0.84224 1.45234 0
M  V30 47 H 6.83973 0.874585 0.892058 0
M  V30 48 H 4.14178 -1.62013 -3.53747 0
M  V30 49 H 3.32261 -2.88863 -2.58727 0
M  V30 END ATOM
M  V30 BEGIN BOND
M  V30 1 1 1 2
M  V30 2 1 2 3
M  V30 3 1 3 4
M  V30 4 1 4 5
M  V30 5 1 5 6
M  V30 6 1 6 7
M  V30 7 1 7 8
M  V30 8 1 8 9
M  V30 9 2 9 10
M  V30 10 1 10 11
M  V30 11 1 11 12
M  V30 12 2 11 13
M  V30 13 1 13 14
M  V30 14 2 14 15
M  V30 15 1 6 16
M  V30 16 1 16 17
M  V30 17 1 17 18
M  V30 18 2 18 19
M  V30 19 1 19 20
M  V30 20 2 20 21
M  V30 21 1 21 22
M  V30 22 1 21 23
M  V30 23 2 23 24
M  V30 24 1 24 25
M  V30 25 1 16 2
M  V30 26 1 24 18
M  V30 27 1 19 2
M  V30 28 1 15 5
M  V30 29 1 15 9
M  V30 30 1 1 26
M  V30 31 1 1 27
M  V30 32 1 1 28
M  V30 33 1 3 29
M  V30 34 1 3 30
M  V30 35 1 4 31
M  V30 36 1 4 32
M  V30 37 1 5 33
M  V30 38 1 6 34
M  V30 39 1 7 35
M  V30 40 1 7 36
M  V30 41 1 8 37
M  V30 42 1 8 38
M  V30 43 1 10 39
M  V30 44 1 12 40
M  V30 45 1 13 41
M  V30 46 1 14 42
M  V30 47 1 16 43
M  V30 48 1 17 44
M  V30 49 1 17 45
M  V30 50 1 22 46
M  V30 51 1 22 47
M  V30 52 1 25 48
M  V30 53 1 25 49
M  V30 END BOND
M  V30 END CTAB
M  END
