
     RDKit          3D

  0  0  0  0  0  0  0  0  0  0999 V3000
M  V30 BEGIN CTAB
M  V30 COUNTS 57 59 0 0 0
M  V30 BEGIN ATOM
M  V30 1 C -2.17562 1.99381 0.560522 0
M  V30 2 N -1.80595 0.923535 -0.403787 0
M  V30 3 C -2.76425 0.538984 -1.38394 0
M  V30 4 C -4.00416 -0.0752048 -0.809781 0
M  V30 5 N -5.09341 0.645926 -0.900002 0
M  V30 6 C -6.35505 0.225223 -0.412581 0
M  V30 7 C -6.47517 -1.00367 0.190527 0
M  V30 8 N -5.3052 -1.79586 0.289569 0
M  V30 9 C -3.98281 -1.39318 -0.153843 0
M  V30 10 N -7.64119 -1.4619 0.688203 0
M  V30 11 C -8.76389 -0.710273 0.608881 0
M  V30 12 N -10.0037 -1.17154 1.13055 0
M  V30 13 N -8.635 0.489736 0.015404 0
M  V30 14 C -7.49957 0.983077 -0.490238 0
M  V30 15 N -7.41283 2.26174 -1.1057 0
M  V30 16 C -0.506339 0.390167 -0.318548 0
M  V30 17 C 0.59402 1.1735 -0.716708 0
M  V30 18 C 1.88538 0.726177 -0.631357 0
M  V30 19 C 2.18673 -0.509846 -0.153565 0
M  V30 20 C 1.13632 -1.31162 0.245012 0
M  V30 21 C -0.18137 -0.849367 0.155542 0
M  V30 22 C 3.53131 -1.01846 0.0174423 0
M  V30 23 O 3.70384 -2.1696 0.472486 0
M  V30 24 N 4.63922 -0.230045 -0.315555 0
M  V30 25 C 6.01353 -0.727599 -0.107795 0
M  V30 26 C 6.71841 0.254373 0.769895 0
M  V30 27 C 8.11921 -0.117157 1.1002 0
M  V30 28 C 8.68276 0.935519 2.0118 0
M  V30 29 O 9.99025 0.793776 2.46179 0
M  V30 30 O 8.00317 1.911 2.35937 0
M  V30 31 C 6.68814 -0.903826 -1.41036 0
M  V30 32 O 7.96167 -1.36438 -1.61823 0
M  V30 33 O 5.98504 -0.584769 -2.44084 0
M  V30 34 H -2.3775 2.94422 0.0254063 0
M  V30 35 H -1.30888 2.19171 1.21558 0
M  V30 36 H -2.99756 1.6497 1.19989 0
M  V30 37 H -2.31065 -0.179988 -2.11104 0
M  V30 38 H -3.0052 1.43229 -2.00887 0
M  V30 39 H -5.39685 -2.7449 0.714263 0
M  V30 40 H -3.64524 -2.15031 -0.889447 0
M  V30 41 H -3.26335 -1.41094 0.698196 0
M  V30 42 H -10.6919 -0.456951 1.43991 0
M  V30 43 H -10.2654 -2.1738 1.22229 0
M  V30 44 H -7.04851 2.30416 -2.07958 0
M  V30 45 H -7.69627 3.10185 -0.59599 0
M  V30 46 H 0.332758 2.16093 -1.0942 0
M  V30 47 H 2.66573 1.39003 -0.957351 0
M  V30 48 H 1.33028 -2.30298 0.626586 0
M  V30 49 H -0.939645 -1.52383 0.480967 0
M  V30 50 H 4.50391 0.722313 -0.719278 0
M  V30 51 H 5.92058 -1.70488 0.396436 0
M  V30 52 H 6.68112 1.25764 0.237067 0
M  V30 53 H 6.09577 0.420024 1.68238 0
M  V30 54 H 8.11768 -1.07966 1.60975 0
M  V30 55 H 8.79582 -0.170444 0.234934 0
M  V30 56 H 10.6624 0.200508 1.96354 0
M  V30 57 H 8.6074 -0.724955 -2.07336 0
M  V30 END ATOM
M  V30 BEGIN BOND
M  V30 1 1 1 2
M  V30 2 1 2 3
M  V30 3 1 3 4
M  V30 4 2 4 5
M  V30 5 1 5 6
M  V30 6 2 6 7
M  V30 7 1 7 8
M  V30 8 1 8 9
M  V30 9 1 7 10
M  V30 10 2 10 11
M  V30 11 1 11 12
M  V30 12 1 11 13
M  V30 13 2 13 14
M  V30 14 1 14 15
M  V30 15 1 2 16
M  V30 16 2 16 17
M  V30 17 1 17 18
M  V30 18 2 18 19
M  V30 19 1 19 20
M  V30 20 2 20 21
M  V30 21 1 19 22
M  V30 22 2 22 23
M  V30 23 1 22 24
M  V30 24 1 24 25
M  V30 25 1 25 26
M  V30 26 1 26 27
M  V30 27 1 27 28
M  V30 28 1 28 29
M  V30 29 2 28 30
M  V30 30 1 25 31
M  V30 31 1 31 32
M  V30 32 2 31 33
M  V30 33 1 9 4
M  V30 34 1 21 16
M  V30 35 1 14 6
M  V30 36 1 1 34
M  V30 37 1 1 35
M  V30 38 1 1 36
M  V30 39 1 3 37
M  V30 40 1 3 38
M  V30 41 1 8 39
M  V30 42 1 9 40
M  V30 43 1 9 41
M  V30 44 1 12 42
M  V30 45 1 12 43
M  V30 46 1 15 44
M  V30 47 1 15 45
M  V30 48 1 17 46
M  V30 49 1 18 47
M  V30 50 1 20 48
M  V30 51 1 21 49
M  V30 52 1 24 50
M  V30 53 1 25 51
M  V30 54 1 26 52
M  V30 55 1 26 53
M  V30 56 1 27 54
M  V30 57 1 27 55
M  V30 58 1 29 56
M  V30 59 1 32 57
M  V30 END BOND
M  V30 END CTAB
M  END
