
     RDKit          3D

  0  0  0  0  0  0  0  0  0  0999 V3000
M  V30 BEGIN CTAB
M  V30 COUNTS 28 29 0 0 0
M  V30 BEGIN ATOM
M  V30 1 N 5.35093 -1.68424 0.322375 0
M  V30 2 C 4.2454 -0.816841 0.216576 0
M  V30 3 N 3.06774 -1.35377 0.25551 0
M  V30 4 C 1.90645 -0.53874 0.154347 0
M  V30 5 S 1.68631 1.14029 -0.0230304 0
M  V30 6 C -0.0269456 1.17846 -0.0514845 0
M  V30 7 C -0.325088 -0.154718 0.0826106 0
M  V30 8 N 0.663401 -0.986493 0.183049 0
M  V30 9 C -1.76892 -0.615962 0.110418 0
M  V30 10 C -2.45112 -0.107033 -1.12612 0
M  V30 11 C -3.7263 0.535269 -0.624251 0
M  V30 12 C -3.41432 1.01899 0.759042 0
M  V30 13 C -2.48494 -0.0458153 1.29196 0
M  V30 14 N 4.46539 0.576468 0.0751069 0
M  V30 15 H 5.72198 -1.94199 1.24551 0
M  V30 16 H 5.7885 -2.06119 -0.530499 0
M  V30 17 H -0.712292 2.02989 -0.149917 0
M  V30 18 H -1.82388 -1.71945 0.207032 0
M  V30 19 H -2.68473 -0.957245 -1.81401 0
M  V30 20 H -1.8379 0.598587 -1.71153 0
M  V30 21 H -4.50714 -0.238209 -0.570679 0
M  V30 22 H -4.05892 1.36618 -1.26183 0
M  V30 23 H -2.93157 2.02978 0.750912 0
M  V30 24 H -4.31992 1.039 1.40182 0
M  V30 25 H -1.8013 0.3492 2.07158 0
M  V30 26 H -3.10829 -0.817134 1.8229 0
M  V30 27 H 4.25968 1.22231 0.871617 0
M  V30 28 H 4.82779 0.954399 -0.811499 0
M  V30 END ATOM
M  V30 BEGIN BOND
M  V30 1 1 1 2
M  V30 2 2 2 3 CFG=2
M  V30 3 1 3 4
M  V30 4 1 4 5
M  V30 5 1 5 6
M  V30 6 2 6 7
M  V30 7 1 7 8
M  V30 8 1 7 9
M  V30 9 1 9 10
M  V30 10 1 10 11
M  V30 11 1 11 12
M  V30 12 1 12 13
M  V30 13 1 2 14
M  V30 14 2 8 4
M  V30 15 1 13 9
M  V30 16 1 1 15
M  V30 17 1 1 16
M  V30 18 1 6 17
M  V30 19 1 9 18
M  V30 20 1 10 19
M  V30 21 1 10 20
M  V30 22 1 11 21
M  V30 23 1 11 22
M  V30 24 1 12 23
M  V30 25 1 12 24
M  V30 26 1 13 25
M  V30 27 1 13 26
M  V30 28 1 14 27
M  V30 29 1 14 28
M  V30 END BOND
M  V30 END CTAB
M  END
