
     RDKit          3D

  0  0  0  0  0  0  0  0  0  0999 V3000
M  V30 BEGIN CTAB
M  V30 COUNTS 43 44 0 0 0
M  V30 BEGIN ATOM
M  V30 1 C 4.9745 3.21308 0.308181 0
M  V30 2 C 4.81722 1.71479 0.276361 0
M  V30 3 C 3.37096 1.40029 -0.0242751 0
M  V30 4 C 3.13652 -0.102035 -0.0721002 0
M  V30 5 N 1.71597 -0.370285 -0.367425 0
M  V30 6 C 1.33626 -1.73085 -0.445447 0
M  V30 7 C 2.28112 -2.74463 -0.248011 0
M  V30 8 C 1.97087 -4.0796 -0.311558 0
M  V30 9 C 0.657084 -4.41006 -0.584744 0
M  V30 10 C -0.266344 -3.43051 -0.777692 0
M  V30 11 C 0.0394614 -2.05653 -0.715102 0
M  V30 12 C -1.05457 -1.13367 -0.94355 0
M  V30 13 O -2.22699 -1.61113 -1.1872 0
M  V30 14 O -1.02395 0.235779 -0.93827 0
M  V30 15 C -2.06289 1.12888 -1.1538 0
M  V30 16 C -3.1907 1.04126 -0.209051 0
M  V30 17 N -3.15608 1.57832 1.02539 0
M  V30 18 C -4.17681 1.51768 1.90517 0
M  V30 19 N -4.10414 2.09564 3.19809 0
M  V30 20 N -5.29338 0.865261 1.48256 0
M  V30 21 C -5.38381 0.310447 0.262114 0
M  V30 22 N -4.32813 0.413725 -0.551933 0
M  V30 23 N -6.59071 -0.351822 -0.0933613 0
M  V30 24 H 4.35707 3.61784 1.14661 0
M  V30 25 H 6.05377 3.44191 0.454665 0
M  V30 26 H 4.58071 3.67943 -0.611381 0
M  V30 27 H 5.12576 1.3088 1.26266 0
M  V30 28 H 5.50801 1.31785 -0.502879 0
M  V30 29 H 3.14111 1.79635 -1.03579 0
M  V30 30 H 2.75953 1.8343 0.765172 0
M  V30 31 H 3.75042 -0.607518 -0.823604 0
M  V30 32 H 3.39198 -0.502067 0.921219 0
M  V30 33 H 1.11518 0.435369 -0.49298 0
M  V30 34 H 3.29031 -2.45931 -0.0381887 0
M  V30 35 H 2.6707 -4.88609 -0.165279 0
M  V30 36 H 0.350318 -5.4455 -0.647794 0
M  V30 37 H -1.27774 -3.74823 -0.987948 0
M  V30 38 H -2.43694 1.09516 -2.21907 0
M  V30 39 H -1.61386 2.16432 -1.08073 0
M  V30 40 H -4.97062 2.35792 3.7036 0
M  V30 41 H -3.1922 2.2668 3.66142 0
M  V30 42 H -7.12788 -0.909238 0.580519 0
M  V30 43 H -6.91706 -0.252146 -1.07256 0
M  V30 END ATOM
M  V30 BEGIN BOND
M  V30 1 1 1 2
M  V30 2 1 2 3
M  V30 3 1 3 4
M  V30 4 1 4 5
M  V30 5 1 5 6
M  V30 6 2 6 7
M  V30 7 1 7 8
M  V30 8 2 8 9
M  V30 9 1 9 10
M  V30 10 2 10 11
M  V30 11 1 11 12
M  V30 12 2 12 13
M  V30 13 1 12 14
M  V30 14 1 14 15
M  V30 15 1 15 16
M  V30 16 2 16 17
M  V30 17 1 17 18
M  V30 18 1 18 19
M  V30 19 2 18 20
M  V30 20 1 20 21
M  V30 21 2 21 22
M  V30 22 1 21 23
M  V30 23 1 11 6
M  V30 24 1 22 16
M  V30 25 1 1 24
M  V30 26 1 1 25
M  V30 27 1 1 26
M  V30 28 1 2 27
M  V30 29 1 2 28
M  V30 30 1 3 29
M  V30 31 1 3 30
M  V30 32 1 4 31
M  V30 33 1 4 32
M  V30 34 1 5 33
M  V30 35 1 7 34
M  V30 36 1 8 35
M  V30 37 1 9 36
M  V30 38 1 10 37
M  V30 39 1 15 38
M  V30 40 1 15 39
M  V30 41 1 19 40
M  V30 42 1 19 41
M  V30 43 1 23 42
M  V30 44 1 23 43
M  V30 END BOND
M  V30 END CTAB
M  END
