
     RDKit          3D

  0  0  0  0  0  0  0  0  0  0999 V3000
M  V30 BEGIN CTAB
M  V30 COUNTS 25 25 0 0 0
M  V30 BEGIN ATOM
M  V30 1 O -0.205469 1.68536 1.34159 0
M  V30 2 C -1.14063 1.26044 0.436408 0
M  V30 3 C -0.863348 -0.0743242 -0.177361 0
M  V30 4 C -1.02141 -1.17452 0.872628 0
M  V30 5 C -2.46784 -1.29745 0.431053 0
M  V30 6 C -2.1053 -0.606218 -0.859103 0
M  V30 7 N 0.351333 -0.212198 -0.911815 0
M  V30 8 C 1.6502 -0.0276229 -0.371516 0
M  V30 9 N 2.17579 1.12893 -0.426303 0
M  V30 10 N 3.41312 1.50108 0.0387659 0
M  V30 11 N 2.39652 -1.07716 0.230933 0
M  V30 12 H -0.269876 2.66952 1.43265 0
M  V30 13 H -1.17985 2.0201 -0.397299 0
M  V30 14 H -2.16077 1.25123 0.871831 0
M  V30 15 H -0.886125 -0.779532 1.90229 0
M  V30 16 H -0.387369 -2.04237 0.671497 0
M  V30 17 H -3.17164 -0.685459 1.02765 0
M  V30 18 H -2.84227 -2.32183 0.337211 0
M  V30 19 H -1.88652 -1.25075 -1.71137 0
M  V30 20 H -2.84457 0.1793 -1.13553 0
M  V30 21 H 0.301191 -0.466738 -1.92062 0
M  V30 22 H 3.63368 1.51407 1.05853 0
M  V30 23 H 4.13939 1.77589 -0.678398 0
M  V30 24 H 2.07973 -1.52107 1.11141 0
M  V30 25 H 3.29203 -1.44866 -0.18038 0
M  V30 END ATOM
M  V30 BEGIN BOND
M  V30 1 1 1 2
M  V30 2 1 2 3
M  V30 3 1 3 4
M  V30 4 1 4 5
M  V30 5 1 5 6
M  V30 6 1 3 7
M  V30 7 1 7 8
M  V30 8 2 8 9 CFG=2
M  V30 9 1 9 10
M  V30 10 1 8 11
M  V30 11 1 6 3
M  V30 12 1 1 12
M  V30 13 1 2 13
M  V30 14 1 2 14
M  V30 15 1 4 15
M  V30 16 1 4 16
M  V30 17 1 5 17
M  V30 18 1 5 18
M  V30 19 1 6 19
M  V30 20 1 6 20
M  V30 21 1 7 21
M  V30 22 1 10 22
M  V30 23 1 10 23
M  V30 24 1 11 24
M  V30 25 1 11 25
M  V30 END BOND
M  V30 END CTAB
M  END
