
     RDKit          3D

  0  0  0  0  0  0  0  0  0  0999 V3000
M  V30 BEGIN CTAB
M  V30 COUNTS 46 47 0 0 0
M  V30 BEGIN ATOM
M  V30 1 N 6.15034 1.8274 0.255979 0
M  V30 2 C 5.40719 0.683324 -0.233997 0
M  V30 3 C 3.98742 1.06596 -0.571396 0
M  V30 4 C 3.23162 -0.166982 -1.09184 0
M  V30 5 O 3.94243 -1.17753 -1.23028 0
M  V30 6 N 1.91595 -0.0156184 -1.33108 0
M  V30 7 C 0.60084 0.135402 -1.5703 0
M  V30 8 C -0.431317 -0.695881 -0.833797 0
M  V30 9 C -0.270604 -2.14695 -1.02796 0
M  V30 10 C 0.488227 -2.86106 0.0486821 0
M  V30 11 C 0.249012 -2.35785 1.43174 0
M  V30 12 C 0.298242 -0.870649 1.45087 0
M  V30 13 N -0.567967 -0.231527 0.494475 0
M  V30 14 S -2.12719 -0.143296 1.11138 0
M  V30 15 O -2.02847 0.31235 2.56401 0
M  V30 16 O -2.80168 -1.50947 1.20027 0
M  V30 17 C -3.23953 0.913107 0.340906 0
M  V30 18 C -2.96161 1.78678 -0.679795 0
M  V30 19 C -3.94219 2.59555 -1.2041 0
M  V30 20 Cl -3.52017 3.68713 -2.51086 0
M  V30 21 C -5.22564 2.55225 -0.721536 0
M  V30 22 N -5.49284 1.69525 0.278789 0
M  V30 23 C -4.5505 0.892169 0.809578 0
M  V30 24 N -4.97714 0.0386419 1.86159 0
M  V30 25 H 6.45919 2.45687 -0.535313 0
M  V30 26 H 5.58683 2.38808 0.922633 0
M  V30 27 H 5.90441 0.179271 -1.06764 0
M  V30 28 H 5.39774 -0.0733228 0.608384 0
M  V30 29 H 3.96153 1.87158 -1.3059 0
M  V30 30 H 3.50362 1.40924 0.367887 0
M  V30 31 H 1.84189 -1.30595 -1.77133 0
M  V30 32 H 0.321509 1.25608 -1.37193 0
M  V30 33 H 0.29685 0.103176 -2.68497 0
M  V30 34 H -1.43598 -0.443932 -1.33349 0
M  V30 35 H -1.28998 -2.64799 -1.11861 0
M  V30 36 H 0.204564 -2.36008 -1.99812 0
M  V30 37 H 1.5766 -2.95987 -0.12987 0
M  V30 38 H 0.125215 -3.93741 0.0291384 0
M  V30 39 H 1.0792 -2.74121 2.07614 0
M  V30 40 H -0.694368 -2.72939 1.88117 0
M  V30 41 H 1.30528 -0.473578 1.32239 0
M  V30 42 H -0.0863864 -0.532639 2.4614 0
M  V30 43 H -1.93438 1.83797 -1.06689 0
M  V30 44 H -6.01375 3.2013 -1.14143 0
M  V30 45 H -5.49346 -0.837892 1.66065 0
M  V30 46 H -4.75052 0.331177 2.82994 0
M  V30 END ATOM
M  V30 BEGIN BOND
M  V30 1 1 1 2
M  V30 2 1 2 3
M  V30 3 1 3 4
M  V30 4 2 4 5
M  V30 5 1 4 6
M  V30 6 1 6 7
M  V30 7 1 7 8
M  V30 8 1 8 9
M  V30 9 1 9 10
M  V30 10 1 10 11
M  V30 11 1 11 12
M  V30 12 1 12 13
M  V30 13 1 13 14
M  V30 14 2 14 15
M  V30 15 2 14 16
M  V30 16 1 14 17
M  V30 17 2 17 18
M  V30 18 1 18 19
M  V30 19 1 19 20
M  V30 20 2 19 21
M  V30 21 1 21 22
M  V30 22 2 22 23
M  V30 23 1 23 24
M  V30 24 1 13 8
M  V30 25 1 23 17
M  V30 26 1 1 25
M  V30 27 1 1 26
M  V30 28 1 2 27
M  V30 29 1 2 28
M  V30 30 1 3 29
M  V30 31 1 3 30
M  V30 32 1 6 31
M  V30 33 1 7 32
M  V30 34 1 7 33
M  V30 35 1 8 34
M  V30 36 1 9 35
M  V30 37 1 9 36
M  V30 38 1 10 37
M  V30 39 1 10 38
M  V30 40 1 11 39
M  V30 41 1 11 40
M  V30 42 1 12 41
M  V30 43 1 12 42
M  V30 44 1 18 43
M  V30 45 1 21 44
M  V30 46 1 24 45
M  V30 47 1 24 46
M  V30 END BOND
M  V30 END CTAB
M  END
