
     RDKit          3D

  0  0  0  0  0  0  0  0  0  0999 V3000
M  V30 BEGIN CTAB
M  V30 COUNTS 27 27 0 0 0
M  V30 BEGIN ATOM
M  V30 1 N 3.72948 -1.55748 0.220546 0
M  V30 2 C 2.64075 -0.735122 -0.333741 0
M  V30 3 C 2.03634 -0.00194091 0.815459 0
M  V30 4 N 0.951175 0.860185 0.517933 0
M  V30 5 C -0.367079 0.448301 0.107034 0
M  V30 6 C -0.762459 -0.863798 0.0592659 0
M  V30 7 C -2.0583 -1.20299 -0.329577 0
M  V30 8 N -2.49622 -2.54297 -0.389641 0
M  V30 9 C -2.98842 -0.240083 -0.678901 0
M  V30 10 C -2.59969 1.08115 -0.633229 0
M  V30 11 C -1.31752 1.39844 -0.247674 0
M  V30 12 C -0.912685 2.83002 -0.203341 0
M  V30 13 H 4.34521 -0.965416 0.823454 0
M  V30 14 H 4.28675 -2.00862 -0.535777 0
M  V30 15 H 1.90574 -1.38654 -0.820053 0
M  V30 16 H 3.0986 -0.0268073 -1.08312 0
M  V30 17 H 2.86099 0.605662 1.27809 0
M  V30 18 H 1.76337 -0.795252 1.57385 0
M  V30 19 H 1.12951 1.90817 0.60623 0
M  V30 20 H -0.0991134 -1.65226 0.325854 0
M  V30 21 H -2.27033 -3.11102 -1.21693 0
M  V30 22 H -3.03546 -2.93903 0.391062 0
M  V30 23 H -3.99357 -0.497355 -0.980863 0
M  V30 24 H -3.33856 1.8255 -0.909333 0
M  V30 25 H -1.71291 3.47219 -0.632484 0
M  V30 26 H -0.842018 3.10302 0.873692 0
M  V30 27 H 0.0464072 2.99405 -0.744114 0
M  V30 END ATOM
M  V30 BEGIN BOND
M  V30 1 1 1 2
M  V30 2 1 2 3
M  V30 3 1 3 4
M  V30 4 1 4 5
M  V30 5 2 5 6
M  V30 6 1 6 7
M  V30 7 1 7 8
M  V30 8 2 7 9
M  V30 9 1 9 10
M  V30 10 2 10 11
M  V30 11 1 11 12
M  V30 12 1 11 5
M  V30 13 1 1 13
M  V30 14 1 1 14
M  V30 15 1 2 15
M  V30 16 1 2 16
M  V30 17 1 3 17
M  V30 18 1 3 18
M  V30 19 1 4 19
M  V30 20 1 6 20
M  V30 21 1 8 21
M  V30 22 1 8 22
M  V30 23 1 9 23
M  V30 24 1 10 24
M  V30 25 1 12 25
M  V30 26 1 12 26
M  V30 27 1 12 27
M  V30 END BOND
M  V30 END CTAB
M  END
