
     RDKit          3D

  0  0  0  0  0  0  0  0  0  0999 V3000
M  V30 BEGIN CTAB
M  V30 COUNTS 26 27 0 0 0
M  V30 BEGIN ATOM
M  V30 1 N 4.75712 0.523522 0.25605 0
M  V30 2 C 3.35064 0.330035 0.138675 0
M  V30 3 C 2.87597 -0.966436 -0.0182269 0
M  V30 4 C 1.51124 -1.12849 -0.12953 0
M  V30 5 C 0.632156 -0.0488423 -0.0882782 0
M  V30 6 C 1.11693 1.22611 0.0676368 0
M  V30 7 C 2.48436 1.41593 0.18149 0
M  V30 8 C -0.81683 -0.260691 -0.215326 0
M  V30 9 C -1.25955 -1.31617 -1.01067 0
M  V30 10 C -2.60104 -1.58168 -1.17509 0
M  V30 11 C -3.51513 -0.777566 -0.532989 0
M  V30 12 C -3.09733 0.269871 0.256932 0
M  V30 13 N -4.05564 1.11048 0.932359 0
M  V30 14 C -1.74067 0.526576 0.414193 0
M  V30 15 H 5.43737 -0.145101 -0.197123 0
M  V30 16 H 5.07533 1.35106 0.806206 0
M  V30 17 H 3.59455 -1.77277 -0.0455093 0
M  V30 18 H 1.11471 -2.12328 -0.25126 0
M  V30 19 H 0.448031 2.05588 0.100535 0
M  V30 20 H 2.89811 2.41447 0.305969 0
M  V30 21 H -0.504991 -1.92413 -1.49924 0
M  V30 22 H -2.92122 -2.41165 -1.80131 0
M  V30 23 H -4.57659 -0.947204 -0.631673 0
M  V30 24 H -3.88864 1.36803 1.9263 0
M  V30 25 H -4.91068 1.45973 0.436368 0
M  V30 26 H -1.40822 1.35233 1.03565 0
M  V30 END ATOM
M  V30 BEGIN BOND
M  V30 1 1 1 2
M  V30 2 2 2 3
M  V30 3 1 3 4
M  V30 4 2 4 5
M  V30 5 1 5 6
M  V30 6 2 6 7
M  V30 7 1 5 8
M  V30 8 2 8 9
M  V30 9 1 9 10
M  V30 10 2 10 11
M  V30 11 1 11 12
M  V30 12 1 12 13
M  V30 13 2 12 14
M  V30 14 1 7 2
M  V30 15 1 14 8
M  V30 16 1 1 15
M  V30 17 1 1 16
M  V30 18 1 3 17
M  V30 19 1 4 18
M  V30 20 1 6 19
M  V30 21 1 7 20
M  V30 22 1 9 21
M  V30 23 1 10 22
M  V30 24 1 11 23
M  V30 25 1 13 24
M  V30 26 1 13 25
M  V30 27 1 14 26
M  V30 END BOND
M  V30 END CTAB
M  END
