
     RDKit          3D

  0  0  0  0  0  0  0  0  0  0999 V3000
M  V30 BEGIN CTAB
M  V30 COUNTS 33 36 0 0 0
M  V30 BEGIN ATOM
M  V30 1 N -5.62419 -1.86946 -0.0558303 0
M  V30 2 C -4.58824 -0.916345 -0.0260829 0
M  V30 3 N -4.90608 0.402766 -0.0466751 0
M  V30 4 C -3.93923 1.3407 -0.0192285 0
M  V30 5 N -4.27263 2.72339 -0.0408373 0
M  V30 6 N -2.62578 0.989237 0.0296082 0
M  V30 7 C -2.29837 -0.3102 0.0503962 0
M  V30 8 N -3.28881 -1.21888 0.0219115 0
M  V30 9 C -0.883994 -0.742232 0.10344 0
M  V30 10 C -0.589801 -2.08937 0.123229 0
M  V30 11 C 0.722614 -2.511 0.172647 0
M  V30 12 C 1.74432 -1.57502 0.202326 0
M  V30 13 C 1.47681 -0.219122 0.183425 0
M  V30 14 C 0.142105 0.153931 0.133556 0
M  V30 15 C 2.71969 0.547217 0.222143 0
M  V30 16 C 2.99766 1.8958 0.222647 0
M  V30 17 C 4.28837 2.36957 0.265107 0
M  V30 18 C 5.37708 1.49697 0.309743 0
M  V30 19 C 5.0774 0.151868 0.308449 0
M  V30 20 C 3.7925 -0.347916 0.266373 0
M  V30 21 C 3.20075 -1.68105 0.254667 0
M  V30 22 O 3.82546 -2.7713 0.284375 0
M  V30 23 H -5.81552 -2.44596 0.773526 0
M  V30 24 H -6.18508 -1.98337 -0.910235 0
M  V30 25 H -3.57264 3.44853 -0.281675 0
M  V30 26 H -5.26829 2.99553 0.198892 0
M  V30 27 H -1.40876 -2.80519 0.0991995 0
M  V30 28 H 0.981424 -3.58094 0.189259 0
M  V30 29 H -0.0998113 1.21483 0.117599 0
M  V30 30 H 2.19608 2.61549 0.189246 0
M  V30 31 H 4.54098 3.42276 0.266761 0
M  V30 32 H 6.39623 1.87222 0.343261 0
M  V30 33 H 5.88775 -0.573469 0.34221 0
M  V30 END ATOM
M  V30 BEGIN BOND
M  V30 1 1 1 2
M  V30 2 2 2 3
M  V30 3 1 3 4
M  V30 4 1 4 5
M  V30 5 2 4 6
M  V30 6 1 6 7
M  V30 7 2 7 8
M  V30 8 1 7 9
M  V30 9 2 9 10
M  V30 10 1 10 11
M  V30 11 2 11 12
M  V30 12 1 12 13
M  V30 13 2 13 14
M  V30 14 1 13 15
M  V30 15 2 15 16
M  V30 16 1 16 17
M  V30 17 2 17 18
M  V30 18 1 18 19
M  V30 19 2 19 20
M  V30 20 1 20 21
M  V30 21 2 21 22
M  V30 22 1 8 2
M  V30 23 1 14 9
M  V30 24 1 20 15
M  V30 25 1 21 12
M  V30 26 1 1 23
M  V30 27 1 1 24
M  V30 28 1 5 25
M  V30 29 1 5 26
M  V30 30 1 10 27
M  V30 31 1 11 28
M  V30 32 1 14 29
M  V30 33 1 16 30
M  V30 34 1 17 31
M  V30 35 1 18 32
M  V30 36 1 19 33
M  V30 END BOND
M  V30 END CTAB
M  END
