
     RDKit          3D

  0  0  0  0  0  0  0  0  0  0999 V3000
M  V30 BEGIN CTAB
M  V30 COUNTS 27 27 0 0 0
M  V30 BEGIN ATOM
M  V30 1 N -1.63545 0.976098 -1.96816 0
M  V30 2 C -0.727681 0.697878 -0.900314 0
M  V30 3 C -1.42438 -0.0826682 0.175129 0
M  V30 4 C -1.97804 -1.38762 -0.262624 0
M  V30 5 C -2.55244 0.760315 0.73908 0
M  V30 6 C 0.553482 0.141228 -1.38852 0
M  V30 7 C 1.53502 -0.15934 -0.295038 0
M  V30 8 N 1.62816 -1.34058 0.33726 0
M  V30 9 N 2.5977 -1.24005 1.23902 0
M  V30 10 C 3.11954 -0.0111378 1.18593 0
M  V30 11 N 2.45664 0.652097 0.233953 0
M  V30 12 N 4.18726 0.446628 2.01987 0
M  V30 13 H -1.45629 0.425584 -2.83548 0
M  V30 14 H -1.76795 1.97834 -2.1631 0
M  V30 15 H -0.485722 1.70066 -0.43291 0
M  V30 16 H -0.740705 -0.276942 1.05136 0
M  V30 17 H -2.97392 -1.53624 0.203755 0
M  V30 18 H -2.13725 -1.47696 -1.35285 0
M  V30 19 H -1.35912 -2.23419 0.138556 0
M  V30 20 H -3.08409 0.163859 1.51727 0
M  V30 21 H -3.29427 0.973052 -0.0694423 0
M  V30 22 H -2.14274 1.689 1.17873 0
M  V30 23 H 0.466856 -0.781642 -1.98069 0
M  V30 24 H 1.04361 0.892642 -2.03902 0
M  V30 25 H 1.03068 -2.19472 0.141903 0
M  V30 26 H 4.04018 0.443698 3.04334 0
M  V30 27 H 5.1009 0.781016 1.64855 0
M  V30 END ATOM
M  V30 BEGIN BOND
M  V30 1 1 1 2
M  V30 2 1 2 3
M  V30 3 1 3 4
M  V30 4 1 3 5
M  V30 5 1 2 6
M  V30 6 1 6 7
M  V30 7 1 7 8
M  V30 8 1 8 9
M  V30 9 2 9 10
M  V30 10 1 10 11
M  V30 11 1 10 12
M  V30 12 2 11 7
M  V30 13 1 1 13
M  V30 14 1 1 14
M  V30 15 1 2 15
M  V30 16 1 3 16
M  V30 17 1 4 17
M  V30 18 1 4 18
M  V30 19 1 4 19
M  V30 20 1 5 20
M  V30 21 1 5 21
M  V30 22 1 5 22
M  V30 23 1 6 23
M  V30 24 1 6 24
M  V30 25 1 8 25
M  V30 26 1 12 26
M  V30 27 1 12 27
M  V30 END BOND
M  V30 END CTAB
M  END
