
     RDKit          3D

  0  0  0  0  0  0  0  0  0  0999 V3000
M  V30 BEGIN CTAB
M  V30 COUNTS 32 34 0 0 0
M  V30 BEGIN ATOM
M  V30 1 N 5.66276 -1.90906 0.698813 0
M  V30 2 C 4.59304 -0.980143 0.550054 0
M  V30 3 N 3.39147 -1.35982 0.2751 0
M  V30 4 C 2.38442 -0.345994 0.145616 0
M  V30 5 S 2.4546 1.35188 0.288645 0
M  V30 6 C 0.806299 1.70711 -0.0221351 0
M  V30 7 C 0.294689 0.451717 -0.222075 0
M  V30 8 N 1.10796 -0.552195 -0.131522 0
M  V30 9 C -1.15054 0.280038 -0.5312 0
M  V30 10 C -1.73162 0.266492 -1.78205 0
M  V30 11 C -1.00069 0.4246 -3.07308 0
M  V30 12 N -3.05227 0.087266 -1.61066 0
M  V30 13 C -3.33318 -0.013943 -0.293139 0
M  V30 14 C -2.15115 0.104709 0.401523 0
M  V30 15 C -2.09986 0.0428568 1.7921 0
M  V30 16 C -3.26212 -0.142908 2.51213 0
M  V30 17 C -4.44394 -0.261181 1.81036 0
M  V30 18 C -4.48748 -0.198956 0.432514 0
M  V30 19 N 4.92244 0.383846 0.720936 0
M  V30 20 H 6.43249 -1.73887 1.37329 0
M  V30 21 H 5.62908 -2.77026 0.0916223 0
M  V30 22 H 0.267509 2.6711 -0.0594796 0
M  V30 23 H -1.47391 1.22677 -3.69445 0
M  V30 24 H 0.0293216 0.762791 -2.87501 0
M  V30 25 H -0.915915 -0.536946 -3.62148 0
M  V30 26 H -3.75826 0.0325052 -2.35261 0
M  V30 27 H -1.14614 0.142507 2.27309 0
M  V30 28 H -3.25755 -0.196208 3.60644 0
M  V30 29 H -5.37872 -0.409784 2.37291 0
M  V30 30 H -5.42179 -0.29215 -0.128459 0
M  V30 31 H 5.14471 0.959365 -0.110077 0
M  V30 32 H 4.94434 0.812879 1.66061 0
M  V30 END ATOM
M  V30 BEGIN BOND
M  V30 1 1 1 2
M  V30 2 2 2 3 CFG=2
M  V30 3 1 3 4
M  V30 4 1 4 5
M  V30 5 1 5 6
M  V30 6 2 6 7
M  V30 7 1 7 8
M  V30 8 1 7 9
M  V30 9 2 9 10
M  V30 10 1 10 11
M  V30 11 1 10 12
M  V30 12 1 12 13
M  V30 13 2 13 14
M  V30 14 1 14 15
M  V30 15 2 15 16
M  V30 16 1 16 17
M  V30 17 2 17 18
M  V30 18 1 2 19
M  V30 19 2 8 4
M  V30 20 1 14 9
M  V30 21 1 18 13
M  V30 22 1 1 20
M  V30 23 1 1 21
M  V30 24 1 6 22
M  V30 25 1 11 23
M  V30 26 1 11 24
M  V30 27 1 11 25
M  V30 28 1 12 26
M  V30 29 1 15 27
M  V30 30 1 16 28
M  V30 31 1 17 29
M  V30 32 1 18 30
M  V30 33 1 19 31
M  V30 34 1 19 32
M  V30 END BOND
M  V30 END CTAB
M  END
