
     RDKit          3D

  0  0  0  0  0  0  0  0  0  0999 V3000
M  V30 BEGIN CTAB
M  V30 COUNTS 55 58 0 0 0
M  V30 BEGIN ATOM
M  V30 1 C -4.42897 1.8145 2.9144 0
M  V30 2 O -3.55612 1.43638 1.87476 0
M  V30 3 C -2.20975 1.27495 2.07487 0
M  V30 4 O -1.7234 1.46349 3.20519 0
M  V30 5 C -1.38068 0.877307 0.917873 0
M  V30 6 C -0.0867715 0.727696 1.12622 0
M  V30 7 N 0.428194 0.955575 2.44046 0
M  V30 8 N 0.847317 0.35496 0.131362 0
M  V30 9 C 0.285681 0.142042 -1.1591 0
M  V30 10 C -0.99463 0.277853 -1.40856 0
M  V30 11 C -1.97119 0.655507 -0.406519 0
M  V30 12 C -3.1476 -0.24249 -0.361318 0
M  V30 13 C -3.1022 -1.52372 0.120879 0
M  V30 14 C -4.2353 -2.30405 0.123783 0
M  V30 15 C -5.42802 -1.81646 -0.354327 0
M  V30 16 C -5.50378 -0.530647 -0.845852 0
M  V30 17 C -4.3507 0.223481 -0.834017 0
M  V30 18 Cl -6.89043 -2.81419 -0.354424 0
M  V30 19 C -1.43378 0.0283638 -2.80042 0
M  V30 20 O -2.4183 0.670595 -3.28024 0
M  V30 21 C -0.715513 -0.962001 -3.59664 0
M  V30 22 C 0.671091 -1.26921 -3.16367 0
M  V30 23 C 1.25995 -0.247005 -2.23018 0
M  V30 24 C 2.21842 0.217626 0.454708 0
M  V30 25 C 2.79979 -0.934124 0.888978 0
M  V30 26 C 4.14902 -0.938884 1.16755 0
M  V30 27 C 4.93913 0.203939 1.01756 0
M  V30 28 C 4.35004 1.36523 0.579092 0
M  V30 29 C 3.0121 1.35206 0.307817 0
M  V30 30 S 6.64135 0.204233 1.36871 0
M  V30 31 O 6.97921 -0.742925 2.48759 0
M  V30 32 O 7.04216 1.6112 1.71368 0
M  V30 33 N 7.51911 -0.22223 -0.0735299 0
M  V30 34 H -3.78557 2.26114 3.71872 0
M  V30 35 H -5.1721 2.5616 2.55359 0
M  V30 36 H -4.93394 0.920325 3.35043 0
M  V30 37 H 0.706803 1.91548 2.73403 0
M  V30 38 H 0.533761 0.178423 3.1199 0
M  V30 39 H -2.36147 1.67667 -0.726817 0
M  V30 40 H -2.16506 -1.88723 0.489734 0
M  V30 41 H -4.22323 -3.31175 0.497235 0
M  V30 42 H -6.44942 -0.159883 -1.21928 0
M  V30 43 H -4.45679 1.24385 -1.23561 0
M  V30 44 H -0.78266 -0.65732 -4.66168 0
M  V30 45 H -1.30343 -1.92542 -3.54239 0
M  V30 46 H 1.32413 -1.32914 -4.0578 0
M  V30 47 H 0.751743 -2.27792 -2.6656 0
M  V30 48 H 2.14318 -0.732806 -1.76801 0
M  V30 49 H 1.58053 0.674792 -2.71665 0
M  V30 50 H 2.20383 -1.81053 1.00656 0
M  V30 51 H 4.66364 -1.82875 1.51649 0
M  V30 52 H 4.91943 2.28231 0.445356 0
M  V30 53 H 2.56864 2.2929 -0.0408492 0
M  V30 54 H 6.87728 -0.152421 -0.879236 0
M  V30 55 H 7.7953 -1.24337 0.0351824 0
M  V30 END ATOM
M  V30 BEGIN BOND
M  V30 1 1 1 2
M  V30 2 1 2 3
M  V30 3 2 3 4
M  V30 4 1 3 5
M  V30 5 2 5 6
M  V30 6 1 6 7
M  V30 7 1 6 8
M  V30 8 1 8 9
M  V30 9 2 9 10
M  V30 10 1 10 11
M  V30 11 1 11 12
M  V30 12 2 12 13
M  V30 13 1 13 14
M  V30 14 2 14 15
M  V30 15 1 15 16
M  V30 16 2 16 17
M  V30 17 1 15 18
M  V30 18 1 10 19
M  V30 19 2 19 20
M  V30 20 1 19 21
M  V30 21 1 21 22
M  V30 22 1 22 23
M  V30 23 1 8 24
M  V30 24 2 24 25
M  V30 25 1 25 26
M  V30 26 2 26 27
M  V30 27 1 27 28
M  V30 28 2 28 29
M  V30 29 1 27 30
M  V30 30 2 30 31
M  V30 31 2 30 32
M  V30 32 1 30 33
M  V30 33 1 11 5
M  V30 34 1 17 12
M  V30 35 1 29 24
M  V30 36 1 23 9
M  V30 37 1 1 34
M  V30 38 1 1 35
M  V30 39 1 1 36
M  V30 40 1 7 37
M  V30 41 1 7 38
M  V30 42 1 11 39
M  V30 43 1 13 40
M  V30 44 1 14 41
M  V30 45 1 16 42
M  V30 46 1 17 43
M  V30 47 1 21 44
M  V30 48 1 21 45
M  V30 49 1 22 46
M  V30 50 1 22 47
M  V30 51 1 23 48
M  V30 52 1 23 49
M  V30 53 1 25 50
M  V30 54 1 26 51
M  V30 55 1 28 52
M  V30 56 1 29 53
M  V30 57 1 33 54
M  V30 58 1 33 55
M  V30 END BOND
M  V30 END CTAB
M  END
