
     RDKit          3D

  0  0  0  0  0  0  0  0  0  0999 V3000
M  V30 BEGIN CTAB
M  V30 COUNTS 42 43 0 0 0
M  V30 BEGIN ATOM
M  V30 1 N -2.77675 2.48191 -0.639253 0
M  V30 2 C -3.56362 1.50603 0.0610968 0
M  V30 3 C -2.75914 0.598297 0.946917 0
M  V30 4 C -3.6498 -0.394264 1.63885 0
M  V30 5 C -3.11311 -1.79674 1.70317 0
M  V30 6 C -2.70106 -2.35726 0.35592 0
M  V30 7 C -2.27608 -1.22557 -0.567618 0
M  V30 8 N -1.72951 -0.137432 0.168489 0
M  V30 9 C -0.403616 0.309827 0.202546 0
M  V30 10 O -0.194817 1.41707 0.885292 0
M  V30 11 C 0.798753 -0.234957 -0.38986 0
M  V30 12 C 0.948449 -1.49732 -0.894108 0
M  V30 13 C 2.13668 -1.88441 -1.51251 0
M  V30 14 C 3.21402 -1.05396 -1.65579 0
M  V30 15 C 3.08534 0.216186 -1.15466 0
M  V30 16 C 1.9236 0.606046 -0.547198 0
M  V30 17 C 4.19732 1.17291 -1.26587 0
M  V30 18 S 5.29469 1.10959 0.118445 0
M  V30 19 O 6.34421 2.168 -0.0763741 0
M  V30 20 O 5.98079 -0.194087 0.266207 0
M  V30 21 N 4.47138 1.47235 1.59019 0
M  V30 22 H -2.34065 3.14186 0.034561 0
M  V30 23 H -2.03814 2.07378 -1.22875 0
M  V30 24 H -4.17283 0.916672 -0.672387 0
M  V30 25 H -4.24834 2.08442 0.736148 0
M  V30 26 H -2.19872 1.2118 1.66937 0
M  V30 27 H -4.68494 -0.356662 1.24287 0
M  V30 28 H -3.74078 -0.058244 2.70959 0
M  V30 29 H -2.28667 -1.9016 2.43216 0
M  V30 30 H -3.94207 -2.43907 2.06617 0
M  V30 31 H -3.49446 -2.99618 -0.071898 0
M  V30 32 H -1.80793 -2.98647 0.522444 0
M  V30 33 H -1.68559 -1.48917 -1.42695 0
M  V30 34 H -3.29043 -0.850883 -0.966958 0
M  V30 35 H 0.168988 -2.23226 -0.786026 0
M  V30 36 H 2.20233 -2.89349 -1.89562 0
M  V30 37 H 4.11767 -1.39804 -2.14442 0
M  V30 38 H 1.82302 1.61602 -0.152392 0
M  V30 39 H 3.76814 2.19494 -1.30649 0
M  V30 40 H 4.80479 1.05187 -2.17765 0
M  V30 41 H 3.90238 0.672139 1.92928 0
M  V30 42 H 3.9165 2.35632 1.51672 0
M  V30 END ATOM
M  V30 BEGIN BOND
M  V30 1 1 1 2
M  V30 2 1 2 3
M  V30 3 1 3 4
M  V30 4 1 4 5
M  V30 5 1 5 6
M  V30 6 1 6 7
M  V30 7 1 7 8
M  V30 8 1 8 9
M  V30 9 2 9 10
M  V30 10 1 9 11
M  V30 11 2 11 12
M  V30 12 1 12 13
M  V30 13 2 13 14
M  V30 14 1 14 15
M  V30 15 2 15 16
M  V30 16 1 15 17
M  V30 17 1 17 18
M  V30 18 2 18 19
M  V30 19 2 18 20
M  V30 20 1 18 21
M  V30 21 1 8 3
M  V30 22 1 16 11
M  V30 23 1 1 22
M  V30 24 1 1 23
M  V30 25 1 2 24
M  V30 26 1 2 25
M  V30 27 1 3 26
M  V30 28 1 4 27
M  V30 29 1 4 28
M  V30 30 1 5 29
M  V30 31 1 5 30
M  V30 32 1 6 31
M  V30 33 1 6 32
M  V30 34 1 7 33
M  V30 35 1 7 34
M  V30 36 1 12 35
M  V30 37 1 13 36
M  V30 38 1 14 37
M  V30 39 1 16 38
M  V30 40 1 17 39
M  V30 41 1 17 40
M  V30 42 1 21 41
M  V30 43 1 21 42
M  V30 END BOND
M  V30 END CTAB
M  END
