
     RDKit          3D

  0  0  0  0  0  0  0  0  0  0999 V3000
M  V30 BEGIN CTAB
M  V30 COUNTS 27 26 0 0 0
M  V30 BEGIN ATOM
M  V30 1 C 0.38858 -2.09557 0.14607 0
M  V30 2 C 0.0273916 -0.737774 0.713437 0
M  V30 3 C -1.19585 -0.258465 0.00711007 0
M  V30 4 C -1.79055 0.999057 0.599154 0
M  V30 5 C -3.01534 1.3442 -0.231767 0
M  V30 6 O -2.14344 -1.30545 0.0837263 0
M  V30 7 N 1.12447 0.174191 0.752538 0
M  V30 8 C 1.87425 0.593121 -0.37912 0
M  V30 9 N 3.15377 0.444331 -0.460861 0
M  V30 10 N 3.9399 -0.127317 0.517233 0
M  V30 11 N 1.21894 1.1988 -1.47095 0
M  V30 12 H -0.443853 -2.51665 -0.483185 0
M  V30 13 H 1.27511 -2.05765 -0.515836 0
M  V30 14 H 0.578302 -2.85243 0.934397 0
M  V30 15 H -0.295621 -0.953522 1.77561 0
M  V30 16 H -0.960048 -0.135983 -1.06659 0
M  V30 17 H -1.0538 1.81093 0.457071 0
M  V30 18 H -2.03913 0.906445 1.65249 0
M  V30 19 H -3.00184 0.818102 -1.19519 0
M  V30 20 H -3.9524 1.10824 0.314868 0
M  V30 21 H -3.04579 2.433 -0.459207 0
M  V30 22 H -2.47694 -1.56928 -0.79541 0
M  V30 23 H 1.44778 0.603158 1.67188 0
M  V30 24 H 3.96243 -1.17688 0.575706 0
M  V30 25 H 4.47758 0.495367 1.15637 0
M  V30 26 H 0.656703 2.05199 -1.31856 0
M  V30 27 H 1.2894 0.806023 -2.42339 0
M  V30 END ATOM
M  V30 BEGIN BOND
M  V30 1 1 1 2
M  V30 2 1 2 3
M  V30 3 1 3 4
M  V30 4 1 4 5
M  V30 5 1 3 6
M  V30 6 1 2 7
M  V30 7 1 7 8
M  V30 8 2 8 9 CFG=2
M  V30 9 1 9 10
M  V30 10 1 8 11
M  V30 11 1 1 12
M  V30 12 1 1 13
M  V30 13 1 1 14
M  V30 14 1 2 15
M  V30 15 1 3 16
M  V30 16 1 4 17
M  V30 17 1 4 18
M  V30 18 1 5 19
M  V30 19 1 5 20
M  V30 20 1 5 21
M  V30 21 1 6 22
M  V30 22 1 7 23
M  V30 23 1 10 24
M  V30 24 1 10 25
M  V30 25 1 11 26
M  V30 26 1 11 27
M  V30 END BOND
M  V30 END CTAB
M  END
