
     RDKit          3D

  0  0  0  0  0  0  0  0  0  0999 V3000
M  V30 BEGIN CTAB
M  V30 COUNTS 30 29 0 0 0
M  V30 BEGIN ATOM
M  V30 1 N 3.869 0.215858 0.427346 0
M  V30 2 N 2.49796 0.108077 0.294655 0
M  V30 3 C 1.85861 -0.875285 -0.175821 0
M  V30 4 N 0.442042 -0.815839 -0.238132 0
M  V30 5 C -0.292365 0.382372 0.171527 0
M  V30 6 C -1.76651 0.196344 0.0107491 0
M  V30 7 O -2.38829 1.37947 0.421445 0
M  V30 8 C -2.32398 -0.91317 0.860673 0
M  V30 9 C -2.17636 -0.0448859 -1.42051 0
M  V30 10 C 0.114831 1.56304 -0.704818 0
M  V30 11 C 0.00221374 0.758756 1.59281 0
M  V30 12 N 2.56393 -2.01242 -0.629902 0
M  V30 13 H 4.35886 0.916124 -0.174886 0
M  V30 14 H 4.45365 -0.340084 1.07482 0
M  V30 15 H -0.109718 -1.62619 -0.577991 0
M  V30 16 H -3.18488 1.57912 -0.113565 0
M  V30 17 H -2.59895 -0.553996 1.88682 0
M  V30 18 H -1.58968 -1.72983 0.934203 0
M  V30 19 H -3.28399 -1.22859 0.388733 0
M  V30 20 H -3.03315 -0.771408 -1.44905 0
M  V30 21 H -2.56047 0.871258 -1.91954 0
M  V30 22 H -1.33294 -0.419656 -2.02642 0
M  V30 23 H 0.593142 2.37176 -0.110393 0
M  V30 24 H 0.80112 1.21255 -1.52436 0
M  V30 25 H -0.754122 2.00863 -1.23083 0
M  V30 26 H -0.899316 1.27359 1.99239 0
M  V30 27 H 0.256889 -0.153403 2.17399 0
M  V30 28 H 0.82496 1.52135 1.67939 0
M  V30 29 H 2.8306 -2.09463 -1.62794 0
M  V30 30 H 2.82693 -2.77891 0.0146187 0
M  V30 END ATOM
M  V30 BEGIN BOND
M  V30 1 1 1 2
M  V30 2 2 2 3 CFG=2
M  V30 3 1 3 4
M  V30 4 1 4 5
M  V30 5 1 5 6
M  V30 6 1 6 7
M  V30 7 1 6 8
M  V30 8 1 6 9
M  V30 9 1 5 10
M  V30 10 1 5 11
M  V30 11 1 3 12
M  V30 12 1 1 13
M  V30 13 1 1 14
M  V30 14 1 4 15
M  V30 15 1 7 16
M  V30 16 1 8 17
M  V30 17 1 8 18
M  V30 18 1 8 19
M  V30 19 1 9 20
M  V30 20 1 9 21
M  V30 21 1 9 22
M  V30 22 1 10 23
M  V30 23 1 10 24
M  V30 24 1 10 25
M  V30 25 1 11 26
M  V30 26 1 11 27
M  V30 27 1 11 28
M  V30 28 1 12 29
M  V30 29 1 12 30
M  V30 END BOND
M  V30 END CTAB
M  END
