
     RDKit          3D

  0  0  0  0  0  0  0  0  0  0999 V3000
M  V30 BEGIN CTAB
M  V30 COUNTS 30 30 0 0 0
M  V30 BEGIN ATOM
M  V30 1 N 4.17355 -0.0626031 1.3794 0
M  V30 2 C 3.97112 -0.478521 0.0390524 0
M  V30 3 C 2.995 0.210748 -0.835411 0
M  V30 4 C 1.58184 0.243092 -0.466445 0
M  V30 5 N 0.850938 -0.870049 -0.410581 0
M  V30 6 C -0.472531 -0.949938 -0.24142 0
M  V30 7 N -1.09938 -2.18893 -0.329894 0
M  V30 8 C -1.21018 0.232726 -0.100881 0
M  V30 9 C -0.443305 1.39476 -0.152164 0
M  V30 10 O -1.0828 2.48792 -0.0139008 0
M  V30 11 N 0.882139 1.40921 -0.328492 0
M  V30 12 C -2.64872 0.269347 0.225553 0
M  V30 13 C -3.54199 0.796797 -0.88752 0
M  V30 14 C -3.22124 -0.625991 1.24269 0
M  V30 15 H 5.0584 -0.582656 1.69764 0
M  V30 16 H 4.40318 0.942263 1.38458 0
M  V30 17 H 3.92391 -1.60232 -0.0531213 0
M  V30 18 H 4.99274 -0.287478 -0.474238 0
M  V30 19 H 3.16676 -0.205301 -1.88991 0
M  V30 20 H 3.3792 1.26768 -0.967439 0
M  V30 21 H -1.61553 -2.76957 0.342797 0
M  V30 22 H -0.994907 -2.66594 -1.3047 0
M  V30 23 H 1.43242 2.30793 -0.35405 0
M  V30 24 H -2.66614 1.32706 0.895401 0
M  V30 25 H -4.2636 -0.0152664 -1.24294 0
M  V30 26 H -4.21848 1.60148 -0.574556 0
M  V30 27 H -2.92438 1.13131 -1.73997 0
M  V30 28 H -2.73672 -0.383498 2.2532 0
M  V30 29 H -4.31639 -0.255314 1.37676 0
M  V30 30 H -3.35491 -1.67895 1.05822 0
M  V30 END ATOM
M  V30 BEGIN BOND
M  V30 1 1 1 2
M  V30 2 1 2 3
M  V30 3 1 3 4
M  V30 4 2 4 5
M  V30 5 1 5 6
M  V30 6 1 6 7
M  V30 7 2 6 8
M  V30 8 1 8 9
M  V30 9 2 9 10
M  V30 10 1 9 11
M  V30 11 1 8 12
M  V30 12 1 12 13
M  V30 13 1 12 14
M  V30 14 1 11 4
M  V30 15 1 1 15
M  V30 16 1 1 16
M  V30 17 1 2 17
M  V30 18 1 2 18
M  V30 19 1 3 19
M  V30 20 1 3 20
M  V30 21 1 7 21
M  V30 22 1 7 22
M  V30 23 1 11 23
M  V30 24 1 12 24
M  V30 25 1 13 25
M  V30 26 1 13 26
M  V30 27 1 13 27
M  V30 28 1 14 28
M  V30 29 1 14 29
M  V30 30 1 14 30
M  V30 END BOND
M  V30 END CTAB
M  END
