
     RDKit          3D

  0  0  0  0  0  0  0  0  0  0999 V3000
M  V30 BEGIN CTAB
M  V30 COUNTS 58 61 0 0 0
M  V30 BEGIN ATOM
M  V30 1 N 4.60402 -3.72115 -1.6469 0
M  V30 2 C 5.29777 -2.62562 -1.06055 0
M  V30 3 N 4.81151 -1.37424 -1.19348 0
M  V30 4 C 5.44458 -0.322943 -0.662124 0
M  V30 5 C 4.85561 1.03062 -0.849052 0
M  V30 6 S 3.79067 1.4927 0.488042 0
M  V30 7 C 2.27369 0.605683 0.653844 0
M  V30 8 N 2.23751 -0.549613 1.34118 0
M  V30 9 N 1.07512 -1.04068 1.36258 0
M  V30 10 C 0.258297 -0.162974 0.645935 0
M  V30 11 N 1.00396 0.853612 0.208397 0
M  V30 12 C 0.695225 1.93756 -0.627455 0
M  V30 13 C 0.302298 3.26297 -0.166359 0
M  V30 14 C -0.930179 3.79366 -0.589183 0
M  V30 15 C -1.42262 5.0123 -0.251343 0
M  V30 16 C -0.659218 5.81674 0.578291 0
M  V30 17 C 0.549746 5.32506 1.00523 0
M  V30 18 C 1.03317 4.07872 0.650196 0
M  V30 19 C -1.12409 -0.576171 0.469292 0
M  V30 20 C -2.14186 0.27751 0.264645 0
M  V30 21 C -3.43903 -0.126788 0.00489772 0
M  V30 22 C -3.77225 -1.45938 -0.0560134 0
M  V30 23 C -2.75434 -2.36215 0.151157 0
M  V30 24 C -1.47001 -1.93975 0.406314 0
M  V30 25 C -5.18889 -1.85073 -0.341691 0
M  V30 26 C -6.07122 -1.35486 0.814579 0
M  V30 27 C -5.35183 -3.31849 -0.427479 0
M  V30 28 C -5.70944 -1.18494 -1.60486 0
M  V30 29 N 6.60283 -0.493628 0.0294086 0
M  V30 30 C 7.07773 -1.75283 0.154533 0
M  V30 31 N 6.43009 -2.80663 -0.385059 0
M  V30 32 N 8.29304 -1.94579 0.876687 0
M  V30 33 H 3.68095 -4.00752 -1.26936 0
M  V30 34 H 5.03402 -4.2115 -2.43654 0
M  V30 35 H 5.73829 1.73311 -0.8374 0
M  V30 36 H 4.41497 1.11759 -1.85201 0
M  V30 37 H -0.0872514 1.59382 -1.41286 0
M  V30 38 H 1.57028 2.14922 -1.36013 0
M  V30 39 H -1.57874 3.19329 -1.2547 0
M  V30 40 H -2.36983 5.3979 -0.581085 0
M  V30 41 H -1.03131 6.79738 0.868392 0
M  V30 42 H 1.186 5.92743 1.65323 0
M  V30 43 H 2.01644 3.76837 1.04233 0
M  V30 44 H -1.97395 1.35039 0.343216 0
M  V30 45 H -4.24381 0.605115 -0.155923 0
M  V30 46 H -2.98873 -3.42332 0.102262 0
M  V30 47 H -0.711475 -2.69156 0.562337 0
M  V30 48 H -5.43048 -1.47563 1.726 0
M  V30 49 H -6.17361 -0.251298 0.704514 0
M  V30 50 H -7.01234 -1.90637 0.863729 0
M  V30 51 H -6.46883 -3.5169 -0.358204 0
M  V30 52 H -5.03205 -3.66354 -1.43021 0
M  V30 53 H -4.92313 -3.8693 0.411022 0
M  V30 54 H -6.80281 -1.39277 -1.64649 0
M  V30 55 H -5.23215 -1.63524 -2.50038 0
M  V30 56 H -5.61649 -0.0770853 -1.5553 0
M  V30 57 H 8.21546 -2.06045 1.89839 0
M  V30 58 H 9.21866 -1.9689 0.4245 0
M  V30 END ATOM
M  V30 BEGIN BOND
M  V30 1 1 1 2
M  V30 2 2 2 3
M  V30 3 1 3 4
M  V30 4 1 4 5
M  V30 5 1 5 6
M  V30 6 1 6 7
M  V30 7 2 7 8
M  V30 8 1 8 9
M  V30 9 2 9 10
M  V30 10 1 10 11
M  V30 11 1 11 12
M  V30 12 1 12 13
M  V30 13 2 13 14
M  V30 14 1 14 15
M  V30 15 2 15 16
M  V30 16 1 16 17
M  V30 17 2 17 18
M  V30 18 1 10 19
M  V30 19 2 19 20
M  V30 20 1 20 21
M  V30 21 2 21 22
M  V30 22 1 22 23
M  V30 23 2 23 24
M  V30 24 1 22 25
M  V30 25 1 25 26
M  V30 26 1 25 27
M  V30 27 1 25 28
M  V30 28 2 4 29
M  V30 29 1 29 30
M  V30 30 2 30 31
M  V30 31 1 30 32
M  V30 32 1 31 2
M  V30 33 1 11 7
M  V30 34 1 18 13
M  V30 35 1 24 19
M  V30 36 1 1 33
M  V30 37 1 1 34
M  V30 38 1 5 35
M  V30 39 1 5 36
M  V30 40 1 12 37
M  V30 41 1 12 38
M  V30 42 1 14 39
M  V30 43 1 15 40
M  V30 44 1 16 41
M  V30 45 1 17 42
M  V30 46 1 18 43
M  V30 47 1 20 44
M  V30 48 1 21 45
M  V30 49 1 23 46
M  V30 50 1 24 47
M  V30 51 1 26 48
M  V30 52 1 26 49
M  V30 53 1 26 50
M  V30 54 1 27 51
M  V30 55 1 27 52
M  V30 56 1 27 53
M  V30 57 1 28 54
M  V30 58 1 28 55
M  V30 59 1 28 56
M  V30 60 1 32 57
M  V30 61 1 32 58
M  V30 END BOND
M  V30 END CTAB
M  END
