
     RDKit          3D

  0  0  0  0  0  0  0  0  0  0999 V3000
M  V30 BEGIN CTAB
M  V30 COUNTS 46 48 0 0 0
M  V30 BEGIN ATOM
M  V30 1 N 4.4749 1.09511 1.4569 0
M  V30 2 C 4.44264 0.844121 0.0295897 0
M  V30 3 C 5.04292 -0.495489 -0.240326 0
M  V30 4 C 3.86191 -1.43714 -0.394582 0
M  V30 5 C 2.7368 -0.594839 -0.901722 0
M  V30 6 C 3.05363 0.820616 -0.526911 0
M  V30 7 C 1.46144 -0.959067 -0.196278 0
M  V30 8 O 1.48695 -1.8649 0.674796 0
M  V30 9 N 0.241134 -0.301419 -0.496663 0
M  V30 10 C -0.9605 -0.647576 0.170871 0
M  V30 11 C -1.56435 0.483989 0.963411 0
M  V30 12 C -2.75445 0.0445762 1.73738 0
M  V30 13 C -3.35342 -1.24629 1.40911 0
M  V30 14 C -3.02798 -1.88717 0.122285 0
M  V30 15 C -2.04503 -1.16659 -0.737028 0
M  V30 16 C -2.70961 -0.134467 -1.56416 0
M  V30 17 C -2.97922 1.1652 -0.895596 0
M  V30 18 C -1.89999 1.63415 0.0201219 0
M  V30 19 N -3.16898 2.16507 -1.95765 0
M  V30 20 H 3.51698 1.04335 1.89243 0
M  V30 21 H 4.90886 2.03847 1.67396 0
M  V30 22 H 5.02018 1.61909 -0.534967 0
M  V30 23 H 5.65785 -0.478474 -1.1668 0
M  V30 24 H 5.69129 -0.778424 0.602347 0
M  V30 25 H 3.6305 -1.95538 0.542579 0
M  V30 26 H 4.14503 -2.15625 -1.21323 0
M  V30 27 H 2.55726 -0.740775 -1.98264 0
M  V30 28 H 2.36104 1.23785 0.227315 0
M  V30 29 H 2.93212 1.44521 -1.44268 0
M  V30 30 H 0.232526 0.447023 -1.21982 0
M  V30 31 H -0.753082 -1.46252 0.904179 0
M  V30 32 H -0.7419 0.880608 1.61645 0
M  V30 33 H -3.52118 0.872619 1.64638 0
M  V30 34 H -2.46815 0.0913759 2.83206 0
M  V30 35 H -3.1131 -1.98166 2.23515 0
M  V30 36 H -4.47978 -1.15856 1.47714 0
M  V30 37 H -3.94595 -2.05622 -0.5169 0
M  V30 38 H -2.62254 -2.93457 0.259269 0
M  V30 39 H -1.57555 -1.90997 -1.44227 0
M  V30 40 H -3.69379 -0.548182 -1.91025 0
M  V30 41 H -2.11997 0.0631892 -2.48531 0
M  V30 42 H -3.94342 1.17682 -0.324964 0
M  V30 43 H -2.3085 2.44434 0.658921 0
M  V30 44 H -1.02937 1.92558 -0.568093 0
M  V30 45 H -4.15495 2.40413 -2.1028 0
M  V30 46 H -2.52119 2.95348 -1.8769 0
M  V30 END ATOM
M  V30 BEGIN BOND
M  V30 1 1 1 2
M  V30 2 1 2 3
M  V30 3 1 3 4
M  V30 4 1 4 5
M  V30 5 1 5 6
M  V30 6 1 5 7
M  V30 7 2 7 8
M  V30 8 1 7 9
M  V30 9 1 9 10
M  V30 10 1 10 11
M  V30 11 1 11 12
M  V30 12 1 12 13
M  V30 13 1 13 14
M  V30 14 1 14 15
M  V30 15 1 15 16
M  V30 16 1 16 17
M  V30 17 1 17 18
M  V30 18 1 17 19
M  V30 19 1 6 2
M  V30 20 1 15 10
M  V30 21 1 18 11
M  V30 22 1 1 20
M  V30 23 1 1 21
M  V30 24 1 2 22
M  V30 25 1 3 23
M  V30 26 1 3 24
M  V30 27 1 4 25
M  V30 28 1 4 26
M  V30 29 1 5 27
M  V30 30 1 6 28
M  V30 31 1 6 29
M  V30 32 1 9 30
M  V30 33 1 10 31
M  V30 34 1 11 32
M  V30 35 1 12 33
M  V30 36 1 12 34
M  V30 37 1 13 35
M  V30 38 1 13 36
M  V30 39 1 14 37
M  V30 40 1 14 38
M  V30 41 1 15 39
M  V30 42 1 16 40
M  V30 43 1 16 41
M  V30 44 1 17 42
M  V30 45 1 18 43
M  V30 46 1 18 44
M  V30 47 1 19 45
M  V30 48 1 19 46
M  V30 END BOND
M  V30 END CTAB
M  END
