
     RDKit          3D

  0  0  0  0  0  0  0  0  0  0999 V3000
M  V30 BEGIN CTAB
M  V30 COUNTS 30 30 0 0 0
M  V30 BEGIN ATOM
M  V30 1 C -3.20632 1.51288 0.227154 0
M  V30 2 C -3.49323 0.267328 -0.538396 0
M  V30 3 C -2.53121 -0.458985 -1.0847 0
M  V30 4 C -1.12588 -0.00359664 -0.91984 0
M  V30 5 N -0.376598 -1.01846 -0.237888 0
M  V30 6 C 0.994897 -0.804345 0.0317136 0
M  V30 7 C 1.73951 -1.77574 0.691873 0
M  V30 8 C 3.0739 -1.56044 0.950855 0
M  V30 9 C 3.66702 -0.369504 0.548572 0
M  V30 10 C 2.92073 0.591822 -0.107285 0
M  V30 11 N 1.62194 0.347105 -0.342749 0
M  V30 12 N 3.56067 1.79784 -0.504022 0
M  V30 13 N 5.0337 -0.131677 0.805616 0
M  V30 14 C -4.91253 -0.187132 -0.701462 0
M  V30 15 H -2.55124 1.19284 1.08524 0
M  V30 16 H -4.13071 1.9308 0.665655 0
M  V30 17 H -2.64948 2.25101 -0.397481 0
M  V30 18 H -2.69538 -1.36163 -1.64335 0
M  V30 19 H -1.06748 0.917801 -0.286833 0
M  V30 20 H -0.658428 0.268991 -1.88678 0
M  V30 21 H -0.823695 -1.89471 0.0551836 0
M  V30 22 H 1.21823 -2.68269 0.979415 0
M  V30 23 H 3.62706 -2.33283 1.46525 0
M  V30 24 H 3.15762 2.68588 -0.0988134 0
M  V30 25 H 4.36764 1.84723 -1.14303 0
M  V30 26 H 5.751 -0.646616 0.274124 0
M  V30 27 H 5.30424 0.556591 1.52439 0
M  V30 28 H -4.97619 -1.28607 -0.576161 0
M  V30 29 H -5.29991 0.051235 -1.70604 0
M  V30 30 H -5.53988 0.295081 0.0710733 0
M  V30 END ATOM
M  V30 BEGIN BOND
M  V30 1 1 1 2
M  V30 2 2 2 3 CFG=2
M  V30 3 1 3 4
M  V30 4 1 4 5
M  V30 5 1 5 6
M  V30 6 2 6 7
M  V30 7 1 7 8
M  V30 8 2 8 9
M  V30 9 1 9 10
M  V30 10 2 10 11
M  V30 11 1 10 12
M  V30 12 1 9 13
M  V30 13 1 2 14
M  V30 14 1 11 6
M  V30 15 1 1 15
M  V30 16 1 1 16
M  V30 17 1 1 17
M  V30 18 1 3 18
M  V30 19 1 4 19
M  V30 20 1 4 20
M  V30 21 1 5 21
M  V30 22 1 7 22
M  V30 23 1 8 23
M  V30 24 1 12 24
M  V30 25 1 12 25
M  V30 26 1 13 26
M  V30 27 1 13 27
M  V30 28 1 14 28
M  V30 29 1 14 29
M  V30 30 1 14 30
M  V30 END BOND
M  V30 END CTAB
M  END
