
     RDKit          3D

  0  0  0  0  0  0  0  0  0  0999 V3000
M  V30 BEGIN CTAB
M  V30 COUNTS 26 26 0 0 0
M  V30 BEGIN ATOM
M  V30 1 C -4.66675 -0.673294 1.1862 0
M  V30 2 C -3.69926 -0.000125876 0.932469 0
M  V30 3 C -2.53617 0.823479 0.602502 0
M  V30 4 C -1.55192 0.00885527 -0.255189 0
M  V30 5 O -0.474346 0.800854 -0.549821 0
M  V30 6 C 0.818098 0.526891 -0.189431 0
M  V30 7 C 1.1235 -0.607513 0.519572 0
M  V30 8 C 2.45167 -0.876447 0.882584 0
M  V30 9 N 2.77914 -2.05439 1.62044 0
M  V30 10 N 3.37991 0.0148919 0.506826 0
M  V30 11 C 3.08865 1.1238 -0.185116 0
M  V30 12 N 1.82973 1.38536 -0.533074 0
M  V30 13 N 4.12719 2.05239 -0.565485 0
M  V30 14 C -2.37251 -0.347721 -1.5058 0
M  V30 15 H -5.53191 -1.26152 1.39729 0
M  V30 16 H -2.89919 1.67819 0.0051332 0
M  V30 17 H -2.02437 1.16718 1.52573 0
M  V30 18 H -1.38534 -0.920394 0.312434 0
M  V30 19 H 0.414659 -1.35792 0.847183 0
M  V30 20 H 2.35371 -2.98829 1.43046 0
M  V30 21 H 3.47705 -2.00057 2.39314 0
M  V30 22 H 4.08253 3.0485 -0.287679 0
M  V30 23 H 4.93387 1.72219 -1.12628 0
M  V30 24 H -1.7067 -0.368627 -2.41229 0
M  V30 25 H -3.1412 0.419701 -1.70633 0
M  V30 26 H -2.87006 -1.31547 -1.33729 0
M  V30 END ATOM
M  V30 BEGIN BOND
M  V30 1 3 1 2
M  V30 2 1 2 3
M  V30 3 1 3 4
M  V30 4 1 4 5
M  V30 5 1 5 6
M  V30 6 2 6 7
M  V30 7 1 7 8
M  V30 8 1 8 9
M  V30 9 2 8 10
M  V30 10 1 10 11
M  V30 11 2 11 12
M  V30 12 1 11 13
M  V30 13 1 4 14
M  V30 14 1 12 6
M  V30 15 1 1 15
M  V30 16 1 3 16
M  V30 17 1 3 17
M  V30 18 1 4 18
M  V30 19 1 7 19
M  V30 20 1 9 20
M  V30 21 1 9 21
M  V30 22 1 13 22
M  V30 23 1 13 23
M  V30 24 1 14 24
M  V30 25 1 14 25
M  V30 26 1 14 26
M  V30 END BOND
M  V30 END CTAB
M  END
