
     RDKit          3D

  0  0  0  0  0  0  0  0  0  0999 V3000
M  V30 BEGIN CTAB
M  V30 COUNTS 38 39 0 0 0
M  V30 BEGIN ATOM
M  V30 1 N -5.6424 -0.479027 -1.01107 0
M  V30 2 C -4.83047 -0.0211329 0.0375363 0 CFG=1
M  V30 3 C -4.13468 -1.16787 0.785995 0
M  V30 4 C -3.10263 -0.380071 1.56347 0
M  V30 5 N -2.59942 0.553655 0.585666 0
M  V30 6 C -3.57206 0.716653 -0.445232 0
M  V30 7 C -1.32574 0.00633756 0.0960894 0
M  V30 8 C -0.705937 0.916881 -0.929457 0
M  V30 9 O 0.47651 0.431408 -1.39621 0
M  V30 10 C 1.69627 0.17962 -0.845497 0
M  V30 11 C 2.05576 0.415023 0.461158 0
M  V30 12 C 3.32667 0.114842 0.914686 0
M  V30 13 C 4.26992 -0.427226 0.0728059 0
M  V30 14 C 3.89924 -0.659551 -1.24032 0
M  V30 15 C 2.64947 -0.372692 -1.71514 0
M  V30 16 S 5.88502 -0.833607 0.556866 0
M  V30 17 O 5.92321 -1.29892 2.00222 0
M  V30 18 O 6.36424 -1.98514 -0.314787 0
M  V30 19 N 6.98396 0.454383 0.35049 0
M  V30 20 H -6.26661 0.261549 -1.34542 0
M  V30 21 H -6.18772 -1.29122 -0.745731 0
M  V30 22 H -5.34573 0.563483 0.821629 0
M  V30 23 H -4.84691 -1.70535 1.43399 0
M  V30 24 H -3.60497 -1.79878 0.0680012 0
M  V30 25 H -3.64304 0.144491 2.38431 0
M  V30 26 H -2.29702 -1.03555 1.95092 0
M  V30 27 H -3.77381 1.76251 -0.683982 0
M  V30 28 H -3.26892 0.162024 -1.37326 0
M  V30 29 H -0.646924 -0.126353 0.939083 0
M  V30 30 H -1.49315 -1.01908 -0.324279 0
M  V30 31 H -1.45258 0.979589 -1.77708 0
M  V30 32 H -0.628913 1.93897 -0.45782 0
M  V30 33 H 1.34953 0.866172 1.17025 0
M  V30 34 H 3.61865 0.29646 1.94368 0
M  V30 35 H 4.6252 -1.0868 -1.92711 0
M  V30 36 H 2.37633 -0.563034 -2.7536 0
M  V30 37 H 7.40772 0.710082 1.24992 0
M  V30 38 H 6.46194 1.24756 -0.102776 0
M  V30 END ATOM
M  V30 BEGIN BOND
M  V30 1 1 1 2
M  V30 2 1 2 3
M  V30 3 1 3 4
M  V30 4 1 4 5
M  V30 5 1 5 6
M  V30 6 1 5 7
M  V30 7 1 7 8
M  V30 8 1 8 9
M  V30 9 1 9 10
M  V30 10 2 10 11
M  V30 11 1 11 12
M  V30 12 2 12 13
M  V30 13 1 13 14
M  V30 14 2 14 15
M  V30 15 1 13 16
M  V30 16 2 16 17
M  V30 17 2 16 18
M  V30 18 1 16 19
M  V30 19 1 6 2
M  V30 20 1 15 10
M  V30 21 1 1 20
M  V30 22 1 1 21
M  V30 23 1 2 22 CFG=1
M  V30 24 1 3 23
M  V30 25 1 3 24
M  V30 26 1 4 25
M  V30 27 1 4 26
M  V30 28 1 6 27
M  V30 29 1 6 28
M  V30 30 1 7 29
M  V30 31 1 7 30
M  V30 32 1 8 31
M  V30 33 1 8 32
M  V30 34 1 11 33
M  V30 35 1 12 34
M  V30 36 1 14 35
M  V30 37 1 15 36
M  V30 38 1 19 37
M  V30 39 1 19 38
M  V30 END BOND
M  V30 END CTAB
M  END
