
     RDKit          3D

  0  0  0  0  0  0  0  0  0  0999 V3000
M  V30 BEGIN CTAB
M  V30 COUNTS 17 17 0 0 0
M  V30 BEGIN ATOM
M  V30 1 N -2.4096 0.264433 0.534391 0
M  V30 2 C -0.985411 0.227815 0.455185 0
M  V30 3 C -0.181145 0.735434 1.45299 0
M  V30 4 C 1.19734 0.698821 1.37404 0
M  V30 5 C 1.82727 0.147391 0.282819 0
M  V30 6 C 1.03374 -0.362571 -0.719664 0
M  V30 7 C -0.350368 -0.32871 -0.646126 0
M  V30 8 N -1.17679 -0.849896 -1.67059 0
M  V30 9 Cl 1.78162 -1.08427 -2.14738 0
M  V30 10 O 3.21671 0.0928284 0.168406 0
M  V30 11 H -2.85759 1.14788 0.871658 0
M  V30 12 H -2.97847 -0.54963 0.269168 0
M  V30 13 H -0.667533 1.17198 2.31681 0
M  V30 14 H 1.83305 1.09506 2.15277 0
M  V30 15 H -1.71649 -1.71485 -1.48192 0
M  V30 16 H -1.26096 -0.393792 -2.60754 0
M  V30 17 H 3.69463 -0.297918 -0.605014 0
M  V30 END ATOM
M  V30 BEGIN BOND
M  V30 1 1 1 2
M  V30 2 2 2 3
M  V30 3 1 3 4
M  V30 4 2 4 5
M  V30 5 1 5 6
M  V30 6 2 6 7
M  V30 7 1 7 8
M  V30 8 1 6 9
M  V30 9 1 5 10
M  V30 10 1 7 2
M  V30 11 1 1 11
M  V30 12 1 1 12
M  V30 13 1 3 13
M  V30 14 1 4 14
M  V30 15 1 8 15
M  V30 16 1 8 16
M  V30 17 1 10 17
M  V30 END BOND
M  V30 END CTAB
M  END
