
     RDKit          3D

  0  0  0  0  0  0  0  0  0  0999 V3000
M  V30 BEGIN CTAB
M  V30 COUNTS 22 22 0 0 0
M  V30 BEGIN ATOM
M  V30 1 N -2.0874 -1.95961 -0.35491 0
M  V30 2 C -1.14799 -0.984726 0.279659 0
M  V30 3 C -1.89235 0.318318 0.237528 0
M  V30 4 N -1.21324 1.43213 0.811204 0
M  V30 5 C 0.0758803 -1.06191 -0.566504 0
M  V30 6 C 1.20846 -0.22356 -0.208236 0
M  V30 7 C 1.51293 1.03072 -0.661112 0
M  V30 8 N 2.66346 1.46902 -0.0764725 0
M  V30 9 C 3.04279 0.469235 0.727052 0
M  V30 10 N 2.18433 -0.548083 0.659285 0
M  V30 11 H -1.68747 -2.90917 -0.297483 0
M  V30 12 H -2.07403 -1.68691 -1.36598 0
M  V30 13 H -1.01461 -1.37582 1.30684 0
M  V30 14 H -2.16852 0.475508 -0.829287 0
M  V30 15 H -2.88606 0.247026 0.760596 0
M  V30 16 H -1.39692 2.30844 0.314317 0
M  V30 17 H -1.28515 1.46429 1.83058 0
M  V30 18 H -0.271292 -0.869261 -1.63255 0
M  V30 19 H 0.403763 -2.14988 -0.581658 0
M  V30 20 H 0.976762 1.63823 -1.3668 0
M  V30 21 H 3.11983 2.39612 -0.246649 0
M  V30 22 H 3.93684 0.519893 1.3361 0
M  V30 END ATOM
M  V30 BEGIN BOND
M  V30 1 1 1 2
M  V30 2 1 2 3
M  V30 3 1 3 4
M  V30 4 1 2 5
M  V30 5 1 5 6
M  V30 6 2 6 7
M  V30 7 1 7 8
M  V30 8 1 8 9
M  V30 9 2 9 10
M  V30 10 1 10 6
M  V30 11 1 1 11
M  V30 12 1 1 12
M  V30 13 1 2 13
M  V30 14 1 3 14
M  V30 15 1 3 15
M  V30 16 1 4 16
M  V30 17 1 4 17
M  V30 18 1 5 18
M  V30 19 1 5 19
M  V30 20 1 7 20
M  V30 21 1 8 21
M  V30 22 1 9 22
M  V30 END BOND
M  V30 END CTAB
M  END
