
     RDKit          3D

  0  0  0  0  0  0  0  0  0  0999 V3000
M  V30 BEGIN CTAB
M  V30 COUNTS 38 40 0 0 0
M  V30 BEGIN ATOM
M  V30 1 N -5.38964 1.41012 -0.920301 0
M  V30 2 C -4.20775 0.609573 -0.759458 0 CFG=2
M  V30 3 C -4.60759 -0.848403 -0.702838 0
M  V30 4 C -3.36971 -1.50109 -0.162717 0
M  V30 5 C -2.72298 -0.461461 0.736384 0 CFG=2
M  V30 6 C -3.54374 0.801832 0.579397 0
M  V30 7 N -1.38109 -0.255111 0.243262 0
M  V30 8 C -0.281376 -0.500198 1.09048 0
M  V30 9 O -0.552505 -0.902748 2.28031 0
M  V30 10 C 1.10379 -0.320465 0.681995 0
M  V30 11 C 1.43398 0.106075 -0.577174 0
M  V30 12 C 2.70855 0.296285 -1.02792 0
M  V30 13 C 2.92864 0.77051 -2.44099 0
M  V30 14 C 3.79102 0.0471852 -0.167436 0
M  V30 15 C 3.48577 -0.380608 1.09798 0
M  V30 16 C 2.16422 -0.565957 1.52947 0
M  V30 17 S 5.04559 -0.554832 1.77883 0
M  V30 18 C 5.98592 -0.0720797 0.409431 0
M  V30 19 N 5.05106 0.185217 -0.461605 0
M  V30 20 N 7.41403 0.00382079 0.318951 0
M  V30 21 H -5.23672 2.3401 -1.32333 0
M  V30 22 H -5.92425 1.44351 -0.0325445 0
M  V30 23 H -3.48034 0.812198 -1.55517 0
M  V30 24 H -4.93146 -1.2277 -1.68025 0
M  V30 25 H -5.41615 -0.937118 0.0752589 0
M  V30 26 H -3.5952 -2.39111 0.445211 0
M  V30 27 H -2.70943 -1.82301 -0.981303 0
M  V30 28 H -2.7107 -0.813871 1.80119 0
M  V30 29 H -2.89224 1.71102 0.591203 0
M  V30 30 H -4.23278 0.875306 1.4194 0
M  V30 31 H -1.2991 0.0731404 -0.740473 0
M  V30 32 H 0.62247 0.314849 -1.28895 0
M  V30 33 H 3.80962 0.254 -2.88868 0
M  V30 34 H 3.03316 1.85846 -2.38989 0
M  V30 35 H 2.06092 0.489173 -3.0515 0
M  V30 36 H 2.01162 -0.904918 2.54096 0
M  V30 37 H 7.82734 0.680454 -0.316017 0
M  V30 38 H 8.00705 -0.622164 0.892733 0
M  V30 END ATOM
M  V30 BEGIN BOND
M  V30 1 1 1 2
M  V30 2 1 2 3
M  V30 3 1 3 4
M  V30 4 1 4 5
M  V30 5 1 5 6
M  V30 6 1 5 7
M  V30 7 1 7 8
M  V30 8 2 8 9
M  V30 9 1 8 10
M  V30 10 2 10 11
M  V30 11 1 11 12
M  V30 12 1 12 13
M  V30 13 2 12 14
M  V30 14 1 14 15
M  V30 15 2 15 16
M  V30 16 1 15 17
M  V30 17 1 17 18
M  V30 18 2 18 19
M  V30 19 1 18 20
M  V30 20 1 6 2
M  V30 21 1 16 10
M  V30 22 1 19 14
M  V30 23 1 1 21
M  V30 24 1 1 22
M  V30 25 1 2 23 CFG=3
M  V30 26 1 3 24
M  V30 27 1 3 25
M  V30 28 1 4 26
M  V30 29 1 4 27
M  V30 30 1 5 28 CFG=1
M  V30 31 1 6 29
M  V30 32 1 6 30
M  V30 33 1 7 31
M  V30 34 1 11 32
M  V30 35 1 13 33
M  V30 36 1 13 34
M  V30 37 1 13 35
M  V30 38 1 16 36
M  V30 39 1 20 37
M  V30 40 1 20 38
M  V30 END BOND
M  V30 END CTAB
M  END
