
     RDKit          3D

  0  0  0  0  0  0  0  0  0  0999 V3000
M  V30 BEGIN CTAB
M  V30 COUNTS 32 32 0 0 0
M  V30 BEGIN ATOM
M  V30 1 N 6.4906 1.23908 0.57126 0
M  V30 2 N 5.2337 0.671964 0.493599 0
M  V30 3 C 5.06538 -0.725585 0.569716 0
M  V30 4 O 6.06862 -1.46169 0.722007 0
M  V30 5 C 3.71344 -1.36089 0.467055 0
M  V30 6 O 2.77221 -0.356174 0.304547 0
M  V30 7 C 1.42433 -0.561503 0.105373 0
M  V30 8 C 0.83739 -1.79517 0.0380628 0
M  V30 9 C -0.518269 -1.9412 -0.178457 0
M  V30 10 C -1.353 -0.83233 -0.340013 0
M  V30 11 O -2.7291 -0.979156 -0.572815 0
M  V30 12 C -3.45816 0.183183 -0.718774 0
M  V30 13 C -4.91557 -0.0570633 -1.08346 0
M  V30 14 O -5.19323 -1.30138 -1.15945 0
M  V30 15 N -5.67461 1.01343 -1.27879 0
M  V30 16 N -6.449 2.1052 -1.47807 0
M  V30 17 C -0.725045 0.382112 -0.260511 0
M  V30 18 C 0.609599 0.573769 -0.0493628 0
M  V30 19 H 6.67019 1.6568 1.49308 0
M  V30 20 H 6.63161 1.93791 -0.221043 0
M  V30 21 H 4.40125 1.2961 0.369543 0
M  V30 22 H 3.68721 -2.06944 -0.391421 0
M  V30 23 H 3.5294 -1.98135 1.36671 0
M  V30 24 H 1.49213 -2.65975 0.161412 0
M  V30 25 H -0.934989 -2.91895 -0.228057 0
M  V30 26 H -3.05416 0.827736 -1.48759 0
M  V30 27 H -3.45652 0.721227 0.254226 0
M  V30 28 H -6.7521 0.25211 -1.60077 0
M  V30 29 H -6.28372 2.72414 -2.27482 0
M  V30 30 H -6.71495 2.58883 -0.605381 0
M  V30 31 H -1.37721 1.25765 -0.382737 0
M  V30 32 H 0.962568 1.57039 -0.00715876 0
M  V30 END ATOM
M  V30 BEGIN BOND
M  V30 1 1 1 2
M  V30 2 1 2 3
M  V30 3 2 3 4
M  V30 4 1 3 5
M  V30 5 1 5 6
M  V30 6 1 6 7
M  V30 7 2 7 8
M  V30 8 1 8 9
M  V30 9 2 9 10
M  V30 10 1 10 11
M  V30 11 1 11 12
M  V30 12 1 12 13
M  V30 13 2 13 14
M  V30 14 1 13 15
M  V30 15 1 15 16
M  V30 16 1 10 17
M  V30 17 2 17 18
M  V30 18 1 18 7
M  V30 19 1 1 19
M  V30 20 1 1 20
M  V30 21 1 2 21
M  V30 22 1 5 22
M  V30 23 1 5 23
M  V30 24 1 8 24
M  V30 25 1 9 25
M  V30 26 1 12 26
M  V30 27 1 12 27
M  V30 28 1 15 28
M  V30 29 1 16 29
M  V30 30 1 16 30
M  V30 31 1 17 31
M  V30 32 1 18 32
M  V30 END BOND
M  V30 END CTAB
M  END
