
     RDKit          3D

  0  0  0  0  0  0  0  0  0  0999 V3000
M  V30 BEGIN CTAB
M  V30 COUNTS 20 19 0 0 0
M  V30 BEGIN ATOM
M  V30 1 N 0.355385 -0.0429327 0.664934 0
M  V30 2 C 0.719348 -0.452475 -0.624833 0
M  V30 3 N 1.92223 -0.343498 -1.04901 0
M  V30 4 C 2.91734 0.201509 -0.206128 0
M  V30 5 N 3.8004 -0.565429 0.373219 0
M  V30 6 N 2.93795 1.60633 -0.0055267 0
M  V30 7 S -0.49477 -1.14036 -1.71498 0
M  V30 8 C -2.14122 -1.21733 -0.987546 0
M  V30 9 C -2.7482 0.0977896 -0.735622 0
M  V30 10 C -3.12076 0.517562 0.464984 0
M  V30 11 H 0.276595 -0.741854 1.41748 0
M  V30 12 H 0.167354 0.950407 0.860593 0
M  V30 13 H 3.74882 -1.60536 0.193926 0
M  V30 14 H 2.27507 2.0657 0.648829 0
M  V30 15 H 3.63926 2.17116 -0.533256 0
M  V30 16 H -2.79214 -1.90213 -1.59613 0
M  V30 17 H -2.01558 -1.73546 0.0111737 0
M  V30 18 H -2.89449 0.760158 -1.60254 0
M  V30 19 H -3.56364 1.4918 0.614542 0
M  V30 20 H -2.98894 -0.115606 1.33165 0
M  V30 END ATOM
M  V30 BEGIN BOND
M  V30 1 1 1 2
M  V30 2 2 2 3 CFG=2
M  V30 3 1 3 4
M  V30 4 2 4 5 CFG=2
M  V30 5 1 4 6
M  V30 6 1 2 7
M  V30 7 1 7 8
M  V30 8 1 8 9
M  V30 9 2 9 10 CFG=2
M  V30 10 1 1 11
M  V30 11 1 1 12
M  V30 12 1 5 13
M  V30 13 1 6 14
M  V30 14 1 6 15
M  V30 15 1 8 16
M  V30 16 1 8 17
M  V30 17 1 9 18
M  V30 18 1 10 19
M  V30 19 1 10 20
M  V30 END BOND
M  V30 END CTAB
M  END
