
     RDKit          3D

  0  0  0  0  0  0  0  0  0  0999 V3000
M  V30 BEGIN CTAB
M  V30 COUNTS 32 33 0 0 0
M  V30 BEGIN ATOM
M  V30 1 N -0.211983 -2.08805 1.21093 0
M  V30 2 C 0.517853 -1.11189 0.510693 0
M  V30 3 C 1.89286 -1.20881 0.394256 0
M  V30 4 C 2.60035 -0.235673 -0.301239 0
M  V30 5 C 1.97121 0.84224 -0.890108 0
M  V30 6 C 0.604848 0.924708 -0.765799 0
M  V30 7 C -0.1257 -0.0272843 -0.0804804 0
M  V30 8 N -1.53535 0.0316079 0.0639503 0
M  V30 9 C -2.43154 -1.00456 -0.424168 0
M  V30 10 C -3.74412 -0.312156 -0.753496 0
M  V30 11 O -3.57259 0.975614 -1.20529 0
M  V30 12 C -3.09033 1.85098 -0.24587 0
M  V30 13 C -2.17448 1.16632 0.72791 0
M  V30 14 S 4.33132 -0.377411 -0.435606 0
M  V30 15 O 4.75676 0.289279 -1.71996 0
M  V30 16 O 4.76491 -1.81628 -0.497256 0
M  V30 17 N 5.14954 0.410781 0.868045 0
M  V30 18 H -0.139632 -3.0917 0.968713 0
M  V30 19 H -0.837661 -1.8089 1.98649 0
M  V30 20 H 2.38107 -2.05509 0.857306 0
M  V30 21 H 2.52349 1.59407 -1.42817 0
M  V30 22 H 0.0715252 1.74938 -1.20964 0
M  V30 23 H -2.63972 -1.7368 0.369611 0
M  V30 24 H -2.0295 -1.42044 -1.34999 0
M  V30 25 H -4.27096 -0.878105 -1.54972 0
M  V30 26 H -4.41127 -0.288434 0.140764 0
M  V30 27 H -3.98615 2.25477 0.294855 0
M  V30 28 H -2.549 2.69249 -0.71413 0
M  V30 29 H -2.73983 0.806543 1.61564 0
M  V30 30 H -1.41433 1.88968 1.05982 0
M  V30 31 H 5.89036 1.05825 0.508135 0
M  V30 32 H 4.44806 0.924877 1.43622 0
M  V30 END ATOM
M  V30 BEGIN BOND
M  V30 1 1 1 2
M  V30 2 2 2 3
M  V30 3 1 3 4
M  V30 4 2 4 5
M  V30 5 1 5 6
M  V30 6 2 6 7
M  V30 7 1 7 8
M  V30 8 1 8 9
M  V30 9 1 9 10
M  V30 10 1 10 11
M  V30 11 1 11 12
M  V30 12 1 12 13
M  V30 13 1 4 14
M  V30 14 2 14 15
M  V30 15 2 14 16
M  V30 16 1 14 17
M  V30 17 1 7 2
M  V30 18 1 13 8
M  V30 19 1 1 18
M  V30 20 1 1 19
M  V30 21 1 3 20
M  V30 22 1 5 21
M  V30 23 1 6 22
M  V30 24 1 9 23
M  V30 25 1 9 24
M  V30 26 1 10 25
M  V30 27 1 10 26
M  V30 28 1 12 27
M  V30 29 1 12 28
M  V30 30 1 13 29
M  V30 31 1 13 30
M  V30 32 1 17 31
M  V30 33 1 17 32
M  V30 END BOND
M  V30 END CTAB
M  END
