
     RDKit          3D

  0  0  0  0  0  0  0  0  0  0999 V3000
M  V30 BEGIN CTAB
M  V30 COUNTS 47 48 0 0 0
M  V30 BEGIN ATOM
M  V30 1 N -6.02812 0.243474 -0.448988 0
M  V30 2 C -5.34186 0.904149 0.654484 0
M  V30 3 C -4.19637 -0.0382536 1.03641 0
M  V30 4 C -4.76123 -1.38553 1.46118 0
M  V30 5 C -3.32133 0.57694 2.09186 0
M  V30 6 C -1.978 0.775483 1.4074 0
M  V30 7 N -1.94413 -0.281289 0.451754 0
M  V30 8 C -3.27771 -0.278761 -0.112324 0
M  V30 9 C -1.03306 -0.113175 -0.628672 0
M  V30 10 C 0.406875 -0.174213 -0.241351 0
M  V30 11 O 0.704028 -0.362855 0.944512 0
M  V30 12 N 1.38772 -0.0166587 -1.22988 0
M  V30 13 C 2.77255 -0.0287336 -1.15035 0
M  V30 14 C 3.4824 -0.19335 0.0221274 0
M  V30 15 C 4.88287 -0.196652 0.0573307 0
M  V30 16 C 5.59665 -0.0309223 -1.11142 0
M  V30 17 C 4.91043 0.13576 -2.29325 0
M  V30 18 C 3.52488 0.136764 -2.31211 0
M  V30 19 C 2.79583 0.316189 -3.58688 0
M  V30 20 S 5.71061 -0.40468 1.59211 0
M  V30 21 O 7.06801 -1.01696 1.31341 0
M  V30 22 O 4.97969 -1.3139 2.51882 0
M  V30 23 N 6.02704 1.14454 2.30982 0
M  V30 24 H -5.62744 0.580144 -1.34508 0
M  V30 25 H -7.03822 0.48113 -0.44553 0
M  V30 26 H -6.00573 0.968854 1.52405 0
M  V30 27 H -4.88615 1.84934 0.333717 0
M  V30 28 H -5.8614 -1.2992 1.49799 0
M  V30 29 H -4.53549 -2.17873 0.723515 0
M  V30 30 H -4.36638 -1.60339 2.47308 0
M  V30 31 H -3.22339 -0.149373 2.91743 0
M  V30 32 H -3.75252 1.54339 2.42514 0
M  V30 33 H -1.2238 0.698612 2.22153 0
M  V30 34 H -2.01724 1.79577 0.969008 0
M  V30 35 H -3.43712 -1.25902 -0.608152 0
M  V30 36 H -3.3189 0.560745 -0.843643 0
M  V30 37 H -1.22931 0.842747 -1.18278 0
M  V30 38 H -1.24247 -0.917354 -1.37683 0
M  V30 39 H 0.969789 0.142102 -2.21453 0
M  V30 40 H 3.01144 -0.328908 0.979502 0
M  V30 41 H 6.68207 -0.0306911 -1.1043 0
M  V30 42 H 5.4661 0.269129 -3.23036 0
M  V30 43 H 3.53075 0.537041 -4.40735 0
M  V30 44 H 2.24996 -0.590749 -3.90776 0
M  V30 45 H 2.13602 1.22856 -3.56477 0
M  V30 46 H 6.12022 1.0144 3.32713 0
M  V30 47 H 5.23145 1.75459 2.09301 0
M  V30 END ATOM
M  V30 BEGIN BOND
M  V30 1 1 1 2
M  V30 2 1 2 3
M  V30 3 1 3 4
M  V30 4 1 3 5
M  V30 5 1 5 6
M  V30 6 1 6 7
M  V30 7 1 7 8
M  V30 8 1 7 9
M  V30 9 1 9 10
M  V30 10 2 10 11
M  V30 11 1 10 12
M  V30 12 1 12 13
M  V30 13 2 13 14
M  V30 14 1 14 15
M  V30 15 2 15 16
M  V30 16 1 16 17
M  V30 17 2 17 18
M  V30 18 1 18 19
M  V30 19 1 15 20
M  V30 20 2 20 21
M  V30 21 2 20 22
M  V30 22 1 20 23
M  V30 23 1 8 3
M  V30 24 1 18 13
M  V30 25 1 1 24
M  V30 26 1 1 25
M  V30 27 1 2 26
M  V30 28 1 2 27
M  V30 29 1 4 28
M  V30 30 1 4 29
M  V30 31 1 4 30
M  V30 32 1 5 31
M  V30 33 1 5 32
M  V30 34 1 6 33
M  V30 35 1 6 34
M  V30 36 1 8 35
M  V30 37 1 8 36
M  V30 38 1 9 37
M  V30 39 1 9 38
M  V30 40 1 12 39
M  V30 41 1 14 40
M  V30 42 1 16 41
M  V30 43 1 17 42
M  V30 44 1 19 43
M  V30 45 1 19 44
M  V30 46 1 19 45
M  V30 47 1 23 46
M  V30 48 1 23 47
M  V30 END BOND
M  V30 END CTAB
M  END
