
     RDKit          3D

  0  0  0  0  0  0  0  0  0  0999 V3000
M  V30 BEGIN CTAB
M  V30 COUNTS 24 25 0 0 0
M  V30 BEGIN ATOM
M  V30 1 N 4.1025 -0.183716 0.992722 0
M  V30 2 N 3.09962 0.775219 0.902853 0
M  V30 3 C 1.77498 0.417873 0.5053 0
M  V30 4 N 1.43331 -0.862556 0.269572 0
M  V30 5 C 0.179331 -1.16641 -0.120854 0
M  V30 6 C -0.191325 -2.48657 -0.362464 0
M  V30 7 C -1.48458 -2.81986 -0.761613 0
M  V30 8 C -2.4072 -1.81818 -0.919686 0
M  V30 9 C -2.08736 -0.499522 -0.692282 0
M  V30 10 C -0.779468 -0.190783 -0.290353 0
M  V30 11 C -0.410433 1.11845 -0.0457952 0
M  V30 12 N -1.39954 2.12377 -0.224347 0
M  V30 13 N -1.6161 3.02758 0.80481 0
M  V30 14 N 0.84062 1.36096 0.338044 0
M  V30 15 H 5.03059 0.228084 0.671275 0
M  V30 16 H 3.84948 -0.944473 0.29976 0
M  V30 17 H 3.31045 1.75538 1.12285 0
M  V30 18 H 0.586231 -3.23603 -0.217701 0
M  V30 19 H -1.72483 -3.8392 -0.936316 0
M  V30 20 H -3.43366 -2.00734 -1.23015 0
M  V30 21 H -2.7814 0.305405 -0.805067 0
M  V30 22 H -1.91058 2.12765 -1.13323 0
M  V30 23 H -2.49771 2.79498 1.29192 0
M  V30 24 H -1.4829 4.01928 0.540744 0
M  V30 END ATOM
M  V30 BEGIN BOND
M  V30 1 1 1 2
M  V30 2 1 2 3
M  V30 3 2 3 4
M  V30 4 1 4 5
M  V30 5 2 5 6
M  V30 6 1 6 7
M  V30 7 2 7 8
M  V30 8 1 8 9
M  V30 9 2 9 10
M  V30 10 1 10 11
M  V30 11 1 11 12
M  V30 12 1 12 13
M  V30 13 2 11 14
M  V30 14 1 14 3
M  V30 15 1 10 5
M  V30 16 1 1 15
M  V30 17 1 1 16
M  V30 18 1 2 17
M  V30 19 1 6 18
M  V30 20 1 7 19
M  V30 21 1 8 20
M  V30 22 1 9 21
M  V30 23 1 12 22
M  V30 24 1 13 23
M  V30 25 1 13 24
M  V30 END BOND
M  V30 END CTAB
M  END
