
     RDKit          3D

  0  0  0  0  0  0  0  0  0  0999 V3000
M  V30 BEGIN CTAB
M  V30 COUNTS 36 37 0 0 0
M  V30 BEGIN ATOM
M  V30 1 C -2.94158 1.246 1.08912 0
M  V30 2 C -1.95694 0.172328 0.704943 0
M  V30 3 C -2.11257 -0.981998 1.63793 0
M  V30 4 O -0.637239 0.611932 0.776822 0
M  V30 5 B 0.0365808 -0.445868 0.0177334 0
M  V30 6 O -0.943357 -0.971096 -0.956813 0
M  V30 7 C -2.07561 -0.217215 -0.745695 0
M  V30 8 C -3.3085 -1.01054 -1.03597 0
M  V30 9 C -1.99954 1.01819 -1.59872 0
M  V30 10 C 1.58549 -0.61773 -0.131938 0
M  V30 11 C 2.14386 -1.77909 -0.577375 0
M  V30 12 C 3.51334 -1.9545 -0.718118 0
M  V30 13 C 4.3561 -0.911688 -0.394991 0
M  V30 14 C 3.82339 0.29131 0.0638025 0
M  V30 15 N 4.69935 1.3592 0.393951 0
M  V30 16 C 2.44056 0.421047 0.189053 0
M  V30 17 N 1.87455 1.63271 0.652858 0
M  V30 18 H -2.88742 1.38142 2.1816 0
M  V30 19 H -2.65503 2.19875 0.610793 0
M  V30 20 H -3.94387 0.893144 0.769187 0
M  V30 21 H -1.4332 -1.81897 1.4284 0
M  V30 22 H -3.17756 -1.28428 1.64746 0
M  V30 23 H -1.86894 -0.624376 2.66242 0
M  V30 24 H -4.22381 -0.465527 -0.727742 0
M  V30 25 H -3.35362 -1.16657 -2.13817 0
M  V30 26 H -3.24636 -2.02267 -0.586307 0
M  V30 27 H -1.25876 1.73555 -1.19479 0
M  V30 28 H -1.60807 0.731731 -2.61301 0
M  V30 29 H -2.96728 1.51081 -1.75918 0
M  V30 30 H 1.47155 -2.59805 -0.830554 0
M  V30 31 H 3.90866 -2.89562 -1.07584 0
M  V30 32 H 5.41324 -1.05404 -0.506089 0
M  V30 33 H 5.07314 1.40182 1.36272 0
M  V30 34 H 4.92803 2.05165 -0.348899 0
M  V30 35 H 1.82217 1.77022 1.69232 0
M  V30 36 H 1.50925 2.39205 0.0590918 0
M  V30 END ATOM
M  V30 BEGIN BOND
M  V30 1 1 1 2
M  V30 2 1 2 3
M  V30 3 1 2 4
M  V30 4 1 4 5
M  V30 5 1 5 6
M  V30 6 1 6 7
M  V30 7 1 7 8
M  V30 8 1 7 9
M  V30 9 1 5 10
M  V30 10 2 10 11
M  V30 11 1 11 12
M  V30 12 2 12 13
M  V30 13 1 13 14
M  V30 14 1 14 15
M  V30 15 2 14 16
M  V30 16 1 16 17
M  V30 17 1 7 2
M  V30 18 1 16 10
M  V30 19 1 1 18
M  V30 20 1 1 19
M  V30 21 1 1 20
M  V30 22 1 3 21
M  V30 23 1 3 22
M  V30 24 1 3 23
M  V30 25 1 8 24
M  V30 26 1 8 25
M  V30 27 1 8 26
M  V30 28 1 9 27
M  V30 29 1 9 28
M  V30 30 1 9 29
M  V30 31 1 11 30
M  V30 32 1 12 31
M  V30 33 1 13 32
M  V30 34 1 15 33
M  V30 35 1 15 34
M  V30 36 1 17 35
M  V30 37 1 17 36
M  V30 END BOND
M  V30 END CTAB
M  END
