
     RDKit          3D

  0  0  0  0  0  0  0  0  0  0999 V3000
M  V30 BEGIN CTAB
M  V30 COUNTS 33 33 0 0 0
M  V30 BEGIN ATOM
M  V30 1 C 4.46501 -0.967509 0.657791 0
M  V30 2 C 3.62101 -0.029395 -0.104222 0
M  V30 3 C 2.18523 -0.0817984 0.0300527 0
M  V30 4 C 1.48743 -0.696062 1.03929 0
M  V30 5 O 2.14047 -1.31738 1.91121 0
M  V30 6 N 0.160198 -0.594928 1.03329 0
M  V30 7 C -0.54533 0.0570798 0.124627 0
M  V30 8 N 0.118376 0.663186 -0.873792 0
M  V30 9 C 1.45263 0.613334 -0.948555 0
M  V30 10 N 2.12879 1.27387 -2.04265 0
M  V30 11 C -1.99997 0.189104 0.224733 0
M  V30 12 C -2.69174 -1.00175 -0.339983 0
M  V30 13 C -4.17818 -0.770039 -0.199548 0
M  V30 14 N -2.51613 1.39134 -0.403612 0
M  V30 15 C -2.32528 0.279162 1.73383 0
M  V30 16 H 4.5042 -0.78356 1.7738 0
M  V30 17 H 5.54077 -0.70834 0.366528 0
M  V30 18 H 4.39175 -2.03065 0.392959 0
M  V30 19 H 3.9602 1.0153 0.166469 0
M  V30 20 H 3.89122 -0.133355 -1.18303 0
M  V30 21 H -0.393116 1.18014 -1.61913 0
M  V30 22 H 2.68239 2.12634 -1.91295 0
M  V30 23 H 2.05645 0.867384 -2.99322 0
M  V30 24 H -2.43503 -1.11998 -1.41279 0
M  V30 25 H -2.47408 -1.91228 0.258303 0
M  V30 26 H -4.37718 -0.0463546 0.642504 0
M  V30 27 H -4.50505 -0.233343 -1.10018 0
M  V30 28 H -4.68875 -1.71633 -0.00554302 0
M  V30 29 H -2.51835 1.31438 -1.4313 0
M  V30 30 H -2.06522 2.25419 -0.0251828 0
M  V30 31 H -1.42235 0.707203 2.22986 0
M  V30 32 H -2.48609 -0.742367 2.10006 0
M  V30 33 H -3.16428 0.953416 1.91039 0
M  V30 END ATOM
M  V30 BEGIN BOND
M  V30 1 1 1 2
M  V30 2 1 2 3
M  V30 3 1 3 4
M  V30 4 2 4 5
M  V30 5 1 4 6
M  V30 6 2 6 7
M  V30 7 1 7 8
M  V30 8 1 8 9
M  V30 9 1 9 10
M  V30 10 1 7 11
M  V30 11 1 11 12
M  V30 12 1 12 13
M  V30 13 1 11 14
M  V30 14 1 11 15
M  V30 15 2 9 3
M  V30 16 1 1 16
M  V30 17 1 1 17
M  V30 18 1 1 18
M  V30 19 1 2 19
M  V30 20 1 2 20
M  V30 21 1 8 21
M  V30 22 1 10 22
M  V30 23 1 10 23
M  V30 24 1 12 24
M  V30 25 1 12 25
M  V30 26 1 13 26
M  V30 27 1 13 27
M  V30 28 1 13 28
M  V30 29 1 14 29
M  V30 30 1 14 30
M  V30 31 1 15 31
M  V30 32 1 15 32
M  V30 33 1 15 33
M  V30 END BOND
M  V30 END CTAB
M  END
