
     RDKit          3D

  0  0  0  0  0  0  0  0  0  0999 V3000
M  V30 BEGIN CTAB
M  V30 COUNTS 21 22 0 0 0
M  V30 BEGIN ATOM
M  V30 1 N 4.76322 -0.129088 -0.338814 0
M  V30 2 C 3.39109 -0.482123 -0.210058 0
M  V30 3 N 2.82668 -1.694 -0.067671 0
M  V30 4 O 1.51824 -1.57221 0.0166748 0
M  V30 5 C 1.19652 -0.307547 -0.066099 0
M  V30 6 N 2.3416 0.381369 -0.206608 0
M  V30 7 C -0.169104 0.23292 -0.0127153 0
M  V30 8 S -0.636135 1.86909 -0.114824 0
M  V30 9 C -2.32318 1.68178 0.022694 0
M  V30 10 C -2.47392 0.330459 0.1458 0
M  V30 11 C -1.3564 -0.423807 0.127634 0
M  V30 12 C -1.35764 -1.93033 0.252877 0
M  V30 13 N -3.33262 2.71081 0.0102255 0
M  V30 14 H 5.51566 -0.666123 0.156263 0
M  V30 15 H 5.08097 0.676979 -0.929438 0
M  V30 16 H -3.50802 -0.071213 0.253967 0
M  V30 17 H -0.73625 -2.37918 -0.558321 0
M  V30 18 H -2.38205 -2.29643 0.24577 0
M  V30 19 H -0.930268 -2.13138 1.26124 0
M  V30 20 H -3.33289 3.48382 0.710977 0
M  V30 21 H -4.0955 2.71619 -0.699576 0
M  V30 END ATOM
M  V30 BEGIN BOND
M  V30 1 1 1 2
M  V30 2 2 2 3
M  V30 3 1 3 4
M  V30 4 1 4 5
M  V30 5 2 5 6
M  V30 6 1 5 7
M  V30 7 1 7 8
M  V30 8 1 8 9
M  V30 9 2 9 10
M  V30 10 1 10 11
M  V30 11 1 11 12
M  V30 12 1 9 13
M  V30 13 1 6 2
M  V30 14 2 11 7
M  V30 15 1 1 14
M  V30 16 1 1 15
M  V30 17 1 10 16
M  V30 18 1 12 17
M  V30 19 1 12 18
M  V30 20 1 12 19
M  V30 21 1 13 20
M  V30 22 1 13 21
M  V30 END BOND
M  V30 END CTAB
M  END
