
     RDKit          3D

  0  0  0  0  0  0  0  0  0  0999 V3000
M  V30 BEGIN CTAB
M  V30 COUNTS 22 23 0 0 0
M  V30 BEGIN ATOM
M  V30 1 N 4.14362 0.277439 0.676145 0
M  V30 2 C 2.87338 -0.097706 0.19253 0
M  V30 3 N 2.69544 -0.878108 -0.885279 0
M  V30 4 N 1.39096 -1.00227 -1.01963 0
M  V30 5 C 0.751655 -0.322635 -0.0578704 0
M  V30 6 N 1.68098 0.247151 0.705793 0
M  V30 7 C -0.718593 -0.235016 0.10648 0
M  V30 8 C -1.44025 0.758338 -0.500807 0
M  V30 9 N -0.78634 1.72243 -1.30006 0
M  V30 10 C -2.80785 0.812025 -0.327812 0
M  V30 11 C -3.45943 -0.136404 0.459684 0
M  V30 12 C -2.75177 -1.14195 1.07797 0
M  V30 13 C -1.38534 -1.15845 0.878234 0
M  V30 14 F -0.633047 -2.13703 1.47011 0
M  V30 15 H 4.71248 1.02325 0.236087 0
M  V30 16 H 4.5273 -0.210598 1.50563 0
M  V30 17 H 3.44923 -1.30418 -1.49847 0
M  V30 18 H -0.763548 1.59599 -2.32608 0
M  V30 19 H -0.341503 2.53816 -0.846718 0
M  V30 20 H -3.37256 1.61109 -0.818774 0
M  V30 21 H -4.53016 -0.066902 0.575229 0
M  V30 22 H -3.23465 -1.89461 1.69761 0
M  V30 END ATOM
M  V30 BEGIN BOND
M  V30 1 1 1 2
M  V30 2 1 2 3
M  V30 3 1 3 4
M  V30 4 2 4 5
M  V30 5 1 5 6
M  V30 6 1 5 7
M  V30 7 2 7 8
M  V30 8 1 8 9
M  V30 9 1 8 10
M  V30 10 2 10 11
M  V30 11 1 11 12
M  V30 12 2 12 13
M  V30 13 1 13 14
M  V30 14 2 6 2
M  V30 15 1 13 7
M  V30 16 1 1 15
M  V30 17 1 1 16
M  V30 18 1 3 17
M  V30 19 1 9 18
M  V30 20 1 9 19
M  V30 21 1 10 20
M  V30 22 1 11 21
M  V30 23 1 12 22
M  V30 END BOND
M  V30 END CTAB
M  END
