
     RDKit          3D

  0  0  0  0  0  0  0  0  0  0999 V3000
M  V30 BEGIN CTAB
M  V30 COUNTS 26 26 0 0 0
M  V30 BEGIN ATOM
M  V30 1 C 4.24925 -0.230936 -0.165242 0
M  V30 2 C 3.58043 1.00488 0.393555 0
M  V30 3 O 2.20834 0.992693 0.125614 0
M  V30 4 C 1.30948 0.0513117 0.530922 0
M  V30 5 O 1.7902 -0.909566 1.22536 0
M  V30 6 C -0.103235 0.0276935 0.261962 0
M  V30 7 C -0.893257 -1.01361 0.751423 0
M  V30 8 C -2.24789 -1.06771 0.513158 0
M  V30 9 N -3.04086 -2.13295 1.01691 0
M  V30 10 C -2.80415 -0.0369578 -0.239996 0
M  V30 11 C -2.03499 0.994037 -0.727231 0
M  V30 12 C -0.665042 1.04247 -0.482367 0
M  V30 13 C 0.0981914 2.13388 -1.0084 0
M  V30 14 N 0.706108 3.039 -1.4499 0
M  V30 15 N -4.18571 -0.0547977 -0.506219 0
M  V30 16 H 3.54594 -0.687565 -0.911914 0
M  V30 17 H 4.44001 -1.00258 0.596603 0
M  V30 18 H 5.21364 0.0266155 -0.681871 0
M  V30 19 H 3.81323 1.1474 1.47516 0
M  V30 20 H 4.02578 1.88967 -0.119741 0
M  V30 21 H -0.43803 -1.81961 1.34443 0
M  V30 22 H -3.17686 -3.00576 0.471128 0
M  V30 23 H -3.48723 -2.0256 1.94808 0
M  V30 24 H -2.45315 1.81034 -1.3192 0
M  V30 25 H -4.55774 -0.750214 -1.19397 0
M  V30 26 H -4.89245 0.577881 -0.0699107 0
M  V30 END ATOM
M  V30 BEGIN BOND
M  V30 1 1 1 2
M  V30 2 1 2 3
M  V30 3 1 3 4
M  V30 4 2 4 5
M  V30 5 1 4 6
M  V30 6 2 6 7
M  V30 7 1 7 8
M  V30 8 1 8 9
M  V30 9 2 8 10
M  V30 10 1 10 11
M  V30 11 2 11 12
M  V30 12 1 12 13
M  V30 13 3 13 14
M  V30 14 1 10 15
M  V30 15 1 12 6
M  V30 16 1 1 16
M  V30 17 1 1 17
M  V30 18 1 1 18
M  V30 19 1 2 19
M  V30 20 1 2 20
M  V30 21 1 7 21
M  V30 22 1 9 22
M  V30 23 1 9 23
M  V30 24 1 11 24
M  V30 25 1 15 25
M  V30 26 1 15 26
M  V30 END BOND
M  V30 END CTAB
M  END
