
     RDKit          3D

  0  0  0  0  0  0  0  0  0  0999 V3000
M  V30 BEGIN CTAB
M  V30 COUNTS 25 25 0 0 0
M  V30 BEGIN ATOM
M  V30 1 C 3.60709 1.27993 0.204419 0
M  V30 2 O 3.46739 -0.120854 0.10052 0
M  V30 3 C 2.20326 -0.718168 -0.020478 0
M  V30 4 C 1.09939 0.111834 -0.0344816 0
M  V30 5 C -0.145229 -0.472575 -0.153353 0
M  V30 6 C -1.39516 0.326351 -0.178773 0
M  V30 7 C -2.07103 0.231954 1.18723 0
M  V30 8 N -3.27936 1.02883 1.09826 0
M  V30 9 N -2.31267 -0.0835881 -1.19673 0
M  V30 10 C -0.238922 -1.84666 -0.252482 0
M  V30 11 N 0.86823 -2.61395 -0.234016 0
M  V30 12 C 2.08673 -2.09202 -0.121051 0
M  V30 13 H 3.40718 1.78653 -0.774825 0
M  V30 14 H 4.63348 1.5133 0.544292 0
M  V30 15 H 2.90122 1.71467 0.957316 0
M  V30 16 H 1.1568 1.18367 0.0418408 0
M  V30 17 H -1.10016 1.38159 -0.323698 0
M  V30 18 H -1.4165 0.690848 1.94118 0
M  V30 19 H -2.35662 -0.814319 1.42453 0
M  V30 20 H -3.92916 0.541567 0.468172 0
M  V30 21 H -3.04796 1.97108 0.760583 0
M  V30 22 H -3.01066 -0.799003 -0.846467 0
M  V30 23 H -2.88809 0.753487 -1.51192 0
M  V30 24 H -1.2416 -2.2898 -0.346344 0
M  V30 25 H 3.00232 -2.6647 -0.101561 0
M  V30 END ATOM
M  V30 BEGIN BOND
M  V30 1 1 1 2
M  V30 2 1 2 3
M  V30 3 2 3 4
M  V30 4 1 4 5
M  V30 5 1 5 6
M  V30 6 1 6 7
M  V30 7 1 7 8
M  V30 8 1 6 9
M  V30 9 2 5 10
M  V30 10 1 10 11
M  V30 11 2 11 12
M  V30 12 1 12 3
M  V30 13 1 1 13
M  V30 14 1 1 14
M  V30 15 1 1 15
M  V30 16 1 4 16
M  V30 17 1 6 17
M  V30 18 1 7 18
M  V30 19 1 7 19
M  V30 20 1 8 20
M  V30 21 1 8 21
M  V30 22 1 9 22
M  V30 23 1 9 23
M  V30 24 1 10 24
M  V30 25 1 12 25
M  V30 END BOND
M  V30 END CTAB
M  END
