
     RDKit          3D

  0  0  0  0  0  0  0  0  0  0999 V3000
M  V30 BEGIN CTAB
M  V30 COUNTS 85 86 0 0 0
M  V30 BEGIN ATOM
M  V30 1 N -2.27433 -6.09112 -0.954946 0
M  V30 2 C -3.4963 -5.39033 -1.07365 0
M  V30 3 C -3.37691 -3.8951 -0.957121 0
M  V30 4 C -2.46903 -3.37496 -2.04134 0
M  V30 5 C -2.3492 -1.87247 -1.97216 0
M  V30 6 C -1.81609 -1.25293 -0.784635 0 CFG=1
M  V30 7 C -0.530962 -1.35393 -0.195795 0
M  V30 8 O -0.530811 -0.596074 0.888247 0
M  V30 9 N 0.691167 -1.97114 -0.388896 0
M  V30 10 C 1.20858 -2.8489 -1.36662 0
M  V30 11 C 1.36532 -4.23761 -0.745523 0
M  V30 12 C 1.38609 -4.04885 0.753788 0
M  V30 13 C 2.4857 -2.95028 0.952308 0 CFG=2
M  V30 14 C 1.78257 -1.68087 0.621602 0 CFG=1
M  V30 15 C 2.59825 -0.552991 0.138291 0
M  V30 16 C 3.65919 -0.143387 1.07865 0
M  V30 17 C 4.4169 1.00648 0.451767 0
M  V30 18 O 4.05661 1.45702 -0.644874 0
M  V30 19 N 5.52787 1.5661 1.10513 0
M  V30 20 C 6.30682 2.66016 0.581992 0 CFG=2
M  V30 21 C 7.64221 2.20597 0.106407 0
M  V30 22 O 7.96602 1.00147 0.193694 0
M  V30 23 O 8.50983 3.10936 -0.424701 0
M  V30 24 C 6.4241 3.72516 1.63176 0
M  V30 25 C 5.12303 4.27724 2.06758 0
M  V30 26 O 4.00758 3.93179 1.64101 0
M  V30 27 O 5.10234 5.28726 3.05111 0
M  V30 28 O 3.51758 -3.2406 0.0971231 0
M  V30 29 C 4.65412 -3.76377 0.637166 0
M  V30 30 N -2.28601 0.14219 -0.703099 0
M  V30 31 C -3.32199 0.618877 0.0895202 0
M  V30 32 O -3.94171 -0.214978 0.821957 0
M  V30 33 C -3.77534 2.01594 0.163765 0 CFG=2
M  V30 34 C -5.26867 2.06527 -0.195847 0
M  V30 35 C -5.76461 3.46641 -0.125395 0
M  V30 36 C -5.72984 4.30987 -1.21354 0
M  V30 37 C -6.20864 5.60014 -1.05452 0
M  V30 38 C -6.70739 6.023 0.169618 0
M  V30 39 C -6.73831 5.17779 1.24611 0
M  V30 40 C -6.26158 3.89824 1.0812 0
M  V30 41 O -7.18516 7.31013 0.329738 0
M  V30 42 N -3.01945 2.91798 -0.657176 0
M  V30 43 H -1.73484 -5.83959 -0.160647 0
M  V30 44 H -2.3499 -7.05106 -1.21234 0
M  V30 45 H -4.18446 -5.80763 -0.279175 0
M  V30 46 H -3.95907 -5.66399 -2.04751 0
M  V30 47 H -2.89293 -3.7088 0.0404252 0
M  V30 48 H -4.38596 -3.47822 -1.0347 0
M  V30 49 H -2.97767 -3.68328 -3.00751 0
M  V30 50 H -1.55885 -3.94472 -2.01231 0
M  V30 51 H -3.44782 -1.55281 -2.02417 0
M  V30 52 H -1.9957 -1.45028 -2.94905 0
M  V30 53 H -2.52511 -1.70589 0.0563685 0
M  V30 54 H 2.19908 -2.51994 -1.77806 0
M  V30 55 H 0.611985 -2.97961 -2.27956 0
M  V30 56 H 0.459338 -4.8133 -0.999691 0
M  V30 57 H 2.24657 -4.76448 -1.1211 0
M  V30 58 H 1.59888 -4.93784 1.32628 0
M  V30 59 H 0.44969 -3.59618 1.09601 0
M  V30 60 H 2.82289 -3.08817 1.98885 0
M  V30 61 H 1.27595 -1.34586 1.57099 0
M  V30 62 H 3.07575 -0.745917 -0.854338 0
M  V30 63 H 1.897 0.334435 0.0412931 0
M  V30 64 H 3.22128 0.266579 2.05074 0
M  V30 65 H 4.40876 -0.84496 1.38842 0
M  V30 66 H 5.80463 1.15376 2.03983 0
M  V30 67 H 5.81707 3.09955 -0.314868 0
M  V30 68 H 9.39992 2.89533 -0.851867 0
M  V30 69 H 7.0715 4.56961 1.31541 0
M  V30 70 H 6.96764 3.25158 2.49755 0
M  V30 71 H 5.42342 6.19214 2.76182 0
M  V30 72 H 4.5017 -4.73362 1.16076 0
M  V30 73 H 5.3477 -3.99867 -0.204537 0
M  V30 74 H 5.184 -3.05009 1.26927 0
M  V30 75 H -1.75854 0.80814 -1.31803 0
M  V30 76 H -3.74633 2.43142 1.21482 0
M  V30 77 H -5.36552 1.70485 -1.23515 0
M  V30 78 H -5.85154 1.40509 0.454732 0
M  V30 79 H -5.33071 3.94349 -2.1595 0
M  V30 80 H -6.18894 6.27201 -1.89387 0
M  V30 81 H -7.12368 5.4774 2.22284 0
M  V30 82 H -6.27403 3.2016 1.92065 0
M  V30 83 H -6.54782 8.05553 0.625426 0
M  V30 84 H -2.74432 2.57272 -1.58088 0
M  V30 85 H -2.22054 3.37613 -0.123306 0
M  V30 END ATOM
M  V30 BEGIN BOND
M  V30 1 1 1 2
M  V30 2 1 2 3
M  V30 3 1 3 4
M  V30 4 1 4 5
M  V30 5 1 5 6
M  V30 6 1 6 7
M  V30 7 2 7 8
M  V30 8 1 7 9
M  V30 9 1 9 10
M  V30 10 1 10 11
M  V30 11 1 11 12
M  V30 12 1 12 13
M  V30 13 1 13 14
M  V30 14 1 14 15
M  V30 15 1 15 16
M  V30 16 1 16 17
M  V30 17 2 17 18
M  V30 18 1 17 19
M  V30 19 1 19 20
M  V30 20 1 20 21
M  V30 21 2 21 22
M  V30 22 1 21 23
M  V30 23 1 20 24
M  V30 24 1 24 25
M  V30 25 2 25 26
M  V30 26 1 25 27
M  V30 27 1 13 28
M  V30 28 1 28 29
M  V30 29 1 6 30
M  V30 30 1 30 31
M  V30 31 2 31 32
M  V30 32 1 31 33
M  V30 33 1 33 34
M  V30 34 1 34 35
M  V30 35 2 35 36
M  V30 36 1 36 37
M  V30 37 2 37 38
M  V30 38 1 38 39
M  V30 39 2 39 40
M  V30 40 1 38 41
M  V30 41 1 33 42
M  V30 42 1 14 9
M  V30 43 1 40 35
M  V30 44 1 1 43
M  V30 45 1 1 44
M  V30 46 1 2 45
M  V30 47 1 2 46
M  V30 48 1 3 47
M  V30 49 1 3 48
M  V30 50 1 4 49
M  V30 51 1 4 50
M  V30 52 1 5 51
M  V30 53 1 5 52
M  V30 54 1 6 53 CFG=1
M  V30 55 1 10 54
M  V30 56 1 10 55
M  V30 57 1 11 56
M  V30 58 1 11 57
M  V30 59 1 12 58
M  V30 60 1 12 59
M  V30 61 1 13 60 CFG=1
M  V30 62 1 14 61 CFG=1
M  V30 63 1 15 62
M  V30 64 1 15 63
M  V30 65 1 16 64
M  V30 66 1 16 65
M  V30 67 1 19 66
M  V30 68 1 20 67 CFG=3
M  V30 69 1 23 68
M  V30 70 1 24 69
M  V30 71 1 24 70
M  V30 72 1 27 71
M  V30 73 1 29 72
M  V30 74 1 29 73
M  V30 75 1 29 74
M  V30 76 1 30 75
M  V30 77 1 33 76 CFG=1
M  V30 78 1 34 77
M  V30 79 1 34 78
M  V30 80 1 36 79
M  V30 81 1 37 80
M  V30 82 1 39 81
M  V30 83 1 40 82
M  V30 84 1 41 83
M  V30 85 1 42 84
M  V30 86 1 42 85
M  V30 END BOND
M  V30 END CTAB
M  END
