
     RDKit          3D

  0  0  0  0  0  0  0  0  0  0999 V3000
M  V30 BEGIN CTAB
M  V30 COUNTS 26 27 0 0 0
M  V30 BEGIN ATOM
M  V30 1 N -2.30499 1.67263 0.26161 0
M  V30 2 C -1.33565 0.721811 0.670523 0
M  V30 3 C -1.95942 -0.429097 1.39698 0
M  V30 4 O -2.43843 -1.23975 0.359056 0
M  V30 5 C -1.46255 -1.22436 -0.648643 0
M  V30 6 C -0.642293 -0.0110067 -0.472994 0
M  V30 7 C -0.653986 0.835595 -1.71506 0
M  V30 8 C 0.760324 -0.245981 -0.0264138 0
M  V30 9 N 1.15535 -0.842294 1.12231 0
M  V30 10 N 2.47016 -0.8754 1.18656 0
M  V30 11 C 2.91249 -0.29145 0.0642081 0
M  V30 12 N 1.86253 0.100095 -0.683136 0
M  V30 13 N 4.27176 -0.103822 -0.30062 0
M  V30 14 H -2.68329 2.14264 1.12936 0
M  V30 15 H -3.03291 1.18865 -0.298167 0
M  V30 16 H -0.523253 1.19116 1.28924 0
M  V30 17 H -2.85906 -0.0694874 1.92593 0
M  V30 18 H -1.27917 -0.957518 2.09224 0
M  V30 19 H -2.06497 -1.09264 -1.60324 0
M  V30 20 H -0.975701 -2.18114 -0.74155 0
M  V30 21 H -0.27443 0.227625 -2.57219 0
M  V30 22 H 0.0565248 1.6811 -1.60633 0
M  V30 23 H -1.67158 1.16287 -1.90596 0
M  V30 24 H 3.09871 -1.25551 1.93162 0
M  V30 25 H 4.88604 -0.926604 -0.43802 0
M  V30 26 H 4.68779 0.821895 -0.417316 0
M  V30 END ATOM
M  V30 BEGIN BOND
M  V30 1 1 1 2
M  V30 2 1 2 3
M  V30 3 1 3 4
M  V30 4 1 4 5
M  V30 5 1 5 6
M  V30 6 1 6 7
M  V30 7 1 6 8
M  V30 8 2 8 9
M  V30 9 1 9 10
M  V30 10 1 10 11
M  V30 11 2 11 12
M  V30 12 1 11 13
M  V30 13 1 6 2
M  V30 14 1 12 8
M  V30 15 1 1 14
M  V30 16 1 1 15
M  V30 17 1 2 16
M  V30 18 1 3 17
M  V30 19 1 3 18
M  V30 20 1 5 19
M  V30 21 1 5 20
M  V30 22 1 7 21
M  V30 23 1 7 22
M  V30 24 1 7 23
M  V30 25 1 10 24
M  V30 26 1 13 25
M  V30 27 1 13 26
M  V30 END BOND
M  V30 END CTAB
M  END
