
     RDKit          3D

  0  0  0  0  0  0  0  0  0  0999 V3000
M  V30 BEGIN CTAB
M  V30 COUNTS 25 26 0 0 0
M  V30 BEGIN ATOM
M  V30 1 N 1.92429 -1.67544 -3.88717 0
M  V30 2 C 1.84573 -1.67528 -2.45426 0
M  V30 3 N 2.63247 -2.47808 -1.83535 0
M  V30 4 C 0.899512 -0.786653 -1.76183 0
M  V30 5 C 0.132015 0.00918973 -2.60076 0
M  V30 6 C -0.762344 0.851115 -1.98402 0
M  V30 7 C -0.872777 0.884101 -0.583824 0
M  V30 8 C -0.116876 0.100615 0.236258 0
M  V30 9 C 0.792727 -0.754405 -0.414451 0
M  V30 10 C -0.310383 0.21859 1.56721 0
M  V30 11 C -1.24893 1.11462 1.98115 0
M  V30 12 S -1.83827 1.76921 0.525629 0
M  V30 13 C -1.68044 1.46441 3.33073 0
M  V30 14 N -2.59236 2.34479 3.55146 0
M  V30 15 N -1.09516 0.831377 4.45613 0
M  V30 16 H 2.84646 -1.46273 -4.29792 0
M  V30 17 H 1.10001 -1.87801 -4.47094 0
M  V30 18 H 2.69637 -2.59472 -0.823782 0
M  V30 19 H 0.203241 -0.00370231 -3.65897 0
M  V30 20 H -1.41844 1.52171 -2.51939 0
M  V30 21 H 1.43435 -1.41238 0.150204 0
M  V30 22 H 0.232938 -0.355098 2.35375 0
M  V30 23 H -3.03645 2.82298 2.73709 0
M  V30 24 H -0.327504 1.24948 5.03013 0
M  V30 25 H -1.44018 -0.105681 4.73947 0
M  V30 END ATOM
M  V30 BEGIN BOND
M  V30 1 1 1 2
M  V30 2 2 2 3 CFG=2
M  V30 3 1 2 4
M  V30 4 2 4 5
M  V30 5 1 5 6
M  V30 6 2 6 7
M  V30 7 1 7 8
M  V30 8 2 8 9
M  V30 9 1 8 10
M  V30 10 2 10 11
M  V30 11 1 11 12
M  V30 12 1 11 13
M  V30 13 2 13 14 CFG=2
M  V30 14 1 13 15
M  V30 15 1 9 4
M  V30 16 1 12 7
M  V30 17 1 1 16
M  V30 18 1 1 17
M  V30 19 1 3 18
M  V30 20 1 5 19
M  V30 21 1 6 20
M  V30 22 1 9 21
M  V30 23 1 10 22
M  V30 24 1 14 23
M  V30 25 1 15 24
M  V30 26 1 15 25
M  V30 END BOND
M  V30 END CTAB
M  END
