
     RDKit          3D

  0  0  0  0  0  0  0  0  0  0999 V3000
M  V30 BEGIN CTAB
M  V30 COUNTS 10 9 0 0 0
M  V30 BEGIN ATOM
M  V30 1 N -1.24276 -0.398096 0.108962 0
M  V30 2 P 0.0992867 0.489743 0.098218 0
M  V30 3 N 1.22354 -0.665292 -0.295151 0
M  V30 4 F -0.209758 0.845272 1.68388 0
M  V30 5 F -0.627666 1.37976 -1.12058 0
M  V30 6 F 1.02476 1.70728 0.137284 0
M  V30 7 H -1.33212 -1.05782 -0.675331 0
M  V30 8 H -2.19543 -0.0628392 0.328086 0
M  V30 9 H 2.22851 -0.55257 -0.16624 0
M  V30 10 H 1.03164 -1.68544 -0.0991254 0
M  V30 END ATOM
M  V30 BEGIN BOND
M  V30 1 1 1 2
M  V30 2 1 2 3
M  V30 3 1 2 4
M  V30 4 1 2 5
M  V30 5 1 2 6
M  V30 6 1 1 7
M  V30 7 1 1 8
M  V30 8 1 3 9
M  V30 9 1 3 10
M  V30 END BOND
M  V30 END CTAB
M  END
