
     RDKit          3D

  0  0  0  0  0  0  0  0  0  0999 V3000
M  V30 BEGIN CTAB
M  V30 COUNTS 33 35 0 0 0
M  V30 BEGIN ATOM
M  V30 1 N 5.84393 -2.64557 -1.24168 0
M  V30 2 C 4.92203 -2.06449 -0.299334 0
M  V30 3 N 4.68016 -2.41345 0.960664 0
M  V30 4 N 3.8246 -1.77583 1.63674 0
M  V30 5 C 3.16883 -0.760618 1.09158 0
M  V30 6 S 3.84753 -0.749404 -0.488717 0
M  V30 7 S 1.90944 0.306563 1.82807 0
M  V30 8 C 0.255653 -0.379965 1.57445 0
M  V30 9 C -0.128718 -0.387935 0.14868 0
M  V30 10 O 0.606892 0.141152 -0.700593 0
M  V30 11 C -1.36431 -1.01191 -0.256451 0
M  V30 12 C -2.19367 -1.62551 0.644715 0
M  V30 13 C -3.37059 -2.20927 0.220068 0
M  V30 14 C -3.75306 -2.2007 -1.09692 0
M  V30 15 C -2.92274 -1.58403 -2.01461 0
M  V30 16 C -1.74029 -0.998528 -1.58066 0
M  V30 17 S -0.884047 0.662782 2.54694 0
M  V30 18 C -0.954074 2.32819 1.87879 0
M  V30 19 N -0.199205 3.38048 2.17913 0
M  V30 20 N -0.392712 4.4852 1.60442 0
M  V30 21 C -1.3548 4.60078 0.694213 0
M  V30 22 S -1.99497 3.00698 0.693608 0
M  V30 23 N -1.73307 5.76571 -0.0684765 0
M  V30 24 H 5.99123 -3.65591 -1.27368 0
M  V30 25 H 6.37247 -2.03717 -1.90332 0
M  V30 26 H 0.184749 -1.40382 1.98564 0
M  V30 27 H -1.9323 -1.66294 1.7032 0
M  V30 28 H -4.0088 -2.68573 0.941151 0
M  V30 29 H -4.68803 -2.66469 -1.43559 0
M  V30 30 H -3.1822 -1.55403 -3.05331 0
M  V30 31 H -1.08382 -0.514005 -2.28907 0
M  V30 32 H -2.3591 6.43929 0.408922 0
M  V30 33 H -1.36703 5.86838 -1.03516 0
M  V30 END ATOM
M  V30 BEGIN BOND
M  V30 1 1 1 2
M  V30 2 2 2 3
M  V30 3 1 3 4
M  V30 4 2 4 5
M  V30 5 1 5 6
M  V30 6 1 5 7
M  V30 7 1 7 8
M  V30 8 1 8 9
M  V30 9 2 9 10
M  V30 10 1 9 11
M  V30 11 2 11 12
M  V30 12 1 12 13
M  V30 13 2 13 14
M  V30 14 1 14 15
M  V30 15 2 15 16
M  V30 16 1 8 17
M  V30 17 1 17 18
M  V30 18 2 18 19
M  V30 19 1 19 20
M  V30 20 2 20 21
M  V30 21 1 21 22
M  V30 22 1 21 23
M  V30 23 1 6 2
M  V30 24 1 16 11
M  V30 25 1 22 18
M  V30 26 1 1 24
M  V30 27 1 1 25
M  V30 28 1 8 26
M  V30 29 1 12 27
M  V30 30 1 13 28
M  V30 31 1 14 29
M  V30 32 1 15 30
M  V30 33 1 16 31
M  V30 34 1 23 32
M  V30 35 1 23 33
M  V30 END BOND
M  V30 END CTAB
M  END
