
     RDKit          3D

  0  0  0  0  0  0  0  0  0  0999 V3000
M  V30 BEGIN CTAB
M  V30 COUNTS 36 39 0 0 0
M  V30 BEGIN ATOM
M  V30 1 N -2.33848 3.53453 1.02786 0
M  V30 2 C -1.44996 2.88575 0.675309 0
M  V30 3 C -0.340897 2.0428 0.235562 0
M  V30 4 C 0.528126 2.48855 -0.645998 0
M  V30 5 N 0.270768 3.84248 -1.10485 0
M  V30 6 O 1.61253 1.79371 -1.14072 0
M  V30 7 C 1.83623 0.508173 -0.691003 0
M  V30 8 C 0.98369 -0.0370734 0.226069 0
M  V30 9 C -0.177393 0.678642 0.783316 0
M  V30 10 C -1.43227 -0.126369 0.721778 0
M  V30 11 C -2.28981 -0.243223 1.79001 0
M  V30 12 C -2.16818 0.375198 3.15044 0
M  V30 13 N -3.33489 -1.03823 1.44009 0
M  V30 14 C -3.07539 -1.37777 0.167567 0
M  V30 15 N -1.94897 -0.859286 -0.311936 0
M  V30 16 C -1.61807 -1.13938 -1.54577 0
M  V30 17 C -2.44422 -1.94818 -2.27853 0
M  V30 18 S -3.69248 -2.27925 -1.13225 0
M  V30 19 C 1.25259 -1.3409 0.647896 0
M  V30 20 C 2.32401 -2.05167 0.168617 0
M  V30 21 C 3.1847 -1.49991 -0.75729 0
M  V30 22 C 2.93116 -0.217886 -1.18066 0
M  V30 23 N 4.30903 -2.23601 -1.26124 0
M  V30 24 H 0.904292 4.56858 -0.715651 0
M  V30 25 H -0.475679 4.06148 -1.75935 0
M  V30 26 H 0.110916 0.848235 1.87255 0
M  V30 27 H -2.67842 1.35676 3.20447 0
M  V30 28 H -1.11804 0.394599 3.42708 0
M  V30 29 H -2.69274 -0.268712 3.90735 0
M  V30 30 H -0.708865 -0.777245 -2.07641 0
M  V30 31 H -2.36144 -2.3075 -3.31618 0
M  V30 32 H 0.580272 -1.77588 1.37212 0
M  V30 33 H 2.52938 -3.06071 0.497119 0
M  V30 34 H 3.58393 0.234238 -1.89853 0
M  V30 35 H 4.12084 -3.09495 -1.80084 0
M  V30 36 H 5.28374 -1.9336 -1.10037 0
M  V30 END ATOM
M  V30 BEGIN BOND
M  V30 1 3 1 2
M  V30 2 1 2 3
M  V30 3 2 3 4
M  V30 4 1 4 5
M  V30 5 1 4 6
M  V30 6 1 6 7
M  V30 7 2 7 8
M  V30 8 1 8 9
M  V30 9 1 9 10
M  V30 10 2 10 11
M  V30 11 1 11 12
M  V30 12 1 11 13
M  V30 13 2 13 14
M  V30 14 1 14 15
M  V30 15 1 15 16
M  V30 16 2 16 17
M  V30 17 1 17 18
M  V30 18 1 8 19
M  V30 19 2 19 20
M  V30 20 1 20 21
M  V30 21 2 21 22
M  V30 22 1 21 23
M  V30 23 1 9 3
M  V30 24 1 15 10
M  V30 25 1 22 7
M  V30 26 1 18 14
M  V30 27 1 5 24
M  V30 28 1 5 25
M  V30 29 1 9 26
M  V30 30 1 12 27
M  V30 31 1 12 28
M  V30 32 1 12 29
M  V30 33 1 16 30
M  V30 34 1 17 31
M  V30 35 1 19 32
M  V30 36 1 20 33
M  V30 37 1 22 34
M  V30 38 1 23 35
M  V30 39 1 23 36
M  V30 END BOND
M  V30 END CTAB
M  END
