
     RDKit          3D

  0  0  0  0  0  0  0  0  0  0999 V3000
M  V30 BEGIN CTAB
M  V30 COUNTS 30 30 0 0 0
M  V30 BEGIN ATOM
M  V30 1 N -1.8128 2.41453 0.491763 0
M  V30 2 C -2.17394 1.21243 -0.103134 0
M  V30 3 C -0.993626 0.307271 -0.385306 0 CFG=2
M  V30 4 C -1.35844 -0.980337 -1.02002 0
M  V30 5 C -1.01521 -2.20168 -0.232403 0
M  V30 6 C 0.429143 -2.42326 -0.000634494 0
M  V30 7 C 1.30662 -1.24724 -0.34765 0
M  V30 8 N 1.14309 -0.274485 0.669399 0
M  V30 9 C -0.192615 0.17671 0.878985 0
M  V30 10 S 2.35261 0.892056 0.806671 0
M  V30 11 O 2.02053 1.80495 1.95452 0
M  V30 12 O 3.67009 0.231087 1.11988 0
M  V30 13 N 2.53299 1.87005 -0.601509 0
M  V30 14 H -0.940279 2.80649 0.425111 0
M  V30 15 H -2.53499 2.91813 0.913838 0
M  V30 16 H -2.63163 1.43678 -1.10525 0
M  V30 17 H -2.96216 0.664718 0.469287 0
M  V30 18 H -0.345685 0.874174 -1.11194 0
M  V30 19 H -2.46395 -0.987807 -1.17649 0
M  V30 20 H -0.93153 -1.09642 -2.05894 0
M  V30 21 H -1.61687 -2.17873 0.722245 0
M  V30 22 H -1.41859 -3.08131 -0.789554 0
M  V30 23 H 0.838917 -3.34575 -0.490775 0
M  V30 24 H 0.572065 -2.60879 1.1048 0
M  V30 25 H 1.14003 -0.87962 -1.37434 0
M  V30 26 H 2.35958 -1.61354 -0.315607 0
M  V30 27 H -0.681995 -0.522152 1.59272 0
M  V30 28 H -0.16791 1.16253 1.37084 0
M  V30 29 H 3.49334 1.78461 -1.00591 0
M  V30 30 H 2.38321 2.88461 -0.400601 0
M  V30 END ATOM
M  V30 BEGIN BOND
M  V30 1 1 1 2
M  V30 2 1 2 3
M  V30 3 1 3 4
M  V30 4 1 4 5
M  V30 5 1 5 6
M  V30 6 1 6 7
M  V30 7 1 7 8
M  V30 8 1 8 9
M  V30 9 1 8 10
M  V30 10 2 10 11
M  V30 11 2 10 12
M  V30 12 1 10 13
M  V30 13 1 9 3
M  V30 14 1 1 14
M  V30 15 1 1 15
M  V30 16 1 2 16
M  V30 17 1 2 17
M  V30 18 1 3 18 CFG=3
M  V30 19 1 4 19
M  V30 20 1 4 20
M  V30 21 1 5 21
M  V30 22 1 5 22
M  V30 23 1 6 23
M  V30 24 1 6 24
M  V30 25 1 7 25
M  V30 26 1 7 26
M  V30 27 1 9 27
M  V30 28 1 9 28
M  V30 29 1 13 29
M  V30 30 1 13 30
M  V30 END BOND
M  V30 END CTAB
M  END
