
     RDKit          3D

  0  0  0  0  0  0  0  0  0  0999 V3000
M  V30 BEGIN CTAB
M  V30 COUNTS 41 42 0 0 0
M  V30 BEGIN ATOM
M  V30 1 N -2.70083 -1.1229 -2.58469 0
M  V30 2 C -2.68744 -1.47077 -1.16634 0
M  V30 3 C -1.76298 -0.498156 -0.421783 0
M  V30 4 C -1.69152 -0.779041 1.03555 0
M  V30 5 N -1.21606 -2.11685 1.32736 0
M  V30 6 C -0.625132 0.167372 -1.17699 0
M  V30 7 C -1.81609 0.921071 -0.923357 0
M  V30 8 S -2.16212 2.17813 0.215255 0
M  V30 9 O -1.3947 2.2081 1.46916 0
M  V30 10 O -2.03745 3.5553 -0.432707 0
M  V30 11 C -3.93734 2.0402 0.575367 0
M  V30 12 C 0.666423 0.176684 -0.528878 0
M  V30 13 C 1.29617 1.2828 -0.0249489 0
M  V30 14 C 2.54663 1.23753 0.603813 0
M  V30 15 C 3.17506 0.0245819 0.721046 0
M  V30 16 C 2.57216 -1.10845 0.224752 0
M  V30 17 C 1.3515 -1.01973 -0.381237 0
M  V30 18 C 4.50839 -0.0816939 1.38209 0
M  V30 19 C 5.56519 0.0981602 0.31325 0
M  V30 20 H -3.66649 -1.24483 -2.99476 0
M  V30 21 H -2.11136 -1.85435 -3.07285 0
M  V30 22 H -3.7017 -1.33694 -0.73862 0
M  V30 23 H -2.36326 -2.5027 -0.999864 0
M  V30 24 H -2.66979 -0.677284 1.54389 0
M  V30 25 H -0.984648 -0.110139 1.58327 0
M  V30 26 H -1.71966 -2.54498 2.13637 0
M  V30 27 H -1.09988 -2.73636 0.528604 0
M  V30 28 H -0.528511 -0.315957 -2.23133 0
M  V30 29 H -2.48536 1.03934 -1.85679 0
M  V30 30 H -4.31256 2.99515 0.988518 0
M  V30 31 H -4.40978 1.87276 -0.414638 0
M  V30 32 H -4.14793 1.17804 1.20278 0
M  V30 33 H 0.869286 2.24821 -0.109809 0
M  V30 34 H 3.00326 2.13676 0.986354 0
M  V30 35 H 3.09845 -2.04248 0.336075 0
M  V30 36 H 0.923603 -1.94182 -0.76531 0
M  V30 37 H 4.63672 0.715866 2.15857 0
M  V30 38 H 4.59481 -1.07094 1.86577 0
M  V30 39 H 5.51464 -0.763567 -0.389758 0
M  V30 40 H 6.5781 0.213762 0.744827 0
M  V30 41 H 5.33218 1.05016 -0.234915 0
M  V30 END ATOM
M  V30 BEGIN BOND
M  V30 1 1 1 2
M  V30 2 1 2 3
M  V30 3 1 3 4
M  V30 4 1 4 5
M  V30 5 1 3 6
M  V30 6 1 6 7
M  V30 7 1 7 8
M  V30 8 2 8 9
M  V30 9 2 8 10
M  V30 10 1 8 11
M  V30 11 1 6 12
M  V30 12 2 12 13
M  V30 13 1 13 14
M  V30 14 2 14 15
M  V30 15 1 15 16
M  V30 16 2 16 17
M  V30 17 1 15 18
M  V30 18 1 18 19
M  V30 19 1 7 3
M  V30 20 1 17 12
M  V30 21 1 1 20
M  V30 22 1 1 21
M  V30 23 1 2 22
M  V30 24 1 2 23
M  V30 25 1 4 24
M  V30 26 1 4 25
M  V30 27 1 5 26
M  V30 28 1 5 27
M  V30 29 1 6 28
M  V30 30 1 7 29
M  V30 31 1 11 30
M  V30 32 1 11 31
M  V30 33 1 11 32
M  V30 34 1 13 33
M  V30 35 1 14 34
M  V30 36 1 16 35
M  V30 37 1 17 36
M  V30 38 1 18 37
M  V30 39 1 18 38
M  V30 40 1 19 39
M  V30 41 1 19 40
M  V30 42 1 19 41
M  V30 END BOND
M  V30 END CTAB
M  END
