
     RDKit          3D

  0  0  0  0  0  0  0  0  0  0999 V3000
M  V30 BEGIN CTAB
M  V30 COUNTS 28 28 0 0 0
M  V30 BEGIN ATOM
M  V30 1 C -4.57886 -0.340673 -0.443655 0
M  V30 2 C -3.32826 0.0426431 -0.695731 0
M  V30 3 C -2.1632 -0.827845 -0.383212 0
M  V30 4 N -1.23731 -0.280272 0.559229 0
M  V30 5 C 0.0865257 0.133794 0.275267 0
M  V30 6 C 0.484556 1.44043 0.0578757 0
M  V30 7 C 1.77698 1.78413 -0.218588 0
M  V30 8 C 2.75205 0.824787 -0.294323 0
M  V30 9 C 2.39527 -0.51417 -0.0806308 0
M  V30 10 C 1.08293 -0.83475 0.19748 0
M  V30 11 N 3.41637 -1.48971 -0.1655 0
M  V30 12 N 4.12103 1.13264 -0.580598 0
M  V30 13 C -1.62973 -0.10477 1.97156 0
M  V30 14 H -5.38169 0.331211 -0.689193 0
M  V30 15 H -4.78963 -1.32179 0.00593418 0
M  V30 16 H -3.17378 1.0169 -1.14602 0
M  V30 17 H -2.53679 -1.83293 -0.0986356 0
M  V30 18 H -1.6095 -0.939617 -1.36298 0
M  V30 19 H -0.309814 2.18204 0.124904 0
M  V30 20 H 2.04333 2.80808 -0.38018 0
M  V30 21 H 0.822519 -1.88453 0.363266 0
M  V30 22 H 3.23856 -2.48219 0.0950217 0
M  V30 23 H 4.36682 -1.22839 -0.497141 0
M  V30 24 H 4.52459 0.777417 -1.45868 0
M  V30 25 H 4.66542 1.69724 0.103434 0
M  V30 26 H -1.67228 0.99238 2.15681 0
M  V30 27 H -2.57972 -0.605408 2.19964 0
M  V30 28 H -0.786392 -0.476644 2.58884 0
M  V30 END ATOM
M  V30 BEGIN BOND
M  V30 1 2 1 2 CFG=2
M  V30 2 1 2 3
M  V30 3 1 3 4
M  V30 4 1 4 5
M  V30 5 2 5 6
M  V30 6 1 6 7
M  V30 7 2 7 8
M  V30 8 1 8 9
M  V30 9 2 9 10
M  V30 10 1 9 11
M  V30 11 1 8 12
M  V30 12 1 4 13
M  V30 13 1 10 5
M  V30 14 1 1 14
M  V30 15 1 1 15
M  V30 16 1 2 16
M  V30 17 1 3 17
M  V30 18 1 3 18
M  V30 19 1 6 19
M  V30 20 1 7 20
M  V30 21 1 10 21
M  V30 22 1 11 22
M  V30 23 1 11 23
M  V30 24 1 12 24
M  V30 25 1 12 25
M  V30 26 1 13 26
M  V30 27 1 13 27
M  V30 28 1 13 28
M  V30 END BOND
M  V30 END CTAB
M  END
