
     RDKit          3D

  0  0  0  0  0  0  0  0  0  0999 V3000
M  V30 BEGIN CTAB
M  V30 COUNTS 27 27 0 0 0
M  V30 BEGIN ATOM
M  V30 1 N -1.13038 1.01853 -2.22162 0
M  V30 2 C -0.856906 0.484422 -0.891328 0
M  V30 3 C -1.44602 -0.922748 -0.866673 0
M  V30 4 C -2.00011 -1.09401 0.521056 0
M  V30 5 C -2.31942 0.280089 1.03778 0
M  V30 6 C -1.51469 1.24555 0.20538 0
M  V30 7 C 0.631834 0.399588 -0.795386 0
M  V30 8 N 1.11394 -0.0702858 0.475269 0
M  V30 9 S 2.61634 -0.830937 0.211744 0
M  V30 10 O 2.72294 -1.3393 -1.22349 0
M  V30 11 O 2.59526 -2.09578 1.07067 0
M  V30 12 N 3.97228 0.139403 0.602166 0
M  V30 13 H -0.551409 0.428526 -2.8762 0
M  V30 14 H -0.719574 1.98851 -2.32604 0
M  V30 15 H -0.659597 -1.7103 -1.00645 0
M  V30 16 H -2.21771 -1.09236 -1.62621 0
M  V30 17 H -2.92528 -1.71178 0.432433 0
M  V30 18 H -1.28791 -1.59997 1.20798 0
M  V30 19 H -3.42129 0.460194 0.956149 0
M  V30 20 H -2.08781 0.371372 2.11522 0
M  V30 21 H -2.24547 1.95608 -0.252121 0
M  V30 22 H -0.776453 1.81395 0.833347 0
M  V30 23 H 1.01013 -0.247905 -1.60629 0
M  V30 24 H 1.02707 1.42708 -1.02464 0
M  V30 25 H 1.326 0.79839 1.05081 0
M  V30 26 H 4.52509 0.354717 -0.265672 0
M  V30 27 H 4.61915 -0.451024 1.19078 0
M  V30 END ATOM
M  V30 BEGIN BOND
M  V30 1 1 1 2
M  V30 2 1 2 3
M  V30 3 1 3 4
M  V30 4 1 4 5
M  V30 5 1 5 6
M  V30 6 1 2 7
M  V30 7 1 7 8
M  V30 8 1 8 9
M  V30 9 2 9 10
M  V30 10 2 9 11
M  V30 11 1 9 12
M  V30 12 1 6 2
M  V30 13 1 1 13
M  V30 14 1 1 14
M  V30 15 1 3 15
M  V30 16 1 3 16
M  V30 17 1 4 17
M  V30 18 1 4 18
M  V30 19 1 5 19
M  V30 20 1 5 20
M  V30 21 1 6 21
M  V30 22 1 6 22
M  V30 23 1 7 23
M  V30 24 1 7 24
M  V30 25 1 8 25
M  V30 26 1 12 26
M  V30 27 1 12 27
M  V30 END BOND
M  V30 END CTAB
M  END
