
     RDKit          3D

  0  0  0  0  0  0  0  0  0  0999 V3000
M  V30 BEGIN CTAB
M  V30 COUNTS 46 48 0 0 0
M  V30 BEGIN ATOM
M  V30 1 C -6.23763 2.01934 0.956933 0
M  V30 2 O -5.15633 1.47419 1.65605 0
M  V30 3 C -4.07148 0.817988 1.09291 0
M  V30 4 C -3.09762 0.34669 1.94375 0
M  V30 5 C -1.9796 -0.323748 1.43431 0
M  V30 6 C -1.81326 -0.535928 0.092258 0
M  V30 7 C -0.643273 -1.21628 -0.500455 0
M  V30 8 N 0.298946 -1.723 0.460324 0
M  V30 9 C -0.0188813 -2.87094 1.25436 0
M  V30 10 C 1.54229 -1.06175 0.61421 0
M  V30 11 C 2.30374 -0.723177 -0.494676 0
M  V30 12 C 3.49835 -0.0520968 -0.370893 0
M  V30 13 C 4.22438 0.26836 -1.5 0
M  V30 14 N 3.72034 -0.111978 -2.77236 0
M  V30 15 N 5.4066 0.937237 -1.35509 0
M  V30 16 C 5.878 1.2904 -0.142649 0
M  V30 17 N 7.11756 2.00236 -0.0144236 0
M  V30 18 N 5.15607 0.967222 0.933956 0
M  V30 19 C 3.97721 0.306165 0.880329 0
M  V30 20 C 3.23791 -0.0205084 1.99999 0
M  V30 21 C 2.04595 -0.691594 1.85186 0
M  V30 22 C -2.81309 -0.0494408 -0.761213 0
M  V30 23 O -2.61774 -0.276865 -2.11486 0
M  V30 24 C -3.5728 0.179683 -3.04215 0
M  V30 25 C -3.91344 0.612877 -0.247438 0
M  V30 26 H -6.0882 3.1146 0.825724 0
M  V30 27 H -6.42097 1.53987 -0.0134732 0
M  V30 28 H -7.17966 1.83082 1.55034 0
M  V30 29 H -3.16371 0.482069 3.02559 0
M  V30 30 H -1.2122 -0.67142 2.13202 0
M  V30 31 H -0.134334 -0.455363 -1.18004 0
M  V30 32 H -1.00637 -2.01398 -1.1875 0
M  V30 33 H -1.06906 -2.89541 1.54753 0
M  V30 34 H 0.12933 -3.80568 0.634773 0
M  V30 35 H 0.596335 -2.94658 2.18672 0
M  V30 36 H 1.95934 -0.990652 -1.5071 0
M  V30 37 H 2.74891 0.0224272 -3.10377 0
M  V30 38 H 4.42188 -0.571912 -3.41633 0
M  V30 39 H 7.26754 2.63936 0.792031 0
M  V30 40 H 7.83621 1.86531 -0.730977 0
M  V30 41 H 3.63666 0.272331 2.96858 0
M  V30 42 H 1.47193 -0.941205 2.73482 0
M  V30 43 H -3.44128 1.28804 -3.15889 0
M  V30 44 H -4.63004 0.0409655 -2.68171 0
M  V30 45 H -3.51532 -0.356546 -4.01802 0
M  V30 46 H -4.67916 0.987754 -0.92103 0
M  V30 END ATOM
M  V30 BEGIN BOND
M  V30 1 1 1 2
M  V30 2 1 2 3
M  V30 3 2 3 4
M  V30 4 1 4 5
M  V30 5 2 5 6
M  V30 6 1 6 7
M  V30 7 1 7 8
M  V30 8 1 8 9
M  V30 9 1 8 10
M  V30 10 2 10 11
M  V30 11 1 11 12
M  V30 12 2 12 13
M  V30 13 1 13 14
M  V30 14 1 13 15
M  V30 15 2 15 16
M  V30 16 1 16 17
M  V30 17 1 16 18
M  V30 18 2 18 19
M  V30 19 1 19 20
M  V30 20 2 20 21
M  V30 21 1 6 22
M  V30 22 1 22 23
M  V30 23 1 23 24
M  V30 24 2 22 25
M  V30 25 1 25 3
M  V30 26 1 21 10
M  V30 27 1 19 12
M  V30 28 1 1 26
M  V30 29 1 1 27
M  V30 30 1 1 28
M  V30 31 1 4 29
M  V30 32 1 5 30
M  V30 33 1 7 31
M  V30 34 1 7 32
M  V30 35 1 9 33
M  V30 36 1 9 34
M  V30 37 1 9 35
M  V30 38 1 11 36
M  V30 39 1 14 37
M  V30 40 1 14 38
M  V30 41 1 17 39
M  V30 42 1 17 40
M  V30 43 1 20 41
M  V30 44 1 21 42
M  V30 45 1 24 43
M  V30 46 1 24 44
M  V30 47 1 24 45
M  V30 48 1 25 46
M  V30 END BOND
M  V30 END CTAB
M  END
