
     RDKit          3D

  0  0  0  0  0  0  0  0  0  0999 V3000
M  V30 BEGIN CTAB
M  V30 COUNTS 32 35 0 0 0
M  V30 BEGIN ATOM
M  V30 1 N -6.95861 -0.864754 0.316854 0
M  V30 2 C -5.61318 -0.375462 0.368034 0
M  V30 3 C -5.32761 0.909721 0.766707 0
M  V30 4 C -4.06745 1.44225 0.839024 0
M  V30 5 C -2.9607 0.638965 0.485295 0
M  V30 6 C -1.58696 1.01832 0.49806 0
M  V30 7 O -1.12848 2.17541 0.840612 0
M  V30 8 C -0.664967 -0.0108799 0.0851694 0
M  V30 9 S -1.67058 -1.41746 -0.294716 0
M  V30 10 C -3.25419 -0.634982 0.0909562 0
M  V30 11 C -4.54101 -1.16047 0.0231172 0
M  V30 12 C 0.639242 0.0420548 -0.00360901 0
M  V30 13 S 1.69435 1.45058 0.372876 0
M  V30 14 C 3.23365 0.653211 -0.0142704 0
M  V30 15 C 4.5115 1.15759 0.047204 0
M  V30 16 C 5.60564 0.360632 -0.303535 0
M  V30 17 N 6.94677 0.814264 -0.263879 0
M  V30 18 C 5.34607 -0.928273 -0.705484 0
M  V30 19 C 4.07108 -1.40057 -0.756662 0
M  V30 20 C 2.9507 -0.619382 -0.408962 0
M  V30 21 C 1.56254 -0.993788 -0.418815 0
M  V30 22 O 1.12608 -2.16204 -0.766752 0
M  V30 23 H -7.72061 -0.556079 0.952689 0
M  V30 24 H -7.17578 -1.57613 -0.409119 0
M  V30 25 H -6.17333 1.54657 1.04457 0
M  V30 26 H -3.92398 2.47193 1.16538 0
M  V30 27 H -4.66512 -2.1663 -0.296981 0
M  V30 28 H 4.71449 2.16748 0.362175 0
M  V30 29 H 7.14761 1.78064 -0.591137 0
M  V30 30 H 7.73959 0.236729 0.0732012 0
M  V30 31 H 6.19703 -1.57751 -0.987921 0
M  V30 32 H 3.9462 -2.42226 -1.08187 0
M  V30 END ATOM
M  V30 BEGIN BOND
M  V30 1 1 1 2
M  V30 2 2 2 3
M  V30 3 1 3 4
M  V30 4 2 4 5
M  V30 5 1 5 6
M  V30 6 2 6 7
M  V30 7 1 6 8
M  V30 8 1 8 9
M  V30 9 1 9 10
M  V30 10 2 10 11
M  V30 11 2 8 12
M  V30 12 1 12 13
M  V30 13 1 13 14
M  V30 14 2 14 15
M  V30 15 1 15 16
M  V30 16 1 16 17
M  V30 17 2 16 18
M  V30 18 1 18 19
M  V30 19 2 19 20
M  V30 20 1 20 21
M  V30 21 2 21 22
M  V30 22 1 11 2
M  V30 23 1 21 12
M  V30 24 1 10 5
M  V30 25 1 20 14
M  V30 26 1 1 23
M  V30 27 1 1 24
M  V30 28 1 3 25
M  V30 29 1 4 26
M  V30 30 1 11 27
M  V30 31 1 15 28
M  V30 32 1 17 29
M  V30 33 1 17 30
M  V30 34 1 18 31
M  V30 35 1 19 32
M  V30 END BOND
M  V30 END CTAB
M  END
