
     RDKit          3D

  0  0  0  0  0  0  0  0  0  0999 V3000
M  V30 BEGIN CTAB
M  V30 COUNTS 36 35 0 0 0
M  V30 BEGIN ATOM
M  V30 1 N 3.18284 1.46494 0.918137 0
M  V30 2 C 2.9653 1.35273 -0.475775 0
M  V30 3 C 2.56999 0.0433376 -1.00511 0
M  V30 4 C 1.3105 -0.557043 -0.504576 0
M  V30 5 C 0.15292 0.333802 -0.806408 0
M  V30 6 Si -1.48033 -0.272278 -0.248341 0 VAL=4
M  V30 7 O -1.8926 0.323091 1.30866 0
M  V30 8 C -3.08911 1.0062 1.32145 0
M  V30 9 O -1.62707 -1.96931 -0.20908 0
M  V30 10 C -2.61639 -2.37531 0.712672 0
M  V30 11 O -2.68463 0.34584 -1.33956 0
M  V30 12 C -2.23893 1.57436 -1.82568 0
M  V30 13 C 1.36456 -1.04398 0.918435 0
M  V30 14 N 2.39404 -2.063 1.04317 0
M  V30 15 H 2.7376 2.31241 1.36103 0
M  V30 16 H 4.18728 1.5072 1.20015 0
M  V30 17 H 3.9232 1.65179 -0.992969 0
M  V30 18 H 2.23792 2.14609 -0.779257 0
M  V30 19 H 3.3887 -0.719947 -0.853999 0
M  V30 20 H 2.48555 0.123674 -2.11998 0
M  V30 21 H 1.14427 -1.49055 -1.12824 0
M  V30 22 H 0.13954 0.468493 -1.91991 0
M  V30 23 H 0.287121 1.37514 -0.407015 0
M  V30 24 H -3.66268 0.675315 2.21868 0
M  V30 25 H -3.71791 0.679035 0.446521 0
M  V30 26 H -2.9758 2.1113 1.33807 0
M  V30 27 H -2.21116 -3.32597 1.16404 0
M  V30 28 H -2.70265 -1.66797 1.55172 0
M  V30 29 H -3.55939 -2.63124 0.224847 0
M  V30 30 H -1.48711 1.47591 -2.62787 0
M  V30 31 H -3.09663 2.14595 -2.27058 0
M  V30 32 H -1.80911 2.21943 -1.03303 0
M  V30 33 H 0.408786 -1.60812 1.13882 0
M  V30 34 H 1.41421 -0.259707 1.66946 0
M  V30 35 H 2.17878 -2.71042 1.83436 0
M  V30 36 H 2.37841 -2.64122 0.177184 0
M  V30 END ATOM
M  V30 BEGIN BOND
M  V30 1 1 1 2
M  V30 2 1 2 3
M  V30 3 1 3 4
M  V30 4 1 4 5
M  V30 5 1 5 6
M  V30 6 1 6 7
M  V30 7 1 7 8
M  V30 8 1 6 9
M  V30 9 1 9 10
M  V30 10 1 6 11
M  V30 11 1 11 12
M  V30 12 1 4 13
M  V30 13 1 13 14
M  V30 14 1 1 15
M  V30 15 1 1 16
M  V30 16 1 2 17
M  V30 17 1 2 18
M  V30 18 1 3 19
M  V30 19 1 3 20
M  V30 20 1 4 21
M  V30 21 1 5 22
M  V30 22 1 5 23
M  V30 23 1 8 24
M  V30 24 1 8 25
M  V30 25 1 8 26
M  V30 26 1 10 27
M  V30 27 1 10 28
M  V30 28 1 10 29
M  V30 29 1 12 30
M  V30 30 1 12 31
M  V30 31 1 12 32
M  V30 32 1 13 33
M  V30 33 1 13 34
M  V30 34 1 14 35
M  V30 35 1 14 36
M  V30 END BOND
M  V30 END CTAB
M  END
