
     RDKit          3D

  0  0  0  0  0  0  0  0  0  0999 V3000
M  V30 BEGIN CTAB
M  V30 COUNTS 51 53 0 0 0
M  V30 BEGIN ATOM
M  V30 1 C 5.90035 2.23411 -3.31813 0
M  V30 2 C 4.51036 1.97195 -2.76619 0
M  V30 3 O 4.4947 0.682974 -2.22402 0
M  V30 4 C 3.29798 0.194635 -1.63978 0
M  V30 5 O 2.34178 0.966996 -1.65731 0
M  V30 6 N 3.30506 -1.08081 -1.11069 0
M  V30 7 C 2.18844 -1.72272 -0.488915 0
M  V30 8 N 2.41676 -3.00293 -0.0268484 0
M  V30 9 C 1.43082 -3.67432 0.56549 0
M  V30 10 N 1.70627 -5.00653 1.03407 0
M  V30 11 C 0.17861 -3.1401 0.73913 0
M  V30 12 N -0.844211 -3.87744 1.37061 0
M  V30 13 C -0.0777299 -1.86064 0.286466 0
M  V30 14 N -1.3655 -1.27949 0.438651 0
M  V30 15 C -1.77631 0.0394458 0.0876919 0
M  V30 16 C -1.13024 1.1166 0.880471 0
M  V30 17 C -0.864654 1.00124 2.23781 0
M  V30 18 C -0.282879 2.0334 2.95426 0
M  V30 19 C 0.0536192 3.22575 2.32281 0
M  V30 20 C -0.206274 3.34968 0.975114 0
M  V30 21 C -0.78763 2.30175 0.288353 0
M  V30 22 C -3.22996 0.230955 0.236234 0
M  V30 23 C -3.86684 -0.224355 1.35043 0
M  V30 24 C -5.24571 -0.0502865 1.50641 0
M  V30 25 C -5.96431 0.589884 0.518779 0
M  V30 26 C -5.3183 1.04682 -0.601908 0
M  V30 27 C -3.94229 0.861828 -0.735583 0
M  V30 28 C 0.95912 -1.1744 -0.328631 0
M  V30 29 H 6.16474 1.55083 -4.12588 0
M  V30 30 H 5.87244 3.28613 -3.72371 0
M  V30 31 H 6.59489 2.2629 -2.4703 0
M  V30 32 H 4.20395 2.74506 -2.04851 0
M  V30 33 H 3.82681 1.99278 -3.66021 0
M  V30 34 H 4.22638 -1.64237 -1.16975 0
M  V30 35 H 1.52725 -5.25566 2.0302 0
M  V30 36 H 2.08589 -5.74268 0.396794 0
M  V30 37 H -0.694617 -4.25987 2.31471 0
M  V30 38 H -1.74089 -4.03393 0.888444 0
M  V30 39 H -2.10521 -1.91707 0.86815 0
M  V30 40 H -1.47513 0.245816 -0.982867 0
M  V30 41 H -1.12998 0.0740892 2.71283 0
M  V30 42 H -0.0722192 1.95469 4.0085 0
M  V30 43 H 0.509984 4.01568 2.91953 0
M  V30 44 H 0.0619818 4.2826 0.502585 0
M  V30 45 H -0.966518 2.46895 -0.783278 0
M  V30 46 H -3.35214 -0.720145 2.13013 0
M  V30 47 H -5.761 -0.402119 2.37579 0
M  V30 48 H -7.04303 0.731955 0.629334 0
M  V30 49 H -5.87868 1.546 -1.37217 0
M  V30 50 H -3.47678 1.23085 -1.62031 0
M  V30 51 H 0.74085 -0.168496 -0.688981 0
M  V30 END ATOM
M  V30 BEGIN BOND
M  V30 1 1 1 2
M  V30 2 1 2 3
M  V30 3 1 3 4
M  V30 4 2 4 5
M  V30 5 1 4 6
M  V30 6 1 6 7
M  V30 7 2 7 8
M  V30 8 1 8 9
M  V30 9 1 9 10
M  V30 10 2 9 11
M  V30 11 1 11 12
M  V30 12 1 11 13
M  V30 13 1 13 14
M  V30 14 1 14 15
M  V30 15 1 15 16
M  V30 16 2 16 17
M  V30 17 1 17 18
M  V30 18 2 18 19
M  V30 19 1 19 20
M  V30 20 2 20 21
M  V30 21 1 15 22
M  V30 22 2 22 23
M  V30 23 1 23 24
M  V30 24 2 24 25
M  V30 25 1 25 26
M  V30 26 2 26 27
M  V30 27 2 13 28
M  V30 28 1 28 7
M  V30 29 1 21 16
M  V30 30 1 27 22
M  V30 31 1 1 29
M  V30 32 1 1 30
M  V30 33 1 1 31
M  V30 34 1 2 32
M  V30 35 1 2 33
M  V30 36 1 6 34
M  V30 37 1 10 35
M  V30 38 1 10 36
M  V30 39 1 12 37
M  V30 40 1 12 38
M  V30 41 1 14 39
M  V30 42 1 15 40
M  V30 43 1 17 41
M  V30 44 1 18 42
M  V30 45 1 19 43
M  V30 46 1 20 44
M  V30 47 1 21 45
M  V30 48 1 23 46
M  V30 49 1 24 47
M  V30 50 1 25 48
M  V30 51 1 26 49
M  V30 52 1 27 50
M  V30 53 1 28 51
M  V30 END BOND
M  V30 END CTAB
M  END
