
     RDKit          3D

  0  0  0  0  0  0  0  0  0  0999 V3000
M  V30 BEGIN CTAB
M  V30 COUNTS 25 24 0 0 0
M  V30 BEGIN ATOM
M  V30 1 N 2.98481 1.15605 0.407005 0
M  V30 2 C 1.72658 0.771107 -0.271033 0
M  V30 3 C 1.04527 -0.158222 0.651658 0
M  V30 4 C -0.254554 -0.736044 0.233535 0
M  V30 5 C -1.33673 0.205113 -0.0416984 0
M  V30 6 O -2.31484 0.258442 0.783645 0
M  V30 7 N -1.4036 1.07236 -1.14587 0
M  V30 8 N -2.48092 1.92633 -1.29665 0
M  V30 9 C -0.132813 -1.67774 -0.954054 0
M  V30 10 C -0.683146 -1.65741 1.38783 0
M  V30 11 H 3.21268 2.16371 0.153999 0
M  V30 12 H 2.80629 1.18078 1.43608 0
M  V30 13 H 1.11781 1.68588 -0.4356 0
M  V30 14 H 2.02977 0.328783 -1.22359 0
M  V30 15 H 1.75152 -0.979123 0.952348 0
M  V30 16 H 0.85866 0.383536 1.62523 0
M  V30 17 H -0.653219 1.06956 -1.85178 0
M  V30 18 H -2.31266 2.82614 -0.797861 0
M  V30 19 H -3.31519 1.46333 -0.853787 0
M  V30 20 H 0.529905 -2.51562 -0.69955 0
M  V30 21 H -1.14423 -2.09726 -1.11875 0
M  V30 22 H 0.145106 -1.15006 -1.88048 0
M  V30 23 H -0.721473 -1.02397 2.28773 0
M  V30 24 H -1.62133 -2.13918 1.12299 0
M  V30 25 H 0.166311 -2.35648 1.52864 0
M  V30 END ATOM
M  V30 BEGIN BOND
M  V30 1 1 1 2
M  V30 2 1 2 3
M  V30 3 1 3 4
M  V30 4 1 4 5
M  V30 5 2 5 6
M  V30 6 1 5 7
M  V30 7 1 7 8
M  V30 8 1 4 9
M  V30 9 1 4 10
M  V30 10 1 1 11
M  V30 11 1 1 12
M  V30 12 1 2 13
M  V30 13 1 2 14
M  V30 14 1 3 15
M  V30 15 1 3 16
M  V30 16 1 7 17
M  V30 17 1 8 18
M  V30 18 1 8 19
M  V30 19 1 9 20
M  V30 20 1 9 21
M  V30 21 1 9 22
M  V30 22 1 10 23
M  V30 23 1 10 24
M  V30 24 1 10 25
M  V30 END BOND
M  V30 END CTAB
M  END
