
     RDKit          3D

  0  0  0  0  0  0  0  0  0  0999 V3000
M  V30 BEGIN CTAB
M  V30 COUNTS 54 55 0 0 0
M  V30 BEGIN ATOM
M  V30 1 N 2.24233 0.948085 2.98435 0
M  V30 2 C 2.65378 1.1118 1.57649 0
M  V30 3 C 2.36438 -0.12196 0.784113 0
M  V30 4 N 0.934697 -0.396437 0.838957 0
M  V30 5 C -0.0979023 0.443702 0.412707 0
M  V30 6 O 0.184383 1.55846 -0.0726546 0
M  V30 7 C -1.54698 0.0935843 0.499053 0
M  V30 8 C -1.85877 -1.12949 -0.282306 0
M  V30 9 C -3.08602 -1.15926 -1.08311 0
M  V30 10 C -4.24913 -1.72882 -0.295531 0
M  V30 11 C -4.64418 -0.792432 0.795934 0
M  V30 12 C -4.76092 0.640629 0.394992 0
M  V30 13 C -3.63352 1.11597 -0.498227 0
M  V30 14 C -2.40701 1.27972 0.294402 0
M  V30 15 C -3.5401 0.155648 -1.64692 0
M  V30 16 N -2.78961 0.616625 -2.75623 0
M  V30 17 C 2.74022 -0.120574 -0.632521 0
M  V30 18 C 4.11862 0.0584249 -1.09106 0
M  V30 19 C 4.83003 1.31165 -0.747102 0
M  V30 20 C 5.04758 -1.09869 -0.787681 0
M  V30 21 C 3.00272 -1.2724 1.56939 0
M  V30 22 H 2.43613 1.87433 3.44005 0
M  V30 23 H 1.21329 0.770489 3.00171 0
M  V30 24 H 2.16146 2.03643 1.23767 0
M  V30 25 H 3.73546 1.34987 1.64749 0
M  V30 26 H 0.587102 -1.33107 1.23965 0
M  V30 27 H -1.66647 -0.196028 1.59261 0
M  V30 28 H -0.986114 -1.29917 -0.984759 0
M  V30 29 H -1.84105 -2.06633 0.355312 0
M  V30 30 H -2.96901 -1.84847 -1.97201 0
M  V30 31 H -5.09801 -1.9369 -1.00403 0
M  V30 32 H -3.92052 -2.67902 0.166288 0
M  V30 33 H -3.94706 -0.933204 1.64744 0
M  V30 34 H -5.66455 -1.11395 1.14617 0
M  V30 35 H -4.75231 1.25089 1.34301 0
M  V30 36 H -5.72609 0.824085 -0.142835 0
M  V30 37 H -3.9517 2.10122 -0.927936 0
M  V30 38 H -2.69527 1.77972 1.26867 0
M  V30 39 H -1.77355 2.06968 -0.211564 0
M  V30 40 H -4.58741 -0.00337367 -2.002 0
M  V30 41 H -1.77972 0.673017 -2.64728 0
M  V30 42 H -3.26164 1.3975 -3.2181 0
M  V30 43 H 2.39019 -1.10891 -1.06662 0
M  V30 44 H 2.10928 0.621917 -1.17685 0
M  V30 45 H 4.04158 0.0516523 -2.2263 0
M  V30 46 H 4.10331 2.1601 -0.58008 0
M  V30 47 H 5.44655 1.63949 -1.60886 0
M  V30 48 H 5.54584 1.2137 0.0951099 0
M  V30 49 H 4.56904 -2.08568 -0.951037 0
M  V30 50 H 5.53353 -1.00764 0.205927 0
M  V30 51 H 5.88233 -1.03987 -1.5276 0
M  V30 52 H 3.06418 -2.19583 0.96106 0
M  V30 53 H 3.96614 -0.972576 2.02108 0
M  V30 54 H 2.33046 -1.51033 2.4218 0
M  V30 END ATOM
M  V30 BEGIN BOND
M  V30 1 1 1 2
M  V30 2 1 2 3
M  V30 3 1 3 4
M  V30 4 1 4 5
M  V30 5 2 5 6
M  V30 6 1 5 7
M  V30 7 1 7 8
M  V30 8 1 8 9
M  V30 9 1 9 10
M  V30 10 1 10 11
M  V30 11 1 11 12
M  V30 12 1 12 13
M  V30 13 1 13 14
M  V30 14 1 13 15
M  V30 15 1 15 16
M  V30 16 1 3 17
M  V30 17 1 17 18
M  V30 18 1 18 19
M  V30 19 1 18 20
M  V30 20 1 3 21
M  V30 21 1 14 7
M  V30 22 1 15 9
M  V30 23 1 1 22
M  V30 24 1 1 23
M  V30 25 1 2 24
M  V30 26 1 2 25
M  V30 27 1 4 26
M  V30 28 1 7 27
M  V30 29 1 8 28
M  V30 30 1 8 29
M  V30 31 1 9 30
M  V30 32 1 10 31
M  V30 33 1 10 32
M  V30 34 1 11 33
M  V30 35 1 11 34
M  V30 36 1 12 35
M  V30 37 1 12 36
M  V30 38 1 13 37
M  V30 39 1 14 38
M  V30 40 1 14 39
M  V30 41 1 15 40
M  V30 42 1 16 41
M  V30 43 1 16 42
M  V30 44 1 17 43
M  V30 45 1 17 44
M  V30 46 1 18 45
M  V30 47 1 19 46
M  V30 48 1 19 47
M  V30 49 1 19 48
M  V30 50 1 20 49
M  V30 51 1 20 50
M  V30 52 1 20 51
M  V30 53 1 21 52
M  V30 54 1 21 53
M  V30 55 1 21 54
M  V30 END BOND
M  V30 END CTAB
M  END
