
     RDKit          3D

  0  0  0  0  0  0  0  0  0  0999 V3000
M  V30 BEGIN CTAB
M  V30 COUNTS 16 16 0 0 0
M  V30 BEGIN ATOM
M  V30 1 N 2.33616 -1.23534 -0.0492714 0
M  V30 2 C 1.18964 -0.381629 -0.00450458 0
M  V30 3 C -0.0675673 -0.945507 -0.0892647 0
M  V30 4 C -1.23102 -0.188242 -0.0535723 0
M  V30 5 N -2.51541 -0.77167 -0.14083 0
M  V30 6 C -1.11991 1.19125 0.0725625 0
M  V30 7 Cl -2.55713 2.21219 0.124241 0
M  V30 8 C 0.138813 1.75651 0.15749 0
M  V30 9 C 1.29069 0.982227 0.11996 0
M  V30 10 Cl 2.88107 1.70006 0.227566 0
M  V30 11 H 2.89626 -1.39648 -0.913153 0
M  V30 12 H 2.67775 -1.7555 0.811946 0
M  V30 13 H -0.14915 -2.0173 -0.187144 0
M  V30 14 H -2.98262 -1.09216 0.725073 0
M  V30 15 H -2.98313 -0.877723 -1.05498 0
M  V30 16 H 0.195549 2.81929 0.253885 0
M  V30 END ATOM
M  V30 BEGIN BOND
M  V30 1 1 1 2
M  V30 2 2 2 3
M  V30 3 1 3 4
M  V30 4 1 4 5
M  V30 5 2 4 6
M  V30 6 1 6 7
M  V30 7 1 6 8
M  V30 8 2 8 9
M  V30 9 1 9 10
M  V30 10 1 9 2
M  V30 11 1 1 11
M  V30 12 1 1 12
M  V30 13 1 3 13
M  V30 14 1 5 14
M  V30 15 1 5 15
M  V30 16 1 8 16
M  V30 END BOND
M  V30 END CTAB
M  END
