
     RDKit          3D

  0  0  0  0  0  0  0  0  0  0999 V3000
M  V30 BEGIN CTAB
M  V30 COUNTS 35 36 0 0 0
M  V30 BEGIN ATOM
M  V30 1 C -3.64737 2.20435 0.426446 0
M  V30 2 O -3.93983 0.82129 0.363345 0
M  V30 3 C -2.89197 -0.0415983 0.0841728 0
M  V30 4 C -1.59137 0.426376 -0.128709 0
M  V30 5 C -0.545792 -0.425329 -0.406284 0
M  V30 6 C -0.83772 -1.77066 -0.466067 0
M  V30 7 C -2.13281 -2.25996 -0.256324 0
M  V30 8 C -3.16286 -1.39025 0.0198661 0
M  V30 9 N -4.48885 -1.84929 0.238357 0
M  V30 10 N 0.778117 0.0644928 -0.606949 0
M  V30 11 C 1.82497 -0.726457 -1.27279 0
M  V30 12 C 2.91817 -0.998245 -0.261641 0
M  V30 13 C 3.44399 0.388935 0.130538 0
M  V30 14 C 2.34568 1.09481 0.856706 0
M  V30 15 C 1.22605 1.37044 -0.162042 0
M  V30 16 F 2.74735 2.25002 1.47136 0
M  V30 17 N 4.66714 0.296291 0.874808 0
M  V30 18 H -2.84547 2.3301 1.18297 0
M  V30 19 H -3.38809 2.63131 -0.56166 0
M  V30 20 H -4.57383 2.69467 0.840204 0
M  V30 21 H -1.4106 1.49527 -0.0757503 0
M  V30 22 H -0.0567035 -2.47445 -0.673923 0
M  V30 23 H -2.36131 -3.31626 -0.303591 0
M  V30 24 H -5.18799 -1.29951 0.785148 0
M  V30 25 H -4.82516 -2.76537 -0.142069 0
M  V30 26 H 1.394 -1.62746 -1.71856 0
M  V30 27 H 2.30644 -0.100018 -2.06586 0
M  V30 28 H 2.45539 -1.49787 0.602932 0
M  V30 29 H 3.70333 -1.61597 -0.701329 0
M  V30 30 H 3.59678 0.920043 -0.847419 0
M  V30 31 H 1.88998 0.363815 1.57953 0
M  V30 32 H 0.464124 2.01932 0.247604 0
M  V30 33 H 1.71685 1.83981 -1.06303 0
M  V30 34 H 5.08376 1.25207 0.912108 0
M  V30 35 H 5.3256 -0.304708 0.32346 0
M  V30 END ATOM
M  V30 BEGIN BOND
M  V30 1 1 1 2
M  V30 2 1 2 3
M  V30 3 2 3 4
M  V30 4 1 4 5
M  V30 5 2 5 6
M  V30 6 1 6 7
M  V30 7 2 7 8
M  V30 8 1 8 9
M  V30 9 1 5 10
M  V30 10 1 10 11
M  V30 11 1 11 12
M  V30 12 1 12 13
M  V30 13 1 13 14
M  V30 14 1 14 15
M  V30 15 1 14 16
M  V30 16 1 13 17
M  V30 17 1 8 3
M  V30 18 1 15 10
M  V30 19 1 1 18
M  V30 20 1 1 19
M  V30 21 1 1 20
M  V30 22 1 4 21
M  V30 23 1 6 22
M  V30 24 1 7 23
M  V30 25 1 9 24
M  V30 26 1 9 25
M  V30 27 1 11 26
M  V30 28 1 11 27
M  V30 29 1 12 28
M  V30 30 1 12 29
M  V30 31 1 13 30
M  V30 32 1 14 31
M  V30 33 1 15 32
M  V30 34 1 15 33
M  V30 35 1 17 34
M  V30 36 1 17 35
M  V30 END BOND
M  V30 END CTAB
M  END
