
     RDKit          3D

  0  0  0  0  0  0  0  0  0  0999 V3000
M  V30 BEGIN CTAB
M  V30 COUNTS 34 35 0 0 0
M  V30 BEGIN ATOM
M  V30 1 N -4.81079 0.527055 1.22079 0
M  V30 2 C -3.81673 0.230617 0.219321 0
M  V30 3 C -2.4461 0.0452779 0.889332 0
M  V30 4 N -1.43892 -0.250682 -0.0841862 0
M  V30 5 C -1.53201 -1.49097 -0.718611 0
M  V30 6 C -0.319624 -2.13554 -1.25095 0
M  V30 7 C 0.925335 -1.28935 -1.24222 0
M  V30 8 C 0.929317 -0.559408 0.0822443 0 CFG=2
M  V30 9 C -0.215733 0.416694 0.0386344 0
M  V30 10 C 2.20627 0.14229 0.30957 0
M  V30 11 N 3.08569 -0.135692 1.28942 0
M  V30 12 N 4.12798 0.676184 1.22946 0
M  V30 13 C 3.97916 1.53521 0.19381 0
M  V30 14 C 2.75775 1.18828 -0.381351 0
M  V30 15 N 4.86612 2.56837 -0.223578 0
M  V30 16 H -5.48649 1.24667 0.92334 0
M  V30 17 H -4.37524 0.82249 2.11012 0
M  V30 18 H -3.70673 1.09298 -0.487928 0
M  V30 19 H -4.04745 -0.70375 -0.354552 0
M  V30 20 H -2.50176 -0.675319 1.72041 0
M  V30 21 H -2.20345 1.03681 1.32849 0
M  V30 22 H -2.31573 -1.41101 -1.52112 0
M  V30 23 H -2.00768 -2.20942 0.0175093 0
M  V30 24 H -0.483354 -2.45607 -2.30708 0
M  V30 25 H -0.0768646 -3.09852 -0.709334 0
M  V30 26 H 1.79951 -1.98576 -1.28531 0
M  V30 27 H 0.984871 -0.615619 -2.10764 0
M  V30 28 H 0.726928 -1.32682 0.857652 0
M  V30 29 H -0.199389 0.977042 1.01589 0
M  V30 30 H -0.100362 1.1349 -0.809201 0
M  V30 31 H 2.98791 -0.894607 2.0271 0
M  V30 32 H 2.34299 1.6917 -1.24063 0
M  V30 33 H 5.81451 2.33599 -0.53157 0
M  V30 34 H 4.55007 3.56999 -0.217833 0
M  V30 END ATOM
M  V30 BEGIN BOND
M  V30 1 1 1 2
M  V30 2 1 2 3
M  V30 3 1 3 4
M  V30 4 1 4 5
M  V30 5 1 5 6
M  V30 6 1 6 7
M  V30 7 1 7 8
M  V30 8 1 8 9
M  V30 9 1 8 10
M  V30 10 1 10 11
M  V30 11 1 11 12
M  V30 12 2 12 13
M  V30 13 1 13 14
M  V30 14 1 13 15
M  V30 15 1 9 4
M  V30 16 2 14 10
M  V30 17 1 1 16
M  V30 18 1 1 17
M  V30 19 1 2 18
M  V30 20 1 2 19
M  V30 21 1 3 20
M  V30 22 1 3 21
M  V30 23 1 5 22
M  V30 24 1 5 23
M  V30 25 1 6 24
M  V30 26 1 6 25
M  V30 27 1 7 26
M  V30 28 1 7 27
M  V30 29 1 8 28 CFG=1
M  V30 30 1 9 29
M  V30 31 1 9 30
M  V30 32 1 11 31
M  V30 33 1 14 32
M  V30 34 1 15 33
M  V30 35 1 15 34
M  V30 END BOND
M  V30 END CTAB
M  END
