
     RDKit          3D

  0  0  0  0  0  0  0  0  0  0999 V3000
M  V30 BEGIN CTAB
M  V30 COUNTS 31 32 0 0 0
M  V30 BEGIN ATOM
M  V30 1 N -3.5254 -1.41398 0.0303461 0
M  V30 2 C -2.20372 -1.10073 0.545761 0
M  V30 3 C -1.5038 -0.122046 -0.377629 0
M  V30 4 N -0.193689 0.20888 0.107525 0
M  V30 5 C 0.750214 -0.914282 0.188164 0
M  V30 6 C 1.78876 0.0547981 -0.254107 0
M  V30 7 C 0.705041 0.781879 -0.90278 0
M  V30 8 C 2.63503 0.710743 0.771217 0
M  V30 9 C 3.69714 -0.348763 0.41897 0
M  V30 10 C 2.98656 -0.410656 -0.947091 0
M  V30 11 C -2.30691 1.18111 -0.309956 0
M  V30 12 N -2.31428 1.66742 1.07388 0
M  V30 13 H -3.42871 -1.39433 -1.02918 0
M  V30 14 H -3.78709 -2.37279 0.312249 0
M  V30 15 H -1.64909 -2.03607 0.696139 0
M  V30 16 H -2.35449 -0.532303 1.50756 0
M  V30 17 H -1.536 -0.496079 -1.40408 0
M  V30 18 H 0.941253 -1.26261 1.2209 0
M  V30 19 H 0.593165 -1.69897 -0.555139 0
M  V30 20 H 0.455016 0.35902 -1.90481 0
M  V30 21 H 0.707355 1.87937 -0.947366 0
M  V30 22 H 3.04513 1.69287 0.458447 0
M  V30 23 H 2.27767 0.667918 1.8022 0
M  V30 24 H 3.53408 -1.30022 0.973263 0
M  V30 25 H 4.72385 0.0102946 0.389606 0
M  V30 26 H 2.99781 -1.42112 -1.39137 0
M  V30 27 H 3.4511 0.377281 -1.59051 0
M  V30 28 H -1.87027 1.9707 -0.919526 0
M  V30 29 H -3.35339 1.03827 -0.600362 0
M  V30 30 H -3.24381 1.55642 1.50819 0
M  V30 31 H -2.01854 2.66796 1.12949 0
M  V30 END ATOM
M  V30 BEGIN BOND
M  V30 1 1 1 2
M  V30 2 1 2 3
M  V30 3 1 3 4
M  V30 4 1 4 5
M  V30 5 1 5 6
M  V30 6 1 6 7
M  V30 7 1 6 8
M  V30 8 1 8 9
M  V30 9 1 9 10
M  V30 10 1 3 11
M  V30 11 1 11 12
M  V30 12 1 7 4
M  V30 13 1 10 6
M  V30 14 1 1 13
M  V30 15 1 1 14
M  V30 16 1 2 15
M  V30 17 1 2 16
M  V30 18 1 3 17
M  V30 19 1 5 18
M  V30 20 1 5 19
M  V30 21 1 7 20
M  V30 22 1 7 21
M  V30 23 1 8 22
M  V30 24 1 8 23
M  V30 25 1 9 24
M  V30 26 1 9 25
M  V30 27 1 10 26
M  V30 28 1 10 27
M  V30 29 1 11 28
M  V30 30 1 11 29
M  V30 31 1 12 30
M  V30 32 1 12 31
M  V30 END BOND
M  V30 END CTAB
M  END
