
     RDKit          3D

  0  0  0  0  0  0  0  0  0  0999 V3000
M  V30 BEGIN CTAB
M  V30 COUNTS 24 25 0 0 0
M  V30 BEGIN ATOM
M  V30 1 N -0.117873 1.30477 -1.99232 0
M  V30 2 C -0.991329 0.651438 -1.10349 0
M  V30 3 N -2.33471 0.802725 -1.15206 0
M  V30 4 C -3.12283 0.174566 -0.283559 0
M  V30 5 N -4.55798 0.327253 -0.297365 0
M  V30 6 N -2.59562 -0.636317 0.672758 0 CHG=1
M  V30 7 N -1.29812 -0.794409 0.733011 0
M  V30 8 C -0.482164 -0.183908 -0.113919 0
M  V30 9 C 0.981738 -0.295925 -0.0627283 0
M  V30 10 C 1.72217 -0.841252 -1.0869 0
M  V30 11 C 3.10735 -0.934272 -0.951848 0
M  V30 12 C 3.79504 -0.502322 0.170874 0
M  V30 13 C 3.03289 0.0374134 1.17536 0
M  V30 14 C 1.67592 0.135274 1.06273 0
M  V30 15 Cl 0.689143 0.834127 2.35587 0
M  V30 16 Cl 3.82411 0.616077 2.64347 0
M  V30 17 O -3.41979 -1.30504 1.58148 0 CHG=-1
M  V30 18 H -0.0324804 0.891996 -2.95484 0
M  V30 19 H 0.432851 2.16822 -1.71959 0
M  V30 20 H -5.06388 1.07927 0.200756 0
M  V30 21 H -5.08844 -0.382588 -0.864851 0
M  V30 22 H 1.24227 -1.19845 -1.991 0
M  V30 23 H 3.74033 -1.3605 -1.73684 0
M  V30 24 H 4.86139 -0.588149 0.262496 0
M  V30 END ATOM
M  V30 BEGIN BOND
M  V30 1 1 1 2
M  V30 2 2 2 3
M  V30 3 1 3 4
M  V30 4 1 4 5
M  V30 5 2 4 6
M  V30 6 1 6 7
M  V30 7 2 7 8
M  V30 8 1 8 9
M  V30 9 2 9 10
M  V30 10 1 10 11
M  V30 11 2 11 12
M  V30 12 1 12 13
M  V30 13 2 13 14
M  V30 14 1 14 15
M  V30 15 1 13 16
M  V30 16 1 6 17
M  V30 17 1 8 2
M  V30 18 1 14 9
M  V30 19 1 1 18
M  V30 20 1 1 19
M  V30 21 1 5 20
M  V30 22 1 5 21
M  V30 23 1 10 22
M  V30 24 1 11 23
M  V30 25 1 12 24
M  V30 END BOND
M  V30 END CTAB
M  END
