
     RDKit          3D

  0  0  0  0  0  0  0  0  0  0999 V3000
M  V30 BEGIN CTAB
M  V30 COUNTS 37 39 0 0 0
M  V30 BEGIN ATOM
M  V30 1 C -1.89622 2.83252 0.324744 0
M  V30 2 O -2.14302 1.63703 1.00253 0
M  V30 3 C -1.72781 0.605559 0.201007 0 CFG=2
M  V30 4 C -2.85391 -0.398696 -0.0839447 0 CFG=2
M  V30 5 O -3.69987 -0.429533 1.04113 0
M  V30 6 C -2.09746 -1.70018 -0.0949959 0 CFG=1
M  V30 7 C -2.43574 -2.41619 -1.38052 0
M  V30 8 O -3.82012 -2.64915 -1.36129 0
M  V30 9 O -0.752217 -1.40506 0.0209239 0
M  V30 10 C -0.737723 -0.323884 0.879536 0 CFG=1
M  V30 11 N 0.562711 0.271768 1.03011 0
M  V30 12 C 0.882878 1.14273 1.98836 0
M  V30 13 N 2.16853 1.52447 1.87381 0
M  V30 14 C 2.69043 0.897259 0.832531 0
M  V30 15 C 1.67736 0.105686 0.298637 0
M  V30 16 N 1.9181 -0.653838 -0.779674 0
M  V30 17 C 3.14027 -0.646399 -1.34062 0
M  V30 18 N 3.44207 -1.43539 -2.48493 0
M  V30 19 N 4.12873 0.134321 -0.809048 0
M  V30 20 C 3.94958 0.913877 0.265998 0
M  V30 21 N 4.95724 1.72571 0.828242 0
M  V30 22 H -2.46038 2.85908 -0.652986 0
M  V30 23 H -2.25763 3.71327 0.896788 0
M  V30 24 H -0.822166 2.95009 0.0521531 0
M  V30 25 H -1.30369 0.952641 -0.773656 0
M  V30 26 H -3.38427 -0.176037 -1.00872 0
M  V30 27 H -3.32529 -1.03694 1.74078 0
M  V30 28 H -2.3595 -2.35892 0.77076 0
M  V30 29 H -2.26728 -1.71574 -2.23502 0
M  V30 30 H -1.93618 -3.37884 -1.49246 0
M  V30 31 H -4.09565 -3.0173 -0.466798 0
M  V30 32 H -1.18807 -0.644525 1.83413 0
M  V30 33 H 0.249984 1.5392 2.78801 0
M  V30 34 H 3.30006 -1.0968 -3.45315 0
M  V30 35 H 3.81897 -2.38644 -2.33446 0
M  V30 36 H 5.78429 1.30403 1.29247 0
M  V30 37 H 4.89299 2.76063 0.789641 0
M  V30 END ATOM
M  V30 BEGIN BOND
M  V30 1 1 1 2
M  V30 2 1 2 3
M  V30 3 1 3 4
M  V30 4 1 4 5
M  V30 5 1 4 6
M  V30 6 1 6 7
M  V30 7 1 7 8
M  V30 8 1 6 9
M  V30 9 1 9 10
M  V30 10 1 10 11
M  V30 11 1 11 12
M  V30 12 2 12 13
M  V30 13 1 13 14
M  V30 14 2 14 15
M  V30 15 1 15 16
M  V30 16 2 16 17
M  V30 17 1 17 18
M  V30 18 1 17 19
M  V30 19 2 19 20
M  V30 20 1 20 21
M  V30 21 1 10 3
M  V30 22 1 15 11
M  V30 23 1 20 14
M  V30 24 1 1 22
M  V30 25 1 1 23
M  V30 26 1 1 24
M  V30 27 1 3 25 CFG=3
M  V30 28 1 4 26 CFG=3
M  V30 29 1 5 27
M  V30 30 1 6 28 CFG=1
M  V30 31 1 7 29
M  V30 32 1 7 30
M  V30 33 1 8 31
M  V30 34 1 10 32 CFG=1
M  V30 35 1 12 33
M  V30 36 1 18 34
M  V30 37 1 18 35
M  V30 38 1 21 36
M  V30 39 1 21 37
M  V30 END BOND
M  V30 END CTAB
M  END
