
     RDKit          3D

  0  0  0  0  0  0  0  0  0  0999 V3000
M  V30 BEGIN CTAB
M  V30 COUNTS 31 30 0 0 0
M  V30 BEGIN ATOM
M  V30 1 C -3.10426 -0.588074 0.654704 0 CFG=1
M  V30 2 N -3.58919 -1.67446 -0.159235 0
M  V30 3 C -2.13619 0.284615 -0.160948 0
M  V30 4 C -1.02172 -0.612158 -0.583687 0
M  V30 5 S 0.257014 0.214286 -1.55978 0
M  V30 6 C 1.17271 1.4301 -0.574923 0
M  V30 7 C 1.95079 0.665135 0.504004 0
M  V30 8 C 2.89846 -0.306502 -0.173835 0 CFG=1
M  V30 9 N 3.85404 0.362158 -1.02521 0
M  V30 10 C 3.6228 -1.11941 0.823209 0
M  V30 11 O 5.02425 -1.15719 0.827894 0
M  V30 12 O 3.01118 -1.7909 1.68435 0
M  V30 13 C -4.26949 0.240996 1.1008 0
M  V30 14 O -4.02314 1.36597 1.87943 0
M  V30 15 O -5.41679 -0.0988072 0.762439 0
M  V30 16 H -2.54025 -0.940461 1.53019 0
M  V30 17 H -3.92226 -1.31592 -1.08397 0
M  V30 18 H -2.90717 -2.44068 -0.238199 0
M  V30 19 H -2.70147 0.658277 -1.05444 0
M  V30 20 H -1.85317 1.13877 0.443394 0
M  V30 21 H -0.587626 -1.10897 0.317539 0
M  V30 22 H -1.44808 -1.41366 -1.2245 0
M  V30 23 H 1.93798 1.88343 -1.23364 0
M  V30 24 H 0.507132 2.1666 -0.120769 0
M  V30 25 H 1.24655 0.0959631 1.12841 0
M  V30 26 H 2.55559 1.39084 1.05977 0
M  V30 27 H 2.31656 -1.01677 -0.806043 0
M  V30 28 H 3.4295 0.674619 -1.90325 0
M  V30 29 H 4.26123 1.14134 -0.485031 0
M  V30 30 H 5.52565 -0.382708 1.1968 0
M  V30 31 H -4.05063 2.25359 1.37909 0
M  V30 END ATOM
M  V30 BEGIN BOND
M  V30 1 1 1 2
M  V30 2 1 1 3
M  V30 3 1 3 4
M  V30 4 1 4 5
M  V30 5 1 5 6
M  V30 6 1 6 7
M  V30 7 1 7 8
M  V30 8 1 8 9
M  V30 9 1 8 10
M  V30 10 1 10 11
M  V30 11 2 10 12
M  V30 12 1 1 13
M  V30 13 1 13 14
M  V30 14 2 13 15
M  V30 15 1 1 16 CFG=1
M  V30 16 1 2 17
M  V30 17 1 2 18
M  V30 18 1 3 19
M  V30 19 1 3 20
M  V30 20 1 4 21
M  V30 21 1 4 22
M  V30 22 1 6 23
M  V30 23 1 6 24
M  V30 24 1 7 25
M  V30 25 1 7 26
M  V30 26 1 8 27 CFG=3
M  V30 27 1 9 28
M  V30 28 1 9 29
M  V30 29 1 11 30
M  V30 30 1 14 31
M  V30 END BOND
M  V30 END CTAB
M  END
