
     RDKit          3D

  0  0  0  0  0  0  0  0  0  0999 V3000
M  V30 BEGIN CTAB
M  V30 COUNTS 29 29 0 0 0
M  V30 BEGIN ATOM
M  V30 1 N 2.02292 1.8055 1.09105 0
M  V30 2 C 2.29098 0.941917 -0.0124778 0
M  V30 3 C 1.60545 -0.399288 0.0970158 0
M  V30 4 N 0.167292 -0.204802 0.159981 0
M  V30 5 C -0.646242 0.378602 -0.838587 0
M  V30 6 O -0.293462 0.843955 -1.97484 0
M  V30 7 C -2.01216 0.353684 -0.320868 0
M  V30 8 C -2.02282 -0.194536 0.880397 0
M  V30 9 C -0.673593 -0.577438 1.25927 0
M  V30 10 O -0.302927 -1.13369 2.34875 0
M  V30 11 C -3.25761 -0.372205 1.68724 0
M  V30 12 C -3.1804 0.884732 -1.08481 0
M  V30 13 C 1.89155 -1.26845 -1.08889 0
M  V30 14 N 3.32343 -1.52601 -1.23351 0
M  V30 15 H 2.5997 1.65721 1.92769 0
M  V30 16 H 2.03457 2.82135 0.847324 0
M  V30 17 H 3.39686 0.766359 -0.0665113 0
M  V30 18 H 2.0114 1.43236 -0.963923 0
M  V30 19 H 1.96245 -0.876137 1.01784 0
M  V30 20 H -3.81126 0.595787 1.67979 0
M  V30 21 H -3.04014 -0.613675 2.74281 0
M  V30 22 H -3.89656 -1.12226 1.20183 0
M  V30 23 H -3.15949 0.404749 -2.0736 0
M  V30 24 H -2.97541 1.9743 -1.23619 0
M  V30 25 H -4.12276 0.75726 -0.547301 0
M  V30 26 H 1.43208 -2.26958 -0.895212 0
M  V30 27 H 1.55556 -0.832857 -2.03645 0
M  V30 28 H 3.66829 -2.14439 -0.455635 0
M  V30 29 H 3.43228 -2.08245 -2.11219 0
M  V30 END ATOM
M  V30 BEGIN BOND
M  V30 1 1 1 2
M  V30 2 1 2 3
M  V30 3 1 3 4
M  V30 4 1 4 5
M  V30 5 2 5 6
M  V30 6 1 5 7
M  V30 7 2 7 8
M  V30 8 1 8 9
M  V30 9 2 9 10
M  V30 10 1 8 11
M  V30 11 1 7 12
M  V30 12 1 3 13
M  V30 13 1 13 14
M  V30 14 1 9 4
M  V30 15 1 1 15
M  V30 16 1 1 16
M  V30 17 1 2 17
M  V30 18 1 2 18
M  V30 19 1 3 19
M  V30 20 1 11 20
M  V30 21 1 11 21
M  V30 22 1 11 22
M  V30 23 1 12 23
M  V30 24 1 12 24
M  V30 25 1 12 25
M  V30 26 1 13 26
M  V30 27 1 13 27
M  V30 28 1 14 28
M  V30 29 1 14 29
M  V30 END BOND
M  V30 END CTAB
M  END
