
     RDKit          3D

  0  0  0  0  0  0  0  0  0  0999 V3000
M  V30 BEGIN CTAB
M  V30 COUNTS 31 33 0 0 0
M  V30 BEGIN ATOM
M  V30 1 N -4.31184 -0.42936 1.62809 0
M  V30 2 C -3.44393 -0.0022509 0.653364 0 CFG=2
M  V30 3 C -3.12323 -1.06586 -0.404663 0
M  V30 4 C -1.94421 -0.382978 -1.08023 0
M  V30 5 N -1.14629 -0.0263633 0.0763218 0
M  V30 6 C -2.06202 0.36985 1.11888 0
M  V30 7 C 0.248735 -0.0664988 0.145842 0
M  V30 8 N 1.04897 -0.769366 0.963168 0
M  V30 9 C 2.34746 -0.513936 0.693068 0
M  V30 10 N 2.35681 0.363265 -0.309906 0
M  V30 11 C 1.09709 0.666267 -0.677748 0
M  V30 12 N 0.67784 1.55606 -1.7024 0
M  V30 13 C 3.5393 0.809973 -0.800689 0
M  V30 14 C 4.72287 0.354622 -0.259903 0
M  V30 15 C 4.72255 -0.556897 0.782461 0
M  V30 16 C 3.52062 -0.996012 1.26424 0
M  V30 17 H -4.32312 -1.35196 1.94391 0
M  V30 18 H -5.04604 0.169078 1.87121 0
M  V30 19 H -3.8741 0.858608 0.0622082 0
M  V30 20 H -2.80698 -1.99514 0.104182 0
M  V30 21 H -3.96801 -1.21317 -1.09804 0
M  V30 22 H -1.41966 -1.0537 -1.78019 0
M  V30 23 H -2.31924 0.547839 -1.55005 0
M  V30 24 H -1.81773 -0.186494 2.05716 0
M  V30 25 H -1.97245 1.46727 1.24549 0
M  V30 26 H 0.196968 2.44733 -1.45523 0
M  V30 27 H 0.836115 1.34689 -2.70981 0
M  V30 28 H 3.51547 1.51637 -1.6089 0
M  V30 29 H 5.632 0.740203 -0.685409 0
M  V30 30 H 5.657 -0.904663 1.19598 0
M  V30 31 H 3.45905 -1.69899 2.06707 0
M  V30 END ATOM
M  V30 BEGIN BOND
M  V30 1 1 1 2
M  V30 2 1 2 3
M  V30 3 1 3 4
M  V30 4 1 4 5
M  V30 5 1 5 6
M  V30 6 1 5 7
M  V30 7 1 7 8
M  V30 8 2 8 9
M  V30 9 1 9 10
M  V30 10 1 10 11
M  V30 11 1 11 12
M  V30 12 1 10 13
M  V30 13 2 13 14
M  V30 14 1 14 15
M  V30 15 2 15 16
M  V30 16 1 6 2
M  V30 17 2 11 7
M  V30 18 1 16 9
M  V30 19 1 1 17
M  V30 20 1 1 18
M  V30 21 1 2 19 CFG=3
M  V30 22 1 3 20
M  V30 23 1 3 21
M  V30 24 1 4 22
M  V30 25 1 4 23
M  V30 26 1 6 24
M  V30 27 1 6 25
M  V30 28 1 12 26
M  V30 29 1 12 27
M  V30 30 1 13 28
M  V30 31 1 14 29
M  V30 32 1 15 30
M  V30 33 1 16 31
M  V30 END BOND
M  V30 END CTAB
M  END
