
     RDKit          3D

  0  0  0  0  0  0  0  0  0  0999 V3000
M  V30 BEGIN CTAB
M  V30 COUNTS 26 27 0 0 0
M  V30 BEGIN ATOM
M  V30 1 N -2.29685 -2.04631 1.25829 0
M  V30 2 C -2.76426 -0.745588 0.970256 0
M  V30 3 N -4.06018 -0.440863 1.12116 0
M  V30 4 C -4.52413 0.790791 0.85235 0
M  V30 5 N -3.66096 1.7236 0.425195 0
M  V30 6 C -2.35904 1.49966 0.249948 0
M  V30 7 N -1.4253 2.45726 -0.19733 0
M  V30 8 C -1.88175 0.227352 0.527999 0
M  V30 9 N -0.537197 -0.134333 0.384535 0
M  V30 10 N 0.262635 0.232455 -0.483541 0
M  V30 11 C 1.61829 -0.148913 -0.605725 0
M  V30 12 C 2.04511 -1.45146 -0.703109 0
M  V30 13 C 3.39381 -1.74357 -0.820338 0
M  V30 14 C 4.31433 -0.721706 -0.839507 0
M  V30 15 C 3.91477 0.610629 -0.742714 0
M  V30 16 C 2.56442 0.861115 -0.627435 0
M  V30 17 H -2.88606 -2.89014 1.13967 0
M  V30 18 H -1.32046 -2.16572 1.60425 0
M  V30 19 H -5.59387 1.00501 0.987655 0
M  V30 20 H -1.11445 2.5845 -1.18501 0
M  V30 21 H -1.00106 3.09948 0.506587 0
M  V30 22 H 1.3165 -2.25066 -0.687457 0
M  V30 23 H 3.76264 -2.7468 -0.898388 0
M  V30 24 H 5.36981 -0.924704 -0.929967 0
M  V30 25 H 4.6037 1.42262 -0.754712 0
M  V30 26 H 2.25955 1.8963 -0.552655 0
M  V30 END ATOM
M  V30 BEGIN BOND
M  V30 1 1 1 2
M  V30 2 2 2 3
M  V30 3 1 3 4
M  V30 4 2 4 5
M  V30 5 1 5 6
M  V30 6 1 6 7
M  V30 7 2 6 8
M  V30 8 1 8 9
M  V30 9 2 9 10
M  V30 10 1 10 11
M  V30 11 2 11 12
M  V30 12 1 12 13
M  V30 13 2 13 14
M  V30 14 1 14 15
M  V30 15 2 15 16
M  V30 16 1 8 2
M  V30 17 1 16 11
M  V30 18 1 1 17
M  V30 19 1 1 18
M  V30 20 1 4 19
M  V30 21 1 7 20
M  V30 22 1 7 21
M  V30 23 1 12 22
M  V30 24 1 13 23
M  V30 25 1 14 24
M  V30 26 1 15 25
M  V30 27 1 16 26
M  V30 END BOND
M  V30 END CTAB
M  END
