
     RDKit          3D

  0  0  0  0  0  0  0  0  0  0999 V3000
M  V30 BEGIN CTAB
M  V30 COUNTS 24 26 0 0 0
M  V30 BEGIN ATOM
M  V30 1 N -4.35629 -1.29763 0.862564 0
M  V30 2 C -3.11123 -1.01512 0.180486 0
M  V30 3 S -2.12577 -2.07795 -0.716853 0
M  V30 4 C -0.897613 -0.981139 -1.16237 0
M  V30 5 C -1.33441 0.189097 -0.57038 0
M  V30 6 N -2.45089 0.1232 0.0933094 0
M  V30 7 C -0.551323 1.46216 -0.694813 0
M  V30 8 N -0.935645 2.61794 -1.24419 0 CHG=1
M  V30 9 O -2.17068 2.86568 -1.82529 0 CHG=-1
M  V30 10 O 0.0616826 3.44193 -1.12712 0
M  V30 11 N 1.07883 2.86114 -0.521328 0
M  V30 12 C 0.73217 1.60247 -0.229447 0
M  V30 13 C 1.52529 0.536604 0.448687 0
M  V30 14 C 1.13055 -0.0167138 1.64254 0
M  V30 15 S 2.37479 -1.14777 1.9331 0
M  V30 16 C 3.31882 -0.862906 0.541578 0
M  V30 17 N 2.63588 0.0815596 -0.0735999 0
M  V30 18 N 4.53828 -1.42818 0.0588505 0
M  V30 19 H -4.41373 -1.49664 1.86954 0
M  V30 20 H -5.27386 -1.30702 0.324824 0
M  V30 21 H 0.022869 -1.11171 -1.76148 0
M  V30 22 H 0.229433 0.234193 2.23393 0
M  V30 23 H 4.6885 -1.51922 -0.964279 0
M  V30 24 H 5.28433 -1.75398 0.701731 0
M  V30 END ATOM
M  V30 BEGIN BOND
M  V30 1 1 1 2
M  V30 2 1 2 3
M  V30 3 1 3 4
M  V30 4 2 4 5
M  V30 5 1 5 6
M  V30 6 1 5 7
M  V30 7 2 7 8
M  V30 8 1 8 9
M  V30 9 1 8 10
M  V30 10 1 10 11
M  V30 11 2 11 12
M  V30 12 1 12 13
M  V30 13 2 13 14
M  V30 14 1 14 15
M  V30 15 1 15 16
M  V30 16 2 16 17
M  V30 17 1 16 18
M  V30 18 2 6 2
M  V30 19 1 12 7
M  V30 20 1 17 13
M  V30 21 1 1 19
M  V30 22 1 1 20
M  V30 23 1 4 21
M  V30 24 1 14 22
M  V30 25 1 18 23
M  V30 26 1 18 24
M  V30 END BOND
M  V30 END CTAB
M  END
