
     RDKit          3D

  0  0  0  0  0  0  0  0  0  0999 V3000
M  V30 BEGIN CTAB
M  V30 COUNTS 44 45 0 0 0
M  V30 BEGIN ATOM
M  V30 1 C 4.62724 -0.00995917 0.861259 0
M  V30 2 C 3.6749 0.0817493 -0.296096 0
M  V30 3 C 2.77356 -1.12326 -0.396751 0
M  V30 4 C 1.92236 -1.33747 0.807232 0
M  V30 5 C 1.00107 -0.17028 1.09581 0
M  V30 6 C 0.0571686 0.0958654 -0.0501414 0
M  V30 7 C -0.816401 -1.02991 -0.36744 0
M  V30 8 C -1.16522 -1.26089 -1.68122 0
M  V30 9 C -1.98089 -2.29964 -2.04537 0
M  V30 10 C -2.49218 -3.16397 -1.11575 0
M  V30 11 N -3.33248 -4.22679 -1.53053 0
M  V30 12 C -2.15981 -2.95938 0.22026 0
M  V30 13 C -1.3369 -1.90833 0.570936 0
M  V30 14 C -0.639567 1.37368 0.199999 0
M  V30 15 C -1.11102 1.7411 1.43185 0
M  V30 16 C -1.75459 2.96889 1.56118 0
M  V30 17 C -1.93235 3.82436 0.492774 0
M  V30 18 N -2.59606 5.0716 0.666553 0
M  V30 19 C -1.45225 3.44297 -0.746656 0
M  V30 20 C -0.816641 2.23037 -0.87413 0
M  V30 21 H 5.17669 0.968664 0.899325 0
M  V30 22 H 4.11469 -0.126755 1.83598 0
M  V30 23 H 5.37153 -0.819578 0.719611 0
M  V30 24 H 4.30376 0.0772902 -1.227 0
M  V30 25 H 3.1374 1.02849 -0.236198 0
M  V30 26 H 2.1667 -1.13976 -1.29712 0
M  V30 27 H 3.4615 -2.01415 -0.463912 0
M  V30 28 H 1.33378 -2.26186 0.645744 0
M  V30 29 H 2.58414 -1.46696 1.68687 0
M  V30 30 H 1.6162 0.73949 1.24524 0
M  V30 31 H 0.398021 -0.345291 2.00006 0
M  V30 32 H 0.72342 0.255004 -0.953006 0
M  V30 33 H -0.801233 -0.619119 -2.48677 0
M  V30 34 H -2.24406 -2.46309 -3.09524 0
M  V30 35 H -2.99147 -5.13351 -1.90166 0
M  V30 36 H -4.36514 -4.08758 -1.45755 0
M  V30 37 H -2.57518 -3.65218 0.924516 0
M  V30 38 H -1.08649 -1.75852 1.60105 0
M  V30 39 H -0.980233 1.0801 2.2758 0
M  V30 40 H -2.11892 3.22837 2.56581 0
M  V30 41 H -3.15701 5.28758 1.49775 0
M  V30 42 H -2.49785 5.79757 -0.102565 0
M  V30 43 H -1.58428 4.10916 -1.60627 0
M  V30 44 H -0.455885 1.97594 -1.87423 0
M  V30 END ATOM
M  V30 BEGIN BOND
M  V30 1 1 1 2
M  V30 2 1 2 3
M  V30 3 1 3 4
M  V30 4 1 4 5
M  V30 5 1 5 6
M  V30 6 1 6 7
M  V30 7 2 7 8
M  V30 8 1 8 9
M  V30 9 2 9 10
M  V30 10 1 10 11
M  V30 11 1 10 12
M  V30 12 2 12 13
M  V30 13 1 6 14
M  V30 14 2 14 15
M  V30 15 1 15 16
M  V30 16 2 16 17
M  V30 17 1 17 18
M  V30 18 1 17 19
M  V30 19 2 19 20
M  V30 20 1 13 7
M  V30 21 1 20 14
M  V30 22 1 1 21
M  V30 23 1 1 22
M  V30 24 1 1 23
M  V30 25 1 2 24
M  V30 26 1 2 25
M  V30 27 1 3 26
M  V30 28 1 3 27
M  V30 29 1 4 28
M  V30 30 1 4 29
M  V30 31 1 5 30
M  V30 32 1 5 31
M  V30 33 1 6 32
M  V30 34 1 8 33
M  V30 35 1 9 34
M  V30 36 1 11 35
M  V30 37 1 11 36
M  V30 38 1 12 37
M  V30 39 1 13 38
M  V30 40 1 15 39
M  V30 41 1 16 40
M  V30 42 1 18 41
M  V30 43 1 18 42
M  V30 44 1 19 43
M  V30 45 1 20 44
M  V30 END BOND
M  V30 END CTAB
M  END
