
     RDKit          3D

  0  0  0  0  0  0  0  0  0  0999 V3000
M  V30 BEGIN CTAB
M  V30 COUNTS 18 19 0 0 0
M  V30 BEGIN ATOM
M  V30 1 N -1.45489 2.25349 0.71661 0
M  V30 2 C -0.553346 1.21793 0.351852 0
M  V30 3 N 0.756823 1.48852 0.210487 0
M  V30 4 C 1.66761 0.549735 -0.134493 0
M  V30 5 N 3.04064 0.85406 -0.278092 0
M  V30 6 C 1.18297 -0.725426 -0.339456 0
M  V30 7 C -0.151923 -1.05765 -0.2078 0
M  V30 8 C -1.02122 -0.0409478 0.147885 0
M  V30 9 N -2.25606 -0.556387 0.224114 0
M  V30 10 C -2.19339 -1.87401 -0.0739389 0
M  V30 11 N -0.902826 -2.15392 -0.332822 0
M  V30 12 H -1.69809 2.95311 -0.018722 0
M  V30 13 H -1.8548 2.30574 1.68599 0
M  V30 14 H 3.65236 0.868143 0.557597 0
M  V30 15 H 3.45801 1.06543 -1.20184 0
M  V30 16 H 1.88645 -1.49857 -0.61644 0
M  V30 17 H -3.03935 -2.56184 -0.0949874 0
M  V30 18 H -0.518982 -3.08741 -0.59595 0
M  V30 END ATOM
M  V30 BEGIN BOND
M  V30 1 1 1 2
M  V30 2 2 2 3
M  V30 3 1 3 4
M  V30 4 1 4 5
M  V30 5 2 4 6
M  V30 6 1 6 7
M  V30 7 2 7 8
M  V30 8 1 8 9
M  V30 9 2 9 10
M  V30 10 1 10 11
M  V30 11 1 8 2
M  V30 12 1 11 7
M  V30 13 1 1 12
M  V30 14 1 1 13
M  V30 15 1 5 14
M  V30 16 1 5 15
M  V30 17 1 6 16
M  V30 18 1 10 17
M  V30 19 1 11 18
M  V30 END BOND
M  V30 END CTAB
M  END
