
     RDKit          3D

  0  0  0  0  0  0  0  0  0  0999 V3000
M  V30 BEGIN CTAB
M  V30 COUNTS 35 37 0 0 0
M  V30 BEGIN ATOM
M  V30 1 N 1.07668 -2.94546 -0.994896 0
M  V30 2 C 0.587548 -1.62744 -1.04912 0
M  V30 3 N 1.3322 -0.563242 -1.40309 0
M  V30 4 C 0.803864 0.661798 -1.43306 0
M  V30 5 C 1.64865 1.80861 -1.8269 0
M  V30 6 S 2.41267 2.59263 -0.401762 0
M  V30 7 C 3.62031 1.50625 0.328481 0
M  V30 8 N 3.97362 0.295055 -0.0612443 0
M  V30 9 N 4.85388 -0.356643 0.566156 0
M  V30 10 C 5.43385 0.18369 1.63452 0
M  V30 11 S 4.63323 1.71183 1.69555 0
M  V30 12 N 6.45091 -0.379756 2.48849 0
M  V30 13 N -0.500609 0.830232 -1.10152 0
M  V30 14 C -1.2803 -0.200922 -0.742664 0
M  V30 15 N -0.709149 -1.42151 -0.725005 0
M  V30 16 N -2.65262 -0.0375108 -0.391982 0
M  V30 17 C -3.42856 -1.19669 -0.0172282 0
M  V30 18 C -4.20412 -0.790272 1.24335 0
M  V30 19 O -5.07147 0.200114 0.859088 0
M  V30 20 C -4.48237 1.3776 0.47148 0
M  V30 21 C -3.28074 1.2458 -0.40106 0
M  V30 22 H 1.09257 -3.52819 -1.8429 0
M  V30 23 H 1.42015 -3.32644 -0.100438 0
M  V30 24 H 2.42776 1.45109 -2.55517 0
M  V30 25 H 1.04774 2.54047 -2.43519 0
M  V30 26 H 6.31486 -1.28871 2.97459 0
M  V30 27 H 7.36532 0.109049 2.64939 0
M  V30 28 H -4.21583 -1.32652 -0.80309 0
M  V30 29 H -2.83195 -2.09163 0.149401 0
M  V30 30 H -3.45022 -0.46107 1.98909 0
M  V30 31 H -4.78202 -1.67162 1.54869 0
M  V30 32 H -4.29601 2.06014 1.3529 0
M  V30 33 H -5.25964 1.93989 -0.126126 0
M  V30 34 H -2.5481 2.03206 -0.0719501 0
M  V30 35 H -3.50211 1.50973 -1.46678 0
M  V30 END ATOM
M  V30 BEGIN BOND
M  V30 1 1 1 2
M  V30 2 2 2 3
M  V30 3 1 3 4
M  V30 4 1 4 5
M  V30 5 1 5 6
M  V30 6 1 6 7
M  V30 7 2 7 8
M  V30 8 1 8 9
M  V30 9 2 9 10
M  V30 10 1 10 11
M  V30 11 1 10 12
M  V30 12 2 4 13
M  V30 13 1 13 14
M  V30 14 2 14 15
M  V30 15 1 14 16
M  V30 16 1 16 17
M  V30 17 1 17 18
M  V30 18 1 18 19
M  V30 19 1 19 20
M  V30 20 1 20 21
M  V30 21 1 15 2
M  V30 22 1 21 16
M  V30 23 1 11 7
M  V30 24 1 1 22
M  V30 25 1 1 23
M  V30 26 1 5 24
M  V30 27 1 5 25
M  V30 28 1 12 26
M  V30 29 1 12 27
M  V30 30 1 17 28
M  V30 31 1 17 29
M  V30 32 1 18 30
M  V30 33 1 18 31
M  V30 34 1 20 32
M  V30 35 1 20 33
M  V30 36 1 21 34
M  V30 37 1 21 35
M  V30 END BOND
M  V30 END CTAB
M  END
