
     RDKit          3D

  0  0  0  0  0  0  0  0  0  0999 V3000
M  V30 BEGIN CTAB
M  V30 COUNTS 40 42 0 0 0
M  V30 BEGIN ATOM
M  V30 1 C -4.40776 -1.9249 0.171251 0
M  V30 2 C -3.89781 -0.754237 1.03002 0
M  V30 3 C -3.21173 0.189036 0.191062 0
M  V30 4 C -3.99905 1.06633 -0.54288 0
M  V30 5 C -5.44834 1.01474 -0.397343 0
M  V30 6 N -6.59875 0.996461 -0.275481 0
M  V30 7 C -3.53404 2.01889 -1.4093 0
M  V30 8 N -4.38987 2.88975 -2.13743 0
M  V30 9 N -2.20102 2.07932 -1.53191 0
M  V30 10 C -1.37296 1.24099 -0.834171 0
M  V30 11 C -1.81171 0.278103 0.0393503 0
M  V30 12 C -0.877266 -0.467534 0.646501 0
M  V30 13 N -1.14581 -1.5443 1.59807 0
M  V30 14 C 0.435504 -0.20475 0.343241 0
M  V30 15 S 0.32306 1.06753 -0.773626 0
M  V30 16 C 1.64555 -0.828305 0.869035 0
M  V30 17 O 1.50947 -1.73319 1.77318 0
M  V30 18 C 2.98538 -0.506608 0.455066 0
M  V30 19 C 3.35011 -0.0033415 -0.763326 0
M  V30 20 C 4.65974 0.30873 -1.0859 0
M  V30 21 C 5.66333 0.121566 -0.178847 0
M  V30 22 C 5.3398 -0.384299 1.06126 0
M  V30 23 C 4.0324 -0.688289 1.36388 0
M  V30 24 C 7.08055 0.457623 -0.529841 0
M  V30 25 H -4.88949 -2.6238 0.903958 0
M  V30 26 H -3.56105 -2.45266 -0.317864 0
M  V30 27 H -5.15503 -1.63261 -0.559602 0
M  V30 28 H -3.51226 -1.15444 1.92775 0
M  V30 29 H -4.89028 -0.261583 1.34956 0
M  V30 30 H -4.46911 3.90341 -1.90478 0
M  V30 31 H -4.98154 2.55835 -2.94363 0
M  V30 32 H -1.5252 -2.44606 1.28207 0
M  V30 33 H -0.93047 -1.34387 2.59708 0
M  V30 34 H 2.61922 0.158253 -1.53296 0
M  V30 35 H 4.94013 0.711203 -2.06505 0
M  V30 36 H 6.1173 -0.543472 1.80145 0
M  V30 37 H 3.76536 -1.08571 2.33834 0
M  V30 38 H 7.75907 0.27026 0.321857 0
M  V30 39 H 7.15577 1.4888 -0.941658 0
M  V30 40 H 7.42881 -0.235377 -1.33839 0
M  V30 END ATOM
M  V30 BEGIN BOND
M  V30 1 1 1 2
M  V30 2 1 2 3
M  V30 3 2 3 4
M  V30 4 1 4 5
M  V30 5 3 5 6
M  V30 6 1 4 7
M  V30 7 1 7 8
M  V30 8 2 7 9
M  V30 9 1 9 10
M  V30 10 2 10 11
M  V30 11 1 11 12
M  V30 12 1 12 13
M  V30 13 2 12 14
M  V30 14 1 14 15
M  V30 15 1 14 16
M  V30 16 2 16 17
M  V30 17 1 16 18
M  V30 18 2 18 19
M  V30 19 1 19 20
M  V30 20 2 20 21
M  V30 21 1 21 22
M  V30 22 2 22 23
M  V30 23 1 21 24
M  V30 24 1 11 3
M  V30 25 1 23 18
M  V30 26 1 15 10
M  V30 27 1 1 25
M  V30 28 1 1 26
M  V30 29 1 1 27
M  V30 30 1 2 28
M  V30 31 1 2 29
M  V30 32 1 8 30
M  V30 33 1 8 31
M  V30 34 1 13 32
M  V30 35 1 13 33
M  V30 36 1 19 34
M  V30 37 1 20 35
M  V30 38 1 22 36
M  V30 39 1 23 37
M  V30 40 1 24 38
M  V30 41 1 24 39
M  V30 42 1 24 40
M  V30 END BOND
M  V30 END CTAB
M  END
