
     RDKit          3D

  0  0  0  0  0  0  0  0  0  0999 V3000
M  V30 BEGIN CTAB
M  V30 COUNTS 38 38 0 0 0
M  V30 BEGIN ATOM
M  V30 1 C -3.89954 1.25193 -1.85688 0
M  V30 2 C -3.88638 0.315623 -0.697339 0
M  V30 3 C -2.46251 0.320927 0.00481116 0
M  V30 4 C -1.50172 -0.0981549 -0.98809 0
M  V30 5 N -0.121185 -0.303157 -0.781835 0
M  V30 6 C 0.557672 -1.35492 -0.123765 0
M  V30 7 O -0.0910175 -2.3163 0.350014 0
M  V30 8 C 2.03757 -1.337 0.015286 0
M  V30 9 C 2.80729 -2.29924 0.632675 0
M  V30 10 C 4.13306 -1.90828 0.546918 0
M  V30 11 C 4.09998 -0.710458 -0.128425 0
M  V30 12 O 2.85402 -0.419621 -0.417127 0
M  V30 13 S 5.52627 0.228441 -0.511464 0
M  V30 14 O 5.61659 0.406765 -1.9957 0
M  V30 15 O 6.75994 -0.430799 -0.0301739 0
M  V30 16 N 5.3902 1.78114 0.232797 0
M  V30 17 C -2.70551 -0.185522 1.3317 0
M  V30 18 C -1.65957 -0.263989 2.36349 0
M  V30 19 N -2.25978 1.8047 0.150285 0
M  V30 20 H -3.62354 2.28863 -1.59182 0
M  V30 21 H -3.36139 0.859412 -2.75001 0
M  V30 22 H -4.96985 1.33429 -2.2177 0
M  V30 23 H -4.04618 -0.717059 -0.990689 0
M  V30 24 H -4.54825 0.711741 0.0944999 0
M  V30 25 H -1.8473 -1.01634 -1.58457 0
M  V30 26 H -1.56077 0.689022 -1.84125 0
M  V30 27 H 0.589866 0.440035 -1.16975 0
M  V30 28 H 2.47229 -3.21406 1.11216 0
M  V30 29 H 4.97537 -2.45185 0.93674 0
M  V30 30 H 4.49885 1.85896 0.793675 0
M  V30 31 H 6.17641 1.99329 0.871312 0
M  V30 32 H -3.59883 0.363405 1.8023 0
M  V30 33 H -3.15698 -1.24974 1.28926 0
M  V30 34 H -1.40308 -1.30513 2.7036 0
M  V30 35 H -0.748435 0.34622 2.15636 0
M  V30 36 H -2.05473 0.199471 3.31356 0
M  V30 37 H -1.81672 2.17867 -0.705156 0
M  V30 38 H -3.17214 2.20893 0.414347 0
M  V30 END ATOM
M  V30 BEGIN BOND
M  V30 1 1 1 2
M  V30 2 1 2 3
M  V30 3 1 3 4
M  V30 4 1 4 5
M  V30 5 1 5 6
M  V30 6 2 6 7
M  V30 7 1 6 8
M  V30 8 2 8 9
M  V30 9 1 9 10
M  V30 10 2 10 11
M  V30 11 1 11 12
M  V30 12 1 11 13
M  V30 13 2 13 14
M  V30 14 2 13 15
M  V30 15 1 13 16
M  V30 16 1 3 17
M  V30 17 1 17 18
M  V30 18 1 3 19
M  V30 19 1 12 8
M  V30 20 1 1 20
M  V30 21 1 1 21
M  V30 22 1 1 22
M  V30 23 1 2 23
M  V30 24 1 2 24
M  V30 25 1 4 25
M  V30 26 1 4 26
M  V30 27 1 5 27
M  V30 28 1 9 28
M  V30 29 1 10 29
M  V30 30 1 16 30
M  V30 31 1 16 31
M  V30 32 1 17 32
M  V30 33 1 17 33
M  V30 34 1 18 34
M  V30 35 1 18 35
M  V30 36 1 18 36
M  V30 37 1 19 37
M  V30 38 1 19 38
M  V30 END BOND
M  V30 END CTAB
M  END
