
     RDKit          3D

  0  0  0  0  0  0  0  0  0  0999 V3000
M  V30 BEGIN CTAB
M  V30 COUNTS 46 46 0 0 0
M  V30 BEGIN ATOM
M  V30 1 N -5.55434 -4.2193 0.70326 0
M  V30 2 C -4.27987 -3.83784 0.0882685 0
M  V30 3 C -3.87743 -2.51927 0.710032 0
M  V30 4 C -2.58535 -1.99837 0.17793 0
M  V30 5 C -2.29155 -0.685729 0.870227 0
M  V30 6 N -0.988971 -0.145114 0.344311 0
M  V30 7 C -1.10524 0.69729 -0.805458 0
M  V30 8 C -1.26539 2.17297 -0.465051 0
M  V30 9 C -1.37796 2.96854 -1.74815 0
M  V30 10 N -1.52877 4.36891 -1.36326 0
M  V30 11 C 0.138683 -0.533743 1.02546 0
M  V30 12 O -0.101321 -1.3478 2.03653 0
M  V30 13 C 1.53299 -0.238813 0.868586 0
M  V30 14 C 2.14295 0.519753 -0.000242499 0
M  V30 15 C 3.59659 0.739419 -0.0532049 0
M  V30 16 C 4.42401 0.131579 0.847902 0
M  V30 17 C 5.80589 0.367158 0.763463 0
M  V30 18 C 6.33483 1.1915 -0.201809 0
M  V30 19 O 7.69178 1.38509 -0.236759 0
M  V30 20 C 5.45981 1.78842 -1.09643 0
M  V30 21 C 4.10587 1.58477 -1.04822 0
M  V30 22 H -6.15416 -4.74556 0.0339248 0
M  V30 23 H -5.39076 -4.7929 1.57759 0
M  V30 24 H -3.54811 -4.60723 0.393735 0
M  V30 25 H -4.40126 -3.78497 -0.992467 0
M  V30 26 H -3.7552 -2.70087 1.79485 0
M  V30 27 H -4.66801 -1.76274 0.559944 0
M  V30 28 H -2.57939 -1.84923 -0.914894 0
M  V30 29 H -1.74502 -2.70068 0.437682 0
M  V30 30 H -2.20394 -0.877997 1.94008 0
M  V30 31 H -3.08947 0.020916 0.611375 0
M  V30 32 H -2.123 0.447401 -1.30321 0
M  V30 33 H -0.408987 0.496394 -1.62323 0
M  V30 34 H -0.417242 2.56762 0.0957342 0
M  V30 35 H -2.19342 2.32912 0.12163 0
M  V30 36 H -0.388829 2.88275 -2.279 0
M  V30 37 H -2.20657 2.62442 -2.379 0
M  V30 38 H -2.36248 4.50981 -0.766322 0
M  V30 39 H -0.682411 4.59024 -0.77768 0
M  V30 40 H 2.25685 -0.721076 1.59456 0
M  V30 41 H 1.53362 1.02659 -0.731553 0
M  V30 42 H 4.11027 -0.536416 1.64798 0
M  V30 43 H 6.44562 -0.11721 1.47848 0
M  V30 44 H 8.36065 0.845513 -0.743134 0
M  V30 45 H 5.90998 2.43052 -1.84237 0
M  V30 46 H 3.42406 2.03615 -1.72787 0
M  V30 END ATOM
M  V30 BEGIN BOND
M  V30 1 1 1 2
M  V30 2 1 2 3
M  V30 3 1 3 4
M  V30 4 1 4 5
M  V30 5 1 5 6
M  V30 6 1 6 7
M  V30 7 1 7 8
M  V30 8 1 8 9
M  V30 9 1 9 10
M  V30 10 1 6 11
M  V30 11 2 11 12
M  V30 12 1 11 13
M  V30 13 2 13 14
M  V30 14 1 14 15
M  V30 15 2 15 16
M  V30 16 1 16 17
M  V30 17 2 17 18
M  V30 18 1 18 19
M  V30 19 1 18 20
M  V30 20 2 20 21
M  V30 21 1 21 15
M  V30 22 1 1 22
M  V30 23 1 1 23
M  V30 24 1 2 24
M  V30 25 1 2 25
M  V30 26 1 3 26
M  V30 27 1 3 27
M  V30 28 1 4 28
M  V30 29 1 4 29
M  V30 30 1 5 30
M  V30 31 1 5 31
M  V30 32 1 7 32
M  V30 33 1 7 33
M  V30 34 1 8 34
M  V30 35 1 8 35
M  V30 36 1 9 36
M  V30 37 1 9 37
M  V30 38 1 10 38
M  V30 39 1 10 39
M  V30 40 1 13 40
M  V30 41 1 14 41
M  V30 42 1 16 42
M  V30 43 1 17 43
M  V30 44 1 19 44
M  V30 45 1 20 45
M  V30 46 1 21 46
M  V30 END BOND
M  V30 END CTAB
M  END
