
     RDKit          3D

  0  0  0  0  0  0  0  0  0  0999 V3000
M  V30 BEGIN CTAB
M  V30 COUNTS 57 60 0 0 0
M  V30 BEGIN ATOM
M  V30 1 O 8.32365 -1.66432 3.36678 0
M  V30 2 C 8.11015 -1.76266 2.00434 0
M  V30 3 C 8.97889 -2.3643 1.13841 0
M  V30 4 N 8.69067 -2.41398 -0.168635 0
M  V30 5 C 7.55275 -1.88221 -0.674785 0
M  V30 6 C 6.62713 -1.25433 0.163844 0
M  V30 7 C 6.92683 -1.20626 1.5005 0
M  V30 8 C 5.41621 -0.690885 -0.373702 0
M  V30 9 O 5.19556 -0.816442 -1.62791 0
M  V30 10 N 4.49779 -0.0232019 0.438427 0
M  V30 11 C 3.29295 0.527124 -0.144682 0
M  V30 12 C 2.42769 1.20616 0.870333 0
M  V30 13 C 1.16747 1.80147 0.343407 0
M  V30 14 C 0.231771 0.829151 -0.267953 0
M  V30 15 O 0.423782 -0.423462 -0.240126 0
M  V30 16 N -0.963923 1.25943 -0.935488 0
M  V30 17 C -1.13614 2.69599 -0.93463 0
M  V30 18 C -2.60381 2.99116 -0.715054 0
M  V30 19 O -3.29728 2.45115 -1.79643 0
M  V30 20 C -4.04004 1.37301 -1.32104 0
M  V30 21 C -3.15751 0.225286 -0.894935 0
M  V30 22 C -1.8035 0.259094 -1.50176 0
M  V30 23 O -3.18584 0.128748 0.509381 0
M  V30 24 C -4.46789 -0.329758 0.833176 0
M  V30 25 C -4.94401 -1.06844 -0.231003 0
M  V30 26 C -3.88569 -1.06669 -1.28546 0
M  V30 27 C -6.19169 -1.63483 -0.165782 0
M  V30 28 N -6.64692 -2.38318 -1.27345 0
M  V30 29 N -6.92364 -1.44381 0.963376 0
M  V30 30 C -6.48424 -0.729288 2.01447 0
M  V30 31 N -5.25652 -0.184386 1.92388 0
M  V30 32 N -7.30534 -0.565004 3.17957 0
M  V30 33 H 8.81633 -0.846438 3.69644 0
M  V30 34 H 9.89942 -2.7962 1.53561 0
M  V30 35 H 7.4034 -1.96812 -1.74095 0
M  V30 36 H 6.27198 -0.741711 2.22211 0
M  V30 37 H 4.65382 0.0906354 1.44636 0
M  V30 38 H 2.78998 -0.304272 -0.665344 0
M  V30 39 H 3.6341 1.22892 -0.940147 0
M  V30 40 H 3.04826 1.94441 1.42015 0
M  V30 41 H 2.16185 0.430954 1.62831 0
M  V30 42 H 0.62862 2.23891 1.22595 0
M  V30 43 H 1.34534 2.58884 -0.423643 0
M  V30 44 H -0.870264 3.09546 -1.93332 0
M  V30 45 H -0.567868 3.18725 -0.119362 0
M  V30 46 H -2.76938 4.0872 -0.661851 0
M  V30 47 H -2.94927 2.56446 0.264184 0
M  V30 48 H -4.66992 1.74195 -0.48405 0
M  V30 49 H -4.74022 1.07802 -2.1373 0
M  V30 50 H -1.9258 0.47356 -2.58165 0
M  V30 51 H -1.31724 -0.717792 -1.3789 0
M  V30 52 H -3.20597 -1.93706 -1.2055 0
M  V30 53 H -4.34378 -0.961006 -2.2928 0
M  V30 54 H -6.47556 -2.02732 -2.23574 0
M  V30 55 H -7.15124 -3.28347 -1.16314 0
M  V30 56 H -7.65659 0.372106 3.47435 0
M  V30 57 H -7.57928 -1.37964 3.77295 0
M  V30 END ATOM
M  V30 BEGIN BOND
M  V30 1 1 1 2
M  V30 2 2 2 3
M  V30 3 1 3 4
M  V30 4 2 4 5
M  V30 5 1 5 6
M  V30 6 2 6 7
M  V30 7 1 6 8
M  V30 8 2 8 9
M  V30 9 1 8 10
M  V30 10 1 10 11
M  V30 11 1 11 12
M  V30 12 1 12 13
M  V30 13 1 13 14
M  V30 14 2 14 15
M  V30 15 1 14 16
M  V30 16 1 16 17
M  V30 17 1 17 18
M  V30 18 1 18 19
M  V30 19 1 19 20
M  V30 20 1 20 21
M  V30 21 1 21 22
M  V30 22 1 21 23
M  V30 23 1 23 24
M  V30 24 2 24 25
M  V30 25 1 25 26
M  V30 26 1 25 27
M  V30 27 1 27 28
M  V30 28 2 27 29
M  V30 29 1 29 30
M  V30 30 2 30 31
M  V30 31 1 30 32
M  V30 32 1 7 2
M  V30 33 1 22 16
M  V30 34 1 31 24
M  V30 35 1 26 21
M  V30 36 1 1 33
M  V30 37 1 3 34
M  V30 38 1 5 35
M  V30 39 1 7 36
M  V30 40 1 10 37
M  V30 41 1 11 38
M  V30 42 1 11 39
M  V30 43 1 12 40
M  V30 44 1 12 41
M  V30 45 1 13 42
M  V30 46 1 13 43
M  V30 47 1 17 44
M  V30 48 1 17 45
M  V30 49 1 18 46
M  V30 50 1 18 47
M  V30 51 1 20 48
M  V30 52 1 20 49
M  V30 53 1 22 50
M  V30 54 1 22 51
M  V30 55 1 26 52
M  V30 56 1 26 53
M  V30 57 1 28 54
M  V30 58 1 28 55
M  V30 59 1 32 56
M  V30 60 1 32 57
M  V30 END BOND
M  V30 END CTAB
M  END
