
     RDKit          3D

  0  0  0  0  0  0  0  0  0  0999 V3000
M  V30 BEGIN CTAB
M  V30 COUNTS 40 42 0 0 0
M  V30 BEGIN ATOM
M  V30 1 C 3.39781 2.51841 -0.800758 0
M  V30 2 N 2.75882 1.31091 -0.258266 0
M  V30 3 C 3.5144 0.261982 0.269842 0
M  V30 4 O 4.7203 0.406733 0.456715 0
M  V30 5 N 2.89808 -0.884666 0.541021 0
M  V30 6 C 3.62305 -1.77407 1.51736 0
M  V30 7 C 1.62767 -1.1251 0.312084 0
M  V30 8 C 0.828144 -0.022049 -0.237045 0
M  V30 9 C 1.44756 1.1432 -0.464886 0
M  V30 10 O 0.824387 2.15879 -0.818285 0
M  V30 11 C -0.48629 -0.270768 -0.483188 0
M  V30 12 C -1.08738 -1.52119 -0.323566 0
M  V30 13 C -2.39863 -1.68532 -0.89195 0
M  V30 14 N -3.56346 -2.01272 -0.184043 0
M  V30 15 C -0.211256 -2.4657 0.134424 0
M  V30 16 N -0.7177 -3.82846 0.107699 0
M  V30 17 N 1.03997 -2.26392 0.434378 0
M  V30 18 C -1.45806 0.880295 -0.395768 0
M  V30 19 C -1.9551 1.658 -1.27191 0
M  V30 20 Cl -1.71533 1.45474 -2.99596 0
M  V30 21 C -2.75423 2.78275 -0.889265 0
M  V30 22 C -2.97332 3.03298 0.437519 0
M  V30 23 C -2.45659 2.22558 1.40373 0
M  V30 24 F -2.58419 2.45845 2.7123 0
M  V30 25 C -1.69779 1.14491 0.991248 0
M  V30 26 H 2.61249 3.28891 -0.961804 0
M  V30 27 H 4.23779 2.86712 -0.229269 0
M  V30 28 H 3.71918 2.24956 -1.87448 0
M  V30 29 H 4.64839 -1.96868 1.29791 0
M  V30 30 H 2.97464 -2.62496 1.78292 0
M  V30 31 H 3.66101 -1.19322 2.52743 0
M  V30 32 H -2.21694 -2.86894 -1.35037 0
M  V30 33 H -2.56793 -1.27085 -1.87623 0
M  V30 34 H -4.34721 -1.27956 -0.489121 0
M  V30 35 H -3.54494 -1.95962 0.85831 0
M  V30 36 H -1.50418 -4.1077 0.66609 0
M  V30 37 H -0.239398 -4.5353 -0.552301 0
M  V30 38 H -3.16617 3.41855 -1.61388 0
M  V30 39 H -3.50687 3.94456 0.750997 0
M  V30 40 H -1.38074 0.456385 1.76036 0
M  V30 END ATOM
M  V30 BEGIN BOND
M  V30 1 1 1 2
M  V30 2 1 2 3
M  V30 3 2 3 4
M  V30 4 1 3 5
M  V30 5 1 5 6
M  V30 6 1 5 7
M  V30 7 2 7 8
M  V30 8 1 8 9
M  V30 9 2 9 10
M  V30 10 1 8 11
M  V30 11 2 11 12
M  V30 12 1 12 13
M  V30 13 1 13 14
M  V30 14 1 12 15
M  V30 15 1 15 16
M  V30 16 2 15 17
M  V30 17 1 11 18
M  V30 18 2 18 19
M  V30 19 1 19 20
M  V30 20 1 19 21
M  V30 21 2 21 22
M  V30 22 1 22 23
M  V30 23 1 23 24
M  V30 24 2 23 25
M  V30 25 1 9 2
M  V30 26 1 25 18
M  V30 27 1 17 7
M  V30 28 1 1 26
M  V30 29 1 1 27
M  V30 30 1 1 28
M  V30 31 1 6 29
M  V30 32 1 6 30
M  V30 33 1 6 31
M  V30 34 1 13 32
M  V30 35 1 13 33
M  V30 36 1 14 34
M  V30 37 1 14 35
M  V30 38 1 16 36
M  V30 39 1 16 37
M  V30 40 1 21 38
M  V30 41 1 22 39
M  V30 42 1 25 40
M  V30 END BOND
M  V30 END CTAB
M  END
