
     RDKit          3D

  0  0  0  0  0  0  0  0  0  0999 V3000
M  V30 BEGIN CTAB
M  V30 COUNTS 51 54 0 0 0
M  V30 BEGIN ATOM
M  V30 1 N -7.27654 1.8124 -1.67576 0
M  V30 2 C -6.08735 1.34868 -1.01018 0
M  V30 3 N -4.93597 1.29824 -1.70006 0
M  V30 4 C -3.77388 0.865571 -1.12848 0
M  V30 5 O -2.47306 0.72931 -1.6441 0
M  V30 6 C -1.79801 -0.180839 -0.757279 0
M  V30 7 C -2.45132 0.051915 0.580221 0
M  V30 8 C -3.8192 0.48025 0.18585 0
M  V30 9 C -5.00882 0.534515 0.892613 0
M  V30 10 N -6.11209 0.964999 0.284763 0
M  V30 11 N -4.98328 0.119054 2.27335 0
M  V30 12 C -2.05688 -1.58383 -1.19254 0
M  V30 13 O -0.872975 -2.23748 -1.55847 0
M  V30 14 C -0.28421 -2.66733 -0.385859 0
M  V30 15 C 0.789299 -1.72311 0.0301134 0
M  V30 16 N 0.393668 -0.383759 0.317534 0
M  V30 17 C -0.336999 0.184345 -0.782685 0
M  V30 18 C 1.60753 0.397809 0.499258 0
M  V30 19 C 2.34266 0.0441531 1.74115 0
M  V30 20 C 3.60544 0.877024 1.86296 0
M  V30 21 C 4.54228 0.675432 0.738596 0
M  V30 22 C 4.56788 1.46009 -0.388601 0
M  V30 23 C 5.45114 1.23776 -1.43126 0
M  V30 24 C 6.33477 0.195392 -1.33875 0
M  V30 25 C 6.34471 -0.606418 -0.241648 0
M  V30 26 C 5.45246 -0.373191 0.800743 0
M  V30 27 H -7.54213 2.79627 -1.51272 0
M  V30 28 H -7.79764 1.14386 -2.27779 0
M  V30 29 H -2.50883 -0.853795 1.19896 0
M  V30 30 H -1.95749 0.877675 1.15173 0
M  V30 31 H -4.76522 -0.876515 2.50875 0
M  V30 32 H -5.18522 0.851129 2.95561 0
M  V30 33 H -2.59367 -2.14916 -0.396684 0
M  V30 34 H -2.71561 -1.59593 -2.08267 0
M  V30 35 H -1.06428 -2.75962 0.426878 0
M  V30 36 H 0.205537 -3.65525 -0.556699 0
M  V30 37 H 1.57558 -1.70687 -0.775255 0
M  V30 38 H 1.30511 -2.2097 0.89363 0
M  V30 39 H -0.27914 1.30503 -0.762259 0
M  V30 40 H 0.0820907 -0.118177 -1.75735 0
M  V30 41 H 1.29979 1.47911 0.547353 0
M  V30 42 H 2.20592 0.24486 -0.404826 0
M  V30 43 H 1.69563 0.382089 2.60736 0
M  V30 44 H 2.52331 -1.01331 1.9241 0
M  V30 45 H 3.33475 1.96382 1.90074 0
M  V30 46 H 4.10917 0.693194 2.85541 0
M  V30 47 H 3.88935 2.28614 -0.496002 0
M  V30 48 H 5.47453 1.85224 -2.31791 0
M  V30 49 H 7.03591 -0.000698216 -2.13886 0
M  V30 50 H 7.03039 -1.43166 -0.147365 0
M  V30 51 H 5.48088 -1.02574 1.65827 0
M  V30 END ATOM
M  V30 BEGIN BOND
M  V30 1 1 1 2
M  V30 2 2 2 3
M  V30 3 1 3 4
M  V30 4 1 4 5
M  V30 5 1 5 6
M  V30 6 1 6 7
M  V30 7 1 7 8
M  V30 8 1 8 9
M  V30 9 2 9 10
M  V30 10 1 9 11
M  V30 11 1 6 12
M  V30 12 1 12 13
M  V30 13 1 13 14
M  V30 14 1 14 15
M  V30 15 1 15 16
M  V30 16 1 16 17
M  V30 17 1 16 18
M  V30 18 1 18 19
M  V30 19 1 19 20
M  V30 20 1 20 21
M  V30 21 2 21 22
M  V30 22 1 22 23
M  V30 23 2 23 24
M  V30 24 1 24 25
M  V30 25 2 25 26
M  V30 26 1 10 2
M  V30 27 1 26 21
M  V30 28 2 8 4
M  V30 29 1 17 6
M  V30 30 1 1 27
M  V30 31 1 1 28
M  V30 32 1 7 29
M  V30 33 1 7 30
M  V30 34 1 11 31
M  V30 35 1 11 32
M  V30 36 1 12 33
M  V30 37 1 12 34
M  V30 38 1 14 35
M  V30 39 1 14 36
M  V30 40 1 15 37
M  V30 41 1 15 38
M  V30 42 1 17 39
M  V30 43 1 17 40
M  V30 44 1 18 41
M  V30 45 1 18 42
M  V30 46 1 19 43
M  V30 47 1 19 44
M  V30 48 1 20 45
M  V30 49 1 20 46
M  V30 50 1 22 47
M  V30 51 1 23 48
M  V30 52 1 24 49
M  V30 53 1 25 50
M  V30 54 1 26 51
M  V30 END BOND
M  V30 END CTAB
M  END
