
     RDKit          3D

  0  0  0  0  0  0  0  0  0  0999 V3000
M  V30 BEGIN CTAB
M  V30 COUNTS 48 51 0 0 0
M  V30 BEGIN ATOM
M  V30 1 O 3.15459 1.69002 -0.1713 0
M  V30 2 C 2.65197 0.580465 0.133367 0
M  V30 3 N 3.46747 -0.536907 0.357053 0
M  V30 4 C 4.8726 -0.525631 0.259283 0
M  V30 5 C 5.63551 -1.46825 0.97971 0
M  V30 6 C 7.00085 -1.53216 0.920184 0
M  V30 7 C 7.69666 -0.651435 0.130168 0
M  V30 8 C 6.9856 0.272311 -0.580438 0
M  V30 9 C 5.59018 0.330443 -0.513671 0
M  V30 10 S 9.4502 -0.68626 0.0299098 0
M  V30 11 O 9.9078 -2.08769 0.298388 0
M  V30 12 O 9.85978 -0.236546 -1.32749 0
M  V30 13 N 10.1144 0.402403 1.22486 0
M  V30 14 C 1.16389 0.533623 0.239715 0
M  V30 15 S 0.342522 0.260644 -1.33869 0
M  V30 16 C -1.43245 0.24719 -1.02863 0
M  V30 17 N -2.08991 -0.877735 -0.731927 0
M  V30 18 C -3.40162 -0.932267 -0.479198 0
M  V30 19 N -3.93552 -2.21295 -0.196589 0
M  V30 20 C -4.18542 0.241661 -0.514371 0
M  V30 21 C -3.48411 1.37087 -0.820899 0
M  V30 22 N -2.13527 1.39619 -1.07656 0
M  V30 23 S -4.67662 2.59509 -0.790283 0
M  V30 24 C -6.03168 1.65542 -0.390789 0
M  V30 25 C -5.52033 0.397481 -0.288692 0
M  V30 26 C -6.52953 -0.679621 0.0883 0
M  V30 27 C -7.65749 -0.0617436 0.886378 0
M  V30 28 C -8.36671 0.911977 -0.0453753 0
M  V30 29 C -7.43945 2.07599 -0.200972 0
M  V30 30 H 2.98103 -1.47575 0.623989 0
M  V30 31 H 5.0606 -2.14851 1.59249 0
M  V30 32 H 7.52832 -2.29105 1.50866 0
M  V30 33 H 7.48243 0.991074 -1.21999 0
M  V30 34 H 5.1196 1.08724 -1.12932 0
M  V30 35 H 9.93403 -0.0741695 2.15824 0
M  V30 36 H 9.43529 1.22364 1.23893 0
M  V30 37 H 0.887583 -0.266016 0.977433 0
M  V30 38 H 0.800238 1.50249 0.654581 0
M  V30 39 H -3.94275 -2.5541 0.773593 0
M  V30 40 H -4.31316 -2.79744 -0.955214 0
M  V30 41 H -6.08757 -1.46444 0.703447 0
M  V30 42 H -6.95618 -1.01698 -0.874406 0
M  V30 43 H -8.3689 -0.863393 1.10634 0
M  V30 44 H -7.32663 0.498386 1.77131 0
M  V30 45 H -8.6363 0.477843 -1.00847 0
M  V30 46 H -9.28445 1.25158 0.485371 0
M  V30 47 H -7.54972 2.71053 0.728779 0
M  V30 48 H -7.77133 2.73648 -1.02753 0
M  V30 END ATOM
M  V30 BEGIN BOND
M  V30 1 2 1 2
M  V30 2 1 2 3
M  V30 3 1 3 4
M  V30 4 2 4 5
M  V30 5 1 5 6
M  V30 6 2 6 7
M  V30 7 1 7 8
M  V30 8 2 8 9
M  V30 9 1 7 10
M  V30 10 2 10 11
M  V30 11 2 10 12
M  V30 12 1 10 13
M  V30 13 1 2 14
M  V30 14 1 14 15
M  V30 15 1 15 16
M  V30 16 2 16 17
M  V30 17 1 17 18
M  V30 18 1 18 19
M  V30 19 2 18 20
M  V30 20 1 20 21
M  V30 21 2 21 22
M  V30 22 1 21 23
M  V30 23 1 23 24
M  V30 24 2 24 25
M  V30 25 1 25 26
M  V30 26 1 26 27
M  V30 27 1 27 28
M  V30 28 1 28 29
M  V30 29 1 9 4
M  V30 30 1 22 16
M  V30 31 1 29 24
M  V30 32 1 25 20
M  V30 33 1 3 30
M  V30 34 1 5 31
M  V30 35 1 6 32
M  V30 36 1 8 33
M  V30 37 1 9 34
M  V30 38 1 13 35
M  V30 39 1 13 36
M  V30 40 1 14 37
M  V30 41 1 14 38
M  V30 42 1 19 39
M  V30 43 1 19 40
M  V30 44 1 26 41
M  V30 45 1 26 42
M  V30 46 1 27 43
M  V30 47 1 27 44
M  V30 48 1 28 45
M  V30 49 1 28 46
M  V30 50 1 29 47
M  V30 51 1 29 48
M  V30 END BOND
M  V30 END CTAB
M  END
