
     RDKit          3D

  0  0  0  0  0  0  0  0  0  0999 V3000
M  V30 BEGIN CTAB
M  V30 COUNTS 43 45 0 0 0
M  V30 BEGIN ATOM
M  V30 1 C 6.46756 -2.30118 0.108701 0
M  V30 2 O 5.97349 -0.978172 0.0251107 0
M  V30 3 C 4.61383 -0.706517 -0.110753 0
M  V30 4 C 3.67235 -1.71404 -0.171804 0
M  V30 5 C 2.32071 -1.45047 -0.30664 0
M  V30 6 C 1.85511 -0.153871 -0.386368 0
M  V30 7 C 0.409232 0.161498 -0.531524 0
M  V30 8 C -0.263452 0.317971 0.814088 0
M  V30 9 C -1.7005 0.63095 0.603864 0
M  V30 10 C -2.64728 -0.372662 0.510215 0
M  V30 11 C -3.98041 -0.0805195 0.31515 0
M  V30 12 C -4.89518 -1.10922 0.226857 0
M  V30 13 N -4.41323 -2.43478 0.342578 0
M  V30 14 N -6.20221 -0.822112 0.0355866 0
M  V30 15 C -6.58299 0.464101 -0.0647054 0
M  V30 16 N -7.95606 0.778616 -0.26611 0
M  V30 17 N -5.70002 1.49345 0.0191674 0
M  V30 18 C -4.39545 1.2464 0.208613 0
M  V30 19 N -3.46608 2.21636 0.301101 0
M  V30 20 C -2.16163 1.92568 0.49215 0
M  V30 21 C 2.79997 0.85058 -0.324925 0
M  V30 22 C 4.14807 0.589344 -0.190484 0
M  V30 23 O 5.09659 1.6024 -0.128935 0
M  V30 24 C 4.6438 2.95185 -0.208921 0
M  V30 25 H 5.82086 -2.81115 0.882261 0
M  V30 26 H 7.50761 -2.32822 0.488419 0
M  V30 27 H 6.31746 -2.86887 -0.822944 0
M  V30 28 H 4.04149 -2.74987 -0.108594 0
M  V30 29 H 1.61741 -2.28364 -0.350014 0
M  V30 30 H -0.135868 -0.624639 -1.08297 0
M  V30 31 H 0.324914 1.09411 -1.11738 0
M  V30 32 H 0.18499 1.11411 1.42334 0
M  V30 33 H -0.185479 -0.654 1.34629 0
M  V30 34 H -2.31758 -1.39984 0.593848 0
M  V30 35 H -3.79132 -2.75222 1.12349 0
M  V30 36 H -4.68837 -3.14029 -0.386429 0
M  V30 37 H -8.42951 0.341853 -1.08682 0
M  V30 38 H -8.44687 1.42462 0.397126 0
M  V30 39 H -1.42745 2.71596 0.564324 0
M  V30 40 H 2.43527 1.87079 -0.387506 0
M  V30 41 H 4.28156 3.18923 -1.22182 0
M  V30 42 H 3.79363 3.09618 0.515165 0
M  V30 43 H 5.46102 3.66022 0.0325282 0
M  V30 END ATOM
M  V30 BEGIN BOND
M  V30 1 1 1 2
M  V30 2 1 2 3
M  V30 3 2 3 4
M  V30 4 1 4 5
M  V30 5 2 5 6
M  V30 6 1 6 7
M  V30 7 1 7 8
M  V30 8 1 8 9
M  V30 9 2 9 10
M  V30 10 1 10 11
M  V30 11 2 11 12
M  V30 12 1 12 13
M  V30 13 1 12 14
M  V30 14 2 14 15
M  V30 15 1 15 16
M  V30 16 1 15 17
M  V30 17 2 17 18
M  V30 18 1 18 19
M  V30 19 2 19 20
M  V30 20 1 6 21
M  V30 21 2 21 22
M  V30 22 1 22 23
M  V30 23 1 23 24
M  V30 24 1 22 3
M  V30 25 1 20 9
M  V30 26 1 18 11
M  V30 27 1 1 25
M  V30 28 1 1 26
M  V30 29 1 1 27
M  V30 30 1 4 28
M  V30 31 1 5 29
M  V30 32 1 7 30
M  V30 33 1 7 31
M  V30 34 1 8 32
M  V30 35 1 8 33
M  V30 36 1 10 34
M  V30 37 1 13 35
M  V30 38 1 13 36
M  V30 39 1 16 37
M  V30 40 1 16 38
M  V30 41 1 20 39
M  V30 42 1 21 40
M  V30 43 1 24 41
M  V30 44 1 24 42
M  V30 45 1 24 43
M  V30 END BOND
M  V30 END CTAB
M  END
