
     RDKit          3D

  0  0  0  0  0  0  0  0  0  0999 V3000
M  V30 BEGIN CTAB
M  V30 COUNTS 62 66 0 0 0
M  V30 BEGIN ATOM
M  V30 1 C -1.56785 4.84341 0.578879 0
M  V30 2 C -0.778285 3.91746 -0.275032 0
M  V30 3 C -0.177194 4.3374 -1.44567 0
M  V30 4 C 0.562421 3.45596 -2.2387 0
M  V30 5 C 0.682825 2.14977 -1.82942 0
M  V30 6 C 0.106329 1.69065 -0.680474 0
M  V30 7 C -0.613439 2.59211 0.0708936 0
M  V30 8 C 0.258858 0.253849 -0.269118 0
M  V30 9 C 1.52864 -0.0512402 0.324536 0
M  V30 10 C 2.10966 0.515976 1.4448 0
M  V30 11 C 1.6483 1.58865 2.3377 0
M  V30 12 N 3.32216 -0.0981247 1.62796 0
M  V30 13 N 3.53099 -0.992547 0.712811 0
M  V30 14 C 2.48526 -0.999262 -0.0883721 0
M  V30 15 N 2.28532 -1.83182 -1.23808 0
M  V30 16 C 4.68384 -1.80487 0.611708 0
M  V30 17 C 4.72831 -3.00922 1.27911 0
M  V30 18 C 5.83562 -3.83482 1.20737 0
M  V30 19 C 6.934 -3.47499 0.461518 0
M  V30 20 C 6.88142 -2.25961 -0.208215 0
M  V30 21 C 5.78775 -1.42867 -0.146192 0
M  V30 22 C -0.967215 -0.344925 0.261877 0
M  V30 23 C -1.25895 -1.12712 1.34441 0
M  V30 24 C -0.333351 -1.6388 2.35906 0
M  V30 25 N -2.60249 -1.38828 1.33112 0
M  V30 26 N -3.17172 -0.813129 0.297797 0
M  V30 27 C -2.21986 -0.178541 -0.36598 0
M  V30 28 N -2.44713 0.558874 -1.55703 0
M  V30 29 C -4.57771 -0.884587 -0.0230779 0
M  V30 30 C -5.04609 -2.03345 -0.619803 0
M  V30 31 C -6.39932 -2.16868 -0.958872 0
M  V30 32 C -7.2607 -1.12799 -0.68448 0
M  V30 33 C -6.7832 0.0191506 -0.0865528 0
M  V30 34 C -5.44099 0.150174 0.248371 0
M  V30 35 H -1.59054 4.50367 1.63297 0
M  V30 36 H -1.22635 5.88512 0.468105 0
M  V30 37 H -2.61578 4.79287 0.217928 0
M  V30 38 H -0.302268 5.37631 -1.72412 0
M  V30 39 H 0.998159 3.8558 -3.13153 0
M  V30 40 H 1.25064 1.47295 -2.43876 0
M  V30 41 H -1.10285 2.28811 1.00174 0
M  V30 42 H 0.307837 -0.243231 -1.32473 0
M  V30 43 H 2.22483 1.51382 3.31053 0
M  V30 44 H 1.85632 2.60885 1.99438 0
M  V30 45 H 0.5931 1.43192 2.69914 0
M  V30 46 H 1.34586 -2.15234 -1.52041 0
M  V30 47 H 3.10988 -2.11012 -1.7879 0
M  V30 48 H 3.8745 -3.32166 1.87734 0
M  V30 49 H 5.80649 -4.77021 1.75741 0
M  V30 50 H 7.79087 -4.12403 0.411459 0
M  V30 51 H 7.758 -1.97339 -0.803138 0
M  V30 52 H 5.77987 -0.50082 -0.672909 0
M  V30 53 H 0.551878 -2.15636 2.00462 0
M  V30 54 H -0.887341 -2.43052 2.95575 0
M  V30 55 H -0.160101 -0.844439 3.12198 0
M  V30 56 H -1.96738 0.191675 -2.42577 0
M  V30 57 H -3.05132 1.41034 -1.56889 0
M  V30 58 H -4.39587 -2.85085 -0.84078 0
M  V30 59 H -6.77758 -3.06912 -1.42882 0
M  V30 60 H -8.30448 -1.21922 -0.940544 0
M  V30 61 H -7.51183 0.802199 0.103146 0
M  V30 62 H -5.08075 1.04991 0.71459 0
M  V30 END ATOM
M  V30 BEGIN BOND
M  V30 1 1 1 2
M  V30 2 2 2 3
M  V30 3 1 3 4
M  V30 4 2 4 5
M  V30 5 1 5 6
M  V30 6 2 6 7
M  V30 7 1 6 8
M  V30 8 1 8 9
M  V30 9 1 9 10
M  V30 10 1 10 11
M  V30 11 2 10 12
M  V30 12 1 12 13
M  V30 13 1 13 14
M  V30 14 1 14 15
M  V30 15 1 13 16
M  V30 16 2 16 17
M  V30 17 1 17 18
M  V30 18 2 18 19
M  V30 19 1 19 20
M  V30 20 2 20 21
M  V30 21 1 8 22
M  V30 22 1 22 23
M  V30 23 1 23 24
M  V30 24 2 23 25
M  V30 25 1 25 26
M  V30 26 1 26 27
M  V30 27 1 27 28
M  V30 28 1 26 29
M  V30 29 2 29 30
M  V30 30 1 30 31
M  V30 31 2 31 32
M  V30 32 1 32 33
M  V30 33 2 33 34
M  V30 34 1 7 2
M  V30 35 2 14 9
M  V30 36 1 21 16
M  V30 37 2 27 22
M  V30 38 1 34 29
M  V30 39 1 1 35
M  V30 40 1 1 36
M  V30 41 1 1 37
M  V30 42 1 3 38
M  V30 43 1 4 39
M  V30 44 1 5 40
M  V30 45 1 7 41
M  V30 46 1 8 42
M  V30 47 1 11 43
M  V30 48 1 11 44
M  V30 49 1 11 45
M  V30 50 1 15 46
M  V30 51 1 15 47
M  V30 52 1 17 48
M  V30 53 1 18 49
M  V30 54 1 19 50
M  V30 55 1 20 51
M  V30 56 1 21 52
M  V30 57 1 24 53
M  V30 58 1 24 54
M  V30 59 1 24 55
M  V30 60 1 28 56
M  V30 61 1 28 57
M  V30 62 1 30 58
M  V30 63 1 31 59
M  V30 64 1 32 60
M  V30 65 1 33 61
M  V30 66 1 34 62
M  V30 END BOND
M  V30 END CTAB
M  END
