
     RDKit          3D

  0  0  0  0  0  0  0  0  0  0999 V3000
M  V30 BEGIN CTAB
M  V30 COUNTS 31 31 0 0 0
M  V30 BEGIN ATOM
M  V30 1 N 3.16071 -0.256953 0.318185 0
M  V30 2 C 2.29487 -1.28975 -0.0536658 0
M  V30 3 C 1.21054 -0.9352 -1.03821 0
M  V30 4 N 0.288725 0.0473553 -0.652022 0
M  V30 5 C 0.819655 1.31983 -0.552881 0
M  V30 6 C -0.0934072 2.48226 -0.770366 0
M  V30 7 O -1.43619 2.16519 -0.641819 0
M  V30 8 C -1.64681 1.9471 0.716564 0
M  V30 9 C -1.54182 0.460277 0.936165 0
M  V30 10 C -0.993979 -0.287312 -0.257016 0 CFG=2
M  V30 11 C -1.18353 -1.76113 0.108991 0
M  V30 12 N -2.58259 -1.98924 0.514818 0
M  V30 13 H 3.56901 -0.307374 1.24434 0
M  V30 14 H 3.92117 -0.112303 -0.369241 0
M  V30 15 H 2.88537 -2.15917 -0.427306 0
M  V30 16 H 1.80884 -1.67546 0.894518 0
M  V30 17 H 0.790291 -1.90459 -1.37222 0
M  V30 18 H 1.77579 -0.590876 -1.96755 0
M  V30 19 H 1.2783 1.4628 0.462591 0
M  V30 20 H 1.68762 1.44843 -1.2638 0
M  V30 21 H 0.123035 3.29947 -0.0560517 0
M  V30 22 H 0.0446603 2.90413 -1.78598 0
M  V30 23 H -2.65687 2.33925 0.954418 0
M  V30 24 H -0.862818 2.41018 1.35008 0
M  V30 25 H -2.60783 0.0930033 1.0371 0
M  V30 26 H -1.06093 0.18251 1.88902 0
M  V30 27 H -1.70512 -0.0866787 -1.09137 0
M  V30 28 H -0.565761 -2.03629 0.97699 0
M  V30 29 H -1.05432 -2.41802 -0.774309 0
M  V30 30 H -2.69743 -1.88314 1.53479 0
M  V30 31 H -2.96916 -2.86829 0.135232 0
M  V30 END ATOM
M  V30 BEGIN BOND
M  V30 1 1 1 2
M  V30 2 1 2 3
M  V30 3 1 3 4
M  V30 4 1 4 5
M  V30 5 1 5 6
M  V30 6 1 6 7
M  V30 7 1 7 8
M  V30 8 1 8 9
M  V30 9 1 9 10
M  V30 10 1 10 11
M  V30 11 1 11 12
M  V30 12 1 10 4
M  V30 13 1 1 13
M  V30 14 1 1 14
M  V30 15 1 2 15
M  V30 16 1 2 16
M  V30 17 1 3 17
M  V30 18 1 3 18
M  V30 19 1 5 19
M  V30 20 1 5 20
M  V30 21 1 6 21
M  V30 22 1 6 22
M  V30 23 1 8 23
M  V30 24 1 8 24
M  V30 25 1 9 25
M  V30 26 1 9 26
M  V30 27 1 10 27 CFG=3
M  V30 28 1 11 28
M  V30 29 1 11 29
M  V30 30 1 12 30
M  V30 31 1 12 31
M  V30 END BOND
M  V30 END CTAB
M  END
