
     RDKit          3D

  0  0  0  0  0  0  0  0  0  0999 V3000
M  V30 BEGIN CTAB
M  V30 COUNTS 21 21 0 0 0
M  V30 BEGIN ATOM
M  V30 1 Cl 4.66942 -0.592957 0.456954 0
M  V30 2 C 2.96354 -1.00494 0.348952 0
M  V30 3 C 2.10131 0.159733 0.0907355 0
M  V30 4 O 2.60979 1.28793 -0.0261628 0
M  V30 5 C 0.664196 0.0143074 -0.0301892 0
M  V30 6 C 0.0328895 -1.20667 0.0882875 0
M  V30 7 C -1.33084 -1.30413 -0.0324738 0
M  V30 8 Cl -2.10175 -2.87125 0.123502 0
M  V30 9 C -2.14963 -0.222152 -0.274113 0
M  V30 10 C -1.49826 0.997635 -0.390423 0
M  V30 11 C -0.133555 1.11202 -0.272076 0
M  V30 12 N 0.494668 2.40834 -0.402024 0
M  V30 13 N -3.55932 -0.327085 -0.398327 0
M  V30 14 H 2.65836 -1.40607 1.35861 0
M  V30 15 H 2.77346 -1.8098 -0.419619 0
M  V30 16 H 0.666415 -2.07967 0.280568 0
M  V30 17 H -2.1216 1.86991 -0.581584 0
M  V30 18 H 0.720309 2.74215 -1.34337 0
M  V30 19 H 0.70599 2.97775 0.459489 0
M  V30 20 H -4.08534 -0.851653 0.31707 0
M  V30 21 H -4.08006 0.106611 -1.18563 0
M  V30 END ATOM
M  V30 BEGIN BOND
M  V30 1 1 1 2
M  V30 2 1 2 3
M  V30 3 2 3 4
M  V30 4 1 3 5
M  V30 5 2 5 6
M  V30 6 1 6 7
M  V30 7 1 7 8
M  V30 8 2 7 9
M  V30 9 1 9 10
M  V30 10 2 10 11
M  V30 11 1 11 12
M  V30 12 1 9 13
M  V30 13 1 11 5
M  V30 14 1 2 14
M  V30 15 1 2 15
M  V30 16 1 6 16
M  V30 17 1 10 17
M  V30 18 1 12 18
M  V30 19 1 12 19
M  V30 20 1 13 20
M  V30 21 1 13 21
M  V30 END BOND
M  V30 END CTAB
M  END
