
     RDKit          3D

  0  0  0  0  0  0  0  0  0  0999 V3000
M  V30 BEGIN CTAB
M  V30 COUNTS 22 23 0 0 0
M  V30 BEGIN ATOM
M  V30 1 N 3.33681 -2.07835 0.590971 0
M  V30 2 C 2.36958 -1.05286 0.305723 0
M  V30 3 N 1.08257 -1.04948 0.654914 0
M  V30 4 N 0.462951 0.0430521 0.238974 0
M  V30 5 C 1.39648 0.770956 -0.405328 0
M  V30 6 N 2.57291 0.0951817 -0.364369 0
M  V30 7 N 1.21824 2.02498 -1.0281 0
M  V30 8 C -0.904555 0.369132 0.437339 0
M  V30 9 C -1.45628 1.30905 1.28052 0
M  V30 10 C -2.83055 1.29583 1.15805 0
M  V30 11 N -3.08522 0.341265 0.236501 0
M  V30 12 N -1.94281 -0.206372 -0.189066 0
M  V30 13 C -1.84 -1.27085 -1.18578 0
M  V30 14 H 4.06166 -2.24844 -0.110208 0
M  V30 15 H 3.22971 -2.57941 1.4991 0
M  V30 16 H 1.98574 2.53366 -1.47692 0
M  V30 17 H 0.269723 2.45926 -1.0366 0
M  V30 18 H -0.930849 1.97315 1.94951 0
M  V30 19 H -3.56237 1.91574 1.68472 0
M  V30 20 H -2.8628 -1.67095 -1.3928 0
M  V30 21 H -1.35248 -0.903859 -2.11883 0
M  V30 22 H -1.21847 -2.07068 -0.728295 0
M  V30 END ATOM
M  V30 BEGIN BOND
M  V30 1 1 1 2
M  V30 2 2 2 3
M  V30 3 1 3 4
M  V30 4 1 4 5
M  V30 5 2 5 6
M  V30 6 1 5 7
M  V30 7 1 4 8
M  V30 8 2 8 9
M  V30 9 1 9 10
M  V30 10 2 10 11
M  V30 11 1 11 12
M  V30 12 1 12 13
M  V30 13 1 6 2
M  V30 14 1 12 8
M  V30 15 1 1 14
M  V30 16 1 1 15
M  V30 17 1 7 16
M  V30 18 1 7 17
M  V30 19 1 9 18
M  V30 20 1 10 19
M  V30 21 1 13 20
M  V30 22 1 13 21
M  V30 23 1 13 22
M  V30 END BOND
M  V30 END CTAB
M  END
