
     RDKit          3D

  0  0  0  0  0  0  0  0  0  0999 V3000
M  V30 BEGIN CTAB
M  V30 COUNTS 21 22 0 0 0
M  V30 BEGIN ATOM
M  V30 1 N -3.66155 0.292023 -0.0286454 0
M  V30 2 C -2.70875 -0.751558 0.201992 0
M  V30 3 C -1.32005 -0.228316 0.135268 0
M  V30 4 C -1.1284 1.10935 -0.123418 0
M  V30 5 C 0.154628 1.60629 -0.187732 0
M  V30 6 C 1.22616 0.752991 0.0085953 0
M  V30 7 C 1.03012 -0.595079 0.269217 0
M  V30 8 C -0.257471 -1.08249 0.331533 0
M  V30 9 N 2.25949 -1.10823 0.402629 0
M  V30 10 C 3.1892 -0.150957 0.238296 0
M  V30 11 O 2.52557 0.953534 0.00314502 0
M  V30 12 N 4.62012 -0.318271 0.308814 0
M  V30 13 H -3.75844 0.593936 -1.00703 0
M  V30 14 H -4.60848 0.0922168 0.347711 0
M  V30 15 H -2.79614 -1.51058 -0.619701 0
M  V30 16 H -2.92433 -1.2591 1.15457 0
M  V30 17 H -2.00046 1.77108 -0.276746 0
M  V30 18 H 0.307313 2.674 -0.394221 0
M  V30 19 H -0.396905 -2.13959 0.536277 0
M  V30 20 H 5.10183 -1.11819 -0.156606 0
M  V30 21 H 5.14654 0.416936 0.858887 0
M  V30 END ATOM
M  V30 BEGIN BOND
M  V30 1 1 1 2
M  V30 2 1 2 3
M  V30 3 2 3 4
M  V30 4 1 4 5
M  V30 5 2 5 6
M  V30 6 1 6 7
M  V30 7 2 7 8
M  V30 8 1 7 9
M  V30 9 2 9 10
M  V30 10 1 10 11
M  V30 11 1 10 12
M  V30 12 1 8 3
M  V30 13 1 11 6
M  V30 14 1 1 13
M  V30 15 1 1 14
M  V30 16 1 2 15
M  V30 17 1 2 16
M  V30 18 1 4 17
M  V30 19 1 5 18
M  V30 20 1 8 19
M  V30 21 1 12 20
M  V30 22 1 12 21
M  V30 END BOND
M  V30 END CTAB
M  END
