
     RDKit          3D

  0  0  0  0  0  0  0  0  0  0999 V3000
M  V30 BEGIN CTAB
M  V30 COUNTS 32 31 0 0 0
M  V30 BEGIN ATOM
M  V30 1 N 5.06746 -0.541309 -1.86525 0
M  V30 2 N 4.55794 0.421274 -0.99471 0
M  V30 3 C 3.45788 0.0442208 -0.153488 0
M  V30 4 O 3.00679 -1.12476 -0.237496 0
M  V30 5 C 2.86914 0.99706 0.784997 0
M  V30 6 C 1.67556 0.439241 1.46163 0
M  V30 7 C 0.516051 0.080482 0.586628 0
M  V30 8 C -0.559217 -0.458653 1.5267 0
M  V30 9 C -1.80833 -0.881293 0.821591 0
M  V30 10 C -2.42105 0.285164 0.0831376 0
M  V30 11 C -3.64757 -0.184376 -0.584675 0
M  V30 12 O -4.01058 -1.36847 -0.48019 0
M  V30 13 N -4.41503 0.720619 -1.3491 0
M  V30 14 N -5.57851 0.318601 -1.99513 0
M  V30 15 H 5.10211 -1.44317 -1.31547 0
M  V30 16 H 6.08692 -0.28394 -2.02077 0
M  V30 17 H 4.91714 1.38336 -0.914606 0
M  V30 18 H 3.63356 1.18164 1.59909 0
M  V30 19 H 2.71022 2.00664 0.348666 0
M  V30 20 H 1.99323 -0.50348 2.00193 0
M  V30 21 H 1.27317 1.0935 2.26832 0
M  V30 22 H 0.69106 -0.626368 -0.213902 0
M  V30 23 H 0.1258 1.01957 0.0974656 0
M  V30 24 H -0.858019 0.358315 2.24203 0
M  V30 25 H -0.135002 -1.25633 2.15496 0
M  V30 26 H -2.5301 -1.17622 1.62741 0
M  V30 27 H -1.64918 -1.73861 0.129669 0
M  V30 28 H -1.70113 0.686203 -0.683655 0
M  V30 29 H -2.61698 1.10505 0.805945 0
M  V30 30 H -4.14022 1.73008 -1.46089 0
M  V30 31 H -5.42808 -0.15518 -2.8958 0
M  V30 32 H -6.18501 -0.287102 -1.37504 0
M  V30 END ATOM
M  V30 BEGIN BOND
M  V30 1 1 1 2
M  V30 2 1 2 3
M  V30 3 2 3 4
M  V30 4 1 3 5
M  V30 5 1 5 6
M  V30 6 1 6 7
M  V30 7 1 7 8
M  V30 8 1 8 9
M  V30 9 1 9 10
M  V30 10 1 10 11
M  V30 11 2 11 12
M  V30 12 1 11 13
M  V30 13 1 13 14
M  V30 14 1 1 15
M  V30 15 1 1 16
M  V30 16 1 2 17
M  V30 17 1 5 18
M  V30 18 1 5 19
M  V30 19 1 6 20
M  V30 20 1 6 21
M  V30 21 1 7 22
M  V30 22 1 7 23
M  V30 23 1 8 24
M  V30 24 1 8 25
M  V30 25 1 9 26
M  V30 26 1 9 27
M  V30 27 1 10 28
M  V30 28 1 10 29
M  V30 29 1 13 30
M  V30 30 1 14 31
M  V30 31 1 14 32
M  V30 END BOND
M  V30 END CTAB
M  END
