
     RDKit          3D

  0  0  0  0  0  0  0  0  0  0999 V3000
M  V30 BEGIN CTAB
M  V30 COUNTS 26 27 0 0 0
M  V30 BEGIN ATOM
M  V30 1 C -4.7045 -0.0949835 -0.240951 0
M  V30 2 C -3.34433 -0.537844 0.145366 0
M  V30 3 C -2.94558 -1.67903 0.807592 0
M  V30 4 N -1.60316 -1.61017 0.914226 0
M  V30 5 N -1.14166 -0.514178 0.368824 0
M  V30 6 C -2.20249 0.176761 -0.120031 0
M  V30 7 C 0.192067 -0.0274854 0.247709 0
M  V30 8 C 0.494629 1.31701 0.383912 0
M  V30 9 C 1.78555 1.78629 0.266465 0
M  V30 10 C 2.83723 0.903248 0.00296325 0
M  V30 11 C 2.54108 -0.451282 -0.135462 0
M  V30 12 C 1.23849 -0.890718 -0.0124343 0
M  V30 13 N 3.62468 -1.3343 -0.403393 0
M  V30 14 N 4.15463 1.40252 -0.114205 0
M  V30 15 H -4.86359 -0.141558 -1.34161 0
M  V30 16 H -4.83905 0.959978 0.129653 0
M  V30 17 H -5.49554 -0.692377 0.264919 0
M  V30 18 H -3.63412 -2.43822 1.14582 0
M  V30 19 H -2.16619 1.12952 -0.633303 0
M  V30 20 H -0.324427 1.99313 0.587592 0
M  V30 21 H 1.99023 2.83573 0.377161 0
M  V30 22 H 1.07761 -1.95608 -0.131346 0
M  V30 23 H 3.89976 -1.57635 -1.3746 0
M  V30 24 H 4.14022 -1.73575 0.411051 0
M  V30 25 H 4.57203 1.56928 -1.04574 0
M  V30 26 H 4.71645 1.60685 0.729932 0
M  V30 END ATOM
M  V30 BEGIN BOND
M  V30 1 1 1 2
M  V30 2 1 2 3
M  V30 3 2 3 4
M  V30 4 1 4 5
M  V30 5 1 5 6
M  V30 6 1 5 7
M  V30 7 2 7 8
M  V30 8 1 8 9
M  V30 9 2 9 10
M  V30 10 1 10 11
M  V30 11 2 11 12
M  V30 12 1 11 13
M  V30 13 1 10 14
M  V30 14 2 6 2
M  V30 15 1 12 7
M  V30 16 1 1 15
M  V30 17 1 1 16
M  V30 18 1 1 17
M  V30 19 1 3 18
M  V30 20 1 6 19
M  V30 21 1 8 20
M  V30 22 1 9 21
M  V30 23 1 12 22
M  V30 24 1 13 23
M  V30 25 1 13 24
M  V30 26 1 14 25
M  V30 27 1 14 26
M  V30 END BOND
M  V30 END CTAB
M  END
