
     RDKit          3D

  0  0  0  0  0  0  0  0  0  0999 V3000
M  V30 BEGIN CTAB
M  V30 COUNTS 65 71 0 0 0
M  V30 BEGIN ATOM
M  V30 1 C -4.07483 -0.416799 2.97479 0
M  V30 2 C -3.0911 -1.45978 2.53901 0
M  V30 3 C -2.41027 -1.35411 1.3532 0
M  V30 4 C -1.53257 -2.33935 0.990952 0
M  V30 5 C -1.32536 -3.45164 1.82153 0
M  V30 6 C -2.00396 -3.56747 3.0155 0
M  V30 7 C -2.88172 -2.57024 3.36479 0
M  V30 8 N -2.63846 -0.234122 0.517436 0
M  V30 9 C -2.04668 0.970019 0.715604 0
M  V30 10 C -1.07528 1.19552 1.77681 0
M  V30 11 N 0.291394 1.30085 1.3109 0
M  V30 12 N 1.08813 0.268737 1.12585 0
M  V30 13 C 2.29837 0.662694 0.680388 0
M  V30 14 C 2.24225 2.02572 0.588238 0
M  V30 15 C 3.10036 3.04389 0.236792 0
M  V30 16 N 4.43797 2.69284 -0.142751 0
M  V30 17 N 2.74548 4.35407 0.268027 0
M  V30 18 C 1.51737 4.71736 0.652438 0
M  V30 19 N 0.683819 3.73437 0.995526 0
M  V30 20 C 0.959068 2.43606 0.990022 0
M  V30 21 C 3.43667 -0.198017 0.394615 0
M  V30 22 C 3.85998 -0.999077 1.46121 0
M  V30 23 C 4.89401 -1.8674 1.22408 0
M  V30 24 C 5.52998 -1.98908 0.00116408 0
M  V30 25 N 6.54781 -2.76819 -0.428432 0
M  V30 26 C 6.76181 -2.46355 -1.74339 0
M  V30 27 N 7.75257 -3.06633 -2.5684 0
M  V30 28 N 5.87277 -1.50356 -2.0987 0
M  V30 29 C 5.1014 -1.19252 -1.04265 0
M  V30 30 C 4.06553 -0.322677 -0.806542 0
M  V30 31 C -2.38345 1.98682 -0.145101 0
M  V30 32 C -3.29096 1.81038 -1.18598 0
M  V30 33 C -3.62347 2.82582 -2.04202 0
M  V30 34 C -4.52674 2.6454 -3.07648 0
M  V30 35 C -5.0846 1.39516 -3.21511 0
M  V30 36 C -4.78787 0.317978 -2.37604 0
M  V30 37 C -5.41376 -1.00251 -2.56772 0
M  V30 38 C -3.87099 0.573281 -1.35766 0
M  V30 39 C -3.51787 -0.409805 -0.489857 0
M  V30 40 O -4.0279 -1.55235 -0.61648 0
M  V30 41 H -4.46743 0.152072 2.11005 0
M  V30 42 H -4.95266 -0.951345 3.4154 0
M  V30 43 H -3.67334 0.22447 3.77487 0
M  V30 44 H -0.97539 -2.29254 0.0609101 0
M  V30 45 H -0.640932 -4.24105 1.56106 0
M  V30 46 H -1.84816 -4.43836 3.67645 0
M  V30 47 H -3.42297 -2.6418 4.2954 0
M  V30 48 H -1.10657 0.33322 2.51224 0
M  V30 49 H -1.34921 2.08547 2.41347 0
M  V30 50 H 5.1475 2.3814 0.567248 0
M  V30 51 H 4.71322 2.74893 -1.15471 0
M  V30 52 H 1.2186 5.77586 0.681102 0
M  V30 53 H 3.37357 -0.924099 2.44379 0
M  V30 54 H 5.24234 -2.5045 2.04423 0
M  V30 55 H 8.70357 -3.21168 -2.16295 0
M  V30 56 H 7.51996 -3.3473 -3.54231 0
M  V30 57 H 5.83921 -1.10411 -3.06167 0
M  V30 58 H 3.74366 0.26755 -1.64896 0
M  V30 59 H -1.96229 3.00036 -0.0555134 0
M  V30 60 H -3.14457 3.79471 -1.87716 0
M  V30 61 H -4.77201 3.45134 -3.73293 0
M  V30 62 H -5.81051 1.20043 -4.02458 0
M  V30 63 H -4.72734 -1.79961 -2.91082 0
M  V30 64 H -6.12619 -1.3019 -1.7776 0
M  V30 65 H -6.10102 -0.885872 -3.4685 0
M  V30 END ATOM
M  V30 BEGIN BOND
M  V30 1 1 1 2
M  V30 2 2 2 3
M  V30 3 1 3 4
M  V30 4 2 4 5
M  V30 5 1 5 6
M  V30 6 2 6 7
M  V30 7 1 3 8
M  V30 8 1 8 9
M  V30 9 1 9 10
M  V30 10 1 10 11
M  V30 11 1 11 12
M  V30 12 2 12 13
M  V30 13 1 13 14
M  V30 14 2 14 15
M  V30 15 1 15 16
M  V30 16 1 15 17
M  V30 17 2 17 18
M  V30 18 1 18 19
M  V30 19 2 19 20
M  V30 20 1 13 21
M  V30 21 2 21 22
M  V30 22 1 22 23
M  V30 23 2 23 24
M  V30 24 1 24 25
M  V30 25 2 25 26
M  V30 26 1 26 27
M  V30 27 1 26 28
M  V30 28 1 28 29
M  V30 29 2 29 30
M  V30 30 2 9 31
M  V30 31 1 31 32
M  V30 32 2 32 33
M  V30 33 1 33 34
M  V30 34 2 34 35
M  V30 35 1 35 36
M  V30 36 1 36 37
M  V30 37 2 36 38
M  V30 38 1 38 39
M  V30 39 2 39 40
M  V30 40 1 7 2
M  V30 41 1 39 8
M  V30 42 1 20 11
M  V30 43 1 30 21
M  V30 44 1 38 32
M  V30 45 1 20 14
M  V30 46 1 29 24
M  V30 47 1 1 41
M  V30 48 1 1 42
M  V30 49 1 1 43
M  V30 50 1 4 44
M  V30 51 1 5 45
M  V30 52 1 6 46
M  V30 53 1 7 47
M  V30 54 1 10 48
M  V30 55 1 10 49
M  V30 56 1 16 50
M  V30 57 1 16 51
M  V30 58 1 18 52
M  V30 59 1 22 53
M  V30 60 1 23 54
M  V30 61 1 27 55
M  V30 62 1 27 56
M  V30 63 1 28 57
M  V30 64 1 30 58
M  V30 65 1 31 59
M  V30 66 1 33 60
M  V30 67 1 34 61
M  V30 68 1 35 62
M  V30 69 1 37 63
M  V30 70 1 37 64
M  V30 71 1 37 65
M  V30 END BOND
M  V30 END CTAB
M  END
