
     RDKit          3D

  0  0  0  0  0  0  0  0  0  0999 V3000
M  V30 BEGIN CTAB
M  V30 COUNTS 21 21 0 0 0
M  V30 BEGIN ATOM
M  V30 1 C -2.72822 -1.4445 0.435536 0
M  V30 2 N -2.10579 -0.163883 0.0896047 0
M  V30 3 C -0.692447 -0.0943868 0.0394181 0
M  V30 4 C 0.0852646 -1.19996 0.308074 0
M  V30 5 C 1.46048 -1.09765 0.250257 0
M  V30 6 C 2.10928 0.0778415 -0.069002 0
M  V30 7 C 1.30625 1.18116 -0.336498 0
M  V30 8 C -0.0727972 1.10587 -0.285591 0
M  V30 9 N -0.847134 2.27834 -0.571673 0
M  V30 10 N 3.52682 0.174397 -0.126295 0
M  V30 11 H -2.55156 -1.68971 1.51612 0
M  V30 12 H -2.29252 -2.25805 -0.178915 0
M  V30 13 H -3.83721 -1.37613 0.282346 0
M  V30 14 H -2.7228 0.663395 -0.110664 0
M  V30 15 H -0.386126 -2.16096 0.567726 0
M  V30 16 H 2.09975 -1.95816 0.458589 0
M  V30 17 H 1.83204 2.10833 -0.588628 0
M  V30 18 H -1.60057 2.57851 0.0804899 0
M  V30 19 H -0.68417 2.85772 -1.42591 0
M  V30 20 H 4.1179 0.265907 0.724229 0
M  V30 21 H 3.98355 0.151915 -1.05921 0
M  V30 END ATOM
M  V30 BEGIN BOND
M  V30 1 1 1 2
M  V30 2 1 2 3
M  V30 3 2 3 4
M  V30 4 1 4 5
M  V30 5 2 5 6
M  V30 6 1 6 7
M  V30 7 2 7 8
M  V30 8 1 8 9
M  V30 9 1 6 10
M  V30 10 1 8 3
M  V30 11 1 1 11
M  V30 12 1 1 12
M  V30 13 1 1 13
M  V30 14 1 2 14
M  V30 15 1 4 15
M  V30 16 1 5 16
M  V30 17 1 7 17
M  V30 18 1 9 18
M  V30 19 1 9 19
M  V30 20 1 10 20
M  V30 21 1 10 21
M  V30 END BOND
M  V30 END CTAB
M  END
