
     RDKit          3D

  0  0  0  0  0  0  0  0  0  0999 V3000
M  V30 BEGIN CTAB
M  V30 COUNTS 38 38 0 0 0
M  V30 BEGIN ATOM
M  V30 1 N -1.20145 2.70028 0.443234 0
M  V30 2 C -1.91707 1.53718 0.910685 0
M  V30 3 C -1.67356 0.443409 -0.0727861 0
M  V30 4 C -2.34171 -0.866373 0.24817 0
M  V30 5 C -3.8605 -0.707242 0.316776 0
M  V30 6 C -1.9954 -1.82689 -0.873459 0
M  V30 7 N -0.251186 0.233739 -0.212099 0
M  V30 8 C 0.535034 -0.134906 0.889005 0
M  V30 9 O 0.0390081 -0.297834 2.02695 0
M  V30 10 C 1.96712 -0.345642 0.755775 0
M  V30 11 C 2.65739 -1.00909 1.7574 0
M  V30 12 C 4.0127 -1.20501 1.63865 0
M  V30 13 C 4.67571 -0.741442 0.52649 0
M  V30 14 C 3.98619 -0.0866535 -0.458885 0
M  V30 15 C 2.61557 0.113942 -0.343242 0
M  V30 16 N 4.62462 0.416426 -1.63669 0
M  V30 17 C -2.23884 0.939626 -1.40837 0
M  V30 18 H -1.71445 3.29331 -0.206774 0
M  V30 19 H -0.210902 2.54867 0.255788 0
M  V30 20 H -3.01518 1.8088 0.80799 0
M  V30 21 H -1.78767 1.29865 1.96243 0
M  V30 22 H -2.00429 -1.32937 1.19163 0
M  V30 23 H -4.12037 0.10663 1.01481 0
M  V30 24 H -4.26553 -0.544123 -0.696962 0
M  V30 25 H -4.25967 -1.65934 0.759134 0
M  V30 26 H -2.65273 -1.67484 -1.76329 0
M  V30 27 H -0.961162 -1.59562 -1.21282 0
M  V30 28 H -2.00137 -2.88176 -0.535186 0
M  V30 29 H 0.175536 0.365029 -1.18015 0
M  V30 30 H 2.10336 -1.35507 2.60875 0
M  V30 31 H 4.54611 -1.73289 2.4413 0
M  V30 32 H 5.73262 -0.906953 0.457715 0
M  V30 33 H 2.12678 0.632365 -1.13533 0
M  V30 34 H 4.66869 1.45293 -1.74466 0
M  V30 35 H 5.00831 -0.269704 -2.31823 0
M  V30 36 H -2.03171 0.215381 -2.22502 0
M  V30 37 H -1.66899 1.86285 -1.68253 0
M  V30 38 H -3.30098 1.20153 -1.30621 0
M  V30 END ATOM
M  V30 BEGIN BOND
M  V30 1 1 1 2
M  V30 2 1 2 3
M  V30 3 1 3 4
M  V30 4 1 4 5
M  V30 5 1 4 6
M  V30 6 1 3 7
M  V30 7 1 7 8
M  V30 8 2 8 9
M  V30 9 1 8 10
M  V30 10 2 10 11
M  V30 11 1 11 12
M  V30 12 2 12 13
M  V30 13 1 13 14
M  V30 14 2 14 15
M  V30 15 1 14 16
M  V30 16 1 3 17
M  V30 17 1 15 10
M  V30 18 1 1 18
M  V30 19 1 1 19
M  V30 20 1 2 20
M  V30 21 1 2 21
M  V30 22 1 4 22
M  V30 23 1 5 23
M  V30 24 1 5 24
M  V30 25 1 5 25
M  V30 26 1 6 26
M  V30 27 1 6 27
M  V30 28 1 6 28
M  V30 29 1 7 29
M  V30 30 1 11 30
M  V30 31 1 12 31
M  V30 32 1 13 32
M  V30 33 1 15 33
M  V30 34 1 16 34
M  V30 35 1 16 35
M  V30 36 1 17 36
M  V30 37 1 17 37
M  V30 38 1 17 38
M  V30 END BOND
M  V30 END CTAB
M  END
