
     RDKit          3D

  0  0  0  0  0  0  0  0  0  0999 V3000
M  V30 BEGIN CTAB
M  V30 COUNTS 28 30 0 0 0
M  V30 BEGIN ATOM
M  V30 1 N -4.87581 -0.145425 -0.400979 0
M  V30 2 C -3.48905 -0.326104 -0.150676 0
M  V30 3 C -3.10431 -1.43608 0.574549 0
M  V30 4 C -1.76392 -1.6132 0.818003 0
M  V30 5 C -0.847355 -0.693049 0.340186 0
M  V30 6 C 0.565459 -0.940123 0.634136 0
M  V30 7 O 0.931662 -1.95813 1.3006 0
M  V30 8 C 1.58207 -0.0123561 0.161578 0
M  V30 9 C 1.16035 1.08919 -0.562126 0
M  V30 10 C 2.1474 1.9673 -1.00692 0
M  V30 11 C 3.47666 1.74152 -0.734499 0
M  V30 12 C 3.84481 0.618773 -0.00302509 0
M  V30 13 C 2.90574 -0.267233 0.451443 0
M  V30 14 N 3.29672 -1.42978 1.20985 0
M  V30 15 C -0.24618 1.33553 -0.854993 0
M  V30 16 O -0.610244 2.34636 -1.5168 0
M  V30 17 C -1.26367 0.406 -0.381431 0
M  V30 18 C -2.61075 0.594105 -0.632348 0
M  V30 19 H -5.55639 -0.194565 0.404533 0
M  V30 20 H -5.27033 0.0346959 -1.3393 0
M  V30 21 H -3.84214 -2.13964 0.936202 0
M  V30 22 H -1.39951 -2.46458 1.38119 0
M  V30 23 H 1.82553 2.82546 -1.57006 0
M  V30 24 H 4.24148 2.43429 -1.0868 0
M  V30 25 H 4.90649 0.453815 0.205039 0
M  V30 26 H 3.14902 -1.4356 2.24208 0
M  V30 27 H 3.71943 -2.26631 0.784246 0
M  V30 28 H -2.87315 1.47513 -1.20369 0
M  V30 END ATOM
M  V30 BEGIN BOND
M  V30 1 1 1 2
M  V30 2 2 2 3
M  V30 3 1 3 4
M  V30 4 2 4 5
M  V30 5 1 5 6
M  V30 6 2 6 7
M  V30 7 1 6 8
M  V30 8 2 8 9
M  V30 9 1 9 10
M  V30 10 2 10 11
M  V30 11 1 11 12
M  V30 12 2 12 13
M  V30 13 1 13 14
M  V30 14 1 9 15
M  V30 15 2 15 16
M  V30 16 1 15 17
M  V30 17 2 17 18
M  V30 18 1 18 2
M  V30 19 1 17 5
M  V30 20 1 13 8
M  V30 21 1 1 19
M  V30 22 1 1 20
M  V30 23 1 3 21
M  V30 24 1 4 22
M  V30 25 1 10 23
M  V30 26 1 11 24
M  V30 27 1 12 25
M  V30 28 1 14 26
M  V30 29 1 14 27
M  V30 30 1 18 28
M  V30 END BOND
M  V30 END CTAB
M  END
