
     RDKit          3D

  0  0  0  0  0  0  0  0  0  0999 V3000
M  V30 BEGIN CTAB
M  V30 COUNTS 32 31 0 0 0
M  V30 BEGIN ATOM
M  V30 1 C 1.06963 -1.12927 0.399206 0 CFG=1
M  V30 2 N 1.24828 -0.812969 1.79433 0
M  V30 3 C -0.0905559 -0.37062 -0.153786 0
M  V30 4 C -1.38958 -0.664863 0.52655 0
M  V30 5 C -2.44966 0.191692 -0.164345 0
M  V30 6 N -3.74147 -0.0217056 0.42244 0
M  V30 7 C -4.84993 0.698207 -0.100341 0
M  V30 8 N -5.49472 0.179421 -1.2536 0
M  V30 9 N -5.26131 1.78363 0.446753 0
M  V30 10 C 2.28035 -0.716877 -0.397641 0
M  V30 11 O 2.33044 -0.903734 -1.63996 0
M  V30 12 O 3.36383 -0.125066 0.210381 0
M  V30 13 C 4.47993 0.248893 -0.561065 0
M  V30 14 C 5.52491 0.874488 0.350442 0
M  V30 15 H 0.88571 -2.21563 0.289002 0
M  V30 16 H 2.12346 -1.24011 2.18546 0
M  V30 17 H 1.21035 0.215358 1.95709 0
M  V30 18 H -0.208356 -0.608253 -1.22997 0
M  V30 19 H 0.0972416 0.730442 -0.0640861 0
M  V30 20 H -1.35746 -0.404711 1.61257 0
M  V30 21 H -1.61979 -1.73273 0.382862 0
M  V30 22 H -2.20599 1.26185 -0.0999985 0
M  V30 23 H -2.40809 -0.0858237 -1.23602 0
M  V30 24 H -3.81748 -0.698173 1.21149 0
M  V30 25 H -6.5261 0.0802394 -1.23279 0
M  V30 26 H -4.97697 -0.0991349 -2.10236 0
M  V30 27 H -4.76698 2.13802 1.29166 0
M  V30 28 H 4.941 -0.605341 -1.08367 0
M  V30 29 H 4.2093 0.988353 -1.35806 0
M  V30 30 H 6.54333 0.780769 -0.11177 0
M  V30 31 H 5.2805 1.93147 0.573365 0
M  V30 32 H 5.57616 0.332169 1.31765 0
M  V30 END ATOM
M  V30 BEGIN BOND
M  V30 1 1 1 2
M  V30 2 1 1 3
M  V30 3 1 3 4
M  V30 4 1 4 5
M  V30 5 1 5 6
M  V30 6 1 6 7
M  V30 7 1 7 8
M  V30 8 2 7 9 CFG=2
M  V30 9 1 1 10
M  V30 10 2 10 11
M  V30 11 1 10 12
M  V30 12 1 12 13
M  V30 13 1 13 14
M  V30 14 1 1 15 CFG=1
M  V30 15 1 2 16
M  V30 16 1 2 17
M  V30 17 1 3 18
M  V30 18 1 3 19
M  V30 19 1 4 20
M  V30 20 1 4 21
M  V30 21 1 5 22
M  V30 22 1 5 23
M  V30 23 1 6 24
M  V30 24 1 8 25
M  V30 25 1 8 26
M  V30 26 1 9 27
M  V30 27 1 13 28
M  V30 28 1 13 29
M  V30 29 1 14 30
M  V30 30 1 14 31
M  V30 31 1 14 32
M  V30 END BOND
M  V30 END CTAB
M  END
