
     RDKit          3D

  0  0  0  0  0  0  0  0  0  0999 V3000
M  V30 BEGIN CTAB
M  V30 COUNTS 29 30 0 0 0
M  V30 BEGIN ATOM
M  V30 1 C 5.24391 -0.260433 0.0304839 0
M  V30 2 O 4.36243 0.562489 -0.732994 0
M  V30 3 C 2.99804 0.472273 -0.495961 0
M  V30 4 C 2.49528 -0.394865 0.4589 0
M  V30 5 C 1.12315 -0.491866 0.703773 0
M  V30 6 C 0.233736 0.279846 -0.00640769 0
M  V30 7 C 0.773953 1.13878 -0.956315 0
M  V30 8 C 2.10364 1.24548 -1.2065 0
M  V30 9 C -1.2076 0.238167 0.169062 0
M  V30 10 N -1.91867 1.37824 0.312455 0
M  V30 11 C -3.23855 1.41044 0.46738 0
M  V30 12 N -3.98125 2.60915 0.61757 0
M  V30 13 N -3.89749 0.249895 0.481926 0
M  V30 14 C -3.28794 -0.938321 0.347434 0
M  V30 15 N -3.99394 -2.17767 0.363251 0
M  V30 16 C -1.90148 -0.945477 0.18576 0
M  V30 17 C -1.22435 -2.20448 0.0200736 0
M  V30 18 N -0.69076 -3.2377 -0.1322 0
M  V30 19 H 4.92106 -1.31868 -0.00973007 0
M  V30 20 H 5.26518 0.15167 1.06293 0
M  V30 21 H 6.2805 -0.20233 -0.351797 0
M  V30 22 H 3.18553 -0.995592 1.01147 0
M  V30 23 H 0.780694 -1.17547 1.46539 0
M  V30 24 H 0.0988292 1.76269 -1.53456 0
M  V30 25 H 2.4924 1.9243 -1.95321 0
M  V30 26 H -3.58123 3.55665 0.346474 0
M  V30 27 H -4.93631 2.6118 0.99441 0
M  V30 28 H -4.25448 -2.68154 -0.512251 0
M  V30 29 H -4.24429 -2.56745 1.31083 0
M  V30 END ATOM
M  V30 BEGIN BOND
M  V30 1 1 1 2
M  V30 2 1 2 3
M  V30 3 2 3 4
M  V30 4 1 4 5
M  V30 5 2 5 6
M  V30 6 1 6 7
M  V30 7 2 7 8
M  V30 8 1 6 9
M  V30 9 2 9 10
M  V30 10 1 10 11
M  V30 11 1 11 12
M  V30 12 2 11 13
M  V30 13 1 13 14
M  V30 14 1 14 15
M  V30 15 2 14 16
M  V30 16 1 16 17
M  V30 17 3 17 18
M  V30 18 1 8 3
M  V30 19 1 16 9
M  V30 20 1 1 19
M  V30 21 1 1 20
M  V30 22 1 1 21
M  V30 23 1 4 22
M  V30 24 1 5 23
M  V30 25 1 7 24
M  V30 26 1 8 25
M  V30 27 1 12 26
M  V30 28 1 12 27
M  V30 29 1 15 28
M  V30 30 1 15 29
M  V30 END BOND
M  V30 END CTAB
M  END
