
     RDKit          3D

  0  0  0  0  0  0  0  0  0  0999 V3000
M  V30 BEGIN CTAB
M  V30 COUNTS 19 19 0 0 0
M  V30 BEGIN ATOM
M  V30 1 N 0.567616 -1.83478 0.681135 0
M  V30 2 C -0.369721 -0.835339 0.30401 0
M  V30 3 C 0.0974219 0.24683 -0.409549 0
M  V30 4 C -0.786943 1.24986 -0.799607 0
M  V30 5 C -2.12361 1.12872 -0.455206 0
M  V30 6 Cl -3.27348 2.37889 -0.931554 0
M  V30 7 C -2.55859 0.0292242 0.261609 0
M  V30 8 C -1.68536 -0.971407 0.652595 0
M  V30 9 S 1.78264 0.339176 -0.80931 0
M  V30 10 N 2.78157 0.352405 0.598232 0
M  V30 11 O 2.23115 -0.819984 -1.65631 0
M  V30 12 O 2.02531 1.58414 -1.61591 0
M  V30 13 H 0.982226 -2.52332 0.0123451 0
M  V30 14 H 0.851605 -1.87491 1.68594 0
M  V30 15 H -0.408348 2.09901 -1.36199 0
M  V30 16 H -3.60616 -0.0282243 0.510142 0
M  V30 17 H -2.03006 -1.83841 1.21818 0
M  V30 18 H 3.2769 1.25474 0.690283 0
M  V30 19 H 2.24582 0.0633736 1.42498 0
M  V30 END ATOM
M  V30 BEGIN BOND
M  V30 1 1 1 2
M  V30 2 2 2 3
M  V30 3 1 3 4
M  V30 4 2 4 5
M  V30 5 1 5 6
M  V30 6 1 5 7
M  V30 7 2 7 8
M  V30 8 1 3 9
M  V30 9 1 9 10
M  V30 10 2 9 11
M  V30 11 2 9 12
M  V30 12 1 8 2
M  V30 13 1 1 13
M  V30 14 1 1 14
M  V30 15 1 4 15
M  V30 16 1 7 16
M  V30 17 1 8 17
M  V30 18 1 10 18
M  V30 19 1 10 19
M  V30 END BOND
M  V30 END CTAB
M  END
