
     RDKit          3D

  0  0  0  0  0  0  0  0  0  0999 V3000
M  V30 BEGIN CTAB
M  V30 COUNTS 26 26 0 0 0
M  V30 BEGIN ATOM
M  V30 1 N 4.6659 -0.133252 0.852516 0
M  V30 2 C 3.38341 -0.112664 0.252909 0
M  V30 3 C 2.27819 -0.690003 0.827309 0
M  V30 4 C 1.0173 -0.656951 0.214315 0
M  V30 5 C 0.878685 -0.0295995 -0.995483 0
M  V30 6 C 2.00814 0.544715 -1.55436 0
M  V30 7 C 3.23848 0.508212 -0.949022 0
M  V30 8 O -0.283364 0.0451619 -1.63621 0
M  V30 9 C -1.57174 -0.352038 -1.4307 0
M  V30 10 C -2.14964 0.324019 -0.21744 0
M  V30 11 S -3.83727 -0.182 0.0724148 0
M  V30 12 O -4.73847 0.274177 -1.04953 0
M  V30 13 O -3.93555 -1.65211 0.276666 0
M  V30 14 N -4.35631 0.676829 1.49222 0
M  V30 15 H 5.50833 -0.496338 0.377305 0
M  V30 16 H 4.75978 0.244108 1.83834 0
M  V30 17 H 2.41977 -1.17666 1.78165 0
M  V30 18 H 0.237993 -1.1545 0.757698 0
M  V30 19 H 1.89287 1.03657 -2.50671 0
M  V30 20 H 4.08937 0.980279 -1.44231 0
M  V30 21 H -2.23545 -0.221103 -2.32183 0
M  V30 22 H -1.56509 -1.44762 -1.19078 0
M  V30 23 H -1.62484 0.192601 0.712853 0
M  V30 24 H -2.22896 1.42723 -0.457128 0
M  V30 25 H -3.71477 0.367596 2.26167 0
M  V30 26 H -4.13674 1.68334 1.31982 0
M  V30 END ATOM
M  V30 BEGIN BOND
M  V30 1 1 1 2
M  V30 2 2 2 3
M  V30 3 1 3 4
M  V30 4 2 4 5
M  V30 5 1 5 6
M  V30 6 2 6 7
M  V30 7 1 5 8
M  V30 8 1 8 9
M  V30 9 1 9 10
M  V30 10 1 10 11
M  V30 11 2 11 12
M  V30 12 2 11 13
M  V30 13 1 11 14
M  V30 14 1 7 2
M  V30 15 1 1 15
M  V30 16 1 1 16
M  V30 17 1 3 17
M  V30 18 1 4 18
M  V30 19 1 6 19
M  V30 20 1 7 20
M  V30 21 1 9 21
M  V30 22 1 9 22
M  V30 23 1 10 23
M  V30 24 1 10 24
M  V30 25 1 14 25
M  V30 26 1 14 26
M  V30 END BOND
M  V30 END CTAB
M  END
