
     RDKit          3D

  0  0  0  0  0  0  0  0  0  0999 V3000
M  V30 BEGIN CTAB
M  V30 COUNTS 40 42 0 0 0
M  V30 BEGIN ATOM
M  V30 1 C 7.33348 0.567277 -0.165752 0
M  V30 2 C 6.12813 0.183172 0.635435 0
M  V30 3 O 4.93897 0.310898 -0.0827631 0
M  V30 4 C 3.7252 -0.0227692 0.565877 0
M  V30 5 O 3.87999 -0.396592 1.72294 0
M  V30 6 C 2.51617 0.119022 -0.199833 0
M  V30 7 C 2.4677 0.563542 -1.53722 0
M  V30 8 N 3.63249 0.920904 -2.27041 0
M  V30 9 O 1.23055 0.582823 -1.94608 0
M  V30 10 C 0.420543 0.194006 -1.01844 0
M  V30 11 C 1.17705 -0.115025 0.116647 0
M  V30 12 C 0.56013 -0.550682 1.23861 0
M  V30 13 Br 1.51787 -0.990828 2.82122 0
M  V30 14 C -0.809868 -0.702187 1.30054 0
M  V30 15 O -1.6188 -1.09391 2.23716 0
M  V30 16 C -2.85482 -1.07619 1.83326 0
M  V30 17 C -2.89015 -0.626723 0.48487 0
M  V30 18 C -1.57972 -0.39948 0.180493 0
M  V30 19 C -0.962458 0.0446137 -0.966497 0
M  V30 20 Cl -1.81337 0.456113 -2.43356 0
M  V30 21 C -4.09 -0.482178 -0.286417 0
M  V30 22 O -5.22981 -0.788585 0.302135 0
M  V30 23 O -4.29986 -0.0752 -1.55788 0
M  V30 24 C -5.58983 0.00646519 -2.16754 0
M  V30 25 C -6.50767 0.942 -1.45207 0
M  V30 26 N -4.01568 -1.42563 2.544 0
M  V30 27 H 7.87438 1.40061 0.330103 0
M  V30 28 H 8.04132 -0.304278 -0.278225 0
M  V30 29 H 7.06758 0.896581 -1.20079 0
M  V30 30 H 6.21243 -0.903989 0.928485 0
M  V30 31 H 6.11252 0.732 1.61771 0
M  V30 32 H 4.23509 0.226529 -2.75393 0
M  V30 33 H 3.92839 1.93089 -2.34773 0
M  V30 34 H -6.02356 -1.00104 -2.31809 0
M  V30 35 H -5.39397 0.437924 -3.19071 0
M  V30 36 H -7.3872 0.366685 -1.04981 0
M  V30 37 H -6.95562 1.70925 -2.12673 0
M  V30 38 H -6.07052 1.46349 -0.597684 0
M  V30 39 H -4.21512 -2.40801 2.79302 0
M  V30 40 H -4.69196 -0.691485 2.82902 0
M  V30 END ATOM
M  V30 BEGIN BOND
M  V30 1 1 1 2
M  V30 2 1 2 3
M  V30 3 1 3 4
M  V30 4 2 4 5
M  V30 5 1 4 6
M  V30 6 2 6 7
M  V30 7 1 7 8
M  V30 8 1 7 9
M  V30 9 1 9 10
M  V30 10 2 10 11
M  V30 11 1 11 12
M  V30 12 1 12 13
M  V30 13 2 12 14
M  V30 14 1 14 15
M  V30 15 1 15 16
M  V30 16 2 16 17
M  V30 17 1 17 18
M  V30 18 2 18 19
M  V30 19 1 19 20
M  V30 20 1 17 21
M  V30 21 2 21 22
M  V30 22 1 21 23
M  V30 23 1 23 24
M  V30 24 1 24 25
M  V30 25 1 16 26
M  V30 26 1 11 6
M  V30 27 1 18 14
M  V30 28 1 19 10
M  V30 29 1 1 27
M  V30 30 1 1 28
M  V30 31 1 1 29
M  V30 32 1 2 30
M  V30 33 1 2 31
M  V30 34 1 8 32
M  V30 35 1 8 33
M  V30 36 1 24 34
M  V30 37 1 24 35
M  V30 38 1 25 36
M  V30 39 1 25 37
M  V30 40 1 25 38
M  V30 41 1 26 39
M  V30 42 1 26 40
M  V30 END BOND
M  V30 END CTAB
M  END
