
     RDKit          3D

  0  0  0  0  0  0  0  0  0  0999 V3000
M  V30 BEGIN CTAB
M  V30 COUNTS 17 17 0 0 0
M  V30 BEGIN ATOM
M  V30 1 O -2.26002 -0.598546 1.41599 0
M  V30 2 C -1.07789 -0.307368 0.719181 0
M  V30 3 C 0.126344 -0.650957 1.30397 0
M  V30 4 C 1.2775 -0.34046 0.570948 0
M  V30 5 O 2.53307 -0.645132 1.07238 0
M  V30 6 C 1.19078 0.268194 -0.651943 0
M  V30 7 N -0.0231656 0.574045 -1.15955 0
M  V30 8 C -1.1666 0.303405 -0.50781 0
M  V30 9 N -2.45759 0.610521 -1.01093 0
M  V30 10 N 2.39664 0.560309 -1.35278 0
M  V30 11 H -3.16725 -0.367801 1.03223 0
M  V30 12 H 0.20792 -1.1278 2.26077 0
M  V30 13 H 2.58738 -1.09337 1.97385 0
M  V30 14 H -3.0346 -0.0526668 -1.56657 0
M  V30 15 H -2.88525 1.55266 -0.830334 0
M  V30 16 H 2.79612 1.51854 -1.44467 0
M  V30 17 H 2.95662 -0.203563 -1.82472 0
M  V30 END ATOM
M  V30 BEGIN BOND
M  V30 1 1 1 2
M  V30 2 2 2 3
M  V30 3 1 3 4
M  V30 4 1 4 5
M  V30 5 2 4 6
M  V30 6 1 6 7
M  V30 7 2 7 8
M  V30 8 1 8 9
M  V30 9 1 6 10
M  V30 10 1 8 2
M  V30 11 1 1 11
M  V30 12 1 3 12
M  V30 13 1 5 13
M  V30 14 1 9 14
M  V30 15 1 9 15
M  V30 16 1 10 16
M  V30 17 1 10 17
M  V30 END BOND
M  V30 END CTAB
M  END
