
     RDKit          3D

  0  0  0  0  0  0  0  0  0  0999 V3000
M  V30 BEGIN CTAB
M  V30 COUNTS 25 25 0 0 0
M  V30 BEGIN ATOM
M  V30 1 N -4.43453 0.0759181 0.31899 0
M  V30 2 C -3.0268 0.26862 0.550648 0
M  V30 3 C -2.26801 -0.506502 -0.479626 0
M  V30 4 C -0.79544 -0.383498 -0.340574 0
M  V30 5 C -0.122788 0.630542 -1.00408 0
M  V30 6 C 1.24385 0.782516 -0.903755 0
M  V30 7 C 2.01147 -0.0777227 -0.12969 0
M  V30 8 C 1.32011 -1.07606 0.518948 0
M  V30 9 C -0.0479123 -1.24666 0.432538 0
M  V30 10 C 3.45704 0.0834602 -0.0238698 0
M  V30 11 N 4.18388 -0.699872 0.685423 0
M  V30 12 N 4.097 1.14184 -0.726176 0
M  V30 13 H -5.01464 0.122 1.17529 0
M  V30 14 H -4.82029 0.708731 -0.412752 0
M  V30 15 H -2.81534 -0.133336 1.5767 0
M  V30 16 H -2.77277 1.32996 0.557151 0
M  V30 17 H -2.5559 -0.119428 -1.48616 0
M  V30 18 H -2.60346 -1.5653 -0.436543 0
M  V30 19 H -0.725521 1.29893 -1.60651 0
M  V30 20 H 1.75784 1.57481 -1.42399 0
M  V30 21 H 1.88722 -1.76999 1.13514 0
M  V30 22 H -0.551606 -2.05544 0.966895 0
M  V30 23 H 3.89134 -1.50042 1.24689 0
M  V30 24 H 3.65168 2.07738 -0.856205 0
M  V30 25 H 5.05358 1.03951 -1.15264 0
M  V30 END ATOM
M  V30 BEGIN BOND
M  V30 1 1 1 2
M  V30 2 1 2 3
M  V30 3 1 3 4
M  V30 4 2 4 5
M  V30 5 1 5 6
M  V30 6 2 6 7
M  V30 7 1 7 8
M  V30 8 2 8 9
M  V30 9 1 7 10
M  V30 10 2 10 11 CFG=2
M  V30 11 1 10 12
M  V30 12 1 9 4
M  V30 13 1 1 13
M  V30 14 1 1 14
M  V30 15 1 2 15
M  V30 16 1 2 16
M  V30 17 1 3 17
M  V30 18 1 3 18
M  V30 19 1 5 19
M  V30 20 1 6 20
M  V30 21 1 8 21
M  V30 22 1 9 22
M  V30 23 1 11 23
M  V30 24 1 12 24
M  V30 25 1 12 25
M  V30 END BOND
M  V30 END CTAB
M  END
