
     RDKit          3D

  0  0  0  0  0  0  0  0  0  0999 V3000
M  V30 BEGIN CTAB
M  V30 COUNTS 24 24 0 0 0
M  V30 BEGIN ATOM
M  V30 1 N 4.38337 -0.162305 -0.380095 0
M  V30 2 C 2.96709 -0.0762041 -0.360564 0
M  V30 3 N 2.13014 -0.255891 -1.4259 0
M  V30 4 N 0.892052 -0.100737 -1.03575 0
M  V30 5 C 0.871002 0.180376 0.271505 0
M  V30 6 N 2.15127 0.192625 0.674591 0
M  V30 7 C -0.344103 0.430496 1.11159 0
M  V30 8 C -1.58976 0.321028 0.264728 0
M  V30 9 N -1.56102 1.28073 -0.795826 0
M  V30 10 C -2.76752 0.689649 1.17558 0
M  V30 11 C -1.79587 -1.06044 -0.281178 0
M  V30 12 H 4.93825 0.0881382 -1.21731 0
M  V30 13 H 4.88852 -0.484814 0.464722 0
M  V30 14 H 2.52013 -0.482599 -2.3793 0
M  V30 15 H -0.335408 -0.313355 1.93196 0
M  V30 16 H -0.313716 1.47085 1.5023 0
M  V30 17 H -0.920475 2.06901 -0.663778 0
M  V30 18 H -1.45252 0.790723 -1.69104 0
M  V30 19 H -2.85302 -0.0737652 1.99447 0
M  V30 20 H -2.50744 1.66187 1.64001 0
M  V30 21 H -3.66867 0.707543 0.564308 0
M  V30 22 H -1.06989 -1.79804 0.117964 0
M  V30 23 H -2.85295 -1.37933 -0.0863921 0
M  V30 24 H -1.70947 -1.03633 -1.3966 0
M  V30 END ATOM
M  V30 BEGIN BOND
M  V30 1 1 1 2
M  V30 2 1 2 3
M  V30 3 1 3 4
M  V30 4 2 4 5
M  V30 5 1 5 6
M  V30 6 1 5 7
M  V30 7 1 7 8
M  V30 8 1 8 9
M  V30 9 1 8 10
M  V30 10 1 8 11
M  V30 11 2 6 2
M  V30 12 1 1 12
M  V30 13 1 1 13
M  V30 14 1 3 14
M  V30 15 1 7 15
M  V30 16 1 7 16
M  V30 17 1 9 17
M  V30 18 1 9 18
M  V30 19 1 10 19
M  V30 20 1 10 20
M  V30 21 1 10 21
M  V30 22 1 11 22
M  V30 23 1 11 23
M  V30 24 1 11 24
M  V30 END BOND
M  V30 END CTAB
M  END
