
     RDKit          3D

  0  0  0  0  0  0  0  0  0  0999 V3000
M  V30 BEGIN CTAB
M  V30 COUNTS 25 25 0 0 0
M  V30 BEGIN ATOM
M  V30 1 C -4.20617 1.05469 -0.218942 0
M  V30 2 O -3.20314 0.288606 -0.820913 0
M  V30 3 C -1.98408 0.441267 -0.189196 0
M  V30 4 C -0.960851 -0.416907 -0.899488 0
M  V30 5 C 0.383896 -0.215796 -0.294835 0
M  V30 6 N 1.47996 -0.963769 -0.517287 0
M  V30 7 N 2.50637 -0.511239 0.178767 0
M  V30 8 C 2.0775 0.55629 0.873593 0
M  V30 9 N 0.779783 0.727262 0.576441 0
M  V30 10 N 2.82414 1.38648 1.77289 0
M  V30 11 C 3.8724 -1.05002 0.210136 0
M  V30 12 N -1.34117 -1.81682 -0.865532 0
M  V30 13 H -4.34347 0.766495 0.831899 0
M  V30 14 H -5.14403 0.929373 -0.796247 0
M  V30 15 H -3.9303 2.12071 -0.280773 0
M  V30 16 H -1.67608 1.47545 -0.070898 0
M  V30 17 H -2.1032 -0.0172553 0.834898 0
M  V30 18 H -0.871591 -0.146457 -1.97756 0
M  V30 19 H 2.63559 2.38554 1.90903 0
M  V30 20 H 3.58992 0.930885 2.30246 0
M  V30 21 H 4.5173 -0.534137 -0.52695 0
M  V30 22 H 4.28154 -1.04386 1.22775 0
M  V30 23 H 3.81866 -2.12315 -0.109287 0
M  V30 24 H -2.30493 -1.94135 -0.470247 0
M  V30 25 H -0.698073 -2.2823 -0.177886 0
M  V30 END ATOM
M  V30 BEGIN BOND
M  V30 1 1 1 2
M  V30 2 1 2 3
M  V30 3 1 3 4
M  V30 4 1 4 5
M  V30 5 2 5 6
M  V30 6 1 6 7
M  V30 7 1 7 8
M  V30 8 2 8 9
M  V30 9 1 8 10
M  V30 10 1 7 11
M  V30 11 1 4 12
M  V30 12 1 9 5
M  V30 13 1 1 13
M  V30 14 1 1 14
M  V30 15 1 1 15
M  V30 16 1 3 16
M  V30 17 1 3 17
M  V30 18 1 4 18
M  V30 19 1 10 19
M  V30 20 1 10 20
M  V30 21 1 11 21
M  V30 22 1 11 22
M  V30 23 1 11 23
M  V30 24 1 12 24
M  V30 25 1 12 25
M  V30 END BOND
M  V30 END CTAB
M  END
