
     RDKit          3D

  0  0  0  0  0  0  0  0  0  0999 V3000
M  V30 BEGIN CTAB
M  V30 COUNTS 22 22 0 0 0
M  V30 BEGIN ATOM
M  V30 1 N -3.53101 0.172986 -1.47774 0
M  V30 2 N -2.35597 0.591393 -0.857495 0
M  V30 3 C -2.02383 0.213283 0.320105 0
M  V30 4 N -0.83403 0.650572 0.920636 0
M  V30 5 C 0.463636 0.359394 0.425821 0
M  V30 6 C 0.611009 -0.390807 -0.703961 0
M  V30 7 C 1.88571 -0.682207 -1.19807 0
M  V30 8 C 3.00344 -0.20515 -0.534617 0
M  V30 9 C 2.85903 0.552221 0.605768 0
M  V30 10 C 1.57606 0.827849 1.07664 0
M  V30 11 Cl 1.3264 1.78521 2.52122 0
M  V30 12 C 4.30864 -0.507805 -1.0469 0
M  V30 13 N 5.36262 -0.763933 -1.44744 0
M  V30 14 N -2.8754 -0.663988 1.02968 0
M  V30 15 H -3.76737 -0.836064 -1.51058 0
M  V30 16 H -4.17404 0.864745 -1.90867 0
M  V30 17 H -0.940272 1.23664 1.80275 0
M  V30 18 H -0.20639 -0.796895 -1.27481 0
M  V30 19 H 2.00538 -1.27677 -2.09361 0
M  V30 20 H 3.69543 0.948629 1.16123 0
M  V30 21 H -2.91869 -1.67931 0.721906 0
M  V30 22 H -3.47033 -0.399989 1.83601 0
M  V30 END ATOM
M  V30 BEGIN BOND
M  V30 1 1 1 2
M  V30 2 2 2 3 CFG=2
M  V30 3 1 3 4
M  V30 4 1 4 5
M  V30 5 2 5 6
M  V30 6 1 6 7
M  V30 7 2 7 8
M  V30 8 1 8 9
M  V30 9 2 9 10
M  V30 10 1 10 11
M  V30 11 1 8 12
M  V30 12 3 12 13
M  V30 13 1 3 14
M  V30 14 1 10 5
M  V30 15 1 1 15
M  V30 16 1 1 16
M  V30 17 1 4 17
M  V30 18 1 6 18
M  V30 19 1 7 19
M  V30 20 1 9 20
M  V30 21 1 14 21
M  V30 22 1 14 22
M  V30 END BOND
M  V30 END CTAB
M  END
