
     RDKit          3D

  0  0  0  0  0  0  0  0  0  0999 V3000
M  V30 BEGIN CTAB
M  V30 COUNTS 52 54 0 0 0
M  V30 BEGIN ATOM
M  V30 1 C -4.55278 -1.12335 -0.931746 0
M  V30 2 C -3.67883 -0.0272834 -1.49071 0
M  V30 3 C -3.43584 1.06118 -0.517795 0
M  V30 4 C -2.51914 0.97367 0.490501 0
M  V30 5 C -2.33085 2.02466 1.38944 0
M  V30 6 N -1.36029 1.85072 2.403 0
M  V30 7 N -3.07434 3.10837 1.2273 0
M  V30 8 C -3.99533 3.21327 0.22517 0
M  V30 9 N -4.72362 4.42618 0.163194 0
M  V30 10 N -4.17927 2.21036 -0.637742 0
M  V30 11 C -1.70927 -0.224335 0.637644 0
M  V30 12 C -2.07216 -1.31264 1.37327 0
M  V30 13 C -1.28708 -2.43524 1.50097 0
M  V30 14 C -0.0672617 -2.47295 0.855771 0
M  V30 15 C 0.802557 -3.66852 0.965962 0
M  V30 16 C 2.21562 -3.23528 0.767699 0
M  V30 17 C 2.29155 -2.65161 -0.647427 0
M  V30 18 N 1.58493 -1.36145 -0.582421 0
M  V30 19 C 2.195 -0.242432 -1.17896 0
M  V30 20 C 3.44065 0.0981378 -0.342723 0
M  V30 21 C 4.13536 1.30273 -0.946217 0
M  V30 22 O 5.24905 1.56645 -0.155903 0
M  V30 23 C 5.88621 2.6811 -0.717861 0
M  V30 24 C 0.32788 -1.39244 0.106871 0
M  V30 25 C -0.463272 -0.297727 -0.00389641 0
M  V30 26 H -4.04778 -2.10174 -0.895427 0
M  V30 27 H -4.85786 -0.849518 0.0851348 0
M  V30 28 H -5.50763 -1.207 -1.51068 0
M  V30 29 H -2.71327 -0.523768 -1.79542 0
M  V30 30 H -4.12463 0.349201 -2.43674 0
M  V30 31 H -0.383529 2.2021 2.21792 0
M  V30 32 H -1.53742 1.40351 3.3155 0
M  V30 33 H -4.30009 5.24857 -0.294596 0
M  V30 34 H -5.66825 4.46497 0.578608 0
M  V30 35 H -3.03007 -1.27518 1.87731 0
M  V30 36 H -1.62947 -3.28771 2.10862 0
M  V30 37 H 0.526613 -4.35129 0.125065 0
M  V30 38 H 0.642366 -4.2105 1.92187 0
M  V30 39 H 2.42615 -2.37474 1.44347 0
M  V30 40 H 2.96456 -4.01732 0.924767 0
M  V30 41 H 1.77942 -3.28189 -1.37803 0
M  V30 42 H 3.3682 -2.5235 -0.864277 0
M  V30 43 H 1.65146 0.635769 -1.43629 0
M  V30 44 H 2.64898 -0.615077 -2.15192 0
M  V30 45 H 3.08866 0.275031 0.668693 0
M  V30 46 H 4.16433 -0.723799 -0.341365 0
M  V30 47 H 3.44933 2.17752 -0.996051 0
M  V30 48 H 4.48134 1.10065 -1.9767 0
M  V30 49 H 6.17563 2.4177 -1.75598 0
M  V30 50 H 6.77816 2.95798 -0.0931386 0
M  V30 51 H 5.1214 3.49894 -0.7039 0
M  V30 52 H -0.146067 0.539518 -0.589815 0
M  V30 END ATOM
M  V30 BEGIN BOND
M  V30 1 1 1 2
M  V30 2 1 2 3
M  V30 3 2 3 4
M  V30 4 1 4 5
M  V30 5 1 5 6
M  V30 6 2 5 7
M  V30 7 1 7 8
M  V30 8 1 8 9
M  V30 9 2 8 10
M  V30 10 1 4 11
M  V30 11 2 11 12
M  V30 12 1 12 13
M  V30 13 2 13 14
M  V30 14 1 14 15
M  V30 15 1 15 16
M  V30 16 1 16 17
M  V30 17 1 17 18
M  V30 18 1 18 19
M  V30 19 1 19 20
M  V30 20 1 20 21
M  V30 21 1 21 22
M  V30 22 1 22 23
M  V30 23 1 18 24
M  V30 24 2 24 25
M  V30 25 1 10 3
M  V30 26 1 25 11
M  V30 27 1 24 14
M  V30 28 1 1 26
M  V30 29 1 1 27
M  V30 30 1 1 28
M  V30 31 1 2 29
M  V30 32 1 2 30
M  V30 33 1 6 31
M  V30 34 1 6 32
M  V30 35 1 9 33
M  V30 36 1 9 34
M  V30 37 1 12 35
M  V30 38 1 13 36
M  V30 39 1 15 37
M  V30 40 1 15 38
M  V30 41 1 16 39
M  V30 42 1 16 40
M  V30 43 1 17 41
M  V30 44 1 17 42
M  V30 45 1 19 43
M  V30 46 1 19 44
M  V30 47 1 20 45
M  V30 48 1 20 46
M  V30 49 1 21 47
M  V30 50 1 21 48
M  V30 51 1 23 49
M  V30 52 1 23 50
M  V30 53 1 23 51
M  V30 54 1 25 52
M  V30 END BOND
M  V30 END CTAB
M  END
