
     RDKit          3D

  0  0  0  0  0  0  0  0  0  0999 V3000
M  V30 BEGIN CTAB
M  V30 COUNTS 55 59 0 0 0
M  V30 BEGIN ATOM
M  V30 1 C 7.58703 1.44262 -1.59004 0
M  V30 2 C 6.80551 0.974277 -0.364921 0
M  V30 3 C 6.97037 -0.516216 -0.227321 0
M  V30 4 C 6.26099 -1.11202 0.938105 0
M  V30 5 C 4.82012 -0.861202 0.83262 0
M  V30 6 C 4.21862 0.231019 1.37097 0
M  V30 7 C 2.86557 0.40641 1.23619 0
M  V30 8 C 2.11074 -0.520609 0.55649 0
M  V30 9 C 2.71112 -1.63276 0.00619138 0
M  V30 10 C 4.06158 -1.78945 0.151537 0
M  V30 11 N 0.702458 -0.36138 0.402505 0
M  V30 12 C -0.234516 -1.088 1.04578 0
M  V30 13 N -0.0613738 -2.03938 1.8993 0
M  V30 14 C -1.48508 -0.630159 0.62561 0
M  V30 15 C -2.78214 -0.972606 0.921864 0
M  V30 16 N -3.0327 -2.01404 1.85267 0
M  V30 17 C -3.8764 -0.324222 0.332278 0
M  V30 18 C -3.65558 0.686711 -0.571422 0
M  V30 19 C -4.73993 1.30961 -1.13812 0
M  V30 20 O -4.54585 2.23324 -1.96384 0
M  V30 21 C -6.0069 0.903907 -0.784984 0
M  V30 22 C -6.2658 -0.103561 0.115307 0
M  V30 23 C -7.55851 -0.505273 0.464654 0
M  V30 24 C -8.60844 0.154022 -0.134373 0
M  V30 25 C -8.41917 1.17038 -1.04319 0
M  V30 26 C -7.12731 1.52706 -1.35221 0
M  V30 27 C -5.16236 -0.716981 0.67367 0
M  V30 28 O -5.3072 -1.6444 1.50319 0
M  V30 29 C -2.35484 1.03907 -0.876517 0
M  V30 30 N -2.16732 2.09138 -1.81754 0
M  V30 31 C -1.29755 0.386444 -0.283435 0
M  V30 32 C 0.0776314 0.528955 -0.399993 0
M  V30 33 O 0.617745 1.37574 -1.15409 0
M  V30 34 H 6.9958 2.11962 -2.21704 0
M  V30 35 H 7.84345 0.563628 -2.20957 0
M  V30 36 H 8.54692 1.88465 -1.24459 0
M  V30 37 H 7.18499 1.47736 0.545741 0
M  V30 38 H 5.75378 1.29165 -0.519167 0
M  V30 39 H 8.0759 -0.704744 -0.207498 0
M  V30 40 H 6.59578 -0.956741 -1.19749 0
M  V30 41 H 6.70908 -0.678816 1.86464 0
M  V30 42 H 6.45677 -2.21726 0.902867 0
M  V30 43 H 4.78103 0.968047 1.90472 0
M  V30 44 H 2.36836 1.27299 1.65981 0
M  V30 45 H 2.08011 -2.34635 -0.525832 0
M  V30 46 H 4.52288 -2.65927 -0.280318 0
M  V30 47 H 0.92101 -2.29424 2.13549 0
M  V30 48 H -3.20429 -2.98291 1.5184 0
M  V30 49 H -3.04396 -1.80843 2.85396 0
M  V30 50 H -7.67834 -1.306 1.18089 0
M  V30 51 H -9.63492 -0.129558 0.11132 0
M  V30 52 H -9.27367 1.65846 -1.48728 0
M  V30 53 H -6.91409 2.31937 -2.06015 0
M  V30 54 H -2.24817 1.86812 -2.83574 0
M  V30 55 H -1.95895 3.03185 -1.44926 0
M  V30 END ATOM
M  V30 BEGIN BOND
M  V30 1 1 1 2
M  V30 2 1 2 3
M  V30 3 1 3 4
M  V30 4 1 4 5
M  V30 5 2 5 6
M  V30 6 1 6 7
M  V30 7 2 7 8
M  V30 8 1 8 9
M  V30 9 2 9 10
M  V30 10 1 8 11
M  V30 11 1 11 12
M  V30 12 2 12 13 CFG=2
M  V30 13 1 12 14
M  V30 14 2 14 15
M  V30 15 1 15 16
M  V30 16 1 15 17
M  V30 17 2 17 18
M  V30 18 1 18 19
M  V30 19 2 19 20
M  V30 20 1 19 21
M  V30 21 2 21 22
M  V30 22 1 22 23
M  V30 23 2 23 24
M  V30 24 1 24 25
M  V30 25 2 25 26
M  V30 26 1 22 27
M  V30 27 2 27 28
M  V30 28 1 18 29
M  V30 29 1 29 30
M  V30 30 2 29 31
M  V30 31 1 31 32
M  V30 32 2 32 33
M  V30 33 1 10 5
M  V30 34 1 32 11
M  V30 35 1 31 14
M  V30 36 1 27 17
M  V30 37 1 26 21
M  V30 38 1 1 34
M  V30 39 1 1 35
M  V30 40 1 1 36
M  V30 41 1 2 37
M  V30 42 1 2 38
M  V30 43 1 3 39
M  V30 44 1 3 40
M  V30 45 1 4 41
M  V30 46 1 4 42
M  V30 47 1 6 43
M  V30 48 1 7 44
M  V30 49 1 9 45
M  V30 50 1 10 46
M  V30 51 1 13 47
M  V30 52 1 16 48
M  V30 53 1 16 49
M  V30 54 1 23 50
M  V30 55 1 24 51
M  V30 56 1 25 52
M  V30 57 1 26 53
M  V30 58 1 30 54
M  V30 59 1 30 55
M  V30 END BOND
M  V30 END CTAB
M  END
