
     RDKit          3D

  0  0  0  0  0  0  0  0  0  0999 V3000
M  V30 BEGIN CTAB
M  V30 COUNTS 61 65 0 0 0
M  V30 BEGIN ATOM
M  V30 1 N 6.70293 2.49358 -1.89312 0
M  V30 2 C 6.236 1.20409 -1.45312 0
M  V30 3 N 7.0996 0.174451 -1.40366 0
M  V30 4 C 6.75049 -1.05001 -1.00888 0
M  V30 5 N 7.64205 -2.14407 -0.95021 0
M  V30 6 C 5.4178 -1.23748 -0.636179 0
M  V30 7 C 4.5062 -0.203235 -0.675098 0
M  V30 8 N 4.95888 0.994415 -1.08839 0
M  V30 9 N 3.28081 -0.646579 -0.26393 0
M  V30 10 C 3.46548 -1.94881 0.020215 0
M  V30 11 N 4.74071 -2.31581 -0.198261 0
M  V30 12 C 2.07656 0.110367 -0.161752 0 CFG=1
M  V30 13 C 0.965001 -0.851117 0.210072 0
M  V30 14 C -0.382649 -0.196425 0.243596 0
M  V30 15 C -1.25237 -0.691971 -0.891214 0
M  V30 16 C -2.55615 0.0982493 -0.824229 0
M  V30 17 N -3.16211 -0.158834 0.461643 0
M  V30 18 C -2.38752 0.0347573 1.66831 0
M  V30 19 C -1.07964 -0.664225 1.52271 0
M  V30 20 C -4.50989 -0.594623 0.538868 0
M  V30 21 O -5.00823 -0.826926 1.6751 0
M  V30 22 C -5.37109 -0.795066 -0.640029 0 CFG=2
M  V30 23 C -5.73593 0.546127 -1.2712 0
M  V30 24 C -6.90699 1.03086 -0.435344 0
M  V30 25 C -7.42013 -0.196424 0.287827 0
M  V30 26 N -6.6908 -1.3073 -0.239663 0
M  V30 27 O -0.222357 1.16645 0.201285 0
M  V30 28 C 0.648473 1.60505 1.16524 0
M  V30 29 C 2.09027 1.17438 0.905465 0 CFG=1
M  V30 30 C 2.6326 0.640521 2.20665 0
M  V30 31 O 2.77334 2.32203 0.508361 0
M  V30 32 H 6.97594 2.68364 -2.87385 0
M  V30 33 H 6.77419 3.27806 -1.20615 0
M  V30 34 H 7.29499 -3.09257 -1.20637 0
M  V30 35 H 8.62639 -1.97882 -0.652215 0
M  V30 36 H 2.73279 -2.67779 0.383412 0
M  V30 37 H 1.80204 0.616421 -1.12427 0
M  V30 38 H 1.24799 -1.25027 1.22852 0
M  V30 39 H 0.9043 -1.70787 -0.480718 0
M  V30 40 H -0.771801 -0.63952 -1.86927 0
M  V30 41 H -1.5408 -1.74728 -0.61312 0
M  V30 42 H -2.30237 1.15345 -0.919609 0
M  V30 43 H -3.17605 -0.306879 -1.65059 0
M  V30 44 H -2.20281 1.12813 1.83447 0
M  V30 45 H -2.9285 -0.36728 2.54663 0
M  V30 46 H -0.427114 -0.630937 2.39516 0
M  V30 47 H -1.30664 -1.75689 1.34804 0
M  V30 48 H -4.89621 -1.471 -1.35916 0
M  V30 49 H -6.09616 0.40073 -2.31125 0
M  V30 50 H -4.91182 1.26475 -1.20318 0
M  V30 51 H -6.5588 1.78582 0.286636 0
M  V30 52 H -7.6952 1.44018 -1.10674 0
M  V30 53 H -8.50224 -0.325764 0.039984 0
M  V30 54 H -7.3705 -0.0869718 1.38236 0
M  V30 55 H -7.15695 -1.7878 -1.02261 0
M  V30 56 H 0.555753 2.7239 1.20687 0
M  V30 57 H 0.296439 1.26203 2.16963 0
M  V30 58 H 3.50172 1.27036 2.52224 0
M  V30 59 H 2.90274 -0.433375 2.15032 0
M  V30 60 H 1.88424 0.706726 3.04089 0
M  V30 61 H 3.04314 2.78039 1.35146 0
M  V30 END ATOM
M  V30 BEGIN BOND
M  V30 1 1 1 2
M  V30 2 2 2 3
M  V30 3 1 3 4
M  V30 4 1 4 5
M  V30 5 2 4 6
M  V30 6 1 6 7
M  V30 7 2 7 8
M  V30 8 1 7 9
M  V30 9 1 9 10
M  V30 10 2 10 11
M  V30 11 1 9 12
M  V30 12 1 12 13
M  V30 13 1 13 14
M  V30 14 1 14 15
M  V30 15 1 15 16
M  V30 16 1 16 17
M  V30 17 1 17 18
M  V30 18 1 18 19
M  V30 19 1 17 20
M  V30 20 2 20 21
M  V30 21 1 20 22
M  V30 22 1 22 23
M  V30 23 1 23 24
M  V30 24 1 24 25
M  V30 25 1 25 26
M  V30 26 1 14 27
M  V30 27 1 27 28
M  V30 28 1 28 29
M  V30 29 1 29 30
M  V30 30 1 29 31 CFG=3
M  V30 31 1 8 2
M  V30 32 1 29 12
M  V30 33 1 11 6
M  V30 34 1 19 14
M  V30 35 1 26 22
M  V30 36 1 1 32
M  V30 37 1 1 33
M  V30 38 1 5 34
M  V30 39 1 5 35
M  V30 40 1 10 36
M  V30 41 1 12 37 CFG=3
M  V30 42 1 13 38
M  V30 43 1 13 39
M  V30 44 1 15 40
M  V30 45 1 15 41
M  V30 46 1 16 42
M  V30 47 1 16 43
M  V30 48 1 18 44
M  V30 49 1 18 45
M  V30 50 1 19 46
M  V30 51 1 19 47
M  V30 52 1 22 48 CFG=3
M  V30 53 1 23 49
M  V30 54 1 23 50
M  V30 55 1 24 51
M  V30 56 1 24 52
M  V30 57 1 25 53
M  V30 58 1 25 54
M  V30 59 1 26 55
M  V30 60 1 28 56
M  V30 61 1 28 57
M  V30 62 1 30 58
M  V30 63 1 30 59
M  V30 64 1 30 60
M  V30 65 1 31 61
M  V30 END BOND
M  V30 END CTAB
M  END
