
     RDKit          3D

  0  0  0  0  0  0  0  0  0  0999 V3000
M  V30 BEGIN CTAB
M  V30 COUNTS 36 36 0 0 0
M  V30 BEGIN ATOM
M  V30 1 C 3.71487 -0.703694 0.916552 0
M  V30 2 C 3.25702 0.482608 0.0861884 0
M  V30 3 C 1.86235 0.17195 -0.381438 0
M  V30 4 C 1.26292 1.26483 -1.22925 0
M  V30 5 C -0.207655 0.803487 -1.18037 0
M  V30 6 N -0.402213 0.455987 0.197806 0
M  V30 7 C 0.872097 0.120029 0.757335 0
M  V30 8 C -1.31852 -0.611956 0.441799 0
M  V30 9 C -2.74703 -0.325252 0.133268 0
M  V30 10 N -2.90002 0.00622397 -1.26821 0
M  V30 11 C -3.54575 -1.60207 0.366553 0
M  V30 12 C -3.34601 0.735677 1.02632 0
M  V30 13 N 4.16244 0.77875 -0.980036 0
M  V30 14 H 3.42638 -1.62529 0.332517 0
M  V30 15 H 4.81577 -0.722228 1.0397 0
M  V30 16 H 3.15983 -0.759371 1.85986 0
M  V30 17 H 3.17165 1.33527 0.821946 0
M  V30 18 H 1.82039 -0.756603 -0.981568 0
M  V30 19 H 1.64877 1.32752 -2.24307 0
M  V30 20 H 1.26064 2.24543 -0.67415 0
M  V30 21 H -0.234675 -0.12876 -1.80385 0
M  V30 22 H -0.86919 1.58043 -1.5671 0
M  V30 23 H 0.909347 -0.904641 1.17778 0
M  V30 24 H 1.14164 0.880738 1.53218 0
M  V30 25 H -1.27546 -0.851425 1.54552 0
M  V30 26 H -1.01606 -1.56012 -0.0707903 0
M  V30 27 H -2.53229 -0.819153 -1.81069 0
M  V30 28 H -3.95062 0.0158649 -1.44724 0
M  V30 29 H -3.50619 -1.77736 1.47082 0
M  V30 30 H -3.0905 -2.44997 -0.169302 0
M  V30 31 H -4.62064 -1.45813 0.108607 0
M  V30 32 H -2.52729 1.36001 1.44126 0
M  V30 33 H -4.0213 1.35287 0.373333 0
M  V30 34 H -3.95549 0.313627 1.84993 0
M  V30 35 H 4.6002 1.7219 -0.766378 0
M  V30 36 H 4.9806 0.102806 -0.934496 0
M  V30 END ATOM
M  V30 BEGIN BOND
M  V30 1 1 1 2
M  V30 2 1 2 3
M  V30 3 1 3 4
M  V30 4 1 4 5
M  V30 5 1 5 6
M  V30 6 1 6 7
M  V30 7 1 6 8
M  V30 8 1 8 9
M  V30 9 1 9 10
M  V30 10 1 9 11
M  V30 11 1 9 12
M  V30 12 1 2 13
M  V30 13 1 7 3
M  V30 14 1 1 14
M  V30 15 1 1 15
M  V30 16 1 1 16
M  V30 17 1 2 17
M  V30 18 1 3 18
M  V30 19 1 4 19
M  V30 20 1 4 20
M  V30 21 1 5 21
M  V30 22 1 5 22
M  V30 23 1 7 23
M  V30 24 1 7 24
M  V30 25 1 8 25
M  V30 26 1 8 26
M  V30 27 1 10 27
M  V30 28 1 10 28
M  V30 29 1 11 29
M  V30 30 1 11 30
M  V30 31 1 11 31
M  V30 32 1 12 32
M  V30 33 1 12 33
M  V30 34 1 12 34
M  V30 35 1 13 35
M  V30 36 1 13 36
M  V30 END BOND
M  V30 END CTAB
M  END
