
     RDKit          3D

  0  0  0  0  0  0  0  0  0  0999 V3000
M  V30 BEGIN CTAB
M  V30 COUNTS 25 25 0 0 0
M  V30 BEGIN ATOM
M  V30 1 N 2.09582 0.804773 -0.96324 0
M  V30 2 C 1.7917 -0.252305 -0.072735 0
M  V30 3 C 0.374544 -0.507022 0.244974 0
M  V30 4 C 0.349691 -1.69806 1.22391 0
M  V30 5 C -0.372936 -0.988479 -0.984009 0
M  V30 6 C -1.45943 0.00483976 -1.25782 0
M  V30 7 C -1.8025 0.531351 0.101524 0
M  V30 8 C -0.443021 0.553744 0.819393 0
M  V30 9 N 0.0441707 1.88903 0.746597 0
M  V30 10 H 1.32761 1.0947 -1.60509 0
M  V30 11 H 2.3499 1.65422 -0.41152 0
M  V30 12 H 2.19989 -1.19927 -0.538662 0
M  V30 13 H 2.40747 -0.111054 0.841804 0
M  V30 14 H 0.927245 -2.4996 0.724167 0
M  V30 15 H -0.71011 -1.9625 1.38865 0
M  V30 16 H 0.851756 -1.32959 2.14782 0
M  V30 17 H 0.285224 -1.01436 -1.87807 0
M  V30 18 H -0.836538 -1.97455 -0.861186 0
M  V30 19 H -2.31493 -0.505216 -1.74819 0
M  V30 20 H -1.04263 0.822284 -1.85776 0
M  V30 21 H -2.2036 1.5606 -0.018017 0
M  V30 22 H -2.5278 -0.110311 0.650162 0
M  V30 23 H -0.712272 0.367286 1.90287 0
M  V30 24 H -0.278644 2.39005 -0.130888 0
M  V30 25 H -0.300602 2.47945 1.53532 0
M  V30 END ATOM
M  V30 BEGIN BOND
M  V30 1 1 1 2
M  V30 2 1 2 3
M  V30 3 1 3 4
M  V30 4 1 3 5
M  V30 5 1 5 6
M  V30 6 1 6 7
M  V30 7 1 7 8
M  V30 8 1 8 9
M  V30 9 1 8 3
M  V30 10 1 1 10
M  V30 11 1 1 11
M  V30 12 1 2 12
M  V30 13 1 2 13
M  V30 14 1 4 14
M  V30 15 1 4 15
M  V30 16 1 4 16
M  V30 17 1 5 17
M  V30 18 1 5 18
M  V30 19 1 6 19
M  V30 20 1 6 20
M  V30 21 1 7 21
M  V30 22 1 7 22
M  V30 23 1 8 23
M  V30 24 1 9 24
M  V30 25 1 9 25
M  V30 END BOND
M  V30 END CTAB
M  END
