
     RDKit          3D

  0  0  0  0  0  0  0  0  0  0999 V3000
M  V30 BEGIN CTAB
M  V30 COUNTS 40 41 0 0 0
M  V30 BEGIN ATOM
M  V30 1 C 4.44366 -3.37347 -0.826895 0
M  V30 2 O 3.23958 -2.71881 -0.572313 0
M  V30 3 C 3.27265 -1.34348 -0.313234 0
M  V30 4 C 4.44432 -0.65625 -0.299387 0
M  V30 5 C 4.46641 0.699142 -0.0470374 0
M  V30 6 C 3.25753 1.31564 0.186793 0
M  V30 7 C 2.04072 0.614127 0.176251 0
M  V30 8 C 2.03086 -0.737736 -0.0747298 0
M  V30 9 N 0.858756 -1.49595 -0.0997002 0
M  V30 10 C -0.468412 -1.16367 0.156578 0
M  V30 11 O -0.842272 -0.034055 0.480852 0
M  V30 12 C -1.50673 -2.23618 0.0306977 0
M  V30 13 S -2.80187 -1.77313 -1.14957 0
M  V30 14 C -3.87164 -0.481724 -0.474741 0
M  V30 15 N -3.60216 0.809954 -0.639507 0
M  V30 16 C -4.45691 1.73341 -0.103537 0
M  V30 17 N -4.13634 3.09295 -0.291508 0
M  V30 18 C -5.58461 1.37674 0.599557 0
M  V30 19 C -5.84784 0.0279141 0.760344 0
M  V30 20 N -4.98076 -0.835879 0.216753 0
M  V30 21 N -6.9972 -0.40606 1.47649 0
M  V30 22 O 3.25093 2.67254 0.43874 0
M  V30 23 C 4.43507 3.41612 0.474899 0
M  V30 24 H 4.98767 -2.81072 -1.62494 0
M  V30 25 H 4.27272 -4.41516 -1.21249 0
M  V30 26 H 5.11007 -3.42753 0.0471336 0
M  V30 27 H 5.39694 -1.18235 -0.48761 0
M  V30 28 H 5.40902 1.23918 -0.0350154 0
M  V30 29 H 1.12186 1.16079 0.366572 0
M  V30 30 H 0.980925 -2.5525 -0.368752 0
M  V30 31 H -1.06035 -3.18375 -0.312873 0
M  V30 32 H -1.95174 -2.44595 1.04 0
M  V30 33 H -4.84651 3.71914 -0.723165 0
M  V30 34 H -3.2257 3.52076 -0.0230655 0
M  V30 35 H -6.24221 2.12732 1.00813 0
M  V30 36 H -7.21092 -1.42524 1.51935 0
M  V30 37 H -7.64317 0.243966 1.96234 0
M  V30 38 H 4.18362 4.50956 0.524595 0
M  V30 39 H 5.05647 3.15719 1.37824 0
M  V30 40 H 5.01753 3.26316 -0.441848 0
M  V30 END ATOM
M  V30 BEGIN BOND
M  V30 1 1 1 2
M  V30 2 1 2 3
M  V30 3 2 3 4
M  V30 4 1 4 5
M  V30 5 2 5 6
M  V30 6 1 6 7
M  V30 7 2 7 8
M  V30 8 1 8 9
M  V30 9 1 9 10
M  V30 10 2 10 11
M  V30 11 1 10 12
M  V30 12 1 12 13
M  V30 13 1 13 14
M  V30 14 2 14 15
M  V30 15 1 15 16
M  V30 16 1 16 17
M  V30 17 2 16 18
M  V30 18 1 18 19
M  V30 19 2 19 20
M  V30 20 1 19 21
M  V30 21 1 6 22
M  V30 22 1 22 23
M  V30 23 1 8 3
M  V30 24 1 20 14
M  V30 25 1 1 24
M  V30 26 1 1 25
M  V30 27 1 1 26
M  V30 28 1 4 27
M  V30 29 1 5 28
M  V30 30 1 7 29
M  V30 31 1 9 30
M  V30 32 1 12 31
M  V30 33 1 12 32
M  V30 34 1 17 33
M  V30 35 1 17 34
M  V30 36 1 18 35
M  V30 37 1 21 36
M  V30 38 1 21 37
M  V30 39 1 23 38
M  V30 40 1 23 39
M  V30 41 1 23 40
M  V30 END BOND
M  V30 END CTAB
M  END
