
     RDKit          3D

  0  0  0  0  0  0  0  0  0  0999 V3000
M  V30 BEGIN CTAB
M  V30 COUNTS 23 23 0 0 0
M  V30 BEGIN ATOM
M  V30 1 C 4.08518 0.100875 -0.272614 0
M  V30 2 O 2.69688 -0.239524 -0.132599 0
M  V30 3 C 1.69649 0.69351 -0.218322 0
M  V30 4 O 2.03507 1.89124 -0.42901 0
M  V30 5 C 0.279965 0.387429 -0.0820064 0
M  V30 6 C -0.680585 1.37391 -0.178705 0
M  V30 7 C -2.01156 1.05343 -0.0454213 0
M  V30 8 C -3.00305 2.08947 -0.148039 0
M  V30 9 N -3.80313 2.91914 -0.249671 0
M  V30 10 C -2.36627 -0.259171 0.184474 0
M  V30 11 C -1.42158 -1.27078 0.286134 0
M  V30 12 C -0.0848283 -0.919268 0.14758 0
M  V30 13 N 0.942401 -1.89487 0.238416 0
M  V30 14 N -3.72088 -0.598966 0.322262 0
M  V30 15 H 4.6748 -0.827608 -0.351397 0
M  V30 16 H 4.35474 0.619891 0.682295 0
M  V30 17 H 4.23161 0.799093 -1.10412 0
M  V30 18 H -0.406071 2.40773 -0.359484 0
M  V30 19 H -1.68345 -2.30315 0.465888 0
M  V30 20 H 1.11257 -2.4976 -0.595279 0
M  V30 21 H 1.53612 -2.05213 1.07331 0
M  V30 22 H -4.00027 -1.33585 1.0012 0
M  V30 23 H -4.46415 -0.136819 -0.234885 0
M  V30 END ATOM
M  V30 BEGIN BOND
M  V30 1 1 1 2
M  V30 2 1 2 3
M  V30 3 2 3 4
M  V30 4 1 3 5
M  V30 5 2 5 6
M  V30 6 1 6 7
M  V30 7 1 7 8
M  V30 8 3 8 9
M  V30 9 2 7 10
M  V30 10 1 10 11
M  V30 11 2 11 12
M  V30 12 1 12 13
M  V30 13 1 10 14
M  V30 14 1 12 5
M  V30 15 1 1 15
M  V30 16 1 1 16
M  V30 17 1 1 17
M  V30 18 1 6 18
M  V30 19 1 11 19
M  V30 20 1 13 20
M  V30 21 1 13 21
M  V30 22 1 14 22
M  V30 23 1 14 23
M  V30 END BOND
M  V30 END CTAB
M  END
