
     RDKit          3D

  0  0  0  0  0  0  0  0  0  0999 V3000
M  V30 BEGIN CTAB
M  V30 COUNTS 40 42 0 0 0
M  V30 BEGIN ATOM
M  V30 1 N -3.79769 -0.848217 2.85164 0
M  V30 2 C -2.85576 -0.413426 1.85415 0
M  V30 3 C -1.71246 0.273294 2.18604 0
M  V30 4 C -0.811758 0.688422 1.2273 0
M  V30 5 C -1.02402 0.429237 -0.11085 0
M  V30 6 C -2.16807 -0.257635 -0.442516 0
M  V30 7 C -3.08433 -0.681166 0.522028 0
M  V30 8 C -2.44185 -0.553196 -1.86844 0
M  V30 9 C -2.168 0.672896 -2.672 0
M  V30 10 C -1.02305 1.50663 -2.22145 0
M  V30 11 C -0.123936 0.836183 -1.2063 0
M  V30 12 N 0.553116 -0.300136 -1.68406 0
M  V30 13 S 2.23845 -0.301766 -1.67913 0
M  V30 14 O 2.88592 0.724927 -2.51992 0
M  V30 15 O 2.69702 -1.66603 -2.18053 0
M  V30 16 C 2.85187 -0.151247 -0.0547026 0
M  V30 17 C 3.63977 0.939404 0.31783 0
M  V30 18 C 4.14425 1.10569 1.57305 0
M  V30 19 Cl 5.12298 2.50269 1.95516 0
M  V30 20 C 3.86733 0.157592 2.52131 0
M  V30 21 N 3.10621 -0.90783 2.18407 0
M  V30 22 C 2.6083 -1.07329 0.947773 0
M  V30 23 N 1.80398 -2.19973 0.592388 0
M  V30 24 H -4.71167 -0.367501 3.00362 0
M  V30 25 H -3.59739 -1.66877 3.46484 0
M  V30 26 H -1.53426 0.482095 3.2242 0
M  V30 27 H 0.100343 1.23773 1.50612 0
M  V30 28 H -3.96454 -1.21239 0.242024 0
M  V30 29 H -1.88548 -1.42474 -2.26701 0
M  V30 30 H -3.52237 -0.798602 -2.01467 0
M  V30 31 H -2.03482 0.399897 -3.76265 0
M  V30 32 H -3.11545 1.29087 -2.69674 0
M  V30 33 H -1.44589 2.41036 -1.69091 0
M  V30 34 H -0.49149 1.89455 -3.0902 0
M  V30 35 H 0.549247 1.64166 -0.813234 0
M  V30 36 H 0.197665 -1.15353 -1.19181 0
M  V30 37 H 3.84008 1.67284 -0.459133 0
M  V30 38 H 4.27443 0.303148 3.51245 0
M  V30 39 H 2.18778 -2.87452 -0.0915317 0
M  V30 40 H 0.845552 -2.31639 1.03177 0
M  V30 END ATOM
M  V30 BEGIN BOND
M  V30 1 1 1 2
M  V30 2 2 2 3
M  V30 3 1 3 4
M  V30 4 2 4 5
M  V30 5 1 5 6
M  V30 6 2 6 7
M  V30 7 1 6 8
M  V30 8 1 8 9
M  V30 9 1 9 10
M  V30 10 1 10 11
M  V30 11 1 11 12
M  V30 12 1 12 13
M  V30 13 2 13 14
M  V30 14 2 13 15
M  V30 15 1 13 16
M  V30 16 2 16 17
M  V30 17 1 17 18
M  V30 18 1 18 19
M  V30 19 2 18 20
M  V30 20 1 20 21
M  V30 21 2 21 22
M  V30 22 1 22 23
M  V30 23 1 7 2
M  V30 24 1 22 16
M  V30 25 1 11 5
M  V30 26 1 1 24
M  V30 27 1 1 25
M  V30 28 1 3 26
M  V30 29 1 4 27
M  V30 30 1 7 28
M  V30 31 1 8 29
M  V30 32 1 8 30
M  V30 33 1 9 31
M  V30 34 1 9 32
M  V30 35 1 10 33
M  V30 36 1 10 34
M  V30 37 1 11 35
M  V30 38 1 12 36
M  V30 39 1 17 37
M  V30 40 1 20 38
M  V30 41 1 23 39
M  V30 42 1 23 40
M  V30 END BOND
M  V30 END CTAB
M  END
