
     RDKit          3D

  0  0  0  0  0  0  0  0  0  0999 V3000
M  V30 BEGIN CTAB
M  V30 COUNTS 50 52 0 0 0
M  V30 BEGIN ATOM
M  V30 1 N -2.6577 -2.1526 -1.99183 0
M  V30 2 C -1.50454 -1.39362 -1.77649 0
M  V30 3 C -1.73296 -0.113413 -1.00223 0 CFG=2
M  V30 4 C -0.395922 0.598627 -0.84877 0
M  V30 5 N -0.145382 0.51925 0.565856 0
M  V30 6 C -1.42958 0.596144 1.2132 0
M  V30 7 C -2.25186 -0.362241 0.376959 0 CFG=1
M  V30 8 C -3.69678 -0.0827973 0.452362 0
M  V30 9 C -4.19805 1.11998 0.0482761 0
M  V30 10 C -5.56827 1.35737 0.130512 0
M  V30 11 C -6.42429 0.394684 0.614133 0
M  V30 12 C -5.92847 -0.822761 1.02462 0
M  V30 13 C -4.56547 -1.03608 0.93394 0
M  V30 14 C 1.1074 0.391391 1.19946 0
M  V30 15 O 1.20468 0.330846 2.46053 0
M  V30 16 C 2.36047 0.321004 0.45664 0
M  V30 17 C 3.05985 1.4758 0.148689 0
M  V30 18 C 4.24769 1.39343 -0.556847 0
M  V30 19 C 4.76335 0.187336 -0.967638 0
M  V30 20 C 4.06903 -0.946207 -0.660764 0
M  V30 21 C 2.89274 -0.884491 0.0361367 0
M  V30 22 O 2.17404 -2.03301 0.356006 0
M  V30 23 C 2.66739 -3.3171 -0.0486441 0
M  V30 24 S 5.12038 2.87917 -0.937118 0
M  V30 25 O 5.84622 2.6594 -2.22062 0
M  V30 26 O 4.08661 3.95976 -1.09215 0
M  V30 27 N 6.23493 3.26894 0.314815 0
M  V30 28 H -3.40317 -1.76805 -2.53661 0
M  V30 29 H -2.89097 -2.86757 -1.34229 0
M  V30 30 H -1.0149 -1.19542 -2.75059 0
M  V30 31 H -0.759911 -2.0175 -1.20194 0
M  V30 32 H -2.43034 0.541783 -1.55871 0
M  V30 33 H -0.541417 1.68424 -1.08904 0
M  V30 34 H 0.390895 0.139341 -1.46936 0
M  V30 35 H -1.40403 0.294194 2.28012 0
M  V30 36 H -1.7831 1.64478 1.1323 0
M  V30 37 H -2.04417 -1.38822 0.749729 0
M  V30 38 H -3.59167 1.92399 -0.341786 0
M  V30 39 H -5.961 2.30925 -0.189793 0
M  V30 40 H -7.50551 0.56337 0.686276 0
M  V30 41 H -6.61732 -1.57797 1.40621 0
M  V30 42 H -4.18948 -1.99111 1.25759 0
M  V30 43 H 2.66164 2.43237 0.468165 0
M  V30 44 H 5.7096 0.140878 -1.52794 0
M  V30 45 H 4.47055 -1.90165 -0.982089 0
M  V30 46 H 2.91183 -3.28103 -1.12712 0
M  V30 47 H 1.90005 -4.07875 0.142051 0
M  V30 48 H 3.58308 -3.53086 0.548841 0
M  V30 49 H 5.99454 2.66906 1.1594 0
M  V30 50 H 7.17929 2.94607 0.0107087 0
M  V30 END ATOM
M  V30 BEGIN BOND
M  V30 1 1 1 2
M  V30 2 1 2 3
M  V30 3 1 3 4
M  V30 4 1 4 5
M  V30 5 1 5 6
M  V30 6 1 6 7
M  V30 7 1 7 8
M  V30 8 2 8 9
M  V30 9 1 9 10
M  V30 10 2 10 11
M  V30 11 1 11 12
M  V30 12 2 12 13
M  V30 13 1 5 14
M  V30 14 2 14 15
M  V30 15 1 14 16
M  V30 16 2 16 17
M  V30 17 1 17 18
M  V30 18 2 18 19
M  V30 19 1 19 20
M  V30 20 2 20 21
M  V30 21 1 21 22
M  V30 22 1 22 23
M  V30 23 1 18 24
M  V30 24 2 24 25
M  V30 25 2 24 26
M  V30 26 1 24 27
M  V30 27 1 7 3
M  V30 28 1 13 8
M  V30 29 1 21 16
M  V30 30 1 1 28
M  V30 31 1 1 29
M  V30 32 1 2 30
M  V30 33 1 2 31
M  V30 34 1 3 32 CFG=3
M  V30 35 1 4 33
M  V30 36 1 4 34
M  V30 37 1 6 35
M  V30 38 1 6 36
M  V30 39 1 7 37 CFG=1
M  V30 40 1 9 38
M  V30 41 1 10 39
M  V30 42 1 11 40
M  V30 43 1 12 41
M  V30 44 1 13 42
M  V30 45 1 17 43
M  V30 46 1 19 44
M  V30 47 1 20 45
M  V30 48 1 23 46
M  V30 49 1 23 47
M  V30 50 1 23 48
M  V30 51 1 27 49
M  V30 52 1 27 50
M  V30 END BOND
M  V30 END CTAB
M  END
