
     RDKit          3D

  0  0  0  0  0  0  0  0  0  0999 V3000
M  V30 BEGIN CTAB
M  V30 COUNTS 32 33 0 0 0
M  V30 BEGIN ATOM
M  V30 1 N 6.46326 0.0410907 1.28007 0
M  V30 2 C 5.13568 -0.0432414 0.742724 0
M  V30 3 C 4.86006 -0.711741 -0.421464 0
M  V30 4 C 3.58595 -0.778695 -0.9139 0
M  V30 5 C 2.50931 -0.168668 -0.251951 0
M  V30 6 C 2.81067 0.486032 0.896394 0
M  V30 7 C 4.10956 0.563375 1.4137 0
M  V30 8 N 1.24232 -0.258084 -0.823522 0
M  V30 9 C 0.0272721 -0.0574081 -0.160974 0
M  V30 10 O 0.0241246 0.217291 1.03397 0
M  V30 11 N -1.17257 -0.182508 -0.913613 0
M  V30 12 C -2.49565 -0.034676 -0.49984 0
M  V30 13 C -2.86802 0.274446 0.780509 0
M  V30 14 C -4.20031 0.422082 1.1918 0
M  V30 15 C -5.1747 0.242689 0.242317 0
M  V30 16 C -4.86786 -0.069822 -1.06415 0
M  V30 17 C -3.53082 -0.201586 -1.40555 0
M  V30 18 Cl -3.13238 -0.595543 -3.05037 0
M  V30 19 N -6.55289 0.369721 0.55604 0
M  V30 20 H 6.88827 -0.799377 1.69621 0
M  V30 21 H 7.02655 0.918822 1.27115 0
M  V30 22 H 5.69979 -1.19295 -0.946483 0
M  V30 23 H 3.40508 -1.32502 -1.85199 0
M  V30 24 H 2.08134 1.017 1.50411 0
M  V30 25 H 4.32704 1.09518 2.33923 0
M  V30 26 H 1.20921 -0.498941 -1.86479 0
M  V30 27 H -1.04948 -0.426401 -1.95368 0
M  V30 28 H -2.15649 0.430562 1.5831 0
M  V30 29 H -4.45784 0.667916 2.21674 0
M  V30 30 H -5.65672 -0.207435 -1.79971 0
M  V30 31 H -6.92478 -0.218653 1.32553 0
M  V30 32 H -7.16496 1.02454 0.0371958 0
M  V30 END ATOM
M  V30 BEGIN BOND
M  V30 1 1 1 2
M  V30 2 2 2 3
M  V30 3 1 3 4
M  V30 4 2 4 5
M  V30 5 1 5 6
M  V30 6 2 6 7
M  V30 7 1 5 8
M  V30 8 1 8 9
M  V30 9 2 9 10
M  V30 10 1 9 11
M  V30 11 1 11 12
M  V30 12 2 12 13
M  V30 13 1 13 14
M  V30 14 2 14 15
M  V30 15 1 15 16
M  V30 16 2 16 17
M  V30 17 1 17 18
M  V30 18 1 15 19
M  V30 19 1 7 2
M  V30 20 1 17 12
M  V30 21 1 1 20
M  V30 22 1 1 21
M  V30 23 1 3 22
M  V30 24 1 4 23
M  V30 25 1 6 24
M  V30 26 1 7 25
M  V30 27 1 8 26
M  V30 28 1 11 27
M  V30 29 1 13 28
M  V30 30 1 14 29
M  V30 31 1 16 30
M  V30 32 1 19 31
M  V30 33 1 19 32
M  V30 END BOND
M  V30 END CTAB
M  END
