
     RDKit          3D

  0  0  0  0  0  0  0  0  0  0999 V3000
M  V30 BEGIN CTAB
M  V30 COUNTS 16 16 0 0 0
M  V30 BEGIN ATOM
M  V30 1 N 3.229 0.120788 -0.0601471 0
M  V30 2 C 1.80704 -0.0542185 -0.0725734 0
M  V30 3 N 1.27451 -1.22606 -0.22466 0
M  V30 4 C -0.130795 -1.43871 -0.24223 0
M  V30 5 O -0.660688 -2.56704 -0.388536 0
M  V30 6 C -1.00945 -0.286937 -0.0820111 0
M  V30 7 N -2.29342 -0.41437 -0.0891546 0
M  V30 8 O -2.89207 -1.66483 -0.25121 0
M  V30 9 C -0.34023 1.01381 0.0862031 0
M  V30 10 N -1.16588 2.14508 0.243299 0
M  V30 11 N 0.946136 1.06491 0.0831589 0
M  V30 12 H 3.75995 0.0815591 0.831758 0
M  V30 13 H 3.69855 0.284597 -0.955494 0
M  V30 14 H -3.3025 -2.16298 0.515196 0
M  V30 15 H -1.91684 2.32155 -0.442606 0
M  V30 16 H -1.00331 2.78286 1.04901 0
M  V30 END ATOM
M  V30 BEGIN BOND
M  V30 1 1 1 2
M  V30 2 2 2 3
M  V30 3 1 3 4
M  V30 4 2 4 5
M  V30 5 1 4 6
M  V30 6 2 6 7
M  V30 7 1 7 8
M  V30 8 1 6 9
M  V30 9 1 9 10
M  V30 10 2 9 11
M  V30 11 1 11 2
M  V30 12 1 1 12
M  V30 13 1 1 13
M  V30 14 1 8 14
M  V30 15 1 10 15
M  V30 16 1 10 16
M  V30 END BOND
M  V30 END CTAB
M  END
