
     RDKit          3D

  0  0  0  0  0  0  0  0  0  0999 V3000
M  V30 BEGIN CTAB
M  V30 COUNTS 45 47 0 0 0
M  V30 BEGIN ATOM
M  V30 1 O 8.33877 1.83019 -0.0721555 0
M  V30 2 C 6.98575 1.53349 -0.234884 0
M  V30 3 C 6.5472 0.621487 0.894249 0
M  V30 4 C 5.11837 0.349142 0.664195 0
M  V30 5 C 3.95341 0.104818 0.476422 0
M  V30 6 C 2.56906 -0.209136 0.254413 0
M  V30 7 C 1.6673 -0.331404 1.2937 0
M  V30 8 C 0.340897 -0.629537 1.06787 0
M  V30 9 C -0.103375 -0.810624 -0.216399 0
M  V30 10 C 0.775852 -0.693949 -1.27032 0
M  V30 11 C 2.08907 -0.397769 -1.02841 0
M  V30 12 C -1.52077 -1.12366 -0.398901 0
M  V30 13 C -2.48301 -0.138055 -0.442226 0
M  V30 14 C -2.061 1.28185 -0.306495 0
M  V30 15 C -3.1887 2.21211 0.0177988 0
M  V30 16 N -2.79278 3.15424 1.07803 0
M  V30 17 C -4.46089 1.54244 0.409723 0
M  V30 18 C -4.82603 0.535948 -0.662318 0
M  V30 19 C -3.78297 -0.522268 -0.612446 0
M  V30 20 N -4.07503 -1.82689 -0.729727 0
M  V30 21 C -3.14608 -2.80621 -0.689951 0
M  V30 22 C -1.81921 -2.47077 -0.520167 0
M  V30 23 C -0.839964 -3.51486 -0.480075 0
M  V30 24 N -0.0383035 -4.34912 -0.448356 0
M  V30 25 N -3.5502 -4.16086 -0.823018 0
M  V30 26 H 8.77963 1.10705 0.476003 0
M  V30 27 H 6.89029 0.944163 -1.17419 0
M  V30 28 H 6.43349 2.47646 -0.246847 0
M  V30 29 H 6.75244 1.07743 1.86277 0
M  V30 30 H 7.08361 -0.347257 0.835632 0
M  V30 31 H 1.98134 -0.196138 2.31696 0
M  V30 32 H -0.354387 -0.722312 1.90339 0
M  V30 33 H 0.421023 -0.839251 -2.28379 0
M  V30 34 H 2.79121 -0.303024 -1.87118 0
M  V30 35 H -1.33552 1.35609 0.523049 0
M  V30 36 H -1.53648 1.59809 -1.23878 0
M  V30 37 H -3.3826 2.84074 -0.881281 0
M  V30 38 H -2.80517 2.64218 1.97599 0
M  V30 39 H -3.5783 3.86711 1.10977 0
M  V30 40 H -5.26345 2.32169 0.415549 0
M  V30 41 H -4.44832 1.10348 1.422 0
M  V30 42 H -5.84503 0.138587 -0.481069 0
M  V30 43 H -4.84998 1.07579 -1.61591 0
M  V30 44 H -3.45523 -4.88082 -0.0946872 0
M  V30 45 H -3.97593 -4.44065 -1.73794 0
M  V30 END ATOM
M  V30 BEGIN BOND
M  V30 1 1 1 2
M  V30 2 1 2 3
M  V30 3 1 3 4
M  V30 4 3 4 5
M  V30 5 1 5 6
M  V30 6 2 6 7
M  V30 7 1 7 8
M  V30 8 2 8 9
M  V30 9 1 9 10
M  V30 10 2 10 11
M  V30 11 1 9 12
M  V30 12 2 12 13
M  V30 13 1 13 14
M  V30 14 1 14 15
M  V30 15 1 15 16
M  V30 16 1 15 17
M  V30 17 1 17 18
M  V30 18 1 18 19
M  V30 19 2 19 20
M  V30 20 1 20 21
M  V30 21 2 21 22
M  V30 22 1 22 23
M  V30 23 3 23 24
M  V30 24 1 21 25
M  V30 25 1 11 6
M  V30 26 1 22 12
M  V30 27 1 19 13
M  V30 28 1 1 26
M  V30 29 1 2 27
M  V30 30 1 2 28
M  V30 31 1 3 29
M  V30 32 1 3 30
M  V30 33 1 7 31
M  V30 34 1 8 32
M  V30 35 1 10 33
M  V30 36 1 11 34
M  V30 37 1 14 35
M  V30 38 1 14 36
M  V30 39 1 15 37
M  V30 40 1 16 38
M  V30 41 1 16 39
M  V30 42 1 17 40
M  V30 43 1 17 41
M  V30 44 1 18 42
M  V30 45 1 18 43
M  V30 46 1 25 44
M  V30 47 1 25 45
M  V30 END BOND
M  V30 END CTAB
M  END
