
     RDKit          3D

  0  0  0  0  0  0  0  0  0  0999 V3000
M  V30 BEGIN CTAB
M  V30 COUNTS 24 24 0 0 0
M  V30 BEGIN ATOM
M  V30 1 C -3.9342 0.948731 -0.243347 0
M  V30 2 C -3.58706 -0.514796 -0.335088 0
M  V30 3 O -2.22921 -0.67193 -0.730112 0
M  V30 4 C -1.16448 -0.193205 -0.0314157 0
M  V30 5 O -1.35395 0.432429 1.03512 0
M  V30 6 C 0.191088 -0.401655 -0.512181 0
M  V30 7 C 0.531621 -1.07103 -1.66668 0
M  V30 8 N 1.87185 -1.03252 -1.73225 0
M  V30 9 N 2.38501 -0.386923 -0.700434 0
M  V30 10 C 1.37569 0.0284209 0.0933787 0
M  V30 11 N 1.50438 0.756365 1.30049 0
M  V30 12 C 3.77291 -0.144127 -0.428309 0
M  V30 13 S 4.83347 0.065868 -1.64968 0
M  V30 14 N 4.1963 -0.0917162 0.919586 0
M  V30 15 H -3.43189 1.52536 -1.05034 0
M  V30 16 H -3.64065 1.31067 0.760242 0
M  V30 17 H -5.05197 1.01513 -0.360445 0
M  V30 18 H -3.69243 -1.02148 0.645001 0
M  V30 19 H -4.23477 -0.971111 -1.09469 0
M  V30 20 H -0.172557 -1.52536 -2.35951 0
M  V30 21 H 2.16961 1.57797 1.3549 0
M  V30 22 H 0.949024 0.491597 2.14063 0
M  V30 23 H 4.51592 0.80255 1.32715 0
M  V30 24 H 4.1963 -0.929229 1.51741 0
M  V30 END ATOM
M  V30 BEGIN BOND
M  V30 1 1 1 2
M  V30 2 1 2 3
M  V30 3 1 3 4
M  V30 4 2 4 5
M  V30 5 1 4 6
M  V30 6 1 6 7
M  V30 7 2 7 8
M  V30 8 1 8 9
M  V30 9 1 9 10
M  V30 10 1 10 11
M  V30 11 1 9 12
M  V30 12 2 12 13
M  V30 13 1 12 14
M  V30 14 2 10 6
M  V30 15 1 1 15
M  V30 16 1 1 16
M  V30 17 1 1 17
M  V30 18 1 2 18
M  V30 19 1 2 19
M  V30 20 1 7 20
M  V30 21 1 11 21
M  V30 22 1 11 22
M  V30 23 1 14 23
M  V30 24 1 14 24
M  V30 END BOND
M  V30 END CTAB
M  END
