
     RDKit          3D

  0  0  0  0  0  0  0  0  0  0999 V3000
M  V30 BEGIN CTAB
M  V30 COUNTS 21 22 0 0 0
M  V30 BEGIN ATOM
M  V30 1 N -2.91303 1.09627 -0.096362 0
M  V30 2 C -1.88194 0.156609 0.0855046 0
M  V30 3 C -2.14692 -1.15528 0.375354 0
M  V30 4 C -1.11325 -2.08224 0.554415 0
M  V30 5 C 0.1986 -1.65534 0.434246 0
M  V30 6 C 0.465259 -0.341563 0.143949 0
M  V30 7 C -0.576062 0.578027 -0.0333482 0
M  V30 8 N -0.258254 1.85353 -0.316426 0
M  V30 9 C 0.992308 2.28604 -0.436517 0
M  V30 10 C 2.04603 1.41457 -0.269911 0
M  V30 11 C 1.74902 0.0786338 0.0258268 0
M  V30 12 N 2.8164 -0.837516 0.201808 0
M  V30 13 H -3.16135 1.81657 0.628048 0
M  V30 14 H -3.49225 1.11638 -0.988122 0
M  V30 15 H -3.14652 -1.54205 0.480221 0
M  V30 16 H -1.30766 -3.11686 0.782696 0
M  V30 17 H 0.997478 -2.36775 0.571751 0
M  V30 18 H 1.24147 3.33311 -0.668666 0
M  V30 19 H 3.07299 1.72041 -0.357841 0
M  V30 20 H 3.23647 -1.26282 -0.645661 0
M  V30 21 H 3.18123 -1.08873 1.13857 0
M  V30 END ATOM
M  V30 BEGIN BOND
M  V30 1 1 1 2
M  V30 2 2 2 3
M  V30 3 1 3 4
M  V30 4 2 4 5
M  V30 5 1 5 6
M  V30 6 2 6 7
M  V30 7 1 7 8
M  V30 8 2 8 9
M  V30 9 1 9 10
M  V30 10 2 10 11
M  V30 11 1 11 12
M  V30 12 1 7 2
M  V30 13 1 11 6
M  V30 14 1 1 13
M  V30 15 1 1 14
M  V30 16 1 3 15
M  V30 17 1 4 16
M  V30 18 1 5 17
M  V30 19 1 9 18
M  V30 20 1 10 19
M  V30 21 1 12 20
M  V30 22 1 12 21
M  V30 END BOND
M  V30 END CTAB
M  END
