
     RDKit          3D

  0  0  0  0  0  0  0  0  0  0999 V3000
M  V30 BEGIN CTAB
M  V30 COUNTS 33 34 0 0 0
M  V30 BEGIN ATOM
M  V30 1 N -4.57874 -0.845258 -0.469892 0
M  V30 2 C -3.74116 0.0114633 0.274826 0
M  V30 3 C -2.31871 -0.390215 0.461123 0
M  V30 4 N -1.50057 -0.587069 -0.657647 0
M  V30 5 C -1.14196 0.445725 -1.53001 0
M  V30 6 C -0.0814582 1.2268 -0.840033 0
M  V30 7 C 0.515342 0.430828 0.188532 0 CFG=1
M  V30 8 C -0.187106 -0.952053 -0.163149 0
M  V30 9 C 1.88012 0.0439653 0.28894 0
M  V30 10 C 2.32945 -1.24646 0.120451 0
M  V30 11 C 3.63295 -1.61821 0.374643 0
M  V30 12 C 4.56515 -0.68997 0.820401 0
M  V30 13 N 4.10038 0.584697 0.984535 0
M  V30 14 C 2.85534 0.938132 0.738666 0
M  V30 15 N 2.41448 2.28504 0.821799 0
M  V30 16 H -5.43625 -0.337607 -0.79174 0
M  V30 17 H -4.19403 -1.48018 -1.15731 0
M  V30 18 H -4.23347 0.137963 1.27423 0
M  V30 19 H -3.8216 1.02561 -0.211886 0
M  V30 20 H -1.8831 0.221167 1.29364 0
M  V30 21 H -2.37448 -1.42468 0.952877 0
M  V30 22 H -1.9744 1.08588 -1.90809 0
M  V30 23 H -0.73001 -0.0212934 -2.46695 0
M  V30 24 H -0.67465 2.09661 -0.344701 0
M  V30 25 H 0.493294 1.76698 -1.59818 0
M  V30 26 H 0.097684 0.646416 1.17796 0
M  V30 27 H 0.364676 -1.28712 -1.10693 0
M  V30 28 H -0.13284 -1.62988 0.650866 0
M  V30 29 H 1.69955 -2.09127 -0.185089 0
M  V30 30 H 3.98094 -2.64722 0.251085 0
M  V30 31 H 5.57349 -0.861079 1.03539 0
M  V30 32 H 2.05388 2.63082 1.72127 0
M  V30 33 H 2.44783 2.93892 0.00036955 0
M  V30 END ATOM
M  V30 BEGIN BOND
M  V30 1 1 1 2
M  V30 2 1 2 3
M  V30 3 1 3 4
M  V30 4 1 4 5
M  V30 5 1 5 6
M  V30 6 1 6 7
M  V30 7 1 7 8
M  V30 8 1 7 9
M  V30 9 2 9 10
M  V30 10 1 10 11
M  V30 11 2 11 12
M  V30 12 1 12 13
M  V30 13 2 13 14
M  V30 14 1 14 15
M  V30 15 1 8 4
M  V30 16 1 14 9
M  V30 17 1 1 16
M  V30 18 1 1 17
M  V30 19 1 2 18
M  V30 20 1 2 19
M  V30 21 1 3 20
M  V30 22 1 3 21
M  V30 23 1 5 22
M  V30 24 1 5 23
M  V30 25 1 6 24
M  V30 26 1 6 25
M  V30 27 1 7 26 CFG=1
M  V30 28 1 8 27
M  V30 29 1 8 28
M  V30 30 1 10 29
M  V30 31 1 11 30
M  V30 32 1 12 31
M  V30 33 1 15 32
M  V30 34 1 15 33
M  V30 END BOND
M  V30 END CTAB
M  END
