
     RDKit          3D

  0  0  0  0  0  0  0  0  0  0999 V3000
M  V30 BEGIN CTAB
M  V30 COUNTS 94 96 0 0 0
M  V30 BEGIN ATOM
M  V30 1 C 7.59155 2.21248 0.891495 0 CFG=1
M  V30 2 N 7.80478 3.50606 1.52569 0
M  V30 3 C 8.89207 1.78159 0.306483 0
M  V30 4 C 9.38429 2.71112 -0.740388 0
M  V30 5 C 9.61364 4.0725 -0.252852 0
M  V30 6 O 10.6199 4.32034 0.668562 0
M  V30 7 O 8.93698 5.07581 -0.622754 0
M  V30 8 C 7.13178 1.23892 1.92569 0
M  V30 9 O 7.38074 1.5014 3.13174 0
M  V30 10 N 6.4393 0.0629995 1.58989 0
M  V30 11 C 5.99099 -0.939108 2.52646 0
M  V30 12 C 6.01648 -2.23117 1.77493 0
M  V30 13 C 6.15201 -1.86583 0.337709 0
M  V30 14 C 6.02104 -0.342744 0.268091 0 CFG=1
M  V30 15 C 4.60531 0.0772318 0.0360774 0
M  V30 16 O 4.03986 0.681605 0.993733 0
M  V30 17 N 3.90969 -0.177214 -1.18907 0
M  V30 18 C 4.45437 -0.857168 -2.31105 0
M  V30 19 C 3.71471 -0.157479 -3.47391 0
M  V30 20 C 2.31883 -0.00152971 -2.89573 0
M  V30 21 C 2.5762 0.222258 -1.45585 0 CFG=1
M  V30 22 C 1.57299 -0.389954 -0.566556 0
M  V30 23 O 1.92974 -1.16792 0.321092 0
M  V30 24 N 0.214946 -0.0803976 -0.737316 0
M  V30 25 C -0.795219 -0.663304 0.124917 0 CFG=1
M  V30 26 C -1.47008 0.441265 0.880213 0
M  V30 27 C -1.73242 -1.53784 -0.631362 0
M  V30 28 O -1.55969 -1.70632 -1.86344 0
M  V30 29 N -2.81803 -2.19006 -0.00632821 0
M  V30 30 C -3.1769 -2.09563 1.38591 0
M  V30 31 C -4.08329 -3.27976 1.67434 0
M  V30 32 C -4.04285 -4.11234 0.423528 0
M  V30 33 C -3.75596 -3.0743 -0.638857 0 CFG=1
M  V30 34 C -4.96932 -2.43884 -1.15462 0
M  V30 35 O -5.79032 -3.21942 -1.75245 0
M  V30 36 N -5.32755 -1.09476 -1.07005 0
M  V30 37 C -6.59205 -0.594538 -1.6464 0 CFG=1
M  V30 38 C -7.48983 -0.195739 -0.519461 0
M  V30 39 C -8.82491 0.325732 -0.962965 0
M  V30 40 C -9.7085 0.672609 0.230227 0
M  V30 41 N -9.14064 1.67856 1.0741 0
M  V30 42 C -9.88792 2.08649 2.21077 0
M  V30 43 N -11.2803 2.37994 2.10583 0
M  V30 44 N -9.33272 2.20244 3.36392 0
M  V30 45 C -6.33658 0.443074 -2.6306 0
M  V30 46 O -7.30119 1.04355 -3.39488 0
M  V30 47 O -5.13679 0.834244 -2.81292 0
M  V30 48 H 6.82462 2.26822 0.105157 0
M  V30 49 H 8.46064 3.33356 2.33225 0
M  V30 50 H 6.87128 3.81912 1.9068 0
M  V30 51 H 9.69292 1.72068 1.1174 0
M  V30 52 H 8.83577 0.758976 -0.14853 0
M  V30 53 H 10.3235 2.32008 -1.23417 0
M  V30 54 H 8.62673 2.78265 -1.59078 0
M  V30 55 H 11.5698 3.9932 0.568716 0
M  V30 56 H 6.66259 -0.995488 3.41983 0
M  V30 57 H 4.94229 -0.741588 2.84238 0
M  V30 58 H 5.05664 -2.80376 1.96291 0
M  V30 59 H 6.87308 -2.86769 2.11711 0
M  V30 60 H 5.40418 -2.35003 -0.294326 0
M  V30 61 H 7.18148 -2.17295 0.00372869 0
M  V30 62 H 6.68558 -0.0219617 -0.523793 0
M  V30 63 H 4.26322 -1.94959 -2.35245 0
M  V30 64 H 5.53646 -0.639903 -2.46372 0
M  V30 65 H 4.12201 0.868492 -3.58773 0
M  V30 66 H 3.7506 -0.749771 -4.38578 0
M  V30 67 H 1.83665 -1.00294 -3.01031 0
M  V30 68 H 1.7366 0.796111 -3.40139 0
M  V30 69 H 2.46479 1.35411 -1.3088 0
M  V30 70 H -0.0669401 0.593326 -1.51536 0
M  V30 71 H -0.268276 -1.30992 0.856489 0
M  V30 72 H -2.38819 0.822114 0.395632 0
M  V30 73 H -0.768471 1.29768 0.941483 0
M  V30 74 H -1.64934 0.124784 1.92929 0
M  V30 75 H -2.30204 -2.21042 2.06019 0
M  V30 76 H -3.72397 -1.15947 1.616 0
M  V30 77 H -5.10366 -2.95346 1.95185 0
M  V30 78 H -3.71425 -3.90507 2.50782 0
M  V30 79 H -4.97933 -4.65948 0.237496 0
M  V30 80 H -3.22808 -4.8541 0.435483 0
M  V30 81 H -3.28622 -3.64424 -1.48475 0
M  V30 82 H -4.72034 -0.407012 -0.601766 0
M  V30 83 H -7.09632 -1.47985 -2.13746 0
M  V30 84 H -7.65098 -1.11726 0.114946 0
M  V30 85 H -7.0127 0.58319 0.140368 0
M  V30 86 H -9.35915 -0.38309 -1.60791 0
M  V30 87 H -8.68932 1.2953 -1.53124 0
M  V30 88 H -9.96679 -0.263139 0.737748 0
M  V30 89 H -10.6569 1.08349 -0.188279 0
M  V30 90 H -8.21888 2.07961 0.845907 0
M  V30 91 H -11.8698 2.54253 2.93478 0
M  V30 92 H -11.7076 2.42935 1.17423 0
M  V30 93 H -8.32494 1.99593 3.47037 0
M  V30 94 H -7.7281 0.620827 -4.20827 0
M  V30 END ATOM
M  V30 BEGIN BOND
M  V30 1 1 1 2
M  V30 2 1 1 3
M  V30 3 1 3 4
M  V30 4 1 4 5
M  V30 5 1 5 6
M  V30 6 2 5 7
M  V30 7 1 1 8
M  V30 8 2 8 9
M  V30 9 1 8 10
M  V30 10 1 10 11
M  V30 11 1 11 12
M  V30 12 1 12 13
M  V30 13 1 13 14
M  V30 14 1 14 15
M  V30 15 2 15 16
M  V30 16 1 15 17
M  V30 17 1 17 18
M  V30 18 1 18 19
M  V30 19 1 19 20
M  V30 20 1 20 21
M  V30 21 1 21 22
M  V30 22 2 22 23
M  V30 23 1 22 24
M  V30 24 1 24 25
M  V30 25 1 25 26
M  V30 26 1 25 27
M  V30 27 2 27 28
M  V30 28 1 27 29
M  V30 29 1 29 30
M  V30 30 1 30 31
M  V30 31 1 31 32
M  V30 32 1 32 33
M  V30 33 1 33 34
M  V30 34 2 34 35
M  V30 35 1 34 36
M  V30 36 1 36 37
M  V30 37 1 37 38
M  V30 38 1 38 39
M  V30 39 1 39 40
M  V30 40 1 40 41
M  V30 41 1 41 42
M  V30 42 1 42 43
M  V30 43 2 42 44 CFG=2
M  V30 44 1 37 45
M  V30 45 1 45 46
M  V30 46 2 45 47
M  V30 47 1 14 10
M  V30 48 1 21 17
M  V30 49 1 33 29
M  V30 50 1 1 48 CFG=3
M  V30 51 1 2 49
M  V30 52 1 2 50
M  V30 53 1 3 51
M  V30 54 1 3 52
M  V30 55 1 4 53
M  V30 56 1 4 54
M  V30 57 1 6 55
M  V30 58 1 11 56
M  V30 59 1 11 57
M  V30 60 1 12 58
M  V30 61 1 12 59
M  V30 62 1 13 60
M  V30 63 1 13 61
M  V30 64 1 14 62 CFG=3
M  V30 65 1 18 63
M  V30 66 1 18 64
M  V30 67 1 19 65
M  V30 68 1 19 66
M  V30 69 1 20 67
M  V30 70 1 20 68
M  V30 71 1 21 69 CFG=3
M  V30 72 1 24 70
M  V30 73 1 25 71 CFG=1
M  V30 74 1 26 72
M  V30 75 1 26 73
M  V30 76 1 26 74
M  V30 77 1 30 75
M  V30 78 1 30 76
M  V30 79 1 31 77
M  V30 80 1 31 78
M  V30 81 1 32 79
M  V30 82 1 32 80
M  V30 83 1 33 81 CFG=3
M  V30 84 1 36 82
M  V30 85 1 37 83 CFG=3
M  V30 86 1 38 84
M  V30 87 1 38 85
M  V30 88 1 39 86
M  V30 89 1 39 87
M  V30 90 1 40 88
M  V30 91 1 40 89
M  V30 92 1 41 90
M  V30 93 1 43 91
M  V30 94 1 43 92
M  V30 95 1 44 93
M  V30 96 1 46 94
M  V30 END BOND
M  V30 END CTAB
M  END
