
     RDKit          3D

  0  0  0  0  0  0  0  0  0  0999 V3000
M  V30 BEGIN CTAB
M  V30 COUNTS 28 29 0 0 0
M  V30 BEGIN ATOM
M  V30 1 N 4.70466 0.953619 -0.303197 0
M  V30 2 C 3.35667 0.492937 -0.207436 0
M  V30 3 C 2.31214 1.35267 0.0507389 0
M  V30 4 C 0.984929 0.917171 0.147716 0
M  V30 5 C 0.658956 -0.397403 -0.012156 0
M  V30 6 N -0.643396 -0.916602 0.104914 0
M  V30 7 C -1.85517 -0.205999 0.175228 0
M  V30 8 C -2.88629 -0.702984 0.990355 0
M  V30 9 C -4.10026 -0.058873 1.05501 0
M  V30 10 C -4.36065 1.0874 0.334824 0
M  V30 11 C -3.36395 1.58958 -0.469688 0
M  V30 12 C -2.14807 0.928357 -0.52332 0
M  V30 13 C 1.73548 -1.26798 -0.275294 0
M  V30 14 N 1.44736 -2.65367 -0.449483 0
M  V30 15 C 3.03258 -0.836073 -0.368619 0
M  V30 16 H 5.32624 0.47807 -0.985859 0
M  V30 17 H 5.1111 1.72815 0.257858 0
M  V30 18 H 2.53569 2.40167 0.181953 0
M  V30 19 H 0.221878 1.6364 0.373774 0
M  V30 20 H -0.749344 -1.99412 0.148019 0
M  V30 21 H -2.68049 -1.5959 1.55004 0
M  V30 22 H -4.90544 -0.451568 1.69492 0
M  V30 23 H -5.32989 1.56216 0.415831 0
M  V30 24 H -3.57095 2.48965 -1.03413 0
M  V30 25 H -1.40791 1.34726 -1.18474 0
M  V30 26 H 1.82492 -3.15127 -1.30335 0
M  V30 27 H 0.888772 -3.20825 0.209994 0
M  V30 28 H 3.86045 -1.52439 -0.573913 0
M  V30 END ATOM
M  V30 BEGIN BOND
M  V30 1 1 1 2
M  V30 2 2 2 3
M  V30 3 1 3 4
M  V30 4 2 4 5
M  V30 5 1 5 6
M  V30 6 1 6 7
M  V30 7 2 7 8
M  V30 8 1 8 9
M  V30 9 2 9 10
M  V30 10 1 10 11
M  V30 11 2 11 12
M  V30 12 1 5 13
M  V30 13 1 13 14
M  V30 14 2 13 15
M  V30 15 1 15 2
M  V30 16 1 12 7
M  V30 17 1 1 16
M  V30 18 1 1 17
M  V30 19 1 3 18
M  V30 20 1 4 19
M  V30 21 1 6 20
M  V30 22 1 8 21
M  V30 23 1 9 22
M  V30 24 1 10 23
M  V30 25 1 11 24
M  V30 26 1 12 25
M  V30 27 1 14 26
M  V30 28 1 14 27
M  V30 29 1 15 28
M  V30 END BOND
M  V30 END CTAB
M  END
