
     RDKit          3D

  0  0  0  0  0  0  0  0  0  0999 V3000
M  V30 BEGIN CTAB
M  V30 COUNTS 31 31 0 0 0
M  V30 BEGIN ATOM
M  V30 1 C -3.79258 0.441744 -1.38769 0
M  V30 2 N -3.63761 0.108321 -0.0138134 0
M  V30 3 C -2.50537 -0.723001 0.191531 0
M  V30 4 C -1.24688 0.0689276 -0.0661745 0
M  V30 5 O -0.131286 -0.780535 0.147704 0
M  V30 6 C 1.1576 -0.276496 -0.0171969 0
M  V30 7 C 1.33868 1.04359 -0.384843 0
M  V30 8 C 2.61539 1.53616 -0.545692 0
M  V30 9 C 3.69532 0.681315 -0.331187 0
M  V30 10 C 3.52358 -0.632979 0.0342171 0
M  V30 11 C 2.23093 -1.1252 0.195646 0
M  V30 12 N 4.63297 -1.48486 0.244292 0
M  V30 13 N 5.0196 1.15648 -0.484851 0
M  V30 14 C -4.82504 -0.279522 0.670098 0
M  V30 15 H -3.03345 1.17055 -1.71829 0
M  V30 16 H -4.82957 0.852804 -1.50449 0
M  V30 17 H -3.68546 -0.509015 -1.98992 0
M  V30 18 H -2.51871 -1.58883 -0.520341 0
M  V30 19 H -2.4392 -1.15247 1.21541 0
M  V30 20 H -1.21263 0.984592 0.521293 0
M  V30 21 H -1.27563 0.37437 -1.14554 0
M  V30 22 H 0.461362 1.63573 -0.53215 0
M  V30 23 H 2.76871 2.57524 -0.83517 0
M  V30 24 H 2.10297 -2.16446 0.484786 0
M  V30 25 H 5.10551 -1.50245 1.15068 0
M  V30 26 H 4.96591 -2.09137 -0.527186 0
M  V30 27 H 5.53677 0.953454 -1.3427 0
M  V30 28 H 5.42541 1.70597 0.303209 0
M  V30 29 H -5.41758 0.642707 0.890423 0
M  V30 30 H -4.53404 -0.676483 1.67054 0
M  V30 31 H -5.49568 -0.944304 0.116696 0
M  V30 END ATOM
M  V30 BEGIN BOND
M  V30 1 1 1 2
M  V30 2 1 2 3
M  V30 3 1 3 4
M  V30 4 1 4 5
M  V30 5 1 5 6
M  V30 6 2 6 7
M  V30 7 1 7 8
M  V30 8 2 8 9
M  V30 9 1 9 10
M  V30 10 2 10 11
M  V30 11 1 10 12
M  V30 12 1 9 13
M  V30 13 1 2 14
M  V30 14 1 11 6
M  V30 15 1 1 15
M  V30 16 1 1 16
M  V30 17 1 1 17
M  V30 18 1 3 18
M  V30 19 1 3 19
M  V30 20 1 4 20
M  V30 21 1 4 21
M  V30 22 1 7 22
M  V30 23 1 8 23
M  V30 24 1 11 24
M  V30 25 1 12 25
M  V30 26 1 12 26
M  V30 27 1 13 27
M  V30 28 1 13 28
M  V30 29 1 14 29
M  V30 30 1 14 30
M  V30 31 1 14 31
M  V30 END BOND
M  V30 END CTAB
M  END
