
     RDKit          3D

  0  0  0  0  0  0  0  0  0  0999 V3000
M  V30 BEGIN CTAB
M  V30 COUNTS 31 33 0 0 0
M  V30 BEGIN ATOM
M  V30 1 N -6.05388 0.26488 0.221967 0
M  V30 2 C -4.73243 -0.257571 0.117026 0
M  V30 3 C -4.57354 -1.61888 -0.0978873 0
M  V30 4 C -3.3094 -2.15638 -0.204159 0
M  V30 5 C -2.17565 -1.38717 -0.104532 0
M  V30 6 C -2.36751 -0.0353867 0.109487 0
M  V30 7 C -3.61337 0.543726 0.221918 0
M  V30 8 N -1.12057 0.483209 0.168048 0
M  V30 9 C -0.211904 -0.491729 -3.98674e-05 0
M  V30 10 O -0.876315 -1.59945 -0.160768 0
M  V30 11 C 1.25302 -0.301378 0.0034899 0
M  V30 12 C 2.08278 -1.38642 -0.180359 0
M  V30 13 C 3.45946 -1.14777 -0.167767 0
M  V30 14 C 3.97741 0.117293 0.0200605 0
M  V30 15 C 3.13089 1.18781 0.201948 0
M  V30 16 C 1.7855 0.957046 0.190025 0
M  V30 17 C 3.63903 2.56896 0.408039 0
M  V30 18 N 5.3933 0.304792 0.0239612 0
M  V30 19 H -6.55134 0.278485 1.12422 0
M  V30 20 H -6.54239 0.644021 -0.615813 0
M  V30 21 H -5.47528 -2.22674 -0.176521 0
M  V30 22 H -3.19718 -3.22184 -0.372138 0
M  V30 23 H -3.74653 1.60384 0.389446 0
M  V30 24 H 1.70111 -2.38513 -0.329116 0
M  V30 25 H 4.15941 -1.97737 -0.309506 0
M  V30 26 H 1.07158 1.76363 0.328432 0
M  V30 27 H 2.9222 3.23861 -0.146882 0
M  V30 28 H 3.49638 2.80345 1.48136 0
M  V30 29 H 4.67323 2.70123 0.0581803 0
M  V30 30 H 5.92431 0.564855 -0.834237 0
M  V30 31 H 5.87766 0.167353 0.938575 0
M  V30 END ATOM
M  V30 BEGIN BOND
M  V30 1 1 1 2
M  V30 2 2 2 3
M  V30 3 1 3 4
M  V30 4 2 4 5
M  V30 5 1 5 6
M  V30 6 2 6 7
M  V30 7 1 6 8
M  V30 8 2 8 9
M  V30 9 1 9 10
M  V30 10 1 9 11
M  V30 11 2 11 12
M  V30 12 1 12 13
M  V30 13 2 13 14
M  V30 14 1 14 15
M  V30 15 2 15 16
M  V30 16 1 15 17
M  V30 17 1 14 18
M  V30 18 1 7 2
M  V30 19 1 16 11
M  V30 20 1 10 5
M  V30 21 1 1 19
M  V30 22 1 1 20
M  V30 23 1 3 21
M  V30 24 1 4 22
M  V30 25 1 7 23
M  V30 26 1 12 24
M  V30 27 1 13 25
M  V30 28 1 16 26
M  V30 29 1 17 27
M  V30 30 1 17 28
M  V30 31 1 17 29
M  V30 32 1 18 30
M  V30 33 1 18 31
M  V30 END BOND
M  V30 END CTAB
M  END
