
     RDKit          3D

  0  0  0  0  0  0  0  0  0  0999 V3000
M  V30 BEGIN CTAB
M  V30 COUNTS 36 37 0 0 0
M  V30 BEGIN ATOM
M  V30 1 N 2.86761 1.10322 -2.45852 0
M  V30 2 C 3.34816 0.457648 -1.29402 0
M  V30 3 N 4.63442 0.536515 -0.956772 0
M  V30 4 C 5.12547 -0.0841504 0.143009 0
M  V30 5 N 6.48995 -0.00164115 0.520078 0
M  V30 6 C 4.21476 -0.794778 0.88258 0
M  V30 7 Cl 4.75198 -1.63295 2.32615 0
M  V30 8 N 2.88443 -0.876167 0.538429 0
M  V30 9 C 2.44581 -0.260266 -0.537189 0
M  V30 10 C 1.02115 -0.333828 -0.946078 0
M  V30 11 O 0.714749 0.299619 -1.96758 0
M  V30 12 N 0.110274 -1.09757 -0.188216 0
M  V30 13 C -0.724453 -1.7974 0.506192 0
M  V30 14 N -0.278473 -2.39258 1.63616 0
M  V30 15 N -2.10512 -2.11221 0.2766 0
M  V30 16 C -3.026 -1.29708 -0.42117 0
M  V30 17 C -3.37071 0.00774328 0.171225 0
M  V30 18 C -4.26891 0.816598 -0.53345 0
M  V30 19 C -4.66657 2.04863 -0.0449983 0
M  V30 20 C -4.18848 2.53055 1.16994 0
M  V30 21 F -4.60957 3.75891 1.62547 0
M  V30 22 C -3.30629 1.7417 1.86263 0
M  V30 23 C -2.90764 0.499568 1.3668 0
M  V30 24 H 2.73039 0.57786 -3.35929 0
M  V30 25 H 2.63546 2.11634 -2.44268 0
M  V30 26 H 6.72388 0.723863 1.26387 0
M  V30 27 H 7.22397 -0.611375 0.106823 0
M  V30 28 H -0.866088 -0.646015 -1.03949 0
M  V30 29 H 0.691724 -2.31085 1.95982 0
M  V30 30 H -2.44381 -3.03888 0.656364 0
M  V30 31 H -2.73818 -1.13136 -1.51213 0
M  V30 32 H -4.00719 -1.89618 -0.574635 0
M  V30 33 H -4.62897 0.441226 -1.46561 0
M  V30 34 H -5.35886 2.6807 -0.570648 0
M  V30 35 H -2.91599 2.08109 2.79855 0
M  V30 36 H -2.20288 -0.106475 1.93606 0
M  V30 END ATOM
M  V30 BEGIN BOND
M  V30 1 1 1 2
M  V30 2 2 2 3
M  V30 3 1 3 4
M  V30 4 1 4 5
M  V30 5 2 4 6
M  V30 6 1 6 7
M  V30 7 1 6 8
M  V30 8 2 8 9
M  V30 9 1 9 10
M  V30 10 2 10 11
M  V30 11 1 10 12
M  V30 12 1 12 13
M  V30 13 2 13 14 CFG=2
M  V30 14 1 13 15
M  V30 15 1 15 16
M  V30 16 1 16 17
M  V30 17 2 17 18
M  V30 18 1 18 19
M  V30 19 2 19 20
M  V30 20 1 20 21
M  V30 21 1 20 22
M  V30 22 2 22 23
M  V30 23 1 9 2
M  V30 24 1 23 17
M  V30 25 1 1 24
M  V30 26 1 1 25
M  V30 27 1 5 26
M  V30 28 1 5 27
M  V30 29 1 12 28
M  V30 30 1 14 29
M  V30 31 1 15 30
M  V30 32 1 16 31
M  V30 33 1 16 32
M  V30 34 1 18 33
M  V30 35 1 19 34
M  V30 36 1 22 35
M  V30 37 1 23 36
M  V30 END BOND
M  V30 END CTAB
M  END
