
     RDKit          3D

  0  0  0  0  0  0  0  0  0  0999 V3000
M  V30 BEGIN CTAB
M  V30 COUNTS 61 64 0 0 0
M  V30 BEGIN ATOM
M  V30 1 O -8.92047 -1.57951 0.657048 0
M  V30 2 C -8.2248 -0.674561 0.0950615 0
M  V30 3 O -8.69642 0.0546997 -0.806242 0
M  V30 4 C -6.80572 -0.463671 0.510188 0
M  V30 5 C -6.22267 0.639729 -0.288083 0
M  V30 6 C -4.7972 0.929111 0.061984 0 CFG=1
M  V30 7 C -3.9411 -0.238937 -0.211417 0
M  V30 8 O -4.34692 -1.24318 -0.891562 0
M  V30 9 N -2.60532 -0.347739 0.254107 0
M  V30 10 C -2.04053 0.709661 1.05224 0
M  V30 11 C -0.867411 1.26641 0.251483 0
M  V30 12 C 0.169529 0.165146 0.0104098 0
M  V30 13 C -0.347043 -1.18451 0.386911 0
M  V30 14 C -1.75571 -1.47294 -0.0272277 0
M  V30 15 O 0.573761 0.269805 -1.29495 0
M  V30 16 C 1.80341 -0.296472 -1.57144 0
M  V30 17 C 2.94182 0.392289 -0.853476 0 CFG=1
M  V30 18 C 2.32392 1.25798 0.214052 0 CFG=1
M  V30 19 C 1.31967 0.467367 0.983914 0
M  V30 20 C 3.33027 1.96767 1.06335 0
M  V30 21 O 1.60608 2.26117 -0.480807 0
M  V30 22 N 3.86616 -0.57805 -0.367779 0
M  V30 23 C 3.68627 -1.82995 0.0723671 0
M  V30 24 N 4.86813 -2.38557 0.439106 0
M  V30 25 C 5.82598 -1.49241 0.237699 0
M  V30 26 C 5.21028 -0.36506 -0.264331 0
M  V30 27 N 6.00617 0.681961 -0.54501 0
M  V30 28 C 7.33911 0.68233 -0.364244 0
M  V30 29 N 7.88913 -0.442935 0.128139 0
M  V30 30 C 7.19704 -1.54061 0.441655 0
M  V30 31 N 7.76859 -2.73028 0.960812 0
M  V30 32 N -4.28236 2.12735 -0.6124 0
M  V30 33 H -9.07109 -2.22284 1.14821 0
M  V30 34 H -6.79782 -0.150186 1.58725 0
M  V30 35 H -6.28099 -1.40607 0.37398 0
M  V30 36 H -6.839 1.55914 -0.134323 0
M  V30 37 H -6.24352 0.346395 -1.37958 0
M  V30 38 H -4.69577 1.09651 1.18294 0
M  V30 39 H -1.6215 0.283377 2.0014 0
M  V30 40 H -2.70898 1.54416 1.27766 0
M  V30 41 H -0.476226 2.11266 0.813951 0
M  V30 42 H -1.28763 1.63437 -0.702433 0
M  V30 43 H 0.366591 -1.93866 0.00867212 0
M  V30 44 H -0.30757 -1.2623 1.50136 0
M  V30 45 H -1.83161 -1.85661 -1.05267 0
M  V30 46 H -2.11792 -2.31109 0.63924 0
M  V30 47 H 1.95038 -0.185299 -2.68226 0
M  V30 48 H 1.73896 -1.36782 -1.3863 0
M  V30 49 H 3.4235 1.11133 -1.58104 0
M  V30 50 H 0.947467 1.07016 1.84075 0
M  V30 51 H 1.72863 -0.464697 1.42065 0
M  V30 52 H 2.74465 2.63844 1.75363 0
M  V30 53 H 3.95319 1.3294 1.68678 0
M  V30 54 H 3.89175 2.66327 0.401755 0
M  V30 55 H 2.14466 2.60265 -1.22426 0
M  V30 56 H 2.72739 -2.31549 0.122367 0
M  V30 57 H 7.95235 1.56242 -0.607554 0
M  V30 58 H 8.69639 -3.04411 0.606601 0
M  V30 59 H 7.28318 -3.28138 1.67544 0
M  V30 60 H -4.88244 2.31507 -1.44803 0
M  V30 61 H -4.25865 2.93092 0.046417 0
M  V30 END ATOM
M  V30 BEGIN BOND
M  V30 1 1 1 2
M  V30 2 2 2 3
M  V30 3 1 2 4
M  V30 4 1 4 5
M  V30 5 1 5 6
M  V30 6 1 6 7
M  V30 7 2 7 8
M  V30 8 1 7 9
M  V30 9 1 9 10
M  V30 10 1 10 11
M  V30 11 1 11 12
M  V30 12 1 12 13
M  V30 13 1 13 14
M  V30 14 1 12 15
M  V30 15 1 15 16
M  V30 16 1 16 17
M  V30 17 1 17 18
M  V30 18 1 18 19
M  V30 19 1 18 20
M  V30 20 1 18 21 CFG=3
M  V30 21 1 17 22
M  V30 22 1 22 23
M  V30 23 2 23 24
M  V30 24 1 24 25
M  V30 25 2 25 26
M  V30 26 1 26 27
M  V30 27 2 27 28
M  V30 28 1 28 29
M  V30 29 2 29 30
M  V30 30 1 30 31
M  V30 31 1 6 32
M  V30 32 1 14 9
M  V30 33 1 26 22
M  V30 34 1 19 12
M  V30 35 1 30 25
M  V30 36 1 1 33
M  V30 37 1 4 34
M  V30 38 1 4 35
M  V30 39 1 5 36
M  V30 40 1 5 37
M  V30 41 1 6 38 CFG=1
M  V30 42 1 10 39
M  V30 43 1 10 40
M  V30 44 1 11 41
M  V30 45 1 11 42
M  V30 46 1 13 43
M  V30 47 1 13 44
M  V30 48 1 14 45
M  V30 49 1 14 46
M  V30 50 1 16 47
M  V30 51 1 16 48
M  V30 52 1 17 49 CFG=3
M  V30 53 1 19 50
M  V30 54 1 19 51
M  V30 55 1 20 52
M  V30 56 1 20 53
M  V30 57 1 20 54
M  V30 58 1 21 55
M  V30 59 1 23 56
M  V30 60 1 28 57
M  V30 61 1 31 58
M  V30 62 1 31 59
M  V30 63 1 32 60
M  V30 64 1 32 61
M  V30 END BOND
M  V30 END CTAB
M  END
