
     RDKit          3D

  0  0  0  0  0  0  0  0  0  0999 V3000
M  V30 BEGIN CTAB
M  V30 COUNTS 35 36 0 0 0
M  V30 BEGIN ATOM
M  V30 1 C -2.84452 2.7898 -0.0772245 0
M  V30 2 O -1.76311 1.88955 -0.261668 0
M  V30 3 C -2.15317 0.536902 -0.313022 0
M  V30 4 C -3.39421 0.0421642 -0.303863 0
M  V30 5 C -3.60976 -1.36406 -0.361035 0
M  V30 6 C -5.03222 -1.79095 -0.300277 0
M  V30 7 C -2.51731 -2.17651 -0.433999 0
M  V30 8 C -1.20172 -1.65161 -0.457126 0
M  V30 9 C -0.983005 -0.336866 -0.397743 0
M  V30 10 C 0.176748 0.520192 -0.180886 0
M  V30 11 O 1.23566 0.714939 -1.00809 0
M  V30 12 N 2.51893 0.206979 -0.787538 0
M  V30 13 C 2.97999 0.446519 0.416808 0
M  V30 14 C 4.32304 -0.0660695 0.702497 0
M  V30 15 N 4.88025 -0.05852 1.94184 0
M  V30 16 O 6.09085 -0.566144 1.77442 0
M  V30 17 N 6.30236 -0.867915 0.532368 0
M  V30 18 C 5.20437 -0.570797 -0.212024 0
M  V30 19 N 5.09124 -0.610324 -1.62462 0
M  V30 20 N 2.36471 1.29159 1.32492 0
M  V30 21 H -2.56302 3.83128 0.00439573 0
M  V30 22 H -3.67081 2.51139 -0.711157 0
M  V30 23 H -3.18754 2.43887 1.00536 0
M  V30 24 H -4.27598 0.677872 -0.355272 0
M  V30 25 H -5.71825 -0.891685 -0.466932 0
M  V30 26 H -5.32726 -2.67062 -0.807615 0
M  V30 27 H -5.17282 -1.93485 0.833779 0
M  V30 28 H -2.67038 -3.23933 -0.427782 0
M  V30 29 H -0.376019 -2.37198 -0.435509 0
M  V30 30 H 0.759914 -0.31228 0.634307 0
M  V30 31 H 0.0181649 1.33741 0.539627 0
M  V30 32 H 5.72453 0.0886821 -2.14704 0
M  V30 33 H 4.52907 -1.1964 -2.20288 0
M  V30 34 H 2.47264 2.37165 1.27142 0
M  V30 35 H 1.78862 0.981119 2.10698 0
M  V30 END ATOM
M  V30 BEGIN BOND
M  V30 1 1 1 2
M  V30 2 1 2 3
M  V30 3 2 3 4
M  V30 4 1 4 5
M  V30 5 1 5 6
M  V30 6 2 5 7
M  V30 7 1 7 8
M  V30 8 2 8 9
M  V30 9 1 9 10
M  V30 10 1 10 11
M  V30 11 1 11 12
M  V30 12 2 12 13
M  V30 13 1 13 14
M  V30 14 2 14 15
M  V30 15 1 15 16
M  V30 16 1 16 17
M  V30 17 2 17 18
M  V30 18 1 18 19
M  V30 19 1 13 20
M  V30 20 1 9 3
M  V30 21 1 18 14
M  V30 22 1 1 21
M  V30 23 1 1 22
M  V30 24 1 1 23
M  V30 25 1 4 24
M  V30 26 1 6 25
M  V30 27 1 6 26
M  V30 28 1 6 27
M  V30 29 1 7 28
M  V30 30 1 8 29
M  V30 31 1 10 30
M  V30 32 1 10 31
M  V30 33 1 19 32
M  V30 34 1 19 33
M  V30 35 1 20 34
M  V30 36 1 20 35
M  V30 END BOND
M  V30 END CTAB
M  END
