
     RDKit          3D

  0  0  0  0  0  0  0  0  0  0999 V3000
M  V30 BEGIN CTAB
M  V30 COUNTS 33 33 0 0 0
M  V30 BEGIN ATOM
M  V30 1 C 2.9135 -1.50219 -0.103037 0
M  V30 2 C 3.35879 -0.0783357 -0.0382717 0
M  V30 3 C 2.75128 0.83685 -1.03948 0
M  V30 4 C 1.23456 0.940134 -0.956918 0
M  V30 5 C 0.773612 1.43442 0.355617 0
M  V30 6 C -0.663851 1.61185 0.611327 0
M  V30 7 C -1.55837 0.478145 0.506486 0
M  V30 8 C -2.09784 0.0732474 -0.685958 0
M  V30 9 N -1.9068 0.759181 -1.93012 0
M  V30 10 N -2.895 -1.02684 -0.68477 0
M  V30 11 C -3.19328 -1.74441 0.399762 0
M  V30 12 N -4.03478 -2.89623 0.363291 0
M  V30 13 N -2.6594 -1.33815 1.57333 0
M  V30 14 C -1.86362 -0.264698 1.65289 0
M  V30 15 O -1.36626 0.0677822 2.90517 0
M  V30 16 H 3.5655 -2.06614 0.628504 0
M  V30 17 H 1.87878 -1.66454 0.245269 0
M  V30 18 H 3.11666 -1.97003 -1.08151 0
M  V30 19 H 4.46752 -0.0838505 -0.264382 0
M  V30 20 H 3.30141 0.28681 1.00833 0
M  V30 21 H 2.99298 0.452167 -2.04597 0
M  V30 22 H 3.1583 1.84993 -0.884995 0
M  V30 23 H 0.946593 1.63238 -1.75784 0
M  V30 24 H 0.836728 -0.0642545 -1.20486 0
M  V30 25 H 1.30248 0.835442 1.14198 0
M  V30 26 H 1.24079 2.46615 0.486947 0
M  V30 27 H -0.751055 2.10867 1.63267 0
M  V30 28 H -1.02319 2.42518 -0.0920368 0
M  V30 29 H -1.58198 0.290085 -2.78709 0
M  V30 30 H -2.11467 1.7817 -1.93825 0
M  V30 31 H -4.13992 -3.52026 -0.46125 0
M  V30 32 H -4.58497 -3.13603 1.21532 0
M  V30 33 H -1.40453 1.02583 3.22984 0
M  V30 END ATOM
M  V30 BEGIN BOND
M  V30 1 1 1 2
M  V30 2 1 2 3
M  V30 3 1 3 4
M  V30 4 1 4 5
M  V30 5 1 5 6
M  V30 6 1 6 7
M  V30 7 2 7 8
M  V30 8 1 8 9
M  V30 9 1 8 10
M  V30 10 2 10 11
M  V30 11 1 11 12
M  V30 12 1 11 13
M  V30 13 2 13 14
M  V30 14 1 14 15
M  V30 15 1 14 7
M  V30 16 1 1 16
M  V30 17 1 1 17
M  V30 18 1 1 18
M  V30 19 1 2 19
M  V30 20 1 2 20
M  V30 21 1 3 21
M  V30 22 1 3 22
M  V30 23 1 4 23
M  V30 24 1 4 24
M  V30 25 1 5 25
M  V30 26 1 5 26
M  V30 27 1 6 27
M  V30 28 1 6 28
M  V30 29 1 9 29
M  V30 30 1 9 30
M  V30 31 1 12 31
M  V30 32 1 12 32
M  V30 33 1 15 33
M  V30 END BOND
M  V30 END CTAB
M  END
