
     RDKit          3D

  0  0  0  0  0  0  0  0  0  0999 V3000
M  V30 BEGIN CTAB
M  V30 COUNTS 37 39 0 0 0
M  V30 BEGIN ATOM
M  V30 1 N 0.556467 -3.42581 2.50779 0
M  V30 2 C -0.105471 -2.5825 2.0731 0
M  V30 3 C -0.928307 -1.52309 1.50233 0
M  V30 4 C -1.7859 -0.918042 2.3077 0
M  V30 5 N -1.85488 -1.33016 3.66525 0
M  V30 6 O -2.61965 0.113007 1.84834 0
M  V30 7 C -2.54053 0.503962 0.520594 0
M  V30 8 C -1.65923 -0.10333 -0.347696 0
M  V30 9 C -0.750646 -1.19737 0.0701055 0
M  V30 10 C 0.675594 -0.904187 -0.251961 0
M  V30 11 C 1.45641 -0.214189 0.635576 0
M  V30 12 C 2.77184 0.0826623 0.394794 0
M  V30 13 C 3.34542 -0.321426 -0.780234 0
M  V30 14 C 2.58776 -1.01822 -1.69607 0
M  V30 15 C 1.26745 -1.30446 -1.43086 0
M  V30 16 Br 3.38196 -1.59063 -3.34893 0
M  V30 17 O 4.67137 -0.0214984 -1.02158 0
M  V30 18 C 5.44636 0.684099 -0.0991025 0
M  V30 19 C -1.61936 0.324561 -1.66452 0
M  V30 20 C -2.4374 1.34388 -2.13686 0
M  V30 21 C -3.32055 1.95395 -1.271 0
M  V30 22 C -3.35321 1.5227 0.0342416 0
M  V30 23 N -4.16395 2.99836 -1.73965 0
M  V30 24 H -2.43779 -2.13595 3.96934 0
M  V30 25 H -1.31231 -0.821893 4.39089 0
M  V30 26 H -1.00512 -2.11045 -0.527899 0
M  V30 27 H 1.00614 0.112046 1.57608 0
M  V30 28 H 3.317 0.632446 1.15091 0
M  V30 29 H 0.674151 -1.85748 -2.16067 0
M  V30 30 H 6.52192 0.629078 -0.321747 0
M  V30 31 H 5.16988 1.76071 -0.108313 0
M  V30 32 H 5.32536 0.335144 0.952082 0
M  V30 33 H -0.953308 -0.11415 -2.37763 0
M  V30 34 H -2.39715 1.67255 -3.17645 0
M  V30 35 H -4.04488 2.00222 0.707546 0
M  V30 36 H -3.69805 3.86874 -2.07911 0
M  V30 37 H -5.18739 2.95473 -1.76636 0
M  V30 END ATOM
M  V30 BEGIN BOND
M  V30 1 3 1 2
M  V30 2 1 2 3
M  V30 3 2 3 4
M  V30 4 1 4 5
M  V30 5 1 4 6
M  V30 6 1 6 7
M  V30 7 2 7 8
M  V30 8 1 8 9
M  V30 9 1 9 10
M  V30 10 2 10 11
M  V30 11 1 11 12
M  V30 12 2 12 13
M  V30 13 1 13 14
M  V30 14 2 14 15
M  V30 15 1 14 16
M  V30 16 1 13 17
M  V30 17 1 17 18
M  V30 18 1 8 19
M  V30 19 2 19 20
M  V30 20 1 20 21
M  V30 21 2 21 22
M  V30 22 1 21 23
M  V30 23 1 9 3
M  V30 24 1 15 10
M  V30 25 1 22 7
M  V30 26 1 5 24
M  V30 27 1 5 25
M  V30 28 1 9 26
M  V30 29 1 11 27
M  V30 30 1 12 28
M  V30 31 1 15 29
M  V30 32 1 18 30
M  V30 33 1 18 31
M  V30 34 1 18 32
M  V30 35 1 19 33
M  V30 36 1 20 34
M  V30 37 1 22 35
M  V30 38 1 23 36
M  V30 39 1 23 37
M  V30 END BOND
M  V30 END CTAB
M  END
