
     RDKit          3D

  0  0  0  0  0  0  0  0  0  0999 V3000
M  V30 BEGIN CTAB
M  V30 COUNTS 43 43 0 0 0
M  V30 BEGIN ATOM
M  V30 1 N 4.05135 -0.998772 1.54623 0
M  V30 2 C 4.1056 0.128858 0.662645 0
M  V30 3 N 5.0793 1.12306 0.860165 0
M  V30 4 N 3.23411 0.161179 -0.283676 0
M  V30 5 N 2.27454 -0.830369 -0.468646 0
M  V30 6 C 1.18899 -0.515036 -1.06099 0
M  V30 7 C 0.955958 0.858937 -1.53637 0
M  V30 8 C 0.327028 1.73683 -0.46821 0
M  V30 9 C -0.887278 2.45691 -0.969356 0
M  V30 10 C -1.86771 2.80453 0.107236 0
M  V30 11 C -2.28603 1.62508 0.933161 0
M  V30 12 C -2.78612 0.466287 0.137327 0
M  V30 13 C -2.35082 -0.8164 0.85415 0
M  V30 14 C -2.51205 -2.02899 0.0377392 0
M  V30 15 C -1.37682 -2.9915 0.0241892 0
M  V30 16 C -0.0166949 -2.40239 0.0276852 0
M  V30 17 C 0.185731 -1.58482 -1.24564 0
M  V30 18 H 4.9076 -1.57483 1.60005 0
M  V30 19 H 3.17205 -1.1575 2.06268 0
M  V30 20 H 5.53053 1.22744 1.78696 0
M  V30 21 H 5.354 1.75548 0.0910896 0
M  V30 22 H 0.344042 0.879121 -2.48175 0
M  V30 23 H 1.9148 1.37427 -1.8302 0
M  V30 24 H 1.03778 2.51496 -0.0963428 0
M  V30 25 H 0.128388 1.07772 0.398709 0
M  V30 26 H -1.41292 1.93018 -1.79183 0
M  V30 27 H -0.55356 3.43549 -1.42385 0
M  V30 28 H -2.76187 3.24596 -0.338976 0
M  V30 29 H -1.37087 3.52749 0.812182 0
M  V30 30 H -1.4725 1.29552 1.64407 0
M  V30 31 H -3.09916 1.99682 1.62439 0
M  V30 32 H -3.90307 0.512276 0.130671 0
M  V30 33 H -2.4445 0.417348 -0.89297 0
M  V30 34 H -1.34707 -0.614474 1.24714 0
M  V30 35 H -3.02435 -0.882563 1.74757 0
M  V30 36 H -2.67952 -1.70374 -1.03331 0
M  V30 37 H -3.44917 -2.56415 0.310217 0
M  V30 38 H -1.46618 -3.66264 -0.85598 0
M  V30 39 H -1.50019 -3.66616 0.913194 0
M  V30 40 H 0.251066 -1.84139 0.933085 0
M  V30 41 H 0.714323 -3.24221 -0.0452615 0
M  V30 42 H 0.591618 -2.24743 -2.06555 0
M  V30 43 H -0.780334 -1.22638 -1.60364 0
M  V30 END ATOM
M  V30 BEGIN BOND
M  V30 1 1 1 2
M  V30 2 1 2 3
M  V30 3 2 2 4
M  V30 4 1 4 5
M  V30 5 2 5 6
M  V30 6 1 6 7
M  V30 7 1 7 8
M  V30 8 1 8 9
M  V30 9 1 9 10
M  V30 10 1 10 11
M  V30 11 1 11 12
M  V30 12 1 12 13
M  V30 13 1 13 14
M  V30 14 1 14 15
M  V30 15 1 15 16
M  V30 16 1 16 17
M  V30 17 1 17 6
M  V30 18 1 1 18
M  V30 19 1 1 19
M  V30 20 1 3 20
M  V30 21 1 3 21
M  V30 22 1 7 22
M  V30 23 1 7 23
M  V30 24 1 8 24
M  V30 25 1 8 25
M  V30 26 1 9 26
M  V30 27 1 9 27
M  V30 28 1 10 28
M  V30 29 1 10 29
M  V30 30 1 11 30
M  V30 31 1 11 31
M  V30 32 1 12 32
M  V30 33 1 12 33
M  V30 34 1 13 34
M  V30 35 1 13 35
M  V30 36 1 14 36
M  V30 37 1 14 37
M  V30 38 1 15 38
M  V30 39 1 15 39
M  V30 40 1 16 40
M  V30 41 1 16 41
M  V30 42 1 17 42
M  V30 43 1 17 43
M  V30 END BOND
M  V30 END CTAB
M  END
