
     RDKit          3D

  0  0  0  0  0  0  0  0  0  0999 V3000
M  V30 BEGIN CTAB
M  V30 COUNTS 48 49 0 0 0
M  V30 BEGIN ATOM
M  V30 1 N 0.488007 1.0842 1.37911 0
M  V30 2 C 0.804592 -0.18421 0.740981 0
M  V30 3 C 2.26186 -0.198724 0.501496 0
M  V30 4 C 3.0268 -1.29488 0.786601 0
M  V30 5 C 4.39427 -1.27281 0.548486 0
M  V30 6 C 4.97423 -0.12142 0.0165457 0
M  V30 7 C 4.19741 0.974892 -0.266625 0
M  V30 8 C 2.85538 0.917557 -0.0194808 0
M  V30 9 C 6.42629 -0.0241119 -0.264134 0
M  V30 10 C 6.55692 0.255387 -1.76693 0
M  V30 11 C 6.95035 1.19647 0.463198 0
M  V30 12 C 0.141868 -0.245966 -0.610764 0
M  V30 13 N -1.27127 -0.143051 -0.580078 0
M  V30 14 C -2.15262 -1.01346 0.0802763 0
M  V30 15 O -1.70328 -1.98945 0.717674 0
M  V30 16 C -3.59003 -0.815869 0.0477632 0
M  V30 17 O -4.51552 -1.54634 0.615046 0
M  V30 18 C -5.70747 -1.09961 0.394084 0
M  V30 19 C -5.57398 0.0285468 -0.389176 0
M  V30 20 C -4.23385 0.230971 -0.624034 0
M  V30 21 S -6.88111 1.04145 -0.990139 0
M  V30 22 O -6.32013 2.20894 -1.71767 0
M  V30 23 O -7.80031 0.268061 -1.86997 0
M  V30 24 N -7.72081 1.64939 0.414394 0
M  V30 25 C -7.01141 -1.66169 0.873005 0
M  V30 26 H 0.332957 0.984962 2.4043 0
M  V30 27 H -0.252771 1.60649 0.890738 0
M  V30 28 H 0.536771 -1.04211 1.38333 0
M  V30 29 H 2.60296 -2.21765 1.20605 0
M  V30 30 H 5.02667 -2.10305 0.755511 0
M  V30 31 H 4.65374 1.87582 -0.683273 0
M  V30 32 H 2.27174 1.82227 -0.262811 0
M  V30 33 H 6.96811 -0.947115 -0.00675022 0
M  V30 34 H 5.64158 0.71988 -2.13862 0
M  V30 35 H 6.7385 -0.729951 -2.26377 0
M  V30 36 H 7.40743 0.956353 -1.96426 0
M  V30 37 H 6.30731 1.50666 1.30432 0
M  V30 38 H 7.0619 2.06845 -0.219831 0
M  V30 39 H 7.96659 0.991404 0.891788 0
M  V30 40 H 0.41126 -1.2071 -1.09749 0
M  V30 41 H 0.58109 0.559133 -1.22574 0
M  V30 42 H -1.68844 0.680559 -1.11505 0
M  V30 43 H -3.78682 1.02819 -1.20281 0
M  V30 44 H -6.95873 1.86992 1.10943 0
M  V30 45 H -8.38859 0.946217 0.789231 0
M  V30 46 H -6.96031 -2.77543 0.901446 0
M  V30 47 H -7.24041 -1.33952 1.9055 0
M  V30 48 H -7.82873 -1.40905 0.159107 0
M  V30 END ATOM
M  V30 BEGIN BOND
M  V30 1 1 1 2
M  V30 2 1 2 3
M  V30 3 2 3 4
M  V30 4 1 4 5
M  V30 5 2 5 6
M  V30 6 1 6 7
M  V30 7 2 7 8
M  V30 8 1 6 9
M  V30 9 1 9 10
M  V30 10 1 9 11
M  V30 11 1 2 12
M  V30 12 1 12 13
M  V30 13 1 13 14
M  V30 14 2 14 15
M  V30 15 1 14 16
M  V30 16 1 16 17
M  V30 17 1 17 18
M  V30 18 2 18 19
M  V30 19 1 19 20
M  V30 20 1 19 21
M  V30 21 2 21 22
M  V30 22 2 21 23
M  V30 23 1 21 24
M  V30 24 1 18 25
M  V30 25 1 8 3
M  V30 26 2 20 16
M  V30 27 1 1 26
M  V30 28 1 1 27
M  V30 29 1 2 28
M  V30 30 1 4 29
M  V30 31 1 5 30
M  V30 32 1 7 31
M  V30 33 1 8 32
M  V30 34 1 9 33
M  V30 35 1 10 34
M  V30 36 1 10 35
M  V30 37 1 10 36
M  V30 38 1 11 37
M  V30 39 1 11 38
M  V30 40 1 11 39
M  V30 41 1 12 40
M  V30 42 1 12 41
M  V30 43 1 13 42
M  V30 44 1 20 43
M  V30 45 1 24 44
M  V30 46 1 24 45
M  V30 47 1 25 46
M  V30 48 1 25 47
M  V30 49 1 25 48
M  V30 END BOND
M  V30 END CTAB
M  END
