
     RDKit          3D

  0  0  0  0  0  0  0  0  0  0999 V3000
M  V30 BEGIN CTAB
M  V30 COUNTS 33 35 0 0 0
M  V30 BEGIN ATOM
M  V30 1 C -5.50995 0.81038 -0.363907 0
M  V30 2 C -4.15127 0.302503 -0.0511961 0
M  V30 3 C -3.85687 -0.594035 0.944861 0
M  V30 4 C -2.48683 -0.78254 0.878214 0
M  V30 5 C -2.05744 0.0174872 -0.156684 0
M  V30 6 O -3.04792 0.65375 -0.698631 0
M  V30 7 C -0.613923 0.114567 -0.575906 0
M  V30 8 C -0.195402 -1.27692 -0.972134 0
M  V30 9 C 1.24235 -1.53202 -0.68462 0
M  V30 10 O 1.67842 -2.68311 -0.926881 0
M  V30 11 C 2.13352 -0.531109 -0.150911 0
M  V30 12 C 1.60665 0.57384 0.481482 0
M  V30 13 C 0.141029 0.667503 0.58119 0
M  V30 14 N 2.43006 1.53654 0.993759 0
M  V30 15 C 3.76479 1.44338 0.901616 0
M  V30 16 N 4.29176 0.370763 0.287378 0
M  V30 17 C 3.51038 -0.608261 -0.235326 0
M  V30 18 N 4.04566 -1.75091 -0.888616 0
M  V30 19 N 4.62697 2.46456 1.44531 0
M  V30 20 H -5.49743 1.84108 -0.72782 0
M  V30 21 H -5.94302 0.159727 -1.15276 0
M  V30 22 H -6.11144 0.799579 0.567515 0
M  V30 23 H -4.49484 -1.08268 1.65624 0
M  V30 24 H -1.8603 -1.4079 1.4841 0
M  V30 25 H -0.523447 0.819868 -1.42728 0
M  V30 26 H -0.304945 -1.33853 -2.08667 0
M  V30 27 H -0.854846 -2.06728 -0.557946 0
M  V30 28 H -0.18359 1.72679 0.715101 0
M  V30 29 H -0.154166 0.065115 1.48722 0
M  V30 30 H 4.31621 -1.79118 -1.88801 0
M  V30 31 H 4.17409 -2.61165 -0.31468 0
M  V30 32 H 4.73803 3.38241 0.965482 0
M  V30 33 H 5.14771 2.30827 2.31429 0
M  V30 END ATOM
M  V30 BEGIN BOND
M  V30 1 1 1 2
M  V30 2 2 2 3
M  V30 3 1 3 4
M  V30 4 2 4 5
M  V30 5 1 5 6
M  V30 6 1 5 7
M  V30 7 1 7 8
M  V30 8 1 8 9
M  V30 9 2 9 10
M  V30 10 1 9 11
M  V30 11 2 11 12
M  V30 12 1 12 13
M  V30 13 1 12 14
M  V30 14 2 14 15
M  V30 15 1 15 16
M  V30 16 2 16 17
M  V30 17 1 17 18
M  V30 18 1 15 19
M  V30 19 1 6 2
M  V30 20 1 13 7
M  V30 21 1 17 11
M  V30 22 1 1 20
M  V30 23 1 1 21
M  V30 24 1 1 22
M  V30 25 1 3 23
M  V30 26 1 4 24
M  V30 27 1 7 25
M  V30 28 1 8 26
M  V30 29 1 8 27
M  V30 30 1 13 28
M  V30 31 1 13 29
M  V30 32 1 18 30
M  V30 33 1 18 31
M  V30 34 1 19 32
M  V30 35 1 19 33
M  V30 END BOND
M  V30 END CTAB
M  END
