
     RDKit          3D

  0  0  0  0  0  0  0  0  0  0999 V3000
M  V30 BEGIN CTAB
M  V30 COUNTS 24 25 0 0 0
M  V30 BEGIN ATOM
M  V30 1 N -5.01302 0.264123 -0.737053 0
M  V30 2 N -4.09301 -0.653294 -0.214665 0
M  V30 3 C -2.72022 -0.310501 -0.045438 0
M  V30 4 N -2.23529 0.899512 -0.373912 0
M  V30 5 N -0.95522 1.21046 -0.213017 0
M  V30 6 C -0.0355512 0.363919 0.284065 0
M  V30 7 C -0.480966 -0.893031 0.637663 0
M  V30 8 C -1.82165 -1.22002 0.469618 0
M  V30 9 N 1.34014 0.757798 0.435653 0
M  V30 10 N 1.76791 1.892 0.985781 0
M  V30 11 C 3.09609 1.96099 0.977351 0
M  V30 12 C 3.52506 0.782747 0.377765 0
M  V30 13 C 4.8839 0.386698 0.137132 0
M  V30 14 N 5.96009 0.0665916 -0.0691457 0
M  V30 15 C 2.3988 0.0537216 0.0515498 0
M  V30 16 N 2.36344 -1.21832 -0.579733 0
M  V30 17 H -4.51028 1.00806 -1.29478 0
M  V30 18 H -5.56213 0.705822 0.0191443 0
M  V30 19 H -4.43465 -1.59862 0.0498284 0
M  V30 20 H 0.2366 -1.59505 1.04031 0
M  V30 21 H -2.16896 -2.19742 0.744377 0
M  V30 22 H 3.77098 2.73602 1.34096 0
M  V30 23 H 2.91513 -2.03122 -0.227602 0
M  V30 24 H 1.77281 -1.37098 -1.42694 0
M  V30 END ATOM
M  V30 BEGIN BOND
M  V30 1 1 1 2
M  V30 2 1 2 3
M  V30 3 2 3 4
M  V30 4 1 4 5
M  V30 5 2 5 6
M  V30 6 1 6 7
M  V30 7 2 7 8
M  V30 8 1 6 9
M  V30 9 1 9 10
M  V30 10 2 10 11
M  V30 11 1 11 12
M  V30 12 1 12 13
M  V30 13 3 13 14
M  V30 14 2 12 15
M  V30 15 1 15 16
M  V30 16 1 8 3
M  V30 17 1 15 9
M  V30 18 1 1 17
M  V30 19 1 1 18
M  V30 20 1 2 19
M  V30 21 1 7 20
M  V30 22 1 8 21
M  V30 23 1 11 22
M  V30 24 1 16 23
M  V30 25 1 16 24
M  V30 END BOND
M  V30 END CTAB
M  END
