
     RDKit          3D

  0  0  0  0  0  0  0  0  0  0999 V3000
M  V30 BEGIN CTAB
M  V30 COUNTS 25 25 0 0 0
M  V30 BEGIN ATOM
M  V30 1 C 3.70071 -0.244749 -0.957882 0
M  V30 2 O 2.62537 0.515771 -0.38918 0
M  V30 3 C 1.7841 -0.0411501 0.535812 0
M  V30 4 O 1.93977 -1.2263 0.911531 0
M  V30 5 C 0.629558 0.714857 1.13956 0
M  V30 6 C -0.636049 0.252084 0.501827 0
M  V30 7 C -1.30741 -0.890749 0.799346 0
M  V30 8 N -0.827785 -1.73333 1.86065 0
M  V30 9 C -2.47234 -1.26708 0.112548 0
M  V30 10 C -2.97595 -0.480895 -0.895076 0
M  V30 11 C -2.29159 0.691348 -1.20372 0
M  V30 12 C -1.14873 1.05873 -0.528217 0
M  V30 13 N -0.438355 2.26449 -0.857756 0
M  V30 14 Cl -4.42628 -0.91284 -1.79677 0
M  V30 15 H 3.47194 -1.30691 -0.744877 0
M  V30 16 H 3.73133 -0.0264945 -2.05195 0
M  V30 17 H 4.61497 0.0384571 -0.439143 0
M  V30 18 H 0.568827 0.48747 2.20028 0
M  V30 19 H 0.757102 1.77142 0.911094 0
M  V30 20 H -0.847171 -1.45499 2.87285 0
M  V30 21 H -0.449617 -2.66687 1.60067 0
M  V30 22 H -2.96877 -2.18559 0.399628 0
M  V30 23 H -2.66818 1.31619 -1.98821 0
M  V30 24 H -0.561503 3.13696 -0.323758 0
M  V30 25 H 0.196056 2.19018 -1.66926 0
M  V30 END ATOM
M  V30 BEGIN BOND
M  V30 1 1 1 2
M  V30 2 1 2 3
M  V30 3 2 3 4
M  V30 4 1 3 5
M  V30 5 1 5 6
M  V30 6 2 6 7
M  V30 7 1 7 8
M  V30 8 1 7 9
M  V30 9 2 9 10
M  V30 10 1 10 11
M  V30 11 2 11 12
M  V30 12 1 12 13
M  V30 13 1 10 14
M  V30 14 1 12 6
M  V30 15 1 1 15
M  V30 16 1 1 16
M  V30 17 1 1 17
M  V30 18 1 5 18
M  V30 19 1 5 19
M  V30 20 1 8 20
M  V30 21 1 8 21
M  V30 22 1 9 22
M  V30 23 1 11 23
M  V30 24 1 13 24
M  V30 25 1 13 25
M  V30 END BOND
M  V30 END CTAB
M  END
