
     RDKit          3D

  0  0  0  0  0  0  0  0  0  0999 V3000
M  V30 BEGIN CTAB
M  V30 COUNTS 44 46 0 0 0
M  V30 BEGIN ATOM
M  V30 1 N -6.27702 0.0870334 0.364023 0
M  V30 2 C -5.61563 0.869227 -0.611349 0
M  V30 3 C -4.29274 0.307429 -1.06654 0
M  V30 4 C -3.38905 0.199735 0.0822772 0
M  V30 5 O -3.85915 0.582775 1.20998 0
M  V30 6 N -2.05672 -0.297533 -0.00988957 0
M  V30 7 C -1.51373 -0.728505 -1.25146 0
M  V30 8 C -0.0607354 -0.447963 -1.42607 0
M  V30 9 C 0.774532 -0.581711 -0.207667 0 CFG=2
M  V30 10 C 0.159575 0.103144 0.992175 0 CFG=2
M  V30 11 C -1.26545 -0.359913 1.16364 0
M  V30 12 C 0.24199 1.59461 0.846576 0
M  V30 13 O 0.792703 -0.283195 2.17351 0
M  V30 14 N 2.09333 -0.0682548 -0.529603 0
M  V30 15 C 2.41708 1.03839 -1.21755 0
M  V30 16 N 3.75204 1.15983 -1.29544 0
M  V30 17 C 4.26886 0.0903488 -0.632095 0
M  V30 18 C 3.24117 -0.674903 -0.15488 0
M  V30 19 N 3.46029 -1.81117 0.550528 0
M  V30 20 C 4.73194 -2.16586 0.768539 0
M  V30 21 N 5.77143 -1.43403 0.312066 0
M  V30 22 C 5.58664 -0.301334 -0.39119 0
M  V30 23 N 6.62645 0.502536 -0.892418 0
M  V30 24 H -5.91112 -0.862132 0.388536 0
M  V30 25 H -6.32353 0.495837 1.2987 0
M  V30 26 H -5.3944 1.87083 -0.138621 0
M  V30 27 H -6.28807 1.10449 -1.46329 0
M  V30 28 H -4.43702 -0.645181 -1.61137 0
M  V30 29 H -3.84912 1.09457 -1.74624 0
M  V30 30 H -2.05383 -0.18475 -2.06921 0
M  V30 31 H -1.7063 -1.81763 -1.46325 0
M  V30 32 H 0.0668245 0.560829 -1.86794 0
M  V30 33 H 0.332802 -1.16065 -2.19709 0
M  V30 34 H 0.867182 -1.68162 0.00657357 0
M  V30 35 H -1.70098 0.24349 1.99134 0
M  V30 36 H -1.22655 -1.41445 1.51407 0
M  V30 37 H -0.143428 1.93178 -0.129951 0
M  V30 38 H -0.430108 2.04935 1.62465 0
M  V30 39 H 1.2527 1.97868 0.999376 0
M  V30 40 H 0.621782 -1.26543 2.25979 0
M  V30 41 H 1.69493 1.75053 -1.65783 0
M  V30 42 H 4.98513 -3.06448 1.32627 0
M  V30 43 H 7.14784 1.15939 -0.249965 0
M  V30 44 H 6.90746 0.475858 -1.887 0
M  V30 END ATOM
M  V30 BEGIN BOND
M  V30 1 1 1 2
M  V30 2 1 2 3
M  V30 3 1 3 4
M  V30 4 2 4 5
M  V30 5 1 4 6
M  V30 6 1 6 7
M  V30 7 1 7 8
M  V30 8 1 8 9
M  V30 9 1 9 10
M  V30 10 1 10 11
M  V30 11 1 10 12
M  V30 12 1 10 13 CFG=1
M  V30 13 1 9 14
M  V30 14 1 14 15
M  V30 15 2 15 16
M  V30 16 1 16 17
M  V30 17 2 17 18
M  V30 18 1 18 19
M  V30 19 2 19 20
M  V30 20 1 20 21
M  V30 21 2 21 22
M  V30 22 1 22 23
M  V30 23 1 11 6
M  V30 24 1 18 14
M  V30 25 1 22 17
M  V30 26 1 1 24
M  V30 27 1 1 25
M  V30 28 1 2 26
M  V30 29 1 2 27
M  V30 30 1 3 28
M  V30 31 1 3 29
M  V30 32 1 7 30
M  V30 33 1 7 31
M  V30 34 1 8 32
M  V30 35 1 8 33
M  V30 36 1 9 34 CFG=1
M  V30 37 1 11 35
M  V30 38 1 11 36
M  V30 39 1 12 37
M  V30 40 1 12 38
M  V30 41 1 12 39
M  V30 42 1 13 40
M  V30 43 1 15 41
M  V30 44 1 20 42
M  V30 45 1 23 43
M  V30 46 1 23 44
M  V30 END BOND
M  V30 END CTAB
M  END
