
     RDKit          3D

  0  0  0  0  0  0  0  0  0  0999 V3000
M  V30 BEGIN CTAB
M  V30 COUNTS 24 24 0 0 0
M  V30 BEGIN ATOM
M  V30 1 N -1.91832 -1.8137 0.492681 0
M  V30 2 C -1.66391 -0.900963 -0.587689 0
M  V30 3 C -0.933218 0.328633 -0.227263 0
M  V30 4 C 0.39612 0.0234664 0.318685 0
M  V30 5 N 0.814596 -0.43265 1.50515 0
M  V30 6 N 2.1103 -0.555754 1.46706 0
M  V30 7 C 2.60496 -0.194797 0.283306 0
M  V30 8 N 1.52124 0.169581 -0.415902 0
M  V30 9 N 3.94743 -0.159042 -0.174073 0
M  V30 10 C -0.739949 1.17502 -1.48686 0
M  V30 11 C -1.69421 1.21826 0.722264 0
M  V30 12 H -2.38717 -1.38121 1.3342 0
M  V30 13 H -2.46522 -2.63671 0.118926 0
M  V30 14 H -2.62482 -0.703336 -1.13531 0
M  V30 15 H -1.02743 -1.4591 -1.31215 0
M  V30 16 H 2.7053 -0.867321 2.26101 0
M  V30 17 H 4.47187 0.713363 -0.446688 0
M  V30 18 H 4.47104 -1.05723 -0.27883 0
M  V30 19 H -1.69397 1.65927 -1.70293 0
M  V30 20 H 0.110971 1.90115 -1.30014 0
M  V30 21 H -0.408147 0.509648 -2.28624 0
M  V30 22 H -2.56974 1.62547 0.1887 0
M  V30 23 H -1.98474 0.763728 1.66737 0
M  V30 24 H -1.04297 2.07422 0.99473 0
M  V30 END ATOM
M  V30 BEGIN BOND
M  V30 1 1 1 2
M  V30 2 1 2 3
M  V30 3 1 3 4
M  V30 4 2 4 5
M  V30 5 1 5 6
M  V30 6 1 6 7
M  V30 7 2 7 8
M  V30 8 1 7 9
M  V30 9 1 3 10
M  V30 10 1 3 11
M  V30 11 1 8 4
M  V30 12 1 1 12
M  V30 13 1 1 13
M  V30 14 1 2 14
M  V30 15 1 2 15
M  V30 16 1 6 16
M  V30 17 1 9 17
M  V30 18 1 9 18
M  V30 19 1 10 19
M  V30 20 1 10 20
M  V30 21 1 10 21
M  V30 22 1 11 22
M  V30 23 1 11 23
M  V30 24 1 11 24
M  V30 END BOND
M  V30 END CTAB
M  END
