
     RDKit          3D

  0  0  0  0  0  0  0  0  0  0999 V3000
M  V30 BEGIN CTAB
M  V30 COUNTS 40 42 0 0 0
M  V30 BEGIN ATOM
M  V30 1 N 7.38838 -0.849305 1.06217 0
M  V30 2 C 6.06756 -0.561904 0.683397 0
M  V30 3 N 5.78702 0.659344 0.0599557 0
M  V30 4 C 4.55588 0.976613 -0.329566 0
M  V30 5 N 4.25144 2.20908 -0.954241 0
M  V30 6 C 3.51057 0.0617478 -0.12521 0
M  V30 7 C 2.24633 0.376846 -0.564032 0
M  V30 8 C 1.18356 -0.547356 -0.398346 0
M  V30 9 C -0.0472488 -0.166158 -1.11709 0
M  V30 10 N -1.25341 0.119983 -0.546521 0
M  V30 11 C -1.77564 1.05755 0.339481 0
M  V30 12 O -1.14865 1.91761 0.938714 0
M  V30 13 C -3.26446 0.927075 0.461838 0
M  V30 14 C -3.86121 -0.311667 0.490064 0
M  V30 15 C -5.23063 -0.401854 0.313543 0
M  V30 16 C -5.92351 0.775307 0.127106 0
M  V30 17 C -5.34094 2.02988 0.108 0
M  V30 18 C -3.98103 2.09053 0.275623 0
M  V30 19 C -5.94928 -1.72056 0.362451 0
M  V30 20 F -5.07221 -2.62986 0.856878 0
M  V30 21 F -6.15715 -1.96612 -0.997897 0
M  V30 22 F -7.10823 -1.55911 1.02217 0
M  V30 23 C 1.44415 -1.74093 0.209988 0
M  V30 24 C 2.73777 -2.01285 0.638193 0
M  V30 25 C 3.77 -1.13875 0.483851 0
M  V30 26 N 5.06384 -1.40079 0.874025 0
M  V30 27 H 7.85457 -0.349 1.78977 0
M  V30 28 H 7.96589 -1.60017 0.579343 0
M  V30 29 H 3.77785 2.29331 -1.83657 0
M  V30 30 H 4.60346 3.10919 -0.478331 0
M  V30 31 H 2.06072 1.35358 -1.01038 0
M  V30 32 H 0.282237 0.624052 -1.88344 0
M  V30 33 H -0.213776 -1.12271 -1.85765 0
M  V30 34 H -2.07493 -0.608118 -0.88713 0
M  V30 35 H -3.26096 -1.20099 0.657609 0
M  V30 36 H -7.04089 0.742216 -0.0112104 0
M  V30 37 H -5.91374 2.94647 -0.0159104 0
M  V30 38 H -3.48258 3.09157 0.213005 0
M  V30 39 H 0.643208 -2.49134 0.335129 0
M  V30 40 H 2.90603 -2.9824 1.12021 0
M  V30 END ATOM
M  V30 BEGIN BOND
M  V30 1 1 1 2
M  V30 2 2 2 3
M  V30 3 1 3 4
M  V30 4 1 4 5
M  V30 5 2 4 6
M  V30 6 1 6 7
M  V30 7 2 7 8
M  V30 8 1 8 9
M  V30 9 1 9 10
M  V30 10 1 10 11
M  V30 11 2 11 12
M  V30 12 1 11 13
M  V30 13 2 13 14
M  V30 14 1 14 15
M  V30 15 2 15 16
M  V30 16 1 16 17
M  V30 17 2 17 18
M  V30 18 1 15 19
M  V30 19 1 19 20
M  V30 20 1 19 21
M  V30 21 1 19 22
M  V30 22 1 8 23
M  V30 23 2 23 24
M  V30 24 1 24 25
M  V30 25 2 25 26
M  V30 26 1 26 2
M  V30 27 1 25 6
M  V30 28 1 18 13
M  V30 29 1 1 27
M  V30 30 1 1 28
M  V30 31 1 5 29
M  V30 32 1 5 30
M  V30 33 1 7 31
M  V30 34 1 9 32
M  V30 35 1 9 33
M  V30 36 1 10 34
M  V30 37 1 14 35
M  V30 38 1 16 36
M  V30 39 1 17 37
M  V30 40 1 18 38
M  V30 41 1 23 39
M  V30 42 1 24 40
M  V30 END BOND
M  V30 END CTAB
M  END
