
     RDKit          3D

  0  0  0  0  0  0  0  0  0  0999 V3000
M  V30 BEGIN CTAB
M  V30 COUNTS 40 41 0 0 0
M  V30 BEGIN ATOM
M  V30 1 N 4.16667 1.24602 3.69525 0
M  V30 2 C 2.8467 1.27733 3.18149 0
M  V30 3 S 1.84307 2.52397 3.47739 0
M  V30 4 N 2.39857 0.180544 2.38588 0
M  V30 5 N 1.14403 0.19409 1.8881 0
M  V30 6 C 0.663841 -0.170989 0.744013 0
M  V30 7 C -0.778319 -0.027053 0.512107 0
M  V30 8 N -1.46761 0.306518 1.57743 0
M  V30 9 N -2.79776 0.520954 1.71535 0
M  V30 10 C -3.36942 1.7516 1.27127 0
M  V30 11 N -4.75843 2.02793 1.39095 0
M  V30 12 S -2.45034 2.928 0.594976 0
M  V30 13 C -1.45206 -0.206906 -0.738323 0
M  V30 14 C -2.74373 -0.716438 -0.884614 0
M  V30 15 C -3.43261 -0.724141 -2.07619 0
M  V30 16 C -2.80566 -0.196958 -3.19106 0
M  V30 17 C -1.53023 0.321569 -3.11367 0
M  V30 18 C -0.879237 0.311019 -1.9061 0
M  V30 19 C 1.57604 -0.717291 -0.236603 0
M  V30 20 C 2.86505 -0.266835 -0.384075 0
M  V30 21 C 3.73577 -0.938077 -1.21157 0
M  V30 22 C 3.39659 -2.06652 -1.92775 0
M  V30 23 C 2.09777 -2.49947 -1.76404 0
M  V30 24 C 1.19727 -1.86523 -0.951442 0
M  V30 25 H 4.53203 2.09724 4.17434 0
M  V30 26 H 4.76821 0.402034 3.60442 0
M  V30 27 H 3.09762 -0.596085 2.23664 0
M  V30 28 H -3.47874 -0.17331 2.1459 0
M  V30 29 H -5.10012 2.93724 1.76124 0
M  V30 30 H -5.44019 1.29656 1.09863 0
M  V30 31 H -3.2272 -1.15828 -0.00267554 0
M  V30 32 H -4.42486 -1.12197 -2.15729 0
M  V30 33 H -3.34415 -0.203999 -4.12105 0
M  V30 34 H -1.02329 0.742821 -3.9958 0
M  V30 35 H 0.0924956 0.748827 -1.87101 0
M  V30 36 H 3.21439 0.650649 0.136932 0
M  V30 37 H 4.76495 -0.559273 -1.31362 0
M  V30 38 H 4.10355 -2.57338 -2.57182 0
M  V30 39 H 1.82005 -3.39585 -2.33049 0
M  V30 40 H 0.179295 -2.28688 -0.843107 0
M  V30 END ATOM
M  V30 BEGIN BOND
M  V30 1 1 1 2
M  V30 2 2 2 3
M  V30 3 1 2 4
M  V30 4 1 4 5
M  V30 5 2 5 6 CFG=2
M  V30 6 1 6 7
M  V30 7 2 7 8 CFG=2
M  V30 8 1 8 9
M  V30 9 1 9 10
M  V30 10 1 10 11
M  V30 11 2 10 12
M  V30 12 1 7 13
M  V30 13 2 13 14
M  V30 14 1 14 15
M  V30 15 2 15 16
M  V30 16 1 16 17
M  V30 17 2 17 18
M  V30 18 1 6 19
M  V30 19 2 19 20
M  V30 20 1 20 21
M  V30 21 2 21 22
M  V30 22 1 22 23
M  V30 23 2 23 24
M  V30 24 1 18 13
M  V30 25 1 24 19
M  V30 26 1 1 25
M  V30 27 1 1 26
M  V30 28 1 4 27
M  V30 29 1 9 28
M  V30 30 1 11 29
M  V30 31 1 11 30
M  V30 32 1 14 31
M  V30 33 1 15 32
M  V30 34 1 16 33
M  V30 35 1 17 34
M  V30 36 1 18 35
M  V30 37 1 20 36
M  V30 38 1 21 37
M  V30 39 1 22 38
M  V30 40 1 23 39
M  V30 41 1 24 40
M  V30 END BOND
M  V30 END CTAB
M  END
