
     RDKit          3D

  0  0  0  0  0  0  0  0  0  0999 V3000
M  V30 BEGIN CTAB
M  V30 COUNTS 19 19 0 0 0
M  V30 BEGIN ATOM
M  V30 1 N -2.67731 -0.58033 1.10553 0
M  V30 2 C -2.10041 -0.576686 -0.243748 0
M  V30 3 C -0.73222 -0.0419215 -0.125895 0
M  V30 4 C 0.305917 -0.912033 0.103907 0
M  V30 5 C 1.60243 -0.437725 0.219144 0
M  V30 6 N 2.65706 -1.35771 0.456566 0
M  V30 7 C 1.83008 0.915997 0.0995882 0
M  V30 8 C 0.803422 1.79102 -0.129268 0
M  V30 9 C -0.485941 1.29805 -0.241532 0
M  V30 10 I 1.23657 3.83474 -0.298208 0
M  V30 11 H -3.42393 0.127371 1.20921 0
M  V30 12 H -1.96937 -0.451118 1.8396 0
M  V30 13 H -2.73448 0.0251899 -0.939158 0
M  V30 14 H -2.10968 -1.63649 -0.592962 0
M  V30 15 H 0.161967 -1.97228 0.202007 0
M  V30 16 H 2.64605 -1.91491 1.33203 0
M  V30 17 H 3.39723 -1.42661 -0.27013 0
M  V30 18 H 2.85277 1.28277 0.191317 0
M  V30 19 H -1.26015 2.03268 -0.422353 0
M  V30 END ATOM
M  V30 BEGIN BOND
M  V30 1 1 1 2
M  V30 2 1 2 3
M  V30 3 2 3 4
M  V30 4 1 4 5
M  V30 5 1 5 6
M  V30 6 2 5 7
M  V30 7 1 7 8
M  V30 8 2 8 9
M  V30 9 1 8 10
M  V30 10 1 9 3
M  V30 11 1 1 11
M  V30 12 1 1 12
M  V30 13 1 2 13
M  V30 14 1 2 14
M  V30 15 1 4 15
M  V30 16 1 6 16
M  V30 17 1 6 17
M  V30 18 1 7 18
M  V30 19 1 9 19
M  V30 END BOND
M  V30 END CTAB
M  END
