
     RDKit          3D

  0  0  0  0  0  0  0  0  0  0999 V3000
M  V30 BEGIN CTAB
M  V30 COUNTS 44 44 0 0 0
M  V30 BEGIN ATOM
M  V30 1 C -5.19626 -1.05211 0.909835 0
M  V30 2 C -4.74486 -0.0761212 -0.127235 0
M  V30 3 C -3.24143 -0.172181 -0.419244 0
M  V30 4 C -2.54166 0.108054 0.859234 0
M  V30 5 N -1.12665 0.106363 0.887974 0
M  V30 6 C -0.190909 -0.892463 0.66325 0
M  V30 7 O -0.507102 -2.06248 0.385098 0
M  V30 8 C 1.25389 -0.623244 0.742503 0
M  V30 9 C 2.13561 -1.69761 0.900833 0
M  V30 10 C 3.49982 -1.5207 0.975778 0
M  V30 11 C 4.04623 -0.259272 0.895738 0
M  V30 12 C 3.17064 0.785534 0.74045 0
M  V30 13 C 1.79873 0.63835 0.662132 0
M  V30 14 C 5.48585 -0.0113576 0.969268 0
M  V30 15 S 6.29278 -0.0391182 -0.597712 0
M  V30 16 O 6.24679 -1.36015 -1.26398 0
M  V30 17 O 7.7554 0.301345 -0.352968 0
M  V30 18 N 5.67747 1.14437 -1.67625 0
M  V30 19 C -2.89513 0.850509 -1.49644 0
M  V30 20 C -3.21536 2.25595 -1.0661 0
M  V30 21 N -2.90993 -1.45736 -0.944282 0
M  V30 22 H -5.32466 -0.493277 1.87475 0
M  V30 23 H -4.47444 -1.86093 1.13665 0
M  V30 24 H -6.19668 -1.48485 0.696829 0
M  V30 25 H -5.31358 -0.285208 -1.05783 0
M  V30 26 H -5.02136 0.943682 0.191217 0
M  V30 27 H -2.86884 -0.694467 1.60131 0
M  V30 28 H -2.98772 1.04322 1.29829 0
M  V30 29 H -0.693861 1.07408 1.13841 0
M  V30 30 H 1.71094 -2.69565 0.964947 0
M  V30 31 H 4.11209 -2.41339 1.09927 0
M  V30 32 H 3.56404 1.78782 0.674126 0
M  V30 33 H 1.13975 1.49492 0.534262 0
M  V30 34 H 5.97624 -0.732894 1.63344 0
M  V30 35 H 5.65815 1.00025 1.41132 0
M  V30 36 H 5.53887 0.768483 -2.63981 0
M  V30 37 H 6.18886 2.04116 -1.65042 0
M  V30 38 H -3.51576 0.594042 -2.37179 0
M  V30 39 H -1.83471 0.762728 -1.73836 0
M  V30 40 H -2.86012 2.96285 -1.85868 0
M  V30 41 H -2.84517 2.53166 -0.0796565 0
M  V30 42 H -4.33522 2.38717 -1.07183 0
M  V30 43 H -3.4012 -2.26077 -0.53909 0
M  V30 44 H -3.00955 -1.43691 -1.98748 0
M  V30 END ATOM
M  V30 BEGIN BOND
M  V30 1 1 1 2
M  V30 2 1 2 3
M  V30 3 1 3 4
M  V30 4 1 4 5
M  V30 5 1 5 6
M  V30 6 2 6 7
M  V30 7 1 6 8
M  V30 8 2 8 9
M  V30 9 1 9 10
M  V30 10 2 10 11
M  V30 11 1 11 12
M  V30 12 2 12 13
M  V30 13 1 11 14
M  V30 14 1 14 15
M  V30 15 2 15 16
M  V30 16 2 15 17
M  V30 17 1 15 18
M  V30 18 1 3 19
M  V30 19 1 19 20
M  V30 20 1 3 21
M  V30 21 1 13 8
M  V30 22 1 1 22
M  V30 23 1 1 23
M  V30 24 1 1 24
M  V30 25 1 2 25
M  V30 26 1 2 26
M  V30 27 1 4 27
M  V30 28 1 4 28
M  V30 29 1 5 29
M  V30 30 1 9 30
M  V30 31 1 10 31
M  V30 32 1 12 32
M  V30 33 1 13 33
M  V30 34 1 14 34
M  V30 35 1 14 35
M  V30 36 1 18 36
M  V30 37 1 18 37
M  V30 38 1 19 38
M  V30 39 1 19 39
M  V30 40 1 20 40
M  V30 41 1 20 41
M  V30 42 1 20 42
M  V30 43 1 21 43
M  V30 44 1 21 44
M  V30 END BOND
M  V30 END CTAB
M  END
