
     RDKit          3D

  0  0  0  0  0  0  0  0  0  0999 V3000
M  V30 BEGIN CTAB
M  V30 COUNTS 27 28 0 0 0
M  V30 BEGIN ATOM
M  V30 1 N 2.05068 -1.46514 -0.070823 0
M  V30 2 N 2.0613 -0.0951857 -0.0502656 0
M  V30 3 C 3.16884 0.659331 -0.00356425 0
M  V30 4 N 4.50514 0.174438 0.0312062 0
M  V30 5 N 2.7717 1.94201 0.00369882 0
M  V30 6 N 1.45818 1.9611 -0.037581 0
M  V30 7 C 0.986853 0.683969 -0.072251 0
M  V30 8 C -0.453986 0.398652 -0.122769 0 CFG=1
M  V30 9 C -0.812928 -1.02378 0.0919965 0
M  V30 10 C -2.26962 -1.23879 0.266714 0
M  V30 11 C -3.14255 -0.0773206 -0.0580103 0
M  V30 12 C -2.56985 1.2641 0.288911 0
M  V30 13 N -1.22051 1.18404 0.810996 0
M  V30 14 H 2.02914 -2.05035 -0.927069 0
M  V30 15 H 2.06512 -1.98112 0.839346 0
M  V30 16 H 4.70436 -0.786393 -0.307602 0
M  V30 17 H 5.30435 0.751042 0.387497 0
M  V30 18 H -0.806051 0.694735 -1.14649 0
M  V30 19 H -0.291262 -1.35697 1.03445 0
M  V30 20 H -0.421534 -1.59513 -0.786508 0
M  V30 21 H -2.56461 -2.12024 -0.372713 0
M  V30 22 H -2.49503 -1.56414 1.30382 0
M  V30 23 H -4.12651 -0.170003 0.448117 0
M  V30 24 H -3.3574 -0.0879374 -1.1473 0
M  V30 25 H -2.5276 1.94091 -0.590731 0
M  V30 26 H -3.17157 1.79675 1.0565 0
M  V30 27 H -0.874645 2.16142 0.908089 0
M  V30 END ATOM
M  V30 BEGIN BOND
M  V30 1 1 1 2
M  V30 2 1 2 3
M  V30 3 1 3 4
M  V30 4 2 3 5
M  V30 5 1 5 6
M  V30 6 2 6 7
M  V30 7 1 7 8
M  V30 8 1 8 9
M  V30 9 1 9 10
M  V30 10 1 10 11
M  V30 11 1 11 12
M  V30 12 1 12 13
M  V30 13 1 7 2
M  V30 14 1 13 8
M  V30 15 1 1 14
M  V30 16 1 1 15
M  V30 17 1 4 16
M  V30 18 1 4 17
M  V30 19 1 8 18 CFG=3
M  V30 20 1 9 19
M  V30 21 1 9 20
M  V30 22 1 10 21
M  V30 23 1 10 22
M  V30 24 1 11 23
M  V30 25 1 11 24
M  V30 26 1 12 25
M  V30 27 1 12 26
M  V30 28 1 13 27
M  V30 END BOND
M  V30 END CTAB
M  END
