
     RDKit          3D

  0  0  0  0  0  0  0  0  0  0999 V3000
M  V30 BEGIN CTAB
M  V30 COUNTS 36 38 0 0 0
M  V30 BEGIN ATOM
M  V30 1 C 7.72077 0.581991 0.549657 0
M  V30 2 O 6.84812 -0.374029 -0.0212313 0
M  V30 3 C 5.4794 -0.206449 0.0579078 0
M  V30 4 C 4.87973 0.856509 0.671054 0
M  V30 5 C 3.53351 1.05191 0.766766 0
M  V30 6 C 2.64995 0.107022 0.202246 0
M  V30 7 C 3.2319 -0.966743 -0.417462 0
M  V30 8 C 4.62132 -1.14423 -0.502109 0
M  V30 9 S 1.84789 -1.83883 -0.946299 0
M  V30 10 C 0.638751 -0.789502 -0.349497 0
M  V30 11 N 1.35242 0.164303 0.217896 0
M  V30 12 N -0.801958 -0.904341 -0.43643 0
M  V30 13 C -1.56817 0.128288 0.156702 0
M  V30 14 O -1.00658 1.09853 0.731618 0
M  V30 15 C -3.02777 0.0336782 0.0813242 0
M  V30 16 C -3.70699 -0.984645 -0.523249 0
M  V30 17 C -5.09387 -1.05079 -0.581007 0
M  V30 18 N -5.72305 -2.13797 -1.22515 0
M  V30 19 C -5.80008 -0.0213871 0.010965 0
M  V30 20 C -5.18288 1.01769 0.626816 0
M  V30 21 C -3.79563 1.03682 0.657098 0
M  V30 22 N -5.91069 2.08191 1.23884 0
M  V30 23 H 7.64657 0.45168 1.66725 0
M  V30 24 H 7.4368 1.62222 0.292663 0
M  V30 25 H 8.7624 0.418326 0.202618 0
M  V30 26 H 5.5648 1.59728 1.11352 0
M  V30 27 H 3.17718 1.93496 1.27808 0
M  V30 28 H 4.95938 -2.01332 -1.00552 0
M  V30 29 H -1.1685 -1.72621 -0.921929 0
M  V30 30 H -3.17645 -1.78616 -0.984435 0
M  V30 31 H -6.02488 -2.95802 -0.679502 0
M  V30 32 H -5.87863 -2.10686 -2.24317 0
M  V30 33 H -6.89277 -0.029553 -0.00885085 0
M  V30 34 H -3.26364 1.84418 1.13633 0
M  V30 35 H -5.69676 3.04894 0.916509 0
M  V30 36 H -6.6316 1.9628 1.97563 0
M  V30 END ATOM
M  V30 BEGIN BOND
M  V30 1 1 1 2
M  V30 2 1 2 3
M  V30 3 2 3 4
M  V30 4 1 4 5
M  V30 5 2 5 6
M  V30 6 1 6 7
M  V30 7 2 7 8
M  V30 8 1 7 9
M  V30 9 1 9 10
M  V30 10 2 10 11
M  V30 11 1 10 12
M  V30 12 1 12 13
M  V30 13 2 13 14
M  V30 14 1 13 15
M  V30 15 2 15 16
M  V30 16 1 16 17
M  V30 17 1 17 18
M  V30 18 2 17 19
M  V30 19 1 19 20
M  V30 20 2 20 21
M  V30 21 1 20 22
M  V30 22 1 8 3
M  V30 23 1 21 15
M  V30 24 1 11 6
M  V30 25 1 1 23
M  V30 26 1 1 24
M  V30 27 1 1 25
M  V30 28 1 4 26
M  V30 29 1 5 27
M  V30 30 1 8 28
M  V30 31 1 12 29
M  V30 32 1 16 30
M  V30 33 1 18 31
M  V30 34 1 18 32
M  V30 35 1 19 33
M  V30 36 1 21 34
M  V30 37 1 22 35
M  V30 38 1 22 36
M  V30 END BOND
M  V30 END CTAB
M  END
