
     RDKit          3D

  0  0  0  0  0  0  0  0  0  0999 V3000
M  V30 BEGIN CTAB
M  V30 COUNTS 34 35 0 0 0
M  V30 BEGIN ATOM
M  V30 1 N 2.96616 -3.27425 -0.0646978 0
M  V30 2 C 2.99794 -1.86708 -0.0995876 0
M  V30 3 C 1.93083 -1.16302 -0.656809 0
M  V30 4 S 0.581259 -2.09972 -1.29568 0
M  V30 5 S -0.801353 -2.36335 0.299487 0
M  V30 6 C -1.91968 -0.989981 0.207689 0
M  V30 7 C -3.05558 -1.14834 -0.570647 0
M  V30 8 N -3.30562 -2.3595 -1.26068 0
M  V30 9 C -3.9904 -0.142502 -0.710176 0
M  V30 10 C -3.76819 1.0249 -0.0567779 0
M  V30 11 C -2.65015 1.23551 0.733456 0
M  V30 12 C -1.73827 0.206845 0.848612 0
M  V30 13 C -2.49153 2.50906 1.39398 0
M  V30 14 O -3.43345 3.49165 1.23965 0
M  V30 15 O -1.49407 2.71343 2.10634 0
M  V30 16 C 2.00333 0.205532 -0.670033 0
M  V30 17 C 3.08768 0.87882 -0.153897 0
M  V30 18 C 4.11696 0.167693 0.384721 0
M  V30 19 C 4.10444 -1.20745 0.428076 0
M  V30 20 C 3.12262 2.34121 -0.189199 0
M  V30 21 O 2.08105 3.05251 -0.733935 0
M  V30 22 O 4.11841 2.94432 0.28534 0
M  V30 23 H 3.11939 -3.81481 -0.927576 0
M  V30 24 H 2.78975 -3.76516 0.823223 0
M  V30 25 H -3.49511 -2.31427 -2.2765 0
M  V30 26 H -3.30089 -3.26717 -0.771406 0
M  V30 27 H -4.86248 -0.295389 -1.32155 0
M  V30 28 H -4.51944 1.81808 -0.175591 0
M  V30 29 H -0.868425 0.338187 1.44909 0
M  V30 30 H -4.3594 3.49135 1.64716 0
M  V30 31 H 1.16432 0.73456 -1.10725 0
M  V30 32 H 4.99029 0.693502 0.801002 0
M  V30 33 H 4.90786 -1.80561 0.850049 0
M  V30 34 H 1.97175 4.03046 -0.582346 0
M  V30 END ATOM
M  V30 BEGIN BOND
M  V30 1 1 1 2
M  V30 2 2 2 3
M  V30 3 1 3 4
M  V30 4 1 4 5
M  V30 5 1 5 6
M  V30 6 2 6 7
M  V30 7 1 7 8
M  V30 8 1 7 9
M  V30 9 2 9 10
M  V30 10 1 10 11
M  V30 11 2 11 12
M  V30 12 1 11 13
M  V30 13 1 13 14
M  V30 14 2 13 15
M  V30 15 1 3 16
M  V30 16 2 16 17
M  V30 17 1 17 18
M  V30 18 2 18 19
M  V30 19 1 17 20
M  V30 20 1 20 21
M  V30 21 2 20 22
M  V30 22 1 19 2
M  V30 23 1 12 6
M  V30 24 1 1 23
M  V30 25 1 1 24
M  V30 26 1 8 25
M  V30 27 1 8 26
M  V30 28 1 9 27
M  V30 29 1 10 28
M  V30 30 1 12 29
M  V30 31 1 14 30
M  V30 32 1 16 31
M  V30 33 1 18 32
M  V30 34 1 19 33
M  V30 35 1 21 34
M  V30 END BOND
M  V30 END CTAB
M  END
