
     RDKit          3D

  0  0  0  0  0  0  0  0  0  0999 V3000
M  V30 BEGIN CTAB
M  V30 COUNTS 26 26 0 0 0
M  V30 BEGIN ATOM
M  V30 1 C 3.62501 1.78001 0.506513 0
M  V30 2 C 3.22299 0.639775 1.37721 0
M  V30 3 O 1.83309 0.368024 1.14467 0
M  V30 4 C 1.36006 0.0131016 -0.108828 0
M  V30 5 O 2.18915 -0.0652331 -1.04588 0
M  V30 6 C -0.0764735 -0.264266 -0.333636 0
M  V30 7 C -0.513132 -0.614683 -1.59236 0
M  V30 8 C -1.83551 -0.887699 -1.87827 0
M  V30 9 C -2.28323 -1.25216 -3.19215 0
M  V30 10 N -2.65419 -1.53438 -4.24899 0
M  V30 11 C -2.70758 -0.785547 -0.804377 0
M  V30 12 C -2.30052 -0.440454 0.451467 0
M  V30 13 C -0.979594 -0.175989 0.700157 0
M  V30 14 N -0.504944 0.189908 2.00092 0
M  V30 15 N -4.08787 -1.06918 -1.09687 0
M  V30 16 H 4.01062 2.65194 1.08799 0
M  V30 17 H 2.77272 2.14994 -0.136135 0
M  V30 18 H 4.45056 1.46557 -0.151441 0
M  V30 19 H 3.83185 -0.238408 1.14493 0
M  V30 20 H 3.26936 0.904882 2.47373 0
M  V30 21 H 0.190105 -0.687646 -2.41621 0
M  V30 22 H -3.02278 -0.371899 1.26912 0
M  V30 23 H -0.341249 1.18592 2.26992 0
M  V30 24 H -0.330734 -0.596649 2.66845 0
M  V30 25 H -4.36412 -2.07867 -1.10552 0
M  V30 26 H -4.7536 -0.286202 -1.28609 0
M  V30 END ATOM
M  V30 BEGIN BOND
M  V30 1 1 1 2
M  V30 2 1 2 3
M  V30 3 1 3 4
M  V30 4 2 4 5
M  V30 5 1 4 6
M  V30 6 2 6 7
M  V30 7 1 7 8
M  V30 8 1 8 9
M  V30 9 3 9 10
M  V30 10 2 8 11
M  V30 11 1 11 12
M  V30 12 2 12 13
M  V30 13 1 13 14
M  V30 14 1 11 15
M  V30 15 1 13 6
M  V30 16 1 1 16
M  V30 17 1 1 17
M  V30 18 1 1 18
M  V30 19 1 2 19
M  V30 20 1 2 20
M  V30 21 1 7 21
M  V30 22 1 12 22
M  V30 23 1 14 23
M  V30 24 1 14 24
M  V30 25 1 15 25
M  V30 26 1 15 26
M  V30 END BOND
M  V30 END CTAB
M  END
