
     RDKit          3D

  0  0  0  0  0  0  0  0  0  0999 V3000
M  V30 BEGIN CTAB
M  V30 COUNTS 45 46 0 0 0
M  V30 BEGIN ATOM
M  V30 1 N 8.18872 -0.559914 -0.184705 0
M  V30 2 C 6.85815 -0.5206 -0.772868 0
M  V30 3 C 5.98233 0.331797 0.117434 0
M  V30 4 C 4.56995 0.415916 -0.415875 0
M  V30 5 N 3.81408 1.24879 0.472283 0
M  V30 6 C 2.40348 1.35075 0.11648 0
M  V30 7 C 1.69149 0.0536021 0.343873 0
M  V30 8 C 0.235321 0.121268 -0.00847405 0
M  V30 9 N -0.444168 1.12002 0.740614 0
M  V30 10 C -1.87795 1.16423 0.579547 0
M  V30 11 C -2.46012 -0.0248419 1.25747 0
M  V30 12 N -3.92253 -0.0767231 1.14277 0
M  V30 13 C -4.82305 0.461032 1.97125 0
M  V30 14 N -6.07869 0.183555 1.52199 0
M  V30 15 C -5.97948 -0.53683 0.398216 0
M  V30 16 C -4.62762 -0.693585 0.170715 0
M  V30 17 N -4.25983 -1.38484 -0.898686 0
M  V30 18 C -5.17656 -1.91611 -1.73504 0
M  V30 19 N -6.4907 -1.75151 -1.49592 0
M  V30 20 C -6.94696 -1.0617 -0.429643 0
M  V30 21 N -8.3424 -0.932507 -0.233217 0
M  V30 22 H 8.47108 0.34383 0.245108 0
M  V30 23 H 8.30242 -1.36749 0.475329 0
M  V30 24 H 6.4758 -1.56287 -0.809293 0
M  V30 25 H 6.98223 -0.0530659 -1.76274 0
M  V30 26 H 5.97616 -0.193513 1.10939 0
M  V30 27 H 6.44968 1.33386 0.193137 0
M  V30 28 H 4.17296 -0.590234 -0.514952 0
M  V30 29 H 4.65922 0.861672 -1.44163 0
M  V30 30 H 3.93143 0.913978 1.44241 0
M  V30 31 H 2.27777 1.71054 -0.902531 0
M  V30 32 H 1.98049 2.07651 0.857189 0
M  V30 33 H 2.18299 -0.797624 -0.204189 0
M  V30 34 H 1.72631 -0.265239 1.41964 0
M  V30 35 H 0.102172 0.284465 -1.11777 0
M  V30 36 H -0.206648 -0.879978 0.157555 0
M  V30 37 H -0.0329937 2.05446 0.732163 0
M  V30 38 H -2.08947 1.15381 -0.532753 0
M  V30 39 H -2.2153 2.13404 1.01225 0
M  V30 40 H -1.99299 -0.943911 0.927856 0
M  V30 41 H -2.2457 0.0751946 2.34581 0
M  V30 42 H -4.54818 1.02295 2.85402 0
M  V30 43 H -4.86312 -2.48658 -2.61899 0
M  V30 44 H -8.90992 -1.72835 0.19099 0
M  V30 45 H -8.89989 -0.088259 -0.47629 0
M  V30 END ATOM
M  V30 BEGIN BOND
M  V30 1 1 1 2
M  V30 2 1 2 3
M  V30 3 1 3 4
M  V30 4 1 4 5
M  V30 5 1 5 6
M  V30 6 1 6 7
M  V30 7 1 7 8
M  V30 8 1 8 9
M  V30 9 1 9 10
M  V30 10 1 10 11
M  V30 11 1 11 12
M  V30 12 1 12 13
M  V30 13 2 13 14
M  V30 14 1 14 15
M  V30 15 2 15 16
M  V30 16 1 16 17
M  V30 17 2 17 18
M  V30 18 1 18 19
M  V30 19 2 19 20
M  V30 20 1 20 21
M  V30 21 1 16 12
M  V30 22 1 20 15
M  V30 23 1 1 22
M  V30 24 1 1 23
M  V30 25 1 2 24
M  V30 26 1 2 25
M  V30 27 1 3 26
M  V30 28 1 3 27
M  V30 29 1 4 28
M  V30 30 1 4 29
M  V30 31 1 5 30
M  V30 32 1 6 31
M  V30 33 1 6 32
M  V30 34 1 7 33
M  V30 35 1 7 34
M  V30 36 1 8 35
M  V30 37 1 8 36
M  V30 38 1 9 37
M  V30 39 1 10 38
M  V30 40 1 10 39
M  V30 41 1 11 40
M  V30 42 1 11 41
M  V30 43 1 13 42
M  V30 44 1 18 43
M  V30 45 1 21 44
M  V30 46 1 21 45
M  V30 END BOND
M  V30 END CTAB
M  END
