
     RDKit          3D

  0  0  0  0  0  0  0  0  0  0999 V3000
M  V30 BEGIN CTAB
M  V30 COUNTS 54 56 0 0 0
M  V30 BEGIN ATOM
M  V30 1 N -5.45458 2.93269 -2.00502 0
M  V30 2 C -6.01328 2.13426 -1.37539 0
M  V30 3 C -6.60021 1.08706 -0.501714 0
M  V30 4 C -7.57842 1.41389 0.37424 0
M  V30 5 C -8.31456 0.325798 0.85219 0
M  V30 6 C -9.45477 0.618606 1.69844 0
M  V30 7 N -10.3944 0.878312 2.33964 0
M  V30 8 C -8.06579 -0.938988 0.479253 0
M  V30 9 N -7.07154 -1.22525 -0.358759 0
M  V30 10 C -6.33624 -0.179423 -0.834427 0
M  V30 11 S -4.96859 -0.833152 -1.80336 0
M  V30 12 C -3.94982 -1.73026 -0.488837 0
M  V30 13 C -2.98296 -0.791655 0.0528926 0
M  V30 14 O -1.98383 -1.38632 0.61621 0
M  V30 15 N -3.18766 0.612716 0.0301329 0
M  V30 16 C -1.7825 1.26391 -0.109041 0
M  V30 17 C -1.18246 0.604993 -1.19618 0
M  V30 18 C 0.213204 0.542125 -1.2377 0
M  V30 19 C 0.821437 1.18489 -0.127165 0
M  V30 20 C 0.263942 1.8501 0.826646 0
M  V30 21 C -1.22391 1.89978 0.851487 0
M  V30 22 N 2.19895 0.620539 -0.0188556 0
M  V30 23 C 2.39071 -0.760967 -0.211099 0
M  V30 24 O 1.7379 -1.80314 -0.269388 0
M  V30 25 C 3.90818 -1.07191 -0.530737 0
M  V30 26 S 4.78874 0.408446 -0.404066 0
M  V30 27 C 6.52344 0.157063 -0.0441673 0
M  V30 28 N 7.3653 0.972296 -0.67305 0
M  V30 29 C 8.71319 0.693081 -0.62099 0
M  V30 30 N 9.58837 1.69253 -1.08353 0
M  V30 31 C 9.04959 -0.398589 0.092403 0
M  V30 32 C 8.22807 -1.19565 0.762155 0
M  V30 33 C 6.83722 -0.927933 0.719553 0
M  V30 34 C 5.92825 -1.62249 1.55328 0
M  V30 35 N 5.17986 -2.12086 2.28412 0
M  V30 36 C 10.467 -0.834379 -0.119581 0
M  V30 37 N 11.5447 -1.18726 -0.336269 0
M  V30 38 N -8.8212 -2.08438 0.854437 0
M  V30 39 H -7.77493 2.43729 0.655062 0
M  V30 40 H -4.36215 -2.58092 -0.147602 0
M  V30 41 H -3.13076 -2.22117 -1.35391 0
M  V30 42 H -3.89572 1.17201 0.0928489 0
M  V30 43 H -1.82098 0.197464 -1.99256 0
M  V30 44 H 0.747636 0.0518383 -2.00154 0
M  V30 45 H 0.778891 2.35767 1.60838 0
M  V30 46 H -1.71184 2.48193 1.59495 0
M  V30 47 H 2.95702 1.22936 0.249378 0
M  V30 48 H 4.13552 -2.0653 -0.374544 0
M  V30 49 H 3.56743 -1.11081 -1.73883 0
M  V30 50 H 10.487 1.51289 -1.48281 0
M  V30 51 H 9.29058 2.73591 -0.951224 0
M  V30 52 H 8.54139 -2.11101 1.3239 0
M  V30 53 H -8.43246 -2.78296 1.47084 0
M  V30 54 H -9.75789 -2.10468 0.431849 0
M  V30 END ATOM
M  V30 BEGIN BOND
M  V30 1 3 1 2
M  V30 2 1 2 3
M  V30 3 2 3 4
M  V30 4 1 4 5
M  V30 5 1 5 6
M  V30 6 3 6 7
M  V30 7 2 5 8
M  V30 8 1 8 9
M  V30 9 2 9 10
M  V30 10 1 10 11
M  V30 11 1 11 12
M  V30 12 1 12 13
M  V30 13 2 13 14
M  V30 14 1 13 15
M  V30 15 1 15 16
M  V30 16 2 16 17
M  V30 17 1 17 18
M  V30 18 2 18 19
M  V30 19 1 19 20
M  V30 20 2 20 21
M  V30 21 1 19 22
M  V30 22 1 22 23
M  V30 23 2 23 24
M  V30 24 1 23 25
M  V30 25 1 25 26
M  V30 26 1 26 27
M  V30 27 2 27 28
M  V30 28 1 28 29
M  V30 29 1 29 30
M  V30 30 2 29 31
M  V30 31 1 31 32
M  V30 32 2 32 33
M  V30 33 1 33 34
M  V30 34 3 34 35
M  V30 35 1 31 36
M  V30 36 3 36 37
M  V30 37 1 8 38
M  V30 38 1 10 3
M  V30 39 1 21 16
M  V30 40 1 33 27
M  V30 41 1 4 39
M  V30 42 1 12 40
M  V30 43 1 12 41
M  V30 44 1 15 42
M  V30 45 1 17 43
M  V30 46 1 18 44
M  V30 47 1 20 45
M  V30 48 1 21 46
M  V30 49 1 22 47
M  V30 50 1 25 48
M  V30 51 1 25 49
M  V30 52 1 30 50
M  V30 53 1 30 51
M  V30 54 1 32 52
M  V30 55 1 38 53
M  V30 56 1 38 54
M  V30 END BOND
M  V30 END CTAB
M  END
