
     RDKit          3D

  0  0  0  0  0  0  0  0  0  0999 V3000
M  V30 BEGIN CTAB
M  V30 COUNTS 40 41 0 0 0
M  V30 BEGIN ATOM
M  V30 1 C -2.01546 -2.64441 0.329518 0
M  V30 2 C -1.92066 -1.40543 1.18458 0
M  V30 3 N -2.0268 -0.220546 0.361434 0
M  V30 4 C -0.888214 0.400718 -0.191424 0
M  V30 5 O -1.1146 1.47503 -0.857839 0
M  V30 6 C 0.511771 -0.0457521 -0.0897822 0
M  V30 7 S 1.54868 1.4521 -0.18098 0
M  V30 8 C 3.27185 1.06031 -0.0353919 0
M  V30 9 N 3.66171 -0.209958 0.110877 0
M  V30 10 C 4.98057 -0.509758 0.229628 0
M  V30 11 N 5.36441 -1.87742 0.385801 0
M  V30 12 N 5.88778 0.481023 0.198636 0
M  V30 13 C 5.52063 1.76356 0.0524323 0
M  V30 14 N 4.20401 2.01737 -0.0616254 0
M  V30 15 N 6.5332 2.74558 0.0316056 0
M  V30 16 C 0.892858 -0.936704 -1.26112 0
M  V30 17 C -3.35229 0.330809 0.133557 0
M  V30 18 C -3.60822 1.65559 0.459302 0
M  V30 19 C -4.85487 2.20577 0.25343 0
M  V30 20 C -5.8725 1.41825 -0.289764 0
M  V30 21 C -5.64319 0.106983 -0.619243 0
M  V30 22 C -4.36953 -0.408245 -0.394854 0
M  V30 23 H -1.97937 -2.38789 -0.761559 0
M  V30 24 H -2.94391 -3.22238 0.531202 0
M  V30 25 H -1.10587 -3.27687 0.495451 0
M  V30 26 H -0.960185 -1.35166 1.73969 0
M  V30 27 H -2.78701 -1.37965 1.9209 0
M  V30 28 H 0.662499 -0.594796 0.843244 0
M  V30 29 H 5.73987 -2.26787 1.27411 0
M  V30 30 H 5.27347 -2.54264 -0.416807 0
M  V30 31 H 7.01182 2.95705 -0.856105 0
M  V30 32 H 6.79435 3.24679 0.894041 0
M  V30 33 H 1.2066 -0.246947 -2.07996 0
M  V30 34 H 0.070292 -1.52638 -1.63442 0
M  V30 35 H 1.697 -1.61254 -0.908416 0
M  V30 36 H -2.83488 2.27401 0.877832 0
M  V30 37 H -5.08366 3.23311 0.496659 0
M  V30 38 H -6.86852 1.85374 -0.453841 0
M  V30 39 H -6.41595 -0.550623 -1.05084 0
M  V30 40 H -4.18768 -1.45933 -0.659958 0
M  V30 END ATOM
M  V30 BEGIN BOND
M  V30 1 1 1 2
M  V30 2 1 2 3
M  V30 3 1 3 4
M  V30 4 2 4 5
M  V30 5 1 4 6
M  V30 6 1 6 7
M  V30 7 1 7 8
M  V30 8 2 8 9
M  V30 9 1 9 10
M  V30 10 1 10 11
M  V30 11 2 10 12
M  V30 12 1 12 13
M  V30 13 2 13 14
M  V30 14 1 13 15
M  V30 15 1 6 16
M  V30 16 1 3 17
M  V30 17 2 17 18
M  V30 18 1 18 19
M  V30 19 2 19 20
M  V30 20 1 20 21
M  V30 21 2 21 22
M  V30 22 1 14 8
M  V30 23 1 22 17
M  V30 24 1 1 23
M  V30 25 1 1 24
M  V30 26 1 1 25
M  V30 27 1 2 26
M  V30 28 1 2 27
M  V30 29 1 6 28
M  V30 30 1 11 29
M  V30 31 1 11 30
M  V30 32 1 15 31
M  V30 33 1 15 32
M  V30 34 1 16 33
M  V30 35 1 16 34
M  V30 36 1 16 35
M  V30 37 1 18 36
M  V30 38 1 19 37
M  V30 39 1 20 38
M  V30 40 1 21 39
M  V30 41 1 22 40
M  V30 END BOND
M  V30 END CTAB
M  END
