
     RDKit          3D

  0  0  0  0  0  0  0  0  0  0999 V3000
M  V30 BEGIN CTAB
M  V30 COUNTS 54 56 0 0 0
M  V30 BEGIN ATOM
M  V30 1 C 5.18179 0.316678 -0.205545 0 CFG=1
M  V30 2 N 4.85119 -0.973032 0.433045 0
M  V30 3 C 6.38794 0.164505 -1.05398 0
M  V30 4 C 7.65639 -0.232926 -0.399527 0
M  V30 5 S 8.35433 0.861683 0.796458 0
M  V30 6 C 7.36484 0.977443 2.28692 0
M  V30 7 C 4.04057 0.709399 -1.10038 0
M  V30 8 O 4.05624 1.83216 -1.68053 0
M  V30 9 N 2.94533 -0.148389 -1.31124 0
M  V30 10 S 1.64285 0.31346 -2.32574 0
M  V30 11 O 1.60434 -0.623999 -3.495 0
M  V30 12 O 1.80829 1.70096 -2.84737 0
M  V30 13 O 0.192332 0.153083 -1.46516 0
M  V30 14 C -0.000667676 1.25549 -0.640177 0
M  V30 15 C -1.28104 1.04506 0.131054 0 CFG=1
M  V30 16 O -2.39786 0.896983 -0.672269 0
M  V30 17 C -3.2955 0.307286 0.198078 0 CFG=2
M  V30 18 C -2.4677 -0.903349 0.64055 0 CFG=2
M  V30 19 O -3.02882 -1.55637 1.72958 0
M  V30 20 C -1.19529 -0.142886 1.06038 0 CFG=2
M  V30 21 O -1.41324 0.306398 2.35949 0
M  V30 22 N -4.5661 -0.0154896 -0.343456 0
M  V30 23 C -4.95242 -0.798054 -1.34626 0
M  V30 24 N -6.30827 -0.779979 -1.48689 0
M  V30 25 C -6.80225 0.031977 -0.554133 0
M  V30 26 C -5.72904 0.509278 0.158535 0
M  V30 27 N -5.96115 1.36316 1.17543 0
M  V30 28 C -7.22016 1.73188 1.47543 0
M  V30 29 N -8.27147 1.2592 0.771473 0
M  V30 30 C -8.10964 0.401815 -0.257914 0
M  V30 31 N -9.24293 -0.0666625 -0.966098 0
M  V30 32 H 5.23901 1.05362 0.598998 0
M  V30 33 H 4.24227 -0.757438 1.26041 0
M  V30 34 H 5.73911 -1.32489 0.842065 0
M  V30 35 H 6.55903 1.08001 -1.69279 0
M  V30 36 H 6.15866 -0.636172 -1.82718 0
M  V30 37 H 8.43135 -0.351303 -1.23315 0
M  V30 38 H 7.56027 -1.28866 0.0119307 0
M  V30 39 H 6.66692 0.147372 2.46204 0
M  V30 40 H 6.82249 1.95969 2.37232 0
M  V30 41 H 8.05661 0.962911 3.20094 0
M  V30 42 H 2.91293 -1.09746 -0.838067 0
M  V30 43 H -0.0258718 2.19529 -1.22506 0
M  V30 44 H 0.879902 1.32447 0.0290915 0
M  V30 45 H -1.45206 1.98507 0.724542 0
M  V30 46 H -3.35372 0.958334 1.09414 0
M  V30 47 H -2.25981 -1.57443 -0.20021 0
M  V30 48 H -2.72391 -2.50209 1.68874 0
M  V30 49 H -0.289096 -0.740582 0.942682 0
M  V30 50 H -2.01511 -0.277731 2.8754 0
M  V30 51 H -4.27023 -1.37383 -1.96882 0
M  V30 52 H -7.34181 2.42333 2.30428 0
M  V30 53 H -9.19446 -0.390843 -1.95992 0
M  V30 54 H -10.1854 -0.109977 -0.527142 0
M  V30 END ATOM
M  V30 BEGIN BOND
M  V30 1 1 1 2
M  V30 2 1 1 3
M  V30 3 1 3 4
M  V30 4 1 4 5
M  V30 5 1 5 6
M  V30 6 1 1 7
M  V30 7 2 7 8
M  V30 8 1 7 9
M  V30 9 1 9 10
M  V30 10 2 10 11
M  V30 11 2 10 12
M  V30 12 1 10 13
M  V30 13 1 13 14
M  V30 14 1 14 15
M  V30 15 1 15 16
M  V30 16 1 16 17
M  V30 17 1 17 18
M  V30 18 1 18 19
M  V30 19 1 18 20
M  V30 20 1 20 21
M  V30 21 1 17 22
M  V30 22 1 22 23
M  V30 23 2 23 24
M  V30 24 1 24 25
M  V30 25 2 25 26
M  V30 26 1 26 27
M  V30 27 2 27 28
M  V30 28 1 28 29
M  V30 29 2 29 30
M  V30 30 1 30 31
M  V30 31 1 20 15
M  V30 32 1 26 22
M  V30 33 1 30 25
M  V30 34 1 1 32 CFG=1
M  V30 35 1 2 33
M  V30 36 1 2 34
M  V30 37 1 3 35
M  V30 38 1 3 36
M  V30 39 1 4 37
M  V30 40 1 4 38
M  V30 41 1 6 39
M  V30 42 1 6 40
M  V30 43 1 6 41
M  V30 44 1 9 42
M  V30 45 1 14 43
M  V30 46 1 14 44
M  V30 47 1 15 45 CFG=1
M  V30 48 1 17 46 CFG=1
M  V30 49 1 18 47 CFG=3
M  V30 50 1 19 48
M  V30 51 1 20 49 CFG=1
M  V30 52 1 21 50
M  V30 53 1 23 51
M  V30 54 1 28 52
M  V30 55 1 31 53
M  V30 56 1 31 54
M  V30 END BOND
M  V30 END CTAB
M  END
