
     RDKit          3D

  0  0  0  0  0  0  0  0  0  0999 V3000
M  V30 BEGIN CTAB
M  V30 COUNTS 25 25 0 0 0
M  V30 BEGIN ATOM
M  V30 1 C 4.09302 -0.168629 -0.181853 0
M  V30 2 C 3.3529 0.862277 0.603715 0
M  V30 3 O 1.99742 0.970931 0.298637 0
M  V30 4 C 1.09163 -0.0698642 0.433888 0
M  V30 5 O 1.54883 -1.16154 0.858137 0
M  V30 6 C -0.328058 0.0944861 0.0989416 0
M  V30 7 C -1.19261 -0.964204 0.247934 0
M  V30 8 N -0.75834 -2.23451 0.721996 0
M  V30 9 C -2.5511 -0.831456 -0.0650811 0
M  V30 10 C -3.04202 0.375106 -0.531096 0
M  V30 11 N -4.4208 0.528499 -0.854491 0
M  V30 12 C -2.18463 1.44551 -0.685095 0
M  V30 13 C -0.845777 1.27699 -0.36512 0
M  V30 14 H 5.0671 0.302432 -0.506141 0
M  V30 15 H 3.5356 -0.539944 -1.07531 0
M  V30 16 H 4.41478 -1.02757 0.46641 0
M  V30 17 H 3.79972 1.89094 0.471458 0
M  V30 18 H 3.52743 0.640841 1.69778 0
M  V30 19 H -0.118068 -2.86442 0.210297 0
M  V30 20 H -1.0995 -2.58188 1.65983 0
M  V30 21 H -3.24805 -1.64485 0.0428361 0
M  V30 22 H -5.17863 0.588167 -0.139453 0
M  V30 23 H -4.72343 0.588176 -1.86796 0
M  V30 24 H -2.55423 2.40493 -1.05146 0
M  V30 25 H -0.183198 2.11958 -0.488803 0
M  V30 END ATOM
M  V30 BEGIN BOND
M  V30 1 1 1 2
M  V30 2 1 2 3
M  V30 3 1 3 4
M  V30 4 2 4 5
M  V30 5 1 4 6
M  V30 6 2 6 7
M  V30 7 1 7 8
M  V30 8 1 7 9
M  V30 9 2 9 10
M  V30 10 1 10 11
M  V30 11 1 10 12
M  V30 12 2 12 13
M  V30 13 1 13 6
M  V30 14 1 1 14
M  V30 15 1 1 15
M  V30 16 1 1 16
M  V30 17 1 2 17
M  V30 18 1 2 18
M  V30 19 1 8 19
M  V30 20 1 8 20
M  V30 21 1 9 21
M  V30 22 1 11 22
M  V30 23 1 11 23
M  V30 24 1 12 24
M  V30 25 1 13 25
M  V30 END BOND
M  V30 END CTAB
M  END
