
     RDKit          3D

  0  0  0  0  0  0  0  0  0  0999 V3000
M  V30 BEGIN CTAB
M  V30 COUNTS 43 44 0 0 0
M  V30 BEGIN ATOM
M  V30 1 O 0.386047 1.67091 -0.246647 0
M  V30 2 C 1.05805 0.739304 0.324167 0
M  V30 3 N 2.45208 0.789421 0.194172 0
M  V30 4 C 3.41019 -0.103899 0.71899 0
M  V30 5 O 3.08289 -1.09356 1.39446 0
M  V30 6 C 4.82934 0.106231 0.48381 0
M  V30 7 C 5.37447 1.20286 -0.141762 0
M  V30 8 C 6.7433 1.33399 -0.334462 0
M  V30 9 C 7.60699 0.375592 0.0911458 0
M  V30 10 C 7.09471 -0.754397 0.731366 0
M  V30 11 C 5.73805 -0.866347 0.912844 0
M  V30 12 N 9.00436 0.526581 -0.114561 0
M  V30 13 N 0.314832 -0.225853 1.01544 0
M  V30 14 C -1.13749 -0.204449 1.07507 0
M  V30 15 C -1.75393 -0.362343 -0.270994 0
M  V30 16 C -3.26186 -0.345942 -0.181695 0
M  V30 17 C -3.99493 -1.50059 -9.94954e-05 0
M  V30 18 C -5.37846 -1.45478 0.0781479 0
M  V30 19 C -6.05668 -0.261614 -0.0226522 0
M  V30 20 C -5.31662 0.899878 -0.205481 0
M  V30 21 C -3.92227 0.859219 -0.284997 0
M  V30 22 S -7.80904 -0.181126 0.0737637 0
M  V30 23 O -8.25766 1.13176 0.641718 0
M  V30 24 O -8.25851 -1.33571 0.926154 0
M  V30 25 N -8.52413 -0.341923 -1.48512 0
M  V30 26 H 2.80246 1.63669 -0.391441 0
M  V30 27 H 4.73993 1.98971 -0.496127 0
M  V30 28 H 7.11365 2.21447 -0.830698 0
M  V30 29 H 7.80479 -1.50029 1.0592 0
M  V30 30 H 5.37585 -1.74881 1.4094 0
M  V30 31 H 9.40063 0.341277 -1.05126 0
M  V30 32 H 9.57618 0.823978 0.708465 0
M  V30 33 H 0.786302 -1.02924 1.53588 0
M  V30 34 H -1.41762 0.762727 1.56408 0
M  V30 35 H -1.52126 -1.00704 1.76782 0
M  V30 36 H -1.42829 0.401553 -0.989705 0
M  V30 37 H -1.51412 -1.35715 -0.709734 0
M  V30 38 H -3.44323 -2.43118 0.0771423 0
M  V30 39 H -5.94736 -2.3585 0.219986 0
M  V30 40 H -5.80869 1.86035 -0.289885 0
M  V30 41 H -3.33988 1.75818 -0.42708 0
M  V30 42 H -8.40867 -1.32608 -1.81702 0
M  V30 43 H -8.19437 0.366144 -2.1562 0
M  V30 END ATOM
M  V30 BEGIN BOND
M  V30 1 2 1 2
M  V30 2 1 2 3
M  V30 3 1 3 4
M  V30 4 2 4 5
M  V30 5 1 4 6
M  V30 6 2 6 7
M  V30 7 1 7 8
M  V30 8 2 8 9
M  V30 9 1 9 10
M  V30 10 2 10 11
M  V30 11 1 9 12
M  V30 12 1 2 13
M  V30 13 1 13 14
M  V30 14 1 14 15
M  V30 15 1 15 16
M  V30 16 2 16 17
M  V30 17 1 17 18
M  V30 18 2 18 19
M  V30 19 1 19 20
M  V30 20 2 20 21
M  V30 21 1 19 22
M  V30 22 2 22 23
M  V30 23 2 22 24
M  V30 24 1 22 25
M  V30 25 1 11 6
M  V30 26 1 21 16
M  V30 27 1 3 26
M  V30 28 1 7 27
M  V30 29 1 8 28
M  V30 30 1 10 29
M  V30 31 1 11 30
M  V30 32 1 12 31
M  V30 33 1 12 32
M  V30 34 1 13 33
M  V30 35 1 14 34
M  V30 36 1 14 35
M  V30 37 1 15 36
M  V30 38 1 15 37
M  V30 39 1 17 38
M  V30 40 1 18 39
M  V30 41 1 20 40
M  V30 42 1 21 41
M  V30 43 1 25 42
M  V30 44 1 25 43
M  V30 END BOND
M  V30 END CTAB
M  END
