
     RDKit          3D

  0  0  0  0  0  0  0  0  0  0999 V3000
M  V30 BEGIN CTAB
M  V30 COUNTS 46 47 0 0 0
M  V30 BEGIN ATOM
M  V30 1 C -4.66999 -0.463827 -1.48921 0
M  V30 2 C -4.61656 -0.61813 0.015211 0
M  V30 3 C -5.10663 -1.99703 0.415547 0
M  V30 4 C -5.5458 0.39474 0.632 0
M  V30 5 O -3.295 -0.500709 0.508118 0
M  V30 6 C -2.51605 0.635873 0.339923 0
M  V30 7 O -3.0611 1.58276 -0.291138 0
M  V30 8 N -1.19653 0.74964 0.833586 0
M  V30 9 C -0.557221 -0.319331 1.55591 0
M  V30 10 C 0.73252 -0.776918 0.909018 0
M  V30 11 C 1.20355 0.30962 -0.0199753 0
M  V30 12 C 1.01421 1.64598 0.70731 0
M  V30 13 C -0.468991 1.97204 0.607337 0
M  V30 14 C 2.59246 0.14051 -0.45222 0
M  V30 15 C 2.8763 0.0371011 -1.79258 0
M  V30 16 C 4.18477 -0.122007 -2.19581 0
M  V30 17 C 5.22341 -0.180526 -1.28339 0
M  V30 18 N 6.57684 -0.345651 -1.71037 0
M  V30 19 C 4.93271 -0.0759963 0.0642222 0
M  V30 20 N 5.99959 -0.135817 1.00688 0
M  V30 21 C 3.62513 0.0821073 0.450976 0
M  V30 22 H -3.74877 -0.799891 -1.99014 0
M  V30 23 H -5.5119 -1.05969 -1.93828 0
M  V30 24 H -4.91141 0.602589 -1.71329 0
M  V30 25 H -6.21325 -2.06974 0.410687 0
M  V30 26 H -4.68212 -2.19389 1.43651 0
M  V30 27 H -4.64101 -2.77244 -0.241217 0
M  V30 28 H -5.21508 0.603922 1.66312 0
M  V30 29 H -6.56266 -0.0810887 0.726842 0
M  V30 30 H -5.67219 1.2953 0.0148734 0
M  V30 31 H -0.253093 0.118923 2.55168 0
M  V30 32 H -1.24885 -1.1626 1.75113 0
M  V30 33 H 1.50494 -1.02249 1.67916 0
M  V30 34 H 0.523026 -1.73158 0.367893 0
M  V30 35 H 0.514816 0.334061 -0.87728 0
M  V30 36 H 1.27484 1.5252 1.78169 0
M  V30 37 H 1.58765 2.42034 0.192828 0
M  V30 38 H -0.712824 2.34713 -0.408246 0
M  V30 39 H -0.774952 2.69563 1.40419 0
M  V30 40 H 2.08344 0.0782139 -2.55406 0
M  V30 41 H 4.43501 -0.206212 -3.25091 0
M  V30 42 H 7.38935 0.0798631 -1.20882 0
M  V30 43 H 6.70464 -0.934048 -2.57813 0
M  V30 44 H 6.47563 -1.02089 1.28708 0
M  V30 45 H 6.30763 0.776073 1.43104 0
M  V30 46 H 3.41954 0.162895 1.52891 0
M  V30 END ATOM
M  V30 BEGIN BOND
M  V30 1 1 1 2
M  V30 2 1 2 3
M  V30 3 1 2 4
M  V30 4 1 2 5
M  V30 5 1 5 6
M  V30 6 2 6 7
M  V30 7 1 6 8
M  V30 8 1 8 9
M  V30 9 1 9 10
M  V30 10 1 10 11
M  V30 11 1 11 12
M  V30 12 1 12 13
M  V30 13 1 11 14
M  V30 14 2 14 15
M  V30 15 1 15 16
M  V30 16 2 16 17
M  V30 17 1 17 18
M  V30 18 1 17 19
M  V30 19 1 19 20
M  V30 20 2 19 21
M  V30 21 1 13 8
M  V30 22 1 21 14
M  V30 23 1 1 22
M  V30 24 1 1 23
M  V30 25 1 1 24
M  V30 26 1 3 25
M  V30 27 1 3 26
M  V30 28 1 3 27
M  V30 29 1 4 28
M  V30 30 1 4 29
M  V30 31 1 4 30
M  V30 32 1 9 31
M  V30 33 1 9 32
M  V30 34 1 10 33
M  V30 35 1 10 34
M  V30 36 1 11 35
M  V30 37 1 12 36
M  V30 38 1 12 37
M  V30 39 1 13 38
M  V30 40 1 13 39
M  V30 41 1 15 40
M  V30 42 1 16 41
M  V30 43 1 18 42
M  V30 44 1 18 43
M  V30 45 1 20 44
M  V30 46 1 20 45
M  V30 47 1 21 46
M  V30 END BOND
M  V30 END CTAB
M  END
