
     RDKit          3D

  0  0  0  0  0  0  0  0  0  0999 V3000
M  V30 BEGIN CTAB
M  V30 COUNTS 31 32 0 0 0
M  V30 BEGIN ATOM
M  V30 1 N -1.30204 2.59506 -1.53439 0
M  V30 2 C -0.136844 2.0628 -0.927057 0
M  V30 3 C -0.498356 0.845871 -0.0623397 0 CFG=2
M  V30 4 C 0.722872 0.289635 0.573016 0
M  V30 5 C 1.41991 1.0639 1.5025 0
M  V30 6 C 2.55233 0.595356 2.11628 0
M  V30 7 C 3.04368 -0.659246 1.83682 0
M  V30 8 C 2.38028 -1.44539 0.926621 0
M  V30 9 C 1.2387 -0.955889 0.316787 0
M  V30 10 C 0.565675 -1.84982 -0.656749 0
M  V30 11 C -0.24105 -1.00669 -1.58844 0
M  V30 12 N -1.09591 -0.111226 -0.908673 0
M  V30 13 S -2.63437 -0.642277 -0.52059 0
M  V30 14 O -3.1505 -1.5592 -1.59401 0
M  V30 15 O -3.57481 0.556067 -0.51384 0
M  V30 16 N -2.77928 -1.43194 0.991599 0
M  V30 17 H -1.26384 2.96379 -2.42869 0
M  V30 18 H -1.91204 3.04247 -0.886503 0
M  V30 19 H 0.284125 2.86342 -0.27081 0
M  V30 20 H 0.584214 1.79235 -1.70696 0
M  V30 21 H -1.15128 1.19053 0.762927 0
M  V30 22 H 1.07177 2.04963 1.75078 0
M  V30 23 H 3.079 1.2124 2.83518 0
M  V30 24 H 3.95003 -1.03835 2.32599 0
M  V30 25 H 2.76658 -2.42057 0.712738 0
M  V30 26 H 1.33937 -2.38076 -1.26563 0
M  V30 27 H -0.0330029 -2.61299 -0.129685 0
M  V30 28 H 0.486276 -0.401243 -2.20235 0
M  V30 29 H -0.838704 -1.59619 -2.31291 0
M  V30 30 H -2.08065 -2.20559 1.05242 0
M  V30 31 H -2.79215 -0.805905 1.80597 0
M  V30 END ATOM
M  V30 BEGIN BOND
M  V30 1 1 1 2
M  V30 2 1 2 3
M  V30 3 1 3 4
M  V30 4 2 4 5
M  V30 5 1 5 6
M  V30 6 2 6 7
M  V30 7 1 7 8
M  V30 8 2 8 9
M  V30 9 1 9 10
M  V30 10 1 10 11
M  V30 11 1 11 12
M  V30 12 1 12 13
M  V30 13 2 13 14
M  V30 14 2 13 15
M  V30 15 1 13 16
M  V30 16 1 12 3
M  V30 17 1 9 4
M  V30 18 1 1 17
M  V30 19 1 1 18
M  V30 20 1 2 19
M  V30 21 1 2 20
M  V30 22 1 3 21 CFG=1
M  V30 23 1 5 22
M  V30 24 1 6 23
M  V30 25 1 7 24
M  V30 26 1 8 25
M  V30 27 1 10 26
M  V30 28 1 10 27
M  V30 29 1 11 28
M  V30 30 1 11 29
M  V30 31 1 16 30
M  V30 32 1 16 31
M  V30 END BOND
M  V30 END CTAB
M  END
