
     RDKit          3D

  0  0  0  0  0  0  0  0  0  0999 V3000
M  V30 BEGIN CTAB
M  V30 COUNTS 21 21 0 0 0
M  V30 BEGIN ATOM
M  V30 1 N 3.99 -0.180422 -0.59678 0
M  V30 2 N 2.68739 -0.452471 -0.25351 0
M  V30 3 C 1.62544 0.477418 -0.357731 0
M  V30 4 O 1.91097 1.63077 -0.797717 0
M  V30 5 C 0.256199 0.133907 0.0222721 0
M  V30 6 C -0.0947461 -1.04737 0.484271 0
M  V30 7 C -1.54374 -1.02805 0.760007 0
M  V30 8 C -2.02508 -0.0134689 -0.250265 0
M  V30 9 C -0.920895 1.0419 -0.0625431 0
M  V30 10 N -3.32079 0.521662 0.0754647 0
M  V30 11 H 4.2774 0.810007 -0.46859 0
M  V30 12 H 4.6333 -0.749458 -0.00205069 0
M  V30 13 H 2.46391 -1.40922 0.108838 0
M  V30 14 H 0.543926 -1.92382 0.651941 0
M  V30 15 H -2.02188 -2.0185 0.603126 0
M  V30 16 H -1.69035 -0.656374 1.7952 0
M  V30 17 H -1.95901 -0.473422 -1.23913 0
M  V30 18 H -1.13306 1.5634 0.880736 0
M  V30 19 H -0.906043 1.68615 -0.952891 0
M  V30 20 H -3.43488 0.564739 1.11167 0
M  V30 21 H -3.33805 1.52261 -0.265933 0
M  V30 END ATOM
M  V30 BEGIN BOND
M  V30 1 1 1 2
M  V30 2 1 2 3
M  V30 3 2 3 4
M  V30 4 1 3 5
M  V30 5 2 5 6
M  V30 6 1 6 7
M  V30 7 1 7 8
M  V30 8 1 8 9
M  V30 9 1 8 10
M  V30 10 1 9 5
M  V30 11 1 1 11
M  V30 12 1 1 12
M  V30 13 1 2 13
M  V30 14 1 6 14
M  V30 15 1 7 15
M  V30 16 1 7 16
M  V30 17 1 8 17
M  V30 18 1 9 18
M  V30 19 1 9 19
M  V30 20 1 10 20
M  V30 21 1 10 21
M  V30 END BOND
M  V30 END CTAB
M  END
