
     RDKit          3D

  0  0  0  0  0  0  0  0  0  0999 V3000
M  V30 BEGIN CTAB
M  V30 COUNTS 36 37 0 0 0
M  V30 BEGIN ATOM
M  V30 1 C 3.8856 -0.666732 -1.59357 0
M  V30 2 C 3.16164 -0.0284409 -0.460268 0
M  V30 3 C 1.95408 -0.499163 0.0153027 0
M  V30 4 C 1.28361 0.0882879 1.06145 0
M  V30 5 C 1.8568 1.19124 1.6461 0
M  V30 6 C 3.06513 1.6851 1.19127 0
M  V30 7 C 3.72735 1.08564 0.140273 0
M  V30 8 N 4.96369 1.56871 -0.345543 0
M  V30 9 C 0.0166638 -0.443633 1.52543 0
M  V30 10 O 0.141634 -1.84881 1.61501 0
M  V30 11 C -1.13788 -0.157974 0.679176 0
M  V30 12 C -1.18045 0.776451 -0.33213 0
M  V30 13 C -2.32398 0.97233 -1.07802 0
M  V30 14 C -3.47637 0.23325 -0.836237 0
M  V30 15 N -4.66228 0.411378 -1.58324 0
M  V30 16 C -3.43973 -0.707755 0.17927 0
M  V30 17 C -4.67865 -1.51534 0.452991 0
M  V30 18 C -2.29583 -0.877289 0.897381 0
M  V30 19 H 3.44948 -0.367177 -2.56633 0
M  V30 20 H 3.83436 -1.79099 -1.52897 0
M  V30 21 H 4.96276 -0.404475 -1.54532 0
M  V30 22 H 1.54198 -1.37167 -0.478329 0
M  V30 23 H 1.39836 1.71406 2.47303 0
M  V30 24 H 3.50944 2.5538 1.65713 0
M  V30 25 H 5.78589 1.58681 0.270829 0
M  V30 26 H 5.03353 1.90044 -1.31644 0
M  V30 27 H -0.182632 -0.0427084 2.55484 0
M  V30 28 H -0.153938 -2.20212 0.74341 0
M  V30 29 H -0.296335 1.34783 -0.522235 0
M  V30 30 H -2.37098 1.70357 -1.87588 0
M  V30 31 H -4.72006 0.142673 -2.58609 0
M  V30 32 H -5.51056 0.81881 -1.14191 0
M  V30 33 H -4.45684 -2.16064 1.32757 0
M  V30 34 H -4.81381 -2.17717 -0.435904 0
M  V30 35 H -5.5516 -0.881379 0.617025 0
M  V30 36 H -2.32009 -1.63691 1.69181 0
M  V30 END ATOM
M  V30 BEGIN BOND
M  V30 1 1 1 2
M  V30 2 2 2 3
M  V30 3 1 3 4
M  V30 4 2 4 5
M  V30 5 1 5 6
M  V30 6 2 6 7
M  V30 7 1 7 8
M  V30 8 1 4 9
M  V30 9 1 9 10
M  V30 10 1 9 11
M  V30 11 2 11 12
M  V30 12 1 12 13
M  V30 13 2 13 14
M  V30 14 1 14 15
M  V30 15 1 14 16
M  V30 16 1 16 17
M  V30 17 2 16 18
M  V30 18 1 7 2
M  V30 19 1 18 11
M  V30 20 1 1 19
M  V30 21 1 1 20
M  V30 22 1 1 21
M  V30 23 1 3 22
M  V30 24 1 5 23
M  V30 25 1 6 24
M  V30 26 1 8 25
M  V30 27 1 8 26
M  V30 28 1 9 27
M  V30 29 1 10 28
M  V30 30 1 12 29
M  V30 31 1 13 30
M  V30 32 1 15 31
M  V30 33 1 15 32
M  V30 34 1 17 33
M  V30 35 1 17 34
M  V30 36 1 17 35
M  V30 37 1 18 36
M  V30 END BOND
M  V30 END CTAB
M  END
