
     RDKit          3D

  0  0  0  0  0  0  0  0  0  0999 V3000
M  V30 BEGIN CTAB
M  V30 COUNTS 45 48 0 0 0
M  V30 BEGIN ATOM
M  V30 1 N -8.23597 -0.908446 -1.84404 0
M  V30 2 N -7.32716 -0.468888 -0.886055 0
M  V30 3 C -5.94857 -0.562072 -1.1206 0
M  V30 4 O -5.556 -1.05634 -2.22606 0
M  V30 5 C -4.92829 -0.128535 -0.178158 0
M  V30 6 C -5.29036 0.425296 1.0265 0
M  V30 7 C -4.33111 0.85007 1.94976 0
M  V30 8 C -2.98812 0.725277 1.67759 0
M  V30 9 C -2.62008 0.169903 0.469607 0
M  V30 10 C -3.58137 -0.245997 -0.434357 0
M  V30 11 N -1.3213 0.0505556 0.212676 0
M  V30 12 C -0.317207 0.43608 1.05334 0
M  V30 13 N -0.704944 0.965686 2.20109 0
M  V30 14 C -2.02209 1.13046 2.55851 0
M  V30 15 O -2.35279 1.63517 3.6552 0
M  V30 16 N 0.196439 1.44803 3.15696 0
M  V30 17 C 1.06212 0.265986 0.614773 0
M  V30 18 C 1.2744 -0.0632936 -0.744214 0
M  V30 19 C 2.53547 -0.276883 -1.2355 0
M  V30 20 C 3.63382 -0.175669 -0.413638 0
M  V30 21 C 3.48548 0.14061 0.913274 0
M  V30 22 C 2.17911 0.354261 1.39148 0
M  V30 23 C 4.96074 -0.409595 -0.972621 0
M  V30 24 C 6.04379 0.26541 -0.446791 0
M  V30 25 C 7.31194 0.0724541 -0.946116 0
M  V30 26 C 7.48896 -0.811282 -1.98741 0
M  V30 27 C 6.42103 -1.49463 -2.52611 0
M  V30 28 C 5.15957 -1.27579 -1.99891 0
M  V30 29 H -8.55128 -0.14252 -2.48099 0
M  V30 30 H -7.76023 -1.68509 -2.38142 0
M  V30 31 H -7.70271 -0.0743336 -0.00206929 0
M  V30 32 H -6.31125 0.56205 1.32436 0
M  V30 33 H -4.61641 1.28394 2.89346 0
M  V30 34 H -3.30545 -0.683797 -1.38665 0
M  V30 35 H 0.694727 2.35252 3.07261 0
M  V30 36 H 0.367235 0.862599 3.99873 0
M  V30 37 H 0.391815 -0.133104 -1.36227 0
M  V30 38 H 2.65153 -0.527675 -2.28825 0
M  V30 39 H 4.32982 0.227075 1.58268 0
M  V30 40 H 2.11792 0.570568 2.42505 0
M  V30 41 H 5.89776 0.969177 0.383509 0
M  V30 42 H 8.1693 0.611763 -0.524489 0
M  V30 43 H 8.47507 -0.971741 -2.38751 0
M  V30 44 H 6.5789 -2.19155 -3.35141 0
M  V30 45 H 4.34572 -1.81966 -2.43553 0
M  V30 END ATOM
M  V30 BEGIN BOND
M  V30 1 1 1 2
M  V30 2 1 2 3
M  V30 3 2 3 4
M  V30 4 1 3 5
M  V30 5 2 5 6
M  V30 6 1 6 7
M  V30 7 2 7 8
M  V30 8 1 8 9
M  V30 9 2 9 10
M  V30 10 1 9 11
M  V30 11 2 11 12
M  V30 12 1 12 13
M  V30 13 1 13 14
M  V30 14 2 14 15
M  V30 15 1 13 16
M  V30 16 1 12 17
M  V30 17 2 17 18
M  V30 18 1 18 19
M  V30 19 2 19 20
M  V30 20 1 20 21
M  V30 21 2 21 22
M  V30 22 1 20 23
M  V30 23 2 23 24
M  V30 24 1 24 25
M  V30 25 2 25 26
M  V30 26 1 26 27
M  V30 27 2 27 28
M  V30 28 1 10 5
M  V30 29 1 22 17
M  V30 30 1 28 23
M  V30 31 1 14 8
M  V30 32 1 1 29
M  V30 33 1 1 30
M  V30 34 1 2 31
M  V30 35 1 6 32
M  V30 36 1 7 33
M  V30 37 1 10 34
M  V30 38 1 16 35
M  V30 39 1 16 36
M  V30 40 1 18 37
M  V30 41 1 19 38
M  V30 42 1 21 39
M  V30 43 1 22 40
M  V30 44 1 24 41
M  V30 45 1 25 42
M  V30 46 1 26 43
M  V30 47 1 27 44
M  V30 48 1 28 45
M  V30 END BOND
M  V30 END CTAB
M  END
