
     RDKit          3D

  0  0  0  0  0  0  0  0  0  0999 V3000
M  V30 BEGIN CTAB
M  V30 COUNTS 22 23 0 0 0
M  V30 BEGIN ATOM
M  V30 1 N -2.60673 2.62935 -0.554244 0
M  V30 2 C -2.05201 1.36988 -0.218373 0
M  V30 3 N -2.78891 0.313924 0.185593 0
M  V30 4 C -2.23226 -0.879008 0.500538 0
M  V30 5 N -3.02533 -1.98995 0.927349 0
M  V30 6 N -0.896353 -1.0242 0.409769 0
M  V30 7 C -0.0861743 -0.0241037 0.0157486 0
M  V30 8 C -0.677377 1.17012 -0.296081 0
M  V30 9 C 1.33902 -0.246348 -0.0601037 0
M  V30 10 N 1.86127 -1.45996 0.264784 0
M  V30 11 C 3.18044 -1.71403 0.20966 0
M  V30 12 C 4.03365 -0.731849 -0.183137 0
M  V30 13 N 3.56085 0.483138 -0.51349 0
M  V30 14 C 2.23433 0.712053 -0.449779 0
M  V30 15 H -2.87042 3.28353 0.204406 0
M  V30 16 H -2.7649 2.93514 -1.5325 0
M  V30 17 H -3.41131 -2.69409 0.2431 0
M  V30 18 H -3.26714 -2.16957 1.92577 0
M  V30 19 H -0.0987223 1.99964 -0.613383 0
M  V30 20 H 3.58817 -2.69204 0.472823 0
M  V30 21 H 5.10664 -0.957315 -0.22212 0
M  V30 22 H 1.87327 1.6857 -0.716328 0
M  V30 END ATOM
M  V30 BEGIN BOND
M  V30 1 1 1 2
M  V30 2 2 2 3
M  V30 3 1 3 4
M  V30 4 1 4 5
M  V30 5 2 4 6
M  V30 6 1 6 7
M  V30 7 2 7 8
M  V30 8 1 7 9
M  V30 9 2 9 10
M  V30 10 1 10 11
M  V30 11 2 11 12
M  V30 12 1 12 13
M  V30 13 2 13 14
M  V30 14 1 8 2
M  V30 15 1 14 9
M  V30 16 1 1 15
M  V30 17 1 1 16
M  V30 18 1 5 17
M  V30 19 1 5 18
M  V30 20 1 8 19
M  V30 21 1 11 20
M  V30 22 1 12 21
M  V30 23 1 14 22
M  V30 END BOND
M  V30 END CTAB
M  END
