
     RDKit          3D

  0  0  0  0  0  0  0  0  0  0999 V3000
M  V30 BEGIN CTAB
M  V30 COUNTS 24 24 0 0 0
M  V30 BEGIN ATOM
M  V30 1 N 5.47562 -0.56119 0.210118 0
M  V30 2 N 4.11852 -0.297199 0.468382 0
M  V30 3 C 3.24166 0.221046 -0.504656 0
M  V30 4 O 3.65527 0.471511 -1.66536 0
M  V30 5 C 1.82692 0.477186 -0.176171 0
M  V30 6 S 0.792107 -0.989113 -0.448926 0
M  V30 7 C -0.882956 -0.548886 -0.0244367 0
M  V30 8 C -1.4098 -0.68031 1.23329 0
M  V30 9 C -2.72255 -0.330064 1.5256 0
M  V30 10 C -3.54318 0.168073 0.538401 0
M  V30 11 C -3.00537 0.302312 -0.745056 0
M  V30 12 C -1.69644 -0.0502943 -1.02242 0
M  V30 13 N -4.90312 0.544525 0.776396 0
M  V30 14 H 5.84206 -1.20412 0.922756 0
M  V30 15 H 5.97876 0.326329 0.1215 0
M  V30 16 H 3.74459 -0.49316 1.4193 0
M  V30 17 H 1.71145 0.782644 0.884649 0
M  V30 18 H 1.45104 1.26666 -0.836404 0
M  V30 19 H -0.786345 -1.06436 2.01265 0
M  V30 20 H -3.13271 -0.43506 2.51571 0
M  V30 21 H -3.65857 0.69664 -1.52248 0
M  V30 22 H -1.31573 0.0725636 -2.0483 0
M  V30 23 H -5.16608 1.54564 0.924898 0
M  V30 24 H -5.61516 -0.221377 0.79495 0
M  V30 END ATOM
M  V30 BEGIN BOND
M  V30 1 1 1 2
M  V30 2 1 2 3
M  V30 3 2 3 4
M  V30 4 1 3 5
M  V30 5 1 5 6
M  V30 6 1 6 7
M  V30 7 2 7 8
M  V30 8 1 8 9
M  V30 9 2 9 10
M  V30 10 1 10 11
M  V30 11 2 11 12
M  V30 12 1 10 13
M  V30 13 1 12 7
M  V30 14 1 1 14
M  V30 15 1 1 15
M  V30 16 1 2 16
M  V30 17 1 5 17
M  V30 18 1 5 18
M  V30 19 1 8 19
M  V30 20 1 9 20
M  V30 21 1 11 21
M  V30 22 1 12 22
M  V30 23 1 13 23
M  V30 24 1 13 24
M  V30 END BOND
M  V30 END CTAB
M  END
