
     RDKit          3D

  0  0  0  0  0  0  0  0  0  0999 V3000
M  V30 BEGIN CTAB
M  V30 COUNTS 23 23 0 0 0
M  V30 BEGIN ATOM
M  V30 1 O 0.0456683 -3.60414 0.684316 0
M  V30 2 N 0.442018 -2.3539 0.272692 0
M  V30 3 C -0.348293 -1.30646 0.360775 0
M  V30 4 C 0.127642 -0.0047479 -0.0921955 0
M  V30 5 C -0.624787 1.14126 -0.0391268 0
M  V30 6 C -1.99071 1.09985 0.496201 0
M  V30 7 C -0.109796 2.36683 -0.491289 0
M  V30 8 C 1.16404 2.4627 -1.00237 0
M  V30 9 C 1.92443 1.31741 -1.05866 0
M  V30 10 C 1.41547 0.114755 -0.613563 0
M  V30 11 N 2.20798 -1.07752 -0.672543 0
M  V30 12 N -1.6124 -1.58104 0.905254 0
M  V30 13 H -0.00311255 -3.77805 1.68207 0
M  V30 14 H -2.42925 2.13428 0.434531 0
M  V30 15 H -2.65631 0.495408 -0.150585 0
M  V30 16 H -2.07017 0.839932 1.56825 0
M  V30 17 H -0.725045 3.26444 -0.439735 0
M  V30 18 H 1.50827 3.42521 -1.33424 0
M  V30 19 H 2.92097 1.40833 -1.46178 0
M  V30 20 H 2.18089 -1.68332 -1.5106 0
M  V30 21 H 2.80279 -1.32634 0.117281 0
M  V30 22 H -1.71849 -1.50466 1.95976 0
M  V30 23 H -2.4518 -1.85023 0.385556 0
M  V30 END ATOM
M  V30 BEGIN BOND
M  V30 1 1 1 2
M  V30 2 2 2 3
M  V30 3 1 3 4
M  V30 4 2 4 5
M  V30 5 1 5 6
M  V30 6 1 5 7
M  V30 7 2 7 8
M  V30 8 1 8 9
M  V30 9 2 9 10
M  V30 10 1 10 11
M  V30 11 1 3 12
M  V30 12 1 10 4
M  V30 13 1 1 13
M  V30 14 1 6 14
M  V30 15 1 6 15
M  V30 16 1 6 16
M  V30 17 1 7 17
M  V30 18 1 8 18
M  V30 19 1 9 19
M  V30 20 1 11 20
M  V30 21 1 11 21
M  V30 22 1 12 22
M  V30 23 1 12 23
M  V30 END BOND
M  V30 END CTAB
M  END
