
     RDKit          3D

  0  0  0  0  0  0  0  0  0  0999 V3000
M  V30 BEGIN CTAB
M  V30 COUNTS 24 24 0 0 0
M  V30 BEGIN ATOM
M  V30 1 C 3.04026 -0.948212 0.203613 0
M  V30 2 C 2.21243 -0.0213877 1.09873 0
M  V30 3 C 1.96143 1.30949 0.422296 0
M  V30 4 S 1.06571 1.03671 -1.12913 0
M  V30 5 C -0.584562 0.441453 -0.852972 0
M  V30 6 N -0.798258 -0.864939 -0.758225 0
M  V30 7 C -2.04647 -1.36054 -0.561178 0
M  V30 8 N -2.27231 -2.75838 -0.462246 0
M  V30 9 N -3.08716 -0.511688 -0.460221 0
M  V30 10 C -2.86739 0.798113 -0.556468 0
M  V30 11 N -1.64333 1.28761 -0.74975 0
M  V30 12 N -3.94395 1.69804 -0.459498 0
M  V30 13 C 3.22097 1.97587 0.205516 0
M  V30 14 N 4.223 2.52472 0.0296694 0
M  V30 15 H 2.97698 -1.9517 0.67576 0
M  V30 16 H 4.0855 -0.581771 0.0975589 0
M  V30 17 H 2.53141 -1.05009 -0.792961 0
M  V30 18 H 1.25289 -0.547675 1.26309 0
M  V30 19 H 2.76137 0.104748 2.05446 0
M  V30 20 H 1.2659 1.86099 1.1082 0
M  V30 21 H -2.09081 -3.23138 0.432708 0
M  V30 22 H -2.61323 -3.2489 -1.30803 0
M  V30 23 H -4.53804 1.68035 0.388349 0
M  V30 24 H -4.11233 2.35855 -1.24561 0
M  V30 END ATOM
M  V30 BEGIN BOND
M  V30 1 1 1 2
M  V30 2 1 2 3
M  V30 3 1 3 4
M  V30 4 1 4 5
M  V30 5 2 5 6
M  V30 6 1 6 7
M  V30 7 1 7 8
M  V30 8 2 7 9
M  V30 9 1 9 10
M  V30 10 2 10 11
M  V30 11 1 10 12
M  V30 12 1 3 13
M  V30 13 3 13 14
M  V30 14 1 11 5
M  V30 15 1 1 15
M  V30 16 1 1 16
M  V30 17 1 1 17
M  V30 18 1 2 18
M  V30 19 1 2 19
M  V30 20 1 3 20
M  V30 21 1 8 21
M  V30 22 1 8 22
M  V30 23 1 12 23
M  V30 24 1 12 24
M  V30 END BOND
M  V30 END CTAB
M  END
