
     RDKit          3D

  0  0  0  0  0  0  0  0  0  0999 V3000
M  V30 BEGIN CTAB
M  V30 COUNTS 54 56 0 0 0
M  V30 BEGIN ATOM
M  V30 1 C 0.914756 3.0842 3.81826 0
M  V30 2 O 1.15067 2.02761 2.92254 0
M  V30 3 C 0.23828 1.8109 1.89267 0
M  V30 4 C 0.506993 0.746616 1.01765 0
M  V30 5 N 1.66437 -0.0305249 1.23627 0
M  V30 6 C 2.15183 -1.12287 0.487969 0
M  V30 7 O 1.55286 -1.53131 -0.518683 0
M  V30 8 N 3.34456 -1.77551 0.879069 0
M  V30 9 C 3.99548 -2.85689 0.281744 0
M  V30 10 C 4.99357 -3.55451 1.00662 0
M  V30 11 C 5.67537 -4.60977 0.46441 0
M  V30 12 C 5.41608 -5.03397 -0.809195 0
M  V30 13 C 4.45783 -4.37405 -1.52368 0
M  V30 14 C 3.76863 -3.31219 -0.984818 0
M  V30 15 C -0.395232 0.545164 0.0128893 0
M  V30 16 C -1.54082 1.34394 -0.159957 0
M  V30 17 O -2.45172 1.13296 -1.17679 0
M  V30 18 C -2.47625 0.145107 -2.10671 0
M  V30 19 C -2.31997 0.412854 -3.45312 0
M  V30 20 N -2.34869 -0.561442 -4.35083 0
M  V30 21 C -2.53179 -1.83306 -3.95799 0
M  V30 22 N -2.55048 -2.83466 -4.98869 0
M  V30 23 N -2.68816 -2.14662 -2.67251 0
M  V30 24 C -2.66296 -1.16413 -1.73331 0
M  V30 25 N -2.86701 -1.55262 -0.358767 0
M  V30 26 C -1.78361 2.37816 0.70585 0
M  V30 27 C -0.87177 2.57466 1.71302 0
M  V30 28 C -2.96796 3.24515 0.580403 0
M  V30 29 C -2.96631 4.37222 1.58804 0
M  V30 30 C -3.07918 3.86365 -0.795499 0
M  V30 31 H 1.81388 3.25199 4.45127 0
M  V30 32 H 0.0241763 2.81849 4.44154 0
M  V30 33 H 0.709863 4.05709 3.29966 0
M  V30 34 H 2.286 0.214208 2.08288 0
M  V30 35 H 3.82026 -1.37596 1.76745 0
M  V30 36 H 5.2055 -3.2255 2.02016 0
M  V30 37 H 6.44008 -5.13565 1.03289 0
M  V30 38 H 5.95687 -5.88331 -1.26141 0
M  V30 39 H 4.24181 -4.71086 -2.55563 0
M  V30 40 H 3.0444 -2.84914 -1.62018 0
M  V30 41 H -0.261483 -0.226763 -0.704336 0
M  V30 42 H -2.17366 1.44847 -3.73594 0
M  V30 43 H -2.97143 -3.78311 -4.82913 0
M  V30 44 H -2.15144 -2.66348 -5.92627 0
M  V30 45 H -2.61724 -2.51585 -0.0664621 0
M  V30 46 H -3.26049 -0.851493 0.300119 0
M  V30 47 H -1.01247 3.39123 2.43969 0
M  V30 48 H -3.8953 2.65898 0.782387 0
M  V30 49 H -3.97813 4.86525 1.47855 0
M  V30 50 H -2.93449 4.0161 2.6172 0
M  V30 51 H -2.23968 5.15745 1.33323 0
M  V30 52 H -3.4424 4.8902 -0.721572 0
M  V30 53 H -2.10658 3.80822 -1.3474 0
M  V30 54 H -3.8274 3.25439 -1.36662 0
M  V30 END ATOM
M  V30 BEGIN BOND
M  V30 1 1 1 2
M  V30 2 1 2 3
M  V30 3 2 3 4
M  V30 4 1 4 5
M  V30 5 1 5 6
M  V30 6 2 6 7
M  V30 7 1 6 8
M  V30 8 1 8 9
M  V30 9 2 9 10
M  V30 10 1 10 11
M  V30 11 2 11 12
M  V30 12 1 12 13
M  V30 13 2 13 14
M  V30 14 1 4 15
M  V30 15 2 15 16
M  V30 16 1 16 17
M  V30 17 1 17 18
M  V30 18 2 18 19
M  V30 19 1 19 20
M  V30 20 2 20 21
M  V30 21 1 21 22
M  V30 22 1 21 23
M  V30 23 2 23 24
M  V30 24 1 24 25
M  V30 25 1 16 26
M  V30 26 2 26 27
M  V30 27 1 26 28
M  V30 28 1 28 29
M  V30 29 1 28 30
M  V30 30 1 27 3
M  V30 31 1 14 9
M  V30 32 1 24 18
M  V30 33 1 1 31
M  V30 34 1 1 32
M  V30 35 1 1 33
M  V30 36 1 5 34
M  V30 37 1 8 35
M  V30 38 1 10 36
M  V30 39 1 11 37
M  V30 40 1 12 38
M  V30 41 1 13 39
M  V30 42 1 14 40
M  V30 43 1 15 41
M  V30 44 1 19 42
M  V30 45 1 22 43
M  V30 46 1 22 44
M  V30 47 1 25 45
M  V30 48 1 25 46
M  V30 49 1 27 47
M  V30 50 1 28 48
M  V30 51 1 29 49
M  V30 52 1 29 50
M  V30 53 1 29 51
M  V30 54 1 30 52
M  V30 55 1 30 53
M  V30 56 1 30 54
M  V30 END BOND
M  V30 END CTAB
M  END
