
     RDKit          3D

  0  0  0  0  0  0  0  0  0  0999 V3000
M  V30 BEGIN CTAB
M  V30 COUNTS 44 44 0 0 0
M  V30 BEGIN ATOM
M  V30 1 C -4.55012 0.694336 -1.9125 0
M  V30 2 C -4.46273 1.39507 -0.599525 0
M  V30 3 C -3.18161 1.18524 0.138575 0
M  V30 4 C -2.87943 -0.233275 0.477383 0
M  V30 5 C -1.59551 -0.284911 1.19835 0
M  V30 6 O -1.46897 0.314902 2.2953 0
M  V30 7 N -0.456693 -0.995843 0.709803 0
M  V30 8 C 0.79467 -1.04314 1.41753 0
M  V30 9 C 1.91886 -0.483813 0.667765 0
M  V30 10 C 1.84472 0.711776 -0.0376613 0
M  V30 11 C 2.92007 1.21437 -0.733534 0
M  V30 12 C 4.11613 0.551229 -0.759066 0
M  V30 13 C 4.22352 -0.635325 -0.0711564 0
M  V30 14 C 3.1294 -1.13821 0.63168 0
M  V30 15 S 5.5042 1.18836 -1.65021 0
M  V30 16 O 6.3371 0.00812886 -2.09361 0
M  V30 17 O 5.00667 1.89686 -2.87325 0
M  V30 18 N 6.45521 2.20959 -0.648885 0
M  V30 19 C 1.14398 -2.43282 1.88188 0
M  V30 20 N -2.7233 -1.00771 -0.741141 0
M  V30 21 C -3.93659 -0.826295 1.36295 0
M  V30 22 H -3.60844 0.743345 -2.50639 0
M  V30 23 H -4.96556 -0.335067 -1.85356 0
M  V30 24 H -5.30091 1.26445 -2.53617 0
M  V30 25 H -4.54115 2.49583 -0.805678 0
M  V30 26 H -5.36025 1.14155 -0.0102393 0
M  V30 27 H -3.24073 1.75969 1.08596 0
M  V30 28 H -2.35517 1.63421 -0.445001 0
M  V30 29 H -0.570384 -1.49109 -0.201503 0
M  V30 30 H 0.653687 -0.435236 2.35957 0
M  V30 31 H 0.87963 1.21507 0.00239826 0
M  V30 32 H 2.84346 2.14423 -1.27533 0
M  V30 33 H 5.14152 -1.20608 -0.0529131 0
M  V30 34 H 3.27147 -2.08532 1.16114 0
M  V30 35 H 6.03428 3.15651 -0.609613 0
M  V30 36 H 6.52513 1.75522 0.289751 0
M  V30 37 H 1.92988 -2.44813 2.64375 0
M  V30 38 H 0.264022 -2.9778 2.2846 0
M  V30 39 H 1.49457 -3.0591 1.02604 0
M  V30 40 H -2.61876 -2.03006 -0.535868 0
M  V30 41 H -2.00666 -0.632406 -1.36699 0
M  V30 42 H -3.80915 -0.414471 2.39745 0
M  V30 43 H -3.8399 -1.93117 1.43779 0
M  V30 44 H -4.96016 -0.552713 1.05247 0
M  V30 END ATOM
M  V30 BEGIN BOND
M  V30 1 1 1 2
M  V30 2 1 2 3
M  V30 3 1 3 4
M  V30 4 1 4 5
M  V30 5 2 5 6
M  V30 6 1 5 7
M  V30 7 1 7 8
M  V30 8 1 8 9
M  V30 9 2 9 10
M  V30 10 1 10 11
M  V30 11 2 11 12
M  V30 12 1 12 13
M  V30 13 2 13 14
M  V30 14 1 12 15
M  V30 15 2 15 16
M  V30 16 2 15 17
M  V30 17 1 15 18
M  V30 18 1 8 19
M  V30 19 1 4 20
M  V30 20 1 4 21
M  V30 21 1 14 9
M  V30 22 1 1 22
M  V30 23 1 1 23
M  V30 24 1 1 24
M  V30 25 1 2 25
M  V30 26 1 2 26
M  V30 27 1 3 27
M  V30 28 1 3 28
M  V30 29 1 7 29
M  V30 30 1 8 30
M  V30 31 1 10 31
M  V30 32 1 11 32
M  V30 33 1 13 33
M  V30 34 1 14 34
M  V30 35 1 18 35
M  V30 36 1 18 36
M  V30 37 1 19 37
M  V30 38 1 19 38
M  V30 39 1 19 39
M  V30 40 1 20 40
M  V30 41 1 20 41
M  V30 42 1 21 42
M  V30 43 1 21 43
M  V30 44 1 21 44
M  V30 END BOND
M  V30 END CTAB
M  END
