
     RDKit          3D

  0  0  0  0  0  0  0  0  0  0999 V3000
M  V30 BEGIN CTAB
M  V30 COUNTS 38 40 0 0 0
M  V30 BEGIN ATOM
M  V30 1 N -5.11254 -0.0738697 0.41497 0
M  V30 2 C -3.96508 0.182759 -0.46576 0
M  V30 3 C -3.54035 -1.16245 -1.01319 0
M  V30 4 C -2.68763 -1.79468 0.0903338 0
M  V30 5 C -1.3917 -0.992047 0.0810265 0
M  V30 6 N -1.60036 0.395964 0.186419 0
M  V30 7 C -2.91708 0.859761 0.339937 0
M  V30 8 C -0.725133 1.22145 -0.594607 0
M  V30 9 C 0.696439 0.987427 -0.185717 0
M  V30 10 N 1.24913 1.73716 0.801376 0
M  V30 11 C 2.52203 1.54242 1.18213 0
M  V30 12 N 3.153 2.29494 2.20718 0
M  V30 13 C 3.22905 0.547734 0.520397 0
M  V30 14 C 2.67517 -0.221657 -0.486601 0
M  V30 15 N 1.38969 0.0317721 -0.815199 0
M  V30 16 C 3.383 -1.21453 -1.14615 0
M  V30 17 C 4.6888 -1.44602 -0.786762 0
M  V30 18 C 5.24701 -0.68216 0.21673 0
M  V30 19 C 4.56041 0.303699 0.878922 0
M  V30 20 H -4.92164 0.231376 1.39188 0
M  V30 21 H -5.40004 -1.05723 0.415683 0
M  V30 22 H -4.36272 0.792453 -1.29963 0
M  V30 23 H -2.87579 -0.951388 -1.89236 0
M  V30 24 H -4.4032 -1.78064 -1.26701 0
M  V30 25 H -2.48625 -2.85066 -0.100831 0
M  V30 26 H -3.14371 -1.60954 1.09761 0
M  V30 27 H -0.711962 -1.33307 0.896864 0
M  V30 28 H -0.877966 -1.28736 -0.880596 0
M  V30 29 H -2.94193 1.95599 0.0668442 0
M  V30 30 H -3.16657 0.860677 1.4416 0
M  V30 31 H -0.94426 2.27928 -0.3409 0
M  V30 32 H -0.82535 1.10471 -1.67709 0
M  V30 33 H 3.21475 1.84989 3.15729 0
M  V30 34 H 3.55241 3.24848 2.07419 0
M  V30 35 H 2.89602 -1.78134 -1.92353 0
M  V30 36 H 5.28751 -2.22442 -1.28414 0
M  V30 37 H 6.27483 -0.874554 0.489553 0
M  V30 38 H 4.98201 0.909658 1.66543 0
M  V30 END ATOM
M  V30 BEGIN BOND
M  V30 1 1 1 2
M  V30 2 1 2 3
M  V30 3 1 3 4
M  V30 4 1 4 5
M  V30 5 1 5 6
M  V30 6 1 6 7
M  V30 7 1 6 8
M  V30 8 1 8 9
M  V30 9 2 9 10
M  V30 10 1 10 11
M  V30 11 1 11 12
M  V30 12 2 11 13
M  V30 13 1 13 14
M  V30 14 2 14 15
M  V30 15 1 14 16
M  V30 16 2 16 17
M  V30 17 1 17 18
M  V30 18 2 18 19
M  V30 19 1 7 2
M  V30 20 1 15 9
M  V30 21 1 19 13
M  V30 22 1 1 20
M  V30 23 1 1 21
M  V30 24 1 2 22
M  V30 25 1 3 23
M  V30 26 1 3 24
M  V30 27 1 4 25
M  V30 28 1 4 26
M  V30 29 1 5 27
M  V30 30 1 5 28
M  V30 31 1 7 29
M  V30 32 1 7 30
M  V30 33 1 8 31
M  V30 34 1 8 32
M  V30 35 1 12 33
M  V30 36 1 12 34
M  V30 37 1 16 35
M  V30 38 1 17 36
M  V30 39 1 18 37
M  V30 40 1 19 38
M  V30 END BOND
M  V30 END CTAB
M  END
