
     RDKit          3D

  0  0  0  0  0  0  0  0  0  0999 V3000
M  V30 BEGIN CTAB
M  V30 COUNTS 28 28 0 0 0
M  V30 BEGIN ATOM
M  V30 1 C 3.92722 -0.0510255 0.197353 0
M  V30 2 C 3.1224 -0.656604 1.32162 0
M  V30 3 O 1.77782 -0.26444 1.14403 0
M  V30 4 C 1.06036 -0.596771 -0.00981456 0
M  V30 5 O 1.67176 -1.25463 -0.866653 0
M  V30 6 C -0.312397 -0.139557 -0.0801856 0
M  V30 7 C -1.08975 -0.416329 -1.16776 0
M  V30 8 C -0.526433 -1.19693 -2.29809 0
M  V30 9 C -2.42105 0.0231939 -1.24411 0
M  V30 10 C -2.97199 0.748117 -0.21385 0
M  V30 11 C -2.18066 1.0339 0.901197 0
M  V30 12 C -0.873442 0.599157 0.969944 0
M  V30 13 N -0.0569916 0.877556 2.08827 0
M  V30 14 N -4.31372 1.19043 -0.291978 0
M  V30 15 H 3.4033 0.850456 -0.211965 0
M  V30 16 H 4.07974 -0.825886 -0.57169 0
M  V30 17 H 4.94542 0.229143 0.558889 0
M  V30 18 H 3.47576 -0.193688 2.28261 0
M  V30 19 H 3.2827 -1.73216 1.32582 0
M  V30 20 H -1.34387 -1.36834 -3.04363 0
M  V30 21 H 0.328679 -0.685435 -2.78342 0
M  V30 22 H -0.25941 -2.21109 -1.94323 0
M  V30 23 H -2.99456 -0.231432 -2.1452 0
M  V30 24 H -2.62352 1.60698 1.71051 0
M  V30 25 H -0.051828 0.249753 2.91165 0
M  V30 26 H 0.547673 1.71307 2.1005 0
M  V30 27 H -4.58667 1.88154 -1.00647 0
M  V30 28 H -5.01655 0.821027 0.365661 0
M  V30 END ATOM
M  V30 BEGIN BOND
M  V30 1 1 1 2
M  V30 2 1 2 3
M  V30 3 1 3 4
M  V30 4 2 4 5
M  V30 5 1 4 6
M  V30 6 2 6 7
M  V30 7 1 7 8
M  V30 8 1 7 9
M  V30 9 2 9 10
M  V30 10 1 10 11
M  V30 11 2 11 12
M  V30 12 1 12 13
M  V30 13 1 10 14
M  V30 14 1 12 6
M  V30 15 1 1 15
M  V30 16 1 1 16
M  V30 17 1 1 17
M  V30 18 1 2 18
M  V30 19 1 2 19
M  V30 20 1 8 20
M  V30 21 1 8 21
M  V30 22 1 8 22
M  V30 23 1 9 23
M  V30 24 1 11 24
M  V30 25 1 13 25
M  V30 26 1 13 26
M  V30 27 1 14 27
M  V30 28 1 14 28
M  V30 END BOND
M  V30 END CTAB
M  END
