
     RDKit          3D

  0  0  0  0  0  0  0  0  0  0999 V3000
M  V30 BEGIN CTAB
M  V30 COUNTS 34 35 0 0 0
M  V30 BEGIN ATOM
M  V30 1 N -4.8509 1.81455 1.08375 0
M  V30 2 C -3.65608 1.19648 0.630529 0
M  V30 3 C -2.42922 1.79426 0.769045 0
M  V30 4 C -1.26251 1.19271 0.327503 0
M  V30 5 C -1.30677 -0.0396812 -0.269929 0
M  V30 6 C -2.53571 -0.646782 -0.413189 0
M  V30 7 C -3.70538 -0.0573513 0.0223744 0
M  V30 8 C -5.04238 -0.680043 -0.114959 0
M  V30 9 N -0.158831 -0.678975 -0.701574 0
M  V30 10 C 1.17968 -0.519718 -0.282844 0
M  V30 11 C 1.56503 -0.0416958 0.945094 0
M  V30 12 C 2.90445 0.128265 1.31401 0
M  V30 13 C 3.90295 -0.192639 0.421517 0
M  V30 14 C 3.54681 -0.675497 -0.818099 0
M  V30 15 C 2.2281 -0.834242 -1.16011 0
M  V30 16 C 4.62987 -1.02073 -1.77729 0
M  V30 17 N 5.29305 -0.0277332 0.774359 0
M  V30 18 H -5.37169 2.42609 0.42006 0
M  V30 19 H -5.25019 1.70132 2.0401 0
M  V30 20 H -2.39824 2.75886 1.2378 0
M  V30 21 H -0.365089 1.77664 0.481713 0
M  V30 22 H -2.64488 -1.63338 -0.88289 0
M  V30 23 H -5.72457 -0.0207475 -0.722667 0
M  V30 24 H -5.459 -0.858412 0.903855 0
M  V30 25 H -4.95913 -1.63645 -0.695715 0
M  V30 26 H -0.292903 -1.41254 -1.47457 0
M  V30 27 H 0.803329 0.200277 1.67655 0
M  V30 28 H 3.15687 0.515676 2.31046 0
M  V30 29 H 1.94071 -1.21851 -2.14689 0
M  V30 30 H 4.92054 -2.07121 -1.57886 0
M  V30 31 H 4.23373 -0.973498 -2.8343 0
M  V30 32 H 5.48435 -0.332454 -1.70304 0
M  V30 33 H 5.96694 0.435449 0.125781 0
M  V30 34 H 5.65707 -0.368279 1.68742 0
M  V30 END ATOM
M  V30 BEGIN BOND
M  V30 1 1 1 2
M  V30 2 2 2 3
M  V30 3 1 3 4
M  V30 4 2 4 5
M  V30 5 1 5 6
M  V30 6 2 6 7
M  V30 7 1 7 8
M  V30 8 1 5 9
M  V30 9 1 9 10
M  V30 10 2 10 11
M  V30 11 1 11 12
M  V30 12 2 12 13
M  V30 13 1 13 14
M  V30 14 2 14 15
M  V30 15 1 14 16
M  V30 16 1 13 17
M  V30 17 1 7 2
M  V30 18 1 15 10
M  V30 19 1 1 18
M  V30 20 1 1 19
M  V30 21 1 3 20
M  V30 22 1 4 21
M  V30 23 1 6 22
M  V30 24 1 8 23
M  V30 25 1 8 24
M  V30 26 1 8 25
M  V30 27 1 9 26
M  V30 28 1 11 27
M  V30 29 1 12 28
M  V30 30 1 15 29
M  V30 31 1 16 30
M  V30 32 1 16 31
M  V30 33 1 16 32
M  V30 34 1 17 33
M  V30 35 1 17 34
M  V30 END BOND
M  V30 END CTAB
M  END
