
     RDKit          3D

  0  0  0  0  0  0  0  0  0  0999 V3000
M  V30 BEGIN CTAB
M  V30 COUNTS 32 33 0 0 0
M  V30 BEGIN ATOM
M  V30 1 O 0.763657 0.499262 1.1911 0
M  V30 2 C 0.887189 -0.526659 0.506867 0
M  V30 3 N 2.10997 -0.917873 -0.0514938 0
M  V30 4 C 3.34551 -0.261248 0.0475989 0
M  V30 5 C 3.4915 0.995438 0.514654 0
M  V30 6 C 4.75869 1.57518 0.598074 0
M  V30 7 C 5.85351 0.872534 0.206972 0
M  V30 8 C 5.70324 -0.410817 -0.270362 0
M  V30 9 C 4.4624 -0.969773 -0.348447 0
M  V30 10 F 7.08043 1.42243 0.283356 0
M  V30 11 C -0.34403 -1.37354 0.279326 0
M  V30 12 O -1.42984 -0.778673 0.92881 0
M  V30 13 N -2.67732 -1.34301 0.887994 0
M  V30 14 C -3.61835 -0.687036 0.29625 0
M  V30 15 C -3.4033 0.613114 -0.320512 0
M  V30 16 N -2.28641 1.35111 -0.404675 0
M  V30 17 O -2.5453 2.4649 -1.05146 0
M  V30 18 N -3.81301 2.48923 -1.40294 0
M  V30 19 C -4.3795 1.34368 -0.960307 0
M  V30 20 N -5.73653 0.949996 -1.11891 0
M  V30 21 N -4.89445 -1.31215 0.279287 0
M  V30 22 H 2.06106 -1.83855 -0.624336 0
M  V30 23 H 2.69046 1.61966 0.832213 0
M  V30 24 H 4.85777 2.58869 0.977218 0
M  V30 25 H 6.57156 -1.00048 -0.593199 0
M  V30 26 H 4.39139 -1.98227 -0.730137 0
M  V30 27 H -0.171876 -2.36981 0.761773 0
M  V30 28 H -0.513586 -1.54426 -0.78989 0
M  V30 29 H -6.17424 0.846505 -2.08236 0
M  V30 30 H -6.34652 0.750604 -0.31868 0
M  V30 31 H -5.35106 -1.49645 1.19165 0
M  V30 32 H -5.343 -1.56973 -0.609806 0
M  V30 END ATOM
M  V30 BEGIN BOND
M  V30 1 2 1 2
M  V30 2 1 2 3
M  V30 3 1 3 4
M  V30 4 2 4 5
M  V30 5 1 5 6
M  V30 6 2 6 7
M  V30 7 1 7 8
M  V30 8 2 8 9
M  V30 9 1 7 10
M  V30 10 1 2 11
M  V30 11 1 11 12
M  V30 12 1 12 13
M  V30 13 2 13 14
M  V30 14 1 14 15
M  V30 15 2 15 16
M  V30 16 1 16 17
M  V30 17 1 17 18
M  V30 18 2 18 19
M  V30 19 1 19 20
M  V30 20 1 14 21
M  V30 21 1 9 4
M  V30 22 1 19 15
M  V30 23 1 3 22
M  V30 24 1 5 23
M  V30 25 1 6 24
M  V30 26 1 8 25
M  V30 27 1 9 26
M  V30 28 1 11 27
M  V30 29 1 11 28
M  V30 30 1 20 29
M  V30 31 1 20 30
M  V30 32 1 21 31
M  V30 33 1 21 32
M  V30 END BOND
M  V30 END CTAB
M  END
