
     RDKit          3D

  0  0  0  0  0  0  0  0  0  0999 V3000
M  V30 BEGIN CTAB
M  V30 COUNTS 53 56 0 0 0
M  V30 BEGIN ATOM
M  V30 1 C -6.91806 4.03087 0.880509 0
M  V30 2 C -5.90162 2.93249 1.00873 0
M  V30 3 O -5.36835 2.57106 -0.258879 0
M  V30 4 C -4.40282 1.56186 -0.342443 0
M  V30 5 C -3.87121 1.19438 -1.56027 0
M  V30 6 C -2.91438 0.194004 -1.64069 0
M  V30 7 C -2.47828 -0.449291 -0.511428 0
M  V30 8 C -2.99888 -0.0939777 0.707799 0
M  V30 9 C -3.9588 0.909808 0.788801 0
M  V30 10 N -1.50254 -1.46801 -0.591915 0
M  V30 11 C -0.332958 -1.43872 -1.22719 0
M  V30 12 S 0.266328 -0.0305058 -2.15919 0
M  V30 13 C 1.90177 -0.377613 -2.87021 0
M  V30 14 C 2.92671 -0.527854 -1.80184 0
M  V30 15 O 4.11344 -0.76995 -2.13124 0
M  V30 16 O 2.64506 -0.415463 -0.463024 0
M  V30 17 C 3.52298 -0.536079 0.605694 0
M  V30 18 C 4.63737 0.42718 0.628271 0
M  V30 19 N 4.5361 1.69661 1.07718 0
M  V30 20 C 5.60749 2.53085 1.07362 0
M  V30 21 N 5.5145 3.87008 1.54227 0
M  V30 22 N 6.80717 2.11322 0.620089 0
M  V30 23 C 6.91319 0.849127 0.171855 0
M  V30 24 N 5.84211 0.0335619 0.181455 0
M  V30 25 N 8.17684 0.404747 -0.306762 0
M  V30 26 N 0.32542 -2.61599 -1.06819 0
M  V30 27 C -0.433793 -3.41954 -0.316364 0
M  V30 28 C -1.57426 -2.70388 -0.018987 0
M  V30 29 C -2.53239 -3.31617 0.755846 0
M  V30 30 C -2.36153 -4.60307 1.22137 0
M  V30 31 C -1.21249 -5.31068 0.915757 0
M  V30 32 C -0.254641 -4.71084 0.146719 0
M  V30 33 H -7.42825 4.10719 1.88374 0
M  V30 34 H -7.6557 3.78357 0.0936234 0
M  V30 35 H -6.42222 4.9854 0.629488 0
M  V30 36 H -5.0801 3.29366 1.64019 0
M  V30 37 H -6.39693 2.05594 1.47548 0
M  V30 38 H -4.19788 1.6859 -2.46495 0
M  V30 39 H -2.52559 -0.0624841 -2.6114 0
M  V30 40 H -2.70456 -0.554244 1.63812 0
M  V30 41 H -4.37606 1.19971 1.73556 0
M  V30 42 H 1.81158 -1.26523 -3.50038 0
M  V30 43 H 2.17345 0.470663 -3.53016 0
M  V30 44 H 3.93871 -1.5564 0.735667 0
M  V30 45 H 2.92754 -0.346441 1.54501 0
M  V30 46 H 5.1917 4.01152 2.51912 0
M  V30 47 H 5.74997 4.70562 0.964336 0
M  V30 48 H 8.38336 -0.626435 -0.274442 0
M  V30 49 H 8.90616 1.02029 -0.683704 0
M  V30 50 H -3.42432 -2.74632 0.983651 0
M  V30 51 H -3.11613 -5.07881 1.82909 0
M  V30 52 H -1.10938 -6.33571 1.30418 0
M  V30 53 H 0.635189 -5.27958 -0.0816054 0
M  V30 END ATOM
M  V30 BEGIN BOND
M  V30 1 1 1 2
M  V30 2 1 2 3
M  V30 3 1 3 4
M  V30 4 2 4 5
M  V30 5 1 5 6
M  V30 6 2 6 7
M  V30 7 1 7 8
M  V30 8 2 8 9
M  V30 9 1 7 10
M  V30 10 1 10 11
M  V30 11 1 11 12
M  V30 12 1 12 13
M  V30 13 1 13 14
M  V30 14 2 14 15
M  V30 15 1 14 16
M  V30 16 1 16 17
M  V30 17 1 17 18
M  V30 18 2 18 19
M  V30 19 1 19 20
M  V30 20 1 20 21
M  V30 21 2 20 22
M  V30 22 1 22 23
M  V30 23 2 23 24
M  V30 24 1 23 25
M  V30 25 2 11 26
M  V30 26 1 26 27
M  V30 27 2 27 28
M  V30 28 1 28 29
M  V30 29 2 29 30
M  V30 30 1 30 31
M  V30 31 2 31 32
M  V30 32 1 9 4
M  V30 33 1 28 10
M  V30 34 1 24 18
M  V30 35 1 32 27
M  V30 36 1 1 33
M  V30 37 1 1 34
M  V30 38 1 1 35
M  V30 39 1 2 36
M  V30 40 1 2 37
M  V30 41 1 5 38
M  V30 42 1 6 39
M  V30 43 1 8 40
M  V30 44 1 9 41
M  V30 45 1 13 42
M  V30 46 1 13 43
M  V30 47 1 17 44
M  V30 48 1 17 45
M  V30 49 1 21 46
M  V30 50 1 21 47
M  V30 51 1 25 48
M  V30 52 1 25 49
M  V30 53 1 29 50
M  V30 54 1 30 51
M  V30 55 1 31 52
M  V30 56 1 32 53
M  V30 END BOND
M  V30 END CTAB
M  END
