
     RDKit          3D

  0  0  0  0  0  0  0  0  0  0999 V3000
M  V30 BEGIN CTAB
M  V30 COUNTS 24 23 0 0 0
M  V30 BEGIN ATOM
M  V30 1 H 2.47462 -0.0929182 1.68485 0 MASS=2
M  V30 2 C 2.73076 -0.193567 0.63132 0
M  V30 3 H 2.89998 -1.29742 0.457415 0 MASS=2
M  V30 4 N 3.8988 0.493368 0.263777 0
M  V30 5 C 1.61283 0.198951 -0.302213 0
M  V30 6 C 0.311718 -0.495648 0.0211706 0
M  V30 7 C -0.709779 -0.0104897 -0.986712 0
M  V30 8 C -2.06444 -0.633006 -0.773256 0
M  V30 9 C -2.63406 -0.32966 0.582043 0
M  V30 10 H -2.00521 -0.708834 1.39601 0 MASS=2
M  V30 11 H -3.62658 -0.844863 0.635972 0 MASS=2
M  V30 12 N -2.7647 1.10354 0.711837 0
M  V30 13 H 4.42542 0.181605 -0.539672 0
M  V30 14 H 4.03257 1.44675 0.596783 0
M  V30 15 H 1.43075 1.28767 -0.188659 0
M  V30 16 H 1.87565 -0.0855409 -1.34126 0
M  V30 17 H -0.0439363 -0.280355 1.03614 0
M  V30 18 H 0.42075 -1.58976 -0.0699452 0
M  V30 19 H -0.774154 1.0948 -0.981455 0
M  V30 20 H -0.386187 -0.286998 -2.02043 0
M  V30 21 H -2.02882 -1.71019 -0.936676 0
M  V30 22 H -2.7475 -0.187453 -1.52646 0
M  V30 23 H -3.31438 1.5417 -0.0306993 0
M  V30 24 H -3.0141 1.39832 1.68012 0
M  V30 END ATOM
M  V30 BEGIN BOND
M  V30 1 1 1 2
M  V30 2 1 2 3
M  V30 3 1 2 4
M  V30 4 1 2 5
M  V30 5 1 5 6
M  V30 6 1 6 7
M  V30 7 1 7 8
M  V30 8 1 8 9
M  V30 9 1 9 10
M  V30 10 1 9 11
M  V30 11 1 9 12
M  V30 12 1 4 13
M  V30 13 1 4 14
M  V30 14 1 5 15
M  V30 15 1 5 16
M  V30 16 1 6 17
M  V30 17 1 6 18
M  V30 18 1 7 19
M  V30 19 1 7 20
M  V30 20 1 8 21
M  V30 21 1 8 22
M  V30 22 1 12 23
M  V30 23 1 12 24
M  V30 END BOND
M  V30 END CTAB
M  END
