
     RDKit          3D

  0  0  0  0  0  0  0  0  0  0999 V3000
M  V30 BEGIN CTAB
M  V30 COUNTS 22 23 0 0 0
M  V30 BEGIN ATOM
M  V30 1 N -3.12732 0.485473 -0.175921 0
M  V30 2 C -1.77919 0.325621 0.0313215 0 CFG=1
M  V30 3 C -1.42737 -0.869333 0.843942 0
M  V30 4 C -0.0506341 -1.37785 0.785342 0
M  V30 5 C 0.915653 -0.391976 0.161898 0
M  V30 6 C 0.426427 0.37401 -0.866203 0
M  V30 7 C -1.00395 0.191501 -1.28886 0
M  V30 8 S 1.77951 1.31576 -1.2746 0
M  V30 9 C 2.88374 0.694415 -0.130425 0
M  V30 10 N 4.26295 1.05147 0.0950458 0
M  V30 11 N 2.15577 -0.206033 0.507497 0
M  V30 12 H -3.63377 -0.250644 -0.518263 0
M  V30 13 H -3.50267 1.36104 -0.0158075 0
M  V30 14 H -1.33343 1.22367 0.551994 0
M  V30 15 H -1.77091 -0.694861 1.90581 0
M  V30 16 H -2.12892 -1.69038 0.498781 0
M  V30 17 H 0.265037 -1.67814 1.80294 0
M  V30 18 H 0.0642726 -2.31081 0.158951 0
M  V30 19 H -1.11843 -0.856938 -1.63156 0
M  V30 20 H -1.3059 0.946445 -2.01079 0
M  V30 21 H 4.94207 0.290706 0.256438 0
M  V30 22 H 4.48707 2.06683 0.0801898 0
M  V30 END ATOM
M  V30 BEGIN BOND
M  V30 1 1 1 2
M  V30 2 1 2 3
M  V30 3 1 3 4
M  V30 4 1 4 5
M  V30 5 2 5 6
M  V30 6 1 6 7
M  V30 7 1 6 8
M  V30 8 1 8 9
M  V30 9 1 9 10
M  V30 10 2 9 11
M  V30 11 1 7 2
M  V30 12 1 11 5
M  V30 13 1 1 12
M  V30 14 1 1 13
M  V30 15 1 2 14 CFG=1
M  V30 16 1 3 15
M  V30 17 1 3 16
M  V30 18 1 4 17
M  V30 19 1 4 18
M  V30 20 1 7 19
M  V30 21 1 7 20
M  V30 22 1 10 21
M  V30 23 1 10 22
M  V30 END BOND
M  V30 END CTAB
M  END
