
     RDKit          3D

  0  0  0  0  0  0  0  0  0  0999 V3000
M  V30 BEGIN CTAB
M  V30 COUNTS 35 36 0 0 0
M  V30 BEGIN ATOM
M  V30 1 N -4.76462 0.316628 1.27888 0
M  V30 2 C -3.97647 -0.597282 0.471242 0
M  V30 3 C -2.58864 -0.0312589 0.371779 0
M  V30 4 C -2.58349 1.32826 -0.268896 0
M  V30 5 C -1.70216 1.3713 -1.49682 0
M  V30 6 C -0.263865 0.983592 -1.11471 0
M  V30 7 N -0.312668 -0.276347 -0.462274 0
M  V30 8 C -1.66466 -0.902897 -0.443398 0
M  V30 9 C 0.749344 -0.949945 0.134649 0
M  V30 10 O 0.44332 -2.11974 0.686372 0
M  V30 11 C 2.12492 -0.62813 0.274321 0
M  V30 12 C 3.00525 -1.49728 0.957311 0
M  V30 13 C 4.33344 -1.21587 1.1035 0
M  V30 14 C 4.90122 -0.0680981 0.59556 0
M  V30 15 N 4.06284 0.751757 -0.0505745 0
M  V30 16 C 2.7325 0.498056 -0.212707 0
M  V30 17 N 6.27722 0.231078 0.742829 0
M  V30 18 H -5.25721 -0.198436 2.06335 0
M  V30 19 H -5.43831 0.868359 0.732983 0
M  V30 20 H -4.48616 -0.664676 -0.510702 0
M  V30 21 H -3.96585 -1.62379 0.885425 0
M  V30 22 H -2.20981 0.0736249 1.40601 0
M  V30 23 H -2.17878 2.05582 0.459375 0
M  V30 24 H -3.63385 1.56113 -0.553708 0
M  V30 25 H -1.70119 2.42494 -1.84918 0
M  V30 26 H -2.12236 0.758276 -2.2839 0
M  V30 27 H 0.0689711 1.8336 -0.464376 0
M  V30 28 H 0.376417 1.03227 -2.02566 0
M  V30 29 H -2.04418 -1.08245 -1.45539 0
M  V30 30 H -1.57866 -1.88182 0.0652615 0
M  V30 31 H 2.603 -2.3911 1.36225 0
M  V30 32 H 5.01972 -1.89033 1.63422 0
M  V30 33 H 2.22485 1.24983 -0.748775 0
M  V30 34 H 6.7517 0.0618601 1.63882 0
M  V30 35 H 6.79821 0.619069 -0.0538554 0
M  V30 END ATOM
M  V30 BEGIN BOND
M  V30 1 1 1 2
M  V30 2 1 2 3
M  V30 3 1 3 4
M  V30 4 1 4 5
M  V30 5 1 5 6
M  V30 6 1 6 7
M  V30 7 1 7 8
M  V30 8 1 7 9
M  V30 9 2 9 10
M  V30 10 1 9 11
M  V30 11 2 11 12
M  V30 12 1 12 13
M  V30 13 2 13 14
M  V30 14 1 14 15
M  V30 15 2 15 16
M  V30 16 1 14 17
M  V30 17 1 8 3
M  V30 18 1 16 11
M  V30 19 1 1 18
M  V30 20 1 1 19
M  V30 21 1 2 20
M  V30 22 1 2 21
M  V30 23 1 3 22
M  V30 24 1 4 23
M  V30 25 1 4 24
M  V30 26 1 5 25
M  V30 27 1 5 26
M  V30 28 1 6 27
M  V30 29 1 6 28
M  V30 30 1 8 29
M  V30 31 1 8 30
M  V30 32 1 12 31
M  V30 33 1 13 32
M  V30 34 1 16 33
M  V30 35 1 17 34
M  V30 36 1 17 35
M  V30 END BOND
M  V30 END CTAB
M  END
