
     RDKit          3D

  0  0  0  0  0  0  0  0  0  0999 V3000
M  V30 BEGIN CTAB
M  V30 COUNTS 20 21 0 0 0
M  V30 BEGIN ATOM
M  V30 1 N 4.67012 -0.127357 0.300376 0
M  V30 2 C 3.27114 -0.34012 0.140426 0
M  V30 3 N 2.75832 -1.53755 -0.181151 0
M  V30 4 C 1.40645 -1.34581 -0.242376 0
M  V30 5 N 1.08738 -0.0847043 0.0287612 0
M  V30 6 N 2.26151 0.524465 0.264146 0
M  V30 7 C -0.194413 0.536242 0.0739241 0
M  V30 8 O -0.231501 1.78903 0.365232 0
M  V30 9 C -1.43725 -0.150456 -0.184947 0
M  V30 10 N -1.67991 -1.42761 -0.503959 0
M  V30 11 N -2.98201 -1.62362 -0.652228 0
M  V30 12 N -3.62774 -0.491122 -0.436942 0
M  V30 13 C -2.69279 0.433075 -0.146472 0
M  V30 14 N -2.9569 1.78604 0.150561 0
M  V30 15 H 5.3934 -0.505684 -0.34507 0
M  V30 16 H 5.04111 0.446427 1.11423 0
M  V30 17 H 0.739181 -2.16174 -0.486493 0
M  V30 18 H -4.6593 -0.304895 -0.474184 0
M  V30 19 H -2.47474 2.57364 -0.293617 0
M  V30 20 H -3.69207 2.01175 0.870779 0
M  V30 END ATOM
M  V30 BEGIN BOND
M  V30 1 1 1 2
M  V30 2 1 2 3
M  V30 3 2 3 4
M  V30 4 1 4 5
M  V30 5 1 5 6
M  V30 6 1 5 7
M  V30 7 2 7 8
M  V30 8 1 7 9
M  V30 9 1 9 10
M  V30 10 2 10 11
M  V30 11 1 11 12
M  V30 12 1 12 13
M  V30 13 1 13 14
M  V30 14 2 6 2
M  V30 15 2 13 9
M  V30 16 1 1 15
M  V30 17 1 1 16
M  V30 18 1 4 17
M  V30 19 1 12 18
M  V30 20 1 14 19
M  V30 21 1 14 20
M  V30 END BOND
M  V30 END CTAB
M  END
