
     RDKit          3D

  0  0  0  0  0  0  0  0  0  0999 V3000
M  V30 BEGIN CTAB
M  V30 COUNTS 45 47 0 0 0
M  V30 BEGIN ATOM
M  V30 1 O 0.761078 -3.05307 2.025 0
M  V30 2 C 0.645449 -1.98196 1.39497 0
M  V30 3 N -0.563154 -1.47131 0.925814 0
M  V30 4 C -1.82366 -2.09367 1.10439 0
M  V30 5 C -2.08972 -3.16143 1.9202 0
M  V30 6 C -3.39388 -3.63863 2.04974 0
M  V30 7 C -4.42331 -3.05058 1.36783 0
M  V30 8 C -4.1684 -1.98329 0.549587 0
M  V30 9 C -2.88894 -1.48082 0.393053 0
M  V30 10 N -2.64684 -0.407478 -0.496205 0
M  V30 11 C -2.03754 -0.580478 -1.78796 0
M  V30 12 C -2.34707 0.684425 -2.62035 0
M  V30 13 O -3.63853 1.09269 -2.43435 0
M  V30 14 C -4.03261 1.40381 -1.16936 0
M  V30 15 C -2.99763 0.946731 -0.167171 0
M  V30 16 C 1.93545 -1.20436 1.13873 0
M  V30 17 S 1.54426 0.30816 0.218837 0
M  V30 18 C 3.06303 1.20078 -0.0746065 0
M  V30 19 N 3.78297 0.96111 -1.1799 0
M  V30 20 C 4.93493 1.59412 -1.46519 0
M  V30 21 N 5.6914 1.33516 -2.6337 0
M  V30 22 C 5.37872 2.53426 -0.559312 0
M  V30 23 C 4.66348 2.81284 0.597765 0
M  V30 24 N 3.52129 2.1154 0.77896 0
M  V30 25 N 5.11397 3.77559 1.53103 0
M  V30 26 H -0.498837 -0.532572 0.417297 0
M  V30 27 H -1.29555 -3.63652 2.47536 0
M  V30 28 H -3.53964 -4.49733 2.71844 0
M  V30 29 H -5.42801 -3.40594 1.45867 0
M  V30 30 H -4.95366 -1.47267 -0.0210709 0
M  V30 31 H -0.97164 -0.724473 -1.82825 0
M  V30 32 H -2.60924 -1.3856 -2.34762 0
M  V30 33 H -2.23514 0.385711 -3.68246 0
M  V30 34 H -1.60184 1.47092 -2.43433 0
M  V30 35 H -4.26395 2.48335 -1.03896 0
M  V30 36 H -4.97982 0.862533 -0.881206 0
M  V30 37 H -2.08802 1.61706 -0.232733 0
M  V30 38 H -3.34941 1.07422 0.871448 0
M  V30 39 H 2.36987 -0.964875 2.14452 0
M  V30 40 H 2.66749 -1.82276 0.616481 0
M  V30 41 H 5.88301 2.12895 -3.27623 0
M  V30 42 H 6.05152 0.388637 -2.85843 0
M  V30 43 H 6.30303 3.10978 -0.689692 0
M  V30 44 H 5.3449 3.49573 2.48562 0
M  V30 45 H 5.21022 4.76785 1.24663 0
M  V30 END ATOM
M  V30 BEGIN BOND
M  V30 1 2 1 2
M  V30 2 1 2 3
M  V30 3 1 3 4
M  V30 4 2 4 5
M  V30 5 1 5 6
M  V30 6 2 6 7
M  V30 7 1 7 8
M  V30 8 2 8 9
M  V30 9 1 9 10
M  V30 10 1 10 11
M  V30 11 1 11 12
M  V30 12 1 12 13
M  V30 13 1 13 14
M  V30 14 1 14 15
M  V30 15 1 2 16
M  V30 16 1 16 17
M  V30 17 1 17 18
M  V30 18 2 18 19
M  V30 19 1 19 20
M  V30 20 1 20 21
M  V30 21 2 20 22
M  V30 22 1 22 23
M  V30 23 2 23 24
M  V30 24 1 23 25
M  V30 25 1 9 4
M  V30 26 1 15 10
M  V30 27 1 24 18
M  V30 28 1 3 26
M  V30 29 1 5 27
M  V30 30 1 6 28
M  V30 31 1 7 29
M  V30 32 1 8 30
M  V30 33 1 11 31
M  V30 34 1 11 32
M  V30 35 1 12 33
M  V30 36 1 12 34
M  V30 37 1 14 35
M  V30 38 1 14 36
M  V30 39 1 15 37
M  V30 40 1 15 38
M  V30 41 1 16 39
M  V30 42 1 16 40
M  V30 43 1 21 41
M  V30 44 1 21 42
M  V30 45 1 22 43
M  V30 46 1 25 44
M  V30 47 1 25 45
M  V30 END BOND
M  V30 END CTAB
M  END
