
     RDKit          3D

  0  0  0  0  0  0  0  0  0  0999 V3000
M  V30 BEGIN CTAB
M  V30 COUNTS 30 30 0 0 0
M  V30 BEGIN ATOM
M  V30 1 Cl 3.38578 2.32272 2.06402 0
M  V30 2 C 2.85452 1.05999 0.983949 0
M  V30 3 C 3.80068 0.220755 0.44842 0
M  V30 4 N 3.37124 -0.739419 -0.376526 0
M  V30 5 C 2.0737 -0.898063 -0.685074 0
M  V30 6 C 1.08265 -0.0673233 -0.162102 0
M  V30 7 C 1.49482 0.924195 0.684974 0
M  V30 8 C -0.289903 -0.32754 -0.574377 0
M  V30 9 C -1.39743 0.357479 0.111268 0
M  V30 10 C -1.5149 0.090299 1.58792 0
M  V30 11 C -2.70025 -0.209208 -0.513565 0
M  V30 12 C -1.45651 1.84008 -0.0845892 0
M  V30 13 N -0.574518 -1.753 -0.707222 0
M  V30 14 N 1.73457 -1.93305 -1.56389 0
M  V30 15 H 4.86228 0.305777 0.664015 0
M  V30 16 H 0.833586 1.63257 1.1506 0
M  V30 17 H -0.337821 0.0198749 -1.661 0
M  V30 18 H -0.549735 -0.00126302 2.10269 0
M  V30 19 H -2.19069 -0.77728 1.79907 0
M  V30 20 H -2.04662 0.953587 2.03951 0
M  V30 21 H -2.83903 -1.19671 -0.0769008 0
M  V30 22 H -2.56024 -0.202762 -1.61124 0
M  V30 23 H -3.55855 0.436059 -0.231608 0
M  V30 24 H -0.685061 2.20419 -0.793322 0
M  V30 25 H -1.42728 2.39858 0.882653 0
M  V30 26 H -2.43038 2.10406 -0.532814 0
M  V30 27 H -0.750098 -2.21917 0.182208 0
M  V30 28 H -1.39686 -1.91287 -1.33626 0
M  V30 29 H 1.78208 -2.91809 -1.26299 0
M  V30 30 H 1.42997 -1.71448 -2.52782 0
M  V30 END ATOM
M  V30 BEGIN BOND
M  V30 1 1 1 2
M  V30 2 2 2 3
M  V30 3 1 3 4
M  V30 4 2 4 5
M  V30 5 1 5 6
M  V30 6 2 6 7
M  V30 7 1 6 8
M  V30 8 1 8 9
M  V30 9 1 9 10
M  V30 10 1 9 11
M  V30 11 1 9 12
M  V30 12 1 8 13
M  V30 13 1 5 14
M  V30 14 1 7 2
M  V30 15 1 3 15
M  V30 16 1 7 16
M  V30 17 1 8 17
M  V30 18 1 10 18
M  V30 19 1 10 19
M  V30 20 1 10 20
M  V30 21 1 11 21
M  V30 22 1 11 22
M  V30 23 1 11 23
M  V30 24 1 12 24
M  V30 25 1 12 25
M  V30 26 1 12 26
M  V30 27 1 13 27
M  V30 28 1 13 28
M  V30 29 1 14 29
M  V30 30 1 14 30
M  V30 END BOND
M  V30 END CTAB
M  END
