
     RDKit          3D

  0  0  0  0  0  0  0  0  0  0999 V3000
M  V30 BEGIN CTAB
M  V30 COUNTS 37 39 0 0 0
M  V30 BEGIN ATOM
M  V30 1 N 5.64905 0.425101 0.0196984 0
M  V30 2 C 4.72966 1.44184 -0.254794 0
M  V30 3 C 3.33666 0.988007 -0.0772424 0
M  V30 4 C 3.10657 -0.256269 0.300019 0
M  V30 5 C 1.77142 -0.835195 0.513028 0 CFG=1
M  V30 6 O 0.793101 0.0914704 0.771332 0
M  V30 7 C -0.400314 -0.589797 0.672857 0 CFG=2
M  V30 8 C -0.205312 -1.71704 -0.309053 0 CFG=2
M  V30 9 O -0.229196 -2.97121 0.318415 0
M  V30 10 C 1.22806 -1.49147 -0.753407 0 CFG=2
M  V30 11 O 1.88623 -2.67655 -1.03961 0
M  V30 12 N -1.48599 0.291419 0.246858 0
M  V30 13 C -1.39258 1.40741 -0.499854 0
M  V30 14 N -2.60656 1.9578 -0.690296 0
M  V30 15 C -3.5123 1.20362 -0.0667576 0
M  V30 16 C -2.81134 0.164269 0.517477 0
M  V30 17 N -3.46571 -0.773455 1.2262 0
M  V30 18 C -4.80192 -0.680188 1.35347 0
M  V30 19 N -5.48531 0.331186 0.785151 0
M  V30 20 C -4.88306 1.29448 0.0669863 0
M  V30 21 N -5.63197 2.36659 -0.531984 0
M  V30 22 H 6.50611 0.694153 0.406143 0
M  V30 23 H 5.65781 -0.314829 -0.618664 0
M  V30 24 H 4.88564 2.34591 0.379405 0
M  V30 25 H 4.85441 1.71924 -1.34207 0
M  V30 26 H 2.47145 1.64129 -0.245223 0
M  V30 27 H 3.9605 -0.902816 0.466348 0
M  V30 28 H 1.80007 -1.55978 1.33829 0
M  V30 29 H -0.611716 -1.04896 1.66472 0
M  V30 30 H -0.912268 -1.67614 -1.15681 0
M  V30 31 H -0.0623437 -2.87484 1.27871 0
M  V30 32 H 1.26061 -0.762101 -1.56782 0
M  V30 33 H 2.26087 -3.01719 -0.173103 0
M  V30 34 H -0.426418 1.77719 -0.87927 0
M  V30 35 H -5.37589 -1.42624 1.92487 0
M  V30 36 H -5.21903 3.27902 -0.753337 0
M  V30 37 H -6.63898 2.15407 -0.730521 0
M  V30 END ATOM
M  V30 BEGIN BOND
M  V30 1 1 1 2
M  V30 2 1 2 3
M  V30 3 2 3 4
M  V30 4 1 4 5
M  V30 5 1 5 6
M  V30 6 1 6 7
M  V30 7 1 7 8
M  V30 8 1 8 9
M  V30 9 1 8 10
M  V30 10 1 10 11
M  V30 11 1 7 12
M  V30 12 1 12 13
M  V30 13 2 13 14
M  V30 14 1 14 15
M  V30 15 2 15 16
M  V30 16 1 16 17
M  V30 17 2 17 18
M  V30 18 1 18 19
M  V30 19 2 19 20
M  V30 20 1 20 21
M  V30 21 1 10 5
M  V30 22 1 16 12
M  V30 23 1 20 15
M  V30 24 1 1 22
M  V30 25 1 1 23
M  V30 26 1 2 24
M  V30 27 1 2 25
M  V30 28 1 3 26
M  V30 29 1 4 27
M  V30 30 1 5 28 CFG=1
M  V30 31 1 7 29 CFG=1
M  V30 32 1 8 30 CFG=3
M  V30 33 1 9 31
M  V30 34 1 10 32 CFG=3
M  V30 35 1 11 33
M  V30 36 1 13 34
M  V30 37 1 18 35
M  V30 38 1 21 36
M  V30 39 1 21 37
M  V30 END BOND
M  V30 END CTAB
M  END
