
     RDKit          3D

  0  0  0  0  0  0  0  0  0  0999 V3000
M  V30 BEGIN CTAB
M  V30 COUNTS 36 37 0 0 0
M  V30 BEGIN ATOM
M  V30 1 N 4.35672 2.04856 0.81338 0
M  V30 2 C 4.16961 0.739535 0.29946 0
M  V30 3 C 2.89941 0.248372 -0.0505179 0
M  V30 4 C 2.73086 -1.01518 -0.543756 0
M  V30 5 O 1.54558 -1.55724 -0.895799 0
M  V30 6 C 0.27708 -1.02387 -0.8176 0
M  V30 7 C -0.241152 -0.755003 0.567673 0
M  V30 8 O -1.49627 -0.215357 0.5181 0
M  V30 9 C -2.48893 -0.962497 -0.0637992 0
M  V30 10 C -3.76247 -0.173274 0.0675703 0
M  V30 11 C -4.62592 -0.319834 1.12636 0
M  V30 12 C -5.78007 0.430484 1.1985 0
M  V30 13 C -6.06014 1.3315 0.195493 0
M  V30 14 C -5.19943 1.4906 -0.878401 0
M  V30 15 C -4.06758 0.724677 -0.906417 0
M  V30 16 C 3.84925 -1.85319 -0.7112 0
M  V30 17 N 5.03755 -1.37516 -0.377436 0
M  V30 18 C 5.22287 -0.129152 0.112639 0
M  V30 19 N 6.51699 0.337855 0.456679 0
M  V30 20 H 4.86344 2.26583 1.69857 0
M  V30 21 H 3.96742 2.85653 0.281688 0
M  V30 22 H 2.08996 0.956426 0.0798878 0
M  V30 23 H -0.466505 -1.65147 -1.3851 0
M  V30 24 H 0.225677 -0.0229337 -1.34851 0
M  V30 25 H 0.425836 -0.0772306 1.11893 0
M  V30 26 H -0.289271 -1.73549 1.15266 0
M  V30 27 H -2.59377 -1.97891 0.345169 0
M  V30 28 H -2.27096 -1.03054 -1.16834 0
M  V30 29 H -4.36764 -1.04011 1.89428 0
M  V30 30 H -6.47547 0.334568 2.01981 0
M  V30 31 H -6.95431 1.9262 0.232368 0
M  V30 32 H -5.39581 2.18778 -1.67458 0
M  V30 33 H -3.39568 0.863105 -1.76495 0
M  V30 34 H 3.73513 -2.86971 -1.10619 0
M  V30 35 H 6.90836 0.295733 1.41433 0
M  V30 36 H 7.10963 0.748387 -0.301356 0
M  V30 END ATOM
M  V30 BEGIN BOND
M  V30 1 1 1 2
M  V30 2 2 2 3
M  V30 3 1 3 4
M  V30 4 1 4 5
M  V30 5 1 5 6
M  V30 6 1 6 7
M  V30 7 1 7 8
M  V30 8 1 8 9
M  V30 9 1 9 10
M  V30 10 2 10 11
M  V30 11 1 11 12
M  V30 12 2 12 13
M  V30 13 1 13 14
M  V30 14 2 14 15
M  V30 15 2 4 16
M  V30 16 1 16 17
M  V30 17 2 17 18
M  V30 18 1 18 19
M  V30 19 1 18 2
M  V30 20 1 15 10
M  V30 21 1 1 20
M  V30 22 1 1 21
M  V30 23 1 3 22
M  V30 24 1 6 23
M  V30 25 1 6 24
M  V30 26 1 7 25
M  V30 27 1 7 26
M  V30 28 1 9 27
M  V30 29 1 9 28
M  V30 30 1 11 29
M  V30 31 1 12 30
M  V30 32 1 13 31
M  V30 33 1 14 32
M  V30 34 1 15 33
M  V30 35 1 16 34
M  V30 36 1 19 35
M  V30 37 1 19 36
M  V30 END BOND
M  V30 END CTAB
M  END
