
     RDKit          3D

  0  0  0  0  0  0  0  0  0  0999 V3000
M  V30 BEGIN CTAB
M  V30 COUNTS 38 39 0 0 0
M  V30 BEGIN ATOM
M  V30 1 N -4.54784 1.94518 -0.0600664 0
M  V30 2 C -3.54282 0.944252 0.195475 0
M  V30 3 C -2.34204 1.1425 -0.709141 0
M  V30 4 N -1.30595 0.148184 -0.493336 0
M  V30 5 C -1.81152 -1.09653 -0.944469 0
M  V30 6 C -1.5064 -2.25197 -0.0272353 0
M  V30 7 C 0.014791 -2.38819 0.0776036 0
M  V30 8 O 0.378703 -1.81208 1.25997 0
M  V30 9 C 0.410137 -0.434577 1.22148 0 CFG=2
M  V30 10 C -0.849611 0.239016 0.835985 0
M  V30 11 C 1.63352 0.00758299 0.554489 0
M  V30 12 C 1.73565 0.999269 -0.386871 0
M  V30 13 C 2.9608 1.34661 -0.955916 0
M  V30 14 C 4.11594 0.700325 -0.588784 0
M  V30 15 C 4.02659 -0.299116 0.35712 0
M  V30 16 C 2.81635 -0.627434 0.905365 0
M  V30 17 N 5.38265 1.05185 -1.16619 0
M  V30 18 H -4.37768 2.85355 0.352547 0
M  V30 19 H -5.49563 1.62349 0.139803 0
M  V30 20 H -4.03301 -0.0379344 0.0745108 0
M  V30 21 H -3.28631 1.04948 1.27 0
M  V30 22 H -2.72477 1.04457 -1.75386 0
M  V30 23 H -1.9774 2.17266 -0.518622 0
M  V30 24 H -2.8845 -1.1318 -1.19617 0
M  V30 25 H -1.28114 -1.33385 -1.91149 0
M  V30 26 H -1.85817 -3.17328 -0.532183 0
M  V30 27 H -1.98636 -2.19543 0.952772 0
M  V30 28 H 0.434074 -1.96593 -0.833767 0
M  V30 29 H 0.301694 -3.46203 0.0990669 0
M  V30 30 H 0.568581 -0.142984 2.32029 0
M  V30 31 H -0.723582 1.33998 1.06891 0
M  V30 32 H -1.63477 -0.0841059 1.56375 0
M  V30 33 H 0.843668 1.51404 -0.677698 0
M  V30 34 H 3.02013 2.1393 -1.70174 0
M  V30 35 H 4.96046 -0.794774 0.626574 0
M  V30 36 H 2.81382 -1.42082 1.64539 0
M  V30 37 H 6.1408 1.4003 -0.519263 0
M  V30 38 H 5.61118 0.990714 -2.16709 0
M  V30 END ATOM
M  V30 BEGIN BOND
M  V30 1 1 1 2
M  V30 2 1 2 3
M  V30 3 1 3 4
M  V30 4 1 4 5
M  V30 5 1 5 6
M  V30 6 1 6 7
M  V30 7 1 7 8
M  V30 8 1 8 9
M  V30 9 1 9 10
M  V30 10 1 9 11
M  V30 11 2 11 12
M  V30 12 1 12 13
M  V30 13 2 13 14
M  V30 14 1 14 15
M  V30 15 2 15 16
M  V30 16 1 14 17
M  V30 17 1 10 4
M  V30 18 1 16 11
M  V30 19 1 1 18
M  V30 20 1 1 19
M  V30 21 1 2 20
M  V30 22 1 2 21
M  V30 23 1 3 22
M  V30 24 1 3 23
M  V30 25 1 5 24
M  V30 26 1 5 25
M  V30 27 1 6 26
M  V30 28 1 6 27
M  V30 29 1 7 28
M  V30 30 1 7 29
M  V30 31 1 9 30 CFG=1
M  V30 32 1 10 31
M  V30 33 1 10 32
M  V30 34 1 12 33
M  V30 35 1 13 34
M  V30 36 1 15 35
M  V30 37 1 16 36
M  V30 38 1 17 37
M  V30 39 1 17 38
M  V30 END BOND
M  V30 END CTAB
M  END
