
     RDKit          3D

  0  0  0  0  0  0  0  0  0  0999 V3000
M  V30 BEGIN CTAB
M  V30 COUNTS 23 23 0 0 0
M  V30 BEGIN ATOM
M  V30 1 C 3.38025 -0.519788 0.0064907 0
M  V30 2 C 2.26423 0.337292 -0.587086 0
M  V30 3 O 1.08544 -0.0677098 0.0342901 0
M  V30 4 C -0.0227191 0.639543 -0.418238 0
M  V30 5 C -0.817874 1.18891 0.747509 0
M  V30 6 C -1.80936 0.0669082 0.53434 0
M  V30 7 C -1.21061 -0.180398 -0.806207 0
M  V30 8 N -0.974538 -1.5799 -1.05254 0
M  V30 9 N -3.19947 0.469336 0.531364 0
M  V30 10 H 4.22352 -0.58136 -0.704411 0
M  V30 11 H 2.99173 -1.56081 0.11008 0
M  V30 12 H 3.68822 -0.177102 1.00122 0
M  V30 13 H 2.47525 1.41743 -0.448292 0
M  V30 14 H 2.25707 0.154471 -1.68235 0
M  V30 15 H 0.264811 1.38536 -1.18634 0
M  V30 16 H -0.324715 1.13036 1.72772 0
M  V30 17 H -1.21675 2.19549 0.514513 0
M  V30 18 H -1.63652 -0.781482 1.21501 0
M  V30 19 H -1.77048 0.280098 -1.65119 0
M  V30 20 H -1.92196 -2.04931 -1.04538 0
M  V30 21 H -0.359267 -1.96487 -0.309737 0
M  V30 22 H -3.7498 0.00175676 -0.222525 0
M  V30 23 H -3.61642 0.195768 1.45751 0
M  V30 END ATOM
M  V30 BEGIN BOND
M  V30 1 1 1 2
M  V30 2 1 2 3
M  V30 3 1 3 4
M  V30 4 1 4 5
M  V30 5 1 5 6
M  V30 6 1 6 7
M  V30 7 1 7 8
M  V30 8 1 6 9
M  V30 9 1 7 4
M  V30 10 1 1 10
M  V30 11 1 1 11
M  V30 12 1 1 12
M  V30 13 1 2 13
M  V30 14 1 2 14
M  V30 15 1 4 15
M  V30 16 1 5 16
M  V30 17 1 5 17
M  V30 18 1 6 18
M  V30 19 1 7 19
M  V30 20 1 8 20
M  V30 21 1 8 21
M  V30 22 1 9 22
M  V30 23 1 9 23
M  V30 END BOND
M  V30 END CTAB
M  END
