
     RDKit          3D

  0  0  0  0  0  0  0  0  0  0999 V3000
M  V30 BEGIN CTAB
M  V30 COUNTS 36 37 0 0 0
M  V30 BEGIN ATOM
M  V30 1 C -1.79632 0.681217 2.34177 0
M  V30 2 C -1.45249 1.23123 0.974273 0
M  V30 3 C -2.66329 1.65528 0.21124 0
M  V30 4 C -2.72949 1.23404 -1.20897 0
M  V30 5 C -2.14214 -0.087994 -1.57205 0
M  V30 6 C -1.63888 -0.796416 -0.331308 0
M  V30 7 N -0.747221 0.11882 0.290524 0
M  V30 8 C 0.655788 0.0941597 0.343913 0
M  V30 9 N 1.33363 0.715747 1.33669 0
M  V30 10 C 2.67641 0.716378 1.38879 0
M  V30 11 C 3.44438 0.083308 0.43319 0
M  V30 12 C 2.7873 -0.559193 -0.591855 0
M  V30 13 C 1.4009 -0.531751 -0.602428 0
M  V30 14 N 3.5194 -1.23343 -1.61287 0
M  V30 15 N 4.86762 0.081965 0.485849 0
M  V30 16 C -1.19137 -2.18676 -0.536823 0
M  V30 17 H -2.77797 0.14401 2.31737 0
M  V30 18 H -1.88741 1.51928 3.07129 0
M  V30 19 H -1.03344 -0.0596087 2.65926 0
M  V30 20 H -0.721733 2.0446 1.12881 0
M  V30 21 H -2.73225 2.76328 0.259743 0
M  V30 22 H -3.55997 1.27692 0.746618 0
M  V30 23 H -3.79945 1.21889 -1.54677 0
M  V30 24 H -2.24181 2.00546 -1.84288 0
M  V30 25 H -1.33243 0.00974659 -2.3231 0
M  V30 26 H -2.89035 -0.778041 -2.03349 0
M  V30 27 H -2.56371 -0.865724 0.332994 0
M  V30 28 H 3.20719 1.21766 2.18882 0
M  V30 29 H 0.936043 -1.03234 -1.42275 0
M  V30 30 H 3.31947 -1.08095 -2.63165 0
M  V30 31 H 4.28905 -1.91065 -1.39029 0
M  V30 32 H 5.45334 0.942044 0.482914 0
M  V30 33 H 5.34432 -0.839696 0.529822 0
M  V30 34 H -1.9774 -2.95418 -0.268696 0
M  V30 35 H -1.0554 -2.34596 -1.64732 0
M  V30 36 H -0.300316 -2.49134 0.039387 0
M  V30 END ATOM
M  V30 BEGIN BOND
M  V30 1 1 1 2
M  V30 2 1 2 3
M  V30 3 1 3 4
M  V30 4 1 4 5
M  V30 5 1 5 6
M  V30 6 1 6 7
M  V30 7 1 7 8
M  V30 8 2 8 9
M  V30 9 1 9 10
M  V30 10 2 10 11
M  V30 11 1 11 12
M  V30 12 2 12 13
M  V30 13 1 12 14
M  V30 14 1 11 15
M  V30 15 1 6 16
M  V30 16 1 7 2
M  V30 17 1 13 8
M  V30 18 1 1 17
M  V30 19 1 1 18
M  V30 20 1 1 19
M  V30 21 1 2 20
M  V30 22 1 3 21
M  V30 23 1 3 22
M  V30 24 1 4 23
M  V30 25 1 4 24
M  V30 26 1 5 25
M  V30 27 1 5 26
M  V30 28 1 6 27
M  V30 29 1 10 28
M  V30 30 1 13 29
M  V30 31 1 14 30
M  V30 32 1 14 31
M  V30 33 1 15 32
M  V30 34 1 15 33
M  V30 35 1 16 34
M  V30 36 1 16 35
M  V30 37 1 16 36
M  V30 END BOND
M  V30 END CTAB
M  END
