
     RDKit          3D

  0  0  0  0  0  0  0  0  0  0999 V3000
M  V30 BEGIN CTAB
M  V30 COUNTS 45 45 0 0 0
M  V30 BEGIN ATOM
M  V30 1 N 5.44949 -2.79389 -0.674701 0
M  V30 2 C 4.38651 -1.80617 -0.707152 0
M  V30 3 C 4.26005 -1.0854 0.618097 0
M  V30 4 C 3.13505 -0.0833579 0.488594 0
M  V30 5 C 2.92688 0.694077 1.76999 0
M  V30 6 C 1.76769 1.66075 1.49137 0
M  V30 7 C 1.44841 2.49068 2.65796 0
M  V30 8 O 0.289435 2.57164 3.16816 0
M  V30 9 O 2.45755 3.22911 3.24139 0
M  V30 10 N 0.620132 0.942729 0.982663 0
M  V30 11 C 0.0940828 1.16462 -0.314598 0
M  V30 12 O 0.666742 2.03601 -1.05147 0
M  V30 13 C -1.06752 0.452999 -0.85889 0
M  V30 14 C -2.24844 0.739983 0.0773625 0
M  V30 15 C -3.47268 0.0629538 -0.388685 0
M  V30 16 C -3.82603 -1.21537 0.00402799 0
M  V30 17 C -4.99373 -1.78596 -0.477054 0
M  V30 18 C -5.83254 -1.12439 -1.34427 0
M  V30 19 C -5.46666 0.152441 -1.7281 0
M  V30 20 C -4.30262 0.732195 -1.25386 0
M  V30 21 O -7.01279 -1.68606 -1.83785 0
M  V30 22 N -1.38034 0.881176 -2.20153 0
M  V30 23 H 5.23672 -3.60932 -1.29108 0
M  V30 24 H 6.33562 -2.3479 -1.00134 0
M  V30 25 H 3.41879 -2.25104 -1.02429 0
M  V30 26 H 4.65246 -1.06755 -1.49098 0
M  V30 27 H 4.12075 -1.75833 1.46178 0
M  V30 28 H 5.20283 -0.481954 0.735639 0
M  V30 29 H 3.34771 0.662334 -0.301555 0
M  V30 30 H 2.17421 -0.582851 0.247458 0
M  V30 31 H 3.81702 1.24953 2.07412 0
M  V30 32 H 2.58767 0.056173 2.60873 0
M  V30 33 H 2.09876 2.36637 0.675145 0
M  V30 34 H 2.51962 3.39219 4.23797 0
M  V30 35 H 0.148701 0.231277 1.5779 0
M  V30 36 H -0.925679 -0.644524 -0.86422 0
M  V30 37 H -2.44953 1.82929 0.115279 0
M  V30 38 H -1.947 0.4321 1.10006 0
M  V30 39 H -3.16975 -1.72984 0.681009 0
M  V30 40 H -5.23606 -2.78878 -0.146326 0
M  V30 41 H -6.13253 0.659719 -2.4078 0
M  V30 42 H -4.05781 1.7324 -1.58169 0
M  V30 43 H -7.32982 -2.59574 -1.60101 0
M  V30 44 H -0.557358 1.24303 -2.72642 0
M  V30 45 H -1.75401 0.0697285 -2.73983 0
M  V30 END ATOM
M  V30 BEGIN BOND
M  V30 1 1 1 2
M  V30 2 1 2 3
M  V30 3 1 3 4
M  V30 4 1 4 5
M  V30 5 1 5 6
M  V30 6 1 6 7
M  V30 7 2 7 8
M  V30 8 1 7 9
M  V30 9 1 6 10
M  V30 10 1 10 11
M  V30 11 2 11 12
M  V30 12 1 11 13
M  V30 13 1 13 14
M  V30 14 1 14 15
M  V30 15 2 15 16
M  V30 16 1 16 17
M  V30 17 2 17 18
M  V30 18 1 18 19
M  V30 19 2 19 20
M  V30 20 1 18 21
M  V30 21 1 13 22
M  V30 22 1 20 15
M  V30 23 1 1 23
M  V30 24 1 1 24
M  V30 25 1 2 25
M  V30 26 1 2 26
M  V30 27 1 3 27
M  V30 28 1 3 28
M  V30 29 1 4 29
M  V30 30 1 4 30
M  V30 31 1 5 31
M  V30 32 1 5 32
M  V30 33 1 6 33
M  V30 34 1 9 34
M  V30 35 1 10 35
M  V30 36 1 13 36
M  V30 37 1 14 37
M  V30 38 1 14 38
M  V30 39 1 16 39
M  V30 40 1 17 40
M  V30 41 1 19 41
M  V30 42 1 20 42
M  V30 43 1 21 43
M  V30 44 1 22 44
M  V30 45 1 22 45
M  V30 END BOND
M  V30 END CTAB
M  END
