
     RDKit          3D

  0  0  0  0  0  0  0  0  0  0999 V3000
M  V30 BEGIN CTAB
M  V30 COUNTS 40 42 0 0 0
M  V30 BEGIN ATOM
M  V30 1 N -3.60282 3.29515 -1.04195 0
M  V30 2 C -2.75542 2.17203 -1.23783 0
M  V30 3 C -2.35072 1.56742 0.0878986 0
M  V30 4 N -1.48251 0.417975 -0.0647977 0
M  V30 5 C -0.162657 0.617448 -0.561063 0
M  V30 6 C 0.746596 -0.550522 -0.440942 0 CFG=2
M  V30 7 N 0.33626 -1.51635 0.542279 0
M  V30 8 C -1.02741 -1.89199 0.597127 0
M  V30 9 C -1.94955 -0.883793 0.281212 0
M  V30 10 C -3.2847 -1.17182 0.313869 0
M  V30 11 C -3.68359 -2.44639 0.657385 0
M  V30 12 C -2.77981 -3.4626 0.975431 0
M  V30 13 C -1.44274 -3.15829 0.938062 0
M  V30 14 C 2.13045 -0.146753 -0.0796119 0
M  V30 15 C 2.46166 0.140235 1.21275 0
M  V30 16 C 3.7687 0.513103 1.49146 0
M  V30 17 C 4.7383 0.604272 0.52148 0
M  V30 18 C 4.40428 0.313832 -0.786879 0
M  V30 19 C 3.09169 -0.0589086 -1.05647 0
M  V30 20 N 5.3839 0.403378 -1.79535 0
M  V30 21 H -3.21408 4.20297 -1.16154 0
M  V30 22 H -4.33104 3.19575 -0.377795 0
M  V30 23 H -1.87176 2.46325 -1.84077 0
M  V30 24 H -3.33271 1.4333 -1.84593 0
M  V30 25 H -1.81253 2.39984 0.636544 0
M  V30 26 H -3.24771 1.38353 0.698732 0
M  V30 27 H -0.172221 0.943328 -1.63943 0
M  V30 28 H 0.288501 1.44505 0.0646437 0
M  V30 29 H 0.809072 -1.11373 -1.4091 0
M  V30 30 H 0.976171 -1.98228 1.23438 0
M  V30 31 H -3.99801 -0.385957 0.0659952 0
M  V30 32 H -4.73221 -2.68929 0.687752 0
M  V30 33 H -3.12689 -4.46001 1.24376 0
M  V30 34 H -0.71569 -3.91259 1.17954 0
M  V30 35 H 1.73731 0.0876677 2.03841 0
M  V30 36 H 4.07933 0.753816 2.51299 0
M  V30 37 H 5.75241 0.894092 0.744108 0
M  V30 38 H 2.87641 -0.279295 -2.10949 0
M  V30 39 H 5.66781 -0.445848 -2.31729 0
M  V30 40 H 5.8279 1.30897 -2.02613 0
M  V30 END ATOM
M  V30 BEGIN BOND
M  V30 1 1 1 2
M  V30 2 1 2 3
M  V30 3 1 3 4
M  V30 4 1 4 5
M  V30 5 1 5 6
M  V30 6 1 6 7
M  V30 7 1 7 8
M  V30 8 2 8 9
M  V30 9 1 9 10
M  V30 10 2 10 11
M  V30 11 1 11 12
M  V30 12 2 12 13
M  V30 13 1 6 14
M  V30 14 2 14 15
M  V30 15 1 15 16
M  V30 16 2 16 17
M  V30 17 1 17 18
M  V30 18 2 18 19
M  V30 19 1 18 20
M  V30 20 1 9 4
M  V30 21 1 19 14
M  V30 22 1 13 8
M  V30 23 1 1 21
M  V30 24 1 1 22
M  V30 25 1 2 23
M  V30 26 1 2 24
M  V30 27 1 3 25
M  V30 28 1 3 26
M  V30 29 1 5 27
M  V30 30 1 5 28
M  V30 31 1 6 29 CFG=3
M  V30 32 1 7 30
M  V30 33 1 10 31
M  V30 34 1 11 32
M  V30 35 1 12 33
M  V30 36 1 13 34
M  V30 37 1 15 35
M  V30 38 1 16 36
M  V30 39 1 17 37
M  V30 40 1 19 38
M  V30 41 1 20 39
M  V30 42 1 20 40
M  V30 END BOND
M  V30 END CTAB
M  END
