
     RDKit          3D

  0  0  0  0  0  0  0  0  0  0999 V3000
M  V30 BEGIN CTAB
M  V30 COUNTS 56 57 0 0 0
M  V30 BEGIN ATOM
M  V30 1 C -3.48612 -2.3852 -3.10126 0
M  V30 2 O -2.18118 -2.44292 -2.58562 0
M  V30 3 C -1.79913 -1.47418 -1.62901 0
M  V30 4 C -2.70053 -0.497884 -1.21922 0
M  V30 5 C -2.40061 0.459265 -0.306916 0
M  V30 6 C -3.28973 1.5497 0.131752 0
M  V30 7 C -4.64557 1.17656 0.563004 0
M  V30 8 C -5.75872 1.12262 -0.254789 0
M  V30 9 N -5.64894 1.57854 -1.59212 0
M  V30 10 N -6.95481 0.700551 0.235795 0
M  V30 11 C -7.12572 0.322597 1.51177 0
M  V30 12 N -8.40748 -0.0967339 1.95105 0
M  V30 13 N -6.04548 0.378863 2.30233 0
M  V30 14 C -4.8411 0.77757 1.90627 0
M  V30 15 C -1.09036 0.402664 0.214205 0
M  V30 16 C -0.17331 -0.533159 -0.15657 0
M  V30 17 O 1.10897 -0.607092 0.33185 0
M  V30 18 C 1.7088 0.224939 1.26993 0
M  V30 19 C 3.15481 -0.277348 1.43565 0
M  V30 20 C 3.79852 -0.167987 0.0611104 0
M  V30 21 C 5.2179 -0.59696 0.0330955 0
M  V30 22 C 6.12317 0.195651 0.939931 0
M  V30 23 C 6.13713 1.66313 0.60526 0
M  V30 24 C 6.62107 1.86045 -0.795953 0
M  V30 25 O 5.8297 2.56999 -1.6629 0
M  V30 26 O 7.72668 1.39218 -1.18978 0
M  V30 27 C 5.28472 -2.02352 0.414919 0
M  V30 28 O 4.65619 -3.03018 -0.30008 0
M  V30 29 O 5.94173 -2.36154 1.44071 0
M  V30 30 C -0.546673 -1.48203 -1.09531 0
M  V30 31 Br 0.719776 -2.81177 -1.63617 0
M  V30 32 H -4.25629 -2.65772 -2.3298 0
M  V30 33 H -3.6436 -1.36749 -3.52528 0
M  V30 34 H -3.55397 -3.15631 -3.92448 0
M  V30 35 H -3.6837 -0.556368 -1.66961 0
M  V30 36 H -3.40659 2.26918 -0.714028 0
M  V30 37 H -2.81428 2.15442 0.942776 0
M  V30 38 H -6.24375 2.4299 -1.82316 0
M  V30 39 H -5.08369 1.20141 -2.34268 0
M  V30 40 H -9.15433 -0.372477 1.28237 0
M  V30 41 H -8.59804 -0.125987 2.98292 0
M  V30 42 H -3.97065 0.818998 2.56568 0
M  V30 43 H -0.798296 1.13616 0.940716 0
M  V30 44 H 1.77961 1.2379 0.806783 0
M  V30 45 H 1.1952 0.256959 2.25283 0
M  V30 46 H 3.05434 -1.36158 1.65072 0
M  V30 47 H 3.6915 0.276329 2.19923 0
M  V30 48 H 3.6106 0.821278 -0.408826 0
M  V30 49 H 3.22036 -0.901576 -0.563933 0
M  V30 50 H 5.58375 -0.520381 -1.02122 0
M  V30 51 H 7.14974 -0.185514 0.779461 0
M  V30 52 H 5.86981 0.0183754 2.00313 0
M  V30 53 H 6.94825 2.1179 1.2461 0
M  V30 54 H 5.23139 2.21781 0.792951 0
M  V30 55 H 6.12891 2.67144 -2.62705 0
M  V30 56 H 4.80997 -4.00944 -0.11551 0
M  V30 END ATOM
M  V30 BEGIN BOND
M  V30 1 1 1 2
M  V30 2 1 2 3
M  V30 3 2 3 4
M  V30 4 1 4 5
M  V30 5 1 5 6
M  V30 6 1 6 7
M  V30 7 2 7 8
M  V30 8 1 8 9
M  V30 9 1 8 10
M  V30 10 2 10 11
M  V30 11 1 11 12
M  V30 12 1 11 13
M  V30 13 2 13 14
M  V30 14 2 5 15
M  V30 15 1 15 16
M  V30 16 1 16 17
M  V30 17 1 17 18
M  V30 18 1 18 19
M  V30 19 1 19 20
M  V30 20 1 20 21
M  V30 21 1 21 22
M  V30 22 1 22 23
M  V30 23 1 23 24
M  V30 24 1 24 25
M  V30 25 2 24 26
M  V30 26 1 21 27
M  V30 27 1 27 28
M  V30 28 2 27 29
M  V30 29 2 16 30
M  V30 30 1 30 31
M  V30 31 1 30 3
M  V30 32 1 14 7
M  V30 33 1 1 32
M  V30 34 1 1 33
M  V30 35 1 1 34
M  V30 36 1 4 35
M  V30 37 1 6 36
M  V30 38 1 6 37
M  V30 39 1 9 38
M  V30 40 1 9 39
M  V30 41 1 12 40
M  V30 42 1 12 41
M  V30 43 1 14 42
M  V30 44 1 15 43
M  V30 45 1 18 44
M  V30 46 1 18 45
M  V30 47 1 19 46
M  V30 48 1 19 47
M  V30 49 1 20 48
M  V30 50 1 20 49
M  V30 51 1 21 50
M  V30 52 1 22 51
M  V30 53 1 22 52
M  V30 54 1 23 53
M  V30 55 1 23 54
M  V30 56 1 25 55
M  V30 57 1 28 56
M  V30 END BOND
M  V30 END CTAB
M  END
