
     RDKit          3D

  0  0  0  0  0  0  0  0  0  0999 V3000
M  V30 BEGIN CTAB
M  V30 COUNTS 42 43 0 0 0
M  V30 BEGIN ATOM
M  V30 1 N 7.44593 1.17142 -0.959676 0
M  V30 2 C 6.92214 1.7376 0.251486 0
M  V30 3 C 5.43236 1.58264 0.258076 0
M  V30 4 C 5.14068 0.0821872 0.184614 0
M  V30 5 C 3.67855 -0.135833 0.18771 0
M  V30 6 O 2.90164 0.826883 0.244053 0
M  V30 7 N 3.17086 -1.45922 0.125507 0
M  V30 8 C 1.74832 -1.70257 0.126871 0
M  V30 9 N 1.2789 -2.96223 0.0675257 0
M  V30 10 C -0.0301974 -3.22839 0.0671533 0
M  V30 11 C -0.896832 -2.12639 0.131909 0
M  V30 12 C -0.463933 -0.826967 0.192472 0
M  V30 13 N -1.26531 0.327953 0.226102 0
M  V30 14 C -2.66648 0.360037 0.0828199 0
M  V30 15 C -3.4364 1.22827 0.881047 0
M  V30 16 C -4.79467 1.31448 0.730519 0
M  V30 17 C -5.48514 0.569044 -0.197106 0
M  V30 18 C -4.74273 -0.280226 -0.980524 0
M  V30 19 C -3.36821 -0.3806 -0.842962 0
M  V30 20 S -7.21237 0.736617 -0.325179 0
M  V30 21 N -7.95416 -0.397359 0.734741 0
M  V30 22 O -7.6225 2.1205 0.141918 0
M  V30 23 O -7.70774 0.490198 -1.71801 0
M  V30 24 N 0.904574 -0.66958 0.187333 0
M  V30 25 H 7.96618 0.283101 -0.803898 0
M  V30 26 H 6.70099 1.11174 -1.65986 0
M  V30 27 H 7.33121 1.17273 1.13617 0
M  V30 28 H 7.21467 2.81566 0.371488 0
M  V30 29 H 4.92486 2.02292 1.11647 0
M  V30 30 H 5.04929 2.00809 -0.69843 0
M  V30 31 H 5.611 -0.372882 1.09492 0
M  V30 32 H 5.60862 -0.375347 -0.696031 0
M  V30 33 H 3.80642 -2.27298 0.0781061 0
M  V30 34 H -0.455365 -4.2179 0.021098 0
M  V30 35 H -1.96005 -2.31597 0.159301 0
M  V30 36 H -0.774649 1.2602 0.373512 0
M  V30 37 H -2.89446 1.8168 1.61281 0
M  V30 38 H -5.36822 2.00248 1.36963 0
M  V30 39 H -5.2706 -0.87848 -1.72034 0
M  V30 40 H -2.88161 -1.05681 -1.51463 0
M  V30 41 H -7.48337 -1.33467 0.704925 0
M  V30 42 H -8.10219 -0.0471211 1.68502 0
M  V30 END ATOM
M  V30 BEGIN BOND
M  V30 1 1 1 2
M  V30 2 1 2 3
M  V30 3 1 3 4
M  V30 4 1 4 5
M  V30 5 2 5 6
M  V30 6 1 5 7
M  V30 7 1 7 8
M  V30 8 2 8 9
M  V30 9 1 9 10
M  V30 10 2 10 11
M  V30 11 1 11 12
M  V30 12 1 12 13
M  V30 13 1 13 14
M  V30 14 2 14 15
M  V30 15 1 15 16
M  V30 16 2 16 17
M  V30 17 1 17 18
M  V30 18 2 18 19
M  V30 19 1 17 20
M  V30 20 1 20 21
M  V30 21 2 20 22
M  V30 22 2 20 23
M  V30 23 2 12 24
M  V30 24 1 24 8
M  V30 25 1 19 14
M  V30 26 1 1 25
M  V30 27 1 1 26
M  V30 28 1 2 27
M  V30 29 1 2 28
M  V30 30 1 3 29
M  V30 31 1 3 30
M  V30 32 1 4 31
M  V30 33 1 4 32
M  V30 34 1 7 33
M  V30 35 1 10 34
M  V30 36 1 11 35
M  V30 37 1 13 36
M  V30 38 1 15 37
M  V30 39 1 16 38
M  V30 40 1 18 39
M  V30 41 1 19 40
M  V30 42 1 21 41
M  V30 43 1 21 42
M  V30 END BOND
M  V30 END CTAB
M  END
