
     RDKit          3D

  0  0  0  0  0  0  0  0  0  0999 V3000
M  V30 BEGIN CTAB
M  V30 COUNTS 44 45 0 0 0
M  V30 BEGIN ATOM
M  V30 1 N -5.40134 2.01198 -0.864252 0
M  V30 2 C -6.10962 0.863324 -0.348471 0
M  V30 3 C -5.24297 -0.354735 -0.577355 0
M  V30 4 C -3.94404 -0.132847 0.164486 0
M  V30 5 C -3.05975 -1.29184 -0.0247368 0
M  V30 6 O -3.43652 -2.25675 -0.717188 0
M  V30 7 N -1.78405 -1.32306 0.571836 0
M  V30 8 C -0.856808 -2.41932 0.436525 0
M  V30 9 C 0.554436 -2.00926 0.704406 0
M  V30 10 N 0.836004 -0.616813 0.564446 0
M  V30 11 C -0.181247 0.42028 0.602352 0
M  V30 12 C -1.35462 -0.196454 1.3753 0
M  V30 13 C 2.20001 -0.209191 0.382331 0
M  V30 14 C 3.23606 -1.10897 0.482676 0
M  V30 15 C 4.555 -0.690845 0.295878 0
M  V30 16 C 4.83078 0.626669 0.00948332 0
M  V30 17 C 3.79347 1.52329 -0.0900592 0
M  V30 18 C 2.51071 1.10079 0.0947073 0
M  V30 19 S 6.45204 1.21535 -0.234957 0
M  V30 20 O 7.4429 0.507021 0.638066 0
M  V30 21 O 6.50032 2.67302 0.1174 0
M  V30 22 N 6.82937 1.07586 -1.90791 0
M  V30 23 H -6.02321 2.69709 -1.33234 0
M  V30 24 H -4.70553 2.40858 -0.224213 0
M  V30 25 H -6.28911 0.927535 0.745097 0
M  V30 26 H -7.09348 0.79574 -0.84309 0
M  V30 27 H -5.00597 -0.41734 -1.66105 0
M  V30 28 H -5.6952 -1.2809 -0.195349 0
M  V30 29 H -4.18189 0.0632831 1.23029 0
M  V30 30 H -3.43848 0.808653 -0.200302 0
M  V30 31 H -0.935611 -2.90549 -0.558227 0
M  V30 32 H -1.14015 -3.20722 1.19593 0
M  V30 33 H 1.20038 -2.60624 0.00877599 0
M  V30 34 H 0.890104 -2.30499 1.74112 0
M  V30 35 H -0.509724 0.746885 -0.386694 0
M  V30 36 H 0.183662 1.28349 1.20304 0
M  V30 37 H -2.15478 0.550248 1.52565 0
M  V30 38 H -0.951512 -0.607662 2.32065 0
M  V30 39 H 3.03004 -2.14083 0.708689 0
M  V30 40 H 5.35678 -1.41864 0.379799 0
M  V30 41 H 3.9746 2.58639 -0.317882 0
M  V30 42 H 1.71074 1.8525 0.00404601 0
M  V30 43 H 5.9925 0.897186 -2.49882 0
M  V30 44 H 7.41571 1.86423 -2.25762 0
M  V30 END ATOM
M  V30 BEGIN BOND
M  V30 1 1 1 2
M  V30 2 1 2 3
M  V30 3 1 3 4
M  V30 4 1 4 5
M  V30 5 2 5 6
M  V30 6 1 5 7
M  V30 7 1 7 8
M  V30 8 1 8 9
M  V30 9 1 9 10
M  V30 10 1 10 11
M  V30 11 1 11 12
M  V30 12 1 10 13
M  V30 13 2 13 14
M  V30 14 1 14 15
M  V30 15 2 15 16
M  V30 16 1 16 17
M  V30 17 2 17 18
M  V30 18 1 16 19
M  V30 19 2 19 20
M  V30 20 2 19 21
M  V30 21 1 19 22
M  V30 22 1 12 7
M  V30 23 1 18 13
M  V30 24 1 1 23
M  V30 25 1 1 24
M  V30 26 1 2 25
M  V30 27 1 2 26
M  V30 28 1 3 27
M  V30 29 1 3 28
M  V30 30 1 4 29
M  V30 31 1 4 30
M  V30 32 1 8 31
M  V30 33 1 8 32
M  V30 34 1 9 33
M  V30 35 1 9 34
M  V30 36 1 11 35
M  V30 37 1 11 36
M  V30 38 1 12 37
M  V30 39 1 12 38
M  V30 40 1 14 39
M  V30 41 1 15 40
M  V30 42 1 17 41
M  V30 43 1 18 42
M  V30 44 1 22 43
M  V30 45 1 22 44
M  V30 END BOND
M  V30 END CTAB
M  END
