
     RDKit          3D

  0  0  0  0  0  0  0  0  0  0999 V3000
M  V30 BEGIN CTAB
M  V30 COUNTS 35 35 0 0 0
M  V30 BEGIN ATOM
M  V30 1 N -4.7641 1.37379 1.91101 0
M  V30 2 C -3.74239 1.55745 0.887897 0
M  V30 3 C -3.12492 0.1991 0.646351 0
M  V30 4 N -2.11097 0.327181 -0.356946 0
M  V30 5 C -1.46586 -0.918602 -0.682583 0
M  V30 6 C -0.163343 -0.995876 0.0808438 0
M  V30 7 N 0.711848 -0.0171629 -0.556854 0
M  V30 8 C 0.110891 1.26769 -0.860603 0
M  V30 9 C -1.21025 1.4229 -0.165433 0
M  V30 10 C 2.02764 -0.36046 -0.830267 0
M  V30 11 O 2.78872 0.467829 -1.3746 0
M  V30 12 C 2.55105 -1.69242 -0.489587 0
M  V30 13 N 3.93048 -1.90231 -0.827976 0
M  V30 14 C 4.93895 -1.20673 -0.124808 0
M  V30 15 S 6.53652 -1.41361 -0.483352 0
M  V30 16 N 4.56248 -0.316152 0.906336 0
M  V30 17 H -5.5176 2.05371 1.69945 0
M  V30 18 H -4.32826 1.50584 2.82951 0
M  V30 19 H -2.95413 2.24609 1.19993 0
M  V30 20 H -4.21414 1.87322 -0.0802475 0
M  V30 21 H -3.92756 -0.450348 0.242682 0
M  V30 22 H -2.7316 -0.221628 1.60137 0
M  V30 23 H -1.18743 -0.977818 -1.76518 0
M  V30 24 H -2.13292 -1.75902 -0.45476 0
M  V30 25 H -0.360901 -0.632638 1.11066 0
M  V30 26 H 0.252437 -2.01649 0.0474582 0
M  V30 27 H 0.019617 1.46008 -1.93485 0
M  V30 28 H 0.786191 2.06026 -0.437173 0
M  V30 29 H -1.04763 1.62209 0.919665 0
M  V30 30 H -1.6978 2.32708 -0.588018 0
M  V30 31 H 2.36454 -1.86935 0.60203 0
M  V30 32 H 1.97528 -2.51759 -0.987948 0
M  V30 33 H 4.24153 -2.56357 -1.59128 0
M  V30 34 H 3.62746 -0.318682 1.36286 0
M  V30 35 H 5.25618 0.386136 1.23294 0
M  V30 END ATOM
M  V30 BEGIN BOND
M  V30 1 1 1 2
M  V30 2 1 2 3
M  V30 3 1 3 4
M  V30 4 1 4 5
M  V30 5 1 5 6
M  V30 6 1 6 7
M  V30 7 1 7 8
M  V30 8 1 8 9
M  V30 9 1 7 10
M  V30 10 2 10 11
M  V30 11 1 10 12
M  V30 12 1 12 13
M  V30 13 1 13 14
M  V30 14 2 14 15
M  V30 15 1 14 16
M  V30 16 1 9 4
M  V30 17 1 1 17
M  V30 18 1 1 18
M  V30 19 1 2 19
M  V30 20 1 2 20
M  V30 21 1 3 21
M  V30 22 1 3 22
M  V30 23 1 5 23
M  V30 24 1 5 24
M  V30 25 1 6 25
M  V30 26 1 6 26
M  V30 27 1 8 27
M  V30 28 1 8 28
M  V30 29 1 9 29
M  V30 30 1 9 30
M  V30 31 1 12 31
M  V30 32 1 12 32
M  V30 33 1 13 33
M  V30 34 1 16 34
M  V30 35 1 16 35
M  V30 END BOND
M  V30 END CTAB
M  END
