
     RDKit          3D

  0  0  0  0  0  0  0  0  0  0999 V3000
M  V30 BEGIN CTAB
M  V30 COUNTS 45 47 0 0 0
M  V30 BEGIN ATOM
M  V30 1 N 1.18046 4.39282 -0.846577 0
M  V30 2 C 0.414261 3.34919 -0.222657 0
M  V30 3 N 0.883114 2.13299 -0.0424543 0
M  V30 4 C 0.180651 1.11162 0.549137 0
M  V30 5 N 0.842216 -0.133863 0.638243 0
M  V30 6 C 2.19581 -0.286304 0.155064 0
M  V30 7 C 2.25781 0.0303133 -1.31322 0
M  V30 8 C 3.03355 -1.0041 -2.09449 0
M  V30 9 C 4.34229 -1.2213 -1.36622 0
M  V30 10 C 4.03415 -1.96971 -0.0987828 0
M  V30 11 C 2.72562 -1.62681 0.514846 0
M  V30 12 C -1.08742 1.38888 0.975188 0
M  V30 13 C -1.59186 2.6747 0.787758 0
M  V30 14 N -0.845135 3.6266 0.199061 0
M  V30 15 N -2.89618 3.03263 1.20309 0
M  V30 16 S -2.04057 0.166837 1.7517 0
M  V30 17 O -3.05299 0.95702 2.61863 0
M  V30 18 O -1.2221 -0.630862 2.72245 0
M  V30 19 C -2.93048 -0.824111 0.639346 0
M  V30 20 C -4.19027 -0.435877 0.237205 0
M  V30 21 C -4.94602 -1.18682 -0.643476 0
M  V30 22 C -4.42802 -2.3553 -1.1338 0
M  V30 23 C -3.1743 -2.78298 -0.760432 0
M  V30 24 C -2.43455 -1.99976 0.132937 0
M  V30 25 H 1.72315 4.2204 -1.71218 0
M  V30 26 H 1.1553 5.32092 -0.378804 0
M  V30 27 H 0.363594 -0.948828 1.04289 0
M  V30 28 H 2.8034 0.484454 0.715436 0
M  V30 29 H 1.23367 0.0898081 -1.776 0
M  V30 30 H 2.73844 1.02104 -1.47284 0
M  V30 31 H 3.23167 -0.63529 -3.1057 0
M  V30 32 H 2.44953 -1.95403 -2.08802 0
M  V30 33 H 4.82645 -0.254008 -1.13279 0
M  V30 34 H 5.03017 -1.82314 -1.99415 0
M  V30 35 H 4.03289 -3.05459 -0.354064 0
M  V30 36 H 4.89993 -1.81112 0.601376 0
M  V30 37 H 1.94226 -2.40358 0.313796 0
M  V30 38 H 2.85824 -1.64857 1.62919 0
M  V30 39 H -3.71707 2.7172 0.660515 0
M  V30 40 H -3.01847 3.61182 2.05334 0
M  V30 41 H -4.63242 0.495734 0.612963 0
M  V30 42 H -5.94 -0.821579 -0.922474 0
M  V30 43 H -5.01338 -2.9401 -1.81801 0
M  V30 44 H -2.75286 -3.72049 -1.15079 0
M  V30 45 H -1.46455 -2.35186 0.409077 0
M  V30 END ATOM
M  V30 BEGIN BOND
M  V30 1 1 1 2
M  V30 2 2 2 3
M  V30 3 1 3 4
M  V30 4 1 4 5
M  V30 5 1 5 6
M  V30 6 1 6 7
M  V30 7 1 7 8
M  V30 8 1 8 9
M  V30 9 1 9 10
M  V30 10 1 10 11
M  V30 11 2 4 12
M  V30 12 1 12 13
M  V30 13 2 13 14
M  V30 14 1 13 15
M  V30 15 1 12 16
M  V30 16 2 16 17
M  V30 17 2 16 18
M  V30 18 1 16 19
M  V30 19 2 19 20
M  V30 20 1 20 21
M  V30 21 2 21 22
M  V30 22 1 22 23
M  V30 23 2 23 24
M  V30 24 1 14 2
M  V30 25 1 24 19
M  V30 26 1 11 6
M  V30 27 1 1 25
M  V30 28 1 1 26
M  V30 29 1 5 27
M  V30 30 1 6 28
M  V30 31 1 7 29
M  V30 32 1 7 30
M  V30 33 1 8 31
M  V30 34 1 8 32
M  V30 35 1 9 33
M  V30 36 1 9 34
M  V30 37 1 10 35
M  V30 38 1 10 36
M  V30 39 1 11 37
M  V30 40 1 11 38
M  V30 41 1 15 39
M  V30 42 1 15 40
M  V30 43 1 20 41
M  V30 44 1 21 42
M  V30 45 1 22 43
M  V30 46 1 23 44
M  V30 47 1 24 45
M  V30 END BOND
M  V30 END CTAB
M  END
