
     RDKit          3D

  0  0  0  0  0  0  0  0  0  0999 V3000
M  V30 BEGIN CTAB
M  V30 COUNTS 38 39 0 0 0
M  V30 BEGIN ATOM
M  V30 1 N -1.39959 -2.0764 -0.483944 0
M  V30 2 C -1.86794 -1.10472 0.482358 0
M  V30 3 C -0.833459 -0.461041 1.27939 0
M  V30 4 O -1.27895 0.252159 2.25877 0
M  V30 5 N 0.554122 -0.503786 1.1382 0
M  V30 6 C 1.17942 -1.25976 0.0906153 0
M  V30 7 C 2.67337 -0.908188 0.148794 0
M  V30 8 N 2.76185 0.534066 0.0336336 0
M  V30 9 C 2.35139 1.14256 1.28665 0
M  V30 10 C 1.40473 0.218342 2.0491 0
M  V30 11 S 4.34845 1.04173 -0.424471 0
M  V30 12 O 4.32011 2.54142 -0.55478 0
M  V30 13 O 5.36833 0.593555 0.584024 0
M  V30 14 N 4.72546 0.383915 -1.95924 0
M  V30 15 C -2.85312 -0.217473 -0.152609 0
M  V30 16 C -3.91345 -0.760831 -0.838012 0
M  V30 17 C -4.86738 0.0246304 -1.46731 0
M  V30 18 C -4.70859 1.39052 -1.37746 0
M  V30 19 C -3.66994 1.96337 -0.706673 0
M  V30 20 C -2.73741 1.13609 -0.091107 0
M  V30 21 H -1.35165 -1.66604 -1.45633 0
M  V30 22 H -2.12472 -2.82351 -0.563371 0
M  V30 23 H -2.47845 -1.71642 1.22656 0
M  V30 24 H 1.05184 -2.36005 0.187644 0
M  V30 25 H 0.867184 -0.948786 -0.933354 0
M  V30 26 H 3.153 -1.33334 -0.757056 0
M  V30 27 H 3.13155 -1.25374 1.08211 0
M  V30 28 H 3.18936 1.36582 1.95272 0
M  V30 29 H 1.76968 2.05555 1.05103 0
M  V30 30 H 1.9605 -0.508021 2.67872 0
M  V30 31 H 0.843042 0.86946 2.74443 0
M  V30 32 H 5.18956 -0.535375 -1.9033 0
M  V30 33 H 3.93136 0.424375 -2.62707 0
M  V30 34 H -4.05999 -1.84073 -0.922733 0
M  V30 35 H -5.70631 -0.391935 -2.00973 0
M  V30 36 H -5.44937 2.03766 -1.86633 0
M  V30 37 H -3.55896 3.04634 -0.645146 0
M  V30 38 H -1.91505 1.6486 0.429692 0
M  V30 END ATOM
M  V30 BEGIN BOND
M  V30 1 1 1 2
M  V30 2 1 2 3
M  V30 3 2 3 4
M  V30 4 1 3 5
M  V30 5 1 5 6
M  V30 6 1 6 7
M  V30 7 1 7 8
M  V30 8 1 8 9
M  V30 9 1 9 10
M  V30 10 1 8 11
M  V30 11 2 11 12
M  V30 12 2 11 13
M  V30 13 1 11 14
M  V30 14 1 2 15
M  V30 15 2 15 16
M  V30 16 1 16 17
M  V30 17 2 17 18
M  V30 18 1 18 19
M  V30 19 2 19 20
M  V30 20 1 10 5
M  V30 21 1 20 15
M  V30 22 1 1 21
M  V30 23 1 1 22
M  V30 24 1 2 23
M  V30 25 1 6 24
M  V30 26 1 6 25
M  V30 27 1 7 26
M  V30 28 1 7 27
M  V30 29 1 9 28
M  V30 30 1 9 29
M  V30 31 1 10 30
M  V30 32 1 10 31
M  V30 33 1 14 32
M  V30 34 1 14 33
M  V30 35 1 16 34
M  V30 36 1 17 35
M  V30 37 1 18 36
M  V30 38 1 19 37
M  V30 39 1 20 38
M  V30 END BOND
M  V30 END CTAB
M  END
