
     RDKit          3D

  0  0  0  0  0  0  0  0  0  0999 V3000
M  V30 BEGIN CTAB
M  V30 COUNTS 22 22 0 0 0
M  V30 BEGIN ATOM
M  V30 1 N -2.46955 0.833376 0.88933 0
M  V30 2 C -2.62176 0.519434 -0.503898 0
M  V30 3 C -1.82709 -0.746026 -0.843684 0 CFG=1
M  V30 4 C -0.391372 -0.475371 -0.513427 0
M  V30 5 N 0.213862 0.713973 -0.337234 0
M  V30 6 N 1.49649 0.544615 -0.0563345 0
M  V30 7 C 1.7527 -0.776837 -0.0444969 0
M  V30 8 N 0.590331 -1.38785 -0.325349 0
M  V30 9 N 3.02813 -1.35232 0.220828 0
M  V30 10 C 2.45465 1.62909 0.195144 0
M  V30 11 O -2.34364 -1.77482 -0.0490434 0
M  V30 12 H -3.38515 0.883167 1.38159 0
M  V30 13 H -1.86022 0.129527 1.35357 0
M  V30 14 H -2.27237 1.34852 -1.1546 0
M  V30 15 H -3.69949 0.264355 -0.704938 0
M  V30 16 H -1.96209 -1.0413 -1.88197 0
M  V30 17 H 3.8768 -1.01169 -0.250217 0
M  V30 18 H 3.13517 -2.13656 0.901781 0
M  V30 19 H 3.12658 1.26419 1.02192 0
M  V30 20 H 1.91626 2.50675 0.642248 0
M  V30 21 H 3.00685 1.89674 -0.709706 0
M  V30 22 H -1.76509 -1.83097 0.768489 0
M  V30 END ATOM
M  V30 BEGIN BOND
M  V30 1 1 1 2
M  V30 2 1 2 3
M  V30 3 1 3 4
M  V30 4 2 4 5
M  V30 5 1 5 6
M  V30 6 1 6 7
M  V30 7 2 7 8
M  V30 8 1 7 9
M  V30 9 1 6 10
M  V30 10 1 3 11
M  V30 11 1 8 4
M  V30 12 1 1 12
M  V30 13 1 1 13
M  V30 14 1 2 14
M  V30 15 1 2 15
M  V30 16 1 3 16 CFG=3
M  V30 17 1 9 17
M  V30 18 1 9 18
M  V30 19 1 10 19
M  V30 20 1 10 20
M  V30 21 1 10 21
M  V30 22 1 11 22
M  V30 END BOND
M  V30 END CTAB
M  END
