
     RDKit          3D

  0  0  0  0  0  0  0  0  0  0999 V3000
M  V30 BEGIN CTAB
M  V30 COUNTS 25 26 0 0 0
M  V30 BEGIN ATOM
M  V30 1 N 3.0309 2.66269 -0.626337 0
M  V30 2 C 2.41016 1.44048 -0.261689 0
M  V30 3 N 1.07176 1.28514 -0.238499 0
M  V30 4 C 0.46153 0.137058 0.103517 0
M  V30 5 N 1.20909 -0.92437 0.443826 0
M  V30 6 C 2.54958 -0.814479 0.43465 0
M  V30 7 N 3.14233 0.342819 0.0894808 0
M  V30 8 N 3.40528 -1.89482 0.782754 0
M  V30 9 C -1.01951 0.114164 0.083617 0
M  V30 10 O -1.55266 -0.500208 1.21114 0
M  V30 11 C -2.93431 -0.323808 1.15632 0
M  V30 12 C -3.47243 -0.43531 -0.253993 0
M  V30 13 O -2.63234 -1.33173 -0.943867 0
M  V30 14 C -1.43638 -0.663795 -1.15115 0
M  V30 15 H 3.80328 2.72303 -1.3187 0
M  V30 16 H 2.70836 3.5485 -0.188352 0
M  V30 17 H 3.4663 -2.30667 1.72741 0
M  V30 18 H 4.01122 -2.29435 0.0251592 0
M  V30 19 H -1.42281 1.14694 0.0741764 0
M  V30 20 H -3.46753 -1.04313 1.80996 0
M  V30 21 H -3.15377 0.706037 1.50125 0
M  V30 22 H -4.51531 -0.777495 -0.283493 0
M  V30 23 H -3.41732 0.534152 -0.80108 0
M  V30 24 H -1.5679 0.0944495 -1.95899 0
M  V30 25 H -0.677534 -1.42529 -1.4171 0
M  V30 END ATOM
M  V30 BEGIN BOND
M  V30 1 1 1 2
M  V30 2 2 2 3
M  V30 3 1 3 4
M  V30 4 2 4 5
M  V30 5 1 5 6
M  V30 6 2 6 7
M  V30 7 1 6 8
M  V30 8 1 4 9
M  V30 9 1 9 10
M  V30 10 1 10 11
M  V30 11 1 11 12
M  V30 12 1 12 13
M  V30 13 1 13 14
M  V30 14 1 7 2
M  V30 15 1 14 9
M  V30 16 1 1 15
M  V30 17 1 1 16
M  V30 18 1 8 17
M  V30 19 1 8 18
M  V30 20 1 9 19
M  V30 21 1 11 20
M  V30 22 1 11 21
M  V30 23 1 12 22
M  V30 24 1 12 23
M  V30 25 1 14 24
M  V30 26 1 14 25
M  V30 END BOND
M  V30 END CTAB
M  END
