
     RDKit          3D

  0  0  0  0  0  0  0  0  0  0999 V3000
M  V30 BEGIN CTAB
M  V30 COUNTS 33 35 0 0 0
M  V30 BEGIN ATOM
M  V30 1 N -6.58071 0.0866383 -0.385966 0
M  V30 2 C -5.18562 0.229847 -0.123829 0
M  V30 3 C -4.2365 -0.577488 -0.709822 0
M  V30 4 C -2.87267 -0.434443 -0.451001 0
M  V30 5 C -2.43129 0.540584 0.417324 0
M  V30 6 C -3.38036 1.34853 1.00384 0
M  V30 7 C -4.72932 1.20112 0.742838 0
M  V30 8 C -1.0069 0.708566 0.703352 0
M  V30 9 C 0.0437131 -0.0238473 0.191039 0
M  V30 10 C 1.22811 0.458331 0.718175 0
M  V30 11 N 0.862327 1.4642 1.53077 0
M  V30 12 N -0.44949 1.60414 1.51622 0
M  V30 13 C 2.56713 -0.0432168 0.430074 0
M  V30 14 C 2.79667 -1.09246 -0.432985 0
M  V30 15 C 4.08638 -1.53926 -0.6798 0
M  V30 16 C 5.19238 -0.962215 -0.0803807 0
M  V30 17 N 6.50262 -1.44037 -0.351576 0
M  V30 18 C 4.94748 0.0879028 0.781859 0
M  V30 19 C 3.66539 0.535396 1.03004 0
M  V30 20 H -7.00796 -0.799667 -0.721044 0
M  V30 21 H -7.21942 0.893835 -0.242019 0
M  V30 22 H -4.57665 -1.35083 -1.39753 0
M  V30 23 H -2.13704 -1.07992 -0.921867 0
M  V30 24 H -3.02866 2.11615 1.68789 0
M  V30 25 H -5.4693 1.84903 1.21531 0
M  V30 26 H -0.0700945 -0.847244 -0.515957 0
M  V30 27 H -0.981158 2.31238 2.06063 0
M  V30 28 H 1.93177 -1.54901 -0.906228 0
M  V30 29 H 4.26244 -2.36313 -1.35791 0
M  V30 30 H 6.94506 -1.43074 -1.29339 0
M  V30 31 H 7.06493 -1.82722 0.434605 0
M  V30 32 H 5.80023 0.553888 1.26184 0
M  V30 33 H 3.46652 1.37053 1.71534 0
M  V30 END ATOM
M  V30 BEGIN BOND
M  V30 1 1 1 2
M  V30 2 2 2 3
M  V30 3 1 3 4
M  V30 4 2 4 5
M  V30 5 1 5 6
M  V30 6 2 6 7
M  V30 7 1 5 8
M  V30 8 2 8 9
M  V30 9 1 9 10
M  V30 10 2 10 11
M  V30 11 1 11 12
M  V30 12 1 10 13
M  V30 13 2 13 14
M  V30 14 1 14 15
M  V30 15 2 15 16
M  V30 16 1 16 17
M  V30 17 1 16 18
M  V30 18 2 18 19
M  V30 19 1 7 2
M  V30 20 1 12 8
M  V30 21 1 19 13
M  V30 22 1 1 20
M  V30 23 1 1 21
M  V30 24 1 3 22
M  V30 25 1 4 23
M  V30 26 1 6 24
M  V30 27 1 7 25
M  V30 28 1 9 26
M  V30 29 1 12 27
M  V30 30 1 14 28
M  V30 31 1 15 29
M  V30 32 1 17 30
M  V30 33 1 17 31
M  V30 34 1 18 32
M  V30 35 1 19 33
M  V30 END BOND
M  V30 END CTAB
M  END
