
     RDKit          3D

  0  0  0  0  0  0  0  0  0  0999 V3000
M  V30 BEGIN CTAB
M  V30 COUNTS 30 30 0 0 0
M  V30 BEGIN ATOM
M  V30 1 C -0.872318 -1.45954 1.35759 0
M  V30 2 C -1.12016 -0.556648 0.156839 0
M  V30 3 C -2.26872 0.405772 0.5175 0
M  V30 4 N -3.47347 -0.336321 0.825254 0
M  V30 5 C -2.58964 1.31977 -0.645248 0
M  V30 6 C 0.0546374 0.283999 -0.0821723 0
M  V30 7 C 1.33581 -0.27336 -0.377585 0
M  V30 8 C 1.59529 -1.59266 -0.559093 0
M  V30 9 N 2.83923 -2.06858 -0.846627 0
M  V30 10 C 3.90419 -1.25111 -0.970063 0
M  V30 11 C 3.66688 0.104372 -0.789069 0
M  V30 12 C 2.41444 0.603764 -0.497957 0
M  V30 13 N 2.21123 2.00015 -0.32017 0
M  V30 14 F -1.57453 -1.25944 -0.935536 0
M  V30 15 H 0.147872 -1.31559 1.78745 0
M  V30 16 H -1.06488 -2.52921 1.09847 0
M  V30 17 H -1.58233 -1.24302 2.19647 0
M  V30 18 H -1.97009 1.05146 1.37314 0
M  V30 19 H -4.1464 0.331527 1.2214 0
M  V30 20 H -3.78071 -0.849927 -0.019319 0
M  V30 21 H -2.53218 0.820765 -1.62732 0
M  V30 22 H -3.6468 1.68241 -0.556528 0
M  V30 23 H -1.97737 2.26079 -0.634344 0
M  V30 24 H 0.151302 0.971413 0.817614 0
M  V30 25 H -0.213885 1.01693 -0.907438 0
M  V30 26 H 0.792833 -2.29881 -0.481002 0
M  V30 27 H 4.88409 -1.64394 -1.19748 0
M  V30 28 H 4.5333 0.747174 -0.8899 0
M  V30 29 H 3.01589 2.63861 -0.14619 0
M  V30 30 H 1.26649 2.43923 -0.355074 0
M  V30 END ATOM
M  V30 BEGIN BOND
M  V30 1 1 1 2
M  V30 2 1 2 3
M  V30 3 1 3 4
M  V30 4 1 3 5
M  V30 5 1 2 6
M  V30 6 1 6 7
M  V30 7 2 7 8
M  V30 8 1 8 9
M  V30 9 2 9 10
M  V30 10 1 10 11
M  V30 11 2 11 12
M  V30 12 1 12 13
M  V30 13 1 2 14
M  V30 14 1 12 7
M  V30 15 1 1 15
M  V30 16 1 1 16
M  V30 17 1 1 17
M  V30 18 1 3 18
M  V30 19 1 4 19
M  V30 20 1 4 20
M  V30 21 1 5 21
M  V30 22 1 5 22
M  V30 23 1 5 23
M  V30 24 1 6 24
M  V30 25 1 6 25
M  V30 26 1 8 26
M  V30 27 1 10 27
M  V30 28 1 11 28
M  V30 29 1 13 29
M  V30 30 1 13 30
M  V30 END BOND
M  V30 END CTAB
M  END
