
     RDKit          3D

  0  0  0  0  0  0  0  0  0  0999 V3000
M  V30 BEGIN CTAB
M  V30 COUNTS 35 35 0 0 0
M  V30 BEGIN ATOM
M  V30 1 N -2.77256 -1.98429 0.160819 0
M  V30 2 C -1.64154 -1.15424 0.541596 0
M  V30 3 C -1.88397 0.206403 -0.057229 0
M  V30 4 C -0.711591 1.1155 -0.0979682 0
M  V30 5 C -0.887712 2.10423 1.07424 0
M  V30 6 C -0.857357 1.95202 -1.37464 0
M  V30 7 N 0.579104 0.508587 -0.0610382 0
M  V30 8 C 0.78957 -0.900841 0.0146047 0
M  V30 9 C -0.437809 -1.73739 -0.168443 0
M  V30 10 C 1.34092 -1.30946 1.39614 0
M  V30 11 C 1.8139 -1.39227 -0.994775 0
M  V30 12 C 1.71233 1.40268 -0.0976241 0
M  V30 13 S 1.55053 3.02637 -0.167882 0
M  V30 14 N 3.05655 0.942412 -0.0706107 0
M  V30 15 H -3.63255 -1.43562 0.344618 0
M  V30 16 H -2.69287 -2.10015 -0.88961 0
M  V30 17 H -1.52205 -1.13481 1.64409 0
M  V30 18 H -2.22906 0.00696865 -1.10536 0
M  V30 19 H -2.7072 0.693035 0.503137 0
M  V30 20 H -0.0442551 2.02914 1.78648 0
M  V30 21 H -1.79652 1.87166 1.66711 0
M  V30 22 H -1.01128 3.13909 0.716476 0
M  V30 23 H -1.72402 1.54735 -1.93102 0
M  V30 24 H 0.0403226 1.73108 -1.99296 0
M  V30 25 H -0.96603 3.03108 -1.15297 0
M  V30 26 H -0.693713 -1.83896 -1.23141 0
M  V30 27 H -0.226154 -2.74802 0.240182 0
M  V30 28 H 2.38161 -1.02323 1.53448 0
M  V30 29 H 1.22575 -2.43391 1.41693 0
M  V30 30 H 0.645619 -0.934697 2.17378 0
M  V30 31 H 2.79427 -1.59439 -0.513612 0
M  V30 32 H 1.87577 -0.743189 -1.88367 0
M  V30 33 H 1.47063 -2.38067 -1.35756 0
M  V30 34 H 3.58601 0.620464 -0.907509 0
M  V30 35 H 3.57535 0.918088 0.841203 0
M  V30 END ATOM
M  V30 BEGIN BOND
M  V30 1 1 1 2
M  V30 2 1 2 3
M  V30 3 1 3 4
M  V30 4 1 4 5
M  V30 5 1 4 6
M  V30 6 1 4 7
M  V30 7 1 7 8
M  V30 8 1 8 9
M  V30 9 1 8 10
M  V30 10 1 8 11
M  V30 11 1 7 12
M  V30 12 2 12 13
M  V30 13 1 12 14
M  V30 14 1 9 2
M  V30 15 1 1 15
M  V30 16 1 1 16
M  V30 17 1 2 17
M  V30 18 1 3 18
M  V30 19 1 3 19
M  V30 20 1 5 20
M  V30 21 1 5 21
M  V30 22 1 5 22
M  V30 23 1 6 23
M  V30 24 1 6 24
M  V30 25 1 6 25
M  V30 26 1 9 26
M  V30 27 1 9 27
M  V30 28 1 10 28
M  V30 29 1 10 29
M  V30 30 1 10 30
M  V30 31 1 11 31
M  V30 32 1 11 32
M  V30 33 1 11 33
M  V30 34 1 14 34
M  V30 35 1 14 35
M  V30 END BOND
M  V30 END CTAB
M  END
