
     RDKit          3D

  0  0  0  0  0  0  0  0  0  0999 V3000
M  V30 BEGIN CTAB
M  V30 COUNTS 39 40 0 0 0
M  V30 BEGIN ATOM
M  V30 1 N -4.07648 -1.98977 0.559519 0
M  V30 2 C -3.10315 -0.845948 0.582797 0
M  V30 3 C -3.26339 -0.17087 -0.73955 0
M  V30 4 C -4.6533 0.36104 -1.03487 0
M  V30 5 C -3.52238 1.27571 -0.856374 0
M  V30 6 C -1.81382 -1.44223 0.930528 0
M  V30 7 N -0.636895 -0.688479 1.0743 0
M  V30 8 C 0.125855 0.0569226 0.151506 0
M  V30 9 O -0.214525 0.107848 -1.03539 0
M  V30 10 C 1.35298 0.796367 0.584053 0
M  V30 11 C 2.58781 0.307577 -0.0866468 0
M  V30 12 C 3.72947 0.0299508 0.686711 0
M  V30 13 C 4.90498 -0.412072 0.13427 0
M  V30 14 C 5.02813 -0.608802 -1.2232 0
M  V30 15 C 3.92342 -0.34298 -1.99852 0
M  V30 16 C 2.71944 0.10957 -1.43597 0
M  V30 17 Br 6.67003 -1.22635 -1.9934 0
M  V30 18 N 1.49917 0.71793 2.03598 0
M  V30 19 C 1.13455 2.26709 0.279804 0
M  V30 20 H -3.70706 -2.60046 -0.22318 0
M  V30 21 H -3.85228 -2.51006 1.43826 0
M  V30 22 H -3.52946 -0.160638 1.34485 0
M  V30 23 H -2.82722 -0.690646 -1.62397 0
M  V30 24 H -5.39686 0.329525 -0.206803 0
M  V30 25 H -5.09275 0.144788 -2.02235 0
M  V30 26 H -3.13067 1.7984 -1.77135 0
M  V30 27 H -3.48641 1.9363 0.0417131 0
M  V30 28 H -1.95482 -2.06626 1.87348 0
M  V30 29 H -1.60361 -2.2779 0.172506 0
M  V30 30 H -0.214288 -0.657397 2.08936 0
M  V30 31 H 3.62981 0.186856 1.7546 0
M  V30 32 H 5.77331 -0.620967 0.742387 0
M  V30 33 H 3.99073 -0.487143 -3.05734 0
M  V30 34 H 1.87531 0.315841 -2.09105 0
M  V30 35 H 2.08344 1.49799 2.34065 0
M  V30 36 H 1.74228 -0.208784 2.38496 0
M  V30 37 H 0.853863 2.33626 -0.79665 0
M  V30 38 H 2.11312 2.77149 0.444517 0
M  V30 39 H 0.341678 2.66031 0.949356 0
M  V30 END ATOM
M  V30 BEGIN BOND
M  V30 1 1 1 2
M  V30 2 1 2 3
M  V30 3 1 3 4
M  V30 4 1 4 5
M  V30 5 1 2 6
M  V30 6 1 6 7
M  V30 7 1 7 8
M  V30 8 2 8 9
M  V30 9 1 8 10
M  V30 10 1 10 11
M  V30 11 2 11 12
M  V30 12 1 12 13
M  V30 13 2 13 14
M  V30 14 1 14 15
M  V30 15 2 15 16
M  V30 16 1 14 17
M  V30 17 1 10 18
M  V30 18 1 10 19
M  V30 19 1 5 3
M  V30 20 1 16 11
M  V30 21 1 1 20
M  V30 22 1 1 21
M  V30 23 1 2 22
M  V30 24 1 3 23
M  V30 25 1 4 24
M  V30 26 1 4 25
M  V30 27 1 5 26
M  V30 28 1 5 27
M  V30 29 1 6 28
M  V30 30 1 6 29
M  V30 31 1 7 30
M  V30 32 1 12 31
M  V30 33 1 13 32
M  V30 34 1 15 33
M  V30 35 1 16 34
M  V30 36 1 18 35
M  V30 37 1 18 36
M  V30 38 1 19 37
M  V30 39 1 19 38
M  V30 40 1 19 39
M  V30 END BOND
M  V30 END CTAB
M  END
