
     RDKit          3D

  0  0  0  0  0  0  0  0  0  0999 V3000
M  V30 BEGIN CTAB
M  V30 COUNTS 25 25 0 0 0
M  V30 BEGIN ATOM
M  V30 1 C 4.64964 -0.380291 -0.880993 0
M  V30 2 O 3.72358 0.203116 -0.0185811 0
M  V30 3 C 2.35478 0.169837 -0.154823 0
M  V30 4 O 1.87179 -0.439914 -1.14495 0
M  V30 5 C 1.43225 0.825598 0.821368 0
M  V30 6 C 0.0109712 0.63264 0.430851 0
M  V30 7 C -0.744524 1.64833 -0.147683 0
M  V30 8 C -2.0584 1.46412 -0.506219 0
M  V30 9 C -2.69294 0.259558 -0.30908 0
M  V30 10 C -1.95876 -0.760366 0.263998 0
M  V30 11 C -0.642306 -0.565453 0.619844 0
M  V30 12 F 0.0457649 -1.58515 1.17796 0
M  V30 13 N -2.5777 -2.03152 0.488292 0
M  V30 14 N -4.06775 0.0680498 -0.684148 0
M  V30 15 H 4.83467 -1.4629 -0.665051 0
M  V30 16 H 4.424 -0.301113 -1.94339 0
M  V30 17 H 5.64039 0.11788 -0.681086 0
M  V30 18 H 1.65812 1.9056 0.945971 0
M  V30 19 H 1.65701 0.351781 1.80715 0
M  V30 20 H -0.242489 2.59089 -0.30059 0
M  V30 21 H -2.6325 2.28318 -0.961439 0
M  V30 22 H -2.88733 -2.35351 1.42909 0
M  V30 23 H -2.71109 -2.64274 -0.353856 0
M  V30 24 H -4.82387 -0.00935793 0.0282839 0
M  V30 25 H -4.26332 0.0117414 -1.69583 0
M  V30 END ATOM
M  V30 BEGIN BOND
M  V30 1 1 1 2
M  V30 2 1 2 3
M  V30 3 2 3 4
M  V30 4 1 3 5
M  V30 5 1 5 6
M  V30 6 2 6 7
M  V30 7 1 7 8
M  V30 8 2 8 9
M  V30 9 1 9 10
M  V30 10 2 10 11
M  V30 11 1 11 12
M  V30 12 1 10 13
M  V30 13 1 9 14
M  V30 14 1 11 6
M  V30 15 1 1 15
M  V30 16 1 1 16
M  V30 17 1 1 17
M  V30 18 1 5 18
M  V30 19 1 5 19
M  V30 20 1 7 20
M  V30 21 1 8 21
M  V30 22 1 13 22
M  V30 23 1 13 23
M  V30 24 1 14 24
M  V30 25 1 14 25
M  V30 END BOND
M  V30 END CTAB
M  END
