
     RDKit          3D

  0  0  0  0  0  0  0  0  0  0999 V3000
M  V30 BEGIN CTAB
M  V30 COUNTS 18 18 0 0 0
M  V30 BEGIN ATOM
M  V30 1 N 2.70987 0.192633 0.269273 0
M  V30 2 C 1.38524 0.615448 0.00430006 0
M  V30 3 N 1.05905 1.87263 -0.345803 0
M  V30 4 C -0.220265 2.23441 -0.590227 0
M  V30 5 C -1.26535 1.31023 -0.488588 0
M  V30 6 C -0.942726 0.024826 -0.131944 0
M  V30 7 C 0.367447 -0.318862 0.11175 0
M  V30 8 N 0.683627 -1.62938 0.473833 0
M  V30 9 C -2.00249 -0.992422 -0.00910726 0
M  V30 10 F -1.96451 -1.44961 1.31571 0
M  V30 11 F -3.25748 -0.488665 -0.206046 0
M  V30 12 F -1.78376 -2.07851 -0.830228 0
M  V30 13 H 3.06855 0.370736 1.25171 0
M  V30 14 H 3.32013 -0.270228 -0.443003 0
M  V30 15 H -0.488985 3.25404 -0.874687 0
M  V30 16 H -2.27499 1.64543 -0.693768 0
M  V30 17 H 0.661302 -2.37604 -0.254918 0
M  V30 18 H 0.945343 -1.91667 1.44174 0
M  V30 END ATOM
M  V30 BEGIN BOND
M  V30 1 1 1 2
M  V30 2 2 2 3
M  V30 3 1 3 4
M  V30 4 2 4 5
M  V30 5 1 5 6
M  V30 6 2 6 7
M  V30 7 1 7 8
M  V30 8 1 6 9
M  V30 9 1 9 10
M  V30 10 1 9 11
M  V30 11 1 9 12
M  V30 12 1 7 2
M  V30 13 1 1 13
M  V30 14 1 1 14
M  V30 15 1 4 15
M  V30 16 1 5 16
M  V30 17 1 8 17
M  V30 18 1 8 18
M  V30 END BOND
M  V30 END CTAB
M  END
