
     RDKit          3D

  0  0  0  0  0  0  0  0  0  0999 V3000
M  V30 BEGIN CTAB
M  V30 COUNTS 32 32 0 0 0
M  V30 BEGIN ATOM
M  V30 1 N -3.08546 1.15924 0.896737 0
M  V30 2 C -2.91269 0.359338 -0.275428 0
M  V30 3 C -2.3038 -0.979581 -0.0685869 0
M  V30 4 S -0.689809 -1.05883 0.645584 0
M  V30 5 C 0.653842 -0.374617 -0.318218 0
M  V30 6 C 0.619123 1.1337 -0.382723 0
M  V30 7 C 1.66527 1.46828 -1.46179 0
M  V30 8 C 2.97545 1.24959 -0.782672 0
M  V30 9 C 3.16932 -0.0843763 -0.163117 0
M  V30 10 C 1.99749 -0.936674 0.0341815 0
M  V30 11 N 2.0054 -1.47777 1.39724 0
M  V30 12 C -3.29751 -1.84747 0.731374 0
M  V30 13 H -2.45915 1.99577 0.793266 0
M  V30 14 H -4.05495 1.58234 0.962127 0
M  V30 15 H -3.98065 0.168098 -0.651526 0
M  V30 16 H -2.4777 0.91997 -1.14352 0
M  V30 17 H -2.30165 -1.4792 -1.08777 0
M  V30 18 H 0.428187 -0.679099 -1.39668 0
M  V30 19 H 0.955232 1.52214 0.603131 0
M  V30 20 H -0.306472 1.53704 -0.735252 0
M  V30 21 H 1.4914 0.855231 -2.35234 0
M  V30 22 H 1.58006 2.55228 -1.68974 0
M  V30 23 H 3.77389 1.49383 -1.54541 0
M  V30 24 H 3.08168 2.08307 -0.0235991 0
M  V30 25 H 3.96551 -0.61213 -0.773026 0
M  V30 26 H 3.70804 0.0908303 0.818624 0
M  V30 27 H 2.12607 -1.87009 -0.59649 0
M  V30 28 H 1.2191 -1.15999 1.95847 0
M  V30 29 H 2.94054 -1.44176 1.83345 0
M  V30 30 H -2.69059 -2.68158 1.17033 0
M  V30 31 H -4.0674 -2.28639 0.084047 0
M  V30 32 H -3.72778 -1.20118 1.51765 0
M  V30 END ATOM
M  V30 BEGIN BOND
M  V30 1 1 1 2
M  V30 2 1 2 3
M  V30 3 1 3 4
M  V30 4 1 4 5
M  V30 5 1 5 6
M  V30 6 1 6 7
M  V30 7 1 7 8
M  V30 8 1 8 9
M  V30 9 1 9 10
M  V30 10 1 10 11
M  V30 11 1 3 12
M  V30 12 1 10 5
M  V30 13 1 1 13
M  V30 14 1 1 14
M  V30 15 1 2 15
M  V30 16 1 2 16
M  V30 17 1 3 17
M  V30 18 1 5 18
M  V30 19 1 6 19
M  V30 20 1 6 20
M  V30 21 1 7 21
M  V30 22 1 7 22
M  V30 23 1 8 23
M  V30 24 1 8 24
M  V30 25 1 9 25
M  V30 26 1 9 26
M  V30 27 1 10 27
M  V30 28 1 11 28
M  V30 29 1 11 29
M  V30 30 1 12 30
M  V30 31 1 12 31
M  V30 32 1 12 32
M  V30 END BOND
M  V30 END CTAB
M  END
