
     RDKit          3D

  0  0  0  0  0  0  0  0  0  0999 V3000
M  V30 BEGIN CTAB
M  V30 COUNTS 19 19 0 0 0
M  V30 BEGIN ATOM
M  V30 1 N -3.24618 -0.970124 -0.112322 0
M  V30 2 N -2.70175 0.253563 -0.189195 0
M  V30 3 C -1.53143 0.655509 -0.239119 0
M  V30 4 C -0.283501 -0.160665 -0.227945 0
M  V30 5 C -0.330288 -1.5227 -0.156209 0
M  V30 6 S 1.32682 -1.97722 -0.174026 0
M  V30 7 C 2.02341 -0.438946 -0.271109 0
M  V30 8 C 0.943425 0.404164 -0.287835 0
M  V30 9 C 3.48273 -0.0283286 -0.328843 0
M  V30 10 N -1.40936 2.10863 -0.317286 0
M  V30 11 H -3.45588 -1.42878 0.811852 0
M  V30 12 H -3.48861 -1.52753 -0.964737 0
M  V30 13 H -1.20397 -2.20361 -0.099108 0
M  V30 14 H 1.11012 1.51205 -0.349376 0
M  V30 15 H 3.89778 0.107675 0.675296 0
M  V30 16 H 4.00325 -0.864819 -0.843241 0
M  V30 17 H 3.60905 0.865527 -0.964142 0
M  V30 18 H -0.826183 2.54832 -1.04324 0
M  V30 19 H -1.91944 2.66729 0.368917 0
M  V30 END ATOM
M  V30 BEGIN BOND
M  V30 1 1 1 2
M  V30 2 2 2 3 CFG=2
M  V30 3 1 3 4
M  V30 4 2 4 5
M  V30 5 1 5 6
M  V30 6 1 6 7
M  V30 7 2 7 8
M  V30 8 1 7 9
M  V30 9 1 3 10
M  V30 10 1 8 4
M  V30 11 1 1 11
M  V30 12 1 1 12
M  V30 13 1 5 13
M  V30 14 1 8 14
M  V30 15 1 9 15
M  V30 16 1 9 16
M  V30 17 1 9 17
M  V30 18 1 10 18
M  V30 19 1 10 19
M  V30 END BOND
M  V30 END CTAB
M  END
