
     RDKit          3D

  0  0  0  0  0  0  0  0  0  0999 V3000
M  V30 BEGIN CTAB
M  V30 COUNTS 64 66 0 0 0
M  V30 BEGIN ATOM
M  V30 1 N 6.70382 1.00023 2.46341 0
M  V30 2 C 7.08199 1.42188 1.1744 0
M  V30 3 C 7.42534 0.257112 0.286931 0
M  V30 4 C 6.2861 -0.700806 0.0996074 0
M  V30 5 C 5.07594 -0.0174233 -0.535326 0
M  V30 6 C 4.00883 -1.09132 -0.664947 0 CFG=1
M  V30 7 C 2.75128 -0.599253 -1.27053 0
M  V30 8 O 2.44794 -0.984319 -2.44394 0
M  V30 9 N 1.85442 0.2813 -0.616404 0
M  V30 10 C 0.631471 0.713045 -1.28324 0
M  V30 11 C -0.540247 -0.18455 -1.07475 0
M  V30 12 O -0.246706 -1.4578 -1.57564 0
M  V30 13 C -1.73186 0.355257 -1.86281 0
M  V30 14 C -2.91167 -0.556811 -1.70162 0
M  V30 15 N -3.21965 -0.546953 -0.262158 0
M  V30 16 C -2.19652 -1.08433 0.584805 0
M  V30 17 C -0.929219 -0.24637 0.37116 0
M  V30 18 C -4.44594 -0.0381726 0.233472 0
M  V30 19 C -4.42402 1.13639 0.994332 0
M  V30 20 C -5.57531 1.70103 1.49242 0
M  V30 21 C -5.50857 2.94793 2.29504 0
M  V30 22 N -6.72369 1.071 1.21387 0
M  V30 23 C -6.78085 -0.0694756 0.479681 0
M  V30 24 C -5.62995 -0.671139 -0.0421782 0
M  V30 25 C -5.69622 -1.82986 -0.780406 0
M  V30 26 N -6.91858 -2.39638 -1.00347 0
M  V30 27 C -8.04977 -1.85289 -0.522232 0
M  V30 28 C -7.97865 -0.693115 0.216802 0
M  V30 29 C 2.19111 0.753813 0.713185 0
M  V30 30 N 4.61873 -2.11801 -1.51276 0
M  V30 31 H 5.73251 0.960823 2.61015 0
M  V30 32 H 7.26619 1.28317 3.21512 0
M  V30 33 H 7.99737 2.06431 1.22295 0
M  V30 34 H 6.27809 2.05437 0.77263 0
M  V30 35 H 8.25547 -0.297136 0.751337 0
M  V30 36 H 7.77168 0.58886 -0.716572 0
M  V30 37 H 6.6455 -1.53263 -0.524336 0
M  V30 38 H 6.00858 -1.13243 1.08748 0
M  V30 39 H 4.77499 0.869873 0.00810845 0
M  V30 40 H 5.42555 0.312638 -1.53913 0
M  V30 41 H 3.76372 -1.54557 0.31108 0
M  V30 42 H 0.360853 1.75196 -1.02051 0
M  V30 43 H 0.881785 0.728244 -2.37671 0
M  V30 44 H -0.432347 -1.50598 -2.55245 0
M  V30 45 H -2.00898 1.33242 -1.37376 0
M  V30 46 H -1.47096 0.564532 -2.90355 0
M  V30 47 H -2.63205 -1.60092 -1.96272 0
M  V30 48 H -3.76936 -0.214752 -2.27741 0
M  V30 49 H -1.92464 -2.12145 0.308394 0
M  V30 50 H -2.44226 -1.01911 1.66412 0
M  V30 51 H -1.01841 0.764111 0.767251 0
M  V30 52 H -0.16266 -0.793775 0.984757 0
M  V30 53 H -3.46198 1.58185 1.17431 0
M  V30 54 H -6.45193 3.50141 2.09449 0
M  V30 55 H -5.5111 2.72498 3.38485 0
M  V30 56 H -4.61987 3.55027 2.05004 0
M  V30 57 H -4.79916 -2.26375 -1.15593 0
M  V30 58 H -8.98771 -2.35897 -0.739757 0
M  V30 59 H -8.89027 -0.260597 0.601293 0
M  V30 60 H 1.30045 0.994033 1.33708 0
M  V30 61 H 2.69427 1.7644 0.607641 0
M  V30 62 H 2.86505 0.0354005 1.17654 0
M  V30 63 H 4.96382 -2.91852 -0.951538 0
M  V30 64 H 4.0283 -2.36205 -2.31556 0
M  V30 END ATOM
M  V30 BEGIN BOND
M  V30 1 1 1 2
M  V30 2 1 2 3
M  V30 3 1 3 4
M  V30 4 1 4 5
M  V30 5 1 5 6
M  V30 6 1 6 7
M  V30 7 2 7 8
M  V30 8 1 7 9
M  V30 9 1 9 10
M  V30 10 1 10 11
M  V30 11 1 11 12
M  V30 12 1 11 13
M  V30 13 1 13 14
M  V30 14 1 14 15
M  V30 15 1 15 16
M  V30 16 1 16 17
M  V30 17 1 15 18
M  V30 18 2 18 19
M  V30 19 1 19 20
M  V30 20 1 20 21
M  V30 21 2 20 22
M  V30 22 1 22 23
M  V30 23 2 23 24
M  V30 24 1 24 25
M  V30 25 2 25 26
M  V30 26 1 26 27
M  V30 27 2 27 28
M  V30 28 1 9 29
M  V30 29 1 6 30
M  V30 30 1 17 11
M  V30 31 1 24 18
M  V30 32 1 28 23
M  V30 33 1 1 31
M  V30 34 1 1 32
M  V30 35 1 2 33
M  V30 36 1 2 34
M  V30 37 1 3 35
M  V30 38 1 3 36
M  V30 39 1 4 37
M  V30 40 1 4 38
M  V30 41 1 5 39
M  V30 42 1 5 40
M  V30 43 1 6 41 CFG=1
M  V30 44 1 10 42
M  V30 45 1 10 43
M  V30 46 1 12 44
M  V30 47 1 13 45
M  V30 48 1 13 46
M  V30 49 1 14 47
M  V30 50 1 14 48
M  V30 51 1 16 49
M  V30 52 1 16 50
M  V30 53 1 17 51
M  V30 54 1 17 52
M  V30 55 1 19 53
M  V30 56 1 21 54
M  V30 57 1 21 55
M  V30 58 1 21 56
M  V30 59 1 25 57
M  V30 60 1 27 58
M  V30 61 1 28 59
M  V30 62 1 29 60
M  V30 63 1 29 61
M  V30 64 1 29 62
M  V30 65 1 30 63
M  V30 66 1 30 64
M  V30 END BOND
M  V30 END CTAB
M  END
