
     RDKit          3D

  0  0  0  0  0  0  0  0  0  0999 V3000
M  V30 BEGIN CTAB
M  V30 COUNTS 22 22 0 0 0
M  V30 BEGIN ATOM
M  V30 1 C -1.32541 2.43925 1.05494 0
M  V30 2 C -0.910137 1.12905 0.493955 0
M  V30 3 C -1.85115 0.343373 -0.13625 0
M  V30 4 C -1.46565 -0.873373 -0.657238 0
M  V30 5 N -2.4112 -1.70763 -1.31313 0
M  V30 6 C -0.142942 -1.28454 -0.538885 0
M  V30 7 C 0.773627 -0.471314 0.0992332 0
M  V30 8 C 0.404329 0.746392 0.624712 0
M  V30 9 S 2.43579 -1.00469 0.239565 0
M  V30 10 O 2.48675 -2.52277 0.236185 0
M  V30 11 O 3.0344 -0.530866 1.53635 0
M  V30 12 N 3.36178 -0.479452 -1.11585 0
M  V30 13 H -2.36121 2.39562 1.46797 0
M  V30 14 H -1.29936 3.2417 0.266436 0
M  V30 15 H -0.592694 2.76097 1.82977 0
M  V30 16 H -2.89675 0.686821 -0.220474 0
M  V30 17 H -3.42862 -1.5663 -1.15684 0
M  V30 18 H -2.12072 -2.46475 -1.95242 0
M  V30 19 H 0.162101 -2.24846 -0.951713 0
M  V30 20 H 1.14148 1.39121 1.13323 0
M  V30 21 H 4.2257 0.0136698 -0.856783 0
M  V30 22 H 2.77989 0.00610138 -1.82691 0
M  V30 END ATOM
M  V30 BEGIN BOND
M  V30 1 1 1 2
M  V30 2 2 2 3
M  V30 3 1 3 4
M  V30 4 1 4 5
M  V30 5 2 4 6
M  V30 6 1 6 7
M  V30 7 2 7 8
M  V30 8 1 7 9
M  V30 9 2 9 10
M  V30 10 2 9 11
M  V30 11 1 9 12
M  V30 12 1 8 2
M  V30 13 1 1 13
M  V30 14 1 1 14
M  V30 15 1 1 15
M  V30 16 1 3 16
M  V30 17 1 5 17
M  V30 18 1 5 18
M  V30 19 1 6 19
M  V30 20 1 8 20
M  V30 21 1 12 21
M  V30 22 1 12 22
M  V30 END BOND
M  V30 END CTAB
M  END
