
     RDKit          3D

  0  0  0  0  0  0  0  0  0  0999 V3000
M  V30 BEGIN CTAB
M  V30 COUNTS 29 29 0 0 0
M  V30 BEGIN ATOM
M  V30 1 N 4.19986 -0.304748 0.286212 0
M  V30 2 C 2.86665 -0.12777 0.660759 0
M  V30 3 C 2.01242 -1.30143 0.305361 0
M  V30 4 C 1.15285 -0.393081 -0.537276 0
M  V30 5 C 2.12729 0.758452 -0.310854 0
M  V30 6 N -0.172511 -0.156957 -0.0624547 0
M  V30 7 C -1.25932 -0.322678 -0.961689 0
M  V30 8 O -1.04668 -0.682877 -2.17038 0
M  V30 9 C -2.66776 -0.0979299 -0.575748 0 CFG=2
M  V30 10 N -3.56595 -0.420089 -1.69789 0
M  V30 11 C -2.93614 1.31596 -0.114366 0
M  V30 12 C -0.491048 0.240806 1.29211 0
M  V30 13 H 4.34364 -0.721168 -0.592222 0
M  V30 14 H 4.85962 0.346096 0.599399 0
M  V30 15 H 2.7636 0.25693 1.69858 0
M  V30 16 H 1.47976 -1.77241 1.15477 0
M  V30 17 H 2.5315 -2.09531 -0.269058 0
M  V30 18 H 1.20035 -0.690712 -1.59079 0
M  V30 19 H 1.61179 1.62914 0.139803 0
M  V30 20 H 2.70275 1.06541 -1.19134 0
M  V30 21 H -2.95964 -0.795916 0.232689 0
M  V30 22 H -3.49641 -1.46554 -1.83186 0
M  V30 23 H -4.53338 -0.186153 -1.33605 0
M  V30 24 H -3.90089 1.66084 -0.554815 0
M  V30 25 H -3.0136 1.30147 0.989281 0
M  V30 26 H -2.11378 1.9554 -0.4692 0
M  V30 27 H 0.327761 0.0160239 2.00357 0
M  V30 28 H -0.639621 1.32043 1.30565 0
M  V30 29 H -1.38311 -0.332172 1.61057 0
M  V30 END ATOM
M  V30 BEGIN BOND
M  V30 1 1 1 2
M  V30 2 1 2 3
M  V30 3 1 3 4
M  V30 4 1 4 5
M  V30 5 1 4 6
M  V30 6 1 6 7
M  V30 7 2 7 8
M  V30 8 1 7 9
M  V30 9 1 9 10
M  V30 10 1 9 11
M  V30 11 1 6 12
M  V30 12 1 5 2
M  V30 13 1 1 13
M  V30 14 1 1 14
M  V30 15 1 2 15
M  V30 16 1 3 16
M  V30 17 1 3 17
M  V30 18 1 4 18
M  V30 19 1 5 19
M  V30 20 1 5 20
M  V30 21 1 9 21 CFG=1
M  V30 22 1 10 22
M  V30 23 1 10 23
M  V30 24 1 11 24
M  V30 25 1 11 25
M  V30 26 1 11 26
M  V30 27 1 12 27
M  V30 28 1 12 28
M  V30 29 1 12 29
M  V30 END BOND
M  V30 END CTAB
M  END
