
     RDKit          3D

  0  0  0  0  0  0  0  0  0  0999 V3000
M  V30 BEGIN CTAB
M  V30 COUNTS 47 50 0 0 0
M  V30 BEGIN ATOM
M  V30 1 C 5.66081 -4.12703 0.926287 0
M  V30 2 C 5.28241 -3.06 0.256932 0
M  V30 3 C 4.3945 -3.21319 -0.91335 0
M  V30 4 O 3.1632 -2.52324 -0.771016 0
M  V30 5 C 3.04033 -1.16248 -0.591383 0
M  V30 6 O 4.09602 -0.480926 -0.550782 0
M  V30 7 C 1.74956 -0.496629 -0.449104 0
M  V30 8 C 0.497156 -1.07002 -0.467157 0
M  V30 9 N 0.344521 -2.48659 -0.641747 0
M  V30 10 N -0.470651 -0.149854 -0.3066 0
M  V30 11 C 0.189165 1.03138 -0.184553 0
M  V30 12 C 1.55218 0.842446 -0.26897 0
M  V30 13 N 2.42501 1.87838 -0.174937 0
M  V30 14 C 1.95513 3.12552 0.00546452 0
M  V30 15 C 2.80246 4.21545 0.107531 0
M  V30 16 C 2.30357 5.49051 0.292786 0
M  V30 17 C 0.953279 5.73094 0.383233 0
M  V30 18 C 0.105758 4.65272 0.282674 0
M  V30 19 C 0.591798 3.36143 0.0959082 0
M  V30 20 N -0.226457 2.30273 -0.00344873 0
M  V30 21 C -1.8467 -0.378924 -0.275107 0
M  V30 22 C -2.33394 -1.42991 0.515629 0
M  V30 23 C -3.68353 -1.69318 0.577556 0
M  V30 24 C -4.55742 -0.913346 -0.146206 0
M  V30 25 C -4.10442 0.128243 -0.933188 0
M  V30 26 C -2.75218 0.372457 -0.979497 0
M  V30 27 S -6.29402 -1.19391 -0.113306 0
M  V30 28 O -6.61446 -2.62042 0.207104 0
M  V30 29 O -6.93683 -0.847611 -1.40514 0
M  V30 30 N -6.918 -0.227955 1.1939 0
M  V30 31 H 6.30885 -4.01816 1.78087 0
M  V30 32 H 5.3401 -5.12438 0.645516 0
M  V30 33 H 5.60812 -2.08041 0.546594 0
M  V30 34 H 4.9088 -2.93814 -1.86244 0
M  V30 35 H 4.10067 -4.29681 -1.03592 0
M  V30 36 H 0.730995 -3.08907 0.111215 0
M  V30 37 H -0.117095 -2.92364 -1.45528 0
M  V30 38 H 3.86377 4.00511 0.0337037 0
M  V30 39 H 3.0413 6.28697 0.362127 0
M  V30 40 H 0.622224 6.74684 0.527899 0
M  V30 41 H -0.952879 4.83395 0.352651 0
M  V30 42 H -1.66667 -2.0588 1.09516 0
M  V30 43 H -4.09276 -2.49138 1.17375 0
M  V30 44 H -4.79889 0.742778 -1.50418 0
M  V30 45 H -2.36766 1.17761 -1.58402 0
M  V30 46 H -7.84773 -0.574837 1.49378 0
M  V30 47 H -7.0494 0.74537 0.828178 0
M  V30 END ATOM
M  V30 BEGIN BOND
M  V30 1 2 1 2 CFG=2
M  V30 2 1 2 3
M  V30 3 1 3 4
M  V30 4 1 4 5
M  V30 5 2 5 6
M  V30 6 1 5 7
M  V30 7 2 7 8
M  V30 8 1 8 9
M  V30 9 1 8 10
M  V30 10 1 10 11
M  V30 11 2 11 12
M  V30 12 1 12 13
M  V30 13 2 13 14
M  V30 14 1 14 15
M  V30 15 2 15 16
M  V30 16 1 16 17
M  V30 17 2 17 18
M  V30 18 1 18 19
M  V30 19 2 19 20
M  V30 20 1 10 21
M  V30 21 2 21 22
M  V30 22 1 22 23
M  V30 23 2 23 24
M  V30 24 1 24 25
M  V30 25 2 25 26
M  V30 26 1 24 27
M  V30 27 2 27 28
M  V30 28 2 27 29
M  V30 29 1 27 30
M  V30 30 1 12 7
M  V30 31 1 19 14
M  V30 32 1 26 21
M  V30 33 1 20 11
M  V30 34 1 1 31
M  V30 35 1 1 32
M  V30 36 1 2 33
M  V30 37 1 3 34
M  V30 38 1 3 35
M  V30 39 1 9 36
M  V30 40 1 9 37
M  V30 41 1 15 38
M  V30 42 1 16 39
M  V30 43 1 17 40
M  V30 44 1 18 41
M  V30 45 1 22 42
M  V30 46 1 23 43
M  V30 47 1 25 44
M  V30 48 1 26 45
M  V30 49 1 30 46
M  V30 50 1 30 47
M  V30 END BOND
M  V30 END CTAB
M  END
