
     RDKit          3D

  0  0  0  0  0  0  0  0  0  0999 V3000
M  V30 BEGIN CTAB
M  V30 COUNTS 29 30 0 0 0
M  V30 BEGIN ATOM
M  V30 1 N 1.10143 -1.81405 -0.821491 0
M  V30 2 C 1.78825 -0.660683 -0.396595 0
M  V30 3 C 1.22992 0.57051 -0.416629 0
M  V30 4 C -0.0930347 0.933199 -0.923017 0
M  V30 5 C -1.27189 0.52303 -0.174173 0
M  V30 6 C -2.14595 -0.461242 -0.559324 0
M  V30 7 N -2.09486 -1.04301 -1.85302 0
M  V30 8 C -3.18737 -0.863248 0.259303 0
M  V30 9 C -3.40973 -0.30102 1.49932 0
M  V30 10 Br -4.83373 -0.807667 2.63553 0
M  V30 11 C -2.50977 0.695928 1.85898 0
M  V30 12 C -1.4704 1.10875 1.06592 0
M  V30 13 C 2.0714 1.61355 0.0537669 0
M  V30 14 C 3.33473 1.43225 0.494324 0
M  V30 15 C 3.87657 0.168599 0.502342 0
M  V30 16 Br 5.66019 -0.123548 1.11342 0
M  V30 17 C 3.11017 -0.860639 0.0626477 0
M  V30 18 H 0.82384 -2.02761 -1.80398 0
M  V30 19 H 0.839332 -2.53151 -0.103638 0
M  V30 20 H -0.152653 2.06147 -1.05643 0
M  V30 21 H -0.209269 0.518828 -1.96231 0
M  V30 22 H -2.07728 -2.08528 -1.92734 0
M  V30 23 H -2.07383 -0.47638 -2.73062 0
M  V30 24 H -3.87056 -1.6389 -0.0526698 0
M  V30 25 H -2.67352 1.15183 2.84381 0
M  V30 26 H -0.831529 1.87301 1.43745 0
M  V30 27 H 1.66375 2.60765 0.058417 0
M  V30 28 H 3.90433 2.2834 0.835814 0
M  V30 29 H 3.50147 -1.84721 0.0601969 0
M  V30 END ATOM
M  V30 BEGIN BOND
M  V30 1 1 1 2
M  V30 2 2 2 3
M  V30 3 1 3 4
M  V30 4 1 4 5
M  V30 5 2 5 6
M  V30 6 1 6 7
M  V30 7 1 6 8
M  V30 8 2 8 9
M  V30 9 1 9 10
M  V30 10 1 9 11
M  V30 11 2 11 12
M  V30 12 1 3 13
M  V30 13 2 13 14
M  V30 14 1 14 15
M  V30 15 1 15 16
M  V30 16 2 15 17
M  V30 17 1 17 2
M  V30 18 1 12 5
M  V30 19 1 1 18
M  V30 20 1 1 19
M  V30 21 1 4 20
M  V30 22 1 4 21
M  V30 23 1 7 22
M  V30 24 1 7 23
M  V30 25 1 8 24
M  V30 26 1 11 25
M  V30 27 1 12 26
M  V30 28 1 13 27
M  V30 29 1 14 28
M  V30 30 1 17 29
M  V30 END BOND
M  V30 END CTAB
M  END
