
     RDKit          3D

  0  0  0  0  0  0  0  0  0  0999 V3000
M  V30 BEGIN CTAB
M  V30 COUNTS 41 43 0 0 0
M  V30 BEGIN ATOM
M  V30 1 N 0.946661 -4.09117 -0.464076 0
M  V30 2 C 0.136548 -3.27151 -0.290819 0
M  V30 3 C -0.860796 -2.22316 -0.0672538 0
M  V30 4 C -2.11331 -2.54841 -0.256666 0
M  V30 5 N -2.41979 -3.88091 -0.661721 0
M  V30 6 O -3.1554 -1.64081 -0.0768899 0
M  V30 7 C -2.87714 -0.335323 0.31831 0
M  V30 8 C -1.58035 0.0304049 0.52268 0
M  V30 9 C -0.466879 -0.882931 0.346873 0
M  V30 10 C 0.61777 -0.317332 -0.506171 0
M  V30 11 C 0.349275 0.116016 -1.78784 0
M  V30 12 C 1.36722 0.632163 -2.55969 0
M  V30 13 C 2.65919 0.727045 -2.0782 0
M  V30 14 C 2.9428 0.303341 -0.812994 0
M  V30 15 C 1.91112 -0.213628 -0.0466688 0
M  V30 16 O 2.21039 -0.642865 1.24297 0
M  V30 17 C 2.15043 0.197264 2.37924 0
M  V30 18 O 4.20838 0.361005 -0.249222 0
M  V30 19 C 5.3414 0.854847 -0.897922 0
M  V30 20 C -1.37437 1.35428 0.917639 0
M  V30 21 C -2.37954 2.25582 1.09856 0
M  V30 22 C -3.66968 1.82912 0.877254 0
M  V30 23 C -3.95453 0.548647 0.488668 0
M  V30 24 N -4.72003 2.7744 1.06728 0
M  V30 25 H -1.83567 -4.65243 -0.317949 0
M  V30 26 H -3.21222 -4.06345 -1.28708 0
M  V30 27 H -0.00217016 -1.00672 1.37048 0
M  V30 28 H -0.649893 0.0538738 -2.18959 0
M  V30 29 H 1.18706 0.98129 -3.57198 0
M  V30 30 H 3.46595 1.13016 -2.67462 0
M  V30 31 H 3.14201 0.107076 2.90126 0
M  V30 32 H 1.38223 -0.0874302 3.10204 0
M  V30 33 H 2.02125 1.26278 2.13233 0
M  V30 34 H 5.3144 0.604559 -1.961 0
M  V30 35 H 5.38361 1.96223 -0.74888 0
M  V30 36 H 6.23702 0.44323 -0.365189 0
M  V30 37 H -0.344795 1.6518 1.08189 0
M  V30 38 H -2.15373 3.28131 1.40949 0
M  V30 39 H -4.9396 0.184091 0.308515 0
M  V30 40 H -5.59841 2.45895 1.5481 0
M  V30 41 H -4.66641 3.75236 0.758836 0
M  V30 END ATOM
M  V30 BEGIN BOND
M  V30 1 3 1 2
M  V30 2 1 2 3
M  V30 3 2 3 4
M  V30 4 1 4 5
M  V30 5 1 4 6
M  V30 6 1 6 7
M  V30 7 2 7 8
M  V30 8 1 8 9
M  V30 9 1 9 10
M  V30 10 2 10 11
M  V30 11 1 11 12
M  V30 12 2 12 13
M  V30 13 1 13 14
M  V30 14 2 14 15
M  V30 15 1 15 16
M  V30 16 1 16 17
M  V30 17 1 14 18
M  V30 18 1 18 19
M  V30 19 1 8 20
M  V30 20 2 20 21
M  V30 21 1 21 22
M  V30 22 2 22 23
M  V30 23 1 22 24
M  V30 24 1 9 3
M  V30 25 1 15 10
M  V30 26 1 23 7
M  V30 27 1 5 25
M  V30 28 1 5 26
M  V30 29 1 9 27
M  V30 30 1 11 28
M  V30 31 1 12 29
M  V30 32 1 13 30
M  V30 33 1 17 31
M  V30 34 1 17 32
M  V30 35 1 17 33
M  V30 36 1 19 34
M  V30 37 1 19 35
M  V30 38 1 19 36
M  V30 39 1 20 37
M  V30 40 1 21 38
M  V30 41 1 23 39
M  V30 42 1 24 40
M  V30 43 1 24 41
M  V30 END BOND
M  V30 END CTAB
M  END
