
     RDKit          3D

  0  0  0  0  0  0  0  0  0  0999 V3000
M  V30 BEGIN CTAB
M  V30 COUNTS 44 44 0 0 0
M  V30 BEGIN ATOM
M  V30 1 N -3.49785 -1.31774 1.29491 0
M  V30 2 C -3.59691 -0.920239 -0.0967903 0 CFG=1
M  V30 3 C -4.55555 0.233737 -0.17321 0
M  V30 4 C -5.8951 -0.269564 0.366765 0
M  V30 5 C -4.03313 1.34134 0.706424 0
M  V30 6 C -4.79582 0.688009 -1.59675 0
M  V30 7 C -2.25967 -0.613157 -0.627797 0
M  V30 8 O -2.13986 -0.251225 -1.81416 0
M  V30 9 N -1.12234 -0.724331 0.188557 0
M  V30 10 C 0.226209 -0.430253 -0.293798 0
M  V30 11 C 1.21211 -0.648745 0.829881 0
M  V30 12 C 2.60639 -0.365566 0.401698 0
M  V30 13 C 3.42086 -1.34758 -0.138844 0
M  V30 14 C 4.72115 -1.09859 -0.542004 0
M  V30 15 C 5.25313 0.155418 -0.41535 0
M  V30 16 C 4.46818 1.1579 0.119795 0
M  V30 17 C 3.17268 0.890421 0.516558 0
M  V30 18 S 6.90091 0.508163 -0.916857 0
M  V30 19 O 7.28258 -0.359374 -2.07481 0
M  V30 20 O 6.98891 1.95391 -1.35104 0
M  V30 21 N 7.99368 0.252834 0.395866 0
M  V30 22 H -3.12587 -0.615204 1.91827 0
M  V30 23 H -3.16358 -2.25949 1.44355 0
M  V30 24 H -3.99118 -1.82328 -0.640274 0
M  V30 25 H -5.74566 -0.904047 1.26425 0
M  V30 26 H -6.52934 0.571033 0.672888 0
M  V30 27 H -6.36996 -0.891473 -0.417789 0
M  V30 28 H -2.9725 1.19141 0.983463 0
M  V30 29 H -4.68846 1.46168 1.59896 0
M  V30 30 H -4.05087 2.2727 0.0736654 0
M  V30 31 H -4.55249 -0.141881 -2.30897 0
M  V30 32 H -4.19472 1.58136 -1.77383 0
M  V30 33 H -5.87604 0.905759 -1.76925 0
M  V30 34 H -1.24427 -1.02902 1.17918 0
M  V30 35 H 0.269585 0.658023 -0.547774 0
M  V30 36 H 0.483992 -0.984338 -1.20086 0
M  V30 37 H 1.14755 -1.71392 1.14795 0
M  V30 38 H 0.924789 -0.0490688 1.71859 0
M  V30 39 H 3.00177 -2.35097 -0.242547 0
M  V30 40 H 5.33194 -1.90018 -0.963873 0
M  V30 41 H 4.89777 2.13365 0.212736 0
M  V30 42 H 2.54338 1.67709 0.94127 0
M  V30 43 H 7.90401 1.09181 1.02064 0
M  V30 44 H 7.64961 -0.587838 0.910728 0
M  V30 END ATOM
M  V30 BEGIN BOND
M  V30 1 1 1 2
M  V30 2 1 2 3
M  V30 3 1 3 4
M  V30 4 1 3 5
M  V30 5 1 3 6
M  V30 6 1 2 7
M  V30 7 2 7 8
M  V30 8 1 7 9
M  V30 9 1 9 10
M  V30 10 1 10 11
M  V30 11 1 11 12
M  V30 12 2 12 13
M  V30 13 1 13 14
M  V30 14 2 14 15
M  V30 15 1 15 16
M  V30 16 2 16 17
M  V30 17 1 15 18
M  V30 18 2 18 19
M  V30 19 2 18 20
M  V30 20 1 18 21
M  V30 21 1 17 12
M  V30 22 1 1 22
M  V30 23 1 1 23
M  V30 24 1 2 24 CFG=3
M  V30 25 1 4 25
M  V30 26 1 4 26
M  V30 27 1 4 27
M  V30 28 1 5 28
M  V30 29 1 5 29
M  V30 30 1 5 30
M  V30 31 1 6 31
M  V30 32 1 6 32
M  V30 33 1 6 33
M  V30 34 1 9 34
M  V30 35 1 10 35
M  V30 36 1 10 36
M  V30 37 1 11 37
M  V30 38 1 11 38
M  V30 39 1 13 39
M  V30 40 1 14 40
M  V30 41 1 16 41
M  V30 42 1 17 42
M  V30 43 1 21 43
M  V30 44 1 21 44
M  V30 END BOND
M  V30 END CTAB
M  END
