
     RDKit          3D

  0  0  0  0  0  0  0  0  0  0999 V3000
M  V30 BEGIN CTAB
M  V30 COUNTS 50 50 0 0 0
M  V30 BEGIN ATOM
M  V30 1 C -6.63159 0.352148 1.96379 0
M  V30 2 C -5.47539 1.01415 1.25689 0
M  V30 3 C -4.36755 -0.062725 1.1091 0
M  V30 4 C -3.25153 0.588123 0.423009 0
M  V30 5 C -1.99021 -0.169347 0.149848 0
M  V30 6 N -1.13009 0.808531 -0.528111 0
M  V30 7 C 0.273396 0.738599 -0.597536 0
M  V30 8 C 0.937379 1.64174 -1.41582 0
M  V30 9 N 0.233879 2.59804 -2.19564 0
M  V30 10 C 2.32429 1.65536 -1.51311 0
M  V30 11 N 2.94504 2.61999 -2.3817 0
M  V30 12 N 3.05457 0.781783 -0.806263 0
M  V30 13 C 2.44137 -0.118128 0.00664644 0
M  V30 14 N 3.22405 -1.03646 0.748748 0
M  V30 15 C 4.64056 -1.05031 0.672493 0
M  V30 16 O 5.33177 -1.86031 1.32709 0
M  V30 17 O 5.3174 -0.153256 -0.142269 0
M  V30 18 C 6.7388 -0.149782 -0.23377 0
M  V30 19 C 7.35468 0.11627 1.13306 0
M  V30 20 C 1.07118 -0.133381 0.104797 0
M  V30 21 C -2.21664 -1.36358 -0.747094 0
M  V30 22 C -2.95987 -2.50021 -0.0328038 0
M  V30 23 O -1.03551 -1.96695 -1.17868 0
M  V30 24 H -6.60589 0.543733 3.06336 0
M  V30 25 H -7.56813 0.7476 1.49436 0
M  V30 26 H -6.60391 -0.726508 1.75859 0
M  V30 27 H -5.00206 1.80072 1.88547 0
M  V30 28 H -5.74601 1.43518 0.288726 0
M  V30 29 H -4.90502 -0.838846 0.486113 0
M  V30 30 H -4.18853 -0.425494 2.11703 0
M  V30 31 H -2.98042 1.53111 0.990998 0
M  V30 32 H -3.58404 0.994067 -0.572074 0
M  V30 33 H -1.51173 -0.463862 1.07168 0
M  V30 34 H -1.57997 1.6409 -1.01244 0
M  V30 35 H 0.0356609 2.40568 -3.1785 0
M  V30 36 H -0.071931 3.48127 -1.76208 0
M  V30 37 H 3.35524 2.23098 -3.2576 0
M  V30 38 H 2.99537 3.62299 -2.18014 0
M  V30 39 H 2.76245 -1.72725 1.37244 0
M  V30 40 H 7.10835 -1.12802 -0.626329 0
M  V30 41 H 7.07589 0.649397 -0.894335 0
M  V30 42 H 6.58732 0.656034 1.71883 0
M  V30 43 H 8.27405 0.736716 1.03206 0
M  V30 44 H 7.57779 -0.875178 1.60494 0
M  V30 45 H 0.631866 -0.853342 0.775217 0
M  V30 46 H -2.77271 -1.03327 -1.63265 0
M  V30 47 H -3.04566 -2.31677 1.04077 0
M  V30 48 H -3.92745 -2.70025 -0.550864 0
M  V30 49 H -2.41225 -3.47269 -0.119781 0
M  V30 50 H -0.72825 -1.62835 -2.03647 0
M  V30 END ATOM
M  V30 BEGIN BOND
M  V30 1 1 1 2
M  V30 2 1 2 3
M  V30 3 1 3 4
M  V30 4 1 4 5
M  V30 5 1 5 6
M  V30 6 1 6 7
M  V30 7 2 7 8
M  V30 8 1 8 9
M  V30 9 1 8 10
M  V30 10 1 10 11
M  V30 11 2 10 12
M  V30 12 1 12 13
M  V30 13 1 13 14
M  V30 14 1 14 15
M  V30 15 2 15 16
M  V30 16 1 15 17
M  V30 17 1 17 18
M  V30 18 1 18 19
M  V30 19 2 13 20
M  V30 20 1 5 21
M  V30 21 1 21 22
M  V30 22 1 21 23
M  V30 23 1 20 7
M  V30 24 1 1 24
M  V30 25 1 1 25
M  V30 26 1 1 26
M  V30 27 1 2 27
M  V30 28 1 2 28
M  V30 29 1 3 29
M  V30 30 1 3 30
M  V30 31 1 4 31
M  V30 32 1 4 32
M  V30 33 1 5 33
M  V30 34 1 6 34
M  V30 35 1 9 35
M  V30 36 1 9 36
M  V30 37 1 11 37
M  V30 38 1 11 38
M  V30 39 1 14 39
M  V30 40 1 18 40
M  V30 41 1 18 41
M  V30 42 1 19 42
M  V30 43 1 19 43
M  V30 44 1 19 44
M  V30 45 1 20 45
M  V30 46 1 21 46
M  V30 47 1 22 47
M  V30 48 1 22 48
M  V30 49 1 22 49
M  V30 50 1 23 50
M  V30 END BOND
M  V30 END CTAB
M  END
