
     RDKit          3D

  0  0  0  0  0  0  0  0  0  0999 V3000
M  V30 BEGIN CTAB
M  V30 COUNTS 20 20 0 0 0
M  V30 BEGIN ATOM
M  V30 1 C -3.78299 0.401136 -0.563708 0
M  V30 2 O -2.40647 0.664097 -0.492647 0
M  V30 3 C -1.44161 -0.261434 -0.220177 0
M  V30 4 O -1.77423 -1.45282 -0.0110686 0
M  V30 5 C -0.00875152 0.056358 -0.155063 0
M  V30 6 C 0.462535 1.32954 -0.368069 0
M  V30 7 N 1.77833 1.54995 -0.293934 0
M  V30 8 C 2.67693 0.599446 -0.0224432 0
M  V30 9 N 2.24628 -0.642329 0.187918 0
M  V30 10 C 0.933653 -0.916248 0.124804 0
M  V30 11 N 0.461876 -2.25865 0.351667 0
M  V30 12 N 4.03628 0.988957 0.0216892 0
M  V30 13 H -4.2922 1.07626 -1.30508 0
M  V30 14 H -4.0166 -0.632814 -0.873215 0
M  V30 15 H -4.23507 0.631843 0.418951 0
M  V30 16 H -0.254937 2.09952 -0.587048 0
M  V30 17 H 0.223371 -2.56989 1.30098 0
M  V30 18 H 0.365414 -2.9156 -0.470773 0
M  V30 19 H 4.41223 1.37598 0.903637 0
M  V30 20 H 4.61595 0.876685 -0.82633 0
M  V30 END ATOM
M  V30 BEGIN BOND
M  V30 1 1 1 2
M  V30 2 1 2 3
M  V30 3 2 3 4
M  V30 4 1 3 5
M  V30 5 2 5 6
M  V30 6 1 6 7
M  V30 7 2 7 8
M  V30 8 1 8 9
M  V30 9 2 9 10
M  V30 10 1 10 11
M  V30 11 1 8 12
M  V30 12 1 10 5
M  V30 13 1 1 13
M  V30 14 1 1 14
M  V30 15 1 1 15
M  V30 16 1 6 16
M  V30 17 1 11 17
M  V30 18 1 11 18
M  V30 19 1 12 19
M  V30 20 1 12 20
M  V30 END BOND
M  V30 END CTAB
M  END
