
     RDKit          3D

  0  0  0  0  0  0  0  0  0  0999 V3000
M  V30 BEGIN CTAB
M  V30 COUNTS 42 43 0 0 0
M  V30 BEGIN ATOM
M  V30 1 N 1.16175 4.0584 3.27292 0
M  V30 2 C 0.673717 3.26331 2.56915 0
M  V30 3 C 0.068596 2.19844 1.64059 0
M  V30 4 C -1.16003 2.34429 1.36056 0
M  V30 5 N -2.06519 1.64678 0.624211 0
M  V30 6 C -2.16951 0.314401 0.222079 0
M  V30 7 C -2.49345 -0.0860884 -1.08388 0
M  V30 8 C -2.64517 -1.40683 -1.43214 0
M  V30 9 C -2.48669 -2.42094 -0.513133 0
M  V30 10 C -2.16767 -2.05695 0.779679 0
M  V30 11 C -2.01453 -0.736047 1.13454 0
M  V30 12 N -2.64201 -3.79623 -0.870302 0
M  V30 13 C -3.28585 2.4088 0.319913 0
M  V30 14 O -4.17867 1.77026 -0.250872 0
M  V30 15 C -3.42661 3.82187 0.671251 0
M  V30 16 C 1.01066 1.35133 1.0169 0
M  V30 17 O 2.14289 1.34366 1.71347 0
M  V30 18 N 1.10601 0.54493 -0.102485 0
M  V30 19 C 2.25476 -0.264122 -0.453757 0
M  V30 20 C 2.9985 -0.861442 0.518633 0
M  V30 21 C 4.11322 -1.60691 0.115758 0
M  V30 22 C 4.41836 -1.71436 -1.21238 0
M  V30 23 C 3.67707 -1.11834 -2.2047 0
M  V30 24 C 2.58955 -0.39096 -1.80248 0
M  V30 25 N 5.56348 -2.48905 -1.54957 0
M  V30 26 H -1.61389 3.29276 1.85821 0
M  V30 27 H -2.61391 0.721518 -1.80628 0
M  V30 28 H -2.8949 -1.68129 -2.44529 0
M  V30 29 H -2.03724 -2.8433 1.5219 0
M  V30 30 H -1.76385 -0.434351 2.14501 0
M  V30 31 H -3.58729 -4.25123 -0.791469 0
M  V30 32 H -1.86026 -4.38244 -1.21015 0
M  V30 33 H -3.56395 3.94954 1.77221 0
M  V30 34 H -4.31924 4.21222 0.158165 0
M  V30 35 H -2.52094 4.37937 0.355943 0
M  V30 36 H 0.375143 0.503483 -0.821594 0
M  V30 37 H 2.78832 -0.827957 1.58901 0
M  V30 38 H 4.707 -2.08403 0.911291 0
M  V30 39 H 3.99022 -1.257 -3.22869 0
M  V30 40 H 1.97926 0.0949279 -2.56895 0
M  V30 41 H 6.4427 -1.98579 -1.7578 0
M  V30 42 H 5.44963 -3.52462 -1.56768 0
M  V30 END ATOM
M  V30 BEGIN BOND
M  V30 1 3 1 2
M  V30 2 1 2 3
M  V30 3 2 3 4
M  V30 4 1 4 5
M  V30 5 1 5 6
M  V30 6 2 6 7
M  V30 7 1 7 8
M  V30 8 2 8 9
M  V30 9 1 9 10
M  V30 10 2 10 11
M  V30 11 1 9 12
M  V30 12 1 5 13
M  V30 13 2 13 14
M  V30 14 1 13 15
M  V30 15 1 3 16
M  V30 16 2 16 17
M  V30 17 1 16 18
M  V30 18 1 18 19
M  V30 19 2 19 20
M  V30 20 1 20 21
M  V30 21 2 21 22
M  V30 22 1 22 23
M  V30 23 2 23 24
M  V30 24 1 22 25
M  V30 25 1 11 6
M  V30 26 1 24 19
M  V30 27 1 4 26
M  V30 28 1 7 27
M  V30 29 1 8 28
M  V30 30 1 10 29
M  V30 31 1 11 30
M  V30 32 1 12 31
M  V30 33 1 12 32
M  V30 34 1 15 33
M  V30 35 1 15 34
M  V30 36 1 15 35
M  V30 37 1 18 36
M  V30 38 1 20 37
M  V30 39 1 21 38
M  V30 40 1 23 39
M  V30 41 1 24 40
M  V30 42 1 25 41
M  V30 43 1 25 42
M  V30 END BOND
M  V30 END CTAB
M  END
