
     RDKit          3D

  0  0  0  0  0  0  0  0  0  0999 V3000
M  V30 BEGIN CTAB
M  V30 COUNTS 34 35 0 0 0
M  V30 BEGIN ATOM
M  V30 1 C -3.58063 0.571348 1.3762 0
M  V30 2 C -3.34113 -0.316022 0.182863 0
M  V30 3 C -4.21829 -1.55791 0.385066 0
M  V30 4 C -3.82197 0.330762 -1.09957 0
M  V30 5 O -2.01307 -0.773261 0.0938332 0
M  V30 6 C -0.940811 0.0993826 -0.0203884 0
M  V30 7 O -1.20932 1.32505 -0.0410319 0
M  V30 8 N 0.394733 -0.37399 -0.109455 0
M  V30 9 N 0.728338 -1.65519 -0.0920472 0
M  V30 10 C 2.05487 -1.82054 -0.190916 0
M  V30 11 N 2.81172 -3.01295 -0.209875 0
M  V30 12 C 2.5736 -0.527848 -0.275862 0
M  V30 13 C 1.51473 0.359433 -0.2227 0
M  V30 14 C 1.76703 1.71713 -0.288873 0
M  V30 15 C 3.05882 2.18846 -0.406718 0
M  V30 16 C 4.1408 1.32402 -0.462478 0
M  V30 17 N 5.45047 1.84141 -0.583303 0
M  V30 18 C 3.8505 -0.0220264 -0.393707 0
M  V30 19 H -3.50114 1.65338 1.13494 0
M  V30 20 H -2.96483 0.250492 2.21752 0
M  V30 21 H -4.65188 0.429707 1.69984 0
M  V30 22 H -4.07657 -2.26991 -0.44631 0
M  V30 23 H -5.25302 -1.2344 0.535237 0
M  V30 24 H -3.79828 -2.06047 1.29404 0
M  V30 25 H -4.43844 -0.376767 -1.71561 0
M  V30 26 H -2.94772 0.639896 -1.68831 0
M  V30 27 H -4.49842 1.18734 -0.881715 0
M  V30 28 H 3.61014 -3.1111 -0.858653 0
M  V30 29 H 2.57341 -3.79488 0.423586 0
M  V30 30 H 0.965501 2.42079 -0.249716 0
M  V30 31 H 3.22906 3.25058 -0.456352 0
M  V30 32 H 5.98575 2.06244 0.273046 0
M  V30 33 H 5.87947 2.00153 -1.50892 0
M  V30 34 H 4.66656 -0.745875 -0.433311 0
M  V30 END ATOM
M  V30 BEGIN BOND
M  V30 1 1 1 2
M  V30 2 1 2 3
M  V30 3 1 2 4
M  V30 4 1 2 5
M  V30 5 1 5 6
M  V30 6 2 6 7
M  V30 7 1 6 8
M  V30 8 1 8 9
M  V30 9 2 9 10
M  V30 10 1 10 11
M  V30 11 1 10 12
M  V30 12 2 12 13
M  V30 13 1 13 14
M  V30 14 2 14 15
M  V30 15 1 15 16
M  V30 16 1 16 17
M  V30 17 2 16 18
M  V30 18 1 13 8
M  V30 19 1 18 12
M  V30 20 1 1 19
M  V30 21 1 1 20
M  V30 22 1 1 21
M  V30 23 1 3 22
M  V30 24 1 3 23
M  V30 25 1 3 24
M  V30 26 1 4 25
M  V30 27 1 4 26
M  V30 28 1 4 27
M  V30 29 1 11 28
M  V30 30 1 11 29
M  V30 31 1 14 30
M  V30 32 1 15 31
M  V30 33 1 17 32
M  V30 34 1 17 33
M  V30 35 1 18 34
M  V30 END BOND
M  V30 END CTAB
M  END
