
     RDKit          3D

  0  0  0  0  0  0  0  0  0  0999 V3000
M  V30 BEGIN CTAB
M  V30 COUNTS 60 62 0 0 0
M  V30 BEGIN ATOM
M  V30 1 C 7.58376 1.22986 -3.05634 0
M  V30 2 C 6.29166 1.12393 -2.24852 0
M  V30 3 C 6.61036 1.35456 -0.795261 0
M  V30 4 C 5.38847 1.27457 0.0646358 0
M  V30 5 C 4.75359 -0.0730866 -0.0452463 0
M  V30 6 C 3.55535 -0.0740865 0.839267 0
M  V30 7 C 3.67293 -0.468881 2.15149 0
M  V30 8 C 2.59832 -0.487034 3.00491 0
M  V30 9 C 1.33035 -0.0967306 2.55343 0
M  V30 10 O 0.290751 -0.131215 3.44418 0
M  V30 11 C -1.02676 0.212013 3.13285 0
M  V30 12 C -1.64188 -0.650649 2.11212 0
M  V30 13 C -1.14144 -1.93905 1.87732 0
M  V30 14 C -1.7245 -2.74137 0.922579 0
M  V30 15 C -2.78859 -2.24307 0.226747 0
M  V30 16 C -3.30797 -0.968398 0.43712 0
M  V30 17 C -2.71559 -0.187977 1.38856 0
M  V30 18 N -4.43751 -0.531028 -0.348453 0
M  V30 19 C -5.75709 -0.751563 0.086706 0
M  V30 20 N -5.884 -1.42752 1.35418 0
M  V30 21 N -6.81074 -0.388973 -0.573908 0
M  V30 22 C -6.56303 0.269186 -1.80867 0
M  V30 23 N -7.63628 0.724286 -2.64412 0
M  V30 24 N -5.38899 0.494199 -2.24703 0
M  V30 25 C -4.1784 0.132928 -1.5882 0
M  V30 26 C -3.40351 1.43777 -1.36318 0
M  V30 27 C -3.30047 -0.7077 -2.50521 0
M  V30 28 C 1.23003 0.292737 1.24937 0
M  V30 29 C 2.33208 0.307324 0.387633 0
M  V30 30 H 7.68465 2.26405 -3.40825 0
M  V30 31 H 8.40791 0.933865 -2.35769 0
M  V30 32 H 7.53615 0.530913 -3.9101 0
M  V30 33 H 5.83345 0.133145 -2.42672 0
M  V30 34 H 5.59849 1.89281 -2.63916 0
M  V30 35 H 7.38649 0.599082 -0.498351 0
M  V30 36 H 7.10834 2.34396 -0.68308 0
M  V30 37 H 4.66936 2.03429 -0.325913 0
M  V30 38 H 5.66847 1.48612 1.11901 0
M  V30 39 H 4.43346 -0.331426 -1.05871 0
M  V30 40 H 5.45047 -0.85684 0.322737 0
M  V30 41 H 4.62962 -0.779805 2.55 0
M  V30 42 H 2.6872 -0.797737 4.04065 0
M  V30 43 H -1.61064 0.132912 4.08049 0
M  V30 44 H -1.11045 1.27879 2.77983 0
M  V30 45 H -0.29533 -2.28302 2.45761 0
M  V30 46 H -1.36369 -3.75111 0.710193 0
M  V30 47 H -3.25353 -2.88288 -0.534 0
M  V30 48 H -3.13144 0.819215 1.54906 0
M  V30 49 H -5.46922 -0.942885 2.17288 0
M  V30 50 H -6.37771 -2.33988 1.34755 0
M  V30 51 H -8.01679 1.67375 -2.61361 0
M  V30 52 H -8.0333 0.0346735 -3.30853 0
M  V30 53 H -3.57517 2.04879 -2.27446 0
M  V30 54 H -3.77592 1.98953 -0.501261 0
M  V30 55 H -2.33316 1.2063 -1.18982 0
M  V30 56 H -3.15281 -0.182896 -3.46355 0
M  V30 57 H -2.30967 -0.774419 -2.01603 0
M  V30 58 H -3.70221 -1.70794 -2.66698 0
M  V30 59 H 0.281842 0.6174 0.841674 0
M  V30 60 H 2.20423 0.626222 -0.647268 0
M  V30 END ATOM
M  V30 BEGIN BOND
M  V30 1 1 1 2
M  V30 2 1 2 3
M  V30 3 1 3 4
M  V30 4 1 4 5
M  V30 5 1 5 6
M  V30 6 2 6 7
M  V30 7 1 7 8
M  V30 8 2 8 9
M  V30 9 1 9 10
M  V30 10 1 10 11
M  V30 11 1 11 12
M  V30 12 2 12 13
M  V30 13 1 13 14
M  V30 14 2 14 15
M  V30 15 1 15 16
M  V30 16 2 16 17
M  V30 17 1 16 18
M  V30 18 1 18 19
M  V30 19 1 19 20
M  V30 20 2 19 21
M  V30 21 1 21 22
M  V30 22 1 22 23
M  V30 23 2 22 24
M  V30 24 1 24 25
M  V30 25 1 25 26
M  V30 26 1 25 27
M  V30 27 1 9 28
M  V30 28 2 28 29
M  V30 29 1 29 6
M  V30 30 1 17 12
M  V30 31 1 25 18
M  V30 32 1 1 30
M  V30 33 1 1 31
M  V30 34 1 1 32
M  V30 35 1 2 33
M  V30 36 1 2 34
M  V30 37 1 3 35
M  V30 38 1 3 36
M  V30 39 1 4 37
M  V30 40 1 4 38
M  V30 41 1 5 39
M  V30 42 1 5 40
M  V30 43 1 7 41
M  V30 44 1 8 42
M  V30 45 1 11 43
M  V30 46 1 11 44
M  V30 47 1 13 45
M  V30 48 1 14 46
M  V30 49 1 15 47
M  V30 50 1 17 48
M  V30 51 1 20 49
M  V30 52 1 20 50
M  V30 53 1 23 51
M  V30 54 1 23 52
M  V30 55 1 26 53
M  V30 56 1 26 54
M  V30 57 1 26 55
M  V30 58 1 27 56
M  V30 59 1 27 57
M  V30 60 1 27 58
M  V30 61 1 28 59
M  V30 62 1 29 60
M  V30 END BOND
M  V30 END CTAB
M  END
