
     RDKit          3D

  0  0  0  0  0  0  0  0  0  0999 V3000
M  V30 BEGIN CTAB
M  V30 COUNTS 41 41 0 0 0
M  V30 BEGIN ATOM
M  V30 1 C -3.4152 1.5087 -2.56006 0
M  V30 2 C -3.48266 1.17617 -1.07063 0
M  V30 3 C -2.05619 1.05584 -0.581511 0
M  V30 4 C -1.98098 0.727672 0.88427 0
M  V30 5 C -0.536298 0.63675 1.2417 0
M  V30 6 O -0.0836228 1.34683 2.17458 0
M  V30 7 N 0.358336 -0.230894 0.561255 0
M  V30 8 C 1.72716 -0.271517 0.950423 0
M  V30 9 C 2.17954 -1.62554 1.4338 0
M  V30 10 C 3.68173 -1.39502 1.56272 0
M  V30 11 C 3.96307 -0.713717 0.231987 0
M  V30 12 C 2.71102 0.0481852 -0.12009 0
M  V30 13 C 2.24222 -0.263859 -1.52279 0
M  V30 14 N 1.92819 -1.63928 -1.74453 0
M  V30 15 N -2.63791 1.67233 1.72603 0
M  V30 16 C -2.66808 -0.621851 1.08324 0
M  V30 17 H -3.52679 2.61302 -2.6285 0
M  V30 18 H -2.44582 1.1662 -2.97444 0
M  V30 19 H -4.25113 1.03317 -3.10239 0
M  V30 20 H -4.00715 0.214651 -0.929716 0
M  V30 21 H -3.97564 1.97181 -0.506523 0
M  V30 22 H -1.45572 1.95044 -0.814642 0
M  V30 23 H -1.55538 0.201457 -1.1201 0
M  V30 24 H -0.00085729 -0.838284 -0.22683 0
M  V30 25 H 1.92039 0.427162 1.79753 0
M  V30 26 H 1.74134 -1.87428 2.42357 0
M  V30 27 H 2.00464 -2.44141 0.703948 0
M  V30 28 H 3.82591 -0.68321 2.4024 0
M  V30 29 H 4.23035 -2.33969 1.68091 0
M  V30 30 H 4.78739 0.00404745 0.426411 0
M  V30 31 H 4.2261 -1.49754 -0.484913 0
M  V30 32 H 2.91727 1.15977 -0.067716 0
M  V30 33 H 3.0951 0.00275045 -2.19813 0
M  V30 34 H 1.37335 0.357159 -1.78993 0
M  V30 35 H 2.75841 -2.26283 -1.85533 0
M  V30 36 H 1.20215 -1.77973 -2.46711 0
M  V30 37 H -2.64786 2.64126 1.40209 0
M  V30 38 H -3.48974 1.33235 2.19341 0
M  V30 39 H -2.50188 -0.996698 2.12342 0
M  V30 40 H -2.39762 -1.34718 0.30838 0
M  V30 41 H -3.75715 -0.425208 1.00102 0
M  V30 END ATOM
M  V30 BEGIN BOND
M  V30 1 1 1 2
M  V30 2 1 2 3
M  V30 3 1 3 4
M  V30 4 1 4 5
M  V30 5 2 5 6
M  V30 6 1 5 7
M  V30 7 1 7 8
M  V30 8 1 8 9
M  V30 9 1 9 10
M  V30 10 1 10 11
M  V30 11 1 11 12
M  V30 12 1 12 13
M  V30 13 1 13 14
M  V30 14 1 4 15
M  V30 15 1 4 16
M  V30 16 1 12 8
M  V30 17 1 1 17
M  V30 18 1 1 18
M  V30 19 1 1 19
M  V30 20 1 2 20
M  V30 21 1 2 21
M  V30 22 1 3 22
M  V30 23 1 3 23
M  V30 24 1 7 24
M  V30 25 1 8 25
M  V30 26 1 9 26
M  V30 27 1 9 27
M  V30 28 1 10 28
M  V30 29 1 10 29
M  V30 30 1 11 30
M  V30 31 1 11 31
M  V30 32 1 12 32
M  V30 33 1 13 33
M  V30 34 1 13 34
M  V30 35 1 14 35
M  V30 36 1 14 36
M  V30 37 1 15 37
M  V30 38 1 15 38
M  V30 39 1 16 39
M  V30 40 1 16 40
M  V30 41 1 16 41
M  V30 END BOND
M  V30 END CTAB
M  END
