
     RDKit          3D

  0  0  0  0  0  0  0  0  0  0999 V3000
M  V30 BEGIN CTAB
M  V30 COUNTS 31 31 0 0 0
M  V30 BEGIN ATOM
M  V30 1 C -1.07908 -0.693469 1.90785 0
M  V30 2 C -0.75918 -0.766149 0.428629 0
M  V30 3 C -1.66316 0.166809 -0.327212 0
M  V30 4 C -1.3652 0.113549 -1.80251 0
M  V30 5 C -3.09209 -0.327132 -0.0997343 0
M  V30 6 C -1.60791 1.58347 0.153975 0
M  V30 7 C 0.680225 -0.482191 0.178539 0
M  V30 8 N 1.23481 0.696728 0.481549 0
M  V30 9 C 2.54505 0.967547 0.258507 0
M  V30 10 N 3.06973 2.24081 0.604145 0
M  V30 11 N 3.28431 0.00988538 -0.281997 0
M  V30 12 C 2.78857 -1.20695 -0.613724 0
M  V30 13 N 1.47996 -1.41877 -0.369053 0
M  V30 14 N 3.62225 -2.1989 -1.19037 0
M  V30 15 H -0.630784 -1.58977 2.39114 0
M  V30 16 H -0.510649 0.179395 2.30771 0
M  V30 17 H -2.15832 -0.592698 2.0714 0
M  V30 18 H -0.991622 -1.79191 0.103103 0
M  V30 19 H -1.13237 -0.913538 -2.1119 0
M  V30 20 H -2.31923 0.385377 -2.32598 0
M  V30 21 H -0.583267 0.844475 -2.06317 0
M  V30 22 H -3.65621 0.354691 0.5713 0
M  V30 23 H -3.11693 -1.3242 0.366356 0
M  V30 24 H -3.62703 -0.395466 -1.06118 0
M  V30 25 H -2.54307 2.10153 -0.157817 0
M  V30 26 H -0.774459 2.13062 -0.310787 0
M  V30 27 H -1.49556 1.6303 1.26571 0
M  V30 28 H 2.45603 3.06437 0.768238 0
M  V30 29 H 4.08978 2.36666 0.698723 0
M  V30 30 H 4.28497 -2.76641 -0.63604 0
M  V30 31 H 3.57044 -2.36868 -2.21493 0
M  V30 END ATOM
M  V30 BEGIN BOND
M  V30 1 1 1 2
M  V30 2 1 2 3
M  V30 3 1 3 4
M  V30 4 1 3 5
M  V30 5 1 3 6
M  V30 6 1 2 7
M  V30 7 2 7 8
M  V30 8 1 8 9
M  V30 9 1 9 10
M  V30 10 2 9 11
M  V30 11 1 11 12
M  V30 12 2 12 13
M  V30 13 1 12 14
M  V30 14 1 13 7
M  V30 15 1 1 15
M  V30 16 1 1 16
M  V30 17 1 1 17
M  V30 18 1 2 18
M  V30 19 1 4 19
M  V30 20 1 4 20
M  V30 21 1 4 21
M  V30 22 1 5 22
M  V30 23 1 5 23
M  V30 24 1 5 24
M  V30 25 1 6 25
M  V30 26 1 6 26
M  V30 27 1 6 27
M  V30 28 1 10 28
M  V30 29 1 10 29
M  V30 30 1 14 30
M  V30 31 1 14 31
M  V30 END BOND
M  V30 END CTAB
M  END
