
     RDKit          3D

  0  0  0  0  0  0  0  0  0  0999 V3000
M  V30 BEGIN CTAB
M  V30 COUNTS 41 41 0 0 0
M  V30 BEGIN ATOM
M  V30 1 C -3.844 2.10316 -0.11885 0
M  V30 2 C -2.45833 1.60471 0.0148492 0
M  V30 3 C -2.21589 0.14643 -0.029981 0
M  V30 4 N -0.788084 -0.0734233 0.121516 0
M  V30 5 C 0.212116 0.389148 -0.765146 0
M  V30 6 O 0.0139877 1.05193 -1.80938 0
M  V30 7 C 1.62005 0.0923396 -0.480462 0
M  V30 8 O 2.01464 -0.588092 0.564935 0
M  V30 9 C 3.30685 -0.728364 0.612563 0
M  V30 10 C 3.814 -0.0801134 -0.505828 0
M  V30 11 C 2.74182 0.437941 -1.19475 0
M  V30 12 S 5.47577 0.0683037 -0.97624 0
M  V30 13 O 5.55495 0.845278 -2.25595 0
M  V30 14 O 6.10019 -1.27573 -1.24155 0
M  V30 15 N 6.31258 0.893873 0.294925 0
M  V30 16 C 4.1309 -1.43894 1.64715 0
M  V30 17 C -2.7003 -0.394464 -1.36803 0
M  V30 18 N -2.47802 -1.82778 -1.46033 0
M  V30 19 C -2.89511 -0.666961 1.02589 0
M  V30 20 C -4.37341 -0.629353 1.07363 0
M  V30 21 H -3.78713 3.21553 -0.345684 0
M  V30 22 H -4.47011 2.06659 0.790711 0
M  V30 23 H -4.34248 1.69396 -1.02182 0
M  V30 24 H -2.04155 2.06641 0.966843 0
M  V30 25 H -1.85606 2.12557 -0.775471 0
M  V30 26 H -0.503278 -0.621103 0.967107 0
M  V30 27 H 2.70818 1.00852 -2.11261 0
M  V30 28 H 6.65474 0.21678 1.0247 0
M  V30 29 H 5.70324 1.60574 0.746136 0
M  V30 30 H 4.91723 -2.02536 1.12152 0
M  V30 31 H 3.46654 -2.08062 2.26208 0
M  V30 32 H 4.55778 -0.653067 2.30388 0
M  V30 33 H -2.21284 0.147456 -2.19957 0
M  V30 34 H -3.77756 -0.184391 -1.46556 0
M  V30 35 H -1.82822 -1.99303 -2.27005 0
M  V30 36 H -3.36466 -2.34503 -1.72376 0
M  V30 37 H -2.60476 -1.74063 0.802687 0
M  V30 38 H -2.4216 -0.506683 2.04405 0
M  V30 39 H -4.77065 -1.64896 1.39039 0
M  V30 40 H -4.90978 -0.286946 0.199902 0
M  V30 41 H -4.66173 0.00935777 1.96157 0
M  V30 END ATOM
M  V30 BEGIN BOND
M  V30 1 1 1 2
M  V30 2 1 2 3
M  V30 3 1 3 4
M  V30 4 1 4 5
M  V30 5 2 5 6
M  V30 6 1 5 7
M  V30 7 1 7 8
M  V30 8 1 8 9
M  V30 9 2 9 10
M  V30 10 1 10 11
M  V30 11 1 10 12
M  V30 12 2 12 13
M  V30 13 2 12 14
M  V30 14 1 12 15
M  V30 15 1 9 16
M  V30 16 1 3 17
M  V30 17 1 17 18
M  V30 18 1 3 19
M  V30 19 1 19 20
M  V30 20 2 11 7
M  V30 21 1 1 21
M  V30 22 1 1 22
M  V30 23 1 1 23
M  V30 24 1 2 24
M  V30 25 1 2 25
M  V30 26 1 4 26
M  V30 27 1 11 27
M  V30 28 1 15 28
M  V30 29 1 15 29
M  V30 30 1 16 30
M  V30 31 1 16 31
M  V30 32 1 16 32
M  V30 33 1 17 33
M  V30 34 1 17 34
M  V30 35 1 18 35
M  V30 36 1 18 36
M  V30 37 1 19 37
M  V30 38 1 19 38
M  V30 39 1 20 39
M  V30 40 1 20 40
M  V30 41 1 20 41
M  V30 END BOND
M  V30 END CTAB
M  END
