
     RDKit          3D

  0  0  0  0  0  0  0  0  0  0999 V3000
M  V30 BEGIN CTAB
M  V30 COUNTS 50 53 0 0 0
M  V30 BEGIN ATOM
M  V30 1 N 3.56947 -0.221805 -2.3331 0
M  V30 2 C 2.23706 0.310195 -2.28178 0
M  V30 3 C 1.56614 -0.221107 -1.03953 0 CFG=2
M  V30 4 C 0.133639 0.30608 -0.917665 0
M  V30 5 N -0.130136 0.249436 0.505291 0
M  V30 6 C 1.12071 -0.0562645 1.2247 0
M  V30 7 C 2.15095 0.404118 0.218144 0 CFG=1
M  V30 8 C 3.50548 -0.092611 0.518896 0
M  V30 9 C 3.80742 -1.42044 0.652973 0
M  V30 10 C 5.105 -1.792 0.935356 0
M  V30 11 C 6.11767 -0.846099 1.08767 0
M  V30 12 C 5.82831 0.496868 0.9553 0
M  V30 13 C 4.52071 0.829072 0.673062 0
M  V30 14 C -1.37815 0.449951 1.15869 0
M  V30 15 O -1.46741 0.384954 2.41425 0
M  V30 16 C -2.61522 0.738295 0.419556 0
M  V30 17 C -3.76271 1.10713 1.32449 0
M  V30 18 C -4.80093 1.77457 0.445443 0
M  V30 19 C -5.30895 0.630913 -0.432652 0
M  V30 20 C -4.5802 -0.582647 0.0516679 0
M  V30 21 C -3.11411 -0.506407 -0.331884 0
M  V30 22 N -2.48335 -1.65366 0.31716 0
M  V30 23 C -4.42701 -0.237284 1.54722 0
M  V30 24 H 3.58933 -1.24749 -2.48483 0
M  V30 25 H 4.21466 0.291299 -2.94315 0
M  V30 26 H 2.35372 1.42106 -2.10847 0
M  V30 27 H 1.68624 0.103084 -3.19682 0
M  V30 28 H 1.57518 -1.30608 -0.950181 0
M  V30 29 H 0.182857 1.38912 -1.23401 0
M  V30 30 H -0.559928 -0.24793 -1.5403 0
M  V30 31 H 1.15451 -1.17078 1.34873 0
M  V30 32 H 1.17912 0.474236 2.1763 0
M  V30 33 H 2.11777 1.48993 0.163759 0
M  V30 34 H 3.01554 -2.16528 0.534139 0
M  V30 35 H 5.38625 -2.83485 1.04956 0
M  V30 36 H 7.13252 -1.12382 1.30782 0
M  V30 37 H 6.59188 1.2766 1.0665 0
M  V30 38 H 4.29384 1.89514 0.568562 0
M  V30 39 H -2.43524 1.58207 -0.263705 0
M  V30 40 H -3.50394 1.64266 2.21602 0
M  V30 41 H -5.60826 2.22043 1.04981 0
M  V30 42 H -4.29673 2.50796 -0.216695 0
M  V30 43 H -5.08975 0.832819 -1.50057 0
M  V30 44 H -6.39839 0.507213 -0.240629 0
M  V30 45 H -5.04914 -1.53146 -0.118393 0
M  V30 46 H -2.93612 -0.442199 -1.40136 0
M  V30 47 H -3.17432 -2.38556 0.58348 0
M  V30 48 H -1.7968 -2.11959 -0.316303 0
M  V30 49 H -5.43595 -0.146384 1.96891 0
M  V30 50 H -3.78325 -0.963455 2.0508 0
M  V30 END ATOM
M  V30 BEGIN BOND
M  V30 1 1 1 2
M  V30 2 1 2 3
M  V30 3 1 3 4
M  V30 4 1 4 5
M  V30 5 1 5 6
M  V30 6 1 6 7
M  V30 7 1 7 8
M  V30 8 2 8 9
M  V30 9 1 9 10
M  V30 10 2 10 11
M  V30 11 1 11 12
M  V30 12 2 12 13
M  V30 13 1 5 14
M  V30 14 2 14 15
M  V30 15 1 14 16
M  V30 16 1 16 17
M  V30 17 1 17 18
M  V30 18 1 18 19
M  V30 19 1 19 20
M  V30 20 1 20 21
M  V30 21 1 21 22
M  V30 22 1 20 23
M  V30 23 1 7 3
M  V30 24 1 13 8
M  V30 25 1 21 16
M  V30 26 1 23 17
M  V30 27 1 1 24
M  V30 28 1 1 25
M  V30 29 1 2 26
M  V30 30 1 2 27
M  V30 31 1 3 28 CFG=1
M  V30 32 1 4 29
M  V30 33 1 4 30
M  V30 34 1 6 31
M  V30 35 1 6 32
M  V30 36 1 7 33 CFG=3
M  V30 37 1 9 34
M  V30 38 1 10 35
M  V30 39 1 11 36
M  V30 40 1 12 37
M  V30 41 1 13 38
M  V30 42 1 16 39
M  V30 43 1 17 40
M  V30 44 1 18 41
M  V30 45 1 18 42
M  V30 46 1 19 43
M  V30 47 1 19 44
M  V30 48 1 20 45
M  V30 49 1 21 46
M  V30 50 1 22 47
M  V30 51 1 22 48
M  V30 52 1 23 49
M  V30 53 1 23 50
M  V30 END BOND
M  V30 END CTAB
M  END
