
     RDKit          3D

  0  0  0  0  0  0  0  0  0  0999 V3000
M  V30 BEGIN CTAB
M  V30 COUNTS 22 22 0 0 0
M  V30 BEGIN ATOM
M  V30 1 N 2.96346 1.07303 -1.46568 0
M  V30 2 C 1.92878 0.530962 -0.657687 0
M  V30 3 N 2.18655 -0.334623 0.233508 0
M  V30 4 N 3.42355 -0.852496 0.540581 0
M  V30 5 S 0.265379 1.11071 -0.942631 0
M  V30 6 C -0.846877 0.273831 0.205163 0
M  V30 7 C -0.934828 -1.21705 -0.0782492 0
M  V30 8 O -2.20295 -1.63675 0.220441 0
M  V30 9 C -2.98462 -0.564024 0.541386 0
M  V30 10 C -2.2903 0.668776 -0.0323344 0
M  V30 11 O -2.65046 1.82002 0.643861 0
M  V30 12 H 3.08161 2.11372 -1.4381 0
M  V30 13 H 3.54011 0.430468 -2.03176 0
M  V30 14 H 3.87507 -1.66534 0.039755 0
M  V30 15 H 3.97289 -0.423489 1.32407 0
M  V30 16 H -0.566506 0.392831 1.26134 0
M  V30 17 H -0.155467 -1.77615 0.483934 0
M  V30 18 H -0.796443 -1.32031 -1.18385 0
M  V30 19 H -4.03868 -0.6326 0.2153 0
M  V30 20 H -2.93649 -0.432287 1.65907 0
M  V30 21 H -2.49276 0.699167 -1.10699 0
M  V30 22 H -2.34101 1.74161 1.56887 0
M  V30 END ATOM
M  V30 BEGIN BOND
M  V30 1 1 1 2
M  V30 2 2 2 3 CFG=2
M  V30 3 1 3 4
M  V30 4 1 2 5
M  V30 5 1 5 6
M  V30 6 1 6 7
M  V30 7 1 7 8
M  V30 8 1 8 9
M  V30 9 1 9 10
M  V30 10 1 10 11
M  V30 11 1 10 6
M  V30 12 1 1 12
M  V30 13 1 1 13
M  V30 14 1 4 14
M  V30 15 1 4 15
M  V30 16 1 6 16
M  V30 17 1 7 17
M  V30 18 1 7 18
M  V30 19 1 9 19
M  V30 20 1 9 20
M  V30 21 1 10 21
M  V30 22 1 11 22
M  V30 END BOND
M  V30 END CTAB
M  END
