
     RDKit          3D

  0  0  0  0  0  0  0  0  0  0999 V3000
M  V30 BEGIN CTAB
M  V30 COUNTS 47 49 0 0 0
M  V30 BEGIN ATOM
M  V30 1 C 0.208261 -0.0686267 2.33698 0
M  V30 2 N 0.327717 -0.370049 0.926815 0
M  V30 3 C -0.807498 -0.952961 0.25655 0
M  V30 4 O -2.027 -0.379724 0.437825 0
M  V30 5 O -3.00782 -0.938904 -0.182989 0
M  V30 6 C -4.09621 -0.0681615 -0.146176 0
M  V30 7 C -5.22869 -0.749914 -0.880543 0
M  V30 8 C -3.77799 1.27703 -0.759267 0
M  V30 9 C -4.46892 0.132537 1.30814 0
M  V30 10 C 1.56812 -0.215944 0.260388 0
M  V30 11 C 2.06785 0.878198 -0.389526 0
M  V30 12 C 1.40257 2.04983 -0.454811 0
M  V30 13 N 0.137858 2.21739 0.162817 0
M  V30 14 N 1.89116 3.14579 -1.09198 0
M  V30 15 C 3.0755 3.10365 -1.69068 0
M  V30 16 N 3.59579 4.26426 -2.36764 0
M  V30 17 N 3.75675 1.95544 -1.64052 0
M  V30 18 C 3.32375 0.835227 -1.02336 0
M  V30 19 N 4.07343 -0.265522 -1.01575 0
M  V30 20 C 3.62554 -1.35048 -0.393513 0
M  V30 21 C 4.45376 -2.47226 -0.405116 0
M  V30 22 C 4.05417 -3.6221 0.229659 0
M  V30 23 Cl 5.06245 -5.0733 0.246904 0
M  V30 24 C 2.8308 -3.62705 0.865524 0
M  V30 25 C 2.01854 -2.49524 0.864808 0
M  V30 26 C 2.41181 -1.36325 0.238556 0
M  V30 27 H 0.140277 -1.00879 2.95942 0
M  V30 28 H 1.07075 0.525369 2.71596 0
M  V30 29 H -0.707026 0.498213 2.5857 0
M  V30 30 H -0.965347 -2.04644 0.50991 0
M  V30 31 H -0.643734 -0.992469 -0.85951 0
M  V30 32 H -5.39757 -1.71686 -0.400361 0
M  V30 33 H -4.94289 -0.83065 -1.95857 0
M  V30 34 H -6.14318 -0.152093 -0.803794 0
M  V30 35 H -3.057 1.19098 -1.60752 0
M  V30 36 H -4.71667 1.67316 -1.19945 0
M  V30 37 H -3.39418 1.96457 -8.1452e-05 0
M  V30 38 H -5.48016 0.590254 1.35214 0
M  V30 39 H -4.37159 -0.806314 1.8524 0
M  V30 40 H -3.77863 0.897698 1.74255 0
M  V30 41 H 0.0873066 2.60863 1.1272 0
M  V30 42 H -0.742249 1.9985 -0.327894 0
M  V30 43 H 4.42064 4.7571 -1.98294 0
M  V30 44 H 3.10337 4.55301 -3.22823 0
M  V30 45 H 5.40458 -2.45712 -0.903223 0
M  V30 46 H 2.54052 -4.53932 1.35586 0
M  V30 47 H 1.10106 -2.55331 1.37735 0
M  V30 END ATOM
M  V30 BEGIN BOND
M  V30 1 1 1 2
M  V30 2 1 2 3
M  V30 3 1 3 4
M  V30 4 1 4 5
M  V30 5 1 5 6
M  V30 6 1 6 7
M  V30 7 1 6 8
M  V30 8 1 6 9
M  V30 9 1 2 10
M  V30 10 2 10 11
M  V30 11 1 11 12
M  V30 12 1 12 13
M  V30 13 2 12 14
M  V30 14 1 14 15
M  V30 15 1 15 16
M  V30 16 2 15 17
M  V30 17 1 17 18
M  V30 18 2 18 19
M  V30 19 1 19 20
M  V30 20 2 20 21
M  V30 21 1 21 22
M  V30 22 1 22 23
M  V30 23 2 22 24
M  V30 24 1 24 25
M  V30 25 2 25 26
M  V30 26 1 26 10
M  V30 27 1 18 11
M  V30 28 1 26 20
M  V30 29 1 1 27
M  V30 30 1 1 28
M  V30 31 1 1 29
M  V30 32 1 3 30
M  V30 33 1 3 31
M  V30 34 1 7 32
M  V30 35 1 7 33
M  V30 36 1 7 34
M  V30 37 1 8 35
M  V30 38 1 8 36
M  V30 39 1 8 37
M  V30 40 1 9 38
M  V30 41 1 9 39
M  V30 42 1 9 40
M  V30 43 1 13 41
M  V30 44 1 13 42
M  V30 45 1 16 43
M  V30 46 1 16 44
M  V30 47 1 21 45
M  V30 48 1 24 46
M  V30 49 1 25 47
M  V30 END BOND
M  V30 END CTAB
M  END
