
     RDKit          3D

  0  0  0  0  0  0  0  0  0  0999 V3000
M  V30 BEGIN CTAB
M  V30 COUNTS 54 57 0 0 0
M  V30 BEGIN ATOM
M  V30 1 O -0.61665 -3.01557 1.26269 0
M  V30 2 C -0.397123 -2.02082 0.481556 0
M  V30 3 C -1.48767 -1.17614 0.110053 0
M  V30 4 C -1.48772 -0.449715 -1.04321 0
M  V30 5 C -2.54634 0.396793 -1.40172 0
M  V30 6 C -3.62222 0.502643 -0.570066 0
M  V30 7 C -3.61854 -0.244756 0.612471 0
M  V30 8 C -2.58275 -1.06924 0.957984 0
M  V30 9 N -4.75446 1.29305 -0.820248 0
M  V30 10 C -5.21748 1.7607 -2.06749 0
M  V30 11 O -4.58372 1.46131 -3.13063 0
M  V30 12 C -6.45053 2.61575 -2.19882 0
M  V30 13 S -7.24517 2.8966 -0.633931 0
M  V30 14 C -7.9592 1.38449 0.0240268 0
M  V30 15 N -7.97932 0.149071 -0.461422 0
M  V30 16 N -8.54877 -0.772982 0.18557 0
M  V30 17 C -9.12758 -0.507044 1.35189 0
M  V30 18 S -8.81332 1.17507 1.49038 0
M  V30 19 N -9.82389 -1.40508 2.24132 0
M  V30 20 C 0.9672 -1.82708 0.0291761 0
M  V30 21 C 1.82094 -2.92749 -0.118504 0
M  V30 22 C 3.11538 -2.74071 -0.512292 0
M  V30 23 C 3.64597 -1.46624 -0.783352 0
M  V30 24 C 2.79977 -0.401074 -0.635554 0
M  V30 25 C 1.48137 -0.587779 -0.234333 0
M  V30 26 N 4.97753 -1.35197 -1.20286 0
M  V30 27 C 5.73223 -0.169643 -1.12605 0
M  V30 28 O 5.35443 0.932606 -0.679698 0
M  V30 29 C 7.14209 -0.233689 -1.63346 0
M  V30 30 S 8.02159 1.31599 -1.488 0
M  V30 31 C 8.30548 1.77148 0.225294 0
M  V30 32 N 7.5085 2.48839 1.00706 0
M  V30 33 N 7.84147 2.73071 2.2002 0
M  V30 34 C 8.99266 2.26852 2.67875 0
M  V30 35 S 9.60002 1.44026 1.29187 0
M  V30 36 N 9.56323 2.41798 3.97938 0
M  V30 37 H -0.666623 -0.484906 -1.76952 0
M  V30 38 H -2.47652 0.94126 -2.30763 0
M  V30 39 H -4.49579 -0.139559 1.25786 0
M  V30 40 H -2.65053 -1.61476 1.88578 0
M  V30 41 H -5.34503 1.60139 0.00628131 0
M  V30 42 H -7.10809 2.25838 -3.00512 0
M  V30 43 H -6.04383 3.60344 -2.5718 0
M  V30 44 H -9.29297 -2.08546 2.79544 0
M  V30 45 H -10.8558 -1.34467 2.30412 0
M  V30 46 H 1.42078 -3.91565 0.0882789 0
M  V30 47 H 3.80086 -3.57466 -0.633921 0
M  V30 48 H 3.09901 0.617552 -0.830261 0
M  V30 49 H 0.866083 0.291922 -0.126403 0
M  V30 50 H 5.41811 -2.23212 -1.60418 0
M  V30 51 H 7.08737 -0.522613 -2.69542 0
M  V30 52 H 7.69671 -1.04309 -1.08301 0
M  V30 53 H 10.0376 3.2982 4.24671 0
M  V30 54 H 9.50128 1.64229 4.65477 0
M  V30 END ATOM
M  V30 BEGIN BOND
M  V30 1 2 1 2
M  V30 2 1 2 3
M  V30 3 2 3 4
M  V30 4 1 4 5
M  V30 5 2 5 6
M  V30 6 1 6 7
M  V30 7 2 7 8
M  V30 8 1 6 9
M  V30 9 1 9 10
M  V30 10 2 10 11
M  V30 11 1 10 12
M  V30 12 1 12 13
M  V30 13 1 13 14
M  V30 14 2 14 15
M  V30 15 1 15 16
M  V30 16 2 16 17
M  V30 17 1 17 18
M  V30 18 1 17 19
M  V30 19 1 2 20
M  V30 20 2 20 21
M  V30 21 1 21 22
M  V30 22 2 22 23
M  V30 23 1 23 24
M  V30 24 2 24 25
M  V30 25 1 23 26
M  V30 26 1 26 27
M  V30 27 2 27 28
M  V30 28 1 27 29
M  V30 29 1 29 30
M  V30 30 1 30 31
M  V30 31 2 31 32
M  V30 32 1 32 33
M  V30 33 2 33 34
M  V30 34 1 34 35
M  V30 35 1 34 36
M  V30 36 1 8 3
M  V30 37 1 18 14
M  V30 38 1 25 20
M  V30 39 1 35 31
M  V30 40 1 4 37
M  V30 41 1 5 38
M  V30 42 1 7 39
M  V30 43 1 8 40
M  V30 44 1 9 41
M  V30 45 1 12 42
M  V30 46 1 12 43
M  V30 47 1 19 44
M  V30 48 1 19 45
M  V30 49 1 21 46
M  V30 50 1 22 47
M  V30 51 1 24 48
M  V30 52 1 25 49
M  V30 53 1 26 50
M  V30 54 1 29 51
M  V30 55 1 29 52
M  V30 56 1 36 53
M  V30 57 1 36 54
M  V30 END BOND
M  V30 END CTAB
M  END
