
     RDKit          3D

  0  0  0  0  0  0  0  0  0  0999 V3000
M  V30 BEGIN CTAB
M  V30 COUNTS 20 20 0 0 0
M  V30 BEGIN ATOM
M  V30 1 N 3.22293 -0.274775 -0.106448 0
M  V30 2 C 1.81164 -0.103774 -0.0701497 0
M  V30 3 C 0.948777 -1.17004 0.13189 0
M  V30 4 C -0.417578 -0.981231 0.163461 0
M  V30 5 N -1.30295 -2.08983 0.372994 0
M  V30 6 C -1.00168 0.257133 -0.000869005 0
M  V30 7 C -0.152644 1.32452 -0.202465 0
M  V30 8 C 1.21364 1.13098 -0.233307 0
M  V30 9 O -0.735459 2.57489 -0.368688 0
M  V30 10 C -2.48227 0.406805 0.0417924 0
M  V30 11 H 3.906 0.305471 0.41431 0
M  V30 12 H 3.59084 -1.04071 -0.701592 0
M  V30 13 H 1.38486 -2.15181 0.263396 0
M  V30 14 H -1.18777 -2.68472 1.22373 0
M  V30 15 H -2.05255 -2.29008 -0.326756 0
M  V30 16 H 1.88863 1.98744 -0.394787 0
M  V30 17 H -0.106887 3.36114 -0.517327 0
M  V30 18 H -2.78366 0.583309 1.10904 0
M  V30 19 H -2.74664 1.33715 -0.494209 0
M  V30 20 H -2.99723 -0.481883 -0.30401 0
M  V30 END ATOM
M  V30 BEGIN BOND
M  V30 1 1 1 2
M  V30 2 2 2 3
M  V30 3 1 3 4
M  V30 4 1 4 5
M  V30 5 2 4 6
M  V30 6 1 6 7
M  V30 7 2 7 8
M  V30 8 1 7 9
M  V30 9 1 6 10
M  V30 10 1 8 2
M  V30 11 1 1 11
M  V30 12 1 1 12
M  V30 13 1 3 13
M  V30 14 1 5 14
M  V30 15 1 5 15
M  V30 16 1 8 16
M  V30 17 1 9 17
M  V30 18 1 10 18
M  V30 19 1 10 19
M  V30 20 1 10 20
M  V30 END BOND
M  V30 END CTAB
M  END
