
     RDKit          3D

  0  0  0  0  0  0  0  0  0  0999 V3000
M  V30 BEGIN CTAB
M  V30 COUNTS 25 26 0 0 0
M  V30 BEGIN ATOM
M  V30 1 N -3.33997 1.05534 -0.518582 0
M  V30 2 C -2.25283 0.151765 -0.231974 0
M  V30 3 C -2.57099 -1.18137 -0.0637481 0
M  V30 4 C -1.58341 -2.10514 0.212857 0
M  V30 5 C -0.285823 -1.65047 0.313012 0
M  V30 6 C 0.0580261 -0.306113 0.146421 0
M  V30 7 C -0.955621 0.606397 -0.131865 0
M  V30 8 C -0.359554 1.94396 -0.264 0
M  V30 9 C 1.11652 1.68188 -0.316504 0
M  V30 10 N 1.29479 0.359363 0.205305 0
M  V30 11 S 2.77199 -0.265235 0.789223 0
M  V30 12 O 2.61865 -0.659544 2.24773 0
M  V30 13 O 3.85819 0.79176 0.775691 0
M  V30 14 N 3.24308 -1.59065 -0.129758 0
M  V30 15 H -3.26638 1.69188 -1.32876 0
M  V30 16 H -4.20561 1.06742 0.0943511 0
M  V30 17 H -3.60145 -1.49565 -0.15067 0
M  V30 18 H -1.84065 -3.14751 0.34327 0
M  V30 19 H 0.485422 -2.38789 0.531553 0
M  V30 20 H -0.577117 2.52877 0.645031 0
M  V30 21 H -0.719102 2.49618 -1.15541 0
M  V30 22 H 1.50145 1.7706 -1.36546 0
M  V30 23 H 1.67707 2.43209 0.285561 0
M  V30 24 H 4.10095 -2.06622 0.107751 0
M  V30 25 H 2.83236 -1.72161 -1.04103 0
M  V30 END ATOM
M  V30 BEGIN BOND
M  V30 1 1 1 2
M  V30 2 2 2 3
M  V30 3 1 3 4
M  V30 4 2 4 5
M  V30 5 1 5 6
M  V30 6 2 6 7
M  V30 7 1 7 8
M  V30 8 1 8 9
M  V30 9 1 9 10
M  V30 10 1 10 11
M  V30 11 2 11 12
M  V30 12 2 11 13
M  V30 13 1 11 14
M  V30 14 1 7 2
M  V30 15 1 10 6
M  V30 16 1 1 15
M  V30 17 1 1 16
M  V30 18 1 3 17
M  V30 19 1 4 18
M  V30 20 1 5 19
M  V30 21 1 8 20
M  V30 22 1 8 21
M  V30 23 1 9 22
M  V30 24 1 9 23
M  V30 25 1 14 24
M  V30 26 1 14 25
M  V30 END BOND
M  V30 END CTAB
M  END
