
     RDKit          3D

  0  0  0  0  0  0  0  0  0  0999 V3000
M  V30 BEGIN CTAB
M  V30 COUNTS 66 68 0 0 0
M  V30 BEGIN ATOM
M  V30 1 C -4.15687 1.2691 0.974479 0
M  V30 2 C -4.69401 0.50016 2.1043 0
M  V30 3 C -6.0563 0.689311 2.62555 0
M  V30 4 C -7.19475 0.367675 1.75524 0
M  V30 5 O -7.94784 1.16569 1.17517 0
M  V30 6 O -7.44701 -1.0021 1.57382 0
M  V30 7 C -8.4781 -1.53282 0.800483 0
M  V30 8 C -8.35251 -3.05886 0.918762 0
M  V30 9 N -2.74218 0.840161 0.74494 0
M  V30 10 C -1.68116 1.76161 0.826465 0
M  V30 11 O -1.95285 2.95667 1.09711 0
M  V30 12 C -0.291562 1.40512 0.614564 0
M  V30 13 C 0.684743 2.38284 0.5934 0
M  V30 14 C 2.01031 2.07847 0.394313 0
M  V30 15 C 2.45345 0.763959 0.201108 0
M  V30 16 C 3.89911 0.512719 -0.0154988 0
M  V30 17 N 4.32996 -0.818791 0.199392 0
M  V30 18 C 5.69364 -1.17619 -0.00381821 0
M  V30 19 C 6.59863 -0.22242 -0.426009 0
M  V30 20 C 7.91376 -0.583188 -0.615976 0
M  V30 21 C 8.77906 0.414708 -1.04089 0
M  V30 22 N 8.29762 1.72724 -1.25764 0
M  V30 23 N 10.063 0.0629385 -1.22687 0
M  V30 24 C 10.5079 -1.18836 -1.01744 0
M  V30 25 N 11.8842 -1.46412 -1.24207 0
M  V30 26 N 9.68644 -2.17893 -0.603448 0
M  V30 27 C 8.39639 -1.86121 -0.40795 0
M  V30 28 C 7.46051 -2.79968 0.0170617 0
M  V30 29 C 6.13688 -2.47196 0.216857 0
M  V30 30 C 1.4831 -0.209943 0.221948 0
M  V30 31 C 0.134254 0.108798 0.425565 0
M  V30 32 C -4.77471 1.0786 -0.355109 0
M  V30 33 O -4.44116 -0.000485225 -0.958902 0
M  V30 34 O -5.63565 1.97816 -0.931594 0
M  V30 35 C -6.18392 1.78533 -2.19762 0
M  V30 36 C -7.02251 0.564703 -2.27038 0
M  V30 37 H -4.10207 2.33709 1.21643 0
M  V30 38 H -4.61396 -0.613961 1.7944 0
M  V30 39 H -3.95094 0.502566 2.97056 0
M  V30 40 H -6.19479 1.73545 3.06388 0
M  V30 41 H -6.22932 0.0459616 3.56243 0
M  V30 42 H -8.45803 -1.3121 -0.262554 0
M  V30 43 H -9.4691 -1.25886 1.25206 0
M  V30 44 H -7.77194 -3.43567 0.0523258 0
M  V30 45 H -9.35396 -3.51549 0.912088 0
M  V30 46 H -7.78771 -3.33425 1.83495 0
M  V30 47 H -2.55104 -0.149 0.523465 0
M  V30 48 H 0.355176 3.41563 0.743312 0
M  V30 49 H 2.77079 2.86529 0.380003 0
M  V30 50 H 4.52695 1.2126 0.603817 0
M  V30 51 H 4.11016 0.811251 -1.06521 0
M  V30 52 H 3.67459 -1.55966 0.509528 0
M  V30 53 H 6.25064 0.806786 -0.602521 0
M  V30 54 H 8.04883 2.40281 -0.503515 0
M  V30 55 H 8.18073 2.04892 -2.23965 0
M  V30 56 H 12.4867 -1.91686 -0.522537 0
M  V30 57 H 12.3319 -1.21493 -2.1495 0
M  V30 58 H 7.77594 -3.80067 0.193785 0
M  V30 59 H 5.40139 -3.21045 0.550915 0
M  V30 60 H 1.75519 -1.23492 0.0774241 0
M  V30 61 H -0.61285 -0.686966 0.437389 0
M  V30 62 H -6.73296 2.70129 -2.53332 0
M  V30 63 H -5.29521 1.70075 -2.90157 0
M  V30 64 H -6.63621 -0.34695 -1.8379 0
M  V30 65 H -8.01954 0.795445 -1.80611 0
M  V30 66 H -7.24931 0.363986 -3.34396 0
M  V30 END ATOM
M  V30 BEGIN BOND
M  V30 1 1 1 2
M  V30 2 1 2 3
M  V30 3 1 3 4
M  V30 4 2 4 5
M  V30 5 1 4 6
M  V30 6 1 6 7
M  V30 7 1 7 8
M  V30 8 1 1 9
M  V30 9 1 9 10
M  V30 10 2 10 11
M  V30 11 1 10 12
M  V30 12 2 12 13
M  V30 13 1 13 14
M  V30 14 2 14 15
M  V30 15 1 15 16
M  V30 16 1 16 17
M  V30 17 1 17 18
M  V30 18 2 18 19
M  V30 19 1 19 20
M  V30 20 2 20 21
M  V30 21 1 21 22
M  V30 22 1 21 23
M  V30 23 2 23 24
M  V30 24 1 24 25
M  V30 25 1 24 26
M  V30 26 2 26 27
M  V30 27 1 27 28
M  V30 28 2 28 29
M  V30 29 1 15 30
M  V30 30 2 30 31
M  V30 31 1 1 32
M  V30 32 2 32 33
M  V30 33 1 32 34
M  V30 34 1 34 35
M  V30 35 1 35 36
M  V30 36 1 31 12
M  V30 37 1 29 18
M  V30 38 1 27 20
M  V30 39 1 1 37
M  V30 40 1 2 38
M  V30 41 1 2 39
M  V30 42 1 3 40
M  V30 43 1 3 41
M  V30 44 1 7 42
M  V30 45 1 7 43
M  V30 46 1 8 44
M  V30 47 1 8 45
M  V30 48 1 8 46
M  V30 49 1 9 47
M  V30 50 1 13 48
M  V30 51 1 14 49
M  V30 52 1 16 50
M  V30 53 1 16 51
M  V30 54 1 17 52
M  V30 55 1 19 53
M  V30 56 1 22 54
M  V30 57 1 22 55
M  V30 58 1 25 56
M  V30 59 1 25 57
M  V30 60 1 28 58
M  V30 61 1 29 59
M  V30 62 1 30 60
M  V30 63 1 31 61
M  V30 64 1 35 62
M  V30 65 1 35 63
M  V30 66 1 36 64
M  V30 67 1 36 65
M  V30 68 1 36 66
M  V30 END BOND
M  V30 END CTAB
M  END
