
     RDKit          3D

  0  0  0  0  0  0  0  0  0  0999 V3000
M  V30 BEGIN CTAB
M  V30 COUNTS 28 28 0 0 0
M  V30 BEGIN ATOM
M  V30 1 N -3.30757 -0.782238 0.843102 0
M  V30 2 C -2.073 -0.036125 0.901818 0
M  V30 3 C -1.74425 0.437195 -0.499537 0
M  V30 4 S -0.227091 1.37107 -0.545218 0
M  V30 5 C 1.24842 0.4622 -0.240204 0
M  V30 6 N 2.41835 1.18021 -0.189717 0
M  V30 7 C 3.58913 0.584796 0.0445566 0
M  V30 8 N 4.7995 1.35763 0.0907387 0
M  V30 9 C 3.64009 -0.778999 0.24211 0
M  V30 10 C 2.45427 -1.48751 0.188047 0
M  V30 11 O 2.42635 -2.73173 0.358432 0
M  V30 12 N 1.27639 -0.843474 -0.0541025 0
M  V30 13 C -2.85471 1.43942 -0.903237 0
M  V30 14 C -1.76808 -0.751124 -1.42077 0
M  V30 15 H -3.96754 -0.538242 1.61088 0
M  V30 16 H -3.18869 -1.79687 0.700345 0
M  V30 17 H -1.22632 -0.567858 1.32512 0
M  V30 18 H -2.24902 0.871118 1.52228 0
M  V30 19 H 5.73595 0.918671 0.19142 0
M  V30 20 H 4.74245 2.38692 0.0213785 0
M  V30 21 H 4.5875 -1.26569 0.432075 0
M  V30 22 H 0.413543 -1.41378 -0.0930836 0
M  V30 23 H -3.09271 1.98718 0.0330518 0
M  V30 24 H -2.44553 2.18915 -1.6106 0
M  V30 25 H -3.71247 0.881344 -1.27032 0
M  V30 26 H -0.917325 -0.733197 -2.13529 0
M  V30 27 H -2.70588 -0.677394 -2.033 0
M  V30 28 H -1.85176 -1.66266 -0.834023 0
M  V30 END ATOM
M  V30 BEGIN BOND
M  V30 1 1 1 2
M  V30 2 1 2 3
M  V30 3 1 3 4
M  V30 4 1 4 5
M  V30 5 2 5 6
M  V30 6 1 6 7
M  V30 7 1 7 8
M  V30 8 2 7 9
M  V30 9 1 9 10
M  V30 10 2 10 11
M  V30 11 1 10 12
M  V30 12 1 3 13
M  V30 13 1 3 14
M  V30 14 1 12 5
M  V30 15 1 1 15
M  V30 16 1 1 16
M  V30 17 1 2 17
M  V30 18 1 2 18
M  V30 19 1 8 19
M  V30 20 1 8 20
M  V30 21 1 9 21
M  V30 22 1 12 22
M  V30 23 1 13 23
M  V30 24 1 13 24
M  V30 25 1 13 25
M  V30 26 1 14 26
M  V30 27 1 14 27
M  V30 28 1 14 28
M  V30 END BOND
M  V30 END CTAB
M  END
