
     RDKit          3D

  0  0  0  0  0  0  0  0  0  0999 V3000
M  V30 BEGIN CTAB
M  V30 COUNTS 25 25 0 0 0
M  V30 BEGIN ATOM
M  V30 1 N 4.92174 -0.557308 -0.567847 0
M  V30 2 C 3.66971 0.0487588 -0.277532 0
M  V30 3 N 3.05088 0.858573 -1.24394 0
M  V30 4 N 3.11065 -0.14338 0.858716 0
M  V30 5 C 1.86079 0.477305 1.11442 0
M  V30 6 O 1.87751 1.5055 1.84489 0
M  V30 7 O 0.67059 -0.0115142 0.593308 0
M  V30 8 C -0.506172 0.673827 0.905513 0
M  V30 9 C -1.71225 0.0597474 0.293418 0
M  V30 10 C -1.68531 -1.0663 -0.50137 0
M  V30 11 C -2.86447 -1.58605 -1.04259 0
M  V30 12 C -4.06752 -0.974589 -0.784912 0
M  V30 13 C -4.11538 0.149494 0.00542454 0
M  V30 14 C -2.94146 0.63915 0.524533 0
M  V30 15 H 5.41007 -0.435593 -1.47144 0
M  V30 16 H 5.4191 -1.16908 0.135749 0
M  V30 17 H 2.5352 0.428142 -2.02978 0
M  V30 18 H 3.10488 1.88632 -1.17896 0
M  V30 19 H -0.63276 0.64017 2.01493 0
M  V30 20 H -0.463251 1.74807 0.600955 0
M  V30 21 H -0.751406 -1.53185 -0.694911 0
M  V30 22 H -2.84751 -2.46683 -1.66487 0
M  V30 23 H -5.01229 -1.34446 -1.18553 0
M  V30 24 H -5.0492 0.641416 0.217697 0
M  V30 25 H -2.98214 1.53048 1.15085 0
M  V30 END ATOM
M  V30 BEGIN BOND
M  V30 1 1 1 2
M  V30 2 1 2 3
M  V30 3 2 2 4
M  V30 4 1 4 5
M  V30 5 2 5 6
M  V30 6 1 5 7
M  V30 7 1 7 8
M  V30 8 1 8 9
M  V30 9 2 9 10
M  V30 10 1 10 11
M  V30 11 2 11 12
M  V30 12 1 12 13
M  V30 13 2 13 14
M  V30 14 1 14 9
M  V30 15 1 1 15
M  V30 16 1 1 16
M  V30 17 1 3 17
M  V30 18 1 3 18
M  V30 19 1 8 19
M  V30 20 1 8 20
M  V30 21 1 10 21
M  V30 22 1 11 22
M  V30 23 1 12 23
M  V30 24 1 13 24
M  V30 25 1 14 25
M  V30 END BOND
M  V30 END CTAB
M  END
