
     RDKit          3D

  0  0  0  0  0  0  0  0  0  0999 V3000
M  V30 BEGIN CTAB
M  V30 COUNTS 64 68 0 0 0
M  V30 BEGIN ATOM
M  V30 1 N -5.03014 3.59063 0.657414 0
M  V30 2 C -5.38926 2.2162 0.626535 0
M  V30 3 N -6.69044 1.88331 0.699513 0
M  V30 4 C -7.11252 0.590047 0.676068 0
M  V30 5 N -8.485 0.281967 0.754742 0
M  V30 6 C -6.11943 -0.3659 0.572264 0
M  V30 7 C -4.77787 -0.0500481 0.495938 0
M  V30 8 N -4.43625 1.2494 0.524958 0
M  V30 9 N -4.02904 -1.16435 0.402021 0
M  V30 10 C -4.90538 -2.18589 0.419467 0
M  V30 11 N -6.17385 -1.70934 0.522459 0
M  V30 12 C -2.60274 -1.31415 0.301549 0 CFG=2
M  V30 13 C -1.85366 -0.233664 1.07529 0
M  V30 14 O -0.519508 -0.647771 1.12082 0
M  V30 15 C 0.102798 -0.58235 -0.101787 0
M  V30 16 C -0.850486 -0.468862 -1.25998 0
M  V30 17 C -2.08624 -1.31296 -1.09613 0 CFG=2
M  V30 18 C -3.10459 -0.811532 -2.10533 0
M  V30 19 O -1.7375 -2.62331 -1.49666 0
M  V30 20 C 0.987106 0.646749 -0.118829 0
M  V30 21 C 1.95559 0.551118 1.03983 0
M  V30 22 N 2.81572 -0.588871 0.801392 0
M  V30 23 C 2.1246 -1.86717 0.618471 0
M  V30 24 C 1.01316 -1.76246 -0.373288 0
M  V30 25 C 4.22887 -0.545545 0.742055 0
M  V30 26 O 4.83509 -1.64488 0.53901 0
M  V30 27 C 5.0318 0.67742 0.897172 0 CFG=2
M  V30 28 C 4.90608 1.57246 -0.300336 0
M  V30 29 C 5.94105 1.08812 -1.32567 0
M  V30 30 C 7.29577 1.32281 -0.691793 0
M  V30 31 N 7.41823 0.304351 0.341518 0
M  V30 32 C 6.42816 0.423154 1.35726 0
M  V30 33 H -5.18351 4.17942 -0.167687 0
M  V30 34 H -4.60902 4.01893 1.51079 0
M  V30 35 H -8.97845 -0.0896898 -0.0691605 0
M  V30 36 H -8.9949 0.428786 1.63737 0
M  V30 37 H -4.69197 -3.2387 0.363466 0
M  V30 38 H -2.28701 -2.28543 0.778817 0
M  V30 39 H -2.21115 -0.16949 2.12354 0
M  V30 40 H -1.89352 0.738353 0.552304 0
M  V30 41 H -1.16673 0.584735 -1.4152 0
M  V30 42 H -0.329043 -0.806043 -2.17247 0
M  V30 43 H -3.16362 0.295762 -2.10201 0
M  V30 44 H -2.78548 -1.14238 -3.12824 0
M  V30 45 H -4.10299 -1.21292 -1.94518 0
M  V30 46 H -1.95199 -3.26253 -0.756478 0
M  V30 47 H 1.51424 0.75162 -1.0934 0
M  V30 48 H 0.34076 1.56235 0.00914537 0
M  V30 49 H 1.31121 0.352497 1.94335 0
M  V30 50 H 2.49184 1.50804 1.14822 0
M  V30 51 H 1.68713 -2.17036 1.61052 0
M  V30 52 H 2.80887 -2.66447 0.295923 0
M  V30 53 H 0.44053 -2.70874 -0.341919 0
M  V30 54 H 1.42029 -1.62561 -1.39111 0
M  V30 55 H 4.53547 1.24296 1.75109 0
M  V30 56 H 3.91899 1.49621 -0.746004 0
M  V30 57 H 5.10805 2.62441 -0.00521812 0
M  V30 58 H 5.82366 1.59889 -2.28594 0
M  V30 59 H 5.79823 -0.0105865 -1.38778 0
M  V30 60 H 7.38078 2.32202 -0.221022 0
M  V30 61 H 8.06753 1.12565 -1.45527 0
M  V30 62 H 7.34069 -0.615388 -0.145594 0
M  V30 63 H 6.76318 1.19164 2.09145 0
M  V30 64 H 6.41779 -0.538617 1.93273 0
M  V30 END ATOM
M  V30 BEGIN BOND
M  V30 1 1 1 2
M  V30 2 2 2 3
M  V30 3 1 3 4
M  V30 4 1 4 5
M  V30 5 2 4 6
M  V30 6 1 6 7
M  V30 7 2 7 8
M  V30 8 1 7 9
M  V30 9 1 9 10
M  V30 10 2 10 11
M  V30 11 1 9 12
M  V30 12 1 12 13
M  V30 13 1 13 14
M  V30 14 1 14 15
M  V30 15 1 15 16
M  V30 16 1 16 17
M  V30 17 1 17 18
M  V30 18 1 17 19 CFG=3
M  V30 19 1 15 20
M  V30 20 1 20 21
M  V30 21 1 21 22
M  V30 22 1 22 23
M  V30 23 1 23 24
M  V30 24 1 22 25
M  V30 25 2 25 26
M  V30 26 1 25 27
M  V30 27 1 27 28
M  V30 28 1 28 29
M  V30 29 1 29 30
M  V30 30 1 30 31
M  V30 31 1 31 32
M  V30 32 1 8 2
M  V30 33 1 17 12
M  V30 34 1 32 27
M  V30 35 1 11 6
M  V30 36 1 24 15
M  V30 37 1 1 33
M  V30 38 1 1 34
M  V30 39 1 5 35
M  V30 40 1 5 36
M  V30 41 1 10 37
M  V30 42 1 12 38 CFG=1
M  V30 43 1 13 39
M  V30 44 1 13 40
M  V30 45 1 16 41
M  V30 46 1 16 42
M  V30 47 1 18 43
M  V30 48 1 18 44
M  V30 49 1 18 45
M  V30 50 1 19 46
M  V30 51 1 20 47
M  V30 52 1 20 48
M  V30 53 1 21 49
M  V30 54 1 21 50
M  V30 55 1 23 51
M  V30 56 1 23 52
M  V30 57 1 24 53
M  V30 58 1 24 54
M  V30 59 1 27 55 CFG=1
M  V30 60 1 28 56
M  V30 61 1 28 57
M  V30 62 1 29 58
M  V30 63 1 29 59
M  V30 64 1 30 60
M  V30 65 1 30 61
M  V30 66 1 31 62
M  V30 67 1 32 63
M  V30 68 1 32 64
M  V30 END BOND
M  V30 END CTAB
M  END
