
     RDKit          3D

  0  0  0  0  0  0  0  0  0  0999 V3000
M  V30 BEGIN CTAB
M  V30 COUNTS 54 56 0 0 0
M  V30 BEGIN ATOM
M  V30 1 C 0.271623 -1.2069 2.43193 0
M  V30 2 C -0.893077 -0.371454 2.04203 0
M  V30 3 C -2.17137 -0.943915 2.01725 0
M  V30 4 C -3.28061 -0.202428 1.66818 0
M  V30 5 C -3.06123 1.11769 1.3482 0
M  V30 6 N -4.16877 1.94636 0.979834 0
M  V30 7 C -1.7858 1.64205 1.38381 0
M  V30 8 O -1.57635 2.85743 1.08866 0
M  V30 9 N -0.696731 0.915658 1.72674 0
M  V30 10 C 0.626423 1.54937 1.74839 0
M  V30 11 C 1.33658 1.40339 0.457987 0
M  V30 12 O 0.821171 1.77553 -0.606088 0
M  V30 13 N 2.63504 0.825089 0.450386 0
M  V30 14 C 3.33928 0.673316 -0.768888 0
M  V30 15 C 4.687 0.115956 -0.6889 0
M  V30 16 C 5.31712 -0.256085 0.458902 0
M  V30 17 C 6.61569 -0.758677 0.363303 0
M  V30 18 C 7.28683 -0.896203 -0.825231 0
M  V30 19 N 8.61373 -1.41821 -0.8166 0
M  V30 20 N 6.65056 -0.526714 -1.93589 0
M  V30 21 C 5.40454 -0.0406742 -1.87945 0
M  V30 22 C 4.7949 0.343902 -3.17691 0
M  V30 23 S -4.88762 -0.936593 1.66759 0
M  V30 24 O -5.66507 -0.237952 2.76587 0
M  V30 25 O -4.73929 -2.36676 2.11115 0
M  V30 26 C -5.67286 -0.773336 0.138934 0
M  V30 27 C -6.66394 0.191554 -0.0521792 0
M  V30 28 C -7.28259 0.353003 -1.2723 0
M  V30 29 C -6.93954 -0.436998 -2.34485 0
M  V30 30 C -5.96195 -1.3951 -2.17121 0
M  V30 31 C -5.33633 -1.55958 -0.939763 0
M  V30 32 H 0.891692 -1.51386 1.57212 0
M  V30 33 H -0.141107 -2.11327 2.97069 0
M  V30 34 H 0.850037 -0.670431 3.19137 0
M  V30 35 H -2.31439 -1.99814 2.27835 0
M  V30 36 H -4.89856 2.26948 1.64319 0
M  V30 37 H -4.2395 2.24171 -0.0298807 0
M  V30 38 H 0.490881 2.66376 1.90835 0
M  V30 39 H 1.23898 1.22766 2.61202 0
M  V30 40 H 3.07681 0.504709 1.35118 0
M  V30 41 H 2.70738 0.0159301 -1.42897 0
M  V30 42 H 3.32763 1.68006 -1.29441 0
M  V30 43 H 4.85114 -0.177039 1.44554 0
M  V30 44 H 7.09568 -1.04764 1.31191 0
M  V30 45 H 9.17483 -1.26821 0.0600656 0
M  V30 46 H 8.9638 -1.91483 -1.66274 0
M  V30 47 H 5.03865 -0.393438 -3.97508 0
M  V30 48 H 3.70352 0.502329 -3.10711 0
M  V30 49 H 5.27153 1.30152 -3.52813 0
M  V30 50 H -6.9521 0.819477 0.79943 0
M  V30 51 H -8.06417 1.11081 -1.42294 0
M  V30 52 H -7.42473 -0.29986 -3.2782 0
M  V30 53 H -5.69605 -2.01472 -3.02295 0
M  V30 54 H -4.5693 -2.30873 -0.797119 0
M  V30 END ATOM
M  V30 BEGIN BOND
M  V30 1 1 1 2
M  V30 2 2 2 3
M  V30 3 1 3 4
M  V30 4 2 4 5
M  V30 5 1 5 6
M  V30 6 1 5 7
M  V30 7 2 7 8
M  V30 8 1 7 9
M  V30 9 1 9 10
M  V30 10 1 10 11
M  V30 11 2 11 12
M  V30 12 1 11 13
M  V30 13 1 13 14
M  V30 14 1 14 15
M  V30 15 2 15 16
M  V30 16 1 16 17
M  V30 17 2 17 18
M  V30 18 1 18 19
M  V30 19 1 18 20
M  V30 20 2 20 21
M  V30 21 1 21 22
M  V30 22 1 4 23
M  V30 23 2 23 24
M  V30 24 2 23 25
M  V30 25 1 23 26
M  V30 26 2 26 27
M  V30 27 1 27 28
M  V30 28 2 28 29
M  V30 29 1 29 30
M  V30 30 2 30 31
M  V30 31 1 9 2
M  V30 32 1 21 15
M  V30 33 1 31 26
M  V30 34 1 1 32
M  V30 35 1 1 33
M  V30 36 1 1 34
M  V30 37 1 3 35
M  V30 38 1 6 36
M  V30 39 1 6 37
M  V30 40 1 10 38
M  V30 41 1 10 39
M  V30 42 1 13 40
M  V30 43 1 14 41
M  V30 44 1 14 42
M  V30 45 1 16 43
M  V30 46 1 17 44
M  V30 47 1 19 45
M  V30 48 1 19 46
M  V30 49 1 22 47
M  V30 50 1 22 48
M  V30 51 1 22 49
M  V30 52 1 27 50
M  V30 53 1 28 51
M  V30 54 1 29 52
M  V30 55 1 30 53
M  V30 56 1 31 54
M  V30 END BOND
M  V30 END CTAB
M  END
