
     RDKit          3D

  0  0  0  0  0  0  0  0  0  0999 V3000
M  V30 BEGIN CTAB
M  V30 COUNTS 59 62 0 0 0
M  V30 BEGIN ATOM
M  V30 1 C -4.55048 0.124936 0.017982 0 CFG=2
M  V30 2 C -4.7007 -1.31444 0.475373 0
M  V30 3 N -5.59756 0.311856 -1.00707 0
M  V30 4 C -3.26294 0.395366 -0.657463 0 CFG=1
M  V30 5 C -3.23502 1.85901 -1.06291 0
M  V30 6 C -1.81783 2.35282 -0.733418 0
M  V30 7 C -1.07531 1.09352 -0.661573 0 CFG=1
M  V30 8 C 0.237507 1.0649 0.0018553 0 CFG=2
M  V30 9 C 1.18118 2.14862 -0.39626 0
M  V30 10 C 2.57026 1.7921 0.0024552 0
M  V30 11 C 2.94706 0.583299 0.355848 0
M  V30 12 C 4.3743 0.372902 0.731017 0
M  V30 13 C 4.977 -0.601001 -0.237033 0 CFG=1
M  V30 14 N 5.75976 -1.56473 0.501698 0
M  V30 15 C 3.93277 -1.26919 -1.10488 0
M  V30 16 C 2.82008 -1.7437 -0.196155 0
M  V30 17 C 2.04278 -0.606851 0.408736 0 CFG=1
M  V30 18 C 1.71563 -0.947854 1.8233 0
M  V30 19 C 0.842486 -0.279389 -0.429292 0 CFG=1
M  V30 20 C -0.162303 -1.35081 -0.561615 0
M  V30 21 C -1.45324 -1.16348 0.144807 0
M  V30 22 C -2.02774 0.19832 0.148796 0 CFG=2
M  V30 23 C -2.12518 0.686032 1.56262 0
M  V30 24 H -4.82742 0.82867 0.820799 0
M  V30 25 H -5.76566 -1.41052 0.826835 0
M  V30 26 H -4.0617 -1.56958 1.3257 0
M  V30 27 H -4.60873 -1.9762 -0.389996 0
M  V30 28 H -5.62413 -0.496263 -1.66005 0
M  V30 29 H -6.49626 0.576683 -0.595786 0
M  V30 30 H -3.1972 -0.234815 -1.56371 0
M  V30 31 H -3.3849 1.94256 -2.1549 0
M  V30 32 H -3.95339 2.46634 -0.476864 0
M  V30 33 H -1.45411 2.96874 -1.60599 0
M  V30 34 H -1.79313 3.00471 0.133369 0
M  V30 35 H -1.0448 0.627399 -1.67278 0
M  V30 36 H 0.114368 1.10507 1.10101 0
M  V30 37 H 0.942664 3.11037 0.124258 0
M  V30 38 H 1.09347 2.33351 -1.47751 0
M  V30 39 H 3.29122 2.61791 -0.0135013 0
M  V30 40 H 4.95525 1.31624 0.671078 0
M  V30 41 H 4.47462 0.0407567 1.78894 0
M  V30 42 H 5.65984 -0.0739128 -0.923556 0
M  V30 43 H 5.89906 -2.38731 -0.158676 0
M  V30 44 H 6.7201 -1.17077 0.640827 0
M  V30 45 H 3.57235 -0.625508 -1.90851 0
M  V30 46 H 4.40114 -2.17143 -1.54153 0
M  V30 47 H 3.31239 -2.2977 0.629852 0
M  V30 48 H 2.21766 -2.46403 -0.752938 0
M  V30 49 H 0.797969 -0.519097 2.21665 0
M  V30 50 H 2.57394 -0.66124 2.49915 0
M  V30 51 H 1.64787 -2.06803 1.94021 0
M  V30 52 H 1.25433 -0.0538794 -1.45983 0
M  V30 53 H 0.258379 -2.34072 -0.210305 0
M  V30 54 H -0.409455 -1.55716 -1.64713 0
M  V30 55 H -1.33032 -1.57114 1.19147 0
M  V30 56 H -2.20523 -1.86692 -0.320664 0
M  V30 57 H -3.15445 0.686662 1.97145 0
M  V30 58 H -1.73464 1.71297 1.71032 0
M  V30 59 H -1.53358 0.0353943 2.24062 0
M  V30 END ATOM
M  V30 BEGIN BOND
M  V30 1 1 1 2
M  V30 2 1 1 3
M  V30 3 1 1 4
M  V30 4 1 4 5
M  V30 5 1 5 6
M  V30 6 1 6 7
M  V30 7 1 7 8
M  V30 8 1 8 9
M  V30 9 1 9 10
M  V30 10 2 10 11
M  V30 11 1 11 12
M  V30 12 1 12 13
M  V30 13 1 13 14
M  V30 14 1 13 15
M  V30 15 1 15 16
M  V30 16 1 16 17
M  V30 17 1 17 18 CFG=1
M  V30 18 1 17 19
M  V30 19 1 19 20
M  V30 20 1 20 21
M  V30 21 1 21 22
M  V30 22 1 22 23 CFG=1
M  V30 23 1 22 4
M  V30 24 1 22 7
M  V30 25 1 19 8
M  V30 26 1 17 11
M  V30 27 1 1 24 CFG=1
M  V30 28 1 2 25
M  V30 29 1 2 26
M  V30 30 1 2 27
M  V30 31 1 3 28
M  V30 32 1 3 29
M  V30 33 1 4 30 CFG=3
M  V30 34 1 5 31
M  V30 35 1 5 32
M  V30 36 1 6 33
M  V30 37 1 6 34
M  V30 38 1 7 35 CFG=3
M  V30 39 1 8 36 CFG=1
M  V30 40 1 9 37
M  V30 41 1 9 38
M  V30 42 1 10 39
M  V30 43 1 12 40
M  V30 44 1 12 41
M  V30 45 1 13 42 CFG=3
M  V30 46 1 14 43
M  V30 47 1 14 44
M  V30 48 1 15 45
M  V30 49 1 15 46
M  V30 50 1 16 47
M  V30 51 1 16 48
M  V30 52 1 18 49
M  V30 53 1 18 50
M  V30 54 1 18 51
M  V30 55 1 19 52 CFG=3
M  V30 56 1 20 53
M  V30 57 1 20 54
M  V30 58 1 21 55
M  V30 59 1 21 56
M  V30 60 1 23 57
M  V30 61 1 23 58
M  V30 62 1 23 59
M  V30 END BOND
M  V30 END CTAB
M  END
