
     RDKit          3D

  0  0  0  0  0  0  0  0  0  0999 V3000
M  V30 BEGIN CTAB
M  V30 COUNTS 47 47 0 0 0
M  V30 BEGIN ATOM
M  V30 1 N -2.45975 -2.26498 -2.62354 0
M  V30 2 C -1.51349 -2.38642 -1.51777 0
M  V30 3 C -1.07933 -0.98775 -1.13656 0
M  V30 4 C -2.26661 -0.164287 -0.711463 0
M  V30 5 C -3.01105 -0.702737 0.462863 0
M  V30 6 C -4.21551 0.118456 0.728747 0
M  V30 7 C -4.28161 1.44575 0.0813615 0
M  V30 8 C -3.02147 2.08617 -0.320867 0
M  V30 9 C -1.80392 1.228 -0.28077 0
M  V30 10 N -0.026819 -1.00231 -0.177846 0
M  V30 11 C 1.25028 -0.467841 -0.519402 0
M  V30 12 O 1.40167 0.00465235 -1.67497 0
M  V30 13 C 2.37767 -0.462038 0.449225 0
M  V30 14 C 2.98434 0.876024 0.650361 0
M  V30 15 C 4.12355 0.876062 1.64434 0
M  V30 16 C 5.25135 -0.0282456 1.22241 0
M  V30 17 C 3.44861 1.40239 -0.702697 0
M  V30 18 N 1.92023 -1.09924 1.65236 0
M  V30 19 H -2.35689 -3.05136 -3.30693 0
M  V30 20 H -2.40239 -1.32764 -3.08572 0
M  V30 21 H -1.90369 -2.95455 -0.670169 0
M  V30 22 H -0.603548 -2.92062 -1.91778 0
M  V30 23 H -0.723839 -0.519982 -2.10239 0
M  V30 24 H -2.96641 -0.0435363 -1.55287 0
M  V30 25 H -3.2655 -1.76783 0.259829 0
M  V30 26 H -2.33509 -0.689802 1.36825 0
M  V30 27 H -5.11363 -0.502915 0.433045 0
M  V30 28 H -4.32313 0.242864 1.8271 0
M  V30 29 H -4.94726 1.36289 -0.821479 0
M  V30 30 H -4.83985 2.15892 0.758101 0
M  V30 31 H -3.08588 2.50964 -1.36705 0
M  V30 32 H -2.79593 2.99707 0.309741 0
M  V30 33 H -1.34385 1.17693 0.734906 0
M  V30 34 H -1.05417 1.60212 -1.00328 0
M  V30 35 H -0.169065 -1.39554 0.769826 0
M  V30 36 H 3.15775 -1.14824 0.006734 0
M  V30 37 H 2.20941 1.58104 1.01146 0
M  V30 38 H 3.8142 0.581663 2.64923 0
M  V30 39 H 4.54996 1.89962 1.72546 0
M  V30 40 H 6.16451 0.319855 1.75673 0
M  V30 41 H 5.47925 0.0254022 0.149531 0
M  V30 42 H 5.04533 -1.04921 1.58091 0
M  V30 43 H 3.75109 0.600503 -1.39802 0
M  V30 44 H 2.68314 2.02358 -1.1916 0
M  V30 45 H 4.34935 2.04563 -0.589835 0
M  V30 46 H 1.34974 -0.509544 2.26161 0
M  V30 47 H 2.59822 -1.71859 2.10711 0
M  V30 END ATOM
M  V30 BEGIN BOND
M  V30 1 1 1 2
M  V30 2 1 2 3
M  V30 3 1 3 4
M  V30 4 1 4 5
M  V30 5 1 5 6
M  V30 6 1 6 7
M  V30 7 1 7 8
M  V30 8 1 8 9
M  V30 9 1 3 10
M  V30 10 1 10 11
M  V30 11 2 11 12
M  V30 12 1 11 13
M  V30 13 1 13 14
M  V30 14 1 14 15
M  V30 15 1 15 16
M  V30 16 1 14 17
M  V30 17 1 13 18
M  V30 18 1 9 4
M  V30 19 1 1 19
M  V30 20 1 1 20
M  V30 21 1 2 21
M  V30 22 1 2 22
M  V30 23 1 3 23
M  V30 24 1 4 24
M  V30 25 1 5 25
M  V30 26 1 5 26
M  V30 27 1 6 27
M  V30 28 1 6 28
M  V30 29 1 7 29
M  V30 30 1 7 30
M  V30 31 1 8 31
M  V30 32 1 8 32
M  V30 33 1 9 33
M  V30 34 1 9 34
M  V30 35 1 10 35
M  V30 36 1 13 36
M  V30 37 1 14 37
M  V30 38 1 15 38
M  V30 39 1 15 39
M  V30 40 1 16 40
M  V30 41 1 16 41
M  V30 42 1 16 42
M  V30 43 1 17 43
M  V30 44 1 17 44
M  V30 45 1 17 45
M  V30 46 1 18 46
M  V30 47 1 18 47
M  V30 END BOND
M  V30 END CTAB
M  END
