
     RDKit          3D

  0  0  0  0  0  0  0  0  0  0999 V3000
M  V30 BEGIN CTAB
M  V30 COUNTS 31 32 0 0 0
M  V30 BEGIN ATOM
M  V30 1 C 4.81466 0.291726 0.841198 0
M  V30 2 C 3.89784 -0.623024 0.087915 0
M  V30 3 C 2.51211 -0.0352822 -0.0827185 0
M  V30 4 C 1.64581 -1.0113 -0.849391 0
M  V30 5 C 0.299067 -0.372898 -0.982581 0
M  V30 6 C -0.634301 -0.603579 -0.00241198 0
M  V30 7 C -1.87376 -0.0244274 -0.11172 0
M  V30 8 C -2.79326 -0.273447 0.888538 0
M  V30 9 N -2.42447 -1.10756 1.97553 0
M  V30 10 N -3.99978 0.29525 0.77425 0
M  V30 11 C -4.29126 1.0811 -0.286582 0
M  V30 12 N -5.59828 1.65745 -0.347147 0
M  V30 13 N -3.39368 1.3225 -1.26031 0
M  V30 14 C -2.1538 0.77698 -1.20485 0
M  V30 15 N -1.24019 1.0125 -2.17976 0
M  V30 16 C -0.0341964 0.433 -2.04794 0
M  V30 17 H 5.85462 -0.0702089 0.696177 0
M  V30 18 H 4.80035 1.33658 0.423084 0
M  V30 19 H 4.62556 0.288249 1.93432 0
M  V30 20 H 4.32355 -0.814432 -0.912198 0
M  V30 21 H 3.85308 -1.58128 0.640521 0
M  V30 22 H 2.02875 0.15275 0.88883 0
M  V30 23 H 2.60402 0.935116 -0.607232 0
M  V30 24 H 2.07276 -1.25915 -1.84022 0
M  V30 25 H 1.50573 -1.95885 -0.290749 0
M  V30 26 H -0.393179 -1.24076 0.854639 0
M  V30 27 H -2.38403 -2.14364 1.76359 0
M  V30 28 H -2.20137 -0.780344 2.92467 0
M  V30 29 H -5.91291 2.39441 0.324377 0
M  V30 30 H -6.269 1.34794 -1.07243 0
M  V30 31 H 0.759559 0.574626 -2.79457 0
M  V30 END ATOM
M  V30 BEGIN BOND
M  V30 1 1 1 2
M  V30 2 1 2 3
M  V30 3 1 3 4
M  V30 4 1 4 5
M  V30 5 2 5 6
M  V30 6 1 6 7
M  V30 7 2 7 8
M  V30 8 1 8 9
M  V30 9 1 8 10
M  V30 10 2 10 11
M  V30 11 1 11 12
M  V30 12 1 11 13
M  V30 13 2 13 14
M  V30 14 1 14 15
M  V30 15 2 15 16
M  V30 16 1 16 5
M  V30 17 1 14 7
M  V30 18 1 1 17
M  V30 19 1 1 18
M  V30 20 1 1 19
M  V30 21 1 2 20
M  V30 22 1 2 21
M  V30 23 1 3 22
M  V30 24 1 3 23
M  V30 25 1 4 24
M  V30 26 1 4 25
M  V30 27 1 6 26
M  V30 28 1 9 27
M  V30 29 1 9 28
M  V30 30 1 12 29
M  V30 31 1 12 30
M  V30 32 1 16 31
M  V30 END BOND
M  V30 END CTAB
M  END
