
     RDKit          3D

  0  0  0  0  0  0  0  0  0  0999 V3000
M  V30 BEGIN CTAB
M  V30 COUNTS 101 100 0 0 0
M  V30 BEGIN ATOM
M  V30 1 C 2.71204 -0.39895 -2.9375 0
M  V30 2 C 3.77813 0.546378 -3.32963 0
M  V30 3 C 3.78899 1.8794 -2.67976 0 CFG=2
M  V30 4 C 4.98548 2.64599 -3.26693 0
M  V30 5 C 3.94519 1.92501 -1.21125 0 CFG=2
M  V30 6 N 5.16942 1.28254 -0.855694 0
M  V30 7 C 6.22364 1.85113 -0.103404 0
M  V30 8 O 6.07416 3.03226 0.313727 0
M  V30 9 C 7.48663 1.15591 0.223027 0 CFG=1
M  V30 10 N 8.2693 1.86355 1.20427 0
M  V30 11 C 7.36043 -0.304311 0.48553 0
M  V30 12 C 6.48824 -0.711033 1.61605 0
M  V30 13 C 6.89082 -0.217929 2.97142 0
M  V30 14 N 8.18543 -0.63828 3.41068 0
M  V30 15 C 8.48302 -2.01211 3.71126 0
M  V30 16 N 7.41357 -2.85109 4.15382 0
M  V30 17 N 9.65399 -2.51791 3.60246 0
M  V30 18 C 2.81537 1.60062 -0.3639 0
M  V30 19 O 2.99368 0.815428 0.628568 0
M  V30 20 N 1.48109 2.07004 -0.500495 0
M  V30 21 C 0.40837 1.74356 0.37901 0 CFG=1
M  V30 22 C -0.226151 3.0215 0.865535 0
M  V30 23 C -0.77615 3.85474 -0.264575 0
M  V30 24 C 0.763338 3.88467 1.62115 0
M  V30 25 C -0.549873 0.824483 -0.263749 0
M  V30 26 O -0.421689 0.398963 -1.43126 0
M  V30 27 N -1.72095 0.34617 0.440802 0
M  V30 28 C -2.64142 -0.558977 -0.149747 0 CFG=1
M  V30 29 C -2.69605 -1.89148 0.52345 0
M  V30 30 C -3.03508 -1.90984 1.96467 0
M  V30 31 C -4.37107 -1.34453 2.35828 0
M  V30 32 C -3.08882 -3.39101 2.39154 0
M  V30 33 C -3.98594 -0.0602637 -0.459752 0
M  V30 34 O -4.35589 1.12855 -0.171924 0
M  V30 35 N -4.96656 -0.867388 -1.10615 0
M  V30 36 C -6.28474 -0.385954 -1.41673 0 CFG=1
M  V30 37 C -6.32052 -0.240115 -2.94927 0
M  V30 38 C -7.28343 -1.39264 -0.993442 0
M  V30 39 O -6.89337 -2.4557 -0.438146 0
M  V30 40 N -8.67824 -1.22948 -1.18034 0
M  V30 41 C -9.62634 -2.22912 -0.758831 0 CFG=1
M  V30 42 C -10.7673 -1.59758 -0.00330107 0
M  V30 43 O -11.3701 -0.687366 -0.891288 0
M  V30 44 C -10.1909 -2.89205 -1.99908 0
M  V30 45 O -11.1104 -3.90654 -1.74146 0
M  V30 46 O -9.82853 -2.52131 -3.11852 0
M  V30 47 H 2.94462 -1.38604 -3.43424 0
M  V30 48 H 2.70396 -0.624449 -1.85508 0
M  V30 49 H 1.70441 -0.12917 -3.31354 0
M  V30 50 H 3.65198 0.740835 -4.43912 0
M  V30 51 H 4.75624 0.0210882 -3.24894 0
M  V30 52 H 2.90345 2.43763 -3.06054 0
M  V30 53 H 5.88576 1.98946 -3.24942 0
M  V30 54 H 4.81128 2.92682 -4.32627 0
M  V30 55 H 5.1998 3.55361 -2.66654 0
M  V30 56 H 4.15733 3.04401 -0.94704 0
M  V30 57 H 5.33537 0.280934 -1.16835 0
M  V30 58 H 8.11997 1.21804 -0.735986 0
M  V30 59 H 7.7411 2.72781 1.51292 0
M  V30 60 H 9.22321 2.08965 0.897251 0
M  V30 61 H 8.39803 -0.729915 0.642151 0
M  V30 62 H 6.98195 -0.776961 -0.467272 0
M  V30 63 H 6.49449 -1.8421 1.6896 0
M  V30 64 H 5.42985 -0.423011 1.45153 0
M  V30 65 H 6.13402 -0.638158 3.69683 0
M  V30 66 H 6.7787 0.884691 3.08221 0
M  V30 67 H 8.95494 0.050311 3.53112 0
M  V30 68 H 7.12924 -2.90842 5.15929 0
M  V30 69 H 6.89678 -3.42358 3.45785 0
M  V30 70 H 10.5158 -2.05569 3.30233 0
M  V30 71 H 1.27901 2.70071 -1.30802 0
M  V30 72 H 0.87325 1.24896 1.28611 0
M  V30 73 H -1.06443 2.83317 1.56691 0
M  V30 74 H -1.0908 3.16399 -1.08827 0
M  V30 75 H -1.6933 4.41425 0.062779 0
M  V30 76 H -0.0658344 4.63623 -0.61119 0
M  V30 77 H 1.62079 4.05016 0.921562 0
M  V30 78 H 1.09251 3.43015 2.57227 0
M  V30 79 H 0.279838 4.88314 1.73537 0
M  V30 80 H -1.83726 0.719983 1.41098 0
M  V30 81 H -2.2055 -0.801236 -1.19638 0
M  V30 82 H -1.69554 -2.41427 0.428706 0
M  V30 83 H -3.39321 -2.58684 0.0116115 0
M  V30 84 H -2.21319 -1.4951 2.60946 0
M  V30 85 H -5.16628 -1.81182 1.75183 0
M  V30 86 H -4.44875 -0.249066 2.30505 0
M  V30 87 H -4.55695 -1.7147 3.4038 0
M  V30 88 H -2.9328 -3.4702 3.48831 0
M  V30 89 H -4.09225 -3.74806 2.0901 0
M  V30 90 H -2.35246 -3.95509 1.80426 0
M  V30 91 H -4.67231 -1.86208 -1.35565 0
M  V30 92 H -6.42385 0.598762 -0.941061 0
M  V30 93 H -5.38043 0.137758 -3.34778 0
M  V30 94 H -6.45395 -1.27956 -3.36339 0
M  V30 95 H -7.20956 0.378013 -3.17037 0
M  V30 96 H -9.01357 -0.355145 -1.63799 0
M  V30 97 H -9.1434 -3.05379 -0.195906 0
M  V30 98 H -10.4238 -1.0324 0.870415 0
M  V30 99 H -11.5362 -2.35683 0.257437 0
M  V30 100 H -12.122 -0.209267 -0.475365 0
M  V30 101 H -10.991 -4.48518 -0.948501 0
M  V30 END ATOM
M  V30 BEGIN BOND
M  V30 1 1 1 2
M  V30 2 1 2 3
M  V30 3 1 3 4
M  V30 4 1 3 5
M  V30 5 1 5 6
M  V30 6 1 6 7
M  V30 7 2 7 8
M  V30 8 1 7 9
M  V30 9 1 9 10
M  V30 10 1 9 11
M  V30 11 1 11 12
M  V30 12 1 12 13
M  V30 13 1 13 14
M  V30 14 1 14 15
M  V30 15 1 15 16
M  V30 16 2 15 17 CFG=2
M  V30 17 1 5 18
M  V30 18 2 18 19
M  V30 19 1 18 20
M  V30 20 1 20 21
M  V30 21 1 21 22
M  V30 22 1 22 23
M  V30 23 1 22 24
M  V30 24 1 21 25
M  V30 25 2 25 26
M  V30 26 1 25 27
M  V30 27 1 27 28
M  V30 28 1 28 29
M  V30 29 1 29 30
M  V30 30 1 30 31
M  V30 31 1 30 32
M  V30 32 1 28 33
M  V30 33 2 33 34
M  V30 34 1 33 35
M  V30 35 1 35 36
M  V30 36 1 36 37
M  V30 37 1 36 38
M  V30 38 2 38 39
M  V30 39 1 38 40
M  V30 40 1 40 41
M  V30 41 1 41 42
M  V30 42 1 42 43
M  V30 43 1 41 44
M  V30 44 1 44 45
M  V30 45 2 44 46
M  V30 46 1 1 47
M  V30 47 1 1 48
M  V30 48 1 1 49
M  V30 49 1 2 50
M  V30 50 1 2 51
M  V30 51 1 3 52 CFG=1
M  V30 52 1 4 53
M  V30 53 1 4 54
M  V30 54 1 4 55
M  V30 55 1 5 56 CFG=3
M  V30 56 1 6 57
M  V30 57 1 9 58 CFG=3
M  V30 58 1 10 59
M  V30 59 1 10 60
M  V30 60 1 11 61
M  V30 61 1 11 62
M  V30 62 1 12 63
M  V30 63 1 12 64
M  V30 64 1 13 65
M  V30 65 1 13 66
M  V30 66 1 14 67
M  V30 67 1 16 68
M  V30 68 1 16 69
M  V30 69 1 17 70
M  V30 70 1 20 71
M  V30 71 1 21 72 CFG=1
M  V30 72 1 22 73
M  V30 73 1 23 74
M  V30 74 1 23 75
M  V30 75 1 23 76
M  V30 76 1 24 77
M  V30 77 1 24 78
M  V30 78 1 24 79
M  V30 79 1 27 80
M  V30 80 1 28 81 CFG=3
M  V30 81 1 29 82
M  V30 82 1 29 83
M  V30 83 1 30 84
M  V30 84 1 31 85
M  V30 85 1 31 86
M  V30 86 1 31 87
M  V30 87 1 32 88
M  V30 88 1 32 89
M  V30 89 1 32 90
M  V30 90 1 35 91
M  V30 91 1 36 92 CFG=1
M  V30 92 1 37 93
M  V30 93 1 37 94
M  V30 94 1 37 95
M  V30 95 1 40 96
M  V30 96 1 41 97 CFG=1
M  V30 97 1 42 98
M  V30 98 1 42 99
M  V30 99 1 43 100
M  V30 100 1 45 101
M  V30 END BOND
M  V30 END CTAB
M  END
