
     RDKit          3D

  0  0  0  0  0  0  0  0  0  0999 V3000
M  V30 BEGIN CTAB
M  V30 COUNTS 35 36 0 0 0
M  V30 BEGIN ATOM
M  V30 1 N 5.30676 1.0423 -0.387224 0
M  V30 2 C 3.97783 0.762217 -0.0121493 0
M  V30 3 C 3.02945 1.74152 0.191991 0
M  V30 4 C 1.74839 1.43165 0.562158 0
M  V30 5 C 1.33988 0.150847 0.748337 0
M  V30 6 C 2.26537 -0.874718 0.552337 0
M  V30 7 C 3.55479 -0.534349 0.178115 0
M  V30 8 N 4.48335 -1.59789 -0.0275906 0
M  V30 9 C -0.0689734 -0.117758 1.1446 0
M  V30 10 C -0.913363 -0.351655 -0.0981429 0
M  V30 11 N -2.28645 -0.58987 0.25302 0
M  V30 12 C -2.9561 0.553032 0.777296 0
M  V30 13 C -4.40956 0.650351 0.547865 0
M  V30 14 O -4.93592 -0.118451 -0.466297 0
M  V30 15 C -3.98597 -0.526725 -1.3983 0
M  V30 16 C -3.01521 -1.42107 -0.627095 0
M  V30 17 H 5.56773 2.01027 -0.640002 0
M  V30 18 H 6.00981 0.296025 -0.413714 0
M  V30 19 H 3.3297 2.7728 0.0490272 0
M  V30 20 H 1.03811 2.24775 0.708985 0
M  V30 21 H 1.91433 -1.87837 0.706872 0
M  V30 22 H 5.33603 -1.72306 0.556327 0
M  V30 23 H 4.32837 -2.29743 -0.789773 0
M  V30 24 H -0.476586 0.805345 1.61403 0
M  V30 25 H -0.124678 -0.954252 1.85191 0
M  V30 26 H -0.526671 -1.28548 -0.57301 0
M  V30 27 H -0.758788 0.447772 -0.826523 0
M  V30 28 H -2.48705 1.4728 0.309279 0
M  V30 29 H -2.71446 0.651862 1.85327 0
M  V30 30 H -4.988 0.402245 1.48481 0
M  V30 31 H -4.72633 1.7134 0.332323 0
M  V30 32 H -4.50053 -1.13029 -2.16237 0
M  V30 33 H -3.41459 0.312796 -1.80876 0
M  V30 34 H -2.29846 -1.90383 -1.34174 0
M  V30 35 H -3.64221 -2.15978 -0.0788076 0
M  V30 END ATOM
M  V30 BEGIN BOND
M  V30 1 1 1 2
M  V30 2 2 2 3
M  V30 3 1 3 4
M  V30 4 2 4 5
M  V30 5 1 5 6
M  V30 6 2 6 7
M  V30 7 1 7 8
M  V30 8 1 5 9
M  V30 9 1 9 10
M  V30 10 1 10 11
M  V30 11 1 11 12
M  V30 12 1 12 13
M  V30 13 1 13 14
M  V30 14 1 14 15
M  V30 15 1 15 16
M  V30 16 1 7 2
M  V30 17 1 16 11
M  V30 18 1 1 17
M  V30 19 1 1 18
M  V30 20 1 3 19
M  V30 21 1 4 20
M  V30 22 1 6 21
M  V30 23 1 8 22
M  V30 24 1 8 23
M  V30 25 1 9 24
M  V30 26 1 9 25
M  V30 27 1 10 26
M  V30 28 1 10 27
M  V30 29 1 12 28
M  V30 30 1 12 29
M  V30 31 1 13 30
M  V30 32 1 13 31
M  V30 33 1 15 32
M  V30 34 1 15 33
M  V30 35 1 16 34
M  V30 36 1 16 35
M  V30 END BOND
M  V30 END CTAB
M  END
