
     RDKit          3D

  0  0  0  0  0  0  0  0  0  0999 V3000
M  V30 BEGIN CTAB
M  V30 COUNTS 19 19 0 0 0
M  V30 BEGIN ATOM
M  V30 1 N 2.36214 0.842736 0.961631 0
M  V30 2 C 1.98719 -0.409205 0.440782 0
M  V30 3 N 2.84102 -1.35571 0.377553 0
M  V30 4 C 0.633469 -0.640258 -0.0286768 0
M  V30 5 C 0.110125 -1.82098 -0.569238 0
M  V30 6 N -1.17726 -1.58367 -0.865342 0
M  V30 7 N -1.50488 -0.359935 -0.557966 0
M  V30 8 C -0.428585 0.248368 -0.0450124 0
M  V30 9 N -0.335247 1.60299 0.427778 0
M  V30 10 C -2.8028 0.290685 -0.721156 0
M  V30 11 H 3.14165 1.43057 0.582845 0
M  V30 12 H 1.85283 1.24631 1.78047 0
M  V30 13 H 2.59945 -2.2917 -0.000584487 0
M  V30 14 H 0.698094 -2.72105 -0.694454 0
M  V30 15 H 0.290767 2.23628 -0.113892 0
M  V30 16 H -0.861681 1.93074 1.26118 0
M  V30 17 H -3.43047 -0.0558332 0.129064 0
M  V30 18 H -3.27712 0.0365945 -1.68712 0
M  V30 19 H -2.6987 1.37307 -0.67786 0
M  V30 END ATOM
M  V30 BEGIN BOND
M  V30 1 1 1 2
M  V30 2 2 2 3 CFG=2
M  V30 3 1 2 4
M  V30 4 1 4 5
M  V30 5 2 5 6
M  V30 6 1 6 7
M  V30 7 1 7 8
M  V30 8 1 8 9
M  V30 9 1 7 10
M  V30 10 2 8 4
M  V30 11 1 1 11
M  V30 12 1 1 12
M  V30 13 1 3 13
M  V30 14 1 5 14
M  V30 15 1 9 15
M  V30 16 1 9 16
M  V30 17 1 10 17
M  V30 18 1 10 18
M  V30 19 1 10 19
M  V30 END BOND
M  V30 END CTAB
M  END
