
     RDKit          3D

  0  0  0  0  0  0  0  0  0  0999 V3000
M  V30 BEGIN CTAB
M  V30 COUNTS 60 64 0 0 0
M  V30 BEGIN ATOM
M  V30 1 C 7.51656 1.02854 3.81967 0
M  V30 2 O 6.88222 0.0374083 3.00489 0
M  V30 3 C 6.16926 0.485015 1.89271 0
M  V30 4 C 5.52764 -0.449487 1.06489 0
M  V30 5 C 4.81228 -0.0324289 -0.046715 0
M  V30 6 C 4.737 1.31926 -0.335358 0
M  V30 7 C 5.35494 2.22347 0.458564 0
M  V30 8 C 6.063 1.80489 1.56196 0
M  V30 9 C 4.0222 1.69343 -1.46122 0
M  V30 10 C 3.4266 0.778349 -2.23671 0
M  V30 11 C 3.46772 -0.599097 -1.99236 0
M  V30 12 C 4.18249 -0.962601 -0.870961 0
M  V30 13 S 2.67149 -1.72878 -3.06545 0
M  V30 14 O 3.38323 -3.07881 -2.82759 0
M  V30 15 O 2.9512 -1.42324 -4.50767 0
M  V30 16 N 1.08121 -1.93623 -2.66288 0
M  V30 17 C 0.157441 -0.897553 -2.66249 0 CFG=1
M  V30 18 C -0.94327 -1.02474 -3.72244 0
M  V30 19 C -1.86285 -1.93678 -2.92296 0
M  V30 20 N -1.84647 -1.41126 -1.5752 0
M  V30 21 C -2.84664 -1.6419 -0.591308 0
M  V30 22 C -3.83447 -0.664295 -0.249631 0
M  V30 23 C -4.03595 -0.4006 1.13403 0
M  V30 24 C -5.00498 0.446842 1.59821 0
M  V30 25 C -5.84613 1.09332 0.710611 0
M  V30 26 C -6.85075 1.96238 1.14976 0
M  V30 27 C -6.98291 2.16285 2.5271 0
M  V30 28 N -6.1518 1.51834 3.3498 0
M  V30 29 C -5.19211 0.689889 2.94875 0
M  V30 30 N -4.32818 0.0502022 3.86014 0
M  V30 31 C -5.688 0.869833 -0.627275 0
M  V30 32 C -4.6783 -0.00977064 -1.08606 0
M  V30 33 N -4.52946 -0.1734 -2.47658 0
M  V30 34 C -0.60896 -0.763947 -1.39852 0
M  V30 35 O -0.190757 -0.172555 -0.379022 0
M  V30 36 H 8.26896 1.61634 3.25318 0
M  V30 37 H 6.70939 1.74229 4.13676 0
M  V30 38 H 8.00416 0.579193 4.70882 0
M  V30 39 H 5.59068 -1.51573 1.30217 0
M  V30 40 H 5.26387 3.28826 0.18273 0
M  V30 41 H 6.53618 2.56253 2.17923 0
M  V30 42 H 3.98013 2.75715 -1.64457 0
M  V30 43 H 2.85658 1.03964 -3.13667 0
M  V30 44 H 4.25956 -2.01702 -0.624462 0
M  V30 45 H 0.831954 -2.67982 -2.0043 0
M  V30 46 H 0.626571 0.064614 -2.87708 0
M  V30 47 H -1.47222 -0.0580292 -3.85069 0
M  V30 48 H -0.630213 -1.39584 -4.67826 0
M  V30 49 H -2.78528 -2.21165 -3.36785 0
M  V30 50 H -1.3056 -2.95077 -2.7972 0
M  V30 51 H -3.43286 -2.61268 -0.8389 0
M  V30 52 H -2.34053 -2.0003 0.381583 0
M  V30 53 H -3.41738 -0.875279 1.8825 0
M  V30 54 H -7.50398 2.47113 0.459541 0
M  V30 55 H -7.73995 2.82981 2.92795 0
M  V30 56 H -4.18778 -0.964443 3.81122 0
M  V30 57 H -3.8363 0.615032 4.57632 0
M  V30 58 H -6.31449 1.33243 -1.39846 0
M  V30 59 H -5.04077 -0.929346 -2.96796 0
M  V30 60 H -3.90515 0.455953 -3.01175 0
M  V30 END ATOM
M  V30 BEGIN BOND
M  V30 1 1 1 2
M  V30 2 1 2 3
M  V30 3 2 3 4
M  V30 4 1 4 5
M  V30 5 2 5 6
M  V30 6 1 6 7
M  V30 7 2 7 8
M  V30 8 1 6 9
M  V30 9 2 9 10
M  V30 10 1 10 11
M  V30 11 2 11 12
M  V30 12 1 11 13
M  V30 13 2 13 14
M  V30 14 2 13 15
M  V30 15 1 13 16
M  V30 16 1 16 17
M  V30 17 1 17 18
M  V30 18 1 18 19
M  V30 19 1 19 20
M  V30 20 1 20 21
M  V30 21 1 21 22
M  V30 22 2 22 23
M  V30 23 1 23 24
M  V30 24 2 24 25
M  V30 25 1 25 26
M  V30 26 2 26 27
M  V30 27 1 27 28
M  V30 28 2 28 29
M  V30 29 1 29 30
M  V30 30 1 25 31
M  V30 31 2 31 32
M  V30 32 1 32 33
M  V30 33 1 20 34
M  V30 34 2 34 35
M  V30 35 1 8 3
M  V30 36 1 34 17
M  V30 37 1 12 5
M  V30 38 1 32 22
M  V30 39 1 29 24
M  V30 40 1 1 36
M  V30 41 1 1 37
M  V30 42 1 1 38
M  V30 43 1 4 39
M  V30 44 1 7 40
M  V30 45 1 8 41
M  V30 46 1 9 42
M  V30 47 1 10 43
M  V30 48 1 12 44
M  V30 49 1 16 45
M  V30 50 1 17 46 CFG=3
M  V30 51 1 18 47
M  V30 52 1 18 48
M  V30 53 1 19 49
M  V30 54 1 19 50
M  V30 55 1 21 51
M  V30 56 1 21 52
M  V30 57 1 23 53
M  V30 58 1 26 54
M  V30 59 1 27 55
M  V30 60 1 30 56
M  V30 61 1 30 57
M  V30 62 1 31 58
M  V30 63 1 33 59
M  V30 64 1 33 60
M  V30 END BOND
M  V30 END CTAB
M  END
