
     RDKit          3D

  0  0  0  0  0  0  0  0  0  0999 V3000
M  V30 BEGIN CTAB
M  V30 COUNTS 47 50 0 0 0
M  V30 BEGIN ATOM
M  V30 1 N 6.01161 -0.648418 1.2663 0
M  V30 2 C 5.33831 -1.62494 0.423267 0
M  V30 3 C 4.12309 -0.976266 -0.116801 0
M  V30 4 C 2.89809 -1.04293 0.555602 0
M  V30 5 C 1.76681 -0.436858 0.0494164 0
M  V30 6 C 1.83636 0.250831 -1.14338 0
M  V30 7 C 3.04842 0.31354 -1.80318 0
M  V30 8 C 4.1891 -0.293416 -1.2998 0
M  V30 9 C 0.675151 0.925571 -1.75183 0
M  V30 10 N -0.525542 0.805652 -0.999265 0
M  V30 11 C -0.824218 1.79406 -0.0152367 0
M  V30 12 N -0.0147459 2.83492 0.227299 0
M  V30 13 C -0.270076 3.7949 1.15716 0
M  V30 14 N 0.649191 4.86239 1.34313 0
M  V30 15 C -1.42618 3.70266 1.89996 0
M  V30 16 C -2.27145 2.64512 1.66966 0
M  V30 17 C -2.00065 1.67754 0.722982 0
M  V30 18 O -2.89306 0.632657 0.536002 0
M  V30 19 C -2.87758 -0.100508 -0.656098 0
M  V30 20 C -1.46545 -0.248855 -1.16198 0
M  V30 21 O -1.07449 -1.29473 -1.73719 0
M  V30 22 C -3.4898 -1.44027 -0.516011 0
M  V30 23 C -3.22075 -2.26997 0.546376 0
M  V30 24 C -3.83045 -3.49879 0.60204 0
M  V30 25 C -4.70385 -3.9186 -0.380215 0
M  V30 26 C -4.9884 -3.09465 -1.46138 0
M  V30 27 C -4.36226 -1.87377 -1.48602 0
M  V30 28 H 5.95209 0.288097 0.794654 0
M  V30 29 H 7.02283 -0.903592 1.35643 0
M  V30 30 H 5.06121 -2.53565 0.995298 0
M  V30 31 H 6.00772 -1.84926 -0.427693 0
M  V30 32 H 2.85972 -1.58885 1.49478 0
M  V30 33 H 0.805713 -0.468746 0.542481 0
M  V30 34 H 3.12274 0.843972 -2.73267 0
M  V30 35 H 5.14417 -0.241501 -1.82392 0
M  V30 36 H 0.581201 0.521276 -2.79984 0
M  V30 37 H 0.978361 2.00185 -1.90856 0
M  V30 38 H 0.53746 5.74538 0.813284 0
M  V30 39 H 1.42102 4.73479 2.01211 0
M  V30 40 H -1.63807 4.45625 2.63796 0
M  V30 41 H -3.19405 2.57606 2.26598 0
M  V30 42 H -3.40427 0.483898 -1.4366 0
M  V30 43 H -2.53024 -1.93423 1.31992 0
M  V30 44 H -3.59535 -4.13015 1.45617 0
M  V30 45 H -5.18614 -4.88098 -0.34383 0
M  V30 46 H -5.6615 -3.37158 -2.2553 0
M  V30 47 H -4.5818 -1.2239 -2.3314 0
M  V30 END ATOM
M  V30 BEGIN BOND
M  V30 1 1 1 2
M  V30 2 1 2 3
M  V30 3 2 3 4
M  V30 4 1 4 5
M  V30 5 2 5 6
M  V30 6 1 6 7
M  V30 7 2 7 8
M  V30 8 1 6 9
M  V30 9 1 9 10
M  V30 10 1 10 11
M  V30 11 2 11 12
M  V30 12 1 12 13
M  V30 13 1 13 14
M  V30 14 2 13 15
M  V30 15 1 15 16
M  V30 16 2 16 17
M  V30 17 1 17 18
M  V30 18 1 18 19
M  V30 19 1 19 20
M  V30 20 2 20 21
M  V30 21 1 19 22
M  V30 22 2 22 23
M  V30 23 1 23 24
M  V30 24 2 24 25
M  V30 25 1 25 26
M  V30 26 2 26 27
M  V30 27 1 8 3
M  V30 28 1 20 10
M  V30 29 1 27 22
M  V30 30 1 17 11
M  V30 31 1 1 28
M  V30 32 1 1 29
M  V30 33 1 2 30
M  V30 34 1 2 31
M  V30 35 1 4 32
M  V30 36 1 5 33
M  V30 37 1 7 34
M  V30 38 1 8 35
M  V30 39 1 9 36
M  V30 40 1 9 37
M  V30 41 1 14 38
M  V30 42 1 14 39
M  V30 43 1 15 40
M  V30 44 1 16 41
M  V30 45 1 19 42
M  V30 46 1 23 43
M  V30 47 1 24 44
M  V30 48 1 25 45
M  V30 49 1 26 46
M  V30 50 1 27 47
M  V30 END BOND
M  V30 END CTAB
M  END
