
     RDKit          3D

  0  0  0  0  0  0  0  0  0  0999 V3000
M  V30 BEGIN CTAB
M  V30 COUNTS 27 27 0 0 0
M  V30 BEGIN ATOM
M  V30 1 N 3.25723 0.681501 -0.675225 0
M  V30 2 C 2.12077 0.357479 0.163054 0 CFG=2
M  V30 3 C 1.65796 -1.02633 -0.21932 0
M  V30 4 C 0.538868 -1.49286 0.662564 0
M  V30 5 C -0.813004 -1.18975 0.0726772 0
M  V30 6 N -1.11891 0.226361 0.0968749 0
M  V30 7 C -0.160731 0.959484 -0.696967 0
M  V30 8 C 1.04501 1.38694 0.10276 0
M  V30 9 S -2.67409 0.419032 -0.638972 0
M  V30 10 O -3.06431 1.85027 -0.7583 0
M  V30 11 O -2.67846 -0.161414 -2.04579 0
M  V30 12 N -3.89882 -0.416977 0.234743 0
M  V30 13 H 4.05449 1.07919 -0.15547 0
M  V30 14 H 2.9588 1.34959 -1.40399 0
M  V30 15 H 2.5023 0.321368 1.20919 0
M  V30 16 H 2.54098 -1.7063 -0.0377556 0
M  V30 17 H 1.43075 -1.11545 -1.28819 0
M  V30 18 H 0.614117 -1.09666 1.67623 0
M  V30 19 H 0.605157 -2.61259 0.733773 0
M  V30 20 H -1.56451 -1.70905 0.690192 0
M  V30 21 H -0.889319 -1.55132 -0.959332 0
M  V30 22 H 0.141681 0.433967 -1.60197 0
M  V30 23 H -0.677743 1.914 -1.00778 0
M  V30 24 H 0.706617 1.72383 1.12512 0
M  V30 25 H 1.46004 2.29441 -0.384625 0
M  V30 26 H -4.57961 0.22166 0.694674 0
M  V30 27 H -3.51528 -1.14041 0.873651 0
M  V30 END ATOM
M  V30 BEGIN BOND
M  V30 1 1 1 2
M  V30 2 1 2 3
M  V30 3 1 3 4
M  V30 4 1 4 5
M  V30 5 1 5 6
M  V30 6 1 6 7
M  V30 7 1 7 8
M  V30 8 1 6 9
M  V30 9 2 9 10
M  V30 10 2 9 11
M  V30 11 1 9 12
M  V30 12 1 8 2
M  V30 13 1 1 13
M  V30 14 1 1 14
M  V30 15 1 2 15 CFG=1
M  V30 16 1 3 16
M  V30 17 1 3 17
M  V30 18 1 4 18
M  V30 19 1 4 19
M  V30 20 1 5 20
M  V30 21 1 5 21
M  V30 22 1 7 22
M  V30 23 1 7 23
M  V30 24 1 8 24
M  V30 25 1 8 25
M  V30 26 1 12 26
M  V30 27 1 12 27
M  V30 END BOND
M  V30 END CTAB
M  END
