
     RDKit          3D

  0  0  0  0  0  0  0  0  0  0999 V3000
M  V30 BEGIN CTAB
M  V30 COUNTS 56 55 0 0 0
M  V30 BEGIN ATOM
M  V30 1 N 7.59487 -0.632718 -1.50698 0
M  V30 2 C 6.28078 -1.08199 -1.85385 0
M  V30 3 C 5.53872 -1.41193 -0.573525 0
M  V30 4 C 5.43283 -0.204442 0.315619 0
M  V30 5 C 4.725 0.954021 -0.250309 0
M  V30 6 C 3.33596 0.851198 -0.70319 0
M  V30 7 C 2.23984 0.524759 0.219283 0
M  V30 8 C 2.23432 -0.789374 0.873559 0
M  V30 9 C 1.02485 -1.02547 1.76442 0
M  V30 10 S 0.796677 0.0783631 3.10962 0
M  V30 11 S 0.303688 2.01159 2.76882 0
M  V30 12 C -1.3349 2.5871 2.70524 0
M  V30 13 C -2.28557 2.17099 1.66209 0
M  V30 14 C -2.60165 0.721799 1.72078 0
M  V30 15 C -3.59155 0.436429 0.589813 0
M  V30 16 C -3.97427 -1.01602 0.567903 0
M  V30 17 C -4.92538 -1.2723 -0.564445 0
M  V30 18 C -6.16017 -0.457605 -0.401045 0
M  V30 19 C -7.07012 -0.803061 -1.57928 0
M  V30 20 N -6.35695 -0.462568 -2.77613 0
M  V30 21 H 7.76783 0.331934 -1.8296 0
M  V30 22 H 8.30364 -1.29048 -1.85006 0
M  V30 23 H 6.36064 -1.9912 -2.47548 0
M  V30 24 H 5.73987 -0.324045 -2.46404 0
M  V30 25 H 6.19054 -2.14737 -0.0297473 0
M  V30 26 H 4.59962 -1.92603 -0.782411 0
M  V30 27 H 6.54235 0.139091 0.403609 0
M  V30 28 H 5.19752 -0.461093 1.33579 0
M  V30 29 H 4.7583 1.76153 0.572577 0
M  V30 30 H 5.39246 1.43535 -1.04053 0
M  V30 31 H 3.25404 0.187673 -1.64546 0
M  V30 32 H 3.10909 1.872 -1.20042 0
M  V30 33 H 2.15697 1.30923 1.02898 0
M  V30 34 H 1.28575 0.565116 -0.40422 0
M  V30 35 H 2.13654 -1.56219 0.0418301 0
M  V30 36 H 3.13628 -1.10878 1.41531 0
M  V30 37 H 1.19685 -2.05988 2.20537 0
M  V30 38 H 0.134351 -1.17735 1.11559 0
M  V30 39 H -1.28521 3.74155 2.72997 0
M  V30 40 H -1.90363 2.41464 3.69887 0
M  V30 41 H -1.90138 2.49429 0.665853 0
M  V30 42 H -3.21913 2.80508 1.79608 0
M  V30 43 H -3.16805 0.44822 2.65411 0
M  V30 44 H -1.72559 0.116221 1.66406 0
M  V30 45 H -4.51642 1.02865 0.862728 0
M  V30 46 H -3.19483 0.755385 -0.379239 0
M  V30 47 H -3.03824 -1.6046 0.458782 0
M  V30 48 H -4.40958 -1.32581 1.55224 0
M  V30 49 H -4.47388 -0.972658 -1.55109 0
M  V30 50 H -5.12724 -2.36107 -0.667224 0
M  V30 51 H -6.63159 -0.688046 0.573447 0
M  V30 52 H -5.90472 0.629471 -0.473628 0
M  V30 53 H -8.02235 -0.253878 -1.50401 0
M  V30 54 H -7.23026 -1.88856 -1.53189 0
M  V30 55 H -5.74057 0.368514 -2.68775 0
M  V30 56 H -6.97694 -0.439676 -3.6153 0
M  V30 END ATOM
M  V30 BEGIN BOND
M  V30 1 1 1 2
M  V30 2 1 2 3
M  V30 3 1 3 4
M  V30 4 1 4 5
M  V30 5 1 5 6
M  V30 6 1 6 7
M  V30 7 1 7 8
M  V30 8 1 8 9
M  V30 9 1 9 10
M  V30 10 1 10 11
M  V30 11 1 11 12
M  V30 12 1 12 13
M  V30 13 1 13 14
M  V30 14 1 14 15
M  V30 15 1 15 16
M  V30 16 1 16 17
M  V30 17 1 17 18
M  V30 18 1 18 19
M  V30 19 1 19 20
M  V30 20 1 1 21
M  V30 21 1 1 22
M  V30 22 1 2 23
M  V30 23 1 2 24
M  V30 24 1 3 25
M  V30 25 1 3 26
M  V30 26 1 4 27
M  V30 27 1 4 28
M  V30 28 1 5 29
M  V30 29 1 5 30
M  V30 30 1 6 31
M  V30 31 1 6 32
M  V30 32 1 7 33
M  V30 33 1 7 34
M  V30 34 1 8 35
M  V30 35 1 8 36
M  V30 36 1 9 37
M  V30 37 1 9 38
M  V30 38 1 12 39
M  V30 39 1 12 40
M  V30 40 1 13 41
M  V30 41 1 13 42
M  V30 42 1 14 43
M  V30 43 1 14 44
M  V30 44 1 15 45
M  V30 45 1 15 46
M  V30 46 1 16 47
M  V30 47 1 16 48
M  V30 48 1 17 49
M  V30 49 1 17 50
M  V30 50 1 18 51
M  V30 51 1 18 52
M  V30 52 1 19 53
M  V30 53 1 19 54
M  V30 54 1 20 55
M  V30 55 1 20 56
M  V30 END BOND
M  V30 END CTAB
M  END
