
     RDKit          3D

  0  0  0  0  0  0  0  0  0  0999 V3000
M  V30 BEGIN CTAB
M  V30 COUNTS 83 87 0 0 0
M  V30 BEGIN ATOM
M  V30 1 N 6.41685 4.08496 -0.588157 0
M  V30 2 C 5.49736 4.40512 0.443138 0
M  V30 3 N 5.79353 5.33786 1.27047 0
M  V30 4 O 6.98864 5.99485 1.13212 0
M  V30 5 C 4.24394 3.66235 0.534099 0
M  V30 6 C 3.93939 2.65674 -0.357835 0
M  V30 7 C 2.76561 1.94027 -0.286749 0
M  V30 8 C 2.58216 0.884664 -1.31471 0
M  V30 9 N 1.31696 0.177278 -1.16417 0
M  V30 10 C 1.34179 -0.988213 -0.267114 0 CFG=2
M  V30 11 C 2.07058 -2.12131 -0.871261 0
M  V30 12 C 2.22109 -3.34923 -0.116476 0
M  V30 13 C 3.21726 -3.46409 0.840623 0
M  V30 14 C 3.42959 -4.61909 1.54745 0
M  V30 15 C 2.62971 -5.72863 1.31336 0
M  V30 16 C 1.64637 -5.63413 0.377568 0
M  V30 17 C 1.44102 -4.44746 -0.337208 0
M  V30 18 C -0.0822957 -1.30467 0.107233 0 CFG=2
M  V30 19 O -0.158628 -2.28915 1.05134 0
M  V30 20 C -1.03933 -1.32438 -1.01796 0 CFG=1
M  V30 21 C -2.33776 -1.98241 -0.860509 0
M  V30 22 C -2.25548 -3.45405 -0.587526 0
M  V30 23 C -3.64398 -4.0488 -0.488665 0
M  V30 24 C -4.27854 -4.53788 -1.6086 0
M  V30 25 C -5.55285 -5.08999 -1.54404 0
M  V30 26 C -6.2216 -5.16295 -0.34351 0
M  V30 27 C -5.59603 -4.6772 0.779206 0
M  V30 28 C -4.33314 -4.13251 0.700724 0
M  V30 29 N -1.1291 0.0431305 -1.5226 0
M  V30 30 C -2.28504 0.830543 -1.73569 0
M  V30 31 C -2.65113 1.7724 -0.657071 0
M  V30 32 C -2.02227 3.01227 -0.475079 0
M  V30 33 C -2.36502 3.89527 0.522562 0
M  V30 34 C -1.71889 5.18312 0.729301 0
M  V30 35 N -2.18745 5.98289 1.85897 0
M  V30 36 N -0.786796 5.69729 0.0484661 0
M  V30 37 O -0.108921 5.29731 -1.00993 0
M  V30 38 C -3.39756 3.54213 1.40759 0
M  V30 39 F -3.776 4.38734 2.41767 0
M  V30 40 C -4.02452 2.32793 1.2412 0
M  V30 41 C -3.65156 1.46568 0.224182 0
M  V30 42 C 0.144564 0.605928 -1.84497 0
M  V30 43 O 0.303744 1.4963 -2.73376 0
M  V30 44 C 1.88059 2.24167 0.700309 0
M  V30 45 C 2.1269 3.23641 1.622 0
M  V30 46 C 3.31953 3.94114 1.52517 0
M  V30 47 F 3.54428 4.92303 2.44888 0
M  V30 48 H 6.67893 3.09721 -0.83749 0
M  V30 49 H 6.89489 4.82834 -1.17174 0
M  V30 50 H 7.84756 5.45549 1.01829 0
M  V30 51 H 4.6847 2.46032 -1.12756 0
M  V30 52 H 2.49789 1.42672 -2.29356 0
M  V30 53 H 3.45249 0.235973 -1.33843 0
M  V30 54 H 1.84838 -0.587323 0.653604 0
M  V30 55 H 3.10888 -1.73716 -1.13738 0
M  V30 56 H 1.64249 -2.40717 -1.87175 0
M  V30 57 H 3.8344 -2.616 1.0265 0
M  V30 58 H 4.22429 -4.66501 2.29037 0
M  V30 59 H 2.85486 -6.60678 1.90859 0
M  V30 60 H 1.01411 -6.49205 0.185357 0
M  V30 61 H 0.641551 -4.47202 -1.06256 0
M  V30 62 H -0.386817 -0.349746 0.718239 0
M  V30 63 H -0.0615919 -1.98157 1.99073 0
M  V30 64 H -0.512 -1.89986 -1.86518 0
M  V30 65 H -2.9767 -1.49629 -0.0714194 0
M  V30 66 H -2.93422 -1.88637 -1.79947 0
M  V30 67 H -1.72271 -3.99249 -1.40358 0
M  V30 68 H -1.78677 -3.74437 0.367305 0
M  V30 69 H -3.75828 -4.48289 -2.5555 0
M  V30 70 H -6.06556 -5.48158 -2.42597 0
M  V30 71 H -7.23256 -5.60122 -0.29213 0
M  V30 72 H -6.10795 -4.72898 1.71991 0
M  V30 73 H -3.83227 -3.74568 1.59077 0
M  V30 74 H -3.18766 0.228077 -2.03558 0
M  V30 75 H -2.13335 1.48796 -2.65082 0
M  V30 76 H -1.23335 3.2892 -1.15133 0
M  V30 77 H -1.79432 5.8435 2.80819 0
M  V30 78 H -2.92164 6.68938 1.67752 0
M  V30 79 H 0.843162 5.54868 -1.22271 0
M  V30 80 H -4.81574 2.07501 1.92999 0
M  V30 81 H -4.21458 0.523875 0.175431 0
M  V30 82 H 0.963841 1.66195 0.734915 0
M  V30 83 H 1.38811 3.45312 2.40382 0
M  V30 END ATOM
M  V30 BEGIN BOND
M  V30 1 1 1 2
M  V30 2 2 2 3 CFG=2
M  V30 3 1 3 4
M  V30 4 1 2 5
M  V30 5 2 5 6
M  V30 6 1 6 7
M  V30 7 1 7 8
M  V30 8 1 8 9
M  V30 9 1 9 10
M  V30 10 1 10 11
M  V30 11 1 11 12
M  V30 12 2 12 13
M  V30 13 1 13 14
M  V30 14 2 14 15
M  V30 15 1 15 16
M  V30 16 2 16 17
M  V30 17 1 10 18
M  V30 18 1 18 19
M  V30 19 1 18 20
M  V30 20 1 20 21
M  V30 21 1 21 22
M  V30 22 1 22 23
M  V30 23 2 23 24
M  V30 24 1 24 25
M  V30 25 2 25 26
M  V30 26 1 26 27
M  V30 27 2 27 28
M  V30 28 1 20 29
M  V30 29 1 29 30
M  V30 30 1 30 31
M  V30 31 2 31 32
M  V30 32 1 32 33
M  V30 33 1 33 34
M  V30 34 1 34 35
M  V30 35 2 34 36 CFG=2
M  V30 36 1 36 37
M  V30 37 2 33 38
M  V30 38 1 38 39
M  V30 39 1 38 40
M  V30 40 2 40 41
M  V30 41 1 29 42
M  V30 42 2 42 43
M  V30 43 2 7 44
M  V30 44 1 44 45
M  V30 45 2 45 46
M  V30 46 1 46 47
M  V30 47 1 46 5
M  V30 48 1 42 9
M  V30 49 1 17 12
M  V30 50 1 28 23
M  V30 51 1 41 31
M  V30 52 1 1 48
M  V30 53 1 1 49
M  V30 54 1 4 50
M  V30 55 1 6 51
M  V30 56 1 8 52
M  V30 57 1 8 53
M  V30 58 1 10 54 CFG=1
M  V30 59 1 11 55
M  V30 60 1 11 56
M  V30 61 1 13 57
M  V30 62 1 14 58
M  V30 63 1 15 59
M  V30 64 1 16 60
M  V30 65 1 17 61
M  V30 66 1 18 62 CFG=1
M  V30 67 1 19 63
M  V30 68 1 20 64 CFG=3
M  V30 69 1 21 65
M  V30 70 1 21 66
M  V30 71 1 22 67
M  V30 72 1 22 68
M  V30 73 1 24 69
M  V30 74 1 25 70
M  V30 75 1 26 71
M  V30 76 1 27 72
M  V30 77 1 28 73
M  V30 78 1 30 74
M  V30 79 1 30 75
M  V30 80 1 32 76
M  V30 81 1 35 77
M  V30 82 1 35 78
M  V30 83 1 37 79
M  V30 84 1 40 80
M  V30 85 1 41 81
M  V30 86 1 44 82
M  V30 87 1 45 83
M  V30 END BOND
M  V30 END CTAB
M  END
