
     RDKit          3D

  0  0  0  0  0  0  0  0  0  0999 V3000
M  V30 BEGIN CTAB
M  V30 COUNTS 27 27 0 0 0
M  V30 BEGIN ATOM
M  V30 1 C 4.48499 -0.74615 0.922504 0
M  V30 2 O 3.7014 0.359813 0.605407 0
M  V30 3 C 2.45645 -0.018304 0.100345 0
M  V30 4 C 1.70159 1.23402 -0.204969 0
M  V30 5 N 0.388761 1.03128 -0.73922 0
M  V30 6 C -0.685942 0.395017 -0.107174 0
M  V30 7 N -0.540878 -0.0913603 1.13275 0
M  V30 8 C -1.54566 -0.708898 1.78735 0
M  V30 9 C -2.78198 -0.851328 1.16124 0
M  V30 10 C -2.96864 -0.363434 -0.114382 0
M  V30 11 C -1.89711 0.263189 -0.738404 0
M  V30 12 N -2.09994 0.765979 -2.06106 0
M  V30 13 N -4.21237 -0.488997 -0.785295 0
M  V30 14 H 4.68376 -1.39614 0.0525162 0
M  V30 15 H 5.43417 -0.364285 1.34601 0
M  V30 16 H 3.95074 -1.29291 1.746 0
M  V30 17 H 2.55273 -0.627718 -0.8319 0
M  V30 18 H 1.96421 -0.587603 0.91142 0
M  V30 19 H 1.61265 1.83356 0.749917 0
M  V30 20 H 2.34248 1.85872 -0.855984 0
M  V30 21 H 0.221742 1.40735 -1.72128 0
M  V30 22 H -1.43265 -1.10259 2.78758 0
M  V30 23 H -3.59968 -1.35293 1.69174 0
M  V30 24 H -2.0162 0.172537 -2.90605 0
M  V30 25 H -2.34413 1.77359 -2.20321 0
M  V30 26 H -4.73035 0.327344 -1.16671 0
M  V30 27 H -4.64015 -1.42975 -0.910649 0
M  V30 END ATOM
M  V30 BEGIN BOND
M  V30 1 1 1 2
M  V30 2 1 2 3
M  V30 3 1 3 4
M  V30 4 1 4 5
M  V30 5 1 5 6
M  V30 6 2 6 7
M  V30 7 1 7 8
M  V30 8 2 8 9
M  V30 9 1 9 10
M  V30 10 2 10 11
M  V30 11 1 11 12
M  V30 12 1 10 13
M  V30 13 1 11 6
M  V30 14 1 1 14
M  V30 15 1 1 15
M  V30 16 1 1 16
M  V30 17 1 3 17
M  V30 18 1 3 18
M  V30 19 1 4 19
M  V30 20 1 4 20
M  V30 21 1 5 21
M  V30 22 1 8 22
M  V30 23 1 9 23
M  V30 24 1 12 24
M  V30 25 1 12 25
M  V30 26 1 13 26
M  V30 27 1 13 27
M  V30 END BOND
M  V30 END CTAB
M  END
