
     RDKit          3D

  0  0  0  0  0  0  0  0  0  0999 V3000
M  V30 BEGIN CTAB
M  V30 COUNTS 26 26 0 0 0
M  V30 BEGIN ATOM
M  V30 1 C -3.35584 -1.01871 -0.89829 0
M  V30 2 C -2.16223 -1.28467 -0.0248194 0
M  V30 3 C -1.13114 -0.234202 -0.0738944 0
M  V30 4 C -1.37744 0.981735 -0.722152 0
M  V30 5 C -0.35421 1.90072 -0.705621 0
M  V30 6 C 0.868676 1.67084 -0.0917536 0
M  V30 7 C 1.10477 0.470989 0.544385 0
M  V30 8 C 0.0782801 -0.446011 0.526058 0
M  V30 9 N 0.343478 -1.69223 1.1897 0
M  V30 10 O 2.30926 0.197716 1.16772 0
M  V30 11 C 3.38412 -0.440625 0.494775 0
M  V30 12 F 3.86681 -1.40902 1.34983 0
M  V30 13 F 4.37615 0.435325 0.0885345 0
M  V30 14 N 1.89288 2.65294 -0.0933939 0
M  V30 15 H -4.09339 -0.363492 -0.349964 0
M  V30 16 H -3.90282 -1.97881 -1.09224 0
M  V30 17 H -3.12351 -0.607228 -1.8879 0
M  V30 18 H -2.53272 -1.4178 1.02547 0
M  V30 19 H -1.69965 -2.2446 -0.292 0
M  V30 20 H -2.3274 1.12618 -1.17857 0
M  V30 21 H -0.546026 2.83909 -1.20556 0
M  V30 22 H 0.00785057 -2.57565 0.749342 0
M  V30 23 H 0.856684 -1.74251 2.09403 0
M  V30 24 H 2.96075 -0.846849 -0.451823 0
M  V30 25 H 1.96661 3.37807 -0.829613 0
M  V30 26 H 2.59005 2.64881 0.667742 0
M  V30 END ATOM
M  V30 BEGIN BOND
M  V30 1 1 1 2
M  V30 2 1 2 3
M  V30 3 2 3 4
M  V30 4 1 4 5
M  V30 5 2 5 6
M  V30 6 1 6 7
M  V30 7 2 7 8
M  V30 8 1 8 9
M  V30 9 1 7 10
M  V30 10 1 10 11
M  V30 11 1 11 12
M  V30 12 1 11 13
M  V30 13 1 6 14
M  V30 14 1 8 3
M  V30 15 1 1 15
M  V30 16 1 1 16
M  V30 17 1 1 17
M  V30 18 1 2 18
M  V30 19 1 2 19
M  V30 20 1 4 20
M  V30 21 1 5 21
M  V30 22 1 9 22
M  V30 23 1 9 23
M  V30 24 1 11 24
M  V30 25 1 14 25
M  V30 26 1 14 26
M  V30 END BOND
M  V30 END CTAB
M  END
