
     RDKit          3D

  0  0  0  0  0  0  0  0  0  0999 V3000
M  V30 BEGIN CTAB
M  V30 COUNTS 23 23 0 0 0
M  V30 BEGIN ATOM
M  V30 1 N 3.26443 0.0570802 0.480215 0
M  V30 2 C 1.91203 0.586475 0.45745 0
M  V30 3 C 0.942297 -0.455173 -0.0687672 0
M  V30 4 C -0.426091 0.164505 -0.061597 0
M  V30 5 C -1.49363 -0.825027 -0.510406 0
M  V30 6 C -2.74792 -0.0794693 -0.0330195 0
M  V30 7 C -2.21834 0.668381 1.14739 0
M  V30 8 O -0.857919 0.531172 1.18574 0
M  V30 9 N 1.24593 -0.784222 -1.46387 0
M  V30 10 H 3.86627 0.794253 0.914184 0
M  V30 11 H 3.58261 -0.0555874 -0.507022 0
M  V30 12 H 1.9023 1.45731 -0.226136 0
M  V30 13 H 1.56799 0.912805 1.44166 0
M  V30 14 H 1.00011 -1.38909 0.509271 0
M  V30 15 H -0.439531 0.989636 -0.786266 0
M  V30 16 H -1.41953 -1.7798 0.0673585 0
M  V30 17 H -1.4858 -0.966338 -1.59431 0
M  V30 18 H -3.01311 0.646178 -0.855173 0
M  V30 19 H -3.57397 -0.762041 0.187285 0
M  V30 20 H -2.44748 1.756 1.05798 0
M  V30 21 H -2.62577 0.283037 2.11236 0
M  V30 22 H 1.7537 -0.0278814 -1.93688 0
M  V30 23 H 1.71142 -1.72219 -1.51744 0
M  V30 END ATOM
M  V30 BEGIN BOND
M  V30 1 1 1 2
M  V30 2 1 2 3
M  V30 3 1 3 4
M  V30 4 1 4 5
M  V30 5 1 5 6
M  V30 6 1 6 7
M  V30 7 1 7 8
M  V30 8 1 3 9
M  V30 9 1 8 4
M  V30 10 1 1 10
M  V30 11 1 1 11
M  V30 12 1 2 12
M  V30 13 1 2 13
M  V30 14 1 3 14
M  V30 15 1 4 15
M  V30 16 1 5 16
M  V30 17 1 5 17
M  V30 18 1 6 18
M  V30 19 1 6 19
M  V30 20 1 7 20
M  V30 21 1 7 21
M  V30 22 1 9 22
M  V30 23 1 9 23
M  V30 END BOND
M  V30 END CTAB
M  END
