
     RDKit          3D

  0  0  0  0  0  0  0  0  0  0999 V3000
M  V30 BEGIN CTAB
M  V30 COUNTS 39 40 0 0 0
M  V30 BEGIN ATOM
M  V30 1 O 0.367062 -0.376651 2.64733 0
M  V30 2 C -0.291372 -0.18112 1.60155 0
M  V30 3 C -1.76267 -0.289822 1.66408 0
M  V30 4 S -2.42488 0.073315 0.0233422 0
M  V30 5 C -4.20506 0.0416305 0.0359472 0
M  V30 6 N -4.87072 0.283993 -1.13181 0
M  V30 7 C -6.20514 0.288494 -1.18478 0
M  V30 8 N -6.87715 0.548539 -2.43053 0
M  V30 9 C -6.93177 0.046321 -0.0522886 0
M  V30 10 C -6.25305 -0.20134 1.13707 0
M  V30 11 N -4.91785 -0.192347 1.12813 0
M  V30 12 N -6.98195 -0.442286 2.32882 0
M  V30 13 N 0.355352 0.137233 0.397762 0
M  V30 14 N 1.64339 0.273421 0.172585 0
M  V30 15 C 2.96566 0.413652 -0.0581765 0
M  V30 16 O 3.76533 1.20016 0.47286 0
M  V30 17 C 3.54762 -0.551852 -1.13797 0
M  V30 18 C 4.99455 -0.307933 -1.11993 0
M  V30 19 C 5.56133 0.564511 -2.00463 0
M  V30 20 C 6.94073 0.8044 -1.93365 0
M  V30 21 C 7.70288 0.165876 -0.982243 0
M  V30 22 C 7.10987 -0.711146 -0.098469 0
M  V30 23 C 5.75327 -0.957289 -0.158125 0
M  V30 24 H -2.15172 0.533033 2.32635 0
M  V30 25 H -2.08414 -1.27075 2.07882 0
M  V30 26 H -6.55185 1.38114 -2.996 0
M  V30 27 H -7.64848 -0.0598965 -2.76225 0
M  V30 28 H -8.02638 0.0452934 -0.0374532 0
M  V30 29 H -6.95949 -1.39183 2.75006 0
M  V30 30 H -7.51803 0.324838 2.75831 0
M  V30 31 H -0.328078 0.277201 -0.447541 0
M  V30 32 H 1.68385 1.31593 1.09002 0
M  V30 33 H 3.0508 -0.299811 -2.08958 0
M  V30 34 H 3.28836 -1.56143 -0.805108 0
M  V30 35 H 4.99265 1.08952 -2.77551 0
M  V30 36 H 7.42241 1.50057 -2.6256 0
M  V30 37 H 8.7951 0.350643 -0.912722 0
M  V30 38 H 7.73537 -1.19764 0.637662 0
M  V30 39 H 5.31419 -1.66657 0.562492 0
M  V30 END ATOM
M  V30 BEGIN BOND
M  V30 1 2 1 2
M  V30 2 1 2 3
M  V30 3 1 3 4
M  V30 4 1 4 5
M  V30 5 2 5 6
M  V30 6 1 6 7
M  V30 7 1 7 8
M  V30 8 2 7 9
M  V30 9 1 9 10
M  V30 10 2 10 11
M  V30 11 1 10 12
M  V30 12 1 2 13
M  V30 13 1 13 14
M  V30 14 1 14 15
M  V30 15 2 15 16
M  V30 16 1 15 17
M  V30 17 1 17 18
M  V30 18 2 18 19
M  V30 19 1 19 20
M  V30 20 2 20 21
M  V30 21 1 21 22
M  V30 22 2 22 23
M  V30 23 1 11 5
M  V30 24 1 23 18
M  V30 25 1 3 24
M  V30 26 1 3 25
M  V30 27 1 8 26
M  V30 28 1 8 27
M  V30 29 1 9 28
M  V30 30 1 12 29
M  V30 31 1 12 30
M  V30 32 1 13 31
M  V30 33 1 14 32
M  V30 34 1 17 33
M  V30 35 1 17 34
M  V30 36 1 19 35
M  V30 37 1 20 36
M  V30 38 1 21 37
M  V30 39 1 22 38
M  V30 40 1 23 39
M  V30 END BOND
M  V30 END CTAB
M  END
