
     RDKit          3D

  0  0  0  0  0  0  0  0  0  0999 V3000
M  V30 BEGIN CTAB
M  V30 COUNTS 27 27 0 0 0
M  V30 BEGIN ATOM
M  V30 1 N 3.91476 -0.0484275 -1.67655 0
M  V30 2 C 3.10051 -0.383739 -0.559709 0
M  V30 3 N 2.90323 -1.74698 -0.235 0
M  V30 4 N 2.57881 0.556262 0.107093 0
M  V30 5 N 1.76611 0.446893 1.21229 0
M  V30 6 S 0.28709 1.24955 1.27194 0
M  V30 7 O 0.312927 2.56577 0.527709 0
M  V30 8 O 0.0302151 1.68072 2.72587 0
M  V30 9 C -1.10373 0.370118 0.789367 0
M  V30 10 C -1.53478 0.427224 -0.509867 0
M  V30 11 C -0.913201 1.21003 -1.54634 0
M  V30 12 O -1.3234 2.50055 -1.77186 0
M  V30 13 O -0.00337879 0.715338 -2.24105 0
M  V30 14 C -2.66348 -0.297177 -0.915605 0
M  V30 15 Br -3.24778 -0.20872 -2.71813 0
M  V30 16 C -3.35602 -1.07367 -0.0242555 0
M  V30 17 Br -4.89001 -2.06324 -0.558429 0
M  V30 18 C -2.94714 -1.15297 1.29635 0
M  V30 19 Br -3.91827 -2.23534 2.52526 0
M  V30 20 C -1.84031 -0.42952 1.6483 0
M  V30 21 Br -1.23768 -0.504608 3.45117 0
M  V30 22 H 4.31307 0.917382 -1.801 0
M  V30 23 H 4.15653 -0.743169 -2.42607 0
M  V30 24 H 2.27355 -2.39231 -0.770486 0
M  V30 25 H 3.43405 -2.10794 0.60023 0
M  V30 26 H 2.0891 -0.136612 1.9946 0
M  V30 27 H -2.18077 2.88458 -1.37966 0
M  V30 END ATOM
M  V30 BEGIN BOND
M  V30 1 1 1 2
M  V30 2 1 2 3
M  V30 3 2 2 4
M  V30 4 1 4 5
M  V30 5 1 5 6
M  V30 6 2 6 7
M  V30 7 2 6 8
M  V30 8 1 6 9
M  V30 9 2 9 10
M  V30 10 1 10 11
M  V30 11 1 11 12
M  V30 12 2 11 13
M  V30 13 1 10 14
M  V30 14 1 14 15
M  V30 15 2 14 16
M  V30 16 1 16 17
M  V30 17 1 16 18
M  V30 18 1 18 19
M  V30 19 2 18 20
M  V30 20 1 20 21
M  V30 21 1 20 9
M  V30 22 1 1 22
M  V30 23 1 1 23
M  V30 24 1 3 24
M  V30 25 1 3 25
M  V30 26 1 5 26
M  V30 27 1 12 27
M  V30 END BOND
M  V30 END CTAB
M  END
