
     RDKit          3D

  0  0  0  0  0  0  0  0  0  0999 V3000
M  V30 BEGIN CTAB
M  V30 COUNTS 34 36 0 0 0
M  V30 BEGIN ATOM
M  V30 1 N 3.10639 -3.097 1.14254 0
M  V30 2 C 2.13555 -2.46117 0.946695 0
M  V30 3 C 0.936156 -1.70538 0.693577 0
M  V30 4 C -0.301651 -2.28627 1.01685 0
M  V30 5 N -0.36273 -3.57609 1.59118 0
M  V30 6 N -1.46667 -1.66588 0.804362 0
M  V30 7 C -1.45298 -0.424872 0.254156 0
M  V30 8 C -0.262109 0.175621 -0.0749963 0
M  V30 9 C 0.956879 -0.455197 0.139547 0
M  V30 10 C 2.22893 0.166205 -0.18634 0
M  V30 11 C 2.45466 0.706987 -1.45774 0
M  V30 12 N 3.63098 1.28383 -1.72182 0
M  V30 13 C 4.64866 1.39244 -0.842059 0
M  V30 14 N 4.42299 0.870506 0.376682 0
M  V30 15 C 3.26581 0.274912 0.716982 0
M  V30 16 N 5.87745 2.01862 -1.18568 0
M  V30 17 C -2.73864 0.241406 0.0274947 0
M  V30 18 C -3.93089 -0.399272 0.374542 0
M  V30 19 C -5.164 0.187428 0.180337 0
M  V30 20 C -5.21558 1.45763 -0.379304 0
M  V30 21 C -4.06202 2.12313 -0.73528 0
M  V30 22 C -2.85333 1.49429 -0.521124 0
M  V30 23 F -4.16878 3.35858 -1.2766 0
M  V30 24 H -0.558196 -4.38601 0.981447 0
M  V30 25 H -0.211693 -3.68529 2.60458 0
M  V30 26 H -0.211268 1.15967 -0.513408 0
M  V30 27 H 1.65856 0.633636 -2.17887 0
M  V30 28 H 3.12074 -0.131779 1.73394 0
M  V30 29 H 6.42765 1.64285 -1.97021 0
M  V30 30 H 6.24226 2.84342 -0.673593 0
M  V30 31 H -3.90807 -1.39207 0.812885 0
M  V30 32 H -6.08105 -0.321275 0.454323 0
M  V30 33 H -6.18648 1.90899 -0.52752 0
M  V30 34 H -1.97748 2.04743 -0.812589 0
M  V30 END ATOM
M  V30 BEGIN BOND
M  V30 1 3 1 2
M  V30 2 1 2 3
M  V30 3 2 3 4
M  V30 4 1 4 5
M  V30 5 1 4 6
M  V30 6 2 6 7
M  V30 7 1 7 8
M  V30 8 2 8 9
M  V30 9 1 9 10
M  V30 10 2 10 11
M  V30 11 1 11 12
M  V30 12 2 12 13
M  V30 13 1 13 14
M  V30 14 2 14 15
M  V30 15 1 13 16
M  V30 16 1 7 17
M  V30 17 2 17 18
M  V30 18 1 18 19
M  V30 19 2 19 20
M  V30 20 1 20 21
M  V30 21 2 21 22
M  V30 22 1 21 23
M  V30 23 1 9 3
M  V30 24 1 15 10
M  V30 25 1 22 17
M  V30 26 1 5 24
M  V30 27 1 5 25
M  V30 28 1 8 26
M  V30 29 1 11 27
M  V30 30 1 15 28
M  V30 31 1 16 29
M  V30 32 1 16 30
M  V30 33 1 18 31
M  V30 34 1 19 32
M  V30 35 1 20 33
M  V30 36 1 22 34
M  V30 END BOND
M  V30 END CTAB
M  END
