
     RDKit          3D

  0  0  0  0  0  0  0  0  0  0999 V3000
M  V30 BEGIN CTAB
M  V30 COUNTS 27 27 0 0 0
M  V30 BEGIN ATOM
M  V30 1 C 2.066 0.387432 -1.78205 0
M  V30 2 N 1.37174 0.426697 -0.514044 0
M  V30 3 C -0.0179669 0.122875 -0.397581 0
M  V30 4 C -0.715205 -0.217815 -1.53084 0
M  V30 5 C -2.07937 -0.526201 -1.47964 0
M  V30 6 C -2.67038 -0.467509 -0.239028 0
M  V30 7 C -1.97702 -0.12651 0.901989 0
M  V30 8 N -0.669714 0.156333 0.772071 0
M  V30 9 N -2.62014 -0.0735364 2.18568 0
M  V30 10 N -4.05613 -0.769836 -0.114321 0
M  V30 11 C 2.15368 0.793313 0.665984 0
M  V30 12 C 3.14486 -0.34178 0.933276 0
M  V30 13 O 2.37847 -1.48665 1.15218 0
M  V30 14 H 2.10012 -0.664692 -2.14099 0
M  V30 15 H 1.44222 0.935989 -2.54511 0
M  V30 16 H 3.05674 0.841342 -1.67674 0
M  V30 17 H -0.204978 -0.250435 -2.48164 0
M  V30 18 H -2.61383 -0.790346 -2.36812 0
M  V30 19 H -2.6625 0.825021 2.71533 0
M  V30 20 H -3.04573 -0.92475 2.59528 0
M  V30 21 H -4.68723 -0.715179 -0.953051 0
M  V30 22 H -4.49739 -1.0513 0.788174 0
M  V30 23 H 1.53269 0.989646 1.54212 0
M  V30 24 H 2.78193 1.65853 0.358857 0
M  V30 25 H 3.7984 -0.105149 1.78975 0
M  V30 26 H 3.78556 -0.530025 0.0705192 0
M  V30 27 H 2.90516 -2.07156 1.75192 0
M  V30 END ATOM
M  V30 BEGIN BOND
M  V30 1 1 1 2
M  V30 2 1 2 3
M  V30 3 2 3 4
M  V30 4 1 4 5
M  V30 5 2 5 6
M  V30 6 1 6 7
M  V30 7 2 7 8
M  V30 8 1 7 9
M  V30 9 1 6 10
M  V30 10 1 2 11
M  V30 11 1 11 12
M  V30 12 1 12 13
M  V30 13 1 8 3
M  V30 14 1 1 14
M  V30 15 1 1 15
M  V30 16 1 1 16
M  V30 17 1 4 17
M  V30 18 1 5 18
M  V30 19 1 9 19
M  V30 20 1 9 20
M  V30 21 1 10 21
M  V30 22 1 10 22
M  V30 23 1 11 23
M  V30 24 1 11 24
M  V30 25 1 12 25
M  V30 26 1 12 26
M  V30 27 1 13 27
M  V30 END BOND
M  V30 END CTAB
M  END
