
     RDKit          3D

  0  0  0  0  0  0  0  0  0  0999 V3000
M  V30 BEGIN CTAB
M  V30 COUNTS 28 29 0 0 0
M  V30 BEGIN ATOM
M  V30 1 O -2.34813 -0.0576518 -2.62189 0
M  V30 2 C -2.73461 0.179552 -1.46913 0
M  V30 3 O -4.00529 0.648382 -1.14437 0
M  V30 4 C -4.16306 0.715823 0.259128 0
M  V30 5 C -2.95047 -0.0193451 0.795514 0
M  V30 6 N -1.9649 0.0192595 -0.284429 0
M  V30 7 C -0.57085 -0.0772779 -0.162859 0
M  V30 8 C 0.271459 0.472873 -1.124 0
M  V30 9 C 1.64603 0.399535 -1.04183 0
M  V30 10 C 2.23663 -0.233246 0.0135502 0
M  V30 11 C 1.43654 -0.78865 0.98275 0
M  V30 12 C 0.0418437 -0.711644 0.896503 0
M  V30 13 N -0.760322 -1.29906 1.91986 0
M  V30 14 S 3.98222 -0.318372 0.101423 0
M  V30 15 O 4.50637 -0.318719 -1.29941 0
M  V30 16 O 4.43224 -1.58296 0.77524 0
M  V30 17 N 4.66084 1.01692 0.940848 0
M  V30 18 H -5.07356 0.184736 0.541103 0
M  V30 19 H -4.22069 1.75399 0.588687 0
M  V30 20 H -3.25548 -1.06093 1.03359 0
M  V30 21 H -2.58818 0.523336 1.67817 0
M  V30 22 H -0.212245 0.975441 -1.95427 0
M  V30 23 H 2.23408 0.850208 -1.81949 0
M  V30 24 H 1.89081 -1.29138 1.8246 0
M  V30 25 H -0.883858 -0.889702 2.85747 0
M  V30 26 H -1.24326 -2.19201 1.68942 0
M  V30 27 H 4.02985 1.82962 1.02157 0
M  V30 28 H 5.60599 1.27127 0.552812 0
M  V30 END ATOM
M  V30 BEGIN BOND
M  V30 1 2 1 2
M  V30 2 1 2 3
M  V30 3 1 3 4
M  V30 4 1 4 5
M  V30 5 1 5 6
M  V30 6 1 6 7
M  V30 7 2 7 8
M  V30 8 1 8 9
M  V30 9 2 9 10
M  V30 10 1 10 11
M  V30 11 2 11 12
M  V30 12 1 12 13
M  V30 13 1 10 14
M  V30 14 2 14 15
M  V30 15 2 14 16
M  V30 16 1 14 17
M  V30 17 1 6 2
M  V30 18 1 12 7
M  V30 19 1 4 18
M  V30 20 1 4 19
M  V30 21 1 5 20
M  V30 22 1 5 21
M  V30 23 1 8 22
M  V30 24 1 9 23
M  V30 25 1 11 24
M  V30 26 1 13 25
M  V30 27 1 13 26
M  V30 28 1 17 27
M  V30 29 1 17 28
M  V30 END BOND
M  V30 END CTAB
M  END
