
     RDKit          3D

  0  0  0  0  0  0  0  0  0  0999 V3000
M  V30 BEGIN CTAB
M  V30 COUNTS 52 53 0 0 0
M  V30 BEGIN ATOM
M  V30 1 O 3.78164 -0.4503 1.62301 0
M  V30 2 C 3.81545 -0.694101 0.38338 0
M  V30 3 C 4.88296 -0.0151393 -0.393018 0
M  V30 4 C 6.00821 0.428036 0.268669 0
M  V30 5 C 7.0532 1.08123 -0.370389 0
M  V30 6 C 6.93808 1.28257 -1.71771 0
M  V30 7 C 5.82611 0.848008 -2.38839 0
M  V30 8 C 4.77458 0.187546 -1.72805 0
M  V30 9 N 7.98607 1.94847 -2.41424 0
M  V30 10 N 2.93374 -1.54268 -0.288773 0
M  V30 11 C 1.83597 -2.27124 0.193697 0
M  V30 12 C 0.587371 -1.64408 0.648679 0
M  V30 13 C 0.68528 -0.672584 1.76127 0
M  V30 14 C -0.666871 -0.106537 2.20157 0
M  V30 15 C -1.55087 -1.20392 2.68852 0
M  V30 16 C -2.89603 -0.676747 3.16216 0
M  V30 17 N -3.62532 0.007002 2.12367 0
M  V30 18 C -4.02707 -0.593248 0.911375 0
M  V30 19 O -3.74843 -1.78692 0.69716 0
M  V30 20 C -4.75168 0.147571 -0.0803502 0
M  V30 21 C -5.13436 1.46917 0.0167794 0
M  V30 22 C -5.83428 2.11587 -0.986811 0
M  V30 23 C -6.16522 1.4325 -2.12128 0
M  V30 24 C -5.80966 0.123869 -2.26541 0
M  V30 25 C -5.11254 -0.498623 -1.25138 0
M  V30 26 N -6.88537 2.05904 -3.17887 0
M  V30 27 H 6.04938 0.241463 1.34459 0
M  V30 28 H 7.9009 1.39979 0.207627 0
M  V30 29 H 5.76357 1.01985 -3.44458 0
M  V30 30 H 3.91707 -0.131818 -2.29256 0
M  V30 31 H 8.9422 1.55861 -2.34533 0
M  V30 32 H 7.82356 2.79827 -2.97932 0
M  V30 33 H 3.12015 -1.67044 -1.3575 0
M  V30 34 H 1.55279 -3.06096 -0.570327 0
M  V30 35 H 2.20933 -2.94306 1.04839 0
M  V30 36 H -0.0888797 -2.496 0.999996 0
M  V30 37 H 0.0617973 -1.19895 -0.250506 0
M  V30 38 H 1.2153 -1.12358 2.61213 0
M  V30 39 H 1.25858 0.25272 1.45224 0
M  V30 40 H -1.0837 0.450514 1.34364 0
M  V30 41 H -0.529486 0.625403 3.02162 0
M  V30 42 H -1.06563 -1.63581 3.60502 0
M  V30 43 H -1.66105 -2.02407 1.98153 0
M  V30 44 H -3.45692 -1.56057 3.54099 0
M  V30 45 H -2.7176 -0.00951162 3.99841 0
M  V30 46 H -3.86118 1.00937 2.29966 0
M  V30 47 H -4.8816 2.02478 0.905887 0
M  V30 48 H -6.12073 3.16799 -0.872061 0
M  V30 49 H -6.07561 -0.428137 -3.17926 0
M  V30 50 H -4.85978 -1.54964 -1.43434 0
M  V30 51 H -7.36635 2.97881 -3.00998 0
M  V30 52 H -6.94706 1.62496 -4.12127 0
M  V30 END ATOM
M  V30 BEGIN BOND
M  V30 1 2 1 2
M  V30 2 1 2 3
M  V30 3 2 3 4
M  V30 4 1 4 5
M  V30 5 2 5 6
M  V30 6 1 6 7
M  V30 7 2 7 8
M  V30 8 1 6 9
M  V30 9 1 2 10
M  V30 10 1 10 11
M  V30 11 1 11 12
M  V30 12 1 12 13
M  V30 13 1 13 14
M  V30 14 1 14 15
M  V30 15 1 15 16
M  V30 16 1 16 17
M  V30 17 1 17 18
M  V30 18 2 18 19
M  V30 19 1 18 20
M  V30 20 2 20 21
M  V30 21 1 21 22
M  V30 22 2 22 23
M  V30 23 1 23 24
M  V30 24 2 24 25
M  V30 25 1 23 26
M  V30 26 1 8 3
M  V30 27 1 25 20
M  V30 28 1 4 27
M  V30 29 1 5 28
M  V30 30 1 7 29
M  V30 31 1 8 30
M  V30 32 1 9 31
M  V30 33 1 9 32
M  V30 34 1 10 33
M  V30 35 1 11 34
M  V30 36 1 11 35
M  V30 37 1 12 36
M  V30 38 1 12 37
M  V30 39 1 13 38
M  V30 40 1 13 39
M  V30 41 1 14 40
M  V30 42 1 14 41
M  V30 43 1 15 42
M  V30 44 1 15 43
M  V30 45 1 16 44
M  V30 46 1 16 45
M  V30 47 1 17 46
M  V30 48 1 21 47
M  V30 49 1 22 48
M  V30 50 1 24 49
M  V30 51 1 25 50
M  V30 52 1 26 51
M  V30 53 1 26 52
M  V30 END BOND
M  V30 END CTAB
M  END
