
     RDKit          3D

  0  0  0  0  0  0  0  0  0  0999 V3000
M  V30 BEGIN CTAB
M  V30 COUNTS 18 17 0 0 0
M  V30 BEGIN ATOM
M  V30 1 C 2.95022 -0.214195 -0.321414 0
M  V30 2 O 1.68438 0.382988 -0.394495 0
M  V30 3 C 0.617674 -0.0358569 0.390234 0
M  V30 4 O 0.823665 -0.987788 1.18663 0
M  V30 5 C -0.696221 0.615306 0.285658 0 CFG=1
M  V30 6 N -0.666645 1.66832 -0.691967 0
M  V30 7 C -1.78724 -0.352689 -0.116601 0
M  V30 8 N -1.94247 -1.43548 0.830462 0
M  V30 9 H 2.9946 -0.938561 0.517029 0
M  V30 10 H 3.18719 -0.716121 -1.27055 0
M  V30 11 H 3.72328 0.581801 -0.151659 0
M  V30 12 H -0.972111 1.03998 1.26614 0
M  V30 13 H 0.221707 1.69784 -1.23566 0
M  V30 14 H -1.0016 2.57711 -0.368026 0
M  V30 15 H -1.49939 -0.842781 -1.09245 0
M  V30 16 H -2.73809 0.170493 -0.286526 0
M  V30 17 H -2.63929 -2.09442 0.417109 0
M  V30 18 H -2.25965 -1.11594 1.75528 0
M  V30 END ATOM
M  V30 BEGIN BOND
M  V30 1 1 1 2
M  V30 2 1 2 3
M  V30 3 2 3 4
M  V30 4 1 3 5
M  V30 5 1 5 6
M  V30 6 1 5 7
M  V30 7 1 7 8
M  V30 8 1 1 9
M  V30 9 1 1 10
M  V30 10 1 1 11
M  V30 11 1 5 12 CFG=1
M  V30 12 1 6 13
M  V30 13 1 6 14
M  V30 14 1 7 15
M  V30 15 1 7 16
M  V30 16 1 8 17
M  V30 17 1 8 18
M  V30 END BOND
M  V30 END CTAB
M  END
