
     RDKit          3D

  0  0  0  0  0  0  0  0  0  0999 V3000
M  V30 BEGIN CTAB
M  V30 COUNTS 22 23 0 0 0
M  V30 BEGIN ATOM
M  V30 1 N 4.85403 0.299414 -0.215744 0
M  V30 2 C 3.59623 -0.3396 -0.0837027 0
M  V30 3 N 3.3478 -1.65006 0.116815 0
M  V30 4 O 2.06675 -1.83495 0.182661 0
M  V30 5 C 1.41772 -0.707409 0.0361388 0
M  V30 6 N 2.36092 0.232637 -0.130759 0
M  V30 7 C -0.0480776 -0.525225 0.0534829 0
M  V30 8 C -0.903943 -1.57299 0.233612 0
M  V30 9 C -2.28128 -1.32644 0.238784 0
M  V30 10 C -2.77887 -0.0477509 0.06541 0
M  V30 11 C -1.91528 1.00705 -0.115986 0
M  V30 12 C -0.569904 0.732894 -0.11613 0
M  V30 13 N -2.34766 2.34899 -0.300643 0
M  V30 14 O -4.13276 0.230005 0.0652801 0
M  V30 15 H 5.20682 0.591785 -1.1451 0
M  V30 16 H 5.44829 0.488402 0.612481 0
M  V30 17 H -0.542894 -2.56383 0.368701 0
M  V30 18 H -3.00106 -2.1333 0.379321 0
M  V30 19 H 0.116813 1.56016 -0.258681 0
M  V30 20 H -3.28471 2.62618 0.0664298 0
M  V30 21 H -1.75491 3.03025 -0.782658 0
M  V30 22 H -4.85403 -0.446202 0.186616 0
M  V30 END ATOM
M  V30 BEGIN BOND
M  V30 1 1 1 2
M  V30 2 2 2 3
M  V30 3 1 3 4
M  V30 4 1 4 5
M  V30 5 2 5 6
M  V30 6 1 5 7
M  V30 7 2 7 8
M  V30 8 1 8 9
M  V30 9 2 9 10
M  V30 10 1 10 11
M  V30 11 2 11 12
M  V30 12 1 11 13
M  V30 13 1 10 14
M  V30 14 1 6 2
M  V30 15 1 12 7
M  V30 16 1 1 15
M  V30 17 1 1 16
M  V30 18 1 8 17
M  V30 19 1 9 18
M  V30 20 1 12 19
M  V30 21 1 13 20
M  V30 22 1 13 21
M  V30 23 1 14 22
M  V30 END BOND
M  V30 END CTAB
M  END
