
     RDKit          3D

  0  0  0  0  0  0  0  0  0  0999 V3000
M  V30 BEGIN CTAB
M  V30 COUNTS 32 33 0 0 0
M  V30 BEGIN ATOM
M  V30 1 N 5.36644 0.582529 1.83813 0
M  V30 2 C 4.25032 0.570597 0.959102 0
M  V30 3 C 3.02412 1.10131 1.32898 0
M  V30 4 C 1.93901 1.09299 0.482705 0
M  V30 5 C 2.02183 0.552052 -0.781969 0
M  V30 6 C 3.23415 0.018905 -1.16901 0
M  V30 7 C 4.31607 0.0317189 -0.314314 0
M  V30 8 S 0.696803 0.515755 -1.84288 0
M  V30 9 O -0.00404754 1.77907 -1.5976 0
M  V30 10 O 1.23234 0.690711 -3.19648 0
M  V30 11 S -0.416286 -1.08004 -1.65585 0
M  V30 12 O 0.195674 -2.15261 -0.867344 0
M  V30 13 O -0.725974 -1.72998 -2.93361 0
M  V30 14 C -1.91346 -0.784633 -0.903043 0
M  V30 15 C -2.05949 -0.854862 0.44222 0
M  V30 16 C -3.24343 -0.61848 1.0681 0
M  V30 17 C -4.37091 -0.290038 0.344726 0
M  V30 18 N -5.60992 -0.0431063 1.00565 0
M  V30 19 C -4.22355 -0.218344 -1.02447 0
M  V30 20 C -3.02393 -0.457753 -1.65955 0
M  V30 21 H 5.53494 1.32014 2.54693 0
M  V30 22 H 6.05473 -0.191336 1.76857 0
M  V30 23 H 2.94519 1.53432 2.33209 0
M  V30 24 H 0.972423 1.51701 0.787788 0
M  V30 25 H 3.35197 -0.425857 -2.17177 0
M  V30 26 H 5.27447 -0.394314 -0.631359 0
M  V30 27 H -1.20039 -1.10971 1.05117 0
M  V30 28 H -3.36767 -0.673412 2.15196 0
M  V30 29 H -6.50155 -0.298553 0.505831 0
M  V30 30 H -5.70685 0.368171 1.94005 0
M  V30 31 H -5.08169 0.0346306 -1.6137 0
M  V30 32 H -2.96133 -0.386879 -2.7575 0
M  V30 END ATOM
M  V30 BEGIN BOND
M  V30 1 1 1 2
M  V30 2 2 2 3
M  V30 3 1 3 4
M  V30 4 2 4 5
M  V30 5 1 5 6
M  V30 6 2 6 7
M  V30 7 1 5 8
M  V30 8 2 8 9
M  V30 9 2 8 10
M  V30 10 1 8 11
M  V30 11 2 11 12
M  V30 12 2 11 13
M  V30 13 1 11 14
M  V30 14 2 14 15
M  V30 15 1 15 16
M  V30 16 2 16 17
M  V30 17 1 17 18
M  V30 18 1 17 19
M  V30 19 2 19 20
M  V30 20 1 7 2
M  V30 21 1 20 14
M  V30 22 1 1 21
M  V30 23 1 1 22
M  V30 24 1 3 23
M  V30 25 1 4 24
M  V30 26 1 6 25
M  V30 27 1 7 26
M  V30 28 1 15 27
M  V30 29 1 16 28
M  V30 30 1 18 29
M  V30 31 1 18 30
M  V30 32 1 19 31
M  V30 33 1 20 32
M  V30 END BOND
M  V30 END CTAB
M  END
