
     RDKit          3D

  0  0  0  0  0  0  0  0  0  0999 V3000
M  V30 BEGIN CTAB
M  V30 COUNTS 23 23 0 0 0
M  V30 BEGIN ATOM
M  V30 1 C -2.76734 0.125196 0.110933 0
M  V30 2 C -2.01243 -1.08852 -0.328056 0
M  V30 3 O -0.789192 -0.87588 -0.935276 0
M  V30 4 C 0.323714 -0.243275 -0.400898 0
M  V30 5 C 1.27316 -0.977394 0.311314 0
M  V30 6 N 1.0754 -2.3677 0.473991 0
M  V30 7 C 2.39528 -0.366517 0.855056 0
M  V30 8 C 2.62526 0.984513 0.719424 0
M  V30 9 C 1.69281 1.71081 0.018755 0
M  V30 10 C 0.567091 1.10555 -0.528364 0
M  V30 11 N -0.361033 1.91966 -1.25114 0
M  V30 12 Cl 4.03309 1.75679 1.4006 0
M  V30 13 H -3.12197 0.767446 -0.72219 0
M  V30 14 H -3.68431 -0.271555 0.645673 0
M  V30 15 H -2.19747 0.716042 0.848813 0
M  V30 16 H -1.98552 -1.79013 0.528284 0
M  V30 17 H -2.66396 -1.60544 -1.0935 0
M  V30 18 H 1.39448 -3.03138 -0.246134 0
M  V30 19 H 0.607029 -2.71662 1.32279 0
M  V30 20 H 3.12955 -0.951441 1.40931 0
M  V30 21 H 1.87232 2.78145 -0.0903495 0
M  V30 22 H -0.603531 2.87155 -0.936518 0
M  V30 23 H -0.80244 1.54686 -2.11252 0
M  V30 END ATOM
M  V30 BEGIN BOND
M  V30 1 1 1 2
M  V30 2 1 2 3
M  V30 3 1 3 4
M  V30 4 2 4 5
M  V30 5 1 5 6
M  V30 6 1 5 7
M  V30 7 2 7 8
M  V30 8 1 8 9
M  V30 9 2 9 10
M  V30 10 1 10 11
M  V30 11 1 8 12
M  V30 12 1 10 4
M  V30 13 1 1 13
M  V30 14 1 1 14
M  V30 15 1 1 15
M  V30 16 1 2 16
M  V30 17 1 2 17
M  V30 18 1 6 18
M  V30 19 1 6 19
M  V30 20 1 7 20
M  V30 21 1 9 21
M  V30 22 1 11 22
M  V30 23 1 11 23
M  V30 END BOND
M  V30 END CTAB
M  END
