
     RDKit          3D

  0  0  0  0  0  0  0  0  0  0999 V3000
M  V30 BEGIN CTAB
M  V30 COUNTS 24 24 0 0 0
M  V30 BEGIN ATOM
M  V30 1 N -3.04945 -1.03939 0.731391 0
M  V30 2 C -2.08884 -0.238704 0.0369792 0
M  V30 3 C -2.40949 0.399692 -1.13163 0
M  V30 4 C -1.48704 1.17072 -1.80119 0
M  V30 5 C -0.214317 1.27298 -1.23843 0
M  V30 6 C 0.149258 0.648879 -0.0687925 0
M  V30 7 C -0.828883 -0.122593 0.570529 0
M  V30 8 C -0.436474 -0.798409 1.83725 0
M  V30 9 N 1.41305 0.730965 0.557654 0
M  V30 10 S 2.86296 0.516747 -0.326829 0
M  V30 11 O 4.01861 1.25886 0.340456 0
M  V30 12 O 2.6729 0.971856 -1.72407 0
M  V30 13 N 3.35846 -1.16174 -0.29752 0
M  V30 14 H -3.80973 -0.549252 1.22358 0
M  V30 15 H -2.92011 -2.0641 0.695737 0
M  V30 16 H -3.39557 0.32629 -1.57665 0
M  V30 17 H -1.68459 1.69445 -2.7228 0
M  V30 18 H 0.506769 1.89003 -1.75678 0
M  V30 19 H 0.0253337 -0.102202 2.56649 0
M  V30 20 H 0.188827 -1.68152 1.68723 0
M  V30 21 H -1.3869 -1.14335 2.3214 0
M  V30 22 H 1.49525 0.928901 1.59931 0
M  V30 23 H 2.69595 -1.73674 -0.865547 0
M  V30 24 H 4.32403 -1.17237 -0.65776 0
M  V30 END ATOM
M  V30 BEGIN BOND
M  V30 1 1 1 2
M  V30 2 2 2 3
M  V30 3 1 3 4
M  V30 4 2 4 5
M  V30 5 1 5 6
M  V30 6 2 6 7
M  V30 7 1 7 8
M  V30 8 1 6 9
M  V30 9 1 9 10
M  V30 10 2 10 11
M  V30 11 2 10 12
M  V30 12 1 10 13
M  V30 13 1 7 2
M  V30 14 1 1 14
M  V30 15 1 1 15
M  V30 16 1 3 16
M  V30 17 1 4 17
M  V30 18 1 5 18
M  V30 19 1 8 19
M  V30 20 1 8 20
M  V30 21 1 8 21
M  V30 22 1 9 22
M  V30 23 1 13 23
M  V30 24 1 13 24
M  V30 END BOND
M  V30 END CTAB
M  END
