
     RDKit          3D

  0  0  0  0  0  0  0  0  0  0999 V3000
M  V30 BEGIN CTAB
M  V30 COUNTS 19 20 0 0 0
M  V30 BEGIN ATOM
M  V30 1 N -2.92338 2.03492 0.0320936 0
M  V30 2 C -2.00343 0.949987 -0.0342647 0
M  V30 3 N -2.38224 -0.325867 -0.234233 0
M  V30 4 C -1.47986 -1.31907 -0.289954 0
M  V30 5 N -1.92949 -2.64526 -0.502455 0
M  V30 6 N -0.145158 -1.07682 -0.146572 0
M  V30 7 C 0.21692 0.198051 0.0518688 0
M  V30 8 N -0.669225 1.20562 0.110843 0
M  V30 9 C 1.64176 0.545011 0.216624 0
M  V30 10 C 2.71219 -0.310873 0.193134 0
M  V30 11 C 3.93092 0.255235 0.369585 0
M  V30 12 N 3.9746 1.57366 0.547129 0
M  V30 13 S 2.36969 2.05648 0.476774 0
M  V30 14 H -2.76049 2.81053 0.71544 0
M  V30 15 H -3.77201 2.11381 -0.568897 0
M  V30 16 H -1.37957 -3.48953 -0.228581 0
M  V30 17 H -2.85433 -2.80969 -0.954106 0
M  V30 18 H 2.58205 -1.41027 0.0372663 0
M  V30 19 H 4.87108 -0.355921 0.367495 0
M  V30 END ATOM
M  V30 BEGIN BOND
M  V30 1 1 1 2
M  V30 2 2 2 3
M  V30 3 1 3 4
M  V30 4 1 4 5
M  V30 5 2 4 6
M  V30 6 1 6 7
M  V30 7 2 7 8
M  V30 8 1 7 9
M  V30 9 2 9 10
M  V30 10 1 10 11
M  V30 11 2 11 12
M  V30 12 1 12 13
M  V30 13 1 8 2
M  V30 14 1 13 9
M  V30 15 1 1 14
M  V30 16 1 1 15
M  V30 17 1 5 16
M  V30 18 1 5 17
M  V30 19 1 10 18
M  V30 20 1 11 19
M  V30 END BOND
M  V30 END CTAB
M  END
