
     RDKit          3D

  0  0  0  0  0  0  0  0  0  0999 V3000
M  V30 BEGIN CTAB
M  V30 COUNTS 40 41 0 0 0
M  V30 BEGIN ATOM
M  V30 1 C 4.0554 2.97868 -1.34678 0
M  V30 2 O 4.23019 2.04923 -0.322278 0
M  V30 3 C 3.32962 1.02593 -0.162322 0
M  V30 4 C 3.50578 0.11387 0.847114 0
M  V30 5 C 2.61444 -0.893847 1.00192 0
M  V30 6 C 1.50172 -1.07847 0.188339 0
M  V30 7 C 1.33109 -0.138284 -0.843896 0
M  V30 8 C 2.23805 0.864151 -0.977643 0
M  V30 9 C 0.643699 -2.21984 0.205365 0
M  V30 10 N 1.14487 -3.39318 0.381815 0
M  V30 11 N 2.48926 -3.58716 0.551925 0
M  V30 12 C -0.822719 -2.19571 0.0124301 0
M  V30 13 N -1.4127 -3.35926 -0.117875 0
M  V30 14 N -2.68063 -3.71802 -0.298628 0
M  V30 15 C -1.6673 -1.02977 -0.0271556 0
M  V30 16 C -1.39156 0.0902423 0.739719 0
M  V30 17 C -2.16992 1.21366 0.618517 0
M  V30 18 C -3.22629 1.24863 -0.254778 0
M  V30 19 O -4.01074 2.40087 -0.366528 0
M  V30 20 C -3.7573 3.5586 0.398721 0
M  V30 21 C -3.54406 0.166236 -1.0383 0
M  V30 22 C -2.72822 -0.968153 -0.892494 0
M  V30 23 H 4.97367 3.60281 -1.51483 0
M  V30 24 H 3.85921 2.47126 -2.30074 0
M  V30 25 H 3.25113 3.71928 -1.08205 0
M  V30 26 H 4.35443 0.190749 1.52576 0
M  V30 27 H 2.77157 -1.58717 1.84295 0
M  V30 28 H 0.482 -0.26003 -1.5355 0
M  V30 29 H 2.09526 1.58497 -1.7777 0
M  V30 30 H 2.89503 -4.0199 1.43426 0
M  V30 31 H 3.19834 -3.32398 -0.169989 0
M  V30 32 H -3.47236 -3.45728 0.338869 0
M  V30 33 H -2.96849 -4.30901 -1.12838 0
M  V30 34 H -0.570947 0.102363 1.47415 0
M  V30 35 H -1.93402 2.0959 1.237 0
M  V30 36 H -4.1191 3.37258 1.43491 0
M  V30 37 H -2.70293 3.88038 0.356064 0
M  V30 38 H -4.37406 4.37544 -0.0475181 0
M  V30 39 H -4.37765 0.202331 -1.72268 0
M  V30 40 H -3.03374 -1.7691 -1.57407 0
M  V30 END ATOM
M  V30 BEGIN BOND
M  V30 1 1 1 2
M  V30 2 1 2 3
M  V30 3 2 3 4
M  V30 4 1 4 5
M  V30 5 2 5 6
M  V30 6 1 6 7
M  V30 7 2 7 8
M  V30 8 1 6 9
M  V30 9 2 9 10 CFG=2
M  V30 10 1 10 11
M  V30 11 1 9 12
M  V30 12 2 12 13 CFG=2
M  V30 13 1 13 14
M  V30 14 1 12 15
M  V30 15 2 15 16
M  V30 16 1 16 17
M  V30 17 2 17 18
M  V30 18 1 18 19
M  V30 19 1 19 20
M  V30 20 1 18 21
M  V30 21 2 21 22
M  V30 22 1 8 3
M  V30 23 1 22 15
M  V30 24 1 1 23
M  V30 25 1 1 24
M  V30 26 1 1 25
M  V30 27 1 4 26
M  V30 28 1 5 27
M  V30 29 1 7 28
M  V30 30 1 8 29
M  V30 31 1 11 30
M  V30 32 1 11 31
M  V30 33 1 14 32
M  V30 34 1 14 33
M  V30 35 1 16 34
M  V30 36 1 17 35
M  V30 37 1 20 36
M  V30 38 1 20 37
M  V30 39 1 20 38
M  V30 40 1 21 39
M  V30 41 1 22 40
M  V30 END BOND
M  V30 END CTAB
M  END
