
     RDKit          3D

  0  0  0  0  0  0  0  0  0  0999 V3000
M  V30 BEGIN CTAB
M  V30 COUNTS 42 43 0 0 0
M  V30 BEGIN ATOM
M  V30 1 N -1.19731 2.8587 1.63358 0
M  V30 2 C -2.51508 2.75752 1.04184 0
M  V30 3 C -3.12864 1.39554 1.30456 0
M  V30 4 O -2.34494 0.358986 0.768149 0
M  V30 5 C -2.74214 -0.963856 0.906269 0
M  V30 6 C -3.94116 -1.22635 1.59325 0
M  V30 7 C -4.41284 -2.50166 1.77875 0
M  V30 8 C -3.67303 -3.55351 1.26708 0
M  V30 9 C -2.51146 -3.34089 0.598537 0
M  V30 10 C -2.03594 -2.0336 0.413087 0
M  V30 11 C -0.789598 -1.82857 -0.30648 0
M  V30 12 O -0.233853 -2.9126 -0.711086 0
M  V30 13 N -0.123927 -0.63913 -0.613742 0
M  V30 14 C 1.14895 -0.567352 -1.34342 0
M  V30 15 C 2.22445 -1.23124 -0.574701 0
M  V30 16 C 3.58599 -1.21934 -1.18904 0
M  V30 17 C 4.16694 0.155475 -1.38784 0
M  V30 18 C 5.39586 0.277967 -1.99635 0
M  V30 19 S 5.62536 1.97307 -1.97376 0
M  V30 20 C 4.17052 2.41542 -1.20551 0
M  V30 21 N 3.58378 1.25069 -1.00511 0
M  V30 22 N 3.7248 3.74387 -0.872938 0
M  V30 23 F -4.19733 -4.7887 1.48647 0
M  V30 24 H -0.580765 3.5124 1.10052 0
M  V30 25 H -1.33789 3.18103 2.62637 0
M  V30 26 H -3.1385 3.56775 1.46843 0
M  V30 27 H -2.48662 2.95544 -0.0658232 0
M  V30 28 H -3.2613 1.29623 2.40374 0
M  V30 29 H -4.15654 1.41309 0.874131 0
M  V30 30 H -4.48719 -0.361027 1.97733 0
M  V30 31 H -5.33684 -2.65603 2.31162 0
M  V30 32 H -1.95441 -4.17341 0.210347 0
M  V30 33 H -0.488607 0.28893 -0.342933 0
M  V30 34 H 1.33174 0.425587 -1.73629 0
M  V30 35 H 0.95101 -1.21016 -2.26068 0
M  V30 36 H 2.23436 -0.764878 0.444856 0
M  V30 37 H 1.97396 -2.29874 -0.423192 0
M  V30 38 H 3.52267 -1.75029 -2.16171 0
M  V30 39 H 4.27061 -1.74298 -0.490758 0
M  V30 40 H 6.04738 -0.524592 -2.38965 0
M  V30 41 H 4.02733 4.18742 -0.00199557 0
M  V30 42 H 3.09018 4.27379 -1.50938 0
M  V30 END ATOM
M  V30 BEGIN BOND
M  V30 1 1 1 2
M  V30 2 1 2 3
M  V30 3 1 3 4
M  V30 4 1 4 5
M  V30 5 2 5 6
M  V30 6 1 6 7
M  V30 7 2 7 8
M  V30 8 1 8 9
M  V30 9 2 9 10
M  V30 10 1 10 11
M  V30 11 2 11 12
M  V30 12 1 11 13
M  V30 13 1 13 14
M  V30 14 1 14 15
M  V30 15 1 15 16
M  V30 16 1 16 17
M  V30 17 2 17 18
M  V30 18 1 18 19
M  V30 19 1 19 20
M  V30 20 2 20 21
M  V30 21 1 20 22
M  V30 22 1 8 23
M  V30 23 1 10 5
M  V30 24 1 21 17
M  V30 25 1 1 24
M  V30 26 1 1 25
M  V30 27 1 2 26
M  V30 28 1 2 27
M  V30 29 1 3 28
M  V30 30 1 3 29
M  V30 31 1 6 30
M  V30 32 1 7 31
M  V30 33 1 9 32
M  V30 34 1 13 33
M  V30 35 1 14 34
M  V30 36 1 14 35
M  V30 37 1 15 36
M  V30 38 1 15 37
M  V30 39 1 16 38
M  V30 40 1 16 39
M  V30 41 1 18 40
M  V30 42 1 22 41
M  V30 43 1 22 42
M  V30 END BOND
M  V30 END CTAB
M  END
