
     RDKit          3D

  0  0  0  0  0  0  0  0  0  0999 V3000
M  V30 BEGIN CTAB
M  V30 COUNTS 41 43 0 0 0
M  V30 BEGIN ATOM
M  V30 1 C -3.69136 3.01671 1.63058 0
M  V30 2 O -3.98687 1.63758 1.7395 0
M  V30 3 C -3.12258 0.706382 1.19718 0
M  V30 4 C -3.33086 -0.647534 1.25688 0
M  V30 5 C -2.44844 -1.54929 0.705544 0
M  V30 6 C -1.3166 -1.10957 0.0701417 0
M  V30 7 C -1.06839 0.24937 -0.0124665 0
M  V30 8 C -1.96675 1.12322 0.546828 0
M  V30 9 C 0.139906 0.786478 -0.686145 0
M  V30 10 C 0.192313 0.413967 -2.1064 0
M  V30 11 C 1.26789 -0.114004 -2.63239 0
M  V30 12 N 1.20608 -0.44178 -4.04237 0
M  V30 13 O 2.4412 -0.370984 -1.92394 0
M  V30 14 C 2.45391 -0.039941 -0.574868 0
M  V30 15 C 1.36971 0.513673 0.0409129 0
M  V30 16 C 1.44097 0.821711 1.3844 0
M  V30 17 C 2.58915 0.571303 2.08193 0
M  V30 18 C 3.69002 0.0125654 1.47026 0
M  V30 19 C 3.63914 -0.300637 0.136222 0
M  V30 20 N 4.90273 -0.257499 2.18461 0
M  V30 21 C -0.969365 0.628001 -2.97152 0
M  V30 22 N -1.9051 0.80718 -3.64254 0
M  V30 23 O -0.41886 -1.97766 -0.488462 0
M  V30 24 C -0.570146 -3.37673 -0.463804 0
M  V30 25 H -2.80987 3.2682 2.25317 0
M  V30 26 H -4.5552 3.58052 2.04997 0
M  V30 27 H -3.51751 3.33048 0.5899 0
M  V30 28 H -4.22693 -1.00361 1.75967 0
M  V30 29 H -2.6276 -2.63059 0.760687 0
M  V30 30 H -1.80931 2.20804 0.504223 0
M  V30 31 H 0.0237244 1.91994 -0.673667 0
M  V30 32 H 0.886005 0.257873 -4.74064 0
M  V30 33 H 1.48094 -1.3835 -4.38201 0
M  V30 34 H 0.580719 1.26942 1.90637 0
M  V30 35 H 2.68399 0.802307 3.1506 0
M  V30 36 H 4.49539 -0.745579 -0.381047 0
M  V30 37 H 5.46089 -1.11415 2.06012 0
M  V30 38 H 5.20795 0.476705 2.86086 0
M  V30 39 H 0.392455 -3.87595 -0.752064 0
M  V30 40 H -1.35933 -3.69191 -1.17967 0
M  V30 41 H -0.843998 -3.77073 0.527084 0
M  V30 END ATOM
M  V30 BEGIN BOND
M  V30 1 1 1 2
M  V30 2 1 2 3
M  V30 3 2 3 4
M  V30 4 1 4 5
M  V30 5 2 5 6
M  V30 6 1 6 7
M  V30 7 2 7 8
M  V30 8 1 7 9
M  V30 9 1 9 10
M  V30 10 2 10 11
M  V30 11 1 11 12
M  V30 12 1 11 13
M  V30 13 1 13 14
M  V30 14 2 14 15
M  V30 15 1 15 16
M  V30 16 2 16 17
M  V30 17 1 17 18
M  V30 18 2 18 19
M  V30 19 1 18 20
M  V30 20 1 10 21
M  V30 21 3 21 22
M  V30 22 1 6 23
M  V30 23 1 23 24
M  V30 24 1 8 3
M  V30 25 1 15 9
M  V30 26 1 19 14
M  V30 27 1 1 25
M  V30 28 1 1 26
M  V30 29 1 1 27
M  V30 30 1 4 28
M  V30 31 1 5 29
M  V30 32 1 8 30
M  V30 33 1 9 31
M  V30 34 1 12 32
M  V30 35 1 12 33
M  V30 36 1 16 34
M  V30 37 1 17 35
M  V30 38 1 19 36
M  V30 39 1 20 37
M  V30 40 1 20 38
M  V30 41 1 24 39
M  V30 42 1 24 40
M  V30 43 1 24 41
M  V30 END BOND
M  V30 END CTAB
M  END
