
     RDKit          3D

  0  0  0  0  0  0  0  0  0  0999 V3000
M  V30 BEGIN CTAB
M  V30 COUNTS 48 50 0 0 0
M  V30 BEGIN ATOM
M  V30 1 C -7.36505 -1.72701 0.955781 0
M  V30 2 C -6.10127 -1.1664 0.429713 0
M  V30 3 C -5.26017 -1.87556 -0.388123 0
M  V30 4 C -4.08532 -1.29924 -0.853062 0
M  V30 5 C -3.71524 -0.0124323 -0.521747 0
M  V30 6 C -4.58371 0.691786 0.3105 0
M  V30 7 C -5.74775 0.123976 0.77262 0
M  V30 8 C -2.46844 0.619104 -1.00657 0
M  V30 9 C -1.36779 0.347646 -0.0573527 0
M  V30 10 O -1.62203 -0.339461 0.96595 0
M  V30 11 N -0.0480447 0.820472 -0.241992 0
M  V30 12 C 0.981043 0.521054 0.720079 0
M  V30 13 C 1.79223 1.80735 0.903048 0
M  V30 14 N 2.48841 2.05089 -0.30366 0
M  V30 15 C 1.83808 1.7189 -1.51756 0
M  V30 16 C 0.335823 1.62115 -1.3937 0
M  V30 17 C 3.89542 1.97907 -0.299103 0
M  V30 18 C 4.34354 0.621661 0.0605632 0
M  V30 19 N 4.62252 0.343385 1.33715 0
M  V30 20 C 5.04153 -0.868669 1.74993 0
M  V30 21 N 5.31748 -1.08534 3.12412 0
M  V30 22 N 5.18795 -1.84631 0.844664 0
M  V30 23 C 4.90891 -1.58062 -0.456014 0
M  V30 24 N 4.487 -0.349747 -0.852501 0
M  V30 25 N 5.06337 -2.61689 -1.41523 0
M  V30 26 H -7.20855 -2.39156 1.83742 0
M  V30 27 H -8.09341 -0.91831 1.18546 0
M  V30 28 H -7.84389 -2.35956 0.173607 0
M  V30 29 H -5.52377 -2.9027 -0.671862 0
M  V30 30 H -3.41132 -1.86705 -1.50796 0
M  V30 31 H -4.29785 1.70259 0.573755 0
M  V30 32 H -6.42301 0.683533 1.42512 0
M  V30 33 H -2.24416 0.237823 -2.03305 0
M  V30 34 H -2.62641 1.72275 -1.14684 0
M  V30 35 H 0.584294 0.163423 1.6915 0
M  V30 36 H 1.66871 -0.212901 0.254041 0
M  V30 37 H 1.05661 2.61175 1.16418 0
M  V30 38 H 2.49347 1.6972 1.74273 0
M  V30 39 H 2.06367 2.38127 -2.36715 0
M  V30 40 H 2.18586 0.686489 -1.81582 0
M  V30 41 H -0.0199917 1.11952 -2.32902 0
M  V30 42 H -0.135982 2.6105 -1.36327 0
M  V30 43 H 4.37639 2.68884 0.439203 0
M  V30 44 H 4.37491 2.24473 -1.26468 0
M  V30 45 H 5.14269 -0.359805 3.83691 0
M  V30 46 H 5.71145 -2.00611 3.44058 0
M  V30 47 H 4.42814 -3.46253 -1.41105 0
M  V30 48 H 5.80366 -2.56867 -2.14324 0
M  V30 END ATOM
M  V30 BEGIN BOND
M  V30 1 1 1 2
M  V30 2 2 2 3
M  V30 3 1 3 4
M  V30 4 2 4 5
M  V30 5 1 5 6
M  V30 6 2 6 7
M  V30 7 1 5 8
M  V30 8 1 8 9
M  V30 9 2 9 10
M  V30 10 1 9 11
M  V30 11 1 11 12
M  V30 12 1 12 13
M  V30 13 1 13 14
M  V30 14 1 14 15
M  V30 15 1 15 16
M  V30 16 1 14 17
M  V30 17 1 17 18
M  V30 18 2 18 19
M  V30 19 1 19 20
M  V30 20 1 20 21
M  V30 21 2 20 22
M  V30 22 1 22 23
M  V30 23 2 23 24
M  V30 24 1 23 25
M  V30 25 1 7 2
M  V30 26 1 16 11
M  V30 27 1 24 18
M  V30 28 1 1 26
M  V30 29 1 1 27
M  V30 30 1 1 28
M  V30 31 1 3 29
M  V30 32 1 4 30
M  V30 33 1 6 31
M  V30 34 1 7 32
M  V30 35 1 8 33
M  V30 36 1 8 34
M  V30 37 1 12 35
M  V30 38 1 12 36
M  V30 39 1 13 37
M  V30 40 1 13 38
M  V30 41 1 15 39
M  V30 42 1 15 40
M  V30 43 1 16 41
M  V30 44 1 16 42
M  V30 45 1 17 43
M  V30 46 1 17 44
M  V30 47 1 21 45
M  V30 48 1 21 46
M  V30 49 1 25 47
M  V30 50 1 25 48
M  V30 END BOND
M  V30 END CTAB
M  END
