
     RDKit          3D

  0  0  0  0  0  0  0  0  0  0999 V3000
M  V30 BEGIN CTAB
M  V30 COUNTS 27 29 0 0 0
M  V30 BEGIN ATOM
M  V30 1 N 5.35317 -0.260258 -0.0149978 0
M  V30 2 C 3.93104 -0.15844 0.0101231 0
M  V30 3 C 3.27739 0.786163 0.77115 0
M  V30 4 C 1.8846 0.866856 0.779909 0
M  V30 5 C 1.105 0.0135965 0.0348286 0
M  V30 6 C 1.75471 -0.933128 -0.728135 0
M  V30 7 C 3.14573 -1.01295 -0.736234 0
M  V30 8 C -0.359306 0.118158 0.0605456 0
M  V30 9 N -1.2644 -0.607912 -0.583657 0
M  V30 10 C -2.49919 -0.166781 -0.267289 0
M  V30 11 C -2.34653 0.869956 0.604646 0
M  V30 12 N -1.0376 1.02211 0.786691 0
M  V30 13 N -3.38233 1.5673 1.14331 0
M  V30 14 C -4.62033 1.18399 0.77129 0
M  V30 15 N -4.79635 0.170114 -0.0825415 0
M  V30 16 C -3.7807 -0.520248 -0.616219 0
M  V30 17 N -4.00643 -1.58685 -1.51613 0
M  V30 18 H 5.84548 -0.281904 0.900331 0
M  V30 19 H 5.93544 -0.31446 -0.874677 0
M  V30 20 H 3.88827 1.46604 1.36436 0
M  V30 21 H 1.41861 1.63046 1.39775 0
M  V30 22 H 1.14725 -1.6043 -1.31398 0
M  V30 23 H 3.64179 -1.7593 -1.33839 0
M  V30 24 H -0.608257 1.74226 1.40595 0
M  V30 25 H -5.44202 1.74278 1.2033 0
M  V30 26 H -3.85664 -1.47181 -2.53035 0
M  V30 27 H -4.32841 -2.50145 -1.1503 0
M  V30 END ATOM
M  V30 BEGIN BOND
M  V30 1 1 1 2
M  V30 2 2 2 3
M  V30 3 1 3 4
M  V30 4 2 4 5
M  V30 5 1 5 6
M  V30 6 2 6 7
M  V30 7 1 5 8
M  V30 8 2 8 9
M  V30 9 1 9 10
M  V30 10 2 10 11
M  V30 11 1 11 12
M  V30 12 1 11 13
M  V30 13 2 13 14
M  V30 14 1 14 15
M  V30 15 2 15 16
M  V30 16 1 16 17
M  V30 17 1 7 2
M  V30 18 1 12 8
M  V30 19 1 16 10
M  V30 20 1 1 18
M  V30 21 1 1 19
M  V30 22 1 3 20
M  V30 23 1 4 21
M  V30 24 1 6 22
M  V30 25 1 7 23
M  V30 26 1 12 24
M  V30 27 1 14 25
M  V30 28 1 17 26
M  V30 29 1 17 27
M  V30 END BOND
M  V30 END CTAB
M  END
