
     RDKit          3D

  0  0  0  0  0  0  0  0  0  0999 V3000
M  V30 BEGIN CTAB
M  V30 COUNTS 30 31 0 0 0
M  V30 BEGIN ATOM
M  V30 1 C -4.9464 -0.5461 0.672863 0
M  V30 2 O -4.06242 -0.636157 -0.403261 0
M  V30 3 C -2.75801 -0.184944 -0.3832 0
M  V30 4 C -2.1785 0.411593 0.716321 0
M  V30 5 C -0.875392 0.853943 0.713464 0
M  V30 6 C -0.074542 0.716841 -0.414328 0
M  V30 7 C 1.3349 1.20283 -0.419064 0
M  V30 8 C 2.28676 0.236601 0.141446 0
M  V30 9 C 2.77906 -0.896129 -0.467133 0
M  V30 10 N 2.51806 -1.42143 -1.75502 0
M  V30 11 N 3.61565 -1.45061 0.450874 0
M  V30 12 N 3.64098 -0.715902 1.54882 0
M  V30 13 C 2.8398 0.346021 1.42579 0
M  V30 14 N 2.6138 1.35421 2.39959 0
M  V30 15 C -0.652485 0.120902 -1.51445 0
M  V30 16 C -1.97594 -0.327216 -1.50805 0
M  V30 17 H -5.83856 -1.17594 0.480734 0
M  V30 18 H -5.24526 0.520879 0.782893 0
M  V30 19 H -4.40905 -0.867148 1.5931 0
M  V30 20 H -2.80407 0.519813 1.60007 0
M  V30 21 H -0.480401 1.30555 1.58681 0
M  V30 22 H 1.61492 1.35299 -1.49451 0
M  V30 23 H 1.36487 2.16733 0.134759 0
M  V30 24 H 2.80868 -0.914712 -2.62048 0
M  V30 25 H 2.02022 -2.34467 -1.90385 0
M  V30 26 H 4.16955 -2.32484 0.336604 0
M  V30 27 H 3.44424 1.82222 2.85214 0
M  V30 28 H 1.68355 1.67018 2.70393 0
M  V30 29 H -0.0619912 -0.00427248 -2.42874 0
M  V30 30 H -2.37204 -0.791833 -2.41457 0
M  V30 END ATOM
M  V30 BEGIN BOND
M  V30 1 1 1 2
M  V30 2 1 2 3
M  V30 3 2 3 4
M  V30 4 1 4 5
M  V30 5 2 5 6
M  V30 6 1 6 7
M  V30 7 1 7 8
M  V30 8 2 8 9
M  V30 9 1 9 10
M  V30 10 1 9 11
M  V30 11 1 11 12
M  V30 12 2 12 13
M  V30 13 1 13 14
M  V30 14 1 6 15
M  V30 15 2 15 16
M  V30 16 1 16 3
M  V30 17 1 13 8
M  V30 18 1 1 17
M  V30 19 1 1 18
M  V30 20 1 1 19
M  V30 21 1 4 20
M  V30 22 1 5 21
M  V30 23 1 7 22
M  V30 24 1 7 23
M  V30 25 1 10 24
M  V30 26 1 10 25
M  V30 27 1 11 26
M  V30 28 1 14 27
M  V30 29 1 14 28
M  V30 30 1 15 29
M  V30 31 1 16 30
M  V30 END BOND
M  V30 END CTAB
M  END
