
     RDKit          3D

  0  0  0  0  0  0  0  0  0  0999 V3000
M  V30 BEGIN CTAB
M  V30 COUNTS 34 36 0 0 0
M  V30 BEGIN ATOM
M  V30 1 N 6.08174 -0.527709 0.34405 0
M  V30 2 C 4.86538 -1.2326 -0.0715145 0
M  V30 3 C 3.73044 -0.265955 -0.0975573 0
M  V30 4 N 3.94806 1.02743 0.215335 0
M  V30 5 C 2.94569 1.92281 0.20132 0
M  V30 6 C 1.6783 1.45189 -0.150254 0
M  V30 7 C 1.41576 0.1487 -0.473321 0
M  V30 8 C 2.49494 -0.742187 -0.443262 0
M  V30 9 C 0.0745788 -0.314376 -0.819503 0
M  V30 10 O 0.0120408 -1.06874 -1.83931 0
M  V30 11 N -1.10609 0.00667257 -0.124893 0
M  V30 12 C -1.20884 0.785317 0.996973 0
M  V30 13 C -2.5195 0.892111 1.38778 0
M  V30 14 C -3.22112 0.150094 0.465983 0
M  V30 15 C -2.35833 -0.401461 -0.473032 0
M  V30 16 C -2.85462 -1.19026 -1.49914 0
M  V30 17 C -4.21314 -1.45372 -1.62362 0
M  V30 18 C -5.05705 -0.902264 -0.688228 0
M  V30 19 C -4.58277 -0.116512 0.33768 0
M  V30 20 N -3.06108 1.61115 2.50422 0
M  V30 21 H 6.02724 0.430541 -0.0883443 0
M  V30 22 H 5.97395 -0.415962 1.39674 0
M  V30 23 H 5.06726 -1.63033 -1.10536 0
M  V30 24 H 4.6468 -2.10182 0.572076 0
M  V30 25 H 3.09482 2.97954 0.451583 0
M  V30 26 H 0.902683 2.21472 -0.161927 0
M  V30 27 H 2.27949 -1.76526 -0.699033 0
M  V30 28 H -0.383406 1.24047 1.50752 0
M  V30 29 H -2.20899 -1.63197 -2.24253 0
M  V30 30 H -4.60296 -2.07534 -2.43227 0
M  V30 31 H -6.11554 -1.1012 -0.776179 0
M  V30 32 H -5.2298 0.327676 1.08518 0
M  V30 33 H -4.08327 1.80483 2.57164 0
M  V30 34 H -2.43265 1.94374 3.25414 0
M  V30 END ATOM
M  V30 BEGIN BOND
M  V30 1 1 1 2
M  V30 2 1 2 3
M  V30 3 2 3 4
M  V30 4 1 4 5
M  V30 5 2 5 6
M  V30 6 1 6 7
M  V30 7 2 7 8
M  V30 8 1 7 9
M  V30 9 2 9 10
M  V30 10 1 9 11
M  V30 11 1 11 12
M  V30 12 2 12 13
M  V30 13 1 13 14
M  V30 14 2 14 15
M  V30 15 1 15 16
M  V30 16 2 16 17
M  V30 17 1 17 18
M  V30 18 2 18 19
M  V30 19 1 13 20
M  V30 20 1 8 3
M  V30 21 1 15 11
M  V30 22 1 19 14
M  V30 23 1 1 21
M  V30 24 1 1 22
M  V30 25 1 2 23
M  V30 26 1 2 24
M  V30 27 1 5 25
M  V30 28 1 6 26
M  V30 29 1 8 27
M  V30 30 1 12 28
M  V30 31 1 16 29
M  V30 32 1 17 30
M  V30 33 1 18 31
M  V30 34 1 19 32
M  V30 35 1 20 33
M  V30 36 1 20 34
M  V30 END BOND
M  V30 END CTAB
M  END
