
     RDKit          3D

  0  0  0  0  0  0  0  0  0  0999 V3000
M  V30 BEGIN CTAB
M  V30 COUNTS 28 28 0 0 0
M  V30 BEGIN ATOM
M  V30 1 C -1.677 -2.0991 -0.166437 0
M  V30 2 C -0.780148 -0.925521 -0.0761359 0
M  V30 3 C 0.608261 -1.04368 -0.0846218 0
M  V30 4 C 1.15289 -2.4134 -0.189395 0
M  V30 5 C 1.43464 0.0366357 -0.00146124 0
M  V30 6 C 2.91497 -0.0853874 -0.010152 0
M  V30 7 C 0.847255 1.28649 0.0941099 0
M  V30 8 N 1.70974 2.43208 0.182247 0
M  V30 9 C -0.524298 1.44701 0.105849 0
M  V30 10 N -1.12312 2.7341 0.2043 0
M  V30 11 C -1.34706 0.32672 0.0196268 0
M  V30 12 C -2.8299 0.450863 0.0285058 0
M  V30 13 H -2.59088 -1.87953 0.445658 0
M  V30 14 H -1.22764 -3.01896 0.233841 0
M  V30 15 H -2.02175 -2.24896 -1.22176 0
M  V30 16 H 0.52319 -3.06023 -0.83446 0
M  V30 17 H 2.15092 -2.38009 -0.652733 0
M  V30 18 H 1.16639 -2.89313 0.828969 0
M  V30 19 H 3.29885 -0.703187 -0.8308 0
M  V30 20 H 3.361 0.936249 -0.153797 0
M  V30 21 H 3.2554 -0.482646 0.986033 0
M  V30 22 H 1.96134 2.85683 1.1218 0
M  V30 23 H 2.06346 2.80918 -0.717067 0
M  V30 24 H -1.26865 3.09625 1.18014 0
M  V30 25 H -1.39763 3.27777 -0.6443 0
M  V30 26 H -3.11504 1.53 0.0556795 0
M  V30 27 H -3.25181 -0.0106991 0.965388 0
M  V30 28 H -3.29339 0.024336 -0.869023 0
M  V30 END ATOM
M  V30 BEGIN BOND
M  V30 1 1 1 2
M  V30 2 2 2 3
M  V30 3 1 3 4
M  V30 4 1 3 5
M  V30 5 1 5 6
M  V30 6 2 5 7
M  V30 7 1 7 8
M  V30 8 1 7 9
M  V30 9 1 9 10
M  V30 10 2 9 11
M  V30 11 1 11 12
M  V30 12 1 11 2
M  V30 13 1 1 13
M  V30 14 1 1 14
M  V30 15 1 1 15
M  V30 16 1 4 16
M  V30 17 1 4 17
M  V30 18 1 4 18
M  V30 19 1 6 19
M  V30 20 1 6 20
M  V30 21 1 6 21
M  V30 22 1 8 22
M  V30 23 1 8 23
M  V30 24 1 10 24
M  V30 25 1 10 25
M  V30 26 1 12 26
M  V30 27 1 12 27
M  V30 28 1 12 28
M  V30 END BOND
M  V30 END CTAB
M  END
