
     RDKit          3D

  0  0  0  0  0  0  0  0  0  0999 V3000
M  V30 BEGIN CTAB
M  V30 COUNTS 23 23 0 0 0
M  V30 BEGIN ATOM
M  V30 1 N 3.75799 -0.230737 -1.0035 0
M  V30 2 C 3.28431 0.141041 0.30686 0
M  V30 3 C 1.82688 0.546839 0.262003 0
M  V30 4 S 0.801343 -0.823249 -0.340843 0
M  V30 5 C -0.91176 -0.313395 -0.382109 0
M  V30 6 C -1.45515 0.277606 -1.52033 0
M  V30 7 C -2.77504 0.677411 -1.57045 0
M  V30 8 C -3.53709 0.462895 -0.432169 0
M  V30 9 C -3.02609 -0.118466 0.70525 0
M  V30 10 C -1.68831 -0.517407 0.739601 0
M  V30 11 N -1.10782 -1.11786 1.87458 0
M  V30 12 F -4.84453 0.850016 -0.458437 0
M  V30 13 H 4.5547 0.358488 -1.30886 0
M  V30 14 H 3.94631 -1.25512 -1.0932 0
M  V30 15 H 3.90409 0.982048 0.674164 0
M  V30 16 H 3.45277 -0.715799 0.992169 0
M  V30 17 H 1.53244 0.86116 1.29261 0
M  V30 18 H 1.73557 1.45159 -0.367474 0
M  V30 19 H -0.779775 0.409575 -2.3767 0
M  V30 20 H -3.19187 1.13651 -2.45864 0
M  V30 21 H -3.61076 -0.292681 1.6038 0
M  V30 22 H -1.66233 -1.89821 2.33056 0
M  V30 23 H -0.205873 -0.872244 2.29738 0
M  V30 END ATOM
M  V30 BEGIN BOND
M  V30 1 1 1 2
M  V30 2 1 2 3
M  V30 3 1 3 4
M  V30 4 1 4 5
M  V30 5 2 5 6
M  V30 6 1 6 7
M  V30 7 2 7 8
M  V30 8 1 8 9
M  V30 9 2 9 10
M  V30 10 1 10 11
M  V30 11 1 8 12
M  V30 12 1 10 5
M  V30 13 1 1 13
M  V30 14 1 1 14
M  V30 15 1 2 15
M  V30 16 1 2 16
M  V30 17 1 3 17
M  V30 18 1 3 18
M  V30 19 1 6 19
M  V30 20 1 7 20
M  V30 21 1 9 21
M  V30 22 1 11 22
M  V30 23 1 11 23
M  V30 END BOND
M  V30 END CTAB
M  END
