
     RDKit          3D

  0  0  0  0  0  0  0  0  0  0999 V3000
M  V30 BEGIN CTAB
M  V30 COUNTS 27 28 0 0 0
M  V30 BEGIN ATOM
M  V30 1 C 4.97518 -0.344102 0.42439 0
M  V30 2 O 4.15273 0.74866 0.0109855 0
M  V30 3 C 2.78524 0.553512 -0.0442754 0
M  V30 4 C 2.20789 -0.651814 0.285178 0
M  V30 5 C 0.822727 -0.795671 0.212297 0
M  V30 6 C -0.000780115 0.231054 -0.180173 0
M  V30 7 C 0.631813 1.4331 -0.504038 0
M  V30 8 C 1.98317 1.59974 -0.441335 0
M  V30 9 C -1.44375 0.168119 -0.27507 0
M  V30 10 C -2.17356 -0.362041 0.756302 0
M  V30 11 N -1.50128 -0.844092 1.90976 0
M  V30 12 N -3.53878 -0.430266 0.703699 0
M  V30 13 C -4.14455 0.0426788 -0.398823 0
M  V30 14 N -5.56365 -0.0357946 -0.437273 0
M  V30 15 N -3.44779 0.565301 -1.4181 0
M  V30 16 N -2.11364 0.624429 -1.35088 0
M  V30 17 H 4.67898 -1.2445 -0.169412 0
M  V30 18 H 6.04126 -0.127048 0.313341 0
M  V30 19 H 4.75027 -0.480535 1.51174 0
M  V30 20 H 2.80478 -1.49422 0.600707 0
M  V30 21 H 0.399649 -1.74504 0.468043 0
M  V30 22 H 0.00584282 2.26723 -0.819449 0
M  V30 23 H 2.39749 2.5754 -0.712644 0
M  V30 24 H -1.57483 -1.86465 2.13348 0
M  V30 25 H -0.951663 -0.185741 2.50964 0
M  V30 26 H -5.98485 -0.986887 -0.357402 0
M  V30 27 H -6.19789 0.783193 -0.538479 0
M  V30 END ATOM
M  V30 BEGIN BOND
M  V30 1 1 1 2
M  V30 2 1 2 3
M  V30 3 2 3 4
M  V30 4 1 4 5
M  V30 5 2 5 6
M  V30 6 1 6 7
M  V30 7 2 7 8
M  V30 8 1 6 9
M  V30 9 2 9 10
M  V30 10 1 10 11
M  V30 11 1 10 12
M  V30 12 2 12 13
M  V30 13 1 13 14
M  V30 14 1 13 15
M  V30 15 2 15 16
M  V30 16 1 8 3
M  V30 17 1 16 9
M  V30 18 1 1 17
M  V30 19 1 1 18
M  V30 20 1 1 19
M  V30 21 1 4 20
M  V30 22 1 5 21
M  V30 23 1 7 22
M  V30 24 1 8 23
M  V30 25 1 11 24
M  V30 26 1 11 25
M  V30 27 1 14 26
M  V30 28 1 14 27
M  V30 END BOND
M  V30 END CTAB
M  END
