
     RDKit          3D

  0  0  0  0  0  0  0  0  0  0999 V3000
M  V30 BEGIN CTAB
M  V30 COUNTS 56 59 0 0 0
M  V30 BEGIN ATOM
M  V30 1 N -4.09582 -4.73688 -1.24719 0
M  V30 2 C -2.95065 -3.85312 -1.11939 0
M  V30 3 N -3.02676 -2.75851 -0.358656 0
M  V30 4 C -1.99911 -1.87269 -0.205267 0
M  V30 5 C -2.07751 -0.693498 0.594161 0
M  V30 6 O -3.33807 -0.44329 1.16436 0
M  V30 7 C -4.29929 -0.37697 0.13718 0
M  V30 8 C -5.34855 0.628509 0.51737 0
M  V30 9 C -6.12472 0.560302 1.64001 0
M  V30 10 F -5.86586 -0.413402 2.54273 0
M  V30 11 C -7.15398 1.47869 1.86934 0
M  V30 12 C -7.40992 2.47127 0.960158 0
M  V30 13 C -6.6366 2.5609 -0.195516 0
M  V30 14 C -5.62674 1.65765 -0.406615 0
M  V30 15 C -0.806464 -2.14373 -0.892472 0
M  V30 16 C -0.739024 -3.26635 -1.66177 0
M  V30 17 N 0.460011 -3.52967 -2.3819 0
M  V30 18 N -1.81115 -4.11793 -1.7815 0
M  V30 19 C 0.287395 -1.20288 -0.763067 0
M  V30 20 C 0.322698 0.0430285 -1.36337 0
M  V30 21 C 1.40176 0.903806 -1.25784 0
M  V30 22 C 2.52145 0.558478 -0.532571 0
M  V30 23 N 3.70335 1.34328 -0.445897 0
M  V30 24 C 4.24735 1.76241 0.801561 0
M  V30 25 C 5.72949 1.95695 0.581036 0
M  V30 26 C 6.23487 2.9257 -0.237668 0
M  V30 27 C 7.62221 3.01265 -0.435126 0
M  V30 28 C 8.51101 2.15959 0.161647 0
M  V30 29 Cl 10.2382 2.26222 -0.124148 0
M  V30 30 C 8.00469 1.17346 0.994461 0
M  V30 31 C 6.62895 1.09729 1.18314 0
M  V30 32 C 2.50211 -0.695922 0.082829 0
M  V30 33 C 1.42094 -1.52557 -0.0369163 0
M  V30 34 H -5.00771 -4.34756 -1.56703 0
M  V30 35 H -4.03679 -5.74889 -1.0421 0
M  V30 36 H -1.38937 -0.674441 1.47799 0
M  V30 37 H -1.85639 0.238955 0.0243975 0
M  V30 38 H -3.76461 0.0373939 -0.790609 0
M  V30 39 H -4.78105 -1.29933 -0.131501 0
M  V30 40 H -7.7285 1.37635 2.80488 0
M  V30 41 H -8.19223 3.18757 1.13361 0
M  V30 42 H -6.8811 3.34959 -0.87767 0
M  V30 43 H -5.02752 1.69232 -1.29492 0
M  V30 44 H 0.976654 -4.40985 -2.4052 0
M  V30 45 H 0.871793 -2.72694 -2.95468 0
M  V30 46 H -0.546789 0.35254 -1.93889 0
M  V30 47 H 1.40264 1.88016 -1.73358 0
M  V30 48 H 4.16026 1.61579 -1.35362 0
M  V30 49 H 4.11397 0.988537 1.57669 0
M  V30 50 H 3.8126 2.75058 1.12351 0
M  V30 51 H 5.55447 3.63241 -0.737322 0
M  V30 52 H 8.0066 3.80306 -1.09153 0
M  V30 53 H 8.70065 0.50255 1.46604 0
M  V30 54 H 6.20385 0.344501 1.82378 0
M  V30 55 H 3.4189 -0.980113 0.652917 0
M  V30 56 H 1.46339 -2.49096 0.461947 0
M  V30 END ATOM
M  V30 BEGIN BOND
M  V30 1 1 1 2
M  V30 2 2 2 3
M  V30 3 1 3 4
M  V30 4 1 4 5
M  V30 5 1 5 6
M  V30 6 1 6 7
M  V30 7 1 7 8
M  V30 8 2 8 9
M  V30 9 1 9 10
M  V30 10 1 9 11
M  V30 11 2 11 12
M  V30 12 1 12 13
M  V30 13 2 13 14
M  V30 14 2 4 15
M  V30 15 1 15 16
M  V30 16 1 16 17
M  V30 17 2 16 18
M  V30 18 1 15 19
M  V30 19 2 19 20
M  V30 20 1 20 21
M  V30 21 2 21 22
M  V30 22 1 22 23
M  V30 23 1 23 24
M  V30 24 1 24 25
M  V30 25 2 25 26
M  V30 26 1 26 27
M  V30 27 2 27 28
M  V30 28 1 28 29
M  V30 29 1 28 30
M  V30 30 2 30 31
M  V30 31 1 22 32
M  V30 32 2 32 33
M  V30 33 1 18 2
M  V30 34 1 33 19
M  V30 35 1 14 8
M  V30 36 1 31 25
M  V30 37 1 1 34
M  V30 38 1 1 35
M  V30 39 1 5 36
M  V30 40 1 5 37
M  V30 41 1 7 38
M  V30 42 1 7 39
M  V30 43 1 11 40
M  V30 44 1 12 41
M  V30 45 1 13 42
M  V30 46 1 14 43
M  V30 47 1 17 44
M  V30 48 1 17 45
M  V30 49 1 20 46
M  V30 50 1 21 47
M  V30 51 1 23 48
M  V30 52 1 24 49
M  V30 53 1 24 50
M  V30 54 1 26 51
M  V30 55 1 27 52
M  V30 56 1 30 53
M  V30 57 1 31 54
M  V30 58 1 32 55
M  V30 59 1 33 56
M  V30 END BOND
M  V30 END CTAB
M  END
