
     RDKit          3D

  0  0  0  0  0  0  0  0  0  0999 V3000
M  V30 BEGIN CTAB
M  V30 COUNTS 23 24 0 0 0
M  V30 BEGIN ATOM
M  V30 1 N 4.61624 0.509939 -0.724546 0
M  V30 2 C 3.20531 0.395636 -0.572376 0
M  V30 3 N 2.37189 1.33432 -1.07021 0
M  V30 4 N 1.08886 1.20322 -0.915967 0
M  V30 5 C 0.479921 0.149538 -0.263657 0
M  V30 6 C 1.30206 -0.79039 0.235585 0
M  V30 7 N 0.859458 -1.95179 0.940762 0
M  V30 8 N 2.65752 -0.638813 0.0649999 0
M  V30 9 C -0.948609 0.133322 -0.167698 0
M  V30 10 C -1.62906 1.21988 -0.761046 0
M  V30 11 Cl -0.754551 2.51662 -1.57124 0
M  V30 12 C -2.99647 1.32906 -0.74204 0
M  V30 13 C -3.75301 0.373698 -0.138331 0
M  V30 14 C -3.10086 -0.69279 0.445009 0
M  V30 15 C -1.70307 -0.815491 0.432061 0
M  V30 16 H 5.15499 1.38696 -0.602389 0
M  V30 17 H 5.1452 -0.346194 -0.976053 0
M  V30 18 H 0.745639 -1.90469 1.97558 0
M  V30 19 H 0.645098 -2.85966 0.483975 0
M  V30 20 H -3.4688 2.17159 -1.20547 0
M  V30 21 H -4.8364 0.415638 -0.0972526 0
M  V30 22 H -3.72315 -1.44972 0.924719 0
M  V30 23 H -1.35822 -1.68989 0.921809 0
M  V30 END ATOM
M  V30 BEGIN BOND
M  V30 1 1 1 2
M  V30 2 2 2 3
M  V30 3 1 3 4
M  V30 4 2 4 5
M  V30 5 1 5 6
M  V30 6 1 6 7
M  V30 7 2 6 8
M  V30 8 1 5 9
M  V30 9 2 9 10
M  V30 10 1 10 11
M  V30 11 1 10 12
M  V30 12 2 12 13
M  V30 13 1 13 14
M  V30 14 2 14 15
M  V30 15 1 8 2
M  V30 16 1 15 9
M  V30 17 1 1 16
M  V30 18 1 1 17
M  V30 19 1 7 18
M  V30 20 1 7 19
M  V30 21 1 12 20
M  V30 22 1 13 21
M  V30 23 1 14 22
M  V30 24 1 15 23
M  V30 END BOND
M  V30 END CTAB
M  END
