
     RDKit          3D

  0  0  0  0  0  0  0  0  0  0999 V3000
M  V30 BEGIN CTAB
M  V30 COUNTS 27 27 0 0 0
M  V30 BEGIN ATOM
M  V30 1 N 3.2895 -1.12285 1.11316 0
M  V30 2 C 2.23305 -0.312081 0.552078 0
M  V30 3 C 1.33349 -1.21699 -0.255005 0
M  V30 4 C 0.21533 -0.500277 -0.885395 0
M  V30 5 O 0.383374 -0.146661 -2.10342 0
M  V30 6 C -1.02803 -0.181205 -0.22361 0
M  V30 7 C -1.24354 -0.53841 1.08757 0
M  V30 8 C -2.45847 -0.200099 1.68595 0
M  V30 9 Cl -2.70991 -0.668862 3.36957 0
M  V30 10 C -3.44662 0.482166 0.997956 0
M  V30 11 C -3.2182 0.833235 -0.313233 0
M  V30 12 C -2.01704 0.496106 -0.898096 0
M  V30 13 N -1.76413 0.849095 -2.25249 0
M  V30 14 C 2.82381 0.794825 -0.217772 0
M  V30 15 O 2.13095 1.76641 -0.888158 0
M  V30 16 O 4.08773 0.869618 -0.275793 0
M  V30 17 H 3.20512 -2.14096 0.842011 0
M  V30 18 H 3.29434 -1.08767 2.13772 0
M  V30 19 H 1.69147 0.155468 1.40406 0
M  V30 20 H 1.97526 -1.69798 -1.02673 0
M  V30 21 H 0.990307 -2.03282 0.419054 0
M  V30 22 H -0.464724 -1.06951 1.61329 0
M  V30 23 H -4.36115 0.710958 1.52489 0
M  V30 24 H -3.99147 1.36524 -0.846262 0
M  V30 25 H -1.4502 1.79514 -2.55542 0
M  V30 26 H -1.91115 0.0881487 -2.97322 0
M  V30 27 H 2.41092 2.70996 -1.0327 0
M  V30 END ATOM
M  V30 BEGIN BOND
M  V30 1 1 1 2
M  V30 2 1 2 3
M  V30 3 1 3 4
M  V30 4 2 4 5
M  V30 5 1 4 6
M  V30 6 2 6 7
M  V30 7 1 7 8
M  V30 8 1 8 9
M  V30 9 2 8 10
M  V30 10 1 10 11
M  V30 11 2 11 12
M  V30 12 1 12 13
M  V30 13 1 2 14
M  V30 14 1 14 15
M  V30 15 2 14 16
M  V30 16 1 12 6
M  V30 17 1 1 17
M  V30 18 1 1 18
M  V30 19 1 2 19
M  V30 20 1 3 20
M  V30 21 1 3 21
M  V30 22 1 7 22
M  V30 23 1 10 23
M  V30 24 1 11 24
M  V30 25 1 13 25
M  V30 26 1 13 26
M  V30 27 1 15 27
M  V30 END BOND
M  V30 END CTAB
M  END
