
     RDKit          3D

  0  0  0  0  0  0  0  0  0  0999 V3000
M  V30 BEGIN CTAB
M  V30 COUNTS 29 29 0 0 0
M  V30 BEGIN ATOM
M  V30 1 N 3.33447 -1.23983 0.667524 0
M  V30 2 C 2.45397 -0.095869 0.402813 0
M  V30 3 C 3.2203 0.680202 -0.685286 0
M  V30 4 F 4.46157 1.04651 -0.170406 0
M  V30 5 F 2.58053 1.80295 -1.08834 0
M  V30 6 F 3.43014 -0.129091 -1.78399 0
M  V30 7 C 1.1578 -0.60053 -0.0835807 0
M  V30 8 O 1.15146 -1.84059 -0.430903 0
M  V30 9 N -0.0370383 0.120315 -0.198464 0
M  V30 10 C -0.258525 1.50441 0.133952 0
M  V30 11 C -1.66154 1.52775 0.728434 0
M  V30 12 C -2.3377 0.293997 0.222409 0
M  V30 13 C -1.30591 -0.36322 -0.66328 0
M  V30 14 C -1.47117 -1.86426 -0.529122 0
M  V30 15 N -3.51351 0.716679 -0.545853 0
M  V30 16 H 2.92959 -1.87831 1.37785 0
M  V30 17 H 3.49684 -1.68308 -0.259079 0
M  V30 18 H 2.39566 0.499608 1.33194 0
M  V30 19 H -0.279149 2.07116 -0.8462 0
M  V30 20 H 0.416425 1.92433 0.875063 0
M  V30 21 H -2.13329 2.47094 0.417751 0
M  V30 22 H -1.63409 1.48652 1.83619 0
M  V30 23 H -2.62718 -0.411546 1.02802 0
M  V30 24 H -1.50359 -0.0402813 -1.72673 0
M  V30 25 H -1.10112 -2.20082 0.447503 0
M  V30 26 H -2.56856 -2.12107 -0.565636 0
M  V30 27 H -1.03399 -2.36235 -1.40376 0
M  V30 28 H -4.30354 0.0851635 -0.265627 0
M  V30 29 H -3.25884 0.600315 -1.54823 0
M  V30 END ATOM
M  V30 BEGIN BOND
M  V30 1 1 1 2
M  V30 2 1 2 3
M  V30 3 1 3 4
M  V30 4 1 3 5
M  V30 5 1 3 6
M  V30 6 1 2 7
M  V30 7 2 7 8
M  V30 8 1 7 9
M  V30 9 1 9 10
M  V30 10 1 10 11
M  V30 11 1 11 12
M  V30 12 1 12 13
M  V30 13 1 13 14
M  V30 14 1 12 15
M  V30 15 1 13 9
M  V30 16 1 1 16
M  V30 17 1 1 17
M  V30 18 1 2 18
M  V30 19 1 10 19
M  V30 20 1 10 20
M  V30 21 1 11 21
M  V30 22 1 11 22
M  V30 23 1 12 23
M  V30 24 1 13 24
M  V30 25 1 14 25
M  V30 26 1 14 26
M  V30 27 1 14 27
M  V30 28 1 15 28
M  V30 29 1 15 29
M  V30 END BOND
M  V30 END CTAB
M  END
