
     RDKit          3D

  0  0  0  0  0  0  0  0  0  0999 V3000
M  V30 BEGIN CTAB
M  V30 COUNTS 33 33 0 0 0
M  V30 BEGIN ATOM
M  V30 1 N 5.42209 1.46006 -0.273662 0
M  V30 2 C 4.8649 0.116591 -0.136007 0
M  V30 3 C 3.35614 0.221708 -0.365942 0
M  V30 4 C 2.71317 -1.12716 -0.239133 0
M  V30 5 N 1.29607 -1.05747 -0.465924 0
M  V30 6 C 0.661635 -0.349795 0.599133 0
M  V30 7 C -0.821247 -0.272445 0.410907 0
M  V30 8 C -1.39684 0.761467 -0.291512 0
M  V30 9 C -2.78354 0.815803 -0.456326 0
M  V30 10 C -3.58839 -0.14382 0.0694018 0
M  V30 11 C -5.07212 -0.162976 -0.0590631 0
M  V30 12 N -5.55861 0.960853 -0.829779 0
M  V30 13 C -3.02385 -1.18918 0.777817 0
M  V30 14 C -1.65433 -1.23245 0.934106 0
M  V30 15 H 5.24071 1.76359 -1.25559 0
M  V30 16 H 4.96501 2.13527 0.374312 0
M  V30 17 H 5.34028 -0.523914 -0.890622 0
M  V30 18 H 5.04304 -0.3143 0.860801 0
M  V30 19 H 2.98335 0.920018 0.419082 0
M  V30 20 H 3.14883 0.699562 -1.34075 0
M  V30 21 H 3.19532 -1.89371 -0.877774 0
M  V30 22 H 2.84437 -1.45826 0.834466 0
M  V30 23 H 1.12891 -0.557659 -1.37779 0
M  V30 24 H 1.0255 0.713299 0.68593 0
M  V30 25 H 0.877383 -0.91337 1.55201 0
M  V30 26 H -0.797517 1.54827 -0.728137 0
M  V30 27 H -3.22582 1.63889 -1.01453 0
M  V30 28 H -5.51852 -0.0519304 0.973882 0
M  V30 29 H -5.42983 -1.139 -0.429124 0
M  V30 30 H -5.18809 1.82399 -0.373296 0
M  V30 31 H -5.20879 0.832658 -1.81196 0
M  V30 32 H -3.62942 -1.97907 1.21575 0
M  V30 33 H -1.20977 -2.0455 1.48551 0
M  V30 END ATOM
M  V30 BEGIN BOND
M  V30 1 1 1 2
M  V30 2 1 2 3
M  V30 3 1 3 4
M  V30 4 1 4 5
M  V30 5 1 5 6
M  V30 6 1 6 7
M  V30 7 2 7 8
M  V30 8 1 8 9
M  V30 9 2 9 10
M  V30 10 1 10 11
M  V30 11 1 11 12
M  V30 12 1 10 13
M  V30 13 2 13 14
M  V30 14 1 14 7
M  V30 15 1 1 15
M  V30 16 1 1 16
M  V30 17 1 2 17
M  V30 18 1 2 18
M  V30 19 1 3 19
M  V30 20 1 3 20
M  V30 21 1 4 21
M  V30 22 1 4 22
M  V30 23 1 5 23
M  V30 24 1 6 24
M  V30 25 1 6 25
M  V30 26 1 8 26
M  V30 27 1 9 27
M  V30 28 1 11 28
M  V30 29 1 11 29
M  V30 30 1 12 30
M  V30 31 1 12 31
M  V30 32 1 13 32
M  V30 33 1 14 33
M  V30 END BOND
M  V30 END CTAB
M  END
