
     RDKit          3D

  0  0  0  0  0  0  0  0  0  0999 V3000
M  V30 BEGIN CTAB
M  V30 COUNTS 30 29 0 0 0
M  V30 BEGIN ATOM
M  V30 1 N -1.20614 1.61593 0.511372 0
M  V30 2 C -0.65125 0.606593 -0.372805 0
M  V30 3 C 0.818612 0.459536 -0.206956 0
M  V30 4 C 1.27609 0.0565348 1.16715 0
M  V30 5 C 2.77791 -0.0512443 1.21723 0
M  V30 6 O 3.54384 0.897828 0.881391 0
M  V30 7 O 3.3977 -1.2394 1.64877 0
M  V30 8 N 1.49748 1.72456 -0.521754 0
M  V30 9 C 1.41119 -0.53759 -1.20935 0
M  V30 10 C -1.44951 -0.646443 -0.424649 0
M  V30 11 C -1.62757 -1.37338 0.86311 0
M  V30 12 C -2.83949 -0.268995 -0.952376 0
M  V30 13 H -1.01261 2.59042 0.143499 0
M  V30 14 H -2.23957 1.55885 0.607311 0
M  V30 15 H -0.772673 1.06342 -1.4078 0
M  V30 16 H 0.872379 -0.903475 1.50735 0
M  V30 17 H 1.0237 0.875861 1.88959 0
M  V30 18 H 3.72748 -1.93301 0.966458 0
M  V30 19 H 1.0162 2.45244 0.0132912 0
M  V30 20 H 1.33035 1.90127 -1.53773 0
M  V30 21 H 1.05082 -0.303044 -2.23918 0
M  V30 22 H 2.50125 -0.337588 -1.21081 0
M  V30 23 H 1.24414 -1.56696 -0.904504 0
M  V30 24 H -0.993793 -1.34157 -1.14949 0
M  V30 25 H -2.68857 -1.73663 0.912601 0
M  V30 26 H -0.98694 -2.29684 0.947881 0
M  V30 27 H -1.4897 -0.747371 1.77487 0
M  V30 28 H -3.19402 -1.05501 -1.66024 0
M  V30 29 H -2.81064 0.663813 -1.53772 0
M  V30 30 H -3.52666 -0.128508 -0.104439 0
M  V30 END ATOM
M  V30 BEGIN BOND
M  V30 1 1 1 2
M  V30 2 1 2 3
M  V30 3 1 3 4
M  V30 4 1 4 5
M  V30 5 2 5 6
M  V30 6 1 5 7
M  V30 7 1 3 8
M  V30 8 1 3 9
M  V30 9 1 2 10
M  V30 10 1 10 11
M  V30 11 1 10 12
M  V30 12 1 1 13
M  V30 13 1 1 14
M  V30 14 1 2 15
M  V30 15 1 4 16
M  V30 16 1 4 17
M  V30 17 1 7 18
M  V30 18 1 8 19
M  V30 19 1 8 20
M  V30 20 1 9 21
M  V30 21 1 9 22
M  V30 22 1 9 23
M  V30 23 1 10 24
M  V30 24 1 11 25
M  V30 25 1 11 26
M  V30 26 1 11 27
M  V30 27 1 12 28
M  V30 28 1 12 29
M  V30 29 1 12 30
M  V30 END BOND
M  V30 END CTAB
M  END
