
     RDKit          3D

  0  0  0  0  0  0  0  0  0  0999 V3000
M  V30 BEGIN CTAB
M  V30 COUNTS 28 29 0 0 0
M  V30 BEGIN ATOM
M  V30 1 N 2.62387 0.0732835 -1.04349 0
M  V30 2 C 2.12727 0.426179 0.278245 0
M  V30 3 C 0.634565 0.318099 0.380813 0
M  V30 4 N 0.249629 0.685983 1.71863 0
M  V30 5 C 0.0488675 1.37698 -0.554965 0
M  V30 6 C -1.4625 1.24767 -0.629108 0
M  V30 7 N -1.83075 -0.118143 -0.917988 0
M  V30 8 C -0.687307 -0.918024 -1.33091 0
M  V30 9 C 0.0818233 -1.00475 -0.00788575 0
M  V30 10 C -1.06882 -1.42207 0.91801 0
M  V30 11 C -2.29414 -0.826196 0.272233 0
M  V30 12 H 2.75402 -0.97971 -1.10245 0
M  V30 13 H 3.62283 0.440987 -1.06685 0
M  V30 14 H 2.47114 1.46274 0.468391 0
M  V30 15 H 2.66257 -0.225199 0.999497 0
M  V30 16 H 0.415487 1.70747 1.83618 0
M  V30 17 H 0.6855 0.102677 2.45677 0
M  V30 18 H 0.314585 2.35897 -0.0804591 0
M  V30 19 H 0.530883 1.37673 -1.53953 0
M  V30 20 H -1.83928 1.56882 0.381832 0
M  V30 21 H -1.80808 1.9693 -1.38984 0
M  V30 22 H -1.08987 -1.9299 -1.56143 0
M  V30 23 H -0.101846 -0.470612 -2.12948 0
M  V30 24 H 0.814179 -1.81943 -0.0632888 0
M  V30 25 H -1.13467 -2.52106 0.874222 0
M  V30 26 H -0.910916 -1.10593 1.94181 0
M  V30 27 H -2.99283 -1.63193 -0.0737364 0
M  V30 28 H -2.8162 -0.142934 0.964765 0
M  V30 END ATOM
M  V30 BEGIN BOND
M  V30 1 1 1 2
M  V30 2 1 2 3
M  V30 3 1 3 4
M  V30 4 1 3 5
M  V30 5 1 5 6
M  V30 6 1 6 7
M  V30 7 1 7 8
M  V30 8 1 8 9
M  V30 9 1 9 10
M  V30 10 1 10 11
M  V30 11 1 9 3
M  V30 12 1 11 7
M  V30 13 1 1 12
M  V30 14 1 1 13
M  V30 15 1 2 14
M  V30 16 1 2 15
M  V30 17 1 4 16
M  V30 18 1 4 17
M  V30 19 1 5 18
M  V30 20 1 5 19
M  V30 21 1 6 20
M  V30 22 1 6 21
M  V30 23 1 8 22
M  V30 24 1 8 23
M  V30 25 1 9 24
M  V30 26 1 10 25
M  V30 27 1 10 26
M  V30 28 1 11 27
M  V30 29 1 11 28
M  V30 END BOND
M  V30 END CTAB
M  END
