
     RDKit          3D

  0  0  0  0  0  0  0  0  0  0999 V3000
M  V30 BEGIN CTAB
M  V30 COUNTS 25 25 0 0 0
M  V30 BEGIN ATOM
M  V30 1 F 3.68467 -0.675816 -1.37516 0
M  V30 2 C 2.54817 0.122529 -1.2018 0
M  V30 3 C 2.27997 0.163084 0.267338 0
M  V30 4 N 1.14131 0.936508 0.666048 0
M  V30 5 C -0.21904 0.626157 0.388471 0
M  V30 6 C -0.636262 -0.501637 -0.271266 0
M  V30 7 C -1.98808 -0.743897 -0.525363 0
M  V30 8 N -2.40763 -1.91561 -1.21007 0
M  V30 9 N -2.8558 0.186943 -0.0882341 0
M  V30 10 C -2.48813 1.30126 0.560146 0
M  V30 11 N -1.18068 1.48319 0.776714 0
M  V30 12 N -3.44626 2.27 1.01045 0
M  V30 13 C 2.28174 -1.22616 0.820384 0
M  V30 14 H 1.7626 -0.274408 -1.83681 0
M  V30 15 H 2.86485 1.1398 -1.55501 0
M  V30 16 H 3.18277 0.696326 0.71074 0
M  V30 17 H 1.28082 1.84171 1.22855 0
M  V30 18 H 0.0568453 -1.23426 -0.603491 0
M  V30 19 H -3.33753 -2.31449 -0.9955 0
M  V30 20 H -1.8212 -2.38989 -1.91734 0
M  V30 21 H -3.82954 2.93769 0.316549 0
M  V30 22 H -3.73406 2.28986 1.9915 0
M  V30 23 H 1.38435 -1.35751 1.47304 0
M  V30 24 H 3.21457 -1.39438 1.38752 0
M  V30 25 H 2.26154 -1.96701 -0.0174188 0
M  V30 END ATOM
M  V30 BEGIN BOND
M  V30 1 1 1 2
M  V30 2 1 2 3
M  V30 3 1 3 4
M  V30 4 1 4 5
M  V30 5 2 5 6
M  V30 6 1 6 7
M  V30 7 1 7 8
M  V30 8 2 7 9
M  V30 9 1 9 10
M  V30 10 2 10 11
M  V30 11 1 10 12
M  V30 12 1 3 13
M  V30 13 1 11 5
M  V30 14 1 2 14
M  V30 15 1 2 15
M  V30 16 1 3 16
M  V30 17 1 4 17
M  V30 18 1 6 18
M  V30 19 1 8 19
M  V30 20 1 8 20
M  V30 21 1 12 21
M  V30 22 1 12 22
M  V30 23 1 13 23
M  V30 24 1 13 24
M  V30 25 1 13 25
M  V30 END BOND
M  V30 END CTAB
M  END
