
     RDKit          3D

  0  0  0  0  0  0  0  0  0  0999 V3000
M  V30 BEGIN CTAB
M  V30 COUNTS 39 39 0 0 0
M  V30 BEGIN ATOM
M  V30 1 C 5.41111 -0.805631 -1.35141 0
M  V30 2 C 4.76795 0.119135 -0.323731 0
M  V30 3 C 3.35353 -0.31439 -0.143528 0
M  V30 4 C 2.5832 0.501406 0.841355 0
M  V30 5 C 1.17946 -0.107792 0.869333 0
M  V30 6 O 1.10075 -1.31741 1.17652 0
M  V30 7 N 0.0648255 0.678374 0.561375 0
M  V30 8 C -1.29763 0.298615 0.533539 0
M  V30 9 C -1.68963 -0.972715 0.827718 0
M  V30 10 C -3.05447 -1.28435 0.781937 0
M  V30 11 C -4.00105 -0.347918 0.450473 0
M  V30 12 C -3.59199 0.948257 0.151421 0
M  V30 13 C -2.26571 1.26576 0.19209 0
M  V30 14 O -1.82676 2.53324 -0.0967289 0
M  V30 15 C -2.63787 3.60946 -0.45195 0
M  V30 16 S -3.52613 -2.93965 1.16857 0
M  V30 17 O -2.59065 -3.53475 2.15086 0
M  V30 18 O -4.93946 -2.94224 1.7225 0
M  V30 19 N -3.52814 -3.861 -0.269781 0
M  V30 20 N 2.51668 1.88987 0.474438 0
M  V30 21 H 5.15624 -0.467877 -2.36291 0
M  V30 22 H 6.5012 -0.91128 -1.18217 0
M  V30 23 H 4.9581 -1.80724 -1.21097 0
M  V30 24 H 4.86979 1.17692 -0.611919 0
M  V30 25 H 5.34036 -0.0221077 0.622308 0
M  V30 26 H 2.83804 -0.25885 -1.14471 0
M  V30 27 H 3.33881 -1.36538 0.195168 0
M  V30 28 H 3.03774 0.43113 1.84142 0
M  V30 29 H 0.288608 1.70733 0.314631 0
M  V30 30 H -1.02409 -1.79027 1.10217 0
M  V30 31 H -5.05154 -0.587495 0.415166 0
M  V30 32 H -4.30096 1.72057 -0.115281 0
M  V30 33 H -2.91614 3.63849 -1.52095 0
M  V30 34 H -3.56085 3.6088 0.181634 0
M  V30 35 H -2.12516 4.58073 -0.204389 0
M  V30 36 H -3.00396 -3.36674 -1.01499 0
M  V30 37 H -4.47025 -4.1354 -0.579005 0
M  V30 38 H 2.123 1.98173 -0.480799 0
M  V30 39 H 1.97306 2.45068 1.13898 0
M  V30 END ATOM
M  V30 BEGIN BOND
M  V30 1 1 1 2
M  V30 2 1 2 3
M  V30 3 1 3 4
M  V30 4 1 4 5
M  V30 5 2 5 6
M  V30 6 1 5 7
M  V30 7 1 7 8
M  V30 8 2 8 9
M  V30 9 1 9 10
M  V30 10 2 10 11
M  V30 11 1 11 12
M  V30 12 2 12 13
M  V30 13 1 13 14
M  V30 14 1 14 15
M  V30 15 1 10 16
M  V30 16 2 16 17
M  V30 17 2 16 18
M  V30 18 1 16 19
M  V30 19 1 4 20
M  V30 20 1 13 8
M  V30 21 1 1 21
M  V30 22 1 1 22
M  V30 23 1 1 23
M  V30 24 1 2 24
M  V30 25 1 2 25
M  V30 26 1 3 26
M  V30 27 1 3 27
M  V30 28 1 4 28
M  V30 29 1 7 29
M  V30 30 1 9 30
M  V30 31 1 11 31
M  V30 32 1 12 32
M  V30 33 1 15 33
M  V30 34 1 15 34
M  V30 35 1 15 35
M  V30 36 1 19 36
M  V30 37 1 19 37
M  V30 38 1 20 38
M  V30 39 1 20 39
M  V30 END BOND
M  V30 END CTAB
M  END
