
     RDKit          3D

  0  0  0  0  0  0  0  0  0  0999 V3000
M  V30 BEGIN CTAB
M  V30 COUNTS 82 85 0 0 0
M  V30 BEGIN ATOM
M  V30 1 C 0.565296 -2.41769 0.23913 0
M  V30 2 C 0.796849 -1.26746 1.17678 0 CFG=2
M  V30 3 C -0.51513 -0.447301 1.12465 0
M  V30 4 N -0.463945 0.437507 -0.0333274 0
M  V30 5 C 0.659252 1.34834 -0.0632603 0 CFG=1
M  V30 6 C 0.258346 2.80318 0.0478132 0
M  V30 7 C -0.481204 3.13343 1.30943 0
M  V30 8 C -0.826459 4.59804 1.29956 0
M  V30 9 N -1.67421 4.95023 0.179344 0
M  V30 10 C -2.11837 6.27658 -0.0422844 0
M  V30 11 N -2.00989 7.20433 1.02693 0
M  V30 12 N -2.59809 6.60423 -1.17795 0
M  V30 13 C 1.69827 0.99386 0.988125 0
M  V30 14 N 1.93542 -0.448713 0.86658 0
M  V30 15 C 3.20662 -0.884077 0.484674 0
M  V30 16 O 4.09205 0.0187462 0.259925 0
M  V30 17 C 3.64062 -2.28724 0.3134 0
M  V30 18 C 5.09732 -2.36805 -0.0459486 0
M  V30 19 C 6.05988 -2.45845 0.936653 0
M  V30 20 C 7.41675 -2.53658 0.632635 0
M  V30 21 C 8.37606 -2.62746 1.61855 0
M  V30 22 C 9.73648 -2.70726 1.35033 0
M  V30 23 C 10.1556 -2.69561 0.0348082 0
M  V30 24 C 9.20116 -2.60483 -0.960506 0
M  V30 25 C 7.8452 -2.52578 -0.675897 0
M  V30 26 C 6.8907 -2.43562 -1.6638 0
M  V30 27 C 5.53206 -2.35763 -1.35281 0
M  V30 28 C -1.41087 0.457695 -1.07277 0
M  V30 29 O -1.24412 1.21271 -2.05183 0
M  V30 30 C -2.64749 -0.40308 -1.0725 0 CFG=2
M  V30 31 N -3.22966 -0.46985 -2.36772 0
M  V30 32 C -3.6086 0.133393 -0.0686895 0
M  V30 33 C -4.86266 -0.604345 0.054058 0
M  V30 34 C -4.97187 -1.63719 0.999697 0
M  V30 35 C -6.06615 -2.41173 1.16979 0
M  V30 36 C -7.15848 -2.19085 0.373418 0
M  V30 37 C -8.36233 -3.04407 0.56091 0
M  V30 38 C -7.09719 -1.19089 -0.564446 0
M  V30 39 C -5.95076 -0.382969 -0.737702 0
M  V30 40 C -6.06659 0.701109 -1.76918 0
M  V30 41 H -0.528485 -2.70855 0.258262 0
M  V30 42 H 0.765227 -2.17936 -0.808368 0
M  V30 43 H 1.07799 -3.31704 0.633719 0
M  V30 44 H 0.906668 -1.62874 2.21911 0
M  V30 45 H -1.32082 -1.1833 1.07583 0
M  V30 46 H -0.551304 0.160659 2.0449 0
M  V30 47 H 1.14181 1.2318 -1.06118 0
M  V30 48 H 1.20042 3.38674 -0.0530415 0
M  V30 49 H -0.34631 3.06089 -0.826272 0
M  V30 50 H 0.0574566 2.83263 2.22486 0
M  V30 51 H -1.46394 2.57908 1.35443 0
M  V30 52 H -1.37545 4.87001 2.24587 0
M  V30 53 H 0.0857923 5.24033 1.20661 0
M  V30 54 H -1.97491 4.19927 -0.492079 0
M  V30 55 H -1.106 7.29413 1.52843 0
M  V30 56 H -2.81512 7.80392 1.32789 0
M  V30 57 H -2.92523 7.57843 -1.34376 0
M  V30 58 H 2.61486 1.57616 0.779914 0
M  V30 59 H 1.27702 1.2418 1.97461 0
M  V30 60 H 3.41897 -2.94378 1.17502 0
M  V30 61 H 3.06689 -2.74339 -0.549592 0
M  V30 62 H 5.74512 -2.46857 1.96727 0
M  V30 63 H 8.03286 -2.63541 2.64503 0
M  V30 64 H 10.4781 -2.77864 2.15313 0
M  V30 65 H 11.208 -2.75661 -0.201189 0
M  V30 66 H 9.54025 -2.59595 -2.00234 0
M  V30 67 H 7.2276 -2.4272 -2.69042 0
M  V30 68 H 4.78301 -2.28591 -2.15474 0
M  V30 69 H -2.29717 -1.40049 -0.693644 0
M  V30 70 H -3.06502 -1.3635 -2.87527 0
M  V30 71 H -3.00199 0.365992 -2.95019 0
M  V30 72 H -3.11633 0.283388 0.9437 0
M  V30 73 H -3.85333 1.19644 -0.365552 0
M  V30 74 H -4.10888 -1.8085 1.62588 0
M  V30 75 H -6.11317 -3.19473 1.90595 0
M  V30 76 H -9.10975 -2.90292 -0.23272 0
M  V30 77 H -8.82504 -2.87991 1.56436 0
M  V30 78 H -8.06682 -4.11235 0.539042 0
M  V30 79 H -7.94478 -0.993428 -1.20776 0
M  V30 80 H -5.35609 1.4969 -1.54006 0
M  V30 81 H -7.10662 1.118 -1.63034 0
M  V30 82 H -6.05534 0.323064 -2.79888 0
M  V30 END ATOM
M  V30 BEGIN BOND
M  V30 1 1 1 2
M  V30 2 1 2 3
M  V30 3 1 3 4
M  V30 4 1 4 5
M  V30 5 1 5 6
M  V30 6 1 6 7
M  V30 7 1 7 8
M  V30 8 1 8 9
M  V30 9 1 9 10
M  V30 10 1 10 11
M  V30 11 2 10 12 CFG=2
M  V30 12 1 5 13
M  V30 13 1 13 14
M  V30 14 1 14 15
M  V30 15 2 15 16
M  V30 16 1 15 17
M  V30 17 1 17 18
M  V30 18 2 18 19
M  V30 19 1 19 20
M  V30 20 2 20 21
M  V30 21 1 21 22
M  V30 22 2 22 23
M  V30 23 1 23 24
M  V30 24 2 24 25
M  V30 25 1 25 26
M  V30 26 2 26 27
M  V30 27 1 4 28
M  V30 28 2 28 29
M  V30 29 1 28 30
M  V30 30 1 30 31
M  V30 31 1 30 32
M  V30 32 1 32 33
M  V30 33 2 33 34
M  V30 34 1 34 35
M  V30 35 2 35 36
M  V30 36 1 36 37
M  V30 37 1 36 38
M  V30 38 2 38 39
M  V30 39 1 39 40
M  V30 40 1 14 2
M  V30 41 1 27 18
M  V30 42 1 39 33
M  V30 43 1 25 20
M  V30 44 1 1 41
M  V30 45 1 1 42
M  V30 46 1 1 43
M  V30 47 1 2 44 CFG=1
M  V30 48 1 3 45
M  V30 49 1 3 46
M  V30 50 1 5 47 CFG=3
M  V30 51 1 6 48
M  V30 52 1 6 49
M  V30 53 1 7 50
M  V30 54 1 7 51
M  V30 55 1 8 52
M  V30 56 1 8 53
M  V30 57 1 9 54
M  V30 58 1 11 55
M  V30 59 1 11 56
M  V30 60 1 12 57
M  V30 61 1 13 58
M  V30 62 1 13 59
M  V30 63 1 17 60
M  V30 64 1 17 61
M  V30 65 1 19 62
M  V30 66 1 21 63
M  V30 67 1 22 64
M  V30 68 1 23 65
M  V30 69 1 24 66
M  V30 70 1 26 67
M  V30 71 1 27 68
M  V30 72 1 30 69 CFG=1
M  V30 73 1 31 70
M  V30 74 1 31 71
M  V30 75 1 32 72
M  V30 76 1 32 73
M  V30 77 1 34 74
M  V30 78 1 35 75
M  V30 79 1 37 76
M  V30 80 1 37 77
M  V30 81 1 37 78
M  V30 82 1 38 79
M  V30 83 1 40 80
M  V30 84 1 40 81
M  V30 85 1 40 82
M  V30 END BOND
M  V30 END CTAB
M  END
