
     RDKit          3D

  0  0  0  0  0  0  0  0  0  0999 V3000
M  V30 BEGIN CTAB
M  V30 COUNTS 30 31 0 0 0
M  V30 BEGIN ATOM
M  V30 1 N 4.68978 0.497159 0.0922622 0
M  V30 2 C 3.34769 0.0863069 0.326954 0
M  V30 3 N 2.84882 -0.561577 1.38341 0
M  V30 4 N 1.56163 -0.776035 1.25695 0
M  V30 5 C 1.17667 -0.262447 0.088268 0
M  V30 6 C 2.27533 0.284457 -0.515991 0
M  V30 7 C -0.1822 -0.244421 -0.525793 0 CFG=1
M  V30 8 C -0.480982 -1.66286 -0.97309 0
M  V30 9 N -1.4167 -2.32796 -0.10299 0
M  V30 10 C -2.69056 -1.67944 -0.0115958 0
M  V30 11 C -2.48414 -0.168928 -0.172064 0
M  V30 12 N -1.19869 0.12426 0.427837 0
M  V30 13 S -1.16449 1.78323 0.847445 0
M  V30 14 O 0.0915887 2.20831 1.50325 0
M  V30 15 O -2.30446 2.03177 1.80503 0
M  V30 16 N -1.44681 2.81023 -0.522835 0
M  V30 17 H 4.90756 1.37292 -0.408426 0
M  V30 18 H 5.463 -0.0978169 0.432576 0
M  V30 19 H 0.919556 -1.26666 1.9448 0
M  V30 20 H 2.32087 0.796259 -1.49847 0
M  V30 21 H -0.180362 0.389856 -1.42579 0
M  V30 22 H 0.440443 -2.28742 -0.996179 0
M  V30 23 H -0.904167 -1.69469 -1.99651 0
M  V30 24 H -1.01188 -2.61369 0.812411 0
M  V30 25 H -3.36746 -2.07326 -0.768458 0
M  V30 26 H -3.07739 -1.83478 1.01294 0
M  V30 27 H -2.5 0.0185891 -1.26516 0
M  V30 28 H -3.32323 0.345523 0.299546 0
M  V30 29 H -0.499306 3.07306 -0.92107 0
M  V30 30 H -1.81014 3.73002 -0.129265 0
M  V30 END ATOM
M  V30 BEGIN BOND
M  V30 1 1 1 2
M  V30 2 2 2 3
M  V30 3 1 3 4
M  V30 4 1 4 5
M  V30 5 2 5 6
M  V30 6 1 5 7
M  V30 7 1 7 8
M  V30 8 1 8 9
M  V30 9 1 9 10
M  V30 10 1 10 11
M  V30 11 1 11 12
M  V30 12 1 12 13
M  V30 13 2 13 14
M  V30 14 2 13 15
M  V30 15 1 13 16
M  V30 16 1 6 2
M  V30 17 1 12 7
M  V30 18 1 1 17
M  V30 19 1 1 18
M  V30 20 1 4 19
M  V30 21 1 6 20
M  V30 22 1 7 21 CFG=3
M  V30 23 1 8 22
M  V30 24 1 8 23
M  V30 25 1 9 24
M  V30 26 1 10 25
M  V30 27 1 10 26
M  V30 28 1 11 27
M  V30 29 1 11 28
M  V30 30 1 16 29
M  V30 31 1 16 30
M  V30 END BOND
M  V30 END CTAB
M  END
