
     RDKit          3D

  0  0  0  0  0  0  0  0  0  0999 V3000
M  V30 BEGIN CTAB
M  V30 COUNTS 30 30 0 0 0
M  V30 BEGIN ATOM
M  V30 1 N -2.17073 -0.563452 1.81359 0
M  V30 2 C -2.65569 0.259222 0.721214 0
M  V30 3 C -1.79983 -0.00210143 -0.520204 0
M  V30 4 C -0.381009 0.330558 -0.189098 0
M  V30 5 N 0.556321 -0.528808 -0.560246 0
M  V30 6 C 1.87982 -0.407252 -0.274388 0
M  V30 7 N 2.76307 -1.38537 -0.735236 0
M  V30 8 C 4.16601 -1.32779 -0.401149 0
M  V30 9 N 2.20583 0.680055 0.432348 0
M  V30 10 C 1.28759 1.56861 0.819796 0
M  V30 11 N -0.027137 1.40576 0.513429 0
M  V30 12 N 1.73259 2.70046 1.56513 0
M  V30 13 C -2.28178 0.828877 -1.64977 0
M  V30 14 C -1.88895 -1.48959 -0.794237 0
M  V30 15 H -2.50985 -0.147453 2.7181 0
M  V30 16 H -1.15378 -0.663814 1.79745 0
M  V30 17 H -3.67311 -0.0562257 0.467697 0
M  V30 18 H -2.64895 1.32104 0.964503 0
M  V30 19 H 2.42159 -2.16639 -1.30974 0
M  V30 20 H 4.40264 -0.326544 -0.00806157 0
M  V30 21 H 4.84855 -1.71091 -1.17802 0
M  V30 22 H 4.20317 -2.01154 0.545865 0
M  V30 23 H 1.25473 3.61353 1.54076 0
M  V30 24 H 2.57573 2.66158 2.16927 0
M  V30 25 H -3.13142 1.48543 -1.29793 0
M  V30 26 H -1.56031 1.50478 -2.10065 0
M  V30 27 H -2.69364 0.137791 -2.45373 0
M  V30 28 H -2.30627 -1.68308 -1.81074 0
M  V30 29 H -0.924699 -2.01389 -0.776189 0
M  V30 30 H -2.49048 -2.01347 -0.00974232 0
M  V30 END ATOM
M  V30 BEGIN BOND
M  V30 1 1 1 2
M  V30 2 1 2 3
M  V30 3 1 3 4
M  V30 4 2 4 5
M  V30 5 1 5 6
M  V30 6 1 6 7
M  V30 7 1 7 8
M  V30 8 2 6 9
M  V30 9 1 9 10
M  V30 10 2 10 11
M  V30 11 1 10 12
M  V30 12 1 3 13
M  V30 13 1 3 14
M  V30 14 1 11 4
M  V30 15 1 1 15
M  V30 16 1 1 16
M  V30 17 1 2 17
M  V30 18 1 2 18
M  V30 19 1 7 19
M  V30 20 1 8 20
M  V30 21 1 8 21
M  V30 22 1 8 22
M  V30 23 1 12 23
M  V30 24 1 12 24
M  V30 25 1 13 25
M  V30 26 1 13 26
M  V30 27 1 13 27
M  V30 28 1 14 28
M  V30 29 1 14 29
M  V30 30 1 14 30
M  V30 END BOND
M  V30 END CTAB
M  END
