
     RDKit          3D

  0  0  0  0  0  0  0  0  0  0999 V3000
M  V30 BEGIN CTAB
M  V30 COUNTS 14 14 0 0 0
M  V30 BEGIN ATOM
M  V30 1 N 2.59538 -0.962863 0.141922 0
M  V30 2 C 1.34703 -0.269018 0.09762 0
M  V30 3 N 1.29253 1.07586 0.213552 0
M  V30 4 C 0.136783 1.76002 0.176284 0
M  V30 5 C -1.03373 1.05163 0.0128959 0
M  V30 6 C -1.01346 -0.302348 -0.106774 0
M  V30 7 N 0.179546 -0.939989 -0.0621529 0
M  V30 8 N -2.21897 -1.02015 -0.273994 0
M  V30 9 F -2.20251 1.70731 -0.0280299 0
M  V30 10 H 3.21519 -0.847466 -0.714014 0
M  V30 11 H 2.89674 -1.54891 0.951625 0
M  V30 12 H 0.09989 2.84947 0.270822 0
M  V30 13 H -2.44888 -1.38408 -1.21307 0
M  V30 14 H -2.84554 -1.16945 0.533312 0
M  V30 END ATOM
M  V30 BEGIN BOND
M  V30 1 1 1 2
M  V30 2 2 2 3
M  V30 3 1 3 4
M  V30 4 2 4 5
M  V30 5 1 5 6
M  V30 6 2 6 7
M  V30 7 1 6 8
M  V30 8 1 5 9
M  V30 9 1 7 2
M  V30 10 1 1 10
M  V30 11 1 1 11
M  V30 12 1 4 12
M  V30 13 1 8 13
M  V30 14 1 8 14
M  V30 END BOND
M  V30 END CTAB
M  END
