
     RDKit          3D

  0  0  0  0  0  0  0  0  0  0999 V3000
M  V30 BEGIN CTAB
M  V30 COUNTS 45 46 0 0 0
M  V30 BEGIN ATOM
M  V30 1 N 4.22809 -1.33059 -1.86031 0
M  V30 2 C 3.51532 -0.274557 -1.22173 0
M  V30 3 C 4.104 0.161937 0.0917608 0
M  V30 4 C 3.11067 0.716565 1.06232 0
M  V30 5 C 1.91283 1.35454 0.45343 0
M  V30 6 C 1.35052 0.677281 -0.738272 0
M  V30 7 C 2.05566 -0.656337 -0.918404 0
M  V30 8 C -0.0997681 0.617892 -0.862492 0
M  V30 9 O -0.591216 1.26033 -1.8689 0
M  V30 10 N -1.06798 -0.0108386 -0.0865946 0
M  V30 11 C -0.680239 -0.779099 1.06378 0
M  V30 12 C -0.891079 -2.28233 0.80686 0
M  V30 13 C -2.20107 -2.43279 0.130557 0
M  V30 14 C -3.05849 -1.23948 0.346973 0
M  V30 15 C -2.49012 0.0201788 -0.321195 0
M  V30 16 C -3.26506 1.14763 0.185826 0
M  V30 17 N -3.1755 1.27255 1.61697 0
M  V30 18 C -3.02394 2.49635 -0.41258 0
M  V30 19 H 4.77411 -1.04573 -2.70186 0
M  V30 20 H 3.71664 -2.22007 -1.96354 0
M  V30 21 H 3.48979 0.607746 -1.88954 0
M  V30 22 H 4.57027 -0.733797 0.554672 0
M  V30 23 H 4.93565 0.864672 -0.125805 0
M  V30 24 H 2.82803 -0.0384366 1.82531 0
M  V30 25 H 3.65636 1.51787 1.64378 0
M  V30 26 H 1.12962 1.48234 1.2181 0
M  V30 27 H 2.18366 2.42152 0.174641 0
M  V30 28 H 1.73222 1.27355 -1.64691 0
M  V30 29 H 1.6306 -1.26544 -1.72114 0
M  V30 30 H 2.12446 -1.26073 -0.00363449 0
M  V30 31 H -1.40367 -0.571566 1.897 0
M  V30 32 H 0.354233 -0.705352 1.3868 0
M  V30 33 H -0.0351446 -2.69999 0.241966 0
M  V30 34 H -0.920098 -2.75264 1.80823 0
M  V30 35 H -2.10391 -2.70354 -0.961785 0
M  V30 36 H -2.71082 -3.32973 0.570556 0
M  V30 37 H -4.03116 -1.42887 -0.195632 0
M  V30 38 H -3.29976 -1.10352 1.3975 0
M  V30 39 H -2.67349 -0.106581 -1.41338 0
M  V30 40 H -4.35809 0.922513 -0.013964 0
M  V30 41 H -2.28509 1.66475 1.95768 0
M  V30 42 H -3.96187 1.83596 2.02355 0
M  V30 43 H -3.8349 3.1679 0.0068162 0
M  V30 44 H -2.08302 2.93636 -0.0375712 0
M  V30 45 H -3.15725 2.55158 -1.49984 0
M  V30 END ATOM
M  V30 BEGIN BOND
M  V30 1 1 1 2
M  V30 2 1 2 3
M  V30 3 1 3 4
M  V30 4 1 4 5
M  V30 5 1 5 6
M  V30 6 1 6 7
M  V30 7 1 6 8
M  V30 8 2 8 9
M  V30 9 1 8 10
M  V30 10 1 10 11
M  V30 11 1 11 12
M  V30 12 1 12 13
M  V30 13 1 13 14
M  V30 14 1 14 15
M  V30 15 1 15 16
M  V30 16 1 16 17
M  V30 17 1 16 18
M  V30 18 1 7 2
M  V30 19 1 15 10
M  V30 20 1 1 19
M  V30 21 1 1 20
M  V30 22 1 2 21
M  V30 23 1 3 22
M  V30 24 1 3 23
M  V30 25 1 4 24
M  V30 26 1 4 25
M  V30 27 1 5 26
M  V30 28 1 5 27
M  V30 29 1 6 28
M  V30 30 1 7 29
M  V30 31 1 7 30
M  V30 32 1 11 31
M  V30 33 1 11 32
M  V30 34 1 12 33
M  V30 35 1 12 34
M  V30 36 1 13 35
M  V30 37 1 13 36
M  V30 38 1 14 37
M  V30 39 1 14 38
M  V30 40 1 15 39
M  V30 41 1 16 40
M  V30 42 1 17 41
M  V30 43 1 17 42
M  V30 44 1 18 43
M  V30 45 1 18 44
M  V30 46 1 18 45
M  V30 END BOND
M  V30 END CTAB
M  END
