
     RDKit          3D

  0  0  0  0  0  0  0  0  0  0999 V3000
M  V30 BEGIN CTAB
M  V30 COUNTS 35 37 0 0 0
M  V30 BEGIN ATOM
M  V30 1 N -1.13672 2.6663 -0.343309 0
M  V30 2 C -1.65134 1.33691 -0.340784 0
M  V30 3 C -2.97685 0.973175 -0.222173 0
M  V30 4 C -4.10399 1.84392 -0.0780805 0
M  V30 5 N -5.00586 2.55859 0.0505695 0
M  V30 6 C -2.99669 -0.396938 -0.270397 0
M  V30 7 C -1.67782 -0.851797 -0.41834 0
M  V30 8 N -1.48597 -2.18028 -0.48612 0
M  V30 9 C -2.50392 -3.05611 -0.416899 0
M  V30 10 N -3.78337 -2.59601 -0.272685 0
M  V30 11 C -4.04451 -1.28239 -0.198553 0
M  V30 12 N -5.34931 -0.76094 -0.0495637 0
M  V30 13 N -0.869782 0.227663 -0.459218 0
M  V30 14 C 0.549524 0.193396 -0.601755 0
M  V30 15 C 1.28755 0.128698 0.707183 0
M  V30 16 C 2.74068 0.0936564 0.55857 0
M  V30 17 C 3.35851 -1.14121 0.450652 0
M  V30 18 C 4.72285 -1.26685 0.307721 0
M  V30 19 C 5.50595 -0.137688 0.269725 0
M  V30 20 C 4.93505 1.08937 0.372598 0
M  V30 21 C 3.56873 1.18952 0.514799 0
M  V30 22 H -0.728193 3.12717 0.498999 0
M  V30 23 H -1.15742 3.2321 -1.22272 0
M  V30 24 H -2.36377 -4.1319 -0.470281 0
M  V30 25 H -5.84395 -0.88861 0.880068 0
M  V30 26 H -5.86837 -0.256029 -0.788651 0
M  V30 27 H 0.861221 1.09628 -1.16453 0
M  V30 28 H 0.833392 -0.711737 -1.18001 0
M  V30 29 H 0.93029 -0.723338 1.31224 0
M  V30 30 H 1.03574 1.07567 1.2665 0
M  V30 31 H 2.75351 -2.03519 0.479214 0
M  V30 32 H 5.19451 -2.25668 0.223606 0
M  V30 33 H 6.57624 -0.287007 0.155726 0
M  V30 34 H 5.57882 1.96322 0.339367 0
M  V30 35 H 3.11527 2.16504 0.596538 0
M  V30 END ATOM
M  V30 BEGIN BOND
M  V30 1 1 1 2
M  V30 2 2 2 3
M  V30 3 1 3 4
M  V30 4 3 4 5
M  V30 5 1 3 6
M  V30 6 2 6 7
M  V30 7 1 7 8
M  V30 8 2 8 9
M  V30 9 1 9 10
M  V30 10 2 10 11
M  V30 11 1 11 12
M  V30 12 1 7 13
M  V30 13 1 13 14
M  V30 14 1 14 15
M  V30 15 1 15 16
M  V30 16 2 16 17
M  V30 17 1 17 18
M  V30 18 2 18 19
M  V30 19 1 19 20
M  V30 20 2 20 21
M  V30 21 1 13 2
M  V30 22 1 21 16
M  V30 23 1 11 6
M  V30 24 1 1 22
M  V30 25 1 1 23
M  V30 26 1 9 24
M  V30 27 1 12 25
M  V30 28 1 12 26
M  V30 29 1 14 27
M  V30 30 1 14 28
M  V30 31 1 15 29
M  V30 32 1 15 30
M  V30 33 1 17 31
M  V30 34 1 18 32
M  V30 35 1 19 33
M  V30 36 1 20 34
M  V30 37 1 21 35
M  V30 END BOND
M  V30 END CTAB
M  END
