
     RDKit          3D

 32 33  0  0  0  0  0  0  0  0999 V2000
    3.1912    0.6164    0.7801 N   0  0  0  0  0  0  0  0  0  0  0  0
    1.8462    0.0003    0.6926 C   0  0  2  0  0  0  0  0  0  0  0  0
    1.2906    0.1065   -0.7185 C   0  0  0  0  0  0  0  0  0  0  0  0
    1.0565   -1.0583   -1.4664 C   0  0  0  0  0  0  0  0  0  0  0  0
    0.5317   -0.9850   -2.7584 C   0  0  0  0  0  0  0  0  0  0  0  0
    0.2364    0.2534   -3.3229 C   0  0  0  0  0  0  0  0  0  0  0  0
    0.4675    1.4195   -2.5976 C   0  0  0  0  0  0  0  0  0  0  0  0
    0.9917    1.3479   -1.3050 C   0  0  0  0  0  0  0  0  0  0  0  0
    0.8737    0.5882    1.7901 C   0  0  2  0  0  0  0  0  0  0  0  0
    1.5808    0.7962    3.0798 N   0  0  0  0  0  0  0  0  0  0  0  0
   -0.3728   -0.2573    2.0000 C   0  0  0  0  0  0  0  0  0  0  0  0
   -1.6385    0.2900    1.7369 C   0  0  0  0  0  0  0  0  0  0  0  0
   -2.7964   -0.4677    1.9228 C   0  0  0  0  0  0  0  0  0  0  0  0
   -2.7061   -1.7815    2.3758 C   0  0  0  0  0  0  0  0  0  0  0  0
   -1.4583   -2.3396    2.6427 C   0  0  0  0  0  0  0  0  0  0  0  0
   -0.2989   -1.5839    2.4569 C   0  0  0  0  0  0  0  0  0  0  0  0
    3.1336    1.5646    0.4141 H   0  0  0  0  0  0  0  0  0  0  0  0
    3.3601    0.7578    1.7823 H   0  0  0  0  0  0  0  0  0  0  0  0
    2.0119   -1.0603    0.9210 H   0  0  0  0  0  0  0  0  0  0  0  0
    1.2820   -2.0356   -1.0452 H   0  0  0  0  0  0  0  0  0  0  0  0
    0.3559   -1.8962   -3.3239 H   0  0  0  0  0  0  0  0  0  0  0  0
   -0.1696    0.3093   -4.3293 H   0  0  0  0  0  0  0  0  0  0  0  0
    0.2431    2.3866   -3.0396 H   0  0  0  0  0  0  0  0  0  0  0  0
    1.1682    2.2729   -0.7619 H   0  0  0  0  0  0  0  0  0  0  0  0
    0.5668    1.5929    1.4729 H   0  0  0  0  0  0  0  0  0  0  0  0
    0.8981    1.1463    3.7532 H   0  0  0  0  0  0  0  0  0  0  0  0
    1.8720   -0.1127    3.4376 H   0  0  0  0  0  0  0  0  0  0  0  0
   -1.7330    1.3121    1.3756 H   0  0  0  0  0  0  0  0  0  0  0  0
   -3.7694   -0.0323    1.7098 H   0  0  0  0  0  0  0  0  0  0  0  0
   -3.6079   -2.3710    2.5179 H   0  0  0  0  0  0  0  0  0  0  0  0
   -1.3874   -3.3659    2.9939 H   0  0  0  0  0  0  0  0  0  0  0  0
    0.6628   -2.0447    2.6699 H   0  0  0  0  0  0  0  0  0  0  0  0
  1  2  1  0
  2  3  1  0
  3  4  2  0
  4  5  1  0
  5  6  2  0
  6  7  1  0
  7  8  2  0
  2  9  1  0
  9 10  1  0
  9 11  1  0
 11 12  2  0
 12 13  1  0
 13 14  2  0
 14 15  1  0
 15 16  2  0
  8  3  1  0
 16 11  1  0
  1 17  1  0
  1 18  1  0
  2 19  1  1
  4 20  1  0
  5 21  1  0
  6 22  1  0
  7 23  1  0
  8 24  1  0
  9 25  1  6
 10 26  1  0
 10 27  1  0
 12 28  1  0
 13 29  1  0
 14 30  1  0
 15 31  1  0
 16 32  1  0
M  END
