
     RDKit          3D

  0  0  0  0  0  0  0  0  0  0999 V3000
M  V30 BEGIN CTAB
M  V30 COUNTS 49 50 0 0 0
M  V30 BEGIN ATOM
M  V30 1 N -4.26346 -0.331659 -2.25082 0
M  V30 2 C -3.84745 0.0244691 -0.87726 0
M  V30 3 C -3.39808 -1.1917 -0.174205 0
M  V30 4 C -2.47861 -0.758092 1.00258 0
M  V30 5 C -2.40288 -2.00765 1.831 0
M  V30 6 C -3.19133 0.275604 1.85535 0
M  V30 7 N -1.26991 -0.260933 0.433014 0
M  V30 8 C -1.3904 0.6675 -0.697838 0
M  V30 9 C -2.81975 1.08033 -0.970603 0
M  V30 10 C -0.838427 0.137579 -1.97454 0
M  V30 11 C -0.681268 2.00144 -0.398102 0
M  V30 12 C 0.00480465 -0.557104 0.923184 0
M  V30 13 S 0.13114 -1.42536 2.33763 0
M  V30 14 N 1.24764 -0.113985 0.342216 0
M  V30 15 C 2.52007 -0.381125 0.922632 0
M  V30 16 O 2.53654 -1.04688 2.00965 0
M  V30 17 C 3.77373 0.057408 0.35072 0
M  V30 18 C 3.78703 0.773451 -0.813403 0
M  V30 19 C 4.99261 1.20774 -1.38351 0
M  V30 20 C 6.15473 0.890628 -0.735319 0
M  V30 21 C 6.15518 0.163086 0.449101 0
M  V30 22 C 4.9487 -0.2525 0.988632 0
M  V30 23 N 4.96841 -1.00596 2.21723 0
M  V30 24 H -3.72206 -1.19905 -2.53492 0
M  V30 25 H -5.2782 -0.471729 -2.31513 0
M  V30 26 H -4.79131 0.439359 -0.418021 0
M  V30 27 H -4.24804 -1.73389 0.273406 0
M  V30 28 H -2.78883 -1.81324 -0.830815 0
M  V30 29 H -3.48541 -2.42749 1.78529 0
M  V30 30 H -1.82604 -2.83038 1.4229 0
M  V30 31 H -2.30521 -1.81905 2.927 0
M  V30 32 H -3.28342 -0.134896 2.8759 0
M  V30 33 H -2.49185 1.13276 1.94597 0
M  V30 34 H -4.18646 0.536213 1.5169 0
M  V30 35 H -3.08682 1.89621 -0.23445 0
M  V30 36 H -2.90976 1.5733 -1.96796 0
M  V30 37 H -1.61923 -0.0663085 -2.74618 0
M  V30 38 H -0.306325 -0.845471 -1.84705 0
M  V30 39 H -0.103549 0.803848 -2.4674 0
M  V30 40 H 0.0198342 2.2878 -1.20858 0
M  V30 41 H -0.142438 2.00338 0.544797 0
M  V30 42 H -1.42326 2.85799 -0.389341 0
M  V30 43 H 1.26813 0.407771 -0.540022 0
M  V30 44 H 2.91604 1.06308 -1.38352 0
M  V30 45 H 5.02092 1.7698 -2.29524 0
M  V30 46 H 7.09409 1.22894 -1.17941 0
M  V30 47 H 7.0835 -0.0660655 0.927578 0
M  V30 48 H 5.15804 -0.510549 3.10212 0
M  V30 49 H 4.79861 -2.02861 2.24242 0
M  V30 END ATOM
M  V30 BEGIN BOND
M  V30 1 1 1 2
M  V30 2 1 2 3
M  V30 3 1 3 4
M  V30 4 1 4 5
M  V30 5 1 4 6
M  V30 6 1 4 7
M  V30 7 1 7 8
M  V30 8 1 8 9
M  V30 9 1 8 10
M  V30 10 1 8 11
M  V30 11 1 7 12
M  V30 12 2 12 13
M  V30 13 1 12 14
M  V30 14 1 14 15
M  V30 15 2 15 16
M  V30 16 1 15 17
M  V30 17 2 17 18
M  V30 18 1 18 19
M  V30 19 2 19 20
M  V30 20 1 20 21
M  V30 21 2 21 22
M  V30 22 1 22 23
M  V30 23 1 9 2
M  V30 24 1 22 17
M  V30 25 1 1 24
M  V30 26 1 1 25
M  V30 27 1 2 26
M  V30 28 1 3 27
M  V30 29 1 3 28
M  V30 30 1 5 29
M  V30 31 1 5 30
M  V30 32 1 5 31
M  V30 33 1 6 32
M  V30 34 1 6 33
M  V30 35 1 6 34
M  V30 36 1 9 35
M  V30 37 1 9 36
M  V30 38 1 10 37
M  V30 39 1 10 38
M  V30 40 1 10 39
M  V30 41 1 11 40
M  V30 42 1 11 41
M  V30 43 1 11 42
M  V30 44 1 14 43
M  V30 45 1 18 44
M  V30 46 1 19 45
M  V30 47 1 20 46
M  V30 48 1 21 47
M  V30 49 1 23 48
M  V30 50 1 23 49
M  V30 END BOND
M  V30 END CTAB
M  END
