
     RDKit          3D

  0  0  0  0  0  0  0  0  0  0999 V3000
M  V30 BEGIN CTAB
M  V30 COUNTS 19 19 0 0 0
M  V30 BEGIN ATOM
M  V30 1 F -2.92903 -0.74084 -1.51383 0
M  V30 2 C -2.50974 -0.421479 -0.228375 0
M  V30 3 C -1.03077 -0.345228 -0.14949 0
M  V30 4 C -0.250287 -1.43898 -0.457862 0
M  V30 5 C 1.12535 -1.37816 -0.387594 0
M  V30 6 C 1.77607 -0.213684 -0.00382019 0
M  V30 7 C 0.991277 0.861159 0.298551 0
M  V30 8 C -0.382348 0.81218 0.232015 0
M  V30 9 N -1.18997 1.94241 0.550597 0
M  V30 10 Cl 1.79419 2.3516 0.788625 0
M  V30 11 N 3.18552 -0.233408 0.0428546 0
M  V30 12 F -3.00369 -1.369 0.659789 0
M  V30 13 H -2.96232 0.533537 0.0494647 0
M  V30 14 H -0.766645 -2.3635 -0.762546 0
M  V30 15 H 1.70171 -2.26141 -0.638628 0
M  V30 16 H -1.95018 2.30166 -0.0539845 0
M  V30 17 H -1.00817 2.44392 1.44919 0
M  V30 18 H 3.73577 -0.342733 -0.821025 0
M  V30 19 H 3.67326 -0.138047 0.946066 0
M  V30 END ATOM
M  V30 BEGIN BOND
M  V30 1 1 1 2
M  V30 2 1 2 3
M  V30 3 2 3 4
M  V30 4 1 4 5
M  V30 5 2 5 6
M  V30 6 1 6 7
M  V30 7 2 7 8
M  V30 8 1 8 9
M  V30 9 1 7 10
M  V30 10 1 6 11
M  V30 11 1 2 12
M  V30 12 1 8 3
M  V30 13 1 2 13
M  V30 14 1 4 14
M  V30 15 1 5 15
M  V30 16 1 9 16
M  V30 17 1 9 17
M  V30 18 1 11 18
M  V30 19 1 11 19
M  V30 END BOND
M  V30 END CTAB
M  END
