
     RDKit          3D

  0  0  0  0  0  0  0  0  0  0999 V3000
M  V30 BEGIN CTAB
M  V30 COUNTS 25 26 0 0 0
M  V30 BEGIN ATOM
M  V30 1 N -1.94597 2.05552 -1.26201 0
M  V30 2 C -2.67757 1.0587 -0.570139 0
M  V30 3 C -2.1003 -0.0717048 -0.0249798 0
M  V30 4 N -0.706754 -0.421704 -0.0629926 0
M  V30 5 N 0.209651 0.362304 0.250912 0
M  V30 6 C 1.59517 0.0593302 0.228164 0
M  V30 7 C 2.07937 -1.21805 0.0594588 0
M  V30 8 C 3.4294 -1.49119 0.040251 0
M  V30 9 C 4.35621 -0.459659 0.194314 0
M  V30 10 C 3.87711 0.828531 0.364572 0
M  V30 11 C 2.52001 1.06859 0.379148 0
M  V30 12 C -3.10692 -0.807471 0.565159 0
M  V30 13 N -2.93136 -2.04324 1.23871 0
M  V30 14 N -4.22958 -0.112412 0.360623 0
M  V30 15 N -3.99496 0.995815 -0.310111 0
M  V30 16 H -1.95888 3.02487 -0.891776 0
M  V30 17 H -1.39505 1.86913 -2.12295 0
M  V30 18 H 1.384 -2.03367 -0.061859 0
M  V30 19 H 3.84353 -2.47764 -0.0894959 0
M  V30 20 H 5.43071 -0.658682 0.181554 0
M  V30 21 H 4.6121 1.63233 0.4848 0
M  V30 22 H 2.19212 2.07707 0.513074 0
M  V30 23 H -2.08821 -2.61261 1.13775 0
M  V30 24 H -3.71056 -2.35841 1.85509 0
M  V30 25 H -4.68324 1.73425 -0.613272 0
M  V30 END ATOM
M  V30 BEGIN BOND
M  V30 1 1 1 2
M  V30 2 2 2 3
M  V30 3 1 3 4
M  V30 4 2 4 5
M  V30 5 1 5 6
M  V30 6 2 6 7
M  V30 7 1 7 8
M  V30 8 2 8 9
M  V30 9 1 9 10
M  V30 10 2 10 11
M  V30 11 1 3 12
M  V30 12 1 12 13
M  V30 13 2 12 14
M  V30 14 1 14 15
M  V30 15 1 15 2
M  V30 16 1 11 6
M  V30 17 1 1 16
M  V30 18 1 1 17
M  V30 19 1 7 18
M  V30 20 1 8 19
M  V30 21 1 9 20
M  V30 22 1 10 21
M  V30 23 1 11 22
M  V30 24 1 13 23
M  V30 25 1 13 24
M  V30 26 1 15 25
M  V30 END BOND
M  V30 END CTAB
M  END
