
     RDKit          3D

  0  0  0  0  0  0  0  0  0  0999 V3000
M  V30 BEGIN CTAB
M  V30 COUNTS 29 30 0 0 0
M  V30 BEGIN ATOM
M  V30 1 N 2.93264 0.0519802 -0.866154 0
M  V30 2 C 1.56529 0.495189 -0.770765 0
M  V30 3 C 0.651691 -0.467412 -0.0858135 0
M  V30 4 N 0.645894 -1.70139 -0.807205 0
M  V30 5 C 0.92819 -0.630636 1.38408 0
M  V30 6 C 0.253151 0.564149 2.01057 0
M  V30 7 C -0.646841 1.17099 0.98283 0
M  V30 8 C -0.71444 0.136937 -0.0906427 0
M  V30 9 C -1.21772 0.545387 -1.42307 0
M  V30 10 C -2.60919 0.0621732 -0.989193 0
M  V30 11 C -1.87901 -0.777866 0.0687197 0
M  V30 12 H 3.46928 0.825888 -1.32187 0
M  V30 13 H 3.36248 -0.0532791 0.0902591 0
M  V30 14 H 1.18145 0.67096 -1.78863 0
M  V30 15 H 1.5506 1.49433 -0.261361 0
M  V30 16 H 0.183497 -2.43971 -0.246522 0
M  V30 17 H 1.64785 -1.94867 -1.02338 0
M  V30 18 H 1.98022 -0.737704 1.6391 0
M  V30 19 H 0.415257 -1.57468 1.70341 0
M  V30 20 H -0.338399 0.212959 2.88445 0
M  V30 21 H 1.05311 1.25984 2.34349 0
M  V30 22 H -1.67068 1.32335 1.38457 0
M  V30 23 H -0.303278 2.15496 0.609987 0
M  V30 24 H -1.16802 1.59378 -1.7097 0
M  V30 25 H -0.812709 -0.141584 -2.21887 0
M  V30 26 H -3.11437 -0.524424 -1.76044 0
M  V30 27 H -3.15049 0.926058 -0.566807 0
M  V30 28 H -1.7612 -1.82511 -0.203724 0
M  V30 29 H -2.43426 -0.66646 1.03267 0
M  V30 END ATOM
M  V30 BEGIN BOND
M  V30 1 1 1 2
M  V30 2 1 2 3
M  V30 3 1 3 4
M  V30 4 1 3 5
M  V30 5 1 5 6
M  V30 6 1 6 7
M  V30 7 1 7 8
M  V30 8 1 8 9
M  V30 9 1 9 10
M  V30 10 1 10 11
M  V30 11 1 8 3
M  V30 12 1 11 8
M  V30 13 1 1 12
M  V30 14 1 1 13
M  V30 15 1 2 14
M  V30 16 1 2 15
M  V30 17 1 4 16
M  V30 18 1 4 17
M  V30 19 1 5 18
M  V30 20 1 5 19
M  V30 21 1 6 20
M  V30 22 1 6 21
M  V30 23 1 7 22
M  V30 24 1 7 23
M  V30 25 1 9 24
M  V30 26 1 9 25
M  V30 27 1 10 26
M  V30 28 1 10 27
M  V30 29 1 11 28
M  V30 30 1 11 29
M  V30 END BOND
M  V30 END CTAB
M  END
