
     RDKit          3D

  0  0  0  0  0  0  0  0  0  0999 V3000
M  V30 BEGIN CTAB
M  V30 COUNTS 45 48 0 0 0
M  V30 BEGIN ATOM
M  V30 1 N -6.55809 1.11215 -1.39499 0
M  V30 2 C -5.40058 1.18289 -1.49825 0
M  V30 3 C -3.9541 1.25434 -1.63731 0
M  V30 4 C -3.50951 2.01503 -2.6945 0
M  V30 5 N -4.37435 2.68402 -3.58889 0
M  V30 6 N -2.17136 2.07932 -2.82715 0
M  V30 7 C -1.32398 1.42825 -1.96272 0
M  V30 8 C -1.74467 0.668816 -0.909647 0
M  V30 9 C -3.14246 0.58284 -0.744525 0
M  V30 10 C -3.77673 -0.169665 0.331648 0
M  V30 11 C -3.91746 0.355527 1.60664 0
M  V30 12 C -4.53521 -0.342519 2.61774 0
M  V30 13 C -5.04551 -1.60318 2.40992 0
M  V30 14 C -4.91789 -2.1477 1.1484 0
M  V30 15 C -4.2968 -1.44864 0.124596 0
M  V30 16 C -0.778039 0.0992494 -0.13806 0
M  V30 17 N -1.03189 -0.75894 1.01556 0
M  V30 18 C 0.514806 0.345515 -0.493216 0
M  V30 19 S 0.374762 1.34085 -1.86481 0
M  V30 20 C 1.75294 -0.1257 0.189669 0
M  V30 21 O 1.61625 -0.807741 1.19763 0
M  V30 22 N 2.95713 0.255706 -0.381265 0
M  V30 23 C 4.25632 -0.0113788 0.0830137 0
M  V30 24 C 4.54251 -0.67912 1.2603 0
M  V30 25 C 5.8325 -0.93276 1.65873 0
M  V30 26 C 6.88507 -0.528239 0.892092 0
M  V30 27 C 6.60925 0.145394 -0.296836 0
M  V30 28 N 5.35355 0.372212 -0.64777 0
M  V30 29 C 8.29557 -0.762037 1.25959 0
M  V30 30 F 8.42116 -0.679364 2.64812 0
M  V30 31 F 8.64496 -2.01018 0.813958 0
M  V30 32 F 9.06466 0.194747 0.641431 0
M  V30 33 H -4.11974 3.60781 -3.96991 0
M  V30 34 H -5.26793 2.25139 -3.86829 0
M  V30 35 H -3.49589 1.36112 1.73438 0
M  V30 36 H -4.62595 0.0959889 3.60428 0
M  V30 37 H -5.54406 -2.18391 3.19728 0
M  V30 38 H -5.31457 -3.13302 0.97754 0
M  V30 39 H -4.18614 -1.86017 -0.877832 0
M  V30 40 H -0.898889 -0.379191 1.97465 0
M  V30 41 H -1.33066 -1.73499 0.938555 0
M  V30 42 H 2.93867 0.853531 -1.2761 0
M  V30 43 H 3.74745 -1.01375 1.90331 0
M  V30 44 H 6.01316 -1.45649 2.58413 0
M  V30 45 H 7.44177 0.481987 -0.940617 0
M  V30 END ATOM
M  V30 BEGIN BOND
M  V30 1 3 1 2
M  V30 2 1 2 3
M  V30 3 2 3 4
M  V30 4 1 4 5
M  V30 5 1 4 6
M  V30 6 2 6 7
M  V30 7 1 7 8
M  V30 8 2 8 9
M  V30 9 1 9 10
M  V30 10 2 10 11
M  V30 11 1 11 12
M  V30 12 2 12 13
M  V30 13 1 13 14
M  V30 14 2 14 15
M  V30 15 1 8 16
M  V30 16 1 16 17
M  V30 17 2 16 18
M  V30 18 1 18 19
M  V30 19 1 18 20
M  V30 20 2 20 21
M  V30 21 1 20 22
M  V30 22 1 22 23
M  V30 23 2 23 24
M  V30 24 1 24 25
M  V30 25 2 25 26
M  V30 26 1 26 27
M  V30 27 2 27 28
M  V30 28 1 26 29
M  V30 29 1 29 30
M  V30 30 1 29 31
M  V30 31 1 29 32
M  V30 32 1 9 3
M  V30 33 1 15 10
M  V30 34 1 28 23
M  V30 35 1 19 7
M  V30 36 1 5 33
M  V30 37 1 5 34
M  V30 38 1 11 35
M  V30 39 1 12 36
M  V30 40 1 13 37
M  V30 41 1 14 38
M  V30 42 1 15 39
M  V30 43 1 17 40
M  V30 44 1 17 41
M  V30 45 1 22 42
M  V30 46 1 24 43
M  V30 47 1 25 44
M  V30 48 1 27 45
M  V30 END BOND
M  V30 END CTAB
M  END
