
     RDKit          3D

  0  0  0  0  0  0  0  0  0  0999 V3000
M  V30 BEGIN CTAB
M  V30 COUNTS 38 39 0 0 0
M  V30 BEGIN ATOM
M  V30 1 N 6.647 1.35616 0.250024 0
M  V30 2 C 6.24549 0.133158 -0.409576 0
M  V30 3 C 4.77211 0.0534213 -0.391893 0
M  V30 4 C 3.99627 1.04914 0.191411 0
M  V30 5 C 2.6047 0.907932 0.171665 0
M  V30 6 C 1.98077 -0.160353 -0.393069 0
M  V30 7 C 2.7531 -1.15109 -0.973468 0
M  V30 8 C 4.12734 -1.0421 -0.970816 0
M  V30 9 C 0.527643 -0.274907 -0.395483 0
M  V30 10 N -0.27601 0.719252 0.188106 0
M  V30 11 N -0.0387636 -1.30233 -0.940013 0
M  V30 12 C -1.45305 -1.4501 -0.962431 0
M  V30 13 O -2.15032 -1.24281 -1.98616 0
M  V30 14 O -2.09416 -1.8346 0.175159 0
M  V30 15 C -3.44351 -2.04158 0.400586 0
M  V30 16 C -4.19658 -0.789706 0.154751 0
M  V30 17 C -4.96308 -0.587537 -0.959558 0
M  V30 18 C -5.64458 0.6038 -1.1344 0
M  V30 19 C -5.56272 1.60716 -0.188718 0
M  V30 20 C -4.80019 1.42254 0.933162 0
M  V30 21 C -4.13521 0.244628 1.09129 0
M  V30 22 H 6.26082 2.18142 -0.247815 0
M  V30 23 H 6.31482 1.33082 1.23282 0
M  V30 24 H 6.62796 -0.707653 0.211072 0
M  V30 25 H 6.64938 0.0796094 -1.44164 0
M  V30 26 H 4.44879 1.91721 0.652587 0
M  V30 27 H 1.98264 1.67892 0.62421 0
M  V30 28 H 2.26388 -2.00924 -1.42762 0
M  V30 29 H 4.71739 -1.82686 -1.42964 0
M  V30 30 H -0.467291 0.711784 1.20411 0
M  V30 31 H -0.681358 1.46666 -0.401369 0
M  V30 32 H -3.55215 -2.34059 1.48474 0
M  V30 33 H -3.86407 -2.89273 -0.20772 0
M  V30 34 H -5.03259 -1.36821 -1.70456 0
M  V30 35 H -6.2321 0.710325 -2.02761 0
M  V30 36 H -6.08431 2.5385 -0.306778 0
M  V30 37 H -4.71971 2.19215 1.68803 0
M  V30 38 H -3.52836 0.117797 2.00034 0
M  V30 END ATOM
M  V30 BEGIN BOND
M  V30 1 1 1 2
M  V30 2 1 2 3
M  V30 3 2 3 4
M  V30 4 1 4 5
M  V30 5 2 5 6
M  V30 6 1 6 7
M  V30 7 2 7 8
M  V30 8 1 6 9
M  V30 9 1 9 10
M  V30 10 2 9 11 CFG=2
M  V30 11 1 11 12
M  V30 12 2 12 13
M  V30 13 1 12 14
M  V30 14 1 14 15
M  V30 15 1 15 16
M  V30 16 2 16 17
M  V30 17 1 17 18
M  V30 18 2 18 19
M  V30 19 1 19 20
M  V30 20 2 20 21
M  V30 21 1 8 3
M  V30 22 1 21 16
M  V30 23 1 1 22
M  V30 24 1 1 23
M  V30 25 1 2 24
M  V30 26 1 2 25
M  V30 27 1 4 26
M  V30 28 1 5 27
M  V30 29 1 7 28
M  V30 30 1 8 29
M  V30 31 1 10 30
M  V30 32 1 10 31
M  V30 33 1 15 32
M  V30 34 1 15 33
M  V30 35 1 17 34
M  V30 36 1 18 35
M  V30 37 1 19 36
M  V30 38 1 20 37
M  V30 39 1 21 38
M  V30 END BOND
M  V30 END CTAB
M  END
