
     RDKit          3D

  0  0  0  0  0  0  0  0  0  0999 V3000
M  V30 BEGIN CTAB
M  V30 COUNTS 28 28 0 0 0
M  V30 BEGIN ATOM
M  V30 1 C 4.08945 0.0866565 -1.48597 0
M  V30 2 C 3.91644 0.922544 -0.255658 0
M  V30 3 O 2.86783 0.364867 0.512114 0
M  V30 4 C 1.56993 0.224655 0.0433178 0
M  V30 5 O 1.28373 0.600845 -1.11064 0
M  V30 6 C 0.580965 -0.377738 0.964766 0
M  V30 7 C -0.766908 -0.491149 0.386875 0
M  V30 8 C -1.55474 0.636088 0.281477 0
M  V30 9 N -1.02409 1.87412 0.739481 0
M  V30 10 C -2.82989 0.574547 -0.255108 0
M  V30 11 C -3.37798 -0.61233 -0.710832 0
M  V30 12 C -2.57968 -1.74281 -0.601808 0
M  V30 13 C -1.30455 -1.67905 -0.0648319 0
M  V30 14 Cl -0.335431 -3.12234 0.0539405 0
M  V30 15 N -4.68203 -0.65388 -1.25496 0
M  V30 16 H 3.32013 -0.698496 -1.59814 0
M  V30 17 H 4.10939 0.705047 -2.42915 0
M  V30 18 H 5.07627 -0.457631 -1.43846 0
M  V30 19 H 4.83954 0.847707 0.38976 0
M  V30 20 H 3.66971 1.9804 -0.471623 0
M  V30 21 H 0.600425 0.251969 1.89805 0
M  V30 22 H 0.981252 -1.37684 1.29577 0
M  V30 23 H -0.698761 2.54912 0.017977 0
M  V30 24 H -0.949668 2.12562 1.73508 0
M  V30 25 H -3.46378 1.45882 -0.344391 0
M  V30 26 H -3.01819 -2.67239 -0.962641 0
M  V30 27 H -5.24518 -1.51653 -1.23072 0
M  V30 28 H -5.07419 0.198175 -1.68367 0
M  V30 END ATOM
M  V30 BEGIN BOND
M  V30 1 1 1 2
M  V30 2 1 2 3
M  V30 3 1 3 4
M  V30 4 2 4 5
M  V30 5 1 4 6
M  V30 6 1 6 7
M  V30 7 2 7 8
M  V30 8 1 8 9
M  V30 9 1 8 10
M  V30 10 2 10 11
M  V30 11 1 11 12
M  V30 12 2 12 13
M  V30 13 1 13 14
M  V30 14 1 11 15
M  V30 15 1 13 7
M  V30 16 1 1 16
M  V30 17 1 1 17
M  V30 18 1 1 18
M  V30 19 1 2 19
M  V30 20 1 2 20
M  V30 21 1 6 21
M  V30 22 1 6 22
M  V30 23 1 9 23
M  V30 24 1 9 24
M  V30 25 1 10 25
M  V30 26 1 12 26
M  V30 27 1 15 27
M  V30 28 1 15 28
M  V30 END BOND
M  V30 END CTAB
M  END
