
     RDKit          3D

  0  0  0  0  0  0  0  0  0  0999 V3000
M  V30 BEGIN CTAB
M  V30 COUNTS 38 38 0 0 0
M  V30 BEGIN ATOM
M  V30 1 C 4.00608 -2.46066 1.98008 0
M  V30 2 C 3.75219 -1.32366 1.0291 0
M  V30 3 C 2.34685 -1.31169 0.495376 0
M  V30 4 C 2.25241 -0.104946 -0.448561 0
M  V30 5 C 0.887613 -0.0818892 -0.97549 0
M  V30 6 O 0.692817 -0.151979 -2.20487 0
M  V30 7 N -0.207748 0.0198342 -0.089434 0
M  V30 8 C -1.56246 0.0440737 -0.590622 0
M  V30 9 C -2.41465 -1.02505 0.0684122 0
M  V30 10 C -3.81484 -0.473278 -0.0638868 0
M  V30 11 C -3.67871 1.00088 -0.32031 0
M  V30 12 C -2.23678 1.30263 -0.0852993 0
M  V30 13 C -1.7492 2.52002 -0.814813 0
M  V30 14 N -2.42102 3.6839 -0.295921 0
M  V30 15 N 3.2441 -0.213036 -1.49492 0
M  V30 16 H 3.71309 -2.10595 3.00598 0
M  V30 17 H 5.09402 -2.67819 1.95879 0
M  V30 18 H 3.44417 -3.37727 1.73641 0
M  V30 19 H 3.91403 -0.380897 1.56807 0
M  V30 20 H 4.43283 -1.43978 0.146958 0
M  V30 21 H 1.63427 -1.15163 1.3212 0
M  V30 22 H 2.12103 -2.21378 -0.115891 0
M  V30 23 H 2.49839 0.775012 0.182426 0
M  V30 24 H -0.0630434 0.0779533 0.918025 0
M  V30 25 H -1.64461 -0.0210465 -1.67419 0
M  V30 26 H -2.1484 -1.04862 1.14997 0
M  V30 27 H -2.30126 -2.01483 -0.413108 0
M  V30 28 H -4.4061 -0.684738 0.86656 0
M  V30 29 H -4.35066 -0.977057 -0.920928 0
M  V30 30 H -4.3674 1.62173 0.287105 0
M  V30 31 H -3.87625 1.17313 -1.4118 0
M  V30 32 H -1.96889 1.40312 0.981944 0
M  V30 33 H -0.660071 2.62826 -0.56818 0
M  V30 34 H -1.80488 2.43822 -1.90944 0
M  V30 35 H -2.81109 3.46552 0.627286 0
M  V30 36 H -3.11536 4.01536 -1.00096 0
M  V30 37 H 4.12453 0.299216 -1.23415 0
M  V30 38 H 3.44498 -1.22887 -1.69093 0
M  V30 END ATOM
M  V30 BEGIN BOND
M  V30 1 1 1 2
M  V30 2 1 2 3
M  V30 3 1 3 4
M  V30 4 1 4 5
M  V30 5 2 5 6
M  V30 6 1 5 7
M  V30 7 1 7 8
M  V30 8 1 8 9
M  V30 9 1 9 10
M  V30 10 1 10 11
M  V30 11 1 11 12
M  V30 12 1 12 13
M  V30 13 1 13 14
M  V30 14 1 4 15
M  V30 15 1 12 8
M  V30 16 1 1 16
M  V30 17 1 1 17
M  V30 18 1 1 18
M  V30 19 1 2 19
M  V30 20 1 2 20
M  V30 21 1 3 21
M  V30 22 1 3 22
M  V30 23 1 4 23
M  V30 24 1 7 24
M  V30 25 1 8 25
M  V30 26 1 9 26
M  V30 27 1 9 27
M  V30 28 1 10 28
M  V30 29 1 10 29
M  V30 30 1 11 30
M  V30 31 1 11 31
M  V30 32 1 12 32
M  V30 33 1 13 33
M  V30 34 1 13 34
M  V30 35 1 14 35
M  V30 36 1 14 36
M  V30 37 1 15 37
M  V30 38 1 15 38
M  V30 END BOND
M  V30 END CTAB
M  END
