
     RDKit          3D

  0  0  0  0  0  0  0  0  0  0999 V3000
M  V30 BEGIN CTAB
M  V30 COUNTS 52 55 0 0 0
M  V30 BEGIN ATOM
M  V30 1 N -5.36227 -1.64967 -1.52906 0
M  V30 2 C -4.70716 -0.703161 -0.640082 0
M  V30 3 C -5.82139 0.192542 -0.0862046 0
M  V30 4 C -5.14183 1.44522 0.423527 0
M  V30 5 C -3.71765 1.16307 0.859785 0
M  V30 6 C -2.82189 0.831558 -0.317158 0
M  V30 7 C -3.75319 0.205353 -1.36707 0
M  V30 8 O -1.81032 -0.0257274 0.0557629 0
M  V30 9 C -0.447167 0.113775 -0.0997832 0
M  V30 10 C 0.173087 1.1866 -0.683583 0
M  V30 11 C 1.53123 1.26945 -0.812566 0
M  V30 12 C 2.37338 0.225621 -0.336374 0
M  V30 13 C 3.79735 0.407888 -0.508937 0
M  V30 14 C 4.66232 -0.595498 -0.781036 0
M  V30 15 C 6.02242 -0.345321 -1.03622 0
M  V30 16 C 6.47537 0.938177 -1.00939 0
M  V30 17 C 5.5943 1.95879 -0.733904 0
M  V30 18 N 6.08498 3.29283 -0.710888 0
M  V30 19 N 4.30708 1.67279 -0.496235 0
M  V30 20 C 1.77819 -0.85005 0.253323 0
M  V30 21 C 0.402635 -0.886799 0.356017 0
M  V30 22 C -0.22558 -2.09431 0.959597 0
M  V30 23 C 0.43863 -2.32622 2.26809 0
M  V30 24 C 1.91122 -2.42802 2.19687 0
M  V30 25 C 2.5413 -1.97064 0.895033 0
M  V30 26 H -6.07091 -1.20626 -2.12397 0
M  V30 27 H -5.71008 -2.44424 -0.96081 0
M  V30 28 H -4.22855 -1.2843 0.172001 0
M  V30 29 H -6.46113 0.44344 -0.959839 0
M  V30 30 H -6.37539 -0.338786 0.691572 0
M  V30 31 H -5.10339 2.2444 -0.327224 0
M  V30 32 H -5.69765 1.78945 1.30462 0
M  V30 33 H -3.34484 2.08159 1.35636 0
M  V30 34 H -3.68233 0.361607 1.63734 0
M  V30 35 H -2.41695 1.73117 -0.79964 0
M  V30 36 H -4.32165 1.05473 -1.80171 0
M  V30 37 H -3.16951 -0.320966 -2.14601 0
M  V30 38 H -0.458304 2.00757 -1.05948 0
M  V30 39 H 2.01401 2.1245 -1.27768 0
M  V30 40 H 4.41432 -1.65601 -0.864829 0
M  V30 41 H 6.72014 -1.13948 -1.25305 0
M  V30 42 H 7.52662 1.20434 -1.19984 0
M  V30 43 H 5.88839 3.92782 0.0930479 0
M  V30 44 H 6.64293 3.62827 -1.50625 0
M  V30 45 H -1.30218 -1.99335 1.09341 0
M  V30 46 H -0.00207818 -2.94623 0.262976 0
M  V30 47 H 0.106952 -1.5111 2.97325 0
M  V30 48 H -0.011856 -3.26063 2.71106 0
M  V30 49 H 2.21808 -3.49091 2.35964 0
M  V30 50 H 2.33246 -1.87232 3.06446 0
M  V30 51 H 3.55472 -1.59697 1.24013 0
M  V30 52 H 2.65314 -2.81644 0.200922 0
M  V30 END ATOM
M  V30 BEGIN BOND
M  V30 1 1 1 2
M  V30 2 1 2 3
M  V30 3 1 3 4
M  V30 4 1 4 5
M  V30 5 1 5 6
M  V30 6 1 6 7
M  V30 7 1 6 8
M  V30 8 1 8 9
M  V30 9 2 9 10
M  V30 10 1 10 11
M  V30 11 2 11 12
M  V30 12 1 12 13
M  V30 13 2 13 14
M  V30 14 1 14 15
M  V30 15 2 15 16
M  V30 16 1 16 17
M  V30 17 1 17 18
M  V30 18 2 17 19
M  V30 19 1 12 20
M  V30 20 2 20 21
M  V30 21 1 21 22
M  V30 22 1 22 23
M  V30 23 1 23 24
M  V30 24 1 24 25
M  V30 25 1 7 2
M  V30 26 1 21 9
M  V30 27 1 19 13
M  V30 28 1 25 20
M  V30 29 1 1 26
M  V30 30 1 1 27
M  V30 31 1 2 28
M  V30 32 1 3 29
M  V30 33 1 3 30
M  V30 34 1 4 31
M  V30 35 1 4 32
M  V30 36 1 5 33
M  V30 37 1 5 34
M  V30 38 1 6 35
M  V30 39 1 7 36
M  V30 40 1 7 37
M  V30 41 1 10 38
M  V30 42 1 11 39
M  V30 43 1 14 40
M  V30 44 1 15 41
M  V30 45 1 16 42
M  V30 46 1 18 43
M  V30 47 1 18 44
M  V30 48 1 22 45
M  V30 49 1 22 46
M  V30 50 1 23 47
M  V30 51 1 23 48
M  V30 52 1 24 49
M  V30 53 1 24 50
M  V30 54 1 25 51
M  V30 55 1 25 52
M  V30 END BOND
M  V30 END CTAB
M  END
