
     RDKit          3D

  0  0  0  0  0  0  0  0  0  0999 V3000
M  V30 BEGIN CTAB
M  V30 COUNTS 18 18 0 0 0
M  V30 BEGIN ATOM
M  V30 1 N -3.66385 -0.347437 0.196313 0
M  V30 2 N -2.6176 0.570627 0.04872 0
M  V30 3 C -1.26462 0.133146 -0.0476063 0
M  V30 4 N -0.933725 -1.15372 -0.00209182 0
M  V30 5 C 0.364075 -1.51336 -0.0979144 0
M  V30 6 C 1.38414 -0.592752 -0.243669 0
M  V30 7 C 1.0108 0.734021 -0.28765 0
M  V30 8 N -0.293815 1.0382 -0.187983 0
M  V30 9 N 1.90709 1.80975 -0.431334 0
M  V30 10 N 2.74471 -0.921092 -0.347215 0 CHG=1
M  V30 11 O 3.08023 -2.03533 -0.815422 0
M  V30 12 O 3.73718 -0.0551625 0.0509201 0 CHG=-1
M  V30 13 H -3.28071 -1.14175 0.758647 0
M  V30 14 H -4.45376 0.0767686 0.729546 0
M  V30 15 H -2.86343 1.56623 0.0127913 0
M  V30 16 H 0.68037 -2.56444 -0.0648278 0
M  V30 17 H 1.94922 2.3245 -1.32029 0
M  V30 18 H 2.5137 2.07181 0.356681 0
M  V30 END ATOM
M  V30 BEGIN BOND
M  V30 1 1 1 2
M  V30 2 1 2 3
M  V30 3 2 3 4
M  V30 4 1 4 5
M  V30 5 2 5 6
M  V30 6 1 6 7
M  V30 7 2 7 8
M  V30 8 1 7 9
M  V30 9 1 6 10
M  V30 10 2 10 11
M  V30 11 1 10 12
M  V30 12 1 8 3
M  V30 13 1 1 13
M  V30 14 1 1 14
M  V30 15 1 2 15
M  V30 16 1 5 16
M  V30 17 1 9 17
M  V30 18 1 9 18
M  V30 END BOND
M  V30 END CTAB
M  END
