
     RDKit          3D

  0  0  0  0  0  0  0  0  0  0999 V3000
M  V30 BEGIN CTAB
M  V30 COUNTS 28 28 0 0 0
M  V30 BEGIN ATOM
M  V30 1 O -3.17793 1.68685 0.736279 0
M  V30 2 C -3.3914 1.04182 -0.461486 0
M  V30 3 C -2.14647 0.562888 -1.12139 0
M  V30 4 N -1.34156 -0.358674 -0.417995 0
M  V30 5 C -0.0119643 -0.0320394 -0.0488865 0
M  V30 6 C 0.307479 0.980782 0.781977 0
M  V30 7 C 1.66665 1.16962 1.06874 0
M  V30 8 C 2.62546 0.360412 0.528536 0
M  V30 9 C 2.2565 -0.663492 -0.315505 0
M  V30 10 C 0.956062 -0.87452 -0.614518 0
M  V30 11 N 3.25701 -1.53415 -0.889274 0
M  V30 12 N 3.9981 0.530525 0.803988 0
M  V30 13 C -1.79891 -1.7112 -0.0921664 0
M  V30 14 H -4.04926 2.05406 1.0409 0
M  V30 15 H -4.17878 0.260856 -0.386884 0
M  V30 16 H -3.82361 1.82666 -1.15696 0
M  V30 17 H -1.51907 1.46023 -1.39623 0
M  V30 18 H -2.38046 0.101656 -2.11547 0
M  V30 19 H -0.434677 1.6201 1.20988 0
M  V30 20 H 1.92065 1.98259 1.73106 0
M  V30 21 H 0.669633 -1.69486 -1.29175 0
M  V30 22 H 3.51667 -2.40341 -0.374486 0
M  V30 23 H 3.71787 -1.31592 -1.79457 0
M  V30 24 H 4.30679 0.809264 1.75477 0
M  V30 25 H 4.73911 0.385384 0.0731861 0
M  V30 26 H -2.79782 -1.70622 0.360173 0
M  V30 27 H -1.10364 -2.18839 0.613019 0
M  V30 28 H -1.78243 -2.35082 -1.02173 0
M  V30 END ATOM
M  V30 BEGIN BOND
M  V30 1 1 1 2
M  V30 2 1 2 3
M  V30 3 1 3 4
M  V30 4 1 4 5
M  V30 5 2 5 6
M  V30 6 1 6 7
M  V30 7 2 7 8
M  V30 8 1 8 9
M  V30 9 2 9 10
M  V30 10 1 9 11
M  V30 11 1 8 12
M  V30 12 1 4 13
M  V30 13 1 10 5
M  V30 14 1 1 14
M  V30 15 1 2 15
M  V30 16 1 2 16
M  V30 17 1 3 17
M  V30 18 1 3 18
M  V30 19 1 6 19
M  V30 20 1 7 20
M  V30 21 1 10 21
M  V30 22 1 11 22
M  V30 23 1 11 23
M  V30 24 1 12 24
M  V30 25 1 12 25
M  V30 26 1 13 26
M  V30 27 1 13 27
M  V30 28 1 13 28
M  V30 END BOND
M  V30 END CTAB
M  END
