
     RDKit          3D

  0  0  0  0  0  0  0  0  0  0999 V3000
M  V30 BEGIN CTAB
M  V30 COUNTS 36 37 0 0 0
M  V30 BEGIN ATOM
M  V30 1 N 3.81907 2.10205 -0.0116116 0
M  V30 2 C 3.18599 1.11455 0.804433 0
M  V30 3 N 3.70813 0.725577 1.95872 0
M  V30 4 C 3.10736 -0.206691 2.72579 0
M  V30 5 C 1.92166 -0.814229 2.36834 0
M  V30 6 C 1.35193 -0.433315 1.1749 0
M  V30 7 C 1.98246 0.521215 0.406158 0
M  V30 8 C 0.0721386 -1.01286 0.673709 0 CFG=2
M  V30 9 C 0.413638 -1.64971 -0.642308 0
M  V30 10 C -0.721446 -2.32562 -1.33113 0
M  V30 11 C -1.58747 -1.45337 -2.15719 0
M  V30 12 C -1.61064 -0.0320045 -1.63019 0
M  V30 13 N -2.03948 -0.152276 -0.239784 0
M  V30 14 C -0.884084 0.127461 0.57655 0
M  V30 15 S -3.2381 1.05355 0.0212464 0
M  V30 16 O -3.73498 0.901563 1.4352 0
M  V30 17 O -4.35238 0.815067 -0.957617 0
M  V30 18 N -2.60947 2.62276 -0.218113 0
M  V30 19 H 3.55372 3.09544 0.124662 0
M  V30 20 H 4.52813 1.80667 -0.720688 0
M  V30 21 H 3.58432 -0.484501 3.66252 0
M  V30 22 H 1.41843 -1.55251 2.94614 0
M  V30 23 H 1.60048 0.876627 -0.545675 0
M  V30 24 H -0.260768 -1.74544 1.43456 0
M  V30 25 H 0.924186 -0.906822 -1.26729 0
M  V30 26 H 1.17057 -2.44113 -0.414048 0
M  V30 27 H -0.26314 -3.09424 -2.02267 0
M  V30 28 H -1.34139 -2.89512 -0.630444 0
M  V30 29 H -2.63679 -1.86417 -2.16084 0
M  V30 30 H -1.27386 -1.40089 -3.21722 0
M  V30 31 H -2.27265 0.61868 -2.21096 0
M  V30 32 H -0.587346 0.386096 -1.71783 0
M  V30 33 H -1.19499 0.397604 1.60731 0
M  V30 34 H -0.395961 1.02861 0.155711 0
M  V30 35 H -2.0523 2.96011 0.594724 0
M  V30 36 H -3.28499 3.31126 -0.575068 0
M  V30 END ATOM
M  V30 BEGIN BOND
M  V30 1 1 1 2
M  V30 2 2 2 3
M  V30 3 1 3 4
M  V30 4 2 4 5
M  V30 5 1 5 6
M  V30 6 2 6 7
M  V30 7 1 6 8
M  V30 8 1 8 9
M  V30 9 1 9 10
M  V30 10 1 10 11
M  V30 11 1 11 12
M  V30 12 1 12 13
M  V30 13 1 13 14
M  V30 14 1 13 15
M  V30 15 2 15 16
M  V30 16 2 15 17
M  V30 17 1 15 18
M  V30 18 1 7 2
M  V30 19 1 14 8
M  V30 20 1 1 19
M  V30 21 1 1 20
M  V30 22 1 4 21
M  V30 23 1 5 22
M  V30 24 1 7 23
M  V30 25 1 8 24 CFG=1
M  V30 26 1 9 25
M  V30 27 1 9 26
M  V30 28 1 10 27
M  V30 29 1 10 28
M  V30 30 1 11 29
M  V30 31 1 11 30
M  V30 32 1 12 31
M  V30 33 1 12 32
M  V30 34 1 14 33
M  V30 35 1 14 34
M  V30 36 1 18 35
M  V30 37 1 18 36
M  V30 END BOND
M  V30 END CTAB
M  END
