
     RDKit          3D

  0  0  0  0  0  0  0  0  0  0999 V3000
M  V30 BEGIN CTAB
M  V30 COUNTS 21 22 0 0 0
M  V30 BEGIN ATOM
M  V30 1 C -2.74337 -1.59288 0.332093 0
M  V30 2 C -1.47126 -0.804785 0.16646 0
M  V30 3 N -0.214271 -1.28125 0.230979 0
M  V30 4 N 0.659881 -0.296085 0.0365057 0
M  V30 5 C -0.00938963 0.85197 -0.160445 0
M  V30 6 N 0.684603 1.98285 -0.378236 0
M  V30 7 C 2.02862 2.03017 -0.410464 0
M  V30 8 C 2.72783 0.858601 -0.209763 0
M  V30 9 C 2.01854 -0.298277 0.0130225 0
M  V30 10 N 2.68586 -1.52276 0.223897 0
M  V30 11 C -1.34932 0.538669 -0.0799253 0
M  V30 12 N -2.43688 1.44119 -0.224884 0
M  V30 13 H -3.55731 -1.0816 -0.20633 0
M  V30 14 H -2.96719 -1.66718 1.43327 0
M  V30 15 H -2.59998 -2.63797 -0.0069516 0
M  V30 16 H 2.57358 2.95476 -0.588131 0
M  V30 17 H 3.82497 0.868955 -0.230927 0
M  V30 18 H 2.94878 -1.79402 1.18379 0
M  V30 19 H 2.91296 -2.14685 -0.565204 0
M  V30 20 H -2.3438 2.44531 0.0356513 0
M  V30 21 H -3.37284 1.15117 -0.594414 0
M  V30 END ATOM
M  V30 BEGIN BOND
M  V30 1 1 1 2
M  V30 2 2 2 3
M  V30 3 1 3 4
M  V30 4 1 4 5
M  V30 5 1 5 6
M  V30 6 2 6 7
M  V30 7 1 7 8
M  V30 8 2 8 9
M  V30 9 1 9 10
M  V30 10 2 5 11
M  V30 11 1 11 12
M  V30 12 1 11 2
M  V30 13 1 9 4
M  V30 14 1 1 13
M  V30 15 1 1 14
M  V30 16 1 1 15
M  V30 17 1 7 16
M  V30 18 1 8 17
M  V30 19 1 10 18
M  V30 20 1 10 19
M  V30 21 1 12 20
M  V30 22 1 12 21
M  V30 END BOND
M  V30 END CTAB
M  END
