
     RDKit          3D

  0  0  0  0  0  0  0  0  0  0999 V3000
M  V30 BEGIN CTAB
M  V30 COUNTS 31 33 0 0 0
M  V30 BEGIN ATOM
M  V30 1 N 4.38313 -2.50393 -0.710726 0
M  V30 2 C 3.21292 -1.68086 -0.529634 0
M  V30 3 N 3.29014 -0.339007 -0.522554 0
M  V30 4 C 2.20453 0.454522 -0.354014 0
M  V30 5 C 0.975227 -0.200962 -0.184178 0
M  V30 6 C 0.941546 -1.57996 -0.198391 0
M  V30 7 O -0.17296 -2.15923 -0.0454349 0
M  V30 8 N 2.059 -2.31762 -0.370748 0
M  V30 9 C -0.124254 0.618703 -0.016188 0
M  V30 10 C -1.42723 0.0276742 0.180349 0
M  V30 11 C -1.84872 -0.274859 1.45043 0
M  V30 12 C -3.07856 -0.810785 1.76355 0
M  V30 13 C -3.93331 -1.0532 0.709112 0
M  V30 14 Cl -5.50764 -1.73204 1.03998 0
M  V30 15 C -3.51475 -0.74858 -0.59306 0
M  V30 16 C -2.27677 -0.214665 -0.853975 0
M  V30 17 C -0.0101286 2.01898 -0.0174701 0
M  V30 18 C -1.185 2.80262 0.160416 0
M  V30 19 N -2.13169 3.44989 0.318546 0
M  V30 20 C 1.22827 2.5537 -0.190264 0
M  V30 21 N 1.29613 3.9873 -0.184569 0
M  V30 22 N 2.32665 1.79533 -0.356855 0
M  V30 23 H 5.14334 -2.54403 -0.00584347 0
M  V30 24 H 4.4176 -3.05784 -1.59696 0
M  V30 25 H 1.93307 -3.34556 -0.366558 0
M  V30 26 H -1.21134 -0.104624 2.34084 0
M  V30 27 H -3.36946 -1.03329 2.77432 0
M  V30 28 H -4.22558 -0.957799 -1.3948 0
M  V30 29 H -2.03703 -0.00753637 -1.918 0
M  V30 30 H 1.41525 4.4462 0.73844 0
M  V30 31 H 1.22761 4.51146 -1.06575 0
M  V30 END ATOM
M  V30 BEGIN BOND
M  V30 1 1 1 2
M  V30 2 2 2 3
M  V30 3 1 3 4
M  V30 4 2 4 5
M  V30 5 1 5 6
M  V30 6 2 6 7
M  V30 7 1 6 8
M  V30 8 1 5 9
M  V30 9 1 9 10
M  V30 10 2 10 11
M  V30 11 1 11 12
M  V30 12 2 12 13
M  V30 13 1 13 14
M  V30 14 1 13 15
M  V30 15 2 15 16
M  V30 16 2 9 17
M  V30 17 1 17 18
M  V30 18 3 18 19
M  V30 19 1 17 20
M  V30 20 1 20 21
M  V30 21 2 20 22
M  V30 22 1 8 2
M  V30 23 1 16 10
M  V30 24 1 22 4
M  V30 25 1 1 23
M  V30 26 1 1 24
M  V30 27 1 8 25
M  V30 28 1 11 26
M  V30 29 1 12 27
M  V30 30 1 15 28
M  V30 31 1 16 29
M  V30 32 1 21 30
M  V30 33 1 21 31
M  V30 END BOND
M  V30 END CTAB
M  END
