
     RDKit          3D

  0  0  0  0  0  0  0  0  0  0999 V3000
M  V30 BEGIN CTAB
M  V30 COUNTS 49 50 0 0 0
M  V30 BEGIN ATOM
M  V30 1 C -5.64176 -1.14797 0.610813 0
M  V30 2 C -5.56462 0.16161 -0.163421 0
M  V30 3 O -4.29903 0.709911 -0.114041 0
M  V30 4 C -3.34567 -0.131004 -0.65314 0
M  V30 5 C -2.46108 0.54824 -1.70489 0
M  V30 6 C -1.33478 -0.304143 -1.10168 0
M  V30 7 C -2.05458 -0.235359 0.183893 0
M  V30 8 C -2.12639 -1.56936 0.937391 0
M  V30 9 C -1.98405 0.958917 1.05562 0
M  V30 10 N -1.47495 -1.6519 -1.64879 0
M  V30 11 C -0.00125278 0.210769 -1.26047 0
M  V30 12 O 0.867059 -0.563874 -1.7987 0
M  V30 13 N 0.486043 1.47504 -0.897447 0
M  V30 14 C 1.8483 1.91047 -1.09352 0
M  V30 15 C 2.80855 1.35035 -0.121803 0
M  V30 16 C 2.85105 1.89931 1.16285 0
M  V30 17 C 3.73579 1.40788 2.09769 0
M  V30 18 C 4.6013 0.380819 1.82953 0
M  V30 19 C 4.56562 -0.164318 0.568273 0
M  V30 20 C 3.67992 0.316507 -0.391916 0
M  V30 21 S 5.62059 -1.47268 0.120772 0
M  V30 22 O 4.92876 -2.29928 -0.927661 0
M  V30 23 O 5.99158 -2.32929 1.28517 0
M  V30 24 N 7.0821 -0.782589 -0.512782 0
M  V30 25 H -5.16239 -0.960383 1.60853 0
M  V30 26 H -6.72859 -1.37363 0.721522 0
M  V30 27 H -5.19315 -1.9896 0.0690256 0
M  V30 28 H -6.25425 0.868768 0.353779 0
M  V30 29 H -5.90879 0.0543397 -1.19712 0
M  V30 30 H -3.68469 -1.09644 -1.04258 0
M  V30 31 H -2.72234 0.287649 -2.7389 0
M  V30 32 H -2.29329 1.62483 -1.50625 0
M  V30 33 H -2.67863 -2.3088 0.325179 0
M  V30 34 H -2.74632 -1.39855 1.8493 0
M  V30 35 H -1.11804 -1.92009 1.20859 0
M  V30 36 H -2.33959 1.87794 0.527261 0
M  V30 37 H -2.75263 0.806973 1.87281 0
M  V30 38 H -1.03329 1.11007 1.58268 0
M  V30 39 H -1.0196 -2.35821 -1.05579 0
M  V30 40 H -1.15411 -1.6854 -2.64772 0
M  V30 41 H -0.161857 2.16139 -0.457503 0
M  V30 42 H 1.94092 3.01572 -1.11006 0
M  V30 43 H 2.21256 1.58209 -2.11073 0
M  V30 44 H 2.16228 2.72288 1.39012 0
M  V30 45 H 3.73597 1.86649 3.09069 0
M  V30 46 H 5.29128 0.00613405 2.577 0
M  V30 47 H 3.67845 -0.126175 -1.36395 0
M  V30 48 H 7.30125 0.0419832 0.106468 0
M  V30 49 H 7.85033 -1.48806 -0.522508 0
M  V30 END ATOM
M  V30 BEGIN BOND
M  V30 1 1 1 2
M  V30 2 1 2 3
M  V30 3 1 3 4
M  V30 4 1 4 5
M  V30 5 1 5 6
M  V30 6 1 6 7
M  V30 7 1 7 8
M  V30 8 1 7 9
M  V30 9 1 6 10
M  V30 10 1 6 11
M  V30 11 2 11 12
M  V30 12 1 11 13
M  V30 13 1 13 14
M  V30 14 1 14 15
M  V30 15 2 15 16
M  V30 16 1 16 17
M  V30 17 2 17 18
M  V30 18 1 18 19
M  V30 19 2 19 20
M  V30 20 1 19 21
M  V30 21 2 21 22
M  V30 22 2 21 23
M  V30 23 1 21 24
M  V30 24 1 7 4
M  V30 25 1 20 15
M  V30 26 1 1 25
M  V30 27 1 1 26
M  V30 28 1 1 27
M  V30 29 1 2 28
M  V30 30 1 2 29
M  V30 31 1 4 30
M  V30 32 1 5 31
M  V30 33 1 5 32
M  V30 34 1 8 33
M  V30 35 1 8 34
M  V30 36 1 8 35
M  V30 37 1 9 36
M  V30 38 1 9 37
M  V30 39 1 9 38
M  V30 40 1 10 39
M  V30 41 1 10 40
M  V30 42 1 13 41
M  V30 43 1 14 42
M  V30 44 1 14 43
M  V30 45 1 16 44
M  V30 46 1 17 45
M  V30 47 1 18 46
M  V30 48 1 20 47
M  V30 49 1 24 48
M  V30 50 1 24 49
M  V30 END BOND
M  V30 END CTAB
M  END
