
     RDKit          3D

  0  0  0  0  0  0  0  0  0  0999 V3000
M  V30 BEGIN CTAB
M  V30 COUNTS 45 45 0 0 0
M  V30 BEGIN ATOM
M  V30 1 N 4.4012 -2.21988 0.171983 0
M  V30 2 C 3.34574 -1.34908 -0.0597696 0
M  V30 3 C 3.60392 -0.0659896 0.627416 0
M  V30 4 C 2.63601 0.940043 0.503855 0
M  V30 5 N 1.45718 0.715805 -0.261828 0
M  V30 6 C 0.504844 1.8027 -0.34177 0
M  V30 7 C -0.684778 1.48517 -1.17274 0 CFG=1
M  V30 8 N -0.279592 1.18006 -2.56112 0
M  V30 9 C -1.5015 0.305003 -0.659371 0
M  V30 10 C -2.0106 0.579313 0.713679 0
M  V30 11 C -2.81478 -0.508536 1.33857 0
M  V30 12 N -4.01066 -0.887992 0.655645 0
M  V30 13 C -4.08389 -1.57829 -0.570895 0
M  V30 14 N -3.27473 -2.58923 -0.718928 0
M  V30 15 N -4.966 -1.2571 -1.62117 0
M  V30 16 N -5.96981 -0.291483 -1.5565 0 CHG=1
M  V30 17 O -5.79804 0.777208 -0.732424 0 CHG=-1
M  V30 18 O -7.01169 -0.405608 -2.24788 0
M  V30 19 C 2.90284 2.1241 1.15732 0
M  V30 20 C 4.05311 2.32264 1.89527 0
M  V30 21 C 4.99476 1.32405 2.00728 0
M  V30 22 C 4.7551 0.126345 1.36335 0
M  V30 23 H 5.25095 -1.96982 -0.217587 0
M  V30 24 H 4.37358 -2.87139 0.876633 0
M  V30 25 H 2.41139 -1.80079 0.331276 0
M  V30 26 H 3.21699 -1.10495 -1.15284 0
M  V30 27 H 1.32376 -0.190858 -0.723836 0
M  V30 28 H 0.207799 2.1199 0.658808 0
M  V30 29 H 1.03681 2.65381 -0.860491 0
M  V30 30 H -1.3258 2.38339 -1.24508 0
M  V30 31 H -0.486601 0.205885 -2.80343 0
M  V30 32 H 0.706156 1.47522 -2.65406 0
M  V30 33 H -2.38437 0.235461 -1.35811 0
M  V30 34 H -0.937835 -0.636614 -0.741126 0
M  V30 35 H -1.11643 0.833567 1.3516 0
M  V30 36 H -2.60045 1.5321 0.667129 0
M  V30 37 H -2.21144 -1.44496 1.48318 0
M  V30 38 H -3.10852 -0.149344 2.3672 0
M  V30 39 H -4.94544 -0.640001 1.08692 0
M  V30 40 H -2.61228 -2.88374 0.00574281 0
M  V30 41 H -4.88218 -1.76444 -2.525 0
M  V30 42 H 2.16229 2.89865 1.0643 0
M  V30 43 H 4.24865 3.25512 2.40293 0
M  V30 44 H 5.9091 1.45982 2.58394 0
M  V30 45 H 5.51523 -0.633695 1.47193 0
M  V30 END ATOM
M  V30 BEGIN BOND
M  V30 1 1 1 2
M  V30 2 1 2 3
M  V30 3 2 3 4
M  V30 4 1 4 5
M  V30 5 1 5 6
M  V30 6 1 6 7
M  V30 7 1 7 8
M  V30 8 1 7 9
M  V30 9 1 9 10
M  V30 10 1 10 11
M  V30 11 1 11 12
M  V30 12 1 12 13
M  V30 13 2 13 14 CFG=2
M  V30 14 1 13 15
M  V30 15 1 15 16
M  V30 16 1 16 17
M  V30 17 2 16 18
M  V30 18 1 4 19
M  V30 19 2 19 20
M  V30 20 1 20 21
M  V30 21 2 21 22
M  V30 22 1 22 3
M  V30 23 1 1 23
M  V30 24 1 1 24
M  V30 25 1 2 25
M  V30 26 1 2 26
M  V30 27 1 5 27
M  V30 28 1 6 28
M  V30 29 1 6 29
M  V30 30 1 7 30 CFG=3
M  V30 31 1 8 31
M  V30 32 1 8 32
M  V30 33 1 9 33
M  V30 34 1 9 34
M  V30 35 1 10 35
M  V30 36 1 10 36
M  V30 37 1 11 37
M  V30 38 1 11 38
M  V30 39 1 12 39
M  V30 40 1 14 40
M  V30 41 1 15 41
M  V30 42 1 19 42
M  V30 43 1 20 43
M  V30 44 1 21 44
M  V30 45 1 22 45
M  V30 END BOND
M  V30 END CTAB
M  END
