
     RDKit          3D

  0  0  0  0  0  0  0  0  0  0999 V3000
M  V30 BEGIN CTAB
M  V30 COUNTS 39 41 0 0 0
M  V30 BEGIN ATOM
M  V30 1 N -4.94993 -2.56948 -0.502029 0
M  V30 2 C -4.57084 -1.18051 -0.436845 0
M  V30 3 C -5.1097 -0.242175 -1.2935 0
M  V30 4 C -4.71888 1.0921 -1.19523 0
M  V30 5 N -5.24589 2.07822 -2.05712 0
M  V30 6 N -3.82752 1.42167 -0.266699 0
M  V30 7 C -3.27853 0.513524 0.593653 0
M  V30 8 N -3.6771 -0.750228 0.468097 0
M  V30 9 S -2.13015 1.07205 1.79722 0
M  V30 10 C -0.424034 1.13418 1.28324 0
M  V30 11 C 0.21963 -0.189357 1.1974 0
M  V30 12 C -0.398195 -1.34772 1.61849 0
M  V30 13 C 0.317299 -2.5495 1.53609 0
M  V30 14 C 1.60214 -2.57263 1.04954 0
M  V30 15 C 2.21097 -1.40207 0.63176 0
M  V30 16 C 1.53443 -0.226976 0.703018 0
M  V30 17 O 2.0719 0.995978 0.304623 0
M  V30 18 C 3.35984 1.07523 -0.209239 0
M  V30 19 C 3.63583 1.0003 -1.55963 0
M  V30 20 C 4.92431 1.08036 -2.05419 0
M  V30 21 C 5.99528 1.24038 -1.20351 0
M  V30 22 C 5.71214 1.31432 0.142798 0
M  V30 23 C 4.43098 1.23657 0.660981 0
M  V30 24 H -5.15218 -3.07056 -1.38283 0
M  V30 25 H -5.03758 -3.14691 0.383178 0
M  V30 26 H -5.83038 -0.56147 -2.03113 0
M  V30 27 H -5.68078 1.7798 -2.95322 0
M  V30 28 H -5.22502 3.09678 -1.84646 0
M  V30 29 H 0.118982 1.75506 2.04466 0
M  V30 30 H -0.29942 1.68822 0.294455 0
M  V30 31 H -1.39324 -1.36037 2.03593 0
M  V30 32 H -0.182772 -3.46119 1.87193 0
M  V30 33 H 2.12388 -3.50176 0.996681 0
M  V30 34 H 3.22437 -1.37293 0.24106 0
M  V30 35 H 2.77303 0.874511 -2.20981 0
M  V30 36 H 5.08924 1.01597 -3.13787 0
M  V30 37 H 7.00061 1.30296 -1.59558 0
M  V30 38 H 6.56594 1.44113 0.810292 0
M  V30 39 H 4.22132 1.29651 1.73025 0
M  V30 END ATOM
M  V30 BEGIN BOND
M  V30 1 1 1 2
M  V30 2 2 2 3
M  V30 3 1 3 4
M  V30 4 1 4 5
M  V30 5 2 4 6
M  V30 6 1 6 7
M  V30 7 2 7 8
M  V30 8 1 7 9
M  V30 9 1 9 10
M  V30 10 1 10 11
M  V30 11 2 11 12
M  V30 12 1 12 13
M  V30 13 2 13 14
M  V30 14 1 14 15
M  V30 15 2 15 16
M  V30 16 1 16 17
M  V30 17 1 17 18
M  V30 18 2 18 19
M  V30 19 1 19 20
M  V30 20 2 20 21
M  V30 21 1 21 22
M  V30 22 2 22 23
M  V30 23 1 8 2
M  V30 24 1 16 11
M  V30 25 1 23 18
M  V30 26 1 1 24
M  V30 27 1 1 25
M  V30 28 1 3 26
M  V30 29 1 5 27
M  V30 30 1 5 28
M  V30 31 1 10 29
M  V30 32 1 10 30
M  V30 33 1 12 31
M  V30 34 1 13 32
M  V30 35 1 14 33
M  V30 36 1 15 34
M  V30 37 1 19 35
M  V30 38 1 20 36
M  V30 39 1 21 37
M  V30 40 1 22 38
M  V30 41 1 23 39
M  V30 END BOND
M  V30 END CTAB
M  END
