
     RDKit          3D

  0  0  0  0  0  0  0  0  0  0999 V3000
M  V30 BEGIN CTAB
M  V30 COUNTS 26 27 0 0 0
M  V30 BEGIN ATOM
M  V30 1 N -4.38919 -1.296 0.925185 0
M  V30 2 C -3.25252 -0.598917 0.449378 0
M  V30 3 C -2.01058 -1.09725 0.759619 0
M  V30 4 C -0.867338 -0.416833 0.294693 0
M  V30 5 N 0.376401 -0.964977 0.615139 0
M  V30 6 C 1.64726 -0.450147 0.295361 0
M  V30 7 C 1.88382 0.834315 -0.0800374 0
M  V30 8 C 3.17781 1.25731 -0.402127 0
M  V30 9 C 4.23328 0.405362 -0.350271 0
M  V30 10 I 6.16335 1.12993 -0.855313 0
M  V30 11 C 4.02158 -0.889572 0.0245581 0
M  V30 12 C 2.75954 -1.29593 0.336702 0
M  V30 13 N -1.11447 0.678664 -0.423455 0
M  V30 14 C -2.30819 1.18185 -0.737592 0
M  V30 15 N -2.47659 2.36609 -1.51539 0
M  V30 16 N -3.39988 0.536434 -0.296482 0
M  V30 17 H -4.75452 -1.12934 1.87619 0
M  V30 18 H -4.84468 -1.97722 0.294938 0
M  V30 19 H -1.93132 -1.99203 1.34821 0
M  V30 20 H 0.366895 -1.88707 1.17327 0
M  V30 21 H 1.07793 1.58279 -0.129052 0
M  V30 22 H 3.29767 2.30038 -0.695785 0
M  V30 23 H 4.83418 -1.58283 0.0745809 0
M  V30 24 H 2.58667 -2.3393 0.638565 0
M  V30 25 H -2.03755 3.27035 -1.22908 0
M  V30 26 H -3.03956 2.37394 -2.39181 0
M  V30 END ATOM
M  V30 BEGIN BOND
M  V30 1 1 1 2
M  V30 2 2 2 3
M  V30 3 1 3 4
M  V30 4 1 4 5
M  V30 5 1 5 6
M  V30 6 2 6 7
M  V30 7 1 7 8
M  V30 8 2 8 9
M  V30 9 1 9 10
M  V30 10 1 9 11
M  V30 11 2 11 12
M  V30 12 2 4 13
M  V30 13 1 13 14
M  V30 14 1 14 15
M  V30 15 2 14 16
M  V30 16 1 16 2
M  V30 17 1 12 6
M  V30 18 1 1 17
M  V30 19 1 1 18
M  V30 20 1 3 19
M  V30 21 1 5 20
M  V30 22 1 7 21
M  V30 23 1 8 22
M  V30 24 1 11 23
M  V30 25 1 12 24
M  V30 26 1 15 25
M  V30 27 1 15 26
M  V30 END BOND
M  V30 END CTAB
M  END
