
     RDKit          3D

  0  0  0  0  0  0  0  0  0  0999 V3000
M  V30 BEGIN CTAB
M  V30 COUNTS 35 35 0 0 0
M  V30 BEGIN ATOM
M  V30 1 C -5.21122 0.828632 1.25001 0
M  V30 2 C -3.81245 0.253495 1.49492 0
M  V30 3 C -3.25859 -0.140566 0.168605 0
M  V30 4 C -1.90815 -0.715777 0.234756 0
M  V30 5 O -1.36306 -0.819969 1.36431 0
M  V30 6 N -1.17985 -1.16117 -0.895131 0
M  V30 7 C 0.144989 -1.72606 -0.835621 0
M  V30 8 C 1.19837 -0.702776 -0.637205 0
M  V30 9 C 0.887533 0.629056 -0.71674 0
M  V30 10 C 1.81428 1.62248 -0.540345 0
M  V30 11 C 3.11346 1.28606 -0.272 0
M  V30 12 C 3.45717 -0.0472982 -0.185859 0
M  V30 13 C 2.5136 -1.04423 -0.365554 0
M  V30 14 S 5.13658 -0.439887 0.159922 0
M  V30 15 O 5.15982 -1.68197 0.977562 0
M  V30 16 O 5.75843 0.709345 0.936251 0
M  V30 17 N 6.03544 -0.587544 -1.30767 0
M  V30 18 N -3.04289 1.21935 2.21123 0
M  V30 19 H -5.68489 1.14279 2.19225 0
M  V30 20 H -5.87121 0.0130701 0.833914 0
M  V30 21 H -5.20223 1.61935 0.490595 0
M  V30 22 H -3.97766 -0.62553 2.17128 0
M  V30 23 H -3.36965 0.683771 -0.548056 0
M  V30 24 H -3.92985 -0.962102 -0.221919 0
M  V30 25 H -1.62779 -1.07621 -1.82797 0
M  V30 26 H 0.185578 -2.38706 0.0690259 0
M  V30 27 H 0.384425 -2.2964 -1.75458 0
M  V30 28 H -0.145611 0.897662 -0.932191 0
M  V30 29 H 1.54921 2.66324 -0.606705 0
M  V30 30 H 3.88576 2.03487 -0.123927 0
M  V30 31 H 2.80042 -2.07782 -0.29429 0
M  V30 32 H 6.33145 0.36336 -1.58884 0
M  V30 33 H 5.46972 -0.995972 -2.08223 0
M  V30 34 H -2.63467 1.97559 1.65357 0
M  V30 35 H -3.60647 1.54625 3.0213 0
M  V30 END ATOM
M  V30 BEGIN BOND
M  V30 1 1 1 2
M  V30 2 1 2 3
M  V30 3 1 3 4
M  V30 4 2 4 5
M  V30 5 1 4 6
M  V30 6 1 6 7
M  V30 7 1 7 8
M  V30 8 2 8 9
M  V30 9 1 9 10
M  V30 10 2 10 11
M  V30 11 1 11 12
M  V30 12 2 12 13
M  V30 13 1 12 14
M  V30 14 2 14 15
M  V30 15 2 14 16
M  V30 16 1 14 17
M  V30 17 1 2 18
M  V30 18 1 13 8
M  V30 19 1 1 19
M  V30 20 1 1 20
M  V30 21 1 1 21
M  V30 22 1 2 22
M  V30 23 1 3 23
M  V30 24 1 3 24
M  V30 25 1 6 25
M  V30 26 1 7 26
M  V30 27 1 7 27
M  V30 28 1 9 28
M  V30 29 1 10 29
M  V30 30 1 11 30
M  V30 31 1 13 31
M  V30 32 1 17 32
M  V30 33 1 17 33
M  V30 34 1 18 34
M  V30 35 1 18 35
M  V30 END BOND
M  V30 END CTAB
M  END
