
     RDKit          3D

  0  0  0  0  0  0  0  0  0  0999 V3000
M  V30 BEGIN CTAB
M  V30 COUNTS 40 42 0 0 0
M  V30 BEGIN ATOM
M  V30 1 N -2.9023 -1.99028 1.79057 0
M  V30 2 C -2.58627 -2.20762 0.437727 0
M  V30 3 S -2.37383 -3.73943 -0.0623715 0
M  V30 4 C -2.44914 -1.11006 -0.497879 0
M  V30 5 C -1.32298 -0.154498 -0.288653 0
M  V30 6 C -1.46438 0.85704 -1.44128 0
M  V30 7 C -0.374772 1.87116 -1.38067 0
M  V30 8 C -0.397586 2.66057 -0.088058 0
M  V30 9 C -0.269108 1.65598 1.02551 0
M  V30 10 C -1.40625 0.657757 0.962794 0
M  V30 11 C 1.09437 1.00594 0.915029 0
M  V30 12 C 1.13999 0.160437 -0.313122 0
M  V30 13 C 2.4693 -0.464959 -0.615404 0
M  V30 14 C 3.06961 -1.36058 0.327204 0
M  V30 15 N 4.37242 -1.90587 0.00852864 0
M  V30 16 S 2.42494 -1.82774 1.71934 0
M  V30 17 C 0.945063 1.16728 -1.4866 0
M  V30 18 C 0.0288768 -0.834221 -0.306092 0
M  V30 19 H -2.23867 -2.07553 2.58854 0
M  V30 20 H -3.8896 -1.71357 2.07268 0
M  V30 21 H -2.36454 -1.51561 -1.53748 0
M  V30 22 H -3.37763 -0.466767 -0.56147 0
M  V30 23 H -1.4106 0.298882 -2.37384 0
M  V30 24 H -2.47943 1.28079 -1.33065 0
M  V30 25 H -0.463374 2.52725 -2.26823 0
M  V30 26 H 0.470284 3.33051 -0.0905917 0
M  V30 27 H -1.31189 3.24951 0.0109247 0
M  V30 28 H -0.324702 2.17757 2.01467 0
M  V30 29 H -1.49913 0.102934 1.89734 0
M  V30 30 H -2.33984 1.28312 0.879788 0
M  V30 31 H 1.27997 0.512834 1.86404 0
M  V30 32 H 1.80835 1.84789 0.767436 0
M  V30 33 H 3.2099 0.343857 -0.957923 0
M  V30 34 H 2.31362 -1.01869 -1.60755 0
M  V30 35 H 5.24783 -1.43164 0.253527 0
M  V30 36 H 4.38047 -2.82893 -0.495742 0
M  V30 37 H 1.74186 1.92589 -1.32811 0
M  V30 38 H 1.05271 0.631159 -2.44816 0
M  V30 39 H 0.120269 -1.49466 -1.19779 0
M  V30 40 H 0.0761939 -1.40769 0.637582 0
M  V30 END ATOM
M  V30 BEGIN BOND
M  V30 1 1 1 2
M  V30 2 2 2 3
M  V30 3 1 2 4
M  V30 4 1 4 5
M  V30 5 1 5 6
M  V30 6 1 6 7
M  V30 7 1 7 8
M  V30 8 1 8 9
M  V30 9 1 9 10
M  V30 10 1 9 11
M  V30 11 1 11 12
M  V30 12 1 12 13
M  V30 13 1 13 14
M  V30 14 1 14 15
M  V30 15 2 14 16
M  V30 16 1 12 17
M  V30 17 1 12 18
M  V30 18 1 10 5
M  V30 19 1 18 5
M  V30 20 1 17 7
M  V30 21 1 1 19
M  V30 22 1 1 20
M  V30 23 1 4 21
M  V30 24 1 4 22
M  V30 25 1 6 23
M  V30 26 1 6 24
M  V30 27 1 7 25
M  V30 28 1 8 26
M  V30 29 1 8 27
M  V30 30 1 9 28
M  V30 31 1 10 29
M  V30 32 1 10 30
M  V30 33 1 11 31
M  V30 34 1 11 32
M  V30 35 1 13 33
M  V30 36 1 13 34
M  V30 37 1 15 35
M  V30 38 1 15 36
M  V30 39 1 17 37
M  V30 40 1 17 38
M  V30 41 1 18 39
M  V30 42 1 18 40
M  V30 END BOND
M  V30 END CTAB
M  END
