
     RDKit          3D

  0  0  0  0  0  0  0  0  0  0999 V3000
M  V30 BEGIN CTAB
M  V30 COUNTS 57 58 0 0 0
M  V30 BEGIN ATOM
M  V30 1 C -7.43634 0.235213 -0.899548 0
M  V30 2 C -7.03872 0.984786 0.340854 0
M  V30 3 C -7.01219 2.47709 0.11824 0
M  V30 4 C -8.03179 0.68799 1.44684 0
M  V30 5 O -5.72566 0.567109 0.66845 0
M  V30 6 C -5.39451 -0.729529 0.957704 0
M  V30 7 O -6.3579 -1.5687 0.928749 0
M  V30 8 C -4.012 -1.18339 1.28705 0 CFG=1
M  V30 9 N -3.93605 -2.5604 1.57174 0
M  V30 10 C -3.12008 -0.650768 0.221826 0
M  V30 11 C -1.6962 -1.0519 0.35593 0
M  V30 12 C -0.842967 -0.379341 -0.751964 0
M  V30 13 O -1.4557 0.58794 -1.25576 0
M  V30 14 N 0.388764 -0.893141 -1.01823 0
M  V30 15 S 1.47539 -0.312067 -2.20573 0
M  V30 16 O 1.37115 -1.16431 -3.42332 0
M  V30 17 O 1.03253 1.08265 -2.64271 0
M  V30 18 C 3.11013 -0.225617 -1.58442 0
M  V30 19 C 3.68191 -1.3168 -0.964792 0
M  V30 20 C 4.98969 -1.33022 -0.489813 0
M  V30 21 C 5.74987 -0.192449 -0.650891 0
M  V30 22 C 5.2137 0.909744 -1.26178 0
M  V30 23 C 3.90886 0.899234 -1.72404 0
M  V30 24 C 7.07567 -0.197748 -0.166185 0
M  V30 25 C 7.50649 -1.33882 0.433255 0
M  V30 26 N 6.80639 -2.45662 0.61096 0
M  V30 27 C 5.53103 -2.42265 0.131046 0
M  V30 28 N 7.82548 0.970086 -0.399139 0
M  V30 29 Cl 8.44232 1.14781 -2.04604 0
M  V30 30 C 8.11723 1.97551 0.550148 0
M  V30 31 N 8.61997 1.64947 1.83079 0
M  V30 32 N 7.94091 3.23879 0.269382 0
M  V30 33 H -6.56645 -0.209284 -1.39492 0
M  V30 34 H -7.89952 0.969702 -1.61474 0
M  V30 35 H -8.12546 -0.559344 -0.640427 0
M  V30 36 H -6.05887 2.8822 0.488957 0
M  V30 37 H -7.88453 2.97601 0.609074 0
M  V30 38 H -7.02935 2.6622 -0.985845 0
M  V30 39 H -8.68705 1.56919 1.61684 0
M  V30 40 H -8.69276 -0.154886 1.17935 0
M  V30 41 H -7.52708 0.476862 2.40953 0
M  V30 42 H -3.75668 -0.634401 2.23816 0
M  V30 43 H -4.1808 -3.24161 0.854449 0
M  V30 44 H -3.13538 -2.82585 2.17971 0
M  V30 45 H -3.15318 0.46014 0.258667 0
M  V30 46 H -3.52993 -0.909903 -0.78223 0
M  V30 47 H -1.31029 -0.764897 1.33712 0
M  V30 48 H -1.58663 -2.13234 0.134139 0
M  V30 49 H 0.746124 -1.73221 -0.46401 0
M  V30 50 H 3.06544 -2.2124 -0.84886 0
M  V30 51 H 5.8415 1.78521 -1.36955 0
M  V30 52 H 3.47711 1.76123 -2.20107 0
M  V30 53 H 8.54154 -1.31165 0.803153 0
M  V30 54 H 4.94076 -3.30585 0.254874 0
M  V30 55 H 8.69296 2.40071 2.57242 0
M  V30 56 H 8.91421 0.68503 2.02643 0
M  V30 57 H 8.17692 3.92718 1.00903 0
M  V30 END ATOM
M  V30 BEGIN BOND
M  V30 1 1 1 2
M  V30 2 1 2 3
M  V30 3 1 2 4
M  V30 4 1 2 5
M  V30 5 1 5 6
M  V30 6 2 6 7
M  V30 7 1 6 8
M  V30 8 1 8 9
M  V30 9 1 8 10
M  V30 10 1 10 11
M  V30 11 1 11 12
M  V30 12 2 12 13
M  V30 13 1 12 14
M  V30 14 1 14 15
M  V30 15 2 15 16
M  V30 16 2 15 17
M  V30 17 1 15 18
M  V30 18 2 18 19
M  V30 19 1 19 20
M  V30 20 2 20 21
M  V30 21 1 21 22
M  V30 22 2 22 23
M  V30 23 1 21 24
M  V30 24 2 24 25
M  V30 25 1 25 26
M  V30 26 2 26 27
M  V30 27 1 24 28
M  V30 28 1 28 29
M  V30 29 1 28 30
M  V30 30 1 30 31
M  V30 31 2 30 32 CFG=2
M  V30 32 1 23 18
M  V30 33 1 27 20
M  V30 34 1 1 33
M  V30 35 1 1 34
M  V30 36 1 1 35
M  V30 37 1 3 36
M  V30 38 1 3 37
M  V30 39 1 3 38
M  V30 40 1 4 39
M  V30 41 1 4 40
M  V30 42 1 4 41
M  V30 43 1 8 42 CFG=1
M  V30 44 1 9 43
M  V30 45 1 9 44
M  V30 46 1 10 45
M  V30 47 1 10 46
M  V30 48 1 11 47
M  V30 49 1 11 48
M  V30 50 1 14 49
M  V30 51 1 19 50
M  V30 52 1 22 51
M  V30 53 1 23 52
M  V30 54 1 25 53
M  V30 55 1 27 54
M  V30 56 1 31 55
M  V30 57 1 31 56
M  V30 58 1 32 57
M  V30 END BOND
M  V30 END CTAB
M  END
