
     RDKit          3D

  0  0  0  0  0  0  0  0  0  0999 V3000
M  V30 BEGIN CTAB
M  V30 COUNTS 55 57 0 0 0
M  V30 BEGIN ATOM
M  V30 1 O 0.11167 -3.47822 -0.840506 0
M  V30 2 C -0.948036 -3.8134 -0.0366891 0
M  V30 3 C -0.916942 -3.01316 1.24003 0
M  V30 4 C -0.991492 -1.52221 0.998112 0
M  V30 5 C -2.30659 -1.28188 0.28079 0
M  V30 6 N -2.52631 0.114089 0.0946119 0
M  V30 7 C -1.36384 0.9671 0.036307 0
M  V30 8 C -0.123876 0.240663 -0.393496 0
M  V30 9 N 0.134891 -0.999696 0.281215 0
M  V30 10 C 1.28947 -0.939566 1.14379 0
M  V30 11 C 2.51606 -0.459435 0.521962 0
M  V30 12 C 3.47329 0.150422 1.28612 0
M  V30 13 C 4.67913 0.630805 0.777323 0
M  V30 14 C 4.90302 0.475604 -0.569556 0
M  V30 15 C 3.91602 -0.152668 -1.35299 0
M  V30 16 C 2.74855 -0.608865 -0.813306 0
M  V30 17 O 6.05652 0.917654 -1.16033 0
M  V30 18 C 7.07631 1.5606 -0.503918 0
M  V30 19 C 6.60137 2.86317 0.0726438 0
M  V30 20 C -3.80883 0.696521 -0.0343116 0
M  V30 21 C -4.95824 -0.0862046 0.0124178 0
M  V30 22 C -6.22556 0.467666 -0.112199 0
M  V30 23 N -7.38997 -0.359013 -0.0606596 0
M  V30 24 N -6.2914 1.79753 -0.280422 0
M  V30 25 C -5.20114 2.5954 -0.331642 0
M  V30 26 N -3.996 2.01159 -0.206035 0
M  V30 27 N -5.34883 4.00429 -0.513316 0
M  V30 28 H 0.894778 -4.05854 -0.630665 0
M  V30 29 H -0.819146 -4.88398 0.26307 0
M  V30 30 H -1.89233 -3.74932 -0.571903 0
M  V30 31 H -0.0190883 -3.22895 1.82969 0
M  V30 32 H -1.77928 -3.24781 1.90124 0
M  V30 33 H -1.07674 -1.03443 1.98989 0
M  V30 34 H -3.08573 -1.78776 0.901374 0
M  V30 35 H -2.34065 -1.76669 -0.716509 0
M  V30 36 H -1.18704 1.51064 0.98476 0
M  V30 37 H -1.57259 1.74126 -0.731398 0
M  V30 38 H -0.0673858 0.112198 -1.49245 0
M  V30 39 H 0.725187 0.939705 -0.128169 0
M  V30 40 H 1.48889 -1.96195 1.52364 0
M  V30 41 H 0.990837 -0.333962 2.02894 0
M  V30 42 H 3.30868 0.281837 2.36246 0
M  V30 43 H 5.38893 1.09442 1.47046 0
M  V30 44 H 4.12916 -0.258651 -2.41871 0
M  V30 45 H 2.00911 -1.08858 -1.44549 0
M  V30 46 H 7.54907 0.919799 0.287072 0
M  V30 47 H 7.89339 1.74463 -1.26586 0
M  V30 48 H 5.51173 3.03441 -0.0504515 0
M  V30 49 H 6.91989 2.90986 1.13644 0
M  V30 50 H 7.16636 3.70452 -0.425275 0
M  V30 51 H -4.86474 -1.13869 0.147271 0
M  V30 52 H -7.30425 -1.30965 0.322866 0
M  V30 53 H -8.28605 0.0293769 -0.413317 0
M  V30 54 H -4.63147 4.63629 -0.136209 0
M  V30 55 H -6.15872 4.4112 -1.01482 0
M  V30 END ATOM
M  V30 BEGIN BOND
M  V30 1 1 1 2
M  V30 2 1 2 3
M  V30 3 1 3 4
M  V30 4 1 4 5
M  V30 5 1 5 6
M  V30 6 1 6 7
M  V30 7 1 7 8
M  V30 8 1 8 9
M  V30 9 1 9 10
M  V30 10 1 10 11
M  V30 11 2 11 12
M  V30 12 1 12 13
M  V30 13 2 13 14
M  V30 14 1 14 15
M  V30 15 2 15 16
M  V30 16 1 14 17
M  V30 17 1 17 18
M  V30 18 1 18 19
M  V30 19 1 6 20
M  V30 20 2 20 21
M  V30 21 1 21 22
M  V30 22 1 22 23
M  V30 23 2 22 24
M  V30 24 1 24 25
M  V30 25 2 25 26
M  V30 26 1 25 27
M  V30 27 1 9 4
M  V30 28 1 16 11
M  V30 29 1 26 20
M  V30 30 1 1 28
M  V30 31 1 2 29
M  V30 32 1 2 30
M  V30 33 1 3 31
M  V30 34 1 3 32
M  V30 35 1 4 33
M  V30 36 1 5 34
M  V30 37 1 5 35
M  V30 38 1 7 36
M  V30 39 1 7 37
M  V30 40 1 8 38
M  V30 41 1 8 39
M  V30 42 1 10 40
M  V30 43 1 10 41
M  V30 44 1 12 42
M  V30 45 1 13 43
M  V30 46 1 15 44
M  V30 47 1 16 45
M  V30 48 1 18 46
M  V30 49 1 18 47
M  V30 50 1 19 48
M  V30 51 1 19 49
M  V30 52 1 19 50
M  V30 53 1 21 51
M  V30 54 1 23 52
M  V30 55 1 23 53
M  V30 56 1 27 54
M  V30 57 1 27 55
M  V30 END BOND
M  V30 END CTAB
M  END
