
     RDKit          3D

  0  0  0  0  0  0  0  0  0  0999 V3000
M  V30 BEGIN CTAB
M  V30 COUNTS 31 31 0 0 0
M  V30 BEGIN ATOM
M  V30 1 C 1.66707 1.56302 0.0928084 0
M  V30 2 C 1.36246 0.404665 -0.790671 0
M  V30 3 C 0.47625 -0.645265 -0.221381 0
M  V30 4 C -0.807889 -0.239414 0.313933 0
M  V30 5 C -1.74249 0.32747 -0.56895 0
M  V30 6 C -1.48138 0.508893 -1.98376 0
M  V30 7 C -2.97366 0.729641 -0.0259056 0
M  V30 8 C -3.30433 0.600378 1.29477 0
M  V30 9 N -2.38562 0.058289 2.09117 0
M  V30 10 C -1.15247 -0.360882 1.63145 0
M  V30 11 N -0.267759 -0.887416 2.60925 0
M  V30 12 O 0.332931 -1.60636 -1.27924 0
M  V30 13 C 1.33179 -1.53325 0.731575 0
M  V30 14 N 2.65666 -0.249228 -1.11137 0
M  V30 15 H 2.44656 2.16333 -0.450291 0
M  V30 16 H 0.810312 2.26016 0.209013 0
M  V30 17 H 2.13768 1.28461 1.05595 0
M  V30 18 H 1.00967 0.756204 -1.75177 0
M  V30 19 H -1.13977 1.53962 -2.25391 0
M  V30 20 H -0.999633 -0.275722 -2.55575 0
M  V30 21 H -2.52787 0.522543 -2.47261 0
M  V30 22 H -3.69212 1.17204 -0.734891 0
M  V30 23 H -4.27675 0.933559 1.64407 0
M  V30 24 H 0.445308 -0.264323 3.08656 0
M  V30 25 H -0.286746 -1.88001 2.91341 0
M  V30 26 H 1.1067 -1.59526 -1.86447 0
M  V30 27 H 1.89179 -0.99088 1.45715 0
M  V30 28 H 2.18713 -1.96147 0.0576208 0
M  V30 29 H 0.779735 -2.43584 0.965004 0
M  V30 30 H 3.26024 -0.257177 -0.254365 0
M  V30 31 H 3.13621 0.358073 -1.83438 0
M  V30 END ATOM
M  V30 BEGIN BOND
M  V30 1 1 1 2
M  V30 2 1 2 3
M  V30 3 1 3 4
M  V30 4 2 4 5
M  V30 5 1 5 6
M  V30 6 1 5 7
M  V30 7 2 7 8
M  V30 8 1 8 9
M  V30 9 2 9 10
M  V30 10 1 10 11
M  V30 11 1 3 12
M  V30 12 1 3 13
M  V30 13 1 2 14
M  V30 14 1 10 4
M  V30 15 1 1 15
M  V30 16 1 1 16
M  V30 17 1 1 17
M  V30 18 1 2 18
M  V30 19 1 6 19
M  V30 20 1 6 20
M  V30 21 1 6 21
M  V30 22 1 7 22
M  V30 23 1 8 23
M  V30 24 1 11 24
M  V30 25 1 11 25
M  V30 26 1 12 26
M  V30 27 1 13 27
M  V30 28 1 13 28
M  V30 29 1 13 29
M  V30 30 1 14 30
M  V30 31 1 14 31
M  V30 END BOND
M  V30 END CTAB
M  END
