
     RDKit          3D

  0  0  0  0  0  0  0  0  0  0999 V3000
M  V30 BEGIN CTAB
M  V30 COUNTS 38 39 0 0 0
M  V30 BEGIN ATOM
M  V30 1 N 5.54887 0.366042 -0.456874 0
M  V30 2 C 4.25832 -0.165037 -0.788566 0
M  V30 3 C 3.33779 0.0599761 0.381516 0
M  V30 4 O 3.17409 1.37975 0.716664 0
M  V30 5 C 1.97737 1.92508 0.308888 0
M  V30 6 C 0.777306 1.26374 0.993585 0
M  V30 7 N 1.10739 -0.110392 1.18267 0
M  V30 8 C 1.99025 -0.634991 0.184307 0
M  V30 9 S -0.203524 -1.11689 1.56381 0
M  V30 10 O -0.783317 -0.640415 2.88893 0
M  V30 11 O 0.342259 -2.50419 1.8478 0
M  V30 12 C -1.42871 -1.1895 0.350675 0
M  V30 13 C -1.40967 -2.11865 -0.665388 0
M  V30 14 C -2.40594 -2.16319 -1.63574 0
M  V30 15 C -3.43686 -1.25941 -1.58312 0
M  V30 16 C -3.45154 -0.334849 -0.56814 0
M  V30 17 C -2.47031 -0.291134 0.387389 0
M  V30 18 S -4.76128 0.814185 -0.500452 0
M  V30 19 O -6.01599 0.253287 -1.08908 0
M  V30 20 O -5.02123 1.13012 0.942831 0
M  V30 21 N -4.32654 2.2121 -1.40397 0
M  V30 22 H 6.07005 0.578737 -1.35373 0
M  V30 23 H 6.12162 -0.314238 0.0929905 0
M  V30 24 H 4.35909 -1.2803 -0.896453 0
M  V30 25 H 3.84567 0.202217 -1.74246 0
M  V30 26 H 3.80704 -0.458094 1.26118 0
M  V30 27 H 1.85041 1.96108 -0.777653 0
M  V30 28 H 1.97286 2.99137 0.658724 0
M  V30 29 H -0.0770637 1.41367 0.286394 0
M  V30 30 H 0.55343 1.71618 1.96361 0
M  V30 31 H 2.05964 -1.72149 0.309208 0
M  V30 32 H 1.63574 -0.453291 -0.857472 0
M  V30 33 H -0.576866 -2.81801 -0.673682 0
M  V30 34 H -2.35855 -2.91028 -2.423 0
M  V30 35 H -4.22059 -1.28604 -2.33712 0
M  V30 36 H -2.51067 0.459975 1.18566 0
M  V30 37 H -4.46141 1.99311 -2.42286 0
M  V30 38 H -4.86915 3.04976 -1.09383 0
M  V30 END ATOM
M  V30 BEGIN BOND
M  V30 1 1 1 2
M  V30 2 1 2 3
M  V30 3 1 3 4
M  V30 4 1 4 5
M  V30 5 1 5 6
M  V30 6 1 6 7
M  V30 7 1 7 8
M  V30 8 1 7 9
M  V30 9 2 9 10
M  V30 10 2 9 11
M  V30 11 1 9 12
M  V30 12 2 12 13
M  V30 13 1 13 14
M  V30 14 2 14 15
M  V30 15 1 15 16
M  V30 16 2 16 17
M  V30 17 1 16 18
M  V30 18 2 18 19
M  V30 19 2 18 20
M  V30 20 1 18 21
M  V30 21 1 8 3
M  V30 22 1 17 12
M  V30 23 1 1 22
M  V30 24 1 1 23
M  V30 25 1 2 24
M  V30 26 1 2 25
M  V30 27 1 3 26
M  V30 28 1 5 27
M  V30 29 1 5 28
M  V30 30 1 6 29
M  V30 31 1 6 30
M  V30 32 1 8 31
M  V30 33 1 8 32
M  V30 34 1 13 33
M  V30 35 1 14 34
M  V30 36 1 15 35
M  V30 37 1 17 36
M  V30 38 1 21 37
M  V30 39 1 21 38
M  V30 END BOND
M  V30 END CTAB
M  END
