
     RDKit          3D

  0  0  0  0  0  0  0  0  0  0999 V3000
M  V30 BEGIN CTAB
M  V30 COUNTS 24 23 0 0 0
M  V30 BEGIN ATOM
M  V30 1 N 3.14828 -0.168264 -0.0368916 0
M  V30 2 C 1.83859 -0.713227 0.27909 0
M  V30 3 C 0.771733 0.187502 -0.251683 0
M  V30 4 C -0.618305 -0.215476 -0.0191434 0
M  V30 5 C -1.49051 0.879593 -0.663357 0
M  V30 6 N -1.15082 2.09108 0.00035646 0
M  V30 7 C -1.09491 -0.355907 1.36265 0
M  V30 8 C -0.878645 -1.52106 -0.780427 0
M  V30 9 H 3.55934 0.35545 0.755143 0
M  V30 10 H 3.0516 0.471022 -0.857718 0
M  V30 11 H 1.81541 -0.872687 1.35851 0
M  V30 12 H 1.80071 -1.72138 -0.202248 0
M  V30 13 H 0.937491 0.297117 -1.3456 0
M  V30 14 H 0.980937 1.21608 0.161835 0
M  V30 15 H -1.13137 0.940872 -1.72574 0
M  V30 16 H -2.54486 0.608366 -0.657266 0
M  V30 17 H -1.81386 2.43995 0.685957 0
M  V30 18 H -0.621137 2.77704 -0.535092 0
M  V30 19 H -0.46352 -0.943263 2.04771 0
M  V30 20 H -2.08806 -0.855672 1.34911 0
M  V30 21 H -1.27095 0.654085 1.83877 0
M  V30 22 H -1.96075 -1.73444 -0.824208 0
M  V30 23 H -0.385221 -1.50393 -1.76881 0
M  V30 24 H -0.391195 -2.31286 -0.170942 0
M  V30 END ATOM
M  V30 BEGIN BOND
M  V30 1 1 1 2
M  V30 2 1 2 3
M  V30 3 1 3 4
M  V30 4 1 4 5
M  V30 5 1 5 6
M  V30 6 1 4 7
M  V30 7 1 4 8
M  V30 8 1 1 9
M  V30 9 1 1 10
M  V30 10 1 2 11
M  V30 11 1 2 12
M  V30 12 1 3 13
M  V30 13 1 3 14
M  V30 14 1 5 15
M  V30 15 1 5 16
M  V30 16 1 6 17
M  V30 17 1 6 18
M  V30 18 1 7 19
M  V30 19 1 7 20
M  V30 20 1 7 21
M  V30 21 1 8 22
M  V30 22 1 8 23
M  V30 23 1 8 24
M  V30 END BOND
M  V30 END CTAB
M  END
