
     RDKit          3D

  0  0  0  0  0  0  0  0  0  0999 V3000
M  V30 BEGIN CTAB
M  V30 COUNTS 28 29 0 0 0
M  V30 BEGIN ATOM
M  V30 1 N 4.73631 1.75285 -0.282471 0
M  V30 2 C 3.44953 1.19906 -0.0942518 0
M  V30 3 C 2.20952 1.78754 -0.210793 0
M  V30 4 N 1.22938 0.901333 0.0538502 0
M  V30 5 N 1.8379 -0.230395 0.333789 0
M  V30 6 C 3.17352 -0.125699 0.263813 0
M  V30 7 C 4.22508 -1.15322 0.499374 0
M  V30 8 C -0.187943 1.17354 0.0262832 0
M  V30 9 O -0.563193 2.34783 -0.270939 0
M  V30 10 C -1.17968 0.1475 0.326037 0
M  V30 11 C -1.05157 -1.02962 1.01317 0
M  V30 12 C -2.29782 -1.65437 1.02034 0
M  V30 13 C -3.1214 -0.803736 0.325371 0
M  V30 14 O -2.43767 0.219422 -0.055678 0
M  V30 15 S -4.82123 -1.05604 0.00352239 0
M  V30 16 O -5.27265 -2.34615 0.593509 0
M  V30 17 O -5.09599 -1.05954 -1.49211 0
M  V30 18 N -5.72796 0.234706 0.712454 0
M  V30 19 H 5.55612 1.14983 -0.464128 0
M  V30 20 H 4.85904 2.77757 -0.238194 0
M  V30 21 H 2.05161 2.82268 -0.48059 0
M  V30 22 H 4.80132 -0.867143 1.39901 0
M  V30 23 H 3.69675 -2.11302 0.62693 0
M  V30 24 H 4.84763 -1.18879 -0.419856 0
M  V30 25 H -0.152133 -1.4143 1.47383 0
M  V30 26 H -2.51184 -2.61395 1.4933 0
M  V30 27 H -6.73228 -0.0196107 0.706447 0
M  V30 28 H -5.52034 1.16173 0.312644 0
M  V30 END ATOM
M  V30 BEGIN BOND
M  V30 1 1 1 2
M  V30 2 2 2 3
M  V30 3 1 3 4
M  V30 4 1 4 5
M  V30 5 2 5 6
M  V30 6 1 6 7
M  V30 7 1 4 8
M  V30 8 2 8 9
M  V30 9 1 8 10
M  V30 10 2 10 11
M  V30 11 1 11 12
M  V30 12 2 12 13
M  V30 13 1 13 14
M  V30 14 1 13 15
M  V30 15 2 15 16
M  V30 16 2 15 17
M  V30 17 1 15 18
M  V30 18 1 6 2
M  V30 19 1 14 10
M  V30 20 1 1 19
M  V30 21 1 1 20
M  V30 22 1 3 21
M  V30 23 1 7 22
M  V30 24 1 7 23
M  V30 25 1 7 24
M  V30 26 1 11 25
M  V30 27 1 12 26
M  V30 28 1 18 27
M  V30 29 1 18 28
M  V30 END BOND
M  V30 END CTAB
M  END
