
     RDKit          3D

  0  0  0  0  0  0  0  0  0  0999 V3000
M  V30 BEGIN CTAB
M  V30 COUNTS 30 30 0 0 0
M  V30 BEGIN ATOM
M  V30 1 C -3.80278 -0.769579 1.16457 0
M  V30 2 C -2.68179 -0.958071 0.141586 0
M  V30 3 C -1.88481 0.313478 0.134562 0
M  V30 4 N -0.779832 0.289533 -0.790883 0
M  V30 5 C -0.108767 1.57296 -0.68777 0
M  V30 6 C 1.11765 1.26569 0.186893 0
M  V30 7 C 1.52152 -0.040911 -0.469021 0
M  V30 8 C 0.175757 -0.731323 -0.523721 0
M  V30 9 N 1.93909 0.269263 -1.78878 0
M  V30 10 C 2.52129 -0.805275 0.347027 0
M  V30 11 N 3.73727 -0.0873695 0.570405 0
M  V30 12 H -3.28636 -0.727812 2.15737 0
M  V30 13 H -4.22894 0.248134 0.946171 0
M  V30 14 H -4.55317 -1.55823 1.11315 0
M  V30 15 H -2.09367 -1.84409 0.411078 0
M  V30 16 H -3.16099 -1.1537 -0.847182 0
M  V30 17 H -2.5636 1.12571 -0.201211 0
M  V30 18 H -1.52875 0.488049 1.17289 0
M  V30 19 H 0.219184 1.89683 -1.70959 0
M  V30 20 H -0.693459 2.33554 -0.169266 0
M  V30 21 H 1.86435 2.04748 0.0706116 0
M  V30 22 H 0.730621 1.12297 1.20545 0
M  V30 23 H 0.0238162 -1.25364 0.447504 0
M  V30 24 H 0.199718 -1.50212 -1.3463 0
M  V30 25 H 2.6637 0.980927 -1.887 0
M  V30 26 H 1.94983 -0.498915 -2.46251 0
M  V30 27 H 2.77632 -1.76348 -0.13257 0
M  V30 28 H 2.07019 -1.01997 1.34005 0
M  V30 29 H 3.80214 0.818498 0.0646032 0
M  V30 30 H 4.05447 -0.0605785 1.54188 0
M  V30 END ATOM
M  V30 BEGIN BOND
M  V30 1 1 1 2
M  V30 2 1 2 3
M  V30 3 1 3 4
M  V30 4 1 4 5
M  V30 5 1 5 6
M  V30 6 1 6 7
M  V30 7 1 7 8
M  V30 8 1 7 9
M  V30 9 1 7 10
M  V30 10 1 10 11
M  V30 11 1 8 4
M  V30 12 1 1 12
M  V30 13 1 1 13
M  V30 14 1 1 14
M  V30 15 1 2 15
M  V30 16 1 2 16
M  V30 17 1 3 17
M  V30 18 1 3 18
M  V30 19 1 5 19
M  V30 20 1 5 20
M  V30 21 1 6 21
M  V30 22 1 6 22
M  V30 23 1 8 23
M  V30 24 1 8 24
M  V30 25 1 9 25
M  V30 26 1 9 26
M  V30 27 1 10 27
M  V30 28 1 10 28
M  V30 29 1 11 29
M  V30 30 1 11 30
M  V30 END BOND
M  V30 END CTAB
M  END
