
     RDKit          3D

  0  0  0  0  0  0  0  0  0  0999 V3000
M  V30 BEGIN CTAB
M  V30 COUNTS 40 39 0 0 0
M  V30 BEGIN ATOM
M  V30 1 C -3.62294 -0.642156 -1.16897 0
M  V30 2 C -3.39476 0.180732 0.0790615 0
M  V30 3 C -2.46015 -0.491042 1.02932 0
M  V30 4 C -1.10876 -0.730747 0.402596 0
M  V30 5 C -0.454914 0.529795 -0.0245271 0
M  V30 6 N 0.853528 0.323906 -0.6293 0
M  V30 7 C 1.97094 0.331925 0.221505 0
M  V30 8 O 1.68734 0.530851 1.48061 0
M  V30 9 C 3.38597 0.152682 -0.0923752 0
M  V30 10 N 3.69763 -0.0914238 -1.46563 0
M  V30 11 C 3.85511 -1.07667 0.695382 0
M  V30 12 C 4.23287 1.33911 0.341265 0
M  V30 13 C 1.013 0.120069 -2.04531 0
M  V30 14 N -2.38791 0.15959 2.2994 0
M  V30 15 C -4.75391 0.453909 0.67832 0
M  V30 16 H -3.75712 -1.69277 -0.841197 0
M  V30 17 H -4.56293 -0.360107 -1.68804 0
M  V30 18 H -2.76155 -0.565044 -1.86674 0
M  V30 19 H -2.99396 1.16488 -0.227629 0
M  V30 20 H -2.8873 -1.5202 1.22289 0
M  V30 21 H -1.26842 -1.4602 -0.417967 0
M  V30 22 H -0.412164 -1.24729 1.11293 0
M  V30 23 H -0.304712 1.18837 0.850356 0
M  V30 24 H -1.05681 1.04053 -0.80577 0
M  V30 25 H 4.56438 0.367318 -1.76741 0
M  V30 26 H 3.73726 -1.12014 -1.62464 0
M  V30 27 H 4.01598 -0.821879 1.76797 0
M  V30 28 H 4.82865 -1.44587 0.313776 0
M  V30 29 H 3.13562 -1.90897 0.602186 0
M  V30 30 H 4.38587 2.00535 -0.544944 0
M  V30 31 H 5.24257 0.998412 0.649542 0
M  V30 32 H 3.76746 1.90551 1.1612 0
M  V30 33 H 1.45568 -0.856487 -2.29716 0
M  V30 34 H 0.0267914 0.110322 -2.57811 0
M  V30 35 H 1.63133 0.938216 -2.44741 0
M  V30 36 H -2.0167 -0.494941 3.02064 0
M  V30 37 H -1.93432 1.08084 2.29906 0
M  V30 38 H -5.36469 0.923412 -0.125701 0
M  V30 39 H -4.72314 1.17519 1.50916 0
M  V30 40 H -5.26083 -0.494974 0.941718 0
M  V30 END ATOM
M  V30 BEGIN BOND
M  V30 1 1 1 2
M  V30 2 1 2 3
M  V30 3 1 3 4
M  V30 4 1 4 5
M  V30 5 1 5 6
M  V30 6 1 6 7
M  V30 7 2 7 8
M  V30 8 1 7 9
M  V30 9 1 9 10
M  V30 10 1 9 11
M  V30 11 1 9 12
M  V30 12 1 6 13
M  V30 13 1 3 14
M  V30 14 1 2 15
M  V30 15 1 1 16
M  V30 16 1 1 17
M  V30 17 1 1 18
M  V30 18 1 2 19
M  V30 19 1 3 20
M  V30 20 1 4 21
M  V30 21 1 4 22
M  V30 22 1 5 23
M  V30 23 1 5 24
M  V30 24 1 10 25
M  V30 25 1 10 26
M  V30 26 1 11 27
M  V30 27 1 11 28
M  V30 28 1 11 29
M  V30 29 1 12 30
M  V30 30 1 12 31
M  V30 31 1 12 32
M  V30 32 1 13 33
M  V30 33 1 13 34
M  V30 34 1 13 35
M  V30 35 1 14 36
M  V30 36 1 14 37
M  V30 37 1 15 38
M  V30 38 1 15 39
M  V30 39 1 15 40
M  V30 END BOND
M  V30 END CTAB
M  END
