
     RDKit          3D

  0  0  0  0  0  0  0  0  0  0999 V3000
M  V30 BEGIN CTAB
M  V30 COUNTS 41 42 0 0 0
M  V30 BEGIN ATOM
M  V30 1 C -6.07534 2.68056 1.42803 0
M  V30 2 C -5.17118 2.34358 0.519316 0
M  V30 3 C -5.42687 1.20683 -0.416179 0
M  V30 4 O -4.52184 0.180391 -0.344634 0
M  V30 5 C -3.18801 0.111064 -0.581626 0
M  V30 6 C -2.44027 1.18389 -1.00162 0
M  V30 7 C -1.07318 1.05253 -1.22645 0
M  V30 8 C -0.416801 -0.141809 -1.04139 0
M  V30 9 C -1.17321 -1.2202 -0.618842 0
M  V30 10 C -2.52823 -1.11541 -0.389153 0
M  V30 11 O -3.29282 -2.19242 0.0345877 0
M  V30 12 C -2.64367 -3.42918 0.231743 0
M  V30 13 C 1.01762 -0.255799 -1.28357 0
M  V30 14 O 1.64644 0.763294 -1.66667 0
M  V30 15 O 1.73019 -1.40792 -1.1201 0
M  V30 16 C 3.0864 -1.62362 -1.32026 0
M  V30 17 C 4.0045 -0.828089 -0.511207 0
M  V30 18 N 4.35474 -1.17133 0.740246 0
M  V30 19 C 5.1944 -0.462066 1.49449 0
M  V30 20 N 5.56657 -0.820054 2.81437 0
M  V30 21 N 5.72368 0.66407 0.974545 0
M  V30 22 C 5.38332 1.02854 -0.286921 0
M  V30 23 N 4.53589 0.294452 -1.0214 0
M  V30 24 N 5.9462 2.22065 -0.831828 0
M  V30 25 H -5.88891 3.49716 2.09828 0
M  V30 26 H -7.0034 2.14165 1.50437 0
M  V30 27 H -4.26868 2.91482 0.490986 0
M  V30 28 H -5.49258 1.6813 -1.44279 0
M  V30 29 H -6.48225 0.846895 -0.249931 0
M  V30 30 H -2.86386 2.15923 -1.18615 0
M  V30 31 H -0.515398 1.91601 -1.55572 0
M  V30 32 H -0.656665 -2.16188 -0.472952 0
M  V30 33 H -2.30551 -3.80095 -0.763371 0
M  V30 34 H -1.75617 -3.22913 0.875786 0
M  V30 35 H -3.30716 -4.1644 0.724086 0
M  V30 36 H 3.2822 -2.71474 -1.11037 0
M  V30 37 H 3.28126 -1.5262 -2.42418 0
M  V30 38 H 4.89672 -0.82077 3.60428 0
M  V30 39 H 6.55148 -1.09266 2.99591 0
M  V30 40 H 6.6192 2.16063 -1.62642 0
M  V30 41 H 5.67118 3.13107 -0.421773 0
M  V30 END ATOM
M  V30 BEGIN BOND
M  V30 1 2 1 2 CFG=2
M  V30 2 1 2 3
M  V30 3 1 3 4
M  V30 4 1 4 5
M  V30 5 2 5 6
M  V30 6 1 6 7
M  V30 7 2 7 8
M  V30 8 1 8 9
M  V30 9 2 9 10
M  V30 10 1 10 11
M  V30 11 1 11 12
M  V30 12 1 8 13
M  V30 13 2 13 14
M  V30 14 1 13 15
M  V30 15 1 15 16
M  V30 16 1 16 17
M  V30 17 2 17 18
M  V30 18 1 18 19
M  V30 19 1 19 20
M  V30 20 2 19 21
M  V30 21 1 21 22
M  V30 22 2 22 23
M  V30 23 1 22 24
M  V30 24 1 10 5
M  V30 25 1 23 17
M  V30 26 1 1 25
M  V30 27 1 1 26
M  V30 28 1 2 27
M  V30 29 1 3 28
M  V30 30 1 3 29
M  V30 31 1 6 30
M  V30 32 1 7 31
M  V30 33 1 9 32
M  V30 34 1 12 33
M  V30 35 1 12 34
M  V30 36 1 12 35
M  V30 37 1 16 36
M  V30 38 1 16 37
M  V30 39 1 20 38
M  V30 40 1 20 39
M  V30 41 1 24 40
M  V30 42 1 24 41
M  V30 END BOND
M  V30 END CTAB
M  END
