
     RDKit          3D

  0  0  0  0  0  0  0  0  0  0999 V3000
M  V30 BEGIN CTAB
M  V30 COUNTS 37 39 0 0 0
M  V30 BEGIN ATOM
M  V30 1 N -0.187618 -4.17968 0.174949 0
M  V30 2 N -0.381207 -3.27602 -0.855502 0
M  V30 3 C -1.14339 -2.0767 -0.669434 0
M  V30 4 N -2.46542 -1.89417 -0.84719 0
M  V30 5 C -2.78735 -0.614645 -0.564774 0
M  V30 6 C -1.62513 0.034113 -0.195103 0
M  V30 7 N -1.6803 1.33792 0.139299 0
M  V30 8 C -2.82597 2.04883 0.131024 0
M  V30 9 N -2.9004 3.41511 0.478631 0
M  V30 10 N -3.97861 1.4222 -0.231173 0
M  V30 11 C -3.9553 0.121585 -0.570179 0
M  V30 12 O -5.01262 -0.502203 -0.915333 0
M  V30 13 N -0.652622 -0.892817 -0.273376 0
M  V30 14 C 0.727227 -0.649739 0.0265053 0 CFG=2
M  V30 15 O 0.952641 0.275849 1.00704 0
M  V30 16 C 2.34022 0.476914 0.910715 0 CFG=2
M  V30 17 C 2.68512 1.75241 1.65069 0
M  V30 18 O 2.30413 1.60899 2.97704 0
M  V30 19 C 2.64956 0.566563 -0.555793 0 CFG=1
M  V30 20 O 3.73942 -0.254405 -0.908216 0
M  V30 21 C 1.40421 -0.0334123 -1.18312 0 CFG=1
M  V30 22 O 1.69338 -0.992422 -2.12988 0
M  V30 23 H -1.04345 -4.72598 0.335393 0
M  V30 24 H 0.050229 -3.66414 1.0255 0
M  V30 25 H 0.02811 -3.44539 -1.80945 0
M  V30 26 H -2.95118 3.70115 1.48045 0
M  V30 27 H -2.90658 4.15825 -0.237816 0
M  V30 28 H -4.88596 1.95697 -0.245185 0
M  V30 29 H 1.26191 -1.59515 0.256474 0
M  V30 30 H 2.83066 -0.389063 1.35886 0
M  V30 31 H 3.78221 1.89487 1.53117 0
M  V30 32 H 2.18608 2.62022 1.20264 0
M  V30 33 H 2.99084 1.13376 3.51239 0
M  V30 34 H 2.81066 1.60635 -0.865522 0
M  V30 35 H 3.97488 0.00794542 -1.83919 0
M  V30 36 H 0.737482 0.749799 -1.60403 0
M  V30 37 H 2.2341 -1.70389 -1.69849 0
M  V30 END ATOM
M  V30 BEGIN BOND
M  V30 1 1 1 2
M  V30 2 1 2 3
M  V30 3 2 3 4
M  V30 4 1 4 5
M  V30 5 2 5 6
M  V30 6 1 6 7
M  V30 7 2 7 8
M  V30 8 1 8 9
M  V30 9 1 8 10
M  V30 10 1 10 11
M  V30 11 2 11 12
M  V30 12 1 6 13
M  V30 13 1 13 14
M  V30 14 1 14 15
M  V30 15 1 15 16
M  V30 16 1 16 17
M  V30 17 1 17 18
M  V30 18 1 16 19
M  V30 19 1 19 20
M  V30 20 1 19 21
M  V30 21 1 21 22
M  V30 22 1 13 3
M  V30 23 1 21 14
M  V30 24 1 11 5
M  V30 25 1 1 23
M  V30 26 1 1 24
M  V30 27 1 2 25
M  V30 28 1 9 26
M  V30 29 1 9 27
M  V30 30 1 10 28
M  V30 31 1 14 29 CFG=1
M  V30 32 1 16 30 CFG=1
M  V30 33 1 17 31
M  V30 34 1 17 32
M  V30 35 1 18 33
M  V30 36 1 19 34 CFG=3
M  V30 37 1 20 35
M  V30 38 1 21 36 CFG=3
M  V30 39 1 22 37
M  V30 END BOND
M  V30 END CTAB
M  END
