
     RDKit          3D

  0  0  0  0  0  0  0  0  0  0999 V3000
M  V30 BEGIN CTAB
M  V30 COUNTS 35 36 0 0 0
M  V30 BEGIN ATOM
M  V30 1 N 5.13554 -1.90418 0.590555 0
M  V30 2 C 3.90294 -1.23185 0.342759 0
M  V30 3 C 3.64404 -0.595081 -0.856964 0
M  V30 4 C 2.44462 0.0515472 -1.08053 0
M  V30 5 C 1.44658 0.0943407 -0.119565 0
M  V30 6 C 1.71763 -0.54487 1.07292 0
M  V30 7 C 2.9138 -1.19378 1.30523 0
M  V30 8 C 0.15374 0.797185 -0.374329 0 CFG=2
M  V30 9 C -0.0392746 1.90283 0.644693 0
M  V30 10 O -0.857809 2.85533 0.0993886 0
M  V30 11 C -1.95097 2.34325 -0.596803 0
M  V30 12 C -2.75152 1.35906 0.215674 0
M  V30 13 N -1.99935 0.23148 0.66315 0
M  V30 14 C -0.962077 -0.176139 -0.25821 0
M  V30 15 S -3.10798 -1.08867 0.796379 0
M  V30 16 O -4.14074 -0.673029 1.83313 0
M  V30 17 O -2.37238 -2.26187 1.41718 0
M  V30 18 N -3.83281 -1.49943 -0.687912 0
M  V30 19 H 5.51357 -2.52869 -0.150995 0
M  V30 20 H 5.69486 -1.81981 1.4642 0
M  V30 21 H 4.39084 -0.603162 -1.63147 0
M  V30 22 H 2.24533 0.545218 -2.01216 0
M  V30 23 H 0.948166 -0.519948 1.8325 0
M  V30 24 H 3.12473 -1.69788 2.24869 0
M  V30 25 H 0.183656 1.21944 -1.3839 0
M  V30 26 H -0.387754 1.51522 1.62299 0
M  V30 27 H 0.957007 2.36529 0.823686 0
M  V30 28 H -1.69853 1.9753 -1.59948 0
M  V30 29 H -2.63347 3.22866 -0.766552 0
M  V30 30 H -3.22797 1.91216 1.04349 0
M  V30 31 H -3.5684 0.99063 -0.439164 0
M  V30 32 H -0.575307 -1.1878 -0.0188825 0
M  V30 33 H -1.45663 -0.283033 -1.24859 0
M  V30 34 H -4.06193 -2.53697 -0.652841 0
M  V30 35 H -4.79215 -1.04075 -0.7089 0
M  V30 END ATOM
M  V30 BEGIN BOND
M  V30 1 1 1 2
M  V30 2 2 2 3
M  V30 3 1 3 4
M  V30 4 2 4 5
M  V30 5 1 5 6
M  V30 6 2 6 7
M  V30 7 1 5 8
M  V30 8 1 8 9
M  V30 9 1 9 10
M  V30 10 1 10 11
M  V30 11 1 11 12
M  V30 12 1 12 13
M  V30 13 1 13 14
M  V30 14 1 13 15
M  V30 15 2 15 16
M  V30 16 2 15 17
M  V30 17 1 15 18
M  V30 18 1 7 2
M  V30 19 1 14 8
M  V30 20 1 1 19
M  V30 21 1 1 20
M  V30 22 1 3 21
M  V30 23 1 4 22
M  V30 24 1 6 23
M  V30 25 1 7 24
M  V30 26 1 8 25 CFG=3
M  V30 27 1 9 26
M  V30 28 1 9 27
M  V30 29 1 11 28
M  V30 30 1 11 29
M  V30 31 1 12 30
M  V30 32 1 12 31
M  V30 33 1 14 32
M  V30 34 1 14 33
M  V30 35 1 18 34
M  V30 36 1 18 35
M  V30 END BOND
M  V30 END CTAB
M  END
