
     RDKit          3D

  0  0  0  0  0  0  0  0  0  0999 V3000
M  V30 BEGIN CTAB
M  V30 COUNTS 45 46 0 0 0
M  V30 BEGIN ATOM
M  V30 1 N -3.73525 -2.14364 0.95045 0
M  V30 2 C -2.40076 -1.848 0.46822 0
M  V30 3 C -2.27739 -0.460919 -0.073145 0
M  V30 4 C -3.27913 -0.359251 -1.2348 0
M  V30 5 C -4.55201 0.310844 -0.819153 0
M  V30 6 C -4.36129 1.77122 -0.47849 0
M  V30 7 C -3.06094 1.90525 0.252394 0
M  V30 8 C -2.72829 0.589422 0.923295 0
M  V30 9 C -0.951837 -0.167716 -0.663856 0
M  V30 10 C 0.208062 -0.276265 0.264067 0
M  V30 11 O 0.0856185 -0.545665 1.46534 0
M  V30 12 N 1.48731 -0.0563196 -0.284247 0
M  V30 13 C 2.73786 -0.0874872 0.317966 0
M  V30 14 C 2.94335 -0.358162 1.64563 0
M  V30 15 C 4.25459 -0.360268 2.13517 0
M  V30 16 Br 4.56367 -0.734847 3.98147 0
M  V30 17 C 5.3458 -0.103881 1.34809 0
M  V30 18 C 5.14911 0.171288 0.00288468 0
M  V30 19 C 3.86247 0.173823 -0.479643 0
M  V30 20 N 3.74175 0.466963 -1.88027 0
M  V30 21 C 6.33505 0.442474 -0.817902 0
M  V30 22 H -3.99528 -3.1261 0.711111 0
M  V30 23 H -3.85183 -1.95369 1.96124 0
M  V30 24 H -2.21599 -2.54513 -0.401814 0
M  V30 25 H -1.70698 -2.1444 1.2448 0
M  V30 26 H -3.50122 -1.35828 -1.6186 0
M  V30 27 H -2.85942 0.251717 -2.07653 0
M  V30 28 H -5.21787 0.292339 -1.72111 0
M  V30 29 H -5.1055 -0.176115 -0.0191709 0
M  V30 30 H -4.32444 2.42256 -1.37584 0
M  V30 31 H -5.21332 2.07906 0.182402 0
M  V30 32 H -2.28163 2.20763 -0.451467 0
M  V30 33 H -3.15617 2.68333 1.0378 0
M  V30 34 H -1.98055 0.797424 1.69478 0
M  V30 35 H -3.62014 0.178101 1.43577 0
M  V30 36 H -0.993042 0.811747 -1.18213 0
M  V30 37 H -0.781596 -0.918697 -1.4871 0
M  V30 38 H 1.48763 0.171438 -1.33713 0
M  V30 39 H 2.16829 -0.573448 2.35811 0
M  V30 40 H 6.35284 -0.11116 1.75021 0
M  V30 41 H 3.18547 -0.173285 -2.45834 0
M  V30 42 H 4.20851 1.29974 -2.2676 0
M  V30 43 H 7.17416 0.825611 -0.168839 0
M  V30 44 H 6.68708 -0.501181 -1.2557 0
M  V30 45 H 6.17326 1.23193 -1.57835 0
M  V30 END ATOM
M  V30 BEGIN BOND
M  V30 1 1 1 2
M  V30 2 1 2 3
M  V30 3 1 3 4
M  V30 4 1 4 5
M  V30 5 1 5 6
M  V30 6 1 6 7
M  V30 7 1 7 8
M  V30 8 1 3 9
M  V30 9 1 9 10
M  V30 10 2 10 11
M  V30 11 1 10 12
M  V30 12 1 12 13
M  V30 13 2 13 14
M  V30 14 1 14 15
M  V30 15 1 15 16
M  V30 16 2 15 17
M  V30 17 1 17 18
M  V30 18 2 18 19
M  V30 19 1 19 20
M  V30 20 1 18 21
M  V30 21 1 8 3
M  V30 22 1 19 13
M  V30 23 1 1 22
M  V30 24 1 1 23
M  V30 25 1 2 24
M  V30 26 1 2 25
M  V30 27 1 4 26
M  V30 28 1 4 27
M  V30 29 1 5 28
M  V30 30 1 5 29
M  V30 31 1 6 30
M  V30 32 1 6 31
M  V30 33 1 7 32
M  V30 34 1 7 33
M  V30 35 1 8 34
M  V30 36 1 8 35
M  V30 37 1 9 36
M  V30 38 1 9 37
M  V30 39 1 12 38
M  V30 40 1 14 39
M  V30 41 1 17 40
M  V30 42 1 20 41
M  V30 43 1 20 42
M  V30 44 1 21 43
M  V30 45 1 21 44
M  V30 46 1 21 45
M  V30 END BOND
M  V30 END CTAB
M  END
