
     RDKit          3D

  0  0  0  0  0  0  0  0  0  0999 V3000
M  V30 BEGIN CTAB
M  V30 COUNTS 55 58 0 0 0
M  V30 BEGIN ATOM
M  V30 1 N -2.91301 -4.66599 2.12025 0
M  V30 2 C -1.98255 -3.6563 1.75114 0
M  V30 3 N -2.41898 -2.5265 1.17183 0
M  V30 4 C -1.5796 -1.54456 0.808534 0
M  V30 5 C -2.04997 -0.29451 0.186616 0
M  V30 6 O -3.45629 -0.343685 0.0486259 0
M  V30 7 C -3.80971 0.878918 -0.518702 0
M  V30 8 C -5.24597 1.04658 -0.749392 0
M  V30 9 C -6.1318 0.0341451 -1.01361 0
M  V30 10 C -7.47185 0.294618 -1.21056 0
M  V30 11 C -7.98389 1.58212 -1.15146 0
M  V30 12 C -7.09297 2.59799 -0.886088 0
M  V30 13 C -5.75446 2.33672 -0.689385 0
M  V30 14 C -0.200945 -1.66052 1.0211 0
M  V30 15 C 0.222064 -2.82974 1.61748 0
M  V30 16 N 1.62084 -2.97012 1.8399 0
M  V30 17 N -0.661082 -3.78416 1.96299 0
M  V30 18 C 0.714165 -0.609285 0.619005 0
M  V30 19 C 1.42296 -0.719823 -0.548569 0
M  V30 20 C 2.30092 0.286511 -0.964189 0
M  V30 21 C 2.48245 1.41816 -0.216332 0
M  V30 22 N 3.39081 2.47269 -0.576198 0
M  V30 23 C 4.49229 2.3527 -1.47292 0
M  V30 24 C 5.58776 1.49876 -0.903539 0
M  V30 25 N 6.30331 1.97737 0.135905 0
M  V30 26 C 7.29053 1.23413 0.659757 0
M  V30 27 C 7.62523 -0.0176382 0.188485 0
M  V30 28 C 6.89102 -0.497303 -0.871029 0
M  V30 29 C 5.87292 0.265738 -1.41347 0
M  V30 30 C 1.7548 1.52308 0.973685 0
M  V30 31 C 0.900527 0.52764 1.36326 0
M  V30 32 H -3.23393 -4.71969 3.11768 0
M  V30 33 H -3.31049 -5.37232 1.46493 0
M  V30 34 H -1.58064 -0.270427 -0.840716 0
M  V30 35 H -1.71128 0.606481 0.704954 0
M  V30 36 H -3.20502 1.0611 -1.45356 0
M  V30 37 H -3.47583 1.65509 0.204657 0
M  V30 38 H -5.74657 -0.974666 -1.06353 0
M  V30 39 H -8.17385 -0.507503 -1.41989 0
M  V30 40 H -9.00975 1.82998 -1.29551 0
M  V30 41 H -7.45466 3.59888 -0.832885 0
M  V30 42 H -5.09863 3.17071 -0.48433 0
M  V30 43 H 2.23511 -3.50673 1.17719 0
M  V30 44 H 2.07351 -2.54918 2.65823 0
M  V30 45 H 1.34603 -1.57512 -1.20034 0
M  V30 46 H 2.84017 0.188583 -1.89398 0
M  V30 47 H 3.21982 3.4258 -0.130263 0
M  V30 48 H 4.93269 3.35005 -1.66252 0
M  V30 49 H 4.20583 1.93666 -2.46306 0
M  V30 50 H 7.88901 1.60213 1.50856 0
M  V30 51 H 8.44157 -0.577175 0.658462 0
M  V30 52 H 7.13112 -1.46777 -1.25513 0
M  V30 53 H 5.32543 -0.15046 -2.24151 0
M  V30 54 H 1.91037 2.43384 1.55842 0
M  V30 55 H 0.330485 0.603967 2.2888 0
M  V30 END ATOM
M  V30 BEGIN BOND
M  V30 1 1 1 2
M  V30 2 2 2 3
M  V30 3 1 3 4
M  V30 4 1 4 5
M  V30 5 1 5 6
M  V30 6 1 6 7
M  V30 7 1 7 8
M  V30 8 2 8 9
M  V30 9 1 9 10
M  V30 10 2 10 11
M  V30 11 1 11 12
M  V30 12 2 12 13
M  V30 13 2 4 14
M  V30 14 1 14 15
M  V30 15 1 15 16
M  V30 16 2 15 17
M  V30 17 1 14 18
M  V30 18 2 18 19
M  V30 19 1 19 20
M  V30 20 2 20 21
M  V30 21 1 21 22
M  V30 22 1 22 23
M  V30 23 1 23 24
M  V30 24 2 24 25
M  V30 25 1 25 26
M  V30 26 2 26 27
M  V30 27 1 27 28
M  V30 28 2 28 29
M  V30 29 1 21 30
M  V30 30 2 30 31
M  V30 31 1 17 2
M  V30 32 1 31 18
M  V30 33 1 13 8
M  V30 34 1 29 24
M  V30 35 1 1 32
M  V30 36 1 1 33
M  V30 37 1 5 34
M  V30 38 1 5 35
M  V30 39 1 7 36
M  V30 40 1 7 37
M  V30 41 1 9 38
M  V30 42 1 10 39
M  V30 43 1 11 40
M  V30 44 1 12 41
M  V30 45 1 13 42
M  V30 46 1 16 43
M  V30 47 1 16 44
M  V30 48 1 19 45
M  V30 49 1 20 46
M  V30 50 1 22 47
M  V30 51 1 23 48
M  V30 52 1 23 49
M  V30 53 1 26 50
M  V30 54 1 27 51
M  V30 55 1 28 52
M  V30 56 1 29 53
M  V30 57 1 30 54
M  V30 58 1 31 55
M  V30 END BOND
M  V30 END CTAB
M  END
