
     RDKit          3D

  0  0  0  0  0  0  0  0  0  0999 V3000
M  V30 BEGIN CTAB
M  V30 COUNTS 41 41 0 0 0
M  V30 BEGIN ATOM
M  V30 1 C 5.08892 1.42866 -0.0214825 0
M  V30 2 C 3.83353 0.620064 -0.370651 0
M  V30 3 C 3.239 0.173705 0.91826 0
M  V30 4 C 2.13881 -0.719736 1.00852 0
M  V30 5 C 0.810236 -0.500664 0.560673 0
M  V30 6 O -0.101394 -1.02425 1.16884 0
M  V30 7 N 0.418835 0.347832 -0.612695 0
M  V30 8 C -1.01743 0.292611 -0.773447 0
M  V30 9 C -1.79915 1.37745 -0.771562 0
M  V30 10 C -3.23245 1.21822 -0.78294 0
M  V30 11 C -4.01953 2.46107 -0.701878 0
M  V30 12 N -5.21562 2.23993 0.0873789 0
M  V30 13 C -3.76809 -0.0538768 -0.78371 0
M  V30 14 C -2.94497 -1.14302 -0.779702 0
M  V30 15 C -1.58203 -0.994813 -0.781832 0
M  V30 16 C -3.55853 -2.5088 -0.689097 0
M  V30 17 F -3.9604 -2.68596 0.644124 0
M  V30 18 F -2.62824 -3.46371 -1.0515 0
M  V30 19 F -4.69523 -2.55096 -1.42704 0
M  V30 20 N 2.0344 -1.20568 2.42524 0
M  V30 21 C 2.50409 -2.07832 0.268443 0
M  V30 22 H 5.35831 2.10514 -0.85127 0
M  V30 23 H 5.88449 0.646068 0.105117 0
M  V30 24 H 4.96593 2.01672 0.879373 0
M  V30 25 H 4.11464 -0.182138 -1.05673 0
M  V30 26 H 3.18498 1.3323 -0.915864 0
M  V30 27 H 4.12249 -0.110174 1.61666 0
M  V30 28 H 2.95423 1.18712 1.44709 0
M  V30 29 H 1.09879 0.819183 -1.12712 0
M  V30 30 H -1.4467 2.39882 -0.803524 0
M  V30 31 H -3.3741 3.24092 -0.15621 0
M  V30 32 H -4.27122 2.80487 -1.72196 0
M  V30 33 H -4.90219 1.87984 1.02642 0
M  V30 34 H -5.84144 1.55639 -0.384509 0
M  V30 35 H -4.81919 -0.138852 -0.773967 0
M  V30 36 H -0.941597 -1.85098 -0.826895 0
M  V30 37 H 1.84583 -0.316427 2.92888 0
M  V30 38 H 2.99442 -1.53221 2.66174 0
M  V30 39 H 1.60941 -2.70879 0.426335 0
M  V30 40 H 3.32987 -2.54084 0.786492 0
M  V30 41 H 2.58829 -1.83673 -0.794002 0
M  V30 END ATOM
M  V30 BEGIN BOND
M  V30 1 1 1 2
M  V30 2 1 2 3
M  V30 3 1 3 4
M  V30 4 1 4 5
M  V30 5 2 5 6
M  V30 6 1 5 7
M  V30 7 1 7 8
M  V30 8 2 8 9
M  V30 9 1 9 10
M  V30 10 1 10 11
M  V30 11 1 11 12
M  V30 12 2 10 13
M  V30 13 1 13 14
M  V30 14 2 14 15
M  V30 15 1 14 16
M  V30 16 1 16 17
M  V30 17 1 16 18
M  V30 18 1 16 19
M  V30 19 1 4 20
M  V30 20 1 4 21
M  V30 21 1 15 8
M  V30 22 1 1 22
M  V30 23 1 1 23
M  V30 24 1 1 24
M  V30 25 1 2 25
M  V30 26 1 2 26
M  V30 27 1 3 27
M  V30 28 1 3 28
M  V30 29 1 7 29
M  V30 30 1 9 30
M  V30 31 1 11 31
M  V30 32 1 11 32
M  V30 33 1 12 33
M  V30 34 1 12 34
M  V30 35 1 13 35
M  V30 36 1 15 36
M  V30 37 1 20 37
M  V30 38 1 20 38
M  V30 39 1 21 39
M  V30 40 1 21 40
M  V30 41 1 21 41
M  V30 END BOND
M  V30 END CTAB
M  END
