
     RDKit          3D

  0  0  0  0  0  0  0  0  0  0999 V3000
M  V30 BEGIN CTAB
M  V30 COUNTS 42 44 0 0 0
M  V30 BEGIN ATOM
M  V30 1 N 6.03851 -0.19857 -0.704708 0
M  V30 2 C 4.97764 0.701186 -0.971301 0 CFG=2
M  V30 3 C 4.06347 0.927359 0.226117 0
M  V30 4 C 2.88259 0.759795 -0.699585 0 CFG=1
M  V30 5 C 3.81002 0.017282 -1.65023 0
M  V30 6 C 1.80166 -0.0512573 -0.130912 0
M  V30 7 N 2.07074 -1.23694 0.432123 0
M  V30 8 C 1.08177 -2.00544 0.96587 0
M  V30 9 N 1.44898 -3.25002 1.54446 0
M  V30 10 N -0.18946 -1.56209 0.925192 0
M  V30 11 C -0.535261 -0.383457 0.376879 0
M  V30 12 C 0.483468 0.371708 -0.154398 0
M  V30 13 N -1.88282 0.061486 0.346494 0
M  V30 14 C -2.05687 1.32511 -0.270367 0
M  V30 15 C -3.42323 1.8637 -0.34948 0
M  V30 16 C -4.43682 1.27323 0.564327 0
M  V30 17 C -4.97878 -0.0536654 0.0667996 0
M  V30 18 C -3.92205 -1.10102 -0.0436623 0
M  V30 19 C -2.8148 -0.877357 0.95894 0
M  V30 20 H 5.87563 -0.761635 0.0987962 0
M  V30 21 H 6.93591 0.171396 -0.919444 0
M  V30 22 H 5.28921 1.66131 -1.46556 0
M  V30 23 H 4.15733 0.0836464 0.923555 0
M  V30 24 H 4.13347 1.93121 0.682142 0
M  V30 25 H 2.49502 1.70339 -1.12361 0
M  V30 26 H 3.68344 0.301839 -2.71699 0
M  V30 27 H 3.80808 -1.07708 -1.54982 0
M  V30 28 H 2.1186 -3.2769 2.33474 0
M  V30 29 H 1.06427 -4.14668 1.19817 0
M  V30 30 H 0.290301 1.33035 -0.613123 0
M  V30 31 H -1.62649 1.26937 -1.30379 0
M  V30 32 H -1.39484 2.06045 0.271203 0
M  V30 33 H -3.82325 1.7796 -1.39377 0
M  V30 34 H -3.40968 2.97674 -0.155459 0
M  V30 35 H -5.32906 1.9699 0.546083 0
M  V30 36 H -4.12755 1.24247 1.6208 0
M  V30 37 H -5.83036 -0.355408 0.67872 0
M  V30 38 H -5.36323 0.153256 -0.97182 0
M  V30 39 H -3.47481 -1.10171 -1.05877 0
M  V30 40 H -4.37768 -2.10075 0.107208 0
M  V30 41 H -2.33511 -1.86195 1.12724 0
M  V30 42 H -3.17795 -0.533837 1.94151 0
M  V30 END ATOM
M  V30 BEGIN BOND
M  V30 1 1 1 2
M  V30 2 1 2 3
M  V30 3 1 3 4
M  V30 4 1 4 5
M  V30 5 1 4 6
M  V30 6 2 6 7
M  V30 7 1 7 8
M  V30 8 1 8 9
M  V30 9 2 8 10
M  V30 10 1 10 11
M  V30 11 2 11 12
M  V30 12 1 11 13
M  V30 13 1 13 14
M  V30 14 1 14 15
M  V30 15 1 15 16
M  V30 16 1 16 17
M  V30 17 1 17 18
M  V30 18 1 18 19
M  V30 19 1 5 2
M  V30 20 1 12 6
M  V30 21 1 19 13
M  V30 22 1 1 20
M  V30 23 1 1 21
M  V30 24 1 2 22 CFG=3
M  V30 25 1 3 23
M  V30 26 1 3 24
M  V30 27 1 4 25 CFG=3
M  V30 28 1 5 26
M  V30 29 1 5 27
M  V30 30 1 9 28
M  V30 31 1 9 29
M  V30 32 1 12 30
M  V30 33 1 14 31
M  V30 34 1 14 32
M  V30 35 1 15 33
M  V30 36 1 15 34
M  V30 37 1 16 35
M  V30 38 1 16 36
M  V30 39 1 17 37
M  V30 40 1 17 38
M  V30 41 1 18 39
M  V30 42 1 18 40
M  V30 43 1 19 41
M  V30 44 1 19 42
M  V30 END BOND
M  V30 END CTAB
M  END
