
     RDKit          3D

  0  0  0  0  0  0  0  0  0  0999 V3000
M  V30 BEGIN CTAB
M  V30 COUNTS 15 14 0 0 0
M  V30 BEGIN ATOM
M  V30 1 C 1.80244 0.168585 0.113977 0
M  V30 2 C 0.490639 -0.505823 0.414943 0
M  V30 3 C -0.600541 -0.0950671 -0.571261 0
M  V30 4 N -1.79001 -0.834519 -0.135535 0
M  V30 5 N -0.842268 1.3207 -0.558002 0
M  V30 6 H 1.76842 0.519966 -0.938875 0
M  V30 7 H 2.67067 -0.497154 0.26846 0
M  V30 8 H 1.86405 1.08551 0.737773 0
M  V30 9 H 0.56419 -1.62375 0.312259 0
M  V30 10 H 0.105992 -0.238401 1.42043 0
M  V30 11 H -0.371688 -0.479189 -1.60312 0
M  V30 12 H -2.09235 -0.359739 0.768981 0
M  V30 13 H -1.53662 -1.81639 0.0843706 0
M  V30 14 H -1.8367 1.50218 -0.381532 0
M  V30 15 H -0.196222 1.8531 0.0671264 0
M  V30 END ATOM
M  V30 BEGIN BOND
M  V30 1 1 1 2
M  V30 2 1 2 3
M  V30 3 1 3 4
M  V30 4 1 3 5
M  V30 5 1 1 6
M  V30 6 1 1 7
M  V30 7 1 1 8
M  V30 8 1 2 9
M  V30 9 1 2 10
M  V30 10 1 3 11
M  V30 11 1 4 12
M  V30 12 1 4 13
M  V30 13 1 5 14
M  V30 14 1 5 15
M  V30 END BOND
M  V30 END CTAB
M  END
