
     RDKit          3D

  0  0  0  0  0  0  0  0  0  0999 V3000
M  V30 BEGIN CTAB
M  V30 COUNTS 50 53 0 0 0
M  V30 BEGIN ATOM
M  V30 1 N -7.12074 -1.31544 1.37678 0
M  V30 2 C -6.63136 -0.279545 0.487657 0 CFG=2
M  V30 3 C -5.64201 -0.765536 -0.553151 0
M  V30 4 C -4.53239 -0.474832 0.422585 0 CFG=2
M  V30 5 C -5.49525 0.491909 1.12361 0
M  V30 6 C -3.36321 0.243181 -0.139411 0
M  V30 7 C -2.10343 -0.251835 0.158094 0
M  V30 8 C -0.981389 0.370109 -0.333359 0
M  V30 9 N -1.10678 1.4586 -1.10269 0
M  V30 10 C -2.34154 1.92341 -1.37982 0
M  V30 11 N -3.45148 1.32271 -0.903952 0
M  V30 12 N -2.54264 3.07957 -2.19404 0
M  V30 13 N 0.325628 -0.0993153 -0.0540334 0
M  V30 14 C 1.50574 0.559532 -0.631653 0
M  V30 15 C 2.49567 -0.599012 -0.834307 0
M  V30 16 N 2.91544 -0.964818 0.473734 0
M  V30 17 C 1.88873 -1.42489 1.33663 0
M  V30 18 C 0.48566 -1.24648 0.815368 0
M  V30 19 C 4.2072 -1.50686 0.628762 0
M  V30 20 C 5.24891 -0.537989 0.22451 0
M  V30 21 C 6.55816 -0.990068 0.0741579 0
M  V30 22 C 7.58551 -0.153792 -0.291136 0
M  V30 23 C 7.29421 1.1743 -0.512578 0
M  V30 24 C 5.99952 1.61828 -0.363262 0
M  V30 25 N 5.0274 0.764975 -0.00473404 0
M  V30 26 H -7.14333 -2.22348 0.865607 0
M  V30 27 H -8.04817 -1.04825 1.77348 0
M  V30 28 H -7.4013 0.392235 0.0734405 0
M  V30 29 H -5.80733 -1.82602 -0.780847 0
M  V30 30 H -5.66007 -0.07758 -1.42782 0
M  V30 31 H -4.28102 -1.34661 1.0326 0
M  V30 32 H -5.36429 1.50115 0.712066 0
M  V30 33 H -5.45715 0.452035 2.22277 0
M  V30 34 H -2.02869 -1.1393 0.785019 0
M  V30 35 H -2.22961 4.02042 -1.88044 0
M  V30 36 H -3.00575 3.03695 -3.12762 0
M  V30 37 H 1.28096 1.07941 -1.55942 0
M  V30 38 H 1.93424 1.19623 0.169228 0
M  V30 39 H 1.88681 -1.39831 -1.33554 0
M  V30 40 H 3.30262 -0.36504 -1.51862 0
M  V30 41 H 1.99492 -2.48471 1.64766 0
M  V30 42 H 1.93315 -0.83491 2.2989 0
M  V30 43 H -0.218144 -1.1355 1.69267 0
M  V30 44 H 0.165844 -2.1455 0.248675 0
M  V30 45 H 4.37147 -1.73124 1.69815 0
M  V30 46 H 4.39111 -2.44783 0.0708664 0
M  V30 47 H 6.74648 -2.05661 0.260483 0
M  V30 48 H 8.59974 -0.527908 -0.402642 0
M  V30 49 H 8.04674 1.89637 -0.802884 0
M  V30 50 H 5.7652 2.6777 -0.539542 0
M  V30 END ATOM
M  V30 BEGIN BOND
M  V30 1 1 1 2
M  V30 2 1 2 3
M  V30 3 1 3 4
M  V30 4 1 4 5
M  V30 5 1 4 6
M  V30 6 2 6 7
M  V30 7 1 7 8
M  V30 8 2 8 9
M  V30 9 1 9 10
M  V30 10 2 10 11
M  V30 11 1 10 12
M  V30 12 1 8 13
M  V30 13 1 13 14
M  V30 14 1 14 15
M  V30 15 1 15 16
M  V30 16 1 16 17
M  V30 17 1 17 18
M  V30 18 1 16 19
M  V30 19 1 19 20
M  V30 20 2 20 21
M  V30 21 1 21 22
M  V30 22 2 22 23
M  V30 23 1 23 24
M  V30 24 2 24 25
M  V30 25 1 5 2
M  V30 26 1 11 6
M  V30 27 1 18 13
M  V30 28 1 25 20
M  V30 29 1 1 26
M  V30 30 1 1 27
M  V30 31 1 2 28 CFG=3
M  V30 32 1 3 29
M  V30 33 1 3 30
M  V30 34 1 4 31 CFG=1
M  V30 35 1 5 32
M  V30 36 1 5 33
M  V30 37 1 7 34
M  V30 38 1 12 35
M  V30 39 1 12 36
M  V30 40 1 14 37
M  V30 41 1 14 38
M  V30 42 1 15 39
M  V30 43 1 15 40
M  V30 44 1 17 41
M  V30 45 1 17 42
M  V30 46 1 18 43
M  V30 47 1 18 44
M  V30 48 1 19 45
M  V30 49 1 19 46
M  V30 50 1 21 47
M  V30 51 1 22 48
M  V30 52 1 23 49
M  V30 53 1 24 50
M  V30 END BOND
M  V30 END CTAB
M  END
