
     RDKit          3D

  0  0  0  0  0  0  0  0  0  0999 V3000
M  V30 BEGIN CTAB
M  V30 COUNTS 53 55 0 0 0
M  V30 BEGIN ATOM
M  V30 1 C 0.0168741 6.97526 -0.0928463 0
M  V30 2 O 0.222866 5.81003 0.660647 0
M  V30 3 C -0.218931 4.54165 0.288363 0
M  V30 4 C 0.0518677 3.48366 1.09641 0
M  V30 5 C -0.379695 2.18918 0.751381 0
M  V30 6 C 0.0784343 1.11106 1.66153 0
M  V30 7 C 1.35886 0.487851 1.27713 0
M  V30 8 C 1.52983 -0.83932 0.995211 0
M  V30 9 C 0.475407 -1.82624 1.15351 0
M  V30 10 C 2.77782 -1.32406 0.554532 0
M  V30 11 C 3.83476 -0.402183 0.408544 0
M  V30 12 N 3.64717 0.890992 0.689185 0
M  V30 13 C 2.4596 1.31739 1.10605 0
M  V30 14 N 5.03253 -0.855804 0.0018566 0
M  V30 15 C 5.2979 -2.14949 -0.278679 0
M  V30 16 N 6.58274 -2.57666 -0.70722 0
M  V30 17 N 4.27935 -2.99225 -0.125212 0
M  V30 18 C 3.02873 -2.63561 0.280705 0
M  V30 19 N 2.06197 -3.64831 0.462866 0
M  V30 20 C -1.06412 2.00553 -0.374534 0
M  V30 21 C -1.34119 3.11545 -1.21307 0
M  V30 22 C -0.91609 4.35983 -0.871479 0
M  V30 23 C -1.66498 0.748982 -0.769156 0
M  V30 24 C -2.22234 -0.242029 -1.10446 0
M  V30 25 C -2.98873 -1.44113 -1.56207 0
M  V30 26 C -2.95373 -2.45761 -0.492578 0
M  V30 27 C -3.79812 -3.67221 -0.940523 0
M  V30 28 C -5.21755 -3.27592 -1.14219 0
M  V30 29 O -6.08792 -3.33696 -0.0411772 0
M  V30 30 O -5.69021 -2.88329 -2.24482 0
M  V30 31 H -1.03903 7.05506 -0.411104 0
M  V30 32 H 0.640289 6.92946 -1.00923 0
M  V30 33 H 0.243297 7.90041 0.496429 0
M  V30 34 H 0.589555 3.654 2.02894 0
M  V30 35 H 0.286832 1.59489 2.669 0
M  V30 36 H -0.738349 0.420827 1.87686 0
M  V30 37 H -0.486441 -1.22227 1.31452 0
M  V30 38 H 0.156652 -2.32574 0.219236 0
M  V30 39 H 0.465335 -2.40532 2.07666 0
M  V30 40 H 2.40244 2.37637 1.31552 0
M  V30 41 H 6.79171 -2.59533 -1.71803 0
M  V30 42 H 7.30521 -2.86406 -0.0353271 0
M  V30 43 H 1.87822 -4.05742 1.41437 0
M  V30 44 H 1.54777 -4.00349 -0.363896 0
M  V30 45 H -1.8964 2.99169 -2.14309 0
M  V30 46 H -1.12898 5.19179 -1.51488 0
M  V30 47 H -4.05475 -1.14165 -1.73121 0
M  V30 48 H -2.62424 -1.83785 -2.51253 0
M  V30 49 H -3.42595 -2.13314 0.458765 0
M  V30 50 H -1.96726 -2.886 -0.317181 0
M  V30 51 H -3.74352 -4.496 -0.235893 0
M  V30 52 H -3.43817 -4.0398 -1.94119 0
M  V30 53 H -5.95731 -2.58422 0.635363 0
M  V30 END ATOM
M  V30 BEGIN BOND
M  V30 1 1 1 2
M  V30 2 1 2 3
M  V30 3 2 3 4
M  V30 4 1 4 5
M  V30 5 1 5 6
M  V30 6 1 6 7
M  V30 7 2 7 8
M  V30 8 1 8 9
M  V30 9 1 8 10
M  V30 10 2 10 11
M  V30 11 1 11 12
M  V30 12 2 12 13
M  V30 13 1 11 14
M  V30 14 2 14 15
M  V30 15 1 15 16
M  V30 16 1 15 17
M  V30 17 2 17 18
M  V30 18 1 18 19
M  V30 19 2 5 20
M  V30 20 1 20 21
M  V30 21 2 21 22
M  V30 22 1 20 23
M  V30 23 3 23 24
M  V30 24 1 24 25
M  V30 25 1 25 26
M  V30 26 1 26 27
M  V30 27 1 27 28
M  V30 28 1 28 29
M  V30 29 2 28 30
M  V30 30 1 22 3
M  V30 31 1 13 7
M  V30 32 1 18 10
M  V30 33 1 1 31
M  V30 34 1 1 32
M  V30 35 1 1 33
M  V30 36 1 4 34
M  V30 37 1 6 35
M  V30 38 1 6 36
M  V30 39 1 9 37
M  V30 40 1 9 38
M  V30 41 1 9 39
M  V30 42 1 13 40
M  V30 43 1 16 41
M  V30 44 1 16 42
M  V30 45 1 19 43
M  V30 46 1 19 44
M  V30 47 1 21 45
M  V30 48 1 22 46
M  V30 49 1 25 47
M  V30 50 1 25 48
M  V30 51 1 26 49
M  V30 52 1 26 50
M  V30 53 1 27 51
M  V30 54 1 27 52
M  V30 55 1 29 53
M  V30 END BOND
M  V30 END CTAB
M  END
