
     RDKit          3D

  0  0  0  0  0  0  0  0  0  0999 V3000
M  V30 BEGIN CTAB
M  V30 COUNTS 23 24 0 0 0
M  V30 BEGIN ATOM
M  V30 1 N 3.3731 -1.86786 -0.0146873 0
M  V30 2 C 2.18582 -1.04739 0.0194446 0
M  V30 3 N 0.960406 -1.5903 -0.0942457 0
M  V30 4 C -0.185621 -0.864958 -0.0684491 0
M  V30 5 C -1.5187 -1.50734 -0.197782 0
M  V30 6 C -2.59134 -0.482234 -0.0573586 0
M  V30 7 N -2.2349 0.779165 -0.721482 0
M  V30 8 C -1.22058 1.37847 0.125241 0
M  V30 9 C -0.0407428 0.49633 0.0839803 0
M  V30 10 C 1.21305 1.10545 0.206046 0
M  V30 11 N 2.2765 0.288068 0.166645 0
M  V30 12 N 1.31971 2.51152 0.361533 0
M  V30 13 H 3.70961 -2.21349 0.916672 0
M  V30 14 H 3.86986 -2.10949 -0.874911 0
M  V30 15 H -1.56958 -1.96748 -1.20582 0
M  V30 16 H -1.62611 -2.24379 0.618722 0
M  V30 17 H -2.72782 -0.264498 1.03692 0
M  V30 18 H -3.53857 -0.820498 -0.510606 0
M  V30 19 H -1.74722 0.493519 -1.60966 0
M  V30 20 H -1.66802 1.43914 1.1467 0
M  V30 21 H -0.967429 2.40987 -0.183698 0
M  V30 22 H 0.95127 3.17938 -0.345498 0
M  V30 23 H 1.77732 2.89842 1.20229 0
M  V30 END ATOM
M  V30 BEGIN BOND
M  V30 1 1 1 2
M  V30 2 2 2 3
M  V30 3 1 3 4
M  V30 4 1 4 5
M  V30 5 1 5 6
M  V30 6 1 6 7
M  V30 7 1 7 8
M  V30 8 1 8 9
M  V30 9 1 9 10
M  V30 10 2 10 11
M  V30 11 1 10 12
M  V30 12 1 11 2
M  V30 13 2 9 4
M  V30 14 1 1 13
M  V30 15 1 1 14
M  V30 16 1 5 15
M  V30 17 1 5 16
M  V30 18 1 6 17
M  V30 19 1 6 18
M  V30 20 1 7 19
M  V30 21 1 8 20
M  V30 22 1 8 21
M  V30 23 1 12 22
M  V30 24 1 12 23
M  V30 END BOND
M  V30 END CTAB
M  END
