
     RDKit          3D

  0  0  0  0  0  0  0  0  0  0999 V3000
M  V30 BEGIN CTAB
M  V30 COUNTS 53 58 0 0 0
M  V30 BEGIN ATOM
M  V30 1 N -8.77421 -0.0224681 3.90201 0
M  V30 2 C -7.77358 0.0315563 2.88816 0
M  V30 3 C -6.87654 -1.00781 2.79326 0
M  V30 4 C -5.91702 -0.936106 1.80626 0
M  V30 5 C -5.80638 0.108564 0.916984 0
M  V30 6 C -6.73049 1.1408 1.04352 0
M  V30 7 C -7.70216 1.09866 2.02024 0
M  V30 8 C -4.78871 0.177185 -0.124303 0
M  V30 9 O -3.85656 -0.691137 -0.381579 0
M  V30 10 C -3.10363 -0.312739 -1.39703 0
M  V30 11 C -3.59072 0.901367 -1.83133 0
M  V30 12 N -4.63225 1.16926 -1.01854 0
M  V30 13 C -2.99151 1.54433 -2.89513 0
M  V30 14 C -1.90052 1.00948 -3.55634 0
M  V30 15 C -1.426 -0.209177 -3.10642 0
M  V30 16 C -2.0191 -0.854112 -2.04709 0
M  V30 17 S -0.0512996 -0.968544 -3.87574 0
M  V30 18 O 0.0200647 -0.549096 -5.31614 0
M  V30 19 O -0.131659 -2.46272 -3.74097 0
M  V30 20 C 1.38721 -0.407751 -3.05239 0
M  V30 21 C 1.99798 0.732109 -3.52531 0
M  V30 22 C 3.14011 1.21749 -2.90828 0
M  V30 23 C 3.68669 0.561304 -1.80265 0
M  V30 24 C 3.07211 -0.577411 -1.33432 0
M  V30 25 C 1.93365 -1.04141 -1.96744 0
M  V30 26 N 3.79831 -0.991143 -0.283166 0
M  V30 27 C 4.81966 -0.144214 -0.107959 0
M  V30 28 O 4.71431 0.768379 -1.03805 0
M  V30 29 C 5.82279 -0.266828 0.934622 0
M  V30 30 C 6.86402 0.650432 1.06408 0
M  V30 31 C 7.79708 0.50424 2.0632 0
M  V30 32 C 7.75507 -0.533145 2.97047 0
M  V30 33 C 6.72495 -1.44382 2.84533 0
M  V30 34 C 5.78803 -1.30011 1.8449 0
M  V30 35 N 8.74381 -0.658686 4.00243 0
M  V30 36 H -9.62949 0.536552 3.75182 0
M  V30 37 H -8.6882 -0.580712 4.76056 0
M  V30 38 H -6.94582 -1.8419 3.48474 0
M  V30 39 H -5.19214 -1.74007 1.70272 0
M  V30 40 H -6.68185 1.97467 0.372287 0
M  V30 41 H -8.42451 1.88981 2.13092 0
M  V30 42 H -3.39035 2.48177 -3.20833 0
M  V30 43 H -1.42073 1.50791 -4.39586 0
M  V30 44 H -1.62257 -1.80167 -1.72408 0
M  V30 45 H 1.61732 1.28481 -4.38259 0
M  V30 46 H 3.64294 2.10414 -3.25039 0
M  V30 47 H 1.44351 -1.9315 -1.61041 0
M  V30 48 H 6.87715 1.45435 0.342951 0
M  V30 49 H 8.59988 1.22551 2.15019 0
M  V30 50 H 6.69088 -2.26827 3.56574 0
M  V30 51 H 4.98234 -2.03629 1.76882 0
M  V30 52 H 9.40944 -1.45131 4.03665 0
M  V30 53 H 8.73868 0.115911 4.71897 0
M  V30 END ATOM
M  V30 BEGIN BOND
M  V30 1 1 1 2
M  V30 2 2 2 3
M  V30 3 1 3 4
M  V30 4 2 4 5
M  V30 5 1 5 6
M  V30 6 2 6 7
M  V30 7 1 5 8
M  V30 8 1 8 9
M  V30 9 1 9 10
M  V30 10 2 10 11
M  V30 11 1 11 12
M  V30 12 1 11 13
M  V30 13 2 13 14
M  V30 14 1 14 15
M  V30 15 2 15 16
M  V30 16 1 15 17
M  V30 17 2 17 18
M  V30 18 2 17 19
M  V30 19 1 17 20
M  V30 20 2 20 21
M  V30 21 1 21 22
M  V30 22 2 22 23
M  V30 23 1 23 24
M  V30 24 2 24 25
M  V30 25 1 24 26
M  V30 26 2 26 27
M  V30 27 1 27 28
M  V30 28 1 27 29
M  V30 29 2 29 30
M  V30 30 1 30 31
M  V30 31 2 31 32
M  V30 32 1 32 33
M  V30 33 2 33 34
M  V30 34 1 32 35
M  V30 35 1 7 2
M  V30 36 2 12 8
M  V30 37 1 25 20
M  V30 38 1 34 29
M  V30 39 1 16 10
M  V30 40 1 28 23
M  V30 41 1 1 36
M  V30 42 1 1 37
M  V30 43 1 3 38
M  V30 44 1 4 39
M  V30 45 1 6 40
M  V30 46 1 7 41
M  V30 47 1 13 42
M  V30 48 1 14 43
M  V30 49 1 16 44
M  V30 50 1 21 45
M  V30 51 1 22 46
M  V30 52 1 25 47
M  V30 53 1 30 48
M  V30 54 1 31 49
M  V30 55 1 33 50
M  V30 56 1 34 51
M  V30 57 1 35 52
M  V30 58 1 35 53
M  V30 END BOND
M  V30 END CTAB
M  END
