
     RDKit          3D

  0  0  0  0  0  0  0  0  0  0999 V3000
M  V30 BEGIN CTAB
M  V30 COUNTS 42 45 0 0 0
M  V30 BEGIN ATOM
M  V30 1 N -4.12628 -4.01146 0.825503 0
M  V30 2 C -5.19895 -3.22902 0.341698 0
M  V30 3 N -5.01486 -2.05199 -0.0630474 0
M  V30 4 C -3.75353 -1.38872 -0.0831124 0
M  V30 5 S -2.29697 -2.08118 0.436171 0
M  V30 6 C -1.22588 -0.71157 0.124015 0
M  V30 7 C -2.12108 0.171058 -0.370821 0
M  V30 8 N -3.38362 -0.206692 -0.456357 0
M  V30 9 C -1.78038 1.53924 -0.871915 0
M  V30 10 C -1.01 1.73649 -2.00429 0
M  V30 11 C -0.698455 2.99516 -2.46253 0
M  V30 12 C -1.14425 4.11466 -1.80758 0
M  V30 13 C -1.91541 3.9363 -0.674079 0
M  V30 14 C -2.2293 2.65434 -0.21238 0
M  V30 15 C 0.206467 -0.717028 0.377358 0
M  V30 16 O 0.652038 -1.89809 0.681453 0
M  V30 17 N 1.07927 0.368992 0.331587 0
M  V30 18 C 2.49134 0.341392 0.553447 0
M  V30 19 C 3.12549 1.56936 0.790545 0
M  V30 20 C 4.48421 1.65982 0.999364 0
M  V30 21 C 5.27063 0.530401 0.981063 0
M  V30 22 C 4.67417 -0.680388 0.751179 0
M  V30 23 C 3.29436 -0.757686 0.540552 0
M  V30 24 O 5.68233 -1.63341 0.786035 0
M  V30 25 C 6.94836 -0.983824 0.610905 0
M  V30 26 O 6.64465 0.307648 1.15549 0
M  V30 27 N -6.496 -3.78761 0.3164 0
M  V30 28 H -3.56561 -4.64789 0.184493 0
M  V30 29 H -3.80975 -4.02513 1.82203 0
M  V30 30 H -0.661221 0.853223 -2.51669 0
M  V30 31 H -0.0993451 3.11337 -3.34314 0
M  V30 32 H -0.902737 5.12814 -2.16283 0
M  V30 33 H -2.29037 4.79296 -0.123206 0
M  V30 34 H -2.82957 2.5861 0.66993 0
M  V30 35 H 0.631925 1.32073 0.162507 0
M  V30 36 H 2.52921 2.48301 0.811777 0
M  V30 37 H 4.9768 2.60452 1.18246 0
M  V30 38 H 2.88974 -1.72332 0.354955 0
M  V30 39 H 7.75613 -1.48477 1.14244 0
M  V30 40 H 7.18383 -0.85169 -0.454679 0
M  V30 41 H -7.19055 -3.38518 1.00087 0
M  V30 42 H -6.77681 -4.55026 -0.327562 0
M  V30 END ATOM
M  V30 BEGIN BOND
M  V30 1 1 1 2
M  V30 2 2 2 3 CFG=2
M  V30 3 1 3 4
M  V30 4 1 4 5
M  V30 5 1 5 6
M  V30 6 2 6 7
M  V30 7 1 7 8
M  V30 8 1 7 9
M  V30 9 2 9 10
M  V30 10 1 10 11
M  V30 11 2 11 12
M  V30 12 1 12 13
M  V30 13 2 13 14
M  V30 14 1 6 15
M  V30 15 2 15 16
M  V30 16 1 15 17
M  V30 17 1 17 18
M  V30 18 2 18 19
M  V30 19 1 19 20
M  V30 20 2 20 21
M  V30 21 1 21 22
M  V30 22 2 22 23
M  V30 23 1 22 24
M  V30 24 1 24 25
M  V30 25 1 25 26
M  V30 26 1 2 27
M  V30 27 2 8 4
M  V30 28 1 14 9
M  V30 29 1 23 18
M  V30 30 1 26 21
M  V30 31 1 1 28
M  V30 32 1 1 29
M  V30 33 1 10 30
M  V30 34 1 11 31
M  V30 35 1 12 32
M  V30 36 1 13 33
M  V30 37 1 14 34
M  V30 38 1 17 35
M  V30 39 1 19 36
M  V30 40 1 20 37
M  V30 41 1 23 38
M  V30 42 1 25 39
M  V30 43 1 25 40
M  V30 44 1 27 41
M  V30 45 1 27 42
M  V30 END BOND
M  V30 END CTAB
M  END
