
     RDKit          3D

  0  0  0  0  0  0  0  0  0  0999 V3000
M  V30 BEGIN CTAB
M  V30 COUNTS 16 15 0 0 0
M  V30 BEGIN ATOM
M  V30 1 N 3.48276 1.23689 0.252341 0
M  V30 2 N 2.18793 0.722549 0.229413 0
M  V30 3 C 1.80143 -0.164055 -0.623803 0
M  V30 4 N 0.499749 -0.706793 -0.676486 0
M  V30 5 N -0.324897 -0.856526 0.427017 0
M  V30 6 C -1.72747 -0.795834 0.314243 0
M  V30 7 N -2.28277 0.309041 -0.00961618 0
M  V30 8 N -3.65455 0.482914 -0.149484 0
M  V30 9 H 4.03601 1.36461 -0.598379 0
M  V30 10 H 3.8884 1.49525 1.16811 0
M  V30 11 H 2.56292 -0.491973 -1.33821 0
M  V30 12 H 0.140326 -1.0132 -1.60782 0
M  V30 13 H 0.0682779 -1.022 1.39517 0
M  V30 14 H -2.33309 -1.65717 0.494821 0
M  V30 15 H -4.28197 0.592592 0.668498 0
M  V30 16 H -4.06305 0.503699 -1.0985 0
M  V30 END ATOM
M  V30 BEGIN BOND
M  V30 1 1 1 2
M  V30 2 2 2 3
M  V30 3 1 3 4
M  V30 4 1 4 5
M  V30 5 1 5 6
M  V30 6 2 6 7
M  V30 7 1 7 8
M  V30 8 1 1 9
M  V30 9 1 1 10
M  V30 10 1 3 11
M  V30 11 1 4 12
M  V30 12 1 5 13
M  V30 13 1 6 14
M  V30 14 1 8 15
M  V30 15 1 8 16
M  V30 END BOND
M  V30 END CTAB
M  END
