
     RDKit          3D

  0  0  0  0  0  0  0  0  0  0999 V3000
M  V30 BEGIN CTAB
M  V30 COUNTS 19 19 0 0 0
M  V30 BEGIN ATOM
M  V30 1 N 3.01579 0.207985 0.708991 0
M  V30 2 C 1.69466 -0.137992 0.318765 0
M  V30 3 C 1.38489 -1.43041 -0.0702365 0
M  V30 4 C 0.0702094 -1.72357 -0.446008 0
M  V30 5 I -0.478702 -3.66525 -1.04969 0
M  V30 6 C -0.876568 -0.7161 -0.417329 0
M  V30 7 C -0.590461 0.565553 -0.0364428 0
M  V30 8 C 0.723404 0.844309 0.335604 0
M  V30 9 C -1.62842 1.57282 -0.0289089 0
M  V30 10 O -2.78884 1.27445 -0.370331 0
M  V30 11 O -1.34283 2.8659 0.354655 0
M  V30 12 N -2.20404 -1.02323 -0.799525 0
M  V30 13 H 3.6008 0.908306 0.192793 0
M  V30 14 H 3.49146 -0.224895 1.5515 0
M  V30 15 H 2.14788 -2.19618 -0.0820146 0
M  V30 16 H 0.974739 1.84427 0.639287 0
M  V30 17 H -1.74132 3.31695 1.17074 0
M  V30 18 H -2.97133 -1.26395 -0.146474 0
M  V30 19 H -2.48131 -1.01896 -1.82537 0
M  V30 END ATOM
M  V30 BEGIN BOND
M  V30 1 1 1 2
M  V30 2 2 2 3
M  V30 3 1 3 4
M  V30 4 1 4 5
M  V30 5 2 4 6
M  V30 6 1 6 7
M  V30 7 2 7 8
M  V30 8 1 7 9
M  V30 9 2 9 10
M  V30 10 1 9 11
M  V30 11 1 6 12
M  V30 12 1 8 2
M  V30 13 1 1 13
M  V30 14 1 1 14
M  V30 15 1 3 15
M  V30 16 1 8 16
M  V30 17 1 11 17
M  V30 18 1 12 18
M  V30 19 1 12 19
M  V30 END BOND
M  V30 END CTAB
M  END
