
     RDKit          3D

  0  0  0  0  0  0  0  0  0  0999 V3000
M  V30 BEGIN CTAB
M  V30 COUNTS 22 23 0 0 0
M  V30 BEGIN ATOM
M  V30 1 Cl 5.34523 0.728272 -0.0868151 0
M  V30 2 C 3.62386 0.469128 -0.0106698 0
M  V30 3 C 2.78324 1.43325 -0.544908 0
M  V30 4 C 1.42531 1.25532 -0.498708 0
M  V30 5 C 0.858696 0.133946 0.0691868 0
M  V30 6 N 1.68026 -0.783072 0.578088 0
M  V30 7 C 3.03301 -0.638787 0.549338 0
M  V30 8 N -0.57017 0.0164233 0.0812956 0
M  V30 9 N -1.44676 0.977351 0.145662 0
M  V30 10 C -2.7185 0.542299 0.138356 0
M  V30 11 C -2.62646 -0.830947 0.0615543 0
M  V30 12 C -1.28396 -1.13959 0.0269947 0
M  V30 13 N -0.731675 -2.42923 -0.0512169 0
M  V30 14 N -3.88462 1.35654 0.198417 0
M  V30 15 H 3.16424 2.33324 -1.00324 0
M  V30 16 H 0.799499 2.03883 -0.930867 0
M  V30 17 H 3.67113 -1.39205 0.966085 0
M  V30 18 H -3.48707 -1.51576 0.0351315 0
M  V30 19 H -1.15346 -3.23855 0.446351 0
M  V30 20 H 0.122591 -2.61028 -0.614788 0
M  V30 21 H -4.132 1.95446 -0.614038 0
M  V30 22 H -4.47237 1.33921 1.05879 0
M  V30 END ATOM
M  V30 BEGIN BOND
M  V30 1 1 1 2
M  V30 2 2 2 3
M  V30 3 1 3 4
M  V30 4 2 4 5
M  V30 5 1 5 6
M  V30 6 2 6 7
M  V30 7 1 5 8
M  V30 8 1 8 9
M  V30 9 2 9 10
M  V30 10 1 10 11
M  V30 11 2 11 12
M  V30 12 1 12 13
M  V30 13 1 10 14
M  V30 14 1 7 2
M  V30 15 1 12 8
M  V30 16 1 3 15
M  V30 17 1 4 16
M  V30 18 1 7 17
M  V30 19 1 11 18
M  V30 20 1 13 19
M  V30 21 1 13 20
M  V30 22 1 14 21
M  V30 23 1 14 22
M  V30 END BOND
M  V30 END CTAB
M  END
