
     RDKit          3D

  0  0  0  0  0  0  0  0  0  0999 V3000
M  V30 BEGIN CTAB
M  V30 COUNTS 42 44 0 0 0
M  V30 BEGIN ATOM
M  V30 1 N -5.25579 2.44684 -0.258076 0
M  V30 2 C -5.27595 1.0931 0.223167 0
M  V30 3 C -4.45821 0.108481 -0.626139 0
M  V30 4 C -3.98592 -0.493798 0.704009 0
M  V30 5 C -4.21649 0.881303 1.31256 0
M  V30 6 C -2.59373 -0.95831 0.704788 0
M  V30 7 C -1.54481 -0.188597 0.269097 0
M  V30 8 C -0.266033 -0.701988 0.303591 0
M  V30 9 N 0.861994 0.072357 -0.144169 0
M  V30 10 C 2.18619 -0.452752 -0.110961 0
M  V30 11 C 3.22373 0.474718 -0.606792 0
M  V30 12 C 3.01235 1.74516 -1.0746 0
M  V30 13 C 4.03407 2.58461 -1.53409 0
M  V30 14 F 3.75351 3.82957 -1.983 0
M  V30 15 C 5.31746 2.13377 -1.52455 0
M  V30 16 C 5.56181 0.866159 -1.06211 0
M  V30 17 C 4.56413 0.048775 -0.61433 0
M  V30 18 C 4.85362 -1.32005 -0.118262 0
M  V30 19 N -0.05472 -1.94162 0.75924 0
M  V30 20 C -1.06837 -2.68474 1.18 0
M  V30 21 N -2.31516 -2.18649 1.14727 0
M  V30 22 N -0.797354 -3.99215 1.65432 0
M  V30 23 H -4.47593 2.51363 -0.972994 0
M  V30 24 H -5.03598 3.08278 0.537233 0
M  V30 25 H -6.25644 0.684997 0.522511 0
M  V30 26 H -5.1034 -0.573058 -1.20377 0
M  V30 27 H -3.64928 0.602314 -1.17044 0
M  V30 28 H -4.71455 -1.22999 1.08536 0
M  V30 29 H -4.71354 0.873041 2.3008 0
M  V30 30 H -3.35249 1.55887 1.21336 0
M  V30 31 H -1.73986 0.814501 -0.0964886 0
M  V30 32 H 0.649708 1.02656 -0.488515 0
M  V30 33 H 2.1987 -1.32292 -0.8304 0
M  V30 34 H 2.45311 -0.874819 0.889486 0
M  V30 35 H 2.00297 2.16257 -1.10661 0
M  V30 36 H 6.14382 2.75571 -1.87396 0
M  V30 37 H 6.60821 0.521319 -1.0632 0
M  V30 38 H 4.47804 -2.08348 -0.856762 0
M  V30 39 H 5.95012 -1.47317 -0.0752482 0
M  V30 40 H 4.41378 -1.45798 0.882698 0
M  V30 41 H -0.540907 -4.72998 0.974489 0
M  V30 42 H -0.852417 -4.21525 2.66276 0
M  V30 END ATOM
M  V30 BEGIN BOND
M  V30 1 1 1 2
M  V30 2 1 2 3
M  V30 3 1 3 4
M  V30 4 1 4 5
M  V30 5 1 4 6
M  V30 6 2 6 7
M  V30 7 1 7 8
M  V30 8 1 8 9
M  V30 9 1 9 10
M  V30 10 1 10 11
M  V30 11 2 11 12
M  V30 12 1 12 13
M  V30 13 1 13 14
M  V30 14 2 13 15
M  V30 15 1 15 16
M  V30 16 2 16 17
M  V30 17 1 17 18
M  V30 18 2 8 19
M  V30 19 1 19 20
M  V30 20 2 20 21
M  V30 21 1 20 22
M  V30 22 1 5 2
M  V30 23 1 21 6
M  V30 24 1 17 11
M  V30 25 1 1 23
M  V30 26 1 1 24
M  V30 27 1 2 25
M  V30 28 1 3 26
M  V30 29 1 3 27
M  V30 30 1 4 28
M  V30 31 1 5 29
M  V30 32 1 5 30
M  V30 33 1 7 31
M  V30 34 1 9 32
M  V30 35 1 10 33
M  V30 36 1 10 34
M  V30 37 1 12 35
M  V30 38 1 15 36
M  V30 39 1 16 37
M  V30 40 1 18 38
M  V30 41 1 18 39
M  V30 42 1 18 40
M  V30 43 1 22 41
M  V30 44 1 22 42
M  V30 END BOND
M  V30 END CTAB
M  END
