
     RDKit          3D

  0  0  0  0  0  0  0  0  0  0999 V3000
M  V30 BEGIN CTAB
M  V30 COUNTS 68 73 0 0 0
M  V30 BEGIN ATOM
M  V30 1 N -8.22417 0.129693 -2.58931 0
M  V30 2 C -7.55379 0.559739 -1.42468 0
M  V30 3 N -8.26431 1.17996 -0.454316 0
M  V30 4 C -7.64398 1.60678 0.682294 0
M  V30 5 N -8.36676 2.25771 1.71111 0
M  V30 6 C -6.29527 1.40923 0.84801 0
M  V30 7 C -5.56433 0.777599 -0.136999 0
M  V30 8 N -6.2387 0.390985 -1.21414 0
M  V30 9 N -4.26554 0.70099 0.254968 0
M  V30 10 C -4.24674 1.28825 1.46628 0
M  V30 11 N -5.45731 1.71993 1.83874 0
M  V30 12 C -3.16939 0.110439 -0.490463 0 CFG=1
M  V30 13 C -1.92843 0.267067 0.337675 0
M  V30 14 C -0.73851 -0.488182 -0.179015 0
M  V30 15 C -0.0657293 -1.19094 0.97059 0
M  V30 16 C 1.41006 -1.408 0.722146 0
M  V30 17 N 2.0223 -0.0835414 0.801852 0
M  V30 18 C 1.20428 1.01963 0.351842 0
M  V30 19 C 0.237713 0.559518 -0.71221 0
M  V30 20 C 3.35172 0.116527 1.2964 0
M  V30 21 O 3.77024 1.27839 1.3194 0
M  V30 22 C 4.16011 -1.00673 1.749 0
M  V30 23 C 5.57221 -0.721542 2.10437 0
M  V30 24 C 6.40936 -0.200067 1.02084 0
M  V30 25 N 7.05581 -0.996081 0.112797 0
M  V30 26 C 7.76276 -0.240553 -0.729934 0
M  V30 27 C 7.5697 1.05903 -0.360212 0
M  V30 28 N 6.74339 1.04557 0.705966 0
M  V30 29 C 8.20287 2.05433 -1.08613 0
M  V30 30 C 9.02053 1.77241 -2.16856 0
M  V30 31 C 9.19187 0.451014 -2.51216 0
M  V30 32 C 8.56327 -0.569864 -1.7945 0
M  V30 33 O -1.05742 -1.30309 -1.23071 0
M  V30 34 C -2.12305 -2.11804 -0.916629 0
M  V30 35 C -3.44018 -1.33224 -0.859334 0 CFG=1
M  V30 36 C -4.32177 -2.03457 0.151608 0
M  V30 37 O -3.97805 -1.38625 -2.14224 0
M  V30 38 H -9.03965 -0.495009 -2.5025 0
M  V30 39 H -7.90345 0.436292 -3.51973 0
M  V30 40 H -8.12367 2.20487 2.7147 0
M  V30 41 H -9.20608 2.82718 1.3914 0
M  V30 42 H -3.35312 1.41304 2.09948 0
M  V30 43 H -3.01646 0.678035 -1.43525 0
M  V30 44 H -2.18875 -0.104266 1.36985 0
M  V30 45 H -1.74365 1.3536 0.466144 0
M  V30 46 H -0.116408 -0.469527 1.83998 0
M  V30 47 H -0.577383 -2.0965 1.31993 0
M  V30 48 H 1.81014 -2.01857 1.55181 0
M  V30 49 H 1.62451 -1.91368 -0.21695 0
M  V30 50 H 0.587786 1.35171 1.23595 0
M  V30 51 H 1.8418 1.82328 -0.0214843 0
M  V30 52 H 0.779214 0.200376 -1.58892 0
M  V30 53 H -0.33258 1.47227 -1.02577 0
M  V30 54 H 3.67775 -1.58925 2.57347 0
M  V30 55 H 4.18735 -1.75169 0.897711 0
M  V30 56 H 6.07731 -1.66889 2.46314 0
M  V30 57 H 5.63157 -0.0506431 3.01793 0
M  V30 58 H 6.46698 1.95154 1.16852 0
M  V30 59 H 8.03423 3.07257 -0.773308 0
M  V30 60 H 9.49233 2.58746 -2.7027 0
M  V30 61 H 9.8172 0.198823 -3.34323 0
M  V30 62 H 8.72571 -1.59681 -2.09839 0
M  V30 63 H -1.98921 -2.72584 0.000732747 0
M  V30 64 H -2.18164 -2.88172 -1.74976 0
M  V30 65 H -4.54104 -1.40106 1.03534 0
M  V30 66 H -3.85581 -2.96157 0.545574 0
M  V30 67 H -5.28194 -2.38257 -0.331143 0
M  V30 68 H -4.60777 -2.13853 -2.26293 0
M  V30 END ATOM
M  V30 BEGIN BOND
M  V30 1 1 1 2
M  V30 2 2 2 3
M  V30 3 1 3 4
M  V30 4 1 4 5
M  V30 5 2 4 6
M  V30 6 1 6 7
M  V30 7 2 7 8
M  V30 8 1 7 9
M  V30 9 1 9 10
M  V30 10 2 10 11
M  V30 11 1 9 12
M  V30 12 1 12 13
M  V30 13 1 13 14
M  V30 14 1 14 15
M  V30 15 1 15 16
M  V30 16 1 16 17
M  V30 17 1 17 18
M  V30 18 1 18 19
M  V30 19 1 17 20
M  V30 20 2 20 21
M  V30 21 1 20 22
M  V30 22 1 22 23
M  V30 23 1 23 24
M  V30 24 2 24 25
M  V30 25 1 25 26
M  V30 26 2 26 27
M  V30 27 1 27 28
M  V30 28 1 27 29
M  V30 29 2 29 30
M  V30 30 1 30 31
M  V30 31 2 31 32
M  V30 32 1 14 33
M  V30 33 1 33 34
M  V30 34 1 34 35
M  V30 35 1 35 36
M  V30 36 1 35 37 CFG=3
M  V30 37 1 8 2
M  V30 38 1 35 12
M  V30 39 1 11 6
M  V30 40 1 19 14
M  V30 41 1 28 24
M  V30 42 1 32 26
M  V30 43 1 1 38
M  V30 44 1 1 39
M  V30 45 1 5 40
M  V30 46 1 5 41
M  V30 47 1 10 42
M  V30 48 1 12 43 CFG=3
M  V30 49 1 13 44
M  V30 50 1 13 45
M  V30 51 1 15 46
M  V30 52 1 15 47
M  V30 53 1 16 48
M  V30 54 1 16 49
M  V30 55 1 18 50
M  V30 56 1 18 51
M  V30 57 1 19 52
M  V30 58 1 19 53
M  V30 59 1 22 54
M  V30 60 1 22 55
M  V30 61 1 23 56
M  V30 62 1 23 57
M  V30 63 1 28 58
M  V30 64 1 29 59
M  V30 65 1 30 60
M  V30 66 1 31 61
M  V30 67 1 32 62
M  V30 68 1 34 63
M  V30 69 1 34 64
M  V30 70 1 36 65
M  V30 71 1 36 66
M  V30 72 1 36 67
M  V30 73 1 37 68
M  V30 END BOND
M  V30 END CTAB
M  END
