
     RDKit          3D

  0  0  0  0  0  0  0  0  0  0999 V3000
M  V30 BEGIN CTAB
M  V30 COUNTS 21 21 0 0 0
M  V30 BEGIN ATOM
M  V30 1 N -1.47378 1.83236 -0.106854 0
M  V30 2 N -1.34758 0.437464 -0.0278666 0
M  V30 3 C -0.204392 -0.265316 -0.214194 0
M  V30 4 C 1.06265 0.379054 -0.537567 0
M  V30 5 C 2.24554 -0.500911 -0.684396 0
M  V30 6 C 2.56099 -1.24583 0.550667 0
M  V30 7 O 2.13395 -2.37761 0.837273 0
M  V30 8 O 3.41385 -0.652623 1.50355 0
M  V30 9 N -0.566777 -1.54434 -0.0405494 0
M  V30 10 N -1.85014 -1.63879 0.236286 0
M  V30 11 C -2.34079 -0.406347 0.245198 0
M  V30 12 N -3.69401 -0.036765 0.501288 0
M  V30 13 H -2.38598 2.29371 -0.0384298 0
M  V30 14 H -0.635988 2.43932 -0.238912 0
M  V30 15 H 0.931483 0.985421 -1.46673 0
M  V30 16 H 1.25847 1.14061 0.262957 0
M  V30 17 H 2.15268 -1.25764 -1.48926 0
M  V30 18 H 3.15648 0.107725 -0.925951 0
M  V30 19 H 4.03073 0.10945 1.28132 0
M  V30 20 H -4.02856 0.947677 0.431301 0
M  V30 21 H -4.41884 -0.746619 0.773915 0
M  V30 END ATOM
M  V30 BEGIN BOND
M  V30 1 1 1 2
M  V30 2 1 2 3
M  V30 3 1 3 4
M  V30 4 1 4 5
M  V30 5 1 5 6
M  V30 6 2 6 7
M  V30 7 1 6 8
M  V30 8 2 3 9
M  V30 9 1 9 10
M  V30 10 2 10 11
M  V30 11 1 11 12
M  V30 12 1 11 2
M  V30 13 1 1 13
M  V30 14 1 1 14
M  V30 15 1 4 15
M  V30 16 1 4 16
M  V30 17 1 5 17
M  V30 18 1 5 18
M  V30 19 1 8 19
M  V30 20 1 12 20
M  V30 21 1 12 21
M  V30 END BOND
M  V30 END CTAB
M  END
