
     RDKit          3D

  0  0  0  0  0  0  0  0  0  0999 V3000
M  V30 BEGIN CTAB
M  V30 COUNTS 31 31 0 0 0
M  V30 BEGIN ATOM
M  V30 1 C 5.2756 -0.287049 -0.439941 0
M  V30 2 C 4.0279 -0.149407 0.442419 0
M  V30 3 O 2.94995 0.0286259 -0.440375 0
M  V30 4 C 1.63243 0.192244 0.00672157 0
M  V30 5 O 1.45996 0.171807 1.22898 0
M  V30 6 C 0.523318 0.377988 -0.971378 0
M  V30 7 C -0.811263 0.410438 -0.361067 0
M  V30 8 C -1.3734 1.64241 0.0171324 0
M  V30 9 C -2.58521 1.75759 0.638205 0
M  V30 10 N -3.15176 3.00903 1.0163 0
M  V30 11 C -3.26326 0.592118 0.892474 0
M  V30 12 C -2.72285 -0.645541 0.523567 0
M  V30 13 C -1.49648 -0.774164 -0.107658 0
M  V30 14 C -0.994823 -2.1039 -0.527884 0
M  V30 15 F -0.824624 -2.17874 -1.92289 0
M  V30 16 F -2.02171 -3.04504 -0.303771 0
M  V30 17 F 0.0736435 -2.58473 0.144224 0
M  V30 18 N -3.46392 -1.8393 0.812408 0
M  V30 19 H 5.05312 -1.08809 -1.17485 0
M  V30 20 H 6.17792 -0.507776 0.159049 0
M  V30 21 H 5.36271 0.721512 -0.936813 0
M  V30 22 H 4.13306 0.686957 1.15738 0
M  V30 23 H 3.88086 -1.10176 0.98507 0
M  V30 24 H 0.689654 1.42616 -1.39331 0
M  V30 25 H 0.649562 -0.276185 -1.83106 0
M  V30 26 H -0.813474 2.54275 -0.198023 0
M  V30 27 H -3.99348 3.43509 0.620556 0
M  V30 28 H -2.6591 3.5431 1.77352 0
M  V30 29 H -4.22941 0.613959 1.38441 0
M  V30 30 H -3.25997 -2.39225 1.67485 0
M  V30 31 H -4.22496 -2.17784 0.183305 0
M  V30 END ATOM
M  V30 BEGIN BOND
M  V30 1 1 1 2
M  V30 2 1 2 3
M  V30 3 1 3 4
M  V30 4 2 4 5
M  V30 5 1 4 6
M  V30 6 1 6 7
M  V30 7 2 7 8
M  V30 8 1 8 9
M  V30 9 1 9 10
M  V30 10 2 9 11
M  V30 11 1 11 12
M  V30 12 2 12 13
M  V30 13 1 13 14
M  V30 14 1 14 15
M  V30 15 1 14 16
M  V30 16 1 14 17
M  V30 17 1 12 18
M  V30 18 1 13 7
M  V30 19 1 1 19
M  V30 20 1 1 20
M  V30 21 1 1 21
M  V30 22 1 2 22
M  V30 23 1 2 23
M  V30 24 1 6 24
M  V30 25 1 6 25
M  V30 26 1 8 26
M  V30 27 1 10 27
M  V30 28 1 10 28
M  V30 29 1 11 29
M  V30 30 1 18 30
M  V30 31 1 18 31
M  V30 END BOND
M  V30 END CTAB
M  END
