
     RDKit          3D

  0  0  0  0  0  0  0  0  0  0999 V3000
M  V30 BEGIN CTAB
M  V30 COUNTS 36 37 0 0 0
M  V30 BEGIN ATOM
M  V30 1 N -2.87184 -1.67952 0.107711 0
M  V30 2 C -3.04104 -0.272402 0.417937 0
M  V30 3 C -4.5381 -0.0200232 0.422387 0
M  V30 4 C -5.31716 -0.285567 -0.840379 0
M  V30 5 C -5.13773 1.12023 -0.264512 0
M  V30 6 C -2.34998 0.598351 -0.614818 0
M  V30 7 N -0.931847 0.360844 -0.704939 0
M  V30 8 C -0.0275444 0.538844 0.363229 0
M  V30 9 O -0.472679 0.929955 1.46741 0
M  V30 10 C 1.39915 0.287862 0.237765 0
M  V30 11 O 2.2833 0.430871 1.17636 0
M  V30 12 C 3.48206 0.128993 0.761222 0
M  V30 13 C 3.42269 -0.252931 -0.569269 0
M  V30 14 C 2.08979 -0.149285 -0.897504 0
M  V30 15 S 4.69078 -0.756195 -1.63406 0
M  V30 16 O 5.40208 -1.993 -1.10295 0
M  V30 17 O 4.10833 -1.04204 -2.98696 0
M  V30 18 N 5.89812 0.449284 -1.83787 0
M  V30 19 C 4.72774 0.178082 1.56483 0
M  V30 20 H -3.37583 -2.2234 0.833503 0
M  V30 21 H -3.3936 -1.86692 -0.79592 0
M  V30 22 H -2.69556 -0.0765593 1.44044 0
M  V30 23 H -5.04303 -0.403338 1.33429 0
M  V30 24 H -6.31937 -0.738101 -0.789574 0
M  V30 25 H -4.72313 -0.576375 -1.70829 0
M  V30 26 H -4.60728 1.80043 -0.927193 0
M  V30 27 H -6.05526 1.57351 0.210351 0
M  V30 28 H -2.46623 1.67781 -0.331984 0
M  V30 29 H -2.84158 0.457468 -1.58127 0
M  V30 30 H -0.546956 0.0300649 -1.63909 0
M  V30 31 H 1.60935 -0.353881 -1.83945 0
M  V30 32 H 6.85831 0.0787806 -1.74886 0
M  V30 33 H 5.71142 1.31675 -1.32445 0
M  V30 34 H 5.32261 -0.733909 1.42821 0
M  V30 35 H 4.47115 0.370006 2.63974 0
M  V30 36 H 5.27889 1.0953 1.23117 0
M  V30 END ATOM
M  V30 BEGIN BOND
M  V30 1 1 1 2
M  V30 2 1 2 3
M  V30 3 1 3 4
M  V30 4 1 4 5
M  V30 5 1 2 6
M  V30 6 1 6 7
M  V30 7 1 7 8
M  V30 8 2 8 9
M  V30 9 1 8 10
M  V30 10 1 10 11
M  V30 11 1 11 12
M  V30 12 2 12 13
M  V30 13 1 13 14
M  V30 14 1 13 15
M  V30 15 2 15 16
M  V30 16 2 15 17
M  V30 17 1 15 18
M  V30 18 1 12 19
M  V30 19 1 5 3
M  V30 20 2 14 10
M  V30 21 1 1 20
M  V30 22 1 1 21
M  V30 23 1 2 22
M  V30 24 1 3 23
M  V30 25 1 4 24
M  V30 26 1 4 25
M  V30 27 1 5 26
M  V30 28 1 5 27
M  V30 29 1 6 28
M  V30 30 1 6 29
M  V30 31 1 7 30
M  V30 32 1 14 31
M  V30 33 1 18 32
M  V30 34 1 18 33
M  V30 35 1 19 34
M  V30 36 1 19 35
M  V30 37 1 19 36
M  V30 END BOND
M  V30 END CTAB
M  END
