
     RDKit          3D

  0  0  0  0  0  0  0  0  0  0999 V3000
M  V30 BEGIN CTAB
M  V30 COUNTS 15 15 0 0 0
M  V30 BEGIN ATOM
M  V30 1 N 2.78845 0.203171 0.032508 0
M  V30 2 C 1.37753 -0.0054493 -0.00424767 0
M  V30 3 C 0.815894 -1.23996 -0.223133 0
M  V30 4 N -0.517516 -1.42082 -0.25498 0
M  V30 5 C -1.39631 -0.417892 -0.076925 0
M  V30 6 C -0.865334 0.838751 0.145891 0
M  V30 7 C 0.494395 1.06412 0.185631 0
M  V30 8 I -2.20872 2.42359 0.427192 0
M  V30 9 N -2.80669 -0.609364 -0.110629 0
M  V30 10 H 3.3567 0.104362 -0.821799 0
M  V30 11 H 3.27709 0.459278 0.919268 0
M  V30 12 H 1.49707 -2.08697 -0.373498 0
M  V30 13 H 0.912245 2.06171 0.362541 0
M  V30 14 H -3.37449 -0.580694 -0.984631 0
M  V30 15 H -3.35031 -0.793832 0.776812 0
M  V30 END ATOM
M  V30 BEGIN BOND
M  V30 1 1 1 2
M  V30 2 2 2 3
M  V30 3 1 3 4
M  V30 4 2 4 5
M  V30 5 1 5 6
M  V30 6 2 6 7
M  V30 7 1 6 8
M  V30 8 1 5 9
M  V30 9 1 7 2
M  V30 10 1 1 10
M  V30 11 1 1 11
M  V30 12 1 3 12
M  V30 13 1 7 13
M  V30 14 1 9 14
M  V30 15 1 9 15
M  V30 END BOND
M  V30 END CTAB
M  END
