
     RDKit          3D

  0  0  0  0  0  0  0  0  0  0999 V3000
M  V30 BEGIN CTAB
M  V30 COUNTS 27 28 0 0 0
M  V30 BEGIN ATOM
M  V30 1 F -2.62013 -1.75734 -1.57091 0
M  V30 2 C -3.01306 -0.689554 -0.83579 0
M  V30 3 C -4.36478 -0.432376 -0.683182 0
M  V30 4 C -4.84499 0.633348 0.0488126 0
M  V30 5 C -3.94086 1.49138 0.663254 0
M  V30 6 C -2.57796 1.24446 0.517995 0
M  V30 7 C -2.14064 0.171221 -0.220054 0
M  V30 8 C -0.715721 -0.0670018 -0.357955 0
M  V30 9 N 0.124142 0.726661 0.210433 0
M  V30 10 N 1.49241 0.508624 0.0854847 0
M  V30 11 C 2.06712 -0.574478 0.482983 0
M  V30 12 C 3.50562 -0.751385 0.327872 0
M  V30 13 N 4.26889 -1.79994 0.678843 0
M  V30 14 O 5.48434 -1.53918 0.361607 0
M  V30 15 N 5.59669 -0.37256 -0.186235 0
M  V30 16 C 4.36691 0.168759 -0.230665 0
M  V30 17 N 4.00566 1.45855 -0.756912 0
M  V30 18 N 1.24122 -1.57035 1.07011 0
M  V30 19 H -5.11854 -1.07314 -1.14358 0
M  V30 20 H -5.89831 0.847849 0.17754 0
M  V30 21 H -4.31537 2.32707 1.2373 0
M  V30 22 H -1.92494 1.9464 1.01896 0
M  V30 23 H -0.298693 -0.887724 -0.920637 0
M  V30 24 H 4.25711 2.30997 -0.232826 0
M  V30 25 H 3.49498 1.57239 -1.65507 0
M  V30 26 H 1.09538 -2.47114 0.564978 0
M  V30 27 H 0.773545 -1.42051 2.00198 0
M  V30 END ATOM
M  V30 BEGIN BOND
M  V30 1 1 1 2
M  V30 2 2 2 3
M  V30 3 1 3 4
M  V30 4 2 4 5
M  V30 5 1 5 6
M  V30 6 2 6 7
M  V30 7 1 7 8
M  V30 8 2 8 9
M  V30 9 1 9 10
M  V30 10 2 10 11
M  V30 11 1 11 12
M  V30 12 2 12 13
M  V30 13 1 13 14
M  V30 14 1 14 15
M  V30 15 2 15 16
M  V30 16 1 16 17
M  V30 17 1 11 18
M  V30 18 1 7 2
M  V30 19 1 16 12
M  V30 20 1 3 19
M  V30 21 1 4 20
M  V30 22 1 5 21
M  V30 23 1 6 22
M  V30 24 1 8 23
M  V30 25 1 17 24
M  V30 26 1 17 25
M  V30 27 1 18 26
M  V30 28 1 18 27
M  V30 END BOND
M  V30 END CTAB
M  END
