
     RDKit          3D

  0  0  0  0  0  0  0  0  0  0999 V3000
M  V30 BEGIN CTAB
M  V30 COUNTS 28 30 0 0 0
M  V30 BEGIN ATOM
M  V30 1 N -2.54295 2.10928 0.17331 0
M  V30 2 C -2.43407 0.695902 0.179975 0
M  V30 3 C -3.60454 -0.025813 0.280329 0
M  V30 4 C -3.5225 -1.40202 0.288716 0
M  V30 5 C -2.29344 -2.02784 0.198293 0
M  V30 6 C -1.13909 -1.28006 0.0989314 0
M  V30 7 C -1.18762 0.112754 0.0877148 0
M  V30 8 N -0.0521107 0.838864 -0.00991192 0
M  V30 9 C 1.16697 0.277976 -0.100239 0
M  V30 10 C 2.31763 1.03389 -0.199387 0
M  V30 11 N 2.26034 2.45117 -0.210199 0
M  V30 12 C 3.56481 0.448704 -0.291666 0
M  V30 13 C 3.6755 -0.935574 -0.285454 0
M  V30 14 C 2.52285 -1.6771 -0.186306 0
M  V30 15 C 1.27539 -1.11227 -0.0937845 0
M  V30 16 C 0.114749 -1.85479 0.00600952 0
M  V30 17 O 0.197543 -3.10952 0.0130299 0
M  V30 18 H -2.6266 2.68664 -0.690408 0
M  V30 19 H -2.54081 2.62031 1.08319 0
M  V30 20 H -4.58195 0.464372 0.352319 0
M  V30 21 H -4.43827 -1.97455 0.367314 0
M  V30 22 H -2.21774 -3.1128 0.20403 0
M  V30 23 H -0.121726 1.89748 -0.0158613 0
M  V30 24 H 2.16745 2.92037 0.711978 0
M  V30 25 H 2.30278 3.05584 -1.05254 0
M  V30 26 H 4.48151 1.01721 -0.370305 0
M  V30 27 H 4.65876 -1.36943 -0.358492 0
M  V30 28 H 2.59713 -2.74899 -0.180592 0
M  V30 END ATOM
M  V30 BEGIN BOND
M  V30 1 1 1 2
M  V30 2 2 2 3
M  V30 3 1 3 4
M  V30 4 2 4 5
M  V30 5 1 5 6
M  V30 6 2 6 7
M  V30 7 1 7 8
M  V30 8 1 8 9
M  V30 9 2 9 10
M  V30 10 1 10 11
M  V30 11 1 10 12
M  V30 12 2 12 13
M  V30 13 1 13 14
M  V30 14 2 14 15
M  V30 15 1 15 16
M  V30 16 2 16 17
M  V30 17 1 7 2
M  V30 18 1 15 9
M  V30 19 1 16 6
M  V30 20 1 1 18
M  V30 21 1 1 19
M  V30 22 1 3 20
M  V30 23 1 4 21
M  V30 24 1 5 22
M  V30 25 1 8 23
M  V30 26 1 11 24
M  V30 27 1 11 25
M  V30 28 1 12 26
M  V30 29 1 13 27
M  V30 30 1 14 28
M  V30 END BOND
M  V30 END CTAB
M  END
