
     RDKit          3D

  0  0  0  0  0  0  0  0  0  0999 V3000
M  V30 BEGIN CTAB
M  V30 COUNTS 44 46 0 0 0
M  V30 BEGIN ATOM
M  V30 1 N -3.36526 -3.80427 1.31668 0
M  V30 2 C -2.6509 -2.60196 0.963399 0
M  V30 3 N -1.33507 -2.60232 0.960256 0
M  V30 4 C -0.579393 -1.46415 0.627741 0
M  V30 5 C 0.828656 -1.71553 0.609409 0
M  V30 6 O 1.89495 -0.983282 0.3875 0
M  V30 7 C 2.41826 -0.140255 -0.522545 0
M  V30 8 O 1.68742 0.185136 -1.4902 0
M  V30 9 C 3.77872 0.390406 -0.455645 0
M  V30 10 C 4.67199 -0.162877 0.486066 0
M  V30 11 C 6.02923 0.144029 0.451243 0
M  V30 12 C 6.53689 0.99587 -0.502967 0
M  V30 13 C 5.66797 1.5414 -1.41912 0
M  V30 14 C 4.29886 1.2381 -1.39266 0
M  V30 15 N 3.4389 1.83598 -2.35468 0
M  V30 16 C 8.03211 1.22507 -0.590114 0
M  V30 17 F 8.57047 0.159148 -1.35548 0
M  V30 18 F 8.55616 1.03827 0.660686 0
M  V30 19 F 8.35649 2.37457 -1.20762 0
M  V30 20 N -1.29792 -0.391553 0.322968 0
M  V30 21 C -2.64434 -0.356896 0.314655 0
M  V30 22 N -3.28835 -1.48252 0.638724 0
M  V30 23 N -3.38434 0.806426 -0.0203709 0
M  V30 24 C -4.81361 0.811599 -0.0737138 0
M  V30 25 C -5.48706 1.99253 0.258143 0
M  V30 26 C -6.86376 2.1009 0.2414 0
M  V30 27 C -7.62701 1.00566 -0.118201 0
M  V30 28 C -6.97538 -0.150602 -0.443782 0
M  V30 29 C -5.59068 -0.253299 -0.424842 0
M  V30 30 F -8.96449 1.0546 -0.146848 0
M  V30 31 H -4.40147 -3.80757 1.20458 0
M  V30 32 H -2.84536 -4.62938 1.65586 0
M  V30 33 H 0.93938 -2.75533 0.0520776 0
M  V30 34 H 1.05334 -2.16827 1.70898 0
M  V30 35 H 4.24028 -0.824292 1.20667 0
M  V30 36 H 6.67878 -0.315453 1.19178 0
M  V30 37 H 6.05764 2.19603 -2.18881 0
M  V30 38 H 3.13108 1.25654 -3.17101 0
M  V30 39 H 3.10527 2.82678 -2.28468 0
M  V30 40 H -2.8899 1.71923 -0.231367 0
M  V30 41 H -4.91566 2.87231 0.525994 0
M  V30 42 H -7.35878 3.02231 0.498383 0
M  V30 43 H -7.57041 -1.0116 -0.722287 0
M  V30 44 H -5.12372 -1.17147 -0.734753 0
M  V30 END ATOM
M  V30 BEGIN BOND
M  V30 1 1 1 2
M  V30 2 2 2 3
M  V30 3 1 3 4
M  V30 4 1 4 5
M  V30 5 1 5 6
M  V30 6 1 6 7
M  V30 7 2 7 8
M  V30 8 1 7 9
M  V30 9 2 9 10
M  V30 10 1 10 11
M  V30 11 2 11 12
M  V30 12 1 12 13
M  V30 13 2 13 14
M  V30 14 1 14 15
M  V30 15 1 12 16
M  V30 16 1 16 17
M  V30 17 1 16 18
M  V30 18 1 16 19
M  V30 19 2 4 20
M  V30 20 1 20 21
M  V30 21 2 21 22
M  V30 22 1 21 23
M  V30 23 1 23 24
M  V30 24 2 24 25
M  V30 25 1 25 26
M  V30 26 2 26 27
M  V30 27 1 27 28
M  V30 28 2 28 29
M  V30 29 1 27 30
M  V30 30 1 22 2
M  V30 31 1 29 24
M  V30 32 1 14 9
M  V30 33 1 1 31
M  V30 34 1 1 32
M  V30 35 1 5 33
M  V30 36 1 5 34
M  V30 37 1 10 35
M  V30 38 1 11 36
M  V30 39 1 13 37
M  V30 40 1 15 38
M  V30 41 1 15 39
M  V30 42 1 23 40
M  V30 43 1 25 41
M  V30 44 1 26 42
M  V30 45 1 28 43
M  V30 46 1 29 44
M  V30 END BOND
M  V30 END CTAB
M  END
