
     RDKit          3D

  0  0  0  0  0  0  0  0  0  0999 V3000
M  V30 BEGIN CTAB
M  V30 COUNTS 48 51 0 0 0
M  V30 BEGIN ATOM
M  V30 1 O 2.286 -0.873338 1.64269 0
M  V30 2 C 1.69868 -0.517987 0.62453 0
M  V30 3 C 0.251305 -0.521737 0.416709 0
M  V30 4 C 0.101425 0.73884 -0.510158 0
M  V30 5 C 1.2352 0.535578 -1.45299 0
M  V30 6 N 2.27357 -0.0194197 -0.614387 0
M  V30 7 C 3.69784 -0.170939 -0.770984 0
M  V30 8 C 4.28724 -0.637364 -1.908 0
M  V30 9 C 5.67438 -0.873882 -1.96876 0
M  V30 10 C 6.46103 -0.629302 -0.831295 0
M  V30 11 C 5.88367 -0.159157 0.323963 0
M  V30 12 C 4.5309 0.055342 0.307337 0
M  V30 13 S 6.77377 0.110971 1.80207 0
M  V30 14 O 6.10512 -0.637736 2.95715 0
M  V30 15 O 8.16269 -0.497408 1.66874 0
M  V30 16 N 6.86981 1.7571 2.2802 0
M  V30 17 C -1.25124 0.583278 -1.08432 0
M  V30 18 O -1.77281 0.419894 -2.2357 0
M  V30 19 N -3.09546 0.331073 -2.1629 0
M  V30 20 C -3.43789 0.448635 -0.870777 0
M  V30 21 N -2.30692 0.610641 -0.190784 0
M  V30 22 C -4.81064 0.365414 -0.343207 0
M  V30 23 N -5.76938 1.09529 -1.09496 0
M  V30 24 C -4.89749 0.718826 1.11671 0
M  V30 25 C -6.2687 0.167796 1.48363 0
M  V30 26 C -6.43383 -1.05096 0.620744 0
M  V30 27 C -5.26948 -1.10545 -0.311067 0
M  V30 28 H -0.34844 -0.387017 1.30175 0
M  V30 29 H 0.00542175 -1.40235 -0.221513 0
M  V30 30 H 0.171068 1.62108 0.115158 0
M  V30 31 H 1.52063 1.47771 -1.95453 0
M  V30 32 H 0.961797 -0.248334 -2.21214 0
M  V30 33 H 3.73413 -0.848713 -2.80265 0
M  V30 34 H 6.14118 -1.25627 -2.86651 0
M  V30 35 H 7.52735 -0.798055 -0.818861 0
M  V30 36 H 4.10279 0.466104 1.20611 0
M  V30 37 H 5.88921 2.13224 2.29444 0
M  V30 38 H 7.19541 1.71835 3.29792 0
M  V30 39 H -5.58904 2.10161 -1.23978 0
M  V30 40 H -6.18697 0.593024 -1.88996 0
M  V30 41 H -4.78986 1.77138 1.36075 0
M  V30 42 H -4.16142 0.0986657 1.70698 0
M  V30 43 H -6.37569 -0.0378172 2.55458 0
M  V30 44 H -7.04806 0.895694 1.13473 0
M  V30 45 H -7.3524 -1.03259 0.0154425 0
M  V30 46 H -6.45408 -1.95189 1.27933 0
M  V30 47 H -5.49956 -1.42661 -1.3243 0
M  V30 48 H -4.42224 -1.65977 0.168882 0
M  V30 END ATOM
M  V30 BEGIN BOND
M  V30 1 2 1 2
M  V30 2 1 2 3
M  V30 3 1 3 4
M  V30 4 1 4 5
M  V30 5 1 5 6
M  V30 6 1 6 7
M  V30 7 2 7 8
M  V30 8 1 8 9
M  V30 9 2 9 10
M  V30 10 1 10 11
M  V30 11 2 11 12
M  V30 12 1 11 13
M  V30 13 2 13 14
M  V30 14 2 13 15
M  V30 15 1 13 16
M  V30 16 1 4 17
M  V30 17 1 17 18
M  V30 18 1 18 19
M  V30 19 2 19 20
M  V30 20 1 20 21
M  V30 21 1 20 22
M  V30 22 1 22 23
M  V30 23 1 22 24
M  V30 24 1 24 25
M  V30 25 1 25 26
M  V30 26 1 26 27
M  V30 27 1 6 2
M  V30 28 1 12 7
M  V30 29 2 21 17
M  V30 30 1 27 22
M  V30 31 1 3 28
M  V30 32 1 3 29
M  V30 33 1 4 30
M  V30 34 1 5 31
M  V30 35 1 5 32
M  V30 36 1 8 33
M  V30 37 1 9 34
M  V30 38 1 10 35
M  V30 39 1 12 36
M  V30 40 1 16 37
M  V30 41 1 16 38
M  V30 42 1 23 39
M  V30 43 1 23 40
M  V30 44 1 24 41
M  V30 45 1 24 42
M  V30 46 1 25 43
M  V30 47 1 25 44
M  V30 48 1 26 45
M  V30 49 1 26 46
M  V30 50 1 27 47
M  V30 51 1 27 48
M  V30 END BOND
M  V30 END CTAB
M  END
