
     RDKit          3D

  0  0  0  0  0  0  0  0  0  0999 V3000
M  V30 BEGIN CTAB
M  V30 COUNTS 24 25 0 0 0
M  V30 BEGIN ATOM
M  V30 1 N 0.557389 1.37031 1.98198 0
M  V30 2 C 1.36013 0.682523 1.00945 0
M  V30 3 N 2.72063 0.787839 1.04178 0
M  V30 4 C 3.49944 0.181138 0.135765 0
M  V30 5 C 2.93072 -0.574025 -0.864938 0
M  V30 6 C 1.5557 -0.690895 -0.911641 0
M  V30 7 C 0.737643 -0.0564012 0.0370285 0
M  V30 8 C -0.705719 -0.21081 0.0314621 0
M  V30 9 C -1.39701 -0.717221 1.14116 0
M  V30 10 C -2.77116 -0.900373 1.10474 0
M  V30 11 C -3.4326 -0.570256 -0.0552432 0
M  V30 12 N -2.776 -0.0847037 -1.121 0
M  V30 13 C -1.41443 0.104871 -1.1034 0
M  V30 14 N -0.800423 0.654466 -2.25907 0
M  V30 15 H 0.338695 2.38086 1.6928 0
M  V30 16 H 0.216421 0.96583 2.86467 0
M  V30 17 H 4.58984 0.252347 0.14885 0
M  V30 18 H 3.52489 -1.08613 -1.62818 0
M  V30 19 H 1.01209 -1.26011 -1.65364 0
M  V30 20 H -0.800951 -0.956832 1.99527 0
M  V30 21 H -3.23822 -1.29134 1.99019 0
M  V30 22 H -4.50392 -0.699334 -0.146453 0
M  V30 23 H -1.35943 0.729037 -3.13992 0
M  V30 24 H 0.156279 0.98921 -2.29165 0
M  V30 END ATOM
M  V30 BEGIN BOND
M  V30 1 1 1 2
M  V30 2 2 2 3
M  V30 3 1 3 4
M  V30 4 2 4 5
M  V30 5 1 5 6
M  V30 6 2 6 7
M  V30 7 1 7 8
M  V30 8 2 8 9
M  V30 9 1 9 10
M  V30 10 2 10 11
M  V30 11 1 11 12
M  V30 12 2 12 13
M  V30 13 1 13 14
M  V30 14 1 7 2
M  V30 15 1 13 8
M  V30 16 1 1 15
M  V30 17 1 1 16
M  V30 18 1 4 17
M  V30 19 1 5 18
M  V30 20 1 6 19
M  V30 21 1 9 20
M  V30 22 1 10 21
M  V30 23 1 11 22
M  V30 24 1 14 23
M  V30 25 1 14 24
M  V30 END BOND
M  V30 END CTAB
M  END
