
     RDKit          3D

  0  0  0  0  0  0  0  0  0  0999 V3000
M  V30 BEGIN CTAB
M  V30 COUNTS 48 49 0 0 0
M  V30 BEGIN ATOM
M  V30 1 C -5.05106 -0.0353771 -1.15001 0
M  V30 2 C -3.57859 -0.354316 -1.02752 0
M  V30 3 C -2.83202 0.931567 -0.828864 0
M  V30 4 C -3.32158 1.60313 0.424893 0
M  V30 5 C -2.13462 2.1465 1.22345 0
M  V30 6 C -1.36403 0.935816 1.66842 0
M  V30 7 N -0.801515 0.337824 0.437328 0
M  V30 8 C -1.33845 0.720699 -0.817848 0
M  V30 9 C 0.233179 -0.620703 0.618608 0
M  V30 10 O 0.525103 -0.887161 1.84151 0
M  V30 11 C 0.995666 -1.3283 -0.386958 0
M  V30 12 C 2.20699 -0.715398 -0.961818 0
M  V30 13 C 3.32917 -0.380557 -0.122915 0
M  V30 14 C 3.66461 -0.943937 1.06598 0
M  V30 15 C 4.78021 -0.492655 1.77759 0
M  V30 16 C 5.5807 0.519562 1.32665 0
M  V30 17 C 5.25236 1.09675 0.125534 0
M  V30 18 C 4.1558 0.658268 -0.580509 0
M  V30 19 N 1.80562 0.468513 -1.73247 0
M  V30 20 C 1.27341 -2.78483 -0.000270099 0
M  V30 21 N -3.39825 -1.33921 -0.0197675 0
M  V30 22 H -5.15603 1.01864 -1.45467 0
M  V30 23 H -5.53177 -0.698793 -1.9222 0
M  V30 24 H -5.50848 -0.178701 -0.155613 0
M  V30 25 H -3.283 -0.830334 -2.00478 0
M  V30 26 H -3.06841 1.59785 -1.68088 0
M  V30 27 H -3.88109 0.948136 1.11046 0
M  V30 28 H -3.96005 2.47585 0.196491 0
M  V30 29 H -1.50739 2.7875 0.548325 0
M  V30 30 H -2.55591 2.7302 2.04143 0
M  V30 31 H -2.04745 0.245921 2.18767 0
M  V30 32 H -0.54037 1.19069 2.36973 0
M  V30 33 H -0.840034 1.65697 -1.15669 0
M  V30 34 H -1.12669 -0.0519575 -1.57436 0
M  V30 35 H 0.279317 -1.44531 -1.27954 0
M  V30 36 H 2.5843 -1.42854 -1.75687 0
M  V30 37 H 3.13523 -1.76094 1.52913 0
M  V30 38 H 5.02128 -0.961449 2.72369 0
M  V30 39 H 6.44599 0.868779 1.87991 0
M  V30 40 H 5.88529 1.90636 -0.245557 0
M  V30 41 H 3.95647 1.16283 -1.52608 0
M  V30 42 H 1.7576 1.30946 -1.14389 0
M  V30 43 H 2.33462 0.557004 -2.61414 0
M  V30 44 H 2.32266 -3.06183 -0.314856 0
M  V30 45 H 1.11554 -2.95691 1.07515 0
M  V30 46 H 0.619879 -3.50061 -0.53447 0
M  V30 47 H -2.55574 -1.90918 -0.0491555 0
M  V30 48 H -3.87845 -1.20783 0.870751 0
M  V30 END ATOM
M  V30 BEGIN BOND
M  V30 1 1 1 2
M  V30 2 1 2 3
M  V30 3 1 3 4
M  V30 4 1 4 5
M  V30 5 1 5 6
M  V30 6 1 6 7
M  V30 7 1 7 8
M  V30 8 1 7 9
M  V30 9 2 9 10
M  V30 10 1 9 11
M  V30 11 1 11 12
M  V30 12 1 12 13
M  V30 13 2 13 14
M  V30 14 1 14 15
M  V30 15 2 15 16
M  V30 16 1 16 17
M  V30 17 2 17 18
M  V30 18 1 12 19
M  V30 19 1 11 20
M  V30 20 1 2 21
M  V30 21 1 8 3
M  V30 22 1 18 13
M  V30 23 1 1 22
M  V30 24 1 1 23
M  V30 25 1 1 24
M  V30 26 1 2 25
M  V30 27 1 3 26
M  V30 28 1 4 27
M  V30 29 1 4 28
M  V30 30 1 5 29
M  V30 31 1 5 30
M  V30 32 1 6 31
M  V30 33 1 6 32
M  V30 34 1 8 33
M  V30 35 1 8 34
M  V30 36 1 11 35
M  V30 37 1 12 36
M  V30 38 1 14 37
M  V30 39 1 15 38
M  V30 40 1 16 39
M  V30 41 1 17 40
M  V30 42 1 18 41
M  V30 43 1 19 42
M  V30 44 1 19 43
M  V30 45 1 20 44
M  V30 46 1 20 45
M  V30 47 1 20 46
M  V30 48 1 21 47
M  V30 49 1 21 48
M  V30 END BOND
M  V30 END CTAB
M  END
