
     RDKit          3D

  0  0  0  0  0  0  0  0  0  0999 V3000
M  V30 BEGIN CTAB
M  V30 COUNTS 39 40 0 0 0
M  V30 BEGIN ATOM
M  V30 1 N -1.9987 -0.736342 2.98832 0
M  V30 2 C -1.92805 -1.41626 1.71169 0
M  V30 3 C -2.54811 -0.634308 0.600074 0
M  V30 4 N -1.91459 0.637379 0.407155 0
M  V30 5 C -2.48342 1.42387 -0.642705 0
M  V30 6 C -2.03044 0.968728 -1.99627 0
M  V30 7 C -0.624745 1.54761 -2.20412 0
M  V30 8 C 0.343678 0.445909 -1.9402 0
M  V30 9 C 0.164237 -0.227556 -0.605456 0 CFG=2
M  V30 10 C -0.487856 0.609607 0.428818 0
M  V30 11 C 1.52867 -0.606629 -0.130555 0
M  V30 12 C 1.88523 -1.9327 0.0147402 0
M  V30 13 C 3.17737 -2.2207 0.46332 0
M  V30 14 N 4.07398 -1.28178 0.754951 0
M  V30 15 C 3.75084 0.00590569 0.62179 0
M  V30 16 C 2.48577 0.331509 0.181851 0
M  V30 17 N 4.68666 1.0408 0.925227 0
M  V30 18 H -2.21571 0.272293 2.9099 0
M  V30 19 H -2.6815 -1.17861 3.63666 0
M  V30 20 H -2.54233 -2.35801 1.82245 0
M  V30 21 H -0.907411 -1.77236 1.48511 0
M  V30 22 H -3.6101 -0.422662 0.903598 0
M  V30 23 H -2.59336 -1.26113 -0.299444 0
M  V30 24 H -2.14992 2.47336 -0.510639 0
M  V30 25 H -3.57512 1.33609 -0.596422 0
M  V30 26 H -2.00322 -0.142436 -1.98268 0
M  V30 27 H -2.70399 1.30472 -2.80738 0
M  V30 28 H -0.461255 2.4318 -1.572 0
M  V30 29 H -0.559665 1.8314 -3.26229 0
M  V30 30 H 0.237298 -0.293965 -2.78668 0
M  V30 31 H 1.37576 0.855512 -2.04875 0
M  V30 32 H -0.407258 -1.15792 -0.784599 0
M  V30 33 H -0.179436 0.243297 1.42972 0
M  V30 34 H -0.124092 1.65071 0.351618 0
M  V30 35 H 1.19879 -2.72782 -0.207195 0
M  V30 36 H 3.47857 -3.26334 0.584654 0
M  V30 37 H 2.25846 1.37733 0.085772 0
M  V30 38 H 4.39936 1.89232 1.43137 0
M  V30 39 H 5.68562 0.954389 0.638605 0
M  V30 END ATOM
M  V30 BEGIN BOND
M  V30 1 1 1 2
M  V30 2 1 2 3
M  V30 3 1 3 4
M  V30 4 1 4 5
M  V30 5 1 5 6
M  V30 6 1 6 7
M  V30 7 1 7 8
M  V30 8 1 8 9
M  V30 9 1 9 10
M  V30 10 1 9 11
M  V30 11 2 11 12
M  V30 12 1 12 13
M  V30 13 2 13 14
M  V30 14 1 14 15
M  V30 15 2 15 16
M  V30 16 1 15 17
M  V30 17 1 10 4
M  V30 18 1 16 11
M  V30 19 1 1 18
M  V30 20 1 1 19
M  V30 21 1 2 20
M  V30 22 1 2 21
M  V30 23 1 3 22
M  V30 24 1 3 23
M  V30 25 1 5 24
M  V30 26 1 5 25
M  V30 27 1 6 26
M  V30 28 1 6 27
M  V30 29 1 7 28
M  V30 30 1 7 29
M  V30 31 1 8 30
M  V30 32 1 8 31
M  V30 33 1 9 32 CFG=3
M  V30 34 1 10 33
M  V30 35 1 10 34
M  V30 36 1 12 35
M  V30 37 1 13 36
M  V30 38 1 16 37
M  V30 39 1 17 38
M  V30 40 1 17 39
M  V30 END BOND
M  V30 END CTAB
M  END
