
     RDKit          3D

  0  0  0  0  0  0  0  0  0  0999 V3000
M  V30 BEGIN CTAB
M  V30 COUNTS 33 35 0 0 0
M  V30 BEGIN ATOM
M  V30 1 O -2.63584 -2.19651 2.08918 0
M  V30 2 C -3.26935 -1.23524 1.28896 0
M  V30 3 C -2.27058 -0.817612 0.224695 0
M  V30 4 O -1.13846 -0.284138 0.78269 0
M  V30 5 C -0.569826 0.604281 -0.102268 0
M  V30 6 C -1.51935 0.871323 -1.20787 0
M  V30 7 C -2.82385 0.282785 -0.651702 0
M  V30 8 O -3.54052 1.22911 0.0420703 0
M  V30 9 N -1.71238 2.27576 -1.49659 0
M  V30 10 N 0.740896 0.16328 -0.529343 0
M  V30 11 C 1.11379 -0.322829 -1.72695 0
M  V30 12 N 2.42865 -0.594212 -1.6452 0
M  V30 13 C 2.90903 -0.291823 -0.417231 0
M  V30 14 C 1.81315 0.192215 0.284012 0
M  V30 15 N 2.04673 0.566929 1.56051 0
M  V30 16 C 3.25691 0.488708 2.14767 0
M  V30 17 N 4.31774 0.00807076 1.43281 0
M  V30 18 C 4.15904 -0.382671 0.159277 0
M  V30 19 N 5.28196 -0.872694 -0.541548 0
M  V30 20 H -2.24088 -2.92363 1.5378 0
M  V30 21 H -4.18535 -1.64932 0.838504 0
M  V30 22 H -3.46487 -0.354094 1.94339 0
M  V30 23 H -2.0225 -1.6811 -0.425433 0
M  V30 24 H -0.401617 1.5595 0.474337 0
M  V30 25 H -1.33286 0.357543 -2.1486 0
M  V30 26 H -3.4509 -0.130259 -1.47857 0
M  V30 27 H -3.21158 1.42717 0.933047 0
M  V30 28 H -2.6536 2.6181 -1.20481 0
M  V30 29 H -0.940576 2.86313 -1.10545 0
M  V30 30 H 0.474442 -0.469367 -2.59752 0
M  V30 31 H 3.43396 0.79133 3.17073 0
M  V30 32 H 5.60925 -0.374674 -1.3896 0
M  V30 33 H 5.79934 -1.71905 -0.241014 0
M  V30 END ATOM
M  V30 BEGIN BOND
M  V30 1 1 1 2
M  V30 2 1 2 3
M  V30 3 1 3 4
M  V30 4 1 4 5
M  V30 5 1 5 6
M  V30 6 1 6 7
M  V30 7 1 7 8
M  V30 8 1 6 9
M  V30 9 1 5 10
M  V30 10 1 10 11
M  V30 11 2 11 12
M  V30 12 1 12 13
M  V30 13 2 13 14
M  V30 14 1 14 15
M  V30 15 2 15 16
M  V30 16 1 16 17
M  V30 17 2 17 18
M  V30 18 1 18 19
M  V30 19 1 7 3
M  V30 20 1 14 10
M  V30 21 1 18 13
M  V30 22 1 1 20
M  V30 23 1 2 21
M  V30 24 1 2 22
M  V30 25 1 3 23
M  V30 26 1 5 24
M  V30 27 1 6 25
M  V30 28 1 7 26
M  V30 29 1 8 27
M  V30 30 1 9 28
M  V30 31 1 9 29
M  V30 32 1 11 30
M  V30 33 1 16 31
M  V30 34 1 19 32
M  V30 35 1 19 33
M  V30 END BOND
M  V30 END CTAB
M  END
