
     RDKit          3D

  0  0  0  0  0  0  0  0  0  0999 V3000
M  V30 BEGIN CTAB
M  V30 COUNTS 27 28 0 0 0
M  V30 BEGIN ATOM
M  V30 1 N -4.53514 1.86304 -0.923455 0
M  V30 2 C -3.33063 1.10949 -0.891843 0
M  V30 3 N -2.4268 1.0964 -1.90593 0
M  V30 4 C -1.28992 0.391206 -1.8845 0
M  V30 5 C -0.990508 -0.378277 -0.780038 0
M  V30 6 C 0.235795 -1.12951 -0.648682 0
M  V30 7 C 1.40468 -0.531231 -0.0317076 0
M  V30 8 C 1.44572 0.313203 1.04417 0
M  V30 9 C 2.66163 0.752277 1.52197 0
M  V30 10 C 3.85428 0.378997 0.962844 0
M  V30 11 Cl 5.34778 0.98941 1.64527 0
M  V30 12 C 3.82626 -0.46053 -0.110108 0
M  V30 13 Cl 5.37257 -0.929001 -0.810651 0
M  V30 14 C 2.63156 -0.914004 -0.608187 0
M  V30 15 C -1.89107 -0.384386 0.261508 0
M  V30 16 N -1.7185 -1.17877 1.45041 0
M  V30 17 N -3.02407 0.362483 0.158611 0
M  V30 18 H -5.22893 1.72443 -1.70092 0
M  V30 19 H -4.78115 2.57599 -0.18509 0
M  V30 20 H -0.585457 0.411817 -2.73271 0
M  V30 21 H 0.505372 -1.55193 -1.65172 0
M  V30 22 H -0.00104199 -2.05407 -0.0255654 0
M  V30 23 H 0.513251 0.63899 1.4981 0
M  V30 24 H 2.63375 1.41679 2.37672 0
M  V30 25 H 2.68322 -1.57937 -1.46058 0
M  V30 26 H -1.47806 -2.19048 1.42364 0
M  V30 27 H -1.83457 -0.742955 2.38412 0
M  V30 END ATOM
M  V30 BEGIN BOND
M  V30 1 1 1 2
M  V30 2 2 2 3
M  V30 3 1 3 4
M  V30 4 2 4 5
M  V30 5 1 5 6
M  V30 6 1 6 7
M  V30 7 2 7 8
M  V30 8 1 8 9
M  V30 9 2 9 10
M  V30 10 1 10 11
M  V30 11 1 10 12
M  V30 12 1 12 13
M  V30 13 2 12 14
M  V30 14 1 5 15
M  V30 15 1 15 16
M  V30 16 2 15 17
M  V30 17 1 17 2
M  V30 18 1 14 7
M  V30 19 1 1 18
M  V30 20 1 1 19
M  V30 21 1 4 20
M  V30 22 1 6 21
M  V30 23 1 6 22
M  V30 24 1 8 23
M  V30 25 1 9 24
M  V30 26 1 14 25
M  V30 27 1 16 26
M  V30 28 1 16 27
M  V30 END BOND
M  V30 END CTAB
M  END
