
     RDKit          3D

  0  0  0  0  0  0  0  0  0  0999 V3000
M  V30 BEGIN CTAB
M  V30 COUNTS 31 32 0 0 0
M  V30 BEGIN ATOM
M  V30 1 N 5.60541 0.358016 0.0233497 0
M  V30 2 C 4.97453 -0.908244 -0.128486 0
M  V30 3 N 5.71054 -1.95646 -0.229133 0
M  V30 4 N 3.54261 -0.97874 -0.164739 0
M  V30 5 C 2.75676 0.183985 -0.0524914 0
M  V30 6 O 3.31208 1.29155 0.0803801 0
M  V30 7 C 1.3145 0.0771104 -0.0929553 0
M  V30 8 N 0.699625 -1.12572 -0.237494 0
M  V30 9 C -0.64943 -1.24119 -0.277069 0
M  V30 10 Br -1.47434 -2.95316 -0.505122 0
M  V30 11 C -1.40023 -0.095174 -0.165347 0
M  V30 12 N -0.752327 1.10519 -0.0207317 0
M  V30 13 C 0.564906 1.22832 0.0187287 0
M  V30 14 N 1.14127 2.51576 0.171489 0
M  V30 15 C -2.85751 -0.122236 -0.209676 0
M  V30 16 C -3.5569 0.742313 -1.03885 0
M  V30 17 C -4.93535 0.750038 -1.08939 0
M  V30 18 C -5.67107 -0.113042 -0.306679 0
M  V30 19 C -5.00652 -0.981892 0.525755 0
M  V30 20 C -3.61589 -0.971476 0.560049 0
M  V30 21 H 5.7347 1.00703 -0.780716 0
M  V30 22 H 5.93857 0.617203 0.981562 0
M  V30 23 H 6.73605 -1.87176 -0.199404 0
M  V30 24 H 3.13965 -1.94169 -0.278674 0
M  V30 25 H 1.12725 2.97389 1.08466 0
M  V30 26 H 1.575 2.98854 -0.6428 0
M  V30 27 H -2.98924 1.42046 -1.65416 0
M  V30 28 H -5.49081 1.43683 -1.74809 0
M  V30 29 H -6.74957 -0.0780305 -0.373529 0
M  V30 30 H -5.5749 -1.67493 1.15498 0
M  V30 31 H -3.14937 -1.68251 1.25421 0
M  V30 END ATOM
M  V30 BEGIN BOND
M  V30 1 1 1 2
M  V30 2 2 2 3 CFG=2
M  V30 3 1 2 4
M  V30 4 1 4 5
M  V30 5 2 5 6
M  V30 6 1 5 7
M  V30 7 2 7 8
M  V30 8 1 8 9
M  V30 9 1 9 10
M  V30 10 2 9 11
M  V30 11 1 11 12
M  V30 12 2 12 13
M  V30 13 1 13 14
M  V30 14 1 11 15
M  V30 15 2 15 16
M  V30 16 1 16 17
M  V30 17 2 17 18
M  V30 18 1 18 19
M  V30 19 2 19 20
M  V30 20 1 13 7
M  V30 21 1 20 15
M  V30 22 1 1 21
M  V30 23 1 1 22
M  V30 24 1 3 23
M  V30 25 1 4 24
M  V30 26 1 14 25
M  V30 27 1 14 26
M  V30 28 1 16 27
M  V30 29 1 17 28
M  V30 30 1 18 29
M  V30 31 1 19 30
M  V30 32 1 20 31
M  V30 END BOND
M  V30 END CTAB
M  END
