
     RDKit          3D

  0  0  0  0  0  0  0  0  0  0999 V3000
M  V30 BEGIN CTAB
M  V30 COUNTS 36 37 0 0 0
M  V30 BEGIN ATOM
M  V30 1 N 6.47613 0.822697 0.0656887 0
M  V30 2 C 5.15709 0.779123 0.555748 0
M  V30 3 N 4.8641 1.39386 1.63988 0
M  V30 4 C 4.13385 0.0435579 -0.160169 0
M  V30 5 C 4.47717 -0.611569 -1.32871 0
M  V30 6 C 3.53053 -1.31504 -2.02689 0
M  V30 7 C 2.23212 -1.3756 -1.57205 0
M  V30 8 C 1.88129 -0.724712 -0.406956 0
M  V30 9 C 0.464895 -0.829206 0.029209 0
M  V30 10 O -0.340593 0.180265 -0.52495 0
M  V30 11 C -1.68734 0.181814 -0.185967 0
M  V30 12 C -2.56772 1.13291 -0.677405 0
M  V30 13 Cl -1.95864 2.36809 -1.75823 0
M  V30 14 C -3.90866 1.15796 -0.357527 0
M  V30 15 C -4.41567 0.174219 0.508812 0
M  V30 16 C -3.57186 -0.77645 1.00916 0
M  V30 17 C -2.24451 -0.766263 0.666281 0
M  V30 18 C -5.81762 0.218322 0.82979 0
M  V30 19 N -6.66256 1.22095 0.290783 0
M  V30 20 N -6.34131 -0.644615 1.60964 0
M  V30 21 C 2.81862 -0.0137953 0.306797 0
M  V30 22 H 6.96709 1.7056 -0.202113 0
M  V30 23 H 6.98973 -0.0815528 -0.0343597 0
M  V30 24 H 5.53902 1.9388 2.20544 0
M  V30 25 H 5.50995 -0.543442 -1.65932 0
M  V30 26 H 3.81916 -1.82353 -2.94325 0
M  V30 27 H 1.48671 -1.94605 -2.14765 0
M  V30 28 H 0.0795198 -1.81139 -0.308046 0
M  V30 29 H 0.430187 -0.841387 1.14456 0
M  V30 30 H -4.59489 1.90056 -0.741535 0
M  V30 31 H -3.9171 -1.54252 1.67129 0
M  V30 32 H -1.57689 -1.50822 1.0545 0
M  V30 33 H -6.83273 2.1086 0.789033 0
M  V30 34 H -7.11827 1.05911 -0.621674 0
M  V30 35 H -5.85037 -1.41509 2.06385 0
M  V30 36 H 2.54959 0.495643 1.21635 0
M  V30 END ATOM
M  V30 BEGIN BOND
M  V30 1 1 1 2
M  V30 2 2 2 3 CFG=2
M  V30 3 1 2 4
M  V30 4 2 4 5
M  V30 5 1 5 6
M  V30 6 2 6 7
M  V30 7 1 7 8
M  V30 8 1 8 9
M  V30 9 1 9 10
M  V30 10 1 10 11
M  V30 11 2 11 12
M  V30 12 1 12 13
M  V30 13 1 12 14
M  V30 14 2 14 15
M  V30 15 1 15 16
M  V30 16 2 16 17
M  V30 17 1 15 18
M  V30 18 1 18 19
M  V30 19 2 18 20 CFG=2
M  V30 20 2 8 21
M  V30 21 1 21 4
M  V30 22 1 17 11
M  V30 23 1 1 22
M  V30 24 1 1 23
M  V30 25 1 3 24
M  V30 26 1 5 25
M  V30 27 1 6 26
M  V30 28 1 7 27
M  V30 29 1 9 28
M  V30 30 1 9 29
M  V30 31 1 14 30
M  V30 32 1 16 31
M  V30 33 1 17 32
M  V30 34 1 19 33
M  V30 35 1 19 34
M  V30 36 1 20 35
M  V30 37 1 21 36
M  V30 END BOND
M  V30 END CTAB
M  END
