
     RDKit          3D

  0  0  0  0  0  0  0  0  0  0999 V3000
M  V30 BEGIN CTAB
M  V30 COUNTS 51 54 0 0 0
M  V30 BEGIN ATOM
M  V30 1 O -2.0639 1.31009 1.13912 0
M  V30 2 C -2.41381 0.205751 0.554044 0
M  V30 3 C -3.83783 0.137559 0.260892 0
M  V30 4 N -4.30832 -0.999809 -0.457042 0
M  V30 5 C -4.71941 0.37174 1.46917 0
M  V30 6 C -5.89087 1.2097 1.00273 0
M  V30 7 C -5.7047 1.3298 -0.49502 0
M  V30 8 C -4.20846 1.35703 -0.606215 0
M  V30 9 N -1.39497 -0.716273 0.30533 0
M  V30 10 C -1.44652 -2.00472 -0.291125 0
M  V30 11 C -0.844698 -1.86568 -1.67893 0
M  V30 12 C 0.59115 -1.44361 -1.49676 0
M  V30 13 C 0.993227 -1.14719 -0.0919981 0
M  V30 14 C -0.0119283 -0.338316 0.691529 0
M  V30 15 C 2.2342 -0.326038 -0.170463 0
M  V30 16 C 2.29051 0.867018 -0.854285 0
M  V30 17 C 3.48796 1.55168 -0.866263 0
M  V30 18 C 4.61752 1.08973 -0.225545 0
M  V30 19 C 4.51327 -0.11003 0.446575 0
M  V30 20 N 3.33114 -0.778177 0.453839 0
M  V30 21 N 5.72302 -0.340771 0.977512 0
M  V30 22 C 6.05655 -1.49792 1.76779 0
M  V30 23 N 6.5424 0.647519 0.663379 0
M  V30 24 C 5.90919 1.56675 -0.0845122 0
M  V30 25 N 6.4195 2.78499 -0.634937 0
M  V30 26 H -3.9366 -1.14373 -1.39617 0
M  V30 27 H -4.61388 -1.80871 0.0820111 0
M  V30 28 H -4.17887 0.840169 2.31154 0
M  V30 29 H -5.14974 -0.607079 1.78147 0
M  V30 30 H -6.86941 0.748015 1.248 0
M  V30 31 H -5.87445 2.22877 1.43634 0
M  V30 32 H -6.20562 2.20295 -0.918963 0
M  V30 33 H -6.09275 0.368318 -0.933358 0
M  V30 34 H -3.82875 1.19986 -1.61338 0
M  V30 35 H -3.82322 2.26202 -0.0965987 0
M  V30 36 H -2.36868 -2.55902 -0.271456 0
M  V30 37 H -0.701373 -2.66833 0.25451 0
M  V30 38 H -1.38277 -0.996725 -2.15704 0
M  V30 39 H -0.951853 -2.77758 -2.28418 0
M  V30 40 H 0.871668 -0.614422 -2.18806 0
M  V30 41 H 1.21109 -2.32876 -1.82845 0
M  V30 42 H 1.20806 -2.05117 0.49815 0
M  V30 43 H 0.0868123 -0.560903 1.75218 0
M  V30 44 H 0.137602 0.756311 0.540096 0
M  V30 45 H 1.40119 1.20006 -1.34071 0
M  V30 46 H 3.5655 2.49342 -1.39515 0
M  V30 47 H 7.09683 -1.43691 2.15555 0
M  V30 48 H 5.99225 -2.40382 1.10788 0
M  V30 49 H 5.34434 -1.64929 2.59897 0
M  V30 50 H 6.84348 3.5221 -0.0421445 0
M  V30 51 H 6.35495 2.92363 -1.68199 0
M  V30 END ATOM
M  V30 BEGIN BOND
M  V30 1 2 1 2
M  V30 2 1 2 3
M  V30 3 1 3 4
M  V30 4 1 3 5
M  V30 5 1 5 6
M  V30 6 1 6 7
M  V30 7 1 7 8
M  V30 8 1 2 9
M  V30 9 1 9 10
M  V30 10 1 10 11
M  V30 11 1 11 12
M  V30 12 1 12 13
M  V30 13 1 13 14
M  V30 14 1 13 15
M  V30 15 2 15 16
M  V30 16 1 16 17
M  V30 17 2 17 18
M  V30 18 1 18 19
M  V30 19 2 19 20
M  V30 20 1 19 21
M  V30 21 1 21 22
M  V30 22 1 21 23
M  V30 23 2 23 24
M  V30 24 1 24 25
M  V30 25 1 8 3
M  V30 26 1 14 9
M  V30 27 1 20 15
M  V30 28 1 24 18
M  V30 29 1 4 26
M  V30 30 1 4 27
M  V30 31 1 5 28
M  V30 32 1 5 29
M  V30 33 1 6 30
M  V30 34 1 6 31
M  V30 35 1 7 32
M  V30 36 1 7 33
M  V30 37 1 8 34
M  V30 38 1 8 35
M  V30 39 1 10 36
M  V30 40 1 10 37
M  V30 41 1 11 38
M  V30 42 1 11 39
M  V30 43 1 12 40
M  V30 44 1 12 41
M  V30 45 1 13 42
M  V30 46 1 14 43
M  V30 47 1 14 44
M  V30 48 1 16 45
M  V30 49 1 17 46
M  V30 50 1 22 47
M  V30 51 1 22 48
M  V30 52 1 22 49
M  V30 53 1 25 50
M  V30 54 1 25 51
M  V30 END BOND
M  V30 END CTAB
M  END
