
     RDKit          3D

  0  0  0  0  0  0  0  0  0  0999 V3000
M  V30 BEGIN CTAB
M  V30 COUNTS 51 52 0 0 0
M  V30 BEGIN ATOM
M  V30 1 O 1.69268 -2.31254 -0.936761 0
M  V30 2 C 1.48421 -1.13511 -1.25248 0
M  V30 3 C 2.45385 -0.131278 -0.710434 0
M  V30 4 C 3.52646 -0.759208 0.141127 0
M  V30 5 C 4.41414 0.326757 0.60904 0
M  V30 6 C 4.31634 0.785355 1.89444 0
M  V30 7 C 5.12368 1.80671 2.38815 0
M  V30 8 C 6.04882 2.34742 1.50024 0
M  V30 9 C 6.17104 1.90878 0.204315 0
M  V30 10 C 5.34526 0.893107 -0.233974 0
M  V30 11 N 5.45254 0.420151 -1.56974 0
M  V30 12 N 0.438998 -0.720158 -2.0508 0
M  V30 13 C -0.571778 -1.53745 -2.6368 0
M  V30 14 C -1.49972 -2.27267 -1.75008 0
M  V30 15 C -2.28697 -1.36806 -0.835206 0
M  V30 16 C -3.52054 -0.855909 -1.20723 0
M  V30 17 C -4.27536 -0.0412799 -0.424905 0
M  V30 18 C -3.8022 0.31061 0.822624 0
M  V30 19 C -2.57811 -0.175587 1.23624 0
M  V30 20 C -1.82103 -1.01327 0.410208 0
M  V30 21 C -4.60954 1.21136 1.72046 0
M  V30 22 C -4.78626 2.5146 0.990122 0
M  V30 23 C -5.9379 0.561114 2.06174 0
M  V30 24 N -0.916859 -3.38235 -1.1035 0
M  V30 25 H 1.84176 0.606027 -0.129506 0
M  V30 26 H 2.86177 0.416671 -1.57228 0
M  V30 27 H 3.12014 -1.35787 0.95303 0
M  V30 28 H 4.10952 -1.4364 -0.513823 0
M  V30 29 H 3.60039 0.374678 2.59908 0
M  V30 30 H 5.0256 2.14947 3.40684 0
M  V30 31 H 6.67665 3.13776 1.8758 0
M  V30 32 H 6.89263 2.34148 -0.462645 0
M  V30 33 H 5.85086 -0.517421 -1.79071 0
M  V30 34 H 5.12836 1.01523 -2.36196 0
M  V30 35 H 0.400351 0.348452 -2.24069 0
M  V30 36 H -0.122189 -2.30564 -3.34611 0
M  V30 37 H -1.21671 -0.927399 -3.34745 0
M  V30 38 H -2.33087 -2.72799 -2.41954 0
M  V30 39 H -3.90565 -1.12553 -2.18783 0
M  V30 40 H -5.23281 0.338488 -0.749893 0
M  V30 41 H -2.1844 0.086249 2.21204 0
M  V30 42 H -0.879679 -1.36423 0.782323 0
M  V30 43 H -4.03198 1.40068 2.64636 0
M  V30 44 H -5.66712 2.45463 0.295627 0
M  V30 45 H -3.85408 2.72725 0.424991 0
M  V30 46 H -4.95513 3.35093 1.69227 0
M  V30 47 H -6.07847 0.504626 3.1674 0
M  V30 48 H -6.72614 1.16683 1.56347 0
M  V30 49 H -5.90386 -0.475243 1.69483 0
M  V30 50 H -0.993532 -3.26709 -0.0714622 0
M  V30 51 H -1.28718 -4.29574 -1.38696 0
M  V30 END ATOM
M  V30 BEGIN BOND
M  V30 1 2 1 2
M  V30 2 1 2 3
M  V30 3 1 3 4
M  V30 4 1 4 5
M  V30 5 2 5 6
M  V30 6 1 6 7
M  V30 7 2 7 8
M  V30 8 1 8 9
M  V30 9 2 9 10
M  V30 10 1 10 11
M  V30 11 1 2 12
M  V30 12 1 12 13
M  V30 13 1 13 14
M  V30 14 1 14 15
M  V30 15 2 15 16
M  V30 16 1 16 17
M  V30 17 2 17 18
M  V30 18 1 18 19
M  V30 19 2 19 20
M  V30 20 1 18 21
M  V30 21 1 21 22
M  V30 22 1 21 23
M  V30 23 1 14 24
M  V30 24 1 10 5
M  V30 25 1 20 15
M  V30 26 1 3 25
M  V30 27 1 3 26
M  V30 28 1 4 27
M  V30 29 1 4 28
M  V30 30 1 6 29
M  V30 31 1 7 30
M  V30 32 1 8 31
M  V30 33 1 9 32
M  V30 34 1 11 33
M  V30 35 1 11 34
M  V30 36 1 12 35
M  V30 37 1 13 36
M  V30 38 1 13 37
M  V30 39 1 14 38
M  V30 40 1 16 39
M  V30 41 1 17 40
M  V30 42 1 19 41
M  V30 43 1 20 42
M  V30 44 1 21 43
M  V30 45 1 22 44
M  V30 46 1 22 45
M  V30 47 1 22 46
M  V30 48 1 23 47
M  V30 49 1 23 48
M  V30 50 1 23 49
M  V30 51 1 24 50
M  V30 52 1 24 51
M  V30 END BOND
M  V30 END CTAB
M  END
