
     RDKit          3D

  0  0  0  0  0  0  0  0  0  0999 V3000
M  V30 BEGIN CTAB
M  V30 COUNTS 100 103 0 0 0
M  V30 BEGIN ATOM
M  V30 1 N 2.22542 7.27343 3.34242 0
M  V30 2 C 0.933785 6.61112 3.18726 0
M  V30 3 N -0.0179406 7.2354 3.12948 0
M  V30 4 N 0.924894 5.17443 3.07451 0
M  V30 5 C 2.09482 4.41787 3.41808 0
M  V30 6 C 1.82563 2.91866 3.07153 0
M  V30 7 C 1.56718 2.87341 1.61822 0
M  V30 8 C 1.26452 1.53852 0.982323 0 CFG=1
M  V30 9 N 0.978529 1.88744 -0.424525 0
M  V30 10 C -0.319002 1.92157 -0.986368 0
M  V30 11 O -0.595296 2.97614 -1.65359 0
M  V30 12 C -1.36091 0.860139 -0.876228 0 CFG=2
M  V30 13 C -2.1246 0.584954 -2.10845 0
M  V30 14 C -2.9047 1.60531 -2.80257 0
M  V30 15 C -3.98901 2.31622 -2.07446 0
M  V30 16 N -4.58185 3.25267 -3.03838 0
M  V30 17 C -5.34158 2.88087 -4.16228 0
M  V30 18 N -6.73499 3.09901 -4.17471 0
M  V30 19 N -4.80464 2.35323 -5.20097 0
M  V30 20 N -2.11974 0.927577 0.344757 0
M  V30 21 C -2.48048 -0.0280316 1.27544 0
M  V30 22 O -2.1461 0.206514 2.53184 0
M  V30 23 C -3.19358 -1.30657 1.14743 0 CFG=2
M  V30 24 C -4.19402 -1.41103 2.29421 0
M  V30 25 C -4.94957 -2.6525 2.39758 0
M  V30 26 C -6.01076 -3.05191 1.69015 0
M  V30 27 C -6.71628 -4.24898 1.90968 0
M  V30 28 C -6.33501 -5.09242 2.8952 0
M  V30 29 O -6.94239 -6.3137 3.24632 0
M  V30 30 C -5.23467 -4.69821 3.64321 0
M  V30 31 C -4.52447 -3.55446 3.46956 0
M  V30 32 N -2.53282 -2.52287 0.946562 0
M  V30 33 C -1.36595 -2.91481 0.318668 0
M  V30 34 O -1.4789 -3.67252 -0.731492 0
M  V30 35 C 0.0625863 -2.59652 0.659035 0
M  V30 36 N 0.931846 -3.06574 -0.389946 0
M  V30 37 C 1.97056 -2.41855 -1.06128 0
M  V30 38 O 2.61589 -3.06922 -1.98323 0
M  V30 39 C 2.42699 -1.04992 -0.830327 0 CFG=2
M  V30 40 C 3.61613 -0.570314 -1.58242 0
M  V30 41 C 4.85393 -1.33358 -1.48313 0
M  V30 42 C 5.54433 -1.54039 -2.70736 0
M  V30 43 C 6.69346 -2.29008 -2.68477 0
M  V30 44 C 7.41817 -2.48899 -3.83748 0
M  V30 45 C 8.58058 -3.16769 -3.9651 0
M  V30 46 C 9.07782 -3.71455 -2.81658 0
M  V30 47 C 8.44059 -3.59485 -1.58575 0
M  V30 48 C 7.22245 -2.85546 -1.55077 0
M  V30 49 C 6.55555 -2.66185 -0.344795 0
M  V30 50 C 5.38303 -1.89515 -0.370292 0
M  V30 51 N 2.48378 -0.699724 0.573755 0
M  V30 52 C 2.40109 0.599273 1.11608 0
M  V30 53 O 3.42871 0.986562 1.80313 0
M  V30 54 H 3.07373 6.707 3.50107 0
M  V30 55 H 2.2621 8.28759 3.29245 0
M  V30 56 H -0.881325 7.79102 3.07652 0
M  V30 57 H 0.071824 4.71342 2.73244 0
M  V30 58 H 2.92558 4.80077 2.8227 0
M  V30 59 H 2.34102 4.51637 4.48926 0
M  V30 60 H 2.57691 2.30122 3.50113 0
M  V30 61 H 0.829727 2.75082 3.58701 0
M  V30 62 H 2.52416 3.20845 1.09326 0
M  V30 63 H 0.831938 3.65125 1.27109 0
M  V30 64 H 0.35859 1.16058 1.49255 0
M  V30 65 H 1.81163 2.13926 -0.977996 0
M  V30 66 H -0.725009 -0.0891671 -0.782991 0
M  V30 67 H -2.78623 -0.295323 -1.90659 0
M  V30 68 H -1.39349 0.180792 -2.86859 0
M  V30 69 H -2.29559 2.27627 -3.47572 0
M  V30 70 H -3.48066 1.00392 -3.58829 0
M  V30 71 H -3.63474 2.94302 -1.23522 0
M  V30 72 H -4.75764 1.58388 -1.79446 0
M  V30 73 H -4.44783 4.30742 -2.93377 0
M  V30 74 H -7.32516 2.92588 -5.04332 0
M  V30 75 H -7.21132 3.44322 -3.32304 0
M  V30 76 H -5.39095 2.08207 -6.03632 0
M  V30 77 H -2.44982 1.93045 0.56036 0
M  V30 78 H -3.9571 -1.16716 0.252546 0
M  V30 79 H -4.87472 -0.508008 2.18159 0
M  V30 80 H -3.67324 -1.20385 3.26918 0
M  V30 81 H -6.3805 -2.40745 0.865557 0
M  V30 82 H -7.55914 -4.51685 1.29171 0
M  V30 83 H -7.68898 -6.27878 3.98255 0
M  V30 84 H -4.92428 -5.39447 4.44549 0
M  V30 85 H -3.69914 -3.25253 4.03928 0
M  V30 86 H -3.09132 -3.39047 1.37556 0
M  V30 87 H 0.179026 -1.52716 0.847585 0
M  V30 88 H 0.325764 -3.21217 1.56138 0
M  V30 89 H 0.73209 -4.07348 -0.695834 0
M  V30 90 H 1.57518 -0.370976 -1.24824 0
M  V30 91 H 3.8571 0.46186 -1.1869 0
M  V30 92 H 3.32323 -0.400533 -2.64055 0
M  V30 93 H 5.1619 -1.12457 -3.58797 0
M  V30 94 H 6.95385 -2.015 -4.73989 0
M  V30 95 H 9.12594 -3.2981 -4.90331 0
M  V30 96 H 10.0106 -4.25286 -2.89843 0
M  V30 97 H 8.80694 -4.01455 -0.68769 0
M  V30 98 H 6.96108 -3.1194 0.524123 0
M  V30 99 H 4.87727 -1.7494 0.589293 0
M  V30 100 H 2.60797 -1.52399 1.25029 0
M  V30 END ATOM
M  V30 BEGIN BOND
M  V30 1 1 1 2
M  V30 2 2 2 3 CFG=2
M  V30 3 1 2 4
M  V30 4 1 4 5
M  V30 5 1 5 6
M  V30 6 1 6 7
M  V30 7 1 7 8
M  V30 8 1 8 9
M  V30 9 1 9 10
M  V30 10 2 10 11
M  V30 11 1 10 12
M  V30 12 1 12 13
M  V30 13 1 13 14
M  V30 14 1 14 15
M  V30 15 1 15 16
M  V30 16 1 16 17
M  V30 17 1 17 18
M  V30 18 2 17 19 CFG=2
M  V30 19 1 12 20
M  V30 20 1 20 21
M  V30 21 2 21 22
M  V30 22 1 21 23
M  V30 23 1 23 24
M  V30 24 1 24 25
M  V30 25 2 25 26
M  V30 26 1 26 27
M  V30 27 2 27 28
M  V30 28 1 28 29
M  V30 29 1 28 30
M  V30 30 2 30 31
M  V30 31 1 23 32
M  V30 32 1 32 33
M  V30 33 2 33 34
M  V30 34 1 33 35
M  V30 35 1 35 36
M  V30 36 1 36 37
M  V30 37 2 37 38
M  V30 38 1 37 39
M  V30 39 1 39 40
M  V30 40 1 40 41
M  V30 41 2 41 42
M  V30 42 1 42 43
M  V30 43 2 43 44
M  V30 44 1 44 45
M  V30 45 2 45 46
M  V30 46 1 46 47
M  V30 47 2 47 48
M  V30 48 1 48 49
M  V30 49 2 49 50
M  V30 50 1 39 51
M  V30 51 1 51 52
M  V30 52 2 52 53
M  V30 53 1 52 8
M  V30 54 1 31 25
M  V30 55 1 50 41
M  V30 56 1 48 43
M  V30 57 1 1 54
M  V30 58 1 1 55
M  V30 59 1 3 56
M  V30 60 1 4 57
M  V30 61 1 5 58
M  V30 62 1 5 59
M  V30 63 1 6 60
M  V30 64 1 6 61
M  V30 65 1 7 62
M  V30 66 1 7 63
M  V30 67 1 8 64 CFG=1
M  V30 68 1 9 65
M  V30 69 1 12 66 CFG=1
M  V30 70 1 13 67
M  V30 71 1 13 68
M  V30 72 1 14 69
M  V30 73 1 14 70
M  V30 74 1 15 71
M  V30 75 1 15 72
M  V30 76 1 16 73
M  V30 77 1 18 74
M  V30 78 1 18 75
M  V30 79 1 19 76
M  V30 80 1 20 77
M  V30 81 1 23 78 CFG=3
M  V30 82 1 24 79
M  V30 83 1 24 80
M  V30 84 1 26 81
M  V30 85 1 27 82
M  V30 86 1 29 83
M  V30 87 1 30 84
M  V30 88 1 31 85
M  V30 89 1 32 86
M  V30 90 1 35 87
M  V30 91 1 35 88
M  V30 92 1 36 89
M  V30 93 1 39 90 CFG=3
M  V30 94 1 40 91
M  V30 95 1 40 92
M  V30 96 1 42 93
M  V30 97 1 44 94
M  V30 98 1 45 95
M  V30 99 1 46 96
M  V30 100 1 47 97
M  V30 101 1 49 98
M  V30 102 1 50 99
M  V30 103 1 51 100
M  V30 END BOND
M  V30 END CTAB
M  END
