
     RDKit          3D

  0  0  0  0  0  0  0  0  0  0999 V3000
M  V30 BEGIN CTAB
M  V30 COUNTS 70 72 0 0 0
M  V30 BEGIN ATOM
M  V30 1 C 7.11586 -1.65235 -0.942736 0
M  V30 2 C 5.72337 -1.71674 -1.57655 0
M  V30 3 C 5.70617 -0.92335 -2.87204 0
M  V30 4 C 5.43925 -3.13972 -1.88581 0
M  V30 5 O 4.84421 -1.10064 -0.689622 0
M  V30 6 C 3.50715 -0.932046 -0.845545 0
M  V30 7 O 2.96369 -1.36109 -1.88343 0
M  V30 8 N 2.74905 -0.279284 0.157251 0
M  V30 9 C 3.40019 0.189295 1.312 0
M  V30 10 C 3.85523 1.48851 1.33198 0
M  V30 11 C 4.49183 1.93148 2.47375 0
M  V30 12 C 4.66455 1.09465 3.5588 0
M  V30 13 N 5.32824 1.58949 4.72209 0
M  V30 14 C 4.1906 -0.201266 3.49158 0
M  V30 15 C 3.55455 -0.673586 2.3751 0
M  V30 16 C 1.33414 -0.0812012 0.0294137 0
M  V30 17 C 0.800242 0.696865 -0.972686 0
M  V30 18 C -0.564288 0.87819 -1.08055 0
M  V30 19 C -1.4113 0.274944 -0.175966 0
M  V30 20 C -0.89916 -0.50664 0.83305 0
M  V30 21 C 0.463179 -0.672425 0.920129 0
M  V30 22 N -2.82526 0.430559 -0.242849 0
M  V30 23 C -3.63229 -0.725296 -0.239387 0
M  V30 24 O -3.11061 -1.85447 -0.178859 0
M  V30 25 O -5.00415 -0.607964 -0.303143 0
M  V30 26 C -5.78261 -1.78821 -0.297244 0
M  V30 27 C -7.23352 -1.34901 -0.375554 0
M  V30 28 C -5.61247 -2.54937 1.00547 0
M  V30 29 C -5.51261 -2.67477 -1.47045 0
M  V30 30 C -3.39531 1.73621 -0.310725 0
M  V30 31 C -3.15622 2.66781 0.679064 0
M  V30 32 C -3.71624 3.94415 0.60889 0
M  V30 33 C -4.52371 4.32026 -0.444078 0
M  V30 34 N -5.09787 5.61378 -0.526043 0
M  V30 35 C -4.75185 3.37173 -1.42744 0
M  V30 36 C -4.2022 2.10773 -1.36588 0
M  V30 37 H 7.88333 -2.02964 -1.62085 0
M  V30 38 H 7.06194 -2.28571 -0.032023 0
M  V30 39 H 7.32738 -0.622314 -0.584588 0
M  V30 40 H 5.02721 -0.0395246 -2.80852 0
M  V30 41 H 6.72314 -0.499479 -3.03389 0
M  V30 42 H 5.36271 -1.51415 -3.73179 0
M  V30 43 H 4.41268 -3.33866 -2.24036 0
M  V30 44 H 5.72605 -3.83591 -1.04612 0
M  V30 45 H 6.11044 -3.4413 -2.73095 0
M  V30 46 H 3.70925 2.13786 0.461596 0
M  V30 47 H 4.8531 2.94783 2.50249 0
M  V30 48 H 5.82489 0.894824 5.32184 0
M  V30 49 H 5.32883 2.58404 4.97562 0
M  V30 50 H 4.31099 -0.881415 4.32571 0
M  V30 51 H 3.17661 -1.70256 2.31764 0
M  V30 52 H 1.44842 1.17696 -1.69006 0
M  V30 53 H -0.948136 1.48839 -1.86964 0
M  V30 54 H -1.57632 -0.979088 1.54274 0
M  V30 55 H 0.890127 -1.28963 1.71456 0
M  V30 56 H -7.34879 -0.403437 -0.950896 0
M  V30 57 H -7.87031 -2.1251 -0.854034 0
M  V30 58 H -7.63565 -1.15816 0.626075 0
M  V30 59 H -5.46985 -3.64893 0.804185 0
M  V30 60 H -6.51557 -2.46029 1.64953 0
M  V30 61 H -4.77441 -2.13693 1.61778 0
M  V30 62 H -4.88332 -3.56005 -1.22826 0
M  V30 63 H -4.95133 -2.12129 -2.27409 0
M  V30 64 H -6.45666 -3.04352 -1.93892 0
M  V30 65 H -2.5332 2.41461 1.51598 0
M  V30 66 H -3.51789 4.66311 1.39426 0
M  V30 67 H -4.51086 6.42495 -0.802963 0
M  V30 68 H -6.09968 5.78597 -0.316607 0
M  V30 69 H -5.39117 3.67258 -2.25916 0
M  V30 70 H -4.3938 1.37973 -2.14827 0
M  V30 END ATOM
M  V30 BEGIN BOND
M  V30 1 1 1 2
M  V30 2 1 2 3
M  V30 3 1 2 4
M  V30 4 1 2 5
M  V30 5 1 5 6
M  V30 6 2 6 7
M  V30 7 1 6 8
M  V30 8 1 8 9
M  V30 9 2 9 10
M  V30 10 1 10 11
M  V30 11 2 11 12
M  V30 12 1 12 13
M  V30 13 1 12 14
M  V30 14 2 14 15
M  V30 15 1 8 16
M  V30 16 2 16 17
M  V30 17 1 17 18
M  V30 18 2 18 19
M  V30 19 1 19 20
M  V30 20 2 20 21
M  V30 21 1 19 22
M  V30 22 1 22 23
M  V30 23 2 23 24
M  V30 24 1 23 25
M  V30 25 1 25 26
M  V30 26 1 26 27
M  V30 27 1 26 28
M  V30 28 1 26 29
M  V30 29 1 22 30
M  V30 30 2 30 31
M  V30 31 1 31 32
M  V30 32 2 32 33
M  V30 33 1 33 34
M  V30 34 1 33 35
M  V30 35 2 35 36
M  V30 36 1 15 9
M  V30 37 1 21 16
M  V30 38 1 36 30
M  V30 39 1 1 37
M  V30 40 1 1 38
M  V30 41 1 1 39
M  V30 42 1 3 40
M  V30 43 1 3 41
M  V30 44 1 3 42
M  V30 45 1 4 43
M  V30 46 1 4 44
M  V30 47 1 4 45
M  V30 48 1 10 46
M  V30 49 1 11 47
M  V30 50 1 13 48
M  V30 51 1 13 49
M  V30 52 1 14 50
M  V30 53 1 15 51
M  V30 54 1 17 52
M  V30 55 1 18 53
M  V30 56 1 20 54
M  V30 57 1 21 55
M  V30 58 1 27 56
M  V30 59 1 27 57
M  V30 60 1 27 58
M  V30 61 1 28 59
M  V30 62 1 28 60
M  V30 63 1 28 61
M  V30 64 1 29 62
M  V30 65 1 29 63
M  V30 66 1 29 64
M  V30 67 1 31 65
M  V30 68 1 32 66
M  V30 69 1 34 67
M  V30 70 1 34 68
M  V30 71 1 35 69
M  V30 72 1 36 70
M  V30 END BOND
M  V30 END CTAB
M  END
