
     RDKit          3D

  0  0  0  0  0  0  0  0  0  0999 V3000
M  V30 BEGIN CTAB
M  V30 COUNTS 53 54 0 0 0
M  V30 BEGIN ATOM
M  V30 1 C 0.145722 1.30521 -3.15862 0
M  V30 2 C -0.207033 0.222793 -2.18931 0 CFG=2
M  V30 3 N -1.53192 0.331324 -1.66078 0
M  V30 4 C -2.43558 -0.736516 -1.79074 0
M  V30 5 O -2.09877 -1.78812 -2.36495 0
M  V30 6 C -3.84165 -0.648056 -1.24126 0 CFG=1
M  V30 7 N -4.48731 -1.8951 -1.54236 0
M  V30 8 C -3.71576 -0.360802 0.226813 0
M  V30 9 C -4.97218 -0.20158 0.986865 0
M  V30 10 C -5.91657 -1.35478 1.0272 0
M  V30 11 C -7.12891 -1.00144 1.89435 0
M  V30 12 N -7.83169 0.136581 1.37917 0
M  V30 13 C 0.809807 0.31797 -1.0564 0
M  V30 14 O 0.390401 0.467161 0.100582 0
M  V30 15 N 2.14721 0.230398 -1.40008 0
M  V30 16 C 3.24031 0.288693 -0.507099 0
M  V30 17 C 3.14093 0.155586 0.851656 0
M  V30 18 C 4.27054 0.243056 1.67266 0
M  V30 19 C 5.51254 0.466243 1.11928 0
M  V30 20 C 6.63776 0.555056 1.91493 0
M  V30 21 C 6.49932 0.408489 3.3708 0
M  V30 22 C 7.86166 0.781135 1.2964 0
M  V30 23 C 7.94853 0.912362 -0.0676484 0
M  V30 24 O 9.08809 1.11887 -0.597867 0
M  V30 25 O 6.85955 0.821401 -0.780165 0
M  V30 26 C 5.66078 0.60645 -0.248559 0
M  V30 27 C 4.53334 0.514227 -1.00812 0
M  V30 28 H 0.794435 0.879588 -3.95991 0
M  V30 29 H 0.730546 2.09747 -2.67412 0
M  V30 30 H -0.763659 1.70731 -3.65526 0
M  V30 31 H -0.0480843 -0.768714 -2.67309 0
M  V30 32 H -1.81328 1.21329 -1.17964 0
M  V30 33 H -4.38123 0.16428 -1.76089 0
M  V30 34 H -4.30696 -2.6066 -0.809703 0
M  V30 35 H -4.18865 -2.29152 -2.45246 0
M  V30 36 H -3.0156 -1.10903 0.682698 0
M  V30 37 H -3.13918 0.615364 0.316191 0
M  V30 38 H -4.76038 0.0521137 2.07473 0
M  V30 39 H -5.50104 0.73491 0.614938 0
M  V30 40 H -5.44192 -2.24574 1.47376 0
M  V30 41 H -6.34073 -1.65501 0.0451537 0
M  V30 42 H -7.8266 -1.86611 1.91152 0
M  V30 43 H -6.82459 -0.790582 2.93621 0
M  V30 44 H -8.02112 0.0995906 0.369223 0
M  V30 45 H -7.38637 1.03493 1.6849 0
M  V30 46 H 2.38203 0.103775 -2.43469 0
M  V30 47 H 2.1979 -0.0339411 1.35353 0
M  V30 48 H 4.18743 0.138047 2.74218 0
M  V30 49 H 6.05349 -0.553293 3.6743 0
M  V30 50 H 7.52711 0.43131 3.82372 0
M  V30 51 H 5.95924 1.28333 3.77934 0
M  V30 52 H 8.73163 0.848235 1.92958 0
M  V30 53 H 4.61643 0.620391 -2.08397 0
M  V30 END ATOM
M  V30 BEGIN BOND
M  V30 1 1 1 2
M  V30 2 1 2 3
M  V30 3 1 3 4
M  V30 4 2 4 5
M  V30 5 1 4 6
M  V30 6 1 6 7
M  V30 7 1 6 8
M  V30 8 1 8 9
M  V30 9 1 9 10
M  V30 10 1 10 11
M  V30 11 1 11 12
M  V30 12 1 2 13
M  V30 13 2 13 14
M  V30 14 1 13 15
M  V30 15 1 15 16
M  V30 16 2 16 17
M  V30 17 1 17 18
M  V30 18 2 18 19
M  V30 19 1 19 20
M  V30 20 1 20 21
M  V30 21 2 20 22
M  V30 22 1 22 23
M  V30 23 2 23 24
M  V30 24 1 23 25
M  V30 25 1 25 26
M  V30 26 2 26 27
M  V30 27 1 27 16
M  V30 28 1 26 19
M  V30 29 1 1 28
M  V30 30 1 1 29
M  V30 31 1 1 30
M  V30 32 1 2 31 CFG=3
M  V30 33 1 3 32
M  V30 34 1 6 33 CFG=3
M  V30 35 1 7 34
M  V30 36 1 7 35
M  V30 37 1 8 36
M  V30 38 1 8 37
M  V30 39 1 9 38
M  V30 40 1 9 39
M  V30 41 1 10 40
M  V30 42 1 10 41
M  V30 43 1 11 42
M  V30 44 1 11 43
M  V30 45 1 12 44
M  V30 46 1 12 45
M  V30 47 1 15 46
M  V30 48 1 17 47
M  V30 49 1 18 48
M  V30 50 1 21 49
M  V30 51 1 21 50
M  V30 52 1 21 51
M  V30 53 1 22 52
M  V30 54 1 27 53
M  V30 END BOND
M  V30 END CTAB
M  END
