
     RDKit          3D

  0  0  0  0  0  0  0  0  0  0999 V3000
M  V30 BEGIN CTAB
M  V30 COUNTS 52 54 0 0 0
M  V30 BEGIN ATOM
M  V30 1 C -2.03658 1.44591 1.66515 0
M  V30 2 C -2.20686 1.56312 0.161632 0
M  V30 3 N -2.62023 0.336373 -0.463573 0
M  V30 4 C -4.07294 0.146132 -0.625087 0
M  V30 5 C -4.69602 -0.545091 0.546804 0
M  V30 6 N -6.13834 -0.691938 0.302293 0
M  V30 7 C -6.79774 0.58867 0.315055 0
M  V30 8 C -6.73529 -1.51016 1.34243 0
M  V30 9 C -1.71837 -0.628224 -0.901875 0
M  V30 10 O -2.26076 -1.65967 -1.46008 0
M  V30 11 C -0.275362 -0.63563 -0.818255 0
M  V30 12 N 0.451104 0.338838 -0.246361 0
M  V30 13 C 1.79613 0.269513 -0.190512 0
M  V30 14 C 2.47445 -0.807562 -0.720129 0
M  V30 15 N 1.78142 -1.80581 -1.30234 0
M  V30 16 C 0.444519 -1.71514 -1.34619 0
M  V30 17 N -0.317656 -2.77204 -1.9646 0
M  V30 18 N 3.80779 -0.830084 -0.641365 0
M  V30 19 C 4.5463 0.133682 -0.0755917 0
M  V30 20 N 3.88468 1.17563 0.436419 0
M  V30 21 C 2.54809 1.27257 0.39697 0
M  V30 22 N 1.87147 2.38782 0.946997 0
M  V30 23 C 5.99851 0.0239418 -0.0361326 0
M  V30 24 C 6.6633 -1.0595 -0.566816 0
M  V30 25 C 8.05345 -1.14573 -0.52143 0
M  V30 26 C 8.79646 -0.145438 0.0571587 0
M  V30 27 C 8.13829 0.959247 0.59962 0
M  V30 28 C 6.74421 1.02708 0.54439 0
M  V30 29 H -2.99749 1.63516 2.20512 0
M  V30 30 H -1.61435 0.486829 1.98518 0
M  V30 31 H -1.37814 2.3008 1.96497 0
M  V30 32 H -1.31398 2.00036 -0.268087 0
M  V30 33 H -3.06695 2.33114 0.0696453 0
M  V30 34 H -4.2854 -0.471426 -1.52446 0
M  V30 35 H -4.54726 1.11796 -0.767815 0
M  V30 36 H -4.30869 -1.59961 0.630452 0
M  V30 37 H -4.51154 -0.0829187 1.51804 0
M  V30 38 H -7.81433 0.49684 0.746566 0
M  V30 39 H -6.93909 0.984614 -0.714565 0
M  V30 40 H -6.22455 1.29421 0.954579 0
M  V30 41 H -6.55147 -1.03513 2.32699 0
M  V30 42 H -7.81361 -1.61042 1.11275 0
M  V30 43 H -6.22572 -2.49333 1.30822 0
M  V30 44 H -0.534375 -2.79514 -2.96953 0
M  V30 45 H -0.66176 -3.54481 -1.3588 0
M  V30 46 H 2.16883 2.73675 1.876 0
M  V30 47 H 1.0932 2.8728 0.465932 0
M  V30 48 H 6.0623 -1.83958 -1.01876 0
M  V30 49 H 8.56578 -1.99477 -0.938165 0
M  V30 50 H 9.87106 -0.139799 0.130137 0
M  V30 51 H 8.69638 1.7624 1.06154 0
M  V30 52 H 6.20714 1.87059 0.956824 0
M  V30 END ATOM
M  V30 BEGIN BOND
M  V30 1 1 1 2
M  V30 2 1 2 3
M  V30 3 1 3 4
M  V30 4 1 4 5
M  V30 5 1 5 6
M  V30 6 1 6 7
M  V30 7 1 6 8
M  V30 8 1 3 9
M  V30 9 2 9 10
M  V30 10 1 9 11
M  V30 11 2 11 12
M  V30 12 1 12 13
M  V30 13 2 13 14
M  V30 14 1 14 15
M  V30 15 2 15 16
M  V30 16 1 16 17
M  V30 17 1 14 18
M  V30 18 2 18 19
M  V30 19 1 19 20
M  V30 20 2 20 21
M  V30 21 1 21 22
M  V30 22 1 19 23
M  V30 23 2 23 24
M  V30 24 1 24 25
M  V30 25 2 25 26
M  V30 26 1 26 27
M  V30 27 2 27 28
M  V30 28 1 16 11
M  V30 29 1 28 23
M  V30 30 1 21 13
M  V30 31 1 1 29
M  V30 32 1 1 30
M  V30 33 1 1 31
M  V30 34 1 2 32
M  V30 35 1 2 33
M  V30 36 1 4 34
M  V30 37 1 4 35
M  V30 38 1 5 36
M  V30 39 1 5 37
M  V30 40 1 7 38
M  V30 41 1 7 39
M  V30 42 1 7 40
M  V30 43 1 8 41
M  V30 44 1 8 42
M  V30 45 1 8 43
M  V30 46 1 17 44
M  V30 47 1 17 45
M  V30 48 1 22 46
M  V30 49 1 22 47
M  V30 50 1 24 48
M  V30 51 1 25 49
M  V30 52 1 26 50
M  V30 53 1 27 51
M  V30 54 1 28 52
M  V30 END BOND
M  V30 END CTAB
M  END
