
     RDKit          3D

  0  0  0  0  0  0  0  0  0  0999 V3000
M  V30 BEGIN CTAB
M  V30 COUNTS 48 49 0 0 0
M  V30 BEGIN ATOM
M  V30 1 N -4.81746 -1.68969 1.99007 0
M  V30 2 C -4.03973 -1.31244 0.764447 0
M  V30 3 C -3.14367 -2.4265 0.397998 0
M  V30 4 C -2.28942 -2.40738 -0.758978 0
M  V30 5 N -1.21111 -1.44252 -0.94302 0
M  V30 6 C 0.00858814 -1.80483 -0.371994 0
M  V30 7 O -0.0828151 -2.95555 0.286018 0
M  V30 8 C 1.32679 -1.23713 -0.331188 0
M  V30 9 C 1.77173 -0.104126 -0.96323 0
M  V30 10 C 3.07263 0.379084 -0.870317 0
M  V30 11 C 4.01781 -0.265927 -0.119277 0
M  V30 12 C 3.61534 -1.4019 0.528935 0
M  V30 13 C 2.33134 -1.87313 0.433211 0
M  V30 14 C 5.39956 0.270334 -0.0363526 0
M  V30 15 S 5.60207 1.40625 1.30212 0
M  V30 16 O 7.03412 1.87098 1.28336 0
M  V30 17 O 5.40992 0.701838 2.63359 0
M  V30 18 N 4.58583 2.76523 1.20117 0
M  V30 19 C -1.48353 -0.303044 -1.73569 0
M  V30 20 C -1.89796 0.957537 -1.13304 0
M  V30 21 C -2.83343 1.79383 -1.77896 0
M  V30 22 C -3.22759 2.98414 -1.24557 0
M  V30 23 C -2.74264 3.44093 -0.0548157 0
M  V30 24 C -1.82675 2.66057 0.614794 0
M  V30 25 C -1.43758 1.45575 0.0599441 0
M  V30 26 H -5.54905 -2.40156 1.7162 0
M  V30 27 H -4.1883 -2.15403 2.67173 0
M  V30 28 H -3.59836 -0.364763 1.05367 0
M  V30 29 H -4.82983 -1.10843 0.0125387 0
M  V30 30 H -2.55818 -2.66104 1.37144 0
M  V30 31 H -3.82429 -3.36055 0.393684 0
M  V30 32 H -2.94881 -2.38149 -1.69746 0
M  V30 33 H -1.83428 -3.45325 -0.871218 0
M  V30 34 H 1.07973 0.459152 -1.5695 0
M  V30 35 H 3.33749 1.28852 -1.40796 0
M  V30 36 H 4.34426 -1.9289 1.12859 0
M  V30 37 H 2.03664 -2.77818 0.959693 0
M  V30 38 H 6.15495 -0.519234 0.0712819 0
M  V30 39 H 5.61176 0.811169 -0.973062 0
M  V30 40 H 4.18302 2.86074 0.258331 0
M  V30 41 H 5.024 3.65065 1.53463 0
M  V30 42 H -2.44882 -0.602113 -2.35518 0
M  V30 43 H -0.747928 -0.14516 -2.58592 0
M  V30 44 H -3.22684 1.44985 -2.71938 0
M  V30 45 H -3.96072 3.57936 -1.80965 0
M  V30 46 H -3.04436 4.38764 0.387479 0
M  V30 47 H -1.42873 3.01326 1.57078 0
M  V30 48 H -0.725379 0.896079 0.637464 0
M  V30 END ATOM
M  V30 BEGIN BOND
M  V30 1 1 1 2
M  V30 2 1 2 3
M  V30 3 1 3 4
M  V30 4 1 4 5
M  V30 5 1 5 6
M  V30 6 2 6 7
M  V30 7 1 6 8
M  V30 8 2 8 9
M  V30 9 1 9 10
M  V30 10 2 10 11
M  V30 11 1 11 12
M  V30 12 2 12 13
M  V30 13 1 11 14
M  V30 14 1 14 15
M  V30 15 2 15 16
M  V30 16 2 15 17
M  V30 17 1 15 18
M  V30 18 1 5 19
M  V30 19 1 19 20
M  V30 20 2 20 21
M  V30 21 1 21 22
M  V30 22 2 22 23
M  V30 23 1 23 24
M  V30 24 2 24 25
M  V30 25 1 13 8
M  V30 26 1 25 20
M  V30 27 1 1 26
M  V30 28 1 1 27
M  V30 29 1 2 28
M  V30 30 1 2 29
M  V30 31 1 3 30
M  V30 32 1 3 31
M  V30 33 1 4 32
M  V30 34 1 4 33
M  V30 35 1 9 34
M  V30 36 1 10 35
M  V30 37 1 12 36
M  V30 38 1 13 37
M  V30 39 1 14 38
M  V30 40 1 14 39
M  V30 41 1 18 40
M  V30 42 1 18 41
M  V30 43 1 19 42
M  V30 44 1 19 43
M  V30 45 1 21 44
M  V30 46 1 22 45
M  V30 47 1 23 46
M  V30 48 1 24 47
M  V30 49 1 25 48
M  V30 END BOND
M  V30 END CTAB
M  END
