
     RDKit          3D

  0  0  0  0  0  0  0  0  0  0999 V3000
M  V30 BEGIN CTAB
M  V30 COUNTS 34 35 0 0 0
M  V30 BEGIN ATOM
M  V30 1 N -0.397239 1.67648 0.243973 0
M  V30 2 C -0.436946 0.298843 0.471693 0 CFG=2
M  V30 3 C 0.507681 -0.417672 -0.432083 0 CFG=1
M  V30 4 N 0.131749 -0.105857 -1.80725 0
M  V30 5 C 1.93775 -0.150748 -0.207267 0
M  V30 6 C 2.84207 -0.605645 -1.14416 0
M  V30 7 O 2.40809 -1.29571 -2.29236 0
M  V30 8 C 4.1902 -0.388577 -0.966501 0
M  V30 9 C 4.67611 0.285634 0.145417 0
M  V30 10 C 3.78152 0.742765 1.08473 0
M  V30 11 C 2.41351 0.513302 0.889155 0
M  V30 12 C -1.81859 -0.173315 0.473085 0
M  V30 13 C -2.76021 0.642162 1.08551 0
M  V30 14 O -2.41419 1.86108 1.65627 0
M  V30 15 C -4.08533 0.261202 1.14662 0
M  V30 16 C -4.53129 -0.944411 0.602984 0
M  V30 17 C -3.60396 -1.74424 0.00238381 0
M  V30 18 C -2.28133 -1.35474 -0.0540769 0
M  V30 19 H -1.08235 1.9991 -0.405787 0
M  V30 20 H 0.328821 2.25875 0.461796 0
M  V30 21 H -0.0812044 0.194675 1.56223 0
M  V30 22 H 0.423105 -1.55267 -0.285527 0
M  V30 23 H -0.0378577 0.937896 -1.80343 0
M  V30 24 H -0.74152 -0.525183 -2.11471 0
M  V30 25 H 3.07215 -1.61917 -2.95888 0
M  V30 26 H 4.86389 -0.764532 -1.73108 0
M  V30 27 H 5.75426 0.443094 0.260316 0
M  V30 28 H 4.16163 1.26752 1.95058 0
M  V30 29 H 1.79429 0.900814 1.68113 0
M  V30 30 H -3.08201 2.46206 2.10049 0
M  V30 31 H -4.86106 0.873693 1.61764 0
M  V30 32 H -5.56546 -1.2583 0.640777 0
M  V30 33 H -3.90948 -2.6995 -0.43759 0
M  V30 34 H -1.5968 -2.0188 -0.524722 0
M  V30 END ATOM
M  V30 BEGIN BOND
M  V30 1 1 1 2
M  V30 2 1 2 3
M  V30 3 1 3 4
M  V30 4 1 3 5
M  V30 5 2 5 6
M  V30 6 1 6 7
M  V30 7 1 6 8
M  V30 8 2 8 9
M  V30 9 1 9 10
M  V30 10 2 10 11
M  V30 11 1 2 12
M  V30 12 2 12 13
M  V30 13 1 13 14
M  V30 14 1 13 15
M  V30 15 2 15 16
M  V30 16 1 16 17
M  V30 17 2 17 18
M  V30 18 1 11 5
M  V30 19 1 18 12
M  V30 20 1 1 19
M  V30 21 1 1 20
M  V30 22 1 2 21 CFG=1
M  V30 23 1 3 22 CFG=3
M  V30 24 1 4 23
M  V30 25 1 4 24
M  V30 26 1 7 25
M  V30 27 1 8 26
M  V30 28 1 9 27
M  V30 29 1 10 28
M  V30 30 1 11 29
M  V30 31 1 14 30
M  V30 32 1 15 31
M  V30 33 1 16 32
M  V30 34 1 17 33
M  V30 35 1 18 34
M  V30 END BOND
M  V30 END CTAB
M  END
