
     RDKit          3D

  0  0  0  0  0  0  0  0  0  0999 V3000
M  V30 BEGIN CTAB
M  V30 COUNTS 39 42 0 0 0
M  V30 BEGIN ATOM
M  V30 1 N -7.84323 0.908681 -1.69913 0
M  V30 2 C -6.77997 0.542323 -0.838824 0
M  V30 3 N -5.4895 0.627929 -1.16697 0
M  V30 4 C -4.51272 0.258553 -0.291698 0
M  V30 5 C -3.10416 0.383513 -0.731457 0
M  V30 6 O -2.26038 -0.0465303 0.312302 0
M  V30 7 C -0.88028 -0.0576987 0.227327 0
M  V30 8 C -0.192752 -0.509491 1.3403 0
M  V30 9 C 1.20649 -0.554028 1.34014 0
M  V30 10 C 1.89249 -0.142831 0.218917 0
M  V30 11 C 1.20003 0.294677 -0.856671 0
M  V30 12 C -0.1942 0.354422 -0.896294 0
M  V30 13 C 3.36025 -0.183247 0.202442 0
M  V30 14 N 4.22207 0.14555 -0.72001 0
M  V30 15 C 5.50244 0.026543 -0.517546 0
M  V30 16 C 5.90594 -0.456193 0.69906 0
M  V30 17 S 4.40342 -0.709201 1.47816 0
M  V30 18 C 7.25721 -0.626253 1.02786 0
M  V30 19 C 8.26798 -0.306733 0.117128 0
M  V30 20 C 7.8136 0.174719 -1.09196 0
M  V30 21 C 6.51866 0.350395 -1.43994 0
M  V30 22 N -4.86365 -0.199633 0.923087 0
M  V30 23 C -6.14929 -0.293449 1.27208 0
M  V30 24 N -7.0952 0.0790406 0.386202 0
M  V30 25 N -6.46905 -0.781171 2.56073 0
M  V30 26 H -7.83778 1.87869 -2.1121 0
M  V30 27 H -8.58405 0.231426 -1.89807 0
M  V30 28 H -2.83726 1.43459 -0.951363 0
M  V30 29 H -2.9925 -0.223246 -1.65049 0
M  V30 30 H -0.715431 -0.839205 2.23709 0
M  V30 31 H 1.76702 -0.903965 2.19988 0
M  V30 32 H 1.73286 0.620399 -1.74394 0
M  V30 33 H -0.73404 0.706991 -1.76456 0
M  V30 34 H 7.46219 -1.01011 2.00482 0
M  V30 35 H 9.29267 -0.431306 0.355097 0
M  V30 36 H 8.59909 0.43121 -1.8209 0
M  V30 37 H 6.29764 0.737847 -2.4249 0
M  V30 38 H -6.96726 -0.155244 3.23286 0
M  V30 39 H -6.19936 -1.75797 2.81179 0
M  V30 END ATOM
M  V30 BEGIN BOND
M  V30 1 1 1 2
M  V30 2 2 2 3
M  V30 3 1 3 4
M  V30 4 1 4 5
M  V30 5 1 5 6
M  V30 6 1 6 7
M  V30 7 2 7 8
M  V30 8 1 8 9
M  V30 9 2 9 10
M  V30 10 1 10 11
M  V30 11 2 11 12
M  V30 12 1 10 13
M  V30 13 2 13 14
M  V30 14 1 14 15
M  V30 15 2 15 16
M  V30 16 1 16 17
M  V30 17 1 16 18
M  V30 18 2 18 19
M  V30 19 1 19 20
M  V30 20 2 20 21
M  V30 21 2 4 22
M  V30 22 1 22 23
M  V30 23 2 23 24
M  V30 24 1 23 25
M  V30 25 1 24 2
M  V30 26 1 12 7
M  V30 27 1 17 13
M  V30 28 1 21 15
M  V30 29 1 1 26
M  V30 30 1 1 27
M  V30 31 1 5 28
M  V30 32 1 5 29
M  V30 33 1 8 30
M  V30 34 1 9 31
M  V30 35 1 11 32
M  V30 36 1 12 33
M  V30 37 1 18 34
M  V30 38 1 19 35
M  V30 39 1 20 36
M  V30 40 1 21 37
M  V30 41 1 25 38
M  V30 42 1 25 39
M  V30 END BOND
M  V30 END CTAB
M  END
