
     RDKit          3D

  0  0  0  0  0  0  0  0  0  0999 V3000
M  V30 BEGIN CTAB
M  V30 COUNTS 25 25 0 0 0
M  V30 BEGIN ATOM
M  V30 1 Br -4.14832 -1.11627 1.24838 0
M  V30 2 C -3.57528 -0.455099 -0.493616 0
M  V30 3 C -2.23407 -1.02103 -0.752126 0
M  V30 4 O -2.18248 -2.11035 -1.3851 0
M  V30 5 C -1.05893 -0.320787 -0.280508 0
M  V30 6 C -1.17603 0.865824 0.415608 0
M  V30 7 C -0.041049 1.51695 0.859243 0
M  V30 8 N -0.10831 2.73098 1.57399 0
M  V30 9 C 1.22034 0.959633 0.594422 0
M  V30 10 C 1.35073 -0.217893 -0.0955373 0
M  V30 11 C 0.179672 -0.864282 -0.53828 0
M  V30 12 N 0.238329 -2.08599 -1.25807 0
M  V30 13 O 2.56252 -0.786572 -0.369585 0
M  V30 14 C 3.81213 -0.312514 -0.0246821 0
M  V30 15 F 4.60086 -0.031789 -1.15375 0
M  V30 16 F 4.50131 -1.28306 0.706645 0
M  V30 17 H -4.31646 -0.797483 -1.27093 0
M  V30 18 H -3.62047 0.64956 -0.552146 0
M  V30 19 H -2.14632 1.32528 0.639555 0
M  V30 20 H -0.194278 3.62664 1.06913 0
M  V30 21 H -0.0718213 2.72881 2.60536 0
M  V30 22 H 2.0997 1.49936 0.959008 0
M  V30 23 H 0.15635 -2.98787 -0.73981 0
M  V30 24 H 0.360281 -2.14566 -2.29106 0
M  V30 25 H 3.79161 0.633611 0.53386 0
M  V30 END ATOM
M  V30 BEGIN BOND
M  V30 1 1 1 2
M  V30 2 1 2 3
M  V30 3 2 3 4
M  V30 4 1 3 5
M  V30 5 2 5 6
M  V30 6 1 6 7
M  V30 7 1 7 8
M  V30 8 2 7 9
M  V30 9 1 9 10
M  V30 10 2 10 11
M  V30 11 1 11 12
M  V30 12 1 10 13
M  V30 13 1 13 14
M  V30 14 1 14 15
M  V30 15 1 14 16
M  V30 16 1 11 5
M  V30 17 1 2 17
M  V30 18 1 2 18
M  V30 19 1 6 19
M  V30 20 1 8 20
M  V30 21 1 8 21
M  V30 22 1 9 22
M  V30 23 1 12 23
M  V30 24 1 12 24
M  V30 25 1 14 25
M  V30 END BOND
M  V30 END CTAB
M  END
