
     RDKit          3D

  0  0  0  0  0  0  0  0  0  0999 V3000
M  V30 BEGIN CTAB
M  V30 COUNTS 35 36 0 0 0
M  V30 BEGIN ATOM
M  V30 1 N 2.0163 -0.311523 -2.38275 0
M  V30 2 C 2.22141 -0.591845 -0.998233 0
M  V30 3 C 3.39179 -1.30432 -0.658254 0
M  V30 4 C 3.64983 -1.52715 0.70002 0
M  V30 5 C 2.79884 -1.0741 1.66759 0
M  V30 6 C 1.6539 -0.37589 1.26385 0
M  V30 7 C 1.34183 -0.120868 -0.0462276 0
M  V30 8 C 0.110792 0.604316 -0.394061 0 CFG=2
M  V30 9 C -0.00349894 1.63814 0.76394 0
M  V30 10 O -1.06972 1.42061 1.61085 0
M  V30 11 C -2.13792 2.26227 1.19814 0
M  V30 12 C -2.39067 1.95232 -0.275677 0
M  V30 13 C -2.32448 0.469243 -0.380322 0
M  V30 14 N -1.02517 -0.0990232 -0.608427 0
M  V30 15 S -1.19194 -1.72735 -0.792818 0
M  V30 16 O -2.19691 -1.98095 -1.96557 0
M  V30 17 O -0.0262141 -2.59491 -1.04246 0
M  V30 18 N -2.02437 -2.46812 0.564415 0
M  V30 19 H 1.99107 -1.11804 -3.05616 0
M  V30 20 H 1.88445 0.64737 -2.69325 0
M  V30 21 H 4.08338 -1.67224 -1.40227 0
M  V30 22 H 4.57581 -2.10018 0.911202 0
M  V30 23 H 2.99307 -1.22979 2.69238 0
M  V30 24 H 0.966674 -0.056456 2.05905 0
M  V30 25 H 0.349699 1.26772 -1.3047 0
M  V30 26 H 0.908127 1.729 1.35585 0
M  V30 27 H -0.0924214 2.68721 0.294827 0
M  V30 28 H -3.01241 1.95081 1.76141 0
M  V30 29 H -1.83931 3.2924 1.35381 0
M  V30 30 H -1.66199 2.37628 -0.957248 0
M  V30 31 H -3.37969 2.31431 -0.526618 0
M  V30 32 H -2.77795 0.0240974 0.556813 0
M  V30 33 H -3.06744 0.159318 -1.17583 0
M  V30 34 H -1.68269 -2.09796 1.47002 0
M  V30 35 H -3.03217 -2.34469 0.436702 0
M  V30 END ATOM
M  V30 BEGIN BOND
M  V30 1 1 1 2
M  V30 2 2 2 3
M  V30 3 1 3 4
M  V30 4 2 4 5
M  V30 5 1 5 6
M  V30 6 2 6 7
M  V30 7 1 7 8
M  V30 8 1 8 9
M  V30 9 1 9 10
M  V30 10 1 10 11
M  V30 11 1 11 12
M  V30 12 1 12 13
M  V30 13 1 13 14
M  V30 14 1 14 15
M  V30 15 2 15 16
M  V30 16 2 15 17
M  V30 17 1 15 18
M  V30 18 1 7 2
M  V30 19 1 14 8
M  V30 20 1 1 19
M  V30 21 1 1 20
M  V30 22 1 3 21
M  V30 23 1 4 22
M  V30 24 1 5 23
M  V30 25 1 6 24
M  V30 26 1 8 25 CFG=3
M  V30 27 1 9 26
M  V30 28 1 9 27
M  V30 29 1 11 28
M  V30 30 1 11 29
M  V30 31 1 12 30
M  V30 32 1 12 31
M  V30 33 1 13 32
M  V30 34 1 13 33
M  V30 35 1 18 34
M  V30 36 1 18 35
M  V30 END BOND
M  V30 END CTAB
M  END
