
     RDKit          3D

  0  0  0  0  0  0  0  0  0  0999 V3000
M  V30 BEGIN CTAB
M  V30 COUNTS 36 36 0 0 0
M  V30 BEGIN ATOM
M  V30 1 C 5.12711 1.60622 -1.35557 0
M  V30 2 N 5.15514 0.345154 -0.660971 0
M  V30 3 C 4.02275 -0.093062 0.0713007 0
M  V30 4 N 2.99359 -0.782073 -0.593283 0
M  V30 5 C 1.98577 -1.51619 0.131631 0
M  V30 6 C 1.05593 -0.632422 0.89023 0
M  V30 7 S 0.166087 0.526637 -0.178884 0
M  V30 8 C -0.967538 -0.347135 -1.29595 0
M  V30 9 C -2.05746 -1.00864 -0.478023 0
M  V30 10 C -1.89438 -2.29432 -0.0225754 0
M  V30 11 S -3.37575 -2.54125 0.819291 0
M  V30 12 C -4.08084 -1.01149 0.532159 0
M  V30 13 N -5.34329 -0.495887 0.946347 0
M  V30 14 C -5.69139 0.68416 0.625362 0
M  V30 15 N -6.97116 1.11795 1.08308 0
M  V30 16 N -4.90559 1.5694 -0.139237 0
M  V30 17 N -3.16367 -0.405097 -0.178658 0
M  V30 18 N 3.98943 0.160036 1.32568 0
M  V30 19 C 5.02407 0.843732 1.96846 0
M  V30 20 N 5.86575 1.40643 2.5142 0
M  V30 21 H 4.29769 1.62234 -2.0898 0
M  V30 22 H 6.07939 1.83653 -1.86522 0
M  V30 23 H 4.92424 2.39645 -0.616147 0
M  V30 24 H 6.00892 -0.243895 -0.697892 0
M  V30 25 H 2.92844 -0.779802 -1.64641 0
M  V30 26 H 2.55534 -2.18609 0.83943 0
M  V30 27 H 1.46896 -2.18185 -0.590021 0
M  V30 28 H 0.269395 -1.30969 1.35447 0
M  V30 29 H 1.50396 -0.103244 1.72523 0
M  V30 30 H -1.38557 0.409497 -1.98293 0
M  V30 31 H -0.443547 -1.09846 -1.91062 0
M  V30 32 H -1.02834 -2.96109 -0.176956 0
M  V30 33 H -7.70127 1.52762 0.483471 0
M  V30 34 H -7.16062 1.00229 2.10555 0
M  V30 35 H -5.21186 1.79644 -1.11871 0
M  V30 36 H -4.0397 2.02364 0.18198 0
M  V30 END ATOM
M  V30 BEGIN BOND
M  V30 1 1 1 2
M  V30 2 1 2 3
M  V30 3 1 3 4
M  V30 4 1 4 5
M  V30 5 1 5 6
M  V30 6 1 6 7
M  V30 7 1 7 8
M  V30 8 1 8 9
M  V30 9 2 9 10
M  V30 10 1 10 11
M  V30 11 1 11 12
M  V30 12 1 12 13
M  V30 13 2 13 14
M  V30 14 1 14 15
M  V30 15 1 14 16
M  V30 16 2 12 17
M  V30 17 2 3 18
M  V30 18 1 18 19
M  V30 19 3 19 20
M  V30 20 1 17 9
M  V30 21 1 1 21
M  V30 22 1 1 22
M  V30 23 1 1 23
M  V30 24 1 2 24
M  V30 25 1 4 25
M  V30 26 1 5 26
M  V30 27 1 5 27
M  V30 28 1 6 28
M  V30 29 1 6 29
M  V30 30 1 8 30
M  V30 31 1 8 31
M  V30 32 1 10 32
M  V30 33 1 15 33
M  V30 34 1 15 34
M  V30 35 1 16 35
M  V30 36 1 16 36
M  V30 END BOND
M  V30 END CTAB
M  END
