
     RDKit          3D

  0  0  0  0  0  0  0  0  0  0999 V3000
M  V30 BEGIN CTAB
M  V30 COUNTS 21 22 0 0 0
M  V30 BEGIN ATOM
M  V30 1 C -3.60913 -0.358384 -0.165398 0
M  V30 2 C -2.12803 -0.571719 -0.153933 0
M  V30 3 N -1.2641 0.445664 0.0210585 0
M  V30 4 C 0.071221 0.270651 0.0339624 0
M  V30 5 C 0.59925 -1.01294 -0.139925 0
M  V30 6 N -0.26143 -2.03038 -0.314829 0
M  V30 7 C -1.60151 -1.82981 -0.324106 0
M  V30 8 N 1.92181 -1.13021 -0.118893 0
M  V30 9 C 2.77501 -0.113283 0.0557059 0
M  V30 10 N 4.16963 -0.362015 0.0594312 0
M  V30 11 N 2.29234 1.1268 0.224494 0
M  V30 12 C 0.965267 1.30937 0.212954 0
M  V30 13 N 0.424772 2.60484 0.388227 0
M  V30 14 H -3.97179 -0.481108 0.893045 0
M  V30 15 H -4.13418 -1.10344 -0.759063 0
M  V30 16 H -3.84589 0.675119 -0.470814 0
M  V30 17 H -2.30874 -2.63812 -0.463752 0
M  V30 18 H 4.83607 0.104421 0.734413 0
M  V30 19 H 4.60223 -1.02833 -0.617068 0
M  V30 20 H 0.0494371 2.86152 1.31561 0
M  V30 21 H 0.417757 3.26136 -0.411124 0
M  V30 END ATOM
M  V30 BEGIN BOND
M  V30 1 1 1 2
M  V30 2 2 2 3
M  V30 3 1 3 4
M  V30 4 2 4 5
M  V30 5 1 5 6
M  V30 6 2 6 7
M  V30 7 1 5 8
M  V30 8 2 8 9
M  V30 9 1 9 10
M  V30 10 1 9 11
M  V30 11 2 11 12
M  V30 12 1 12 13
M  V30 13 1 7 2
M  V30 14 1 12 4
M  V30 15 1 1 14
M  V30 16 1 1 15
M  V30 17 1 1 16
M  V30 18 1 7 17
M  V30 19 1 10 18
M  V30 20 1 10 19
M  V30 21 1 13 20
M  V30 22 1 13 21
M  V30 END BOND
M  V30 END CTAB
M  END
