
     RDKit          3D

  0  0  0  0  0  0  0  0  0  0999 V3000
M  V30 BEGIN CTAB
M  V30 COUNTS 31 32 0 0 0
M  V30 BEGIN ATOM
M  V30 1 N -1.06042 -3.03161 2.43418 0
M  V30 2 C -1.30294 -2.27728 1.58531 0
M  V30 3 C -1.59464 -1.305 0.527154 0
M  V30 4 C -2.32517 -1.77704 -0.462783 0
M  V30 5 N -2.77541 -3.11301 -0.477359 0
M  V30 6 S -2.74901 -0.663083 -1.81321 0
M  V30 7 C -2.57132 0.96363 -1.09462 0
M  V30 8 C -1.81183 1.1247 -0.0301829 0
M  V30 9 C -1.06555 0.0575308 0.65251 0
M  V30 10 C 0.409704 0.141929 0.437203 0
M  V30 11 C 1.2818 0.464455 1.46674 0
M  V30 12 C 2.62723 0.552256 1.31655 0
M  V30 13 C 3.20347 0.315703 0.0891029 0
M  V30 14 C 2.36589 -0.00747503 -0.956604 0
M  V30 15 C 0.985671 -0.0951322 -0.7923 0
M  V30 16 C 4.68402 0.409704 -0.0872354 0
M  V30 17 C -1.74088 2.50648 0.478154 0
M  V30 18 N -1.67242 3.58417 0.892208 0
M  V30 19 N -3.2654 2.07345 -1.69594 0
M  V30 20 H -2.3191 -3.89304 0.037961 0
M  V30 21 H -3.62721 -3.38133 -1.03483 0
M  V30 22 H -1.18635 0.307379 1.76651 0
M  V30 23 H 0.874355 0.66151 2.46104 0
M  V30 24 H 3.2775 0.805171 2.13695 0
M  V30 25 H 2.78646 -0.199812 -1.93601 0
M  V30 26 H 0.397756 -0.354239 -1.66301 0
M  V30 27 H 5.19034 -0.0278169 0.797439 0
M  V30 28 H 4.95606 -0.228039 -0.95043 0
M  V30 29 H 4.9975 1.44886 -0.302302 0
M  V30 30 H -2.85758 3.00765 -1.51822 0
M  V30 31 H -4.11253 1.92932 -2.26398 0
M  V30 END ATOM
M  V30 BEGIN BOND
M  V30 1 3 1 2
M  V30 2 1 2 3
M  V30 3 2 3 4
M  V30 4 1 4 5
M  V30 5 1 4 6
M  V30 6 1 6 7
M  V30 7 2 7 8
M  V30 8 1 8 9
M  V30 9 1 9 10
M  V30 10 2 10 11
M  V30 11 1 11 12
M  V30 12 2 12 13
M  V30 13 1 13 14
M  V30 14 2 14 15
M  V30 15 1 13 16
M  V30 16 1 8 17
M  V30 17 3 17 18
M  V30 18 1 7 19
M  V30 19 1 9 3
M  V30 20 1 15 10
M  V30 21 1 5 20
M  V30 22 1 5 21
M  V30 23 1 9 22
M  V30 24 1 11 23
M  V30 25 1 12 24
M  V30 26 1 14 25
M  V30 27 1 15 26
M  V30 28 1 16 27
M  V30 29 1 16 28
M  V30 30 1 16 29
M  V30 31 1 19 30
M  V30 32 1 19 31
M  V30 END BOND
M  V30 END CTAB
M  END
