
     RDKit          3D

  0  0  0  0  0  0  0  0  0  0999 V3000
M  V30 BEGIN CTAB
M  V30 COUNTS 32 34 0 0 0
M  V30 BEGIN ATOM
M  V30 1 N 5.30203 1.75583 -0.431577 0
M  V30 2 C 4.20026 0.888498 -0.562389 0
M  V30 3 C 3.41471 0.818449 -1.69498 0
M  V30 4 C 2.33888 -0.036727 -1.80708 0
M  V30 5 C 2.02147 -0.862332 -0.753557 0
M  V30 6 C 2.81485 -0.790079 0.387472 0
M  V30 7 C 3.87867 0.0564332 0.496638 0
M  V30 8 C 0.908233 -1.81306 -0.744655 0
M  V30 9 C -0.352419 -1.24944 -0.238927 0
M  V30 10 N -0.800127 -1.22619 1.00837 0
M  V30 11 C -1.99957 -0.625734 1.10216 0
M  V30 12 C -2.3184 -0.245591 -0.203785 0
M  V30 13 N -1.29075 -0.643504 -0.987469 0
M  V30 14 C -3.5169 0.402095 -0.397993 0
M  V30 15 C -4.39855 0.684685 0.629112 0
M  V30 16 C -4.0753 0.305966 1.91275 0
M  V30 17 C -2.88134 -0.341493 2.11966 0
M  V30 18 N -5.62206 1.35919 0.35059 0
M  V30 19 H 6.26691 1.39655 -0.619243 0
M  V30 20 H 5.17968 2.74536 -0.152792 0
M  V30 21 H 3.6845 1.4847 -2.52315 0
M  V30 22 H 1.72779 -0.0940267 -2.68282 0
M  V30 23 H 2.59088 -1.42918 1.23803 0
M  V30 24 H 4.48886 0.104971 1.38752 0
M  V30 25 H 0.793161 -2.18771 -1.80417 0
M  V30 26 H 1.23621 -2.71257 -0.171179 0
M  V30 27 H -0.276891 -1.62955 1.82089 0
M  V30 28 H -3.77157 0.699737 -1.40492 0
M  V30 29 H -4.78673 0.543077 2.68668 0
M  V30 30 H -2.6239 -0.63991 3.12265 0
M  V30 31 H -6.49508 0.879954 0.0828564 0
M  V30 32 H -5.63749 2.4016 0.421347 0
M  V30 END ATOM
M  V30 BEGIN BOND
M  V30 1 1 1 2
M  V30 2 2 2 3
M  V30 3 1 3 4
M  V30 4 2 4 5
M  V30 5 1 5 6
M  V30 6 2 6 7
M  V30 7 1 5 8
M  V30 8 1 8 9
M  V30 9 1 9 10
M  V30 10 1 10 11
M  V30 11 2 11 12
M  V30 12 1 12 13
M  V30 13 1 12 14
M  V30 14 2 14 15
M  V30 15 1 15 16
M  V30 16 2 16 17
M  V30 17 1 15 18
M  V30 18 1 7 2
M  V30 19 2 13 9
M  V30 20 1 17 11
M  V30 21 1 1 19
M  V30 22 1 1 20
M  V30 23 1 3 21
M  V30 24 1 4 22
M  V30 25 1 6 23
M  V30 26 1 7 24
M  V30 27 1 8 25
M  V30 28 1 8 26
M  V30 29 1 10 27
M  V30 30 1 14 28
M  V30 31 1 16 29
M  V30 32 1 17 30
M  V30 33 1 18 31
M  V30 34 1 18 32
M  V30 END BOND
M  V30 END CTAB
M  END
