
     RDKit          3D

  0  0  0  0  0  0  0  0  0  0999 V3000
M  V30 BEGIN CTAB
M  V30 COUNTS 38 41 0 0 0
M  V30 BEGIN ATOM
M  V30 1 C 2.4722 -3.6789 -0.303674 0
M  V30 2 C 2.45368 -2.20637 -0.26402 0
M  V30 3 N 3.56886 -1.57524 -0.185339 0
M  V30 4 C 3.60138 -0.157958 -0.144381 0
M  V30 5 C 2.46354 0.613394 -0.1858 0
M  V30 6 N 1.20567 -0.0705148 -0.274199 0
M  V30 7 C 1.1619 -1.48045 -0.314962 0
M  V30 8 C 0.0412756 -2.15874 -0.415693 0
M  V30 9 C -1.26197 -1.53138 -0.467307 0
M  V30 10 N -1.73167 -0.573479 0.312087 0
M  V30 11 C -2.97166 -0.0662468 0.164479 0
M  V30 12 C -3.81942 -0.542441 -0.834126 0
M  V30 13 N -3.37393 -1.50773 -1.63516 0
M  V30 14 C -2.13068 -1.99905 -1.46836 0
M  V30 15 C -5.08316 -0.0120221 -0.969737 0
M  V30 16 O -5.85779 -0.451933 -1.88752 0
M  V30 17 N -5.47801 0.959771 -0.132419 0
M  V30 18 C -4.66463 1.43794 0.848971 0
M  V30 19 N -5.11296 2.47257 1.72522 0
M  V30 20 N -3.43578 0.909156 0.96646 0
M  V30 21 N 2.48777 1.95391 -0.147977 0
M  V30 22 C 3.67283 2.60956 -0.0650387 0
M  V30 23 N 3.73227 4.01437 -0.0234068 0
M  V30 24 N 4.78583 1.88088 -0.0238393 0
M  V30 25 C 4.81214 0.536938 -0.0590372 0
M  V30 26 O 5.87444 -0.0978638 -0.0179687 0
M  V30 27 H 2.1513 -4.13725 0.678434 0
M  V30 28 H 3.50511 -4.0436 -0.478805 0
M  V30 29 H 1.87524 -4.09226 -1.15239 0
M  V30 30 H 0.317114 0.480787 -0.320582 0
M  V30 31 H 0.155483 -3.25336 -0.459314 0
M  V30 32 H -1.74272 -2.78438 -2.10553 0
M  V30 33 H -6.43186 1.37059 -0.224553 0
M  V30 34 H -6.08867 2.51726 2.01481 0
M  V30 35 H -4.41741 3.16388 2.04908 0
M  V30 36 H 4.49421 4.5025 -0.54224 0
M  V30 37 H 3.05324 4.60164 0.500865 0
M  V30 38 H 5.71685 2.39598 0.0414459 0
M  V30 END ATOM
M  V30 BEGIN BOND
M  V30 1 1 1 2
M  V30 2 2 2 3
M  V30 3 1 3 4
M  V30 4 2 4 5
M  V30 5 1 5 6
M  V30 6 1 6 7
M  V30 7 2 7 8
M  V30 8 1 8 9
M  V30 9 2 9 10
M  V30 10 1 10 11
M  V30 11 2 11 12
M  V30 12 1 12 13
M  V30 13 2 13 14
M  V30 14 1 12 15
M  V30 15 2 15 16
M  V30 16 1 15 17
M  V30 17 1 17 18
M  V30 18 1 18 19
M  V30 19 2 18 20
M  V30 20 1 5 21
M  V30 21 2 21 22
M  V30 22 1 22 23
M  V30 23 1 22 24
M  V30 24 1 24 25
M  V30 25 2 25 26
M  V30 26 1 7 2
M  V30 27 1 14 9
M  V30 28 1 25 4
M  V30 29 1 20 11
M  V30 30 1 1 27
M  V30 31 1 1 28
M  V30 32 1 1 29
M  V30 33 1 6 30
M  V30 34 1 8 31
M  V30 35 1 14 32
M  V30 36 1 17 33
M  V30 37 1 19 34
M  V30 38 1 19 35
M  V30 39 1 23 36
M  V30 40 1 23 37
M  V30 41 1 24 38
M  V30 END BOND
M  V30 END CTAB
M  END
