
     RDKit          3D

  0  0  0  0  0  0  0  0  0  0999 V3000
M  V30 BEGIN CTAB
M  V30 COUNTS 22 22 0 0 0
M  V30 BEGIN ATOM
M  V30 1 N 4.2791 0.692614 -0.305418 0
M  V30 2 C 3.19816 -0.189492 -0.0659753 0
M  V30 3 S 3.53135 -1.73972 0.274922 0
M  V30 4 N 1.86455 0.274733 -0.123907 0
M  V30 5 C 0.74407 -0.551889 0.104326 0
M  V30 6 O 0.972246 -1.75006 0.368849 0
M  V30 7 C -0.598261 -0.00748455 0.02847 0
M  V30 8 C -0.861463 1.31927 -0.264035 0
M  V30 9 C -2.17461 1.77601 -0.320977 0
M  V30 10 C -3.22395 0.922724 -0.0892393 0
M  V30 11 C -2.92437 -0.390966 0.198991 0
M  V30 12 C -1.65025 -0.891498 0.267294 0
M  V30 13 N -1.33015 -2.23228 0.560949 0
M  V30 14 H 4.2986 1.24863 -1.18311 0
M  V30 15 H 5.05511 0.805221 0.364637 0
M  V30 16 H 1.7238 1.28 -0.347669 0
M  V30 17 H -0.073886 2.02318 -0.452408 0
M  V30 18 H -2.40946 2.81845 -0.549794 0
M  V30 19 H -4.26026 1.22568 -0.121093 0
M  V30 20 H -3.73721 -1.09192 0.387594 0
M  V30 21 H -1.36981 -2.92328 -0.216482 0
M  V30 22 H -1.05331 -2.61793 1.48407 0
M  V30 END ATOM
M  V30 BEGIN BOND
M  V30 1 1 1 2
M  V30 2 2 2 3
M  V30 3 1 2 4
M  V30 4 1 4 5
M  V30 5 2 5 6
M  V30 6 1 5 7
M  V30 7 2 7 8
M  V30 8 1 8 9
M  V30 9 2 9 10
M  V30 10 1 10 11
M  V30 11 2 11 12
M  V30 12 1 12 13
M  V30 13 1 12 7
M  V30 14 1 1 14
M  V30 15 1 1 15
M  V30 16 1 4 16
M  V30 17 1 8 17
M  V30 18 1 9 18
M  V30 19 1 10 19
M  V30 20 1 11 20
M  V30 21 1 13 21
M  V30 22 1 13 22
M  V30 END BOND
M  V30 END CTAB
M  END
