
     RDKit          3D

  0  0  0  0  0  0  0  0  0  0999 V3000
M  V30 BEGIN CTAB
M  V30 COUNTS 30 31 0 0 0
M  V30 BEGIN ATOM
M  V30 1 N -4.40197 0.00799861 3.19668 0
M  V30 2 N -3.23463 0.713957 2.89218 0
M  V30 3 C -2.43081 0.417869 1.76178 0
M  V30 4 C -1.38327 -0.47475 1.83164 0
M  V30 5 C -0.585969 -0.781384 0.741264 0
M  V30 6 O 0.452999 -1.65914 0.791923 0
M  V30 7 C 1.31791 -2.05228 -0.217938 0
M  V30 8 C 2.12373 -0.995551 -0.836237 0
M  V30 9 C 1.87098 -0.446056 -2.08555 0
M  V30 10 C 2.67031 0.549842 -2.60859 0
M  V30 11 C 3.75368 1.04144 -1.91402 0
M  V30 12 C 4.02691 0.51322 -0.671829 0
M  V30 13 C 3.22933 -0.477311 -0.154474 0
M  V30 14 N -0.880018 -0.161626 -0.411559 0
M  V30 15 C -1.89434 0.71459 -0.515655 0
M  V30 16 N -2.64284 0.987338 0.554464 0
M  V30 17 N -2.19127 1.36753 -1.76655 0
M  V30 18 H -4.9653 0.489637 3.93298 0
M  V30 19 H -5.02452 -0.0808913 2.34174 0
M  V30 20 H -2.95232 1.48766 3.52715 0
M  V30 21 H -1.1598 -0.960678 2.75083 0
M  V30 22 H 2.01401 -2.84082 0.134745 0
M  V30 23 H 0.677679 -2.55638 -1.00192 0
M  V30 24 H 1.02482 -0.824237 -2.65224 0
M  V30 25 H 2.43051 0.952844 -3.59669 0
M  V30 26 H 4.38207 1.8318 -2.33724 0
M  V30 27 H 4.89165 0.912259 -0.131718 0
M  V30 28 H 3.43941 -0.897678 0.824127 0
M  V30 29 H -1.73616 2.29571 -1.90559 0
M  V30 30 H -2.82278 0.925096 -2.47371 0
M  V30 END ATOM
M  V30 BEGIN BOND
M  V30 1 1 1 2
M  V30 2 1 2 3
M  V30 3 2 3 4
M  V30 4 1 4 5
M  V30 5 1 5 6
M  V30 6 1 6 7
M  V30 7 1 7 8
M  V30 8 2 8 9
M  V30 9 1 9 10
M  V30 10 2 10 11
M  V30 11 1 11 12
M  V30 12 2 12 13
M  V30 13 2 5 14
M  V30 14 1 14 15
M  V30 15 2 15 16
M  V30 16 1 15 17
M  V30 17 1 16 3
M  V30 18 1 13 8
M  V30 19 1 1 18
M  V30 20 1 1 19
M  V30 21 1 2 20
M  V30 22 1 4 21
M  V30 23 1 7 22
M  V30 24 1 7 23
M  V30 25 1 9 24
M  V30 26 1 10 25
M  V30 27 1 11 26
M  V30 28 1 12 27
M  V30 29 1 13 28
M  V30 30 1 17 29
M  V30 31 1 17 30
M  V30 END BOND
M  V30 END CTAB
M  END
