
     RDKit          3D

  0  0  0  0  0  0  0  0  0  0999 V3000
M  V30 BEGIN CTAB
M  V30 COUNTS 22 21 0 0 0
M  V30 BEGIN ATOM
M  V30 1 N 3.53486 1.75508 1.30198 0
M  V30 2 C 3.08066 0.508505 0.844325 0
M  V30 3 N 3.90804 -0.458318 0.785864 0
M  V30 4 N 1.72168 0.31114 0.448351 0
M  V30 5 C 0.789998 1.33581 0.496563 0
M  V30 6 O 1.28464 2.46789 0.932961 0
M  V30 7 N -0.550486 1.38568 0.173308 0
M  V30 8 C -1.45465 0.443401 -0.313597 0
M  V30 9 O -2.67966 0.875362 -0.502452 0
M  V30 10 N -1.27351 -0.885979 -0.634394 0
M  V30 11 C -2.36949 -1.68338 -1.12948 0
M  V30 12 N -3.66151 -1.14091 -1.30457 0
M  V30 13 N -2.1933 -2.93013 -1.42878 0
M  V30 14 H 3.68707 1.94203 2.32612 0
M  V30 15 H 3.72627 2.51771 0.599231 0
M  V30 16 H 3.64253 -1.42191 0.453611 0
M  V30 17 H 1.46589 -0.651264 0.118841 0
M  V30 18 H -1.01781 2.4038 0.336414 0
M  V30 19 H -0.37061 -1.37053 -0.541074 0
M  V30 20 H -4.39155 -1.35897 -0.585122 0
M  V30 21 H -3.89522 -0.548239 -2.10777 0
M  V30 22 H -2.98384 -3.49677 -1.78354 0
M  V30 END ATOM
M  V30 BEGIN BOND
M  V30 1 1 1 2
M  V30 2 2 2 3 CFG=2
M  V30 3 1 2 4
M  V30 4 1 4 5
M  V30 5 2 5 6
M  V30 6 1 5 7
M  V30 7 1 7 8
M  V30 8 2 8 9
M  V30 9 1 8 10
M  V30 10 1 10 11
M  V30 11 1 11 12
M  V30 12 2 11 13 CFG=2
M  V30 13 1 1 14
M  V30 14 1 1 15
M  V30 15 1 3 16
M  V30 16 1 4 17
M  V30 17 1 7 18
M  V30 18 1 10 19
M  V30 19 1 12 20
M  V30 20 1 12 21
M  V30 21 1 13 22
M  V30 END BOND
M  V30 END CTAB
M  END
