
     RDKit          3D

  0  0  0  0  0  0  0  0  0  0999 V3000
M  V30 BEGIN CTAB
M  V30 COUNTS 54 58 0 0 0
M  V30 BEGIN ATOM
M  V30 1 Cl 6.16685 3.96435 2.64265 0
M  V30 2 C 6.17959 2.46253 1.81106 0
M  V30 3 C 7.31044 1.6962 1.84719 0
M  V30 4 C 7.32576 0.490909 1.18196 0
M  V30 5 C 6.20127 0.04669 0.473983 0
M  V30 6 C 5.06121 0.82086 0.438444 0
M  V30 7 C 5.05876 2.02037 1.10574 0
M  V30 8 N 4.17657 0.137923 -0.304284 0
M  V30 9 C 4.72565 -1.00988 -0.718922 0
M  V30 10 N 5.97847 -1.07086 -0.239877 0
M  V30 11 C 4.07994 -2.038 -1.55606 0
M  V30 12 C 2.68463 -1.77336 -1.95586 0
M  V30 13 C 1.67226 -1.62607 -0.882715 0
M  V30 14 C 0.344133 -1.36885 -1.54485 0
M  V30 15 O 0.246817 -1.31342 -2.80375 0
M  V30 16 N -0.84844 -1.17848 -0.796462 0
M  V30 17 C -2.17189 -0.927686 -1.28704 0
M  V30 18 C -3.07676 -1.3861 -0.183411 0 CFG=1
M  V30 19 C -2.28612 -1.21179 1.09611 0 CFG=2
M  V30 20 C -0.853769 -1.22117 0.666508 0
M  V30 21 O -2.54747 -2.24197 2.00606 0
M  V30 22 N -4.33125 -0.709006 -0.129453 0
M  V30 23 C -5.53267 -1.30159 -0.250661 0
M  V30 24 N -6.51573 -0.389997 -0.155557 0
M  V30 25 C -5.93983 0.805034 0.0292811 0
M  V30 26 C -4.58995 0.603472 0.044793 0
M  V30 27 N -3.71277 1.6012 0.21184 0
M  V30 28 C -4.20065 2.84532 0.369104 0
M  V30 29 N -3.3451 3.97456 0.553672 0
M  V30 30 N -5.52269 3.09372 0.361001 0
M  V30 31 C -6.41802 2.10192 0.194199 0
M  V30 32 N -7.80634 2.29716 0.176532 0
M  V30 33 H 8.22065 1.98837 2.38268 0
M  V30 34 H 8.21286 -0.12193 1.20379 0
M  V30 35 H 4.17337 2.64202 1.08955 0
M  V30 36 H 6.6959 -1.8173 -0.361922 0
M  V30 37 H 4.67133 -2.1443 -2.51548 0
M  V30 38 H 4.18345 -3.06559 -1.09657 0
M  V30 39 H 2.57815 -0.890713 -2.6425 0
M  V30 40 H 2.35176 -2.65152 -2.58568 0
M  V30 41 H 1.55331 -2.62026 -0.383327 0
M  V30 42 H 1.80736 -0.814098 -0.171588 0
M  V30 43 H -2.33309 -1.58302 -2.17068 0
M  V30 44 H -2.35269 0.101167 -1.61806 0
M  V30 45 H -3.25336 -2.47201 -0.297163 0
M  V30 46 H -2.54052 -0.255742 1.58988 0
M  V30 47 H -0.349694 -2.16211 1.02145 0
M  V30 48 H -0.31226 -0.355066 1.04325 0
M  V30 49 H -2.30881 -3.12813 1.63505 0
M  V30 50 H -5.73631 -2.37242 -0.406189 0
M  V30 51 H -3.4773 4.49659 1.46487 0
M  V30 52 H -2.63928 4.27684 -0.143064 0
M  V30 53 H -8.42484 1.70673 -0.400653 0
M  V30 54 H -8.23287 3.04851 0.752153 0
M  V30 END ATOM
M  V30 BEGIN BOND
M  V30 1 1 1 2
M  V30 2 2 2 3
M  V30 3 1 3 4
M  V30 4 2 4 5
M  V30 5 1 5 6
M  V30 6 2 6 7
M  V30 7 1 6 8
M  V30 8 2 8 9
M  V30 9 1 9 10
M  V30 10 1 9 11
M  V30 11 1 11 12
M  V30 12 1 12 13
M  V30 13 1 13 14
M  V30 14 2 14 15
M  V30 15 1 14 16
M  V30 16 1 16 17
M  V30 17 1 17 18
M  V30 18 1 18 19
M  V30 19 1 19 20
M  V30 20 1 19 21
M  V30 21 1 18 22
M  V30 22 1 22 23
M  V30 23 2 23 24
M  V30 24 1 24 25
M  V30 25 2 25 26
M  V30 26 1 26 27
M  V30 27 2 27 28
M  V30 28 1 28 29
M  V30 29 1 28 30
M  V30 30 2 30 31
M  V30 31 1 31 32
M  V30 32 1 7 2
M  V30 33 1 20 16
M  V30 34 1 26 22
M  V30 35 1 10 5
M  V30 36 1 31 25
M  V30 37 1 3 33
M  V30 38 1 4 34
M  V30 39 1 7 35
M  V30 40 1 10 36
M  V30 41 1 11 37
M  V30 42 1 11 38
M  V30 43 1 12 39
M  V30 44 1 12 40
M  V30 45 1 13 41
M  V30 46 1 13 42
M  V30 47 1 17 43
M  V30 48 1 17 44
M  V30 49 1 18 45 CFG=3
M  V30 50 1 19 46 CFG=1
M  V30 51 1 20 47
M  V30 52 1 20 48
M  V30 53 1 21 49
M  V30 54 1 23 50
M  V30 55 1 29 51
M  V30 56 1 29 52
M  V30 57 1 32 53
M  V30 58 1 32 54
M  V30 END BOND
M  V30 END CTAB
M  END
