
     RDKit          3D

  0  0  0  0  0  0  0  0  0  0999 V3000
M  V30 BEGIN CTAB
M  V30 COUNTS 33 33 0 0 0
M  V30 BEGIN ATOM
M  V30 1 N -0.800835 -0.558471 -2.1427 0
M  V30 2 C -0.331961 -0.0830567 -0.829175 0
M  V30 3 C -0.613567 -1.18272 0.23362 0
M  V30 4 C -0.920558 -0.588566 1.55893 0
M  V30 5 C -2.32016 -0.0666165 1.64338 0
M  V30 6 C -3.00966 0.0684215 0.319815 0
M  V30 7 C -2.42314 1.23025 -0.42881 0
M  V30 8 C -0.900367 1.22772 -0.489858 0
M  V30 9 C 1.13236 -0.161469 -0.904244 0
M  V30 10 N 1.84838 -0.212381 0.32541 0
M  V30 11 S 3.34926 -0.977856 0.127634 0
M  V30 12 O 3.39621 -2.08371 1.19644 0
M  V30 13 O 3.48995 -1.64017 -1.21007 0
M  V30 14 N 4.61063 0.121977 0.407707 0
M  V30 15 H -0.256715 -1.52254 -2.20261 0
M  V30 16 H -0.408159 -0.0315007 -2.91841 0
M  V30 17 H 0.358848 -1.7813 0.383996 0
M  V30 18 H -1.32252 -1.89337 -0.0644611 0
M  V30 19 H -0.191207 0.178358 1.90011 0
M  V30 20 H -0.828196 -1.42534 2.30024 0
M  V30 21 H -2.96588 -0.676502 2.32194 0
M  V30 22 H -2.29729 0.956454 2.09667 0
M  V30 23 H -3.05166 -0.852266 -0.27444 0
M  V30 24 H -4.07534 0.337089 0.545554 0
M  V30 25 H -2.72166 2.15158 0.126178 0
M  V30 26 H -2.87056 1.3463 -1.44337 0
M  V30 27 H -0.448334 1.59926 0.4491 0
M  V30 28 H -0.621462 1.94354 -1.31622 0
M  V30 29 H 1.40302 1.03738 -1.13704 0
M  V30 30 H 1.61282 -0.530658 -1.8162 0
M  V30 31 H 1.91625 0.657989 0.845506 0
M  V30 32 H 5.46097 -0.325985 0.837041 0
M  V30 33 H 4.80054 0.705177 -0.441653 0
M  V30 END ATOM
M  V30 BEGIN BOND
M  V30 1 1 1 2
M  V30 2 1 2 3
M  V30 3 1 3 4
M  V30 4 1 4 5
M  V30 5 1 5 6
M  V30 6 1 6 7
M  V30 7 1 7 8
M  V30 8 1 2 9
M  V30 9 1 9 10
M  V30 10 1 10 11
M  V30 11 2 11 12
M  V30 12 2 11 13
M  V30 13 1 11 14
M  V30 14 1 8 2
M  V30 15 1 1 15
M  V30 16 1 1 16
M  V30 17 1 3 17
M  V30 18 1 3 18
M  V30 19 1 4 19
M  V30 20 1 4 20
M  V30 21 1 5 21
M  V30 22 1 5 22
M  V30 23 1 6 23
M  V30 24 1 6 24
M  V30 25 1 7 25
M  V30 26 1 7 26
M  V30 27 1 8 27
M  V30 28 1 8 28
M  V30 29 1 9 29
M  V30 30 1 9 30
M  V30 31 1 10 31
M  V30 32 1 14 32
M  V30 33 1 14 33
M  V30 END BOND
M  V30 END CTAB
M  END
