
     RDKit          3D

  0  0  0  0  0  0  0  0  0  0999 V3000
M  V30 BEGIN CTAB
M  V30 COUNTS 42 44 0 0 0
M  V30 BEGIN ATOM
M  V30 1 C 6.23834 0.844029 -2.01009 0
M  V30 2 O 5.87706 -0.320456 -1.30709 0
M  V30 3 C 4.62464 -0.442816 -0.727367 0
M  V30 4 C 4.28027 -1.59028 -0.0373916 0
M  V30 5 C 3.04813 -1.72214 0.538621 0
M  V30 6 C 2.14614 -0.706866 0.430216 0
M  V30 7 C 2.46632 0.455468 -0.25683 0
M  V30 8 C 3.71159 0.579608 -0.834291 0
M  V30 9 C 0.806673 -0.755473 1.01214 0
M  V30 10 C 0.593826 -0.446599 2.33876 0
M  V30 11 C 1.69743 -0.060811 3.18779 0
M  V30 12 N 2.58326 0.247969 3.85917 0
M  V30 13 C -0.662399 -0.487887 2.91658 0
M  V30 14 N -0.868096 -0.167508 4.28615 0
M  V30 15 N -1.70731 -0.843293 2.14867 0
M  V30 16 C -1.56622 -1.16133 0.827967 0
M  V30 17 S -2.9598 -1.63377 -0.170144 0
M  V30 18 C -3.76225 -0.229155 -0.938565 0
M  V30 19 C -3.40765 0.226133 -2.18258 0
M  V30 20 C -4.0484 1.31324 -2.73653 0
M  V30 21 C -5.06584 1.99287 -2.08001 0
M  V30 22 C -5.38725 1.49903 -0.83328 0
M  V30 23 C -4.7647 0.417458 -0.258164 0
M  V30 24 N -5.19424 0.0114649 1.03748 0
M  V30 25 C -0.316833 -1.11671 0.267245 0
M  V30 26 C -0.158529 -1.45705 -1.10959 0
M  V30 27 N -0.00711578 -1.74698 -2.24014 0
M  V30 28 H 5.77975 0.898351 -3.00577 0
M  V30 29 H 7.36064 0.890154 -2.12576 0
M  V30 30 H 5.95998 1.76912 -1.44086 0
M  V30 31 H 5.0074 -2.37569 0.0331169 0
M  V30 32 H 2.7537 -2.60977 1.08619 0
M  V30 33 H 1.74262 1.27165 -0.345278 0
M  V30 34 H 3.93884 1.50256 -1.36869 0
M  V30 35 H -0.430253 -0.671124 5.08026 0
M  V30 36 H -1.50172 0.627371 4.49957 0
M  V30 37 H -2.60624 -0.28008 -2.74694 0
M  V30 38 H -3.76382 1.67073 -3.72401 0
M  V30 39 H -5.56998 2.856 -2.52563 0
M  V30 40 H -6.1877 2.02092 -0.298254 0
M  V30 41 H -6.1173 -0.454052 1.21127 0
M  V30 42 H -4.563 0.185726 1.84952 0
M  V30 END ATOM
M  V30 BEGIN BOND
M  V30 1 1 1 2
M  V30 2 1 2 3
M  V30 3 2 3 4
M  V30 4 1 4 5
M  V30 5 2 5 6
M  V30 6 1 6 7
M  V30 7 2 7 8
M  V30 8 1 6 9
M  V30 9 2 9 10
M  V30 10 1 10 11
M  V30 11 3 11 12
M  V30 12 1 10 13
M  V30 13 1 13 14
M  V30 14 2 13 15
M  V30 15 1 15 16
M  V30 16 1 16 17
M  V30 17 1 17 18
M  V30 18 2 18 19
M  V30 19 1 19 20
M  V30 20 2 20 21
M  V30 21 1 21 22
M  V30 22 2 22 23
M  V30 23 1 23 24
M  V30 24 2 16 25
M  V30 25 1 25 26
M  V30 26 3 26 27
M  V30 27 1 8 3
M  V30 28 1 25 9
M  V30 29 1 23 18
M  V30 30 1 1 28
M  V30 31 1 1 29
M  V30 32 1 1 30
M  V30 33 1 4 31
M  V30 34 1 5 32
M  V30 35 1 7 33
M  V30 36 1 8 34
M  V30 37 1 14 35
M  V30 38 1 14 36
M  V30 39 1 19 37
M  V30 40 1 20 38
M  V30 41 1 21 39
M  V30 42 1 22 40
M  V30 43 1 24 41
M  V30 44 1 24 42
M  V30 END BOND
M  V30 END CTAB
M  END
