
     RDKit          3D

  0  0  0  0  0  0  0  0  0  0999 V3000
M  V30 BEGIN CTAB
M  V30 COUNTS 56 58 0 0 0
M  V30 BEGIN ATOM
M  V30 1 C 0.570147 -3.12632 1.96429 0
M  V30 2 O -0.743632 -2.73159 1.90407 0
M  V30 3 C -1.28113 -2.92546 0.671254 0
M  V30 4 C -0.644457 -2.13569 -0.409747 0
M  V30 5 N -0.677107 -0.714205 -0.3245 0
M  V30 6 C 0.30373 0.142871 0.233672 0
M  V30 7 C 0.240763 0.721723 1.47586 0
M  V30 8 O -0.699975 0.5275 2.25949 0
M  V30 9 N 1.24083 1.55183 1.89499 0
M  V30 10 C 2.29937 1.82725 1.12722 0
M  V30 11 O 3.19309 2.61313 1.58472 0
M  V30 12 N 2.4013 1.27911 -0.0988167 0
M  V30 13 C 1.43272 0.465421 -0.527146 0
M  V30 14 N 1.49216 -0.0814509 -1.83156 0
M  V30 15 C 3.54524 1.6449 -0.917128 0
M  V30 16 C 4.77093 0.876453 -0.639358 0
M  V30 17 C 5.81196 1.43618 0.108069 0
M  V30 18 C 6.95854 0.737495 0.383155 0
M  V30 19 C 7.15168 -0.552377 -0.0600549 0
M  V30 20 C 6.15566 -1.12252 -0.79083 0
M  V30 21 C 4.98423 -0.401965 -1.0688 0
M  V30 22 C -1.83611 -0.0877728 -0.942916 0
M  V30 23 O -2.77494 -0.764161 -1.42345 0
M  V30 24 C -1.87334 1.38558 -0.992826 0
M  V30 25 S -3.35582 1.92116 -1.87249 0
M  V30 26 C -4.82844 1.50777 -0.96946 0
M  V30 27 N -5.51551 0.378674 -1.19133 0
M  V30 28 C -6.63378 0.0957031 -0.50549 0
M  V30 29 N -7.39007 -1.06936 -0.700792 0
M  V30 30 C -7.04421 1.02333 0.441393 0
M  V30 31 C -6.34112 2.17903 0.668349 0
M  V30 32 O -6.77748 2.96423 1.53897 0
M  V30 33 N -5.23434 2.41777 -0.0385924 0
M  V30 34 H 1.26019 -2.6189 1.28525 0
M  V30 35 H 1.00596 -3.02937 2.98403 0
M  V30 36 H 0.609262 -4.2259 1.70556 0
M  V30 37 H -1.10326 -4.01649 0.390398 0
M  V30 38 H -2.4005 -2.86457 0.660725 0
M  V30 39 H 0.402505 -2.53526 -0.52423 0
M  V30 40 H -1.15739 -2.44052 -1.38336 0
M  V30 41 H 1.19137 1.99065 2.83775 0
M  V30 42 H 1.27642 0.413714 -2.7078 0
M  V30 43 H 1.78272 -1.08344 -1.91592 0
M  V30 44 H 3.76714 2.74552 -0.798139 0
M  V30 45 H 3.26964 1.4721 -1.99058 0
M  V30 46 H 5.72059 2.44349 0.460457 0
M  V30 47 H 7.7392 1.20761 0.965978 0
M  V30 48 H 8.07639 -1.076 0.178904 0
M  V30 49 H 6.23925 -2.1385 -1.17407 0
M  V30 50 H 4.22559 -0.896847 -1.66357 0
M  V30 51 H -1.85642 1.83203 0.0449685 0
M  V30 52 H -0.945869 1.77942 -1.46835 0
M  V30 53 H -7.24368 -1.68705 -1.54114 0
M  V30 54 H -8.11483 -1.35936 -0.0267177 0
M  V30 55 H -7.95249 0.80653 1.00805 0
M  V30 56 H -4.69268 3.29691 0.129777 0
M  V30 END ATOM
M  V30 BEGIN BOND
M  V30 1 1 1 2
M  V30 2 1 2 3
M  V30 3 1 3 4
M  V30 4 1 4 5
M  V30 5 1 5 6
M  V30 6 1 6 7
M  V30 7 2 7 8
M  V30 8 1 7 9
M  V30 9 1 9 10
M  V30 10 2 10 11
M  V30 11 1 10 12
M  V30 12 1 12 13
M  V30 13 1 13 14
M  V30 14 1 12 15
M  V30 15 1 15 16
M  V30 16 2 16 17
M  V30 17 1 17 18
M  V30 18 2 18 19
M  V30 19 1 19 20
M  V30 20 2 20 21
M  V30 21 1 5 22
M  V30 22 2 22 23
M  V30 23 1 22 24
M  V30 24 1 24 25
M  V30 25 1 25 26
M  V30 26 2 26 27
M  V30 27 1 27 28
M  V30 28 1 28 29
M  V30 29 2 28 30
M  V30 30 1 30 31
M  V30 31 2 31 32
M  V30 32 1 31 33
M  V30 33 2 13 6
M  V30 34 1 21 16
M  V30 35 1 33 26
M  V30 36 1 1 34
M  V30 37 1 1 35
M  V30 38 1 1 36
M  V30 39 1 3 37
M  V30 40 1 3 38
M  V30 41 1 4 39
M  V30 42 1 4 40
M  V30 43 1 9 41
M  V30 44 1 14 42
M  V30 45 1 14 43
M  V30 46 1 15 44
M  V30 47 1 15 45
M  V30 48 1 17 46
M  V30 49 1 18 47
M  V30 50 1 19 48
M  V30 51 1 20 49
M  V30 52 1 21 50
M  V30 53 1 24 51
M  V30 54 1 24 52
M  V30 55 1 29 53
M  V30 56 1 29 54
M  V30 57 1 30 55
M  V30 58 1 33 56
M  V30 END BOND
M  V30 END CTAB
M  END
