
     RDKit          3D

  0  0  0  0  0  0  0  0  0  0999 V3000
M  V30 BEGIN CTAB
M  V30 COUNTS 21 21 0 0 0
M  V30 BEGIN ATOM
M  V30 1 C 3.7937 -0.947599 0.152024 0
M  V30 2 C 2.36375 -0.553242 0.118379 0
M  V30 3 N 1.46621 -1.51407 -0.150719 0
M  V30 4 C 0.152039 -1.1799 -0.187434 0
M  V30 5 C -0.29787 0.0897495 0.037078 0
M  V30 6 C -1.70398 0.458304 4.17672e-05 0
M  V30 7 O -2.06936 1.6573 0.216836 0
M  V30 8 N -2.74066 -0.460969 -0.271706 0
M  V30 9 N -4.08377 -0.085372 -0.302252 0
M  V30 10 C 0.678479 1.05261 0.312906 0
M  V30 11 N 0.226925 2.37771 0.548658 0
M  V30 12 N 1.95674 0.688324 0.340563 0
M  V30 13 H 4.48141 -0.108824 0.0427424 0
M  V30 14 H 3.95238 -1.49476 1.10906 0
M  V30 15 H 3.95689 -1.68841 -0.675806 0
M  V30 16 H -0.587745 -1.9474 -0.404225 0
M  V30 17 H -2.50627 -1.45223 -0.456368 0
M  V30 18 H -4.65531 -0.579371 0.410158 0
M  V30 19 H -4.49031 -0.083466 -1.24547 0
M  V30 20 H -0.0534247 3.00048 -0.239976 0
M  V30 21 H 0.160158 2.77113 1.50684 0
M  V30 END ATOM
M  V30 BEGIN BOND
M  V30 1 1 1 2
M  V30 2 2 2 3
M  V30 3 1 3 4
M  V30 4 2 4 5
M  V30 5 1 5 6
M  V30 6 2 6 7
M  V30 7 1 6 8
M  V30 8 1 8 9
M  V30 9 1 5 10
M  V30 10 1 10 11
M  V30 11 2 10 12
M  V30 12 1 12 2
M  V30 13 1 1 13
M  V30 14 1 1 14
M  V30 15 1 1 15
M  V30 16 1 4 16
M  V30 17 1 8 17
M  V30 18 1 9 18
M  V30 19 1 9 19
M  V30 20 1 11 20
M  V30 21 1 11 21
M  V30 END BOND
M  V30 END CTAB
M  END
