
     RDKit          3D

  0  0  0  0  0  0  0  0  0  0999 V3000
M  V30 BEGIN CTAB
M  V30 COUNTS 28 29 0 0 0
M  V30 BEGIN ATOM
M  V30 1 C -3.11307 0.792171 0.705963 0
M  V30 2 C -1.63454 0.971526 0.542487 0
M  V30 3 C -0.942402 -0.165892 -0.174278 0
M  V30 4 C -1.40973 -0.415442 -1.58208 0
M  V30 5 N -2.11525 -1.56602 -1.14696 0
M  V30 6 C -1.45025 -1.55228 0.134337 0
M  V30 7 C 0.529434 -0.0246625 -0.0679098 0
M  V30 8 N 1.07687 1.12007 0.381951 0
M  V30 9 C 2.4177 1.27409 0.535315 0
M  V30 10 N 3.02972 2.45328 1.0086 0
M  V30 11 N 3.22021 0.236855 0.219548 0
M  V30 12 C 2.69282 -0.912836 -0.233539 0
M  V30 13 N 1.35745 -1.03271 -0.372861 0
M  V30 14 N 3.54647 -1.98669 -0.55899 0
M  V30 15 H -3.4663 1.65271 1.35402 0
M  V30 16 H -3.63984 0.806859 -0.263735 0
M  V30 17 H -3.33384 -0.122605 1.2761 0
M  V30 18 H -1.4258 1.89952 -0.0230308 0
M  V30 19 H -1.16481 1.12677 1.54398 0
M  V30 20 H -0.562039 -0.639578 -2.28809 0
M  V30 21 H -2.04451 0.435978 -1.94684 0
M  V30 22 H -3.14625 -1.36573 -1.12084 0
M  V30 23 H -2.08422 -1.68085 0.999319 0
M  V30 24 H -0.575856 -2.2744 0.0929566 0
M  V30 25 H 3.81318 2.3958 1.65991 0
M  V30 26 H 2.67307 3.37663 0.690865 0
M  V30 27 H 3.88167 -2.6533 0.183922 0
M  V30 28 H 3.87011 -2.14926 -1.55011 0
M  V30 END ATOM
M  V30 BEGIN BOND
M  V30 1 1 1 2
M  V30 2 1 2 3
M  V30 3 1 3 4
M  V30 4 1 4 5
M  V30 5 1 5 6
M  V30 6 1 3 7
M  V30 7 2 7 8
M  V30 8 1 8 9
M  V30 9 1 9 10
M  V30 10 2 9 11
M  V30 11 1 11 12
M  V30 12 2 12 13
M  V30 13 1 12 14
M  V30 14 1 6 3
M  V30 15 1 13 7
M  V30 16 1 1 15
M  V30 17 1 1 16
M  V30 18 1 1 17
M  V30 19 1 2 18
M  V30 20 1 2 19
M  V30 21 1 4 20
M  V30 22 1 4 21
M  V30 23 1 5 22
M  V30 24 1 6 23
M  V30 25 1 6 24
M  V30 26 1 10 25
M  V30 27 1 10 26
M  V30 28 1 14 27
M  V30 29 1 14 28
M  V30 END BOND
M  V30 END CTAB
M  END
