
     RDKit          3D

  0  0  0  0  0  0  0  0  0  0999 V3000
M  V30 BEGIN CTAB
M  V30 COUNTS 46 49 0 0 0
M  V30 BEGIN ATOM
M  V30 1 N 1.30323 -3.74437 -1.71008 0
M  V30 2 C 1.23968 -2.45059 -1.15051 0
M  V30 3 N 0.0636337 -1.83558 -0.87663 0
M  V30 4 C -0.0123898 -0.617823 -0.349528 0
M  V30 5 C 1.18437 0.0383846 -0.0738474 0
M  V30 6 C 2.39891 -0.554623 -0.338492 0
M  V30 7 N 2.35626 -1.79354 -0.873906 0
M  V30 8 N 3.64104 0.0606298 -0.0809702 0
M  V30 9 C 3.71066 1.38583 0.480693 0
M  V30 10 C 5.03145 1.97884 0.110068 0
M  V30 11 O 6.13272 1.22214 0.405937 0
M  V30 12 C 5.92396 -0.114451 0.615715 0
M  V30 13 C 4.87243 -0.630086 -0.375674 0
M  V30 14 N -1.24209 0.0366191 -0.0578393 0
M  V30 15 C -2.5502 -0.584625 -0.315823 0
M  V30 16 C -3.47859 0.22073 0.548124 0 CFG=1
M  V30 17 C -2.92084 1.616 0.369097 0 CFG=2
M  V30 18 C -1.42846 1.35555 0.512554 0
M  V30 19 N -3.40856 2.54136 1.3552 0
M  V30 20 C -4.92075 0.128783 0.167446 0
M  V30 21 C -5.59505 -1.23461 0.188048 0
M  V30 22 C -5.41882 -0.487414 -1.06103 0
M  V30 23 H 2.15879 -4.04268 -2.20633 0
M  V30 24 H 0.500928 -4.39096 -1.62548 0
M  V30 25 H 1.17471 1.02425 0.352849 0
M  V30 26 H 3.58969 1.33777 1.59019 0
M  V30 27 H 2.9139 2.0439 0.074272 0
M  V30 28 H 5.01857 2.12601 -1.00853 0
M  V30 29 H 5.12645 3.00888 0.525643 0
M  V30 30 H 6.86089 -0.650208 0.346151 0
M  V30 31 H 5.63932 -0.387847 1.63774 0
M  V30 32 H 5.27726 -0.357196 -1.38443 0
M  V30 33 H 4.78396 -1.72998 -0.257504 0
M  V30 34 H -2.74433 -0.354711 -1.40263 0
M  V30 35 H -2.55293 -1.6544 -0.101266 0
M  V30 36 H -3.35757 -0.102876 1.6029 0
M  V30 37 H -3.09341 1.94407 -0.676778 0
M  V30 38 H -0.822743 2.12355 -0.00866588 0
M  V30 39 H -1.20987 1.34729 1.61961 0
M  V30 40 H -3.81927 3.36282 0.85145 0
M  V30 41 H -4.20463 2.09334 1.86737 0
M  V30 42 H -5.54238 0.942655 0.643402 0
M  V30 43 H -4.94071 -2.10865 0.414635 0
M  V30 44 H -6.62382 -1.31445 0.608895 0
M  V30 45 H -4.68513 -0.792732 -1.82526 0
M  V30 46 H -6.33027 -0.00497914 -1.51808 0
M  V30 END ATOM
M  V30 BEGIN BOND
M  V30 1 1 1 2
M  V30 2 2 2 3
M  V30 3 1 3 4
M  V30 4 2 4 5
M  V30 5 1 5 6
M  V30 6 2 6 7
M  V30 7 1 6 8
M  V30 8 1 8 9
M  V30 9 1 9 10
M  V30 10 1 10 11
M  V30 11 1 11 12
M  V30 12 1 12 13
M  V30 13 1 4 14
M  V30 14 1 14 15
M  V30 15 1 15 16
M  V30 16 1 16 17
M  V30 17 1 17 18
M  V30 18 1 17 19
M  V30 19 1 16 20
M  V30 20 1 20 21
M  V30 21 1 21 22
M  V30 22 1 7 2
M  V30 23 1 13 8
M  V30 24 1 18 14
M  V30 25 1 22 20
M  V30 26 1 1 23
M  V30 27 1 1 24
M  V30 28 1 5 25
M  V30 29 1 9 26
M  V30 30 1 9 27
M  V30 31 1 10 28
M  V30 32 1 10 29
M  V30 33 1 12 30
M  V30 34 1 12 31
M  V30 35 1 13 32
M  V30 36 1 13 33
M  V30 37 1 15 34
M  V30 38 1 15 35
M  V30 39 1 16 36 CFG=1
M  V30 40 1 17 37 CFG=3
M  V30 41 1 18 38
M  V30 42 1 18 39
M  V30 43 1 19 40
M  V30 44 1 19 41
M  V30 45 1 20 42
M  V30 46 1 21 43
M  V30 47 1 21 44
M  V30 48 1 22 45
M  V30 49 1 22 46
M  V30 END BOND
M  V30 END CTAB
M  END
