
     RDKit          3D

  0  0  0  0  0  0  0  0  0  0999 V3000
M  V30 BEGIN CTAB
M  V30 COUNTS 20 20 0 0 0
M  V30 BEGIN ATOM
M  V30 1 N -2.87369 -0.31459 -0.128064 0
M  V30 2 C -1.46563 -0.464109 -0.130124 0
M  V30 3 C -0.874107 -1.67872 -0.378304 0
M  V30 4 C 0.494895 -1.83617 -0.383558 0
M  V30 5 C 1.32289 -0.767464 -0.13738 0
M  V30 6 N 2.75374 -0.887668 -0.133175 0
M  V30 7 C 0.745396 0.46746 0.11505 0
M  V30 8 C -0.62121 0.619713 0.120036 0
M  V30 9 N -1.26471 1.85465 0.393942 0 CHG=1
M  V30 10 O -0.560222 2.98506 0.704325 0 CHG=-1
M  V30 11 O -2.50301 1.97988 0.367803 0
M  V30 12 N 1.61703 1.57278 0.347436 0 CHG=1
M  V30 13 O 1.88669 2.51944 -0.611694 0 CHG=-1
M  V30 14 O 2.15255 1.67769 1.46813 0
M  V30 15 H -3.4411 -0.605396 0.695028 0
M  V30 16 H -3.37571 0.0861586 -0.939584 0
M  V30 17 H -1.50533 -2.55944 -0.579939 0
M  V30 18 H 0.977057 -2.79197 -0.578661 0
M  V30 19 H 3.29916 -1.00854 -1.00276 0
M  V30 20 H 3.23532 -0.848753 0.791492 0
M  V30 END ATOM
M  V30 BEGIN BOND
M  V30 1 1 1 2
M  V30 2 2 2 3
M  V30 3 1 3 4
M  V30 4 2 4 5
M  V30 5 1 5 6
M  V30 6 1 5 7
M  V30 7 2 7 8
M  V30 8 1 8 9
M  V30 9 1 9 10
M  V30 10 2 9 11
M  V30 11 1 7 12
M  V30 12 1 12 13
M  V30 13 2 12 14
M  V30 14 1 8 2
M  V30 15 1 1 15
M  V30 16 1 1 16
M  V30 17 1 3 17
M  V30 18 1 4 18
M  V30 19 1 6 19
M  V30 20 1 6 20
M  V30 END BOND
M  V30 END CTAB
M  END
