
     RDKit          3D

  0  0  0  0  0  0  0  0  0  0999 V3000
M  V30 BEGIN CTAB
M  V30 COUNTS 88 92 0 0 0
M  V30 BEGIN ATOM
M  V30 1 C 5.05713 -3.55067 -0.377321 0
M  V30 2 O 5.92598 -2.42992 -0.419032 0
M  V30 3 C 7.20766 -2.52552 -0.92699 0
M  V30 4 O 7.59967 -3.62859 -1.35657 0
M  V30 5 C 8.10255 -1.37531 -0.970846 0
M  V30 6 C 7.83262 -0.0797334 -0.538043 0
M  V30 7 N 6.59027 0.321514 0.0336818 0
M  V30 8 N 5.77088 1.02072 -0.583496 0
M  V30 9 C 4.528 1.51048 -0.214145 0
M  V30 10 C 3.37055 1.32922 -0.985506 0
M  V30 11 N 3.29087 0.627972 -2.22661 0
M  V30 12 N 2.32934 1.91787 -0.383615 0
M  V30 13 N 2.79814 2.44791 0.716024 0
M  V30 14 C 4.12048 2.23565 0.874838 0
M  V30 15 C 4.95494 2.70353 2.02822 0
M  V30 16 C 4.023 3.48021 2.96319 0
M  V30 17 C 5.47198 1.54656 2.84743 0
M  V30 18 C 6.04372 3.64113 1.60145 0
M  V30 19 C 0.959648 1.96799 -0.842073 0
M  V30 20 C 0.0335604 1.09808 -0.343392 0
M  V30 21 C -1.27856 1.1249 -0.764852 0
M  V30 22 N -1.57461 2.06058 -1.6924 0
M  V30 23 C -0.684736 2.91043 -2.18396 0
M  V30 24 N 0.583241 2.86949 -1.76329 0
M  V30 25 N -2.27397 0.250096 -0.283089 0
M  V30 26 N -2.13003 -0.588065 0.718482 0
M  V30 27 C -3.25092 -1.28387 0.94023 0
M  V30 28 C -4.17133 -0.857234 0.0141051 0
M  V30 29 N -5.50774 -1.3065 -0.143217 0
M  V30 30 N -6.28542 -0.90345 -1.03627 0
M  V30 31 C -7.61436 -1.42707 -1.09973 0
M  V30 32 C -8.75498 -0.666925 -1.16512 0
M  V30 33 C -9.80939 -1.5472 -1.21034 0
M  V30 34 N -9.27408 -2.77462 -1.17135 0
M  V30 35 N -7.96411 -2.71833 -1.10524 0
M  V30 36 C -7.04355 -3.86244 -1.04753 0
M  V30 37 C -8.87508 0.794996 -1.18568 0
M  V30 38 O -7.87745 1.5444 -1.14251 0
M  V30 39 O -10.1202 1.39505 -1.25498 0
M  V30 40 C -10.2688 2.80708 -1.27679 0
M  V30 41 C -3.51938 0.107837 -0.737282 0
M  V30 42 N -4.10092 0.819547 -1.81403 0
M  V30 43 C -3.42404 -2.30652 1.99093 0
M  V30 44 C -3.77261 -3.66535 1.42015 0
M  V30 45 C -4.48694 -1.87899 3.00658 0
M  V30 46 C -2.14106 -2.4812 2.769 0
M  V30 47 N 8.90131 0.705565 -0.741548 0
M  V30 48 C 9.01279 2.1397 -0.41767 0
M  V30 49 N 9.83278 -0.0532793 -1.28739 0
M  V30 50 C 9.39554 -1.31045 -1.44298 0
M  V30 51 H 4.36519 -3.44175 -1.23675 0
M  V30 52 H 4.54888 -3.54497 0.600997 0
M  V30 53 H 5.60058 -4.51586 -0.476908 0
M  V30 54 H 2.67111 0.949633 -3.00922 0
M  V30 55 H 3.83884 -0.233505 -2.42131 0
M  V30 56 H 3.35567 4.13109 2.39349 0
M  V30 57 H 4.62813 4.07701 3.65723 0
M  V30 58 H 3.43018 2.70344 3.50403 0
M  V30 59 H 6.58974 1.47351 2.82145 0
M  V30 60 H 4.96069 0.628893 2.56274 0
M  V30 61 H 5.25843 1.71186 3.9467 0
M  V30 62 H 6.32544 3.49227 0.542912 0
M  V30 63 H 6.92306 3.53692 2.28652 0
M  V30 64 H 5.68642 4.68445 1.69886 0
M  V30 65 H 0.332896 0.365963 0.40325 0
M  V30 66 H -0.931117 3.66188 -2.93129 0
M  V30 67 H -10.8643 -1.28415 -1.26672 0
M  V30 68 H -6.29228 -3.69243 -1.83468 0
M  V30 69 H -7.59757 -4.79846 -1.22516 0
M  V30 70 H -6.53439 -3.90917 -0.0689136 0
M  V30 71 H -11.1897 3.01491 -1.89222 0
M  V30 72 H -9.42449 3.26685 -1.81298 0
M  V30 73 H -10.4292 3.22779 -0.278614 0
M  V30 74 H -3.77145 0.6171 -2.78461 0
M  V30 75 H -4.84353 1.53804 -1.69135 0
M  V30 76 H -3.5557 -3.75311 0.35365 0
M  V30 77 H -4.85044 -3.86551 1.66695 0
M  V30 78 H -3.21125 -4.49223 1.93932 0
M  V30 79 H -5.41607 -2.43734 2.76506 0
M  V30 80 H -4.61434 -0.797953 3.05415 0
M  V30 81 H -4.18796 -2.20708 4.03577 0
M  V30 82 H -2.35458 -2.92177 3.76683 0
M  V30 83 H -1.48279 -3.15782 2.16231 0
M  V30 84 H -1.59116 -1.50132 2.85578 0
M  V30 85 H 8.18363 2.67657 -0.93046 0
M  V30 86 H 9.01584 2.30817 0.670184 0
M  V30 87 H 9.96572 2.50024 -0.825446 0
M  V30 88 H 9.92951 -2.1694 -1.86386 0
M  V30 END ATOM
M  V30 BEGIN BOND
M  V30 1 1 1 2
M  V30 2 1 2 3
M  V30 3 2 3 4
M  V30 4 1 3 5
M  V30 5 2 5 6
M  V30 6 1 6 7
M  V30 7 2 7 8 CFG=2
M  V30 8 1 8 9
M  V30 9 2 9 10
M  V30 10 1 10 11
M  V30 11 1 10 12
M  V30 12 1 12 13
M  V30 13 2 13 14
M  V30 14 1 14 15
M  V30 15 1 15 16
M  V30 16 1 15 17
M  V30 17 1 15 18
M  V30 18 1 12 19
M  V30 19 2 19 20
M  V30 20 1 20 21
M  V30 21 2 21 22
M  V30 22 1 22 23
M  V30 23 2 23 24
M  V30 24 1 21 25
M  V30 25 1 25 26
M  V30 26 2 26 27
M  V30 27 1 27 28
M  V30 28 1 28 29
M  V30 29 2 29 30 CFG=2
M  V30 30 1 30 31
M  V30 31 2 31 32
M  V30 32 1 32 33
M  V30 33 2 33 34
M  V30 34 1 34 35
M  V30 35 1 35 36
M  V30 36 1 32 37
M  V30 37 2 37 38
M  V30 38 1 37 39
M  V30 39 1 39 40
M  V30 40 2 28 41
M  V30 41 1 41 42
M  V30 42 1 27 43
M  V30 43 1 43 44
M  V30 44 1 43 45
M  V30 45 1 43 46
M  V30 46 1 6 47
M  V30 47 1 47 48
M  V30 48 1 47 49
M  V30 49 2 49 50
M  V30 50 1 50 5
M  V30 51 1 14 9
M  V30 52 1 24 19
M  V30 53 1 41 25
M  V30 54 1 35 31
M  V30 55 1 1 51
M  V30 56 1 1 52
M  V30 57 1 1 53
M  V30 58 1 11 54
M  V30 59 1 11 55
M  V30 60 1 16 56
M  V30 61 1 16 57
M  V30 62 1 16 58
M  V30 63 1 17 59
M  V30 64 1 17 60
M  V30 65 1 17 61
M  V30 66 1 18 62
M  V30 67 1 18 63
M  V30 68 1 18 64
M  V30 69 1 20 65
M  V30 70 1 23 66
M  V30 71 1 33 67
M  V30 72 1 36 68
M  V30 73 1 36 69
M  V30 74 1 36 70
M  V30 75 1 40 71
M  V30 76 1 40 72
M  V30 77 1 40 73
M  V30 78 1 42 74
M  V30 79 1 42 75
M  V30 80 1 44 76
M  V30 81 1 44 77
M  V30 82 1 44 78
M  V30 83 1 45 79
M  V30 84 1 45 80
M  V30 85 1 45 81
M  V30 86 1 46 82
M  V30 87 1 46 83
M  V30 88 1 46 84
M  V30 89 1 48 85
M  V30 90 1 48 86
M  V30 91 1 48 87
M  V30 92 1 50 88
M  V30 END BOND
M  V30 END CTAB
M  END
