
     RDKit          3D

  0  0  0  0  0  0  0  0  0  0999 V3000
M  V30 BEGIN CTAB
M  V30 COUNTS 32 34 0 0 0
M  V30 BEGIN ATOM
M  V30 1 O 1.36116 -2.70766 3.0375 0
M  V30 2 C 1.23965 -1.9341 2.05794 0
M  V30 3 N 2.28911 -1.05195 1.75702 0
M  V30 4 C 2.13008 -0.193366 0.63054 0
M  V30 5 N 3.15065 0.665026 0.32324 0
M  V30 6 C 3.12679 1.50786 -0.702984 0
M  V30 7 N 4.25815 2.33587 -0.895774 0
M  V30 8 N 2.05054 1.51642 -1.47334 0
M  V30 9 C 0.990597 0.690269 -1.23236 0
M  V30 10 C 1.00573 -0.187848 -0.169515 0
M  V30 11 C -0.127408 -1.09204 0.116792 0
M  V30 12 C 0.020914 -1.98678 1.28183 0
M  V30 13 C -1.443 -0.445572 0.201718 0
M  V30 14 C -2.42569 -0.799395 -0.701928 0
M  V30 15 C -3.6839 -0.240904 -0.653632 0
M  V30 16 C -3.96119 0.692565 0.322658 0
M  V30 17 C -2.97821 1.04976 1.23051 0
M  V30 18 C -1.71987 0.492831 1.18408 0
M  V30 19 F -0.74301 0.804564 2.03392 0
M  V30 20 N -0.104007 0.78453 -2.12829 0
M  V30 21 H 3.17549 -1.01871 2.34363 0
M  V30 22 H 4.11974 3.3637 -0.867731 0
M  V30 23 H 5.20338 1.94153 -1.0612 0
M  V30 24 H -0.168488 -1.77276 -0.794298 0
M  V30 25 H -0.830858 -1.83535 2.02023 0
M  V30 26 H -0.121847 -3.07971 1.00184 0
M  V30 27 H -2.24365 -1.52926 -1.48236 0
M  V30 28 H -4.46103 -0.525301 -1.37378 0
M  V30 29 H -4.93244 1.17392 0.419918 0
M  V30 30 H -3.16361 1.78303 2.01328 0
M  V30 31 H -0.226292 0.0359188 -2.83341 0
M  V30 32 H -0.787498 1.56292 -2.11415 0
M  V30 END ATOM
M  V30 BEGIN BOND
M  V30 1 2 1 2
M  V30 2 1 2 3
M  V30 3 1 3 4
M  V30 4 2 4 5
M  V30 5 1 5 6
M  V30 6 1 6 7
M  V30 7 2 6 8
M  V30 8 1 8 9
M  V30 9 2 9 10
M  V30 10 1 10 11
M  V30 11 1 11 12
M  V30 12 1 11 13
M  V30 13 2 13 14
M  V30 14 1 14 15
M  V30 15 2 15 16
M  V30 16 1 16 17
M  V30 17 2 17 18
M  V30 18 1 18 19
M  V30 19 1 9 20
M  V30 20 1 12 2
M  V30 21 1 18 13
M  V30 22 1 10 4
M  V30 23 1 3 21
M  V30 24 1 7 22
M  V30 25 1 7 23
M  V30 26 1 11 24
M  V30 27 1 12 25
M  V30 28 1 12 26
M  V30 29 1 14 27
M  V30 30 1 15 28
M  V30 31 1 16 29
M  V30 32 1 17 30
M  V30 33 1 20 31
M  V30 34 1 20 32
M  V30 END BOND
M  V30 END CTAB
M  END
