
     RDKit          3D

  0  0  0  0  0  0  0  0  0  0999 V3000
M  V30 BEGIN CTAB
M  V30 COUNTS 42 45 0 0 0
M  V30 BEGIN ATOM
M  V30 1 N 1.20079 1.02171 -2.66543 0
M  V30 2 C 0.850648 0.624971 -1.60959 0
M  V30 3 C 0.480008 0.156587 -0.295582 0
M  V30 4 C 1.43916 0.133678 0.713349 0
M  V30 5 N 1.11842 -0.27904 1.95165 0
M  V30 6 C -0.116224 -0.683306 2.27595 0
M  V30 7 C -1.07931 -0.666553 1.28311 0
M  V30 8 C -0.787779 -0.240543 -0.0317325 0
M  V30 9 C -1.78453 -0.237973 -1.00855 0
M  V30 10 C -1.82088 0.13497 -2.43387 0
M  V30 11 C -3.24997 -0.132364 -2.85144 0
M  V30 12 O -3.671 0.065948 -4.03466 0
M  V30 13 N -3.95444 -0.609851 -1.73444 0
M  V30 14 C -3.03582 -0.664897 -0.622173 0
M  V30 15 N -3.30212 -1.07112 0.643281 0
M  V30 16 C -2.3572 -1.07985 1.59324 0
M  V30 17 N -2.65405 -1.51332 2.92999 0
M  V30 18 C -5.35113 -0.97962 -1.70666 0
M  V30 19 N -0.411976 -1.11155 3.59814 0
M  V30 20 N 2.76836 0.53041 0.425629 0
M  V30 21 C 3.58781 -0.293568 -0.421929 0
M  V30 22 C 4.63169 0.514991 -1.17032 0
M  V30 23 O 5.16653 1.52037 -0.365512 0
M  V30 24 C 4.237 2.44115 0.0504389 0
M  V30 25 C 3.26639 1.75677 0.99283 0
M  V30 26 H -1.71148 1.22261 -2.62266 0
M  V30 27 H -1.24412 -0.523657 -3.10253 0
M  V30 28 H -2.98543 -0.898984 3.67921 0
M  V30 29 H -2.52896 -2.53166 3.15909 0
M  V30 30 H -5.99785 -0.257055 -2.25581 0
M  V30 31 H -5.72954 -0.985226 -0.655085 0
M  V30 32 H -5.5464 -1.96898 -2.15485 0
M  V30 33 H -0.742822 -0.435172 4.32288 0
M  V30 34 H -0.309188 -2.1053 3.89935 0
M  V30 35 H 3.0145 -0.866701 -1.17096 0
M  V30 36 H 4.15022 -0.983422 0.266805 0
M  V30 37 H 5.46336 -0.177712 -1.41528 0
M  V30 38 H 4.2475 0.91801 -2.12932 0
M  V30 39 H 4.76909 3.22253 0.622763 0
M  V30 40 H 3.71116 2.95757 -0.774848 0
M  V30 41 H 3.81279 1.58691 1.94838 0
M  V30 42 H 2.45676 2.48824 1.19175 0
M  V30 END ATOM
M  V30 BEGIN BOND
M  V30 1 3 1 2
M  V30 2 1 2 3
M  V30 3 2 3 4
M  V30 4 1 4 5
M  V30 5 2 5 6
M  V30 6 1 6 7
M  V30 7 2 7 8
M  V30 8 1 8 9
M  V30 9 1 9 10
M  V30 10 1 10 11
M  V30 11 2 11 12
M  V30 12 1 11 13
M  V30 13 1 13 14
M  V30 14 1 14 15
M  V30 15 2 15 16
M  V30 16 1 16 17
M  V30 17 1 13 18
M  V30 18 1 6 19
M  V30 19 1 4 20
M  V30 20 1 20 21
M  V30 21 1 21 22
M  V30 22 1 22 23
M  V30 23 1 23 24
M  V30 24 1 24 25
M  V30 25 1 8 3
M  V30 26 2 14 9
M  V30 27 1 25 20
M  V30 28 1 16 7
M  V30 29 1 10 26
M  V30 30 1 10 27
M  V30 31 1 17 28
M  V30 32 1 17 29
M  V30 33 1 18 30
M  V30 34 1 18 31
M  V30 35 1 18 32
M  V30 36 1 19 33
M  V30 37 1 19 34
M  V30 38 1 21 35
M  V30 39 1 21 36
M  V30 40 1 22 37
M  V30 41 1 22 38
M  V30 42 1 24 39
M  V30 43 1 24 40
M  V30 44 1 25 41
M  V30 45 1 25 42
M  V30 END BOND
M  V30 END CTAB
M  END
