
     RDKit          3D

  0  0  0  0  0  0  0  0  0  0999 V3000
M  V30 BEGIN CTAB
M  V30 COUNTS 35 35 0 0 0
M  V30 BEGIN ATOM
M  V30 1 N -5.6558 0.899554 -0.754818 0
M  V30 2 C -4.72378 1.84463 -1.3209 0
M  V30 3 C -3.32229 1.6586 -0.727871 0
M  V30 4 C -2.89226 0.264352 -1.04934 0
M  V30 5 N -1.58487 -0.0592635 -0.552693 0
M  V30 6 C -0.967233 -1.31948 -0.734734 0
M  V30 7 O -1.59783 -2.21701 -1.37069 0
M  V30 8 C 0.355397 -1.67035 -0.241164 0
M  V30 9 C 0.859473 -2.94773 -0.47931 0
M  V30 10 C 2.10143 -3.26184 -0.0101409 0
M  V30 11 C 2.87709 -2.34874 0.69632 0
M  V30 12 C 2.40079 -1.07412 0.946538 0
M  V30 13 C 1.14596 -0.774484 0.465895 0
M  V30 14 C 3.25129 -0.135079 1.69797 0
M  V30 15 S 4.30222 0.815498 0.624434 0
M  V30 16 O 5.2023 -0.0461862 -0.184263 0
M  V30 17 O 3.47137 1.66232 -0.308502 0
M  V30 18 N 5.27662 1.89804 1.54911 0
M  V30 19 F -2.51799 2.61007 -1.32332 0
M  V30 20 F -3.45689 1.87915 0.628937 0
M  V30 21 H -6.63022 1.22736 -0.778806 0
M  V30 22 H -5.3583 0.515242 0.157816 0
M  V30 23 H -4.73533 1.74255 -2.40551 0
M  V30 24 H -5.11548 2.8613 -1.0814 0
M  V30 25 H -3.67504 -0.436599 -0.693001 0
M  V30 26 H -2.8635 0.167132 -2.154 0
M  V30 27 H -1.06905 0.675319 -0.0323097 0
M  V30 28 H 0.265969 -3.64646 -1.01991 0
M  V30 29 H 2.48698 -4.25675 -0.198946 0
M  V30 30 H 3.8463 -2.6996 1.02306 0
M  V30 31 H 0.757803 0.209984 0.649524 0
M  V30 32 H 3.93502 -0.695528 2.39336 0
M  V30 33 H 2.67773 0.552206 2.34378 0
M  V30 34 H 4.80587 2.24115 2.40365 0
M  V30 35 H 6.14625 1.41123 1.84125 0
M  V30 END ATOM
M  V30 BEGIN BOND
M  V30 1 1 1 2
M  V30 2 1 2 3
M  V30 3 1 3 4
M  V30 4 1 4 5
M  V30 5 1 5 6
M  V30 6 2 6 7
M  V30 7 1 6 8
M  V30 8 2 8 9
M  V30 9 1 9 10
M  V30 10 2 10 11
M  V30 11 1 11 12
M  V30 12 2 12 13
M  V30 13 1 12 14
M  V30 14 1 14 15
M  V30 15 2 15 16
M  V30 16 2 15 17
M  V30 17 1 15 18
M  V30 18 1 3 19
M  V30 19 1 3 20
M  V30 20 1 13 8
M  V30 21 1 1 21
M  V30 22 1 1 22
M  V30 23 1 2 23
M  V30 24 1 2 24
M  V30 25 1 4 25
M  V30 26 1 4 26
M  V30 27 1 5 27
M  V30 28 1 9 28
M  V30 29 1 10 29
M  V30 30 1 11 30
M  V30 31 1 13 31
M  V30 32 1 14 32
M  V30 33 1 14 33
M  V30 34 1 18 34
M  V30 35 1 18 35
M  V30 END BOND
M  V30 END CTAB
M  END
