
     RDKit          3D

  0  0  0  0  0  0  0  0  0  0999 V3000
M  V30 BEGIN CTAB
M  V30 COUNTS 39 41 0 0 0
M  V30 BEGIN ATOM
M  V30 1 O 5.22062 -0.947904 0.948888 0
M  V30 2 N 5.06076 -0.6914 -0.397825 0
M  V30 3 C 3.88878 -0.445409 -0.870452 0
M  V30 4 C 2.76393 -0.454919 0.0889122 0
M  V30 5 N 2.97425 -0.711371 1.39043 0
M  V30 6 C 1.92015 -0.710001 2.23282 0
M  V30 7 N 2.14262 -0.9829 3.63139 0
M  V30 8 N 0.682602 -0.457529 1.7827 0
M  V30 9 C 0.485847 -0.203053 0.481689 0
M  V30 10 N 1.52772 -0.204371 -0.350642 0
M  V30 11 N -0.849425 0.0691611 -0.00522632 0
M  V30 12 C -1.26531 1.43341 0.0566633 0
M  V30 13 C -1.05015 2.21991 1.17684 0
M  V30 14 C -1.46422 3.53494 1.20635 0
M  V30 15 C -2.10325 4.12866 0.14278 0
M  V30 16 C -2.32369 3.35654 -0.978405 0
M  V30 17 C -1.90887 2.04192 -1.00604 0
M  V30 18 C -1.62267 -0.990767 -0.496458 0
M  V30 19 C -2.95042 -1.16115 -0.15829 0
M  V30 20 C -3.69441 -2.22135 -0.665182 0
M  V30 21 C -3.10065 -3.14053 -1.5349 0
M  V30 22 C -1.78089 -2.98716 -1.88244 0
M  V30 23 C -1.08058 -1.92261 -1.35729 0
M  V30 24 N 3.65101 -0.173371 -2.25577 0
M  V30 25 H 5.62806 -0.203388 1.50054 0
M  V30 26 H 2.28629 -0.155468 4.24937 0
M  V30 27 H 2.15051 -1.97255 3.95938 0
M  V30 28 H -0.554948 1.79925 2.03261 0
M  V30 29 H -1.28018 4.13712 2.11039 0
M  V30 30 H -2.42319 5.17627 0.191256 0
M  V30 31 H -2.83386 3.83073 -1.82811 0
M  V30 32 H -2.08718 1.45449 -1.88351 0
M  V30 33 H -3.37456 -0.430111 0.517189 0
M  V30 34 H -4.72498 -2.32325 -0.380591 0
M  V30 35 H -3.68795 -3.97098 -1.93032 0
M  V30 36 H -1.32745 -3.70138 -2.55545 0
M  V30 37 H -0.0330927 -1.81444 -1.64373 0
M  V30 38 H 3.70503 -0.980459 -2.91349 0
M  V30 39 H 3.43374 0.77543 -2.60608 0
M  V30 END ATOM
M  V30 BEGIN BOND
M  V30 1 1 1 2
M  V30 2 2 2 3
M  V30 3 1 3 4
M  V30 4 2 4 5
M  V30 5 1 5 6
M  V30 6 1 6 7
M  V30 7 2 6 8
M  V30 8 1 8 9
M  V30 9 2 9 10
M  V30 10 1 9 11
M  V30 11 1 11 12
M  V30 12 2 12 13
M  V30 13 1 13 14
M  V30 14 2 14 15
M  V30 15 1 15 16
M  V30 16 2 16 17
M  V30 17 1 11 18
M  V30 18 2 18 19
M  V30 19 1 19 20
M  V30 20 2 20 21
M  V30 21 1 21 22
M  V30 22 2 22 23
M  V30 23 1 3 24
M  V30 24 1 10 4
M  V30 25 1 17 12
M  V30 26 1 23 18
M  V30 27 1 1 25
M  V30 28 1 7 26
M  V30 29 1 7 27
M  V30 30 1 13 28
M  V30 31 1 14 29
M  V30 32 1 15 30
M  V30 33 1 16 31
M  V30 34 1 17 32
M  V30 35 1 19 33
M  V30 36 1 20 34
M  V30 37 1 21 35
M  V30 38 1 22 36
M  V30 39 1 23 37
M  V30 40 1 24 38
M  V30 41 1 24 39
M  V30 END BOND
M  V30 END CTAB
M  END
