
     RDKit          3D

  0  0  0  0  0  0  0  0  0  0999 V3000
M  V30 BEGIN CTAB
M  V30 COUNTS 53 56 0 0 0
M  V30 BEGIN ATOM
M  V30 1 N -2.92821 -4.11806 -1.01832 0
M  V30 2 C -1.94155 -3.72504 -0.536692 0
M  V30 3 C -0.709886 -3.25989 0.0717162 0
M  V30 4 C 0.112005 -4.19903 0.666813 0
M  V30 5 N -0.24491 -5.57087 0.674883 0
M  V30 6 N 1.23285 -3.7158 1.21306 0
M  V30 7 C 1.54272 -2.37961 1.18344 0
M  V30 8 C 0.757604 -1.42247 0.606181 0
M  V30 9 C -0.43272 -1.9128 0.0222394 0
M  V30 10 C -1.40966 -1.04536 -0.646604 0
M  V30 11 C -2.51085 -0.638993 0.0388488 0
M  V30 12 C -3.52904 0.175224 -0.497929 0
M  V30 13 O -4.56224 0.528376 0.220485 0
M  V30 14 C -5.54369 0.826453 1.00219 0
M  V30 15 C -3.32888 0.553279 -1.82882 0
M  V30 16 C -2.23381 0.172461 -2.57127 0
M  V30 17 C -1.28196 -0.639463 -1.93501 0
M  V30 18 O -2.05385 0.547371 -3.84958 0
M  V30 19 C -1.7693 0.826332 -5.03417 0
M  V30 20 O -4.30691 1.36963 -2.43831 0
M  V30 21 C -4.0823 2.76429 -2.34443 0
M  V30 22 C 1.21359 -0.143056 0.664887 0
M  V30 23 N 0.49494 1.00597 0.108696 0
M  V30 24 C 2.42096 0.0663512 1.29807 0
M  V30 25 S 2.87239 -1.4994 1.78353 0
M  V30 26 C 3.12603 1.3467 1.44127 0
M  V30 27 O 2.63985 2.36347 0.913052 0
M  V30 28 C 4.35872 1.43629 2.17183 0
M  V30 29 C 4.70116 0.629729 3.21337 0
M  V30 30 C 5.92869 0.761605 3.84252 0
M  V30 31 C 6.79316 1.72919 3.38815 0
M  V30 32 C 6.46781 2.56072 2.33277 0
M  V30 33 C 5.25473 2.39231 1.75025 0
M  V30 34 Br 8.5104 1.98005 4.1971 0
M  V30 35 H -0.737806 -5.94659 -0.166551 0
M  V30 36 H -0.0115605 -6.16275 1.5037 0
M  V30 37 H -2.61208 -0.967358 1.0755 0
M  V30 38 H -6.09896 1.79124 0.715603 0
M  V30 39 H -5.18867 1.0596 2.06213 0
M  V30 40 H -6.3965 0.0853389 1.11193 0
M  V30 41 H -0.426918 -0.932706 -2.52644 0
M  V30 42 H -2.4547 0.297392 -5.80081 0
M  V30 43 H -1.82939 1.93212 -5.36137 0
M  V30 44 H -0.740639 0.463096 -5.40728 0
M  V30 45 H -3.1469 2.94344 -2.94928 0
M  V30 46 H -4.90801 3.3014 -2.86716 0
M  V30 47 H -3.92896 3.10958 -1.30321 0
M  V30 48 H 0.759731 1.40979 -0.811095 0
M  V30 49 H -0.290246 1.45625 0.614163 0
M  V30 50 H 4.02978 -0.113372 3.59285 0
M  V30 51 H 6.22323 0.131461 4.67347 0
M  V30 52 H 7.19008 3.32319 1.99876 0
M  V30 53 H 5.01068 3.05291 0.916056 0
M  V30 END ATOM
M  V30 BEGIN BOND
M  V30 1 3 1 2
M  V30 2 1 2 3
M  V30 3 2 3 4
M  V30 4 1 4 5
M  V30 5 1 4 6
M  V30 6 2 6 7
M  V30 7 1 7 8
M  V30 8 2 8 9
M  V30 9 1 9 10
M  V30 10 2 10 11
M  V30 11 1 11 12
M  V30 12 1 12 13
M  V30 13 1 13 14
M  V30 14 2 12 15
M  V30 15 1 15 16
M  V30 16 2 16 17
M  V30 17 1 16 18
M  V30 18 1 18 19
M  V30 19 1 15 20
M  V30 20 1 20 21
M  V30 21 1 8 22
M  V30 22 1 22 23
M  V30 23 2 22 24
M  V30 24 1 24 25
M  V30 25 1 24 26
M  V30 26 2 26 27
M  V30 27 1 26 28
M  V30 28 2 28 29
M  V30 29 1 29 30
M  V30 30 2 30 31
M  V30 31 1 31 32
M  V30 32 2 32 33
M  V30 33 1 31 34
M  V30 34 1 9 3
M  V30 35 1 17 10
M  V30 36 1 33 28
M  V30 37 1 25 7
M  V30 38 1 5 35
M  V30 39 1 5 36
M  V30 40 1 11 37
M  V30 41 1 14 38
M  V30 42 1 14 39
M  V30 43 1 14 40
M  V30 44 1 17 41
M  V30 45 1 19 42
M  V30 46 1 19 43
M  V30 47 1 19 44
M  V30 48 1 21 45
M  V30 49 1 21 46
M  V30 50 1 21 47
M  V30 51 1 23 48
M  V30 52 1 23 49
M  V30 53 1 29 50
M  V30 54 1 30 51
M  V30 55 1 32 52
M  V30 56 1 33 53
M  V30 END BOND
M  V30 END CTAB
M  END
