
     RDKit          3D

  0  0  0  0  0  0  0  0  0  0999 V3000
M  V30 BEGIN CTAB
M  V30 COUNTS 23 24 0 0 0
M  V30 BEGIN ATOM
M  V30 1 F 3.91698 -1.08047 -0.495489 0
M  V30 2 C 2.58656 -0.792368 -0.319759 0
M  V30 3 C 1.62946 -1.67872 -0.743486 0
M  V30 4 C 0.288086 -1.4311 -0.587872 0
M  V30 5 C -0.115485 -0.263219 0.00897605 0
M  V30 6 C 0.856896 0.629324 0.435466 0
M  V30 7 C 2.18692 0.374228 0.276353 0
M  V30 8 N 3.1306 1.32406 0.73232 0
M  V30 9 F 0.443079 1.79456 1.03122 0
M  V30 10 C -1.55621 0.0634261 0.206635 0
M  V30 11 N -1.91469 0.24662 1.59144 0
M  V30 12 C -2.56603 -0.502875 -0.718791 0
M  V30 13 C -2.22621 0.947815 -0.845353 0
M  V30 14 H 1.94329 -2.60222 -1.21532 0
M  V30 15 H -0.462423 -2.14409 -0.929163 0
M  V30 16 H 3.30052 2.15644 0.134888 0
M  V30 17 H 3.65406 1.23591 1.61717 0
M  V30 18 H -2.20923 1.19255 1.8364 0
M  V30 19 H -2.46535 -0.527283 1.98932 0
M  V30 20 H -2.30417 -1.13349 -1.57733 0
M  V30 21 H -3.55476 -0.785637 -0.267979 0
M  V30 22 H -2.97427 1.69952 -0.473635 0
M  V30 23 H -1.5876 1.27702 -1.68602 0
M  V30 END ATOM
M  V30 BEGIN BOND
M  V30 1 1 1 2
M  V30 2 2 2 3
M  V30 3 1 3 4
M  V30 4 2 4 5
M  V30 5 1 5 6
M  V30 6 2 6 7
M  V30 7 1 7 8
M  V30 8 1 6 9
M  V30 9 1 5 10
M  V30 10 1 10 11
M  V30 11 1 10 12
M  V30 12 1 12 13
M  V30 13 1 7 2
M  V30 14 1 13 10
M  V30 15 1 3 14
M  V30 16 1 4 15
M  V30 17 1 8 16
M  V30 18 1 8 17
M  V30 19 1 11 18
M  V30 20 1 11 19
M  V30 21 1 12 20
M  V30 22 1 12 21
M  V30 23 1 13 22
M  V30 24 1 13 23
M  V30 END BOND
M  V30 END CTAB
M  END
