
     RDKit          3D

  0  0  0  0  0  0  0  0  0  0999 V3000
M  V30 BEGIN CTAB
M  V30 COUNTS 17 17 0 0 0
M  V30 BEGIN ATOM
M  V30 1 N -1.75743 -0.89473 -1.11787 0
M  V30 2 C -1.3644 0.305345 -0.396284 0
M  V30 3 C -2.09084 0.287356 0.931575 0
M  V30 4 F -1.74297 -0.842845 1.6576 0
M  V30 5 F -3.44109 0.357164 0.711954 0
M  V30 6 F -1.73388 1.42289 1.64031 0
M  V30 7 C 0.0942926 0.405471 -0.243321 0
M  V30 8 O 0.790694 1.49578 -0.442892 0
M  V30 9 N 2.04366 1.28352 -0.233517 0
M  V30 10 C 2.22432 0.00176956 0.123823 0
M  V30 11 N 0.991441 -0.535203 0.112824 0
M  V30 12 N 3.42716 -0.678908 0.449533 0
M  V30 13 H -2.53931 -0.665018 -1.77078 0
M  V30 14 H -0.952998 -1.27906 -1.64236 0
M  V30 15 H -1.73097 1.18157 -0.965076 0
M  V30 16 H 4.01227 -0.317797 1.23149 0
M  V30 17 H 3.77007 -1.5273 -0.0470013 0
M  V30 END ATOM
M  V30 BEGIN BOND
M  V30 1 1 1 2
M  V30 2 1 2 3
M  V30 3 1 3 4
M  V30 4 1 3 5
M  V30 5 1 3 6
M  V30 6 1 2 7
M  V30 7 1 7 8
M  V30 8 1 8 9
M  V30 9 2 9 10
M  V30 10 1 10 11
M  V30 11 1 10 12
M  V30 12 2 11 7
M  V30 13 1 1 13
M  V30 14 1 1 14
M  V30 15 1 2 15
M  V30 16 1 12 16
M  V30 17 1 12 17
M  V30 END BOND
M  V30 END CTAB
M  END
