
     RDKit          3D

  0  0  0  0  0  0  0  0  0  0999 V3000
M  V30 BEGIN CTAB
M  V30 COUNTS 21 22 0 0 0
M  V30 BEGIN ATOM
M  V30 1 N 3.81855 -1.437 0.203339 0
M  V30 2 C 3.34462 -0.294986 -0.539831 0
M  V30 3 C 1.86766 -0.121548 -0.366613 0
M  V30 4 N 1.23629 0.59927 0.579486 0
M  V30 5 C -0.104278 0.508326 0.401777 0
M  V30 6 C -0.25739 -0.307345 -0.704461 0
M  V30 7 O 0.936885 -0.655633 -1.12507 0
M  V30 8 C -1.52951 -0.585816 -1.13225 0
M  V30 9 C -2.63141 -0.0698726 -0.481771 0
M  V30 10 C -2.49936 0.748991 0.627905 0
M  V30 11 C -1.20764 1.01905 1.04517 0
M  V30 12 N -3.64538 1.27046 1.28405 0
M  V30 13 H 3.12889 -2.20876 0.13463 0
M  V30 14 H 4.70419 -1.75125 -0.247997 0
M  V30 15 H 3.53134 -0.402605 -1.63242 0
M  V30 16 H 3.9049 0.601627 -0.213119 0
M  V30 17 H -1.72304 -1.21435 -1.98779 0
M  V30 18 H -3.63885 -0.281984 -0.809197 0
M  V30 19 H -1.0694 1.64499 1.89494 0
M  V30 20 H -3.63538 2.21265 1.72759 0
M  V30 21 H -4.53168 0.72579 1.34165 0
M  V30 END ATOM
M  V30 BEGIN BOND
M  V30 1 1 1 2
M  V30 2 1 2 3
M  V30 3 2 3 4
M  V30 4 1 4 5
M  V30 5 2 5 6
M  V30 6 1 6 7
M  V30 7 1 6 8
M  V30 8 2 8 9
M  V30 9 1 9 10
M  V30 10 2 10 11
M  V30 11 1 10 12
M  V30 12 1 7 3
M  V30 13 1 11 5
M  V30 14 1 1 13
M  V30 15 1 1 14
M  V30 16 1 2 15
M  V30 17 1 2 16
M  V30 18 1 8 17
M  V30 19 1 9 18
M  V30 20 1 11 19
M  V30 21 1 12 20
M  V30 22 1 12 21
M  V30 END BOND
M  V30 END CTAB
M  END
