
     RDKit          3D

  0  0  0  0  0  0  0  0  0  0999 V3000
M  V30 BEGIN CTAB
M  V30 COUNTS 37 39 0 0 0
M  V30 BEGIN ATOM
M  V30 1 C 4.56496 0.41039 -0.214929 0
M  V30 2 N 3.36977 -0.36865 0.0793285 0
M  V30 3 C 3.44524 -1.63248 0.517228 0
M  V30 4 O 4.5723 -2.16402 0.679916 0
M  V30 5 N 2.35864 -2.35899 0.791116 0
M  V30 6 C 1.12413 -1.81337 0.625636 0
M  V30 7 O 0.140633 -2.53762 0.896756 0
M  V30 8 C 0.96425 -0.53204 0.183292 0
M  V30 9 C 2.15321 0.160041 -0.0806223 0
M  V30 10 N 2.10857 1.43338 -0.522251 0
M  V30 11 C 0.953412 2.03658 -0.709181 0
M  V30 12 N 0.917842 3.37264 -1.17278 0
M  V30 13 C -0.273592 1.37105 -0.453802 0
M  V30 14 C -1.47211 2.1454 -0.699736 0
M  V30 15 N -2.74438 1.60336 -0.488814 0
M  V30 16 C -0.278826 0.086199 -0.00710929 0
M  V30 17 C -1.4769 -0.659394 0.275743 0
M  V30 18 C -2.08919 -0.67081 1.53769 0
M  V30 19 Cl -1.37846 0.265632 2.83676 0
M  V30 20 C -3.22847 -1.41013 1.73603 0
M  V30 21 C -3.82008 -2.16363 0.731865 0
M  V30 22 C -3.23421 -2.16367 -0.50926 0
M  V30 23 F -3.79577 -2.8892 -1.49372 0
M  V30 24 C -2.11027 -1.43717 -0.713153 0
M  V30 25 H 4.5754 0.659724 -1.30384 0
M  V30 26 H 4.49243 1.38281 0.314418 0
M  V30 27 H 5.46428 -0.149286 0.0876807 0
M  V30 28 H 2.44038 -3.33684 1.12947 0
M  V30 29 H 1.12152 4.20959 -0.600797 0
M  V30 30 H 0.663697 3.51636 -2.178 0
M  V30 31 H -1.44936 2.48857 -1.79403 0
M  V30 32 H -1.42937 3.16821 -0.185939 0
M  V30 33 H -3.23881 1.42395 -1.36848 0
M  V30 34 H -3.31283 2.17231 0.150636 0
M  V30 35 H -3.70995 -1.42239 2.71918 0
M  V30 36 H -4.72584 -2.74157 0.919007 0
M  V30 37 H -1.66226 -1.45492 -1.71531 0
M  V30 END ATOM
M  V30 BEGIN BOND
M  V30 1 1 1 2
M  V30 2 1 2 3
M  V30 3 2 3 4
M  V30 4 1 3 5
M  V30 5 1 5 6
M  V30 6 2 6 7
M  V30 7 1 6 8
M  V30 8 2 8 9
M  V30 9 1 9 10
M  V30 10 2 10 11
M  V30 11 1 11 12
M  V30 12 1 11 13
M  V30 13 1 13 14
M  V30 14 1 14 15
M  V30 15 2 13 16
M  V30 16 1 16 17
M  V30 17 2 17 18
M  V30 18 1 18 19
M  V30 19 1 18 20
M  V30 20 2 20 21
M  V30 21 1 21 22
M  V30 22 1 22 23
M  V30 23 2 22 24
M  V30 24 1 9 2
M  V30 25 1 24 17
M  V30 26 1 16 8
M  V30 27 1 1 25
M  V30 28 1 1 26
M  V30 29 1 1 27
M  V30 30 1 5 28
M  V30 31 1 12 29
M  V30 32 1 12 30
M  V30 33 1 14 31
M  V30 34 1 14 32
M  V30 35 1 15 33
M  V30 36 1 15 34
M  V30 37 1 20 35
M  V30 38 1 21 36
M  V30 39 1 24 37
M  V30 END BOND
M  V30 END CTAB
M  END
