
     RDKit          3D

  0  0  0  0  0  0  0  0  0  0999 V3000
M  V30 BEGIN CTAB
M  V30 COUNTS 27 28 0 0 0
M  V30 BEGIN ATOM
M  V30 1 N 3.88872 0.381123 -1.40493 0
M  V30 2 C 3.0107 0.0942843 -0.32286 0
M  V30 3 C 3.4001 0.337995 0.98592 0
M  V30 4 C 2.5516 0.0608153 2.03671 0
M  V30 5 C 1.27463 -0.474629 1.79955 0
M  V30 6 C 0.883847 -0.717193 0.507416 0
M  V30 7 C 1.75435 -0.431583 -0.546709 0
M  V30 8 O -0.325078 -1.22495 0.225725 0
M  V30 9 C -1.47789 -0.677762 -0.231611 0
M  V30 10 C -1.99124 -1.17153 -1.45028 0
M  V30 11 C -3.16804 -0.643676 -1.95971 0
M  V30 12 C -3.85598 0.353231 -1.31022 0
M  V30 13 C -3.36504 0.839902 -0.124942 0
M  V30 14 C -2.16873 0.312922 0.406105 0
M  V30 15 N -1.66495 0.821609 1.63021 0
M  V30 16 H 3.96003 1.32667 -1.83517 0
M  V30 17 H 4.49472 -0.380826 -1.79544 0
M  V30 18 H 4.378 0.751974 1.228 0
M  V30 19 H 2.84982 0.248856 3.06046 0
M  V30 20 H 0.672721 -0.676527 2.67707 0
M  V30 21 H 1.48134 -0.610054 -1.58115 0
M  V30 22 H -1.45024 -1.95953 -1.96659 0
M  V30 23 H -3.57343 -1.01072 -2.89058 0
M  V30 24 H -4.76107 0.735218 -1.73496 0
M  V30 25 H -3.87036 1.63135 0.433586 0
M  V30 26 H -1.69575 0.314965 2.53756 0
M  V30 27 H -1.23278 1.76806 1.62682 0
M  V30 END ATOM
M  V30 BEGIN BOND
M  V30 1 1 1 2
M  V30 2 2 2 3
M  V30 3 1 3 4
M  V30 4 2 4 5
M  V30 5 1 5 6
M  V30 6 2 6 7
M  V30 7 1 6 8
M  V30 8 1 8 9
M  V30 9 2 9 10
M  V30 10 1 10 11
M  V30 11 2 11 12
M  V30 12 1 12 13
M  V30 13 2 13 14
M  V30 14 1 14 15
M  V30 15 1 7 2
M  V30 16 1 14 9
M  V30 17 1 1 16
M  V30 18 1 1 17
M  V30 19 1 3 18
M  V30 20 1 4 19
M  V30 21 1 5 20
M  V30 22 1 7 21
M  V30 23 1 10 22
M  V30 24 1 11 23
M  V30 25 1 12 24
M  V30 26 1 13 25
M  V30 27 1 15 26
M  V30 28 1 15 27
M  V30 END BOND
M  V30 END CTAB
M  END
