
     RDKit          3D

  0  0  0  0  0  0  0  0  0  0999 V3000
M  V30 BEGIN CTAB
M  V30 COUNTS 32 33 0 0 0
M  V30 BEGIN ATOM
M  V30 1 N 2.91226 1.49694 -0.400007 0
M  V30 2 C 2.43945 0.586382 0.627721 0
M  V30 3 C 1.36264 -0.344962 0.117596 0
M  V30 4 C 0.156819 0.284111 -0.386757 0
M  V30 5 C -0.67035 1.14922 0.510013 0
M  V30 6 C -2.03425 1.19705 -0.192871 0
M  V30 7 C -1.74937 0.598891 -1.58224 0
M  V30 8 C -0.910368 -0.572484 -0.996853 0
M  V30 9 C -1.89632 -1.1146 -0.0252659 0
M  V30 10 C -2.86318 0.025917 0.339656 0
M  V30 11 N 2.00862 -1.02472 -1.0263 0
M  V30 12 C 1.21643 -1.40896 1.17419 0
M  V30 13 H 3.31772 0.921552 -1.17176 0
M  V30 14 H 2.10949 2.05117 -0.739174 0
M  V30 15 H 3.32581 0.00471247 0.958716 0
M  V30 16 H 2.12968 1.19389 1.48581 0
M  V30 17 H 0.436975 0.996424 -1.24078 0
M  V30 18 H -0.871503 0.746041 1.49982 0
M  V30 19 H -0.256604 2.18912 0.544992 0
M  V30 20 H -2.51443 2.13954 -0.198707 0
M  V30 21 H -2.66584 0.220443 -2.0373 0
M  V30 22 H -1.13564 1.25213 -2.19362 0
M  V30 23 H -0.605777 -1.21775 -1.80263 0
M  V30 24 H -2.45792 -1.99094 -0.403797 0
M  V30 25 H -1.4065 -1.35944 0.933874 0
M  V30 26 H -3.77635 -0.0911926 -0.273133 0
M  V30 27 H -3.0528 0.0966059 1.40831 0
M  V30 28 H 1.42201 -1.02217 -1.86679 0
M  V30 29 H 2.3656 -1.95388 -0.790633 0
M  V30 30 H 0.663092 -1.0273 2.0796 0
M  V30 31 H 2.22661 -1.6865 1.59897 0
M  V30 32 H 0.773985 -2.33523 0.841282 0
M  V30 END ATOM
M  V30 BEGIN BOND
M  V30 1 1 1 2
M  V30 2 1 2 3
M  V30 3 1 3 4
M  V30 4 1 4 5
M  V30 5 1 5 6
M  V30 6 1 6 7
M  V30 7 1 7 8
M  V30 8 1 8 9
M  V30 9 1 9 10
M  V30 10 1 3 11
M  V30 11 1 3 12
M  V30 12 1 8 4
M  V30 13 1 10 6
M  V30 14 1 1 13
M  V30 15 1 1 14
M  V30 16 1 2 15
M  V30 17 1 2 16
M  V30 18 1 4 17
M  V30 19 1 5 18
M  V30 20 1 5 19
M  V30 21 1 6 20
M  V30 22 1 7 21
M  V30 23 1 7 22
M  V30 24 1 8 23
M  V30 25 1 9 24
M  V30 26 1 9 25
M  V30 27 1 10 26
M  V30 28 1 10 27
M  V30 29 1 11 28
M  V30 30 1 11 29
M  V30 31 1 12 30
M  V30 32 1 12 31
M  V30 33 1 12 32
M  V30 END BOND
M  V30 END CTAB
M  END
