
     RDKit          3D

  0  0  0  0  0  0  0  0  0  0999 V3000
M  V30 BEGIN CTAB
M  V30 COUNTS 174 178 0 0 0
M  V30 BEGIN ATOM
M  V30 1 C 2.66462 -3.8734 -1.8216 0 CFG=2
M  V30 2 C 1.95972 -5.23064 -1.83381 0
M  V30 3 C 3.16162 -6.12691 -2.04473 0
M  V30 4 C 4.39057 -5.26464 -1.69886 0
M  V30 5 N 3.74172 -4.14858 -0.947932 0
M  V30 6 C 4.13399 -3.63275 0.281321 0
M  V30 7 O 3.95227 -4.47601 1.27112 0
M  V30 8 C 4.70387 -2.34386 0.683294 0 CFG=1
M  V30 9 C 5.18666 -2.24726 2.10457 0
M  V30 10 C 6.22229 -3.15405 2.56201 0
M  V30 11 C 5.99335 -4.22764 3.38085 0
M  V30 12 C 6.94982 -5.12799 3.80355 0
M  V30 13 C 8.25263 -4.94669 3.3769 0
M  V30 14 C 8.53787 -3.89474 2.56327 0
M  V30 15 C 7.54437 -3.00683 2.15708 0
M  V30 16 N 5.82561 -1.87503 -0.147719 0
M  V30 17 C 6.09715 -0.506811 -0.411699 0
M  V30 18 O 7.25758 -0.0756995 -0.158303 0
M  V30 19 C 5.14273 0.470093 -0.957169 0 CFG=2
M  V30 20 C 5.04541 0.579199 -2.4399 0
M  V30 21 C 6.23312 0.955632 -3.227 0
M  V30 22 C 7.41839 0.0571977 -3.19705 0
M  V30 23 C 5.76964 1.05831 -4.69551 0
M  V30 24 N 5.36934 1.79039 -0.341729 0
M  V30 25 C 4.45667 2.83915 -0.279439 0
M  V30 26 O 4.86885 3.97816 -0.732464 0
M  V30 27 C 3.0719 2.84099 0.236395 0 CFG=2
M  V30 28 C 3.01072 2.21109 1.6315 0
M  V30 29 C 3.89253 3.00373 2.54692 0
M  V30 30 C 3.51107 4.43892 2.70243 0
M  V30 31 N 4.41502 5.1227 3.6234 0
M  V30 32 N 2.12303 2.10259 -0.566537 0
M  V30 33 C 1.29102 2.54111 -1.5873 0
M  V30 34 O 1.41965 1.98869 -2.74338 0
M  V30 35 C 0.236278 3.58076 -1.56021 0 CFG=1
M  V30 36 N -0.0925599 4.0722 -0.255199 0
M  V30 37 C -1.12107 3.65124 0.583156 0
M  V30 38 O -0.796773 3.22008 1.75572 0
M  V30 39 C -2.58769 3.62655 0.314304 0 CFG=2
M  V30 40 C -3.01362 4.6548 -0.712815 0
M  V30 41 C -3.67385 5.79095 0.0408469 0
M  V30 42 C -3.10267 5.56463 1.44937 0
M  V30 43 N -3.29312 4.10831 1.51702 0
M  V30 44 C -3.94055 3.27813 2.42911 0
M  V30 45 O -3.7079 3.43701 3.68955 0
M  V30 46 C -4.90366 2.18663 2.14727 0 CFG=2
M  V30 47 C -6.23604 2.60723 2.78045 0
M  V30 48 C -6.80238 3.83487 2.26642 0
M  V30 49 C -6.60586 5.04233 2.8791 0
M  V30 50 C -7.13297 6.21081 2.39052 0
M  V30 51 C -7.8882 6.18932 1.24594 0
M  V30 52 C -8.11092 4.99417 0.596771 0
M  V30 53 C -7.56919 3.83479 1.11018 0
M  V30 54 N -4.43117 0.953694 2.74162 0
M  V30 55 C -4.94817 -0.331655 2.6041 0
M  V30 56 O -5.29313 -0.978656 3.67143 0
M  V30 57 C -5.18773 -1.14062 1.37276 0 CFG=2
M  V30 58 C -6.63147 -0.866727 1.00008 0
M  V30 59 C -7.12952 -1.55823 -0.212475 0
M  V30 60 C -6.39738 -1.22619 -1.48108 0
M  V30 61 C -8.61313 -1.18374 -0.36303 0
M  V30 62 N -4.99177 -2.55902 1.66357 0
M  V30 63 C -4.65362 -3.61089 0.847544 0
M  V30 64 O -5.39172 -4.67221 0.940794 0
M  V30 65 C -3.57602 -3.7742 -0.148104 0 CFG=1
M  V30 66 C -4.07441 -4.49977 -1.39254 0
M  V30 67 C -2.9337 -4.62646 -2.3481 0
M  V30 68 C -3.44691 -5.36022 -3.58506 0
M  V30 69 N -3.91514 -6.66414 -3.1172 0
M  V30 70 N -2.85506 -2.57005 -0.474255 0
M  V30 71 C -1.57697 -2.19863 -0.0104524 0
M  V30 72 O -1.41443 -1.08864 0.537256 0
M  V30 73 C -0.339947 -3.06475 -0.127234 0 CFG=1
M  V30 74 N 0.403829 -2.70878 -1.30356 0
M  V30 75 C 1.76301 -2.77166 -1.6355 0
M  V30 76 O 2.29658 -1.62289 -1.81216 0
M  V30 77 C 0.347566 -2.94065 1.18107 0
M  V30 78 C -0.529122 -3.40939 2.33814 0
M  V30 79 C 0.875181 -1.59327 1.53205 0
M  V30 80 C 0.592408 4.66155 -2.56282 0
M  V30 81 C 1.90619 5.3371 -2.27651 0
M  V30 82 C 0.565815 4.13952 -3.97831 0
M  V30 83 H 3.11237 -3.83136 -2.8505 0
M  V30 84 H 1.52916 -5.48068 -0.859712 0
M  V30 85 H 1.23844 -5.28005 -2.67626 0
M  V30 86 H 3.29008 -6.4106 -3.10814 0
M  V30 87 H 3.10718 -7.03464 -1.41244 0
M  V30 88 H 4.8155 -4.81409 -2.59359 0
M  V30 89 H 5.01899 -5.90249 -1.10049 0
M  V30 90 H 3.8812 -1.56149 0.626198 0
M  V30 91 H 4.26303 -2.36023 2.76639 0
M  V30 92 H 5.46163 -1.15829 2.33536 0
M  V30 93 H 5.00422 -4.40215 3.76947 0
M  V30 94 H 6.68566 -5.96354 4.45597 0
M  V30 95 H 9.01192 -5.66414 3.71393 0
M  V30 96 H 9.55421 -3.74788 2.22503 0
M  V30 97 H 7.85506 -2.21337 1.52731 0
M  V30 98 H 6.43224 -2.62255 -0.542009 0
M  V30 99 H 4.12883 0.103651 -0.61409 0
M  V30 100 H 4.18225 1.26625 -2.66789 0
M  V30 101 H 4.72788 -0.464321 -2.79027 0
M  V30 102 H 6.57648 2.01274 -3.00829 0
M  V30 103 H 7.21571 -0.974332 -2.84473 0
M  V30 104 H 8.32437 0.51319 -2.70524 0
M  V30 105 H 7.81512 -0.126081 -4.25835 0
M  V30 106 H 6.58732 1.47816 -5.31632 0
M  V30 107 H 5.59435 0.022814 -5.0381 0
M  V30 108 H 4.8283 1.64759 -4.74848 0
M  V30 109 H 6.31955 1.91862 0.0748737 0
M  V30 110 H 2.70156 3.89745 0.40164 0
M  V30 111 H 1.95283 2.35535 1.9569 0
M  V30 112 H 3.25244 1.1476 1.61309 0
M  V30 113 H 3.90812 2.55987 3.57969 0
M  V30 114 H 4.94394 3.00614 2.12975 0
M  V30 115 H 3.53715 5.03113 1.77208 0
M  V30 116 H 2.48892 4.56801 3.1381 0
M  V30 117 H 4.42227 6.15524 3.46156 0
M  V30 118 H 5.4093 4.81073 3.51166 0
M  V30 119 H 2.05071 1.05624 -0.329854 0
M  V30 120 H -0.741851 3.15803 -1.95881 0
M  V30 121 H 0.525129 4.85971 0.141413 0
M  V30 122 H -2.97183 2.65442 0.0455804 0
M  V30 123 H -2.09322 5.09097 -1.14401 0
M  V30 124 H -3.673 4.23444 -1.50183 0
M  V30 125 H -3.34433 6.77464 -0.353196 0
M  V30 126 H -4.77155 5.7278 0.0425058 0
M  V30 127 H -2.03481 5.82259 1.44023 0
M  V30 128 H -3.70418 6.1312 2.14984 0
M  V30 129 H -5.04331 2.0676 1.04431 0
M  V30 130 H -6.92608 1.7461 2.65968 0
M  V30 131 H -6.07499 2.6456 3.90866 0
M  V30 132 H -6.01337 5.1282 3.8014 0
M  V30 133 H -6.96147 7.1543 2.89969 0
M  V30 134 H -8.32121 7.11614 0.837354 0
M  V30 135 H -8.71144 5.01699 -0.300248 0
M  V30 136 H -7.76383 2.90386 0.578212 0
M  V30 137 H -3.57283 1.03281 3.38771 0
M  V30 138 H -4.5083 -0.797096 0.593842 0
M  V30 139 H -6.79491 0.233724 0.831332 0
M  V30 140 H -7.29002 -1.12062 1.85359 0
M  V30 141 H -7.13928 -2.65498 -0.054255 0
M  V30 142 H -6.31011 -2.09633 -2.13161 0
M  V30 143 H -7.01474 -0.460464 -2.01659 0
M  V30 144 H -5.43808 -0.734385 -1.2129 0
M  V30 145 H -9.20856 -1.73861 0.390686 0
M  V30 146 H -8.98678 -1.49305 -1.35961 0
M  V30 147 H -8.76175 -0.10962 -0.176575 0
M  V30 148 H -5.15212 -2.78639 2.7051 0
M  V30 149 H -2.78763 -4.48712 0.258949 0
M  V30 150 H -4.38613 -5.51721 -1.01225 0
M  V30 151 H -4.93714 -4.03238 -1.86404 0
M  V30 152 H -2.55998 -3.60831 -2.59076 0
M  V30 153 H -2.14287 -5.24342 -1.86485 0
M  V30 154 H -2.65445 -5.45453 -4.32959 0
M  V30 155 H -4.31109 -4.8314 -4.01303 0
M  V30 156 H -4.90602 -6.58239 -2.76896 0
M  V30 157 H -3.33008 -7.01327 -2.31758 0
M  V30 158 H -3.35991 -1.90881 -1.14077 0
M  V30 159 H -0.635233 -4.12916 -0.250909 0
M  V30 160 H -0.275896 -2.30544 -2.07655 0
M  V30 161 H 1.19183 -3.66732 1.17303 0
M  V30 162 H -1.07631 -4.34268 2.10083 0
M  V30 163 H -1.287 -2.59841 2.52236 0
M  V30 164 H 0.0460332 -3.5642 3.26201 0
M  V30 165 H 1.89459 -1.72039 1.9778 0
M  V30 166 H 1.02529 -0.923479 0.662739 0
M  V30 167 H 0.288684 -1.0974 2.34152 0
M  V30 168 H -0.177603 5.49185 -2.51442 0
M  V30 169 H 1.99063 5.54513 -1.19245 0
M  V30 170 H 1.90395 6.31631 -2.82372 0
M  V30 171 H 2.75243 4.6974 -2.59521 0
M  V30 172 H -0.180627 3.33456 -4.03901 0
M  V30 173 H 1.57854 3.84241 -4.33008 0
M  V30 174 H 0.218416 4.97994 -4.63279 0
M  V30 END ATOM
M  V30 BEGIN BOND
M  V30 1 1 1 2
M  V30 2 1 2 3
M  V30 3 1 3 4
M  V30 4 1 4 5
M  V30 5 1 5 6
M  V30 6 2 6 7
M  V30 7 1 6 8
M  V30 8 1 8 9
M  V30 9 1 9 10
M  V30 10 2 10 11
M  V30 11 1 11 12
M  V30 12 2 12 13
M  V30 13 1 13 14
M  V30 14 2 14 15
M  V30 15 1 8 16
M  V30 16 1 16 17
M  V30 17 2 17 18
M  V30 18 1 17 19
M  V30 19 1 19 20
M  V30 20 1 20 21
M  V30 21 1 21 22
M  V30 22 1 21 23
M  V30 23 1 19 24
M  V30 24 1 24 25
M  V30 25 2 25 26
M  V30 26 1 25 27
M  V30 27 1 27 28
M  V30 28 1 28 29
M  V30 29 1 29 30
M  V30 30 1 30 31
M  V30 31 1 27 32
M  V30 32 1 32 33
M  V30 33 2 33 34
M  V30 34 1 33 35
M  V30 35 1 35 36
M  V30 36 1 36 37
M  V30 37 2 37 38
M  V30 38 1 37 39
M  V30 39 1 39 40
M  V30 40 1 40 41
M  V30 41 1 41 42
M  V30 42 1 42 43
M  V30 43 1 43 44
M  V30 44 2 44 45
M  V30 45 1 44 46
M  V30 46 1 46 47
M  V30 47 1 47 48
M  V30 48 2 48 49
M  V30 49 1 49 50
M  V30 50 2 50 51
M  V30 51 1 51 52
M  V30 52 2 52 53
M  V30 53 1 46 54
M  V30 54 1 54 55
M  V30 55 2 55 56
M  V30 56 1 55 57
M  V30 57 1 57 58
M  V30 58 1 58 59
M  V30 59 1 59 60
M  V30 60 1 59 61
M  V30 61 1 57 62
M  V30 62 1 62 63
M  V30 63 2 63 64
M  V30 64 1 63 65
M  V30 65 1 65 66
M  V30 66 1 66 67
M  V30 67 1 67 68
M  V30 68 1 68 69
M  V30 69 1 65 70
M  V30 70 1 70 71
M  V30 71 2 71 72
M  V30 72 1 71 73
M  V30 73 1 73 74
M  V30 74 1 74 75
M  V30 75 2 75 76
M  V30 76 1 73 77
M  V30 77 1 77 78
M  V30 78 1 77 79
M  V30 79 1 35 80
M  V30 80 1 80 81
M  V30 81 1 80 82
M  V30 82 1 5 1
M  V30 83 1 15 10
M  V30 84 1 43 39
M  V30 85 1 53 48
M  V30 86 1 75 1
M  V30 87 1 1 83 CFG=3
M  V30 88 1 2 84
M  V30 89 1 2 85
M  V30 90 1 3 86
M  V30 91 1 3 87
M  V30 92 1 4 88
M  V30 93 1 4 89
M  V30 94 1 8 90 CFG=1
M  V30 95 1 9 91
M  V30 96 1 9 92
M  V30 97 1 11 93
M  V30 98 1 12 94
M  V30 99 1 13 95
M  V30 100 1 14 96
M  V30 101 1 15 97
M  V30 102 1 16 98
M  V30 103 1 19 99 CFG=1
M  V30 104 1 20 100
M  V30 105 1 20 101
M  V30 106 1 21 102
M  V30 107 1 22 103
M  V30 108 1 22 104
M  V30 109 1 22 105
M  V30 110 1 23 106
M  V30 111 1 23 107
M  V30 112 1 23 108
M  V30 113 1 24 109
M  V30 114 1 27 110 CFG=1
M  V30 115 1 28 111
M  V30 116 1 28 112
M  V30 117 1 29 113
M  V30 118 1 29 114
M  V30 119 1 30 115
M  V30 120 1 30 116
M  V30 121 1 31 117
M  V30 122 1 31 118
M  V30 123 1 32 119
M  V30 124 1 35 120 CFG=3
M  V30 125 1 36 121
M  V30 126 1 39 122 CFG=3
M  V30 127 1 40 123
M  V30 128 1 40 124
M  V30 129 1 41 125
M  V30 130 1 41 126
M  V30 131 1 42 127
M  V30 132 1 42 128
M  V30 133 1 46 129 CFG=3
M  V30 134 1 47 130
M  V30 135 1 47 131
M  V30 136 1 49 132
M  V30 137 1 50 133
M  V30 138 1 51 134
M  V30 139 1 52 135
M  V30 140 1 53 136
M  V30 141 1 54 137
M  V30 142 1 57 138 CFG=3
M  V30 143 1 58 139
M  V30 144 1 58 140
M  V30 145 1 59 141
M  V30 146 1 60 142
M  V30 147 1 60 143
M  V30 148 1 60 144
M  V30 149 1 61 145
M  V30 150 1 61 146
M  V30 151 1 61 147
M  V30 152 1 62 148
M  V30 153 1 65 149 CFG=1
M  V30 154 1 66 150
M  V30 155 1 66 151
M  V30 156 1 67 152
M  V30 157 1 67 153
M  V30 158 1 68 154
M  V30 159 1 68 155
M  V30 160 1 69 156
M  V30 161 1 69 157
M  V30 162 1 70 158
M  V30 163 1 73 159 CFG=3
M  V30 164 1 74 160
M  V30 165 1 77 161
M  V30 166 1 78 162
M  V30 167 1 78 163
M  V30 168 1 78 164
M  V30 169 1 79 165
M  V30 170 1 79 166
M  V30 171 1 79 167
M  V30 172 1 80 168
M  V30 173 1 81 169
M  V30 174 1 81 170
M  V30 175 1 81 171
M  V30 176 1 82 172
M  V30 177 1 82 173
M  V30 178 1 82 174
M  V30 END BOND
M  V30 END CTAB
M  END
