
     RDKit          3D

  0  0  0  0  0  0  0  0  0  0999 V3000
M  V30 BEGIN CTAB
M  V30 COUNTS 82 87 0 0 0
M  V30 BEGIN ATOM
M  V30 1 C 3.75285 -2.66365 2.5519 0
M  V30 2 C 3.13066 -2.02753 1.35806 0
M  V30 3 C 3.87417 -1.87661 0.20804 0
M  V30 4 C 3.26321 -1.28369 -0.875818 0
M  V30 5 C 1.94968 -0.861272 -0.792731 0
M  V30 6 C 1.19981 -1.00915 0.355525 0
M  V30 7 C 1.80705 -1.60237 1.44269 0
M  V30 8 C -0.184264 -0.537645 0.384823 0
M  V30 9 C -0.538031 0.569593 -0.372362 0
M  V30 10 C -1.85118 1.01599 -0.339481 0
M  V30 11 C -2.2496 2.20579 -1.14757 0
M  V30 12 C -2.82192 0.401385 0.418056 0
M  V30 13 C -2.44875 -0.697685 1.16281 0
M  V30 14 C -1.14061 -1.1589 1.14265 0
M  V30 15 N -4.15804 0.889568 0.429927 0
M  V30 16 N -5.1783 0.269327 0.17941 0
M  V30 17 C -6.53474 0.632617 0.157284 0
M  V30 18 C -7.38766 -0.27924 -0.481603 0
M  V30 19 O -6.86343 -1.44202 -1.03648 0
M  V30 20 C -8.75054 -0.0766868 -0.589889 0
M  V30 21 C -9.56867 -0.988329 -1.22258 0
M  V30 22 N -8.99316 -2.15569 -1.77151 0
M  V30 23 C -10.9117 -0.770333 -1.31886 0
M  V30 24 C -11.4551 0.391046 -0.767911 0
M  V30 25 C -10.6294 1.29312 -0.139117 0
M  V30 26 C -9.27272 1.0843 -0.0356569 0
M  V30 27 C -8.42362 1.96409 0.584848 0
M  V30 28 C -7.06564 1.75711 0.689947 0
M  V30 29 S -6.09287 2.9485 1.50048 0
M  V30 30 O -5.31694 2.20783 2.8146 0
M  V30 31 O -5.13417 3.65855 0.612851 0
M  V30 32 O -7.00473 4.04635 2.06016 0
M  V30 33 S -13.1817 0.616622 -0.919013 0
M  V30 34 O -14.0014 -0.0506036 0.399459 0
M  V30 35 O -13.5545 2.0611 -1.08544 0
M  V30 36 O -13.6611 -0.12013 -2.14413 0
M  V30 37 N 5.24842 -2.31828 0.135186 0
M  V30 38 N 6.17058 -1.6456 0.0677084 0
M  V30 39 C 7.30659 -0.957306 -0.0127678 0
M  V30 40 C 8.53877 -1.50927 -0.410978 0
M  V30 41 O 8.57689 -2.85419 -0.742024 0
M  V30 42 C 9.67568 -0.772379 -0.479131 0
M  V30 43 C 10.8748 -1.37669 -0.883059 0
M  V30 44 N 10.8721 -2.76312 -1.21541 0
M  V30 45 C 12.0174 -0.61694 -0.947346 0
M  V30 46 C 11.9983 0.721256 -0.621837 0
M  V30 47 C 10.8185 1.31921 -0.22367 0
M  V30 48 C 9.68236 0.554568 -0.162042 0
M  V30 49 C 8.49397 1.14619 0.236183 0
M  V30 50 C 7.35142 0.407573 0.305202 0
M  V30 51 S 10.8055 3.03673 0.191752 0
M  V30 52 O 10.3146 3.25747 1.78592 0
M  V30 53 O 9.94006 3.76312 -0.779484 0
M  V30 54 O 12.2094 3.57263 0.0564491 0
M  V30 55 H 3.36994 -2.14328 3.44135 0
M  V30 56 H 3.54468 -3.75627 2.56541 0
M  V30 57 H 4.85475 -2.51012 2.51209 0
M  V30 58 H 3.82292 -1.15333 -1.78974 0
M  V30 59 H 1.47154 -0.39033 -1.6608 0
M  V30 60 H 1.22149 -1.71987 2.34383 0
M  V30 61 H 0.198182 1.07848 -0.978596 0
M  V30 62 H -3.27982 2.06 -1.49189 0
M  V30 63 H -1.51537 2.3529 -1.96756 0
M  V30 64 H -2.22831 3.12315 -0.498395 0
M  V30 65 H -3.20216 -1.18739 1.76104 0
M  V30 66 H -0.925477 -2.01759 1.74685 0
M  V30 67 H -5.86534 -1.65098 -0.989661 0
M  V30 68 H -8.61887 -2.12869 -2.73054 0
M  V30 69 H -8.9506 -3.02054 -1.21652 0
M  V30 70 H -11.5612 -1.49851 -1.82401 0
M  V30 71 H -11.0571 2.18529 0.283159 0
M  V30 72 H -8.87822 2.86268 1.00495 0
M  V30 73 H -5.81463 2.39754 3.66839 0
M  V30 74 H -13.4363 -0.732977 0.811817 0
M  V30 75 H 7.72448 -3.38711 -0.685788 0
M  V30 76 H 10.7037 -3.08905 -2.20664 0
M  V30 77 H 11.0346 -3.5109 -0.502381 0
M  V30 78 H 12.9675 -1.05122 -1.2574 0
M  V30 79 H 12.8874 1.35056 -0.661644 0
M  V30 80 H 8.51713 2.2031 0.484329 0
M  V30 81 H 6.4308 0.864903 0.613333 0
M  V30 82 H 11.0861 3.09324 2.38942 0
M  V30 END ATOM
M  V30 BEGIN BOND
M  V30 1 1 1 2
M  V30 2 2 2 3
M  V30 3 1 3 4
M  V30 4 2 4 5
M  V30 5 1 5 6
M  V30 6 2 6 7
M  V30 7 1 6 8
M  V30 8 2 8 9
M  V30 9 1 9 10
M  V30 10 1 10 11
M  V30 11 2 10 12
M  V30 12 1 12 13
M  V30 13 2 13 14
M  V30 14 1 12 15
M  V30 15 2 15 16
M  V30 16 1 16 17
M  V30 17 2 17 18
M  V30 18 1 18 19
M  V30 19 1 18 20
M  V30 20 2 20 21
M  V30 21 1 21 22
M  V30 22 1 21 23
M  V30 23 2 23 24
M  V30 24 1 24 25
M  V30 25 2 25 26
M  V30 26 1 26 27
M  V30 27 2 27 28
M  V30 28 1 28 29
M  V30 29 1 29 30
M  V30 30 2 29 31
M  V30 31 2 29 32
M  V30 32 1 24 33
M  V30 33 1 33 34
M  V30 34 2 33 35
M  V30 35 2 33 36
M  V30 36 1 3 37
M  V30 37 2 37 38
M  V30 38 1 38 39
M  V30 39 2 39 40
M  V30 40 1 40 41
M  V30 41 1 40 42
M  V30 42 2 42 43
M  V30 43 1 43 44
M  V30 44 1 43 45
M  V30 45 2 45 46
M  V30 46 1 46 47
M  V30 47 2 47 48
M  V30 48 1 48 49
M  V30 49 2 49 50
M  V30 50 1 47 51
M  V30 51 1 51 52
M  V30 52 2 51 53
M  V30 53 2 51 54
M  V30 54 1 7 2
M  V30 55 1 14 8
M  V30 56 1 28 17
M  V30 57 1 50 39
M  V30 58 1 26 20
M  V30 59 1 48 42
M  V30 60 1 1 55
M  V30 61 1 1 56
M  V30 62 1 1 57
M  V30 63 1 4 58
M  V30 64 1 5 59
M  V30 65 1 7 60
M  V30 66 1 9 61
M  V30 67 1 11 62
M  V30 68 1 11 63
M  V30 69 1 11 64
M  V30 70 1 13 65
M  V30 71 1 14 66
M  V30 72 1 19 67
M  V30 73 1 22 68
M  V30 74 1 22 69
M  V30 75 1 23 70
M  V30 76 1 25 71
M  V30 77 1 27 72
M  V30 78 1 30 73
M  V30 79 1 34 74
M  V30 80 1 41 75
M  V30 81 1 44 76
M  V30 82 1 44 77
M  V30 83 1 45 78
M  V30 84 1 46 79
M  V30 85 1 49 80
M  V30 86 1 50 81
M  V30 87 1 52 82
M  V30 END BOND
M  V30 END CTAB
M  END
