
     RDKit          3D

  0  0  0  0  0  0  0  0  0  0999 V3000
M  V30 BEGIN CTAB
M  V30 COUNTS 27 28 0 0 0
M  V30 BEGIN ATOM
M  V30 1 N 4.30714 1.09934 0.459166 0
M  V30 2 N 3.20864 0.307371 0.0889937 0
M  V30 3 C 1.91268 0.65246 0.55943 0
M  V30 4 O 1.7121 1.64154 1.29543 0
M  V30 5 C 0.794948 -0.196212 0.152574 0
M  V30 6 N 1.13462 -1.32288 -0.692414 0
M  V30 7 C -0.145356 -0.648786 1.24379 0
M  V30 8 C -1.24479 -0.133544 0.434774 0
M  V30 9 C -0.32529 0.667105 -0.390849 0
M  V30 10 C -2.18091 -1.06617 -0.24728 0
M  V30 11 C -3.21361 0.0667129 -0.116024 0
M  V30 12 C -2.40472 0.532375 1.08012 0
M  V30 13 H 4.34808 1.87647 -0.243035 0
M  V30 14 H 4.13121 1.47155 1.4394 0
M  V30 15 H 3.39151 -0.513039 -0.525041 0
M  V30 16 H 1.89685 -1.85836 -0.215349 0
M  V30 17 H 0.291668 -1.95632 -0.753576 0
M  V30 18 H 0.0283834 -0.136228 2.21191 0
M  V30 19 H -0.101968 -1.75272 1.4295 0
M  V30 20 H -0.470554 0.56659 -1.49595 0
M  V30 21 H -0.276966 1.72208 -0.0476983 0
M  V30 22 H -1.89413 -1.17279 -1.33341 0
M  V30 23 H -2.45747 -1.99338 0.261385 0
M  V30 24 H -4.22867 -0.292406 0.120221 0
M  V30 25 H -3.11545 0.792616 -0.936059 0
M  V30 26 H -2.34956 1.63052 1.21047 0
M  V30 27 H -2.74839 0.0161242 1.98904 0
M  V30 END ATOM
M  V30 BEGIN BOND
M  V30 1 1 1 2
M  V30 2 1 2 3
M  V30 3 2 3 4
M  V30 4 1 3 5
M  V30 5 1 5 6
M  V30 6 1 5 7
M  V30 7 1 7 8
M  V30 8 1 8 9
M  V30 9 1 8 10
M  V30 10 1 10 11
M  V30 11 1 11 12
M  V30 12 1 9 5
M  V30 13 1 12 8
M  V30 14 1 1 13
M  V30 15 1 1 14
M  V30 16 1 2 15
M  V30 17 1 6 16
M  V30 18 1 6 17
M  V30 19 1 7 18
M  V30 20 1 7 19
M  V30 21 1 9 20
M  V30 22 1 9 21
M  V30 23 1 10 22
M  V30 24 1 10 23
M  V30 25 1 11 24
M  V30 26 1 11 25
M  V30 27 1 12 26
M  V30 28 1 12 27
M  V30 END BOND
M  V30 END CTAB
M  END
