
     RDKit          3D

  0  0  0  0  0  0  0  0  0  0999 V3000
M  V30 BEGIN CTAB
M  V30 COUNTS 61 65 0 0 0
M  V30 BEGIN ATOM
M  V30 1 N -8.54513 2.91585 -1.27718 0
M  V30 2 C -7.29123 2.23548 -1.24779 0
M  V30 3 N -6.86591 1.64147 -2.27602 0
M  V30 4 C -6.52282 2.23899 -0.00885229 0
M  V30 5 C -5.30689 1.57569 0.0942821 0
M  V30 6 C -4.59909 1.59429 1.27764 0
M  V30 7 C -5.14868 2.29001 2.32934 0
M  V30 8 C -6.34567 2.96164 2.278 0
M  V30 9 C -7.0273 2.9234 1.08273 0
M  V30 10 C -3.31175 0.891777 1.39731 0
M  V30 11 N -2.62114 0.870944 2.46184 0
M  V30 12 O -1.4745 0.163013 2.33849 0
M  V30 13 C -1.58823 -0.657783 1.15214 0
M  V30 14 C -2.04408 -2.02213 1.55393 0
M  V30 15 N -2.21881 -2.98081 0.522266 0
M  V30 16 C -3.35262 -3.1775 -0.148217 0
M  V30 17 N -3.14449 -4.16586 -1.02646 0
M  V30 18 N -1.89673 -4.55131 -0.876887 0
M  V30 19 N -1.32679 -3.83285 0.0660266 0
M  V30 20 C -2.5944 0.114124 0.365919 0
M  V30 21 C -0.258618 -0.689684 0.53473 0
M  V30 22 O -0.00405286 -1.24219 -0.571947 0
M  V30 23 N 0.834992 -0.0733299 1.18863 0
M  V30 24 C 2.15242 -0.0380187 0.636325 0
M  V30 25 N 2.42148 -0.569374 -0.567806 0
M  V30 26 C 3.67633 -0.537146 -1.09145 0
M  V30 27 C 4.72214 0.035814 -0.415171 0
M  V30 28 C 4.44514 0.579452 0.815283 0
M  V30 29 C 3.17285 0.547212 1.34588 0
M  V30 30 C 6.08308 0.0807373 -0.909801 0
M  V30 31 C 6.85096 -1.02611 -1.11014 0
M  V30 32 C 8.14279 -0.900798 -1.63848 0
M  V30 33 C 8.64953 0.314337 -1.95449 0
M  V30 34 C 7.89662 1.44355 -1.75869 0
M  V30 35 C 6.63643 1.34445 -1.24742 0
M  V30 36 S 6.30348 -2.60636 -0.673985 0
M  V30 37 N 5.86588 -2.68097 1.00697 0
M  V30 38 O 5.27082 -3.2037 -1.56677 0
M  V30 39 O 7.50882 -3.55719 -0.785105 0
M  V30 40 H -9.45232 2.42213 -1.27383 0
M  V30 41 H -8.5655 3.95356 -1.30238 0
M  V30 42 H -7.40517 1.62668 -3.15919 0
M  V30 43 H -4.89979 1.04072 -0.741764 0
M  V30 44 H -4.59458 2.30796 3.26487 0
M  V30 45 H -6.76503 3.50503 3.11861 0
M  V30 46 H -7.97301 3.4527 1.03257 0
M  V30 47 H -1.28941 -2.4308 2.29028 0
M  V30 48 H -2.9798 -1.91134 2.14584 0
M  V30 49 H -4.32115 -2.67726 -0.0657076 0
M  V30 50 H -2.0815 0.780847 -0.366681 0
M  V30 51 H -3.35211 -0.49898 -0.164204 0
M  V30 52 H 0.676419 0.393155 2.105 0
M  V30 53 H 3.79912 -0.955302 -2.07529 0
M  V30 54 H 5.22495 1.06084 1.42571 0
M  V30 55 H 2.97742 0.990969 2.34134 0
M  V30 56 H 8.7495 -1.787 -1.80523 0
M  V30 57 H 9.6651 0.383264 -2.36971 0
M  V30 58 H 8.33274 2.38821 -2.02063 0
M  V30 59 H 6.01122 2.20143 -1.07639 0
M  V30 60 H 6.26065 -1.8746 1.52536 0
M  V30 61 H 4.8374 -2.62132 1.05985 0
M  V30 END ATOM
M  V30 BEGIN BOND
M  V30 1 1 1 2
M  V30 2 2 2 3 CFG=2
M  V30 3 1 2 4
M  V30 4 2 4 5
M  V30 5 1 5 6
M  V30 6 2 6 7
M  V30 7 1 7 8
M  V30 8 2 8 9
M  V30 9 1 6 10
M  V30 10 2 10 11
M  V30 11 1 11 12
M  V30 12 1 12 13
M  V30 13 1 13 14
M  V30 14 1 14 15
M  V30 15 1 15 16
M  V30 16 2 16 17
M  V30 17 1 17 18
M  V30 18 2 18 19
M  V30 19 1 13 20
M  V30 20 1 13 21
M  V30 21 2 21 22
M  V30 22 1 21 23
M  V30 23 1 23 24
M  V30 24 2 24 25
M  V30 25 1 25 26
M  V30 26 2 26 27
M  V30 27 1 27 28
M  V30 28 2 28 29
M  V30 29 1 27 30
M  V30 30 2 30 31
M  V30 31 1 31 32
M  V30 32 2 32 33
M  V30 33 1 33 34
M  V30 34 2 34 35
M  V30 35 1 31 36
M  V30 36 1 36 37
M  V30 37 2 36 38
M  V30 38 2 36 39
M  V30 39 1 9 4
M  V30 40 1 20 10
M  V30 41 1 29 24
M  V30 42 1 35 30
M  V30 43 1 19 15
M  V30 44 1 1 40
M  V30 45 1 1 41
M  V30 46 1 3 42
M  V30 47 1 5 43
M  V30 48 1 7 44
M  V30 49 1 8 45
M  V30 50 1 9 46
M  V30 51 1 14 47
M  V30 52 1 14 48
M  V30 53 1 16 49
M  V30 54 1 20 50
M  V30 55 1 20 51
M  V30 56 1 23 52
M  V30 57 1 26 53
M  V30 58 1 28 54
M  V30 59 1 29 55
M  V30 60 1 32 56
M  V30 61 1 33 57
M  V30 62 1 34 58
M  V30 63 1 35 59
M  V30 64 1 37 60
M  V30 65 1 37 61
M  V30 END BOND
M  V30 END CTAB
M  END
