
     RDKit          3D

  0  0  0  0  0  0  0  0  0  0999 V3000
M  V30 BEGIN CTAB
M  V30 COUNTS 59 62 0 0 0
M  V30 BEGIN ATOM
M  V30 1 C -6.51644 -1.088 -1.78584 0
M  V30 2 C -6.7452 -0.554179 -0.374513 0
M  V30 3 C -6.66832 -1.70058 0.629889 0
M  V30 4 N -8.10096 -0.0922084 -0.340988 0
M  V30 5 C -8.48423 1.09468 -0.0823049 0
M  V30 6 N -9.87812 1.45545 -0.0748008 0
M  V30 7 N -7.4903 2.07791 0.20522 0
M  V30 8 C -6.25808 1.78916 0.205916 0
M  V30 9 N -5.34652 2.85415 0.508108 0
M  V30 10 N -5.79913 0.475537 -0.0782004 0
M  V30 11 C -4.39194 0.268159 -0.0477107 0
M  V30 12 C -3.67232 0.449195 -1.20791 0
M  V30 13 C -2.28616 0.25829 -1.23273 0
M  V30 14 Cl -1.39157 0.495472 -2.72464 0
M  V30 15 C -1.60518 -0.117239 -0.0910763 0
M  V30 16 O -0.240567 -0.29235 -0.168039 0
M  V30 17 C 0.553892 -0.676036 0.940999 0
M  V30 18 C 1.98277 -0.784186 0.552341 0
M  V30 19 C 2.3679 -0.517099 -0.765775 0
M  V30 20 C 3.69715 -0.621319 -1.11253 0
M  V30 21 C 4.63892 -0.982795 -0.180091 0
M  V30 22 C 4.26701 -1.24743 1.12029 0
M  V30 23 C 2.93838 -1.14584 1.47745 0
M  V30 24 S 6.30776 -1.09904 -0.675282 0
M  V30 25 O 6.35419 -1.44518 -2.14271 0
M  V30 26 O 7.02886 -2.19211 0.0694112 0
M  V30 27 O 7.03149 0.410356 -0.447651 0
M  V30 28 C 8.39285 0.571408 -0.324264 0
M  V30 29 C 9.17676 0.78754 -1.43975 0
M  V30 30 C 10.5335 0.943026 -1.26845 0
M  V30 31 Cl 11.5415 1.2187 -2.68115 0
M  V30 32 C 11.1315 0.890124 -0.0253032 0
M  V30 33 C 10.3438 0.673972 1.08574 0
M  V30 34 C 8.98243 0.517448 0.91876 0
M  V30 35 C -2.3272 -0.298415 1.07109 0
M  V30 36 C -3.70918 -0.106373 1.08884 0
M  V30 37 H -7.3713 -1.64909 -2.17112 0
M  V30 38 H -6.33654 -0.228725 -2.46364 0
M  V30 39 H -5.58001 -1.70223 -1.83112 0
M  V30 40 H -5.76731 -2.31436 0.498043 0
M  V30 41 H -6.62858 -1.26577 1.64572 0
M  V30 42 H -7.60677 -2.30747 0.567812 0
M  V30 43 H -10.1861 2.2194 0.548126 0
M  V30 44 H -10.575 0.976722 -0.6695 0
M  V30 45 H -5.37263 3.35159 1.41708 0
M  V30 46 H -4.66347 3.08822 -0.245667 0
M  V30 47 H -4.16969 0.74013 -2.10983 0
M  V30 48 H 0.445304 0.0291041 1.7978 0
M  V30 49 H 0.170509 -1.6684 1.27559 0
M  V30 50 H 1.65401 -0.230212 -1.52534 0
M  V30 51 H 4.01764 -0.420348 -2.12221 0
M  V30 52 H 4.97965 -1.52946 1.8607 0
M  V30 53 H 2.64251 -1.35055 2.48811 0
M  V30 54 H 8.71564 0.830707 -2.42118 0
M  V30 55 H 12.2089 1.01725 0.0754533 0
M  V30 56 H 10.7941 0.6293 2.06826 0
M  V30 57 H 8.38781 0.348897 1.80923 0
M  V30 58 H -1.82543 -0.588659 1.96777 0
M  V30 59 H -4.29247 -0.246252 2.00117 0
M  V30 END ATOM
M  V30 BEGIN BOND
M  V30 1 1 1 2
M  V30 2 1 2 3
M  V30 3 1 2 4
M  V30 4 2 4 5
M  V30 5 1 5 6
M  V30 6 1 5 7
M  V30 7 2 7 8
M  V30 8 1 8 9
M  V30 9 1 8 10
M  V30 10 1 10 11
M  V30 11 2 11 12
M  V30 12 1 12 13
M  V30 13 1 13 14
M  V30 14 2 13 15
M  V30 15 1 15 16
M  V30 16 1 16 17
M  V30 17 1 17 18
M  V30 18 2 18 19
M  V30 19 1 19 20
M  V30 20 2 20 21
M  V30 21 1 21 22
M  V30 22 2 22 23
M  V30 23 1 21 24
M  V30 24 2 24 25
M  V30 25 2 24 26
M  V30 26 1 24 27
M  V30 27 1 27 28
M  V30 28 2 28 29
M  V30 29 1 29 30
M  V30 30 1 30 31
M  V30 31 2 30 32
M  V30 32 1 32 33
M  V30 33 2 33 34
M  V30 34 1 15 35
M  V30 35 2 35 36
M  V30 36 1 10 2
M  V30 37 1 36 11
M  V30 38 1 23 18
M  V30 39 1 34 28
M  V30 40 1 1 37
M  V30 41 1 1 38
M  V30 42 1 1 39
M  V30 43 1 3 40
M  V30 44 1 3 41
M  V30 45 1 3 42
M  V30 46 1 6 43
M  V30 47 1 6 44
M  V30 48 1 9 45
M  V30 49 1 9 46
M  V30 50 1 12 47
M  V30 51 1 17 48
M  V30 52 1 17 49
M  V30 53 1 19 50
M  V30 54 1 20 51
M  V30 55 1 22 52
M  V30 56 1 23 53
M  V30 57 1 29 54
M  V30 58 1 32 55
M  V30 59 1 33 56
M  V30 60 1 34 57
M  V30 61 1 35 58
M  V30 62 1 36 59
M  V30 END BOND
M  V30 END CTAB
M  END
