
     RDKit          3D

  0  0  0  0  0  0  0  0  0  0999 V3000
M  V30 BEGIN CTAB
M  V30 COUNTS 21 21 0 0 0
M  V30 BEGIN ATOM
M  V30 1 N -0.283939 -1.82634 0.833304 0
M  V30 2 C -0.581565 -0.521286 0.342032 0
M  V30 3 C -1.8281 -0.119415 -0.0891582 0
M  V30 4 N -3.03394 -0.858065 -0.144154 0
M  V30 5 C -1.71698 1.21302 -0.490188 0
M  V30 6 O -2.74331 2.00265 -0.992555 0
M  V30 7 N -0.43837 1.55244 -0.28931 0
M  V30 8 N 0.252658 0.530197 0.206503 0
M  V30 9 C 1.65936 0.479989 0.563577 0
M  V30 10 C 2.49212 0.0393909 -0.620399 0
M  V30 11 O 3.82217 0.0126219 -0.212604 0
M  V30 12 H -0.00723303 -1.88448 1.85413 0
M  V30 13 H -0.338266 -2.65649 0.221903 0
M  V30 14 H -3.31325 -1.36017 -0.998105 0
M  V30 15 H -3.65749 -0.903385 0.682894 0
M  V30 16 H -2.47202 2.83503 -1.50125 0
M  V30 17 H 1.80377 -0.245742 1.38042 0
M  V30 18 H 1.94695 1.46987 0.935283 0
M  V30 19 H 2.29693 0.744225 -1.44148 0
M  V30 20 H 2.19926 -0.992765 -0.892355 0
M  V30 21 H 3.94126 0.488702 0.651512 0
M  V30 END ATOM
M  V30 BEGIN BOND
M  V30 1 1 1 2
M  V30 2 2 2 3
M  V30 3 1 3 4
M  V30 4 1 3 5
M  V30 5 1 5 6
M  V30 6 2 5 7
M  V30 7 1 7 8
M  V30 8 1 8 9
M  V30 9 1 9 10
M  V30 10 1 10 11
M  V30 11 1 8 2
M  V30 12 1 1 12
M  V30 13 1 1 13
M  V30 14 1 4 14
M  V30 15 1 4 15
M  V30 16 1 6 16
M  V30 17 1 9 17
M  V30 18 1 9 18
M  V30 19 1 10 19
M  V30 20 1 10 20
M  V30 21 1 11 21
M  V30 END BOND
M  V30 END CTAB
M  END
