
     RDKit          3D

  0  0  0  0  0  0  0  0  0  0999 V3000
M  V30 BEGIN CTAB
M  V30 COUNTS 33 33 0 0 0
M  V30 BEGIN ATOM
M  V30 1 N 4.70075 -0.2699 1.17193 0
M  V30 2 C 3.59058 -0.562095 0.287492 0
M  V30 3 C 2.70571 0.66021 0.236855 0
M  V30 4 C 1.51009 0.472058 -0.658791 0
M  V30 5 C 0.648273 -0.673037 -0.18966 0
M  V30 6 C -0.56083 -0.881204 -1.07573 0 CFG=2
M  V30 7 N -0.106686 -1.17361 -2.45176 0
M  V30 8 C -1.45881 0.274967 -1.10601 0
M  V30 9 O -1.52017 0.963175 -2.15792 0
M  V30 10 N -2.26953 0.667642 -0.0128374 0
M  V30 11 C -2.38135 0.00509347 1.26852 0
M  V30 12 C -3.8646 -0.376302 1.43719 0
M  V30 13 S -4.63644 1.1189 0.747826 0
M  V30 14 C -3.14029 1.84642 0.00993699 0
M  V30 15 H 5.15805 0.644918 0.945739 0
M  V30 16 H 4.46314 -0.297662 2.16445 0
M  V30 17 H 3.0753 -1.45576 0.678383 0
M  V30 18 H 4.02673 -0.802724 -0.701868 0
M  V30 19 H 2.35023 0.838016 1.28722 0
M  V30 20 H 3.33845 1.51358 -0.0754382 0
M  V30 21 H 1.9015 0.241219 -1.68794 0
M  V30 22 H 0.975822 1.41729 -0.729066 0
M  V30 23 H 0.401171 -0.47508 0.863131 0
M  V30 24 H 1.2434 -1.60772 -0.224135 0
M  V30 25 H -1.06658 -1.7955 -0.722356 0
M  V30 26 H -0.826408 -0.847152 -3.13449 0
M  V30 27 H -0.0330679 -2.21509 -2.58975 0
M  V30 28 H -1.8514 -0.967982 1.26758 0
M  V30 29 H -2.12485 0.654606 2.11281 0
M  V30 30 H -4.03669 -0.469641 2.51829 0
M  V30 31 H -4.09518 -1.27779 0.859275 0
M  V30 32 H -2.72451 2.64034 0.663216 0
M  V30 33 H -3.39181 2.18981 -1.00211 0
M  V30 END ATOM
M  V30 BEGIN BOND
M  V30 1 1 1 2
M  V30 2 1 2 3
M  V30 3 1 3 4
M  V30 4 1 4 5
M  V30 5 1 5 6
M  V30 6 1 6 7
M  V30 7 1 6 8
M  V30 8 2 8 9
M  V30 9 1 8 10
M  V30 10 1 10 11
M  V30 11 1 11 12
M  V30 12 1 12 13
M  V30 13 1 13 14
M  V30 14 1 14 10
M  V30 15 1 1 15
M  V30 16 1 1 16
M  V30 17 1 2 17
M  V30 18 1 2 18
M  V30 19 1 3 19
M  V30 20 1 3 20
M  V30 21 1 4 21
M  V30 22 1 4 22
M  V30 23 1 5 23
M  V30 24 1 5 24
M  V30 25 1 6 25 CFG=1
M  V30 26 1 7 26
M  V30 27 1 7 27
M  V30 28 1 11 28
M  V30 29 1 11 29
M  V30 30 1 12 30
M  V30 31 1 12 31
M  V30 32 1 14 32
M  V30 33 1 14 33
M  V30 END BOND
M  V30 END CTAB
M  END
