
     RDKit          3D

  0  0  0  0  0  0  0  0  0  0999 V3000
M  V30 BEGIN CTAB
M  V30 COUNTS 35 37 0 0 0
M  V30 BEGIN ATOM
M  V30 1 N 0.413117 3.27593 1.53266 0
M  V30 2 C 0.109903 3.15345 0.160971 0
M  V30 3 N -0.367962 4.10138 -0.697739 0
M  V30 4 O -0.504936 3.55992 -1.87259 0
M  V30 5 N -0.142337 2.31185 -1.82492 0
M  V30 6 C 0.250822 2.00669 -0.576231 0
M  V30 7 N 0.711379 0.709923 -0.186217 0
M  V30 8 C 0.048041 -0.0448934 0.824959 0
M  V30 9 C -1.37943 -0.336926 0.467566 0
M  V30 10 C -1.69931 -1.47164 -0.246376 0
M  V30 11 C -3.00546 -1.76856 -0.590584 0
M  V30 12 C -4.0453 -0.939493 -0.232928 0
M  V30 13 C -3.72974 0.195591 0.48068 0
M  V30 14 C -2.41831 0.495188 0.827167 0
M  V30 15 N -5.39432 -1.2323 -0.580238 0 CHG=1
M  V30 16 O -6.3422 -0.490055 -0.262251 0
M  V30 17 O -5.69311 -2.36744 -1.29171 0 CHG=-1
M  V30 18 N 1.83769 0.170648 -0.811551 0
M  V30 19 N 2.56442 -0.668203 -0.22137 0
M  V30 20 C 3.70626 -1.22517 -0.834552 0
M  V30 21 N 3.93174 -1.27203 -2.15146 0
M  V30 22 O 5.08761 -1.85755 -2.36081 0
M  V30 23 N 5.61778 -2.19167 -1.21507 0
M  V30 24 C 4.77597 -1.80963 -0.221817 0
M  V30 25 N 4.91838 -1.95674 1.17237 0
M  V30 26 H 1.22619 2.80521 1.98702 0
M  V30 27 H -0.220088 3.87494 2.11631 0
M  V30 28 H 0.0822774 0.547162 1.76314 0
M  V30 29 H 0.608756 -0.971685 1.02953 0
M  V30 30 H -0.882418 -2.13126 -0.532261 0
M  V30 31 H -3.26302 -2.66825 -1.15716 0
M  V30 32 H -4.54302 0.850456 0.764231 0
M  V30 33 H -2.19035 1.38705 1.3856 0
M  V30 34 H 4.61343 -2.84487 1.61301 0
M  V30 35 H 5.31756 -1.19701 1.74261 0
M  V30 END ATOM
M  V30 BEGIN BOND
M  V30 1 1 1 2
M  V30 2 2 2 3
M  V30 3 1 3 4
M  V30 4 1 4 5
M  V30 5 2 5 6
M  V30 6 1 6 7
M  V30 7 1 7 8
M  V30 8 1 8 9
M  V30 9 2 9 10
M  V30 10 1 10 11
M  V30 11 2 11 12
M  V30 12 1 12 13
M  V30 13 2 13 14
M  V30 14 1 12 15
M  V30 15 2 15 16
M  V30 16 1 15 17
M  V30 17 1 7 18
M  V30 18 2 18 19
M  V30 19 1 19 20
M  V30 20 2 20 21
M  V30 21 1 21 22
M  V30 22 1 22 23
M  V30 23 2 23 24
M  V30 24 1 24 25
M  V30 25 1 6 2
M  V30 26 1 14 9
M  V30 27 1 24 20
M  V30 28 1 1 26
M  V30 29 1 1 27
M  V30 30 1 8 28
M  V30 31 1 8 29
M  V30 32 1 10 30
M  V30 33 1 11 31
M  V30 34 1 13 32
M  V30 35 1 14 33
M  V30 36 1 25 34
M  V30 37 1 25 35
M  V30 END BOND
M  V30 END CTAB
M  END
