
     RDKit          3D

  0  0  0  0  0  0  0  0  0  0999 V3000
M  V30 BEGIN CTAB
M  V30 COUNTS 35 36 0 0 0
M  V30 BEGIN ATOM
M  V30 1 N -3.16616 1.92308 0.111235 0
M  V30 2 C -2.16653 2.05222 -0.888851 0
M  V30 3 C -0.920651 1.34039 -0.553726 0
M  V30 4 N -0.988276 -0.0875985 -0.381759 0
M  V30 5 C -1.67798 -0.444781 0.744392 0
M  V30 6 C -1.40144 -1.74664 1.43337 0
M  V30 7 C -1.06195 -2.87753 0.544131 0
M  V30 8 O 0.331284 -2.78732 0.318412 0
M  V30 9 C 0.463176 -2.07021 -0.832642 0
M  V30 10 C 0.262059 -0.611378 -0.769039 0 CFG=2
M  V30 11 C 1.4364 0.0298839 -0.131394 0
M  V30 12 N 1.59701 0.383335 1.15839 0
M  V30 13 N 2.80117 0.918853 1.27746 0
M  V30 14 C 3.45556 0.937881 0.114397 0
M  V30 15 C 2.59427 0.371095 -0.799138 0
M  V30 16 N 4.76362 1.43108 -0.156457 0
M  V30 17 H -2.8477 2.41782 0.96669 0
M  V30 18 H -4.07075 2.30355 -0.160442 0
M  V30 19 H -2.5478 1.85928 -1.91594 0
M  V30 20 H -1.90418 3.15611 -0.915787 0
M  V30 21 H -0.477284 1.76097 0.40521 0
M  V30 22 H -0.139622 1.56568 -1.32417 0
M  V30 23 H -2.77676 -0.538393 0.476353 0
M  V30 24 H -1.68596 0.389897 1.50574 0
M  V30 25 H -2.25925 -2.07475 2.07867 0
M  V30 26 H -0.564757 -1.58521 2.14396 0
M  V30 27 H -1.22297 -3.82918 1.07613 0
M  V30 28 H -1.6126 -2.89465 -0.417035 0
M  V30 29 H 1.46496 -2.25594 -1.28907 0
M  V30 30 H -0.265974 -2.49415 -1.57493 0
M  V30 31 H 0.315555 -0.290529 -1.87075 0
M  V30 32 H 0.931343 0.277706 1.95484 0
M  V30 33 H 2.8426 0.240018 -1.86135 0
M  V30 34 H 5.12456 1.4959 -1.11673 0
M  V30 35 H 5.37504 1.7335 0.649828 0
M  V30 END ATOM
M  V30 BEGIN BOND
M  V30 1 1 1 2
M  V30 2 1 2 3
M  V30 3 1 3 4
M  V30 4 1 4 5
M  V30 5 1 5 6
M  V30 6 1 6 7
M  V30 7 1 7 8
M  V30 8 1 8 9
M  V30 9 1 9 10
M  V30 10 1 10 11
M  V30 11 1 11 12
M  V30 12 1 12 13
M  V30 13 2 13 14
M  V30 14 1 14 15
M  V30 15 1 14 16
M  V30 16 1 10 4
M  V30 17 2 15 11
M  V30 18 1 1 17
M  V30 19 1 1 18
M  V30 20 1 2 19
M  V30 21 1 2 20
M  V30 22 1 3 21
M  V30 23 1 3 22
M  V30 24 1 5 23
M  V30 25 1 5 24
M  V30 26 1 6 25
M  V30 27 1 6 26
M  V30 28 1 7 27
M  V30 29 1 7 28
M  V30 30 1 9 29
M  V30 31 1 9 30
M  V30 32 1 10 31 CFG=3
M  V30 33 1 12 32
M  V30 34 1 15 33
M  V30 35 1 16 34
M  V30 36 1 16 35
M  V30 END BOND
M  V30 END CTAB
M  END
