
     RDKit          3D

  0  0  0  0  0  0  0  0  0  0999 V3000
M  V30 BEGIN CTAB
M  V30 COUNTS 40 41 0 0 0
M  V30 BEGIN ATOM
M  V30 1 S 0.154666 1.93192 -0.347253 0
M  V30 2 C -0.373799 1.24593 1.02703 0
M  V30 3 N -1.64157 0.618881 1.08794 0
M  V30 4 C -2.46537 0.582021 -0.0496931 0
M  V30 5 O -2.08767 1.1081 -1.14552 0
M  V30 6 C -3.76922 -0.0428598 -0.0506054 0
M  V30 7 C -4.24762 -0.630291 1.08669 0
M  V30 8 C -5.51105 -1.2355 1.08483 0
M  V30 9 C -6.27807 -1.24597 -0.0500806 0
M  V30 10 C -5.79368 -0.652482 -1.19751 0
M  V30 11 C -4.54953 -0.0605995 -1.18269 0
M  V30 12 N -4.04382 0.548745 -2.34803 0
M  V30 13 N 0.41817 1.25974 2.22985 0
M  V30 14 C 1.71283 1.89732 2.15234 0
M  V30 15 C 2.53374 1.07343 1.19592 0
M  V30 16 C 2.26447 -0.258457 0.980196 0
M  V30 17 C 3.01895 -1.00586 0.104474 0
M  V30 18 C 4.06579 -0.423306 -0.575412 0
M  V30 19 C 4.34456 0.919859 -0.363882 0
M  V30 20 C 3.57946 1.65229 0.515748 0
M  V30 21 S 5.07326 -1.30102 -1.70501 0
M  V30 22 O 5.64668 -0.347667 -2.7375 0
M  V30 23 O 4.30559 -2.37346 -2.38469 0
M  V30 24 N 6.42927 -2.00528 -0.892786 0
M  V30 25 H -1.94302 0.191175 1.98721 0
M  V30 26 H -3.70401 -0.665732 2.02716 0
M  V30 27 H -5.89293 -1.69931 1.97648 0
M  V30 28 H -7.25637 -1.72503 -0.018399 0
M  V30 29 H -6.42902 -0.675745 -2.0912 0
M  V30 30 H -3.57244 -0.00878697 -3.06796 0
M  V30 31 H -4.14903 1.57053 -2.47937 0
M  V30 32 H 0.0635483 0.829091 3.10196 0
M  V30 33 H 2.18713 1.85256 3.14594 0
M  V30 34 H 1.64009 2.93225 1.7586 0
M  V30 35 H 1.44154 -0.744713 1.50531 0
M  V30 36 H 2.79609 -2.07011 -0.0614636 0
M  V30 37 H 5.15799 1.40496 -0.881458 0
M  V30 38 H 3.78438 2.72053 0.697972 0
M  V30 39 H 6.14052 -2.60983 -0.0961249 0
M  V30 40 H 6.9495 -2.55733 -1.6139 0
M  V30 END ATOM
M  V30 BEGIN BOND
M  V30 1 2 1 2
M  V30 2 1 2 3
M  V30 3 1 3 4
M  V30 4 2 4 5
M  V30 5 1 4 6
M  V30 6 2 6 7
M  V30 7 1 7 8
M  V30 8 2 8 9
M  V30 9 1 9 10
M  V30 10 2 10 11
M  V30 11 1 11 12
M  V30 12 1 2 13
M  V30 13 1 13 14
M  V30 14 1 14 15
M  V30 15 2 15 16
M  V30 16 1 16 17
M  V30 17 2 17 18
M  V30 18 1 18 19
M  V30 19 2 19 20
M  V30 20 1 18 21
M  V30 21 2 21 22
M  V30 22 2 21 23
M  V30 23 1 21 24
M  V30 24 1 11 6
M  V30 25 1 20 15
M  V30 26 1 3 25
M  V30 27 1 7 26
M  V30 28 1 8 27
M  V30 29 1 9 28
M  V30 30 1 10 29
M  V30 31 1 12 30
M  V30 32 1 12 31
M  V30 33 1 13 32
M  V30 34 1 14 33
M  V30 35 1 14 34
M  V30 36 1 16 35
M  V30 37 1 17 36
M  V30 38 1 19 37
M  V30 39 1 20 38
M  V30 40 1 24 39
M  V30 41 1 24 40
M  V30 END BOND
M  V30 END CTAB
M  END
