
     RDKit          3D

  0  0  0  0  0  0  0  0  0  0999 V3000
M  V30 BEGIN CTAB
M  V30 COUNTS 22 22 0 0 0
M  V30 BEGIN ATOM
M  V30 1 N -3.55886 0.715769 -0.728197 0
M  V30 2 C -2.20846 0.448327 -0.373541 0
M  V30 3 N -1.26218 1.19552 -0.951552 0
M  V30 4 C 0.0381695 0.982494 -0.649362 0
M  V30 5 C 0.326715 -0.0126903 0.256036 0
M  V30 6 C -0.633032 -0.793934 0.862984 0
M  V30 7 C -1.94328 -0.552034 0.534388 0
M  V30 8 N -3.03845 -1.27756 1.08018 0
M  V30 9 O 1.64516 -0.23822 0.57088 0
M  V30 10 C 2.76446 0.429016 0.0788469 0
M  V30 11 C 3.98031 -0.220605 0.759521 0
M  V30 12 F 5.1534 0.360856 0.348044 0
M  V30 13 F 3.9147 -1.56005 0.397522 0
M  V30 14 F 3.76191 -0.0765064 2.12038 0
M  V30 15 F 2.70464 1.76303 0.482158 0
M  V30 16 F 2.9362 0.310468 -1.28639 0
M  V30 17 H -4.30239 0.598008 -0.00553738 0
M  V30 18 H -3.77853 1.02137 -1.69372 0
M  V30 19 H 0.816521 1.59729 -1.12502 0
M  V30 20 H -0.392665 -1.57364 1.57359 0
M  V30 21 H -3.51084 -1.00194 1.98056 0
M  V30 22 H -3.4135 -2.11498 0.601705 0
M  V30 END ATOM
M  V30 BEGIN BOND
M  V30 1 1 1 2
M  V30 2 2 2 3
M  V30 3 1 3 4
M  V30 4 2 4 5
M  V30 5 1 5 6
M  V30 6 2 6 7
M  V30 7 1 7 8
M  V30 8 1 5 9
M  V30 9 1 9 10
M  V30 10 1 10 11
M  V30 11 1 11 12
M  V30 12 1 11 13
M  V30 13 1 11 14
M  V30 14 1 10 15
M  V30 15 1 10 16
M  V30 16 1 7 2
M  V30 17 1 1 17
M  V30 18 1 1 18
M  V30 19 1 4 19
M  V30 20 1 6 20
M  V30 21 1 8 21
M  V30 22 1 8 22
M  V30 END BOND
M  V30 END CTAB
M  END
