
     RDKit          3D

  0  0  0  0  0  0  0  0  0  0999 V3000
M  V30 BEGIN CTAB
M  V30 COUNTS 33 34 0 0 0
M  V30 BEGIN ATOM
M  V30 1 N -5.37336 0.54852 1.46111 0
M  V30 2 N -4.67473 -0.576733 1.05027 0
M  V30 3 C -3.51117 -0.431869 0.260347 0
M  V30 4 C -2.77465 -1.5035 -0.196726 0
M  V30 5 C -1.62724 -1.35799 -0.973956 0
M  V30 6 C -1.19858 -0.09629 -1.30733 0
M  V30 7 C -0.00295433 0.107063 -2.12116 0
M  V30 8 C 1.24867 0.155742 -1.29827 0
M  V30 9 C 1.73846 1.32935 -0.766398 0
M  V30 10 C 2.89563 1.35213 -0.0113789 0
M  V30 11 C 3.62413 0.210235 0.252594 0
M  V30 12 N 4.81732 0.238391 1.03265 0
M  V30 13 N 4.88041 0.0332224 2.40379 0
M  V30 14 C 3.13332 -0.965617 -0.28047 0
M  V30 15 C 1.97899 -0.982418 -1.03226 0
M  V30 16 C -1.92472 0.982542 -0.857443 0
M  V30 17 C -3.04957 0.835053 -0.0955228 0
M  V30 18 H -5.80512 1.0647 0.641316 0
M  V30 19 H -6.14169 0.289341 2.10276 0
M  V30 20 H -5.0128 -1.51453 1.32841 0
M  V30 21 H -3.14989 -2.4956 0.0913531 0
M  V30 22 H -1.12911 -2.26513 -1.27679 0
M  V30 23 H 0.0432594 -0.707653 -2.87301 0
M  V30 24 H -0.109436 1.05393 -2.72379 0
M  V30 25 H 1.18827 2.25103 -0.955935 0
M  V30 26 H 3.27526 2.28561 0.405651 0
M  V30 27 H 5.73065 0.429178 0.540772 0
M  V30 28 H 5.57022 0.74526 2.78148 0
M  V30 29 H 5.27385 -0.941905 2.57336 0
M  V30 30 H 3.71236 -1.87785 -0.0713505 0
M  V30 31 H 1.59885 -1.92331 -1.45129 0
M  V30 32 H -1.6291 2.01784 -1.0939 0
M  V30 33 H -3.59551 1.71124 0.239423 0
M  V30 END ATOM
M  V30 BEGIN BOND
M  V30 1 1 1 2
M  V30 2 1 2 3
M  V30 3 2 3 4
M  V30 4 1 4 5
M  V30 5 2 5 6
M  V30 6 1 6 7
M  V30 7 1 7 8
M  V30 8 2 8 9
M  V30 9 1 9 10
M  V30 10 2 10 11
M  V30 11 1 11 12
M  V30 12 1 12 13
M  V30 13 1 11 14
M  V30 14 2 14 15
M  V30 15 1 6 16
M  V30 16 2 16 17
M  V30 17 1 17 3
M  V30 18 1 15 8
M  V30 19 1 1 18
M  V30 20 1 1 19
M  V30 21 1 2 20
M  V30 22 1 4 21
M  V30 23 1 5 22
M  V30 24 1 7 23
M  V30 25 1 7 24
M  V30 26 1 9 25
M  V30 27 1 10 26
M  V30 28 1 12 27
M  V30 29 1 13 28
M  V30 30 1 13 29
M  V30 31 1 14 30
M  V30 32 1 15 31
M  V30 33 1 16 32
M  V30 34 1 17 33
M  V30 END BOND
M  V30 END CTAB
M  END
