
     RDKit          3D

  0  0  0  0  0  0  0  0  0  0999 V3000
M  V30 BEGIN CTAB
M  V30 COUNTS 21 22 0 0 0
M  V30 BEGIN ATOM
M  V30 1 C -4.24421 -0.57378 -0.396095 0
M  V30 2 C -2.85207 -0.303004 0.0259995 0
M  V30 3 O -2.46341 0.121151 1.17913 0
M  V30 4 N -1.16173 0.257632 1.22717 0
M  V30 5 C -0.608356 -0.0890031 0.0456679 0
M  V30 6 C -1.7036 -0.450093 -0.726162 0
M  V30 7 C 0.805596 -0.0776326 -0.30863 0
M  V30 8 N 1.34076 -0.426474 -1.49168 0
M  V30 9 N 2.66763 -0.28491 -1.4352 0
M  V30 10 C 2.98521 0.161674 -0.195767 0
M  V30 11 N 1.83075 0.281815 0.477841 0
M  V30 12 N 1.70891 0.71439 1.79623 0
M  V30 13 N 4.30063 0.438565 0.265893 0
M  V30 14 H -4.97508 0.0586487 0.180848 0
M  V30 15 H -4.38295 -0.251779 -1.46343 0
M  V30 16 H -4.51203 -1.63158 -0.244834 0
M  V30 17 H -1.60255 -0.784791 -1.74804 0
M  V30 18 H 1.97498 0.0880734 2.58124 0
M  V30 19 H 1.34912 1.67499 2.04262 0
M  V30 20 H 4.88203 -0.339978 0.589435 0
M  V30 21 H 4.66035 1.41609 0.27253 0
M  V30 END ATOM
M  V30 BEGIN BOND
M  V30 1 1 1 2
M  V30 2 1 2 3
M  V30 3 1 3 4
M  V30 4 2 4 5
M  V30 5 1 5 6
M  V30 6 1 5 7
M  V30 7 2 7 8
M  V30 8 1 8 9
M  V30 9 2 9 10
M  V30 10 1 10 11
M  V30 11 1 11 12
M  V30 12 1 10 13
M  V30 13 2 6 2
M  V30 14 1 11 7
M  V30 15 1 1 14
M  V30 16 1 1 15
M  V30 17 1 1 16
M  V30 18 1 6 17
M  V30 19 1 12 18
M  V30 20 1 12 19
M  V30 21 1 13 20
M  V30 22 1 13 21
M  V30 END BOND
M  V30 END CTAB
M  END
