
     RDKit          3D

  0  0  0  0  0  0  0  0  0  0999 V3000
M  V30 BEGIN CTAB
M  V30 COUNTS 46 46 0 0 0
M  V30 BEGIN ATOM
M  V30 1 C -5.75683 -1.43319 0.201446 0
M  V30 2 C -4.26973 -1.63144 0.171205 0
M  V30 3 C -3.55395 -0.628708 -0.708055 0
M  V30 4 C -3.7625 0.787764 -0.275411 0
M  V30 5 C -2.71428 1.28035 0.686438 0
M  V30 6 N -1.37647 1.07556 0.198705 0
M  V30 7 C -1.14976 0.102059 -0.811196 0
M  V30 8 C -2.12379 -1.04398 -0.79205 0
M  V30 9 C -0.335925 1.86274 0.711434 0
M  V30 10 O -0.546364 2.78743 1.56795 0
M  V30 11 C 1.09146 1.70559 0.317536 0 CFG=1
M  V30 12 N 1.84814 2.92051 0.620804 0
M  V30 13 C 1.71483 0.637068 1.2285 0
M  V30 14 C 3.16811 0.400597 0.908933 0
M  V30 15 C 3.37567 -0.0761107 -0.489338 0
M  V30 16 N 4.79092 -0.285731 -0.716139 0
M  V30 17 C 5.4816 -1.32525 -0.0538252 0
M  V30 18 N 5.00563 -2.66797 -0.167698 0
M  V30 19 N 6.53093 -1.10632 0.654522 0
M  V30 20 H -6.09171 -0.510682 0.679554 0
M  V30 21 H -6.17689 -2.27319 0.808804 0
M  V30 22 H -6.20559 -1.49884 -0.79754 0
M  V30 23 H -3.8496 -1.71983 1.17152 0
M  V30 24 H -4.104 -2.63166 -0.331076 0
M  V30 25 H -3.99748 -0.736586 -1.72088 0
M  V30 26 H -3.7342 1.45809 -1.16658 0
M  V30 27 H -4.747 0.940154 0.20094 0
M  V30 28 H -2.84049 2.35788 0.898919 0
M  V30 29 H -2.83369 0.758148 1.68209 0
M  V30 30 H -1.32715 0.637245 -1.79953 0
M  V30 31 H -0.109408 -0.218909 -0.842777 0
M  V30 32 H -1.94762 -1.68078 -1.69309 0
M  V30 33 H -1.86139 -1.68112 0.0778305 0
M  V30 34 H 1.25308 1.46112 -0.729531 0
M  V30 35 H 1.9042 3.097 1.63887 0
M  V30 36 H 1.4468 3.75591 0.115923 0
M  V30 37 H 1.13741 -0.292899 1.11163 0
M  V30 38 H 1.62036 0.98603 2.29564 0
M  V30 39 H 3.77526 1.31307 1.12447 0
M  V30 40 H 3.50239 -0.418743 1.59496 0
M  V30 41 H 2.81365 -1.03537 -0.611724 0
M  V30 42 H 3.02885 0.672503 -1.20208 0
M  V30 43 H 5.31125 0.328914 -1.37047 0
M  V30 44 H 4.81743 -3.06005 -1.10664 0
M  V30 45 H 4.86488 -3.20999 0.720009 0
M  V30 46 H 6.93296 -0.158387 0.782488 0
M  V30 END ATOM
M  V30 BEGIN BOND
M  V30 1 1 1 2
M  V30 2 1 2 3
M  V30 3 1 3 4
M  V30 4 1 4 5
M  V30 5 1 5 6
M  V30 6 1 6 7
M  V30 7 1 7 8
M  V30 8 1 6 9
M  V30 9 2 9 10
M  V30 10 1 9 11
M  V30 11 1 11 12
M  V30 12 1 11 13
M  V30 13 1 13 14
M  V30 14 1 14 15
M  V30 15 1 15 16
M  V30 16 1 16 17
M  V30 17 1 17 18
M  V30 18 2 17 19 CFG=2
M  V30 19 1 8 3
M  V30 20 1 1 20
M  V30 21 1 1 21
M  V30 22 1 1 22
M  V30 23 1 2 23
M  V30 24 1 2 24
M  V30 25 1 3 25
M  V30 26 1 4 26
M  V30 27 1 4 27
M  V30 28 1 5 28
M  V30 29 1 5 29
M  V30 30 1 7 30
M  V30 31 1 7 31
M  V30 32 1 8 32
M  V30 33 1 8 33
M  V30 34 1 11 34 CFG=3
M  V30 35 1 12 35
M  V30 36 1 12 36
M  V30 37 1 13 37
M  V30 38 1 13 38
M  V30 39 1 14 39
M  V30 40 1 14 40
M  V30 41 1 15 41
M  V30 42 1 15 42
M  V30 43 1 16 43
M  V30 44 1 18 44
M  V30 45 1 18 45
M  V30 46 1 19 46
M  V30 END BOND
M  V30 END CTAB
M  END
