
     RDKit          3D

  0  0  0  0  0  0  0  0  0  0999 V3000
M  V30 BEGIN CTAB
M  V30 COUNTS 48 48 0 0 0
M  V30 BEGIN ATOM
M  V30 1 N 4.06048 -0.621447 -1.96915 0
M  V30 2 C 3.68267 -1.16937 -0.764374 0 CFG=2
M  V30 3 C 2.41721 -0.539308 -0.297111 0
M  V30 4 O 1.8871 -0.891324 0.790179 0
M  V30 5 N 1.81891 0.460415 -1.09205 0
M  V30 6 C 0.591628 1.14085 -0.757099 0
M  V30 7 C -0.507649 0.194219 -0.700231 0
M  V30 8 O -0.306387 -1.01526 -0.946831 0
M  V30 9 N -1.86322 0.562963 -0.367722 0
M  V30 10 C -2.1622 1.94255 -0.0752673 0
M  V30 11 C -3.25302 2.38941 -1.02652 0
M  V30 12 C -4.44803 1.50254 -0.925065 0
M  V30 13 C -4.12551 0.0443337 -1.12825 0
M  V30 14 C -2.93401 -0.405583 -0.319615 0
M  V30 15 C -3.29352 -0.880844 1.04634 0
M  V30 16 N -3.73397 0.106956 1.96944 0
M  V30 17 C -2.15052 -1.7252 1.58266 0
M  V30 18 C 4.77746 -0.992889 0.267651 0
M  V30 19 C 5.10265 0.443178 0.513984 0
M  V30 20 C 4.4355 -1.64706 1.5848 0
M  V30 21 H 3.54905 -0.748701 -2.78579 0
M  V30 22 H 5.00475 -0.359598 -2.0514 0
M  V30 23 H 3.45376 -2.24512 -0.906831 0
M  V30 24 H 2.27129 0.760661 -2.00661 0
M  V30 25 H 0.793998 1.66532 0.202386 0
M  V30 26 H 0.364205 1.93228 -1.51863 0
M  V30 27 H -1.27861 2.60432 -0.209566 0
M  V30 28 H -2.51582 2.13455 0.94812 0
M  V30 29 H -3.55678 3.41052 -0.717179 0
M  V30 30 H -2.87773 2.36199 -2.06251 0
M  V30 31 H -5.04097 1.65169 0.00411649 0
M  V30 32 H -5.1419 1.78853 -1.76445 0
M  V30 33 H -3.87973 -0.0900113 -2.20236 0
M  V30 34 H -5.00027 -0.549589 -0.874083 0
M  V30 35 H -2.54726 -1.32152 -0.864317 0
M  V30 36 H -4.14947 -1.60799 0.919382 0
M  V30 37 H -4.74758 0.285739 1.96385 0
M  V30 38 H -3.47146 -0.161194 2.94376 0
M  V30 39 H -1.97304 -2.53545 0.869386 0
M  V30 40 H -1.2451 -1.15078 1.78936 0
M  V30 41 H -2.50373 -2.21125 2.52429 0
M  V30 42 H 5.68631 -1.48826 -0.166933 0
M  V30 43 H 4.59605 0.768958 1.46739 0
M  V30 44 H 4.81483 1.10974 -0.32191 0
M  V30 45 H 6.19402 0.538592 0.679414 0
M  V30 46 H 5.41027 -1.85909 2.10915 0
M  V30 47 H 3.92758 -2.61951 1.47076 0
M  V30 48 H 3.86775 -0.963968 2.25602 0
M  V30 END ATOM
M  V30 BEGIN BOND
M  V30 1 1 1 2
M  V30 2 1 2 3
M  V30 3 2 3 4
M  V30 4 1 3 5
M  V30 5 1 5 6
M  V30 6 1 6 7
M  V30 7 2 7 8
M  V30 8 1 7 9
M  V30 9 1 9 10
M  V30 10 1 10 11
M  V30 11 1 11 12
M  V30 12 1 12 13
M  V30 13 1 13 14
M  V30 14 1 14 15
M  V30 15 1 15 16
M  V30 16 1 15 17
M  V30 17 1 2 18
M  V30 18 1 18 19
M  V30 19 1 18 20
M  V30 20 1 14 9
M  V30 21 1 1 21
M  V30 22 1 1 22
M  V30 23 1 2 23 CFG=3
M  V30 24 1 5 24
M  V30 25 1 6 25
M  V30 26 1 6 26
M  V30 27 1 10 27
M  V30 28 1 10 28
M  V30 29 1 11 29
M  V30 30 1 11 30
M  V30 31 1 12 31
M  V30 32 1 12 32
M  V30 33 1 13 33
M  V30 34 1 13 34
M  V30 35 1 14 35
M  V30 36 1 15 36
M  V30 37 1 16 37
M  V30 38 1 16 38
M  V30 39 1 17 39
M  V30 40 1 17 40
M  V30 41 1 17 41
M  V30 42 1 18 42
M  V30 43 1 19 43
M  V30 44 1 19 44
M  V30 45 1 19 45
M  V30 46 1 20 46
M  V30 47 1 20 47
M  V30 48 1 20 48
M  V30 END BOND
M  V30 END CTAB
M  END
