
     RDKit          3D

  0  0  0  0  0  0  0  0  0  0999 V3000
M  V30 BEGIN CTAB
M  V30 COUNTS 38 37 0 0 0
M  V30 BEGIN ATOM
M  V30 1 N 3.4939 -2.53424 -1.72935 0
M  V30 2 C 2.92397 -1.84612 -0.591067 0
M  V30 3 C 2.03947 -0.68864 -1.04432 0
M  V30 4 C 1.50197 -0.0475327 0.223865 0
M  V30 5 N 0.644903 1.06728 -0.0443863 0
M  V30 6 C -0.747297 0.849532 -0.205924 0
M  V30 7 O -1.50918 1.81246 -0.44061 0
M  V30 8 O -1.27219 -0.405308 -0.108295 0
M  V30 9 C -2.63191 -0.736377 -0.249898 0
M  V30 10 C -2.71901 -2.25764 -0.0574607 0
M  V30 11 C -3.19827 -0.342828 -1.58206 0
M  V30 12 C -3.49331 -0.143629 0.853793 0
M  V30 13 C 1.1898 2.3944 -0.150503 0
M  V30 14 C 1.21703 3.11462 1.1791 0
M  V30 15 N 2.01126 2.42961 2.15763 0
M  V30 16 H 2.77045 -3.12039 -2.19417 0
M  V30 17 H 4.34942 -3.05586 -1.47228 0
M  V30 18 H 2.34815 -2.58268 0.00692273 0
M  V30 19 H 3.72776 -1.45868 0.0549741 0
M  V30 20 H 2.69987 0.030401 -1.57373 0
M  V30 21 H 1.21089 -1.05425 -1.66484 0
M  V30 22 H 0.903081 -0.826767 0.737705 0
M  V30 23 H 2.36875 0.210047 0.875837 0
M  V30 24 H -1.98382 -2.7621 -0.716556 0
M  V30 25 H -2.42064 -2.44452 0.999057 0
M  V30 26 H -3.74302 -2.62004 -0.187514 0
M  V30 27 H -3.91317 -1.15305 -1.88066 0
M  V30 28 H -2.40891 -0.266644 -2.35858 0
M  V30 29 H -3.78504 0.580025 -1.45549 0
M  V30 30 H -4.5542 -0.402713 0.564638 0
M  V30 31 H -3.36299 0.937461 0.924583 0
M  V30 32 H -3.33627 -0.672804 1.82478 0
M  V30 33 H 0.623103 3.02457 -0.864195 0
M  V30 34 H 2.25508 2.30313 -0.49474 0
M  V30 35 H 0.160924 3.21326 1.56622 0
M  V30 36 H 1.59665 4.13418 1.0769 0
M  V30 37 H 2.05793 2.97448 3.02329 0
M  V30 38 H 2.98486 2.34734 1.78954 0
M  V30 END ATOM
M  V30 BEGIN BOND
M  V30 1 1 1 2
M  V30 2 1 2 3
M  V30 3 1 3 4
M  V30 4 1 4 5
M  V30 5 1 5 6
M  V30 6 2 6 7
M  V30 7 1 6 8
M  V30 8 1 8 9
M  V30 9 1 9 10
M  V30 10 1 9 11
M  V30 11 1 9 12
M  V30 12 1 5 13
M  V30 13 1 13 14
M  V30 14 1 14 15
M  V30 15 1 1 16
M  V30 16 1 1 17
M  V30 17 1 2 18
M  V30 18 1 2 19
M  V30 19 1 3 20
M  V30 20 1 3 21
M  V30 21 1 4 22
M  V30 22 1 4 23
M  V30 23 1 10 24
M  V30 24 1 10 25
M  V30 25 1 10 26
M  V30 26 1 11 27
M  V30 27 1 11 28
M  V30 28 1 11 29
M  V30 29 1 12 30
M  V30 30 1 12 31
M  V30 31 1 12 32
M  V30 32 1 13 33
M  V30 33 1 13 34
M  V30 34 1 14 35
M  V30 35 1 14 36
M  V30 36 1 15 37
M  V30 37 1 15 38
M  V30 END BOND
M  V30 END CTAB
M  END
