
     RDKit          3D

  0  0  0  0  0  0  0  0  0  0999 V3000
M  V30 BEGIN CTAB
M  V30 COUNTS 25 25 0 0 0
M  V30 BEGIN ATOM
M  V30 1 N -2.52359 0.980837 0.148366 0
M  V30 2 C -1.95795 -0.340954 -0.0152687 0
M  V30 3 C -1.19289 -0.71761 1.20225 0
M  V30 4 C 0.0876254 0.128359 1.24387 0
M  V30 5 C 0.917769 -0.35996 0.0765298 0
M  V30 6 C 0.232403 -0.0010139 -1.21125 0
M  V30 7 C -1.18611 -0.441796 -1.29576 0
M  V30 8 C 2.25687 0.285158 0.0706199 0
M  V30 9 N 2.53306 1.13136 0.999503 0
M  V30 10 N 3.24152 0.0218208 -0.896347 0
M  V30 11 H -2.23753 1.42878 1.02758 0
M  V30 12 H -3.53708 1.01991 -0.0551049 0
M  V30 13 H -2.82465 -1.04537 -0.102999 0
M  V30 14 H -0.833152 -1.77398 1.13706 0
M  V30 15 H -1.80896 -0.518258 2.08626 0
M  V30 16 H 0.658478 -0.130586 2.18134 0
M  V30 17 H -0.157939 1.18856 1.18091 0
M  V30 18 H 1.02219 -1.457 0.151067 0
M  V30 19 H 0.325195 1.09284 -1.38334 0
M  V30 20 H 0.801198 -0.485647 -2.03281 0
M  V30 21 H -1.24215 -1.48865 -1.71497 0
M  V30 22 H -1.70167 0.197303 -2.04423 0
M  V30 23 H 1.91646 1.41877 1.76447 0
M  V30 24 H 3.47831 0.76154 -1.58463 0
M  V30 25 H 3.73259 -0.894407 -0.93312 0
M  V30 END ATOM
M  V30 BEGIN BOND
M  V30 1 1 1 2
M  V30 2 1 2 3
M  V30 3 1 3 4
M  V30 4 1 4 5
M  V30 5 1 5 6
M  V30 6 1 6 7
M  V30 7 1 5 8
M  V30 8 2 8 9 CFG=2
M  V30 9 1 8 10
M  V30 10 1 7 2
M  V30 11 1 1 11
M  V30 12 1 1 12
M  V30 13 1 2 13
M  V30 14 1 3 14
M  V30 15 1 3 15
M  V30 16 1 4 16
M  V30 17 1 4 17
M  V30 18 1 5 18
M  V30 19 1 6 19
M  V30 20 1 6 20
M  V30 21 1 7 21
M  V30 22 1 7 22
M  V30 23 1 9 23
M  V30 24 1 10 24
M  V30 25 1 10 25
M  V30 END BOND
M  V30 END CTAB
M  END
