
     RDKit          3D

  0  0  0  0  0  0  0  0  0  0999 V3000
M  V30 BEGIN CTAB
M  V30 COUNTS 26 26 0 0 0
M  V30 BEGIN ATOM
M  V30 1 N 2.47856 0.387651 1.34399 0
M  V30 2 C 2.66518 -0.255487 0.0610477 0
M  V30 3 C 1.41455 0.138294 -0.746242 0
M  V30 4 C 0.169212 -0.367044 -0.110079 0
M  V30 5 C 0.0419236 -1.59992 0.476414 0
M  V30 6 C -1.16325 -2.08068 0.939079 0
M  V30 7 C -2.30513 -1.32698 0.824466 0
M  V30 8 C -2.20965 -0.0956894 0.246576 0
M  V30 9 C -0.996962 0.402 -0.221978 0
M  V30 10 O -0.914597 1.62821 -0.785262 0
M  V30 11 C -2.03972 2.46511 -0.922615 0
M  V30 12 N 1.50107 -0.609736 -2.0274 0
M  V30 13 H 3.31475 0.969537 1.59514 0
M  V30 14 H 1.63667 1.01431 1.33593 0
M  V30 15 H 2.764 -1.34266 0.168715 0
M  V30 16 H 3.5264 0.168051 -0.483412 0
M  V30 17 H 1.39201 1.19808 -0.865048 0
M  V30 18 H 0.938658 -2.20976 0.577149 0
M  V30 19 H -1.25113 -3.04884 1.39246 0
M  V30 20 H -3.28225 -1.71339 1.17703 0
M  V30 21 H -3.11278 0.510645 0.152396 0
M  V30 22 H -2.86595 2.02788 -1.50473 0
M  V30 23 H -2.45249 2.77107 0.0754279 0
M  V30 24 H -1.74254 3.42791 -1.40155 0
M  V30 25 H 1.95228 -1.54835 -1.72016 0
M  V30 26 H 0.541183 -0.910201 -2.30857 0
M  V30 END ATOM
M  V30 BEGIN BOND
M  V30 1 1 1 2
M  V30 2 1 2 3
M  V30 3 1 3 4
M  V30 4 2 4 5
M  V30 5 1 5 6
M  V30 6 2 6 7
M  V30 7 1 7 8
M  V30 8 2 8 9
M  V30 9 1 9 10
M  V30 10 1 10 11
M  V30 11 1 3 12
M  V30 12 1 9 4
M  V30 13 1 1 13
M  V30 14 1 1 14
M  V30 15 1 2 15
M  V30 16 1 2 16
M  V30 17 1 3 17
M  V30 18 1 5 18
M  V30 19 1 6 19
M  V30 20 1 7 20
M  V30 21 1 8 21
M  V30 22 1 11 22
M  V30 23 1 11 23
M  V30 24 1 11 24
M  V30 25 1 12 25
M  V30 26 1 12 26
M  V30 END BOND
M  V30 END CTAB
M  END
