
     RDKit          3D

  0  0  0  0  0  0  0  0  0  0999 V3000
M  V30 BEGIN CTAB
M  V30 COUNTS 51 55 0 0 0
M  V30 BEGIN ATOM
M  V30 1 O 2.33938 -2.19575 -1.1837 0
M  V30 2 C 2.3279 -1.00757 -0.747243 0
M  V30 3 C 1.0264 -0.412062 -0.375855 0
M  V30 4 C -0.179229 -1.07719 -0.477659 0
M  V30 5 N -0.381623 -2.42553 -0.948065 0
M  V30 6 N -1.15589 -0.256871 -0.0619594 0
M  V30 7 C -0.606829 0.919255 0.304472 0
M  V30 8 C 0.777129 0.847052 0.115015 0
M  V30 9 N 1.52965 1.91547 0.418037 0
M  V30 10 C 0.938551 3.01618 0.891138 0
M  V30 11 C 1.67468 4.14292 1.21747 0
M  V30 12 C 1.06195 5.26149 1.69967 0
M  V30 13 C -0.288836 5.31115 1.87696 0
M  V30 14 C -1.06825 4.21995 1.56875 0
M  V30 15 C -0.432223 3.10009 1.08334 0
M  V30 16 N -1.1864 2.03518 0.781793 0
M  V30 17 C -2.5504 -0.565375 -0.0108147 0
M  V30 18 C -3.33684 -0.551911 -1.14301 0
M  V30 19 C -4.67524 -0.852556 -1.06574 0
M  V30 20 C -5.29564 -1.18016 0.136085 0
M  V30 21 C -4.47713 -1.18295 1.24489 0
M  V30 22 C -3.13623 -0.886005 1.19388 0
M  V30 23 S -7.00173 -1.56026 0.215205 0
M  V30 24 O -7.58428 -1.21181 1.55453 0
M  V30 25 O -7.74226 -0.890468 -0.912254 0
M  V30 26 N -7.17277 -3.27176 -0.018835 0
M  V30 27 N 3.55311 -0.318741 -0.639316 0
M  V30 28 C 4.79711 -0.859072 -0.971278 0
M  V30 29 C 5.08786 -2.18861 -0.943166 0
M  V30 30 C 6.34804 -2.6784 -1.31734 0
M  V30 31 C 7.33862 -1.82211 -1.72731 0
M  V30 32 C 7.03208 -0.484742 -1.74995 0
M  V30 33 C 5.81127 0.0183144 -1.39054 0
M  V30 34 H -0.0877353 -2.69407 -1.92119 0
M  V30 35 H -0.811698 -3.15488 -0.358877 0
M  V30 36 H 2.75692 4.15712 1.09522 0
M  V30 37 H 1.63352 6.15102 1.95843 0
M  V30 38 H -0.808187 6.18834 2.25968 0
M  V30 39 H -2.14015 4.2606 1.7099 0
M  V30 40 H -2.89001 -0.301839 -2.09606 0
M  V30 41 H -5.28861 -0.842348 -1.94703 0
M  V30 42 H -4.9375 -1.43502 2.19226 0
M  V30 43 H -2.50891 -0.897053 2.09893 0
M  V30 44 H -8.1241 -3.60627 0.248296 0
M  V30 45 H -6.42202 -3.7963 0.466743 0
M  V30 46 H 3.58305 0.682809 -0.281516 0
M  V30 47 H 4.39838 -2.94896 -0.620845 0
M  V30 48 H 6.56431 -3.74851 -1.28954 0
M  V30 49 H 8.30747 -2.20744 -2.01418 0
M  V30 50 H 7.81149 0.207781 -2.07389 0
M  V30 51 H 5.59185 1.07784 -1.41645 0
M  V30 END ATOM
M  V30 BEGIN BOND
M  V30 1 2 1 2
M  V30 2 1 2 3
M  V30 3 2 3 4
M  V30 4 1 4 5
M  V30 5 1 4 6
M  V30 6 1 6 7
M  V30 7 2 7 8
M  V30 8 1 8 9
M  V30 9 2 9 10
M  V30 10 1 10 11
M  V30 11 2 11 12
M  V30 12 1 12 13
M  V30 13 2 13 14
M  V30 14 1 14 15
M  V30 15 2 15 16
M  V30 16 1 6 17
M  V30 17 2 17 18
M  V30 18 1 18 19
M  V30 19 2 19 20
M  V30 20 1 20 21
M  V30 21 2 21 22
M  V30 22 1 20 23
M  V30 23 2 23 24
M  V30 24 2 23 25
M  V30 25 1 23 26
M  V30 26 1 2 27
M  V30 27 1 27 28
M  V30 28 2 28 29
M  V30 29 1 29 30
M  V30 30 2 30 31
M  V30 31 1 31 32
M  V30 32 2 32 33
M  V30 33 1 8 3
M  V30 34 1 15 10
M  V30 35 1 22 17
M  V30 36 1 33 28
M  V30 37 1 16 7
M  V30 38 1 5 34
M  V30 39 1 5 35
M  V30 40 1 11 36
M  V30 41 1 12 37
M  V30 42 1 13 38
M  V30 43 1 14 39
M  V30 44 1 18 40
M  V30 45 1 19 41
M  V30 46 1 21 42
M  V30 47 1 22 43
M  V30 48 1 26 44
M  V30 49 1 26 45
M  V30 50 1 27 46
M  V30 51 1 29 47
M  V30 52 1 30 48
M  V30 53 1 31 49
M  V30 54 1 32 50
M  V30 55 1 33 51
M  V30 END BOND
M  V30 END CTAB
M  END
