
     RDKit          3D

  0  0  0  0  0  0  0  0  0  0999 V3000
M  V30 BEGIN CTAB
M  V30 COUNTS 37 40 0 0 0
M  V30 BEGIN ATOM
M  V30 1 N -3.80398 1.03628 -1.85875 0
M  V30 2 C -3.1261 0.202636 -0.925844 0
M  V30 3 C -1.88957 -0.304875 -1.26947 0
M  V30 4 C -1.23427 -1.12201 -0.344898 0
M  V30 5 C -1.81361 -1.40975 0.877011 0
M  V30 6 C -3.0591 -0.870037 1.16555 0
M  V30 7 C -3.73668 -0.0558213 0.271523 0
M  V30 8 N -5.01248 0.502016 0.557009 0
M  V30 9 C -6.12024 -0.257611 0.746628 0
M  V30 10 N -7.1242 0.605821 0.991163 0
M  V30 11 N -6.67699 1.83283 0.957718 0
M  V30 12 N -5.37787 1.76323 0.69036 0
M  V30 13 O -0.0111629 -1.63772 -0.657124 0
M  V30 14 C 1.19784 -0.984333 -0.365553 0
M  V30 15 C 1.23689 0.24072 0.265126 0
M  V30 16 C 2.46051 0.860931 0.53902 0
M  V30 17 C 3.63436 0.246735 0.177811 0
M  V30 18 C 3.6194 -0.992749 -0.461224 0
M  V30 19 C 2.39712 -1.56669 -0.711292 0
M  V30 20 N 4.81853 -1.63378 -0.837227 0
M  V30 21 N 4.9237 0.828405 0.429324 0
M  V30 22 C 5.35112 2.02223 -0.0183576 0
M  V30 23 N 6.6022 2.17549 0.443811 0
M  V30 24 N 6.93056 1.11685 1.1481 0
M  V30 25 N 5.90114 0.283598 1.14297 0
M  V30 26 H -4.06377 2.01899 -1.61921 0
M  V30 27 H -4.04446 0.652825 -2.8012 0
M  V30 28 H -1.4252 -0.0836923 -2.2298 0
M  V30 29 H -1.30335 -2.04289 1.59062 0
M  V30 30 H -3.50016 -1.10434 2.12658 0
M  V30 31 H -6.21263 -1.3365 0.714886 0
M  V30 32 H 0.313339 0.736904 0.556003 0
M  V30 33 H 2.49655 1.82928 1.03735 0
M  V30 34 H 2.37381 -2.5238 -1.20429 0
M  V30 35 H 5.212 -2.39976 -0.270257 0
M  V30 36 H 5.30631 -1.32865 -1.69327 0
M  V30 37 H 4.76044 2.69926 -0.634141 0
M  V30 END ATOM
M  V30 BEGIN BOND
M  V30 1 1 1 2
M  V30 2 2 2 3
M  V30 3 1 3 4
M  V30 4 2 4 5
M  V30 5 1 5 6
M  V30 6 2 6 7
M  V30 7 1 7 8
M  V30 8 1 8 9
M  V30 9 2 9 10
M  V30 10 1 10 11
M  V30 11 2 11 12
M  V30 12 1 4 13
M  V30 13 1 13 14
M  V30 14 2 14 15
M  V30 15 1 15 16
M  V30 16 2 16 17
M  V30 17 1 17 18
M  V30 18 2 18 19
M  V30 19 1 18 20
M  V30 20 1 17 21
M  V30 21 1 21 22
M  V30 22 2 22 23
M  V30 23 1 23 24
M  V30 24 2 24 25
M  V30 25 1 7 2
M  V30 26 1 12 8
M  V30 27 1 19 14
M  V30 28 1 25 21
M  V30 29 1 1 26
M  V30 30 1 1 27
M  V30 31 1 3 28
M  V30 32 1 5 29
M  V30 33 1 6 30
M  V30 34 1 9 31
M  V30 35 1 15 32
M  V30 36 1 16 33
M  V30 37 1 19 34
M  V30 38 1 20 35
M  V30 39 1 20 36
M  V30 40 1 22 37
M  V30 END BOND
M  V30 END CTAB
M  END
