
     RDKit          3D

  0  0  0  0  0  0  0  0  0  0999 V3000
M  V30 BEGIN CTAB
M  V30 COUNTS 27 28 0 0 0
M  V30 BEGIN ATOM
M  V30 1 C -0.104253 2.38675 -0.107942 0
M  V30 2 C 0.904634 1.30609 0.132105 0
M  V30 3 C 0.512539 -0.00752456 0.0447556 0
M  V30 4 C -0.85921 -0.327925 -0.271827 0
M  V30 5 C -1.78977 -0.141293 0.761328 0
M  V30 6 C -3.13154 -0.410874 0.619857 0
M  V30 7 C -3.55805 -0.884149 -0.599079 0
M  V30 8 C -2.65892 -1.08141 -1.65126 0
M  V30 9 C -1.31068 -0.797367 -1.46961 0
M  V30 10 C 1.43052 -1.01417 0.269564 0
M  V30 11 N 0.970883 -2.34729 0.159756 0
M  V30 12 N 2.71407 -0.676418 0.575283 0
M  V30 13 C 3.1133 0.605305 0.664624 0
M  V30 14 N 4.47189 0.931735 1.00369 0
M  V30 15 N 2.18998 1.55672 0.438415 0
M  V30 16 H 0.410461 3.18998 -0.684976 0
M  V30 17 H -0.506489 2.73537 0.862767 0
M  V30 18 H -0.926737 2.02648 -0.743225 0
M  V30 19 H -1.43597 0.241199 1.72238 0
M  V30 20 H -3.78248 -0.241005 1.46585 0
M  V30 21 H -4.59034 -1.11207 -0.746548 0
M  V30 22 H -3.00508 -1.45451 -2.59609 0
M  V30 23 H -0.602642 -0.944984 -2.27674 0
M  V30 24 H 0.76625 -2.91281 1.00002 0
M  V30 25 H 0.841425 -2.75175 -0.778382 0
M  V30 26 H 4.90518 0.690643 1.91842 0
M  V30 27 H 5.03104 1.43527 0.286867 0
M  V30 END ATOM
M  V30 BEGIN BOND
M  V30 1 1 1 2
M  V30 2 2 2 3
M  V30 3 1 3 4
M  V30 4 2 4 5
M  V30 5 1 5 6
M  V30 6 2 6 7
M  V30 7 1 7 8
M  V30 8 2 8 9
M  V30 9 1 3 10
M  V30 10 1 10 11
M  V30 11 2 10 12
M  V30 12 1 12 13
M  V30 13 1 13 14
M  V30 14 2 13 15
M  V30 15 1 15 2
M  V30 16 1 9 4
M  V30 17 1 1 16
M  V30 18 1 1 17
M  V30 19 1 1 18
M  V30 20 1 5 19
M  V30 21 1 6 20
M  V30 22 1 7 21
M  V30 23 1 8 22
M  V30 24 1 9 23
M  V30 25 1 11 24
M  V30 26 1 11 25
M  V30 27 1 14 26
M  V30 28 1 14 27
M  V30 END BOND
M  V30 END CTAB
M  END
