
     RDKit          3D

  0  0  0  0  0  0  0  0  0  0999 V3000
M  V30 BEGIN CTAB
M  V30 COUNTS 43 44 0 0 0
M  V30 BEGIN ATOM
M  V30 1 N 5.29 -2.25143 0.537654 0
M  V30 2 C 4.08517 -1.50494 0.333623 0
M  V30 3 C 4.06202 -0.265327 1.22321 0
M  V30 4 C 3.99402 0.576565 -0.0177451 0
M  V30 5 C 4.03378 -0.648407 -0.906317 0
M  V30 6 C 2.75226 1.39515 -0.156956 0
M  V30 7 C 1.51049 0.820175 -0.00356754 0
M  V30 8 C 0.3559 1.59218 -0.135266 0
M  V30 9 N -0.933259 1.01363 0.0200731 0
M  V30 10 C -1.14792 -0.367375 0.315511 0
M  V30 11 C -2.59255 -0.780131 0.39888 0
M  V30 12 S -3.49644 -0.536988 -1.09892 0
M  V30 13 O -2.84495 -1.34045 -2.1719 0
M  V30 14 O -3.55005 0.874676 -1.53074 0
M  V30 15 N -5.11879 -1.06871 -0.81321 0
M  V30 16 C -5.7578 -0.312762 0.217529 0
M  V30 17 C -5.20452 -2.46577 -0.521828 0
M  V30 18 N 0.464244 2.9009 -0.412878 0
M  V30 19 C 1.67938 3.46375 -0.563022 0
M  V30 20 N 2.77984 2.71352 -0.434472 0
M  V30 21 N 1.70714 4.85485 -0.855799 0
M  V30 22 H 5.06247 -3.26612 0.605857 0
M  V30 23 H 6.00743 -2.13144 -0.187138 0
M  V30 24 H 3.1713 -2.10727 0.518008 0
M  V30 25 H 3.15142 -0.179797 1.85881 0
M  V30 26 H 4.95427 -0.126399 1.84757 0
M  V30 27 H 4.90238 1.17828 -0.167974 0
M  V30 28 H 3.13067 -0.711083 -1.51483 0
M  V30 29 H 4.98976 -0.752665 -1.49642 0
M  V30 30 H 1.38828 -0.216829 0.217371 0
M  V30 31 H -1.76224 1.63461 -0.0827913 0
M  V30 32 H -0.687083 -0.571173 1.30647 0
M  V30 33 H -0.659655 -1.03972 -0.448394 0
M  V30 34 H -2.61485 -1.8742 0.653714 0
M  V30 35 H -3.1034 -0.272037 1.24541 0
M  V30 36 H -5.73143 0.777338 0.0563158 0
M  V30 37 H -6.77342 -0.707208 0.359864 0
M  V30 38 H -5.18236 -0.504471 1.16989 0
M  V30 39 H -4.29643 -3.03288 -0.823815 0
M  V30 40 H -5.31264 -2.6218 0.575895 0
M  V30 41 H -6.11971 -2.87923 -0.997077 0
M  V30 42 H 1.482 5.50204 -0.0662058 0
M  V30 43 H 1.93527 5.23895 -1.79403 0
M  V30 END ATOM
M  V30 BEGIN BOND
M  V30 1 1 1 2
M  V30 2 1 2 3
M  V30 3 1 3 4
M  V30 4 1 4 5
M  V30 5 1 4 6
M  V30 6 2 6 7
M  V30 7 1 7 8
M  V30 8 1 8 9
M  V30 9 1 9 10
M  V30 10 1 10 11
M  V30 11 1 11 12
M  V30 12 2 12 13
M  V30 13 2 12 14
M  V30 14 1 12 15
M  V30 15 1 15 16
M  V30 16 1 15 17
M  V30 17 2 8 18
M  V30 18 1 18 19
M  V30 19 2 19 20
M  V30 20 1 19 21
M  V30 21 1 5 2
M  V30 22 1 20 6
M  V30 23 1 1 22
M  V30 24 1 1 23
M  V30 25 1 2 24
M  V30 26 1 3 25
M  V30 27 1 3 26
M  V30 28 1 4 27
M  V30 29 1 5 28
M  V30 30 1 5 29
M  V30 31 1 7 30
M  V30 32 1 9 31
M  V30 33 1 10 32
M  V30 34 1 10 33
M  V30 35 1 11 34
M  V30 36 1 11 35
M  V30 37 1 16 36
M  V30 38 1 16 37
M  V30 39 1 16 38
M  V30 40 1 17 39
M  V30 41 1 17 40
M  V30 42 1 17 41
M  V30 43 1 21 42
M  V30 44 1 21 43
M  V30 END BOND
M  V30 END CTAB
M  END
