
     RDKit          3D

  0  0  0  0  0  0  0  0  0  0999 V3000
M  V30 BEGIN CTAB
M  V30 COUNTS 30 31 0 0 0
M  V30 BEGIN ATOM
M  V30 1 N -3.05163 2.56919 -0.2852 0
M  V30 2 C -3.06652 1.16363 -0.18083 0
M  V30 3 C -4.019 0.404629 -0.798327 0
M  V30 4 C -4.02794 -0.985345 -0.690951 0
M  V30 5 C -3.05397 -1.59736 0.0545085 0
M  V30 6 O -2.98495 -2.97873 0.216858 0
M  V30 7 C -2.10432 -0.821286 0.668984 0
M  V30 8 C -2.06813 0.543196 0.582301 0
M  V30 9 S -0.837357 1.54123 1.34982 0
M  V30 10 S 0.716779 0.395216 2.13384 0
M  V30 11 C 2.04142 0.24873 0.938536 0
M  V30 12 C 2.23855 -0.865219 0.174466 0
M  V30 13 N 1.3783 -2.011 0.289007 0
M  V30 14 C 3.31229 -0.953193 -0.736415 0
M  V30 15 C 4.19205 0.0967839 -0.87108 0
M  V30 16 C 3.96826 1.21068 -0.0840107 0
M  V30 17 O 4.85491 2.26359 -0.221793 0
M  V30 18 C 2.93657 1.30725 0.797009 0
M  V30 19 H -2.97918 3.01616 -1.22275 0
M  V30 20 H -3.11297 3.15594 0.573496 0
M  V30 21 H -4.79999 0.87737 -1.39426 0
M  V30 22 H -4.77277 -1.59686 -1.17267 0
M  V30 23 H -2.41892 -3.46429 -0.496619 0
M  V30 24 H -1.31953 -1.29383 1.28752 0
M  V30 25 H 1.25826 -2.62522 -0.541609 0
M  V30 26 H 0.906802 -2.1878 1.19247 0
M  V30 27 H 3.41763 -1.86231 -1.31664 0
M  V30 28 H 5.00724 0.0137528 -1.57149 0
M  V30 29 H 5.64026 2.2619 -0.853269 0
M  V30 30 H 2.74787 2.17322 1.42063 0
M  V30 END ATOM
M  V30 BEGIN BOND
M  V30 1 1 1 2
M  V30 2 2 2 3
M  V30 3 1 3 4
M  V30 4 2 4 5
M  V30 5 1 5 6
M  V30 6 1 5 7
M  V30 7 2 7 8
M  V30 8 1 8 9
M  V30 9 1 9 10
M  V30 10 1 10 11
M  V30 11 2 11 12
M  V30 12 1 12 13
M  V30 13 1 12 14
M  V30 14 2 14 15
M  V30 15 1 15 16
M  V30 16 1 16 17
M  V30 17 2 16 18
M  V30 18 1 8 2
M  V30 19 1 18 11
M  V30 20 1 1 19
M  V30 21 1 1 20
M  V30 22 1 3 21
M  V30 23 1 4 22
M  V30 24 1 6 23
M  V30 25 1 7 24
M  V30 26 1 13 25
M  V30 27 1 13 26
M  V30 28 1 14 27
M  V30 29 1 15 28
M  V30 30 1 17 29
M  V30 31 1 18 30
M  V30 END BOND
M  V30 END CTAB
M  END
