
     RDKit          3D

  0  0  0  0  0  0  0  0  0  0999 V3000
M  V30 BEGIN CTAB
M  V30 COUNTS 22 22 0 0 0
M  V30 BEGIN ATOM
M  V30 1 N 3.76115 0.704735 -0.883918 0
M  V30 2 C 3.46502 -0.192522 0.213498 0
M  V30 3 C 2.01027 -0.0409362 0.590539 0
M  V30 4 N 1.12411 -0.351891 -0.493615 0
M  V30 5 C -0.275302 -0.250332 -0.2751 0
M  V30 6 N -1.1781 -0.52999 -1.2586 0
M  V30 7 C -2.49772 -0.432596 -1.04719 0
M  V30 8 C -3.00021 -0.0448997 0.175536 0
M  V30 9 C -2.09396 0.237811 1.16925 0
M  V30 10 N -0.78309 0.129954 0.923046 0
M  V30 11 N -4.40053 0.0593326 0.402826 0
M  V30 12 H 3.40255 0.329077 -1.79766 0
M  V30 13 H 3.1958 1.58819 -0.723088 0
M  V30 14 H 3.75217 -1.22596 0.0196557 0
M  V30 15 H 4.05392 0.166751 1.09595 0
M  V30 16 H 1.73567 -0.672128 1.46255 0
M  V30 17 H 1.80136 1.00427 0.898881 0
M  V30 18 H 1.43774 -0.650503 -1.4412 0
M  V30 19 H -3.23418 -0.652201 -1.8217 0
M  V30 20 H -2.42822 0.544195 2.14061 0
M  V30 21 H -4.96665 -0.612487 0.933765 0
M  V30 22 H -4.8818 0.892126 -0.00914799 0
M  V30 END ATOM
M  V30 BEGIN BOND
M  V30 1 1 1 2
M  V30 2 1 2 3
M  V30 3 1 3 4
M  V30 4 1 4 5
M  V30 5 2 5 6
M  V30 6 1 6 7
M  V30 7 2 7 8
M  V30 8 1 8 9
M  V30 9 2 9 10
M  V30 10 1 8 11
M  V30 11 1 10 5
M  V30 12 1 1 12
M  V30 13 1 1 13
M  V30 14 1 2 14
M  V30 15 1 2 15
M  V30 16 1 3 16
M  V30 17 1 3 17
M  V30 18 1 4 18
M  V30 19 1 7 19
M  V30 20 1 9 20
M  V30 21 1 11 21
M  V30 22 1 11 22
M  V30 END BOND
M  V30 END CTAB
M  END
