
     RDKit          3D

  0  0  0  0  0  0  0  0  0  0999 V3000
M  V30 BEGIN CTAB
M  V30 COUNTS 49 51 0 0 0
M  V30 BEGIN ATOM
M  V30 1 C -3.87209 0.155575 -2.87638 0
M  V30 2 O -3.5734 -0.0192223 -1.50623 0
M  V30 3 C -4.54003 0.37206 -0.585078 0
M  V30 4 C -4.22687 0.191237 0.747004 0
M  V30 5 C -5.17418 0.573574 1.67393 0
M  V30 6 C -6.39482 1.11868 1.31404 0
M  V30 7 C -6.70118 1.29719 -0.0351913 0
M  V30 8 C -5.75178 0.913582 -0.962465 0
M  V30 9 C -2.94981 -0.376917 1.1632 0
M  V30 10 C -2.93197 -1.36739 2.12392 0
M  V30 11 C -1.76693 -1.94676 2.56922 0
M  V30 12 C -0.541275 -1.55265 2.06254 0
M  V30 13 N 0.669141 -2.13601 2.51767 0
M  V30 14 C 1.77104 -1.71654 2.01019 0
M  V30 15 N 3.03489 -2.28544 2.44474 0
M  V30 16 N 1.88105 -0.698542 1.02753 0
M  V30 17 C 3.22792 -0.284804 0.566533 0
M  V30 18 C 3.43805 -0.683522 -0.857639 0
M  V30 19 N 4.70854 -0.340594 -1.41661 0
M  V30 20 C 5.12999 1.00573 -1.51141 0
M  V30 21 O 4.41199 1.97085 -1.11336 0
M  V30 22 C 6.46688 1.32637 -2.09889 0
M  V30 23 N 6.6489 2.7521 -2.08063 0
M  V30 24 C 0.712645 -0.0616938 0.477221 0
M  V30 25 C -0.5325 -0.566496 1.1033 0
M  V30 26 C -1.73758 0.0138691 0.661048 0
M  V30 27 H -4.74588 -0.483694 -3.15321 0
M  V30 28 H -3.04376 -0.119409 -3.5377 0
M  V30 29 H -4.1928 1.20785 -3.00817 0
M  V30 30 H -4.92048 0.42833 2.72666 0
M  V30 31 H -7.12207 1.41085 2.06325 0
M  V30 32 H -7.65751 1.72443 -0.289799 0
M  V30 33 H -5.98464 1.05112 -2.02248 0
M  V30 34 H -3.88518 -1.68828 2.53289 0
M  V30 35 H -1.74408 -2.72532 3.32201 0
M  V30 36 H 3.56998 -2.93576 1.83353 0
M  V30 37 H 3.43665 -2.05635 3.37972 0
M  V30 38 H 3.22312 0.817124 0.639856 0
M  V30 39 H 3.99016 -0.654668 1.25359 0
M  V30 40 H 3.30731 -1.80649 -0.890208 0
M  V30 41 H 2.5913 -0.318857 -1.51067 0
M  V30 42 H 5.35542 -1.08885 -1.76901 0
M  V30 43 H 7.21686 0.847104 -1.41103 0
M  V30 44 H 6.56893 0.901013 -3.11833 0
M  V30 45 H 7.22483 3.01259 -1.24671 0
M  V30 46 H 5.73751 3.26871 -1.94982 0
M  V30 47 H 0.780662 1.06216 0.591101 0
M  V30 48 H 0.614067 -0.297597 -0.612593 0
M  V30 49 H -1.727 0.789752 -0.0939938 0
M  V30 END ATOM
M  V30 BEGIN BOND
M  V30 1 1 1 2
M  V30 2 1 2 3
M  V30 3 2 3 4
M  V30 4 1 4 5
M  V30 5 2 5 6
M  V30 6 1 6 7
M  V30 7 2 7 8
M  V30 8 1 4 9
M  V30 9 2 9 10
M  V30 10 1 10 11
M  V30 11 2 11 12
M  V30 12 1 12 13
M  V30 13 2 13 14
M  V30 14 1 14 15
M  V30 15 1 14 16
M  V30 16 1 16 17
M  V30 17 1 17 18
M  V30 18 1 18 19
M  V30 19 1 19 20
M  V30 20 2 20 21
M  V30 21 1 20 22
M  V30 22 1 22 23
M  V30 23 1 16 24
M  V30 24 1 24 25
M  V30 25 2 25 26
M  V30 26 1 8 3
M  V30 27 1 26 9
M  V30 28 1 25 12
M  V30 29 1 1 27
M  V30 30 1 1 28
M  V30 31 1 1 29
M  V30 32 1 5 30
M  V30 33 1 6 31
M  V30 34 1 7 32
M  V30 35 1 8 33
M  V30 36 1 10 34
M  V30 37 1 11 35
M  V30 38 1 15 36
M  V30 39 1 15 37
M  V30 40 1 17 38
M  V30 41 1 17 39
M  V30 42 1 18 40
M  V30 43 1 18 41
M  V30 44 1 19 42
M  V30 45 1 22 43
M  V30 46 1 22 44
M  V30 47 1 23 45
M  V30 48 1 23 46
M  V30 49 1 24 47
M  V30 50 1 24 48
M  V30 51 1 26 49
M  V30 END BOND
M  V30 END CTAB
M  END
