
     RDKit          3D

  0  0  0  0  0  0  0  0  0  0999 V3000
M  V30 BEGIN CTAB
M  V30 COUNTS 28 29 0 0 0
M  V30 BEGIN ATOM
M  V30 1 N -2.78143 1.68057 -1.18593 0
M  V30 2 C -1.93403 0.718589 -0.556351 0
M  V30 3 N -0.59994 0.799576 -0.611243 0
M  V30 4 C 0.239782 -0.0791261 -0.0352356 0
M  V30 5 N -0.287964 -1.11247 0.643252 0
M  V30 6 C -1.62654 -1.2256 0.723359 0
M  V30 7 O -2.08957 -2.20209 1.36448 0
M  V30 8 C -2.46736 -0.344683 0.151121 0
M  V30 9 C -3.96863 -0.415772 0.300283 0
M  V30 10 C 1.67221 0.201692 -0.153411 0
M  V30 11 N 1.9475 1.63398 -0.314229 0
M  V30 12 C 2.54329 -0.644128 -1.02932 0
M  V30 13 C 3.62971 -0.440476 0.0394047 0
M  V30 14 C 2.48977 -0.301744 1.03893 0
M  V30 15 H -3.48216 1.32739 -1.87818 0
M  V30 16 H -2.75481 2.70091 -0.990735 0
M  V30 17 H 0.355609 -1.80072 1.10077 0
M  V30 18 H -4.27883 0.11186 1.28005 0
M  V30 19 H -4.45173 0.166021 -0.498751 0
M  V30 20 H -4.29226 -1.45013 0.358519 0
M  V30 21 H 2.75455 1.92961 0.283092 0
M  V30 22 H 1.08671 2.16479 -0.0517801 0
M  V30 23 H 2.77892 -0.0814465 -1.97761 0
M  V30 24 H 2.22812 -1.68583 -1.20827 0
M  V30 25 H 4.1601 0.501559 -0.151675 0
M  V30 26 H 4.29082 -1.30369 0.164869 0
M  V30 27 H 2.25411 -1.32301 1.39958 0
M  V30 28 H 2.58408 0.474376 1.79502 0
M  V30 END ATOM
M  V30 BEGIN BOND
M  V30 1 1 1 2
M  V30 2 1 2 3
M  V30 3 2 3 4
M  V30 4 1 4 5
M  V30 5 1 5 6
M  V30 6 2 6 7
M  V30 7 1 6 8
M  V30 8 1 8 9
M  V30 9 1 4 10
M  V30 10 1 10 11
M  V30 11 1 10 12
M  V30 12 1 12 13
M  V30 13 1 13 14
M  V30 14 2 8 2
M  V30 15 1 14 10
M  V30 16 1 1 15
M  V30 17 1 1 16
M  V30 18 1 5 17
M  V30 19 1 9 18
M  V30 20 1 9 19
M  V30 21 1 9 20
M  V30 22 1 11 21
M  V30 23 1 11 22
M  V30 24 1 12 23
M  V30 25 1 12 24
M  V30 26 1 13 25
M  V30 27 1 13 26
M  V30 28 1 14 27
M  V30 29 1 14 28
M  V30 END BOND
M  V30 END CTAB
M  END
