
     RDKit          3D

  0  0  0  0  0  0  0  0  0  0999 V3000
M  V30 BEGIN CTAB
M  V30 COUNTS 16 16 0 0 0
M  V30 BEGIN ATOM
M  V30 1 N 2.5158 -0.141352 0.697787 0
M  V30 2 N 1.60024 -0.162776 -0.363191 0
M  V30 3 C 0.296278 0.358633 -0.281455 0
M  V30 4 N -0.0163974 1.6516 -0.490767 0
M  V30 5 C -1.25943 2.15363 -0.424262 0
M  V30 6 N -2.257 1.3055 -0.12855 0
M  V30 7 C -2.03693 -0.00562678 0.0971166 0
M  V30 8 Cl -3.35433 -1.11684 0.480526 0
M  V30 9 C -0.737729 -0.498272 0.0215676 0
M  V30 10 N -0.486081 -1.86001 0.252143 0
M  V30 11 H 3.45142 -0.441868 0.332262 0
M  V30 12 H 2.6596 0.84587 1.05587 0
M  V30 13 H 1.86652 -0.591343 -1.29871 0
M  V30 14 H -1.4512 3.22027 -0.603365 0
M  V30 15 H -0.496206 -2.51626 -0.549791 0
M  V30 16 H -0.294535 -2.20116 1.20282 0
M  V30 END ATOM
M  V30 BEGIN BOND
M  V30 1 1 1 2
M  V30 2 1 2 3
M  V30 3 2 3 4
M  V30 4 1 4 5
M  V30 5 2 5 6
M  V30 6 1 6 7
M  V30 7 1 7 8
M  V30 8 2 7 9
M  V30 9 1 9 10
M  V30 10 1 9 3
M  V30 11 1 1 11
M  V30 12 1 1 12
M  V30 13 1 2 13
M  V30 14 1 5 14
M  V30 15 1 10 15
M  V30 16 1 10 16
M  V30 END BOND
M  V30 END CTAB
M  END
