
     RDKit          3D

  0  0  0  0  0  0  0  0  0  0999 V3000
M  V30 BEGIN CTAB
M  V30 COUNTS 20 20 0 0 0
M  V30 BEGIN ATOM
M  V30 1 N -4.08432 -0.276956 0.318755 0
M  V30 2 N -2.81364 -0.0386498 -0.169416 0
M  V30 3 C -1.6281 -0.318943 0.551834 0
M  V30 4 O -1.77657 -0.816435 1.70836 0
M  V30 5 C -0.288107 -0.0668979 0.0353046 0
M  V30 6 C -0.0480949 0.470423 -1.20963 0
M  V30 7 C 1.24743 0.699195 -1.67404 0
M  V30 8 C 2.34167 0.391278 -0.892864 0
M  V30 9 C 2.09325 -0.1457 0.350796 0
M  V30 10 C 0.815447 -0.374175 0.815488 0
M  V30 11 N 3.20122 -0.472329 1.17649 0
M  V30 12 Br 4.13058 0.698733 -1.51433 0
M  V30 13 H -4.78994 0.421969 0.0228338 0
M  V30 14 H -4.11511 -0.423301 1.3513 0
M  V30 15 H -2.71771 0.369543 -1.11975 0
M  V30 16 H -0.869032 0.728448 -1.85896 0
M  V30 17 H 1.42501 1.12404 -2.65902 0
M  V30 18 H 0.617197 -0.8006 1.80306 0
M  V30 19 H 3.16275 -1.21638 1.90165 0
M  V30 20 H 4.09608 0.0467392 1.06212 0
M  V30 END ATOM
M  V30 BEGIN BOND
M  V30 1 1 1 2
M  V30 2 1 2 3
M  V30 3 2 3 4
M  V30 4 1 3 5
M  V30 5 2 5 6
M  V30 6 1 6 7
M  V30 7 2 7 8
M  V30 8 1 8 9
M  V30 9 2 9 10
M  V30 10 1 9 11
M  V30 11 1 8 12
M  V30 12 1 10 5
M  V30 13 1 1 13
M  V30 14 1 1 14
M  V30 15 1 2 15
M  V30 16 1 6 16
M  V30 17 1 7 17
M  V30 18 1 10 18
M  V30 19 1 11 19
M  V30 20 1 11 20
M  V30 END BOND
M  V30 END CTAB
M  END
