
     RDKit          3D

  0  0  0  0  0  0  0  0  0  0999 V3000
M  V30 BEGIN CTAB
M  V30 COUNTS 24 25 0 0 0
M  V30 BEGIN ATOM
M  V30 1 N 4.97208 -0.536455 -0.0877065 0
M  V30 2 C 3.62788 -0.119654 0.117544 0
M  V30 3 N 3.20052 0.953806 0.808921 0
M  V30 4 O 1.89949 0.984546 0.75959 0
M  V30 5 C 1.43401 -0.0211547 0.0654146 0
M  V30 6 N 2.50144 -0.721638 -0.343444 0
M  V30 7 C 0.0397822 -0.345011 -0.224869 0
M  V30 8 C -0.288669 -1.45334 -0.979996 0
M  V30 9 C -1.59745 -1.77227 -1.26243 0
M  V30 10 C -2.58599 -0.948035 -0.76699 0
M  V30 11 C -2.31766 0.16067 -0.0148365 0
M  V30 12 C -0.99642 0.445648 0.245671 0
M  V30 13 N -0.667817 1.58223 1.01962 0
M  V30 14 C -3.3581 1.07003 0.534461 0
M  V30 15 H 5.64771 -0.629216 0.693462 0
M  V30 16 H 5.32746 -0.765112 -1.03944 0
M  V30 17 H 0.520969 -2.06119 -1.34105 0
M  V30 18 H -1.84599 -2.63207 -1.84791 0
M  V30 19 H -3.63717 -1.16151 -0.96543 0
M  V30 20 H -0.704963 2.5591 0.653994 0
M  V30 21 H -0.364787 1.48429 2.02168 0
M  V30 22 H -3.31627 2.02819 -0.0610899 0
M  V30 23 H -4.37849 0.617888 0.430244 0
M  V30 24 H -3.11157 1.28024 1.58459 0
M  V30 END ATOM
M  V30 BEGIN BOND
M  V30 1 1 1 2
M  V30 2 2 2 3
M  V30 3 1 3 4
M  V30 4 1 4 5
M  V30 5 2 5 6
M  V30 6 1 5 7
M  V30 7 2 7 8
M  V30 8 1 8 9
M  V30 9 2 9 10
M  V30 10 1 10 11
M  V30 11 2 11 12
M  V30 12 1 12 13
M  V30 13 1 11 14
M  V30 14 1 6 2
M  V30 15 1 12 7
M  V30 16 1 1 15
M  V30 17 1 1 16
M  V30 18 1 8 17
M  V30 19 1 9 18
M  V30 20 1 10 19
M  V30 21 1 13 20
M  V30 22 1 13 21
M  V30 23 1 14 22
M  V30 24 1 14 23
M  V30 25 1 14 24
M  V30 END BOND
M  V30 END CTAB
M  END
