
     RDKit          3D

  0  0  0  0  0  0  0  0  0  0999 V3000
M  V30 BEGIN CTAB
M  V30 COUNTS 22 23 0 0 0
M  V30 BEGIN ATOM
M  V30 1 O 2.905 -1.86996 0.978363 0 CHG=-1
M  V30 2 N 2.4492 -1.15097 -0.0968846 0 CHG=1
M  V30 3 O 3.17329 -1.13676 -1.12597 0
M  V30 4 C 1.21237 -0.452433 -0.0444006 0
M  V30 5 C 1.20526 0.916584 0.0490125 0
M  V30 6 N 2.19149 1.83742 0.107389 0 CHG=1
M  V30 7 O 3.52607 1.48783 0.078665 0 CHG=-1
M  V30 8 O 1.68069 3.04572 0.191515 0
M  V30 9 N 0.363554 2.94988 0.190395 0
M  V30 10 C 0.0425391 1.65995 0.103939 0
M  V30 11 C -1.14976 0.996692 0.0637802 0
M  V30 12 C -1.18628 -0.376564 -0.0296026 0
M  V30 13 C 0.00357103 -1.12026 -0.0848848 0
M  V30 14 N -0.0223019 -2.53961 -0.177896 0
M  V30 15 N -2.41785 -1.07267 -0.0732754 0 CHG=1
M  V30 16 O -3.10517 -1.034 -1.11061 0
M  V30 17 O -2.87614 -1.79376 1.00171 0 CHG=-1
M  V30 18 N -2.34777 1.74025 0.119686 0
M  V30 19 H -0.44349 -3.1171 0.582561 0
M  V30 20 H 0.384634 -3.00392 -1.01273 0
M  V30 21 H -2.8039 2.07912 -0.768245 0
M  V30 22 H -2.78502 1.95455 1.05748 0
M  V30 END ATOM
M  V30 BEGIN BOND
M  V30 1 1 1 2
M  V30 2 2 2 3
M  V30 3 1 2 4
M  V30 4 1 4 5
M  V30 5 2 5 6
M  V30 6 1 6 7
M  V30 7 1 6 8
M  V30 8 1 8 9
M  V30 9 2 9 10
M  V30 10 1 10 11
M  V30 11 2 11 12
M  V30 12 1 12 13
M  V30 13 1 13 14
M  V30 14 1 12 15
M  V30 15 2 15 16
M  V30 16 1 15 17
M  V30 17 1 11 18
M  V30 18 2 13 4
M  V30 19 1 10 5
M  V30 20 1 14 19
M  V30 21 1 14 20
M  V30 22 1 18 21
M  V30 23 1 18 22
M  V30 END BOND
M  V30 END CTAB
M  END
