
     RDKit          3D

  0  0  0  0  0  0  0  0  0  0999 V3000
M  V30 BEGIN CTAB
M  V30 COUNTS 15 15 0 0 0
M  V30 BEGIN ATOM
M  V30 1 N -2.0499 0.545496 0.0903943 0
M  V30 2 C -0.634816 0.550201 0.0232609 0
M  V30 3 C 0.0287509 -0.659619 0.00478154 0
M  V30 4 N -0.712366 -1.87354 0.0529326 0
M  V30 5 C 1.40609 -0.614548 -0.0609949 0
M  V30 6 C 2.11694 0.568168 -0.10738 0
M  V30 7 Cl 3.8846 0.540099 -0.190879 0
M  V30 8 N 1.44547 1.73368 -0.0880519 0
M  V30 9 C 0.0980882 1.72055 -0.0240372 0
M  V30 10 H -2.52321 0.493666 1.00763 0
M  V30 11 H -2.57285 0.597121 -0.834889 0
M  V30 12 H -0.660175 -2.44379 0.925239 0
M  V30 13 H -1.30351 -2.23837 -0.71454 0
M  V30 14 H 1.95539 -1.55952 -0.0768959 0
M  V30 15 H -0.478498 2.64041 -0.00657261 0
M  V30 END ATOM
M  V30 BEGIN BOND
M  V30 1 1 1 2
M  V30 2 2 2 3
M  V30 3 1 3 4
M  V30 4 1 3 5
M  V30 5 2 5 6
M  V30 6 1 6 7
M  V30 7 1 6 8
M  V30 8 2 8 9
M  V30 9 1 9 2
M  V30 10 1 1 10
M  V30 11 1 1 11
M  V30 12 1 4 12
M  V30 13 1 4 13
M  V30 14 1 5 14
M  V30 15 1 9 15
M  V30 END BOND
M  V30 END CTAB
M  END
