
     RDKit          3D

  0  0  0  0  0  0  0  0  0  0999 V3000
M  V30 BEGIN CTAB
M  V30 COUNTS 32 33 0 0 0
M  V30 BEGIN ATOM
M  V30 1 C 4.92015 -0.451031 0.958039 0
M  V30 2 N 3.58327 -0.322057 0.411217 0
M  V30 3 N 3.24482 -1.2297 -0.618768 0
M  V30 4 C 2.65918 0.6486 0.869051 0
M  V30 5 S 3.11882 1.65977 2.05786 0
M  V30 6 N 1.36129 0.741635 0.307669 0
M  V30 7 N 0.336186 -0.0728727 0.601953 0
M  V30 8 C -0.756201 0.292747 -0.109212 0
M  V30 9 N -0.358362 1.34638 -0.836094 0
M  V30 10 C 0.927171 1.62878 -0.591219 0
M  V30 11 N 1.66779 2.66727 -1.17769 0
M  V30 12 N -2.05195 -0.286307 -0.111471 0
M  V30 13 C -3.0573 0.277005 -0.954418 0
M  V30 14 C -4.43636 -0.183513 -0.716925 0
M  V30 15 O -4.61824 -1.20213 0.156975 0
M  V30 16 C -3.76619 -1.21735 1.24377 0
M  V30 17 C -2.36463 -1.4314 0.72319 0
M  V30 18 H 5.62058 -0.709557 0.139917 0
M  V30 19 H 5.2162 0.543428 1.36949 0
M  V30 20 H 4.95248 -1.19338 1.76943 0
M  V30 21 H 3.45275 -2.17997 -0.264568 0
M  V30 22 H 3.82341 -0.946628 -1.44235 0
M  V30 23 H 2.06948 2.56131 -2.13623 0
M  V30 24 H 1.86368 3.59051 -0.712056 0
M  V30 25 H -2.73395 0.0683306 -2.01744 0
M  V30 26 H -2.95909 1.39992 -0.870349 0
M  V30 27 H -5.07531 0.685482 -0.381357 0
M  V30 28 H -4.89808 -0.481521 -1.70295 0
M  V30 29 H -3.77237 -0.283287 1.82412 0
M  V30 30 H -4.05203 -2.06643 1.88962 0
M  V30 31 H -2.23396 -2.39379 0.206084 0
M  V30 32 H -1.68321 -1.46024 1.61709 0
M  V30 END ATOM
M  V30 BEGIN BOND
M  V30 1 1 1 2
M  V30 2 1 2 3
M  V30 3 1 2 4
M  V30 4 2 4 5
M  V30 5 1 4 6
M  V30 6 1 6 7
M  V30 7 2 7 8
M  V30 8 1 8 9
M  V30 9 2 9 10
M  V30 10 1 10 11
M  V30 11 1 8 12
M  V30 12 1 12 13
M  V30 13 1 13 14
M  V30 14 1 14 15
M  V30 15 1 15 16
M  V30 16 1 16 17
M  V30 17 1 10 6
M  V30 18 1 17 12
M  V30 19 1 1 18
M  V30 20 1 1 19
M  V30 21 1 1 20
M  V30 22 1 3 21
M  V30 23 1 3 22
M  V30 24 1 11 23
M  V30 25 1 11 24
M  V30 26 1 13 25
M  V30 27 1 13 26
M  V30 28 1 14 27
M  V30 29 1 14 28
M  V30 30 1 16 29
M  V30 31 1 16 30
M  V30 32 1 17 31
M  V30 33 1 17 32
M  V30 END BOND
M  V30 END CTAB
M  END
