
     RDKit          3D

  0  0  0  0  0  0  0  0  0  0999 V3000
M  V30 BEGIN CTAB
M  V30 COUNTS 33 34 0 0 0
M  V30 BEGIN ATOM
M  V30 1 C -0.177485 -1.54119 1.45466 0
M  V30 2 N -0.336752 -1.17915 0.0731339 0
M  V30 3 C -1.53681 -0.545791 -0.341545 0
M  V30 4 N -2.3486 -1.10464 -1.2833 0
M  V30 5 C -3.48474 -0.503964 -1.67517 0
M  V30 6 C -3.85991 0.704595 -1.12799 0
M  V30 7 C -3.04262 1.29882 -0.158695 0
M  V30 8 C -1.88276 0.660868 0.224796 0
M  V30 9 N -1.05661 1.26602 1.20755 0
M  V30 10 N -3.36831 2.52642 0.435859 0
M  V30 11 C 0.689988 -1.44017 -0.910117 0
M  V30 12 C 1.96014 -0.765223 -0.592179 0
M  V30 13 C 2.8993 -1.40438 0.174149 0
M  V30 14 C 4.10422 -0.827 0.5051 0
M  V30 15 C 4.39792 0.43859 0.0607506 0
M  V30 16 C 3.47321 1.10091 -0.709185 0
M  V30 17 C 2.25145 0.499291 -1.03721 0
M  V30 18 H -1.18435 -1.70134 1.89074 0
M  V30 19 H 0.339497 -0.768695 2.06081 0
M  V30 20 H 0.343969 -2.53671 1.56078 0
M  V30 21 H -4.15191 -0.933946 -2.42952 0
M  V30 22 H -4.7769 1.21442 -1.42752 0
M  V30 23 H -1.26278 1.09023 2.22165 0
M  V30 24 H -0.259963 1.87285 0.97146 0
M  V30 25 H -3.96478 3.21517 -0.0716094 0
M  V30 26 H -3.02658 2.76189 1.37156 0
M  V30 27 H 0.30584 -1.14261 -1.92638 0
M  V30 28 H 0.845168 -2.55883 -1.00133 0
M  V30 29 H 2.67309 -2.42203 0.536407 0
M  V30 30 H 4.81854 -1.3651 1.11221 0
M  V30 31 H 5.35405 0.926387 0.309529 0
M  V30 32 H 3.6915 2.08652 -1.06043 0
M  V30 33 H 1.57398 1.0778 -1.64482 0
M  V30 END ATOM
M  V30 BEGIN BOND
M  V30 1 1 1 2
M  V30 2 1 2 3
M  V30 3 2 3 4
M  V30 4 1 4 5
M  V30 5 2 5 6
M  V30 6 1 6 7
M  V30 7 2 7 8
M  V30 8 1 8 9
M  V30 9 1 7 10
M  V30 10 1 2 11
M  V30 11 1 11 12
M  V30 12 2 12 13
M  V30 13 1 13 14
M  V30 14 2 14 15
M  V30 15 1 15 16
M  V30 16 2 16 17
M  V30 17 1 8 3
M  V30 18 1 17 12
M  V30 19 1 1 18
M  V30 20 1 1 19
M  V30 21 1 1 20
M  V30 22 1 5 21
M  V30 23 1 6 22
M  V30 24 1 9 23
M  V30 25 1 9 24
M  V30 26 1 10 25
M  V30 27 1 10 26
M  V30 28 1 11 27
M  V30 29 1 11 28
M  V30 30 1 13 29
M  V30 31 1 14 30
M  V30 32 1 15 31
M  V30 33 1 16 32
M  V30 34 1 17 33
M  V30 END BOND
M  V30 END CTAB
M  END
