
     RDKit          3D

  0  0  0  0  0  0  0  0  0  0999 V3000
M  V30 BEGIN CTAB
M  V30 COUNTS 24 24 0 0 0
M  V30 BEGIN ATOM
M  V30 1 N -4.6216 0.112782 0.566808 0
M  V30 2 N -3.88939 -0.233112 -0.455495 0
M  V30 3 C -3.13529 -0.592057 -1.51494 0
M  V30 4 O -3.58241 -1.0909 -2.60383 0
M  V30 5 C -1.64099 -0.406027 -1.43255 0
M  V30 6 S -1.21358 0.28231 0.17257 0
M  V30 7 C 0.588844 0.319266 0.361331 0
M  V30 8 C 1.35346 1.36838 -0.0514465 0
M  V30 9 C 2.73697 1.29199 0.111698 0
M  V30 10 C 3.32986 0.188058 0.675963 0
M  V30 11 C 2.5343 -0.88435 1.09875 0
M  V30 12 C 1.16483 -0.808506 0.936309 0
M  V30 13 F 3.14334 -1.9542 1.65747 0
M  V30 14 N 4.72828 0.0961832 0.83267 0
M  V30 15 H -5.15318 -0.68762 1.00479 0
M  V30 16 H -4.08766 0.595485 1.3552 0
M  V30 17 H -5.0513 -0.621135 -1.1249 0
M  V30 18 H -1.37462 0.27639 -2.27094 0
M  V30 19 H -1.10094 -1.34359 -1.6217 0
M  V30 20 H 0.888799 2.21931 -0.491935 0
M  V30 21 H 3.36728 2.11655 -0.212606 0
M  V30 22 H 0.527442 -1.64449 1.25958 0
M  V30 23 H 5.25064 -0.534268 0.19783 0
M  V30 24 H 5.23692 0.629377 1.54938 0
M  V30 END ATOM
M  V30 BEGIN BOND
M  V30 1 1 1 2
M  V30 2 1 2 3
M  V30 3 2 3 4
M  V30 4 1 3 5
M  V30 5 1 5 6
M  V30 6 1 6 7
M  V30 7 2 7 8
M  V30 8 1 8 9
M  V30 9 2 9 10
M  V30 10 1 10 11
M  V30 11 2 11 12
M  V30 12 1 11 13
M  V30 13 1 10 14
M  V30 14 1 12 7
M  V30 15 1 1 15
M  V30 16 1 1 16
M  V30 17 1 2 17
M  V30 18 1 5 18
M  V30 19 1 5 19
M  V30 20 1 8 20
M  V30 21 1 9 21
M  V30 22 1 12 22
M  V30 23 1 14 23
M  V30 24 1 14 24
M  V30 END BOND
M  V30 END CTAB
M  END
