
     RDKit          3D

  0  0  0  0  0  0  0  0  0  0999 V3000
M  V30 BEGIN CTAB
M  V30 COUNTS 44 47 0 0 0
M  V30 BEGIN ATOM
M  V30 1 N -9.1046 -0.510018 0.536103 0
M  V30 2 C -7.98584 -0.278886 0.349385 0
M  V30 3 C -6.59029 0.0244002 0.0972986 0
M  V30 4 C -5.66014 -0.942552 0.34509 0
M  V30 5 C -4.29777 -0.669351 0.107118 0
M  V30 6 C -4.04492 0.578201 -0.362736 0
M  V30 7 N -4.99991 1.53215 -0.60333 0
M  V30 8 C -6.2974 1.28079 -0.379834 0
M  V30 9 N -7.27106 2.25598 -0.626048 0
M  V30 10 S -2.34269 0.573785 -0.537268 0
M  V30 11 C -2.01382 -1.01181 -0.00738234 0
M  V30 12 C -3.25825 -1.49919 0.29472 0
M  V30 13 N -3.3521 -2.86582 0.790802 0
M  V30 14 C -0.724827 -1.66833 0.0750152 0
M  V30 15 O -0.666006 -2.85492 0.452945 0
M  V30 16 N 0.521275 -1.01877 -0.262709 0
M  V30 17 C 0.618981 0.331182 -0.683176 0
M  V30 18 C 2.10066 0.640185 -0.746863 0
M  V30 19 N 2.78698 -0.509834 -0.248151 0
M  V30 20 C 1.80936 -1.62363 -0.250871 0
M  V30 21 C 4.13307 -0.655634 0.158728 0
M  V30 22 O 4.43528 -1.84904 0.616648 0
M  V30 23 C 5.20318 0.310606 0.142058 0
M  V30 24 C 5.14295 1.54669 -0.450018 0
M  V30 25 C 6.23571 2.42107 -0.36543 0
M  V30 26 C 7.37794 2.0684 0.30087 0
M  V30 27 C 7.46345 0.837028 0.900482 0
M  V30 28 C 6.39232 -0.00984255 0.81366 0
M  V30 29 H -6.01018 -1.89252 0.719147 0
M  V30 30 H -7.62137 2.42073 -1.59303 0
M  V30 31 H -7.64221 2.81556 0.166781 0
M  V30 32 H -3.2327 -3.10274 1.77757 0
M  V30 33 H -3.55025 -3.57597 0.0567388 0
M  V30 34 H 0.148611 0.967167 0.125308 0
M  V30 35 H 0.133909 0.542798 -1.65763 0
M  V30 36 H 2.28844 1.55435 -0.116004 0
M  V30 37 H 2.36725 0.796986 -1.80833 0
M  V30 38 H 2.0031 -2.30762 -1.08342 0
M  V30 39 H 2.02356 -2.18622 0.69763 0
M  V30 40 H 4.30226 1.88278 -1.00681 0
M  V30 41 H 6.1664 3.39611 -0.840939 0
M  V30 42 H 8.22007 2.72255 0.375048 0
M  V30 43 H 8.34405 0.50368 1.44162 0
M  V30 44 H 6.44755 -0.970485 1.27777 0
M  V30 END ATOM
M  V30 BEGIN BOND
M  V30 1 3 1 2
M  V30 2 1 2 3
M  V30 3 2 3 4
M  V30 4 1 4 5
M  V30 5 2 5 6
M  V30 6 1 6 7
M  V30 7 2 7 8
M  V30 8 1 8 9
M  V30 9 1 6 10
M  V30 10 1 10 11
M  V30 11 2 11 12
M  V30 12 1 12 13
M  V30 13 1 11 14
M  V30 14 2 14 15
M  V30 15 1 14 16
M  V30 16 1 16 17
M  V30 17 1 17 18
M  V30 18 1 18 19
M  V30 19 1 19 20
M  V30 20 1 19 21
M  V30 21 2 21 22
M  V30 22 1 21 23
M  V30 23 2 23 24
M  V30 24 1 24 25
M  V30 25 2 25 26
M  V30 26 1 26 27
M  V30 27 2 27 28
M  V30 28 1 8 3
M  V30 29 1 20 16
M  V30 30 1 28 23
M  V30 31 1 12 5
M  V30 32 1 4 29
M  V30 33 1 9 30
M  V30 34 1 9 31
M  V30 35 1 13 32
M  V30 36 1 13 33
M  V30 37 1 17 34
M  V30 38 1 17 35
M  V30 39 1 18 36
M  V30 40 1 18 37
M  V30 41 1 20 38
M  V30 42 1 20 39
M  V30 43 1 24 40
M  V30 44 1 25 41
M  V30 45 1 26 42
M  V30 46 1 27 43
M  V30 47 1 28 44
M  V30 END BOND
M  V30 END CTAB
M  END
