
     RDKit          3D

  0  0  0  0  0  0  0  0  0  0999 V3000
M  V30 BEGIN CTAB
M  V30 COUNTS 29 30 0 0 0
M  V30 BEGIN ATOM
M  V30 1 N -3.40518 -0.37189 -0.529201 0
M  V30 2 C -2.09202 0.267981 -0.618663 0
M  V30 3 C -2.1449 1.41805 0.403688 0
M  V30 4 O -2.06148 0.778918 1.62296 0
M  V30 5 C -1.43973 -0.426193 1.4972 0
M  V30 6 C -1.09189 -0.612036 0.0267483 0
M  V30 7 C -1.11676 -2.03994 -0.376377 0
M  V30 8 C 0.315999 -0.0981926 -0.156156 0
M  V30 9 N 1.40225 -0.784757 0.266427 0
M  V30 10 N 2.51246 -0.115287 0.00975223 0
M  V30 11 C 2.11292 1.01775 -0.587372 0
M  V30 12 N 0.758284 1.02853 -0.690335 0
M  V30 13 N 2.97445 2.06906 -1.04012 0
M  V30 14 C 3.89059 -0.510809 0.301088 0
M  V30 15 H -4.16606 0.378138 -0.506927 0
M  V30 16 H -3.44015 -0.804571 0.424449 0
M  V30 17 H -1.8562 0.610288 -1.62058 0
M  V30 18 H -3.13844 1.92338 0.303641 0
M  V30 19 H -1.37826 2.16748 0.200172 0
M  V30 20 H -2.10076 -1.24056 1.83496 0
M  V30 21 H -0.460933 -0.476054 2.05575 0
M  V30 22 H -2.16148 -2.34918 -0.551317 0
M  V30 23 H -0.562533 -2.70207 0.313352 0
M  V30 24 H -0.58092 -2.1501 -1.36448 0
M  V30 25 H 2.57055 2.97011 -1.41272 0
M  V30 26 H 3.99697 1.98415 -1.02739 0
M  V30 27 H 3.86389 -1.42759 0.9505 0
M  V30 28 H 4.43163 -0.784337 -0.619309 0
M  V30 29 H 4.36769 0.279731 0.890253 0
M  V30 END ATOM
M  V30 BEGIN BOND
M  V30 1 1 1 2
M  V30 2 1 2 3
M  V30 3 1 3 4
M  V30 4 1 4 5
M  V30 5 1 5 6
M  V30 6 1 6 7
M  V30 7 1 6 8
M  V30 8 2 8 9
M  V30 9 1 9 10
M  V30 10 1 10 11
M  V30 11 2 11 12
M  V30 12 1 11 13
M  V30 13 1 10 14
M  V30 14 1 6 2
M  V30 15 1 12 8
M  V30 16 1 1 15
M  V30 17 1 1 16
M  V30 18 1 2 17
M  V30 19 1 3 18
M  V30 20 1 3 19
M  V30 21 1 5 20
M  V30 22 1 5 21
M  V30 23 1 7 22
M  V30 24 1 7 23
M  V30 25 1 7 24
M  V30 26 1 13 25
M  V30 27 1 13 26
M  V30 28 1 14 27
M  V30 29 1 14 28
M  V30 30 1 14 29
M  V30 END BOND
M  V30 END CTAB
M  END
