
     RDKit          3D

  0  0  0  0  0  0  0  0  0  0999 V3000
M  V30 BEGIN CTAB
M  V30 COUNTS 52 53 0 0 0
M  V30 BEGIN ATOM
M  V30 1 N 5.65541 0.774361 -2.38389 0
M  V30 2 C 6.12882 -0.491702 -1.97808 0
M  V30 3 N 7.08018 -1.04632 -2.62145 0
M  V30 4 C 5.53697 -1.16236 -0.833092 0
M  V30 5 C 5.96807 -2.40475 -0.39796 0
M  V30 6 C 5.42232 -3.03953 0.669875 0
M  V30 7 C 4.39425 -2.42852 1.3566 0
M  V30 8 C 3.91543 -1.19339 0.979468 0
M  V30 9 O 2.87551 -0.61307 1.70179 0
M  V30 10 C 2.37724 0.668227 1.31223 0
M  V30 11 C 1.27271 1.00503 2.28446 0
M  V30 12 C 0.635379 2.3428 2.00729 0
M  V30 13 C 0.0211514 2.42468 0.644188 0
M  V30 14 C -1.06915 1.38585 0.438209 0
M  V30 15 C -2.18713 1.5313 1.41302 0
M  V30 16 O -3.177 0.597829 1.20638 0
M  V30 17 C -4.01468 0.461875 0.143247 0
M  V30 18 C -4.91128 -0.60822 0.156418 0
M  V30 19 C -5.77659 -0.790886 -0.880585 0
M  V30 20 C -5.81549 0.0565402 -1.98375 0
M  V30 21 C -4.94517 1.11268 -2.01661 0
M  V30 22 C -4.0597 1.29851 -0.952829 0
M  V30 23 C -6.69511 -1.91637 -0.831083 0
M  V30 24 N -6.67125 -2.8051 0.301026 0
M  V30 25 N -7.55508 -2.20123 -1.73406 0
M  V30 26 C 4.49776 -0.585291 -0.109173 0
M  V30 27 H 4.92377 0.858696 -3.12324 0
M  V30 28 H 6.02216 1.64336 -1.95865 0
M  V30 29 H 7.50645 -0.568924 -3.44197 0
M  V30 30 H 6.77574 -2.89298 -0.931446 0
M  V30 31 H 5.76249 -4.02257 1.01521 0
M  V30 32 H 3.95135 -2.92463 2.20923 0
M  V30 33 H 2.03829 0.604046 0.277818 0
M  V30 34 H 3.2151 1.38414 1.43886 0
M  V30 35 H 1.7537 1.10677 3.30222 0
M  V30 36 H 0.483694 0.23537 2.29757 0
M  V30 37 H 1.38646 3.17431 2.10131 0
M  V30 38 H -0.129274 2.4957 2.80667 0
M  V30 39 H 0.813018 2.18724 -0.105507 0
M  V30 40 H -0.376758 3.42677 0.425218 0
M  V30 41 H -0.555813 0.375122 0.556511 0
M  V30 42 H -1.41413 1.40774 -0.587042 0
M  V30 43 H -1.83669 1.4423 2.47206 0
M  V30 44 H -2.58161 2.59881 1.37085 0
M  V30 45 H -4.90219 -1.27743 0.996058 0
M  V30 46 H -6.48547 -0.0623281 -2.81555 0
M  V30 47 H -4.95243 1.79049 -2.86414 0
M  V30 48 H -3.43474 2.17185 -1.05557 0
M  V30 49 H -6.63293 -2.42168 1.27168 0
M  V30 50 H -6.69243 -3.84263 0.15111 0
M  V30 51 H -7.68316 -1.65051 -2.60088 0
M  V30 52 H 4.14179 0.388032 -0.429946 0
M  V30 END ATOM
M  V30 BEGIN BOND
M  V30 1 1 1 2
M  V30 2 2 2 3 CFG=2
M  V30 3 1 2 4
M  V30 4 2 4 5
M  V30 5 1 5 6
M  V30 6 2 6 7
M  V30 7 1 7 8
M  V30 8 1 8 9
M  V30 9 1 9 10
M  V30 10 1 10 11
M  V30 11 1 11 12
M  V30 12 1 12 13
M  V30 13 1 13 14
M  V30 14 1 14 15
M  V30 15 1 15 16
M  V30 16 1 16 17
M  V30 17 2 17 18
M  V30 18 1 18 19
M  V30 19 2 19 20
M  V30 20 1 20 21
M  V30 21 2 21 22
M  V30 22 1 19 23
M  V30 23 1 23 24
M  V30 24 2 23 25 CFG=2
M  V30 25 2 8 26
M  V30 26 1 26 4
M  V30 27 1 22 17
M  V30 28 1 1 27
M  V30 29 1 1 28
M  V30 30 1 3 29
M  V30 31 1 5 30
M  V30 32 1 6 31
M  V30 33 1 7 32
M  V30 34 1 10 33
M  V30 35 1 10 34
M  V30 36 1 11 35
M  V30 37 1 11 36
M  V30 38 1 12 37
M  V30 39 1 12 38
M  V30 40 1 13 39
M  V30 41 1 13 40
M  V30 42 1 14 41
M  V30 43 1 14 42
M  V30 44 1 15 43
M  V30 45 1 15 44
M  V30 46 1 18 45
M  V30 47 1 20 46
M  V30 48 1 21 47
M  V30 49 1 22 48
M  V30 50 1 24 49
M  V30 51 1 24 50
M  V30 52 1 25 51
M  V30 53 1 26 52
M  V30 END BOND
M  V30 END CTAB
M  END
