
     RDKit          3D

  0  0  0  0  0  0  0  0  0  0999 V3000
M  V30 BEGIN CTAB
M  V30 COUNTS 28 28 0 0 0
M  V30 BEGIN ATOM
M  V30 1 N -2.2159 1.57889 -0.729554 0
M  V30 2 C -1.80619 0.705107 0.344395 0
M  V30 3 C -1.34649 -0.632749 -0.126809 0
M  V30 4 C -0.177416 -0.637282 -1.04212 0
M  V30 5 C 1.06501 -0.0566591 -0.488401 0
M  V30 6 C 1.94828 -0.849949 0.212558 0
M  V30 7 C 3.123 -0.380758 0.749245 0
M  V30 8 C 3.42756 0.953851 0.573619 0
M  V30 9 C 2.57047 1.77972 -0.121222 0
M  V30 10 C 1.39409 1.26811 -0.647948 0
M  V30 11 F 2.83808 3.09969 -0.313801 0
M  V30 12 N -2.47068 -1.22277 -0.873047 0
M  V30 13 C -1.15957 -1.51771 1.08603 0
M  V30 14 H -3.11463 1.2995 -1.13363 0
M  V30 15 H -2.20499 2.55322 -0.351254 0
M  V30 16 H -2.72896 0.531993 0.966556 0
M  V30 17 H -1.08752 1.19123 1.03664 0
M  V30 18 H -0.43553 -0.020253 -1.93371 0
M  V30 19 H -0.00432091 -1.66873 -1.44501 0
M  V30 20 H 1.71211 -1.91132 0.355634 0
M  V30 21 H 3.81822 -1.02476 1.30605 0
M  V30 22 H 4.35521 1.37784 0.98365 0
M  V30 23 H 0.7381 1.9615 -1.20064 0
M  V30 24 H -2.37049 -0.957551 -1.88623 0
M  V30 25 H -2.38434 -2.24648 -0.795592 0
M  V30 26 H -0.753744 -2.502 0.821854 0
M  V30 27 H -2.16865 -1.66794 1.52935 0
M  V30 28 H -0.560697 -1.00375 1.88547 0
M  V30 END ATOM
M  V30 BEGIN BOND
M  V30 1 1 1 2
M  V30 2 1 2 3
M  V30 3 1 3 4
M  V30 4 1 4 5
M  V30 5 2 5 6
M  V30 6 1 6 7
M  V30 7 2 7 8
M  V30 8 1 8 9
M  V30 9 2 9 10
M  V30 10 1 9 11
M  V30 11 1 3 12
M  V30 12 1 3 13
M  V30 13 1 10 5
M  V30 14 1 1 14
M  V30 15 1 1 15
M  V30 16 1 2 16
M  V30 17 1 2 17
M  V30 18 1 4 18
M  V30 19 1 4 19
M  V30 20 1 6 20
M  V30 21 1 7 21
M  V30 22 1 8 22
M  V30 23 1 10 23
M  V30 24 1 12 24
M  V30 25 1 12 25
M  V30 26 1 13 26
M  V30 27 1 13 27
M  V30 28 1 13 28
M  V30 END BOND
M  V30 END CTAB
M  END
