
     RDKit          3D

  0  0  0  0  0  0  0  0  0  0999 V3000
M  V30 BEGIN CTAB
M  V30 COUNTS 30 31 0 0 0
M  V30 BEGIN ATOM
M  V30 1 C 0.269796 2.03899 -0.855288 0
M  V30 2 N 0.532969 0.713267 -0.266961 0
M  V30 3 C -0.591224 0.0614538 0.284772 0
M  V30 4 N -0.618882 -0.250805 1.56613 0
M  V30 5 C -1.64012 -0.868388 2.1869 0
M  V30 6 C -2.74187 -1.19205 1.39065 0
M  V30 7 C -2.79316 -0.901909 0.0476543 0
M  V30 8 C -1.69519 -0.266592 -0.497107 0
M  V30 9 N -1.72844 0.0425297 -1.88561 0
M  V30 10 N -3.93749 -1.25598 -0.702926 0
M  V30 11 C 1.8672 0.257852 -0.328394 0
M  V30 12 C 2.92502 1.09653 0.351548 0
M  V30 13 C 3.69342 -0.222321 0.538996 0
M  V30 14 C 2.3032 -0.880543 0.546619 0
M  V30 15 H 0.173599 1.96897 -1.94995 0
M  V30 16 H 1.11597 2.72216 -0.557442 0
M  V30 17 H -0.645625 2.49005 -0.450101 0
M  V30 18 H -1.60607 -1.09984 3.24466 0
M  V30 19 H -3.58373 -1.6936 1.87012 0
M  V30 20 H -2.24467 0.882974 -2.24656 0
M  V30 21 H -1.24196 -0.551707 -2.60436 0
M  V30 22 H -4.62268 -0.548421 -1.04066 0
M  V30 23 H -4.13995 -2.26154 -0.950238 0
M  V30 24 H 2.18383 0.0628262 -1.37203 0
M  V30 25 H 2.66033 1.47965 1.34704 0
M  V30 26 H 3.40489 1.78234 -0.346443 0
M  V30 27 H 4.22156 -0.472179 -0.381183 0
M  V30 28 H 4.23731 -0.299268 1.48405 0
M  V30 29 H 2.38256 -1.86532 0.0412439 0
M  V30 30 H 1.85942 -0.969132 1.53488 0
M  V30 END ATOM
M  V30 BEGIN BOND
M  V30 1 1 1 2
M  V30 2 1 2 3
M  V30 3 2 3 4
M  V30 4 1 4 5
M  V30 5 2 5 6
M  V30 6 1 6 7
M  V30 7 2 7 8
M  V30 8 1 8 9
M  V30 9 1 7 10
M  V30 10 1 2 11
M  V30 11 1 11 12
M  V30 12 1 12 13
M  V30 13 1 13 14
M  V30 14 1 8 3
M  V30 15 1 14 11
M  V30 16 1 1 15
M  V30 17 1 1 16
M  V30 18 1 1 17
M  V30 19 1 5 18
M  V30 20 1 6 19
M  V30 21 1 9 20
M  V30 22 1 9 21
M  V30 23 1 10 22
M  V30 24 1 10 23
M  V30 25 1 11 24
M  V30 26 1 12 25
M  V30 27 1 12 26
M  V30 28 1 13 27
M  V30 29 1 13 28
M  V30 30 1 14 29
M  V30 31 1 14 30
M  V30 END BOND
M  V30 END CTAB
M  END
