
     RDKit          3D

  0  0  0  0  0  0  0  0  0  0999 V3000
M  V30 BEGIN CTAB
M  V30 COUNTS 42 44 0 0 0
M  V30 BEGIN ATOM
M  V30 1 N -4.98572 4.26222 0.625282 0
M  V30 2 N -4.64274 2.92275 0.434398 0
M  V30 3 C -3.31718 2.48081 0.221142 0
M  V30 4 O -2.38099 3.30784 0.196897 0
M  V30 5 C -3.10976 1.03172 0.034717 0
M  V30 6 N -4.0237 0.0725503 0.0169518 0
M  V30 7 N -3.45267 -1.07516 -0.178886 0
M  V30 8 N -2.11425 -0.915884 -0.300975 0
M  V30 9 C -1.86728 0.376206 -0.171772 0
M  V30 10 C -0.62622 1.13861 -0.259343 0
M  V30 11 N 0.628532 0.559214 -0.367484 0
M  V30 12 C 1.2608 0.0293392 0.789828 0
M  V30 13 C 2.65387 -0.444749 0.580705 0
M  V30 14 C 3.65441 0.50624 0.661615 0
M  V30 15 C 4.9517 0.0830794 0.475086 0
M  V30 16 C 5.27369 -1.25149 0.21256 0
M  V30 17 C 4.26966 -2.19007 0.134359 0
M  V30 18 C 2.9614 -1.76036 0.32304 0
M  V30 19 C 1.49692 1.20951 -1.28582 0
M  V30 20 C -1.25637 -2.04495 -0.577973 0
M  V30 21 N -0.466709 -2.30264 -1.60721 0
M  V30 22 O 0.0733103 -3.4815 -1.41273 0
M  V30 23 N -0.325172 -4.00889 -0.30298 0
M  V30 24 C -1.17336 -3.13607 0.269861 0
M  V30 25 N -1.86443 -3.27784 1.50356 0
M  V30 26 H -5.85214 4.46523 0.0416525 0
M  V30 27 H -4.22349 4.83469 0.181093 0
M  V30 28 H -5.41782 2.23326 0.454044 0
M  V30 29 H -0.754518 1.95562 -1.05989 0
M  V30 30 H -0.579646 1.80251 0.690063 0
M  V30 31 H 1.30491 0.898605 1.53081 0
M  V30 32 H 0.730788 -0.788739 1.30078 0
M  V30 33 H 3.46226 1.56279 0.866935 0
M  V30 34 H 5.76697 0.803803 0.531415 0
M  V30 35 H 6.28757 -1.58602 0.0659916 0
M  V30 36 H 4.48337 -3.22677 -0.0662587 0
M  V30 37 H 2.20937 -2.53006 0.258368 0
M  V30 38 H 0.90166 1.43495 -2.22129 0
M  V30 39 H 1.92305 2.13259 -0.859692 0
M  V30 40 H 2.34411 0.597539 -1.65423 0
M  V30 41 H -1.32356 -3.58652 2.33826 0
M  V30 42 H -2.88062 -3.09397 1.63442 0
M  V30 END ATOM
M  V30 BEGIN BOND
M  V30 1 1 1 2
M  V30 2 1 2 3
M  V30 3 2 3 4
M  V30 4 1 3 5
M  V30 5 1 5 6
M  V30 6 2 6 7
M  V30 7 1 7 8
M  V30 8 1 8 9
M  V30 9 1 9 10
M  V30 10 1 10 11
M  V30 11 1 11 12
M  V30 12 1 12 13
M  V30 13 2 13 14
M  V30 14 1 14 15
M  V30 15 2 15 16
M  V30 16 1 16 17
M  V30 17 2 17 18
M  V30 18 1 11 19
M  V30 19 1 8 20
M  V30 20 2 20 21
M  V30 21 1 21 22
M  V30 22 1 22 23
M  V30 23 2 23 24
M  V30 24 1 24 25
M  V30 25 2 9 5
M  V30 26 1 18 13
M  V30 27 1 24 20
M  V30 28 1 1 26
M  V30 29 1 1 27
M  V30 30 1 2 28
M  V30 31 1 10 29
M  V30 32 1 10 30
M  V30 33 1 12 31
M  V30 34 1 12 32
M  V30 35 1 14 33
M  V30 36 1 15 34
M  V30 37 1 16 35
M  V30 38 1 17 36
M  V30 39 1 18 37
M  V30 40 1 19 38
M  V30 41 1 19 39
M  V30 42 1 19 40
M  V30 43 1 25 41
M  V30 44 1 25 42
M  V30 END BOND
M  V30 END CTAB
M  END
