
     RDKit          3D

  0  0  0  0  0  0  0  0  0  0999 V3000
M  V30 BEGIN CTAB
M  V30 COUNTS 39 42 0 0 0
M  V30 BEGIN ATOM
M  V30 1 N -5.83544 1.86446 1.34041 0
M  V30 2 C -5.21756 0.663324 0.829782 0
M  V30 3 C -5.18304 0.387102 -0.635913 0
M  V30 4 C -3.91249 0.764758 0.0696294 0
M  V30 5 O -2.93692 -0.212464 0.247311 0
M  V30 6 C -1.57704 -0.00905038 0.134685 0
M  V30 7 C -1.0151 1.1997 -0.170558 0
M  V30 8 C 0.325897 1.35523 -0.272367 0
M  V30 9 C 1.24036 0.306783 -0.0763322 0
M  V30 10 C 2.64989 0.582921 -0.180813 0
M  V30 11 C 3.08063 1.91205 0.0149743 0
M  V30 12 C 4.42649 2.18411 -0.0564514 0
M  V30 13 C 5.32547 1.19037 -0.3105 0
M  V30 14 C 4.87515 -0.109803 -0.498832 0
M  V30 15 N 5.77225 -1.16998 -0.764065 0
M  V30 16 N 3.57062 -0.322545 -0.420947 0
M  V30 17 C 0.679693 -0.90728 0.231711 0
M  V30 18 C -0.712427 -1.06843 0.336496 0
M  V30 19 C -1.25714 -2.29482 0.661814 0
M  V30 20 C -0.461884 -3.39607 0.895413 0
M  V30 21 C 0.90587 -3.21814 0.790024 0
M  V30 22 C 1.476 -2.00768 0.467032 0
M  V30 23 H -6.8628 1.86413 1.28899 0
M  V30 24 H -5.37213 2.73706 1.04496 0
M  V30 25 H -5.31924 -0.206846 1.52554 0
M  V30 26 H -5.65503 1.06081 -1.36182 0
M  V30 27 H -5.26089 -0.692748 -0.940458 0
M  V30 28 H -3.56729 1.77899 -0.180622 0
M  V30 29 H -1.63849 2.07502 -0.340779 0
M  V30 30 H 0.737804 2.31268 -0.527102 0
M  V30 31 H 2.43248 2.72344 0.227292 0
M  V30 32 H 4.76257 3.22058 0.0957083 0
M  V30 33 H 6.37782 1.38107 -0.370231 0
M  V30 34 H 5.85535 -2.01931 -0.146847 0
M  V30 35 H 6.37611 -1.10394 -1.60877 0
M  V30 36 H -2.32161 -2.42491 0.742194 0
M  V30 37 H -0.84453 -4.3746 1.15222 0
M  V30 38 H 1.55319 -4.06011 0.967555 0
M  V30 39 H 2.52742 -1.96586 0.43001 0
M  V30 END ATOM
M  V30 BEGIN BOND
M  V30 1 1 1 2
M  V30 2 1 2 3
M  V30 3 1 3 4
M  V30 4 1 4 5
M  V30 5 1 5 6
M  V30 6 2 6 7
M  V30 7 1 7 8
M  V30 8 2 8 9
M  V30 9 1 9 10
M  V30 10 2 10 11
M  V30 11 1 11 12
M  V30 12 2 12 13
M  V30 13 1 13 14
M  V30 14 1 14 15
M  V30 15 2 14 16
M  V30 16 1 9 17
M  V30 17 2 17 18
M  V30 18 1 18 19
M  V30 19 2 19 20
M  V30 20 1 20 21
M  V30 21 2 21 22
M  V30 22 1 4 2
M  V30 23 1 18 6
M  V30 24 1 16 10
M  V30 25 1 22 17
M  V30 26 1 1 23
M  V30 27 1 1 24
M  V30 28 1 2 25
M  V30 29 1 3 26
M  V30 30 1 3 27
M  V30 31 1 4 28
M  V30 32 1 7 29
M  V30 33 1 8 30
M  V30 34 1 11 31
M  V30 35 1 12 32
M  V30 36 1 13 33
M  V30 37 1 15 34
M  V30 38 1 15 35
M  V30 39 1 19 36
M  V30 40 1 20 37
M  V30 41 1 21 38
M  V30 42 1 22 39
M  V30 END BOND
M  V30 END CTAB
M  END
