
     RDKit          3D

  0  0  0  0  0  0  0  0  0  0999 V3000
M  V30 BEGIN CTAB
M  V30 COUNTS 45 46 0 0 0
M  V30 BEGIN ATOM
M  V30 1 O 2.2355 -0.511895 -2.95227 0
M  V30 2 C 2.35548 -0.266515 -1.65219 0
M  V30 3 C 1.12058 -0.166897 -0.936201 0
M  V30 4 O 1.02973 0.0558176 0.27286 0
M  V30 5 N -0.144203 -0.334011 -1.64787 0
M  V30 6 C -1.3534 -0.226111 -0.891154 0
M  V30 7 C -2.54043 -0.432119 -1.82306 0
M  V30 8 C -3.76628 -0.305487 -0.96536 0
M  V30 9 C -4.32845 -1.39561 -0.335448 0
M  V30 10 C -5.45401 -1.26424 0.448979 0
M  V30 11 C -6.06513 -0.0424288 0.637827 0
M  V30 12 C -5.5059 1.05018 0.009522 0
M  V30 13 C -4.37825 0.916015 -0.775832 0
M  V30 14 S -7.48701 0.0875301 1.63617 0
M  V30 15 O -7.56302 1.37434 2.37735 0
M  V30 16 O -7.40953 -1.03198 2.66215 0
M  V30 17 N -8.86291 -0.147753 0.601952 0
M  V30 18 N 3.64271 -0.150078 -1.21567 0
M  V30 19 C 4.15523 0.100428 0.0545303 0
M  V30 20 O 3.43968 0.271889 1.08043 0
M  V30 21 C 5.60881 0.193271 0.33984 0
M  V30 22 C 6.50374 0.0303503 -0.666701 0
M  V30 23 C 7.87641 0.118836 -0.392984 0
M  V30 24 C 8.35537 0.366444 0.866685 0
M  V30 25 C 7.44233 0.530243 1.88061 0
M  V30 26 C 6.07307 0.443358 1.61499 0
M  V30 27 N 5.12348 0.610432 2.65187 0
M  V30 28 H -0.171252 -0.523293 -2.66015 0
M  V30 29 H -1.43755 0.722485 -0.333858 0
M  V30 30 H -1.43751 -1.0319 -0.110839 0
M  V30 31 H -2.56027 -1.43643 -2.24226 0
M  V30 32 H -2.60599 0.380004 -2.57452 0
M  V30 33 H -3.87797 -2.35722 -0.462093 0
M  V30 34 H -5.86483 -2.14037 0.925682 0
M  V30 35 H -5.94688 2.03381 0.124786 0
M  V30 36 H -3.93737 1.77269 -1.2702 0
M  V30 37 H -9.59108 0.539442 0.91788 0
M  V30 38 H -8.61405 0.111682 -0.390418 0
M  V30 39 H 4.39886 -0.274894 -1.9969 0
M  V30 40 H 6.24314 -0.167083 -1.68894 0
M  V30 41 H 8.60012 -0.0107987 -1.19558 0
M  V30 42 H 9.41526 0.433735 1.07246 0
M  V30 43 H 7.77296 0.728135 2.89502 0
M  V30 44 H 4.82725 -0.193344 3.23843 0
M  V30 45 H 4.68357 1.53934 2.87047 0
M  V30 END ATOM
M  V30 BEGIN BOND
M  V30 1 2 1 2
M  V30 2 1 2 3
M  V30 3 2 3 4
M  V30 4 1 3 5
M  V30 5 1 5 6
M  V30 6 1 6 7
M  V30 7 1 7 8
M  V30 8 2 8 9
M  V30 9 1 9 10
M  V30 10 2 10 11
M  V30 11 1 11 12
M  V30 12 2 12 13
M  V30 13 1 11 14
M  V30 14 2 14 15
M  V30 15 2 14 16
M  V30 16 1 14 17
M  V30 17 1 2 18
M  V30 18 1 18 19
M  V30 19 2 19 20
M  V30 20 1 19 21
M  V30 21 2 21 22
M  V30 22 1 22 23
M  V30 23 2 23 24
M  V30 24 1 24 25
M  V30 25 2 25 26
M  V30 26 1 26 27
M  V30 27 1 13 8
M  V30 28 1 26 21
M  V30 29 1 5 28
M  V30 30 1 6 29
M  V30 31 1 6 30
M  V30 32 1 7 31
M  V30 33 1 7 32
M  V30 34 1 9 33
M  V30 35 1 10 34
M  V30 36 1 12 35
M  V30 37 1 13 36
M  V30 38 1 17 37
M  V30 39 1 17 38
M  V30 40 1 18 39
M  V30 41 1 22 40
M  V30 42 1 23 41
M  V30 43 1 24 42
M  V30 44 1 25 43
M  V30 45 1 27 44
M  V30 46 1 27 45
M  V30 END BOND
M  V30 END CTAB
M  END
