
     RDKit          3D

  0  0  0  0  0  0  0  0  0  0999 V3000
M  V30 BEGIN CTAB
M  V30 COUNTS 57 59 0 0 0
M  V30 BEGIN ATOM
M  V30 1 C 0.256881 0.311528 -1.59195 0
M  V30 2 C -0.727488 0.388287 -0.459869 0
M  V30 3 C -1.92932 1.00558 -0.571855 0
M  V30 4 C -2.81146 1.06089 0.487131 0
M  V30 5 C -2.46925 0.485781 1.67359 0
M  V30 6 N -3.34497 0.548622 2.78594 0
M  V30 7 C -1.21774 -0.149975 1.76113 0
M  V30 8 O -0.944189 -0.670472 2.87861 0
M  V30 9 N -0.374317 -0.199042 0.726904 0
M  V30 10 C 0.851506 -0.954944 0.767376 0
M  V30 11 C 2.05774 -0.171194 1.1744 0
M  V30 12 O 1.91761 0.839664 1.87637 0
M  V30 13 N 3.33127 -0.58104 0.742402 0
M  V30 14 C 4.49133 0.244822 1.08729 0
M  V30 15 C 5.71559 -0.275666 0.464321 0
M  V30 16 C 6.35532 -1.36408 1.09613 0
M  V30 17 C 7.62294 -1.66144 0.635746 0
M  V30 18 C 8.22499 -0.943819 -0.386888 0
M  V30 19 N 9.5133 -1.27334 -0.846466 0
M  V30 20 N 7.52996 0.077808 -0.936661 0
M  V30 21 C 6.31355 0.45652 -0.57398 0
M  V30 22 C 5.48702 1.46901 -1.29833 0
M  V30 23 S -4.48307 1.69963 0.206283 0
M  V30 24 O -4.51327 2.19795 -1.20586 0
M  V30 25 O -4.71537 2.77286 1.22568 0
M  V30 26 C -5.50061 0.31175 0.409987 0
M  V30 27 C -6.94852 0.364389 0.138422 0
M  V30 28 C -7.46475 0.650402 -1.21572 0
M  V30 29 C -7.37804 -0.84375 -1.54393 0
M  V30 30 C -7.44846 -1.09103 -0.0235111 0
M  V30 31 H 1.22466 0.744391 -1.25764 0
M  V30 32 H 0.410652 -0.734271 -1.89633 0
M  V30 33 H -0.134252 0.950563 -2.43151 0
M  V30 34 H -2.21174 1.49404 -1.53145 0
M  V30 35 H -3.79056 1.4514 3.07037 0
M  V30 36 H -3.54591 -0.295983 3.35447 0
M  V30 37 H 1.0285 -1.5044 -0.150263 0
M  V30 38 H 0.663472 -1.75618 1.56492 0
M  V30 39 H 3.45804 -1.41732 0.162095 0
M  V30 40 H 4.30024 1.28167 0.981519 0
M  V30 41 H 4.60677 0.0817276 2.25938 0
M  V30 42 H 5.86805 -1.87265 1.90787 0
M  V30 43 H 8.15913 -2.51097 1.11352 0
M  V30 44 H 9.89358 -0.766568 -1.6665 0
M  V30 45 H 10.125 -2.00654 -0.450646 0
M  V30 46 H 6.10288 2.16489 -1.86154 0
M  V30 47 H 4.78589 1.98327 -0.655644 0
M  V30 48 H 4.89634 0.897362 -2.12648 0
M  V30 49 H -5.02191 -0.561649 -0.121046 0
M  V30 50 H -5.41878 -0.0109067 1.50778 0
M  V30 51 H -7.57001 0.870425 0.928691 0
M  V30 52 H -8.54808 0.973316 -1.19906 0
M  V30 53 H -6.89821 1.3114 -1.9026 0
M  V30 54 H -8.2478 -1.27535 -2.0367 0
M  V30 55 H -6.41748 -1.04517 -2.02836 0
M  V30 56 H -8.45134 -1.29093 0.329338 0
M  V30 57 H -6.66528 -1.86129 0.219807 0
M  V30 END ATOM
M  V30 BEGIN BOND
M  V30 1 1 1 2
M  V30 2 2 2 3
M  V30 3 1 3 4
M  V30 4 2 4 5
M  V30 5 1 5 6
M  V30 6 1 5 7
M  V30 7 2 7 8
M  V30 8 1 7 9
M  V30 9 1 9 10
M  V30 10 1 10 11
M  V30 11 2 11 12
M  V30 12 1 11 13
M  V30 13 1 13 14
M  V30 14 1 14 15
M  V30 15 2 15 16
M  V30 16 1 16 17
M  V30 17 2 17 18
M  V30 18 1 18 19
M  V30 19 1 18 20
M  V30 20 2 20 21
M  V30 21 1 21 22
M  V30 22 1 4 23
M  V30 23 2 23 24
M  V30 24 2 23 25
M  V30 25 1 23 26
M  V30 26 1 26 27
M  V30 27 1 27 28
M  V30 28 1 28 29
M  V30 29 1 29 30
M  V30 30 1 9 2
M  V30 31 1 21 15
M  V30 32 1 30 27
M  V30 33 1 1 31
M  V30 34 1 1 32
M  V30 35 1 1 33
M  V30 36 1 3 34
M  V30 37 1 6 35
M  V30 38 1 6 36
M  V30 39 1 10 37
M  V30 40 1 10 38
M  V30 41 1 13 39
M  V30 42 1 14 40
M  V30 43 1 14 41
M  V30 44 1 16 42
M  V30 45 1 17 43
M  V30 46 1 19 44
M  V30 47 1 19 45
M  V30 48 1 22 46
M  V30 49 1 22 47
M  V30 50 1 22 48
M  V30 51 1 26 49
M  V30 52 1 26 50
M  V30 53 1 27 51
M  V30 54 1 28 52
M  V30 55 1 28 53
M  V30 56 1 29 54
M  V30 57 1 29 55
M  V30 58 1 30 56
M  V30 59 1 30 57
M  V30 END BOND
M  V30 END CTAB
M  END
