
     RDKit          3D

  0  0  0  0  0  0  0  0  0  0999 V3000
M  V30 BEGIN CTAB
M  V30 COUNTS 47 48 0 0 0
M  V30 BEGIN ATOM
M  V30 1 C -0.0822399 -2.16485 0.96924 0
M  V30 2 C 0.0546509 -1.02933 -0.0444965 0
M  V30 3 C 0.282566 -1.7598 -1.35853 0
M  V30 4 C 1.21972 -0.203983 0.366771 0 CFG=1
M  V30 5 C 2.52914 -0.965353 0.408504 0
M  V30 6 C 3.67234 0.0459575 0.49914 0
M  V30 7 C 3.88377 0.801518 -0.76797 0 CFG=2
M  V30 8 N 4.23798 2.17299 -0.465592 0
M  V30 9 C 2.5549 0.819278 -1.51291 0
M  V30 10 C 1.47852 1.02263 -0.454237 0
M  V30 11 C -1.24427 -0.273972 -0.0855985 0 CFG=1
M  V30 12 C -2.41719 -1.11275 -0.487858 0
M  V30 13 C -3.73027 -0.599961 0.047967 0
M  V30 14 C -3.81258 0.866677 0.216793 0 CFG=2
M  V30 15 N -4.24281 1.54995 -1.01465 0
M  V30 16 C -2.60007 1.53212 0.766609 0
M  V30 17 C -1.60073 0.434001 1.16711 0
M  V30 18 H 0.902204 -2.58505 1.25542 0
M  V30 19 H -0.607961 -3.03534 0.48396 0
M  V30 20 H -0.581148 -1.83526 1.88834 0
M  V30 21 H 1.11797 -2.46964 -1.31763 0
M  V30 22 H -0.635281 -2.41204 -1.47478 0
M  V30 23 H 0.263076 -1.09564 -2.23114 0
M  V30 24 H 1.02745 0.100186 1.43982 0
M  V30 25 H 2.64084 -1.56716 1.35364 0
M  V30 26 H 2.73106 -1.55644 -0.491173 0
M  V30 27 H 4.58547 -0.552782 0.70238 0
M  V30 28 H 3.48042 0.702532 1.3497 0
M  V30 29 H 4.65981 0.365342 -1.43017 0
M  V30 30 H 5.23645 2.37008 -0.703025 0
M  V30 31 H 4.00257 2.45075 0.511338 0
M  V30 32 H 2.54929 1.75821 -2.12498 0
M  V30 33 H 2.42448 -0.0803928 -2.11138 0
M  V30 34 H 0.606636 1.51334 -0.878521 0
M  V30 35 H 1.92681 1.78484 0.253676 0
M  V30 36 H -1.14211 0.502033 -0.896832 0
M  V30 37 H -2.33081 -2.15349 -0.113636 0
M  V30 38 H -2.43594 -1.20219 -1.60652 0
M  V30 39 H -4.00506 -1.10459 1.0219 0
M  V30 40 H -4.518 -0.920617 -0.667516 0
M  V30 41 H -4.65193 1.07508 0.946161 0
M  V30 42 H -5.25123 1.27651 -1.18252 0
M  V30 43 H -4.27223 2.56944 -0.765974 0
M  V30 44 H -2.80811 2.19456 1.64014 0
M  V30 45 H -2.09439 2.08196 -0.0635058 0
M  V30 46 H -0.803269 0.942237 1.69515 0
M  V30 47 H -2.20048 -0.251604 1.82904 0
M  V30 END ATOM
M  V30 BEGIN BOND
M  V30 1 1 1 2
M  V30 2 1 2 3
M  V30 3 1 2 4
M  V30 4 1 4 5
M  V30 5 1 5 6
M  V30 6 1 6 7
M  V30 7 1 7 8
M  V30 8 1 7 9
M  V30 9 1 9 10
M  V30 10 1 2 11
M  V30 11 1 11 12
M  V30 12 1 12 13
M  V30 13 1 13 14
M  V30 14 1 14 15
M  V30 15 1 14 16
M  V30 16 1 16 17
M  V30 17 1 10 4
M  V30 18 1 17 11
M  V30 19 1 1 18
M  V30 20 1 1 19
M  V30 21 1 1 20
M  V30 22 1 3 21
M  V30 23 1 3 22
M  V30 24 1 3 23
M  V30 25 1 4 24 CFG=1
M  V30 26 1 5 25
M  V30 27 1 5 26
M  V30 28 1 6 27
M  V30 29 1 6 28
M  V30 30 1 7 29 CFG=3
M  V30 31 1 8 30
M  V30 32 1 8 31
M  V30 33 1 9 32
M  V30 34 1 9 33
M  V30 35 1 10 34
M  V30 36 1 10 35
M  V30 37 1 11 36 CFG=3
M  V30 38 1 12 37
M  V30 39 1 12 38
M  V30 40 1 13 39
M  V30 41 1 13 40
M  V30 42 1 14 41 CFG=1
M  V30 43 1 15 42
M  V30 44 1 15 43
M  V30 45 1 16 44
M  V30 46 1 16 45
M  V30 47 1 17 46
M  V30 48 1 17 47
M  V30 END BOND
M  V30 END CTAB
M  END
