
     RDKit          3D

  0  0  0  0  0  0  0  0  0  0999 V3000
M  V30 BEGIN CTAB
M  V30 COUNTS 34 34 0 0 0
M  V30 BEGIN ATOM
M  V30 1 C -5.92881 0.211465 0.749096 0
M  V30 2 C -4.68244 0.092932 1.59551 0
M  V30 3 O -3.55257 0.0589827 0.711535 0
M  V30 4 C -2.26688 -0.0464734 1.20599 0
M  V30 5 O -2.1086 -0.112023 2.44724 0
M  V30 6 C -1.09286 -0.0848815 0.357586 0
M  V30 7 C 0.195422 -0.189045 0.818709 0
M  V30 8 C 1.28279 -0.222302 -0.0193237 0
M  V30 9 C 2.65191 -0.333801 0.488868 0
M  V30 10 O 2.80018 -0.398936 1.73495 0
M  V30 11 O 3.75844 -0.370026 -0.310025 0
M  V30 12 C 5.08157 -0.475901 0.138998 0
M  V30 13 C 5.51486 0.639455 1.03158 0
M  V30 14 C 1.0791 -0.14858 -1.37762 0
M  V30 15 N 2.21351 -0.182389 -2.2717 0
M  V30 16 C -0.174093 -0.0451204 -1.87406 0
M  V30 17 C -1.25414 -0.0131065 -1.01883 0
M  V30 18 N -2.56659 0.0959552 -1.55476 0
M  V30 19 H -5.77834 0.864039 -0.112727 0
M  V30 20 H -6.78834 0.598319 1.34209 0
M  V30 21 H -6.25304 -0.782708 0.347111 0
M  V30 22 H -4.70024 -0.810553 2.23088 0
M  V30 23 H -4.64047 0.98372 2.25894 0
M  V30 24 H 0.328556 -0.245396 1.88974 0
M  V30 25 H 5.72967 -0.466124 -0.783752 0
M  V30 26 H 5.30822 -1.43448 0.645286 0
M  V30 27 H 6.38977 1.19838 0.588708 0
M  V30 28 H 5.91248 0.253193 2.01296 0
M  V30 29 H 4.7115 1.36608 1.227 0
M  V30 30 H 2.73345 -1.04011 -2.45244 0
M  V30 31 H 2.49186 0.705168 -2.73472 0
M  V30 32 H -0.30718 0.0112828 -2.94624 0
M  V30 33 H -3.19961 -0.70607 -1.63238 0
M  V30 34 H -2.88908 1.02905 -1.87826 0
M  V30 END ATOM
M  V30 BEGIN BOND
M  V30 1 1 1 2
M  V30 2 1 2 3
M  V30 3 1 3 4
M  V30 4 2 4 5
M  V30 5 1 4 6
M  V30 6 2 6 7
M  V30 7 1 7 8
M  V30 8 1 8 9
M  V30 9 2 9 10
M  V30 10 1 9 11
M  V30 11 1 11 12
M  V30 12 1 12 13
M  V30 13 2 8 14
M  V30 14 1 14 15
M  V30 15 1 14 16
M  V30 16 2 16 17
M  V30 17 1 17 18
M  V30 18 1 17 6
M  V30 19 1 1 19
M  V30 20 1 1 20
M  V30 21 1 1 21
M  V30 22 1 2 22
M  V30 23 1 2 23
M  V30 24 1 7 24
M  V30 25 1 12 25
M  V30 26 1 12 26
M  V30 27 1 13 27
M  V30 28 1 13 28
M  V30 29 1 13 29
M  V30 30 1 15 30
M  V30 31 1 15 31
M  V30 32 1 16 32
M  V30 33 1 18 33
M  V30 34 1 18 34
M  V30 END BOND
M  V30 END CTAB
M  END
