
     RDKit          3D

  0  0  0  0  0  0  0  0  0  0999 V3000
M  V30 BEGIN CTAB
M  V30 COUNTS 29 29 0 0 0
M  V30 BEGIN ATOM
M  V30 1 C -0.911514 0.0198688 -2.06423 0
M  V30 2 N -0.690304 0.490418 -0.730009 0
M  V30 3 C 0.622686 0.720841 -0.27574 0
M  V30 4 N 1.0063 1.96093 0.132055 0
M  V30 5 C 2.26068 2.15932 0.561164 0
M  V30 6 C 3.21489 1.15375 0.616497 0
M  V30 7 C 2.81006 -0.116469 0.195195 0
M  V30 8 C 1.52204 -0.320716 -0.245752 0
M  V30 9 N 1.12743 -1.61526 -0.672582 0
M  V30 10 N 3.69185 -1.23318 0.205583 0
M  V30 11 C -1.79256 0.727395 0.149916 0
M  V30 12 C -2.49512 -0.549786 0.563397 0
M  V30 13 C -3.62174 -0.186493 1.47899 0
M  V30 14 H -1.50055 -0.930052 -2.04686 0
M  V30 15 H -1.53174 0.819531 -2.57167 0
M  V30 16 H 0.0303103 -0.132128 -2.63284 0
M  V30 17 H 2.59045 3.13492 0.892583 0
M  V30 18 H 4.21443 1.27207 0.948197 0
M  V30 19 H 1.35229 -1.87721 -1.659 0
M  V30 20 H 0.634869 -2.30996 -0.071296 0
M  V30 21 H 4.32374 -1.32606 1.02075 0
M  V30 22 H 3.6914 -1.91497 -0.571496 0
M  V30 23 H -1.50948 1.24398 1.09518 0
M  V30 24 H -2.57396 1.37649 -0.314545 0
M  V30 25 H -1.77103 -1.17481 1.12211 0
M  V30 26 H -2.8831 -1.07616 -0.333591 0
M  V30 27 H -3.92742 0.875444 1.40967 0
M  V30 28 H -4.55227 -0.7809 1.27288 0
M  V30 29 H -3.3326 -0.410802 2.52546 0
M  V30 END ATOM
M  V30 BEGIN BOND
M  V30 1 1 1 2
M  V30 2 1 2 3
M  V30 3 2 3 4
M  V30 4 1 4 5
M  V30 5 2 5 6
M  V30 6 1 6 7
M  V30 7 2 7 8
M  V30 8 1 8 9
M  V30 9 1 7 10
M  V30 10 1 2 11
M  V30 11 1 11 12
M  V30 12 1 12 13
M  V30 13 1 8 3
M  V30 14 1 1 14
M  V30 15 1 1 15
M  V30 16 1 1 16
M  V30 17 1 5 17
M  V30 18 1 6 18
M  V30 19 1 9 19
M  V30 20 1 9 20
M  V30 21 1 10 21
M  V30 22 1 10 22
M  V30 23 1 11 23
M  V30 24 1 11 24
M  V30 25 1 12 25
M  V30 26 1 12 26
M  V30 27 1 13 27
M  V30 28 1 13 28
M  V30 29 1 13 29
M  V30 END BOND
M  V30 END CTAB
M  END
