
     RDKit          3D

  0  0  0  0  0  0  0  0  0  0999 V3000
M  V30 BEGIN CTAB
M  V30 COUNTS 32 33 0 0 0
M  V30 BEGIN ATOM
M  V30 1 N 2.29999 -2.38219 1.39681 0
M  V30 2 C 2.56872 -1.41929 0.371803 0
M  V30 3 N 3.69363 -1.24735 -0.340264 0
M  V30 4 N 3.55747 -0.185783 -1.09008 0
M  V30 5 C 2.33502 0.370411 -0.895598 0
M  V30 6 C 1.67985 -0.387412 0.026746 0
M  V30 7 C 0.23087 -0.332124 0.464303 0 CFG=1
M  V30 8 C 0.0456825 0.719265 1.49364 0
M  V30 9 C -0.531565 2.01231 1.17096 0
M  V30 10 O -1.90064 1.83253 0.934517 0
M  V30 11 C -2.06222 1.85545 -0.421796 0
M  V30 12 C -0.970656 1.09198 -1.16052 0
M  V30 13 N -0.635417 -0.169267 -0.66472 0
M  V30 14 S -1.6147 -1.44595 -1.122 0
M  V30 15 O -0.795006 -2.65459 -1.4496 0
M  V30 16 O -2.39398 -1.01298 -2.36456 0
M  V30 17 N -2.73472 -1.85289 0.134838 0
M  V30 18 H 2.96386 -3.13863 1.56588 0
M  V30 19 H 1.45428 -2.29806 1.9862 0
M  V30 20 H 4.25788 0.247221 -1.77517 0
M  V30 21 H 1.9579 1.26024 -1.41146 0
M  V30 22 H 0.00490415 -1.30504 0.89272 0
M  V30 23 H 1.026 0.858322 2.02911 0
M  V30 24 H -0.598795 0.306168 2.36675 0
M  V30 25 H -0.00694142 2.61403 0.433373 0
M  V30 26 H -0.511194 2.63445 2.12826 0
M  V30 27 H -3.08197 1.57294 -0.711537 0
M  V30 28 H -1.9812 2.94744 -0.7294 0
M  V30 29 H -0.203163 1.81524 -1.39351 0
M  V30 30 H -1.45893 0.895934 -2.17216 0
M  V30 31 H -2.99809 -0.965058 0.634319 0
M  V30 32 H -3.59688 -2.23733 -0.327851 0
M  V30 END ATOM
M  V30 BEGIN BOND
M  V30 1 1 1 2
M  V30 2 2 2 3
M  V30 3 1 3 4
M  V30 4 1 4 5
M  V30 5 2 5 6
M  V30 6 1 6 7
M  V30 7 1 7 8
M  V30 8 1 8 9
M  V30 9 1 9 10
M  V30 10 1 10 11
M  V30 11 1 11 12
M  V30 12 1 12 13
M  V30 13 1 13 14
M  V30 14 2 14 15
M  V30 15 2 14 16
M  V30 16 1 14 17
M  V30 17 1 6 2
M  V30 18 1 13 7
M  V30 19 1 1 18
M  V30 20 1 1 19
M  V30 21 1 4 20
M  V30 22 1 5 21
M  V30 23 1 7 22 CFG=1
M  V30 24 1 8 23
M  V30 25 1 8 24
M  V30 26 1 9 25
M  V30 27 1 9 26
M  V30 28 1 11 27
M  V30 29 1 11 28
M  V30 30 1 12 29
M  V30 31 1 12 30
M  V30 32 1 17 31
M  V30 33 1 17 32
M  V30 END BOND
M  V30 END CTAB
M  END
