
     RDKit          3D

  0  0  0  0  0  0  0  0  0  0999 V3000
M  V30 BEGIN CTAB
M  V30 COUNTS 41 43 0 0 0
M  V30 BEGIN ATOM
M  V30 1 O -0.289102 -0.0181545 1.37535 0
M  V30 2 C -1.00689 -0.769633 0.675227 0
M  V30 3 C -2.31938 -0.336279 0.279342 0
M  V30 4 C -2.80447 0.905037 0.667107 0
M  V30 5 N -1.98694 1.76201 1.47089 0
M  V30 6 N -4.0216 1.28925 0.290693 0
M  V30 7 C -4.49085 2.60525 0.723909 0
M  V30 8 C -4.78041 0.476589 -0.463956 0
M  V30 9 O -5.94861 0.849065 -0.823525 0
M  V30 10 N -4.36571 -0.730972 -0.867335 0
M  V30 11 C -3.1199 -1.12971 -0.484677 0
M  V30 12 O -2.79723 -2.28709 -0.906046 0
M  V30 13 C -5.20989 -1.55851 -1.66902 0
M  V30 14 C -0.477767 -2.08498 0.27855 0
M  V30 15 S 1.19729 -2.33573 0.943523 0
M  V30 16 C 2.32186 -1.18783 0.152107 0
M  V30 17 N 2.0404 -0.269186 -0.790055 0
M  V30 18 N 3.15663 0.383509 -1.11907 0
M  V30 19 C 4.18171 -0.0971438 -0.399096 0
M  V30 20 N 3.64655 -1.06966 0.383265 0
M  V30 21 N 4.34618 -1.83583 1.2929 0
M  V30 22 C 5.62345 0.320033 -0.425979 0
M  V30 23 C 5.81258 1.80744 -0.594224 0
M  V30 24 C 6.23048 0.821132 -1.67161 0
M  V30 25 H -1.31757 2.40588 1.04186 0
M  V30 26 H -2.10239 1.70235 2.50637 0
M  V30 27 H -5.43046 2.87287 0.190159 0
M  V30 28 H -4.71717 2.55239 1.81008 0
M  V30 29 H -3.6862 3.32845 0.536331 0
M  V30 30 H -5.34541 -1.15419 -2.68862 0
M  V30 31 H -6.20692 -1.64748 -1.20501 0
M  V30 32 H -4.74622 -2.57848 -1.74025 0
M  V30 33 H -1.09287 -2.88567 0.719577 0
M  V30 34 H -0.378194 -2.11024 -0.816595 0
M  V30 35 H 4.54512 -1.43466 2.23415 0
M  V30 36 H 4.68636 -2.79781 1.08481 0
M  V30 37 H 6.29109 -0.1856 0.292171 0
M  V30 38 H 6.62023 2.31572 -0.00890798 0
M  V30 39 H 4.9197 2.45252 -0.789727 0
M  V30 40 H 7.3293 0.711423 -1.77336 0
M  V30 41 H 5.69321 0.943928 -2.61358 0
M  V30 END ATOM
M  V30 BEGIN BOND
M  V30 1 2 1 2
M  V30 2 1 2 3
M  V30 3 2 3 4
M  V30 4 1 4 5
M  V30 5 1 4 6
M  V30 6 1 6 7
M  V30 7 1 6 8
M  V30 8 2 8 9
M  V30 9 1 8 10
M  V30 10 1 10 11
M  V30 11 2 11 12
M  V30 12 1 10 13
M  V30 13 1 2 14
M  V30 14 1 14 15
M  V30 15 1 15 16
M  V30 16 2 16 17
M  V30 17 1 17 18
M  V30 18 2 18 19
M  V30 19 1 19 20
M  V30 20 1 20 21
M  V30 21 1 19 22
M  V30 22 1 22 23
M  V30 23 1 23 24
M  V30 24 1 11 3
M  V30 25 1 20 16
M  V30 26 1 24 22
M  V30 27 1 5 25
M  V30 28 1 5 26
M  V30 29 1 7 27
M  V30 30 1 7 28
M  V30 31 1 7 29
M  V30 32 1 13 30
M  V30 33 1 13 31
M  V30 34 1 13 32
M  V30 35 1 14 33
M  V30 36 1 14 34
M  V30 37 1 21 35
M  V30 38 1 21 36
M  V30 39 1 22 37
M  V30 40 1 23 38
M  V30 41 1 23 39
M  V30 42 1 24 40
M  V30 43 1 24 41
M  V30 END BOND
M  V30 END CTAB
M  END
