
     RDKit          3D

  0  0  0  0  0  0  0  0  0  0999 V3000
M  V30 BEGIN CTAB
M  V30 COUNTS 31 32 0 0 0
M  V30 BEGIN ATOM
M  V30 1 C -3.58847 1.61719 -0.854138 0
M  V30 2 C -2.2 1.2 -0.692115 0
M  V30 3 C -1.82844 0.066206 0.0119532 0
M  V30 4 C -2.77123 -0.727917 0.597809 0
M  V30 5 N -4.1461 -0.408486 0.496858 0
M  V30 6 C -2.40309 -1.86962 1.30723 0
M  V30 7 C -1.08611 -2.20452 1.42212 0
M  V30 8 C -0.0986715 -1.43499 0.848689 0
M  V30 9 C -0.465569 -0.307401 0.148296 0
M  V30 10 C 0.521521 0.46365 -0.426141 0
M  V30 11 C 1.94977 0.201994 -0.36704 0
M  V30 12 N 2.62134 -0.704385 0.167167 0
M  V30 13 N 4.00835 -0.824496 0.137949 0
M  V30 14 C 4.89825 0.179907 0.552627 0
M  V30 15 N 6.28828 -0.0293014 0.487778 0
M  V30 16 S 4.31822 1.58666 1.10842 0
M  V30 17 N 0.12603 1.58019 -1.11724 0
M  V30 18 C -1.14048 1.92978 -1.24548 0
M  V30 19 H -4.21591 1.05067 -1.5518 0
M  V30 20 H -3.51576 2.5896 -1.4848 0
M  V30 21 H -4.08579 2.06705 0.0267296 0
M  V30 22 H -4.59712 0.181425 1.20887 0
M  V30 23 H -4.70403 -0.786126 -0.284099 0
M  V30 24 H -3.18944 -2.4532 1.74497 0
M  V30 25 H -0.819095 -3.11129 1.98751 0
M  V30 26 H 0.907053 -1.73521 0.965127 0
M  V30 27 H 2.59465 0.951069 -0.901015 0
M  V30 28 H 4.38948 -1.72618 -0.218231 0
M  V30 29 H 6.77075 -0.67264 -0.173858 0
M  V30 30 H 6.90682 0.499141 1.15497 0
M  V30 31 H -1.44523 2.83123 -1.80462 0
M  V30 END ATOM
M  V30 BEGIN BOND
M  V30 1 1 1 2
M  V30 2 2 2 3
M  V30 3 1 3 4
M  V30 4 1 4 5
M  V30 5 2 4 6
M  V30 6 1 6 7
M  V30 7 2 7 8
M  V30 8 1 8 9
M  V30 9 2 9 10
M  V30 10 1 10 11
M  V30 11 2 11 12
M  V30 12 1 12 13
M  V30 13 1 13 14
M  V30 14 1 14 15
M  V30 15 2 14 16
M  V30 16 1 10 17
M  V30 17 2 17 18
M  V30 18 1 18 2
M  V30 19 1 9 3
M  V30 20 1 1 19
M  V30 21 1 1 20
M  V30 22 1 1 21
M  V30 23 1 5 22
M  V30 24 1 5 23
M  V30 25 1 6 24
M  V30 26 1 7 25
M  V30 27 1 8 26
M  V30 28 1 11 27
M  V30 29 1 13 28
M  V30 30 1 15 29
M  V30 31 1 15 30
M  V30 32 1 18 31
M  V30 END BOND
M  V30 END CTAB
M  END
