
     RDKit          3D

  0  0  0  0  0  0  0  0  0  0999 V3000
M  V30 BEGIN CTAB
M  V30 COUNTS 26 27 0 0 0
M  V30 BEGIN ATOM
M  V30 1 C 4.01173 0.440879 0.880614 0
M  V30 2 C 2.86266 0.128732 -0.00707033 0
M  V30 3 C 3.10122 -0.318751 -1.30195 0
M  V30 4 C 2.07154 -0.622471 -2.16673 0
M  V30 5 C 0.78142 -0.466492 -1.7011 0
M  V30 6 C 0.515751 -0.0248312 -0.422701 0
M  V30 7 C 1.54303 0.268914 0.413308 0
M  V30 8 C -0.900518 0.110313 -0.0157285 0
M  V30 9 N -1.21044 0.537646 1.22183 0
M  V30 10 C -2.50411 0.665992 1.60775 0
M  V30 11 N -2.88453 1.11095 2.89706 0
M  V30 12 N -3.47812 0.353377 0.716653 0
M  V30 13 C -3.20077 -0.0768174 -0.528778 0
M  V30 14 N -4.22989 -0.403526 -1.45993 0
M  V30 15 N -1.89777 -0.183494 -0.852243 0
M  V30 16 H 4.4105 1.47638 0.680942 0
M  V30 17 H 3.72922 0.330503 1.94728 0
M  V30 18 H 4.8603 -0.256116 0.705945 0
M  V30 19 H 4.11981 -0.440136 -1.66449 0
M  V30 20 H 2.20319 -0.968946 -3.1687 0
M  V30 21 H -0.0505713 -0.69847 -2.36108 0
M  V30 22 H 1.35346 0.61507 1.41504 0
M  V30 23 H -3.33791 2.02767 3.05687 0
M  V30 24 H -2.7012 0.494245 3.70892 0
M  V30 25 H -4.05309 -0.176156 -2.47084 0
M  V30 26 H -5.11491 -0.849732 -1.13086 0
M  V30 END ATOM
M  V30 BEGIN BOND
M  V30 1 1 1 2
M  V30 2 2 2 3
M  V30 3 1 3 4
M  V30 4 2 4 5
M  V30 5 1 5 6
M  V30 6 2 6 7
M  V30 7 1 6 8
M  V30 8 2 8 9
M  V30 9 1 9 10
M  V30 10 1 10 11
M  V30 11 2 10 12
M  V30 12 1 12 13
M  V30 13 1 13 14
M  V30 14 2 13 15
M  V30 15 1 7 2
M  V30 16 1 15 8
M  V30 17 1 1 16
M  V30 18 1 1 17
M  V30 19 1 1 18
M  V30 20 1 3 19
M  V30 21 1 4 20
M  V30 22 1 5 21
M  V30 23 1 7 22
M  V30 24 1 11 23
M  V30 25 1 11 24
M  V30 26 1 14 25
M  V30 27 1 14 26
M  V30 END BOND
M  V30 END CTAB
M  END
