
     RDKit          3D

  0  0  0  0  0  0  0  0  0  0999 V3000
M  V30 BEGIN CTAB
M  V30 COUNTS 22 22 0 0 0
M  V30 BEGIN ATOM
M  V30 1 C 2.78485 -1.15851 0.33155 0
M  V30 2 C 2.17281 -0.33711 -0.839214 0
M  V30 3 C 0.747243 -0.134478 -0.619909 0
M  V30 4 N -0.131798 -1.16389 -0.474491 0
M  V30 5 C -1.33565 -0.732669 -0.145119 0
M  V30 6 N -1.23787 0.601092 -0.0826174 0
M  V30 7 C -0.012689 1.00664 -0.355921 0
M  V30 8 N 0.486594 2.34559 -0.446588 0
M  V30 9 N -2.28932 1.54925 0.203638 0
M  V30 10 C -2.5165 -1.56852 0.155805 0
M  V30 11 H 3.88546 -1.28087 0.217518 0
M  V30 12 H 2.41699 -0.822182 1.29794 0
M  V30 13 H 2.28277 -2.18754 0.151213 0
M  V30 14 H 2.49084 -0.795674 -1.77607 0
M  V30 15 H 2.68128 0.70397 -0.713391 0
M  V30 16 H 1.52632 2.52665 -0.429637 0
M  V30 17 H -0.13832 3.17069 -0.547369 0
M  V30 18 H -2.3256 2.48257 -0.210215 0
M  V30 19 H -3.02086 1.24261 0.85167 0
M  V30 20 H -3.26405 -1.48477 -0.641717 0
M  V30 21 H -2.95169 -1.32932 1.16699 0
M  V30 22 H -2.25081 -2.63353 0.21644 0
M  V30 END ATOM
M  V30 BEGIN BOND
M  V30 1 1 1 2
M  V30 2 1 2 3
M  V30 3 1 3 4
M  V30 4 2 4 5
M  V30 5 1 5 6
M  V30 6 1 6 7
M  V30 7 1 7 8
M  V30 8 1 6 9
M  V30 9 1 5 10
M  V30 10 2 7 3
M  V30 11 1 1 11
M  V30 12 1 1 12
M  V30 13 1 1 13
M  V30 14 1 2 14
M  V30 15 1 2 15
M  V30 16 1 8 16
M  V30 17 1 8 17
M  V30 18 1 9 18
M  V30 19 1 9 19
M  V30 20 1 10 20
M  V30 21 1 10 21
M  V30 22 1 10 22
M  V30 END BOND
M  V30 END CTAB
M  END
