
     RDKit          3D

  0  0  0  0  0  0  0  0  0  0999 V3000
M  V30 BEGIN CTAB
M  V30 COUNTS 27 27 0 0 0
M  V30 BEGIN ATOM
M  V30 1 C 2.45137 0.950993 -0.502808 0
M  V30 2 C 1.42145 -0.0779337 -0.0773889 0
M  V30 3 C 2.17685 -1.24933 0.521319 0
M  V30 4 O 0.674462 -0.55174 -1.12622 0
M  V30 5 C -0.636927 -0.610167 -0.741298 0 CFG=1
M  V30 6 C -1.0285 -1.91219 -0.0866523 0
M  V30 7 N -2.4494 -1.79293 0.253715 0
M  V30 8 C -0.708271 0.45665 0.348408 0 CFG=2
M  V30 9 C -1.19146 1.72012 -0.312527 0
M  V30 10 N -1.17224 2.85364 0.598232 0
M  V30 11 O 0.573991 0.524638 0.823317 0
M  V30 12 H 2.20173 1.96245 -0.117504 0
M  V30 13 H 2.5842 0.96122 -1.58722 0
M  V30 14 H 3.46392 0.71889 -0.0635258 0
M  V30 15 H 1.76564 -2.2326 0.154314 0
M  V30 16 H 3.23985 -1.23629 0.174533 0
M  V30 17 H 2.1947 -1.21854 1.61997 0
M  V30 18 H -1.32966 -0.366822 -1.57258 0
M  V30 19 H -0.497558 -1.95633 0.905291 0
M  V30 20 H -0.810587 -2.79756 -0.683331 0
M  V30 21 H -3.00075 -2.29058 -0.473912 0
M  V30 22 H -2.65845 -2.08489 1.21254 0
M  V30 23 H -1.37942 0.155696 1.15334 0
M  V30 24 H -2.25442 1.56014 -0.590121 0
M  V30 25 H -0.639149 1.94677 -1.23606 0
M  V30 26 H -1.90271 2.80928 1.3118 0
M  V30 27 H -1.08865 3.75742 0.0943703 0
M  V30 END ATOM
M  V30 BEGIN BOND
M  V30 1 1 1 2
M  V30 2 1 2 3
M  V30 3 1 2 4
M  V30 4 1 4 5
M  V30 5 1 5 6
M  V30 6 1 6 7
M  V30 7 1 5 8
M  V30 8 1 8 9
M  V30 9 1 9 10
M  V30 10 1 8 11
M  V30 11 1 11 2
M  V30 12 1 1 12
M  V30 13 1 1 13
M  V30 14 1 1 14
M  V30 15 1 3 15
M  V30 16 1 3 16
M  V30 17 1 3 17
M  V30 18 1 5 18 CFG=3
M  V30 19 1 6 19
M  V30 20 1 6 20
M  V30 21 1 7 21
M  V30 22 1 7 22
M  V30 23 1 8 23 CFG=1
M  V30 24 1 9 24
M  V30 25 1 9 25
M  V30 26 1 10 26
M  V30 27 1 10 27
M  V30 END BOND
M  V30 END CTAB
M  END
