
     RDKit          3D

  0  0  0  0  0  0  0  0  0  0999 V3000
M  V30 BEGIN CTAB
M  V30 COUNTS 52 55 0 0 0
M  V30 BEGIN ATOM
M  V30 1 N 7.08308 -2.09629 -0.116648 0
M  V30 2 C 6.53138 -0.848866 -0.573356 0
M  V30 3 C 5.81164 -0.0625971 0.522227 0
M  V30 4 C 4.49919 -0.675885 0.0745058 0
M  V30 5 C 5.17336 -1.03533 -1.22763 0
M  V30 6 C 3.39242 0.28637 -0.0798027 0
M  V30 7 C 2.16896 0.0656195 0.542501 0
M  V30 8 C 1.12018 0.940626 0.419128 0
M  V30 9 N 1.36612 2.03998 -0.357375 0
M  V30 10 C 2.53912 2.26843 -0.964482 0
M  V30 11 N 3.54879 1.38457 -0.819907 0
M  V30 12 N 2.79777 3.40074 -1.76639 0
M  V30 13 N -0.133567 0.755611 1.0371 0
M  V30 14 C -1.26612 1.63564 0.781757 0
M  V30 15 C -2.38404 0.775715 0.241917 0
M  V30 16 C -2.59166 -0.490232 0.997676 0
M  V30 17 C -1.31041 -1.27165 1.20098 0
M  V30 18 C -0.378969 -0.317218 1.96771 0
M  V30 19 C -3.55484 -1.38413 0.284774 0
M  V30 20 C -4.88883 -0.822352 0.0779648 0
M  V30 21 C -5.12986 -0.111269 -1.07904 0
M  V30 22 C -6.36243 0.434852 -1.31984 0
M  V30 23 C -7.37694 0.27564 -0.399985 0
M  V30 24 C -7.17149 -0.429311 0.767756 0
M  V30 25 C -5.92956 -0.96714 0.987542 0
M  V30 26 H 6.60197 -2.42165 0.752075 0
M  V30 27 H 8.10739 -2.02684 0.0781785 0
M  V30 28 H 7.25642 -0.253573 -1.15896 0
M  V30 29 H 5.81281 1.01961 0.323859 0
M  V30 30 H 6.13696 -0.343778 1.54603 0
M  V30 31 H 4.24442 -1.5463 0.712324 0
M  V30 32 H 5.01216 -0.233145 -1.99589 0
M  V30 33 H 4.96256 -2.06435 -1.58249 0
M  V30 34 H 2.07101 -0.837373 1.13445 0
M  V30 35 H 2.43266 4.32419 -1.45338 0
M  V30 36 H 3.33185 3.37047 -2.65314 0
M  V30 37 H -1.59357 2.0188 1.7691 0
M  V30 38 H -1.03764 2.47925 0.135429 0
M  V30 39 H -3.29124 1.39368 0.149098 0
M  V30 40 H -2.08807 0.500796 -0.802688 0
M  V30 41 H -2.9472 -0.224862 2.03323 0
M  V30 42 H -0.881963 -1.50912 0.200795 0
M  V30 43 H -1.51623 -2.18216 1.76661 0
M  V30 44 H -1.0156 0.0484795 2.80823 0
M  V30 45 H 0.492262 -0.871491 2.29562 0
M  V30 46 H -3.69068 -2.34352 0.865171 0
M  V30 47 H -3.09825 -1.67349 -0.68168 0
M  V30 48 H -4.35307 0.0350388 -1.8282 0
M  V30 49 H -6.51259 0.993366 -2.2528 0
M  V30 50 H -8.34506 0.706119 -0.59196 0
M  V30 51 H -7.9248 -0.585807 1.52107 0
M  V30 52 H -5.7198 -1.52385 1.88034 0
M  V30 END ATOM
M  V30 BEGIN BOND
M  V30 1 1 1 2
M  V30 2 1 2 3
M  V30 3 1 3 4
M  V30 4 1 4 5
M  V30 5 1 4 6
M  V30 6 2 6 7
M  V30 7 1 7 8
M  V30 8 2 8 9
M  V30 9 1 9 10
M  V30 10 2 10 11
M  V30 11 1 10 12
M  V30 12 1 8 13
M  V30 13 1 13 14
M  V30 14 1 14 15
M  V30 15 1 15 16
M  V30 16 1 16 17
M  V30 17 1 17 18
M  V30 18 1 16 19
M  V30 19 1 19 20
M  V30 20 2 20 21
M  V30 21 1 21 22
M  V30 22 2 22 23
M  V30 23 1 23 24
M  V30 24 2 24 25
M  V30 25 1 5 2
M  V30 26 1 11 6
M  V30 27 1 18 13
M  V30 28 1 25 20
M  V30 29 1 1 26
M  V30 30 1 1 27
M  V30 31 1 2 28
M  V30 32 1 3 29
M  V30 33 1 3 30
M  V30 34 1 4 31
M  V30 35 1 5 32
M  V30 36 1 5 33
M  V30 37 1 7 34
M  V30 38 1 12 35
M  V30 39 1 12 36
M  V30 40 1 14 37
M  V30 41 1 14 38
M  V30 42 1 15 39
M  V30 43 1 15 40
M  V30 44 1 16 41
M  V30 45 1 17 42
M  V30 46 1 17 43
M  V30 47 1 18 44
M  V30 48 1 18 45
M  V30 49 1 19 46
M  V30 50 1 19 47
M  V30 51 1 21 48
M  V30 52 1 22 49
M  V30 53 1 23 50
M  V30 54 1 24 51
M  V30 55 1 25 52
M  V30 END BOND
M  V30 END CTAB
M  END
