
     RDKit          3D

  0  0  0  0  0  0  0  0  0  0999 V3000
M  V30 BEGIN CTAB
M  V30 COUNTS 29 30 0 0 0
M  V30 BEGIN ATOM
M  V30 1 N 4.49218 -1.53437 -0.252234 0
M  V30 2 C 3.27712 -0.751942 -0.194723 0
M  V30 3 N 3.01712 -0.11534 -1.28176 0
M  V30 4 S 1.60584 0.86568 -1.38351 0
M  V30 5 O 0.767606 0.346288 -2.53045 0
M  V30 6 O 1.94718 2.28691 -1.73617 0
M  V30 7 N 0.798414 0.752363 0.123279 0
M  V30 8 C -0.421308 1.45999 0.344664 0
M  V30 9 C -1.6328 0.701932 0.0120484 0
M  V30 10 C -2.86059 1.30641 0.0877063 0
M  V30 11 C -4.0253 0.618812 -0.21771 0
M  V30 12 C -3.91023 -0.700426 -0.602463 0
M  V30 13 C -2.68395 -1.30716 -0.6789 0
M  V30 14 C -1.54922 -0.603718 -0.371276 0
M  V30 15 C 1.34874 -0.0489498 1.14736 0
M  V30 16 N 0.657566 -0.123804 2.39421 0
M  V30 17 C 2.47169 -0.73382 1.01092 0
M  V30 18 H 4.76365 -2.03289 -1.12248 0
M  V30 19 H 5.09916 -1.58812 0.611947 0
M  V30 20 H -0.355067 2.42827 -0.211389 0
M  V30 21 H -0.464652 1.76607 1.42443 0
M  V30 22 H -2.95254 2.35067 0.392181 0
M  V30 23 H -5.00837 1.07753 -0.164713 0
M  V30 24 H -4.83814 -1.25056 -0.846508 0
M  V30 25 H -2.64061 -2.3653 -0.991697 0
M  V30 26 H -0.586089 -1.13499 -0.446347 0
M  V30 27 H 0.790746 0.612902 3.11289 0
M  V30 28 H 0.0281825 -0.934794 2.5434 0
M  V30 29 H 2.86366 -1.34765 1.84081 0
M  V30 END ATOM
M  V30 BEGIN BOND
M  V30 1 1 1 2
M  V30 2 2 2 3
M  V30 3 1 3 4
M  V30 4 2 4 5
M  V30 5 2 4 6
M  V30 6 1 4 7
M  V30 7 1 7 8
M  V30 8 1 8 9
M  V30 9 2 9 10
M  V30 10 1 10 11
M  V30 11 2 11 12
M  V30 12 1 12 13
M  V30 13 2 13 14
M  V30 14 1 7 15
M  V30 15 1 15 16
M  V30 16 2 15 17
M  V30 17 1 17 2
M  V30 18 1 14 9
M  V30 19 1 1 18
M  V30 20 1 1 19
M  V30 21 1 8 20
M  V30 22 1 8 21
M  V30 23 1 10 22
M  V30 24 1 11 23
M  V30 25 1 12 24
M  V30 26 1 13 25
M  V30 27 1 14 26
M  V30 28 1 16 27
M  V30 29 1 16 28
M  V30 30 1 17 29
M  V30 END BOND
M  V30 END CTAB
M  END
