
     RDKit          3D

  0  0  0  0  0  0  0  0  0  0999 V3000
M  V30 BEGIN CTAB
M  V30 COUNTS 25 25 0 0 0
M  V30 BEGIN ATOM
M  V30 1 C 3.30866 0.75754 0.649555 0
M  V30 2 O 2.0387 0.669602 0.0585939 0
M  V30 3 C 1.80368 0.317489 -1.24551 0
M  V30 4 O 2.75701 0.0579578 -2.00181 0
M  V30 5 C 0.414997 0.223668 -1.81558 0
M  V30 6 C -0.536573 -0.0497211 -0.693325 0
M  V30 7 C -0.494459 -1.32692 -0.162775 0
M  V30 8 N 0.40444 -2.29827 -0.67778 0
M  V30 9 C -1.34607 -1.60897 0.882817 0
M  V30 10 C -2.21446 -0.632005 1.3803 0
M  V30 11 C -2.25175 0.628671 0.852122 0
M  V30 12 C -1.3914 0.907544 -0.200503 0
M  V30 13 Cl -1.37683 2.49088 -0.931616 0
M  V30 14 N -3.11359 1.64341 1.34121 0
M  V30 15 H 4.15227 0.684292 -0.0625242 0
M  V30 16 H 3.40971 1.74389 1.19102 0
M  V30 17 H 3.46318 -0.0172333 1.43446 0
M  V30 18 H 0.428483 -0.643958 -2.508 0
M  V30 19 H 0.188531 1.18109 -2.28631 0
M  V30 20 H 1.29851 -2.52726 -0.21951 0
M  V30 21 H 0.140596 -2.78672 -1.55116 0
M  V30 22 H -1.34597 -2.59372 1.33496 0
M  V30 23 H -2.85612 -0.914771 2.19571 0
M  V30 24 H -3.78402 1.48405 2.11354 0
M  V30 25 H -3.09753 2.60945 0.922115 0
M  V30 END ATOM
M  V30 BEGIN BOND
M  V30 1 1 1 2
M  V30 2 1 2 3
M  V30 3 2 3 4
M  V30 4 1 3 5
M  V30 5 1 5 6
M  V30 6 2 6 7
M  V30 7 1 7 8
M  V30 8 1 7 9
M  V30 9 2 9 10
M  V30 10 1 10 11
M  V30 11 2 11 12
M  V30 12 1 12 13
M  V30 13 1 11 14
M  V30 14 1 12 6
M  V30 15 1 1 15
M  V30 16 1 1 16
M  V30 17 1 1 17
M  V30 18 1 5 18
M  V30 19 1 5 19
M  V30 20 1 8 20
M  V30 21 1 8 21
M  V30 22 1 9 22
M  V30 23 1 10 23
M  V30 24 1 14 24
M  V30 25 1 14 25
M  V30 END BOND
M  V30 END CTAB
M  END
