
     RDKit          3D

  0  0  0  0  0  0  0  0  0  0999 V3000
M  V30 BEGIN CTAB
M  V30 COUNTS 33 34 0 0 0
M  V30 BEGIN ATOM
M  V30 1 N -3.36969 2.25168 0.557 0
M  V30 2 C -3.50748 1.39857 -0.601165 0
M  V30 3 C -2.15709 0.922863 -1.07517 0
M  V30 4 N -1.43593 0.156357 -0.0843644 0
M  V30 5 C -2.03258 -1.10237 0.136228 0
M  V30 6 C -1.12909 -2.24644 0.466954 0
M  V30 7 N 0.202629 -1.84228 0.88943 0
M  V30 8 C 0.730447 -1.021 -0.165837 0 CFG=1
M  V30 9 C -0.0566078 0.215243 -0.391125 0
M  V30 10 C 2.17123 -0.774281 0.00295066 0
M  V30 11 N 3.1315 -1.68 0.197017 0
M  V30 12 N 4.30502 -1.08923 0.322287 0
M  V30 13 C 4.13524 0.235528 0.210748 0
M  V30 14 C 2.79808 0.451404 0.00831392 0
M  V30 15 N 5.10667 1.27331 0.28867 0
M  V30 16 H -4.04388 3.02667 0.573598 0
M  V30 17 H -2.42257 2.60253 0.664372 0
M  V30 18 H -4.20188 0.578709 -0.410156 0
M  V30 19 H -3.94268 2.03322 -1.40166 0
M  V30 20 H -1.58003 1.83799 -1.3755 0
M  V30 21 H -2.28954 0.278078 -1.95516 0
M  V30 22 H -2.63426 -1.38129 -0.763084 0
M  V30 23 H -2.78416 -1.0218 0.964454 0
M  V30 24 H -1.52442 -2.94187 1.23637 0
M  V30 25 H -0.960505 -2.8582 -0.465061 0
M  V30 26 H 0.148521 -1.25597 1.77382 0
M  V30 27 H 0.638836 -1.647 -1.10475 0
M  V30 28 H 0.107862 0.535913 -1.46272 0
M  V30 29 H 0.355166 1.09606 0.188979 0
M  V30 30 H 3.00418 -2.72161 0.245243 0
M  V30 31 H 2.3392 1.40638 -0.12211 0
M  V30 32 H 5.41883 1.72022 -0.598784 0
M  V30 33 H 5.47899 1.56261 1.22108 0
M  V30 END ATOM
M  V30 BEGIN BOND
M  V30 1 1 1 2
M  V30 2 1 2 3
M  V30 3 1 3 4
M  V30 4 1 4 5
M  V30 5 1 5 6
M  V30 6 1 6 7
M  V30 7 1 7 8
M  V30 8 1 8 9
M  V30 9 1 8 10
M  V30 10 1 10 11
M  V30 11 1 11 12
M  V30 12 2 12 13
M  V30 13 1 13 14
M  V30 14 1 13 15
M  V30 15 1 9 4
M  V30 16 2 14 10
M  V30 17 1 1 16
M  V30 18 1 1 17
M  V30 19 1 2 18
M  V30 20 1 2 19
M  V30 21 1 3 20
M  V30 22 1 3 21
M  V30 23 1 5 22
M  V30 24 1 5 23
M  V30 25 1 6 24
M  V30 26 1 6 25
M  V30 27 1 7 26
M  V30 28 1 8 27 CFG=3
M  V30 29 1 9 28
M  V30 30 1 9 29
M  V30 31 1 11 30
M  V30 32 1 14 31
M  V30 33 1 15 32
M  V30 34 1 15 33
M  V30 END BOND
M  V30 END CTAB
M  END
