
     RDKit          3D

  0  0  0  0  0  0  0  0  0  0999 V3000
M  V30 BEGIN CTAB
M  V30 COUNTS 28 29 0 0 0
M  V30 BEGIN ATOM
M  V30 1 N -1.97393 0.870274 2.12195 0
M  V30 2 C -2.77929 0.2145 1.16008 0
M  V30 3 N -3.99773 -0.15757 1.20761 0
M  V30 4 N -4.40138 -0.774407 0.0271603 0
M  V30 5 C -3.43302 -0.817363 -0.831369 0
M  V30 6 N -3.45049 -1.36628 -2.14806 0
M  V30 7 C -2.30159 -0.180993 -0.170565 0
M  V30 8 N -1.13918 -0.0102616 -0.662384 0
M  V30 9 N -0.112435 0.609295 0.0392284 0
M  V30 10 C 0.952335 -0.193795 0.574143 0
M  V30 11 C 1.70163 -0.954632 -0.49115 0
M  V30 12 N 3.1414 -0.937479 -0.250049 0
M  V30 13 C 3.60603 0.445991 -0.302415 0
M  V30 14 C 2.5689 1.37978 0.281207 0
M  V30 15 O 1.85462 0.64724 1.22951 0
M  V30 16 H -1.55951 0.315238 2.89257 0
M  V30 17 H -1.78042 1.88792 2.08738 0
M  V30 18 H -2.92926 -0.959651 -2.95156 0
M  V30 19 H -4.01261 -2.22451 -2.33505 0
M  V30 20 H -0.171706 1.64829 0.14199 0
M  V30 21 H 0.556828 -0.908656 1.33424 0
M  V30 22 H 1.55841 -0.389436 -1.44933 0
M  V30 23 H 1.39667 -2.00501 -0.581034 0
M  V30 24 H 3.37948 -1.34818 0.680755 0
M  V30 25 H 3.80322 0.682548 -1.37359 0
M  V30 26 H 4.58986 0.544418 0.224951 0
M  V30 27 H 1.93889 1.73647 -0.537958 0
M  V30 28 H 2.99427 2.24626 0.792895 0
M  V30 END ATOM
M  V30 BEGIN BOND
M  V30 1 1 1 2
M  V30 2 2 2 3
M  V30 3 1 3 4
M  V30 4 2 4 5
M  V30 5 1 5 6
M  V30 6 1 5 7
M  V30 7 2 7 8
M  V30 8 1 8 9
M  V30 9 1 9 10
M  V30 10 1 10 11
M  V30 11 1 11 12
M  V30 12 1 12 13
M  V30 13 1 13 14
M  V30 14 1 14 15
M  V30 15 1 7 2
M  V30 16 1 15 10
M  V30 17 1 1 16
M  V30 18 1 1 17
M  V30 19 1 6 18
M  V30 20 1 6 19
M  V30 21 1 9 20
M  V30 22 1 10 21
M  V30 23 1 11 22
M  V30 24 1 11 23
M  V30 25 1 12 24
M  V30 26 1 13 25
M  V30 27 1 13 26
M  V30 28 1 14 27
M  V30 29 1 14 28
M  V30 END BOND
M  V30 END CTAB
M  END
