
     RDKit          3D

  0  0  0  0  0  0  0  0  0  0999 V3000
M  V30 BEGIN CTAB
M  V30 COUNTS 60 63 0 0 0
M  V30 BEGIN ATOM
M  V30 1 N 8.26454 -1.31168 -1.06056 0
M  V30 2 C 7.38187 -0.392581 -0.451471 0
M  V30 3 N 7.72 0.880202 -0.176089 0
M  V30 4 C 6.8661 1.74515 0.404732 0
M  V30 5 N 7.32197 3.06824 0.652907 0
M  V30 6 N 5.63045 1.33628 0.725847 0
M  V30 7 C 5.18644 0.072023 0.491708 0
M  V30 8 C 6.08866 -0.779947 -0.10268 0
M  V30 9 N 3.88116 -0.289072 0.850128 0
M  V30 10 C 3.26837 -1.58283 0.662601 0
M  V30 11 C 2.10544 -1.41617 -0.325259 0
M  V30 12 C 1.17179 -0.376925 0.246632 0
M  V30 13 C 1.9095 0.943769 0.431686 0
M  V30 14 C 3.00612 0.715591 1.48048 0
M  V30 15 N -0.0153541 -0.154956 -0.452509 0
M  V30 16 C 0.0965585 0.321099 -1.77303 0
M  V30 17 C -1.09322 1.16416 -2.20381 0
M  V30 18 C -2.00538 1.34894 -1.00859 0
M  V30 19 C -2.44238 -0.0558957 -0.596022 0
M  V30 20 C -1.21791 -0.745779 -0.0300016 0
M  V30 21 C -3.5577 0.0182001 0.345108 0
M  V30 22 O -3.98303 1.12853 0.72472 0
M  V30 23 N -4.16569 -1.1531 0.834367 0
M  V30 24 C -5.27523 -1.09949 1.76862 0
M  V30 25 C -6.55306 -0.727888 1.12337 0
M  V30 26 C -7.09462 0.522891 1.29517 0
M  V30 27 C -8.2783 0.901998 0.701095 0
M  V30 28 C -8.92366 -0.0248294 -0.0893303 0
M  V30 29 C -8.3697 -1.28671 -0.257811 0
M  V30 30 N -7.21057 -1.60292 0.346558 0
M  V30 31 H 8.06127 -1.66341 -2.0091 0
M  V30 32 H 9.10661 -1.62487 -0.552977 0
M  V30 33 H 8.25001 3.28682 1.081 0
M  V30 34 H 6.73291 3.89902 0.411021 0
M  V30 35 H 5.80469 -1.79026 -0.315849 0
M  V30 36 H 2.85823 -1.96421 1.62668 0
M  V30 37 H 3.92529 -2.3416 0.217708 0
M  V30 38 H 1.60592 -2.38979 -0.363841 0
M  V30 39 H 2.55637 -1.13024 -1.27644 0
M  V30 40 H 0.934251 -0.758467 1.28949 0
M  V30 41 H 1.24632 1.75414 0.717688 0
M  V30 42 H 2.46883 1.12995 -0.515132 0
M  V30 43 H 2.58181 0.219711 2.37066 0
M  V30 44 H 3.52939 1.64992 1.68164 0
M  V30 45 H 0.206008 -0.58161 -2.44215 0
M  V30 46 H 0.975697 0.988866 -1.86352 0
M  V30 47 H -1.64796 0.571909 -2.95945 0
M  V30 48 H -0.798228 2.14819 -2.61524 0
M  V30 49 H -2.86953 1.97112 -1.29117 0
M  V30 50 H -1.41354 1.76146 -0.184556 0
M  V30 51 H -2.80628 -0.561794 -1.51849 0
M  V30 52 H -1.31893 -1.83875 -0.230774 0
M  V30 53 H -1.31416 -0.658496 1.09163 0
M  V30 54 H -3.81367 -2.08357 0.519986 0
M  V30 55 H -5.39924 -2.09755 2.2431 0
M  V30 56 H -5.03982 -0.405039 2.61966 0
M  V30 57 H -6.60562 1.24721 1.90816 0
M  V30 58 H -8.73892 1.87116 0.808447 0
M  V30 59 H -9.87393 0.200784 -0.599032 0
M  V30 60 H -8.91695 -1.97689 -0.889086 0
M  V30 END ATOM
M  V30 BEGIN BOND
M  V30 1 1 1 2
M  V30 2 2 2 3
M  V30 3 1 3 4
M  V30 4 1 4 5
M  V30 5 2 4 6
M  V30 6 1 6 7
M  V30 7 2 7 8
M  V30 8 1 7 9
M  V30 9 1 9 10
M  V30 10 1 10 11
M  V30 11 1 11 12
M  V30 12 1 12 13
M  V30 13 1 13 14
M  V30 14 1 12 15
M  V30 15 1 15 16
M  V30 16 1 16 17
M  V30 17 1 17 18
M  V30 18 1 18 19
M  V30 19 1 19 20
M  V30 20 1 19 21
M  V30 21 2 21 22
M  V30 22 1 21 23
M  V30 23 1 23 24
M  V30 24 1 24 25
M  V30 25 2 25 26
M  V30 26 1 26 27
M  V30 27 2 27 28
M  V30 28 1 28 29
M  V30 29 2 29 30
M  V30 30 1 8 2
M  V30 31 1 14 9
M  V30 32 1 20 15
M  V30 33 1 30 25
M  V30 34 1 1 31
M  V30 35 1 1 32
M  V30 36 1 5 33
M  V30 37 1 5 34
M  V30 38 1 8 35
M  V30 39 1 10 36
M  V30 40 1 10 37
M  V30 41 1 11 38
M  V30 42 1 11 39
M  V30 43 1 12 40
M  V30 44 1 13 41
M  V30 45 1 13 42
M  V30 46 1 14 43
M  V30 47 1 14 44
M  V30 48 1 16 45
M  V30 49 1 16 46
M  V30 50 1 17 47
M  V30 51 1 17 48
M  V30 52 1 18 49
M  V30 53 1 18 50
M  V30 54 1 19 51
M  V30 55 1 20 52
M  V30 56 1 20 53
M  V30 57 1 23 54
M  V30 58 1 24 55
M  V30 59 1 24 56
M  V30 60 1 26 57
M  V30 61 1 27 58
M  V30 62 1 28 59
M  V30 63 1 29 60
M  V30 END BOND
M  V30 END CTAB
M  END
