
     RDKit          3D

  0  0  0  0  0  0  0  0  0  0999 V3000
M  V30 BEGIN CTAB
M  V30 COUNTS 36 37 0 0 0
M  V30 BEGIN ATOM
M  V30 1 C -3.24888 2.74977 -0.359123 0
M  V30 2 C -3.53265 1.54686 -1.20657 0
M  V30 3 O -3.31591 0.318372 -0.616192 0
M  V30 4 C -2.15295 -0.219196 -0.116138 0
M  V30 5 C -0.983616 0.477965 -0.171713 0
M  V30 6 C 0.240542 -0.0140945 0.322766 0
M  V30 7 C 0.178763 -1.26346 0.874466 0
M  V30 8 C -1.00502 -1.99404 0.941377 0
M  V30 9 C -2.16133 -1.48652 0.454778 0
M  V30 10 O -3.37754 -2.1536 0.485731 0
M  V30 11 C -3.46261 -3.43917 1.04784 0
M  V30 12 C 1.38 0.870256 0.193994 0
M  V30 13 C 2.71204 0.266919 0.172648 0
M  V30 14 N 3.21482 -0.942847 0.39275 0
M  V30 15 N 4.51838 -0.973032 0.242978 0
M  V30 16 C 4.91424 0.260371 -0.0906726 0
M  V30 17 N 3.8096 1.02353 -0.13479 0
M  V30 18 N 6.2563 0.69734 -0.353726 0
M  V30 19 N 1.29707 1.65482 -1.07095 0
M  V30 20 H -4.16662 3.3144 -0.097492 0
M  V30 21 H -2.58521 3.46767 -0.905893 0
M  V30 22 H -2.79332 2.44949 0.611295 0
M  V30 23 H -3.02618 1.64389 -2.203 0
M  V30 24 H -4.6361 1.58937 -1.45562 0
M  V30 25 H -0.990407 1.45882 -0.623821 0
M  V30 26 H 1.0669 -1.6987 1.28197 0
M  V30 27 H -1.01047 -2.98529 1.38821 0
M  V30 28 H -4.55582 -3.62924 1.23449 0
M  V30 29 H -2.87722 -3.56072 1.97586 0
M  V30 30 H -3.10504 -4.19268 0.307265 0
M  V30 31 H 1.28388 1.66902 0.98676 0
M  V30 32 H 5.19173 -1.76656 0.346017 0
M  V30 33 H 6.71464 0.560494 -1.26677 0
M  V30 34 H 6.76548 1.16405 0.412405 0
M  V30 35 H 1.22099 0.987888 -1.87863 0
M  V30 36 H 2.22152 2.14783 -1.1225 0
M  V30 END ATOM
M  V30 BEGIN BOND
M  V30 1 1 1 2
M  V30 2 1 2 3
M  V30 3 1 3 4
M  V30 4 2 4 5
M  V30 5 1 5 6
M  V30 6 2 6 7
M  V30 7 1 7 8
M  V30 8 2 8 9
M  V30 9 1 9 10
M  V30 10 1 10 11
M  V30 11 1 6 12
M  V30 12 1 12 13
M  V30 13 2 13 14
M  V30 14 1 14 15
M  V30 15 1 15 16
M  V30 16 2 16 17
M  V30 17 1 16 18
M  V30 18 1 12 19
M  V30 19 1 9 4
M  V30 20 1 17 13
M  V30 21 1 1 20
M  V30 22 1 1 21
M  V30 23 1 1 22
M  V30 24 1 2 23
M  V30 25 1 2 24
M  V30 26 1 5 25
M  V30 27 1 7 26
M  V30 28 1 8 27
M  V30 29 1 11 28
M  V30 30 1 11 29
M  V30 31 1 11 30
M  V30 32 1 12 31
M  V30 33 1 15 32
M  V30 34 1 18 33
M  V30 35 1 18 34
M  V30 36 1 19 35
M  V30 37 1 19 36
M  V30 END BOND
M  V30 END CTAB
M  END
