
     RDKit          3D

  0  0  0  0  0  0  0  0  0  0999 V3000
M  V30 BEGIN CTAB
M  V30 COUNTS 33 34 0 0 0
M  V30 BEGIN ATOM
M  V30 1 N 1.37857 3.31684 -0.0704277 0
M  V30 2 C 0.35188 2.29411 -0.279434 0
M  V30 3 C 0.892075 0.940477 -0.0383299 0
M  V30 4 C 2.22387 0.813069 0.305057 0
M  V30 5 C 2.82751 -0.426072 0.574745 0
M  V30 6 O 4.16031 -0.453797 0.908396 0
M  V30 7 C 4.88222 -1.59899 1.19748 0
M  V30 8 C 2.00877 -1.52395 0.477931 0
M  V30 9 C 0.688596 -1.38978 0.135887 0
M  V30 10 C 0.0872809 -0.15327 -0.134031 0
M  V30 11 C -1.31369 -0.127569 -0.513304 0
M  V30 12 C -1.77854 0.440829 -1.66965 0
M  V30 13 C -3.1341 0.400929 -2.00161 0
M  V30 14 C -4.05748 -0.203604 -1.19666 0
M  V30 15 C -3.61978 -0.786759 -0.0253132 0
M  V30 16 C -2.2824 -0.742407 0.295082 0
M  V30 17 F -1.84813 -1.30942 1.4344 0
M  V30 18 N -4.59511 -1.41542 0.795573 0
M  V30 19 F -5.36158 -0.221201 -1.55316 0
M  V30 20 H 0.993191 4.27295 -0.273029 0
M  V30 21 H 1.76258 3.26729 0.905108 0
M  V30 22 H -0.524865 2.56552 0.299206 0
M  V30 23 H 0.0749327 2.45088 -1.36295 0
M  V30 24 H 2.88675 1.67986 0.38449 0
M  V30 25 H 4.33381 -2.50886 0.902471 0
M  V30 26 H 5.85359 -1.52422 0.618977 0
M  V30 27 H 5.14257 -1.69557 2.28554 0
M  V30 28 H 2.41294 -2.51282 0.678741 0
M  V30 29 H 0.053616 -2.25388 0.0627433 0
M  V30 30 H -1.13604 0.919607 -2.39443 0
M  V30 31 H -3.45758 0.858034 -2.91557 0
M  V30 32 H -5.13978 -0.943329 1.53336 0
M  V30 33 H -4.76596 -2.42946 0.63271 0
M  V30 END ATOM
M  V30 BEGIN BOND
M  V30 1 1 1 2
M  V30 2 1 2 3
M  V30 3 2 3 4
M  V30 4 1 4 5
M  V30 5 1 5 6
M  V30 6 1 6 7
M  V30 7 2 5 8
M  V30 8 1 8 9
M  V30 9 2 9 10
M  V30 10 1 10 11
M  V30 11 2 11 12
M  V30 12 1 12 13
M  V30 13 2 13 14
M  V30 14 1 14 15
M  V30 15 2 15 16
M  V30 16 1 16 17
M  V30 17 1 15 18
M  V30 18 1 14 19
M  V30 19 1 10 3
M  V30 20 1 16 11
M  V30 21 1 1 20
M  V30 22 1 1 21
M  V30 23 1 2 22
M  V30 24 1 2 23
M  V30 25 1 4 24
M  V30 26 1 7 25
M  V30 27 1 7 26
M  V30 28 1 7 27
M  V30 29 1 8 28
M  V30 30 1 9 29
M  V30 31 1 12 30
M  V30 32 1 13 31
M  V30 33 1 18 32
M  V30 34 1 18 33
M  V30 END BOND
M  V30 END CTAB
M  END
