
     RDKit          3D

  0  0  0  0  0  0  0  0  0  0999 V3000
M  V30 BEGIN CTAB
M  V30 COUNTS 43 45 0 0 0
M  V30 BEGIN ATOM
M  V30 1 N -0.986005 3.31351 0.446994 0
M  V30 2 C -1.5814 2.19797 -0.256021 0
M  V30 3 C -1.20172 0.946032 0.433254 0 CFG=2
M  V30 4 C 0.332385 0.738552 0.473088 0
M  V30 5 N 0.569955 -0.661084 0.41323 0
M  V30 6 C -0.776786 -1.29085 0.559425 0
M  V30 7 C -1.5751 -0.326933 -0.294363 0 CFG=1
M  V30 8 C -3.00866 -0.606162 -0.278637 0
M  V30 9 C -3.71283 -0.597145 0.894182 0
M  V30 10 C -5.07367 -0.866204 0.8771 0
M  V30 11 C -5.75829 -1.14616 -0.284083 0
M  V30 12 C -5.04728 -1.15497 -1.4659 0
M  V30 13 C -3.69025 -0.886325 -1.44618 0
M  V30 14 C 1.69858 -1.44731 0.273985 0
M  V30 15 O 1.49346 -2.74552 0.243419 0
M  V30 16 C 3.0658 -1.05955 0.156665 0
M  V30 17 C 4.00703 -2.06873 -0.0520712 0
M  V30 18 C 5.33175 -1.74021 -0.155126 0
M  V30 19 C 5.74722 -0.427961 -0.0555695 0
M  V30 20 C 4.84433 0.568682 0.148008 0
M  V30 21 C 3.48538 0.23178 0.25397 0
M  V30 22 N 5.24272 1.93467 0.255194 0
M  V30 23 H -1.63652 3.86183 1.00722 0
M  V30 24 H -0.457849 3.87807 -0.186146 0
M  V30 25 H -2.68982 2.32287 -0.120893 0
M  V30 26 H -1.39447 2.22037 -1.32931 0
M  V30 27 H -1.56492 0.857923 1.46625 0
M  V30 28 H 0.724638 1.31921 -0.395265 0
M  V30 29 H 0.722173 1.23601 1.40052 0
M  V30 30 H -0.796962 -2.31003 0.188026 0
M  V30 31 H -1.03357 -1.172 1.62323 0
M  V30 32 H -1.14055 -0.368999 -1.30871 0
M  V30 33 H -3.17359 -0.377633 1.80082 0
M  V30 34 H -5.61099 -0.855079 1.80582 0
M  V30 35 H -6.83525 -1.35781 -0.28738 0
M  V30 36 H -5.60206 -1.37695 -2.36795 0
M  V30 37 H -3.15935 -0.900583 -2.38985 0
M  V30 38 H 3.74721 -3.11239 -0.139277 0
M  V30 39 H 6.087 -2.49621 -0.316752 0
M  V30 40 H 6.80186 -0.210485 -0.142603 0
M  V30 41 H 2.83057 1.07247 0.424953 0
M  V30 42 H 5.98388 2.29156 -0.378 0
M  V30 43 H 4.79194 2.57175 0.965871 0
M  V30 END ATOM
M  V30 BEGIN BOND
M  V30 1 1 1 2
M  V30 2 1 2 3
M  V30 3 1 3 4
M  V30 4 1 4 5
M  V30 5 1 5 6
M  V30 6 1 6 7
M  V30 7 1 7 8
M  V30 8 2 8 9
M  V30 9 1 9 10
M  V30 10 2 10 11
M  V30 11 1 11 12
M  V30 12 2 12 13
M  V30 13 1 5 14
M  V30 14 2 14 15
M  V30 15 1 14 16
M  V30 16 2 16 17
M  V30 17 1 17 18
M  V30 18 2 18 19
M  V30 19 1 19 20
M  V30 20 2 20 21
M  V30 21 1 20 22
M  V30 22 1 7 3
M  V30 23 1 13 8
M  V30 24 1 21 16
M  V30 25 1 1 23
M  V30 26 1 1 24
M  V30 27 1 2 25
M  V30 28 1 2 26
M  V30 29 1 3 27 CFG=1
M  V30 30 1 4 28
M  V30 31 1 4 29
M  V30 32 1 6 30
M  V30 33 1 6 31
M  V30 34 1 7 32 CFG=3
M  V30 35 1 9 33
M  V30 36 1 10 34
M  V30 37 1 11 35
M  V30 38 1 12 36
M  V30 39 1 13 37
M  V30 40 1 17 38
M  V30 41 1 18 39
M  V30 42 1 19 40
M  V30 43 1 21 41
M  V30 44 1 22 42
M  V30 45 1 22 43
M  V30 END BOND
M  V30 END CTAB
M  END
