
     RDKit          3D

  0  0  0  0  0  0  0  0  0  0999 V3000
M  V30 BEGIN CTAB
M  V30 COUNTS 65 68 0 0 0
M  V30 BEGIN ATOM
M  V30 1 C -6.08073 1.1403 3.84354 0
M  V30 2 C -5.94518 -0.33568 3.6368 0
M  V30 3 O -6.08162 -0.789916 2.34084 0
M  V30 4 C -5.2477 -0.423333 1.29932 0
M  V30 5 C -4.18535 0.421928 1.4323 0
M  V30 6 C -3.40793 0.73892 0.371109 0
M  V30 7 C -2.2353 1.65157 0.439892 0
M  V30 8 N -1.0083 0.981423 0.645355 0
M  V30 9 C 0.145656 1.79572 0.728829 0
M  V30 10 C 1.34862 1.0182 0.312296 0
M  V30 11 C 1.47375 -0.32107 0.943701 0
M  V30 12 C 0.224881 -1.06874 1.19895 0
M  V30 13 C -1.00917 -0.23658 1.34928 0
M  V30 14 N 2.3478 -1.14084 0.0886468 0
M  V30 15 C 3.69467 -0.734227 -0.163571 0
M  V30 16 N 4.57984 -1.38059 -0.919524 0
M  V30 17 C 5.73616 -0.696996 -0.919571 0
M  V30 18 C 6.91781 -0.985949 -1.5582 0
M  V30 19 C 7.96285 -0.113349 -1.39376 0
M  V30 20 C 7.79913 1.02417 -0.595748 0
M  V30 21 C 6.58059 1.28196 0.0367603 0
M  V30 22 C 5.53583 0.399517 -0.134364 0
M  V30 23 O 4.29641 0.322252 0.289236 0
M  V30 24 S 9.53295 -0.339246 -2.14302 0
M  V30 25 N 10.4987 -1.2712 -1.05938 0
M  V30 26 O 9.41467 -1.04508 -3.45545 0
M  V30 27 O 10.2081 0.9967 -2.30922 0
M  V30 28 C -3.70063 0.192256 -0.868827 0
M  V30 29 C -4.75249 -0.66642 -1.085 0
M  V30 30 O -5.09335 -1.24167 -2.28749 0
M  V30 31 C -4.38745 -0.993634 -3.4659 0
M  V30 32 C -4.38791 0.424275 -3.93324 0
M  V30 33 C -5.52669 -0.963416 0.0435466 0
M  V30 34 N -6.62662 -1.84681 -0.126795 0
M  V30 35 H -6.14856 1.66348 2.85414 0
M  V30 36 H -6.97157 1.38471 4.41971 0
M  V30 37 H -5.2052 1.58541 4.354 0
M  V30 38 H -4.91672 -0.63411 4.00199 0
M  V30 39 H -6.63073 -0.834548 4.36084 0
M  V30 40 H -3.94555 0.844588 2.39141 0
M  V30 41 H -2.41609 2.34234 1.28988 0
M  V30 42 H -2.20378 2.29515 -0.471192 0
M  V30 43 H 0.312627 2.2603 1.72229 0
M  V30 44 H 0.0232571 2.64166 0.00455042 0
M  V30 45 H 1.43921 0.949365 -0.795792 0
M  V30 46 H 2.24341 1.63312 0.628872 0
M  V30 47 H 2.0448 -0.2119 1.90685 0
M  V30 48 H 0.340669 -1.66954 2.12906 0
M  V30 49 H 0.0744604 -1.8209 0.376224 0
M  V30 50 H -1.2017 -0.0221583 2.44107 0
M  V30 51 H -1.87173 -0.850522 1.01592 0
M  V30 52 H 1.9868 -2.02732 -0.339613 0
M  V30 53 H 7.05035 -1.86463 -2.17725 0
M  V30 54 H 8.62437 1.70411 -0.471612 0
M  V30 55 H 6.43755 2.16562 0.663112 0
M  V30 56 H 9.89364 -2.00491 -0.653142 0
M  V30 57 H 10.9094 -0.634731 -0.337086 0
M  V30 58 H -3.05444 0.446052 -1.72893 0
M  V30 59 H -3.33429 -1.35494 -3.37688 0
M  V30 60 H -4.7945 -1.60993 -4.32547 0
M  V30 61 H -4.87569 1.0605 -3.15748 0
M  V30 62 H -4.96387 0.557467 -4.87006 0
M  V30 63 H -3.34615 0.779959 -4.08326 0
M  V30 64 H -7.56563 -1.57505 0.258673 0
M  V30 65 H -6.5563 -2.74983 -0.612172 0
M  V30 END ATOM
M  V30 BEGIN BOND
M  V30 1 1 1 2
M  V30 2 1 2 3
M  V30 3 1 3 4
M  V30 4 2 4 5
M  V30 5 1 5 6
M  V30 6 1 6 7
M  V30 7 1 7 8
M  V30 8 1 8 9
M  V30 9 1 9 10
M  V30 10 1 10 11
M  V30 11 1 11 12
M  V30 12 1 12 13
M  V30 13 1 11 14
M  V30 14 1 14 15
M  V30 15 2 15 16
M  V30 16 1 16 17
M  V30 17 2 17 18
M  V30 18 1 18 19
M  V30 19 2 19 20
M  V30 20 1 20 21
M  V30 21 2 21 22
M  V30 22 1 22 23
M  V30 23 1 19 24
M  V30 24 1 24 25
M  V30 25 2 24 26
M  V30 26 2 24 27
M  V30 27 2 6 28
M  V30 28 1 28 29
M  V30 29 1 29 30
M  V30 30 1 30 31
M  V30 31 1 31 32
M  V30 32 2 29 33
M  V30 33 1 33 34
M  V30 34 1 33 4
M  V30 35 1 13 8
M  V30 36 1 23 15
M  V30 37 1 22 17
M  V30 38 1 1 35
M  V30 39 1 1 36
M  V30 40 1 1 37
M  V30 41 1 2 38
M  V30 42 1 2 39
M  V30 43 1 5 40
M  V30 44 1 7 41
M  V30 45 1 7 42
M  V30 46 1 9 43
M  V30 47 1 9 44
M  V30 48 1 10 45
M  V30 49 1 10 46
M  V30 50 1 11 47
M  V30 51 1 12 48
M  V30 52 1 12 49
M  V30 53 1 13 50
M  V30 54 1 13 51
M  V30 55 1 14 52
M  V30 56 1 18 53
M  V30 57 1 20 54
M  V30 58 1 21 55
M  V30 59 1 25 56
M  V30 60 1 25 57
M  V30 61 1 28 58
M  V30 62 1 31 59
M  V30 63 1 31 60
M  V30 64 1 32 61
M  V30 65 1 32 62
M  V30 66 1 32 63
M  V30 67 1 34 64
M  V30 68 1 34 65
M  V30 END BOND
M  V30 END CTAB
M  END
