
     RDKit          3D

  0  0  0  0  0  0  0  0  0  0999 V3000
M  V30 BEGIN CTAB
M  V30 COUNTS 32 33 0 0 0
M  V30 BEGIN ATOM
M  V30 1 N -4.2901 2.23126 0.713764 0
M  V30 2 C -3.55712 1.01074 0.550604 0
M  V30 3 N -4.16682 -0.169587 0.670575 0
M  V30 4 C -3.48152 -1.3123 0.516875 0
M  V30 5 N -4.18435 -2.54091 0.656716 0
M  V30 6 N -2.16186 -1.26338 0.23812 0
M  V30 7 C -1.48956 -0.116551 0.104775 0
M  V30 8 C -2.19161 1.05654 0.262267 0
M  V30 9 N -0.107616 -0.0748671 -0.189528 0
M  V30 10 C 0.86281 -0.0868236 0.885808 0
M  V30 11 C 2.2598 -0.0438278 0.385361 0
M  V30 12 C 2.85507 1.16636 0.090329 0
M  V30 13 C 4.15293 1.21799 -0.373291 0
M  V30 14 C 4.89918 0.0740513 -0.558415 0
M  V30 15 C 4.29708 -1.12313 -0.261821 0
M  V30 16 C 3.00042 -1.19336 0.202578 0
M  V30 17 C 0.293324 -0.0168718 -1.58017 0
M  V30 18 H -4.15974 3.0046 0.0294162 0
M  V30 19 H -4.95785 2.37648 1.50177 0
M  V30 20 H -4.13511 -3.00707 1.59416 0
M  V30 21 H -4.72258 -2.97628 -0.102529 0
M  V30 22 H -1.74793 2.03408 0.17577 0
M  V30 23 H 0.650298 0.689459 1.63012 0
M  V30 24 H 0.740042 -1.07554 1.40361 0
M  V30 25 H 2.30942 2.08958 0.21919 0
M  V30 26 H 4.64005 2.15842 -0.611373 0
M  V30 27 H 5.91339 0.0756028 -0.918231 0
M  V30 28 H 4.88693 -2.03847 -0.407421 0
M  V30 29 H 2.57073 -2.16082 0.422038 0
M  V30 30 H 1.34319 -0.294607 -1.68578 0
M  V30 31 H 0.0776344 1.00987 -1.98701 0
M  V30 32 H -0.39854 -0.700641 -2.15173 0
M  V30 END ATOM
M  V30 BEGIN BOND
M  V30 1 1 1 2
M  V30 2 2 2 3
M  V30 3 1 3 4
M  V30 4 1 4 5
M  V30 5 2 4 6
M  V30 6 1 6 7
M  V30 7 2 7 8
M  V30 8 1 7 9
M  V30 9 1 9 10
M  V30 10 1 10 11
M  V30 11 2 11 12
M  V30 12 1 12 13
M  V30 13 2 13 14
M  V30 14 1 14 15
M  V30 15 2 15 16
M  V30 16 1 9 17
M  V30 17 1 8 2
M  V30 18 1 16 11
M  V30 19 1 1 18
M  V30 20 1 1 19
M  V30 21 1 5 20
M  V30 22 1 5 21
M  V30 23 1 8 22
M  V30 24 1 10 23
M  V30 25 1 10 24
M  V30 26 1 12 25
M  V30 27 1 13 26
M  V30 28 1 14 27
M  V30 29 1 15 28
M  V30 30 1 16 29
M  V30 31 1 17 30
M  V30 32 1 17 31
M  V30 33 1 17 32
M  V30 END BOND
M  V30 END CTAB
M  END
