
     RDKit          3D

  0  0  0  0  0  0  0  0  0  0999 V3000
M  V30 BEGIN CTAB
M  V30 COUNTS 23 24 0 0 0
M  V30 BEGIN ATOM
M  V30 1 N 4.62563 0.453691 -0.747163 0
M  V30 2 C 3.21693 0.346461 -0.557983 0
M  V30 3 N 2.39387 1.13035 -1.26931 0
M  V30 4 N 1.08406 1.05058 -1.1128 0
M  V30 5 C 0.544829 0.179034 -0.234147 0
M  V30 6 C -0.909691 0.168131 -0.133377 0
M  V30 7 C -1.67413 -0.970268 -0.107555 0
M  V30 8 C -3.04254 -0.967906 -0.0107983 0
M  V30 9 C -3.70289 0.240239 0.0657262 0
M  V30 10 F -5.0553 0.215669 0.160692 0
M  V30 11 C -2.98539 1.41766 0.0441237 0
M  V30 12 C -1.61249 1.37695 -0.0538692 0
M  V30 13 C 1.36875 -0.623152 0.494986 0
M  V30 14 N 0.816834 -1.54133 1.42237 0
M  V30 15 N 2.68866 -0.519643 0.314776 0
M  V30 16 H 5.2675 -0.368363 -0.744685 0
M  V30 17 H 5.04175 1.39057 -0.895215 0
M  V30 18 H -1.17916 -1.93928 -0.167895 0
M  V30 19 H -3.61743 -1.88269 0.00721735 0
M  V30 20 H -3.50564 2.36328 0.104231 0
M  V30 21 H -1.00382 2.28415 -0.0744576 0
M  V30 22 H 0.391601 -1.25373 2.312 0
M  V30 23 H 0.848072 -2.55041 1.18313 0
M  V30 END ATOM
M  V30 BEGIN BOND
M  V30 1 1 1 2
M  V30 2 2 2 3
M  V30 3 1 3 4
M  V30 4 2 4 5
M  V30 5 1 5 6
M  V30 6 2 6 7
M  V30 7 1 7 8
M  V30 8 2 8 9
M  V30 9 1 9 10
M  V30 10 1 9 11
M  V30 11 2 11 12
M  V30 12 1 5 13
M  V30 13 1 13 14
M  V30 14 2 13 15
M  V30 15 1 15 2
M  V30 16 1 12 6
M  V30 17 1 1 16
M  V30 18 1 1 17
M  V30 19 1 7 18
M  V30 20 1 8 19
M  V30 21 1 11 20
M  V30 22 1 12 21
M  V30 23 1 14 22
M  V30 24 1 14 23
M  V30 END BOND
M  V30 END CTAB
M  END
