
     RDKit          3D

  0  0  0  0  0  0  0  0  0  0999 V3000
M  V30 BEGIN CTAB
M  V30 COUNTS 26 26 0 0 0
M  V30 BEGIN ATOM
M  V30 1 C 5.02888 -0.142915 0.450668 0
M  V30 2 C 3.66359 0.374421 0.595223 0
M  V30 3 C 2.74382 0.249548 -0.354416 0
M  V30 4 C 1.36263 0.776101 -0.201106 0
M  V30 5 N 0.433913 -0.308759 -0.30846 0
M  V30 6 C -0.978496 -0.145659 -0.20644 0
M  V30 7 C -1.78721 -1.25298 -0.323858 0
M  V30 8 C -3.16176 -1.1729 -0.236067 0
M  V30 9 N -3.96473 -2.3366 -0.362098 0
M  V30 10 N -3.69937 0.0561175 -0.0263202 0
M  V30 11 C -2.91123 1.14102 0.0889552 0
M  V30 12 N -1.5634 1.04938 0.000947749 0
M  V30 13 N -3.5588 2.39229 0.308047 0
M  V30 14 H 5.20049 -0.680314 -0.485515 0
M  V30 15 H 5.23643 -0.809536 1.32506 0
M  V30 16 H 5.75928 0.699304 0.554397 0
M  V30 17 H 3.39052 0.88028 1.51413 0
M  V30 18 H 3.03893 -0.256658 -1.25804 0
M  V30 19 H 1.1836 1.44139 -1.09147 0
M  V30 20 H 1.24302 1.39421 0.686038 0
M  V30 21 H 0.810226 -1.26732 -0.46954 0
M  V30 22 H -1.35348 -2.2268 -0.490479 0
M  V30 23 H -3.92087 -2.91522 -1.24775 0
M  V30 24 H -4.61312 -2.67435 0.372709 0
M  V30 25 H -3.06354 3.14126 0.838835 0
M  V30 26 H -4.51932 2.59469 -0.043906 0
M  V30 END ATOM
M  V30 BEGIN BOND
M  V30 1 1 1 2
M  V30 2 2 2 3
M  V30 3 1 3 4
M  V30 4 1 4 5
M  V30 5 1 5 6
M  V30 6 2 6 7
M  V30 7 1 7 8
M  V30 8 1 8 9
M  V30 9 2 8 10
M  V30 10 1 10 11
M  V30 11 2 11 12
M  V30 12 1 11 13
M  V30 13 1 12 6
M  V30 14 1 1 14
M  V30 15 1 1 15
M  V30 16 1 1 16
M  V30 17 1 2 17
M  V30 18 1 3 18
M  V30 19 1 4 19
M  V30 20 1 4 20
M  V30 21 1 5 21
M  V30 22 1 7 22
M  V30 23 1 9 23
M  V30 24 1 9 24
M  V30 25 1 13 25
M  V30 26 1 13 26
M  V30 END BOND
M  V30 END CTAB
M  END
