
     RDKit          3D

  0  0  0  0  0  0  0  0  0  0999 V3000
M  V30 BEGIN CTAB
M  V30 COUNTS 24 24 0 0 0
M  V30 BEGIN ATOM
M  V30 1 O -0.918383 -1.84256 1.26596 0
M  V30 2 C -0.797226 -0.670447 0.79768 0 CFG=2
M  V30 3 C -2.12873 0.0255458 0.878314 0
M  V30 4 C -2.11019 1.26419 0.00662366 0
M  V30 5 O -1.92645 0.828038 -1.29688 0
M  V30 6 C -0.63016 0.413697 -1.46637 0
M  V30 7 C -0.230805 -0.7282 -0.585581 0 CFG=1
M  V30 8 N 1.16101 -0.970725 -0.499198 0
M  V30 9 C 2.12467 -0.252855 -0.152228 0
M  V30 10 N 1.97704 1.08961 0.265429 0
M  V30 11 N 3.44004 -0.788974 -0.170015 0
M  V30 12 H -0.848915 -2.56656 1.10992 0
M  V30 13 H -0.115083 -0.115093 1.49369 0
M  V30 14 H -2.92629 -0.669973 0.583527 0
M  V30 15 H -2.2866 0.368841 1.9206 0
M  V30 16 H -3.06811 1.8042 0.144826 0
M  V30 17 H -1.22889 1.85561 0.292967 0
M  V30 18 H 0.0204163 1.30008 -1.41108 0
M  V30 19 H -0.545356 0.0572917 -2.53597 0
M  V30 20 H -0.686746 -1.64662 -1.06881 0
M  V30 21 H 1.72388 1.3885 1.23183 0
M  V30 22 H 2.12859 1.85665 -0.42561 0
M  V30 23 H 3.71896 -1.42856 -0.944959 0
M  V30 24 H 4.15333 -0.571665 0.56533 0
M  V30 END ATOM
M  V30 BEGIN BOND
M  V30 1 1 1 2
M  V30 2 1 2 3
M  V30 3 1 3 4
M  V30 4 1 4 5
M  V30 5 1 5 6
M  V30 6 1 6 7
M  V30 7 1 7 8
M  V30 8 2 8 9 CFG=2
M  V30 9 1 9 10
M  V30 10 1 9 11
M  V30 11 1 7 2
M  V30 12 1 1 12
M  V30 13 1 2 13 CFG=1
M  V30 14 1 3 14
M  V30 15 1 3 15
M  V30 16 1 4 16
M  V30 17 1 4 17
M  V30 18 1 6 18
M  V30 19 1 6 19
M  V30 20 1 7 20 CFG=3
M  V30 21 1 10 21
M  V30 22 1 10 22
M  V30 23 1 11 23
M  V30 24 1 11 24
M  V30 END BOND
M  V30 END CTAB
M  END
