
     RDKit          3D

  0  0  0  0  0  0  0  0  0  0999 V3000
M  V30 BEGIN CTAB
M  V30 COUNTS 24 24 0 0 0
M  V30 BEGIN ATOM
M  V30 1 C 3.78539 -0.293304 0.288466 0
M  V30 2 N 3.03993 0.780879 0.86191 0
M  V30 3 C 1.64413 0.479843 0.979455 0
M  V30 4 C 1.04565 0.400577 -0.416669 0
M  V30 5 C -0.421399 0.0884182 -0.318081 0
M  V30 6 N -0.887875 -1.17021 -0.303056 0
M  V30 7 C -2.21509 -1.36279 -0.214277 0
M  V30 8 N -2.67053 -2.70144 -0.202418 0
M  V30 9 N -3.08418 -0.338255 -0.141149 0
M  V30 10 C -2.62156 0.929323 -0.155907 0
M  V30 11 N -1.28863 1.12408 -0.244645 0
M  V30 12 N -3.51468 2.02877 -0.0794577 0
M  V30 13 H 3.70261 -1.22425 0.906402 0
M  V30 14 H 4.86446 -0.0355451 0.27626 0
M  V30 15 H 3.51393 -0.536805 -0.755518 0
M  V30 16 H 3.19329 1.64473 0.329782 0
M  V30 17 H 1.13462 1.30378 1.54046 0
M  V30 18 H 1.47433 -0.491695 1.49581 0
M  V30 19 H 1.2138 1.33153 -0.984436 0
M  V30 20 H 1.48856 -0.451149 -0.968549 0
M  V30 21 H -3.32631 -3.03422 -0.930322 0
M  V30 22 H -2.3359 -3.33775 0.545275 0
M  V30 23 H -4.19226 2.14151 -0.864369 0
M  V30 24 H -3.54231 2.72397 0.692193 0
M  V30 END ATOM
M  V30 BEGIN BOND
M  V30 1 1 1 2
M  V30 2 1 2 3
M  V30 3 1 3 4
M  V30 4 1 4 5
M  V30 5 2 5 6
M  V30 6 1 6 7
M  V30 7 1 7 8
M  V30 8 2 7 9
M  V30 9 1 9 10
M  V30 10 2 10 11
M  V30 11 1 10 12
M  V30 12 1 11 5
M  V30 13 1 1 13
M  V30 14 1 1 14
M  V30 15 1 1 15
M  V30 16 1 2 16
M  V30 17 1 3 17
M  V30 18 1 3 18
M  V30 19 1 4 19
M  V30 20 1 4 20
M  V30 21 1 8 21
M  V30 22 1 8 22
M  V30 23 1 12 23
M  V30 24 1 12 24
M  V30 END BOND
M  V30 END CTAB
M  END
