
     RDKit          3D

  0  0  0  0  0  0  0  0  0  0999 V3000
M  V30 BEGIN CTAB
M  V30 COUNTS 17 17 0 0 0
M  V30 BEGIN ATOM
M  V30 1 N -1.99706 2.59387 0.280351 0
M  V30 2 C -1.28259 1.37699 0.169377 0
M  V30 3 N 0.074535 1.43961 0.10715 0
M  V30 4 C 0.827066 0.332389 0.00117502 0
M  V30 5 O 2.1971 0.497741 -0.0552547 0
M  V30 6 C 3.13063 -0.52746 -0.164903 0
M  V30 7 F 4.39768 0.0679933 -0.189392 0
M  V30 8 F 3.14142 -1.38465 0.926049 0
M  V30 9 Cl 2.97618 -1.45566 -1.66849 0
M  V30 10 N 0.187912 -0.847094 -0.0414926 0
M  V30 11 C -1.15595 -0.924187 0.0191817 0
M  V30 12 N -1.85673 -2.15589 -0.0237661 0
M  V30 13 N -1.89924 0.193516 0.125364 0
M  V30 14 H -2.18653 3.14458 -0.556805 0
M  V30 15 H -2.31006 2.89239 1.22041 0
M  V30 16 H -2.08516 -2.54729 -0.957536 0
M  V30 17 H -2.15921 -2.69687 0.808584 0
M  V30 END ATOM
M  V30 BEGIN BOND
M  V30 1 1 1 2
M  V30 2 2 2 3
M  V30 3 1 3 4
M  V30 4 1 4 5
M  V30 5 1 5 6
M  V30 6 1 6 7
M  V30 7 1 6 8
M  V30 8 1 6 9
M  V30 9 2 4 10
M  V30 10 1 10 11
M  V30 11 1 11 12
M  V30 12 2 11 13
M  V30 13 1 13 2
M  V30 14 1 1 14
M  V30 15 1 1 15
M  V30 16 1 12 16
M  V30 17 1 12 17
M  V30 END BOND
M  V30 END CTAB
M  END
