
     RDKit          3D

  0  0  0  0  0  0  0  0  0  0999 V3000
M  V30 BEGIN CTAB
M  V30 COUNTS 22 23 0 0 0
M  V30 BEGIN ATOM
M  V30 1 N -2.96699 -2.3246 0.308479 0
M  V30 2 C -2.07345 -1.22098 0.117887 0
M  V30 3 N -0.761653 -1.31069 0.296232 0
M  V30 4 C 0.12307 -0.312321 0.1328 0
M  V30 5 N -0.367307 0.880779 -0.244562 0
M  V30 6 C -1.69 1.02504 -0.438808 0
M  V30 7 N -2.56265 -0.00621362 -0.265142 0
M  V30 8 N -2.26661 2.26162 -0.837949 0
M  V30 9 C 1.54039 -0.585628 0.372778 0
M  V30 10 C 2.2867 0.434246 1.19154 0
M  V30 11 N 3.33863 0.404188 0.170699 0
M  V30 12 C 2.3788 -0.121764 -0.799785 0
M  V30 13 H -3.85082 -2.1799 0.839597 0
M  V30 14 H -2.67072 -3.23448 -0.108252 0
M  V30 15 H -2.9587 2.69553 -0.190041 0
M  V30 16 H -2.03746 2.73626 -1.71586 0
M  V30 17 H 1.73481 -1.62084 0.673227 0
M  V30 18 H 2.65962 -0.0231945 2.14218 0
M  V30 19 H 1.83486 1.42102 1.28307 0
M  V30 20 H 3.6589 1.36931 -0.0793439 0
M  V30 21 H 1.87356 0.645656 -1.40811 0
M  V30 22 H 2.77701 -0.933028 -1.44064 0
M  V30 END ATOM
M  V30 BEGIN BOND
M  V30 1 1 1 2
M  V30 2 2 2 3
M  V30 3 1 3 4
M  V30 4 2 4 5
M  V30 5 1 5 6
M  V30 6 2 6 7
M  V30 7 1 6 8
M  V30 8 1 4 9
M  V30 9 1 9 10
M  V30 10 1 10 11
M  V30 11 1 11 12
M  V30 12 1 7 2
M  V30 13 1 12 9
M  V30 14 1 1 13
M  V30 15 1 1 14
M  V30 16 1 8 15
M  V30 17 1 8 16
M  V30 18 1 9 17
M  V30 19 1 10 18
M  V30 20 1 10 19
M  V30 21 1 11 20
M  V30 22 1 12 21
M  V30 23 1 12 22
M  V30 END BOND
M  V30 END CTAB
M  END
