
     RDKit          3D

  0  0  0  0  0  0  0  0  0  0999 V3000
M  V30 BEGIN CTAB
M  V30 COUNTS 21 20 0 0 0
M  V30 BEGIN ATOM
M  V30 1 C -1.9297 0.758018 0.477417 0
M  V30 2 C -0.770567 0.0963915 -0.241454 0
M  V30 3 C -1.11491 -1.37049 -0.36617 0
M  V30 4 N -0.722178 0.642854 -1.57059 0
M  V30 5 C 0.483677 0.327161 0.546491 0
M  V30 6 C 1.69708 -0.302841 -0.102842 0
M  V30 7 N 2.90093 -0.0950668 0.630584 0
M  V30 8 H -1.5711 1.73552 0.853009 0
M  V30 9 H -2.73146 0.928354 -0.265347 0
M  V30 10 H -2.30138 0.134972 1.31503 0
M  V30 11 H -1.47846 -1.75626 0.605922 0
M  V30 12 H -0.322255 -1.96888 -0.822233 0
M  V30 13 H -1.99726 -1.42133 -1.05689 0
M  V30 14 H -0.430205 1.63175 -1.6192 0
M  V30 15 H -0.347731 0.0231287 -2.28642 0
M  V30 16 H 0.347378 -0.139586 1.54338 0
M  V30 17 H 0.623859 1.41239 0.716958 0
M  V30 18 H 1.53353 -1.39643 -0.191622 0
M  V30 19 H 1.85191 0.0689063 -1.13416 0
M  V30 20 H 2.76728 0.0360518 1.65368 0
M  V30 21 H 3.51155 0.655374 0.23814 0
M  V30 END ATOM
M  V30 BEGIN BOND
M  V30 1 1 1 2
M  V30 2 1 2 3
M  V30 3 1 2 4
M  V30 4 1 2 5
M  V30 5 1 5 6
M  V30 6 1 6 7
M  V30 7 1 1 8
M  V30 8 1 1 9
M  V30 9 1 1 10
M  V30 10 1 3 11
M  V30 11 1 3 12
M  V30 12 1 3 13
M  V30 13 1 4 14
M  V30 14 1 4 15
M  V30 15 1 5 16
M  V30 16 1 5 17
M  V30 17 1 6 18
M  V30 18 1 6 19
M  V30 19 1 7 20
M  V30 20 1 7 21
M  V30 END BOND
M  V30 END CTAB
M  END
