
     RDKit          3D

  0  0  0  0  0  0  0  0  0  0999 V3000
M  V30 BEGIN CTAB
M  V30 COUNTS 57 62 0 0 0
M  V30 BEGIN ATOM
M  V30 1 N 1.23126 3.03746 -2.14043 0
M  V30 2 C 0.960419 3.91805 -1.03575 0
M  V30 3 N 1.73429 5.03931 -0.91175 0
M  V30 4 C 1.55349 5.96625 0.0340089 0
M  V30 5 C 0.525157 5.81495 0.968032 0
M  V30 6 C -0.238833 4.70554 0.841941 0
M  V30 7 C -0.043331 3.74805 -0.141306 0
M  V30 8 C -0.973636 2.63862 -0.188144 0
M  V30 9 N -2.31986 2.93825 -0.166619 0
M  V30 10 C -2.99931 1.81264 -0.11632 0
M  V30 11 C -2.08745 0.787595 -0.103578 0
M  V30 12 N -0.831226 1.32148 -0.149987 0
M  V30 13 C 0.363837 0.573678 -0.119224 0
M  V30 14 C 0.650705 -0.426052 -1.05729 0
M  V30 15 C 1.80448 -1.17604 -1.03962 0
M  V30 16 C 2.75138 -0.937137 -0.0357011 0
M  V30 17 C 2.48079 0.0368101 0.888121 0
M  V30 18 C 1.31143 0.781336 0.852619 0
M  V30 19 C 3.97303 -1.74054 -0.0796247 0
M  V30 20 N 4.02633 -2.68018 -1.21174 0
M  V30 21 C 5.26458 -0.94377 -0.0615449 0
M  V30 22 C 5.84681 -1.98324 0.859833 0
M  V30 23 C 4.4215 -2.41126 1.19675 0
M  V30 24 N -2.52371 -0.471718 -0.0376944 0
M  V30 25 C -3.83804 -0.763309 0.0145002 0
M  V30 26 C -4.76567 0.251093 -0.000773175 0
M  V30 27 C -4.36426 1.57075 -0.0674697 0
M  V30 28 C -4.31839 -2.12214 0.178541 0
M  V30 29 C -3.4457 -3.11394 0.533574 0
M  V30 30 C -3.83085 -4.44728 0.724271 0
M  V30 31 C -5.15433 -4.7701 0.542049 0
M  V30 32 C -6.04604 -3.79671 0.184251 0
M  V30 33 C -5.66197 -2.46626 -0.00491828 0
M  V30 34 H 2.19511 3.05215 -2.55808 0
M  V30 35 H 0.537643 2.402 -2.55849 0
M  V30 36 H 2.16261 6.86046 0.133485 0
M  V30 37 H 0.374486 6.55188 1.7336 0
M  V30 38 H -1.05252 4.54798 1.54295 0
M  V30 39 H -0.136466 -0.559498 -1.81199 0
M  V30 40 H 1.95457 -1.93232 -1.79764 0
M  V30 41 H 3.24976 0.190712 1.66343 0
M  V30 42 H 1.19377 1.53376 1.63033 0
M  V30 43 H 4.01071 -2.11897 -2.0817 0
M  V30 44 H 3.23927 -3.34316 -1.10944 0
M  V30 45 H 5.19691 0.0296688 0.445882 0
M  V30 46 H 5.80967 -0.943849 -1.03852 0
M  V30 47 H 6.39961 -1.57508 1.73625 0
M  V30 48 H 6.37426 -2.80174 0.32261 0
M  V30 49 H 4.31123 -3.52225 1.19111 0
M  V30 50 H 4.08388 -1.91447 2.11023 0
M  V30 51 H -5.83692 0.10909 0.0351714 0
M  V30 52 H -5.09553 2.36851 -0.0776761 0
M  V30 53 H -2.38421 -2.88095 0.679509 0
M  V30 54 H -3.12574 -5.21716 1.00514 0
M  V30 55 H -5.47076 -5.82209 0.696044 0
M  V30 56 H -7.09456 -4.00444 0.0240395 0
M  V30 57 H -6.35368 -1.70243 -0.295485 0
M  V30 END ATOM
M  V30 BEGIN BOND
M  V30 1 1 1 2
M  V30 2 2 2 3
M  V30 3 1 3 4
M  V30 4 2 4 5
M  V30 5 1 5 6
M  V30 6 2 6 7
M  V30 7 1 7 8
M  V30 8 2 8 9
M  V30 9 1 9 10
M  V30 10 2 10 11
M  V30 11 1 11 12
M  V30 12 1 12 13
M  V30 13 2 13 14
M  V30 14 1 14 15
M  V30 15 2 15 16
M  V30 16 1 16 17
M  V30 17 2 17 18
M  V30 18 1 16 19
M  V30 19 1 19 20
M  V30 20 1 19 21
M  V30 21 1 21 22
M  V30 22 1 22 23
M  V30 23 1 11 24
M  V30 24 2 24 25
M  V30 25 1 25 26
M  V30 26 2 26 27
M  V30 27 1 25 28
M  V30 28 2 28 29
M  V30 29 1 29 30
M  V30 30 2 30 31
M  V30 31 1 31 32
M  V30 32 2 32 33
M  V30 33 1 7 2
M  V30 34 1 12 8
M  V30 35 1 18 13
M  V30 36 1 23 19
M  V30 37 1 33 28
M  V30 38 1 27 10
M  V30 39 1 1 34
M  V30 40 1 1 35
M  V30 41 1 4 36
M  V30 42 1 5 37
M  V30 43 1 6 38
M  V30 44 1 14 39
M  V30 45 1 15 40
M  V30 46 1 17 41
M  V30 47 1 18 42
M  V30 48 1 20 43
M  V30 49 1 20 44
M  V30 50 1 21 45
M  V30 51 1 21 46
M  V30 52 1 22 47
M  V30 53 1 22 48
M  V30 54 1 23 49
M  V30 55 1 23 50
M  V30 56 1 26 51
M  V30 57 1 27 52
M  V30 58 1 29 53
M  V30 59 1 30 54
M  V30 60 1 31 55
M  V30 61 1 32 56
M  V30 62 1 33 57
M  V30 END BOND
M  V30 END CTAB
M  END
