
     RDKit          3D

  0  0  0  0  0  0  0  0  0  0999 V3000
M  V30 BEGIN CTAB
M  V30 COUNTS 31 32 0 0 0
M  V30 BEGIN ATOM
M  V30 1 N -1.13766 1.79563 -0.847462 0
M  V30 2 C -2.08364 1.47388 0.162113 0
M  V30 3 C -2.00554 0.113763 0.733072 0 CFG=1
M  V30 4 C -2.18524 -1.0185 -0.206459 0
M  V30 5 C -1.82414 -2.22363 0.652054 0
M  V30 6 C -1.00119 -1.68279 1.81745 0
M  V30 7 C -0.750124 -0.214107 1.47587 0 CFG=1
M  V30 8 C 0.486176 -0.0545257 0.686781 0
M  V30 9 N 1.49922 0.760278 1.0279 0
M  V30 10 N 2.46002 0.669464 0.110494 0
M  V30 11 C 2.08206 -0.207706 -0.840455 0
M  V30 12 N 0.866512 -0.633428 -0.456707 0
M  V30 13 N 2.85645 -0.559625 -1.98038 0
M  V30 14 C 3.71313 1.41477 0.155238 0
M  V30 15 H -0.808386 2.77711 -0.729822 0
M  V30 16 H -1.49259 1.71204 -1.81808 0
M  V30 17 H -2.02102 2.19645 1.02937 0
M  V30 18 H -3.10213 1.64636 -0.255743 0
M  V30 19 H -2.83679 0.0366904 1.49751 0
M  V30 20 H -3.25743 -1.16774 -0.512783 0
M  V30 21 H -1.61188 -0.968119 -1.13623 0
M  V30 22 H -2.74544 -2.65669 1.10006 0
M  V30 23 H -1.27812 -2.99212 0.0776734 0
M  V30 24 H -0.0140069 -2.18234 1.76082 0
M  V30 25 H -1.50278 -1.80863 2.78355 0
M  V30 26 H -0.721252 0.403907 2.37368 0
M  V30 27 H 3.31399 -1.48654 -2.04366 0
M  V30 28 H 2.95436 0.135351 -2.75212 0
M  V30 29 H 4.1082 1.27787 1.19611 0
M  V30 30 H 3.56984 2.48972 0.0014051 0
M  V30 31 H 4.4694 0.953214 -0.508076 0
M  V30 END ATOM
M  V30 BEGIN BOND
M  V30 1 1 1 2
M  V30 2 1 2 3
M  V30 3 1 3 4
M  V30 4 1 4 5
M  V30 5 1 5 6
M  V30 6 1 6 7
M  V30 7 1 7 8
M  V30 8 2 8 9
M  V30 9 1 9 10
M  V30 10 1 10 11
M  V30 11 2 11 12
M  V30 12 1 11 13
M  V30 13 1 10 14
M  V30 14 1 7 3
M  V30 15 1 12 8
M  V30 16 1 1 15
M  V30 17 1 1 16
M  V30 18 1 2 17
M  V30 19 1 2 18
M  V30 20 1 3 19 CFG=1
M  V30 21 1 4 20
M  V30 22 1 4 21
M  V30 23 1 5 22
M  V30 24 1 5 23
M  V30 25 1 6 24
M  V30 26 1 6 25
M  V30 27 1 7 26 CFG=1
M  V30 28 1 13 27
M  V30 29 1 13 28
M  V30 30 1 14 29
M  V30 31 1 14 30
M  V30 32 1 14 31
M  V30 END BOND
M  V30 END CTAB
M  END
