
     RDKit          3D

  0  0  0  0  0  0  0  0  0  0999 V3000
M  V30 BEGIN CTAB
M  V30 COUNTS 22 22 0 0 0
M  V30 BEGIN ATOM
M  V30 1 N -2.79206 -0.0612798 0.859545 0
M  V30 2 C -1.52666 0.562465 1.15966 0
M  V30 3 C -0.506484 -0.0118207 0.1371 0
M  V30 4 C -0.856313 0.260057 -1.32666 0
M  V30 5 C -0.968703 -1.09398 -0.700948 0
M  V30 6 C 0.876095 0.334206 0.525281 0
M  V30 7 C 1.99054 -0.120901 -0.290165 0
M  V30 8 N 1.85986 -0.908658 -1.27644 0
M  V30 9 N 3.31316 0.304029 0.00732015 0
M  V30 10 H -3.56649 0.577568 1.1094 0
M  V30 11 H -2.89516 -1.01349 1.24943 0
M  V30 12 H -1.24238 0.275768 2.17292 0
M  V30 13 H -1.60609 1.64748 0.998189 0
M  V30 14 H -0.0607413 0.480723 -2.04983 0
M  V30 15 H -1.77179 0.888995 -1.43706 0
M  V30 16 H -0.400948 -1.95606 -1.07439 0
M  V30 17 H -2.05517 -1.40392 -0.571917 0
M  V30 18 H 0.909255 1.478 0.523348 0
M  V30 19 H 1.086 0.112831 1.615 0
M  V30 20 H 2.63031 -1.25191 -1.87699 0
M  V30 21 H 3.8176 -0.147985 0.790639 0
M  V30 22 H 3.76619 1.04787 -0.54343 0
M  V30 END ATOM
M  V30 BEGIN BOND
M  V30 1 1 1 2
M  V30 2 1 2 3
M  V30 3 1 3 4
M  V30 4 1 4 5
M  V30 5 1 3 6
M  V30 6 1 6 7
M  V30 7 2 7 8 CFG=2
M  V30 8 1 7 9
M  V30 9 1 5 3
M  V30 10 1 1 10
M  V30 11 1 1 11
M  V30 12 1 2 12
M  V30 13 1 2 13
M  V30 14 1 4 14
M  V30 15 1 4 15
M  V30 16 1 5 16
M  V30 17 1 5 17
M  V30 18 1 6 18
M  V30 19 1 6 19
M  V30 20 1 8 20
M  V30 21 1 9 21
M  V30 22 1 9 22
M  V30 END BOND
M  V30 END CTAB
M  END
