
     RDKit          3D

  0  0  0  0  0  0  0  0  0  0999 V3000
M  V30 BEGIN CTAB
M  V30 COUNTS 39 42 0 0 0
M  V30 BEGIN ATOM
M  V30 1 N -7.03303 -1.30964 -0.355492 0
M  V30 2 C -5.65148 -1.01622 -0.229186 0
M  V30 3 C -4.67621 -1.73518 -0.917915 0
M  V30 4 C -3.32709 -1.44097 -0.788099 0
M  V30 5 C -2.93078 -0.413649 0.0404312 0
M  V30 6 C -3.90251 0.289299 0.71549 0
M  V30 7 C -5.24349 0.0237403 0.608974 0
M  V30 8 N -6.24733 0.73675 1.29511 0
M  V30 9 C -1.51453 -0.0896164 0.189414 0
M  V30 10 N -0.470635 -0.687205 -0.404427 0
M  V30 11 C 0.68779 -0.0969305 -0.00826575 0
M  V30 12 C 0.343998 0.912376 0.871193 0
M  V30 13 N -0.996676 0.886848 0.966269 0
M  V30 14 C 1.33836 1.69972 1.44786 0
M  V30 15 C 2.65468 1.45025 1.12383 0
M  V30 16 C 3.04435 0.446466 0.244994 0
M  V30 17 C 2.02807 -0.309906 -0.303655 0
M  V30 18 C 4.44098 0.236882 -0.0525234 0
M  V30 19 C 5.34103 1.27306 -0.0650248 0
M  V30 20 C 6.67764 1.0962 -0.345555 0
M  V30 21 C 7.15304 -0.158574 -0.627402 0
M  V30 22 C 6.27303 -1.23027 -0.624267 0
M  V30 23 C 4.9161 -1.02069 -0.334847 0
M  V30 24 H -7.50778 -1.99973 0.249198 0
M  V30 25 H -7.58519 -0.815501 -1.07848 0
M  V30 26 H -5.04261 -2.53181 -1.55517 0
M  V30 27 H -2.59505 -2.01745 -1.3359 0
M  V30 28 H -3.59121 1.09241 1.36332 0
M  V30 29 H -6.66561 1.57524 0.869973 0
M  V30 30 H -6.56133 0.417478 2.22178 0
M  V30 31 H -1.56426 1.53849 1.56438 0
M  V30 32 H 1.04387 2.48373 2.13344 0
M  V30 33 H 3.45504 2.05144 1.56103 0
M  V30 34 H 2.27229 -1.11125 -0.998946 0
M  V30 35 H 4.96824 2.25896 0.156303 0
M  V30 36 H 7.3561 1.92557 -0.348113 0
M  V30 37 H 8.20125 -0.353864 -0.855456 0
M  V30 38 H 6.66884 -2.20155 -0.848105 0
M  V30 39 H 4.2421 -1.85492 -0.334339 0
M  V30 END ATOM
M  V30 BEGIN BOND
M  V30 1 1 1 2
M  V30 2 2 2 3
M  V30 3 1 3 4
M  V30 4 2 4 5
M  V30 5 1 5 6
M  V30 6 2 6 7
M  V30 7 1 7 8
M  V30 8 1 5 9
M  V30 9 2 9 10
M  V30 10 1 10 11
M  V30 11 2 11 12
M  V30 12 1 12 13
M  V30 13 1 12 14
M  V30 14 2 14 15
M  V30 15 1 15 16
M  V30 16 2 16 17
M  V30 17 1 16 18
M  V30 18 2 18 19
M  V30 19 1 19 20
M  V30 20 2 20 21
M  V30 21 1 21 22
M  V30 22 2 22 23
M  V30 23 1 7 2
M  V30 24 1 13 9
M  V30 25 1 23 18
M  V30 26 1 17 11
M  V30 27 1 1 24
M  V30 28 1 1 25
M  V30 29 1 3 26
M  V30 30 1 4 27
M  V30 31 1 6 28
M  V30 32 1 8 29
M  V30 33 1 8 30
M  V30 34 1 13 31
M  V30 35 1 14 32
M  V30 36 1 15 33
M  V30 37 1 17 34
M  V30 38 1 19 35
M  V30 39 1 20 36
M  V30 40 1 21 37
M  V30 41 1 22 38
M  V30 42 1 23 39
M  V30 END BOND
M  V30 END CTAB
M  END
