
     RDKit          3D

  0  0  0  0  0  0  0  0  0  0999 V3000
M  V30 BEGIN CTAB
M  V30 COUNTS 76 84 0 0 0
M  V30 BEGIN ATOM
M  V30 1 N 0.843103 -3.86965 -0.442335 0
M  V30 2 C 1.36181 -2.57814 -0.318945 0
M  V30 3 C 2.77851 -2.53308 -0.377839 0
M  V30 4 C 3.44496 -1.34861 -0.27334 0
M  V30 5 C 2.75996 -0.17039 -0.108481 0
M  V30 6 C 3.46863 0.996788 -0.0078159 0
M  V30 7 C 2.81131 2.18216 0.156642 0
M  V30 8 C 1.41154 2.21239 0.223328 0
M  V30 9 C 0.716812 1.04492 0.122007 0
M  V30 10 C -0.669368 1.07079 0.187751 0
M  V30 11 C -1.32269 2.24697 0.351116 0
M  V30 12 N -0.807258 3.54245 0.475053 0
M  V30 13 C -2.74089 2.21408 0.411749 0
M  V30 14 C -3.42402 1.04611 0.30999 0
M  V30 15 C -4.80461 0.992352 0.366576 0
M  V30 16 O -5.39706 2.10407 0.51987 0
M  V30 17 N -5.49264 -0.156362 0.267244 0
M  V30 18 C -6.92729 -0.0675891 0.341624 0
M  V30 19 C -7.5626 0.353459 -0.964282 0
M  V30 20 C -9.00635 0.659122 -0.690558 0
M  V30 21 C -9.39705 0.489065 0.747265 0
M  V30 22 C -9.00529 -0.826739 1.33619 0
M  V30 23 C -7.62735 -1.28358 0.833094 0
M  V30 24 C -4.80973 -1.2703 0.109576 0
M  V30 25 O -5.44518 -2.35116 0.0154236 0
M  V30 26 C -3.4316 -1.32686 0.0405785 0
M  V30 27 C -2.73266 -0.140186 0.143749 0
M  V30 28 C -1.35795 -0.154796 0.0796869 0
M  V30 29 C -0.686061 -1.37914 -0.0899791 0
M  V30 30 C -1.3749 -2.54735 -0.191505 0
M  V30 31 C -2.77971 -2.51471 -0.124033 0
M  V30 32 C 0.701135 -1.40508 -0.155769 0
M  V30 33 C 1.39451 -0.179088 -0.0477655 0
M  V30 34 C 4.86045 0.961778 -0.0745818 0
M  V30 35 O 5.44449 2.07568 0.0256399 0
M  V30 36 N 5.53415 -0.166324 -0.233172 0
M  V30 37 C 6.97507 -0.197064 -0.301212 0
M  V30 38 C 7.48193 0.456786 -1.58968 0
M  V30 39 C 8.96609 0.165494 -1.66177 0
M  V30 40 C 9.68399 0.648116 -0.418821 0
M  V30 41 C 8.72725 1.38664 0.472109 0
M  V30 42 C 7.63331 0.417127 0.911483 0
M  V30 43 C 4.82377 -1.30024 -0.330036 0
M  V30 44 O 5.44079 -2.38777 -0.481507 0
M  V30 45 H 0.595367 -4.36448 -1.3347 0
M  V30 46 H 0.726268 -4.44277 0.445098 0
M  V30 47 H 3.29003 -3.46538 -0.506889 0
M  V30 48 H 3.34932 3.10277 0.236969 0
M  V30 49 H 1.04456 3.16212 0.347848 0
M  V30 50 H -0.685823 4.13025 -0.403764 0
M  V30 51 H -0.562569 4.03022 1.37951 0
M  V30 52 H -3.27142 3.13799 0.54084 0
M  V30 53 H -7.16547 0.754958 1.07286 0
M  V30 54 H -7.02156 1.18477 -1.44815 0
M  V30 55 H -7.52426 -0.521852 -1.64771 0
M  V30 56 H -9.14698 1.75408 -0.929828 0
M  V30 57 H -9.71242 0.124913 -1.33865 0
M  V30 58 H -10.5256 0.5318 0.774056 0
M  V30 59 H -9.08662 1.36488 1.38607 0
M  V30 60 H -9.78168 -1.58337 1.12119 0
M  V30 61 H -8.99382 -0.717335 2.45167 0
M  V30 62 H -7.87679 -1.98633 -0.0157021 0
M  V30 63 H -7.16184 -1.79013 1.68519 0
M  V30 64 H -1.01108 -3.5012 -0.316425 0
M  V30 65 H -3.35493 -3.41351 -0.200063 0
M  V30 66 H 7.30878 -1.25348 -0.345059 0
M  V30 67 H 7.24281 1.52228 -1.63705 0
M  V30 68 H 7.00294 -0.104098 -2.42448 0
M  V30 69 H 9.45176 0.597139 -2.54837 0
M  V30 70 H 9.0582 -0.959474 -1.67607 0
M  V30 71 H 10.1239 -0.187134 0.16318 0
M  V30 72 H 10.5333 1.31959 -0.693466 0
M  V30 73 H 8.33746 2.24817 -0.0739405 0
M  V30 74 H 9.26845 1.68112 1.39838 0
M  V30 75 H 8.17301 -0.356844 1.53287 0
M  V30 76 H 6.91541 0.888202 1.60654 0
M  V30 END ATOM
M  V30 BEGIN BOND
M  V30 1 1 1 2
M  V30 2 2 2 3
M  V30 3 1 3 4
M  V30 4 2 4 5
M  V30 5 1 5 6
M  V30 6 2 6 7
M  V30 7 1 7 8
M  V30 8 2 8 9
M  V30 9 1 9 10
M  V30 10 2 10 11
M  V30 11 1 11 12
M  V30 12 1 11 13
M  V30 13 2 13 14
M  V30 14 1 14 15
M  V30 15 2 15 16
M  V30 16 1 15 17
M  V30 17 1 17 18
M  V30 18 1 18 19
M  V30 19 1 19 20
M  V30 20 1 20 21
M  V30 21 1 21 22
M  V30 22 1 22 23
M  V30 23 1 17 24
M  V30 24 2 24 25
M  V30 25 1 24 26
M  V30 26 2 26 27
M  V30 27 1 27 28
M  V30 28 2 28 29
M  V30 29 1 29 30
M  V30 30 2 30 31
M  V30 31 1 29 32
M  V30 32 2 32 33
M  V30 33 1 6 34
M  V30 34 2 34 35
M  V30 35 1 34 36
M  V30 36 1 36 37
M  V30 37 1 37 38
M  V30 38 1 38 39
M  V30 39 1 39 40
M  V30 40 1 40 41
M  V30 41 1 41 42
M  V30 42 1 36 43
M  V30 43 2 43 44
M  V30 44 1 32 2
M  V30 45 1 42 37
M  V30 46 1 43 4
M  V30 47 1 33 5
M  V30 48 1 33 9
M  V30 49 1 28 10
M  V30 50 1 27 14
M  V30 51 1 23 18
M  V30 52 1 31 26
M  V30 53 1 1 45
M  V30 54 1 1 46
M  V30 55 1 3 47
M  V30 56 1 7 48
M  V30 57 1 8 49
M  V30 58 1 12 50
M  V30 59 1 12 51
M  V30 60 1 13 52
M  V30 61 1 18 53
M  V30 62 1 19 54
M  V30 63 1 19 55
M  V30 64 1 20 56
M  V30 65 1 20 57
M  V30 66 1 21 58
M  V30 67 1 21 59
M  V30 68 1 22 60
M  V30 69 1 22 61
M  V30 70 1 23 62
M  V30 71 1 23 63
M  V30 72 1 30 64
M  V30 73 1 31 65
M  V30 74 1 37 66
M  V30 75 1 38 67
M  V30 76 1 38 68
M  V30 77 1 39 69
M  V30 78 1 39 70
M  V30 79 1 40 71
M  V30 80 1 40 72
M  V30 81 1 41 73
M  V30 82 1 41 74
M  V30 83 1 42 75
M  V30 84 1 42 76
M  V30 END BOND
M  V30 END CTAB
M  END
