
     RDKit          3D

  0  0  0  0  0  0  0  0  0  0999 V3000
M  V30 BEGIN CTAB
M  V30 COUNTS 39 40 0 0 0
M  V30 BEGIN ATOM
M  V30 1 N -5.61949 1.08573 -1.54504 0
M  V30 2 C -4.34707 1.04797 -0.952509 0
M  V30 3 C -3.52187 2.15628 -1.00922 0
M  V30 4 C -2.27218 2.11498 -0.426148 0
M  V30 5 C -1.82527 0.96651 0.223219 0
M  V30 6 C -2.64612 -0.12298 0.277138 0
M  V30 7 C -3.92452 -0.0841806 -0.319118 0
M  V30 8 S -2.1971 -1.54391 1.1187 0
M  V30 9 O -0.958095 -2.22046 0.717083 0
M  V30 10 O -2.08234 -1.21897 2.60473 0
M  V30 11 O -3.4391 -2.7101 1.01232 0
M  V30 12 C -0.468827 0.936674 0.779028 0
M  V30 13 C 0.526781 0.36301 -0.201025 0
M  V30 14 O 0.10508 0.0869129 -1.32813 0
M  V30 15 C 1.89285 0.159703 0.190435 0
M  V30 16 C 2.28263 0.614825 1.46343 0
M  V30 17 C 3.56415 0.471322 1.8994 0
M  V30 18 C 4.54691 -0.121438 1.13022 0
M  V30 19 C 4.17826 -0.563185 -0.0990957 0
M  V30 20 C 2.86066 -0.425611 -0.569735 0
M  V30 21 S 2.47866 -1.0386 -2.15651 0
M  V30 22 O 3.73204 -1.73129 -2.6987 0
M  V30 23 O 2.15421 0.00631852 -3.1564 0
M  V30 24 O 1.31243 -2.23901 -2.13 0
M  V30 25 N 5.88455 -0.256413 1.62132 0
M  V30 26 H -6.31975 0.31513 -1.37134 0
M  V30 27 H -5.89242 1.85968 -2.15531 0
M  V30 28 H -3.86692 3.05793 -1.51634 0
M  V30 29 H -1.63892 2.9876 -0.478446 0
M  V30 30 H -4.5726 -0.945892 -0.27837 0
M  V30 31 H -3.75503 -2.77732 0.0950808 0
M  V30 32 H -0.160049 1.99177 0.99547 0
M  V30 33 H -0.402337 0.410312 1.75204 0
M  V30 34 H 1.52529 1.08424 2.08466 0
M  V30 35 H 3.87529 0.824951 2.89243 0
M  V30 36 H 4.90742 -1.03123 -0.734229 0
M  V30 37 H 1.36196 -2.81653 -1.3528 0
M  V30 38 H 6.12991 -1.19752 2.02693 0
M  V30 39 H 6.59091 0.502776 1.59483 0
M  V30 END ATOM
M  V30 BEGIN BOND
M  V30 1 1 1 2
M  V30 2 2 2 3
M  V30 3 1 3 4
M  V30 4 2 4 5
M  V30 5 1 5 6
M  V30 6 2 6 7
M  V30 7 1 6 8
M  V30 8 2 8 9
M  V30 9 2 8 10
M  V30 10 1 8 11
M  V30 11 1 5 12
M  V30 12 1 12 13
M  V30 13 2 13 14
M  V30 14 1 13 15
M  V30 15 2 15 16
M  V30 16 1 16 17
M  V30 17 2 17 18
M  V30 18 1 18 19
M  V30 19 2 19 20
M  V30 20 1 20 21
M  V30 21 2 21 22
M  V30 22 2 21 23
M  V30 23 1 21 24
M  V30 24 1 18 25
M  V30 25 1 7 2
M  V30 26 1 20 15
M  V30 27 1 1 26
M  V30 28 1 1 27
M  V30 29 1 3 28
M  V30 30 1 4 29
M  V30 31 1 7 30
M  V30 32 1 11 31
M  V30 33 1 12 32
M  V30 34 1 12 33
M  V30 35 1 16 34
M  V30 36 1 17 35
M  V30 37 1 19 36
M  V30 38 1 24 37
M  V30 39 1 25 38
M  V30 40 1 25 39
M  V30 END BOND
M  V30 END CTAB
M  END
