
     RDKit          3D

  0  0  0  0  0  0  0  0  0  0999 V3000
M  V30 BEGIN CTAB
M  V30 COUNTS 34 36 0 0 0
M  V30 BEGIN ATOM
M  V30 1 N 5.39767 1.64789 0.592711 0
M  V30 2 C 4.33172 1.1921 0.491397 0
M  V30 3 C 3.0077 0.620701 0.381922 0
M  V30 4 C 1.90705 1.45088 0.345945 0
M  V30 5 N 2.13444 2.84304 0.419297 0
M  V30 6 N 0.675512 0.948504 0.245343 0
M  V30 7 C 0.412302 -0.379468 0.172378 0
M  V30 8 C 1.51099 -1.21684 0.207921 0
M  V30 9 C 2.80055 -0.72485 0.311828 0
M  V30 10 N 3.90908 -1.59928 0.346456 0
M  V30 11 C 1.06821 -2.61396 0.120429 0
M  V30 12 C -0.401565 -2.50203 0.0304682 0
M  V30 13 O -1.25082 -3.44232 -0.0638429 0
M  V30 14 N -0.772815 -1.13658 0.0640712 0
M  V30 15 C -2.12274 -0.56817 0.0010097 0
M  V30 16 C -2.2546 0.320513 -1.1611 0
M  V30 17 C -3.32983 1.32964 -0.93569 0
M  V30 18 S -3.77612 1.19695 0.798885 0
M  V30 19 O -3.74269 2.5061 1.48462 0
M  V30 20 O -5.06665 0.457335 0.969543 0
M  V30 21 C -2.38596 0.155713 1.27068 0
M  V30 22 H 2.27361 3.3775 -0.454554 0
M  V30 23 H 2.1618 3.3233 1.33272 0
M  V30 24 H 4.2852 -1.94823 1.24462 0
M  V30 25 H 4.35167 -1.89533 -0.539744 0
M  V30 26 H 1.38857 -3.2109 1.01151 0
M  V30 27 H 1.48681 -3.06568 -0.802909 0
M  V30 28 H -2.85333 -1.4119 -0.0816413 0
M  V30 29 H -2.57665 -0.304027 -2.04791 0
M  V30 30 H -1.29039 0.791647 -1.50794 0
M  V30 31 H -2.8525 2.34761 -1.0335 0
M  V30 32 H -4.1904 1.26084 -1.59282 0
M  V30 33 H -2.68589 -0.567592 2.05711 0
M  V30 34 H -1.54995 0.816889 1.58657 0
M  V30 END ATOM
M  V30 BEGIN BOND
M  V30 1 3 1 2
M  V30 2 1 2 3
M  V30 3 2 3 4
M  V30 4 1 4 5
M  V30 5 1 4 6
M  V30 6 2 6 7
M  V30 7 1 7 8
M  V30 8 2 8 9
M  V30 9 1 9 10
M  V30 10 1 8 11
M  V30 11 1 11 12
M  V30 12 2 12 13
M  V30 13 1 12 14
M  V30 14 1 14 15
M  V30 15 1 15 16
M  V30 16 1 16 17
M  V30 17 1 17 18
M  V30 18 2 18 19
M  V30 19 2 18 20
M  V30 20 1 18 21
M  V30 21 1 9 3
M  V30 22 1 21 15
M  V30 23 1 14 7
M  V30 24 1 5 22
M  V30 25 1 5 23
M  V30 26 1 10 24
M  V30 27 1 10 25
M  V30 28 1 11 26
M  V30 29 1 11 27
M  V30 30 1 15 28
M  V30 31 1 16 29
M  V30 32 1 16 30
M  V30 33 1 17 31
M  V30 34 1 17 32
M  V30 35 1 21 33
M  V30 36 1 21 34
M  V30 END BOND
M  V30 END CTAB
M  END
