
     RDKit          3D

  0  0  0  0  0  0  0  0  0  0999 V3000
M  V30 BEGIN CTAB
M  V30 COUNTS 42 43 0 0 0
M  V30 BEGIN ATOM
M  V30 1 C -2.58249 -0.118296 2.12358 0
M  V30 2 C -2.9653 0.158561 0.673251 0
M  V30 3 C -2.87404 1.67658 0.462978 0
M  V30 4 N -4.33107 -0.198845 0.506861 0
M  V30 5 C -4.81222 -1.03415 -0.325138 0
M  V30 6 N -6.20761 -1.25016 -0.332606 0
M  V30 7 N -3.90555 -1.69794 -1.19627 0
M  V30 8 C -2.62739 -1.4637 -1.14917 0
M  V30 9 N -1.83467 -2.19739 -2.07778 0
M  V30 10 N -2.06839 -0.535423 -0.227727 0
M  V30 11 O -0.745469 -0.348128 -0.233376 0
M  V30 12 C -0.30362 0.440514 -1.28675 0
M  V30 13 C 1.19945 0.619118 -1.24675 0
M  V30 14 C 1.57552 1.27764 0.0388485 0
M  V30 15 O 2.89332 1.52252 0.28166 0
M  V30 16 C 3.95482 0.691395 0.432667 0
M  V30 17 C 5.2481 1.18629 0.66183 0
M  V30 18 Cl 5.48134 2.9286 0.749542 0
M  V30 19 C 6.34428 0.379988 0.821674 0
M  V30 20 C 6.17983 -0.981261 0.756109 0
M  V30 21 Cl 7.54494 -2.07711 0.952131 0
M  V30 22 C 4.94971 -1.51936 0.536616 0
M  V30 23 C 3.85611 -0.669528 0.378786 0
M  V30 24 H -1.49526 -0.175308 2.26215 0
M  V30 25 H -3.02831 0.700474 2.72449 0
M  V30 26 H -3.09881 -1.05492 2.4631 0
M  V30 27 H -3.6852 2.19113 1.01125 0
M  V30 28 H -3.05934 1.90248 -0.61801 0
M  V30 29 H -1.92281 2.08497 0.8358 0
M  V30 30 H -6.68612 -1.40354 -1.23457 0
M  V30 31 H -6.75929 -1.25839 0.539525 0
M  V30 32 H -1.22444 -2.96178 -1.74917 0
M  V30 33 H -1.90889 -1.92009 -3.08135 0
M  V30 34 H -0.771329 1.4459 -1.1694 0
M  V30 35 H -0.627293 0.080218 -2.28306 0
M  V30 36 H 1.41399 1.39326 -2.05595 0
M  V30 37 H 1.76876 -0.250332 -1.54565 0
M  V30 38 H 1.04504 2.28448 0.0352631 0
M  V30 39 H 1.05247 0.731827 0.865119 0
M  V30 40 H 7.34042 0.746208 0.997762 0
M  V30 41 H 4.7741 -2.57235 0.477818 0
M  V30 42 H 2.9027 -1.15252 0.22393 0
M  V30 END ATOM
M  V30 BEGIN BOND
M  V30 1 1 1 2
M  V30 2 1 2 3
M  V30 3 1 2 4
M  V30 4 2 4 5
M  V30 5 1 5 6
M  V30 6 1 5 7
M  V30 7 2 7 8
M  V30 8 1 8 9
M  V30 9 1 8 10
M  V30 10 1 10 11
M  V30 11 1 11 12
M  V30 12 1 12 13
M  V30 13 1 13 14
M  V30 14 1 14 15
M  V30 15 1 15 16
M  V30 16 2 16 17
M  V30 17 1 17 18
M  V30 18 1 17 19
M  V30 19 2 19 20
M  V30 20 1 20 21
M  V30 21 1 20 22
M  V30 22 2 22 23
M  V30 23 1 10 2
M  V30 24 1 23 16
M  V30 25 1 1 24
M  V30 26 1 1 25
M  V30 27 1 1 26
M  V30 28 1 3 27
M  V30 29 1 3 28
M  V30 30 1 3 29
M  V30 31 1 6 30
M  V30 32 1 6 31
M  V30 33 1 9 32
M  V30 34 1 9 33
M  V30 35 1 12 34
M  V30 36 1 12 35
M  V30 37 1 13 36
M  V30 38 1 13 37
M  V30 39 1 14 38
M  V30 40 1 14 39
M  V30 41 1 19 40
M  V30 42 1 22 41
M  V30 43 1 23 42
M  V30 END BOND
M  V30 END CTAB
M  END
