
     RDKit          3D

  0  0  0  0  0  0  0  0  0  0999 V3000
M  V30 BEGIN CTAB
M  V30 COUNTS 39 41 0 0 0
M  V30 BEGIN ATOM
M  V30 1 N 1.68263 -2.73367 -2.92413 0
M  V30 2 C 0.843237 -2.15325 -2.31992 0
M  V30 3 C -0.231915 -1.44296 -1.61118 0
M  V30 4 C -1.38491 -2.08238 -1.48758 0
M  V30 5 N -1.42755 -3.41733 -2.05059 0
M  V30 6 O -2.5246 -1.56989 -0.896131 0
M  V30 7 C -2.39697 -0.244763 -0.411905 0
M  V30 8 C -1.24715 0.470863 -0.505722 0
M  V30 9 C -0.0205892 -0.148538 -0.965706 0
M  V30 10 C 1.02628 -0.348391 0.102756 0
M  V30 11 C 1.22313 0.720285 1.09851 0
M  V30 12 C 2.26931 0.148059 2.10071 0
M  V30 13 C 3.63801 0.209171 1.45766 0
M  V30 14 C 3.44633 0.431411 -0.00288902 0
M  V30 15 C 2.37204 -0.447463 -0.620229 0
M  V30 16 C -1.26019 1.79211 -0.024179 0
M  V30 17 C -2.394 2.3014 0.518474 0
M  V30 18 C -3.57504 1.60141 0.637493 0
M  V30 19 C -3.55683 0.314855 0.160594 0
M  V30 20 N -4.74515 2.15589 1.2124 0
M  V30 21 H -1.15742 -4.19093 -1.4295 0
M  V30 22 H -1.71287 -3.58009 -3.01925 0
M  V30 23 H 0.439575 0.532752 -1.7394 0
M  V30 24 H 0.875619 -1.30787 0.61151 0
M  V30 25 H 1.63457 1.68029 0.741966 0
M  V30 26 H 0.372123 0.958244 1.76567 0
M  V30 27 H 2.20831 0.671526 3.06413 0
M  V30 28 H 2.00009 -0.917964 2.21627 0
M  V30 29 H 4.17483 1.09778 1.86751 0
M  V30 30 H 4.24244 -0.713927 1.67432 0
M  V30 31 H 3.33606 1.50263 -0.231119 0
M  V30 32 H 4.3922 0.138653 -0.562324 0
M  V30 33 H 2.28123 -0.0980422 -1.6595 0
M  V30 34 H 2.76876 -1.46627 -0.60083 0
M  V30 35 H -0.344335 2.39774 -0.127726 0
M  V30 36 H -2.40976 3.32299 0.893934 0
M  V30 37 H -4.45599 -0.317238 0.214115 0
M  V30 38 H -4.8271 2.29933 2.23424 0
M  V30 39 H -5.55441 2.4336 0.617562 0
M  V30 END ATOM
M  V30 BEGIN BOND
M  V30 1 3 1 2
M  V30 2 1 2 3
M  V30 3 2 3 4
M  V30 4 1 4 5
M  V30 5 1 4 6
M  V30 6 1 6 7
M  V30 7 2 7 8
M  V30 8 1 8 9
M  V30 9 1 9 10
M  V30 10 1 10 11
M  V30 11 1 11 12
M  V30 12 1 12 13
M  V30 13 1 13 14
M  V30 14 1 14 15
M  V30 15 1 8 16
M  V30 16 2 16 17
M  V30 17 1 17 18
M  V30 18 2 18 19
M  V30 19 1 18 20
M  V30 20 1 9 3
M  V30 21 1 15 10
M  V30 22 1 19 7
M  V30 23 1 5 21
M  V30 24 1 5 22
M  V30 25 1 9 23
M  V30 26 1 10 24
M  V30 27 1 11 25
M  V30 28 1 11 26
M  V30 29 1 12 27
M  V30 30 1 12 28
M  V30 31 1 13 29
M  V30 32 1 13 30
M  V30 33 1 14 31
M  V30 34 1 14 32
M  V30 35 1 15 33
M  V30 36 1 15 34
M  V30 37 1 16 35
M  V30 38 1 17 36
M  V30 39 1 19 37
M  V30 40 1 20 38
M  V30 41 1 20 39
M  V30 END BOND
M  V30 END CTAB
M  END
