
     RDKit          3D

  0  0  0  0  0  0  0  0  0  0999 V3000
M  V30 BEGIN CTAB
M  V30 COUNTS 43 44 0 0 0
M  V30 BEGIN ATOM
M  V30 1 C 7.42353 0.738872 1.25075 0
M  V30 2 C 6.10616 0.910844 0.544937 0
M  V30 3 O 6.02369 1.94076 -0.157575 0
M  V30 4 N 5.06402 0.00595836 0.659028 0
M  V30 5 C 3.82099 0.100852 0.0443907 0
M  V30 6 C 3.06663 -1.04645 -0.0772759 0
M  V30 7 C 1.80462 -1.09284 -0.654858 0
M  V30 8 N 1.12181 -2.34241 -0.732388 0
M  V30 9 C 1.24915 0.0721786 -1.14572 0
M  V30 10 C -0.0429964 0.0469692 -1.7689 0
M  V30 11 C -1.28088 0.0129255 -1.03947 0
M  V30 12 C -1.44642 0.178952 0.278281 0
M  V30 13 N -0.365293 0.426616 1.15639 0
M  V30 14 C -2.73098 0.128018 0.824411 0
M  V30 15 C -3.85931 -0.0931174 0.020171 0
M  V30 16 N -5.1023 -0.137887 0.679881 0
M  V30 17 C -6.37554 -0.0548951 0.102398 0
M  V30 18 C -7.60976 -0.131816 0.998489 0
M  V30 19 O -6.64921 0.0783469 -1.1015 0
M  V30 20 C -3.68425 -0.262607 -1.33273 0
M  V30 21 C -2.42106 -0.211347 -1.8565 0
M  V30 22 C 2.00199 1.22188 -1.02554 0
M  V30 23 C 3.26253 1.25361 -0.445113 0
M  V30 24 H 8.08235 0.160069 0.5839 0
M  V30 25 H 7.31576 0.280726 2.24169 0
M  V30 26 H 7.90935 1.745 1.40482 0
M  V30 27 H 5.25032 -0.843441 1.29022 0
M  V30 28 H 3.4731 -1.99133 0.303145 0
M  V30 29 H 0.73527 -2.75347 0.121322 0
M  V30 30 H 1.03657 -2.80119 -1.64811 0
M  V30 31 H -0.115282 -0.782863 -2.56267 0
M  V30 32 H -0.0925799 0.966573 -2.44731 0
M  V30 33 H 0.124436 -0.282388 1.74089 0
M  V30 34 H -0.0351162 1.41353 1.24251 0
M  V30 35 H -2.81794 0.26664 1.88348 0
M  V30 36 H -5.08509 -0.254109 1.73794 0
M  V30 37 H -7.3085 -0.546609 1.98638 0
M  V30 38 H -8.3585 -0.754934 0.511481 0
M  V30 39 H -7.99665 0.885268 1.20479 0
M  V30 40 H -4.55268 -0.441842 -1.97714 0
M  V30 41 H -2.33064 -0.349999 -2.92501 0
M  V30 42 H 1.58897 2.14895 -1.40284 0
M  V30 43 H 3.79972 2.192 -0.363279 0
M  V30 END ATOM
M  V30 BEGIN BOND
M  V30 1 1 1 2
M  V30 2 2 2 3
M  V30 3 1 2 4
M  V30 4 1 4 5
M  V30 5 2 5 6
M  V30 6 1 6 7
M  V30 7 1 7 8
M  V30 8 2 7 9
M  V30 9 1 9 10
M  V30 10 1 10 11
M  V30 11 2 11 12
M  V30 12 1 12 13
M  V30 13 1 12 14
M  V30 14 2 14 15
M  V30 15 1 15 16
M  V30 16 1 16 17
M  V30 17 1 17 18
M  V30 18 2 17 19
M  V30 19 1 15 20
M  V30 20 2 20 21
M  V30 21 1 9 22
M  V30 22 2 22 23
M  V30 23 1 23 5
M  V30 24 1 21 11
M  V30 25 1 1 24
M  V30 26 1 1 25
M  V30 27 1 1 26
M  V30 28 1 4 27
M  V30 29 1 6 28
M  V30 30 1 8 29
M  V30 31 1 8 30
M  V30 32 1 10 31
M  V30 33 1 10 32
M  V30 34 1 13 33
M  V30 35 1 13 34
M  V30 36 1 14 35
M  V30 37 1 16 36
M  V30 38 1 18 37
M  V30 39 1 18 38
M  V30 40 1 18 39
M  V30 41 1 20 40
M  V30 42 1 21 41
M  V30 43 1 22 42
M  V30 44 1 23 43
M  V30 END BOND
M  V30 END CTAB
M  END
