
     RDKit          3D

  0  0  0  0  0  0  0  0  0  0999 V3000
M  V30 BEGIN CTAB
M  V30 COUNTS 13 13 0 0 0
M  V30 BEGIN ATOM
M  V30 1 N 1.86882 0.289735 -0.0451215 0
M  V30 2 C 0.502404 0.0547091 -0.44781 0
M  V30 3 C -0.158406 -1.21731 -0.209432 0
M  V30 4 C -0.54748 -0.039703 0.57895 0
M  V30 5 N -1.76897 0.699945 0.301234 0
M  V30 6 H 2.08459 0.0331323 0.91908 0
M  V30 7 H 2.2513 1.1746 -0.387577 0
M  V30 8 H 0.250607 0.569686 -1.41604 0
M  V30 9 H -0.941132 -1.6124 -0.900918 0
M  V30 10 H 0.407283 -2.03837 0.283679 0
M  V30 11 H -0.29796 -0.0722241 1.65816 0
M  V30 12 H -1.50411 1.72821 0.30206 0
M  V30 13 H -2.14695 0.429987 -0.636264 0
M  V30 END ATOM
M  V30 BEGIN BOND
M  V30 1 1 1 2
M  V30 2 1 2 3
M  V30 3 1 3 4
M  V30 4 1 4 5
M  V30 5 1 4 2
M  V30 6 1 1 6
M  V30 7 1 1 7
M  V30 8 1 2 8
M  V30 9 1 3 9
M  V30 10 1 3 10
M  V30 11 1 4 11
M  V30 12 1 5 12
M  V30 13 1 5 13
M  V30 END BOND
M  V30 END CTAB
M  END
