
     RDKit          3D

  0  0  0  0  0  0  0  0  0  0999 V3000
M  V30 BEGIN CTAB
M  V30 COUNTS 32 32 0 0 0
M  V30 BEGIN ATOM
M  V30 1 C -2.70765 -1.53355 0.238885 0
M  V30 2 C -2.13413 -0.144701 -0.0304758 0
M  V30 3 C -2.90044 0.835646 0.79963 0
M  V30 4 C -0.676738 -0.199329 0.228855 0
M  V30 5 C -0.10636 -1.25135 -0.738835 0
M  V30 6 C 1.27714 -1.50825 -0.290132 0
M  V30 7 C 1.98675 -0.565835 0.290217 0
M  V30 8 C 3.37052 -0.907872 0.711277 0
M  V30 9 C 1.50728 0.809116 0.55392 0
M  V30 10 N 2.42618 1.73826 -0.0516763 0
M  V30 11 C 0.102231 1.02629 -0.0124023 0
M  V30 12 N -0.418389 2.21902 0.604484 0
M  V30 13 H -2.89965 -2.07637 -0.719325 0
M  V30 14 H -1.99781 -2.16987 0.805483 0
M  V30 15 H -3.62666 -1.47502 0.870317 0
M  V30 16 H -2.3002 0.0757636 -1.09911 0
M  V30 17 H -3.04744 1.81583 0.285573 0
M  V30 18 H -3.92688 0.43351 0.948775 0
M  V30 19 H -2.47967 0.960419 1.82504 0
M  V30 20 H -0.459929 -0.574096 1.25231 0
M  V30 21 H -0.0646382 -0.736886 -1.74171 0
M  V30 22 H -0.739481 -2.13712 -0.800577 0
M  V30 23 H 1.70728 -2.4778 -0.440655 0
M  V30 24 H 3.29147 -1.89118 1.26218 0
M  V30 25 H 3.98261 -1.13073 -0.186127 0
M  V30 26 H 3.81594 -0.128563 1.36144 0
M  V30 27 H 1.47352 0.947697 1.65396 0
M  V30 28 H 2.48943 1.51041 -1.08148 0
M  V30 29 H 3.34481 1.65305 0.43422 0
M  V30 30 H 0.249308 1.22673 -1.10127 0
M  V30 31 H -0.889295 2.8621 -0.0784302 0
M  V30 32 H 0.350917 2.79468 1.03219 0
M  V30 END ATOM
M  V30 BEGIN BOND
M  V30 1 1 1 2
M  V30 2 1 2 3
M  V30 3 1 2 4
M  V30 4 1 4 5
M  V30 5 1 5 6
M  V30 6 2 6 7
M  V30 7 1 7 8
M  V30 8 1 7 9
M  V30 9 1 9 10
M  V30 10 1 9 11
M  V30 11 1 11 12
M  V30 12 1 11 4
M  V30 13 1 1 13
M  V30 14 1 1 14
M  V30 15 1 1 15
M  V30 16 1 2 16
M  V30 17 1 3 17
M  V30 18 1 3 18
M  V30 19 1 3 19
M  V30 20 1 4 20
M  V30 21 1 5 21
M  V30 22 1 5 22
M  V30 23 1 6 23
M  V30 24 1 8 24
M  V30 25 1 8 25
M  V30 26 1 8 26
M  V30 27 1 9 27
M  V30 28 1 10 28
M  V30 29 1 10 29
M  V30 30 1 11 30
M  V30 31 1 12 31
M  V30 32 1 12 32
M  V30 END BOND
M  V30 END CTAB
M  END
