
     RDKit          3D

  0  0  0  0  0  0  0  0  0  0999 V3000
M  V30 BEGIN CTAB
M  V30 COUNTS 52 54 0 0 0
M  V30 BEGIN ATOM
M  V30 1 N 3.77995 -2.92367 1.81141 0
M  V30 2 C 3.98794 -1.76612 0.978217 0
M  V30 3 C 3.61956 -2.16669 -0.458746 0
M  V30 4 C 3.84005 -0.961075 -1.30404 0
M  V30 5 N 2.97084 0.158065 -0.842357 0
M  V30 6 C 1.57698 0.0585114 -1.00204 0
M  V30 7 C 0.688907 0.894771 -0.400331 0
M  V30 8 C 1.15493 1.90025 0.551399 0
M  V30 9 O 2.38299 2.0646 0.854399 0
M  V30 10 C 0.266713 2.82118 1.2591 0
M  V30 11 C 0.788143 3.7428 2.14141 0
M  V30 12 O 2.15475 3.82607 2.38418 0
M  V30 13 C -0.107615 4.59624 2.78811 0
M  V30 14 C -1.45654 4.49821 2.53442 0
M  V30 15 C -1.96457 3.56839 1.64649 0
M  V30 16 O -3.30061 3.44249 1.36967 0
M  V30 17 C -1.07276 2.71353 0.998059 0
M  V30 18 C -1.59382 1.71561 0.0482115 0
M  V30 19 O -2.83065 1.69796 -0.116426 0
M  V30 20 C -0.702967 0.821998 -0.636074 0
M  V30 21 C -1.19528 -0.112067 -1.49301 0
M  V30 22 N -2.5614 -0.225926 -1.84618 0
M  V30 23 C -3.05715 -1.40136 -2.58941 0
M  V30 24 C -2.99417 -2.57132 -1.64656 0
M  V30 25 C -3.88389 -2.30664 -0.420154 0
M  V30 26 N -3.75463 -3.48564 0.421791 0
M  V30 27 C -0.281565 -0.979382 -2.11537 0
M  V30 28 C 1.04617 -0.886266 -1.87053 0
M  V30 29 H 4.01152 -3.76693 1.22645 0
M  V30 30 H 4.42126 -2.83238 2.63533 0
M  V30 31 H 5.02638 -1.41606 0.946736 0
M  V30 32 H 3.27775 -0.948012 1.25175 0
M  V30 33 H 2.6082 -2.55339 -0.481844 0
M  V30 34 H 4.30531 -2.9665 -0.798083 0
M  V30 35 H 3.66651 -1.16343 -2.37216 0
M  V30 36 H 4.89011 -0.562005 -1.15092 0
M  V30 37 H 3.41658 0.992103 -0.447914 0
M  V30 38 H 2.57047 4.47222 3.00897 0
M  V30 39 H 0.280646 5.33097 3.48811 0
M  V30 40 H -2.15427 5.15558 3.03159 0
M  V30 41 H -3.99969 4.02538 1.80054 0
M  V30 42 H -3.27085 0.464704 -1.65312 0
M  V30 43 H -2.5391 -1.53117 -3.53463 0
M  V30 44 H -4.15112 -1.22908 -2.78805 0
M  V30 45 H -3.36453 -3.49603 -2.1356 0
M  V30 46 H -2.00373 -2.78989 -1.22143 0
M  V30 47 H -4.92689 -2.13409 -0.702516 0
M  V30 48 H -3.48461 -1.42096 0.121293 0
M  V30 49 H -2.76329 -3.66952 0.634371 0
M  V30 50 H -4.35443 -3.42227 1.27623 0
M  V30 51 H -0.700508 -1.71984 -2.81193 0
M  V30 52 H 1.73798 -1.55393 -2.36883 0
M  V30 END ATOM
M  V30 BEGIN BOND
M  V30 1 1 1 2
M  V30 2 1 2 3
M  V30 3 1 3 4
M  V30 4 1 4 5
M  V30 5 1 5 6
M  V30 6 2 6 7
M  V30 7 1 7 8
M  V30 8 2 8 9
M  V30 9 1 8 10
M  V30 10 2 10 11
M  V30 11 1 11 12
M  V30 12 1 11 13
M  V30 13 2 13 14
M  V30 14 1 14 15
M  V30 15 1 15 16
M  V30 16 2 15 17
M  V30 17 1 17 18
M  V30 18 2 18 19
M  V30 19 1 18 20
M  V30 20 2 20 21
M  V30 21 1 21 22
M  V30 22 1 22 23
M  V30 23 1 23 24
M  V30 24 1 24 25
M  V30 25 1 25 26
M  V30 26 1 21 27
M  V30 27 2 27 28
M  V30 28 1 28 6
M  V30 29 1 20 7
M  V30 30 1 17 10
M  V30 31 1 1 29
M  V30 32 1 1 30
M  V30 33 1 2 31
M  V30 34 1 2 32
M  V30 35 1 3 33
M  V30 36 1 3 34
M  V30 37 1 4 35
M  V30 38 1 4 36
M  V30 39 1 5 37
M  V30 40 1 12 38
M  V30 41 1 13 39
M  V30 42 1 14 40
M  V30 43 1 16 41
M  V30 44 1 22 42
M  V30 45 1 23 43
M  V30 46 1 23 44
M  V30 47 1 24 45
M  V30 48 1 24 46
M  V30 49 1 25 47
M  V30 50 1 25 48
M  V30 51 1 26 49
M  V30 52 1 26 50
M  V30 53 1 27 51
M  V30 54 1 28 52
M  V30 END BOND
M  V30 END CTAB
M  END
