
     RDKit          3D

  0  0  0  0  0  0  0  0  0  0999 V3000
M  V30 BEGIN CTAB
M  V30 COUNTS 38 38 0 0 0
M  V30 BEGIN ATOM
M  V30 1 C -3.49518 1.16856 -2.48331 0
M  V30 2 C -3.43597 0.36032 -1.20576 0
M  V30 3 C -2.03555 -0.159278 -1.04262 0
M  V30 4 C -1.85997 -0.98295 0.203642 0
M  V30 5 C -0.448936 -1.43638 0.25468 0
M  V30 6 O -0.228036 -2.67227 0.223668 0
M  V30 7 N 0.642827 -0.531517 0.336214 0
M  V30 8 C 1.96971 -1.03975 0.381469 0
M  V30 9 C 3.04361 -0.0237548 0.465925 0
M  V30 10 N 4.35452 -0.642797 0.506714 0
M  V30 11 C 3.01298 1.0297 -0.634566 0
M  V30 12 C 2.93727 2.09395 0.429436 0
M  V30 13 C 2.91746 1.04205 1.49855 0
M  V30 14 N -2.74459 -2.11391 0.124388 0
M  V30 15 C -2.2408 -0.187205 1.43363 0
M  V30 16 H -2.4942 1.22484 -2.9739 0
M  V30 17 H -3.78354 2.2361 -2.28759 0
M  V30 18 H -4.2336 0.689897 -3.1469 0
M  V30 19 H -3.75924 1.0146 -0.383497 0
M  V30 20 H -4.12678 -0.51439 -1.2379 0
M  V30 21 H -1.29457 0.660905 -1.12 0
M  V30 22 H -1.83664 -0.83212 -1.90848 0
M  V30 23 H 0.411158 0.485126 0.359381 0
M  V30 24 H 2.07108 -1.7434 1.21948 0
M  V30 25 H 2.1472 -1.64733 -0.548869 0
M  V30 26 H 5.05077 -0.0540817 1.01511 0
M  V30 27 H 4.24756 -1.58999 0.915429 0
M  V30 28 H 2.07442 0.919455 -1.23626 0
M  V30 29 H 3.89895 1.04897 -1.28237 0
M  V30 30 H 1.98993 2.65927 0.411297 0
M  V30 31 H 3.8613 2.72353 0.385687 0
M  V30 32 H 3.82009 1.15541 2.15166 0
M  V30 33 H 2.01469 1.02195 2.13796 0
M  V30 34 H -2.96158 -2.42613 -0.830855 0
M  V30 35 H -2.40475 -2.89716 0.73292 0
M  V30 36 H -3.33548 -0.0577989 1.44276 0
M  V30 37 H -1.98328 -0.780929 2.33456 0
M  V30 38 H -1.76284 0.798496 1.40051 0
M  V30 END ATOM
M  V30 BEGIN BOND
M  V30 1 1 1 2
M  V30 2 1 2 3
M  V30 3 1 3 4
M  V30 4 1 4 5
M  V30 5 2 5 6
M  V30 6 1 5 7
M  V30 7 1 7 8
M  V30 8 1 8 9
M  V30 9 1 9 10
M  V30 10 1 9 11
M  V30 11 1 11 12
M  V30 12 1 12 13
M  V30 13 1 4 14
M  V30 14 1 4 15
M  V30 15 1 13 9
M  V30 16 1 1 16
M  V30 17 1 1 17
M  V30 18 1 1 18
M  V30 19 1 2 19
M  V30 20 1 2 20
M  V30 21 1 3 21
M  V30 22 1 3 22
M  V30 23 1 7 23
M  V30 24 1 8 24
M  V30 25 1 8 25
M  V30 26 1 10 26
M  V30 27 1 10 27
M  V30 28 1 11 28
M  V30 29 1 11 29
M  V30 30 1 12 30
M  V30 31 1 12 31
M  V30 32 1 13 32
M  V30 33 1 13 33
M  V30 34 1 14 34
M  V30 35 1 14 35
M  V30 36 1 15 36
M  V30 37 1 15 37
M  V30 38 1 15 38
M  V30 END BOND
M  V30 END CTAB
M  END
