
     RDKit          3D

  0  0  0  0  0  0  0  0  0  0999 V3000
M  V30 BEGIN CTAB
M  V30 COUNTS 21 22 0 0 0
M  V30 BEGIN ATOM
M  V30 1 N -3.38459 1.68991 0.0424741 0
M  V30 2 C -2.17254 0.963502 -0.0418296 0
M  V30 3 C -2.15351 -0.34674 -0.480671 0
M  V30 4 C -0.977932 -1.0576 -0.564548 0
M  V30 5 N -0.958543 -2.4116 -1.01808 0
M  V30 6 N 0.147646 -0.423337 -0.201932 0
M  V30 7 C 0.131624 0.850722 0.225116 0
M  V30 8 N -1.00647 1.55565 0.311957 0
M  V30 9 C 1.46324 1.14919 0.501886 0
M  V30 10 C 2.24483 0.0458261 0.233664 0
M  V30 11 N 1.38901 -0.898845 -0.197816 0
M  V30 12 C 3.71492 -0.0800644 0.385794 0
M  V30 13 H -3.64647 2.40025 -0.661758 0
M  V30 14 H -4.02226 1.49985 0.833848 0
M  V30 15 H -3.07959 -0.831519 -0.76653 0
M  V30 16 H -1.81444 -2.84608 -1.38698 0
M  V30 17 H -0.0515665 -2.93332 -0.959782 0
M  V30 18 H 1.81714 2.08716 0.864665 0
M  V30 19 H 4.23124 0.897182 0.304689 0
M  V30 20 H 4.01396 -0.54497 1.33922 0
M  V30 21 H 4.1143 -0.765175 -0.417697 0
M  V30 END ATOM
M  V30 BEGIN BOND
M  V30 1 1 1 2
M  V30 2 1 2 3
M  V30 3 2 3 4
M  V30 4 1 4 5
M  V30 5 1 4 6
M  V30 6 1 6 7
M  V30 7 1 7 8
M  V30 8 2 7 9
M  V30 9 1 9 10
M  V30 10 2 10 11
M  V30 11 1 10 12
M  V30 12 2 8 2
M  V30 13 1 11 6
M  V30 14 1 1 13
M  V30 15 1 1 14
M  V30 16 1 3 15
M  V30 17 1 5 16
M  V30 18 1 5 17
M  V30 19 1 9 18
M  V30 20 1 12 19
M  V30 21 1 12 20
M  V30 22 1 12 21
M  V30 END BOND
M  V30 END CTAB
M  END
