
     RDKit          3D

  0  0  0  0  0  0  0  0  0  0999 V3000
M  V30 BEGIN CTAB
M  V30 COUNTS 15 15 0 0 0
M  V30 BEGIN ATOM
M  V30 1 N -2.87332 -0.794959 -0.197429 0
M  V30 2 C -1.57536 -0.185713 -0.10794 0
M  V30 3 N -1.4207 1.14818 -0.0913296 0
M  V30 4 C -0.199916 1.68997 -0.00728101 0
M  V30 5 C 0.93503 0.909107 0.064805 0
M  V30 6 O 2.17375 1.48854 0.150233 0
M  V30 7 C 0.738213 -0.456919 0.0452308 0
M  V30 8 N 1.86106 -1.30536 0.116169 0
M  V30 9 N -0.492756 -0.987424 -0.0394446 0
M  V30 10 H -3.59545 -0.476589 -0.861133 0
M  V30 11 H -3.09464 -1.59009 0.4329 0
M  V30 12 H -0.0393563 2.77455 0.00854031 0
M  V30 13 H 3.04269 1.01306 0.206072 0
M  V30 14 H 2.6024 -1.22929 -0.595307 0
M  V30 15 H 1.93836 -1.99706 0.875912 0
M  V30 END ATOM
M  V30 BEGIN BOND
M  V30 1 1 1 2
M  V30 2 2 2 3
M  V30 3 1 3 4
M  V30 4 2 4 5
M  V30 5 1 5 6
M  V30 6 1 5 7
M  V30 7 1 7 8
M  V30 8 2 7 9
M  V30 9 1 9 2
M  V30 10 1 1 10
M  V30 11 1 1 11
M  V30 12 1 4 12
M  V30 13 1 6 13
M  V30 14 1 8 14
M  V30 15 1 8 15
M  V30 END BOND
M  V30 END CTAB
M  END
