
     RDKit          3D

  0  0  0  0  0  0  0  0  0  0999 V3000
M  V30 BEGIN CTAB
M  V30 COUNTS 20 21 0 0 0
M  V30 BEGIN ATOM
M  V30 1 N 3.57996 -1.08664 0.0310851 0
M  V30 2 C 2.2371 -0.626527 0.0267577 0
M  V30 3 N 1.18023 -1.44751 -0.108745 0
M  V30 4 C -0.101728 -0.989861 -0.110834 0
M  V30 5 C -0.358215 0.359824 0.0292111 0
M  V30 6 C 0.733461 1.18941 0.167117 0
M  V30 7 N 0.52506 2.58341 0.314098 0
M  V30 8 N 1.99855 0.688689 0.163696 0
M  V30 9 C -1.66479 0.809489 0.0252074 0
M  V30 10 Cl -1.99231 2.49242 0.199522 0
M  V30 11 C -2.73929 -0.0617078 -0.116637 0
M  V30 12 Br -4.51634 0.621465 -0.114111 0
M  V30 13 C -2.49084 -1.41072 -0.256942 0
M  V30 14 C -1.17434 -1.83668 -0.249879 0
M  V30 15 H 3.85532 -1.81852 -0.656747 0
M  V30 16 H 4.3264 -0.74815 0.675451 0
M  V30 17 H 0.485082 3.19284 -0.528622 0
M  V30 18 H 0.408797 3.05506 1.2351 0
M  V30 19 H -3.33214 -2.07971 -0.366532 0
M  V30 20 H -0.959962 -2.88657 -0.358197 0
M  V30 END ATOM
M  V30 BEGIN BOND
M  V30 1 1 1 2
M  V30 2 2 2 3
M  V30 3 1 3 4
M  V30 4 2 4 5
M  V30 5 1 5 6
M  V30 6 1 6 7
M  V30 7 2 6 8
M  V30 8 1 5 9
M  V30 9 1 9 10
M  V30 10 2 9 11
M  V30 11 1 11 12
M  V30 12 1 11 13
M  V30 13 2 13 14
M  V30 14 1 8 2
M  V30 15 1 14 4
M  V30 16 1 1 15
M  V30 17 1 1 16
M  V30 18 1 7 17
M  V30 19 1 7 18
M  V30 20 1 13 19
M  V30 21 1 14 20
M  V30 END BOND
M  V30 END CTAB
M  END
