
     RDKit          3D

  0  0  0  0  0  0  0  0  0  0999 V3000
M  V30 BEGIN CTAB
M  V30 COUNTS 33 34 0 0 0
M  V30 BEGIN ATOM
M  V30 1 C 5.29973 -0.967025 0.40703 0
M  V30 2 C 4.00091 -0.412857 -0.092282 0
M  V30 3 C 2.82765 -1.11025 0.0767041 0
M  V30 4 C 1.61812 -0.591878 -0.389382 0
M  V30 5 C 1.63951 0.624126 -1.01492 0
M  V30 6 C 2.85066 1.31587 -1.17496 0
M  V30 7 C 4.04873 0.814224 -0.719592 0
M  V30 8 C 0.390398 1.24476 -1.53383 0
M  V30 9 S -0.388333 2.33082 -0.334491 0
M  V30 10 C -1.07442 1.40252 1.01931 0
M  V30 11 C -2.27234 0.586204 0.655588 0
M  V30 12 N -2.19765 -0.674864 0.218731 0
M  V30 13 C -3.2416 -1.44504 -0.116246 0
M  V30 14 N -3.09541 -2.78285 -0.576707 0
M  V30 15 N -4.45734 -0.868424 0.00958173 0
M  V30 16 C -4.59103 0.397153 0.444281 0
M  V30 17 N -3.50676 1.11709 0.764167 0
M  V30 18 N -5.84613 1.02825 0.588712 0
M  V30 19 H 5.88979 -0.116581 0.812989 0
M  V30 20 H 5.09619 -1.65665 1.25038 0
M  V30 21 H 5.78038 -1.45502 -0.461486 0
M  V30 22 H 2.7945 -2.07684 0.571666 0
M  V30 23 H 0.705689 -1.16233 -0.24896 0
M  V30 24 H 2.83636 2.27528 -1.67362 0
M  V30 25 H 4.98924 1.35701 -0.846945 0
M  V30 26 H -0.324936 0.397701 -1.73659 0
M  V30 27 H 0.603293 1.76691 -2.48773 0
M  V30 28 H -0.331095 0.662071 1.43649 0
M  V30 29 H -1.34888 2.04946 1.89397 0
M  V30 30 H -3.92893 -3.32139 -0.863061 0
M  V30 31 H -2.16617 -3.24106 -0.634914 0
M  V30 32 H -6.25495 1.53602 -0.206253 0
M  V30 33 H -6.34516 0.977591 1.48646 0
M  V30 END ATOM
M  V30 BEGIN BOND
M  V30 1 1 1 2
M  V30 2 2 2 3
M  V30 3 1 3 4
M  V30 4 2 4 5
M  V30 5 1 5 6
M  V30 6 2 6 7
M  V30 7 1 5 8
M  V30 8 1 8 9
M  V30 9 1 9 10
M  V30 10 1 10 11
M  V30 11 2 11 12
M  V30 12 1 12 13
M  V30 13 1 13 14
M  V30 14 2 13 15
M  V30 15 1 15 16
M  V30 16 2 16 17
M  V30 17 1 16 18
M  V30 18 1 7 2
M  V30 19 1 17 11
M  V30 20 1 1 19
M  V30 21 1 1 20
M  V30 22 1 1 21
M  V30 23 1 3 22
M  V30 24 1 4 23
M  V30 25 1 6 24
M  V30 26 1 7 25
M  V30 27 1 8 26
M  V30 28 1 8 27
M  V30 29 1 10 28
M  V30 30 1 10 29
M  V30 31 1 14 30
M  V30 32 1 14 31
M  V30 33 1 18 32
M  V30 34 1 18 33
M  V30 END BOND
M  V30 END CTAB
M  END
