
     RDKit          3D

  0  0  0  0  0  0  0  0  0  0999 V3000
M  V30 BEGIN CTAB
M  V30 COUNTS 37 39 0 0 0
M  V30 BEGIN ATOM
M  V30 1 N -4.51645 1.46952 -0.970067 0
M  V30 2 C -3.37364 0.824771 -0.407659 0
M  V30 3 C -2.63151 -0.0142083 -1.18756 0
M  V30 4 C -1.50643 -0.658369 -0.659624 0
M  V30 5 C -1.10337 -0.486421 0.626813 0
M  V30 6 C -1.87064 0.375359 1.41789 0
M  V30 7 C -2.98037 1.01017 0.895508 0
M  V30 8 C 0.0821218 -1.16807 1.18467 0 CFG=2
M  V30 9 C 0.570887 -0.382401 2.41342 0
M  V30 10 N 0.89268 0.961742 2.03082 0
M  V30 11 C 1.4649 1.19655 0.755747 0
M  V30 12 C 1.64184 0.152909 -0.148349 0
M  V30 13 N 1.22957 -1.14049 0.258802 0
M  V30 14 S 2.03796 -2.52266 -0.310197 0
M  V30 15 O 3.2672 -2.27984 -1.10495 0
M  V30 16 O 2.39673 -3.38563 0.921893 0
M  V30 17 N 1.00672 -3.57698 -1.24217 0
M  V30 18 C 2.191 0.371787 -1.39487 0
M  V30 19 C 2.59102 1.61953 -1.80808 0
M  V30 20 C 2.42448 2.66346 -0.926613 0
M  V30 21 C 1.87601 2.4491 0.317967 0
M  V30 22 H -4.55214 1.90579 -1.89425 0
M  V30 23 H -5.37781 1.47908 -0.356051 0
M  V30 24 H -2.91505 -0.181317 -2.21817 0
M  V30 25 H -0.985989 -1.29715 -1.34706 0
M  V30 26 H -1.62912 0.573838 2.45191 0
M  V30 27 H -3.59701 1.6919 1.50157 0
M  V30 28 H -0.121756 -2.1898 1.55875 0
M  V30 29 H 1.5352 -0.892192 2.69207 0
M  V30 30 H -0.0922966 -0.485126 3.26566 0
M  V30 31 H 0.721729 1.79268 2.66038 0
M  V30 32 H 0.057491 -3.61259 -0.84309 0
M  V30 33 H 1.49393 -4.50094 -1.26443 0
M  V30 34 H 2.30211 -0.457613 -2.07455 0
M  V30 35 H 3.02338 1.76205 -2.80196 0
M  V30 36 H 2.71509 3.67006 -1.18061 0
M  V30 37 H 1.73151 3.26152 1.03988 0
M  V30 END ATOM
M  V30 BEGIN BOND
M  V30 1 1 1 2
M  V30 2 2 2 3
M  V30 3 1 3 4
M  V30 4 2 4 5
M  V30 5 1 5 6
M  V30 6 2 6 7
M  V30 7 1 5 8
M  V30 8 1 8 9
M  V30 9 1 9 10
M  V30 10 1 10 11
M  V30 11 2 11 12
M  V30 12 1 12 13
M  V30 13 1 13 14
M  V30 14 2 14 15
M  V30 15 2 14 16
M  V30 16 1 14 17
M  V30 17 1 12 18
M  V30 18 2 18 19
M  V30 19 1 19 20
M  V30 20 2 20 21
M  V30 21 1 7 2
M  V30 22 1 13 8
M  V30 23 1 21 11
M  V30 24 1 1 22
M  V30 25 1 1 23
M  V30 26 1 3 24
M  V30 27 1 4 25
M  V30 28 1 6 26
M  V30 29 1 7 27
M  V30 30 1 8 28 CFG=1
M  V30 31 1 9 29
M  V30 32 1 9 30
M  V30 33 1 10 31
M  V30 34 1 17 32
M  V30 35 1 17 33
M  V30 36 1 18 34
M  V30 37 1 19 35
M  V30 38 1 20 36
M  V30 39 1 21 37
M  V30 END BOND
M  V30 END CTAB
M  END
