
     RDKit          3D

  0  0  0  0  0  0  0  0  0  0999 V3000
M  V30 BEGIN CTAB
M  V30 COUNTS 28 28 0 0 0
M  V30 BEGIN ATOM
M  V30 1 C -2.79931 0.0676618 -1.60967 0
M  V30 2 C -2.07337 -0.0571987 -0.31682 0
M  V30 3 C -0.646798 0.202555 -0.309414 0
M  V30 4 C -0.149585 1.45666 -0.639064 0
M  V30 5 C 1.18453 1.77921 -0.441137 0
M  V30 6 Br 1.80221 3.53727 -0.919346 0
M  V30 7 C 2.06498 0.872531 0.0805347 0
M  V30 8 C 1.57591 -0.366143 0.399806 0
M  V30 9 C 0.2676 -0.693327 0.214781 0
M  V30 10 N -0.199245 -1.99744 0.479293 0
M  V30 11 N 2.5288 -1.32951 0.86693 0
M  V30 12 C 3.47307 1.25121 0.354956 0
M  V30 13 C -2.66755 -0.866329 0.774768 0
M  V30 14 H -3.48588 0.899775 -1.75873 0
M  V30 15 H -2.03703 0.0266187 -2.45033 0
M  V30 16 H -3.4272 -0.904779 -1.73904 0
M  V30 17 H -2.42553 1.06617 0.139307 0
M  V30 18 H -0.794152 2.25202 -1.05925 0
M  V30 19 H -0.503739 -2.59643 -0.296756 0
M  V30 20 H -0.24615 -2.34071 1.45283 0
M  V30 21 H 2.95663 -1.23382 1.78229 0
M  V30 22 H 2.74902 -2.11162 0.230234 0
M  V30 23 H 3.7474 2.14452 -0.234695 0
M  V30 24 H 3.58493 1.53387 1.45968 0
M  V30 25 H 4.17466 0.407095 0.13491 0
M  V30 26 H -3.01249 -1.85246 0.508382 0
M  V30 27 H -2.01659 -0.790941 1.68615 0
M  V30 28 H -3.62513 -0.356454 1.2094 0
M  V30 END ATOM
M  V30 BEGIN BOND
M  V30 1 1 1 2
M  V30 2 1 2 3
M  V30 3 2 3 4
M  V30 4 1 4 5
M  V30 5 1 5 6
M  V30 6 2 5 7
M  V30 7 1 7 8
M  V30 8 2 8 9
M  V30 9 1 9 10
M  V30 10 1 8 11
M  V30 11 1 7 12
M  V30 12 1 2 13
M  V30 13 1 9 3
M  V30 14 1 1 14
M  V30 15 1 1 15
M  V30 16 1 1 16
M  V30 17 1 2 17
M  V30 18 1 4 18
M  V30 19 1 10 19
M  V30 20 1 10 20
M  V30 21 1 11 21
M  V30 22 1 11 22
M  V30 23 1 12 23
M  V30 24 1 12 24
M  V30 25 1 12 25
M  V30 26 1 13 26
M  V30 27 1 13 27
M  V30 28 1 13 28
M  V30 END BOND
M  V30 END CTAB
M  END
