
     RDKit          3D

  0  0  0  0  0  0  0  0  0  0999 V3000
M  V30 BEGIN CTAB
M  V30 COUNTS 22 22 0 0 0
M  V30 BEGIN ATOM
M  V30 1 N 3.40458 -0.384011 0.457286 0
M  V30 2 N 2.17244 0.310917 0.323501 0
M  V30 3 C 0.995631 -0.351882 0.0183744 0
M  V30 4 O 1.09553 -1.62458 -0.133082 0
M  V30 5 C -0.32805 0.208231 -0.1505 0
M  V30 6 C -0.70983 1.52152 -0.0476955 0
M  V30 7 C 0.114502 2.74418 0.26505 0
M  V30 8 N -2.04404 1.54123 -0.290674 0
M  V30 9 N -2.48402 0.337594 -0.530275 0
M  V30 10 C -1.48537 -0.535357 -0.461474 0
M  V30 11 N -1.52068 -1.95421 -0.654128 0
M  V30 12 N -1.75191 -2.87064 0.364649 0
M  V30 13 H 3.26494 -1.33624 0.037579 0
M  V30 14 H 4.1298 0.111777 -0.0739645 0
M  V30 15 H 2.25399 1.32093 0.473509 0
M  V30 16 H 0.843357 2.90562 -0.527739 0
M  V30 17 H -0.60355 3.62267 0.218214 0
M  V30 18 H 0.503021 2.65494 1.28959 0
M  V30 19 H -3.47514 0.073196 -0.747601 0
M  V30 20 H -1.36355 -2.30761 -1.6122 0
M  V30 21 H -2.02914 -2.45184 1.26086 0
M  V30 22 H -0.982495 -3.53645 0.520723 0
M  V30 END ATOM
M  V30 BEGIN BOND
M  V30 1 1 1 2
M  V30 2 1 2 3
M  V30 3 2 3 4
M  V30 4 1 3 5
M  V30 5 1 5 6
M  V30 6 1 6 7
M  V30 7 2 6 8
M  V30 8 1 8 9
M  V30 9 1 9 10
M  V30 10 1 10 11
M  V30 11 1 11 12
M  V30 12 2 10 5
M  V30 13 1 1 13
M  V30 14 1 1 14
M  V30 15 1 2 15
M  V30 16 1 7 16
M  V30 17 1 7 17
M  V30 18 1 7 18
M  V30 19 1 9 19
M  V30 20 1 11 20
M  V30 21 1 12 21
M  V30 22 1 12 22
M  V30 END BOND
M  V30 END CTAB
M  END
