
     RDKit          3D

  0  0  0  0  0  0  0  0  0  0999 V3000
M  V30 BEGIN CTAB
M  V30 COUNTS 24 24 0 0 0
M  V30 BEGIN ATOM
M  V30 1 N -3.04115 -0.27803 -1.51485 0
M  V30 2 C -2.55461 -0.861868 -0.322409 0
M  V30 3 N -2.18492 -2.09035 -0.345392 0
M  V30 4 N -2.4691 -0.12147 0.884934 0
M  V30 5 S -1.01075 -0.228855 1.8348 0
M  V30 6 O -0.811516 -1.68679 2.13031 0
M  V30 7 O -1.16807 0.492499 3.13621 0
M  V30 8 C 0.369195 0.346195 0.955383 0
M  V30 9 C 0.72411 1.69332 1.03495 0
M  V30 10 C 1.81693 2.10992 0.328006 0
M  V30 11 C 2.57529 1.26334 -0.452304 0
M  V30 12 C 2.17723 -0.0772961 -0.498109 0
M  V30 13 C 1.08718 -0.549327 0.192634 0
M  V30 14 N 2.94876 -0.953914 -1.29589 0
M  V30 15 Cl 3.97612 1.82547 -1.35132 0
M  V30 16 H -3.42988 -0.793189 -2.31159 0
M  V30 17 H -2.99903 0.777735 -1.58739 0
M  V30 18 H -2.21685 -2.68805 -1.17644 0
M  V30 19 H -3.24591 0.482894 1.22285 0
M  V30 20 H 0.105314 2.32518 1.65661 0
M  V30 21 H 2.11108 3.15544 0.375858 0
M  V30 22 H 0.80201 -1.61091 0.134013 0
M  V30 23 H 3.95391 -1.07763 -1.09389 0
M  V30 24 H 2.48466 -1.45432 -2.06878 0
M  V30 END ATOM
M  V30 BEGIN BOND
M  V30 1 1 1 2
M  V30 2 2 2 3 CFG=2
M  V30 3 1 2 4
M  V30 4 1 4 5
M  V30 5 2 5 6
M  V30 6 2 5 7
M  V30 7 1 5 8
M  V30 8 2 8 9
M  V30 9 1 9 10
M  V30 10 2 10 11
M  V30 11 1 11 12
M  V30 12 2 12 13
M  V30 13 1 12 14
M  V30 14 1 11 15
M  V30 15 1 13 8
M  V30 16 1 1 16
M  V30 17 1 1 17
M  V30 18 1 3 18
M  V30 19 1 4 19
M  V30 20 1 9 20
M  V30 21 1 10 21
M  V30 22 1 13 22
M  V30 23 1 14 23
M  V30 24 1 14 24
M  V30 END BOND
M  V30 END CTAB
M  END
