
     RDKit          3D

  0  0  0  0  0  0  0  0  0  0999 V3000
M  V30 BEGIN CTAB
M  V30 COUNTS 24 25 0 0 0
M  V30 BEGIN ATOM
M  V30 1 F -1.73432 1.90356 -0.677313 0
M  V30 2 C -1.71501 0.990812 0.336237 0
M  V30 3 F -1.43359 1.5672 1.5544 0
M  V30 4 C -3.04768 0.270688 0.343265 0
M  V30 5 N -2.92648 -0.8667 -0.520546 0
M  V30 6 C -1.56527 -0.936406 -0.984656 0
M  V30 7 C -0.774581 -0.177644 0.0547517 0
M  V30 8 C 0.534622 0.262722 -0.417857 0
M  V30 9 N 0.811731 1.0085 -1.48773 0
M  V30 10 N 2.11899 1.18486 -1.56824 0
M  V30 11 C 2.72644 0.544624 -0.532337 0
M  V30 12 N 1.71395 -0.0186 0.164075 0
M  V30 13 N 1.84973 -0.783979 1.32047 0
M  V30 14 N 4.10124 0.47 -0.230468 0
M  V30 15 H -3.19574 -0.106349 1.39111 0
M  V30 16 H -3.87684 0.949137 0.0557892 0
M  V30 17 H -3.10934 -1.77795 -0.00186632 0
M  V30 18 H -1.20947 -1.98464 -1.10863 0
M  V30 19 H -1.52881 -0.463479 -1.97923 0
M  V30 20 H -0.75436 -0.78674 0.962949 0
M  V30 21 H 2.11695 -1.78767 1.31168 0
M  V30 22 H 1.67657 -0.334924 2.24116 0
M  V30 23 H 4.43922 -0.234744 0.441997 0
M  V30 24 H 4.78205 1.10772 -0.669017 0
M  V30 END ATOM
M  V30 BEGIN BOND
M  V30 1 1 1 2
M  V30 2 1 2 3
M  V30 3 1 2 4
M  V30 4 1 4 5
M  V30 5 1 5 6
M  V30 6 1 6 7
M  V30 7 1 7 8
M  V30 8 2 8 9
M  V30 9 1 9 10
M  V30 10 2 10 11
M  V30 11 1 11 12
M  V30 12 1 12 13
M  V30 13 1 11 14
M  V30 14 1 7 2
M  V30 15 1 12 8
M  V30 16 1 4 15
M  V30 17 1 4 16
M  V30 18 1 5 17
M  V30 19 1 6 18
M  V30 20 1 6 19
M  V30 21 1 7 20
M  V30 22 1 13 21
M  V30 23 1 13 22
M  V30 24 1 14 23
M  V30 25 1 14 24
M  V30 END BOND
M  V30 END CTAB
M  END
