
     RDKit          3D

  0  0  0  0  0  0  0  0  0  0999 V3000
M  V30 BEGIN CTAB
M  V30 COUNTS 53 56 0 0 0
M  V30 BEGIN ATOM
M  V30 1 N 3.77479 -4.27134 1.82359 0
M  V30 2 C 2.91455 -3.11001 1.89362 0
M  V30 3 C 3.07947 -2.30701 0.617201 0
M  V30 4 C 2.20567 -1.07806 0.627772 0
M  V30 5 C 2.35235 -0.235502 -0.634986 0 CFG=2
M  V30 6 C 1.49455 0.968447 -0.573883 0
M  V30 7 N 2.04053 2.18871 -0.26648 0
M  V30 8 C 1.0938 3.11775 -0.260038 0
M  V30 9 N -0.0343818 2.48825 -0.559763 0
M  V30 10 N 0.20658 1.18407 -0.750091 0
M  V30 11 C -0.808499 0.254952 -1.07177 0
M  V30 12 N -0.764332 -0.666489 -2.02012 0
M  V30 13 C -1.9194 -1.33674 -2.02976 0
M  V30 14 C -2.71597 -0.808563 -1.04444 0
M  V30 15 N -1.99333 0.195424 -0.453008 0
M  V30 16 C -2.57613 0.953531 0.631239 0
M  V30 17 C -2.36591 0.402769 1.99268 0
M  V30 18 C -0.952327 0.270786 2.4462 0
M  V30 19 C -3.98825 -1.31945 -0.827215 0
M  V30 20 C -4.41944 -2.36077 -1.62305 0
M  V30 21 C -3.61681 -2.89251 -2.61542 0
M  V30 22 C -2.36801 -2.38088 -2.81845 0
M  V30 23 C 1.29549 4.57618 0.0318081 0
M  V30 24 C 0.539791 5.46819 -0.924465 0
M  V30 25 C 0.132444 5.36942 0.525766 0
M  V30 26 N 2.24418 -1.01881 -1.81553 0
M  V30 27 H 3.21141 -5.13164 1.59845 0
M  V30 28 H 4.48617 -4.19256 1.06865 0
M  V30 29 H 1.88115 -3.43317 2.01285 0
M  V30 30 H 3.247 -2.47874 2.73985 0
M  V30 31 H 2.7312 -2.97119 -0.196063 0
M  V30 32 H 4.12821 -2.06621 0.408974 0
M  V30 33 H 2.30198 -0.473176 1.52903 0
M  V30 34 H 1.14647 -1.47867 0.622578 0
M  V30 35 H 3.4264 0.119472 -0.608658 0
M  V30 36 H -3.70217 1.03091 0.492151 0
M  V30 37 H -2.26915 2.04223 0.593855 0
M  V30 38 H -2.8636 1.11372 2.71692 0
M  V30 39 H -2.94951 -0.550721 2.14034 0
M  V30 40 H -0.888605 0.154888 3.57281 0
M  V30 41 H -0.330622 1.13706 2.2246 0
M  V30 42 H -0.568207 -0.700087 2.06821 0
M  V30 43 H -4.61053 -0.905396 -0.0560393 0
M  V30 44 H -5.40034 -2.78393 -1.48491 0
M  V30 45 H -3.95505 -3.71615 -3.24653 0
M  V30 46 H -1.68812 -2.75864 -3.58629 0
M  V30 47 H 2.32167 4.88861 0.258537 0
M  V30 48 H 1.03978 6.39758 -1.28737 0
M  V30 49 H -0.153514 5.04422 -1.65865 0
M  V30 50 H -0.806439 4.8269 0.760972 0
M  V30 51 H 0.391852 6.28091 1.11315 0
M  V30 52 H 1.91295 -1.99326 -1.69788 0
M  V30 53 H 3.10823 -1.05529 -2.40096 0
M  V30 END ATOM
M  V30 BEGIN BOND
M  V30 1 1 1 2
M  V30 2 1 2 3
M  V30 3 1 3 4
M  V30 4 1 4 5
M  V30 5 1 5 6
M  V30 6 2 6 7
M  V30 7 1 7 8
M  V30 8 2 8 9
M  V30 9 1 9 10
M  V30 10 1 10 11
M  V30 11 2 11 12
M  V30 12 1 12 13
M  V30 13 2 13 14
M  V30 14 1 14 15
M  V30 15 1 15 16
M  V30 16 1 16 17
M  V30 17 1 17 18
M  V30 18 1 14 19
M  V30 19 2 19 20
M  V30 20 1 20 21
M  V30 21 2 21 22
M  V30 22 1 8 23
M  V30 23 1 23 24
M  V30 24 1 24 25
M  V30 25 1 5 26
M  V30 26 1 10 6
M  V30 27 1 15 11
M  V30 28 1 25 23
M  V30 29 1 22 13
M  V30 30 1 1 27
M  V30 31 1 1 28
M  V30 32 1 2 29
M  V30 33 1 2 30
M  V30 34 1 3 31
M  V30 35 1 3 32
M  V30 36 1 4 33
M  V30 37 1 4 34
M  V30 38 1 5 35 CFG=1
M  V30 39 1 16 36
M  V30 40 1 16 37
M  V30 41 1 17 38
M  V30 42 1 17 39
M  V30 43 1 18 40
M  V30 44 1 18 41
M  V30 45 1 18 42
M  V30 46 1 19 43
M  V30 47 1 20 44
M  V30 48 1 21 45
M  V30 49 1 22 46
M  V30 50 1 23 47
M  V30 51 1 24 48
M  V30 52 1 24 49
M  V30 53 1 25 50
M  V30 54 1 25 51
M  V30 55 1 26 52
M  V30 56 1 26 53
M  V30 END BOND
M  V30 END CTAB
M  END
