
     RDKit          3D

  0  0  0  0  0  0  0  0  0  0999 V3000
M  V30 BEGIN CTAB
M  V30 COUNTS 54 55 0 0 0
M  V30 BEGIN ATOM
M  V30 1 N -3.08073 3.79798 2.5472 0
M  V30 2 C -2.22125 3.11812 1.66521 0
M  V30 3 C -0.904485 3.47728 1.58831 0
M  V30 4 C -0.0994306 2.80273 0.726973 0
M  V30 5 C -0.574339 1.77755 -0.0616932 0
M  V30 6 C -1.91011 1.44246 0.0421349 0
M  V30 7 C -2.78405 2.07684 0.88959 0
M  V30 8 O -4.10801 1.8021 1.04123 0
M  V30 9 C -4.84788 0.826885 0.415674 0
M  V30 10 C -4.48011 -0.596656 0.726983 0
M  V30 11 C -5.39204 -1.53318 -0.0503092 0
M  V30 12 S -5.00556 -3.22177 0.276282 0
M  V30 13 O -6.07653 -4.16564 -0.635352 0
M  V30 14 O -5.09576 -3.57231 1.71323 0
M  V30 15 O -3.60953 -3.52309 -0.205928 0
M  V30 16 C 0.337819 1.08637 -0.968179 0
M  V30 17 C 1.67584 0.934797 -0.637173 0
M  V30 18 C 2.59202 0.292831 -1.44351 0
M  V30 19 O 3.90938 0.117194 -1.17225 0
M  V30 20 C 4.68533 0.463701 -0.101625 0
M  V30 21 C 4.36999 -0.165671 1.21704 0
M  V30 22 C 4.44359 -1.66253 1.12717 0
M  V30 23 S 6.02015 -2.27949 0.661512 0
M  V30 24 O 6.49769 -1.7687 -0.837115 0
M  V30 25 O 7.03279 -1.89887 1.7245 0
M  V30 26 O 5.94774 -3.78578 0.707534 0
M  V30 27 C 2.17009 -0.247503 -2.68 0
M  V30 28 N 3.09845 -0.913266 -3.52866 0
M  V30 29 C 0.847994 -0.0952832 -3.00349 0
M  V30 30 C -0.0575949 0.553246 -2.17752 0
M  V30 31 H -2.6874 4.45827 3.24609 0
M  V30 32 H -4.13093 3.6689 2.53614 0
M  V30 33 H -0.47429 4.28171 2.18875 0
M  V30 34 H 0.943542 3.08774 0.666863 0
M  V30 35 H -2.25518 0.656476 -0.603601 0
M  V30 36 H -4.79684 0.946602 -0.719105 0
M  V30 37 H -5.95321 0.973378 0.628076 0
M  V30 38 H -3.46501 -0.865351 0.483434 0
M  V30 39 H -4.6622 -0.84175 1.80415 0
M  V30 40 H -5.23828 -1.34817 -1.13014 0
M  V30 41 H -6.45327 -1.32521 0.19417 0
M  V30 42 H -6.70215 -4.65983 -0.0750232 0
M  V30 43 H 1.9945 1.37669 0.314763 0
M  V30 44 H 4.54855 1.5887 0.0659595 0
M  V30 45 H 5.78908 0.402703 -0.283296 0
M  V30 46 H 5.12391 0.209134 1.97746 0
M  V30 47 H 3.37956 0.129918 1.57023 0
M  V30 48 H 3.71672 -2.03216 0.353943 0
M  V30 49 H 4.15595 -2.13868 2.10443 0
M  V30 50 H 7.44442 -1.48196 -0.8157 0
M  V30 51 H 3.71946 -1.62533 -3.09566 0
M  V30 52 H 3.20332 -0.742372 -4.54833 0
M  V30 53 H 0.515705 -0.515669 -3.96724 0
M  V30 54 H -1.09744 0.655921 -2.46413 0
M  V30 END ATOM
M  V30 BEGIN BOND
M  V30 1 1 1 2
M  V30 2 2 2 3
M  V30 3 1 3 4
M  V30 4 2 4 5
M  V30 5 1 5 6
M  V30 6 2 6 7
M  V30 7 1 7 8
M  V30 8 1 8 9
M  V30 9 1 9 10
M  V30 10 1 10 11
M  V30 11 1 11 12
M  V30 12 1 12 13
M  V30 13 2 12 14
M  V30 14 2 12 15
M  V30 15 1 5 16
M  V30 16 2 16 17
M  V30 17 1 17 18
M  V30 18 1 18 19
M  V30 19 1 19 20
M  V30 20 1 20 21
M  V30 21 1 21 22
M  V30 22 1 22 23
M  V30 23 1 23 24
M  V30 24 2 23 25
M  V30 25 2 23 26
M  V30 26 2 18 27
M  V30 27 1 27 28
M  V30 28 1 27 29
M  V30 29 2 29 30
M  V30 30 1 7 2
M  V30 31 1 30 16
M  V30 32 1 1 31
M  V30 33 1 1 32
M  V30 34 1 3 33
M  V30 35 1 4 34
M  V30 36 1 6 35
M  V30 37 1 9 36
M  V30 38 1 9 37
M  V30 39 1 10 38
M  V30 40 1 10 39
M  V30 41 1 11 40
M  V30 42 1 11 41
M  V30 43 1 13 42
M  V30 44 1 17 43
M  V30 45 1 20 44
M  V30 46 1 20 45
M  V30 47 1 21 46
M  V30 48 1 21 47
M  V30 49 1 22 48
M  V30 50 1 22 49
M  V30 51 1 24 50
M  V30 52 1 28 51
M  V30 53 1 28 52
M  V30 54 1 29 53
M  V30 55 1 30 54
M  V30 END BOND
M  V30 END CTAB
M  END
