
     RDKit          3D

  0  0  0  0  0  0  0  0  0  0999 V3000
M  V30 BEGIN CTAB
M  V30 COUNTS 35 35 0 0 0
M  V30 BEGIN ATOM
M  V30 1 O -0.891749 -1.36101 1.14155 0
M  V30 2 C -0.464326 -0.263333 0.734827 0
M  V30 3 C 0.997252 -0.155762 0.642879 0
M  V30 4 C 1.79327 -1.30717 0.70393 0
M  V30 5 C 3.16064 -1.27519 0.62897 0
M  V30 6 C 3.82686 -0.0782447 0.486751 0
M  V30 7 C 3.06608 1.06358 0.424785 0
M  V30 8 C 1.66999 1.02752 0.501697 0
M  V30 9 S 5.57316 -0.060843 0.39299 0
M  V30 10 O 6.07431 1.21577 0.99689 0
M  V30 11 O 6.09211 -1.21552 1.20265 0
M  V30 12 N 6.03302 -0.201144 -1.26822 0
M  V30 13 N -1.32055 0.771617 0.396792 0
M  V30 14 C -2.72162 0.908403 0.390097 0
M  V30 15 C -3.56846 0.0846069 -0.48176 0
M  V30 16 N -3.1709 0.300664 -1.86377 0
M  V30 17 C -3.66633 -1.35174 -0.122623 0
M  V30 18 C -5.00855 0.645025 -0.3128 0
M  V30 19 H 1.28316 -2.26469 0.816267 0
M  V30 20 H 3.76774 -2.17364 0.677346 0
M  V30 21 H 3.58029 2.00055 0.313844 0
M  V30 22 H 1.11697 1.95131 0.451665 0
M  V30 23 H 5.56335 0.561265 -1.79205 0
M  V30 24 H 7.05878 -0.19584 -1.30471 0
M  V30 25 H -0.800827 1.67494 0.0564736 0
M  V30 26 H -3.01486 2.00903 0.333844 0
M  V30 27 H -3.05859 0.669075 1.46507 0
M  V30 28 H -2.18057 0.605184 -1.87902 0
M  V30 29 H -3.36192 -0.52838 -2.45185 0
M  V30 30 H -2.95015 -2.02417 -0.669854 0
M  V30 31 H -4.67244 -1.78991 -0.470145 0
M  V30 32 H -3.69994 -1.5198 0.9651 0
M  V30 33 H -5.18002 0.971959 0.72012 0
M  V30 34 H -5.73375 -0.16184 -0.541943 0
M  V30 35 H -5.19145 1.46774 -1.01241 0
M  V30 END ATOM
M  V30 BEGIN BOND
M  V30 1 2 1 2
M  V30 2 1 2 3
M  V30 3 2 3 4
M  V30 4 1 4 5
M  V30 5 2 5 6
M  V30 6 1 6 7
M  V30 7 2 7 8
M  V30 8 1 6 9
M  V30 9 2 9 10
M  V30 10 2 9 11
M  V30 11 1 9 12
M  V30 12 1 2 13
M  V30 13 1 13 14
M  V30 14 1 14 15
M  V30 15 1 15 16
M  V30 16 1 15 17
M  V30 17 1 15 18
M  V30 18 1 8 3
M  V30 19 1 4 19
M  V30 20 1 5 20
M  V30 21 1 7 21
M  V30 22 1 8 22
M  V30 23 1 12 23
M  V30 24 1 12 24
M  V30 25 1 13 25
M  V30 26 1 14 26
M  V30 27 1 14 27
M  V30 28 1 16 28
M  V30 29 1 16 29
M  V30 30 1 17 30
M  V30 31 1 17 31
M  V30 32 1 17 32
M  V30 33 1 18 33
M  V30 34 1 18 34
M  V30 35 1 18 35
M  V30 END BOND
M  V30 END CTAB
M  END
