
     RDKit          3D

  0  0  0  0  0  0  0  0  0  0999 V3000
M  V30 BEGIN CTAB
M  V30 COUNTS 30 32 0 0 0
M  V30 BEGIN ATOM
M  V30 1 N 1.81369 2.71894 0.164172 0
M  V30 2 C 1.79555 1.28395 0.0569064 0
M  V30 3 C 2.96465 0.554341 -0.00478968 0
M  V30 4 C 4.23336 1.22295 0.037551 0
M  V30 5 N 5.24715 1.76234 0.0865304 0
M  V30 6 C 2.92283 -0.820777 -0.107436 0
M  V30 7 C 4.12541 -1.61816 -0.174413 0
M  V30 8 N 5.08882 -2.27016 -0.234398 0
M  V30 9 C 1.67949 -1.41664 -0.144472 0
M  V30 10 N 1.59307 -2.83986 -0.250451 0
M  V30 11 C 0.507984 -0.685352 -0.082636 0
M  V30 12 C 0.544524 0.687294 0.0198571 0
M  V30 13 C -0.683891 1.4571 0.084932 0
M  V30 14 O -0.619569 2.69607 0.177254 0
M  V30 15 C -1.97451 0.781871 0.042256 0
M  V30 16 C -2.02394 -0.584409 -0.05968 0
M  V30 17 C -3.24435 -1.23597 -0.101001 0
M  V30 18 C -4.41734 -0.493731 -0.0383175 0
M  V30 19 C -4.40235 0.88238 0.0645597 0
M  V30 20 C -3.16695 1.49576 0.102933 0
M  V30 21 C -0.793046 -1.3643 -0.125527 0
M  V30 22 O -0.875479 -2.62453 -0.219327 0
M  V30 23 H 2.0278 3.1361 1.09892 0
M  V30 24 H 1.61282 3.28227 -0.693608 0
M  V30 25 H 1.78282 -3.4065 0.605061 0
M  V30 26 H 1.34601 -3.31435 -1.15982 0
M  V30 27 H -3.25942 -2.31781 -0.181865 0
M  V30 28 H -5.38655 -0.978583 -0.0686975 0
M  V30 29 H -5.32893 1.44512 0.112304 0
M  V30 30 H -3.10966 2.56464 0.182563 0
M  V30 END ATOM
M  V30 BEGIN BOND
M  V30 1 1 1 2
M  V30 2 2 2 3
M  V30 3 1 3 4
M  V30 4 3 4 5
M  V30 5 1 3 6
M  V30 6 1 6 7
M  V30 7 3 7 8
M  V30 8 2 6 9
M  V30 9 1 9 10
M  V30 10 1 9 11
M  V30 11 2 11 12
M  V30 12 1 12 13
M  V30 13 2 13 14
M  V30 14 1 13 15
M  V30 15 2 15 16
M  V30 16 1 16 17
M  V30 17 2 17 18
M  V30 18 1 18 19
M  V30 19 2 19 20
M  V30 20 1 16 21
M  V30 21 2 21 22
M  V30 22 1 12 2
M  V30 23 1 20 15
M  V30 24 1 21 11
M  V30 25 1 1 23
M  V30 26 1 1 24
M  V30 27 1 10 25
M  V30 28 1 10 26
M  V30 29 1 17 27
M  V30 30 1 18 28
M  V30 31 1 19 29
M  V30 32 1 20 30
M  V30 END BOND
M  V30 END CTAB
M  END
