
     RDKit          3D

  0  0  0  0  0  0  0  0  0  0999 V3000
M  V30 BEGIN CTAB
M  V30 COUNTS 36 38 0 0 0
M  V30 BEGIN ATOM
M  V30 1 C -2.83492 3.52769 1.37645 0
M  V30 2 O -1.93799 2.54892 0.942121 0
M  V30 3 C -2.11147 1.19667 1.00259 0
M  V30 4 C -3.24143 0.606771 1.52177 0
M  V30 5 C -3.39212 -0.769077 1.57118 0
M  V30 6 C -2.39365 -1.59244 1.09186 0
M  V30 7 N -2.47701 -2.99753 1.10921 0
M  V30 8 C -1.24924 -1.01452 0.565752 0
M  V30 9 C -1.11578 0.36493 0.52445 0
M  V30 10 C 0.0927379 0.978874 -0.0309823 0
M  V30 11 O 0.198227 2.22805 -0.061203 0
M  V30 12 C 1.14407 0.11025 -0.535592 0
M  V30 13 C 0.996753 -1.26583 -0.487756 0
M  V30 14 C 1.97635 -2.11668 -0.958535 0
M  V30 15 N 1.80269 -3.51401 -0.89879 0
M  V30 16 C 3.12365 -1.53675 -1.48583 0
M  V30 17 C 3.26464 -0.169619 -1.53085 0
M  V30 18 C 2.28483 0.676179 -1.06005 0
M  V30 19 O 2.37034 2.05947 -1.07891 0
M  V30 20 C 3.52838 2.64938 -1.61099 0
M  V30 21 C -0.19535 -1.88666 0.0598976 0
M  V30 22 O -0.335389 -3.15177 0.106012 0
M  V30 23 H -2.5299 3.8913 2.38929 0
M  V30 24 H -2.79402 4.43928 0.718793 0
M  V30 25 H -3.88111 3.22795 1.41747 0
M  V30 26 H -4.04035 1.25547 1.90519 0
M  V30 27 H -4.28031 -1.22414 1.97939 0
M  V30 28 H -2.02991 -3.56903 1.84753 0
M  V30 29 H -3.00262 -3.48287 0.359781 0
M  V30 30 H 2.23526 -4.05009 -0.135859 0
M  V30 31 H 1.2453 -3.99433 -1.61612 0
M  V30 32 H 3.9156 -2.16804 -1.86558 0
M  V30 33 H 4.15299 0.303454 -1.93874 0
M  V30 34 H 4.45562 2.37423 -1.04841 0
M  V30 35 H 3.63925 2.3172 -2.6504 0
M  V30 36 H 3.41588 3.74734 -1.49412 0
M  V30 END ATOM
M  V30 BEGIN BOND
M  V30 1 1 1 2
M  V30 2 1 2 3
M  V30 3 2 3 4
M  V30 4 1 4 5
M  V30 5 2 5 6
M  V30 6 1 6 7
M  V30 7 1 6 8
M  V30 8 2 8 9
M  V30 9 1 9 10
M  V30 10 2 10 11
M  V30 11 1 10 12
M  V30 12 2 12 13
M  V30 13 1 13 14
M  V30 14 1 14 15
M  V30 15 2 14 16
M  V30 16 1 16 17
M  V30 17 2 17 18
M  V30 18 1 18 19
M  V30 19 1 19 20
M  V30 20 1 13 21
M  V30 21 2 21 22
M  V30 22 1 9 3
M  V30 23 1 18 12
M  V30 24 1 21 8
M  V30 25 1 1 23
M  V30 26 1 1 24
M  V30 27 1 1 25
M  V30 28 1 4 26
M  V30 29 1 5 27
M  V30 30 1 7 28
M  V30 31 1 7 29
M  V30 32 1 15 30
M  V30 33 1 15 31
M  V30 34 1 16 32
M  V30 35 1 17 33
M  V30 36 1 20 34
M  V30 37 1 20 35
M  V30 38 1 20 36
M  V30 END BOND
M  V30 END CTAB
M  END
