
     RDKit          3D

  0  0  0  0  0  0  0  0  0  0999 V3000
M  V30 BEGIN CTAB
M  V30 COUNTS 52 54 0 0 0
M  V30 BEGIN ATOM
M  V30 1 C 0.884751 2.83087 -0.580031 0
M  V30 2 C 1.11187 1.7249 0.454659 0
M  V30 3 N 0.611941 0.468428 -0.00217904 0
M  V30 4 C -0.836338 0.508289 -0.267595 0
M  V30 5 C -1.26733 0.908924 -1.50245 0
M  V30 6 C -2.62317 0.932697 -1.7514 0
M  V30 7 C -3.5649 0.560807 -0.784561 0
M  V30 8 C -3.08228 0.169036 0.432881 0
M  V30 9 C -1.7108 0.135201 0.714452 0
M  V30 10 N -4.92747 0.636892 -1.10178 0
M  V30 11 C -5.94347 -0.170959 -0.569671 0
M  V30 12 C -5.73001 -1.40552 -0.00772013 0
M  V30 13 C -6.76756 -2.15343 0.519059 0
M  V30 14 C -8.06631 -1.66597 0.49038 0
M  V30 15 C -8.30532 -0.444736 -0.0618685 0
M  V30 16 C -7.26122 0.285448 -0.580592 0
M  V30 17 C 1.19011 -0.772814 -0.182343 0
M  V30 18 O 0.361716 -1.76789 -0.413986 0
M  V30 19 C 2.58096 -1.16821 -0.159105 0
M  V30 20 S 3.75962 0.148391 -0.0930668 0
M  V30 21 C 5.44879 -0.426222 -0.0613783 0
M  V30 22 N 5.71195 -1.74675 -0.0893257 0
M  V30 23 C 6.97115 -2.23555 -0.0675759 0
M  V30 24 N 7.22689 -3.62466 -0.0968665 0
M  V30 25 N 7.9579 -1.31497 -0.0155774 0
M  V30 26 C 7.72726 -0.00289056 0.0130428 0
M  V30 27 N 6.45843 0.459439 -0.00959416 0
M  V30 28 N 8.83821 0.881354 0.0697699 0
M  V30 29 C 0.282041 2.19033 1.6743 0
M  V30 30 H 1.23744 2.57962 -1.57618 0
M  V30 31 H 1.45803 3.71164 -0.17712 0
M  V30 32 H -0.161911 3.15901 -0.626465 0
M  V30 33 H 2.15615 1.72144 0.760338 0
M  V30 34 H -0.555861 1.20163 -2.29144 0
M  V30 35 H -2.98066 1.2414 -2.72052 0
M  V30 36 H -3.77949 -0.111655 1.22301 0
M  V30 37 H -1.37938 -0.182348 1.70414 0
M  V30 38 H -5.21967 1.3675 -1.80127 0
M  V30 39 H -4.74409 -1.86169 0.0335887 0
M  V30 40 H -6.52985 -3.12111 0.944158 0
M  V30 41 H -8.83829 -2.30741 0.923183 0
M  V30 42 H -9.33861 -0.0655291 -0.078504 0
M  V30 43 H -7.45405 1.25735 -1.01557 0
M  V30 44 H 2.78324 -1.96854 0.623152 0
M  V30 45 H 2.7558 -1.74774 -1.12082 0
M  V30 46 H 7.21726 -4.15956 0.788194 0
M  V30 47 H 7.42486 -4.11832 -0.986935 0
M  V30 48 H 9.24449 1.22132 0.96827 0
M  V30 49 H 9.28192 1.21795 -0.807995 0
M  V30 50 H -0.680536 2.53657 1.27872 0
M  V30 51 H 0.833425 3.06609 2.07505 0
M  V30 52 H 0.23237 1.42196 2.45039 0
M  V30 END ATOM
M  V30 BEGIN BOND
M  V30 1 1 1 2
M  V30 2 1 2 3
M  V30 3 1 3 4
M  V30 4 2 4 5
M  V30 5 1 5 6
M  V30 6 2 6 7
M  V30 7 1 7 8
M  V30 8 2 8 9
M  V30 9 1 7 10
M  V30 10 1 10 11
M  V30 11 2 11 12
M  V30 12 1 12 13
M  V30 13 2 13 14
M  V30 14 1 14 15
M  V30 15 2 15 16
M  V30 16 1 3 17
M  V30 17 2 17 18
M  V30 18 1 17 19
M  V30 19 1 19 20
M  V30 20 1 20 21
M  V30 21 2 21 22
M  V30 22 1 22 23
M  V30 23 1 23 24
M  V30 24 2 23 25
M  V30 25 1 25 26
M  V30 26 2 26 27
M  V30 27 1 26 28
M  V30 28 1 2 29
M  V30 29 1 9 4
M  V30 30 1 16 11
M  V30 31 1 27 21
M  V30 32 1 1 30
M  V30 33 1 1 31
M  V30 34 1 1 32
M  V30 35 1 2 33
M  V30 36 1 5 34
M  V30 37 1 6 35
M  V30 38 1 8 36
M  V30 39 1 9 37
M  V30 40 1 10 38
M  V30 41 1 12 39
M  V30 42 1 13 40
M  V30 43 1 14 41
M  V30 44 1 15 42
M  V30 45 1 16 43
M  V30 46 1 19 44
M  V30 47 1 19 45
M  V30 48 1 24 46
M  V30 49 1 24 47
M  V30 50 1 28 48
M  V30 51 1 28 49
M  V30 52 1 29 50
M  V30 53 1 29 51
M  V30 54 1 29 52
M  V30 END BOND
M  V30 END CTAB
M  END
