
     RDKit          3D

  0  0  0  0  0  0  0  0  0  0999 V3000
M  V30 BEGIN CTAB
M  V30 COUNTS 51 53 0 0 0
M  V30 BEGIN ATOM
M  V30 1 C 7.64814 0.73746 -0.485862 0
M  V30 2 N 6.49361 -0.100547 -0.296185 0
M  V30 3 N 6.45121 -1.42064 -0.315775 0
M  V30 4 C 5.21504 -1.86572 -0.103389 0
M  V30 5 C 4.41539 -0.758433 0.0627358 0
M  V30 6 C 5.22891 0.342228 -0.0603964 0
M  V30 7 C 2.97695 -0.714532 0.321424 0 CFG=2
M  V30 8 C 2.21596 0.0840323 -0.745853 0
M  V30 9 N 0.939356 0.260035 -0.0893877 0
M  V30 10 C 1.13247 0.268936 1.36975 0
M  V30 11 C 2.62071 0.137719 1.53896 0 CFG=1
M  V30 12 N 2.99803 -0.496803 2.77337 0
M  V30 13 C -0.292652 0.39963 -0.781179 0
M  V30 14 O -0.289412 0.370623 -2.0368 0
M  V30 15 N -1.53124 0.57081 -0.121953 0
M  V30 16 C -2.73759 0.705582 -0.88062 0
M  V30 17 C -3.95092 0.870863 -0.016493 0
M  V30 18 N -3.78232 2.0547 0.793586 0
M  V30 19 C -4.09847 -0.31397 0.879543 0
M  V30 20 C -4.289 -1.58153 0.0748617 0
M  V30 21 C -5.49212 -1.41336 -0.797633 0
M  V30 22 C -5.38133 -0.221415 -1.70373 0
M  V30 23 C -5.15689 1.05004 -0.92538 0
M  V30 24 H 8.41699 0.161924 -1.0164 0
M  V30 25 H 7.36425 1.60607 -1.09309 0
M  V30 26 H 8.00442 1.11597 0.496162 0
M  V30 27 H 4.83459 -2.88278 -0.0561612 0
M  V30 28 H 4.95436 1.39303 0.010457 0
M  V30 29 H 2.51079 -1.70755 0.384545 0
M  V30 30 H 2.69441 1.07698 -0.802968 0
M  V30 31 H 2.15957 -0.445197 -1.69457 0
M  V30 32 H 0.660998 -0.6278 1.83465 0
M  V30 33 H 0.770671 1.21952 1.81061 0
M  V30 34 H 3.13129 1.11498 1.38663 0
M  V30 35 H 3.97141 -0.153248 3.00178 0
M  V30 36 H 2.97163 -1.53226 2.71363 0
M  V30 37 H -1.55355 0.600913 0.906081 0
M  V30 38 H -2.58118 1.58757 -1.55764 0
M  V30 39 H -2.84882 -0.15319 -1.58618 0
M  V30 40 H -2.83212 2.46509 0.722491 0
M  V30 41 H -4.03371 1.90332 1.79025 0
M  V30 42 H -4.92524 -0.165396 1.60958 0
M  V30 43 H -3.17508 -0.434319 1.47327 0
M  V30 44 H -4.48942 -2.39022 0.807926 0
M  V30 45 H -3.36824 -1.78437 -0.482804 0
M  V30 46 H -6.37351 -1.23442 -0.129076 0
M  V30 47 H -5.61861 -2.33163 -1.38765 0
M  V30 48 H -6.37725 -0.10128 -2.22093 0
M  V30 49 H -4.65285 -0.385661 -2.50811 0
M  V30 50 H -6.04791 1.24608 -0.312546 0
M  V30 51 H -4.90168 1.87216 -1.61943 0
M  V30 END ATOM
M  V30 BEGIN BOND
M  V30 1 1 1 2
M  V30 2 1 2 3
M  V30 3 2 3 4
M  V30 4 1 4 5
M  V30 5 2 5 6
M  V30 6 1 5 7
M  V30 7 1 7 8
M  V30 8 1 8 9
M  V30 9 1 9 10
M  V30 10 1 10 11
M  V30 11 1 11 12
M  V30 12 1 9 13
M  V30 13 2 13 14
M  V30 14 1 13 15
M  V30 15 1 15 16
M  V30 16 1 16 17
M  V30 17 1 17 18
M  V30 18 1 17 19
M  V30 19 1 19 20
M  V30 20 1 20 21
M  V30 21 1 21 22
M  V30 22 1 22 23
M  V30 23 1 6 2
M  V30 24 1 11 7
M  V30 25 1 23 17
M  V30 26 1 1 24
M  V30 27 1 1 25
M  V30 28 1 1 26
M  V30 29 1 4 27
M  V30 30 1 6 28
M  V30 31 1 7 29 CFG=1
M  V30 32 1 8 30
M  V30 33 1 8 31
M  V30 34 1 10 32
M  V30 35 1 10 33
M  V30 36 1 11 34 CFG=3
M  V30 37 1 12 35
M  V30 38 1 12 36
M  V30 39 1 15 37
M  V30 40 1 16 38
M  V30 41 1 16 39
M  V30 42 1 18 40
M  V30 43 1 18 41
M  V30 44 1 19 42
M  V30 45 1 19 43
M  V30 46 1 20 44
M  V30 47 1 20 45
M  V30 48 1 21 46
M  V30 49 1 21 47
M  V30 50 1 22 48
M  V30 51 1 22 49
M  V30 52 1 23 50
M  V30 53 1 23 51
M  V30 END BOND
M  V30 END CTAB
M  END
