
     RDKit          3D

  0  0  0  0  0  0  0  0  0  0999 V3000
M  V30 BEGIN CTAB
M  V30 COUNTS 40 41 0 0 0
M  V30 BEGIN ATOM
M  V30 1 C -4.22983 2.56209 0.719301 0
M  V30 2 C -3.48745 1.27204 0.562357 0
M  V30 3 C -2.78679 1.036 -0.580233 0
M  V30 4 C -2.08397 -0.16421 -0.750184 0
M  V30 5 C -2.0776 -1.13288 0.219229 0
M  V30 6 C -2.80938 -0.855381 1.38091 0
M  V30 7 C -3.50225 0.324772 1.5513 0
M  V30 8 C -2.80461 -1.9124 2.44236 0
M  V30 9 N -1.40014 -2.36111 0.0969119 0
M  V30 10 S -0.0923703 -2.54226 -0.980129 0
M  V30 11 O 0.4001 -3.99454 -0.912476 0
M  V30 12 O -0.591574 -2.34286 -2.39638 0
M  V30 13 C 1.26663 -1.50601 -0.627561 0
M  V30 14 C 2.21037 -1.93576 0.314044 0
M  V30 15 C 3.31916 -1.18467 0.646482 0
M  V30 16 C 3.49721 0.0477438 0.0148502 0
M  V30 17 C 2.59288 0.510257 -0.918785 0
M  V30 18 C 1.50479 -0.294968 -1.20313 0
M  V30 19 S 2.86281 2.04329 -1.66971 0
M  V30 20 O 2.88502 3.17363 -0.652866 0
M  V30 21 O 1.73774 2.34511 -2.62042 0
M  V30 22 N 4.33994 2.12264 -2.53586 0
M  V30 23 N 4.61875 0.844152 0.328597 0
M  V30 24 H -4.41482 2.70861 1.79422 0
M  V30 25 H -3.54534 3.35064 0.344221 0
M  V30 26 H -5.14469 2.54868 0.108338 0
M  V30 27 H -2.77459 1.77872 -1.35681 0
M  V30 28 H -1.57347 -0.2545 -1.67727 0
M  V30 29 H -4.06461 0.523131 2.45913 0
M  V30 30 H -3.22899 -2.86247 2.06836 0
M  V30 31 H -3.37602 -1.52911 3.29167 0
M  V30 32 H -1.74509 -2.03137 2.7918 0
M  V30 33 H -1.74184 -3.17268 0.707022 0
M  V30 34 H 2.02679 -2.90136 0.777343 0
M  V30 35 H 4.01367 -1.56714 1.38021 0
M  V30 36 H 0.79757 0.069439 -1.94021 0
M  V30 37 H 4.23572 2.40525 -3.52396 0
M  V30 38 H 5.09649 2.61191 -2.01953 0
M  V30 39 H 4.57852 1.54235 1.08694 0
M  V30 40 H 5.49129 0.725236 -0.209354 0
M  V30 END ATOM
M  V30 BEGIN BOND
M  V30 1 1 1 2
M  V30 2 2 2 3
M  V30 3 1 3 4
M  V30 4 2 4 5
M  V30 5 1 5 6
M  V30 6 2 6 7
M  V30 7 1 6 8
M  V30 8 1 5 9
M  V30 9 1 9 10
M  V30 10 2 10 11
M  V30 11 2 10 12
M  V30 12 1 10 13
M  V30 13 2 13 14
M  V30 14 1 14 15
M  V30 15 2 15 16
M  V30 16 1 16 17
M  V30 17 2 17 18
M  V30 18 1 17 19
M  V30 19 2 19 20
M  V30 20 2 19 21
M  V30 21 1 19 22
M  V30 22 1 16 23
M  V30 23 1 7 2
M  V30 24 1 18 13
M  V30 25 1 1 24
M  V30 26 1 1 25
M  V30 27 1 1 26
M  V30 28 1 3 27
M  V30 29 1 4 28
M  V30 30 1 7 29
M  V30 31 1 8 30
M  V30 32 1 8 31
M  V30 33 1 8 32
M  V30 34 1 9 33
M  V30 35 1 14 34
M  V30 36 1 15 35
M  V30 37 1 18 36
M  V30 38 1 22 37
M  V30 39 1 22 38
M  V30 40 1 23 39
M  V30 41 1 23 40
M  V30 END BOND
M  V30 END CTAB
M  END
