
     RDKit          3D

  0  0  0  0  0  0  0  0  0  0999 V3000
M  V30 BEGIN CTAB
M  V30 COUNTS 26 26 0 0 0
M  V30 BEGIN ATOM
M  V30 1 N -0.827806 -2.01831 -0.57601 0
M  V30 2 C -0.299194 -0.931529 0.205164 0
M  V30 3 C -1.27168 0.219317 0.161697 0
M  V30 4 C -2.60719 -0.211408 0.732004 0
M  V30 5 C -1.49903 0.734254 -1.2324 0
M  V30 6 C -0.784926 1.3844 1.00483 0
M  V30 7 C 1.05682 -0.526013 -0.213868 0
M  V30 8 O 1.428 -0.359803 -1.45688 0
M  V30 9 N 2.68529 -0.000817799 -1.49789 0
M  V30 10 C 3.17289 0.0767697 -0.254145 0
M  V30 11 N 2.12879 -0.25914 0.552294 0
M  V30 12 N 4.47613 0.426525 0.159808 0
M  V30 13 H -0.0365828 -2.66899 -0.785613 0
M  V30 14 H -1.55323 -2.56008 -0.0998178 0
M  V30 15 H -0.277664 -1.28199 1.27189 0
M  V30 16 H -2.42972 -0.752852 1.69693 0
M  V30 17 H -3.06591 -0.884566 -0.0269298 0
M  V30 18 H -3.21339 0.699747 0.863774 0
M  V30 19 H -0.58418 1.11793 -1.70953 0
M  V30 20 H -2.01126 -0.0379028 -1.86333 0
M  V30 21 H -2.20702 1.58544 -1.15567 0
M  V30 22 H -1.51244 2.22129 0.810753 0
M  V30 23 H -0.868495 1.1739 2.09212 0
M  V30 24 H 0.197916 1.75205 0.694215 0
M  V30 25 H 4.93157 1.27442 -0.212565 0
M  V30 26 H 4.97231 -0.172642 0.839187 0
M  V30 END ATOM
M  V30 BEGIN BOND
M  V30 1 1 1 2
M  V30 2 1 2 3
M  V30 3 1 3 4
M  V30 4 1 3 5
M  V30 5 1 3 6
M  V30 6 1 2 7
M  V30 7 1 7 8
M  V30 8 1 8 9
M  V30 9 2 9 10
M  V30 10 1 10 11
M  V30 11 1 10 12
M  V30 12 2 11 7
M  V30 13 1 1 13
M  V30 14 1 1 14
M  V30 15 1 2 15
M  V30 16 1 4 16
M  V30 17 1 4 17
M  V30 18 1 4 18
M  V30 19 1 5 19
M  V30 20 1 5 20
M  V30 21 1 5 21
M  V30 22 1 6 22
M  V30 23 1 6 23
M  V30 24 1 6 24
M  V30 25 1 12 25
M  V30 26 1 12 26
M  V30 END BOND
M  V30 END CTAB
M  END
