
     RDKit          3D

  0  0  0  0  0  0  0  0  0  0999 V3000
M  V30 BEGIN CTAB
M  V30 COUNTS 26 26 0 0 0
M  V30 BEGIN ATOM
M  V30 1 C -3.94434 0.143957 0.841189 0
M  V30 2 C -2.50143 0.0462391 0.588183 0
M  V30 3 C -1.58441 -0.0870284 1.61916 0
M  V30 4 N -0.266473 -0.172834 1.33038 0
M  V30 5 C 0.180638 -0.132373 0.0674345 0
M  V30 6 C -0.70703 6.70144e-06 -0.987127 0
M  V30 7 C -2.04999 0.0885508 -0.711484 0
M  V30 8 N -2.97949 0.224937 -1.7786 0
M  V30 9 N 1.57146 -0.227131 -0.166782 0
M  V30 10 C 2.47565 -0.364117 0.942838 0
M  V30 11 C 3.91097 -0.451216 0.523771 0
M  V30 12 N 4.36338 0.703503 -0.19878 0
M  V30 13 H -4.46144 -0.851911 0.838798 0
M  V30 14 H -4.06894 0.51388 1.89759 0
M  V30 15 H -4.45918 0.870248 0.197201 0
M  V30 16 H -1.94921 -0.119643 2.64304 0
M  V30 17 H -0.341176 0.0331166 -2.02059 0
M  V30 18 H -4.00685 0.0949194 -1.65181 0
M  V30 19 H -2.66398 0.464105 -2.74455 0
M  V30 20 H 1.9537 -0.198994 -1.13798 0
M  V30 21 H 2.3843 0.474428 1.66721 0
M  V30 22 H 2.25066 -1.30481 1.51686 0
M  V30 23 H 4.13489 -1.37076 -0.0551869 0
M  V30 24 H 4.52262 -0.52043 1.45127 0
M  V30 25 H 4.36199 0.559953 -1.22877 0
M  V30 26 H 3.87369 1.58341 0.0831712 0
M  V30 END ATOM
M  V30 BEGIN BOND
M  V30 1 1 1 2
M  V30 2 2 2 3
M  V30 3 1 3 4
M  V30 4 2 4 5
M  V30 5 1 5 6
M  V30 6 2 6 7
M  V30 7 1 7 8
M  V30 8 1 5 9
M  V30 9 1 9 10
M  V30 10 1 10 11
M  V30 11 1 11 12
M  V30 12 1 7 2
M  V30 13 1 1 13
M  V30 14 1 1 14
M  V30 15 1 1 15
M  V30 16 1 3 16
M  V30 17 1 6 17
M  V30 18 1 8 18
M  V30 19 1 8 19
M  V30 20 1 9 20
M  V30 21 1 10 21
M  V30 22 1 10 22
M  V30 23 1 11 23
M  V30 24 1 11 24
M  V30 25 1 12 25
M  V30 26 1 12 26
M  V30 END BOND
M  V30 END CTAB
M  END
