
     RDKit          3D

  0  0  0  0  0  0  0  0  0  0999 V3000
M  V30 BEGIN CTAB
M  V30 COUNTS 27 27 0 0 0
M  V30 BEGIN ATOM
M  V30 1 C 2.99025 -1.31376 -0.591791 0
M  V30 2 O 2.1511 -0.77763 0.37927 0
M  V30 3 C 0.796571 -0.545793 0.235035 0
M  V30 4 C -0.052093 -1.59199 0.5961 0
M  V30 5 N 0.480768 -2.80875 1.0793 0
M  V30 6 C -1.41332 -1.38228 0.459975 0
M  V30 7 C -1.89679 -0.17222 -0.0186368 0
M  V30 8 C -3.35639 0.0207106 -0.152475 0
M  V30 9 C -1.05204 0.859423 -0.374354 0
M  V30 10 N -1.60262 2.07652 -0.858424 0
M  V30 11 C 0.303623 0.652255 -0.239422 0
M  V30 12 O 1.20435 1.65206 -0.580748 0
M  V30 13 C 1.67524 2.62963 0.294181 0
M  V30 14 H 3.85536 -1.79397 -0.046753 0
M  V30 15 H 3.44433 -0.543397 -1.25998 0
M  V30 16 H 2.55166 -2.08734 -1.2253 0
M  V30 17 H 0.213213 -3.16393 2.01187 0
M  V30 18 H 1.14347 -3.34963 0.497436 0
M  V30 19 H -2.09778 -2.17436 0.731607 0
M  V30 20 H -3.76465 -0.429885 -1.08571 0
M  V30 21 H -3.68258 1.05946 0.0106492 0
M  V30 22 H -3.82327 -0.575798 0.686125 0
M  V30 23 H -2.31923 2.5745 -0.287544 0
M  V30 24 H -1.33943 2.52292 -1.76388 0
M  V30 25 H 1.75812 3.58629 -0.270923 0
M  V30 26 H 1.0918 2.71005 1.21166 0
M  V30 27 H 2.74036 2.36691 0.562744 0
M  V30 END ATOM
M  V30 BEGIN BOND
M  V30 1 1 1 2
M  V30 2 1 2 3
M  V30 3 2 3 4
M  V30 4 1 4 5
M  V30 5 1 4 6
M  V30 6 2 6 7
M  V30 7 1 7 8
M  V30 8 1 7 9
M  V30 9 1 9 10
M  V30 10 2 9 11
M  V30 11 1 11 12
M  V30 12 1 12 13
M  V30 13 1 11 3
M  V30 14 1 1 14
M  V30 15 1 1 15
M  V30 16 1 1 16
M  V30 17 1 5 17
M  V30 18 1 5 18
M  V30 19 1 6 19
M  V30 20 1 8 20
M  V30 21 1 8 21
M  V30 22 1 8 22
M  V30 23 1 10 23
M  V30 24 1 10 24
M  V30 25 1 13 25
M  V30 26 1 13 26
M  V30 27 1 13 27
M  V30 END BOND
M  V30 END CTAB
M  END
