
     RDKit          3D

  0  0  0  0  0  0  0  0  0  0999 V3000
M  V30 BEGIN CTAB
M  V30 COUNTS 44 46 0 0 0
M  V30 BEGIN ATOM
M  V30 1 N 6.06247 1.79658 -1.16856 0
M  V30 2 C 4.78926 1.4653 -0.632785 0
M  V30 3 C 4.64751 0.379117 0.20773 0
M  V30 4 C 3.40656 0.047923 0.736127 0
M  V30 5 C 2.28133 0.787626 0.441307 0
M  V30 6 C 2.41265 1.87212 -0.395577 0
M  V30 7 C 3.65769 2.20574 -0.926716 0
M  V30 8 O 1.01652 0.506957 0.937531 0
M  V30 9 C 0.889816 -0.610283 1.79772 0
M  V30 10 C -0.527178 -0.78639 2.25081 0
M  V30 11 N -1.4504 -0.995801 1.17493 0
M  V30 12 C -2.10327 0.127033 0.557526 0
M  V30 13 N -1.84927 1.3898 0.98145 0
M  V30 14 C -2.4868 2.39941 0.368837 0
M  V30 15 N -2.24776 3.75993 0.786382 0
M  V30 16 C -3.37621 2.18409 -0.661224 0
M  V30 17 C -3.64007 0.905773 -1.09788 0
M  V30 18 C -2.98004 -0.159664 -0.465717 0
M  V30 19 O -3.22109 -1.45902 -0.877884 0
M  V30 20 C -2.23784 -2.4513 -0.668077 0
M  V30 21 C -1.74474 -2.29954 0.700706 0
M  V30 22 O -1.57586 -3.26358 1.45663 0
M  V30 23 C -2.84866 -3.81464 -0.91371 0
M  V30 24 C -1.15981 -2.23192 -1.70861 0
M  V30 25 H 6.60449 2.56704 -0.719364 0
M  V30 26 H 6.41164 1.25079 -2.00054 0
M  V30 27 H 5.53649 -0.211052 0.444954 0
M  V30 28 H 3.31748 -0.802529 1.38926 0
M  V30 29 H 1.58826 2.51281 -0.685062 0
M  V30 30 H 3.79575 3.05275 -1.58839 0
M  V30 31 H 1.19072 -1.49745 1.16501 0
M  V30 32 H 1.59546 -0.449461 2.62495 0
M  V30 33 H -0.829184 0.158632 2.76333 0
M  V30 34 H -0.564779 -1.57751 3.01866 0
M  V30 35 H -2.37087 4.52058 0.0863803 0
M  V30 36 H -1.96031 3.93072 1.77475 0
M  V30 37 H -3.8843 2.99772 -1.14856 0
M  V30 38 H -4.32822 0.675868 -1.9017 0
M  V30 39 H -3.91624 -3.69973 -1.24344 0
M  V30 40 H -2.82348 -4.35249 0.0584055 0
M  V30 41 H -2.29616 -4.3684 -1.70672 0
M  V30 42 H -0.561669 -3.14215 -1.84248 0
M  V30 43 H -1.69461 -1.98308 -2.66968 0
M  V30 44 H -0.525276 -1.33834 -1.4495 0
M  V30 END ATOM
M  V30 BEGIN BOND
M  V30 1 1 1 2
M  V30 2 2 2 3
M  V30 3 1 3 4
M  V30 4 2 4 5
M  V30 5 1 5 6
M  V30 6 2 6 7
M  V30 7 1 5 8
M  V30 8 1 8 9
M  V30 9 1 9 10
M  V30 10 1 10 11
M  V30 11 1 11 12
M  V30 12 2 12 13
M  V30 13 1 13 14
M  V30 14 1 14 15
M  V30 15 2 14 16
M  V30 16 1 16 17
M  V30 17 2 17 18
M  V30 18 1 18 19
M  V30 19 1 19 20
M  V30 20 1 20 21
M  V30 21 2 21 22
M  V30 22 1 20 23
M  V30 23 1 20 24
M  V30 24 1 7 2
M  V30 25 1 21 11
M  V30 26 1 18 12
M  V30 27 1 1 25
M  V30 28 1 1 26
M  V30 29 1 3 27
M  V30 30 1 4 28
M  V30 31 1 6 29
M  V30 32 1 7 30
M  V30 33 1 9 31
M  V30 34 1 9 32
M  V30 35 1 10 33
M  V30 36 1 10 34
M  V30 37 1 15 35
M  V30 38 1 15 36
M  V30 39 1 16 37
M  V30 40 1 17 38
M  V30 41 1 23 39
M  V30 42 1 23 40
M  V30 43 1 23 41
M  V30 44 1 24 42
M  V30 45 1 24 43
M  V30 46 1 24 44
M  V30 END BOND
M  V30 END CTAB
M  END
