
     RDKit          3D

  0  0  0  0  0  0  0  0  0  0999 V3000
M  V30 BEGIN CTAB
M  V30 COUNTS 50 51 0 0 0
M  V30 BEGIN ATOM
M  V30 1 N -5.54176 -2.82226 -1.44945 0
M  V30 2 S -4.83976 -2.86241 0.13433 0
M  V30 3 O -3.90069 -4.03963 0.171171 0
M  V30 4 O -5.9536 -3.02108 1.12513 0
M  V30 5 C -3.9278 -1.40185 0.3874 0
M  V30 6 C -2.58376 -1.28855 0.112209 0
M  V30 7 C -1.87894 -0.0958931 0.324654 0
M  V30 8 N -0.507816 0.0176158 0.0526029 0
M  V30 9 C 0.0908448 0.944733 -0.886117 0
M  V30 10 C 1.33066 1.50101 -0.242414 0
M  V30 11 N 2.35676 0.439038 -0.284359 0
M  V30 12 C 3.04037 0.621047 -1.53563 0
M  V30 13 C 4.24355 -0.205378 -1.78001 0
M  V30 14 O 5.32044 -0.0386792 -0.974983 0
M  V30 15 C 5.17778 -0.237099 0.343488 0
M  V30 16 C 6.5 -0.0882959 1.10539 0
M  V30 17 O 7.45578 -0.993679 0.672905 0
M  V30 18 C 1.70619 -0.861931 -0.228563 0
M  V30 19 C 0.495397 -0.834564 0.717386 0
M  V30 20 C -2.55661 0.993908 0.823996 0
M  V30 21 Cl -1.77748 2.52921 1.11985 0
M  V30 22 C -3.90803 0.886067 1.10288 0
M  V30 23 C -4.59993 -0.298373 0.89046 0
M  V30 24 S -4.74072 2.30445 1.74709 0
M  V30 25 N -4.55372 3.54744 0.545104 0
M  V30 26 O -4.0274 2.7561 2.99517 0
M  V30 27 O -6.17075 1.98586 1.98264 0
M  V30 28 H -4.89841 -2.27707 -2.06429 0
M  V30 29 H -5.69517 -3.79861 -1.73434 0
M  V30 30 H -2.03983 -2.13796 -0.281639 0
M  V30 31 H -0.61624 1.73423 -1.20655 0
M  V30 32 H 0.343539 0.363609 -1.80466 0
M  V30 33 H 1.71346 2.38084 -0.80155 0
M  V30 34 H 1.22843 1.72573 0.834438 0
M  V30 35 H 3.33977 1.71225 -1.55354 0
M  V30 36 H 2.28123 0.540833 -2.35154 0
M  V30 37 H 4.58158 0.0522885 -2.84212 0
M  V30 38 H 3.95491 -1.29494 -1.83377 0
M  V30 39 H 4.76854 -1.22427 0.60999 0
M  V30 40 H 4.56624 0.613832 0.756188 0
M  V30 41 H 6.87885 0.936116 1.07504 0
M  V30 42 H 6.27453 -0.325742 2.16217 0
M  V30 43 H 8.00308 -0.53826 -0.00400111 0
M  V30 44 H 2.41469 -1.57629 0.222983 0
M  V30 45 H 1.43441 -1.2534 -1.21229 0
M  V30 46 H 0.787349 -0.455584 1.69252 0
M  V30 47 H 0.0935319 -1.85363 0.737718 0
M  V30 48 H -5.65165 -0.370442 1.11081 0
M  V30 49 H -5.06728 3.20191 -0.307524 0
M  V30 50 H -4.9446 4.40777 0.9412 0
M  V30 END ATOM
M  V30 BEGIN BOND
M  V30 1 1 1 2
M  V30 2 2 2 3
M  V30 3 2 2 4
M  V30 4 1 2 5
M  V30 5 2 5 6
M  V30 6 1 6 7
M  V30 7 1 7 8
M  V30 8 1 8 9
M  V30 9 1 9 10
M  V30 10 1 10 11
M  V30 11 1 11 12
M  V30 12 1 12 13
M  V30 13 1 13 14
M  V30 14 1 14 15
M  V30 15 1 15 16
M  V30 16 1 16 17
M  V30 17 1 11 18
M  V30 18 1 18 19
M  V30 19 2 7 20
M  V30 20 1 20 21
M  V30 21 1 20 22
M  V30 22 2 22 23
M  V30 23 1 22 24
M  V30 24 1 24 25
M  V30 25 2 24 26
M  V30 26 2 24 27
M  V30 27 1 23 5
M  V30 28 1 19 8
M  V30 29 1 1 28
M  V30 30 1 1 29
M  V30 31 1 6 30
M  V30 32 1 9 31
M  V30 33 1 9 32
M  V30 34 1 10 33
M  V30 35 1 10 34
M  V30 36 1 12 35
M  V30 37 1 12 36
M  V30 38 1 13 37
M  V30 39 1 13 38
M  V30 40 1 15 39
M  V30 41 1 15 40
M  V30 42 1 16 41
M  V30 43 1 16 42
M  V30 44 1 17 43
M  V30 45 1 18 44
M  V30 46 1 18 45
M  V30 47 1 19 46
M  V30 48 1 19 47
M  V30 49 1 23 48
M  V30 50 1 25 49
M  V30 51 1 25 50
M  V30 END BOND
M  V30 END CTAB
M  END
