
     RDKit          3D

  0  0  0  0  0  0  0  0  0  0999 V3000
M  V30 BEGIN CTAB
M  V30 COUNTS 35 35 0 0 0
M  V30 BEGIN ATOM
M  V30 1 N 4.65791 1.77679 0.769857 0
M  V30 2 C 3.39331 1.37352 0.226009 0
M  V30 3 C 3.44689 -0.118451 -0.0548752 0
M  V30 4 C 2.10195 -0.496924 -0.623156 0
M  V30 5 O 2.05731 -0.985301 -1.75572 0
M  V30 6 N 0.96839 -0.275719 0.162256 0
M  V30 7 C -0.345546 -0.568924 -0.196635 0
M  V30 8 C -0.707893 -1.39979 -1.2064 0
M  V30 9 C -2.05799 -1.63129 -1.52741 0
M  V30 10 C -3.05714 -1.00824 -0.809602 0
M  V30 11 C -2.7108 -0.156304 0.225898 0
M  V30 12 C -1.3824 0.0518157 0.517643 0
M  V30 13 S -3.987 0.62675 1.12751 0
M  V30 14 O -4.72004 1.54747 0.181139 0
M  V30 15 O -4.91431 -0.341355 1.77657 0
M  V30 16 N -3.22646 1.61634 2.34341 0
M  V30 17 C -4.49253 -1.21314 -1.10092 0
M  V30 18 C 4.52973 -0.443688 -1.04388 0
M  V30 19 H 5.34418 2.09967 0.0679911 0
M  V30 20 H 5.04749 1.11346 1.47729 0
M  V30 21 H 3.23487 1.9336 -0.724615 0
M  V30 22 H 2.5289 1.59815 0.866725 0
M  V30 23 H 3.61231 -0.655531 0.889171 0
M  V30 24 H 1.08783 0.159536 1.1531 0
M  V30 25 H -0.00467773 -1.92088 -1.79022 0
M  V30 26 H -2.29862 -2.29684 -2.33544 0
M  V30 27 H -1.15182 0.720991 1.32855 0
M  V30 28 H -3.97325 2.00418 2.97559 0
M  V30 29 H -2.68159 2.38467 1.89359 0
M  V30 30 H -5.02957 -1.72742 -0.25493 0
M  V30 31 H -5.02366 -0.306812 -1.40892 0
M  V30 32 H -4.59141 -1.93327 -1.95553 0
M  V30 33 H 4.73842 0.506086 -1.61249 0
M  V30 34 H 5.44538 -0.826342 -0.572316 0
M  V30 35 H 4.16182 -1.20679 -1.75505 0
M  V30 END ATOM
M  V30 BEGIN BOND
M  V30 1 1 1 2
M  V30 2 1 2 3
M  V30 3 1 3 4
M  V30 4 2 4 5
M  V30 5 1 4 6
M  V30 6 1 6 7
M  V30 7 2 7 8
M  V30 8 1 8 9
M  V30 9 2 9 10
M  V30 10 1 10 11
M  V30 11 2 11 12
M  V30 12 1 11 13
M  V30 13 2 13 14
M  V30 14 2 13 15
M  V30 15 1 13 16
M  V30 16 1 10 17
M  V30 17 1 3 18
M  V30 18 1 12 7
M  V30 19 1 1 19
M  V30 20 1 1 20
M  V30 21 1 2 21
M  V30 22 1 2 22
M  V30 23 1 3 23
M  V30 24 1 6 24
M  V30 25 1 8 25
M  V30 26 1 9 26
M  V30 27 1 12 27
M  V30 28 1 16 28
M  V30 29 1 16 29
M  V30 30 1 17 30
M  V30 31 1 17 31
M  V30 32 1 17 32
M  V30 33 1 18 33
M  V30 34 1 18 34
M  V30 35 1 18 35
M  V30 END BOND
M  V30 END CTAB
M  END
