
     RDKit          3D

  0  0  0  0  0  0  0  0  0  0999 V3000
M  V30 BEGIN CTAB
M  V30 COUNTS 36 37 0 0 0
M  V30 BEGIN ATOM
M  V30 1 O -0.35158 -2.77409 -0.215609 0
M  V30 2 C 0.0352419 -1.60965 -0.131054 0
M  V30 3 N -0.720889 -0.432949 -0.144872 0
M  V30 4 C -2.238 -1.19103 -0.216853 0
M  V30 5 O -2.24079 -2.35483 -0.18364 0
M  V30 6 C -3.31396 -0.268314 -0.309594 0
M  V30 7 C -3.26235 1.08885 -0.400837 0
M  V30 8 C -4.4233 1.8594 -0.509371 0
M  V30 9 C -5.63657 1.23445 -0.525542 0
M  V30 10 C -5.68824 -0.137615 -0.433832 0
M  V30 11 C -4.58323 -0.922631 -0.325597 0
M  V30 12 N -4.63027 -2.33614 -0.229403 0
M  V30 13 N 1.50273 -1.43704 0.00493815 0
M  V30 14 C 2.00413 -0.145805 0.107189 0
M  V30 15 O 1.2565 0.853274 0.0837332 0
M  V30 16 C 3.4587 0.101779 0.251388 0
M  V30 17 C 4.36125 -0.931783 0.29148 0
M  V30 18 C 5.73086 -0.669341 0.426139 0
M  V30 19 C 6.1891 0.624313 0.521265 0
M  V30 20 C 5.27333 1.65979 0.479667 0
M  V30 21 C 3.91089 1.38533 0.343768 0
M  V30 22 N 3.00011 2.51406 0.307532 0
M  V30 23 H -1.21959 0.343021 -0.153991 0
M  V30 24 H -2.33215 1.6178 -0.396754 0
M  V30 25 H -4.36789 2.95197 -0.584817 0
M  V30 26 H -6.57027 1.79094 -0.612906 0
M  V30 27 H -6.66708 -0.654728 -0.450214 0
M  V30 28 H -4.82748 -2.76933 0.690168 0
M  V30 29 H -4.46931 -2.93276 -1.05999 0
M  V30 30 H 2.08735 -2.28605 0.0197374 0
M  V30 31 H 4.04131 -1.94323 0.228954 0
M  V30 32 H 6.44484 -1.50289 0.457136 0
M  V30 33 H 7.26478 0.846048 0.628448 0
M  V30 34 H 5.57538 2.69361 0.553875 0
M  V30 35 H 2.47305 2.65191 1.19219 0
M  V30 36 H 2.93338 3.08368 -0.544744 0
M  V30 END ATOM
M  V30 BEGIN BOND
M  V30 1 2 1 2
M  V30 2 1 2 3
M  V30 3 1 3 4
M  V30 4 2 4 5
M  V30 5 1 4 6
M  V30 6 2 6 7
M  V30 7 1 7 8
M  V30 8 2 8 9
M  V30 9 1 9 10
M  V30 10 2 10 11
M  V30 11 1 11 12
M  V30 12 1 2 13
M  V30 13 1 13 14
M  V30 14 2 14 15
M  V30 15 1 14 16
M  V30 16 2 16 17
M  V30 17 1 17 18
M  V30 18 2 18 19
M  V30 19 1 19 20
M  V30 20 2 20 21
M  V30 21 1 21 22
M  V30 22 1 11 6
M  V30 23 1 21 16
M  V30 24 1 3 23
M  V30 25 1 7 24
M  V30 26 1 8 25
M  V30 27 1 9 26
M  V30 28 1 10 27
M  V30 29 1 12 28
M  V30 30 1 12 29
M  V30 31 1 13 30
M  V30 32 1 17 31
M  V30 33 1 18 32
M  V30 34 1 19 33
M  V30 35 1 20 34
M  V30 36 1 22 35
M  V30 37 1 22 36
M  V30 END BOND
M  V30 END CTAB
M  END
