
     RDKit          3D

  0  0  0  0  0  0  0  0  0  0999 V3000
M  V30 BEGIN CTAB
M  V30 COUNTS 52 55 0 0 0
M  V30 BEGIN ATOM
M  V30 1 N 5.36474 3.54559 1.86404 0
M  V30 2 C 4.45219 2.54589 1.43679 0
M  V30 3 C 3.35156 2.82838 0.644756 0
M  V30 4 C 2.47066 1.86902 0.230211 0
M  V30 5 C 2.66562 0.548281 0.605629 0
M  V30 6 C 3.72767 0.21868 1.38271 0
M  V30 7 C 4.6222 1.23349 1.79506 0
M  V30 8 C 1.63901 -0.428493 0.194436 0
M  V30 9 N 0.509809 0.0492875 -0.197349 0
M  V30 10 N -0.541361 -0.66589 -0.611645 0
M  V30 11 C -1.7723 -0.290045 -0.680108 0
M  V30 12 C -2.15252 1.0524 -0.275377 0
M  V30 13 C -1.46427 1.80185 0.655804 0
M  V30 14 C -1.81227 3.13263 0.904552 0
M  V30 15 C -2.84438 3.75654 0.245501 0
M  V30 16 C -3.53761 3.03285 -0.678667 0
M  V30 17 C -3.1933 1.72229 -0.924235 0
M  V30 18 N -3.20844 5.11073 0.490911 0
M  V30 19 C -2.72633 -1.31102 -1.17172 0
M  V30 20 C -2.21115 -2.42678 -1.82679 0
M  V30 21 C -3.01253 -3.44373 -2.24876 0
M  V30 22 C -4.37616 -3.38051 -2.02786 0
M  V30 23 C -4.90059 -2.29481 -1.38624 0
M  V30 24 C -4.07141 -1.26065 -0.958005 0
M  V30 25 C 1.85029 -1.85938 0.27272 0
M  V30 26 C 0.860759 -2.77728 0.523102 0
M  V30 27 C 1.10821 -4.14305 0.441968 0
M  V30 28 C 2.33466 -4.63512 0.114223 0
M  V30 29 C 3.33897 -3.73315 -0.139425 0
M  V30 30 C 3.11373 -2.36835 -0.0656108 0
M  V30 31 H 5.05634 4.17221 2.63246 0
M  V30 32 H 6.29037 3.6063 1.39518 0
M  V30 33 H 3.22865 3.87441 0.368587 0
M  V30 34 H 1.61568 2.13724 -0.39493 0
M  V30 35 H 3.89555 -0.786364 1.72985 0
M  V30 36 H 5.44297 0.903258 2.40792 0
M  V30 37 H -0.657947 1.4411 1.26654 0
M  V30 38 H -1.27504 3.73161 1.63586 0
M  V30 39 H -4.35413 3.52494 -1.19995 0
M  V30 40 H -3.75686 1.23262 -1.68977 0
M  V30 41 H -4.23117 5.38557 0.545976 0
M  V30 42 H -2.53654 5.88327 0.626032 0
M  V30 43 H -1.13084 -2.46521 -1.99772 0
M  V30 44 H -2.63494 -4.32971 -2.76454 0
M  V30 45 H -5.00686 -4.20196 -2.37186 0
M  V30 46 H -5.95833 -2.21358 -1.19802 0
M  V30 47 H -4.50233 -0.432185 -0.418221 0
M  V30 48 H -0.126835 -2.48654 0.820486 0
M  V30 49 H 0.299597 -4.82096 0.646106 0
M  V30 50 H 2.47573 -5.71332 0.0650025 0
M  V30 51 H 4.3227 -4.11981 -0.401591 0
M  V30 52 H 3.95879 -1.75253 -0.314026 0
M  V30 END ATOM
M  V30 BEGIN BOND
M  V30 1 1 1 2
M  V30 2 2 2 3
M  V30 3 1 3 4
M  V30 4 2 4 5
M  V30 5 1 5 6
M  V30 6 2 6 7
M  V30 7 1 5 8
M  V30 8 2 8 9
M  V30 9 1 9 10
M  V30 10 2 10 11
M  V30 11 1 11 12
M  V30 12 2 12 13
M  V30 13 1 13 14
M  V30 14 2 14 15
M  V30 15 1 15 16
M  V30 16 2 16 17
M  V30 17 1 15 18
M  V30 18 1 11 19
M  V30 19 2 19 20
M  V30 20 1 20 21
M  V30 21 2 21 22
M  V30 22 1 22 23
M  V30 23 2 23 24
M  V30 24 1 8 25
M  V30 25 2 25 26
M  V30 26 1 26 27
M  V30 27 2 27 28
M  V30 28 1 28 29
M  V30 29 2 29 30
M  V30 30 1 7 2
M  V30 31 1 17 12
M  V30 32 1 24 19
M  V30 33 1 30 25
M  V30 34 1 1 31
M  V30 35 1 1 32
M  V30 36 1 3 33
M  V30 37 1 4 34
M  V30 38 1 6 35
M  V30 39 1 7 36
M  V30 40 1 13 37
M  V30 41 1 14 38
M  V30 42 1 16 39
M  V30 43 1 17 40
M  V30 44 1 18 41
M  V30 45 1 18 42
M  V30 46 1 20 43
M  V30 47 1 21 44
M  V30 48 1 22 45
M  V30 49 1 23 46
M  V30 50 1 24 47
M  V30 51 1 26 48
M  V30 52 1 27 49
M  V30 53 1 28 50
M  V30 54 1 29 51
M  V30 55 1 30 52
M  V30 END BOND
M  V30 END CTAB
M  END
