
     RDKit          3D

  0  0  0  0  0  0  0  0  0  0999 V3000
M  V30 BEGIN CTAB
M  V30 COUNTS 20 20 0 0 0
M  V30 BEGIN ATOM
M  V30 1 C 3.15825 0.273374 0.38189 0
M  V30 2 O 2.02096 -0.462034 -0.0293449 0
M  V30 3 C 0.742405 0.0673802 0.0910392 0
M  V30 4 C 0.517596 1.32491 0.612522 0
M  V30 5 C -0.798323 1.78475 0.699882 0
M  V30 6 C -1.86955 1.01961 0.281406 0
M  V30 7 C -1.64124 -0.247539 -0.243922 0
M  V30 8 C -0.333505 -0.689508 -0.324284 0
M  V30 9 N -0.131104 -1.9877 -0.865131 0
M  V30 10 N -2.71987 -1.06582 -0.685861 0
M  V30 11 Cl -3.51759 1.625 0.403478 0
M  V30 12 H 3.34671 0.122667 1.47318 0
M  V30 13 H 3.09567 1.34473 0.104438 0
M  V30 14 H 4.05059 -0.126051 -0.183664 0
M  V30 15 H 1.33812 1.94567 0.947964 0
M  V30 16 H -0.942484 2.77403 1.11286 0
M  V30 17 H -0.650611 -2.38799 -1.65726 0
M  V30 18 H 0.619474 -2.56552 -0.396032 0
M  V30 19 H -3.51103 -0.657375 -1.22267 0
M  V30 20 H -2.77447 -2.09261 -0.500491 0
M  V30 END ATOM
M  V30 BEGIN BOND
M  V30 1 1 1 2
M  V30 2 1 2 3
M  V30 3 2 3 4
M  V30 4 1 4 5
M  V30 5 2 5 6
M  V30 6 1 6 7
M  V30 7 2 7 8
M  V30 8 1 8 9
M  V30 9 1 7 10
M  V30 10 1 6 11
M  V30 11 1 8 3
M  V30 12 1 1 12
M  V30 13 1 1 13
M  V30 14 1 1 14
M  V30 15 1 4 15
M  V30 16 1 5 16
M  V30 17 1 9 17
M  V30 18 1 9 18
M  V30 19 1 10 19
M  V30 20 1 10 20
M  V30 END BOND
M  V30 END CTAB
M  END
