
     RDKit          3D

  0  0  0  0  0  0  0  0  0  0999 V3000
M  V30 BEGIN CTAB
M  V30 COUNTS 25 26 0 0 0
M  V30 BEGIN ATOM
M  V30 1 C -3.2009 -0.126794 -0.140485 0
M  V30 2 C -1.73682 0.10908 -0.0605391 0
M  V30 3 C -0.870965 -0.959695 -0.12515 0
M  V30 4 N -1.42251 -2.25714 -0.267198 0
M  V30 5 C 0.479192 -0.702591 -0.0477478 0
M  V30 6 C 1.36823 -1.75642 -0.110054 0
M  V30 7 C 2.71855 -1.49294 -0.0320564 0
M  V30 8 C 3.1955 -0.209399 0.105739 0
M  V30 9 C 2.30593 0.844923 0.168072 0
M  V30 10 C 0.940371 0.599553 0.0911503 0
M  V30 11 C 0.0785497 1.67909 0.156921 0
M  V30 12 N 0.592177 2.99458 0.299111 0
M  V30 13 C -1.26783 1.39974 0.0776075 0
M  V30 14 H -3.62187 0.185514 -1.12595 0
M  V30 15 H -3.45808 -1.18825 -0.00457111 0
M  V30 16 H -3.64999 0.485194 0.69378 0
M  V30 17 H -1.42589 -2.95866 0.493217 0
M  V30 18 H -1.85528 -2.54761 -1.17722 0
M  V30 19 H 1.00334 -2.77073 -0.21848 0
M  V30 20 H 3.37646 -2.36004 -0.0862401 0
M  V30 21 H 4.2578 -0.0203928 0.16543 0
M  V30 22 H 2.63612 1.86882 0.276013 0
M  V30 23 H 1.26828 3.42075 -0.372659 0
M  V30 24 H 0.274025 3.55748 1.1175 0
M  V30 25 H -1.98438 2.20594 0.123812 0
M  V30 END ATOM
M  V30 BEGIN BOND
M  V30 1 1 1 2
M  V30 2 2 2 3
M  V30 3 1 3 4
M  V30 4 1 3 5
M  V30 5 2 5 6
M  V30 6 1 6 7
M  V30 7 2 7 8
M  V30 8 1 8 9
M  V30 9 2 9 10
M  V30 10 1 10 11
M  V30 11 1 11 12
M  V30 12 2 11 13
M  V30 13 1 13 2
M  V30 14 1 10 5
M  V30 15 1 1 14
M  V30 16 1 1 15
M  V30 17 1 1 16
M  V30 18 1 4 17
M  V30 19 1 4 18
M  V30 20 1 6 19
M  V30 21 1 7 20
M  V30 22 1 8 21
M  V30 23 1 9 22
M  V30 24 1 12 23
M  V30 25 1 12 24
M  V30 26 1 13 25
M  V30 END BOND
M  V30 END CTAB
M  END
