
     RDKit          3D

  0  0  0  0  0  0  0  0  0  0999 V3000
M  V30 BEGIN CTAB
M  V30 COUNTS 48 49 0 0 0
M  V30 BEGIN ATOM
M  V30 1 N 5.89286 0.0655146 2.18947 0
M  V30 2 C 6.5475 -0.221808 0.952985 0
M  V30 3 C 6.07407 0.661072 -0.181289 0
M  V30 4 C 4.58823 0.439657 -0.362343 0
M  V30 5 O 3.82164 1.39325 -0.230201 0
M  V30 6 N 4.12469 -0.849383 -0.676517 0
M  V30 7 C 2.77998 -1.2536 -0.876353 0
M  V30 8 C 2.60535 -2.47086 -1.55058 0
M  V30 9 C 1.33824 -2.93927 -1.76505 0
M  V30 10 C 0.253264 -2.21307 -1.31831 0
M  V30 11 C 0.405413 -1.01506 -0.65374 0
M  V30 12 C 1.70313 -0.527522 -0.429351 0
M  V30 13 O -0.680318 -0.279841 -0.201955 0
M  V30 14 C -1.97365 -0.800507 -0.445048 0
M  V30 15 C -3.03199 0.0957036 0.095777 0
M  V30 16 N -2.79024 1.23891 0.726577 0
M  V30 17 C -3.79884 1.99422 1.1867 0
M  V30 18 N -3.51181 3.2132 1.85822 0
M  V30 19 N -5.0852 1.60575 1.01703 0
M  V30 20 C -5.34649 0.453506 0.381892 0
M  V30 21 N -4.31178 -0.277657 -0.0656799 0
M  V30 22 N -6.67445 0.0317486 0.19513 0
M  V30 23 C -7.78014 0.828614 0.68209 0
M  V30 24 C -6.99641 -1.20529 -0.485203 0
M  V30 25 C 6.36164 2.11088 0.0274846 0
M  V30 26 H 5.06566 0.675047 2.10669 0
M  V30 27 H 6.53746 0.332721 2.96031 0
M  V30 28 H 7.62967 -0.0454772 1.08686 0
M  V30 29 H 6.41835 -1.26922 0.629011 0
M  V30 30 H 6.53619 0.344044 -1.13735 0
M  V30 31 H 4.89492 -1.60522 -0.764875 0
M  V30 32 H 3.48386 -3.03504 -1.90032 0
M  V30 33 H 1.18836 -3.8815 -2.28635 0
M  V30 34 H -0.772874 -2.57421 -1.48208 0
M  V30 35 H 1.79525 0.410948 0.106597 0
M  V30 36 H -2.14335 -0.919823 -1.5297 0
M  V30 37 H -2.02397 -1.77979 0.0778857 0
M  V30 38 H -2.76569 3.86609 1.54151 0
M  V30 39 H -4.07909 3.44937 2.69953 0
M  V30 40 H -8.43732 1.16499 -0.141057 0
M  V30 41 H -8.37223 0.163645 1.35585 0
M  V30 42 H -7.42013 1.71651 1.25942 0
M  V30 43 H -7.95803 -1.59999 -0.0883577 0
M  V30 44 H -7.07363 -1.05294 -1.59191 0
M  V30 45 H -6.23537 -1.99165 -0.271728 0
M  V30 46 H 6.88802 2.55704 -0.841945 0
M  V30 47 H 5.40318 2.68186 0.133 0
M  V30 48 H 6.92607 2.31445 0.960994 0
M  V30 END ATOM
M  V30 BEGIN BOND
M  V30 1 1 1 2
M  V30 2 1 2 3
M  V30 3 1 3 4
M  V30 4 2 4 5
M  V30 5 1 4 6
M  V30 6 1 6 7
M  V30 7 2 7 8
M  V30 8 1 8 9
M  V30 9 2 9 10
M  V30 10 1 10 11
M  V30 11 2 11 12
M  V30 12 1 11 13
M  V30 13 1 13 14
M  V30 14 1 14 15
M  V30 15 2 15 16
M  V30 16 1 16 17
M  V30 17 1 17 18
M  V30 18 2 17 19
M  V30 19 1 19 20
M  V30 20 2 20 21
M  V30 21 1 20 22
M  V30 22 1 22 23
M  V30 23 1 22 24
M  V30 24 1 3 25
M  V30 25 1 12 7
M  V30 26 1 21 15
M  V30 27 1 1 26
M  V30 28 1 1 27
M  V30 29 1 2 28
M  V30 30 1 2 29
M  V30 31 1 3 30
M  V30 32 1 6 31
M  V30 33 1 8 32
M  V30 34 1 9 33
M  V30 35 1 10 34
M  V30 36 1 12 35
M  V30 37 1 14 36
M  V30 38 1 14 37
M  V30 39 1 18 38
M  V30 40 1 18 39
M  V30 41 1 23 40
M  V30 42 1 23 41
M  V30 43 1 23 42
M  V30 44 1 24 43
M  V30 45 1 24 44
M  V30 46 1 24 45
M  V30 47 1 25 46
M  V30 48 1 25 47
M  V30 49 1 25 48
M  V30 END BOND
M  V30 END CTAB
M  END
