
     RDKit          3D

  0  0  0  0  0  0  0  0  0  0999 V3000
M  V30 BEGIN CTAB
M  V30 COUNTS 23 23 0 0 0
M  V30 BEGIN ATOM
M  V30 1 N 4.2803 0.522847 -0.231313 0
M  V30 2 N 2.93017 0.751873 0.0481217 0
M  V30 3 C 1.96841 -0.25468 -0.258928 0
M  V30 4 O 2.45172 -1.30641 -0.787731 0
M  V30 5 C 0.561255 -0.103899 0.0244075 0
M  V30 6 C 0.0715911 1.14835 0.325671 0
M  V30 7 C -1.29561 1.35635 0.530769 0
M  V30 8 C -2.18844 0.359577 0.438435 0
M  V30 9 C -1.73154 -0.890285 0.141641 0
M  V30 10 C -0.36824 -1.09764 -0.0580596 0
M  V30 11 N 0.029391 -2.45838 -0.29658 0
M  V30 12 C -3.64681 0.574361 0.629303 0
M  V30 13 F -4.2069 1.22836 -0.43696 0
M  V30 14 F -3.71268 1.44351 1.74419 0
M  V30 15 F -4.28197 -0.617324 0.887111 0
M  V30 16 H 4.64657 -0.350453 0.113191 0
M  V30 17 H 4.90419 1.36333 -0.0670233 0
M  V30 18 H 2.68012 1.62957 0.483052 0
M  V30 19 H 0.761614 1.98533 0.418464 0
M  V30 20 H -1.60271 2.37387 0.743748 0
M  V30 21 H -2.46633 -1.67131 0.0490258 0
M  V30 22 H 0.938289 -2.77297 -0.554804 0
M  V30 23 H -0.722396 -3.21399 -0.16825 0
M  V30 END ATOM
M  V30 BEGIN BOND
M  V30 1 1 1 2
M  V30 2 1 2 3
M  V30 3 2 3 4
M  V30 4 1 3 5
M  V30 5 2 5 6
M  V30 6 1 6 7
M  V30 7 2 7 8
M  V30 8 1 8 9
M  V30 9 2 9 10
M  V30 10 1 10 11
M  V30 11 1 8 12
M  V30 12 1 12 13
M  V30 13 1 12 14
M  V30 14 1 12 15
M  V30 15 1 10 5
M  V30 16 1 1 16
M  V30 17 1 1 17
M  V30 18 1 2 18
M  V30 19 1 6 19
M  V30 20 1 7 20
M  V30 21 1 9 21
M  V30 22 1 11 22
M  V30 23 1 11 23
M  V30 END BOND
M  V30 END CTAB
M  END
