
     RDKit          3D

  0  0  0  0  0  0  0  0  0  0999 V3000
M  V30 BEGIN CTAB
M  V30 COUNTS 21 22 0 0 0
M  V30 BEGIN ATOM
M  V30 1 N 3.30786 -1.22422 0.187356 0
M  V30 2 C 1.97145 -0.704308 0.108207 0
M  V30 3 N 0.931569 -1.55003 0.151734 0
M  V30 4 C -0.300868 -1.0224 0.0746983 0
M  V30 5 C -1.41442 -1.84731 0.114522 0
M  V30 6 C -2.70228 -1.36521 0.0398419 0
M  V30 7 C -2.86652 0.000155133 -0.0792982 0
M  V30 8 C -1.77858 0.847432 -0.12168 0
M  V30 9 C -0.497595 0.347243 -0.0456635 0
M  V30 10 C 0.589031 1.19114 -0.0877976 0
M  V30 11 N 0.447106 2.59715 -0.209762 0
M  V30 12 C 1.85767 0.660253 -0.00952758 0
M  V30 13 H 3.74672 -1.2492 1.12385 0
M  V30 14 H 3.78187 -1.55123 -0.675385 0
M  V30 15 H -1.23995 -2.91408 0.20883 0
M  V30 16 H -3.56167 -2.04231 0.073975 0
M  V30 17 H -3.88444 0.356953 -0.136286 0
M  V30 18 H -1.92608 1.91276 -0.215149 0
M  V30 19 H 0.155861 3.07018 -1.10187 0
M  V30 20 H 0.647072 3.16795 0.641019 0
M  V30 21 H 2.7362 1.31909 -0.0416175 0
M  V30 END ATOM
M  V30 BEGIN BOND
M  V30 1 1 1 2
M  V30 2 2 2 3
M  V30 3 1 3 4
M  V30 4 2 4 5
M  V30 5 1 5 6
M  V30 6 2 6 7
M  V30 7 1 7 8
M  V30 8 2 8 9
M  V30 9 1 9 10
M  V30 10 1 10 11
M  V30 11 2 10 12
M  V30 12 1 12 2
M  V30 13 1 9 4
M  V30 14 1 1 13
M  V30 15 1 1 14
M  V30 16 1 5 15
M  V30 17 1 6 16
M  V30 18 1 7 17
M  V30 19 1 8 18
M  V30 20 1 11 19
M  V30 21 1 11 20
M  V30 22 1 12 21
M  V30 END BOND
M  V30 END CTAB
M  END
