
     RDKit          3D

  0  0  0  0  0  0  0  0  0  0999 V3000
M  V30 BEGIN CTAB
M  V30 COUNTS 35 36 0 0 0
M  V30 BEGIN ATOM
M  V30 1 O -1.24516 0.618184 -1.32311 0
M  V30 2 C -1.19157 -0.192569 -0.391591 0
M  V30 3 C 0.143935 -0.749569 -0.0403865 0
M  V30 4 S 1.38424 -0.368047 -1.28465 0
M  V30 5 C 2.85554 0.228065 -0.484356 0
M  V30 6 N 3.82195 -0.665676 -0.095989 0
M  V30 7 C 4.96794 -0.296025 0.492581 0
M  V30 8 N 5.9168 -1.30167 0.863314 0
M  V30 9 C 5.21149 1.03956 0.729712 0
M  V30 10 C 4.25311 1.94376 0.347551 0
M  V30 11 N 3.11484 1.51074 -0.242756 0
M  V30 12 N 4.482 3.32728 0.573918 0
M  V30 13 C 0.127324 -2.19927 0.320246 0
M  V30 14 N -2.31326 -0.601496 0.32715 0
M  V30 15 C -3.66636 -0.232896 0.167441 0
M  V30 16 C -4.13787 0.641301 -0.780619 0
M  V30 17 C -5.49656 0.964646 -0.910962 0
M  V30 18 C -6.41754 0.396259 -0.0648073 0
M  V30 19 C -5.98592 -0.480909 0.893224 0
M  V30 20 C -4.65845 -0.773714 0.993546 0
M  V30 21 F -4.27491 -1.63514 1.95518 0
M  V30 22 H 0.479342 -0.205225 0.905366 0
M  V30 23 H 6.55259 -1.17392 1.66046 0
M  V30 24 H 5.9614 -2.19653 0.30153 0
M  V30 25 H 6.13016 1.31626 1.19728 0
M  V30 26 H 3.70216 4.02041 0.520029 0
M  V30 27 H 5.46197 3.63985 0.799681 0
M  V30 28 H 0.496355 -2.38802 1.37646 0
M  V30 29 H 0.862106 -2.79133 -0.298896 0
M  V30 30 H -0.875999 -2.62534 0.283747 0
M  V30 31 H -2.1721 -1.31093 1.14642 0
M  V30 32 H -3.45429 1.11711 -1.47504 0
M  V30 33 H -5.83085 1.66377 -1.68137 0
M  V30 34 H -7.4569 0.672534 -0.203599 0
M  V30 35 H -6.74749 -0.911471 1.53875 0
M  V30 END ATOM
M  V30 BEGIN BOND
M  V30 1 2 1 2
M  V30 2 1 2 3
M  V30 3 1 3 4
M  V30 4 1 4 5
M  V30 5 2 5 6
M  V30 6 1 6 7
M  V30 7 1 7 8
M  V30 8 2 7 9
M  V30 9 1 9 10
M  V30 10 2 10 11
M  V30 11 1 10 12
M  V30 12 1 3 13
M  V30 13 1 2 14
M  V30 14 1 14 15
M  V30 15 2 15 16
M  V30 16 1 16 17
M  V30 17 2 17 18
M  V30 18 1 18 19
M  V30 19 2 19 20
M  V30 20 1 20 21
M  V30 21 1 11 5
M  V30 22 1 20 15
M  V30 23 1 3 22
M  V30 24 1 8 23
M  V30 25 1 8 24
M  V30 26 1 9 25
M  V30 27 1 12 26
M  V30 28 1 12 27
M  V30 29 1 13 28
M  V30 30 1 13 29
M  V30 31 1 13 30
M  V30 32 1 14 31
M  V30 33 1 16 32
M  V30 34 1 17 33
M  V30 35 1 18 34
M  V30 36 1 19 35
M  V30 END BOND
M  V30 END CTAB
M  END
