
     RDKit          3D

  0  0  0  0  0  0  0  0  0  0999 V3000
M  V30 BEGIN CTAB
M  V30 COUNTS 73 76 0 0 0
M  V30 BEGIN ATOM
M  V30 1 C -5.37859 -9.76444 -0.587436 0
M  V30 2 O -5.4424 -8.39296 -0.248405 0
M  V30 3 C -4.35404 -7.56444 -0.498568 0
M  V30 4 O -3.35049 -8.09916 -1.02565 0
M  V30 5 C -4.33183 -6.16164 -0.187372 0
M  V30 6 C -5.41978 -5.55251 0.391085 0
M  V30 7 C -5.39078 -4.20431 0.686342 0
M  V30 8 C -4.27602 -3.45459 0.40648 0
M  V30 9 C -3.18831 -4.05655 -0.170204 0
M  V30 10 C -3.21994 -5.40409 -0.464278 0
M  V30 11 N -2.05916 -3.3576 -0.467808 0
M  V30 12 C -2.05694 -2.0327 -0.167441 0
M  V30 13 N -3.10544 -1.42574 0.394569 0
M  V30 14 C -4.24641 -2.11198 0.699858 0
M  V30 15 O -5.23458 -1.56648 1.22357 0
M  V30 16 C -3.04774 -0.0153168 0.691923 0
M  V30 17 C -3.54769 0.819732 -0.48263 0
M  V30 18 C -3.46497 2.25711 -0.116046 0
M  V30 19 C -2.35166 3.03527 -0.353124 0
M  V30 20 C -2.33726 4.37253 0.013791 0
M  V30 21 C -3.43514 4.94592 0.621261 0
M  V30 22 C -4.55081 4.16956 0.859795 0
M  V30 23 C -4.56274 2.85243 0.497505 0
M  V30 24 S -3.43913 6.63287 1.09337 0
M  V30 25 O -4.32104 6.85444 2.29662 0
M  V30 26 O -2.05996 7.05761 1.44544 0
M  V30 27 N -4.03261 7.59472 -0.20929 0
M  V30 28 S -0.598199 -1.08036 -0.540671 0
M  V30 29 C 0.561731 -1.09112 0.866682 0
M  V30 30 C 1.76137 -0.276184 0.463632 0
M  V30 31 O 1.73481 0.95169 0.701004 0
M  V30 32 N 2.87897 -0.856317 -0.157514 0
M  V30 33 C 4.02571 -0.0949002 -0.538931 0
M  V30 34 C 4.67217 0.520204 0.646784 0
M  V30 35 C 5.87849 1.32002 0.313787 0
M  V30 36 C 7.10425 0.68616 0.305019 0
M  V30 37 C 8.25966 1.39097 -0.00185789 0
M  V30 38 C 8.23782 2.73661 -0.30762 0
M  V30 39 C 7.00213 3.35576 -0.294159 0
M  V30 40 C 5.84178 2.66443 0.0102286 0
M  V30 41 S 9.70182 3.63113 -0.696432 0
M  V30 42 O 9.46754 4.64214 -1.75564 0
M  V30 43 O 10.7067 2.59941 -1.18891 0
M  V30 44 N 10.3395 4.28083 0.752392 0
M  V30 45 H -4.71005 -10.2535 0.14583 0
M  V30 46 H -4.92093 -9.90001 -1.57717 0
M  V30 47 H -6.38539 -10.1998 -0.570247 0
M  V30 48 H -6.31393 -6.14885 0.616782 0
M  V30 49 H -6.27669 -3.73823 1.1503 0
M  V30 50 H -2.33148 -5.85837 -0.926677 0
M  V30 51 H -3.62606 0.252627 1.58557 0
M  V30 52 H -1.98864 0.315962 0.897591 0
M  V30 53 H -2.91275 0.669798 -1.37846 0
M  V30 54 H -4.6103 0.547765 -0.664199 0
M  V30 55 H -1.4864 2.6022 -0.826942 0
M  V30 56 H -1.45335 4.99717 -0.172449 0
M  V30 57 H -5.43863 4.59278 1.33969 0
M  V30 58 H -5.4538 2.25752 0.694985 0
M  V30 59 H -3.29668 7.7124 -0.941672 0
M  V30 60 H -4.86741 7.12825 -0.627677 0
M  V30 61 H 0.853324 -2.12378 1.15102 0
M  V30 62 H 0.0631513 -0.636894 1.72632 0
M  V30 63 H 2.84372 -1.88752 -0.335822 0
M  V30 64 H 4.74815 -0.807559 -1.0465 0
M  V30 65 H 3.80393 0.639635 -1.35182 0
M  V30 66 H 4.95786 -0.327005 1.33753 0
M  V30 67 H 4.02851 1.17715 1.2462 0
M  V30 68 H 7.16819 -0.379004 0.541076 0
M  V30 69 H 9.21512 0.876641 -0.00430331 0
M  V30 70 H 6.96032 4.40392 -0.529132 0
M  V30 71 H 4.86442 3.13023 0.0263467 0
M  V30 72 H 9.822 3.97998 1.59317 0
M  V30 73 H 11.3731 4.16836 0.820175 0
M  V30 END ATOM
M  V30 BEGIN BOND
M  V30 1 1 1 2
M  V30 2 1 2 3
M  V30 3 2 3 4
M  V30 4 1 3 5
M  V30 5 2 5 6
M  V30 6 1 6 7
M  V30 7 2 7 8
M  V30 8 1 8 9
M  V30 9 2 9 10
M  V30 10 1 9 11
M  V30 11 2 11 12
M  V30 12 1 12 13
M  V30 13 1 13 14
M  V30 14 2 14 15
M  V30 15 1 13 16
M  V30 16 1 16 17
M  V30 17 1 17 18
M  V30 18 2 18 19
M  V30 19 1 19 20
M  V30 20 2 20 21
M  V30 21 1 21 22
M  V30 22 2 22 23
M  V30 23 1 21 24
M  V30 24 2 24 25
M  V30 25 2 24 26
M  V30 26 1 24 27
M  V30 27 1 12 28
M  V30 28 1 28 29
M  V30 29 1 29 30
M  V30 30 2 30 31
M  V30 31 1 30 32
M  V30 32 1 32 33
M  V30 33 1 33 34
M  V30 34 1 34 35
M  V30 35 2 35 36
M  V30 36 1 36 37
M  V30 37 2 37 38
M  V30 38 1 38 39
M  V30 39 2 39 40
M  V30 40 1 38 41
M  V30 41 2 41 42
M  V30 42 2 41 43
M  V30 43 1 41 44
M  V30 44 1 10 5
M  V30 45 1 23 18
M  V30 46 1 40 35
M  V30 47 1 14 8
M  V30 48 1 1 45
M  V30 49 1 1 46
M  V30 50 1 1 47
M  V30 51 1 6 48
M  V30 52 1 7 49
M  V30 53 1 10 50
M  V30 54 1 16 51
M  V30 55 1 16 52
M  V30 56 1 17 53
M  V30 57 1 17 54
M  V30 58 1 19 55
M  V30 59 1 20 56
M  V30 60 1 22 57
M  V30 61 1 23 58
M  V30 62 1 27 59
M  V30 63 1 27 60
M  V30 64 1 29 61
M  V30 65 1 29 62
M  V30 66 1 32 63
M  V30 67 1 33 64
M  V30 68 1 33 65
M  V30 69 1 34 66
M  V30 70 1 34 67
M  V30 71 1 36 68
M  V30 72 1 37 69
M  V30 73 1 39 70
M  V30 74 1 40 71
M  V30 75 1 44 72
M  V30 76 1 44 73
M  V30 END BOND
M  V30 END CTAB
M  END
