
     RDKit          3D

  0  0  0  0  0  0  0  0  0  0999 V3000
M  V30 BEGIN CTAB
M  V30 COUNTS 29 29 0 0 0
M  V30 BEGIN ATOM
M  V30 1 N -3.74714 1.13172 0.459307 0
M  V30 2 C -2.32956 1.14345 0.549493 0
M  V30 3 C -1.57056 1.11927 -0.764375 0
M  V30 4 C -0.497735 0.343623 0.00670788 0
M  V30 5 C -1.67227 -0.190188 0.845292 0
M  V30 6 N 0.187377 -0.657878 -0.741451 0
M  V30 7 C 1.60142 -0.681394 -0.675355 0
M  V30 8 O 2.20857 -1.55322 -1.35453 0
M  V30 9 C 2.39002 0.278797 0.160428 0
M  V30 10 N 3.80276 0.0662411 -0.165084 0
M  V30 11 C 2.23267 -0.0411316 1.6287 0
M  V30 12 C -0.473249 -1.65066 -1.56293 0
M  V30 13 H -4.23537 0.507613 1.12293 0
M  V30 14 H -4.15086 1.22529 -0.465585 0
M  V30 15 H -1.96192 1.9378 1.22694 0
M  V30 16 H -1.27595 2.13622 -1.05645 0
M  V30 17 H -2.09744 0.520914 -1.52426 0
M  V30 18 H 0.0864001 1.05517 0.591601 0
M  V30 19 H -2.10965 -1.03307 0.301858 0
M  V30 20 H -1.4092 -0.355624 1.90459 0
M  V30 21 H 2.12113 1.32053 -0.0341487 0
M  V30 22 H 4.03337 -0.946354 -0.153833 0
M  V30 23 H 4.0972 0.576332 -1.00451 0
M  V30 24 H 3.21305 -0.31405 2.045 0
M  V30 25 H 1.89128 0.861226 2.15938 0
M  V30 26 H 1.5598 -0.909395 1.76774 0
M  V30 27 H -0.0288401 -1.7596 -2.56173 0
M  V30 28 H -0.321327 -2.63173 -1.03952 0
M  V30 29 H -1.54398 -1.4999 -1.66619 0
M  V30 END ATOM
M  V30 BEGIN BOND
M  V30 1 1 1 2
M  V30 2 1 2 3
M  V30 3 1 3 4
M  V30 4 1 4 5
M  V30 5 1 4 6
M  V30 6 1 6 7
M  V30 7 2 7 8
M  V30 8 1 7 9
M  V30 9 1 9 10
M  V30 10 1 9 11
M  V30 11 1 6 12
M  V30 12 1 5 2
M  V30 13 1 1 13
M  V30 14 1 1 14
M  V30 15 1 2 15
M  V30 16 1 3 16
M  V30 17 1 3 17
M  V30 18 1 4 18
M  V30 19 1 5 19
M  V30 20 1 5 20
M  V30 21 1 9 21
M  V30 22 1 10 22
M  V30 23 1 10 23
M  V30 24 1 11 24
M  V30 25 1 11 25
M  V30 26 1 11 26
M  V30 27 1 12 27
M  V30 28 1 12 28
M  V30 29 1 12 29
M  V30 END BOND
M  V30 END CTAB
M  END
