
     RDKit          3D

  0  0  0  0  0  0  0  0  0  0999 V3000
M  V30 BEGIN CTAB
M  V30 COUNTS 27 29 0 0 0
M  V30 BEGIN ATOM
M  V30 1 N 4.20632 0.0697743 0.0585574 0
M  V30 2 C 2.80302 -0.112616 0.248498 0
M  V30 3 C 1.93953 0.535296 -0.620653 0
M  V30 4 N 2.39389 1.3584 -1.67327 0
M  V30 5 C 0.572032 0.332694 -0.403313 0
M  V30 6 C 0.0672652 -0.450251 0.595507 0
M  V30 7 C 0.971444 -1.07908 1.44125 0
M  V30 8 C 2.32849 -0.914149 1.27243 0
M  V30 9 C -1.3922 -0.46762 0.56951 0
M  V30 10 C -1.77508 0.333949 -0.48298 0
M  V30 11 C -0.582369 0.880122 -1.1518 0
M  V30 12 C -3.12518 0.517497 -0.765949 0
M  V30 13 C -4.11439 -0.0864372 -0.0154286 0
M  V30 14 C -3.72988 -0.892734 1.04325 0
M  V30 15 C -2.38151 -1.07007 1.3181 0
M  V30 16 H 4.63585 -0.439281 -0.74228 0
M  V30 17 H 4.81392 0.66589 0.656249 0
M  V30 18 H 2.53678 0.957265 -2.60885 0
M  V30 19 H 2.57861 2.35382 -1.49584 0
M  V30 20 H 0.563632 -1.69295 2.22398 0
M  V30 21 H 2.99954 -1.42145 1.95281 0
M  V30 22 H -0.573734 0.507763 -2.2136 0
M  V30 23 H -0.571207 1.99544 -1.17925 0
M  V30 24 H -3.45679 1.14224 -1.58737 0
M  V30 25 H -5.1725 0.0651868 -0.247283 0
M  V30 26 H -4.46828 -1.39142 1.66557 0
M  V30 27 H -2.06719 -1.69729 2.14215 0
M  V30 END ATOM
M  V30 BEGIN BOND
M  V30 1 1 1 2
M  V30 2 2 2 3
M  V30 3 1 3 4
M  V30 4 1 3 5
M  V30 5 2 5 6
M  V30 6 1 6 7
M  V30 7 2 7 8
M  V30 8 1 6 9
M  V30 9 2 9 10
M  V30 10 1 10 11
M  V30 11 1 10 12
M  V30 12 2 12 13
M  V30 13 1 13 14
M  V30 14 2 14 15
M  V30 15 1 8 2
M  V30 16 1 15 9
M  V30 17 1 11 5
M  V30 18 1 1 16
M  V30 19 1 1 17
M  V30 20 1 4 18
M  V30 21 1 4 19
M  V30 22 1 7 20
M  V30 23 1 8 21
M  V30 24 1 11 22
M  V30 25 1 11 23
M  V30 26 1 12 24
M  V30 27 1 13 25
M  V30 28 1 14 26
M  V30 29 1 15 27
M  V30 END BOND
M  V30 END CTAB
M  END
