
     RDKit          3D

  0  0  0  0  0  0  0  0  0  0999 V3000
M  V30 BEGIN CTAB
M  V30 COUNTS 16 16 0 0 0
M  V30 BEGIN ATOM
M  V30 1 N -2.82177 0.478621 0.0870875 0
M  V30 2 C -1.41695 0.244085 0.0443192 0
M  V30 3 C -0.958063 -1.04432 0.104501 0
M  V30 4 C 0.400064 -1.31704 0.066032 0
M  V30 5 C 1.33343 -0.307164 -0.0336549 0
M  V30 6 N 2.727 -0.61481 -0.0714276 0
M  V30 7 C 0.8596 0.987001 -0.0935845 0
M  V30 8 I 2.27646 2.55557 -0.247096 0
M  V30 9 C -0.492322 1.25643 -0.0551641 0
M  V30 10 H -3.29963 0.599656 -0.833993 0
M  V30 11 H -3.37179 0.5321 0.973622 0
M  V30 12 H -1.68306 -1.85987 0.183806 0
M  V30 13 H 0.771592 -2.34528 0.113829 0
M  V30 14 H 3.13865 -1.33049 -0.690438 0
M  V30 15 H 3.40337 -0.102357 0.554035 0
M  V30 16 H -0.866589 2.26787 -0.101874 0
M  V30 END ATOM
M  V30 BEGIN BOND
M  V30 1 1 1 2
M  V30 2 2 2 3
M  V30 3 1 3 4
M  V30 4 2 4 5
M  V30 5 1 5 6
M  V30 6 1 5 7
M  V30 7 1 7 8
M  V30 8 2 7 9
M  V30 9 1 9 2
M  V30 10 1 1 10
M  V30 11 1 1 11
M  V30 12 1 3 12
M  V30 13 1 4 13
M  V30 14 1 6 14
M  V30 15 1 6 15
M  V30 16 1 9 16
M  V30 END BOND
M  V30 END CTAB
M  END
