
     RDKit          3D

  0  0  0  0  0  0  0  0  0  0999 V3000
M  V30 BEGIN CTAB
M  V30 COUNTS 34 35 0 0 0
M  V30 BEGIN ATOM
M  V30 1 N 5.92629 -0.051844 -0.309851 0
M  V30 2 C 4.5343 0.188791 -0.26773 0
M  V30 3 C 4.03188 1.25159 -0.98511 0
M  V30 4 C 2.67752 1.48178 -0.941236 0
M  V30 5 C 1.85496 0.660748 -0.193363 0
M  V30 6 C 2.3549 -0.40168 0.524269 0
M  V30 7 C 3.7299 -0.639576 0.482805 0
M  V30 8 C 0.382118 0.901534 -0.133464 0
M  V30 9 N -0.338763 -0.344774 -0.0689964 0
M  V30 10 C -1.75365 -0.305593 0.00721376 0
M  V30 11 C -2.41451 0.912241 0.0184722 0
M  V30 12 C -3.78485 1.03481 0.0905649 0
M  V30 13 N -4.4049 2.31515 0.0983351 0
M  V30 14 C -4.50121 -0.140299 0.153395 0
M  V30 15 C -3.85162 -1.35322 0.142649 0
M  V30 16 C -2.48328 -1.47738 0.0706979 0
M  V30 17 C -1.8101 -2.81028 0.0611079 0
M  V30 18 H 6.37661 -0.519483 0.503421 0
M  V30 19 H 6.48775 0.231506 -1.13383 0
M  V30 20 H 4.69268 1.89845 -1.57636 0
M  V30 21 H 2.25832 2.30556 -1.49251 0
M  V30 22 H 1.74195 -1.05536 1.1158 0
M  V30 23 H 4.11487 -1.4748 1.04816 0
M  V30 24 H 0.082297 1.46284 -1.05838 0
M  V30 25 H 0.0960542 1.50958 0.744486 0
M  V30 26 H 0.124029 -1.27279 -0.0773937 0
M  V30 27 H -1.81766 1.81767 -0.0323816 0
M  V30 28 H -4.41793 2.92255 -0.749188 0
M  V30 29 H -4.87521 2.70887 0.947423 0
M  V30 30 H -5.5737 -0.0979963 0.210903 0
M  V30 31 H -4.4327 -2.27358 0.192951 0
M  V30 32 H -1.39287 -2.94329 -0.954305 0
M  V30 33 H -1.032 -2.88183 0.855785 0
M  V30 34 H -2.58146 -3.55988 0.318983 0
M  V30 END ATOM
M  V30 BEGIN BOND
M  V30 1 1 1 2
M  V30 2 2 2 3
M  V30 3 1 3 4
M  V30 4 2 4 5
M  V30 5 1 5 6
M  V30 6 2 6 7
M  V30 7 1 5 8
M  V30 8 1 8 9
M  V30 9 1 9 10
M  V30 10 2 10 11
M  V30 11 1 11 12
M  V30 12 1 12 13
M  V30 13 2 12 14
M  V30 14 1 14 15
M  V30 15 2 15 16
M  V30 16 1 16 17
M  V30 17 1 7 2
M  V30 18 1 16 10
M  V30 19 1 1 18
M  V30 20 1 1 19
M  V30 21 1 3 20
M  V30 22 1 4 21
M  V30 23 1 6 22
M  V30 24 1 7 23
M  V30 25 1 8 24
M  V30 26 1 8 25
M  V30 27 1 9 26
M  V30 28 1 11 27
M  V30 29 1 13 28
M  V30 30 1 13 29
M  V30 31 1 14 30
M  V30 32 1 15 31
M  V30 33 1 17 32
M  V30 34 1 17 33
M  V30 35 1 17 34
M  V30 END BOND
M  V30 END CTAB
M  END
