
     RDKit          3D

  0  0  0  0  0  0  0  0  0  0999 V3000
M  V30 BEGIN CTAB
M  V30 COUNTS 22 22 0 0 0
M  V30 BEGIN ATOM
M  V30 1 N -2.50919 -0.300833 -1.82183 0
M  V30 2 C -2.4504 -0.175587 -0.393929 0
M  V30 3 N -3.56361 -0.128936 0.356712 0
M  V30 4 C -3.5111 -0.0116275 1.69457 0
M  V30 5 C -2.25868 0.0594637 2.27006 0
M  V30 6 C -1.10085 0.0135069 1.5188 0
M  V30 7 C -1.19421 -0.106142 0.161916 0
M  V30 8 C 0.0159686 -0.15863 -0.674495 0
M  V30 9 N 1.16567 -0.0901564 -0.109353 0
M  V30 10 N 2.37947 -0.128367 -0.782369 0
M  V30 11 C 3.5148 0.472739 -0.182003 0
M  V30 12 S 3.41482 1.20452 1.28061 0
M  V30 13 N 4.7973 0.477312 -0.806311 0
M  V30 14 H -3.0959 0.403946 -2.32366 0
M  V30 15 H -2.00545 -1.03776 -2.3181 0
M  V30 16 H -4.41346 0.025441 2.29439 0
M  V30 17 H -2.12623 0.155206 3.34466 0
M  V30 18 H -0.106077 0.0687721 1.96211 0
M  V30 19 H -0.0227685 -0.251172 -1.73036 0
M  V30 20 H 2.46751 -0.58227 -1.70241 0
M  V30 21 H 5.63977 0.208135 -0.245181 0
M  V30 22 H 4.96263 0.732098 -1.79384 0
M  V30 END ATOM
M  V30 BEGIN BOND
M  V30 1 1 1 2
M  V30 2 2 2 3
M  V30 3 1 3 4
M  V30 4 2 4 5
M  V30 5 1 5 6
M  V30 6 2 6 7
M  V30 7 1 7 8
M  V30 8 2 8 9
M  V30 9 1 9 10
M  V30 10 1 10 11
M  V30 11 2 11 12
M  V30 12 1 11 13
M  V30 13 1 7 2
M  V30 14 1 1 14
M  V30 15 1 1 15
M  V30 16 1 4 16
M  V30 17 1 5 17
M  V30 18 1 6 18
M  V30 19 1 8 19
M  V30 20 1 10 20
M  V30 21 1 13 21
M  V30 22 1 13 22
M  V30 END BOND
M  V30 END CTAB
M  END
