
     RDKit          3D

  0  0  0  0  0  0  0  0  0  0999 V3000
M  V30 BEGIN CTAB
M  V30 COUNTS 44 46 0 0 0
M  V30 BEGIN ATOM
M  V30 1 N 8.16662 1.313 -0.568209 0
M  V30 2 C 6.9885 1.45081 0.110574 0
M  V30 3 C 5.88416 0.567416 -0.537021 0
M  V30 4 O 6.24097 0.0281563 -1.56775 0
M  V30 5 N 4.7026 0.527462 0.160865 0
M  V30 6 S 3.16942 0.0576844 0.316331 0
M  V30 7 O 3.11474 -0.525053 1.87845 0
M  V30 8 O 2.26704 1.29866 0.63371 0
M  V30 9 O 2.29036 -1.01615 -0.4431 0
M  V30 10 C 1.1435 -0.559903 -1.16531 0
M  V30 11 C 0.0246526 -1.38129 -0.625657 0 CFG=1
M  V30 12 O -0.341869 -0.8198 0.655823 0
M  V30 13 C -1.69546 -0.962443 0.784342 0 CFG=2
M  V30 14 C -2.01473 -2.18252 -0.0324427 0 CFG=2
M  V30 15 O -1.37919 -3.21884 0.686587 0
M  V30 16 C -1.15444 -1.8811 -1.29729 0 CFG=2
M  V30 17 O -0.916369 -3.15813 -1.85767 0
M  V30 18 N -2.4875 0.178112 0.455676 0
M  V30 19 C -2.16478 1.41015 0.100484 0
M  V30 20 N -3.22523 2.20095 -0.0540979 0
M  V30 21 C -4.32184 1.48321 0.207886 0
M  V30 22 C -3.86678 0.213296 0.52883 0
M  V30 23 N -4.77418 -0.698311 0.857682 0
M  V30 24 C -6.06456 -0.423476 0.881785 0
M  V30 25 N -6.54198 0.809054 0.580702 0
M  V30 26 C -5.65967 1.75767 0.238931 0
M  V30 27 N -6.16034 3.08005 -0.0787006 0
M  V30 28 H 8.50104 2.02552 -1.21236 0
M  V30 29 H 8.94581 0.98198 0.0383705 0
M  V30 30 H 7.09999 1.21627 1.16054 0
M  V30 31 H 6.59014 2.49199 -0.0851783 0
M  V30 32 H 4.94174 1.21603 1.1618 0
M  V30 33 H 1.26899 -0.698825 -2.23113 0
M  V30 34 H 1.04083 0.486844 -0.866747 0
M  V30 35 H 0.590374 -2.36586 -0.280462 0
M  V30 36 H -1.88885 -1.24675 1.88394 0
M  V30 37 H -3.04098 -2.38044 -0.249076 0
M  V30 38 H -1.19139 -4.0094 0.196852 0
M  V30 39 H -1.75193 -1.25639 -1.94714 0
M  V30 40 H -1.75302 -3.652 -1.83627 0
M  V30 41 H -1.13887 1.74231 -0.029417 0
M  V30 42 H -6.78025 -1.18005 1.13346 0
M  V30 43 H -6.26895 3.37956 -1.04103 0
M  V30 44 H -6.3883 3.70054 0.707966 0
M  V30 END ATOM
M  V30 BEGIN BOND
M  V30 1 1 1 2
M  V30 2 1 2 3
M  V30 3 2 3 4
M  V30 4 1 3 5
M  V30 5 1 5 6
M  V30 6 2 6 7
M  V30 7 2 6 8
M  V30 8 1 6 9
M  V30 9 1 9 10
M  V30 10 1 10 11
M  V30 11 1 11 12
M  V30 12 1 12 13
M  V30 13 1 13 14
M  V30 14 1 14 15
M  V30 15 1 14 16
M  V30 16 1 16 17
M  V30 17 1 13 18
M  V30 18 1 18 19
M  V30 19 2 19 20
M  V30 20 1 20 21
M  V30 21 2 21 22
M  V30 22 1 22 23
M  V30 23 2 23 24
M  V30 24 1 24 25
M  V30 25 2 25 26
M  V30 26 1 26 27
M  V30 27 1 16 11
M  V30 28 1 22 18
M  V30 29 1 26 21
M  V30 30 1 1 28
M  V30 31 1 1 29
M  V30 32 1 2 30
M  V30 33 1 2 31
M  V30 34 1 5 32
M  V30 35 1 10 33
M  V30 36 1 10 34
M  V30 37 1 11 35 CFG=1
M  V30 38 1 13 36 CFG=1
M  V30 39 1 14 37 CFG=3
M  V30 40 1 15 38
M  V30 41 1 16 39 CFG=3
M  V30 42 1 17 40
M  V30 43 1 19 41
M  V30 44 1 24 42
M  V30 45 1 27 43
M  V30 46 1 27 44
M  V30 END BOND
M  V30 END CTAB
M  END
