
     RDKit          3D

  0  0  0  0  0  0  0  0  0  0999 V3000
M  V30 BEGIN CTAB
M  V30 COUNTS 61 64 0 0 0
M  V30 BEGIN ATOM
M  V30 1 C 6.07472 -3.5653 0.0124417 0
M  V30 2 O 4.87544 -4.30709 -0.0282101 0
M  V30 3 C 3.66468 -3.65502 0.0663146 0
M  V30 4 C 3.62347 -2.29013 0.192682 0
M  V30 5 C 2.43991 -1.60009 0.290598 0
M  V30 6 O 2.47716 -0.20431 0.417855 0
M  V30 7 C 3.69189 0.464297 0.448228 0
M  V30 8 C 4.27629 0.926001 -0.707528 0
M  V30 9 C 5.49638 1.59576 -0.663396 0
M  V30 10 C 6.14082 1.80759 0.54269 0
M  V30 11 C 5.575 1.35394 1.71425 0
M  V30 12 C 4.36112 0.69144 1.64023 0
M  V30 13 C 6.11724 2.08518 -1.88487 0
M  V30 14 N 7.35466 2.76108 -1.90187 0
M  V30 15 N 5.51746 1.89596 -3.01964 0
M  V30 16 C 1.22459 -2.29059 0.262683 0
M  V30 17 N 0.0368096 -1.55796 0.341921 0
M  V30 18 C -1.25318 -2.05444 0.443864 0
M  V30 19 O -1.54941 -3.25013 0.489516 0
M  V30 20 C -2.38661 -1.09819 0.505621 0
M  V30 21 C -3.56657 -1.42841 1.13729 0
M  V30 22 C -4.62327 -0.523233 1.17129 0
M  V30 23 C -4.53886 0.719268 0.585323 0
M  V30 24 C -3.35787 1.04508 -0.0449829 0
M  V30 25 C -2.28833 0.14203 -0.0845345 0
M  V30 26 C -5.68454 1.61217 0.702209 0
M  V30 27 C -5.91058 2.18476 1.93618 0
M  V30 28 C -6.93025 3.07577 2.18973 0
M  V30 29 C -7.74625 3.3847 1.1213 0
M  V30 30 C -7.54055 2.82811 -0.11505 0
M  V30 31 C -6.50334 1.92614 -0.354816 0
M  V30 32 S -6.29981 1.20435 -1.93159 0
M  V30 33 N -6.40657 -0.518707 -1.77499 0
M  V30 34 O -5.04292 1.58992 -2.62308 0
M  V30 35 O -7.43347 1.69258 -2.83255 0
M  V30 36 C 1.24548 -3.6413 0.137912 0
M  V30 37 C 2.46677 -4.31144 0.0413319 0
M  V30 38 H 6.94713 -4.26594 0.0961833 0
M  V30 39 H 6.0492 -2.9591 0.954737 0
M  V30 40 H 6.10489 -2.90283 -0.847804 0
M  V30 41 H 4.55348 -1.69586 0.220638 0
M  V30 42 H 3.78806 0.77286 -1.67455 0
M  V30 43 H 7.08202 2.32432 0.549065 0
M  V30 44 H 6.06464 1.5124 2.67213 0
M  V30 45 H 3.85838 0.303321 2.53828 0
M  V30 46 H 8.08867 2.47223 -2.5641 0
M  V30 47 H 7.53247 3.54449 -1.25615 0
M  V30 48 H 5.91822 2.22635 -3.92302 0
M  V30 49 H 0.172601 -0.485531 0.318159 0
M  V30 50 H -3.65504 -2.41163 1.60688 0
M  V30 51 H -5.55473 -0.800643 1.67651 0
M  V30 52 H -3.24902 2.01863 -0.503438 0
M  V30 53 H -1.37495 0.41721 -0.586489 0
M  V30 54 H -5.27618 1.95408 2.80063 0
M  V30 55 H -7.0898 3.51039 3.15701 0
M  V30 56 H -8.55447 4.08297 1.29721 0
M  V30 57 H -8.22086 3.10891 -0.933837 0
M  V30 58 H -7.34137 -0.743547 -1.34461 0
M  V30 59 H -6.32159 -0.983281 -2.71525 0
M  V30 60 H 0.369821 -4.28649 0.0974289 0
M  V30 61 H 2.51093 -5.40313 -0.0599917 0
M  V30 END ATOM
M  V30 BEGIN BOND
M  V30 1 1 1 2
M  V30 2 1 2 3
M  V30 3 2 3 4
M  V30 4 1 4 5
M  V30 5 1 5 6
M  V30 6 1 6 7
M  V30 7 2 7 8
M  V30 8 1 8 9
M  V30 9 2 9 10
M  V30 10 1 10 11
M  V30 11 2 11 12
M  V30 12 1 9 13
M  V30 13 1 13 14
M  V30 14 2 13 15 CFG=2
M  V30 15 2 5 16
M  V30 16 1 16 17
M  V30 17 1 17 18
M  V30 18 2 18 19
M  V30 19 1 18 20
M  V30 20 2 20 21
M  V30 21 1 21 22
M  V30 22 2 22 23
M  V30 23 1 23 24
M  V30 24 2 24 25
M  V30 25 1 23 26
M  V30 26 2 26 27
M  V30 27 1 27 28
M  V30 28 2 28 29
M  V30 29 1 29 30
M  V30 30 2 30 31
M  V30 31 1 31 32
M  V30 32 1 32 33
M  V30 33 2 32 34
M  V30 34 2 32 35
M  V30 35 1 16 36
M  V30 36 2 36 37
M  V30 37 1 37 3
M  V30 38 1 12 7
M  V30 39 1 25 20
M  V30 40 1 31 26
M  V30 41 1 1 38
M  V30 42 1 1 39
M  V30 43 1 1 40
M  V30 44 1 4 41
M  V30 45 1 8 42
M  V30 46 1 10 43
M  V30 47 1 11 44
M  V30 48 1 12 45
M  V30 49 1 14 46
M  V30 50 1 14 47
M  V30 51 1 15 48
M  V30 52 1 17 49
M  V30 53 1 21 50
M  V30 54 1 22 51
M  V30 55 1 24 52
M  V30 56 1 25 53
M  V30 57 1 27 54
M  V30 58 1 28 55
M  V30 59 1 29 56
M  V30 60 1 30 57
M  V30 61 1 33 58
M  V30 62 1 33 59
M  V30 63 1 36 60
M  V30 64 1 37 61
M  V30 END BOND
M  V30 END CTAB
M  END
