
     RDKit          3D

  0  0  0  0  0  0  0  0  0  0999 V3000
M  V30 BEGIN CTAB
M  V30 COUNTS 18 18 0 0 0
M  V30 BEGIN ATOM
M  V30 1 N -2.53485 -0.0404711 1.03716 0
M  V30 2 C -1.98771 0.644351 -0.135064 0
M  V30 3 C -0.618536 0.0619446 -0.334898 0
M  V30 4 C 0.484011 0.624284 0.273477 0
M  V30 5 C 1.73553 0.0759942 0.0789118 0
M  V30 6 N 2.88906 0.633596 0.692438 0
M  V30 7 C 1.80534 -1.03833 -0.740349 0
M  V30 8 N 0.709967 -1.57396 -1.32756 0
M  V30 9 C -0.518989 -1.04811 -1.14587 0
M  V30 10 H -3.51367 0.25721 1.2412 0
M  V30 11 H -2.44662 -1.07599 0.951804 0
M  V30 12 H -2.62222 0.541464 -1.01923 0
M  V30 13 H -1.83021 1.70442 0.161809 0
M  V30 14 H 0.389398 1.50891 0.917134 0
M  V30 15 H 3.1884 1.62219 0.551705 0
M  V30 16 H 3.48632 0.054069 1.31872 0
M  V30 17 H 2.78723 -1.45924 -0.886074 0
M  V30 18 H -1.40245 -1.49233 -1.62857 0
M  V30 END ATOM
M  V30 BEGIN BOND
M  V30 1 1 1 2
M  V30 2 1 2 3
M  V30 3 2 3 4
M  V30 4 1 4 5
M  V30 5 1 5 6
M  V30 6 2 5 7
M  V30 7 1 7 8
M  V30 8 2 8 9
M  V30 9 1 9 3
M  V30 10 1 1 10
M  V30 11 1 1 11
M  V30 12 1 2 12
M  V30 13 1 2 13
M  V30 14 1 4 14
M  V30 15 1 6 15
M  V30 16 1 6 16
M  V30 17 1 7 17
M  V30 18 1 9 18
M  V30 END BOND
M  V30 END CTAB
M  END
