
     RDKit          3D

  0  0  0  0  0  0  0  0  0  0999 V3000
M  V30 BEGIN CTAB
M  V30 COUNTS 33 34 0 0 0
M  V30 BEGIN ATOM
M  V30 1 Cl 6.46323 2.41119 -0.289652 0
M  V30 2 C 5.13548 1.26789 -0.174768 0
M  V30 3 C 5.34184 -0.0795116 -0.382551 0
M  V30 4 C 4.34883 -1.00916 -0.305985 0
M  V30 5 C 3.03347 -0.62427 -0.00325236 0
M  V30 6 C 2.82326 0.723254 0.205624 0
M  V30 7 C 3.84896 1.66234 0.123726 0
M  V30 8 C 1.9797 -1.60446 0.0897651 0
M  V30 9 O 2.25326 -2.81594 -0.0649739 0
M  V30 10 C 0.593348 -1.21463 0.359266 0
M  V30 11 S -0.0457322 -0.141544 -0.983917 0
M  V30 12 C -1.73066 0.316306 -0.630044 0
M  V30 13 N -2.04581 1.41895 0.0805286 0
M  V30 14 C -3.31263 1.78067 0.357041 0
M  V30 15 N -3.63173 2.93843 1.10255 0
M  V30 16 C -4.33691 0.967203 -0.120271 0
M  V30 17 C -4.02918 -0.152577 -0.841388 0
M  V30 18 N -2.74072 -0.451604 -1.07901 0
M  V30 19 N -5.10536 -0.969316 -1.31919 0
M  V30 20 C -0.311828 -2.44163 0.469593 0
M  V30 21 H 6.37899 -0.360104 -0.618388 0
M  V30 22 H 4.54073 -2.05345 -0.473239 0
M  V30 23 H 1.81992 1.10691 0.455148 0
M  V30 24 H 3.61928 2.70399 0.298038 0
M  V30 25 H 0.55445 -0.643272 1.30135 0
M  V30 26 H -3.92054 3.81743 0.642611 0
M  V30 27 H -3.57277 2.89853 2.13399 0
M  V30 28 H -5.36645 1.25242 0.0990024 0
M  V30 29 H -5.93089 -1.12505 -0.671728 0
M  V30 30 H -5.08315 -1.39131 -2.25455 0
M  V30 31 H -0.980179 -2.47826 -0.415944 0
M  V30 32 H 0.319427 -3.3538 0.570205 0
M  V30 33 H -0.909621 -2.35563 1.40351 0
M  V30 END ATOM
M  V30 BEGIN BOND
M  V30 1 1 1 2
M  V30 2 2 2 3
M  V30 3 1 3 4
M  V30 4 2 4 5
M  V30 5 1 5 6
M  V30 6 2 6 7
M  V30 7 1 5 8
M  V30 8 2 8 9
M  V30 9 1 8 10
M  V30 10 1 10 11
M  V30 11 1 11 12
M  V30 12 2 12 13
M  V30 13 1 13 14
M  V30 14 1 14 15
M  V30 15 2 14 16
M  V30 16 1 16 17
M  V30 17 2 17 18
M  V30 18 1 17 19
M  V30 19 1 10 20
M  V30 20 1 7 2
M  V30 21 1 18 12
M  V30 22 1 3 21
M  V30 23 1 4 22
M  V30 24 1 6 23
M  V30 25 1 7 24
M  V30 26 1 10 25
M  V30 27 1 15 26
M  V30 28 1 15 27
M  V30 29 1 16 28
M  V30 30 1 19 29
M  V30 31 1 19 30
M  V30 32 1 20 31
M  V30 33 1 20 32
M  V30 34 1 20 33
M  V30 END BOND
M  V30 END CTAB
M  END
