
     RDKit          3D

  0  0  0  0  0  0  0  0  0  0999 V3000
M  V30 BEGIN CTAB
M  V30 COUNTS 41 42 0 0 0
M  V30 BEGIN ATOM
M  V30 1 C 0.416289 2.78537 -1.16532 0
M  V30 2 C -0.396032 2.78537 0.0805053 0
M  V30 3 C -0.169241 1.78767 1.10633 0
M  V30 4 C -1.1801 2.11339 2.26036 0
M  V30 5 C -0.0983282 0.358919 0.926629 0
M  V30 6 C -1.17043 -0.461112 0.408935 0
M  V30 7 C -1.30765 -1.73625 0.978378 0
M  V30 8 C -2.2609 -2.64827 0.616054 0
M  V30 9 C -3.14581 -2.28044 -0.380199 0
M  V30 10 N -4.14235 -3.21883 -0.76707 0
M  V30 11 C -3.02436 -1.03221 -0.949208 0
M  V30 12 C -2.06294 -0.134465 -0.57187 0
M  V30 13 C 1.1781 -0.0963553 0.283231 0
M  V30 14 C 1.27153 -0.459978 -1.04344 0
M  V30 15 C 2.46291 -0.873532 -1.6146 0
M  V30 16 C 3.60088 -0.932178 -0.858301 0
M  V30 17 N 4.82204 -1.35995 -1.45879 0
M  V30 18 C 3.54828 -0.57735 0.469531 0
M  V30 19 C 2.35084 -0.170986 1.00766 0
M  V30 20 H 1.49702 2.62789 -1.02823 0
M  V30 21 H 0.382998 3.83918 -1.61057 0
M  V30 22 H -0.059635 2.18304 -1.95675 0
M  V30 23 H -1.45062 2.975 -0.220519 0
M  V30 24 H -0.132898 3.79164 0.576506 0
M  V30 25 H 0.811471 2.06796 1.62291 0
M  V30 26 H -2.18368 2.2703 1.82862 0
M  V30 27 H -1.17515 1.2575 2.96408 0
M  V30 28 H -0.872763 3.01034 2.78843 0
M  V30 29 H 0.0694726 -0.0290315 2.01558 0
M  V30 30 H -0.6298 -2.08285 1.77554 0
M  V30 31 H -2.3365 -3.63001 1.08147 0
M  V30 32 H -3.84397 -4.12367 -1.18089 0
M  V30 33 H -5.15081 -2.99359 -0.633804 0
M  V30 34 H -3.7313 -0.772864 -1.72633 0
M  V30 35 H -1.98524 0.851878 -1.04083 0
M  V30 36 H 0.36609 -0.410445 -1.63596 0
M  V30 37 H 2.42475 -1.13755 -2.66938 0
M  V30 38 H 4.98079 -1.12643 -2.45725 0
M  V30 39 H 5.53975 -1.89036 -0.923604 0
M  V30 40 H 4.43955 -0.627173 1.04677 0
M  V30 41 H 2.34773 0.100424 2.05541 0
M  V30 END ATOM
M  V30 BEGIN BOND
M  V30 1 1 1 2
M  V30 2 1 2 3
M  V30 3 1 3 4
M  V30 4 1 3 5
M  V30 5 1 5 6
M  V30 6 2 6 7
M  V30 7 1 7 8
M  V30 8 2 8 9
M  V30 9 1 9 10
M  V30 10 1 9 11
M  V30 11 2 11 12
M  V30 12 1 5 13
M  V30 13 2 13 14
M  V30 14 1 14 15
M  V30 15 2 15 16
M  V30 16 1 16 17
M  V30 17 1 16 18
M  V30 18 2 18 19
M  V30 19 1 12 6
M  V30 20 1 19 13
M  V30 21 1 1 20
M  V30 22 1 1 21
M  V30 23 1 1 22
M  V30 24 1 2 23
M  V30 25 1 2 24
M  V30 26 1 3 25
M  V30 27 1 4 26
M  V30 28 1 4 27
M  V30 29 1 4 28
M  V30 30 1 5 29
M  V30 31 1 7 30
M  V30 32 1 8 31
M  V30 33 1 10 32
M  V30 34 1 10 33
M  V30 35 1 11 34
M  V30 36 1 12 35
M  V30 37 1 14 36
M  V30 38 1 15 37
M  V30 39 1 17 38
M  V30 40 1 17 39
M  V30 41 1 18 40
M  V30 42 1 19 41
M  V30 END BOND
M  V30 END CTAB
M  END
