
     RDKit          3D

  0  0  0  0  0  0  0  0  0  0999 V3000
M  V30 BEGIN CTAB
M  V30 COUNTS 30 31 0 0 0
M  V30 BEGIN ATOM
M  V30 1 N 5.91904 0.599401 1.36812 0
M  V30 2 C 4.5718 0.367844 0.967743 0
M  V30 3 C 4.23872 -0.175111 -0.249021 0
M  V30 4 C 2.91068 -0.398412 -0.632283 0
M  V30 5 C 1.89983 -0.0621335 0.241045 0
M  V30 6 C 2.26734 0.488122 1.47123 0
M  V30 7 C 3.56508 0.705325 1.84343 0
M  V30 8 Cl 0.990616 0.932969 2.6206 0
M  V30 9 N 0.532035 -0.236964 -0.0267826 0
M  V30 10 C -0.102866 -0.756955 -1.161 0
M  V30 11 O 0.532516 -1.15937 -2.14956 0
M  V30 12 C -1.56024 -0.856302 -1.24631 0
M  V30 13 C -2.33012 -1.33682 -2.27639 0
M  V30 14 C -3.66307 -1.2243 -1.88637 0
M  V30 15 C -3.61299 -0.673792 -0.624451 0
M  V30 16 O -2.36591 -0.476302 -0.292613 0
M  V30 17 S -4.96578 -0.287751 0.396947 0
M  V30 18 O -6.25937 -0.624604 -0.265899 0
M  V30 19 O -4.82311 -1.02291 1.71063 0
M  V30 20 N -4.93072 1.40794 0.728623 0
M  V30 21 H 6.13763 1.4068 1.98895 0
M  V30 22 H 6.66907 -0.0508882 1.02838 0
M  V30 23 H 5.03196 -0.444081 -0.946044 0
M  V30 24 H 2.70037 -0.824401 -1.59195 0
M  V30 25 H 3.80618 1.14469 2.83085 0
M  V30 26 H -0.144415 0.0721552 0.751121 0
M  V30 27 H -1.93957 -1.72403 -3.20586 0
M  V30 28 H -4.50502 -1.51331 -2.46867 0
M  V30 29 H -5.78411 1.71345 1.22488 0
M  V30 30 H -4.78557 1.95926 -0.149371 0
M  V30 END ATOM
M  V30 BEGIN BOND
M  V30 1 1 1 2
M  V30 2 2 2 3
M  V30 3 1 3 4
M  V30 4 2 4 5
M  V30 5 1 5 6
M  V30 6 2 6 7
M  V30 7 1 6 8
M  V30 8 1 5 9
M  V30 9 1 9 10
M  V30 10 2 10 11
M  V30 11 1 10 12
M  V30 12 2 12 13
M  V30 13 1 13 14
M  V30 14 2 14 15
M  V30 15 1 15 16
M  V30 16 1 15 17
M  V30 17 2 17 18
M  V30 18 2 17 19
M  V30 19 1 17 20
M  V30 20 1 7 2
M  V30 21 1 16 12
M  V30 22 1 1 21
M  V30 23 1 1 22
M  V30 24 1 3 23
M  V30 25 1 4 24
M  V30 26 1 7 25
M  V30 27 1 9 26
M  V30 28 1 13 27
M  V30 29 1 14 28
M  V30 30 1 20 29
M  V30 31 1 20 30
M  V30 END BOND
M  V30 END CTAB
M  END
