
     RDKit          3D

  0  0  0  0  0  0  0  0  0  0999 V3000
M  V30 BEGIN CTAB
M  V30 COUNTS 44 45 0 0 0
M  V30 BEGIN ATOM
M  V30 1 N 2.92114 -1.67435 1.76396 0
M  V30 2 C 1.94326 -0.63213 1.66309 0
M  V30 3 C 1.57583 -0.288049 0.235541 0
M  V30 4 C 2.90307 0.166372 -0.400974 0
M  V30 5 C 2.56108 0.772453 -1.72886 0
M  V30 6 O 1.90518 1.97706 -1.54919 0
M  V30 7 C 2.66683 3.00912 -2.09015 0
M  V30 8 C 1.77878 -0.185265 -2.59597 0
M  V30 9 C 0.710326 -0.912723 -1.83897 0
M  V30 10 N 1.11956 -1.39159 -0.531816 0
M  V30 11 S -0.217866 -2.24164 0.131847 0
M  V30 12 O -0.562861 -3.44313 -0.74345 0
M  V30 13 O 0.0931892 -2.82011 1.47862 0
M  V30 14 C -1.61398 -1.20611 0.269588 0
M  V30 15 C -2.46122 -1.13563 -0.825679 0
M  V30 16 C -3.58996 -0.344554 -0.803419 0
M  V30 17 C -3.86981 0.384771 0.335062 0
M  V30 18 C -3.04954 0.338213 1.44166 0
M  V30 19 C -1.93345 -0.463478 1.3784 0
M  V30 20 S -3.45202 1.28444 2.86061 0
M  V30 21 O -2.17067 1.70885 3.51347 0
M  V30 22 O -4.18329 2.50788 2.38748 0
M  V30 23 N -4.43618 0.438125 3.96188 0
M  V30 24 H 3.10481 -2.19234 0.896995 0
M  V30 25 H 2.84816 -2.24937 2.61433 0
M  V30 26 H 2.45872 0.29968 2.05013 0
M  V30 27 H 1.07053 -0.743016 2.3303 0
M  V30 28 H 0.906951 0.582818 0.265203 0
M  V30 29 H 3.43603 0.87765 0.224188 0
M  V30 30 H 3.49338 -0.769476 -0.621115 0
M  V30 31 H 3.51772 0.962453 -2.25701 0
M  V30 32 H 2.82525 2.836 -3.19409 0
M  V30 33 H 3.68248 3.05904 -1.62206 0
M  V30 34 H 2.21354 3.99128 -1.9691 0
M  V30 35 H 2.43626 -0.893771 -3.12869 0
M  V30 36 H 1.27578 0.432193 -3.37541 0
M  V30 37 H 0.419 -1.79897 -2.43113 0
M  V30 38 H -0.113788 -0.19104 -1.67378 0
M  V30 39 H -2.2569 -1.70201 -1.72893 0
M  V30 40 H -4.26288 -0.285902 -1.66767 0
M  V30 41 H -4.76424 1.02805 0.387417 0
M  V30 42 H -1.29087 -0.513243 2.22336 0
M  V30 43 H -5.43984 0.686609 3.81531 0
M  V30 44 H -4.19747 0.734842 4.92941 0
M  V30 END ATOM
M  V30 BEGIN BOND
M  V30 1 1 1 2
M  V30 2 1 2 3
M  V30 3 1 3 4
M  V30 4 1 4 5
M  V30 5 1 5 6
M  V30 6 1 6 7
M  V30 7 1 5 8
M  V30 8 1 8 9
M  V30 9 1 9 10
M  V30 10 1 10 11
M  V30 11 2 11 12
M  V30 12 2 11 13
M  V30 13 1 11 14
M  V30 14 2 14 15
M  V30 15 1 15 16
M  V30 16 2 16 17
M  V30 17 1 17 18
M  V30 18 2 18 19
M  V30 19 1 18 20
M  V30 20 2 20 21
M  V30 21 2 20 22
M  V30 22 1 20 23
M  V30 23 1 10 3
M  V30 24 1 19 14
M  V30 25 1 1 24
M  V30 26 1 1 25
M  V30 27 1 2 26
M  V30 28 1 2 27
M  V30 29 1 3 28
M  V30 30 1 4 29
M  V30 31 1 4 30
M  V30 32 1 5 31
M  V30 33 1 7 32
M  V30 34 1 7 33
M  V30 35 1 7 34
M  V30 36 1 8 35
M  V30 37 1 8 36
M  V30 38 1 9 37
M  V30 39 1 9 38
M  V30 40 1 15 39
M  V30 41 1 16 40
M  V30 42 1 17 41
M  V30 43 1 19 42
M  V30 44 1 23 43
M  V30 45 1 23 44
M  V30 END BOND
M  V30 END CTAB
M  END
