
     RDKit          3D

  0  0  0  0  0  0  0  0  0  0999 V3000
M  V30 BEGIN CTAB
M  V30 COUNTS 26 28 0 0 0
M  V30 BEGIN ATOM
M  V30 1 N -3.40837 -1.95724 -0.302425 0
M  V30 2 C -2.75394 -0.714007 -0.168534 0
M  V30 3 C -1.38556 -0.628039 -0.10877 0
M  V30 4 C -0.700337 0.591914 0.0242267 0
M  V30 5 C -1.47624 1.71404 0.0928908 0
M  V30 6 S -0.963559 3.41854 0.262005 0
M  V30 7 S 1.11691 3.39623 0.337689 0
M  V30 8 C 1.57446 1.68089 0.205824 0
M  V30 9 C 0.775802 0.587389 0.0799019 0
M  V30 10 C 1.36016 -0.690945 -0.00929465 0
M  V30 11 C 2.73476 -0.894011 0.0255277 0
M  V30 12 N 3.30004 -2.19468 -0.0663394 0
M  V30 13 C 3.51719 0.224806 0.15305 0
M  V30 14 C 2.94936 1.47049 0.240025 0
M  V30 15 C -2.87352 1.6079 0.0302526 0
M  V30 16 C -3.52852 0.427911 -0.0980967 0
M  V30 17 H -3.23241 -2.54216 -1.13671 0
M  V30 18 H -4.06166 -2.28878 0.425042 0
M  V30 19 H -0.87047 -1.55385 -0.170195 0
M  V30 20 H 0.78909 -1.58914 -0.109502 0
M  V30 21 H 4.20399 -2.40682 -0.535337 0
M  V30 22 H 2.78984 -3.00744 0.359178 0
M  V30 23 H 4.60905 0.0999764 0.183912 0
M  V30 24 H 3.61529 2.34391 0.341688 0
M  V30 25 H -3.48507 2.52315 0.0870483 0
M  V30 26 H -4.59629 0.379963 -0.143053 0
M  V30 END ATOM
M  V30 BEGIN BOND
M  V30 1 1 1 2
M  V30 2 2 2 3
M  V30 3 1 3 4
M  V30 4 2 4 5
M  V30 5 1 5 6
M  V30 6 1 6 7
M  V30 7 1 7 8
M  V30 8 2 8 9
M  V30 9 1 9 10
M  V30 10 2 10 11
M  V30 11 1 11 12
M  V30 12 1 11 13
M  V30 13 2 13 14
M  V30 14 1 5 15
M  V30 15 2 15 16
M  V30 16 1 16 2
M  V30 17 1 9 4
M  V30 18 1 14 8
M  V30 19 1 1 17
M  V30 20 1 1 18
M  V30 21 1 3 19
M  V30 22 1 10 20
M  V30 23 1 12 21
M  V30 24 1 12 22
M  V30 25 1 13 23
M  V30 26 1 14 24
M  V30 27 1 15 25
M  V30 28 1 16 26
M  V30 END BOND
M  V30 END CTAB
M  END
