
     RDKit          3D

  0  0  0  0  0  0  0  0  0  0999 V3000
M  V30 BEGIN CTAB
M  V30 COUNTS 43 42 0 0 0
M  V30 BEGIN ATOM
M  V30 1 C 3.80906 -0.126543 2.67666 0
M  V30 2 C 2.43402 0.417233 2.45091 0
M  V30 3 C 2.34126 1.24898 1.18779 0
M  V30 4 C 2.68565 0.493761 -0.0549016 0
M  V30 5 C 1.80583 -0.695402 -0.32833 0
M  V30 6 N 0.424213 -0.35076 -0.483623 0
M  V30 7 C -0.634806 -0.929169 0.232195 0
M  V30 8 O -0.403799 -1.81373 1.07662 0
M  V30 9 C -2.07446 -0.523814 0.0255661 0
M  V30 10 C -2.23432 0.935698 0.218755 0
M  V30 11 C -3.62449 1.4364 0.0811683 0
M  V30 12 C -4.3118 1.29558 -1.22164 0
M  V30 13 N -2.87536 -1.31879 0.919783 0
M  V30 14 C -2.37995 -0.944902 -1.39327 0
M  V30 15 C 2.33973 -1.35597 -1.60753 0
M  V30 16 N 2.29891 -0.442355 -2.73147 0
M  V30 17 H 4.58627 0.491232 2.18325 0
M  V30 18 H 4.02885 -0.102092 3.76342 0
M  V30 19 H 3.87407 -1.18593 2.32869 0
M  V30 20 H 1.68275 -0.369825 2.46483 0
M  V30 21 H 2.22126 1.14344 3.29007 0
M  V30 22 H 3.10644 2.05472 1.29621 0
M  V30 23 H 1.36751 1.75822 1.14535 0
M  V30 24 H 2.69702 1.21827 -0.889905 0
M  V30 25 H 3.74635 0.153794 0.0540735 0
M  V30 26 H 1.93467 -1.45572 0.453642 0
M  V30 27 H 0.159113 0.399539 -1.1907 0
M  V30 28 H -1.80695 1.28609 1.20417 0
M  V30 29 H -1.62346 1.44984 -0.59724 0
M  V30 30 H -3.68118 2.53166 0.361133 0
M  V30 31 H -4.31479 0.96897 0.851866 0
M  V30 32 H -3.71543 1.68845 -2.07469 0
M  V30 33 H -4.8032 0.336612 -1.41982 0
M  V30 34 H -5.19031 2.03895 -1.18074 0
M  V30 35 H -3.02335 -2.24883 0.451213 0
M  V30 36 H -2.41864 -1.49793 1.84412 0
M  V30 37 H -1.64449 -1.78389 -1.66266 0
M  V30 38 H -3.38305 -1.45614 -1.40834 0
M  V30 39 H -2.29655 -0.150355 -2.13538 0
M  V30 40 H 3.42644 -1.55633 -1.40609 0
M  V30 41 H 1.77733 -2.25796 -1.85201 0
M  V30 42 H 2.16861 -1.02036 -3.5914 0
M  V30 43 H 1.52503 0.239375 -2.69313 0
M  V30 END ATOM
M  V30 BEGIN BOND
M  V30 1 1 1 2
M  V30 2 1 2 3
M  V30 3 1 3 4
M  V30 4 1 4 5
M  V30 5 1 5 6
M  V30 6 1 6 7
M  V30 7 2 7 8
M  V30 8 1 7 9
M  V30 9 1 9 10
M  V30 10 1 10 11
M  V30 11 1 11 12
M  V30 12 1 9 13
M  V30 13 1 9 14
M  V30 14 1 5 15
M  V30 15 1 15 16
M  V30 16 1 1 17
M  V30 17 1 1 18
M  V30 18 1 1 19
M  V30 19 1 2 20
M  V30 20 1 2 21
M  V30 21 1 3 22
M  V30 22 1 3 23
M  V30 23 1 4 24
M  V30 24 1 4 25
M  V30 25 1 5 26
M  V30 26 1 6 27
M  V30 27 1 10 28
M  V30 28 1 10 29
M  V30 29 1 11 30
M  V30 30 1 11 31
M  V30 31 1 12 32
M  V30 32 1 12 33
M  V30 33 1 12 34
M  V30 34 1 13 35
M  V30 35 1 13 36
M  V30 36 1 14 37
M  V30 37 1 14 38
M  V30 38 1 14 39
M  V30 39 1 15 40
M  V30 40 1 15 41
M  V30 41 1 16 42
M  V30 42 1 16 43
M  V30 END BOND
M  V30 END CTAB
M  END
