
     RDKit          3D

  0  0  0  0  0  0  0  0  0  0999 V3000
M  V30 BEGIN CTAB
M  V30 COUNTS 25 25 0 0 0
M  V30 BEGIN ATOM
M  V30 1 N -4.35195 1.24239 0.0760964 0
M  V30 2 N -3.18124 0.461494 0.0496368 0
M  V30 3 C -1.90059 1.04162 -0.0764388 0
M  V30 4 O -1.84104 2.3152 -0.166766 0
M  V30 5 C -0.66876 0.283764 -0.108543 0
M  V30 6 C 0.570263 0.935325 -0.237332 0
M  V30 7 C 1.74458 0.219024 -0.268263 0
M  V30 8 O 2.95658 0.86011 -0.394483 0
M  V30 9 C 3.13367 2.23673 -0.500571 0
M  V30 10 C 1.65781 -1.13797 -0.169654 0
M  V30 11 C 0.47155 -1.82688 -0.0419089 0
M  V30 12 C -0.719875 -1.08582 -0.011502 0
M  V30 13 N 0.395339 -3.24172 0.0599385 0
M  V30 14 O 2.83804 -1.86514 -0.20024 0
M  V30 15 H -4.66513 1.54479 -0.850557 0
M  V30 16 H -5.0537 0.794276 0.677146 0
M  V30 17 H -3.31164 -0.564384 0.127886 0
M  V30 18 H 0.539679 2.01206 -0.308828 0
M  V30 19 H 2.41599 2.63391 -1.2775 0
M  V30 20 H 2.90279 2.78977 0.419186 0
M  V30 21 H 4.14123 2.47049 -0.90168 0
M  V30 22 H -1.64814 -1.64775 0.0900337 0
M  V30 23 H 0.282627 -3.82212 -0.823586 0
M  V30 24 H 0.440616 -3.77478 0.939047 0
M  V30 25 H 2.85126 -2.87439 -0.132162 0
M  V30 END ATOM
M  V30 BEGIN BOND
M  V30 1 1 1 2
M  V30 2 1 2 3
M  V30 3 2 3 4
M  V30 4 1 3 5
M  V30 5 2 5 6
M  V30 6 1 6 7
M  V30 7 1 7 8
M  V30 8 1 8 9
M  V30 9 2 7 10
M  V30 10 1 10 11
M  V30 11 2 11 12
M  V30 12 1 11 13
M  V30 13 1 10 14
M  V30 14 1 12 5
M  V30 15 1 1 15
M  V30 16 1 1 16
M  V30 17 1 2 17
M  V30 18 1 6 18
M  V30 19 1 9 19
M  V30 20 1 9 20
M  V30 21 1 9 21
M  V30 22 1 12 22
M  V30 23 1 13 23
M  V30 24 1 13 24
M  V30 25 1 14 25
M  V30 END BOND
M  V30 END CTAB
M  END
