
     RDKit          3D

  0  0  0  0  0  0  0  0  0  0999 V3000
M  V30 BEGIN CTAB
M  V30 COUNTS 54 56 0 0 0
M  V30 BEGIN ATOM
M  V30 1 C -0.534746 2.31281 1.91285 0
M  V30 2 C -1.34036 1.67909 0.834944 0
M  V30 3 C -2.68743 1.43219 0.989643 0
M  V30 4 C -3.48185 0.845416 0.0184987 0
M  V30 5 C -2.87095 0.498393 -1.15743 0
M  V30 6 N -3.61834 -0.102063 -2.20063 0
M  V30 7 C -1.50567 0.744031 -1.32506 0
M  V30 8 O -0.979507 0.40551 -2.43292 0
M  V30 9 N -0.795299 1.31745 -0.339094 0
M  V30 10 C 0.609126 1.5628 -0.528879 0
M  V30 11 C 1.44765 0.421231 -0.0897015 0
M  V30 12 O 0.96133 -0.634684 0.392314 0
M  V30 13 N 2.87673 0.569198 -0.238982 0
M  V30 14 C 3.71956 -0.507644 0.172195 0
M  V30 15 C 5.15427 -0.277651 -0.0124479 0
M  V30 16 C 5.70188 0.856922 -0.531386 0
M  V30 17 C 7.08118 0.989603 -0.670883 0
M  V30 18 C 7.93412 -0.00257889 -0.296877 0
M  V30 19 N 9.33582 0.126441 -0.436155 0
M  V30 20 N 7.39132 -1.12449 0.216344 0
M  V30 21 C 6.07762 -1.27508 0.359582 0
M  V30 22 C 5.50917 -2.52697 0.92982 0
M  V30 23 S -5.18551 0.55051 0.271142 0
M  V30 24 O -5.92996 1.3565 -0.754523 0
M  V30 25 O -5.619 1.04831 1.61745 0
M  V30 26 C -5.54456 -1.16349 0.175783 0
M  V30 27 C -6.99837 -1.47722 0.386778 0
M  V30 28 C -8.04909 -0.935606 -0.492881 0
M  V30 29 C -7.60716 -2.32416 -0.742659 0
M  V30 30 H 0.276268 1.65038 2.27484 0
M  V30 31 H -1.20244 2.50533 2.77269 0
M  V30 32 H -0.108244 3.28393 1.59116 0
M  V30 33 H -3.18395 1.70694 1.92746 0
M  V30 34 H -4.34613 0.452503 -2.68859 0
M  V30 35 H -3.46353 -1.0839 -2.49709 0
M  V30 36 H 0.793741 1.67503 -1.63714 0
M  V30 37 H 0.940301 2.52795 -0.0909168 0
M  V30 38 H 3.25513 1.43539 -0.633188 0
M  V30 39 H 3.4929 -0.840233 1.22312 0
M  V30 40 H 3.48319 -1.44967 -0.427675 0
M  V30 41 H 5.10004 1.69125 -0.852799 0
M  V30 42 H 7.49017 1.9006 -1.08571 0
M  V30 43 H 9.92134 0.543345 0.311507 0
M  V30 44 H 9.78447 -0.20614 -1.31071 0
M  V30 45 H 6.34075 -3.11378 1.36681 0
M  V30 46 H 4.812 -2.30439 1.74625 0
M  V30 47 H 5.04336 -3.09271 0.0863835 0
M  V30 48 H -4.96635 -1.66462 0.998835 0
M  V30 49 H -5.14836 -1.58105 -0.760371 0
M  V30 50 H -7.29805 -1.72792 1.42521 0
M  V30 51 H -9.04657 -0.734116 -0.0387215 0
M  V30 52 H -7.82132 -0.207635 -1.30995 0
M  V30 53 H -6.99462 -2.53132 -1.62853 0
M  V30 54 H -8.20606 -3.19994 -0.413108 0
M  V30 END ATOM
M  V30 BEGIN BOND
M  V30 1 1 1 2
M  V30 2 2 2 3
M  V30 3 1 3 4
M  V30 4 2 4 5
M  V30 5 1 5 6
M  V30 6 1 5 7
M  V30 7 2 7 8
M  V30 8 1 7 9
M  V30 9 1 9 10
M  V30 10 1 10 11
M  V30 11 2 11 12
M  V30 12 1 11 13
M  V30 13 1 13 14
M  V30 14 1 14 15
M  V30 15 2 15 16
M  V30 16 1 16 17
M  V30 17 2 17 18
M  V30 18 1 18 19
M  V30 19 1 18 20
M  V30 20 2 20 21
M  V30 21 1 21 22
M  V30 22 1 4 23
M  V30 23 2 23 24
M  V30 24 2 23 25
M  V30 25 1 23 26
M  V30 26 1 26 27
M  V30 27 1 27 28
M  V30 28 1 28 29
M  V30 29 1 9 2
M  V30 30 1 21 15
M  V30 31 1 29 27
M  V30 32 1 1 30
M  V30 33 1 1 31
M  V30 34 1 1 32
M  V30 35 1 3 33
M  V30 36 1 6 34
M  V30 37 1 6 35
M  V30 38 1 10 36
M  V30 39 1 10 37
M  V30 40 1 13 38
M  V30 41 1 14 39
M  V30 42 1 14 40
M  V30 43 1 16 41
M  V30 44 1 17 42
M  V30 45 1 19 43
M  V30 46 1 19 44
M  V30 47 1 22 45
M  V30 48 1 22 46
M  V30 49 1 22 47
M  V30 50 1 26 48
M  V30 51 1 26 49
M  V30 52 1 27 50
M  V30 53 1 28 51
M  V30 54 1 28 52
M  V30 55 1 29 53
M  V30 56 1 29 54
M  V30 END BOND
M  V30 END CTAB
M  END
