
     RDKit          3D

  0  0  0  0  0  0  0  0  0  0999 V3000
M  V30 BEGIN CTAB
M  V30 COUNTS 36 37 0 0 0
M  V30 BEGIN ATOM
M  V30 1 N -3.62091 2.02371 -0.773112 0
M  V30 2 C -3.65188 0.778121 -1.42237 0 CFG=2
M  V30 3 C -4.77138 -0.0695572 -0.8421 0
M  V30 4 C -3.73412 -0.735993 0.0203803 0
M  V30 5 C -2.69827 -0.278732 -1.02972 0 CFG=2
M  V30 6 N -1.50183 0.0968604 -0.304693 0
M  V30 7 C -0.240522 -0.481239 -0.440151 0
M  V30 8 O -0.197171 -1.41091 -1.33791 0
M  V30 9 C 0.985855 -0.212021 0.243438 0
M  V30 10 C 2.19493 -0.347137 -0.468398 0
M  V30 11 C 3.41649 -0.0542202 0.0825735 0
M  V30 12 C 3.45947 0.39076 1.3907 0
M  V30 13 C 2.30209 0.534735 2.12029 0
M  V30 14 C 1.06842 0.225677 1.52619 0
M  V30 15 C -0.153808 0.332028 2.35283 0
M  V30 16 S 4.91755 -0.233417 -0.811946 0
M  V30 17 O 5.86359 0.819681 -0.301248 0
M  V30 18 O 4.63674 0.0497902 -2.2479 0
M  V30 19 N 5.62685 -1.76882 -0.551738 0
M  V30 20 H -2.85493 2.61981 -1.04046 0
M  V30 21 H -3.86784 1.99438 0.207496 0
M  V30 22 H -3.85343 0.91617 -2.51275 0
M  V30 23 H -5.21574 -0.78343 -1.53805 0
M  V30 24 H -5.49526 0.500195 -0.21701 0
M  V30 25 H -3.5649 -0.250686 0.994715 0
M  V30 26 H -3.71354 -1.84229 0.0276117 0
M  V30 27 H -2.51676 -1.03235 -1.80426 0
M  V30 28 H -1.61803 0.882328 0.350196 0
M  V30 29 H 2.16536 -0.699239 -1.49932 0
M  V30 30 H 4.42085 0.622639 1.82928 0
M  V30 31 H 2.28234 0.874331 3.14127 0
M  V30 32 H 0.176586 0.148612 3.42596 0
M  V30 33 H -0.904809 -0.439642 2.17492 0
M  V30 34 H -0.553277 1.37991 2.38981 0
M  V30 35 H 6.13532 -2.11844 -1.3657 0
M  V30 36 H 5.07598 -2.4316 -0.00194047 0
M  V30 END ATOM
M  V30 BEGIN BOND
M  V30 1 1 1 2
M  V30 2 1 2 3
M  V30 3 1 3 4
M  V30 4 1 4 5
M  V30 5 1 5 6
M  V30 6 1 6 7
M  V30 7 2 7 8
M  V30 8 1 7 9
M  V30 9 2 9 10
M  V30 10 1 10 11
M  V30 11 2 11 12
M  V30 12 1 12 13
M  V30 13 2 13 14
M  V30 14 1 14 15
M  V30 15 1 11 16
M  V30 16 2 16 17
M  V30 17 2 16 18
M  V30 18 1 16 19
M  V30 19 1 5 2
M  V30 20 1 14 9
M  V30 21 1 1 20
M  V30 22 1 1 21
M  V30 23 1 2 22 CFG=3
M  V30 24 1 3 23
M  V30 25 1 3 24
M  V30 26 1 4 25
M  V30 27 1 4 26
M  V30 28 1 5 27 CFG=3
M  V30 29 1 6 28
M  V30 30 1 10 29
M  V30 31 1 12 30
M  V30 32 1 13 31
M  V30 33 1 15 32
M  V30 34 1 15 33
M  V30 35 1 15 34
M  V30 36 1 19 35
M  V30 37 1 19 36
M  V30 END BOND
M  V30 END CTAB
M  END
