
     RDKit          3D

  0  0  0  0  0  0  0  0  0  0999 V3000
M  V30 BEGIN CTAB
M  V30 COUNTS 24 24 0 0 0
M  V30 BEGIN ATOM
M  V30 1 C -1.77294 -1.41972 0.55663 0
M  V30 2 C -1.03874 -0.205248 0.134894 0
M  V30 3 C 0.398235 -0.23862 -0.0952077 0
M  V30 4 C 1.01402 -1.03279 -1.05127 0
M  V30 5 C 2.33152 -0.932743 -1.40399 0
M  V30 6 F 2.87084 -1.71415 -2.36386 0
M  V30 7 C 3.10957 0.0232872 -0.740785 0
M  V30 8 C 2.52608 0.823288 0.21116 0
M  V30 9 C 1.18344 0.720005 0.556122 0
M  V30 10 N 0.571111 1.47904 1.58865 0
M  V30 11 N -1.66227 1.05616 0.357332 0
M  V30 12 N -2.85128 1.14797 -0.471547 0
M  V30 13 H -2.02474 -2.18713 -0.180757 0
M  V30 14 H -1.16087 -2.0008 1.33418 0
M  V30 15 H -2.72366 -1.11769 1.08772 0
M  V30 16 H -1.35171 -0.261128 -1.11813 0
M  V30 17 H 0.394052 -1.78155 -1.59401 0
M  V30 18 H 4.13247 0.132787 -0.95805 0
M  V30 19 H 3.09444 1.58571 0.781106 0
M  V30 20 H 0.252171 2.42601 1.44092 0
M  V30 21 H 0.507808 0.947603 2.50327 0
M  V30 22 H -1.99747 1.18122 1.32578 0
M  V30 23 H -3.25727 0.156954 -0.416216 0
M  V30 24 H -2.54479 1.21152 -1.48394 0
M  V30 END ATOM
M  V30 BEGIN BOND
M  V30 1 1 1 2
M  V30 2 1 2 3
M  V30 3 2 3 4
M  V30 4 1 4 5
M  V30 5 1 5 6
M  V30 6 2 5 7
M  V30 7 1 7 8
M  V30 8 2 8 9
M  V30 9 1 9 10
M  V30 10 1 2 11
M  V30 11 1 11 12
M  V30 12 1 9 3
M  V30 13 1 1 13
M  V30 14 1 1 14
M  V30 15 1 1 15
M  V30 16 1 2 16
M  V30 17 1 4 17
M  V30 18 1 7 18
M  V30 19 1 8 19
M  V30 20 1 10 20
M  V30 21 1 10 21
M  V30 22 1 11 22
M  V30 23 1 12 23
M  V30 24 1 12 24
M  V30 END BOND
M  V30 END CTAB
M  END
