
     RDKit          3D

  0  0  0  0  0  0  0  0  0  0999 V3000
M  V30 BEGIN CTAB
M  V30 COUNTS 52 53 0 0 0
M  V30 BEGIN ATOM
M  V30 1 C 7.41672 -0.118492 3.02442 0
M  V30 2 O 6.26263 0.0124742 2.18678 0
M  V30 3 C 6.26345 -0.361258 0.866343 0
M  V30 4 O 7.33354 -0.835389 0.396036 0
M  V30 5 C 5.04346 -0.217716 -0.00112406 0 CFG=1
M  V30 6 N 5.3193 -0.680136 -1.32578 0
M  V30 7 C 3.93464 -0.976173 0.688292 0
M  V30 8 C 2.65994 -0.93816 -0.0319754 0
M  V30 9 C 1.77389 0.0770099 0.242508 0
M  V30 10 C 0.56197 0.163699 -0.402697 0
M  V30 11 C 0.218293 -0.783838 -1.3478 0
M  V30 12 O -0.989923 -0.770068 -2.04803 0
M  V30 13 C -1.89681 0.260832 -2.00121 0
M  V30 14 C -1.59186 1.51318 -2.48749 0
M  V30 15 O -0.373511 1.83541 -3.05989 0
M  V30 16 C -2.59727 2.48305 -2.38346 0
M  V30 17 C -3.83155 2.23318 -1.83402 0
M  V30 18 C -4.13709 0.977818 -1.3486 0
M  V30 19 C -5.43858 0.664119 -0.75684 0
M  V30 20 C -5.51785 0.89902 0.72833 0 CFG=2
M  V30 21 N -5.26106 2.26338 1.09043 0
M  V30 22 C -4.71212 -0.0230179 1.53535 0
M  V30 23 O -3.92202 0.444286 2.39485 0
M  V30 24 O -4.76208 -1.40398 1.41418 0
M  V30 25 C -3.94591 -2.25122 2.23626 0
M  V30 26 C -3.159 0.0180597 -1.44406 0
M  V30 27 C 1.1264 -1.79735 -1.608 0
M  V30 28 C 2.34061 -1.89405 -0.969298 0
M  V30 29 H 7.62222 -1.18879 3.13842 0
M  V30 30 H 8.25765 0.478735 2.67701 0
M  V30 31 H 7.09715 0.252567 4.02697 0
M  V30 32 H 4.79108 0.860236 -0.0456154 0
M  V30 33 H 6.33721 -0.517407 -1.52487 0
M  V30 34 H 4.78081 -0.129347 -2.03037 0
M  V30 35 H 4.22268 -2.03608 0.837074 0
M  V30 36 H 3.81874 -0.529159 1.69911 0
M  V30 37 H 2.02366 0.834984 0.983733 0
M  V30 38 H -0.148251 0.963333 -0.19372 0
M  V30 39 H 0.407992 1.27189 -3.22869 0
M  V30 40 H -2.32507 3.47228 -2.77809 0
M  V30 41 H -4.55677 3.04779 -1.79265 0
M  V30 42 H -6.27381 1.242 -1.22059 0
M  V30 43 H -5.70917 -0.416679 -0.916815 0
M  V30 44 H -6.59592 0.701825 1.00623 0
M  V30 45 H -5.16279 2.30308 2.12735 0
M  V30 46 H -5.92288 2.94217 0.700945 0
M  V30 47 H -3.28288 -2.88338 1.63403 0
M  V30 48 H -3.42448 -1.65568 3.00886 0
M  V30 49 H -4.6561 -2.91841 2.76912 0
M  V30 50 H -3.35213 -0.981266 -1.0777 0
M  V30 51 H 0.891185 -2.5678 -2.35045 0
M  V30 52 H 3.04165 -2.71809 -1.2028 0
M  V30 END ATOM
M  V30 BEGIN BOND
M  V30 1 1 1 2
M  V30 2 1 2 3
M  V30 3 2 3 4
M  V30 4 1 3 5
M  V30 5 1 5 6
M  V30 6 1 5 7
M  V30 7 1 7 8
M  V30 8 2 8 9
M  V30 9 1 9 10
M  V30 10 2 10 11
M  V30 11 1 11 12
M  V30 12 1 12 13
M  V30 13 2 13 14
M  V30 14 1 14 15
M  V30 15 1 14 16
M  V30 16 2 16 17
M  V30 17 1 17 18
M  V30 18 1 18 19
M  V30 19 1 19 20
M  V30 20 1 20 21
M  V30 21 1 20 22
M  V30 22 2 22 23
M  V30 23 1 22 24
M  V30 24 1 24 25
M  V30 25 2 18 26
M  V30 26 1 11 27
M  V30 27 2 27 28
M  V30 28 1 28 8
M  V30 29 1 26 13
M  V30 30 1 1 29
M  V30 31 1 1 30
M  V30 32 1 1 31
M  V30 33 1 5 32 CFG=3
M  V30 34 1 6 33
M  V30 35 1 6 34
M  V30 36 1 7 35
M  V30 37 1 7 36
M  V30 38 1 9 37
M  V30 39 1 10 38
M  V30 40 1 15 39
M  V30 41 1 16 40
M  V30 42 1 17 41
M  V30 43 1 19 42
M  V30 44 1 19 43
M  V30 45 1 20 44 CFG=1
M  V30 46 1 21 45
M  V30 47 1 21 46
M  V30 48 1 25 47
M  V30 49 1 25 48
M  V30 50 1 25 49
M  V30 51 1 26 50
M  V30 52 1 27 51
M  V30 53 1 28 52
M  V30 END BOND
M  V30 END CTAB
M  END
