
     RDKit          3D

  0  0  0  0  0  0  0  0  0  0999 V3000
M  V30 BEGIN CTAB
M  V30 COUNTS 103 106 0 0 0
M  V30 BEGIN ATOM
M  V30 1 C -6.09375 -4.95553 -0.887207 0
M  V30 2 C -4.89887 -4.1892 -1.48171 0
M  V30 3 C -3.72193 -5.11418 -1.40252 0
M  V30 4 C -4.6722 -3.02758 -0.574486 0
M  V30 5 C -4.9997 -1.74091 -0.930184 0
M  V30 6 C -4.77254 -0.63945 -0.0792688 0
M  V30 7 C -5.25988 0.632348 -0.624949 0
M  V30 8 C -5.36228 0.524107 -2.15403 0
M  V30 9 C -6.74242 0.771631 -0.209598 0
M  V30 10 C -4.19843 -0.829136 1.16503 0
M  V30 11 C -3.86159 -2.12841 1.54263 0
M  V30 12 C -4.10732 -3.16957 0.669753 0
M  V30 13 C -3.26965 -2.50019 2.85823 0
M  V30 14 C -2.53753 -3.85358 2.68922 0
M  V30 15 C -4.3969 -2.88375 3.83604 0
M  V30 16 S -3.79154 0.48074 2.2213 0
M  V30 17 O -4.83157 1.58338 1.91378 0
M  V30 18 O -4.04075 0.105161 3.69555 0
M  V30 19 N -2.25242 1.00129 2.14735 0
M  V30 20 C -1.56439 1.58692 1.02488 0 CFG=1
M  V30 21 C -1.46887 3.02031 1.07668 0
M  V30 22 C -0.89683 3.91548 0.0977051 0
M  V30 23 C -1.58236 4.0679 -1.10658 0
M  V30 24 C -1.20994 4.96781 -2.04701 0
M  V30 25 C -0.128536 5.75985 -1.82209 0
M  V30 26 C 0.615574 5.66564 -0.628526 0
M  V30 27 C 0.194588 4.73997 0.284542 0
M  V30 28 C 1.76014 6.53495 -0.43099 0
M  V30 29 N 2.12179 7.46485 -1.43598 0
M  V30 30 N 2.45667 6.49921 0.621174 0
M  V30 31 C -0.616339 0.694862 0.417188 0
M  V30 32 O -1.16953 -0.525608 0.124338 0
M  V30 33 N 0.718718 0.640362 0.0176458 0
M  V30 34 C 1.78135 1.546 0.179889 0
M  V30 35 C 3.15279 0.949471 0.356585 0
M  V30 36 C 3.42221 -0.157312 -0.6279 0
M  V30 37 C 2.24235 -0.29059 -1.58692 0
M  V30 38 C 1.08045 -0.605329 -0.723056 0
M  V30 39 C 4.63639 0.0543569 -1.43165 0
M  V30 40 O 4.55637 0.232151 -2.6864 0
M  V30 41 N 5.9408 0.0744577 -0.880619 0
M  V30 42 C 6.0458 -0.139335 0.570305 0
M  V30 43 C 7.40701 -0.634244 0.943959 0
M  V30 44 N 8.12282 -1.29276 -0.112842 0
M  V30 45 C 8.04008 -0.880327 -1.50416 0
M  V30 46 C 7.12428 0.28467 -1.65941 0
M  V30 47 C 8.9552 -2.40442 0.217433 0
M  V30 48 N 10.3453 -2.35415 -0.0306889 0
M  V30 49 N 8.42121 -3.43813 0.739578 0
M  V30 50 H -6.1625 -4.75827 0.21931 0
M  V30 51 H -7.03291 -4.70509 -1.38244 0
M  V30 52 H -5.91059 -6.06048 -0.963442 0
M  V30 53 H -5.20882 -3.89038 -2.48086 0
M  V30 54 H -2.74739 -4.63679 -1.55916 0
M  V30 55 H -3.77965 -5.69323 -0.433587 0
M  V30 56 H -3.85847 -5.9107 -2.185 0
M  V30 57 H -5.45119 -1.63234 -1.90444 0
M  V30 58 H -4.77151 1.54465 -0.3334 0
M  V30 59 H -6.30626 0.0364475 -2.44006 0
M  V30 60 H -5.41025 1.5657 -2.56394 0
M  V30 61 H -4.52134 -0.0406921 -2.57142 0
M  V30 62 H -6.97241 0.160901 0.685292 0
M  V30 63 H -7.41584 0.489359 -1.0476 0
M  V30 64 H -6.96596 1.836 -0.00453395 0
M  V30 65 H -3.85344 -4.1951 0.947639 0
M  V30 66 H -2.65999 -1.77233 3.34163 0
M  V30 67 H -2.04555 -3.8485 1.70634 0
M  V30 68 H -1.73866 -3.88333 3.49049 0
M  V30 69 H -3.20248 -4.707 2.76369 0
M  V30 70 H -5.32166 -2.40198 3.46889 0
M  V30 71 H -4.10158 -2.51158 4.83332 0
M  V30 72 H -4.53811 -3.99149 3.87553 0
M  V30 73 H -1.61932 0.708578 2.86902 0
M  V30 74 H -2.47914 1.48443 0.233739 0
M  V30 75 H -2.4681 3.51803 1.35599 0
M  V30 76 H -0.88993 3.30263 2.05713 0
M  V30 77 H -2.46374 3.42996 -1.29266 0
M  V30 78 H -1.7716 5.05742 -2.97783 0
M  V30 79 H 0.230043 6.50531 -2.53607 0
M  V30 80 H 0.767506 4.66127 1.21343 0
M  V30 81 H 2.34529 8.43626 -1.16677 0
M  V30 82 H 2.15635 7.16035 -2.42005 0
M  V30 83 H 2.27355 5.86806 1.40096 0
M  V30 84 H 1.59848 2.12311 1.12013 0
M  V30 85 H 1.78776 2.27806 -0.650766 0
M  V30 86 H 3.31819 0.561301 1.37102 0
M  V30 87 H 3.8889 1.74883 0.180386 0
M  V30 88 H 3.50964 -1.14343 -0.128158 0
M  V30 89 H 2.51277 -1.08772 -2.29947 0
M  V30 90 H 2.18504 0.644954 -2.15092 0
M  V30 91 H 0.230792 -0.932929 -1.33744 0
M  V30 92 H 1.36761 -1.31279 0.0692104 0
M  V30 93 H 5.24334 -0.819761 0.907779 0
M  V30 94 H 5.88083 0.812517 1.12711 0
M  V30 95 H 7.24065 -1.39092 1.76845 0
M  V30 96 H 8.02292 0.170017 1.41221 0
M  V30 97 H 7.63315 -1.72632 -2.09627 0
M  V30 98 H 9.04769 -0.574956 -1.82828 0
M  V30 99 H 6.90243 0.393364 -2.74152 0
M  V30 100 H 7.66096 1.2112 -1.30951 0
M  V30 101 H 10.8898 -3.1186 -0.471872 0
M  V30 102 H 10.8893 -1.50315 0.235532 0
M  V30 103 H 7.39159 -3.50307 0.936285 0
M  V30 END ATOM
M  V30 BEGIN BOND
M  V30 1 1 1 2
M  V30 2 1 2 3
M  V30 3 1 2 4
M  V30 4 2 4 5
M  V30 5 1 5 6
M  V30 6 1 6 7
M  V30 7 1 7 8
M  V30 8 1 7 9
M  V30 9 2 6 10
M  V30 10 1 10 11
M  V30 11 2 11 12
M  V30 12 1 11 13
M  V30 13 1 13 14
M  V30 14 1 13 15
M  V30 15 1 10 16
M  V30 16 2 16 17
M  V30 17 2 16 18
M  V30 18 1 16 19
M  V30 19 1 19 20
M  V30 20 1 20 21
M  V30 21 1 21 22
M  V30 22 2 22 23
M  V30 23 1 23 24
M  V30 24 2 24 25
M  V30 25 1 25 26
M  V30 26 2 26 27
M  V30 27 1 26 28
M  V30 28 1 28 29
M  V30 29 2 28 30 CFG=2
M  V30 30 1 20 31
M  V30 31 2 31 32
M  V30 32 1 31 33
M  V30 33 1 33 34
M  V30 34 1 34 35
M  V30 35 1 35 36
M  V30 36 1 36 37
M  V30 37 1 37 38
M  V30 38 1 36 39
M  V30 39 2 39 40
M  V30 40 1 39 41
M  V30 41 1 41 42
M  V30 42 1 42 43
M  V30 43 1 43 44
M  V30 44 1 44 45
M  V30 45 1 45 46
M  V30 46 1 44 47
M  V30 47 1 47 48
M  V30 48 2 47 49 CFG=2
M  V30 49 1 12 4
M  V30 50 1 27 22
M  V30 51 1 38 33
M  V30 52 1 46 41
M  V30 53 1 1 50
M  V30 54 1 1 51
M  V30 55 1 1 52
M  V30 56 1 2 53
M  V30 57 1 3 54
M  V30 58 1 3 55
M  V30 59 1 3 56
M  V30 60 1 5 57
M  V30 61 1 7 58
M  V30 62 1 8 59
M  V30 63 1 8 60
M  V30 64 1 8 61
M  V30 65 1 9 62
M  V30 66 1 9 63
M  V30 67 1 9 64
M  V30 68 1 12 65
M  V30 69 1 13 66
M  V30 70 1 14 67
M  V30 71 1 14 68
M  V30 72 1 14 69
M  V30 73 1 15 70
M  V30 74 1 15 71
M  V30 75 1 15 72
M  V30 76 1 19 73
M  V30 77 1 20 74 CFG=3
M  V30 78 1 21 75
M  V30 79 1 21 76
M  V30 80 1 23 77
M  V30 81 1 24 78
M  V30 82 1 25 79
M  V30 83 1 27 80
M  V30 84 1 29 81
M  V30 85 1 29 82
M  V30 86 1 30 83
M  V30 87 1 34 84
M  V30 88 1 34 85
M  V30 89 1 35 86
M  V30 90 1 35 87
M  V30 91 1 36 88
M  V30 92 1 37 89
M  V30 93 1 37 90
M  V30 94 1 38 91
M  V30 95 1 38 92
M  V30 96 1 42 93
M  V30 97 1 42 94
M  V30 98 1 43 95
M  V30 99 1 43 96
M  V30 100 1 45 97
M  V30 101 1 45 98
M  V30 102 1 46 99
M  V30 103 1 46 100
M  V30 104 1 48 101
M  V30 105 1 48 102
M  V30 106 1 49 103
M  V30 END BOND
M  V30 END CTAB
M  END
