
     RDKit          3D

  0  0  0  0  0  0  0  0  0  0999 V3000
M  V30 BEGIN CTAB
M  V30 COUNTS 23 23 0 0 0
M  V30 BEGIN ATOM
M  V30 1 N -2.46561 1.15758 -0.100888 0
M  V30 2 C -1.78772 0.0484366 0.532317 0
M  V30 3 C -0.4123 -0.192247 -0.107044 0
M  V30 4 N -0.682594 -0.483718 -1.51028 0
M  V30 5 C 0.46221 0.994233 -0.0352685 0
M  V30 6 C 1.92716 0.733086 0.0419633 0
M  V30 7 C 2.28083 -0.728617 0.104464 0
M  V30 8 O 1.42212 -1.3139 1.00205 0
M  V30 9 C 0.131495 -1.44667 0.51757 0
M  V30 10 H -1.82417 1.94264 -0.327892 0
M  V30 11 H -3.24654 1.43308 0.53428 0
M  V30 12 H -1.68796 0.301398 1.6094 0
M  V30 13 H -2.43187 -0.827091 0.4532 0
M  V30 14 H -1.06135 -1.43724 -1.61919 0
M  V30 15 H -1.32154 0.266877 -1.85429 0
M  V30 16 H 0.303684 1.65047 -0.943193 0
M  V30 17 H 0.206367 1.68089 0.824314 0
M  V30 18 H 2.40911 1.21387 0.931845 0
M  V30 19 H 2.49985 1.1525 -0.836743 0
M  V30 20 H 3.31131 -0.809162 0.513659 0
M  V30 21 H 2.29415 -1.21483 -0.886393 0
M  V30 22 H 0.161548 -2.30547 -0.207201 0
M  V30 23 H -0.488184 -1.81611 1.36332 0
M  V30 END ATOM
M  V30 BEGIN BOND
M  V30 1 1 1 2
M  V30 2 1 2 3
M  V30 3 1 3 4
M  V30 4 1 3 5
M  V30 5 1 5 6
M  V30 6 1 6 7
M  V30 7 1 7 8
M  V30 8 1 8 9
M  V30 9 1 9 3
M  V30 10 1 1 10
M  V30 11 1 1 11
M  V30 12 1 2 12
M  V30 13 1 2 13
M  V30 14 1 4 14
M  V30 15 1 4 15
M  V30 16 1 5 16
M  V30 17 1 5 17
M  V30 18 1 6 18
M  V30 19 1 6 19
M  V30 20 1 7 20
M  V30 21 1 7 21
M  V30 22 1 9 22
M  V30 23 1 9 23
M  V30 END BOND
M  V30 END CTAB
M  END
