
     RDKit          3D

  0  0  0  0  0  0  0  0  0  0999 V3000
M  V30 BEGIN CTAB
M  V30 COUNTS 22 22 0 0 0
M  V30 BEGIN ATOM
M  V30 1 N -4.41341 -0.174537 -0.702785 0
M  V30 2 N -3.24729 -0.411116 -1.38937 0
M  V30 3 C -1.99915 -0.277926 -0.763841 0
M  V30 4 O -1.94707 0.0646573 0.448751 0
M  V30 5 C -0.706899 -0.522444 -1.46247 0
M  V30 6 C 0.444818 -0.304855 -0.552048 0
M  V30 7 C 0.981761 0.972032 -0.497041 0
M  V30 8 C 2.0503 1.16881 0.349246 0
M  V30 9 C 2.56008 0.142081 1.1052 0
M  V30 10 C 2.00435 -1.12875 1.03233 0
M  V30 11 N 0.961335 -1.30244 0.200474 0
M  V30 12 N 3.65645 0.364336 1.9671 0
M  V30 13 H -4.27945 0.235147 0.236404 0
M  V30 14 H -5.0341 0.421746 -1.30652 0
M  V30 15 H -3.305 -0.692867 -2.38856 0
M  V30 16 H -0.72355 -1.56928 -1.83755 0
M  V30 17 H -0.598316 0.129862 -2.35349 0
M  V30 18 H 0.55684 1.7755 -1.1107 0
M  V30 19 H 2.46442 2.17453 0.385078 0
M  V30 20 H 2.40855 -1.9421 1.6315 0
M  V30 21 H 4.22291 -0.434749 2.30832 0
M  V30 22 H 3.94241 1.31236 2.29328 0
M  V30 END ATOM
M  V30 BEGIN BOND
M  V30 1 1 1 2
M  V30 2 1 2 3
M  V30 3 2 3 4
M  V30 4 1 3 5
M  V30 5 1 5 6
M  V30 6 2 6 7
M  V30 7 1 7 8
M  V30 8 2 8 9
M  V30 9 1 9 10
M  V30 10 2 10 11
M  V30 11 1 9 12
M  V30 12 1 11 6
M  V30 13 1 1 13
M  V30 14 1 1 14
M  V30 15 1 2 15
M  V30 16 1 5 16
M  V30 17 1 5 17
M  V30 18 1 7 18
M  V30 19 1 8 19
M  V30 20 1 10 20
M  V30 21 1 12 21
M  V30 22 1 12 22
M  V30 END BOND
M  V30 END CTAB
M  END
