
     RDKit          3D

  0  0  0  0  0  0  0  0  0  0999 V3000
M  V30 BEGIN CTAB
M  V30 COUNTS 28 29 0 0 0
M  V30 BEGIN ATOM
M  V30 1 N 4.55147 1.06401 0.223738 0
M  V30 2 C 3.28792 0.413658 0.125393 0
M  V30 3 N 2.50831 0.403523 1.20616 0
M  V30 4 C 1.29348 -0.192297 1.20002 0
M  V30 5 N 0.490724 -0.18429 2.39483 0
M  V30 6 C 0.85321 -0.801001 0.0517721 0
M  V30 7 C -0.456959 -1.465 -0.0411847 0
M  V30 8 C -1.60668 -0.531573 -0.198494 0
M  V30 9 C -1.81286 0.0838912 -1.41297 0
M  V30 10 C -2.86584 0.940137 -1.62791 0
M  V30 11 C -3.72978 1.17037 -0.568181 0
M  V30 12 C -3.53979 0.565136 0.649679 0
M  V30 13 C -2.4731 -0.289028 0.832247 0
M  V30 14 C 1.67445 -0.789453 -1.08397 0
M  V30 15 C 2.89731 -0.181889 -1.05392 0
M  V30 16 H 4.88742 1.48622 1.11076 0
M  V30 17 H 5.17222 1.12755 -0.608842 0
M  V30 18 H 0.405459 -0.994375 3.0328 0
M  V30 19 H -0.0267409 0.682966 2.62218 0
M  V30 20 H -0.461314 -2.12432 -0.931689 0
M  V30 21 H -0.644116 -2.15464 0.824456 0
M  V30 22 H -1.12897 -0.0940444 -2.2634 0
M  V30 23 H -3.04264 1.4323 -2.57565 0
M  V30 24 H -4.56062 1.84994 -0.746649 0
M  V30 25 H -4.22331 0.756099 1.4664 0
M  V30 26 H -2.36811 -0.758779 1.81716 0
M  V30 27 H 1.34784 -1.26671 -2.01023 0
M  V30 28 H 3.57103 -0.148415 -1.91633 0
M  V30 END ATOM
M  V30 BEGIN BOND
M  V30 1 1 1 2
M  V30 2 2 2 3
M  V30 3 1 3 4
M  V30 4 1 4 5
M  V30 5 2 4 6
M  V30 6 1 6 7
M  V30 7 1 7 8
M  V30 8 2 8 9
M  V30 9 1 9 10
M  V30 10 2 10 11
M  V30 11 1 11 12
M  V30 12 2 12 13
M  V30 13 1 6 14
M  V30 14 2 14 15
M  V30 15 1 15 2
M  V30 16 1 13 8
M  V30 17 1 1 16
M  V30 18 1 1 17
M  V30 19 1 5 18
M  V30 20 1 5 19
M  V30 21 1 7 20
M  V30 22 1 7 21
M  V30 23 1 9 22
M  V30 24 1 10 23
M  V30 25 1 11 24
M  V30 26 1 12 25
M  V30 27 1 13 26
M  V30 28 1 14 27
M  V30 29 1 15 28
M  V30 END BOND
M  V30 END CTAB
M  END
