
     RDKit          3D

  0  0  0  0  0  0  0  0  0  0999 V3000
M  V30 BEGIN CTAB
M  V30 COUNTS 55 58 0 0 0
M  V30 BEGIN ATOM
M  V30 1 C 5.85125 -3.26647 3.53839 0
M  V30 2 C 4.65951 -2.64826 2.85874 0
M  V30 3 N 4.65178 -2.14224 1.6604 0
M  V30 4 C 3.55382 -1.62023 1.1455 0
M  V30 5 C 2.43967 -1.62601 1.9105 0
M  V30 6 S 3.06149 -2.41327 3.35999 0
M  V30 7 C 1.06058 -1.17291 1.7576 0
M  V30 8 O 0.235208 -1.50583 2.70318 0
M  V30 9 N 0.48983 -0.417113 0.735419 0
M  V30 10 C -0.90677 -0.0527346 0.680771 0
M  V30 11 C -1.27072 1.15872 0.0864258 0
M  V30 12 C -2.58052 1.54044 -0.0146165 0
M  V30 13 C -3.62724 0.7435 0.46905 0
M  V30 14 C -3.26946 -0.44343 1.05173 0
M  V30 15 C -1.92404 -0.832847 1.15304 0
M  V30 16 C -4.99424 1.23753 0.358724 0
M  V30 17 C -5.3611 2.27946 1.22343 0
M  V30 18 C -6.63365 2.7953 1.2211 0
M  V30 19 C -7.58699 2.28491 0.350464 0
M  V30 20 C -7.2219 1.27218 -0.48751 0
M  V30 21 C -5.93326 0.739607 -0.495883 0
M  V30 22 S -5.50708 -0.529347 -1.61597 0
M  V30 23 N -4.19554 -0.0310616 -2.63054 0
M  V30 24 O -5.22065 -1.82234 -0.93617 0
M  V30 25 O -6.73161 -0.82442 -2.50243 0
M  V30 26 C 3.65038 -1.09666 -0.257597 0
M  V30 27 C 2.91772 -1.6339 -1.29006 0
M  V30 28 C 3.02804 -1.12764 -2.58053 0
M  V30 29 C 3.89417 -0.0580202 -2.83697 0
M  V30 30 C 4.63369 0.494649 -1.83017 0
M  V30 31 C 4.48327 -0.0497935 -0.566395 0
M  V30 32 C 5.53566 1.60352 -2.08016 0
M  V30 33 N 6.27473 2.12854 -0.98104 0
M  V30 34 N 5.70622 2.13319 -3.21514 0
M  V30 35 H 5.99538 -4.26111 3.07091 0
M  V30 36 H 6.72382 -2.61566 3.45354 0
M  V30 37 H 5.52674 -3.44969 4.58374 0
M  V30 38 H 1.02241 0.00220945 -0.08641 0
M  V30 39 H -0.464851 1.796 -0.297836 0
M  V30 40 H -2.81089 2.48648 -0.482535 0
M  V30 41 H -4.04623 -1.07366 1.45873 0
M  V30 42 H -1.73833 -1.79836 1.60901 0
M  V30 43 H -4.63455 2.68856 1.90647 0
M  V30 44 H -6.86968 3.60901 1.91632 0
M  V30 45 H -8.58575 2.71109 0.369988 0
M  V30 46 H -7.93889 0.848208 -1.18122 0
M  V30 47 H -3.30946 -0.464876 -2.32027 0
M  V30 48 H -4.10577 1.00059 -2.70718 0
M  V30 49 H 2.24838 -2.4674 -1.06842 0
M  V30 50 H 2.47363 -1.52451 -3.39467 0
M  V30 51 H 3.94383 0.298979 -3.85673 0
M  V30 52 H 5.06684 0.385965 0.229348 0
M  V30 53 H 6.4463 3.16988 -0.864925 0
M  V30 54 H 6.69017 1.53333 -0.228592 0
M  V30 55 H 5.20466 1.8038 -4.05253 0
M  V30 END ATOM
M  V30 BEGIN BOND
M  V30 1 1 1 2
M  V30 2 2 2 3
M  V30 3 1 3 4
M  V30 4 2 4 5
M  V30 5 1 5 6
M  V30 6 1 5 7
M  V30 7 2 7 8
M  V30 8 1 7 9
M  V30 9 1 9 10
M  V30 10 2 10 11
M  V30 11 1 11 12
M  V30 12 2 12 13
M  V30 13 1 13 14
M  V30 14 2 14 15
M  V30 15 1 13 16
M  V30 16 2 16 17
M  V30 17 1 17 18
M  V30 18 2 18 19
M  V30 19 1 19 20
M  V30 20 2 20 21
M  V30 21 1 21 22
M  V30 22 1 22 23
M  V30 23 2 22 24
M  V30 24 2 22 25
M  V30 25 1 4 26
M  V30 26 2 26 27
M  V30 27 1 27 28
M  V30 28 2 28 29
M  V30 29 1 29 30
M  V30 30 2 30 31
M  V30 31 1 30 32
M  V30 32 1 32 33
M  V30 33 2 32 34 CFG=2
M  V30 34 1 6 2
M  V30 35 1 15 10
M  V30 36 1 21 16
M  V30 37 1 31 26
M  V30 38 1 1 35
M  V30 39 1 1 36
M  V30 40 1 1 37
M  V30 41 1 9 38
M  V30 42 1 11 39
M  V30 43 1 12 40
M  V30 44 1 14 41
M  V30 45 1 15 42
M  V30 46 1 17 43
M  V30 47 1 18 44
M  V30 48 1 19 45
M  V30 49 1 20 46
M  V30 50 1 23 47
M  V30 51 1 23 48
M  V30 52 1 27 49
M  V30 53 1 28 50
M  V30 54 1 29 51
M  V30 55 1 31 52
M  V30 56 1 33 53
M  V30 57 1 33 54
M  V30 58 1 34 55
M  V30 END BOND
M  V30 END CTAB
M  END
