
     RDKit          3D

  0  0  0  0  0  0  0  0  0  0999 V3000
M  V30 BEGIN CTAB
M  V30 COUNTS 34 35 0 0 0
M  V30 BEGIN ATOM
M  V30 1 C -3.4978 -1.97353 -0.382128 0
M  V30 2 C -2.70939 -0.792788 -0.848019 0
M  V30 3 C -1.43246 -0.637321 -0.0173851 0
M  V30 4 C -0.680822 0.587095 -0.550648 0
M  V30 5 N -1.52793 1.74047 -0.409351 0
M  V30 6 C -1.23719 2.82664 0.218127 0
M  V30 7 N -2.18268 3.91541 0.285276 0
M  V30 8 N 0.0330609 2.92097 0.838077 0
M  V30 9 C 0.882453 1.95481 0.783165 0
M  V30 10 N 2.16401 2.06726 1.41652 0
M  V30 11 N 0.594074 0.742852 0.0993553 0
M  V30 12 C 1.53246 -0.320501 0.0393828 0
M  V30 13 C 2.43188 -0.338432 -1.02682 0
M  V30 14 C 3.35788 -1.33436 -1.13828 0
M  V30 15 C 3.38146 -2.31983 -0.172387 0
M  V30 16 Cl 4.5988 -3.58073 -0.3677 0
M  V30 17 C 2.50327 -2.31094 0.877351 0
M  V30 18 C 1.56072 -1.31661 1.01037 0
M  V30 19 H -2.93622 -2.56405 0.387049 0
M  V30 20 H -3.6473 -2.6838 -1.23718 0
M  V30 21 H -4.48164 -1.69035 0.0376764 0
M  V30 22 H -3.27206 0.143002 -0.779163 0
M  V30 23 H -2.40453 -0.914585 -1.91517 0
M  V30 24 H -1.74684 -0.493196 1.03493 0
M  V30 25 H -0.830461 -1.56023 -0.162671 0
M  V30 26 H -0.56212 0.387396 -1.65244 0
M  V30 27 H -3.17881 3.70614 0.24532 0
M  V30 28 H -1.84972 4.88992 0.372454 0
M  V30 29 H 2.61132 1.24605 1.84241 0
M  V30 30 H 2.67712 2.98563 1.4622 0
M  V30 31 H 2.37658 0.445025 -1.75066 0
M  V30 32 H 4.06019 -1.33912 -1.98016 0
M  V30 33 H 2.56414 -3.10193 1.60207 0
M  V30 34 H 0.848555 -1.28638 1.83844 0
M  V30 END ATOM
M  V30 BEGIN BOND
M  V30 1 1 1 2
M  V30 2 1 2 3
M  V30 3 1 3 4
M  V30 4 1 4 5
M  V30 5 2 5 6
M  V30 6 1 6 7
M  V30 7 1 6 8
M  V30 8 2 8 9
M  V30 9 1 9 10
M  V30 10 1 9 11
M  V30 11 1 11 12
M  V30 12 2 12 13
M  V30 13 1 13 14
M  V30 14 2 14 15
M  V30 15 1 15 16
M  V30 16 1 15 17
M  V30 17 2 17 18
M  V30 18 1 11 4
M  V30 19 1 18 12
M  V30 20 1 1 19
M  V30 21 1 1 20
M  V30 22 1 1 21
M  V30 23 1 2 22
M  V30 24 1 2 23
M  V30 25 1 3 24
M  V30 26 1 3 25
M  V30 27 1 4 26
M  V30 28 1 7 27
M  V30 29 1 7 28
M  V30 30 1 10 29
M  V30 31 1 10 30
M  V30 32 1 13 31
M  V30 33 1 14 32
M  V30 34 1 17 33
M  V30 35 1 18 34
M  V30 END BOND
M  V30 END CTAB
M  END
