
     RDKit          3D

  0  0  0  0  0  0  0  0  0  0999 V3000
M  V30 BEGIN CTAB
M  V30 COUNTS 23 23 0 0 0
M  V30 BEGIN ATOM
M  V30 1 C 2.64331 -1.2904 0.255192 0
M  V30 2 C 2.5511 -0.134421 -0.708115 0
M  V30 3 O 1.55571 0.739843 -0.298121 0
M  V30 4 C 0.224251 0.517753 -0.130048 0
M  V30 5 C -0.415605 -0.678338 -0.349167 0
M  V30 6 C -1.78251 -0.811105 -0.150589 0
M  V30 7 N -2.42742 -2.06582 -0.38488 0
M  V30 8 C -2.5461 0.252507 0.273394 0
M  V30 9 C -1.90013 1.44765 0.491123 0
M  V30 10 C -0.538856 1.61123 0.302034 0
M  V30 11 N 0.0897604 2.86329 0.538422 0
M  V30 12 Cl -4.26425 0.0136328 0.503193 0
M  V30 13 H 1.83445 -1.24653 1.03302 0
M  V30 14 H 3.59713 -1.21586 0.856072 0
M  V30 15 H 2.54908 -2.27529 -0.24002 0
M  V30 16 H 3.51944 0.420939 -0.764523 0
M  V30 17 H 2.31768 -0.467016 -1.73974 0
M  V30 18 H 0.16291 -1.51914 -0.681647 0
M  V30 19 H -2.34496 -2.85147 0.299651 0
M  V30 20 H -2.99243 -2.22589 -1.23995 0
M  V30 21 H -2.48116 2.29906 0.825274 0
M  V30 22 H 0.492003 3.02234 1.48317 0
M  V30 23 H 0.156594 3.59304 -0.173749 0
M  V30 END ATOM
M  V30 BEGIN BOND
M  V30 1 1 1 2
M  V30 2 1 2 3
M  V30 3 1 3 4
M  V30 4 2 4 5
M  V30 5 1 5 6
M  V30 6 1 6 7
M  V30 7 2 6 8
M  V30 8 1 8 9
M  V30 9 2 9 10
M  V30 10 1 10 11
M  V30 11 1 8 12
M  V30 12 1 10 4
M  V30 13 1 1 13
M  V30 14 1 1 14
M  V30 15 1 1 15
M  V30 16 1 2 16
M  V30 17 1 2 17
M  V30 18 1 5 18
M  V30 19 1 7 19
M  V30 20 1 7 20
M  V30 21 1 9 21
M  V30 22 1 11 22
M  V30 23 1 11 23
M  V30 END BOND
M  V30 END CTAB
M  END
