
     RDKit          3D

  0  0  0  0  0  0  0  0  0  0999 V3000
M  V30 BEGIN CTAB
M  V30 COUNTS 35 37 0 0 0
M  V30 BEGIN ATOM
M  V30 1 N -5.39729 0.535809 -1.29329 0
M  V30 2 C -4.26414 0.165168 -0.542919 0
M  V30 3 N -3.33186 1.01535 -0.111515 0
M  V30 4 C -2.26205 0.613359 0.60528 0
M  V30 5 N -2.14922 -0.688362 0.88359 0
M  V30 6 C -3.05604 -1.57894 0.47421 0
M  V30 7 N -4.10963 -1.13861 -0.238872 0
M  V30 8 N -2.91579 -2.95771 0.781634 0
M  V30 9 C -1.29339 1.64358 1.02988 0
M  V30 10 N -0.266068 1.80107 0.0159106 0
M  V30 11 C -0.21934 2.61056 -1.04169 0
M  V30 12 N 0.920519 2.44045 -1.73199 0
M  V30 13 C 1.65852 1.47814 -1.10461 0
M  V30 14 C 0.887492 1.10426 -0.0212548 0
M  V30 15 C 1.37501 0.123891 0.82772 0
M  V30 16 C 2.60096 -0.460862 0.59181 0
M  V30 17 C 3.10687 -1.50897 1.51158 0
M  V30 18 C 3.33933 -0.0598421 -0.499832 0
M  V30 19 C 2.88739 0.910901 -1.36491 0
M  V30 20 C 4.66961 -0.733534 -0.706423 0
M  V30 21 H -6.18636 1.00694 -0.815111 0
M  V30 22 H -5.44497 0.342637 -2.30553 0
M  V30 23 H -1.96977 -3.38362 0.877802 0
M  V30 24 H -3.74298 -3.56293 0.915392 0
M  V30 25 H -0.827422 1.43325 2.00259 0
M  V30 26 H -1.826 2.62857 1.14173 0
M  V30 27 H -1.0251 3.31052 -1.28455 0
M  V30 28 H 0.795273 -0.181648 1.67307 0
M  V30 29 H 2.24607 -2.2225 1.66336 0
M  V30 30 H 3.90821 -2.11981 1.04967 0
M  V30 31 H 3.43365 -1.11973 2.48247 0
M  V30 32 H 3.44757 1.22888 -2.21044 0
M  V30 33 H 4.53038 -1.81088 -0.873002 0
M  V30 34 H 5.20985 -0.246003 -1.54554 0
M  V30 35 H 5.27071 -0.619365 0.227084 0
M  V30 END ATOM
M  V30 BEGIN BOND
M  V30 1 1 1 2
M  V30 2 2 2 3
M  V30 3 1 3 4
M  V30 4 2 4 5
M  V30 5 1 5 6
M  V30 6 2 6 7
M  V30 7 1 6 8
M  V30 8 1 4 9
M  V30 9 1 9 10
M  V30 10 1 10 11
M  V30 11 2 11 12
M  V30 12 1 12 13
M  V30 13 2 13 14
M  V30 14 1 14 15
M  V30 15 2 15 16
M  V30 16 1 16 17
M  V30 17 1 16 18
M  V30 18 2 18 19
M  V30 19 1 18 20
M  V30 20 1 7 2
M  V30 21 1 14 10
M  V30 22 1 19 13
M  V30 23 1 1 21
M  V30 24 1 1 22
M  V30 25 1 8 23
M  V30 26 1 8 24
M  V30 27 1 9 25
M  V30 28 1 9 26
M  V30 29 1 11 27
M  V30 30 1 15 28
M  V30 31 1 17 29
M  V30 32 1 17 30
M  V30 33 1 17 31
M  V30 34 1 19 32
M  V30 35 1 20 33
M  V30 36 1 20 34
M  V30 37 1 20 35
M  V30 END BOND
M  V30 END CTAB
M  END
