
     RDKit          3D

  0  0  0  0  0  0  0  0  0  0999 V3000
M  V30 BEGIN CTAB
M  V30 COUNTS 26 26 0 0 0
M  V30 BEGIN ATOM
M  V30 1 O 3.77853 -0.631581 1.13595 0
M  V30 2 C 2.99669 -0.728315 -0.00404873 0
M  V30 3 O 3.12571 -1.68387 -0.785944 0
M  V30 4 C 2.00897 0.328587 -0.270264 0
M  V30 5 C 0.596289 -0.161011 -0.214382 0
M  V30 6 C 0.289319 -1.46353 0.110135 0
M  V30 7 C -1.04202 -1.89656 0.169127 0
M  V30 8 N -1.36594 -3.23785 0.501502 0
M  V30 9 C -2.03674 -0.984794 -0.105078 0
M  V30 10 C -1.73197 0.344227 -0.436796 0
M  V30 11 C -0.416162 0.746214 -0.489989 0
M  V30 12 O -0.140542 2.0528 -0.824583 0
M  V30 13 C -0.0135933 3.0687 0.122414 0
M  V30 14 F -1.027 4.01761 0.061425 0
M  V30 15 F 1.1657 3.80757 -0.0132017 0
M  V30 16 N -2.78632 1.24044 -0.714934 0
M  V30 17 H 3.83688 -1.37813 1.82703 0
M  V30 18 H 2.1269 0.674822 -1.34729 0
M  V30 19 H 2.1502 1.15633 0.451186 0
M  V30 20 H 1.04586 -2.17417 0.332968 0
M  V30 21 H -1.40366 -3.64173 1.45353 0
M  V30 22 H -1.58838 -3.87788 -0.288914 0
M  V30 23 H -3.08572 -1.32267 -0.0548186 0
M  V30 24 H -0.0656884 2.66059 1.16069 0
M  V30 25 H -3.31702 1.04897 -1.61826 0
M  V30 26 H -3.10031 2.03524 -0.157454 0
M  V30 END ATOM
M  V30 BEGIN BOND
M  V30 1 1 1 2
M  V30 2 2 2 3
M  V30 3 1 2 4
M  V30 4 1 4 5
M  V30 5 2 5 6
M  V30 6 1 6 7
M  V30 7 1 7 8
M  V30 8 2 7 9
M  V30 9 1 9 10
M  V30 10 2 10 11
M  V30 11 1 11 12
M  V30 12 1 12 13
M  V30 13 1 13 14
M  V30 14 1 13 15
M  V30 15 1 10 16
M  V30 16 1 11 5
M  V30 17 1 1 17
M  V30 18 1 4 18
M  V30 19 1 4 19
M  V30 20 1 6 20
M  V30 21 1 8 21
M  V30 22 1 8 22
M  V30 23 1 9 23
M  V30 24 1 13 24
M  V30 25 1 16 25
M  V30 26 1 16 26
M  V30 END BOND
M  V30 END CTAB
M  END
