
     RDKit          3D

  0  0  0  0  0  0  0  0  0  0999 V3000
M  V30 BEGIN CTAB
M  V30 COUNTS 21 21 0 0 0
M  V30 BEGIN ATOM
M  V30 1 C -3.11693 0.303229 -0.49133 0
M  V30 2 C -1.62516 0.283138 -0.746697 0
M  V30 3 C -0.885171 0.786882 0.493177 0
M  V30 4 C 0.587106 0.76494 0.235728 0
M  V30 5 N 1.4143 1.79368 0.0193116 0
M  V30 6 N 2.64361 1.34847 -0.165881 0
M  V30 7 C 2.63806 0.0220521 -0.0732366 0
M  V30 8 N 1.36086 -0.333444 0.175708 0
M  V30 9 N 3.70742 -0.895295 -0.197706 0
M  V30 10 N -1.152 -0.116969 1.59578 0
M  V30 11 H -3.46085 -0.767626 -0.574432 0
M  V30 12 H -3.65364 0.910327 -1.27713 0
M  V30 13 H -3.35333 0.723962 0.515215 0
M  V30 14 H -1.25614 -0.70199 -1.06037 0
M  V30 15 H -1.40433 0.996573 -1.56322 0
M  V30 16 H -1.23678 1.798 0.770728 0
M  V30 17 H 3.50742 1.92495 -0.35747 0
M  V30 18 H 3.53225 -1.89843 -0.421927 0
M  V30 19 H 4.70423 -0.616802 -0.0733143 0
M  V30 20 H -2.12093 -0.0995076 1.91849 0
M  V30 21 H -0.83 -1.06661 1.27857 0
M  V30 END ATOM
M  V30 BEGIN BOND
M  V30 1 1 1 2
M  V30 2 1 2 3
M  V30 3 1 3 4
M  V30 4 2 4 5
M  V30 5 1 5 6
M  V30 6 1 6 7
M  V30 7 2 7 8
M  V30 8 1 7 9
M  V30 9 1 3 10
M  V30 10 1 8 4
M  V30 11 1 1 11
M  V30 12 1 1 12
M  V30 13 1 1 13
M  V30 14 1 2 14
M  V30 15 1 2 15
M  V30 16 1 3 16
M  V30 17 1 6 17
M  V30 18 1 9 18
M  V30 19 1 9 19
M  V30 20 1 10 20
M  V30 21 1 10 21
M  V30 END BOND
M  V30 END CTAB
M  END
