
     RDKit          3D

  0  0  0  0  0  0  0  0  0  0999 V3000
M  V30 BEGIN CTAB
M  V30 COUNTS 36 37 0 0 0
M  V30 BEGIN ATOM
M  V30 1 C -2.35918 -1.30814 1.74801 0
M  V30 2 C -2.34202 -0.728162 0.367821 0
M  V30 3 C -3.47527 -1.25215 -0.475851 0
M  V30 4 O -1.14216 -1.12629 -0.264716 0
M  V30 5 B -0.197447 -0.103964 0.200752 0
M  V30 6 O -0.96262 0.991366 0.830914 0
M  V30 7 C -2.22307 0.759361 0.326937 0
M  V30 8 C -3.31895 1.46922 1.05855 0
M  V30 9 C -2.23435 1.20154 -1.11681 0
M  V30 10 C 1.29534 0.0492551 -0.196837 0
M  V30 11 C 2.26655 -0.572932 0.55917 0
M  V30 12 C 3.6109 -0.458534 0.234272 0
M  V30 13 N 4.59746 -1.1036 1.02059 0
M  V30 14 C 4.0313 0.281588 -0.857377 0
M  V30 15 N 5.41288 0.372614 -1.15392 0
M  V30 16 C 3.05305 0.899168 -1.60605 0
M  V30 17 C 1.71427 0.786605 -1.28441 0
M  V30 18 H -2.94877 -0.696149 2.44306 0
M  V30 19 H -2.86188 -2.31812 1.6837 0
M  V30 20 H -1.32615 -1.51763 2.11371 0
M  V30 21 H -3.14049 -1.41971 -1.49956 0
M  V30 22 H -3.83194 -2.19948 0.00619305 0
M  V30 23 H -4.32314 -0.545635 -0.401889 0
M  V30 24 H -3.36347 1.27649 2.12983 0
M  V30 25 H -4.26641 1.27162 0.525981 0
M  V30 26 H -3.12425 2.57087 0.94312 0
M  V30 27 H -1.73522 0.395857 -1.72669 0
M  V30 28 H -1.62092 2.11137 -1.2689 0
M  V30 29 H -3.2622 1.28789 -1.49269 0
M  V30 30 H 1.93718 -1.15928 1.42356 0
M  V30 31 H 5.30856 -1.6828 0.527074 0
M  V30 32 H 4.66635 -1.04309 2.05524 0
M  V30 33 H 5.88905 1.24279 -1.4557 0
M  V30 34 H 5.9893 -0.485344 -1.06447 0
M  V30 35 H 3.36033 1.4861 -2.46857 0
M  V30 36 H 0.927387 1.26731 -1.86406 0
M  V30 END ATOM
M  V30 BEGIN BOND
M  V30 1 1 1 2
M  V30 2 1 2 3
M  V30 3 1 2 4
M  V30 4 1 4 5
M  V30 5 1 5 6
M  V30 6 1 6 7
M  V30 7 1 7 8
M  V30 8 1 7 9
M  V30 9 1 5 10
M  V30 10 2 10 11
M  V30 11 1 11 12
M  V30 12 1 12 13
M  V30 13 2 12 14
M  V30 14 1 14 15
M  V30 15 1 14 16
M  V30 16 2 16 17
M  V30 17 1 7 2
M  V30 18 1 17 10
M  V30 19 1 1 18
M  V30 20 1 1 19
M  V30 21 1 1 20
M  V30 22 1 3 21
M  V30 23 1 3 22
M  V30 24 1 3 23
M  V30 25 1 8 24
M  V30 26 1 8 25
M  V30 27 1 8 26
M  V30 28 1 9 27
M  V30 29 1 9 28
M  V30 30 1 9 29
M  V30 31 1 11 30
M  V30 32 1 13 31
M  V30 33 1 13 32
M  V30 34 1 15 33
M  V30 35 1 15 34
M  V30 36 1 16 35
M  V30 37 1 17 36
M  V30 END BOND
M  V30 END CTAB
M  END
