
     RDKit          3D

  0  0  0  0  0  0  0  0  0  0999 V3000
M  V30 BEGIN CTAB
M  V30 COUNTS 26 27 0 0 0
M  V30 BEGIN ATOM
M  V30 1 N 3.91834 1.98901 -0.126474 0
M  V30 2 O 4.58916 0.847978 0.0337571 0
M  V30 3 C 4.06687 -0.211952 -0.661693 0
M  V30 4 C 2.64955 -0.427892 -0.175294 0
M  V30 5 C 2.23151 -1.22678 0.844622 0
M  V30 6 C 0.904913 -1.26479 1.1037 0
M  V30 7 C 0.102655 -0.488878 0.307837 0
M  V30 8 S 1.20143 0.253887 -0.754834 0
M  V30 9 C -1.36852 -0.3659 0.398277 0
M  V30 10 N -1.99198 0.445421 -0.468506 0
M  V30 11 C -3.34442 0.58626 -0.418471 0
M  V30 12 N -3.97607 1.45554 -1.35308 0
M  V30 13 C -4.13025 -0.0762719 0.498037 0
M  V30 14 C -3.50132 -0.911933 1.39295 0
M  V30 15 C -2.10927 -1.04202 1.32371 0
M  V30 16 H 4.47703 2.84208 0.0206127 0
M  V30 17 H 3.42415 2.08009 -1.03511 0
M  V30 18 H 4.66694 -1.11867 -0.413301 0
M  V30 19 H 4.07675 -0.0972827 -1.75879 0
M  V30 20 H 2.95234 -1.82556 1.44241 0
M  V30 21 H 0.434912 -1.88124 1.91444 0
M  V30 22 H -3.4951 2.35477 -1.5726 0
M  V30 23 H -4.88126 1.16261 -1.77466 0
M  V30 24 H -5.21562 0.0602727 0.510164 0
M  V30 25 H -4.08747 -1.44647 2.12468 0
M  V30 26 H -1.59528 -1.69229 2.01614 0
M  V30 END ATOM
M  V30 BEGIN BOND
M  V30 1 1 1 2
M  V30 2 1 2 3
M  V30 3 1 3 4
M  V30 4 2 4 5
M  V30 5 1 5 6
M  V30 6 2 6 7
M  V30 7 1 7 8
M  V30 8 1 7 9
M  V30 9 2 9 10
M  V30 10 1 10 11
M  V30 11 1 11 12
M  V30 12 2 11 13
M  V30 13 1 13 14
M  V30 14 2 14 15
M  V30 15 1 8 4
M  V30 16 1 15 9
M  V30 17 1 1 16
M  V30 18 1 1 17
M  V30 19 1 3 18
M  V30 20 1 3 19
M  V30 21 1 5 20
M  V30 22 1 6 21
M  V30 23 1 12 22
M  V30 24 1 12 23
M  V30 25 1 13 24
M  V30 26 1 14 25
M  V30 27 1 15 26
M  V30 END BOND
M  V30 END CTAB
M  END
