
     RDKit          3D

  0  0  0  0  0  0  0  0  0  0999 V3000
M  V30 BEGIN CTAB
M  V30 COUNTS 20 24 0 0 0
M  V30 BEGIN ATOM
M  V30 1 N -2.63539 0.0399263 0.189409 0
M  V30 2 C -1.27898 -0.00231439 0.120988 0
M  V30 3 C -0.456557 0.883626 -0.732861 0
M  V30 4 C 0.455281 1.10816 0.389634 0
M  V30 5 C -0.359874 0.221347 1.24019 0
M  V30 6 C 0.456694 -0.922736 0.811106 0
M  V30 7 C -0.480854 -1.15309 -0.308897 0
M  V30 8 C 0.33536 -0.27612 -1.16301 0
M  V30 9 C 1.26551 -0.0497535 -0.0380628 0
M  V30 10 N 2.61558 -0.0561621 -0.130363 0
M  V30 11 H -3.01648 0.992617 -0.0712023 0
M  V30 12 H -3.11107 -0.64692 -0.444387 0
M  V30 13 H -0.843953 1.61737 -1.36232 0
M  V30 14 H 0.84508 2.02676 0.687703 0
M  V30 15 H -0.636426 0.428931 2.22256 0
M  V30 16 H 0.817943 -1.67316 1.43943 0
M  V30 17 H -0.852679 -2.08527 -0.585405 0
M  V30 18 H 0.624232 -0.485036 -2.1407 0
M  V30 19 H 3.19761 -0.766156 0.319372 0
M  V30 20 H 3.05896 0.797987 -0.443188 0
M  V30 END ATOM
M  V30 BEGIN BOND
M  V30 1 1 1 2
M  V30 2 1 2 3
M  V30 3 1 3 4
M  V30 4 1 4 5
M  V30 5 1 5 6
M  V30 6 1 6 7
M  V30 7 1 7 8
M  V30 8 1 8 9
M  V30 9 1 9 10
M  V30 10 1 5 2
M  V30 11 1 9 6
M  V30 12 1 7 2
M  V30 13 1 8 3
M  V30 14 1 9 4
M  V30 15 1 1 11
M  V30 16 1 1 12
M  V30 17 1 3 13
M  V30 18 1 4 14
M  V30 19 1 5 15
M  V30 20 1 6 16
M  V30 21 1 7 17
M  V30 22 1 8 18
M  V30 23 1 10 19
M  V30 24 1 10 20
M  V30 END BOND
M  V30 END CTAB
M  END
