
     RDKit          3D

  0  0  0  0  0  0  0  0  0  0999 V3000
M  V30 BEGIN CTAB
M  V30 COUNTS 17 18 0 0 0
M  V30 BEGIN ATOM
M  V30 1 N 3.19981 -0.359658 0.340182 0
M  V30 2 C 1.79908 -0.113134 0.232589 0
M  V30 3 N 1.28068 1.12515 0.221469 0
M  V30 4 C -0.0479132 1.32826 0.118669 0
M  V30 5 C -0.870869 0.232184 0.0244328 0
M  V30 6 C -2.15185 0.721138 -0.0673662 0
M  V30 7 Br -3.75987 -0.275154 -0.222864 0
M  V30 8 N -2.10014 2.07126 -0.0294099 0
M  V30 9 N -0.836636 2.4437 0.0825084 0
M  V30 10 C -0.342704 -1.03143 0.0357116 0
M  V30 11 N -1.1716 -2.1835 -0.0603906 0
M  V30 12 N 1.00623 -1.19699 0.141097 0
M  V30 13 H 3.92771 0.234445 -0.106102 0
M  V30 14 H 3.52455 -1.18085 0.896395 0
M  V30 15 H -0.494409 3.40729 0.134388 0
M  V30 16 H -1.28013 -2.69502 -0.953402 0
M  V30 17 H -1.68193 -2.52769 0.771781 0
M  V30 END ATOM
M  V30 BEGIN BOND
M  V30 1 1 1 2
M  V30 2 2 2 3
M  V30 3 1 3 4
M  V30 4 2 4 5
M  V30 5 1 5 6
M  V30 6 1 6 7
M  V30 7 2 6 8
M  V30 8 1 8 9
M  V30 9 1 5 10
M  V30 10 1 10 11
M  V30 11 2 10 12
M  V30 12 1 12 2
M  V30 13 1 9 4
M  V30 14 1 1 13
M  V30 15 1 1 14
M  V30 16 1 9 15
M  V30 17 1 11 16
M  V30 18 1 11 17
M  V30 END BOND
M  V30 END CTAB
M  END
