
     RDKit          3D

  0  0  0  0  0  0  0  0  0  0999 V3000
M  V30 BEGIN CTAB
M  V30 COUNTS 38 39 0 0 0
M  V30 BEGIN ATOM
M  V30 1 O 0.399904 -1.95626 0.592182 0
M  V30 2 C 0.00516177 -0.858378 0.149392 0
M  V30 3 N -1.34049 -0.653089 -0.191679 0
M  V30 4 C -2.60367 -0.460692 -0.511746 0
M  V30 5 C -3.71459 -1.23772 -0.103631 0
M  V30 6 C -5.00997 -0.927332 -0.409584 0
M  V30 7 C -6.11467 -1.81346 0.0683369 0
M  V30 8 C -5.23289 0.197121 -1.15072 0
M  V30 9 C -4.19847 0.998499 -1.58134 0
M  V30 10 C -2.90782 0.701013 -1.28438 0
M  V30 11 N -1.83957 1.52075 -1.74603 0
M  V30 12 N 0.978616 0.155602 0.0188299 0
M  V30 13 C 2.3326 0.0683192 0.347862 0
M  V30 14 C 2.91856 -0.962233 1.06178 0
M  V30 15 C 4.27951 -0.871584 1.35254 0
M  V30 16 C 5.06848 0.182481 0.969269 0
M  V30 17 C 4.49594 1.21678 0.256262 0
M  V30 18 C 3.16294 1.15102 -0.0411742 0
M  V30 19 N 2.54559 2.20914 -0.78698 0
M  V30 20 C 6.50898 0.206543 1.3228 0
M  V30 21 H -1.50544 -2.02639 -0.0910715 0
M  V30 22 H -3.54202 -2.13618 0.502764 0
M  V30 23 H -5.72304 -2.79539 0.39534 0
M  V30 24 H -6.838 -2.04012 -0.748368 0
M  V30 25 H -6.71925 -1.32358 0.866225 0
M  V30 26 H -6.24759 0.435663 -1.38576 0
M  V30 27 H -4.41085 1.89597 -2.17412 0
M  V30 28 H -0.961045 1.11134 -2.12214 0
M  V30 29 H -1.91868 2.55708 -1.71784 0
M  V30 30 H 0.63425 1.06717 -0.345644 0
M  V30 31 H 2.3655 -1.82151 1.40973 0
M  V30 32 H 4.73228 -1.6735 1.91155 0
M  V30 33 H 5.07618 2.08409 -0.0736561 0
M  V30 34 H 2.81107 2.2791 -1.78302 0
M  V30 35 H 1.87706 2.87641 -0.389076 0
M  V30 36 H 7.05032 0.970769 0.727903 0
M  V30 37 H 6.62184 0.459795 2.39631 0
M  V30 38 H 6.96326 -0.787244 1.16311 0
M  V30 END ATOM
M  V30 BEGIN BOND
M  V30 1 2 1 2
M  V30 2 1 2 3
M  V30 3 1 3 4
M  V30 4 2 4 5
M  V30 5 1 5 6
M  V30 6 1 6 7
M  V30 7 2 6 8
M  V30 8 1 8 9
M  V30 9 2 9 10
M  V30 10 1 10 11
M  V30 11 1 2 12
M  V30 12 1 12 13
M  V30 13 2 13 14
M  V30 14 1 14 15
M  V30 15 2 15 16
M  V30 16 1 16 17
M  V30 17 2 17 18
M  V30 18 1 18 19
M  V30 19 1 16 20
M  V30 20 1 10 4
M  V30 21 1 18 13
M  V30 22 1 3 21
M  V30 23 1 5 22
M  V30 24 1 7 23
M  V30 25 1 7 24
M  V30 26 1 7 25
M  V30 27 1 8 26
M  V30 28 1 9 27
M  V30 29 1 11 28
M  V30 30 1 11 29
M  V30 31 1 12 30
M  V30 32 1 14 31
M  V30 33 1 15 32
M  V30 34 1 17 33
M  V30 35 1 19 34
M  V30 36 1 19 35
M  V30 37 1 20 36
M  V30 38 1 20 37
M  V30 39 1 20 38
M  V30 END BOND
M  V30 END CTAB
M  END
