
     RDKit          3D

  0  0  0  0  0  0  0  0  0  0999 V3000
M  V30 BEGIN CTAB
M  V30 COUNTS 23 23 0 0 0
M  V30 BEGIN ATOM
M  V30 1 N 2.9211 0.659944 -0.0845937 0
M  V30 2 N 1.52506 0.928818 -0.19325 0
M  V30 3 C 0.876277 -0.308429 -0.432761 0
M  V30 4 C -0.521421 -0.256398 0.0633833 0
M  V30 5 C -1.11436 -1.40602 0.571398 0
M  V30 6 C -2.31261 -1.26423 1.27485 0
M  V30 7 Cl -3.02165 -2.72307 1.94132 0
M  V30 8 C -2.78386 -0.0574366 1.41099 0
M  V30 9 N -2.26915 1.1371 0.960015 0
M  V30 10 C -1.08021 0.992533 0.243212 0
M  V30 11 N -0.604971 2.19437 -0.3112 0
M  V30 12 C 1.00993 -1.05661 -1.68556 0
M  V30 13 F 0.299191 -2.22296 -1.66744 0
M  V30 14 F 2.34515 -1.28285 -2.05605 0
M  V30 15 H 3.27329 0.929709 0.890423 0
M  V30 16 H 3.45891 1.13062 -0.797661 0
M  V30 17 H 1.26988 1.1609 0.842152 0
M  V30 18 H 1.40115 -1.03148 0.367291 0
M  V30 19 H -0.68082 -2.3529 0.417029 0
M  V30 20 H -3.75023 0.0475765 1.98267 0
M  V30 21 H -0.265503 3.00141 0.223535 0
M  V30 22 H -0.609396 2.25935 -1.36967 0
M  V30 23 H 0.634232 -0.479955 -2.5901 0
M  V30 END ATOM
M  V30 BEGIN BOND
M  V30 1 1 1 2
M  V30 2 1 2 3
M  V30 3 1 3 4
M  V30 4 2 4 5
M  V30 5 1 5 6
M  V30 6 1 6 7
M  V30 7 2 6 8
M  V30 8 1 8 9
M  V30 9 2 9 10
M  V30 10 1 10 11
M  V30 11 1 3 12
M  V30 12 1 12 13
M  V30 13 1 12 14
M  V30 14 1 10 4
M  V30 15 1 1 15
M  V30 16 1 1 16
M  V30 17 1 2 17
M  V30 18 1 3 18
M  V30 19 1 5 19
M  V30 20 1 8 20
M  V30 21 1 11 21
M  V30 22 1 11 22
M  V30 23 1 12 23
M  V30 END BOND
M  V30 END CTAB
M  END
