
     RDKit          3D

  0  0  0  0  0  0  0  0  0  0999 V3000
M  V30 BEGIN CTAB
M  V30 COUNTS 25 25 0 0 0
M  V30 BEGIN ATOM
M  V30 1 O -4.07311 1.10933 -0.00059168 0
M  V30 2 C -2.90903 0.422917 0.335642 0
M  V30 3 C -2.4055 -0.318837 -0.863393 0
M  V30 4 N -1.1983 -1.02741 -0.518938 0
M  V30 5 C 0.0414242 -0.395279 -0.262453 0
M  V30 6 C 0.211519 0.948892 -0.45015 0
M  V30 7 C 1.46056 1.53922 -0.205376 0
M  V30 8 C 2.53211 0.789902 0.223639 0
M  V30 9 C 2.32309 -0.563564 0.401499 0
M  V30 10 C 1.11655 -1.16901 0.171484 0
M  V30 11 N 0.937732 -2.58544 0.368719 0
M  V30 12 N 3.7922 1.38662 0.470384 0
M  V30 13 H -4.19745 1.80911 0.690477 0
M  V30 14 H -3.17753 -0.35784 1.10934 0
M  V30 15 H -2.21563 1.12084 0.799406 0
M  V30 16 H -3.20573 -0.975855 -1.22911 0
M  V30 17 H -2.15916 0.413092 -1.68887 0
M  V30 18 H -1.29658 -2.08591 -0.467145 0
M  V30 19 H -0.595026 1.57521 -0.797609 0
M  V30 20 H 1.57016 2.59933 -0.359748 0
M  V30 21 H 3.15867 -1.18839 0.742831 0
M  V30 22 H 1.01358 -3.0212 1.31461 0
M  V30 23 H 0.726289 -3.22589 -0.425432 0
M  V30 24 H 4.4601 0.920107 1.11228 0
M  V30 25 H 4.08905 2.28005 0.0369548 0
M  V30 END ATOM
M  V30 BEGIN BOND
M  V30 1 1 1 2
M  V30 2 1 2 3
M  V30 3 1 3 4
M  V30 4 1 4 5
M  V30 5 2 5 6
M  V30 6 1 6 7
M  V30 7 2 7 8
M  V30 8 1 8 9
M  V30 9 2 9 10
M  V30 10 1 10 11
M  V30 11 1 8 12
M  V30 12 1 10 5
M  V30 13 1 1 13
M  V30 14 1 2 14
M  V30 15 1 2 15
M  V30 16 1 3 16
M  V30 17 1 3 17
M  V30 18 1 4 18
M  V30 19 1 6 19
M  V30 20 1 7 20
M  V30 21 1 9 21
M  V30 22 1 11 22
M  V30 23 1 11 23
M  V30 24 1 12 24
M  V30 25 1 12 25
M  V30 END BOND
M  V30 END CTAB
M  END
