
     RDKit          3D

  0  0  0  0  0  0  0  0  0  0999 V3000
M  V30 BEGIN CTAB
M  V30 COUNTS 30 31 0 0 0
M  V30 BEGIN ATOM
M  V30 1 C 5.03393 -0.55435 1.08556 0
M  V30 2 C 3.76336 -0.0816976 0.452944 0
M  V30 3 C 2.61652 -0.750889 0.800424 0
M  V30 4 C 1.4241 -0.356176 0.247677 0
M  V30 5 C 1.38587 0.706832 -0.65043 0
M  V30 6 O 0.218426 1.14235 -1.23273 0
M  V30 7 C -1.02641 0.57561 -0.989362 0
M  V30 8 C -1.50908 -0.467842 -1.75504 0
M  V30 9 C -2.74545 -1.03295 -1.51565 0
M  V30 10 C -3.56068 -0.582314 -0.498244 0
M  V30 11 N -4.82144 -1.18773 -0.284587 0
M  V30 12 C -3.0864 0.46132 0.273253 0
M  V30 13 N -3.90175 0.944174 1.32439 0
M  V30 14 C -1.849 1.02325 0.0298559 0
M  V30 15 C 2.55115 1.36607 -0.986139 0
M  V30 16 C 3.73341 0.961161 -0.426734 0
M  V30 17 H 5.78192 0.269308 1.05797 0
M  V30 18 H 4.78942 -0.846302 2.13531 0
M  V30 19 H 5.36738 -1.43949 0.513602 0
M  V30 20 H 2.59925 -1.58224 1.49403 0
M  V30 21 H 0.476702 -0.825554 0.464792 0
M  V30 22 H -0.875568 -0.830109 -2.55829 0
M  V30 23 H -3.11324 -1.85354 -2.12571 0
M  V30 24 H -4.98894 -1.65443 0.632474 0
M  V30 25 H -5.60157 -1.20436 -0.975968 0
M  V30 26 H -4.34723 1.87397 1.21224 0
M  V30 27 H -4.07544 0.416244 2.19849 0
M  V30 28 H -1.46138 1.84842 0.631398 0
M  V30 29 H 2.55245 2.20681 -1.69059 0
M  V30 30 H 4.66969 1.45444 -0.66595 0
M  V30 END ATOM
M  V30 BEGIN BOND
M  V30 1 1 1 2
M  V30 2 2 2 3
M  V30 3 1 3 4
M  V30 4 2 4 5
M  V30 5 1 5 6
M  V30 6 1 6 7
M  V30 7 2 7 8
M  V30 8 1 8 9
M  V30 9 2 9 10
M  V30 10 1 10 11
M  V30 11 1 10 12
M  V30 12 1 12 13
M  V30 13 2 12 14
M  V30 14 1 5 15
M  V30 15 2 15 16
M  V30 16 1 16 2
M  V30 17 1 14 7
M  V30 18 1 1 17
M  V30 19 1 1 18
M  V30 20 1 1 19
M  V30 21 1 3 20
M  V30 22 1 4 21
M  V30 23 1 8 22
M  V30 24 1 9 23
M  V30 25 1 11 24
M  V30 26 1 11 25
M  V30 27 1 13 26
M  V30 28 1 13 27
M  V30 29 1 14 28
M  V30 30 1 15 29
M  V30 31 1 16 30
M  V30 END BOND
M  V30 END CTAB
M  END
