
     RDKit          3D

  0  0  0  0  0  0  0  0  0  0999 V3000
M  V30 BEGIN CTAB
M  V30 COUNTS 49 50 0 0 0
M  V30 BEGIN ATOM
M  V30 1 C -4.27017 4.19249 -0.228186 0
M  V30 2 O -4.1234 2.99846 -0.95016 0
M  V30 3 C -3.16781 2.03968 -0.657214 0
M  V30 4 C -3.04771 0.873874 -1.38596 0
M  V30 5 C -2.07868 -0.05763 -1.05953 0
M  V30 6 C -1.21301 0.141247 -0.0131905 0
M  V30 7 C -1.35986 1.31869 0.69676 0
M  V30 8 C -2.31407 2.23747 0.376698 0
M  V30 9 C -0.142825 -0.753962 0.43494 0
M  V30 10 N -0.463 -1.05514 1.82574 0
M  V30 11 C 0.102044 -1.99874 -0.29646 0
M  V30 12 N 0.444416 -1.71373 -1.67121 0
M  V30 13 C -0.836962 -3.14054 -0.136939 0
M  V30 14 C -0.292638 -4.25734 -1.04917 0
M  V30 15 C -0.760193 -3.76255 1.26633 0
M  V30 16 C 1.17321 -0.0151573 0.483638 0
M  V30 17 C 2.01519 -0.227139 1.5447 0
M  V30 18 C 3.22298 0.462452 1.58361 0
M  V30 19 C 3.55342 1.33915 0.566882 0
M  V30 20 O 4.74759 2.04225 0.573776 0
M  V30 21 C 5.11187 2.93514 -0.436847 0
M  V30 22 C 2.7007 1.55181 -0.505242 0
M  V30 23 C 1.51833 0.856081 -0.512246 0
M  V30 24 H -4.70837 3.91087 0.761439 0
M  V30 25 H -3.27603 4.65587 -0.0654507 0
M  V30 26 H -4.93286 4.90073 -0.770138 0
M  V30 27 H -3.73207 0.728244 -2.20519 0
M  V30 28 H -1.99352 -0.951247 -1.62018 0
M  V30 29 H -0.706341 1.55572 1.55047 0
M  V30 30 H -2.38862 3.15805 0.975141 0
M  V30 31 H -1.51344 -1.08831 1.9449 0
M  V30 32 H -0.0933785 -0.250827 2.42595 0
M  V30 33 H 1.08735 -2.40546 0.121563 0
M  V30 34 H 1.43787 -1.77263 -1.90593 0
M  V30 35 H -0.0976895 -2.21342 -2.37491 0
M  V30 36 H -1.88279 -2.97752 -0.346163 0
M  V30 37 H -0.660988 -4.14755 -2.0827 0
M  V30 38 H -0.711956 -5.2007 -0.667723 0
M  V30 39 H 0.801152 -4.29784 -0.996319 0
M  V30 40 H -0.846991 -4.87744 1.2036 0
M  V30 41 H 0.187917 -3.54243 1.75814 0
M  V30 42 H -1.61328 -3.45811 1.90347 0
M  V30 43 H 1.81351 -0.89562 2.35754 0
M  V30 44 H 3.93874 0.352268 2.38159 0
M  V30 45 H 6.20336 3.16669 -0.396598 0
M  V30 46 H 4.91209 2.56833 -1.46214 0
M  V30 47 H 4.52079 3.86725 -0.301196 0
M  V30 48 H 2.90975 2.21944 -1.31735 0
M  V30 49 H 0.826395 0.988782 -1.32253 0
M  V30 END ATOM
M  V30 BEGIN BOND
M  V30 1 1 1 2
M  V30 2 1 2 3
M  V30 3 2 3 4
M  V30 4 1 4 5
M  V30 5 2 5 6
M  V30 6 1 6 7
M  V30 7 2 7 8
M  V30 8 1 6 9
M  V30 9 1 9 10
M  V30 10 1 9 11
M  V30 11 1 11 12
M  V30 12 1 11 13
M  V30 13 1 13 14
M  V30 14 1 13 15
M  V30 15 1 9 16
M  V30 16 2 16 17
M  V30 17 1 17 18
M  V30 18 2 18 19
M  V30 19 1 19 20
M  V30 20 1 20 21
M  V30 21 1 19 22
M  V30 22 2 22 23
M  V30 23 1 8 3
M  V30 24 1 23 16
M  V30 25 1 1 24
M  V30 26 1 1 25
M  V30 27 1 1 26
M  V30 28 1 4 27
M  V30 29 1 5 28
M  V30 30 1 7 29
M  V30 31 1 8 30
M  V30 32 1 10 31
M  V30 33 1 10 32
M  V30 34 1 11 33
M  V30 35 1 12 34
M  V30 36 1 12 35
M  V30 37 1 13 36
M  V30 38 1 14 37
M  V30 39 1 14 38
M  V30 40 1 14 39
M  V30 41 1 15 40
M  V30 42 1 15 41
M  V30 43 1 15 42
M  V30 44 1 17 43
M  V30 45 1 18 44
M  V30 46 1 21 45
M  V30 47 1 21 46
M  V30 48 1 21 47
M  V30 49 1 22 48
M  V30 50 1 23 49
M  V30 END BOND
M  V30 END CTAB
M  END
