
     RDKit          3D

  0  0  0  0  0  0  0  0  0  0999 V3000
M  V30 BEGIN CTAB
M  V30 COUNTS 56 58 0 0 0
M  V30 BEGIN ATOM
M  V30 1 C -0.185254 -2.37549 -2.00787 0
M  V30 2 C 0.795983 -2.12943 -0.918392 0
M  V30 3 C 2.08479 -1.71669 -1.2197 0
M  V30 4 C 3.02796 -1.47636 -0.244553 0
M  V30 5 C 2.65582 -1.65901 1.07233 0
M  V30 6 N 3.58984 -1.42438 2.11436 0
M  V30 7 C 1.36204 -2.06986 1.30683 0
M  V30 8 O 1.03502 -2.23298 2.51467 0
M  V30 9 N 0.443813 -2.30369 0.354279 0
M  V30 10 C -0.888138 -2.73369 0.756487 0
M  V30 11 C -1.8046 -1.6232 0.98335 0
M  V30 12 O -1.40734 -0.459149 0.831528 0
M  V30 13 N -3.14197 -1.85573 1.37476 0
M  V30 14 C -4.12745 -0.832899 1.61545 0
M  V30 15 C -4.51525 -0.0727634 0.415066 0
M  V30 16 C -4.08484 -0.297303 -0.867811 0
M  V30 17 C -4.54469 0.480647 -1.94234 0
M  V30 18 C -5.44848 1.49859 -1.73673 0
M  V30 19 N -5.9046 2.2769 -2.82963 0
M  V30 20 N -5.8557 1.6987 -0.472514 0
M  V30 21 C -5.4292 0.966593 0.574302 0
M  V30 22 C -5.92542 1.24456 1.96134 0
M  V30 23 S 4.661 -0.955059 -0.587766 0
M  V30 24 O 4.85289 -0.906409 -2.09537 0
M  V30 25 O 5.66826 -1.97343 -0.0833106 0
M  V30 26 N 5.04543 0.542573 0.107793 0
M  V30 27 C 4.25398 1.63953 -0.337842 0
M  V30 28 C 4.75236 2.88913 0.399965 0
M  V30 29 C 6.16057 3.31238 0.230736 0
M  V30 30 C 5.07684 4.1068 -0.376593 0
M  V30 31 H 0.312386 -2.32498 -3.00103 0
M  V30 32 H -0.582447 -3.41627 -1.92978 0
M  V30 33 H -0.990683 -1.61424 -2.03126 0
M  V30 34 H 2.38468 -1.57034 -2.26524 0
M  V30 35 H 4.01883 -0.510726 2.25028 0
M  V30 36 H 3.82664 -2.21439 2.74 0
M  V30 37 H -0.784788 -3.28698 1.73535 0
M  V30 38 H -1.27359 -3.50755 0.0472947 0
M  V30 39 H -3.44761 -2.8441 1.50147 0
M  V30 40 H -3.67812 -0.142927 2.39668 0
M  V30 41 H -5.02664 -1.25052 2.14877 0
M  V30 42 H -3.38979 -1.09824 -1.0639 0
M  V30 43 H -4.17899 0.271817 -2.94631 0
M  V30 44 H -6.61768 1.90584 -3.48526 0
M  V30 45 H -5.54458 3.2494 -3.01948 0
M  V30 46 H -6.33154 0.316572 2.43979 0
M  V30 47 H -6.78599 1.95409 1.88659 0
M  V30 48 H -5.14957 1.722 2.57453 0
M  V30 49 H 6.05396 0.709658 0.142547 0
M  V30 50 H 4.37198 1.82495 -1.43488 0
M  V30 51 H 3.19029 1.50431 -0.0818309 0
M  V30 52 H 4.27029 3.03333 1.37257 0
M  V30 53 H 6.86844 2.79929 -0.431042 0
M  V30 54 H 6.63902 3.78107 1.13031 0
M  V30 55 H 4.84152 4.03698 -1.47005 0
M  V30 56 H 4.80032 5.11309 0.0333772 0
M  V30 END ATOM
M  V30 BEGIN BOND
M  V30 1 1 1 2
M  V30 2 2 2 3
M  V30 3 1 3 4
M  V30 4 2 4 5
M  V30 5 1 5 6
M  V30 6 1 5 7
M  V30 7 2 7 8
M  V30 8 1 7 9
M  V30 9 1 9 10
M  V30 10 1 10 11
M  V30 11 2 11 12
M  V30 12 1 11 13
M  V30 13 1 13 14
M  V30 14 1 14 15
M  V30 15 2 15 16
M  V30 16 1 16 17
M  V30 17 2 17 18
M  V30 18 1 18 19
M  V30 19 1 18 20
M  V30 20 2 20 21
M  V30 21 1 21 22
M  V30 22 1 4 23
M  V30 23 2 23 24
M  V30 24 2 23 25
M  V30 25 1 23 26
M  V30 26 1 26 27
M  V30 27 1 27 28
M  V30 28 1 28 29
M  V30 29 1 29 30
M  V30 30 1 9 2
M  V30 31 1 21 15
M  V30 32 1 30 28
M  V30 33 1 1 31
M  V30 34 1 1 32
M  V30 35 1 1 33
M  V30 36 1 3 34
M  V30 37 1 6 35
M  V30 38 1 6 36
M  V30 39 1 10 37
M  V30 40 1 10 38
M  V30 41 1 13 39
M  V30 42 1 14 40
M  V30 43 1 14 41
M  V30 44 1 16 42
M  V30 45 1 17 43
M  V30 46 1 19 44
M  V30 47 1 19 45
M  V30 48 1 22 46
M  V30 49 1 22 47
M  V30 50 1 22 48
M  V30 51 1 26 49
M  V30 52 1 27 50
M  V30 53 1 27 51
M  V30 54 1 28 52
M  V30 55 1 29 53
M  V30 56 1 29 54
M  V30 57 1 30 55
M  V30 58 1 30 56
M  V30 END BOND
M  V30 END CTAB
M  END
