
     RDKit          3D

  0  0  0  0  0  0  0  0  0  0999 V3000
M  V30 BEGIN CTAB
M  V30 COUNTS 46 49 0 0 0
M  V30 BEGIN ATOM
M  V30 1 C -3.51246 -4.73383 0.380816 0
M  V30 2 O -3.58115 -3.57452 -0.380376 0
M  V30 3 C -2.85497 -2.40819 -0.20903 0
M  V30 4 C -1.91763 -2.23815 0.79102 0
M  V30 5 C -1.21752 -1.02572 0.906233 0
M  V30 6 C -1.45513 -0.00154297 0.0306866 0
M  V30 7 C -2.39382 -0.206027 -0.95105 0
M  V30 8 C -3.09176 -1.37412 -1.08916 0
M  V30 9 C -0.774389 1.25948 0.109053 0
M  V30 10 N -1.49352 2.39795 0.394687 0
M  V30 11 C -0.880792 3.57855 0.477085 0
M  V30 12 C -1.64927 4.70965 0.768845 0
M  V30 13 N -3.04217 4.53888 0.962836 0
M  V30 14 N -1.01548 5.89918 0.848991 0
M  V30 15 N 0.297381 5.99101 0.656264 0
M  V30 16 C 1.05129 4.90109 0.372872 0
M  V30 17 C 0.480813 3.65083 0.273775 0
M  V30 18 N 1.17335 2.53498 -0.00435281 0
M  V30 19 C 0.575375 1.32579 -0.0935049 0
M  V30 20 C 1.31882 0.123039 -0.400617 0
M  V30 21 C 2.28231 -0.351706 0.492752 0
M  V30 22 C 3.03195 -1.4772 0.265213 0
M  V30 23 C 2.80646 -2.17001 -0.926026 0
M  V30 24 C 1.86304 -1.73482 -1.83755 0
M  V30 25 C 1.13159 -0.60342 -1.57474 0
M  V30 26 O 3.5648 -3.31408 -1.16283 0
M  V30 27 C 4.51859 -3.73112 -0.215428 0
M  V30 28 N 2.45183 4.99356 0.166008 0
M  V30 29 H -3.28485 -5.58779 -0.319731 0
M  V30 30 H -2.75085 -4.72615 1.17102 0
M  V30 31 H -4.53353 -4.96714 0.774982 0
M  V30 32 H -1.71558 -3.03448 1.49156 0
M  V30 33 H -0.511175 -0.975784 1.71559 0
M  V30 34 H -2.58508 0.618467 -1.65502 0
M  V30 35 H -3.82234 -1.50021 -1.87201 0
M  V30 36 H -3.47267 4.00909 1.75142 0
M  V30 37 H -3.66407 4.99487 0.236403 0
M  V30 38 H 2.46194 0.182874 1.42122 0
M  V30 39 H 3.78025 -1.84485 0.960422 0
M  V30 40 H 1.6773 -2.25885 -2.75965 0
M  V30 41 H 0.416951 -0.273912 -2.28089 0
M  V30 42 H 5.3421 -2.98603 -0.0746869 0
M  V30 43 H 4.05358 -3.9877 0.765984 0
M  V30 44 H 5.01222 -4.66606 -0.572373 0
M  V30 45 H 2.8192 5.60963 -0.591495 0
M  V30 46 H 3.10906 4.43449 0.784787 0
M  V30 END ATOM
M  V30 BEGIN BOND
M  V30 1 1 1 2
M  V30 2 1 2 3
M  V30 3 2 3 4
M  V30 4 1 4 5
M  V30 5 2 5 6
M  V30 6 1 6 7
M  V30 7 2 7 8
M  V30 8 1 6 9
M  V30 9 2 9 10
M  V30 10 1 10 11
M  V30 11 2 11 12
M  V30 12 1 12 13
M  V30 13 1 12 14
M  V30 14 2 14 15
M  V30 15 1 15 16
M  V30 16 2 16 17
M  V30 17 1 17 18
M  V30 18 2 18 19
M  V30 19 1 19 20
M  V30 20 2 20 21
M  V30 21 1 21 22
M  V30 22 2 22 23
M  V30 23 1 23 24
M  V30 24 2 24 25
M  V30 25 1 23 26
M  V30 26 1 26 27
M  V30 27 1 16 28
M  V30 28 1 8 3
M  V30 29 1 19 9
M  V30 30 1 25 20
M  V30 31 1 17 11
M  V30 32 1 1 29
M  V30 33 1 1 30
M  V30 34 1 1 31
M  V30 35 1 4 32
M  V30 36 1 5 33
M  V30 37 1 7 34
M  V30 38 1 8 35
M  V30 39 1 13 36
M  V30 40 1 13 37
M  V30 41 1 21 38
M  V30 42 1 22 39
M  V30 43 1 24 40
M  V30 44 1 25 41
M  V30 45 1 27 42
M  V30 46 1 27 43
M  V30 47 1 27 44
M  V30 48 1 28 45
M  V30 49 1 28 46
M  V30 END BOND
M  V30 END CTAB
M  END
