
     RDKit          3D

  0  0  0  0  0  0  0  0  0  0999 V3000
M  V30 BEGIN CTAB
M  V30 COUNTS 35 37 0 0 0
M  V30 BEGIN ATOM
M  V30 1 C 5.82865 0.56473 -0.295875 0
M  V30 2 O 4.57466 -0.0753887 -0.360449 0
M  V30 3 C 3.41123 0.643719 -0.180942 0
M  V30 4 O 3.55917 1.89416 0.0409129 0
M  V30 5 C 2.07297 0.0709534 -0.229727 0
M  V30 6 C 0.991693 0.906919 -0.0323334 0
M  V30 7 N 1.18429 2.3006 0.213774 0
M  V30 8 C -0.31988 0.466347 -0.0581206 0
M  V30 9 C -0.504467 -0.887552 -0.297309 0
M  V30 10 C -1.88737 -1.36701 -0.327221 0
M  V30 11 O -2.10098 -2.59541 -0.542322 0
M  V30 12 C -3.01047 -0.47312 -0.117525 0
M  V30 13 C -4.30066 -0.927165 -0.146658 0
M  V30 14 C -5.37547 -0.0803124 0.0524574 0
M  V30 15 C -5.12464 1.24322 0.283358 0
M  V30 16 C -3.84796 1.75341 0.323288 0
M  V30 17 C -2.7951 0.863616 0.117257 0
M  V30 18 C -1.445 1.37051 0.153535 0
M  V30 19 O -1.19642 2.58716 0.365046 0
M  V30 20 C 0.525423 -1.75736 -0.498735 0
M  V30 21 N 0.287918 -3.1376 -0.740526 0
M  V30 22 C 1.82502 -1.25238 -0.460706 0
M  V30 23 C 2.90582 -2.15816 -0.670801 0
M  V30 24 N 3.77368 -2.91425 -0.844727 0
M  V30 25 H 6.32397 0.464655 0.680332 0
M  V30 26 H 5.70414 1.66611 -0.478617 0
M  V30 27 H 6.52604 0.210932 -1.09264 0
M  V30 28 H 1.17006 2.6857 1.18177 0
M  V30 29 H 1.34264 2.95156 -0.584087 0
M  V30 30 H -4.53408 -1.98271 -0.329426 0
M  V30 31 H -6.38813 -0.467749 0.0239442 0
M  V30 32 H -5.93491 1.96023 0.44779 0
M  V30 33 H -3.64199 2.79614 0.504849 0
M  V30 34 H 0.398312 -3.84783 0.0414814 0
M  V30 35 H 0.00184563 -3.47667 -1.68734 0
M  V30 END ATOM
M  V30 BEGIN BOND
M  V30 1 1 1 2
M  V30 2 1 2 3
M  V30 3 2 3 4
M  V30 4 1 3 5
M  V30 5 2 5 6
M  V30 6 1 6 7
M  V30 7 1 6 8
M  V30 8 2 8 9
M  V30 9 1 9 10
M  V30 10 2 10 11
M  V30 11 1 10 12
M  V30 12 2 12 13
M  V30 13 1 13 14
M  V30 14 2 14 15
M  V30 15 1 15 16
M  V30 16 2 16 17
M  V30 17 1 17 18
M  V30 18 2 18 19
M  V30 19 1 9 20
M  V30 20 1 20 21
M  V30 21 2 20 22
M  V30 22 1 22 23
M  V30 23 3 23 24
M  V30 24 1 22 5
M  V30 25 1 18 8
M  V30 26 1 17 12
M  V30 27 1 1 25
M  V30 28 1 1 26
M  V30 29 1 1 27
M  V30 30 1 7 28
M  V30 31 1 7 29
M  V30 32 1 13 30
M  V30 33 1 14 31
M  V30 34 1 15 32
M  V30 35 1 16 33
M  V30 36 1 21 34
M  V30 37 1 21 35
M  V30 END BOND
M  V30 END CTAB
M  END
