
     RDKit          3D

  0  0  0  0  0  0  0  0  0  0999 V3000
M  V30 BEGIN CTAB
M  V30 COUNTS 37 38 0 0 0
M  V30 BEGIN ATOM
M  V30 1 C 2.10583 0.0645851 -4.1342 0
M  V30 2 O 1.42845 0.0460139 -2.89377 0
M  V30 3 C 2.05553 -0.0604852 -1.6783 0
M  V30 4 C 3.41882 -0.162021 -1.51765 0
M  V30 5 C 4.00453 -0.267873 -0.259398 0
M  V30 6 C 3.23504 -0.275212 0.884447 0
M  V30 7 C 1.86876 -0.173746 0.728861 0
M  V30 8 C 1.28317 -0.0677224 -0.532313 0
M  V30 9 C -0.186899 0.0384338 -0.663003 0
M  V30 10 S -0.935795 0.00348949 0.98092 0
M  V30 11 C -2.70901 0.127449 0.903698 0
M  V30 12 N -3.46121 -0.974046 0.806359 0
M  V30 13 C -4.79571 -0.863307 0.749921 0
M  V30 14 N -5.59391 -2.04791 0.646186 0
M  V30 15 C -5.40482 0.365894 0.790501 0
M  V30 16 C -4.62292 1.50292 0.891258 0
M  V30 17 N -3.27522 1.33292 0.944946 0
M  V30 18 N -5.18558 2.78911 0.937439 0
M  V30 19 C 3.85444 -0.387078 2.20358 0
M  V30 20 O 3.12802 -0.390401 3.23071 0
M  V30 21 C 5.31476 -0.498115 2.39109 0
M  V30 22 H 2.85757 -0.778156 -4.09327 0
M  V30 23 H 2.68741 0.983601 -4.27052 0
M  V30 24 H 1.43766 -0.179192 -4.98063 0
M  V30 25 H 4.03236 -0.158336 -2.38967 0
M  V30 26 H 5.08715 -0.347105 -0.15574 0
M  V30 27 H 1.27234 -0.180723 1.63731 0
M  V30 28 H -0.456084 0.995522 -1.15237 0
M  V30 29 H -0.513894 -0.840559 -1.26747 0
M  V30 30 H -6.41076 -2.16879 1.29017 0
M  V30 31 H -5.40484 -2.79359 -0.0343284 0
M  V30 32 H -6.47715 0.494975 0.747678 0
M  V30 33 H -5.54046 3.18338 1.83186 0
M  V30 34 H -5.23535 3.34095 0.0325211 0
M  V30 35 H 5.80331 -1.12131 1.58819 0
M  V30 36 H 5.57135 -1.04357 3.3395 0
M  V30 37 H 5.7631 0.509992 2.46547 0
M  V30 END ATOM
M  V30 BEGIN BOND
M  V30 1 1 1 2
M  V30 2 1 2 3
M  V30 3 2 3 4
M  V30 4 1 4 5
M  V30 5 2 5 6
M  V30 6 1 6 7
M  V30 7 2 7 8
M  V30 8 1 8 9
M  V30 9 1 9 10
M  V30 10 1 10 11
M  V30 11 2 11 12
M  V30 12 1 12 13
M  V30 13 1 13 14
M  V30 14 2 13 15
M  V30 15 1 15 16
M  V30 16 2 16 17
M  V30 17 1 16 18
M  V30 18 1 6 19
M  V30 19 2 19 20
M  V30 20 1 19 21
M  V30 21 1 8 3
M  V30 22 1 17 11
M  V30 23 1 1 22
M  V30 24 1 1 23
M  V30 25 1 1 24
M  V30 26 1 4 25
M  V30 27 1 5 26
M  V30 28 1 7 27
M  V30 29 1 9 28
M  V30 30 1 9 29
M  V30 31 1 14 30
M  V30 32 1 14 31
M  V30 33 1 15 32
M  V30 34 1 18 33
M  V30 35 1 18 34
M  V30 36 1 21 35
M  V30 37 1 21 36
M  V30 38 1 21 37
M  V30 END BOND
M  V30 END CTAB
M  END
