
     RDKit          3D

  0  0  0  0  0  0  0  0  0  0999 V3000
M  V30 BEGIN CTAB
M  V30 COUNTS 48 51 0 0 0
M  V30 BEGIN ATOM
M  V30 1 N -5.00921 3.40064 -0.0169429 0
M  V30 2 C -4.19621 2.26934 0.388056 0
M  V30 3 C -4.92892 1.02161 0.774741 0
M  V30 4 C -4.22085 0.304813 -0.381376 0
M  V30 5 C -3.66425 1.58217 -0.846424 0
M  V30 6 C -3.32674 -0.777685 -0.0117275 0
M  V30 7 N -3.73239 -1.69278 0.881276 0
M  V30 8 C -2.9275 -2.74098 1.22105 0
M  V30 9 N -3.38679 -3.67922 2.17413 0
M  V30 10 N -1.70718 -2.85894 0.649142 0
M  V30 11 C -1.24043 -1.98262 -0.247525 0
M  V30 12 C -2.07271 -0.926108 -0.575918 0
M  V30 13 N 0.0156001 -2.16367 -0.88482 0
M  V30 14 C 0.669904 -1.18689 -1.69919 0
M  V30 15 C 1.42449 -0.267817 -0.812585 0
M  V30 16 N 1.04629 0.535724 0.17347 0
M  V30 17 O 2.05797 1.16588 0.708532 0
M  V30 18 C 3.15287 0.794826 0.0862706 0
M  V30 19 C 2.81247 -0.113341 -0.889852 0
M  V30 20 C 4.50516 1.23279 0.345252 0
M  V30 21 C 5.5645 0.759846 -0.438449 0
M  V30 22 C 6.86707 1.11974 -0.244811 0
M  V30 23 C 7.16532 1.99478 0.773988 0
M  V30 24 C 6.13484 2.48834 1.57643 0
M  V30 25 C 4.83054 2.10482 1.35404 0
M  V30 26 C 0.696744 -3.43106 -0.684567 0
M  V30 27 H -4.65294 3.82992 -0.922735 0
M  V30 28 H -6.0248 3.14548 -0.107967 0
M  V30 29 H -3.41401 2.49534 1.14913 0
M  V30 30 H -6.02856 1.08569 0.683355 0
M  V30 31 H -4.66537 0.571053 1.74418 0
M  V30 32 H -5.04227 -0.0828176 -1.06284 0
M  V30 33 H -4.10518 1.94449 -1.81406 0
M  V30 34 H -2.56543 1.71518 -0.911923 0
M  V30 35 H -4.32993 -3.61424 2.60281 0
M  V30 36 H -2.7821 -4.46993 2.47739 0
M  V30 37 H -1.78813 -0.181874 -1.27708 0
M  V30 38 H 1.35654 -1.69305 -2.41323 0
M  V30 39 H -0.103599 -0.603027 -2.29789 0
M  V30 40 H 3.47364 -0.60463 -1.58532 0
M  V30 41 H 5.33991 0.079216 -1.23109 0
M  V30 42 H 7.62519 0.722907 -0.879544 0
M  V30 43 H 8.17971 2.2831 0.936927 0
M  V30 44 H 6.39304 3.18005 2.37839 0
M  V30 45 H 4.06087 2.49822 1.98263 0
M  V30 46 H 0.528191 -3.72413 0.378986 0
M  V30 47 H 0.219685 -4.18553 -1.33917 0
M  V30 48 H 1.79493 -3.34562 -0.863519 0
M  V30 END ATOM
M  V30 BEGIN BOND
M  V30 1 1 1 2
M  V30 2 1 2 3
M  V30 3 1 3 4
M  V30 4 1 4 5
M  V30 5 1 4 6
M  V30 6 2 6 7
M  V30 7 1 7 8
M  V30 8 1 8 9
M  V30 9 2 8 10
M  V30 10 1 10 11
M  V30 11 2 11 12
M  V30 12 1 11 13
M  V30 13 1 13 14
M  V30 14 1 14 15
M  V30 15 2 15 16
M  V30 16 1 16 17
M  V30 17 1 17 18
M  V30 18 2 18 19
M  V30 19 1 18 20
M  V30 20 2 20 21
M  V30 21 1 21 22
M  V30 22 2 22 23
M  V30 23 1 23 24
M  V30 24 2 24 25
M  V30 25 1 13 26
M  V30 26 1 5 2
M  V30 27 1 12 6
M  V30 28 1 19 15
M  V30 29 1 25 20
M  V30 30 1 1 27
M  V30 31 1 1 28
M  V30 32 1 2 29
M  V30 33 1 3 30
M  V30 34 1 3 31
M  V30 35 1 4 32
M  V30 36 1 5 33
M  V30 37 1 5 34
M  V30 38 1 9 35
M  V30 39 1 9 36
M  V30 40 1 12 37
M  V30 41 1 14 38
M  V30 42 1 14 39
M  V30 43 1 19 40
M  V30 44 1 21 41
M  V30 45 1 22 42
M  V30 46 1 23 43
M  V30 47 1 24 44
M  V30 48 1 25 45
M  V30 49 1 26 46
M  V30 50 1 26 47
M  V30 51 1 26 48
M  V30 END BOND
M  V30 END CTAB
M  END
