
     RDKit          3D

  0  0  0  0  0  0  0  0  0  0999 V3000
M  V30 BEGIN CTAB
M  V30 COUNTS 32 33 0 0 0
M  V30 BEGIN ATOM
M  V30 1 C -1.22697 -2.10592 -0.739029 0
M  V30 2 N -1.98109 -0.895815 -0.257888 0
M  V30 3 N -3.0941 -0.60774 -0.851081 0
M  V30 4 C -3.81466 0.420723 -0.516237 0
M  V30 5 S -2.90236 1.08936 0.742688 0
M  V30 6 C -1.58695 -0.0997475 0.719871 0
M  V30 7 N -0.598907 -0.120392 1.46482 0
M  V30 8 S 0.723912 -1.06027 1.69199 0
M  V30 9 O 1.0837 -0.861534 3.2241 0
M  V30 10 O 0.603561 -2.55301 1.65241 0
M  V30 11 C 2.2026 -0.495402 0.920562 0
M  V30 12 C 2.93343 0.552407 1.5009 0
M  V30 13 C 4.10085 0.98304 0.912506 0
M  V30 14 C 4.59055 0.416082 -0.245657 0
M  V30 15 N 5.80123 0.854936 -0.865485 0
M  V30 16 C 3.83838 -0.609005 -0.777719 0
M  V30 17 C 2.66855 -1.06451 -0.217149 0
M  V30 18 S -5.33081 0.96301 -1.19739 0
M  V30 19 N -6.64808 0.231043 -0.352843 0
M  V30 20 O -5.4702 2.45141 -1.12334 0
M  V30 21 O -5.42442 0.548819 -2.64064 0
M  V30 22 H -0.18984 -1.87204 -0.932759 0
M  V30 23 H -1.6453 -2.38498 -1.76838 0
M  V30 24 H -1.46377 -2.97378 -0.12554 0
M  V30 25 H 2.5513 0.996058 2.40617 0
M  V30 26 H 4.66906 1.79487 1.36026 0
M  V30 27 H 6.58974 0.158402 -0.87245 0
M  V30 28 H 5.93418 1.78044 -1.28785 0
M  V30 29 H 4.22563 -1.06322 -1.70074 0
M  V30 30 H 2.15299 -1.86744 -0.694801 0
M  V30 31 H -7.02749 0.889557 0.377437 0
M  V30 32 H -6.26473 -0.583905 0.193265 0
M  V30 END ATOM
M  V30 BEGIN BOND
M  V30 1 1 1 2
M  V30 2 1 2 3
M  V30 3 2 3 4
M  V30 4 1 4 5
M  V30 5 1 5 6
M  V30 6 2 6 7
M  V30 7 1 7 8
M  V30 8 2 8 9
M  V30 9 2 8 10
M  V30 10 1 8 11
M  V30 11 2 11 12
M  V30 12 1 12 13
M  V30 13 2 13 14
M  V30 14 1 14 15
M  V30 15 1 14 16
M  V30 16 2 16 17
M  V30 17 1 4 18
M  V30 18 1 18 19
M  V30 19 2 18 20
M  V30 20 2 18 21
M  V30 21 1 6 2
M  V30 22 1 17 11
M  V30 23 1 1 22
M  V30 24 1 1 23
M  V30 25 1 1 24
M  V30 26 1 12 25
M  V30 27 1 13 26
M  V30 28 1 15 27
M  V30 29 1 15 28
M  V30 30 1 16 29
M  V30 31 1 17 30
M  V30 32 1 19 31
M  V30 33 1 19 32
M  V30 END BOND
M  V30 END CTAB
M  END
