
     RDKit          3D

  0  0  0  0  0  0  0  0  0  0999 V3000
M  V30 BEGIN CTAB
M  V30 COUNTS 48 49 0 0 0
M  V30 BEGIN ATOM
M  V30 1 C 1.55719 -2.45498 2.28236 0
M  V30 2 C 1.32054 -1.03159 1.77254 0
M  V30 3 C 2.47675 -0.595973 0.961658 0
M  V30 4 C 2.47275 0.518495 0.152519 0
M  V30 5 C 3.58219 0.888968 -0.590699 0
M  V30 6 C 4.73038 0.141638 -0.537183 0
M  V30 7 C 4.76237 -0.97213 0.259496 0
M  V30 8 C 3.64941 -1.3202 0.987923 0
M  V30 9 S 6.10844 0.65016 -1.49546 0
M  V30 10 O 5.60247 1.31882 -2.73768 0
M  V30 11 O 6.92003 -0.540809 -1.90074 0
M  V30 12 N 7.12836 1.7259 -0.611746 0
M  V30 13 N 0.064001 -1.02033 1.08067 0
M  V30 14 C -1.06876 -0.300485 1.54052 0
M  V30 15 O -0.955792 0.372243 2.63345 0
M  V30 16 C -2.38421 -0.240529 0.886182 0
M  V30 17 C -2.33601 0.591252 -0.355219 0
M  V30 18 C -3.64996 0.68374 -1.03638 0
M  V30 19 C -4.11834 -0.352653 -1.79393 0
M  V30 20 C -5.34269 -0.3132 -2.44994 0
M  V30 21 C -6.09236 0.841878 -2.30675 0
M  V30 22 C -5.62449 1.88469 -1.54637 0
M  V30 23 C -4.40823 1.81429 -0.909739 0
M  V30 24 N -1.33843 0.0454728 -1.24806 0
M  V30 25 C -3.41809 0.209041 1.87505 0
M  V30 26 H 2.31993 -2.43825 3.08623 0
M  V30 27 H 0.576194 -2.77991 2.71449 0
M  V30 28 H 1.8944 -3.12957 1.493 0
M  V30 29 H 1.28664 -0.403175 2.71096 0
M  V30 30 H 1.54856 1.09749 0.125836 0
M  V30 31 H 3.53498 1.77284 -1.21361 0
M  V30 32 H 5.69292 -1.53542 0.272029 0
M  V30 33 H 3.7151 -2.22267 1.61668 0
M  V30 34 H 7.24332 1.40887 0.377474 0
M  V30 35 H 6.73308 2.69246 -0.578178 0
M  V30 36 H -0.013222 -1.57391 0.209505 0
M  V30 37 H -2.64532 -1.31694 0.64893 0
M  V30 38 H -2.00271 1.63472 -0.147248 0
M  V30 39 H -3.51764 -1.23869 -1.88964 0
M  V30 40 H -5.71999 -1.12938 -3.05119 0
M  V30 41 H -7.05727 0.897797 -2.81179 0
M  V30 42 H -6.23546 2.76697 -1.45813 0
M  V30 43 H -4.09631 2.67696 -0.322143 0
M  V30 44 H -0.385931 0.374159 -1.11806 0
M  V30 45 H -1.48932 -0.919316 -1.53873 0
M  V30 46 H -4.39719 0.419497 1.43473 0
M  V30 47 H -3.04764 1.04693 2.53207 0
M  V30 48 H -3.57465 -0.645176 2.5926 0
M  V30 END ATOM
M  V30 BEGIN BOND
M  V30 1 1 1 2
M  V30 2 1 2 3
M  V30 3 2 3 4
M  V30 4 1 4 5
M  V30 5 2 5 6
M  V30 6 1 6 7
M  V30 7 2 7 8
M  V30 8 1 6 9
M  V30 9 2 9 10
M  V30 10 2 9 11
M  V30 11 1 9 12
M  V30 12 1 2 13
M  V30 13 1 13 14
M  V30 14 2 14 15
M  V30 15 1 14 16
M  V30 16 1 16 17
M  V30 17 1 17 18
M  V30 18 2 18 19
M  V30 19 1 19 20
M  V30 20 2 20 21
M  V30 21 1 21 22
M  V30 22 2 22 23
M  V30 23 1 17 24
M  V30 24 1 16 25
M  V30 25 1 8 3
M  V30 26 1 23 18
M  V30 27 1 1 26
M  V30 28 1 1 27
M  V30 29 1 1 28
M  V30 30 1 2 29
M  V30 31 1 4 30
M  V30 32 1 5 31
M  V30 33 1 7 32
M  V30 34 1 8 33
M  V30 35 1 12 34
M  V30 36 1 12 35
M  V30 37 1 13 36
M  V30 38 1 16 37
M  V30 39 1 17 38
M  V30 40 1 19 39
M  V30 41 1 20 40
M  V30 42 1 21 41
M  V30 43 1 22 42
M  V30 44 1 23 43
M  V30 45 1 24 44
M  V30 46 1 24 45
M  V30 47 1 25 46
M  V30 48 1 25 47
M  V30 49 1 25 48
M  V30 END BOND
M  V30 END CTAB
M  END
