
     RDKit          3D

  0  0  0  0  0  0  0  0  0  0999 V3000
M  V30 BEGIN CTAB
M  V30 COUNTS 49 52 0 0 0
M  V30 BEGIN ATOM
M  V30 1 N 6.76258 0.442293 -1.15934 0
M  V30 2 C 5.48089 1.09958 -0.984577 0
M  V30 3 C 4.42905 0.0403695 -0.744163 0
M  V30 4 O 4.76966 -0.666024 0.39547 0
M  V30 5 C 4.02934 -1.85549 0.418709 0
M  V30 6 C 2.57832 -1.56537 0.787485 0
M  V30 7 C 2.53149 -0.230163 1.50432 0
M  V30 8 N 2.60334 0.88144 0.627395 0
M  V30 9 C 3.04169 0.611832 -0.69787 0
M  V30 10 C 1.59971 1.86792 0.763394 0
M  V30 11 C 0.210638 1.38024 0.546309 0
M  V30 12 N -0.546197 0.912231 1.53362 0
M  V30 13 C -1.80306 0.455178 1.42741 0
M  V30 14 N -2.47009 -0.0273952 2.59246 0
M  V30 15 C -2.44 0.446155 0.16312 0
M  V30 16 C -1.65372 0.928407 -0.844948 0
M  V30 17 N -0.368073 1.38183 -0.660157 0
M  V30 18 S -2.6448 0.796738 -2.2303 0
M  V30 19 C -4.03521 0.134663 -1.50828 0
M  V30 20 C -3.69292 0.0309511 -0.191284 0
M  V30 21 C -4.76224 -0.525944 0.74919 0
M  V30 22 C -6.12564 -0.208957 0.165405 0
M  V30 23 C -6.17371 -1.02454 -1.13365 0
M  V30 24 C -5.34349 -0.271537 -2.10686 0
M  V30 25 H 6.68583 -0.487066 -1.62421 0
M  V30 26 H 7.20064 0.34687 -0.229375 0
M  V30 27 H 5.27746 1.63237 -1.95538 0
M  V30 28 H 5.58792 1.8089 -0.147171 0
M  V30 29 H 4.49003 -0.664473 -1.59948 0
M  V30 30 H 4.13208 -2.4192 -0.505755 0
M  V30 31 H 4.46774 -2.4836 1.24509 0
M  V30 32 H 2.19562 -2.3658 1.47756 0
M  V30 33 H 1.9092 -1.563 -0.0757078 0
M  V30 34 H 3.464 -0.210194 2.14316 0
M  V30 35 H 1.69786 -0.178932 2.23045 0
M  V30 36 H 3.09722 1.60726 -1.23048 0
M  V30 37 H 2.35789 0.000361318 -1.30507 0
M  V30 38 H 1.81935 2.69272 0.0470116 0
M  V30 39 H 1.70811 2.33586 1.77892 0
M  V30 40 H -2.78361 -1.01313 2.70541 0
M  V30 41 H -2.66112 0.621459 3.3769 0
M  V30 42 H -4.74597 -0.0286937 1.72468 0
M  V30 43 H -4.65493 -1.60359 0.886264 0
M  V30 44 H -6.22768 0.862452 -0.0447351 0
M  V30 45 H -6.89432 -0.566653 0.846813 0
M  V30 46 H -7.22777 -1.1005 -1.40157 0
M  V30 47 H -5.80381 -2.03519 -0.90913 0
M  V30 48 H -5.15434 -0.861644 -3.00173 0
M  V30 49 H -5.91496 0.638992 -2.42101 0
M  V30 END ATOM
M  V30 BEGIN BOND
M  V30 1 1 1 2
M  V30 2 1 2 3
M  V30 3 1 3 4
M  V30 4 1 4 5
M  V30 5 1 5 6
M  V30 6 1 6 7
M  V30 7 1 7 8
M  V30 8 1 8 9
M  V30 9 1 8 10
M  V30 10 1 10 11
M  V30 11 2 11 12
M  V30 12 1 12 13
M  V30 13 1 13 14
M  V30 14 2 13 15
M  V30 15 1 15 16
M  V30 16 2 16 17
M  V30 17 1 16 18
M  V30 18 1 18 19
M  V30 19 2 19 20
M  V30 20 1 20 21
M  V30 21 1 21 22
M  V30 22 1 22 23
M  V30 23 1 23 24
M  V30 24 1 9 3
M  V30 25 1 17 11
M  V30 26 1 24 19
M  V30 27 1 20 15
M  V30 28 1 1 25
M  V30 29 1 1 26
M  V30 30 1 2 27
M  V30 31 1 2 28
M  V30 32 1 3 29
M  V30 33 1 5 30
M  V30 34 1 5 31
M  V30 35 1 6 32
M  V30 36 1 6 33
M  V30 37 1 7 34
M  V30 38 1 7 35
M  V30 39 1 9 36
M  V30 40 1 9 37
M  V30 41 1 10 38
M  V30 42 1 10 39
M  V30 43 1 14 40
M  V30 44 1 14 41
M  V30 45 1 21 42
M  V30 46 1 21 43
M  V30 47 1 22 44
M  V30 48 1 22 45
M  V30 49 1 23 46
M  V30 50 1 23 47
M  V30 51 1 24 48
M  V30 52 1 24 49
M  V30 END BOND
M  V30 END CTAB
M  END
