
     RDKit          3D

  0  0  0  0  0  0  0  0  0  0999 V3000
M  V30 BEGIN CTAB
M  V30 COUNTS 26 27 0 0 0
M  V30 BEGIN ATOM
M  V30 1 N -0.972998 1.71866 -1.84694 0
M  V30 2 C -0.0978562 1.20318 -1.30298 0
M  V30 3 C 1.02317 0.585442 -0.657573 0
M  V30 4 C 2.21309 1.31293 -0.608648 0
M  V30 5 C 3.31084 0.732584 -0.0530314 0
M  V30 6 C 4.54554 1.47342 0.00269867 0
M  V30 7 N 5.5509 2.05734 0.0589545 0
M  V30 8 C 3.28494 -0.54749 0.461264 0
M  V30 9 N 2.14899 -1.20901 0.402288 0
M  V30 10 C 0.989758 -0.67326 -0.15167 0
M  V30 11 S -0.386503 -1.70431 -0.0455187 0
M  V30 12 C -2.00976 -1.26759 -0.41652 0
M  V30 13 C -2.68829 -0.354965 0.533447 0
M  V30 14 N -2.18542 0.155163 1.65249 0
M  V30 15 O -3.10489 0.917769 2.22764 0
M  V30 16 N -4.18357 0.899245 1.48997 0
M  V30 17 C -3.97409 0.110584 0.408409 0
M  V30 18 N -4.8443 -0.208218 -0.656215 0
M  V30 19 N 4.48185 -1.10968 1.03602 0
M  V30 20 H 2.20969 2.31612 -1.01848 0
M  V30 21 H -2.16978 -0.923788 -1.47458 0
M  V30 22 H -2.64622 -2.24176 -0.439153 0
M  V30 23 H -5.60768 -0.907666 -0.52698 0
M  V30 24 H -4.7255 0.259814 -1.58539 0
M  V30 25 H 4.82961 -2.05197 0.788478 0
M  V30 26 H 5.00847 -0.542544 1.72202 0
M  V30 END ATOM
M  V30 BEGIN BOND
M  V30 1 3 1 2
M  V30 2 1 2 3
M  V30 3 2 3 4
M  V30 4 1 4 5
M  V30 5 1 5 6
M  V30 6 3 6 7
M  V30 7 2 5 8
M  V30 8 1 8 9
M  V30 9 2 9 10
M  V30 10 1 10 11
M  V30 11 1 11 12
M  V30 12 1 12 13
M  V30 13 2 13 14
M  V30 14 1 14 15
M  V30 15 1 15 16
M  V30 16 2 16 17
M  V30 17 1 17 18
M  V30 18 1 8 19
M  V30 19 1 10 3
M  V30 20 1 17 13
M  V30 21 1 4 20
M  V30 22 1 12 21
M  V30 23 1 12 22
M  V30 24 1 18 23
M  V30 25 1 18 24
M  V30 26 1 19 25
M  V30 27 1 19 26
M  V30 END BOND
M  V30 END CTAB
M  END
