
     RDKit          3D

  0  0  0  0  0  0  0  0  0  0999 V3000
M  V30 BEGIN CTAB
M  V30 COUNTS 18 18 0 0 0
M  V30 BEGIN ATOM
M  V30 1 C -3.59313 0.356931 0.0513748 0
M  V30 2 C -2.13674 -0.0821512 0.00710962 0
M  V30 3 C -1.82566 -1.42021 0.041257 0
M  V30 4 S -0.118316 -1.37137 -0.0302854 0
M  V30 5 C 0.0840942 0.329562 -0.0981471 0
M  V30 6 N 1.319 1.08949 -0.175265 0
M  V30 7 C 2.45228 0.489655 -0.200613 0
M  V30 8 N 2.53527 -0.913962 -0.15487 0
M  V30 9 N 3.59737 1.32482 -0.276674 0
M  V30 10 N -1.15116 0.756506 -0.0625805 0
M  V30 11 H -3.67961 1.399 0.382385 0
M  V30 12 H -3.96212 0.285773 -0.979188 0
M  V30 13 H -4.15876 -0.268007 0.745014 0
M  V30 14 H -2.52739 -2.27234 0.0998093 0
M  V30 15 H 2.49171 -1.52648 -1.01731 0
M  V30 16 H 2.64566 -1.42682 0.747207 0
M  V30 17 H 4.26979 1.17818 -1.06982 0
M  V30 18 H 3.75771 2.07141 0.452429 0
M  V30 END ATOM
M  V30 BEGIN BOND
M  V30 1 1 1 2
M  V30 2 2 2 3
M  V30 3 1 3 4
M  V30 4 1 4 5
M  V30 5 1 5 6
M  V30 6 2 6 7
M  V30 7 1 7 8
M  V30 8 1 7 9
M  V30 9 2 5 10
M  V30 10 1 10 2
M  V30 11 1 1 11
M  V30 12 1 1 12
M  V30 13 1 1 13
M  V30 14 1 3 14
M  V30 15 1 8 15
M  V30 16 1 8 16
M  V30 17 1 9 17
M  V30 18 1 9 18
M  V30 END BOND
M  V30 END CTAB
M  END
