
     RDKit          3D

  0  0  0  0  0  0  0  0  0  0999 V3000
M  V30 BEGIN CTAB
M  V30 COUNTS 51 54 0 0 0
M  V30 BEGIN ATOM
M  V30 1 C -1.71867 -1.56527 3.21894 0
M  V30 2 O -2.60188 -1.33653 2.11476 0
M  V30 3 C -2.13381 -0.736305 0.972817 0
M  V30 4 C -0.831372 -0.317778 0.791709 0
M  V30 5 C -0.432777 0.274884 -0.375917 0
M  V30 6 C -1.35446 0.452632 -1.38234 0
M  V30 7 C -2.65497 0.0541165 -1.24792 0
M  V30 8 C -3.04261 -0.541535 -0.0662279 0
M  V30 9 O -4.36201 -0.937638 0.0505172 0
M  V30 10 C -4.66609 -2.26645 -0.374937 0
M  V30 11 O -3.53754 0.256313 -2.28821 0
M  V30 12 C -3.07927 0.870893 -3.4707 0
M  V30 13 C 0.965021 0.714206 -0.564527 0
M  V30 14 C 1.20787 2.06355 0.00262412 0
M  V30 15 C 0.378571 3.09478 -0.357822 0
M  V30 16 C 0.538712 4.39717 0.135077 0
M  V30 17 C 1.55696 4.69028 1.01713 0
M  V30 18 C 2.39303 3.6577 1.38228 0
M  V30 19 C 2.22662 2.35996 0.885691 0
M  V30 20 O 3.09069 1.34366 1.27633 0
M  V30 21 C 2.93251 0.0489826 0.785967 0
M  V30 22 C 1.93955 -0.281718 -0.0865761 0
M  V30 23 C 1.83355 -1.58035 -0.537813 0
M  V30 24 N 0.817637 -1.96583 -1.44404 0
M  V30 25 C 2.73263 -2.56543 -0.111708 0
M  V30 26 C 3.7183 -2.18104 0.770473 0
M  V30 27 N 3.77989 -0.888342 1.18512 0
M  V30 28 N 4.65323 -3.16258 1.22578 0
M  V30 29 C 2.65272 -3.92386 -0.559424 0
M  V30 30 N 2.57886 -5.01597 -0.934435 0
M  V30 31 O 1.75443 5.9655 1.5318 0
M  V30 32 H -0.940356 -2.30587 2.92636 0
M  V30 33 H -1.17493 -0.633995 3.5003 0
M  V30 34 H -2.2577 -1.98205 4.07701 0
M  V30 35 H -0.129935 -0.466147 1.589 0
M  V30 36 H -1.00347 0.933281 -2.31181 0
M  V30 37 H -4.50776 -2.33922 -1.47301 0
M  V30 38 H -3.93921 -2.96062 0.1389 0
M  V30 39 H -5.69967 -2.52711 -0.111133 0
M  V30 40 H -2.70499 1.89222 -3.21615 0
M  V30 41 H -3.83405 0.909653 -4.26174 0
M  V30 42 H -2.18071 0.308029 -3.8559 0
M  V30 43 H 1.15081 0.820609 -1.67384 0
M  V30 44 H -0.433812 2.91758 -1.04775 0
M  V30 45 H -0.123567 5.2027 -0.157772 0
M  V30 46 H 3.19819 3.84573 2.06737 0
M  V30 47 H 0.835994 -1.58491 -2.40833 0
M  V30 48 H 0.0516757 -2.61976 -1.17459 0
M  V30 49 H 4.54779 -3.61192 2.16528 0
M  V30 50 H 5.45724 -3.43668 0.608881 0
M  V30 51 H 2.35314 6.66047 1.07452 0
M  V30 END ATOM
M  V30 BEGIN BOND
M  V30 1 1 1 2
M  V30 2 1 2 3
M  V30 3 2 3 4
M  V30 4 1 4 5
M  V30 5 2 5 6
M  V30 6 1 6 7
M  V30 7 2 7 8
M  V30 8 1 8 9
M  V30 9 1 9 10
M  V30 10 1 7 11
M  V30 11 1 11 12
M  V30 12 1 5 13
M  V30 13 1 13 14
M  V30 14 2 14 15
M  V30 15 1 15 16
M  V30 16 2 16 17
M  V30 17 1 17 18
M  V30 18 2 18 19
M  V30 19 1 19 20
M  V30 20 1 20 21
M  V30 21 2 21 22
M  V30 22 1 22 23
M  V30 23 1 23 24
M  V30 24 2 23 25
M  V30 25 1 25 26
M  V30 26 2 26 27
M  V30 27 1 26 28
M  V30 28 1 25 29
M  V30 29 3 29 30
M  V30 30 1 17 31
M  V30 31 1 8 3
M  V30 32 1 22 13
M  V30 33 1 19 14
M  V30 34 1 27 21
M  V30 35 1 1 32
M  V30 36 1 1 33
M  V30 37 1 1 34
M  V30 38 1 4 35
M  V30 39 1 6 36
M  V30 40 1 10 37
M  V30 41 1 10 38
M  V30 42 1 10 39
M  V30 43 1 12 40
M  V30 44 1 12 41
M  V30 45 1 12 42
M  V30 46 1 13 43
M  V30 47 1 15 44
M  V30 48 1 16 45
M  V30 49 1 18 46
M  V30 50 1 24 47
M  V30 51 1 24 48
M  V30 52 1 28 49
M  V30 53 1 28 50
M  V30 54 1 31 51
M  V30 END BOND
M  V30 END CTAB
M  END
