
     RDKit          3D

  0  0  0  0  0  0  0  0  0  0999 V3000
M  V30 BEGIN CTAB
M  V30 COUNTS 23 23 0 0 0
M  V30 BEGIN ATOM
M  V30 1 C -2.3498 -1.13609 -0.913781 0
M  V30 2 C -2.31619 0.356381 -0.694931 0
M  V30 3 C -1.60548 0.715769 0.590934 0
M  V30 4 N -0.221721 0.233609 0.561656 0
M  V30 5 N 0.232869 -0.939528 0.969094 0
M  V30 6 C 1.56303 -1.03941 0.791493 0
M  V30 7 N 2.40531 -2.15378 1.11105 0
M  V30 8 C 1.99205 0.147223 0.233258 0
M  V30 9 C 3.33529 0.519217 -0.140463 0
M  V30 10 N 4.41833 0.806693 -0.424708 0
M  V30 11 C 0.83445 0.908285 0.110746 0
M  V30 12 N 0.830068 2.2157 -0.425887 0
M  V30 13 H -3.32347 -1.45619 -1.38268 0
M  V30 14 H -2.28792 -1.70577 0.0331796 0
M  V30 15 H -1.55132 -1.48286 -1.60496 0
M  V30 16 H -1.91213 0.894732 -1.56553 0
M  V30 17 H -3.37197 0.68559 -0.58356 0
M  V30 18 H -2.17047 0.29829 1.44632 0
M  V30 19 H -1.55337 1.80841 0.732 0
M  V30 20 H 2.08509 -2.78679 1.86034 0
M  V30 21 H 3.30283 -2.3142 0.6052 0
M  V30 22 H 0.98165 2.34694 -1.44873 0
M  V30 23 H 0.682891 3.07779 0.139957 0
M  V30 END ATOM
M  V30 BEGIN BOND
M  V30 1 1 1 2
M  V30 2 1 2 3
M  V30 3 1 3 4
M  V30 4 1 4 5
M  V30 5 2 5 6
M  V30 6 1 6 7
M  V30 7 1 6 8
M  V30 8 1 8 9
M  V30 9 3 9 10
M  V30 10 2 8 11
M  V30 11 1 11 12
M  V30 12 1 11 4
M  V30 13 1 1 13
M  V30 14 1 1 14
M  V30 15 1 1 15
M  V30 16 1 2 16
M  V30 17 1 2 17
M  V30 18 1 3 18
M  V30 19 1 3 19
M  V30 20 1 7 20
M  V30 21 1 7 21
M  V30 22 1 12 22
M  V30 23 1 12 23
M  V30 END BOND
M  V30 END CTAB
M  END
