
     RDKit          3D

  0  0  0  0  0  0  0  0  0  0999 V3000
M  V30 BEGIN CTAB
M  V30 COUNTS 31 32 0 0 0
M  V30 BEGIN ATOM
M  V30 1 N -1.166 -2.25558 1.37323 0
M  V30 2 C -0.187604 -1.14993 0.989329 0
M  V30 3 C -1.06736 -0.00936677 0.802394 0
M  V30 4 C -0.651165 1.33339 0.407458 0
M  V30 5 C -2.02347 2.0692 0.435785 0
M  V30 6 C -3.04614 0.995528 0.148654 0
M  V30 7 C -2.20731 -0.210284 -0.214805 0
M  V30 8 C 0.623244 -1.7029 -0.0885106 0
M  V30 9 C 1.72769 -0.858504 -0.60371 0
M  V30 10 N 2.44739 -1.19697 -1.71121 0
M  V30 11 N 3.37789 -0.289512 -1.88915 0
M  V30 12 C 3.27416 0.625845 -0.921656 0
M  V30 13 N 2.25656 0.273281 -0.130552 0
M  V30 14 N 4.12202 1.77403 -0.784246 0
M  V30 15 H -0.547714 -2.95926 1.84657 0
M  V30 16 H -1.44819 -2.63232 0.445433 0
M  V30 17 H 0.404993 -1.03578 1.91373 0
M  V30 18 H -1.6814 0.142079 1.77038 0
M  V30 19 H -0.365541 1.44901 -0.665675 0
M  V30 20 H -0.0231667 1.86164 1.11982 0
M  V30 21 H -2.18666 2.51226 1.42712 0
M  V30 22 H -2.09619 2.81832 -0.35982 0
M  V30 23 H -3.57116 0.76118 1.10998 0
M  V30 24 H -3.75751 1.27975 -0.651895 0
M  V30 25 H -1.80724 -0.0229903 -1.22983 0
M  V30 26 H -2.72337 -1.15553 -0.0966773 0
M  V30 27 H 1.15039 -2.63637 0.289153 0
M  V30 28 H 0.0690627 -2.08517 -0.97233 0
M  V30 29 H 2.25154 -2.05329 -2.29414 0
M  V30 30 H 3.88416 2.64043 -1.27286 0
M  V30 31 H 4.96809 1.71781 -0.191957 0
M  V30 END ATOM
M  V30 BEGIN BOND
M  V30 1 1 1 2
M  V30 2 1 2 3
M  V30 3 1 3 4
M  V30 4 1 4 5
M  V30 5 1 5 6
M  V30 6 1 6 7
M  V30 7 1 2 8
M  V30 8 1 8 9
M  V30 9 1 9 10
M  V30 10 1 10 11
M  V30 11 2 11 12
M  V30 12 1 12 13
M  V30 13 1 12 14
M  V30 14 1 7 3
M  V30 15 2 13 9
M  V30 16 1 1 15
M  V30 17 1 1 16
M  V30 18 1 2 17
M  V30 19 1 3 18
M  V30 20 1 4 19
M  V30 21 1 4 20
M  V30 22 1 5 21
M  V30 23 1 5 22
M  V30 24 1 6 23
M  V30 25 1 6 24
M  V30 26 1 7 25
M  V30 27 1 7 26
M  V30 28 1 8 27
M  V30 29 1 8 28
M  V30 30 1 10 29
M  V30 31 1 14 30
M  V30 32 1 14 31
M  V30 END BOND
M  V30 END CTAB
M  END
