
     RDKit          3D

  0  0  0  0  0  0  0  0  0  0999 V3000
M  V30 BEGIN CTAB
M  V30 COUNTS 14 14 0 0 0
M  V30 BEGIN ATOM
M  V30 1 N -2.42349 -0.748159 0.025774 0
M  V30 2 C -1.22134 0.0109763 -0.00863957 0
M  V30 3 N -1.25038 1.36813 -0.0854829 0
M  V30 4 C -0.101696 2.05072 -0.115944 0
M  V30 5 N 1.11288 1.45098 -0.0735258 0
M  V30 6 C 1.21441 0.102673 0.00332811 0
M  V30 7 N 2.4725 -0.566285 0.0499822 0
M  V30 8 C 0.0249734 -0.589073 0.0340168 0
M  V30 9 Br 0.0837361 -2.49607 0.142127 0
M  V30 10 H -3.13779 -0.609715 0.741268 0
M  V30 11 H -2.56242 -1.4619 -0.708346 0
M  V30 12 H -0.088872 3.13068 -0.176849 0
M  V30 13 H 2.74945 -1.05112 0.936006 0
M  V30 14 H 3.12804 -0.591842 -0.763715 0
M  V30 END ATOM
M  V30 BEGIN BOND
M  V30 1 1 1 2
M  V30 2 2 2 3
M  V30 3 1 3 4
M  V30 4 2 4 5
M  V30 5 1 5 6
M  V30 6 1 6 7
M  V30 7 2 6 8
M  V30 8 1 8 9
M  V30 9 1 8 2
M  V30 10 1 1 10
M  V30 11 1 1 11
M  V30 12 1 4 12
M  V30 13 1 7 13
M  V30 14 1 7 14
M  V30 END BOND
M  V30 END CTAB
M  END
