
     RDKit          3D

  0  0  0  0  0  0  0  0  0  0999 V3000
M  V30 BEGIN CTAB
M  V30 COUNTS 34 35 0 0 0
M  V30 BEGIN ATOM
M  V30 1 N -5.68986 0.219931 0.462164 0
M  V30 2 C -4.28797 0.0327854 0.268877 0
M  V30 3 C -3.77252 -1.17916 -0.14031 0
M  V30 4 C -2.41349 -1.38135 -0.333811 0
M  V30 5 C -1.51517 -0.357331 -0.119292 0
M  V30 6 C -2.03568 0.851111 0.289357 0
M  V30 7 C -3.38746 1.05569 0.482851 0
M  V30 8 C -0.0732599 -0.584494 -0.328335 0
M  V30 9 C 0.622939 -0.247353 0.987053 0
M  V30 10 C 2.09455 -0.60881 0.757586 0
M  V30 11 N 2.57098 0.31531 -0.236093 0
M  V30 12 C 1.97748 0.0538837 -1.51047 0
M  V30 13 C 0.495002 0.330384 -1.40511 0
M  V30 14 S 4.27424 0.446741 -0.272779 0
M  V30 15 O 4.68442 1.44611 -1.28702 0
M  V30 16 O 4.95628 -0.886553 -0.459153 0
M  V30 17 N 4.7616 1.04544 1.2949 0
M  V30 18 H -6.08515 0.226348 1.43192 0
M  V30 19 H -6.34835 0.352506 -0.329069 0
M  V30 20 H -4.50118 -1.98227 -0.306165 0
M  V30 21 H -2.07521 -2.36968 -0.659436 0
M  V30 22 H -1.30298 1.65518 0.455116 0
M  V30 23 H -3.76874 2.02779 0.807901 0
M  V30 24 H 0.105791 -1.60874 -0.648883 0
M  V30 25 H 0.615067 0.854936 1.11068 0
M  V30 26 H 0.19144 -0.76001 1.84106 0
M  V30 27 H 2.59883 -0.464708 1.71763 0
M  V30 28 H 2.09499 -1.66437 0.406186 0
M  V30 29 H 2.09621 -1.00465 -1.84334 0
M  V30 30 H 2.43158 0.729303 -2.26875 0
M  V30 31 H -0.0434132 0.199785 -2.34843 0
M  V30 32 H 0.386141 1.39763 -1.09801 0
M  V30 33 H 4.6909 0.311024 2.02309 0
M  V30 34 H 5.652 1.54759 1.25806 0
M  V30 END ATOM
M  V30 BEGIN BOND
M  V30 1 1 1 2
M  V30 2 2 2 3
M  V30 3 1 3 4
M  V30 4 2 4 5
M  V30 5 1 5 6
M  V30 6 2 6 7
M  V30 7 1 5 8
M  V30 8 1 8 9
M  V30 9 1 9 10
M  V30 10 1 10 11
M  V30 11 1 11 12
M  V30 12 1 12 13
M  V30 13 1 11 14
M  V30 14 2 14 15
M  V30 15 2 14 16
M  V30 16 1 14 17
M  V30 17 1 7 2
M  V30 18 1 13 8
M  V30 19 1 1 18
M  V30 20 1 1 19
M  V30 21 1 3 20
M  V30 22 1 4 21
M  V30 23 1 6 22
M  V30 24 1 7 23
M  V30 25 1 8 24
M  V30 26 1 9 25
M  V30 27 1 9 26
M  V30 28 1 10 27
M  V30 29 1 10 28
M  V30 30 1 12 29
M  V30 31 1 12 30
M  V30 32 1 13 31
M  V30 33 1 13 32
M  V30 34 1 17 33
M  V30 35 1 17 34
M  V30 END BOND
M  V30 END CTAB
M  END
