
     RDKit          3D

  0  0  0  0  0  0  0  0  0  0999 V3000
M  V30 BEGIN CTAB
M  V30 COUNTS 66 69 0 0 0
M  V30 BEGIN ATOM
M  V30 1 C 0.497059 -2.86538 1.19162 0
M  V30 2 N -0.408313 -2.6925 0.0826143 0
M  V30 3 C -1.40184 -3.73243 -0.122642 0
M  V30 4 C -2.22159 -4.00547 1.08747 0
M  V30 5 C -2.68213 -5.45713 0.941518 0
M  V30 6 C -2.0787 -5.94954 -0.365811 0
M  V30 7 C -0.805429 -5.08534 -0.430603 0
M  V30 8 C -0.38833 -1.583 -0.788328 0
M  V30 9 O -1.21155 -1.55734 -1.74192 0
M  V30 10 C 0.565506 -0.483108 -0.59898 0 CFG=2
M  V30 11 C 0.327719 0.340243 0.654492 0
M  V30 12 C -0.992492 0.968786 0.677967 0
M  V30 13 C -1.20982 2.21527 0.139653 0
M  V30 14 C -2.4764 2.80522 0.171681 0
M  V30 15 C -3.52297 2.15163 0.739962 0
M  V30 16 C -3.32546 0.901452 1.2849 0
M  V30 17 C -2.05976 0.318621 1.24979 0
M  V30 18 C -4.86959 2.73967 0.791883 0
M  V30 19 N -5.11695 4.02029 0.241606 0
M  V30 20 N -5.84467 2.10079 1.33702 0
M  V30 21 N -7.13724 2.62526 1.40592 0
M  V30 22 N 0.430069 0.38068 -1.77153 0
M  V30 23 S 1.83472 0.454035 -2.73121 0
M  V30 24 O 1.49578 1.24412 -3.96773 0
M  V30 25 O 2.11789 -0.962173 -3.21668 0
M  V30 26 C 3.20828 1.09774 -1.89628 0
M  V30 27 C 3.49625 2.4412 -1.86317 0
M  V30 28 C 4.60356 2.94403 -1.19046 0
M  V30 29 C 5.43251 2.06549 -0.540071 0
M  V30 30 C 6.5476 2.5601 0.13882 0
M  V30 31 C 6.84947 3.90373 0.1812 0
M  V30 32 C 5.99384 4.76917 -0.485278 0
M  V30 33 C 4.89806 4.28195 -1.15228 0
M  V30 34 C 5.15402 0.721498 -0.566924 0
M  V30 35 C 4.053 0.236763 -1.23759 0
M  V30 36 H 1.47935 -2.36938 1.05656 0
M  V30 37 H 0.0564839 -2.45708 2.13175 0
M  V30 38 H 0.683921 -3.95861 1.3453 0
M  V30 39 H -2.05911 -3.47963 -0.987265 0
M  V30 40 H -3.11216 -3.3487 1.18178 0
M  V30 41 H -1.61283 -3.96042 2.01431 0
M  V30 42 H -3.77298 -5.56022 0.980629 0
M  V30 43 H -2.24704 -6.10577 1.73651 0
M  V30 44 H -1.83121 -7.01798 -0.336898 0
M  V30 45 H -2.77263 -5.6643 -1.18204 0
M  V30 46 H -0.360815 -5.1327 -1.44232 0
M  V30 47 H -0.157271 -5.46409 0.364219 0
M  V30 48 H 1.58746 -0.894581 -0.615885 0
M  V30 49 H 1.11931 1.15633 0.609806 0
M  V30 50 H 0.603382 -0.241929 1.54183 0
M  V30 51 H -0.432438 2.80075 -0.329775 0
M  V30 52 H -2.6264 3.78796 -0.257864 0
M  V30 53 H -4.13293 0.379757 1.73169 0
M  V30 54 H -1.97926 -0.661058 1.69776 0
M  V30 55 H -5.97361 4.56954 0.549507 0
M  V30 56 H -4.52651 4.49662 -0.457295 0
M  V30 57 H -7.92887 2.16013 0.930093 0
M  V30 58 H -7.30821 3.48668 1.93684 0
M  V30 59 H -0.43937 0.253288 -2.28893 0
M  V30 60 H 2.85095 3.13855 -2.37107 0
M  V30 61 H 7.18887 1.85987 0.644574 0
M  V30 62 H 7.72729 4.2597 0.719451 0
M  V30 63 H 6.22706 5.84451 -0.456839 0
M  V30 64 H 4.25581 4.97966 -1.65807 0
M  V30 65 H 5.83525 0.0709777 -0.0407781 0
M  V30 66 H 3.90639 -0.842216 -1.20907 0
M  V30 END ATOM
M  V30 BEGIN BOND
M  V30 1 1 1 2
M  V30 2 1 2 3
M  V30 3 1 3 4
M  V30 4 1 4 5
M  V30 5 1 5 6
M  V30 6 1 6 7
M  V30 7 1 2 8
M  V30 8 2 8 9
M  V30 9 1 8 10
M  V30 10 1 10 11
M  V30 11 1 11 12
M  V30 12 2 12 13
M  V30 13 1 13 14
M  V30 14 2 14 15
M  V30 15 1 15 16
M  V30 16 2 16 17
M  V30 17 1 15 18
M  V30 18 1 18 19
M  V30 19 2 18 20
M  V30 20 1 20 21
M  V30 21 1 10 22
M  V30 22 1 22 23
M  V30 23 2 23 24
M  V30 24 2 23 25
M  V30 25 1 23 26
M  V30 26 2 26 27
M  V30 27 1 27 28
M  V30 28 2 28 29
M  V30 29 1 29 30
M  V30 30 2 30 31
M  V30 31 1 31 32
M  V30 32 2 32 33
M  V30 33 1 29 34
M  V30 34 2 34 35
M  V30 35 1 7 3
M  V30 36 1 17 12
M  V30 37 1 35 26
M  V30 38 1 33 28
M  V30 39 1 1 36
M  V30 40 1 1 37
M  V30 41 1 1 38
M  V30 42 1 3 39
M  V30 43 1 4 40
M  V30 44 1 4 41
M  V30 45 1 5 42
M  V30 46 1 5 43
M  V30 47 1 6 44
M  V30 48 1 6 45
M  V30 49 1 7 46
M  V30 50 1 7 47
M  V30 51 1 10 48 CFG=1
M  V30 52 1 11 49
M  V30 53 1 11 50
M  V30 54 1 13 51
M  V30 55 1 14 52
M  V30 56 1 16 53
M  V30 57 1 17 54
M  V30 58 1 19 55
M  V30 59 1 19 56
M  V30 60 1 21 57
M  V30 61 1 21 58
M  V30 62 1 22 59
M  V30 63 1 27 60
M  V30 64 1 30 61
M  V30 65 1 31 62
M  V30 66 1 32 63
M  V30 67 1 33 64
M  V30 68 1 34 65
M  V30 69 1 35 66
M  V30 END BOND
M  V30 END CTAB
M  END
