
     RDKit          3D

  0  0  0  0  0  0  0  0  0  0999 V3000
M  V30 BEGIN CTAB
M  V30 COUNTS 19 18 0 0 0
M  V30 BEGIN ATOM
M  V30 1 C 2.5359 -0.946221 0.422071 0
M  V30 2 O 1.37856 -0.709757 -0.280117 0
M  V30 3 C 0.713209 0.435131 0.0751164 0
M  V30 4 C -0.531667 0.532626 -0.79828 0 CFG=1
M  V30 5 C -1.37742 -0.691709 -0.507472 0
M  V30 6 N -1.75517 -0.729169 0.909041 0
M  V30 7 N -1.29014 1.71684 -0.484351 0
M  V30 8 H 2.97659 -1.89233 0.0458139 0
M  V30 9 H 2.29516 -1.04723 1.51255 0
M  V30 10 H 3.30779 -0.166702 0.313041 0
M  V30 11 H 0.3645 0.356258 1.1225 0
M  V30 12 H 1.31325 1.3586 -0.0138833 0
M  V30 13 H -0.215687 0.472816 -1.84655 0
M  V30 14 H -2.28403 -0.712609 -1.1265 0
M  V30 15 H -0.795495 -1.61681 -0.731227 0
M  V30 16 H -2.73269 -1.10591 0.962963 0
M  V30 17 H -1.68188 0.250644 1.25875 0
M  V30 18 H -1.21746 2.39205 -1.26641 0
M  V30 19 H -1.00332 2.10349 0.432937 0
M  V30 END ATOM
M  V30 BEGIN BOND
M  V30 1 1 1 2
M  V30 2 1 2 3
M  V30 3 1 3 4
M  V30 4 1 4 5
M  V30 5 1 5 6
M  V30 6 1 4 7
M  V30 7 1 1 8
M  V30 8 1 1 9
M  V30 9 1 1 10
M  V30 10 1 3 11
M  V30 11 1 3 12
M  V30 12 1 4 13 CFG=3
M  V30 13 1 5 14
M  V30 14 1 5 15
M  V30 15 1 6 16
M  V30 16 1 6 17
M  V30 17 1 7 18
M  V30 18 1 7 19
M  V30 END BOND
M  V30 END CTAB
M  END
