
     RDKit          3D

  0  0  0  0  0  0  0  0  0  0999 V3000
M  V30 BEGIN CTAB
M  V30 COUNTS 25 25 0 0 0
M  V30 BEGIN ATOM
M  V30 1 C 3.90743 -0.341299 0.26664 0
M  V30 2 C 2.44818 0.0271246 0.311599 0
M  V30 3 C 1.67526 -0.58466 -0.846386 0
M  V30 4 C 0.250219 -0.131622 -0.665959 0
M  V30 5 C -0.645079 -0.876119 0.0738276 0
M  V30 6 C -1.95752 -0.487752 0.257573 0
M  V30 7 N -2.87193 -1.25919 1.01988 0
M  V30 8 C -2.34337 0.701343 -0.342715 0
M  V30 9 N -3.67682 1.14183 -0.183947 0
M  V30 10 C -1.44256 1.4399 -1.08065 0
M  V30 11 C -0.131996 1.05211 -1.26414 0
M  V30 12 H 4.32316 -0.373667 1.30317 0
M  V30 13 H 3.98296 -1.34076 -0.209257 0
M  V30 14 H 4.51386 0.345051 -0.354179 0
M  V30 15 H 2.38688 1.13295 0.297725 0
M  V30 16 H 2.00187 -0.316013 1.25269 0
M  V30 17 H 1.7415 -1.6707 -0.800523 0
M  V30 18 H 2.10299 -0.199294 -1.79435 0
M  V30 19 H -0.334519 -1.79811 0.535625 0
M  V30 20 H -3.27599 -2.15581 0.690015 0
M  V30 21 H -3.15491 -0.913788 1.95657 0
M  V30 22 H -3.99454 1.59695 0.677783 0
M  V30 23 H -4.34158 0.997356 -0.961355 0
M  V30 24 H -1.73469 2.37932 -1.55896 0
M  V30 25 H 0.57121 1.63485 -1.84398 0
M  V30 END ATOM
M  V30 BEGIN BOND
M  V30 1 1 1 2
M  V30 2 1 2 3
M  V30 3 1 3 4
M  V30 4 2 4 5
M  V30 5 1 5 6
M  V30 6 1 6 7
M  V30 7 2 6 8
M  V30 8 1 8 9
M  V30 9 1 8 10
M  V30 10 2 10 11
M  V30 11 1 11 4
M  V30 12 1 1 12
M  V30 13 1 1 13
M  V30 14 1 1 14
M  V30 15 1 2 15
M  V30 16 1 2 16
M  V30 17 1 3 17
M  V30 18 1 3 18
M  V30 19 1 5 19
M  V30 20 1 7 20
M  V30 21 1 7 21
M  V30 22 1 9 22
M  V30 23 1 9 23
M  V30 24 1 10 24
M  V30 25 1 11 25
M  V30 END BOND
M  V30 END CTAB
M  END
