
     RDKit          3D

  0  0  0  0  0  0  0  0  0  0999 V3000
M  V30 BEGIN CTAB
M  V30 COUNTS 21 21 0 0 0
M  V30 BEGIN ATOM
M  V30 1 N -3.53511 0.375623 -1.23861 0
M  V30 2 C -2.40999 0.265853 -0.332968 0
M  V30 3 N -2.55563 0.908812 0.762816 0
M  V30 4 N -1.29899 -0.511764 -0.718707 0
M  V30 5 S -0.209263 -1.24496 0.393634 0
M  V30 6 O -0.691486 -1.10013 1.80771 0
M  V30 7 O -0.19222 -2.71272 0.0438977 0
M  V30 8 C 1.38962 -0.563642 0.239489 0
M  V30 9 C 2.55167 -1.26876 -0.105837 0
M  V30 10 N 3.554 -0.378118 -0.114568 0
M  V30 11 N 3.09079 0.79715 0.195617 0
M  V30 12 C 1.74639 0.734207 0.425673 0
M  V30 13 N 0.959588 1.85859 0.786385 0
M  V30 14 H -4.00502 -0.48378 -1.56255 0
M  V30 15 H -3.79159 1.35037 -1.50201 0
M  V30 16 H -1.91665 0.989181 1.5519 0
M  V30 17 H -1.14754 -0.636554 -1.76889 0
M  V30 18 H 2.56577 -2.32772 -0.312671 0
M  V30 19 H 4.55349 -0.648169 -0.346712 0
M  V30 20 H 0.375385 1.90114 1.64666 0
M  V30 21 H 0.966787 2.69538 0.149739 0
M  V30 END ATOM
M  V30 BEGIN BOND
M  V30 1 1 1 2
M  V30 2 2 2 3 CFG=2
M  V30 3 1 2 4
M  V30 4 1 4 5
M  V30 5 2 5 6
M  V30 6 2 5 7
M  V30 7 1 5 8
M  V30 8 2 8 9
M  V30 9 1 9 10
M  V30 10 1 10 11
M  V30 11 2 11 12
M  V30 12 1 12 13
M  V30 13 1 12 8
M  V30 14 1 1 14
M  V30 15 1 1 15
M  V30 16 1 3 16
M  V30 17 1 4 17
M  V30 18 1 9 18
M  V30 19 1 10 19
M  V30 20 1 13 20
M  V30 21 1 13 21
M  V30 END BOND
M  V30 END CTAB
M  END
