
     RDKit          3D

  0  0  0  0  0  0  0  0  0  0999 V3000
M  V30 BEGIN CTAB
M  V30 COUNTS 22 22 0 0 0
M  V30 BEGIN ATOM
M  V30 1 O -3.43562 0.484492 -1.90586 0
M  V30 2 C -2.95856 0.222306 -0.608034 0
M  V30 3 O -3.46434 0.898618 0.316609 0
M  V30 4 C -1.92578 -0.76059 -0.273497 0
M  V30 5 C -0.575667 -0.192474 -0.139855 0
M  V30 6 C -0.21912 1.09997 -0.351481 0
M  V30 7 C 1.07386 1.5553 -0.256627 0
M  V30 8 Cl 1.43423 3.25406 -0.538241 0
M  V30 9 C 2.08242 0.659609 0.0757313 0
M  V30 10 C 1.76615 -0.651298 0.302325 0
M  V30 11 C 0.445502 -1.06921 0.193796 0
M  V30 12 N 0.157412 -2.43537 0.461936 0
M  V30 13 N 3.45355 1.10843 0.143163 0
M  V30 14 H -3.26517 1.43417 -2.23174 0
M  V30 15 H -2.18302 -1.14703 0.757689 0
M  V30 16 H -1.906 -1.599 -0.962615 0
M  V30 17 H -1.03057 1.79301 -0.62689 0
M  V30 18 H 2.57245 -1.33663 0.558667 0
M  V30 19 H -0.453086 -3.02693 -0.139851 0
M  V30 20 H 0.584667 -2.88382 1.30889 0
M  V30 21 H 3.5983 2.08129 0.4738 0
M  V30 22 H 4.2484 0.511106 -0.135887 0
M  V30 END ATOM
M  V30 BEGIN BOND
M  V30 1 1 1 2
M  V30 2 2 2 3
M  V30 3 1 2 4
M  V30 4 1 4 5
M  V30 5 2 5 6
M  V30 6 1 6 7
M  V30 7 1 7 8
M  V30 8 2 7 9
M  V30 9 1 9 10
M  V30 10 2 10 11
M  V30 11 1 11 12
M  V30 12 1 9 13
M  V30 13 1 11 5
M  V30 14 1 1 14
M  V30 15 1 4 15
M  V30 16 1 4 16
M  V30 17 1 6 17
M  V30 18 1 10 18
M  V30 19 1 12 19
M  V30 20 1 12 20
M  V30 21 1 13 21
M  V30 22 1 13 22
M  V30 END BOND
M  V30 END CTAB
M  END
