
     RDKit          3D

  0  0  0  0  0  0  0  0  0  0999 V3000
M  V30 BEGIN CTAB
M  V30 COUNTS 22 22 0 0 0
M  V30 BEGIN ATOM
M  V30 1 C -1.94209 0.128318 -1.3396 0
M  V30 2 C -1.35595 -0.552046 -0.146269 0
M  V30 3 N 0.0788254 -0.437616 -0.0522704 0
M  V30 4 N 1.01483 -1.37105 -0.0900818 0
M  V30 5 C 2.24698 -0.837195 0.0335628 0
M  V30 6 C 2.07088 0.539435 0.158835 0
M  V30 7 C 0.708804 0.746506 0.100588 0
M  V30 8 N 0.12643 2.033 0.193534 0
M  V30 9 N 3.46487 -1.54822 0.0339171 0
M  V30 10 C -2.05911 -0.205578 1.14568 0
M  V30 11 H -1.84099 -0.46619 -2.27636 0
M  V30 12 H -1.56646 1.12679 -1.54736 0
M  V30 13 H -3.0474 0.245101 -1.13691 0
M  V30 14 H -1.55602 -1.65729 -0.289898 0
M  V30 15 H 2.87042 1.2563 0.275502 0
M  V30 16 H -0.277763 2.44532 1.06028 0
M  V30 17 H 0.0980955 2.6165 -0.671177 0
M  V30 18 H 3.92964 -1.75459 0.929361 0
M  V30 19 H 3.87789 -1.85415 -0.858818 0
M  V30 20 H -3.10048 0.134897 0.920098 0
M  V30 21 H -2.20331 -1.11479 1.79988 0
M  V30 22 H -1.53808 0.526551 1.75752 0
M  V30 END ATOM
M  V30 BEGIN BOND
M  V30 1 1 1 2
M  V30 2 1 2 3
M  V30 3 1 3 4
M  V30 4 2 4 5
M  V30 5 1 5 6
M  V30 6 2 6 7
M  V30 7 1 7 8
M  V30 8 1 5 9
M  V30 9 1 2 10
M  V30 10 1 7 3
M  V30 11 1 1 11
M  V30 12 1 1 12
M  V30 13 1 1 13
M  V30 14 1 2 14
M  V30 15 1 6 15
M  V30 16 1 8 16
M  V30 17 1 8 17
M  V30 18 1 9 18
M  V30 19 1 9 19
M  V30 20 1 10 20
M  V30 21 1 10 21
M  V30 22 1 10 22
M  V30 END BOND
M  V30 END CTAB
M  END
