
     RDKit          3D

  0  0  0  0  0  0  0  0  0  0999 V3000
M  V30 BEGIN CTAB
M  V30 COUNTS 46 47 0 0 0
M  V30 BEGIN ATOM
M  V30 1 C 6.01994 0.0585344 -2.67896 0
M  V30 2 C 5.21126 0.571662 -1.4959 0
M  V30 3 C 5.03496 -0.523238 -0.461255 0
M  V30 4 C 4.23797 -0.0268641 0.720606 0
M  V30 5 C 2.87251 0.433451 0.330833 0
M  V30 6 C 2.05575 0.92885 1.48509 0
M  V30 7 C 1.82709 -0.108306 2.55503 0
M  V30 8 C 1.10853 -1.31678 2.04888 0
M  V30 9 O -0.162664 -1.03428 1.51774 0
M  V30 10 C -1.19642 -0.479626 2.24025 0
M  V30 11 O -1.08967 -0.181724 3.43548 0
M  V30 12 C -2.49103 -0.227578 1.56281 0
M  V30 13 S -3.91469 0.442655 2.22291 0
M  V30 14 C -4.91024 0.396215 0.842919 0
M  V30 15 C -4.10036 -0.145793 -0.107208 0
M  V30 16 C -2.83926 -0.472118 0.263961 0
M  V30 17 N -1.83894 -1.06055 -0.619903 0
M  V30 18 C -4.69179 -0.298614 -1.37469 0
M  V30 19 C -5.98463 0.0910513 -1.55807 0
M  V30 20 C -6.79065 0.638647 -0.583264 0
M  V30 21 N -6.20513 0.776658 0.624058 0
M  V30 22 N -8.12929 1.01686 -0.863433 0
M  V30 23 C -6.58928 -0.0707963 -2.87395 0
M  V30 24 N -7.059 -0.187235 -3.92271 0
M  V30 25 H 5.60052 -0.925553 -2.99226 0
M  V30 26 H 7.0838 -0.104766 -2.38247 0
M  V30 27 H 5.94052 0.733848 -3.53107 0
M  V30 28 H 4.25731 0.938217 -1.88681 0
M  V30 29 H 5.77572 1.42485 -1.07045 0
M  V30 30 H 4.51602 -1.38735 -0.94075 0
M  V30 31 H 6.03428 -0.843534 -0.100736 0
M  V30 32 H 4.81917 0.846156 1.138 0
M  V30 33 H 4.22372 -0.785584 1.5152 0
M  V30 34 H 2.38717 -0.351806 -0.257303 0
M  V30 35 H 2.98529 1.31956 -0.36013 0
M  V30 36 H 2.60759 1.76572 1.95967 0
M  V30 37 H 1.11008 1.35559 1.09548 0
M  V30 38 H 1.27406 0.375641 3.37988 0
M  V30 39 H 2.83906 -0.368994 2.94664 0
M  V30 40 H 1.67344 -1.83458 1.23481 0
M  V30 41 H 1.02202 -2.0361 2.90434 0
M  V30 42 H -1.98618 -2.06501 -0.833695 0
M  V30 43 H -1.05967 -0.524867 -0.995122 0
M  V30 44 H -4.16523 -0.714612 -2.21981 0
M  V30 45 H -8.40286 1.86205 -1.40198 0
M  V30 46 H -8.9108 0.417033 -0.512673 0
M  V30 END ATOM
M  V30 BEGIN BOND
M  V30 1 1 1 2
M  V30 2 1 2 3
M  V30 3 1 3 4
M  V30 4 1 4 5
M  V30 5 1 5 6
M  V30 6 1 6 7
M  V30 7 1 7 8
M  V30 8 1 8 9
M  V30 9 1 9 10
M  V30 10 2 10 11
M  V30 11 1 10 12
M  V30 12 1 12 13
M  V30 13 1 13 14
M  V30 14 2 14 15
M  V30 15 1 15 16
M  V30 16 1 16 17
M  V30 17 1 15 18
M  V30 18 2 18 19
M  V30 19 1 19 20
M  V30 20 2 20 21
M  V30 21 1 20 22
M  V30 22 1 19 23
M  V30 23 3 23 24
M  V30 24 2 16 12
M  V30 25 1 21 14
M  V30 26 1 1 25
M  V30 27 1 1 26
M  V30 28 1 1 27
M  V30 29 1 2 28
M  V30 30 1 2 29
M  V30 31 1 3 30
M  V30 32 1 3 31
M  V30 33 1 4 32
M  V30 34 1 4 33
M  V30 35 1 5 34
M  V30 36 1 5 35
M  V30 37 1 6 36
M  V30 38 1 6 37
M  V30 39 1 7 38
M  V30 40 1 7 39
M  V30 41 1 8 40
M  V30 42 1 8 41
M  V30 43 1 17 42
M  V30 44 1 17 43
M  V30 45 1 18 44
M  V30 46 1 22 45
M  V30 47 1 22 46
M  V30 END BOND
M  V30 END CTAB
M  END
