
     RDKit          3D

  0  0  0  0  0  0  0  0  0  0999 V3000
M  V30 BEGIN CTAB
M  V30 COUNTS 22 22 0 0 0
M  V30 BEGIN ATOM
M  V30 1 N -3.19172 0.633925 -1.0312 0
M  V30 2 N -2.72764 0.0291374 0.0494551 0
M  V30 3 C -1.60172 -0.167524 0.519261 0
M  V30 4 C -0.319825 0.241762 -0.00171246 0
M  V30 5 C 0.800763 -0.477648 0.477054 0
M  V30 6 C 2.05674 -0.339429 0.00375636 0
M  V30 7 N 3.12708 -1.13058 0.554766 0
M  V30 8 C 2.30575 0.551924 -1.01199 0
M  V30 9 C 1.25678 1.26111 -1.49458 0
M  V30 10 C -0.0480402 1.11274 -0.996292 0
M  V30 11 F -0.983865 1.96895 -1.52751 0
M  V30 12 C -1.59097 -0.917092 1.84613 0
M  V30 13 H -3.15413 0.290757 -2.04052 0
M  V30 14 H -3.69725 1.57245 -0.948841 0
M  V30 15 H 0.657315 -1.1975 1.27954 0
M  V30 16 H 3.38588 -2.06061 0.202269 0
M  V30 17 H 3.6639 -0.737206 1.35068 0
M  V30 18 H 3.32507 0.649707 -1.3824 0
M  V30 19 H 1.41668 1.98526 -2.30848 0
M  V30 20 H -1.34963 -1.96805 1.60097 0
M  V30 21 H -0.786204 -0.453316 2.49054 0
M  V30 22 H -2.54497 -0.848767 2.3691 0
M  V30 END ATOM
M  V30 BEGIN BOND
M  V30 1 1 1 2
M  V30 2 2 2 3
M  V30 3 1 3 4
M  V30 4 2 4 5
M  V30 5 1 5 6
M  V30 6 1 6 7
M  V30 7 2 6 8
M  V30 8 1 8 9
M  V30 9 2 9 10
M  V30 10 1 10 11
M  V30 11 1 3 12
M  V30 12 1 10 4
M  V30 13 1 1 13
M  V30 14 1 1 14
M  V30 15 1 5 15
M  V30 16 1 7 16
M  V30 17 1 7 17
M  V30 18 1 8 18
M  V30 19 1 9 19
M  V30 20 1 12 20
M  V30 21 1 12 21
M  V30 22 1 12 22
M  V30 END BOND
M  V30 END CTAB
M  END
