
     RDKit          3D

  0  0  0  0  0  0  0  0  0  0999 V3000
M  V30 BEGIN CTAB
M  V30 COUNTS 30 30 0 0 0
M  V30 BEGIN ATOM
M  V30 1 N 2.89939 2.7996 0.00880756 0
M  V30 2 C 2.69698 1.41572 -0.221221 0
M  V30 3 C 1.54854 0.979636 -0.850648 0
M  V30 4 C 1.26889 -0.335359 -1.11338 0
M  V30 5 S -0.206167 -0.830553 -1.91706 0
M  V30 6 C -1.5605 -1.36623 -0.901042 0
M  V30 7 C -2.23017 -0.372499 -0.0330436 0
M  V30 8 C -1.33303 0.229959 0.993783 0
M  V30 9 C -2.78934 0.799804 -0.848113 0
M  V30 10 C -3.4204 -0.994767 0.716753 0
M  V30 11 N 2.21739 -1.22693 -0.706883 0
M  V30 12 C 3.34246 -0.827022 -0.0927032 0
M  V30 13 N 3.60328 0.48595 0.160233 0
M  V30 14 N 4.33894 -1.74502 0.335919 0
M  V30 15 H 3.59087 3.32221 -0.541914 0
M  V30 16 H 2.35283 3.29829 0.735467 0
M  V30 17 H 0.839499 1.75416 -1.14499 0
M  V30 18 H -2.36404 -1.87504 -1.53479 0
M  V30 19 H -1.21263 -2.24043 -0.246522 0
M  V30 20 H -1.03272 1.2661 0.76541 0
M  V30 21 H -1.7936 0.173371 2.02225 0
M  V30 22 H -0.414321 -0.380825 1.08099 0
M  V30 23 H -3.342 0.451468 -1.72181 0
M  V30 24 H -1.96195 1.48866 -1.12854 0
M  V30 25 H -3.44232 1.35708 -0.12857 0
M  V30 26 H -3.01983 -1.73753 1.41249 0
M  V30 27 H -4.04393 -1.49762 -0.0369019 0
M  V30 28 H -3.94841 -0.220668 1.28122 0
M  V30 29 H 4.55553 -1.89547 1.34438 0
M  V30 30 H 4.86077 -2.27606 -0.38867 0
M  V30 END ATOM
M  V30 BEGIN BOND
M  V30 1 1 1 2
M  V30 2 2 2 3
M  V30 3 1 3 4
M  V30 4 1 4 5
M  V30 5 1 5 6
M  V30 6 1 6 7
M  V30 7 1 7 8
M  V30 8 1 7 9
M  V30 9 1 7 10
M  V30 10 2 4 11
M  V30 11 1 11 12
M  V30 12 2 12 13
M  V30 13 1 12 14
M  V30 14 1 13 2
M  V30 15 1 1 15
M  V30 16 1 1 16
M  V30 17 1 3 17
M  V30 18 1 6 18
M  V30 19 1 6 19
M  V30 20 1 8 20
M  V30 21 1 8 21
M  V30 22 1 8 22
M  V30 23 1 9 23
M  V30 24 1 9 24
M  V30 25 1 9 25
M  V30 26 1 10 26
M  V30 27 1 10 27
M  V30 28 1 10 28
M  V30 29 1 14 29
M  V30 30 1 14 30
M  V30 END BOND
M  V30 END CTAB
M  END
