
     RDKit          3D

  0  0  0  0  0  0  0  0  0  0999 V3000
M  V30 BEGIN CTAB
M  V30 COUNTS 21 21 0 0 0
M  V30 BEGIN ATOM
M  V30 1 C -3.05795 0.643962 0.187356 0
M  V30 2 C -1.5668 0.818168 0.217641 0
M  V30 3 C -0.932359 -0.488309 -0.25486 0 CFG=1
M  V30 4 C 0.549782 -0.377913 -0.246824 0
M  V30 5 N 1.38255 -1.43538 -0.319846 0
M  V30 6 N 2.64284 -0.999789 -0.289353 0
M  V30 7 C 2.61252 0.339429 -0.196608 0
M  V30 8 N 1.32793 0.713696 -0.171018 0
M  V30 9 N 3.76238 1.15956 -0.139473 0
M  V30 10 N -1.2797 -1.56292 0.653802 0
M  V30 11 H -3.35245 -0.270155 -0.369811 0
M  V30 12 H -3.44854 0.582514 1.21615 0
M  V30 13 H -3.55647 1.4902 -0.35388 0
M  V30 14 H -1.23517 1.04895 1.25996 0
M  V30 15 H -1.20833 1.6139 -0.45071 0
M  V30 16 H -1.2708 -0.682187 -1.277 0
M  V30 17 H 3.49744 -1.58147 -0.329452 0
M  V30 18 H 3.72178 2.15491 -0.499507 0
M  V30 19 H 4.66595 0.854371 0.237387 0
M  V30 20 H -0.96027 -2.44936 0.217985 0
M  V30 21 H -2.29433 -1.57218 0.893027 0
M  V30 END ATOM
M  V30 BEGIN BOND
M  V30 1 1 1 2
M  V30 2 1 2 3
M  V30 3 1 3 4
M  V30 4 2 4 5
M  V30 5 1 5 6
M  V30 6 1 6 7
M  V30 7 2 7 8
M  V30 8 1 7 9
M  V30 9 1 3 10
M  V30 10 1 8 4
M  V30 11 1 1 11
M  V30 12 1 1 12
M  V30 13 1 1 13
M  V30 14 1 2 14
M  V30 15 1 2 15
M  V30 16 1 3 16 CFG=3
M  V30 17 1 6 17
M  V30 18 1 9 18
M  V30 19 1 9 19
M  V30 20 1 10 20
M  V30 21 1 10 21
M  V30 END BOND
M  V30 END CTAB
M  END
