
     RDKit          3D

  0  0  0  0  0  0  0  0  0  0999 V3000
M  V30 BEGIN CTAB
M  V30 COUNTS 42 44 0 0 0
M  V30 BEGIN ATOM
M  V30 1 N 5.22597 -2.95124 -2.45613 0
M  V30 2 C 4.59953 -2.22948 -1.4088 0
M  V30 3 N 3.31331 -2.39149 -1.03432 0
M  V30 4 C 2.74766 -1.69455 -0.036595 0
M  V30 5 C 1.3432 -1.91446 0.330105 0
M  V30 6 O 0.592203 -0.739365 0.486238 0
M  V30 7 C 0.370205 0.206988 -0.49391 0
M  V30 8 O 0.90974 -0.0546984 -1.61239 0
M  V30 9 C -0.39515 1.43582 -0.359467 0
M  V30 10 C -0.00323418 2.47082 -1.23663 0
M  V30 11 C -0.545045 3.72491 -1.16808 0
M  V30 12 C -1.50522 3.98084 -0.207895 0
M  V30 13 C -1.89747 3.00035 0.643455 0
M  V30 14 C -1.3464 1.71828 0.572745 0
M  V30 15 C -1.90274 0.657044 1.44701 0
M  V30 16 C -3.0631 -0.0554494 0.874013 0
M  V30 17 C -4.33368 0.496444 1.02518 0
M  V30 18 C -5.42222 -0.141661 0.521594 0
M  V30 19 C -5.2993 -1.35533 -0.154015 0
M  V30 20 C -4.05342 -1.91281 -0.31132 0
M  V30 21 C -2.94172 -1.23196 0.219491 0
M  V30 22 N 3.49375 -0.792282 0.621885 0
M  V30 23 C 4.78205 -0.591069 0.288876 0
M  V30 24 N 5.31173 -1.30815 -0.715158 0
M  V30 25 N 5.58351 0.352999 0.969993 0
M  V30 26 H 5.13768 -3.97853 -2.61216 0
M  V30 27 H 5.82983 -2.4248 -3.13536 0
M  V30 28 H 1.27691 -2.44862 1.32205 0
M  V30 29 H 0.821018 -2.59621 -0.405037 0
M  V30 30 H 0.765021 2.25226 -1.99829 0
M  V30 31 H -0.22317 4.51685 -1.86441 0
M  V30 32 H -1.93709 4.98537 -0.15145 0
M  V30 33 H -2.65529 3.15526 1.41833 0
M  V30 34 H -1.16017 -0.0415703 1.77844 0
M  V30 35 H -2.31458 1.21576 2.35453 0
M  V30 36 H -4.436 1.43774 1.55073 0
M  V30 37 H -6.44259 0.274094 0.629395 0
M  V30 38 H -6.14737 -1.88823 -0.566261 0
M  V30 39 H -3.89385 -2.85404 -0.826524 0
M  V30 40 H -1.98039 -1.74723 0.0583241 0
M  V30 41 H 6.57491 0.156188 1.26856 0
M  V30 42 H 5.22096 1.30522 1.21174 0
M  V30 END ATOM
M  V30 BEGIN BOND
M  V30 1 1 1 2
M  V30 2 2 2 3
M  V30 3 1 3 4
M  V30 4 1 4 5
M  V30 5 1 5 6
M  V30 6 1 6 7
M  V30 7 2 7 8
M  V30 8 1 7 9
M  V30 9 2 9 10
M  V30 10 1 10 11
M  V30 11 2 11 12
M  V30 12 1 12 13
M  V30 13 2 13 14
M  V30 14 1 14 15
M  V30 15 1 15 16
M  V30 16 2 16 17
M  V30 17 1 17 18
M  V30 18 2 18 19
M  V30 19 1 19 20
M  V30 20 2 20 21
M  V30 21 2 4 22
M  V30 22 1 22 23
M  V30 23 2 23 24
M  V30 24 1 23 25
M  V30 25 1 24 2
M  V30 26 1 14 9
M  V30 27 1 21 16
M  V30 28 1 1 26
M  V30 29 1 1 27
M  V30 30 1 5 28
M  V30 31 1 5 29
M  V30 32 1 10 30
M  V30 33 1 11 31
M  V30 34 1 12 32
M  V30 35 1 13 33
M  V30 36 1 15 34
M  V30 37 1 15 35
M  V30 38 1 17 36
M  V30 39 1 18 37
M  V30 40 1 19 38
M  V30 41 1 20 39
M  V30 42 1 21 40
M  V30 43 1 25 41
M  V30 44 1 25 42
M  V30 END BOND
M  V30 END CTAB
M  END
