
     RDKit          3D

  0  0  0  0  0  0  0  0  0  0999 V3000
M  V30 BEGIN CTAB
M  V30 COUNTS 38 40 0 0 0
M  V30 BEGIN ATOM
M  V30 1 N -6.11762 2.46612 -0.811665 0
M  V30 2 C -5.523 1.20361 -0.521123 0
M  V30 3 N -4.39355 0.860339 -1.15396 0
M  V30 4 C -3.82284 -0.31911 -0.89372 0
M  V30 5 C -2.57793 -0.741952 -1.56538 0
M  V30 6 O -1.42276 -0.337246 -0.832642 0
M  V30 7 C -0.187639 -0.665523 -1.34382 0
M  V30 8 O -0.110563 -1.29761 -2.41621 0
M  V30 9 C 1.01635 -0.277573 -0.63771 0
M  V30 10 N 2.30758 -0.515909 -0.993745 0
M  V30 11 N 3.13711 -0.00848191 -0.0986905 0
M  V30 12 N 2.38583 0.555013 0.831213 0
M  V30 13 C 1.07881 0.421495 0.554008 0
M  V30 14 C -0.0948702 0.91412 1.34718 0
M  V30 15 C 4.56618 -0.0769481 -0.16044 0
M  V30 16 C 5.27469 -0.432074 0.967465 0
M  V30 17 C 6.66291 -0.503147 0.923909 0
M  V30 18 C 7.37463 -0.227921 -0.222624 0
M  V30 19 C 6.66384 0.127198 -1.35001 0
M  V30 20 C 5.26832 0.200656 -1.31348 0
M  V30 21 N -4.38806 -1.14221 -0.00342662 0
M  V30 22 C -5.51767 -0.84036 0.653406 0
M  V30 23 N -6.07081 0.365671 0.364918 0
M  V30 24 N -6.12945 -1.70249 1.60045 0
M  V30 25 H -7.15181 2.56325 -0.704797 0
M  V30 26 H -5.58542 3.29646 -1.12346 0
M  V30 27 H -2.50211 -0.272641 -2.58015 0
M  V30 28 H -2.58747 -1.84888 -1.63339 0
M  V30 29 H -0.65955 0.0802658 1.79454 0
M  V30 30 H 0.287253 1.56228 2.16273 0
M  V30 31 H -0.729355 1.55977 0.697363 0
M  V30 32 H 4.71575 -0.649387 1.87209 0
M  V30 33 H 7.19911 -0.780755 1.80942 0
M  V30 34 H 8.45833 -0.278736 -0.273489 0
M  V30 35 H 7.20218 0.346674 -2.25799 0
M  V30 36 H 4.7192 0.478744 -2.19793 0
M  V30 37 H -5.88312 -1.68768 2.61775 0
M  V30 38 H -6.86246 -2.39504 1.30254 0
M  V30 END ATOM
M  V30 BEGIN BOND
M  V30 1 1 1 2
M  V30 2 2 2 3
M  V30 3 1 3 4
M  V30 4 1 4 5
M  V30 5 1 5 6
M  V30 6 1 6 7
M  V30 7 2 7 8
M  V30 8 1 7 9
M  V30 9 2 9 10
M  V30 10 1 10 11
M  V30 11 1 11 12
M  V30 12 2 12 13
M  V30 13 1 13 14
M  V30 14 1 11 15
M  V30 15 2 15 16
M  V30 16 1 16 17
M  V30 17 2 17 18
M  V30 18 1 18 19
M  V30 19 2 19 20
M  V30 20 2 4 21
M  V30 21 1 21 22
M  V30 22 2 22 23
M  V30 23 1 22 24
M  V30 24 1 23 2
M  V30 25 1 13 9
M  V30 26 1 20 15
M  V30 27 1 1 25
M  V30 28 1 1 26
M  V30 29 1 5 27
M  V30 30 1 5 28
M  V30 31 1 14 29
M  V30 32 1 14 30
M  V30 33 1 14 31
M  V30 34 1 16 32
M  V30 35 1 17 33
M  V30 36 1 18 34
M  V30 37 1 19 35
M  V30 38 1 20 36
M  V30 39 1 24 37
M  V30 40 1 24 38
M  V30 END BOND
M  V30 END CTAB
M  END
