
     RDKit          3D

  0  0  0  0  0  0  0  0  0  0999 V3000
M  V30 BEGIN CTAB
M  V30 COUNTS 31 32 0 0 0
M  V30 BEGIN ATOM
M  V30 1 N 4.63611 2.02034 1.20356 0
M  V30 2 C 3.97465 0.975311 0.526932 0
M  V30 3 N 2.67646 1.04633 0.183427 0
M  V30 4 C 2.04227 0.0331159 -0.470503 0
M  V30 5 C 0.621532 0.106458 -0.848467 0
M  V30 6 S -0.354786 -0.577365 0.543295 0
M  V30 7 C -2.09907 -0.473879 0.0490518 0
M  V30 8 C -3.02278 -1.00972 1.11572 0
M  V30 9 C -4.4422 -0.614231 0.6885 0
M  V30 10 O -4.58113 0.778182 0.709051 0
M  V30 11 C -3.84191 1.28972 -0.347312 0
M  V30 12 C -2.38509 0.973003 -0.276728 0
M  V30 13 N 2.73886 -1.06878 -0.779682 0
M  V30 14 C 4.03049 -1.16745 -0.450907 0
M  V30 15 N 4.62827 -0.15071 0.194102 0
M  V30 16 N 4.72107 -2.36064 -0.804153 0
M  V30 17 H 4.304 3.01004 1.20754 0
M  V30 18 H 5.51122 1.8347 1.74282 0
M  V30 19 H 0.439806 -0.556446 -1.71538 0
M  V30 20 H 0.279412 1.11279 -1.12493 0
M  V30 21 H -2.22538 -1.11208 -0.848305 0
M  V30 22 H -3.00114 -2.11837 1.0785 0
M  V30 23 H -2.79511 -0.635433 2.12294 0
M  V30 24 H -5.20869 -1.11419 1.28678 0
M  V30 25 H -4.49 -0.894181 -0.403698 0
M  V30 26 H -4.2948 1.04832 -1.344 0
M  V30 27 H -3.93551 2.41261 -0.270098 0
M  V30 28 H -1.94424 1.60863 0.541438 0
M  V30 29 H -1.93317 1.19531 -1.26191 0
M  V30 30 H 5.39951 -2.74444 -0.130421 0
M  V30 31 H 4.55134 -2.84695 -1.72662 0
M  V30 END ATOM
M  V30 BEGIN BOND
M  V30 1 1 1 2
M  V30 2 2 2 3
M  V30 3 1 3 4
M  V30 4 1 4 5
M  V30 5 1 5 6
M  V30 6 1 6 7
M  V30 7 1 7 8
M  V30 8 1 8 9
M  V30 9 1 9 10
M  V30 10 1 10 11
M  V30 11 1 11 12
M  V30 12 2 4 13
M  V30 13 1 13 14
M  V30 14 2 14 15
M  V30 15 1 14 16
M  V30 16 1 15 2
M  V30 17 1 12 7
M  V30 18 1 1 17
M  V30 19 1 1 18
M  V30 20 1 5 19
M  V30 21 1 5 20
M  V30 22 1 7 21
M  V30 23 1 8 22
M  V30 24 1 8 23
M  V30 25 1 9 24
M  V30 26 1 9 25
M  V30 27 1 11 26
M  V30 28 1 11 27
M  V30 29 1 12 28
M  V30 30 1 12 29
M  V30 31 1 16 30
M  V30 32 1 16 31
M  V30 END BOND
M  V30 END CTAB
M  END
