
     RDKit          3D

  0  0  0  0  0  0  0  0  0  0999 V3000
M  V30 BEGIN CTAB
M  V30 COUNTS 45 48 0 0 0
M  V30 BEGIN ATOM
M  V30 1 N -7.18174 1.87956 0.0265003 0
M  V30 2 C -6.85539 0.465704 -0.00383964 0
M  V30 3 C -5.77285 0.154298 1.03983 0
M  V30 4 C -4.77252 0.675711 0.00306428 0
M  V30 5 C -5.76919 0.204429 -1.0557 0
M  V30 6 C -3.48489 -0.0527453 -0.0119231 0
M  V30 7 C -2.32616 0.68987 0.0785944 0
M  V30 8 C -1.08275 0.104474 0.0729106 0
M  V30 9 N 0.119311 0.877852 0.167001 0
M  V30 10 C 1.42682 0.271225 0.161729 0
M  V30 11 C 2.46897 1.33824 0.27248 0
M  V30 12 C 3.8505 0.783285 0.273855 0
M  V30 13 N 4.58925 0.395442 1.3321 0
M  V30 14 C 5.79632 -0.0540427 0.922285 0
M  V30 15 C 5.81782 0.0547881 -0.441593 0
M  V30 16 N 4.62889 0.563708 -0.806375 0
M  V30 17 C 6.95711 -0.344085 -1.12297 0
M  V30 18 C 8.07114 -0.84698 -0.4788 0
M  V30 19 C 8.04043 -0.95314 0.896978 0
M  V30 20 C 6.89811 -0.55378 1.58684 0
M  V30 21 F 9.18594 -1.23694 -1.14962 0
M  V30 22 N -1.00921 -1.22811 -0.0239689 0
M  V30 23 C -2.13529 -1.95514 -0.112333 0
M  V30 24 N -3.36743 -1.36474 -0.105935 0
M  V30 25 N -2.03468 -3.36898 -0.214442 0
M  V30 26 H -6.78685 2.38294 -0.810232 0
M  V30 27 H -8.20476 2.04861 0.0634118 0
M  V30 28 H -7.69185 -0.229651 -0.0206263 0
M  V30 29 H -5.85989 0.785382 1.93024 0
M  V30 30 H -5.72519 -0.929473 1.21631 0
M  V30 31 H -4.68752 1.75586 0.0861426 0
M  V30 32 H -5.77703 0.882201 -1.90674 0
M  V30 33 H -5.68188 -0.875222 -1.25469 0
M  V30 34 H -2.3848 1.78057 0.157934 0
M  V30 35 H 0.0458739 1.90767 0.241308 0
M  V30 36 H 1.50557 -0.293922 -0.794715 0
M  V30 37 H 1.53719 -0.487751 0.973112 0
M  V30 38 H 2.34013 2.00975 -0.622511 0
M  V30 39 H 2.29568 1.99338 1.14835 0
M  V30 40 H 4.35376 0.758901 -1.78978 0
M  V30 41 H 6.95929 -0.252878 -2.19216 0
M  V30 42 H 8.8741 -1.33768 1.47423 0
M  V30 43 H 6.82895 -0.619581 2.67334 0
M  V30 44 H -1.883 -3.97154 0.611334 0
M  V30 45 H -2.11627 -3.80746 -1.14717 0
M  V30 END ATOM
M  V30 BEGIN BOND
M  V30 1 1 1 2
M  V30 2 1 2 3
M  V30 3 1 3 4
M  V30 4 1 4 5
M  V30 5 1 4 6
M  V30 6 2 6 7
M  V30 7 1 7 8
M  V30 8 1 8 9
M  V30 9 1 9 10
M  V30 10 1 10 11
M  V30 11 1 11 12
M  V30 12 2 12 13
M  V30 13 1 13 14
M  V30 14 2 14 15
M  V30 15 1 15 16
M  V30 16 1 15 17
M  V30 17 2 17 18
M  V30 18 1 18 19
M  V30 19 2 19 20
M  V30 20 1 18 21
M  V30 21 2 8 22
M  V30 22 1 22 23
M  V30 23 2 23 24
M  V30 24 1 23 25
M  V30 25 1 5 2
M  V30 26 1 24 6
M  V30 27 1 16 12
M  V30 28 1 20 14
M  V30 29 1 1 26
M  V30 30 1 1 27
M  V30 31 1 2 28
M  V30 32 1 3 29
M  V30 33 1 3 30
M  V30 34 1 4 31
M  V30 35 1 5 32
M  V30 36 1 5 33
M  V30 37 1 7 34
M  V30 38 1 9 35
M  V30 39 1 10 36
M  V30 40 1 10 37
M  V30 41 1 11 38
M  V30 42 1 11 39
M  V30 43 1 16 40
M  V30 44 1 17 41
M  V30 45 1 19 42
M  V30 46 1 20 43
M  V30 47 1 25 44
M  V30 48 1 25 45
M  V30 END BOND
M  V30 END CTAB
M  END
