
     RDKit          3D

  0  0  0  0  0  0  0  0  0  0999 V3000
M  V30 BEGIN CTAB
M  V30 COUNTS 34 36 0 0 0
M  V30 BEGIN ATOM
M  V30 1 N -6.75654 0.601342 0.0399529 0
M  V30 2 C -5.38554 0.316205 -0.0942431 0
M  V30 3 C -4.60408 1.12344 -0.891802 0
M  V30 4 C -3.26191 0.851329 -1.0284 0
M  V30 5 C -2.63529 -0.203961 -0.401957 0
M  V30 6 C -3.43196 -1.00311 0.393435 0
M  V30 7 C -4.77175 -0.749122 0.542896 0
M  V30 8 C -1.18002 -0.452349 -0.584721 0
M  V30 9 C -0.440047 0.310568 0.488606 0
M  V30 10 C 1.02718 0.121229 0.384523 0
M  V30 11 O 1.73581 -0.810158 0.964162 0
M  V30 12 C 3.00919 -0.694589 0.663929 0
M  V30 13 C 3.11827 0.399316 -0.174733 0
M  V30 14 N 1.88378 0.87845 -0.327014 0
M  V30 15 C 4.37571 0.76075 -0.656681 0
M  V30 16 C 5.51621 0.0708202 -0.330552 0
M  V30 17 C 5.41576 -1.01657 0.501774 0
M  V30 18 C 4.16376 -1.36564 0.973537 0
M  V30 19 N 6.77139 0.476511 -0.845322 0
M  V30 20 H -7.46041 0.0944929 -0.525439 0
M  V30 21 H -7.09107 1.32331 0.70616 0
M  V30 22 H -5.07494 1.95952 -1.39458 0
M  V30 23 H -2.62216 1.4821 -1.65896 0
M  V30 24 H -2.93629 -1.84654 0.895412 0
M  V30 25 H -5.39397 -1.36925 1.16112 0
M  V30 26 H -0.841516 -0.22457 -1.59247 0
M  V30 27 H -1.01626 -1.54356 -0.422266 0
M  V30 28 H -0.832521 0.0356119 1.48668 0
M  V30 29 H -0.668997 1.40819 0.364871 0
M  V30 30 H 4.45527 1.62604 -1.31893 0
M  V30 31 H 6.30727 -1.59579 0.786641 0
M  V30 32 H 4.09391 -2.22256 1.6279 0
M  V30 33 H 7.50431 0.972828 -0.291786 0
M  V30 34 H 7.02745 0.285718 -1.85094 0
M  V30 END ATOM
M  V30 BEGIN BOND
M  V30 1 1 1 2
M  V30 2 2 2 3
M  V30 3 1 3 4
M  V30 4 2 4 5
M  V30 5 1 5 6
M  V30 6 2 6 7
M  V30 7 1 5 8
M  V30 8 1 8 9
M  V30 9 1 9 10
M  V30 10 1 10 11
M  V30 11 1 11 12
M  V30 12 2 12 13
M  V30 13 1 13 14
M  V30 14 1 13 15
M  V30 15 2 15 16
M  V30 16 1 16 17
M  V30 17 2 17 18
M  V30 18 1 16 19
M  V30 19 1 7 2
M  V30 20 2 14 10
M  V30 21 1 18 12
M  V30 22 1 1 20
M  V30 23 1 1 21
M  V30 24 1 3 22
M  V30 25 1 4 23
M  V30 26 1 6 24
M  V30 27 1 7 25
M  V30 28 1 8 26
M  V30 29 1 8 27
M  V30 30 1 9 28
M  V30 31 1 9 29
M  V30 32 1 15 30
M  V30 33 1 17 31
M  V30 34 1 18 32
M  V30 35 1 19 33
M  V30 36 1 19 34
M  V30 END BOND
M  V30 END CTAB
M  END
