
     RDKit          3D

  0  0  0  0  0  0  0  0  0  0999 V3000
M  V30 BEGIN CTAB
M  V30 COUNTS 17 17 0 0 0
M  V30 BEGIN ATOM
M  V30 1 O 3.77732 0.405234 -0.718942 0 CHG=-1
M  V30 2 N 2.8602 -0.369364 -0.0140221 0 CHG=1
M  V30 3 O 3.32163 -1.34455 0.599765 0
M  V30 4 C 1.49749 0.00234574 -0.0344549 0
M  V30 5 C 0.501454 -0.967974 0.107219 0
M  V30 6 C -0.817456 -0.564335 0.0900126 0
M  V30 7 N -1.82199 -1.55535 0.232152 0
M  V30 8 C -1.07482 0.774023 -0.0663539 0
M  V30 9 N -0.0899907 1.6991 -0.202701 0
M  V30 10 C 1.19915 1.34519 -0.19043 0
M  V30 11 Cl 2.50171 2.52252 -0.370726 0
M  V30 12 N -2.42906 1.22308 -0.0850702 0
M  V30 13 H 0.793906 -2.02765 0.228459 0
M  V30 14 H -1.70334 -2.23595 1.0344 0
M  V30 15 H -2.63808 -1.65409 -0.38116 0
M  V30 16 H -3.06345 0.816394 -0.796308 0
M  V30 17 H -2.81468 1.93139 0.568164 0
M  V30 END ATOM
M  V30 BEGIN BOND
M  V30 1 1 1 2
M  V30 2 2 2 3
M  V30 3 1 2 4
M  V30 4 2 4 5
M  V30 5 1 5 6
M  V30 6 1 6 7
M  V30 7 2 6 8
M  V30 8 1 8 9
M  V30 9 2 9 10
M  V30 10 1 10 11
M  V30 11 1 8 12
M  V30 12 1 10 4
M  V30 13 1 5 13
M  V30 14 1 7 14
M  V30 15 1 7 15
M  V30 16 1 12 16
M  V30 17 1 12 17
M  V30 END BOND
M  V30 END CTAB
M  END
