
     RDKit          3D

  0  0  0  0  0  0  0  0  0  0999 V3000
M  V30 BEGIN CTAB
M  V30 COUNTS 23 24 0 0 0
M  V30 BEGIN ATOM
M  V30 1 N 1.23401 -1.26471 0.448187 0
M  V30 2 N 1.57602 0.0314408 0.0790689 0
M  V30 3 C 2.84914 0.458308 -0.108494 0
M  V30 4 N 4.02556 -0.332203 0.0383138 0
M  V30 5 N 2.74476 1.7447 -0.450101 0
M  V30 6 N 1.46549 2.10029 -0.473568 0
M  V30 7 C 0.717279 1.03154 -0.142365 0
M  V30 8 C -0.740256 1.03932 -0.061281 0
M  V30 9 C -1.41428 0.00626654 -0.935601 0
M  V30 10 C -2.83879 -0.0560545 -0.453451 0
M  V30 11 C -2.79509 -0.484147 0.996751 0
M  V30 12 S -1.34863 0.48689 1.58316 0
M  V30 13 H 1.85125 -2.08579 0.17951 0
M  V30 14 H 0.382662 -1.52003 0.993329 0
M  V30 15 H 4.38355 -0.473743 1.00387 0
M  V30 16 H 4.52402 -0.761666 -0.778487 0
M  V30 17 H -1.19197 2.01997 -0.309813 0
M  V30 18 H -1.44743 0.413911 -1.97008 0
M  V30 19 H -0.925049 -0.963935 -0.948965 0
M  V30 20 H -3.43691 -0.716068 -1.07277 0
M  V30 21 H -3.24108 0.984701 -0.483204 0
M  V30 22 H -3.73391 -0.101441 1.46315 0
M  V30 23 H -2.64034 -1.55754 1.12837 0
M  V30 END ATOM
M  V30 BEGIN BOND
M  V30 1 1 1 2
M  V30 2 1 2 3
M  V30 3 1 3 4
M  V30 4 2 3 5
M  V30 5 1 5 6
M  V30 6 2 6 7
M  V30 7 1 7 8
M  V30 8 1 8 9
M  V30 9 1 9 10
M  V30 10 1 10 11
M  V30 11 1 11 12
M  V30 12 1 7 2
M  V30 13 1 12 8
M  V30 14 1 1 13
M  V30 15 1 1 14
M  V30 16 1 4 15
M  V30 17 1 4 16
M  V30 18 1 8 17
M  V30 19 1 9 18
M  V30 20 1 9 19
M  V30 21 1 10 20
M  V30 22 1 10 21
M  V30 23 1 11 22
M  V30 24 1 11 23
M  V30 END BOND
M  V30 END CTAB
M  END
