
     RDKit          3D

  0  0  0  0  0  0  0  0  0  0999 V3000
M  V30 BEGIN CTAB
M  V30 COUNTS 25 26 0 0 0
M  V30 BEGIN ATOM
M  V30 1 N -4.35416 1.02721 0.267889 0
M  V30 2 C -3.13127 0.313175 -0.00395479 0
M  V30 3 N -2.09059 0.700792 -0.737704 0
M  V30 4 N -1.18759 -0.276834 -0.711028 0
M  V30 5 C 0.0989122 -0.339278 -1.33973 0
M  V30 6 C 1.21997 0.186273 -0.570627 0
M  V30 7 C 1.97204 -0.682069 0.185104 0
M  V30 8 C 3.04763 -0.225877 0.938096 0
M  V30 9 C 3.38826 1.09421 0.949383 0
M  V30 10 C 2.63762 1.97794 0.191575 0
M  V30 11 C 1.57162 1.5367 -0.556699 0
M  V30 12 C -1.68581 -1.26255 0.0439899 0
M  V30 13 N -1.10815 -2.54043 0.384772 0
M  V30 14 N -2.91182 -0.910353 0.500201 0
M  V30 15 H -5.15013 0.870422 -0.388711 0
M  V30 16 H -4.44085 1.67351 1.08601 0
M  V30 17 H 0.0218964 0.242033 -2.29704 0
M  V30 18 H 0.316139 -1.41022 -1.59972 0
M  V30 19 H 1.80008 -1.74661 0.251395 0
M  V30 20 H 3.64008 -0.908322 1.53332 0
M  V30 21 H 4.23662 1.42133 1.54959 0
M  V30 22 H 2.92749 3.01202 0.218312 0
M  V30 23 H 0.993951 2.24081 -1.14453 0
M  V30 24 H -1.18153 -2.85331 1.36887 0
M  V30 25 H -0.630402 -3.14056 -0.320865 0
M  V30 END ATOM
M  V30 BEGIN BOND
M  V30 1 1 1 2
M  V30 2 2 2 3
M  V30 3 1 3 4
M  V30 4 1 4 5
M  V30 5 1 5 6
M  V30 6 2 6 7
M  V30 7 1 7 8
M  V30 8 2 8 9
M  V30 9 1 9 10
M  V30 10 2 10 11
M  V30 11 1 4 12
M  V30 12 1 12 13
M  V30 13 2 12 14
M  V30 14 1 14 2
M  V30 15 1 11 6
M  V30 16 1 1 15
M  V30 17 1 1 16
M  V30 18 1 5 17
M  V30 19 1 5 18
M  V30 20 1 7 19
M  V30 21 1 8 20
M  V30 22 1 9 21
M  V30 23 1 10 22
M  V30 24 1 11 23
M  V30 25 1 13 24
M  V30 26 1 13 25
M  V30 END BOND
M  V30 END CTAB
M  END
