
     RDKit          3D

  0  0  0  0  0  0  0  0  0  0999 V3000
M  V30 BEGIN CTAB
M  V30 COUNTS 24 24 0 0 0
M  V30 BEGIN ATOM
M  V30 1 Cl 4.81737 0.93897 0.178163 0
M  V30 2 C 3.07262 1.04046 0.443428 0
M  V30 3 C 2.37888 -0.0443507 -0.289217 0
M  V30 4 O 3.06637 -0.840716 -0.957219 0
M  V30 5 C 0.926785 -0.166789 -0.222485 0
M  V30 6 C 0.189886 0.72775 0.524076 0
M  V30 7 C -1.19298 0.586999 0.569653 0
M  V30 8 C -2.01708 1.53244 1.36358 0
M  V30 9 C -1.79591 -0.439732 -0.129639 0
M  V30 10 C -1.08734 -1.33299 -0.872176 0
M  V30 11 C 0.302956 -1.18486 -0.913061 0
M  V30 12 N 1.11812 -2.06893 -1.66032 0
M  V30 13 N -3.20103 -0.541407 -0.0525207 0
M  V30 14 H 2.74605 2.04811 0.111922 0
M  V30 15 H 2.86458 0.971027 1.55113 0
M  V30 16 H 0.67376 1.51717 1.05956 0
M  V30 17 H -2.99 1.06938 1.58843 0
M  V30 18 H -2.23891 2.44754 0.748952 0
M  V30 19 H -1.50895 1.88863 2.26976 0
M  V30 20 H -1.51746 -2.14982 -1.43391 0
M  V30 21 H 1.3942 -3.01461 -1.3414 0
M  V30 22 H 1.47307 -1.76409 -2.59619 0
M  V30 23 H -3.87711 -0.18163 -0.738076 0
M  V30 24 H -3.5979 -1.03854 0.797552 0
M  V30 END ATOM
M  V30 BEGIN BOND
M  V30 1 1 1 2
M  V30 2 1 2 3
M  V30 3 2 3 4
M  V30 4 1 3 5
M  V30 5 2 5 6
M  V30 6 1 6 7
M  V30 7 1 7 8
M  V30 8 2 7 9
M  V30 9 1 9 10
M  V30 10 2 10 11
M  V30 11 1 11 12
M  V30 12 1 9 13
M  V30 13 1 11 5
M  V30 14 1 2 14
M  V30 15 1 2 15
M  V30 16 1 6 16
M  V30 17 1 8 17
M  V30 18 1 8 18
M  V30 19 1 8 19
M  V30 20 1 10 20
M  V30 21 1 12 21
M  V30 22 1 12 22
M  V30 23 1 13 23
M  V30 24 1 13 24
M  V30 END BOND
M  V30 END CTAB
M  END
