
     RDKit          3D

  0  0  0  0  0  0  0  0  0  0999 V3000
M  V30 BEGIN CTAB
M  V30 COUNTS 34 36 0 0 0
M  V30 BEGIN ATOM
M  V30 1 O -3.91208 0.245244 1.88653 0
M  V30 2 C -3.77316 1.1215 0.849726 0
M  V30 3 C -2.77347 0.598034 -0.124212 0 CFG=1
M  V30 4 O -1.54327 0.449658 0.552277 0
M  V30 5 C -0.779973 -0.146302 -0.472747 0 CFG=2
M  V30 6 C -1.63627 -1.25935 -1.01089 0
M  V30 7 C -3.03541 -0.795985 -0.594002 0 CFG=1
M  V30 8 O -3.42917 -1.62544 0.448096 0
M  V30 9 O -1.52909 -1.22528 -2.40474 0
M  V30 10 N 0.45272 -0.589414 0.0894184 0
M  V30 11 C 0.718714 -1.6894 0.811332 0
M  V30 12 N 2.02137 -1.71585 1.14113 0
M  V30 13 C 2.60269 -0.617192 0.624238 0
M  V30 14 C 1.61833 0.0726569 -0.025555 0
M  V30 15 N 1.94408 1.24649 -0.649016 0
M  V30 16 C 3.18992 1.74916 -0.649354 0
M  V30 17 N 3.44438 2.97675 -1.32212 0
M  V30 18 N 4.13959 1.05034 -0.00255569 0
M  V30 19 C 3.8875 -0.10641 0.628448 0
M  V30 20 N 4.92523 -0.807789 1.29801 0
M  V30 21 H -3.12173 0.271033 2.44864 0
M  V30 22 H -4.73282 1.39101 0.380055 0
M  V30 23 H -3.36252 2.07361 1.27278 0
M  V30 24 H -2.59022 1.25152 -0.994276 0
M  V30 25 H -0.630697 0.623465 -1.23369 0
M  V30 26 H -1.39102 -2.24353 -0.612565 0
M  V30 27 H -3.69639 -0.85734 -1.47291 0
M  V30 28 H -2.61317 -1.86962 0.975797 0
M  V30 29 H -2.09399 -1.87818 -2.8564 0
M  V30 30 H 0.00846632 -2.47646 1.11081 0
M  V30 31 H 3.141 3.18212 -2.29891 0
M  V30 32 H 3.96525 3.73303 -0.826928 0
M  V30 33 H 5.39784 -1.57811 0.776189 0
M  V30 34 H 5.18736 -0.553954 2.25741 0
M  V30 END ATOM
M  V30 BEGIN BOND
M  V30 1 1 1 2
M  V30 2 1 2 3
M  V30 3 1 3 4
M  V30 4 1 4 5
M  V30 5 1 5 6
M  V30 6 1 6 7
M  V30 7 1 7 8
M  V30 8 1 6 9
M  V30 9 1 5 10
M  V30 10 1 10 11
M  V30 11 2 11 12
M  V30 12 1 12 13
M  V30 13 2 13 14
M  V30 14 1 14 15
M  V30 15 2 15 16
M  V30 16 1 16 17
M  V30 17 1 16 18
M  V30 18 2 18 19
M  V30 19 1 19 20
M  V30 20 1 7 3
M  V30 21 1 14 10
M  V30 22 1 19 13
M  V30 23 1 1 21
M  V30 24 1 2 22
M  V30 25 1 2 23
M  V30 26 1 3 24 CFG=3
M  V30 27 1 5 25 CFG=3
M  V30 28 1 6 26
M  V30 29 1 7 27 CFG=3
M  V30 30 1 8 28
M  V30 31 1 9 29
M  V30 32 1 11 30
M  V30 33 1 17 31
M  V30 34 1 17 32
M  V30 35 1 20 33
M  V30 36 1 20 34
M  V30 END BOND
M  V30 END CTAB
M  END
