
     RDKit          3D

  0  0  0  0  0  0  0  0  0  0999 V3000
M  V30 BEGIN CTAB
M  V30 COUNTS 26 26 0 0 0
M  V30 BEGIN ATOM
M  V30 1 N 4.20373 0.127142 -0.172396 0
M  V30 2 N 2.96871 -0.355799 0.095944 0
M  V30 3 C 1.85356 0.513993 0.0126455 0
M  V30 4 O 2.01339 1.70383 -0.303173 0
M  V30 5 C 0.491604 0.00750986 0.302069 0 CFG=2
M  V30 6 C 0.152854 -1.10062 -0.65033 0
M  V30 7 C -1.28911 -1.48267 -0.664899 0
M  V30 8 C -2.23012 -0.302692 -0.633682 0
M  V30 9 C -1.85356 0.521331 0.580006 0 CFG=1
M  V30 10 C -0.510377 1.14339 0.241607 0
M  V30 11 N -2.84781 1.48313 0.934261 0
M  V30 12 H 4.98716 -0.373394 0.124606 0
M  V30 13 H 4.29619 1.0276 -0.496474 0
M  V30 14 H 2.87128 -1.3716 0.360881 0
M  V30 15 H 0.447648 -0.394798 1.33344 0
M  V30 16 H 0.548092 -0.864533 -1.67297 0
M  V30 17 H 0.733755 -2.00125 -0.317321 0
M  V30 18 H -1.51066 -2.08306 0.258888 0
M  V30 19 H -1.47786 -2.1116 -1.54847 0
M  V30 20 H -3.25617 -0.70932 -0.537906 0
M  V30 21 H -2.08856 0.317783 -1.53913 0
M  V30 22 H -1.68134 -0.219109 1.41298 0
M  V30 23 H -0.567001 1.48725 -0.832336 0
M  V30 24 H -0.211398 1.93824 0.917869 0
M  V30 25 H -3.61303 0.96923 1.4487 0
M  V30 26 H -2.43099 2.13002 1.64032 0
M  V30 END ATOM
M  V30 BEGIN BOND
M  V30 1 1 1 2
M  V30 2 1 2 3
M  V30 3 2 3 4
M  V30 4 1 3 5
M  V30 5 1 5 6
M  V30 6 1 6 7
M  V30 7 1 7 8
M  V30 8 1 8 9
M  V30 9 1 9 10
M  V30 10 1 9 11
M  V30 11 1 10 5
M  V30 12 1 1 12
M  V30 13 1 1 13
M  V30 14 1 2 14
M  V30 15 1 5 15 CFG=1
M  V30 16 1 6 16
M  V30 17 1 6 17
M  V30 18 1 7 18
M  V30 19 1 7 19
M  V30 20 1 8 20
M  V30 21 1 8 21
M  V30 22 1 9 22 CFG=1
M  V30 23 1 10 23
M  V30 24 1 10 24
M  V30 25 1 11 25
M  V30 26 1 11 26
M  V30 END BOND
M  V30 END CTAB
M  END
