
     RDKit          3D

  0  0  0  0  0  0  0  0  0  0999 V3000
M  V30 BEGIN CTAB
M  V30 COUNTS 55 58 0 0 0
M  V30 BEGIN ATOM
M  V30 1 N -5.28768 4.25339 -0.204987 0
M  V30 2 C -4.01508 3.63008 -0.100871 0
M  V30 3 N -3.82317 2.48536 0.589734 0
M  V30 4 C -2.67394 1.8591 0.724793 0
M  V30 5 C -2.46681 0.628361 1.49836 0
M  V30 6 O -3.59583 0.11265 2.06153 0
M  V30 7 C -4.58901 -0.344376 1.26555 0
M  V30 8 C -4.11145 -1.44695 0.362766 0
M  V30 9 C -3.73175 -1.25467 -0.931395 0
M  V30 10 C -3.30447 -2.3191 -1.686 0
M  V30 11 C -3.24835 -3.59404 -1.16321 0
M  V30 12 C -3.6333 -3.78642 0.147544 0
M  V30 13 C -4.06432 -2.72658 0.916352 0
M  V30 14 C -1.57139 2.43129 0.100568 0
M  V30 15 C -1.71854 3.60036 -0.616166 0
M  V30 16 N -0.585592 4.18499 -1.25651 0
M  V30 17 N -2.92272 4.17074 -0.702342 0
M  V30 18 C -0.242717 1.81546 0.183582 0
M  V30 19 C 0.125731 0.783427 -0.65329 0
M  V30 20 C 1.34711 0.190243 -0.601375 0
M  V30 21 C 2.29786 0.599886 0.309971 0
M  V30 22 O 3.55918 0.0249107 0.401265 0
M  V30 23 C 3.88283 -1.02149 -0.475486 0
M  V30 24 C 5.22255 -1.55397 -0.298579 0
M  V30 25 C 5.68671 -2.55849 -1.11192 0
M  V30 26 C 6.96962 -3.08036 -0.95346 0
M  V30 27 C 7.76853 -2.5632 0.0440811 0
M  V30 28 Cl 9.38152 -3.27482 0.185482 0
M  V30 29 C 7.33302 -1.5632 0.868532 0
M  V30 30 C 6.05263 -1.06853 0.682641 0
M  V30 31 C 1.93495 1.64684 1.16489 0
M  V30 32 C 0.692373 2.24563 1.10731 0
M  V30 33 H -5.55059 4.79107 -1.05694 0
M  V30 34 H -5.93085 4.13736 0.618311 0
M  V30 35 H -2.03511 -0.140942 0.803814 0
M  V30 36 H -1.66983 0.786554 2.27609 0
M  V30 37 H -5.13733 0.417646 0.703634 0
M  V30 38 H -5.38004 -0.80525 1.9474 0
M  V30 39 H -3.78119 -0.240207 -1.3347 0
M  V30 40 H -3.00998 -2.13359 -2.7111 0
M  V30 41 H -2.90735 -4.42369 -1.77349 0
M  V30 42 H -3.59566 -4.79288 0.578434 0
M  V30 43 H -4.35947 -2.9089 1.93994 0
M  V30 44 H 0.320464 4.18898 -0.738702 0
M  V30 45 H -0.656106 4.59857 -2.21758 0
M  V30 46 H -0.600773 0.443665 -1.37568 0
M  V30 47 H 1.64711 -0.626972 -1.25932 0
M  V30 48 H 3.11751 -1.83032 -0.280709 0
M  V30 49 H 3.66644 -0.68858 -1.5184 0
M  V30 50 H 5.09827 -2.99996 -1.91149 0
M  V30 51 H 7.3122 -3.87052 -1.60445 0
M  V30 52 H 8.01187 -1.20039 1.63391 0
M  V30 53 H 5.73768 -0.279755 1.35057 0
M  V30 54 H 2.63418 2.01682 1.90312 0
M  V30 55 H 0.400014 3.05474 1.76238 0
M  V30 END ATOM
M  V30 BEGIN BOND
M  V30 1 1 1 2
M  V30 2 2 2 3
M  V30 3 1 3 4
M  V30 4 1 4 5
M  V30 5 1 5 6
M  V30 6 1 6 7
M  V30 7 1 7 8
M  V30 8 2 8 9
M  V30 9 1 9 10
M  V30 10 2 10 11
M  V30 11 1 11 12
M  V30 12 2 12 13
M  V30 13 2 4 14
M  V30 14 1 14 15
M  V30 15 1 15 16
M  V30 16 2 15 17
M  V30 17 1 14 18
M  V30 18 2 18 19
M  V30 19 1 19 20
M  V30 20 2 20 21
M  V30 21 1 21 22
M  V30 22 1 22 23
M  V30 23 1 23 24
M  V30 24 2 24 25
M  V30 25 1 25 26
M  V30 26 2 26 27
M  V30 27 1 27 28
M  V30 28 1 27 29
M  V30 29 2 29 30
M  V30 30 1 21 31
M  V30 31 2 31 32
M  V30 32 1 17 2
M  V30 33 1 32 18
M  V30 34 1 13 8
M  V30 35 1 30 24
M  V30 36 1 1 33
M  V30 37 1 1 34
M  V30 38 1 5 35
M  V30 39 1 5 36
M  V30 40 1 7 37
M  V30 41 1 7 38
M  V30 42 1 9 39
M  V30 43 1 10 40
M  V30 44 1 11 41
M  V30 45 1 12 42
M  V30 46 1 13 43
M  V30 47 1 16 44
M  V30 48 1 16 45
M  V30 49 1 19 46
M  V30 50 1 20 47
M  V30 51 1 23 48
M  V30 52 1 23 49
M  V30 53 1 25 50
M  V30 54 1 26 51
M  V30 55 1 29 52
M  V30 56 1 30 53
M  V30 57 1 31 54
M  V30 58 1 32 55
M  V30 END BOND
M  V30 END CTAB
M  END
