
     RDKit          3D

  0  0  0  0  0  0  0  0  0  0999 V3000
M  V30 BEGIN CTAB
M  V30 COUNTS 60 62 0 0 0
M  V30 BEGIN ATOM
M  V30 1 N -3.21506 -0.727046 -3.58666 0
M  V30 2 C -2.92727 -0.993283 -2.2224 0
M  V30 3 N -1.74859 -0.648925 -1.68821 0
M  V30 4 C -1.45235 -0.890708 -0.394238 0
M  V30 5 C -0.139243 -0.510431 0.180969 0
M  V30 6 N 0.139136 0.902615 0.0862378 0
M  V30 7 C -0.862778 1.69748 0.741387 0
M  V30 8 C -0.690674 3.14906 0.431457 0
M  V30 9 C -0.75282 4.03895 1.46297 0
M  V30 10 C -0.597546 5.38787 1.19636 0
M  V30 11 C -0.38152 5.84243 -0.0943628 0
M  V30 12 C -0.325452 4.91217 -1.10703 0
M  V30 13 C -0.47786 3.58543 -0.847394 0
M  V30 14 Cl -0.186641 7.56394 -0.409548 0
M  V30 15 C -0.977187 1.47703 2.22087 0
M  V30 16 C 1.45406 1.11785 0.687349 0
M  V30 17 C 2.53333 0.367337 0.021346 0
M  V30 18 N 3.04809 0.856927 -1.11548 0
M  V30 19 C 4.03586 0.217148 -1.75472 0
M  V30 20 N 4.59257 0.740198 -2.979 0
M  V30 21 N 4.50559 -0.929473 -1.23557 0
M  V30 22 C 4.01564 -1.45192 -0.0981084 0
M  V30 23 N 3.0373 -0.783574 0.50078 0
M  V30 24 N 4.58122 -2.65114 0.353958 0
M  V30 25 C 5.70048 -2.6206 1.25515 0
M  V30 26 C 4.04298 -3.90986 -0.0841242 0
M  V30 27 N -2.40704 -1.49857 0.335297 0
M  V30 28 C -3.59992 -1.85602 -0.174889 0
M  V30 29 N -3.84544 -1.5968 -1.45489 0
M  V30 30 N -4.58009 -2.50154 0.635277 0
M  V30 31 C -5.85298 -2.86897 0.0549951 0
M  V30 32 C -4.33156 -2.79965 2.02781 0
M  V30 33 H -4.16837 -0.677096 -3.96388 0
M  V30 34 H -2.41444 -0.574573 -4.23537 0
M  V30 35 H -0.104872 -0.79778 1.24217 0
M  V30 36 H 0.636301 -1.10362 -0.348927 0
M  V30 37 H -1.86382 1.42451 0.309076 0
M  V30 38 H -0.921518 3.7257 2.50588 0
M  V30 39 H -0.642179 6.11514 1.99365 0
M  V30 40 H -0.153533 5.29883 -2.11925 0
M  V30 41 H -0.429269 2.86834 -1.66865 0
M  V30 42 H -1.16992 0.406735 2.45418 0
M  V30 43 H -0.16124 1.88199 2.82086 0
M  V30 44 H -1.92756 1.98887 2.55751 0
M  V30 45 H 1.4399 0.80605 1.76721 0
M  V30 46 H 1.70012 2.19941 0.70067 0
M  V30 47 H 4.15737 0.439074 -3.85585 0
M  V30 48 H 5.39243 1.38444 -2.91112 0
M  V30 49 H 6.39715 -3.46201 1.1445 0
M  V30 50 H 5.37003 -2.56197 2.32972 0
M  V30 51 H 6.31372 -1.69171 1.09845 0
M  V30 52 H 2.96518 -3.92187 0.124665 0
M  V30 53 H 4.54618 -4.74819 0.447322 0
M  V30 54 H 4.16823 -3.99627 -1.18691 0
M  V30 55 H -5.65453 -3.19662 -0.990847 0
M  V30 56 H -6.53718 -1.99916 0.11533 0
M  V30 57 H -6.29568 -3.7457 0.575118 0
M  V30 58 H -4.88484 -3.76134 2.24354 0
M  V30 59 H -4.826 -2.01761 2.64168 0
M  V30 60 H -3.2659 -2.9015 2.27161 0
M  V30 END ATOM
M  V30 BEGIN BOND
M  V30 1 1 1 2
M  V30 2 2 2 3
M  V30 3 1 3 4
M  V30 4 1 4 5
M  V30 5 1 5 6
M  V30 6 1 6 7
M  V30 7 1 7 8
M  V30 8 2 8 9
M  V30 9 1 9 10
M  V30 10 2 10 11
M  V30 11 1 11 12
M  V30 12 2 12 13
M  V30 13 1 11 14
M  V30 14 1 7 15
M  V30 15 1 6 16
M  V30 16 1 16 17
M  V30 17 2 17 18
M  V30 18 1 18 19
M  V30 19 1 19 20
M  V30 20 2 19 21
M  V30 21 1 21 22
M  V30 22 2 22 23
M  V30 23 1 22 24
M  V30 24 1 24 25
M  V30 25 1 24 26
M  V30 26 2 4 27
M  V30 27 1 27 28
M  V30 28 2 28 29
M  V30 29 1 28 30
M  V30 30 1 30 31
M  V30 31 1 30 32
M  V30 32 1 29 2
M  V30 33 1 13 8
M  V30 34 1 23 17
M  V30 35 1 1 33
M  V30 36 1 1 34
M  V30 37 1 5 35
M  V30 38 1 5 36
M  V30 39 1 7 37
M  V30 40 1 9 38
M  V30 41 1 10 39
M  V30 42 1 12 40
M  V30 43 1 13 41
M  V30 44 1 15 42
M  V30 45 1 15 43
M  V30 46 1 15 44
M  V30 47 1 16 45
M  V30 48 1 16 46
M  V30 49 1 20 47
M  V30 50 1 20 48
M  V30 51 1 25 49
M  V30 52 1 25 50
M  V30 53 1 25 51
M  V30 54 1 26 52
M  V30 55 1 26 53
M  V30 56 1 26 54
M  V30 57 1 31 55
M  V30 58 1 31 56
M  V30 59 1 31 57
M  V30 60 1 32 58
M  V30 61 1 32 59
M  V30 62 1 32 60
M  V30 END BOND
M  V30 END CTAB
M  END
