
     RDKit          3D

  0  0  0  0  0  0  0  0  0  0999 V3000
M  V30 BEGIN CTAB
M  V30 COUNTS 21 21 0 0 0
M  V30 BEGIN ATOM
M  V30 1 N -2.93831 -0.599316 0.492648 0
M  V30 2 C -1.51549 -0.503006 0.734829 0
M  V30 3 C -0.901689 0.571147 -0.139707 0
M  V30 4 C 0.570326 0.617863 0.161027 0
M  V30 5 C 1.15152 1.7363 0.700556 0
M  V30 6 S 2.79555 1.23282 0.823874 0
M  V30 7 C 2.62487 -0.338954 0.189811 0
M  V30 8 N 1.34309 -0.398339 -0.0792145 0
M  V30 9 N 3.60406 -1.36849 -0.0158794 0
M  V30 10 C -1.15103 0.261782 -1.59992 0
M  V30 11 H -3.40536 -1.18125 1.19416 0
M  V30 12 H -3.38639 0.325788 0.448017 0
M  V30 13 H -1.35288 -0.196682 1.80233 0
M  V30 14 H -0.997553 -1.44064 0.52103 0
M  V30 15 H -1.39842 1.52277 0.12893 0
M  V30 16 H 0.665717 2.69109 0.972449 0
M  V30 17 H 4.46909 -1.20404 -0.550624 0
M  V30 18 H 3.43003 -2.30941 0.390122 0
M  V30 19 H -0.306281 0.659971 -2.19753 0
M  V30 20 H -2.11222 0.757694 -1.86905 0
M  V30 21 H -1.18863 -0.837087 -1.72241 0
M  V30 END ATOM
M  V30 BEGIN BOND
M  V30 1 1 1 2
M  V30 2 1 2 3
M  V30 3 1 3 4
M  V30 4 2 4 5
M  V30 5 1 5 6
M  V30 6 1 6 7
M  V30 7 2 7 8
M  V30 8 1 7 9
M  V30 9 1 3 10
M  V30 10 1 8 4
M  V30 11 1 1 11
M  V30 12 1 1 12
M  V30 13 1 2 13
M  V30 14 1 2 14
M  V30 15 1 3 15
M  V30 16 1 5 16
M  V30 17 1 9 17
M  V30 18 1 9 18
M  V30 19 1 10 19
M  V30 20 1 10 20
M  V30 21 1 10 21
M  V30 END BOND
M  V30 END CTAB
M  END
