
     RDKit          3D

  0  0  0  0  0  0  0  0  0  0999 V3000
M  V30 BEGIN CTAB
M  V30 COUNTS 32 35 0 0 0
M  V30 BEGIN ATOM
M  V30 1 N -6.72255 -0.0694017 0.788249 0
M  V30 2 C -5.46194 0.171989 0.152987 0
M  V30 3 C -5.45941 0.766158 -1.08934 0
M  V30 4 C -4.26691 0.999868 -1.7015 0
M  V30 5 C -3.09528 0.631214 -1.05229 0
M  V30 6 S -1.39158 0.805044 -1.59226 0
M  V30 7 C -0.6483 0.0773746 -0.148155 0
M  V30 8 C -1.76447 -0.274405 0.702906 0
M  V30 9 O -1.53654 -0.83165 1.84416 0
M  V30 10 C -3.05183 0.0393687 0.18042 0
M  V30 11 C -4.30313 -0.189623 0.788802 0
M  V30 12 C 0.633091 -0.104699 0.0996166 0
M  V30 13 S 1.39228 -0.831914 1.54113 0
M  V30 14 C 3.08959 -0.650497 0.985771 0
M  V30 15 C 4.28837 -1.00641 1.60541 0
M  V30 16 C 5.47277 -0.750898 0.948381 0
M  V30 17 C 5.46232 -0.155601 -0.294965 0
M  V30 18 N 6.72374 0.092716 -0.944944 0
M  V30 19 C 4.27543 0.18225 -0.878075 0
M  V30 20 C 3.03501 -0.0600886 -0.242782 0
M  V30 21 C 1.74194 0.251133 -0.759245 0
M  V30 22 O 1.51526 0.80961 -1.90319 0
M  V30 23 H -6.93054 0.468402 1.64816 0
M  V30 24 H -7.38696 -0.738975 0.414073 0
M  V30 25 H -6.42669 1.0317 -1.54418 0
M  V30 26 H -4.20514 1.45491 -2.65914 0
M  V30 27 H -4.34318 -0.661199 1.77875 0
M  V30 28 H 4.22576 -1.46281 2.56597 0
M  V30 29 H 6.42103 -1.02024 1.41304 0
M  V30 30 H 7.50304 -0.573829 -0.865868 0
M  V30 31 H 6.8743 0.955723 -1.51102 0
M  V30 32 H 4.34052 0.644778 -1.85172 0
M  V30 END ATOM
M  V30 BEGIN BOND
M  V30 1 1 1 2
M  V30 2 2 2 3
M  V30 3 1 3 4
M  V30 4 2 4 5
M  V30 5 1 5 6
M  V30 6 1 6 7
M  V30 7 1 7 8
M  V30 8 2 8 9
M  V30 9 1 8 10
M  V30 10 2 10 11
M  V30 11 2 7 12
M  V30 12 1 12 13
M  V30 13 1 13 14
M  V30 14 2 14 15
M  V30 15 1 15 16
M  V30 16 2 16 17
M  V30 17 1 17 18
M  V30 18 1 17 19
M  V30 19 2 19 20
M  V30 20 1 20 21
M  V30 21 2 21 22
M  V30 22 1 11 2
M  V30 23 1 21 12
M  V30 24 1 10 5
M  V30 25 1 20 14
M  V30 26 1 1 23
M  V30 27 1 1 24
M  V30 28 1 3 25
M  V30 29 1 4 26
M  V30 30 1 11 27
M  V30 31 1 15 28
M  V30 32 1 16 29
M  V30 33 1 18 30
M  V30 34 1 18 31
M  V30 35 1 19 32
M  V30 END BOND
M  V30 END CTAB
M  END
