
     RDKit          3D

  0  0  0  0  0  0  0  0  0  0999 V3000
M  V30 BEGIN CTAB
M  V30 COUNTS 25 25 0 0 0
M  V30 BEGIN ATOM
M  V30 1 C -3.42659 0.866103 -0.366974 0
M  V30 2 C -1.98017 0.546467 -0.707761 0
M  V30 3 N -2.02454 -0.796647 -1.31129 0
M  V30 4 C -1.21798 0.470328 0.599093 0
M  V30 5 C 0.211977 0.166478 0.376791 0
M  V30 6 C 0.705765 -1.09482 0.596949 0
M  V30 7 C 2.02387 -1.44373 0.40395 0
M  V30 8 C 2.91413 -0.495743 -0.0333373 0
M  V30 9 N 4.3044 -0.785478 -0.259108 0
M  V30 10 C 2.45904 0.778677 -0.265604 0
M  V30 11 C 1.13087 1.10977 -0.0656517 0
M  V30 12 F 0.701319 2.36198 -0.29498 0
M  V30 13 H -3.69019 0.215936 0.497801 0
M  V30 14 H -3.52897 1.9519 -0.0909842 0
M  V30 15 H -4.09537 0.602049 -1.21977 0
M  V30 16 H -1.59672 1.30188 -1.38281 0
M  V30 17 H -2.14711 -1.46835 -0.499528 0
M  V30 18 H -2.91438 -0.877357 -1.88015 0
M  V30 19 H -1.70626 -0.274416 1.25768 0
M  V30 20 H -1.29346 1.47868 1.07027 0
M  V30 21 H 0.0473356 -1.90108 0.948482 0
M  V30 22 H 2.39161 -2.4676 0.589009 0
M  V30 23 H 4.835 -1.30177 0.471732 0
M  V30 24 H 4.70706 -0.455894 -1.16277 0
M  V30 25 H 3.18937 1.51263 -0.612886 0
M  V30 END ATOM
M  V30 BEGIN BOND
M  V30 1 1 1 2
M  V30 2 1 2 3
M  V30 3 1 2 4
M  V30 4 1 4 5
M  V30 5 2 5 6
M  V30 6 1 6 7
M  V30 7 2 7 8
M  V30 8 1 8 9
M  V30 9 1 8 10
M  V30 10 2 10 11
M  V30 11 1 11 12
M  V30 12 1 11 5
M  V30 13 1 1 13
M  V30 14 1 1 14
M  V30 15 1 1 15
M  V30 16 1 2 16
M  V30 17 1 3 17
M  V30 18 1 3 18
M  V30 19 1 4 19
M  V30 20 1 4 20
M  V30 21 1 6 21
M  V30 22 1 7 22
M  V30 23 1 9 23
M  V30 24 1 9 24
M  V30 25 1 10 25
M  V30 END BOND
M  V30 END CTAB
M  END
