
     RDKit          3D

  0  0  0  0  0  0  0  0  0  0999 V3000
M  V30 BEGIN CTAB
M  V30 COUNTS 48 51 0 0 0
M  V30 BEGIN ATOM
M  V30 1 N -7.35144 -0.709534 0.202486 0
M  V30 2 C -7.05975 0.676463 -0.0737204 0
M  V30 3 C -6.05046 0.912108 -1.16631 0
M  V30 4 C -5.00757 1.38064 -0.196481 0
M  V30 5 C -6.03895 1.23905 0.914285 0
M  V30 6 C -3.84894 0.463496 -0.0753089 0
M  V30 7 C -2.54378 0.902628 -0.171491 0
M  V30 8 C -1.52006 -0.0102797 -0.0482859 0
M  V30 9 N -0.159663 0.463573 -0.15106 0
M  V30 10 C 0.888567 -0.515598 -0.0180107 0
M  V30 11 C 2.24788 -0.0149174 -0.149832 0
M  V30 12 C 2.53086 1.15453 -0.809061 0
M  V30 13 C 3.83938 1.62496 -0.923172 0
M  V30 14 C 4.85537 0.884435 -0.354886 0
M  V30 15 C 4.60403 -0.305996 0.320733 0
M  V30 16 C 3.29184 -0.740247 0.412969 0
M  V30 17 O 5.50262 -1.17248 0.949476 0
M  V30 18 C 6.89285 -0.92741 1.06204 0
M  V30 19 C 7.52582 -0.585196 -0.251228 0
M  V30 20 C 7.32651 0.773241 -0.753927 0
M  V30 21 O 6.12485 1.41784 -0.511383 0
M  V30 22 N -1.80943 -1.3056 0.16232 0
M  V30 23 C -3.07911 -1.75034 0.258677 0
M  V30 24 N -4.05452 -0.841763 0.135149 0
M  V30 25 N -3.39887 -3.11427 0.480755 0
M  V30 26 H -6.99141 -1.33041 -0.553756 0
M  V30 27 H -6.97806 -1.04414 1.10875 0
M  V30 28 H -7.96046 1.31891 -0.153285 0
M  V30 29 H -6.36266 1.6613 -1.93335 0
M  V30 30 H -5.77666 -0.056626 -1.64016 0
M  V30 31 H -4.6716 2.4314 -0.370094 0
M  V30 32 H -5.71285 0.489585 1.68727 0
M  V30 33 H -6.36672 2.1973 1.34322 0
M  V30 34 H -2.38628 1.95697 -0.341325 0
M  V30 35 H 0.0639106 1.44641 -0.30766 0
M  V30 36 H 0.722958 -1.34695 -0.757071 0
M  V30 37 H 0.759155 -1.02815 0.981261 0
M  V30 38 H 1.78 1.77165 -1.275 0
M  V30 39 H 4.09483 2.53136 -1.42775 0
M  V30 40 H 3.10868 -1.68151 0.949081 0
M  V30 41 H 7.3584 -1.8805 1.41154 0
M  V30 42 H 7.13501 -0.159455 1.81333 0
M  V30 43 H 7.21275 -1.3823 -0.977193 0
M  V30 44 H 8.63281 -0.765693 -0.118262 0
M  V30 45 H 7.52146 0.762035 -1.86913 0
M  V30 46 H 8.13872 1.46833 -0.377445 0
M  V30 47 H -4.3679 -3.40432 0.62101 0
M  V30 48 H -2.66209 -3.85455 0.507366 0
M  V30 END ATOM
M  V30 BEGIN BOND
M  V30 1 1 1 2
M  V30 2 1 2 3
M  V30 3 1 3 4
M  V30 4 1 4 5
M  V30 5 1 4 6
M  V30 6 2 6 7
M  V30 7 1 7 8
M  V30 8 1 8 9
M  V30 9 1 9 10
M  V30 10 1 10 11
M  V30 11 2 11 12
M  V30 12 1 12 13
M  V30 13 2 13 14
M  V30 14 1 14 15
M  V30 15 2 15 16
M  V30 16 1 15 17
M  V30 17 1 17 18
M  V30 18 1 18 19
M  V30 19 1 19 20
M  V30 20 1 20 21
M  V30 21 2 8 22
M  V30 22 1 22 23
M  V30 23 2 23 24
M  V30 24 1 23 25
M  V30 25 1 5 2
M  V30 26 1 24 6
M  V30 27 1 16 11
M  V30 28 1 21 14
M  V30 29 1 1 26
M  V30 30 1 1 27
M  V30 31 1 2 28
M  V30 32 1 3 29
M  V30 33 1 3 30
M  V30 34 1 4 31
M  V30 35 1 5 32
M  V30 36 1 5 33
M  V30 37 1 7 34
M  V30 38 1 9 35
M  V30 39 1 10 36
M  V30 40 1 10 37
M  V30 41 1 12 38
M  V30 42 1 13 39
M  V30 43 1 16 40
M  V30 44 1 18 41
M  V30 45 1 18 42
M  V30 46 1 19 43
M  V30 47 1 19 44
M  V30 48 1 20 45
M  V30 49 1 20 46
M  V30 50 1 25 47
M  V30 51 1 25 48
M  V30 END BOND
M  V30 END CTAB
M  END
