
     RDKit          3D

  0  0  0  0  0  0  0  0  0  0999 V3000
M  V30 BEGIN CTAB
M  V30 COUNTS 35 35 0 0 0
M  V30 BEGIN ATOM
M  V30 1 C 4.12751 0.279881 1.18789 0
M  V30 2 C 4.03809 0.350921 -0.310842 0 CFG=1
M  V30 3 C 2.94465 -0.493148 -0.8767 0
M  V30 4 C 1.60481 -0.0991004 -0.36949 0
M  V30 5 O 1.51832 0.860007 0.448102 0
M  V30 6 N 0.431571 -0.777103 -0.785334 0
M  V30 7 C -0.851012 -0.402474 -0.301985 0
M  V30 8 C -1.81761 -0.00471136 -1.40264 0
M  V30 9 C -2.93725 0.759133 -0.697519 0
M  V30 10 C -3.62239 -0.142467 0.27448 0
M  V30 11 C -2.68593 -0.819391 1.23923 0
M  V30 12 C -1.54861 -1.51223 0.477549 0
M  V30 13 N -4.55258 0.658567 1.06311 0
M  V30 14 N 3.92923 1.74525 -0.694646 0
M  V30 15 H 5.1762 0.0932184 1.52784 0
M  V30 16 H 3.77943 1.20125 1.69158 0
M  V30 17 H 3.53206 -0.56764 1.58362 0
M  V30 18 H 5.00214 -0.0183329 -0.717138 0
M  V30 19 H 3.13479 -1.54166 -0.571533 0
M  V30 20 H 2.99826 -0.40881 -1.98757 0
M  V30 21 H 0.527334 -1.56296 -1.4585 0
M  V30 22 H -0.777116 0.458676 0.41204 0
M  V30 23 H -2.30273 -0.935885 -1.80563 0
M  V30 24 H -1.34453 0.58248 -2.1973 0
M  V30 25 H -2.41576 1.58758 -0.137335 0
M  V30 26 H -3.68063 1.14316 -1.40382 0
M  V30 27 H -4.14861 -0.943683 -0.287659 0
M  V30 28 H -2.17687 -0.0567801 1.8857 0
M  V30 29 H -3.23782 -1.52983 1.85089 0
M  V30 30 H -2.03395 -2.24664 -0.200858 0
M  V30 31 H -0.89051 -2.00463 1.19698 0
M  V30 32 H -5.4854 0.728529 0.59435 0
M  V30 33 H -4.16269 1.62632 1.10951 0
M  V30 34 H 4.79467 2.11019 -1.1413 0
M  V30 35 H 3.13293 1.88233 -1.35329 0
M  V30 END ATOM
M  V30 BEGIN BOND
M  V30 1 1 1 2
M  V30 2 1 2 3
M  V30 3 1 3 4
M  V30 4 2 4 5
M  V30 5 1 4 6
M  V30 6 1 6 7
M  V30 7 1 7 8
M  V30 8 1 8 9
M  V30 9 1 9 10
M  V30 10 1 10 11
M  V30 11 1 11 12
M  V30 12 1 10 13
M  V30 13 1 2 14
M  V30 14 1 12 7
M  V30 15 1 1 15
M  V30 16 1 1 16
M  V30 17 1 1 17
M  V30 18 1 2 18 CFG=3
M  V30 19 1 3 19
M  V30 20 1 3 20
M  V30 21 1 6 21
M  V30 22 1 7 22
M  V30 23 1 8 23
M  V30 24 1 8 24
M  V30 25 1 9 25
M  V30 26 1 9 26
M  V30 27 1 10 27
M  V30 28 1 11 28
M  V30 29 1 11 29
M  V30 30 1 12 30
M  V30 31 1 12 31
M  V30 32 1 13 32
M  V30 33 1 13 33
M  V30 34 1 14 34
M  V30 35 1 14 35
M  V30 END BOND
M  V30 END CTAB
M  END
