
     RDKit          3D

  0  0  0  0  0  0  0  0  0  0999 V3000
M  V30 BEGIN CTAB
M  V30 COUNTS 49 52 0 0 0
M  V30 BEGIN ATOM
M  V30 1 N 5.22003 -2.82108 0.239217 0
M  V30 2 C 5.46757 -1.40737 0.35286 0 CFG=2
M  V30 3 C 4.59901 -0.667975 1.3484 0
M  V30 4 C 4.38385 0.402287 0.299614 0 CFG=1
M  V30 5 C 4.86866 -0.56152 -0.778325 0
M  V30 6 C 2.99939 0.877763 0.138507 0
M  V30 7 C 1.98765 -0.0641634 -0.00888919 0
M  V30 8 C 0.679188 0.286469 -0.164234 0
M  V30 9 N 0.4189 1.62136 -0.165645 0
M  V30 10 C 1.35966 2.56453 -0.0267693 0
M  V30 11 N 2.65745 2.17037 0.125643 0
M  V30 12 N 0.999206 3.93215 -0.039587 0
M  V30 13 N -0.37794 -0.688841 -0.336025 0
M  V30 14 C -1.67368 -0.153216 -0.333422 0
M  V30 15 C -2.86988 -0.927744 -0.0887751 0
M  V30 16 C -2.99704 -2.24294 0.257402 0
M  V30 17 C -4.26385 -2.7963 0.481275 0
M  V30 18 C -5.38995 -2.02217 0.355938 0
M  V30 19 C -5.29323 -0.693204 0.0093428 0
M  V30 20 C -4.0614 -0.168911 -0.205209 0
M  V30 21 N -4.01593 1.22363 -0.564142 0
M  V30 22 C -4.00267 2.19802 0.373473 0
M  V30 23 C -3.95769 3.42522 -0.259796 0
M  V30 24 C -3.94465 3.14017 -1.61347 0
M  V30 25 N -3.98134 1.79505 -1.73097 0
M  V30 26 C 0.0644954 -2.04456 -0.551702 0
M  V30 27 H 4.65604 -3.10134 1.06989 0
M  V30 28 H 6.07116 -3.38095 0.0962348 0
M  V30 29 H 6.54297 -1.18351 0.425966 0
M  V30 30 H 5.21389 -0.286764 2.18903 0
M  V30 31 H 3.68631 -1.18818 1.67966 0
M  V30 32 H 5.09387 1.2628 0.379191 0
M  V30 33 H 5.59179 -0.165453 -1.48782 0
M  V30 34 H 3.98998 -1.07865 -1.24664 0
M  V30 35 H 2.27472 -1.0912 0.015301 0
M  V30 36 H 0.338852 4.26732 -0.762584 0
M  V30 37 H 1.38008 4.57705 0.647483 0
M  V30 38 H -1.70075 0.799432 0.292486 0
M  V30 39 H -1.81626 0.294717 -1.38478 0
M  V30 40 H -2.12157 -2.87966 0.386516 0
M  V30 41 H -4.32556 -3.83822 0.752172 0
M  V30 42 H -6.39494 -2.43822 0.52593 0
M  V30 43 H -6.19336 -0.0704984 -0.0918767 0
M  V30 44 H -4.0229 2.0916 1.45893 0
M  V30 45 H -3.93619 4.40882 0.173555 0
M  V30 46 H -3.91133 3.9048 -2.37725 0
M  V30 47 H -0.597454 -2.57827 -1.28886 0
M  V30 48 H 1.06046 -2.0855 -1.10352 0
M  V30 49 H 0.244381 -2.61717 0.37547 0
M  V30 END ATOM
M  V30 BEGIN BOND
M  V30 1 1 1 2
M  V30 2 1 2 3
M  V30 3 1 3 4
M  V30 4 1 4 5
M  V30 5 1 4 6
M  V30 6 2 6 7
M  V30 7 1 7 8
M  V30 8 2 8 9
M  V30 9 1 9 10
M  V30 10 2 10 11
M  V30 11 1 10 12
M  V30 12 1 8 13
M  V30 13 1 13 14
M  V30 14 1 14 15
M  V30 15 2 15 16
M  V30 16 1 16 17
M  V30 17 2 17 18
M  V30 18 1 18 19
M  V30 19 2 19 20
M  V30 20 1 20 21
M  V30 21 1 21 22
M  V30 22 2 22 23
M  V30 23 1 23 24
M  V30 24 2 24 25
M  V30 25 1 13 26
M  V30 26 1 5 2
M  V30 27 1 11 6
M  V30 28 1 20 15
M  V30 29 1 25 21
M  V30 30 1 1 27
M  V30 31 1 1 28
M  V30 32 1 2 29 CFG=1
M  V30 33 1 3 30
M  V30 34 1 3 31
M  V30 35 1 4 32 CFG=1
M  V30 36 1 5 33
M  V30 37 1 5 34
M  V30 38 1 7 35
M  V30 39 1 12 36
M  V30 40 1 12 37
M  V30 41 1 14 38
M  V30 42 1 14 39
M  V30 43 1 16 40
M  V30 44 1 17 41
M  V30 45 1 18 42
M  V30 46 1 19 43
M  V30 47 1 22 44
M  V30 48 1 23 45
M  V30 49 1 24 46
M  V30 50 1 26 47
M  V30 51 1 26 48
M  V30 52 1 26 49
M  V30 END BOND
M  V30 END CTAB
M  END
