
     RDKit          3D

  0  0  0  0  0  0  0  0  0  0999 V3000
M  V30 BEGIN CTAB
M  V30 COUNTS 40 41 0 0 0
M  V30 BEGIN ATOM
M  V30 1 N -5.5599 1.64689 0.0854232 0
M  V30 2 C -5.50831 0.262761 0.478681 0
M  V30 3 C -4.57301 -0.52042 -0.419415 0
M  V30 4 N -3.26831 0.0559778 -0.309913 0
M  V30 5 C -2.67321 -0.145156 0.967577 0
M  V30 6 C -1.54405 -1.17372 0.801984 0
M  V30 7 N -0.543793 -0.498767 -0.00100094 0
M  V30 8 C -1.00962 0.272586 -1.11815 0
M  V30 9 C -2.42111 -0.213491 -1.43604 0
M  V30 10 C 0.858157 -0.624539 0.343082 0
M  V30 11 O 1.15214 -1.32029 1.32931 0
M  V30 12 N 1.77983 0.0545487 -0.471405 0
M  V30 13 C 3.17079 0.0757234 -0.320782 0
M  V30 14 C 3.93975 0.511257 -1.40625 0
M  V30 15 C 5.29459 0.565865 -1.30823 0
M  V30 16 C 5.9754 0.201016 -0.15241 0
M  V30 17 C 5.20059 -0.223389 0.900841 0
M  V30 18 C 3.79531 -0.290693 0.830207 0
M  V30 19 N 7.38741 0.27675 -0.101932 0
M  V30 20 H -5.44493 2.32168 0.852361 0
M  V30 21 H -5.01547 1.89004 -0.750025 0
M  V30 22 H -5.24514 0.181479 1.55145 0
M  V30 23 H -6.52548 -0.21076 0.393743 0
M  V30 24 H -4.96753 -0.410699 -1.45392 0
M  V30 25 H -4.59143 -1.60924 -0.166855 0
M  V30 26 H -3.36984 -0.585812 1.68462 0
M  V30 27 H -2.25254 0.801604 1.3892 0
M  V30 28 H -1.97274 -1.9999 0.234575 0
M  V30 29 H -1.15011 -1.48987 1.79521 0
M  V30 30 H -0.381127 -0.0136768 -2.01259 0
M  V30 31 H -0.952802 1.35564 -0.983278 0
M  V30 32 H -2.3545 -1.29323 -1.63849 0
M  V30 33 H -2.80489 0.336327 -2.32045 0
M  V30 34 H 1.39768 0.625058 -1.29402 0
M  V30 35 H 3.4855 0.813662 -2.34444 0
M  V30 36 H 5.89478 0.899115 -2.13713 0
M  V30 37 H 5.69631 -0.513881 1.81176 0
M  V30 38 H 3.28148 -0.627021 1.71743 0
M  V30 39 H 7.84975 0.968297 0.515714 0
M  V30 40 H 7.9704 -0.351733 -0.675873 0
M  V30 END ATOM
M  V30 BEGIN BOND
M  V30 1 1 1 2
M  V30 2 1 2 3
M  V30 3 1 3 4
M  V30 4 1 4 5
M  V30 5 1 5 6
M  V30 6 1 6 7
M  V30 7 1 7 8
M  V30 8 1 8 9
M  V30 9 1 7 10
M  V30 10 2 10 11
M  V30 11 1 10 12
M  V30 12 1 12 13
M  V30 13 2 13 14
M  V30 14 1 14 15
M  V30 15 2 15 16
M  V30 16 1 16 17
M  V30 17 2 17 18
M  V30 18 1 16 19
M  V30 19 1 9 4
M  V30 20 1 18 13
M  V30 21 1 1 20
M  V30 22 1 1 21
M  V30 23 1 2 22
M  V30 24 1 2 23
M  V30 25 1 3 24
M  V30 26 1 3 25
M  V30 27 1 5 26
M  V30 28 1 5 27
M  V30 29 1 6 28
M  V30 30 1 6 29
M  V30 31 1 8 30
M  V30 32 1 8 31
M  V30 33 1 9 32
M  V30 34 1 9 33
M  V30 35 1 12 34
M  V30 36 1 14 35
M  V30 37 1 15 36
M  V30 38 1 17 37
M  V30 39 1 18 38
M  V30 40 1 19 39
M  V30 41 1 19 40
M  V30 END BOND
M  V30 END CTAB
M  END
