
     RDKit          3D

  0  0  0  0  0  0  0  0  0  0999 V3000
M  V30 BEGIN CTAB
M  V30 COUNTS 20 20 0 0 0
M  V30 BEGIN ATOM
M  V30 1 N 4.26644 -0.453109 -0.12511 0
M  V30 2 C 3.1544 -0.120213 -0.081022 0
M  V30 3 C 1.77901 0.291859 -0.00476158 0
M  V30 4 C 1.38751 1.59989 0.157201 0
M  V30 5 C 0.0709444 2.00066 0.230957 0
M  V30 6 C -0.918807 1.023 0.135762 0
M  V30 7 C -0.576453 -0.301233 -0.0271251 0
M  V30 8 C 0.773621 -0.664168 -0.0971015 0
M  V30 9 N 1.1275 -2.0134 -0.263167 0
M  V30 10 C -1.66692 -1.29258 -0.121889 0
M  V30 11 F -2.43843 -1.26225 1.04663 0
M  V30 12 F -2.46947 -1.08849 -1.23171 0
M  V30 13 F -1.152 -2.57545 -0.191781 0
M  V30 14 N -2.26481 1.3971 0.206943 0
M  V30 15 H 2.18448 2.33616 0.227843 0
M  V30 16 H -0.213893 3.05 0.360294 0
M  V30 17 H 1.40452 -2.54923 0.590613 0
M  V30 18 H 1.1384 -2.53149 -1.16895 0
M  V30 19 H -2.648 1.97721 -0.596626 0
M  V30 20 H -2.93805 1.17575 0.95299 0
M  V30 END ATOM
M  V30 BEGIN BOND
M  V30 1 3 1 2
M  V30 2 1 2 3
M  V30 3 2 3 4
M  V30 4 1 4 5
M  V30 5 2 5 6
M  V30 6 1 6 7
M  V30 7 2 7 8
M  V30 8 1 8 9
M  V30 9 1 7 10
M  V30 10 1 10 11
M  V30 11 1 10 12
M  V30 12 1 10 13
M  V30 13 1 6 14
M  V30 14 1 8 3
M  V30 15 1 4 15
M  V30 16 1 5 16
M  V30 17 1 9 17
M  V30 18 1 9 18
M  V30 19 1 14 19
M  V30 20 1 14 20
M  V30 END BOND
M  V30 END CTAB
M  END
