
     RDKit          3D

  0  0  0  0  0  0  0  0  0  0999 V3000
M  V30 BEGIN CTAB
M  V30 COUNTS 41 43 0 0 0
M  V30 BEGIN ATOM
M  V30 1 F 6.13238 -2.29475 1.17799 0
M  V30 2 C 5.01233 -1.75247 0.660969 0
M  V30 3 C 5.01712 -0.476308 0.139004 0
M  V30 4 C 3.85902 0.0668567 -0.388234 0
M  V30 5 C 2.66908 -0.663663 -0.401673 0
M  V30 6 C 2.68931 -1.93238 0.123843 0
M  V30 7 C 3.8365 -2.468 0.644982 0
M  V30 8 C 1.43041 -0.0878823 -0.966825 0
M  V30 9 C 0.644525 0.651357 0.107788 0
M  V30 10 N -0.575093 1.2154 -0.444709 0
M  V30 11 C -0.724355 2.62294 -0.566975 0
M  V30 12 N -1.76036 3.20931 -1.04969 0
M  V30 13 C -2.84486 2.42203 -1.49863 0
M  V30 14 N -2.76405 1.14844 -1.41042 0
M  V30 15 C -1.6693 0.372738 -0.89186 0
M  V30 16 C -2.09531 -0.588415 0.135475 0
M  V30 17 C -2.28045 -0.172006 1.4321 0
M  V30 18 C -2.68679 -1.0696 2.42627 0
M  V30 19 C -2.90499 -2.37663 2.1183 0
M  V30 20 C -2.7255 -2.82075 0.820625 0
M  V30 21 C -2.32011 -1.91429 -0.160729 0
M  V30 22 Cl -3.01369 -4.51115 0.453358 0
M  V30 23 N -4.03211 3.05053 -2.0506 0
M  V30 24 N 0.387987 3.41926 -0.107444 0
M  V30 25 H 5.93759 0.0645733 0.159152 0
M  V30 26 H 3.85307 1.07112 -0.801523 0
M  V30 27 H 1.76889 -2.48952 0.109954 0
M  V30 28 H 3.81779 -3.46527 1.04828 0
M  V30 29 H 0.845641 -0.888988 -1.44025 0
M  V30 30 H 1.75339 0.670984 -1.71978 0
M  V30 31 H 1.31724 1.44024 0.494023 0
M  V30 32 H 0.417537 -0.0219967 0.942061 0
M  V30 33 H -1.25669 -0.206249 -1.7719 0
M  V30 34 H -2.12699 0.846978 1.75251 0
M  V30 35 H -2.82199 -0.702241 3.43655 0
M  V30 36 H -3.21872 -3.04737 2.90828 0
M  V30 37 H -2.19765 -2.32092 -1.15505 0
M  V30 38 H -4.24777 3.06732 -3.04958 0
M  V30 39 H -4.67811 3.49889 -1.36675 0
M  V30 40 H 0.235959 4.02465 0.719311 0
M  V30 41 H 1.31911 3.40722 -0.568195 0
M  V30 END ATOM
M  V30 BEGIN BOND
M  V30 1 1 1 2
M  V30 2 2 2 3
M  V30 3 1 3 4
M  V30 4 2 4 5
M  V30 5 1 5 6
M  V30 6 2 6 7
M  V30 7 1 5 8
M  V30 8 1 8 9
M  V30 9 1 9 10
M  V30 10 1 10 11
M  V30 11 2 11 12
M  V30 12 1 12 13
M  V30 13 2 13 14
M  V30 14 1 14 15
M  V30 15 1 15 16
M  V30 16 2 16 17
M  V30 17 1 17 18
M  V30 18 2 18 19
M  V30 19 1 19 20
M  V30 20 2 20 21
M  V30 21 1 20 22
M  V30 22 1 13 23
M  V30 23 1 11 24
M  V30 24 1 7 2
M  V30 25 1 15 10
M  V30 26 1 21 16
M  V30 27 1 3 25
M  V30 28 1 4 26
M  V30 29 1 6 27
M  V30 30 1 7 28
M  V30 31 1 8 29
M  V30 32 1 8 30
M  V30 33 1 9 31
M  V30 34 1 9 32
M  V30 35 1 15 33
M  V30 36 1 17 34
M  V30 37 1 18 35
M  V30 38 1 19 36
M  V30 39 1 21 37
M  V30 40 1 23 38
M  V30 41 1 23 39
M  V30 42 1 24 40
M  V30 43 1 24 41
M  V30 END BOND
M  V30 END CTAB
M  END
