
     RDKit          3D

  0  0  0  0  0  0  0  0  0  0999 V3000
M  V30 BEGIN CTAB
M  V30 COUNTS 22 22 0 0 0
M  V30 BEGIN ATOM
M  V30 1 C -2.97805 -0.191985 -0.660801 0
M  V30 2 C -2.22945 -0.265172 0.656836 0
M  V30 3 C -0.763599 -0.343227 0.442124 0
M  V30 4 N 0.0619134 -1.39604 0.477401 0
M  V30 5 N 1.30734 -1.02309 0.20745 0
M  V30 6 C 1.34874 0.309939 -0.0195979 0
M  V30 7 C 0.0293768 0.739027 0.131642 0
M  V30 8 N -0.394262 2.07352 -0.00999463 0
M  V30 9 N 2.45943 1.14113 -0.347513 0
M  V30 10 C 2.49553 -1.86428 0.146598 0
M  V30 11 H -3.64653 0.709268 -0.601521 0
M  V30 12 H -2.29547 -0.150234 -1.53531 0
M  V30 13 H -3.60476 -1.09765 -0.776115 0
M  V30 14 H -2.53267 -1.14288 1.23898 0
M  V30 15 H -2.45176 0.643934 1.28096 0
M  V30 16 H -0.286212 2.72615 0.806451 0
M  V30 17 H -0.80611 2.46249 -0.878053 0
M  V30 18 H 2.78581 1.34015 -1.31414 0
M  V30 19 H 2.97262 1.5724 0.443145 0
M  V30 20 H 3.30606 -1.3357 -0.406987 0
M  V30 21 H 2.31138 -2.80102 -0.427258 0
M  V30 22 H 2.91069 -2.10672 1.14571 0
M  V30 END ATOM
M  V30 BEGIN BOND
M  V30 1 1 1 2
M  V30 2 1 2 3
M  V30 3 2 3 4
M  V30 4 1 4 5
M  V30 5 1 5 6
M  V30 6 2 6 7
M  V30 7 1 7 8
M  V30 8 1 6 9
M  V30 9 1 5 10
M  V30 10 1 7 3
M  V30 11 1 1 11
M  V30 12 1 1 12
M  V30 13 1 1 13
M  V30 14 1 2 14
M  V30 15 1 2 15
M  V30 16 1 8 16
M  V30 17 1 8 17
M  V30 18 1 9 18
M  V30 19 1 9 19
M  V30 20 1 10 20
M  V30 21 1 10 21
M  V30 22 1 10 22
M  V30 END BOND
M  V30 END CTAB
M  END
