
     RDKit          3D

  0  0  0  0  0  0  0  0  0  0999 V3000
M  V30 BEGIN CTAB
M  V30 COUNTS 48 52 0 0 0
M  V30 BEGIN ATOM
M  V30 1 N 1.24361 -2.19148 1.76097 0
M  V30 2 C 1.22877 -1.07145 0.879785 0
M  V30 3 C 2.41185 -0.548815 0.39444 0
M  V30 4 C 3.63484 -1.08444 0.740074 0
M  V30 5 O 3.6636 -2.08087 1.52305 0
M  V30 6 C 4.83642 -0.57793 0.266272 0
M  V30 7 C 6.03635 -1.16486 0.653752 0
M  V30 8 C 7.25392 -0.693344 0.206508 0
M  V30 9 C 7.24282 0.390825 -0.646687 0
M  V30 10 C 6.04285 0.981547 -1.03715 0
M  V30 11 C 4.83061 0.50585 -0.586942 0
M  V30 12 C 3.61728 1.0538 -0.942884 0
M  V30 13 O 3.60541 2.04365 -1.72174 0
M  V30 14 C 2.42294 0.538768 -0.462818 0
M  V30 15 C 1.19676 1.06948 -0.804386 0
M  V30 16 N 1.17524 2.18401 -1.68085 0
M  V30 17 C 0.00281311 0.548378 -0.319569 0
M  V30 18 C 0.0143019 -0.536339 0.534025 0
M  V30 19 C -1.30725 -0.812474 0.833846 0
M  V30 20 O -1.68585 -1.75448 1.59933 0
M  V30 21 N -2.11969 0.043826 0.210058 0
M  V30 22 C -3.58261 0.0571757 0.290671 0
M  V30 23 C -4.11429 -1.20139 -0.311959 0
M  V30 24 C -5.62107 -1.09649 -0.410747 0
M  V30 25 C -6.12029 -0.00692805 0.537778 0
M  V30 26 C -5.63753 1.34261 0.0869379 0
M  V30 27 C -4.15126 1.30887 -0.293394 0
M  V30 28 C -1.32859 0.872598 -0.491961 0
M  V30 29 O -1.69476 1.82872 -1.22217 0
M  V30 30 H 1.44072 -3.1458 1.36313 0
M  V30 31 H 1.06836 -2.11182 2.78305 0
M  V30 32 H 6.04992 -2.02677 1.33173 0
M  V30 33 H 8.19831 -1.15146 0.508449 0
M  V30 34 H 8.197 0.756923 -0.994513 0
M  V30 35 H 6.06475 1.82634 -1.70386 0
M  V30 36 H 1.25746 2.09597 -2.71651 0
M  V30 37 H 1.06892 3.13171 -1.2182 0
M  V30 38 H -3.86047 0.0465175 1.38237 0
M  V30 39 H -3.90763 -2.02833 0.426896 0
M  V30 40 H -3.63815 -1.47289 -1.27379 0
M  V30 41 H -5.95109 -0.795355 -1.42493 0
M  V30 42 H -6.11646 -2.04137 -0.102962 0
M  V30 43 H -5.87115 -0.236799 1.59286 0
M  V30 44 H -7.22939 -0.00676561 0.455427 0
M  V30 45 H -5.82842 2.07769 0.895994 0
M  V30 46 H -6.25356 1.64718 -0.788982 0
M  V30 47 H -3.68782 2.17302 0.186653 0
M  V30 48 H -4.09848 1.31319 -1.4015 0
M  V30 END ATOM
M  V30 BEGIN BOND
M  V30 1 1 1 2
M  V30 2 2 2 3
M  V30 3 1 3 4
M  V30 4 2 4 5
M  V30 5 1 4 6
M  V30 6 2 6 7
M  V30 7 1 7 8
M  V30 8 2 8 9
M  V30 9 1 9 10
M  V30 10 2 10 11
M  V30 11 1 11 12
M  V30 12 2 12 13
M  V30 13 1 12 14
M  V30 14 2 14 15
M  V30 15 1 15 16
M  V30 16 1 15 17
M  V30 17 2 17 18
M  V30 18 1 18 19
M  V30 19 2 19 20
M  V30 20 1 19 21
M  V30 21 1 21 22
M  V30 22 1 22 23
M  V30 23 1 23 24
M  V30 24 1 24 25
M  V30 25 1 25 26
M  V30 26 1 26 27
M  V30 27 1 21 28
M  V30 28 2 28 29
M  V30 29 1 18 2
M  V30 30 1 27 22
M  V30 31 1 14 3
M  V30 32 1 28 17
M  V30 33 1 11 6
M  V30 34 1 1 30
M  V30 35 1 1 31
M  V30 36 1 7 32
M  V30 37 1 8 33
M  V30 38 1 9 34
M  V30 39 1 10 35
M  V30 40 1 16 36
M  V30 41 1 16 37
M  V30 42 1 22 38
M  V30 43 1 23 39
M  V30 44 1 23 40
M  V30 45 1 24 41
M  V30 46 1 24 42
M  V30 47 1 25 43
M  V30 48 1 25 44
M  V30 49 1 26 45
M  V30 50 1 26 46
M  V30 51 1 27 47
M  V30 52 1 27 48
M  V30 END BOND
M  V30 END CTAB
M  END
