
     RDKit          3D

  0  0  0  0  0  0  0  0  0  0999 V3000
M  V30 BEGIN CTAB
M  V30 COUNTS 44 45 0 0 0
M  V30 BEGIN ATOM
M  V30 1 C -5.4546 2.89717 -1.62956 0
M  V30 2 C -4.96155 1.48605 -1.38496 0
M  V30 3 C -3.56706 1.58436 -0.798845 0
M  V30 4 O -3.02709 0.30275 -0.54358 0
M  V30 5 C -1.75261 0.229051 -0.00113474 0
M  V30 6 C -1.19751 -1.03251 0.260844 0
M  V30 7 O -1.96063 -2.10702 -0.0388412 0
M  V30 8 C -1.75738 -3.46362 0.0979662 0
M  V30 9 C -1.57545 -3.96146 1.50623 0
M  V30 10 C 0.0681801 -1.09284 0.798622 0
M  V30 11 C 0.826756 0.0455679 1.09574 0
M  V30 12 C 2.15072 -0.0567063 1.66536 0
M  V30 13 C 3.32878 0.109667 0.840419 0
M  V30 14 C 4.54081 0.178351 1.55896 0
M  V30 15 N 5.70706 0.329349 0.919947 0
M  V30 16 C 5.78828 0.422843 -0.414473 0
M  V30 17 N 7.07192 0.584504 -1.03545 0
M  V30 18 N 4.65882 0.360745 -1.12368 0
M  V30 19 C 3.43648 0.205845 -0.513119 0
M  V30 20 N 2.32544 0.142889 -1.35878 0
M  V30 21 C 0.257953 1.26611 0.829766 0
M  V30 22 Br 1.18528 2.8947 1.20152 0
M  V30 23 C -1.0265 1.36261 0.283203 0
M  V30 24 H -5.26424 3.5144 -0.744273 0
M  V30 25 H -6.53013 2.90278 -1.93151 0
M  V30 26 H -4.92188 3.37141 -2.48691 0
M  V30 27 H -5.66915 1.03175 -0.630924 0
M  V30 28 H -5.03286 0.847927 -2.26509 0
M  V30 29 H -3.63159 2.2231 0.0999297 0
M  V30 30 H -2.95945 2.16144 -1.54011 0
M  V30 31 H -0.828812 -3.81521 -0.455258 0
M  V30 32 H -2.5653 -4.07871 -0.364461 0
M  V30 33 H -0.547899 -3.94518 1.85551 0
M  V30 34 H -2.31384 -3.46505 2.17954 0
M  V30 35 H -1.88745 -5.04561 1.51836 0
M  V30 36 H 0.485316 -2.07017 0.984631 0
M  V30 37 H 2.28187 0.70082 2.52824 0
M  V30 38 H 2.30176 -1.03163 2.23899 0
M  V30 39 H 4.57434 0.111146 2.63851 0
M  V30 40 H 7.58061 -0.246999 -1.41693 0
M  V30 41 H 7.50928 1.513 -1.11865 0
M  V30 42 H 1.91942 1.02776 -1.74608 0
M  V30 43 H 1.86967 -0.740054 -1.6492 0
M  V30 44 H -1.43573 2.34467 0.0895329 0
M  V30 END ATOM
M  V30 BEGIN BOND
M  V30 1 1 1 2
M  V30 2 1 2 3
M  V30 3 1 3 4
M  V30 4 1 4 5
M  V30 5 2 5 6
M  V30 6 1 6 7
M  V30 7 1 7 8
M  V30 8 1 8 9
M  V30 9 1 6 10
M  V30 10 2 10 11
M  V30 11 1 11 12
M  V30 12 1 12 13
M  V30 13 2 13 14
M  V30 14 1 14 15
M  V30 15 2 15 16
M  V30 16 1 16 17
M  V30 17 1 16 18
M  V30 18 2 18 19
M  V30 19 1 19 20
M  V30 20 1 11 21
M  V30 21 1 21 22
M  V30 22 2 21 23
M  V30 23 1 23 5
M  V30 24 1 19 13
M  V30 25 1 1 24
M  V30 26 1 1 25
M  V30 27 1 1 26
M  V30 28 1 2 27
M  V30 29 1 2 28
M  V30 30 1 3 29
M  V30 31 1 3 30
M  V30 32 1 8 31
M  V30 33 1 8 32
M  V30 34 1 9 33
M  V30 35 1 9 34
M  V30 36 1 9 35
M  V30 37 1 10 36
M  V30 38 1 12 37
M  V30 39 1 12 38
M  V30 40 1 14 39
M  V30 41 1 17 40
M  V30 42 1 17 41
M  V30 43 1 20 42
M  V30 44 1 20 43
M  V30 45 1 23 44
M  V30 END BOND
M  V30 END CTAB
M  END
