
     RDKit          3D

  0  0  0  0  0  0  0  0  0  0999 V3000
M  V30 BEGIN CTAB
M  V30 COUNTS 46 47 0 0 0
M  V30 BEGIN ATOM
M  V30 1 C 6.39678 0.821875 0.85241 0
M  V30 2 O 5.323 0.215647 0.73142 0
M  V30 3 C 4.18156 -0.431584 0.60136 0
M  V30 4 C 4.21216 -1.70197 -0.0475948 0
M  V30 5 C 3.07789 -2.41607 -0.201513 0
M  V30 6 C 1.84304 -1.98584 0.242765 0
M  V30 7 C 0.759999 -2.9083 0.168475 0
M  V30 8 C -0.493778 -2.63929 -0.00789969 0
M  V30 9 C -1.13561 -1.38146 -0.20015 0
M  V30 10 C -2.40745 -1.22745 0.394016 0
M  V30 11 N -2.87989 -2.2725 1.2058 0
M  V30 12 C -3.18311 -0.120032 0.18973 0
M  V30 13 O -4.44692 -0.0142012 0.812029 0
M  V30 14 C -5.5872 -0.477685 0.116752 0
M  V30 15 C -2.72127 0.874415 -0.617489 0
M  V30 16 O -3.51502 1.99999 -0.820836 0
M  V30 17 C -3.40003 3.12585 0.0633141 0
M  V30 18 C -1.47331 0.810399 -1.25384 0
M  V30 19 O -1.09964 1.79756 -2.00952 0
M  V30 20 C -0.585764 2.69269 -2.78678 0
M  V30 21 C -0.741875 -0.350612 -0.994444 0
M  V30 22 C 1.82498 -0.78279 0.856486 0
M  V30 23 C 2.96408 0.00839968 1.04559 0
M  V30 24 N 2.84082 1.26739 1.67539 0
M  V30 25 H 6.55201 1.82559 0.278817 0
M  V30 26 H 7.37368 0.247741 0.570445 0
M  V30 27 H 6.64317 1.23135 1.91759 0
M  V30 28 H 5.17659 -2.00878 -0.387774 0
M  V30 29 H 3.13359 -3.3759 -0.69481 0
M  V30 30 H 1.01619 -4.01993 0.281927 0
M  V30 31 H -1.15587 -3.55121 -0.00383873 0
M  V30 32 H -3.90314 -2.55514 1.16755 0
M  V30 33 H -2.26982 -2.78751 1.84898 0
M  V30 34 H -6.40592 -0.678633 0.812072 0
M  V30 35 H -5.96072 0.320812 -0.575736 0
M  V30 36 H -5.42019 -1.36794 -0.498717 0
M  V30 37 H -2.39173 3.54533 0.020563 0
M  V30 38 H -3.56674 2.76167 1.11322 0
M  V30 39 H -4.19976 3.87032 -0.140428 0
M  V30 40 H -0.518244 2.30816 -3.86138 0
M  V30 41 H 0.518824 2.88955 -2.56851 0
M  V30 42 H -1.09085 3.70694 -2.8562 0
M  V30 43 H 0.200545 -0.398637 -1.53306 0
M  V30 44 H 0.92172 -0.336771 1.31214 0
M  V30 45 H 2.94596 2.10862 1.09713 0
M  V30 46 H 2.64728 1.35993 2.68453 0
M  V30 END ATOM
M  V30 BEGIN BOND
M  V30 1 1 1 2
M  V30 2 1 2 3
M  V30 3 2 3 4
M  V30 4 1 4 5
M  V30 5 2 5 6
M  V30 6 1 6 7
M  V30 7 2 7 8
M  V30 8 1 8 9
M  V30 9 2 9 10
M  V30 10 1 10 11
M  V30 11 1 10 12
M  V30 12 1 12 13
M  V30 13 1 13 14
M  V30 14 2 12 15
M  V30 15 1 15 16
M  V30 16 1 16 17
M  V30 17 1 15 18
M  V30 18 1 18 19
M  V30 19 1 19 20
M  V30 20 2 18 21
M  V30 21 1 6 22
M  V30 22 2 22 23
M  V30 23 1 23 24
M  V30 24 1 23 3
M  V30 25 1 21 9
M  V30 26 1 1 25
M  V30 27 1 1 26
M  V30 28 1 1 27
M  V30 29 1 4 28
M  V30 30 1 5 29
M  V30 31 1 7 30
M  V30 32 1 8 31
M  V30 33 1 11 32
M  V30 34 1 11 33
M  V30 35 1 14 34
M  V30 36 1 14 35
M  V30 37 1 14 36
M  V30 38 1 17 37
M  V30 39 1 17 38
M  V30 40 1 17 39
M  V30 41 1 20 40
M  V30 42 1 20 41
M  V30 43 1 20 42
M  V30 44 1 21 43
M  V30 45 1 22 44
M  V30 46 1 24 45
M  V30 47 1 24 46
M  V30 END BOND
M  V30 END CTAB
M  END
