
     RDKit          3D

  0  0  0  0  0  0  0  0  0  0999 V3000
M  V30 BEGIN CTAB
M  V30 COUNTS 48 50 0 0 0
M  V30 BEGIN ATOM
M  V30 1 O 1.29935 1.82878 -0.760834 0
M  V30 2 C 1.75016 0.687535 -0.500535 0
M  V30 3 N 0.889939 -0.427309 -0.535971 0
M  V30 4 C -0.463104 -0.4635 -0.830924 0
M  V30 5 O -1.03621 -1.6158 -0.796603 0
M  V30 6 N -1.27273 0.611426 -1.16098 0
M  V30 7 C -2.71973 0.444891 -1.45788 0
M  V30 8 C -3.50814 1.3334 -0.536694 0
M  V30 9 C -3.26901 0.986828 0.926461 0
M  V30 10 C -4.63605 0.891336 1.56797 0
M  V30 11 C -5.4221 1.8492 0.652755 0
M  V30 12 C -4.9871 1.15387 -0.656414 0
M  V30 13 C -5.42717 -0.260339 -0.325258 0
M  V30 14 C -5.23942 -0.41335 1.17304 0
M  V30 15 C -3.02063 0.855707 -2.88245 0
M  V30 16 C 3.21873 0.543535 -0.153136 0
M  V30 17 S 3.5413 -1.18733 0.160398 0
M  V30 18 C 5.27124 -1.39668 0.578513 0
M  V30 19 N 6.18599 -1.62423 -0.378315 0
M  V30 20 C 7.48359 -1.77911 -0.0375844 0
M  V30 21 N 8.47067 -2.02054 -1.03103 0
M  V30 22 N 7.78805 -1.69354 1.27539 0
M  V30 23 C 6.87225 -1.46662 2.22437 0
M  V30 24 N 5.59064 -1.31426 1.88144 0
M  V30 25 N 7.27775 -1.39159 3.58446 0
M  V30 26 H 1.39535 -1.36376 -0.292787 0
M  V30 27 H -0.910799 1.57931 -1.21674 0
M  V30 28 H -2.92352 -0.617172 -1.35242 0
M  V30 29 H -3.25663 2.38011 -0.704403 0
M  V30 30 H -2.73202 0.0174342 0.937214 0
M  V30 31 H -2.63769 1.76658 1.41606 0
M  V30 32 H -4.67937 1.15999 2.60444 0
M  V30 33 H -6.49838 1.7474 0.807022 0
M  V30 34 H -5.0236 2.86015 0.718238 0
M  V30 35 H -5.45478 1.579 -1.52691 0
M  V30 36 H -4.84482 -1.03404 -0.817929 0
M  V30 37 H -6.48805 -0.375567 -0.628184 0
M  V30 38 H -6.2645 -0.522446 1.62391 0
M  V30 39 H -4.61381 -1.29355 1.42067 0
M  V30 40 H -3.20398 1.93273 -2.9909 0
M  V30 41 H -3.97854 0.330629 -3.16669 0
M  V30 42 H -2.21708 0.529854 -3.56423 0
M  V30 43 H 3.44797 1.15067 0.735335 0
M  V30 44 H 3.77818 0.950603 -1.02625 0
M  V30 45 H 8.42067 -2.89776 -1.58769 0
M  V30 46 H 9.21697 -1.30709 -1.1707 0
M  V30 47 H 7.95687 -2.06455 3.98608 0
M  V30 48 H 6.87327 -0.640839 4.16751 0
M  V30 END ATOM
M  V30 BEGIN BOND
M  V30 1 2 1 2
M  V30 2 1 2 3
M  V30 3 1 3 4
M  V30 4 2 4 5
M  V30 5 1 4 6
M  V30 6 1 6 7
M  V30 7 1 7 8
M  V30 8 1 8 9
M  V30 9 1 9 10
M  V30 10 1 10 11
M  V30 11 1 11 12
M  V30 12 1 12 13
M  V30 13 1 13 14
M  V30 14 1 7 15
M  V30 15 1 2 16
M  V30 16 1 16 17
M  V30 17 1 17 18
M  V30 18 2 18 19
M  V30 19 1 19 20
M  V30 20 1 20 21
M  V30 21 2 20 22
M  V30 22 1 22 23
M  V30 23 2 23 24
M  V30 24 1 23 25
M  V30 25 1 12 8
M  V30 26 1 24 18
M  V30 27 1 14 10
M  V30 28 1 3 26
M  V30 29 1 6 27
M  V30 30 1 7 28
M  V30 31 1 8 29
M  V30 32 1 9 30
M  V30 33 1 9 31
M  V30 34 1 10 32
M  V30 35 1 11 33
M  V30 36 1 11 34
M  V30 37 1 12 35
M  V30 38 1 13 36
M  V30 39 1 13 37
M  V30 40 1 14 38
M  V30 41 1 14 39
M  V30 42 1 15 40
M  V30 43 1 15 41
M  V30 44 1 15 42
M  V30 45 1 16 43
M  V30 46 1 16 44
M  V30 47 1 21 45
M  V30 48 1 21 46
M  V30 49 1 25 47
M  V30 50 1 25 48
M  V30 END BOND
M  V30 END CTAB
M  END
