
     RDKit          3D

  0  0  0  0  0  0  0  0  0  0999 V3000
M  V30 BEGIN CTAB
M  V30 COUNTS 26 27 0 0 0
M  V30 BEGIN ATOM
M  V30 1 N 2.78879 -1.02701 2.20981 0
M  V30 2 C 2.52969 -0.389441 0.965265 0
M  V30 3 C 1.20191 -0.230585 0.56484 0
M  V30 4 C 0.898811 0.380253 -0.631419 0
M  V30 5 N -0.470569 0.518771 -0.995686 0
M  V30 6 C -1.53699 0.0359983 -0.143557 0
M  V30 7 C -2.8829 0.29346 -0.734887 0
M  V30 8 C -4.0416 -0.194167 0.120038 0
M  V30 9 C -3.7636 -0.814114 -1.18305 0
M  V30 10 N 1.90283 0.818425 -1.40218 0
M  V30 11 C 3.20312 0.669848 -1.02349 0
M  V30 12 N 3.49339 0.0698511 0.151008 0
M  V30 13 N 4.27151 1.13232 -1.83637 0
M  V30 14 H 3.52675 -1.75309 2.3379 0
M  V30 15 H 2.21034 -0.748126 3.0193 0
M  V30 16 H 0.428162 -0.598412 1.21679 0
M  V30 17 H -0.752666 0.978411 -1.89974 0
M  V30 18 H -1.46822 0.639633 0.803328 0
M  V30 19 H -1.38213 -1.01541 0.162741 0
M  V30 20 H -2.98109 1.28889 -1.22283 0
M  V30 21 H -3.83142 -0.784286 1.01623 0
M  V30 22 H -4.86664 0.554145 0.249732 0
M  V30 23 H -4.43057 -0.563678 -2.04196 0
M  V30 24 H -3.43072 -1.86351 -1.19568 0
M  V30 25 H 5.21171 0.682129 -1.78019 0
M  V30 26 H 4.17211 1.91969 -2.50818 0
M  V30 END ATOM
M  V30 BEGIN BOND
M  V30 1 1 1 2
M  V30 2 2 2 3
M  V30 3 1 3 4
M  V30 4 1 4 5
M  V30 5 1 5 6
M  V30 6 1 6 7
M  V30 7 1 7 8
M  V30 8 1 8 9
M  V30 9 2 4 10
M  V30 10 1 10 11
M  V30 11 2 11 12
M  V30 12 1 11 13
M  V30 13 1 12 2
M  V30 14 1 9 7
M  V30 15 1 1 14
M  V30 16 1 1 15
M  V30 17 1 3 16
M  V30 18 1 5 17
M  V30 19 1 6 18
M  V30 20 1 6 19
M  V30 21 1 7 20
M  V30 22 1 8 21
M  V30 23 1 8 22
M  V30 24 1 9 23
M  V30 25 1 9 24
M  V30 26 1 13 25
M  V30 27 1 13 26
M  V30 END BOND
M  V30 END CTAB
M  END
