
     RDKit          3D

  0  0  0  0  0  0  0  0  0  0999 V3000
M  V30 BEGIN CTAB
M  V30 COUNTS 38 39 0 0 0
M  V30 BEGIN ATOM
M  V30 1 O -0.484583 -1.72386 -0.383643 0
M  V30 2 C -0.283275 -0.527565 -0.160923 0
M  V30 3 N -1.31069 0.401923 0.0369425 0
M  V30 4 C -2.70065 0.208586 0.0342872 0
M  V30 5 C -3.26858 -1.0363 0.0918511 0
M  V30 6 C -4.67223 -1.13551 0.0627394 0
M  V30 7 C -5.22814 -2.51034 0.127524 0
M  V30 8 C -5.45552 -0.00685317 -0.0211964 0
M  V30 9 C -4.9043 1.26035 -0.0799743 0
M  V30 10 C -3.53255 1.33647 -0.0505621 0
M  V30 11 C -5.75786 2.47425 -0.170284 0
M  V30 12 C 1.12982 -0.0628943 -0.102443 0
M  V30 13 S 2.28416 -1.43244 -0.387596 0
M  V30 14 C 3.93527 -0.756657 -0.294103 0
M  V30 15 N 4.17657 0.548859 -0.0507924 0
M  V30 16 C 5.42443 1.04583 0.0172328 0
M  V30 17 N 5.73003 2.40095 0.26862 0
M  V30 18 C 6.4608 0.15901 -0.173581 0
M  V30 19 C 6.24507 -1.18402 -0.424573 0
M  V30 20 N 4.97802 -1.6184 -0.480281 0
M  V30 21 N 7.34214 -2.05665 -0.613988 0
M  V30 22 H -1.01258 1.43149 0.227706 0
M  V30 23 H -2.686 -1.9518 0.168347 0
M  V30 24 H -4.5792 -3.16558 -0.477256 0
M  V30 25 H -5.21464 -2.80078 1.21539 0
M  V30 26 H -6.27367 -2.4693 -0.26089 0
M  V30 27 H -6.54638 -0.1079 -0.0424647 0
M  V30 28 H -3.12164 2.33862 -0.0981932 0
M  V30 29 H -5.74164 3.00278 0.797944 0
M  V30 30 H -5.48899 3.12997 -1.00829 0
M  V30 31 H -6.80348 2.13933 -0.337895 0
M  V30 32 H 1.33635 0.71914 -0.869981 0
M  V30 33 H 1.39237 0.375509 0.882281 0
M  V30 34 H 5.58701 3.10578 -0.475108 0
M  V30 35 H 6.09538 2.69963 1.18692 0
M  V30 36 H 7.46541 0.540297 -0.122403 0
M  V30 37 H 7.24304 -2.84918 -1.27345 0
M  V30 38 H 8.24072 -1.92275 -0.110197 0
M  V30 END ATOM
M  V30 BEGIN BOND
M  V30 1 2 1 2
M  V30 2 1 2 3
M  V30 3 1 3 4
M  V30 4 2 4 5
M  V30 5 1 5 6
M  V30 6 1 6 7
M  V30 7 2 6 8
M  V30 8 1 8 9
M  V30 9 2 9 10
M  V30 10 1 9 11
M  V30 11 1 2 12
M  V30 12 1 12 13
M  V30 13 1 13 14
M  V30 14 2 14 15
M  V30 15 1 15 16
M  V30 16 1 16 17
M  V30 17 2 16 18
M  V30 18 1 18 19
M  V30 19 2 19 20
M  V30 20 1 19 21
M  V30 21 1 10 4
M  V30 22 1 20 14
M  V30 23 1 3 22
M  V30 24 1 5 23
M  V30 25 1 7 24
M  V30 26 1 7 25
M  V30 27 1 7 26
M  V30 28 1 8 27
M  V30 29 1 10 28
M  V30 30 1 11 29
M  V30 31 1 11 30
M  V30 32 1 11 31
M  V30 33 1 12 32
M  V30 34 1 12 33
M  V30 35 1 17 34
M  V30 36 1 17 35
M  V30 37 1 18 36
M  V30 38 1 21 37
M  V30 39 1 21 38
M  V30 END BOND
M  V30 END CTAB
M  END
