
     RDKit          3D

  0  0  0  0  0  0  0  0  0  0999 V3000
M  V30 BEGIN CTAB
M  V30 COUNTS 32 33 0 0 0
M  V30 BEGIN ATOM
M  V30 1 N -1.91467 2.07347 -0.00791966 0
M  V30 2 C -3.16359 1.57579 -0.469719 0
M  V30 3 C -3.09346 0.318305 -1.29391 0
M  V30 4 C -2.4879 -0.784005 -0.555671 0
M  V30 5 C -3.2068 -1.74325 0.153059 0
M  V30 6 N -2.31194 -2.56056 0.732048 0
M  V30 7 C -1.07037 -2.15193 0.413495 0
M  V30 8 C -1.1274 -1.03018 -0.401462 0
M  V30 9 C 0.0298515 -0.438649 -0.867378 0
M  V30 10 C 1.26481 -0.928109 -0.545674 0
M  V30 11 O 2.46149 -0.381844 -0.979486 0
M  V30 12 C 3.18445 0.549892 -0.243653 0
M  V30 13 O 2.68276 0.878475 0.870747 0
M  V30 14 C 4.46309 1.13317 -0.7181 0
M  V30 15 N 4.9672 2.01631 0.317446 0
M  V30 16 C 1.33263 -2.04083 0.264803 0
M  V30 17 C 0.182427 -2.63828 0.733201 0
M  V30 18 H -1.31986 2.53054 -0.729854 0
M  V30 19 H -1.962 2.69062 0.80967 0
M  V30 20 H -3.63881 2.39248 -1.06765 0
M  V30 21 H -3.82098 1.41358 0.431134 0
M  V30 22 H -2.55664 0.510591 -2.24982 0
M  V30 23 H -4.15156 0.0584593 -1.57395 0
M  V30 24 H -4.28129 -1.76497 0.186039 0
M  V30 25 H -2.60689 -3.37616 1.3305 0
M  V30 26 H -0.00859661 0.414144 -1.5088 0
M  V30 27 H 4.32759 1.71776 -1.65437 0
M  V30 28 H 5.25191 0.399446 -0.934607 0
M  V30 29 H 4.24222 2.65176 0.708928 0
M  V30 30 H 5.84043 2.50006 0.0172297 0
M  V30 31 H 2.28749 -2.47056 0.550999 0
M  V30 32 H 0.204386 -3.51554 1.37297 0
M  V30 END ATOM
M  V30 BEGIN BOND
M  V30 1 1 1 2
M  V30 2 1 2 3
M  V30 3 1 3 4
M  V30 4 2 4 5
M  V30 5 1 5 6
M  V30 6 1 6 7
M  V30 7 2 7 8
M  V30 8 1 8 9
M  V30 9 2 9 10
M  V30 10 1 10 11
M  V30 11 1 11 12
M  V30 12 2 12 13
M  V30 13 1 12 14
M  V30 14 1 14 15
M  V30 15 1 10 16
M  V30 16 2 16 17
M  V30 17 1 8 4
M  V30 18 1 17 7
M  V30 19 1 1 18
M  V30 20 1 1 19
M  V30 21 1 2 20
M  V30 22 1 2 21
M  V30 23 1 3 22
M  V30 24 1 3 23
M  V30 25 1 5 24
M  V30 26 1 6 25
M  V30 27 1 9 26
M  V30 28 1 14 27
M  V30 29 1 14 28
M  V30 30 1 15 29
M  V30 31 1 15 30
M  V30 32 1 16 31
M  V30 33 1 17 32
M  V30 END BOND
M  V30 END CTAB
M  END
