
     RDKit          3D

  0  0  0  0  0  0  0  0  0  0999 V3000
M  V30 BEGIN CTAB
M  V30 COUNTS 157 159 0 0 0
M  V30 BEGIN ATOM
M  V30 1 C -2.93189 1.15821 2.52722 0 CFG=1
M  V30 2 C -3.03481 2.33827 1.54218 0
M  V30 3 C -2.69275 1.95164 0.167636 0 CFG=1
M  V30 4 O -3.60035 2.42348 -0.787943 0
M  V30 5 C -4.28898 1.47097 -1.45255 0 CFG=2
M  V30 6 O -3.91397 1.53305 -2.80468 0
M  V30 7 C -4.3134 0.373947 -3.47006 0 CFG=2
M  V30 8 C -3.85487 0.579471 -4.91412 0
M  V30 9 C -5.81493 0.242028 -3.51259 0 CFG=1
M  V30 10 O -6.05898 -1.05708 -4.00973 0
M  V30 11 C -6.34249 0.363449 -2.10922 0 CFG=1
M  V30 12 C -5.8038 1.59543 -1.45025 0 CFG=2
M  V30 13 O -6.1789 2.73407 -2.18551 0
M  V30 14 N -7.77816 0.343847 -2.04972 0
M  V30 15 C -8.36633 0.435829 -0.780609 0
M  V30 16 C -8.10203 -0.764973 0.112609 0
M  V30 17 N -8.78823 -0.478889 1.37316 0
M  V30 18 C -8.41893 0.89625 -3.16626 0
M  V30 19 C -9.90848 0.744032 -3.14954 0
M  V30 20 C -10.3898 -0.683083 -3.13144 0
M  V30 21 N -11.861 -0.605047 -3.10944 0
M  V30 22 C -1.2903 2.06021 -0.242606 0
M  V30 23 C -0.242803 2.70253 0.12027 0
M  V30 24 C 0.11844 3.65977 1.12684 0
M  V30 25 C 0.51052 3.52761 2.39354 0
M  V30 26 C 0.696119 2.31046 3.15571 0
M  V30 27 C 1.61346 1.37735 3.05784 0
M  V30 28 C 2.75179 1.17284 2.21652 0
M  V30 29 C 3.91257 1.82745 2.11991 0
M  V30 30 C 4.41269 2.97579 2.83257 0
M  V30 31 C 4.40791 4.27616 2.54411 0
M  V30 32 C 3.9182 5.01882 1.42398 0
M  V30 33 C 4.52529 5.46463 0.317327 0
M  V30 34 C 5.89164 5.34499 -0.118516 0
M  V30 35 C 6.57051 4.49888 -0.825 0
M  V30 36 C 6.24384 3.25732 -1.51656 0 CFG=2
M  V30 37 C 4.77955 3.03241 -1.66305 0
M  V30 38 C 6.99389 2.11357 -0.861273 0 CFG=1
M  V30 39 O 6.17855 0.972349 -0.956076 0
M  V30 40 C 8.33227 1.83194 -1.51753 0 CFG=1
M  V30 41 C 9.38849 2.74876 -0.948954 0
M  V30 42 C 8.73116 0.412483 -1.08908 0 CFG=2
M  V30 43 C 10.182 0.124959 -1.41301 0
M  V30 44 O 7.87002 -0.488757 -1.76013 0
M  V30 45 C 7.99115 -1.8499 -1.7255 0
M  V30 46 O 7.78719 -2.5457 -2.74848 0
M  V30 47 C 8.37012 -2.54614 -0.472488 0
M  V30 48 C 7.16705 -2.95577 0.350116 0 CFG=2
M  V30 49 O 7.5515 -2.99174 1.67625 0
M  V30 50 C 6.58543 -4.2619 -0.0906343 0
M  V30 51 C 5.07465 -4.19834 0.0287975 0 CFG=2
M  V30 52 O 4.61534 -2.98621 0.521012 0
M  V30 53 C 4.5152 -5.29977 0.910672 0
M  V30 54 C 3.13699 -4.93208 1.43481 0
M  V30 55 C 2.0564 -5.3039 0.471219 0 CFG=1
M  V30 56 O 2.08521 -6.67446 0.264474 0
M  V30 57 C 0.710116 -4.95289 1.08353 0 CFG=2
M  V30 58 O -0.241377 -5.61054 0.306491 0
M  V30 59 C 0.462573 -3.46863 1.0387 0
M  V30 60 C -0.93533 -3.13566 1.46689 0 CFG=2
M  V30 61 O -1.81182 -3.94084 0.695462 0
M  V30 62 C -1.31101 -1.72547 1.17222 0
M  V30 63 C -2.1909 -1.06608 2.23207 0 CFG=2
M  V30 64 O -1.76316 -1.50504 3.50048 0
M  V30 65 C -3.62662 -1.50145 2.07818 0
M  V30 66 C -4.41018 -0.755178 3.16288 0 CFG=2
M  V30 67 O -5.73912 -1.17705 3.05244 0
M  V30 68 C -4.33323 0.696027 2.76776 0 CFG=1
M  V30 69 C -5.03654 1.5587 3.73789 0
M  V30 70 O -4.54015 1.70019 5.0262 0
M  V30 71 O -6.09562 2.20281 3.47098 0
M  V30 72 O -2.07031 0.265201 2.04323 0
M  V30 73 H -2.54964 1.55545 3.50447 0
M  V30 74 H -2.40183 3.14988 1.90396 0
M  V30 75 H -4.08639 2.76468 1.62444 0
M  V30 76 H -2.90102 0.815681 0.126118 0
M  V30 77 H -4.06106 0.425549 -1.15764 0
M  V30 78 H -3.85319 -0.535487 -3.08976 0
M  V30 79 H -2.7455 0.4759 -4.9037 0
M  V30 80 H -4.08918 1.62976 -5.16369 0
M  V30 81 H -4.33857 -0.136604 -5.5943 0
M  V30 82 H -6.1723 1.035 -4.18939 0
M  V30 83 H -6.08476 -1.04213 -4.99115 0
M  V30 84 H -5.96433 -0.520583 -1.53626 0
M  V30 85 H -6.19419 1.62024 -0.422115 0
M  V30 86 H -5.65654 2.7225 -3.03748 0
M  V30 87 H -9.4918 0.566243 -0.88397 0
M  V30 88 H -8.06348 1.3525 -0.251423 0
M  V30 89 H -7.02488 -0.842218 0.348148 0
M  V30 90 H -8.462 -1.69941 -0.32954 0
M  V30 91 H -9.8312 -0.592786 1.26424 0
M  V30 92 H -8.6743 0.553525 1.6084 0
M  V30 93 H -8.05782 0.335268 -4.08238 0
M  V30 94 H -8.21053 1.96893 -3.356 0
M  V30 95 H -10.3494 1.19912 -4.1027 0
M  V30 96 H -10.4384 1.30305 -2.35927 0
M  V30 97 H -10.0604 -1.15677 -4.09153 0
M  V30 98 H -10.0404 -1.23606 -2.27454 0
M  V30 99 H -12.1946 0.262971 -3.58274 0
M  V30 100 H -12.2231 -0.646113 -2.144 0
M  V30 101 H -1.10844 1.36231 -1.15515 0
M  V30 102 H 0.659425 2.45954 -0.583735 0
M  V30 103 H 0.0971445 4.73379 0.769746 0
M  V30 104 H 0.7191 4.46621 2.99169 0
M  V30 105 H -0.0980975 2.19841 3.9667 0
M  V30 106 H 1.45556 0.52282 3.80813 0
M  V30 107 H 2.66573 0.295369 1.48592 0
M  V30 108 H 4.66101 1.39353 1.38468 0
M  V30 109 H 4.96111 2.69414 3.80294 0
M  V30 110 H 4.8413 4.89831 3.39925 0
M  V30 111 H 2.83177 5.3236 1.50125 0
M  V30 112 H 3.88067 6.0583 -0.411571 0
M  V30 113 H 6.52982 6.25927 0.214844 0
M  V30 114 H 7.67146 4.76012 -0.947407 0
M  V30 115 H 6.64925 3.26274 -2.58014 0
M  V30 116 H 4.19239 3.95072 -1.79203 0
M  V30 117 H 4.31306 2.42015 -0.886604 0
M  V30 118 H 4.56814 2.44936 -2.62538 0
M  V30 119 H 7.18808 2.27442 0.216722 0
M  V30 120 H 6.24809 0.405848 -0.145827 0
M  V30 121 H 8.28793 1.87202 -2.60696 0
M  V30 122 H 9.53834 3.56772 -1.69919 0
M  V30 123 H 9.14785 3.1566 0.0332496 0
M  V30 124 H 10.3715 2.218 -0.821399 0
M  V30 125 H 8.61411 0.321878 0.0201996 0
M  V30 126 H 10.4643 0.773076 -2.24507 0
M  V30 127 H 10.2829 -0.957836 -1.68326 0
M  V30 128 H 10.8574 0.273794 -0.544336 0
M  V30 129 H 8.96612 -3.47626 -0.657805 0
M  V30 130 H 9.02634 -1.87263 0.12565 0
M  V30 131 H 6.42289 -2.1126 0.248723 0
M  V30 132 H 7.95677 -3.87488 1.89372 0
M  V30 133 H 6.87435 -4.4397 -1.1533 0
M  V30 134 H 6.9293 -5.08986 0.550911 0
M  V30 135 H 4.60852 -4.32269 -0.986245 0
M  V30 136 H 4.8937 -2.80538 1.45161 0
M  V30 137 H 5.18192 -5.42635 1.76782 0
M  V30 138 H 4.40119 -6.26398 0.370196 0
M  V30 139 H 3.09709 -3.86871 1.75757 0
M  V30 140 H 2.97636 -5.53975 2.36129 0
M  V30 141 H 2.17878 -4.826 -0.523893 0
M  V30 142 H 2.26666 -7.21421 1.05324 0
M  V30 143 H 0.668243 -5.36159 2.10961 0
M  V30 144 H 0.0754091 -6.50163 0.0565886 0
M  V30 145 H 0.622071 -3.12161 -0.0183786 0
M  V30 146 H 1.23464 -2.97913 1.66651 0
M  V30 147 H -1.08355 -3.47091 2.49839 0
M  V30 148 H -2.51272 -4.35017 1.23323 0
M  V30 149 H -0.390441 -1.101 1.11963 0
M  V30 150 H -1.82689 -1.63672 0.202907 0
M  V30 151 H -0.784708 -1.50408 3.56697 0
M  V30 152 H -4.04845 -1.1554 1.10753 0
M  V30 153 H -3.78777 -2.57681 2.26758 0
M  V30 154 H -3.9476 -1.00052 4.11617 0
M  V30 155 H -5.85218 -1.90201 2.37235 0
M  V30 156 H -4.88267 0.774808 1.80217 0
M  V30 157 H -3.58985 1.42184 5.26816 0
M  V30 END ATOM
M  V30 BEGIN BOND
M  V30 1 1 1 2
M  V30 2 1 2 3
M  V30 3 1 3 4
M  V30 4 1 4 5
M  V30 5 1 5 6
M  V30 6 1 6 7
M  V30 7 1 7 8
M  V30 8 1 7 9
M  V30 9 1 9 10
M  V30 10 1 9 11
M  V30 11 1 11 12
M  V30 12 1 12 13
M  V30 13 1 11 14
M  V30 14 1 14 15
M  V30 15 1 15 16
M  V30 16 1 16 17
M  V30 17 1 14 18
M  V30 18 1 18 19
M  V30 19 1 19 20
M  V30 20 1 20 21
M  V30 21 1 3 22
M  V30 22 2 22 23
M  V30 23 1 23 24
M  V30 24 2 24 25
M  V30 25 1 25 26
M  V30 26 2 26 27
M  V30 27 1 27 28
M  V30 28 2 28 29
M  V30 29 1 29 30
M  V30 30 2 30 31
M  V30 31 1 31 32
M  V30 32 2 32 33
M  V30 33 1 33 34
M  V30 34 2 34 35
M  V30 35 1 35 36
M  V30 36 1 36 37
M  V30 37 1 36 38
M  V30 38 1 38 39
M  V30 39 1 38 40
M  V30 40 1 40 41
M  V30 41 1 40 42
M  V30 42 1 42 43
M  V30 43 1 42 44
M  V30 44 1 44 45
M  V30 45 2 45 46
M  V30 46 1 45 47
M  V30 47 1 47 48
M  V30 48 1 48 49
M  V30 49 1 48 50
M  V30 50 1 50 51
M  V30 51 1 51 52
M  V30 52 1 51 53
M  V30 53 1 53 54
M  V30 54 1 54 55
M  V30 55 1 55 56
M  V30 56 1 55 57
M  V30 57 1 57 58
M  V30 58 1 57 59
M  V30 59 1 59 60
M  V30 60 1 60 61
M  V30 61 1 60 62
M  V30 62 1 62 63
M  V30 63 1 63 64 CFG=1
M  V30 64 1 63 65
M  V30 65 1 65 66
M  V30 66 1 66 67
M  V30 67 1 66 68
M  V30 68 1 68 69
M  V30 69 1 69 70
M  V30 70 2 69 71
M  V30 71 1 63 72
M  V30 72 1 68 1
M  V30 73 1 72 1
M  V30 74 1 12 5
M  V30 75 1 1 73 CFG=1
M  V30 76 1 2 74
M  V30 77 1 2 75
M  V30 78 1 3 76 CFG=1
M  V30 79 1 5 77 CFG=1
M  V30 80 1 7 78 CFG=1
M  V30 81 1 8 79
M  V30 82 1 8 80
M  V30 83 1 8 81
M  V30 84 1 9 82 CFG=3
M  V30 85 1 10 83
M  V30 86 1 11 84 CFG=1
M  V30 87 1 12 85 CFG=1
M  V30 88 1 13 86
M  V30 89 1 15 87
M  V30 90 1 15 88
M  V30 91 1 16 89
M  V30 92 1 16 90
M  V30 93 1 17 91
M  V30 94 1 17 92
M  V30 95 1 18 93
M  V30 96 1 18 94
M  V30 97 1 19 95
M  V30 98 1 19 96
M  V30 99 1 20 97
M  V30 100 1 20 98
M  V30 101 1 21 99
M  V30 102 1 21 100
M  V30 103 1 22 101
M  V30 104 1 23 102
M  V30 105 1 24 103
M  V30 106 1 25 104
M  V30 107 1 26 105
M  V30 108 1 27 106
M  V30 109 1 28 107
M  V30 110 1 29 108
M  V30 111 1 30 109
M  V30 112 1 31 110
M  V30 113 1 32 111
M  V30 114 1 33 112
M  V30 115 1 34 113
M  V30 116 1 35 114
M  V30 117 1 36 115 CFG=3
M  V30 118 1 37 116
M  V30 119 1 37 117
M  V30 120 1 37 118
M  V30 121 1 38 119 CFG=1
M  V30 122 1 39 120
M  V30 123 1 40 121 CFG=3
M  V30 124 1 41 122
M  V30 125 1 41 123
M  V30 126 1 41 124
M  V30 127 1 42 125 CFG=1
M  V30 128 1 43 126
M  V30 129 1 43 127
M  V30 130 1 43 128
M  V30 131 1 47 129
M  V30 132 1 47 130
M  V30 133 1 48 131 CFG=1
M  V30 134 1 49 132
M  V30 135 1 50 133
M  V30 136 1 50 134
M  V30 137 1 51 135 CFG=3
M  V30 138 1 52 136
M  V30 139 1 53 137
M  V30 140 1 53 138
M  V30 141 1 54 139
M  V30 142 1 54 140
M  V30 143 1 55 141 CFG=3
M  V30 144 1 56 142
M  V30 145 1 57 143 CFG=1
M  V30 146 1 58 144
M  V30 147 1 59 145
M  V30 148 1 59 146
M  V30 149 1 60 147 CFG=1
M  V30 150 1 61 148
M  V30 151 1 62 149
M  V30 152 1 62 150
M  V30 153 1 64 151
M  V30 154 1 65 152
M  V30 155 1 65 153
M  V30 156 1 66 154 CFG=1
M  V30 157 1 67 155
M  V30 158 1 68 156 CFG=3
M  V30 159 1 70 157
M  V30 END BOND
M  V30 END CTAB
M  END
