
     RDKit          3D

  0  0  0  0  0  0  0  0  0  0999 V3000
M  V30 BEGIN CTAB
M  V30 COUNTS 32 33 0 0 0
M  V30 BEGIN ATOM
M  V30 1 N 4.74605 -0.971716 0.542882 0
M  V30 2 C 3.41642 -0.481225 0.45976 0
M  V30 3 C 2.42519 -0.876014 1.33925 0
M  V30 4 C 1.13128 -0.403564 1.26441 0
M  V30 5 C 0.819052 0.49964 0.269319 0
M  V30 6 C 1.80738 0.897011 -0.612224 0
M  V30 7 C 3.10248 0.42502 -0.538425 0
M  V30 8 N 4.13248 0.821921 -1.43586 0
M  V30 9 S -0.807666 1.13026 0.129851 0
M  V30 10 O -0.73213 2.51481 -0.465531 0
M  V30 11 O -1.34431 1.284 1.51742 0
M  V30 12 N -1.79491 0.178797 -0.881683 0
M  V30 13 C -1.99612 -1.16048 -0.452957 0
M  V30 14 C -3.04758 -1.279 0.636165 0
M  V30 15 O -4.24834 -0.802632 0.117706 0
M  V30 16 C -4.08638 0.56584 -0.100582 0
M  V30 17 C -3.03349 0.829663 -1.1655 0
M  V30 18 H 5.0063 -1.76418 -0.0807258 0
M  V30 19 H 5.47868 -0.597438 1.18085 0
M  V30 20 H 2.66364 -1.58217 2.11948 0
M  V30 21 H 0.382042 -0.749184 1.98762 0
M  V30 22 H 1.56597 1.60647 -1.39539 0
M  V30 23 H 4.65621 1.71863 -1.30371 0
M  V30 24 H 4.35885 0.197692 -2.23565 0
M  V30 25 H -2.41478 -1.73198 -1.32961 0
M  V30 26 H -1.08132 -1.68908 -0.164332 0
M  V30 27 H -2.80934 -0.714676 1.53422 0
M  V30 28 H -3.1451 -2.35339 0.877589 0
M  V30 29 H -3.79908 1.04037 0.855737 0
M  V30 30 H -5.04586 0.947628 -0.489241 0
M  V30 31 H -3.45247 0.571564 -2.16381 0
M  V30 32 H -2.85318 1.92742 -1.16633 0
M  V30 END ATOM
M  V30 BEGIN BOND
M  V30 1 1 1 2
M  V30 2 2 2 3
M  V30 3 1 3 4
M  V30 4 2 4 5
M  V30 5 1 5 6
M  V30 6 2 6 7
M  V30 7 1 7 8
M  V30 8 1 5 9
M  V30 9 2 9 10
M  V30 10 2 9 11
M  V30 11 1 9 12
M  V30 12 1 12 13
M  V30 13 1 13 14
M  V30 14 1 14 15
M  V30 15 1 15 16
M  V30 16 1 16 17
M  V30 17 1 7 2
M  V30 18 1 17 12
M  V30 19 1 1 18
M  V30 20 1 1 19
M  V30 21 1 3 20
M  V30 22 1 4 21
M  V30 23 1 6 22
M  V30 24 1 8 23
M  V30 25 1 8 24
M  V30 26 1 13 25
M  V30 27 1 13 26
M  V30 28 1 14 27
M  V30 29 1 14 28
M  V30 30 1 16 29
M  V30 31 1 16 30
M  V30 32 1 17 31
M  V30 33 1 17 32
M  V30 END BOND
M  V30 END CTAB
M  END
