
     RDKit          3D

  0  0  0  0  0  0  0  0  0  0999 V3000
M  V30 BEGIN CTAB
M  V30 COUNTS 51 53 0 0 0
M  V30 BEGIN ATOM
M  V30 1 C -3.44689 1.67157 0.656012 0 CFG=1
M  V30 2 N -4.32933 2.42047 -0.208559 0
M  V30 3 C -4.10466 0.565936 1.38508 0
M  V30 4 C -4.74317 -0.498886 0.583497 0
M  V30 5 C -3.84204 -1.25819 -0.341115 0
M  V30 6 C -5.9436 -0.048412 -0.209053 0
M  V30 7 C -2.18648 1.31416 -0.0387756 0
M  V30 8 O -2.01295 1.67221 -1.23117 0
M  V30 9 O -1.16567 0.594116 0.558663 0
M  V30 10 C 0.0399161 0.252833 -0.106852 0 CFG=2
M  V30 11 C 0.339051 -1.20311 0.0205499 0 CFG=1
M  V30 12 C 0.0661629 -1.92222 -1.30442 0
M  V30 13 O 0.446227 -3.26363 -1.18433 0
M  V30 14 O 1.71053 -1.3265 0.244086 0
M  V30 15 C 2.07393 -0.25162 1.04596 0 CFG=2
M  V30 16 C 1.16546 0.889951 0.683065 0 CFG=2
M  V30 17 O 0.716771 1.50693 1.84097 0
M  V30 18 N 3.43574 0.160059 0.76038 0
M  V30 19 C 4.0903 1.10195 1.47219 0
M  V30 20 N 5.32104 1.2393 0.946249 0
M  V30 21 C 5.42545 0.384165 -0.0875498 0
M  V30 22 C 4.22739 -0.297553 -0.200974 0
M  V30 23 N 4.01497 -1.23147 -1.14894 0
M  V30 24 C 4.98969 -1.52318 -2.02251 0
M  V30 25 N 6.15744 -0.871881 -1.92698 0
M  V30 26 C 6.41601 0.0676081 -0.998257 0
M  V30 27 N 7.64084 0.754131 -0.894203 0
M  V30 28 H -3.1354 2.42023 1.44873 0
M  V30 29 H -5.1181 2.79163 0.354912 0
M  V30 30 H -3.81214 3.22702 -0.596745 0
M  V30 31 H -4.82941 0.9615 2.11246 0
M  V30 32 H -3.30848 0.0696829 2.01201 0
M  V30 33 H -5.14133 -1.25997 1.32104 0
M  V30 34 H -4.42332 -2.17788 -0.6515 0
M  V30 35 H -3.59612 -0.749073 -1.27338 0
M  V30 36 H -2.96885 -1.64545 0.223934 0
M  V30 37 H -6.62131 0.599541 0.369737 0
M  V30 38 H -5.67349 0.381384 -1.19706 0
M  V30 39 H -6.53098 -0.973239 -0.443429 0
M  V30 40 H 0.0375173 0.636812 -1.13806 0
M  V30 41 H -0.215172 -1.72136 0.818524 0
M  V30 42 H 0.651609 -1.49492 -2.1237 0
M  V30 43 H -1.0015 -1.83471 -1.57463 0
M  V30 44 H 0.7294 -3.47575 -0.24477 0
M  V30 45 H 2.02043 -0.524078 2.12073 0
M  V30 46 H 1.64945 1.65511 0.0652883 0
M  V30 47 H 0.088026 0.876042 2.29119 0
M  V30 48 H 3.68585 1.64012 2.31071 0
M  V30 49 H 4.80422 -2.27795 -2.78095 0
M  V30 50 H 7.68554 1.77533 -0.72608 0
M  V30 51 H 8.52142 0.201239 -0.992002 0
M  V30 END ATOM
M  V30 BEGIN BOND
M  V30 1 1 1 2
M  V30 2 1 1 3
M  V30 3 1 3 4
M  V30 4 1 4 5
M  V30 5 1 4 6
M  V30 6 1 1 7
M  V30 7 2 7 8
M  V30 8 1 7 9
M  V30 9 1 9 10
M  V30 10 1 10 11
M  V30 11 1 11 12
M  V30 12 1 12 13
M  V30 13 1 11 14
M  V30 14 1 14 15
M  V30 15 1 15 16
M  V30 16 1 16 17
M  V30 17 1 15 18
M  V30 18 1 18 19
M  V30 19 2 19 20
M  V30 20 1 20 21
M  V30 21 2 21 22
M  V30 22 1 22 23
M  V30 23 2 23 24
M  V30 24 1 24 25
M  V30 25 2 25 26
M  V30 26 1 26 27
M  V30 27 1 16 10
M  V30 28 1 22 18
M  V30 29 1 26 21
M  V30 30 1 1 28 CFG=1
M  V30 31 1 2 29
M  V30 32 1 2 30
M  V30 33 1 3 31
M  V30 34 1 3 32
M  V30 35 1 4 33
M  V30 36 1 5 34
M  V30 37 1 5 35
M  V30 38 1 5 36
M  V30 39 1 6 37
M  V30 40 1 6 38
M  V30 41 1 6 39
M  V30 42 1 10 40 CFG=3
M  V30 43 1 11 41 CFG=1
M  V30 44 1 12 42
M  V30 45 1 12 43
M  V30 46 1 13 44
M  V30 47 1 15 45 CFG=1
M  V30 48 1 16 46 CFG=3
M  V30 49 1 17 47
M  V30 50 1 19 48
M  V30 51 1 24 49
M  V30 52 1 27 50
M  V30 53 1 27 51
M  V30 END BOND
M  V30 END CTAB
M  END
