
     RDKit          3D

  0  0  0  0  0  0  0  0  0  0999 V3000
M  V30 BEGIN CTAB
M  V30 COUNTS 27 28 0 0 0
M  V30 BEGIN ATOM
M  V30 1 N 5.32894 1.05333 0.934354 0
M  V30 2 N 3.96081 0.921294 0.834875 0
M  V30 3 C 3.39069 -0.173932 0.162084 0
M  V30 4 O 4.10194 -1.04377 -0.35581 0
M  V30 5 C 1.92542 -0.29035 0.0707242 0
M  V30 6 S 0.710141 0.741817 0.680062 0
M  V30 7 C -0.67041 -0.0975759 0.151087 0
M  V30 8 C -0.14126 -1.17524 -0.495555 0
M  V30 9 C 1.19835 -1.28394 -0.542616 0
M  V30 10 N 1.88328 -2.3906 -1.20465 0
M  V30 11 C -2.07959 0.253582 0.344332 0
M  V30 12 C -3.07236 -0.555113 -0.160529 0
M  V30 13 C -4.41176 -0.228407 0.0188571 0
M  V30 14 C -4.70931 0.918768 0.710943 0
M  V30 15 C -3.71777 1.73404 1.21978 0
M  V30 16 C -2.39378 1.40179 1.03681 0
M  V30 17 F -6.0157 1.25611 0.897253 0
M  V30 18 H 5.87327 0.338106 0.447948 0
M  V30 19 H 5.6795 2.02008 0.840798 0
M  V30 20 H 3.37704 1.67514 1.28415 0
M  V30 21 H -0.828947 -1.91912 -0.956777 0
M  V30 22 H 1.72685 -3.37192 -0.918157 0
M  V30 23 H 2.52904 -2.1583 -1.96867 0
M  V30 24 H -2.86975 -1.46512 -0.709997 0
M  V30 25 H -5.20763 -0.834432 -0.360211 0
M  V30 26 H -3.95595 2.63144 1.7611 0
M  V30 27 H -1.61108 2.04232 1.43663 0
M  V30 END ATOM
M  V30 BEGIN BOND
M  V30 1 1 1 2
M  V30 2 1 2 3
M  V30 3 2 3 4
M  V30 4 1 3 5
M  V30 5 1 5 6
M  V30 6 1 6 7
M  V30 7 2 7 8
M  V30 8 1 8 9
M  V30 9 1 9 10
M  V30 10 1 7 11
M  V30 11 2 11 12
M  V30 12 1 12 13
M  V30 13 2 13 14
M  V30 14 1 14 15
M  V30 15 2 15 16
M  V30 16 1 14 17
M  V30 17 2 9 5
M  V30 18 1 16 11
M  V30 19 1 1 18
M  V30 20 1 1 19
M  V30 21 1 2 20
M  V30 22 1 8 21
M  V30 23 1 10 22
M  V30 24 1 10 23
M  V30 25 1 12 24
M  V30 26 1 13 25
M  V30 27 1 15 26
M  V30 28 1 16 27
M  V30 END BOND
M  V30 END CTAB
M  END
