
     RDKit          3D

  0  0  0  0  0  0  0  0  0  0999 V3000
M  V30 BEGIN CTAB
M  V30 COUNTS 18 17 0 0 0
M  V30 BEGIN ATOM
M  V30 1 C -0.665425 -0.274943 0.220905 0 CFG=1
M  V30 2 C -1.8336 0.638113 0.426013 0
M  V30 3 N -1.0896 -1.39376 -0.574454 0
M  V30 4 C 0.535629 0.379777 -0.366537 0 CFG=1
M  V30 5 N 1.07645 1.44545 0.396658 0
M  V30 6 C 1.60184 -0.622043 -0.603732 0
M  V30 7 O 2.87975 -0.428171 -0.0931611 0
M  V30 8 O 1.38373 -1.68141 -1.27579 0
M  V30 9 H -0.380832 -0.66957 1.22229 0
M  V30 10 H -1.62848 1.4921 1.09474 0
M  V30 11 H -2.25401 0.927287 -0.547831 0
M  V30 12 H -2.62679 0.0357311 0.941202 0
M  V30 13 H -2.1222 -1.47428 -0.509382 0
M  V30 14 H -0.722202 -2.29201 -0.162541 0
M  V30 15 H 0.249392 0.784181 -1.37101 0
M  V30 16 H 1.96795 1.75568 -0.0491216 0
M  V30 17 H 0.480775 2.28301 0.488344 0
M  V30 18 H 3.14762 -0.905139 0.76341 0
M  V30 END ATOM
M  V30 BEGIN BOND
M  V30 1 1 1 2
M  V30 2 1 1 3
M  V30 3 1 1 4
M  V30 4 1 4 5
M  V30 5 1 4 6
M  V30 6 1 6 7
M  V30 7 2 6 8
M  V30 8 1 1 9 CFG=1
M  V30 9 1 2 10
M  V30 10 1 2 11
M  V30 11 1 2 12
M  V30 12 1 3 13
M  V30 13 1 3 14
M  V30 14 1 4 15 CFG=3
M  V30 15 1 5 16
M  V30 16 1 5 17
M  V30 17 1 7 18
M  V30 END BOND
M  V30 END CTAB
M  END
