
     RDKit          3D

  0  0  0  0  0  0  0  0  0  0999 V3000
M  V30 BEGIN CTAB
M  V30 COUNTS 47 50 0 0 0
M  V30 BEGIN ATOM
M  V30 1 N -4.76578 -2.2666 -0.318616 0
M  V30 2 C -5.10606 -0.899713 -0.118297 0
M  V30 3 C -4.0697 0.011669 0.055944 0
M  V30 4 C -4.33882 1.34934 0.254034 0
M  V30 5 C -5.66229 1.76736 0.276031 0
M  V30 6 C -6.69763 0.863327 0.102964 0
M  V30 7 C -6.40908 -0.462123 -0.092616 0
M  V30 8 C -2.65682 -0.448002 0.0304374 0
M  V30 9 O -1.99739 0.158201 1.09394 0
M  V30 10 C -0.678811 -0.285217 1.16611 0
M  V30 11 C 0.0390805 0.16321 -0.112281 0
M  V30 12 C -0.996333 0.701019 -1.10361 0
M  V30 13 O -2.1062 -0.102882 -1.19002 0
M  V30 14 C 0.954069 1.27989 0.241998 0
M  V30 15 O 2.19986 1.22049 -0.329168 0
M  V30 16 C 2.65662 -0.089422 -0.231677 0
M  V30 17 O 1.96246 -0.827455 -1.18669 0
M  V30 18 C 0.685242 -1.02456 -0.722723 0
M  V30 19 C 4.10657 -0.212815 -0.339663 0
M  V30 20 C 4.93604 0.637011 0.341572 0
M  V30 21 N 4.45738 1.67672 1.1837 0
M  V30 22 C 6.32084 0.484146 0.210122 0
M  V30 23 C 6.82437 -0.526634 -0.608788 0
M  V30 24 C 5.99877 -1.38299 -1.29532 0
M  V30 25 C 4.63753 -1.20143 -1.14084 0
M  V30 26 H -4.64808 -2.90054 0.51416 0
M  V30 27 H -4.64383 -2.5943 -1.29848 0
M  V30 28 H -3.55481 2.09208 0.394076 0
M  V30 29 H -5.91777 2.80624 0.428377 0
M  V30 30 H -7.72257 1.16595 0.116751 0
M  V30 31 H -7.19408 -1.22144 -0.235254 0
M  V30 32 H -2.62857 -1.55663 0.0996 0
M  V30 33 H -0.650623 -1.39726 1.26506 0
M  V30 34 H -0.19997 0.136882 2.05035 0
M  V30 35 H -0.49826 0.698868 -2.0964 0
M  V30 36 H -1.24263 1.75918 -0.885894 0
M  V30 37 H 1.10412 1.33961 1.35885 0
M  V30 38 H 0.490141 2.27502 -0.0158571 0
M  V30 39 H 2.31814 -0.46069 0.776797 0
M  V30 40 H 0.73879 -1.87508 0.0169843 0
M  V30 41 H 0.0684339 -1.4257 -1.56298 0
M  V30 42 H 4.03433 2.56019 0.830813 0
M  V30 43 H 4.53335 1.54935 2.21545 0
M  V30 44 H 7.0162 1.13065 0.727998 0
M  V30 45 H 7.89235 -0.633936 -0.701613 0
M  V30 46 H 6.42466 -2.15501 -1.92102 0
M  V30 47 H 3.98675 -1.87599 -1.68162 0
M  V30 END ATOM
M  V30 BEGIN BOND
M  V30 1 1 1 2
M  V30 2 2 2 3
M  V30 3 1 3 4
M  V30 4 2 4 5
M  V30 5 1 5 6
M  V30 6 2 6 7
M  V30 7 1 3 8
M  V30 8 1 8 9
M  V30 9 1 9 10
M  V30 10 1 10 11
M  V30 11 1 11 12
M  V30 12 1 12 13
M  V30 13 1 11 14
M  V30 14 1 14 15
M  V30 15 1 15 16
M  V30 16 1 16 17
M  V30 17 1 17 18
M  V30 18 1 16 19
M  V30 19 2 19 20
M  V30 20 1 20 21
M  V30 21 1 20 22
M  V30 22 2 22 23
M  V30 23 1 23 24
M  V30 24 2 24 25
M  V30 25 1 7 2
M  V30 26 1 13 8
M  V30 27 1 25 19
M  V30 28 1 18 11
M  V30 29 1 1 26
M  V30 30 1 1 27
M  V30 31 1 4 28
M  V30 32 1 5 29
M  V30 33 1 6 30
M  V30 34 1 7 31
M  V30 35 1 8 32
M  V30 36 1 10 33
M  V30 37 1 10 34
M  V30 38 1 12 35
M  V30 39 1 12 36
M  V30 40 1 14 37
M  V30 41 1 14 38
M  V30 42 1 16 39
M  V30 43 1 18 40
M  V30 44 1 18 41
M  V30 45 1 21 42
M  V30 46 1 21 43
M  V30 47 1 22 44
M  V30 48 1 23 45
M  V30 49 1 24 46
M  V30 50 1 25 47
M  V30 END BOND
M  V30 END CTAB
M  END
