
     RDKit          3D

  0  0  0  0  0  0  0  0  0  0999 V3000
M  V30 BEGIN CTAB
M  V30 COUNTS 41 43 0 0 0
M  V30 BEGIN ATOM
M  V30 1 N 1.34807 -0.0109853 -2.04862 0
M  V30 2 C 0.697687 0.1817 -0.801215 0
M  V30 3 N 1.40034 -0.0695955 0.346534 0
M  V30 4 C 0.794826 0.109419 1.53055 0
M  V30 5 N -0.469401 0.527518 1.54081 0
M  V30 6 C -1.21118 0.791458 0.411073 0
M  V30 7 N -0.563394 0.596394 -0.732818 0
M  V30 8 N -2.54745 1.24693 0.553132 0
M  V30 9 C -3.47518 1.44846 -0.47769 0
M  V30 10 C -4.63424 2.17116 -0.174682 0
M  V30 11 C -5.58923 2.37645 -1.13136 0
M  V30 12 C -5.42344 1.8804 -2.38843 0
M  V30 13 C -4.30886 1.16405 -2.74327 0
M  V30 14 C -3.33692 0.959272 -1.75587 0
M  V30 15 C -2.9615 1.57924 1.93818 0
M  V30 16 C 1.48081 -0.156292 2.81382 0
M  V30 17 N 2.68776 -0.56875 2.7367 0
M  V30 18 O 3.30665 -0.749654 1.5259 0
M  V30 19 C 3.93162 -1.9597 1.21553 0
M  V30 20 O 3.89817 -2.86395 2.0838 0
M  V30 21 C 4.61103 -2.22625 -0.0436256 0
M  V30 22 C 5.23344 -3.41608 -0.366553 0
M  V30 23 C 5.76649 -3.27134 -1.66088 0
M  V30 24 C 5.41947 -1.99265 -2.02048 0
M  V30 25 O 4.75461 -1.41764 -1.06664 0
M  V30 26 N 0.80731 0.0481207 4.05533 0
M  V30 27 H 1.01342 0.494771 -2.91866 0
M  V30 28 H 2.1648 -0.656825 -2.11953 0
M  V30 29 H -4.77481 2.56945 0.812041 0
M  V30 30 H -6.51406 2.93433 -0.940902 0
M  V30 31 H -6.19989 2.05697 -3.14026 0
M  V30 32 H -4.18316 0.765841 -3.75392 0
M  V30 33 H -2.49969 0.382831 -2.08824 0
M  V30 34 H -3.97518 1.20632 2.06141 0
M  V30 35 H -2.88292 2.66956 2.10279 0
M  V30 36 H -2.30561 1.07429 2.67936 0
M  V30 37 H 5.34186 -4.32847 0.195072 0
M  V30 38 H 6.31957 -4.00928 -2.22058 0
M  V30 39 H 5.71563 -1.60108 -3.01042 0
M  V30 40 H -0.219004 0.0652426 4.0888 0
M  V30 41 H 1.38155 0.176989 4.91381 0
M  V30 END ATOM
M  V30 BEGIN BOND
M  V30 1 1 1 2
M  V30 2 2 2 3
M  V30 3 1 3 4
M  V30 4 2 4 5
M  V30 5 1 5 6
M  V30 6 2 6 7
M  V30 7 1 6 8
M  V30 8 1 8 9
M  V30 9 2 9 10
M  V30 10 1 10 11
M  V30 11 2 11 12
M  V30 12 1 12 13
M  V30 13 2 13 14
M  V30 14 1 8 15
M  V30 15 1 4 16
M  V30 16 2 16 17
M  V30 17 1 17 18
M  V30 18 1 18 19
M  V30 19 2 19 20
M  V30 20 1 19 21
M  V30 21 2 21 22
M  V30 22 1 22 23
M  V30 23 2 23 24
M  V30 24 1 24 25
M  V30 25 1 16 26
M  V30 26 1 7 2
M  V30 27 1 14 9
M  V30 28 1 25 21
M  V30 29 1 1 27
M  V30 30 1 1 28
M  V30 31 1 10 29
M  V30 32 1 11 30
M  V30 33 1 12 31
M  V30 34 1 13 32
M  V30 35 1 14 33
M  V30 36 1 15 34
M  V30 37 1 15 35
M  V30 38 1 15 36
M  V30 39 1 22 37
M  V30 40 1 23 38
M  V30 41 1 24 39
M  V30 42 1 26 40
M  V30 43 1 26 41
M  V30 END BOND
M  V30 END CTAB
M  END
