
     RDKit          3D

  0  0  0  0  0  0  0  0  0  0999 V3000
M  V30 BEGIN CTAB
M  V30 COUNTS 95 98 0 0 0
M  V30 BEGIN ATOM
M  V30 1 N -6.04775 3.15282 -0.234362 0
M  V30 2 C -5.18424 4.24292 -0.599317 0
M  V30 3 C -3.78157 3.81224 -0.966825 0
M  V30 4 C -3.18381 3.11743 0.231996 0
M  V30 5 C -1.75909 2.65772 0.0176732 0 CFG=2
M  V30 6 N -1.57597 1.71588 -1.04605 0
M  V30 7 C -2.39303 0.680214 -1.48997 0
M  V30 8 O -2.7362 0.686492 -2.72777 0
M  V30 9 C -2.94373 -0.466926 -0.726786 0 CFG=1
M  V30 10 C -4.44416 -0.565008 -1.04003 0
M  V30 11 C -5.11628 -1.6551 -0.348599 0
M  V30 12 C -5.24402 -2.90418 -0.9029 0
M  V30 13 C -5.88739 -3.92641 -0.221687 0
M  V30 14 C -6.39708 -3.6763 1.01647 0
M  V30 15 O -7.0483 -4.72352 1.6974 0
M  V30 16 C -6.29366 -2.45241 1.60528 0
M  V30 17 C -5.6455 -1.4455 0.90377 0
M  V30 18 N -2.34355 -1.72611 -1.20634 0
M  V30 19 C -1.30705 -2.40755 -0.522779 0
M  V30 20 O -1.36863 -3.65567 -0.418396 0
M  V30 21 C -0.139361 -1.72879 0.0839342 0
M  V30 22 N 0.471784 -2.51921 1.12832 0
M  V30 23 C 1.51457 -2.03006 1.95662 0
M  V30 24 O 1.61322 -2.52563 3.10689 0
M  V30 25 C 2.46926 -0.991044 1.54554 0 CFG=2
M  V30 26 C 3.89596 -1.48496 1.50535 0
M  V30 27 C 4.08394 -2.61235 0.555238 0
M  V30 28 C 4.41675 -2.3715 -0.766844 0
M  V30 29 C 4.59897 -3.40051 -1.67515 0
M  V30 30 C 4.45526 -4.7142 -1.29628 0
M  V30 31 C 4.63909 -5.74778 -2.21548 0
M  V30 32 C 4.4942 -7.05875 -1.83437 0
M  V30 33 C 4.16335 -7.33014 -0.52474 0
M  V30 34 C 3.98504 -6.29709 0.371189 0
M  V30 35 C 4.12406 -4.97039 0.0167844 0
M  V30 36 C 3.9414 -3.93253 0.928353 0
M  V30 37 N 2.44181 0.140632 2.45207 0
M  V30 38 C 2.30126 1.48923 2.07446 0
M  V30 39 O 3.03846 2.34547 2.61226 0
M  V30 40 C 1.31683 1.94265 1.06643 0 CFG=2
M  V30 41 C 1.86082 3.16192 0.346558 0
M  V30 42 C 3.1643 2.8506 -0.355136 0
M  V30 43 C 3.70012 4.07145 -1.07008 0
M  V30 44 N 3.95402 5.16293 -0.176036 0
M  V30 45 C 4.45854 6.40367 -0.632437 0
M  V30 46 N 4.13993 7.62703 0.0341001 0
M  V30 47 N 5.22596 6.49909 -1.66339 0
M  V30 48 N 0.119118 2.35579 1.76868 0
M  V30 49 C -1.2076 2.24105 1.32598 0
M  V30 50 O -2.03823 1.7157 2.15104 0
M  V30 51 H -5.84025 2.71198 0.670268 0
M  V30 52 H -6.16223 2.4441 -0.954483 0
M  V30 53 H -5.64255 4.86266 -1.40114 0
M  V30 54 H -5.15557 4.93001 0.297583 0
M  V30 55 H -3.88861 3.16319 -1.85578 0
M  V30 56 H -3.23405 4.74805 -1.21602 0
M  V30 57 H -3.21993 3.83526 1.07254 0
M  V30 58 H -3.85904 2.28269 0.49599 0
M  V30 59 H -1.23818 3.62889 -0.302867 0
M  V30 60 H -0.640768 1.85006 -1.57885 0
M  V30 61 H -2.8657 -0.357059 0.351027 0
M  V30 62 H -4.86689 0.435587 -0.83263 0
M  V30 63 H -4.52642 -0.680748 -2.1608 0
M  V30 64 H -4.84842 -3.14061 -1.90007 0
M  V30 65 H -5.95653 -4.89154 -0.712636 0
M  V30 66 H -8.04399 -4.79245 1.52558 0
M  V30 67 H -6.7026 -2.26924 2.58726 0
M  V30 68 H -5.55845 -0.470073 1.36358 0
M  V30 69 H -2.71793 -2.11153 -2.09971 0
M  V30 70 H -0.388843 -0.707742 0.435664 0
M  V30 71 H 0.618372 -1.6027 -0.719037 0
M  V30 72 H 0.120261 -3.48964 1.26696 0
M  V30 73 H 2.147 -0.609014 0.556341 0
M  V30 74 H 4.27183 -1.72255 2.52111 0
M  V30 75 H 4.51498 -0.604536 1.16455 0
M  V30 76 H 4.53816 -1.36687 -1.10549 0
M  V30 77 H 4.86041 -3.20957 -2.71443 0
M  V30 78 H 4.89994 -5.51177 -3.24367 0
M  V30 79 H 4.62991 -7.88571 -2.52324 0
M  V30 80 H 4.05107 -8.37309 -0.233845 0
M  V30 81 H 3.72661 -6.53563 1.39002 0
M  V30 82 H 3.68228 -4.18651 1.94749 0
M  V30 83 H 2.54138 -0.126699 3.48041 0
M  V30 84 H 1.12865 1.13981 0.313384 0
M  V30 85 H 1.91967 3.97977 1.062 0
M  V30 86 H 1.12753 3.43551 -0.437696 0
M  V30 87 H 3.9264 2.42321 0.293951 0
M  V30 88 H 2.94146 2.08546 -1.1375 0
M  V30 89 H 4.65213 3.84696 -1.59343 0
M  V30 90 H 2.99515 4.42439 -1.86101 0
M  V30 91 H 3.76479 5.04777 0.837346 0
M  V30 92 H 3.96652 8.49099 -0.530185 0
M  V30 93 H 4.06828 7.71354 1.06142 0
M  V30 94 H 5.47063 5.61942 -2.1633 0
M  V30 95 H 0.291673 2.79263 2.73085 0
M  V30 END ATOM
M  V30 BEGIN BOND
M  V30 1 1 1 2
M  V30 2 1 2 3
M  V30 3 1 3 4
M  V30 4 1 4 5
M  V30 5 1 5 6
M  V30 6 1 6 7
M  V30 7 2 7 8
M  V30 8 1 7 9
M  V30 9 1 9 10
M  V30 10 1 10 11
M  V30 11 2 11 12
M  V30 12 1 12 13
M  V30 13 2 13 14
M  V30 14 1 14 15
M  V30 15 1 14 16
M  V30 16 2 16 17
M  V30 17 1 9 18
M  V30 18 1 18 19
M  V30 19 2 19 20
M  V30 20 1 19 21
M  V30 21 1 21 22
M  V30 22 1 22 23
M  V30 23 2 23 24
M  V30 24 1 23 25
M  V30 25 1 25 26
M  V30 26 1 26 27
M  V30 27 2 27 28
M  V30 28 1 28 29
M  V30 29 2 29 30
M  V30 30 1 30 31
M  V30 31 2 31 32
M  V30 32 1 32 33
M  V30 33 2 33 34
M  V30 34 1 34 35
M  V30 35 2 35 36
M  V30 36 1 25 37
M  V30 37 1 37 38
M  V30 38 2 38 39
M  V30 39 1 38 40
M  V30 40 1 40 41
M  V30 41 1 41 42
M  V30 42 1 42 43
M  V30 43 1 43 44
M  V30 44 1 44 45
M  V30 45 1 45 46
M  V30 46 2 45 47 CFG=2
M  V30 47 1 40 48
M  V30 48 1 48 49
M  V30 49 2 49 50
M  V30 50 1 49 5
M  V30 51 1 17 11
M  V30 52 1 36 27
M  V30 53 1 35 30
M  V30 54 1 1 51
M  V30 55 1 1 52
M  V30 56 1 2 53
M  V30 57 1 2 54
M  V30 58 1 3 55
M  V30 59 1 3 56
M  V30 60 1 4 57
M  V30 61 1 4 58
M  V30 62 1 5 59 CFG=3
M  V30 63 1 6 60
M  V30 64 1 9 61 CFG=1
M  V30 65 1 10 62
M  V30 66 1 10 63
M  V30 67 1 12 64
M  V30 68 1 13 65
M  V30 69 1 15 66
M  V30 70 1 16 67
M  V30 71 1 17 68
M  V30 72 1 18 69
M  V30 73 1 21 70
M  V30 74 1 21 71
M  V30 75 1 22 72
M  V30 76 1 25 73 CFG=3
M  V30 77 1 26 74
M  V30 78 1 26 75
M  V30 79 1 28 76
M  V30 80 1 29 77
M  V30 81 1 31 78
M  V30 82 1 32 79
M  V30 83 1 33 80
M  V30 84 1 34 81
M  V30 85 1 36 82
M  V30 86 1 37 83
M  V30 87 1 40 84 CFG=3
M  V30 88 1 41 85
M  V30 89 1 41 86
M  V30 90 1 42 87
M  V30 91 1 42 88
M  V30 92 1 43 89
M  V30 93 1 43 90
M  V30 94 1 44 91
M  V30 95 1 46 92
M  V30 96 1 46 93
M  V30 97 1 47 94
M  V30 98 1 48 95
M  V30 END BOND
M  V30 END CTAB
M  END
