
     RDKit          3D

  0  0  0  0  0  0  0  0  0  0999 V3000
M  V30 BEGIN CTAB
M  V30 COUNTS 45 46 0 0 0
M  V30 BEGIN ATOM
M  V30 1 O 1.86307 0.443523 0.0708428 0
M  V30 2 C 1.98311 0.781826 -1.12141 0
M  V30 3 C 1.32262 1.99343 -1.64823 0
M  V30 4 S 0.287563 2.72933 -0.399263 0
M  V30 5 C -1.20126 1.78185 -0.0691121 0
M  V30 6 C -2.35174 2.02349 -0.843381 0
M  V30 7 C -3.51427 1.31757 -0.638658 0
M  V30 8 C -3.63041 0.325755 0.337681 0
M  V30 9 C -2.50056 0.0918692 1.09531 0
M  V30 10 C -1.31514 0.815695 0.883837 0
M  V30 11 C -4.90446 -0.395001 0.497224 0
M  V30 12 C -5.23978 -0.761719 1.92238 0
M  V30 13 C -4.80134 -1.70165 -0.285771 0
M  V30 14 C -6.08522 0.418937 0.00114191 0
M  V30 15 O 2.73976 0.0280467 -1.97455 0
M  V30 16 C 3.4271 -1.11235 -1.58799 0
M  V30 17 C 4.51874 -0.88357 -0.611233 0
M  V30 18 N 4.68915 0.231556 0.0863342 0
M  V30 19 C 5.67144 0.456657 0.943695 0
M  V30 20 N 5.74936 1.68504 1.63976 0
M  V30 21 N 6.57078 -0.508521 1.13166 0
M  V30 22 C 6.48656 -1.69302 0.463492 0
M  V30 23 N 5.46355 -1.8492 -0.389037 0
M  V30 24 N 7.46609 -2.71178 0.667589 0
M  V30 25 H 2.10337 2.73309 -1.97388 0
M  V30 26 H 0.721616 1.77446 -2.5634 0
M  V30 27 H -2.27347 2.78718 -1.59892 0
M  V30 28 H -4.41282 1.50815 -1.2415 0
M  V30 29 H -2.52515 -0.67347 1.86331 0
M  V30 30 H -0.471252 0.599644 1.52118 0
M  V30 31 H -5.87448 -1.67502 1.97843 0
M  V30 32 H -5.71443 0.109756 2.46063 0
M  V30 33 H -4.33976 -0.996608 2.50504 0
M  V30 34 H -5.80166 -2.17815 -0.211337 0
M  V30 35 H -4.10766 -2.36248 0.294767 0
M  V30 36 H -4.4634 -1.55118 -1.3234 0
M  V30 37 H -6.21282 0.29966 -1.08841 0
M  V30 38 H -7.0411 0.0257548 0.46647 0
M  V30 39 H -6.03673 1.46392 0.31715 0
M  V30 40 H 3.86898 -1.61654 -2.49924 0
M  V30 41 H 2.73239 -1.84798 -1.09055 0
M  V30 42 H 5.67654 2.58958 1.13917 0
M  V30 43 H 5.88148 1.66338 2.66699 0
M  V30 44 H 7.15315 -3.70309 0.660247 0
M  V30 45 H 8.44249 -2.45781 0.813759 0
M  V30 END ATOM
M  V30 BEGIN BOND
M  V30 1 2 1 2
M  V30 2 1 2 3
M  V30 3 1 3 4
M  V30 4 1 4 5
M  V30 5 2 5 6
M  V30 6 1 6 7
M  V30 7 2 7 8
M  V30 8 1 8 9
M  V30 9 2 9 10
M  V30 10 1 8 11
M  V30 11 1 11 12
M  V30 12 1 11 13
M  V30 13 1 11 14
M  V30 14 1 2 15
M  V30 15 1 15 16
M  V30 16 1 16 17
M  V30 17 2 17 18
M  V30 18 1 18 19
M  V30 19 1 19 20
M  V30 20 2 19 21
M  V30 21 1 21 22
M  V30 22 2 22 23
M  V30 23 1 22 24
M  V30 24 1 10 5
M  V30 25 1 23 17
M  V30 26 1 3 25
M  V30 27 1 3 26
M  V30 28 1 6 27
M  V30 29 1 7 28
M  V30 30 1 9 29
M  V30 31 1 10 30
M  V30 32 1 12 31
M  V30 33 1 12 32
M  V30 34 1 12 33
M  V30 35 1 13 34
M  V30 36 1 13 35
M  V30 37 1 13 36
M  V30 38 1 14 37
M  V30 39 1 14 38
M  V30 40 1 14 39
M  V30 41 1 16 40
M  V30 42 1 16 41
M  V30 43 1 20 42
M  V30 44 1 20 43
M  V30 45 1 24 44
M  V30 46 1 24 45
M  V30 END BOND
M  V30 END CTAB
M  END
