
     RDKit          3D

  0  0  0  0  0  0  0  0  0  0999 V3000
M  V30 BEGIN CTAB
M  V30 COUNTS 30 30 0 0 0
M  V30 BEGIN ATOM
M  V30 1 N -2.16084 1.926 0.0374002 0
M  V30 2 C -2.37146 0.680214 -0.677223 0
M  V30 3 C -1.87444 -0.430488 0.211386 0
M  V30 4 N -0.480175 -0.225437 0.483614 0
M  V30 5 C 0.557573 -0.189524 -0.479755 0
M  V30 6 O 0.374308 -0.338588 -1.71436 0
M  V30 7 C 1.94118 0.0317561 -0.0574908 0
M  V30 8 N 2.21335 0.199233 1.24509 0
M  V30 9 C 3.45292 0.40644 1.71123 0
M  V30 10 C 4.5018 0.450555 0.814586 0
M  V30 11 N 4.21941 0.281332 -0.492176 0
M  V30 12 C 2.98913 0.0761888 -0.949813 0
M  V30 13 N 2.71551 -0.102065 -2.35646 0
M  V30 14 C -2.67834 -0.371662 1.48915 0
M  V30 15 C -2.12722 -1.77467 -0.442502 0
M  V30 16 H -2.82636 2.04902 0.803183 0
M  V30 17 H -2.07812 2.73899 -0.610301 0
M  V30 18 H -3.4654 0.55576 -0.838881 0
M  V30 19 H -1.83079 0.676194 -1.63792 0
M  V30 20 H -0.207828 -0.0887771 1.50343 0
M  V30 21 H 3.62435 0.535953 2.76817 0
M  V30 22 H 5.52154 0.61911 1.17934 0
M  V30 23 H 2.5551 -1.07055 -2.68956 0
M  V30 24 H 2.69369 0.736242 -2.9537 0
M  V30 25 H -2.58671 -1.33391 2.00367 0
M  V30 26 H -3.75217 -0.184487 1.2722 0
M  V30 27 H -2.24554 0.428967 2.14051 0
M  V30 28 H -2.02364 -1.71196 -1.53653 0
M  V30 29 H -1.47044 -2.52495 -0.00488182 0
M  V30 30 H -3.18039 -2.04489 -0.221418 0
M  V30 END ATOM
M  V30 BEGIN BOND
M  V30 1 1 1 2
M  V30 2 1 2 3
M  V30 3 1 3 4
M  V30 4 1 4 5
M  V30 5 2 5 6
M  V30 6 1 5 7
M  V30 7 2 7 8
M  V30 8 1 8 9
M  V30 9 2 9 10
M  V30 10 1 10 11
M  V30 11 2 11 12
M  V30 12 1 12 13
M  V30 13 1 3 14
M  V30 14 1 3 15
M  V30 15 1 12 7
M  V30 16 1 1 16
M  V30 17 1 1 17
M  V30 18 1 2 18
M  V30 19 1 2 19
M  V30 20 1 4 20
M  V30 21 1 9 21
M  V30 22 1 10 22
M  V30 23 1 13 23
M  V30 24 1 13 24
M  V30 25 1 14 25
M  V30 26 1 14 26
M  V30 27 1 14 27
M  V30 28 1 15 28
M  V30 29 1 15 29
M  V30 30 1 15 30
M  V30 END BOND
M  V30 END CTAB
M  END
