
     RDKit          3D

  0  0  0  0  0  0  0  0  0  0999 V3000
M  V30 BEGIN CTAB
M  V30 COUNTS 33 34 0 0 0
M  V30 BEGIN ATOM
M  V30 1 N -6.18321 -1.0362 -1.19142 0
M  V30 2 C -4.88411 -0.486849 -1.00523 0
M  V30 3 N -4.30714 -0.575914 0.197787 0
M  V30 4 C -3.0894 -0.0928317 0.479285 0
M  V30 5 N -2.49383 -0.198567 1.76779 0
M  V30 6 C -2.40518 0.532715 -0.553826 0
M  V30 7 C -2.98061 0.642164 -1.823 0
M  V30 8 N -4.20022 0.122972 -1.98599 0
M  V30 9 O -2.26471 1.27483 -2.83043 0
M  V30 10 C -1.09614 1.0774 -0.336921 0
M  V30 11 N -0.549837 0.988417 0.817604 0
M  V30 12 N 0.696664 1.47204 1.14196 0
M  V30 13 C 1.8777 0.748522 0.864931 0
M  V30 14 C 3.14075 1.25266 1.20078 0
M  V30 15 C 4.25295 0.491868 0.900438 0
M  V30 16 C 4.15137 -0.738209 0.284861 0
M  V30 17 C 2.89652 -1.20649 -0.0326718 0
M  V30 18 C 1.75538 -0.479315 0.24904 0
M  V30 19 C 5.3348 -1.5299 -0.0259553 0
M  V30 20 O 5.21069 -2.64715 -0.587541 0
M  V30 21 O 6.60697 -1.07367 0.287043 0
M  V30 22 H -6.80676 -0.697814 -1.93717 0
M  V30 23 H -6.53069 -1.79874 -0.570089 0
M  V30 24 H -2.64819 0.612448 2.41747 0
M  V30 25 H -1.951 -1.04492 2.00071 0
M  V30 26 H -2.62417 1.23116 -3.77574 0
M  V30 27 H -0.547288 1.57057 -1.13671 0
M  V30 28 H 0.758086 2.42021 1.61492 0
M  V30 29 H 3.2128 2.22278 1.68558 0
M  V30 30 H 5.24758 0.838303 1.13991 0
M  V30 31 H 2.80028 -2.15458 -0.50828 0
M  V30 32 H 0.778152 -0.89772 -0.0248509 0
M  V30 33 H 6.8418 -0.99389 1.27572 0
M  V30 END ATOM
M  V30 BEGIN BOND
M  V30 1 1 1 2
M  V30 2 2 2 3
M  V30 3 1 3 4
M  V30 4 1 4 5
M  V30 5 2 4 6
M  V30 6 1 6 7
M  V30 7 2 7 8
M  V30 8 1 7 9
M  V30 9 1 6 10
M  V30 10 2 10 11
M  V30 11 1 11 12
M  V30 12 1 12 13
M  V30 13 2 13 14
M  V30 14 1 14 15
M  V30 15 2 15 16
M  V30 16 1 16 17
M  V30 17 2 17 18
M  V30 18 1 16 19
M  V30 19 2 19 20
M  V30 20 1 19 21
M  V30 21 1 8 2
M  V30 22 1 18 13
M  V30 23 1 1 22
M  V30 24 1 1 23
M  V30 25 1 5 24
M  V30 26 1 5 25
M  V30 27 1 9 26
M  V30 28 1 10 27
M  V30 29 1 12 28
M  V30 30 1 14 29
M  V30 31 1 15 30
M  V30 32 1 17 31
M  V30 33 1 18 32
M  V30 34 1 21 33
M  V30 END BOND
M  V30 END CTAB
M  END
