
     RDKit          3D

  0  0  0  0  0  0  0  0  0  0999 V3000
M  V30 BEGIN CTAB
M  V30 COUNTS 18 19 0 0 0
M  V30 BEGIN ATOM
M  V30 1 N -1.23061 0.741771 1.26287 0
M  V30 2 N -1.07757 0.0639531 0.0619092 0
M  V30 3 C -2.07572 -0.358277 -0.738267 0
M  V30 4 N -3.47017 -0.175456 -0.478808 0
M  V30 5 N -1.50337 -0.960537 -1.78459 0
M  V30 6 N -0.194706 -0.905259 -1.62375 0
M  V30 7 C 0.123379 -0.272501 -0.480667 0
M  V30 8 C 1.43676 0.0061446 0.0785357 0
M  V30 9 C 2.63277 -0.350815 -0.500891 0
M  V30 10 N 3.65032 0.0712818 0.299946 0
M  V30 11 N 3.10106 0.665402 1.3329 0
M  V30 12 N 1.77363 0.63424 1.2142 0
M  V30 13 H -1.39418 0.23442 2.1645 0
M  V30 14 H -1.19013 1.78222 1.32342 0
M  V30 15 H -4.16435 -0.188527 -1.25535 0
M  V30 16 H -3.82691 -0.0249992 0.489859 0
M  V30 17 H 2.74912 -0.87786 -1.43488 0
M  V30 18 H 4.66067 -0.0852065 0.0690595 0
M  V30 END ATOM
M  V30 BEGIN BOND
M  V30 1 1 1 2
M  V30 2 1 2 3
M  V30 3 1 3 4
M  V30 4 2 3 5
M  V30 5 1 5 6
M  V30 6 2 6 7
M  V30 7 1 7 8
M  V30 8 2 8 9
M  V30 9 1 9 10
M  V30 10 1 10 11
M  V30 11 2 11 12
M  V30 12 1 7 2
M  V30 13 1 12 8
M  V30 14 1 1 13
M  V30 15 1 1 14
M  V30 16 1 4 15
M  V30 17 1 4 16
M  V30 18 1 9 17
M  V30 19 1 10 18
M  V30 END BOND
M  V30 END CTAB
M  END
