
     RDKit          3D

  0  0  0  0  0  0  0  0  0  0999 V3000
M  V30 BEGIN CTAB
M  V30 COUNTS 16 16 0 0 0
M  V30 BEGIN ATOM
M  V30 1 N -1.86851 -2.23897 -0.0777254 0
M  V30 2 C -1.04683 -1.07411 -0.0364451 0
M  V30 3 N 0.284806 -1.13857 -0.196563 0
M  V30 4 C 1.10015 -0.0687882 -0.157621 0
M  V30 5 N 0.521762 1.11954 0.052494 0
M  V30 6 C -0.804278 1.27045 0.2228 0
M  V30 7 N -1.39454 2.54907 0.452197 0
M  V30 8 N -1.5623 0.154346 0.173492 0
M  V30 9 C 2.5893 -0.2136 -0.308779 0
M  V30 10 Cl 3.00521 -1.02651 -1.83023 0
M  V30 11 Cl 3.41482 1.33419 -0.248195 0
M  V30 12 Cl 3.26455 -1.21994 1.02802 0
M  V30 13 H -1.51023 -3.14411 0.341611 0
M  V30 14 H -2.81278 -2.28333 -0.487532 0
M  V30 15 H -0.759696 3.33551 0.645314 0
M  V30 16 H -2.42144 2.64482 0.427165 0
M  V30 END ATOM
M  V30 BEGIN BOND
M  V30 1 1 1 2
M  V30 2 2 2 3
M  V30 3 1 3 4
M  V30 4 2 4 5
M  V30 5 1 5 6
M  V30 6 1 6 7
M  V30 7 2 6 8
M  V30 8 1 4 9
M  V30 9 1 9 10
M  V30 10 1 9 11
M  V30 11 1 9 12
M  V30 12 1 8 2
M  V30 13 1 1 13
M  V30 14 1 1 14
M  V30 15 1 7 15
M  V30 16 1 7 16
M  V30 END BOND
M  V30 END CTAB
M  END
