
     RDKit          3D

  0  0  0  0  0  0  0  0  0  0999 V3000
M  V30 BEGIN CTAB
M  V30 COUNTS 30 31 0 0 0
M  V30 BEGIN ATOM
M  V30 1 N 3.68627 -2.92216 0.889048 0
M  V30 2 C 3.35673 -1.55003 0.783166 0
M  V30 3 N 2.1084 -1.11613 1.02987 0
M  V30 4 C 1.7756 0.175787 0.935855 0
M  V30 5 S 0.083219 0.645598 1.28639 0
M  V30 6 C -0.832867 0.548543 -0.275685 0
M  V30 7 C -2.28903 0.928924 -0.0938157 0
M  V30 8 O -2.82804 0.0308514 0.826181 0
M  V30 9 C -4.22405 0.0887648 0.728176 0
M  V30 10 C -4.68663 -0.469765 -0.588775 0
M  V30 11 O -3.56931 -0.606706 -1.4394 0
M  V30 12 C -2.96129 0.664807 -1.44672 0
M  V30 13 N 2.72044 1.0585 0.584567 0
M  V30 14 C 3.99553 0.732925 0.316617 0
M  V30 15 C 4.32357 -0.602258 0.417674 0
M  V30 16 N 4.9802 1.69147 -0.0547071 0
M  V30 17 H 3.14727 -3.61496 0.349748 0
M  V30 18 H 4.45784 -3.22708 1.49955 0
M  V30 19 H -0.762369 -0.493291 -0.637237 0
M  V30 20 H -0.39846 1.28779 -0.980732 0
M  V30 21 H -2.4215 1.97836 0.182119 0
M  V30 22 H -4.5152 1.15665 0.875369 0
M  V30 23 H -4.68924 -0.481828 1.57434 0
M  V30 24 H -5.15632 -1.46692 -0.453453 0
M  V30 25 H -5.38216 0.246734 -1.08014 0
M  V30 26 H -3.76921 1.39688 -1.64561 0
M  V30 27 H -2.22358 0.738476 -2.27073 0
M  V30 28 H 5.32102 -0.973379 0.22398 0
M  V30 29 H 5.19962 1.94158 -1.0454 0
M  V30 30 H 5.55354 2.21187 0.670279 0
M  V30 END ATOM
M  V30 BEGIN BOND
M  V30 1 1 1 2
M  V30 2 2 2 3
M  V30 3 1 3 4
M  V30 4 1 4 5
M  V30 5 1 5 6
M  V30 6 1 6 7
M  V30 7 1 7 8
M  V30 8 1 8 9
M  V30 9 1 9 10
M  V30 10 1 10 11
M  V30 11 1 11 12
M  V30 12 2 4 13
M  V30 13 1 13 14
M  V30 14 2 14 15
M  V30 15 1 14 16
M  V30 16 1 15 2
M  V30 17 1 12 7
M  V30 18 1 1 17
M  V30 19 1 1 18
M  V30 20 1 6 19
M  V30 21 1 6 20
M  V30 22 1 7 21
M  V30 23 1 9 22
M  V30 24 1 9 23
M  V30 25 1 10 24
M  V30 26 1 10 25
M  V30 27 1 12 26
M  V30 28 1 12 27
M  V30 29 1 15 28
M  V30 30 1 16 29
M  V30 31 1 16 30
M  V30 END BOND
M  V30 END CTAB
M  END
