
     RDKit          3D

  0  0  0  0  0  0  0  0  0  0999 V3000
M  V30 BEGIN CTAB
M  V30 COUNTS 25 26 0 0 0
M  V30 BEGIN ATOM
M  V30 1 N -1.89684 1.10487 0.748134 0
M  V30 2 N -1.81939 -0.0486966 -0.0357164 0
M  V30 3 C -0.767016 -0.572599 -0.63696 0
M  V30 4 C 0.622951 -0.0731883 -0.634389 0
M  V30 5 C 0.903837 0.961703 0.405989 0
M  V30 6 N 2.32312 1.19513 0.590128 0
M  V30 7 C 3.30572 0.256339 0.13983 0
M  V30 8 O 4.4702 0.275369 0.60375 0
M  V30 9 C 2.84384 -0.711479 -0.890697 0
M  V30 10 N 1.55342 -1.20328 -0.438643 0
M  V30 11 N -1.16401 -1.70168 -1.29331 0
M  V30 12 N -2.4364 -1.86443 -1.09625 0
M  V30 13 C -2.8836 -0.863252 -0.322462 0
M  V30 14 N -4.20864 -0.642648 0.142461 0
M  V30 15 H -1.92765 2.04627 0.311824 0
M  V30 16 H -1.92264 0.992055 1.77991 0
M  V30 17 H 0.90046 0.374823 -1.62599 0
M  V30 18 H 0.537585 0.613364 1.40931 0
M  V30 19 H 0.463085 1.92524 0.119382 0
M  V30 20 H 2.60387 2.06824 1.06097 0
M  V30 21 H 3.57034 -1.5325 -1.04349 0
M  V30 22 H 2.68486 -0.161573 -1.8436 0
M  V30 23 H 1.58688 -1.31648 0.619738 0
M  V30 24 H -4.33649 -0.137584 1.0461 0
M  V30 25 H -5.00748 -0.983999 -0.419265 0
M  V30 END ATOM
M  V30 BEGIN BOND
M  V30 1 1 1 2
M  V30 2 1 2 3
M  V30 3 1 3 4
M  V30 4 1 4 5
M  V30 5 1 5 6
M  V30 6 1 6 7
M  V30 7 2 7 8
M  V30 8 1 7 9
M  V30 9 1 9 10
M  V30 10 2 3 11
M  V30 11 1 11 12
M  V30 12 2 12 13
M  V30 13 1 13 14
M  V30 14 1 13 2
M  V30 15 1 10 4
M  V30 16 1 1 15
M  V30 17 1 1 16
M  V30 18 1 4 17
M  V30 19 1 5 18
M  V30 20 1 5 19
M  V30 21 1 6 20
M  V30 22 1 9 21
M  V30 23 1 9 22
M  V30 24 1 10 23
M  V30 25 1 14 24
M  V30 26 1 14 25
M  V30 END BOND
M  V30 END CTAB
M  END
