
     RDKit          3D

  0  0  0  0  0  0  0  0  0  0999 V3000
M  V30 BEGIN CTAB
M  V30 COUNTS 42 44 0 0 0
M  V30 BEGIN ATOM
M  V30 1 O 2.26055 0.193691 -1.16195 0
M  V30 2 C 1.4912 0.254749 -0.228745 0
M  V30 3 C 2.23229 0.343982 1.19798 0
M  V30 4 S 3.6157 1.4446 0.93202 0
M  V30 5 C 5.03089 0.481022 0.426245 0
M  V30 6 N 5.10304 -0.862101 0.264801 0
M  V30 7 C 6.32577 -1.24137 -0.103773 0
M  V30 8 C 7.04649 -0.0808929 -0.185122 0
M  V30 9 O 6.22934 0.912179 0.137284 0
M  V30 10 C 8.39039 -0.0971373 -0.534863 0
M  V30 11 C 9.00079 -1.33441 -0.803684 0
M  V30 12 C 8.26852 -2.49593 -0.714086 0
M  V30 13 C 6.9476 -2.44323 -0.367583 0
M  V30 14 N 0.180465 0.279162 -0.0670389 0
M  V30 15 N -1.17985 0.30308 0.0648078 0
M  V30 16 C -1.68476 1.61124 0.36306 0
M  V30 17 O -0.603461 2.46197 0.313131 0
M  V30 18 C -2.81369 2.31135 0.67258 0
M  V30 19 S -4.00399 1.60637 1.76359 0
M  V30 20 C -5.27021 0.722521 0.89241 0
M  V30 21 N -6.31481 1.50093 0.429189 0
M  V30 22 C -7.4044 1.00978 -0.172366 0
M  V30 23 N -8.42127 1.91536 -0.636397 0
M  V30 24 C -7.49596 -0.347606 -0.337514 0
M  V30 25 C -6.43402 -1.13092 0.133659 0
M  V30 26 N -5.34447 -0.572075 0.737505 0
M  V30 27 N -6.49224 -2.53376 -0.0158844 0
M  V30 28 H 2.50739 -0.718181 1.32988 0
M  V30 29 H 1.50487 0.655689 1.9073 0
M  V30 30 H 8.92954 0.838739 -0.618013 0
M  V30 31 H 10.0575 -1.36537 -1.04809 0
M  V30 32 H 8.76899 -3.4305 -0.894787 0
M  V30 33 H 6.3249 -3.31957 -0.276979 0
M  V30 34 H -0.015578 0.262412 -1.43723 0
M  V30 35 H -1.79452 -0.529191 -0.0132856 0
M  V30 36 H -3.38771 2.6142 -0.345326 0
M  V30 37 H -2.60229 3.3803 1.07858 0
M  V30 38 H -8.69161 1.98878 -1.64341 0
M  V30 39 H -8.89709 2.47521 0.0992322 0
M  V30 40 H -8.32715 -0.856067 -0.797204 0
M  V30 41 H -5.92172 -3.17413 0.57511 0
M  V30 42 H -7.1154 -3.03488 -0.704729 0
M  V30 END ATOM
M  V30 BEGIN BOND
M  V30 1 2 1 2
M  V30 2 1 2 3
M  V30 3 1 3 4
M  V30 4 1 4 5
M  V30 5 2 5 6
M  V30 6 1 6 7
M  V30 7 2 7 8
M  V30 8 1 8 9
M  V30 9 1 8 10
M  V30 10 2 10 11
M  V30 11 1 11 12
M  V30 12 2 12 13
M  V30 13 1 2 14
M  V30 14 1 14 15
M  V30 15 1 15 16
M  V30 16 2 16 17
M  V30 17 1 16 18
M  V30 18 1 18 19
M  V30 19 1 19 20
M  V30 20 2 20 21
M  V30 21 1 21 22
M  V30 22 1 22 23
M  V30 23 2 22 24
M  V30 24 1 24 25
M  V30 25 2 25 26
M  V30 26 1 25 27
M  V30 27 1 9 5
M  V30 28 1 26 20
M  V30 29 1 13 7
M  V30 30 1 3 28
M  V30 31 1 3 29
M  V30 32 1 10 30
M  V30 33 1 11 31
M  V30 34 1 12 32
M  V30 35 1 13 33
M  V30 36 1 14 34
M  V30 37 1 15 35
M  V30 38 1 18 36
M  V30 39 1 18 37
M  V30 40 1 23 38
M  V30 41 1 23 39
M  V30 42 1 24 40
M  V30 43 1 27 41
M  V30 44 1 27 42
M  V30 END BOND
M  V30 END CTAB
M  END
