
     RDKit          3D

  0  0  0  0  0  0  0  0  0  0999 V3000
M  V30 BEGIN CTAB
M  V30 COUNTS 28 28 0 0 0
M  V30 BEGIN ATOM
M  V30 1 C 4.10164 1.61413 0.573236 0
M  V30 2 C 2.97001 2.43071 0.0519751 0
M  V30 3 O 1.7155 1.84966 0.172126 0
M  V30 4 C 1.41017 0.632661 -0.434304 0
M  V30 5 O 2.33821 0.103975 -1.08969 0
M  V30 6 C 0.0892906 0.0176004 -0.309727 0
M  V30 7 C -0.918353 0.614719 0.415554 0
M  V30 8 C -2.13687 -0.0309411 0.484261 0
M  V30 9 N -3.17333 0.560594 1.21687 0
M  V30 10 C -2.37567 -1.24619 -0.145724 0
M  V30 11 C -1.36257 -1.81111 -0.853992 0
M  V30 12 C -0.11318 -1.1877 -0.947258 0
M  V30 13 N 0.935272 -1.7971 -1.69482 0
M  V30 14 C -3.70157 -1.90598 -0.0456602 0
M  V30 15 F -4.01984 -2.18209 1.26946 0
M  V30 16 F -3.66277 -3.08262 -0.75889 0
M  V30 17 F -4.6601 -1.06631 -0.611385 0
M  V30 18 H 3.73923 0.796554 1.26185 0
M  V30 19 H 4.55641 1.07578 -0.285163 0
M  V30 20 H 4.91475 2.20313 1.04455 0
M  V30 21 H 3.18559 2.718 -0.996702 0
M  V30 22 H 2.93674 3.40863 0.616202 0
M  V30 23 H -0.773297 1.55027 0.914875 0
M  V30 24 H -3.64496 1.43073 0.904997 0
M  V30 25 H -3.4865 0.121909 2.10115 0
M  V30 26 H -1.51863 -2.77171 -1.36404 0
M  V30 27 H 1.68342 -2.35555 -1.24364 0
M  V30 28 H 0.971411 -1.69175 -2.72713 0
M  V30 END ATOM
M  V30 BEGIN BOND
M  V30 1 1 1 2
M  V30 2 1 2 3
M  V30 3 1 3 4
M  V30 4 2 4 5
M  V30 5 1 4 6
M  V30 6 2 6 7
M  V30 7 1 7 8
M  V30 8 1 8 9
M  V30 9 2 8 10
M  V30 10 1 10 11
M  V30 11 2 11 12
M  V30 12 1 12 13
M  V30 13 1 10 14
M  V30 14 1 14 15
M  V30 15 1 14 16
M  V30 16 1 14 17
M  V30 17 1 12 6
M  V30 18 1 1 18
M  V30 19 1 1 19
M  V30 20 1 1 20
M  V30 21 1 2 21
M  V30 22 1 2 22
M  V30 23 1 7 23
M  V30 24 1 9 24
M  V30 25 1 9 25
M  V30 26 1 11 26
M  V30 27 1 13 27
M  V30 28 1 13 28
M  V30 END BOND
M  V30 END CTAB
M  END
