
     RDKit          3D

  0  0  0  0  0  0  0  0  0  0999 V3000
M  V30 BEGIN CTAB
M  V30 COUNTS 29 29 0 0 0
M  V30 BEGIN ATOM
M  V30 1 N -3.98638 -0.0830441 -0.774652 0
M  V30 2 C -3.64222 0.277052 0.575027 0
M  V30 3 C -2.50801 -0.599556 1.04227 0
M  V30 4 C -1.28902 -0.394428 0.121994 0
M  V30 5 N -0.849113 0.933949 0.127873 0
M  V30 6 S 0.47523 1.29582 -0.867101 0
M  V30 7 O 0.76779 2.80875 -0.844568 0
M  V30 8 O 0.0716042 1.08826 -2.34546 0
M  V30 9 C 1.95272 0.479564 -0.544745 0
M  V30 10 C 2.94862 1.15409 0.166723 0
M  V30 11 C 4.12507 0.534512 0.511948 0
M  V30 12 Cl 5.37922 1.4007 1.41388 0
M  V30 13 C 4.33084 -0.780441 0.150347 0
M  V30 14 N 3.3764 -1.43312 -0.535084 0
M  V30 15 C 2.19725 -0.810937 -0.882019 0
M  V30 16 N 1.24741 -1.51765 -1.66465 0
M  V30 17 F -2.90043 -1.91088 0.841505 0
M  V30 18 F -2.18727 -0.447073 2.35766 0
M  V30 19 H -4.61097 -0.893856 -0.855972 0
M  V30 20 H -4.16906 0.702592 -1.40443 0
M  V30 21 H -4.4905 0.129648 1.28103 0
M  V30 22 H -3.35001 1.35837 0.574964 0
M  V30 23 H -1.57648 -0.820353 -0.846569 0
M  V30 24 H -0.480792 -1.07413 0.552654 0
M  V30 25 H -0.701791 1.26213 1.09489 0
M  V30 26 H 2.79081 2.16836 0.446022 0
M  V30 27 H 5.27198 -1.26555 0.431299 0
M  V30 28 H 0.753379 -2.36285 -1.25183 0
M  V30 29 H 1.05373 -1.19993 -2.6167 0
M  V30 END ATOM
M  V30 BEGIN BOND
M  V30 1 1 1 2
M  V30 2 1 2 3
M  V30 3 1 3 4
M  V30 4 1 4 5
M  V30 5 1 5 6
M  V30 6 2 6 7
M  V30 7 2 6 8
M  V30 8 1 6 9
M  V30 9 2 9 10
M  V30 10 1 10 11
M  V30 11 1 11 12
M  V30 12 2 11 13
M  V30 13 1 13 14
M  V30 14 2 14 15
M  V30 15 1 15 16
M  V30 16 1 3 17
M  V30 17 1 3 18
M  V30 18 1 15 9
M  V30 19 1 1 19
M  V30 20 1 1 20
M  V30 21 1 2 21
M  V30 22 1 2 22
M  V30 23 1 4 23
M  V30 24 1 4 24
M  V30 25 1 5 25
M  V30 26 1 10 26
M  V30 27 1 13 27
M  V30 28 1 16 28
M  V30 29 1 16 29
M  V30 END BOND
M  V30 END CTAB
M  END
