
     RDKit          3D

  0  0  0  0  0  0  0  0  0  0999 V3000
M  V30 BEGIN CTAB
M  V30 COUNTS 32 32 0 0 0
M  V30 BEGIN ATOM
M  V30 1 C -2.28191 -0.595343 -1.98776 0
M  V30 2 C -2.05004 -1.0509 -0.550955 0
M  V30 3 N -1.87422 0.0484198 0.31913 0
M  V30 4 C -3.16932 0.539999 0.909149 0
M  V30 5 C -3.33525 -0.245091 2.19169 0
M  V30 6 C -0.75469 0.748114 0.722179 0
M  V30 7 O -0.985991 1.73174 1.57504 0
M  V30 8 C 0.649412 0.631352 0.403233 0
M  V30 9 C 1.1873 -0.262088 -0.487801 0
M  V30 10 C 2.56545 -0.328201 -0.738574 0
M  V30 11 N 3.07314 -1.26452 -1.66413 0
M  V30 12 C 3.45551 0.497266 -0.107364 0
M  V30 13 N 4.84747 0.405868 -0.382997 0
M  V30 14 C 2.9465 1.40267 0.790116 0
M  V30 15 C 1.59437 1.46391 1.03306 0
M  V30 16 H -2.38003 -1.54003 -2.58229 0
M  V30 17 H -3.21331 -0.00594283 -2.07466 0
M  V30 18 H -1.38653 -0.0315646 -2.29082 0
M  V30 19 H -1.33267 -1.84968 -0.53616 0
M  V30 20 H -3.0464 -1.59248 -0.308509 0
M  V30 21 H -3.00275 1.61867 1.07817 0
M  V30 22 H -3.9772 0.343264 0.191553 0
M  V30 23 H -3.83034 -1.2119 1.89472 0
M  V30 24 H -2.35954 -0.534669 2.63718 0
M  V30 25 H -3.96771 0.291434 2.93104 0
M  V30 26 H 0.570238 -0.946251 -1.03811 0
M  V30 27 H 3.80697 -1.92767 -1.3743 0
M  V30 28 H 2.708 -1.28175 -2.62703 0
M  V30 29 H 5.50911 1.20177 -0.315688 0
M  V30 30 H 5.23419 -0.518327 -0.671946 0
M  V30 31 H 3.60405 2.08059 1.31844 0
M  V30 32 H 1.19618 2.18134 1.74437 0
M  V30 END ATOM
M  V30 BEGIN BOND
M  V30 1 1 1 2
M  V30 2 1 2 3
M  V30 3 1 3 4
M  V30 4 1 4 5
M  V30 5 1 3 6
M  V30 6 2 6 7
M  V30 7 1 6 8
M  V30 8 2 8 9
M  V30 9 1 9 10
M  V30 10 1 10 11
M  V30 11 2 10 12
M  V30 12 1 12 13
M  V30 13 1 12 14
M  V30 14 2 14 15
M  V30 15 1 15 8
M  V30 16 1 1 16
M  V30 17 1 1 17
M  V30 18 1 1 18
M  V30 19 1 2 19
M  V30 20 1 2 20
M  V30 21 1 4 21
M  V30 22 1 4 22
M  V30 23 1 5 23
M  V30 24 1 5 24
M  V30 25 1 5 25
M  V30 26 1 9 26
M  V30 27 1 11 27
M  V30 28 1 11 28
M  V30 29 1 13 29
M  V30 30 1 13 30
M  V30 31 1 14 31
M  V30 32 1 15 32
M  V30 END BOND
M  V30 END CTAB
M  END
