
     RDKit          3D

  0  0  0  0  0  0  0  0  0  0999 V3000
M  V30 BEGIN CTAB
M  V30 COUNTS 27 27 0 0 0
M  V30 BEGIN ATOM
M  V30 1 N -1.27154 2.33708 0.458629 0
M  V30 2 C -1.65362 1.25705 -0.397257 0
M  V30 3 C -1.06507 -0.0397353 0.10531 0
M  V30 4 N 0.30247 0.00186519 0.125018 0
M  V30 5 C 1.06651 0.85606 0.918095 0
M  V30 6 C 2.44633 0.21601 0.916018 0
M  V30 7 C 2.47304 -0.703947 -0.24743 0
M  V30 8 C 1.1111 -0.549559 -0.899834 0
M  V30 9 C -1.71651 -1.14923 -0.680412 0
M  V30 10 N -1.28111 -2.46809 -0.316508 0
M  V30 11 H -1.3025 2.13953 1.47655 0
M  V30 12 H -1.86169 3.15748 0.232462 0
M  V30 13 H -2.75438 1.19882 -0.55343 0
M  V30 14 H -1.20544 1.49061 -1.41164 0
M  V30 15 H -1.45869 -0.190367 1.16205 0
M  V30 16 H 1.18348 1.85357 0.398688 0
M  V30 17 H 0.754604 1.05035 1.94006 0
M  V30 18 H 3.2131 1.00012 0.803134 0
M  V30 19 H 2.63579 -0.311301 1.88615 0
M  V30 20 H 3.27233 -0.487381 -0.985504 0
M  V30 21 H 2.54766 -1.75611 0.138697 0
M  V30 22 H 0.777962 -1.44303 -1.40633 0
M  V30 23 H 1.26831 0.251395 -1.68471 0
M  V30 24 H -1.62242 -0.983121 -1.78513 0
M  V30 25 H -2.80553 -1.09874 -0.4719 0
M  V30 26 H -0.989463 -2.48072 0.68076 0
M  V30 27 H -2.06477 -3.14861 -0.401536 0
M  V30 END ATOM
M  V30 BEGIN BOND
M  V30 1 1 1 2
M  V30 2 1 2 3
M  V30 3 1 3 4
M  V30 4 1 4 5
M  V30 5 1 5 6
M  V30 6 1 6 7
M  V30 7 1 7 8
M  V30 8 1 3 9
M  V30 9 1 9 10
M  V30 10 1 8 4
M  V30 11 1 1 11
M  V30 12 1 1 12
M  V30 13 1 2 13
M  V30 14 1 2 14
M  V30 15 1 3 15
M  V30 16 1 5 16
M  V30 17 1 5 17
M  V30 18 1 6 18
M  V30 19 1 6 19
M  V30 20 1 7 20
M  V30 21 1 7 21
M  V30 22 1 8 22
M  V30 23 1 8 23
M  V30 24 1 9 24
M  V30 25 1 9 25
M  V30 26 1 10 26
M  V30 27 1 10 27
M  V30 END BOND
M  V30 END CTAB
M  END
