
     RDKit          3D

  0  0  0  0  0  0  0  0  0  0999 V3000
M  V30 BEGIN CTAB
M  V30 COUNTS 46 48 0 0 0
M  V30 BEGIN ATOM
M  V30 1 C 5.27524 0.317189 -0.467608 0 CFG=2
M  V30 2 N 4.91598 -0.907339 -1.11447 0
M  V30 3 C 4.11178 0.987331 0.215053 0
M  V30 4 C 3.56012 0.0507376 1.2581 0
M  V30 5 S 2.95032 -1.49582 0.584555 0
M  V30 6 C 1.48029 -1.24134 -0.451429 0
M  V30 7 C 0.307403 -0.764839 0.386774 0 CFG=1
M  V30 8 O -0.843671 -0.548527 -0.369309 0
M  V30 9 C -1.83637 -0.583549 0.614669 0 CFG=2
M  V30 10 C -1.5698 -1.94715 1.21357 0 CFG=2
M  V30 11 O -2.2364 -2.09606 2.42445 0
M  V30 12 C -0.0718915 -1.84069 1.39902 0 CFG=2
M  V30 13 O 0.163107 -1.37433 2.68026 0
M  V30 14 N -3.16009 -0.412432 0.142756 0
M  V30 15 C -4.14048 -1.33123 0.0840551 0
M  V30 16 N -5.24381 -0.753904 -0.425628 0
M  V30 17 C -4.99872 0.541334 -0.704132 0
M  V30 18 C -3.66778 0.737937 -0.335337 0
M  V30 19 N -3.16877 1.97942 -0.519243 0
M  V30 20 C -3.88343 2.99058 -1.02521 0
M  V30 21 N -5.16236 2.77047 -1.37064 0
M  V30 22 C -5.73822 1.57215 -1.22333 0
M  V30 23 N -7.08306 1.3945 -1.60129 0
M  V30 24 C 5.9438 1.26888 -1.41152 0
M  V30 25 O 6.32514 2.4924 -0.917465 0
M  V30 26 O 6.11211 0.885306 -2.59499 0
M  V30 27 H 6.01366 0.09654 0.34302 0
M  V30 28 H 5.61336 -1.64907 -0.871887 0
M  V30 29 H 4.84926 -0.728416 -2.14536 0
M  V30 30 H 4.50212 1.92527 0.655598 0
M  V30 31 H 3.32555 1.30038 -0.505517 0
M  V30 32 H 2.70711 0.594115 1.73347 0
M  V30 33 H 4.28525 -0.141657 2.07124 0
M  V30 34 H 1.1984 -2.18745 -0.939953 0
M  V30 35 H 1.74984 -0.520013 -1.23774 0
M  V30 36 H 0.556334 0.192773 0.88118 0
M  V30 37 H -1.52541 0.156105 1.38391 0
M  V30 38 H -1.83696 -2.77148 0.50679 0
M  V30 39 H -2.65856 -2.99431 2.43451 0
M  V30 40 H 0.445845 -2.79428 1.18838 0
M  V30 41 H -0.471726 -0.710812 2.98743 0
M  V30 42 H -4.11278 -2.37255 0.382231 0
M  V30 43 H -3.46071 3.96496 -1.15966 0
M  V30 44 H -7.35549 0.881071 -2.46391 0
M  V30 45 H -7.85529 1.79351 -0.99156 0
M  V30 46 H 5.68974 3.27428 -0.825711 0
M  V30 END ATOM
M  V30 BEGIN BOND
M  V30 1 1 1 2
M  V30 2 1 1 3
M  V30 3 1 3 4
M  V30 4 1 4 5
M  V30 5 1 5 6
M  V30 6 1 6 7
M  V30 7 1 7 8
M  V30 8 1 8 9
M  V30 9 1 9 10
M  V30 10 1 10 11
M  V30 11 1 10 12
M  V30 12 1 12 13
M  V30 13 1 9 14
M  V30 14 1 14 15
M  V30 15 2 15 16
M  V30 16 1 16 17
M  V30 17 2 17 18
M  V30 18 1 18 19
M  V30 19 2 19 20
M  V30 20 1 20 21
M  V30 21 2 21 22
M  V30 22 1 22 23
M  V30 23 1 1 24
M  V30 24 1 24 25
M  V30 25 2 24 26
M  V30 26 1 12 7
M  V30 27 1 18 14
M  V30 28 1 22 17
M  V30 29 1 1 27 CFG=1
M  V30 30 1 2 28
M  V30 31 1 2 29
M  V30 32 1 3 30
M  V30 33 1 3 31
M  V30 34 1 4 32
M  V30 35 1 4 33
M  V30 36 1 6 34
M  V30 37 1 6 35
M  V30 38 1 7 36 CFG=1
M  V30 39 1 9 37 CFG=1
M  V30 40 1 10 38 CFG=3
M  V30 41 1 11 39
M  V30 42 1 12 40 CFG=3
M  V30 43 1 13 41
M  V30 44 1 15 42
M  V30 45 1 20 43
M  V30 46 1 23 44
M  V30 47 1 23 45
M  V30 48 1 25 46
M  V30 END BOND
M  V30 END CTAB
M  END
