
     RDKit          3D

  0  0  0  0  0  0  0  0  0  0999 V3000
M  V30 BEGIN CTAB
M  V30 COUNTS 37 39 0 0 0
M  V30 BEGIN ATOM
M  V30 1 N 2.27842 -2.06735 1.62925 0
M  V30 2 C 2.91283 -1.26297 0.645504 0
M  V30 3 N 4.1892 -1.59006 0.344223 0
M  V30 4 C 4.90302 -0.902889 -0.568155 0
M  V30 5 C 4.34461 0.158813 -1.22118 0
M  V30 6 C 3.05043 0.523291 -0.94352 0
M  V30 7 C 2.32145 -0.196986 0.00300037 0
M  V30 8 C 0.923758 0.188448 0.32443 0 CFG=1
M  V30 9 C 0.47285 1.20585 -0.680822 0
M  V30 10 C -0.962749 1.47795 -0.71566 0
M  V30 11 C -1.39221 2.67492 -1.23447 0
M  V30 12 C -2.7517 2.98983 -1.32587 0
M  V30 13 C -3.68514 2.07882 -0.885864 0
M  V30 14 C -3.24407 0.881451 -0.367017 0
M  V30 15 C -1.88158 0.566585 -0.274567 0
M  V30 16 N -1.398 -0.639652 0.262344 0
M  V30 17 C -0.00343581 -0.918652 0.562531 0
M  V30 18 S -2.49943 -1.90419 0.650132 0
M  V30 19 O -1.82487 -3.12006 1.2142 0
M  V30 20 O -3.25759 -2.36861 -0.563068 0
M  V30 21 N -3.59218 -1.35348 1.88264 0
M  V30 22 H 1.90646 -3.03726 1.41929 0
M  V30 23 H 2.17615 -1.69141 2.5863 0
M  V30 24 H 5.92153 -1.20505 -0.773826 0
M  V30 25 H 4.89773 0.709689 -1.94441 0
M  V30 26 H 2.61845 1.39059 -1.47304 0
M  V30 27 H 1.01484 0.765002 1.29885 0
M  V30 28 H 1.0047 2.16638 -0.551328 0
M  V30 29 H 0.781073 0.815736 -1.70415 0
M  V30 30 H -0.688364 3.40144 -1.58494 0
M  V30 31 H -3.1069 3.92596 -1.73041 0
M  V30 32 H -4.75357 2.2377 -0.918404 0
M  V30 33 H -3.96032 0.166956 -0.0352756 0
M  V30 34 H -0.0455601 -1.2273 1.65681 0
M  V30 35 H 0.265106 -1.82886 0.00465742 0
M  V30 36 H -3.96304 -2.17143 2.4335 0
M  V30 37 H -2.9719 -0.839209 2.57832 0
M  V30 END ATOM
M  V30 BEGIN BOND
M  V30 1 1 1 2
M  V30 2 2 2 3
M  V30 3 1 3 4
M  V30 4 2 4 5
M  V30 5 1 5 6
M  V30 6 2 6 7
M  V30 7 1 7 8
M  V30 8 1 8 9
M  V30 9 1 9 10
M  V30 10 2 10 11
M  V30 11 1 11 12
M  V30 12 2 12 13
M  V30 13 1 13 14
M  V30 14 2 14 15
M  V30 15 1 15 16
M  V30 16 1 16 17
M  V30 17 1 16 18
M  V30 18 2 18 19
M  V30 19 2 18 20
M  V30 20 1 18 21
M  V30 21 1 7 2
M  V30 22 1 17 8
M  V30 23 1 15 10
M  V30 24 1 1 22
M  V30 25 1 1 23
M  V30 26 1 4 24
M  V30 27 1 5 25
M  V30 28 1 6 26
M  V30 29 1 8 27 CFG=1
M  V30 30 1 9 28
M  V30 31 1 9 29
M  V30 32 1 11 30
M  V30 33 1 12 31
M  V30 34 1 13 32
M  V30 35 1 14 33
M  V30 36 1 17 34
M  V30 37 1 17 35
M  V30 38 1 21 36
M  V30 39 1 21 37
M  V30 END BOND
M  V30 END CTAB
M  END
