
     RDKit          3D

  0  0  0  0  0  0  0  0  0  0999 V3000
M  V30 BEGIN CTAB
M  V30 COUNTS 41 41 0 0 0
M  V30 BEGIN ATOM
M  V30 1 N -2.52035 -1.44616 -0.718589 0
M  V30 2 C -2.7652 -0.0786585 -0.551471 0 CFG=1
M  V30 3 C -4.06367 0.110498 0.173005 0
M  V30 4 C -5.12866 -0.537357 -0.744008 0
M  V30 5 C -4.47495 1.54827 0.322954 0
M  V30 6 C -4.0574 -0.665139 1.46452 0
M  V30 7 C -1.62029 0.646145 0.0122157 0
M  V30 8 O -1.78878 1.81242 0.416968 0
M  V30 9 N -0.350509 0.0407031 0.0949809 0
M  V30 10 C 0.712809 0.852081 0.659412 0
M  V30 11 C 2.07148 0.41072 0.37276 0
M  V30 12 C 2.59592 0.47925 -0.906349 0
M  V30 13 C 3.87615 0.101648 -1.22514 0
M  V30 14 C 4.7019 -0.374317 -0.246533 0
M  V30 15 C 4.22199 -0.458045 1.03091 0
M  V30 16 C 2.91754 -0.0710783 1.34674 0
M  V30 17 S 6.33827 -0.868875 -0.673345 0
M  V30 18 O 6.78375 -2.00421 0.216288 0
M  V30 19 O 6.32219 -1.39197 -2.07465 0
M  V30 20 N 7.43933 0.447618 -0.630393 0
M  V30 21 H -2.3939 -1.96662 0.0866281 0
M  V30 22 H -3.00828 -1.84515 -1.47283 0
M  V30 23 H -2.99808 0.357455 -1.6031 0
M  V30 24 H -5.18819 -1.60992 -0.495752 0
M  V30 25 H -6.1031 -0.0100827 -0.602432 0
M  V30 26 H -4.8165 -0.440231 -1.79868 0
M  V30 27 H -4.09957 1.96527 1.2755 0
M  V30 28 H -4.14093 2.16817 -0.536994 0
M  V30 29 H -5.5923 1.64934 0.335284 0
M  V30 30 H -4.80448 -0.264877 2.19124 0
M  V30 31 H -3.06066 -0.702204 1.92456 0
M  V30 32 H -4.34254 -1.72222 1.19979 0
M  V30 33 H -0.205083 -0.938294 -0.239872 0
M  V30 34 H 0.602549 1.86666 0.169295 0
M  V30 35 H 0.524279 1.04352 1.73277 0
M  V30 36 H 1.94876 0.858526 -1.70626 0
M  V30 37 H 4.26985 0.164567 -2.22987 0
M  V30 38 H 4.85111 -0.833895 1.83913 0
M  V30 39 H 2.58962 -0.151536 2.35473 0
M  V30 40 H 7.77229 0.593607 0.346797 0
M  V30 41 H 6.98364 1.26437 -1.07041 0
M  V30 END ATOM
M  V30 BEGIN BOND
M  V30 1 1 1 2
M  V30 2 1 2 3
M  V30 3 1 3 4
M  V30 4 1 3 5
M  V30 5 1 3 6
M  V30 6 1 2 7
M  V30 7 2 7 8
M  V30 8 1 7 9
M  V30 9 1 9 10
M  V30 10 1 10 11
M  V30 11 2 11 12
M  V30 12 1 12 13
M  V30 13 2 13 14
M  V30 14 1 14 15
M  V30 15 2 15 16
M  V30 16 1 14 17
M  V30 17 2 17 18
M  V30 18 2 17 19
M  V30 19 1 17 20
M  V30 20 1 16 11
M  V30 21 1 1 21
M  V30 22 1 1 22
M  V30 23 1 2 23 CFG=3
M  V30 24 1 4 24
M  V30 25 1 4 25
M  V30 26 1 4 26
M  V30 27 1 5 27
M  V30 28 1 5 28
M  V30 29 1 5 29
M  V30 30 1 6 30
M  V30 31 1 6 31
M  V30 32 1 6 32
M  V30 33 1 9 33
M  V30 34 1 10 34
M  V30 35 1 10 35
M  V30 36 1 12 36
M  V30 37 1 13 37
M  V30 38 1 15 38
M  V30 39 1 16 39
M  V30 40 1 20 40
M  V30 41 1 20 41
M  V30 END BOND
M  V30 END CTAB
M  END
