
     RDKit          3D

  0  0  0  0  0  0  0  0  0  0999 V3000
M  V30 BEGIN CTAB
M  V30 COUNTS 42 44 0 0 0
M  V30 BEGIN ATOM
M  V30 1 F -2.80821 4.74312 -1.81523 0
M  V30 2 C -2.60956 3.47761 -1.35832 0
M  V30 3 C -1.38943 2.85186 -1.4738 0
M  V30 4 C -1.21054 1.54514 -0.994127 0
M  V30 5 C -2.20994 0.839833 -0.401192 0
M  V30 6 C -3.43854 1.49587 -0.295631 0
M  V30 7 C -3.63086 2.77955 -0.762167 0
M  V30 8 C -1.99452 -0.528226 0.115409 0
M  V30 9 C -3.15989 -1.09325 0.865572 0
M  V30 10 C -2.82553 -2.59184 0.856634 0
M  V30 11 C -2.28244 -2.84001 -0.513308 0
M  V30 12 C -1.82748 -1.51426 -1.04987 0
M  V30 13 C -0.799447 -0.55618 0.983226 0
M  V30 14 O -0.967058 -0.798319 2.21364 0
M  V30 15 O 0.479304 -0.342696 0.563108 0
M  V30 16 C 1.53686 -0.396131 1.47793 0
M  V30 17 C 2.85426 -0.131731 0.801342 0
M  V30 18 N 3.58336 -1.14595 0.282573 0
M  V30 19 C 4.76014 -0.949828 -0.326766 0
M  V30 20 N 5.48449 -2.06626 -0.855684 0
M  V30 21 N 5.21611 0.301429 -0.416714 0
M  V30 22 C 4.53133 1.36188 0.0839372 0
M  V30 23 N 3.35678 1.11004 0.685145 0
M  V30 24 N 5.07199 2.66801 -0.0447878 0
M  V30 25 H -0.579971 3.38912 -1.9397 0
M  V30 26 H -0.210193 1.12883 -1.14169 0
M  V30 27 H -4.24298 0.963689 0.170903 0
M  V30 28 H -4.59461 3.28842 -0.677162 0
M  V30 29 H -3.17281 -0.787352 1.92654 0
M  V30 30 H -4.13759 -0.998271 0.3503 0
M  V30 31 H -2.15787 -2.86047 1.68259 0
M  V30 32 H -3.81114 -3.12014 1.01505 0
M  V30 33 H -3.10363 -3.2441 -1.1581 0
M  V30 34 H -1.43727 -3.57461 -0.444769 0
M  V30 35 H -0.77881 -1.48389 -1.34782 0
M  V30 36 H -2.49475 -1.13106 -1.85239 0
M  V30 37 H 1.57583 -1.44181 1.88497 0
M  V30 38 H 1.40934 0.315641 2.33358 0
M  V30 39 H 6.24255 -1.94512 -1.55575 0
M  V30 40 H 5.25222 -3.03069 -0.5358 0
M  V30 41 H 4.96299 3.31559 0.762394 0
M  V30 42 H 5.55753 2.99656 -0.884608 0
M  V30 END ATOM
M  V30 BEGIN BOND
M  V30 1 1 1 2
M  V30 2 2 2 3
M  V30 3 1 3 4
M  V30 4 2 4 5
M  V30 5 1 5 6
M  V30 6 2 6 7
M  V30 7 1 5 8
M  V30 8 1 8 9
M  V30 9 1 9 10
M  V30 10 1 10 11
M  V30 11 1 11 12
M  V30 12 1 8 13
M  V30 13 2 13 14
M  V30 14 1 13 15
M  V30 15 1 15 16
M  V30 16 1 16 17
M  V30 17 2 17 18
M  V30 18 1 18 19
M  V30 19 1 19 20
M  V30 20 2 19 21
M  V30 21 1 21 22
M  V30 22 2 22 23
M  V30 23 1 22 24
M  V30 24 1 7 2
M  V30 25 1 12 8
M  V30 26 1 23 17
M  V30 27 1 3 25
M  V30 28 1 4 26
M  V30 29 1 6 27
M  V30 30 1 7 28
M  V30 31 1 9 29
M  V30 32 1 9 30
M  V30 33 1 10 31
M  V30 34 1 10 32
M  V30 35 1 11 33
M  V30 36 1 11 34
M  V30 37 1 12 35
M  V30 38 1 12 36
M  V30 39 1 16 37
M  V30 40 1 16 38
M  V30 41 1 20 39
M  V30 42 1 20 40
M  V30 43 1 24 41
M  V30 44 1 24 42
M  V30 END BOND
M  V30 END CTAB
M  END
