
     RDKit          3D

  0  0  0  0  0  0  0  0  0  0999 V3000
M  V30 BEGIN CTAB
M  V30 COUNTS 34 36 0 0 0
M  V30 BEGIN ATOM
M  V30 1 N -1.73586 -3.03794 -0.740356 0
M  V30 2 N -1.57799 -2.23187 0.411486 0
M  V30 3 C -1.85036 -0.837423 0.300964 0
M  V30 4 N -3.15991 -0.518562 0.244878 0
M  V30 5 C -3.64273 0.700219 0.150152 0
M  V30 6 N -5.03142 0.983364 0.0982348 0
M  V30 7 N -5.49464 2.30963 -0.0138724 0
M  V30 8 N -2.7226 1.71381 0.104053 0
M  V30 9 C -1.40906 1.4279 0.158526 0
M  V30 10 C -0.876949 0.162041 0.258585 0
M  V30 11 C 0.472068 0.077772 0.305736 0
M  V30 12 C 1.36289 -1.12377 0.42373 0
M  V30 13 C 2.5994 -0.912587 -0.431963 0
M  V30 14 C 3.43347 0.184521 0.189629 0
M  V30 15 C 2.64063 1.44574 0.286705 0
M  V30 16 C 1.1805 1.23466 0.25039 0
M  V30 17 S -0.0227902 2.43696 0.134399 0
M  V30 18 C 4.67937 0.340357 -0.652114 0
M  V30 19 H -1.96264 -4.01156 -0.482702 0
M  V30 20 H -2.3584 -2.60562 -1.44399 0
M  V30 21 H -1.27411 -2.66038 1.27984 0
M  V30 22 H -5.72315 0.202326 0.149622 0
M  V30 23 H -5.14889 2.83345 0.826545 0
M  V30 24 H -5.00232 2.72655 -0.84027 0
M  V30 25 H 0.938702 -2.05571 0.108063 0
M  V30 26 H 1.62343 -1.22771 1.50524 0
M  V30 27 H 3.21245 -1.8442 -0.411598 0
M  V30 28 H 2.28125 -0.593543 -1.4235 0
M  V30 29 H 3.7706 -0.17259 1.19564 0
M  V30 30 H 2.99323 2.13685 -0.522688 0
M  V30 31 H 2.90786 1.95749 1.24359 0
M  V30 32 H 5.25193 1.26173 -0.43719 0
M  V30 33 H 4.34016 0.279911 -1.71899 0
M  V30 34 H 5.30589 -0.581842 -0.506769 0
M  V30 END ATOM
M  V30 BEGIN BOND
M  V30 1 1 1 2
M  V30 2 1 2 3
M  V30 3 2 3 4
M  V30 4 1 4 5
M  V30 5 1 5 6
M  V30 6 1 6 7
M  V30 7 2 5 8
M  V30 8 1 8 9
M  V30 9 2 9 10
M  V30 10 1 10 11
M  V30 11 1 11 12
M  V30 12 1 12 13
M  V30 13 1 13 14
M  V30 14 1 14 15
M  V30 15 1 15 16
M  V30 16 1 16 17
M  V30 17 1 14 18
M  V30 18 1 10 3
M  V30 19 2 16 11
M  V30 20 1 17 9
M  V30 21 1 1 19
M  V30 22 1 1 20
M  V30 23 1 2 21
M  V30 24 1 6 22
M  V30 25 1 7 23
M  V30 26 1 7 24
M  V30 27 1 12 25
M  V30 28 1 12 26
M  V30 29 1 13 27
M  V30 30 1 13 28
M  V30 31 1 14 29
M  V30 32 1 15 30
M  V30 33 1 15 31
M  V30 34 1 18 32
M  V30 35 1 18 33
M  V30 36 1 18 34
M  V30 END BOND
M  V30 END CTAB
M  END
