
     RDKit          3D

  0  0  0  0  0  0  0  0  0  0999 V3000
M  V30 BEGIN CTAB
M  V30 COUNTS 24 24 0 0 0
M  V30 BEGIN ATOM
M  V30 1 C -1.6683 -1.4975 0.00798424 0
M  V30 2 C -1.40386 -0.181761 -0.656149 0
M  V30 3 C -0.602376 0.767633 0.199483 0
M  V30 4 C 0.745092 0.175844 0.545203 0
M  V30 5 C 1.10403 -0.0651796 1.84324 0
M  V30 6 S 2.67313 -0.713649 1.65722 0
M  V30 7 C 2.77923 -0.640831 -0.0428789 0
M  V30 8 N 1.61344 -0.125836 -0.38498 0
M  V30 9 N 3.85845 -1.03596 -0.906924 0
M  V30 10 C -0.448452 2.04931 -0.580198 0
M  V30 11 N -2.68675 0.45646 -0.894262 0
M  V30 12 H -1.91712 -1.34194 1.08619 0
M  V30 13 H -2.62176 -1.89897 -0.44558 0
M  V30 14 H -0.906121 -2.26046 -0.160841 0
M  V30 15 H -0.948966 -0.367292 -1.64587 0
M  V30 16 H -1.19068 0.952439 1.11654 0
M  V30 17 H 0.505561 0.123955 2.75585 0
M  V30 18 H 3.72705 -1.67337 -1.71556 0
M  V30 19 H 4.83814 -0.689465 -0.751229 0
M  V30 20 H 0.656512 2.26749 -0.641728 0
M  V30 21 H -0.82532 1.95718 -1.62971 0
M  V30 22 H -0.906598 2.91519 -0.0567596 0
M  V30 23 H -3.4626 -0.244779 -0.956546 0
M  V30 24 H -2.91174 1.07148 -0.0890897 0
M  V30 END ATOM
M  V30 BEGIN BOND
M  V30 1 1 1 2
M  V30 2 1 2 3
M  V30 3 1 3 4
M  V30 4 2 4 5
M  V30 5 1 5 6
M  V30 6 1 6 7
M  V30 7 2 7 8
M  V30 8 1 7 9
M  V30 9 1 3 10
M  V30 10 1 2 11
M  V30 11 1 8 4
M  V30 12 1 1 12
M  V30 13 1 1 13
M  V30 14 1 1 14
M  V30 15 1 2 15
M  V30 16 1 3 16
M  V30 17 1 5 17
M  V30 18 1 9 18
M  V30 19 1 9 19
M  V30 20 1 10 20
M  V30 21 1 10 21
M  V30 22 1 10 22
M  V30 23 1 11 23
M  V30 24 1 11 24
M  V30 END BOND
M  V30 END CTAB
M  END
