
     RDKit          3D

  0  0  0  0  0  0  0  0  0  0999 V3000
M  V30 BEGIN CTAB
M  V30 COUNTS 39 40 0 0 0
M  V30 BEGIN ATOM
M  V30 1 N 6.82481 0.590496 0.108251 0
M  V30 2 C 6.27051 -0.320494 -0.855288 0
M  V30 3 C 4.80181 -0.356498 -0.706959 0
M  V30 4 C 4.05054 -1.17278 -1.53724 0
M  V30 5 C 2.65954 -1.20881 -1.39898 0
M  V30 6 C 2.02152 -0.44437 -0.448594 0
M  V30 7 C 2.79773 0.354343 0.358528 0
M  V30 8 C 4.17298 0.416868 0.252375 0
M  V30 9 C 0.570823 -0.482445 -0.304942 0
M  V30 10 N -0.285882 -1.23154 -1.04514 0
M  V30 11 O -1.49902 -1.00857 -0.635731 0
M  V30 12 C -1.50527 -0.142916 0.347964 0
M  V30 13 N -0.215467 0.181266 0.549929 0
M  V30 14 C -2.66516 0.402966 1.11716 0 CFG=2
M  V30 15 C -3.96703 0.0897715 0.469567 0
M  V30 16 C -5.07321 0.67774 1.31295 0
M  V30 17 C -4.20115 -1.40086 0.393465 0
M  V30 18 C -3.99557 0.628877 -0.943234 0
M  V30 19 N -2.46972 1.82211 1.22931 0
M  V30 20 H 6.52267 1.55952 -0.0644194 0
M  V30 21 H 6.67146 0.272351 1.07805 0
M  V30 22 H 6.67586 -1.33873 -0.718323 0
M  V30 23 H 6.49042 0.0195022 -1.88036 0
M  V30 24 H 4.5563 -1.76966 -2.28028 0
M  V30 25 H 2.10843 -1.85722 -2.06439 0
M  V30 26 H 2.32227 0.956457 1.10361 0
M  V30 27 H 4.78995 1.04288 0.883875 0
M  V30 28 H -2.67628 -0.0246032 2.15539 0
M  V30 29 H -6.01536 0.122224 1.24717 0
M  V30 30 H -5.217 1.75526 1.1431 0
M  V30 31 H -4.72501 0.58555 2.38212 0
M  V30 32 H -5.03609 -1.729 1.06504 0
M  V30 33 H -3.31985 -1.98609 0.707695 0
M  V30 34 H -4.52342 -1.72068 -0.639008 0
M  V30 35 H -3.38823 1.52347 -1.08861 0
M  V30 36 H -5.04376 0.813757 -1.29423 0
M  V30 37 H -3.60574 -0.17365 -1.60553 0
M  V30 38 H -1.61373 2.16272 0.728767 0
M  V30 39 H -3.26565 2.39077 0.876944 0
M  V30 END ATOM
M  V30 BEGIN BOND
M  V30 1 1 1 2
M  V30 2 1 2 3
M  V30 3 2 3 4
M  V30 4 1 4 5
M  V30 5 2 5 6
M  V30 6 1 6 7
M  V30 7 2 7 8
M  V30 8 1 6 9
M  V30 9 2 9 10
M  V30 10 1 10 11
M  V30 11 1 11 12
M  V30 12 2 12 13
M  V30 13 1 12 14
M  V30 14 1 14 15
M  V30 15 1 15 16
M  V30 16 1 15 17
M  V30 17 1 15 18
M  V30 18 1 14 19
M  V30 19 1 8 3
M  V30 20 1 13 9
M  V30 21 1 1 20
M  V30 22 1 1 21
M  V30 23 1 2 22
M  V30 24 1 2 23
M  V30 25 1 4 24
M  V30 26 1 5 25
M  V30 27 1 7 26
M  V30 28 1 8 27
M  V30 29 1 14 28 CFG=1
M  V30 30 1 16 29
M  V30 31 1 16 30
M  V30 32 1 16 31
M  V30 33 1 17 32
M  V30 34 1 17 33
M  V30 35 1 17 34
M  V30 36 1 18 35
M  V30 37 1 18 36
M  V30 38 1 18 37
M  V30 39 1 19 38
M  V30 40 1 19 39
M  V30 END BOND
M  V30 END CTAB
M  END
