
     RDKit          3D

  0  0  0  0  0  0  0  0  0  0999 V3000
M  V30 BEGIN CTAB
M  V30 COUNTS 42 45 0 0 0
M  V30 BEGIN ATOM
M  V30 1 Cl 4.50071 3.69907 -1.65989 0
M  V30 2 C 4.91138 2.04737 -1.19457 0
M  V30 3 C 4.19625 1.65592 0.0889306 0
M  V30 4 O 4.55664 0.365929 0.395025 0
M  V30 5 C 3.38372 -0.405983 0.469468 0
M  V30 6 C 2.25967 0.33684 0.209646 0
M  V30 7 C 2.67892 1.71192 -0.0611306 0
M  V30 8 C 1.01995 -0.315366 0.251622 0
M  V30 9 C -0.138021 0.359076 0.00415125 0
M  V30 10 C -0.142715 1.77834 -0.319335 0
M  V30 11 N -0.197424 2.9287 -0.587881 0
M  V30 12 C -1.38229 -0.275228 0.0420504 0
M  V30 13 N -1.37654 -1.58507 0.335053 0
M  V30 14 C -0.276278 -2.28381 0.582999 0
M  V30 15 C 0.96394 -1.68854 0.553665 0
M  V30 16 C 2.11084 -2.38365 0.804766 0
M  V30 17 N 3.26932 -1.72373 0.754198 0
M  V30 18 N 2.0365 -3.76366 1.10661 0
M  V30 19 N -0.322617 -3.68057 0.891206 0
M  V30 20 N -2.57208 0.448969 -0.214696 0
M  V30 21 C -3.06697 1.5618 0.558539 0
M  V30 22 C -4.54743 1.25113 0.864611 0
M  V30 23 O -5.17785 1.25076 -0.377998 0
M  V30 24 C -4.85687 0.0982267 -1.04439 0
M  V30 25 C -3.37993 0.0542 -1.34094 0
M  V30 26 H 4.72445 1.30593 -1.99917 0
M  V30 27 H 5.99552 2.00554 -0.97033 0
M  V30 28 H 4.5708 2.33274 0.886829 0
M  V30 29 H 2.36391 2.43628 0.716241 0
M  V30 30 H 2.53117 2.0336 -1.10283 0
M  V30 31 H 2.08476 -4.46148 0.345412 0
M  V30 32 H 1.94042 -4.08589 2.08411 0
M  V30 33 H -0.273904 -4.40644 0.150076 0
M  V30 34 H -0.415888 -3.99876 1.88793 0
M  V30 35 H -3.13409 2.50514 -0.0206115 0
M  V30 36 H -2.50239 1.67786 1.50171 0
M  V30 37 H -4.61896 0.305274 1.39616 0
M  V30 38 H -4.94398 2.12641 1.42151 0
M  V30 39 H -5.09711 -0.794247 -0.395321 0
M  V30 40 H -5.40737 -0.0487031 -1.98085 0
M  V30 41 H -3.14016 -1.00313 -1.56908 0
M  V30 42 H -3.128 0.627243 -2.26237 0
M  V30 END ATOM
M  V30 BEGIN BOND
M  V30 1 1 1 2
M  V30 2 1 2 3
M  V30 3 1 3 4
M  V30 4 1 4 5
M  V30 5 2 5 6
M  V30 6 1 6 7
M  V30 7 1 6 8
M  V30 8 2 8 9
M  V30 9 1 9 10
M  V30 10 3 10 11
M  V30 11 1 9 12
M  V30 12 2 12 13
M  V30 13 1 13 14
M  V30 14 2 14 15
M  V30 15 1 15 16
M  V30 16 2 16 17
M  V30 17 1 16 18
M  V30 18 1 14 19
M  V30 19 1 12 20
M  V30 20 1 20 21
M  V30 21 1 21 22
M  V30 22 1 22 23
M  V30 23 1 23 24
M  V30 24 1 24 25
M  V30 25 1 7 3
M  V30 26 1 15 8
M  V30 27 1 25 20
M  V30 28 1 17 5
M  V30 29 1 2 26
M  V30 30 1 2 27
M  V30 31 1 3 28
M  V30 32 1 7 29
M  V30 33 1 7 30
M  V30 34 1 18 31
M  V30 35 1 18 32
M  V30 36 1 19 33
M  V30 37 1 19 34
M  V30 38 1 21 35
M  V30 39 1 21 36
M  V30 40 1 22 37
M  V30 41 1 22 38
M  V30 42 1 24 39
M  V30 43 1 24 40
M  V30 44 1 25 41
M  V30 45 1 25 42
M  V30 END BOND
M  V30 END CTAB
M  END
