
     RDKit          3D

  0  0  0  0  0  0  0  0  0  0999 V3000
M  V30 BEGIN CTAB
M  V30 COUNTS 40 42 0 0 0
M  V30 BEGIN ATOM
M  V30 1 N 7.61075 -0.0372098 -0.0193011 0
M  V30 2 C 6.26583 0.395501 0.0846714 0
M  V30 3 C 5.85091 1.5974 -0.44559 0
M  V30 4 C 4.56573 2.06518 -0.387128 0
M  V30 5 C 3.61187 1.26578 0.254344 0
M  V30 6 C 3.98322 0.0529914 0.802947 0
M  V30 7 C 5.3008 -0.370846 0.714079 0
M  V30 8 C 2.24021 1.73586 0.353804 0
M  V30 9 O 1.99907 2.98299 0.480189 0
M  V30 10 C 1.1308 0.811127 0.309178 0
M  V30 11 C 1.17855 -0.428025 -0.284138 0
M  V30 12 C 0.0723676 -1.28138 -0.299169 0
M  V30 13 C -1.10578 -0.883887 0.292142 0
M  V30 14 C -1.13255 0.362616 0.883097 0
M  V30 15 C -0.0634091 1.21694 0.911572 0
M  V30 16 C -2.26406 -1.78762 0.288341 0
M  V30 17 O -2.0446 -3.01486 0.323071 0
M  V30 18 C -3.62906 -1.29459 0.246178 0
M  V30 19 C -3.96615 -0.0493317 -0.282643 0
M  V30 20 C -5.25673 0.415496 -0.299881 0
M  V30 21 C -6.25676 -0.369014 0.220688 0
M  V30 22 N -7.56775 0.134298 0.196035 0
M  V30 23 C -5.94799 -1.61194 0.752681 0
M  V30 24 C -4.62778 -2.06959 0.762178 0
M  V30 25 H 7.93481 -0.812221 0.587048 0
M  V30 26 H 8.27947 0.396497 -0.683943 0
M  V30 27 H 6.61313 2.1974 -0.938515 0
M  V30 28 H 4.26899 3.01321 -0.813769 0
M  V30 29 H 3.24412 -0.565308 1.31642 0
M  V30 30 H 5.56903 -1.32114 1.1495 0
M  V30 31 H 2.10333 -0.748986 -0.769713 0
M  V30 32 H 0.175197 -2.24734 -0.783525 0
M  V30 33 H -2.05032 0.694037 1.36535 0
M  V30 34 H -0.116643 2.17752 1.37855 0
M  V30 35 H -3.20619 0.594628 -0.712785 0
M  V30 36 H -5.48027 1.394 -0.723964 0
M  V30 37 H -7.90499 0.764241 0.966837 0
M  V30 38 H -8.208 -0.111848 -0.584908 0
M  V30 39 H -6.75246 -2.22175 1.16206 0
M  V30 40 H -4.4167 -3.04085 1.18335 0
M  V30 END ATOM
M  V30 BEGIN BOND
M  V30 1 1 1 2
M  V30 2 2 2 3
M  V30 3 1 3 4
M  V30 4 2 4 5
M  V30 5 1 5 6
M  V30 6 2 6 7
M  V30 7 1 5 8
M  V30 8 2 8 9
M  V30 9 1 8 10
M  V30 10 2 10 11
M  V30 11 1 11 12
M  V30 12 2 12 13
M  V30 13 1 13 14
M  V30 14 2 14 15
M  V30 15 1 13 16
M  V30 16 2 16 17
M  V30 17 1 16 18
M  V30 18 2 18 19
M  V30 19 1 19 20
M  V30 20 2 20 21
M  V30 21 1 21 22
M  V30 22 1 21 23
M  V30 23 2 23 24
M  V30 24 1 7 2
M  V30 25 1 15 10
M  V30 26 1 24 18
M  V30 27 1 1 25
M  V30 28 1 1 26
M  V30 29 1 3 27
M  V30 30 1 4 28
M  V30 31 1 6 29
M  V30 32 1 7 30
M  V30 33 1 11 31
M  V30 34 1 12 32
M  V30 35 1 14 33
M  V30 36 1 15 34
M  V30 37 1 19 35
M  V30 38 1 20 36
M  V30 39 1 22 37
M  V30 40 1 22 38
M  V30 41 1 23 39
M  V30 42 1 24 40
M  V30 END BOND
M  V30 END CTAB
M  END
