
     RDKit          3D

  0  0  0  0  0  0  0  0  0  0999 V3000
M  V30 BEGIN CTAB
M  V30 COUNTS 38 37 0 0 0
M  V30 BEGIN ATOM
M  V30 1 O 1.06356 1.50552 -1.41047 0
M  V30 2 C 0.883467 0.9901 -0.280068 0
M  V30 3 C -0.140896 1.53502 0.623979 0
M  V30 4 C -1.32459 0.662779 0.818222 0
M  V30 5 O -2.45213 1.25907 0.992488 0
M  V30 6 N -1.35529 -0.746961 0.831212 0
M  V30 7 N -2.59754 -1.40764 1.03628 0
M  V30 8 C -3.13332 -2.28846 0.0691804 0
M  V30 9 N -4.26518 -2.01205 -0.471666 0
M  V30 10 N -5.02305 -0.877548 -0.166996 0 CHG=1
M  V30 11 O -5.32478 0.0054189 -0.991216 0
M  V30 12 O -5.4663 -0.72143 1.12073 0 CHG=-1
M  V30 13 N -2.4887 -3.47903 -0.344752 0
M  V30 14 N -0.602889 2.82528 0.089756 0
M  V30 15 C -0.356642 4.04581 0.72501 0
M  V30 16 O 0.287084 4.08137 1.79855 0
M  V30 17 C -0.854257 5.30675 0.135528 0
M  V30 18 N 1.67951 -0.107858 0.099642 0
M  V30 19 N 2.64361 -0.622254 -0.776961 0
M  V30 20 C 3.58941 -1.60728 -0.357864 0
M  V30 21 N 4.8328 -1.28671 -0.205001 0
M  V30 22 N 5.82195 -2.18701 0.201619 0 CHG=1
M  V30 23 O 5.6376 -3.06575 1.05438 0
M  V30 24 O 7.05713 -2.08903 -0.379957 0 CHG=-1
M  V30 25 N 3.23014 -2.94892 -0.093155 0
M  V30 26 H 0.331143 1.7263 1.61225 0
M  V30 27 H -0.492206 -1.31694 0.678585 0
M  V30 28 H -3.07262 -1.19729 1.93581 0
M  V30 29 H -1.63488 -3.42466 -0.932129 0
M  V30 30 H -2.84516 -4.41705 -0.0794884 0
M  V30 31 H -1.13502 2.79031 -0.801872 0
M  V30 32 H -0.786673 6.10292 0.894575 0
M  V30 33 H -1.93669 5.18284 -0.17361 0
M  V30 34 H -0.236824 5.52437 -0.762333 0
M  V30 35 H 1.60796 -0.566744 1.02788 0
M  V30 36 H 2.66862 -0.270567 -1.78204 0
M  V30 37 H 3.12647 -3.27853 0.882124 0
M  V30 38 H 3.06519 -3.62416 -0.860647 0
M  V30 END ATOM
M  V30 BEGIN BOND
M  V30 1 2 1 2
M  V30 2 1 2 3
M  V30 3 1 3 4
M  V30 4 2 4 5
M  V30 5 1 4 6
M  V30 6 1 6 7
M  V30 7 1 7 8
M  V30 8 2 8 9
M  V30 9 1 9 10
M  V30 10 2 10 11
M  V30 11 1 10 12
M  V30 12 1 8 13
M  V30 13 1 3 14
M  V30 14 1 14 15
M  V30 15 2 15 16
M  V30 16 1 15 17
M  V30 17 1 2 18
M  V30 18 1 18 19
M  V30 19 1 19 20
M  V30 20 2 20 21
M  V30 21 1 21 22
M  V30 22 2 22 23
M  V30 23 1 22 24
M  V30 24 1 20 25
M  V30 25 1 3 26
M  V30 26 1 6 27
M  V30 27 1 7 28
M  V30 28 1 13 29
M  V30 29 1 13 30
M  V30 30 1 14 31
M  V30 31 1 17 32
M  V30 32 1 17 33
M  V30 33 1 17 34
M  V30 34 1 18 35
M  V30 35 1 19 36
M  V30 36 1 25 37
M  V30 37 1 25 38
M  V30 END BOND
M  V30 END CTAB
M  END
