
     RDKit          3D

  0  0  0  0  0  0  0  0  0  0999 V3000
M  V30 BEGIN CTAB
M  V30 COUNTS 63 66 0 0 0
M  V30 BEGIN ATOM
M  V30 1 C 0.946094 4.00374 2.95189 0
M  V30 2 O 1.00858 3.2906 1.75622 0
M  V30 3 C 1.07512 3.93148 0.531526 0
M  V30 4 O 1.07433 5.20549 0.597485 0
M  V30 5 C 1.14306 3.28659 -0.773911 0
M  V30 6 C 2.3001 2.41196 -1.04234 0
M  V30 7 C 2.48964 1.23282 -0.147913 0
M  V30 8 C 3.93058 0.943188 -0.358991 0
M  V30 9 N 4.48612 2.0171 -0.787369 0
M  V30 10 O 3.55771 3.05042 -0.900026 0
M  V30 11 C 4.55422 -0.354209 -0.108636 0
M  V30 12 C 5.89924 -0.586591 -0.322582 0
M  V30 13 C 6.45549 -1.84172 -0.070255 0
M  V30 14 C 5.68056 -2.86661 0.393734 0
M  V30 15 C 4.33497 -2.65001 0.612263 0
M  V30 16 C 3.81589 -1.42036 0.359669 0
M  V30 17 C 7.87451 -2.05996 -0.306618 0
M  V30 18 N 8.70417 -0.994402 -0.803238 0
M  V30 19 N 8.44104 -3.17313 -0.0938829 0
M  V30 20 C -0.114161 2.52647 -1.09678 0
M  V30 21 O -0.686846 2.82531 -2.1653 0
M  V30 22 N -0.618005 1.54001 -0.254745 0
M  V30 23 C -1.77387 0.741081 -0.404472 0
M  V30 24 C -1.93213 -0.407797 0.388571 0
M  V30 25 C -3.0493 -1.20203 0.280509 0
M  V30 26 C -4.06949 -0.928267 -0.595448 0
M  V30 27 C -3.90624 0.199071 -1.36879 0
M  V30 28 C -2.79255 1.01664 -1.28177 0
M  V30 29 C -5.25586 -1.76005 -0.678105 0
M  V30 30 C -5.45701 -2.58588 -1.79727 0
M  V30 31 C -6.55827 -3.39762 -1.88983 0
M  V30 32 C -7.49397 -3.40319 -0.855654 0
M  V30 33 C -7.29205 -2.59419 0.234305 0
M  V30 34 C -6.16977 -1.75931 0.339983 0
M  V30 35 S -5.98956 -0.747447 1.7203 0
M  V30 36 N -5.85349 0.93687 1.25688 0
M  V30 37 O -7.33417 -0.78501 2.47478 0
M  V30 38 O -4.98258 -1.15238 2.71449 0
M  V30 39 H -0.110581 3.96284 3.31636 0
M  V30 40 H 1.66736 3.60048 3.68224 0
M  V30 41 H 1.17925 5.09178 2.79478 0
M  V30 42 H 1.19172 4.115 -1.54518 0
M  V30 43 H 2.22198 2.04343 -2.08845 0
M  V30 44 H 2.36254 1.43051 0.926544 0
M  V30 45 H 1.84675 0.370259 -0.407006 0
M  V30 46 H 6.49259 0.240791 -0.690773 0
M  V30 47 H 6.04468 -3.86447 0.61063 0
M  V30 48 H 3.70922 -3.44087 0.976732 0
M  V30 49 H 2.74603 -1.28219 0.543321 0
M  V30 50 H 9.23456 -0.416342 -0.128288 0
M  V30 51 H 8.7751 -0.801815 -1.82461 0
M  V30 52 H 8.04191 -4.05018 0.253684 0
M  V30 53 H -0.0475605 1.36914 0.641137 0
M  V30 54 H -1.13293 -0.623168 1.07576 0
M  V30 55 H -3.11862 -2.1007 0.896773 0
M  V30 56 H -4.67657 0.459298 -2.07322 0
M  V30 57 H -2.75362 1.88631 -1.92016 0
M  V30 58 H -4.7252 -2.57087 -2.58764 0
M  V30 59 H -6.69138 -4.02796 -2.76634 0
M  V30 60 H -8.3765 -4.0318 -0.895198 0
M  V30 61 H -8.04091 -2.62235 1.02227 0
M  V30 62 H -6.77951 1.2778 0.989085 0
M  V30 63 H -5.50241 1.4964 2.06611 0
M  V30 END ATOM
M  V30 BEGIN BOND
M  V30 1 1 1 2
M  V30 2 1 2 3
M  V30 3 2 3 4
M  V30 4 1 3 5
M  V30 5 1 5 6
M  V30 6 1 6 7
M  V30 7 1 7 8
M  V30 8 2 8 9
M  V30 9 1 9 10
M  V30 10 1 8 11
M  V30 11 2 11 12
M  V30 12 1 12 13
M  V30 13 2 13 14
M  V30 14 1 14 15
M  V30 15 2 15 16
M  V30 16 1 13 17
M  V30 17 1 17 18
M  V30 18 2 17 19 CFG=2
M  V30 19 1 5 20
M  V30 20 2 20 21
M  V30 21 1 20 22
M  V30 22 1 22 23
M  V30 23 2 23 24
M  V30 24 1 24 25
M  V30 25 2 25 26
M  V30 26 1 26 27
M  V30 27 2 27 28
M  V30 28 1 26 29
M  V30 29 2 29 30
M  V30 30 1 30 31
M  V30 31 2 31 32
M  V30 32 1 32 33
M  V30 33 2 33 34
M  V30 34 1 34 35
M  V30 35 1 35 36
M  V30 36 2 35 37
M  V30 37 2 35 38
M  V30 38 1 10 6
M  V30 39 1 16 11
M  V30 40 1 28 23
M  V30 41 1 34 29
M  V30 42 1 1 39
M  V30 43 1 1 40
M  V30 44 1 1 41
M  V30 45 1 5 42
M  V30 46 1 6 43
M  V30 47 1 7 44
M  V30 48 1 7 45
M  V30 49 1 12 46
M  V30 50 1 14 47
M  V30 51 1 15 48
M  V30 52 1 16 49
M  V30 53 1 18 50
M  V30 54 1 18 51
M  V30 55 1 19 52
M  V30 56 1 22 53
M  V30 57 1 24 54
M  V30 58 1 25 55
M  V30 59 1 27 56
M  V30 60 1 28 57
M  V30 61 1 30 58
M  V30 62 1 31 59
M  V30 63 1 32 60
M  V30 64 1 33 61
M  V30 65 1 36 62
M  V30 66 1 36 63
M  V30 END BOND
M  V30 END CTAB
M  END
