
     RDKit          3D

  0  0  0  0  0  0  0  0  0  0999 V3000
M  V30 BEGIN CTAB
M  V30 COUNTS 41 43 0 0 0
M  V30 BEGIN ATOM
M  V30 1 N -6.02273 1.12279 -0.0245114 0
M  V30 2 C -4.60145 0.853838 -0.141916 0 CFG=2
M  V30 3 C -4.31622 -0.463509 -0.824483 0
M  V30 4 C -3.28404 -0.742624 0.242168 0 CFG=2
M  V30 5 C -3.9742 0.284679 1.10948 0
M  V30 6 C -1.90184 -0.361591 -0.191975 0
M  V30 7 C -0.874741 -1.26874 -0.0644581 0
M  V30 8 C 0.429772 -0.954272 -0.457609 0
M  V30 9 N 0.59377 0.281277 -0.959756 0
M  V30 10 C -0.391141 1.18162 -1.09358 0
M  V30 11 N -1.6291 0.844223 -0.705704 0
M  V30 12 N -0.182666 2.47817 -1.62823 0
M  V30 13 N 1.48511 -1.88671 -0.331444 0
M  V30 14 C 2.81448 -1.52058 -0.726742 0
M  V30 15 C 3.37026 -0.397785 0.0646984 0
M  V30 16 N 2.9131 0.258486 1.13229 0
M  V30 17 O 3.74535 1.1856 1.49604 0
M  V30 18 C 4.78954 1.19762 0.700632 0
M  V30 19 C 4.58865 0.199269 -0.229411 0
M  V30 20 C 5.96293 2.12597 0.80153 0
M  V30 21 C 1.23736 -3.20621 0.192527 0
M  V30 22 H -6.14248 2.06591 0.390565 0
M  V30 23 H -6.39555 1.17869 -1.0056 0
M  V30 24 H -4.04873 1.73394 -0.543901 0
M  V30 25 H -3.92395 -0.388645 -1.85235 0
M  V30 26 H -5.1831 -1.13926 -0.686162 0
M  V30 27 H -3.33541 -1.7829 0.633757 0
M  V30 28 H -4.75846 -0.22129 1.7126 0
M  V30 29 H -3.31294 0.963632 1.67118 0
M  V30 30 H -1.0449 -2.26416 0.348103 0
M  V30 31 H 0.28792 3.25415 -1.11862 0
M  V30 32 H -0.51184 2.71325 -2.60566 0
M  V30 33 H 3.5189 -2.37748 -0.732734 0
M  V30 34 H 2.76212 -1.18342 -1.79867 0
M  V30 35 H 5.25966 -0.0509858 -1.02107 0
M  V30 36 H 6.78361 1.54292 1.23181 0
M  V30 37 H 6.18883 2.45085 -0.251268 0
M  V30 38 H 5.66509 3.00417 1.42323 0
M  V30 39 H 0.662698 -3.76392 -0.597473 0
M  V30 40 H 0.610982 -3.17566 1.121 0
M  V30 41 H 2.16535 -3.7713 0.383269 0
M  V30 END ATOM
M  V30 BEGIN BOND
M  V30 1 1 1 2
M  V30 2 1 2 3
M  V30 3 1 3 4
M  V30 4 1 4 5
M  V30 5 1 4 6
M  V30 6 2 6 7
M  V30 7 1 7 8
M  V30 8 2 8 9
M  V30 9 1 9 10
M  V30 10 2 10 11
M  V30 11 1 10 12
M  V30 12 1 8 13
M  V30 13 1 13 14
M  V30 14 1 14 15
M  V30 15 2 15 16
M  V30 16 1 16 17
M  V30 17 1 17 18
M  V30 18 2 18 19
M  V30 19 1 18 20
M  V30 20 1 13 21
M  V30 21 1 5 2
M  V30 22 1 11 6
M  V30 23 1 19 15
M  V30 24 1 1 22
M  V30 25 1 1 23
M  V30 26 1 2 24 CFG=3
M  V30 27 1 3 25
M  V30 28 1 3 26
M  V30 29 1 4 27 CFG=1
M  V30 30 1 5 28
M  V30 31 1 5 29
M  V30 32 1 7 30
M  V30 33 1 12 31
M  V30 34 1 12 32
M  V30 35 1 14 33
M  V30 36 1 14 34
M  V30 37 1 19 35
M  V30 38 1 20 36
M  V30 39 1 20 37
M  V30 40 1 20 38
M  V30 41 1 21 39
M  V30 42 1 21 40
M  V30 43 1 21 41
M  V30 END BOND
M  V30 END CTAB
M  END
