
     RDKit          3D

  0  0  0  0  0  0  0  0  0  0999 V3000
M  V30 BEGIN CTAB
M  V30 COUNTS 44 46 0 0 0
M  V30 BEGIN ATOM
M  V30 1 C -8.30342 0.13907 -0.288087 0
M  V30 2 C -7.46869 1.41246 -0.199161 0
M  V30 3 O -6.14196 1.03239 0.123176 0
M  V30 4 C -5.37402 0.205353 -0.663121 0
M  V30 5 O -5.89122 -0.229222 -1.7227 0
M  V30 6 C -4.01166 -0.182395 -0.328064 0
M  V30 7 C -3.30297 -1.0139 -1.16318 0
M  V30 8 C -1.99575 -1.39485 -0.855883 0
M  V30 9 C -1.38099 -0.948375 0.291375 0
M  V30 10 C 0.00255383 -1.32042 0.666555 0
M  V30 11 N 0.953266 -0.367612 0.12188 0
M  V30 12 C 2.34866 -0.481061 0.32643 0
M  V30 13 C 3.20168 0.451155 -0.213643 0
M  V30 14 Cl 2.49494 1.75268 -1.14344 0
M  V30 15 C 4.58124 0.423202 -0.0672998 0
M  V30 16 C 5.14342 -0.615816 0.674779 0
M  V30 17 C 4.29609 -1.55806 1.22203 0
M  V30 18 C 2.92398 -1.49931 1.05594 0
M  V30 19 N 6.47194 -0.674031 0.836506 0
M  V30 20 C 7.27693 0.251985 0.29612 0
M  V30 21 N 8.70126 0.160494 0.488836 0
M  V30 22 N 6.73901 1.2493 -0.416019 0
M  V30 23 C 5.40831 1.36892 -0.618725 0
M  V30 24 N 4.87161 2.43812 -1.37849 0
M  V30 25 C -2.1002 -0.119454 1.11496 0
M  V30 26 C -3.3926 0.266736 0.826471 0
M  V30 27 H -9.18509 0.26933 0.383067 0
M  V30 28 H -7.73457 -0.733463 0.098824 0
M  V30 29 H -8.61264 -0.0365836 -1.32639 0
M  V30 30 H -7.47292 1.909 -1.20738 0
M  V30 31 H -7.85172 2.07845 0.584243 0
M  V30 32 H -3.74593 -1.38343 -2.06648 0
M  V30 33 H -1.45766 -2.03997 -1.51205 0
M  V30 34 H 0.225438 -2.3584 0.350253 0
M  V30 35 H 0.0488501 -1.32074 1.78022 0
M  V30 36 H 0.58307 0.426859 -0.439951 0
M  V30 37 H 4.75513 -2.35184 1.7917 0
M  V30 38 H 2.25846 -2.23217 1.48098 0
M  V30 39 H 9.23059 0.773528 1.12058 0
M  V30 40 H 9.18192 -0.576984 -0.0578134 0
M  V30 41 H 4.5865 3.36306 -0.998754 0
M  V30 42 H 4.76038 2.28886 -2.40511 0
M  V30 43 H -1.65337 0.25523 2.02925 0
M  V30 44 H -3.96785 0.921901 1.47265 0
M  V30 END ATOM
M  V30 BEGIN BOND
M  V30 1 1 1 2
M  V30 2 1 2 3
M  V30 3 1 3 4
M  V30 4 2 4 5
M  V30 5 1 4 6
M  V30 6 2 6 7
M  V30 7 1 7 8
M  V30 8 2 8 9
M  V30 9 1 9 10
M  V30 10 1 10 11
M  V30 11 1 11 12
M  V30 12 2 12 13
M  V30 13 1 13 14
M  V30 14 1 13 15
M  V30 15 2 15 16
M  V30 16 1 16 17
M  V30 17 2 17 18
M  V30 18 1 16 19
M  V30 19 2 19 20
M  V30 20 1 20 21
M  V30 21 1 20 22
M  V30 22 2 22 23
M  V30 23 1 23 24
M  V30 24 1 9 25
M  V30 25 2 25 26
M  V30 26 1 26 6
M  V30 27 1 18 12
M  V30 28 1 23 15
M  V30 29 1 1 27
M  V30 30 1 1 28
M  V30 31 1 1 29
M  V30 32 1 2 30
M  V30 33 1 2 31
M  V30 34 1 7 32
M  V30 35 1 8 33
M  V30 36 1 10 34
M  V30 37 1 10 35
M  V30 38 1 11 36
M  V30 39 1 17 37
M  V30 40 1 18 38
M  V30 41 1 21 39
M  V30 42 1 21 40
M  V30 43 1 24 41
M  V30 44 1 24 42
M  V30 45 1 25 43
M  V30 46 1 26 44
M  V30 END BOND
M  V30 END CTAB
M  END
