
     RDKit          3D

  0  0  0  0  0  0  0  0  0  0999 V3000
M  V30 BEGIN CTAB
M  V30 COUNTS 37 37 0 0 0
M  V30 BEGIN ATOM
M  V30 1 N -0.703859 3.7351 -0.11812 0
M  V30 2 C -1.91489 3.35668 -0.763688 0
M  V30 3 C -1.79 2.09443 -1.56201 0
M  V30 4 N -1.38664 0.939663 -0.726005 0
M  V30 5 C -0.0137197 0.598976 -0.648364 0
M  V30 6 S 1.03658 1.52891 -1.54541 0
M  V30 7 N 0.547814 -0.466682 0.071317 0
M  V30 8 C 1.90663 -0.807473 0.180363 0
M  V30 9 C 2.89144 0.116278 0.281347 0
M  V30 10 C 4.23936 -0.231915 0.355615 0
M  V30 11 C 4.59302 -1.55975 0.327304 0
M  V30 12 C 3.6232 -2.51252 0.227369 0
M  V30 13 C 2.30196 -2.15358 0.154682 0
M  V30 14 N 5.97126 -1.90785 0.403543 0
M  V30 15 C -2.43474 0.249146 -0.0794693 0
M  V30 16 O -3.64938 0.654951 -0.254217 0
M  V30 17 O -2.34954 -0.84193 0.747174 0
M  V30 18 C -3.45401 -1.4664 1.34969 0
M  V30 19 C -4.45103 -2.00057 0.359687 0
M  V30 20 H -0.135627 4.39921 -0.705909 0
M  V30 21 H -0.849113 4.15563 0.833531 0
M  V30 22 H -2.23114 4.2232 -1.40479 0
M  V30 23 H -2.71583 3.28433 0.0147325 0
M  V30 24 H -2.80483 1.87527 -1.98214 0
M  V30 25 H -1.05338 2.19084 -2.36927 0
M  V30 26 H -0.0851248 -1.12864 0.6182 0
M  V30 27 H 2.69689 1.17719 0.337375 0
M  V30 28 H 5.02914 0.50183 0.435391 0
M  V30 29 H 3.92194 -3.56304 0.206679 0
M  V30 30 H 1.54928 -2.91631 0.0762445 0
M  V30 31 H 6.55265 -2.02352 -0.4541 0
M  V30 32 H 6.46958 -2.06459 1.31262 0
M  V30 33 H -4.01295 -0.731879 1.99681 0
M  V30 34 H -3.11695 -2.25989 2.03497 0
M  V30 35 H -5.20365 -1.21916 0.132365 0
M  V30 36 H -5.00398 -2.88438 0.752685 0
M  V30 37 H -3.97033 -2.34154 -0.596197 0
M  V30 END ATOM
M  V30 BEGIN BOND
M  V30 1 1 1 2
M  V30 2 1 2 3
M  V30 3 1 3 4
M  V30 4 1 4 5
M  V30 5 2 5 6
M  V30 6 1 5 7
M  V30 7 1 7 8
M  V30 8 2 8 9
M  V30 9 1 9 10
M  V30 10 2 10 11
M  V30 11 1 11 12
M  V30 12 2 12 13
M  V30 13 1 11 14
M  V30 14 1 4 15
M  V30 15 2 15 16
M  V30 16 1 15 17
M  V30 17 1 17 18
M  V30 18 1 18 19
M  V30 19 1 13 8
M  V30 20 1 1 20
M  V30 21 1 1 21
M  V30 22 1 2 22
M  V30 23 1 2 23
M  V30 24 1 3 24
M  V30 25 1 3 25
M  V30 26 1 7 26
M  V30 27 1 9 27
M  V30 28 1 10 28
M  V30 29 1 12 29
M  V30 30 1 13 30
M  V30 31 1 14 31
M  V30 32 1 14 32
M  V30 33 1 18 33
M  V30 34 1 18 34
M  V30 35 1 19 35
M  V30 36 1 19 36
M  V30 37 1 19 37
M  V30 END BOND
M  V30 END CTAB
M  END
