
     RDKit          3D

  0  0  0  0  0  0  0  0  0  0999 V3000
M  V30 BEGIN CTAB
M  V30 COUNTS 57 60 0 0 0
M  V30 BEGIN ATOM
M  V30 1 C -0.663821 -2.81019 0.829126 0
M  V30 2 O -0.834763 -1.79354 -0.194897 0
M  V30 3 C -0.89031 -0.444275 0.102166 0
M  V30 4 C 0.325149 0.252263 0.238154 0
M  V30 5 N 1.58988 -0.338801 0.0582656 0
M  V30 6 C 2.12961 -0.366318 -1.29487 0
M  V30 7 C 3.54703 0.147538 -1.3333 0
M  V30 8 C 4.1023 -0.177434 -2.70646 0
M  V30 9 C 4.42348 -0.486538 -0.301286 0
M  V30 10 N 5.61667 0.369091 -0.190018 0
M  V30 11 C 3.85188 -0.609153 1.06188 0
M  V30 12 C 4.33425 0.501225 1.97233 0
M  V30 13 C 2.37685 -0.858601 1.11963 0
M  V30 14 C 0.338965 1.61592 0.551042 0
M  V30 15 F 1.50886 2.27037 0.663717 0
M  V30 16 C -0.856445 2.24313 0.719011 0
M  V30 17 N -0.870656 3.63505 1.04344 0
M  V30 18 C -2.05974 1.54714 0.578926 0
M  V30 19 C -2.09493 0.193135 0.265176 0
M  V30 20 N -3.25754 -0.437803 0.102209 0
M  V30 21 C -4.41356 0.26124 0.259857 0
M  V30 22 C -4.4218 1.60585 0.579002 0
M  V30 23 C -5.68547 2.32182 0.742917 0
M  V30 24 O -6.89663 1.69766 0.588812 0
M  V30 25 O -5.67197 3.54035 1.03237 0
M  V30 26 C -3.22355 2.25003 0.737694 0
M  V30 27 O -3.19362 3.45291 1.02116 0
M  V30 28 C -3.43185 -1.80116 -0.332402 0
M  V30 29 C -4.67234 -1.92269 -1.29266 0
M  V30 30 C -3.33515 -2.24336 -1.73804 0
M  V30 31 H 0.353856 -3.17741 0.901702 0
M  V30 32 H -1.2384 -3.70566 0.422767 0
M  V30 33 H -1.16313 -2.50177 1.74313 0
M  V30 34 H 2.14013 -1.39866 -1.69364 0
M  V30 35 H 1.52193 0.24952 -1.98551 0
M  V30 36 H 3.60995 1.24289 -1.21655 0
M  V30 37 H 3.59884 -1.09413 -3.10892 0
M  V30 38 H 5.20458 -0.271292 -2.7094 0
M  V30 39 H 3.8549 0.629694 -3.44603 0
M  V30 40 H 4.78442 -1.48729 -0.641024 0
M  V30 41 H 6.3977 -0.161229 0.272971 0
M  V30 42 H 5.88862 0.772174 -1.0947 0
M  V30 43 H 4.3478 -1.53646 1.51378 0
M  V30 44 H 5.43436 0.353981 2.09181 0
M  V30 45 H 3.89472 0.394921 2.97916 0
M  V30 46 H 4.20732 1.50237 1.52867 0
M  V30 47 H 2.29891 -1.98627 1.04447 0
M  V30 48 H 2.00172 -0.552161 2.11433 0
M  V30 49 H -0.996422 4.36193 0.306118 0
M  V30 50 H -0.750718 3.89129 2.04218 0
M  V30 51 H -5.39885 -0.197014 0.149118 0
M  V30 52 H -7.74753 2.19606 0.411596 0
M  V30 53 H -3.64815 -2.48089 0.531627 0
M  V30 54 H -5.11826 -0.994695 -1.6739 0
M  V30 55 H -5.3681 -2.72562 -1.11502 0
M  V30 56 H -3.06516 -3.3326 -1.85792 0
M  V30 57 H -2.71583 -1.60653 -2.39376 0
M  V30 END ATOM
M  V30 BEGIN BOND
M  V30 1 1 1 2
M  V30 2 1 2 3
M  V30 3 2 3 4
M  V30 4 1 4 5
M  V30 5 1 5 6
M  V30 6 1 6 7
M  V30 7 1 7 8
M  V30 8 1 7 9
M  V30 9 1 9 10
M  V30 10 1 9 11
M  V30 11 1 11 12
M  V30 12 1 11 13
M  V30 13 1 4 14
M  V30 14 1 14 15
M  V30 15 2 14 16
M  V30 16 1 16 17
M  V30 17 1 16 18
M  V30 18 2 18 19
M  V30 19 1 19 20
M  V30 20 1 20 21
M  V30 21 2 21 22
M  V30 22 1 22 23
M  V30 23 1 23 24
M  V30 24 2 23 25
M  V30 25 1 22 26
M  V30 26 2 26 27
M  V30 27 1 20 28
M  V30 28 1 28 29
M  V30 29 1 29 30
M  V30 30 1 19 3
M  V30 31 1 30 28
M  V30 32 1 13 5
M  V30 33 1 26 18
M  V30 34 1 1 31
M  V30 35 1 1 32
M  V30 36 1 1 33
M  V30 37 1 6 34
M  V30 38 1 6 35
M  V30 39 1 7 36
M  V30 40 1 8 37
M  V30 41 1 8 38
M  V30 42 1 8 39
M  V30 43 1 9 40
M  V30 44 1 10 41
M  V30 45 1 10 42
M  V30 46 1 11 43
M  V30 47 1 12 44
M  V30 48 1 12 45
M  V30 49 1 12 46
M  V30 50 1 13 47
M  V30 51 1 13 48
M  V30 52 1 17 49
M  V30 53 1 17 50
M  V30 54 1 21 51
M  V30 55 1 24 52
M  V30 56 1 28 53
M  V30 57 1 29 54
M  V30 58 1 29 55
M  V30 59 1 30 56
M  V30 60 1 30 57
M  V30 END BOND
M  V30 END CTAB
M  END
