
     RDKit          3D

  0  0  0  0  0  0  0  0  0  0999 V3000
M  V30 BEGIN CTAB
M  V30 COUNTS 36 37 0 0 0
M  V30 BEGIN ATOM
M  V30 1 N 5.28349 -0.76188 1.07754 0
M  V30 2 C 4.21064 0.0257011 0.591373 0
M  V30 3 N 4.43087 1.28721 0.228965 0
M  V30 4 C 3.43671 2.06338 -0.236643 0
M  V30 5 C 2.15119 1.54013 -0.342801 0
M  V30 6 C 1.90501 0.237853 0.0272774 0
M  V30 7 C 2.93759 -0.52386 0.496437 0
M  V30 8 C 0.552688 -0.343945 -0.0742304 0 CFG=2
M  V30 9 C 0.154102 -0.303618 -1.54118 0
M  V30 10 C -1.35504 -0.307972 -1.68563 0
M  V30 11 C -1.97635 -1.40241 -0.850878 0
M  V30 12 N -2.4376 -0.896208 0.368086 0
M  V30 13 C -1.54126 -0.387939 1.32297 0
M  V30 14 C -0.404175 0.4441 0.777398 0
M  V30 15 S -3.99867 -0.283688 0.47158 0
M  V30 16 O -4.97397 -1.34982 0.0194397 0
M  V30 17 O -4.36265 0.145047 1.86795 0
M  V30 18 N -4.17247 1.06106 -0.592711 0
M  V30 19 H 5.76997 -1.38943 0.408484 0
M  V30 20 H 5.54266 -0.683452 2.07883 0
M  V30 21 H 3.63131 3.07685 -0.524002 0
M  V30 22 H 1.38628 2.18764 -0.717392 0
M  V30 23 H 2.79918 -1.54289 0.797656 0
M  V30 24 H 0.567895 -1.3818 0.266249 0
M  V30 25 H 0.521495 0.643604 -1.97251 0
M  V30 26 H 0.585459 -1.16278 -2.0607 0
M  V30 27 H -1.54998 -0.519868 -2.77867 0
M  V30 28 H -1.77162 0.686128 -1.43631 0
M  V30 29 H -1.28136 -2.27063 -0.776536 0
M  V30 30 H -2.86378 -1.76431 -1.44084 0
M  V30 31 H -1.16174 -1.13905 2.05556 0
M  V30 32 H -2.12898 0.329447 1.97465 0
M  V30 33 H 0.16791 0.825865 1.65603 0
M  V30 34 H -0.828291 1.30224 0.248937 0
M  V30 35 H -4.43447 0.762597 -1.56961 0
M  V30 36 H -4.79205 1.79668 -0.220763 0
M  V30 END ATOM
M  V30 BEGIN BOND
M  V30 1 1 1 2
M  V30 2 2 2 3
M  V30 3 1 3 4
M  V30 4 2 4 5
M  V30 5 1 5 6
M  V30 6 2 6 7
M  V30 7 1 6 8
M  V30 8 1 8 9
M  V30 9 1 9 10
M  V30 10 1 10 11
M  V30 11 1 11 12
M  V30 12 1 12 13
M  V30 13 1 13 14
M  V30 14 1 12 15
M  V30 15 2 15 16
M  V30 16 2 15 17
M  V30 17 1 15 18
M  V30 18 1 7 2
M  V30 19 1 14 8
M  V30 20 1 1 19
M  V30 21 1 1 20
M  V30 22 1 4 21
M  V30 23 1 5 22
M  V30 24 1 7 23
M  V30 25 1 8 24 CFG=1
M  V30 26 1 9 25
M  V30 27 1 9 26
M  V30 28 1 10 27
M  V30 29 1 10 28
M  V30 30 1 11 29
M  V30 31 1 11 30
M  V30 32 1 13 31
M  V30 33 1 13 32
M  V30 34 1 14 33
M  V30 35 1 14 34
M  V30 36 1 18 35
M  V30 37 1 18 36
M  V30 END BOND
M  V30 END CTAB
M  END
