
     RDKit          3D

  0  0  0  0  0  0  0  0  0  0999 V3000
M  V30 BEGIN CTAB
M  V30 COUNTS 41 42 0 0 0
M  V30 BEGIN ATOM
M  V30 1 C -5.91021 2.11114 0.415441 0
M  V30 2 C -6.53351 0.757977 0.259504 0
M  V30 3 C -5.69703 -0.320444 0.932072 0
M  V30 4 O -4.42194 -0.291903 0.292898 0
M  V30 5 C -3.4724 -1.1832 0.724822 0
M  V30 6 O -3.74053 -1.97876 1.6442 0
M  V30 7 C -2.16266 -1.19893 0.113062 0
M  V30 8 C -1.86775 -0.315727 -0.909206 0
M  V30 9 C -0.613012 -0.355439 -1.47068 0
M  V30 10 N -0.312822 0.543534 -2.51169 0
M  V30 11 C 0.368811 -1.23208 -1.06677 0
M  V30 12 C 0.0631137 -2.09894 -0.0569958 0
M  V30 13 C -1.19977 -2.09987 0.549885 0
M  V30 14 Cl 1.17807 -3.29932 0.553135 0
M  V30 15 S 1.94034 -1.23486 -1.86026 0
M  V30 16 C 3.11807 -0.076748 -1.20722 0
M  V30 17 N 3.23809 1.22958 -1.61679 0
M  V30 18 N 4.21777 1.80496 -0.945604 0
M  V30 19 C 4.76598 0.925235 -0.0918665 0
M  V30 20 N 4.06386 -0.227645 -0.278787 0
M  V30 21 N 4.35949 -1.38731 0.435139 0
M  V30 22 C 5.89438 1.13964 0.860802 0
M  V30 23 C 7.20861 0.818917 0.193174 0
M  V30 24 H -6.16708 2.51357 1.42077 0
M  V30 25 H -4.83878 2.11688 0.203803 0
M  V30 26 H -6.41715 2.7886 -0.315158 0
M  V30 27 H -7.53607 0.739024 0.750628 0
M  V30 28 H -6.66829 0.556793 -0.808309 0
M  V30 29 H -6.12257 -1.30985 0.745478 0
M  V30 30 H -5.56097 -0.141869 1.99748 0
M  V30 31 H -2.65016 0.361431 -1.20952 0
M  V30 32 H -0.58889 0.450075 -3.50274 0
M  V30 33 H 0.246731 1.39745 -2.2679 0
M  V30 34 H -1.43757 -2.78589 1.34805 0
M  V30 35 H 4.51684 -1.33689 1.46471 0
M  V30 36 H 4.43466 -2.32467 -0.0093672 0
M  V30 37 H 5.75457 0.558374 1.79502 0
M  V30 38 H 5.91897 2.22387 1.12884 0
M  V30 39 H 7.83228 0.183458 0.849447 0
M  V30 40 H 7.05742 0.235725 -0.762824 0
M  V30 41 H 7.74113 1.74409 -0.134858 0
M  V30 END ATOM
M  V30 BEGIN BOND
M  V30 1 1 1 2
M  V30 2 1 2 3
M  V30 3 1 3 4
M  V30 4 1 4 5
M  V30 5 2 5 6
M  V30 6 1 5 7
M  V30 7 2 7 8
M  V30 8 1 8 9
M  V30 9 1 9 10
M  V30 10 2 9 11
M  V30 11 1 11 12
M  V30 12 2 12 13
M  V30 13 1 12 14
M  V30 14 1 11 15
M  V30 15 1 15 16
M  V30 16 2 16 17
M  V30 17 1 17 18
M  V30 18 2 18 19
M  V30 19 1 19 20
M  V30 20 1 20 21
M  V30 21 1 19 22
M  V30 22 1 22 23
M  V30 23 1 13 7
M  V30 24 1 20 16
M  V30 25 1 1 24
M  V30 26 1 1 25
M  V30 27 1 1 26
M  V30 28 1 2 27
M  V30 29 1 2 28
M  V30 30 1 3 29
M  V30 31 1 3 30
M  V30 32 1 8 31
M  V30 33 1 10 32
M  V30 34 1 10 33
M  V30 35 1 13 34
M  V30 36 1 21 35
M  V30 37 1 21 36
M  V30 38 1 22 37
M  V30 39 1 22 38
M  V30 40 1 23 39
M  V30 41 1 23 40
M  V30 42 1 23 41
M  V30 END BOND
M  V30 END CTAB
M  END
