
     RDKit          3D

  0  0  0  0  0  0  0  0  0  0999 V3000
M  V30 BEGIN CTAB
M  V30 COUNTS 21 21 0 0 0
M  V30 BEGIN ATOM
M  V30 1 N 3.60158 0.149094 0.0903168 0
M  V30 2 C 2.18034 0.0931582 0.0544063 0
M  V30 3 C 1.50333 -0.769661 -0.768297 0
M  V30 4 C 0.129864 -0.797003 -0.777248 0
M  V30 5 N -0.551654 -1.69739 -1.6361 0
M  V30 6 C -0.599515 0.061553 0.0591557 0
M  V30 7 C 0.0690932 0.938535 0.895592 0
M  V30 8 C 1.45487 0.929878 0.869715 0
M  V30 9 Cl -0.80945 2.02009 1.94824 0
M  V30 10 C -2.04787 -0.0359785 -0.0167185 0
M  V30 11 O -2.55557 -0.880509 -0.82499 0
M  V30 12 C -3.01769 0.756978 0.760407 0
M  V30 13 H 4.09612 0.13407 1.00795 0
M  V30 14 H 4.1909 0.205152 -0.757612 0
M  V30 15 H 2.03791 -1.44953 -1.43008 0
M  V30 16 H -0.791251 -2.63671 -1.26081 0
M  V30 17 H -0.827005 -1.4805 -2.61458 0
M  V30 18 H 1.94324 1.63259 1.54054 0
M  V30 19 H -2.96596 0.55952 1.86064 0
M  V30 20 H -2.98546 1.85172 0.520698 0
M  V30 21 H -4.05582 0.414966 0.47878 0
M  V30 END ATOM
M  V30 BEGIN BOND
M  V30 1 1 1 2
M  V30 2 2 2 3
M  V30 3 1 3 4
M  V30 4 1 4 5
M  V30 5 2 4 6
M  V30 6 1 6 7
M  V30 7 2 7 8
M  V30 8 1 7 9
M  V30 9 1 6 10
M  V30 10 2 10 11
M  V30 11 1 10 12
M  V30 12 1 8 2
M  V30 13 1 1 13
M  V30 14 1 1 14
M  V30 15 1 3 15
M  V30 16 1 5 16
M  V30 17 1 5 17
M  V30 18 1 8 18
M  V30 19 1 12 19
M  V30 20 1 12 20
M  V30 21 1 12 21
M  V30 END BOND
M  V30 END CTAB
M  END
