
     RDKit          3D

  0  0  0  0  0  0  0  0  0  0999 V3000
M  V30 BEGIN CTAB
M  V30 COUNTS 31 30 0 0 0
M  V30 BEGIN ATOM
M  V30 1 C -2.53999 1.09006 0.0202986 0
M  V30 2 C -1.02635 1.10942 0.0383993 0
M  V30 3 C -0.394213 -0.229055 -0.0665939 0
M  V30 4 C 1.11645 -0.0877862 -0.0465877 0
M  V30 5 C 1.57596 0.559737 1.23286 0
M  V30 6 N 3.03316 0.600493 1.25888 0
M  V30 7 O 1.69413 -1.3859 -0.0311819 0
M  V30 8 C 1.65099 0.60564 -1.249 0
M  V30 9 C -0.851965 -1.04757 -1.25122 0
M  V30 10 N -2.24191 -1.29936 -1.23016 0
M  V30 11 C -0.715457 -1.09634 1.16341 0
M  V30 12 H -2.90622 1.18395 -1.00451 0
M  V30 13 H -2.8387 2.0619 0.521831 0
M  V30 14 H -2.98733 0.314519 0.639734 0
M  V30 15 H -0.697154 1.55851 1.01891 0
M  V30 16 H -0.713705 1.82584 -0.741995 0
M  V30 17 H 1.20581 0.0617126 2.12818 0
M  V30 18 H 1.2777 1.64774 1.16664 0
M  V30 19 H 3.37537 1.39016 1.85293 0
M  V30 20 H 3.40859 -0.32607 1.58459 0
M  V30 21 H 2.64439 -1.24108 -0.310402 0
M  V30 22 H 0.876535 1.10661 -1.86128 0
M  V30 23 H 2.20876 -0.0720811 -1.93584 0
M  V30 24 H 2.381 1.40588 -0.940947 0
M  V30 25 H -0.298901 -2.00862 -1.2283 0
M  V30 26 H -0.578193 -0.560748 -2.2205 0
M  V30 27 H -2.77446 -0.971056 -2.0527 0
M  V30 28 H -2.53423 -2.2265 -0.873348 0
M  V30 29 H -0.931218 -0.455802 2.04204 0
M  V30 30 H -1.56531 -1.77467 0.94368 0
M  V30 31 H 0.146439 -1.73953 1.43219 0
M  V30 END ATOM
M  V30 BEGIN BOND
M  V30 1 1 1 2
M  V30 2 1 2 3
M  V30 3 1 3 4
M  V30 4 1 4 5
M  V30 5 1 5 6
M  V30 6 1 4 7
M  V30 7 1 4 8
M  V30 8 1 3 9
M  V30 9 1 9 10
M  V30 10 1 3 11
M  V30 11 1 1 12
M  V30 12 1 1 13
M  V30 13 1 1 14
M  V30 14 1 2 15
M  V30 15 1 2 16
M  V30 16 1 5 17
M  V30 17 1 5 18
M  V30 18 1 6 19
M  V30 19 1 6 20
M  V30 20 1 7 21
M  V30 21 1 8 22
M  V30 22 1 8 23
M  V30 23 1 8 24
M  V30 24 1 9 25
M  V30 25 1 9 26
M  V30 26 1 10 27
M  V30 27 1 10 28
M  V30 28 1 11 29
M  V30 29 1 11 30
M  V30 30 1 11 31
M  V30 END BOND
M  V30 END CTAB
M  END
