
     RDKit          3D

  0  0  0  0  0  0  0  0  0  0999 V3000
M  V30 BEGIN CTAB
M  V30 COUNTS 28 28 0 0 0
M  V30 BEGIN ATOM
M  V30 1 N -1.87376 0.57904 1.44104 0
M  V30 2 C -1.52945 0.294691 0.0710244 0
M  V30 3 C -0.662019 1.32992 -0.56973 0
M  V30 4 C 0.512058 1.76173 0.223947 0
M  V30 5 C 1.77741 1.20363 -0.35417 0
M  V30 6 C 1.8748 -0.289867 -0.319533 0
M  V30 7 C 1.20189 -0.933337 0.837933 0
M  V30 8 C -0.0266238 -1.69374 0.552665 0
M  V30 9 C -1.12725 -1.11518 -0.183496 0
M  V30 10 N -1.00269 -1.26139 -1.64603 0
M  V30 11 H -1.11581 0.545144 2.11586 0
M  V30 12 H -2.39257 1.48363 1.4746 0
M  V30 13 H -2.52712 0.39899 -0.471693 0
M  V30 14 H -0.305965 0.89487 -1.54032 0
M  V30 15 H -1.29291 2.21977 -0.865397 0
M  V30 16 H 0.417601 1.62663 1.31857 0
M  V30 17 H 0.615635 2.88475 0.107145 0
M  V30 18 H 2.6371 1.70426 0.171675 0
M  V30 19 H 1.83002 1.53655 -1.41231 0
M  V30 20 H 2.9872 -0.507945 -0.356731 0
M  V30 21 H 1.50207 -0.73944 -1.2741 0
M  V30 22 H 1.1108 -0.242701 1.72886 0
M  V30 23 H 1.94521 -1.69975 1.23414 0
M  V30 24 H 0.290055 -2.64109 0.0158486 0
M  V30 25 H -0.401331 -2.09068 1.54353 0
M  V30 26 H -2.04897 -1.74218 0.0397743 0
M  V30 27 H -1.91803 -1.35193 -2.09283 0
M  V30 28 H -0.477353 -2.15437 -1.79026 0
M  V30 END ATOM
M  V30 BEGIN BOND
M  V30 1 1 1 2
M  V30 2 1 2 3
M  V30 3 1 3 4
M  V30 4 1 4 5
M  V30 5 1 5 6
M  V30 6 1 6 7
M  V30 7 1 7 8
M  V30 8 1 8 9
M  V30 9 1 9 10
M  V30 10 1 9 2
M  V30 11 1 1 11
M  V30 12 1 1 12
M  V30 13 1 2 13
M  V30 14 1 3 14
M  V30 15 1 3 15
M  V30 16 1 4 16
M  V30 17 1 4 17
M  V30 18 1 5 18
M  V30 19 1 5 19
M  V30 20 1 6 20
M  V30 21 1 6 21
M  V30 22 1 7 22
M  V30 23 1 7 23
M  V30 24 1 8 24
M  V30 25 1 8 25
M  V30 26 1 9 26
M  V30 27 1 10 27
M  V30 28 1 10 28
M  V30 END BOND
M  V30 END CTAB
M  END
