
     RDKit          3D

  0  0  0  0  0  0  0  0  0  0999 V3000
M  V30 BEGIN CTAB
M  V30 COUNTS 30 30 0 0 0
M  V30 BEGIN ATOM
M  V30 1 N 3.41277 -0.197103 -0.756556 0
M  V30 2 C 3.04618 0.989321 -0.124181 0
M  V30 3 C 1.57588 1.14647 -0.060126 0
M  V30 4 C 0.780145 0.148767 0.672342 0 CFG=2
M  V30 5 C 0.821191 -1.26386 0.223854 0
M  V30 6 C 0.17997 -1.3405 -1.15596 0
M  V30 7 C -1.29656 -1.05394 -0.954064 0
M  V30 8 N -1.52308 -0.46306 0.323011 0
M  V30 9 C -0.676032 0.645281 0.653258 0
M  V30 10 S -3.17475 -0.187353 0.631507 0
M  V30 11 O -3.29269 0.417261 2.01698 0
M  V30 12 O -3.894 -1.52735 0.656216 0
M  V30 13 N -3.91869 0.887945 -0.464234 0
M  V30 14 H 3.3929 -0.178401 -1.75314 0
M  V30 15 H 3.94805 -0.880684 -0.275968 0
M  V30 16 H 3.55059 1.13387 0.864571 0
M  V30 17 H 3.47127 1.83663 -0.74588 0
M  V30 18 H 1.17071 1.26861 -1.10177 0
M  V30 19 H 1.35243 2.15306 0.420133 0
M  V30 20 H 1.07696 0.164275 1.76679 0
M  V30 21 H 0.124063 -1.8957 0.87349 0
M  V30 22 H 1.76262 -1.78387 0.220794 0
M  V30 23 H 0.593795 -0.552566 -1.80514 0
M  V30 24 H 0.325687 -2.34324 -1.60309 0
M  V30 25 H -1.81611 -2.0425 -0.966233 0
M  V30 26 H -1.65671 -0.409894 -1.77766 0
M  V30 27 H -0.930495 1.00336 1.65485 0
M  V30 28 H -0.806753 1.50644 -0.0349404 0
M  V30 29 H -4.23479 1.75638 -0.0211035 0
M  V30 30 H -3.36458 1.06236 -1.3117 0
M  V30 END ATOM
M  V30 BEGIN BOND
M  V30 1 1 1 2
M  V30 2 1 2 3
M  V30 3 1 3 4
M  V30 4 1 4 5
M  V30 5 1 5 6
M  V30 6 1 6 7
M  V30 7 1 7 8
M  V30 8 1 8 9
M  V30 9 1 8 10
M  V30 10 2 10 11
M  V30 11 2 10 12
M  V30 12 1 10 13
M  V30 13 1 9 4
M  V30 14 1 1 14
M  V30 15 1 1 15
M  V30 16 1 2 16
M  V30 17 1 2 17
M  V30 18 1 3 18
M  V30 19 1 3 19
M  V30 20 1 4 20 CFG=1
M  V30 21 1 5 21
M  V30 22 1 5 22
M  V30 23 1 6 23
M  V30 24 1 6 24
M  V30 25 1 7 25
M  V30 26 1 7 26
M  V30 27 1 9 27
M  V30 28 1 9 28
M  V30 29 1 13 29
M  V30 30 1 13 30
M  V30 END BOND
M  V30 END CTAB
M  END
