
     RDKit          3D

  0  0  0  0  0  0  0  0  0  0999 V3000
M  V30 BEGIN CTAB
M  V30 COUNTS 39 41 0 0 0
M  V30 BEGIN ATOM
M  V30 1 N -6.19 1.68448 0.096848 0
M  V30 2 C -4.9033 1.07178 0.177151 0
M  V30 3 N -4.68833 0.0328238 1.00107 0
M  V30 4 C -3.48428 -0.586703 1.11618 0
M  V30 5 C -3.32006 -1.6582 1.986 0
M  V30 6 C -2.10168 -2.27622 2.09478 0
M  V30 7 C -1.04769 -1.82904 1.33926 0
M  V30 8 C -1.21609 -0.764496 0.476911 0
M  V30 9 O -0.178425 -0.283953 -0.301778 0
M  V30 10 C 1.09608 -0.928161 -0.189967 0
M  V30 11 C 2.10931 -0.277008 -1.10776 0
M  V30 12 C 3.4147 -1.021 -0.920388 0
M  V30 13 C 4.59909 -0.164738 -1.31227 0
M  V30 14 N 4.73171 1.00355 -0.480239 0
M  V30 15 C 3.51378 1.2843 0.256183 0
M  V30 16 C 2.32693 1.15507 -0.670342 0
M  V30 17 C -2.45425 -0.128105 0.359146 0
M  V30 18 C -2.64189 0.933877 -0.494259 0
M  V30 19 N -1.54314 1.37584 -1.26092 0
M  V30 20 N -3.86098 1.49722 -0.555486 0
M  V30 21 H -6.51959 2.23609 0.918292 0
M  V30 22 H -6.81604 1.61552 -0.725342 0
M  V30 23 H -4.18923 -1.9657 2.55603 0
M  V30 24 H -1.97995 -3.10272 2.76745 0
M  V30 25 H -0.0890149 -2.32034 1.4292 0
M  V30 26 H 1.03033 -2.00917 -0.360617 0
M  V30 27 H 1.50091 -0.799032 0.849527 0
M  V30 28 H 1.82173 -0.354652 -2.16604 0
M  V30 29 H 3.43642 -1.94975 -1.48744 0
M  V30 30 H 3.51619 -1.2265 0.162128 0
M  V30 31 H 4.48964 0.197495 -2.3729 0
M  V30 32 H 5.49649 -0.803628 -1.29726 0
M  V30 33 H 5.52586 0.933968 0.190083 0
M  V30 34 H 3.55914 2.3482 0.575026 0
M  V30 35 H 3.4206 0.673606 1.16159 0
M  V30 36 H 1.43061 1.50479 -0.112015 0
M  V30 37 H 2.48207 1.82518 -1.52849 0
M  V30 38 H -0.952742 2.15422 -0.928375 0
M  V30 39 H -1.32491 0.921102 -2.15993 0
M  V30 END ATOM
M  V30 BEGIN BOND
M  V30 1 1 1 2
M  V30 2 2 2 3
M  V30 3 1 3 4
M  V30 4 2 4 5
M  V30 5 1 5 6
M  V30 6 2 6 7
M  V30 7 1 7 8
M  V30 8 1 8 9
M  V30 9 1 9 10
M  V30 10 1 10 11
M  V30 11 1 11 12
M  V30 12 1 12 13
M  V30 13 1 13 14
M  V30 14 1 14 15
M  V30 15 1 15 16
M  V30 16 2 8 17
M  V30 17 1 17 18
M  V30 18 1 18 19
M  V30 19 2 18 20
M  V30 20 1 20 2
M  V30 21 1 17 4
M  V30 22 1 16 11
M  V30 23 1 1 21
M  V30 24 1 1 22
M  V30 25 1 5 23
M  V30 26 1 6 24
M  V30 27 1 7 25
M  V30 28 1 10 26
M  V30 29 1 10 27
M  V30 30 1 11 28
M  V30 31 1 12 29
M  V30 32 1 12 30
M  V30 33 1 13 31
M  V30 34 1 13 32
M  V30 35 1 14 33
M  V30 36 1 15 34
M  V30 37 1 15 35
M  V30 38 1 16 36
M  V30 39 1 16 37
M  V30 40 1 19 38
M  V30 41 1 19 39
M  V30 END BOND
M  V30 END CTAB
M  END
