
     RDKit          3D

  0  0  0  0  0  0  0  0  0  0999 V3000
M  V30 BEGIN CTAB
M  V30 COUNTS 21 22 0 0 0
M  V30 BEGIN ATOM
M  V30 1 N -2.63795 -1.45056 0.301485 0
M  V30 2 C -1.45563 -0.679392 0.139471 0
M  V30 3 C -0.218521 -1.30291 0.318874 0
M  V30 4 C 0.925256 -0.543699 0.158925 0
M  V30 5 C 0.810339 0.801785 -0.171815 0
M  V30 6 N 1.90162 1.57017 -0.33516 0
M  V30 7 C 3.11579 0.99839 -0.168885 0
M  V30 8 C 3.27802 -0.332055 0.159232 0
M  V30 9 C 2.16744 -1.13206 0.329864 0
M  V30 10 C -0.416156 1.40376 -0.345729 0
M  V30 11 Cl -0.580162 3.10385 -0.764049 0
M  V30 12 C -1.57674 0.645775 -0.186449 0
M  V30 13 N -2.87313 1.20208 -0.350755 0
M  V30 14 H -2.77657 -2.28722 -0.29465 0
M  V30 15 H -3.38888 -1.23054 0.9895 0
M  V30 16 H -0.154963 -2.35204 0.576195 0
M  V30 17 H 4.0074 1.62496 -0.302058 0
M  V30 18 H 4.28914 -0.695052 0.270106 0
M  V30 19 H 2.30002 -2.17015 0.586017 0
M  V30 20 H -3.19312 1.38841 -1.32653 0
M  V30 21 H -3.52319 1.4365 0.416416 0
M  V30 END ATOM
M  V30 BEGIN BOND
M  V30 1 1 1 2
M  V30 2 2 2 3
M  V30 3 1 3 4
M  V30 4 2 4 5
M  V30 5 1 5 6
M  V30 6 2 6 7
M  V30 7 1 7 8
M  V30 8 2 8 9
M  V30 9 1 5 10
M  V30 10 1 10 11
M  V30 11 2 10 12
M  V30 12 1 12 13
M  V30 13 1 12 2
M  V30 14 1 9 4
M  V30 15 1 1 14
M  V30 16 1 1 15
M  V30 17 1 3 16
M  V30 18 1 7 17
M  V30 19 1 8 18
M  V30 20 1 9 19
M  V30 21 1 13 20
M  V30 22 1 13 21
M  V30 END BOND
M  V30 END CTAB
M  END
