
     RDKit          3D

  0  0  0  0  0  0  0  0  0  0999 V3000
M  V30 BEGIN CTAB
M  V30 COUNTS 25 26 0 0 0
M  V30 BEGIN ATOM
M  V30 1 C -4.59938 0.718329 -0.218409 0
M  V30 2 O -3.25915 0.616118 -0.600582 0
M  V30 3 C -2.67729 -0.327641 0.243463 0
M  V30 4 C -1.22701 -0.516546 -0.082281 0
M  V30 5 N -0.277174 0.226485 0.50608 0
M  V30 6 C 1.03981 0.0298676 0.1871 0
M  V30 7 C 1.43888 -0.913781 -0.727262 0
M  V30 8 N 0.462266 -1.66594 -1.32128 0
M  V30 9 C -0.824153 -1.46347 -1.00007 0
M  V30 10 N 2.72702 -1.08943 -1.02381 0
M  V30 11 C 3.65741 -0.333023 -0.421012 0
M  V30 12 N 5.05884 -0.495388 -0.717078 0
M  V30 13 N 3.29321 0.59485 0.475126 0
M  V30 14 C 2.02277 0.796541 0.793912 0
M  V30 15 N 1.57114 1.75496 1.7274 0
M  V30 16 H -5.06304 1.46861 -0.88903 0
M  V30 17 H -5.06656 -0.279298 -0.280179 0
M  V30 18 H -4.61629 1.04107 0.844958 0
M  V30 19 H -3.23779 -1.28556 0.192924 0
M  V30 20 H -2.71984 0.0622012 1.2977 0
M  V30 21 H -1.63633 -2.04444 -1.45285 0
M  V30 22 H 5.50138 -1.44073 -0.648933 0
M  V30 23 H 5.60607 0.34465 -0.996011 0
M  V30 24 H 1.14219 1.44663 2.61359 0
M  V30 25 H 1.68303 2.75493 1.49653 0
M  V30 END ATOM
M  V30 BEGIN BOND
M  V30 1 1 1 2
M  V30 2 1 2 3
M  V30 3 1 3 4
M  V30 4 2 4 5
M  V30 5 1 5 6
M  V30 6 2 6 7
M  V30 7 1 7 8
M  V30 8 2 8 9
M  V30 9 1 7 10
M  V30 10 2 10 11
M  V30 11 1 11 12
M  V30 12 1 11 13
M  V30 13 2 13 14
M  V30 14 1 14 15
M  V30 15 1 9 4
M  V30 16 1 14 6
M  V30 17 1 1 16
M  V30 18 1 1 17
M  V30 19 1 1 18
M  V30 20 1 3 19
M  V30 21 1 3 20
M  V30 22 1 9 21
M  V30 23 1 12 22
M  V30 24 1 12 23
M  V30 25 1 15 24
M  V30 26 1 15 25
M  V30 END BOND
M  V30 END CTAB
M  END
