
     RDKit          3D

  0  0  0  0  0  0  0  0  0  0999 V3000
M  V30 BEGIN CTAB
M  V30 COUNTS 25 26 0 0 0
M  V30 BEGIN ATOM
M  V30 1 N 4.45054 0.126171 1.12403 0
M  V30 2 N 3.71619 -0.186733 -0.0199181 0
M  V30 3 C 2.5445 0.510124 -0.394987 0
M  V30 4 O 2.15388 1.44778 0.336956 0
M  V30 5 C 1.76909 0.181284 -1.60182 0
M  V30 6 S 0.254031 1.07681 -1.79707 0
M  V30 7 C -1.0299 0.590167 -0.676416 0
M  V30 8 N -2.21172 1.28477 -0.686059 0
M  V30 9 C -3.26004 1.00451 0.0776889 0
M  V30 10 N -4.47868 1.76148 0.032823 0
M  V30 11 C -3.14301 -0.0599252 0.936402 0
M  V30 12 C -1.94986 -0.77375 0.956066 0
M  V30 13 N -0.914709 -0.45809 0.168172 0
M  V30 14 N 0.08691 -1.30794 0.383135 0
M  V30 15 C -0.319787 -2.16094 1.31044 0
M  V30 16 N -1.57015 -1.86187 1.68714 0
M  V30 17 H 3.92536 -0.0252009 2.01542 0
M  V30 18 H 5.39969 -0.306164 1.11186 0
M  V30 19 H 4.06124 -0.981608 -0.626336 0
M  V30 20 H 2.46232 0.345377 -2.49191 0
M  V30 21 H 1.54365 -0.928174 -1.63656 0
M  V30 22 H -5.32662 1.31603 -0.392142 0
M  V30 23 H -4.54455 2.73506 0.408717 0
M  V30 24 H -3.93945 -0.353922 1.58709 0
M  V30 25 H 0.321047 -2.97525 1.67638 0
M  V30 END ATOM
M  V30 BEGIN BOND
M  V30 1 1 1 2
M  V30 2 1 2 3
M  V30 3 2 3 4
M  V30 4 1 3 5
M  V30 5 1 5 6
M  V30 6 1 6 7
M  V30 7 2 7 8
M  V30 8 1 8 9
M  V30 9 1 9 10
M  V30 10 2 9 11
M  V30 11 1 11 12
M  V30 12 1 12 13
M  V30 13 1 13 14
M  V30 14 2 14 15
M  V30 15 1 15 16
M  V30 16 1 13 7
M  V30 17 2 16 12
M  V30 18 1 1 17
M  V30 19 1 1 18
M  V30 20 1 2 19
M  V30 21 1 5 20
M  V30 22 1 5 21
M  V30 23 1 10 22
M  V30 24 1 10 23
M  V30 25 1 11 24
M  V30 26 1 15 25
M  V30 END BOND
M  V30 END CTAB
M  END
