
     RDKit          3D

  0  0  0  0  0  0  0  0  0  0999 V3000
M  V30 BEGIN CTAB
M  V30 COUNTS 17 17 0 0 0
M  V30 BEGIN ATOM
M  V30 1 N 2.79019 -0.488942 -0.16457 0
M  V30 2 C 1.41645 -0.136655 -0.0826814 0
M  V30 3 C 0.453544 -1.12163 -0.0193524 0
M  V30 4 C -0.882187 -0.775335 0.0602497 0
M  V30 5 N -1.86816 -1.79711 0.125173 0
M  V30 6 C -1.31044 0.536733 0.0799869 0
M  V30 7 C -0.351915 1.52095 0.0169286 0
M  V30 8 C 0.98814 1.1691 -0.0629054 0
M  V30 9 O -0.755575 2.83813 0.0351465 0
M  V30 10 I -3.37467 1.0098 0.203312 0
M  V30 11 H 3.15027 -1.09629 -0.919613 0
M  V30 12 H 3.46229 -0.13405 0.546368 0
M  V30 13 H 0.786786 -2.16878 -0.0345781 0
M  V30 14 H -2.60754 -1.78388 -0.606801 0
M  V30 15 H -1.90676 -2.55042 0.84213 0
M  V30 16 H 1.75031 1.93959 -0.112958 0
M  V30 17 H -1.74073 3.03879 0.0941651 0
M  V30 END ATOM
M  V30 BEGIN BOND
M  V30 1 1 1 2
M  V30 2 2 2 3
M  V30 3 1 3 4
M  V30 4 1 4 5
M  V30 5 2 4 6
M  V30 6 1 6 7
M  V30 7 2 7 8
M  V30 8 1 7 9
M  V30 9 1 6 10
M  V30 10 1 8 2
M  V30 11 1 1 11
M  V30 12 1 1 12
M  V30 13 1 3 13
M  V30 14 1 5 14
M  V30 15 1 5 15
M  V30 16 1 8 16
M  V30 17 1 9 17
M  V30 END BOND
M  V30 END CTAB
M  END
