
     RDKit          3D

  0  0  0  0  0  0  0  0  0  0999 V3000
M  V30 BEGIN CTAB
M  V30 COUNTS 32 33 0 0 0
M  V30 BEGIN ATOM
M  V30 1 C -3.89975 -2.06027 0.323185 0
M  V30 2 C -2.71456 -2.23124 1.21649 0
M  V30 3 O -1.70096 -1.28459 1.00683 0
M  V30 4 C -1.85307 0.0742195 1.14309 0
M  V30 5 O -2.97108 0.529319 1.47893 0
M  V30 6 C -0.773713 1.02582 0.916031 0
M  V30 7 C -0.990327 2.39886 1.07089 0
M  V30 8 C 0.0611101 3.25955 0.845361 0
M  V30 9 N -0.139616 4.67332 0.998773 0
M  V30 10 C 1.29146 2.75519 0.475772 0
M  V30 11 C 1.51737 1.40807 0.320235 0
M  V30 12 C 0.469219 0.546186 0.544766 0
M  V30 13 S 0.659517 -1.22178 0.3696 0
M  V30 14 C 2.34301 -1.61843 -0.114909 0
M  V30 15 N 3.39323 -1.86485 0.677814 0
M  V30 16 N 4.41935 -2.10713 -0.116871 0
M  V30 17 C 4.0467 -2.02064 -1.39984 0
M  V30 18 N 2.74092 -1.71333 -1.41212 0
M  V30 19 N 1.91187 -1.51928 -2.52192 0
M  V30 20 H -4.15429 -3.04777 -0.125345 0
M  V30 21 H -4.76329 -1.67344 0.89851 0
M  V30 22 H -3.642 -1.37803 -0.532696 0
M  V30 23 H -3.07198 -2.23741 2.2767 0
M  V30 24 H -2.24264 -3.24495 1.07871 0
M  V30 25 H -1.9775 2.75454 1.36403 0
M  V30 26 H 0.503317 5.24628 1.61735 0
M  V30 27 H -0.906379 5.18925 0.521984 0
M  V30 28 H 2.09885 3.44248 0.304501 0
M  V30 29 H 2.47255 0.984618 0.0311595 0
M  V30 30 H 4.65421 -2.16446 -2.29974 0
M  V30 31 H 1.33507 -2.30338 -2.86715 0
M  V30 32 H 1.8834 -0.59676 -2.98538 0
M  V30 END ATOM
M  V30 BEGIN BOND
M  V30 1 1 1 2
M  V30 2 1 2 3
M  V30 3 1 3 4
M  V30 4 2 4 5
M  V30 5 1 4 6
M  V30 6 2 6 7
M  V30 7 1 7 8
M  V30 8 1 8 9
M  V30 9 2 8 10
M  V30 10 1 10 11
M  V30 11 2 11 12
M  V30 12 1 12 13
M  V30 13 1 13 14
M  V30 14 2 14 15
M  V30 15 1 15 16
M  V30 16 2 16 17
M  V30 17 1 17 18
M  V30 18 1 18 19
M  V30 19 1 12 6
M  V30 20 1 18 14
M  V30 21 1 1 20
M  V30 22 1 1 21
M  V30 23 1 1 22
M  V30 24 1 2 23
M  V30 25 1 2 24
M  V30 26 1 7 25
M  V30 27 1 9 26
M  V30 28 1 9 27
M  V30 29 1 10 28
M  V30 30 1 11 29
M  V30 31 1 17 30
M  V30 32 1 19 31
M  V30 33 1 19 32
M  V30 END BOND
M  V30 END CTAB
M  END
