
     RDKit          3D

  0  0  0  0  0  0  0  0  0  0999 V3000
M  V30 BEGIN CTAB
M  V30 COUNTS 24 24 0 0 0
M  V30 BEGIN ATOM
M  V30 1 N 2.81489 0.645611 1.17555 0
M  V30 2 C 2.35377 0.0950914 -0.0304317 0
M  V30 3 C 1.35174 -1.02378 0.241281 0
M  V30 4 C 0.266268 0.0624519 0.203808 0
M  V30 5 C 1.21106 0.865946 -0.666245 0
M  V30 6 N -0.880659 -0.486688 -0.471779 0
M  V30 7 S -2.32695 -0.390658 0.427916 0
M  V30 8 O -2.32769 0.846845 1.2746 0
M  V30 9 O -3.46971 -0.256719 -0.545476 0
M  V30 10 N -2.59649 -1.76462 1.41869 0
M  V30 11 C -1.07978 0.0856758 -1.78507 0
M  V30 12 H 3.80546 0.889006 1.25264 0
M  V30 13 H 2.32641 0.398591 2.03868 0
M  V30 14 H 3.14583 -0.163611 -0.74183 0
M  V30 15 H 1.45261 -1.50892 1.22241 0
M  V30 16 H 1.29449 -1.69484 -0.635091 0
M  V30 17 H 0.10732 0.477808 1.20184 0
M  V30 18 H 1.12125 0.699678 -1.73941 0
M  V30 19 H 1.27805 1.92792 -0.339416 0
M  V30 20 H -3.42673 -1.56038 2.02006 0
M  V30 21 H -2.86059 -2.59883 0.845009 0
M  V30 22 H -2.12758 -0.148745 -2.0768 0
M  V30 23 H -0.418661 -0.388205 -2.51895 0
M  V30 24 H -1.01432 1.19827 -1.77199 0
M  V30 END ATOM
M  V30 BEGIN BOND
M  V30 1 1 1 2
M  V30 2 1 2 3
M  V30 3 1 3 4
M  V30 4 1 4 5
M  V30 5 1 4 6
M  V30 6 1 6 7
M  V30 7 2 7 8
M  V30 8 2 7 9
M  V30 9 1 7 10
M  V30 10 1 6 11
M  V30 11 1 5 2
M  V30 12 1 1 12
M  V30 13 1 1 13
M  V30 14 1 2 14
M  V30 15 1 3 15
M  V30 16 1 3 16
M  V30 17 1 4 17
M  V30 18 1 5 18
M  V30 19 1 5 19
M  V30 20 1 10 20
M  V30 21 1 10 21
M  V30 22 1 11 22
M  V30 23 1 11 23
M  V30 24 1 11 24
M  V30 END BOND
M  V30 END CTAB
M  END
