
     RDKit          3D

  0  0  0  0  0  0  0  0  0  0999 V3000
M  V30 BEGIN CTAB
M  V30 COUNTS 50 53 0 0 0
M  V30 BEGIN ATOM
M  V30 1 N -7.4653 0.111662 -0.0292097 0
M  V30 2 C -6.4601 0.990345 -0.56779 0 CFG=2
M  V30 3 C -5.34515 0.309612 -1.33661 0
M  V30 4 C -4.33316 1.0806 -0.555927 0 CFG=1
M  V30 5 C -5.4255 1.44118 0.442092 0
M  V30 6 C -3.29421 0.23014 0.0906972 0
M  V30 7 C -1.96201 0.500273 0.0427485 0
M  V30 8 C -1.03851 -0.33721 0.669628 0
M  V30 9 N -1.53246 -1.4003 1.30767 0
M  V30 10 C -2.84721 -1.68412 1.36606 0
M  V30 11 N -3.70238 -0.868005 0.759427 0
M  V30 12 N -3.27102 -2.8468 2.07482 0
M  V30 13 N 0.351001 -0.059328 0.622577 0
M  V30 14 C 1.24998 -0.974405 1.292 0
M  V30 15 C 2.26283 -1.4037 0.221906 0
M  V30 16 N 3.08306 -0.203325 -0.0126047 0
M  V30 17 C 2.37505 0.985187 -0.221908 0
M  V30 18 O 3.01321 2.01364 -0.560481 0
M  V30 19 C 0.890459 1.0885 -0.0609594 0
M  V30 20 C 4.49667 -0.358622 -0.00512823 0
M  V30 21 C 5.21495 0.0637252 -1.2479 0
M  V30 22 C 6.6752 0.00775586 -0.770716 0
M  V30 23 C 6.54615 0.819336 0.519766 0
M  V30 24 C 5.17548 0.470804 1.06787 0
M  V30 25 H -7.70207 -0.691062 -0.619635 0
M  V30 26 H -7.24901 -0.232981 0.926189 0
M  V30 27 H -6.91643 1.81811 -1.16699 0
M  V30 28 H -5.39447 0.530428 -2.42697 0
M  V30 29 H -5.38327 -0.790403 -1.12797 0
M  V30 30 H -3.94574 1.95383 -1.08766 0
M  V30 31 H -5.43464 0.775107 1.32719 0
M  V30 32 H -5.51721 2.51229 0.633253 0
M  V30 33 H -1.63892 1.39222 -0.501198 0
M  V30 34 H -3.24734 -3.80693 1.65153 0
M  V30 35 H -3.61204 -2.68247 3.05671 0
M  V30 36 H 0.719213 -1.84871 1.70324 0
M  V30 37 H 1.83173 -0.442037 2.056 0
M  V30 38 H 1.73723 -1.63844 -0.726802 0
M  V30 39 H 2.87532 -2.24543 0.572737 0
M  V30 40 H 0.481646 1.16567 -1.11024 0
M  V30 41 H 0.69808 2.0484 0.495415 0
M  V30 42 H 4.79622 -1.41689 0.187326 0
M  V30 43 H 5.05296 1.09784 -1.55919 0
M  V30 44 H 5.15249 -0.672255 -2.07648 0
M  V30 45 H 6.99255 -1.01312 -0.546577 0
M  V30 46 H 7.31871 0.530792 -1.513 0
M  V30 47 H 6.55341 1.88483 0.206148 0
M  V30 48 H 7.36543 0.585561 1.20625 0
M  V30 49 H 5.2633 -0.153472 1.99249 0
M  V30 50 H 4.54584 1.36218 1.24466 0
M  V30 END ATOM
M  V30 BEGIN BOND
M  V30 1 1 1 2
M  V30 2 1 2 3
M  V30 3 1 3 4
M  V30 4 1 4 5
M  V30 5 1 4 6
M  V30 6 2 6 7
M  V30 7 1 7 8
M  V30 8 2 8 9
M  V30 9 1 9 10
M  V30 10 2 10 11
M  V30 11 1 10 12
M  V30 12 1 8 13
M  V30 13 1 13 14
M  V30 14 1 14 15
M  V30 15 1 15 16
M  V30 16 1 16 17
M  V30 17 2 17 18
M  V30 18 1 17 19
M  V30 19 1 16 20
M  V30 20 1 20 21
M  V30 21 1 21 22
M  V30 22 1 22 23
M  V30 23 1 23 24
M  V30 24 1 5 2
M  V30 25 1 11 6
M  V30 26 1 19 13
M  V30 27 1 24 20
M  V30 28 1 1 25
M  V30 29 1 1 26
M  V30 30 1 2 27 CFG=3
M  V30 31 1 3 28
M  V30 32 1 3 29
M  V30 33 1 4 30 CFG=3
M  V30 34 1 5 31
M  V30 35 1 5 32
M  V30 36 1 7 33
M  V30 37 1 12 34
M  V30 38 1 12 35
M  V30 39 1 14 36
M  V30 40 1 14 37
M  V30 41 1 15 38
M  V30 42 1 15 39
M  V30 43 1 19 40
M  V30 44 1 19 41
M  V30 45 1 20 42
M  V30 46 1 21 43
M  V30 47 1 21 44
M  V30 48 1 22 45
M  V30 49 1 22 46
M  V30 50 1 23 47
M  V30 51 1 23 48
M  V30 52 1 24 49
M  V30 53 1 24 50
M  V30 END BOND
M  V30 END CTAB
M  END
