
     RDKit          3D

  0  0  0  0  0  0  0  0  0  0999 V3000
M  V30 BEGIN CTAB
M  V30 COUNTS 60 62 0 0 0
M  V30 BEGIN ATOM
M  V30 1 N -10.8974 -0.448889 -2.57147 0
M  V30 2 C -11.2526 -0.739114 -1.20298 0
M  V30 3 C -10.2253 -1.69731 -0.566259 0
M  V30 4 N -8.927 -1.2502 -0.542352 0
M  V30 5 C -7.65024 -0.810393 -0.520438 0
M  V30 6 O -6.95533 -0.489364 -1.54844 0
M  V30 7 C -6.88166 -0.642991 0.740444 0
M  V30 8 C -5.65833 -0.0225737 0.699872 0
M  V30 9 C -4.86178 0.179096 1.84411 0
M  V30 10 C -5.38807 -0.289229 3.01458 0
M  V30 11 C -6.62975 -0.92511 3.07877 0
M  V30 12 Br -7.32518 -1.56288 4.72961 0
M  V30 13 C -7.38656 -1.10273 1.91901 0
M  V30 14 C -3.59216 0.828182 1.70945 0
M  V30 15 C -2.52959 1.37583 1.54941 0
M  V30 16 C -1.28072 2.02396 1.30091 0
M  V30 17 C -1.16482 3.4104 1.13586 0
M  V30 18 C 0.0251419 4.03209 0.840587 0
M  V30 19 C 1.15886 3.2673 0.699405 0
M  V30 20 C 1.11238 1.87733 0.852804 0
M  V30 21 C -0.113782 1.29556 1.15103 0
M  V30 22 C 2.3159 1.12186 0.67734 0
M  V30 23 C 3.33973 0.474661 0.491401 0
M  V30 24 C 4.51715 -0.298446 0.241021 0
M  V30 25 C 5.73531 0.311047 0.0734859 0
M  V30 26 C 6.9037 -0.395873 -0.194877 0
M  V30 27 C 6.8346 -1.7668 -0.295313 0
M  V30 28 C 5.63404 -2.40968 -0.133029 0
M  V30 29 Br 5.53013 -4.30634 -0.26869 0
M  V30 30 C 4.48657 -1.68099 0.133089 0
M  V30 31 C 8.20019 0.280339 -0.365455 0
M  V30 32 O 8.44819 1.37635 0.223315 0
M  V30 33 N 9.15731 -0.328488 -1.20479 0
M  V30 34 C 10.4567 0.27287 -1.42278 0
M  V30 35 C 11.2881 -0.583177 -2.36612 0
M  V30 36 N 12.5773 0.0204691 -2.59213 0
M  V30 37 H -11.6986 -0.0579894 -3.11022 0
M  V30 38 H -10.588 -1.28335 -3.12295 0
M  V30 39 H -11.2827 0.218043 -0.641711 0
M  V30 40 H -12.2647 -1.18337 -1.1586 0
M  V30 41 H -10.3388 -2.65851 -1.15418 0
M  V30 42 H -10.6409 -2.01142 0.446112 0
M  V30 43 H -8.96715 -1.14967 -1.90769 0
M  V30 44 H -5.2579 0.356466 -0.235713 0
M  V30 45 H -4.78397 -0.148058 3.92478 0
M  V30 46 H -8.35188 -1.60577 1.99682 0
M  V30 47 H -2.08578 3.97475 1.2551 0
M  V30 48 H 0.00611088 5.10924 0.723401 0
M  V30 49 H 2.08818 3.73764 0.471941 0
M  V30 50 H -0.104411 0.206003 1.26904 0
M  V30 51 H 5.8258 1.39921 0.155087 0
M  V30 52 H 7.767 -2.32229 -0.504851 0
M  V30 53 H 3.54099 -2.1931 0.260838 0
M  V30 54 H 8.93779 -1.21394 -1.68659 0
M  V30 55 H 11.0224 0.352298 -0.459123 0
M  V30 56 H 10.4099 1.30297 -1.81497 0
M  V30 57 H 10.734 -0.632194 -3.32889 0
M  V30 58 H 11.434 -1.59979 -1.96732 0
M  V30 59 H 12.4131 1.05637 -2.7813 0
M  V30 60 H 13.1846 -0.0502915 -1.76342 0
M  V30 END ATOM
M  V30 BEGIN BOND
M  V30 1 1 1 2
M  V30 2 1 2 3
M  V30 3 1 3 4
M  V30 4 1 4 5
M  V30 5 2 5 6
M  V30 6 1 5 7
M  V30 7 2 7 8
M  V30 8 1 8 9
M  V30 9 2 9 10
M  V30 10 1 10 11
M  V30 11 1 11 12
M  V30 12 2 11 13
M  V30 13 1 9 14
M  V30 14 3 14 15
M  V30 15 1 15 16
M  V30 16 2 16 17
M  V30 17 1 17 18
M  V30 18 2 18 19
M  V30 19 1 19 20
M  V30 20 2 20 21
M  V30 21 1 20 22
M  V30 22 3 22 23
M  V30 23 1 23 24
M  V30 24 2 24 25
M  V30 25 1 25 26
M  V30 26 2 26 27
M  V30 27 1 27 28
M  V30 28 1 28 29
M  V30 29 2 28 30
M  V30 30 1 26 31
M  V30 31 2 31 32
M  V30 32 1 31 33
M  V30 33 1 33 34
M  V30 34 1 34 35
M  V30 35 1 35 36
M  V30 36 1 13 7
M  V30 37 1 21 16
M  V30 38 1 30 24
M  V30 39 1 1 37
M  V30 40 1 1 38
M  V30 41 1 2 39
M  V30 42 1 2 40
M  V30 43 1 3 41
M  V30 44 1 3 42
M  V30 45 1 4 43
M  V30 46 1 8 44
M  V30 47 1 10 45
M  V30 48 1 13 46
M  V30 49 1 17 47
M  V30 50 1 18 48
M  V30 51 1 19 49
M  V30 52 1 21 50
M  V30 53 1 25 51
M  V30 54 1 27 52
M  V30 55 1 30 53
M  V30 56 1 33 54
M  V30 57 1 34 55
M  V30 58 1 34 56
M  V30 59 1 35 57
M  V30 60 1 35 58
M  V30 61 1 36 59
M  V30 62 1 36 60
M  V30 END BOND
M  V30 END CTAB
M  END
