
     RDKit          3D

  0  0  0  0  0  0  0  0  0  0999 V3000
M  V30 BEGIN CTAB
M  V30 COUNTS 27 29 0 0 0
M  V30 BEGIN ATOM
M  V30 1 N 4.45518 -0.768713 -0.0984146 0
M  V30 2 C 3.11689 -0.358936 -0.220125 0
M  V30 3 C 2.51823 -0.19429 -1.46543 0
M  V30 4 C 1.20722 0.214819 -1.54306 0
M  V30 5 Cl 0.417125 0.429213 -3.09954 0
M  V30 6 C 0.514322 0.452152 -0.389335 0
M  V30 7 C 1.11344 0.28576 0.855043 0
M  V30 8 C 2.40755 -0.115924 0.959362 0
M  V30 9 C -0.886392 0.999012 -0.392226 0
M  V30 10 C -0.99693 2.29008 -0.911232 0
M  V30 11 S -2.63266 2.66366 -0.650153 0
M  V30 12 C -3.14014 1.2151 0.0904298 0
M  V30 13 N -4.35209 0.78694 0.55596 0
M  V30 14 C -4.48578 -0.440883 1.07555 0
M  V30 15 N -3.38395 -1.18713 1.10229 0
M  V30 16 C -2.16951 -0.829524 0.666469 0
M  V30 17 N -1.10211 -1.77191 0.713941 0
M  V30 18 C -1.9986 0.458033 0.11715 0
M  V30 19 H 4.67168 -1.73355 0.170266 0
M  V30 20 H 5.2151 -0.0932155 -0.280083 0
M  V30 21 H 3.10057 -0.392541 -2.36352 0
M  V30 22 H 0.571106 0.474428 1.7795 0
M  V30 23 H 2.9103 -0.259681 1.89745 0
M  V30 24 H -0.185073 2.88592 -1.37516 0
M  V30 25 H -5.43143 -0.797584 1.44231 0
M  V30 26 H -0.707448 -2.15527 1.61401 0
M  V30 27 H -0.746599 -2.05597 -0.251441 0
M  V30 END ATOM
M  V30 BEGIN BOND
M  V30 1 1 1 2
M  V30 2 2 2 3
M  V30 3 1 3 4
M  V30 4 1 4 5
M  V30 5 2 4 6
M  V30 6 1 6 7
M  V30 7 2 7 8
M  V30 8 1 6 9
M  V30 9 2 9 10
M  V30 10 1 10 11
M  V30 11 1 11 12
M  V30 12 2 12 13
M  V30 13 1 13 14
M  V30 14 2 14 15
M  V30 15 1 15 16
M  V30 16 1 16 17
M  V30 17 2 16 18
M  V30 18 1 8 2
M  V30 19 1 18 9
M  V30 20 1 18 12
M  V30 21 1 1 19
M  V30 22 1 1 20
M  V30 23 1 3 21
M  V30 24 1 7 22
M  V30 25 1 8 23
M  V30 26 1 10 24
M  V30 27 1 14 25
M  V30 28 1 17 26
M  V30 29 1 17 27
M  V30 END BOND
M  V30 END CTAB
M  END
