
     RDKit          3D

  0  0  0  0  0  0  0  0  0  0999 V3000
M  V30 BEGIN CTAB
M  V30 COUNTS 26 26 0 0 0
M  V30 BEGIN ATOM
M  V30 1 C -1.32175 -1.92827 -0.960501 0
M  V30 2 O -1.00842 -0.606922 -1.24965 0
M  V30 3 C -0.865344 0.17026 -0.103991 0
M  V30 4 C -2.1276 0.21561 0.748157 0
M  V30 5 C -1.80626 1.68317 0.966297 0
M  V30 6 C -1.13621 1.59943 -0.388864 0
M  V30 7 C 0.286777 -0.221458 0.729167 0
M  V30 8 C 1.61032 -0.159092 0.136003 0
M  V30 9 N 1.91492 0.201029 -1.04729 0
M  V30 10 N 3.16061 0.259714 -1.60551 0
M  V30 11 N 2.71367 -0.541394 0.956216 0
M  V30 12 H -2.26746 -2.03181 -0.399899 0
M  V30 13 H -1.46619 -2.47071 -1.91569 0
M  V30 14 H -0.523692 -2.46587 -0.416924 0
M  V30 15 H -3.06583 0.103115 0.170631 0
M  V30 16 H -2.07088 -0.354195 1.68663 0
M  V30 17 H -2.71456 2.31639 0.990042 0
M  V30 18 H -1.05179 1.89465 1.73802 0
M  V30 19 H -0.312902 2.28559 -0.56788 0
M  V30 20 H -1.90428 1.70695 -1.17943 0
M  V30 21 H 0.322223 0.386726 1.68346 0
M  V30 22 H 0.128297 -1.26658 1.09578 0
M  V30 23 H 3.54689 1.18999 -1.88693 0
M  V30 24 H 3.7075 -0.604714 -1.74487 0
M  V30 25 H 3.55202 -0.9994 0.573636 0
M  V30 26 H 2.69991 -0.362207 1.99339 0
M  V30 END ATOM
M  V30 BEGIN BOND
M  V30 1 1 1 2
M  V30 2 1 2 3
M  V30 3 1 3 4
M  V30 4 1 4 5
M  V30 5 1 5 6
M  V30 6 1 3 7
M  V30 7 1 7 8
M  V30 8 2 8 9 CFG=2
M  V30 9 1 9 10
M  V30 10 1 8 11
M  V30 11 1 6 3
M  V30 12 1 1 12
M  V30 13 1 1 13
M  V30 14 1 1 14
M  V30 15 1 4 15
M  V30 16 1 4 16
M  V30 17 1 5 17
M  V30 18 1 5 18
M  V30 19 1 6 19
M  V30 20 1 6 20
M  V30 21 1 7 21
M  V30 22 1 7 22
M  V30 23 1 10 23
M  V30 24 1 10 24
M  V30 25 1 11 25
M  V30 26 1 11 26
M  V30 END BOND
M  V30 END CTAB
M  END
