
     RDKit          3D

  0  0  0  0  0  0  0  0  0  0999 V3000
M  V30 BEGIN CTAB
M  V30 COUNTS 41 42 0 0 0
M  V30 BEGIN ATOM
M  V30 1 C 6.7781 -0.612338 0.600764 0
M  V30 2 C 5.37841 -0.11601 0.41423 0
M  V30 3 C 5.00473 0.46772 -0.78065 0
M  V30 4 C 3.71658 0.933351 -0.976129 0
M  V30 5 C 2.74586 0.831451 0.0246439 0
M  V30 6 C 3.16759 0.243635 1.1936 0
M  V30 7 C 4.44181 -0.226853 1.41196 0
M  V30 8 C 1.38573 1.34767 -0.207074 0
M  V30 9 N 0.524762 0.466529 -0.928149 0
M  V30 10 C -0.357036 -0.413729 -0.259309 0
M  V30 11 O -1.08214 -1.165 -1.01057 0
M  V30 12 C -0.503241 -0.526563 1.21234 0
M  V30 13 S -1.84059 -1.70289 1.5728 0
M  V30 14 C -3.41294 -1.05118 1.01991 0
M  V30 15 N -4.5188 -1.77092 1.19884 0
M  V30 16 C -5.75274 -1.3831 0.824979 0
M  V30 17 N -6.90611 -2.16626 1.0283 0
M  V30 18 C -5.88089 -0.151534 0.211953 0
M  V30 19 C -4.73894 0.59682 0.0244553 0
M  V30 20 N -3.52826 0.153746 0.421562 0
M  V30 21 N -4.90292 1.86665 -0.614574 0
M  V30 22 C 0.546682 0.479266 -2.36326 0
M  V30 23 H 7.24012 -0.0580543 1.438 0
M  V30 24 H 7.36254 -0.531889 -0.327024 0
M  V30 25 H 6.70776 -1.68523 0.925358 0
M  V30 26 H 5.71895 0.570564 -1.58323 0
M  V30 27 H 3.50356 1.37934 -1.9316 0
M  V30 28 H 2.4671 0.127376 2.02979 0
M  V30 29 H 4.75034 -0.684397 2.33803 0
M  V30 30 H 1.44297 2.34828 -0.731505 0
M  V30 31 H 0.8879 1.62104 0.773786 0
M  V30 32 H 0.424436 -1.04264 1.60238 0
M  V30 33 H -0.668761 0.419432 1.72204 0
M  V30 34 H -7.62374 -1.86168 1.69979 0
M  V30 35 H -7.0291 -3.04283 0.503827 0
M  V30 36 H -6.84698 0.22725 -0.117388 0
M  V30 37 H -4.32345 2.68009 -0.393308 0
M  V30 38 H -5.65373 1.99058 -1.35232 0
M  V30 39 H 0.447304 -0.571048 -2.75572 0
M  V30 40 H 1.34735 1.04166 -2.82704 0
M  V30 41 H -0.420227 0.971724 -2.68355 0
M  V30 END ATOM
M  V30 BEGIN BOND
M  V30 1 1 1 2
M  V30 2 2 2 3
M  V30 3 1 3 4
M  V30 4 2 4 5
M  V30 5 1 5 6
M  V30 6 2 6 7
M  V30 7 1 5 8
M  V30 8 1 8 9
M  V30 9 1 9 10
M  V30 10 2 10 11
M  V30 11 1 10 12
M  V30 12 1 12 13
M  V30 13 1 13 14
M  V30 14 2 14 15
M  V30 15 1 15 16
M  V30 16 1 16 17
M  V30 17 2 16 18
M  V30 18 1 18 19
M  V30 19 2 19 20
M  V30 20 1 19 21
M  V30 21 1 9 22
M  V30 22 1 7 2
M  V30 23 1 20 14
M  V30 24 1 1 23
M  V30 25 1 1 24
M  V30 26 1 1 25
M  V30 27 1 3 26
M  V30 28 1 4 27
M  V30 29 1 6 28
M  V30 30 1 7 29
M  V30 31 1 8 30
M  V30 32 1 8 31
M  V30 33 1 12 32
M  V30 34 1 12 33
M  V30 35 1 17 34
M  V30 36 1 17 35
M  V30 37 1 18 36
M  V30 38 1 21 37
M  V30 39 1 21 38
M  V30 40 1 22 39
M  V30 41 1 22 40
M  V30 42 1 22 41
M  V30 END BOND
M  V30 END CTAB
M  END
