
     RDKit          3D

  0  0  0  0  0  0  0  0  0  0999 V3000
M  V30 BEGIN CTAB
M  V30 COUNTS 35 36 0 0 0
M  V30 BEGIN ATOM
M  V30 1 C 4.20375 1.01422 2.12906 0
M  V30 2 C 4.18033 -0.131477 1.161 0
M  V30 3 O 3.15314 -0.0585839 0.214059 0
M  V30 4 C 1.8027 -0.0484805 0.442039 0
M  V30 5 C 1.25538 -0.120571 1.69833 0
M  V30 6 C -0.122522 -0.107454 1.87478 0
M  V30 7 C -0.931714 -0.0231906 0.788365 0
M  V30 8 C -0.378491 0.0504505 -0.50268 0
M  V30 9 C 0.982579 0.0391764 -0.682046 0
M  V30 10 S 1.66846 0.123379 -2.26069 0
M  V30 11 O 1.10274 1.14841 -3.16145 0
M  V30 12 O 3.15233 0.533193 -2.09727 0
M  V30 13 N 1.73765 -1.3955 -3.0735 0
M  V30 14 C -1.24482 0.121513 -1.56571 0
M  V30 15 C -2.63273 0.123521 -1.38393 0
M  V30 16 C -3.16793 0.0530003 -0.122599 0
M  V30 17 C -2.31294 -0.0195522 0.946855 0
M  V30 18 S -4.89627 0.0577324 0.0794831 0
M  V30 19 O -5.56178 -0.560326 -1.12514 0
M  V30 20 O -5.2988 -0.743534 1.30028 0
M  V30 21 N -5.5081 1.66676 0.249532 0
M  V30 22 H 5.12658 1.62229 2.03004 0
M  V30 23 H 3.33015 1.67174 1.97295 0
M  V30 24 H 4.12502 0.605595 3.15188 0
M  V30 25 H 5.14385 -0.111142 0.568018 0
M  V30 26 H 4.07963 -1.11068 1.68711 0
M  V30 27 H 1.92521 -0.193606 2.54222 0
M  V30 28 H -0.521557 -0.163192 2.85152 0
M  V30 29 H 1.75473 -1.20334 -4.09519 0
M  V30 30 H 2.59181 -1.9264 -2.80153 0
M  V30 31 H -0.897897 0.165427 -2.57932 0
M  V30 32 H -3.26097 0.182939 -2.27887 0
M  V30 33 H -2.71632 -0.0761292 1.95029 0
M  V30 34 H -5.45169 2.19086 -0.641491 0
M  V30 35 H -6.41152 1.70836 0.733596 0
M  V30 END ATOM
M  V30 BEGIN BOND
M  V30 1 1 1 2
M  V30 2 1 2 3
M  V30 3 1 3 4
M  V30 4 2 4 5
M  V30 5 1 5 6
M  V30 6 2 6 7
M  V30 7 1 7 8
M  V30 8 2 8 9
M  V30 9 1 9 10
M  V30 10 2 10 11
M  V30 11 2 10 12
M  V30 12 1 10 13
M  V30 13 1 8 14
M  V30 14 2 14 15
M  V30 15 1 15 16
M  V30 16 2 16 17
M  V30 17 1 16 18
M  V30 18 2 18 19
M  V30 19 2 18 20
M  V30 20 1 18 21
M  V30 21 1 9 4
M  V30 22 1 17 7
M  V30 23 1 1 22
M  V30 24 1 1 23
M  V30 25 1 1 24
M  V30 26 1 2 25
M  V30 27 1 2 26
M  V30 28 1 5 27
M  V30 29 1 6 28
M  V30 30 1 13 29
M  V30 31 1 13 30
M  V30 32 1 14 31
M  V30 33 1 15 32
M  V30 34 1 17 33
M  V30 35 1 21 34
M  V30 36 1 21 35
M  V30 END BOND
M  V30 END CTAB
M  END
