
     RDKit          3D

  0  0  0  0  0  0  0  0  0  0999 V3000
M  V30 BEGIN CTAB
M  V30 COUNTS 90 90 0 0 0
M  V30 BEGIN ATOM
M  V30 1 C -9.25425 -2.37954 2.38641 0
M  V30 2 C -9.479 -0.975685 1.8779 0
M  V30 3 C -8.82058 -0.771824 0.523888 0
M  V30 4 C -9.04651 0.612855 0.0565103 0
M  V30 5 C -8.55514 1.69872 0.900787 0
M  V30 6 C -7.1459 1.90259 1.18669 0
M  V30 7 C -6.32576 0.925904 1.93848 0
M  V30 8 C -4.92168 1.53681 2.04623 0
M  V30 9 C -3.95591 0.698848 2.78677 0
M  V30 10 C -3.67826 -0.659188 2.26043 0
M  V30 11 C -3.14474 -0.74 0.871286 0
M  V30 12 C -1.82018 0.0341538 0.69884 0
M  V30 13 O -1.33431 -0.0396058 -0.490308 0
M  V30 14 C -0.811254 -0.0756835 -1.64135 0
M  V30 15 C 0.367496 0.63257 -1.95662 0
M  V30 16 C 0.868878 0.544049 -3.22598 0
M  V30 17 O 2.02682 1.23107 -3.57653 0
M  V30 18 C 2.66507 2.02039 -2.5938 0
M  V30 19 C 3.87201 2.6857 -3.17502 0
M  V30 20 C 4.84901 1.65664 -3.65132 0
M  V30 21 C 5.34999 0.742831 -2.56523 0
M  V30 22 C 6.01905 1.59136 -1.53408 0
M  V30 23 C 6.60502 0.843274 -0.371353 0
M  V30 24 C 7.65171 -0.130812 -0.860899 0
M  V30 25 C 8.2713 -0.861324 0.319422 0
M  V30 26 C 7.29503 -1.6426 1.12483 0
M  V30 27 C 7.99041 -2.32868 2.26173 0
M  V30 28 C 8.65152 -1.35655 3.1864 0
M  V30 29 C 9.32974 -2.10953 4.32345 0
M  V30 30 C 0.268523 -0.212607 -4.21372 0
M  V30 31 N 0.856743 -0.254046 -5.50036 0
M  V30 32 C -0.880265 -0.910235 -3.9286 0
M  V30 33 C -1.41377 -0.845951 -2.66775 0
M  V30 34 N -2.60143 -1.55799 -2.34601 0
M  V30 35 H -10.0716 -2.59799 3.11761 0
M  V30 36 H -8.24558 -2.46721 2.85763 0
M  V30 37 H -9.37139 -3.08191 1.52237 0
M  V30 38 H -9.11551 -0.220641 2.56914 0
M  V30 39 H -10.6023 -0.903338 1.73187 0
M  V30 40 H -9.36737 -1.49001 -0.206432 0
M  V30 41 H -7.78104 -1.06514 0.455615 0
M  V30 42 H -10.186 0.693676 -0.109357 0
M  V30 43 H -8.69133 0.719855 -1.02776 0
M  V30 44 H -8.92385 2.67002 0.40895 0
M  V30 45 H -9.09851 1.72168 1.91079 0
M  V30 46 H -6.61882 1.98645 0.158017 0
M  V30 47 H -6.9818 2.9479 1.61231 0
M  V30 48 H -6.76457 0.830723 2.97608 0
M  V30 49 H -6.22599 -0.0625528 1.53294 0
M  V30 50 H -5.05187 2.48507 2.6133 0
M  V30 51 H -4.54267 1.82834 1.05757 0
M  V30 52 H -2.99849 1.25947 2.86695 0
M  V30 53 H -4.27676 0.563404 3.86053 0
M  V30 54 H -4.55627 -1.30655 2.42046 0
M  V30 55 H -2.87615 -1.10564 2.92443 0
M  V30 56 H -2.93653 -1.80912 0.664046 0
M  V30 57 H -3.83894 -0.306187 0.135223 0
M  V30 58 H -1.14567 -0.461882 1.49181 0
M  V30 59 H -1.9686 1.07076 1.14553 0
M  V30 60 H 0.826616 1.2163 -1.18499 0
M  V30 61 H 2.97836 1.43272 -1.70913 0
M  V30 62 H 1.99669 2.84 -2.2277 0
M  V30 63 H 3.51874 3.31367 -4.03222 0
M  V30 64 H 4.32448 3.41087 -2.46264 0
M  V30 65 H 4.35378 1.06388 -4.4493 0
M  V30 66 H 5.70232 2.21289 -4.11537 0
M  V30 67 H 6.03592 -0.0148134 -3.01122 0
M  V30 68 H 4.50596 0.167434 -2.15127 0
M  V30 69 H 5.24554 2.27737 -1.09328 0
M  V30 70 H 6.79471 2.24119 -1.9555 0
M  V30 71 H 7.13881 1.5977 0.256889 0
M  V30 72 H 5.81664 0.341865 0.233256 0
M  V30 73 H 7.25832 -0.865015 -1.5642 0
M  V30 74 H 8.43308 0.471156 -1.3704 0
M  V30 75 H 8.87176 -0.136675 0.926571 0
M  V30 76 H 9.02682 -1.58423 -0.0737429 0
M  V30 77 H 6.78372 -2.36188 0.449803 0
M  V30 78 H 6.47909 -1.0231 1.56507 0
M  V30 79 H 7.23048 -2.8937 2.84582 0
M  V30 80 H 8.74905 -3.05381 1.89872 0
M  V30 81 H 9.39586 -0.696836 2.75009 0
M  V30 82 H 7.89115 -0.684852 3.67167 0
M  V30 83 H 10.26 -1.60426 4.61148 0
M  V30 84 H 9.50524 -3.15611 3.97289 0
M  V30 85 H 8.64981 -2.16536 5.18147 0
M  V30 86 H 1.24905 -1.13846 -5.90538 0
M  V30 87 H 0.931505 0.58466 -6.10972 0
M  V30 88 H -1.35345 -1.50958 -4.71979 0
M  V30 89 H -2.57111 -2.42873 -1.76729 0
M  V30 90 H -3.5407 -1.25937 -2.66094 0
M  V30 END ATOM
M  V30 BEGIN BOND
M  V30 1 1 1 2
M  V30 2 1 2 3
M  V30 3 1 3 4
M  V30 4 1 4 5
M  V30 5 1 5 6
M  V30 6 1 6 7
M  V30 7 1 7 8
M  V30 8 1 8 9
M  V30 9 1 9 10
M  V30 10 1 10 11
M  V30 11 1 11 12
M  V30 12 1 12 13
M  V30 13 1 13 14
M  V30 14 2 14 15
M  V30 15 1 15 16
M  V30 16 1 16 17
M  V30 17 1 17 18
M  V30 18 1 18 19
M  V30 19 1 19 20
M  V30 20 1 20 21
M  V30 21 1 21 22
M  V30 22 1 22 23
M  V30 23 1 23 24
M  V30 24 1 24 25
M  V30 25 1 25 26
M  V30 26 1 26 27
M  V30 27 1 27 28
M  V30 28 1 28 29
M  V30 29 2 16 30
M  V30 30 1 30 31
M  V30 31 1 30 32
M  V30 32 2 32 33
M  V30 33 1 33 34
M  V30 34 1 33 14
M  V30 35 1 1 35
M  V30 36 1 1 36
M  V30 37 1 1 37
M  V30 38 1 2 38
M  V30 39 1 2 39
M  V30 40 1 3 40
M  V30 41 1 3 41
M  V30 42 1 4 42
M  V30 43 1 4 43
M  V30 44 1 5 44
M  V30 45 1 5 45
M  V30 46 1 6 46
M  V30 47 1 6 47
M  V30 48 1 7 48
M  V30 49 1 7 49
M  V30 50 1 8 50
M  V30 51 1 8 51
M  V30 52 1 9 52
M  V30 53 1 9 53
M  V30 54 1 10 54
M  V30 55 1 10 55
M  V30 56 1 11 56
M  V30 57 1 11 57
M  V30 58 1 12 58
M  V30 59 1 12 59
M  V30 60 1 15 60
M  V30 61 1 18 61
M  V30 62 1 18 62
M  V30 63 1 19 63
M  V30 64 1 19 64
M  V30 65 1 20 65
M  V30 66 1 20 66
M  V30 67 1 21 67
M  V30 68 1 21 68
M  V30 69 1 22 69
M  V30 70 1 22 70
M  V30 71 1 23 71
M  V30 72 1 23 72
M  V30 73 1 24 73
M  V30 74 1 24 74
M  V30 75 1 25 75
M  V30 76 1 25 76
M  V30 77 1 26 77
M  V30 78 1 26 78
M  V30 79 1 27 79
M  V30 80 1 27 80
M  V30 81 1 28 81
M  V30 82 1 28 82
M  V30 83 1 29 83
M  V30 84 1 29 84
M  V30 85 1 29 85
M  V30 86 1 31 86
M  V30 87 1 31 87
M  V30 88 1 32 88
M  V30 89 1 34 89
M  V30 90 1 34 90
M  V30 END BOND
M  V30 END CTAB
M  END
