
     RDKit          3D

  0  0  0  0  0  0  0  0  0  0999 V3000
M  V30 BEGIN CTAB
M  V30 COUNTS 30 32 0 0 0
M  V30 BEGIN ATOM
M  V30 1 N 3.9375 -1.61329 0.0002196 0
M  V30 2 N 3.88735 -0.235274 -0.165537 0
M  V30 3 C 5.0117 0.549649 -0.279245 0
M  V30 4 S 6.68833 -0.0715588 -0.232256 0
M  V30 5 N 4.58374 1.80759 -0.424125 0
M  V30 6 N 3.27029 1.81444 -0.402956 0
M  V30 7 C 2.80752 0.533484 -0.240372 0
M  V30 8 C 1.36513 0.217475 -0.178036 0
M  V30 9 C 0.89505 -1.04642 -0.0174933 0
M  V30 10 C -0.471352 -1.26922 0.0322675 0
M  V30 11 C -1.40919 -0.266368 -0.0732023 0
M  V30 12 C -0.912122 0.994498 -0.233826 0
M  V30 13 C 0.443077 1.2486 -0.287179 0
M  V30 14 C -2.81784 -0.640361 -0.00449675 0
M  V30 15 N -3.27335 -1.92049 0.157758 0
M  V30 16 N -4.55984 -1.95523 0.183434 0
M  V30 17 C -5.01274 -0.710654 0.0406395 0
M  V30 18 S -6.72163 -0.197039 0.00711855 0
M  V30 19 N -3.92666 0.11036 -0.0766771 0
M  V30 20 N -4.02165 1.47972 -0.240526 0
M  V30 21 H 4.1141 -2.24442 -0.808567 0
M  V30 22 H 3.80203 -2.06266 0.928419 0
M  V30 23 H 7.50734 0.992093 0.236084 0
M  V30 24 H 1.56497 -1.90085 0.0745281 0
M  V30 25 H -0.783603 -2.29911 0.161903 0
M  V30 26 H -1.60629 1.81889 -0.321822 0
M  V30 27 H 0.820464 2.26337 -0.416059 0
M  V30 28 H -7.06748 0.542828 1.14457 0
M  V30 29 H -4.11321 1.95569 -1.15681 0
M  V30 30 H -4.00165 2.10426 0.614567 0
M  V30 END ATOM
M  V30 BEGIN BOND
M  V30 1 1 1 2
M  V30 2 1 2 3
M  V30 3 1 3 4
M  V30 4 2 3 5
M  V30 5 1 5 6
M  V30 6 2 6 7
M  V30 7 1 7 8
M  V30 8 2 8 9
M  V30 9 1 9 10
M  V30 10 2 10 11
M  V30 11 1 11 12
M  V30 12 2 12 13
M  V30 13 1 11 14
M  V30 14 2 14 15
M  V30 15 1 15 16
M  V30 16 2 16 17
M  V30 17 1 17 18
M  V30 18 1 17 19
M  V30 19 1 19 20
M  V30 20 1 7 2
M  V30 21 1 13 8
M  V30 22 1 19 14
M  V30 23 1 1 21
M  V30 24 1 1 22
M  V30 25 1 4 23
M  V30 26 1 9 24
M  V30 27 1 10 25
M  V30 28 1 12 26
M  V30 29 1 13 27
M  V30 30 1 18 28
M  V30 31 1 20 29
M  V30 32 1 20 30
M  V30 END BOND
M  V30 END CTAB
M  END
