
     RDKit          3D

  0  0  0  0  0  0  0  0  0  0999 V3000
M  V30 BEGIN CTAB
M  V30 COUNTS 22 22 0 0 0
M  V30 BEGIN ATOM
M  V30 1 C 3.77895 0.485472 -1.3756 0
M  V30 2 C 2.47067 0.293695 -0.643952 0
M  V30 3 C 2.24388 0.41001 0.703915 0
M  V30 4 C 0.996637 0.194558 1.1352 0
M  V30 5 C 0.0513143 -0.123111 0.201643 0
M  V30 6 S 0.930046 -0.112741 -1.25672 0
M  V30 7 C -1.40783 -0.408613 0.429872 0
M  V30 8 C -2.08004 -0.359384 -0.932446 0
M  V30 9 N -3.49732 -0.62747 -0.784561 0
M  V30 10 N -1.94905 0.565802 1.32572 0
M  V30 11 H 3.88394 1.50743 -1.7579 0
M  V30 12 H 3.82566 -0.282976 -2.20115 0
M  V30 13 H 4.61332 0.259563 -0.696959 0
M  V30 14 H 3.09824 0.675066 1.36756 0
M  V30 15 H 0.709652 0.264036 2.20656 0
M  V30 16 H -1.54113 -1.4177 0.855598 0
M  V30 17 H -1.57746 -1.04248 -1.63661 0
M  V30 18 H -1.99322 0.674507 -1.35311 0
M  V30 19 H -3.74461 -0.834197 0.211483 0
M  V30 20 H -3.83464 -1.39874 -1.38531 0
M  V30 21 H -2.68684 1.14042 0.863609 0
M  V30 22 H -2.29016 0.136856 2.22364 0
M  V30 END ATOM
M  V30 BEGIN BOND
M  V30 1 1 1 2
M  V30 2 2 2 3
M  V30 3 1 3 4
M  V30 4 2 4 5
M  V30 5 1 5 6
M  V30 6 1 5 7
M  V30 7 1 7 8
M  V30 8 1 8 9
M  V30 9 1 7 10
M  V30 10 1 6 2
M  V30 11 1 1 11
M  V30 12 1 1 12
M  V30 13 1 1 13
M  V30 14 1 3 14
M  V30 15 1 4 15
M  V30 16 1 7 16
M  V30 17 1 8 17
M  V30 18 1 8 18
M  V30 19 1 9 19
M  V30 20 1 9 20
M  V30 21 1 10 21
M  V30 22 1 10 22
M  V30 END BOND
M  V30 END CTAB
M  END
