
     RDKit          3D

  0  0  0  0  0  0  0  0  0  0999 V3000
M  V30 BEGIN CTAB
M  V30 COUNTS 16 16 0 0 0
M  V30 BEGIN ATOM
M  V30 1 N 0.756652 0.261 1.39771 0
M  V30 2 C 0.703402 0.0590978 0.0103726 0
M  V30 3 N 1.89601 -0.444887 -0.602695 0
M  V30 4 C -0.41011 -0.952878 -0.292684 0
M  V30 5 C -1.62123 -0.0413085 -0.047451 0
M  V30 6 C -1.16019 1.19881 -0.736771 0
M  V30 7 O -1.96407 1.99011 -1.29269 0
M  V30 8 O 0.208637 1.2351 -0.613665 0
M  V30 9 H 1.34449 0.986027 1.77396 0
M  V30 10 H 0.328783 -0.413336 2.01413 0
M  V30 11 H 2.59235 -0.707128 0.127675 0
M  V30 12 H 2.27477 0.157134 -1.34146 0
M  V30 13 H -0.397211 -1.24625 -1.36125 0
M  V30 14 H -0.390744 -1.80591 0.388879 0
M  V30 15 H -2.54152 -0.45125 -0.451577 0
M  V30 16 H -1.62001 0.175682 1.02751 0
M  V30 END ATOM
M  V30 BEGIN BOND
M  V30 1 1 1 2
M  V30 2 1 2 3
M  V30 3 1 2 4
M  V30 4 1 4 5
M  V30 5 1 5 6
M  V30 6 2 6 7
M  V30 7 1 6 8
M  V30 8 1 8 2
M  V30 9 1 1 9
M  V30 10 1 1 10
M  V30 11 1 3 11
M  V30 12 1 3 12
M  V30 13 1 4 13
M  V30 14 1 4 14
M  V30 15 1 5 15
M  V30 16 1 5 16
M  V30 END BOND
M  V30 END CTAB
M  END
