
     RDKit          3D

  0  0  0  0  0  0  0  0  0  0999 V3000
M  V30 BEGIN CTAB
M  V30 COUNTS 28 30 0 0 0
M  V30 BEGIN ATOM
M  V30 1 N 2.02798 2.82776 -0.149333 0
M  V30 2 C 2.0684 1.41431 -0.0103509 0
M  V30 3 C 3.24702 0.744629 0.127295 0
M  V30 4 Cl 4.74787 1.6334 0.134404 0
M  V30 5 C 3.30107 -0.631047 0.263479 0
M  V30 6 Cl 4.7819 -1.52363 0.441354 0
M  V30 7 C 2.0861 -1.32745 0.255492 0
M  V30 8 N 2.03804 -2.73653 0.388574 0
M  V30 9 C 0.879128 -0.668432 0.117119 0
M  V30 10 C 0.880719 0.723526 -0.0171897 0
M  V30 11 C -0.389722 1.39252 -0.160468 0
M  V30 12 O -0.367214 2.65485 -0.280968 0
M  V30 13 C -1.67157 0.671751 -0.170258 0
M  V30 14 C -2.86848 1.35759 -0.310616 0
M  V30 15 C -4.03337 0.613138 -0.31088 0
M  V30 16 C -4.03355 -0.771704 -0.177169 0
M  V30 17 C -2.80492 -1.42476 -0.0380142 0
M  V30 18 C -1.6314 -0.699454 -0.0353671 0
M  V30 19 C -0.373065 -1.41946 0.112086 0
M  V30 20 O -0.392968 -2.67158 0.231755 0
M  V30 21 H 2.1082 3.40298 0.732238 0
M  V30 22 H 1.92526 3.31088 -1.05965 0
M  V30 23 H 2.27029 -3.34281 -0.420458 0
M  V30 24 H 1.7756 -3.20169 1.27704 0
M  V30 25 H -2.87094 2.41617 -0.412978 0
M  V30 26 H -4.99244 1.09912 -0.417203 0
M  V30 27 H -4.935 -1.34266 -0.177872 0
M  V30 28 H -2.77291 -2.50145 0.0679364 0
M  V30 END ATOM
M  V30 BEGIN BOND
M  V30 1 1 1 2
M  V30 2 2 2 3
M  V30 3 1 3 4
M  V30 4 1 3 5
M  V30 5 1 5 6
M  V30 6 2 5 7
M  V30 7 1 7 8
M  V30 8 1 7 9
M  V30 9 2 9 10
M  V30 10 1 10 11
M  V30 11 2 11 12
M  V30 12 1 11 13
M  V30 13 2 13 14
M  V30 14 1 14 15
M  V30 15 2 15 16
M  V30 16 1 16 17
M  V30 17 2 17 18
M  V30 18 1 18 19
M  V30 19 2 19 20
M  V30 20 1 10 2
M  V30 21 1 18 13
M  V30 22 1 19 9
M  V30 23 1 1 21
M  V30 24 1 1 22
M  V30 25 1 8 23
M  V30 26 1 8 24
M  V30 27 1 14 25
M  V30 28 1 15 26
M  V30 29 1 16 27
M  V30 30 1 17 28
M  V30 END BOND
M  V30 END CTAB
M  END
