
     RDKit          3D

  0  0  0  0  0  0  0  0  0  0999 V3000
M  V30 BEGIN CTAB
M  V30 COUNTS 37 38 0 0 0
M  V30 BEGIN ATOM
M  V30 1 C 4.52896 0.857559 -0.251512 0
M  V30 2 C 3.71501 -0.231391 0.428976 0
M  V30 3 C 2.29622 -0.179492 0.0470096 0
M  V30 4 C 1.34079 0.0702724 1.00972 0
M  V30 5 C -0.0025973 0.128105 0.697156 0
M  V30 6 C -0.454143 -0.0608995 -0.591828 0
M  V30 7 C 0.504682 -0.310261 -1.55066 0
M  V30 8 C 1.84568 -0.368696 -1.24265 0
M  V30 9 C -1.88207 -0.000563029 -0.930415 0
M  V30 10 C -2.39777 1.35694 -0.622635 0
M  V30 11 C -3.44599 1.56314 0.155495 0
M  V30 12 N -3.92408 2.88028 0.437324 0
M  V30 13 O -4.12274 0.497906 0.72947 0
M  V30 14 C -3.72751 -0.812957 0.509756 0
M  V30 15 C -2.68275 -1.0434 -0.264312 0
M  V30 16 C -2.31905 -2.43109 -0.455679 0
M  V30 17 N -2.02864 -3.54307 -0.627202 0
M  V30 18 N -4.44523 -1.89543 1.11566 0
M  V30 19 C -1.74801 2.50727 -1.18135 0
M  V30 20 N -1.22135 3.43264 -1.65193 0
M  V30 21 C 4.33942 -1.58573 0.174606 0
M  V30 22 H 3.89981 1.45503 -0.949441 0
M  V30 23 H 5.40365 0.393054 -0.772555 0
M  V30 24 H 4.95463 1.58084 0.473957 0
M  V30 25 H 3.79471 -0.0461164 1.51717 0
M  V30 26 H 1.65135 0.228056 2.05407 0
M  V30 27 H -0.743753 0.324691 1.4602 0
M  V30 28 H 0.231973 -0.472966 -2.60507 0
M  V30 29 H 2.57478 -0.56529 -2.01135 0
M  V30 30 H -1.98824 -0.185788 -2.0334 0
M  V30 31 H -4.28343 3.50488 -0.316346 0
M  V30 32 H -3.9086 3.21799 1.43316 0
M  V30 33 H -4.86887 -1.72996 2.06193 0
M  V30 34 H -4.52918 -2.79522 0.620736 0
M  V30 35 H 4.20996 -2.25669 1.07361 0
M  V30 36 H 3.99776 -2.05614 -0.752582 0
M  V30 37 H 5.43463 -1.42751 0.0842071 0
M  V30 END ATOM
M  V30 BEGIN BOND
M  V30 1 1 1 2
M  V30 2 1 2 3
M  V30 3 2 3 4
M  V30 4 1 4 5
M  V30 5 2 5 6
M  V30 6 1 6 7
M  V30 7 2 7 8
M  V30 8 1 6 9
M  V30 9 1 9 10
M  V30 10 2 10 11
M  V30 11 1 11 12
M  V30 12 1 11 13
M  V30 13 1 13 14
M  V30 14 2 14 15
M  V30 15 1 15 16
M  V30 16 3 16 17
M  V30 17 1 14 18
M  V30 18 1 10 19
M  V30 19 3 19 20
M  V30 20 1 2 21
M  V30 21 1 8 3
M  V30 22 1 15 9
M  V30 23 1 1 22
M  V30 24 1 1 23
M  V30 25 1 1 24
M  V30 26 1 2 25
M  V30 27 1 4 26
M  V30 28 1 5 27
M  V30 29 1 7 28
M  V30 30 1 8 29
M  V30 31 1 9 30
M  V30 32 1 12 31
M  V30 33 1 12 32
M  V30 34 1 18 33
M  V30 35 1 18 34
M  V30 36 1 21 35
M  V30 37 1 21 36
M  V30 38 1 21 37
M  V30 END BOND
M  V30 END CTAB
M  END
