
     RDKit          3D

  0  0  0  0  0  0  0  0  0  0999 V3000
M  V30 BEGIN CTAB
M  V30 COUNTS 28 30 0 0 0
M  V30 BEGIN ATOM
M  V30 1 N -6.00175 -0.0546845 0.301719 0
M  V30 2 C -4.57246 -0.0205249 0.186207 0
M  V30 3 C -3.76627 -0.515431 1.18914 0
M  V30 4 C -2.37581 -0.483695 1.07989 0
M  V30 5 C -1.75061 0.0402413 -0.0279497 0
M  V30 6 C -2.5691 0.532044 -1.02405 0
M  V30 7 C -3.946 0.505127 -0.925232 0
M  V30 8 C -0.301289 0.0873977 -0.171083 0
M  V30 9 N 0.590167 -0.329536 0.667196 0
M  V30 10 C 1.86171 -0.21574 0.391156 0
M  V30 11 C 2.21739 0.347357 -0.789637 0
M  V30 12 S 0.658015 0.692967 -1.45893 0
M  V30 13 C 3.53538 0.520392 -1.19018 0
M  V30 14 C 4.57816 0.115784 -0.382226 0
M  V30 15 N 5.93627 0.253278 -0.710172 0
M  V30 16 C 4.21954 -0.455811 0.816308 0
M  V30 17 C 2.91418 -0.63002 1.2189 0
M  V30 18 H -6.52238 0.676547 0.860196 0
M  V30 19 H -6.54602 -0.792446 -0.157552 0
M  V30 20 H -4.26653 -0.924212 2.05387 0
M  V30 21 H -1.75414 -0.869644 1.86224 0
M  V30 22 H -2.06051 0.949061 -1.90615 0
M  V30 23 H -4.57217 0.896717 -1.71917 0
M  V30 24 H 3.72835 0.977151 -2.14501 0
M  V30 25 H 6.37296 1.10893 -1.13107 0
M  V30 26 H 6.58639 -0.540563 -0.532959 0
M  V30 27 H 5.04717 -0.779893 1.46368 0
M  V30 28 H 2.75933 -1.09079 2.18087 0
M  V30 END ATOM
M  V30 BEGIN BOND
M  V30 1 1 1 2
M  V30 2 2 2 3
M  V30 3 1 3 4
M  V30 4 2 4 5
M  V30 5 1 5 6
M  V30 6 2 6 7
M  V30 7 1 5 8
M  V30 8 2 8 9
M  V30 9 1 9 10
M  V30 10 2 10 11
M  V30 11 1 11 12
M  V30 12 1 11 13
M  V30 13 2 13 14
M  V30 14 1 14 15
M  V30 15 1 14 16
M  V30 16 2 16 17
M  V30 17 1 7 2
M  V30 18 1 12 8
M  V30 19 1 17 10
M  V30 20 1 1 18
M  V30 21 1 1 19
M  V30 22 1 3 20
M  V30 23 1 4 21
M  V30 24 1 6 22
M  V30 25 1 7 23
M  V30 26 1 13 24
M  V30 27 1 15 25
M  V30 28 1 15 26
M  V30 29 1 16 27
M  V30 30 1 17 28
M  V30 END BOND
M  V30 END CTAB
M  END
