
     RDKit          3D

  0  0  0  0  0  0  0  0  0  0999 V3000
M  V30 BEGIN CTAB
M  V30 COUNTS 23 23 0 0 0
M  V30 BEGIN ATOM
M  V30 1 C -2.41383 -0.971833 0.476195 0
M  V30 2 C -1.89684 -0.0879877 -0.647041 0
M  V30 3 C -0.652764 0.600427 -0.286008 0
M  V30 4 O -0.643719 1.86833 -0.123454 0
M  V30 5 C 0.623937 -0.0792003 -0.0912909 0
M  V30 6 C 0.693407 -1.42413 -0.262764 0
M  V30 7 N 1.86056 -2.07035 -0.0930562 0
M  V30 8 C 2.97664 -1.42532 0.24461 0
M  V30 9 C 2.97242 -0.0638723 0.432732 0
M  V30 10 C 1.77311 0.59312 0.257446 0
M  V30 11 N 1.72853 2.0088 0.44413 0
M  V30 12 N -2.94496 0.9278 -0.851591 0
M  V30 13 H -2.76189 -1.91517 0.000932566 0
M  V30 14 H -1.61304 -1.21694 1.20448 0
M  V30 15 H -3.27975 -0.524222 0.966596 0
M  V30 16 H -1.82329 -0.655277 -1.58933 0
M  V30 17 H -0.190133 -2.01502 -0.544532 0
M  V30 18 H 3.89383 -1.99073 0.369972 0
M  V30 19 H 3.88794 0.453256 0.70799 0
M  V30 20 H 1.49144 2.37746 1.39132 0
M  V30 21 H 1.93728 2.61667 -0.383822 0
M  V30 22 H -2.6952 1.49832 -1.66991 0
M  V30 23 H -2.92365 1.49586 0.0463893 0
M  V30 END ATOM
M  V30 BEGIN BOND
M  V30 1 1 1 2
M  V30 2 1 2 3
M  V30 3 2 3 4
M  V30 4 1 3 5
M  V30 5 2 5 6
M  V30 6 1 6 7
M  V30 7 2 7 8
M  V30 8 1 8 9
M  V30 9 2 9 10
M  V30 10 1 10 11
M  V30 11 1 2 12
M  V30 12 1 10 5
M  V30 13 1 1 13
M  V30 14 1 1 14
M  V30 15 1 1 15
M  V30 16 1 2 16
M  V30 17 1 6 17
M  V30 18 1 8 18
M  V30 19 1 9 19
M  V30 20 1 11 20
M  V30 21 1 11 21
M  V30 22 1 12 22
M  V30 23 1 12 23
M  V30 END BOND
M  V30 END CTAB
M  END
