
     RDKit          3D

  0  0  0  0  0  0  0  0  0  0999 V3000
M  V30 BEGIN CTAB
M  V30 COUNTS 22 23 0 0 0
M  V30 BEGIN ATOM
M  V30 1 N -2.66567 1.56651 -0.615526 0
M  V30 2 C -1.5307 0.755295 -0.340621 0
M  V30 3 C -1.6559 -0.561491 0.0654939 0
M  V30 4 N -2.95576 -1.10467 0.207447 0
M  V30 5 C -0.531224 -1.30904 0.320544 0
M  V30 6 C 0.749327 -0.818477 0.194521 0
M  V30 7 N 2.05238 -1.39516 0.405551 0
M  V30 8 C 2.95513 -0.256321 0.64719 0
M  V30 9 C 2.33807 0.770253 -0.272007 0
M  V30 10 C 0.889755 0.48776 -0.208243 0
M  V30 11 C -0.253082 1.25435 -0.469457 0
M  V30 12 H -3.48042 1.68837 0.0186895 0
M  V30 13 H -2.67819 2.07591 -1.52232 0
M  V30 14 H -3.50001 -1.3246 -0.655338 0
M  V30 15 H -3.35298 -1.27803 1.15879 0
M  V30 16 H -0.621367 -2.34625 0.640619 0
M  V30 17 H 2.27274 -2.4087 0.384403 0
M  V30 18 H 2.82267 0.0521392 1.71786 0
M  V30 19 H 3.98254 -0.520879 0.397218 0
M  V30 20 H 2.58004 1.81261 0.0223433 0
M  V30 21 H 2.69886 0.574434 -1.31031 0
M  V30 22 H -0.116197 2.28598 -0.786843 0
M  V30 END ATOM
M  V30 BEGIN BOND
M  V30 1 1 1 2
M  V30 2 2 2 3
M  V30 3 1 3 4
M  V30 4 1 3 5
M  V30 5 2 5 6
M  V30 6 1 6 7
M  V30 7 1 7 8
M  V30 8 1 8 9
M  V30 9 1 9 10
M  V30 10 2 10 11
M  V30 11 1 11 2
M  V30 12 1 10 6
M  V30 13 1 1 12
M  V30 14 1 1 13
M  V30 15 1 4 14
M  V30 16 1 4 15
M  V30 17 1 5 16
M  V30 18 1 7 17
M  V30 19 1 8 18
M  V30 20 1 8 19
M  V30 21 1 9 20
M  V30 22 1 9 21
M  V30 23 1 11 22
M  V30 END BOND
M  V30 END CTAB
M  END
