
     RDKit          3D

  0  0  0  0  0  0  0  0  0  0999 V3000
M  V30 BEGIN CTAB
M  V30 COUNTS 66 67 0 0 0
M  V30 BEGIN ATOM
M  V30 1 O -1.9349 -2.69443 -0.0877609 0
M  V30 2 C -2.41546 -1.8175 0.671378 0
M  V30 3 C -2.17917 -1.91337 2.10381 0
M  V30 4 S -2.43165 -0.414318 3.01403 0
M  V30 5 C -1.097 0.75957 2.8062 0
M  V30 6 C -0.956309 1.33723 1.4269 0
M  V30 7 S 0.445244 2.52003 1.47234 0
M  V30 8 C 1.9867 1.55617 1.70761 0
M  V30 9 C 2.25731 0.736401 0.490668 0
M  V30 10 O 1.44122 0.854757 -0.484639 0
M  V30 11 N 3.35073 -0.149787 0.361622 0
M  V30 12 C 3.49762 -0.874666 -0.851791 0
M  V30 13 C 4.66887 -1.78967 -0.935505 0
M  V30 14 C 5.97599 -1.14225 -0.799723 0
M  V30 15 C 6.61037 -1.00341 0.420259 0
M  V30 16 C 7.84275 -0.391925 0.541185 0
M  V30 17 C 8.49372 0.108517 -0.562068 0
M  V30 18 C 7.86225 -0.0272919 -1.79032 0
M  V30 19 C 6.63135 -0.637855 -1.91241 0
M  V30 20 S 10.069 0.892268 -0.439133 0
M  V30 21 O 10.2437 1.45088 0.966072 0
M  V30 22 O 10.2255 1.95383 -1.47048 0
M  V30 23 N 11.3229 -0.279828 -0.637714 0
M  V30 24 N -3.18077 -0.76728 0.0845141 0
M  V30 25 C -3.38345 -0.720393 -1.34498 0
M  V30 26 C -4.22437 0.443858 -1.73324 0
M  V30 27 C -5.56846 0.392165 -1.12873 0
M  V30 28 C -6.58627 -0.364017 -1.73336 0
M  V30 29 C -7.85294 -0.408973 -1.20605 0
M  V30 30 C -8.18931 0.275822 -0.071643 0
M  V30 31 C -7.21848 1.02449 0.54299 0
M  V30 32 C -5.92617 1.07529 0.0122348 0
M  V30 33 S -9.81284 0.174586 0.542952 0
M  V30 34 O -10.4593 -1.14866 0.194611 0
M  V30 35 O -9.85674 0.386197 2.03962 0
M  V30 36 N -10.7215 1.45718 -0.204359 0
M  V30 37 H -1.13982 -2.35726 2.29205 0
M  V30 38 H -2.83644 -2.74646 2.52976 0
M  V30 39 H -0.11332 0.31697 3.13102 0
M  V30 40 H -1.24107 1.60365 3.5578 0
M  V30 41 H -0.630989 0.51494 0.727867 0
M  V30 42 H -1.87249 1.80539 1.04338 0
M  V30 43 H 1.89935 0.858753 2.55582 0
M  V30 44 H 2.78637 2.28754 1.82405 0
M  V30 45 H 4.01807 -0.258229 1.13912 0
M  V30 46 H 2.52984 -1.41184 -1.03919 0
M  V30 47 H 3.57863 -0.176457 -1.73745 0
M  V30 48 H 4.55271 -2.53319 -0.0900872 0
M  V30 49 H 4.6492 -2.43236 -1.8474 0
M  V30 50 H 6.12309 -1.38844 1.29917 0
M  V30 51 H 8.30374 -0.306416 1.52348 0
M  V30 52 H 8.40714 0.38142 -2.65037 0
M  V30 53 H 6.19401 -0.707939 -2.91504 0
M  V30 54 H 11.7287 -0.230586 -1.61402 0
M  V30 55 H 10.8828 -1.22379 -0.566792 0
M  V30 56 H -3.61477 -0.0192828 0.663405 0
M  V30 57 H -2.37328 -0.569949 -1.80533 0
M  V30 58 H -3.79931 -1.69584 -1.69313 0
M  V30 59 H -3.68976 1.39087 -1.50057 0
M  V30 60 H -4.35931 0.390288 -2.84424 0
M  V30 61 H -6.31031 -0.904213 -2.63232 0
M  V30 62 H -8.58918 -1.01856 -1.73344 0
M  V30 63 H -7.46975 1.57225 1.44238 0
M  V30 64 H -5.18695 1.6915 0.522776 0
M  V30 65 H -11.2667 1.04961 -0.993088 0
M  V30 66 H -10.0904 2.17818 -0.594706 0
M  V30 END ATOM
M  V30 BEGIN BOND
M  V30 1 2 1 2
M  V30 2 1 2 3
M  V30 3 1 3 4
M  V30 4 1 4 5
M  V30 5 1 5 6
M  V30 6 1 6 7
M  V30 7 1 7 8
M  V30 8 1 8 9
M  V30 9 2 9 10
M  V30 10 1 9 11
M  V30 11 1 11 12
M  V30 12 1 12 13
M  V30 13 1 13 14
M  V30 14 2 14 15
M  V30 15 1 15 16
M  V30 16 2 16 17
M  V30 17 1 17 18
M  V30 18 2 18 19
M  V30 19 1 17 20
M  V30 20 2 20 21
M  V30 21 2 20 22
M  V30 22 1 20 23
M  V30 23 1 2 24
M  V30 24 1 24 25
M  V30 25 1 25 26
M  V30 26 1 26 27
M  V30 27 2 27 28
M  V30 28 1 28 29
M  V30 29 2 29 30
M  V30 30 1 30 31
M  V30 31 2 31 32
M  V30 32 1 30 33
M  V30 33 2 33 34
M  V30 34 2 33 35
M  V30 35 1 33 36
M  V30 36 1 19 14
M  V30 37 1 32 27
M  V30 38 1 3 37
M  V30 39 1 3 38
M  V30 40 1 5 39
M  V30 41 1 5 40
M  V30 42 1 6 41
M  V30 43 1 6 42
M  V30 44 1 8 43
M  V30 45 1 8 44
M  V30 46 1 11 45
M  V30 47 1 12 46
M  V30 48 1 12 47
M  V30 49 1 13 48
M  V30 50 1 13 49
M  V30 51 1 15 50
M  V30 52 1 16 51
M  V30 53 1 18 52
M  V30 54 1 19 53
M  V30 55 1 23 54
M  V30 56 1 23 55
M  V30 57 1 24 56
M  V30 58 1 25 57
M  V30 59 1 25 58
M  V30 60 1 26 59
M  V30 61 1 26 60
M  V30 62 1 28 61
M  V30 63 1 29 62
M  V30 64 1 31 63
M  V30 65 1 32 64
M  V30 66 1 36 65
M  V30 67 1 36 66
M  V30 END BOND
M  V30 END CTAB
M  END
