
     RDKit          3D

  0  0  0  0  0  0  0  0  0  0999 V3000
M  V30 BEGIN CTAB
M  V30 COUNTS 39 40 0 0 0
M  V30 BEGIN ATOM
M  V30 1 O 0.795589 -0.968142 1.3049 0
M  V30 2 C 0.102306 -0.321783 0.485946 0
M  V30 3 N -1.08452 0.312089 0.709941 0
M  V30 4 C -2.24954 0.934291 0.929932 0
M  V30 5 C -2.73248 1.78451 -0.127758 0
M  V30 6 C -3.92322 2.42551 -0.0838318 0
M  V30 7 C -4.74806 2.28722 1.00809 0
M  V30 8 C -4.33918 1.4911 2.04688 0
M  V30 9 C -3.13348 0.841427 2.00284 0
M  V30 10 S -6.26746 3.11875 0.987378 0
M  V30 11 O -6.63146 3.63559 2.3333 0
M  V30 12 O -6.17715 4.28613 0.046895 0
M  V30 13 N -7.50705 2.06557 0.338752 0
M  V30 14 C 0.721872 -0.274703 -0.923678 0
M  V30 15 O 1.9641 -0.866667 -0.932507 0
M  V30 16 C 3.08835 -0.515677 -0.236499 0
M  V30 17 O 3.07755 0.460911 0.533416 0
M  V30 18 C 4.30854 -1.29488 -0.400783 0
M  V30 19 C 5.46204 -0.997794 0.300721 0
M  V30 20 C 6.63071 -1.75921 0.144373 0
M  V30 21 Cl 8.04603 -1.32066 1.06864 0
M  V30 22 C 6.63051 -2.81895 -0.722077 0
M  V30 23 C 5.50307 -3.13569 -1.42843 0
M  V30 24 C 4.35146 -2.36581 -1.25779 0
M  V30 25 N 3.21144 -2.71939 -2.00896 0
M  V30 26 Cl 5.54103 -4.47915 -2.52237 0
M  V30 27 H -0.884742 0.121112 2.04847 0
M  V30 28 H -2.11833 1.91386 -1.00535 0
M  V30 29 H -4.24882 3.06154 -0.918142 0
M  V30 30 H -5.00463 1.38814 2.91087 0
M  V30 31 H -2.90006 0.230634 2.85852 0
M  V30 32 H -7.87603 1.44362 1.10672 0
M  V30 33 H -6.99499 1.42826 -0.312215 0
M  V30 34 H 0.760623 0.757234 -1.28684 0
M  V30 35 H 0.0526569 -0.865283 -1.59861 0
M  V30 36 H 5.4977 -0.176006 0.987619 0
M  V30 37 H 7.51921 -3.43467 -0.871241 0
M  V30 38 H 2.59648 -3.52985 -1.77934 0
M  V30 39 H 2.95993 -2.1432 -2.84142 0
M  V30 END ATOM
M  V30 BEGIN BOND
M  V30 1 2 1 2
M  V30 2 1 2 3
M  V30 3 1 3 4
M  V30 4 2 4 5
M  V30 5 1 5 6
M  V30 6 2 6 7
M  V30 7 1 7 8
M  V30 8 2 8 9
M  V30 9 1 7 10
M  V30 10 2 10 11
M  V30 11 2 10 12
M  V30 12 1 10 13
M  V30 13 1 2 14
M  V30 14 1 14 15
M  V30 15 1 15 16
M  V30 16 2 16 17
M  V30 17 1 16 18
M  V30 18 2 18 19
M  V30 19 1 19 20
M  V30 20 1 20 21
M  V30 21 2 20 22
M  V30 22 1 22 23
M  V30 23 2 23 24
M  V30 24 1 24 25
M  V30 25 1 23 26
M  V30 26 1 9 4
M  V30 27 1 24 18
M  V30 28 1 3 27
M  V30 29 1 5 28
M  V30 30 1 6 29
M  V30 31 1 8 30
M  V30 32 1 9 31
M  V30 33 1 13 32
M  V30 34 1 13 33
M  V30 35 1 14 34
M  V30 36 1 14 35
M  V30 37 1 19 36
M  V30 38 1 22 37
M  V30 39 1 25 38
M  V30 40 1 25 39
M  V30 END BOND
M  V30 END CTAB
M  END
