
     RDKit          3D

  0  0  0  0  0  0  0  0  0  0999 V3000
M  V30 BEGIN CTAB
M  V30 COUNTS 35 36 0 0 0
M  V30 BEGIN ATOM
M  V30 1 N -4.48978 1.9433 0.457143 0
M  V30 2 C -3.64018 1.21835 -0.497495 0
M  V30 3 C -2.37168 0.90781 0.221112 0
M  V30 4 N -1.39989 0.187523 -0.563769 0
M  V30 5 C -1.81593 -1.1618 -0.867749 0
M  V30 6 C -1.46645 -2.12078 0.256975 0
M  V30 7 O -0.293292 -2.75777 -0.131232 0
M  V30 8 C 0.838288 -2.05038 0.168676 0
M  V30 9 C 0.914687 -0.675012 -0.43522 0 CFG=1
M  V30 10 C -0.12799 0.26065 0.0759049 0
M  V30 11 N 2.26877 -0.167666 -0.150219 0
M  V30 12 C 3.23155 -0.763363 0.592622 0
M  V30 13 C 4.34656 0.0153805 0.626325 0
M  V30 14 C 4.03296 1.13596 -0.137217 0
M  V30 15 N 2.79321 0.971242 -0.569257 0
M  V30 16 N 4.92342 2.22536 -0.371744 0
M  V30 17 H -5.15161 1.30602 0.933067 0
M  V30 18 H -5.031 2.70441 0.00589174 0
M  V30 19 H -3.53324 1.87525 -1.37497 0
M  V30 20 H -4.21743 0.285577 -0.746268 0
M  V30 21 H -1.89308 1.90367 0.460437 0
M  V30 22 H -2.60738 0.439254 1.18436 0
M  V30 23 H -2.90074 -1.24675 -1.04239 0
M  V30 24 H -1.31928 -1.45106 -1.81641 0
M  V30 25 H -2.27801 -2.85971 0.442755 0
M  V30 26 H -1.3291 -1.5832 1.22934 0
M  V30 27 H 1.70647 -2.62008 -0.236907 0
M  V30 28 H 1.03576 -2.00963 1.28116 0
M  V30 29 H 0.835364 -0.766295 -1.51871 0
M  V30 30 H 0.265005 1.30554 -0.112876 0
M  V30 31 H -0.207355 0.220215 1.20318 0
M  V30 32 H 3.0821 -1.73961 1.07865 0
M  V30 33 H 5.2794 -0.20621 1.14572 0
M  V30 34 H 4.68503 2.98519 -1.03579 0
M  V30 35 H 5.83484 2.28862 0.116704 0
M  V30 END ATOM
M  V30 BEGIN BOND
M  V30 1 1 1 2
M  V30 2 1 2 3
M  V30 3 1 3 4
M  V30 4 1 4 5
M  V30 5 1 5 6
M  V30 6 1 6 7
M  V30 7 1 7 8
M  V30 8 1 8 9
M  V30 9 1 9 10
M  V30 10 1 9 11
M  V30 11 1 11 12
M  V30 12 2 12 13
M  V30 13 1 13 14
M  V30 14 2 14 15
M  V30 15 1 14 16
M  V30 16 1 10 4
M  V30 17 1 15 11
M  V30 18 1 1 17
M  V30 19 1 1 18
M  V30 20 1 2 19
M  V30 21 1 2 20
M  V30 22 1 3 21
M  V30 23 1 3 22
M  V30 24 1 5 23
M  V30 25 1 5 24
M  V30 26 1 6 25
M  V30 27 1 6 26
M  V30 28 1 8 27
M  V30 29 1 8 28
M  V30 30 1 9 29 CFG=3
M  V30 31 1 10 30
M  V30 32 1 10 31
M  V30 33 1 12 32
M  V30 34 1 13 33
M  V30 35 1 16 34
M  V30 36 1 16 35
M  V30 END BOND
M  V30 END CTAB
M  END
