
     RDKit          3D

  0  0  0  0  0  0  0  0  0  0999 V3000
M  V30 BEGIN CTAB
M  V30 COUNTS 53 55 0 0 0
M  V30 BEGIN ATOM
M  V30 1 C -4.51907 -3.18921 0.803807 0
M  V30 2 O -5.29871 -2.02221 0.800314 0
M  V30 3 C -4.72189 -0.767951 0.651552 0
M  V30 4 C -3.35229 -0.604765 0.498851 0
M  V30 5 C -2.76747 0.637478 0.350833 0
M  V30 6 C -1.29581 0.703391 0.18782 0
M  V30 7 O -0.809399 -0.580209 -0.0548412 0
M  V30 8 C 0.544718 -0.854966 -0.256593 0
M  V30 9 C 1.4869 0.144337 -0.224779 0
M  V30 10 C 2.83626 -0.148258 -0.428577 0
M  V30 11 C 3.28781 -1.40962 -0.666001 0
M  V30 12 C 4.70326 -1.76817 -0.911314 0
M  V30 13 C 5.69585 -0.849885 -0.376546 0
M  V30 14 C 6.21087 -1.09047 0.875361 0
M  V30 15 N 7.08258 -0.243684 1.40241 0
M  V30 16 C 7.49512 0.851846 0.769866 0
M  V30 17 N 8.44288 1.75845 1.36845 0
M  V30 18 N 6.99472 1.09171 -0.457204 0
M  V30 19 C 6.10923 0.275336 -1.05004 0
M  V30 20 N 5.66571 0.590081 -2.37336 0
M  V30 21 C 2.30486 -2.41009 -0.692609 0
M  V30 22 C 0.97169 -2.14206 -0.493803 0
M  V30 23 C -3.55251 1.7811 0.351552 0
M  V30 24 C -4.91539 1.62037 0.503236 0
M  V30 25 O -5.71422 2.74864 0.505534 0
M  V30 26 C -5.16867 4.0495 0.359314 0
M  V30 27 C -5.49345 0.380695 0.650104 0
M  V30 28 O -6.86449 0.297699 0.796564 0
M  V30 29 C -7.65894 0.162534 -0.379664 0
M  V30 30 H -3.79048 -3.16858 1.66117 0
M  V30 31 H -5.14923 -4.09829 0.853604 0
M  V30 32 H -3.92363 -3.2106 -0.132484 0
M  V30 33 H -2.72807 -1.48846 0.496548 0
M  V30 34 H -1.12924 1.36052 -0.715902 0
M  V30 35 H -0.817727 1.21426 1.04799 0
M  V30 36 H 1.19826 1.17942 -0.0390838 0
M  V30 37 H 3.5576 0.675772 -0.37631 0
M  V30 38 H 4.82089 -2.81535 -0.501467 0
M  V30 39 H 4.81197 -1.91997 -2.0285 0
M  V30 40 H 5.88087 -1.99709 1.41931 0
M  V30 41 H 9.30148 1.93282 0.810416 0
M  V30 42 H 8.24566 2.18653 2.29301 0
M  V30 43 H 5.17151 1.49745 -2.54195 0
M  V30 44 H 5.79944 -0.0262899 -3.1889 0
M  V30 45 H 2.6481 -3.43217 -0.882082 0
M  V30 46 H 0.215315 -2.93573 -0.518309 0
M  V30 47 H -3.06592 2.72008 0.235969 0
M  V30 48 H -5.99327 4.76368 0.484142 0
M  V30 49 H -4.3755 4.17222 1.13772 0
M  V30 50 H -4.73685 4.12023 -0.664414 0
M  V30 51 H -8.39652 0.976371 -0.438759 0
M  V30 52 H -8.23178 -0.804846 -0.285401 0
M  V30 53 H -7.01305 0.0864027 -1.28453 0
M  V30 END ATOM
M  V30 BEGIN BOND
M  V30 1 1 1 2
M  V30 2 1 2 3
M  V30 3 2 3 4
M  V30 4 1 4 5
M  V30 5 1 5 6
M  V30 6 1 6 7
M  V30 7 1 7 8
M  V30 8 2 8 9
M  V30 9 1 9 10
M  V30 10 2 10 11
M  V30 11 1 11 12
M  V30 12 1 12 13
M  V30 13 2 13 14
M  V30 14 1 14 15
M  V30 15 2 15 16
M  V30 16 1 16 17
M  V30 17 1 16 18
M  V30 18 2 18 19
M  V30 19 1 19 20
M  V30 20 1 11 21
M  V30 21 2 21 22
M  V30 22 2 5 23
M  V30 23 1 23 24
M  V30 24 1 24 25
M  V30 25 1 25 26
M  V30 26 2 24 27
M  V30 27 1 27 28
M  V30 28 1 28 29
M  V30 29 1 27 3
M  V30 30 1 22 8
M  V30 31 1 19 13
M  V30 32 1 1 30
M  V30 33 1 1 31
M  V30 34 1 1 32
M  V30 35 1 4 33
M  V30 36 1 6 34
M  V30 37 1 6 35
M  V30 38 1 9 36
M  V30 39 1 10 37
M  V30 40 1 12 38
M  V30 41 1 12 39
M  V30 42 1 14 40
M  V30 43 1 17 41
M  V30 44 1 17 42
M  V30 45 1 20 43
M  V30 46 1 20 44
M  V30 47 1 21 45
M  V30 48 1 22 46
M  V30 49 1 23 47
M  V30 50 1 26 48
M  V30 51 1 26 49
M  V30 52 1 26 50
M  V30 53 1 29 51
M  V30 54 1 29 52
M  V30 55 1 29 53
M  V30 END BOND
M  V30 END CTAB
M  END
