
     RDKit          3D

  0  0  0  0  0  0  0  0  0  0999 V3000
M  V30 BEGIN CTAB
M  V30 COUNTS 12 11 0 0 0
M  V30 BEGIN ATOM
M  V30 1 H -1.65273 1.51456 0.209819 0 MASS=2
M  V30 2 N -1.22452 0.830823 -0.413272 0
M  V30 3 H -0.674067 1.18259 -1.19791 0 MASS=2
M  V30 4 C -0.862956 -0.422563 0.123725 0
M  V30 5 C 0.602049 -0.676708 -0.167302 0
M  V30 6 N 1.47885 0.283084 0.380192 0
M  V30 7 H 1.68936 0.232997 1.37058 0 MASS=2
M  V30 8 H 1.59594 1.16218 -0.104559 0 MASS=2
M  V30 9 H -1.43398 -1.24427 -0.374582 0
M  V30 10 H -1.10217 -0.468721 1.18718 0
M  V30 11 H 0.714533 -0.711965 -1.27266 0
M  V30 12 H 0.869684 -1.682 0.258781 0
M  V30 END ATOM
M  V30 BEGIN BOND
M  V30 1 1 1 2
M  V30 2 1 2 3
M  V30 3 1 2 4
M  V30 4 1 4 5
M  V30 5 1 5 6
M  V30 6 1 6 7
M  V30 7 1 6 8
M  V30 8 1 4 9
M  V30 9 1 4 10
M  V30 10 1 5 11
M  V30 11 1 5 12
M  V30 END BOND
M  V30 END CTAB
M  END
