
     RDKit          3D

  0  0  0  0  0  0  0  0  0  0999 V3000
M  V30 BEGIN CTAB
M  V30 COUNTS 20 20 0 0 0
M  V30 BEGIN ATOM
M  V30 1 N 3.84015 0.0784379 0.329594 0
M  V30 2 C 2.43509 -0.129485 0.560504 0
M  V30 3 N 1.84865 -0.681446 1.64755 0
M  V30 4 O 0.560435 -0.709222 1.47708 0
M  V30 5 C 0.241149 -0.19697 0.317844 0
M  V30 6 N 1.40577 0.17138 -0.271561 0
M  V30 7 C -1.12909 -0.0323144 -0.277827 0
M  V30 8 N -0.992239 -0.218731 -1.7071 0
M  V30 9 C -1.6263 1.32743 0.0568395 0
M  V30 10 C -2.03221 -1.14541 0.214771 0
M  V30 11 H 4.47668 -0.683137 0.0462126 0
M  V30 12 H 4.269 1.04752 0.451427 0
M  V30 13 H 0.012293 -0.261849 -1.96441 0
M  V30 14 H -1.41714 0.572279 -2.25063 0
M  V30 15 H -1.3972 2.039 -0.783516 0
M  V30 16 H -2.71199 1.31985 0.274357 0
M  V30 17 H -1.13736 1.76932 0.953642 0
M  V30 18 H -1.60934 -2.0782 -0.24934 0
M  V30 19 H -3.04637 -0.993793 -0.152279 0
M  V30 20 H -1.98999 -1.19466 1.32684 0
M  V30 END ATOM
M  V30 BEGIN BOND
M  V30 1 1 1 2
M  V30 2 2 2 3
M  V30 3 1 3 4
M  V30 4 1 4 5
M  V30 5 2 5 6
M  V30 6 1 5 7
M  V30 7 1 7 8
M  V30 8 1 7 9
M  V30 9 1 7 10
M  V30 10 1 6 2
M  V30 11 1 1 11
M  V30 12 1 1 12
M  V30 13 1 8 13
M  V30 14 1 8 14
M  V30 15 1 9 15
M  V30 16 1 9 16
M  V30 17 1 9 17
M  V30 18 1 10 18
M  V30 19 1 10 19
M  V30 20 1 10 20
M  V30 END BOND
M  V30 END CTAB
M  END
