
     RDKit          3D

  0  0  0  0  0  0  0  0  0  0999 V3000
M  V30 BEGIN CTAB
M  V30 COUNTS 20 20 0 0 0
M  V30 BEGIN ATOM
M  V30 1 Cl -0.223054 3.80039 0.535732 0
M  V30 2 C -0.364608 2.08008 0.293406 0
M  V30 3 C 0.775359 1.3259 0.159016 0
M  V30 4 C 0.697546 -0.0349794 -0.0335167 0
M  V30 5 O 1.7857 -0.844922 -0.17466 0
M  V30 6 C 3.12009 -0.496088 -0.156071 0
M  V30 7 F 3.51104 0.392965 -1.11551 0
M  V30 8 F 3.86677 -1.66352 -0.369019 0
M  V30 9 F 3.44003 -0.0609353 1.12802 0
M  V30 10 C -0.555011 -0.653613 -0.0925462 0
M  V30 11 C -1.6931 0.101602 0.0419471 0
M  V30 12 C -1.60997 1.457 0.233569 0
M  V30 13 N -2.95867 -0.511955 -0.016049 0
M  V30 14 N -0.688649 -2.0556 -0.289637 0
M  V30 15 H 1.75333 1.76126 0.19829 0
M  V30 16 H -2.47827 2.10022 0.345772 0
M  V30 17 H -3.39039 -0.807618 0.90164 0
M  V30 18 H -3.50542 -0.701232 -0.864293 0
M  V30 19 H -1.19437 -2.65599 0.39869 0
M  V30 20 H -0.288355 -2.53298 -1.12478 0
M  V30 END ATOM
M  V30 BEGIN BOND
M  V30 1 1 1 2
M  V30 2 2 2 3
M  V30 3 1 3 4
M  V30 4 1 4 5
M  V30 5 1 5 6
M  V30 6 1 6 7
M  V30 7 1 6 8
M  V30 8 1 6 9
M  V30 9 2 4 10
M  V30 10 1 10 11
M  V30 11 2 11 12
M  V30 12 1 11 13
M  V30 13 1 10 14
M  V30 14 1 12 2
M  V30 15 1 3 15
M  V30 16 1 12 16
M  V30 17 1 13 17
M  V30 18 1 13 18
M  V30 19 1 14 19
M  V30 20 1 14 20
M  V30 END BOND
M  V30 END CTAB
M  END
