
     RDKit          3D

  0  0  0  0  0  0  0  0  0  0999 V3000
M  V30 BEGIN CTAB
M  V30 COUNTS 24 23 0 0 0
M  V30 BEGIN ATOM
M  V30 1 N 3.06883 1.60994 -0.029922 0
M  V30 2 N 1.929 1.07733 -0.617198 0
M  V30 3 C 1.72857 -0.190931 -0.591993 0
M  V30 4 N 0.557507 -0.708786 -1.19835 0
M  V30 5 C -0.550874 -1.10193 -0.401625 0
M  V30 6 C -1.28042 0.00916658 0.298102 0
M  V30 7 O -0.457384 0.719023 1.18035 0
M  V30 8 C -1.95405 0.965755 -0.648907 0
M  V30 9 C -2.37388 -0.620306 1.13712 0
M  V30 10 N 2.65746 -1.09786 0.0305336 0
M  V30 11 H 3.15765 1.55908 0.996296 0
M  V30 12 H 3.81166 2.04895 -0.614786 0
M  V30 13 H 0.540733 -0.789443 -2.23429 0
M  V30 14 H -1.31728 -1.66819 -0.989867 0
M  V30 15 H -0.251 -1.81973 0.421357 0
M  V30 16 H -0.813446 1.65004 1.29463 0
M  V30 17 H -2.68706 1.54486 -0.0461012 0
M  V30 18 H -2.51975 0.385634 -1.38318 0
M  V30 19 H -1.24383 1.69782 -1.09486 0
M  V30 20 H -3.32602 -0.0500653 1.07283 0
M  V30 21 H -2.59132 -1.65149 0.778342 0
M  V30 22 H -2.06995 -0.686087 2.20546 0
M  V30 23 H 2.94783 -1.02511 1.01433 0
M  V30 24 H 3.03703 -1.85767 -0.578263 0
M  V30 END ATOM
M  V30 BEGIN BOND
M  V30 1 1 1 2
M  V30 2 2 2 3 CFG=2
M  V30 3 1 3 4
M  V30 4 1 4 5
M  V30 5 1 5 6
M  V30 6 1 6 7
M  V30 7 1 6 8
M  V30 8 1 6 9
M  V30 9 1 3 10
M  V30 10 1 1 11
M  V30 11 1 1 12
M  V30 12 1 4 13
M  V30 13 1 5 14
M  V30 14 1 5 15
M  V30 15 1 7 16
M  V30 16 1 8 17
M  V30 17 1 8 18
M  V30 18 1 8 19
M  V30 19 1 9 20
M  V30 20 1 9 21
M  V30 21 1 9 22
M  V30 22 1 10 23
M  V30 23 1 10 24
M  V30 END BOND
M  V30 END CTAB
M  END
