
     RDKit          3D

  0  0  0  0  0  0  0  0  0  0999 V3000
M  V30 BEGIN CTAB
M  V30 COUNTS 96 101 0 0 0
M  V30 BEGIN ATOM
M  V30 1 O -4.67309 2.58401 -0.0469386 0
M  V30 2 C -5.03556 1.44381 0.253185 0
M  V30 3 C -4.66467 0.938003 1.74409 0
M  V30 4 S -3.58641 -0.607406 1.3933 0
M  V30 5 C -2.36238 -0.139655 0.145709 0
M  V30 6 N -2.63917 -0.378979 -1.12773 0
M  V30 7 C -1.93128 0.115053 -2.16541 0
M  V30 8 C -2.14836 -0.249939 -3.46572 0
M  V30 9 C -1.27759 0.255402 -4.40146 0
M  V30 10 C -0.241036 1.10685 -4.14597 0
M  V30 11 C -0.0392748 1.46463 -2.7959 0
M  V30 12 C -0.865781 0.9583 -1.83552 0
M  V30 13 C -0.586901 1.22797 -0.49882 0
M  V30 14 O 0.375643 2.04229 -0.280645 0
M  V30 15 N -1.33376 0.645753 0.500081 0
M  V30 16 C -0.818575 0.687763 1.89909 0
M  V30 17 C -0.0280255 -0.581795 2.32406 0
M  V30 18 N 0.953247 -1.00207 1.31016 0
M  V30 19 C 2.03856 -0.232789 1.12595 0
M  V30 20 S 2.80867 0.644931 2.55263 0
M  V30 21 C 4.29253 -0.419981 3.0487 0
M  V30 22 C 5.13457 -0.473845 1.87548 0
M  V30 23 O 5.0105 0.494955 1.07625 0
M  V30 24 N 6.0748 -1.48419 1.43724 0
M  V30 25 C 6.39232 -1.42555 0.105843 0
M  V30 26 C 7.57984 -1.84042 -0.592154 0
M  V30 27 C 8.56815 -0.762324 -0.27471 0
M  V30 28 C 9.60347 -0.877735 0.500133 0
M  V30 29 C 10.4286 0.202112 0.815784 0
M  V30 30 C 10.0725 1.45846 0.244519 0
M  V30 31 C 9.01134 1.63907 -0.564884 0
M  V30 32 C 8.16976 0.507304 -0.897552 0
M  V30 33 S 11.1622 2.80087 0.598838 0
M  V30 34 O 11.2874 3.05412 2.05618 0
M  V30 35 O 10.6728 3.99731 -0.135271 0
M  V30 36 N 12.7143 2.38929 0.00663966 0
M  V30 37 N 2.74775 -0.43059 0.0301071 0
M  V30 38 C 2.5317 -1.36255 -0.898639 0
M  V30 39 C 1.42459 -2.16469 -0.69504 0
M  V30 40 C 0.627825 -1.98177 0.392404 0
M  V30 41 O -0.390725 -2.69744 0.577233 0
M  V30 42 C 1.17031 -3.23672 -1.6017 0
M  V30 43 C 2.0856 -3.45152 -2.68996 0
M  V30 44 C 3.20691 -2.58687 -2.76134 0
M  V30 45 C 3.3782 -1.62333 -1.93532 0
M  V30 46 N -5.71991 0.522373 -0.423381 0
M  V30 47 C -6.4007 -0.381304 -1.10811 0
M  V30 48 C -7.37993 -1.19702 -0.146568 0
M  V30 49 C -8.61184 -0.34627 0.00150295 0
M  V30 50 C -8.62521 0.806108 0.692843 0
M  V30 51 C -9.88085 1.47078 0.870745 0
M  V30 52 C -10.9994 0.989052 0.386705 0
M  V30 53 C -10.9996 -0.207247 -0.292786 0
M  V30 54 C -9.76128 -0.90329 -0.505065 0
M  V30 55 S -12.5505 1.91235 0.523512 0
M  V30 56 O -12.5512 2.91471 -0.572387 0
M  V30 57 O -13.6465 0.877072 0.257775 0
M  V30 58 N -12.6577 2.60585 2.0417 0
M  V30 59 H -5.61881 0.485173 2.13079 0
M  V30 60 H -4.09665 1.57063 2.31406 0
M  V30 61 H -2.94823 -0.905227 -3.6991 0
M  V30 62 H -1.36954 -0.0659966 -5.43963 0
M  V30 63 H 0.398451 1.52825 -4.92232 0
M  V30 64 H 0.789104 2.08682 -2.50037 0
M  V30 65 H -0.129297 1.52771 1.96275 0
M  V30 66 H -1.69452 0.770446 2.50672 0
M  V30 67 H -0.827986 -1.43085 2.31227 0
M  V30 68 H 0.468853 -0.439682 3.27349 0
M  V30 69 H 3.91806 -1.38855 3.41008 0
M  V30 70 H 4.66216 0.081627 3.9121 0
M  V30 71 H 6.42796 -2.16799 2.1273 0
M  V30 72 H 5.95076 -0.487361 -0.325042 0
M  V30 73 H 5.55512 -2.24688 -0.31127 0
M  V30 74 H 7.46128 -1.83863 -1.70401 0
M  V30 75 H 7.98545 -2.87119 -0.422091 0
M  V30 76 H 9.84172 -1.88025 0.957758 0
M  V30 77 H 11.2853 0.0299946 1.4078 0
M  V30 78 H 8.75541 2.60631 -0.859368 0
M  V30 79 H 7.34897 0.633266 -1.44992 0
M  V30 80 H 12.7186 1.32822 -0.297202 0
M  V30 81 H 13.0233 2.91882 -0.760697 0
M  V30 82 H 0.425995 -3.94349 -1.37257 0
M  V30 83 H 1.92709 -4.22901 -3.40464 0
M  V30 84 H 3.97182 -2.84701 -3.5483 0
M  V30 85 H 4.2077 -0.919643 -2.01879 0
M  V30 86 H -6.66005 1.53953 -0.884009 0
M  V30 87 H -5.53436 -1.31536 -1.163 0
M  V30 88 H -6.88303 -0.395591 -2.0249 0
M  V30 89 H -6.93745 -1.42406 0.806696 0
M  V30 90 H -7.57338 -2.1311 -0.71865 0
M  V30 91 H -7.77867 1.22185 1.17175 0
M  V30 92 H -9.91428 2.39208 1.51172 0
M  V30 93 H -11.874 -0.724529 -0.56908 0
M  V30 94 H -9.8815 -1.86223 -0.99497 0
M  V30 95 H -12.6573 1.83046 2.76831 0
M  V30 96 H -11.861 3.25415 2.23499 0
M  V30 END ATOM
M  V30 BEGIN BOND
M  V30 1 2 1 2
M  V30 2 1 2 3
M  V30 3 1 3 4
M  V30 4 1 4 5
M  V30 5 2 5 6
M  V30 6 1 6 7
M  V30 7 2 7 8
M  V30 8 1 8 9
M  V30 9 2 9 10
M  V30 10 1 10 11
M  V30 11 2 11 12
M  V30 12 1 12 13
M  V30 13 2 13 14
M  V30 14 1 13 15
M  V30 15 1 15 16
M  V30 16 1 16 17
M  V30 17 1 17 18
M  V30 18 1 18 19
M  V30 19 1 19 20
M  V30 20 1 20 21
M  V30 21 1 21 22
M  V30 22 2 22 23
M  V30 23 1 22 24
M  V30 24 1 24 25
M  V30 25 1 25 26
M  V30 26 1 26 27
M  V30 27 2 27 28
M  V30 28 1 28 29
M  V30 29 2 29 30
M  V30 30 1 30 31
M  V30 31 2 31 32
M  V30 32 1 30 33
M  V30 33 2 33 34
M  V30 34 2 33 35
M  V30 35 1 33 36
M  V30 36 2 19 37
M  V30 37 1 37 38
M  V30 38 2 38 39
M  V30 39 1 39 40
M  V30 40 2 40 41
M  V30 41 1 39 42
M  V30 42 2 42 43
M  V30 43 1 43 44
M  V30 44 2 44 45
M  V30 45 1 2 46
M  V30 46 1 46 47
M  V30 47 1 47 48
M  V30 48 1 48 49
M  V30 49 2 49 50
M  V30 50 1 50 51
M  V30 51 2 51 52
M  V30 52 1 52 53
M  V30 53 2 53 54
M  V30 54 1 52 55
M  V30 55 2 55 56
M  V30 56 2 55 57
M  V30 57 1 55 58
M  V30 58 1 15 5
M  V30 59 1 40 18
M  V30 60 1 54 49
M  V30 61 1 12 7
M  V30 62 1 32 27
M  V30 63 1 45 38
M  V30 64 1 3 59
M  V30 65 1 3 60
M  V30 66 1 8 61
M  V30 67 1 9 62
M  V30 68 1 10 63
M  V30 69 1 11 64
M  V30 70 1 16 65
M  V30 71 1 16 66
M  V30 72 1 17 67
M  V30 73 1 17 68
M  V30 74 1 21 69
M  V30 75 1 21 70
M  V30 76 1 24 71
M  V30 77 1 25 72
M  V30 78 1 25 73
M  V30 79 1 26 74
M  V30 80 1 26 75
M  V30 81 1 28 76
M  V30 82 1 29 77
M  V30 83 1 31 78
M  V30 84 1 32 79
M  V30 85 1 36 80
M  V30 86 1 36 81
M  V30 87 1 42 82
M  V30 88 1 43 83
M  V30 89 1 44 84
M  V30 90 1 45 85
M  V30 91 1 46 86
M  V30 92 1 47 87
M  V30 93 1 47 88
M  V30 94 1 48 89
M  V30 95 1 48 90
M  V30 96 1 50 91
M  V30 97 1 51 92
M  V30 98 1 53 93
M  V30 99 1 54 94
M  V30 100 1 58 95
M  V30 101 1 58 96
M  V30 END BOND
M  V30 END CTAB
M  END
