
     RDKit          3D

  0  0  0  0  0  0  0  0  0  0999 V3000
M  V30 BEGIN CTAB
M  V30 COUNTS 21 21 0 0 0
M  V30 BEGIN ATOM
M  V30 1 N -3.36858 0.754636 0.208902 0
M  V30 2 C -2.7401 -0.342179 -0.509895 0
M  V30 3 C -1.27065 -0.309414 -0.217346 0
M  V30 4 C -0.724063 0.656612 0.614647 0
M  V30 5 C 0.625932 0.666919 0.868371 0
M  V30 6 C 1.49315 -0.270019 0.315961 0
M  V30 7 C 0.917184 -1.22144 -0.510309 0
M  V30 8 C -0.423789 -1.24474 -0.772236 0
M  V30 9 F 1.73962 -2.16425 -1.07531 0
M  V30 10 C 2.92475 -0.255514 0.587711 0
M  V30 11 S 3.67412 -1.68265 0.848092 0
M  V30 12 N 3.69958 0.936071 0.637309 0
M  V30 13 H -3.0199 1.67396 -0.0783821 0
M  V30 14 H -4.40051 0.673182 0.00188718 0
M  V30 15 H -3.20182 -1.29374 -0.224078 0
M  V30 16 H -2.84437 -0.208594 -1.6168 0
M  V30 17 H -1.34816 1.4137 1.07498 0
M  V30 18 H 1.05016 1.42043 1.51695 0
M  V30 19 H -0.822657 -2.00709 -1.4229 0
M  V30 20 H 3.36483 1.82042 1.07873 0
M  V30 21 H 4.67525 0.983701 0.219158 0
M  V30 END ATOM
M  V30 BEGIN BOND
M  V30 1 1 1 2
M  V30 2 1 2 3
M  V30 3 2 3 4
M  V30 4 1 4 5
M  V30 5 2 5 6
M  V30 6 1 6 7
M  V30 7 2 7 8
M  V30 8 1 7 9
M  V30 9 1 6 10
M  V30 10 2 10 11
M  V30 11 1 10 12
M  V30 12 1 8 3
M  V30 13 1 1 13
M  V30 14 1 1 14
M  V30 15 1 2 15
M  V30 16 1 2 16
M  V30 17 1 4 17
M  V30 18 1 5 18
M  V30 19 1 8 19
M  V30 20 1 12 20
M  V30 21 1 12 21
M  V30 END BOND
M  V30 END CTAB
M  END
