
     RDKit          3D

  0  0  0  0  0  0  0  0  0  0999 V3000
M  V30 BEGIN CTAB
M  V30 COUNTS 20 20 0 0 0
M  V30 BEGIN ATOM
M  V30 1 N -2.62838 0.838669 0.10964 0
M  V30 2 C -1.28899 0.360059 0.0555259 0
M  V30 3 C -0.226423 1.27059 -0.0233023 0
M  V30 4 O -0.541651 2.60799 -0.0446332 0
M  V30 5 C 1.07986 0.829586 -0.0768056 0
M  V30 6 O 2.15463 1.71264 -0.155486 0
M  V30 7 C 1.39688 -0.524265 -0.0551068 0
M  V30 8 N 2.75546 -0.943512 -0.111858 0
M  V30 9 C 0.347384 -1.40738 0.0223002 0
M  V30 10 O 0.680691 -2.76856 0.0433793 0
M  V30 11 C -0.957942 -0.972869 0.075937 0
M  V30 12 O -1.99748 -1.88321 0.153601 0
M  V30 13 H -2.89181 1.70835 0.625625 0
M  V30 14 H -3.40307 0.331276 -0.370042 0
M  V30 15 H 0.0707653 3.39043 -0.0972334 0
M  V30 16 H 1.94921 2.69653 -0.17252 0
M  V30 17 H 3.07332 -1.86234 0.262563 0
M  V30 18 H 3.48118 -0.331278 -0.537162 0
M  V30 19 H -0.0913354 -3.4151 0.10023 0
M  V30 20 H -2.9623 -1.63763 0.195347 0
M  V30 END ATOM
M  V30 BEGIN BOND
M  V30 1 1 1 2
M  V30 2 2 2 3
M  V30 3 1 3 4
M  V30 4 1 3 5
M  V30 5 1 5 6
M  V30 6 2 5 7
M  V30 7 1 7 8
M  V30 8 1 7 9
M  V30 9 1 9 10
M  V30 10 2 9 11
M  V30 11 1 11 12
M  V30 12 1 11 2
M  V30 13 1 1 13
M  V30 14 1 1 14
M  V30 15 1 4 15
M  V30 16 1 6 16
M  V30 17 1 8 17
M  V30 18 1 8 18
M  V30 19 1 10 19
M  V30 20 1 12 20
M  V30 END BOND
M  V30 END CTAB
M  END
