
     RDKit          3D

  0  0  0  0  0  0  0  0  0  0999 V3000
M  V30 BEGIN CTAB
M  V30 COUNTS 34 34 0 0 0
M  V30 BEGIN ATOM
M  V30 1 N 4.83414 0.840322 0.87772 0
M  V30 2 N 3.46888 0.738622 0.735462 0
M  V30 3 C 2.89082 0.027398 -0.171249 0
M  V30 4 N 1.47719 -0.05809 -0.293439 0
M  V30 5 C 0.902597 0.134142 -1.59053 0
M  V30 6 C -0.579804 0.176035 -1.63126 0
M  V30 7 C -1.31408 -0.548714 -0.583603 0
M  V30 8 C -0.456673 -1.18413 0.481746 0
M  V30 9 C 0.710311 -0.33034 0.882084 0
M  V30 10 C -2.38085 0.304139 0.117189 0
M  V30 11 O -1.83852 1.40837 0.730362 0
M  V30 12 C -3.42958 0.77839 -0.85867 0
M  V30 13 C -3.08957 -0.531814 1.16214 0
M  V30 14 N 3.70589 -0.693163 -1.07611 0
M  V30 15 H 5.55279 0.254413 0.42688 0
M  V30 16 H 5.19713 1.60236 1.51983 0
M  V30 17 H 1.36399 1.07161 -2.00691 0
M  V30 18 H 1.31188 -0.687371 -2.23893 0
M  V30 19 H -0.901834 -0.160117 -2.66011 0
M  V30 20 H -0.879882 1.25799 -1.60546 0
M  V30 21 H -1.89699 -1.37929 -1.03975 0
M  V30 22 H -0.0320902 -2.12232 0.0391894 0
M  V30 23 H -1.08572 -1.43139 1.34637 0
M  V30 24 H 0.426635 0.625115 1.34241 0
M  V30 25 H 1.32491 -0.915267 1.58962 0
M  V30 26 H -2.32572 2.2404 0.589779 0
M  V30 27 H -3.08318 1.72982 -1.34085 0
M  V30 28 H -3.67393 -0.00717117 -1.57875 0
M  V30 29 H -4.3508 1.03671 -0.301979 0
M  V30 30 H -4.15762 -0.214404 1.28998 0
M  V30 31 H -3.11704 -1.60261 0.912724 0
M  V30 32 H -2.63307 -0.391932 2.17519 0
M  V30 33 H 3.48701 -1.68094 -1.37778 0
M  V30 34 H 4.57279 -0.286774 -1.49777 0
M  V30 END ATOM
M  V30 BEGIN BOND
M  V30 1 1 1 2
M  V30 2 2 2 3 CFG=2
M  V30 3 1 3 4
M  V30 4 1 4 5
M  V30 5 1 5 6
M  V30 6 1 6 7
M  V30 7 1 7 8
M  V30 8 1 8 9
M  V30 9 1 7 10
M  V30 10 1 10 11
M  V30 11 1 10 12
M  V30 12 1 10 13
M  V30 13 1 3 14
M  V30 14 1 9 4
M  V30 15 1 1 15
M  V30 16 1 1 16
M  V30 17 1 5 17
M  V30 18 1 5 18
M  V30 19 1 6 19
M  V30 20 1 6 20
M  V30 21 1 7 21
M  V30 22 1 8 22
M  V30 23 1 8 23
M  V30 24 1 9 24
M  V30 25 1 9 25
M  V30 26 1 11 26
M  V30 27 1 12 27
M  V30 28 1 12 28
M  V30 29 1 12 29
M  V30 30 1 13 30
M  V30 31 1 13 31
M  V30 32 1 13 32
M  V30 33 1 14 33
M  V30 34 1 14 34
M  V30 END BOND
M  V30 END CTAB
M  END
