
     RDKit          3D

  0  0  0  0  0  0  0  0  0  0999 V3000
M  V30 BEGIN CTAB
M  V30 COUNTS 22 22 0 0 0
M  V30 BEGIN ATOM
M  V30 1 O 5.5784 -1.02611 0.450656 0
M  V30 2 C 4.23187 -0.666574 0.624561 0
M  V30 3 O 3.56998 -1.3918 1.40388 0
M  V30 4 C 3.64309 0.459953 -0.0449011 0
M  V30 5 C 2.39242 0.778659 0.12888 0
M  V30 6 S 1.36114 -0.170329 1.20434 0
M  V30 7 C -0.353664 -0.141902 0.731227 0
M  V30 8 N -0.895158 -1.03012 -0.113197 0
M  V30 9 C -2.19517 -0.975648 -0.445975 0
M  V30 10 N -2.7581 -1.9286 -1.34745 0
M  V30 11 C -3.00458 0.0175551 0.090191 0
M  V30 12 C -2.46183 0.945652 0.965876 0
M  V30 13 N -1.15574 0.809098 1.23678 0
M  V30 14 N -3.26222 1.97602 1.53337 0
M  V30 15 H 6.28567 -0.610789 1.05346 0
M  V30 16 H 4.26792 1.05788 -0.714048 0
M  V30 17 H 1.96432 1.62421 -0.378597 0
M  V30 18 H -3.62825 -2.41293 -1.03649 0
M  V30 19 H -2.35112 -2.14747 -2.26001 0
M  V30 20 H -4.03994 0.0911147 -0.151662 0
M  V30 21 H -4.21874 1.76863 1.94758 0
M  V30 22 H -2.9703 2.97349 1.57865 0
M  V30 END ATOM
M  V30 BEGIN BOND
M  V30 1 1 1 2
M  V30 2 2 2 3
M  V30 3 1 2 4
M  V30 4 2 4 5 CFG=2
M  V30 5 1 5 6
M  V30 6 1 6 7
M  V30 7 2 7 8
M  V30 8 1 8 9
M  V30 9 1 9 10
M  V30 10 2 9 11
M  V30 11 1 11 12
M  V30 12 2 12 13
M  V30 13 1 12 14
M  V30 14 1 13 7
M  V30 15 1 1 15
M  V30 16 1 4 16
M  V30 17 1 5 17
M  V30 18 1 10 18
M  V30 19 1 10 19
M  V30 20 1 11 20
M  V30 21 1 14 21
M  V30 22 1 14 22
M  V30 END BOND
M  V30 END CTAB
M  END
