
     RDKit          3D

  0  0  0  0  0  0  0  0  0  0999 V3000
M  V30 BEGIN CTAB
M  V30 COUNTS 25 26 0 0 0
M  V30 BEGIN ATOM
M  V30 1 C -3.79993 0.804944 0.696153 0
M  V30 2 C -2.51992 1.10166 -0.0644682 0
M  V30 3 S -2.16331 2.38068 -1.11278 0
M  V30 4 C -0.57523 1.98064 -1.51581 0
M  V30 5 C -0.329579 0.800328 -0.793944 0
M  V30 6 C -1.35873 0.357905 -0.044797 0
M  V30 7 C -1.37172 -0.941048 0.766625 0
M  V30 8 C 1.00928 0.183481 -1.00851 0
M  V30 9 N 1.68715 0.157307 -2.1916 0
M  V30 10 N 2.87228 -0.382284 -2.03914 0
M  V30 11 C 3.0202 -0.728972 -0.75882 0
M  V30 12 N 1.83875 -0.359704 -0.144771 0
M  V30 13 N 1.68845 -0.539182 1.25652 0
M  V30 14 N 4.12182 -1.3423 -0.117158 0
M  V30 15 H -3.53823 0.777475 1.76774 0
M  V30 16 H -4.11327 -0.18897 0.383426 0
M  V30 17 H -4.5179 1.61664 0.463812 0
M  V30 18 H 0.138176 2.50236 -2.18672 0
M  V30 19 H -2.4301 -1.37196 0.750554 0
M  V30 20 H -1.19223 -0.730949 1.81547 0
M  V30 21 H -0.78559 -1.72955 0.28467 0
M  V30 22 H 1.44186 0.256615 1.86679 0
M  V30 23 H 1.82358 -1.46947 1.68756 0
M  V30 24 H 4.2434 -1.2531 0.904395 0
M  V30 25 H 4.81077 -1.88254 -0.6652 0
M  V30 END ATOM
M  V30 BEGIN BOND
M  V30 1 1 1 2
M  V30 2 1 2 3
M  V30 3 1 3 4
M  V30 4 2 4 5
M  V30 5 1 5 6
M  V30 6 1 6 7
M  V30 7 1 5 8
M  V30 8 2 8 9
M  V30 9 1 9 10
M  V30 10 2 10 11
M  V30 11 1 11 12
M  V30 12 1 12 13
M  V30 13 1 11 14
M  V30 14 2 6 2
M  V30 15 1 12 8
M  V30 16 1 1 15
M  V30 17 1 1 16
M  V30 18 1 1 17
M  V30 19 1 4 18
M  V30 20 1 7 19
M  V30 21 1 7 20
M  V30 22 1 7 21
M  V30 23 1 13 22
M  V30 24 1 13 23
M  V30 25 1 14 24
M  V30 26 1 14 25
M  V30 END BOND
M  V30 END CTAB
M  END
