
     RDKit          3D

  0  0  0  0  0  0  0  0  0  0999 V3000
M  V30 BEGIN CTAB
M  V30 COUNTS 37 38 0 0 0
M  V30 BEGIN ATOM
M  V30 1 N 6.41595 -2.18008 0.432204 0
M  V30 2 N 5.45859 -1.19431 0.288071 0
M  V30 3 C 4.10084 -1.4836 0.395764 0
M  V30 4 O 3.75872 -2.67868 0.631457 0
M  V30 5 C 3.09248 -0.466515 0.247193 0
M  V30 6 C 3.37988 0.809568 -0.15873 0
M  V30 7 C 2.3455 1.721 -0.268546 0
M  V30 8 C 1.0515 1.34749 0.0259561 0
M  V30 9 C 0.766405 0.0621063 0.434099 0
M  V30 10 C 1.78033 -0.840165 0.544316 0
M  V30 11 N -0.522736 -0.250516 0.710497 0
M  V30 12 C -1.53439 0.620469 0.608896 0
M  V30 13 N -1.25841 1.87249 0.211599 0
M  V30 14 C 0.0079051 2.25495 -0.0814112 0
M  V30 15 O 0.247879 3.42736 -0.450766 0
M  V30 16 N -2.32097 2.774 0.108714 0
M  V30 17 C -2.9299 0.242641 0.919315 0
M  V30 18 C -3.64871 -0.284754 -0.317007 0
M  V30 19 C -5.07019 -0.659164 0.0429426 0
M  V30 20 C -2.97504 -1.53804 -0.838134 0
M  V30 21 H 6.82378 -2.52428 -0.442977 0
M  V30 22 H 7.06306 -2.05205 1.21981 0
M  V30 23 H 5.78722 -0.237857 0.0998651 0
M  V30 24 H 4.4054 1.08519 -0.388371 0
M  V30 25 H 2.58205 2.72609 -0.589672 0
M  V30 26 H 1.53671 -1.83913 0.864712 0
M  V30 27 H -2.58682 3.45859 0.846188 0
M  V30 28 H -2.87769 2.74876 -0.772507 0
M  V30 29 H -3.52255 1.05425 1.35217 0
M  V30 30 H -2.94569 -0.605192 1.65488 0
M  V30 31 H -3.69989 0.506553 -1.08053 0
M  V30 32 H -5.44622 -1.35241 -0.729485 0
M  V30 33 H -5.01651 -1.23233 0.999926 0
M  V30 34 H -5.72605 0.230192 0.125716 0
M  V30 35 H -2.97926 -2.28959 -0.0238222 0
M  V30 36 H -1.93595 -1.31344 -1.1933 0
M  V30 37 H -3.60725 -1.91961 -1.66763 0
M  V30 END ATOM
M  V30 BEGIN BOND
M  V30 1 1 1 2
M  V30 2 1 2 3
M  V30 3 2 3 4
M  V30 4 1 3 5
M  V30 5 2 5 6
M  V30 6 1 6 7
M  V30 7 2 7 8
M  V30 8 1 8 9
M  V30 9 2 9 10
M  V30 10 1 9 11
M  V30 11 2 11 12
M  V30 12 1 12 13
M  V30 13 1 13 14
M  V30 14 2 14 15
M  V30 15 1 13 16
M  V30 16 1 12 17
M  V30 17 1 17 18
M  V30 18 1 18 19
M  V30 19 1 18 20
M  V30 20 1 10 5
M  V30 21 1 14 8
M  V30 22 1 1 21
M  V30 23 1 1 22
M  V30 24 1 2 23
M  V30 25 1 6 24
M  V30 26 1 7 25
M  V30 27 1 10 26
M  V30 28 1 16 27
M  V30 29 1 16 28
M  V30 30 1 17 29
M  V30 31 1 17 30
M  V30 32 1 18 31
M  V30 33 1 19 32
M  V30 34 1 19 33
M  V30 35 1 19 34
M  V30 36 1 20 35
M  V30 37 1 20 36
M  V30 38 1 20 37
M  V30 END BOND
M  V30 END CTAB
M  END
