
     RDKit          3D

  0  0  0  0  0  0  0  0  0  0999 V3000
M  V30 BEGIN CTAB
M  V30 COUNTS 38 41 0 0 0
M  V30 BEGIN ATOM
M  V30 1 N 6.37683 1.05019 0.112213 0
M  V30 2 C 5.10017 0.601205 0.531686 0
M  V30 3 N 4.63554 1.10932 1.78281 0
M  V30 4 N 4.43162 -0.211231 -0.194403 0
M  V30 5 C 3.151 -0.738097 0.0995284 0
M  V30 6 O 3.03843 -1.88296 0.656787 0
M  V30 7 C 1.92206 -0.0290269 -0.209495 0
M  V30 8 C 0.588978 -0.420353 -0.0214281 0
M  V30 9 C 0.223825 -1.67966 0.596763 0
M  V30 10 C -1.06803 -2.33836 0.569557 0
M  V30 11 C 0.110382 -2.88669 -0.275244 0
M  V30 12 N -0.140928 0.586783 -0.485431 0
M  V30 13 N 0.64607 1.56118 -0.941296 0
M  V30 14 C 1.91056 1.23198 -0.794901 0
M  V30 15 C -1.55936 0.633835 -0.495347 0
M  V30 16 C -2.22058 0.824092 0.690399 0
M  V30 17 C -3.60255 0.889506 0.761231 0
M  V30 18 C -4.33813 0.763177 -0.371526 0
M  V30 19 N -5.62935 0.861339 -0.0238583 0
M  V30 20 C -5.67651 1.04456 1.29347 0
M  V30 21 N -4.42312 1.06476 1.79876 0
M  V30 22 C -3.71357 0.571121 -1.58257 0
M  V30 23 C -2.3252 0.507515 -1.63591 0
M  V30 24 H 7.20064 0.456685 0.276389 0
M  V30 25 H 6.47631 1.96292 -0.351062 0
M  V30 26 H 4.77044 0.620998 2.68291 0
M  V30 27 H 4.13757 2.01834 1.7729 0
M  V30 28 H 0.808306 -1.88263 1.55796 0
M  V30 29 H -1.9282 -2.15699 -0.0639787 0
M  V30 30 H -1.36633 -2.98079 1.45559 0
M  V30 31 H 0.0568814 -2.8164 -1.36639 0
M  V30 32 H 0.488946 -3.86809 0.078427 0
M  V30 33 H 2.81619 1.80399 -1.06313 0
M  V30 34 H -1.66745 0.929039 1.61332 0
M  V30 35 H -6.44849 0.802431 -0.683541 0
M  V30 36 H -6.56417 1.1616 1.89799 0
M  V30 37 H -4.34445 0.476463 -2.45517 0
M  V30 38 H -1.87434 0.35824 -2.59793 0
M  V30 END ATOM
M  V30 BEGIN BOND
M  V30 1 1 1 2
M  V30 2 1 2 3
M  V30 3 2 2 4
M  V30 4 1 4 5
M  V30 5 2 5 6
M  V30 6 1 5 7
M  V30 7 2 7 8
M  V30 8 1 8 9
M  V30 9 1 9 10
M  V30 10 1 10 11
M  V30 11 1 8 12
M  V30 12 1 12 13
M  V30 13 2 13 14
M  V30 14 1 12 15
M  V30 15 2 15 16
M  V30 16 1 16 17
M  V30 17 2 17 18
M  V30 18 1 18 19
M  V30 19 1 19 20
M  V30 20 2 20 21
M  V30 21 1 18 22
M  V30 22 2 22 23
M  V30 23 1 14 7
M  V30 24 1 23 15
M  V30 25 1 11 9
M  V30 26 1 21 17
M  V30 27 1 1 24
M  V30 28 1 1 25
M  V30 29 1 3 26
M  V30 30 1 3 27
M  V30 31 1 9 28
M  V30 32 1 10 29
M  V30 33 1 10 30
M  V30 34 1 11 31
M  V30 35 1 11 32
M  V30 36 1 14 33
M  V30 37 1 16 34
M  V30 38 1 19 35
M  V30 39 1 20 36
M  V30 40 1 22 37
M  V30 41 1 23 38
M  V30 END BOND
M  V30 END CTAB
M  END
