
     RDKit          3D

  0  0  0  0  0  0  0  0  0  0999 V3000
M  V30 BEGIN CTAB
M  V30 COUNTS 49 51 0 0 0
M  V30 BEGIN ATOM
M  V30 1 C 1.49816 -3.46634 -0.134795 0
M  V30 2 C 1.45634 -2.35908 0.929669 0
M  V30 3 N 0.733793 -1.21949 0.490634 0
M  V30 4 C -0.638063 -1.55564 0.381036 0
M  V30 5 C -1.57975 -0.531339 -0.148459 0
M  V30 6 C -1.63188 -0.397481 -1.63384 0
M  V30 7 O -1.55479 0.667448 0.568542 0
M  V30 8 C -2.83534 1.16811 0.616154 0
M  V30 9 C -3.75398 0.155082 0.424158 0
M  V30 10 C -2.99664 -1.09311 0.234052 0
M  V30 11 C -5.07321 0.4787 0.442535 0
M  V30 12 N -6.08418 -0.507449 0.255695 0
M  V30 13 N -5.4311 1.74755 0.64179 0
M  V30 14 C -4.55003 2.73402 0.827863 0
M  V30 15 N -3.2473 2.42632 0.812165 0
M  V30 16 N -5.00055 4.08598 1.03698 0
M  V30 17 C 1.23905 -0.438244 -0.546664 0
M  V30 18 C 2.58599 0.145648 -0.288096 0
M  V30 19 C 3.38273 0.462586 -1.35232 0
M  V30 20 C 4.65422 1.02879 -1.1357 0
M  V30 21 C 5.07683 1.25696 0.155586 0
M  V30 22 C 4.26464 0.933088 1.19299 0
M  V30 23 C 3.02694 0.380551 0.981273 0
M  V30 24 C 6.41271 1.85492 0.391408 0
M  V30 25 O 7.1289 2.13554 -0.601054 0
M  V30 26 O 6.84272 2.09049 1.66528 0
M  V30 27 H 2.32232 -4.1531 0.209602 0
M  V30 28 H 1.71265 -3.0229 -1.10461 0
M  V30 29 H 0.541084 -4.03825 -0.0976457 0
M  V30 30 H 0.8481 -2.8126 1.76595 0
M  V30 31 H 2.44282 -2.19705 1.35859 0
M  V30 32 H -0.794829 -2.50767 -0.213331 0
M  V30 33 H -0.975248 -1.87883 1.42078 0
M  V30 34 H -1.34753 0.60173 -2.01814 0
M  V30 35 H -1.02768 -1.18881 -2.1587 0
M  V30 36 H -2.67074 -0.565341 -2.05918 0
M  V30 37 H -2.9165 -1.68282 1.16998 0
M  V30 38 H -3.36647 -1.74028 -0.556726 0
M  V30 39 H -6.12417 -1.2941 0.928335 0
M  V30 40 H -6.72653 -0.367562 -0.554904 0
M  V30 41 H -4.68275 4.85138 0.400543 0
M  V30 42 H -5.64698 4.33505 1.81572 0
M  V30 43 H 1.24488 -0.89265 -1.55918 0
M  V30 44 H 0.578991 0.482987 -0.641881 0
M  V30 45 H 3.13099 0.322473 -2.38827 0
M  V30 46 H 5.3099 1.29166 -1.94969 0
M  V30 47 H 4.64976 1.13466 2.20218 0
M  V30 48 H 2.41181 0.14416 1.86415 0
M  V30 49 H 7.15992 2.99428 2.01714 0
M  V30 END ATOM
M  V30 BEGIN BOND
M  V30 1 1 1 2
M  V30 2 1 2 3
M  V30 3 1 3 4
M  V30 4 1 4 5
M  V30 5 1 5 6
M  V30 6 1 5 7
M  V30 7 1 7 8
M  V30 8 2 8 9
M  V30 9 1 9 10
M  V30 10 1 9 11
M  V30 11 1 11 12
M  V30 12 2 11 13
M  V30 13 1 13 14
M  V30 14 2 14 15
M  V30 15 1 14 16
M  V30 16 1 3 17
M  V30 17 1 17 18
M  V30 18 2 18 19
M  V30 19 1 19 20
M  V30 20 2 20 21
M  V30 21 1 21 22
M  V30 22 2 22 23
M  V30 23 1 21 24
M  V30 24 2 24 25
M  V30 25 1 24 26
M  V30 26 1 10 5
M  V30 27 1 23 18
M  V30 28 1 15 8
M  V30 29 1 1 27
M  V30 30 1 1 28
M  V30 31 1 1 29
M  V30 32 1 2 30
M  V30 33 1 2 31
M  V30 34 1 4 32
M  V30 35 1 4 33
M  V30 36 1 6 34
M  V30 37 1 6 35
M  V30 38 1 6 36
M  V30 39 1 10 37
M  V30 40 1 10 38
M  V30 41 1 12 39
M  V30 42 1 12 40
M  V30 43 1 16 41
M  V30 44 1 16 42
M  V30 45 1 17 43
M  V30 46 1 17 44
M  V30 47 1 19 45
M  V30 48 1 20 46
M  V30 49 1 22 47
M  V30 50 1 23 48
M  V30 51 1 26 49
M  V30 END BOND
M  V30 END CTAB
M  END
