
     RDKit          3D

  0  0  0  0  0  0  0  0  0  0999 V3000
M  V30 BEGIN CTAB
M  V30 COUNTS 85 88 0 0 0
M  V30 BEGIN ATOM
M  V30 1 N -11.219 2.62222 2.84653 0
M  V30 2 C -11.9299 1.38109 2.88186 0
M  V30 3 N -12.5472 1.06476 3.93691 0
M  V30 4 C -11.9213 0.529005 1.71009 0
M  V30 5 C -11.232 0.908695 0.558097 0
M  V30 6 C -11.1783 0.15523 -0.58517 0
M  V30 7 C -11.8476 -1.04719 -0.591401 0
M  V30 8 C -12.5421 -1.46442 0.521459 0
M  V30 9 C -12.5789 -0.675659 1.6737 0
M  V30 10 S -10.2951 0.708729 -1.98434 0
M  V30 11 O -10.9509 0.0691804 -3.18966 0
M  V30 12 O -10.3534 2.19562 -2.06452 0
M  V30 13 N -8.66333 0.184207 -1.97457 0
M  V30 14 C -7.92026 0.687795 -0.834734 0
M  V30 15 C -6.51992 0.180171 -0.914602 0
M  V30 16 C -6.05885 -0.521616 -1.99375 0
M  V30 17 C -4.78326 -0.953507 -1.99532 0
M  V30 18 C -3.87525 -0.72661 -0.940133 0
M  V30 19 O -2.64654 -1.12842 -0.913986 0
M  V30 20 C -1.42721 -1.50279 -0.839284 0
M  V30 21 C -0.357234 -0.396947 -0.684207 0
M  V30 22 C -0.395036 0.542432 -1.83689 0
M  V30 23 C 0.590092 1.66496 -1.75055 0
M  V30 24 C 2.01307 1.27087 -1.69561 0
M  V30 25 O 2.42333 0.493346 -0.616986 0
M  V30 26 C 3.7513 0.0987919 -0.533371 0
M  V30 27 C 4.69313 0.449075 -1.47945 0
M  V30 28 C 6.00398 0.0371967 -1.36331 0
M  V30 29 C 6.45531 -0.744213 -0.305072 0
M  V30 30 C 7.88533 -1.16448 -0.230234 0
M  V30 31 N 8.10523 -2.30605 0.602157 0
M  V30 32 S 9.80183 -2.71103 0.61685 0
M  V30 33 O 9.99204 -3.95124 1.4727 0
M  V30 34 O 10.2673 -3.06266 -0.767177 0
M  V30 35 C 10.7638 -1.42716 1.26474 0
M  V30 36 C 11.3157 -0.473618 0.469689 0
M  V30 37 C 12.0782 0.553319 0.959394 0
M  V30 38 C 12.2929 0.621814 2.3089 0
M  V30 39 C 11.7554 -0.323292 3.16628 0
M  V30 40 C 10.9982 -1.33376 2.6291 0
M  V30 41 C 12.6724 1.57414 0.0950739 0
M  V30 42 N 12.423 1.43204 -1.29608 0
M  V30 43 N 13.3859 2.55164 0.536622 0
M  V30 44 C 5.51181 -1.09156 0.637772 0
M  V30 45 C 4.19874 -0.67893 0.521973 0
M  V30 46 C -4.37998 0.00111249 0.160615 0
M  V30 47 C -5.67864 0.429017 0.138753 0
M  V30 48 H -11.7192 3.5449 2.79392 0
M  V30 49 H -10.1818 2.65796 2.87235 0
M  V30 50 H -13.0804 0.196218 4.04901 0
M  V30 51 H -10.7187 1.87573 0.616976 0
M  V30 52 H -11.7842 -1.62085 -1.512 0
M  V30 53 H -13.0512 -2.41545 0.460964 0
M  V30 54 H -13.1449 -1.06393 2.51836 0
M  V30 55 H -8.64685 -0.873419 -1.98774 0
M  V30 56 H -7.96214 1.79151 -0.877928 0
M  V30 57 H -8.37777 0.268949 0.0845829 0
M  V30 58 H -6.77441 -0.692758 -2.80453 0
M  V30 59 H -4.38964 -1.50591 -2.82683 0
M  V30 60 H -1.12006 -2.13971 -1.74398 0
M  V30 61 H -1.17114 -2.18388 0.0484346 0
M  V30 62 H -0.541348 0.0681973 0.28138 0
M  V30 63 H 0.589276 -0.973405 -0.625568 0
M  V30 64 H -1.45407 0.930686 -1.92092 0
M  V30 65 H -0.259282 -0.00314829 -2.81757 0
M  V30 66 H 0.296459 2.39176 -0.952548 0
M  V30 67 H 0.457291 2.26139 -2.7072 0
M  V30 68 H 2.72134 2.12146 -1.79304 0
M  V30 69 H 2.21238 0.642315 -2.61766 0
M  V30 70 H 4.37405 1.06095 -2.32375 0
M  V30 71 H 6.74887 0.323372 -2.12381 0
M  V30 72 H 8.27902 -1.4047 -1.25947 0
M  V30 73 H 8.54964 -0.346608 0.141686 0
M  V30 74 H 7.75413 -2.17151 1.56913 0
M  V30 75 H 11.1635 -0.501255 -0.620543 0
M  V30 76 H 12.8822 1.40101 2.77323 0
M  V30 77 H 11.9133 -0.288728 4.24234 0
M  V30 78 H 10.5641 -2.08926 3.27168 0
M  V30 79 H 11.7642 2.04644 -1.78987 0
M  V30 80 H 12.9213 0.689219 -1.81325 0
M  V30 81 H 13.629 2.74805 1.50091 0
M  V30 82 H 5.80784 -1.6995 1.48626 0
M  V30 83 H 3.44442 -0.953683 1.27294 0
M  V30 84 H -3.71209 0.195429 0.997403 0
M  V30 85 H -6.05983 0.990863 0.993229 0
M  V30 END ATOM
M  V30 BEGIN BOND
M  V30 1 1 1 2
M  V30 2 2 2 3 CFG=2
M  V30 3 1 2 4
M  V30 4 2 4 5
M  V30 5 1 5 6
M  V30 6 2 6 7
M  V30 7 1 7 8
M  V30 8 2 8 9
M  V30 9 1 6 10
M  V30 10 2 10 11
M  V30 11 2 10 12
M  V30 12 1 10 13
M  V30 13 1 13 14
M  V30 14 1 14 15
M  V30 15 2 15 16
M  V30 16 1 16 17
M  V30 17 2 17 18
M  V30 18 1 18 19
M  V30 19 1 19 20
M  V30 20 1 20 21
M  V30 21 1 21 22
M  V30 22 1 22 23
M  V30 23 1 23 24
M  V30 24 1 24 25
M  V30 25 1 25 26
M  V30 26 2 26 27
M  V30 27 1 27 28
M  V30 28 2 28 29
M  V30 29 1 29 30
M  V30 30 1 30 31
M  V30 31 1 31 32
M  V30 32 2 32 33
M  V30 33 2 32 34
M  V30 34 1 32 35
M  V30 35 2 35 36
M  V30 36 1 36 37
M  V30 37 2 37 38
M  V30 38 1 38 39
M  V30 39 2 39 40
M  V30 40 1 37 41
M  V30 41 1 41 42
M  V30 42 2 41 43 CFG=2
M  V30 43 1 29 44
M  V30 44 2 44 45
M  V30 45 1 18 46
M  V30 46 2 46 47
M  V30 47 1 9 4
M  V30 48 1 47 15
M  V30 49 1 45 26
M  V30 50 1 40 35
M  V30 51 1 1 48
M  V30 52 1 1 49
M  V30 53 1 3 50
M  V30 54 1 5 51
M  V30 55 1 7 52
M  V30 56 1 8 53
M  V30 57 1 9 54
M  V30 58 1 13 55
M  V30 59 1 14 56
M  V30 60 1 14 57
M  V30 61 1 16 58
M  V30 62 1 17 59
M  V30 63 1 20 60
M  V30 64 1 20 61
M  V30 65 1 21 62
M  V30 66 1 21 63
M  V30 67 1 22 64
M  V30 68 1 22 65
M  V30 69 1 23 66
M  V30 70 1 23 67
M  V30 71 1 24 68
M  V30 72 1 24 69
M  V30 73 1 27 70
M  V30 74 1 28 71
M  V30 75 1 30 72
M  V30 76 1 30 73
M  V30 77 1 31 74
M  V30 78 1 36 75
M  V30 79 1 38 76
M  V30 80 1 39 77
M  V30 81 1 40 78
M  V30 82 1 42 79
M  V30 83 1 42 80
M  V30 84 1 43 81
M  V30 85 1 44 82
M  V30 86 1 45 83
M  V30 87 1 46 84
M  V30 88 1 47 85
M  V30 END BOND
M  V30 END CTAB
M  END
