
     RDKit          3D

  0  0  0  0  0  0  0  0  0  0999 V3000
M  V30 BEGIN CTAB
M  V30 COUNTS 44 46 0 0 0
M  V30 BEGIN ATOM
M  V30 1 C -2.85051 1.10281 -2.52261 0
M  V30 2 O -1.93002 0.573232 -1.58978 0
M  V30 3 C -2.32136 0.406526 -0.258202 0
M  V30 4 C -1.40998 -0.117521 0.663705 0
M  V30 5 C -1.87047 -0.253063 1.96329 0
M  V30 6 C -3.13388 0.095228 2.35297 0
M  V30 7 C -4.01191 0.608115 1.42944 0
M  V30 8 C -3.59172 0.757655 0.129574 0
M  V30 9 C -0.064808 -0.512185 0.250111 0
M  V30 10 C 0.153823 -1.83198 -0.189049 0
M  V30 11 C -1.01201 -2.7218 -0.195748 0
M  V30 12 N -0.629157 -4.03029 -0.667734 0
M  V30 13 C 1.42519 -2.18561 -0.573974 0
M  V30 14 N 1.63376 -3.53242 -1.01896 0
M  V30 15 N 2.46617 -1.32563 -0.548581 0
M  V30 16 C 2.25816 -0.0755851 -0.13235 0
M  V30 17 C 0.993329 0.363865 0.276583 0
M  V30 18 C 0.868185 1.67068 0.692357 0
M  V30 19 O -0.2245 2.11873 1.06628 0
M  V30 20 N 1.91062 2.52358 0.716139 0
M  V30 21 C 1.75889 3.90554 1.16005 0
M  V30 22 C 3.12396 2.09999 0.323132 0
M  V30 23 O 4.08327 2.9144 0.353742 0
M  V30 24 N 3.25064 0.833678 -0.0808495 0
M  V30 25 C 4.57125 0.374951 -0.50788 0
M  V30 26 H -2.50674 1.01087 -3.55624 0
M  V30 27 H -3.84465 0.570564 -2.45948 0
M  V30 28 H -3.08223 2.1657 -2.24138 0
M  V30 29 H -1.13523 -0.665676 2.66228 0
M  V30 30 H -3.41075 -0.0433745 3.38616 0
M  V30 31 H -5.03976 0.898384 1.71597 0
M  V30 32 H -4.31638 1.16617 -0.567147 0
M  V30 33 H -1.46305 -2.86415 0.809194 0
M  V30 34 H -1.82239 -2.36662 -0.880286 0
M  V30 35 H -0.998779 -4.23148 -1.63303 0
M  V30 36 H -0.99805 -4.80158 -0.064751 0
M  V30 37 H 1.54607 -3.85212 -2.00196 0
M  V30 38 H 1.89683 -4.2321 -0.299073 0
M  V30 39 H 0.672018 4.1672 1.21654 0
M  V30 40 H 2.29464 4.61047 0.491047 0
M  V30 41 H 2.14489 4.04213 2.20302 0
M  V30 42 H 4.49697 0.0021598 -1.56206 0
M  V30 43 H 5.31792 1.16988 -0.417873 0
M  V30 44 H 4.80175 -0.509338 0.107402 0
M  V30 END ATOM
M  V30 BEGIN BOND
M  V30 1 1 1 2
M  V30 2 1 2 3
M  V30 3 2 3 4
M  V30 4 1 4 5
M  V30 5 2 5 6
M  V30 6 1 6 7
M  V30 7 2 7 8
M  V30 8 1 4 9
M  V30 9 2 9 10
M  V30 10 1 10 11
M  V30 11 1 11 12
M  V30 12 1 10 13
M  V30 13 1 13 14
M  V30 14 2 13 15
M  V30 15 1 15 16
M  V30 16 2 16 17
M  V30 17 1 17 18
M  V30 18 2 18 19
M  V30 19 1 18 20
M  V30 20 1 20 21
M  V30 21 1 20 22
M  V30 22 2 22 23
M  V30 23 1 22 24
M  V30 24 1 24 25
M  V30 25 1 8 3
M  V30 26 1 17 9
M  V30 27 1 24 16
M  V30 28 1 1 26
M  V30 29 1 1 27
M  V30 30 1 1 28
M  V30 31 1 5 29
M  V30 32 1 6 30
M  V30 33 1 7 31
M  V30 34 1 8 32
M  V30 35 1 11 33
M  V30 36 1 11 34
M  V30 37 1 12 35
M  V30 38 1 12 36
M  V30 39 1 14 37
M  V30 40 1 14 38
M  V30 41 1 21 39
M  V30 42 1 21 40
M  V30 43 1 21 41
M  V30 44 1 25 42
M  V30 45 1 25 43
M  V30 46 1 25 44
M  V30 END BOND
M  V30 END CTAB
M  END
