
     RDKit          3D

  0  0  0  0  0  0  0  0  0  0999 V3000
M  V30 BEGIN CTAB
M  V30 COUNTS 42 45 0 0 0
M  V30 BEGIN ATOM
M  V30 1 C 6.09036 -1.09773 0.923627 0
M  V30 2 C 4.68786 -0.885721 0.436901 0
M  V30 3 C 3.72394 -0.457714 1.3187 0
M  V30 4 C 2.44569 -0.274637 0.851001 0
M  V30 5 C 2.04638 -0.488166 -0.446443 0
M  V30 6 S 0.435177 -0.286212 -1.10428 0
M  V30 7 C -0.797515 0.45381 -0.100207 0
M  V30 8 C -0.848759 1.9138 0.0188642 0
M  V30 9 C -2.05644 2.61325 0.0937554 0
M  V30 10 O -3.23572 1.91158 0.0144048 0
M  V30 11 C -3.31266 0.543071 -0.138762 0
M  V30 12 N -4.50457 -0.0805929 -0.216081 0
M  V30 13 C -4.59981 -1.42174 -0.372154 0
M  V30 14 N -5.83804 -2.11248 -0.458314 0
M  V30 15 C -3.45974 -2.19688 -0.45713 0
M  V30 16 C -3.54892 -3.63447 -0.625002 0
M  V30 17 N -3.6205 -4.77097 -0.76619 0
M  V30 18 C -2.24287 -1.55441 -0.376793 0
M  V30 19 N -1.06724 -2.34391 -0.461145 0
M  V30 20 C -2.14056 -0.176195 -0.215825 0
M  V30 21 C -2.09334 4.00936 0.240292 0
M  V30 22 C -0.945396 4.75141 0.314723 0
M  V30 23 C 0.238554 4.06707 0.238701 0
M  V30 24 C 0.286015 2.67399 0.0928153 0
M  V30 25 C 3.06529 -0.921761 -1.29979 0
M  V30 26 C 4.35317 -1.11893 -0.882815 0
M  V30 27 H 6.82989 -0.946928 0.107556 0
M  V30 28 H 6.21933 -2.17163 1.24415 0
M  V30 29 H 6.30598 -0.48142 1.81208 0
M  V30 30 H 3.95398 -0.264313 2.36294 0
M  V30 31 H 1.68937 0.0643798 1.55183 0
M  V30 32 H -0.516875 0.12959 1.00478 0
M  V30 33 H -6.37579 -2.2364 -1.34759 0
M  V30 34 H -6.25061 -2.52989 0.408723 0
M  V30 35 H -0.457853 -2.39599 0.384876 0
M  V30 36 H -0.762958 -2.87715 -1.29982 0
M  V30 37 H -3.06643 4.48014 0.292459 0
M  V30 38 H -1.03698 5.82213 0.42684 0
M  V30 39 H 1.15895 4.63257 0.293633 0
M  V30 40 H 1.27965 2.22731 0.0201479 0
M  V30 41 H 2.82419 -1.10987 -2.33603 0
M  V30 42 H 5.1458 -1.45734 -1.54942 0
M  V30 END ATOM
M  V30 BEGIN BOND
M  V30 1 1 1 2
M  V30 2 2 2 3
M  V30 3 1 3 4
M  V30 4 2 4 5
M  V30 5 1 5 6
M  V30 6 1 6 7
M  V30 7 1 7 8
M  V30 8 2 8 9
M  V30 9 1 9 10
M  V30 10 1 10 11
M  V30 11 2 11 12
M  V30 12 1 12 13
M  V30 13 1 13 14
M  V30 14 2 13 15
M  V30 15 1 15 16
M  V30 16 3 16 17
M  V30 17 1 15 18
M  V30 18 1 18 19
M  V30 19 2 18 20
M  V30 20 1 9 21
M  V30 21 2 21 22
M  V30 22 1 22 23
M  V30 23 2 23 24
M  V30 24 1 5 25
M  V30 25 2 25 26
M  V30 26 1 26 2
M  V30 27 1 20 7
M  V30 28 1 24 8
M  V30 29 1 20 11
M  V30 30 1 1 27
M  V30 31 1 1 28
M  V30 32 1 1 29
M  V30 33 1 3 30
M  V30 34 1 4 31
M  V30 35 1 7 32
M  V30 36 1 14 33
M  V30 37 1 14 34
M  V30 38 1 19 35
M  V30 39 1 19 36
M  V30 40 1 21 37
M  V30 41 1 22 38
M  V30 42 1 23 39
M  V30 43 1 24 40
M  V30 44 1 25 41
M  V30 45 1 26 42
M  V30 END BOND
M  V30 END CTAB
M  END
