
     RDKit          3D

  0  0  0  0  0  0  0  0  0  0999 V3000
M  V30 BEGIN CTAB
M  V30 COUNTS 28 28 0 0 0
M  V30 BEGIN ATOM
M  V30 1 C 4.21293 0.11742 0.402276 0
M  V30 2 C 3.86615 0.118824 -1.06325 0
M  V30 3 O 2.68382 -0.635204 -1.23572 0
M  V30 4 C 1.4676 -0.331788 -0.649588 0
M  V30 5 O 1.41496 0.686943 0.0857168 0
M  V30 6 C 0.277966 -1.19931 -0.89759 0
M  V30 7 C -0.921529 -0.712623 -0.205345 0
M  V30 8 C -1.63099 0.350746 -0.686694 0
M  V30 9 N -1.28526 1.05024 -1.87509 0
M  V30 10 C -2.75739 0.754871 0.0384759 0
M  V30 11 C -3.15068 0.117835 1.1934 0
M  V30 12 C -2.41798 -0.953252 1.65845 0
M  V30 13 C -1.30516 -1.35936 0.950171 0
M  V30 14 Br -0.331021 -2.8554 1.65231 0
M  V30 15 N -4.28985 0.530016 1.92262 0
M  V30 16 H 5.30109 0.264982 0.577383 0
M  V30 17 H 3.70351 0.94165 0.940746 0
M  V30 18 H 3.94775 -0.847354 0.905898 0
M  V30 19 H 3.64105 1.16643 -1.38369 0
M  V30 20 H 4.68946 -0.303942 -1.66381 0
M  V30 21 H 0.0860468 -1.13323 -2.00625 0
M  V30 22 H 0.542872 -2.23158 -0.622983 0
M  V30 23 H -0.299283 1.10729 -2.19647 0
M  V30 24 H -2.00782 1.52374 -2.45604 0
M  V30 25 H -3.32772 1.5814 -0.316917 0
M  V30 26 H -2.70756 -1.46714 2.56079 0
M  V30 27 H -5.00214 -0.166146 2.19733 0
M  V30 28 H -4.40082 1.51848 2.17386 0
M  V30 END ATOM
M  V30 BEGIN BOND
M  V30 1 1 1 2
M  V30 2 1 2 3
M  V30 3 1 3 4
M  V30 4 2 4 5
M  V30 5 1 4 6
M  V30 6 1 6 7
M  V30 7 2 7 8
M  V30 8 1 8 9
M  V30 9 1 8 10
M  V30 10 2 10 11
M  V30 11 1 11 12
M  V30 12 2 12 13
M  V30 13 1 13 14
M  V30 14 1 11 15
M  V30 15 1 13 7
M  V30 16 1 1 16
M  V30 17 1 1 17
M  V30 18 1 1 18
M  V30 19 1 2 19
M  V30 20 1 2 20
M  V30 21 1 6 21
M  V30 22 1 6 22
M  V30 23 1 9 23
M  V30 24 1 9 24
M  V30 25 1 10 25
M  V30 26 1 12 26
M  V30 27 1 15 27
M  V30 28 1 15 28
M  V30 END BOND
M  V30 END CTAB
M  END
