
     RDKit          3D

  0  0  0  0  0  0  0  0  0  0999 V3000
M  V30 BEGIN CTAB
M  V30 COUNTS 33 34 0 0 0
M  V30 BEGIN ATOM
M  V30 1 N 5.79094 2.38219 0.487878 0
M  V30 2 C 4.93587 1.63066 -0.394489 0
M  V30 3 N 5.26204 0.713556 -1.2982 0
M  V30 4 N 4.3639 0.156278 -1.98813 0
M  V30 5 C 3.09005 0.484293 -1.81282 0
M  V30 6 S 3.23775 1.67235 -0.567348 0
M  V30 7 S 1.61236 -0.123715 -2.63718 0
M  V30 8 C 1.00417 -1.56825 -1.68802 0
M  V30 9 C 0.538893 -1.20101 -0.357821 0
M  V30 10 O 1.32663 -1.36419 0.64281 0
M  V30 11 C -0.772894 -0.659227 -0.090353 0
M  V30 12 C -1.17019 -0.354058 1.21777 0
M  V30 13 N -0.231911 -0.60294 2.263 0
M  V30 14 N -2.36364 0.152606 1.53595 0
M  V30 15 C -2.76984 0.464881 2.88333 0
M  V30 16 C -3.23596 0.382031 0.523101 0
M  V30 17 O -4.37796 0.863936 0.79083 0
M  V30 18 N -2.92265 0.113923 -0.755537 0
M  V30 19 C -1.69759 -0.405129 -1.07421 0
M  V30 20 O -1.42819 -0.645364 -2.29143 0
M  V30 21 C -3.86888 0.363324 -1.83431 0
M  V30 22 H 6.67325 2.71584 0.0996096 0
M  V30 23 H 5.47217 2.54469 1.46707 0
M  V30 24 H 0.326367 -2.21245 -2.28369 0
M  V30 25 H 1.90395 -2.25931 -1.5241 0
M  V30 26 H -0.190966 -1.55133 2.69542 0
M  V30 27 H 0.394038 0.196792 2.55859 0
M  V30 28 H -1.96957 0.177625 3.60083 0
M  V30 29 H -2.97085 1.5498 2.99516 0
M  V30 30 H -3.66012 -0.125514 3.19508 0
M  V30 31 H -4.84713 0.63602 -1.38267 0
M  V30 32 H -3.95039 -0.484043 -2.53469 0
M  V30 33 H -3.50363 1.23418 -2.44144 0
M  V30 END ATOM
M  V30 BEGIN BOND
M  V30 1 1 1 2
M  V30 2 2 2 3
M  V30 3 1 3 4
M  V30 4 2 4 5
M  V30 5 1 5 6
M  V30 6 1 5 7
M  V30 7 1 7 8
M  V30 8 1 8 9
M  V30 9 2 9 10
M  V30 10 1 9 11
M  V30 11 2 11 12
M  V30 12 1 12 13
M  V30 13 1 12 14
M  V30 14 1 14 15
M  V30 15 1 14 16
M  V30 16 2 16 17
M  V30 17 1 16 18
M  V30 18 1 18 19
M  V30 19 2 19 20
M  V30 20 1 18 21
M  V30 21 1 6 2
M  V30 22 1 19 11
M  V30 23 1 1 22
M  V30 24 1 1 23
M  V30 25 1 8 24
M  V30 26 1 8 25
M  V30 27 1 13 26
M  V30 28 1 13 27
M  V30 29 1 15 28
M  V30 30 1 15 29
M  V30 31 1 15 30
M  V30 32 1 21 31
M  V30 33 1 21 32
M  V30 34 1 21 33
M  V30 END BOND
M  V30 END CTAB
M  END
