
     RDKit          3D

  0  0  0  0  0  0  0  0  0  0999 V3000
M  V30 BEGIN CTAB
M  V30 COUNTS 38 39 0 0 0
M  V30 BEGIN ATOM
M  V30 1 C 5.10844 -0.905927 -2.22648 0
M  V30 2 C 5.46507 -0.0855063 -0.993371 0
M  V30 3 C 4.18196 0.20278 -0.273821 0
M  V30 4 C 3.79033 -0.739863 0.678393 0
M  V30 5 C 2.60797 -0.491891 1.30694 0
M  V30 6 C 1.7738 0.599114 1.08838 0
M  V30 7 C 2.19645 1.49863 0.148786 0
M  V30 8 C 3.3957 1.29089 -0.52252 0
M  V30 9 N 0.589007 0.736336 1.83543 0
M  V30 10 C -0.546232 1.46272 1.50807 0
M  V30 11 O -0.688845 2.12652 0.434665 0
M  V30 12 C -1.6822 1.47711 2.47783 0
M  V30 13 S -2.57455 -0.0706577 2.58486 0
M  V30 14 C -3.4419 -0.373996 1.07127 0
M  V30 15 N -4.70063 0.109859 0.93232 0
M  V30 16 C -5.39754 -0.131619 -0.208645 0
M  V30 17 N -6.70601 0.409426 -0.277981 0
M  V30 18 C -4.82979 -0.869617 -1.23153 0
M  V30 19 C -3.5573 -1.35209 -1.07873 0
M  V30 20 N -2.92124 -1.07519 0.0812183 0
M  V30 21 N -2.90398 -2.12935 -2.0856 0
M  V30 22 H 5.98555 -1.00507 -2.84722 0
M  V30 23 H 4.72445 -1.89264 -1.96276 0
M  V30 24 H 4.25954 -0.339757 -2.70304 0
M  V30 25 H 5.86534 0.879694 -1.34319 0
M  V30 26 H 6.20646 -0.599775 -0.362717 0
M  V30 27 H 4.39708 -1.60028 0.887104 0
M  V30 28 H 2.26711 -1.21286 2.06663 0
M  V30 29 H 1.61061 2.38537 -0.076004 0
M  V30 30 H 3.71055 2.01526 -1.259 0
M  V30 31 H 0.585811 0.215185 2.77028 0
M  V30 32 H -1.2686 1.78275 3.48385 0
M  V30 33 H -2.43324 2.27945 2.20152 0
M  V30 34 H -6.79093 1.3984 -0.627493 0
M  V30 35 H -7.56267 -0.0907788 -0.0133934 0
M  V30 36 H -5.38532 -1.06742 -2.13537 0
M  V30 37 H -3.46408 -2.64751 -2.78565 0
M  V30 38 H -1.8662 -2.1877 -2.12883 0
M  V30 END ATOM
M  V30 BEGIN BOND
M  V30 1 1 1 2
M  V30 2 1 2 3
M  V30 3 2 3 4
M  V30 4 1 4 5
M  V30 5 2 5 6
M  V30 6 1 6 7
M  V30 7 2 7 8
M  V30 8 1 6 9
M  V30 9 1 9 10
M  V30 10 2 10 11
M  V30 11 1 10 12
M  V30 12 1 12 13
M  V30 13 1 13 14
M  V30 14 2 14 15
M  V30 15 1 15 16
M  V30 16 1 16 17
M  V30 17 2 16 18
M  V30 18 1 18 19
M  V30 19 2 19 20
M  V30 20 1 19 21
M  V30 21 1 8 3
M  V30 22 1 20 14
M  V30 23 1 1 22
M  V30 24 1 1 23
M  V30 25 1 1 24
M  V30 26 1 2 25
M  V30 27 1 2 26
M  V30 28 1 4 27
M  V30 29 1 5 28
M  V30 30 1 7 29
M  V30 31 1 8 30
M  V30 32 1 9 31
M  V30 33 1 12 32
M  V30 34 1 12 33
M  V30 35 1 17 34
M  V30 36 1 17 35
M  V30 37 1 18 36
M  V30 38 1 21 37
M  V30 39 1 21 38
M  V30 END BOND
M  V30 END CTAB
M  END
