
     RDKit          3D

  0  0  0  0  0  0  0  0  0  0999 V3000
M  V30 BEGIN CTAB
M  V30 COUNTS 41 43 0 0 0
M  V30 BEGIN ATOM
M  V30 1 O 5.35498 3.66007 1.01711 0
M  V30 2 C 4.15507 3.05786 0.685189 0
M  V30 3 O 3.19186 3.79749 0.370548 0
M  V30 4 C 3.94881 1.61973 0.680529 0
M  V30 5 C 2.81404 1.04552 0.366299 0
M  V30 6 C 2.65566 -0.425796 0.37696 0
M  V30 7 O 3.6439 -1.14639 0.699985 0
M  V30 8 N 1.45737 -1.06423 0.045552 0
M  V30 9 C 1.47319 -2.51846 0.113185 0
M  V30 10 C 1.77477 -3.06182 -1.25433 0
M  V30 11 O 1.09109 -2.22407 -2.16803 0
M  V30 12 C -0.243965 -2.28108 -1.79504 0
M  V30 13 C -0.736466 -1.06869 -1.09289 0
M  V30 14 C 0.295277 -0.293253 -0.336657 0
M  V30 15 O -1.36766 -0.140014 -1.98305 0
M  V30 16 C -2.19975 0.623049 -1.17351 0
M  V30 17 C -2.57554 -0.0986547 -0.0607975 0
M  V30 18 C -1.90909 -1.43502 -0.205699 0
M  V30 19 C -3.40924 0.441582 0.908547 0
M  V30 20 N -3.75598 -0.352982 2.02809 0
M  V30 21 N -3.85225 1.70037 0.742809 0
M  V30 22 C -3.4978 2.41539 -0.33103 0
M  V30 23 N -2.67694 1.88289 -1.28443 0
M  V30 24 N -3.99008 3.73258 -0.460807 0
M  V30 25 H 5.94668 3.95629 0.226428 0
M  V30 26 H 4.77303 0.942268 0.95193 0
M  V30 27 H 1.99933 1.70018 0.0994787 0
M  V30 28 H 2.24475 -2.78734 0.862205 0
M  V30 29 H 0.517128 -2.89706 0.525557 0
M  V30 30 H 2.84977 -3.07209 -1.45534 0
M  V30 31 H 1.2837 -4.05725 -1.35188 0
M  V30 32 H -0.819121 -2.38439 -2.76222 0
M  V30 33 H -0.505593 -3.18333 -1.21003 0
M  V30 34 H 0.608381 0.614039 -0.882638 0
M  V30 35 H -0.166439 0.0643365 0.631863 0
M  V30 36 H -2.62742 -2.06435 -0.767713 0
M  V30 37 H -1.63172 -1.86634 0.752659 0
M  V30 38 H -4.65074 -0.860494 2.04803 0
M  V30 39 H -3.10789 -0.42347 2.82812 0
M  V30 40 H -4.42887 4.03554 -1.35002 0
M  V30 41 H -3.92625 4.41738 0.316453 0
M  V30 END ATOM
M  V30 BEGIN BOND
M  V30 1 1 1 2
M  V30 2 2 2 3
M  V30 3 1 2 4
M  V30 4 2 4 5
M  V30 5 1 5 6
M  V30 6 2 6 7
M  V30 7 1 6 8
M  V30 8 1 8 9
M  V30 9 1 9 10
M  V30 10 1 10 11
M  V30 11 1 11 12
M  V30 12 1 12 13
M  V30 13 1 13 14
M  V30 14 1 13 15
M  V30 15 1 15 16
M  V30 16 2 16 17
M  V30 17 1 17 18
M  V30 18 1 17 19
M  V30 19 1 19 20
M  V30 20 2 19 21
M  V30 21 1 21 22
M  V30 22 2 22 23
M  V30 23 1 22 24
M  V30 24 1 14 8
M  V30 25 1 23 16
M  V30 26 1 18 13
M  V30 27 1 1 25
M  V30 28 1 4 26
M  V30 29 1 5 27
M  V30 30 1 9 28
M  V30 31 1 9 29
M  V30 32 1 10 30
M  V30 33 1 10 31
M  V30 34 1 12 32
M  V30 35 1 12 33
M  V30 36 1 14 34
M  V30 37 1 14 35
M  V30 38 1 18 36
M  V30 39 1 18 37
M  V30 40 1 20 38
M  V30 41 1 20 39
M  V30 42 1 24 40
M  V30 43 1 24 41
M  V30 END BOND
M  V30 END CTAB
M  END
