
     RDKit          3D

  0  0  0  0  0  0  0  0  0  0999 V3000
M  V30 BEGIN CTAB
M  V30 COUNTS 35 37 0 0 0
M  V30 BEGIN ATOM
M  V30 1 F -3.49021 -1.90077 -0.0436264 0
M  V30 2 C -4.2638 -0.778311 -0.0175502 0
M  V30 3 C -5.65538 -0.884871 -0.137697 0
M  V30 4 C -6.44882 0.23952 -0.113069 0
M  V30 5 C -5.87486 1.46585 0.0293992 0
M  V30 6 C -4.49651 1.56433 0.147845 0
M  V30 7 C -3.68393 0.457511 0.126137 0
M  V30 8 N -2.29893 0.586584 0.247522 0
M  V30 9 N -1.47635 -0.320844 0.503533 0
M  V30 10 C -0.0910432 0.0652364 0.576918 0
M  V30 11 C 0.414936 1.23551 1.13629 0
M  V30 12 N -0.375071 2.25428 1.7355 0
M  V30 13 N 1.76129 1.21175 1.0012 0
M  V30 14 N 2.12363 0.0910484 0.38827 0
M  V30 15 C 1.01283 -0.622453 0.120407 0
M  V30 16 N 0.990155 -1.88619 -0.531383 0
M  V30 17 C 3.47794 -0.22522 0.101117 0
M  V30 18 C 4.46512 -0.24958 1.08307 0
M  V30 19 C 5.7739 -0.559349 0.781966 0
M  V30 20 C 6.16594 -0.85908 -0.503717 0
M  V30 21 C 5.18871 -0.836535 -1.48483 0
M  V30 22 C 3.86487 -0.524487 -1.18771 0
M  V30 23 H -6.13269 -1.83943 -0.251054 0
M  V30 24 H -7.53862 0.155727 -0.207206 0
M  V30 25 H -6.46641 2.37689 0.0534634 0
M  V30 26 H -4.04526 2.54435 0.26108 0
M  V30 27 H -0.932795 2.10462 2.60454 0
M  V30 28 H -0.400704 3.19241 1.29033 0
M  V30 29 H 0.376742 -2.09244 -1.3631 0
M  V30 30 H 1.59208 -2.68782 -0.211644 0
M  V30 31 H 4.13342 -0.00967068 2.09169 0
M  V30 32 H 6.52586 -0.573498 1.55547 0
M  V30 33 H 7.18775 -1.10574 -0.766582 0
M  V30 34 H 5.495 -1.07417 -2.50929 0
M  V30 35 H 3.12119 -0.515155 -1.9796 0
M  V30 END ATOM
M  V30 BEGIN BOND
M  V30 1 1 1 2
M  V30 2 2 2 3
M  V30 3 1 3 4
M  V30 4 2 4 5
M  V30 5 1 5 6
M  V30 6 2 6 7
M  V30 7 1 7 8
M  V30 8 2 8 9
M  V30 9 1 9 10
M  V30 10 1 10 11
M  V30 11 1 11 12
M  V30 12 2 11 13
M  V30 13 1 13 14
M  V30 14 1 14 15
M  V30 15 1 15 16
M  V30 16 1 14 17
M  V30 17 2 17 18
M  V30 18 1 18 19
M  V30 19 2 19 20
M  V30 20 1 20 21
M  V30 21 2 21 22
M  V30 22 1 7 2
M  V30 23 2 15 10
M  V30 24 1 22 17
M  V30 25 1 3 23
M  V30 26 1 4 24
M  V30 27 1 5 25
M  V30 28 1 6 26
M  V30 29 1 12 27
M  V30 30 1 12 28
M  V30 31 1 16 29
M  V30 32 1 16 30
M  V30 33 1 18 31
M  V30 34 1 19 32
M  V30 35 1 20 33
M  V30 36 1 21 34
M  V30 37 1 22 35
M  V30 END BOND
M  V30 END CTAB
M  END
