
     RDKit          3D

  0  0  0  0  0  0  0  0  0  0999 V3000
M  V30 BEGIN CTAB
M  V30 COUNTS 24 24 0 0 0
M  V30 BEGIN ATOM
M  V30 1 Cl 3.76996 0.794892 1.43687 0
M  V30 2 C 3.23735 0.00162862 -0.0371923 0
M  V30 3 C 2.0075 -0.857107 0.188684 0
M  V30 4 O 2.24886 -2.03688 0.453304 0
M  V30 5 C 0.688444 -0.251263 0.079125 0
M  V30 6 C 0.649437 1.16709 0.020884 0
M  V30 7 C -0.548611 1.81221 -0.077609 0
M  V30 8 N -0.6218 3.24701 -0.138937 0
M  V30 9 C -1.71596 1.09675 -0.120287 0
M  V30 10 C -1.74679 -0.280554 -0.067445 0
M  V30 11 C -0.497194 -0.934172 0.0343553 0
M  V30 12 C -0.546263 -2.40402 0.0999416 0
M  V30 13 F -0.0786111 -2.94415 1.25152 0
M  V30 14 F -1.85753 -2.86644 -0.105952 0
M  V30 15 F 0.125365 -2.90711 -1.02134 0
M  V30 16 N -2.97232 -0.989574 -0.110583 0
M  V30 17 H 3.06546 0.741133 -0.832025 0
M  V30 18 H 4.03863 -0.710323 -0.365623 0
M  V30 19 H 1.57737 1.70986 0.062 0
M  V30 20 H -0.919511 3.72554 -1.02469 0
M  V30 21 H -0.370262 3.78224 0.721042 0
M  V30 22 H -2.69712 1.58587 -0.199485 0
M  V30 23 H -3.43881 -1.25133 0.768687 0
M  V30 24 H -3.39761 -1.23132 -1.01524 0
M  V30 END ATOM
M  V30 BEGIN BOND
M  V30 1 1 1 2
M  V30 2 1 2 3
M  V30 3 2 3 4
M  V30 4 1 3 5
M  V30 5 2 5 6
M  V30 6 1 6 7
M  V30 7 1 7 8
M  V30 8 2 7 9
M  V30 9 1 9 10
M  V30 10 2 10 11
M  V30 11 1 11 12
M  V30 12 1 12 13
M  V30 13 1 12 14
M  V30 14 1 12 15
M  V30 15 1 10 16
M  V30 16 1 11 5
M  V30 17 1 2 17
M  V30 18 1 2 18
M  V30 19 1 6 19
M  V30 20 1 8 20
M  V30 21 1 8 21
M  V30 22 1 9 22
M  V30 23 1 16 23
M  V30 24 1 16 24
M  V30 END BOND
M  V30 END CTAB
M  END
