
     RDKit          3D

  0  0  0  0  0  0  0  0  0  0999 V3000
M  V30 BEGIN CTAB
M  V30 COUNTS 23 23 0 0 0
M  V30 BEGIN ATOM
M  V30 1 N 3.22835 -1.32714 0.972239 0
M  V30 2 C 2.16578 -0.769557 0.195884 0
M  V30 3 N 0.936238 -1.31508 0.22003 0
M  V30 4 C -0.101093 -0.818675 -0.50194 0
M  V30 5 S -1.72094 -1.56871 -0.446494 0
M  V30 6 C -2.73307 -0.853064 0.854248 0
M  V30 7 C -3.06696 0.58241 0.592858 0
M  V30 8 C -4.32288 0.952209 0.484257 0
M  V30 9 C 0.0555224 0.287636 -1.30917 0
M  V30 10 C 1.30177 0.874838 -1.35986 0
M  V30 11 C 2.34141 0.338946 -0.606723 0
M  V30 12 N 3.64573 0.913487 -0.629692 0
M  V30 13 H 3.34165 -1.11638 1.98794 0
M  V30 14 H 3.94516 -1.97538 0.558158 0
M  V30 15 H -3.66478 -1.42177 0.989853 0
M  V30 16 H -2.17788 -0.957856 1.82313 0
M  V30 17 H -2.28678 1.33899 0.489659 0
M  V30 18 H -5.11933 0.222972 0.582667 0
M  V30 19 H -4.62194 1.97565 0.29507 0
M  V30 20 H -0.790477 0.671443 -1.88419 0
M  V30 21 H 1.4727 1.72915 -1.96616 0
M  V30 22 H 4.26099 0.731987 -1.42498 0
M  V30 23 H 3.91083 1.50391 0.187149 0
M  V30 END ATOM
M  V30 BEGIN BOND
M  V30 1 1 1 2
M  V30 2 2 2 3
M  V30 3 1 3 4
M  V30 4 1 4 5
M  V30 5 1 5 6
M  V30 6 1 6 7
M  V30 7 2 7 8 CFG=2
M  V30 8 2 4 9
M  V30 9 1 9 10
M  V30 10 2 10 11
M  V30 11 1 11 12
M  V30 12 1 11 2
M  V30 13 1 1 13
M  V30 14 1 1 14
M  V30 15 1 6 15
M  V30 16 1 6 16
M  V30 17 1 7 17
M  V30 18 1 8 18
M  V30 19 1 8 19
M  V30 20 1 9 20
M  V30 21 1 10 21
M  V30 22 1 12 22
M  V30 23 1 12 23
M  V30 END BOND
M  V30 END CTAB
M  END
