
     RDKit          3D

  0  0  0  0  0  0  0  0  0  0999 V3000
M  V30 BEGIN CTAB
M  V30 COUNTS 27 26 0 0 0
M  V30 BEGIN ATOM
M  V30 1 C 0.929207 0.492809 -0.402628 0 CFG=1
M  V30 2 N 0.38765 0.707191 -1.70072 0
M  V30 3 C 0.295612 -0.550323 0.430129 0
M  V30 4 C -1.12747 -0.35377 0.783153 0
M  V30 5 C -2.06998 -0.290197 -0.376538 0
M  V30 6 C -3.50132 -0.152497 0.17811 0
M  V30 7 N -3.62493 1.03895 0.964659 0
M  V30 8 C 2.39409 0.234991 -0.570479 0
M  V30 9 O 2.92786 0.234312 -1.70022 0
M  V30 10 O 3.21134 -0.0128844 0.527899 0
M  V30 11 C 4.60021 -0.261146 0.412307 0
M  V30 12 H 0.785584 1.47097 0.153384 0
M  V30 13 H 0.512879 1.69582 -1.98941 0
M  V30 14 H 0.788751 0.0813635 -2.43354 0
M  V30 15 H 0.434558 -1.54127 -0.101478 0
M  V30 16 H 0.892667 -0.686463 1.392 0
M  V30 17 H -1.22997 0.61447 1.38123 0
M  V30 18 H -1.49871 -1.14285 1.50129 0
M  V30 19 H -1.89169 0.609507 -1.0258 0
M  V30 20 H -2.05661 -1.20126 -0.984746 0
M  V30 21 H -3.66635 -1.03676 0.793706 0
M  V30 22 H -4.16777 -0.145036 -0.705701 0
M  V30 23 H -4.13638 0.805194 1.84196 0
M  V30 24 H -4.1185 1.79876 0.466482 0
M  V30 25 H 4.8943 -0.503661 -0.629033 0
M  V30 26 H 5.1063 0.710416 0.660522 0
M  V30 27 H 4.92867 -1.03155 1.13346 0
M  V30 END ATOM
M  V30 BEGIN BOND
M  V30 1 1 1 2
M  V30 2 1 1 3
M  V30 3 1 3 4
M  V30 4 1 4 5
M  V30 5 1 5 6
M  V30 6 1 6 7
M  V30 7 1 1 8
M  V30 8 2 8 9
M  V30 9 1 8 10
M  V30 10 1 10 11
M  V30 11 1 1 12 CFG=1
M  V30 12 1 2 13
M  V30 13 1 2 14
M  V30 14 1 3 15
M  V30 15 1 3 16
M  V30 16 1 4 17
M  V30 17 1 4 18
M  V30 18 1 5 19
M  V30 19 1 5 20
M  V30 20 1 6 21
M  V30 21 1 6 22
M  V30 22 1 7 23
M  V30 23 1 7 24
M  V30 24 1 11 25
M  V30 25 1 11 26
M  V30 26 1 11 27
M  V30 END BOND
M  V30 END CTAB
M  END
