
     RDKit          3D

  0  0  0  0  0  0  0  0  0  0999 V3000
M  V30 BEGIN CTAB
M  V30 COUNTS 77 82 0 0 0
M  V30 BEGIN ATOM
M  V30 1 C -8.58828 -2.16352 1.15991 0
M  V30 2 C -7.57765 -2.21243 0.0602387 0
M  V30 3 N -6.75732 -1.00407 -0.0123799 0
M  V30 4 C -5.59715 -0.790861 0.62346 0
M  V30 5 C -4.90621 -1.75802 1.53739 0
M  V30 6 C -3.95544 -2.63924 0.789513 0
M  V30 7 C -2.86126 -1.92011 0.0740988 0
M  V30 8 C -1.96584 -1.13276 0.94222 0
M  V30 9 O -2.07038 -1.21289 2.18301 0
M  V30 10 N -0.980518 -0.281728 0.388443 0
M  V30 11 C -0.779504 -0.110313 -1.02503 0
M  V30 12 C 0.656895 -0.172037 -1.4658 0
M  V30 13 C 1.62079 0.489572 -0.508778 0
M  V30 14 C 0.801117 1.30625 0.463651 0
M  V30 15 C -0.118948 0.467193 1.28185 0
M  V30 16 O 2.36801 -0.498571 0.0822797 0
M  V30 17 C 3.21613 0.00496781 1.03505 0
M  V30 18 C 4.19104 1.03875 0.441456 0 CFG=2
M  V30 19 C 4.02123 1.08006 -1.01041 0 CFG=2
M  V30 20 C 2.52778 1.41139 -1.25691 0
M  V30 21 C 4.2627 -0.177296 -1.77338 0
M  V30 22 O 4.63814 2.2157 -1.59165 0
M  V30 23 N 5.454 0.797066 1.01274 0
M  V30 24 C 5.56995 0.601524 2.36393 0
M  V30 25 N 6.84182 0.397348 2.66147 0
M  V30 26 C 7.58786 0.450764 1.53934 0
M  V30 27 C 6.67798 0.704077 0.524787 0
M  V30 28 N 7.11591 0.812655 -0.714692 0
M  V30 29 C 8.41784 0.680226 -0.987329 0
M  V30 30 N 8.93972 0.786713 -2.30983 0
M  V30 31 N 9.31808 0.434181 -0.0180135 0
M  V30 32 C 8.93312 0.312406 1.26935 0
M  V30 33 N 9.84679 0.0551602 2.31637 0
M  V30 34 N -5.16328 0.428612 0.300611 0
M  V30 35 C -6.0496 0.988961 -0.540966 0
M  V30 36 C -7.05897 0.0774596 -0.736994 0
M  V30 37 C -8.10741 0.436104 -1.58176 0
M  V30 38 C -8.13096 1.65813 -2.19709 0
M  V30 39 C -7.11797 2.57795 -2.00271 0
M  V30 40 C -6.08231 2.23096 -1.17184 0
M  V30 41 H -8.37274 -2.90763 1.97362 0
M  V30 42 H -8.60726 -1.13023 1.57086 0
M  V30 43 H -9.61416 -2.44992 0.79277 0
M  V30 44 H -8.12462 -2.31157 -0.906924 0
M  V30 45 H -6.95471 -3.10152 0.162114 0
M  V30 46 H -4.49403 -1.21853 2.38631 0
M  V30 47 H -5.70786 -2.41834 1.95706 0
M  V30 48 H -4.56387 -3.19347 0.027145 0
M  V30 49 H -3.52169 -3.41232 1.4597 0
M  V30 50 H -3.30696 -1.28993 -0.74608 0
M  V30 51 H -2.2751 -2.70145 -0.495002 0
M  V30 52 H -1.19825 0.858851 -1.38874 0
M  V30 53 H -1.31105 -0.934356 -1.58792 0
M  V30 54 H 0.755149 0.340903 -2.46524 0
M  V30 55 H 0.916761 -1.24733 -1.62321 0
M  V30 56 H 1.39452 1.96235 1.09828 0
M  V30 57 H 0.155564 1.97986 -0.167806 0
M  V30 58 H -0.709571 1.15024 1.93391 0
M  V30 59 H 0.378573 -0.250274 1.93695 0
M  V30 60 H 2.70406 0.393635 1.93833 0
M  V30 61 H 3.80955 -0.880429 1.4163 0
M  V30 62 H 3.77699 2.02284 0.829345 0
M  V30 63 H 2.39394 1.3237 -2.35473 0
M  V30 64 H 2.35015 2.46164 -0.988509 0
M  V30 65 H 3.34399 -0.631376 -2.22872 0
M  V30 66 H 4.71761 -1.00033 -1.18544 0
M  V30 67 H 4.89531 0.0944181 -2.67164 0
M  V30 68 H 4.8613 1.94545 -2.50973 0
M  V30 69 H 4.78055 0.604508 3.10872 0
M  V30 70 H 8.62404 1.55286 -2.93643 0
M  V30 71 H 9.64595 0.0619247 -2.60663 0
M  V30 72 H 10.5577 -0.694058 2.17245 0
M  V30 73 H 9.86658 0.557108 3.22781 0
M  V30 74 H -8.87468 -0.303855 -1.70708 0
M  V30 75 H -8.97416 1.88478 -2.84641 0
M  V30 76 H -7.16033 3.54812 -2.50745 0
M  V30 77 H -5.29513 2.9634 -1.02997 0
M  V30 END ATOM
M  V30 BEGIN BOND
M  V30 1 1 1 2
M  V30 2 1 2 3
M  V30 3 1 3 4
M  V30 4 1 4 5
M  V30 5 1 5 6
M  V30 6 1 6 7
M  V30 7 1 7 8
M  V30 8 2 8 9
M  V30 9 1 8 10
M  V30 10 1 10 11
M  V30 11 1 11 12
M  V30 12 1 12 13
M  V30 13 1 13 14
M  V30 14 1 14 15
M  V30 15 1 13 16
M  V30 16 1 16 17
M  V30 17 1 17 18
M  V30 18 1 18 19
M  V30 19 1 19 20
M  V30 20 1 19 21
M  V30 21 1 19 22 CFG=3
M  V30 22 1 18 23
M  V30 23 1 23 24
M  V30 24 2 24 25
M  V30 25 1 25 26
M  V30 26 2 26 27
M  V30 27 1 27 28
M  V30 28 2 28 29
M  V30 29 1 29 30
M  V30 30 1 29 31
M  V30 31 2 31 32
M  V30 32 1 32 33
M  V30 33 2 4 34
M  V30 34 1 34 35
M  V30 35 2 35 36
M  V30 36 1 36 37
M  V30 37 2 37 38
M  V30 38 1 38 39
M  V30 39 2 39 40
M  V30 40 1 36 3
M  V30 41 1 15 10
M  V30 42 1 27 23
M  V30 43 1 40 35
M  V30 44 1 20 13
M  V30 45 1 32 26
M  V30 46 1 1 41
M  V30 47 1 1 42
M  V30 48 1 1 43
M  V30 49 1 2 44
M  V30 50 1 2 45
M  V30 51 1 5 46
M  V30 52 1 5 47
M  V30 53 1 6 48
M  V30 54 1 6 49
M  V30 55 1 7 50
M  V30 56 1 7 51
M  V30 57 1 11 52
M  V30 58 1 11 53
M  V30 59 1 12 54
M  V30 60 1 12 55
M  V30 61 1 14 56
M  V30 62 1 14 57
M  V30 63 1 15 58
M  V30 64 1 15 59
M  V30 65 1 17 60
M  V30 66 1 17 61
M  V30 67 1 18 62 CFG=1
M  V30 68 1 20 63
M  V30 69 1 20 64
M  V30 70 1 21 65
M  V30 71 1 21 66
M  V30 72 1 21 67
M  V30 73 1 22 68
M  V30 74 1 24 69
M  V30 75 1 30 70
M  V30 76 1 30 71
M  V30 77 1 33 72
M  V30 78 1 33 73
M  V30 79 1 37 74
M  V30 80 1 38 75
M  V30 81 1 39 76
M  V30 82 1 40 77
M  V30 END BOND
M  V30 END CTAB
M  END
