
     RDKit          3D

  0  0  0  0  0  0  0  0  0  0999 V3000
M  V30 BEGIN CTAB
M  V30 COUNTS 27 28 0 0 0
M  V30 BEGIN ATOM
M  V30 1 N -4.91234 0.921857 0.821632 0
M  V30 2 C -3.67894 0.500044 0.250106 0
M  V30 3 C -3.01723 -0.5995 0.765561 0
M  V30 4 C -1.82671 -1.00542 0.213211 0
M  V30 5 C -1.25616 -0.332707 -0.867669 0
M  V30 6 C -1.94506 0.755668 -1.35216 0
M  V30 7 C -3.13361 1.17817 -0.816529 0
M  V30 8 O -0.0547046 -0.785487 -1.38727 0
M  V30 9 C 1.17623 -0.527795 -0.855691 0
M  V30 10 C 1.94049 -1.60599 -0.462106 0
M  V30 11 C 3.19302 -1.42851 0.0831751 0
M  V30 12 C 3.74121 -0.168768 0.261184 0
M  V30 13 C 2.97054 0.89977 -0.134739 0
M  V30 14 C 1.69517 0.721968 -0.690108 0
M  V30 15 F 0.999412 1.83931 -1.05503 0
M  V30 16 N 5.03418 -0.00776797 0.82523 0
M  V30 17 H -4.90258 1.32663 1.78117 0
M  V30 18 H -5.83015 0.851347 0.338889 0
M  V30 19 H -3.41986 -1.15112 1.60069 0
M  V30 20 H -1.28484 -1.86836 0.600045 0
M  V30 21 H -1.56437 1.31688 -2.19979 0
M  V30 22 H -3.67609 2.04037 -1.20219 0
M  V30 23 H 1.5622 -2.60837 -0.578112 0
M  V30 24 H 3.80104 -2.2761 0.395768 0
M  V30 25 H 3.38127 1.90378 -0.00445397 0
M  V30 26 H 5.51483 0.903698 0.737012 0
M  V30 27 H 5.49306 -0.793591 1.3203 0
M  V30 END ATOM
M  V30 BEGIN BOND
M  V30 1 1 1 2
M  V30 2 2 2 3
M  V30 3 1 3 4
M  V30 4 2 4 5
M  V30 5 1 5 6
M  V30 6 2 6 7
M  V30 7 1 5 8
M  V30 8 1 8 9
M  V30 9 2 9 10
M  V30 10 1 10 11
M  V30 11 2 11 12
M  V30 12 1 12 13
M  V30 13 2 13 14
M  V30 14 1 14 15
M  V30 15 1 12 16
M  V30 16 1 7 2
M  V30 17 1 14 9
M  V30 18 1 1 17
M  V30 19 1 1 18
M  V30 20 1 3 19
M  V30 21 1 4 20
M  V30 22 1 6 21
M  V30 23 1 7 22
M  V30 24 1 10 23
M  V30 25 1 11 24
M  V30 26 1 13 25
M  V30 27 1 16 26
M  V30 28 1 16 27
M  V30 END BOND
M  V30 END CTAB
M  END
