
     RDKit          3D

  0  0  0  0  0  0  0  0  0  0999 V3000
M  V30 BEGIN CTAB
M  V30 COUNTS 17 17 0 0 0
M  V30 BEGIN ATOM
M  V30 1 N -2.44325 -0.201923 -0.285846 0
M  V30 2 C -1.56284 -0.312909 0.802856 0
M  V30 3 S -2.03319 -0.356983 2.35717 0
M  V30 4 C -0.128606 -0.39401 0.516291 0
M  V30 5 C 0.654104 -1.37334 1.08804 0
M  V30 6 N 1.96978 -1.43282 0.813537 0
M  V30 7 C 2.57 -0.544794 -0.0243367 0
M  V30 8 C 1.77349 0.429865 -0.589081 0
M  V30 9 C 0.427419 0.549907 -0.35432 0
M  V30 10 N -0.381603 1.55728 -0.941419 0
M  V30 11 H -2.86505 0.727914 -0.484734 0
M  V30 12 H -2.67612 -1.01779 -0.884961 0
M  V30 13 H 0.176216 -2.07903 1.75412 0
M  V30 14 H 3.63302 -0.615229 -0.228703 0
M  V30 15 H 2.24118 1.14752 -1.26196 0
M  V30 16 H -0.404227 2.48461 -0.472857 0
M  V30 17 H -0.950324 1.43174 -1.8038 0
M  V30 END ATOM
M  V30 BEGIN BOND
M  V30 1 1 1 2
M  V30 2 2 2 3
M  V30 3 1 2 4
M  V30 4 2 4 5
M  V30 5 1 5 6
M  V30 6 2 6 7
M  V30 7 1 7 8
M  V30 8 2 8 9
M  V30 9 1 9 10
M  V30 10 1 9 4
M  V30 11 1 1 11
M  V30 12 1 1 12
M  V30 13 1 5 13
M  V30 14 1 7 14
M  V30 15 1 8 15
M  V30 16 1 10 16
M  V30 17 1 10 17
M  V30 END BOND
M  V30 END CTAB
M  END
