
     RDKit          3D

  0  0  0  0  0  0  0  0  0  0999 V3000
M  V30 BEGIN CTAB
M  V30 COUNTS 23 24 0 0 0
M  V30 BEGIN ATOM
M  V30 1 O -3.65429 -2.15257 0.236231 0
M  V30 2 C -2.7167 -1.28557 0.165724 0
M  V30 3 C -3.00979 0.0603709 0.14017 0
M  V30 4 C -1.98645 0.986656 0.0638036 0
M  V30 5 C -0.680394 0.550069 0.0139877 0
M  V30 6 C -0.420639 -0.811321 0.0416029 0
M  V30 7 N -1.43507 -1.69107 0.11617 0
M  V30 8 C 0.8962 -1.20533 -0.00996662 0
M  V30 9 O 1.20627 -2.55813 0.0149909 0
M  V30 10 C 1.92783 -0.294026 -0.086289 0
M  V30 11 C 1.61587 1.04888 -0.110861 0
M  V30 12 C 0.315516 1.50125 -0.0617942 0
M  V30 13 N 0.00727232 2.90439 -0.0883096 0
M  V30 14 N 3.30113 -0.736411 -0.139158 0
M  V30 15 H -4.0238 0.401943 0.178776 0
M  V30 16 H -2.1695 2.04478 0.0414419 0
M  V30 17 H -1.17824 -2.71142 0.133873 0
M  V30 18 H 2.15021 -2.89632 -0.0203 0
M  V30 19 H 2.42678 1.77855 -0.17127 0
M  V30 20 H 0.174318 3.49197 0.764111 0
M  V30 21 H -0.38041 3.38392 -0.920697 0
M  V30 22 H 3.75323 -1.17669 0.692194 0
M  V30 23 H 3.88065 -0.63392 -0.994431 0
M  V30 END ATOM
M  V30 BEGIN BOND
M  V30 1 2 1 2
M  V30 2 1 2 3
M  V30 3 2 3 4
M  V30 4 1 4 5
M  V30 5 2 5 6
M  V30 6 1 6 7
M  V30 7 1 6 8
M  V30 8 1 8 9
M  V30 9 2 8 10
M  V30 10 1 10 11
M  V30 11 2 11 12
M  V30 12 1 12 13
M  V30 13 1 10 14
M  V30 14 1 7 2
M  V30 15 1 12 5
M  V30 16 1 3 15
M  V30 17 1 4 16
M  V30 18 1 7 17
M  V30 19 1 9 18
M  V30 20 1 11 19
M  V30 21 1 13 20
M  V30 22 1 13 21
M  V30 23 1 14 22
M  V30 24 1 14 23
M  V30 END BOND
M  V30 END CTAB
M  END
