
     RDKit          3D

  0  0  0  0  0  0  0  0  0  0999 V3000
M  V30 BEGIN CTAB
M  V30 COUNTS 31 32 0 0 0
M  V30 BEGIN ATOM
M  V30 1 O 2.35404 -0.786806 1.47982 0
M  V30 2 C 1.53735 -0.370924 0.602225 0
M  V30 3 N 1.99258 0.200871 -0.604465 0
M  V30 4 C 3.37466 0.360018 -0.940366 0
M  V30 5 O 3.80873 0.894114 -2.06753 0
M  V30 6 N 5.08814 0.917186 -2.11626 0
M  V30 7 C 5.62011 0.388676 -1.00091 0
M  V30 8 C 4.49778 0.0261316 -0.235771 0
M  V30 9 C 7.04489 0.207874 -0.619367 0
M  V30 10 C 0.0730437 -0.479013 0.830388 0
M  V30 11 S -0.802163 0.18755 -0.576271 0
M  V30 12 C -2.57278 0.0948667 -0.380673 0
M  V30 13 N -3.04373 -0.446043 0.76081 0
M  V30 14 C -4.36921 -0.551655 0.983725 0
M  V30 15 N -4.85556 -1.1235 2.19051 0
M  V30 16 C -5.22357 -0.09312 0.0161157 0
M  V30 17 C -4.76243 0.470474 -1.17324 0
M  V30 18 N -3.41883 0.541867 -1.32394 0
M  V30 19 N -5.66138 0.942802 -2.16992 0
M  V30 20 H 1.25533 0.524812 -1.28803 0
M  V30 21 H 4.57148 -0.427167 0.720875 0
M  V30 22 H 7.57563 -0.433244 -1.36955 0
M  V30 23 H 7.55079 1.19637 -0.661861 0
M  V30 24 H 7.09697 -0.247327 0.373849 0
M  V30 25 H -0.128071 0.123478 1.76359 0
M  V30 26 H -0.227162 -1.51593 1.08803 0
M  V30 27 H -5.57641 -0.663054 2.78317 0
M  V30 28 H -4.45332 -2.04779 2.47 0
M  V30 29 H -6.31688 -0.147489 0.130877 0
M  V30 30 H -6.13398 0.289591 -2.85451 0
M  V30 31 H -5.89605 1.96639 -2.26971 0
M  V30 END ATOM
M  V30 BEGIN BOND
M  V30 1 2 1 2
M  V30 2 1 2 3
M  V30 3 1 3 4
M  V30 4 1 4 5
M  V30 5 1 5 6
M  V30 6 2 6 7
M  V30 7 1 7 8
M  V30 8 1 7 9
M  V30 9 1 2 10
M  V30 10 1 10 11
M  V30 11 1 11 12
M  V30 12 2 12 13
M  V30 13 1 13 14
M  V30 14 1 14 15
M  V30 15 2 14 16
M  V30 16 1 16 17
M  V30 17 2 17 18
M  V30 18 1 17 19
M  V30 19 2 8 4
M  V30 20 1 18 12
M  V30 21 1 3 20
M  V30 22 1 8 21
M  V30 23 1 9 22
M  V30 24 1 9 23
M  V30 25 1 9 24
M  V30 26 1 10 25
M  V30 27 1 10 26
M  V30 28 1 15 27
M  V30 29 1 15 28
M  V30 30 1 16 29
M  V30 31 1 19 30
M  V30 32 1 19 31
M  V30 END BOND
M  V30 END CTAB
M  END
