
     RDKit          3D

  0  0  0  0  0  0  0  0  0  0999 V3000
M  V30 BEGIN CTAB
M  V30 COUNTS 44 46 0 0 0
M  V30 BEGIN ATOM
M  V30 1 N 1.54635 4.36583 0.612322 0
M  V30 2 C 0.767668 3.50792 0.441839 0
M  V30 3 C -0.192258 2.46015 0.260844 0
M  V30 4 C -1.54608 2.79102 0.339242 0
M  V30 5 N -1.89954 4.14118 0.578855 0
M  V30 6 N -2.47725 1.84155 0.189055 0
M  V30 7 C -2.13138 0.540965 -0.0418392 0
M  V30 8 C -0.814226 0.213259 -0.119357 0
M  V30 9 C 0.192194 1.16495 0.0297931 0
M  V30 10 C 1.59989 0.783732 -0.0721596 0
M  V30 11 C 2.50287 1.44567 -0.874432 0
M  V30 12 C 3.8372 1.0462 -0.927171 0
M  V30 13 C 4.27803 -0.0213077 -0.175784 0
M  V30 14 C 3.37057 -0.686139 0.629699 0
M  V30 15 C 2.05168 -0.29644 0.686278 0
M  V30 16 O 3.84582 -1.74892 1.36713 0
M  V30 17 C 3.09721 -2.54311 2.23309 0
M  V30 18 O 5.6043 -0.437829 -0.212249 0
M  V30 19 C 6.50449 0.265127 -1.04711 0
M  V30 20 C -3.20129 -0.43683 -0.194569 0
M  V30 21 C -4.52276 -0.00766093 -0.100154 0
M  V30 22 C -5.53875 -0.915919 -0.241534 0
M  V30 23 C -5.28633 -2.25426 -0.476675 0
M  V30 24 C -3.98427 -2.64461 -0.564088 0
M  V30 25 C -2.93045 -1.75536 -0.426572 0
M  V30 26 N -6.3907 -3.1619 -0.616558 0
M  V30 27 H -1.82245 4.52586 1.53166 0
M  V30 28 H -2.23124 4.73303 -0.195523 0
M  V30 29 H -0.47568 -0.81086 -0.302218 0
M  V30 30 H 2.16752 2.28826 -1.48104 0
M  V30 31 H 4.51999 1.58925 -1.56833 0
M  V30 32 H 1.33108 -0.815795 1.31898 0
M  V30 33 H 3.48838 -3.59122 2.30343 0
M  V30 34 H 3.01401 -2.06742 3.22833 0
M  V30 35 H 2.0724 -2.64859 1.81501 0
M  V30 36 H 6.60592 1.29799 -0.651179 0
M  V30 37 H 7.4818 -0.21814 -1.12748 0
M  V30 38 H 6.07795 0.377048 -2.08052 0
M  V30 39 H -4.69831 1.0375 0.083133 0
M  V30 40 H -6.57597 -0.59322 -0.169876 0
M  V30 41 H -3.7399 -3.67689 -0.746213 0
M  V30 42 H -1.9103 -2.09866 -0.50149 0
M  V30 43 H -6.75687 -3.69745 0.202413 0
M  V30 44 H -6.8313 -3.28796 -1.54311 0
M  V30 END ATOM
M  V30 BEGIN BOND
M  V30 1 3 1 2
M  V30 2 1 2 3
M  V30 3 2 3 4
M  V30 4 1 4 5
M  V30 5 1 4 6
M  V30 6 2 6 7
M  V30 7 1 7 8
M  V30 8 2 8 9
M  V30 9 1 9 10
M  V30 10 2 10 11
M  V30 11 1 11 12
M  V30 12 2 12 13
M  V30 13 1 13 14
M  V30 14 2 14 15
M  V30 15 1 14 16
M  V30 16 1 16 17
M  V30 17 1 13 18
M  V30 18 1 18 19
M  V30 19 1 7 20
M  V30 20 2 20 21
M  V30 21 1 21 22
M  V30 22 2 22 23
M  V30 23 1 23 24
M  V30 24 2 24 25
M  V30 25 1 23 26
M  V30 26 1 9 3
M  V30 27 1 15 10
M  V30 28 1 25 20
M  V30 29 1 5 27
M  V30 30 1 5 28
M  V30 31 1 8 29
M  V30 32 1 11 30
M  V30 33 1 12 31
M  V30 34 1 15 32
M  V30 35 1 17 33
M  V30 36 1 17 34
M  V30 37 1 17 35
M  V30 38 1 19 36
M  V30 39 1 19 37
M  V30 40 1 19 38
M  V30 41 1 21 39
M  V30 42 1 22 40
M  V30 43 1 24 41
M  V30 44 1 25 42
M  V30 45 1 26 43
M  V30 46 1 26 44
M  V30 END BOND
M  V30 END CTAB
M  END
