
     RDKit          3D

  0  0  0  0  0  0  0  0  0  0999 V3000
M  V30 BEGIN CTAB
M  V30 COUNTS 27 28 0 0 0
M  V30 BEGIN ATOM
M  V30 1 N 0.393255 2.36321 -1.85078 0
M  V30 2 C -0.553618 1.98717 -0.817664 0
M  V30 3 C -0.381994 0.537654 -0.432326 0
M  V30 4 C 0.996636 0.277426 0.0905752 0
M  V30 5 O 1.56422 0.806642 1.14806 0
M  V30 6 N 2.76902 0.346365 1.29684 0
M  V30 7 C 3.01589 -0.520914 0.3043 0
M  V30 8 N 1.91455 -0.555638 -0.434516 0
M  V30 9 N 4.22882 -1.2518 0.100107 0
M  V30 10 C -1.35695 0.0836244 0.597488 0
M  V30 11 C -1.13264 -1.3735 0.939048 0
M  V30 12 C -2.55111 -1.71778 0.595365 0
M  V30 13 C -2.73185 -0.288815 0.114542 0
M  V30 14 H 0.95652 1.5802 -2.19516 0
M  V30 15 H 0.928389 3.22269 -1.60767 0
M  V30 16 H -1.5637 2.12929 -1.25404 0
M  V30 17 H -0.46095 2.67408 0.0237411 0
M  V30 18 H -0.520451 -0.0825259 -1.3405 0
M  V30 19 H 5.15566 -0.84186 0.349422 0
M  V30 20 H 4.21339 -2.21171 -0.302971 0
M  V30 21 H -1.44961 0.734209 1.49948 0
M  V30 22 H -0.809426 -1.53417 1.96993 0
M  V30 23 H -0.428702 -1.9006 0.242039 0
M  V30 24 H -2.66316 -2.47141 -0.224501 0
M  V30 25 H -3.1121 -1.9894 1.49783 0
M  V30 26 H -2.84345 -0.184203 -0.97727 0
M  V30 27 H -3.57665 0.181769 0.66863 0
M  V30 END ATOM
M  V30 BEGIN BOND
M  V30 1 1 1 2
M  V30 2 1 2 3
M  V30 3 1 3 4
M  V30 4 1 4 5
M  V30 5 1 5 6
M  V30 6 2 6 7
M  V30 7 1 7 8
M  V30 8 1 7 9
M  V30 9 1 3 10
M  V30 10 1 10 11
M  V30 11 1 11 12
M  V30 12 1 12 13
M  V30 13 2 8 4
M  V30 14 1 13 10
M  V30 15 1 1 14
M  V30 16 1 1 15
M  V30 17 1 2 16
M  V30 18 1 2 17
M  V30 19 1 3 18
M  V30 20 1 9 19
M  V30 21 1 9 20
M  V30 22 1 10 21
M  V30 23 1 11 22
M  V30 24 1 11 23
M  V30 25 1 12 24
M  V30 26 1 12 25
M  V30 27 1 13 26
M  V30 28 1 13 27
M  V30 END BOND
M  V30 END CTAB
M  END
