
     RDKit          3D

  0  0  0  0  0  0  0  0  0  0999 V3000
M  V30 BEGIN CTAB
M  V30 COUNTS 66 66 0 0 0
M  V30 BEGIN ATOM
M  V30 1 C 9.77573 2.34823 -1.1259 0
M  V30 2 O 8.40243 2.56367 -1.3442 0
M  V30 3 C 7.77115 1.33519 -1.09442 0
M  V30 4 C 6.28559 1.44915 -1.29896 0
M  V30 5 O 5.60761 0.279595 -1.07128 0
M  V30 6 C 5.72663 -0.239286 0.197798 0
M  V30 7 C 5.22547 0.69922 1.26112 0
M  V30 8 O 3.89736 1.04841 1.14017 0
M  V30 9 C 3.01605 -0.00885084 1.20062 0
M  V30 10 C 1.61872 0.535727 1.07519 0
M  V30 11 O 0.594062 -0.381495 1.11566 0
M  V30 12 C 0.227456 -1.41785 0.328491 0
M  V30 13 C -0.901608 -2.14808 0.757173 0
M  V30 14 O -1.50409 -1.7243 1.92523 0
M  V30 15 C -2.50101 -0.742434 2.04034 0
M  V30 16 C -3.76719 -0.999783 1.30602 0
M  V30 17 O -4.68643 0.0222381 1.48662 0
M  V30 18 C -4.28736 1.26156 1.06801 0
M  V30 19 C -3.94828 1.33233 -0.389376 0
M  V30 20 O -4.96204 1.01136 -1.25134 0
M  V30 21 C -6.08335 1.81172 -1.15182 0
M  V30 22 C -7.15551 1.41073 -2.12928 0
M  V30 23 O -8.29486 2.19002 -2.06285 0
M  V30 24 C -8.92567 2.16936 -0.829589 0
M  V30 25 C -1.36144 -3.2316 0.0275533 0
M  V30 26 N -2.47444 -3.9746 0.458554 0
M  V30 27 C -0.730744 -3.62502 -1.1354 0
M  V30 28 N -1.24663 -4.74476 -1.84415 0
M  V30 29 C 0.36453 -2.91456 -1.55014 0
M  V30 30 C 0.852365 -1.81243 -0.83009 0
M  V30 31 H 9.96553 2.02243 -0.0910958 0
M  V30 32 H 10.3723 3.23339 -1.41754 0
M  V30 33 H 10.0281 1.45969 -1.77131 0
M  V30 34 H 7.94851 1.07022 -0.029679 0
M  V30 35 H 8.1775 0.599466 -1.80766 0
M  V30 36 H 6.08213 1.73617 -2.36388 0
M  V30 37 H 5.91608 2.31216 -0.697238 0
M  V30 38 H 5.17273 -1.19685 0.25051 0
M  V30 39 H 6.79671 -0.54 0.423848 0
M  V30 40 H 5.86537 1.61988 1.22001 0
M  V30 41 H 5.33739 0.233744 2.28247 0
M  V30 42 H 3.18634 -0.494216 2.18998 0
M  V30 43 H 3.24843 -0.681311 0.374386 0
M  V30 44 H 1.57287 1.08162 0.100575 0
M  V30 45 H 1.45654 1.29577 1.90492 0
M  V30 46 H -2.05692 0.191885 1.573 0
M  V30 47 H -2.66317 -0.441581 3.10073 0
M  V30 48 H -3.622 -1.20366 0.22527 0
M  V30 49 H -4.25571 -1.90803 1.74756 0
M  V30 50 H -5.12726 1.96242 1.31269 0
M  V30 51 H -3.42184 1.66541 1.63637 0
M  V30 52 H -3.50739 2.33706 -0.575517 0
M  V30 53 H -3.11971 0.60558 -0.569237 0
M  V30 54 H -5.84488 2.87589 -1.18472 0
M  V30 55 H -6.51042 1.59914 -0.126734 0
M  V30 56 H -6.74175 1.47996 -3.14918 0
M  V30 57 H -7.41883 0.336333 -1.98038 0
M  V30 58 H -9.83202 2.83091 -0.915396 0
M  V30 59 H -8.23165 2.65555 -0.081318 0
M  V30 60 H -9.18789 1.13619 -0.536837 0
M  V30 61 H -2.44157 -4.65601 1.24266 0
M  V30 62 H -3.38311 -3.8403 -0.0289564 0
M  V30 63 H -0.668116 -5.62506 -1.98563 0
M  V30 64 H -2.196 -4.78138 -2.26125 0
M  V30 65 H 0.863036 -3.21142 -2.45311 0
M  V30 66 H 1.70619 -1.26451 -1.18949 0
M  V30 END ATOM
M  V30 BEGIN BOND
M  V30 1 1 1 2
M  V30 2 1 2 3
M  V30 3 1 3 4
M  V30 4 1 4 5
M  V30 5 1 5 6
M  V30 6 1 6 7
M  V30 7 1 7 8
M  V30 8 1 8 9
M  V30 9 1 9 10
M  V30 10 1 10 11
M  V30 11 1 11 12
M  V30 12 2 12 13
M  V30 13 1 13 14
M  V30 14 1 14 15
M  V30 15 1 15 16
M  V30 16 1 16 17
M  V30 17 1 17 18
M  V30 18 1 18 19
M  V30 19 1 19 20
M  V30 20 1 20 21
M  V30 21 1 21 22
M  V30 22 1 22 23
M  V30 23 1 23 24
M  V30 24 1 13 25
M  V30 25 1 25 26
M  V30 26 2 25 27
M  V30 27 1 27 28
M  V30 28 1 27 29
M  V30 29 2 29 30
M  V30 30 1 30 12
M  V30 31 1 1 31
M  V30 32 1 1 32
M  V30 33 1 1 33
M  V30 34 1 3 34
M  V30 35 1 3 35
M  V30 36 1 4 36
M  V30 37 1 4 37
M  V30 38 1 6 38
M  V30 39 1 6 39
M  V30 40 1 7 40
M  V30 41 1 7 41
M  V30 42 1 9 42
M  V30 43 1 9 43
M  V30 44 1 10 44
M  V30 45 1 10 45
M  V30 46 1 15 46
M  V30 47 1 15 47
M  V30 48 1 16 48
M  V30 49 1 16 49
M  V30 50 1 18 50
M  V30 51 1 18 51
M  V30 52 1 19 52
M  V30 53 1 19 53
M  V30 54 1 21 54
M  V30 55 1 21 55
M  V30 56 1 22 56
M  V30 57 1 22 57
M  V30 58 1 24 58
M  V30 59 1 24 59
M  V30 60 1 24 60
M  V30 61 1 26 61
M  V30 62 1 26 62
M  V30 63 1 28 63
M  V30 64 1 28 64
M  V30 65 1 29 65
M  V30 66 1 30 66
M  V30 END BOND
M  V30 END CTAB
M  END
