
     RDKit          3D

  0  0  0  0  0  0  0  0  0  0999 V3000
M  V30 BEGIN CTAB
M  V30 COUNTS 81 85 0 0 0
M  V30 BEGIN ATOM
M  V30 1 N -7.01768 -3.11446 0.0391748 0
M  V30 2 C -7.97058 -2.09117 -0.194611 0
M  V30 3 N -8.59793 -2.07903 -1.3396 0
M  V30 4 N -8.28162 -1.09199 0.740314 0
M  V30 5 C -7.70071 -1.10279 2.05236 0
M  V30 6 C -6.24373 -0.806868 1.99151 0
M  V30 7 C -5.97701 0.539198 1.38888 0
M  V30 8 O -6.94558 1.26117 0.993373 0
M  V30 9 N -4.6502 0.977765 1.27291 0
M  V30 10 C -3.55272 0.161414 1.72308 0
M  V30 11 C -2.2042 0.668988 1.26838 0
M  V30 12 N -2.25898 1.23465 -0.0534349 0
M  V30 13 C -3.38357 2.10133 -0.464095 0
M  V30 14 C -4.36855 2.28893 0.675646 0
M  V30 15 C -1.23533 0.98568 -0.973173 0
M  V30 16 O -1.37647 1.46974 -2.15191 0
M  V30 17 C -0.0413026 0.204781 -0.628898 0 CFG=2
M  V30 18 C 0.899226 0.919046 0.333538 0
M  V30 19 C 1.40461 2.20472 -0.231931 0
M  V30 20 C 2.5509 2.19175 -0.983857 0
M  V30 21 C 3.0511 3.36512 -1.51781 0
M  V30 22 C 2.36915 4.53757 -1.27335 0
M  V30 23 C 1.19986 4.56004 -0.507686 0
M  V30 24 C 0.745763 3.37592 -0.00262863 0
M  V30 25 C 0.4993 5.80977 -0.264901 0
M  V30 26 N 1.0226 7.00133 -0.821996 0
M  V30 27 N -0.561805 5.84817 0.431203 0
M  V30 28 N 0.705429 -0.0413021 -1.88182 0
M  V30 29 S 0.944001 -1.7337 -2.14603 0
M  V30 30 O 0.148725 -2.54218 -1.16399 0
M  V30 31 O 0.597028 -2.12377 -3.54897 0
M  V30 32 C 2.64675 -2.03422 -1.90052 0
M  V30 33 C 3.09641 -2.32555 -0.635552 0
M  V30 34 C 4.42737 -2.56481 -0.352945 0
M  V30 35 C 5.33645 -2.50525 -1.39993 0
M  V30 36 C 4.89898 -2.21417 -2.6749 0
M  V30 37 C 3.56473 -1.97982 -2.9273 0
M  V30 38 C 6.74817 -2.75352 -1.09374 0
M  V30 39 O 7.58811 -2.70046 -2.04919 0
M  V30 40 C 7.21322 -3.05526 0.253988 0
M  V30 41 C 6.29894 -3.11379 1.29742 0
M  V30 42 C 6.7443 -3.39717 2.57126 0
M  V30 43 C 8.07365 -3.6258 2.84769 0
M  V30 44 C 9.00653 -3.5701 1.80589 0
M  V30 45 C 8.54765 -3.2866 0.541551 0
M  V30 46 C 4.89147 -2.86887 1.00674 0
M  V30 47 O 4.01935 -2.91051 1.92172 0
M  V30 48 H -7.13529 -3.78874 0.818593 0
M  V30 49 H -6.15847 -3.24354 -0.551186 0
M  V30 50 H -8.42267 -2.79002 -2.0794 0
M  V30 51 H -8.93921 -0.331479 0.48626 0
M  V30 52 H -8.16137 -0.342062 2.72153 0
M  V30 53 H -7.85665 -2.09602 2.56628 0
M  V30 54 H -5.83116 -0.714545 3.0421 0
M  V30 55 H -5.61527 -1.5311 1.46459 0
M  V30 56 H -3.68693 -0.877095 1.33849 0
M  V30 57 H -3.54059 0.165303 2.84505 0
M  V30 58 H -1.85051 1.4113 2.02875 0
M  V30 59 H -1.53438 -0.227166 1.23916 0
M  V30 60 H -2.95872 3.09228 -0.729403 0
M  V30 61 H -3.88014 1.68656 -1.3587 0
M  V30 62 H -5.30495 2.68167 0.211532 0
M  V30 63 H -4.00126 3.00714 1.42322 0
M  V30 64 H -0.258433 -0.780703 -0.204208 0
M  V30 65 H 1.75686 0.268097 0.493321 0
M  V30 66 H 0.393419 1.07246 1.28078 0
M  V30 67 H 3.10338 1.25929 -1.18524 0
M  V30 68 H 3.97142 3.36804 -2.12336 0
M  V30 69 H 2.73319 5.46735 -1.67469 0
M  V30 70 H -0.170213 3.3437 0.606594 0
M  V30 71 H 1.791 7.5539 -0.350112 0
M  V30 72 H 0.665185 7.38031 -1.72617 0
M  V30 73 H -1.07303 5.10299 0.901688 0
M  V30 74 H 0.208329 0.336654 -2.69199 0
M  V30 75 H 2.40859 -2.38295 0.222251 0
M  V30 76 H 5.59292 -2.16454 -3.49765 0
M  V30 77 H 3.20457 -1.74888 -3.92429 0
M  V30 78 H 5.99871 -3.43286 3.3564 0
M  V30 79 H 8.39569 -3.84335 3.84284 0
M  V30 80 H 10.0525 -3.74201 1.97638 0
M  V30 81 H 9.23165 -3.23392 -0.290837 0
M  V30 END ATOM
M  V30 BEGIN BOND
M  V30 1 1 1 2
M  V30 2 2 2 3 CFG=2
M  V30 3 1 2 4
M  V30 4 1 4 5
M  V30 5 1 5 6
M  V30 6 1 6 7
M  V30 7 2 7 8
M  V30 8 1 7 9
M  V30 9 1 9 10
M  V30 10 1 10 11
M  V30 11 1 11 12
M  V30 12 1 12 13
M  V30 13 1 13 14
M  V30 14 1 12 15
M  V30 15 2 15 16
M  V30 16 1 15 17
M  V30 17 1 17 18
M  V30 18 1 18 19
M  V30 19 2 19 20
M  V30 20 1 20 21
M  V30 21 2 21 22
M  V30 22 1 22 23
M  V30 23 2 23 24
M  V30 24 1 23 25
M  V30 25 1 25 26
M  V30 26 2 25 27 CFG=2
M  V30 27 1 17 28
M  V30 28 1 28 29
M  V30 29 2 29 30
M  V30 30 2 29 31
M  V30 31 1 29 32
M  V30 32 2 32 33
M  V30 33 1 33 34
M  V30 34 2 34 35
M  V30 35 1 35 36
M  V30 36 2 36 37
M  V30 37 1 35 38
M  V30 38 2 38 39
M  V30 39 1 38 40
M  V30 40 2 40 41
M  V30 41 1 41 42
M  V30 42 2 42 43
M  V30 43 1 43 44
M  V30 44 2 44 45
M  V30 45 1 41 46
M  V30 46 2 46 47
M  V30 47 1 14 9
M  V30 48 1 24 19
M  V30 49 1 37 32
M  V30 50 1 45 40
M  V30 51 1 46 34
M  V30 52 1 1 48
M  V30 53 1 1 49
M  V30 54 1 3 50
M  V30 55 1 4 51
M  V30 56 1 5 52
M  V30 57 1 5 53
M  V30 58 1 6 54
M  V30 59 1 6 55
M  V30 60 1 10 56
M  V30 61 1 10 57
M  V30 62 1 11 58
M  V30 63 1 11 59
M  V30 64 1 13 60
M  V30 65 1 13 61
M  V30 66 1 14 62
M  V30 67 1 14 63
M  V30 68 1 17 64 CFG=1
M  V30 69 1 18 65
M  V30 70 1 18 66
M  V30 71 1 20 67
M  V30 72 1 21 68
M  V30 73 1 22 69
M  V30 74 1 24 70
M  V30 75 1 26 71
M  V30 76 1 26 72
M  V30 77 1 27 73
M  V30 78 1 28 74
M  V30 79 1 33 75
M  V30 80 1 36 76
M  V30 81 1 37 77
M  V30 82 1 42 78
M  V30 83 1 43 79
M  V30 84 1 44 80
M  V30 85 1 45 81
M  V30 END BOND
M  V30 END CTAB
M  END
