
     RDKit          3D

  0  0  0  0  0  0  0  0  0  0999 V3000
M  V30 BEGIN CTAB
M  V30 COUNTS 38 40 0 0 0
M  V30 BEGIN ATOM
M  V30 1 N -3.09054 0.623911 -1.73576 0
M  V30 2 C -2.86326 0.0757324 -0.444406 0
M  V30 3 C -3.91716 -0.155455 0.416558 0
M  V30 4 C -3.70342 -0.755055 1.65217 0
M  V30 5 C -2.43989 -1.10907 2.00384 0
M  V30 6 C -1.38562 -0.87397 1.13769 0
M  V30 7 C -1.56039 -0.290013 -0.0829172 0
M  V30 8 C -0.452866 0.117164 -1.01231 0 CFG=2
M  V30 9 C 0.176785 -1.07384 -1.61092 0
M  V30 10 C 0.914954 -2.0004 -0.738965 0
M  V30 11 C 2.01495 -1.2145 -0.127475 0
M  V30 12 C 1.79567 0.1481 0.108478 0
M  V30 13 N 0.548584 0.780242 -0.11302 0
M  V30 14 S 0.137232 2.28244 0.543405 0
M  V30 15 O -1.27794 2.20722 1.1831 0
M  V30 16 O 1.0039 2.75385 1.64096 0
M  V30 17 N -0.0996964 3.50403 -0.691534 0
M  V30 18 C 2.90358 0.844199 0.612196 0
M  V30 19 C 4.09645 0.213616 0.84895 0
M  V30 20 C 4.26591 -1.1364 0.604089 0
M  V30 21 C 3.19339 -1.85779 0.103185 0
M  V30 22 H -3.3257 1.59648 -1.92994 0
M  V30 23 H -2.99582 -0.0455068 -2.55181 0
M  V30 24 H -4.9026 0.118791 0.108641 0
M  V30 25 H -4.55725 -0.920422 2.28948 0
M  V30 26 H -2.25646 -1.57459 2.97339 0
M  V30 27 H -0.404534 -1.13859 1.52386 0
M  V30 28 H -0.79727 0.867288 -1.69663 0
M  V30 29 H -0.641208 -1.67163 -2.12129 0
M  V30 30 H 0.844189 -0.780867 -2.47519 0
M  V30 31 H 1.36182 -2.82018 -1.38097 0
M  V30 32 H 0.32991 -2.54315 0.00242512 0
M  V30 33 H 0.515767 3.24269 -1.48486 0
M  V30 34 H 0.343393 4.3846 -0.287813 0
M  V30 35 H 2.77 1.90064 0.765776 0
M  V30 36 H 4.92662 0.823581 1.25155 0
M  V30 37 H 5.19881 -1.5938 0.802256 0
M  V30 38 H 3.32973 -2.92933 -0.086189 0
M  V30 END ATOM
M  V30 BEGIN BOND
M  V30 1 1 1 2
M  V30 2 2 2 3
M  V30 3 1 3 4
M  V30 4 2 4 5
M  V30 5 1 5 6
M  V30 6 2 6 7
M  V30 7 1 7 8
M  V30 8 1 8 9
M  V30 9 1 9 10
M  V30 10 1 10 11
M  V30 11 2 11 12
M  V30 12 1 12 13
M  V30 13 1 13 14
M  V30 14 2 14 15
M  V30 15 2 14 16
M  V30 16 1 14 17
M  V30 17 1 12 18
M  V30 18 2 18 19
M  V30 19 1 19 20
M  V30 20 2 20 21
M  V30 21 1 7 2
M  V30 22 1 13 8
M  V30 23 1 21 11
M  V30 24 1 1 22
M  V30 25 1 1 23
M  V30 26 1 3 24
M  V30 27 1 4 25
M  V30 28 1 5 26
M  V30 29 1 6 27
M  V30 30 1 8 28 CFG=3
M  V30 31 1 9 29
M  V30 32 1 9 30
M  V30 33 1 10 31
M  V30 34 1 10 32
M  V30 35 1 17 33
M  V30 36 1 17 34
M  V30 37 1 18 35
M  V30 38 1 19 36
M  V30 39 1 20 37
M  V30 40 1 21 38
M  V30 END BOND
M  V30 END CTAB
M  END
