
     RDKit          3D

  0  0  0  0  0  0  0  0  0  0999 V3000
M  V30 BEGIN CTAB
M  V30 COUNTS 30 31 0 0 0
M  V30 BEGIN ATOM
M  V30 1 N -5.17501 0.412822 -0.828907 0
M  V30 2 C -3.84434 0.248112 -0.325417 0
M  V30 3 C -3.57508 -0.544129 0.767356 0
M  V30 4 C -2.31506 -0.726539 1.27817 0
M  V30 5 C -1.21674 -0.0948062 0.69119 0
M  V30 6 C -1.49786 0.700055 -0.406688 0
M  V30 7 C -2.7686 0.877082 -0.913438 0
M  V30 8 C 0.112665 -0.263151 1.25475 0
M  V30 9 C 0.190175 -0.525407 2.55383 0
M  V30 10 C 1.30996 -0.147365 0.449723 0
M  V30 11 C 2.51962 0.247743 1.03314 0
M  V30 12 C 3.69389 0.340499 0.31275 0
M  V30 13 C 3.73053 0.0449887 -1.03115 0
M  V30 14 N 4.9277 0.131657 -1.80176 0
M  V30 15 C 2.55718 -0.345466 -1.62866 0
M  V30 16 C 1.36998 -0.43799 -0.893067 0
M  V30 17 H -5.58552 1.32772 -1.08366 0
M  V30 18 H -5.75079 -0.446307 -0.939716 0
M  V30 19 H -4.42757 -1.04016 1.23062 0
M  V30 20 H -2.14467 -1.36416 2.14059 0
M  V30 21 H -0.66853 1.23263 -0.897659 0
M  V30 22 H -2.9539 1.51615 -1.78813 0
M  V30 23 H 1.17265 -0.663186 3.03259 0
M  V30 24 H -0.635468 -0.61898 3.22115 0
M  V30 25 H 2.50519 0.490482 2.09851 0
M  V30 26 H 4.61821 0.645423 0.772679 0
M  V30 27 H 5.19838 1.01382 -2.30704 0
M  V30 28 H 5.59766 -0.672189 -1.90592 0
M  V30 29 H 2.57932 -0.579233 -2.68554 0
M  V30 30 H 0.476045 -0.76012 -1.40031 0
M  V30 END ATOM
M  V30 BEGIN BOND
M  V30 1 1 1 2
M  V30 2 2 2 3
M  V30 3 1 3 4
M  V30 4 2 4 5
M  V30 5 1 5 6
M  V30 6 2 6 7
M  V30 7 1 5 8
M  V30 8 2 8 9 CFG=2
M  V30 9 1 8 10
M  V30 10 2 10 11
M  V30 11 1 11 12
M  V30 12 2 12 13
M  V30 13 1 13 14
M  V30 14 1 13 15
M  V30 15 2 15 16
M  V30 16 1 7 2
M  V30 17 1 16 10
M  V30 18 1 1 17
M  V30 19 1 1 18
M  V30 20 1 3 19
M  V30 21 1 4 20
M  V30 22 1 6 21
M  V30 23 1 7 22
M  V30 24 1 9 23
M  V30 25 1 9 24
M  V30 26 1 11 25
M  V30 27 1 12 26
M  V30 28 1 14 27
M  V30 29 1 14 28
M  V30 30 1 15 29
M  V30 31 1 16 30
M  V30 END BOND
M  V30 END CTAB
M  END
