
     RDKit          3D

  0  0  0  0  0  0  0  0  0  0999 V3000
M  V30 BEGIN CTAB
M  V30 COUNTS 59 63 0 0 0
M  V30 BEGIN ATOM
M  V30 1 Cl -0.346149 6.96098 0.0122291 0
M  V30 2 C -0.581572 5.3168 0.566202 0
M  V30 3 C 0.0809247 4.27729 -0.0665792 0
M  V30 4 C -0.0774982 2.97042 0.338709 0
M  V30 5 C -0.908871 2.69656 1.3905 0
M  V30 6 C -1.57651 3.75672 2.02685 0
M  V30 7 C -1.42933 5.06385 1.63496 0
M  V30 8 C -1.13188 1.33407 1.86641 0
M  V30 9 N -0.679966 0.261888 1.0245 0
M  V30 10 C -1.54637 -0.379591 0.0476839 0
M  V30 11 C -2.90502 0.332585 0.0835502 0
M  V30 12 C -3.8522 -0.199812 -0.962572 0
M  V30 13 C -4.10385 -1.66588 -0.670188 0
M  V30 14 C -2.78346 -2.37367 -0.664201 0
M  V30 15 C -1.83321 -1.8313 0.373908 0
M  V30 16 C -2.22507 -2.28942 -2.06736 0
M  V30 17 C -1.99877 -0.831969 -2.37319 0
M  V30 18 C -1.00739 -0.313232 -1.3465 0
M  V30 19 C -3.23899 0.000900758 -2.32145 0
M  V30 20 C 0.652042 -0.205373 1.17457 0
M  V30 21 O 1.138 -1.15856 0.492658 0
M  V30 22 C 1.59656 0.387434 2.15117 0
M  V30 23 S 3.12239 1.00923 1.34028 0
M  V30 24 C 4.03948 -0.353458 0.648206 0
M  V30 25 N 4.93824 -0.965389 1.4414 0
M  V30 26 C 5.66502 -1.98943 0.980354 0
M  V30 27 N 6.6107 -2.63213 1.81875 0
M  V30 28 C 5.50911 -2.43349 -0.302379 0
M  V30 29 C 4.57559 -1.7801 -1.08824 0
M  V30 30 N 3.854 -0.756193 -0.617061 0
M  V30 31 N 4.40821 -2.23673 -2.4147 0
M  V30 32 H 0.751869 4.4827 -0.914304 0
M  V30 33 H 0.475654 2.18213 -0.197037 0
M  V30 34 H -2.24868 3.56406 2.87314 0
M  V30 35 H -1.93731 5.89268 2.11366 0
M  V30 36 H -2.23409 1.2596 2.08137 0
M  V30 37 H -0.694914 1.25627 2.90746 0
M  V30 38 H -2.78299 1.42117 -0.00906941 0
M  V30 39 H -3.3894 0.0341453 1.06573 0
M  V30 40 H -4.79864 0.339114 -0.850704 0
M  V30 41 H -4.71887 -2.10186 -1.48599 0
M  V30 42 H -4.56912 -1.75449 0.321134 0
M  V30 43 H -2.96598 -3.45026 -0.457077 0
M  V30 44 H -2.344 -1.9455 1.36184 0
M  V30 45 H -0.904667 -2.39652 0.283961 0
M  V30 46 H -1.24901 -2.80519 -2.1467 0
M  V30 47 H -3.00165 -2.6996 -2.74145 0
M  V30 48 H -1.48328 -0.774019 -3.36202 0
M  V30 49 H -0.124152 -0.995569 -1.45659 0
M  V30 50 H -0.747417 0.710894 -1.69562 0
M  V30 51 H -2.92124 1.06904 -2.39135 0
M  V30 52 H -3.93061 -0.257651 -3.14613 0
M  V30 53 H 1.85871 -0.443203 2.85624 0
M  V30 54 H 1.22729 1.22065 2.73246 0
M  V30 55 H 6.37607 -3.28076 2.59181 0
M  V30 56 H 7.61528 -2.43368 1.63745 0
M  V30 57 H 6.08439 -3.25925 -0.691906 0
M  V30 58 H 3.99895 -1.58771 -3.11449 0
M  V30 59 H 4.69365 -3.22017 -2.6843 0
M  V30 END ATOM
M  V30 BEGIN BOND
M  V30 1 1 1 2
M  V30 2 2 2 3
M  V30 3 1 3 4
M  V30 4 2 4 5
M  V30 5 1 5 6
M  V30 6 2 6 7
M  V30 7 1 5 8
M  V30 8 1 8 9
M  V30 9 1 9 10
M  V30 10 1 10 11
M  V30 11 1 11 12
M  V30 12 1 12 13
M  V30 13 1 13 14
M  V30 14 1 14 15
M  V30 15 1 14 16
M  V30 16 1 16 17
M  V30 17 1 17 18
M  V30 18 1 17 19
M  V30 19 1 9 20
M  V30 20 2 20 21
M  V30 21 1 20 22
M  V30 22 1 22 23
M  V30 23 1 23 24
M  V30 24 2 24 25
M  V30 25 1 25 26
M  V30 26 1 26 27
M  V30 27 2 26 28
M  V30 28 1 28 29
M  V30 29 2 29 30
M  V30 30 1 29 31
M  V30 31 1 7 2
M  V30 32 1 18 10
M  V30 33 1 30 24
M  V30 34 1 15 10
M  V30 35 1 19 12
M  V30 36 1 3 32
M  V30 37 1 4 33
M  V30 38 1 6 34
M  V30 39 1 7 35
M  V30 40 1 8 36
M  V30 41 1 8 37
M  V30 42 1 11 38
M  V30 43 1 11 39
M  V30 44 1 12 40
M  V30 45 1 13 41
M  V30 46 1 13 42
M  V30 47 1 14 43
M  V30 48 1 15 44
M  V30 49 1 15 45
M  V30 50 1 16 46
M  V30 51 1 16 47
M  V30 52 1 17 48
M  V30 53 1 18 49
M  V30 54 1 18 50
M  V30 55 1 19 51
M  V30 56 1 19 52
M  V30 57 1 22 53
M  V30 58 1 22 54
M  V30 59 1 27 55
M  V30 60 1 27 56
M  V30 61 1 28 57
M  V30 62 1 31 58
M  V30 63 1 31 59
M  V30 END BOND
M  V30 END CTAB
M  END
