
     RDKit          3D

  0  0  0  0  0  0  0  0  0  0999 V3000
M  V30 BEGIN CTAB
M  V30 COUNTS 34 34 0 0 0
M  V30 BEGIN ATOM
M  V30 1 N 4.14124 1.96904 0.504619 0
M  V30 2 N 2.85046 1.5065 0.298243 0
M  V30 3 C 2.60628 0.251242 0.181871 0
M  V30 4 N 1.27831 -0.24455 -0.031769 0
M  V30 5 C 1.11905 -1.51446 -0.686997 0
M  V30 6 C -0.0623277 -2.30479 -0.255885 0
M  V30 7 C -1.09032 -1.55802 0.521345 0
M  V30 8 C -1.1571 -0.132883 0.00121297 0
M  V30 9 C 0.141806 0.530387 0.408461 0
M  V30 10 O -1.24777 -0.117385 -1.37454 0
M  V30 11 C -2.28698 0.612959 0.670365 0
M  V30 12 C -3.6217 -0.0130966 0.42738 0
M  V30 13 C -2.32537 2.01226 0.0549871 0
M  V30 14 N 3.68476 -0.653812 0.268786 0
M  V30 15 H 4.77678 2.19858 -0.279661 0
M  V30 16 H 4.48305 2.08964 1.47466 0
M  V30 17 H 1.05329 -1.31035 -1.78454 0
M  V30 18 H 2.07482 -2.10281 -0.575393 0
M  V30 19 H 0.318743 -3.12996 0.416116 0
M  V30 20 H -0.566286 -2.74331 -1.15154 0
M  V30 21 H -2.07409 -2.04748 0.371679 0
M  V30 22 H -0.804244 -1.50587 1.59075 0
M  V30 23 H 0.135732 0.645256 1.53134 0
M  V30 24 H 0.176168 1.56602 0.00645535 0
M  V30 25 H -0.74552 0.659147 -1.7512 0
M  V30 26 H -2.09196 0.740144 1.73977 0
M  V30 27 H -3.74901 -0.120738 -0.682902 0
M  V30 28 H -3.75477 -0.985645 0.943397 0
M  V30 29 H -4.39452 0.664911 0.844312 0
M  V30 30 H -2.21011 1.89104 -1.03143 0
M  V30 31 H -3.29353 2.48106 0.344282 0
M  V30 32 H -1.51024 2.62431 0.507695 0
M  V30 33 H 3.94693 -1.21533 -0.552322 0
M  V30 34 H 4.19843 -0.742001 1.15584 0
M  V30 END ATOM
M  V30 BEGIN BOND
M  V30 1 1 1 2
M  V30 2 2 2 3 CFG=2
M  V30 3 1 3 4
M  V30 4 1 4 5
M  V30 5 1 5 6
M  V30 6 1 6 7
M  V30 7 1 7 8
M  V30 8 1 8 9
M  V30 9 1 8 10
M  V30 10 1 8 11
M  V30 11 1 11 12
M  V30 12 1 11 13
M  V30 13 1 3 14
M  V30 14 1 9 4
M  V30 15 1 1 15
M  V30 16 1 1 16
M  V30 17 1 5 17
M  V30 18 1 5 18
M  V30 19 1 6 19
M  V30 20 1 6 20
M  V30 21 1 7 21
M  V30 22 1 7 22
M  V30 23 1 9 23
M  V30 24 1 9 24
M  V30 25 1 10 25
M  V30 26 1 11 26
M  V30 27 1 12 27
M  V30 28 1 12 28
M  V30 29 1 12 29
M  V30 30 1 13 30
M  V30 31 1 13 31
M  V30 32 1 13 32
M  V30 33 1 14 33
M  V30 34 1 14 34
M  V30 END BOND
M  V30 END CTAB
M  END
