
     RDKit          3D

  0  0  0  0  0  0  0  0  0  0999 V3000
M  V30 BEGIN CTAB
M  V30 COUNTS 34 35 0 0 0
M  V30 BEGIN ATOM
M  V30 1 N -3.89927 0.924487 0.616709 0
M  V30 2 C -3.10815 0.112201 -0.283623 0
M  V30 3 C -1.64097 0.233178 0.138243 0
M  V30 4 N -0.75074 -0.521327 -0.62393 0
M  V30 5 C -0.487958 -0.101937 -1.96037 0
M  V30 6 C 0.989071 0.164707 -2.21973 0
M  V30 7 C 1.69373 0.61001 -0.97473 0
M  V30 8 C 1.37988 -0.0888822 0.20786 0
M  V30 9 C 0.380907 -1.13082 0.0178761 0 CFG=1
M  V30 10 C 0.105184 -2.13958 1.03272 0
M  V30 11 N -0.626013 -1.86331 2.18724 0
M  V30 12 C 2.01922 0.294809 1.33186 0
M  V30 13 C 2.94629 1.32015 1.36392 0
M  V30 14 C 3.24023 1.99083 0.204349 0
M  V30 15 C 2.60365 1.62598 -0.968817 0
M  V30 16 H -4.49552 1.61808 0.161633 0
M  V30 17 H -3.35886 1.21541 1.40055 0
M  V30 18 H -3.49374 -0.915794 -0.174146 0
M  V30 19 H -3.22535 0.406747 -1.34084 0
M  V30 20 H -1.41441 1.3335 -0.111632 0
M  V30 21 H -1.59875 0.201293 1.22435 0
M  V30 22 H -1.0039 0.843801 -2.23049 0
M  V30 23 H -0.759357 -0.945679 -2.6537 0
M  V30 24 H 1.5139 -0.772926 -2.55691 0
M  V30 25 H 1.12163 0.933178 -2.97649 0
M  V30 26 H 0.821009 -1.75731 -0.849677 0
M  V30 27 H -0.497142 -2.94765 0.491543 0
M  V30 28 H 1.05149 -2.67592 1.30388 0
M  V30 29 H -1.49724 -2.37767 2.36482 0
M  V30 30 H -0.0351681 -1.93526 3.04201 0
M  V30 31 H 1.80702 -0.204462 2.23911 0
M  V30 32 H 3.44615 1.60439 2.29855 0
M  V30 33 H 3.95385 2.79566 0.211802 0
M  V30 34 H 2.81934 2.15011 -1.91392 0
M  V30 END ATOM
M  V30 BEGIN BOND
M  V30 1 1 1 2
M  V30 2 1 2 3
M  V30 3 1 3 4
M  V30 4 1 4 5
M  V30 5 1 5 6
M  V30 6 1 6 7
M  V30 7 2 7 8
M  V30 8 1 8 9
M  V30 9 1 9 10
M  V30 10 1 10 11
M  V30 11 1 8 12
M  V30 12 2 12 13
M  V30 13 1 13 14
M  V30 14 2 14 15
M  V30 15 1 9 4
M  V30 16 1 15 7
M  V30 17 1 1 16
M  V30 18 1 1 17
M  V30 19 1 2 18
M  V30 20 1 2 19
M  V30 21 1 3 20
M  V30 22 1 3 21
M  V30 23 1 5 22
M  V30 24 1 5 23
M  V30 25 1 6 24
M  V30 26 1 6 25
M  V30 27 1 9 26 CFG=3
M  V30 28 1 10 27
M  V30 29 1 10 28
M  V30 30 1 11 29
M  V30 31 1 11 30
M  V30 32 1 12 31
M  V30 33 1 13 32
M  V30 34 1 14 33
M  V30 35 1 15 34
M  V30 END BOND
M  V30 END CTAB
M  END
