
     RDKit          3D

  0  0  0  0  0  0  0  0  0  0999 V3000
M  V30 BEGIN CTAB
M  V30 COUNTS 27 27 0 0 0
M  V30 BEGIN ATOM
M  V30 1 C -3.90195 -0.514682 -0.191436 0
M  V30 2 C -3.43808 0.522668 0.790685 0
M  V30 3 O -2.31587 1.24239 0.421278 0
M  V30 4 C -1.05358 0.817211 0.150059 0
M  V30 5 C -0.753768 -0.519335 0.233382 0
M  V30 6 C 0.550776 -0.935538 -0.0501233 0
M  V30 7 N 0.857799 -2.31072 0.0358881 0
M  V30 8 C 1.53448 -0.0586005 -0.406294 0
M  V30 9 C 1.23443 1.28304 -0.490067 0
M  V30 10 C -0.0632162 1.70089 -0.208574 0
M  V30 11 N 2.25294 2.19731 -0.859513 0
M  V30 12 O 2.82659 -0.49941 -0.683688 0
M  V30 13 C 3.8347 -0.609462 0.292967 0
M  V30 14 F 4.89802 0.198091 -0.0628821 0
M  V30 15 F 4.337 -1.90033 0.385037 0
M  V30 16 H -4.87329 -0.165078 -0.640911 0
M  V30 17 H -3.21597 -0.701576 -1.01793 0
M  V30 18 H -4.16461 -1.49062 0.312036 0
M  V30 19 H -4.29754 1.14878 1.099 0
M  V30 20 H -3.16324 -0.0484919 1.72834 0
M  V30 21 H -1.46158 -1.29445 0.508868 0
M  V30 22 H 0.737163 -2.9075 -0.795995 0
M  V30 23 H 1.19807 -2.7 0.927712 0
M  V30 24 H -0.275588 2.76222 -0.281245 0
M  V30 25 H 3.04037 2.4645 -0.239502 0
M  V30 26 H 2.20832 2.6238 -1.80436 0
M  V30 27 H 3.46761 -0.305118 1.28457 0
M  V30 END ATOM
M  V30 BEGIN BOND
M  V30 1 1 1 2
M  V30 2 1 2 3
M  V30 3 1 3 4
M  V30 4 2 4 5
M  V30 5 1 5 6
M  V30 6 1 6 7
M  V30 7 2 6 8
M  V30 8 1 8 9
M  V30 9 2 9 10
M  V30 10 1 9 11
M  V30 11 1 8 12
M  V30 12 1 12 13
M  V30 13 1 13 14
M  V30 14 1 13 15
M  V30 15 1 10 4
M  V30 16 1 1 16
M  V30 17 1 1 17
M  V30 18 1 1 18
M  V30 19 1 2 19
M  V30 20 1 2 20
M  V30 21 1 5 21
M  V30 22 1 7 22
M  V30 23 1 7 23
M  V30 24 1 10 24
M  V30 25 1 11 25
M  V30 26 1 11 26
M  V30 27 1 13 27
M  V30 END BOND
M  V30 END CTAB
M  END
