
     RDKit          3D

  0  0  0  0  0  0  0  0  0  0999 V3000
M  V30 BEGIN CTAB
M  V30 COUNTS 35 37 0 0 0
M  V30 BEGIN ATOM
M  V30 1 C 6.50071 -0.783016 0.867594 0
M  V30 2 O 5.1144 -0.800573 1.14147 0
M  V30 3 C 4.20988 -0.571685 0.109326 0
M  V30 4 C 4.66529 -0.329991 -1.16922 0
M  V30 5 C 3.78734 -0.097272 -2.22422 0
M  V30 6 C 2.42831 -0.114413 -1.9561 0
M  V30 7 C 1.94852 -0.353788 -0.685972 0
M  V30 8 C 2.83598 -0.582418 0.34716 0
M  V30 9 N 0.538519 -0.373446 -0.398257 0
M  V30 10 N 0.000360428 0.520942 0.289276 0
M  V30 11 C -1.35927 0.604956 0.632662 0
M  V30 12 C -1.88523 1.25265 1.73407 0
M  V30 13 N -1.08705 1.93789 2.68899 0
M  V30 14 N -3.19953 1.10048 1.69853 0
M  V30 15 N -3.56451 0.388199 0.633749 0
M  V30 16 C -2.45128 0.0645424 -0.0486569 0
M  V30 17 N -2.50006 -0.666825 -1.19259 0
M  V30 18 C -3.69958 -1.07276 -1.6455 0
M  V30 19 C -4.85233 -0.741171 -0.944465 0
M  V30 20 C -4.79583 0.000406412 0.214345 0
M  V30 21 N -5.9514 0.360027 0.959971 0
M  V30 22 C -6.13088 -1.18429 -1.44369 0
M  V30 23 N -7.15168 -1.53461 -1.86231 0
M  V30 24 H 6.66701 -1.56735 0.0766248 0
M  V30 25 H 7.08533 -0.976329 1.76681 0
M  V30 26 H 6.76142 0.185422 0.368437 0
M  V30 27 H 5.73445 -0.31824 -1.37143 0
M  V30 28 H 4.19365 0.0875045 -3.20944 0
M  V30 29 H 1.75039 0.0668887 -2.77881 0
M  V30 30 H 2.4864 -0.774327 1.36074 0
M  V30 31 H -1.15308 2.97559 2.71058 0
M  V30 32 H -0.447925 1.46268 3.35951 0
M  V30 33 H -3.72012 -1.65429 -2.5579 0
M  V30 34 H -6.12467 -0.142444 1.85887 0
M  V30 35 H -6.63354 1.08853 0.669834 0
M  V30 END ATOM
M  V30 BEGIN BOND
M  V30 1 1 1 2
M  V30 2 1 2 3
M  V30 3 2 3 4
M  V30 4 1 4 5
M  V30 5 2 5 6
M  V30 6 1 6 7
M  V30 7 2 7 8
M  V30 8 1 7 9
M  V30 9 2 9 10
M  V30 10 1 10 11
M  V30 11 1 11 12
M  V30 12 1 12 13
M  V30 13 2 12 14
M  V30 14 1 14 15
M  V30 15 1 15 16
M  V30 16 1 16 17
M  V30 17 2 17 18
M  V30 18 1 18 19
M  V30 19 2 19 20
M  V30 20 1 20 21
M  V30 21 1 19 22
M  V30 22 3 22 23
M  V30 23 1 8 3
M  V30 24 2 16 11
M  V30 25 1 20 15
M  V30 26 1 1 24
M  V30 27 1 1 25
M  V30 28 1 1 26
M  V30 29 1 4 27
M  V30 30 1 5 28
M  V30 31 1 6 29
M  V30 32 1 8 30
M  V30 33 1 13 31
M  V30 34 1 13 32
M  V30 35 1 18 33
M  V30 36 1 21 34
M  V30 37 1 21 35
M  V30 END BOND
M  V30 END CTAB
M  END
