
     RDKit          3D

  0  0  0  0  0  0  0  0  0  0999 V3000
M  V30 BEGIN CTAB
M  V30 COUNTS 23 24 0 0 0
M  V30 BEGIN ATOM
M  V30 1 Br 5.77302 0.315072 -0.238044 0
M  V30 2 C 3.87183 0.174871 -0.167331 0
M  V30 3 C 3.23206 -1.03734 -0.363942 0
M  V30 4 C 1.85197 -1.0628 -0.298184 0
M  V30 5 C 1.08484 0.0443393 -0.0495028 0
M  V30 6 C 1.73796 1.24228 0.143724 0
M  V30 7 C 3.11591 1.31476 0.0869712 0
M  V30 8 F 0.965482 2.33108 0.389218 0
M  V30 9 C -0.382088 -0.049907 0.00768755 0
M  V30 10 N -1.11085 1.04915 0.252882 0
M  V30 11 C -2.46894 0.996642 0.312411 0
M  V30 12 N -3.22641 2.17138 0.573394 0
M  V30 13 N -3.1046 -0.172808 0.123691 0
M  V30 14 C -2.37181 -1.2842 -0.12404 0
M  V30 15 N -1.03163 -1.2101 -0.178572 0
M  V30 16 N -3.08008 -2.50926 -0.319554 0
M  V30 17 H 3.83566 -1.91393 -0.560639 0
M  V30 18 H 1.33522 -2.01548 -0.451993 0
M  V30 19 H 3.61986 2.26846 0.241624 0
M  V30 20 H -3.33715 2.88934 -0.16501 0
M  V30 21 H -3.67253 2.31688 1.5039 0
M  V30 22 H -3.37468 -2.78875 -1.26419 0
M  V30 23 H -3.26301 -3.06967 0.545494 0
M  V30 END ATOM
M  V30 BEGIN BOND
M  V30 1 1 1 2
M  V30 2 2 2 3
M  V30 3 1 3 4
M  V30 4 2 4 5
M  V30 5 1 5 6
M  V30 6 2 6 7
M  V30 7 1 6 8
M  V30 8 1 5 9
M  V30 9 2 9 10
M  V30 10 1 10 11
M  V30 11 1 11 12
M  V30 12 2 11 13
M  V30 13 1 13 14
M  V30 14 2 14 15
M  V30 15 1 14 16
M  V30 16 1 7 2
M  V30 17 1 15 9
M  V30 18 1 3 17
M  V30 19 1 4 18
M  V30 20 1 7 19
M  V30 21 1 12 20
M  V30 22 1 12 21
M  V30 23 1 16 22
M  V30 24 1 16 23
M  V30 END BOND
M  V30 END CTAB
M  END
