
     RDKit          3D

  0  0  0  0  0  0  0  0  0  0999 V3000
M  V30 BEGIN CTAB
M  V30 COUNTS 37 39 0 0 0
M  V30 BEGIN ATOM
M  V30 1 C 7.33124 0.368786 -0.318542 0
M  V30 2 C 6.02139 0.281379 -0.291728 0
M  V30 3 C 5.33364 -0.694092 -1.15694 0
M  V30 4 S 4.39026 -1.84656 -0.125588 0
M  V30 5 C 3.05005 -1.04108 0.721683 0
M  V30 6 N 3.14445 -0.480199 1.92142 0
M  V30 7 N 1.97681 0.0138371 2.23666 0
M  V30 8 C 1.06012 -0.217262 1.22238 0
M  V30 9 N 1.75267 -0.859628 0.32201 0
M  V30 10 N 1.36929 -1.34653 -0.922857 0
M  V30 11 C -0.299766 0.232828 1.30046 0
M  V30 12 C -0.833663 1.03812 2.3383 0
M  V30 13 N -2.13065 1.25751 2.10809 0
M  V30 14 N -2.49526 0.657702 0.995701 0
M  V30 15 C -1.36714 0.023249 0.493528 0
M  V30 16 N -1.45825 -0.719534 -0.704542 0
M  V30 17 C -3.79382 0.651271 0.407598 0
M  V30 18 C -4.33407 1.79035 -0.150337 0
M  V30 19 C -5.61089 1.74943 -0.720171 0
M  V30 20 C -6.31149 0.581841 -0.719158 0
M  V30 21 C -5.79896 -0.572378 -0.169662 0
M  V30 22 C -4.5414 -0.495019 0.381505 0
M  V30 23 H 7.87407 1.06818 0.297685 0
M  V30 24 H 7.92933 -0.262048 -0.965383 0
M  V30 25 H 5.44778 0.923603 0.36312 0
M  V30 26 H 6.02684 -1.29224 -1.77009 0
M  V30 27 H 4.67805 -0.110628 -1.84864 0
M  V30 28 H 1.07075 -2.33315 -1.08468 0
M  V30 29 H 1.37754 -0.712153 -1.75249 0
M  V30 30 H -0.258363 1.3999 3.16623 0
M  V30 31 H -1.3725 -0.286099 -1.66656 0
M  V30 32 H -1.62306 -1.76023 -0.648428 0
M  V30 33 H -3.7527 2.68852 -0.131397 0
M  V30 34 H -6.04006 2.63632 -1.15833 0
M  V30 35 H -7.29344 0.544385 -1.15587 0
M  V30 36 H -6.38982 -1.48468 -0.188405 0
M  V30 37 H -4.12899 -1.3937 0.815398 0
M  V30 END ATOM
M  V30 BEGIN BOND
M  V30 1 2 1 2 CFG=2
M  V30 2 1 2 3
M  V30 3 1 3 4
M  V30 4 1 4 5
M  V30 5 2 5 6
M  V30 6 1 6 7
M  V30 7 2 7 8
M  V30 8 1 8 9
M  V30 9 1 9 10
M  V30 10 1 8 11
M  V30 11 1 11 12
M  V30 12 2 12 13
M  V30 13 1 13 14
M  V30 14 1 14 15
M  V30 15 1 15 16
M  V30 16 1 14 17
M  V30 17 2 17 18
M  V30 18 1 18 19
M  V30 19 2 19 20
M  V30 20 1 20 21
M  V30 21 2 21 22
M  V30 22 1 9 5
M  V30 23 2 15 11
M  V30 24 1 22 17
M  V30 25 1 1 23
M  V30 26 1 1 24
M  V30 27 1 2 25
M  V30 28 1 3 26
M  V30 29 1 3 27
M  V30 30 1 10 28
M  V30 31 1 10 29
M  V30 32 1 12 30
M  V30 33 1 16 31
M  V30 34 1 16 32
M  V30 35 1 18 33
M  V30 36 1 19 34
M  V30 37 1 20 35
M  V30 38 1 21 36
M  V30 39 1 22 37
M  V30 END BOND
M  V30 END CTAB
M  END
