
     RDKit          3D

  0  0  0  0  0  0  0  0  0  0999 V3000
M  V30 BEGIN CTAB
M  V30 COUNTS 15 14 0 0 0
M  V30 BEGIN ATOM
M  V30 1 N -2.24573 -0.438428 -0.593554 0
M  V30 2 C -0.869865 -0.573411 -0.13114 0
M  V30 3 C -0.183831 0.758087 0.0156654 0
M  V30 4 Br -1.13971 1.86534 1.30905 0
M  V30 5 C 1.17724 0.504597 0.620888 0
M  V30 6 N 2.00696 -0.344127 -0.169181 0
M  V30 7 H -2.81165 0.095004 0.0975712 0
M  V30 8 H -2.63315 -1.42441 -0.591054 0
M  V30 9 H -0.313767 -1.14107 -0.905846 0
M  V30 10 H -0.802427 -1.11624 0.834416 0
M  V30 11 H -0.159132 1.30597 -0.924638 0
M  V30 12 H 1.70944 1.45461 0.874974 0
M  V30 13 H 0.993145 0.00299081 1.60303 0
M  V30 14 H 2.84918 0.175919 -0.542557 0
M  V30 15 H 2.42331 -1.12482 0.418471 0
M  V30 END ATOM
M  V30 BEGIN BOND
M  V30 1 1 1 2
M  V30 2 1 2 3
M  V30 3 1 3 4
M  V30 4 1 3 5
M  V30 5 1 5 6
M  V30 6 1 1 7
M  V30 7 1 1 8
M  V30 8 1 2 9
M  V30 9 1 2 10
M  V30 10 1 3 11
M  V30 11 1 5 12
M  V30 12 1 5 13
M  V30 13 1 6 14
M  V30 14 1 6 15
M  V30 END BOND
M  V30 END CTAB
M  END
