
     RDKit          3D

  0  0  0  0  0  0  0  0  0  0999 V3000
M  V30 BEGIN CTAB
M  V30 COUNTS 24 24 0 0 0
M  V30 BEGIN ATOM
M  V30 1 O -3.58928 -1.99247 0.267087 0
M  V30 2 N -4.02727 -0.699212 0.167875 0
M  V30 3 C -3.24563 0.280332 -0.219523 0
M  V30 4 C -1.85529 -0.0612854 -0.550801 0
M  V30 5 O -0.91614 0.615658 0.254908 0
M  V30 6 C 0.429361 0.364043 0.0239393 0
M  V30 7 C 1.41679 0.98316 0.766017 0
M  V30 8 C 2.75957 0.755137 0.5617 0
M  V30 9 C 3.16929 -0.131802 -0.427633 0
M  V30 10 C 2.18469 -0.749475 -1.16796 0
M  V30 11 C 0.863626 -0.511959 -0.951994 0
M  V30 12 N 4.54353 -0.392564 -0.667806 0
M  V30 13 N -3.78013 1.57614 -0.291972 0
M  V30 14 H -3.9765 -2.7111 -0.321756 0
M  V30 15 H -1.67092 0.183883 -1.63563 0
M  V30 16 H -1.67036 -1.14924 -0.469414 0
M  V30 17 H 1.09131 1.67442 1.53683 0
M  V30 18 H 3.52787 1.24204 1.14498 0
M  V30 19 H 2.49566 -1.45099 -1.95099 0
M  V30 20 H 0.0909607 -1.00892 -1.54684 0
M  V30 21 H 4.93189 -0.554869 -1.61604 0
M  V30 22 H 5.17883 -0.419238 0.153841 0
M  V30 23 H -3.23482 2.38522 0.0690619 0
M  V30 24 H -4.71703 1.77309 -0.69844 0
M  V30 END ATOM
M  V30 BEGIN BOND
M  V30 1 1 1 2
M  V30 2 2 2 3 CFG=2
M  V30 3 1 3 4
M  V30 4 1 4 5
M  V30 5 1 5 6
M  V30 6 2 6 7
M  V30 7 1 7 8
M  V30 8 2 8 9
M  V30 9 1 9 10
M  V30 10 2 10 11
M  V30 11 1 9 12
M  V30 12 1 3 13
M  V30 13 1 11 6
M  V30 14 1 1 14
M  V30 15 1 4 15
M  V30 16 1 4 16
M  V30 17 1 7 17
M  V30 18 1 8 18
M  V30 19 1 10 19
M  V30 20 1 11 20
M  V30 21 1 12 21
M  V30 22 1 12 22
M  V30 23 1 13 23
M  V30 24 1 13 24
M  V30 END BOND
M  V30 END CTAB
M  END
