
     RDKit          3D

  0  0  0  0  0  0  0  0  0  0999 V3000
M  V30 BEGIN CTAB
M  V30 COUNTS 61 64 0 0 0
M  V30 BEGIN ATOM
M  V30 1 O -9.10807 1.28856 1.21708 0
M  V30 2 C -8.7716 0.93787 -0.0428152 0
M  V30 3 O -9.63929 1.0522 -0.948696 0
M  V30 4 C -7.40331 0.417067 -0.405316 0
M  V30 5 C -6.60464 0.393209 0.848497 0
M  V30 6 C -5.20555 -0.0950672 0.73955 0
M  V30 7 C -4.31826 0.66904 -0.143347 0
M  V30 8 O -4.72138 1.70171 -0.70951 0
M  V30 9 N -2.99571 0.235655 -0.356152 0
M  V30 10 C -2.51011 -0.960821 0.29569 0
M  V30 11 C -1.17312 -0.574509 0.943085 0
M  V30 12 C -0.161097 -0.222529 -0.0949648 0
M  V30 13 C -0.883166 -0.0174744 -1.41811 0
M  V30 14 C -2.05605 0.937023 -1.21841 0
M  V30 15 O 0.503071 0.970956 0.172756 0
M  V30 16 C 1.87807 0.860488 -0.0481116 0
M  V30 17 C 2.40726 -0.0814756 1.01311 0 CFG=1
M  V30 18 C 1.8811 -1.44581 0.728022 0 CFG=1
M  V30 19 C 0.77466 -1.38033 -0.275616 0
M  V30 20 C 2.96359 -2.35817 0.134622 0
M  V30 21 O 1.46213 -2.10711 1.90463 0
M  V30 22 N 3.81587 0.0053081 1.19514 0
M  V30 23 C 4.51175 -0.252209 2.33569 0
M  V30 24 N 5.82526 -0.0612466 2.12221 0
M  V30 25 C 5.99391 0.321608 0.842378 0
M  V30 26 C 4.74061 0.35999 0.275034 0
M  V30 27 N 4.61064 0.718142 -1.02122 0
M  V30 28 C 5.65861 1.04458 -1.79936 0
M  V30 29 N 5.52068 1.42032 -3.16021 0
M  V30 30 N 6.88832 1.00932 -1.25109 0
M  V30 31 C 7.07554 0.655239 0.0507043 0
M  V30 32 N 8.37407 0.618677 0.627879 0
M  V30 33 H -9.29147 2.22169 1.4893 0
M  V30 34 H -7.02899 1.13471 -1.15425 0
M  V30 35 H -7.58915 -0.590352 -0.832501 0
M  V30 36 H -6.67836 1.39388 1.3488 0
M  V30 37 H -7.12004 -0.294674 1.5838 0
M  V30 38 H -4.76253 -0.0457768 1.76626 0
M  V30 39 H -5.14164 -1.17836 0.472648 0
M  V30 40 H -3.20052 -1.36735 1.04998 0
M  V30 41 H -2.28028 -1.78073 -0.408798 0
M  V30 42 H -1.4047 0.303304 1.58497 0
M  V30 43 H -0.893359 -1.46952 1.5588 0
M  V30 44 H -1.17069 -0.953114 -1.90468 0
M  V30 45 H -0.191997 0.507275 -2.11836 0
M  V30 46 H -2.48765 1.21243 -2.18009 0
M  V30 47 H -1.67275 1.79108 -0.628031 0
M  V30 48 H 2.30762 1.86347 0.000820164 0
M  V30 49 H 2.04295 0.365195 -1.03527 0
M  V30 50 H 1.92887 0.258689 1.97849 0
M  V30 51 H 0.155301 -2.31401 -0.132175 0
M  V30 52 H 1.126 -1.43392 -1.32504 0
M  V30 53 H 3.86411 -2.38734 0.748025 0
M  V30 54 H 3.1445 -2.10102 -0.930584 0
M  V30 55 H 2.52239 -3.37855 0.13525 0
M  V30 56 H 1.85374 -1.65253 2.67528 0
M  V30 57 H 4.01786 -0.562727 3.24999 0
M  V30 58 H 6.22452 1.21945 -3.89839 0
M  V30 59 H 4.65949 1.93072 -3.44179 0
M  V30 60 H 8.59628 1.27188 1.40939 0
M  V30 61 H 9.13674 -0.0240429 0.323566 0
M  V30 END ATOM
M  V30 BEGIN BOND
M  V30 1 1 1 2
M  V30 2 2 2 3
M  V30 3 1 2 4
M  V30 4 1 4 5
M  V30 5 1 5 6
M  V30 6 1 6 7
M  V30 7 2 7 8
M  V30 8 1 7 9
M  V30 9 1 9 10
M  V30 10 1 10 11
M  V30 11 1 11 12
M  V30 12 1 12 13
M  V30 13 1 13 14
M  V30 14 1 12 15
M  V30 15 1 15 16
M  V30 16 1 16 17
M  V30 17 1 17 18
M  V30 18 1 18 19
M  V30 19 1 18 20
M  V30 20 1 18 21 CFG=1
M  V30 21 1 17 22
M  V30 22 1 22 23
M  V30 23 2 23 24
M  V30 24 1 24 25
M  V30 25 2 25 26
M  V30 26 1 26 27
M  V30 27 2 27 28
M  V30 28 1 28 29
M  V30 29 1 28 30
M  V30 30 2 30 31
M  V30 31 1 31 32
M  V30 32 1 14 9
M  V30 33 1 26 22
M  V30 34 1 19 12
M  V30 35 1 31 25
M  V30 36 1 1 33
M  V30 37 1 4 34
M  V30 38 1 4 35
M  V30 39 1 5 36
M  V30 40 1 5 37
M  V30 41 1 6 38
M  V30 42 1 6 39
M  V30 43 1 10 40
M  V30 44 1 10 41
M  V30 45 1 11 42
M  V30 46 1 11 43
M  V30 47 1 13 44
M  V30 48 1 13 45
M  V30 49 1 14 46
M  V30 50 1 14 47
M  V30 51 1 16 48
M  V30 52 1 16 49
M  V30 53 1 17 50 CFG=1
M  V30 54 1 19 51
M  V30 55 1 19 52
M  V30 56 1 20 53
M  V30 57 1 20 54
M  V30 58 1 20 55
M  V30 59 1 21 56
M  V30 60 1 23 57
M  V30 61 1 29 58
M  V30 62 1 29 59
M  V30 63 1 32 60
M  V30 64 1 32 61
M  V30 END BOND
M  V30 END CTAB
M  END
