
     RDKit          3D

  0  0  0  0  0  0  0  0  0  0999 V3000
M  V30 BEGIN CTAB
M  V30 COUNTS 48 49 0 0 0
M  V30 BEGIN ATOM
M  V30 1 C 6.01501 -1.48221 2.5539 0
M  V30 2 C 6.4797 -1.17504 1.15609 0
M  V30 3 O 5.31339 -0.904851 0.385041 0
M  V30 4 C 4.53589 0.169158 0.7398 0
M  V30 5 O 4.86643 0.887275 1.72297 0
M  V30 6 C 3.31575 0.532808 0.0162632 0
M  V30 7 C 2.85933 -0.267315 -1.00644 0
M  V30 8 C 1.71772 0.0891802 -1.69956 0
M  V30 9 C 0.973616 1.23114 -1.43222 0
M  V30 10 C -0.252475 1.61828 -2.15591 0
M  V30 11 C -1.56178 1.32915 -1.62277 0
M  V30 12 C -2.15099 0.0462892 -1.29453 0
M  V30 13 C -2.41396 -1.03262 -2.22859 0
M  V30 14 N -1.3157 -1.5947 -2.99065 0 CHG=1
M  V30 15 O -0.872489 -1.04939 -4.15768 0 CHG=-1
M  V30 16 O -0.729639 -2.61551 -2.55631 0
M  V30 17 C -3.08688 0.123958 -0.095326 0
M  V30 18 C -4.25839 -0.549586 0.0200811 0
M  V30 19 N -4.87062 -1.19958 -1.09194 0
M  V30 20 N -5.00337 -0.580608 1.17876 0
M  V30 21 C -4.60409 0.0622725 2.25374 0
M  V30 22 N -5.4034 0.0192256 3.44023 0
M  V30 23 N -3.46071 0.740713 2.19049 0
M  V30 24 C -2.68366 0.80229 1.07156 0
M  V30 25 O -1.63499 1.44659 1.09569 0
M  V30 26 C 1.46835 2.02527 -0.383761 0
M  V30 27 C 2.60266 1.66847 0.303486 0
M  V30 28 H 6.36847 -0.738048 3.28898 0
M  V30 29 H 6.50433 -2.44826 2.85217 0
M  V30 30 H 4.89988 -1.57888 2.60851 0
M  V30 31 H 7.07916 -1.97387 0.726143 0
M  V30 32 H 7.06652 -0.218984 1.23975 0
M  V30 33 H 3.37293 -1.17492 -1.29039 0
M  V30 34 H 1.40242 -0.545793 -2.49228 0
M  V30 35 H -0.190503 2.78537 -2.21066 0
M  V30 36 H -0.0573597 1.38847 -3.22778 0
M  V30 37 H -2.33425 1.71758 -2.48262 0
M  V30 38 H -1.83282 2.16035 -0.898645 0
M  V30 39 H -1.22204 -0.461014 -0.672131 0
M  V30 40 H -3.26352 -0.893914 -2.93216 0
M  V30 41 H -2.71664 -1.94071 -1.5948 0
M  V30 42 H -4.91288 -2.25072 -1.04154 0
M  V30 43 H -5.28378 -0.741074 -1.9131 0
M  V30 44 H -5.91407 0.903006 3.72672 0
M  V30 45 H -5.52217 -0.802392 4.03863 0
M  V30 46 H -3.14665 1.24921 3.04956 0
M  V30 47 H 0.894631 2.91845 -0.162216 0
M  V30 48 H 2.96362 2.30548 1.11966 0
M  V30 END ATOM
M  V30 BEGIN BOND
M  V30 1 1 1 2
M  V30 2 1 2 3
M  V30 3 1 3 4
M  V30 4 2 4 5
M  V30 5 1 4 6
M  V30 6 2 6 7
M  V30 7 1 7 8
M  V30 8 2 8 9
M  V30 9 1 9 10
M  V30 10 1 10 11
M  V30 11 1 11 12
M  V30 12 1 12 13
M  V30 13 1 13 14
M  V30 14 1 14 15
M  V30 15 2 14 16
M  V30 16 1 12 17
M  V30 17 2 17 18
M  V30 18 1 18 19
M  V30 19 1 18 20
M  V30 20 2 20 21
M  V30 21 1 21 22
M  V30 22 1 21 23
M  V30 23 1 23 24
M  V30 24 2 24 25
M  V30 25 1 9 26
M  V30 26 2 26 27
M  V30 27 1 27 6
M  V30 28 1 24 17
M  V30 29 1 1 28
M  V30 30 1 1 29
M  V30 31 1 1 30
M  V30 32 1 2 31
M  V30 33 1 2 32
M  V30 34 1 7 33
M  V30 35 1 8 34
M  V30 36 1 10 35
M  V30 37 1 10 36
M  V30 38 1 11 37
M  V30 39 1 11 38
M  V30 40 1 12 39
M  V30 41 1 13 40
M  V30 42 1 13 41
M  V30 43 1 19 42
M  V30 44 1 19 43
M  V30 45 1 22 44
M  V30 46 1 22 45
M  V30 47 1 23 46
M  V30 48 1 26 47
M  V30 49 1 27 48
M  V30 END BOND
M  V30 END CTAB
M  END
