
     RDKit          3D

  0  0  0  0  0  0  0  0  0  0999 V3000
M  V30 BEGIN CTAB
M  V30 COUNTS 18 19 0 0 0
M  V30 BEGIN ATOM
M  V30 1 N 3.04979 1.02687 0.0529312 0
M  V30 2 C 1.92169 0.159179 0.0336038 0
M  V30 3 C 0.581715 0.503614 0.0132194 0
M  V30 4 N -0.0383794 1.68353 0.00568794 0
M  V30 5 C -1.38341 1.78994 -0.0152206 0
M  V30 6 C -2.16856 0.65406 -0.0296548 0
M  V30 7 C -1.52526 -0.56613 -0.021836 0
M  V30 8 N -2.30038 -1.74687 -0.0361783 0
M  V30 9 N -0.181471 -0.612658 -0.000841985 0
M  V30 10 N 0.661301 -1.64147 0.0104616 0
M  V30 11 C 1.92423 -1.22748 0.0310552 0
M  V30 12 H 3.39055 1.5057 0.925463 0
M  V30 13 H 3.54818 1.18226 -0.850144 0
M  V30 14 H -1.9001 2.73457 -0.0215466 0
M  V30 15 H -3.26187 0.732965 -0.0466649 0
M  V30 16 H -2.86184 -2.02325 0.785347 0
M  V30 17 H -2.30548 -2.34187 -0.88017 0
M  V30 18 H 2.84928 -1.81297 0.0444886 0
M  V30 END ATOM
M  V30 BEGIN BOND
M  V30 1 1 1 2
M  V30 2 2 2 3
M  V30 3 1 3 4
M  V30 4 2 4 5
M  V30 5 1 5 6
M  V30 6 2 6 7
M  V30 7 1 7 8
M  V30 8 1 7 9
M  V30 9 1 9 10
M  V30 10 2 10 11
M  V30 11 1 11 2
M  V30 12 1 9 3
M  V30 13 1 1 12
M  V30 14 1 1 13
M  V30 15 1 5 14
M  V30 16 1 6 15
M  V30 17 1 8 16
M  V30 18 1 8 17
M  V30 19 1 11 18
M  V30 END BOND
M  V30 END CTAB
M  END
