
     RDKit          3D

  0  0  0  0  0  0  0  0  0  0999 V3000
M  V30 BEGIN CTAB
M  V30 COUNTS 44 45 0 0 0
M  V30 BEGIN ATOM
M  V30 1 C -5.52286 -0.672064 0.706268 0
M  V30 2 C -4.71591 0.62769 0.453573 0
M  V30 3 C -4.38508 1.27467 1.78083 0
M  V30 4 N -5.55815 1.52179 -0.30495 0
M  V30 5 C -3.49896 0.299673 -0.344294 0
M  V30 6 C -3.41535 0.583255 -1.69477 0
M  V30 7 C -2.28213 0.251593 -2.42386 0
M  V30 8 C -1.22798 -0.377785 -1.77021 0
M  V30 9 C -1.25781 -0.678534 -0.450361 0
M  V30 10 O -0.279017 -1.27936 0.222843 0
M  V30 11 C 0.948683 -1.79374 0.038116 0
M  V30 12 C 1.97092 -0.758034 -0.418402 0
M  V30 13 C 3.317 -1.4845 -0.604464 0
M  V30 14 N 4.29339 -0.584604 -1.05962 0
M  V30 15 C 4.87524 0.437731 -0.257516 0
M  V30 16 N 4.42484 1.64551 -0.294196 0
M  V30 17 S 5.41014 2.54129 0.813191 0
M  V30 18 O 4.64881 3.08903 1.96419 0
M  V30 19 O 6.2068 3.60228 0.0919322 0
M  V30 20 N 6.41664 1.21419 1.28045 0
M  V30 21 C 5.98292 0.208814 0.62362 0
M  V30 22 N 6.61103 -1.08359 0.786095 0
M  V30 23 C -2.43478 -0.317535 0.25047 0
M  V30 24 H -4.92477 -1.51403 0.316507 0
M  V30 25 H -6.49017 -0.643124 0.199461 0
M  V30 26 H -5.65038 -0.79838 1.81965 0
M  V30 27 H -4.40747 0.463605 2.5778 0
M  V30 28 H -3.41842 1.7961 1.79763 0
M  V30 29 H -5.20701 1.97972 2.11065 0
M  V30 30 H -5.82399 2.33768 0.254914 0
M  V30 31 H -6.39723 1.02328 -0.629432 0
M  V30 32 H -4.26119 1.07852 -2.17144 0
M  V30 33 H -2.21001 0.463761 -3.47598 0
M  V30 34 H -0.380487 -0.636005 -2.37646 0
M  V30 35 H 0.979901 -2.65464 -0.712631 0
M  V30 36 H 1.33097 -2.24777 0.985804 0
M  V30 37 H 2.07415 -0.00538712 0.361053 0
M  V30 38 H 1.7166 -0.393425 -1.41939 0
M  V30 39 H 3.17591 -2.31556 -1.33125 0
M  V30 40 H 3.58959 -1.97953 0.363566 0
M  V30 41 H 4.62376 -0.659378 -2.06717 0
M  V30 42 H 6.69553 -1.46545 1.70583 0
M  V30 43 H 6.95072 -1.55136 -0.0642565 0
M  V30 44 H -2.4944 -0.546415 1.3191 0
M  V30 END ATOM
M  V30 BEGIN BOND
M  V30 1 1 1 2
M  V30 2 1 2 3
M  V30 3 1 2 4
M  V30 4 1 2 5
M  V30 5 2 5 6
M  V30 6 1 6 7
M  V30 7 2 7 8
M  V30 8 1 8 9
M  V30 9 1 9 10
M  V30 10 1 10 11
M  V30 11 1 11 12
M  V30 12 1 12 13
M  V30 13 1 13 14
M  V30 14 1 14 15
M  V30 15 2 15 16
M  V30 16 1 16 17
M  V30 17 2 17 18
M  V30 18 2 17 19
M  V30 19 1 17 20
M  V30 20 2 20 21
M  V30 21 1 21 22
M  V30 22 2 9 23
M  V30 23 1 23 5
M  V30 24 1 21 15
M  V30 25 1 1 24
M  V30 26 1 1 25
M  V30 27 1 1 26
M  V30 28 1 3 27
M  V30 29 1 3 28
M  V30 30 1 3 29
M  V30 31 1 4 30
M  V30 32 1 4 31
M  V30 33 1 6 32
M  V30 34 1 7 33
M  V30 35 1 8 34
M  V30 36 1 11 35
M  V30 37 1 11 36
M  V30 38 1 12 37
M  V30 39 1 12 38
M  V30 40 1 13 39
M  V30 41 1 13 40
M  V30 42 1 14 41
M  V30 43 1 22 42
M  V30 44 1 22 43
M  V30 45 1 23 44
M  V30 END BOND
M  V30 END CTAB
M  END
