
     RDKit          3D

  0  0  0  0  0  0  0  0  0  0999 V3000
M  V30 BEGIN CTAB
M  V30 COUNTS 40 42 0 0 0
M  V30 BEGIN ATOM
M  V30 1 C 4.61574 -0.347937 -0.982427 0
M  V30 2 C 3.45009 0.368948 -1.61054 0
M  V30 3 O 2.25475 0.0888521 -0.964375 0
M  V30 4 C 1.90621 0.324916 0.337019 0
M  V30 5 C 2.75373 0.91646 1.23989 0
M  V30 6 C 2.38186 1.15038 2.56382 0
M  V30 7 C 1.11184 0.756499 2.92678 0
M  V30 8 C 0.253194 0.160984 2.02458 0
M  V30 9 C 0.617611 -0.0703986 0.720322 0
M  V30 10 C -0.296597 -0.713203 -0.264499 0
M  V30 11 C -0.701271 -2.055 0.17958 0
M  V30 12 C -1.95654 -2.4375 0.302752 0
M  V30 13 N -2.26422 -3.7848 0.748727 0
M  V30 14 O -3.01135 -1.5997 0.0220009 0
M  V30 15 C -2.75419 -0.303316 -0.406779 0
M  V30 16 C -1.47029 0.15137 -0.553498 0
M  V30 17 C -1.18001 1.45258 -0.983688 0
M  V30 18 C -2.23216 2.28242 -1.26186 0
M  V30 19 C -3.53455 1.83643 -1.11815 0
M  V30 20 C -3.81636 0.558169 -0.695478 0
M  V30 21 N -4.63423 2.70614 -1.40971 0
M  V30 22 C 0.320121 -3.04335 0.511167 0
M  V30 23 N 1.1417 -3.81289 0.7778 0
M  V30 24 H 5.11625 -0.963731 -1.75522 0
M  V30 25 H 4.29376 -1.0486 -0.179877 0
M  V30 26 H 5.35215 0.39232 -0.615281 0
M  V30 27 H 3.33788 0.0365764 -2.68543 0
M  V30 28 H 3.67603 1.45847 -1.6703 0
M  V30 29 H 3.7527 1.23148 0.961418 0
M  V30 30 H 3.07955 1.61906 3.24339 0
M  V30 31 H 0.804244 0.928773 3.94719 0
M  V30 32 H -0.742955 -0.146996 2.31316 0
M  V30 33 H 0.260151 -0.839738 -1.21623 0
M  V30 34 H -1.63794 -4.59342 0.567689 0
M  V30 35 H -3.14451 -3.95882 1.27138 0
M  V30 36 H -0.133145 1.77956 -1.08885 0
M  V30 37 H -2.07365 3.29399 -1.59657 0
M  V30 38 H -4.83804 0.188936 -0.576435 0
M  V30 39 H -5.18007 3.11954 -0.61832 0
M  V30 40 H -4.87749 2.91656 -2.40514 0
M  V30 END ATOM
M  V30 BEGIN BOND
M  V30 1 1 1 2
M  V30 2 1 2 3
M  V30 3 1 3 4
M  V30 4 2 4 5
M  V30 5 1 5 6
M  V30 6 2 6 7
M  V30 7 1 7 8
M  V30 8 2 8 9
M  V30 9 1 9 10
M  V30 10 1 10 11
M  V30 11 2 11 12
M  V30 12 1 12 13
M  V30 13 1 12 14
M  V30 14 1 14 15
M  V30 15 2 15 16
M  V30 16 1 16 17
M  V30 17 2 17 18
M  V30 18 1 18 19
M  V30 19 2 19 20
M  V30 20 1 19 21
M  V30 21 1 11 22
M  V30 22 3 22 23
M  V30 23 1 9 4
M  V30 24 1 16 10
M  V30 25 1 20 15
M  V30 26 1 1 24
M  V30 27 1 1 25
M  V30 28 1 1 26
M  V30 29 1 2 27
M  V30 30 1 2 28
M  V30 31 1 5 29
M  V30 32 1 6 30
M  V30 33 1 7 31
M  V30 34 1 8 32
M  V30 35 1 10 33
M  V30 36 1 13 34
M  V30 37 1 13 35
M  V30 38 1 17 36
M  V30 39 1 18 37
M  V30 40 1 20 38
M  V30 41 1 21 39
M  V30 42 1 21 40
M  V30 END BOND
M  V30 END CTAB
M  END
