
     RDKit          3D

  0  0  0  0  0  0  0  0  0  0999 V3000
M  V30 BEGIN CTAB
M  V30 COUNTS 44 47 0 0 0
M  V30 BEGIN ATOM
M  V30 1 Cl -9.78127 -0.446484 -0.722728 0
M  V30 2 C -8.13564 -0.353981 -0.142968 0
M  V30 3 C -7.83026 -0.0721388 1.1658 0
M  V30 4 C -6.51097 -0.00483606 1.5984 0
M  V30 5 C -5.45946 -0.216241 0.740974 0
M  V30 6 C -5.76594 -0.499706 -0.574385 0
M  V30 7 C -7.07168 -0.567654 -1.00923 0
M  V30 8 C -4.0451 -0.13763 1.20875 0
M  V30 9 C -3.75221 0.167261 2.51762 0
M  V30 10 S -2.04241 0.136378 2.50555 0
M  V30 11 C -1.80599 -0.255853 0.863387 0
M  V30 12 N -3.04355 -0.343329 0.409744 0
M  V30 13 C -0.549143 -0.439016 0.137038 0
M  V30 14 C 0.546599 0.279585 0.281689 0
M  V30 15 N 0.650686 1.35555 1.18708 0
M  V30 16 N 1.55748 -0.181108 -0.596639 0
M  V30 17 C 0.904755 -1.02056 -1.64142 0
M  V30 18 C -0.315869 -1.46121 -0.875471 0
M  V30 19 O -0.963321 -2.50584 -1.10437 0
M  V30 20 C 2.95271 0.0282494 -0.604563 0
M  V30 21 C 3.73785 -0.340402 -1.68612 0
M  V30 22 C 5.10836 -0.147606 -1.72023 0
M  V30 23 C 5.73157 0.436474 -0.63593 0
M  V30 24 C 4.97876 0.808076 0.442754 0
M  V30 25 C 3.59687 0.60199 0.452049 0
M  V30 26 S 7.45753 0.668327 -0.708999 0
M  V30 27 O 7.82489 0.885279 -2.16406 0
M  V30 28 O 7.75031 1.95282 0.0335325 0
M  V30 29 N 8.32816 -0.652385 -0.0648338 0
M  V30 30 H -8.63389 0.0978686 1.8631 0
M  V30 31 H -6.31518 0.222431 2.6484 0
M  V30 32 H -4.92875 -0.665862 -1.24655 0
M  V30 33 H -7.32384 -0.788801 -2.03691 0
M  V30 34 H -4.44796 0.375132 3.35227 0
M  V30 35 H 0.671302 2.35498 0.831268 0
M  V30 36 H 0.712862 1.26793 2.22688 0
M  V30 37 H 0.659783 -0.429584 -2.52044 0
M  V30 38 H 1.52452 -1.90726 -1.86851 0
M  V30 39 H 3.24865 -0.796238 -2.53172 0
M  V30 40 H 5.6437 -0.462128 -2.59795 0
M  V30 41 H 5.4784 1.26215 1.28001 0
M  V30 42 H 3.08518 0.920484 1.35068 0
M  V30 43 H 7.89438 -1.08695 0.755798 0
M  V30 44 H 8.67713 -1.27373 -0.79876 0
M  V30 END ATOM
M  V30 BEGIN BOND
M  V30 1 1 1 2
M  V30 2 2 2 3
M  V30 3 1 3 4
M  V30 4 2 4 5
M  V30 5 1 5 6
M  V30 6 2 6 7
M  V30 7 1 5 8
M  V30 8 2 8 9
M  V30 9 1 9 10
M  V30 10 1 10 11
M  V30 11 2 11 12
M  V30 12 1 11 13
M  V30 13 2 13 14
M  V30 14 1 14 15
M  V30 15 1 14 16
M  V30 16 1 16 17
M  V30 17 1 17 18
M  V30 18 2 18 19
M  V30 19 1 16 20
M  V30 20 2 20 21
M  V30 21 1 21 22
M  V30 22 2 22 23
M  V30 23 1 23 24
M  V30 24 2 24 25
M  V30 25 1 23 26
M  V30 26 2 26 27
M  V30 27 2 26 28
M  V30 28 1 26 29
M  V30 29 1 7 2
M  V30 30 1 12 8
M  V30 31 1 18 13
M  V30 32 1 25 20
M  V30 33 1 3 30
M  V30 34 1 4 31
M  V30 35 1 6 32
M  V30 36 1 7 33
M  V30 37 1 9 34
M  V30 38 1 15 35
M  V30 39 1 15 36
M  V30 40 1 17 37
M  V30 41 1 17 38
M  V30 42 1 21 39
M  V30 43 1 22 40
M  V30 44 1 24 41
M  V30 45 1 25 42
M  V30 46 1 29 43
M  V30 47 1 29 44
M  V30 END BOND
M  V30 END CTAB
M  END
