
     RDKit          3D

  0  0  0  0  0  0  0  0  0  0999 V3000
M  V30 BEGIN CTAB
M  V30 COUNTS 23 23 0 0 0
M  V30 BEGIN ATOM
M  V30 1 N -3.42775 -0.152065 -0.914516 0
M  V30 2 C -2.33624 -0.313405 0.0189954 0
M  V30 3 N -1.94248 0.640109 0.737177 0
M  V30 4 N -2.46281 1.93074 0.75043 0
M  V30 5 S -1.62473 -1.91204 0.111438 0
M  V30 6 C -0.163777 -1.9091 1.15196 0
M  V30 7 C 0.924757 -1.18222 0.489766 0
M  V30 8 C 1.27257 0.092777 0.827551 0
M  V30 9 C 2.30954 0.743876 0.125959 0
M  V30 10 C 2.94733 0.0612159 -0.891545 0
M  V30 11 C 2.57959 -1.21343 -1.20726 0
M  V30 12 N 1.58777 -1.79143 -0.512337 0
M  V30 13 C 2.70977 2.08485 0.444554 0
M  V30 14 N 3.02642 3.17548 0.683273 0
M  V30 15 H -3.14375 -0.0481513 -1.92449 0
M  V30 16 H -4.41648 -0.139027 -0.611308 0
M  V30 17 H -1.90041 2.65024 1.2846 0
M  V30 18 H -3.32428 2.24643 0.299652 0
M  V30 19 H 0.144706 -2.97035 1.35209 0
M  V30 20 H -0.409493 -1.42272 2.14976 0
M  V30 21 H 0.82364 0.652129 1.62245 0
M  V30 22 H 3.7515 0.539334 -1.45101 0
M  V30 23 H 3.07459 -1.76325 -2.00664 0
M  V30 END ATOM
M  V30 BEGIN BOND
M  V30 1 1 1 2
M  V30 2 2 2 3 CFG=2
M  V30 3 1 3 4
M  V30 4 1 2 5
M  V30 5 1 5 6
M  V30 6 1 6 7
M  V30 7 2 7 8
M  V30 8 1 8 9
M  V30 9 2 9 10
M  V30 10 1 10 11
M  V30 11 2 11 12
M  V30 12 1 9 13
M  V30 13 3 13 14
M  V30 14 1 12 7
M  V30 15 1 1 15
M  V30 16 1 1 16
M  V30 17 1 4 17
M  V30 18 1 4 18
M  V30 19 1 6 19
M  V30 20 1 6 20
M  V30 21 1 8 21
M  V30 22 1 10 22
M  V30 23 1 11 23
M  V30 END BOND
M  V30 END CTAB
M  END
