
     RDKit          3D

  0  0  0  0  0  0  0  0  0  0999 V3000
M  V30 BEGIN CTAB
M  V30 COUNTS 19 19 0 0 0
M  V30 BEGIN ATOM
M  V30 1 C -2.51279 0.827845 -0.870814 0
M  V30 2 C -1.66527 0.144733 0.176225 0
M  V30 3 C -0.227563 0.413783 -0.149096 0
M  V30 4 N 0.283299 1.2996 -1.02301 0
M  V30 5 N 1.59324 1.2335 -1.02075 0
M  V30 6 C 1.99462 0.298559 -0.142305 0
M  V30 7 N 0.852925 -0.201507 0.390887 0
M  V30 8 N 0.79778 -1.19199 1.34396 0
M  V30 9 N 3.33293 -0.0884823 0.166596 0
M  V30 10 O -1.94643 -1.20014 0.233101 0
M  V30 11 H -3.57443 0.567165 -0.69718 0
M  V30 12 H -2.21993 0.549106 -1.90535 0
M  V30 13 H -2.44518 1.93976 -0.715583 0
M  V30 14 H -1.94033 0.630392 1.15567 0
M  V30 15 H 0.496584 -0.982728 2.31697 0
M  V30 16 H 1.05372 -2.17509 1.12369 0
M  V30 17 H 3.74112 -0.998241 -0.140225 0
M  V30 18 H 3.94757 0.5476 0.720711 0
M  V30 19 H -1.56187 -1.61385 -0.592263 0
M  V30 END ATOM
M  V30 BEGIN BOND
M  V30 1 1 1 2
M  V30 2 1 2 3
M  V30 3 2 3 4
M  V30 4 1 4 5
M  V30 5 2 5 6
M  V30 6 1 6 7
M  V30 7 1 7 8
M  V30 8 1 6 9
M  V30 9 1 2 10
M  V30 10 1 7 3
M  V30 11 1 1 11
M  V30 12 1 1 12
M  V30 13 1 1 13
M  V30 14 1 2 14
M  V30 15 1 8 15
M  V30 16 1 8 16
M  V30 17 1 9 17
M  V30 18 1 9 18
M  V30 19 1 10 19
M  V30 END BOND
M  V30 END CTAB
M  END
