
     RDKit          3D

  0  0  0  0  0  0  0  0  0  0999 V3000
M  V30 BEGIN CTAB
M  V30 COUNTS 42 43 0 0 0
M  V30 BEGIN ATOM
M  V30 1 N 6.84664 1.52322 -0.298536 0
M  V30 2 C 5.40754 1.38091 -0.510928 0
M  V30 3 C 5.01869 -0.00443996 -0.117675 0
M  V30 4 N 3.61303 -0.25629 -0.290114 0
M  V30 5 C 2.84071 0.486317 0.653274 0
M  V30 6 C 1.35185 0.340072 0.448046 0
M  V30 7 N 1.0238 -1.03158 0.252194 0
M  V30 8 C 2.0181 -2.0822 0.199994 0
M  V30 9 C 3.37636 -1.68126 -0.214249 0
M  V30 10 C -0.342084 -1.4491 0.0975139 0
M  V30 11 O -0.606021 -2.67059 -0.0786018 0
M  V30 12 C -1.47926 -0.524905 0.131618 0
M  V30 13 O -1.27505 0.695973 0.291276 0
M  V30 14 N -2.77136 -1.02549 -0.0138422 0
M  V30 15 C -3.96685 -0.276407 0.00349667 0
M  V30 16 C -4.12006 1.03118 0.362925 0
M  V30 17 C -5.35306 1.69801 0.339249 0
M  V30 18 C -6.49221 1.04943 -0.0565355 0
M  V30 19 C -6.36092 -0.282106 -0.425227 0
M  V30 20 C -5.15693 -0.921606 -0.398558 0
M  V30 21 Cl -7.84168 -1.10227 -0.933328 0
M  V30 22 N -7.75481 1.70614 -0.0895149 0
M  V30 23 H 7.05857 1.79479 0.694974 0
M  V30 24 H 7.35912 0.63198 -0.484475 0
M  V30 25 H 5.23203 1.52332 -1.59867 0
M  V30 26 H 4.93459 2.18065 0.067248 0
M  V30 27 H 5.65317 -0.713127 -0.698715 0
M  V30 28 H 5.32189 -0.118361 0.970905 0
M  V30 29 H 3.0979 0.184746 1.69263 0
M  V30 30 H 3.05806 1.57885 0.482221 0
M  V30 31 H 0.882251 0.761114 1.38361 0
M  V30 32 H 1.03457 1.00663 -0.387899 0
M  V30 33 H 1.64572 -2.8169 -0.574336 0
M  V30 34 H 2.02881 -2.58011 1.19785 0
M  V30 35 H 3.70363 -2.12979 -1.19213 0
M  V30 36 H 4.10966 -2.07437 0.54364 0
M  V30 37 H -2.83878 -2.09549 -0.147386 0
M  V30 38 H -3.27474 1.59726 0.692182 0
M  V30 39 H -5.42247 2.73615 0.632451 0
M  V30 40 H -5.09522 -1.96138 -0.691657 0
M  V30 41 H -8.15384 2.17244 -0.925589 0
M  V30 42 H -8.31136 1.7186 0.7844 0
M  V30 END ATOM
M  V30 BEGIN BOND
M  V30 1 1 1 2
M  V30 2 1 2 3
M  V30 3 1 3 4
M  V30 4 1 4 5
M  V30 5 1 5 6
M  V30 6 1 6 7
M  V30 7 1 7 8
M  V30 8 1 8 9
M  V30 9 1 7 10
M  V30 10 2 10 11
M  V30 11 1 10 12
M  V30 12 2 12 13
M  V30 13 1 12 14
M  V30 14 1 14 15
M  V30 15 2 15 16
M  V30 16 1 16 17
M  V30 17 2 17 18
M  V30 18 1 18 19
M  V30 19 2 19 20
M  V30 20 1 19 21
M  V30 21 1 18 22
M  V30 22 1 9 4
M  V30 23 1 20 15
M  V30 24 1 1 23
M  V30 25 1 1 24
M  V30 26 1 2 25
M  V30 27 1 2 26
M  V30 28 1 3 27
M  V30 29 1 3 28
M  V30 30 1 5 29
M  V30 31 1 5 30
M  V30 32 1 6 31
M  V30 33 1 6 32
M  V30 34 1 8 33
M  V30 35 1 8 34
M  V30 36 1 9 35
M  V30 37 1 9 36
M  V30 38 1 14 37
M  V30 39 1 16 38
M  V30 40 1 17 39
M  V30 41 1 20 40
M  V30 42 1 22 41
M  V30 43 1 22 42
M  V30 END BOND
M  V30 END CTAB
M  END
