
     RDKit          3D

  0  0  0  0  0  0  0  0  0  0999 V3000
M  V30 BEGIN CTAB
M  V30 COUNTS 19 18 0 0 0
M  V30 BEGIN ATOM
M  V30 1 N 3.24201 0.732632 0.654022 0
M  V30 2 C 1.87771 0.532984 0.192567 0
M  V30 3 C 1.31585 -0.777026 0.643811 0
M  V30 4 N -0.0276598 -0.898573 0.136795 0
M  V30 5 C -1.11933 -0.0598285 0.435245 0
M  V30 6 O -0.980721 0.900431 1.21373 0
M  V30 7 C -2.42924 -0.344253 -0.194519 0
M  V30 8 N -3.36927 0.635914 0.25988 0
M  V30 9 H 3.83249 1.08836 -0.108329 0
M  V30 10 H 3.66192 -0.12221 1.05997 0
M  V30 11 H 1.82898 0.534498 -0.934421 0
M  V30 12 H 1.2477 1.35595 0.55366 0
M  V30 13 H 1.95841 -1.63649 0.321568 0
M  V30 14 H 1.26361 -0.811783 1.77063 0
M  V30 15 H -0.14807 -1.73179 -0.532658 0
M  V30 16 H -2.38018 -0.225104 -1.31749 0
M  V30 17 H -2.73821 -1.38677 0.0146726 0
M  V30 18 H -2.86435 1.5724 0.224459 0
M  V30 19 H -4.17166 0.640661 -0.400657 0
M  V30 END ATOM
M  V30 BEGIN BOND
M  V30 1 1 1 2
M  V30 2 1 2 3
M  V30 3 1 3 4
M  V30 4 1 4 5
M  V30 5 2 5 6
M  V30 6 1 5 7
M  V30 7 1 7 8
M  V30 8 1 1 9
M  V30 9 1 1 10
M  V30 10 1 2 11
M  V30 11 1 2 12
M  V30 12 1 3 13
M  V30 13 1 3 14
M  V30 14 1 4 15
M  V30 15 1 7 16
M  V30 16 1 7 17
M  V30 17 1 8 18
M  V30 18 1 8 19
M  V30 END BOND
M  V30 END CTAB
M  END
