
     RDKit          3D

  0  0  0  0  0  0  0  0  0  0999 V3000
M  V30 BEGIN CTAB
M  V30 COUNTS 74 77 0 0 0
M  V30 BEGIN ATOM
M  V30 1 C 7.58594 -0.896231 1.36072 0
M  V30 2 C 6.37375 -0.901538 0.450717 0
M  V30 3 C 6.84575 -1.01564 -0.958817 0
M  V30 4 N 8.005 -1.6024 -1.29688 0
M  V30 5 C 8.42629 -1.68608 -2.5979 0
M  V30 6 N 9.66935 -2.32491 -2.88299 0
M  V30 7 N 7.62624 -1.15325 -3.52764 0
M  V30 8 C 6.45753 -0.556711 -3.23634 0
M  V30 9 C 6.01823 -0.461779 -1.94863 0
M  V30 10 C 4.75634 0.154447 -1.53767 0
M  V30 11 C 3.6396 -0.667408 -1.33392 0
M  V30 12 C 2.4427 -0.136829 -0.929615 0
M  V30 13 C 2.30861 1.21869 -0.713459 0
M  V30 14 C 3.38333 2.01752 -0.910388 0
M  V30 15 C 4.60267 1.49316 -1.32003 0
M  V30 16 O 1.08726 1.72138 -0.300677 0
M  V30 17 C -0.0121996 0.888228 -0.10387 0
M  V30 18 C -1.15509 1.8189 0.417154 0
M  V30 19 C -0.61565 2.39976 1.66546 0
M  V30 20 C -1.35036 3.38251 2.45724 0
M  V30 21 N -2.61048 3.02192 2.94896 0
M  V30 22 C -3.84936 2.84713 2.24642 0
M  V30 23 O -3.82706 3.07948 1.0159 0
M  V30 24 C -5.04465 2.42214 2.97346 0
M  V30 25 C -6.22504 1.94782 2.26781 0
M  V30 26 C -6.26682 0.678082 1.51368 0
M  V30 27 C -5.33153 0.501918 0.388053 0
M  V30 28 C -5.56206 -0.77452 -0.391917 0
M  V30 29 S -4.27429 -0.741211 -1.72512 0
M  V30 30 C -4.08051 -2.5614 -1.84043 0
M  V30 31 C -5.20909 -2.99973 -0.997891 0
M  V30 32 C -5.16789 -2.04663 0.2194 0
M  V30 33 N -6.12865 -2.70712 1.05173 0
M  V30 34 C -5.89619 -4.10562 0.834325 0
M  V30 35 O -6.32132 -5.09072 1.53095 0
M  V30 36 N -5.07449 -4.25125 -0.339488 0
M  V30 37 N 5.61848 -0.000590156 -4.25151 0
M  V30 38 H 8.37282 -0.306713 0.861825 0
M  V30 39 H 7.29657 -0.376555 2.29316 0
M  V30 40 H 7.89869 -1.93012 1.62773 0
M  V30 41 H 5.69304 -1.6943 0.752423 0
M  V30 42 H 5.91573 0.123871 0.588526 0
M  V30 43 H 10.1434 -2.92238 -2.17517 0
M  V30 44 H 10.113 -2.19982 -3.79924 0
M  V30 45 H 3.74402 -1.73776 -1.50524 0
M  V30 46 H 1.58112 -0.786177 -0.775846 0
M  V30 47 H 3.33138 3.09129 -0.755351 0
M  V30 48 H 5.47221 2.13089 -1.48442 0
M  V30 49 H -0.347246 0.315267 -0.970765 0
M  V30 50 H 0.169372 0.179456 0.727884 0
M  V30 51 H -2.03382 1.14586 0.583722 0
M  V30 52 H -1.37272 2.50869 -0.393316 0
M  V30 53 H 0.439602 2.8339 1.47775 0
M  V30 54 H -0.344777 1.47174 2.31172 0
M  V30 55 H -0.736515 3.79096 3.31442 0
M  V30 56 H -1.49213 4.33073 1.79515 0
M  V30 57 H -2.67603 2.84279 4.01632 0
M  V30 58 H -5.39766 3.27466 3.65758 0
M  V30 59 H -4.70803 1.63117 3.7151 0
M  V30 60 H -6.60608 2.77201 1.55919 0
M  V30 61 H -7.07882 1.93405 3.02602 0
M  V30 62 H -7.34452 0.591889 1.12969 0
M  V30 63 H -6.10464 -0.216971 2.2127 0
M  V30 64 H -5.48599 1.31993 -0.342378 0
M  V30 65 H -4.28181 0.415849 0.758574 0
M  V30 66 H -6.57941 -0.805744 -0.829692 0
M  V30 67 H -4.29536 -2.80852 -2.90842 0
M  V30 68 H -3.09601 -2.90621 -1.51712 0
M  V30 69 H -6.16492 -2.86828 -1.54287 0
M  V30 70 H -4.1508 -2.0463 0.625389 0
M  V30 71 H -6.87175 -2.3873 1.70383 0
M  V30 72 H -4.52035 -5.07019 -0.632721 0
M  V30 73 H 6.07807 0.300124 -5.13437 0
M  V30 74 H 4.59597 0.120055 -4.16858 0
M  V30 END ATOM
M  V30 BEGIN BOND
M  V30 1 1 1 2
M  V30 2 1 2 3
M  V30 3 2 3 4
M  V30 4 1 4 5
M  V30 5 1 5 6
M  V30 6 2 5 7
M  V30 7 1 7 8
M  V30 8 2 8 9
M  V30 9 1 9 10
M  V30 10 2 10 11
M  V30 11 1 11 12
M  V30 12 2 12 13
M  V30 13 1 13 14
M  V30 14 2 14 15
M  V30 15 1 13 16
M  V30 16 1 16 17
M  V30 17 1 17 18
M  V30 18 1 18 19
M  V30 19 1 19 20
M  V30 20 1 20 21
M  V30 21 1 21 22
M  V30 22 2 22 23
M  V30 23 1 22 24
M  V30 24 1 24 25
M  V30 25 1 25 26
M  V30 26 1 26 27
M  V30 27 1 27 28
M  V30 28 1 28 29
M  V30 29 1 29 30
M  V30 30 1 30 31
M  V30 31 1 31 32
M  V30 32 1 32 33
M  V30 33 1 33 34
M  V30 34 2 34 35
M  V30 35 1 34 36
M  V30 36 1 8 37
M  V30 37 1 9 3
M  V30 38 1 15 10
M  V30 39 1 32 28
M  V30 40 1 36 31
M  V30 41 1 1 38
M  V30 42 1 1 39
M  V30 43 1 1 40
M  V30 44 1 2 41
M  V30 45 1 2 42
M  V30 46 1 6 43
M  V30 47 1 6 44
M  V30 48 1 11 45
M  V30 49 1 12 46
M  V30 50 1 14 47
M  V30 51 1 15 48
M  V30 52 1 17 49
M  V30 53 1 17 50
M  V30 54 1 18 51
M  V30 55 1 18 52
M  V30 56 1 19 53
M  V30 57 1 19 54
M  V30 58 1 20 55
M  V30 59 1 20 56
M  V30 60 1 21 57
M  V30 61 1 24 58
M  V30 62 1 24 59
M  V30 63 1 25 60
M  V30 64 1 25 61
M  V30 65 1 26 62
M  V30 66 1 26 63
M  V30 67 1 27 64
M  V30 68 1 27 65
M  V30 69 1 28 66
M  V30 70 1 30 67
M  V30 71 1 30 68
M  V30 72 1 31 69
M  V30 73 1 32 70
M  V30 74 1 33 71
M  V30 75 1 36 72
M  V30 76 1 37 73
M  V30 77 1 37 74
M  V30 END BOND
M  V30 END CTAB
M  END
