
     RDKit          3D

  0  0  0  0  0  0  0  0  0  0999 V3000
M  V30 BEGIN CTAB
M  V30 COUNTS 25 25 0 0 0
M  V30 BEGIN ATOM
M  V30 1 N 1.59678 -1.73568 -0.776733 0
M  V30 2 C 1.58023 -0.330166 -0.469157 0
M  V30 3 C 0.225374 0.147055 -0.00680218 0
M  V30 4 C 0.228341 1.62662 0.311596 0
M  V30 5 N 1.16786 1.96182 1.35925 0
M  V30 6 C -0.757837 -0.0133636 -1.16572 0
M  V30 7 C -2.08853 -0.120181 -0.433184 0
M  V30 8 C -1.74328 -1.09657 0.665773 0
M  V30 9 C -0.345966 -0.679914 1.09586 0
M  V30 10 H 2.27556 -1.99643 -1.52037 0
M  V30 11 H 1.75308 -2.34375 0.0592449 0
M  V30 12 H 1.81584 0.207954 -1.42794 0
M  V30 13 H 2.39236 -0.106138 0.215781 0
M  V30 14 H 0.52109 2.19383 -0.595459 0
M  V30 15 H -0.770015 1.95982 0.59402 0
M  V30 16 H 2.15667 2.03152 0.976622 0
M  V30 17 H 0.938453 2.94398 1.65581 0
M  V30 18 H -0.564657 -0.928625 -1.73493 0
M  V30 19 H -0.784891 0.905773 -1.78572 0
M  V30 20 H -2.37749 0.8482 -0.0137162 0
M  V30 21 H -2.87652 -0.535559 -1.09059 0
M  V30 22 H -1.74615 -2.11334 0.221087 0
M  V30 23 H -2.44475 -1.08766 1.50141 0
M  V30 24 H 0.20435 -1.62125 1.29361 0
M  V30 25 H -0.355906 -0.117957 2.04778 0
M  V30 END ATOM
M  V30 BEGIN BOND
M  V30 1 1 1 2
M  V30 2 1 2 3
M  V30 3 1 3 4
M  V30 4 1 4 5
M  V30 5 1 3 6
M  V30 6 1 6 7
M  V30 7 1 7 8
M  V30 8 1 8 9
M  V30 9 1 9 3
M  V30 10 1 1 10
M  V30 11 1 1 11
M  V30 12 1 2 12
M  V30 13 1 2 13
M  V30 14 1 4 14
M  V30 15 1 4 15
M  V30 16 1 5 16
M  V30 17 1 5 17
M  V30 18 1 6 18
M  V30 19 1 6 19
M  V30 20 1 7 20
M  V30 21 1 7 21
M  V30 22 1 8 22
M  V30 23 1 8 23
M  V30 24 1 9 24
M  V30 25 1 9 25
M  V30 END BOND
M  V30 END CTAB
M  END
