
     RDKit          3D

  0  0  0  0  0  0  0  0  0  0999 V3000
M  V30 BEGIN CTAB
M  V30 COUNTS 27 27 0 0 0
M  V30 BEGIN ATOM
M  V30 1 C 3.10743 0.793327 -0.26344 0
M  V30 2 C 1.945 0.582071 0.64594 0
M  V30 3 C 0.630342 0.401296 -0.109136 0
M  V30 4 C -0.444883 0.199534 0.930139 0
M  V30 5 N -1.34745 -0.783563 0.426437 0
M  V30 6 C -0.618341 -1.64744 -0.446825 0
M  V30 7 C 0.614217 -0.888645 -0.893336 0
M  V30 8 N 0.497986 -0.669324 -2.30955 0
M  V30 9 S -2.75476 -0.120627 -0.307969 0
M  V30 10 O -3.59431 -1.29769 -0.780603 0
M  V30 11 O -2.35081 0.643215 -1.52375 0
M  V30 12 N -3.70098 0.795545 0.765034 0
M  V30 13 H 3.72203 -0.135036 -0.279009 0
M  V30 14 H 2.83256 1.13085 -1.27756 0
M  V30 15 H 3.74245 1.6117 0.187001 0
M  V30 16 H 1.77528 1.41717 1.3567 0
M  V30 17 H 2.04839 -0.348904 1.27499 0
M  V30 18 H 0.419817 1.22841 -0.790074 0
M  V30 19 H 0.0160434 -0.208728 1.87465 0
M  V30 20 H -0.9408 1.14435 1.221 0
M  V30 21 H -0.259659 -2.54638 0.0929133 0
M  V30 22 H -1.22133 -2.0046 -1.31825 0
M  V30 23 H 1.55203 -1.41647 -0.68427 0
M  V30 24 H 0.34179 0.330853 -2.56106 0
M  V30 25 H 1.27309 -1.09828 -2.86703 0
M  V30 26 H -3.06868 1.36062 1.38965 0
M  V30 27 H -4.21647 1.52675 0.190669 0
M  V30 END ATOM
M  V30 BEGIN BOND
M  V30 1 1 1 2
M  V30 2 1 2 3
M  V30 3 1 3 4
M  V30 4 1 4 5
M  V30 5 1 5 6
M  V30 6 1 6 7
M  V30 7 1 7 8
M  V30 8 1 5 9
M  V30 9 2 9 10
M  V30 10 2 9 11
M  V30 11 1 9 12
M  V30 12 1 7 3
M  V30 13 1 1 13
M  V30 14 1 1 14
M  V30 15 1 1 15
M  V30 16 1 2 16
M  V30 17 1 2 17
M  V30 18 1 3 18
M  V30 19 1 4 19
M  V30 20 1 4 20
M  V30 21 1 6 21
M  V30 22 1 6 22
M  V30 23 1 7 23
M  V30 24 1 8 24
M  V30 25 1 8 25
M  V30 26 1 12 26
M  V30 27 1 12 27
M  V30 END BOND
M  V30 END CTAB
M  END
