
     RDKit          3D

  0  0  0  0  0  0  0  0  0  0999 V3000
M  V30 BEGIN CTAB
M  V30 COUNTS 31 33 0 0 0
M  V30 BEGIN ATOM
M  V30 1 N -6.10683 1.26218 0.413161 0
M  V30 2 C -4.72002 0.931217 0.332136 0
M  V30 3 C -3.76332 1.81313 0.770838 0
M  V30 4 C -2.40827 1.51055 0.696705 0
M  V30 5 C -1.96275 0.316863 0.184106 0
M  V30 6 C -2.93906 -0.560545 -0.254212 0
M  V30 7 C -4.29861 -0.275259 -0.188475 0
M  V30 8 C -2.25223 -1.67061 -0.723292 0
M  V30 9 N -0.952906 -1.4297 -0.557551 0
M  V30 10 N -0.726613 -0.24535 -0.0147189 0
M  V30 11 C 0.503635 0.361406 0.306015 0
M  V30 12 O 0.557086 1.50806 0.82222 0
M  V30 13 C 1.7704 -0.300559 0.0598921 0
M  V30 14 C 1.99191 -1.45752 -0.638223 0
M  V30 15 C 3.3802 -1.67926 -0.592876 0
M  V30 16 C 3.91964 -0.64395 0.129548 0
M  V30 17 O 2.95818 0.14484 0.498105 0
M  V30 18 S 5.6313 -0.459562 0.470269 0
M  V30 19 O 6.38408 -1.62412 -0.0281399 0
M  V30 20 O 5.79778 -0.33531 1.96161 0
M  V30 21 N 6.17855 1.03298 -0.268907 0
M  V30 22 H -6.66834 0.965095 1.23059 0
M  V30 23 H -6.57655 1.79972 -0.342697 0
M  V30 24 H -4.04031 2.76325 1.18287 0
M  V30 25 H -1.66152 2.2411 1.05846 0
M  V30 26 H -5.02464 -0.999054 -0.54629 0
M  V30 27 H -2.67971 -2.56682 -1.1434 0
M  V30 28 H 1.30315 -2.11833 -1.14935 0
M  V30 29 H 3.85817 -2.51868 -1.05156 0
M  V30 30 H 5.44682 1.34652 -0.97498 0
M  V30 31 H 7.10074 0.887724 -0.735263 0
M  V30 END ATOM
M  V30 BEGIN BOND
M  V30 1 1 1 2
M  V30 2 2 2 3
M  V30 3 1 3 4
M  V30 4 2 4 5
M  V30 5 1 5 6
M  V30 6 2 6 7
M  V30 7 1 6 8
M  V30 8 2 8 9
M  V30 9 1 9 10
M  V30 10 1 10 11
M  V30 11 2 11 12
M  V30 12 1 11 13
M  V30 13 2 13 14
M  V30 14 1 14 15
M  V30 15 2 15 16
M  V30 16 1 16 17
M  V30 17 1 16 18
M  V30 18 2 18 19
M  V30 19 2 18 20
M  V30 20 1 18 21
M  V30 21 1 7 2
M  V30 22 1 17 13
M  V30 23 1 10 5
M  V30 24 1 1 22
M  V30 25 1 1 23
M  V30 26 1 3 24
M  V30 27 1 4 25
M  V30 28 1 7 26
M  V30 29 1 8 27
M  V30 30 1 14 28
M  V30 31 1 15 29
M  V30 32 1 21 30
M  V30 33 1 21 31
M  V30 END BOND
M  V30 END CTAB
M  END
