
     RDKit          3D

  0  0  0  0  0  0  0  0  0  0999 V3000
M  V30 BEGIN CTAB
M  V30 COUNTS 26 27 0 0 0
M  V30 BEGIN ATOM
M  V30 1 O -3.37188 1.15309 0.863202 0
M  V30 2 C -2.86334 0.115683 0.122019 0
M  V30 3 C -2.03878 -0.856952 0.95838 0
M  V30 4 N -1.35137 -1.59746 -0.109526 0
M  V30 5 C -0.87972 -0.540832 -0.95549 0
M  V30 6 C -1.82665 0.606126 -0.863183 0
M  V30 7 C 0.502594 -0.192889 -0.501444 0
M  V30 8 N 1.3213 -1.2375 -0.254772 0
M  V30 9 C 2.58698 -1.00652 0.15936 0
M  V30 10 N 3.51537 -2.01085 0.442268 0
M  V30 11 N 2.96254 0.275238 0.303801 0
M  V30 12 C 2.15488 1.32249 0.0607585 0
M  V30 13 N 0.89822 1.08328 -0.3506 0
M  V30 14 N 2.67351 2.62394 0.251875 0
M  V30 15 H -3.50668 1.96986 0.337736 0
M  V30 16 H -3.63137 -0.493548 -0.392331 0
M  V30 17 H -2.64492 -1.57393 1.50625 0
M  V30 18 H -1.31794 -0.305956 1.5878 0
M  V30 19 H -2.09571 -2.18714 -0.567127 0
M  V30 20 H -0.845248 -0.951364 -1.99966 0
M  V30 21 H -1.35025 1.54803 -0.516143 0
M  V30 22 H -2.33353 0.839794 -1.81651 0
M  V30 23 H 4.48097 -1.95787 0.0854633 0
M  V30 24 H 3.23197 -2.82304 1.01951 0
M  V30 25 H 3.07008 3.13163 -0.555691 0
M  V30 26 H 2.65899 3.0667 1.18405 0
M  V30 END ATOM
M  V30 BEGIN BOND
M  V30 1 1 1 2
M  V30 2 1 2 3
M  V30 3 1 3 4
M  V30 4 1 4 5
M  V30 5 1 5 6
M  V30 6 1 5 7
M  V30 7 2 7 8
M  V30 8 1 8 9
M  V30 9 1 9 10
M  V30 10 2 9 11
M  V30 11 1 11 12
M  V30 12 2 12 13
M  V30 13 1 12 14
M  V30 14 1 6 2
M  V30 15 1 13 7
M  V30 16 1 1 15
M  V30 17 1 2 16
M  V30 18 1 3 17
M  V30 19 1 3 18
M  V30 20 1 4 19
M  V30 21 1 5 20
M  V30 22 1 6 21
M  V30 23 1 6 22
M  V30 24 1 10 23
M  V30 25 1 10 24
M  V30 26 1 14 25
M  V30 27 1 14 26
M  V30 END BOND
M  V30 END CTAB
M  END
