
     RDKit          3D

  0  0  0  0  0  0  0  0  0  0999 V3000
M  V30 BEGIN CTAB
M  V30 COUNTS 59 62 0 0 0
M  V30 BEGIN ATOM
M  V30 1 C 0.473847 -2.47348 2.22566 0
M  V30 2 N 0.344697 -1.46417 1.13741 0
M  V30 3 C 1.49608 -0.88578 0.616325 0
M  V30 4 O 2.5993 -1.43863 1.00945 0
M  V30 5 C 1.6196 0.233499 -0.293464 0
M  V30 6 C 0.68958 1.09037 -0.819398 0
M  V30 7 C 1.31853 1.98895 -1.69939 0
M  V30 8 C 0.694541 3.0818 -2.48387 0
M  V30 9 N 2.59778 1.64816 -1.67685 0
M  V30 10 N 2.80381 0.626852 -0.865126 0
M  V30 11 C 4.09509 0.0603197 -0.666414 0
M  V30 12 C 4.46767 -1.04423 -1.40419 0
M  V30 13 C 5.71246 -1.62387 -1.24701 0
M  V30 14 C 6.63504 -1.10319 -0.329575 0
M  V30 15 C 6.26551 -0.0053418 0.404985 0
M  V30 16 C 5.01472 0.548233 0.223133 0
M  V30 17 C 7.21422 0.546411 1.36275 0
M  V30 18 N 6.79487 1.72006 2.0988 0
M  V30 19 N 8.37288 0.0856417 1.59006 0
M  V30 20 C -1.01081 -1.22077 0.781907 0
M  V30 21 C -1.90991 -0.647993 1.66632 0
M  V30 22 C -3.25074 -0.47473 1.29001 0
M  V30 23 C -3.71558 -0.847887 0.0744522 0
M  V30 24 C -2.7892 -1.42464 -0.806786 0
M  V30 25 C -1.48752 -1.60478 -0.467048 0
M  V30 26 C -5.08599 -0.678031 -0.350645 0
M  V30 27 C -5.86214 -1.86123 -0.534117 0
M  V30 28 C -7.174 -1.76676 -0.912226 0
M  V30 29 C -7.75025 -0.536436 -1.11438 0
M  V30 30 C -7.01561 0.610582 -0.941797 0
M  V30 31 C -5.65632 0.538725 -0.553 0
M  V30 32 S -4.74392 2.01102 -0.373206 0
M  V30 33 N -3.29478 2.00892 -1.33126 0
M  V30 34 O -5.61739 3.16736 -0.929096 0
M  V30 35 O -4.46904 2.39085 1.02275 0
M  V30 36 H 1.47682 -2.50266 2.64134 0
M  V30 37 H -0.249618 -2.21283 3.03643 0
M  V30 38 H 0.160676 -3.4347 1.79906 0
M  V30 39 H -0.352031 1.1372 -0.623893 0
M  V30 40 H -0.342568 3.24409 -2.13514 0
M  V30 41 H 0.762862 2.90315 -3.56645 0
M  V30 42 H 1.22928 4.05533 -2.28752 0
M  V30 43 H 3.77666 -1.47959 -2.12733 0
M  V30 44 H 6.00706 -2.49682 -1.82507 0
M  V30 45 H 7.58457 -1.61211 -0.269197 0
M  V30 46 H 4.72409 1.41939 0.80949 0
M  V30 47 H 7.43264 2.51466 2.27627 0
M  V30 48 H 5.82461 1.78448 2.47165 0
M  V30 49 H 8.73354 -0.738593 1.09421 0
M  V30 50 H -1.55181 -0.3439 2.63207 0
M  V30 51 H -3.91702 -0.0587869 2.02778 0
M  V30 52 H -3.14632 -1.71762 -1.76761 0
M  V30 53 H -0.746201 -2.0507 -1.12631 0
M  V30 54 H -5.36324 -2.81918 -0.36206 0
M  V30 55 H -7.7611 -2.6644 -1.05237 0
M  V30 56 H -8.79059 -0.473993 -1.41285 0
M  V30 57 H -7.43985 1.59001 -1.09122 0
M  V30 58 H -3.46642 1.67586 -2.28708 0
M  V30 59 H -2.96308 3.0259 -1.31194 0
M  V30 END ATOM
M  V30 BEGIN BOND
M  V30 1 1 1 2
M  V30 2 1 2 3
M  V30 3 2 3 4
M  V30 4 1 3 5
M  V30 5 2 5 6
M  V30 6 1 6 7
M  V30 7 1 7 8
M  V30 8 2 7 9
M  V30 9 1 9 10
M  V30 10 1 10 11
M  V30 11 2 11 12
M  V30 12 1 12 13
M  V30 13 2 13 14
M  V30 14 1 14 15
M  V30 15 2 15 16
M  V30 16 1 15 17
M  V30 17 1 17 18
M  V30 18 2 17 19 CFG=2
M  V30 19 1 2 20
M  V30 20 2 20 21
M  V30 21 1 21 22
M  V30 22 2 22 23
M  V30 23 1 23 24
M  V30 24 2 24 25
M  V30 25 1 23 26
M  V30 26 2 26 27
M  V30 27 1 27 28
M  V30 28 2 28 29
M  V30 29 1 29 30
M  V30 30 2 30 31
M  V30 31 1 31 32
M  V30 32 1 32 33
M  V30 33 2 32 34
M  V30 34 2 32 35
M  V30 35 1 10 5
M  V30 36 1 16 11
M  V30 37 1 25 20
M  V30 38 1 31 26
M  V30 39 1 1 36
M  V30 40 1 1 37
M  V30 41 1 1 38
M  V30 42 1 6 39
M  V30 43 1 8 40
M  V30 44 1 8 41
M  V30 45 1 8 42
M  V30 46 1 12 43
M  V30 47 1 13 44
M  V30 48 1 14 45
M  V30 49 1 16 46
M  V30 50 1 18 47
M  V30 51 1 18 48
M  V30 52 1 19 49
M  V30 53 1 21 50
M  V30 54 1 22 51
M  V30 55 1 24 52
M  V30 56 1 25 53
M  V30 57 1 27 54
M  V30 58 1 28 55
M  V30 59 1 29 56
M  V30 60 1 30 57
M  V30 61 1 33 58
M  V30 62 1 33 59
M  V30 END BOND
M  V30 END CTAB
M  END
