
     RDKit          3D

  0  0  0  0  0  0  0  0  0  0999 V3000
M  V30 BEGIN CTAB
M  V30 COUNTS 36 36 0 0 0
M  V30 BEGIN ATOM
M  V30 1 C 5.01583 1.53095 0.0735607 0
M  V30 2 C 3.9455 0.587649 0.652632 0
M  V30 3 C 3.83891 -0.591588 -0.28044 0
M  V30 4 C 2.82684 -1.56103 0.249983 0
M  V30 5 C 1.48501 -0.913216 0.363968 0
M  V30 6 C 1.04937 -0.419122 -1.0003 0
M  V30 7 C -0.317054 0.204177 -0.794525 0
M  V30 8 O -1.24958 -0.730038 -0.292177 0
M  V30 9 C -2.53438 -0.292824 -0.0590534 0
M  V30 10 C -3.45873 -1.1847 0.429817 0
M  V30 11 C -4.74829 -0.760772 0.667776 0
M  V30 12 N -5.70329 -1.67802 1.17175 0
M  V30 13 N -5.0594 0.521266 0.411136 0
M  V30 14 C -4.16614 1.41309 -0.0692598 0
M  V30 15 N -4.53988 2.76004 -0.326119 0
M  V30 16 N -2.8945 0.971561 -0.29766 0
M  V30 17 H 6.0015 1.03023 0.148023 0
M  V30 18 H 5.00368 2.49298 0.627762 0
M  V30 19 H 4.70531 1.7363 -0.969198 0
M  V30 20 H 2.98017 1.13787 0.712687 0
M  V30 21 H 4.21115 0.217117 1.64788 0
M  V30 22 H 3.60186 -0.282319 -1.33397 0
M  V30 23 H 4.85876 -1.0614 -0.341308 0
M  V30 24 H 3.13051 -1.89574 1.29188 0
M  V30 25 H 2.78304 -2.49924 -0.358446 0
M  V30 26 H 0.718823 -1.63822 0.763772 0
M  V30 27 H 1.49687 -0.0674853 1.06556 0
M  V30 28 H 1.71927 0.354442 -1.39799 0
M  V30 29 H 0.933682 -1.24296 -1.72582 0
M  V30 30 H -0.230139 1.03142 -0.0588099 0
M  V30 31 H -0.69426 0.536517 -1.78194 0
M  V30 32 H -3.22885 -2.2218 0.643353 0
M  V30 33 H -5.43588 -2.62136 1.46147 0
M  V30 34 H -6.70551 -1.40142 1.25579 0
M  V30 35 H -4.92264 3.08095 -1.22315 0
M  V30 36 H -4.41756 3.4567 0.439233 0
M  V30 END ATOM
M  V30 BEGIN BOND
M  V30 1 1 1 2
M  V30 2 1 2 3
M  V30 3 1 3 4
M  V30 4 1 4 5
M  V30 5 1 5 6
M  V30 6 1 6 7
M  V30 7 1 7 8
M  V30 8 1 8 9
M  V30 9 2 9 10
M  V30 10 1 10 11
M  V30 11 1 11 12
M  V30 12 2 11 13
M  V30 13 1 13 14
M  V30 14 1 14 15
M  V30 15 2 14 16
M  V30 16 1 16 9
M  V30 17 1 1 17
M  V30 18 1 1 18
M  V30 19 1 1 19
M  V30 20 1 2 20
M  V30 21 1 2 21
M  V30 22 1 3 22
M  V30 23 1 3 23
M  V30 24 1 4 24
M  V30 25 1 4 25
M  V30 26 1 5 26
M  V30 27 1 5 27
M  V30 28 1 6 28
M  V30 29 1 6 29
M  V30 30 1 7 30
M  V30 31 1 7 31
M  V30 32 1 10 32
M  V30 33 1 12 33
M  V30 34 1 12 34
M  V30 35 1 15 35
M  V30 36 1 15 36
M  V30 END BOND
M  V30 END CTAB
M  END
