
     RDKit          3D

  0  0  0  0  0  0  0  0  0  0999 V3000
M  V30 BEGIN CTAB
M  V30 COUNTS 78 83 0 0 0
M  V30 BEGIN ATOM
M  V30 1 C -2.99731 -1.65479 -2.51535 0
M  V30 2 O -3.83713 -1.18044 -1.48059 0
M  V30 3 C -3.24228 -0.445747 -0.457346 0
M  V30 4 C -4.04782 0.0450675 0.594581 0
M  V30 5 N -5.41503 -0.253589 0.513704 0
M  V30 6 C -6.41849 0.119904 1.42479 0
M  V30 7 O -6.19117 0.793624 2.49398 0
M  V30 8 C -7.83853 -0.221921 1.25822 0
M  V30 9 C -8.73025 -0.278101 2.3483 0
M  V30 10 C -9.98362 -0.582732 1.88867 0
M  V30 11 C -9.86574 -0.712806 0.523927 0
M  V30 12 C -10.964 -1.02343 -0.253183 0
M  V30 13 C -12.1949 -1.20199 0.377145 0
M  V30 14 C -12.3309 -1.0743 1.75263 0
M  V30 15 C -11.1871 -0.759921 2.48227 0
M  V30 16 N -8.56332 -0.489341 0.169823 0
M  V30 17 C -8.14166 -0.52045 -1.20152 0
M  V30 18 C -3.48889 0.768442 1.61104 0
M  V30 19 C -2.11036 0.999401 1.56794 0
M  V30 20 C -1.29401 0.537568 0.55945 0
M  V30 21 C -1.90085 -0.177926 -0.42844 0
M  V30 22 C 0.173715 0.787215 0.620416 0
M  V30 23 C 0.827781 0.136515 1.64759 0
M  V30 24 S 2.44817 0.569801 1.38414 0
M  V30 25 C 2.26867 1.55358 -0.000996753 0
M  V30 26 C 3.18734 2.25398 -0.750427 0
M  V30 27 C 4.61756 2.28844 -0.518649 0
M  V30 28 C 5.31753 1.68228 0.38964 0
M  V30 29 C 6.80955 1.89311 0.409234 0
M  V30 30 N 7.5533 0.693685 0.235102 0
M  V30 31 C 7.46078 0.0868663 -1.05456 0
M  V30 32 C 8.36973 -1.1088 -1.16988 0
M  V30 33 C 9.45793 -0.931552 -0.138282 0
M  V30 34 C 10.5235 -2.00235 -0.228715 0
M  V30 35 N 11.1638 -1.99349 -1.52195 0
M  V30 36 C 8.83065 -1.0467 1.24677 0
M  V30 37 C 7.56567 -0.210285 1.33946 0
M  V30 38 C 2.68965 2.99466 -1.83702 0
M  V30 39 N 1.36854 2.96097 -2.05595 0
M  V30 40 C 0.483075 2.27447 -1.31901 0
M  V30 41 N -0.863175 2.39483 -1.69994 0
M  V30 42 C 0.90979 1.5113 -0.219805 0
M  V30 43 H -2.18169 -2.26424 -2.05569 0
M  V30 44 H -3.54528 -2.191 -3.29882 0
M  V30 45 H -2.48204 -0.776686 -2.98743 0
M  V30 46 H -5.768 -0.852219 -0.298313 0
M  V30 47 H -8.51004 -0.117363 3.38948 0
M  V30 48 H -10.9113 -1.13195 -1.30719 0
M  V30 49 H -13.0976 -1.44812 -0.180665 0
M  V30 50 H -13.2852 -1.21276 2.24005 0
M  V30 51 H -11.3003 -0.662123 3.5527 0
M  V30 52 H -7.68226 -1.4833 -1.47379 0
M  V30 53 H -9.04518 -0.3625 -1.86439 0
M  V30 54 H -7.40973 0.303174 -1.41776 0
M  V30 55 H -4.05705 1.16214 2.43154 0
M  V30 56 H -1.70523 1.57444 2.38734 0
M  V30 57 H -1.28583 -0.568456 -1.24917 0
M  V30 58 H 0.450917 -0.501376 2.44657 0
M  V30 59 H 5.20256 2.92851 -1.22105 0
M  V30 60 H 4.85166 1.05789 1.09313 0
M  V30 61 H 7.02467 2.31307 1.4144 0
M  V30 62 H 7.11355 2.62268 -0.349504 0
M  V30 63 H 7.77593 0.835337 -1.80866 0
M  V30 64 H 6.39538 -0.2132 -1.28057 0
M  V30 65 H 8.79464 -1.11619 -2.19212 0
M  V30 66 H 7.84281 -2.07416 -1.02698 0
M  V30 67 H 9.94898 0.0300222 -0.288884 0
M  V30 68 H 11.3107 -1.70071 0.519587 0
M  V30 69 H 10.1549 -3.00718 0.0243059 0
M  V30 70 H 11.2035 -1.0302 -1.90871 0
M  V30 71 H 10.6683 -2.61672 -2.21473 0
M  V30 72 H 8.56644 -2.09519 1.47892 0
M  V30 73 H 9.58625 -0.666077 1.96753 0
M  V30 74 H 7.5908 0.383943 2.26999 0
M  V30 75 H 6.66609 -0.857874 1.35099 0
M  V30 76 H 3.378 3.54589 -2.43449 0
M  V30 77 H -1.149 1.96548 -2.6109 0
M  V30 78 H -1.53063 2.89563 -1.08394 0
M  V30 END ATOM
M  V30 BEGIN BOND
M  V30 1 1 1 2
M  V30 2 1 2 3
M  V30 3 2 3 4
M  V30 4 1 4 5
M  V30 5 1 5 6
M  V30 6 2 6 7
M  V30 7 1 6 8
M  V30 8 2 8 9
M  V30 9 1 9 10
M  V30 10 2 10 11
M  V30 11 1 11 12
M  V30 12 2 12 13
M  V30 13 1 13 14
M  V30 14 2 14 15
M  V30 15 1 11 16
M  V30 16 1 16 17
M  V30 17 1 4 18
M  V30 18 2 18 19
M  V30 19 1 19 20
M  V30 20 2 20 21
M  V30 21 1 20 22
M  V30 22 2 22 23
M  V30 23 1 23 24
M  V30 24 1 24 25
M  V30 25 2 25 26
M  V30 26 1 26 27
M  V30 27 2 27 28
M  V30 28 1 28 29
M  V30 29 1 29 30
M  V30 30 1 30 31
M  V30 31 1 31 32
M  V30 32 1 32 33
M  V30 33 1 33 34
M  V30 34 1 34 35
M  V30 35 1 33 36
M  V30 36 1 36 37
M  V30 37 1 26 38
M  V30 38 2 38 39
M  V30 39 1 39 40
M  V30 40 1 40 41
M  V30 41 2 40 42
M  V30 42 1 21 3
M  V30 43 1 42 22
M  V30 44 1 16 8
M  V30 45 1 42 25
M  V30 46 1 15 10
M  V30 47 1 37 30
M  V30 48 1 1 43
M  V30 49 1 1 44
M  V30 50 1 1 45
M  V30 51 1 5 46
M  V30 52 1 9 47
M  V30 53 1 12 48
M  V30 54 1 13 49
M  V30 55 1 14 50
M  V30 56 1 15 51
M  V30 57 1 17 52
M  V30 58 1 17 53
M  V30 59 1 17 54
M  V30 60 1 18 55
M  V30 61 1 19 56
M  V30 62 1 21 57
M  V30 63 1 23 58
M  V30 64 1 27 59
M  V30 65 1 28 60
M  V30 66 1 29 61
M  V30 67 1 29 62
M  V30 68 1 31 63
M  V30 69 1 31 64
M  V30 70 1 32 65
M  V30 71 1 32 66
M  V30 72 1 33 67
M  V30 73 1 34 68
M  V30 74 1 34 69
M  V30 75 1 35 70
M  V30 76 1 35 71
M  V30 77 1 36 72
M  V30 78 1 36 73
M  V30 79 1 37 74
M  V30 80 1 37 75
M  V30 81 1 38 76
M  V30 82 1 41 77
M  V30 83 1 41 78
M  V30 END BOND
M  V30 END CTAB
M  END
