
     RDKit          3D

  0  0  0  0  0  0  0  0  0  0999 V3000
M  V30 BEGIN CTAB
M  V30 COUNTS 28 28 0 0 0
M  V30 BEGIN ATOM
M  V30 1 N 0.971176 -0.994597 1.64697 0
M  V30 2 C 1.39297 -0.550754 0.31755 0
M  V30 3 C 2.45961 0.435156 0.382037 0
M  V30 4 N 2.92006 0.817486 1.50628 0
M  V30 5 N 3.00562 0.987477 -0.790304 0
M  V30 6 C 0.145323 -0.0817859 -0.389905 0
M  V30 7 C -0.543246 1.04628 0.310227 0
M  V30 8 C -2.00688 0.743445 0.585728 0
M  V30 9 C -2.71405 0.262415 -0.663773 0
M  V30 10 C -2.0652 -0.98218 -1.16208 0
M  V30 11 C -0.780078 -1.28256 -0.431302 0
M  V30 12 H 1.24689 -0.327465 2.37217 0
M  V30 13 H 1.18585 -1.97775 1.83507 0
M  V30 14 H 1.70004 -1.49803 -0.217358 0
M  V30 15 H 3.67069 1.50714 1.65733 0
M  V30 16 H 2.56305 1.73498 -1.36607 0
M  V30 17 H 3.92975 0.636508 -1.13287 0
M  V30 18 H 0.426204 0.143093 -1.43287 0
M  V30 19 H -0.0921741 1.30802 1.28189 0
M  V30 20 H -0.538398 1.91972 -0.382413 0
M  V30 21 H -2.47607 1.67984 0.925934 0
M  V30 22 H -2.03285 -0.0758036 1.31578 0
M  V30 23 H -3.76256 0.0363807 -0.357512 0
M  V30 24 H -2.79354 1.0616 -1.43051 0
M  V30 25 H -1.88638 -0.928262 -2.24623 0
M  V30 26 H -2.7325 -1.8651 -0.997155 0
M  V30 27 H -0.976624 -1.66593 0.597641 0
M  V30 28 H -0.216652 -2.08933 -0.946217 0
M  V30 END ATOM
M  V30 BEGIN BOND
M  V30 1 1 1 2
M  V30 2 1 2 3
M  V30 3 2 3 4 CFG=2
M  V30 4 1 3 5
M  V30 5 1 2 6
M  V30 6 1 6 7
M  V30 7 1 7 8
M  V30 8 1 8 9
M  V30 9 1 9 10
M  V30 10 1 10 11
M  V30 11 1 11 6
M  V30 12 1 1 12
M  V30 13 1 1 13
M  V30 14 1 2 14
M  V30 15 1 4 15
M  V30 16 1 5 16
M  V30 17 1 5 17
M  V30 18 1 6 18
M  V30 19 1 7 19
M  V30 20 1 7 20
M  V30 21 1 8 21
M  V30 22 1 8 22
M  V30 23 1 9 23
M  V30 24 1 9 24
M  V30 25 1 10 25
M  V30 26 1 10 26
M  V30 27 1 11 27
M  V30 28 1 11 28
M  V30 END BOND
M  V30 END CTAB
M  END
