
     RDKit          3D

  0  0  0  0  0  0  0  0  0  0999 V3000
M  V30 BEGIN CTAB
M  V30 COUNTS 25 25 0 0 0
M  V30 BEGIN ATOM
M  V30 1 N -3.53169 1.56001 0.33214 0
M  V30 2 N -2.19112 1.19199 0.352288 0
M  V30 3 C -1.74566 0.0535575 0.00127569 0
M  V30 4 N -0.3579 -0.210088 0.0634344 0
M  V30 5 C 0.403666 -0.0147592 1.2742 0
M  V30 6 C 1.77521 -0.679427 1.10202 0
M  V30 7 C 2.44512 0.0777241 -0.0248196 0
M  V30 8 C 1.68469 -0.132767 -1.30331 0
M  V30 9 C 0.314725 -0.687382 -1.11594 0
M  V30 10 F 2.36885 -0.994149 -2.16665 0
M  V30 11 O 2.46037 1.42859 0.364355 0
M  V30 12 N -2.65888 -0.936664 -0.4493 0
M  V30 13 H -3.77926 2.51054 -0.00485458 0
M  V30 14 H -4.29063 0.920687 0.640821 0
M  V30 15 H -0.0554561 -0.432124 2.16951 0
M  V30 16 H 0.639138 1.08075 1.39405 0
M  V30 17 H 2.33264 -0.495402 2.02442 0
M  V30 18 H 1.6834 -1.75866 0.902465 0
M  V30 19 H 3.46686 -0.31646 -0.177141 0
M  V30 20 H 1.59063 0.829915 -1.87406 0
M  V30 21 H -0.283378 -0.477766 -2.02867 0
M  V30 22 H 0.417796 -1.80185 -0.991889 0
M  V30 23 H 3.29899 1.8764 0.0943518 0
M  V30 24 H -2.96277 -0.906776 -1.45324 0
M  V30 25 H -3.02534 -1.68588 0.205949 0
M  V30 END ATOM
M  V30 BEGIN BOND
M  V30 1 1 1 2
M  V30 2 2 2 3 CFG=2
M  V30 3 1 3 4
M  V30 4 1 4 5
M  V30 5 1 5 6
M  V30 6 1 6 7
M  V30 7 1 7 8
M  V30 8 1 8 9
M  V30 9 1 8 10
M  V30 10 1 7 11
M  V30 11 1 3 12
M  V30 12 1 9 4
M  V30 13 1 1 13
M  V30 14 1 1 14
M  V30 15 1 5 15
M  V30 16 1 5 16
M  V30 17 1 6 17
M  V30 18 1 6 18
M  V30 19 1 7 19
M  V30 20 1 8 20
M  V30 21 1 9 21
M  V30 22 1 9 22
M  V30 23 1 11 23
M  V30 24 1 12 24
M  V30 25 1 12 25
M  V30 END BOND
M  V30 END CTAB
M  END
