
     RDKit          3D

  0  0  0  0  0  0  0  0  0  0999 V3000
M  V30 BEGIN CTAB
M  V30 COUNTS 32 33 0 0 0
M  V30 BEGIN ATOM
M  V30 1 N -3.75269 -2.15312 -0.223983 0
M  V30 2 C -3.52287 -0.762265 -0.0787871 0
M  V30 3 C -4.54184 0.132663 -0.30139 0
M  V30 4 C -4.36913 1.46784 -0.18148 0
M  V30 5 C -3.1232 1.91743 0.177239 0
M  V30 6 C -2.07717 1.0265 0.408449 0
M  V30 7 C -2.22714 -0.328657 0.291214 0
M  V30 8 N -1.29186 -1.33245 0.562305 0
M  V30 9 C 0.098689 -1.3966 0.548788 0
M  V30 10 S 0.74759 -2.83306 1.0404 0
M  V30 11 N 0.920288 -0.354748 0.155664 0
M  V30 12 C 2.33247 -0.232737 0.111761 0
M  V30 13 C 2.8923 0.986943 -0.328452 0
M  V30 14 N 1.98078 2.02886 -0.700816 0
M  V30 15 C 4.24866 1.17836 -0.398668 0
M  V30 16 C 5.13809 0.193444 -0.0443174 0
M  V30 17 C 4.61992 -0.984584 0.3809 0
M  V30 18 C 3.23188 -1.20159 0.46034 0
M  V30 19 H -3.8533 -2.56989 -1.15851 0
M  V30 20 H -3.81754 -2.74043 0.618565 0
M  V30 21 H -5.52978 -0.245898 -0.586097 0
M  V30 22 H -5.12707 2.21929 -0.343217 0
M  V30 23 H -2.89807 2.9676 0.295446 0
M  V30 24 H -1.12853 1.42174 0.735684 0
M  V30 25 H -1.74106 -2.29288 0.869977 0
M  V30 26 H 0.429584 0.536549 -0.249691 0
M  V30 27 H 1.41842 2.45708 0.0443965 0
M  V30 28 H 1.92794 2.30179 -1.68798 0
M  V30 29 H 4.61013 2.14811 -0.748659 0
M  V30 30 H 6.18938 0.401439 -0.120184 0
M  V30 31 H 5.29013 -1.78472 0.668834 0
M  V30 32 H 2.92499 -2.172 0.810589 0
M  V30 END ATOM
M  V30 BEGIN BOND
M  V30 1 1 1 2
M  V30 2 2 2 3
M  V30 3 1 3 4
M  V30 4 2 4 5
M  V30 5 1 5 6
M  V30 6 2 6 7
M  V30 7 1 7 8
M  V30 8 1 8 9
M  V30 9 2 9 10
M  V30 10 1 9 11
M  V30 11 1 11 12
M  V30 12 2 12 13
M  V30 13 1 13 14
M  V30 14 1 13 15
M  V30 15 2 15 16
M  V30 16 1 16 17
M  V30 17 2 17 18
M  V30 18 1 7 2
M  V30 19 1 18 12
M  V30 20 1 1 19
M  V30 21 1 1 20
M  V30 22 1 3 21
M  V30 23 1 4 22
M  V30 24 1 5 23
M  V30 25 1 6 24
M  V30 26 1 8 25
M  V30 27 1 11 26
M  V30 28 1 14 27
M  V30 29 1 14 28
M  V30 30 1 15 29
M  V30 31 1 16 30
M  V30 32 1 17 31
M  V30 33 1 18 32
M  V30 END BOND
M  V30 END CTAB
M  END
