
     RDKit          3D

  0  0  0  0  0  0  0  0  0  0999 V3000
M  V30 BEGIN CTAB
M  V30 COUNTS 31 32 0 0 0
M  V30 BEGIN ATOM
M  V30 1 C -5.57072 0.30049 -1.3427 0
M  V30 2 O -4.76031 -0.801937 -1.03805 0
M  V30 3 C -3.63194 -0.614291 -0.267707 0
M  V30 4 C -2.84223 -1.69165 0.0285442 0
M  V30 5 C -1.69553 -1.51583 0.808407 0
M  V30 6 C -1.34236 -0.277767 1.2865 0
M  V30 7 S 0.113948 -0.0788805 2.27199 0
M  V30 8 C 1.56255 0.271503 1.29681 0
M  V30 9 C 1.96566 1.54965 0.969583 0
M  V30 10 C 3.11395 1.75669 0.199914 0
M  V30 11 C 3.87768 0.702638 -0.255612 0
M  V30 12 N 5.0514 0.924792 -1.04284 0
M  V30 13 C 3.47427 -0.570161 0.0715627 0
M  V30 14 N 4.26772 -1.65255 -0.402279 0
M  V30 15 C 2.33308 -0.775534 0.836453 0
M  V30 16 C -2.15175 0.78834 0.975209 0
M  V30 17 C -3.29665 0.630274 0.200082 0
M  V30 18 H -5.03379 1.00189 -2.02197 0
M  V30 19 H -5.84172 0.792704 -0.379505 0
M  V30 20 H -6.50551 -0.0419073 -1.83472 0
M  V30 21 H -3.09973 -2.66768 -0.334776 0
M  V30 22 H -1.12098 -2.41483 1.0008 0
M  V30 23 H 1.38089 2.36193 1.31812 0
M  V30 24 H 3.44786 2.7456 -0.0678402 0
M  V30 25 H 5.20763 0.359624 -1.90096 0
M  V30 26 H 5.77192 1.63112 -0.804153 0
M  V30 27 H 4.64519 -1.733 -1.35671 0
M  V30 28 H 4.48069 -2.42056 0.271803 0
M  V30 29 H 2.03393 -1.78381 1.08212 0
M  V30 30 H -1.89372 1.76248 1.3385 0
M  V30 31 H -3.94142 1.46068 -0.0516872 0
M  V30 END ATOM
M  V30 BEGIN BOND
M  V30 1 1 1 2
M  V30 2 1 2 3
M  V30 3 2 3 4
M  V30 4 1 4 5
M  V30 5 2 5 6
M  V30 6 1 6 7
M  V30 7 1 7 8
M  V30 8 2 8 9
M  V30 9 1 9 10
M  V30 10 2 10 11
M  V30 11 1 11 12
M  V30 12 1 11 13
M  V30 13 1 13 14
M  V30 14 2 13 15
M  V30 15 1 6 16
M  V30 16 2 16 17
M  V30 17 1 17 3
M  V30 18 1 15 8
M  V30 19 1 1 18
M  V30 20 1 1 19
M  V30 21 1 1 20
M  V30 22 1 4 21
M  V30 23 1 5 22
M  V30 24 1 9 23
M  V30 25 1 10 24
M  V30 26 1 12 25
M  V30 27 1 12 26
M  V30 28 1 14 27
M  V30 29 1 14 28
M  V30 30 1 15 29
M  V30 31 1 16 30
M  V30 32 1 17 31
M  V30 END BOND
M  V30 END CTAB
M  END
