
     RDKit          3D

  0  0  0  0  0  0  0  0  0  0999 V3000
M  V30 BEGIN CTAB
M  V30 COUNTS 42 43 0 0 0
M  V30 BEGIN ATOM
M  V30 1 N -4.01628 -1.42478 2.33868 0
M  V30 2 C -3.95116 -1.50241 0.879528 0
M  V30 3 C -4.8738 -0.481085 0.247808 0
M  V30 4 C -4.25828 0.89307 0.215972 0
M  V30 5 C -2.92553 0.922921 -0.469573 0
M  V30 6 C -2.32823 -0.415149 -0.718447 0
M  V30 7 C -2.55875 -1.42249 0.364857 0
M  V30 8 C -0.823484 -0.209271 -0.805569 0
M  V30 9 O -0.238213 -0.527064 -1.8566 0
M  V30 10 N -0.134132 0.334657 0.304135 0
M  V30 11 C 1.24716 0.584971 0.402316 0
M  V30 12 C 1.67631 1.48366 1.40692 0
M  V30 13 C 3.01219 1.72453 1.52967 0
M  V30 14 C 3.96556 1.13898 0.727181 0
M  V30 15 C 3.57556 0.27117 -0.245274 0
M  V30 16 C 2.20673 0.00467778 -0.393721 0
M  V30 17 S 4.67071 -0.532815 -1.32107 0
M  V30 18 O 5.66534 -1.38889 -0.592994 0
M  V30 19 O 5.39653 0.539373 -2.11732 0
M  V30 20 N 3.82255 -1.54961 -2.41396 0
M  V30 21 C 5.39518 1.44642 0.916036 0
M  V30 22 H -3.86988 -0.45607 2.66785 0
M  V30 23 H -4.92362 -1.84834 2.65444 0
M  V30 24 H -4.37641 -2.49746 0.621164 0
M  V30 25 H -5.17219 -0.861076 -0.736047 0
M  V30 26 H -5.78426 -0.438344 0.880278 0
M  V30 27 H -4.09462 1.20788 1.26932 0
M  V30 28 H -5.00391 1.58014 -0.220993 0
M  V30 29 H -2.19549 1.5602 0.0665375 0
M  V30 30 H -3.08748 1.40989 -1.46658 0
M  V30 31 H -2.64187 -0.787226 -1.70856 0
M  V30 32 H -1.87795 -1.23703 1.24756 0
M  V30 33 H -2.23338 -2.40825 -0.0270047 0
M  V30 34 H -0.712365 0.588752 1.18488 0
M  V30 35 H 0.946474 1.97127 2.06695 0
M  V30 36 H 3.32466 2.41925 2.30858 0
M  V30 37 H 1.90875 -0.696625 -1.15958 0
M  V30 38 H 3.64818 -2.49949 -2.03841 0
M  V30 39 H 4.29306 -1.66078 -3.3287 0
M  V30 40 H 5.7001 1.32257 1.98876 0
M  V30 41 H 5.57556 2.54075 0.701762 0
M  V30 42 H 6.05068 0.899141 0.229731 0
M  V30 END ATOM
M  V30 BEGIN BOND
M  V30 1 1 1 2
M  V30 2 1 2 3
M  V30 3 1 3 4
M  V30 4 1 4 5
M  V30 5 1 5 6
M  V30 6 1 6 7
M  V30 7 1 6 8
M  V30 8 2 8 9
M  V30 9 1 8 10
M  V30 10 1 10 11
M  V30 11 2 11 12
M  V30 12 1 12 13
M  V30 13 2 13 14
M  V30 14 1 14 15
M  V30 15 2 15 16
M  V30 16 1 15 17
M  V30 17 2 17 18
M  V30 18 2 17 19
M  V30 19 1 17 20
M  V30 20 1 14 21
M  V30 21 1 7 2
M  V30 22 1 16 11
M  V30 23 1 1 22
M  V30 24 1 1 23
M  V30 25 1 2 24
M  V30 26 1 3 25
M  V30 27 1 3 26
M  V30 28 1 4 27
M  V30 29 1 4 28
M  V30 30 1 5 29
M  V30 31 1 5 30
M  V30 32 1 6 31
M  V30 33 1 7 32
M  V30 34 1 7 33
M  V30 35 1 10 34
M  V30 36 1 12 35
M  V30 37 1 13 36
M  V30 38 1 16 37
M  V30 39 1 20 38
M  V30 40 1 20 39
M  V30 41 1 21 40
M  V30 42 1 21 41
M  V30 43 1 21 42
M  V30 END BOND
M  V30 END CTAB
M  END
