
     RDKit          3D

  0  0  0  0  0  0  0  0  0  0999 V3000
M  V30 BEGIN CTAB
M  V30 COUNTS 40 42 0 0 0
M  V30 BEGIN ATOM
M  V30 1 O 0.875991 1.60814 -0.439572 0
M  V30 2 C 0.0879195 0.62159 -0.606922 0
M  V30 3 N -1.03901 0.413093 0.214401 0
M  V30 4 C -1.45427 1.23375 1.3313 0
M  V30 5 C -1.44203 0.356917 2.5682 0
M  V30 6 S -1.8932 -1.2682 1.83126 0
M  V30 7 C -1.98057 -0.684681 0.0762406 0
M  V30 8 C -3.38158 -0.238516 -0.129655 0
M  V30 9 C -4.3624 -0.900726 0.595298 0
M  V30 10 C -5.69116 -0.612268 0.508156 0
M  V30 11 C -6.06746 0.403678 -0.359109 0
M  V30 12 C -5.10304 1.06962 -1.08521 0
M  V30 13 C -3.7689 0.759069 -0.978812 0
M  V30 14 F -2.81238 1.41147 -1.69035 0
M  V30 15 C 0.392241 -0.307194 -1.69554 0
M  V30 16 S 1.86127 0.107732 -2.63313 0
M  V30 17 C 3.30236 -0.062613 -1.59313 0
M  V30 18 N 3.78542 0.944764 -0.845456 0
M  V30 19 C 4.8762 0.753657 -0.0826936 0
M  V30 20 N 5.37262 1.81665 0.696563 0
M  V30 21 C 5.51689 -0.464448 -0.0496684 0
M  V30 22 C 5.01792 -1.48278 -0.813649 0
M  V30 23 N 3.92882 -1.23435 -1.55356 0
M  V30 24 N 5.58232 -2.78254 -0.869923 0
M  V30 25 H -2.444 1.70603 1.19433 0
M  V30 26 H -0.721449 2.03967 1.50151 0
M  V30 27 H -2.30732 0.654338 3.18561 0
M  V30 28 H -0.483287 0.322238 3.08097 0
M  V30 29 H -1.64914 -1.48874 -0.567791 0
M  V30 30 H -4.08728 -1.71028 1.28966 0
M  V30 31 H -6.44106 -1.14047 1.08195 0
M  V30 32 H -7.1281 0.633333 -0.428007 0
M  V30 33 H -5.37785 1.85948 -1.76194 0
M  V30 34 H -0.478392 -0.26019 -2.41317 0
M  V30 35 H 0.449812 -1.37052 -1.37582 0
M  V30 36 H 5.35591 1.77311 1.72952 0
M  V30 37 H 5.76253 2.66009 0.207366 0
M  V30 38 H 6.38792 -0.659662 0.543498 0
M  V30 39 H 5.87645 -3.2763 -0.0075614 0
M  V30 40 H 5.68129 -3.20393 -1.82528 0
M  V30 END ATOM
M  V30 BEGIN BOND
M  V30 1 2 1 2
M  V30 2 1 2 3
M  V30 3 1 3 4
M  V30 4 1 4 5
M  V30 5 1 5 6
M  V30 6 1 6 7
M  V30 7 1 7 8
M  V30 8 2 8 9
M  V30 9 1 9 10
M  V30 10 2 10 11
M  V30 11 1 11 12
M  V30 12 2 12 13
M  V30 13 1 13 14
M  V30 14 1 2 15
M  V30 15 1 15 16
M  V30 16 1 16 17
M  V30 17 2 17 18
M  V30 18 1 18 19
M  V30 19 1 19 20
M  V30 20 2 19 21
M  V30 21 1 21 22
M  V30 22 2 22 23
M  V30 23 1 22 24
M  V30 24 1 7 3
M  V30 25 1 13 8
M  V30 26 1 23 17
M  V30 27 1 4 25
M  V30 28 1 4 26
M  V30 29 1 5 27
M  V30 30 1 5 28
M  V30 31 1 7 29
M  V30 32 1 9 30
M  V30 33 1 10 31
M  V30 34 1 11 32
M  V30 35 1 12 33
M  V30 36 1 15 34
M  V30 37 1 15 35
M  V30 38 1 20 36
M  V30 39 1 20 37
M  V30 40 1 21 38
M  V30 41 1 24 39
M  V30 42 1 24 40
M  V30 END BOND
M  V30 END CTAB
M  END
