
     RDKit          3D

  0  0  0  0  0  0  0  0  0  0999 V3000
M  V30 BEGIN CTAB
M  V30 COUNTS 22 22 0 0 0
M  V30 BEGIN ATOM
M  V30 1 N 3.11882 0.640426 -0.518771 0
M  V30 2 C 1.94481 0.844808 0.309014 0
M  V30 3 C 1.09772 -0.398912 0.25997 0
M  V30 4 C -0.165826 -0.258489 1.11401 0
M  V30 5 C -0.866655 -1.06223 0.0228448 0
M  V30 6 C 0.157571 -0.478989 -0.935941 0
M  V30 7 S -2.53449 -0.597389 -0.282862 0
M  V30 8 O -3.36399 -1.07716 0.878195 0
M  V30 9 O -3.00354 -1.30729 -1.51195 0
M  V30 10 N -2.78133 1.06564 -0.444914 0
M  V30 11 H 3.94816 1.16435 -0.179497 0
M  V30 12 H 3.34661 -0.384132 -0.590286 0
M  V30 13 H 2.30154 1.00791 1.3476 0
M  V30 14 H 1.38239 1.74719 0.0198079 0
M  V30 15 H 1.6679 -1.31087 0.417642 0
M  V30 16 H -0.116044 -0.726807 2.09171 0
M  V30 17 H -0.485885 0.800212 1.06797 0
M  V30 18 H -0.767993 -2.14605 0.118339 0
M  V30 19 H -0.184683 0.521024 -1.29806 0
M  V30 20 H 0.529043 -1.16902 -1.69993 0
M  V30 21 H -2.75752 1.62424 0.408162 0
M  V30 22 H -2.46659 1.50154 -1.30839 0
M  V30 END ATOM
M  V30 BEGIN BOND
M  V30 1 1 1 2
M  V30 2 1 2 3
M  V30 3 1 3 4
M  V30 4 1 4 5
M  V30 5 1 5 6
M  V30 6 1 5 7
M  V30 7 2 7 8
M  V30 8 2 7 9
M  V30 9 1 7 10
M  V30 10 1 6 3
M  V30 11 1 1 11
M  V30 12 1 1 12
M  V30 13 1 2 13
M  V30 14 1 2 14
M  V30 15 1 3 15
M  V30 16 1 4 16
M  V30 17 1 4 17
M  V30 18 1 5 18
M  V30 19 1 6 19
M  V30 20 1 6 20
M  V30 21 1 10 21
M  V30 22 1 10 22
M  V30 END BOND
M  V30 END CTAB
M  END
