
     RDKit          3D

  0  0  0  0  0  0  0  0  0  0999 V3000
M  V30 BEGIN CTAB
M  V30 COUNTS 24 25 0 0 0
M  V30 BEGIN ATOM
M  V30 1 N -3.71371 1.50376 0.135067 0
M  V30 2 C -3.58102 0.126597 -0.219971 0
M  V30 3 C -2.17406 -0.325984 -0.23893 0
M  V30 4 N -1.74087 -1.5631 -0.535502 0
M  V30 5 N -0.398154 -1.6127 -0.452359 0
M  V30 6 C 0.066122 -0.410574 -0.100698 0
M  V30 7 C -1.02552 0.408835 0.0380362 0
M  V30 8 C 1.4471 -0.0137959 0.103399 0
M  V30 9 O 2.53455 -0.772625 -0.0196392 0
M  V30 10 N 3.60725 -0.0898035 0.238113 0
M  V30 11 C 3.26001 1.1716 0.547326 0
M  V30 12 N 1.92089 1.20091 0.4591 0
M  V30 13 N 4.1626 2.22329 0.890574 0
M  V30 14 C 0.455225 -2.75775 -0.694418 0
M  V30 15 H -3.37293 2.13569 -0.630236 0
M  V30 16 H -3.22672 1.68926 1.03579 0
M  V30 17 H -4.18796 -0.488245 0.496396 0
M  V30 18 H -4.04122 -0.0438524 -1.21419 0
M  V30 19 H -1.08709 1.45819 0.31153 0
M  V30 20 H 5.03592 2.02123 1.40214 0
M  V30 21 H 3.97159 3.22298 0.638076 0
M  V30 22 H -0.158805 -3.61277 -1.00997 0
M  V30 23 H 1.00898 -2.94712 0.263702 0
M  V30 24 H 1.23781 -2.52401 -1.44334 0
M  V30 END ATOM
M  V30 BEGIN BOND
M  V30 1 1 1 2
M  V30 2 1 2 3
M  V30 3 2 3 4
M  V30 4 1 4 5
M  V30 5 1 5 6
M  V30 6 2 6 7
M  V30 7 1 6 8
M  V30 8 1 8 9
M  V30 9 1 9 10
M  V30 10 2 10 11
M  V30 11 1 11 12
M  V30 12 1 11 13
M  V30 13 1 5 14
M  V30 14 1 7 3
M  V30 15 2 12 8
M  V30 16 1 1 15
M  V30 17 1 1 16
M  V30 18 1 2 17
M  V30 19 1 2 18
M  V30 20 1 7 19
M  V30 21 1 13 20
M  V30 22 1 13 21
M  V30 23 1 14 22
M  V30 24 1 14 23
M  V30 25 1 14 24
M  V30 END BOND
M  V30 END CTAB
M  END
