
     RDKit          3D

  0  0  0  0  0  0  0  0  0  0999 V3000
M  V30 BEGIN CTAB
M  V30 COUNTS 31 31 0 0 0
M  V30 BEGIN ATOM
M  V30 1 C -2.17624 -1.28602 -1.16642 0
M  V30 2 C -1.22868 -0.107127 -0.724778 0
M  V30 3 C -1.90688 0.365138 0.526053 0
M  V30 4 N -3.26635 0.768607 0.0539507 0
M  V30 5 C -1.39555 1.53271 1.25198 0
M  V30 6 C 0.113543 -0.696759 -0.632034 0
M  V30 7 C 1.27566 0.108487 -0.330555 0
M  V30 8 C 1.36326 1.45356 -0.564459 0
M  V30 9 N 2.46207 2.18555 -0.336267 0
M  V30 10 C 3.55694 1.59577 0.148973 0
M  V30 11 C 3.54254 0.246706 0.406127 0
M  V30 12 C 2.41083 -0.494507 0.168863 0
M  V30 13 N 2.49318 -1.88319 0.445481 0
M  V30 14 O 0.137946 -1.79759 0.268138 0
M  V30 15 H -1.62001 -1.96969 -1.81563 0
M  V30 16 H -2.98582 -0.86007 -1.7906 0
M  V30 17 H -2.5833 -1.76288 -0.267586 0
M  V30 18 H -1.36229 0.64812 -1.49869 0
M  V30 19 H -2.14601 -0.46111 1.23918 0
M  V30 20 H -3.89563 -0.0517741 0.00621508 0
M  V30 21 H -3.68054 1.47441 0.677443 0
M  V30 22 H -2.17034 1.88721 2.02112 0
M  V30 23 H -1.33742 2.41699 0.576828 0
M  V30 24 H -0.505 1.38427 1.8942 0
M  V30 25 H 0.28328 -1.22225 -1.63973 0
M  V30 26 H 0.530081 1.99583 -0.989364 0
M  V30 27 H 4.46442 2.18143 0.342943 0
M  V30 28 H 4.45558 -0.206851 0.80193 0
M  V30 29 H 2.74464 -2.59463 -0.264175 0
M  V30 30 H 2.29023 -2.19528 1.40668 0
M  V30 31 H 0.135874 -2.65507 -0.215816 0
M  V30 END ATOM
M  V30 BEGIN BOND
M  V30 1 1 1 2
M  V30 2 1 2 3
M  V30 3 1 3 4
M  V30 4 1 3 5
M  V30 5 1 2 6
M  V30 6 1 6 7
M  V30 7 2 7 8
M  V30 8 1 8 9
M  V30 9 2 9 10
M  V30 10 1 10 11
M  V30 11 2 11 12
M  V30 12 1 12 13
M  V30 13 1 6 14
M  V30 14 1 12 7
M  V30 15 1 1 15
M  V30 16 1 1 16
M  V30 17 1 1 17
M  V30 18 1 2 18
M  V30 19 1 3 19
M  V30 20 1 4 20
M  V30 21 1 4 21
M  V30 22 1 5 22
M  V30 23 1 5 23
M  V30 24 1 5 24
M  V30 25 1 6 25
M  V30 26 1 8 26
M  V30 27 1 10 27
M  V30 28 1 11 28
M  V30 29 1 13 29
M  V30 30 1 13 30
M  V30 31 1 14 31
M  V30 END BOND
M  V30 END CTAB
M  END
