
     RDKit          3D

  0  0  0  0  0  0  0  0  0  0999 V3000
M  V30 BEGIN CTAB
M  V30 COUNTS 27 28 0 0 0
M  V30 BEGIN ATOM
M  V30 1 N 4.85523 1.4163 0.318205 0
M  V30 2 N 3.48867 1.66828 0.432728 0
M  V30 3 C 2.48442 0.733695 0.107242 0
M  V30 4 C 1.16247 1.0846 0.257251 0
M  V30 5 C 0.129597 0.221987 -0.0414339 0
M  V30 6 N -1.21756 0.62328 0.127443 0
M  V30 7 N -2.24016 -0.245077 -0.173525 0
M  V30 8 C -3.17722 -0.526925 0.900943 0
M  V30 9 C -4.25638 -0.628685 -0.186932 0
M  V30 10 C -3.36805 0.392738 -0.87036 0
M  V30 11 N 0.479247 -1.0003 -0.494324 0
M  V30 12 C 1.76229 -1.36898 -0.6502 0
M  V30 13 N 2.76252 -0.497677 -0.347804 0
M  V30 14 N 2.13636 -2.65471 -1.12668 0
M  V30 15 H 5.32525 1.19699 1.20036 0
M  V30 16 H 5.11843 0.858668 -0.49968 0
M  V30 17 H 3.21772 2.61018 0.781739 0
M  V30 18 H 0.924767 2.09216 0.629751 0
M  V30 19 H -1.41276 1.5785 0.480131 0
M  V30 20 H -2.99763 -1.47733 1.4401 0
M  V30 21 H -3.41433 0.352366 1.53222 0
M  V30 22 H -4.25058 -1.61916 -0.680905 0
M  V30 23 H -5.22884 -0.219615 0.101396 0
M  V30 24 H -3.52887 1.38854 -0.441278 0
M  V30 25 H -3.30772 0.308551 -1.96193 0
M  V30 26 H 2.73659 -3.29868 -0.566584 0
M  V30 27 H 1.81654 -2.98969 -2.05805 0
M  V30 END ATOM
M  V30 BEGIN BOND
M  V30 1 1 1 2
M  V30 2 1 2 3
M  V30 3 2 3 4
M  V30 4 1 4 5
M  V30 5 1 5 6
M  V30 6 1 6 7
M  V30 7 1 7 8
M  V30 8 1 8 9
M  V30 9 1 9 10
M  V30 10 2 5 11
M  V30 11 1 11 12
M  V30 12 2 12 13
M  V30 13 1 12 14
M  V30 14 1 13 3
M  V30 15 1 10 7
M  V30 16 1 1 15
M  V30 17 1 1 16
M  V30 18 1 2 17
M  V30 19 1 4 18
M  V30 20 1 6 19
M  V30 21 1 8 20
M  V30 22 1 8 21
M  V30 23 1 9 22
M  V30 24 1 9 23
M  V30 25 1 10 24
M  V30 26 1 10 25
M  V30 27 1 14 26
M  V30 28 1 14 27
M  V30 END BOND
M  V30 END CTAB
M  END
