
     RDKit          3D

  0  0  0  0  0  0  0  0  0  0999 V3000
M  V30 BEGIN CTAB
M  V30 COUNTS 40 41 0 0 0
M  V30 BEGIN ATOM
M  V30 1 N 6.64796 -1.03933 0.678864 0
M  V30 2 C 5.27125 -0.744507 0.472636 0
M  V30 3 C 4.29511 -1.57961 0.948816 0
M  V30 4 C 2.93632 -1.31407 0.760425 0
M  V30 5 C 2.54034 -0.186145 0.0793068 0
M  V30 6 N 1.19887 0.154304 -0.154522 0
M  V30 7 C 0.0274611 -0.516345 0.222662 0
M  V30 8 O 0.108915 -1.57703 0.861638 0
M  V30 9 N -1.23285 0.0169216 -0.125326 0
M  V30 10 C -2.50813 -0.474706 0.141823 0
M  V30 11 C -2.75396 -1.6409 0.826905 0
M  V30 12 C -4.06064 -2.07165 1.05495 0
M  V30 13 C -5.16449 -1.37782 0.621647 0
M  V30 14 N -6.47949 -1.84826 0.873001 0
M  V30 15 C -4.91657 -0.209605 -0.0645673 0
M  V30 16 C -3.63817 0.239923 -0.304266 0
M  V30 17 S -3.3737 1.72772 -1.17673 0
M  V30 18 O -2.54927 2.84957 -0.279018 0
M  V30 19 O -2.68735 1.42474 -2.46224 0
M  V30 20 O -4.72416 2.36195 -1.50433 0
M  V30 21 C 3.53179 0.680206 -0.415135 0
M  V30 22 C 4.84344 0.374362 -0.203784 0
M  V30 23 S 3.11798 2.12746 -1.28594 0
M  V30 24 O 2.18957 3.19845 -0.392098 0
M  V30 25 O 4.37568 2.86049 -1.66465 0
M  V30 26 O 2.43274 1.77816 -2.58451 0
M  V30 27 H 7.02013 -1.9217 0.28053 0
M  V30 28 H 7.23709 -0.370424 1.21691 0
M  V30 29 H 4.55286 -2.49031 1.49741 0
M  V30 30 H 2.22359 -2.03403 1.17357 0
M  V30 31 H 1.04385 1.06597 -0.706018 0
M  V30 32 H -1.17283 0.930653 -0.673817 0
M  V30 33 H -1.94285 -2.25154 1.20456 0
M  V30 34 H -4.20421 -3.00328 1.60333 0
M  V30 35 H -6.97706 -2.37779 0.135347 0
M  V30 36 H -6.95847 -1.67757 1.77487 0
M  V30 37 H -5.74455 0.392723 -0.438041 0
M  V30 38 H -2.83145 3.75557 -0.488266 0
M  V30 39 H 5.61782 1.04321 -0.585325 0
M  V30 40 H 2.70743 3.72424 0.238478 0
M  V30 END ATOM
M  V30 BEGIN BOND
M  V30 1 1 1 2
M  V30 2 2 2 3
M  V30 3 1 3 4
M  V30 4 2 4 5
M  V30 5 1 5 6
M  V30 6 1 6 7
M  V30 7 2 7 8
M  V30 8 1 7 9
M  V30 9 1 9 10
M  V30 10 2 10 11
M  V30 11 1 11 12
M  V30 12 2 12 13
M  V30 13 1 13 14
M  V30 14 1 13 15
M  V30 15 2 15 16
M  V30 16 1 16 17
M  V30 17 1 17 18
M  V30 18 2 17 19
M  V30 19 2 17 20
M  V30 20 1 5 21
M  V30 21 2 21 22
M  V30 22 1 21 23
M  V30 23 1 23 24
M  V30 24 2 23 25
M  V30 25 2 23 26
M  V30 26 1 22 2
M  V30 27 1 16 10
M  V30 28 1 1 27
M  V30 29 1 1 28
M  V30 30 1 3 29
M  V30 31 1 4 30
M  V30 32 1 6 31
M  V30 33 1 9 32
M  V30 34 1 11 33
M  V30 35 1 12 34
M  V30 36 1 14 35
M  V30 37 1 14 36
M  V30 38 1 15 37
M  V30 39 1 18 38
M  V30 40 1 22 39
M  V30 41 1 24 40
M  V30 END BOND
M  V30 END CTAB
M  END
