
     RDKit          3D

  0  0  0  0  0  0  0  0  0  0999 V3000
M  V30 BEGIN CTAB
M  V30 COUNTS 31 33 0 0 0
M  V30 BEGIN ATOM
M  V30 1 N 5.72784 -0.215314 1.26001 0
M  V30 2 C 4.46605 -0.0928748 0.644164 0
M  V30 3 N 3.3538 -0.287371 1.39306 0
M  V30 4 C 2.12966 -0.175376 0.824629 0
M  V30 5 C 0.968554 -0.364036 1.54499 0
M  V30 6 C -0.278313 -0.247298 0.954626 0
M  V30 7 C -0.365913 0.0649812 -0.385641 0
M  V30 8 O -1.5591 0.202327 -1.06007 0
M  V30 9 C -2.80292 0.0511367 -0.506697 0
M  V30 10 C -3.43714 1.14035 0.039244 0
M  V30 11 C -4.70464 1.03208 0.613505 0
M  V30 12 C -5.32396 -0.183762 0.631074 0
M  V30 13 C -4.7113 -1.30579 0.0878899 0
M  V30 14 C -3.44055 -1.16034 -0.479494 0
M  V30 15 C 0.798518 0.252595 -1.1013 0
M  V30 16 C 2.05531 0.141845 -0.535776 0
M  V30 17 C 3.20449 0.335205 -1.2771 0
M  V30 18 N 3.09934 0.6568 -2.65852 0
M  V30 19 N 4.3876 0.213764 -0.671333 0
M  V30 20 H 5.87864 0.144318 2.21405 0
M  V30 21 H 6.50419 -0.666705 0.754237 0
M  V30 22 H 1.01189 -0.609144 2.59513 0
M  V30 23 H -1.19854 -0.393352 1.51075 0
M  V30 24 H -2.98097 2.1139 0.043942 0
M  V30 25 H -5.17418 1.90144 1.03194 0
M  V30 26 H -6.3173 -0.275921 1.07947 0
M  V30 27 H -5.22055 -2.25925 0.112803 0
M  V30 28 H -2.99437 -2.05128 -0.891774 0
M  V30 29 H 0.770497 0.503158 -2.17356 0
M  V30 30 H 2.4136 1.34077 -3.04536 0
M  V30 31 H 3.73977 0.193135 -3.36561 0
M  V30 END ATOM
M  V30 BEGIN BOND
M  V30 1 1 1 2
M  V30 2 2 2 3
M  V30 3 1 3 4
M  V30 4 2 4 5
M  V30 5 1 5 6
M  V30 6 2 6 7
M  V30 7 1 7 8
M  V30 8 1 8 9
M  V30 9 2 9 10
M  V30 10 1 10 11
M  V30 11 2 11 12
M  V30 12 1 12 13
M  V30 13 2 13 14
M  V30 14 1 7 15
M  V30 15 2 15 16
M  V30 16 1 16 17
M  V30 17 1 17 18
M  V30 18 2 17 19
M  V30 19 1 19 2
M  V30 20 1 16 4
M  V30 21 1 14 9
M  V30 22 1 1 20
M  V30 23 1 1 21
M  V30 24 1 5 22
M  V30 25 1 6 23
M  V30 26 1 10 24
M  V30 27 1 11 25
M  V30 28 1 12 26
M  V30 29 1 13 27
M  V30 30 1 14 28
M  V30 31 1 15 29
M  V30 32 1 18 30
M  V30 33 1 18 31
M  V30 END BOND
M  V30 END CTAB
M  END
