
     RDKit          3D

  0  0  0  0  0  0  0  0  0  0999 V3000
M  V30 BEGIN CTAB
M  V30 COUNTS 19 19 0 0 0
M  V30 BEGIN ATOM
M  V30 1 N 3.51748 -0.105696 -0.342684 0
M  V30 2 C 2.11507 -0.139637 -0.206258 0
M  V30 3 N 1.40218 -1.28011 -0.156676 0
M  V30 4 C 0.0663984 -1.33626 -0.0271355 0
M  V30 5 C -0.690639 -0.18369 0.067134 0
M  V30 6 C -0.00274847 1.01127 0.0209539 0
M  V30 7 C 1.37598 1.04585 -0.113164 0
M  V30 8 N -0.673588 2.26532 0.108585 0
M  V30 9 O -2.05184 -0.156348 0.200632 0
M  V30 10 C -2.9049 -1.25546 0.264649 0
M  V30 11 F -2.85908 -2.06206 -0.847949 0
M  V30 12 F -4.21155 -0.752025 0.330561 0
M  V30 13 F -2.74283 -2.02891 1.39102 0
M  V30 14 H 3.93328 0.11713 -1.25553 0
M  V30 15 H 4.11808 -0.302718 0.466365 0
M  V30 16 H -0.477206 -2.28554 0.0092704 0
M  V30 17 H 1.93219 1.97849 -0.151102 0
M  V30 18 H -0.870066 2.77964 -0.763083 0
M  V30 19 H -0.976215 2.69075 1.00441 0
M  V30 END ATOM
M  V30 BEGIN BOND
M  V30 1 1 1 2
M  V30 2 2 2 3
M  V30 3 1 3 4
M  V30 4 2 4 5
M  V30 5 1 5 6
M  V30 6 2 6 7
M  V30 7 1 6 8
M  V30 8 1 5 9
M  V30 9 1 9 10
M  V30 10 1 10 11
M  V30 11 1 10 12
M  V30 12 1 10 13
M  V30 13 1 7 2
M  V30 14 1 1 14
M  V30 15 1 1 15
M  V30 16 1 4 16
M  V30 17 1 7 17
M  V30 18 1 8 18
M  V30 19 1 8 19
M  V30 END BOND
M  V30 END CTAB
M  END
