
     RDKit          3D

  0  0  0  0  0  0  0  0  0  0999 V3000
M  V30 BEGIN CTAB
M  V30 COUNTS 28 28 0 0 0
M  V30 BEGIN ATOM
M  V30 1 C 5.57162 -0.131177 0.757983 0
M  V30 2 C 4.22111 -0.283339 0.14165 0
M  V30 3 O 3.18041 0.159177 0.991851 0
M  V30 4 C 1.85256 0.124736 0.658481 0
M  V30 5 N 1.43662 -0.344586 -0.531499 0
M  V30 6 C 0.134557 -0.390561 -0.887293 0
M  V30 7 N -0.273793 -0.896541 -2.16265 0
M  V30 8 C -0.773872 0.0739451 0.040104 0
M  V30 9 N -0.37288 0.544425 1.22999 0
M  V30 10 C 0.926333 0.584379 1.57099 0
M  V30 11 Cl 1.41442 1.21039 3.14565 0
M  V30 12 C -2.19491 0.0317753 -0.329241 0
M  V30 13 O -2.57377 -0.408164 -1.44268 0
M  V30 14 N -3.18544 0.492489 0.573664 0
M  V30 15 C -4.55548 0.474128 0.270358 0
M  V30 16 N -4.9863 -0.0315725 -1.00852 0
M  V30 17 N -5.43881 0.8924 1.09307 0
M  V30 18 H 6.2993 -0.701882 0.137554 0
M  V30 19 H 5.94131 0.927856 0.755837 0
M  V30 20 H 5.60826 -0.489499 1.81006 0
M  V30 21 H 4.17148 0.327701 -0.772861 0
M  V30 22 H 4.08724 -1.34146 -0.162944 0
M  V30 23 H -0.559324 -1.89839 -2.29979 0
M  V30 24 H -0.299456 -0.276238 -3.00214 0
M  V30 25 H -2.88507 0.86606 1.5151 0
M  V30 26 H -5.34776 0.656575 -1.73264 0
M  V30 27 H -4.94391 -1.04645 -1.21655 0
M  V30 28 H -6.45441 0.873816 0.85646 0
M  V30 END ATOM
M  V30 BEGIN BOND
M  V30 1 1 1 2
M  V30 2 1 2 3
M  V30 3 1 3 4
M  V30 4 2 4 5
M  V30 5 1 5 6
M  V30 6 1 6 7
M  V30 7 2 6 8
M  V30 8 1 8 9
M  V30 9 2 9 10
M  V30 10 1 10 11
M  V30 11 1 8 12
M  V30 12 2 12 13
M  V30 13 1 12 14
M  V30 14 1 14 15
M  V30 15 1 15 16
M  V30 16 2 15 17 CFG=2
M  V30 17 1 10 4
M  V30 18 1 1 18
M  V30 19 1 1 19
M  V30 20 1 1 20
M  V30 21 1 2 21
M  V30 22 1 2 22
M  V30 23 1 7 23
M  V30 24 1 7 24
M  V30 25 1 14 25
M  V30 26 1 16 26
M  V30 27 1 16 27
M  V30 28 1 17 28
M  V30 END BOND
M  V30 END CTAB
M  END
