
     RDKit          3D

  0  0  0  0  0  0  0  0  0  0999 V3000
M  V30 BEGIN CTAB
M  V30 COUNTS 19 21 0 0 0
M  V30 BEGIN ATOM
M  V30 1 N -4.78471 0.861007 0.48151 0
M  V30 2 C -3.44133 0.373933 0.404248 0
M  V30 3 N -2.31671 1.03385 0.482649 0
M  V30 4 C -1.16983 0.393316 0.386583 0
M  V30 5 N 0.0493929 1.009 0.458205 0
M  V30 6 C 1.20655 0.325756 0.356319 0
M  V30 7 C 1.17835 -1.03401 0.17436 0
M  V30 8 S 2.82187 -1.42684 0.10705 0
M  V30 9 C 3.46998 0.165162 0.314591 0
M  V30 10 N 4.84169 0.568793 0.356427 0
M  V30 11 N 2.39347 0.883627 0.420478 0
M  V30 12 C -0.048112 -1.67064 0.099995 0
M  V30 13 C -1.24012 -0.966141 0.205038 0
M  V30 14 S -2.91359 -1.23785 0.183555 0
M  V30 15 H -5.39966 0.486791 1.23505 0
M  V30 16 H -5.15563 1.5544 -0.169337 0
M  V30 17 H 5.24571 0.827081 1.26813 0
M  V30 18 H 5.37048 0.58559 -0.522942 0
M  V30 19 H -0.107816 -2.73284 -0.041814 0
M  V30 END ATOM
M  V30 BEGIN BOND
M  V30 1 1 1 2
M  V30 2 2 2 3
M  V30 3 1 3 4
M  V30 4 2 4 5
M  V30 5 1 5 6
M  V30 6 2 6 7
M  V30 7 1 7 8
M  V30 8 1 8 9
M  V30 9 1 9 10
M  V30 10 2 9 11
M  V30 11 1 7 12
M  V30 12 2 12 13
M  V30 13 1 13 14
M  V30 14 1 14 2
M  V30 15 1 13 4
M  V30 16 1 11 6
M  V30 17 1 1 15
M  V30 18 1 1 16
M  V30 19 1 10 17
M  V30 20 1 10 18
M  V30 21 1 12 19
M  V30 END BOND
M  V30 END CTAB
M  END
