
     RDKit          3D

  0  0  0  0  0  0  0  0  0  0999 V3000
M  V30 BEGIN CTAB
M  V30 COUNTS 60 64 0 0 0
M  V30 BEGIN ATOM
M  V30 1 C -0.59905 2.38383 2.29505 0
M  V30 2 O -1.35372 1.47701 1.51679 0
M  V30 3 C -0.64915 0.486889 0.803546 0
M  V30 4 C -1.34001 -0.446505 0.0101585 0
M  V30 5 N -2.74037 -0.325369 -0.021565 0
M  V30 6 C -3.67201 -1.09846 -0.709052 0
M  V30 7 O -3.2342 -2.06058 -1.43619 0
M  V30 8 C -5.11131 -0.955479 -0.716678 0
M  V30 9 C -5.95564 -1.5346 -1.67596 0
M  V30 10 C -7.25371 -1.23177 -1.3809 0
M  V30 11 C -7.21029 -0.469191 -0.243438 0
M  V30 12 C -8.39178 0.00788564 0.321597 0
M  V30 13 C -9.58244 -0.310629 -0.295447 0
M  V30 14 C -9.63644 -1.07482 -1.4364 0
M  V30 15 C -8.47394 -1.54688 -1.99641 0
M  V30 16 N -5.90513 -0.320618 0.133465 0
M  V30 17 C -5.56511 0.435846 1.35104 0
M  V30 18 C -0.592695 -1.39185 -0.663938 0
M  V30 19 C 0.784121 -1.43992 -0.578598 0
M  V30 20 C 1.44194 -0.533213 0.190752 0
M  V30 21 C 0.715242 0.407412 0.863147 0
M  V30 22 C 2.93189 -0.647828 0.316749 0
M  V30 23 C 3.39235 -1.74404 1.01455 0
M  V30 24 S 5.06571 -1.50378 1.0222 0
M  V30 25 C 5.16697 -0.0375575 0.152095 0
M  V30 26 C 3.83818 0.230667 -0.12963 0
M  V30 27 C 3.63636 1.40791 -0.876055 0
M  V30 28 N 2.3354 1.81524 -1.28488 0
M  V30 29 N 4.65487 2.15993 -1.24895 0
M  V30 30 C 5.93507 1.93383 -0.994398 0
M  V30 31 C 6.21349 0.760765 -0.246381 0
M  V30 32 C 7.58407 0.491867 0.0467926 0
M  V30 33 C 8.02746 -0.522096 0.729479 0
M  V30 34 C 9.53006 -0.638501 0.937455 0
M  V30 35 N 10.2562 0.426107 0.327278 0
M  V30 36 H 0.175776 2.91563 1.71562 0
M  V30 37 H -1.33801 3.09591 2.74849 0
M  V30 38 H -0.150934 1.84906 3.17718 0
M  V30 39 H -3.13784 0.485938 0.542791 0
M  V30 40 H -5.65005 -2.13457 -2.53126 0
M  V30 41 H -8.33951 0.605927 1.21461 0
M  V30 42 H -10.4871 0.075077 0.16755 0
M  V30 43 H -10.5982 -1.30167 -1.88957 0
M  V30 44 H -8.45291 -2.14518 -2.88203 0
M  V30 45 H -4.84274 -0.12745 1.96031 0
M  V30 46 H -6.47957 0.522906 2.01633 0
M  V30 47 H -5.20123 1.4201 1.07761 0
M  V30 48 H -1.09007 -2.13071 -1.2871 0
M  V30 49 H 1.31763 -2.19115 -1.11966 0
M  V30 50 H 1.23282 1.14058 1.48409 0
M  V30 51 H 2.79916 -2.56903 1.45428 0
M  V30 52 H 1.94324 2.69718 -0.887818 0
M  V30 53 H 1.74338 1.29349 -1.95952 0
M  V30 54 H 6.74626 2.56252 -1.30883 0
M  V30 55 H 8.35878 1.20087 -0.334299 0
M  V30 56 H 7.42327 -1.29161 1.16554 0
M  V30 57 H 9.8005 -1.5808 0.397799 0
M  V30 58 H 9.7222 -0.757469 2.01545 0
M  V30 59 H 10.0845 1.36396 0.691394 0
M  V30 60 H 10.1782 0.409009 -0.690096 0
M  V30 END ATOM
M  V30 BEGIN BOND
M  V30 1 1 1 2
M  V30 2 1 2 3
M  V30 3 2 3 4
M  V30 4 1 4 5
M  V30 5 1 5 6
M  V30 6 2 6 7
M  V30 7 1 6 8
M  V30 8 2 8 9
M  V30 9 1 9 10
M  V30 10 2 10 11
M  V30 11 1 11 12
M  V30 12 2 12 13
M  V30 13 1 13 14
M  V30 14 2 14 15
M  V30 15 1 11 16
M  V30 16 1 16 17
M  V30 17 1 4 18
M  V30 18 2 18 19
M  V30 19 1 19 20
M  V30 20 2 20 21
M  V30 21 1 20 22
M  V30 22 2 22 23
M  V30 23 1 23 24
M  V30 24 1 24 25
M  V30 25 2 25 26
M  V30 26 1 26 27
M  V30 27 1 27 28
M  V30 28 2 27 29
M  V30 29 1 29 30
M  V30 30 2 30 31
M  V30 31 1 31 32
M  V30 32 2 32 33
M  V30 33 1 33 34
M  V30 34 1 34 35
M  V30 35 1 21 3
M  V30 36 1 26 22
M  V30 37 1 16 8
M  V30 38 1 31 25
M  V30 39 1 15 10
M  V30 40 1 1 36
M  V30 41 1 1 37
M  V30 42 1 1 38
M  V30 43 1 5 39
M  V30 44 1 9 40
M  V30 45 1 12 41
M  V30 46 1 13 42
M  V30 47 1 14 43
M  V30 48 1 15 44
M  V30 49 1 17 45
M  V30 50 1 17 46
M  V30 51 1 17 47
M  V30 52 1 18 48
M  V30 53 1 19 49
M  V30 54 1 21 50
M  V30 55 1 23 51
M  V30 56 1 28 52
M  V30 57 1 28 53
M  V30 58 1 30 54
M  V30 59 1 32 55
M  V30 60 1 33 56
M  V30 61 1 34 57
M  V30 62 1 34 58
M  V30 63 1 35 59
M  V30 64 1 35 60
M  V30 END BOND
M  V30 END CTAB
M  END
