
     RDKit          3D

  0  0  0  0  0  0  0  0  0  0999 V3000
M  V30 BEGIN CTAB
M  V30 COUNTS 24 25 0 0 0
M  V30 BEGIN ATOM
M  V30 1 C -4.47808 0.269234 -0.664045 0
M  V30 2 C -3.0383 0.108549 -0.33049 0
M  V30 3 C -2.60658 -0.580367 0.781035 0
M  V30 4 C -1.26537 -0.718156 1.07296 0
M  V30 5 C -0.278567 -0.16061 0.247507 0
M  V30 6 C -0.75499 0.512148 -0.840988 0
M  V30 7 N -2.08728 0.638632 -1.11457 0
M  V30 8 C 1.11548 -0.341936 0.611095 0
M  V30 9 N 1.56809 -1.02417 1.7133 0
M  V30 10 N 2.88421 -1.0006 1.74904 0
M  V30 11 C 3.34161 -0.318503 0.697498 0
M  V30 12 N 2.22044 0.0753601 0.0135124 0
M  V30 13 N 2.33697 0.818943 -1.15401 0
M  V30 14 N 4.69296 -0.0526118 0.352615 0
M  V30 15 H -5.05575 -0.174367 0.170498 0
M  V30 16 H -4.65244 -0.334569 -1.58356 0
M  V30 17 H -4.78455 1.31823 -0.776026 0
M  V30 18 H -3.34875 -1.02011 1.43408 0
M  V30 19 H -0.914702 -1.2585 1.94543 0
M  V30 20 H -0.0676949 0.968691 -1.5236 0
M  V30 21 H 2.52516 1.83255 -1.15943 0
M  V30 22 H 2.23058 0.339448 -2.09035 0
M  V30 23 H 5.26971 0.598709 0.919564 0
M  V30 24 H 5.14789 -0.495999 -0.471064 0
M  V30 END ATOM
M  V30 BEGIN BOND
M  V30 1 1 1 2
M  V30 2 2 2 3
M  V30 3 1 3 4
M  V30 4 2 4 5
M  V30 5 1 5 6
M  V30 6 2 6 7
M  V30 7 1 5 8
M  V30 8 2 8 9
M  V30 9 1 9 10
M  V30 10 2 10 11
M  V30 11 1 11 12
M  V30 12 1 12 13
M  V30 13 1 11 14
M  V30 14 1 7 2
M  V30 15 1 12 8
M  V30 16 1 1 15
M  V30 17 1 1 16
M  V30 18 1 1 17
M  V30 19 1 3 18
M  V30 20 1 4 19
M  V30 21 1 6 20
M  V30 22 1 13 21
M  V30 23 1 13 22
M  V30 24 1 14 23
M  V30 25 1 14 24
M  V30 END BOND
M  V30 END CTAB
M  END
