
     RDKit          3D

  0  0  0  0  0  0  0  0  0  0999 V3000
M  V30 BEGIN CTAB
M  V30 COUNTS 42 44 0 0 0
M  V30 BEGIN ATOM
M  V30 1 N -0.80667 -3.31899 -3.01532 0
M  V30 2 C -0.2538 -2.06778 -2.60726 0
M  V30 3 N -0.752046 -1.41242 -1.58103 0
M  V30 4 C -0.271623 -0.225543 -1.14839 0
M  V30 5 N -0.870639 0.328966 -0.0154265 0
M  V30 6 C -1.99358 -0.150269 0.698679 0
M  V30 7 C -2.99386 -0.936739 0.199975 0
M  V30 8 C -4.05088 -1.39094 0.980184 0
M  V30 9 C -4.12996 -1.05986 2.30099 0
M  V30 10 C -3.1385 -0.270674 2.82481 0
M  V30 11 C -2.10209 0.173345 2.05697 0
M  V30 12 C -5.23767 -1.51652 3.18699 0
M  V30 13 C 0.792942 0.320288 -1.82061 0
M  V30 14 C 1.32466 -0.368001 -2.90678 0
M  V30 15 N 0.781352 -1.53129 -3.25537 0
M  V30 16 N 2.44154 0.182897 -3.63818 0
M  V30 17 S 1.46946 1.83198 -1.38835 0
M  V30 18 O 2.13936 2.43485 -2.63732 0
M  V30 19 O 0.414588 2.82348 -1.02513 0
M  V30 20 C 2.67146 1.79202 -0.140041 0
M  V30 21 C 3.99295 1.5749 -0.549791 0
M  V30 22 C 5.04053 1.52614 0.345301 0
M  V30 23 C 4.77696 1.6963 1.68031 0
M  V30 24 C 3.48764 1.91116 2.1082 0
M  V30 25 C 2.45562 1.95595 1.19443 0
M  V30 26 H -1.39535 -3.8927 -2.37692 0
M  V30 27 H -0.647731 -3.71737 -3.97026 0
M  V30 28 H -0.439331 1.20829 0.364709 0
M  V30 29 H -3.02147 -1.2295 -0.836894 0
M  V30 30 H -4.82787 -2.01269 0.558202 0
M  V30 31 H -3.21323 -0.00980677 3.89147 0
M  V30 32 H -1.33473 0.786763 2.47349 0
M  V30 33 H -5.97738 -0.681232 3.2398 0
M  V30 34 H -5.70659 -2.44156 2.81099 0
M  V30 35 H -4.85821 -1.65395 4.22973 0
M  V30 36 H 3.38225 -0.059763 -3.26765 0
M  V30 37 H 2.24642 0.770644 -4.46529 0
M  V30 38 H 4.2689 1.43602 -1.58601 0
M  V30 39 H 6.06956 1.35454 0.00223501 0
M  V30 40 H 5.58534 1.66044 2.38882 0
M  V30 41 H 3.26473 2.04891 3.17593 0
M  V30 42 H 1.41697 2.12976 1.51983 0
M  V30 END ATOM
M  V30 BEGIN BOND
M  V30 1 1 1 2
M  V30 2 2 2 3
M  V30 3 1 3 4
M  V30 4 1 4 5
M  V30 5 1 5 6
M  V30 6 2 6 7
M  V30 7 1 7 8
M  V30 8 2 8 9
M  V30 9 1 9 10
M  V30 10 2 10 11
M  V30 11 1 9 12
M  V30 12 2 4 13
M  V30 13 1 13 14
M  V30 14 2 14 15
M  V30 15 1 14 16
M  V30 16 1 13 17
M  V30 17 2 17 18
M  V30 18 2 17 19
M  V30 19 1 17 20
M  V30 20 2 20 21
M  V30 21 1 21 22
M  V30 22 2 22 23
M  V30 23 1 23 24
M  V30 24 2 24 25
M  V30 25 1 15 2
M  V30 26 1 25 20
M  V30 27 1 11 6
M  V30 28 1 1 26
M  V30 29 1 1 27
M  V30 30 1 5 28
M  V30 31 1 7 29
M  V30 32 1 8 30
M  V30 33 1 10 31
M  V30 34 1 11 32
M  V30 35 1 12 33
M  V30 36 1 12 34
M  V30 37 1 12 35
M  V30 38 1 16 36
M  V30 39 1 16 37
M  V30 40 1 21 38
M  V30 41 1 22 39
M  V30 42 1 23 40
M  V30 43 1 24 41
M  V30 44 1 25 42
M  V30 END BOND
M  V30 END CTAB
M  END
