
     RDKit          3D

  0  0  0  0  0  0  0  0  0  0999 V3000
M  V30 BEGIN CTAB
M  V30 COUNTS 18 18 0 0 0
M  V30 BEGIN ATOM
M  V30 1 N 2.35595 -1.42061 0.368877 0
M  V30 2 C 0.966462 -1.4141 0.112922 0
M  V30 3 N 0.269356 -2.50447 -0.251374 0
M  V30 4 O -0.986115 -2.20327 -0.418957 0
M  V30 5 C -1.14367 -0.915155 -0.170314 0
M  V30 6 C 0.0892197 -0.369334 0.175774 0
M  V30 7 S 0.447005 1.27143 0.595997 0
M  V30 8 O -0.725224 1.92146 1.24257 0
M  V30 9 O 1.62701 1.36625 1.5376 0
M  V30 10 N 0.856733 2.15517 -0.832363 0
M  V30 11 C -2.43681 -0.190602 -0.253561 0
M  V30 12 H 2.78446 -1.32742 1.31521 0
M  V30 13 H 3.02463 -1.52694 -0.44801 0
M  V30 14 H 1.04645 3.14726 -0.594067 0
M  V30 15 H 0.111057 2.06692 -1.54186 0
M  V30 16 H -3.27266 -0.920822 -0.258175 0
M  V30 17 H -2.61653 0.46567 0.628045 0
M  V30 18 H -2.39732 0.398583 -1.2083 0
M  V30 END ATOM
M  V30 BEGIN BOND
M  V30 1 1 1 2
M  V30 2 2 2 3
M  V30 3 1 3 4
M  V30 4 1 4 5
M  V30 5 2 5 6
M  V30 6 1 6 7
M  V30 7 2 7 8
M  V30 8 2 7 9
M  V30 9 1 7 10
M  V30 10 1 5 11
M  V30 11 1 6 2
M  V30 12 1 1 12
M  V30 13 1 1 13
M  V30 14 1 10 14
M  V30 15 1 10 15
M  V30 16 1 11 16
M  V30 17 1 11 17
M  V30 18 1 11 18
M  V30 END BOND
M  V30 END CTAB
M  END
