
     RDKit          3D

  0  0  0  0  0  0  0  0  0  0999 V3000
M  V30 BEGIN CTAB
M  V30 COUNTS 29 29 0 0 0
M  V30 BEGIN ATOM
M  V30 1 C 5.06022 0.861525 0.149685 0
M  V30 2 O 4.09236 0.0437005 -0.47595 0
M  V30 3 C 2.73884 0.128562 -0.190423 0
M  V30 4 O 2.32609 0.964171 0.6615 0
M  V30 5 C 1.79542 -0.78541 -0.908802 0
M  V30 6 C 0.397664 -0.552519 -0.473015 0
M  V30 7 C -0.500192 0.133066 -1.23293 0
M  V30 8 C -1.82675 0.35667 -0.812478 0
M  V30 9 N -2.71137 1.06602 -1.66886 0
M  V30 10 C -2.23196 -0.129125 0.399683 0
M  V30 11 C -1.27723 -0.837269 1.16661 0
M  V30 12 C -0.00792876 -1.04831 0.757567 0
M  V30 13 N 0.948304 -1.77648 1.55897 0
M  V30 14 O -3.46603 0.0246505 0.89353 0
M  V30 15 C -4.64423 0.58429 0.637568 0
M  V30 16 F -5.44389 -0.146825 -0.229286 0
M  V30 17 F -4.64965 1.93795 0.296613 0
M  V30 18 H 5.15788 0.606081 1.22923 0
M  V30 19 H 4.81566 1.94184 0.000386222 0
M  V30 20 H 6.04346 0.645887 -0.321 0
M  V30 21 H 2.10533 -1.83661 -0.644594 0
M  V30 22 H 1.90159 -0.730259 -2.01233 0
M  V30 23 H -0.240176 0.542295 -2.20074 0
M  V30 24 H -3.45866 0.585007 -2.21053 0
M  V30 25 H -2.62222 2.09771 -1.776 0
M  V30 26 H -1.60422 -1.21309 2.11539 0
M  V30 27 H 1.46531 -1.28976 2.29562 0
M  V30 28 H 1.09413 -2.7732 1.37579 0
M  V30 29 H -5.25777 0.599427 1.61879 0
M  V30 END ATOM
M  V30 BEGIN BOND
M  V30 1 1 1 2
M  V30 2 1 2 3
M  V30 3 2 3 4
M  V30 4 1 3 5
M  V30 5 1 5 6
M  V30 6 2 6 7
M  V30 7 1 7 8
M  V30 8 1 8 9
M  V30 9 2 8 10
M  V30 10 1 10 11
M  V30 11 2 11 12
M  V30 12 1 12 13
M  V30 13 1 10 14
M  V30 14 1 14 15
M  V30 15 1 15 16
M  V30 16 1 15 17
M  V30 17 1 12 6
M  V30 18 1 1 18
M  V30 19 1 1 19
M  V30 20 1 1 20
M  V30 21 1 5 21
M  V30 22 1 5 22
M  V30 23 1 7 23
M  V30 24 1 9 24
M  V30 25 1 9 25
M  V30 26 1 11 26
M  V30 27 1 13 27
M  V30 28 1 13 28
M  V30 29 1 15 29
M  V30 END BOND
M  V30 END CTAB
M  END
