
     RDKit          3D

  0  0  0  0  0  0  0  0  0  0999 V3000
M  V30 BEGIN CTAB
M  V30 COUNTS 38 39 0 0 0
M  V30 BEGIN ATOM
M  V30 1 N -4.76171 0.430071 0.955857 0
M  V30 2 C -4.06627 -0.436617 0.0329562 0
M  V30 3 C -2.73392 0.147654 -0.377105 0
M  V30 4 C -2.90296 1.47161 -1.04666 0
M  V30 5 C -2.0804 -0.837491 -1.32955 0
M  V30 6 C -1.14297 -1.54815 -0.320346 0
M  V30 7 N -0.548269 -0.397924 0.292306 0
M  V30 8 C -1.82044 0.27143 0.806928 0
M  V30 9 C 0.694149 0.176754 0.505171 0
M  V30 10 O 0.645616 1.30021 1.16858 0
M  V30 11 C 1.9956 -0.254095 0.122842 0
M  V30 12 C 2.29592 -1.39729 -0.583876 0
M  V30 13 C 3.60639 -1.74247 -0.918548 0
M  V30 14 C 4.63788 -0.946654 -0.549986 0
M  V30 15 C 4.40391 0.201348 0.152899 0
M  V30 16 C 3.10806 0.537699 0.480934 0
M  V30 17 N 2.84376 1.7294 1.21285 0
M  V30 18 N 5.48355 1.04672 0.545737 0 CHG=1
M  V30 19 O 5.36541 2.27641 0.645821 0
M  V30 20 O 6.70546 0.490723 0.826182 0 CHG=-1
M  V30 21 H -4.65415 0.0856006 1.9508 0
M  V30 22 H -5.79101 0.470505 0.740309 0
M  V30 23 H -4.6783 -0.519943 -0.882701 0
M  V30 24 H -3.90391 -1.45128 0.442578 0
M  V30 25 H -3.75348 2.00173 -0.558785 0
M  V30 26 H -3.03379 1.39183 -2.1407 0
M  V30 27 H -1.99235 2.08579 -0.888695 0
M  V30 28 H -1.4882 -0.263911 -2.05544 0
M  V30 29 H -2.76384 -1.57414 -1.74611 0
M  V30 30 H -1.87148 -1.95063 0.442341 0
M  V30 31 H -0.558878 -2.29468 -0.785858 0
M  V30 32 H -1.58498 1.31197 1.00336 0
M  V30 33 H -2.11752 -0.328367 1.68117 0
M  V30 34 H 1.50605 -2.05304 -0.89447 0
M  V30 35 H 3.78895 -2.64139 -1.46903 0
M  V30 36 H 5.68264 -1.1692 -0.784863 0
M  V30 37 H 2.80617 1.78001 2.251 0
M  V30 38 H 2.67934 2.59981 0.673758 0
M  V30 END ATOM
M  V30 BEGIN BOND
M  V30 1 1 1 2
M  V30 2 1 2 3
M  V30 3 1 3 4
M  V30 4 1 3 5
M  V30 5 1 5 6
M  V30 6 1 6 7
M  V30 7 1 7 8
M  V30 8 1 7 9
M  V30 9 2 9 10
M  V30 10 1 9 11
M  V30 11 2 11 12
M  V30 12 1 12 13
M  V30 13 2 13 14
M  V30 14 1 14 15
M  V30 15 2 15 16
M  V30 16 1 16 17
M  V30 17 1 15 18
M  V30 18 2 18 19
M  V30 19 1 18 20
M  V30 20 1 8 3
M  V30 21 1 16 11
M  V30 22 1 1 21
M  V30 23 1 1 22
M  V30 24 1 2 23
M  V30 25 1 2 24
M  V30 26 1 4 25
M  V30 27 1 4 26
M  V30 28 1 4 27
M  V30 29 1 5 28
M  V30 30 1 5 29
M  V30 31 1 6 30
M  V30 32 1 6 31
M  V30 33 1 8 32
M  V30 34 1 8 33
M  V30 35 1 12 34
M  V30 36 1 13 35
M  V30 37 1 14 36
M  V30 38 1 17 37
M  V30 39 1 17 38
M  V30 END BOND
M  V30 END CTAB
M  END
