
     RDKit          3D

  0  0  0  0  0  0  0  0  0  0999 V3000
M  V30 BEGIN CTAB
M  V30 COUNTS 21 21 0 0 0
M  V30 BEGIN ATOM
M  V30 1 N 4.08606 0.650141 1.28466 0
M  V30 2 N 2.77526 0.461878 0.892032 0
M  V30 3 C 2.44325 -0.126212 -0.343995 0
M  V30 4 O 3.36365 -0.499212 -1.13086 0
M  V30 5 C 1.04569 -0.325083 -0.758688 0
M  V30 6 C 0.614346 -0.887309 -1.94008 0
M  V30 7 C -0.774399 -0.881853 -1.92502 0
M  V30 8 C -1.10662 -0.307487 -0.716137 0
M  V30 9 O -0.0176894 0.00755168 -0.0563457 0
M  V30 10 C -2.48642 -0.0822961 -0.23895 0
M  V30 11 O -3.45972 -0.418601 -0.943558 0
M  V30 12 N -2.72585 0.516799 1.02147 0
M  V30 13 N -4.02942 0.715749 1.44327 0
M  V30 14 H 4.69282 1.03791 0.530588 0
M  V30 15 H 4.55709 -0.245776 1.59198 0
M  V30 16 H 2.01275 0.766263 1.53419 0
M  V30 17 H 1.20863 -1.27192 -2.75054 0
M  V30 18 H -1.46586 -1.23977 -2.67604 0
M  V30 19 H -1.91137 0.813527 1.64327 0
M  V30 20 H -4.69313 0.0101104 1.08967 0
M  V30 21 H -4.12907 0.929129 2.44909 0
M  V30 END ATOM
M  V30 BEGIN BOND
M  V30 1 1 1 2
M  V30 2 1 2 3
M  V30 3 2 3 4
M  V30 4 1 3 5
M  V30 5 2 5 6
M  V30 6 1 6 7
M  V30 7 2 7 8
M  V30 8 1 8 9
M  V30 9 1 8 10
M  V30 10 2 10 11
M  V30 11 1 10 12
M  V30 12 1 12 13
M  V30 13 1 9 5
M  V30 14 1 1 14
M  V30 15 1 1 15
M  V30 16 1 2 16
M  V30 17 1 6 17
M  V30 18 1 7 18
M  V30 19 1 12 19
M  V30 20 1 13 20
M  V30 21 1 13 21
M  V30 END BOND
M  V30 END CTAB
M  END
