
     RDKit          3D

  0  0  0  0  0  0  0  0  0  0999 V3000
M  V30 BEGIN CTAB
M  V30 COUNTS 30 32 0 0 0
M  V30 BEGIN ATOM
M  V30 1 C 4.53623 1.29463 -0.635881 0
M  V30 2 C 4.18987 -0.119115 -1.05828 0
M  V30 3 C 3.60475 -0.791892 0.129495 0
M  V30 4 N 4.34095 -1.46414 1.03017 0
M  V30 5 N 3.53408 -1.93997 1.95538 0
M  V30 6 C 2.2666 -1.54487 1.60689 0
M  V30 7 N 2.27224 -0.833183 0.483302 0
M  V30 8 N 1.16861 -0.389864 0.0232605 0
M  V30 9 C 0.0367862 -0.636671 0.657691 0
M  V30 10 S 0.589057 -1.55536 1.98686 0
M  V30 11 C -1.34049 -0.242463 0.334411 0
M  V30 12 C -2.36308 -0.634475 1.17426 0
M  V30 13 C -3.67857 -0.307895 0.944264 0
M  V30 14 N -4.65997 -0.750673 1.8553 0
M  V30 15 C -3.98627 0.444563 -0.175797 0
M  V30 16 C -2.97972 0.845436 -1.02615 0
M  V30 17 C -1.65578 0.499312 -0.767155 0
M  V30 18 N -3.33561 1.61624 -2.16471 0
M  V30 19 H 3.72505 1.69729 -0.0253278 0
M  V30 20 H 4.687 1.95865 -1.51153 0
M  V30 21 H 5.4513 1.25298 0.0099669 0
M  V30 22 H 5.13719 -0.638153 -1.29818 0
M  V30 23 H 3.48805 -0.113103 -1.91799 0
M  V30 24 H -2.12931 -1.21949 2.04626 0
M  V30 25 H -5.33718 -1.46929 1.56173 0
M  V30 26 H -4.69673 -0.356783 2.8058 0
M  V30 27 H -5.03288 0.706588 -0.362246 0
M  V30 28 H -0.898114 0.820957 -1.43862 0
M  V30 29 H -3.44811 2.65986 -2.00701 0
M  V30 30 H -3.48593 1.21088 -3.11854 0
M  V30 END ATOM
M  V30 BEGIN BOND
M  V30 1 1 1 2
M  V30 2 1 2 3
M  V30 3 2 3 4
M  V30 4 1 4 5
M  V30 5 2 5 6
M  V30 6 1 6 7
M  V30 7 1 7 8
M  V30 8 2 8 9
M  V30 9 1 9 10
M  V30 10 1 9 11
M  V30 11 2 11 12
M  V30 12 1 12 13
M  V30 13 1 13 14
M  V30 14 2 13 15
M  V30 15 1 15 16
M  V30 16 2 16 17
M  V30 17 1 16 18
M  V30 18 1 7 3
M  V30 19 1 17 11
M  V30 20 1 10 6
M  V30 21 1 1 19
M  V30 22 1 1 20
M  V30 23 1 1 21
M  V30 24 1 2 22
M  V30 25 1 2 23
M  V30 26 1 12 24
M  V30 27 1 14 25
M  V30 28 1 14 26
M  V30 29 1 15 27
M  V30 30 1 17 28
M  V30 31 1 18 29
M  V30 32 1 18 30
M  V30 END BOND
M  V30 END CTAB
M  END
