
     RDKit          3D

  0  0  0  0  0  0  0  0  0  0999 V3000
M  V30 BEGIN CTAB
M  V30 COUNTS 34 35 0 0 0
M  V30 BEGIN ATOM
M  V30 1 N 4.48878 -2.35403 -0.675328 0
M  V30 2 C 3.65697 -1.22411 -0.354232 0
M  V30 3 N 2.41715 -1.45778 0.0933042 0
M  V30 4 C 1.59648 -0.429987 0.408674 0
M  V30 5 C 0.208353 -0.665614 0.911137 0
M  V30 6 N -0.760525 -0.762433 -0.128369 0
M  V30 7 C -0.897271 0.374254 -0.963347 0
M  V30 8 C -1.43915 1.57107 -0.212441 0
M  V30 9 C -2.63576 1.18652 0.611126 0
M  V30 10 C -3.58321 0.397841 -0.224742 0
M  V30 11 C -3.17898 -0.994772 -0.513054 0
M  V30 12 C -1.94441 -1.45797 0.205379 0
M  V30 13 N 2.0949 0.810198 0.2473 0
M  V30 14 C 3.31599 1.08943 -0.192682 0
M  V30 15 N 4.1176 0.0340979 -0.501555 0
M  V30 16 N 3.75001 2.43685 -0.328845 0
M  V30 17 H 4.07912 -3.2399 -1.0659 0
M  V30 18 H 5.5132 -2.33903 -0.5357 0
M  V30 19 H 0.159065 -1.56661 1.5571 0
M  V30 20 H -0.0399176 0.245126 1.51872 0
M  V30 21 H -1.53552 0.105052 -1.82728 0
M  V30 22 H 0.0941216 0.638234 -1.38759 0
M  V30 23 H -1.80879 2.2822 -1.0075 0
M  V30 24 H -0.66221 2.1095 0.338006 0
M  V30 25 H -2.40648 0.643326 1.52548 0
M  V30 26 H -3.14459 2.13016 0.906308 0
M  V30 27 H -3.70801 0.955949 -1.19911 0
M  V30 28 H -4.59279 0.452813 0.275778 0
M  V30 29 H -4.01211 -1.67918 -0.174046 0
M  V30 30 H -3.07663 -1.21599 -1.60671 0
M  V30 31 H -1.80485 -2.53237 -0.043039 0
M  V30 32 H -2.10512 -1.4188 1.30206 0
M  V30 33 H 4.45268 2.80913 0.339778 0
M  V30 34 H 3.3919 3.0668 -1.07241 0
M  V30 END ATOM
M  V30 BEGIN BOND
M  V30 1 1 1 2
M  V30 2 2 2 3
M  V30 3 1 3 4
M  V30 4 1 4 5
M  V30 5 1 5 6
M  V30 6 1 6 7
M  V30 7 1 7 8
M  V30 8 1 8 9
M  V30 9 1 9 10
M  V30 10 1 10 11
M  V30 11 1 11 12
M  V30 12 2 4 13
M  V30 13 1 13 14
M  V30 14 2 14 15
M  V30 15 1 14 16
M  V30 16 1 15 2
M  V30 17 1 12 6
M  V30 18 1 1 17
M  V30 19 1 1 18
M  V30 20 1 5 19
M  V30 21 1 5 20
M  V30 22 1 7 21
M  V30 23 1 7 22
M  V30 24 1 8 23
M  V30 25 1 8 24
M  V30 26 1 9 25
M  V30 27 1 9 26
M  V30 28 1 10 27
M  V30 29 1 10 28
M  V30 30 1 11 29
M  V30 31 1 11 30
M  V30 32 1 12 31
M  V30 33 1 12 32
M  V30 34 1 16 33
M  V30 35 1 16 34
M  V30 END BOND
M  V30 END CTAB
M  END
