
     RDKit          3D

  0  0  0  0  0  0  0  0  0  0999 V3000
M  V30 BEGIN CTAB
M  V30 COUNTS 50 52 0 0 0
M  V30 BEGIN ATOM
M  V30 1 N -7.81615 1.19031 -0.882005 0
M  V30 2 C -6.45048 1.08154 -0.332893 0 CFG=1
M  V30 3 C -5.80883 -0.0407139 -1.06602 0
M  V30 4 C -4.43192 -0.363719 -0.706878 0
M  V30 5 C -3.3932 0.219066 -1.39182 0
M  V30 6 C -2.04975 -0.0407718 -1.10543 0
M  V30 7 C -1.7139 -0.913412 -0.099696 0
M  V30 8 C -2.76807 -1.50135 0.591369 0
M  V30 9 C -4.09293 -1.24923 0.313709 0
M  V30 10 C -0.343771 -1.25339 0.279023 0
M  V30 11 N -0.0965055 -2.12484 1.28443 0
M  V30 12 C 1.1318 -2.4626 1.66201 0
M  V30 13 N 1.29423 -3.38495 2.72719 0
M  V30 14 N 2.17836 -1.92574 1.02983 0
M  V30 15 C 2.0302 -1.04385 0.0112943 0
M  V30 16 O 3.10384 -0.476221 -0.65678 0
M  V30 17 C 4.41745 -0.859781 -0.227239 0
M  V30 18 C 5.18137 0.32087 0.228055 0
M  V30 19 C 5.18147 1.52008 -0.489692 0
M  V30 20 C 5.91788 2.58137 -0.0086511 0
M  V30 21 F 5.92432 3.74302 -0.694355 0
M  V30 22 C 6.64515 2.48758 1.15006 0
M  V30 23 F 7.34661 3.54639 1.57953 0
M  V30 24 C 6.65464 1.31757 1.86489 0
M  V30 25 C 5.91186 0.22891 1.39057 0
M  V30 26 C 5.16881 -1.48887 -1.40962 0
M  V30 27 F 4.44532 -2.60399 -1.8247 0
M  V30 28 F 6.41853 -1.85168 -0.948748 0
M  V30 29 F 5.28083 -0.589361 -2.43346 0
M  V30 30 C 0.742803 -0.705696 -0.366123 0
M  V30 31 C -5.80381 2.39374 -0.529635 0
M  V30 32 O -6.49827 3.3873 -1.24684 0
M  V30 33 O -4.65134 2.67018 -0.0835704 0
M  V30 34 H -8.36307 1.78038 -0.185776 0
M  V30 35 H -7.77997 1.76031 -1.76474 0
M  V30 36 H -6.61609 0.858851 0.746266 0
M  V30 37 H -5.89144 0.191433 -2.1667 0
M  V30 38 H -6.46222 -0.951854 -0.945469 0
M  V30 39 H -3.60179 0.924521 -2.20551 0
M  V30 40 H -1.25711 0.434026 -1.66288 0
M  V30 41 H -2.50323 -2.19975 1.39634 0
M  V30 42 H -4.91038 -1.69992 0.843555 0
M  V30 43 H 0.697297 -3.38722 3.56957 0
M  V30 44 H 2.05039 -4.09798 2.66414 0
M  V30 45 H 4.36838 -1.58279 0.609621 0
M  V30 46 H 4.60713 1.565 -1.3867 0
M  V30 47 H 7.22258 1.22477 2.78145 0
M  V30 48 H 5.94611 -0.691277 1.99338 0
M  V30 49 H 0.644434 -0.000777869 -1.18048 0
M  V30 50 H -7.2076 3.89522 -0.713861 0
M  V30 END ATOM
M  V30 BEGIN BOND
M  V30 1 1 1 2
M  V30 2 1 2 3
M  V30 3 1 3 4
M  V30 4 2 4 5
M  V30 5 1 5 6
M  V30 6 2 6 7
M  V30 7 1 7 8
M  V30 8 2 8 9
M  V30 9 1 7 10
M  V30 10 2 10 11
M  V30 11 1 11 12
M  V30 12 1 12 13
M  V30 13 2 12 14
M  V30 14 1 14 15
M  V30 15 1 15 16
M  V30 16 1 16 17
M  V30 17 1 17 18
M  V30 18 2 18 19
M  V30 19 1 19 20
M  V30 20 1 20 21
M  V30 21 2 20 22
M  V30 22 1 22 23
M  V30 23 1 22 24
M  V30 24 2 24 25
M  V30 25 1 17 26
M  V30 26 1 26 27
M  V30 27 1 26 28
M  V30 28 1 26 29
M  V30 29 2 15 30
M  V30 30 1 2 31
M  V30 31 1 31 32
M  V30 32 2 31 33
M  V30 33 1 9 4
M  V30 34 1 30 10
M  V30 35 1 25 18
M  V30 36 1 1 34
M  V30 37 1 1 35
M  V30 38 1 2 36 CFG=1
M  V30 39 1 3 37
M  V30 40 1 3 38
M  V30 41 1 5 39
M  V30 42 1 6 40
M  V30 43 1 8 41
M  V30 44 1 9 42
M  V30 45 1 13 43
M  V30 46 1 13 44
M  V30 47 1 17 45
M  V30 48 1 19 46
M  V30 49 1 24 47
M  V30 50 1 25 48
M  V30 51 1 30 49
M  V30 52 1 32 50
M  V30 END BOND
M  V30 END CTAB
M  END
