
     RDKit          3D

  0  0  0  0  0  0  0  0  0  0999 V3000
M  V30 BEGIN CTAB
M  V30 COUNTS 40 42 0 0 0
M  V30 BEGIN ATOM
M  V30 1 C -1.87111 -2.22143 0.275385 0
M  V30 2 C -1.93984 -0.751377 0.251249 0
M  V30 3 C -0.775477 0.0475042 0.207529 0
M  V30 4 N 0.488941 -0.603968 0.382916 0
M  V30 5 C 1.75368 -0.116186 0.109458 0
M  V30 6 O 1.99807 1.00557 -0.356752 0
M  V30 7 C 2.93781 -1.01281 0.397759 0
M  V30 8 C 4.18853 -0.341572 0.0512658 0
M  V30 9 C 4.84086 0.41735 0.99601 0
M  V30 10 C 6.01393 1.04734 0.67212 0
M  V30 11 Br 6.93393 2.1013 1.95949 0
M  V30 12 C 6.53767 0.919322 -0.599284 0
M  V30 13 C 5.88017 0.158269 -1.54082 0
M  V30 14 C 4.70439 -0.47857 -1.23103 0
M  V30 15 C -0.826971 1.41005 0.102838 0
M  V30 16 C -2.02319 2.05875 0.0380932 0
M  V30 17 C -3.19522 1.33485 0.0805052 0
M  V30 18 N -4.36615 1.98643 0.032127 0
M  V30 19 C -5.49824 1.28797 0.0892314 0
M  V30 20 N -6.73042 2.01057 0.0346976 0
M  V30 21 N -5.51296 -0.0408429 0.193827 0
M  V30 22 C -4.33292 -0.729169 0.244729 0
M  V30 23 N -4.39626 -2.13451 0.394544 0
M  V30 24 C -3.15925 -0.0594597 0.187325 0
M  V30 25 H -1.94858 -2.71943 1.2262 0
M  V30 26 H -0.784121 -2.46774 0.00885249 0
M  V30 27 H -2.31465 -2.73027 -0.620192 0
M  V30 28 H 0.475627 -1.58699 0.822043 0
M  V30 29 H 2.7673 -1.92305 -0.183453 0
M  V30 30 H 2.91529 -1.18523 1.48922 0
M  V30 31 H 4.43174 0.516427 1.98661 0
M  V30 32 H 7.47679 1.43439 -0.829069 0
M  V30 33 H 6.32482 0.0858006 -2.52052 0
M  V30 34 H 4.19546 -1.07589 -1.98247 0
M  V30 35 H 0.0831211 1.99598 0.0827069 0
M  V30 36 H -2.04668 3.15063 -0.0471958 0
M  V30 37 H -7.2177 2.19576 0.94233 0
M  V30 38 H -7.14125 2.34606 -0.857206 0
M  V30 39 H -4.59896 -2.72327 -0.439553 0
M  V30 40 H -4.26819 -2.60856 1.30884 0
M  V30 END ATOM
M  V30 BEGIN BOND
M  V30 1 1 1 2
M  V30 2 2 2 3
M  V30 3 1 3 4
M  V30 4 1 4 5
M  V30 5 2 5 6
M  V30 6 1 5 7
M  V30 7 1 7 8
M  V30 8 2 8 9
M  V30 9 1 9 10
M  V30 10 1 10 11
M  V30 11 2 10 12
M  V30 12 1 12 13
M  V30 13 2 13 14
M  V30 14 1 3 15
M  V30 15 2 15 16
M  V30 16 1 16 17
M  V30 17 2 17 18
M  V30 18 1 18 19
M  V30 19 1 19 20
M  V30 20 2 19 21
M  V30 21 1 21 22
M  V30 22 1 22 23
M  V30 23 2 22 24
M  V30 24 1 24 2
M  V30 25 1 14 8
M  V30 26 1 24 17
M  V30 27 1 1 25
M  V30 28 1 1 26
M  V30 29 1 1 27
M  V30 30 1 4 28
M  V30 31 1 7 29
M  V30 32 1 7 30
M  V30 33 1 9 31
M  V30 34 1 12 32
M  V30 35 1 13 33
M  V30 36 1 14 34
M  V30 37 1 15 35
M  V30 38 1 16 36
M  V30 39 1 20 37
M  V30 40 1 20 38
M  V30 41 1 23 39
M  V30 42 1 23 40
M  V30 END BOND
M  V30 END CTAB
M  END
