
     RDKit          3D

  0  0  0  0  0  0  0  0  0  0999 V3000
M  V30 BEGIN CTAB
M  V30 COUNTS 131 132 0 0 0
M  V30 BEGIN ATOM
M  V30 1 C 13.3745 3.39882 0.144779 0
M  V30 2 C 13.5534 2.09056 0.856677 0
M  V30 3 C 12.3297 1.19071 0.67188 0
M  V30 4 C 12.5436 -0.113076 1.38144 0
M  V30 5 C 11.3634 -1.02471 1.2162 0
M  V30 6 C 11.1372 -1.28288 -0.226062 0
M  V30 7 C 10.0115 -2.23451 -0.457864 0
M  V30 8 C 8.67632 -1.82848 0.069596 0
M  V30 9 C 8.20575 -0.552737 -0.466235 0
M  V30 10 C 7.11312 -0.454596 -1.19426 0
M  V30 11 C 6.24398 -1.5719 -1.56701 0
M  V30 12 C 4.82658 -1.37406 -1.00662 0
M  V30 13 C 4.23416 -0.114961 -1.4871 0
M  V30 14 C 2.83471 0.196639 -1.20473 0
M  V30 15 C 2.27034 0.246581 0.151042 0
M  V30 16 C 2.2144 -1.03415 0.912872 0
M  V30 17 C 1.54695 -0.879924 2.27453 0
M  V30 18 C 0.123507 -0.4796 2.16297 0
M  V30 19 O -0.557171 -0.171153 3.18991 0
M  V30 20 O -0.547279 -0.419122 0.955741 0
M  V30 21 C -1.98373 -0.00927153 0.951859 0
M  V30 22 C -1.99265 1.20848 0.0646551 0
M  V30 23 O -2.94511 2.03581 -0.00448869 0
M  V30 24 C -4.18784 2.31426 -0.275895 0
M  V30 25 C -4.97463 2.68919 0.944924 0
M  V30 26 C -4.84233 3.74846 1.86154 0
M  V30 27 C -5.07265 5.17278 1.63072 0
M  V30 28 C -6.46792 5.56954 1.18937 0
M  V30 29 C -6.40117 7.10021 1.0585 0
M  V30 30 C -7.66138 7.70142 0.640925 0
M  V30 31 O -8.269 8.61981 1.51655 0
M  V30 32 O -8.22075 7.44344 -0.442841 0
M  V30 33 C -4.3428 3.36966 -1.32204 0
M  V30 34 C -5.39004 3.18769 -2.22687 0
M  V30 35 I -6.82157 1.64615 -1.91931 0
M  V30 36 C -5.6072 3.97018 -3.32653 0
M  V30 37 C -4.74066 5.01199 -3.56586 0
M  V30 38 I -5.04479 6.22136 -5.25465 0
M  V30 39 C -3.69761 5.219 -2.6949 0
M  V30 40 N -2.79991 6.28758 -2.94511 0
M  V30 41 C -3.50468 4.39366 -1.57805 0
M  V30 42 I -1.78405 4.67991 -0.423601 0
M  V30 43 C -2.67514 -1.18148 0.313403 0
M  V30 44 O -3.99464 -1.2188 0.140192 0
M  V30 45 C -4.34966 -2.58669 -0.228914 0
M  V30 46 C -4.89903 -3.12595 1.09638 0
M  V30 47 C -5.36933 -4.52282 1.05437 0
M  V30 48 C -4.23964 -5.49311 0.68249 0
M  V30 49 C -4.74013 -6.90736 0.632812 0
M  V30 50 C -5.29974 -7.35484 1.95434 0
M  V30 51 C -5.78301 -8.77791 1.87521 0
M  V30 52 O -6.32916 -9.36132 2.99099 0
M  V30 53 O -5.68807 -9.42152 0.793803 0
M  V30 54 C -5.2329 -2.58973 -1.35698 0
M  V30 55 C -4.69929 -2.80115 -2.64633 0
M  V30 56 I -2.67131 -3.36598 -2.89054 0
M  V30 57 C -5.43938 -2.76341 -3.79557 0
M  V30 58 C -6.78294 -2.50946 -3.71408 0
M  V30 59 I -7.96124 -2.44193 -5.47661 0
M  V30 60 C -7.36935 -2.29613 -2.49349 0
M  V30 61 N -8.78701 -2.03827 -2.40927 0
M  V30 62 C -6.57594 -2.34065 -1.3478 0
M  V30 63 I -7.59168 -1.88104 0.427518 0
M  V30 64 H 13.8751 4.25281 0.610019 0
M  V30 65 H 12.2775 3.6143 0.0862272 0
M  V30 66 H 13.7194 3.29772 -0.906547 0
M  V30 67 H 13.7465 2.27223 1.92766 0
M  V30 68 H 14.4119 1.52473 0.442328 0
M  V30 69 H 12.3103 0.975206 -0.433621 0
M  V30 70 H 11.3968 1.70804 0.963032 0
M  V30 71 H 13.4192 -0.604177 0.885631 0
M  V30 72 H 12.761 0.020534 2.46158 0
M  V30 73 H 11.5688 -1.99581 1.739 0
M  V30 74 H 10.4545 -0.544599 1.65961 0
M  V30 75 H 12.0342 -1.70877 -0.722479 0
M  V30 76 H 10.8994 -0.336927 -0.770566 0
M  V30 77 H 10.3081 -3.20716 -0.00354134 0
M  V30 78 H 9.95437 -2.39261 -1.58008 0
M  V30 79 H 8.82246 -1.65556 1.19764 0
M  V30 80 H 7.94319 -2.63142 0.0400813 0
M  V30 81 H 8.76871 0.378707 -0.266473 0
M  V30 82 H 6.80871 0.547648 -1.56912 0
M  V30 83 H 6.16998 -1.62869 -2.70378 0
M  V30 84 H 6.55169 -2.56583 -1.25999 0
M  V30 85 H 4.23376 -2.27529 -1.1602 0
M  V30 86 H 5.0562 -1.22052 0.103268 0
M  V30 87 H 4.86153 0.744612 -1.08743 0
M  V30 88 H 4.4107 -0.0603729 -2.60549 0
M  V30 89 H 2.17297 -0.462602 -1.88701 0
M  V30 90 H 2.64753 1.2333 -1.68079 0
M  V30 91 H 2.92824 0.950161 0.768503 0
M  V30 92 H 1.27394 0.764711 0.158435 0
M  V30 93 H 3.1949 -1.48332 1.07712 0
M  V30 94 H 1.60395 -1.76829 0.305832 0
M  V30 95 H 1.57194 -1.85626 2.78356 0
M  V30 96 H 2.0786 -0.0860708 2.83791 0
M  V30 97 H -2.26258 0.120366 1.9632 0
M  V30 98 H -0.948504 1.65654 0.261331 0
M  V30 99 H -1.77609 0.802813 -1.01572 0
M  V30 100 H -4.6978 1.41134 -0.680888 0
M  V30 101 H -5.00467 1.70266 1.591 0
M  V30 102 H -6.10028 2.6352 0.613941 0
M  V30 103 H -3.81013 3.70079 2.38098 0
M  V30 104 H -5.4994 3.48525 2.78873 0
M  V30 105 H -5.01419 5.65515 2.67957 0
M  V30 106 H -4.35756 5.73803 1.06495 0
M  V30 107 H -7.23232 5.33527 1.95465 0
M  V30 108 H -6.79498 5.13813 0.248762 0
M  V30 109 H -5.99419 7.51467 1.99336 0
M  V30 110 H -5.6318 7.3006 0.259103 0
M  V30 111 H -8.66567 8.29283 2.39555 0
M  V30 112 H -6.43759 3.79855 -4.01817 0
M  V30 113 H -2.75022 7.0686 -2.26893 0
M  V30 114 H -2.18699 6.30961 -3.78666 0
M  V30 115 H -2.3222 -2.12965 0.851756 0
M  V30 116 H -2.19759 -1.3344 -0.712793 0
M  V30 117 H -3.3954 -3.09909 -0.367208 0
M  V30 118 H -3.9382 -3.19924 1.78463 0
M  V30 119 H -5.46409 -2.38968 1.61678 0
M  V30 120 H -6.20862 -4.78257 0.424972 0
M  V30 121 H -5.65408 -4.81899 2.10495 0
M  V30 122 H -3.42763 -5.43273 1.45859 0
M  V30 123 H -3.7567 -5.23361 -0.267586 0
M  V30 124 H -5.58609 -6.94188 -0.103366 0
M  V30 125 H -3.89362 -7.54932 0.329105 0
M  V30 126 H -4.53516 -7.34161 2.76287 0
M  V30 127 H -6.16599 -6.74433 2.28532 0
M  V30 128 H -7.23008 -9.80946 2.96004 0
M  V30 129 H -4.98172 -2.92901 -4.78906 0
M  V30 130 H -9.18274 -1.15469 -2.75331 0
M  V30 131 H -9.39856 -2.76574 -1.99287 0
M  V30 END ATOM
M  V30 BEGIN BOND
M  V30 1 1 1 2
M  V30 2 1 2 3
M  V30 3 1 3 4
M  V30 4 1 4 5
M  V30 5 1 5 6
M  V30 6 1 6 7
M  V30 7 1 7 8
M  V30 8 1 8 9
M  V30 9 2 9 10
M  V30 10 1 10 11
M  V30 11 1 11 12
M  V30 12 1 12 13
M  V30 13 1 13 14
M  V30 14 1 14 15
M  V30 15 1 15 16
M  V30 16 1 16 17
M  V30 17 1 17 18
M  V30 18 2 18 19
M  V30 19 1 18 20
M  V30 20 1 20 21
M  V30 21 1 21 22
M  V30 22 1 22 23
M  V30 23 1 23 24
M  V30 24 1 24 25
M  V30 25 1 25 26
M  V30 26 1 26 27
M  V30 27 1 27 28
M  V30 28 1 28 29
M  V30 29 1 29 30
M  V30 30 1 30 31
M  V30 31 2 30 32
M  V30 32 1 24 33
M  V30 33 2 33 34
M  V30 34 1 34 35
M  V30 35 1 34 36
M  V30 36 2 36 37
M  V30 37 1 37 38
M  V30 38 1 37 39
M  V30 39 1 39 40
M  V30 40 2 39 41
M  V30 41 1 41 42
M  V30 42 1 21 43
M  V30 43 1 43 44
M  V30 44 1 44 45
M  V30 45 1 45 46
M  V30 46 1 46 47
M  V30 47 1 47 48
M  V30 48 1 48 49
M  V30 49 1 49 50
M  V30 50 1 50 51
M  V30 51 1 51 52
M  V30 52 2 51 53
M  V30 53 1 45 54
M  V30 54 2 54 55
M  V30 55 1 55 56
M  V30 56 1 55 57
M  V30 57 2 57 58
M  V30 58 1 58 59
M  V30 59 1 58 60
M  V30 60 1 60 61
M  V30 61 2 60 62
M  V30 62 1 62 63
M  V30 63 1 41 33
M  V30 64 1 62 54
M  V30 65 1 1 64
M  V30 66 1 1 65
M  V30 67 1 1 66
M  V30 68 1 2 67
M  V30 69 1 2 68
M  V30 70 1 3 69
M  V30 71 1 3 70
M  V30 72 1 4 71
M  V30 73 1 4 72
M  V30 74 1 5 73
M  V30 75 1 5 74
M  V30 76 1 6 75
M  V30 77 1 6 76
M  V30 78 1 7 77
M  V30 79 1 7 78
M  V30 80 1 8 79
M  V30 81 1 8 80
M  V30 82 1 9 81
M  V30 83 1 10 82
M  V30 84 1 11 83
M  V30 85 1 11 84
M  V30 86 1 12 85
M  V30 87 1 12 86
M  V30 88 1 13 87
M  V30 89 1 13 88
M  V30 90 1 14 89
M  V30 91 1 14 90
M  V30 92 1 15 91
M  V30 93 1 15 92
M  V30 94 1 16 93
M  V30 95 1 16 94
M  V30 96 1 17 95
M  V30 97 1 17 96
M  V30 98 1 21 97
M  V30 99 1 22 98
M  V30 100 1 22 99
M  V30 101 1 24 100
M  V30 102 1 25 101
M  V30 103 1 25 102
M  V30 104 1 26 103
M  V30 105 1 26 104
M  V30 106 1 27 105
M  V30 107 1 27 106
M  V30 108 1 28 107
M  V30 109 1 28 108
M  V30 110 1 29 109
M  V30 111 1 29 110
M  V30 112 1 31 111
M  V30 113 1 36 112
M  V30 114 1 40 113
M  V30 115 1 40 114
M  V30 116 1 43 115
M  V30 117 1 43 116
M  V30 118 1 45 117
M  V30 119 1 46 118
M  V30 120 1 46 119
M  V30 121 1 47 120
M  V30 122 1 47 121
M  V30 123 1 48 122
M  V30 124 1 48 123
M  V30 125 1 49 124
M  V30 126 1 49 125
M  V30 127 1 50 126
M  V30 128 1 50 127
M  V30 129 1 52 128
M  V30 130 1 57 129
M  V30 131 1 61 130
M  V30 132 1 61 131
M  V30 END BOND
M  V30 END CTAB
M  END
