
     RDKit          3D

  0  0  0  0  0  0  0  0  0  0999 V3000
M  V30 BEGIN CTAB
M  V30 COUNTS 30 32 0 0 0
M  V30 BEGIN ATOM
M  V30 1 O 0.705651 -4.50842 -0.0130736 0
M  V30 2 C 0.575529 -3.26755 -0.00170191 0
M  V30 3 N 1.58898 -2.25435 0.0970799 0
M  V30 4 C 0.930773 -0.985419 0.0667272 0
M  V30 5 C -0.411706 -1.17505 -0.0439062 0
M  V30 6 C -0.675878 -2.5236 -0.0886778 0
M  V30 7 C -2.02954 -2.84593 -0.20253 0
M  V30 8 C -3.00142 -1.8604 -0.26293 0
M  V30 9 C -2.67863 -0.50869 -0.213424 0
M  V30 10 C -1.34609 -0.183609 -0.101207 0
M  V30 11 C -0.913636 1.12795 -0.0436374 0
M  V30 12 C 0.464663 1.36296 0.0706559 0
M  V30 13 C 1.36825 0.33338 0.124826 0
M  V30 14 S 3.06494 0.706447 0.267523 0
M  V30 15 O 3.23028 2.19395 0.241956 0
M  V30 16 O 3.62969 0.221762 1.57205 0
M  V30 17 N 3.9641 0.0772483 -1.07133 0
M  V30 18 S -2.02703 2.45074 -0.109448 0
M  V30 19 O -3.02022 2.38347 1.00297 0
M  V30 20 O -2.72474 2.45578 -1.46205 0
M  V30 21 N -1.15642 3.94055 -0.0136957 0
M  V30 22 H 2.60778 -2.40015 0.175961 0
M  V30 23 H -2.29776 -3.8958 -0.242369 0
M  V30 24 H -4.05506 -2.10178 -0.351374 0
M  V30 25 H -3.40783 0.287966 -0.257766 0
M  V30 26 H 0.757163 2.41498 0.112489 0
M  V30 27 H 4.37037 -0.830454 -0.759403 0
M  V30 28 H 4.79634 0.698883 -1.27473 0
M  V30 29 H -1.81825 4.72248 0.0346977 0
M  V30 30 H -0.490304 3.96266 -0.800374 0
M  V30 END ATOM
M  V30 BEGIN BOND
M  V30 1 2 1 2
M  V30 2 1 2 3
M  V30 3 1 3 4
M  V30 4 2 4 5
M  V30 5 1 5 6
M  V30 6 2 6 7
M  V30 7 1 7 8
M  V30 8 2 8 9
M  V30 9 1 9 10
M  V30 10 2 10 11
M  V30 11 1 11 12
M  V30 12 2 12 13
M  V30 13 1 13 14
M  V30 14 2 14 15
M  V30 15 2 14 16
M  V30 16 1 14 17
M  V30 17 1 11 18
M  V30 18 2 18 19
M  V30 19 2 18 20
M  V30 20 1 18 21
M  V30 21 1 6 2
M  V30 22 1 13 4
M  V30 23 1 10 5
M  V30 24 1 3 22
M  V30 25 1 7 23
M  V30 26 1 8 24
M  V30 27 1 9 25
M  V30 28 1 12 26
M  V30 29 1 17 27
M  V30 30 1 17 28
M  V30 31 1 21 29
M  V30 32 1 21 30
M  V30 END BOND
M  V30 END CTAB
M  END
