
     RDKit          3D

  0  0  0  0  0  0  0  0  0  0999 V3000
M  V30 BEGIN CTAB
M  V30 COUNTS 20 21 0 0 0
M  V30 BEGIN ATOM
M  V30 1 N 1.38919 0.265096 -1.46124 0
M  V30 2 C 0.735307 0.189641 -0.17593 0
M  V30 3 N 1.38448 -0.768633 0.710924 0
M  V30 4 C 0.400084 -1.67646 1.19149 0
M  V30 5 O 0.474731 -2.44474 2.21005 0
M  V30 6 N -0.730551 -1.59035 0.320837 0
M  V30 7 C -0.675972 -0.252 -0.239173 0
M  V30 8 N -1.26058 -0.282756 -1.53671 0
M  V30 9 N -1.37293 0.679387 0.635453 0
M  V30 10 C -0.593271 1.86878 0.696601 0
M  V30 11 O -1.02752 3.01888 0.953362 0
M  V30 12 N 0.759271 1.5017 0.412726 0
M  V30 13 H 1.60042 -0.686774 -1.82625 0
M  V30 14 H 2.30444 0.784048 -1.31835 0
M  V30 15 H 2.39864 -0.795649 0.959814 0
M  V30 16 H -1.44029 -2.30103 0.117231 0
M  V30 17 H -2.20667 -0.752568 -1.43402 0
M  V30 18 H -1.46986 0.673321 -1.93087 0
M  V30 19 H -2.27012 0.503813 1.12095 0
M  V30 20 H 1.6012 2.06629 0.59311 0
M  V30 END ATOM
M  V30 BEGIN BOND
M  V30 1 1 1 2
M  V30 2 1 2 3
M  V30 3 1 3 4
M  V30 4 2 4 5
M  V30 5 1 4 6
M  V30 6 1 6 7
M  V30 7 1 7 8
M  V30 8 1 7 9
M  V30 9 1 9 10
M  V30 10 2 10 11
M  V30 11 1 10 12
M  V30 12 1 7 2
M  V30 13 1 12 2
M  V30 14 1 1 13
M  V30 15 1 1 14
M  V30 16 1 3 15
M  V30 17 1 6 16
M  V30 18 1 8 17
M  V30 19 1 8 18
M  V30 20 1 9 19
M  V30 21 1 12 20
M  V30 END BOND
M  V30 END CTAB
M  END
