
     RDKit          3D

  0  0  0  0  0  0  0  0  0  0999 V3000
M  V30 BEGIN CTAB
M  V30 COUNTS 45 47 0 0 0
M  V30 BEGIN ATOM
M  V30 1 N -4.69089 2.75822 -2.39456 0
M  V30 2 C -3.62508 2.12186 -1.60174 0
M  V30 3 N -3.2436 0.950746 -1.93613 0
M  V30 4 C -2.18399 0.304411 -1.09977 0
M  V30 5 N -1.308 1.27398 -0.652603 0
M  V30 6 C 0.12385 1.06571 -0.735093 0
M  V30 7 C 0.743585 0.0243538 0.0901755 0
M  V30 8 C 2.23574 -0.00777743 -0.186349 0
M  V30 9 O 2.84208 -1.00783 0.60506 0
M  V30 10 C 4.22476 -1.20309 0.501163 0
M  V30 11 C 4.97882 -0.42859 -0.361477 0
M  V30 12 C 6.33635 -0.575421 -0.504665 0
M  V30 13 C 6.96488 -1.54485 0.253814 0
M  V30 14 Cl 8.70002 -1.71463 0.0550326 0
M  V30 15 C 6.22936 -2.32639 1.11921 0
M  V30 16 C 4.86358 -2.16588 1.25149 0
M  V30 17 C -1.78609 2.54934 -0.23872 0
M  V30 18 N -1.01706 3.32574 0.657065 0
M  V30 19 N -2.93155 2.98741 -0.715965 0
M  V30 20 C -3.00521 -0.487794 -0.156687 0
M  V30 21 C -3.92242 -1.35471 -0.78816 0
M  V30 22 C -4.72175 -2.19223 -0.0782643 0
M  V30 23 C -4.66471 -2.2246 1.29145 0
M  V30 24 C -3.78566 -1.39533 1.94369 0
M  V30 25 C -2.97099 -0.53888 1.19185 0
M  V30 26 F -2.19053 0.260425 1.91263 0
M  V30 27 H -5.64163 2.85325 -2.03191 0
M  V30 28 H -4.42135 3.0933 -3.31707 0
M  V30 29 H -1.65997 -0.42611 -1.80714 0
M  V30 30 H 0.361146 0.818215 -1.82369 0
M  V30 31 H 0.674399 2.04387 -0.598535 0
M  V30 32 H 0.59233 0.192376 1.18656 0
M  V30 33 H 0.299502 -0.969389 -0.132719 0
M  V30 34 H 2.68208 0.963838 0.0600159 0
M  V30 35 H 2.42132 -0.227022 -1.25551 0
M  V30 36 H 4.44032 0.324154 -0.940149 0
M  V30 37 H 6.90622 0.0448995 -1.18853 0
M  V30 38 H 6.78245 -3.07724 1.69305 0
M  V30 39 H 4.30028 -2.78673 1.93486 0
M  V30 40 H -0.224591 3.87085 0.285297 0
M  V30 41 H -1.24655 3.34396 1.66072 0
M  V30 42 H -3.9931 -1.35248 -1.88782 0
M  V30 43 H -5.41726 -2.84596 -0.614808 0
M  V30 44 H -5.31612 -2.90356 1.80178 0
M  V30 45 H -3.73496 -1.41442 3.02178 0
M  V30 END ATOM
M  V30 BEGIN BOND
M  V30 1 1 1 2
M  V30 2 2 2 3
M  V30 3 1 3 4
M  V30 4 1 4 5
M  V30 5 1 5 6
M  V30 6 1 6 7
M  V30 7 1 7 8
M  V30 8 1 8 9
M  V30 9 1 9 10
M  V30 10 2 10 11
M  V30 11 1 11 12
M  V30 12 2 12 13
M  V30 13 1 13 14
M  V30 14 1 13 15
M  V30 15 2 15 16
M  V30 16 1 5 17
M  V30 17 1 17 18
M  V30 18 2 17 19
M  V30 19 1 4 20
M  V30 20 2 20 21
M  V30 21 1 21 22
M  V30 22 2 22 23
M  V30 23 1 23 24
M  V30 24 2 24 25
M  V30 25 1 25 26
M  V30 26 1 19 2
M  V30 27 1 25 20
M  V30 28 1 16 10
M  V30 29 1 1 27
M  V30 30 1 1 28
M  V30 31 1 4 29
M  V30 32 1 6 30
M  V30 33 1 6 31
M  V30 34 1 7 32
M  V30 35 1 7 33
M  V30 36 1 8 34
M  V30 37 1 8 35
M  V30 38 1 11 36
M  V30 39 1 12 37
M  V30 40 1 15 38
M  V30 41 1 16 39
M  V30 42 1 18 40
M  V30 43 1 18 41
M  V30 44 1 21 42
M  V30 45 1 22 43
M  V30 46 1 23 44
M  V30 47 1 24 45
M  V30 END BOND
M  V30 END CTAB
M  END
