
     RDKit          3D

  0  0  0  0  0  0  0  0  0  0999 V3000
M  V30 BEGIN CTAB
M  V30 COUNTS 52 54 0 0 0
M  V30 BEGIN ATOM
M  V30 1 C -0.510929 2.21679 2.70873 0
M  V30 2 C 0.323242 2.40638 1.49232 0
M  V30 3 N 0.526743 1.2217 0.692723 0
M  V30 4 C -0.398736 0.949004 -0.343621 0
M  V30 5 C -0.45889 1.74301 -1.48268 0
M  V30 6 O 0.360286 2.72364 -1.53959 0
M  V30 7 N -1.32596 1.49823 -2.4695 0
M  V30 8 C -2.17256 0.4331 -2.34115 0
M  V30 9 O -2.99254 0.186313 -3.25991 0
M  V30 10 N -2.17829 -0.381355 -1.27177 0
M  V30 11 C -1.29044 -0.120116 -0.279301 0
M  V30 12 N -1.1646 -0.941593 0.887972 0
M  V30 13 C -3.05907 -1.48951 -1.18928 0
M  V30 14 C -4.40854 -1.29337 -0.677259 0
M  V30 15 C -4.68412 -1.28278 0.663421 0
M  V30 16 C -5.98653 -1.10626 1.13637 0
M  V30 17 C -7.02584 -0.939061 0.261563 0
M  V30 18 C -6.73107 -0.953365 -1.08203 0
M  V30 19 C -5.45471 -1.12653 -1.53703 0
M  V30 20 C 1.64174 0.390466 0.964386 0
M  V30 21 O 1.78004 -0.629078 0.205276 0
M  V30 22 C 2.60642 0.65498 2.04949 0
M  V30 23 S 3.8951 -0.618498 2.00867 0
M  V30 24 C 4.88907 -0.475837 0.530517 0
M  V30 25 N 5.86199 -1.39024 0.366048 0
M  V30 26 C 6.69036 -1.42333 -0.692556 0
M  V30 27 N 7.69947 -2.39864 -0.83491 0
M  V30 28 C 6.53376 -0.466158 -1.66379 0
M  V30 29 C 5.53538 0.462125 -1.48259 0
M  V30 30 O 5.38266 1.3545 -2.37955 0
M  V30 31 N 4.71821 0.45899 -0.39429 0
M  V30 32 H -1.47703 1.71105 2.49353 0
M  V30 33 H 0.0551697 1.74704 3.51393 0
M  V30 34 H -0.798776 3.24099 3.07269 0
M  V30 35 H -0.187693 3.19803 0.868392 0
M  V30 36 H 1.333 2.77083 1.78144 0
M  V30 37 H -1.33238 2.11377 -3.29264 0
M  V30 38 H -1.51278 -0.59914 1.80096 0
M  V30 39 H -0.720677 -1.9073 0.836971 0
M  V30 40 H -3.06232 -1.98289 -2.21486 0
M  V30 41 H -2.51367 -2.27319 -0.571007 0
M  V30 42 H -3.92545 -1.42083 1.45225 0
M  V30 43 H -6.15058 -1.10546 2.23023 0
M  V30 44 H -8.03364 -0.802261 0.630663 0
M  V30 45 H -7.56107 -0.81991 -1.80031 0
M  V30 46 H -5.30734 -1.1435 -2.58958 0
M  V30 47 H 3.14009 1.63926 1.88485 0
M  V30 48 H 2.16528 0.726562 3.04662 0
M  V30 49 H 8.37423 -2.51972 -0.0556652 0
M  V30 50 H 7.78784 -3.00342 -1.702 0
M  V30 51 H 7.14467 -0.399314 -2.55757 0
M  V30 52 H 3.98151 1.16592 -0.282533 0
M  V30 END ATOM
M  V30 BEGIN BOND
M  V30 1 1 1 2
M  V30 2 1 2 3
M  V30 3 1 3 4
M  V30 4 1 4 5
M  V30 5 2 5 6
M  V30 6 1 5 7
M  V30 7 1 7 8
M  V30 8 2 8 9
M  V30 9 1 8 10
M  V30 10 1 10 11
M  V30 11 1 11 12
M  V30 12 1 10 13
M  V30 13 1 13 14
M  V30 14 2 14 15
M  V30 15 1 15 16
M  V30 16 2 16 17
M  V30 17 1 17 18
M  V30 18 2 18 19
M  V30 19 1 3 20
M  V30 20 2 20 21
M  V30 21 1 20 22
M  V30 22 1 22 23
M  V30 23 1 23 24
M  V30 24 2 24 25
M  V30 25 1 25 26
M  V30 26 1 26 27
M  V30 27 2 26 28
M  V30 28 1 28 29
M  V30 29 2 29 30
M  V30 30 1 29 31
M  V30 31 2 11 4
M  V30 32 1 19 14
M  V30 33 1 31 24
M  V30 34 1 1 32
M  V30 35 1 1 33
M  V30 36 1 1 34
M  V30 37 1 2 35
M  V30 38 1 2 36
M  V30 39 1 7 37
M  V30 40 1 12 38
M  V30 41 1 12 39
M  V30 42 1 13 40
M  V30 43 1 13 41
M  V30 44 1 15 42
M  V30 45 1 16 43
M  V30 46 1 17 44
M  V30 47 1 18 45
M  V30 48 1 19 46
M  V30 49 1 22 47
M  V30 50 1 22 48
M  V30 51 1 27 49
M  V30 52 1 27 50
M  V30 53 1 28 51
M  V30 54 1 31 52
M  V30 END BOND
M  V30 END CTAB
M  END
