
     RDKit          3D

  0  0  0  0  0  0  0  0  0  0999 V3000
M  V30 BEGIN CTAB
M  V30 COUNTS 37 38 0 0 0
M  V30 BEGIN ATOM
M  V30 1 N 4.72707 0.709623 -0.865015 0
M  V30 2 C 3.72999 -0.101539 -1.51429 0
M  V30 3 C 2.73834 -0.654619 -0.576732 0
M  V30 4 C 2.97437 -1.88255 0.00890592 0
M  V30 5 C 2.04307 -2.41436 0.896775 0
M  V30 6 C 0.879478 -1.69157 1.18083 0
M  V30 7 C 0.636406 -0.465361 0.600538 0
M  V30 8 C 1.56444 0.0428577 -0.271283 0
M  V30 9 C -0.60443 0.254475 0.933825 0
M  V30 10 N -1.75341 -0.600923 0.916439 0
M  V30 11 C -2.45508 -0.557922 -0.346754 0
M  V30 12 C -3.37564 -1.72405 -0.541589 0
M  V30 13 C -3.23647 0.757969 -0.362977 0
M  V30 14 C -2.344 1.80331 0.219222 0
M  V30 15 C -0.863709 1.43901 0.0609257 0
M  V30 16 N -0.12868 2.58422 0.621179 0
M  V30 17 H 5.11034 1.46 -1.45784 0
M  V30 18 H 4.48744 0.977172 0.0961685 0
M  V30 19 H 3.22018 0.487329 -2.31871 0
M  V30 20 H 4.28347 -0.915816 -2.05652 0
M  V30 21 H 3.88518 -2.40799 -0.237432 0
M  V30 22 H 2.22523 -3.38123 1.36019 0
M  V30 23 H 0.146849 -2.08706 1.86567 0
M  V30 24 H 1.40661 0.997632 -0.742406 0
M  V30 25 H -0.48994 0.616788 1.99738 0
M  V30 26 H -2.36137 -0.54812 1.73617 0
M  V30 27 H -1.70349 -0.502 -1.16095 0
M  V30 28 H -3.15789 -2.32075 -1.44595 0
M  V30 29 H -3.4123 -2.41308 0.321357 0
M  V30 30 H -4.42353 -1.33136 -0.676773 0
M  V30 31 H -3.59148 0.997168 -1.38377 0
M  V30 32 H -4.13657 0.609507 0.269259 0
M  V30 33 H -2.54583 2.82115 -0.191373 0
M  V30 34 H -2.53731 1.87221 1.31813 0
M  V30 35 H -0.596886 1.29963 -0.992578 0
M  V30 36 H -0.705743 3.15623 1.2429 0
M  V30 37 H 0.365272 3.11401 -0.106855 0
M  V30 END ATOM
M  V30 BEGIN BOND
M  V30 1 1 1 2
M  V30 2 1 2 3
M  V30 3 2 3 4
M  V30 4 1 4 5
M  V30 5 2 5 6
M  V30 6 1 6 7
M  V30 7 2 7 8
M  V30 8 1 7 9
M  V30 9 1 9 10
M  V30 10 1 10 11
M  V30 11 1 11 12
M  V30 12 1 11 13
M  V30 13 1 13 14
M  V30 14 1 14 15
M  V30 15 1 15 16
M  V30 16 1 8 3
M  V30 17 1 15 9
M  V30 18 1 1 17
M  V30 19 1 1 18
M  V30 20 1 2 19
M  V30 21 1 2 20
M  V30 22 1 4 21
M  V30 23 1 5 22
M  V30 24 1 6 23
M  V30 25 1 8 24
M  V30 26 1 9 25
M  V30 27 1 10 26
M  V30 28 1 11 27
M  V30 29 1 12 28
M  V30 30 1 12 29
M  V30 31 1 12 30
M  V30 32 1 13 31
M  V30 33 1 13 32
M  V30 34 1 14 33
M  V30 35 1 14 34
M  V30 36 1 15 35
M  V30 37 1 16 36
M  V30 38 1 16 37
M  V30 END BOND
M  V30 END CTAB
M  END
