
     RDKit          3D

  0  0  0  0  0  0  0  0  0  0999 V3000
M  V30 BEGIN CTAB
M  V30 COUNTS 22 23 0 0 0
M  V30 BEGIN ATOM
M  V30 1 N -0.980379 3.13172 0.202874 0
M  V30 2 C -1.1264 1.71772 0.314248 0
M  V30 3 N -2.34687 1.25816 0.624058 0
M  V30 4 C -2.57235 -0.0825344 0.749956 0
M  V30 5 N -3.86827 -0.55626 1.07814 0
M  V30 6 N -1.52519 -0.887303 0.549696 0
M  V30 7 C -0.277001 -0.474974 0.236004 0
M  V30 8 N -0.109113 0.865272 0.123564 0
M  V30 9 C 0.815239 -1.40508 0.0321137 0
M  V30 10 N 0.763056 -2.73594 0.117084 0
M  V30 11 O 1.95576 -3.24329 -0.133331 0
M  V30 12 C 2.80854 -2.25154 -0.386473 0
M  V30 13 C 2.10165 -1.07104 -0.286184 0
M  V30 14 C 2.62204 0.274298 -0.481122 0
M  V30 15 H -1.17935 3.78627 0.996022 0
M  V30 16 H -0.66301 3.59641 -0.687348 0
M  V30 17 H -4.70561 -0.315432 0.516719 0
M  V30 18 H -3.98505 -1.1657 1.90923 0
M  V30 19 H 3.85701 -2.38809 -0.623532 0
M  V30 20 H 2.64309 0.851298 0.4881 0
M  V30 21 H 3.68155 0.227379 -0.80484 0
M  V30 22 H 2.09067 0.868664 -1.24786 0
M  V30 END ATOM
M  V30 BEGIN BOND
M  V30 1 1 1 2
M  V30 2 2 2 3
M  V30 3 1 3 4
M  V30 4 1 4 5
M  V30 5 2 4 6
M  V30 6 1 6 7
M  V30 7 2 7 8
M  V30 8 1 7 9
M  V30 9 2 9 10
M  V30 10 1 10 11
M  V30 11 1 11 12
M  V30 12 2 12 13
M  V30 13 1 13 14
M  V30 14 1 8 2
M  V30 15 1 13 9
M  V30 16 1 1 15
M  V30 17 1 1 16
M  V30 18 1 5 17
M  V30 19 1 5 18
M  V30 20 1 12 19
M  V30 21 1 14 20
M  V30 22 1 14 21
M  V30 23 1 14 22
M  V30 END BOND
M  V30 END CTAB
M  END
