
     RDKit          3D

  0  0  0  0  0  0  0  0  0  0999 V3000
M  V30 BEGIN CTAB
M  V30 COUNTS 44 46 0 0 0
M  V30 BEGIN ATOM
M  V30 1 N -4.40724 -2.39993 0.356781 0
M  V30 2 N -3.47347 -1.36734 0.274549 0
M  V30 3 C -2.09665 -1.70842 0.149777 0
M  V30 4 O -1.75455 -2.91152 0.116649 0
M  V30 5 C -1.04218 -0.650369 0.0568068 0
M  V30 6 C -1.04611 0.224764 1.28984 0
M  V30 7 C 0.06558 1.23113 1.14501 0
M  V30 8 C 0.135867 2.01394 2.44787 0
M  V30 9 C -0.258705 2.14443 -0.0117849 0
M  V30 10 C -0.333294 1.3139 -1.26466 0
M  V30 11 C -1.419 0.246993 -1.11271 0
M  V30 12 C -0.59388 2.18609 -2.449 0
M  V30 13 C 0.960375 0.56909 -1.50707 0
M  V30 14 C 1.34511 -0.281894 -0.315981 0
M  V30 15 C 0.272179 -1.32687 -0.149333 0
M  V30 16 C 1.40216 0.598759 0.896546 0
M  V30 17 C 2.67924 -0.880756 -0.594904 0
M  V30 18 O 3.28718 -0.644544 -1.67612 0
M  V30 19 N 3.32819 -1.73985 0.33351 0
M  V30 20 N 4.5646 -2.29759 0.0801402 0
M  V30 21 H -4.62023 -2.54248 1.36437 0
M  V30 22 H -4.10036 -3.27661 -0.0848907 0
M  V30 23 H -3.82502 -0.400042 0.308079 0
M  V30 24 H -2.00884 0.797225 1.26978 0
M  V30 25 H -1.00667 -0.343551 2.23 0
M  V30 26 H 1.10413 2.55708 2.50572 0
M  V30 27 H 0.075672 1.26684 3.26432 0
M  V30 28 H -0.735821 2.71501 2.51127 0
M  V30 29 H 0.597398 2.84246 -0.13732 0
M  V30 30 H -1.22283 2.66822 0.112271 0
M  V30 31 H -2.33838 0.769237 -0.826184 0
M  V30 32 H -1.56868 -0.300828 -2.04294 0
M  V30 33 H -1.2086 3.06959 -2.24402 0
M  V30 34 H -1.02028 1.55222 -3.25323 0
M  V30 35 H 0.391642 2.54003 -2.83384 0
M  V30 36 H 0.742222 -0.155812 -2.341 0
M  V30 37 H 1.77836 1.22967 -1.82983 0
M  V30 38 H 0.193286 -1.92779 -1.0893 0
M  V30 39 H 0.451717 -2.00459 0.693428 0
M  V30 40 H 1.70763 0.0668354 1.81031 0
M  V30 41 H 2.11935 1.41893 0.675519 0
M  V30 42 H 2.82685 -1.93751 1.23047 0
M  V30 43 H 5.36589 -1.66441 0.221471 0
M  V30 44 H 4.68617 -3.25973 0.419634 0
M  V30 END ATOM
M  V30 BEGIN BOND
M  V30 1 1 1 2
M  V30 2 1 2 3
M  V30 3 2 3 4
M  V30 4 1 3 5
M  V30 5 1 5 6
M  V30 6 1 6 7
M  V30 7 1 7 8
M  V30 8 1 7 9
M  V30 9 1 9 10
M  V30 10 1 10 11
M  V30 11 1 10 12
M  V30 12 1 10 13
M  V30 13 1 13 14
M  V30 14 1 14 15
M  V30 15 1 14 16
M  V30 16 1 14 17
M  V30 17 2 17 18
M  V30 18 1 17 19
M  V30 19 1 19 20
M  V30 20 1 11 5
M  V30 21 1 15 5
M  V30 22 1 16 7
M  V30 23 1 1 21
M  V30 24 1 1 22
M  V30 25 1 2 23
M  V30 26 1 6 24
M  V30 27 1 6 25
M  V30 28 1 8 26
M  V30 29 1 8 27
M  V30 30 1 8 28
M  V30 31 1 9 29
M  V30 32 1 9 30
M  V30 33 1 11 31
M  V30 34 1 11 32
M  V30 35 1 12 33
M  V30 36 1 12 34
M  V30 37 1 12 35
M  V30 38 1 13 36
M  V30 39 1 13 37
M  V30 40 1 15 38
M  V30 41 1 15 39
M  V30 42 1 16 40
M  V30 43 1 16 41
M  V30 44 1 19 42
M  V30 45 1 20 43
M  V30 46 1 20 44
M  V30 END BOND
M  V30 END CTAB
M  END
