
     RDKit          3D

  0  0  0  0  0  0  0  0  0  0999 V3000
M  V30 BEGIN CTAB
M  V30 COUNTS 29 30 0 0 0
M  V30 BEGIN ATOM
M  V30 1 Cl -0.954441 1.57511 -1.89108 0
M  V30 2 C -1.77362 0.659329 -0.682114 0
M  V30 3 C -2.96678 0.0256904 -1.09051 0
M  V30 4 C -3.71216 -0.7347 -0.244471 0
M  V30 5 N -4.92561 -1.38174 -0.59946 0
M  V30 6 C -3.23737 -0.862787 1.06668 0
M  V30 7 C -2.08364 -0.247112 1.44812 0
M  V30 8 C -1.29867 0.549744 0.572482 0
M  V30 9 C -0.131789 1.19764 1.13865 0
M  V30 10 C 1.21601 0.781906 0.733058 0
M  V30 11 C 1.65314 -0.543744 0.931566 0
M  V30 12 C 2.88973 -0.969374 0.496601 0
M  V30 13 Cl 3.4292 -2.63773 0.742712 0
M  V30 14 C 3.78038 -0.131325 -0.160308 0
M  V30 15 C 3.35913 1.16144 -0.358929 0
M  V30 16 C 2.12403 1.5817 0.0790628 0
M  V30 17 Cl 1.76751 3.30026 -0.121372 0
M  V30 18 N 5.07135 -0.580896 -0.584861 0
M  V30 19 Cl -4.19017 -1.82731 2.15786 0
M  V30 20 H -3.32047 0.133212 -2.10039 0
M  V30 21 H -5.73598 -1.52866 0.0799405 0
M  V30 22 H -5.06294 -1.74752 -1.55304 0
M  V30 23 H -1.71055 -0.341057 2.47888 0
M  V30 24 H -0.159358 2.31994 0.994643 0
M  V30 25 H -0.132795 1.13529 2.27814 0
M  V30 26 H 1.00914 -1.2442 1.42608 0
M  V30 27 H 4.06081 1.81215 -0.875411 0
M  V30 28 H 5.76602 0.135155 -0.867162 0
M  V30 29 H 5.26989 -1.59042 -0.600118 0
M  V30 END ATOM
M  V30 BEGIN BOND
M  V30 1 1 1 2
M  V30 2 2 2 3
M  V30 3 1 3 4
M  V30 4 1 4 5
M  V30 5 2 4 6
M  V30 6 1 6 7
M  V30 7 2 7 8
M  V30 8 1 8 9
M  V30 9 1 9 10
M  V30 10 2 10 11
M  V30 11 1 11 12
M  V30 12 1 12 13
M  V30 13 2 12 14
M  V30 14 1 14 15
M  V30 15 2 15 16
M  V30 16 1 16 17
M  V30 17 1 14 18
M  V30 18 1 6 19
M  V30 19 1 8 2
M  V30 20 1 16 10
M  V30 21 1 3 20
M  V30 22 1 5 21
M  V30 23 1 5 22
M  V30 24 1 7 23
M  V30 25 1 9 24
M  V30 26 1 9 25
M  V30 27 1 11 26
M  V30 28 1 15 27
M  V30 29 1 18 28
M  V30 30 1 18 29
M  V30 END BOND
M  V30 END CTAB
M  END
