
     RDKit          3D

  0  0  0  0  0  0  0  0  0  0999 V3000
M  V30 BEGIN CTAB
M  V30 COUNTS 31 32 0 0 0
M  V30 BEGIN ATOM
M  V30 1 N 3.23264 1.54902 -0.690342 0
M  V30 2 C 2.39977 0.322316 -0.722668 0
M  V30 3 C 2.66212 -0.320127 0.647727 0
M  V30 4 C 1.30788 -0.864087 1.09187 0
M  V30 5 C 0.678591 -1.40714 -0.148073 0
M  V30 6 C -0.0639956 -0.298336 -0.855696 0
M  V30 7 C 0.979976 0.854219 -0.800205 0
M  V30 8 C -1.22258 0.227839 -0.129054 0
M  V30 9 C -1.32711 1.4787 0.412345 0
M  V30 10 N -2.50816 1.94681 0.957463 0
M  V30 11 C -3.62492 1.20825 0.991837 0
M  V30 12 C -3.53312 -0.0555672 0.452644 0
M  V30 13 C -2.38907 -0.559215 -0.095646 0
M  V30 14 N -2.42484 -1.90575 -0.575203 0
M  V30 15 H 3.22183 1.86615 0.327874 0
M  V30 16 H 2.82517 2.32364 -1.21708 0
M  V30 17 H 2.69157 -0.287626 -1.57055 0
M  V30 18 H 3.29803 -1.20023 0.447418 0
M  V30 19 H 3.1284 0.357759 1.35857 0
M  V30 20 H 0.671275 -0.0838436 1.55605 0
M  V30 21 H 1.46218 -1.75214 1.76686 0
M  V30 22 H 1.46932 -1.72927 -0.883397 0
M  V30 23 H 0.0595176 -2.30995 0.0320553 0
M  V30 24 H -0.276785 -0.478251 -1.89934 0
M  V30 25 H 0.873136 1.49853 -1.64944 0
M  V30 26 H 0.870171 1.35964 0.205728 0
M  V30 27 H -0.552508 2.22318 0.464173 0
M  V30 28 H -4.57648 1.58089 1.42061 0
M  V30 29 H -4.44784 -0.674283 0.481598 0
M  V30 30 H -2.39998 -2.20282 -1.54926 0
M  V30 31 H -2.48417 -2.66829 0.171117 0
M  V30 END ATOM
M  V30 BEGIN BOND
M  V30 1 1 1 2
M  V30 2 1 2 3
M  V30 3 1 3 4
M  V30 4 1 4 5
M  V30 5 1 5 6
M  V30 6 1 6 7
M  V30 7 1 6 8
M  V30 8 2 8 9
M  V30 9 1 9 10
M  V30 10 2 10 11
M  V30 11 1 11 12
M  V30 12 2 12 13
M  V30 13 1 13 14
M  V30 14 1 7 2
M  V30 15 1 13 8
M  V30 16 1 1 15
M  V30 17 1 1 16
M  V30 18 1 2 17
M  V30 19 1 3 18
M  V30 20 1 3 19
M  V30 21 1 4 20
M  V30 22 1 4 21
M  V30 23 1 5 22
M  V30 24 1 5 23
M  V30 25 1 6 24
M  V30 26 1 7 25
M  V30 27 1 7 26
M  V30 28 1 9 27
M  V30 29 1 11 28
M  V30 30 1 12 29
M  V30 31 1 14 30
M  V30 32 1 14 31
M  V30 END BOND
M  V30 END CTAB
M  END
