
     RDKit          3D

  0  0  0  0  0  0  0  0  0  0999 V3000
M  V30 BEGIN CTAB
M  V30 COUNTS 19 19 0 0 0
M  V30 BEGIN ATOM
M  V30 1 C -2.73138 0.456875 -0.180816 0
M  V30 2 C -1.57987 -0.505775 -0.250789 0 CFG=1
M  V30 3 C -0.318132 0.294921 -0.333353 0
M  V30 4 N -0.174342 1.5858 -0.686652 0
M  V30 5 N 1.12198 1.90483 -0.627107 0
M  V30 6 C 1.82963 0.830353 -0.236665 0
M  V30 7 N 0.923616 -0.145899 -0.0623468 0
M  V30 8 N 1.22611 -1.45035 0.346799 0
M  V30 9 N 3.23073 0.688567 -0.0328085 0
M  V30 10 O -1.61173 -1.25846 0.933335 0
M  V30 11 H -3.6071 0.0308511 0.343114 0
M  V30 12 H -3.02022 0.711644 -1.21216 0
M  V30 13 H -2.41786 1.35563 0.354305 0
M  V30 14 H -1.65927 -1.22027 -1.09267 0
M  V30 15 H 1.64689 -2.11707 -0.364234 0
M  V30 16 H 1.07624 -1.82844 1.2866 0
M  V30 17 H 3.68325 1.08981 0.819075 0
M  V30 18 H 3.85937 0.193327 -0.70031 0
M  V30 19 H -1.4779 -0.616346 1.69669 0
M  V30 END ATOM
M  V30 BEGIN BOND
M  V30 1 1 1 2
M  V30 2 1 2 3
M  V30 3 2 3 4
M  V30 4 1 4 5
M  V30 5 2 5 6
M  V30 6 1 6 7
M  V30 7 1 7 8
M  V30 8 1 6 9
M  V30 9 1 2 10
M  V30 10 1 7 3
M  V30 11 1 1 11
M  V30 12 1 1 12
M  V30 13 1 1 13
M  V30 14 1 2 14 CFG=3
M  V30 15 1 8 15
M  V30 16 1 8 16
M  V30 17 1 9 17
M  V30 18 1 9 18
M  V30 19 1 10 19
M  V30 END BOND
M  V30 END CTAB
M  END
