
     RDKit          3D

  0  0  0  0  0  0  0  0  0  0999 V3000
M  V30 BEGIN CTAB
M  V30 COUNTS 19 20 0 0 0
M  V30 BEGIN ATOM
M  V30 1 N -3.30977 1.41817 -0.0793843 0
M  V30 2 C -2.17279 0.565265 -0.0787566 0
M  V30 3 C -2.24566 -0.799308 -0.182559 0
M  V30 4 C -1.08982 -1.5388 -0.172576 0
M  V30 5 C 0.132227 -0.920765 -0.0596698 0
M  V30 6 C 0.190677 0.445296 0.0434448 0
M  V30 7 N -0.950817 1.13877 0.0308881 0
M  V30 8 N 1.36314 1.08697 0.155332 0
M  V30 9 C 2.53328 0.41386 0.170965 0
M  V30 10 N 2.48743 -0.925664 0.0704926 0
M  V30 11 C 1.33877 -1.60277 -0.0426661 0
M  V30 12 N 3.76711 1.10895 0.290169 0
M  V30 13 H -4.09056 1.29519 0.60183 0
M  V30 14 H -3.39901 2.19894 -0.765991 0
M  V30 15 H -3.20714 -1.27656 -0.270746 0
M  V30 16 H -1.09486 -2.62019 -0.251895 0
M  V30 17 H 1.33375 -2.68682 -0.122194 0
M  V30 18 H 3.75767 2.1363 0.438639 0
M  V30 19 H 4.65639 0.563168 0.224677 0
M  V30 END ATOM
M  V30 BEGIN BOND
M  V30 1 1 1 2
M  V30 2 2 2 3
M  V30 3 1 3 4
M  V30 4 2 4 5
M  V30 5 1 5 6
M  V30 6 2 6 7
M  V30 7 1 6 8
M  V30 8 2 8 9
M  V30 9 1 9 10
M  V30 10 2 10 11
M  V30 11 1 9 12
M  V30 12 1 7 2
M  V30 13 1 11 5
M  V30 14 1 1 13
M  V30 15 1 1 14
M  V30 16 1 3 15
M  V30 17 1 4 16
M  V30 18 1 11 17
M  V30 19 1 12 18
M  V30 20 1 12 19
M  V30 END BOND
M  V30 END CTAB
M  END
