
     RDKit          3D

  0  0  0  0  0  0  0  0  0  0999 V3000
M  V30 BEGIN CTAB
M  V30 COUNTS 31 33 0 0 0
M  V30 BEGIN ATOM
M  V30 1 C -2.31031 2.16911 1.91864 0
M  V30 2 C -1.51442 1.59458 0.769692 0
M  V30 3 C -0.733329 0.370559 1.26718 0
M  V30 4 N 0.0396419 -0.220709 0.233216 0
M  V30 5 N 1.3078 0.25223 0.0318274 0
M  V30 6 C 1.8896 -0.394375 -0.963841 0
M  V30 7 N 1.02264 -1.27426 -1.40828 0
M  V30 8 C -0.152051 -1.16041 -0.644594 0
M  V30 9 C -1.27444 -2.02627 -0.918659 0
M  V30 10 N -1.22889 -2.98417 -1.92459 0
M  V30 11 O -2.33829 -3.62192 -1.98145 0
M  V30 12 N -3.1713 -3.20002 -1.10147 0
M  V30 13 C -2.50461 -2.18196 -0.417132 0
M  V30 14 N -3.20377 -1.53881 0.609449 0
M  V30 15 C 3.25724 -0.180838 -1.49144 0
M  V30 16 N 3.88126 -0.809811 -2.49183 0
M  V30 17 O 5.06691 -0.316254 -2.62674 0
M  V30 18 N 5.25712 0.621057 -1.75101 0
M  V30 19 C 4.14738 0.750041 -1.00677 0
M  V30 20 N 3.86816 1.62466 0.0611772 0
M  V30 21 H -1.8935 1.85523 2.89681 0
M  V30 22 H -2.28525 3.27932 1.87616 0
M  V30 23 H -3.38095 1.83891 1.82451 0
M  V30 24 H -0.787816 2.34492 0.390335 0
M  V30 25 H -2.18613 1.25797 -0.0598798 0
M  V30 26 H -1.32718 -0.266431 1.91475 0
M  V30 27 H 0.00261781 0.854612 2.03678 0
M  V30 28 H -3.83144 -0.718056 0.410424 0
M  V30 29 H -3.12208 -1.85926 1.61905 0
M  V30 30 H 3.27938 2.46834 -0.0978732 0
M  V30 31 H 4.226 1.47201 1.02555 0
M  V30 END ATOM
M  V30 BEGIN BOND
M  V30 1 1 1 2
M  V30 2 1 2 3
M  V30 3 1 3 4
M  V30 4 1 4 5
M  V30 5 2 5 6
M  V30 6 1 6 7
M  V30 7 2 7 8
M  V30 8 1 8 9
M  V30 9 2 9 10
M  V30 10 1 10 11
M  V30 11 1 11 12
M  V30 12 2 12 13
M  V30 13 1 13 14
M  V30 14 1 6 15
M  V30 15 2 15 16
M  V30 16 1 16 17
M  V30 17 1 17 18
M  V30 18 2 18 19
M  V30 19 1 19 20
M  V30 20 1 8 4
M  V30 21 1 13 9
M  V30 22 1 19 15
M  V30 23 1 1 21
M  V30 24 1 1 22
M  V30 25 1 1 23
M  V30 26 1 2 24
M  V30 27 1 2 25
M  V30 28 1 3 26
M  V30 29 1 3 27
M  V30 30 1 14 28
M  V30 31 1 14 29
M  V30 32 1 20 30
M  V30 33 1 20 31
M  V30 END BOND
M  V30 END CTAB
M  END
