
     RDKit          3D

  0  0  0  0  0  0  0  0  0  0999 V3000
M  V30 BEGIN CTAB
M  V30 COUNTS 17 16 0 0 0
M  V30 BEGIN ATOM
M  V30 1 N -3.62303 1.06884 -0.253851 0
M  V30 2 N -2.27073 1.37281 -0.224281 0
M  V30 3 C -1.38202 0.465293 0.00726632 0
M  V30 4 S 0.363586 0.8362 0.0495485 0
M  V30 5 C 1.30314 -0.667795 0.39868 0
M  V30 6 C 2.75683 -0.430577 0.44766 0
M  V30 7 C 3.30605 0.740426 0.258999 0
M  V30 8 Cl 5.03737 0.977119 0.326117 0
M  V30 9 Cl 3.80313 -1.79993 0.777975 0
M  V30 10 N -1.81025 -0.865348 0.234376 0
M  V30 11 H -4.02387 0.262146 -0.7857 0
M  V30 12 H -4.26245 1.68617 0.2877 0
M  V30 13 H 1.02548 -1.50045 -0.283804 0
M  V30 14 H 0.978259 -1.0087 1.4258 0
M  V30 15 H 2.69718 1.62021 0.0509038 0
M  V30 16 H -2.73491 -1.11764 0.643834 0
M  V30 17 H -1.16375 -1.63878 -0.0225846 0
M  V30 END ATOM
M  V30 BEGIN BOND
M  V30 1 1 1 2
M  V30 2 2 2 3 CFG=2
M  V30 3 1 3 4
M  V30 4 1 4 5
M  V30 5 1 5 6
M  V30 6 2 6 7 CFG=2
M  V30 7 1 7 8
M  V30 8 1 6 9
M  V30 9 1 3 10
M  V30 10 1 1 11
M  V30 11 1 1 12
M  V30 12 1 5 13
M  V30 13 1 5 14
M  V30 14 1 7 15
M  V30 15 1 10 16
M  V30 16 1 10 17
M  V30 END BOND
M  V30 END CTAB
M  END
