
     RDKit          3D

  0  0  0  0  0  0  0  0  0  0999 V3000
M  V30 BEGIN CTAB
M  V30 COUNTS 39 41 0 0 0
M  V30 BEGIN ATOM
M  V30 1 N -2.30069 -1.48362 0.292924 0
M  V30 2 C -1.59876 -0.261639 -0.00296376 0
M  V30 3 N -0.265145 -0.185527 0.0512683 0
M  V30 4 C 0.108985 1.04309 -0.290829 0
M  V30 5 N 1.39545 1.62692 -0.385019 0
M  V30 6 C 2.60189 0.981401 -0.126575 0
M  V30 7 C 3.74831 1.76689 0.0528785 0
M  V30 8 C 4.96046 1.17166 0.293323 0
M  V30 9 C 5.13947 -0.177547 0.373753 0
M  V30 10 C 4.03097 -0.968862 0.201114 0
M  V30 11 C 2.78128 -0.375679 -0.0462353 0
M  V30 12 S 6.72369 -0.844871 0.68484 0
M  V30 13 N 7.51861 -1.11677 -0.81714 0
M  V30 14 O 6.58611 -2.16484 1.40795 0
M  V30 15 O 7.56004 0.0792838 1.51997 0
M  V30 16 N -1.05761 1.6989 -0.551913 0
M  V30 17 N -2.09536 0.903723 -0.375508 0
M  V30 18 C -3.43344 1.31792 -0.543703 0
M  V30 19 O -3.63571 2.51004 -0.995085 0
M  V30 20 C -4.63104 0.580688 -0.276761 0
M  V30 21 C -4.91356 0.0670366 0.960617 0
M  V30 22 C -6.06837 -0.646705 1.18666 0
M  V30 23 C -6.93436 -0.830763 0.133593 0
M  V30 24 C -6.70061 -0.337288 -1.12734 0
M  V30 25 C -5.5364 0.37064 -1.31554 0
M  V30 26 H -2.30098 -1.80457 1.27254 0
M  V30 27 H -2.77271 -1.99095 -0.470096 0
M  V30 28 H 1.42297 2.64856 -0.684719 0
M  V30 29 H 3.62646 2.82428 -0.00561476 0
M  V30 30 H 5.85691 1.78616 0.433645 0
M  V30 31 H 4.1576 -2.0356 0.262022 0
M  V30 32 H 1.97231 -1.06489 -0.179283 0
M  V30 33 H 8.36548 -1.698 -0.74261 0
M  V30 34 H 6.86477 -1.39375 -1.58305 0
M  V30 35 H -4.25179 0.206657 1.81107 0
M  V30 36 H -6.29819 -1.06197 2.18384 0
M  V30 37 H -7.84917 -1.39159 0.298028 0
M  V30 38 H -7.41591 -0.503808 -1.94525 0
M  V30 39 H -5.36196 0.75541 -2.31441 0
M  V30 END ATOM
M  V30 BEGIN BOND
M  V30 1 1 1 2
M  V30 2 2 2 3
M  V30 3 1 3 4
M  V30 4 1 4 5
M  V30 5 1 5 6
M  V30 6 2 6 7
M  V30 7 1 7 8
M  V30 8 2 8 9
M  V30 9 1 9 10
M  V30 10 2 10 11
M  V30 11 1 9 12
M  V30 12 1 12 13
M  V30 13 2 12 14
M  V30 14 2 12 15
M  V30 15 2 4 16
M  V30 16 1 16 17
M  V30 17 1 17 18
M  V30 18 2 18 19
M  V30 19 1 18 20
M  V30 20 2 20 21
M  V30 21 1 21 22
M  V30 22 2 22 23
M  V30 23 1 23 24
M  V30 24 2 24 25
M  V30 25 1 17 2
M  V30 26 1 25 20
M  V30 27 1 11 6
M  V30 28 1 1 26
M  V30 29 1 1 27
M  V30 30 1 5 28
M  V30 31 1 7 29
M  V30 32 1 8 30
M  V30 33 1 10 31
M  V30 34 1 11 32
M  V30 35 1 13 33
M  V30 36 1 13 34
M  V30 37 1 21 35
M  V30 38 1 22 36
M  V30 39 1 23 37
M  V30 40 1 24 38
M  V30 41 1 25 39
M  V30 END BOND
M  V30 END CTAB
M  END
