
     RDKit          3D

  0  0  0  0  0  0  0  0  0  0999 V3000
M  V30 BEGIN CTAB
M  V30 COUNTS 56 58 0 0 0
M  V30 BEGIN ATOM
M  V30 1 O -6.11718 -0.0253522 1.26753 0
M  V30 2 C -5.33016 0.666021 0.535475 0
M  V30 3 N -4.09701 0.0724993 0.166351 0
M  V30 4 C -3.24595 0.890149 -0.633726 0
M  V30 5 C -1.7802 0.742244 -0.411232 0
M  V30 6 C -1.24353 -0.606219 -0.40205 0
M  V30 7 C -1.82541 -1.8412 -0.412884 0
M  V30 8 C -3.27721 -2.15585 -0.414957 0
M  V30 9 C -3.92577 -1.28965 0.668346 0
M  V30 10 N -1.13785 -2.98917 -0.411079 0
M  V30 11 C 0.209636 -2.97726 -0.397575 0
M  V30 12 N 0.798135 -1.77068 -0.386084 0
M  V30 13 C 0.154756 -0.593698 -0.387235 0
M  V30 14 N 0.924445 0.587796 -0.369433 0
M  V30 15 C 2.34578 0.593246 -0.349792 0
M  V30 16 C 2.97925 0.0155709 0.886529 0
M  V30 17 C 4.4805 0.0882001 0.775143 0
M  V30 18 C 5.2255 -1.01101 0.81463 0
M  V30 19 C 6.69961 -0.864931 0.699036 0
M  V30 20 C 7.07686 0.0826448 -0.417914 0
M  V30 21 C 6.14346 1.24082 -0.557266 0
M  V30 22 C 5.19203 1.38713 0.616634 0
M  V30 23 N 0.957401 -4.17996 -0.395631 0
M  V30 24 C -5.75073 2.0199 0.126468 0
M  V30 25 N -7.03894 2.31376 0.758854 0
M  V30 26 C -5.95341 2.03237 -1.36089 0
M  V30 27 H -3.47833 1.96801 -0.385609 0
M  V30 28 H -3.44197 0.805721 -1.72275 0
M  V30 29 H -1.29543 1.26637 -1.29744 0
M  V30 30 H -1.41765 1.35965 0.463797 0
M  V30 31 H -3.44777 -3.20155 -0.0889708 0
M  V30 32 H -3.75635 -2.01876 -1.38796 0
M  V30 33 H -4.89875 -1.75268 0.889174 0
M  V30 34 H -3.30358 -1.34614 1.57321 0
M  V30 35 H 0.436884 1.50734 -0.365651 0
M  V30 36 H 2.75349 -0.00353928 -1.21782 0
M  V30 37 H 2.78175 1.61254 -0.517107 0
M  V30 38 H 2.70552 -1.02695 1.11037 0
M  V30 39 H 2.72759 0.620106 1.79085 0
M  V30 40 H 4.73493 -1.9773 0.92967 0
M  V30 41 H 7.14231 -0.443395 1.63972 0
M  V30 42 H 7.10174 -1.88684 0.517726 0
M  V30 43 H 8.10674 0.470738 -0.262718 0
M  V30 44 H 7.09892 -0.538002 -1.35454 0
M  V30 45 H 5.51162 1.10458 -1.45911 0
M  V30 46 H 6.70583 2.1746 -0.707024 0
M  V30 47 H 5.79678 1.59684 1.5424 0
M  V30 48 H 4.50961 2.22243 0.378969 0
M  V30 49 H 1.98332 -4.14833 -0.325522 0
M  V30 50 H 0.466475 -5.0816 -0.464702 0
M  V30 51 H -5.05572 2.78633 0.507624 0
M  V30 52 H -7.8081 2.15131 0.0725024 0
M  V30 53 H -7.0952 3.2905 1.07512 0
M  V30 54 H -6.99502 2.33916 -1.57591 0
M  V30 55 H -5.82051 1.01098 -1.78371 0
M  V30 56 H -5.21313 2.71052 -1.83239 0
M  V30 END ATOM
M  V30 BEGIN BOND
M  V30 1 2 1 2
M  V30 2 1 2 3
M  V30 3 1 3 4
M  V30 4 1 4 5
M  V30 5 1 5 6
M  V30 6 2 6 7
M  V30 7 1 7 8
M  V30 8 1 8 9
M  V30 9 1 7 10
M  V30 10 2 10 11
M  V30 11 1 11 12
M  V30 12 2 12 13
M  V30 13 1 13 14
M  V30 14 1 14 15
M  V30 15 1 15 16
M  V30 16 1 16 17
M  V30 17 2 17 18
M  V30 18 1 18 19
M  V30 19 1 19 20
M  V30 20 1 20 21
M  V30 21 1 21 22
M  V30 22 1 11 23
M  V30 23 1 2 24
M  V30 24 1 24 25
M  V30 25 1 24 26
M  V30 26 1 9 3
M  V30 27 1 22 17
M  V30 28 1 13 6
M  V30 29 1 4 27
M  V30 30 1 4 28
M  V30 31 1 5 29
M  V30 32 1 5 30
M  V30 33 1 8 31
M  V30 34 1 8 32
M  V30 35 1 9 33
M  V30 36 1 9 34
M  V30 37 1 14 35
M  V30 38 1 15 36
M  V30 39 1 15 37
M  V30 40 1 16 38
M  V30 41 1 16 39
M  V30 42 1 18 40
M  V30 43 1 19 41
M  V30 44 1 19 42
M  V30 45 1 20 43
M  V30 46 1 20 44
M  V30 47 1 21 45
M  V30 48 1 21 46
M  V30 49 1 22 47
M  V30 50 1 22 48
M  V30 51 1 23 49
M  V30 52 1 23 50
M  V30 53 1 24 51
M  V30 54 1 25 52
M  V30 55 1 25 53
M  V30 56 1 26 54
M  V30 57 1 26 55
M  V30 58 1 26 56
M  V30 END BOND
M  V30 END CTAB
M  END
