
     RDKit          3D

  0  0  0  0  0  0  0  0  0  0999 V3000
M  V30 BEGIN CTAB
M  V30 COUNTS 35 36 0 0 0
M  V30 BEGIN ATOM
M  V30 1 N 4.27491 1.50624 -1.17486 0
M  V30 2 C 3.93687 0.14253 -1.5746 0
M  V30 3 C 3.28035 -0.564535 -0.459338 0
M  V30 4 N 4.01824 -1.25176 0.422193 0
M  V30 5 C 3.42229 -1.89238 1.43267 0
M  V30 6 C 2.05665 -1.84389 1.56245 0
M  V30 7 C 1.21014 -1.14834 0.683897 0
M  V30 8 C 1.88155 -0.508401 -0.334489 0
M  V30 9 C -0.208982 -1.1182 0.929699 0
M  V30 10 O -0.553182 -1.5995 2.1026 0
M  V30 11 N -1.23619 -0.663475 0.119551 0
M  V30 12 C -1.30391 -0.135437 -1.1943 0
M  V30 13 C -1.52263 1.38465 -1.0945 0
M  V30 14 C -2.40654 1.66799 0.113081 0
M  V30 15 C -3.38875 0.499554 0.249009 0
M  V30 16 C -2.60216 -0.679403 0.774158 0
M  V30 17 N -4.36383 0.836996 1.28314 0
M  V30 18 H 3.48243 2.15047 -1.40651 0
M  V30 19 H 4.46872 1.5345 -0.145765 0
M  V30 20 H 3.24503 0.222602 -2.44282 0
M  V30 21 H 4.87826 -0.365321 -1.80353 0
M  V30 22 H 3.98011 -2.45557 2.16285 0
M  V30 23 H 1.55906 -2.36231 2.37618 0
M  V30 24 H 1.32871 0.0765159 -1.04617 0
M  V30 25 H -0.567675 -0.352626 -1.9264 0
M  V30 26 H -2.29237 -0.466324 -1.70105 0
M  V30 27 H -1.98758 1.77605 -2.00081 0
M  V30 28 H -0.518738 1.83375 -0.990408 0
M  V30 29 H -1.76888 1.64678 1.00512 0
M  V30 30 H -2.98561 2.58448 0.0136921 0
M  V30 31 H -3.89852 0.268958 -0.68647 0
M  V30 32 H -2.48243 -0.611659 1.85453 0
M  V30 33 H -3.0306 -1.64646 0.442112 0
M  V30 34 H -4.88928 -0.0529277 1.50334 0
M  V30 35 H -5.01548 1.58645 0.951731 0
M  V30 END ATOM
M  V30 BEGIN BOND
M  V30 1 1 1 2
M  V30 2 1 2 3
M  V30 3 2 3 4
M  V30 4 1 4 5
M  V30 5 2 5 6
M  V30 6 1 6 7
M  V30 7 2 7 8
M  V30 8 1 7 9
M  V30 9 2 9 10
M  V30 10 1 9 11
M  V30 11 1 11 12
M  V30 12 1 12 13
M  V30 13 1 13 14
M  V30 14 1 14 15
M  V30 15 1 15 16
M  V30 16 1 15 17
M  V30 17 1 8 3
M  V30 18 1 16 11
M  V30 19 1 1 18
M  V30 20 1 1 19
M  V30 21 1 2 20
M  V30 22 1 2 21
M  V30 23 1 5 22
M  V30 24 1 6 23
M  V30 25 1 8 24
M  V30 26 1 12 25
M  V30 27 1 12 26
M  V30 28 1 13 27
M  V30 29 1 13 28
M  V30 30 1 14 29
M  V30 31 1 14 30
M  V30 32 1 15 31
M  V30 33 1 16 32
M  V30 34 1 16 33
M  V30 35 1 17 34
M  V30 36 1 17 35
M  V30 END BOND
M  V30 END CTAB
M  END
