
     RDKit          3D

  0  0  0  0  0  0  0  0  0  0999 V3000
M  V30 BEGIN CTAB
M  V30 COUNTS 23 24 0 0 0
M  V30 BEGIN ATOM
M  V30 1 F -5.29383 -0.118043 -0.0901686 0
M  V30 2 C -3.9417 -0.0555999 -0.0588441 0
M  V30 3 C -3.23444 -1.23153 -0.0181628 0
M  V30 4 C -1.8572 -1.16382 0.0136457 0
M  V30 5 C -1.18175 0.0553705 0.0053952 0
M  V30 6 C -1.87976 1.2282 -0.0350003 0
M  V30 7 C -3.25733 1.16299 -0.0668666 0
M  V30 8 C 0.282865 0.0837368 0.0401041 0
M  V30 9 C 1.1622 -0.977814 0.0826386 0
M  V30 10 N 2.43358 -0.528038 0.104209 0
M  V30 11 C 2.35948 0.824817 0.0752043 0
M  V30 12 N 1.05447 1.18377 0.0365543 0
M  V30 13 N 3.42615 1.75122 0.0822666 0
M  V30 14 N 3.61877 -1.2719 0.147719 0
M  V30 15 H -3.78092 -2.15881 -0.01268 0
M  V30 16 H -1.32782 -2.10391 0.0452912 0
M  V30 17 H -1.37984 2.18703 -0.0422522 0
M  V30 18 H -3.8311 2.07961 -0.0991172 0
M  V30 19 H 0.857437 -2.03069 0.0964832 0
M  V30 20 H 3.91849 1.97035 -0.798514 0
M  V30 21 H 3.72206 2.21399 0.956816 0
M  V30 22 H 4.5051 -0.811892 0.387463 0
M  V30 23 H 3.62513 -2.28903 -0.0586188 0
M  V30 END ATOM
M  V30 BEGIN BOND
M  V30 1 1 1 2
M  V30 2 2 2 3
M  V30 3 1 3 4
M  V30 4 2 4 5
M  V30 5 1 5 6
M  V30 6 2 6 7
M  V30 7 1 5 8
M  V30 8 2 8 9
M  V30 9 1 9 10
M  V30 10 1 10 11
M  V30 11 2 11 12
M  V30 12 1 11 13
M  V30 13 1 10 14
M  V30 14 1 7 2
M  V30 15 1 12 8
M  V30 16 1 3 15
M  V30 17 1 4 16
M  V30 18 1 6 17
M  V30 19 1 7 18
M  V30 20 1 9 19
M  V30 21 1 13 20
M  V30 22 1 13 21
M  V30 23 1 14 22
M  V30 24 1 14 23
M  V30 END BOND
M  V30 END CTAB
M  END
