
     RDKit          3D

  0  0  0  0  0  0  0  0  0  0999 V3000
M  V30 BEGIN CTAB
M  V30 COUNTS 29 30 0 0 0
M  V30 BEGIN ATOM
M  V30 1 N -4.29973 1.18531 0.876999 0
M  V30 2 C -3.18877 0.484495 0.31809 0
M  V30 3 C -1.91725 0.823338 0.703588 0
M  V30 4 C -0.866397 0.117407 0.136249 0
M  V30 5 N -1.13931 -0.8488 -0.749316 0
M  V30 6 C -2.37805 -1.17487 -1.12124 0
M  V30 7 N -3.40174 -0.483963 -0.565678 0
M  V30 8 N -2.66576 -2.20097 -2.0616 0
M  V30 9 N 0.488239 0.423126 0.499024 0
M  V30 10 C 1.52849 -0.347411 -0.130574 0
M  V30 11 C 2.91954 -0.0170052 0.255873 0
M  V30 12 C 3.42157 -0.106394 1.64046 0
M  V30 13 C 3.17736 1.24546 0.98748 0
M  V30 14 C 1.41261 -0.195441 -1.64115 0
M  V30 15 H -5.25332 1.05198 0.50406 0
M  V30 16 H -4.16789 1.8381 1.66462 0
M  V30 17 H -1.71455 1.60533 1.41915 0
M  V30 18 H -3.58496 -2.67326 -2.03267 0
M  V30 19 H -1.97349 -2.48952 -2.77981 0
M  V30 20 H 0.636223 1.17446 1.18998 0
M  V30 21 H 1.37868 -1.45372 0.0851245 0
M  V30 22 H 3.66824 -0.295305 -0.539827 0
M  V30 23 H 4.47593 -0.336452 1.80268 0
M  V30 24 H 2.73677 -0.455529 2.43204 0
M  V30 25 H 2.44762 1.84367 1.51681 0
M  V30 26 H 4.06757 1.82716 0.65635 0
M  V30 27 H 1.06903 -1.16961 -2.04453 0
M  V30 28 H 0.706941 0.626672 -1.90621 0
M  V30 29 H 2.4164 0.00174338 -2.03573 0
M  V30 END ATOM
M  V30 BEGIN BOND
M  V30 1 1 1 2
M  V30 2 2 2 3
M  V30 3 1 3 4
M  V30 4 2 4 5
M  V30 5 1 5 6
M  V30 6 2 6 7
M  V30 7 1 6 8
M  V30 8 1 4 9
M  V30 9 1 9 10
M  V30 10 1 10 11
M  V30 11 1 11 12
M  V30 12 1 12 13
M  V30 13 1 10 14
M  V30 14 1 7 2
M  V30 15 1 13 11
M  V30 16 1 1 15
M  V30 17 1 1 16
M  V30 18 1 3 17
M  V30 19 1 8 18
M  V30 20 1 8 19
M  V30 21 1 9 20
M  V30 22 1 10 21
M  V30 23 1 11 22
M  V30 24 1 12 23
M  V30 25 1 12 24
M  V30 26 1 13 25
M  V30 27 1 13 26
M  V30 28 1 14 27
M  V30 29 1 14 28
M  V30 30 1 14 29
M  V30 END BOND
M  V30 END CTAB
M  END
