
     RDKit          3D

  0  0  0  0  0  0  0  0  0  0999 V3000
M  V30 BEGIN CTAB
M  V30 COUNTS 30 32 0 0 0
M  V30 BEGIN ATOM
M  V30 1 N -4.16451 1.89512 -0.9009 0
M  V30 2 C -3.47758 0.870267 -0.196033 0
M  V30 3 C -4.14847 0.00690695 0.64624 0
M  V30 4 N -3.44457 -0.938199 1.2824 0
M  V30 5 C -2.11316 -1.10123 1.15166 0
M  V30 6 C -1.41193 -0.260943 0.32196 0
M  V30 7 C -2.11842 0.726889 -0.348598 0
M  V30 8 C 0.0493937 -0.387055 0.125214 0
M  V30 9 C 0.806817 0.734398 0.263544 0
M  V30 10 C 2.20434 0.667763 0.0986863 0
M  V30 11 N 3.04569 1.65382 0.201363 0
M  V30 12 C 4.33689 1.45478 0.0221162 0
M  V30 13 S 4.39585 -0.21948 -0.313623 0
M  V30 14 C 2.7131 -0.569961 -0.199991 0
M  V30 15 C 1.91411 -1.70691 -0.337036 0
M  V30 16 C 0.530987 -1.62273 -0.170518 0
M  V30 17 C -0.228953 -2.86317 -0.343376 0
M  V30 18 N 5.33989 2.4594 0.110911 0
M  V30 19 H -3.93749 2.89516 -0.714673 0
M  V30 20 H -4.89488 1.69248 -1.60525 0
M  V30 21 H -5.224 0.119748 0.767326 0
M  V30 22 H -1.6056 -1.88944 1.7052 0
M  V30 23 H -1.59165 1.39997 -1.00597 0
M  V30 24 H 0.315027 1.66671 0.500309 0
M  V30 25 H 2.43229 -2.62166 -0.573186 0
M  V30 26 H -0.215749 -3.48027 0.594934 0
M  V30 27 H 0.297707 -3.50313 -1.11645 0
M  V30 28 H -1.2446 -2.73303 -0.758255 0
M  V30 29 H 5.54328 3.13158 -0.652841 0
M  V30 30 H 5.8962 2.52223 0.985146 0
M  V30 END ATOM
M  V30 BEGIN BOND
M  V30 1 1 1 2
M  V30 2 2 2 3
M  V30 3 1 3 4
M  V30 4 2 4 5
M  V30 5 1 5 6
M  V30 6 2 6 7
M  V30 7 1 6 8
M  V30 8 2 8 9
M  V30 9 1 9 10
M  V30 10 1 10 11
M  V30 11 2 11 12
M  V30 12 1 12 13
M  V30 13 1 13 14
M  V30 14 1 14 15
M  V30 15 2 15 16
M  V30 16 1 16 17
M  V30 17 1 12 18
M  V30 18 1 7 2
M  V30 19 1 16 8
M  V30 20 2 14 10
M  V30 21 1 1 19
M  V30 22 1 1 20
M  V30 23 1 3 21
M  V30 24 1 5 22
M  V30 25 1 7 23
M  V30 26 1 9 24
M  V30 27 1 15 25
M  V30 28 1 17 26
M  V30 29 1 17 27
M  V30 30 1 17 28
M  V30 31 1 18 29
M  V30 32 1 18 30
M  V30 END BOND
M  V30 END CTAB
M  END
