
     RDKit          3D

  0  0  0  0  0  0  0  0  0  0999 V3000
M  V30 BEGIN CTAB
M  V30 COUNTS 43 45 0 0 0
M  V30 BEGIN ATOM
M  V30 1 O -1.44245 1.15183 1.15303 0
M  V30 2 C -1.20218 1.98757 0.262622 0
M  V30 3 N -0.113651 1.82079 -0.618848 0
M  V30 4 C 0.810206 0.75121 -0.604815 0
M  V30 5 C 1.1054 0.0014196 0.496901 0
M  V30 6 C 2.00675 -1.07128 0.463632 0
M  V30 7 C 2.61239 -1.37467 -0.717165 0
M  V30 8 C 2.33687 -0.634073 -1.8592 0
M  V30 9 C 1.46214 0.394338 -1.79322 0
M  V30 10 S 3.77436 -2.68525 -0.7942 0
M  V30 11 O 3.44773 -3.48731 -2.02238 0
M  V30 12 O 3.60359 -3.53703 0.44506 0
M  V30 13 N 5.39049 -2.12923 -0.907365 0
M  V30 14 C 5.9171 -1.33072 0.17419 0
M  V30 15 N 7.14252 -0.813076 0.266393 0
M  V30 16 C 7.45587 -0.113649 1.30974 0
M  V30 17 C 6.5062 0.0621894 2.2762 0
M  V30 18 S 5.18989 -0.804766 1.61796 0
M  V30 19 C -2.07924 3.19363 0.114368 0
M  V30 20 S -3.26198 2.86843 -1.19881 0
M  V30 21 C -4.35673 1.56073 -0.689503 0
M  V30 22 N -4.00815 0.293649 -0.96597 0
M  V30 23 C -4.83689 -0.709949 -0.594348 0
M  V30 24 N -4.46655 -2.03365 -0.890169 0
M  V30 25 C -6.02634 -0.459248 0.0595151 0
M  V30 26 C -6.36063 0.854305 0.331791 0
M  V30 27 N -5.52166 1.82583 -0.0475901 0
M  V30 28 N -7.59106 1.08517 1.00459 0
M  V30 29 H -0.00807379 2.59811 -1.35408 0
M  V30 30 H 0.665153 0.209815 1.4699 0
M  V30 31 H 2.17855 -1.6291 1.37249 0
M  V30 32 H 2.8564 -0.937238 -2.77185 0
M  V30 33 H 1.22846 0.988964 -2.6669 0
M  V30 34 H 5.97164 -2.36142 -1.73208 0
M  V30 35 H 8.46498 0.339277 1.43267 0
M  V30 36 H 6.58987 0.622403 3.22474 0
M  V30 37 H -1.46823 4.04891 -0.174212 0
M  V30 38 H -2.56889 3.43917 1.08603 0
M  V30 39 H -4.44026 -2.36245 -1.86615 0
M  V30 40 H -4.21633 -2.68285 -0.0900217 0
M  V30 41 H -6.68496 -1.28227 0.352719 0
M  V30 42 H -8.50405 1.1609 0.507904 0
M  V30 43 H -7.55826 1.18056 2.0491 0
M  V30 END ATOM
M  V30 BEGIN BOND
M  V30 1 2 1 2
M  V30 2 1 2 3
M  V30 3 1 3 4
M  V30 4 2 4 5
M  V30 5 1 5 6
M  V30 6 2 6 7
M  V30 7 1 7 8
M  V30 8 2 8 9
M  V30 9 1 7 10
M  V30 10 2 10 11
M  V30 11 2 10 12
M  V30 12 1 10 13
M  V30 13 1 13 14
M  V30 14 2 14 15
M  V30 15 1 15 16
M  V30 16 2 16 17
M  V30 17 1 17 18
M  V30 18 1 2 19
M  V30 19 1 19 20
M  V30 20 1 20 21
M  V30 21 2 21 22
M  V30 22 1 22 23
M  V30 23 1 23 24
M  V30 24 2 23 25
M  V30 25 1 25 26
M  V30 26 2 26 27
M  V30 27 1 26 28
M  V30 28 1 9 4
M  V30 29 1 18 14
M  V30 30 1 27 21
M  V30 31 1 3 29
M  V30 32 1 5 30
M  V30 33 1 6 31
M  V30 34 1 8 32
M  V30 35 1 9 33
M  V30 36 1 13 34
M  V30 37 1 16 35
M  V30 38 1 17 36
M  V30 39 1 19 37
M  V30 40 1 19 38
M  V30 41 1 24 39
M  V30 42 1 24 40
M  V30 43 1 25 41
M  V30 44 1 28 42
M  V30 45 1 28 43
M  V30 END BOND
M  V30 END CTAB
M  END
