
     RDKit          3D

  0  0  0  0  0  0  0  0  0  0999 V3000
M  V30 BEGIN CTAB
M  V30 COUNTS 35 36 0 0 0
M  V30 BEGIN ATOM
M  V30 1 N 5.11429 0.12885 0.376639 0
M  V30 2 C 3.71198 0.09713 0.0984592 0
M  V30 3 C 2.89768 1.09063 0.570263 0
M  V30 4 C 1.54723 1.10531 0.330864 0
M  V30 5 C 0.941633 0.0863783 -0.418313 0
M  V30 6 C 1.79456 -0.892074 -0.87401 0
M  V30 7 C 3.15448 -0.906994 -0.632743 0
M  V30 8 C -0.520016 0.1191 -0.686725 0 CFG=1
M  V30 9 C -0.965627 -1.20328 -1.17955 0
M  V30 10 O -2.34174 -1.41214 -1.02836 0
M  V30 11 C -2.58298 -2.21436 0.0889969 0
M  V30 12 C -1.75115 -1.66263 1.23307 0
M  V30 13 C -1.92997 -0.20046 1.28841 0
M  V30 14 N -1.19603 0.634145 0.446386 0
M  V30 15 S -2.24396 1.97208 0.0129008 0
M  V30 16 O -3.19068 1.46168 -1.06342 0
M  V30 17 O -3.08638 2.34881 1.17896 0
M  V30 18 N -1.38284 3.28381 -0.647705 0
M  V30 19 H 5.47059 0.617829 1.20293 0
M  V30 20 H 5.75743 -0.360634 -0.287717 0
M  V30 21 H 3.37052 1.87873 1.15048 0
M  V30 22 H 0.941003 1.90194 0.720181 0
M  V30 23 H 1.38449 -1.70565 -1.47001 0
M  V30 24 H 3.75094 -1.69761 -1.01767 0
M  V30 25 H -0.654797 0.859293 -1.52867 0
M  V30 26 H -0.75399 -1.27555 -2.26503 0
M  V30 27 H -0.392035 -2.01923 -0.693459 0
M  V30 28 H -2.35477 -3.27191 -0.0910133 0
M  V30 29 H -3.65801 -2.08411 0.351346 0
M  V30 30 H -0.73376 -2.0354 1.28562 0
M  V30 31 H -2.25698 -2.08401 2.15942 0
M  V30 32 H -3.03976 0.00773475 1.20835 0
M  V30 33 H -1.7113 0.122509 2.35392 0
M  V30 34 H -1.13091 3.16799 -1.63365 0
M  V30 35 H -1.95913 4.14209 -0.539159 0
M  V30 END ATOM
M  V30 BEGIN BOND
M  V30 1 1 1 2
M  V30 2 2 2 3
M  V30 3 1 3 4
M  V30 4 2 4 5
M  V30 5 1 5 6
M  V30 6 2 6 7
M  V30 7 1 5 8
M  V30 8 1 8 9
M  V30 9 1 9 10
M  V30 10 1 10 11
M  V30 11 1 11 12
M  V30 12 1 12 13
M  V30 13 1 13 14
M  V30 14 1 14 15
M  V30 15 2 15 16
M  V30 16 2 15 17
M  V30 17 1 15 18
M  V30 18 1 7 2
M  V30 19 1 14 8
M  V30 20 1 1 19
M  V30 21 1 1 20
M  V30 22 1 3 21
M  V30 23 1 4 22
M  V30 24 1 6 23
M  V30 25 1 7 24
M  V30 26 1 8 25 CFG=3
M  V30 27 1 9 26
M  V30 28 1 9 27
M  V30 29 1 11 28
M  V30 30 1 11 29
M  V30 31 1 12 30
M  V30 32 1 12 31
M  V30 33 1 13 32
M  V30 34 1 13 33
M  V30 35 1 18 34
M  V30 36 1 18 35
M  V30 END BOND
M  V30 END CTAB
M  END
