
     RDKit          3D

  0  0  0  0  0  0  0  0  0  0999 V3000
M  V30 BEGIN CTAB
M  V30 COUNTS 52 54 0 0 0
M  V30 BEGIN ATOM
M  V30 1 C 6.20824 1.94078 1.22496 0
M  V30 2 C 4.91507 1.92751 0.421363 0
M  V30 3 C 5.23834 1.5251 -1.0077 0
M  V30 4 C 4.00465 1.49223 -1.86866 0
M  V30 5 O 3.03056 0.592577 -1.42963 0
M  V30 6 C 3.18851 -0.764011 -1.32191 0
M  V30 7 O 4.27008 -1.29501 -1.62718 0
M  V30 8 C 2.10254 -1.6349 -0.85073 0
M  V30 9 S 2.04062 -3.30253 -0.658524 0
M  V30 10 C 0.428323 -3.45422 -0.0965899 0
M  V30 11 C -0.0296284 -2.16505 -0.0731065 0
M  V30 12 C 0.849279 -1.19861 -0.470835 0
M  V30 13 N 0.500285 0.222587 -0.510958 0
M  V30 14 C -1.37088 -2.06609 0.365097 0
M  V30 15 C -2.01706 -0.762399 0.477675 0
M  V30 16 C -1.8357 0.019305 1.5994 0
M  V30 17 C -2.46232 1.23667 1.71368 0
M  V30 18 C -3.27816 1.69133 0.713152 0
M  V30 19 C -3.48154 0.911914 -0.443659 0
M  V30 20 C -2.83257 -0.295198 -0.507622 0
M  V30 21 O -4.31312 1.40579 -1.43079 0
M  V30 22 C -4.54928 0.661344 -2.59484 0
M  V30 23 O -3.93981 2.90537 0.760454 0
M  V30 24 C -3.82309 3.77508 1.84852 0
M  V30 25 C -2.1068 -3.18326 0.721046 0
M  V30 26 C -1.57453 -4.44315 0.668908 0
M  V30 27 N -0.301482 -4.55984 0.257007 0
M  V30 28 N -2.33042 -5.577 1.03095 0
M  V30 29 C -3.47246 -2.99401 1.15018 0
M  V30 30 N -4.57228 -2.85717 1.47926 0
M  V30 31 H 6.14658 2.72279 1.98441 0
M  V30 32 H 7.02409 2.20908 0.512251 0
M  V30 33 H 6.43352 0.958201 1.64633 0
M  V30 34 H 4.19805 1.22629 0.86627 0
M  V30 35 H 4.47736 2.9412 0.408739 0
M  V30 36 H 5.94735 2.27623 -1.44454 0
M  V30 37 H 5.72667 0.553647 -1.02752 0
M  V30 38 H 4.35043 1.19869 -2.90474 0
M  V30 39 H 3.52026 2.51374 -1.92503 0
M  V30 40 H -0.0152941 0.530205 -1.3429 0
M  V30 41 H 0.757945 0.888952 0.225841 0
M  V30 42 H -1.19833 -0.284434 2.43817 0
M  V30 43 H -2.34083 1.88299 2.58533 0
M  V30 44 H -3.03423 -0.866093 -1.44157 0
M  V30 45 H -3.67518 0.142797 -3.01565 0
M  V30 46 H -4.87742 1.36001 -3.42948 0
M  V30 47 H -5.37428 -0.0782653 -2.4691 0
M  V30 48 H -4.1793 3.36664 2.81479 0
M  V30 49 H -4.35627 4.71898 1.67091 0
M  V30 50 H -2.72339 3.98528 1.9835 0
M  V30 51 H -1.92707 -6.45894 1.41089 0
M  V30 52 H -3.366 -5.54313 0.914193 0
M  V30 END ATOM
M  V30 BEGIN BOND
M  V30 1 1 1 2
M  V30 2 1 2 3
M  V30 3 1 3 4
M  V30 4 1 4 5
M  V30 5 1 5 6
M  V30 6 2 6 7
M  V30 7 1 6 8
M  V30 8 1 8 9
M  V30 9 1 9 10
M  V30 10 2 10 11
M  V30 11 1 11 12
M  V30 12 1 12 13
M  V30 13 1 11 14
M  V30 14 1 14 15
M  V30 15 2 15 16
M  V30 16 1 16 17
M  V30 17 2 17 18
M  V30 18 1 18 19
M  V30 19 2 19 20
M  V30 20 1 19 21
M  V30 21 1 21 22
M  V30 22 1 18 23
M  V30 23 1 23 24
M  V30 24 2 14 25
M  V30 25 1 25 26
M  V30 26 2 26 27
M  V30 27 1 26 28
M  V30 28 1 25 29
M  V30 29 3 29 30
M  V30 30 2 12 8
M  V30 31 1 20 15
M  V30 32 1 27 10
M  V30 33 1 1 31
M  V30 34 1 1 32
M  V30 35 1 1 33
M  V30 36 1 2 34
M  V30 37 1 2 35
M  V30 38 1 3 36
M  V30 39 1 3 37
M  V30 40 1 4 38
M  V30 41 1 4 39
M  V30 42 1 13 40
M  V30 43 1 13 41
M  V30 44 1 16 42
M  V30 45 1 17 43
M  V30 46 1 20 44
M  V30 47 1 22 45
M  V30 48 1 22 46
M  V30 49 1 22 47
M  V30 50 1 24 48
M  V30 51 1 24 49
M  V30 52 1 24 50
M  V30 53 1 28 51
M  V30 54 1 28 52
M  V30 END BOND
M  V30 END CTAB
M  END
