
     RDKit          3D

  0  0  0  0  0  0  0  0  0  0999 V3000
M  V30 BEGIN CTAB
M  V30 COUNTS 38 39 0 0 0
M  V30 BEGIN ATOM
M  V30 1 O 0.215081 -0.352836 0.715498 0
M  V30 2 C -0.295033 0.711081 0.302122 0
M  V30 3 N -1.67377 0.762097 0.029976 0
M  V30 4 C -2.45903 -0.441609 0.210878 0
M  V30 5 C -3.43256 -0.272765 1.28743 0
M  V30 6 C -4.83858 -0.42375 0.874161 0
M  V30 7 S -4.7862 -0.862314 -0.832051 0
M  V30 8 O -5.41095 0.268327 -1.61391 0
M  V30 9 O -5.48951 -2.16157 -1.10092 0
M  V30 10 C -3.04679 -0.962409 -1.05072 0
M  V30 11 C -2.24295 2.01378 -0.408823 0
M  V30 12 C 0.555689 1.89654 0.106311 0
M  V30 13 S 1.82298 1.7139 -1.15079 0
M  V30 14 C 3.12268 0.588096 -0.676152 0
M  V30 15 N 3.1228 -0.00687314 0.524627 0
M  V30 16 C 4.07303 -0.864945 0.933326 0
M  V30 17 N 3.98588 -1.43675 2.22142 0
M  V30 18 C 5.10082 -1.1411 0.0589302 0
M  V30 19 C 5.12301 -0.540493 -1.18392 0
M  V30 20 N 4.14552 0.292773 -1.50419 0
M  V30 21 N 6.19837 -0.848305 -2.06101 0
M  V30 22 H -1.73075 -1.24008 0.549735 0
M  V30 23 H -3.19709 -0.916739 2.19363 0
M  V30 24 H -3.33829 0.770161 1.72509 0
M  V30 25 H -5.27615 -1.31177 1.41984 0
M  V30 26 H -5.50539 0.414435 1.11151 0
M  V30 27 H -2.77955 -2.01421 -1.27865 0
M  V30 28 H -2.77507 -0.37767 -1.95169 0
M  V30 29 H -2.04027 2.76219 0.388811 0
M  V30 30 H -1.77268 2.38247 -1.34135 0
M  V30 31 H -3.35061 1.97159 -0.482643 0
M  V30 32 H -0.0637957 2.81133 -0.0793923 0
M  V30 33 H 1.10064 2.13159 1.07486 0
M  V30 34 H 4.47062 -1.05973 3.06054 0
M  V30 35 H 3.3991 -2.29129 2.3428 0
M  V30 36 H 5.87349 -1.82319 0.359466 0
M  V30 37 H 6.02623 -1.15236 -3.03922 0
M  V30 38 H 7.16908 -0.775387 -1.73553 0
M  V30 END ATOM
M  V30 BEGIN BOND
M  V30 1 2 1 2
M  V30 2 1 2 3
M  V30 3 1 3 4
M  V30 4 1 4 5
M  V30 5 1 5 6
M  V30 6 1 6 7
M  V30 7 2 7 8
M  V30 8 2 7 9
M  V30 9 1 7 10
M  V30 10 1 3 11
M  V30 11 1 2 12
M  V30 12 1 12 13
M  V30 13 1 13 14
M  V30 14 2 14 15
M  V30 15 1 15 16
M  V30 16 1 16 17
M  V30 17 2 16 18
M  V30 18 1 18 19
M  V30 19 2 19 20
M  V30 20 1 19 21
M  V30 21 1 10 4
M  V30 22 1 20 14
M  V30 23 1 4 22
M  V30 24 1 5 23
M  V30 25 1 5 24
M  V30 26 1 6 25
M  V30 27 1 6 26
M  V30 28 1 10 27
M  V30 29 1 10 28
M  V30 30 1 11 29
M  V30 31 1 11 30
M  V30 32 1 11 31
M  V30 33 1 12 32
M  V30 34 1 12 33
M  V30 35 1 17 34
M  V30 36 1 17 35
M  V30 37 1 18 36
M  V30 38 1 21 37
M  V30 39 1 21 38
M  V30 END BOND
M  V30 END CTAB
M  END
