
     RDKit          3D

  0  0  0  0  0  0  0  0  0  0999 V3000
M  V30 BEGIN CTAB
M  V30 COUNTS 67 71 0 0 0
M  V30 BEGIN ATOM
M  V30 1 N 3.03571 2.81978 -0.415608 0
M  V30 2 C 2.81154 1.68023 -0.165891 0
M  V30 3 C 2.58802 0.289109 0.124162 0
M  V30 4 C 3.67905 -0.559613 0.28584 0
M  V30 5 N 3.48649 -1.8677 0.533416 0
M  V30 6 C 2.23871 -2.37479 0.629215 0
M  V30 7 C 1.12412 -1.58153 0.479196 0
M  V30 8 C 1.31768 -0.219122 0.220558 0
M  V30 9 C 0.20212 0.595962 0.0646359 0
M  V30 10 C -0.00527804 2.01693 -0.209776 0
M  V30 11 C -1.50333 2.15467 -0.234099 0
M  V30 12 O -2.10949 3.23876 -0.438098 0
M  V30 13 N -2.10155 0.905403 0.0028067 0
M  V30 14 C -1.034 -0.0245939 0.181701 0
M  V30 15 N -1.18224 -1.34613 0.433242 0
M  V30 16 C -0.13142 -2.14953 0.586792 0
M  V30 17 N -0.33394 -3.54448 0.857089 0
M  V30 18 C -3.52252 0.672132 0.0389517 0
M  V30 19 C -4.20291 0.257743 -1.08607 0
M  V30 20 C -5.56219 0.06375 -1.02152 0
M  V30 21 C -6.26166 0.272031 0.136853 0
M  V30 22 C -5.60071 0.682511 1.26275 0
M  V30 23 C -4.24176 0.876222 1.19674 0
M  V30 24 C -7.74593 0.0680702 0.176984 0
M  V30 25 C -8.3785 1.03374 1.15065 0
M  V30 26 C -8.32189 0.4164 -1.19223 0
M  V30 27 C -8.11752 -1.33183 0.526087 0
M  V30 28 N 2.03324 -3.76367 0.887583 0
M  V30 29 N 4.98147 -0.00500728 0.202633 0
M  V30 30 C 5.61971 0.831733 1.16359 0
M  V30 31 C 7.12068 0.617629 1.23849 0
M  V30 32 C 7.88635 1.87466 0.79459 0
M  V30 33 O 7.55919 -0.49955 0.591169 0
M  V30 34 C 7.18573 -0.633598 -0.717078 0
M  V30 35 C 5.75614 -0.327543 -1.00845 0
M  V30 36 C 8.07314 0.119876 -1.69624 0
M  V30 37 H 0.281347 2.70742 0.60151 0
M  V30 38 H 0.274252 2.33515 -1.23338 0
M  V30 39 H -0.389355 -3.93504 1.81887 0
M  V30 40 H -0.432301 -4.19006 0.0472014 0
M  V30 41 H -3.64414 0.093801 -1.9981 0
M  V30 42 H -6.11935 -0.269227 -1.91276 0
M  V30 43 H -6.1166 0.861801 2.20643 0
M  V30 44 H -3.66657 1.20571 2.07079 0
M  V30 45 H -9.42503 1.17063 0.836585 0
M  V30 46 H -7.83951 2.00333 1.0736 0
M  V30 47 H -8.37418 0.679774 2.18548 0
M  V30 48 H -9.37609 0.685874 -1.04567 0
M  V30 49 H -7.71672 1.29407 -1.56831 0
M  V30 50 H -8.21792 -0.460211 -1.85853 0
M  V30 51 H -8.37141 -1.91274 -0.404163 0
M  V30 52 H -9.07218 -1.29609 1.09712 0
M  V30 53 H -7.29939 -1.83843 1.06369 0
M  V30 54 H 1.93612 -4.48652 0.148648 0
M  V30 55 H 1.9862 -4.04765 1.88843 0
M  V30 56 H 5.49607 1.89044 0.886048 0
M  V30 57 H 5.126 0.633916 2.16081 0
M  V30 58 H 7.36917 0.508656 2.31791 0
M  V30 59 H 8.05708 2.56229 1.65331 0
M  V30 60 H 8.86868 1.6382 0.366069 0
M  V30 61 H 7.2385 2.47449 0.0885343 0
M  V30 62 H 7.35048 -1.72615 -0.969581 0
M  V30 63 H 5.66621 0.559174 -1.69515 0
M  V30 64 H 5.25346 -1.16052 -1.56422 0
M  V30 65 H 7.76844 1.1592 -1.84289 0
M  V30 66 H 7.91103 -0.380997 -2.69667 0
M  V30 67 H 9.13547 -0.0189197 -1.4705 0
M  V30 END ATOM
M  V30 BEGIN BOND
M  V30 1 3 1 2
M  V30 2 1 2 3
M  V30 3 2 3 4
M  V30 4 1 4 5
M  V30 5 2 5 6
M  V30 6 1 6 7
M  V30 7 2 7 8
M  V30 8 1 8 9
M  V30 9 1 9 10
M  V30 10 1 10 11
M  V30 11 2 11 12
M  V30 12 1 11 13
M  V30 13 1 13 14
M  V30 14 1 14 15
M  V30 15 2 15 16
M  V30 16 1 16 17
M  V30 17 1 13 18
M  V30 18 2 18 19
M  V30 19 1 19 20
M  V30 20 2 20 21
M  V30 21 1 21 22
M  V30 22 2 22 23
M  V30 23 1 21 24
M  V30 24 1 24 25
M  V30 25 1 24 26
M  V30 26 1 24 27
M  V30 27 1 6 28
M  V30 28 1 4 29
M  V30 29 1 29 30
M  V30 30 1 30 31
M  V30 31 1 31 32
M  V30 32 1 31 33
M  V30 33 1 33 34
M  V30 34 1 34 35
M  V30 35 1 34 36
M  V30 36 1 8 3
M  V30 37 2 14 9
M  V30 38 1 23 18
M  V30 39 1 35 29
M  V30 40 1 16 7
M  V30 41 1 10 37
M  V30 42 1 10 38
M  V30 43 1 17 39
M  V30 44 1 17 40
M  V30 45 1 19 41
M  V30 46 1 20 42
M  V30 47 1 22 43
M  V30 48 1 23 44
M  V30 49 1 25 45
M  V30 50 1 25 46
M  V30 51 1 25 47
M  V30 52 1 26 48
M  V30 53 1 26 49
M  V30 54 1 26 50
M  V30 55 1 27 51
M  V30 56 1 27 52
M  V30 57 1 27 53
M  V30 58 1 28 54
M  V30 59 1 28 55
M  V30 60 1 30 56
M  V30 61 1 30 57
M  V30 62 1 31 58
M  V30 63 1 32 59
M  V30 64 1 32 60
M  V30 65 1 32 61
M  V30 66 1 34 62
M  V30 67 1 35 63
M  V30 68 1 35 64
M  V30 69 1 36 65
M  V30 70 1 36 66
M  V30 71 1 36 67
M  V30 END BOND
M  V30 END CTAB
M  END
