
     RDKit          3D

  0  0  0  0  0  0  0  0  0  0999 V3000
M  V30 BEGIN CTAB
M  V30 COUNTS 28 29 0 0 0
M  V30 BEGIN ATOM
M  V30 1 N -3.38985 2.12969 1.30884 0
M  V30 2 C -3.14298 1.65803 -0.0209206 0
M  V30 3 C -2.32174 0.425634 -0.0678858 0
M  V30 4 C -2.90224 -0.812496 -0.0389253 0
M  V30 5 C -2.09629 -1.92392 -0.0848311 0
M  V30 6 C -0.705093 -1.79297 -0.159947 0
M  V30 7 C -0.112278 -0.551438 -0.189574 0
M  V30 8 C -0.945093 0.541675 -0.142247 0
M  V30 9 C 1.33658 -0.436316 -0.267897 0
M  V30 10 O 2.24616 -1.36142 -0.319099 0
M  V30 11 C 3.44345 -0.860436 -0.382983 0
M  V30 12 C 3.30549 0.492251 -0.372741 0
M  V30 13 N 1.9911 0.752826 -0.300952 0
M  V30 14 C 4.33536 1.56117 -0.426378 0
M  V30 15 N 0.102256 -2.94971 -0.205993 0
M  V30 16 H -2.60704 2.66904 1.7156 0
M  V30 17 H -3.77032 1.42794 1.95186 0
M  V30 18 H -4.12089 1.40094 -0.500897 0
M  V30 19 H -2.63213 2.47684 -0.581784 0
M  V30 20 H -3.99378 -0.904788 0.0200137 0
M  V30 21 H -2.51666 -2.93819 -0.0640884 0
M  V30 22 H -0.48645 1.51921 -0.165138 0
M  V30 23 H 4.41466 -1.36578 -0.436671 0
M  V30 24 H 3.90446 2.51463 -0.793214 0
M  V30 25 H 4.72905 1.74717 0.590343 0
M  V30 26 H 5.15593 1.30107 -1.12554 0
M  V30 27 H 0.335095 -3.43159 0.673082 0
M  V30 28 H 0.443267 -3.28904 -1.1237 0
M  V30 END ATOM
M  V30 BEGIN BOND
M  V30 1 1 1 2
M  V30 2 1 2 3
M  V30 3 2 3 4
M  V30 4 1 4 5
M  V30 5 2 5 6
M  V30 6 1 6 7
M  V30 7 2 7 8
M  V30 8 1 7 9
M  V30 9 1 9 10
M  V30 10 1 10 11
M  V30 11 2 11 12
M  V30 12 1 12 13
M  V30 13 1 12 14
M  V30 14 1 6 15
M  V30 15 1 8 3
M  V30 16 2 13 9
M  V30 17 1 1 16
M  V30 18 1 1 17
M  V30 19 1 2 18
M  V30 20 1 2 19
M  V30 21 1 4 20
M  V30 22 1 5 21
M  V30 23 1 8 22
M  V30 24 1 11 23
M  V30 25 1 14 24
M  V30 26 1 14 25
M  V30 27 1 14 26
M  V30 28 1 15 27
M  V30 29 1 15 28
M  V30 END BOND
M  V30 END CTAB
M  END
