
     RDKit          3D

  0  0  0  0  0  0  0  0  0  0999 V3000
M  V30 BEGIN CTAB
M  V30 COUNTS 52 54 0 0 0
M  V30 BEGIN ATOM
M  V30 1 C -6.69468 -1.49565 1.17306 0
M  V30 2 C -5.71313 -1.6556 0.0525901 0
M  V30 3 O -4.63302 -0.793183 0.145901 0
M  V30 4 C -4.60058 0.569779 0.146513 0
M  V30 5 C -5.76083 1.29896 0.0377643 0
M  V30 6 C -5.76113 2.68787 0.0347924 0
M  V30 7 C -4.54191 3.31472 0.145877 0
M  V30 8 C -3.37669 2.58904 0.254919 0
M  V30 9 C -3.3617 1.21436 0.259277 0
M  V30 10 C -2.10397 0.414756 0.376825 0
M  V30 11 C -1.78621 -0.123906 -0.998488 0
M  V30 12 C -0.543531 -0.949096 -1.02743 0
M  V30 13 N 0.635266 -0.23906 -0.619883 0
M  V30 14 C 1.8809 -0.923999 -0.605924 0
M  V30 15 C 3.05839 -0.31266 -0.229554 0
M  V30 16 C 4.23135 -1.00385 -0.22886 0
M  V30 17 N 4.25832 -2.30648 -0.599179 0
M  V30 18 C 3.11861 -2.90519 -0.965496 0
M  V30 19 N 1.96546 -2.21954 -0.964438 0
M  V30 20 N 3.1618 -4.26884 -1.34998 0
M  V30 21 C 5.5007 -0.385047 0.165935 0
M  V30 22 C 5.82637 0.941778 -0.528863 0
M  V30 23 C 6.42179 1.38632 0.777298 0
M  V30 24 C 5.44528 0.434938 1.45987 0
M  V30 25 N 6.21823 2.78609 1.09464 0
M  V30 26 H -7.68757 -1.21943 0.710817 0
M  V30 27 H -6.39951 -0.662753 1.84567 0
M  V30 28 H -6.79528 -2.44888 1.71244 0
M  V30 29 H -6.21554 -1.63126 -0.944057 0
M  V30 30 H -5.29432 -2.70362 0.110412 0
M  V30 31 H -6.72928 0.839375 -0.0544786 0
M  V30 32 H -6.66881 3.27737 -0.050272 0
M  V30 33 H -4.45671 4.39379 0.151404 0
M  V30 34 H -2.41627 3.11403 0.342297 0
M  V30 35 H -1.31688 1.10841 0.747135 0
M  V30 36 H -2.20908 -0.380969 1.13214 0
M  V30 37 H -1.75863 0.72066 -1.70584 0
M  V30 38 H -2.63296 -0.772196 -1.2998 0
M  V30 39 H -0.708401 -1.89907 -0.482149 0
M  V30 40 H -0.383255 -1.25246 -2.09904 0
M  V30 41 H 0.632876 0.766726 -0.328192 0
M  V30 42 H 3.01409 0.741139 0.0661488 0
M  V30 43 H 3.33999 -4.57889 -2.32168 0
M  V30 44 H 3.00912 -5.01163 -0.634031 0
M  V30 45 H 6.39035 -1.02922 0.132317 0
M  V30 46 H 6.62667 0.847188 -1.30342 0
M  V30 47 H 4.92845 1.47021 -0.858208 0
M  V30 48 H 7.44313 1.04831 0.944106 0
M  V30 49 H 4.42589 0.824884 1.58062 0
M  V30 50 H 5.86118 -0.0750323 2.32756 0
M  V30 51 H 6.70673 3.03972 1.97675 0
M  V30 52 H 6.44895 3.41711 0.294185 0
M  V30 END ATOM
M  V30 BEGIN BOND
M  V30 1 1 1 2
M  V30 2 1 2 3
M  V30 3 1 3 4
M  V30 4 2 4 5
M  V30 5 1 5 6
M  V30 6 2 6 7
M  V30 7 1 7 8
M  V30 8 2 8 9
M  V30 9 1 9 10
M  V30 10 1 10 11
M  V30 11 1 11 12
M  V30 12 1 12 13
M  V30 13 1 13 14
M  V30 14 2 14 15
M  V30 15 1 15 16
M  V30 16 2 16 17
M  V30 17 1 17 18
M  V30 18 2 18 19
M  V30 19 1 18 20
M  V30 20 1 16 21
M  V30 21 1 21 22
M  V30 22 1 22 23
M  V30 23 1 23 24
M  V30 24 1 23 25
M  V30 25 1 9 4
M  V30 26 1 19 14
M  V30 27 1 24 21
M  V30 28 1 1 26
M  V30 29 1 1 27
M  V30 30 1 1 28
M  V30 31 1 2 29
M  V30 32 1 2 30
M  V30 33 1 5 31
M  V30 34 1 6 32
M  V30 35 1 7 33
M  V30 36 1 8 34
M  V30 37 1 10 35
M  V30 38 1 10 36
M  V30 39 1 11 37
M  V30 40 1 11 38
M  V30 41 1 12 39
M  V30 42 1 12 40
M  V30 43 1 13 41
M  V30 44 1 15 42
M  V30 45 1 20 43
M  V30 46 1 20 44
M  V30 47 1 21 45
M  V30 48 1 22 46
M  V30 49 1 22 47
M  V30 50 1 23 48
M  V30 51 1 24 49
M  V30 52 1 24 50
M  V30 53 1 25 51
M  V30 54 1 25 52
M  V30 END BOND
M  V30 END CTAB
M  END
