
     RDKit          3D

  0  0  0  0  0  0  0  0  0  0999 V3000
M  V30 BEGIN CTAB
M  V30 COUNTS 29 30 0 0 0
M  V30 BEGIN ATOM
M  V30 1 Cl 6.10608 -1.78055 -0.623267 0
M  V30 2 C 4.66902 -0.942562 -0.0764555 0
M  V30 3 C 3.43477 -1.55745 -0.124944 0
M  V30 4 C 2.33119 -0.822801 0.329551 0
M  V30 5 C 2.43472 0.460921 0.811093 0
M  V30 6 C 3.71868 1.02011 0.830521 0
M  V30 7 N 4.77268 0.315784 0.395434 0
M  V30 8 C 1.28936 1.25987 1.29062 0
M  V30 9 S 0.509274 2.28556 0.0637153 0
M  V30 10 C -0.356853 1.43041 -1.23409 0
M  V30 11 C -1.56624 0.710223 -0.83139 0
M  V30 12 N -2.79765 1.26251 -0.807852 0
M  V30 13 C -3.89267 0.57411 -0.436348 0
M  V30 14 N -5.18917 1.13513 -0.405603 0
M  V30 15 N -3.71627 -0.721782 -0.0780221 0
M  V30 16 C -2.52335 -1.31334 -0.0841092 0
M  V30 17 N -1.46668 -0.574632 -0.464715 0
M  V30 18 N -2.31212 -2.65938 0.283198 0
M  V30 19 H 3.31271 -2.57366 -0.500023 0
M  V30 20 H 1.36388 -1.27012 0.308455 0
M  V30 21 H 3.79663 2.03714 1.21283 0
M  V30 22 H 1.68088 1.92823 2.09489 0
M  V30 23 H 0.570776 0.566419 1.78837 0
M  V30 24 H 0.296633 0.680949 -1.77372 0
M  V30 25 H -0.651806 2.16982 -2.00767 0
M  V30 26 H -5.49966 1.78555 -1.14781 0
M  V30 27 H -5.84364 0.901015 0.361167 0
M  V30 28 H -2.39715 -3.40196 -0.427819 0
M  V30 29 H -2.07405 -2.90552 1.254 0
M  V30 END ATOM
M  V30 BEGIN BOND
M  V30 1 1 1 2
M  V30 2 2 2 3
M  V30 3 1 3 4
M  V30 4 2 4 5
M  V30 5 1 5 6
M  V30 6 2 6 7
M  V30 7 1 5 8
M  V30 8 1 8 9
M  V30 9 1 9 10
M  V30 10 1 10 11
M  V30 11 2 11 12
M  V30 12 1 12 13
M  V30 13 1 13 14
M  V30 14 2 13 15
M  V30 15 1 15 16
M  V30 16 2 16 17
M  V30 17 1 16 18
M  V30 18 1 7 2
M  V30 19 1 17 11
M  V30 20 1 3 19
M  V30 21 1 4 20
M  V30 22 1 6 21
M  V30 23 1 8 22
M  V30 24 1 8 23
M  V30 25 1 10 24
M  V30 26 1 10 25
M  V30 27 1 14 26
M  V30 28 1 14 27
M  V30 29 1 18 28
M  V30 30 1 18 29
M  V30 END BOND
M  V30 END CTAB
M  END
