
     RDKit          3D

  0  0  0  0  0  0  0  0  0  0999 V3000
M  V30 BEGIN CTAB
M  V30 COUNTS 68 70 0 0 0
M  V30 BEGIN ATOM
M  V30 1 N 8.71479 -0.902944 -0.883724 0
M  V30 2 C 7.45116 -0.528279 -0.378762 0
M  V30 3 C 7.27194 0.694412 0.230397 0
M  V30 4 C 6.03019 1.06489 0.726591 0
M  V30 5 C 4.9364 0.236661 0.632638 0
M  V30 6 C 5.08293 -0.995624 0.030287 0
M  V30 7 C 6.33376 -1.33347 -0.454562 0
M  V30 8 O 4.00613 -1.88166 -0.0880342 0
M  V30 9 C 3.26694 -2.43109 0.989322 0
M  V30 10 C 1.94914 -2.97523 0.454579 0
M  V30 11 O 0.945346 -2.93711 1.39819 0
M  V30 12 C -0.0621863 -3.84398 1.16935 0
M  V30 13 C -1.18099 -3.33115 0.317358 0
M  V30 14 O -1.40634 -1.96414 0.450097 0
M  V30 15 C -2.75882 -1.75177 0.188758 0
M  V30 16 C -2.93225 -1.32467 -1.23928 0
M  V30 17 O -4.12842 -0.683176 -1.54341 0
M  V30 18 C -5.02139 -0.0162401 -0.752761 0
M  V30 19 C -4.67522 1.16158 -0.0787163 0
M  V30 20 O -3.39617 1.69613 -0.205553 0
M  V30 21 C -2.80507 2.15639 -1.41048 0
M  V30 22 C -1.299 2.2102 -1.20257 0
M  V30 23 O -1.00856 2.41267 0.14251 0
M  V30 24 C -0.587755 3.72463 0.372669 0
M  V30 25 C 0.796688 3.86056 -0.22517 0
M  V30 26 O 1.29383 2.62974 -0.652644 0
M  V30 27 C 2.36553 2.30729 0.145321 0
M  V30 28 C 2.52395 0.816206 0.344436 0
M  V30 29 O 3.71634 0.656486 1.13984 0
M  V30 30 C -5.63966 1.76141 0.700781 0
M  V30 31 C -6.92858 1.28823 0.866169 0
M  V30 32 C -7.26246 0.141326 0.20525 0
M  V30 33 C -6.31778 -0.481926 -0.581053 0
M  V30 34 N -8.59462 -0.407879 0.333441 0
M  V30 35 H 8.79395 -1.34891 -1.81169 0
M  V30 36 H 9.57207 -0.736084 -0.333421 0
M  V30 37 H 8.12963 1.36599 0.314062 0
M  V30 38 H 6.03222 2.05705 1.19161 0
M  V30 39 H 6.53168 -2.29896 -0.961079 0
M  V30 40 H 3.80612 -3.35815 1.37315 0
M  V30 41 H 3.16963 -1.79424 1.86308 0
M  V30 42 H 1.63432 -2.33142 -0.401278 0
M  V30 43 H 2.08246 -4.01521 0.0957894 0
M  V30 44 H 0.353052 -4.75031 0.648934 0
M  V30 45 H -0.427813 -4.22456 2.16416 0
M  V30 46 H -2.11553 -3.84722 0.670743 0
M  V30 47 H -1.04142 -3.54015 -0.758902 0
M  V30 48 H -3.36032 -2.67212 0.348417 0
M  V30 49 H -3.10705 -0.957488 0.853681 0
M  V30 50 H -2.01402 -0.838401 -1.6513 0
M  V30 51 H -2.96899 -2.30172 -1.83038 0
M  V30 52 H -3.10066 3.2314 -1.61751 0
M  V30 53 H -3.08852 1.5885 -2.28834 0
M  V30 54 H -0.869824 3.04749 -1.82919 0
M  V30 55 H -0.864205 1.24145 -1.5096 0
M  V30 56 H -1.32779 4.39748 -0.128359 0
M  V30 57 H -0.590725 3.89155 1.46402 0
M  V30 58 H 0.70764 4.55374 -1.10638 0
M  V30 59 H 1.48999 4.37619 0.470455 0
M  V30 60 H 2.20486 2.78244 1.14097 0
M  V30 61 H 3.33255 2.70359 -0.226972 0
M  V30 62 H 2.59436 0.327973 -0.630089 0
M  V30 63 H 1.64518 0.47267 0.932537 0
M  V30 64 H -5.41732 2.69558 1.27194 0
M  V30 65 H -7.64793 1.8061 1.49567 0
M  V30 66 H -6.69695 -1.39466 -1.07758 0
M  V30 67 H -8.79344 -1.2101 0.95668 0
M  V30 68 H -9.32696 0.0520459 -0.235072 0
M  V30 END ATOM
M  V30 BEGIN BOND
M  V30 1 1 1 2
M  V30 2 2 2 3
M  V30 3 1 3 4
M  V30 4 2 4 5
M  V30 5 1 5 6
M  V30 6 2 6 7
M  V30 7 1 6 8
M  V30 8 1 8 9
M  V30 9 1 9 10
M  V30 10 1 10 11
M  V30 11 1 11 12
M  V30 12 1 12 13
M  V30 13 1 13 14
M  V30 14 1 14 15
M  V30 15 1 15 16
M  V30 16 1 16 17
M  V30 17 1 17 18
M  V30 18 2 18 19
M  V30 19 1 19 20
M  V30 20 1 20 21
M  V30 21 1 21 22
M  V30 22 1 22 23
M  V30 23 1 23 24
M  V30 24 1 24 25
M  V30 25 1 25 26
M  V30 26 1 26 27
M  V30 27 1 27 28
M  V30 28 1 28 29
M  V30 29 1 19 30
M  V30 30 2 30 31
M  V30 31 1 31 32
M  V30 32 2 32 33
M  V30 33 1 32 34
M  V30 34 1 7 2
M  V30 35 1 33 18
M  V30 36 1 29 5
M  V30 37 1 1 35
M  V30 38 1 1 36
M  V30 39 1 3 37
M  V30 40 1 4 38
M  V30 41 1 7 39
M  V30 42 1 9 40
M  V30 43 1 9 41
M  V30 44 1 10 42
M  V30 45 1 10 43
M  V30 46 1 12 44
M  V30 47 1 12 45
M  V30 48 1 13 46
M  V30 49 1 13 47
M  V30 50 1 15 48
M  V30 51 1 15 49
M  V30 52 1 16 50
M  V30 53 1 16 51
M  V30 54 1 21 52
M  V30 55 1 21 53
M  V30 56 1 22 54
M  V30 57 1 22 55
M  V30 58 1 24 56
M  V30 59 1 24 57
M  V30 60 1 25 58
M  V30 61 1 25 59
M  V30 62 1 27 60
M  V30 63 1 27 61
M  V30 64 1 28 62
M  V30 65 1 28 63
M  V30 66 1 30 64
M  V30 67 1 31 65
M  V30 68 1 33 66
M  V30 69 1 34 67
M  V30 70 1 34 68
M  V30 END BOND
M  V30 END CTAB
M  END
