
     RDKit          3D

  0  0  0  0  0  0  0  0  0  0999 V3000
M  V30 BEGIN CTAB
M  V30 COUNTS 32 33 0 0 0
M  V30 BEGIN ATOM
M  V30 1 N 4.9303 -0.366167 0.504552 0
M  V30 2 C 3.51645 -0.33562 0.341952 0
M  V30 3 C 2.65619 -0.614921 1.38654 0
M  V30 4 C 1.2876 -0.58148 1.21485 0
M  V30 5 C 0.691577 -0.271394 0.0064358 0
M  V30 6 C -0.77351 -0.238536 -0.146548 0
M  V30 7 C -1.49042 -0.739706 1.08914 0
M  V30 8 C -2.96548 -0.76035 0.857767 0
M  V30 9 C -3.50029 0.161516 -0.147382 0
M  V30 10 C -2.62321 1.22215 -0.68079 0
M  V30 11 C -1.21009 1.23553 -0.194351 0
M  V30 12 C 1.54711 0.00767724 -1.03785 0
M  V30 13 N 1.01429 0.326084 -2.30188 0
M  V30 14 C 2.92756 -0.0252097 -0.867832 0
M  V30 15 H 5.30877 0.0104959 1.39487 0
M  V30 16 H 5.59801 -0.734987 -0.198309 0
M  V30 17 H 3.09879 -0.860572 2.34215 0
M  V30 18 H 0.604497 -0.805945 2.05083 0
M  V30 19 H -1.162 -0.715901 -1.0475 0
M  V30 20 H -1.13226 -1.71959 1.44338 0
M  V30 21 H -1.25808 -0.0108626 1.89499 0
M  V30 22 H -3.23974 -1.81324 0.58531 0
M  V30 23 H -3.44825 -0.614206 1.87013 0
M  V30 24 H -3.93075 -0.406645 -1.02607 0
M  V30 25 H -4.41522 0.665547 0.289893 0
M  V30 26 H -2.56093 1.19639 -1.81102 0
M  V30 27 H -3.0282 2.26067 -0.482928 0
M  V30 28 H -1.10001 1.66779 0.82141 0
M  V30 29 H -0.574791 1.7727 -0.905044 0
M  V30 30 H 0.242726 -0.236936 -2.71592 0
M  V30 31 H 1.38402 1.13162 -2.84385 0
M  V30 32 H 3.60533 0.194092 -1.68693 0
M  V30 END ATOM
M  V30 BEGIN BOND
M  V30 1 1 1 2
M  V30 2 2 2 3
M  V30 3 1 3 4
M  V30 4 2 4 5
M  V30 5 1 5 6
M  V30 6 1 6 7
M  V30 7 1 7 8
M  V30 8 1 8 9
M  V30 9 1 9 10
M  V30 10 1 10 11
M  V30 11 1 5 12
M  V30 12 1 12 13
M  V30 13 2 12 14
M  V30 14 1 14 2
M  V30 15 1 11 6
M  V30 16 1 1 15
M  V30 17 1 1 16
M  V30 18 1 3 17
M  V30 19 1 4 18
M  V30 20 1 6 19
M  V30 21 1 7 20
M  V30 22 1 7 21
M  V30 23 1 8 22
M  V30 24 1 8 23
M  V30 25 1 9 24
M  V30 26 1 9 25
M  V30 27 1 10 26
M  V30 28 1 10 27
M  V30 29 1 11 28
M  V30 30 1 11 29
M  V30 31 1 13 30
M  V30 32 1 13 31
M  V30 33 1 14 32
M  V30 END BOND
M  V30 END CTAB
M  END
