
     RDKit          3D

  0  0  0  0  0  0  0  0  0  0999 V3000
M  V30 BEGIN CTAB
M  V30 COUNTS 65 67 0 0 0
M  V30 BEGIN ATOM
M  V30 1 N 7.45315 0.571258 1.03387 0
M  V30 2 C 6.79772 -0.603734 1.49882 0
M  V30 3 C 5.44791 -0.347726 2.09726 0
M  V30 4 C 4.49286 0.289614 1.10799 0
M  V30 5 C 4.30743 -0.622646 -0.0844312 0
M  V30 6 C 3.34942 0.0481926 -1.0453 0 CFG=1
M  V30 7 C 2.02717 0.336461 -0.498647 0
M  V30 8 O 1.76172 1.58025 -0.33922 0
M  V30 9 N 1.0173 -0.54764 -0.129735 0
M  V30 10 C 1.20639 -1.97383 -0.260111 0
M  V30 11 C -0.0480514 -2.76085 -0.141846 0 CFG=2
M  V30 12 O 0.332987 -4.12229 -0.272228 0
M  V30 13 C -1.20548 -2.4479 -0.961758 0
M  V30 14 C -1.38651 -1.12251 -1.5912 0 CFG=2
M  V30 15 C -1.17801 0.100527 -0.788872 0 CFG=2
M  V30 16 C -0.250612 0.0360248 0.377827 0
M  V30 17 N -2.23328 1.09881 -0.762763 0
M  V30 18 C -2.3555 2.23201 -1.53924 0
M  V30 19 N -3.4333 2.93055 -1.26993 0
M  V30 20 C -4.09026 2.31417 -0.307912 0
M  V30 21 C -3.34346 1.17479 0.0072023 0
M  V30 22 C -3.85219 0.386345 0.988823 0
M  V30 23 O -3.26323 -0.625663 1.32352 0
M  V30 24 N -5.00405 0.692645 1.61256 0
M  V30 25 C -5.4941 -0.174584 2.6406 0
M  V30 26 C -5.70903 1.80699 1.28567 0
M  V30 27 O -6.78411 2.0902 1.86995 0
M  V30 28 N -5.24921 2.61951 0.321883 0
M  V30 29 C -5.93995 3.82604 -0.0861505 0
M  V30 30 C -2.7915 -1.1476 -2.23476 0
M  V30 31 O -0.559773 -1.19943 -2.75762 0
M  V30 32 N 4.05778 1.28556 -1.43312 0
M  V30 33 H 7.88515 0.442514 0.147817 0
M  V30 34 H 7.11783 1.44013 1.31402 0
M  V30 35 H 7.43629 -1.04378 2.28462 0
M  V30 36 H 6.74979 -1.35879 0.671385 0
M  V30 37 H 5.58116 0.352893 2.9406 0
M  V30 38 H 5.02038 -1.28062 2.47938 0
M  V30 39 H 3.50934 0.423372 1.58255 0
M  V30 40 H 4.89456 1.26518 0.845937 0
M  V30 41 H 5.30463 -0.608809 -0.630715 0
M  V30 42 H 4.00301 -1.6312 0.151415 0
M  V30 43 H 3.30409 -0.631064 -1.94629 0
M  V30 44 H 1.80682 -2.25365 0.664134 0
M  V30 45 H 1.85313 -2.2501 -1.10569 0
M  V30 46 H -0.364539 -2.70121 0.946225 0
M  V30 47 H 1.21032 -4.21833 0.177988 0
M  V30 48 H -2.15474 -2.74122 -0.401728 0
M  V30 49 H -1.23776 -3.21209 -1.8032 0
M  V30 50 H -0.43038 0.653739 -1.4864 0
M  V30 51 H -0.479331 -0.590832 1.21846 0
M  V30 52 H 0.00496165 1.08057 0.660486 0
M  V30 53 H -1.64965 2.54889 -2.30926 0
M  V30 54 H -6.56747 -0.031498 2.86302 0
M  V30 55 H -4.85179 -0.0541264 3.53807 0
M  V30 56 H -5.39733 -1.2593 2.34502 0
M  V30 57 H -5.54514 4.72723 0.463769 0
M  V30 58 H -6.99663 3.72839 0.248067 0
M  V30 59 H -5.83822 4.04979 -1.15108 0
M  V30 60 H -2.82776 -1.8283 -3.08914 0
M  V30 61 H -3.51267 -1.55318 -1.47482 0
M  V30 62 H -3.05562 -0.140291 -2.58034 0
M  V30 63 H -0.763569 -2.04864 -3.18765 0
M  V30 64 H 4.62116 1.06282 -2.27614 0
M  V30 65 H 3.28976 1.93798 -1.76163 0
M  V30 END ATOM
M  V30 BEGIN BOND
M  V30 1 1 1 2
M  V30 2 1 2 3
M  V30 3 1 3 4
M  V30 4 1 4 5
M  V30 5 1 5 6
M  V30 6 1 6 7
M  V30 7 2 7 8
M  V30 8 1 7 9
M  V30 9 1 9 10
M  V30 10 1 10 11
M  V30 11 1 11 12
M  V30 12 1 11 13
M  V30 13 1 13 14
M  V30 14 1 14 15
M  V30 15 1 15 16
M  V30 16 1 15 17
M  V30 17 1 17 18
M  V30 18 2 18 19
M  V30 19 1 19 20
M  V30 20 2 20 21
M  V30 21 1 21 22
M  V30 22 2 22 23
M  V30 23 1 22 24
M  V30 24 1 24 25
M  V30 25 1 24 26
M  V30 26 2 26 27
M  V30 27 1 26 28
M  V30 28 1 28 29
M  V30 29 1 14 30
M  V30 30 1 14 31 CFG=3
M  V30 31 1 6 32
M  V30 32 1 16 9
M  V30 33 1 21 17
M  V30 34 1 28 20
M  V30 35 1 1 33
M  V30 36 1 1 34
M  V30 37 1 2 35
M  V30 38 1 2 36
M  V30 39 1 3 37
M  V30 40 1 3 38
M  V30 41 1 4 39
M  V30 42 1 4 40
M  V30 43 1 5 41
M  V30 44 1 5 42
M  V30 45 1 6 43 CFG=3
M  V30 46 1 10 44
M  V30 47 1 10 45
M  V30 48 1 11 46 CFG=1
M  V30 49 1 12 47
M  V30 50 1 13 48
M  V30 51 1 13 49
M  V30 52 1 15 50 CFG=3
M  V30 53 1 16 51
M  V30 54 1 16 52
M  V30 55 1 18 53
M  V30 56 1 25 54
M  V30 57 1 25 55
M  V30 58 1 25 56
M  V30 59 1 29 57
M  V30 60 1 29 58
M  V30 61 1 29 59
M  V30 62 1 30 60
M  V30 63 1 30 61
M  V30 64 1 30 62
M  V30 65 1 31 63
M  V30 66 1 32 64
M  V30 67 1 32 65
M  V30 END BOND
M  V30 END CTAB
M  END
