
     RDKit          3D

  0  0  0  0  0  0  0  0  0  0999 V3000
M  V30 BEGIN CTAB
M  V30 COUNTS 43 45 0 0 0
M  V30 BEGIN ATOM
M  V30 1 C 0.0958053 -3.20061 -0.639434 0
M  V30 2 O -0.377269 -1.86745 -0.69291 0
M  V30 3 C 0.503745 -0.831362 -0.418169 0
M  V30 4 C 1.81907 -0.917102 -0.101821 0
M  V30 5 N 2.31592 0.35168 0.088945 0
M  V30 6 N 1.29514 1.18528 -0.10994 0
M  V30 7 C 0.18558 0.53574 -0.416443 0
M  V30 8 C -1.16449 1.02119 -0.75415 0
M  V30 9 O -1.47857 2.24132 -0.644916 0
M  V30 10 O -2.10646 0.172075 -1.20001 0
M  V30 11 C -3.38898 0.235989 -1.57454 0
M  V30 12 C -4.47583 0.528491 -0.644406 0
M  V30 13 N -5.03563 1.71279 -0.479971 0
M  V30 14 C -6.09585 1.84649 0.375033 0
M  V30 15 N -6.73472 3.09311 0.548444 0
M  V30 16 N -6.57858 0.772055 1.05319 0
M  V30 17 C -6.02972 -0.433082 0.899633 0
M  V30 18 N -4.9847 -0.535423 0.052763 0
M  V30 19 N -6.5124 -1.59089 1.58594 0
M  V30 20 C 3.67495 0.607367 0.420608 0
M  V30 21 C 4.05543 1.65996 1.19531 0
M  V30 22 C 5.40377 1.86383 1.54145 0
M  V30 23 C 6.34481 0.974718 1.07583 0
M  V30 24 C 5.99724 -0.0990079 0.288517 0
M  V30 25 C 4.66005 -0.283897 -0.0400895 0
M  V30 26 C 7.04967 -1.03196 -0.166607 0
M  V30 27 F 6.4789 -2.14335 -0.79138 0
M  V30 28 F 7.87716 -0.428477 -1.12565 0
M  V30 29 F 7.89251 -1.41917 0.861137 0
M  V30 30 H 0.982137 -3.2224 0.0499547 0
M  V30 31 H -0.708518 -3.83913 -0.225685 0
M  V30 32 H 0.345401 -3.53032 -1.67681 0
M  V30 33 H 2.42638 -1.80973 -0.0132613 0
M  V30 34 H -3.4409 0.974673 -2.4613 0
M  V30 35 H -3.63749 -0.736098 -2.13801 0
M  V30 36 H -7.77621 3.18674 0.610458 0
M  V30 37 H -6.17179 3.98303 0.611523 0
M  V30 38 H -7.52098 -1.83533 1.58459 0
M  V30 39 H -5.85913 -2.20947 2.09134 0
M  V30 40 H 3.29107 2.32997 1.54484 0
M  V30 41 H 5.68371 2.69397 2.14321 0
M  V30 42 H 7.37668 1.10518 1.32324 0
M  V30 43 H 4.32309 -1.11142 -0.661237 0
M  V30 END ATOM
M  V30 BEGIN BOND
M  V30 1 1 1 2
M  V30 2 1 2 3
M  V30 3 2 3 4
M  V30 4 1 4 5
M  V30 5 1 5 6
M  V30 6 2 6 7
M  V30 7 1 7 8
M  V30 8 2 8 9
M  V30 9 1 8 10
M  V30 10 1 10 11
M  V30 11 1 11 12
M  V30 12 2 12 13
M  V30 13 1 13 14
M  V30 14 1 14 15
M  V30 15 2 14 16
M  V30 16 1 16 17
M  V30 17 2 17 18
M  V30 18 1 17 19
M  V30 19 1 5 20
M  V30 20 2 20 21
M  V30 21 1 21 22
M  V30 22 2 22 23
M  V30 23 1 23 24
M  V30 24 2 24 25
M  V30 25 1 24 26
M  V30 26 1 26 27
M  V30 27 1 26 28
M  V30 28 1 26 29
M  V30 29 1 7 3
M  V30 30 1 18 12
M  V30 31 1 25 20
M  V30 32 1 1 30
M  V30 33 1 1 31
M  V30 34 1 1 32
M  V30 35 1 4 33
M  V30 36 1 11 34
M  V30 37 1 11 35
M  V30 38 1 15 36
M  V30 39 1 15 37
M  V30 40 1 19 38
M  V30 41 1 19 39
M  V30 42 1 21 40
M  V30 43 1 22 41
M  V30 44 1 23 42
M  V30 45 1 25 43
M  V30 END BOND
M  V30 END CTAB
M  END
