
     RDKit          3D

  0  0  0  0  0  0  0  0  0  0999 V3000
M  V30 BEGIN CTAB
M  V30 COUNTS 43 44 0 0 0
M  V30 BEGIN ATOM
M  V30 1 N 7.12146 0.390031 1.04045 0
M  V30 2 C 6.18724 -0.655429 1.32342 0
M  V30 3 N 6.48615 -1.56319 2.16524 0
M  V30 4 C 4.90722 -0.666484 0.644314 0
M  V30 5 C 3.93305 -1.61973 0.836603 0
M  V30 6 C 2.72514 -1.6058 0.177619 0
M  V30 7 C 2.49281 -0.569765 -0.724567 0
M  V30 8 C 3.45791 0.386534 -0.924302 0
M  V30 9 C 4.65823 0.349479 -0.251901 0
M  V30 10 C 1.23574 -0.537052 -1.43409 0
M  V30 11 O 0.537122 -1.5972 -1.4639 0
M  V30 12 N 0.780037 0.634926 -2.08245 0
M  V30 13 C -0.458741 0.752188 -2.80772 0
M  V30 14 C -1.61041 0.496279 -1.89677 0
M  V30 15 O -1.64841 1.41906 -0.808508 0
M  V30 16 C -2.6715 1.28666 0.104542 0
M  V30 17 C -3.62875 0.31225 -0.00940166 0
M  V30 18 C -4.67998 0.146572 0.895254 0
M  V30 19 C -4.77392 0.999031 1.96355 0
M  V30 20 C -3.82363 1.99093 2.1046 0
M  V30 21 C -2.79794 2.13321 1.19989 0
M  V30 22 C -5.60974 -0.936307 0.629255 0
M  V30 23 N -5.44774 -1.79217 -0.513676 0
M  V30 24 N -6.59447 -1.152 1.40777 0
M  V30 25 H 8.04947 0.180772 0.614971 0
M  V30 26 H 6.90686 1.38663 1.24856 0
M  V30 27 H 5.87462 -2.33465 2.41585 0
M  V30 28 H 4.10926 -2.4237 1.53451 0
M  V30 29 H 2.0123 -2.38007 0.375901 0
M  V30 30 H 3.31105 1.21241 -1.6296 0
M  V30 31 H 5.3909 1.13793 -0.450191 0
M  V30 32 H 1.40256 1.49108 -2.02151 0
M  V30 33 H -0.452906 -0.0954034 -3.55321 0
M  V30 34 H -0.547344 1.67964 -3.373 0
M  V30 35 H -1.61821 -0.52242 -1.46872 0
M  V30 36 H -2.59006 0.690035 -2.43922 0
M  V30 37 H -3.54939 -0.356231 -0.854187 0
M  V30 38 H -5.57645 0.901088 2.68667 0
M  V30 39 H -3.9157 2.65006 2.95082 0
M  V30 40 H -2.05178 2.92454 1.32488 0
M  V30 41 H -5.38891 -1.34692 -1.44859 0
M  V30 42 H -5.38716 -2.82554 -0.450682 0
M  V30 43 H -6.75601 -0.571291 2.23696 0
M  V30 END ATOM
M  V30 BEGIN BOND
M  V30 1 1 1 2
M  V30 2 2 2 3 CFG=2
M  V30 3 1 2 4
M  V30 4 2 4 5
M  V30 5 1 5 6
M  V30 6 2 6 7
M  V30 7 1 7 8
M  V30 8 2 8 9
M  V30 9 1 7 10
M  V30 10 2 10 11
M  V30 11 1 10 12
M  V30 12 1 12 13
M  V30 13 1 13 14
M  V30 14 1 14 15
M  V30 15 1 15 16
M  V30 16 2 16 17
M  V30 17 1 17 18
M  V30 18 2 18 19
M  V30 19 1 19 20
M  V30 20 2 20 21
M  V30 21 1 18 22
M  V30 22 1 22 23
M  V30 23 2 22 24 CFG=2
M  V30 24 1 9 4
M  V30 25 1 21 16
M  V30 26 1 1 25
M  V30 27 1 1 26
M  V30 28 1 3 27
M  V30 29 1 5 28
M  V30 30 1 6 29
M  V30 31 1 8 30
M  V30 32 1 9 31
M  V30 33 1 12 32
M  V30 34 1 13 33
M  V30 35 1 13 34
M  V30 36 1 14 35
M  V30 37 1 14 36
M  V30 38 1 17 37
M  V30 39 1 19 38
M  V30 40 1 20 39
M  V30 41 1 21 40
M  V30 42 1 23 41
M  V30 43 1 23 42
M  V30 44 1 24 43
M  V30 END BOND
M  V30 END CTAB
M  END
