
     RDKit          3D

  0  0  0  0  0  0  0  0  0  0999 V3000
M  V30 BEGIN CTAB
M  V30 COUNTS 44 47 0 0 0
M  V30 BEGIN ATOM
M  V30 1 N 0.00228707 -3.37724 2.86369 0
M  V30 2 C -0.737211 -2.80828 2.1786 0
M  V30 3 C -1.66032 -2.07392 1.3305 0
M  V30 4 C -2.77695 -2.69649 1.01755 0
M  V30 5 N -3.04593 -4.02587 1.50169 0
M  V30 6 O -3.74399 -2.11034 0.209381 0
M  V30 7 C -3.56305 -0.823056 -0.308181 0
M  V30 8 C -2.41469 -0.170611 0.00784257 0
M  V30 9 C -1.3802 -0.722074 0.870222 0
M  V30 10 C -0.00567617 -0.569125 0.309295 0
M  V30 11 C 0.898453 0.319139 0.889627 0
M  V30 12 C 2.17006 0.524092 0.444183 0
M  V30 13 C 2.99097 1.42459 1.08464 0
M  V30 14 C 2.50725 2.19701 2.28135 0
M  V30 15 C 4.27534 1.60431 0.601724 0
M  V30 16 C 4.68833 0.877339 -0.501619 0
M  V30 17 C 3.84533 -0.0179481 -1.12376 0
M  V30 18 C 2.56975 -0.212572 -0.663638 0
M  V30 19 N 1.70162 -1.0707 -1.22716 0
M  V30 20 C 0.444273 -1.27214 -0.785195 0
M  V30 21 Cl -0.623299 -2.42046 -1.58805 0
M  V30 22 C 6.0729 1.09272 -0.995997 0
M  V30 23 C -2.20369 1.11383 -0.496537 0
M  V30 24 C -3.1749 1.66222 -1.2942 0
M  V30 25 C -4.34248 1.00496 -1.61751 0
M  V30 26 C -4.54516 -0.25859 -1.11913 0
M  V30 27 N -5.33305 1.6202 -2.45757 0
M  V30 28 H -3.93701 -4.18903 1.9862 0
M  V30 29 H -2.36841 -4.77896 1.36482 0
M  V30 30 H -1.38162 -0.0442408 1.7904 0
M  V30 31 H 0.582201 0.89962 1.76298 0
M  V30 32 H 1.63859 2.81495 2.05515 0
M  V30 33 H 2.2056 1.40889 3.03059 0
M  V30 34 H 3.36355 2.71664 2.71085 0
M  V30 35 H 4.94128 2.31016 1.09143 0
M  V30 36 H 4.17051 -0.582938 -1.98355 0
M  V30 37 H 6.15828 0.884044 -2.07785 0
M  V30 38 H 6.37372 2.15186 -0.824027 0
M  V30 39 H 6.72611 0.404023 -0.39008 0
M  V30 40 H -1.27811 1.65 -0.247533 0
M  V30 41 H -3.01814 2.65612 -1.68799 0
M  V30 42 H -5.45227 -0.776243 -1.36691 0
M  V30 43 H -5.03138 2.03915 -3.34858 0
M  V30 44 H -6.30889 1.62494 -2.14779 0
M  V30 END ATOM
M  V30 BEGIN BOND
M  V30 1 3 1 2
M  V30 2 1 2 3
M  V30 3 2 3 4
M  V30 4 1 4 5
M  V30 5 1 4 6
M  V30 6 1 6 7
M  V30 7 2 7 8
M  V30 8 1 8 9
M  V30 9 1 9 10
M  V30 10 2 10 11
M  V30 11 1 11 12
M  V30 12 2 12 13
M  V30 13 1 13 14
M  V30 14 1 13 15
M  V30 15 2 15 16
M  V30 16 1 16 17
M  V30 17 2 17 18
M  V30 18 1 18 19
M  V30 19 2 19 20
M  V30 20 1 20 21
M  V30 21 1 16 22
M  V30 22 1 8 23
M  V30 23 2 23 24
M  V30 24 1 24 25
M  V30 25 2 25 26
M  V30 26 1 25 27
M  V30 27 1 9 3
M  V30 28 1 20 10
M  V30 29 1 26 7
M  V30 30 1 18 12
M  V30 31 1 5 28
M  V30 32 1 5 29
M  V30 33 1 9 30
M  V30 34 1 11 31
M  V30 35 1 14 32
M  V30 36 1 14 33
M  V30 37 1 14 34
M  V30 38 1 15 35
M  V30 39 1 17 36
M  V30 40 1 22 37
M  V30 41 1 22 38
M  V30 42 1 22 39
M  V30 43 1 23 40
M  V30 44 1 24 41
M  V30 45 1 26 42
M  V30 46 1 27 43
M  V30 47 1 27 44
M  V30 END BOND
M  V30 END CTAB
M  END
