
     RDKit          3D

  0  0  0  0  0  0  0  0  0  0999 V3000
M  V30 BEGIN CTAB
M  V30 COUNTS 20 20 0 0 0
M  V30 BEGIN ATOM
M  V30 1 C 3.27767 0.399126 -0.118496 0
M  V30 2 O 2.49023 -0.762224 -0.226108 0
M  V30 3 C 1.10637 -0.671231 -0.222755 0
M  V30 4 C 0.511282 0.563535 -0.113383 0
M  V30 5 C -0.878914 0.668615 -0.108807 0
M  V30 6 N -1.42715 1.95257 0.00515543 0
M  V30 7 C -1.68705 -0.442599 -0.211979 0
M  V30 8 C -1.05898 -1.66286 -0.319918 0
M  V30 9 C 0.30723 -1.81066 -0.328436 0
M  V30 10 Cl 1.07965 -3.37472 -0.466903 0
M  V30 11 N -3.09835 -0.303359 -0.204443 0
M  V30 12 H 3.22595 0.874855 0.876154 0
M  V30 13 H 4.33551 0.0778875 -0.309707 0
M  V30 14 H 2.93743 1.12691 -0.880714 0
M  V30 15 H 1.1128 1.45616 -0.0306646 0
M  V30 16 H -1.69908 2.52081 -0.827285 0
M  V30 17 H -1.59299 2.41086 0.944885 0
M  V30 18 H -1.66305 -2.56026 -0.403065 0
M  V30 19 H -3.53286 0.383847 0.447109 0
M  V30 20 H -3.74569 -0.847283 -0.813419 0
M  V30 END ATOM
M  V30 BEGIN BOND
M  V30 1 1 1 2
M  V30 2 1 2 3
M  V30 3 2 3 4
M  V30 4 1 4 5
M  V30 5 1 5 6
M  V30 6 2 5 7
M  V30 7 1 7 8
M  V30 8 2 8 9
M  V30 9 1 9 10
M  V30 10 1 7 11
M  V30 11 1 9 3
M  V30 12 1 1 12
M  V30 13 1 1 13
M  V30 14 1 1 14
M  V30 15 1 4 15
M  V30 16 1 6 16
M  V30 17 1 6 17
M  V30 18 1 8 18
M  V30 19 1 11 19
M  V30 20 1 11 20
M  V30 END BOND
M  V30 END CTAB
M  END
