
     RDKit          3D

  0  0  0  0  0  0  0  0  0  0999 V3000
M  V30 BEGIN CTAB
M  V30 COUNTS 49 52 0 0 0
M  V30 BEGIN ATOM
M  V30 1 N 7.78261 1.64464 -0.321621 0
M  V30 2 C 6.62109 0.773213 -0.261509 0
M  V30 3 C 5.73827 1.09282 0.921384 0
M  V30 4 C 4.58069 1.28978 -0.0562735 0
M  V30 5 C 5.56104 1.20289 -1.2253 0
M  V30 6 C 3.57535 0.21083 -0.0500471 0
M  V30 7 N 3.92877 -1.06945 -0.167869 0
M  V30 8 C 3.01492 -2.04646 -0.166116 0
M  V30 9 N 3.38059 -3.43156 -0.311858 0
M  V30 10 N 1.7086 -1.77848 -0.044843 0
M  V30 11 C 1.26932 -0.495452 0.0793266 0
M  V30 12 C 2.21682 0.502138 0.0754597 0
M  V30 13 N -0.124941 -0.27265 0.199155 0
M  V30 14 C -0.874634 -1.11014 1.07752 0
M  V30 15 C -2.32712 -1.17375 0.849599 0
M  V30 16 N -3.02202 -2.35921 0.757168 0
M  V30 17 N -4.28026 -2.1269 0.545249 0
M  V30 18 C -4.52795 -0.803323 0.478483 0
M  V30 19 C -3.29439 -0.216147 0.673431 0
M  V30 20 C -5.79713 -0.133458 0.241724 0
M  V30 21 C -6.96385 -0.854554 0.0796154 0
M  V30 22 C -8.15593 -0.214759 -0.168991 0
M  V30 23 C -8.22545 1.1564 -0.262568 0
M  V30 24 C -7.06986 1.90565 -0.103084 0
M  V30 25 C -5.90448 1.23292 0.142029 0
M  V30 26 C -0.746169 0.786075 -0.554811 0
M  V30 27 H 7.45856 2.58051 -0.672176 0
M  V30 28 H 8.4472 1.25671 -1.04843 0
M  V30 29 H 6.86499 -0.302006 -0.292408 0
M  V30 30 H 6.04373 2.05941 1.41131 0
M  V30 31 H 5.58825 0.266603 1.64618 0
M  V30 32 H 4.17385 2.32322 0.0251167 0
M  V30 33 H 5.72674 2.15748 -1.75889 0
M  V30 34 H 5.253 0.417143 -1.95005 0
M  V30 35 H 2.93026 -4.17399 0.258219 0
M  V30 36 H 4.1304 -3.64238 -1.03041 0
M  V30 37 H 1.90458 1.54149 0.175492 0
M  V30 38 H -0.664838 -0.692991 2.12961 0
M  V30 39 H -0.457289 -2.14349 1.155 0
M  V30 40 H -2.59247 -3.3177 0.848987 0
M  V30 41 H -3.14816 0.843676 0.684934 0
M  V30 42 H -6.9131 -1.94064 0.155259 0
M  V30 43 H -9.06505 -0.797342 -0.298798 0
M  V30 44 H -9.16688 1.6752 -0.46125 0
M  V30 45 H -7.04861 2.97844 -0.158919 0
M  V30 46 H -4.97507 1.79822 0.269868 0
M  V30 47 H 0.0155609 1.28236 -1.24554 0
M  V30 48 H -1.00316 1.63843 0.143539 0
M  V30 49 H -1.56636 0.480598 -1.20696 0
M  V30 END ATOM
M  V30 BEGIN BOND
M  V30 1 1 1 2
M  V30 2 1 2 3
M  V30 3 1 3 4
M  V30 4 1 4 5
M  V30 5 1 4 6
M  V30 6 2 6 7
M  V30 7 1 7 8
M  V30 8 1 8 9
M  V30 9 2 8 10
M  V30 10 1 10 11
M  V30 11 2 11 12
M  V30 12 1 11 13
M  V30 13 1 13 14
M  V30 14 1 14 15
M  V30 15 1 15 16
M  V30 16 1 16 17
M  V30 17 2 17 18
M  V30 18 1 18 19
M  V30 19 1 18 20
M  V30 20 2 20 21
M  V30 21 1 21 22
M  V30 22 2 22 23
M  V30 23 1 23 24
M  V30 24 2 24 25
M  V30 25 1 13 26
M  V30 26 1 5 2
M  V30 27 1 12 6
M  V30 28 2 19 15
M  V30 29 1 25 20
M  V30 30 1 1 27
M  V30 31 1 1 28
M  V30 32 1 2 29
M  V30 33 1 3 30
M  V30 34 1 3 31
M  V30 35 1 4 32
M  V30 36 1 5 33
M  V30 37 1 5 34
M  V30 38 1 9 35
M  V30 39 1 9 36
M  V30 40 1 12 37
M  V30 41 1 14 38
M  V30 42 1 14 39
M  V30 43 1 16 40
M  V30 44 1 19 41
M  V30 45 1 21 42
M  V30 46 1 22 43
M  V30 47 1 23 44
M  V30 48 1 24 45
M  V30 49 1 25 46
M  V30 50 1 26 47
M  V30 51 1 26 48
M  V30 52 1 26 49
M  V30 END BOND
M  V30 END CTAB
M  END
