
     RDKit          3D

  0  0  0  0  0  0  0  0  0  0999 V3000
M  V30 BEGIN CTAB
M  V30 COUNTS 26 28 0 0 0
M  V30 BEGIN ATOM
M  V30 1 N -3.33978 1.76143 -0.660267 0
M  V30 2 C -2.72845 0.506298 -0.365265 0
M  V30 3 C -3.53931 -0.590235 -0.13998 0
M  V30 4 C -2.91273 -1.78813 0.142594 0
M  V30 5 N -1.57676 -1.86446 0.191843 0
M  V30 6 C -0.78429 -0.798606 -0.0270347 0
M  V30 7 C -1.35533 0.43824 -0.316964 0
M  V30 8 C -0.533871 1.52386 -0.53957 0
M  V30 9 C 0.843426 1.36627 -0.471194 0
M  V30 10 C 1.42146 0.144925 -0.184556 0
M  V30 11 C 0.599456 -0.943663 0.0387014 0
M  V30 12 N 1.18301 -2.12725 0.317042 0
M  V30 13 C 2.52192 -2.27789 0.382945 0
M  V30 14 C 3.33176 -1.17928 0.157158 0
M  V30 15 C 2.79753 0.0621326 -0.132906 0
M  V30 16 N 3.61339 1.17407 -0.361533 0
M  V30 17 H -3.74057 1.8588 -1.63172 0
M  V30 18 H -3.39036 2.53758 0.0362864 0
M  V30 19 H -4.61788 -0.489054 -0.188576 0
M  V30 20 H -3.56423 -2.6458 0.318389 0
M  V30 21 H -1.00844 2.46982 -0.76222 0
M  V30 22 H 1.45779 2.2234 -0.647775 0
M  V30 23 H 2.94762 -3.26338 0.613261 0
M  V30 24 H 4.40845 -1.29422 0.208772 0
M  V30 25 H 4.51958 1.24244 0.193246 0
M  V30 26 H 3.44659 1.95271 -1.01211 0
M  V30 END ATOM
M  V30 BEGIN BOND
M  V30 1 1 1 2
M  V30 2 2 2 3
M  V30 3 1 3 4
M  V30 4 2 4 5
M  V30 5 1 5 6
M  V30 6 2 6 7
M  V30 7 1 7 8
M  V30 8 2 8 9
M  V30 9 1 9 10
M  V30 10 2 10 11
M  V30 11 1 11 12
M  V30 12 2 12 13
M  V30 13 1 13 14
M  V30 14 2 14 15
M  V30 15 1 15 16
M  V30 16 1 7 2
M  V30 17 1 15 10
M  V30 18 1 11 6
M  V30 19 1 1 17
M  V30 20 1 1 18
M  V30 21 1 3 19
M  V30 22 1 4 20
M  V30 23 1 8 21
M  V30 24 1 9 22
M  V30 25 1 13 23
M  V30 26 1 14 24
M  V30 27 1 16 25
M  V30 28 1 16 26
M  V30 END BOND
M  V30 END CTAB
M  END
