
     RDKit          3D

  0  0  0  0  0  0  0  0  0  0999 V3000
M  V30 BEGIN CTAB
M  V30 COUNTS 24 23 0 0 0
M  V30 BEGIN ATOM
M  V30 1 C -1.21746 1.89087 0.161384 0
M  V30 2 C -0.152628 1.02187 0.718232 0
M  V30 3 C 0.128976 -0.217276 -0.0777721 0
M  V30 4 N 0.543482 0.169284 -1.39967 0
M  V30 5 C 1.20717 -1.02206 0.583903 0
M  V30 6 C 2.51259 -0.301329 0.731146 0
M  V30 7 C -1.07915 -1.11663 -0.220781 0
M  V30 8 N -2.18473 -0.485857 -0.875855 0
M  V30 9 H -1.00267 2.94832 0.457338 0
M  V30 10 H -2.23478 1.68308 0.542425 0
M  V30 11 H -1.21678 1.91722 -0.967378 0
M  V30 12 H 0.789784 1.61054 0.727365 0
M  V30 13 H -0.452255 0.758945 1.77592 0
M  V30 14 H 1.25678 -0.458519 -1.8138 0
M  V30 15 H -0.237231 0.399731 -2.03344 0
M  V30 16 H 0.8976 -1.38665 1.58539 0
M  V30 17 H 1.40302 -1.93463 -0.0347467 0
M  V30 18 H 2.54232 0.426248 1.54438 0
M  V30 19 H 3.31086 -1.04863 0.929374 0
M  V30 20 H 2.78441 0.147188 -0.269776 0
M  V30 21 H -0.771139 -1.97866 -0.849712 0
M  V30 22 H -1.35712 -1.56489 0.770425 0
M  V30 23 H -2.46649 -0.923453 -1.76867 0
M  V30 24 H -3.00454 -0.534715 -0.215683 0
M  V30 END ATOM
M  V30 BEGIN BOND
M  V30 1 1 1 2
M  V30 2 1 2 3
M  V30 3 1 3 4
M  V30 4 1 3 5
M  V30 5 1 5 6
M  V30 6 1 3 7
M  V30 7 1 7 8
M  V30 8 1 1 9
M  V30 9 1 1 10
M  V30 10 1 1 11
M  V30 11 1 2 12
M  V30 12 1 2 13
M  V30 13 1 4 14
M  V30 14 1 4 15
M  V30 15 1 5 16
M  V30 16 1 5 17
M  V30 17 1 6 18
M  V30 18 1 6 19
M  V30 19 1 6 20
M  V30 20 1 7 21
M  V30 21 1 7 22
M  V30 22 1 8 23
M  V30 23 1 8 24
M  V30 END BOND
M  V30 END CTAB
M  END
