
     RDKit          3D

  0  0  0  0  0  0  0  0  0  0999 V3000
M  V30 BEGIN CTAB
M  V30 COUNTS 27 27 0 0 0
M  V30 BEGIN ATOM
M  V30 1 N 2.84958 0.928229 -0.000381518 0
M  V30 2 C 2.48194 -0.436226 0.198623 0
M  V30 3 C 1.38953 -0.877322 -0.734687 0
M  V30 4 N 0.19945 -0.100815 -0.559326 0
M  V30 5 C -0.74192 -0.372215 -1.69894 0
M  V30 6 C -1.76248 0.699427 -1.29062 0
M  V30 7 C -1.94586 0.268969 0.171477 0 CFG=1
M  V30 8 C -0.71427 -0.602231 0.459275 0 CFG=2
M  V30 9 C -0.270974 -0.533231 1.85584 0
M  V30 10 N -1.97161 1.42325 1.02898 0
M  V30 11 H 2.24417 1.35868 -0.687147 0
M  V30 12 H 2.94508 1.47852 0.832293 0
M  V30 13 H 3.43183 -1.01409 -0.0103951 0
M  V30 14 H 2.28888 -0.614204 1.26063 0
M  V30 15 H 1.74365 -0.754958 -1.78039 0
M  V30 16 H 1.14605 -1.95575 -0.619146 0
M  V30 17 H -1.16493 -1.35887 -1.52654 0
M  V30 18 H -0.265051 -0.179316 -2.65784 0
M  V30 19 H -2.66948 0.689907 -1.86356 0
M  V30 20 H -1.1919 1.648 -1.26942 0
M  V30 21 H -2.86041 -0.318381 0.27746 0
M  V30 22 H -0.984779 -1.64368 0.172601 0
M  V30 23 H 0.311361 0.347788 2.12916 0
M  V30 24 H 0.267571 -1.49117 2.10135 0
M  V30 25 H -1.19068 -0.582552 2.51115 0
M  V30 26 H -2.53459 2.15262 0.532682 0
M  V30 27 H -1.03017 1.83962 1.16689 0
M  V30 END ATOM
M  V30 BEGIN BOND
M  V30 1 1 1 2
M  V30 2 1 2 3
M  V30 3 1 3 4
M  V30 4 1 4 5
M  V30 5 1 5 6
M  V30 6 1 6 7
M  V30 7 1 7 8
M  V30 8 1 8 9
M  V30 9 1 7 10
M  V30 10 1 8 4
M  V30 11 1 1 11
M  V30 12 1 1 12
M  V30 13 1 2 13
M  V30 14 1 2 14
M  V30 15 1 3 15
M  V30 16 1 3 16
M  V30 17 1 5 17
M  V30 18 1 5 18
M  V30 19 1 6 19
M  V30 20 1 6 20
M  V30 21 1 7 21 CFG=3
M  V30 22 1 8 22 CFG=3
M  V30 23 1 9 23
M  V30 24 1 9 24
M  V30 25 1 9 25
M  V30 26 1 10 26
M  V30 27 1 10 27
M  V30 END BOND
M  V30 END CTAB
M  END
