
     RDKit          3D

  0  0  0  0  0  0  0  0  0  0999 V3000
M  V30 BEGIN CTAB
M  V30 COUNTS 37 39 0 0 0
M  V30 BEGIN ATOM
M  V30 1 N -2.10482 -3.01232 1.03908 0
M  V30 2 C -2.88724 -2.13574 0.280863 0
M  V30 3 C -2.18048 -1.3142 -0.736717 0
M  V30 4 N -1.15687 -0.423436 -0.247638 0
M  V30 5 C 0.094729 -1.01021 0.221418 0
M  V30 6 C 1.19228 -0.0524046 0.464905 0 CFG=2
M  V30 7 N 1.01505 1.2689 -0.113782 0
M  V30 8 C -0.276094 1.82748 -0.142343 0
M  V30 9 C -1.36683 0.98994 -0.208901 0
M  V30 10 C -2.64384 1.50857 -0.240889 0
M  V30 11 C -2.801 2.89473 -0.205404 0
M  V30 12 C -1.7142 3.71444 -0.140623 0
M  V30 13 C -0.440227 3.20328 -0.107661 0
M  V30 14 C 2.48735 -0.556438 -0.0530495 0
M  V30 15 C 2.76945 -1.59664 -0.891988 0
M  V30 16 N 4.12004 -1.66304 -1.11075 0
M  V30 17 N 4.66419 -0.687792 -0.424758 0
M  V30 18 C 3.74067 0.00688558 0.226733 0
M  V30 19 N 3.8934 1.13215 1.08436 0
M  V30 20 H -1.89023 -3.89362 0.687439 0
M  V30 21 H -1.96875 -2.80122 1.9965 0
M  V30 22 H -3.68068 -2.78285 -0.207924 0
M  V30 23 H -3.49272 -1.50699 0.992929 0
M  V30 24 H -1.70577 -2.00695 -1.51056 0
M  V30 25 H -2.95157 -0.774174 -1.35889 0
M  V30 26 H -0.0740401 -1.59162 1.16841 0
M  V30 27 H 0.381877 -1.73241 -0.559487 0
M  V30 28 H 1.34931 0.100237 1.56813 0
M  V30 29 H 1.83127 1.81724 -0.507708 0
M  V30 30 H -3.46855 0.838587 -0.288846 0
M  V30 31 H -3.80365 3.2886 -0.229722 0
M  V30 32 H -1.8592 4.78427 -0.112927 0
M  V30 33 H 0.421058 3.84413 -0.0561072 0
M  V30 34 H 2.06395 -2.30392 -1.35041 0
M  V30 35 H 4.56607 -2.38411 -1.72544 0
M  V30 36 H 3.71256 0.965853 2.11848 0
M  V30 37 H 4.1635 2.04477 0.683292 0
M  V30 END ATOM
M  V30 BEGIN BOND
M  V30 1 1 1 2
M  V30 2 1 2 3
M  V30 3 1 3 4
M  V30 4 1 4 5
M  V30 5 1 5 6
M  V30 6 1 6 7
M  V30 7 1 7 8
M  V30 8 2 8 9
M  V30 9 1 9 10
M  V30 10 2 10 11
M  V30 11 1 11 12
M  V30 12 2 12 13
M  V30 13 1 6 14
M  V30 14 2 14 15
M  V30 15 1 15 16
M  V30 16 1 16 17
M  V30 17 2 17 18
M  V30 18 1 18 19
M  V30 19 1 9 4
M  V30 20 1 18 14
M  V30 21 1 13 8
M  V30 22 1 1 20
M  V30 23 1 1 21
M  V30 24 1 2 22
M  V30 25 1 2 23
M  V30 26 1 3 24
M  V30 27 1 3 25
M  V30 28 1 5 26
M  V30 29 1 5 27
M  V30 30 1 6 28 CFG=1
M  V30 31 1 7 29
M  V30 32 1 10 30
M  V30 33 1 11 31
M  V30 34 1 12 32
M  V30 35 1 13 33
M  V30 36 1 15 34
M  V30 37 1 16 35
M  V30 38 1 19 36
M  V30 39 1 19 37
M  V30 END BOND
M  V30 END CTAB
M  END
