
     RDKit          3D

  0  0  0  0  0  0  0  0  0  0999 V3000
M  V30 BEGIN CTAB
M  V30 COUNTS 29 29 0 0 0
M  V30 BEGIN ATOM
M  V30 1 N 3.79212 -0.32503 -0.162134 0
M  V30 2 C 3.17536 0.697965 0.597741 0
M  V30 3 S 4.0655 1.97992 1.03772 0
M  V30 4 N 1.82028 0.620877 0.972137 0
M  V30 5 N 0.976251 -0.43004 0.646333 0
M  V30 6 C -0.000985495 -0.121562 -0.364459 0
M  V30 7 C 0.582038 0.296063 -1.67492 0
M  V30 8 C -0.751214 -1.43352 -0.637358 0
M  V30 9 C -1.85806 -1.33203 0.338958 0
M  V30 10 N -1.99572 -0.11702 0.719935 0
M  V30 11 N -1.05243 0.729001 0.0891553 0
M  V30 12 C -1.16262 2.14095 -0.0422982 0
M  V30 13 S -0.0456985 3.07318 -0.76739 0
M  V30 14 N -2.31005 2.78206 0.490012 0
M  V30 15 C -2.68357 -2.48336 0.802234 0
M  V30 16 H 4.4422 -0.987904 0.32448 0
M  V30 17 H 3.60883 -0.422384 -1.18041 0
M  V30 18 H 1.41207 1.39775 1.53167 0
M  V30 19 H 1.4665 -1.32918 0.490234 0
M  V30 20 H -0.205209 0.819199 -2.2539 0
M  V30 21 H 0.824303 -0.612625 -2.27902 0
M  V30 22 H 1.44409 0.979808 -1.60339 0
M  V30 23 H -1.12738 -1.42512 -1.67882 0
M  V30 24 H -0.06961 -2.26482 -0.467253 0
M  V30 25 H -2.97657 3.34983 -0.0950125 0
M  V30 26 H -2.56609 2.72646 1.51815 0
M  V30 27 H -2.582 -3.35169 0.114689 0
M  V30 28 H -3.77419 -2.21897 0.796431 0
M  V30 29 H -2.44814 -2.73782 1.85496 0
M  V30 END ATOM
M  V30 BEGIN BOND
M  V30 1 1 1 2
M  V30 2 2 2 3
M  V30 3 1 2 4
M  V30 4 1 4 5
M  V30 5 1 5 6
M  V30 6 1 6 7
M  V30 7 1 6 8
M  V30 8 1 8 9
M  V30 9 2 9 10
M  V30 10 1 10 11
M  V30 11 1 11 12
M  V30 12 2 12 13
M  V30 13 1 12 14
M  V30 14 1 9 15
M  V30 15 1 11 6
M  V30 16 1 1 16
M  V30 17 1 1 17
M  V30 18 1 4 18
M  V30 19 1 5 19
M  V30 20 1 7 20
M  V30 21 1 7 21
M  V30 22 1 7 22
M  V30 23 1 8 23
M  V30 24 1 8 24
M  V30 25 1 14 25
M  V30 26 1 14 26
M  V30 27 1 15 27
M  V30 28 1 15 28
M  V30 29 1 15 29
M  V30 END BOND
M  V30 END CTAB
M  END
