
     RDKit          3D

  0  0  0  0  0  0  0  0  0  0999 V3000
M  V30 BEGIN CTAB
M  V30 COUNTS 23 22 0 0 0
M  V30 BEGIN ATOM
M  V30 1 N -0.73888 2.27857 0.485455 0
M  V30 2 C -1.15329 1.06764 -0.187902 0
M  V30 3 C -0.441724 -0.158221 0.313162 0
M  V30 4 N 0.924973 -0.0500902 0.124287 0
M  V30 5 C 1.68565 0.932849 0.770498 0
M  V30 6 C 1.49094 -0.534183 -1.09085 0
M  V30 7 C -1.10426 -1.39372 -0.223088 0
M  V30 8 N -0.458262 -2.60844 0.225682 0
M  V30 9 H -0.736151 3.11061 -0.117228 0
M  V30 10 H -1.44941 2.45646 1.25231 0
M  V30 11 H -2.25302 0.889237 -0.0177076 0
M  V30 12 H -1.07638 1.17678 -1.29606 0
M  V30 13 H -0.649762 -0.182951 1.42878 0
M  V30 14 H 1.26576 1.28115 1.714 0
M  V30 15 H 1.76199 1.8263 0.0878877 0
M  V30 16 H 2.74931 0.634013 0.967726 0
M  V30 17 H 0.808547 -1.0621 -1.74447 0
M  V30 18 H 1.85611 0.36195 -1.66998 0
M  V30 19 H 2.38233 -1.16665 -0.911585 0
M  V30 20 H -2.13491 -1.4176 0.193699 0
M  V30 21 H -1.20038 -1.33351 -1.30623 0
M  V30 22 H -0.578297 -2.70081 1.25593 0
M  V30 23 H -0.950875 -3.40729 -0.254324 0
M  V30 END ATOM
M  V30 BEGIN BOND
M  V30 1 1 1 2
M  V30 2 1 2 3
M  V30 3 1 3 4
M  V30 4 1 4 5
M  V30 5 1 4 6
M  V30 6 1 3 7
M  V30 7 1 7 8
M  V30 8 1 1 9
M  V30 9 1 1 10
M  V30 10 1 2 11
M  V30 11 1 2 12
M  V30 12 1 3 13
M  V30 13 1 5 14
M  V30 14 1 5 15
M  V30 15 1 5 16
M  V30 16 1 6 17
M  V30 17 1 6 18
M  V30 18 1 6 19
M  V30 19 1 7 20
M  V30 20 1 7 21
M  V30 21 1 8 22
M  V30 22 1 8 23
M  V30 END BOND
M  V30 END CTAB
M  END
