
     RDKit          3D

  0  0  0  0  0  0  0  0  0  0999 V3000
M  V30 BEGIN CTAB
M  V30 COUNTS 26 26 0 0 0
M  V30 BEGIN ATOM
M  V30 1 C 4.35268 -1.18446 -0.811535 0
M  V30 2 C 3.46654 0.00530073 -0.530613 0
M  V30 3 C 2.04487 -0.385722 -0.361083 0
M  V30 4 O 1.79292 -1.59081 -0.469865 0
M  V30 5 N 1.07138 0.565185 -0.0960487 0
M  V30 6 C -0.320519 0.415874 0.0972567 0
M  V30 7 C -1.1011 1.54322 0.4251 0
M  V30 8 C -2.45261 1.43336 0.615636 0
M  V30 9 N -3.19985 2.59794 0.945058 0
M  V30 10 C -3.13675 0.245187 0.504943 0
M  V30 11 C -2.39845 -0.866524 0.186491 0
M  V30 12 C -1.01211 -0.764877 -0.0110281 0
M  V30 13 N -3.03754 -2.11791 0.0571911 0
M  V30 14 H 5.39269 -0.963488 -0.581439 0
M  V30 15 H 4.31082 -1.49077 -1.88216 0
M  V30 16 H 4.0197 -2.03387 -0.157612 0
M  V30 17 H 3.86327 0.521677 0.378716 0
M  V30 18 H 3.57348 0.694487 -1.418 0
M  V30 19 H 1.44305 1.57449 -0.029902 0
M  V30 20 H -0.573049 2.49502 0.51725 0
M  V30 21 H -3.80947 3.01922 0.231618 0
M  V30 22 H -3.09474 2.97365 1.90084 0
M  V30 23 H -4.21281 0.200616 0.664591 0
M  V30 24 H -0.469243 -1.67431 -0.26456 0
M  V30 25 H -3.73347 -2.35984 -0.681428 0
M  V30 26 H -2.77969 -2.85266 0.770577 0
M  V30 END ATOM
M  V30 BEGIN BOND
M  V30 1 1 1 2
M  V30 2 1 2 3
M  V30 3 2 3 4
M  V30 4 1 3 5
M  V30 5 1 5 6
M  V30 6 2 6 7
M  V30 7 1 7 8
M  V30 8 1 8 9
M  V30 9 2 8 10
M  V30 10 1 10 11
M  V30 11 2 11 12
M  V30 12 1 11 13
M  V30 13 1 12 6
M  V30 14 1 1 14
M  V30 15 1 1 15
M  V30 16 1 1 16
M  V30 17 1 2 17
M  V30 18 1 2 18
M  V30 19 1 5 19
M  V30 20 1 7 20
M  V30 21 1 9 21
M  V30 22 1 9 22
M  V30 23 1 10 23
M  V30 24 1 12 24
M  V30 25 1 13 25
M  V30 26 1 13 26
M  V30 END BOND
M  V30 END CTAB
M  END
