
     RDKit          3D

  0  0  0  0  0  0  0  0  0  0999 V3000
M  V30 BEGIN CTAB
M  V30 COUNTS 19 19 0 0 0
M  V30 BEGIN ATOM
M  V30 1 N -3.14601 0.388876 -0.429321 0
M  V30 2 C -2.08549 0.0786126 0.451565 0
M  V30 3 N -2.19275 0.419572 1.68545 0
M  V30 4 N -0.923279 -0.592657 0.000936434 0
M  V30 5 C 0.358614 0.0182001 0.0682715 0
M  V30 6 C 1.5028 -0.616043 -0.364293 0
M  V30 7 N 1.43721 -1.93381 -0.905128 0
M  V30 8 C 2.71321 0.0607111 -0.258952 0
M  V30 9 Cl 4.18529 -0.723041 -0.802039 0
M  V30 10 N 2.72093 1.30509 0.259702 0
M  V30 11 C 1.60868 1.91996 0.679493 0
M  V30 12 N 0.44699 1.266 0.576531 0
M  V30 13 H -3.64764 1.29236 -0.342613 0
M  V30 14 H -3.42843 -0.285739 -1.16762 0
M  V30 15 H -3.02054 0.911755 2.06629 0
M  V30 16 H -0.956365 -1.56659 -0.400984 0
M  V30 17 H 2.00239 -2.22016 -1.7366 0
M  V30 18 H 0.819009 -2.65043 -0.481461 0
M  V30 19 H 1.60537 2.92733 1.10077 0
M  V30 END ATOM
M  V30 BEGIN BOND
M  V30 1 1 1 2
M  V30 2 2 2 3 CFG=2
M  V30 3 1 2 4
M  V30 4 1 4 5
M  V30 5 2 5 6
M  V30 6 1 6 7
M  V30 7 1 6 8
M  V30 8 1 8 9
M  V30 9 2 8 10
M  V30 10 1 10 11
M  V30 11 2 11 12
M  V30 12 1 12 5
M  V30 13 1 1 13
M  V30 14 1 1 14
M  V30 15 1 3 15
M  V30 16 1 4 16
M  V30 17 1 7 17
M  V30 18 1 7 18
M  V30 19 1 11 19
M  V30 END BOND
M  V30 END CTAB
M  END
