
     RDKit          3D

  0  0  0  0  0  0  0  0  0  0999 V3000
M  V30 BEGIN CTAB
M  V30 COUNTS 21 21 0 0 0
M  V30 BEGIN ATOM
M  V30 1 N 4.17675 -0.653271 -0.317599 0
M  V30 2 N 3.26404 -0.160544 0.587847 0
M  V30 3 C 1.89256 0.0769751 0.337324 0
M  V30 4 C 0.987048 -0.954967 0.337987 0
M  V30 5 C -0.378132 -0.74542 0.108567 0
M  V30 6 C -0.8348 0.534879 -0.126295 0
M  V30 7 N 0.0752081 1.53079 -0.121147 0
M  V30 8 C 1.39415 1.33017 0.100249 0
M  V30 9 C -2.2504 0.831041 -0.320568 0
M  V30 10 O -2.60802 2.0008 -0.617121 0
M  V30 11 N -3.22918 -0.164012 -0.183248 0
M  V30 12 N -4.59351 0.100668 -0.373706 0
M  V30 13 H 4.21276 -0.124217 -1.21256 0
M  V30 14 H 5.12484 -0.589158 0.121992 0
M  V30 15 H 3.55174 0.0739777 1.5898 0
M  V30 16 H 1.33096 -1.96095 0.511603 0
M  V30 17 H -1.06426 -1.57071 0.10026 0
M  V30 18 H 2.08066 2.1758 0.0890924 0
M  V30 19 H -3.01864 -1.16851 0.0600615 0
M  V30 20 H -5.17123 -0.212194 0.445682 0
M  V30 21 H -4.94253 -0.351154 -1.26072 0
M  V30 END ATOM
M  V30 BEGIN BOND
M  V30 1 1 1 2
M  V30 2 1 2 3
M  V30 3 2 3 4
M  V30 4 1 4 5
M  V30 5 2 5 6
M  V30 6 1 6 7
M  V30 7 2 7 8
M  V30 8 1 6 9
M  V30 9 2 9 10
M  V30 10 1 9 11
M  V30 11 1 11 12
M  V30 12 1 8 3
M  V30 13 1 1 13
M  V30 14 1 1 14
M  V30 15 1 2 15
M  V30 16 1 4 16
M  V30 17 1 5 17
M  V30 18 1 8 18
M  V30 19 1 11 19
M  V30 20 1 12 20
M  V30 21 1 12 21
M  V30 END BOND
M  V30 END CTAB
M  END
