
     RDKit          3D

  0  0  0  0  0  0  0  0  0  0999 V3000
M  V30 BEGIN CTAB
M  V30 COUNTS 35 36 0 0 0
M  V30 BEGIN ATOM
M  V30 1 C 2.67513 1.49663 -0.137612 0
M  V30 2 C 3.05086 0.065631 0.172086 0
M  V30 3 N 2.75808 -0.214692 1.53957 0
M  V30 4 C 2.26021 -0.820368 -0.783136 0
M  V30 5 C 0.802535 -0.656922 -0.629203 0
M  V30 6 C 0.0652416 0.277713 -1.35094 0
M  V30 7 C -1.30937 0.401936 -1.17757 0
M  V30 8 C -1.97069 -0.410891 -0.275133 0
M  V30 9 C -1.22181 -1.31766 0.418008 0
M  V30 10 C 0.137783 -1.47018 0.274369 0
M  V30 11 N -3.38331 -0.259142 -0.119679 0
M  V30 12 C -4.26233 -1.27142 -0.0327546 0
M  V30 13 C -5.54219 -0.783595 0.111169 0
M  V30 14 N -5.40889 0.576186 0.108663 0
M  V30 15 C -4.10093 0.885793 -0.0312666 0
M  V30 16 N -3.52784 2.18138 -0.0823101 0
M  V30 17 C 4.48059 -0.203593 -0.0906159 0
M  V30 18 O 5.05055 -0.0194662 -1.33898 0
M  V30 19 O 5.19763 -0.612577 0.8526 0
M  V30 20 H 1.67517 1.725 0.223009 0
M  V30 21 H 3.41893 2.1494 0.361138 0
M  V30 22 H 2.69646 1.64364 -1.23602 0
M  V30 23 H 2.96431 -1.18243 1.82648 0
M  V30 24 H 1.83174 0.134182 1.86198 0
M  V30 25 H 2.57754 -0.526248 -1.81368 0
M  V30 26 H 2.56032 -1.886 -0.643118 0
M  V30 27 H 0.562689 0.920442 -2.05935 0
M  V30 28 H -1.83241 1.15102 -1.77033 0
M  V30 29 H -1.72483 -1.95758 1.12473 0
M  V30 30 H 0.716031 -2.19468 0.832402 0
M  V30 31 H -4.01736 -2.32102 -0.068777 0
M  V30 32 H -6.4566 -1.35899 0.205807 0
M  V30 33 H -4.00813 2.94804 -0.619489 0
M  V30 34 H -2.63278 2.42083 0.396485 0
M  V30 35 H 5.91766 0.489641 -1.4091 0
M  V30 END ATOM
M  V30 BEGIN BOND
M  V30 1 1 1 2
M  V30 2 1 2 3
M  V30 3 1 2 4
M  V30 4 1 4 5
M  V30 5 2 5 6
M  V30 6 1 6 7
M  V30 7 2 7 8
M  V30 8 1 8 9
M  V30 9 2 9 10
M  V30 10 1 8 11
M  V30 11 1 11 12
M  V30 12 2 12 13
M  V30 13 1 13 14
M  V30 14 2 14 15
M  V30 15 1 15 16
M  V30 16 1 2 17
M  V30 17 1 17 18
M  V30 18 2 17 19
M  V30 19 1 10 5
M  V30 20 1 15 11
M  V30 21 1 1 20
M  V30 22 1 1 21
M  V30 23 1 1 22
M  V30 24 1 3 23
M  V30 25 1 3 24
M  V30 26 1 4 25
M  V30 27 1 4 26
M  V30 28 1 6 27
M  V30 29 1 7 28
M  V30 30 1 9 29
M  V30 31 1 10 30
M  V30 32 1 12 31
M  V30 33 1 13 32
M  V30 34 1 16 33
M  V30 35 1 16 34
M  V30 36 1 18 35
M  V30 END BOND
M  V30 END CTAB
M  END
