
     RDKit          3D

  0  0  0  0  0  0  0  0  0  0999 V3000
M  V30 BEGIN CTAB
M  V30 COUNTS 94 96 0 0 0
M  V30 BEGIN ATOM
M  V30 1 C -7.10857 -3.63913 -0.258842 0
M  V30 2 C -5.75377 -3.69512 0.392326 0
M  V30 3 C -4.88438 -4.79668 -0.136317 0
M  V30 4 C -5.0897 -2.35108 0.201767 0
M  V30 5 C -4.78565 -1.88367 -1.04201 0
M  V30 6 C -4.16464 -0.626224 -1.23685 0
M  V30 7 C -3.94719 -0.261719 -2.64396 0
M  V30 8 C -4.80661 -1.18977 -3.56657 0
M  V30 9 C -2.53712 -0.650464 -3.02258 0
M  V30 10 C -3.83463 0.186144 -0.185901 0
M  V30 11 C -4.15907 -0.319921 1.08741 0
M  V30 12 C -4.77134 -1.55803 1.26286 0
M  V30 13 C -3.84038 0.41121 2.30834 0
M  V30 14 C -4.64196 -0.163176 3.50321 0
M  V30 15 C -2.38613 0.0853615 2.67891 0
M  V30 16 S -3.09096 1.69956 -0.358482 0
M  V30 17 O -3.29524 2.33676 -1.75966 0
M  V30 18 O -3.9331 2.72684 0.462787 0
M  V30 19 N -1.51011 1.98862 0.0329054 0
M  V30 20 C -0.403528 1.37496 -0.545837 0 CFG=1
M  V30 21 C 0.205763 2.54248 -1.44968 0
M  V30 22 C 0.561809 3.69554 -0.600888 0
M  V30 23 C -0.412334 4.63064 -0.320181 0
M  V30 24 C -0.173346 5.74924 0.450081 0
M  V30 25 C 1.11631 5.88608 0.934129 0
M  V30 26 C 2.10812 4.96588 0.667821 0
M  V30 27 C 1.83815 3.84525 -0.113361 0
M  V30 28 C 3.4446 5.18745 1.21958 0
M  V30 29 N 3.69498 6.3347 2.01681 0
M  V30 30 N 4.41757 4.36633 1.00595 0
M  V30 31 C 0.707475 1.07987 0.386381 0
M  V30 32 O 0.643453 1.57554 1.56068 0
M  V30 33 N 1.82399 0.268613 0.00945484 0
M  V30 34 C 2.87333 0.0743933 0.98962 0
M  V30 35 C 3.8231 -1.02873 0.669688 0
M  V30 36 N 4.25417 -0.886872 -0.706673 0
M  V30 37 C 3.438 -0.157472 -1.66694 0
M  V30 38 C 1.98004 -0.387441 -1.25702 0
M  V30 39 C 5.49662 -1.47424 -1.11787 0
M  V30 40 O 5.87687 -1.35953 -2.31152 0
M  V30 41 C 6.3537 -2.21709 -0.1749 0
M  V30 42 C 7.56797 -2.79373 -0.847204 0
M  V30 43 C 8.45132 -3.54876 0.0987354 0
M  V30 44 N 9.58184 -4.05551 -0.66683 0
M  V30 45 H -7.63086 -4.58083 -0.0731303 0
M  V30 46 H -7.09296 -3.42633 -1.321 0
M  V30 47 H -7.67792 -2.82838 0.246471 0
M  V30 48 H -5.9219 -3.8878 1.47151 0
M  V30 49 H -4.07464 -4.97463 0.595574 0
M  V30 50 H -4.42813 -4.56616 -1.12534 0
M  V30 51 H -5.48959 -5.71795 -0.215103 0
M  V30 52 H -5.03198 -2.51207 -1.88495 0
M  V30 53 H -4.12913 0.755276 -2.94321 0
M  V30 54 H -5.82906 -1.2509 -3.21523 0
M  V30 55 H -4.34345 -2.15079 -3.72129 0
M  V30 56 H -4.77479 -0.655412 -4.56103 0
M  V30 57 H -2.01741 -1.17469 -2.18565 0
M  V30 58 H -2.50549 -1.26316 -3.93826 0
M  V30 59 H -1.97542 0.284029 -3.27935 0
M  V30 60 H -5.02152 -1.94505 2.25833 0
M  V30 61 H -3.98057 1.47066 2.33811 0
M  V30 62 H -5.6833 -0.321313 3.24071 0
M  V30 63 H -4.55194 0.595078 4.32474 0
M  V30 64 H -4.11817 -1.07933 3.81076 0
M  V30 65 H -2.32683 -0.62081 3.54134 0
M  V30 66 H -1.93503 -0.408024 1.80221 0
M  V30 67 H -1.83373 1.01311 2.89754 0
M  V30 68 H -1.33142 2.4769 0.944455 0
M  V30 69 H -0.533622 0.54444 -1.23264 0
M  V30 70 H 1.12097 2.19028 -1.92289 0
M  V30 71 H -0.565375 2.74313 -2.20403 0
M  V30 72 H -1.41083 4.48043 -0.72262 0
M  V30 73 H -0.951929 6.47572 0.661881 0
M  V30 74 H 1.3309 6.75436 1.54082 0
M  V30 75 H 2.64783 3.15665 -0.2966 0
M  V30 76 H 3.77936 6.31632 3.05614 0
M  V30 77 H 3.79825 7.24632 1.51132 0
M  V30 78 H 5.36625 4.48012 1.37033 0
M  V30 79 H 2.47262 0.0164555 2.02187 0
M  V30 80 H 3.47285 1.03168 0.972365 0
M  V30 81 H 4.6913 -0.935427 1.34664 0
M  V30 82 H 3.33214 -2.0346 0.795781 0
M  V30 83 H 3.65244 -0.51612 -2.67383 0
M  V30 84 H 3.6845 0.91419 -1.54358 0
M  V30 85 H 1.92948 -1.51313 -1.109 0
M  V30 86 H 1.2609 -0.150343 -2.02875 0
M  V30 87 H 6.73864 -1.50904 0.61062 0
M  V30 88 H 5.74833 -2.97017 0.365123 0
M  V30 89 H 8.10785 -1.9626 -1.34274 0
M  V30 90 H 7.26444 -3.53229 -1.64667 0
M  V30 91 H 7.90635 -4.42012 0.501752 0
M  V30 92 H 8.87432 -2.89988 0.898299 0
M  V30 93 H 9.93505 -4.96147 -0.275953 0
M  V30 94 H 9.32285 -4.14342 -1.68381 0
M  V30 END ATOM
M  V30 BEGIN BOND
M  V30 1 1 1 2
M  V30 2 1 2 3
M  V30 3 1 2 4
M  V30 4 2 4 5
M  V30 5 1 5 6
M  V30 6 1 6 7
M  V30 7 1 7 8
M  V30 8 1 7 9
M  V30 9 2 6 10
M  V30 10 1 10 11
M  V30 11 2 11 12
M  V30 12 1 11 13
M  V30 13 1 13 14
M  V30 14 1 13 15
M  V30 15 1 10 16
M  V30 16 2 16 17
M  V30 17 2 16 18
M  V30 18 1 16 19
M  V30 19 1 19 20
M  V30 20 1 20 21
M  V30 21 1 21 22
M  V30 22 2 22 23
M  V30 23 1 23 24
M  V30 24 2 24 25
M  V30 25 1 25 26
M  V30 26 2 26 27
M  V30 27 1 26 28
M  V30 28 1 28 29
M  V30 29 2 28 30 CFG=2
M  V30 30 1 20 31
M  V30 31 2 31 32
M  V30 32 1 31 33
M  V30 33 1 33 34
M  V30 34 1 34 35
M  V30 35 1 35 36
M  V30 36 1 36 37
M  V30 37 1 37 38
M  V30 38 1 36 39
M  V30 39 2 39 40
M  V30 40 1 39 41
M  V30 41 1 41 42
M  V30 42 1 42 43
M  V30 43 1 43 44
M  V30 44 1 12 4
M  V30 45 1 27 22
M  V30 46 1 38 33
M  V30 47 1 1 45
M  V30 48 1 1 46
M  V30 49 1 1 47
M  V30 50 1 2 48
M  V30 51 1 3 49
M  V30 52 1 3 50
M  V30 53 1 3 51
M  V30 54 1 5 52
M  V30 55 1 7 53
M  V30 56 1 8 54
M  V30 57 1 8 55
M  V30 58 1 8 56
M  V30 59 1 9 57
M  V30 60 1 9 58
M  V30 61 1 9 59
M  V30 62 1 12 60
M  V30 63 1 13 61
M  V30 64 1 14 62
M  V30 65 1 14 63
M  V30 66 1 14 64
M  V30 67 1 15 65
M  V30 68 1 15 66
M  V30 69 1 15 67
M  V30 70 1 19 68
M  V30 71 1 20 69 CFG=3
M  V30 72 1 21 70
M  V30 73 1 21 71
M  V30 74 1 23 72
M  V30 75 1 24 73
M  V30 76 1 25 74
M  V30 77 1 27 75
M  V30 78 1 29 76
M  V30 79 1 29 77
M  V30 80 1 30 78
M  V30 81 1 34 79
M  V30 82 1 34 80
M  V30 83 1 35 81
M  V30 84 1 35 82
M  V30 85 1 37 83
M  V30 86 1 37 84
M  V30 87 1 38 85
M  V30 88 1 38 86
M  V30 89 1 41 87
M  V30 90 1 41 88
M  V30 91 1 42 89
M  V30 92 1 42 90
M  V30 93 1 43 91
M  V30 94 1 43 92
M  V30 95 1 44 93
M  V30 96 1 44 94
M  V30 END BOND
M  V30 END CTAB
M  END
