
     RDKit          3D

  0  0  0  0  0  0  0  0  0  0999 V3000
M  V30 BEGIN CTAB
M  V30 COUNTS 43 43 0 0 0
M  V30 BEGIN ATOM
M  V30 1 C -0.434167 4.09991 -1.07948 0
M  V30 2 C -0.0998869 2.90304 -0.244314 0
M  V30 3 O 0.220278 3.11826 0.94621 0
M  V30 4 N -0.152549 1.6022 -0.80321 0
M  V30 5 C 0.168478 0.429732 -0.00216772 0 CFG=2
M  V30 6 C 1.48363 -0.0896804 -0.524629 0 CFG=2
M  V30 7 C 1.30447 -1.08084 -1.60927 0
M  V30 8 C 0.248827 -1.87192 -1.66593 0
M  V30 9 O -0.692379 -1.74433 -0.670325 0
M  V30 10 C -0.932316 -0.550524 0.0025853 0 CFG=1
M  V30 11 C -1.43259 -0.934035 1.40335 0 CFG=2
M  V30 12 O -2.59461 -1.70951 1.29068 0
M  V30 13 C -1.85881 0.27428 2.20747 0 CFG=2
M  V30 14 O -2.32248 -0.257193 3.43929 0
M  V30 15 C -3.05953 0.944616 1.58541 0
M  V30 16 O -4.11567 0.103941 1.34893 0
M  V30 17 C 0.141932 -2.82317 -2.76568 0
M  V30 18 O -0.978797 -3.64101 -2.79763 0
M  V30 19 O 1.01909 -2.90075 -3.64196 0
M  V30 20 N 2.28981 -0.724911 0.499501 0
M  V30 21 C 3.58815 -0.75097 0.321438 0
M  V30 22 N 4.45155 -1.35353 1.27575 0
M  V30 23 N 4.19471 -0.176764 -0.83666 0
M  V30 24 H 0.321965 4.9061 -0.954166 0
M  V30 25 H -0.454041 3.85003 -2.15266 0
M  V30 26 H -1.43592 4.48023 -0.814524 0
M  V30 27 H -0.43274 1.50732 -1.82249 0
M  V30 28 H 0.372402 0.774217 1.02655 0
M  V30 29 H 2.08304 0.747162 -0.931176 0
M  V30 30 H 2.07771 -1.13575 -2.36081 0
M  V30 31 H -1.83363 -0.0748708 -0.48663 0
M  V30 32 H -0.612222 -1.45714 1.91929 0
M  V30 33 H -2.41665 -2.6083 0.954458 0
M  V30 34 H -1.07235 0.99735 2.40802 0
M  V30 35 H -3.22184 -0.644814 3.28752 0
M  V30 36 H -2.82678 1.47012 0.637531 0
M  V30 37 H -3.4409 1.73641 2.29574 0
M  V30 38 H -4.82774 0.113288 2.00527 0
M  V30 39 H -1.10508 -4.38849 -3.4741 0
M  V30 40 H 4.82816 -0.849616 2.11026 0
M  V30 41 H 4.74157 -2.34946 1.16345 0
M  V30 42 H 4.2625 0.852381 -0.893889 0
M  V30 43 H 4.55541 -0.792999 -1.59702 0
M  V30 END ATOM
M  V30 BEGIN BOND
M  V30 1 1 1 2
M  V30 2 2 2 3
M  V30 3 1 2 4
M  V30 4 1 4 5
M  V30 5 1 5 6
M  V30 6 1 6 7
M  V30 7 2 7 8
M  V30 8 1 8 9
M  V30 9 1 9 10
M  V30 10 1 10 11
M  V30 11 1 11 12
M  V30 12 1 11 13
M  V30 13 1 13 14
M  V30 14 1 13 15
M  V30 15 1 15 16
M  V30 16 1 8 17
M  V30 17 1 17 18
M  V30 18 2 17 19
M  V30 19 1 6 20
M  V30 20 2 20 21
M  V30 21 1 21 22
M  V30 22 1 21 23
M  V30 23 1 10 5
M  V30 24 1 1 24
M  V30 25 1 1 25
M  V30 26 1 1 26
M  V30 27 1 4 27
M  V30 28 1 5 28 CFG=1
M  V30 29 1 6 29 CFG=3
M  V30 30 1 7 30
M  V30 31 1 10 31 CFG=3
M  V30 32 1 11 32 CFG=1
M  V30 33 1 12 33
M  V30 34 1 13 34 CFG=1
M  V30 35 1 14 35
M  V30 36 1 15 36
M  V30 37 1 15 37
M  V30 38 1 16 38
M  V30 39 1 18 39
M  V30 40 1 22 40
M  V30 41 1 22 41
M  V30 42 1 23 42
M  V30 43 1 23 43
M  V30 END BOND
M  V30 END CTAB
M  END
