
     RDKit          3D

  0  0  0  0  0  0  0  0  0  0999 V3000
M  V30 BEGIN CTAB
M  V30 COUNTS 38 40 0 0 0
M  V30 BEGIN ATOM
M  V30 1 N 6.63288 1.953 0.879093 0
M  V30 2 C 6.69106 0.658343 0.295415 0
M  V30 3 N 7.83262 0.124489 0.046613 0
M  V30 4 C 5.47506 -0.0677665 -0.0229019 0
M  V30 5 C 5.42297 -1.32152 -0.587426 0
M  V30 6 C 4.06876 -1.59235 -0.699596 0
M  V30 7 C 3.3605 -0.515739 -0.209353 0
M  V30 8 O 4.23388 0.362036 0.179787 0
M  V30 9 C 1.90507 -0.383785 -0.1393 0
M  V30 10 C 1.30027 0.750418 0.376148 0
M  V30 11 N -0.032648 0.877806 0.443276 0
M  V30 12 C -0.898512 -0.0875854 0.0146316 0
M  V30 13 C -0.330654 -1.22084 -0.500119 0
M  V30 14 C 1.05847 -1.37727 -0.580747 0
M  V30 15 C -2.32803 0.0917372 0.105895 0
M  V30 16 C -3.17803 -0.895576 -0.332776 0
M  V30 17 C -4.5511 -0.71401 -0.240861 0
M  V30 18 C -5.10917 0.437746 0.282266 0
M  V30 19 C -4.2615 1.41528 0.716545 0
M  V30 20 C -2.89795 1.24523 0.62989 0
M  V30 21 C -6.56229 0.567906 0.351619 0
M  V30 22 N -7.38917 -0.49926 -0.12315 0
M  V30 23 N -7.14214 1.59721 0.8197 0
M  V30 24 H 7.46813 2.59064 0.849742 0
M  V30 25 H 5.77065 2.28012 1.33741 0
M  V30 26 H 7.96705 -0.801908 -0.371715 0
M  V30 27 H 6.28986 -1.90541 -0.856818 0
M  V30 28 H 3.66169 -2.50687 -1.10869 0
M  V30 29 H 1.91207 1.56381 0.738156 0
M  V30 30 H -0.906992 -2.0549 -0.871709 0
M  V30 31 H 1.51279 -2.2693 -0.985982 0
M  V30 32 H -2.8673 -1.83596 -0.758842 0
M  V30 33 H -5.21334 -1.491 -0.586133 0
M  V30 34 H -4.64107 2.32759 1.13046 0
M  V30 35 H -2.20206 2.02104 0.974369 0
M  V30 36 H -7.56264 -0.555464 -1.15036 0
M  V30 37 H -7.81861 -1.21016 0.497092 0
M  V30 38 H -6.67061 2.44229 1.19702 0
M  V30 END ATOM
M  V30 BEGIN BOND
M  V30 1 1 1 2
M  V30 2 2 2 3 CFG=2
M  V30 3 1 2 4
M  V30 4 2 4 5
M  V30 5 1 5 6
M  V30 6 2 6 7
M  V30 7 1 7 8
M  V30 8 1 7 9
M  V30 9 2 9 10
M  V30 10 1 10 11
M  V30 11 2 11 12
M  V30 12 1 12 13
M  V30 13 2 13 14
M  V30 14 1 12 15
M  V30 15 2 15 16
M  V30 16 1 16 17
M  V30 17 2 17 18
M  V30 18 1 18 19
M  V30 19 2 19 20
M  V30 20 1 18 21
M  V30 21 1 21 22
M  V30 22 2 21 23 CFG=2
M  V30 23 1 8 4
M  V30 24 1 14 9
M  V30 25 1 20 15
M  V30 26 1 1 24
M  V30 27 1 1 25
M  V30 28 1 3 26
M  V30 29 1 5 27
M  V30 30 1 6 28
M  V30 31 1 10 29
M  V30 32 1 13 30
M  V30 33 1 14 31
M  V30 34 1 16 32
M  V30 35 1 17 33
M  V30 36 1 19 34
M  V30 37 1 20 35
M  V30 38 1 22 36
M  V30 39 1 22 37
M  V30 40 1 23 38
M  V30 END BOND
M  V30 END CTAB
M  END
