
     RDKit          3D

  0  0  0  0  0  0  0  0  0  0999 V3000
M  V30 BEGIN CTAB
M  V30 COUNTS 21 22 0 0 0
M  V30 BEGIN ATOM
M  V30 1 O -2.41165 -2.31285 -0.610518 0 CHG=-1
M  V30 2 N -1.94886 -1.44399 0.327026 0 CHG=1
M  V30 3 O -2.48092 -1.44666 1.4748 0
M  V30 4 C -0.896858 -0.506506 0.13144 0
M  V30 5 C -1.15757 0.841934 0.0156796 0
M  V30 6 N -2.52154 1.28252 0.096792 0
M  V30 7 C -0.127062 1.76826 -0.173426 0
M  V30 8 N -0.293743 3.09032 -0.297951 0
M  V30 9 S 1.25859 3.68269 -0.503835 0
M  V30 10 N 2.09432 2.23111 -0.424442 0
M  V30 11 C 1.13555 1.31266 -0.240086 0
M  V30 12 C 1.38957 -0.0692422 -0.11966 0
M  V30 13 C 0.379092 -0.98738 0.0667483 0
M  V30 14 N 0.674708 -2.3796 0.190636 0
M  V30 15 N 2.71252 -0.585904 -0.190393 0 CHG=1
M  V30 16 O 3.42871 -0.43496 0.822955 0
M  V30 17 O 3.24777 -1.22802 -1.27602 0 CHG=-1
M  V30 18 H -2.77968 2.25885 -0.138724 0
M  V30 19 H -3.25753 0.637981 0.384544 0
M  V30 20 H -0.0588998 -3.06111 -0.0794719 0
M  V30 21 H 1.61346 -2.6501 0.543901 0
M  V30 END ATOM
M  V30 BEGIN BOND
M  V30 1 1 1 2
M  V30 2 2 2 3
M  V30 3 1 2 4
M  V30 4 2 4 5
M  V30 5 1 5 6
M  V30 6 1 5 7
M  V30 7 2 7 8
M  V30 8 1 8 9
M  V30 9 1 9 10
M  V30 10 2 10 11
M  V30 11 1 11 12
M  V30 12 2 12 13
M  V30 13 1 13 14
M  V30 14 1 12 15
M  V30 15 2 15 16
M  V30 16 1 15 17
M  V30 17 1 13 4
M  V30 18 1 11 7
M  V30 19 1 6 18
M  V30 20 1 6 19
M  V30 21 1 14 20
M  V30 22 1 14 21
M  V30 END BOND
M  V30 END CTAB
M  END
