
     RDKit          3D

  0  0  0  0  0  0  0  0  0  0999 V3000
M  V30 BEGIN CTAB
M  V30 COUNTS 29 29 0 0 0
M  V30 BEGIN ATOM
M  V30 1 C -5.50375 -0.111035 -0.357074 0
M  V30 2 C -4.21029 -0.397733 0.375602 0
M  V30 3 O -3.14801 -0.0227083 -0.48074 0
M  V30 4 C -1.81571 -0.136207 -0.160265 0
M  V30 5 O -1.49616 -0.599501 0.958129 0
M  V30 6 C -0.783226 0.277301 -1.10961 0
M  V30 7 C 0.587039 0.0952016 -0.623703 0
M  V30 8 C 1.17854 1.13734 0.0624044 0
M  V30 9 C 2.46546 1.07547 0.565153 0
M  V30 10 N 3.07413 2.13828 1.26712 0
M  V30 11 C 3.2075 -0.0867782 0.376204 0
M  V30 12 C 2.62033 -1.11549 -0.302413 0
M  V30 13 C 1.33203 -1.04718 -0.802991 0
M  V30 14 C 3.39778 -2.3269 -0.497692 0
M  V30 15 N 3.99979 -3.29841 -0.653467 0
M  V30 16 N 4.53547 -0.150793 0.894908 0
M  V30 17 H -5.51023 -0.787236 -1.25239 0
M  V30 18 H -6.37227 -0.289443 0.301753 0
M  V30 19 H -5.57014 0.917299 -0.72854 0
M  V30 20 H -4.23038 0.195667 1.30943 0
M  V30 21 H -4.13215 -1.48112 0.545021 0
M  V30 22 H -0.950085 1.35623 -1.39704 0
M  V30 23 H -0.863144 -0.274798 -2.09201 0
M  V30 24 H 0.649885 2.07921 0.245396 0
M  V30 25 H 3.0981 2.11417 2.29808 0
M  V30 26 H 3.49008 2.92957 0.758347 0
M  V30 27 H 0.885825 -1.87627 -1.33881 0
M  V30 28 H 5.03614 -1.04678 1.02445 0
M  V30 29 H 5.02744 0.732639 1.15577 0
M  V30 END ATOM
M  V30 BEGIN BOND
M  V30 1 1 1 2
M  V30 2 1 2 3
M  V30 3 1 3 4
M  V30 4 2 4 5
M  V30 5 1 4 6
M  V30 6 1 6 7
M  V30 7 2 7 8
M  V30 8 1 8 9
M  V30 9 1 9 10
M  V30 10 2 9 11
M  V30 11 1 11 12
M  V30 12 2 12 13
M  V30 13 1 12 14
M  V30 14 3 14 15
M  V30 15 1 11 16
M  V30 16 1 13 7
M  V30 17 1 1 17
M  V30 18 1 1 18
M  V30 19 1 1 19
M  V30 20 1 2 20
M  V30 21 1 2 21
M  V30 22 1 6 22
M  V30 23 1 6 23
M  V30 24 1 8 24
M  V30 25 1 10 25
M  V30 26 1 10 26
M  V30 27 1 13 27
M  V30 28 1 16 28
M  V30 29 1 16 29
M  V30 END BOND
M  V30 END CTAB
M  END
