
     RDKit          3D

  0  0  0  0  0  0  0  0  0  0999 V3000
M  V30 BEGIN CTAB
M  V30 COUNTS 24 25 0 0 0
M  V30 BEGIN ATOM
M  V30 1 C 2.21166 -1.86085 -0.142934 0
M  V30 2 C 1.07053 -0.90946 -0.0720334 0
M  V30 3 N -0.196606 -1.35163 -0.171638 0
M  V30 4 C -1.2581 -0.508793 -0.110706 0
M  V30 5 C -2.61779 -0.755788 -0.190531 0
M  V30 6 N -3.25461 -2.01974 -0.364548 0
M  V30 7 C -3.20755 0.493438 -0.0637539 0
M  V30 8 N -2.22983 1.40676 0.0811947 0
M  V30 9 N -1.03653 0.809006 0.054324 0
M  V30 10 C 0.194228 1.34557 0.163811 0
M  V30 11 N 0.417531 2.73782 0.337758 0
M  V30 12 C 1.2521 0.448054 0.0962376 0
M  V30 13 C 2.61475 1.0026 0.212729 0
M  V30 14 H 1.90675 -2.77733 0.443633 0
M  V30 15 H 2.40822 -2.19996 -1.1819 0
M  V30 16 H 3.11481 -1.48026 0.368059 0
M  V30 17 H -3.81775 -2.27526 -1.18947 0
M  V30 18 H -3.16614 -2.76822 0.378849 0
M  V30 19 H -4.27693 0.66044 -0.0835477 0
M  V30 20 H 1.16235 3.1593 0.930678 0
M  V30 21 H -0.21287 3.39471 -0.167128 0
M  V30 22 H 2.9157 1.00467 1.27735 0
M  V30 23 H 2.65987 2.03746 -0.232773 0
M  V30 24 H 3.34621 0.407451 -0.373658 0
M  V30 END ATOM
M  V30 BEGIN BOND
M  V30 1 1 1 2
M  V30 2 2 2 3
M  V30 3 1 3 4
M  V30 4 2 4 5
M  V30 5 1 5 6
M  V30 6 1 5 7
M  V30 7 2 7 8
M  V30 8 1 8 9
M  V30 9 1 9 10
M  V30 10 1 10 11
M  V30 11 2 10 12
M  V30 12 1 12 13
M  V30 13 1 12 2
M  V30 14 1 9 4
M  V30 15 1 1 14
M  V30 16 1 1 15
M  V30 17 1 1 16
M  V30 18 1 6 17
M  V30 19 1 6 18
M  V30 20 1 7 19
M  V30 21 1 11 20
M  V30 22 1 11 21
M  V30 23 1 13 22
M  V30 24 1 13 23
M  V30 25 1 13 24
M  V30 END BOND
M  V30 END CTAB
M  END
