
     RDKit          3D

  0  0  0  0  0  0  0  0  0  0999 V3000
M  V30 BEGIN CTAB
M  V30 COUNTS 30 31 0 0 0
M  V30 BEGIN ATOM
M  V30 1 C 2.40177 -0.782796 1.28932 0
M  V30 2 C 2.15076 0.661744 0.957441 0
M  V30 3 C 1.87285 0.860965 -0.513693 0
M  V30 4 C 1.60838 2.25351 -0.965307 0
M  V30 5 C 2.92366 1.58104 -1.29634 0
M  V30 6 N 1.07194 -0.15711 -1.16127 0
M  V30 7 C -0.251511 -0.462158 -0.750727 0
M  V30 8 C -0.952954 -1.43819 -1.40864 0
M  V30 9 C -2.25494 -1.75436 -1.022 0
M  V30 10 C -2.85043 -1.0879 0.0268206 0
M  V30 11 C -2.11284 -0.113073 0.663273 0
M  V30 12 N -0.859187 0.169204 0.267166 0
M  V30 13 N -2.70026 0.595069 1.75242 0
M  V30 14 N -4.16768 -1.39296 0.433934 0
M  V30 15 H 2.88678 -1.33401 0.458625 0
M  V30 16 H 3.06939 -0.813965 2.18782 0
M  V30 17 H 1.46784 -1.30949 1.57129 0
M  V30 18 H 3.00392 1.26304 1.31341 0
M  V30 19 H 1.25507 0.986529 1.52504 0
M  V30 20 H 0.994509 2.47095 -1.84998 0
M  V30 21 H 1.59045 3.04702 -0.185199 0
M  V30 22 H 3.78532 2.00107 -0.751358 0
M  V30 23 H 3.09924 1.21393 -2.31174 0
M  V30 24 H 1.50528 -0.670803 -1.95529 0
M  V30 25 H -0.555309 -2.00733 -2.24243 0
M  V30 26 H -2.83227 -2.51111 -1.51343 0
M  V30 27 H -3.57914 1.16808 1.60561 0
M  V30 28 H -2.28378 0.566889 2.71054 0
M  V30 29 H -4.58288 -0.880183 1.22955 0
M  V30 30 H -4.70398 -2.1236 -0.0648554 0
M  V30 END ATOM
M  V30 BEGIN BOND
M  V30 1 1 1 2
M  V30 2 1 2 3
M  V30 3 1 3 4
M  V30 4 1 4 5
M  V30 5 1 3 6
M  V30 6 1 6 7
M  V30 7 2 7 8
M  V30 8 1 8 9
M  V30 9 2 9 10
M  V30 10 1 10 11
M  V30 11 2 11 12
M  V30 12 1 11 13
M  V30 13 1 10 14
M  V30 14 1 5 3
M  V30 15 1 12 7
M  V30 16 1 1 15
M  V30 17 1 1 16
M  V30 18 1 1 17
M  V30 19 1 2 18
M  V30 20 1 2 19
M  V30 21 1 4 20
M  V30 22 1 4 21
M  V30 23 1 5 22
M  V30 24 1 5 23
M  V30 25 1 6 24
M  V30 26 1 8 25
M  V30 27 1 9 26
M  V30 28 1 13 27
M  V30 29 1 13 28
M  V30 30 1 14 29
M  V30 31 1 14 30
M  V30 END BOND
M  V30 END CTAB
M  END
