
     RDKit          3D

  0  0  0  0  0  0  0  0  0  0999 V3000
M  V30 BEGIN CTAB
M  V30 COUNTS 57 58 0 0 0
M  V30 BEGIN ATOM
M  V30 1 C -3.6318 2.75763 1.32626 0
M  V30 2 N -3.11359 1.53464 0.742413 0
M  V30 3 C -1.77505 1.42885 0.424539 0
M  V30 4 C -1.52087 0.20604 -0.123553 0
M  V30 5 N -0.304893 -0.387512 -0.56842 0
M  V30 6 C 0.97314 0.0498113 -0.173375 0
M  V30 7 O 0.948528 1.05249 0.641418 0
M  V30 8 C 2.23856 -0.492372 -0.573738 0
M  V30 9 C 3.44359 0.0314653 -0.138581 0
M  V30 10 C 4.49663 -0.684602 -0.670286 0
M  V30 11 N 5.85896 -0.394642 -0.401069 0
M  V30 12 C 6.90447 -1.06348 -1.05345 0
M  V30 13 O 6.67347 -1.97403 -1.93293 0
M  V30 14 C 8.32608 -0.770168 -0.777123 0
M  V30 15 N 8.56716 0.232357 0.192218 0
M  V30 16 C 9.94215 0.541541 0.486058 0
M  V30 17 N 10.3329 1.89796 0.410846 0
M  V30 18 N 10.8059 -0.343628 0.80487 0
M  V30 19 C 3.9296 -1.64891 -1.43267 0
M  V30 20 N 2.56457 -1.51188 -1.35807 0
M  V30 21 C 1.68856 -2.39857 -2.06349 0
M  V30 22 C -2.75541 -0.435059 -0.131409 0
M  V30 23 C -3.72838 0.401227 0.409313 0
M  V30 24 C -5.12417 0.048394 0.598377 0
M  V30 25 O -5.53505 -1.03899 0.017485 0
M  V30 26 N -6.0869 0.740791 1.33989 0
M  V30 27 C -7.45932 0.275459 1.44316 0
M  V30 28 C -8.19912 0.194932 0.158085 0
M  V30 29 C -9.5931 -0.300401 0.438531 0
M  V30 30 N -10.4785 -0.46366 -0.650946 0
M  V30 31 N -10.0145 -0.583391 1.61933 0
M  V30 32 H -2.87194 3.59549 1.25326 0
M  V30 33 H -4.50144 3.16501 0.759178 0
M  V30 34 H -3.81667 2.66488 2.40417 0
M  V30 35 H -1.04367 2.21135 0.581968 0
M  V30 36 H -0.420526 -1.18479 -1.22688 0
M  V30 37 H 3.57178 0.877644 0.520214 0
M  V30 38 H 6.06734 0.355445 0.324044 0
M  V30 39 H 8.79228 -1.74301 -0.47193 0
M  V30 40 H 8.8613 -0.543452 -1.75632 0
M  V30 41 H 7.87713 0.774983 0.720387 0
M  V30 42 H 11.0888 2.22468 1.04878 0
M  V30 43 H 9.91447 2.5897 -0.239915 0
M  V30 44 H 10.6253 -1.35899 0.888005 0
M  V30 45 H 4.4384 -2.41184 -2.00946 0
M  V30 46 H 2.26302 -3.21267 -2.57427 0
M  V30 47 H 1.09167 -1.93222 -2.85427 0
M  V30 48 H 1.07439 -2.9684 -1.30463 0
M  V30 49 H -2.95979 -1.42638 -0.4938 0
M  V30 50 H -5.83978 1.60692 1.8488 0
M  V30 51 H -7.4519 -0.757851 1.89806 0
M  V30 52 H -8.02094 0.906281 2.16429 0
M  V30 53 H -7.75558 -0.432593 -0.628869 0
M  V30 54 H -8.3125 1.2238 -0.248591 0
M  V30 55 H -10.8918 0.361331 -1.1219 0
M  V30 56 H -10.7074 -1.42153 -0.970651 0
M  V30 57 H -9.4455 -0.500443 2.48666 0
M  V30 END ATOM
M  V30 BEGIN BOND
M  V30 1 1 1 2
M  V30 2 1 2 3
M  V30 3 2 3 4
M  V30 4 1 4 5
M  V30 5 1 5 6
M  V30 6 2 6 7
M  V30 7 1 6 8
M  V30 8 2 8 9
M  V30 9 1 9 10
M  V30 10 1 10 11
M  V30 11 1 11 12
M  V30 12 2 12 13
M  V30 13 1 12 14
M  V30 14 1 14 15
M  V30 15 1 15 16
M  V30 16 1 16 17
M  V30 17 2 16 18 CFG=2
M  V30 18 2 10 19
M  V30 19 1 19 20
M  V30 20 1 20 21
M  V30 21 1 4 22
M  V30 22 2 22 23
M  V30 23 1 23 24
M  V30 24 2 24 25
M  V30 25 1 24 26
M  V30 26 1 26 27
M  V30 27 1 27 28
M  V30 28 1 28 29
M  V30 29 1 29 30
M  V30 30 2 29 31 CFG=2
M  V30 31 1 23 2
M  V30 32 1 20 8
M  V30 33 1 1 32
M  V30 34 1 1 33
M  V30 35 1 1 34
M  V30 36 1 3 35
M  V30 37 1 5 36
M  V30 38 1 9 37
M  V30 39 1 11 38
M  V30 40 1 14 39
M  V30 41 1 14 40
M  V30 42 1 15 41
M  V30 43 1 17 42
M  V30 44 1 17 43
M  V30 45 1 18 44
M  V30 46 1 19 45
M  V30 47 1 21 46
M  V30 48 1 21 47
M  V30 49 1 21 48
M  V30 50 1 22 49
M  V30 51 1 26 50
M  V30 52 1 27 51
M  V30 53 1 27 52
M  V30 54 1 28 53
M  V30 55 1 28 54
M  V30 56 1 30 55
M  V30 57 1 30 56
M  V30 58 1 31 57
M  V30 END BOND
M  V30 END CTAB
M  END
