
     RDKit          3D

  0  0  0  0  0  0  0  0  0  0999 V3000
M  V30 BEGIN CTAB
M  V30 COUNTS 25 25 0 0 0
M  V30 BEGIN ATOM
M  V30 1 N -3.95746 1.30473 0.0984065 0
M  V30 2 C -2.68453 0.694828 -0.0757441 0
M  V30 3 N -1.75453 1.14545 -0.938761 0
M  V30 4 C -0.54478 0.544349 -1.08816 0
M  V30 5 O 0.317162 1.10432 -2.01125 0
M  V30 6 C -0.248719 -0.560319 -0.338481 0
M  V30 7 C 1.01208 -1.28756 -0.393192 0
M  V30 8 C 2.16272 -0.732722 0.375442 0
M  V30 9 C 2.60163 0.624627 -0.0174129 0
M  V30 10 C 2.56662 1.62665 0.840448 0
M  V30 11 C -1.22826 -1.00914 0.549054 0
M  V30 12 N -1.01924 -2.14784 1.37365 0
M  V30 13 N -2.41632 -0.39405 0.67454 0
M  V30 14 H -4.10873 2.05995 0.803156 0
M  V30 15 H -4.72482 0.938454 -0.532765 0
M  V30 16 H 0.557562 2.08631 -1.9627 0
M  V30 17 H 0.862438 -2.34495 -0.040005 0
M  V30 18 H 1.29191 -1.33131 -1.47927 0
M  V30 19 H 3.08317 -1.36758 0.158611 0
M  V30 20 H 2.04305 -0.821217 1.47789 0
M  V30 21 H 2.9712 0.814892 -1.01598 0
M  V30 22 H 2.89008 2.64236 0.565835 0
M  V30 23 H 2.21877 1.50739 1.87087 0
M  V30 24 H -1.03171 -2.01044 2.41824 0
M  V30 25 H -0.859286 -3.08717 0.954615 0
M  V30 END ATOM
M  V30 BEGIN BOND
M  V30 1 1 1 2
M  V30 2 2 2 3
M  V30 3 1 3 4
M  V30 4 1 4 5
M  V30 5 2 4 6
M  V30 6 1 6 7
M  V30 7 1 7 8
M  V30 8 1 8 9
M  V30 9 2 9 10 CFG=2
M  V30 10 1 6 11
M  V30 11 1 11 12
M  V30 12 2 11 13
M  V30 13 1 13 2
M  V30 14 1 1 14
M  V30 15 1 1 15
M  V30 16 1 5 16
M  V30 17 1 7 17
M  V30 18 1 7 18
M  V30 19 1 8 19
M  V30 20 1 8 20
M  V30 21 1 9 21
M  V30 22 1 10 22
M  V30 23 1 10 23
M  V30 24 1 12 24
M  V30 25 1 12 25
M  V30 END BOND
M  V30 END CTAB
M  END
