
     RDKit          3D

  0  0  0  0  0  0  0  0  0  0999 V3000
M  V30 BEGIN CTAB
M  V30 COUNTS 40 40 0 0 0
M  V30 BEGIN ATOM
M  V30 1 N 4.61618 0.875062 1.47604 0
M  V30 2 C 4.62374 0.05402 0.355115 0 CFG=1
M  V30 3 C 3.20103 0.160776 -0.266334 0
M  V30 4 C 2.28923 -0.318384 0.812058 0
M  V30 5 C 0.836425 -0.309643 0.572692 0
M  V30 6 C 0.356195 -1.14924 -0.565573 0
M  V30 7 N 0.887298 -0.751104 -1.83557 0
M  V30 8 C -1.13558 -1.17995 -0.623592 0
M  V30 9 O -1.69225 -0.876271 -1.69514 0
M  V30 10 O -1.90958 -1.53104 0.462944 0
M  V30 11 C -3.307 -1.57821 0.474853 0
M  V30 12 C -3.96 -0.280479 0.184592 0
M  V30 13 C -3.31994 0.930659 0.212494 0
M  V30 14 C -3.97496 2.12859 -0.0714313 0
M  V30 15 C -5.31107 2.09522 -0.390963 0
M  V30 16 C -5.9834 0.899129 -0.428137 0
M  V30 17 C -5.31028 -0.264388 -0.143495 0
M  V30 18 C 5.63004 0.529075 -0.608354 0
M  V30 19 O 5.86681 -0.0950032 -1.82914 0
M  V30 20 O 6.31226 1.54224 -0.327926 0
M  V30 21 H 4.32555 1.79352 1.32424 0
M  V30 22 H 4.54812 0.475081 2.35068 0
M  V30 23 H 4.74202 -1.0101 0.632326 0
M  V30 24 H 3.02997 1.21321 -0.536247 0
M  V30 25 H 3.21432 -0.457425 -1.19025 0
M  V30 26 H 2.56804 0.259052 1.75016 0
M  V30 27 H 2.61262 -1.37335 1.08501 0
M  V30 28 H 0.418517 0.732219 0.502055 0
M  V30 29 H 0.360247 -0.770541 1.50097 0
M  V30 30 H 0.707372 -2.20914 -0.361488 0
M  V30 31 H 0.125483 -0.339193 -2.42421 0
M  V30 32 H 1.23657 -1.57862 -2.36776 0
M  V30 33 H -3.68804 -1.90708 1.46507 0
M  V30 34 H -3.70769 -2.29779 -0.287777 0
M  V30 35 H -2.278 0.965818 0.463056 0
M  V30 36 H -3.41598 3.04757 -0.0326093 0
M  V30 37 H -5.83218 3.01612 -0.613471 0
M  V30 38 H -7.04288 0.862075 -0.680358 0
M  V30 39 H -5.82867 -1.2078 -0.169928 0
M  V30 40 H 5.18948 -0.094671 -2.57783 0
M  V30 END ATOM
M  V30 BEGIN BOND
M  V30 1 1 1 2
M  V30 2 1 2 3
M  V30 3 1 3 4
M  V30 4 1 4 5
M  V30 5 1 5 6
M  V30 6 1 6 7
M  V30 7 1 6 8
M  V30 8 2 8 9
M  V30 9 1 8 10
M  V30 10 1 10 11
M  V30 11 1 11 12
M  V30 12 2 12 13
M  V30 13 1 13 14
M  V30 14 2 14 15
M  V30 15 1 15 16
M  V30 16 2 16 17
M  V30 17 1 2 18
M  V30 18 1 18 19
M  V30 19 2 18 20
M  V30 20 1 17 12
M  V30 21 1 1 21
M  V30 22 1 1 22
M  V30 23 1 2 23 CFG=1
M  V30 24 1 3 24
M  V30 25 1 3 25
M  V30 26 1 4 26
M  V30 27 1 4 27
M  V30 28 1 5 28
M  V30 29 1 5 29
M  V30 30 1 6 30
M  V30 31 1 7 31
M  V30 32 1 7 32
M  V30 33 1 11 33
M  V30 34 1 11 34
M  V30 35 1 13 35
M  V30 36 1 14 36
M  V30 37 1 15 37
M  V30 38 1 16 38
M  V30 39 1 17 39
M  V30 40 1 19 40
M  V30 END BOND
M  V30 END CTAB
M  END
