
     RDKit          3D

  0  0  0  0  0  0  0  0  0  0999 V3000
M  V30 BEGIN CTAB
M  V30 COUNTS 133 136 0 0 0
M  V30 BEGIN ATOM
M  V30 1 C -1.12327 -2.34881 2.77237 0
M  V30 2 C 0.2278 -1.77449 2.59546 0
M  V30 3 C 0.392259 -0.471572 1.92906 0
M  V30 4 C -0.0853343 -0.367263 0.489459 0
M  V30 5 C -1.49783 -0.608707 0.258938 0
M  V30 6 O -1.95529 -1.56251 -0.465175 0
M  V30 7 N -2.45057 0.231002 0.84418 0
M  V30 8 C -3.93813 0.0759003 0.698369 0
M  V30 9 C -4.39819 1.12567 -0.218301 0
M  V30 10 O -3.65339 2.19358 -0.314912 0
M  V30 11 N -5.53344 1.14534 -1.03373 0
M  V30 12 C -5.80775 2.21059 -2.02133 0
M  V30 13 C -6.39603 1.49697 -3.20932 0
M  V30 14 C -6.56174 0.0435384 -2.73584 0
M  V30 15 C -6.63995 0.245442 -1.19001 0
M  V30 16 C -7.97997 0.85851 -0.945587 0
M  V30 17 O -8.16299 2.03446 -0.593029 0
M  V30 18 N -9.14961 0.0567303 -1.12437 0
M  V30 19 C -10.4911 0.631455 -0.90819 0
M  V30 20 C -11.1936 0.483049 -2.17721 0
M  V30 21 O -10.6785 -0.172034 -3.13628 0
M  V30 22 O -12.4266 1.03267 -2.41061 0
M  V30 23 C -11.1797 -0.0626129 0.207147 0
M  V30 24 C -12.5183 0.498053 0.474047 0
M  V30 25 C -13.7018 -0.0205439 0.00877526 0
M  V30 26 C -14.9331 0.535649 0.277154 0
M  V30 27 C -15.0475 1.67921 1.05091 0
M  V30 28 C -13.8557 2.21299 1.52579 0
M  V30 29 C -12.6339 1.65436 1.2556 0
M  V30 30 C -4.49457 0.16161 2.05483 0
M  V30 31 C -5.89781 0.0592373 2.33959 0
M  V30 32 N -6.77262 1.06164 2.51359 0
M  V30 33 C -7.99422 0.525122 2.81023 0
M  V30 34 N -7.89094 -0.80855 2.82401 0
M  V30 35 C -6.632 -1.11776 2.54052 0
M  V30 36 N 0.839851 -1.21916 -0.245539 0
M  V30 37 C 2.06528 -0.760205 -0.751487 0
M  V30 38 O 2.38048 0.440656 -0.561057 0
M  V30 39 C 2.97608 -1.6457 -1.48288 0
M  V30 40 N 4.20297 -0.942779 -1.78288 0
M  V30 41 C 5.10056 -0.507144 -0.799804 0
M  V30 42 O 4.83631 -0.730205 0.409795 0
M  V30 43 C 6.35546 0.193004 -1.11478 0
M  V30 44 C 6.09498 1.64639 -1.39245 0
M  V30 45 C 7.43686 2.3461 -1.69748 0
M  V30 46 C 5.22733 1.91061 -2.58538 0
M  V30 47 N 7.21542 0.198467 0.100407 0
M  V30 48 C 8.42753 -0.520378 0.112375 0
M  V30 49 O 8.75568 -1.14452 -0.938105 0
M  V30 50 C 9.32018 -0.589373 1.27563 0
M  V30 51 C 10.0293 0.669871 1.64558 0
M  V30 52 C 10.9388 1.22683 0.587009 0
M  V30 53 C 11.599 2.4714 1.16427 0
M  V30 54 N 12.5205 3.05356 0.208164 0
M  V30 55 C 13.2453 4.21859 0.557988 0
M  V30 56 N 14.5155 4.14149 0.672971 0
M  V30 57 N 12.5828 5.45431 0.782315 0
M  V30 58 N 10.3467 -1.64064 1.0606 0
M  V30 59 C 3.16159 -2.93572 -0.728232 0
M  V30 60 C 4.04565 -3.9131 -1.34736 0
M  V30 61 C 3.55816 -4.75181 -2.33553 0
M  V30 62 C 4.36692 -5.70408 -2.91541 0
M  V30 63 C 5.69422 -5.81786 -2.49549 0
M  V30 64 C 6.17107 -4.98072 -1.51101 0
M  V30 65 C 5.3371 -4.05517 -0.966738 0
M  V30 66 O 6.54667 -6.75735 -3.0492 0
M  V30 67 C 0.0474145 0.736525 2.76625 0
M  V30 68 H -1.52684 -2.94786 1.94773 0
M  V30 69 H -1.02574 -3.11394 3.62267 0
M  V30 70 H -1.89159 -1.66118 3.12857 0
M  V30 71 H 0.871733 -2.5277 2.07719 0
M  V30 72 H 0.674816 -1.66842 3.63816 0
M  V30 73 H 1.53408 -0.360614 1.80962 0
M  V30 74 H 0.17584 0.687023 0.204316 0
M  V30 75 H -2.17915 1.04938 1.42816 0
M  V30 76 H -4.09222 -0.888878 0.228558 0
M  V30 77 H -4.81229 2.61159 -2.38296 0
M  V30 78 H -6.34314 3.06018 -1.63631 0
M  V30 79 H -7.38752 1.93128 -3.49896 0
M  V30 80 H -5.77178 1.55553 -4.12381 0
M  V30 81 H -7.47935 -0.362616 -3.13682 0
M  V30 82 H -5.706 -0.574631 -3.01577 0
M  V30 83 H -6.53266 -0.739477 -0.75655 0
M  V30 84 H -9.09494 -0.926311 -1.40473 0
M  V30 85 H -10.3584 1.70527 -0.606068 0
M  V30 86 H -12.6109 1.55511 -3.27505 0
M  V30 87 H -11.2536 -1.15515 -0.0440678 0
M  V30 88 H -10.6307 -0.0308436 1.18054 0
M  V30 89 H -13.6288 -0.918373 -0.598819 0
M  V30 90 H -15.8611 0.115491 -0.0990437 0
M  V30 91 H -15.9706 2.16115 1.29557 0
M  V30 92 H -13.9122 3.11814 2.14304 0
M  V30 93 H -11.7044 2.09464 1.64771 0
M  V30 94 H -4.10612 1.08534 2.60691 0
M  V30 95 H -3.97112 -0.681571 2.64965 0
M  V30 96 H -8.87051 1.14538 2.99145 0
M  V30 97 H -8.70639 -1.4692 3.029 0
M  V30 98 H -6.22087 -2.10721 2.47341 0
M  V30 99 H 0.561104 -2.20743 -0.390037 0
M  V30 100 H 2.53355 -1.96615 -2.47335 0
M  V30 101 H 4.43203 -0.764789 -2.78463 0
M  V30 102 H 6.92391 -0.277916 -1.91864 0
M  V30 103 H 5.61796 2.1622 -0.534179 0
M  V30 104 H 7.96782 1.80069 -2.50794 0
M  V30 105 H 8.08956 2.28172 -0.811905 0
M  V30 106 H 7.29207 3.3676 -2.04712 0
M  V30 107 H 4.21204 1.52302 -2.51587 0
M  V30 108 H 5.77744 1.65216 -3.52835 0
M  V30 109 H 5.15884 3.05039 -2.63929 0
M  V30 110 H 6.84709 0.752756 0.893588 0
M  V30 111 H 8.76771 -0.925577 2.18708 0
M  V30 112 H 10.7016 0.402066 2.51464 0
M  V30 113 H 9.34987 1.45698 2.04113 0
M  V30 114 H 10.4196 1.54685 -0.341325 0
M  V30 115 H 11.7543 0.529255 0.309355 0
M  V30 116 H 12.2172 2.14165 2.03704 0
M  V30 117 H 10.8008 3.15317 1.46666 0
M  V30 118 H 12.6146 2.59274 -0.706957 0
M  V30 119 H 15.1002 3.2914 0.535062 0
M  V30 120 H 11.7813 5.47555 1.47592 0
M  V30 121 H 12.8091 6.35003 0.32417 0
M  V30 122 H 10.4773 -1.72975 0.029 0
M  V30 123 H 11.1929 -1.45479 1.60448 0
M  V30 124 H 3.42254 -2.7235 0.312413 0
M  V30 125 H 2.13501 -3.41777 -0.702152 0
M  V30 126 H 2.52417 -4.63924 -2.64603 0
M  V30 127 H 3.98103 -6.35045 -3.67722 0
M  V30 128 H 7.21293 -5.0547 -1.15563 0
M  V30 129 H 5.77233 -3.42799 -0.177129 0
M  V30 130 H 7.08931 -6.47868 -3.85575 0
M  V30 131 H 0.00317707 1.66619 2.20861 0
M  V30 132 H -0.877964 0.566139 3.36045 0
M  V30 133 H 0.843739 0.884822 3.555 0
M  V30 END ATOM
M  V30 BEGIN BOND
M  V30 1 1 1 2
M  V30 2 1 2 3
M  V30 3 1 3 4
M  V30 4 1 4 5
M  V30 5 2 5 6
M  V30 6 1 5 7
M  V30 7 1 7 8
M  V30 8 1 8 9
M  V30 9 2 9 10
M  V30 10 1 9 11
M  V30 11 1 11 12
M  V30 12 1 12 13
M  V30 13 1 13 14
M  V30 14 1 14 15
M  V30 15 1 15 16
M  V30 16 2 16 17
M  V30 17 1 16 18
M  V30 18 1 18 19
M  V30 19 1 19 20
M  V30 20 2 20 21
M  V30 21 1 20 22
M  V30 22 1 19 23
M  V30 23 1 23 24
M  V30 24 2 24 25
M  V30 25 1 25 26
M  V30 26 2 26 27
M  V30 27 1 27 28
M  V30 28 2 28 29
M  V30 29 1 8 30
M  V30 30 1 30 31
M  V30 31 1 31 32
M  V30 32 2 32 33
M  V30 33 1 33 34
M  V30 34 1 34 35
M  V30 35 1 4 36
M  V30 36 1 36 37
M  V30 37 2 37 38
M  V30 38 1 37 39
M  V30 39 1 39 40
M  V30 40 1 40 41
M  V30 41 2 41 42
M  V30 42 1 41 43
M  V30 43 1 43 44
M  V30 44 1 44 45
M  V30 45 1 44 46
M  V30 46 1 43 47
M  V30 47 1 47 48
M  V30 48 2 48 49
M  V30 49 1 48 50
M  V30 50 1 50 51
M  V30 51 1 51 52
M  V30 52 1 52 53
M  V30 53 1 53 54
M  V30 54 1 54 55
M  V30 55 2 55 56 CFG=2
M  V30 56 1 55 57
M  V30 57 1 50 58
M  V30 58 1 39 59
M  V30 59 1 59 60
M  V30 60 2 60 61
M  V30 61 1 61 62
M  V30 62 2 62 63
M  V30 63 1 63 64
M  V30 64 2 64 65
M  V30 65 1 63 66
M  V30 66 1 3 67
M  V30 67 1 15 11
M  V30 68 1 29 24
M  V30 69 2 35 31
M  V30 70 1 65 60
M  V30 71 1 1 68
M  V30 72 1 1 69
M  V30 73 1 1 70
M  V30 74 1 2 71
M  V30 75 1 2 72
M  V30 76 1 3 73
M  V30 77 1 4 74
M  V30 78 1 7 75
M  V30 79 1 8 76
M  V30 80 1 12 77
M  V30 81 1 12 78
M  V30 82 1 13 79
M  V30 83 1 13 80
M  V30 84 1 14 81
M  V30 85 1 14 82
M  V30 86 1 15 83
M  V30 87 1 18 84
M  V30 88 1 19 85
M  V30 89 1 22 86
M  V30 90 1 23 87
M  V30 91 1 23 88
M  V30 92 1 25 89
M  V30 93 1 26 90
M  V30 94 1 27 91
M  V30 95 1 28 92
M  V30 96 1 29 93
M  V30 97 1 30 94
M  V30 98 1 30 95
M  V30 99 1 33 96
M  V30 100 1 34 97
M  V30 101 1 35 98
M  V30 102 1 36 99
M  V30 103 1 39 100
M  V30 104 1 40 101
M  V30 105 1 43 102
M  V30 106 1 44 103
M  V30 107 1 45 104
M  V30 108 1 45 105
M  V30 109 1 45 106
M  V30 110 1 46 107
M  V30 111 1 46 108
M  V30 112 1 46 109
M  V30 113 1 47 110
M  V30 114 1 50 111
M  V30 115 1 51 112
M  V30 116 1 51 113
M  V30 117 1 52 114
M  V30 118 1 52 115
M  V30 119 1 53 116
M  V30 120 1 53 117
M  V30 121 1 54 118
M  V30 122 1 56 119
M  V30 123 1 57 120
M  V30 124 1 57 121
M  V30 125 1 58 122
M  V30 126 1 58 123
M  V30 127 1 59 124
M  V30 128 1 59 125
M  V30 129 1 61 126
M  V30 130 1 62 127
M  V30 131 1 64 128
M  V30 132 1 65 129
M  V30 133 1 66 130
M  V30 134 1 67 131
M  V30 135 1 67 132
M  V30 136 1 67 133
M  V30 END BOND
M  V30 END CTAB
M  END
