
     RDKit          3D

  0  0  0  0  0  0  0  0  0  0999 V3000
M  V30 BEGIN CTAB
M  V30 COUNTS 24 26 0 0 0
M  V30 BEGIN ATOM
M  V30 1 N 4.34624 0.321353 -0.453895 0
M  V30 2 C 2.92213 0.180658 -0.297734 0
M  V30 3 N 2.37106 -0.998442 -0.0201788 0
M  V30 4 C 1.01943 -1.18193 0.137669 0
M  V30 5 N 0.5218 -2.45216 0.427979 0
M  V30 6 C 0.187654 -0.105917 0.00526661 0
M  V30 7 C -1.16507 -0.245617 0.154762 0
M  V30 8 C -1.95682 0.892578 0.00673071 0
M  V30 9 N -3.25034 0.49904 0.199874 0
M  V30 10 C -3.26954 -0.819391 0.456157 0
M  V30 11 C -1.98517 -1.32077 0.436621 0
M  V30 12 C -1.39425 2.1167 -0.280561 0
M  V30 13 C -0.0374412 2.24308 -0.427855 0
M  V30 14 C 0.768571 1.13577 -0.287078 0
M  V30 15 N 2.11616 1.24251 -0.429743 0
M  V30 16 H 4.89177 1.00894 0.0949721 0
M  V30 17 H 4.83949 -0.280576 -1.13297 0
M  V30 18 H 0.254463 -3.09349 -0.345579 0
M  V30 19 H 0.412926 -2.7867 1.40002 0
M  V30 20 H -4.07249 1.16961 0.144889 0
M  V30 21 H -4.19293 -1.3555 0.643302 0
M  V30 22 H -1.77196 -2.34609 0.615258 0
M  V30 23 H -2.01654 2.99434 -0.393651 0
M  V30 24 H 0.460854 3.18198 -0.654254 0
M  V30 END ATOM
M  V30 BEGIN BOND
M  V30 1 1 1 2
M  V30 2 2 2 3
M  V30 3 1 3 4
M  V30 4 1 4 5
M  V30 5 2 4 6
M  V30 6 1 6 7
M  V30 7 2 7 8
M  V30 8 1 8 9
M  V30 9 1 9 10
M  V30 10 2 10 11
M  V30 11 1 8 12
M  V30 12 2 12 13
M  V30 13 1 13 14
M  V30 14 2 14 15
M  V30 15 1 15 2
M  V30 16 1 14 6
M  V30 17 1 11 7
M  V30 18 1 1 16
M  V30 19 1 1 17
M  V30 20 1 5 18
M  V30 21 1 5 19
M  V30 22 1 9 20
M  V30 23 1 10 21
M  V30 24 1 11 22
M  V30 25 1 12 23
M  V30 26 1 13 24
M  V30 END BOND
M  V30 END CTAB
M  END
