
     RDKit          3D

  0  0  0  0  0  0  0  0  0  0999 V3000
M  V30 BEGIN CTAB
M  V30 COUNTS 56 57 0 0 0
M  V30 BEGIN ATOM
M  V30 1 C -2.00488 -2.3422 1.1956 0
M  V30 2 C -2.4556 -1.77017 -0.132764 0
M  V30 3 C -3.21047 -2.88215 -0.841109 0
M  V30 4 C -1.2616 -1.32028 -0.977204 0
M  V30 5 N -0.484816 -0.313881 -0.356343 0
M  V30 6 C 0.695683 -0.742382 0.174775 0
M  V30 7 C 1.91954 -0.993516 -0.631075 0
M  V30 8 O 1.60969 -1.98487 -1.59511 0
M  V30 9 C 2.91675 -1.68178 0.279837 0
M  V30 10 N 2.38295 -2.85078 0.922362 0
M  V30 11 C 3.53095 -0.780306 1.31261 0
M  V30 12 C 4.28265 0.352741 0.745374 0
M  V30 13 C 3.70416 1.56929 0.511688 0
M  V30 14 C 4.41077 2.63931 -0.0278281 0
M  V30 15 C 5.73958 2.46528 -0.336649 0
M  V30 16 C 6.34698 1.25124 -0.111577 0
M  V30 17 C 5.61295 0.189552 0.432715 0
M  V30 18 S -0.87707 1.22838 -0.761231 0
M  V30 19 O -0.633871 1.41752 -2.26384 0
M  V30 20 O 0.0168817 2.30165 -0.143977 0
M  V30 21 C -2.5016 1.7338 -0.359075 0
M  V30 22 C -3.52214 1.74882 -1.30619 0
M  V30 23 C -4.80116 2.14633 -0.993209 0
M  V30 24 C -5.15672 2.556 0.278776 0
M  V30 25 N -6.47899 2.96579 0.597744 0
M  V30 26 C -4.14451 2.54273 1.22457 0
M  V30 27 C -2.86623 2.14365 0.904679 0
M  V30 28 H -1.56082 -1.60793 1.86798 0
M  V30 29 H -2.85965 -2.83818 1.70853 0
M  V30 30 H -1.29109 -3.1719 0.958491 0
M  V30 31 H -3.11451 -0.93821 0.0989301 0
M  V30 32 H -4.29531 -2.86116 -0.608736 0
M  V30 33 H -3.03499 -2.82623 -1.95366 0
M  V30 34 H -2.83412 -3.87901 -0.530059 0
M  V30 35 H -0.70944 -2.2963 -1.16147 0
M  V30 36 H -1.59455 -1.06184 -2.00975 0
M  V30 37 H 1.0143 -0.00179135 0.976644 0
M  V30 38 H 0.551685 -1.68518 0.786436 0
M  V30 39 H 2.41661 -0.137315 -1.06969 0
M  V30 40 H 1.44227 -1.58095 -2.46427 0
M  V30 41 H 3.79688 -2.07123 -0.324312 0
M  V30 42 H 2.28427 -3.67104 0.295528 0
M  V30 43 H 2.78067 -3.05058 1.84894 0
M  V30 44 H 4.27393 -1.36589 1.93089 0
M  V30 45 H 2.76954 -0.382153 2.02955 0
M  V30 46 H 2.68057 1.70107 0.753424 0
M  V30 47 H 3.93771 3.60113 -0.208379 0
M  V30 48 H 6.29515 3.30429 -0.760104 0
M  V30 49 H 7.39079 1.15489 -0.367132 0
M  V30 50 H 6.16215 -0.730301 0.578813 0
M  V30 51 H -3.29936 1.44019 -2.3089 0
M  V30 52 H -5.5937 2.15111 -1.75595 0
M  V30 53 H -7.12858 3.35466 -0.105936 0
M  V30 54 H -6.80141 2.86962 1.57508 0
M  V30 55 H -4.38665 2.85839 2.23606 0
M  V30 56 H -2.06221 2.13211 1.65198 0
M  V30 END ATOM
M  V30 BEGIN BOND
M  V30 1 1 1 2
M  V30 2 1 2 3
M  V30 3 1 2 4
M  V30 4 1 4 5
M  V30 5 1 5 6
M  V30 6 1 6 7
M  V30 7 1 7 8
M  V30 8 1 7 9
M  V30 9 1 9 10
M  V30 10 1 9 11
M  V30 11 1 11 12
M  V30 12 2 12 13
M  V30 13 1 13 14
M  V30 14 2 14 15
M  V30 15 1 15 16
M  V30 16 2 16 17
M  V30 17 1 5 18
M  V30 18 2 18 19
M  V30 19 2 18 20
M  V30 20 1 18 21
M  V30 21 2 21 22
M  V30 22 1 22 23
M  V30 23 2 23 24
M  V30 24 1 24 25
M  V30 25 1 24 26
M  V30 26 2 26 27
M  V30 27 1 17 12
M  V30 28 1 27 21
M  V30 29 1 1 28
M  V30 30 1 1 29
M  V30 31 1 1 30
M  V30 32 1 2 31
M  V30 33 1 3 32
M  V30 34 1 3 33
M  V30 35 1 3 34
M  V30 36 1 4 35
M  V30 37 1 4 36
M  V30 38 1 6 37
M  V30 39 1 6 38
M  V30 40 1 7 39
M  V30 41 1 8 40
M  V30 42 1 9 41
M  V30 43 1 10 42
M  V30 44 1 10 43
M  V30 45 1 11 44
M  V30 46 1 11 45
M  V30 47 1 13 46
M  V30 48 1 14 47
M  V30 49 1 15 48
M  V30 50 1 16 49
M  V30 51 1 17 50
M  V30 52 1 22 51
M  V30 53 1 23 52
M  V30 54 1 25 53
M  V30 55 1 25 54
M  V30 56 1 26 55
M  V30 57 1 27 56
M  V30 END BOND
M  V30 END CTAB
M  END
