
     RDKit          3D

  0  0  0  0  0  0  0  0  0  0999 V3000
M  V30 BEGIN CTAB
M  V30 COUNTS 26 26 0 0 0
M  V30 BEGIN ATOM
M  V30 1 N -3.93156 0.617675 0.300874 0
M  V30 2 C -2.51062 0.516927 0.606729 0
M  V30 3 C -1.78834 -0.17709 -0.502196 0
M  V30 4 C -0.345985 -0.273019 -0.179386 0
M  V30 5 C 0.557831 0.535128 -0.838846 0
M  V30 6 C 1.91375 0.450965 -0.541296 0
M  V30 7 O 2.84195 1.26883 -1.20654 0
M  V30 8 C 4.19721 1.11742 -0.84238 0
M  V30 9 C 2.29277 -0.460043 0.422739 0
M  V30 10 C 1.40584 -1.27633 1.09295 0
M  V30 11 C 0.0701523 -1.18402 0.790501 0
M  V30 12 F 1.78093 -2.1685 2.03766 0
M  V30 13 N -2.31132 -1.53996 -0.628722 0
M  V30 14 H -4.18213 1.58933 -0.00732884 0
M  V30 15 H -4.4358 0.483073 1.22762 0
M  V30 16 H -2.11158 1.51643 0.808748 0
M  V30 17 H -2.34654 -0.0865624 1.53485 0
M  V30 18 H -1.89283 0.306283 -1.48254 0
M  V30 19 H 0.259667 1.2494 -1.59484 0
M  V30 20 H 4.50909 0.0526252 -0.934458 0
M  V30 21 H 4.84002 1.79305 -1.45536 0
M  V30 22 H 4.29039 1.39572 0.231503 0
M  V30 23 H 3.35288 -0.521236 0.650808 0
M  V30 24 H -0.697511 -1.78022 1.26109 0
M  V30 25 H -2.75695 -1.68987 -1.54407 0
M  V30 26 H -3.00132 -1.736 0.11605 0
M  V30 END ATOM
M  V30 BEGIN BOND
M  V30 1 1 1 2
M  V30 2 1 2 3
M  V30 3 1 3 4
M  V30 4 2 4 5
M  V30 5 1 5 6
M  V30 6 1 6 7
M  V30 7 1 7 8
M  V30 8 2 6 9
M  V30 9 1 9 10
M  V30 10 2 10 11
M  V30 11 1 10 12
M  V30 12 1 3 13
M  V30 13 1 11 4
M  V30 14 1 1 14
M  V30 15 1 1 15
M  V30 16 1 2 16
M  V30 17 1 2 17
M  V30 18 1 3 18
M  V30 19 1 5 19
M  V30 20 1 8 20
M  V30 21 1 8 21
M  V30 22 1 8 22
M  V30 23 1 9 23
M  V30 24 1 11 24
M  V30 25 1 13 25
M  V30 26 1 13 26
M  V30 END BOND
M  V30 END CTAB
M  END
