
     RDKit          3D

  0  0  0  0  0  0  0  0  0  0999 V3000
M  V30 BEGIN CTAB
M  V30 COUNTS 112 113 0 0 0
M  V30 BEGIN ATOM
M  V30 1 C -7.61049 6.12192 1.45958 0
M  V30 2 C -7.90778 4.7418 0.890564 0
M  V30 3 C -7.37899 3.67001 1.82134 0 CFG=2
M  V30 4 C -5.89474 3.85707 1.95203 0
M  V30 5 C -7.6995 2.30947 1.27079 0 CFG=2
M  V30 6 N -7.1196 2.04883 -0.0225397 0
M  V30 7 C -6.55751 0.781555 -0.400787 0
M  V30 8 O -6.60116 -0.114896 0.450806 0
M  V30 9 C -5.97804 0.629088 -1.74209 0
M  V30 10 N -5.47478 -0.716965 -1.90598 0
M  V30 11 C -4.43822 -1.18457 -1.08141 0
M  V30 12 O -3.96073 -0.373103 -0.21801 0
M  V30 13 C -3.90849 -2.55594 -1.20219 0 CFG=1
M  V30 14 N -2.7104 -2.59436 -0.320009 0
M  V30 15 C -1.40075 -2.50396 -0.801917 0
M  V30 16 O -1.28523 -2.37715 -2.07345 0
M  V30 17 C -0.16162 -2.52668 -0.0407498 0 CFG=2
M  V30 18 C -0.209827 -2.71946 1.41856 0
M  V30 19 C -0.739563 -3.98998 1.96107 0
M  V30 20 C 0.0994867 -5.18015 1.46746 0
M  V30 21 N -0.35828 -6.43638 1.98988 0
M  V30 22 C -1.59954 -7.03705 1.62924 0
M  V30 23 N -2.30354 -6.51977 0.509327 0
M  V30 24 N -2.10573 -8.02561 2.27117 0
M  V30 25 N 0.736088 -1.45933 -0.480358 0
M  V30 26 C 2.05647 -1.59655 -0.879786 0
M  V30 27 O 2.60926 -2.73203 -0.887298 0
M  V30 28 C 2.84597 -0.422667 -1.30258 0 CFG=2
M  V30 29 C 2.14622 0.129525 -2.5365 0
M  V30 30 N 4.22679 -0.740991 -1.60915 0
M  V30 31 C 5.3163 -0.0236728 -1.06482 0
M  V30 32 O 5.09912 0.907516 -0.297337 0
M  V30 33 C 6.68961 -0.437125 -1.45475 0 CFG=2
M  V30 34 C 7.11451 -1.57627 -0.505448 0
M  V30 35 C 8.58704 -1.41736 -0.399299 0
M  V30 36 C 8.95972 -0.126667 -1.03097 0
M  V30 37 N 7.71301 0.518795 -1.32136 0
M  V30 38 C 7.63418 1.95589 -1.49326 0
M  V30 39 O 6.5743 2.5065 -1.8458 0
M  V30 40 C 8.82312 2.78928 -1.24586 0 CFG=1
M  V30 41 N 9.89722 2.48441 -2.13946 0
M  V30 42 C 8.514 4.24717 -1.15708 0
M  V30 43 C 7.61036 4.66938 -0.0871397 0
M  V30 44 C 8.12388 4.72855 1.2203 0
M  V30 45 C 7.3738 5.15261 2.27355 0
M  V30 46 C 6.07722 5.53762 2.07696 0
M  V30 47 C 5.53124 5.49778 0.820678 0
M  V30 48 C 6.32055 5.0615 -0.235385 0
M  V30 49 C -4.84226 -3.62788 -0.810591 0
M  V30 50 C -6.08716 -3.6721 -1.63473 0
M  V30 51 C -5.18998 -3.56454 0.680188 0
M  V30 52 C -9.21016 2.28467 1.11344 0
M  V30 53 O -10.0335 2.51942 2.19092 0
M  V30 54 O -9.69201 2.04995 -0.00118839 0
M  V30 55 H -6.54944 6.36152 1.41916 0
M  V30 56 H -8.01697 6.1776 2.48704 0
M  V30 57 H -8.13765 6.87999 0.82112 0
M  V30 58 H -9.0179 4.66052 0.807976 0
M  V30 59 H -7.41421 4.69223 -0.0830068 0
M  V30 60 H -7.89704 3.83626 2.80147 0
M  V30 61 H -5.39554 2.9677 2.40144 0
M  V30 62 H -5.4447 4.08884 0.977225 0
M  V30 63 H -5.68317 4.74588 2.61277 0
M  V30 64 H -7.43096 1.54042 2.03771 0
M  V30 65 H -7.11203 2.81363 -0.71168 0
M  V30 66 H -5.15112 1.3669 -1.90927 0
M  V30 67 H -6.73677 0.843231 -2.54408 0
M  V30 68 H -5.91051 -1.28335 -2.67798 0
M  V30 69 H -3.54018 -2.67525 -2.21834 0
M  V30 70 H -2.88605 -2.6729 0.697217 0
M  V30 71 H 0.466717 -3.46459 -0.39985 0
M  V30 72 H 0.842277 -2.60965 1.83211 0
M  V30 73 H -0.793621 -1.87176 1.86604 0
M  V30 74 H -1.7922 -4.20787 1.89133 0
M  V30 75 H -0.525894 -3.97872 3.0854 0
M  V30 76 H 0.0833641 -5.24156 0.353348 0
M  V30 77 H 1.15525 -5.03809 1.75666 0
M  V30 78 H 0.242738 -6.95181 2.66856 0
M  V30 79 H -1.86204 -6.60654 -0.424987 0
M  V30 80 H -3.21467 -6.07305 0.610915 0
M  V30 81 H -1.58199 -8.40373 3.09421 0
M  V30 82 H 0.286675 -0.493859 -0.481338 0
M  V30 83 H 2.8237 0.402636 -0.564337 0
M  V30 84 H 2.3285 -0.553087 -3.3918 0
M  V30 85 H 1.05332 0.0586952 -2.30767 0
M  V30 86 H 2.37197 1.18038 -2.71206 0
M  V30 87 H 4.40695 -1.53027 -2.25427 0
M  V30 88 H 6.70143 -0.88764 -2.47306 0
M  V30 89 H 6.7612 -2.55594 -0.844865 0
M  V30 90 H 6.61315 -1.37568 0.486383 0
M  V30 91 H 9.06133 -2.30224 -0.897904 0
M  V30 92 H 8.89209 -1.37344 0.689574 0
M  V30 93 H 9.44157 -0.362518 -2.03489 0
M  V30 94 H 9.66661 0.481794 -0.423079 0
M  V30 95 H 9.24853 2.47483 -0.199267 0
M  V30 96 H 9.59805 1.8478 -2.87098 0
M  V30 97 H 10.7561 2.1992 -1.66683 0
M  V30 98 H 8.08632 4.62648 -2.14225 0
M  V30 99 H 9.49039 4.80674 -1.09378 0
M  V30 100 H 9.1521 4.42885 1.4095 0
M  V30 101 H 7.76757 5.19543 3.26897 0
M  V30 102 H 5.41961 5.88592 2.87872 0
M  V30 103 H 4.52321 5.78925 0.612169 0
M  V30 104 H 5.85238 5.0725 -1.2184 0
M  V30 105 H -4.36936 -4.648 -0.927434 0
M  V30 106 H -6.84988 -2.92053 -1.35958 0
M  V30 107 H -6.58006 -4.70323 -1.5301 0
M  V30 108 H -5.86499 -3.59516 -2.69542 0
M  V30 109 H -4.8987 -2.60426 1.11953 0
M  V30 110 H -4.70955 -4.36968 1.26325 0
M  V30 111 H -6.2822 -3.75191 0.759416 0
M  V30 112 H -9.66362 2.73395 3.1107 0
M  V30 END ATOM
M  V30 BEGIN BOND
M  V30 1 1 1 2
M  V30 2 1 2 3
M  V30 3 1 3 4
M  V30 4 1 3 5
M  V30 5 1 5 6
M  V30 6 1 6 7
M  V30 7 2 7 8
M  V30 8 1 7 9
M  V30 9 1 9 10
M  V30 10 1 10 11
M  V30 11 2 11 12
M  V30 12 1 11 13
M  V30 13 1 13 14
M  V30 14 1 14 15
M  V30 15 2 15 16
M  V30 16 1 15 17
M  V30 17 1 17 18
M  V30 18 1 18 19
M  V30 19 1 19 20
M  V30 20 1 20 21
M  V30 21 1 21 22
M  V30 22 1 22 23
M  V30 23 2 22 24 CFG=2
M  V30 24 1 17 25
M  V30 25 1 25 26
M  V30 26 2 26 27
M  V30 27 1 26 28
M  V30 28 1 28 29
M  V30 29 1 28 30
M  V30 30 1 30 31
M  V30 31 2 31 32
M  V30 32 1 31 33
M  V30 33 1 33 34
M  V30 34 1 34 35
M  V30 35 1 35 36
M  V30 36 1 36 37
M  V30 37 1 37 38
M  V30 38 2 38 39
M  V30 39 1 38 40
M  V30 40 1 40 41
M  V30 41 1 40 42
M  V30 42 1 42 43
M  V30 43 2 43 44
M  V30 44 1 44 45
M  V30 45 2 45 46
M  V30 46 1 46 47
M  V30 47 2 47 48
M  V30 48 1 13 49
M  V30 49 1 49 50
M  V30 50 1 49 51
M  V30 51 1 5 52
M  V30 52 1 52 53
M  V30 53 2 52 54
M  V30 54 1 37 33
M  V30 55 1 48 43
M  V30 56 1 1 55
M  V30 57 1 1 56
M  V30 58 1 1 57
M  V30 59 1 2 58
M  V30 60 1 2 59
M  V30 61 1 3 60 CFG=1
M  V30 62 1 4 61
M  V30 63 1 4 62
M  V30 64 1 4 63
M  V30 65 1 5 64 CFG=1
M  V30 66 1 6 65
M  V30 67 1 9 66
M  V30 68 1 9 67
M  V30 69 1 10 68
M  V30 70 1 13 69 CFG=3
M  V30 71 1 14 70
M  V30 72 1 17 71 CFG=3
M  V30 73 1 18 72
M  V30 74 1 18 73
M  V30 75 1 19 74
M  V30 76 1 19 75
M  V30 77 1 20 76
M  V30 78 1 20 77
M  V30 79 1 21 78
M  V30 80 1 23 79
M  V30 81 1 23 80
M  V30 82 1 24 81
M  V30 83 1 25 82
M  V30 84 1 28 83 CFG=1
M  V30 85 1 29 84
M  V30 86 1 29 85
M  V30 87 1 29 86
M  V30 88 1 30 87
M  V30 89 1 33 88 CFG=3
M  V30 90 1 34 89
M  V30 91 1 34 90
M  V30 92 1 35 91
M  V30 93 1 35 92
M  V30 94 1 36 93
M  V30 95 1 36 94
M  V30 96 1 40 95 CFG=1
M  V30 97 1 41 96
M  V30 98 1 41 97
M  V30 99 1 42 98
M  V30 100 1 42 99
M  V30 101 1 44 100
M  V30 102 1 45 101
M  V30 103 1 46 102
M  V30 104 1 47 103
M  V30 105 1 48 104
M  V30 106 1 49 105
M  V30 107 1 50 106
M  V30 108 1 50 107
M  V30 109 1 50 108
M  V30 110 1 51 109
M  V30 111 1 51 110
M  V30 112 1 51 111
M  V30 113 1 53 112
M  V30 END BOND
M  V30 END CTAB
M  END
