
     RDKit          3D

  0  0  0  0  0  0  0  0  0  0999 V3000
M  V30 BEGIN CTAB
M  V30 COUNTS 42 42 0 0 0
M  V30 BEGIN ATOM
M  V30 1 N -3.95554 1.11929 0.603607 0
M  V30 2 C -2.80236 0.528249 1.25863 0
M  V30 3 C -1.66714 1.48276 1.14172 0
M  V30 4 C -0.694222 1.1609 0.0175792 0
M  V30 5 C 0.350461 2.25488 0.114783 0
M  V30 6 C -1.36859 1.40513 -1.34255 0
M  V30 7 N -0.202337 -0.168164 0.131428 0
M  V30 8 C -1.13808 -1.21133 0.547721 0
M  V30 9 C -2.54913 -0.807319 0.683451 0
M  V30 10 C -0.605173 -1.78337 1.84739 0
M  V30 11 C -1.09248 -2.34839 -0.47738 0
M  V30 12 C 1.11121 -0.63901 -0.140373 0
M  V30 13 O 1.36105 -1.89175 0.0641598 0
M  V30 14 C 2.24997 0.129706 -0.639188 0
M  V30 15 N 3.43518 -0.718833 -0.815593 0
M  V30 16 C 4.62036 -0.141628 -1.28904 0
M  V30 17 S 4.69133 1.47035 -1.64613 0
M  V30 18 N 5.82402 -0.865644 -1.49686 0
M  V30 19 H -3.98711 2.12987 0.830996 0
M  V30 20 H -3.91962 0.952231 -0.426978 0
M  V30 21 H -3.12155 0.405158 2.33681 0
M  V30 22 H -1.96492 2.54298 1.01388 0
M  V30 23 H -1.07248 1.42912 2.08346 0
M  V30 24 H 0.919614 2.43572 -0.788769 0
M  V30 25 H 0.914589 2.17873 1.06053 0
M  V30 26 H -0.264518 3.21037 0.262116 0
M  V30 27 H -1.93066 0.548787 -1.70585 0
M  V30 28 H -2.05899 2.255 -1.2048 0
M  V30 29 H -0.541279 1.70919 -2.02903 0
M  V30 30 H -3.13285 -0.917707 -0.279809 0
M  V30 31 H -3.05917 -1.57665 1.34649 0
M  V30 32 H 0.218604 -1.15689 2.26632 0
M  V30 33 H -1.42105 -1.76951 2.62825 0
M  V30 34 H -0.272952 -2.82874 1.75345 0
M  V30 35 H -0.571635 -2.07042 -1.40061 0
M  V30 36 H -0.635828 -3.26691 -0.0792994 0
M  V30 37 H -2.14395 -2.66528 -0.761529 0
M  V30 38 H 1.97337 0.534141 -1.65604 0
M  V30 39 H 2.5911 0.941911 -0.00100056 0
M  V30 40 H 3.36637 -1.71343 -0.587847 0
M  V30 41 H 6.48568 -1.12798 -0.753537 0
M  V30 42 H 6.0607 -1.15552 -2.47056 0
M  V30 END ATOM
M  V30 BEGIN BOND
M  V30 1 1 1 2
M  V30 2 1 2 3
M  V30 3 1 3 4
M  V30 4 1 4 5
M  V30 5 1 4 6
M  V30 6 1 4 7
M  V30 7 1 7 8
M  V30 8 1 8 9
M  V30 9 1 8 10
M  V30 10 1 8 11
M  V30 11 1 7 12
M  V30 12 2 12 13
M  V30 13 1 12 14
M  V30 14 1 14 15
M  V30 15 1 15 16
M  V30 16 2 16 17
M  V30 17 1 16 18
M  V30 18 1 9 2
M  V30 19 1 1 19
M  V30 20 1 1 20
M  V30 21 1 2 21
M  V30 22 1 3 22
M  V30 23 1 3 23
M  V30 24 1 5 24
M  V30 25 1 5 25
M  V30 26 1 5 26
M  V30 27 1 6 27
M  V30 28 1 6 28
M  V30 29 1 6 29
M  V30 30 1 9 30
M  V30 31 1 9 31
M  V30 32 1 10 32
M  V30 33 1 10 33
M  V30 34 1 10 34
M  V30 35 1 11 35
M  V30 36 1 11 36
M  V30 37 1 11 37
M  V30 38 1 14 38
M  V30 39 1 14 39
M  V30 40 1 15 40
M  V30 41 1 18 41
M  V30 42 1 18 42
M  V30 END BOND
M  V30 END CTAB
M  END
