
     RDKit          3D

  0  0  0  0  0  0  0  0  0  0999 V3000
M  V30 BEGIN CTAB
M  V30 COUNTS 40 41 0 0 0
M  V30 BEGIN ATOM
M  V30 1 C -1.58456 0.951157 -2.54972 0
M  V30 2 C -1.08128 0.693144 -1.1591 0
M  V30 3 C 0.437595 0.549884 -1.15762 0
M  V30 4 O 1.04965 0.668775 -2.23069 0
M  V30 5 N 1.00031 0.289443 0.104431 0
M  V30 6 C 2.38553 0.133346 0.310123 0
M  V30 7 C 3.35306 0.590577 -0.547957 0
M  V30 8 C 4.70138 0.359567 -0.259241 0
M  V30 9 C 5.07585 -0.318011 0.87094 0
M  V30 10 C 4.09132 -0.786875 1.75184 0
M  V30 11 C 2.77506 -0.560688 1.4683 0
M  V30 12 C 6.48381 -0.540256 1.13906 0
M  V30 13 O 6.86984 -1.15458 2.16239 0
M  V30 14 C 7.49377 -0.0343871 0.188622 0
M  V30 15 S -1.75543 -0.788528 -0.393999 0
M  V30 16 C -3.50232 -0.64155 -0.0783397 0
M  V30 17 N -3.83667 -0.11836 1.138 0
M  V30 18 C -5.11616 0.0480636 1.51032 0
M  V30 19 N -5.43641 0.593298 2.77856 0
M  V30 20 C -6.07377 -0.336642 0.600211 0
M  V30 21 C -5.77977 -0.868503 -0.63707 0
M  V30 22 N -4.45867 -1.00198 -0.932223 0
M  V30 23 N -6.78919 -1.26334 -1.56893 0
M  V30 24 H -2.64191 0.718199 -2.68069 0
M  V30 25 H -1.44305 2.04168 -2.7761 0
M  V30 26 H -0.966854 0.392679 -3.29904 0
M  V30 27 H -1.26838 1.57068 -0.485704 0
M  V30 28 H 0.360935 0.20506 0.972141 0
M  V30 29 H 3.12657 1.14244 -1.44508 0
M  V30 30 H 5.43659 0.741004 -0.969795 0
M  V30 31 H 4.37235 -1.32028 2.64454 0
M  V30 32 H 2.01941 -0.93115 2.16033 0
M  V30 33 H 7.18535 -0.296051 -0.861051 0
M  V30 34 H 7.53239 1.08295 0.194175 0
M  V30 35 H 8.46661 -0.487834 0.432458 0
M  V30 36 H -5.95773 0.0651326 3.50252 0
M  V30 37 H -5.13915 1.56317 2.99852 0
M  V30 38 H -7.10203 -0.204932 0.893068 0
M  V30 39 H -6.83566 -0.713352 -2.45985 0
M  V30 40 H -7.4484 -2.03295 -1.40984 0
M  V30 END ATOM
M  V30 BEGIN BOND
M  V30 1 1 1 2
M  V30 2 1 2 3
M  V30 3 2 3 4
M  V30 4 1 3 5
M  V30 5 1 5 6
M  V30 6 2 6 7
M  V30 7 1 7 8
M  V30 8 2 8 9
M  V30 9 1 9 10
M  V30 10 2 10 11
M  V30 11 1 9 12
M  V30 12 2 12 13
M  V30 13 1 12 14
M  V30 14 1 2 15
M  V30 15 1 15 16
M  V30 16 2 16 17
M  V30 17 1 17 18
M  V30 18 1 18 19
M  V30 19 2 18 20
M  V30 20 1 20 21
M  V30 21 2 21 22
M  V30 22 1 21 23
M  V30 23 1 11 6
M  V30 24 1 22 16
M  V30 25 1 1 24
M  V30 26 1 1 25
M  V30 27 1 1 26
M  V30 28 1 2 27
M  V30 29 1 5 28
M  V30 30 1 7 29
M  V30 31 1 8 30
M  V30 32 1 10 31
M  V30 33 1 11 32
M  V30 34 1 14 33
M  V30 35 1 14 34
M  V30 36 1 14 35
M  V30 37 1 19 36
M  V30 38 1 19 37
M  V30 39 1 20 38
M  V30 40 1 23 39
M  V30 41 1 23 40
M  V30 END BOND
M  V30 END CTAB
M  END
