
     RDKit          3D

  0  0  0  0  0  0  0  0  0  0999 V3000
M  V30 BEGIN CTAB
M  V30 COUNTS 25 26 0 0 0
M  V30 BEGIN ATOM
M  V30 1 N -2.89863 2.95109 -0.000739974 0
M  V30 2 C -3.02044 1.58022 0.408587 0
M  V30 3 N -3.95733 1.03917 1.12073 0
M  V30 4 N -3.73923 -0.310359 1.3143 0
M  V30 5 C -2.65054 -0.708917 0.736954 0
M  V30 6 N -2.07463 -2.00682 0.696291 0
M  V30 7 C -2.10232 0.487147 0.10605 0
M  V30 8 N -1.02132 0.601224 -0.591371 0
M  V30 9 N -0.166694 -0.444884 -0.866018 0
M  V30 10 C 1.23691 -0.382997 -0.575987 0
M  V30 11 C 2.03791 -1.43992 -0.865267 0
M  V30 12 C 3.39495 -1.4498 -0.613889 0
M  V30 13 C 3.95307 -0.327085 -0.0413338 0
M  V30 14 Cl 5.66497 -0.295824 0.293978 0
M  V30 15 C 3.15145 0.761387 0.260969 0
M  V30 16 C 1.77912 0.736846 -0.00761903 0
M  V30 17 H -3.21439 3.24852 -0.948844 0
M  V30 18 H -2.49295 3.63187 0.662832 0
M  V30 19 H -1.46422 -2.2929 1.48814 0
M  V30 20 H -2.20921 -2.70525 -0.0618228 0
M  V30 21 H -0.572644 -1.30304 -1.29974 0
M  V30 22 H 1.56613 -2.32102 -1.32096 0
M  V30 23 H 4.02633 -2.29187 -0.845636 0
M  V30 24 H 3.60594 1.6407 0.712671 0
M  V30 25 H 1.16776 1.60249 0.23771 0
M  V30 END ATOM
M  V30 BEGIN BOND
M  V30 1 1 1 2
M  V30 2 2 2 3
M  V30 3 1 3 4
M  V30 4 2 4 5
M  V30 5 1 5 6
M  V30 6 1 5 7
M  V30 7 2 7 8 CFG=2
M  V30 8 1 8 9
M  V30 9 1 9 10
M  V30 10 2 10 11
M  V30 11 1 11 12
M  V30 12 2 12 13
M  V30 13 1 13 14
M  V30 14 1 13 15
M  V30 15 2 15 16
M  V30 16 1 7 2
M  V30 17 1 16 10
M  V30 18 1 1 17
M  V30 19 1 1 18
M  V30 20 1 6 19
M  V30 21 1 6 20
M  V30 22 1 9 21
M  V30 23 1 11 22
M  V30 24 1 12 23
M  V30 25 1 15 24
M  V30 26 1 16 25
M  V30 END BOND
M  V30 END CTAB
M  END
