
     RDKit          3D

  0  0  0  0  0  0  0  0  0  0999 V3000
M  V30 BEGIN CTAB
M  V30 COUNTS 52 52 0 0 0
M  V30 BEGIN ATOM
M  V30 1 N 3.44021 3.86643 0.472423 0
M  V30 2 C 2.6742 2.76883 -0.088956 0
M  V30 3 C 2.51686 1.74722 0.985769 0
M  V30 4 N 1.72349 0.573932 0.4587 0
M  V30 5 C 0.371471 0.677087 0.627706 0
M  V30 6 O 0.131554 1.7713 1.4343 0
M  V30 7 N -0.832798 0.0713548 0.277154 0
M  V30 8 C -1.15536 -0.853771 -0.747898 0
M  V30 9 C -1.09353 -2.29759 -0.395483 0
M  V30 10 C -0.381424 -0.654949 -2.05522 0
M  V30 11 C -2.60917 -0.545099 -1.26243 0
M  V30 12 C -3.54587 -0.947657 -0.20227 0
M  V30 13 C -3.07259 -0.598722 1.17372 0
M  V30 14 C -1.9662 0.381127 1.22376 0
M  V30 15 C -2.48602 1.77136 1.00645 0
M  V30 16 C -1.43889 0.314439 2.66873 0
M  V30 17 N -4.84467 -0.31573 -0.491214 0
M  V30 18 C 2.56138 -0.408004 -0.0214845 0
M  V30 19 O 3.84467 -0.0920641 0.00879001 0
M  V30 20 O 2.35769 -1.65668 -0.522557 0
M  V30 21 C 3.40796 -2.46775 -0.941056 0
M  V30 22 C 4.23475 -1.88914 -2.05122 0
M  V30 23 H 2.77102 4.38247 1.11769 0
M  V30 24 H 4.1477 3.43149 1.11841 0
M  V30 25 H 3.26074 2.39659 -0.958527 0
M  V30 26 H 1.71715 3.19029 -0.429285 0
M  V30 27 H 3.50492 1.40084 1.3299 0
M  V30 28 H 2.02136 2.18922 1.84736 0
M  V30 29 H -0.247693 -2.7835 -0.957157 0
M  V30 30 H -1.97305 -2.90301 -0.614003 0
M  V30 31 H -0.883358 -2.3981 0.689275 0
M  V30 32 H -1.10448 -0.479916 -2.86231 0
M  V30 33 H 0.253021 0.247438 -2.03101 0
M  V30 34 H 0.148991 -1.58675 -2.345 0
M  V30 35 H -2.62873 0.493161 -1.58361 0
M  V30 36 H -2.71681 -1.24141 -2.13539 0
M  V30 37 H -3.74112 -2.03179 -0.249864 0
M  V30 38 H -3.93571 -0.148915 1.71073 0
M  V30 39 H -2.8215 -1.51065 1.7885 0
M  V30 40 H -3.6133 1.74884 0.941528 0
M  V30 41 H -2.28447 2.44422 1.88641 0
M  V30 42 H -2.15262 2.2265 0.0564797 0
M  V30 43 H -0.470376 -0.176426 2.73148 0
M  V30 44 H -2.11509 -0.335773 3.31061 0
M  V30 45 H -1.45871 1.28274 3.1777 0
M  V30 46 H -5.35317 -0.137849 0.420162 0
M  V30 47 H -4.71289 0.562129 -1.03574 0
M  V30 48 H 4.12783 -2.70486 -0.105128 0
M  V30 49 H 3.00198 -3.44869 -1.29937 0
M  V30 50 H 5.13599 -1.33191 -1.68127 0
M  V30 51 H 4.6462 -2.72952 -2.64673 0
M  V30 52 H 3.63847 -1.26275 -2.74954 0
M  V30 END ATOM
M  V30 BEGIN BOND
M  V30 1 1 1 2
M  V30 2 1 2 3
M  V30 3 1 3 4
M  V30 4 1 4 5
M  V30 5 2 5 6
M  V30 6 1 5 7
M  V30 7 1 7 8
M  V30 8 1 8 9
M  V30 9 1 8 10
M  V30 10 1 8 11
M  V30 11 1 11 12
M  V30 12 1 12 13
M  V30 13 1 13 14
M  V30 14 1 14 15
M  V30 15 1 14 16
M  V30 16 1 12 17
M  V30 17 1 4 18
M  V30 18 2 18 19
M  V30 19 1 18 20
M  V30 20 1 20 21
M  V30 21 1 21 22
M  V30 22 1 14 7
M  V30 23 1 1 23
M  V30 24 1 1 24
M  V30 25 1 2 25
M  V30 26 1 2 26
M  V30 27 1 3 27
M  V30 28 1 3 28
M  V30 29 1 9 29
M  V30 30 1 9 30
M  V30 31 1 9 31
M  V30 32 1 10 32
M  V30 33 1 10 33
M  V30 34 1 10 34
M  V30 35 1 11 35
M  V30 36 1 11 36
M  V30 37 1 12 37
M  V30 38 1 13 38
M  V30 39 1 13 39
M  V30 40 1 15 40
M  V30 41 1 15 41
M  V30 42 1 15 42
M  V30 43 1 16 43
M  V30 44 1 16 44
M  V30 45 1 16 45
M  V30 46 1 17 46
M  V30 47 1 17 47
M  V30 48 1 21 48
M  V30 49 1 21 49
M  V30 50 1 22 50
M  V30 51 1 22 51
M  V30 52 1 22 52
M  V30 END BOND
M  V30 END CTAB
M  END
