
     RDKit          3D

  0  0  0  0  0  0  0  0  0  0999 V3000
M  V30 BEGIN CTAB
M  V30 COUNTS 51 54 0 0 0
M  V30 BEGIN ATOM
M  V30 1 N 9.61214 0.00721748 1.09436 0
M  V30 2 C 8.36178 0.195287 0.437064 0
M  V30 3 N 7.25255 -0.076763 1.00318 0
M  V30 4 C 6.039 0.150799 0.247556 0
M  V30 5 S 5.82603 0.742246 -1.3302 0
M  V30 6 C 4.09501 0.681121 -1.39387 0
M  V30 7 C 3.78905 0.195391 -0.157791 0
M  V30 8 N 4.81241 -0.0583084 0.637966 0
M  V30 9 C 2.38352 -0.0890669 0.307943 0
M  V30 10 C 2.07531 -0.843081 1.41246 0
M  V30 11 C 0.694443 -0.898952 1.59612 0
M  V30 12 N 0.158154 -0.184323 0.607113 0
M  V30 13 C 1.1999 0.320587 -0.189401 0
M  V30 14 C 1.03587 1.1959 -1.3774 0
M  V30 15 N -1.16761 0.00541409 0.260495 0
M  V30 16 C -2.3564 -0.615407 0.642395 0
M  V30 17 O -2.49309 -1.54547 1.42052 0
M  V30 18 C -3.58692 -0.0791944 0.0260547 0
M  V30 19 N -3.55222 1.1567 -0.528598 0
M  V30 20 N -4.57491 1.73525 -1.11443 0
M  V30 21 C -4.53916 3.04262 -1.70114 0
M  V30 22 C -5.73681 1.04477 -1.16357 0
M  V30 23 O -6.74432 1.57981 -1.72359 0
M  V30 24 C -5.87138 -0.213571 -0.631507 0
M  V30 25 C -4.74123 -0.774971 -0.0203224 0
M  V30 26 C -4.90346 -2.04333 0.483028 0
M  V30 27 C -6.11376 -2.73228 0.397111 0
M  V30 28 C -7.18197 -2.13652 -0.206749 0
M  V30 29 C -7.07408 -0.862374 -0.732065 0
M  V30 30 C 0.0617068 -1.61323 2.764 0
M  V30 31 N 8.40264 0.698449 -0.875041 0
M  V30 32 H 9.7407 0.336375 2.06479 0
M  V30 33 H 10.4053 -0.458786 0.613116 0
M  V30 34 H 3.47109 0.964029 -2.25763 0
M  V30 35 H 2.80801 -1.34095 2.06568 0
M  V30 36 H 1.17066 0.692522 -2.33948 0
M  V30 37 H 1.75042 2.07111 -1.27802 0
M  V30 38 H 0.00142079 1.63124 -1.42093 0
M  V30 39 H -1.32088 0.82256 -0.436802 0
M  V30 40 H -3.5155 3.35301 -1.99975 0
M  V30 41 H -5.01958 3.7515 -0.999657 0
M  V30 42 H -5.14355 3.08539 -2.64602 0
M  V30 43 H -4.123 -2.5878 0.950208 0
M  V30 44 H -6.22643 -3.72853 0.797968 0
M  V30 45 H -8.15413 -2.61472 -0.307948 0
M  V30 46 H -7.89189 -0.360597 -1.2148 0
M  V30 47 H -0.638957 -0.980782 3.32367 0
M  V30 48 H -0.221519 -2.63698 2.54788 0
M  V30 49 H 0.910994 -1.73949 3.53054 0
M  V30 50 H 8.36143 1.72011 -1.02177 0
M  V30 51 H 8.47322 0.036083 -1.669 0
M  V30 END ATOM
M  V30 BEGIN BOND
M  V30 1 1 1 2
M  V30 2 2 2 3 CFG=2
M  V30 3 1 3 4
M  V30 4 1 4 5
M  V30 5 1 5 6
M  V30 6 2 6 7
M  V30 7 1 7 8
M  V30 8 1 7 9
M  V30 9 1 9 10
M  V30 10 2 10 11
M  V30 11 1 11 12
M  V30 12 1 12 13
M  V30 13 1 13 14
M  V30 14 1 12 15
M  V30 15 1 15 16
M  V30 16 2 16 17
M  V30 17 1 16 18
M  V30 18 2 18 19
M  V30 19 1 19 20
M  V30 20 1 20 21
M  V30 21 1 20 22
M  V30 22 2 22 23
M  V30 23 1 22 24
M  V30 24 2 24 25
M  V30 25 1 25 26
M  V30 26 2 26 27
M  V30 27 1 27 28
M  V30 28 2 28 29
M  V30 29 1 11 30
M  V30 30 1 2 31
M  V30 31 2 8 4
M  V30 32 2 13 9
M  V30 33 1 25 18
M  V30 34 1 29 24
M  V30 35 1 1 32
M  V30 36 1 1 33
M  V30 37 1 6 34
M  V30 38 1 10 35
M  V30 39 1 14 36
M  V30 40 1 14 37
M  V30 41 1 14 38
M  V30 42 1 15 39
M  V30 43 1 21 40
M  V30 44 1 21 41
M  V30 45 1 21 42
M  V30 46 1 26 43
M  V30 47 1 27 44
M  V30 48 1 28 45
M  V30 49 1 29 46
M  V30 50 1 30 47
M  V30 51 1 30 48
M  V30 52 1 30 49
M  V30 53 1 31 50
M  V30 54 1 31 51
M  V30 END BOND
M  V30 END CTAB
M  END
