
     RDKit          3D

  0  0  0  0  0  0  0  0  0  0999 V3000
M  V30 BEGIN CTAB
M  V30 COUNTS 24 25 0 0 0
M  V30 BEGIN ATOM
M  V30 1 N 3.40661 -1.94009 -0.502807 0
M  V30 2 C 2.56223 -0.813612 -0.246165 0
M  V30 3 N 1.21054 -0.910469 -0.279025 0
M  V30 4 C 0.414482 0.144017 -0.0388315 0
M  V30 5 N 0.995439 1.31272 0.238464 0
M  V30 6 C 2.33425 1.47952 0.287557 0
M  V30 7 N 2.89132 2.74186 0.586531 0
M  V30 8 N 3.08374 0.390636 0.0389796 0
M  V30 9 C -1.04917 0.0292173 -0.0767296 0
M  V30 10 C -1.66402 -1.17061 -0.361515 0
M  V30 11 O -0.903126 -2.29903 -0.619204 0
M  V30 12 C -3.06353 -1.2387 -0.388019 0
M  V30 13 C -3.83763 -0.138438 -0.137008 0
M  V30 14 C -3.20984 1.05257 0.145813 0
M  V30 15 C -1.81667 1.13853 0.176445 0
M  V30 16 H 4.39788 -1.88698 -0.183175 0
M  V30 17 H 3.05046 -2.77551 -0.986135 0
M  V30 18 H 3.05757 3.00771 1.57043 0
M  V30 19 H 3.13109 3.39565 -0.176012 0
M  V30 20 H -1.37975 -3.1527 -0.822125 0
M  V30 21 H -3.57587 -2.16789 -0.608837 0
M  V30 22 H -4.89964 -0.201252 -0.15972 0
M  V30 23 H -3.78434 1.93463 0.347388 0
M  V30 24 H -1.35201 2.06823 0.397029 0
M  V30 END ATOM
M  V30 BEGIN BOND
M  V30 1 1 1 2
M  V30 2 2 2 3
M  V30 3 1 3 4
M  V30 4 2 4 5
M  V30 5 1 5 6
M  V30 6 1 6 7
M  V30 7 2 6 8
M  V30 8 1 4 9
M  V30 9 2 9 10
M  V30 10 1 10 11
M  V30 11 1 10 12
M  V30 12 2 12 13
M  V30 13 1 13 14
M  V30 14 2 14 15
M  V30 15 1 8 2
M  V30 16 1 15 9
M  V30 17 1 1 16
M  V30 18 1 1 17
M  V30 19 1 7 18
M  V30 20 1 7 19
M  V30 21 1 11 20
M  V30 22 1 12 21
M  V30 23 1 13 22
M  V30 24 1 14 23
M  V30 25 1 15 24
M  V30 END BOND
M  V30 END CTAB
M  END
