
     RDKit          3D

  0  0  0  0  0  0  0  0  0  0999 V3000
M  V30 BEGIN CTAB
M  V30 COUNTS 19 19 0 0 0
M  V30 BEGIN ATOM
M  V30 1 C -2.46219 -0.855874 0.0239143 0
M  V30 2 C -1.01161 -0.516504 0.072005 0
M  V30 3 C -0.121733 -1.46765 0.518656 0
M  V30 4 C 1.243 -1.21459 0.587739 0
M  V30 5 C 1.75345 0.0102228 0.206931 0
M  V30 6 C 0.85787 0.960515 -0.240087 0
M  V30 7 C -0.512148 0.702392 -0.307965 0
M  V30 8 N -1.42098 1.6948 -0.771683 0
M  V30 9 I 1.61894 2.83183 -0.824121 0
M  V30 10 N 3.15044 0.294669 0.268518 0
M  V30 11 H -2.64528 -1.51674 0.909298 0
M  V30 12 H -2.61451 -1.4435 -0.925332 0
M  V30 13 H -3.11144 0.0200218 0.0454263 0
M  V30 14 H -0.48952 -2.44106 0.825754 0
M  V30 15 H 1.93017 -1.98335 0.945013 0
M  V30 16 H -2.31275 1.87278 -0.256598 0
M  V30 17 H -1.21973 2.27068 -1.63892 0
M  V30 18 H 3.8135 -0.262485 -0.32164 0
M  V30 19 H 3.55452 1.04384 0.883095 0
M  V30 END ATOM
M  V30 BEGIN BOND
M  V30 1 1 1 2
M  V30 2 2 2 3
M  V30 3 1 3 4
M  V30 4 2 4 5
M  V30 5 1 5 6
M  V30 6 2 6 7
M  V30 7 1 7 8
M  V30 8 1 6 9
M  V30 9 1 5 10
M  V30 10 1 7 2
M  V30 11 1 1 11
M  V30 12 1 1 12
M  V30 13 1 1 13
M  V30 14 1 3 14
M  V30 15 1 4 15
M  V30 16 1 8 16
M  V30 17 1 8 17
M  V30 18 1 10 18
M  V30 19 1 10 19
M  V30 END BOND
M  V30 END CTAB
M  END
