
     RDKit          3D

  0  0  0  0  0  0  0  0  0  0999 V3000
M  V30 BEGIN CTAB
M  V30 COUNTS 28 29 0 0 0
M  V30 BEGIN ATOM
M  V30 1 N -4.52695 0.734887 -0.000796698 0
M  V30 2 C -3.10923 0.562386 -0.0509391 0
M  V30 3 C -2.26123 1.62618 -0.279213 0
M  V30 4 C -0.878483 1.4441 -0.325751 0
M  V30 5 C -0.32311 0.195653 -0.144741 0
M  V30 6 C -1.20098 -0.845412 0.0813485 0
M  V30 7 C -2.56441 -0.691371 0.131571 0
M  V30 8 N -3.38842 -1.81101 0.367991 0
M  V30 9 C 1.11428 -0.0306687 -0.187087 0
M  V30 10 N 1.58645 -1.21109 -0.00247783 0
M  V30 11 C 3.00218 -1.51242 -0.0300768 0
M  V30 12 C 3.85626 -0.366995 0.425301 0
M  V30 13 C 3.42016 0.969964 -0.0614548 0
M  V30 14 N 2.01666 1.02544 -0.428864 0
M  V30 15 H -5.11769 0.0270419 0.491453 0
M  V30 16 H -5.01804 1.5351 -0.43105 0
M  V30 17 H -2.7098 2.6059 -0.420548 0
M  V30 18 H -0.266431 2.30755 -0.506578 0
M  V30 19 H -0.800175 -1.8609 0.231442 0
M  V30 20 H -4.04518 -1.81424 1.15432 0
M  V30 21 H -3.33159 -2.62987 -0.250866 0
M  V30 22 H 3.16915 -2.35495 0.673974 0
M  V30 23 H 3.29859 -1.89713 -1.04325 0
M  V30 24 H 3.94626 -0.407534 1.54909 0
M  V30 25 H 4.88855 -0.554615 0.0224115 0
M  V30 26 H 3.52952 1.68815 0.803848 0
M  V30 27 H 4.02773 1.38464 -0.88425 0
M  V30 28 H 1.68593 1.88123 -0.884805 0
M  V30 END ATOM
M  V30 BEGIN BOND
M  V30 1 1 1 2
M  V30 2 2 2 3
M  V30 3 1 3 4
M  V30 4 2 4 5
M  V30 5 1 5 6
M  V30 6 2 6 7
M  V30 7 1 7 8
M  V30 8 1 5 9
M  V30 9 2 9 10
M  V30 10 1 10 11
M  V30 11 1 11 12
M  V30 12 1 12 13
M  V30 13 1 13 14
M  V30 14 1 7 2
M  V30 15 1 14 9
M  V30 16 1 1 15
M  V30 17 1 1 16
M  V30 18 1 3 17
M  V30 19 1 4 18
M  V30 20 1 6 19
M  V30 21 1 8 20
M  V30 22 1 8 21
M  V30 23 1 11 22
M  V30 24 1 11 23
M  V30 25 1 12 24
M  V30 26 1 12 25
M  V30 27 1 13 26
M  V30 28 1 13 27
M  V30 29 1 14 28
M  V30 END BOND
M  V30 END CTAB
M  END
