
     RDKit          3D

  0  0  0  0  0  0  0  0  0  0999 V3000
M  V30 BEGIN CTAB
M  V30 COUNTS 34 36 0 0 0
M  V30 BEGIN ATOM
M  V30 1 Cl 7.73332 0.271826 -1.31656 0
M  V30 2 C 6.03304 0.175717 -0.861677 0
M  V30 3 C 5.1482 0.964021 -1.55478 0
M  V30 4 C 3.80677 0.900709 -1.20978 0
M  V30 5 C 3.3387 0.0891847 -0.213799 0
M  V30 6 C 4.24265 -0.692043 0.467541 0
M  V30 7 C 5.60435 -0.657835 0.150673 0
M  V30 8 Cl 3.74169 -1.76587 1.76121 0
M  V30 9 C 1.93924 0.015476 0.154601 0
M  V30 10 C 0.965734 0.762746 -0.474836 0
M  V30 11 C -0.223563 0.389206 0.18307 0
M  V30 12 C 0.0698588 -0.526449 1.13857 0
M  V30 13 O 1.385 -0.711087 1.07399 0
M  V30 14 C -0.735605 -1.2408 2.09586 0
M  V30 15 N -1.98232 -1.08954 2.18345 0
M  V30 16 N -2.75609 -0.264564 1.42691 0
M  V30 17 C -3.70301 -0.842163 0.721435 0
M  V30 18 C -4.60234 -0.084237 -0.127223 0
M  V30 19 N -5.59811 -0.611443 -0.887811 0
M  V30 20 O -6.17944 0.363035 -1.48736 0
M  V30 21 N -5.65965 1.49451 -1.19405 0
M  V30 22 C -4.6593 1.27223 -0.338535 0
M  V30 23 N -3.80014 2.24102 0.26404 0
M  V30 24 N -3.87023 -2.25346 0.775911 0
M  V30 25 H 5.50163 1.6081 -2.34155 0
M  V30 26 H 3.13655 1.54802 -1.79046 0
M  V30 27 H 6.33365 -1.25159 0.65984 0
M  V30 28 H 1.03103 1.47732 -1.28077 0
M  V30 29 H -1.1739 0.797818 -0.0754939 0
M  V30 30 H -0.226689 -1.96996 2.80036 0
M  V30 31 H -3.75153 2.29417 1.30451 0
M  V30 32 H -3.21948 2.89743 -0.329478 0
M  V30 33 H -4.30217 -2.73019 1.60228 0
M  V30 34 H -3.56788 -2.87133 -0.00842088 0
M  V30 END ATOM
M  V30 BEGIN BOND
M  V30 1 1 1 2
M  V30 2 2 2 3
M  V30 3 1 3 4
M  V30 4 2 4 5
M  V30 5 1 5 6
M  V30 6 2 6 7
M  V30 7 1 6 8
M  V30 8 1 5 9
M  V30 9 2 9 10
M  V30 10 1 10 11
M  V30 11 2 11 12
M  V30 12 1 12 13
M  V30 13 1 12 14
M  V30 14 2 14 15
M  V30 15 1 15 16
M  V30 16 2 16 17
M  V30 17 1 17 18
M  V30 18 2 18 19
M  V30 19 1 19 20
M  V30 20 1 20 21
M  V30 21 2 21 22
M  V30 22 1 22 23
M  V30 23 1 17 24
M  V30 24 1 7 2
M  V30 25 1 13 9
M  V30 26 1 22 18
M  V30 27 1 3 25
M  V30 28 1 4 26
M  V30 29 1 7 27
M  V30 30 1 10 28
M  V30 31 1 11 29
M  V30 32 1 14 30
M  V30 33 1 23 31
M  V30 34 1 23 32
M  V30 35 1 24 33
M  V30 36 1 24 34
M  V30 END BOND
M  V30 END CTAB
M  END
