
     RDKit          3D

  0  0  0  0  0  0  0  0  0  0999 V3000
M  V30 BEGIN CTAB
M  V30 COUNTS 67 76 0 0 0
M  V30 BEGIN ATOM
M  V30 1 N 9.47779 -2.36953 1.78997 0
M  V30 2 C 8.31839 -1.64247 1.40038 0
M  V30 3 C 7.70371 -0.782937 2.2737 0
M  V30 4 C 6.58035 -0.0544609 1.95184 0
M  V30 5 C 6.06724 -0.215629 0.679621 0
M  V30 6 C 6.67578 -1.08088 -0.217796 0
M  V30 7 C 7.80186 -1.79979 0.131003 0
M  V30 8 C 8.43925 -2.66657 -0.719489 0
M  V30 9 C 7.91402 -2.81363 -1.98124 0
M  V30 10 C 6.77672 -2.10235 -2.36738 0
M  V30 11 C 6.16728 -1.24286 -1.48442 0
M  V30 12 C 5.03376 -0.531407 -1.86454 0
M  V30 13 O 4.62382 -0.725869 -3.03177 0
M  V30 14 N 4.45229 0.303971 -0.98744 0
M  V30 15 C 4.94628 0.46385 0.249005 0
M  V30 16 N 4.16238 1.35186 0.886824 0
M  V30 17 C 3.17645 1.7411 0.0326944 0
M  V30 18 C 3.35184 1.07243 -1.18009 0
M  V30 19 C 2.49311 1.27662 -2.23121 0
M  V30 20 C 1.44722 2.1443 -2.10262 0
M  V30 21 C 1.26855 2.81083 -0.900878 0
M  V30 22 C 2.12912 2.61976 0.183718 0
M  V30 23 C 0.130871 3.74543 -0.786412 0
M  V30 24 C -1.05724 2.9855 -0.285496 0
M  V30 25 C -1.30158 2.8606 1.07642 0
M  V30 26 C -2.40117 2.16011 1.5269 0
M  V30 27 C -3.2871 1.56544 0.641752 0
M  V30 28 C -3.0589 1.67998 -0.721442 0
M  V30 29 C -1.95085 2.38655 -1.13939 0
M  V30 30 N -4.05948 1.01893 -1.32865 0
M  V30 31 C -4.91121 0.49054 -0.421441 0
M  V30 32 N -4.4122 0.841887 0.785154 0
M  V30 33 C -5.08184 0.436498 1.90431 0
M  V30 34 O -4.59412 0.777465 3.00356 0
M  V30 35 C -6.24733 -0.318025 1.81863 0
M  V30 36 C -6.73415 -0.662551 0.575319 0
M  V30 37 C -6.06542 -0.257668 -0.541256 0
M  V30 38 C -6.58852 -0.623929 -1.76195 0
M  V30 39 C -7.74077 -1.36987 -1.88024 0
M  V30 40 C -8.42485 -1.78439 -0.750311 0
M  V30 41 C -7.89821 -1.41564 0.479244 0
M  V30 42 C -8.54876 -1.80786 1.62072 0
M  V30 43 C -8.06898 -1.46812 2.86744 0
M  V30 44 C -6.90722 -0.71635 2.9514 0
M  V30 45 N -9.61227 -2.55087 -0.795075 0
M  V30 46 H 9.54618 -2.93418 2.66502 0
M  V30 47 H 10.3154 -2.34413 1.17173 0
M  V30 48 H 8.10784 -0.656518 3.27379 0
M  V30 49 H 6.08862 0.625995 2.63161 0
M  V30 50 H 9.3218 -3.23813 -0.465276 0
M  V30 51 H 8.36932 -3.48647 -2.71108 0
M  V30 52 H 6.36428 -2.21785 -3.35795 0
M  V30 53 H 2.64653 0.753459 -3.15031 0
M  V30 54 H 0.737654 2.3335 -2.92489 0
M  V30 55 H 1.927 3.16709 1.07198 0
M  V30 56 H -0.120606 4.11296 -1.80062 0
M  V30 57 H 0.355638 4.60911 -0.126855 0
M  V30 58 H -0.5884 3.33908 1.76159 0
M  V30 59 H -2.5491 2.09061 2.59498 0
M  V30 60 H -1.78274 2.47006 -2.20401 0
M  V30 61 H -6.08822 -0.32196 -2.66821 0
M  V30 62 H -8.13896 -1.64991 -2.86185 0
M  V30 63 H -9.44824 -2.391 1.53564 0
M  V30 64 H -8.59731 -1.78775 3.75091 0
M  V30 65 H -6.51775 -0.441919 3.92053 0
M  V30 66 H -9.67204 -3.38393 -1.45215 0
M  V30 67 H -10.4628 -2.37811 -0.232331 0
M  V30 END ATOM
M  V30 BEGIN BOND
M  V30 1 1 1 2
M  V30 2 2 2 3
M  V30 3 1 3 4
M  V30 4 2 4 5
M  V30 5 1 5 6
M  V30 6 2 6 7
M  V30 7 1 7 8
M  V30 8 2 8 9
M  V30 9 1 9 10
M  V30 10 2 10 11
M  V30 11 1 11 12
M  V30 12 2 12 13
M  V30 13 1 12 14
M  V30 14 1 14 15
M  V30 15 2 15 16
M  V30 16 1 16 17
M  V30 17 2 17 18
M  V30 18 1 18 19
M  V30 19 2 19 20
M  V30 20 1 20 21
M  V30 21 2 21 22
M  V30 22 1 21 23
M  V30 23 1 23 24
M  V30 24 2 24 25
M  V30 25 1 25 26
M  V30 26 2 26 27
M  V30 27 1 27 28
M  V30 28 2 28 29
M  V30 29 1 28 30
M  V30 30 2 30 31
M  V30 31 1 31 32
M  V30 32 1 32 33
M  V30 33 2 33 34
M  V30 34 1 33 35
M  V30 35 1 35 36
M  V30 36 2 36 37
M  V30 37 1 37 38
M  V30 38 2 38 39
M  V30 39 1 39 40
M  V30 40 2 40 41
M  V30 41 1 41 42
M  V30 42 2 42 43
M  V30 43 1 43 44
M  V30 44 1 40 45
M  V30 45 1 7 2
M  V30 46 1 18 14
M  V30 47 1 29 24
M  V30 48 1 37 31
M  V30 49 1 15 5
M  V30 50 1 22 17
M  V30 51 1 32 27
M  V30 52 2 44 35
M  V30 53 1 11 6
M  V30 54 1 41 36
M  V30 55 1 1 46
M  V30 56 1 1 47
M  V30 57 1 3 48
M  V30 58 1 4 49
M  V30 59 1 8 50
M  V30 60 1 9 51
M  V30 61 1 10 52
M  V30 62 1 19 53
M  V30 63 1 20 54
M  V30 64 1 22 55
M  V30 65 1 23 56
M  V30 66 1 23 57
M  V30 67 1 25 58
M  V30 68 1 26 59
M  V30 69 1 29 60
M  V30 70 1 38 61
M  V30 71 1 39 62
M  V30 72 1 42 63
M  V30 73 1 43 64
M  V30 74 1 44 65
M  V30 75 1 45 66
M  V30 76 1 45 67
M  V30 END BOND
M  V30 END CTAB
M  END
