
     RDKit          3D

  0  0  0  0  0  0  0  0  0  0999 V3000
M  V30 BEGIN CTAB
M  V30 COUNTS 36 36 0 0 0
M  V30 BEGIN ATOM
M  V30 1 N -1.03112 2.69818 2.44464 0
M  V30 2 C -1.54501 1.59267 1.71159 0
M  V30 3 N -2.8195 1.17405 1.80569 0
M  V30 4 C -3.30391 0.115657 1.10191 0
M  V30 5 N -4.65261 -0.313514 1.21769 0
M  V30 6 C -2.46427 -0.565068 0.253167 0
M  V30 7 C -3.00488 -1.71613 -0.510783 0
M  V30 8 C -3.82485 -1.21216 -1.63988 0
M  V30 9 O -4.45619 -2.09292 -2.51947 0
M  V30 10 O -3.99663 0.0119191 -1.86748 0
M  V30 11 C -1.13153 -0.145268 0.139972 0
M  V30 12 O -0.35831 -0.867655 -0.720955 0
M  V30 13 C 1.00271 -0.663244 -1.01924 0
M  V30 14 C 1.90724 -0.783923 0.158342 0
M  V30 15 O 3.21852 -0.5845 -0.168687 0
M  V30 16 C 3.56942 0.62202 -0.692595 0
M  V30 17 P 5.35177 0.697816 -1.03776 0
M  V30 18 O 5.90543 2.30048 -0.838615 0
M  V30 19 O 6.2296 -0.28216 0.0167471 0
M  V30 20 O 5.65129 0.305042 -2.46509 0
M  V30 21 N -0.742647 0.910979 0.874858 0
M  V30 22 H -0.51269 3.48861 2.01091 0
M  V30 23 H -1.17336 2.73414 3.47619 0
M  V30 24 H -5.44316 -0.0010123 0.637658 0
M  V30 25 H -4.83084 -1.02285 1.98333 0
M  V30 26 H -3.57503 -2.37369 0.174272 0
M  V30 27 H -2.14413 -2.27889 -0.975564 0
M  V30 28 H -5.31568 -2.56992 -2.30291 0
M  V30 29 H 1.29332 -1.40927 -1.77193 0
M  V30 30 H 1.12947 0.344882 -1.48283 0
M  V30 31 H 1.85974 -1.86274 0.510728 0
M  V30 32 H 1.57576 -0.189971 1.04128 0
M  V30 33 H 3.35142 1.40542 0.0768868 0
M  V30 34 H 3.02281 0.916125 -1.60576 0
M  V30 35 H 5.50705 2.68819 -0.0210569 0
M  V30 36 H 5.75082 -1.07129 0.31768 0
M  V30 END ATOM
M  V30 BEGIN BOND
M  V30 1 1 1 2
M  V30 2 2 2 3
M  V30 3 1 3 4
M  V30 4 1 4 5
M  V30 5 2 4 6
M  V30 6 1 6 7
M  V30 7 1 7 8
M  V30 8 1 8 9
M  V30 9 2 8 10
M  V30 10 1 6 11
M  V30 11 1 11 12
M  V30 12 1 12 13
M  V30 13 1 13 14
M  V30 14 1 14 15
M  V30 15 1 15 16
M  V30 16 1 16 17
M  V30 17 1 17 18
M  V30 18 1 17 19
M  V30 19 2 17 20
M  V30 20 2 11 21
M  V30 21 1 21 2
M  V30 22 1 1 22
M  V30 23 1 1 23
M  V30 24 1 5 24
M  V30 25 1 5 25
M  V30 26 1 7 26
M  V30 27 1 7 27
M  V30 28 1 9 28
M  V30 29 1 13 29
M  V30 30 1 13 30
M  V30 31 1 14 31
M  V30 32 1 14 32
M  V30 33 1 16 33
M  V30 34 1 16 34
M  V30 35 1 18 35
M  V30 36 1 19 36
M  V30 END BOND
M  V30 END CTAB
M  END
