
     RDKit          3D

  0  0  0  0  0  0  0  0  0  0999 V3000
M  V30 BEGIN CTAB
M  V30 COUNTS 42 44 0 0 0
M  V30 BEGIN ATOM
M  V30 1 N -1.61998 2.08893 3.31882 0
M  V30 2 C -1.95928 1.29946 2.54312 0
M  V30 3 C -2.37729 0.282761 1.58323 0
M  V30 4 C -3.3201 -0.541701 2.02512 0
M  V30 5 N -3.87353 -0.444779 3.3226 0
M  V30 6 S -3.90311 -1.81916 0.840856 0
M  V30 7 C -3.90214 -0.823094 -0.684088 0
M  V30 8 C -2.88056 -0.00290587 -0.781921 0
M  V30 9 C -1.8303 0.0869651 0.262512 0
M  V30 10 C -0.782094 1.05559 -0.133866 0
M  V30 11 C -0.959699 2.41453 -0.000261301 0
M  V30 12 C 0.0610816 3.24119 -0.417383 0
M  V30 13 C 1.22218 2.74108 -0.951693 0
M  V30 14 C 1.39295 1.35778 -1.08472 0
M  V30 15 C 0.39683 0.507436 -0.677971 0
M  V30 16 O 0.547073 -0.849231 -0.808745 0
M  V30 17 C 1.69914 -1.43872 -1.2963 0
M  V30 18 C 2.87393 -1.32483 -0.405385 0
M  V30 19 C 2.87474 -0.820079 0.873555 0
M  V30 20 C 4.00356 -0.800153 1.66555 0
M  V30 21 C 5.17456 -1.30322 1.16309 0
M  V30 22 C 5.20876 -1.8149 -0.107987 0
M  V30 23 C 4.06949 -1.82307 -0.878307 0
M  V30 24 Cl 4.14193 -2.4784 -2.48851 0
M  V30 25 C -2.74954 0.865929 -1.95491 0
M  V30 26 N -2.65998 1.54034 -2.89026 0
M  V30 27 N -4.90636 -0.933025 -1.65474 0
M  V30 28 H -3.63511 -1.18678 4.01516 0
M  V30 29 H -4.49306 0.32196 3.59863 0
M  V30 30 H -1.34789 -0.940992 0.248726 0
M  V30 31 H -1.8875 2.80908 0.408128 0
M  V30 32 H -0.0747463 4.30764 -0.313004 0
M  V30 33 H 2.0431 3.38494 -1.288 0
M  V30 34 H 2.30136 0.977667 -1.52613 0
M  V30 35 H 1.53844 -2.56197 -1.40798 0
M  V30 36 H 1.96046 -1.06718 -2.33634 0
M  V30 37 H 1.95615 -0.435021 1.29754 0
M  V30 38 H 4.00248 -0.405724 2.66199 0
M  V30 39 H 6.09417 -1.3115 1.74632 0
M  V30 40 H 6.16106 -2.21371 -0.489584 0
M  V30 41 H -5.9137 -1.1345 -1.44142 0
M  V30 42 H -4.64748 -0.808634 -2.65468 0
M  V30 END ATOM
M  V30 BEGIN BOND
M  V30 1 3 1 2
M  V30 2 1 2 3
M  V30 3 2 3 4
M  V30 4 1 4 5
M  V30 5 1 4 6
M  V30 6 1 6 7
M  V30 7 2 7 8
M  V30 8 1 8 9
M  V30 9 1 9 10
M  V30 10 2 10 11
M  V30 11 1 11 12
M  V30 12 2 12 13
M  V30 13 1 13 14
M  V30 14 2 14 15
M  V30 15 1 15 16
M  V30 16 1 16 17
M  V30 17 1 17 18
M  V30 18 2 18 19
M  V30 19 1 19 20
M  V30 20 2 20 21
M  V30 21 1 21 22
M  V30 22 2 22 23
M  V30 23 1 23 24
M  V30 24 1 8 25
M  V30 25 3 25 26
M  V30 26 1 7 27
M  V30 27 1 9 3
M  V30 28 1 15 10
M  V30 29 1 23 18
M  V30 30 1 5 28
M  V30 31 1 5 29
M  V30 32 1 9 30
M  V30 33 1 11 31
M  V30 34 1 12 32
M  V30 35 1 13 33
M  V30 36 1 14 34
M  V30 37 1 17 35
M  V30 38 1 17 36
M  V30 39 1 19 37
M  V30 40 1 20 38
M  V30 41 1 21 39
M  V30 42 1 22 40
M  V30 43 1 27 41
M  V30 44 1 27 42
M  V30 END BOND
M  V30 END CTAB
M  END
