
     RDKit          3D

  0  0  0  0  0  0  0  0  0  0999 V3000
M  V30 BEGIN CTAB
M  V30 COUNTS 74 78 0 0 0
M  V30 BEGIN ATOM
M  V30 1 N -6.1881 5.06521 1.75132 0
M  V30 2 C -6.65035 4.28643 0.648468 0
M  V30 3 N -7.30297 4.91483 -0.268822 0
M  V30 4 N -6.38307 2.89673 0.605381 0
M  V30 5 C -5.33708 2.32787 -0.269424 0
M  V30 6 C -4.04187 2.80383 0.304025 0
M  V30 7 C -2.78252 2.44694 -0.341117 0
M  V30 8 C -2.26791 1.07618 -0.432506 0 CFG=2
M  V30 9 N -0.967201 1.1064 -1.16302 0
M  V30 10 C 0.210045 0.524243 -0.6199 0
M  V30 11 O 0.0776193 -0.010975 0.508444 0
M  V30 12 C 1.48596 0.535508 -1.31041 0 CFG=2
M  V30 13 C 1.34491 0.0561687 -2.77268 0
M  V30 14 C 2.83823 0.0246901 -3.13305 0
M  V30 15 N 3.54075 -0.238752 -1.91368 0
M  V30 16 C 4.05791 -1.61281 -1.98238 0
M  V30 17 C 5.03363 -1.73241 -0.814975 0
M  V30 18 C 4.399 -1.2767 0.455182 0 CFG=1
M  V30 19 N 4.54988 -2.27898 1.51157 0
M  V30 20 C 4.89748 0.0328678 0.993413 0
M  V30 21 C 6.32664 0.0771993 1.30305 0
M  V30 22 C 7.24862 0.522475 0.384089 0
M  V30 23 C 8.59796 0.568006 0.625097 0
M  V30 24 C 9.10171 0.154637 1.84227 0
M  V30 25 C 8.19561 -0.297167 2.78427 0
M  V30 26 C 6.85066 -0.336802 2.52821 0
M  V30 27 C 2.9365 -1.13474 0.20278 0
M  V30 28 O 2.13373 -1.73671 0.913181 0
M  V30 29 N 2.53936 -0.292781 -0.870912 0
M  V30 30 C -3.03808 0.0491089 -1.1439 0
M  V30 31 O -3.03529 0.0864924 -2.40128 0
M  V30 32 C -3.77735 -0.993805 -0.416993 0
M  V30 33 N -4.47957 -1.96151 -0.959862 0
M  V30 34 C -5.09322 -2.82823 -0.209669 0
M  V30 35 C -4.9765 -2.68898 1.14761 0
M  V30 36 S -3.96998 -1.2906 1.25091 0
M  V30 37 C -5.58666 -3.55447 2.06959 0
M  V30 38 C -6.35596 -4.61726 1.62032 0
M  V30 39 C -6.4579 -4.73629 0.256754 0
M  V30 40 C -5.87869 -3.9143 -0.659206 0
M  V30 41 H -6.31681 4.70939 2.73809 0
M  V30 42 H -5.71586 5.99333 1.63064 0
M  V30 43 H -7.6476 4.37811 -1.07506 0
M  V30 44 H -6.93256 2.26102 1.20168 0
M  V30 45 H -5.49651 2.81876 -1.27437 0
M  V30 46 H -5.52814 1.27619 -0.30952 0
M  V30 47 H -4.06067 2.53948 1.40909 0
M  V30 48 H -4.13868 3.94562 0.322928 0
M  V30 49 H -2.88331 2.8059 -1.43942 0
M  V30 50 H -1.97395 3.15391 0.039575 0
M  V30 51 H -2.0789 0.667462 0.596338 0
M  V30 52 H -0.95403 1.56145 -2.0699 0
M  V30 53 H 1.81759 1.61623 -1.44003 0
M  V30 54 H 0.994557 -0.987545 -2.80186 0
M  V30 55 H 0.778174 0.76006 -3.37725 0
M  V30 56 H 3.04755 -0.685975 -3.94266 0
M  V30 57 H 3.07095 1.07935 -3.43785 0
M  V30 58 H 4.60446 -1.80429 -2.92578 0
M  V30 59 H 3.20287 -2.28363 -1.81648 0
M  V30 60 H 5.94775 -1.23866 -1.11966 0
M  V30 61 H 5.2303 -2.8335 -0.70291 0
M  V30 62 H 4.11904 -1.97417 2.39352 0
M  V30 63 H 4.29659 -3.22921 1.19316 0
M  V30 64 H 4.32811 0.257197 1.92295 0
M  V30 65 H 4.67159 0.813996 0.23566 0
M  V30 66 H 6.89468 0.865234 -0.589477 0
M  V30 67 H 9.32189 0.921412 -0.104216 0
M  V30 68 H 10.1645 0.175589 2.06829 0
M  V30 69 H 8.59003 -0.624257 3.74611 0
M  V30 70 H 6.16387 -0.690285 3.26762 0
M  V30 71 H -5.40401 -3.31993 3.10408 0
M  V30 72 H -6.8132 -5.26589 2.34084 0
M  V30 73 H -7.068 -5.57978 -0.0982525 0
M  V30 74 H -6.02818 -4.1041 -1.70802 0
M  V30 END ATOM
M  V30 BEGIN BOND
M  V30 1 1 1 2
M  V30 2 2 2 3 CFG=2
M  V30 3 1 2 4
M  V30 4 1 4 5
M  V30 5 1 5 6
M  V30 6 1 6 7
M  V30 7 1 7 8
M  V30 8 1 8 9
M  V30 9 1 9 10
M  V30 10 2 10 11
M  V30 11 1 10 12
M  V30 12 1 12 13
M  V30 13 1 13 14
M  V30 14 1 14 15
M  V30 15 1 15 16
M  V30 16 1 16 17
M  V30 17 1 17 18
M  V30 18 1 18 19 CFG=1
M  V30 19 1 18 20
M  V30 20 1 20 21
M  V30 21 2 21 22
M  V30 22 1 22 23
M  V30 23 2 23 24
M  V30 24 1 24 25
M  V30 25 2 25 26
M  V30 26 1 18 27
M  V30 27 2 27 28
M  V30 28 1 27 29
M  V30 29 1 8 30
M  V30 30 2 30 31
M  V30 31 1 30 32
M  V30 32 2 32 33
M  V30 33 1 33 34
M  V30 34 2 34 35
M  V30 35 1 35 36
M  V30 36 1 35 37
M  V30 37 2 37 38
M  V30 38 1 38 39
M  V30 39 2 39 40
M  V30 40 1 29 12
M  V30 41 1 36 32
M  V30 42 1 29 15
M  V30 43 1 40 34
M  V30 44 1 26 21
M  V30 45 1 1 41
M  V30 46 1 1 42
M  V30 47 1 3 43
M  V30 48 1 4 44
M  V30 49 1 5 45
M  V30 50 1 5 46
M  V30 51 1 6 47
M  V30 52 1 6 48
M  V30 53 1 7 49
M  V30 54 1 7 50
M  V30 55 1 8 51 CFG=1
M  V30 56 1 9 52
M  V30 57 1 12 53 CFG=3
M  V30 58 1 13 54
M  V30 59 1 13 55
M  V30 60 1 14 56
M  V30 61 1 14 57
M  V30 62 1 16 58
M  V30 63 1 16 59
M  V30 64 1 17 60
M  V30 65 1 17 61
M  V30 66 1 19 62
M  V30 67 1 19 63
M  V30 68 1 20 64
M  V30 69 1 20 65
M  V30 70 1 22 66
M  V30 71 1 23 67
M  V30 72 1 24 68
M  V30 73 1 25 69
M  V30 74 1 26 70
M  V30 75 1 37 71
M  V30 76 1 38 72
M  V30 77 1 39 73
M  V30 78 1 40 74
M  V30 END BOND
M  V30 END CTAB
M  END
