
     RDKit          3D

  0  0  0  0  0  0  0  0  0  0999 V3000
M  V30 BEGIN CTAB
M  V30 COUNTS 77 82 0 0 0
M  V30 BEGIN ATOM
M  V30 1 C -4.97462 -3.18938 -1.7233 0
M  V30 2 C -5.46784 -2.03335 -0.882229 0
M  V30 3 C -4.96748 -0.723447 -1.446 0
M  V30 4 C -5.41907 0.437301 -0.660002 0
M  V30 5 N -6.55721 1.13048 -0.890389 0
M  V30 6 C -6.67619 2.11113 0.00815967 0
M  V30 7 C -5.58506 2.04135 0.832513 0
M  V30 8 N -4.83696 1.01239 0.401059 0
M  V30 9 C -3.57648 0.635129 1.03392 0
M  V30 10 C -2.41274 1.35739 0.51066 0
M  V30 11 O -2.43291 2.64756 0.577595 0
M  V30 12 N -1.25957 0.800294 -0.0631932 0
M  V30 13 C -0.171975 1.63602 -0.536322 0
M  V30 14 C 0.987921 0.883873 -1.06791 0
M  V30 15 C 1.39628 -0.315031 -0.280446 0
M  V30 16 C 0.238264 -1.0004 0.39845 0
M  V30 17 C -1.09367 -0.617659 -0.213228 0
M  V30 18 O 1.9088 -1.23819 -1.22521 0
M  V30 19 C 3.28676 -0.976058 -1.42793 0
M  V30 20 C 3.99005 -1.67884 -0.311912 0 CFG=2
M  V30 21 C 3.35986 -1.22974 0.986773 0 CFG=2
M  V30 22 C 2.50164 0.000407344 0.726265 0
M  V30 23 C 4.33693 -0.956175 2.0771 0
M  V30 24 O 2.46305 -2.21035 1.47551 0
M  V30 25 N 5.4116 -1.60941 -0.318919 0
M  V30 26 C 6.27756 -2.66313 -0.228987 0
M  V30 27 N 7.53582 -2.2469 -0.261245 0
M  V30 28 C 7.50506 -0.908316 -0.373324 0
M  V30 29 C 6.19134 -0.502872 -0.409952 0
M  V30 30 N 5.93983 0.802753 -0.51951 0
M  V30 31 C 6.90665 1.72797 -0.594567 0
M  V30 32 N 6.66265 3.11516 -0.709515 0
M  V30 33 N 8.20216 1.33581 -0.559009 0
M  V30 34 C 8.52565 0.0442941 -0.450541 0
M  V30 35 N 9.86424 -0.42896 -0.405109 0
M  V30 36 C -5.45322 2.95978 1.8727 0
M  V30 37 C -6.38926 3.94201 2.10211 0
M  V30 38 C -7.48532 4.0035 1.26579 0
M  V30 39 C -7.61415 3.08946 0.231974 0
M  V30 40 C -6.95669 -2.10503 -0.814136 0
M  V30 41 H -5.64835 -3.34629 -2.60031 0
M  V30 42 H -4.98283 -4.09119 -1.05195 0
M  V30 43 H -3.9142 -3.05819 -2.0204 0
M  V30 44 H -5.06752 -2.17915 0.161562 0
M  V30 45 H -5.38997 -0.628327 -2.47746 0
M  V30 46 H -3.88027 -0.734532 -1.55841 0
M  V30 47 H -3.6845 0.91835 2.12072 0
M  V30 48 H -3.51332 -0.451138 1.0345 0
M  V30 49 H 0.0974262 2.37918 0.253867 0
M  V30 50 H -0.594948 2.25522 -1.38235 0
M  V30 51 H 1.85527 1.57725 -1.1289 0
M  V30 52 H 0.76256 0.617707 -2.13773 0
M  V30 53 H 0.302964 -2.1072 0.324886 0
M  V30 54 H 0.214888 -0.656571 1.46121 0
M  V30 55 H -1.13158 -0.922697 -1.29392 0
M  V30 56 H -1.84734 -1.23664 0.310639 0
M  V30 57 H 3.52875 -1.49777 -2.38119 0
M  V30 58 H 3.46153 0.0932833 -1.49525 0
M  V30 59 H 3.70933 -2.76794 -0.430175 0
M  V30 60 H 2.02281 0.304451 1.69598 0
M  V30 61 H 3.05324 0.86836 0.380611 0
M  V30 62 H 4.67657 0.0926879 2.14957 0
M  V30 63 H 3.8287 -1.16461 3.05621 0
M  V30 64 H 5.1632 -1.69109 2.01564 0
M  V30 65 H 2.59296 -3.0032 0.905523 0
M  V30 66 H 5.94868 -3.70155 -0.143275 0
M  V30 67 H 7.0911 3.73051 -1.43689 0
M  V30 68 H 6.01166 3.58378 -0.0338773 0
M  V30 69 H 10.15 -1.36123 -0.782812 0
M  V30 70 H 10.6404 0.147484 0.0167729 0
M  V30 71 H -4.60888 2.91561 2.52006 0
M  V30 72 H -6.27475 4.64585 2.91082 0
M  V30 73 H -8.27092 4.74781 1.37721 0
M  V30 74 H -8.46188 3.12171 -0.433936 0
M  V30 75 H -7.37101 -1.51927 0.0157394 0
M  V30 76 H -7.40601 -1.78064 -1.79647 0
M  V30 77 H -7.22539 -3.18082 -0.66977 0
M  V30 END ATOM
M  V30 BEGIN BOND
M  V30 1 1 1 2
M  V30 2 1 2 3
M  V30 3 1 3 4
M  V30 4 2 4 5
M  V30 5 1 5 6
M  V30 6 2 6 7
M  V30 7 1 7 8
M  V30 8 1 8 9
M  V30 9 1 9 10
M  V30 10 2 10 11
M  V30 11 1 10 12
M  V30 12 1 12 13
M  V30 13 1 13 14
M  V30 14 1 14 15
M  V30 15 1 15 16
M  V30 16 1 16 17
M  V30 17 1 15 18
M  V30 18 1 18 19
M  V30 19 1 19 20
M  V30 20 1 20 21
M  V30 21 1 21 22
M  V30 22 1 21 23
M  V30 23 1 21 24 CFG=1
M  V30 24 1 20 25
M  V30 25 1 25 26
M  V30 26 2 26 27
M  V30 27 1 27 28
M  V30 28 2 28 29
M  V30 29 1 29 30
M  V30 30 2 30 31
M  V30 31 1 31 32
M  V30 32 1 31 33
M  V30 33 2 33 34
M  V30 34 1 34 35
M  V30 35 1 7 36
M  V30 36 2 36 37
M  V30 37 1 37 38
M  V30 38 2 38 39
M  V30 39 1 2 40
M  V30 40 1 8 4
M  V30 41 1 17 12
M  V30 42 1 29 25
M  V30 43 1 39 6
M  V30 44 1 22 15
M  V30 45 1 34 28
M  V30 46 1 1 41
M  V30 47 1 1 42
M  V30 48 1 1 43
M  V30 49 1 2 44
M  V30 50 1 3 45
M  V30 51 1 3 46
M  V30 52 1 9 47
M  V30 53 1 9 48
M  V30 54 1 13 49
M  V30 55 1 13 50
M  V30 56 1 14 51
M  V30 57 1 14 52
M  V30 58 1 16 53
M  V30 59 1 16 54
M  V30 60 1 17 55
M  V30 61 1 17 56
M  V30 62 1 19 57
M  V30 63 1 19 58
M  V30 64 1 20 59 CFG=3
M  V30 65 1 22 60
M  V30 66 1 22 61
M  V30 67 1 23 62
M  V30 68 1 23 63
M  V30 69 1 23 64
M  V30 70 1 24 65
M  V30 71 1 26 66
M  V30 72 1 32 67
M  V30 73 1 32 68
M  V30 74 1 35 69
M  V30 75 1 35 70
M  V30 76 1 36 71
M  V30 77 1 37 72
M  V30 78 1 38 73
M  V30 79 1 39 74
M  V30 80 1 40 75
M  V30 81 1 40 76
M  V30 82 1 40 77
M  V30 END BOND
M  V30 END CTAB
M  END
