
     RDKit          3D

  0  0  0  0  0  0  0  0  0  0999 V3000
M  V30 BEGIN CTAB
M  V30 COUNTS 71 75 0 0 0
M  V30 BEGIN ATOM
M  V30 1 N 8.64685 -1.63582 0.101457 0
M  V30 2 C 7.37248 -1.86432 -0.577366 0
M  V30 3 C 6.23833 -1.62764 0.422207 0
M  V30 4 C 4.89024 -1.85065 -0.197044 0
M  V30 5 C 4.5917 -0.936153 -1.36492 0
M  V30 6 C 3.25713 -1.22187 -1.95377 0
M  V30 7 N 2.12648 -1.08236 -1.10478 0
M  V30 8 C 1.37998 0.136329 -0.937408 0
M  V30 9 O 1.51227 1.15483 -1.68443 0
M  V30 10 C 0.476263 -0.00218638 0.193759 0
M  V30 11 C 0.912473 0.668703 1.42619 0
M  V30 12 C 1.13578 2.12928 1.37182 0
M  V30 13 C 0.145957 3.11343 1.57194 0
M  V30 14 N 0.662219 4.3356 1.39685 0
M  V30 15 C 1.97301 4.22051 1.08475 0
M  V30 16 C 2.26233 2.87017 1.07029 0
M  V30 17 C 3.5623 2.46466 0.800809 0
M  V30 18 C 4.50922 3.42593 0.557012 0
M  V30 19 C 4.20705 4.77552 0.573051 0
M  V30 20 C 2.92259 5.17993 0.840468 0
M  V30 21 N 0.344119 -1.45122 0.368622 0
M  V30 22 C 1.45763 -2.03661 -0.283341 0
M  V30 23 O 1.87159 -3.24282 -0.200118 0
M  V30 24 S -0.878078 -2.34965 1.17659 0
M  V30 25 O -1.08287 -1.891 2.58802 0
M  V30 26 O -0.518913 -3.80792 1.25581 0
M  V30 27 C -2.41364 -2.23933 0.357311 0
M  V30 28 C -2.77218 -3.08875 -0.664008 0
M  V30 29 C -4.0064 -2.94863 -1.27852 0
M  V30 30 C -4.88876 -1.94483 -0.862457 0
M  V30 31 O -6.10913 -1.86883 -1.53002 0
M  V30 32 C -7.01852 -0.903399 -1.13399 0
M  V30 33 C -7.03396 0.367254 -1.6541 0
M  V30 34 C -7.9529 1.30521 -1.23908 0
M  V30 35 C -8.9009 0.998076 -0.275113 0
M  V30 36 N -9.86218 1.95026 0.169124 0
M  V30 37 C -8.88899 -0.288546 0.255465 0
M  V30 38 C -7.97272 -1.21089 -0.164432 0
M  V30 39 C -4.52926 -1.10822 0.149131 0
M  V30 40 C -3.29114 -1.25404 0.76002 0
M  V30 41 H 8.61701 -1.82952 1.10603 0
M  V30 42 H 9.44045 -2.0772 -0.402152 0
M  V30 43 H 7.28266 -1.19669 -1.46716 0
M  V30 44 H 7.3788 -2.92114 -0.916158 0
M  V30 45 H 6.34366 -0.640973 0.892764 0
M  V30 46 H 6.34666 -2.4044 1.22442 0
M  V30 47 H 4.13033 -1.6154 0.585416 0
M  V30 48 H 4.80129 -2.91432 -0.47243 0
M  V30 49 H 4.74981 0.13139 -1.10375 0
M  V30 50 H 5.38395 -1.14415 -2.13816 0
M  V30 51 H 3.10989 -0.525809 -2.8326 0
M  V30 52 H 3.2737 -2.23623 -2.45729 0
M  V30 53 H -0.514141 0.424581 -0.141998 0
M  V30 54 H 1.87893 0.22863 1.83773 0
M  V30 55 H 0.208626 0.517283 2.29047 0
M  V30 56 H -0.886934 2.92743 1.82959 0
M  V30 57 H 0.168971 5.27207 1.4756 0
M  V30 58 H 3.78852 1.3958 0.790195 0
M  V30 59 H 5.53443 3.14551 0.344092 0
M  V30 60 H 4.94981 5.534 0.380338 0
M  V30 61 H 2.66592 6.23197 0.857552 0
M  V30 62 H -2.05001 -3.84617 -0.944978 0
M  V30 63 H -4.29218 -3.61913 -2.08974 0
M  V30 64 H -6.30543 0.61884 -2.40417 0
M  V30 65 H -7.9879 2.31388 -1.63129 0
M  V30 66 H -10.0786 1.98661 1.18768 0
M  V30 67 H -10.3612 2.61026 -0.455015 0
M  V30 68 H -9.6358 -0.514266 1.00924 0
M  V30 69 H -7.9604 -2.2137 0.24617 0
M  V30 70 H -5.23751 -0.327231 0.459659 0
M  V30 71 H -3.08078 -0.551915 1.55415 0
M  V30 END ATOM
M  V30 BEGIN BOND
M  V30 1 1 1 2
M  V30 2 1 2 3
M  V30 3 1 3 4
M  V30 4 1 4 5
M  V30 5 1 5 6
M  V30 6 1 6 7
M  V30 7 1 7 8
M  V30 8 2 8 9
M  V30 9 1 8 10
M  V30 10 1 10 11
M  V30 11 1 11 12
M  V30 12 2 12 13
M  V30 13 1 13 14
M  V30 14 1 14 15
M  V30 15 2 15 16
M  V30 16 1 16 17
M  V30 17 2 17 18
M  V30 18 1 18 19
M  V30 19 2 19 20
M  V30 20 1 10 21
M  V30 21 1 21 22
M  V30 22 2 22 23
M  V30 23 1 21 24
M  V30 24 2 24 25
M  V30 25 2 24 26
M  V30 26 1 24 27
M  V30 27 2 27 28
M  V30 28 1 28 29
M  V30 29 2 29 30
M  V30 30 1 30 31
M  V30 31 1 31 32
M  V30 32 2 32 33
M  V30 33 1 33 34
M  V30 34 2 34 35
M  V30 35 1 35 36
M  V30 36 1 35 37
M  V30 37 2 37 38
M  V30 38 1 30 39
M  V30 39 2 39 40
M  V30 40 1 22 7
M  V30 41 1 40 27
M  V30 42 1 16 12
M  V30 43 1 38 32
M  V30 44 1 20 15
M  V30 45 1 1 41
M  V30 46 1 1 42
M  V30 47 1 2 43
M  V30 48 1 2 44
M  V30 49 1 3 45
M  V30 50 1 3 46
M  V30 51 1 4 47
M  V30 52 1 4 48
M  V30 53 1 5 49
M  V30 54 1 5 50
M  V30 55 1 6 51
M  V30 56 1 6 52
M  V30 57 1 10 53
M  V30 58 1 11 54
M  V30 59 1 11 55
M  V30 60 1 13 56
M  V30 61 1 14 57
M  V30 62 1 17 58
M  V30 63 1 18 59
M  V30 64 1 19 60
M  V30 65 1 20 61
M  V30 66 1 28 62
M  V30 67 1 29 63
M  V30 68 1 33 64
M  V30 69 1 34 65
M  V30 70 1 36 66
M  V30 71 1 36 67
M  V30 72 1 37 68
M  V30 73 1 38 69
M  V30 74 1 39 70
M  V30 75 1 40 71
M  V30 END BOND
M  V30 END CTAB
M  END
