
     RDKit          3D

  0  0  0  0  0  0  0  0  0  0999 V3000
M  V30 BEGIN CTAB
M  V30 COUNTS 47 47 0 0 0
M  V30 BEGIN ATOM
M  V30 1 N -1.4434 -0.22272 -2.27749 0
M  V30 2 C -1.12039 -0.195181 -0.878286 0 CFG=1
M  V30 3 C -2.15587 -0.957446 -0.102595 0
M  V30 4 C -3.53351 -0.389853 -0.261294 0
M  V30 5 C -4.56118 -1.17284 0.532326 0
M  V30 6 N -5.86576 -0.597117 0.353916 0
M  V30 7 C -6.16666 0.674049 0.878693 0
M  V30 8 N -5.71284 1.1475 2.12733 0
M  V30 9 N -6.91552 1.46582 0.162028 0
M  V30 10 C 0.229406 -0.85831 -0.715217 0
M  V30 11 O 0.843729 -1.27725 -1.72684 0
M  V30 12 O 0.800253 -1.0137 0.514948 0
M  V30 13 C 1.99754 -1.57134 0.83001 0
M  V30 14 C 3.26384 -0.899736 0.351116 0 CFG=1
M  V30 15 O 3.43108 -0.779283 -0.97638 0
M  V30 16 C 4.42186 -0.0192582 -1.48787 0 CFG=2
M  V30 17 O 5.60804 -0.79229 -1.45541 0
M  V30 18 C 4.72919 1.26104 -0.792812 0 CFG=2
M  V30 19 O 6.02634 1.27899 -0.233673 0
M  V30 20 C 3.76206 1.58074 0.319146 0 CFG=1
M  V30 21 O 2.5756 2.13748 -0.132434 0
M  V30 22 C 3.55975 0.346286 1.1527 0 CFG=1
M  V30 23 O 2.51223 0.51442 2.066 0
M  V30 24 H -1.85687 -1.12252 -2.54049 0
M  V30 25 H -1.90808 0.6199 -2.63791 0
M  V30 26 H -1.06433 0.878119 -0.580178 0
M  V30 27 H -2.18114 -1.99055 -0.534524 0
M  V30 28 H -1.87032 -1.08623 0.966162 0
M  V30 29 H -3.54896 0.660118 0.100462 0
M  V30 30 H -3.78 -0.4001 -1.33789 0
M  V30 31 H -4.32798 -1.14374 1.62283 0
M  V30 32 H -4.51731 -2.22321 0.196633 0
M  V30 33 H -6.59359 -1.12123 -0.165317 0
M  V30 34 H -6.22064 0.897327 2.98828 0
M  V30 35 H -4.87368 1.74302 2.17333 0
M  V30 36 H -7.19413 2.41908 0.456756 0
M  V30 37 H 2.08829 -1.54681 1.9671 0
M  V30 38 H 2.07508 -2.67078 0.610099 0
M  V30 39 H 4.06993 -1.6389 0.679686 0
M  V30 40 H 4.29719 0.18243 -2.59585 0
M  V30 41 H 5.58435 -1.34184 -0.63438 0
M  V30 42 H 4.6919 2.09439 -1.51557 0
M  V30 43 H 6.69091 1.18481 -0.959361 0
M  V30 44 H 4.25195 2.339 0.964538 0
M  V30 45 H 2.64599 3.11433 -0.189143 0
M  V30 46 H 4.47553 0.209433 1.75398 0
M  V30 47 H 2.78017 0.283966 2.98525 0
M  V30 END ATOM
M  V30 BEGIN BOND
M  V30 1 1 1 2
M  V30 2 1 2 3
M  V30 3 1 3 4
M  V30 4 1 4 5
M  V30 5 1 5 6
M  V30 6 1 6 7
M  V30 7 1 7 8
M  V30 8 2 7 9 CFG=2
M  V30 9 1 2 10
M  V30 10 2 10 11
M  V30 11 1 10 12
M  V30 12 1 12 13
M  V30 13 1 13 14
M  V30 14 1 14 15
M  V30 15 1 15 16
M  V30 16 1 16 17
M  V30 17 1 16 18
M  V30 18 1 18 19
M  V30 19 1 18 20
M  V30 20 1 20 21
M  V30 21 1 20 22
M  V30 22 1 22 23
M  V30 23 1 22 14
M  V30 24 1 1 24
M  V30 25 1 1 25
M  V30 26 1 2 26 CFG=1
M  V30 27 1 3 27
M  V30 28 1 3 28
M  V30 29 1 4 29
M  V30 30 1 4 30
M  V30 31 1 5 31
M  V30 32 1 5 32
M  V30 33 1 6 33
M  V30 34 1 8 34
M  V30 35 1 8 35
M  V30 36 1 9 36
M  V30 37 1 13 37
M  V30 38 1 13 38
M  V30 39 1 14 39 CFG=1
M  V30 40 1 16 40 CFG=3
M  V30 41 1 17 41
M  V30 42 1 18 42 CFG=3
M  V30 43 1 19 43
M  V30 44 1 20 44 CFG=1
M  V30 45 1 21 45
M  V30 46 1 22 46 CFG=1
M  V30 47 1 23 47
M  V30 END BOND
M  V30 END CTAB
M  END
