
     RDKit          3D

  0  0  0  0  0  0  0  0  0  0999 V3000
M  V30 BEGIN CTAB
M  V30 COUNTS 35 36 0 0 0
M  V30 BEGIN ATOM
M  V30 1 N -5.02529 2.07924 1.21071 0
M  V30 2 C -3.86864 1.55936 0.569496 0
M  V30 3 C -3.57375 0.216194 0.553008 0
M  V30 4 C -2.42606 -0.277272 -0.0859197 0
M  V30 5 C -1.54693 0.564154 -0.722544 0
M  V30 6 S -0.0908703 -0.0409001 -1.55395 0
M  V30 7 C 1.35613 0.0368782 -0.511256 0
M  V30 8 C 2.56491 -0.430979 -0.982304 0
M  V30 9 C 3.69984 -0.38196 -0.194355 0
M  V30 10 C 3.68103 0.131955 1.08941 0
M  V30 11 N 4.83512 0.189938 1.91119 0
M  V30 12 C 2.47873 0.602181 1.57021 0
M  V30 13 C 1.35672 0.545985 0.771745 0
M  V30 14 S 2.61952 -1.08777 -2.60503 0
M  V30 15 O 1.54831 -2.40611 -2.66384 0
M  V30 16 O 3.99717 -1.49607 -2.98859 0
M  V30 17 O 2.09643 -0.0738122 -3.57053 0
M  V30 18 C -1.84842 1.92927 -0.705159 0
M  V30 19 C -2.97991 2.39848 -0.073558 0
M  V30 20 S -2.12394 -1.99806 -0.0912277 0
M  V30 21 O -0.691755 -2.41041 0.633158 0
M  V30 22 O -2.0398 -2.4185 -1.54315 0
M  V30 23 O -3.29795 -2.73408 0.515144 0
M  V30 24 H -5.95513 1.68018 0.963943 0
M  V30 25 H -5.0229 2.84064 1.92074 0
M  V30 26 H -4.2404 -0.475454 1.04291 0
M  V30 27 H 4.65418 -0.746042 -0.552935 0
M  V30 28 H 5.3369 -0.671676 2.21244 0
M  V30 29 H 5.17662 1.12392 2.21231 0
M  V30 30 H 2.44532 1.01108 2.58084 0
M  V30 31 H 0.411838 0.925876 1.17567 0
M  V30 32 H 1.52492 -2.88352 -1.79549 0
M  V30 33 H -1.14955 2.56818 -1.20831 0
M  V30 34 H -3.20491 3.45118 -0.064703 0
M  V30 35 H -0.69748 -3.32211 0.979936 0
M  V30 END ATOM
M  V30 BEGIN BOND
M  V30 1 1 1 2
M  V30 2 2 2 3
M  V30 3 1 3 4
M  V30 4 2 4 5
M  V30 5 1 5 6
M  V30 6 1 6 7
M  V30 7 2 7 8
M  V30 8 1 8 9
M  V30 9 2 9 10
M  V30 10 1 10 11
M  V30 11 1 10 12
M  V30 12 2 12 13
M  V30 13 1 8 14
M  V30 14 1 14 15
M  V30 15 2 14 16
M  V30 16 2 14 17
M  V30 17 1 5 18
M  V30 18 2 18 19
M  V30 19 1 4 20
M  V30 20 1 20 21
M  V30 21 2 20 22
M  V30 22 2 20 23
M  V30 23 1 19 2
M  V30 24 1 13 7
M  V30 25 1 1 24
M  V30 26 1 1 25
M  V30 27 1 3 26
M  V30 28 1 9 27
M  V30 29 1 11 28
M  V30 30 1 11 29
M  V30 31 1 12 30
M  V30 32 1 13 31
M  V30 33 1 15 32
M  V30 34 1 18 33
M  V30 35 1 19 34
M  V30 36 1 21 35
M  V30 END BOND
M  V30 END CTAB
M  END
