
     RDKit          3D

  0  0  0  0  0  0  0  0  0  0999 V3000
M  V30 BEGIN CTAB
M  V30 COUNTS 27 28 0 0 0
M  V30 BEGIN ATOM
M  V30 1 C 0.628191 -1.42269 -1.8123 0
M  V30 2 C 1.29251 -0.564302 -0.802588 0
M  V30 3 C 0.502136 0.0798396 0.119907 0
M  V30 4 C -0.953404 -0.0697428 0.0897822 0
M  V30 5 C -1.69883 0.923183 -0.526889 0
M  V30 6 C -3.07034 0.834905 -0.596053 0
M  V30 7 C -3.73973 -0.25139 -0.0493812 0
M  V30 8 Cl -5.4777 -0.359461 -0.136536 0
M  V30 9 C -2.96776 -1.22068 0.555018 0
M  V30 10 C -1.59999 -1.15611 0.637437 0
M  V30 11 C 1.14493 0.876736 1.05444 0
M  V30 12 N 0.322681 1.54749 1.9934 0
M  V30 13 N 2.48405 1.00345 1.04544 0
M  V30 14 C 3.25849 0.374724 0.145027 0
M  V30 15 N 4.68474 0.52559 0.159291 0
M  V30 16 N 2.64613 -0.399656 -0.76504 0
M  V30 17 H -0.4159 -1.13085 -1.94654 0
M  V30 18 H 0.649446 -2.46951 -1.41824 0
M  V30 19 H 1.12631 -1.35493 -2.81871 0
M  V30 20 H -1.1923 1.76424 -0.944151 0
M  V30 21 H -3.63226 1.64021 -1.09011 0
M  V30 22 H -3.51457 -2.08018 0.9789 0
M  V30 23 H -1.00788 -1.91392 1.1086 0
M  V30 24 H 0.611254 1.51984 2.99113 0
M  V30 25 H -0.546209 2.06071 1.74294 0
M  V30 26 H 5.12296 1.3735 -0.308065 0
M  V30 27 H 5.34306 -0.130996 0.593291 0
M  V30 END ATOM
M  V30 BEGIN BOND
M  V30 1 1 1 2
M  V30 2 2 2 3
M  V30 3 1 3 4
M  V30 4 2 4 5
M  V30 5 1 5 6
M  V30 6 2 6 7
M  V30 7 1 7 8
M  V30 8 1 7 9
M  V30 9 2 9 10
M  V30 10 1 3 11
M  V30 11 1 11 12
M  V30 12 2 11 13
M  V30 13 1 13 14
M  V30 14 1 14 15
M  V30 15 2 14 16
M  V30 16 1 16 2
M  V30 17 1 10 4
M  V30 18 1 1 17
M  V30 19 1 1 18
M  V30 20 1 1 19
M  V30 21 1 5 20
M  V30 22 1 6 21
M  V30 23 1 9 22
M  V30 24 1 10 23
M  V30 25 1 12 24
M  V30 26 1 12 25
M  V30 27 1 15 26
M  V30 28 1 15 27
M  V30 END BOND
M  V30 END CTAB
M  END
