
     RDKit          3D

  0  0  0  0  0  0  0  0  0  0999 V3000
M  V30 BEGIN CTAB
M  V30 COUNTS 29 29 0 0 0
M  V30 BEGIN ATOM
M  V30 1 N 2.65924 2.91625 -0.242449 0
M  V30 2 C 2.71625 1.74928 -0.0938889 0
M  V30 3 C 2.80118 0.332696 0.0927808 0
M  V30 4 C 3.93867 -0.310858 0.251776 0
M  V30 5 N 3.95397 -1.74443 0.438557 0
M  V30 6 C 5.20654 0.449524 0.164173 0
M  V30 7 C 1.62292 -0.487946 0.0471783 0
M  V30 8 O 1.59507 -1.72769 0.133219 0
M  V30 9 C 0.269291 0.183203 -0.131138 0
M  V30 10 S -0.714283 -0.963829 -1.04382 0
M  V30 11 C -2.44134 -0.876101 -0.718753 0
M  V30 12 N -3.40684 -1.6717 -1.31348 0
M  V30 13 N -4.56967 -1.3619 -0.842817 0
M  V30 14 C -4.4622 -0.380698 0.0599133 0
M  V30 15 N -3.12721 -0.0878965 0.120207 0
M  V30 16 N -2.62581 0.930918 0.915938 0
M  V30 17 C -5.59788 0.253856 0.812267 0
M  V30 18 F -6.4119 -0.717029 1.28655 0
M  V30 19 F -6.23538 1.09555 -0.0599403 0
M  V30 20 F -5.08367 0.967868 1.90798 0
M  V30 21 H 4.1872 -2.42274 -0.291417 0
M  V30 22 H 3.69624 -2.14972 1.39322 0
M  V30 23 H 6.01964 -0.320288 0.375836 0
M  V30 24 H 5.35381 0.843576 -0.897768 0
M  V30 25 H 5.16741 1.29313 0.818244 0
M  V30 26 H 0.42994 1.11468 -0.658821 0
M  V30 27 H -0.0969929 0.364804 0.928852 0
M  V30 28 H -2.41394 0.8486 1.95448 0
M  V30 29 H -2.43024 1.87889 0.492865 0
M  V30 END ATOM
M  V30 BEGIN BOND
M  V30 1 3 1 2
M  V30 2 1 2 3
M  V30 3 2 3 4 CFG=2
M  V30 4 1 4 5
M  V30 5 1 4 6
M  V30 6 1 3 7
M  V30 7 2 7 8
M  V30 8 1 7 9
M  V30 9 1 9 10
M  V30 10 1 10 11
M  V30 11 2 11 12
M  V30 12 1 12 13
M  V30 13 2 13 14
M  V30 14 1 14 15
M  V30 15 1 15 16
M  V30 16 1 14 17
M  V30 17 1 17 18
M  V30 18 1 17 19
M  V30 19 1 17 20
M  V30 20 1 15 11
M  V30 21 1 5 21
M  V30 22 1 5 22
M  V30 23 1 6 23
M  V30 24 1 6 24
M  V30 25 1 6 25
M  V30 26 1 9 26
M  V30 27 1 9 27
M  V30 28 1 16 28
M  V30 29 1 16 29
M  V30 END BOND
M  V30 END CTAB
M  END
