
     RDKit          3D

  0  0  0  0  0  0  0  0  0  0999 V3000
M  V30 BEGIN CTAB
M  V30 COUNTS 16 16 0 0 0
M  V30 BEGIN ATOM
M  V30 1 N -0.10666 2.90832 -0.232358 0
M  V30 2 C -0.106775 1.49315 -0.134107 0
M  V30 3 N 0.996587 0.737129 -0.147137 0
M  V30 4 C 0.990523 -0.605664 -0.0535597 0
M  V30 5 N -0.216686 -1.21371 0.0603338 0
M  V30 6 C -1.35123 -0.496927 0.0779423 0
M  V30 7 N -2.61097 -1.13313 0.196914 0
M  V30 8 N -1.28876 0.841312 -0.0186706 0
M  V30 9 C 2.24721 -1.41827 -0.0717592 0
M  V30 10 F 2.23336 -2.37626 -1.04425 0
M  V30 11 Cl 2.49134 -2.21347 1.52227 0
M  V30 12 H -0.182345 3.46941 0.642048 0
M  V30 13 H -0.0352662 3.43175 -1.1293 0
M  V30 14 H -3.0495 -1.19124 1.13078 0
M  V30 15 H -3.09381 -1.53627 -0.627696 0
M  V30 16 H 3.08297 -0.696133 -0.171461 0
M  V30 END ATOM
M  V30 BEGIN BOND
M  V30 1 1 1 2
M  V30 2 2 2 3
M  V30 3 1 3 4
M  V30 4 2 4 5
M  V30 5 1 5 6
M  V30 6 1 6 7
M  V30 7 2 6 8
M  V30 8 1 4 9
M  V30 9 1 9 10
M  V30 10 1 9 11
M  V30 11 1 8 2
M  V30 12 1 1 12
M  V30 13 1 1 13
M  V30 14 1 7 14
M  V30 15 1 7 15
M  V30 16 1 9 16
M  V30 END BOND
M  V30 END CTAB
M  END
