
     RDKit          3D

  0  0  0  0  0  0  0  0  0  0999 V3000
M  V30 BEGIN CTAB
M  V30 COUNTS 43 44 0 0 0
M  V30 BEGIN ATOM
M  V30 1 C 4.48348 3.28099 0.210501 0
M  V30 2 C 3.04931 3.02653 -0.184337 0
M  V30 3 O 2.78118 1.65572 -0.00301107 0
M  V30 4 C 1.45 1.37886 -0.3617 0
M  V30 5 C 1.24388 -0.0859506 -0.143082 0
M  V30 6 N 2.09566 -0.981777 0.340312 0
M  V30 7 C 1.51216 -2.18818 0.367793 0
M  V30 8 C 1.9982 -3.41132 0.778288 0
M  V30 9 N 3.31973 -3.52593 1.27899 0
M  V30 10 N 1.17139 -4.46747 0.681168 0
M  V30 11 C -0.0743633 -4.3489 0.206638 0
M  V30 12 C -0.595228 -3.12597 -0.216371 0
M  V30 13 C -1.95274 -3.05212 -0.752606 0
M  V30 14 C 0.228744 -2.0178 -0.128542 0
M  V30 15 N 0.0744641 -0.720856 -0.438472 0
M  V30 16 C -1.08418 -0.0689384 -0.987638 0
M  V30 17 C -1.99144 0.532192 0.0920384 0
M  V30 18 C -3.17679 1.18298 -0.585394 0
M  V30 19 C -4.10381 1.79139 0.427753 0
M  V30 20 N -3.39779 2.78543 1.18069 0
M  V30 21 H 4.85131 4.23256 -0.209024 0
M  V30 22 H 4.6036 3.29171 1.32391 0
M  V30 23 H 5.0811 2.40198 -0.157229 0
M  V30 24 H 2.92366 3.29658 -1.25199 0
M  V30 25 H 2.40991 3.653 0.473214 0
M  V30 26 H 1.31836 1.65976 -1.40842 0
M  V30 27 H 0.816916 1.95701 0.342188 0
M  V30 28 H 3.8631 -4.39523 1.09087 0
M  V30 29 H 3.79468 -2.78351 1.83447 0
M  V30 30 H -0.686968 -5.25727 0.15833 0
M  V30 31 H -2.40092 -4.09051 -0.610484 0
M  V30 32 H -2.66679 -2.42094 -0.199331 0
M  V30 33 H -1.99079 -2.94889 -1.85891 0
M  V30 34 H -0.759998 0.863738 -1.56662 0
M  V30 35 H -1.73821 -0.663738 -1.62434 0
M  V30 36 H -2.3367 -0.279177 0.736665 0
M  V30 37 H -1.47445 1.34477 0.637806 0
M  V30 38 H -3.76635 0.45692 -1.17966 0
M  V30 39 H -2.83044 2.01754 -1.24714 0
M  V30 40 H -4.95094 2.26886 -0.110134 0
M  V30 41 H -4.56237 1.02471 1.09134 0
M  V30 42 H -2.52908 3.10226 0.682631 0
M  V30 43 H -4.00047 3.629 1.28884 0
M  V30 END ATOM
M  V30 BEGIN BOND
M  V30 1 1 1 2
M  V30 2 1 2 3
M  V30 3 1 3 4
M  V30 4 1 4 5
M  V30 5 2 5 6
M  V30 6 1 6 7
M  V30 7 2 7 8
M  V30 8 1 8 9
M  V30 9 1 8 10
M  V30 10 2 10 11
M  V30 11 1 11 12
M  V30 12 1 12 13
M  V30 13 2 12 14
M  V30 14 1 14 15
M  V30 15 1 15 16
M  V30 16 1 16 17
M  V30 17 1 17 18
M  V30 18 1 18 19
M  V30 19 1 19 20
M  V30 20 1 15 5
M  V30 21 1 14 7
M  V30 22 1 1 21
M  V30 23 1 1 22
M  V30 24 1 1 23
M  V30 25 1 2 24
M  V30 26 1 2 25
M  V30 27 1 4 26
M  V30 28 1 4 27
M  V30 29 1 9 28
M  V30 30 1 9 29
M  V30 31 1 11 30
M  V30 32 1 13 31
M  V30 33 1 13 32
M  V30 34 1 13 33
M  V30 35 1 16 34
M  V30 36 1 16 35
M  V30 37 1 17 36
M  V30 38 1 17 37
M  V30 39 1 18 38
M  V30 40 1 18 39
M  V30 41 1 19 40
M  V30 42 1 19 41
M  V30 43 1 20 42
M  V30 44 1 20 43
M  V30 END BOND
M  V30 END CTAB
M  END
