
     RDKit          3D

  0  0  0  0  0  0  0  0  0  0999 V3000
M  V30 BEGIN CTAB
M  V30 COUNTS 26 26 0 0 0
M  V30 BEGIN ATOM
M  V30 1 N -2.74138 -1.45618 -0.546406 0
M  V30 2 C -1.30334 -1.17992 -0.636572 0
M  V30 3 C -0.95641 -0.351948 0.551237 0 CFG=2
M  V30 4 C -1.82272 0.920838 0.431539 0
M  V30 5 C -0.924735 1.9661 -0.165036 0
M  V30 6 C 0.425665 1.35865 -0.397088 0
M  V30 7 C 0.43699 0.197755 0.580355 0 CFG=2
M  V30 8 C 1.52843 -0.736219 0.435966 0
M  V30 9 O 1.33369 -1.97069 0.368433 0
M  V30 10 N 2.87897 -0.299798 0.364573 0
M  V30 11 N 3.95524 -1.16733 0.226906 0
M  V30 12 H -3.2828 -0.928914 -1.22225 0
M  V30 13 H -3.09341 -1.30567 0.406694 0
M  V30 14 H -0.780348 -2.1257 -0.756552 0
M  V30 15 H -1.16895 -0.610561 -1.59235 0
M  V30 16 H -1.21927 -0.902872 1.46986 0
M  V30 17 H -2.10759 1.26244 1.44296 0
M  V30 18 H -2.72571 0.728261 -0.172396 0
M  V30 19 H -0.858882 2.87648 0.462909 0
M  V30 20 H -1.37035 2.28659 -1.14115 0
M  V30 21 H 0.485577 1.02828 -1.44611 0
M  V30 22 H 1.23998 2.04914 -0.151922 0
M  V30 23 H 0.532475 0.700179 1.5961 0
M  V30 24 H 3.10452 0.729357 0.416211 0
M  V30 25 H 3.66106 -2.15251 0.3299 0
M  V30 26 H 4.77331 -0.915748 0.804505 0
M  V30 END ATOM
M  V30 BEGIN BOND
M  V30 1 1 1 2
M  V30 2 1 2 3
M  V30 3 1 3 4
M  V30 4 1 4 5
M  V30 5 1 5 6
M  V30 6 1 6 7
M  V30 7 1 7 8
M  V30 8 2 8 9
M  V30 9 1 8 10
M  V30 10 1 10 11
M  V30 11 1 7 3
M  V30 12 1 1 12
M  V30 13 1 1 13
M  V30 14 1 2 14
M  V30 15 1 2 15
M  V30 16 1 3 16 CFG=1
M  V30 17 1 4 17
M  V30 18 1 4 18
M  V30 19 1 5 19
M  V30 20 1 5 20
M  V30 21 1 6 21
M  V30 22 1 6 22
M  V30 23 1 7 23 CFG=1
M  V30 24 1 10 24
M  V30 25 1 11 25
M  V30 26 1 11 26
M  V30 END BOND
M  V30 END CTAB
M  END
