
     RDKit          3D

  0  0  0  0  0  0  0  0  0  0999 V3000
M  V30 BEGIN CTAB
M  V30 COUNTS 28 28 0 0 0
M  V30 BEGIN ATOM
M  V30 1 C 4.69255 -0.099192 0.126825 0
M  V30 2 C 3.63844 -1.04189 -0.460667 0
M  V30 3 O 2.46085 -0.974892 0.32591 0
M  V30 4 C 1.6796 0.139102 0.478608 0
M  V30 5 O 2.0002 1.20064 -0.127685 0
M  V30 6 C 0.461587 0.169814 1.32726 0
M  V30 7 C -0.774014 0.257068 0.561629 0
M  V30 8 C -1.41632 -0.941069 0.268557 0
M  V30 9 C -2.57687 -1.00278 -0.444995 0
M  V30 10 N -3.20956 -2.23944 -0.731434 0
M  V30 11 C -3.12332 0.17842 -0.889049 0
M  V30 12 C -2.50299 1.37423 -0.609811 0
M  V30 13 C -1.31561 1.43528 0.122235 0
M  V30 14 N -3.12408 2.54991 -1.11329 0
M  V30 15 Cl -4.61596 0.144193 -1.82274 0
M  V30 16 H 5.27564 0.42803 -0.62923 0
M  V30 17 H 4.17372 0.604514 0.811442 0
M  V30 18 H 5.3114 -0.741169 0.81653 0
M  V30 19 H 3.43603 -0.795516 -1.54127 0
M  V30 20 H 4.02612 -2.08335 -0.438447 0
M  V30 21 H 0.586669 1.06369 2.00014 0
M  V30 22 H 0.433912 -0.712195 2.02125 0
M  V30 23 H -1.01025 -1.88511 0.602929 0
M  V30 24 H -2.68201 -3.12468 -0.842371 0
M  V30 25 H -4.23874 -2.25732 -0.833213 0
M  V30 26 H -0.842244 2.39605 0.33088 0
M  V30 27 H -3.22361 3.44157 -0.602269 0
M  V30 28 H -3.52113 2.51611 -2.08377 0
M  V30 END ATOM
M  V30 BEGIN BOND
M  V30 1 1 1 2
M  V30 2 1 2 3
M  V30 3 1 3 4
M  V30 4 2 4 5
M  V30 5 1 4 6
M  V30 6 1 6 7
M  V30 7 2 7 8
M  V30 8 1 8 9
M  V30 9 1 9 10
M  V30 10 2 9 11
M  V30 11 1 11 12
M  V30 12 2 12 13
M  V30 13 1 12 14
M  V30 14 1 11 15
M  V30 15 1 13 7
M  V30 16 1 1 16
M  V30 17 1 1 17
M  V30 18 1 1 18
M  V30 19 1 2 19
M  V30 20 1 2 20
M  V30 21 1 6 21
M  V30 22 1 6 22
M  V30 23 1 8 23
M  V30 24 1 10 24
M  V30 25 1 10 25
M  V30 26 1 13 26
M  V30 27 1 14 27
M  V30 28 1 14 28
M  V30 END BOND
M  V30 END CTAB
M  END
