
     RDKit          3D

  0  0  0  0  0  0  0  0  0  0999 V3000
M  V30 BEGIN CTAB
M  V30 COUNTS 34 35 0 0 0
M  V30 BEGIN ATOM
M  V30 1 N 0.304114 0.958978 -1.75557 0
M  V30 2 C 0.484625 0.528764 -0.451224 0 CFG=1
M  V30 3 C -0.511903 -0.540821 -0.0834897 0 CFG=1
M  V30 4 N -0.243923 -0.955476 1.31163 0
M  V30 5 C -1.93637 -0.153897 -0.0574468 0
M  V30 6 C -2.75969 -0.853391 -0.953421 0
M  V30 7 Cl -2.07242 -2.01813 -2.10868 0
M  V30 8 C -4.11614 -0.640929 -0.968214 0
M  V30 9 C -4.70048 0.262247 -0.103113 0
M  V30 10 O -6.06246 0.440841 -0.162917 0
M  V30 11 C -3.86265 0.956797 0.796086 0
M  V30 12 C -2.50892 0.739891 0.80796 0
M  V30 13 Cl -1.60548 1.53626 2.06897 0
M  V30 14 C 1.88151 0.26976 -0.0928129 0
M  V30 15 C 2.57939 -0.687015 -0.797202 0
M  V30 16 Cl 1.77407 -1.63924 -2.03489 0
M  V30 17 C 3.91935 -0.966178 -0.619158 0
M  V30 18 C 4.62933 -0.235135 0.330846 0
M  V30 19 O 6.00418 -0.481175 0.559001 0
M  V30 20 C 3.98665 0.723082 1.0424 0
M  V30 21 C 2.61943 0.995454 0.852616 0
M  V30 22 Cl 1.94226 2.30277 1.73723 0
M  V30 23 H 0.112101 0.372667 -2.51565 0
M  V30 24 H 0.407863 1.90142 -1.94286 0
M  V30 25 H 0.190507 1.45217 0.165198 0
M  V30 26 H -0.367221 -1.41231 -0.699439 0
M  V30 27 H 0.756691 -0.957537 1.54241 0
M  V30 28 H -0.671353 -1.85668 1.5687 0
M  V30 29 H -4.70244 -1.22386 -1.67694 0
M  V30 30 H -6.72265 -0.114105 0.375027 0
M  V30 31 H -4.37692 1.63883 1.43941 0
M  V30 32 H 4.44929 -1.73214 -1.17409 0
M  V30 33 H 6.60559 0.101336 -0.0562508 0
M  V30 34 H 4.57407 1.28676 1.76749 0
M  V30 END ATOM
M  V30 BEGIN BOND
M  V30 1 1 1 2
M  V30 2 1 2 3
M  V30 3 1 3 4
M  V30 4 1 3 5
M  V30 5 2 5 6
M  V30 6 1 6 7
M  V30 7 1 6 8
M  V30 8 2 8 9
M  V30 9 1 9 10
M  V30 10 1 9 11
M  V30 11 2 11 12
M  V30 12 1 12 13
M  V30 13 1 2 14
M  V30 14 2 14 15
M  V30 15 1 15 16
M  V30 16 1 15 17
M  V30 17 2 17 18
M  V30 18 1 18 19
M  V30 19 1 18 20
M  V30 20 2 20 21
M  V30 21 1 21 22
M  V30 22 1 12 5
M  V30 23 1 21 14
M  V30 24 1 1 23
M  V30 25 1 1 24
M  V30 26 1 2 25 CFG=1
M  V30 27 1 3 26 CFG=3
M  V30 28 1 4 27
M  V30 29 1 4 28
M  V30 30 1 8 29
M  V30 31 1 10 30
M  V30 32 1 11 31
M  V30 33 1 17 32
M  V30 34 1 19 33
M  V30 35 1 20 34
M  V30 END BOND
M  V30 END CTAB
M  END
