
     RDKit          3D

  0  0  0  0  0  0  0  0  0  0999 V3000
M  V30 BEGIN CTAB
M  V30 COUNTS 34 36 0 0 0
M  V30 BEGIN ATOM
M  V30 1 N 1.14662 -3.10481 1.39493 0
M  V30 2 C 1.60793 -1.82916 0.996664 0
M  V30 3 N 2.83443 -1.61403 0.685492 0
M  V30 4 C 3.05443 -0.258768 0.319702 0
M  V30 5 C 1.8596 0.409833 0.416069 0
M  V30 6 C 1.78716 1.77233 0.110702 0
M  V30 7 C 2.9084 2.4731 -0.292378 0
M  V30 8 Cl 2.7941 4.17873 -0.669683 0
M  V30 9 C 4.10852 1.78354 -0.384892 0
M  V30 10 C 4.17601 0.453943 -0.0862291 0
M  V30 11 C 0.858555 -0.588301 0.863916 0
M  V30 12 O 0.351493 -0.228185 2.13421 0
M  V30 13 C -0.274524 -0.669774 -0.0822712 0
M  V30 14 C -0.151208 -1.13674 -1.37062 0
M  V30 15 C -1.26778 -1.17179 -2.17482 0
M  V30 16 C -2.517 -0.748801 -1.72288 0
M  V30 17 C -2.648 -0.279346 -0.432191 0
M  V30 18 C -1.51231 -0.256494 0.348364 0
M  V30 19 S -4.20479 0.265631 0.184014 0
M  V30 20 N -4.42641 1.9514 -0.112711 0
M  V30 21 O -4.24138 -0.0611127 1.64384 0
M  V30 22 O -5.2571 -0.495199 -0.548252 0
M  V30 23 H 0.540292 -3.19184 2.2228 0
M  V30 24 H 1.41246 -3.94625 0.863321 0
M  V30 25 H 0.827619 2.26506 0.198482 0
M  V30 26 H 5.01611 2.31425 -0.702462 0
M  V30 27 H 5.09993 -0.136877 -0.143413 0
M  V30 28 H 0.390995 0.765075 2.15208 0
M  V30 29 H 0.815436 -1.46054 -1.70982 0
M  V30 30 H -1.21197 -1.53751 -3.20871 0
M  V30 31 H -3.38952 -0.774469 -2.3466 0
M  V30 32 H -1.65299 0.122193 1.36797 0
M  V30 33 H -5.24642 2.25312 0.462057 0
M  V30 34 H -3.5887 2.48178 0.24734 0
M  V30 END ATOM
M  V30 BEGIN BOND
M  V30 1 1 1 2
M  V30 2 2 2 3
M  V30 3 1 3 4
M  V30 4 2 4 5
M  V30 5 1 5 6
M  V30 6 2 6 7
M  V30 7 1 7 8
M  V30 8 1 7 9
M  V30 9 2 9 10
M  V30 10 1 5 11
M  V30 11 1 11 12
M  V30 12 1 11 13
M  V30 13 2 13 14
M  V30 14 1 14 15
M  V30 15 2 15 16
M  V30 16 1 16 17
M  V30 17 2 17 18
M  V30 18 1 17 19
M  V30 19 1 19 20
M  V30 20 2 19 21
M  V30 21 2 19 22
M  V30 22 1 11 2
M  V30 23 1 18 13
M  V30 24 1 10 4
M  V30 25 1 1 23
M  V30 26 1 1 24
M  V30 27 1 6 25
M  V30 28 1 9 26
M  V30 29 1 10 27
M  V30 30 1 12 28
M  V30 31 1 14 29
M  V30 32 1 15 30
M  V30 33 1 16 31
M  V30 34 1 18 32
M  V30 35 1 20 33
M  V30 36 1 20 34
M  V30 END BOND
M  V30 END CTAB
M  END
