
     RDKit          3D

  0  0  0  0  0  0  0  0  0  0999 V3000
M  V30 BEGIN CTAB
M  V30 COUNTS 35 36 0 0 0
M  V30 BEGIN ATOM
M  V30 1 N 5.93511 -0.589413 -0.629623 0
M  V30 2 C 4.60276 -0.365861 -0.219838 0
M  V30 3 C 3.53945 -0.679337 -1.05258 0
M  V30 4 C 2.22075 -0.486786 -0.714686 0
M  V30 5 C 1.91141 0.0474786 0.517767 0
M  V30 6 C 0.50057 0.273706 0.926927 0
M  V30 7 C 0.050981 1.673 0.512079 0
M  V30 8 C -1.36646 1.9407 0.908221 0
M  V30 9 C -2.343 1.00031 0.303028 0
M  V30 10 C -2.68556 -0.169155 0.948208 0
M  V30 11 C -3.5916 -1.04226 0.38733 0
M  V30 12 C -4.20684 -0.814992 -0.831154 0
M  V30 13 N -5.13588 -1.72032 -1.396 0
M  V30 14 C -3.8548 0.372301 -1.47934 0
M  V30 15 C -2.94766 1.24184 -0.913067 0
M  V30 16 C 2.95623 0.365225 1.35895 0
M  V30 17 C 4.27795 0.170339 1.01582 0
M  V30 18 H 6.52963 -1.24704 -0.0942445 0
M  V30 19 H 6.29617 -0.0900583 -1.46156 0
M  V30 20 H 3.81094 -1.10023 -2.02106 0
M  V30 21 H 1.4319 -0.754258 -1.4148 0
M  V30 22 H 0.408829 0.132895 2.0053 0
M  V30 23 H -0.0998521 -0.472906 0.342789 0
M  V30 24 H 0.256394 1.8563 -0.544831 0
M  V30 25 H 0.689387 2.37251 1.09283 0
M  V30 26 H -1.40559 1.89772 2.02836 0
M  V30 27 H -1.58979 2.99548 0.650391 0
M  V30 28 H -2.22026 -0.373871 1.90326 0
M  V30 29 H -3.86473 -1.97096 0.897923 0
M  V30 30 H -4.94584 -2.73484 -1.34428 0
M  V30 31 H -5.99809 -1.38881 -1.85789 0
M  V30 32 H -4.32968 0.561876 -2.4343 0
M  V30 33 H -2.67333 2.16565 -1.41674 0
M  V30 34 H 2.75094 0.790059 2.34255 0
M  V30 35 H 5.08958 0.423527 1.68424 0
M  V30 END ATOM
M  V30 BEGIN BOND
M  V30 1 1 1 2
M  V30 2 2 2 3
M  V30 3 1 3 4
M  V30 4 2 4 5
M  V30 5 1 5 6
M  V30 6 1 6 7
M  V30 7 1 7 8
M  V30 8 1 8 9
M  V30 9 2 9 10
M  V30 10 1 10 11
M  V30 11 2 11 12
M  V30 12 1 12 13
M  V30 13 1 12 14
M  V30 14 2 14 15
M  V30 15 1 5 16
M  V30 16 2 16 17
M  V30 17 1 17 2
M  V30 18 1 15 9
M  V30 19 1 1 18
M  V30 20 1 1 19
M  V30 21 1 3 20
M  V30 22 1 4 21
M  V30 23 1 6 22
M  V30 24 1 6 23
M  V30 25 1 7 24
M  V30 26 1 7 25
M  V30 27 1 8 26
M  V30 28 1 8 27
M  V30 29 1 10 28
M  V30 30 1 11 29
M  V30 31 1 13 30
M  V30 32 1 13 31
M  V30 33 1 14 32
M  V30 34 1 15 33
M  V30 35 1 16 34
M  V30 36 1 17 35
M  V30 END BOND
M  V30 END CTAB
M  END
