
     RDKit          3D

  0  0  0  0  0  0  0  0  0  0999 V3000
M  V30 BEGIN CTAB
M  V30 COUNTS 54 57 0 0 0
M  V30 BEGIN ATOM
M  V30 1 N -3.42899 2.80692 0.69439 0
M  V30 2 C -2.99898 1.43854 0.352101 0
M  V30 3 C -1.52816 1.46518 0.128265 0
M  V30 4 C -1.00163 0.593758 -0.964074 0
M  V30 5 N -1.52018 -0.723314 -0.963418 0
M  V30 6 C -2.74337 -1.22133 -0.320016 0
M  V30 7 C -3.91445 -0.537385 -0.921082 0
M  V30 8 C -3.82586 0.959413 -0.781687 0
M  V30 9 F -5.13721 1.44327 -0.647609 0
M  V30 10 C -0.830961 -1.77924 -1.63797 0
M  V30 11 C -0.0323613 -2.7607 -1.03233 0
M  V30 12 C 0.339272 -3.64204 -2.04961 0
M  V30 13 N -0.207306 -3.18701 -3.15442 0
M  V30 14 N -0.898455 -2.09755 -2.94639 0
M  V30 15 C -1.61303 -1.3259 -3.98188 0
M  V30 16 N 0.452445 -2.70858 0.277117 0
M  V30 17 C 0.908032 -2.66002 1.50801 0
M  V30 18 O 0.825086 -3.6044 2.39458 0
M  V30 19 C 1.63348 -1.46055 2.09807 0
M  V30 20 N 2.09382 -0.519627 1.29826 0
M  V30 21 C 2.83292 0.442728 1.79941 0
M  V30 22 S 2.90135 0.0469967 3.46479 0
M  V30 23 C 1.94909 -1.37668 3.40576 0
M  V30 24 N 1.58297 -2.26967 4.48513 0
M  V30 25 C 3.51002 1.57187 1.13256 0
M  V30 26 C 3.50016 1.7953 -0.198521 0
M  V30 27 F 2.85389 0.974766 -1.03783 0
M  V30 28 C 4.21171 2.90068 -0.747867 0
M  V30 29 C 4.90694 3.7341 0.0747755 0
M  V30 30 C 4.92323 3.51285 1.45029 0
M  V30 31 C 4.23585 2.4562 1.94207 0
M  V30 32 F 4.25445 2.23441 3.29384 0
M  V30 33 H -3.50276 2.94562 1.72919 0
M  V30 34 H -4.33099 3.03625 0.245296 0
M  V30 35 H -3.18514 0.860117 1.29966 0
M  V30 36 H -0.981942 1.18248 1.08068 0
M  V30 37 H -1.19323 2.51891 -0.0930405 0
M  V30 38 H 0.103948 0.497891 -0.77172 0
M  V30 39 H -1.06373 1.10228 -1.9523 0
M  V30 40 H -2.68794 -1.01569 0.767374 0
M  V30 41 H -2.79146 -2.33448 -0.408312 0
M  V30 42 H -4.88219 -0.881978 -0.476011 0
M  V30 43 H -3.93077 -0.723179 -2.03614 0
M  V30 44 H -3.45911 1.45297 -1.70975 0
M  V30 45 H 0.970739 -4.50878 -1.86949 0
M  V30 46 H -2.43456 -1.90302 -4.40575 0
M  V30 47 H -2.02304 -0.409033 -3.52471 0
M  V30 48 H -0.895242 -1.10816 -4.82164 0
M  V30 49 H 0.00494639 -3.98514 0.438223 0
M  V30 50 H 0.821719 -1.92996 5.10629 0
M  V30 51 H 2.02794 -3.17893 4.64911 0
M  V30 52 H 4.21032 3.0739 -1.81093 0
M  V30 53 H 5.49327 4.60517 -0.258761 0
M  V30 54 H 5.49545 4.1998 2.09196 0
M  V30 END ATOM
M  V30 BEGIN BOND
M  V30 1 1 1 2
M  V30 2 1 2 3
M  V30 3 1 3 4
M  V30 4 1 4 5
M  V30 5 1 5 6
M  V30 6 1 6 7
M  V30 7 1 7 8
M  V30 8 1 8 9
M  V30 9 1 5 10
M  V30 10 2 10 11
M  V30 11 1 11 12
M  V30 12 2 12 13
M  V30 13 1 13 14
M  V30 14 1 14 15
M  V30 15 1 11 16
M  V30 16 1 16 17
M  V30 17 2 17 18
M  V30 18 1 17 19
M  V30 19 1 19 20
M  V30 20 2 20 21
M  V30 21 1 21 22
M  V30 22 1 22 23
M  V30 23 1 23 24
M  V30 24 1 21 25
M  V30 25 2 25 26
M  V30 26 1 26 27
M  V30 27 1 26 28
M  V30 28 2 28 29
M  V30 29 1 29 30
M  V30 30 2 30 31
M  V30 31 1 31 32
M  V30 32 1 8 2
M  V30 33 1 14 10
M  V30 34 2 23 19
M  V30 35 1 31 25
M  V30 36 1 1 33
M  V30 37 1 1 34
M  V30 38 1 2 35
M  V30 39 1 3 36
M  V30 40 1 3 37
M  V30 41 1 4 38
M  V30 42 1 4 39
M  V30 43 1 6 40
M  V30 44 1 6 41
M  V30 45 1 7 42
M  V30 46 1 7 43
M  V30 47 1 8 44
M  V30 48 1 12 45
M  V30 49 1 15 46
M  V30 50 1 15 47
M  V30 51 1 15 48
M  V30 52 1 16 49
M  V30 53 1 24 50
M  V30 54 1 24 51
M  V30 55 1 28 52
M  V30 56 1 29 53
M  V30 57 1 30 54
M  V30 END BOND
M  V30 END CTAB
M  END
