
     RDKit          3D

  0  0  0  0  0  0  0  0  0  0999 V3000
M  V30 BEGIN CTAB
M  V30 COUNTS 40 42 0 0 0
M  V30 BEGIN ATOM
M  V30 1 N 5.47918 -0.584429 0.0393533 0
M  V30 2 C 4.14283 -0.486305 -0.474346 0
M  V30 3 C 3.14994 -0.34954 0.661432 0
M  V30 4 N 1.7958 -0.247858 0.179729 0
M  V30 5 C 1.22212 -1.46237 -0.435549 0
M  V30 6 C -0.188871 -1.52082 0.169466 0
M  V30 7 C -1.00043 -0.408218 -0.454057 0 CFG=2
M  V30 8 C -0.401643 0.871637 -0.0449513 0
M  V30 9 C 0.963382 0.892289 0.237714 0
M  V30 10 C 1.55669 2.09053 0.610919 0
M  V30 11 C 0.797683 3.23796 0.699342 0
M  V30 12 C -0.546018 3.19706 0.418119 0
M  V30 13 C -1.16242 2.03775 0.0474619 0
M  V30 14 C -2.41056 -0.587713 -0.127327 0
M  V30 15 C -2.85298 -0.975809 1.12096 0
M  V30 16 C -4.22072 -1.12843 1.38121 0
M  V30 17 C -5.11846 -0.882633 0.364587 0
M  V30 18 N -4.69007 -0.506864 -0.842228 0
M  V30 19 C -3.36762 -0.362073 -1.08616 0
M  V30 20 N -2.94367 0.029346 -2.38213 0
M  V30 21 H 6.17648 -0.717862 -0.700315 0
M  V30 22 H 5.53524 -1.32085 0.768268 0
M  V30 23 H 4.06973 0.374055 -1.14604 0
M  V30 24 H 3.91394 -1.42211 -1.04051 0
M  V30 25 H 3.25166 -1.32446 1.24198 0
M  V30 26 H 3.4575 0.450017 1.3517 0
M  V30 27 H 1.73744 -2.3669 -0.0711834 0
M  V30 28 H 1.16273 -1.38043 -1.52148 0
M  V30 29 H -0.616425 -2.52256 0.00919344 0
M  V30 30 H -0.0740317 -1.26885 1.25236 0
M  V30 31 H -0.800404 -0.489332 -1.55985 0
M  V30 32 H 2.61449 2.133 0.8289 0
M  V30 33 H 1.26416 4.15514 0.988532 0
M  V30 34 H -1.14906 4.10502 0.488775 0
M  V30 35 H -2.22645 1.97068 -0.178156 0
M  V30 36 H -2.15495 -1.16877 1.92559 0
M  V30 37 H -4.56781 -1.43495 2.36233 0
M  V30 38 H -6.19236 -0.999073 0.549083 0
M  V30 39 H -2.5453 -0.662861 -3.02593 0
M  V30 40 H -3.06075 1.03756 -2.63073 0
M  V30 END ATOM
M  V30 BEGIN BOND
M  V30 1 1 1 2
M  V30 2 1 2 3
M  V30 3 1 3 4
M  V30 4 1 4 5
M  V30 5 1 5 6
M  V30 6 1 6 7
M  V30 7 1 7 8
M  V30 8 2 8 9
M  V30 9 1 9 10
M  V30 10 2 10 11
M  V30 11 1 11 12
M  V30 12 2 12 13
M  V30 13 1 7 14
M  V30 14 2 14 15
M  V30 15 1 15 16
M  V30 16 2 16 17
M  V30 17 1 17 18
M  V30 18 2 18 19
M  V30 19 1 19 20
M  V30 20 1 9 4
M  V30 21 1 19 14
M  V30 22 1 13 8
M  V30 23 1 1 21
M  V30 24 1 1 22
M  V30 25 1 2 23
M  V30 26 1 2 24
M  V30 27 1 3 25
M  V30 28 1 3 26
M  V30 29 1 5 27
M  V30 30 1 5 28
M  V30 31 1 6 29
M  V30 32 1 6 30
M  V30 33 1 7 31 CFG=3
M  V30 34 1 10 32
M  V30 35 1 11 33
M  V30 36 1 12 34
M  V30 37 1 13 35
M  V30 38 1 15 36
M  V30 39 1 16 37
M  V30 40 1 17 38
M  V30 41 1 20 39
M  V30 42 1 20 40
M  V30 END BOND
M  V30 END CTAB
M  END
