
     RDKit          3D

  0  0  0  0  0  0  0  0  0  0999 V3000
M  V30 BEGIN CTAB
M  V30 COUNTS 39 41 0 0 0
M  V30 BEGIN ATOM
M  V30 1 N -2.61473 4.73072 0.452385 0
M  V30 2 C -3.23647 3.46224 0.337524 0
M  V30 3 N -4.53219 3.41177 0.358156 0
M  V30 4 C -2.45005 2.21651 0.19702 0
M  V30 5 N -1.13015 2.19337 0.168524 0
M  V30 6 N -0.657219 0.931875 0.0323569 0
M  V30 7 C -1.73024 0.136035 -0.0255305 0
M  V30 8 C -2.89001 0.943469 0.0781131 0
M  V30 9 C -1.83329 -1.30266 -0.19394 0
M  V30 10 C -3.08565 -1.84832 -0.380187 0
M  V30 11 C -3.29879 -3.20425 -0.531589 0
M  V30 12 C -2.2035 -4.02783 -0.491859 0
M  V30 13 Cl -2.42372 -5.76946 -0.680928 0
M  V30 14 C -0.951899 -3.51082 -0.308016 0
M  V30 15 C -0.798473 -2.14707 -0.162052 0
M  V30 16 C 0.730197 0.68971 -0.0394566 0
M  V30 17 C 1.4343 0.571842 -1.23121 0
M  V30 18 C 2.81224 0.38398 -1.22926 0
M  V30 19 C 3.50443 0.311451 -0.0373377 0
M  V30 20 C 2.81195 0.427943 1.16593 0
M  V30 21 C 1.44608 0.613603 1.13366 0
M  V30 22 S 5.23771 0.0755073 0.0251334 0
M  V30 23 N 5.60511 -1.62441 0.0824618 0
M  V30 24 O 5.91272 0.727599 -1.14638 0
M  V30 25 O 5.73624 0.712201 1.29125 0
M  V30 26 H -3.09218 5.55282 0.0536356 0
M  V30 27 H -1.68389 4.83505 0.934638 0
M  V30 28 H -5.01353 2.49322 0.275597 0
M  V30 29 H -3.91715 0.662692 0.0717124 0
M  V30 30 H -4.00977 -1.25382 -0.425397 0
M  V30 31 H -4.27806 -3.62568 -0.677815 0
M  V30 32 H -0.102345 -4.17752 -0.279846 0
M  V30 33 H 0.202206 -1.83146 -0.00994617 0
M  V30 34 H 0.894856 0.6283 -2.16327 0
M  V30 35 H 3.38656 0.288994 -2.13781 0
M  V30 36 H 3.36882 0.368925 2.08804 0
M  V30 37 H 0.916368 0.702688 2.05604 0
M  V30 38 H 6.62567 -1.72802 0.190631 0
M  V30 39 H 5.30784 -2.02123 -0.858523 0
M  V30 END ATOM
M  V30 BEGIN BOND
M  V30 1 1 1 2
M  V30 2 2 2 3 CFG=2
M  V30 3 1 2 4
M  V30 4 2 4 5
M  V30 5 1 5 6
M  V30 6 1 6 7
M  V30 7 2 7 8
M  V30 8 1 7 9
M  V30 9 2 9 10
M  V30 10 1 10 11
M  V30 11 2 11 12
M  V30 12 1 12 13
M  V30 13 1 12 14
M  V30 14 2 14 15
M  V30 15 1 6 16
M  V30 16 2 16 17
M  V30 17 1 17 18
M  V30 18 2 18 19
M  V30 19 1 19 20
M  V30 20 2 20 21
M  V30 21 1 19 22
M  V30 22 1 22 23
M  V30 23 2 22 24
M  V30 24 2 22 25
M  V30 25 1 8 4
M  V30 26 1 15 9
M  V30 27 1 21 16
M  V30 28 1 1 26
M  V30 29 1 1 27
M  V30 30 1 3 28
M  V30 31 1 8 29
M  V30 32 1 10 30
M  V30 33 1 11 31
M  V30 34 1 14 32
M  V30 35 1 15 33
M  V30 36 1 17 34
M  V30 37 1 18 35
M  V30 38 1 20 36
M  V30 39 1 21 37
M  V30 40 1 23 38
M  V30 41 1 23 39
M  V30 END BOND
M  V30 END CTAB
M  END
