
     RDKit          3D

  0  0  0  0  0  0  0  0  0  0999 V3000
M  V30 BEGIN CTAB
M  V30 COUNTS 49 50 0 0 0
M  V30 BEGIN ATOM
M  V30 1 N 6.81247 -1.9529 -0.892905 0
M  V30 2 C 6.46555 -0.554989 -0.895436 0
M  V30 3 C 7.42955 0.411745 -1.01287 0
M  V30 4 C 7.11987 1.75057 -1.0175 0
M  V30 5 C 5.79616 2.09112 -0.899087 0
M  V30 6 C 4.80574 1.10255 -0.778553 0
M  V30 7 C 5.09889 -0.240618 -0.772219 0
M  V30 8 N 4.18928 -1.29652 -0.657703 0
M  V30 9 C 2.797 -1.17864 -0.526993 0
M  V30 10 O 2.15805 -0.11114 -0.493055 0
M  V30 11 C 1.98251 -2.45396 -0.415969 0
M  V30 12 C 0.566691 -2.17495 -0.0672628 0
M  V30 13 C 0.395292 -1.54894 1.26821 0
M  V30 14 C -1.07177 -1.28237 1.59743 0
M  V30 15 C -1.7015 -0.357195 0.597687 0
M  V30 16 C -3.14343 -0.110524 0.948441 0
M  V30 17 O -3.62758 -0.653057 1.94818 0
M  V30 18 N -3.87502 0.734396 0.111294 0
M  V30 19 C -5.23015 1.10823 0.240702 0
M  V30 20 C -5.75126 1.98049 -0.737012 0
M  V30 21 N -4.89206 2.43526 -1.79471 0
M  V30 22 C -7.05572 2.40976 -0.710343 0
M  V30 23 C -7.90773 1.99934 0.281378 0
M  V30 24 C -7.41136 1.15066 1.23784 0
M  V30 25 C -6.08878 0.704787 1.2258 0
M  V30 26 H 7.49909 -2.29421 -0.19108 0
M  V30 27 H 6.41083 -2.63515 -1.55683 0
M  V30 28 H 8.48279 0.113119 -1.10638 0
M  V30 29 H 7.84884 2.53362 -1.10764 0
M  V30 30 H 5.4722 3.12938 -0.894649 0
M  V30 31 H 3.77776 1.4227 -0.688023 0
M  V30 32 H 4.56385 -2.28595 -0.668247 0
M  V30 33 H 2.51804 -3.07005 0.319177 0
M  V30 34 H 2.03932 -3.01249 -1.38462 0
M  V30 35 H 0.170578 -1.42052 -0.817856 0
M  V30 36 H -0.0931519 -3.06444 -0.218629 0
M  V30 37 H 0.915265 -0.611771 1.39394 0
M  V30 38 H 0.743298 -2.21484 2.10156 0
M  V30 39 H -1.58713 -2.25718 1.66386 0
M  V30 40 H -1.07209 -0.822566 2.60693 0
M  V30 41 H -1.70075 -0.750047 -0.412638 0
M  V30 42 H -1.20264 0.619806 0.615835 0
M  V30 43 H -3.35083 1.14568 -0.722792 0
M  V30 44 H -4.36452 1.76127 -2.38396 0
M  V30 45 H -4.78861 3.45262 -1.98283 0
M  V30 46 H -7.40578 3.08615 -1.49471 0
M  V30 47 H -8.92599 2.36514 0.258863 0
M  V30 48 H -8.05983 0.808571 2.03456 0
M  V30 49 H -5.75125 0.0380465 2.00263 0
M  V30 END ATOM
M  V30 BEGIN BOND
M  V30 1 1 1 2
M  V30 2 2 2 3
M  V30 3 1 3 4
M  V30 4 2 4 5
M  V30 5 1 5 6
M  V30 6 2 6 7
M  V30 7 1 7 8
M  V30 8 1 8 9
M  V30 9 2 9 10
M  V30 10 1 9 11
M  V30 11 1 11 12
M  V30 12 1 12 13
M  V30 13 1 13 14
M  V30 14 1 14 15
M  V30 15 1 15 16
M  V30 16 2 16 17
M  V30 17 1 16 18
M  V30 18 1 18 19
M  V30 19 2 19 20
M  V30 20 1 20 21
M  V30 21 1 20 22
M  V30 22 2 22 23
M  V30 23 1 23 24
M  V30 24 2 24 25
M  V30 25 1 7 2
M  V30 26 1 25 19
M  V30 27 1 1 26
M  V30 28 1 1 27
M  V30 29 1 3 28
M  V30 30 1 4 29
M  V30 31 1 5 30
M  V30 32 1 6 31
M  V30 33 1 8 32
M  V30 34 1 11 33
M  V30 35 1 11 34
M  V30 36 1 12 35
M  V30 37 1 12 36
M  V30 38 1 13 37
M  V30 39 1 13 38
M  V30 40 1 14 39
M  V30 41 1 14 40
M  V30 42 1 15 41
M  V30 43 1 15 42
M  V30 44 1 18 43
M  V30 45 1 21 44
M  V30 46 1 21 45
M  V30 47 1 22 46
M  V30 48 1 23 47
M  V30 49 1 24 48
M  V30 50 1 25 49
M  V30 END BOND
M  V30 END CTAB
M  END
