
     RDKit          3D

  0  0  0  0  0  0  0  0  0  0999 V3000
M  V30 BEGIN CTAB
M  V30 COUNTS 23 23 0 0 0
M  V30 BEGIN ATOM
M  V30 1 C 2.40101 2.05294 0.435215 0
M  V30 2 O 2.33314 0.666001 0.448095 0
M  V30 3 C 1.17252 -0.0815756 0.334017 0
M  V30 4 C -0.0835597 0.469677 0.190824 0
M  V30 5 C -1.23539 -0.303338 0.0780723 0
M  V30 6 C -1.13414 -1.67833 0.108922 0
M  V30 7 C 0.109454 -2.25574 0.251147 0
M  V30 8 C 1.25425 -1.45838 0.362793 0
M  V30 9 N 2.53743 -2.049 0.509405 0
M  V30 10 C -2.54943 0.294039 -0.0719891 0
M  V30 11 N -3.59939 -0.414376 -0.174841 0
M  V30 12 N -2.64966 1.70551 -0.103034 0
M  V30 13 H 1.60875 2.43808 -0.239494 0
M  V30 14 H 2.35338 2.52274 1.44271 0
M  V30 15 H 3.3698 2.33025 -0.075114 0
M  V30 16 H -0.175709 1.53635 0.165441 0
M  V30 17 H -2.01814 -2.29781 0.0227799 0
M  V30 18 H 0.223735 -3.32831 0.279002 0
M  V30 19 H 2.70195 -2.69505 1.30913 0
M  V30 20 H 3.31036 -1.85538 -0.154521 0
M  V30 21 H -4.55722 -0.0526775 -0.283165 0
M  V30 22 H -2.73865 2.23092 0.795278 0
M  V30 23 H -2.63449 2.22348 -1.0289 0
M  V30 END ATOM
M  V30 BEGIN BOND
M  V30 1 1 1 2
M  V30 2 1 2 3
M  V30 3 2 3 4
M  V30 4 1 4 5
M  V30 5 2 5 6
M  V30 6 1 6 7
M  V30 7 2 7 8
M  V30 8 1 8 9
M  V30 9 1 5 10
M  V30 10 2 10 11 CFG=2
M  V30 11 1 10 12
M  V30 12 1 8 3
M  V30 13 1 1 13
M  V30 14 1 1 14
M  V30 15 1 1 15
M  V30 16 1 4 16
M  V30 17 1 6 17
M  V30 18 1 7 18
M  V30 19 1 9 19
M  V30 20 1 9 20
M  V30 21 1 11 21
M  V30 22 1 12 22
M  V30 23 1 12 23
M  V30 END BOND
M  V30 END CTAB
M  END
