
     RDKit          3D

  0  0  0  0  0  0  0  0  0  0999 V3000
M  V30 BEGIN CTAB
M  V30 COUNTS 23 23 0 0 0
M  V30 BEGIN ATOM
M  V30 1 N 3.38139 -0.145409 0.46674 0
M  V30 2 C 2.93502 -0.644537 -0.819867 0
M  V30 3 C 1.48901 -1.04633 -0.668571 0
M  V30 4 N 0.655769 0.0614088 -0.273058 0
M  V30 5 C -0.737267 -0.056703 -0.0652441 0
M  V30 6 N -1.35221 -1.24974 -0.236083 0
M  V30 7 C -2.67334 -1.40807 -0.0496532 0
M  V30 8 C -3.46822 -0.36418 0.324694 0
M  V30 9 C -2.90089 0.864797 0.511839 0
M  V30 10 C -1.52716 0.997957 0.310738 0
M  V30 11 N -0.951563 2.26549 0.505367 0
M  V30 12 H 3.53836 0.866371 0.488681 0
M  V30 13 H 4.10246 -0.727973 0.907688 0
M  V30 14 H 3.06798 0.0668083 -1.6363 0
M  V30 15 H 3.52667 -1.54841 -1.0671 0
M  V30 16 H 1.37741 -1.88769 0.0406829 0
M  V30 17 H 1.11112 -1.4438 -1.65276 0
M  V30 18 H 1.09857 0.986905 -0.134789 0
M  V30 19 H -3.14191 -2.37314 -0.19273 0
M  V30 20 H -4.53882 -0.509544 0.471843 0
M  V30 21 H -3.50493 1.71293 0.808916 0
M  V30 22 H -0.0921499 2.46021 1.06474 0
M  V30 23 H -1.39531 3.12265 0.0649381 0
M  V30 END ATOM
M  V30 BEGIN BOND
M  V30 1 1 1 2
M  V30 2 1 2 3
M  V30 3 1 3 4
M  V30 4 1 4 5
M  V30 5 2 5 6
M  V30 6 1 6 7
M  V30 7 2 7 8
M  V30 8 1 8 9
M  V30 9 2 9 10
M  V30 10 1 10 11
M  V30 11 1 10 5
M  V30 12 1 1 12
M  V30 13 1 1 13
M  V30 14 1 2 14
M  V30 15 1 2 15
M  V30 16 1 3 16
M  V30 17 1 3 17
M  V30 18 1 4 18
M  V30 19 1 7 19
M  V30 20 1 8 20
M  V30 21 1 9 21
M  V30 22 1 11 22
M  V30 23 1 11 23
M  V30 END BOND
M  V30 END CTAB
M  END
