
     RDKit          3D

  0  0  0  0  0  0  0  0  0  0999 V3000
M  V30 BEGIN CTAB
M  V30 COUNTS 48 50 0 0 0
M  V30 BEGIN ATOM
M  V30 1 C -7.76401 -1.15919 -0.0453961 0
M  V30 2 C -7.24644 -2.47686 -0.581696 0
M  V30 3 C -5.86091 -2.79362 -0.0640626 0
M  V30 4 C -4.93794 -1.6843 -0.506083 0
M  V30 5 O -3.60858 -1.8938 -0.0660908 0
M  V30 6 C -2.66811 -0.931785 -0.416172 0
M  V30 7 C -2.97805 0.183112 -1.15375 0
M  V30 8 C -2.0353 1.12667 -1.49234 0
M  V30 9 C -0.74593 0.920056 -1.06421 0
M  V30 10 C -0.344412 -0.190112 -0.308296 0
M  V30 11 C -1.33572 -1.07736 -0.0136282 0
M  V30 12 C 1.04687 -0.252889 0.102987 0
M  V30 13 N 1.83259 0.857448 -0.0712012 0
M  V30 14 C 3.12576 0.917602 0.24538 0
M  V30 15 C 3.87992 2.05269 0.0566984 0
M  V30 16 C 5.23943 2.12555 0.388183 0
M  V30 17 C 5.87733 1.03272 0.927186 0
M  V30 18 C 5.10118 -0.111102 1.1131 0
M  V30 19 C 3.76723 -0.175988 0.785692 0
M  V30 20 C 2.99978 -1.29636 0.967154 0
M  V30 21 O 3.54464 -2.31069 1.45504 0
M  V30 22 N 1.66387 -1.30667 0.621922 0
M  V30 23 N 1.01757 -2.51869 0.828469 0
M  V30 24 C 5.97665 3.35249 0.162626 0
M  V30 25 O 5.35698 4.32625 -0.397226 0
M  V30 26 N 7.32962 3.48972 0.539323 0
M  V30 27 N 8.02228 4.69342 0.30845 0
M  V30 28 H -7.49415 -0.322911 -0.722023 0
M  V30 29 H -8.86865 -1.22109 0.0906559 0
M  V30 30 H -7.33658 -0.915528 0.945955 0
M  V30 31 H -7.1268 -2.32767 -1.69321 0
M  V30 32 H -7.95777 -3.29813 -0.364481 0
M  V30 33 H -5.83842 -2.81766 1.04657 0
M  V30 34 H -5.54307 -3.73025 -0.530276 0
M  V30 35 H -5.25461 -0.694897 -0.115252 0
M  V30 36 H -4.9441 -1.60135 -1.62212 0
M  V30 37 H -4.00081 0.314673 -1.47445 0
M  V30 38 H -2.27743 2.01096 -2.07683 0
M  V30 39 H 0.0444208 1.6429 -1.31039 0
M  V30 40 H -1.13093 -1.9346 0.5722 0
M  V30 41 H 3.39169 2.92308 -0.367412 0
M  V30 42 H 6.92516 1.01436 1.20698 0
M  V30 43 H 5.58183 -0.989461 1.53811 0
M  V30 44 H 0.699881 -2.85687 1.77308 0
M  V30 45 H 0.829826 -3.15151 0.000604925 0
M  V30 46 H 7.86807 2.73654 0.992094 0
M  V30 47 H 7.40088 5.49171 0.150825 0
M  V30 48 H 8.77528 4.82942 0.993892 0
M  V30 END ATOM
M  V30 BEGIN BOND
M  V30 1 1 1 2
M  V30 2 1 2 3
M  V30 3 1 3 4
M  V30 4 1 4 5
M  V30 5 1 5 6
M  V30 6 2 6 7
M  V30 7 1 7 8
M  V30 8 2 8 9
M  V30 9 1 9 10
M  V30 10 2 10 11
M  V30 11 1 10 12
M  V30 12 2 12 13
M  V30 13 1 13 14
M  V30 14 2 14 15
M  V30 15 1 15 16
M  V30 16 2 16 17
M  V30 17 1 17 18
M  V30 18 2 18 19
M  V30 19 1 19 20
M  V30 20 2 20 21
M  V30 21 1 20 22
M  V30 22 1 22 23
M  V30 23 1 16 24
M  V30 24 2 24 25
M  V30 25 1 24 26
M  V30 26 1 26 27
M  V30 27 1 11 6
M  V30 28 1 22 12
M  V30 29 1 19 14
M  V30 30 1 1 28
M  V30 31 1 1 29
M  V30 32 1 1 30
M  V30 33 1 2 31
M  V30 34 1 2 32
M  V30 35 1 3 33
M  V30 36 1 3 34
M  V30 37 1 4 35
M  V30 38 1 4 36
M  V30 39 1 7 37
M  V30 40 1 8 38
M  V30 41 1 9 39
M  V30 42 1 11 40
M  V30 43 1 15 41
M  V30 44 1 17 42
M  V30 45 1 18 43
M  V30 46 1 23 44
M  V30 47 1 23 45
M  V30 48 1 26 46
M  V30 49 1 27 47
M  V30 50 1 27 48
M  V30 END BOND
M  V30 END CTAB
M  END
