
     RDKit          3D

  0  0  0  0  0  0  0  0  0  0999 V3000
M  V30 BEGIN CTAB
M  V30 COUNTS 40 42 0 0 0
M  V30 BEGIN ATOM
M  V30 1 N -6.92743 3.26944 -0.270867 0
M  V30 2 C -5.56082 3.06643 0.112034 0
M  V30 3 N -4.57764 3.95301 0.104216 0
M  V30 4 N -3.43009 3.59756 0.478117 0
M  V30 5 C -3.20147 2.35028 0.879761 0
M  V30 6 S -4.75405 1.64587 0.696907 0
M  V30 7 S -1.63861 1.73462 1.32811 0
M  V30 8 C -0.628673 0.937148 0.126752 0
M  V30 9 C -0.81264 -0.535558 -0.0174936 0
M  V30 10 C -1.94863 -1.20643 -0.17987 0
M  V30 11 C -1.93731 -2.62261 -0.194702 0
M  V30 12 C -0.755438 -3.30795 -0.033735 0
M  V30 13 C 0.412688 -2.62205 0.136162 0
M  V30 14 C 0.389184 -1.26675 0.128635 0
M  V30 15 C 1.61087 -0.42658 0.0293621 0
M  V30 16 S 2.3622 -0.0372843 1.61307 0
M  V30 17 C 3.7907 1.0357 1.32617 0
M  V30 18 N 5.05838 0.732297 1.3068 0
M  V30 19 N 5.94084 1.55686 0.979115 0
M  V30 20 C 5.56489 2.79855 0.648242 0
M  V30 21 S 3.8581 2.70251 0.847618 0
M  V30 22 N 6.38409 3.88696 0.198568 0
M  V30 23 C 1.67407 -3.35446 0.532086 0
M  V30 24 C -0.67932 -4.80712 -0.135786 0
M  V30 25 H -7.55336 2.48597 -0.101642 0
M  V30 26 H -7.15015 4.18405 -0.649584 0
M  V30 27 H 0.341173 1.34974 -0.0348923 0
M  V30 28 H -1.13678 1.25207 -0.935911 0
M  V30 29 H -2.9177 -0.716774 -0.342967 0
M  V30 30 H -2.86144 -3.1657 -0.323476 0
M  V30 31 H 2.36418 -1.14379 -0.507958 0
M  V30 32 H 1.54582 0.379426 -0.689267 0
M  V30 33 H 5.98958 4.72491 -0.254413 0
M  V30 34 H 7.38627 3.78538 0.34943 0
M  V30 35 H 1.90607 -4.20673 -0.0869047 0
M  V30 36 H 1.36218 -3.77391 1.57074 0
M  V30 37 H 2.5148 -2.68106 0.71685 0
M  V30 38 H 0.128843 -5.22753 0.455839 0
M  V30 39 H -0.452486 -5.11112 -1.21134 0
M  V30 40 H -1.6609 -5.21538 0.122348 0
M  V30 END ATOM
M  V30 BEGIN BOND
M  V30 1 1 1 2
M  V30 2 2 2 3
M  V30 3 1 3 4
M  V30 4 2 4 5
M  V30 5 1 5 6
M  V30 6 1 5 7
M  V30 7 1 7 8
M  V30 8 1 8 9
M  V30 9 2 9 10
M  V30 10 1 10 11
M  V30 11 2 11 12
M  V30 12 1 12 13
M  V30 13 2 13 14
M  V30 14 1 14 15
M  V30 15 1 15 16
M  V30 16 1 16 17
M  V30 17 2 17 18
M  V30 18 1 18 19
M  V30 19 2 19 20
M  V30 20 1 20 21
M  V30 21 1 20 22
M  V30 22 1 13 23
M  V30 23 1 12 24
M  V30 24 1 6 2
M  V30 25 1 14 9
M  V30 26 1 21 17
M  V30 27 1 1 25
M  V30 28 1 1 26
M  V30 29 1 8 27
M  V30 30 1 8 28
M  V30 31 1 10 29
M  V30 32 1 11 30
M  V30 33 1 15 31
M  V30 34 1 15 32
M  V30 35 1 22 33
M  V30 36 1 22 34
M  V30 37 1 23 35
M  V30 38 1 23 36
M  V30 39 1 23 37
M  V30 40 1 24 38
M  V30 41 1 24 39
M  V30 42 1 24 40
M  V30 END BOND
M  V30 END CTAB
M  END
