
     RDKit          3D

  0  0  0  0  0  0  0  0  0  0999 V3000
M  V30 BEGIN CTAB
M  V30 COUNTS 62 63 0 0 0
M  V30 BEGIN ATOM
M  V30 1 N -2.68739 0.702641 -1.60251 0
M  V30 2 C -3.51286 0.163114 -0.590378 0
M  V30 3 C -4.88912 0.350988 -0.705455 0
M  V30 4 C -5.76096 -0.145268 0.244808 0
M  V30 5 C -5.19259 -0.82558 1.29171 0
M  V30 6 C -3.81952 -1.03041 1.43625 0
M  V30 7 C -2.9766 -0.523686 0.478596 0
M  V30 8 C -1.51152 -0.64907 0.653635 0
M  V30 9 N -0.679506 -0.15706 -0.181867 0
M  V30 10 N 0.704244 -0.21383 -0.0927016 0
M  V30 11 C 1.55074 0.109212 -0.994127 0
M  V30 12 C 2.99468 0.028151 -0.782337 0
M  V30 13 C 3.88982 0.653588 -1.6382 0
M  V30 14 C 5.24693 0.738793 -1.31569 0
M  V30 15 C 5.74703 0.213296 -0.151932 0
M  V30 16 C 4.85013 -0.414743 0.693207 0
M  V30 17 C 3.4876 -0.503133 0.372662 0
M  V30 18 N 2.69741 -1.22101 1.29866 0
M  V30 19 C 7.18888 0.353403 0.246089 0
M  V30 20 C 8.04537 0.766659 -0.914484 0
M  V30 21 C 7.2999 1.37043 1.39221 0
M  V30 22 C 7.65025 -0.956288 0.786975 0
M  V30 23 C 0.985256 0.524805 -2.32399 0
M  V30 24 C -0.966455 -1.34252 1.8383 0
M  V30 25 C -7.22756 0.0825567 0.15411 0
M  V30 26 C -7.79701 -0.102575 -1.20957 0
M  V30 27 C -7.90187 -0.808027 1.17197 0
M  V30 28 C -7.42223 1.53249 0.642067 0
M  V30 29 H -2.40354 1.70733 -1.54299 0
M  V30 30 H -2.32784 0.1675 -2.42501 0
M  V30 31 H -5.25205 0.902821 -1.55421 0
M  V30 32 H -5.82881 -1.22845 2.05421 0
M  V30 33 H -3.45612 -1.59754 2.30487 0
M  V30 34 H 3.51696 1.08011 -2.54852 0
M  V30 35 H 5.90104 1.22882 -2.01533 0
M  V30 36 H 5.21044 -0.840424 1.61999 0
M  V30 37 H 2.29697 -2.13266 0.989961 0
M  V30 38 H 2.48599 -0.902158 2.26897 0
M  V30 39 H 9.09524 0.613138 -0.642937 0
M  V30 40 H 7.79739 0.0822786 -1.74786 0
M  V30 41 H 7.90537 1.83446 -1.19545 0
M  V30 42 H 6.31505 1.34274 1.93371 0
M  V30 43 H 7.48961 2.39051 1.00606 0
M  V30 44 H 8.0545 1.04058 2.12455 0
M  V30 45 H 7.25856 -1.80046 0.212829 0
M  V30 46 H 7.43954 -1.04429 1.90116 0
M  V30 47 H 8.77912 -0.973841 0.764655 0
M  V30 48 H 0.470185 1.49209 -2.29209 0
M  V30 49 H 0.27202 -0.320389 -2.57093 0
M  V30 50 H 1.72443 0.533997 -3.12471 0
M  V30 51 H -0.0825908 -0.719607 2.19722 0
M  V30 52 H -0.589769 -2.34225 1.57719 0
M  V30 53 H -1.61871 -1.39138 2.70741 0
M  V30 54 H -8.0875 -1.16293 -1.31966 0
M  V30 55 H -7.13807 0.270516 -1.99317 0
M  V30 56 H -8.74271 0.524811 -1.24554 0
M  V30 57 H -7.67941 -0.406571 2.20153 0
M  V30 58 H -7.55139 -1.84782 1.14775 0
M  V30 59 H -9.01353 -0.754592 1.10927 0
M  V30 60 H -8.40511 1.67974 1.07832 0
M  V30 61 H -7.14669 2.17823 -0.184108 0
M  V30 62 H -6.68164 1.69878 1.48099 0
M  V30 END ATOM
M  V30 BEGIN BOND
M  V30 1 1 1 2
M  V30 2 2 2 3
M  V30 3 1 3 4
M  V30 4 2 4 5
M  V30 5 1 5 6
M  V30 6 2 6 7
M  V30 7 1 7 8
M  V30 8 2 8 9
M  V30 9 1 9 10
M  V30 10 2 10 11
M  V30 11 1 11 12
M  V30 12 2 12 13
M  V30 13 1 13 14
M  V30 14 2 14 15
M  V30 15 1 15 16
M  V30 16 2 16 17
M  V30 17 1 17 18
M  V30 18 1 15 19
M  V30 19 1 19 20
M  V30 20 1 19 21
M  V30 21 1 19 22
M  V30 22 1 11 23
M  V30 23 1 8 24
M  V30 24 1 4 25
M  V30 25 1 25 26
M  V30 26 1 25 27
M  V30 27 1 25 28
M  V30 28 1 7 2
M  V30 29 1 17 12
M  V30 30 1 1 29
M  V30 31 1 1 30
M  V30 32 1 3 31
M  V30 33 1 5 32
M  V30 34 1 6 33
M  V30 35 1 13 34
M  V30 36 1 14 35
M  V30 37 1 16 36
M  V30 38 1 18 37
M  V30 39 1 18 38
M  V30 40 1 20 39
M  V30 41 1 20 40
M  V30 42 1 20 41
M  V30 43 1 21 42
M  V30 44 1 21 43
M  V30 45 1 21 44
M  V30 46 1 22 45
M  V30 47 1 22 46
M  V30 48 1 22 47
M  V30 49 1 23 48
M  V30 50 1 23 49
M  V30 51 1 23 50
M  V30 52 1 24 51
M  V30 53 1 24 52
M  V30 54 1 24 53
M  V30 55 1 26 54
M  V30 56 1 26 55
M  V30 57 1 26 56
M  V30 58 1 27 57
M  V30 59 1 27 58
M  V30 60 1 27 59
M  V30 61 1 28 60
M  V30 62 1 28 61
M  V30 63 1 28 62
M  V30 END BOND
M  V30 END CTAB
M  END
