
     RDKit          3D

  0  0  0  0  0  0  0  0  0  0999 V3000
M  V30 BEGIN CTAB
M  V30 COUNTS 37 36 0 0 0
M  V30 BEGIN ATOM
M  V30 1 C 3.66313 -1.20565 -0.0772413 0
M  V30 2 C 3.2736 -0.469352 -1.32266 0
M  V30 3 C 2.92886 0.981701 -1.01344 0 CFG=1
M  V30 4 C 1.7932 0.968781 -0.0588768 0
M  V30 5 O 2.00175 1.49211 1.06739 0
M  V30 6 N 0.548691 0.391531 -0.419699 0
M  V30 7 C -0.496872 0.414736 0.546725 0
M  V30 8 C -1.78297 -0.221301 0.0748102 0
M  V30 9 C -2.80487 -0.13297 1.18357 0
M  V30 10 C -2.35471 -0.843237 2.43746 0
M  V30 11 C -2.27643 0.660285 -1.05445 0
M  V30 12 C -3.56868 0.161714 -1.6469 0
M  V30 13 N -1.61045 -1.57487 -0.361387 0
M  V30 14 N 4.09991 1.60535 -0.473448 0
M  V30 15 H 2.77155 -1.75512 0.303159 0
M  V30 16 H 4.04043 -0.507639 0.685656 0
M  V30 17 H 4.41837 -1.96026 -0.328368 0
M  V30 18 H 4.11983 -0.510551 -2.02985 0
M  V30 19 H 2.38895 -0.974687 -1.78985 0
M  V30 20 H 2.67487 1.50226 -1.9571 0
M  V30 21 H 0.468394 -0.0179297 -1.37287 0
M  V30 22 H -0.716339 1.47619 0.792118 0
M  V30 23 H -0.213995 -0.0743379 1.48728 0
M  V30 24 H -3.77932 -0.547446 0.902593 0
M  V30 25 H -2.97375 0.942279 1.42727 0
M  V30 26 H -2.11663 -1.90324 2.19523 0
M  V30 27 H -1.57392 -0.32163 2.99122 0
M  V30 28 H -3.26199 -0.89907 3.10216 0
M  V30 29 H -1.51555 0.643993 -1.84558 0
M  V30 30 H -2.46046 1.65749 -0.628756 0
M  V30 31 H -3.815 0.83728 -2.49262 0
M  V30 32 H -4.41724 0.225429 -0.937178 0
M  V30 33 H -3.49822 -0.861986 -2.04825 0
M  V30 34 H -1.74264 -1.66667 -1.39142 0
M  V30 35 H -0.627871 -1.86946 -0.16939 0
M  V30 36 H 4.5117 2.33854 -1.10452 0
M  V30 37 H 3.90466 2.01772 0.453841 0
M  V30 END ATOM
M  V30 BEGIN BOND
M  V30 1 1 1 2
M  V30 2 1 2 3
M  V30 3 1 3 4
M  V30 4 2 4 5
M  V30 5 1 4 6
M  V30 6 1 6 7
M  V30 7 1 7 8
M  V30 8 1 8 9
M  V30 9 1 9 10
M  V30 10 1 8 11
M  V30 11 1 11 12
M  V30 12 1 8 13
M  V30 13 1 3 14
M  V30 14 1 1 15
M  V30 15 1 1 16
M  V30 16 1 1 17
M  V30 17 1 2 18
M  V30 18 1 2 19
M  V30 19 1 3 20 CFG=3
M  V30 20 1 6 21
M  V30 21 1 7 22
M  V30 22 1 7 23
M  V30 23 1 9 24
M  V30 24 1 9 25
M  V30 25 1 10 26
M  V30 26 1 10 27
M  V30 27 1 10 28
M  V30 28 1 11 29
M  V30 29 1 11 30
M  V30 30 1 12 31
M  V30 31 1 12 32
M  V30 32 1 12 33
M  V30 33 1 13 34
M  V30 34 1 13 35
M  V30 35 1 14 36
M  V30 36 1 14 37
M  V30 END BOND
M  V30 END CTAB
M  END
