
     RDKit          3D

  0  0  0  0  0  0  0  0  0  0999 V3000
M  V30 BEGIN CTAB
M  V30 COUNTS 31 33 0 0 0
M  V30 BEGIN ATOM
M  V30 1 N 3.15724 0.437602 -1.77447 0
M  V30 2 C 3.56446 0.229836 -0.421959 0
M  V30 3 C 4.89159 0.186984 0.0141138 0
M  V30 4 N 4.80866 -0.0266822 1.34144 0
M  V30 5 N 3.53697 -0.107961 1.68962 0
M  V30 6 N 2.75432 0.0436464 0.641414 0
M  V30 7 C 1.32648 0.0277731 0.560269 0
M  V30 8 C 0.744537 -1.19391 0.830468 0
M  V30 9 C -0.54738 -1.60347 0.589312 0
M  V30 10 C -1.67023 -0.83691 0.377814 0
M  V30 11 C -1.72294 0.619138 0.126848 0
M  V30 12 C -0.633622 1.46812 0.0616855 0
M  V30 13 C 0.718589 1.20907 0.229208 0
M  V30 14 C -3.04921 0.962328 -0.0275236 0
M  V30 15 C -3.53798 2.28857 -0.288049 0
M  V30 16 N -3.93433 3.35711 -0.514202 0
M  V30 17 C -3.83053 -0.187413 0.111007 0
M  V30 18 N -5.24249 -0.297602 0.0273757 0
M  V30 19 C -2.98124 -1.26434 0.35535 0
M  V30 20 C -3.3777 -2.63159 0.558682 0
M  V30 21 N -3.68444 -3.75002 0.736052 0
M  V30 22 C 6.05957 0.342039 -0.808968 0
M  V30 23 N 7.02139 0.466278 -1.46226 0
M  V30 24 H 3.17437 1.37555 -2.23817 0
M  V30 25 H 2.83155 -0.40098 -2.30378 0
M  V30 26 H 1.39953 -1.9203 1.29389 0
M  V30 27 H -0.734603 -2.66476 0.556052 0
M  V30 28 H -0.923902 2.50619 -0.16019 0
M  V30 29 H 1.37832 2.04214 0.080487 0
M  V30 30 H -5.75431 0.230199 -0.707547 0
M  V30 31 H -5.74265 -0.906636 0.705177 0
M  V30 END ATOM
M  V30 BEGIN BOND
M  V30 1 1 1 2
M  V30 2 2 2 3
M  V30 3 1 3 4
M  V30 4 2 4 5
M  V30 5 1 5 6
M  V30 6 1 6 7
M  V30 7 2 7 8
M  V30 8 1 8 9
M  V30 9 2 9 10
M  V30 10 1 10 11
M  V30 11 1 11 12
M  V30 12 2 12 13
M  V30 13 2 11 14
M  V30 14 1 14 15
M  V30 15 3 15 16
M  V30 16 1 14 17
M  V30 17 1 17 18
M  V30 18 2 17 19
M  V30 19 1 19 20
M  V30 20 3 20 21
M  V30 21 1 3 22
M  V30 22 3 22 23
M  V30 23 1 6 2
M  V30 24 1 13 7
M  V30 25 1 19 10
M  V30 26 1 1 24
M  V30 27 1 1 25
M  V30 28 1 8 26
M  V30 29 1 9 27
M  V30 30 1 12 28
M  V30 31 1 13 29
M  V30 32 1 18 30
M  V30 33 1 18 31
M  V30 END BOND
M  V30 END CTAB
M  END
