
     RDKit          3D

  0  0  0  0  0  0  0  0  0  0999 V3000
M  V30 BEGIN CTAB
M  V30 COUNTS 24 24 0 0 0
M  V30 BEGIN ATOM
M  V30 1 N -2.34915 0.800175 -1.71791 0
M  V30 2 N -2.2639 0.948345 -0.34779 0
M  V30 3 C -1.09461 0.140904 0.196556 0
M  V30 4 N -1.14636 0.415553 1.6027 0
M  V30 5 C 0.0913434 0.706801 -0.438335 0
M  V30 6 C 1.41978 0.205144 -0.14529 0
M  V30 7 C 1.95525 -0.737341 0.674166 0
M  V30 8 N 3.30081 -0.769058 0.51111 0
M  V30 9 C 3.61471 0.14694 -0.404695 0
M  V30 10 N 2.50834 0.734782 -0.805201 0
M  V30 11 C -1.46215 -1.2419 -0.101001 0
M  V30 12 O -1.08632 -2.26945 0.730995 0
M  V30 13 O -2.13595 -1.59208 -1.11305 0
M  V30 14 H -2.32823 1.7599 -2.16872 0
M  V30 15 H -3.30253 0.404397 -1.92744 0
M  V30 16 H -3.09443 0.654174 0.175554 0
M  V30 17 H -0.41004 -0.110941 2.08842 0
M  V30 18 H -1.12318 1.44778 1.74737 0
M  V30 19 H 0.0791931 1.84562 -0.359702 0
M  V30 20 H -0.0509102 0.594668 -1.57569 0
M  V30 21 H 1.41879 -1.38675 1.37817 0
M  V30 22 H 3.9715 -1.38659 0.999631 0
M  V30 23 H 4.65408 0.349077 -0.742631 0
M  V30 24 H -1.16604 -2.23858 1.74279 0
M  V30 END ATOM
M  V30 BEGIN BOND
M  V30 1 1 1 2
M  V30 2 1 2 3
M  V30 3 1 3 4
M  V30 4 1 3 5
M  V30 5 1 5 6
M  V30 6 2 6 7
M  V30 7 1 7 8
M  V30 8 1 8 9
M  V30 9 2 9 10
M  V30 10 1 3 11
M  V30 11 1 11 12
M  V30 12 2 11 13
M  V30 13 1 10 6
M  V30 14 1 1 14
M  V30 15 1 1 15
M  V30 16 1 2 16
M  V30 17 1 4 17
M  V30 18 1 4 18
M  V30 19 1 5 19
M  V30 20 1 5 20
M  V30 21 1 7 21
M  V30 22 1 8 22
M  V30 23 1 9 23
M  V30 24 1 12 24
M  V30 END BOND
M  V30 END CTAB
M  END
