
     RDKit          3D

  0  0  0  0  0  0  0  0  0  0999 V3000
M  V30 BEGIN CTAB
M  V30 COUNTS 29 30 0 0 0
M  V30 BEGIN ATOM
M  V30 1 N 4.67681 -0.167294 -0.0938478 0
M  V30 2 C 3.34235 0.257155 -0.480333 0
M  V30 3 C 2.59923 1.03397 0.574995 0
M  V30 4 C 1.38337 0.189397 0.264384 0
M  V30 5 C 2.32275 -0.848992 -0.303703 0
M  V30 6 C 0.639304 -0.252613 1.50372 0
M  V30 7 S -0.791615 -1.24973 1.09595 0
M  V30 8 C -1.98108 -0.237858 0.236448 0
M  V30 9 N -1.77708 1.07303 -0.0374076 0
M  V30 10 C -2.6804 1.82218 -0.683555 0
M  V30 11 C -3.87614 1.29276 -1.10719 0
M  V30 12 C -4.14006 -0.0429751 -0.855018 0
M  V30 13 C -3.18794 -0.784076 -0.188013 0
M  V30 14 N -3.40053 -2.16039 0.100207 0
M  V30 15 H 5.01167 -0.813312 -0.840651 0
M  V30 16 H 5.32291 0.627712 -0.0593421 0
M  V30 17 H 3.28511 0.712423 -1.49357 0
M  V30 18 H 2.97405 0.909132 1.60733 0
M  V30 19 H 2.44288 2.11821 0.324665 0
M  V30 20 H 0.762048 0.666828 -0.500656 0
M  V30 21 H 2.02933 -1.26105 -1.29289 0
M  V30 22 H 2.59275 -1.60817 0.456123 0
M  V30 23 H 1.35215 -0.856629 2.10374 0
M  V30 24 H 0.299266 0.663337 2.01907 0
M  V30 25 H -2.4893 2.86436 -0.887244 0
M  V30 26 H -4.60673 1.89281 -1.62809 0
M  V30 27 H -5.07249 -0.503648 -1.17207 0
M  V30 28 H -4.20043 -2.40163 0.732942 0
M  V30 29 H -2.83219 -2.93495 -0.263021 0
M  V30 END ATOM
M  V30 BEGIN BOND
M  V30 1 1 1 2
M  V30 2 1 2 3
M  V30 3 1 3 4
M  V30 4 1 4 5
M  V30 5 1 4 6
M  V30 6 1 6 7
M  V30 7 1 7 8
M  V30 8 2 8 9
M  V30 9 1 9 10
M  V30 10 2 10 11
M  V30 11 1 11 12
M  V30 12 2 12 13
M  V30 13 1 13 14
M  V30 14 1 5 2
M  V30 15 1 13 8
M  V30 16 1 1 15
M  V30 17 1 1 16
M  V30 18 1 2 17
M  V30 19 1 3 18
M  V30 20 1 3 19
M  V30 21 1 4 20
M  V30 22 1 5 21
M  V30 23 1 5 22
M  V30 24 1 6 23
M  V30 25 1 6 24
M  V30 26 1 10 25
M  V30 27 1 11 26
M  V30 28 1 12 27
M  V30 29 1 14 28
M  V30 30 1 14 29
M  V30 END BOND
M  V30 END CTAB
M  END
