
     RDKit          3D

  0  0  0  0  0  0  0  0  0  0999 V3000
M  V30 BEGIN CTAB
M  V30 COUNTS 25 25 0 0 0
M  V30 BEGIN ATOM
M  V30 1 C 5.27143 1.37719 -0.916717 0
M  V30 2 C 4.46428 0.585562 -0.49036 0
M  V30 3 C 3.47074 -0.365804 0.00788303 0
M  V30 4 N 2.15009 0.113281 -0.227451 0
M  V30 5 C 1.00771 -0.626813 0.163308 0
M  V30 6 O 1.18841 -1.75311 0.74156 0
M  V30 7 C -0.369904 -0.19292 -0.0482698 0
M  V30 8 C -0.673782 1.00622 -0.66293 0
M  V30 9 C -1.98626 1.4083 -0.858695 0
M  V30 10 C -2.99302 0.577023 -0.422208 0
M  V30 11 C -2.71981 -0.621486 0.192391 0
M  V30 12 C -1.40124 -1.01577 0.384094 0
M  V30 13 N -1.08231 -2.24678 1.01507 0
M  V30 14 N -4.32419 0.989523 -0.623174 0
M  V30 15 H 5.97683 2.08266 -1.30572 0
M  V30 16 H 3.63318 -0.551207 1.10674 0
M  V30 17 H 3.56909 -1.35851 -0.510777 0
M  V30 18 H 2.00864 1.02533 -0.695772 0
M  V30 19 H 0.140204 1.63459 -0.993303 0
M  V30 20 H -2.22496 2.34296 -1.33777 0
M  V30 21 H -3.49592 -1.30258 0.549607 0
M  V30 22 H -0.922249 -2.32106 2.03193 0
M  V30 23 H -1.00755 -3.09887 0.436861 0
M  V30 24 H -4.84471 1.37331 0.190691 0
M  V30 25 H -4.83469 0.938973 -1.53748 0
M  V30 END ATOM
M  V30 BEGIN BOND
M  V30 1 3 1 2
M  V30 2 1 2 3
M  V30 3 1 3 4
M  V30 4 1 4 5
M  V30 5 2 5 6
M  V30 6 1 5 7
M  V30 7 2 7 8
M  V30 8 1 8 9
M  V30 9 2 9 10
M  V30 10 1 10 11
M  V30 11 2 11 12
M  V30 12 1 12 13
M  V30 13 1 10 14
M  V30 14 1 12 7
M  V30 15 1 1 15
M  V30 16 1 3 16
M  V30 17 1 3 17
M  V30 18 1 4 18
M  V30 19 1 8 19
M  V30 20 1 9 20
M  V30 21 1 11 21
M  V30 22 1 13 22
M  V30 23 1 13 23
M  V30 24 1 14 24
M  V30 25 1 14 25
M  V30 END BOND
M  V30 END CTAB
M  END
