
     RDKit          3D

  0  0  0  0  0  0  0  0  0  0999 V3000
M  V30 BEGIN CTAB
M  V30 COUNTS 26 26 0 0 0
M  V30 BEGIN ATOM
M  V30 1 N 2.87563 2.08933 0.101546 0
M  V30 2 C 1.53824 1.50262 0.240187 0
M  V30 3 C 1.66787 0.0550374 -0.130636 0
M  V30 4 C 0.382071 -0.683794 -0.0385682 0
M  V30 5 C 0.434057 -2.06963 -0.0492608 0
M  V30 6 C -0.735552 -2.791 0.0343431 0
M  V30 7 C -1.97046 -2.18772 0.129323 0
M  V30 8 C -2.01083 -0.819828 0.139061 0
M  V30 9 C -0.846256 -0.0635458 0.0560107 0
M  V30 10 O -3.19931 -0.161712 0.230871 0
M  V30 11 C -3.36549 1.23534 0.250021 0
M  V30 12 Cl -3.45751 -3.09166 0.235699 0
M  V30 13 N 2.61818 -0.560443 0.767593 0
M  V30 14 H 2.83459 3.08733 0.418612 0
M  V30 15 H 3.1656 2.03295 -0.908098 0
M  V30 16 H 0.828559 2.0596 -0.404097 0
M  V30 17 H 1.24013 1.61937 1.30208 0
M  V30 18 H 2.07193 -0.00702129 -1.17303 0
M  V30 19 H 1.39505 -2.58636 -0.123422 0
M  V30 20 H -0.68292 -3.89087 0.0250051 0
M  V30 21 H -0.86063 1.01821 0.062553 0
M  V30 22 H -2.69806 1.63518 -0.569749 0
M  V30 23 H -4.37184 1.56528 0.00124867 0
M  V30 24 H -2.96688 1.65837 1.19867 0
M  V30 25 H 3.60163 -0.471908 0.460726 0
M  V30 26 H 2.5122 -0.173112 1.73673 0
M  V30 END ATOM
M  V30 BEGIN BOND
M  V30 1 1 1 2
M  V30 2 1 2 3
M  V30 3 1 3 4
M  V30 4 2 4 5
M  V30 5 1 5 6
M  V30 6 2 6 7
M  V30 7 1 7 8
M  V30 8 2 8 9
M  V30 9 1 8 10
M  V30 10 1 10 11
M  V30 11 1 7 12
M  V30 12 1 3 13
M  V30 13 1 9 4
M  V30 14 1 1 14
M  V30 15 1 1 15
M  V30 16 1 2 16
M  V30 17 1 2 17
M  V30 18 1 3 18
M  V30 19 1 5 19
M  V30 20 1 6 20
M  V30 21 1 9 21
M  V30 22 1 11 22
M  V30 23 1 11 23
M  V30 24 1 11 24
M  V30 25 1 13 25
M  V30 26 1 13 26
M  V30 END BOND
M  V30 END CTAB
M  END
