
     RDKit          3D

  0  0  0  0  0  0  0  0  0  0999 V3000
M  V30 BEGIN CTAB
M  V30 COUNTS 30 32 0 0 0
M  V30 BEGIN ATOM
M  V30 1 C -3.39938 -1.40201 -0.325595 0
M  V30 2 N -2.27468 -0.493027 -0.102093 0
M  V30 3 C -2.32791 0.8187 0.246279 0
M  V30 4 C -3.6162 1.52913 0.45431 0
M  V30 5 C -1.04715 1.31555 0.35821 0
M  V30 6 C -0.200983 0.268321 0.0677138 0
M  V30 7 C -0.992257 -0.855431 -0.217855 0
M  V30 8 C -0.406793 -2.06043 -0.546144 0
M  V30 9 C 0.961723 -2.20178 -0.604663 0
M  V30 10 C 1.75852 -1.12144 -0.330677 0
M  V30 11 N 3.11808 -1.24046 -0.383144 0
M  V30 12 C 3.90905 -0.195352 -0.118408 0
M  V30 13 N 5.3433 -0.347562 -0.180808 0
M  V30 14 N 3.35378 0.970669 0.19909 0
M  V30 15 C 2.00677 1.14614 0.266317 0
M  V30 16 N 1.4927 2.40814 0.60863 0
M  V30 17 C 1.17131 0.0958909 0.000905188 0
M  V30 18 H -4.31867 -0.814775 -0.43358 0
M  V30 19 H -3.50519 -2.00727 0.605734 0
M  V30 20 H -3.17328 -2.02968 -1.20509 0
M  V30 21 H -4.03899 1.17712 1.43774 0
M  V30 22 H -3.47351 2.63253 0.496495 0
M  V30 23 H -4.30905 1.22259 -0.329909 0
M  V30 24 H -0.812943 2.3146 0.619308 0
M  V30 25 H -0.997492 -2.94146 -0.770479 0
M  V30 26 H 1.44779 -3.13882 -0.860422 0
M  V30 27 H 5.89566 0.273328 -0.80322 0
M  V30 28 H 5.82326 -1.06994 0.389578 0
M  V30 29 H 1.31947 2.6502 1.59481 0
M  V30 30 H 1.29306 3.09653 -0.133032 0
M  V30 END ATOM
M  V30 BEGIN BOND
M  V30 1 1 1 2
M  V30 2 1 2 3
M  V30 3 1 3 4
M  V30 4 2 3 5
M  V30 5 1 5 6
M  V30 6 2 6 7
M  V30 7 1 7 8
M  V30 8 2 8 9
M  V30 9 1 9 10
M  V30 10 2 10 11
M  V30 11 1 11 12
M  V30 12 1 12 13
M  V30 13 2 12 14
M  V30 14 1 14 15
M  V30 15 1 15 16
M  V30 16 2 15 17
M  V30 17 1 7 2
M  V30 18 1 17 10
M  V30 19 1 17 6
M  V30 20 1 1 18
M  V30 21 1 1 19
M  V30 22 1 1 20
M  V30 23 1 4 21
M  V30 24 1 4 22
M  V30 25 1 4 23
M  V30 26 1 5 24
M  V30 27 1 8 25
M  V30 28 1 9 26
M  V30 29 1 13 27
M  V30 30 1 13 28
M  V30 31 1 16 29
M  V30 32 1 16 30
M  V30 END BOND
M  V30 END CTAB
M  END
