
     RDKit          3D

  0  0  0  0  0  0  0  0  0  0999 V3000
M  V30 BEGIN CTAB
M  V30 COUNTS 22 23 0 0 0
M  V30 BEGIN ATOM
M  V30 1 N -3.52467 0.758929 -0.511901 0
M  V30 2 C -2.11648 0.570369 -0.453874 0
M  V30 3 C -1.25139 1.17229 -1.34607 0
M  V30 4 C 0.123968 0.987383 -1.28844 0
M  V30 5 C 0.660274 0.178523 -0.313576 0
M  V30 6 C -0.17619 -0.422816 0.574095 0
M  V30 7 C -1.55518 -0.237944 0.516994 0
M  V30 8 N -2.36897 -0.889931 1.46715 0
M  V30 9 C 2.1278 -0.0134008 -0.259056 0
M  V30 10 C 2.84147 -0.771647 0.626964 0
M  V30 11 C 4.17468 -0.789694 0.47442 0
M  V30 12 N 4.68836 -0.0702002 -0.523408 0
M  V30 13 S 3.3491 0.633257 -1.25607 0
M  V30 14 H -4.15176 0.778996 0.318473 0
M  V30 15 H -3.95233 0.885202 -1.45411 0
M  V30 16 H -1.6888 1.81753 -2.12247 0
M  V30 17 H 0.762364 1.48822 -2.02007 0
M  V30 18 H 0.278147 -1.06255 1.34116 0
M  V30 19 H -3.09573 -1.60138 1.18326 0
M  V30 20 H -2.31141 -0.717815 2.5044 0
M  V30 21 H 2.31328 -1.33203 1.42104 0
M  V30 22 H 4.87349 -1.36128 1.12108 0
M  V30 END ATOM
M  V30 BEGIN BOND
M  V30 1 1 1 2
M  V30 2 2 2 3
M  V30 3 1 3 4
M  V30 4 2 4 5
M  V30 5 1 5 6
M  V30 6 2 6 7
M  V30 7 1 7 8
M  V30 8 1 5 9
M  V30 9 2 9 10
M  V30 10 1 10 11
M  V30 11 2 11 12
M  V30 12 1 12 13
M  V30 13 1 7 2
M  V30 14 1 13 9
M  V30 15 1 1 14
M  V30 16 1 1 15
M  V30 17 1 3 16
M  V30 18 1 4 17
M  V30 19 1 6 18
M  V30 20 1 8 19
M  V30 21 1 8 20
M  V30 22 1 10 21
M  V30 23 1 11 22
M  V30 END BOND
M  V30 END CTAB
M  END
