
     RDKit          3D

  0  0  0  0  0  0  0  0  0  0999 V3000
M  V30 BEGIN CTAB
M  V30 COUNTS 37 38 0 0 0
M  V30 BEGIN ATOM
M  V30 1 N 2.83781 -2.26485 -1.52538 0
M  V30 2 C 3.08072 -1.4153 -0.422754 0
M  V30 3 C 4.36974 -1.01786 -0.114349 0
M  V30 4 C 4.57173 -0.193945 0.960574 0
M  V30 5 N 5.88947 0.210197 1.2725 0
M  V30 6 N 3.50724 0.21554 1.70019 0
M  V30 7 C 2.2526 -0.165037 1.40843 0
M  V30 8 N 2.07186 -0.978067 0.344479 0
M  V30 9 S 0.877448 0.393347 2.40261 0
M  V30 10 C 0.198277 1.93372 1.79404 0
M  V30 11 C -0.447106 1.80636 0.44179 0
M  V30 12 O -1.52277 0.88942 0.483352 0
M  V30 13 C -2.28924 0.582446 -0.618519 0
M  V30 14 C -2.02642 1.17817 -1.86339 0
M  V30 15 C -2.77347 0.893089 -2.98705 0
M  V30 16 C -3.80529 -0.011155 -2.8487 0
M  V30 17 C -4.09791 -0.61733 -1.65143 0
M  V30 18 C -3.32254 -0.312052 -0.516044 0
M  V30 19 C -3.65827 -0.964188 0.736408 0
M  V30 20 O -4.64788 -1.78643 0.717556 0
M  V30 21 C -2.94333 -0.744548 2.01302 0
M  V30 22 H 3.58336 -2.85486 -1.94115 0
M  V30 23 H 1.88764 -2.30639 -1.93848 0
M  V30 24 H 5.21577 -1.34463 -0.704158 0
M  V30 25 H 6.12888 1.23359 1.15052 0
M  V30 26 H 6.60692 -0.448513 1.60753 0
M  V30 27 H 1.03396 2.68792 1.76264 0
M  V30 28 H -0.564498 2.3174 2.51687 0
M  V30 29 H 0.258244 1.622 -0.366839 0
M  V30 30 H -0.920854 2.81012 0.228531 0
M  V30 31 H -1.18784 1.88147 -1.87097 0
M  V30 32 H -2.54529 1.36921 -3.93173 0
M  V30 33 H -4.41818 -0.262323 -3.7132 0
M  V30 34 H -4.92128 -1.3343 -1.55684 0
M  V30 35 H -2.96357 0.307683 2.31877 0
M  V30 36 H -3.42356 -1.364 2.82055 0
M  V30 37 H -1.89238 -1.0547 1.89061 0
M  V30 END ATOM
M  V30 BEGIN BOND
M  V30 1 1 1 2
M  V30 2 2 2 3
M  V30 3 1 3 4
M  V30 4 1 4 5
M  V30 5 2 4 6
M  V30 6 1 6 7
M  V30 7 2 7 8
M  V30 8 1 7 9
M  V30 9 1 9 10
M  V30 10 1 10 11
M  V30 11 1 11 12
M  V30 12 1 12 13
M  V30 13 2 13 14
M  V30 14 1 14 15
M  V30 15 2 15 16
M  V30 16 1 16 17
M  V30 17 2 17 18
M  V30 18 1 18 19
M  V30 19 2 19 20
M  V30 20 1 19 21
M  V30 21 1 8 2
M  V30 22 1 18 13
M  V30 23 1 1 22
M  V30 24 1 1 23
M  V30 25 1 3 24
M  V30 26 1 5 25
M  V30 27 1 5 26
M  V30 28 1 10 27
M  V30 29 1 10 28
M  V30 30 1 11 29
M  V30 31 1 11 30
M  V30 32 1 14 31
M  V30 33 1 15 32
M  V30 34 1 16 33
M  V30 35 1 17 34
M  V30 36 1 21 35
M  V30 37 1 21 36
M  V30 38 1 21 37
M  V30 END BOND
M  V30 END CTAB
M  END
