
     RDKit          3D

  0  0  0  0  0  0  0  0  0  0999 V3000
M  V30 BEGIN CTAB
M  V30 COUNTS 33 34 0 0 0
M  V30 BEGIN ATOM
M  V30 1 C -3.41598 -1.90192 0.382919 0
M  V30 2 C -2.10816 -1.15067 0.20811 0
M  V30 3 C -2.37455 0.263946 -0.147099 0
M  V30 4 C -3.69246 0.647979 -0.409004 0
M  V30 5 C -3.9825 1.95074 -0.74568 0
M  V30 6 C -2.93426 2.85104 -0.813116 0
M  V30 7 C -1.64529 2.46025 -0.553435 0
M  V30 8 C -1.32086 1.14079 -0.208906 0
M  V30 9 N -0.0218174 0.724706 0.0507492 0
M  V30 10 N 0.660692 -0.222698 -0.329354 0
M  V30 11 C 2.00365 -0.479674 0.0594311 0
M  V30 12 C 2.97394 0.40313 -0.359496 0
M  V30 13 N 2.63182 1.5282 -1.15686 0
M  V30 14 N 4.27937 0.210348 -0.017797 0
M  V30 15 C 4.58101 -0.863731 0.736781 0
M  V30 16 N 5.96283 -1.03007 1.07445 0
M  V30 17 N 3.66165 -1.74824 1.16518 0
M  V30 18 C 2.36776 -1.55663 0.825835 0
M  V30 19 O 1.36279 -2.42464 1.2295 0
M  V30 20 H -3.88359 -1.98891 -0.60254 0
M  V30 21 H -4.00987 -1.35436 1.13808 0
M  V30 22 H -3.11814 -2.92147 0.756661 0
M  V30 23 H -1.45296 -1.6549 -0.534335 0
M  V30 24 H -1.58209 -1.16106 1.17735 0
M  V30 25 H -4.5175 -0.0589432 -0.356826 0
M  V30 26 H -5.00341 2.24691 -0.948843 0
M  V30 27 H -3.18241 3.86282 -1.07731 0
M  V30 28 H -0.815162 3.14846 -0.600551 0
M  V30 29 H 3.3068 2.31329 -1.30768 0
M  V30 30 H 1.70977 1.63055 -1.62547 0
M  V30 31 H 6.6536 -0.276021 0.975859 0
M  V30 32 H 6.28448 -1.96704 1.43983 0
M  V30 33 H 0.620863 -2.62217 0.573562 0
M  V30 END ATOM
M  V30 BEGIN BOND
M  V30 1 1 1 2
M  V30 2 1 2 3
M  V30 3 2 3 4
M  V30 4 1 4 5
M  V30 5 2 5 6
M  V30 6 1 6 7
M  V30 7 2 7 8
M  V30 8 1 8 9
M  V30 9 2 9 10
M  V30 10 1 10 11
M  V30 11 2 11 12
M  V30 12 1 12 13
M  V30 13 1 12 14
M  V30 14 2 14 15
M  V30 15 1 15 16
M  V30 16 1 15 17
M  V30 17 2 17 18
M  V30 18 1 18 19
M  V30 19 1 8 3
M  V30 20 1 18 11
M  V30 21 1 1 20
M  V30 22 1 1 21
M  V30 23 1 1 22
M  V30 24 1 2 23
M  V30 25 1 2 24
M  V30 26 1 4 25
M  V30 27 1 5 26
M  V30 28 1 6 27
M  V30 29 1 7 28
M  V30 30 1 13 29
M  V30 31 1 13 30
M  V30 32 1 16 31
M  V30 33 1 16 32
M  V30 34 1 19 33
M  V30 END BOND
M  V30 END CTAB
M  END
