
     RDKit          3D

  0  0  0  0  0  0  0  0  0  0999 V3000
M  V30 BEGIN CTAB
M  V30 COUNTS 25 24 0 0 0
M  V30 BEGIN ATOM
M  V30 1 C 2.43468 -0.296159 0.533568 0 CFG=2
M  V30 2 N 1.97876 -1.48488 -0.095723 0
M  V30 3 C 1.46635 0.437393 1.37982 0
M  V30 4 S -0.0130419 1.03 0.586502 0
M  V30 5 C -1.03619 -0.344692 0.0752838 0
M  V30 6 C -2.32753 0.0894929 -0.584581 0 CFG=1
M  V30 7 N -3.0531 -1.11318 -0.945111 0
M  V30 8 C -3.15986 0.843746 0.386907 0
M  V30 9 O -2.72631 2.0516 0.923582 0
M  V30 10 O -4.2882 0.419511 0.761323 0
M  V30 11 C 3.06448 0.580332 -0.508144 0
M  V30 12 O 3.12334 0.188533 -1.83757 0
M  V30 13 O 3.5576 1.6955 -0.20855 0
M  V30 14 H 3.29537 -0.580664 1.20297 0
M  V30 15 H 1.83252 -1.37083 -1.12822 0
M  V30 16 H 2.66099 -2.26704 0.00615416 0
M  V30 17 H 1.9829 1.3103 1.85974 0
M  V30 18 H 1.19312 -0.219928 2.25731 0
M  V30 19 H -0.485289 -1.03672 -0.588127 0
M  V30 20 H -1.33827 -0.916113 0.991821 0
M  V30 21 H -2.15883 0.667344 -1.50647 0
M  V30 22 H -2.39824 -1.91735 -1.15454 0
M  V30 23 H -3.59645 -1.43556 -0.0942492 0
M  V30 24 H -2.73136 2.84582 0.295314 0
M  V30 25 H 2.72253 0.823561 -2.53367 0
M  V30 END ATOM
M  V30 BEGIN BOND
M  V30 1 1 1 2
M  V30 2 1 1 3
M  V30 3 1 3 4
M  V30 4 1 4 5
M  V30 5 1 5 6
M  V30 6 1 6 7
M  V30 7 1 6 8
M  V30 8 1 8 9
M  V30 9 2 8 10
M  V30 10 1 1 11
M  V30 11 1 11 12
M  V30 12 2 11 13
M  V30 13 1 1 14 CFG=1
M  V30 14 1 2 15
M  V30 15 1 2 16
M  V30 16 1 3 17
M  V30 17 1 3 18
M  V30 18 1 5 19
M  V30 19 1 5 20
M  V30 20 1 6 21 CFG=3
M  V30 21 1 7 22
M  V30 22 1 7 23
M  V30 23 1 9 24
M  V30 24 1 12 25
M  V30 END BOND
M  V30 END CTAB
M  END
