
     RDKit          3D

  0  0  0  0  0  0  0  0  0  0999 V3000
M  V30 BEGIN CTAB
M  V30 COUNTS 20 21 0 0 0
M  V30 BEGIN ATOM
M  V30 1 N 4.66946 0.921714 0.0275511 0
M  V30 2 C 3.28749 0.564739 0.0572984 0
M  V30 3 N 2.36219 1.30305 -0.583256 0
M  V30 4 C 1.03511 0.979805 -0.567894 0
M  V30 5 C 0.603618 -0.117928 0.107918 0
M  V30 6 C 1.53241 -0.884524 0.768114 0
M  V30 7 N 2.84564 -0.518908 0.722003 0
M  V30 8 C -0.828868 -0.449152 0.112533 0
M  V30 9 S -1.62305 -1.77262 0.885376 0
M  V30 10 C -3.22557 -1.42421 0.404697 0
M  V30 11 C -3.0445 -0.283764 -0.338288 0
M  V30 12 N -1.84354 0.170801 -0.461699 0
M  V30 13 N -4.20879 0.348608 -0.943811 0
M  V30 14 H 5.30258 0.426378 -0.62717 0
M  V30 15 H 5.07898 1.65759 0.631808 0
M  V30 16 H 0.303973 1.60066 -1.09935 0
M  V30 17 H 1.18989 -1.74844 1.29953 0
M  V30 18 H -4.16815 -1.95851 0.621533 0
M  V30 19 H -4.9114 -0.188287 -1.48625 0
M  V30 20 H -4.35748 1.37299 -0.839275 0
M  V30 END ATOM
M  V30 BEGIN BOND
M  V30 1 1 1 2
M  V30 2 2 2 3
M  V30 3 1 3 4
M  V30 4 2 4 5
M  V30 5 1 5 6
M  V30 6 2 6 7
M  V30 7 1 5 8
M  V30 8 1 8 9
M  V30 9 1 9 10
M  V30 10 2 10 11
M  V30 11 1 11 12
M  V30 12 1 11 13
M  V30 13 1 7 2
M  V30 14 2 12 8
M  V30 15 1 1 14
M  V30 16 1 1 15
M  V30 17 1 4 16
M  V30 18 1 6 17
M  V30 19 1 10 18
M  V30 20 1 13 19
M  V30 21 1 13 20
M  V30 END BOND
M  V30 END CTAB
M  END
