
     RDKit          3D

  0  0  0  0  0  0  0  0  0  0999 V3000
M  V30 BEGIN CTAB
M  V30 COUNTS 17 17 0 0 0
M  V30 BEGIN ATOM
M  V30 1 N -2.2466 -1.03162 0.20693 0
M  V30 2 C -0.880786 -0.655662 0.133807 0
M  V30 3 C -0.598315 0.663859 -0.15475 0
M  V30 4 N -1.63711 1.60812 -0.37004 0
M  V30 5 C 0.727098 1.06359 -0.233368 0
M  V30 6 C 1.77877 0.194735 -0.0345749 0
M  V30 7 C 3.15705 0.641422 -0.123125 0
M  V30 8 N 4.25583 1.00199 -0.174334 0
M  V30 9 C 1.48803 -1.12269 0.253462 0
M  V30 10 F 2.50568 -1.98815 0.451244 0
M  V30 11 C 0.159126 -1.5288 0.333455 0
M  V30 12 H -2.72296 -1.62277 -0.520558 0
M  V30 13 H -2.80106 -0.694839 1.03765 0
M  V30 14 H -1.48041 2.6344 -0.269414 0
M  V30 15 H -2.59348 1.30289 -0.636752 0
M  V30 16 H 0.968306 2.08249 -0.45602 0
M  V30 17 H -0.0791598 -2.54897 0.556386 0
M  V30 END ATOM
M  V30 BEGIN BOND
M  V30 1 1 1 2
M  V30 2 2 2 3
M  V30 3 1 3 4
M  V30 4 1 3 5
M  V30 5 2 5 6
M  V30 6 1 6 7
M  V30 7 3 7 8
M  V30 8 1 6 9
M  V30 9 1 9 10
M  V30 10 2 9 11
M  V30 11 1 11 2
M  V30 12 1 1 12
M  V30 13 1 1 13
M  V30 14 1 4 14
M  V30 15 1 4 15
M  V30 16 1 5 16
M  V30 17 1 11 17
M  V30 END BOND
M  V30 END CTAB
M  END
