
     RDKit          3D

  0  0  0  0  0  0  0  0  0  0999 V3000
M  V30 BEGIN CTAB
M  V30 COUNTS 47 49 0 0 0
M  V30 BEGIN ATOM
M  V30 1 O -2.36164 -1.09528 -1.28411 0
M  V30 2 C -1.49154 -0.214807 -1.05115 0
M  V30 3 N -0.317408 -0.610518 -0.390878 0
M  V30 4 C 0.700336 0.38076 -0.111533 0
M  V30 5 C 1.84386 -0.16402 0.677087 0
M  V30 6 N 2.33811 -1.42372 0.238474 0
M  V30 7 C 1.35903 -2.31624 -0.285458 0
M  V30 8 C -0.054118 -1.96988 0.0367546 0
M  V30 9 S 3.64865 -1.32469 -0.867309 0
M  V30 10 O 3.22721 -0.666888 -2.15619 0
M  V30 11 O 4.06298 -2.73114 -1.20248 0
M  V30 12 C 5.04686 -0.534305 -0.173028 0
M  V30 13 C 6.0265 -1.21172 0.495217 0
M  V30 14 C 7.09754 -0.534561 1.01567 0
M  V30 15 C 7.16097 0.828984 0.850385 0
M  V30 16 C 6.19492 1.55908 0.182219 0
M  V30 17 C 5.13024 0.823143 -0.325881 0
M  V30 18 C -1.69457 1.19515 -1.45827 0
M  V30 19 S -3.25995 1.46643 -2.28824 0
M  V30 20 C -4.59101 1.19345 -1.13624 0
M  V30 21 N -5.15988 -0.0166973 -0.959707 0
M  V30 22 C -6.15445 -0.254552 -0.11062 0
M  V30 23 N -6.75427 -1.52508 0.0768543 0
M  V30 24 C -6.64741 0.794305 0.646051 0
M  V30 25 C -6.07984 2.04694 0.482978 0
M  V30 26 N -5.07213 2.21199 -0.39921 0
M  V30 27 N -6.59733 3.11811 1.26925 0
M  V30 28 H 0.200254 1.16383 0.526128 0
M  V30 29 H 1.02803 0.915687 -1.02594 0
M  V30 30 H 1.53313 -0.252884 1.75846 0
M  V30 31 H 2.6571 0.580179 0.671023 0
M  V30 32 H 1.43687 -2.41048 -1.3984 0
M  V30 33 H 1.53677 -3.36238 0.0910323 0
M  V30 34 H -0.275847 -2.12127 1.11447 0
M  V30 35 H -0.706797 -2.64924 -0.584082 0
M  V30 36 H 5.94179 -2.29279 0.605877 0
M  V30 37 H 7.89071 -1.08023 1.5567 0
M  V30 38 H 8.00503 1.36926 1.25967 0
M  V30 39 H 6.24897 2.63255 0.0546907 0
M  V30 40 H 4.34405 1.37807 -0.863355 0
M  V30 41 H -1.58523 1.83048 -0.537229 0
M  V30 42 H -0.872254 1.56007 -2.13715 0
M  V30 43 H -6.24931 -2.22778 0.652799 0
M  V30 44 H -7.6718 -1.80024 -0.326924 0
M  V30 45 H -7.4571 0.667821 1.35615 0
M  V30 46 H -6.71715 3.03784 2.32237 0
M  V30 47 H -6.88889 4.03724 0.873744 0
M  V30 END ATOM
M  V30 BEGIN BOND
M  V30 1 2 1 2
M  V30 2 1 2 3
M  V30 3 1 3 4
M  V30 4 1 4 5
M  V30 5 1 5 6
M  V30 6 1 6 7
M  V30 7 1 7 8
M  V30 8 1 6 9
M  V30 9 2 9 10
M  V30 10 2 9 11
M  V30 11 1 9 12
M  V30 12 2 12 13
M  V30 13 1 13 14
M  V30 14 2 14 15
M  V30 15 1 15 16
M  V30 16 2 16 17
M  V30 17 1 2 18
M  V30 18 1 18 19
M  V30 19 1 19 20
M  V30 20 2 20 21
M  V30 21 1 21 22
M  V30 22 1 22 23
M  V30 23 2 22 24
M  V30 24 1 24 25
M  V30 25 2 25 26
M  V30 26 1 25 27
M  V30 27 1 8 3
M  V30 28 1 17 12
M  V30 29 1 26 20
M  V30 30 1 4 28
M  V30 31 1 4 29
M  V30 32 1 5 30
M  V30 33 1 5 31
M  V30 34 1 7 32
M  V30 35 1 7 33
M  V30 36 1 8 34
M  V30 37 1 8 35
M  V30 38 1 13 36
M  V30 39 1 14 37
M  V30 40 1 15 38
M  V30 41 1 16 39
M  V30 42 1 17 40
M  V30 43 1 18 41
M  V30 44 1 18 42
M  V30 45 1 23 43
M  V30 46 1 23 44
M  V30 47 1 24 45
M  V30 48 1 27 46
M  V30 49 1 27 47
M  V30 END BOND
M  V30 END CTAB
M  END
