
     RDKit          3D

  0  0  0  0  0  0  0  0  0  0999 V3000
M  V30 BEGIN CTAB
M  V30 COUNTS 22 22 0 0 0
M  V30 BEGIN ATOM
M  V30 1 N -2.05155 0.653601 -1.40837 0
M  V30 2 C -1.48479 0.417188 -0.0860915 0
M  V30 3 C -2.32552 -0.632682 0.600582 0
M  V30 4 O -1.68556 -1.8408 0.440794 0
M  V30 5 C -0.315451 -1.59506 0.440689 0
M  V30 6 C -0.12571 -0.210023 -0.14852 0
M  V30 7 N 0.825285 0.543732 0.602429 0
M  V30 8 S 2.13187 1.12247 -0.367854 0
M  V30 9 O 1.59064 1.29101 -1.77963 0
M  V30 10 O 2.61465 2.44766 0.114589 0
M  V30 11 N 3.36318 -0.071927 -0.347916 0
M  V30 12 H -3.01143 1.06751 -1.23064 0
M  V30 13 H -1.50879 1.35363 -1.95187 0
M  V30 14 H -1.43821 1.36975 0.480036 0
M  V30 15 H -2.51131 -0.377505 1.67061 0
M  V30 16 H -3.32819 -0.702354 0.123313 0
M  V30 17 H 0.151379 -1.68843 1.42487 0
M  V30 18 H 0.148504 -2.30964 -0.275071 0
M  V30 19 H 0.201683 -0.250585 -1.20483 0
M  V30 20 H 1.22586 -0.064868 1.34782 0
M  V30 21 H 4.3141 0.303797 -0.289005 0
M  V30 22 H 3.21936 -0.826474 -1.02437 0
M  V30 END ATOM
M  V30 BEGIN BOND
M  V30 1 1 1 2
M  V30 2 1 2 3
M  V30 3 1 3 4
M  V30 4 1 4 5
M  V30 5 1 5 6
M  V30 6 1 6 7
M  V30 7 1 7 8
M  V30 8 2 8 9
M  V30 9 2 8 10
M  V30 10 1 8 11
M  V30 11 1 6 2
M  V30 12 1 1 12
M  V30 13 1 1 13
M  V30 14 1 2 14
M  V30 15 1 3 15
M  V30 16 1 3 16
M  V30 17 1 5 17
M  V30 18 1 5 18
M  V30 19 1 6 19
M  V30 20 1 7 20
M  V30 21 1 11 21
M  V30 22 1 11 22
M  V30 END BOND
M  V30 END CTAB
M  END
