
     RDKit          3D

  0  0  0  0  0  0  0  0  0  0999 V3000
M  V30 BEGIN CTAB
M  V30 COUNTS 27 27 0 0 0
M  V30 BEGIN ATOM
M  V30 1 N -0.45301 -0.669412 -1.819 0
M  V30 2 C -0.405273 -0.00940047 -0.535361 0
M  V30 3 C -1.62775 -0.382427 0.234422 0
M  V30 4 C -2.89215 0.0402968 -0.482309 0
M  V30 5 C -2.89507 1.28147 0.417849 0
M  V30 6 C -2.01781 0.501484 1.37383 0
M  V30 7 C 0.871917 -0.462522 0.148252 0
M  V30 8 N 1.9913 -0.0723245 -0.688767 0
M  V30 9 S 3.49145 -0.551421 0.0173148 0
M  V30 10 O 4.47762 -0.791836 -1.07591 0
M  V30 11 O 3.23258 -1.7881 0.833351 0
M  V30 12 N 4.04857 0.742546 1.03029 0
M  V30 13 H -1.40158 -1.07477 -1.9441 0
M  V30 14 H 0.212221 -1.46936 -1.88919 0
M  V30 15 H -0.350025 1.10661 -0.662657 0
M  V30 16 H -1.62567 -1.48297 0.463367 0
M  V30 17 H -3.7775 -0.587878 -0.269362 0
M  V30 18 H -2.80733 0.328436 -1.52916 0
M  V30 19 H -2.34897 2.12721 -0.0422237 0
M  V30 20 H -3.88029 1.5665 0.796426 0
M  V30 21 H -2.68956 -0.0473849 2.09268 0
M  V30 22 H -1.2145 1.07515 1.8628 0
M  V30 23 H 1.00563 -0.0231444 1.14229 0
M  V30 24 H 0.862645 -1.57679 0.158364 0
M  V30 25 H 1.95278 -0.438211 -1.64449 0
M  V30 26 H 3.33595 1.4951 1.09505 0
M  V30 27 H 4.90383 1.16313 0.604439 0
M  V30 END ATOM
M  V30 BEGIN BOND
M  V30 1 1 1 2
M  V30 2 1 2 3
M  V30 3 1 3 4
M  V30 4 1 4 5
M  V30 5 1 5 6
M  V30 6 1 2 7
M  V30 7 1 7 8
M  V30 8 1 8 9
M  V30 9 2 9 10
M  V30 10 2 9 11
M  V30 11 1 9 12
M  V30 12 1 6 3
M  V30 13 1 1 13
M  V30 14 1 1 14
M  V30 15 1 2 15
M  V30 16 1 3 16
M  V30 17 1 4 17
M  V30 18 1 4 18
M  V30 19 1 5 19
M  V30 20 1 5 20
M  V30 21 1 6 21
M  V30 22 1 6 22
M  V30 23 1 7 23
M  V30 24 1 7 24
M  V30 25 1 8 25
M  V30 26 1 12 26
M  V30 27 1 12 27
M  V30 END BOND
M  V30 END CTAB
M  END
