
     RDKit          3D

  0  0  0  0  0  0  0  0  0  0999 V3000
M  V30 BEGIN CTAB
M  V30 COUNTS 34 35 0 0 0
M  V30 BEGIN ATOM
M  V30 1 S 0.996802 -1.64956 1.36685 0
M  V30 2 C 0.658398 -0.386876 0.38916 0
M  V30 3 N -0.704387 -0.0700673 0.0720173 0
M  V30 4 C -1.79434 -0.796349 0.56224 0
M  V30 5 O -1.56677 -1.7753 1.31836 0
M  V30 6 C -3.17894 -0.474162 0.239787 0
M  V30 7 C -3.55125 0.571526 -0.575213 0
M  V30 8 C -4.89687 0.838707 -0.853717 0
M  V30 9 C -5.90581 0.0661414 -0.323738 0
M  V30 10 C -5.54153 -0.981185 0.492059 0
M  V30 11 C -4.22044 -1.24701 0.768151 0
M  V30 12 N -7.28091 0.351773 -0.617915 0
M  V30 13 N 1.6963 0.410447 -0.119597 0
M  V30 14 C 3.07641 0.317071 0.0185106 0
M  V30 15 C 3.85262 1.47915 -0.106796 0
M  V30 16 C 5.21854 1.45174 -0.00763607 0
M  V30 17 C 5.89373 0.284107 0.219349 0
M  V30 18 C 5.1808 -0.870849 0.347426 0
M  V30 19 C 3.78191 -0.831948 0.243804 0
M  V30 20 Cl 6.01334 -2.39957 0.640911 0
M  V30 21 N 7.32537 0.239288 0.326533 0
M  V30 22 H -0.867247 0.740434 -0.552735 0
M  V30 23 H -2.76843 1.19539 -1.00499 0
M  V30 24 H -5.1333 1.67814 -1.50445 0
M  V30 25 H -6.31817 -1.60845 0.924762 0
M  V30 26 H -3.92347 -2.08205 1.41896 0
M  V30 27 H -7.61206 1.31004 -0.850251 0
M  V30 28 H -7.95794 -0.414147 -0.598156 0
M  V30 29 H 1.36416 1.2376 -0.726088 0
M  V30 30 H 3.35833 2.40707 -0.284278 0
M  V30 31 H 5.78805 2.37987 -0.111174 0
M  V30 32 H 3.29908 -1.78458 0.336744 0
M  V30 33 H 7.7758 -0.565384 0.808458 0
M  V30 34 H 7.94221 0.978969 -0.0575781 0
M  V30 END ATOM
M  V30 BEGIN BOND
M  V30 1 2 1 2
M  V30 2 1 2 3
M  V30 3 1 3 4
M  V30 4 2 4 5
M  V30 5 1 4 6
M  V30 6 2 6 7
M  V30 7 1 7 8
M  V30 8 2 8 9
M  V30 9 1 9 10
M  V30 10 2 10 11
M  V30 11 1 9 12
M  V30 12 1 2 13
M  V30 13 1 13 14
M  V30 14 2 14 15
M  V30 15 1 15 16
M  V30 16 2 16 17
M  V30 17 1 17 18
M  V30 18 2 18 19
M  V30 19 1 18 20
M  V30 20 1 17 21
M  V30 21 1 11 6
M  V30 22 1 19 14
M  V30 23 1 3 22
M  V30 24 1 7 23
M  V30 25 1 8 24
M  V30 26 1 10 25
M  V30 27 1 11 26
M  V30 28 1 12 27
M  V30 29 1 12 28
M  V30 30 1 13 29
M  V30 31 1 15 30
M  V30 32 1 16 31
M  V30 33 1 19 32
M  V30 34 1 21 33
M  V30 35 1 21 34
M  V30 END BOND
M  V30 END CTAB
M  END
