
     RDKit          3D

  0  0  0  0  0  0  0  0  0  0999 V3000
M  V30 BEGIN CTAB
M  V30 COUNTS 41 41 0 0 0
M  V30 BEGIN ATOM
M  V30 1 C 5.622 -1.56956 -0.807948 0
M  V30 2 C 4.51287 -0.50507 -0.714597 0
M  V30 3 C 4.67597 0.336119 0.497802 0
M  V30 4 C 3.63542 1.41403 0.609629 0
M  V30 5 C 2.24518 0.857931 0.668898 0
M  V30 6 O 1.68095 0.745398 1.80512 0
M  V30 7 N 1.58303 0.474629 -0.505694 0
M  V30 8 C 0.255618 -0.0611394 -0.533682 0
M  V30 9 C -0.714461 0.923563 0.012972 0
M  V30 10 C -2.09826 0.325325 -0.0400166 0
M  V30 11 C -2.61199 -0.408201 1.00698 0
M  V30 12 C -3.88123 -0.943939 0.931234 0
M  V30 13 C -4.69174 -0.779195 -0.174298 0
M  V30 14 C -4.17331 -0.0419737 -1.22459 0
M  V30 15 C -2.90354 0.492258 -1.14519 0
M  V30 16 S -6.30029 -1.46864 -0.248508 0
M  V30 17 O -6.69557 -1.75176 -1.68829 0
M  V30 18 O -6.36916 -2.7369 0.543334 0
M  V30 19 N -7.40775 -0.3087 0.385313 0
M  V30 20 N 3.90557 2.09653 1.9055 0
M  V30 21 H 5.76101 -1.801 -1.8822 0
M  V30 22 H 6.56245 -1.17228 -0.345671 0
M  V30 23 H 5.28845 -2.5142 -0.310553 0
M  V30 24 H 3.55508 -1.09206 -0.706983 0
M  V30 25 H 4.52947 0.07408 -1.64637 0
M  V30 26 H 5.67673 0.860458 0.46743 0
M  V30 27 H 4.73533 -0.270516 1.43383 0
M  V30 28 H 3.75591 2.17122 -0.178252 0
M  V30 29 H 2.06975 0.585455 -1.43833 0
M  V30 30 H 0.246226 -0.952646 0.145268 0
M  V30 31 H -0.0712477 -0.34259 -1.5556 0
M  V30 32 H -0.72966 1.87167 -0.596796 0
M  V30 33 H -0.56139 1.20956 1.05301 0
M  V30 34 H -2.02008 -0.570047 1.90098 0
M  V30 35 H -4.31384 -1.52995 1.74683 0
M  V30 36 H -4.80177 0.0982802 -2.10789 0
M  V30 37 H -2.48442 1.07591 -1.96853 0
M  V30 38 H -7.88914 -0.644636 1.23988 0
M  V30 39 H -6.98931 0.636937 0.48749 0
M  V30 40 H 4.41272 2.98216 1.7246 0
M  V30 41 H 2.99842 2.23349 2.39586 0
M  V30 END ATOM
M  V30 BEGIN BOND
M  V30 1 1 1 2
M  V30 2 1 2 3
M  V30 3 1 3 4
M  V30 4 1 4 5
M  V30 5 2 5 6
M  V30 6 1 5 7
M  V30 7 1 7 8
M  V30 8 1 8 9
M  V30 9 1 9 10
M  V30 10 2 10 11
M  V30 11 1 11 12
M  V30 12 2 12 13
M  V30 13 1 13 14
M  V30 14 2 14 15
M  V30 15 1 13 16
M  V30 16 2 16 17
M  V30 17 2 16 18
M  V30 18 1 16 19
M  V30 19 1 4 20
M  V30 20 1 15 10
M  V30 21 1 1 21
M  V30 22 1 1 22
M  V30 23 1 1 23
M  V30 24 1 2 24
M  V30 25 1 2 25
M  V30 26 1 3 26
M  V30 27 1 3 27
M  V30 28 1 4 28
M  V30 29 1 7 29
M  V30 30 1 8 30
M  V30 31 1 8 31
M  V30 32 1 9 32
M  V30 33 1 9 33
M  V30 34 1 11 34
M  V30 35 1 12 35
M  V30 36 1 14 36
M  V30 37 1 15 37
M  V30 38 1 19 38
M  V30 39 1 19 39
M  V30 40 1 20 40
M  V30 41 1 20 41
M  V30 END BOND
M  V30 END CTAB
M  END
