
     RDKit          3D

  0  0  0  0  0  0  0  0  0  0999 V3000
M  V30 BEGIN CTAB
M  V30 COUNTS 30 30 0 0 0
M  V30 BEGIN ATOM
M  V30 1 N 5.53994 -1.4772 0.884664 0
M  V30 2 C 4.14883 -1.48475 1.19884 0
M  V30 3 C 3.39973 -0.443346 0.378464 0
M  V30 4 O 4.02751 0.255599 -0.421685 0
M  V30 5 N 2.03211 -0.348506 0.590573 0
M  V30 6 C 1.12703 0.539218 -0.038846 0
M  V30 7 C 1.58454 1.68031 -0.637785 0
M  V30 8 C 0.63766 2.49429 -1.2589 0
M  V30 9 C -0.687245 2.1634 -1.26573 0
M  V30 10 C -1.18152 0.998051 -0.657125 0
M  V30 11 C -0.241612 0.222276 -0.0604382 0
M  V30 12 N -2.56907 0.744001 -0.736545 0
M  V30 13 C -3.24253 -0.230471 0.000368949 0
M  V30 14 O -2.72178 -0.989363 0.814446 0
M  V30 15 C -4.72331 -0.366524 -0.215401 0
M  V30 16 N -5.20577 -1.42346 0.640916 0
M  V30 17 H 5.90058 -2.30154 0.401044 0
M  V30 18 H 5.91389 -0.566564 0.594741 0
M  V30 19 H 3.64113 -2.43872 0.996282 0
M  V30 20 H 3.99954 -1.22654 2.26502 0
M  V30 21 H 1.57746 -0.998895 1.30558 0
M  V30 22 H 2.61409 2.01486 -0.661087 0
M  V30 23 H 1.00683 3.39797 -1.73309 0
M  V30 24 H -1.41826 2.80223 -1.75074 0
M  V30 25 H -0.526178 -0.689617 0.417732 0
M  V30 26 H -3.17546 1.32369 -1.40424 0
M  V30 27 H -5.24123 0.590525 -0.0649296 0
M  V30 28 H -4.82976 -0.654322 -1.29748 0
M  V30 29 H -6.20289 -1.2524 0.928543 0
M  V30 30 H -5.18427 -2.33419 0.141678 0
M  V30 END ATOM
M  V30 BEGIN BOND
M  V30 1 1 1 2
M  V30 2 1 2 3
M  V30 3 2 3 4
M  V30 4 1 3 5
M  V30 5 1 5 6
M  V30 6 2 6 7
M  V30 7 1 7 8
M  V30 8 2 8 9
M  V30 9 1 9 10
M  V30 10 2 10 11
M  V30 11 1 10 12
M  V30 12 1 12 13
M  V30 13 2 13 14
M  V30 14 1 13 15
M  V30 15 1 15 16
M  V30 16 1 11 6
M  V30 17 1 1 17
M  V30 18 1 1 18
M  V30 19 1 2 19
M  V30 20 1 2 20
M  V30 21 1 5 21
M  V30 22 1 7 22
M  V30 23 1 8 23
M  V30 24 1 9 24
M  V30 25 1 11 25
M  V30 26 1 12 26
M  V30 27 1 15 27
M  V30 28 1 15 28
M  V30 29 1 16 29
M  V30 30 1 16 30
M  V30 END BOND
M  V30 END CTAB
M  END
