
     RDKit          3D

  0  0  0  0  0  0  0  0  0  0999 V3000
M  V30 BEGIN CTAB
M  V30 COUNTS 27 28 0 0 0
M  V30 BEGIN ATOM
M  V30 1 N -3.09553 -1.0188 0.356033 0
M  V30 2 C -2.57082 0.283457 0.214099 0
M  V30 3 C -1.12543 0.419321 0.0661301 0
M  V30 4 C -0.690652 1.75539 -0.0562264 0
M  V30 5 N -1.64593 2.84014 -0.0408761 0
M  V30 6 N 0.606898 1.97033 -0.18348 0
M  V30 7 C 1.50602 0.970118 -0.198792 0
M  V30 8 C 1.11028 -0.368346 -0.0798325 0
M  V30 9 C -0.255373 -0.648658 0.0563838 0
M  V30 10 C -0.702349 -2.0542 0.162401 0
M  V30 11 C 2.07785 -1.33743 -0.0971466 0
M  V30 12 C 3.45411 -1.05065 -0.230232 0
M  V30 13 C 3.82378 0.24967 -0.345387 0
M  V30 14 C 2.85454 1.22702 -0.327804 0
M  V30 15 F 5.15173 0.524666 -0.474066 0
M  V30 16 H -3.33736 -1.28437 1.34208 0
M  V30 17 H -3.88409 -1.26186 -0.283669 0
M  V30 18 H -2.91765 0.936543 1.07417 0
M  V30 19 H -3.10691 0.761388 -0.672848 0
M  V30 20 H -2.22193 3.06324 0.789021 0
M  V30 21 H -1.74107 3.41157 -0.922281 0
M  V30 22 H -1.41849 -2.35849 -0.644888 0
M  V30 23 H -1.1693 -2.3007 1.1468 0
M  V30 24 H 0.164042 -2.7232 0.00530855 0
M  V30 25 H 1.8031 -2.37135 -5.14192e-05 0
M  V30 26 H 4.13229 -1.88334 -0.232453 0
M  V30 27 H 3.19826 2.24854 -0.422398 0
M  V30 END ATOM
M  V30 BEGIN BOND
M  V30 1 1 1 2
M  V30 2 1 2 3
M  V30 3 2 3 4
M  V30 4 1 4 5
M  V30 5 1 4 6
M  V30 6 2 6 7
M  V30 7 1 7 8
M  V30 8 2 8 9
M  V30 9 1 9 10
M  V30 10 1 8 11
M  V30 11 2 11 12
M  V30 12 1 12 13
M  V30 13 2 13 14
M  V30 14 1 13 15
M  V30 15 1 9 3
M  V30 16 1 14 7
M  V30 17 1 1 16
M  V30 18 1 1 17
M  V30 19 1 2 18
M  V30 20 1 2 19
M  V30 21 1 5 20
M  V30 22 1 5 21
M  V30 23 1 10 22
M  V30 24 1 10 23
M  V30 25 1 10 24
M  V30 26 1 11 25
M  V30 27 1 12 26
M  V30 28 1 14 27
M  V30 END BOND
M  V30 END CTAB
M  END
