
     RDKit          3D

  0  0  0  0  0  0  0  0  0  0999 V3000
M  V30 BEGIN CTAB
M  V30 COUNTS 18 18 0 0 0
M  V30 BEGIN ATOM
M  V30 1 N -1.03799 1.92875 -0.00468764 0
M  V30 2 C -1.03886 0.512774 0.0575219 0
M  V30 3 C -2.18724 -0.233796 0.203407 0
M  V30 4 C -2.17426 -1.61262 0.262644 0
M  V30 5 N -0.999807 -2.23525 0.174281 0
M  V30 6 C 0.155569 -1.53003 0.029519 0
M  V30 7 C 0.168212 -0.151487 -0.032228 0
M  V30 8 S 1.63636 0.780553 -0.217779 0
M  V30 9 N 2.97676 -0.271525 -0.303662 0
M  V30 10 O 1.80039 1.65231 0.994868 0
M  V30 11 O 1.51669 1.67464 -1.42011 0
M  V30 12 H -1.17469 2.51013 0.833238 0
M  V30 13 H -0.892713 2.36269 -0.937287 0
M  V30 14 H -3.1453 0.294019 0.27461 0
M  V30 15 H -3.09992 -2.18791 0.379055 0
M  V30 16 H 1.11674 -2.03469 -0.0430203 0
M  V30 17 H 2.80784 -1.16283 -0.779272 0
M  V30 18 H 3.57222 -0.295717 0.528898 0
M  V30 END ATOM
M  V30 BEGIN BOND
M  V30 1 1 1 2
M  V30 2 2 2 3
M  V30 3 1 3 4
M  V30 4 2 4 5
M  V30 5 1 5 6
M  V30 6 2 6 7
M  V30 7 1 7 8
M  V30 8 1 8 9
M  V30 9 2 8 10
M  V30 10 2 8 11
M  V30 11 1 7 2
M  V30 12 1 1 12
M  V30 13 1 1 13
M  V30 14 1 3 14
M  V30 15 1 4 15
M  V30 16 1 6 16
M  V30 17 1 9 17
M  V30 18 1 9 18
M  V30 END BOND
M  V30 END CTAB
M  END
