
     RDKit          3D

  0  0  0  0  0  0  0  0  0  0999 V3000
M  V30 BEGIN CTAB
M  V30 COUNTS 38 40 0 0 0
M  V30 BEGIN ATOM
M  V30 1 N 7.36647 -0.546401 0.467561 0
M  V30 2 N 6.01703 -0.854182 0.615304 0
M  V30 3 C 5.03104 -0.0661921 -0.00848237 0
M  V30 4 O 5.40151 0.919807 -0.700325 0
M  V30 5 C 3.56937 -0.392332 0.146329 0
M  V30 6 C 2.79677 0.623527 -0.630269 0
M  V30 7 C 1.33078 0.410186 -0.55706 0
M  V30 8 N 0.795367 -0.592668 0.137879 0
M  V30 9 C -0.541049 -0.771368 0.193274 0
M  V30 10 S -1.55651 -1.93204 0.973392 0
M  V30 11 C -3.07091 -1.33276 0.456241 0
M  V30 12 C -2.74196 -0.24787 -0.307507 0
M  V30 13 C -1.43139 0.0354042 -0.43856 0
M  V30 14 C -0.826108 1.07034 -1.153 0
M  V30 15 O -1.5164 1.92318 -1.80773 0
M  V30 16 N 0.511342 1.22733 -1.19262 0
M  V30 17 N 1.08489 2.29347 -1.93123 0
M  V30 18 C -3.96919 0.425667 -0.859515 0
M  V30 19 C -4.96733 0.577395 0.271786 0
M  V30 20 C -5.50234 -0.80239 0.573297 0
M  V30 21 C -4.43966 -1.82614 0.732224 0
M  V30 22 H 7.92108 -1.29611 0.0182535 0
M  V30 23 H 7.49739 0.330072 -0.101703 0
M  V30 24 H 5.74552 -1.66557 1.18647 0
M  V30 25 H 3.35198 -0.322969 1.23272 0
M  V30 26 H 3.36303 -1.42175 -0.157232 0
M  V30 27 H 3.07885 0.52668 -1.71319 0
M  V30 28 H 3.07922 1.65099 -0.326072 0
M  V30 29 H 0.879385 2.4376 -2.91086 0
M  V30 30 H 1.72588 2.918 -1.41582 0
M  V30 31 H -3.77663 1.4201 -1.26067 0
M  V30 32 H -4.44193 -0.19086 -1.64662 0
M  V30 33 H -4.50919 1.05361 1.14917 0
M  V30 34 H -5.78553 1.21439 -0.0825295 0
M  V30 35 H -6.21677 -0.774856 1.42157 0
M  V30 36 H -6.12843 -1.08796 -0.322337 0
M  V30 37 H -4.60448 -2.70267 0.0699529 0
M  V30 38 H -4.52112 -2.23064 1.78395 0
M  V30 END ATOM
M  V30 BEGIN BOND
M  V30 1 1 1 2
M  V30 2 1 2 3
M  V30 3 2 3 4
M  V30 4 1 3 5
M  V30 5 1 5 6
M  V30 6 1 6 7
M  V30 7 2 7 8
M  V30 8 1 8 9
M  V30 9 1 9 10
M  V30 10 1 10 11
M  V30 11 2 11 12
M  V30 12 1 12 13
M  V30 13 1 13 14
M  V30 14 2 14 15
M  V30 15 1 14 16
M  V30 16 1 16 17
M  V30 17 1 12 18
M  V30 18 1 18 19
M  V30 19 1 19 20
M  V30 20 1 20 21
M  V30 21 1 16 7
M  V30 22 2 13 9
M  V30 23 1 21 11
M  V30 24 1 1 22
M  V30 25 1 1 23
M  V30 26 1 2 24
M  V30 27 1 5 25
M  V30 28 1 5 26
M  V30 29 1 6 27
M  V30 30 1 6 28
M  V30 31 1 17 29
M  V30 32 1 17 30
M  V30 33 1 18 31
M  V30 34 1 18 32
M  V30 35 1 19 33
M  V30 36 1 19 34
M  V30 37 1 20 35
M  V30 38 1 20 36
M  V30 39 1 21 37
M  V30 40 1 21 38
M  V30 END BOND
M  V30 END CTAB
M  END
