
     RDKit          3D

  0  0  0  0  0  0  0  0  0  0999 V3000
M  V30 BEGIN CTAB
M  V30 COUNTS 27 28 0 0 0
M  V30 BEGIN ATOM
M  V30 1 N 3.19744 1.4109 1.62465 0
M  V30 2 C 2.48216 0.566045 0.726995 0
M  V30 3 N 1.39018 1.00916 0.0531402 0
M  V30 4 C 0.7081 0.226166 -0.793793 0
M  V30 5 C -0.463119 0.744637 -1.50307 0
M  V30 6 C -1.768 0.576641 -0.815944 0
M  V30 7 C -2.16296 -0.841584 -0.526473 0
M  V30 8 O -3.09989 -0.791332 0.499232 0
M  V30 9 C -2.99688 0.402565 1.15482 0
M  V30 10 C -1.78537 1.15203 0.594719 0
M  V30 11 N 1.12913 -1.03435 -0.972019 0
M  V30 12 C 2.20493 -1.53932 -0.335652 0
M  V30 13 N 2.85372 -0.704916 0.505979 0
M  V30 14 N 2.65239 -2.86373 -0.518922 0
M  V30 15 H 3.98285 1.9699 1.17559 0
M  V30 16 H 3.01102 1.5078 2.62458 0
M  V30 17 H -0.350125 1.82687 -1.78797 0
M  V30 18 H -0.540609 0.222062 -2.5024 0
M  V30 19 H -2.57527 1.1158 -1.37354 0
M  V30 20 H -1.28147 -1.36542 -0.108949 0
M  V30 21 H -2.54536 -1.29307 -1.44863 0
M  V30 22 H -2.93391 0.315159 2.25835 0
M  V30 23 H -3.88355 1.02836 0.849694 0
M  V30 24 H -0.924386 0.813036 1.18969 0
M  V30 25 H -1.9333 2.24009 0.604269 0
M  V30 26 H 3.07295 -3.14239 -1.41731 0
M  V30 27 H 2.5593 -3.5511 0.242964 0
M  V30 END ATOM
M  V30 BEGIN BOND
M  V30 1 1 1 2
M  V30 2 2 2 3
M  V30 3 1 3 4
M  V30 4 1 4 5
M  V30 5 1 5 6
M  V30 6 1 6 7
M  V30 7 1 7 8
M  V30 8 1 8 9
M  V30 9 1 9 10
M  V30 10 2 4 11
M  V30 11 1 11 12
M  V30 12 2 12 13
M  V30 13 1 12 14
M  V30 14 1 13 2
M  V30 15 1 10 6
M  V30 16 1 1 15
M  V30 17 1 1 16
M  V30 18 1 5 17
M  V30 19 1 5 18
M  V30 20 1 6 19
M  V30 21 1 7 20
M  V30 22 1 7 21
M  V30 23 1 9 22
M  V30 24 1 9 23
M  V30 25 1 10 24
M  V30 26 1 10 25
M  V30 27 1 14 26
M  V30 28 1 14 27
M  V30 END BOND
M  V30 END CTAB
M  END
