
     RDKit          3D

  0  0  0  0  0  0  0  0  0  0999 V3000
M  V30 BEGIN CTAB
M  V30 COUNTS 30 31 0 0 0
M  V30 BEGIN ATOM
M  V30 1 N 3.74356 1.40726 0.149692 0
M  V30 2 C 2.7346 0.394086 0.180993 0
M  V30 3 C 1.42446 0.636528 -0.114973 0
M  V30 4 C 0.431812 -0.322168 -0.0923945 0
M  V30 5 N 0.852021 -1.56654 0.254577 0
M  V30 6 C 2.13342 -1.84205 0.55234 0
M  V30 7 C 3.12794 -0.875392 0.528397 0
M  V30 8 N 4.47366 -1.15355 0.838696 0
M  V30 9 N -0.930956 -0.0621689 -0.401713 0
M  V30 10 C -1.85674 -1.169 -0.340112 0
M  V30 11 C -3.2243 -0.835945 0.073969 0
M  V30 12 C -3.67689 0.560062 -0.115747 0
M  V30 13 C -2.56387 1.50446 0.259485 0
M  V30 14 C -1.45919 1.22055 -0.771963 0
M  V30 15 H 3.47127 2.34194 0.526559 0
M  V30 16 H 4.70229 1.24478 -0.22319 0
M  V30 17 H 1.17314 1.65314 -0.381503 0
M  V30 18 H 2.45999 -2.83926 0.828499 0
M  V30 19 H 5.17238 -1.19483 0.0870712 0
M  V30 20 H 4.75087 -1.31388 1.8145 0
M  V30 21 H -1.45455 -1.95699 0.359913 0
M  V30 22 H -1.83532 -1.66385 -1.35088 0
M  V30 23 H -3.40409 -1.10636 1.15466 0
M  V30 24 H -3.93957 -1.50543 -0.487919 0
M  V30 25 H -3.96457 0.807675 -1.16845 0
M  V30 26 H -4.56205 0.764698 0.508765 0
M  V30 27 H -2.20431 1.176 1.27255 0
M  V30 28 H -2.85309 2.55755 0.254668 0
M  V30 29 H -0.771482 2.05741 -0.753791 0
M  V30 30 H -1.95042 1.08126 -1.77154 0
M  V30 END ATOM
M  V30 BEGIN BOND
M  V30 1 1 1 2
M  V30 2 2 2 3
M  V30 3 1 3 4
M  V30 4 2 4 5
M  V30 5 1 5 6
M  V30 6 2 6 7
M  V30 7 1 7 8
M  V30 8 1 4 9
M  V30 9 1 9 10
M  V30 10 1 10 11
M  V30 11 1 11 12
M  V30 12 1 12 13
M  V30 13 1 13 14
M  V30 14 1 7 2
M  V30 15 1 14 9
M  V30 16 1 1 15
M  V30 17 1 1 16
M  V30 18 1 3 17
M  V30 19 1 6 18
M  V30 20 1 8 19
M  V30 21 1 8 20
M  V30 22 1 10 21
M  V30 23 1 10 22
M  V30 24 1 11 23
M  V30 25 1 11 24
M  V30 26 1 12 25
M  V30 27 1 12 26
M  V30 28 1 13 27
M  V30 29 1 13 28
M  V30 30 1 14 29
M  V30 31 1 14 30
M  V30 END BOND
M  V30 END CTAB
M  END
