
     RDKit          3D

  0  0  0  0  0  0  0  0  0  0999 V3000
M  V30 BEGIN CTAB
M  V30 COUNTS 51 53 0 0 0
M  V30 BEGIN ATOM
M  V30 1 N -3.14568 -2.45889 -2.08398 0
M  V30 2 C -2.35764 -1.59446 -1.1809 0
M  V30 3 C -2.72217 -0.165111 -1.39553 0
M  V30 4 C -2.74598 0.69479 -0.172389 0
M  V30 5 C -4.10713 0.742688 0.466982 0
M  V30 6 C -4.13425 0.378944 1.90825 0
M  V30 7 C -3.42646 -0.900608 2.25331 0
M  V30 8 C -2.23626 -1.13207 1.3028 0
M  V30 9 C -2.76037 -1.99883 0.20665 0
M  V30 10 C -1.77483 0.225712 0.892831 0
M  V30 11 N -0.406344 0.34656 0.539915 0
M  V30 12 C 0.539103 1.18878 1.17482 0
M  V30 13 O 0.0747798 1.8822 2.14513 0
M  V30 14 C 1.94803 1.30237 0.798946 0
M  V30 15 C 2.60078 -0.0513357 0.940243 0
M  V30 16 C 4.03308 -0.0212359 0.480969 0
M  V30 17 N 4.07558 0.26688 -0.913898 0
M  V30 18 C 2.93081 0.865936 -1.46988 0
M  V30 19 C 2.18485 1.81099 -0.585904 0
M  V30 20 S 5.56483 0.986725 -1.34802 0
M  V30 21 O 5.84985 2.23414 -0.532262 0
M  V30 22 O 5.59603 1.30513 -2.82048 0
M  V30 23 N 6.81684 -0.151697 -0.985759 0
M  V30 24 H -2.6381 -2.61005 -2.97842 0
M  V30 25 H -4.10816 -2.10092 -2.19292 0
M  V30 26 H -1.30684 -1.84986 -1.43352 0
M  V30 27 H -2.11907 0.276723 -2.22332 0
M  V30 28 H -3.7782 -0.162209 -1.80173 0
M  V30 29 H -2.4105 1.71591 -0.465802 0
M  V30 30 H -4.85165 0.134253 -0.0979841 0
M  V30 31 H -4.49242 1.79746 0.391364 0
M  V30 32 H -3.81858 1.24117 2.53406 0
M  V30 33 H -5.21893 0.216165 2.17962 0
M  V30 34 H -4.1031 -1.78104 2.2215 0
M  V30 35 H -3.05387 -0.815535 3.296 0
M  V30 36 H -1.50483 -1.70474 1.8898 0
M  V30 37 H -3.89158 -2.04558 0.184239 0
M  V30 38 H -2.47764 -3.07326 0.389229 0
M  V30 39 H -1.95641 0.924865 1.76517 0
M  V30 40 H -0.0387312 -0.216217 -0.244585 0
M  V30 41 H 2.46722 1.98236 1.50348 0
M  V30 42 H 2.46772 -0.438591 1.95983 0
M  V30 43 H 2.05657 -0.742285 0.258427 0
M  V30 44 H 4.67625 0.627452 1.10582 0
M  V30 45 H 4.42906 -1.06783 0.624375 0
M  V30 46 H 3.18764 1.3972 -2.40546 0
M  V30 47 H 2.21248 0.0534621 -1.77132 0
M  V30 48 H 2.72115 2.79201 -0.5922 0
M  V30 49 H 1.19724 2.02733 -1.08869 0
M  V30 50 H 6.42094 -1.13079 -0.892661 0
M  V30 51 H 7.53487 -0.209461 -1.73617 0
M  V30 END ATOM
M  V30 BEGIN BOND
M  V30 1 1 1 2
M  V30 2 1 2 3
M  V30 3 1 3 4
M  V30 4 1 4 5
M  V30 5 1 5 6
M  V30 6 1 6 7
M  V30 7 1 7 8
M  V30 8 1 8 9
M  V30 9 1 8 10
M  V30 10 1 10 11
M  V30 11 1 11 12
M  V30 12 2 12 13
M  V30 13 1 12 14
M  V30 14 1 14 15
M  V30 15 1 15 16
M  V30 16 1 16 17
M  V30 17 1 17 18
M  V30 18 1 18 19
M  V30 19 1 17 20
M  V30 20 2 20 21
M  V30 21 2 20 22
M  V30 22 1 20 23
M  V30 23 1 9 2
M  V30 24 1 19 14
M  V30 25 1 10 4
M  V30 26 1 1 24
M  V30 27 1 1 25
M  V30 28 1 2 26
M  V30 29 1 3 27
M  V30 30 1 3 28
M  V30 31 1 4 29
M  V30 32 1 5 30
M  V30 33 1 5 31
M  V30 34 1 6 32
M  V30 35 1 6 33
M  V30 36 1 7 34
M  V30 37 1 7 35
M  V30 38 1 8 36
M  V30 39 1 9 37
M  V30 40 1 9 38
M  V30 41 1 10 39
M  V30 42 1 11 40
M  V30 43 1 14 41
M  V30 44 1 15 42
M  V30 45 1 15 43
M  V30 46 1 16 44
M  V30 47 1 16 45
M  V30 48 1 18 46
M  V30 49 1 18 47
M  V30 50 1 19 48
M  V30 51 1 19 49
M  V30 52 1 23 50
M  V30 53 1 23 51
M  V30 END BOND
M  V30 END CTAB
M  END
