
     RDKit          3D

  0  0  0  0  0  0  0  0  0  0999 V3000
M  V30 BEGIN CTAB
M  V30 COUNTS 45 47 0 0 0
M  V30 BEGIN ATOM
M  V30 1 C -9.77802 0.784475 -0.110783 0
M  V30 2 O -8.76357 -0.169284 -0.205007 0
M  V30 3 N -7.43754 0.114726 -0.308169 0
M  V30 4 C -6.50367 -0.689736 0.0749185 0
M  V30 5 N -6.8358 -1.94746 0.639132 0
M  V30 6 C -5.10101 -0.300339 -0.0745947 0
M  V30 7 C -4.09758 -1.16404 0.336832 0
M  V30 8 C -2.75896 -0.782133 0.189466 0
M  V30 9 C -2.47683 0.446959 -0.362861 0
M  V30 10 N -3.47801 1.25211 -0.747677 0
M  V30 11 C -4.77741 0.906011 -0.615799 0
M  V30 12 C -1.08292 0.840748 -0.514492 0
M  V30 13 C -0.669813 2.0501 -1.05545 0
M  V30 14 C 0.692555 2.03257 -1.02097 0
M  V30 15 C 1.08466 0.831566 -0.46814 0
M  V30 16 O -0.00669933 0.170165 -0.189133 0
M  V30 17 C 2.44949 0.371869 -0.232893 0
M  V30 18 N 2.70964 -0.82513 0.315583 0
M  V30 19 C 3.97497 -1.25091 0.533511 0
M  V30 20 C 5.06994 -0.473591 0.201938 0
M  V30 21 C 4.83459 0.76375 -0.364368 0
M  V30 22 C 3.52273 1.15706 -0.568459 0
M  V30 23 C 6.42226 -0.944141 0.441872 0
M  V30 24 N 6.61924 -2.21758 1.02383 0
M  V30 25 N 7.44006 -0.237856 0.141045 0
M  V30 26 O 8.7348 -0.620392 0.339897 0
M  V30 27 C 9.75105 0.357255 0.249218 0
M  V30 28 H -9.42608 1.7983 -0.421884 0
M  V30 29 H -10.2577 0.836987 0.88922 0
M  V30 30 H -10.5899 0.465702 -0.825114 0
M  V30 31 H -6.80891 -2.83706 0.0675417 0
M  V30 32 H -7.11906 -2.06131 1.62891 0
M  V30 33 H -4.32137 -2.13766 0.774351 0
M  V30 34 H -2.00311 -1.4806 0.521109 0
M  V30 35 H -5.54495 1.59541 -0.943551 0
M  V30 36 H -1.35621 2.81618 -1.41657 0
M  V30 37 H 1.33923 2.80754 -1.36018 0
M  V30 38 H 4.12922 -2.20737 0.970723 0
M  V30 39 H 5.69061 1.37046 -0.623139 0
M  V30 40 H 3.35262 2.1177 -1.00788 0
M  V30 41 H 7.26266 -2.89988 0.548742 0
M  V30 42 H 6.16958 -2.53823 1.90077 0
M  V30 43 H 9.64057 0.82797 -0.761051 0
M  V30 44 H 9.54862 1.11687 1.02961 0
M  V30 45 H 10.756 -0.0477458 0.412865 0
M  V30 END ATOM
M  V30 BEGIN BOND
M  V30 1 1 1 2
M  V30 2 1 2 3
M  V30 3 2 3 4 CFG=2
M  V30 4 1 4 5
M  V30 5 1 4 6
M  V30 6 2 6 7
M  V30 7 1 7 8
M  V30 8 2 8 9
M  V30 9 1 9 10
M  V30 10 2 10 11
M  V30 11 1 9 12
M  V30 12 2 12 13
M  V30 13 1 13 14
M  V30 14 2 14 15
M  V30 15 1 15 16
M  V30 16 1 15 17
M  V30 17 2 17 18
M  V30 18 1 18 19
M  V30 19 2 19 20
M  V30 20 1 20 21
M  V30 21 2 21 22
M  V30 22 1 20 23
M  V30 23 1 23 24
M  V30 24 2 23 25 CFG=2
M  V30 25 1 25 26
M  V30 26 1 26 27
M  V30 27 1 11 6
M  V30 28 1 16 12
M  V30 29 1 22 17
M  V30 30 1 1 28
M  V30 31 1 1 29
M  V30 32 1 1 30
M  V30 33 1 5 31
M  V30 34 1 5 32
M  V30 35 1 7 33
M  V30 36 1 8 34
M  V30 37 1 11 35
M  V30 38 1 13 36
M  V30 39 1 14 37
M  V30 40 1 19 38
M  V30 41 1 21 39
M  V30 42 1 22 40
M  V30 43 1 24 41
M  V30 44 1 24 42
M  V30 45 1 27 43
M  V30 46 1 27 44
M  V30 47 1 27 45
M  V30 END BOND
M  V30 END CTAB
M  END
