
     RDKit          3D

  0  0  0  0  0  0  0  0  0  0999 V3000
M  V30 BEGIN CTAB
M  V30 COUNTS 26 26 0 0 0
M  V30 BEGIN ATOM
M  V30 1 C 3.56024 1.16759 -0.256856 0
M  V30 2 C 3.01123 -0.0304357 -0.981086 0
M  V30 3 S 1.23794 0.0264543 -1.2097 0
M  V30 4 C 0.424171 -0.0886739 0.412098 0
M  V30 5 C -1.0653 -0.0512508 0.278022 0
M  V30 6 N -1.73366 1.12002 0.332264 0
M  V30 7 C -3.06948 1.21403 0.212601 0
M  V30 8 N -3.6629 2.49674 0.287974 0
M  V30 9 N -3.76331 0.0869414 0.0307192 0
M  V30 10 C -3.13281 -1.12415 -0.0314725 0
M  V30 11 N -1.79274 -1.15849 0.0948953 0
M  V30 12 N -3.87133 -2.31771 -0.227741 0
M  V30 13 C 3.37667 -1.28266 -0.236165 0
M  V30 14 H 4.54431 0.948206 0.205525 0
M  V30 15 H 3.71302 2.01673 -0.955377 0
M  V30 16 H 2.89781 1.53918 0.546087 0
M  V30 17 H 3.52855 -0.0729409 -1.97782 0
M  V30 18 H 0.708576 0.858344 0.959596 0
M  V30 19 H 0.799067 -0.968994 0.931614 0
M  V30 20 H -3.5531 3.18604 -0.472562 0
M  V30 21 H -4.21928 2.7549 1.12104 0
M  V30 22 H -4.18007 -2.58905 -1.17283 0
M  V30 23 H -4.095 -2.91127 0.583573 0
M  V30 24 H 4.44433 -1.54689 -0.377667 0
M  V30 25 H 3.13202 -1.12426 0.834265 0
M  V30 26 H 2.76106 -2.14841 -0.592424 0
M  V30 END ATOM
M  V30 BEGIN BOND
M  V30 1 1 1 2
M  V30 2 1 2 3
M  V30 3 1 3 4
M  V30 4 1 4 5
M  V30 5 2 5 6
M  V30 6 1 6 7
M  V30 7 1 7 8
M  V30 8 2 7 9
M  V30 9 1 9 10
M  V30 10 2 10 11
M  V30 11 1 10 12
M  V30 12 1 2 13
M  V30 13 1 11 5
M  V30 14 1 1 14
M  V30 15 1 1 15
M  V30 16 1 1 16
M  V30 17 1 2 17
M  V30 18 1 4 18
M  V30 19 1 4 19
M  V30 20 1 8 20
M  V30 21 1 8 21
M  V30 22 1 12 22
M  V30 23 1 12 23
M  V30 24 1 13 24
M  V30 25 1 13 25
M  V30 26 1 13 26
M  V30 END BOND
M  V30 END CTAB
M  END
