
     RDKit          3D

  0  0  0  0  0  0  0  0  0  0999 V3000
M  V30 BEGIN CTAB
M  V30 COUNTS 29 30 0 0 0
M  V30 BEGIN ATOM
M  V30 1 N -3.36404 1.27147 1.11225 0
M  V30 2 C -2.85642 0.21769 0.256061 0
M  V30 3 C -1.84414 -0.696554 0.886133 0
M  V30 4 C -1.00182 -0.513001 -0.372277 0
M  V30 5 C -1.73887 0.766629 -0.615945 0
M  V30 6 O -1.3041 -1.43288 -1.38915 0
M  V30 7 C 0.432487 -0.437891 -0.137067 0
M  V30 8 C 1.16691 0.697754 -0.276525 0
M  V30 9 C 2.51652 0.65444 -0.0282089 0
M  V30 10 C 3.29439 1.91968 -0.190714 0
M  V30 11 C 3.14728 -0.502796 0.357165 0
M  V30 12 N 2.39783 -1.60641 0.486386 0
M  V30 13 C 1.07867 -1.59577 0.25118 0
M  V30 14 N 0.384697 -2.83837 0.423117 0
M  V30 15 H -3.96514 1.88082 0.479042 0
M  V30 16 H -2.54051 1.88032 1.35847 0
M  V30 17 H -3.60773 -0.319491 -0.344851 0
M  V30 18 H -2.15855 -1.75684 0.985757 0
M  V30 19 H -1.34219 -0.26571 1.77766 0
M  V30 20 H -2.1088 0.914727 -1.66774 0
M  V30 21 H -1.30022 1.68941 -0.242777 0
M  V30 22 H -0.794119 -1.12463 -2.18143 0
M  V30 23 H 0.714301 1.61626 -0.573937 0
M  V30 24 H 2.68839 2.7099 0.313966 0
M  V30 25 H 3.35033 2.10524 -1.2872 0
M  V30 26 H 4.2862 1.84069 0.258515 0
M  V30 27 H 4.21326 -0.464926 0.536214 0
M  V30 28 H 0.291881 -3.23761 1.38035 0
M  V30 29 H -0.0364812 -3.37215 -0.355961 0
M  V30 END ATOM
M  V30 BEGIN BOND
M  V30 1 1 1 2
M  V30 2 1 2 3
M  V30 3 1 3 4
M  V30 4 1 4 5
M  V30 5 1 4 6
M  V30 6 1 4 7
M  V30 7 2 7 8
M  V30 8 1 8 9
M  V30 9 1 9 10
M  V30 10 2 9 11
M  V30 11 1 11 12
M  V30 12 2 12 13
M  V30 13 1 13 14
M  V30 14 1 5 2
M  V30 15 1 13 7
M  V30 16 1 1 15
M  V30 17 1 1 16
M  V30 18 1 2 17
M  V30 19 1 3 18
M  V30 20 1 3 19
M  V30 21 1 5 20
M  V30 22 1 5 21
M  V30 23 1 6 22
M  V30 24 1 8 23
M  V30 25 1 10 24
M  V30 26 1 10 25
M  V30 27 1 10 26
M  V30 28 1 11 27
M  V30 29 1 14 28
M  V30 30 1 14 29
M  V30 END BOND
M  V30 END CTAB
M  END
