
     RDKit          3D

  0  0  0  0  0  0  0  0  0  0999 V3000
M  V30 BEGIN CTAB
M  V30 COUNTS 31 31 0 0 0
M  V30 BEGIN ATOM
M  V30 1 C -3.08452 1.46835 -0.46965 0
M  V30 2 C -1.94922 0.536243 -0.826919 0
M  V30 3 C -1.57341 -0.372941 0.305841 0
M  V30 4 C -0.466004 -1.29244 -0.000395155 0
M  V30 5 C 0.839422 -0.799144 -0.347833 0
M  V30 6 C 1.74247 -1.7198 -0.906388 0
M  V30 7 C 3.01176 -1.28591 -1.23573 0
M  V30 8 C 3.43056 0.0147004 -1.03909 0
M  V30 9 C 2.535 0.893558 -0.493837 0
M  V30 10 C 1.25846 0.469463 -0.159099 0
M  V30 11 N 2.92872 2.22758 -0.279591 0
M  V30 12 N -0.471964 -2.44076 0.91146 0
M  V30 13 C -1.49559 0.328866 1.63132 0
M  V30 14 H -2.6208 2.40898 -0.109145 0
M  V30 15 H -3.63629 1.7252 -1.39813 0
M  V30 16 H -3.80162 1.03217 0.223397 0
M  V30 17 H -2.33584 -0.0929757 -1.69199 0
M  V30 18 H -1.11316 1.09393 -1.26931 0
M  V30 19 H -2.48571 -1.04951 0.413151 0
M  V30 20 H -0.818502 -1.81205 -0.983547 0
M  V30 21 H 1.43789 -2.74492 -1.07029 0
M  V30 22 H 3.7196 -1.98943 -1.66879 0
M  V30 23 H 4.44676 0.273294 -1.32643 0
M  V30 24 H 0.610244 1.20029 0.274913 0
M  V30 25 H 2.58139 2.76237 0.536324 0
M  V30 26 H 3.5813 2.66647 -0.964949 0
M  V30 27 H -0.564116 -2.1385 1.90834 0
M  V30 28 H -1.32181 -3.04465 0.733661 0
M  V30 29 H -1.44673 1.44871 1.48449 0
M  V30 30 H -0.583481 0.0856337 2.20898 0
M  V30 31 H -2.3548 0.147232 2.30447 0
M  V30 END ATOM
M  V30 BEGIN BOND
M  V30 1 1 1 2
M  V30 2 1 2 3
M  V30 3 1 3 4
M  V30 4 1 4 5
M  V30 5 2 5 6
M  V30 6 1 6 7
M  V30 7 2 7 8
M  V30 8 1 8 9
M  V30 9 2 9 10
M  V30 10 1 9 11
M  V30 11 1 4 12
M  V30 12 1 3 13
M  V30 13 1 10 5
M  V30 14 1 1 14
M  V30 15 1 1 15
M  V30 16 1 1 16
M  V30 17 1 2 17
M  V30 18 1 2 18
M  V30 19 1 3 19
M  V30 20 1 4 20
M  V30 21 1 6 21
M  V30 22 1 7 22
M  V30 23 1 8 23
M  V30 24 1 10 24
M  V30 25 1 11 25
M  V30 26 1 11 26
M  V30 27 1 12 27
M  V30 28 1 12 28
M  V30 29 1 13 29
M  V30 30 1 13 30
M  V30 31 1 13 31
M  V30 END BOND
M  V30 END CTAB
M  END
