
     RDKit          3D

  0  0  0  0  0  0  0  0  0  0999 V3000
M  V30 BEGIN CTAB
M  V30 COUNTS 25 25 0 0 0
M  V30 BEGIN ATOM
M  V30 1 C 4.02681 -0.0104488 0.359363 0
M  V30 2 C 3.2932 0.970807 -0.491546 0
M  V30 3 O 1.90777 1.03905 -0.20658 0
M  V30 4 C 1.06781 -0.0555328 -0.32655 0
M  V30 5 O 1.59424 -1.13038 -0.705169 0
M  V30 6 C -0.368786 0.0387646 -0.0249588 0
M  V30 7 C -1.18503 -1.06234 -0.151187 0
M  V30 8 N -0.643321 -2.3048 -0.575944 0
M  V30 9 C -2.54562 -1.00594 0.125965 0
M  V30 10 C -3.07981 0.197798 0.5393 0
M  V30 11 C -2.26561 1.31396 0.669803 0
M  V30 12 C -0.911291 1.23649 0.388431 0
M  V30 13 Br 0.236552 2.74899 0.556739 0
M  V30 14 N -4.44735 0.359333 0.844894 0
M  V30 15 H 3.74138 0.166804 1.42233 0
M  V30 16 H 5.1184 0.25287 0.306392 0
M  V30 17 H 3.93672 -1.0528 0.0588321 0
M  V30 18 H 3.36068 0.663013 -1.57606 0
M  V30 19 H 3.77544 1.95652 -0.438822 0
M  V30 20 H -0.831903 -2.72029 -1.50443 0
M  V30 21 H -0.0263059 -2.81877 0.0841701 0
M  V30 22 H -3.18061 -1.88276 0.0225716 0
M  V30 23 H -2.67571 2.26202 0.993278 0
M  V30 24 H -5.08907 0.770907 0.149923 0
M  V30 25 H -4.8086 0.0667207 1.7628 0
M  V30 END ATOM
M  V30 BEGIN BOND
M  V30 1 1 1 2
M  V30 2 1 2 3
M  V30 3 1 3 4
M  V30 4 2 4 5
M  V30 5 1 4 6
M  V30 6 2 6 7
M  V30 7 1 7 8
M  V30 8 1 7 9
M  V30 9 2 9 10
M  V30 10 1 10 11
M  V30 11 2 11 12
M  V30 12 1 12 13
M  V30 13 1 10 14
M  V30 14 1 12 6
M  V30 15 1 1 15
M  V30 16 1 1 16
M  V30 17 1 1 17
M  V30 18 1 2 18
M  V30 19 1 2 19
M  V30 20 1 8 20
M  V30 21 1 8 21
M  V30 22 1 9 22
M  V30 23 1 11 23
M  V30 24 1 14 24
M  V30 25 1 14 25
M  V30 END BOND
M  V30 END CTAB
M  END
