
     RDKit          3D

  0  0  0  0  0  0  0  0  0  0999 V3000
M  V30 BEGIN CTAB
M  V30 COUNTS 60 60 0 0 0
M  V30 BEGIN ATOM
M  V30 1 C -5.08193 -1.086 -1.7847 0
M  V30 2 C -4.83358 -0.464816 -0.419113 0
M  V30 3 C -3.37694 -0.261455 -0.26559 0
M  V30 4 C -2.73601 0.851755 -0.824051 0
M  V30 5 C -3.68163 1.82443 -1.43794 0
M  V30 6 N -3.22296 2.96501 -2.09315 0
M  V30 7 C -1.38614 0.996109 -0.752178 0
M  V30 8 C -0.697754 2.2018 -1.27698 0
M  V30 9 C -0.80273 3.36576 -0.315342 0
M  V30 10 C -0.592269 -0.0255409 -0.0868179 0
M  V30 11 C 0.804961 0.266121 -0.147519 0
M  V30 12 N 1.90243 -0.406821 0.371268 0
M  V30 13 C 3.23014 0.178708 0.0707045 0
M  V30 14 O 3.30461 1.2243 -0.618683 0
M  V30 15 O 4.33821 -0.446835 0.560058 0
M  V30 16 C 5.64057 0.0276401 0.32326 0
M  V30 17 C 5.86097 1.44218 0.821593 0
M  V30 18 C 5.97044 -0.105613 -1.13159 0
M  V30 19 C 6.57928 -0.93174 1.09545 0
M  V30 20 C -1.2704 -1.0996 0.446936 0
M  V30 21 C -0.524424 -2.19232 1.13978 0
M  V30 22 C -0.278013 -1.95158 2.59067 0
M  V30 23 C -2.6449 -1.24431 0.379072 0
M  V30 24 C -3.46526 -2.29486 0.982795 0
M  V30 25 N -2.95164 -3.36592 1.69828 0
M  V30 26 H -5.87911 -0.504746 -2.32898 0
M  V30 27 H -5.37541 -2.15106 -1.73992 0
M  V30 28 H -4.17443 -1.01835 -2.41393 0
M  V30 29 H -5.3269 -1.00903 0.382218 0
M  V30 30 H -5.32613 0.547969 -0.454914 0
M  V30 31 H -4.42763 1.33448 -2.09958 0
M  V30 32 H -4.3415 2.16244 -0.54261 0
M  V30 33 H -3.23745 2.92167 -3.14822 0
M  V30 34 H -3.62676 3.87495 -1.84209 0
M  V30 35 H -1.0222 2.47067 -2.33038 0
M  V30 36 H 0.375621 2.04845 -1.42739 0
M  V30 37 H 0.154981 3.53736 0.259202 0
M  V30 38 H -0.943967 4.35205 -0.838899 0
M  V30 39 H -1.60576 3.27533 0.426733 0
M  V30 40 H 0.92659 1.3879 0.180722 0
M  V30 41 H 1.02822 0.423442 -1.31013 0
M  V30 42 H 1.98549 -1.23095 0.933143 0
M  V30 43 H 6.96326 1.56986 0.930685 0
M  V30 44 H 5.41497 1.61509 1.80775 0
M  V30 45 H 5.52859 2.19551 0.074906 0
M  V30 46 H 5.17552 0.246911 -1.78741 0
M  V30 47 H 6.9106 0.503488 -1.28608 0
M  V30 48 H 6.26502 -1.16384 -1.33633 0
M  V30 49 H 6.38515 -1.96592 0.812595 0
M  V30 50 H 7.63122 -0.640584 0.913971 0
M  V30 51 H 6.40135 -0.803617 2.19483 0
M  V30 52 H -1.0115 -3.20245 0.964957 0
M  V30 53 H 0.458339 -2.40904 0.631255 0
M  V30 54 H 0.70556 -1.5448 2.86778 0
M  V30 55 H -1.09673 -1.32465 3.02436 0
M  V30 56 H -0.309175 -2.94935 3.13679 0
M  V30 57 H -4.16219 -1.74173 1.71849 0
M  V30 58 H -4.24848 -2.6664 0.229546 0
M  V30 59 H -3.15634 -4.3258 1.35197 0
M  V30 60 H -3.12385 -3.28164 2.71872 0
M  V30 END ATOM
M  V30 BEGIN BOND
M  V30 1 1 1 2
M  V30 2 1 2 3
M  V30 3 2 3 4
M  V30 4 1 4 5
M  V30 5 1 5 6
M  V30 6 1 4 7
M  V30 7 1 7 8
M  V30 8 1 8 9
M  V30 9 2 7 10
M  V30 10 1 10 11
M  V30 11 1 11 12
M  V30 12 1 12 13
M  V30 13 2 13 14
M  V30 14 1 13 15
M  V30 15 1 15 16
M  V30 16 1 16 17
M  V30 17 1 16 18
M  V30 18 1 16 19
M  V30 19 1 10 20
M  V30 20 1 20 21
M  V30 21 1 21 22
M  V30 22 2 20 23
M  V30 23 1 23 24
M  V30 24 1 24 25
M  V30 25 1 23 3
M  V30 26 1 1 26
M  V30 27 1 1 27
M  V30 28 1 1 28
M  V30 29 1 2 29
M  V30 30 1 2 30
M  V30 31 1 5 31
M  V30 32 1 5 32
M  V30 33 1 6 33
M  V30 34 1 6 34
M  V30 35 1 8 35
M  V30 36 1 8 36
M  V30 37 1 9 37
M  V30 38 1 9 38
M  V30 39 1 9 39
M  V30 40 1 11 40
M  V30 41 1 11 41
M  V30 42 1 12 42
M  V30 43 1 17 43
M  V30 44 1 17 44
M  V30 45 1 17 45
M  V30 46 1 18 46
M  V30 47 1 18 47
M  V30 48 1 18 48
M  V30 49 1 19 49
M  V30 50 1 19 50
M  V30 51 1 19 51
M  V30 52 1 21 52
M  V30 53 1 21 53
M  V30 54 1 22 54
M  V30 55 1 22 55
M  V30 56 1 22 56
M  V30 57 1 24 57
M  V30 58 1 24 58
M  V30 59 1 25 59
M  V30 60 1 25 60
M  V30 END BOND
M  V30 END CTAB
M  END
