
     RDKit          3D

  0  0  0  0  0  0  0  0  0  0999 V3000
M  V30 BEGIN CTAB
M  V30 COUNTS 31 32 0 0 0
M  V30 BEGIN ATOM
M  V30 1 N -3.21623 1.41917 1.39188 0
M  V30 2 C -2.73166 0.159557 0.803245 0
M  V30 3 C -2.95594 0.258978 -0.671563 0
M  V30 4 C -2.37899 -0.935839 -1.36685 0
M  V30 5 C -0.944542 -1.19293 -1.07057 0
M  V30 6 C -0.530968 -0.963173 0.342908 0
M  V30 7 C -1.26994 0.0972234 1.06282 0
M  V30 8 C 0.921266 -0.583109 0.326984 0
M  V30 9 N 1.46806 0.498435 -0.264357 0
M  V30 10 N 2.77492 0.530337 -0.0852788 0
M  V30 11 C 3.08659 -0.545371 0.633126 0
M  V30 12 N 1.96089 -1.2303 0.888943 0
M  V30 13 N 4.39975 -0.885295 1.045 0
M  V30 14 C 3.6517 1.5712 -0.601078 0
M  V30 15 H -4.1603 1.67072 1.01429 0
M  V30 16 H -2.55261 2.15337 0.999223 0
M  V30 17 H -3.31189 -0.650433 1.2882 0
M  V30 18 H -4.05697 0.247395 -0.847045 0
M  V30 19 H -2.52508 1.21665 -1.02531 0
M  V30 20 H -3.01471 -1.81771 -1.12196 0
M  V30 21 H -2.49397 -0.774259 -2.46032 0
M  V30 22 H -0.303116 -0.608935 -1.76671 0
M  V30 23 H -0.739021 -2.26775 -1.31103 0
M  V30 24 H -0.596638 -1.90733 0.920983 0
M  V30 25 H -1.10489 -0.0467185 2.16178 0
M  V30 26 H -0.824369 1.08613 0.785985 0
M  V30 27 H 4.52309 -1.22345 2.01683 0
M  V30 28 H 5.20716 -0.803509 0.412099 0
M  V30 29 H 4.39727 1.11233 -1.27862 0
M  V30 30 H 4.24511 2.03724 0.235615 0
M  V30 31 H 3.07604 2.37738 -1.05445 0
M  V30 END ATOM
M  V30 BEGIN BOND
M  V30 1 1 1 2
M  V30 2 1 2 3
M  V30 3 1 3 4
M  V30 4 1 4 5
M  V30 5 1 5 6
M  V30 6 1 6 7
M  V30 7 1 6 8
M  V30 8 2 8 9
M  V30 9 1 9 10
M  V30 10 1 10 11
M  V30 11 2 11 12
M  V30 12 1 11 13
M  V30 13 1 10 14
M  V30 14 1 7 2
M  V30 15 1 12 8
M  V30 16 1 1 15
M  V30 17 1 1 16
M  V30 18 1 2 17
M  V30 19 1 3 18
M  V30 20 1 3 19
M  V30 21 1 4 20
M  V30 22 1 4 21
M  V30 23 1 5 22
M  V30 24 1 5 23
M  V30 25 1 6 24
M  V30 26 1 7 25
M  V30 27 1 7 26
M  V30 28 1 13 27
M  V30 29 1 13 28
M  V30 30 1 14 29
M  V30 31 1 14 30
M  V30 32 1 14 31
M  V30 END BOND
M  V30 END CTAB
M  END
