
     RDKit          3D

  0  0  0  0  0  0  0  0  0  0999 V3000
M  V30 BEGIN CTAB
M  V30 COUNTS 24 24 0 0 0
M  V30 BEGIN ATOM
M  V30 1 Br 5.17656 -0.233119 -0.117345 0
M  V30 2 C 3.35522 -0.779249 0.209807 0
M  V30 3 C 2.44401 0.300413 -0.24095 0
M  V30 4 O 2.94268 1.34074 -0.735233 0
M  V30 5 C 0.995224 0.198134 -0.131397 0
M  V30 6 C 0.369944 -0.910153 0.399285 0
M  V30 7 C -1.02058 -0.962202 0.483517 0
M  V30 8 N -1.66443 -2.0994 1.02813 0
M  V30 9 C -1.80596 0.0810262 0.043851 0
M  V30 10 C -1.16308 1.18119 -0.483914 0
M  V30 11 C 0.221311 1.2429 -0.572262 0
M  V30 12 N 0.848442 2.39191 -1.12151 0
M  V30 13 C -3.28635 0.035418 0.129111 0
M  V30 14 F -3.75635 -1.05582 -0.61536 0
M  V30 15 F -3.86828 1.14984 -0.440457 0
M  V30 16 F -3.73789 -0.0632211 1.42574 0
M  V30 17 H 3.25284 -0.960382 1.28664 0
M  V30 18 H 3.19198 -1.72429 -0.380788 0
M  V30 19 H 0.980478 -1.73441 0.747099 0
M  V30 20 H -1.64309 -3.04448 0.59827 0
M  V30 21 H -2.19784 -1.99384 1.91834 0
M  V30 22 H -1.78898 2.01202 -0.834049 0
M  V30 23 H 0.973958 2.51564 -2.1598 0
M  V30 24 H 1.1802 3.11133 -0.436724 0
M  V30 END ATOM
M  V30 BEGIN BOND
M  V30 1 1 1 2
M  V30 2 1 2 3
M  V30 3 2 3 4
M  V30 4 1 3 5
M  V30 5 2 5 6
M  V30 6 1 6 7
M  V30 7 1 7 8
M  V30 8 2 7 9
M  V30 9 1 9 10
M  V30 10 2 10 11
M  V30 11 1 11 12
M  V30 12 1 9 13
M  V30 13 1 13 14
M  V30 14 1 13 15
M  V30 15 1 13 16
M  V30 16 1 11 5
M  V30 17 1 2 17
M  V30 18 1 2 18
M  V30 19 1 6 19
M  V30 20 1 8 20
M  V30 21 1 8 21
M  V30 22 1 10 22
M  V30 23 1 12 23
M  V30 24 1 12 24
M  V30 END BOND
M  V30 END CTAB
M  END
