
     RDKit          3D

  0  0  0  0  0  0  0  0  0  0999 V3000
M  V30 BEGIN CTAB
M  V30 COUNTS 22 23 0 0 0
M  V30 BEGIN ATOM
M  V30 1 I 5.5604 0.166544 -1.40953 0
M  V30 2 C 3.47394 0.262762 -1.06529 0
M  V30 3 C 2.7074 1.26821 -1.56907 0
M  V30 4 C 1.35438 1.29659 -1.32369 0
M  V30 5 C 0.694698 0.330816 -0.567601 0
M  V30 6 C 1.47478 -0.671034 -0.0688105 0
M  V30 7 C 2.85441 -0.707924 -0.313846 0
M  V30 8 C -0.742296 0.465168 -0.374594 0
M  V30 9 N -1.51573 1.47659 -0.880758 0
M  V30 10 N -2.76091 1.3285 -0.54161 0
M  V30 11 C -2.87713 0.233122 0.192675 0
M  V30 12 N -1.62723 -0.290023 0.288667 0
M  V30 13 N -1.35836 -1.45686 0.994198 0
M  V30 14 N -4.08282 -0.253579 0.744132 0
M  V30 15 H 3.19809 2.03467 -2.16272 0
M  V30 16 H 0.783801 2.09922 -1.73391 0
M  V30 17 H 1.05307 -1.44832 0.518393 0
M  V30 18 H 3.45697 -1.51087 0.0903456 0
M  V30 19 H -1.35744 -1.38371 2.05102 0
M  V30 20 H -1.16701 -2.36039 0.497052 0
M  V30 21 H -4.88839 -0.397176 0.0982986 0
M  V30 22 H -4.23462 -0.482308 1.74887 0
M  V30 END ATOM
M  V30 BEGIN BOND
M  V30 1 1 1 2
M  V30 2 2 2 3
M  V30 3 1 3 4
M  V30 4 2 4 5
M  V30 5 1 5 6
M  V30 6 2 6 7
M  V30 7 1 5 8
M  V30 8 2 8 9
M  V30 9 1 9 10
M  V30 10 2 10 11
M  V30 11 1 11 12
M  V30 12 1 12 13
M  V30 13 1 11 14
M  V30 14 1 7 2
M  V30 15 1 12 8
M  V30 16 1 3 15
M  V30 17 1 4 16
M  V30 18 1 6 17
M  V30 19 1 7 18
M  V30 20 1 13 19
M  V30 21 1 13 20
M  V30 22 1 14 21
M  V30 23 1 14 22
M  V30 END BOND
M  V30 END CTAB
M  END
