
     RDKit          3D

  0  0  0  0  0  0  0  0  0  0999 V3000
M  V30 BEGIN CTAB
M  V30 COUNTS 41 43 0 0 0
M  V30 BEGIN ATOM
M  V30 1 N -3.58815 3.43433 0.0572023 0
M  V30 2 C -2.75773 2.36607 -0.472565 0
M  V30 3 C -2.38166 1.40177 0.665079 0
M  V30 4 N -1.56844 0.338359 0.21966 0
M  V30 5 C -0.198671 0.691638 -0.208799 0
M  V30 6 C 0.746657 -0.43633 0.160419 0 CFG=1
M  V30 7 C 0.369603 -1.67301 -0.607091 0
M  V30 8 C -1.02357 -2.01977 -0.248567 0
M  V30 9 C -1.88583 -1.03128 0.12994 0
M  V30 10 C -3.17741 -1.41294 0.448066 0
M  V30 11 C -3.60911 -2.73131 0.396183 0
M  V30 12 C -2.73979 -3.73766 0.013527 0
M  V30 13 C -1.45816 -3.34958 -0.301236 0
M  V30 14 C 2.11395 -0.0102954 -0.163518 0
M  V30 15 C 2.55814 0.110194 -1.44406 0
M  V30 16 C 3.85797 0.518247 -1.71826 0
M  V30 17 C 4.68818 0.798458 -0.674836 0
M  V30 18 C 4.23764 0.676669 0.629404 0
M  V30 19 C 2.96353 0.276055 0.890405 0
M  V30 20 N 5.10729 0.976531 1.69673 0
M  V30 21 H -4.02012 3.11595 0.947399 0
M  V30 22 H -3.08619 4.33425 0.120335 0
M  V30 23 H -1.87644 2.77862 -0.972771 0
M  V30 24 H -3.38068 1.84357 -1.22756 0
M  V30 25 H -1.72044 2.04666 1.32673 0
M  V30 26 H -3.26406 1.23885 1.24015 0
M  V30 27 H -0.149056 0.889693 -1.28187 0
M  V30 28 H 0.157881 1.59264 0.327154 0
M  V30 29 H 0.615898 -0.66365 1.24903 0
M  V30 30 H 1.0747 -2.50749 -0.426481 0
M  V30 31 H 0.343571 -1.4188 -1.7047 0
M  V30 32 H -3.85208 -0.612689 0.746286 0
M  V30 33 H -4.63495 -2.95607 0.659602 0
M  V30 34 H -3.04438 -4.77336 -0.0378068 0
M  V30 35 H -0.762562 -4.12647 -0.604361 0
M  V30 36 H 1.9337 -0.101698 -2.2839 0
M  V30 37 H 4.22976 0.617454 -2.7364 0
M  V30 38 H 5.7121 1.11852 -0.91155 0
M  V30 39 H 2.61075 0.179838 1.89683 0
M  V30 40 H 5.08559 1.93615 2.11236 0
M  V30 41 H 5.7726 0.281903 2.09385 0
M  V30 END ATOM
M  V30 BEGIN BOND
M  V30 1 1 1 2
M  V30 2 1 2 3
M  V30 3 1 3 4
M  V30 4 1 4 5
M  V30 5 1 5 6
M  V30 6 1 6 7
M  V30 7 1 7 8
M  V30 8 2 8 9
M  V30 9 1 9 10
M  V30 10 2 10 11
M  V30 11 1 11 12
M  V30 12 2 12 13
M  V30 13 1 6 14
M  V30 14 2 14 15
M  V30 15 1 15 16
M  V30 16 2 16 17
M  V30 17 1 17 18
M  V30 18 2 18 19
M  V30 19 1 18 20
M  V30 20 1 9 4
M  V30 21 1 19 14
M  V30 22 1 13 8
M  V30 23 1 1 21
M  V30 24 1 1 22
M  V30 25 1 2 23
M  V30 26 1 2 24
M  V30 27 1 3 25
M  V30 28 1 3 26
M  V30 29 1 5 27
M  V30 30 1 5 28
M  V30 31 1 6 29 CFG=1
M  V30 32 1 7 30
M  V30 33 1 7 31
M  V30 34 1 10 32
M  V30 35 1 11 33
M  V30 36 1 12 34
M  V30 37 1 13 35
M  V30 38 1 15 36
M  V30 39 1 16 37
M  V30 40 1 17 38
M  V30 41 1 19 39
M  V30 42 1 20 40
M  V30 43 1 20 41
M  V30 END BOND
M  V30 END CTAB
M  END
