
     RDKit          3D

  0  0  0  0  0  0  0  0  0  0999 V3000
M  V30 BEGIN CTAB
M  V30 COUNTS 105 105 0 0 0
M  V30 BEGIN ATOM
M  V30 1 C 5.41566 -4.04267 -0.0614964 0
M  V30 2 C 4.52311 -2.86848 0.373324 0
M  V30 3 C 3.16133 -3.45798 0.584347 0
M  V30 4 C 4.60322 -1.78613 -0.629715 0
M  V30 5 C 3.84115 -0.543628 -0.392657 0 CFG=2
M  V30 6 N 2.39163 -0.690286 -0.317806 0
M  V30 7 C 1.6538 -1.08247 -1.44516 0
M  V30 8 O 2.2747 -1.3161 -2.55229 0
M  V30 9 C 0.209248 -1.25619 -1.47623 0
M  V30 10 N -0.454439 -0.949312 -0.244275 0
M  V30 11 C -1.87115 -1.12676 -0.1984 0
M  V30 12 O -2.43717 -1.55616 -1.24443 0
M  V30 13 C -2.70123 -0.833497 0.993527 0 CFG=2
M  V30 14 C -2.24968 -1.48618 2.22372 0
M  V30 15 C -2.20442 -2.96783 2.23983 0
M  V30 16 C -1.08034 -3.68892 1.9351 0
M  V30 17 C -1.10019 -5.06723 1.95671 0
M  V30 18 C -2.22378 -5.79875 2.27897 0
M  V30 19 O -2.20929 -7.19692 2.29161 0
M  V30 20 C -3.34898 -5.05649 2.58439 0
M  V30 21 C -3.34992 -3.68026 2.56839 0
M  V30 22 N -4.10236 -1.09725 0.667037 0
M  V30 23 C -4.95669 -0.0449895 0.327799 0
M  V30 24 O -4.38691 1.12518 0.345052 0
M  V30 25 C -6.37308 -0.0734958 -0.0334346 0 CFG=1
M  V30 26 N -6.8913 1.30059 -0.214587 0
M  V30 27 C -7.80355 1.90717 0.670319 0
M  V30 28 O -8.19575 1.25809 1.67345 0
M  V30 29 C -8.3052 3.26658 0.452024 0 CFG=1
M  V30 30 N -9.14654 3.74915 1.50782 0
M  V30 31 C -7.24814 4.27787 0.072869 0
M  V30 32 C -7.9288 5.61048 -0.124109 0
M  V30 33 C -6.16652 4.41565 1.09253 0
M  V30 34 C -6.68506 -0.856068 -1.26528 0
M  V30 35 C -8.18854 -0.78802 -1.58297 0
M  V30 36 C -6.26017 -2.29384 -1.1891 0
M  V30 37 C 4.19969 0.611595 -1.23299 0
M  V30 38 O 3.34401 1.30932 -1.77514 0
M  V30 39 N 5.58647 0.947026 -1.43203 0
M  V30 40 C 5.9775 2.06589 -2.22724 0 CFG=1
M  V30 41 C 6.8817 3.07187 -1.66927 0
M  V30 42 C 8.26674 2.74714 -1.27907 0
M  V30 43 C 8.51689 1.68456 -0.256829 0
M  V30 44 N 9.977 1.69179 -0.0201033 0
M  V30 45 C 10.5318 2.80622 0.624416 0
M  V30 46 N 11.7688 3.38118 0.232824 0
M  V30 47 N 9.9326 3.38374 1.63204 0
M  V30 48 C 6.53129 1.63642 -3.55179 0
M  V30 49 O 7.01091 2.46496 -4.51852 0
M  V30 50 O 6.54456 0.38424 -3.76899 0
M  V30 51 H 6.39844 -3.68644 -0.391317 0
M  V30 52 H 4.94858 -4.59669 -0.890896 0
M  V30 53 H 5.51573 -4.69215 0.821735 0
M  V30 54 H 4.92518 -2.48473 1.351 0
M  V30 55 H 2.51863 -2.74282 1.09882 0
M  V30 56 H 2.73028 -3.72779 -0.397048 0
M  V30 57 H 3.25464 -4.41618 1.20847 0
M  V30 58 H 4.37743 -2.24817 -1.6364 0
M  V30 59 H 5.69383 -1.49325 -0.73347 0
M  V30 60 H 4.14906 -0.197605 0.664747 0
M  V30 61 H 1.92681 -0.497046 0.577057 0
M  V30 62 H -0.024244 -2.3141 -1.81332 0
M  V30 63 H -0.268766 -0.643856 -2.29978 0
M  V30 64 H 0.00471324 -0.604352 0.629138 0
M  V30 65 H -2.56455 0.290208 1.13696 0
M  V30 66 H -1.20719 -1.1542 2.48803 0
M  V30 67 H -2.85718 -1.19202 3.11144 0
M  V30 68 H -0.14175 -3.16909 1.68017 0
M  V30 69 H -0.192813 -5.64479 1.70985 0
M  V30 70 H -2.44603 -7.70197 1.42568 0
M  V30 71 H -4.25824 -5.5988 2.8445 0
M  V30 72 H -4.26468 -3.11717 2.82418 0
M  V30 73 H -4.41605 -2.06162 0.713623 0
M  V30 74 H -6.91125 -0.531476 0.825501 0
M  V30 75 H -6.55389 1.83062 -1.04621 0
M  V30 76 H -8.97357 3.20138 -0.460668 0
M  V30 77 H -9.177 3.12983 2.32801 0
M  V30 78 H -8.94273 4.73601 1.78129 0
M  V30 79 H -6.78243 3.9508 -0.886961 0
M  V30 80 H -7.62994 6.29449 0.68503 0
M  V30 81 H -9.04433 5.52083 -0.0936126 0
M  V30 82 H -7.56836 6.05044 -1.07937 0
M  V30 83 H -6.38835 3.94069 2.07101 0
M  V30 84 H -6.00561 5.50076 1.29192 0
M  V30 85 H -5.1676 4.05361 0.71675 0
M  V30 86 H -6.15981 -0.384306 -2.12042 0
M  V30 87 H -8.40558 0.0290449 -2.27148 0
M  V30 88 H -8.44021 -1.75602 -2.0861 0
M  V30 89 H -8.75309 -0.764958 -0.634897 0
M  V30 90 H -5.19236 -2.37897 -1.42442 0
M  V30 91 H -6.44438 -2.67489 -0.171943 0
M  V30 92 H -6.87418 -2.90524 -1.92506 0
M  V30 93 H 6.25426 0.346859 -0.97804 0
M  V30 94 H 5.01213 2.59673 -2.5155 0
M  V30 95 H 6.36739 3.68731 -0.839631 0
M  V30 96 H 6.97691 3.88872 -2.47502 0
M  V30 97 H 8.86124 3.68258 -1.02419 0
M  V30 98 H 8.80043 2.38835 -2.21168 0
M  V30 99 H 7.96769 1.81063 0.68484 0
M  V30 100 H 8.33265 0.692689 -0.742898 0
M  V30 101 H 10.5418 0.901527 -0.32419 0
M  V30 102 H 11.9198 3.83232 -0.690112 0
M  V30 103 H 12.581 3.34975 0.912888 0
M  V30 104 H 9.01625 2.99599 1.95783 0
M  V30 105 H 7.70679 3.18775 -4.3876 0
M  V30 END ATOM
M  V30 BEGIN BOND
M  V30 1 1 1 2
M  V30 2 1 2 3
M  V30 3 1 2 4
M  V30 4 1 4 5
M  V30 5 1 5 6
M  V30 6 1 6 7
M  V30 7 2 7 8
M  V30 8 1 7 9
M  V30 9 1 9 10
M  V30 10 1 10 11
M  V30 11 2 11 12
M  V30 12 1 11 13
M  V30 13 1 13 14
M  V30 14 1 14 15
M  V30 15 2 15 16
M  V30 16 1 16 17
M  V30 17 2 17 18
M  V30 18 1 18 19
M  V30 19 1 18 20
M  V30 20 2 20 21
M  V30 21 1 13 22
M  V30 22 1 22 23
M  V30 23 2 23 24
M  V30 24 1 23 25
M  V30 25 1 25 26
M  V30 26 1 26 27
M  V30 27 2 27 28
M  V30 28 1 27 29
M  V30 29 1 29 30
M  V30 30 1 29 31
M  V30 31 1 31 32
M  V30 32 1 31 33
M  V30 33 1 25 34
M  V30 34 1 34 35
M  V30 35 1 34 36
M  V30 36 1 5 37
M  V30 37 2 37 38
M  V30 38 1 37 39
M  V30 39 1 39 40
M  V30 40 1 40 41
M  V30 41 1 41 42
M  V30 42 1 42 43
M  V30 43 1 43 44
M  V30 44 1 44 45
M  V30 45 1 45 46
M  V30 46 2 45 47 CFG=2
M  V30 47 1 40 48
M  V30 48 1 48 49
M  V30 49 2 48 50
M  V30 50 1 21 15
M  V30 51 1 1 51
M  V30 52 1 1 52
M  V30 53 1 1 53
M  V30 54 1 2 54
M  V30 55 1 3 55
M  V30 56 1 3 56
M  V30 57 1 3 57
M  V30 58 1 4 58
M  V30 59 1 4 59
M  V30 60 1 5 60 CFG=1
M  V30 61 1 6 61
M  V30 62 1 9 62
M  V30 63 1 9 63
M  V30 64 1 10 64
M  V30 65 1 13 65 CFG=1
M  V30 66 1 14 66
M  V30 67 1 14 67
M  V30 68 1 16 68
M  V30 69 1 17 69
M  V30 70 1 19 70
M  V30 71 1 20 71
M  V30 72 1 21 72
M  V30 73 1 22 73
M  V30 74 1 25 74 CFG=1
M  V30 75 1 26 75
M  V30 76 1 29 76 CFG=3
M  V30 77 1 30 77
M  V30 78 1 30 78
M  V30 79 1 31 79
M  V30 80 1 32 80
M  V30 81 1 32 81
M  V30 82 1 32 82
M  V30 83 1 33 83
M  V30 84 1 33 84
M  V30 85 1 33 85
M  V30 86 1 34 86
M  V30 87 1 35 87
M  V30 88 1 35 88
M  V30 89 1 35 89
M  V30 90 1 36 90
M  V30 91 1 36 91
M  V30 92 1 36 92
M  V30 93 1 39 93
M  V30 94 1 40 94 CFG=3
M  V30 95 1 41 95
M  V30 96 1 41 96
M  V30 97 1 42 97
M  V30 98 1 42 98
M  V30 99 1 43 99
M  V30 100 1 43 100
M  V30 101 1 44 101
M  V30 102 1 46 102
M  V30 103 1 46 103
M  V30 104 1 47 104
M  V30 105 1 49 105
M  V30 END BOND
M  V30 END CTAB
M  END
