
     RDKit          3D

  0  0  0  0  0  0  0  0  0  0999 V3000
M  V30 BEGIN CTAB
M  V30 COUNTS 19 19 0 0 0
M  V30 BEGIN ATOM
M  V30 1 N -2.44698 -2.11113 -0.181871 0
M  V30 2 N -2.27056 -0.728744 -0.319582 0
M  V30 3 C -0.962534 -0.202485 -0.168628 0
M  V30 4 C -0.758197 1.15425 -0.298703 0
M  V30 5 C 0.501446 1.6878 -0.156554 0
M  V30 6 N 0.742865 3.07673 -0.284406 0
M  V30 7 N 1.51533 0.839246 0.111938 0
M  V30 8 C 1.32175 -0.485934 0.239976 0
M  V30 9 N 0.0861972 -0.998171 0.0992071 0
M  V30 10 C 2.46865 -1.38243 0.536052 0
M  V30 11 H -2.1111 -2.39694 0.765009 0
M  V30 12 H -3.39042 -2.43787 -0.421098 0
M  V30 13 H -3.07395 -0.0929574 -0.527894 0
M  V30 14 H -1.55082 1.85624 -0.513252 0
M  V30 15 H 1.42707 3.39681 -0.987457 0
M  V30 16 H 0.242135 3.74595 0.315233 0
M  V30 17 H 3.07003 -1.03654 1.4016 0
M  V30 18 H 2.08886 -2.4031 0.764634 0
M  V30 19 H 3.10022 -1.48071 -0.374205 0
M  V30 END ATOM
M  V30 BEGIN BOND
M  V30 1 1 1 2
M  V30 2 1 2 3
M  V30 3 2 3 4
M  V30 4 1 4 5
M  V30 5 1 5 6
M  V30 6 2 5 7
M  V30 7 1 7 8
M  V30 8 2 8 9
M  V30 9 1 8 10
M  V30 10 1 9 3
M  V30 11 1 1 11
M  V30 12 1 1 12
M  V30 13 1 2 13
M  V30 14 1 4 14
M  V30 15 1 6 15
M  V30 16 1 6 16
M  V30 17 1 10 17
M  V30 18 1 10 18
M  V30 19 1 10 19
M  V30 END BOND
M  V30 END CTAB
M  END
