
     RDKit          3D

  0  0  0  0  0  0  0  0  0  0999 V3000
M  V30 BEGIN CTAB
M  V30 COUNTS 27 27 0 0 0
M  V30 BEGIN ATOM
M  V30 1 C 0.596617 -2.62597 -1.07188 0
M  V30 2 C -0.112915 -1.40135 -0.634092 0
M  V30 3 C -1.4637 -1.27223 -0.931099 0
M  V30 4 C -2.14052 -0.129323 -0.526423 0
M  V30 5 N -3.5052 0.0891008 -0.781251 0
M  V30 6 C -1.44874 0.844988 0.159722 0
M  V30 7 C -0.0865659 0.698177 0.450652 0
M  V30 8 C 0.584782 -0.431407 0.0514652 0
M  V30 9 N 1.96992 -0.659282 0.302533 0
M  V30 10 S 2.94515 0.336268 1.30476 0
M  V30 11 O 2.22504 0.861419 2.50918 0
M  V30 12 O 4.12079 -0.489758 1.78701 0
M  V30 13 N 3.65491 1.63274 0.370407 0
M  V30 14 C -2.1392 2.06926 0.60251 0
M  V30 15 H 1.40003 -2.42956 -1.78258 0
M  V30 16 H 1.0619 -3.15736 -0.192669 0
M  V30 17 H -0.110553 -3.35886 -1.50672 0
M  V30 18 H -1.99153 -2.04707 -1.47083 0
M  V30 19 H -3.94163 1.00579 -1.01999 0
M  V30 20 H -4.15207 -0.727982 -0.731108 0
M  V30 21 H 0.419872 1.47143 0.981279 0
M  V30 22 H 2.46429 -1.47988 -0.140401 0
M  V30 23 H 3.48837 1.48496 -0.642278 0
M  V30 24 H 3.1974 2.51331 0.691146 0
M  V30 25 H -2.17564 2.84938 -0.201821 0
M  V30 26 H -3.20396 1.87579 0.895018 0
M  V30 27 H -1.65683 2.47743 1.52744 0
M  V30 END ATOM
M  V30 BEGIN BOND
M  V30 1 1 1 2
M  V30 2 2 2 3
M  V30 3 1 3 4
M  V30 4 1 4 5
M  V30 5 2 4 6
M  V30 6 1 6 7
M  V30 7 2 7 8
M  V30 8 1 8 9
M  V30 9 1 9 10
M  V30 10 2 10 11
M  V30 11 2 10 12
M  V30 12 1 10 13
M  V30 13 1 6 14
M  V30 14 1 8 2
M  V30 15 1 1 15
M  V30 16 1 1 16
M  V30 17 1 1 17
M  V30 18 1 3 18
M  V30 19 1 5 19
M  V30 20 1 5 20
M  V30 21 1 7 21
M  V30 22 1 9 22
M  V30 23 1 13 23
M  V30 24 1 13 24
M  V30 25 1 14 25
M  V30 26 1 14 26
M  V30 27 1 14 27
M  V30 END BOND
M  V30 END CTAB
M  END
