
     RDKit          3D

  0  0  0  0  0  0  0  0  0  0999 V3000
M  V30 BEGIN CTAB
M  V30 COUNTS 24 25 0 0 0
M  V30 BEGIN ATOM
M  V30 1 C -4.21703 -0.146579 -0.0690956 0
M  V30 2 O -3.02526 -0.889749 0.0568086 0
M  V30 3 C -1.78868 -0.258618 0.0533693 0
M  V30 4 C -0.644151 -1.02041 0.17883 0
M  V30 5 C 0.594295 -0.416338 0.17808 0
M  V30 6 C 1.72028 -1.21197 0.305931 0
M  V30 7 N 1.64934 -2.61854 0.437062 0
M  V30 8 N 2.90954 -0.546916 0.297098 0
M  V30 9 C 2.96169 0.790744 0.171659 0
M  V30 10 N 4.254 1.39901 0.173001 0
M  V30 11 N 1.84885 1.55382 0.0475235 0
M  V30 12 C 0.644003 0.952537 0.0495448 0
M  V30 13 C -0.480097 1.74713 -0.0781163 0
M  V30 14 C -1.71132 1.12897 -0.0756854 0
M  V30 15 H -4.225 0.757211 0.553649 0
M  V30 16 H -4.42379 0.111645 -1.13478 0
M  V30 17 H -5.07179 -0.79262 0.247327 0
M  V30 18 H -0.762041 -2.09114 0.275738 0
M  V30 19 H 1.01587 -3.18962 -0.157808 0
M  V30 20 H 2.23918 -3.09174 1.13896 0
M  V30 21 H 4.75928 1.5541 1.07223 0
M  V30 22 H 4.72547 1.70196 -0.706645 0
M  V30 23 H -0.379222 2.83375 -0.177339 0
M  V30 24 H -2.59342 1.74336 -0.174992 0
M  V30 END ATOM
M  V30 BEGIN BOND
M  V30 1 1 1 2
M  V30 2 1 2 3
M  V30 3 2 3 4
M  V30 4 1 4 5
M  V30 5 2 5 6
M  V30 6 1 6 7
M  V30 7 1 6 8
M  V30 8 2 8 9
M  V30 9 1 9 10
M  V30 10 1 9 11
M  V30 11 2 11 12
M  V30 12 1 12 13
M  V30 13 2 13 14
M  V30 14 1 14 3
M  V30 15 1 12 5
M  V30 16 1 1 15
M  V30 17 1 1 16
M  V30 18 1 1 17
M  V30 19 1 4 18
M  V30 20 1 7 19
M  V30 21 1 7 20
M  V30 22 1 10 21
M  V30 23 1 10 22
M  V30 24 1 13 23
M  V30 25 1 14 24
M  V30 END BOND
M  V30 END CTAB
M  END
