
     RDKit          3D

  0  0  0  0  0  0  0  0  0  0999 V3000
M  V30 BEGIN CTAB
M  V30 COUNTS 35 37 0 0 0
M  V30 BEGIN ATOM
M  V30 1 N -0.220111 -1.60377 2.63426 0
M  V30 2 C 0.516757 -1.07882 1.54562 0
M  V30 3 N 1.83572 -0.891776 1.4104 0
M  V30 4 N 2.13392 -0.373918 0.233897 0
M  V30 5 C 0.984833 -0.209675 -0.436723 0
M  V30 6 N 0.834165 0.314308 -1.73535 0
M  V30 7 C -0.057623 -0.647851 0.369756 0
M  V30 8 N -1.44507 -0.662448 0.0730269 0
M  V30 9 N -2.25253 -0.0458694 0.854327 0
M  V30 10 C -3.64365 -0.0598464 0.557825 0
M  V30 11 C -4.24261 0.984762 -0.114528 0
M  V30 12 C -5.58467 0.993486 -0.412084 0
M  V30 13 C -6.35424 -0.077877 -0.0246729 0
M  V30 14 C -5.79909 -1.13959 0.646985 0
M  V30 15 C -4.46646 -1.12265 0.929178 0
M  V30 16 C 3.44227 -0.0473368 -0.240094 0
M  V30 17 C 3.86403 -0.577838 -1.43623 0
M  V30 18 C 5.12671 -0.259661 -1.88877 0
M  V30 19 C 5.9583 0.570864 -1.16774 0
M  V30 20 Br 7.70922 1.00162 -1.81241 0
M  V30 21 C 5.54701 1.11524 0.0430799 0
M  V30 22 C 4.29478 0.779433 0.458618 0
M  V30 23 H -0.301001 -1.04962 3.49929 0
M  V30 24 H -0.659219 -2.52281 2.54423 0
M  V30 25 H 0.375723 1.26219 -1.88054 0
M  V30 26 H 1.14204 -0.156688 -2.61275 0
M  V30 27 H -3.66197 1.84312 -0.432768 0
M  V30 28 H -6.0746 1.79806 -0.936176 0
M  V30 29 H -7.42186 -0.133825 -0.228775 0
M  V30 30 H -6.4189 -1.97368 0.944092 0
M  V30 31 H -3.99249 -1.92647 1.44939 0
M  V30 32 H 3.23015 -1.24072 -2.03476 0
M  V30 33 H 5.45087 -0.689493 -2.84436 0
M  V30 34 H 6.17786 1.76709 0.625827 0
M  V30 35 H 3.97174 1.21265 1.41893 0
M  V30 END ATOM
M  V30 BEGIN BOND
M  V30 1 1 1 2
M  V30 2 2 2 3
M  V30 3 1 3 4
M  V30 4 1 4 5
M  V30 5 1 5 6
M  V30 6 2 5 7
M  V30 7 1 7 8
M  V30 8 2 8 9
M  V30 9 1 9 10
M  V30 10 2 10 11
M  V30 11 1 11 12
M  V30 12 2 12 13
M  V30 13 1 13 14
M  V30 14 2 14 15
M  V30 15 1 4 16
M  V30 16 2 16 17
M  V30 17 1 17 18
M  V30 18 2 18 19
M  V30 19 1 19 20
M  V30 20 1 19 21
M  V30 21 2 21 22
M  V30 22 1 7 2
M  V30 23 1 15 10
M  V30 24 1 22 16
M  V30 25 1 1 23
M  V30 26 1 1 24
M  V30 27 1 6 25
M  V30 28 1 6 26
M  V30 29 1 11 27
M  V30 30 1 12 28
M  V30 31 1 13 29
M  V30 32 1 14 30
M  V30 33 1 15 31
M  V30 34 1 17 32
M  V30 35 1 18 33
M  V30 36 1 21 34
M  V30 37 1 22 35
M  V30 END BOND
M  V30 END CTAB
M  END
