
     RDKit          3D

  0  0  0  0  0  0  0  0  0  0999 V3000
M  V30 BEGIN CTAB
M  V30 COUNTS 42 42 0 0 0
M  V30 BEGIN ATOM
M  V30 1 C -6.824 -0.844816 0.00191726 0
M  V30 2 C -5.52488 -0.226467 -0.469181 0
M  V30 3 C -4.53808 -0.0842092 0.676011 0
M  V30 4 C -3.24239 0.54633 0.194601 0
M  V30 5 C -2.55795 -0.251186 -0.8622 0
M  V30 6 C -1.31004 0.450982 -1.31632 0
M  V30 7 C -0.335379 0.6488 -0.184981 0
M  V30 8 C 0.913651 1.35929 -0.6485 0
M  V30 9 C 1.91815 1.62774 0.418449 0
M  V30 10 C 2.40502 0.386318 1.02777 0
M  V30 11 O 1.71452 -0.233209 1.85483 0
M  V30 12 C 3.71164 -0.12888 0.664074 0
M  V30 13 N 4.51027 0.499084 -0.230454 0
M  V30 14 C 5.72036 0.0663004 -0.583763 0
M  V30 15 N 6.48238 0.80493 -1.53461 0
M  V30 16 N 6.14744 -1.06781 0.00194356 0
M  V30 17 C 5.40798 -1.74558 0.899804 0
M  V30 18 N 4.1853 -1.25478 1.21811 0
M  V30 19 N 5.86114 -2.94106 1.52034 0
M  V30 20 H -7.43188 -0.0662574 0.550168 0
M  V30 21 H -7.39367 -1.09779 -0.939834 0
M  V30 22 H -6.68697 -1.70741 0.658237 0
M  V30 23 H -5.14437 -0.877934 -1.27586 0
M  V30 24 H -5.76032 0.787664 -0.853748 0
M  V30 25 H -4.37942 -1.02773 1.22727 0
M  V30 26 H -4.99094 0.634197 1.39873 0
M  V30 27 H -3.41894 1.58545 -0.101646 0
M  V30 28 H -2.55405 0.569755 1.09137 0
M  V30 29 H -3.20689 -0.485902 -1.72988 0
M  V30 30 H -2.23241 -1.25754 -0.468578 0
M  V30 31 H -0.837661 -0.0772325 -2.17831 0
M  V30 32 H -1.5895 1.47426 -1.70851 0
M  V30 33 H -0.751753 1.2413 0.638112 0
M  V30 34 H -0.0525646 -0.35092 0.224827 0
M  V30 35 H 1.32208 0.764236 -1.49347 0
M  V30 36 H 0.629508 2.3459 -1.11416 0
M  V30 37 H 2.80386 2.19658 -0.00126292 0
M  V30 38 H 1.50807 2.2814 1.2313 0
M  V30 39 H 6.81245 1.76438 -1.28209 0
M  V30 40 H 6.68975 0.363706 -2.45846 0
M  V30 41 H 6.15523 -3.71645 0.908071 0
M  V30 42 H 5.86527 -2.95543 2.55993 0
M  V30 END ATOM
M  V30 BEGIN BOND
M  V30 1 1 1 2
M  V30 2 1 2 3
M  V30 3 1 3 4
M  V30 4 1 4 5
M  V30 5 1 5 6
M  V30 6 1 6 7
M  V30 7 1 7 8
M  V30 8 1 8 9
M  V30 9 1 9 10
M  V30 10 2 10 11
M  V30 11 1 10 12
M  V30 12 2 12 13
M  V30 13 1 13 14
M  V30 14 1 14 15
M  V30 15 2 14 16
M  V30 16 1 16 17
M  V30 17 2 17 18
M  V30 18 1 17 19
M  V30 19 1 18 12
M  V30 20 1 1 20
M  V30 21 1 1 21
M  V30 22 1 1 22
M  V30 23 1 2 23
M  V30 24 1 2 24
M  V30 25 1 3 25
M  V30 26 1 3 26
M  V30 27 1 4 27
M  V30 28 1 4 28
M  V30 29 1 5 29
M  V30 30 1 5 30
M  V30 31 1 6 31
M  V30 32 1 6 32
M  V30 33 1 7 33
M  V30 34 1 7 34
M  V30 35 1 8 35
M  V30 36 1 8 36
M  V30 37 1 9 37
M  V30 38 1 9 38
M  V30 39 1 15 39
M  V30 40 1 15 40
M  V30 41 1 19 41
M  V30 42 1 19 42
M  V30 END BOND
M  V30 END CTAB
M  END
