
     RDKit          3D

  0  0  0  0  0  0  0  0  0  0999 V3000
M  V30 BEGIN CTAB
M  V30 COUNTS 27 28 0 0 0
M  V30 BEGIN ATOM
M  V30 1 C 5.07962 1.72278 -0.125339 0
M  V30 2 S 3.32823 2.14879 -0.0750064 0
M  V30 3 C 2.32081 0.659006 -0.0608928 0
M  V30 4 C 0.946963 0.734711 -0.0236714 0
M  V30 5 C 0.151102 -0.386765 -0.0120489 0
M  V30 6 C 0.806976 -1.60403 -0.039893 0
M  V30 7 C 2.18176 -1.70572 -0.0773607 0
M  V30 8 C 2.94921 -0.560537 -0.0880238 0
M  V30 9 C -1.30831 -0.302195 0.0275257 0
M  V30 10 N -2.07578 -1.40023 0.0385678 0
M  V30 11 C -3.43149 -1.33577 0.0752168 0
M  V30 12 N -4.24992 -2.49637 0.0870805 0
M  V30 13 N -3.9968 -0.13 0.100583 0
M  V30 14 C -3.27907 1.00264 0.0911594 0
M  V30 15 N -3.91213 2.28559 0.11899 0
M  V30 16 N -1.93476 0.883302 0.054346 0
M  V30 17 H 5.43884 1.47307 -1.1436 0
M  V30 18 H 5.27274 0.860576 0.571698 0
M  V30 19 H 5.70316 2.56299 0.276376 0
M  V30 20 H 0.463526 1.70088 -0.0025583 0
M  V30 21 H 0.199246 -2.49813 -0.0313397 0
M  V30 22 H 2.67787 -2.67846 -0.0988647 0
M  V30 23 H 4.04777 -0.62296 -0.117797 0
M  V30 24 H -4.75897 -2.76455 -0.762101 0
M  V30 25 H -4.32804 -3.06442 0.951505 0
M  V30 26 H -3.94491 2.89404 -0.726589 0
M  V30 27 H -4.34763 2.62176 0.992038 0
M  V30 END ATOM
M  V30 BEGIN BOND
M  V30 1 1 1 2
M  V30 2 1 2 3
M  V30 3 2 3 4
M  V30 4 1 4 5
M  V30 5 2 5 6
M  V30 6 1 6 7
M  V30 7 2 7 8
M  V30 8 1 5 9
M  V30 9 2 9 10
M  V30 10 1 10 11
M  V30 11 1 11 12
M  V30 12 2 11 13
M  V30 13 1 13 14
M  V30 14 1 14 15
M  V30 15 2 14 16
M  V30 16 1 8 3
M  V30 17 1 16 9
M  V30 18 1 1 17
M  V30 19 1 1 18
M  V30 20 1 1 19
M  V30 21 1 4 20
M  V30 22 1 6 21
M  V30 23 1 7 22
M  V30 24 1 8 23
M  V30 25 1 12 24
M  V30 26 1 12 25
M  V30 27 1 15 26
M  V30 28 1 15 27
M  V30 END BOND
M  V30 END CTAB
M  END
