
     RDKit          3D

  0  0  0  0  0  0  0  0  0  0999 V3000
M  V30 BEGIN CTAB
M  V30 COUNTS 39 41 0 0 0
M  V30 BEGIN ATOM
M  V30 1 C -5.77155 -1.85277 -1.18197 0
M  V30 2 O -4.59361 -1.44294 -0.529725 0
M  V30 3 C -4.12132 -0.129739 -0.54007 0
M  V30 4 C -4.82328 0.848225 -1.21746 0
M  V30 5 C -4.34199 2.15328 -1.22032 0
M  V30 6 C -3.17948 2.48706 -0.560523 0
M  V30 7 C -2.50133 1.46693 0.111745 0
M  V30 8 C -2.96065 0.180734 0.124071 0
M  V30 9 O -2.27788 -0.815119 0.79359 0
M  V30 10 C -1.07868 -0.495574 1.47988 0
M  V30 11 C -0.50299 -1.73965 2.1414 0
M  V30 12 S 1.01508 -1.27681 2.99605 0
M  V30 13 C 2.28739 -0.772575 1.84697 0
M  V30 14 N 3.22861 -1.49616 1.23555 0
M  V30 15 C 3.97772 -0.700762 0.451205 0
M  V30 16 C 3.48174 0.592705 0.575332 0
M  V30 17 N 2.45747 0.487264 1.43455 0
M  V30 18 N 4.07038 1.58231 -0.119822 0
M  V30 19 C 5.12091 1.39944 -0.937515 0
M  V30 20 N 5.59143 0.129406 -1.04594 0
M  V30 21 C 5.05682 -0.903212 -0.385574 0
M  V30 22 N 5.5624 -2.22754 -0.510598 0
M  V30 23 N 5.73362 2.44311 -1.66408 0
M  V30 24 H -5.75532 -2.96783 -1.30419 0
M  V30 25 H -6.63368 -1.58284 -0.508057 0
M  V30 26 H -5.95073 -1.35174 -2.15032 0
M  V30 27 H -5.74725 0.632259 -1.75297 0
M  V30 28 H -4.92592 2.90688 -1.76977 0
M  V30 29 H -2.8421 3.50976 -0.588082 0
M  V30 30 H -1.59377 1.77183 0.616274 0
M  V30 31 H -1.34605 0.26997 2.23417 0
M  V30 32 H -0.336489 -0.0352236 0.804182 0
M  V30 33 H -1.23169 -2.05316 2.932 0
M  V30 34 H -0.363814 -2.54533 1.41866 0
M  V30 35 H 1.88032 1.31516 1.72615 0
M  V30 36 H 5.36027 -2.98486 0.164564 0
M  V30 37 H 6.1711 -2.44886 -1.32796 0
M  V30 38 H 5.13347 3.07282 -2.23738 0
M  V30 39 H 6.75083 2.57355 -1.62402 0
M  V30 END ATOM
M  V30 BEGIN BOND
M  V30 1 1 1 2
M  V30 2 1 2 3
M  V30 3 2 3 4
M  V30 4 1 4 5
M  V30 5 2 5 6
M  V30 6 1 6 7
M  V30 7 2 7 8
M  V30 8 1 8 9
M  V30 9 1 9 10
M  V30 10 1 10 11
M  V30 11 1 11 12
M  V30 12 1 12 13
M  V30 13 2 13 14
M  V30 14 1 14 15
M  V30 15 2 15 16
M  V30 16 1 16 17
M  V30 17 1 16 18
M  V30 18 2 18 19
M  V30 19 1 19 20
M  V30 20 2 20 21
M  V30 21 1 21 22
M  V30 22 1 19 23
M  V30 23 1 8 3
M  V30 24 1 17 13
M  V30 25 1 21 15
M  V30 26 1 1 24
M  V30 27 1 1 25
M  V30 28 1 1 26
M  V30 29 1 4 27
M  V30 30 1 5 28
M  V30 31 1 6 29
M  V30 32 1 7 30
M  V30 33 1 10 31
M  V30 34 1 10 32
M  V30 35 1 11 33
M  V30 36 1 11 34
M  V30 37 1 17 35
M  V30 38 1 22 36
M  V30 39 1 22 37
M  V30 40 1 23 38
M  V30 41 1 23 39
M  V30 END BOND
M  V30 END CTAB
M  END
