
     RDKit          3D

  0  0  0  0  0  0  0  0  0  0999 V3000
M  V30 BEGIN CTAB
M  V30 COUNTS 55 56 0 0 0
M  V30 BEGIN ATOM
M  V30 1 N -4.5558 2.76431 -0.444233 0
M  V30 2 C -4.49006 1.3163 -0.100056 0
M  V30 3 C -4.11504 0.614887 -1.32012 0
M  V30 4 C -3.3606 -0.734502 -1.1155 0
M  V30 5 C -2.72981 -0.995352 -2.48661 0
M  V30 6 C -4.36556 -1.78748 -0.98337 0
M  V30 7 N -2.41773 -0.468383 -0.0325157 0
M  V30 8 C -3.00092 -0.183125 1.22379 0
M  V30 9 C -3.56567 1.25423 1.07156 0
M  V30 10 C -4.26598 -0.982735 1.60271 0
M  V30 11 C -2.20649 -0.182059 2.48131 0
M  V30 12 C -1.06884 -0.507325 -0.323833 0
M  V30 13 O -0.696045 -1.06084 -1.50003 0
M  V30 14 C 0.205843 -0.075721 0.286196 0
M  V30 15 O 0.385667 0.318127 1.43056 0
M  V30 16 N 1.37004 -0.129071 -0.541956 0
M  V30 17 C 2.46512 -0.174459 -1.30577 0
M  V30 18 C 3.82734 0.0266647 -0.772041 0
M  V30 19 C 4.22533 -0.497597 0.430615 0
M  V30 20 C 5.5204 -0.321308 0.941985 0
M  V30 21 C 6.43511 0.405727 0.210454 0
M  V30 22 C 6.06311 0.939473 -0.997649 0
M  V30 23 C 4.79208 0.760724 -1.48344 0
M  V30 24 S 8.0546 0.693555 0.811098 0
M  V30 25 O 8.04631 1.03245 2.2622 0
M  V30 26 O 8.67538 1.80829 -0.0386309 0
M  V30 27 N 8.99515 -0.754355 0.549626 0
M  V30 28 H -4.90359 2.87512 -1.41744 0
M  V30 29 H -5.14805 3.21874 0.260799 0
M  V30 30 H -5.53357 1.08303 0.205605 0
M  V30 31 H -5.02888 0.331565 -1.90182 0
M  V30 32 H -3.5037 1.23201 -2.03279 0
M  V30 33 H -2.36727 -2.01164 -2.63742 0
M  V30 34 H -3.66282 -0.989926 -3.21512 0
M  V30 35 H -2.08209 -0.248139 -2.87858 0
M  V30 36 H -4.56262 -2.18619 -2.0713 0
M  V30 37 H -4.03314 -2.74827 -0.520655 0
M  V30 38 H -5.40809 -1.49593 -0.73967 0
M  V30 39 H -4.17548 1.39396 1.99628 0
M  V30 40 H -2.75284 1.99591 1.09872 0
M  V30 41 H -5.171 -0.529627 1.19533 0
M  V30 42 H -4.44198 -0.749095 2.73491 0
M  V30 43 H -4.13821 -2.04041 1.62592 0
M  V30 44 H -2.97586 -0.260473 3.3768 0
M  V30 45 H -1.80395 0.824257 2.74674 0
M  V30 46 H -1.59634 -1.04529 2.69809 0
M  V30 47 H 2.07392 0.339735 0.514454 0
M  V30 48 H 2.49384 -1.07861 -2.02135 0
M  V30 49 H 2.37288 0.670804 -2.10917 0
M  V30 50 H 3.54814 -1.07267 1.04241 0
M  V30 51 H 5.76293 -0.753182 1.88086 0
M  V30 52 H 6.80494 1.506 -1.55 0
M  V30 53 H 4.54975 1.21943 -2.44149 0
M  V30 54 H 8.67663 -1.48337 1.2664 0
M  V30 55 H 8.78353 -1.07817 -0.413222 0
M  V30 END ATOM
M  V30 BEGIN BOND
M  V30 1 1 1 2
M  V30 2 1 2 3
M  V30 3 1 3 4
M  V30 4 1 4 5
M  V30 5 1 4 6
M  V30 6 1 4 7
M  V30 7 1 7 8
M  V30 8 1 8 9
M  V30 9 1 8 10
M  V30 10 1 8 11
M  V30 11 1 7 12
M  V30 12 2 12 13
M  V30 13 1 12 14
M  V30 14 2 14 15
M  V30 15 1 14 16
M  V30 16 1 16 17
M  V30 17 1 17 18
M  V30 18 2 18 19
M  V30 19 1 19 20
M  V30 20 2 20 21
M  V30 21 1 21 22
M  V30 22 2 22 23
M  V30 23 1 21 24
M  V30 24 2 24 25
M  V30 25 2 24 26
M  V30 26 1 24 27
M  V30 27 1 9 2
M  V30 28 1 23 18
M  V30 29 1 1 28
M  V30 30 1 1 29
M  V30 31 1 2 30
M  V30 32 1 3 31
M  V30 33 1 3 32
M  V30 34 1 5 33
M  V30 35 1 5 34
M  V30 36 1 5 35
M  V30 37 1 6 36
M  V30 38 1 6 37
M  V30 39 1 6 38
M  V30 40 1 9 39
M  V30 41 1 9 40
M  V30 42 1 10 41
M  V30 43 1 10 42
M  V30 44 1 10 43
M  V30 45 1 11 44
M  V30 46 1 11 45
M  V30 47 1 11 46
M  V30 48 1 16 47
M  V30 49 1 17 48
M  V30 50 1 17 49
M  V30 51 1 19 50
M  V30 52 1 20 51
M  V30 53 1 22 52
M  V30 54 1 23 53
M  V30 55 1 27 54
M  V30 56 1 27 55
M  V30 END BOND
M  V30 END CTAB
M  END
