
     RDKit          3D

  0  0  0  0  0  0  0  0  0  0999 V3000
M  V30 BEGIN CTAB
M  V30 COUNTS 22 23 0 0 0
M  V30 BEGIN ATOM
M  V30 1 N -2.06352 -2.0762 2.14305 0
M  V30 2 C -1.6598 -0.929372 1.40544 0
M  V30 3 N -0.374052 -0.499707 1.39507 0
M  V30 4 C -0.0317468 0.590248 0.684385 0
M  V30 5 C 1.36112 1.10974 0.63394 0
M  V30 6 N 2.10712 0.516081 -0.456088 0
M  V30 7 N 2.24464 0.911435 -1.70334 0
M  V30 8 N 3.02182 0.0735401 -2.38413 0
M  V30 9 C 3.41418 -0.91411 -1.55748 0
M  V30 10 C 2.81988 -0.609309 -0.340581 0
M  V30 11 N -1.01577 1.20752 0.00577457 0
M  V30 12 C -2.28921 0.807908 -0.00277423 0
M  V30 13 N -2.61542 -0.28517 0.713946 0
M  V30 14 N -3.30955 1.48321 -0.731962 0
M  V30 15 H -1.94604 -2.11372 3.1749 0
M  V30 16 H -2.48818 -2.91656 1.6902 0
M  V30 17 H 1.87389 0.938417 1.60782 0
M  V30 18 H 1.29512 2.22907 0.526969 0
M  V30 19 H 4.05332 -1.74774 -1.81774 0
M  V30 20 H 2.96452 -1.24588 0.528965 0
M  V30 21 H -4.30612 1.30089 -0.537899 0
M  V30 22 H -3.05619 2.16971 -1.47038 0
M  V30 END ATOM
M  V30 BEGIN BOND
M  V30 1 1 1 2
M  V30 2 2 2 3
M  V30 3 1 3 4
M  V30 4 1 4 5
M  V30 5 1 5 6
M  V30 6 1 6 7
M  V30 7 2 7 8
M  V30 8 1 8 9
M  V30 9 2 9 10
M  V30 10 2 4 11
M  V30 11 1 11 12
M  V30 12 2 12 13
M  V30 13 1 12 14
M  V30 14 1 13 2
M  V30 15 1 10 6
M  V30 16 1 1 15
M  V30 17 1 1 16
M  V30 18 1 5 17
M  V30 19 1 5 18
M  V30 20 1 9 19
M  V30 21 1 10 20
M  V30 22 1 14 21
M  V30 23 1 14 22
M  V30 END BOND
M  V30 END CTAB
M  END
