
     RDKit          3D

  0  0  0  0  0  0  0  0  0  0999 V3000
M  V30 BEGIN CTAB
M  V30 COUNTS 39 41 0 0 0
M  V30 BEGIN ATOM
M  V30 1 C 7.77062 -0.537414 -0.0597031 0
M  V30 2 C 6.29528 -0.574674 -0.0849517 0
M  V30 3 C 5.63928 -1.0049 -1.23477 0
M  V30 4 C 4.26402 -1.04085 -1.26052 0
M  V30 5 C 3.50784 -0.66148 -0.175756 0
M  V30 6 C 4.12522 -0.238107 0.957053 0
M  V30 7 C 5.51171 -0.200802 0.986007 0
M  V30 8 C 2.02671 -0.730445 -0.283719 0
M  V30 9 S 1.05807 -1.22994 -1.59498 0
M  V30 10 C -0.482 -0.996801 -0.875262 0
M  V30 11 C -0.13742 -0.535168 0.365717 0
M  V30 12 N 1.128 -0.412383 0.632812 0
M  V30 13 C -1.20713 -0.174086 1.39301 0
M  V30 14 S -1.61591 1.56619 1.25694 0
M  V30 15 C -2.49414 1.89594 -0.26119 0
M  V30 16 C -3.86548 1.33746 -0.305167 0
M  V30 17 N -4.91944 2.05928 0.132812 0
M  V30 18 C -6.18526 1.60417 0.116416 0
M  V30 19 N -7.25461 2.41194 0.591668 0
M  V30 20 N -6.38094 0.360495 -0.367543 0
M  V30 21 C -5.37525 -0.417588 -0.82217 0
M  V30 22 N -4.13187 0.115544 -0.770758 0
M  V30 23 N -5.61299 -1.7261 -1.32691 0
M  V30 24 H 8.17708 0.429484 0.301134 0
M  V30 25 H 8.16095 -0.732124 -1.07622 0
M  V30 26 H 8.11688 -1.31417 0.648169 0
M  V30 27 H 6.24029 -1.30605 -2.09592 0
M  V30 28 H 3.74781 -1.37796 -2.15962 0
M  V30 29 H 3.51752 0.0551234 1.79619 0
M  V30 30 H 5.97287 0.139627 1.89925 0
M  V30 31 H -1.48704 -1.17464 -1.29721 0
M  V30 32 H -2.0688 -0.856459 1.25489 0
M  V30 33 H -0.811366 -0.355706 2.42548 0
M  V30 34 H -2.56111 3.01648 -0.376353 0
M  V30 35 H -1.91413 1.54868 -1.13926 0
M  V30 36 H -7.64607 3.11705 -0.0691295 0
M  V30 37 H -7.67691 2.36002 1.53525 0
M  V30 38 H -5.37137 -2.60384 -0.826961 0
M  V30 39 H -6.06092 -1.81579 -2.2638 0
M  V30 END ATOM
M  V30 BEGIN BOND
M  V30 1 1 1 2
M  V30 2 2 2 3
M  V30 3 1 3 4
M  V30 4 2 4 5
M  V30 5 1 5 6
M  V30 6 2 6 7
M  V30 7 1 5 8
M  V30 8 1 8 9
M  V30 9 1 9 10
M  V30 10 2 10 11
M  V30 11 1 11 12
M  V30 12 1 11 13
M  V30 13 1 13 14
M  V30 14 1 14 15
M  V30 15 1 15 16
M  V30 16 2 16 17
M  V30 17 1 17 18
M  V30 18 1 18 19
M  V30 19 2 18 20
M  V30 20 1 20 21
M  V30 21 2 21 22
M  V30 22 1 21 23
M  V30 23 1 7 2
M  V30 24 2 12 8
M  V30 25 1 22 16
M  V30 26 1 1 24
M  V30 27 1 1 25
M  V30 28 1 1 26
M  V30 29 1 3 27
M  V30 30 1 4 28
M  V30 31 1 6 29
M  V30 32 1 7 30
M  V30 33 1 10 31
M  V30 34 1 13 32
M  V30 35 1 13 33
M  V30 36 1 15 34
M  V30 37 1 15 35
M  V30 38 1 19 36
M  V30 39 1 19 37
M  V30 40 1 23 38
M  V30 41 1 23 39
M  V30 END BOND
M  V30 END CTAB
M  END
