
     RDKit          3D

  0  0  0  0  0  0  0  0  0  0999 V3000
M  V30 BEGIN CTAB
M  V30 COUNTS 31 32 0 0 0
M  V30 BEGIN ATOM
M  V30 1 N 4.6929 0.5709 -1.46799 0
M  V30 2 C 3.37987 0.348207 -0.983879 0
M  V30 3 C 3.08455 -0.739497 -0.191985 0
M  V30 4 C 1.77477 -0.890145 0.243897 0
M  V30 5 C 0.762905 -0.0112206 -0.0747616 0
M  V30 6 C 1.11075 1.05533 -0.866185 0
M  V30 7 C 2.39493 1.25766 -1.32935 0
M  V30 8 C -0.595934 -0.211993 0.397108 0 CFG=2
M  V30 9 C -0.713393 -1.69145 0.769673 0
M  V30 10 C -2.15576 -2.00384 0.45307 0
M  V30 11 C -2.4291 -1.12021 -0.74673 0
M  V30 12 N -1.63622 0.0803505 -0.544716 0
M  V30 13 S -2.75842 1.25673 0.0637416 0
M  V30 14 O -3.88809 1.4688 -0.906011 0
M  V30 15 O -3.40931 0.740041 1.34098 0
M  V30 16 N -2.06551 2.75496 0.404071 0
M  V30 17 H 5.07407 1.50608 -1.4884 0
M  V30 18 H 5.2496 -0.236782 -1.79772 0
M  V30 19 H 3.86588 -1.44044 0.0685461 0
M  V30 20 H 1.62209 -1.77447 0.871215 0
M  V30 21 H 0.351537 1.74935 -1.12958 0
M  V30 22 H 2.63435 2.10771 -1.95034 0
M  V30 23 H -0.747381 0.343675 1.3611 0
M  V30 24 H -0.121671 -2.33563 0.053099 0
M  V30 25 H -0.470482 -1.89178 1.80978 0
M  V30 26 H -2.30603 -3.06488 0.18382 0
M  V30 27 H -2.7851 -1.7593 1.32442 0
M  V30 28 H -2.18159 -1.64611 -1.67831 0
M  V30 29 H -3.52225 -0.935787 -0.749184 0
M  V30 30 H -1.89296 2.97922 1.37992 0
M  V30 31 H -2.319 3.53452 -0.218183 0
M  V30 END ATOM
M  V30 BEGIN BOND
M  V30 1 1 1 2
M  V30 2 2 2 3
M  V30 3 1 3 4
M  V30 4 2 4 5
M  V30 5 1 5 6
M  V30 6 2 6 7
M  V30 7 1 5 8
M  V30 8 1 8 9
M  V30 9 1 9 10
M  V30 10 1 10 11
M  V30 11 1 11 12
M  V30 12 1 12 13
M  V30 13 2 13 14
M  V30 14 2 13 15
M  V30 15 1 13 16
M  V30 16 1 7 2
M  V30 17 1 12 8
M  V30 18 1 1 17
M  V30 19 1 1 18
M  V30 20 1 3 19
M  V30 21 1 4 20
M  V30 22 1 6 21
M  V30 23 1 7 22
M  V30 24 1 8 23 CFG=1
M  V30 25 1 9 24
M  V30 26 1 9 25
M  V30 27 1 10 26
M  V30 28 1 10 27
M  V30 29 1 11 28
M  V30 30 1 11 29
M  V30 31 1 16 30
M  V30 32 1 16 31
M  V30 END BOND
M  V30 END CTAB
M  END
