
     RDKit          3D

  0  0  0  0  0  0  0  0  0  0999 V3000
M  V30 BEGIN CTAB
M  V30 COUNTS 17 18 0 0 0
M  V30 BEGIN ATOM
M  V30 1 N -2.40924 0.399466 0.218875 0
M  V30 2 C -0.981856 0.455138 0.0612335 0
M  V30 3 C -0.21653 -0.672382 0.0783228 0
M  V30 4 N -0.900014 -1.92777 0.261728 0
M  V30 5 C 1.18019 -0.645213 -0.0735466 0
M  V30 6 C 1.7434 0.587057 -0.242024 0
M  V30 7 S 3.39839 0.200466 -0.385221 0
M  V30 8 N 3.2739 -1.47229 -0.225019 0
M  V30 9 N 2.00919 -1.67431 -0.0719161 0
M  V30 10 C 0.956125 1.75214 -0.260063 0
M  V30 11 C -0.41489 1.70635 -0.109307 0
M  V30 12 H -2.80828 0.78777 1.08994 0
M  V30 13 H -3.04449 -0.00515124 -0.488759 0
M  V30 14 H -1.15886 -2.51475 -0.550047 0
M  V30 15 H -1.13418 -2.24448 1.22043 0
M  V30 16 H 1.50388 2.66526 -0.398848 0
M  V30 17 H -0.996726 2.60271 -0.125771 0
M  V30 END ATOM
M  V30 BEGIN BOND
M  V30 1 1 1 2
M  V30 2 2 2 3
M  V30 3 1 3 4
M  V30 4 1 3 5
M  V30 5 2 5 6
M  V30 6 1 6 7
M  V30 7 1 7 8
M  V30 8 2 8 9
M  V30 9 1 6 10
M  V30 10 2 10 11
M  V30 11 1 11 2
M  V30 12 1 9 5
M  V30 13 1 1 12
M  V30 14 1 1 13
M  V30 15 1 4 14
M  V30 16 1 4 15
M  V30 17 1 10 16
M  V30 18 1 11 17
M  V30 END BOND
M  V30 END CTAB
M  END
