
     RDKit          3D

  0  0  0  0  0  0  0  0  0  0999 V3000
M  V30 BEGIN CTAB
M  V30 COUNTS 46 47 0 0 0
M  V30 BEGIN ATOM
M  V30 1 N -7.34349 0.940564 -0.739632 0
M  V30 2 C -6.00653 0.940982 -1.31629 0
M  V30 3 C -5.53555 -0.510455 -1.32768 0
M  V30 4 C -5.50206 -1.06717 0.0672848 0
M  V30 5 O -4.70083 -0.455186 0.981572 0
M  V30 6 C -3.35031 -0.342546 1.00126 0
M  V30 7 C -2.49179 -0.871686 0.0818341 0
M  V30 8 C -1.10419 -0.718579 0.151404 0
M  V30 9 C -0.531171 -0.0173218 1.16684 0
M  V30 10 C -1.39333 0.534345 2.12316 0
M  V30 11 C -2.72761 0.381367 2.04627 0
M  V30 12 C 0.891637 0.160236 1.28636 0
M  V30 13 O 1.2599 0.889216 2.29716 0
M  V30 14 N 1.93197 -0.337366 0.473959 0
M  V30 15 C 1.98791 -1.16274 -0.698155 0
M  V30 16 C 3.45936 -1.39039 -0.969574 0
M  V30 17 C 4.03951 -0.0443146 -0.501285 0
M  V30 18 C 3.34112 0.0377029 0.83873 0
M  V30 19 C 5.52744 -0.111632 -0.398468 0
M  V30 20 S 6.14046 1.46444 0.136926 0
M  V30 21 O 5.8478 2.53927 -0.871113 0
M  V30 22 O 5.6435 1.84209 1.48933 0
M  V30 23 N 7.88388 1.33659 0.229405 0
M  V30 24 H -7.28998 0.875629 0.294313 0
M  V30 25 H -7.73668 1.90797 -0.944506 0
M  V30 26 H -5.96672 1.38816 -2.31692 0
M  V30 27 H -5.35908 1.52892 -0.638366 0
M  V30 28 H -4.60943 -0.645978 -1.8618 0
M  V30 29 H -6.30826 -1.12503 -1.88272 0
M  V30 30 H -5.16136 -2.14807 -0.0621487 0
M  V30 31 H -6.56578 -1.21949 0.450387 0
M  V30 32 H -2.86553 -1.4618 -0.741576 0
M  V30 33 H -0.542869 -1.18489 -0.648098 0
M  V30 34 H -0.958614 1.09463 2.93794 0
M  V30 35 H -3.4308 0.799933 2.77781 0
M  V30 36 H 1.51848 -0.602059 -1.55302 0
M  V30 37 H 1.52535 -2.1651 -0.539011 0
M  V30 38 H 3.69066 -1.5877 -2.01482 0
M  V30 39 H 3.7933 -2.19666 -0.26927 0
M  V30 40 H 3.67242 0.720603 -1.19488 0
M  V30 41 H 3.74362 -0.746783 1.50439 0
M  V30 42 H 3.36272 1.03542 1.27396 0
M  V30 43 H 5.74661 -0.831389 0.443392 0
M  V30 44 H 6.00315 -0.460552 -1.31793 0
M  V30 45 H 8.3027 2.29844 0.124187 0
M  V30 46 H 8.16851 0.688392 -0.523182 0
M  V30 END ATOM
M  V30 BEGIN BOND
M  V30 1 1 1 2
M  V30 2 1 2 3
M  V30 3 1 3 4
M  V30 4 1 4 5
M  V30 5 1 5 6
M  V30 6 2 6 7
M  V30 7 1 7 8
M  V30 8 2 8 9
M  V30 9 1 9 10
M  V30 10 2 10 11
M  V30 11 1 9 12
M  V30 12 2 12 13
M  V30 13 1 12 14
M  V30 14 1 14 15
M  V30 15 1 15 16
M  V30 16 1 16 17
M  V30 17 1 17 18
M  V30 18 1 17 19
M  V30 19 1 19 20
M  V30 20 2 20 21
M  V30 21 2 20 22
M  V30 22 1 20 23
M  V30 23 1 11 6
M  V30 24 1 18 14
M  V30 25 1 1 24
M  V30 26 1 1 25
M  V30 27 1 2 26
M  V30 28 1 2 27
M  V30 29 1 3 28
M  V30 30 1 3 29
M  V30 31 1 4 30
M  V30 32 1 4 31
M  V30 33 1 7 32
M  V30 34 1 8 33
M  V30 35 1 10 34
M  V30 36 1 11 35
M  V30 37 1 15 36
M  V30 38 1 15 37
M  V30 39 1 16 38
M  V30 40 1 16 39
M  V30 41 1 17 40
M  V30 42 1 18 41
M  V30 43 1 18 42
M  V30 44 1 19 43
M  V30 45 1 19 44
M  V30 46 1 23 45
M  V30 47 1 23 46
M  V30 END BOND
M  V30 END CTAB
M  END
