
     RDKit          3D

  0  0  0  0  0  0  0  0  0  0999 V3000
M  V30 BEGIN CTAB
M  V30 COUNTS 46 48 0 0 0
M  V30 BEGIN ATOM
M  V30 1 N -7.15642 -1.67066 0.549593 0
M  V30 2 C -5.72299 -1.55442 0.727742 0
M  V30 3 C -5.06085 -1.02089 -0.523185 0
M  V30 4 C -5.59715 0.351341 -0.880959 0
M  V30 5 C -4.79633 1.25421 0.0571724 0
M  V30 6 N -3.45933 0.644791 -0.0676344 0
M  V30 7 C -3.60387 -0.719564 -0.307341 0
M  V30 8 C -2.32414 1.46233 0.0400584 0
M  V30 9 O -2.54089 2.7571 0.219099 0
M  V30 10 C -0.933717 1.13336 -0.012502 0
M  V30 11 C 0.043085 2.14348 -0.0181051 0
M  V30 12 C 1.37303 1.85933 -0.0388011 0
M  V30 13 C 1.81868 0.567264 -0.0551498 0
M  V30 14 C 0.894182 -0.447026 -0.0500028 0
M  V30 15 C -0.468847 -0.141601 -0.0282881 0
M  V30 16 C 3.22985 0.213288 -0.0758027 0
M  V30 17 C 3.72959 -0.733859 -0.915421 0
M  V30 18 C 5.08343 -1.0603 -0.924281 0
M  V30 19 C 5.93635 -0.408501 -0.062363 0
M  V30 20 C 5.45357 0.552606 0.795435 0
M  V30 21 C 4.08712 0.859054 0.781122 0
M  V30 22 F 3.70203 1.81775 1.66202 0
M  V30 23 S 7.63533 -0.838837 -0.0949279 0
M  V30 24 O 8.25591 -0.621868 1.27271 0
M  V30 25 O 7.80966 -2.28171 -0.47632 0
M  V30 26 N 8.42006 0.200066 -1.25782 0
M  V30 27 H -7.66731 -1.13872 1.26491 0
M  V30 28 H -7.43768 -1.4824 -0.429914 0
M  V30 29 H -5.49257 -0.880796 1.559 0
M  V30 30 H -5.33505 -2.55969 0.935992 0
M  V30 31 H -5.13991 -1.74872 -1.35239 0
M  V30 32 H -5.26315 0.577567 -1.90343 0
M  V30 33 H -6.68157 0.443445 -0.721003 0
M  V30 34 H -5.08325 1.12171 1.10491 0
M  V30 35 H -4.8129 2.28771 -0.283381 0
M  V30 36 H -3.31766 -1.31247 0.603698 0
M  V30 37 H -3.0095 -1.08863 -1.19975 0
M  V30 38 H -0.317325 3.18475 -0.00699305 0
M  V30 39 H 2.11391 2.66862 -0.0439665 0
M  V30 40 H 1.21523 -1.48911 -0.0627488 0
M  V30 41 H -1.112 -1.02007 -0.00724245 0
M  V30 42 H 3.07194 -1.25837 -1.60243 0
M  V30 43 H 5.40763 -1.81803 -1.6137 0
M  V30 44 H 6.12635 1.07332 1.48211 0
M  V30 45 H 7.70732 0.422898 -1.99089 0
M  V30 46 H 9.22014 -0.299751 -1.68996 0
M  V30 END ATOM
M  V30 BEGIN BOND
M  V30 1 1 1 2
M  V30 2 1 2 3
M  V30 3 1 3 4
M  V30 4 1 4 5
M  V30 5 1 5 6
M  V30 6 1 6 7
M  V30 7 1 6 8
M  V30 8 2 8 9
M  V30 9 1 8 10
M  V30 10 2 10 11
M  V30 11 1 11 12
M  V30 12 2 12 13
M  V30 13 1 13 14
M  V30 14 2 14 15
M  V30 15 1 13 16
M  V30 16 2 16 17
M  V30 17 1 17 18
M  V30 18 2 18 19
M  V30 19 1 19 20
M  V30 20 2 20 21
M  V30 21 1 21 22
M  V30 22 1 19 23
M  V30 23 2 23 24
M  V30 24 2 23 25
M  V30 25 1 23 26
M  V30 26 1 7 3
M  V30 27 1 15 10
M  V30 28 1 21 16
M  V30 29 1 1 27
M  V30 30 1 1 28
M  V30 31 1 2 29
M  V30 32 1 2 30
M  V30 33 1 3 31
M  V30 34 1 4 32
M  V30 35 1 4 33
M  V30 36 1 5 34
M  V30 37 1 5 35
M  V30 38 1 7 36
M  V30 39 1 7 37
M  V30 40 1 11 38
M  V30 41 1 12 39
M  V30 42 1 14 40
M  V30 43 1 15 41
M  V30 44 1 17 42
M  V30 45 1 18 43
M  V30 46 1 20 44
M  V30 47 1 26 45
M  V30 48 1 26 46
M  V30 END BOND
M  V30 END CTAB
M  END
