
     RDKit          3D

  0  0  0  0  0  0  0  0  0  0999 V3000
M  V30 BEGIN CTAB
M  V30 COUNTS 51 52 0 0 0
M  V30 BEGIN ATOM
M  V30 1 N -1.61199 1.54736 0.516145 0
M  V30 2 C -1.23712 0.198479 0.593952 0 CFG=1
M  V30 3 C -2.12974 -0.707133 -0.215907 0
M  V30 4 C -3.54039 -0.684093 0.169303 0
M  V30 5 C -4.13252 -1.58342 1.04299 0
M  V30 6 N -5.41647 -1.26665 1.21713 0
M  V30 7 C -5.67347 -0.165194 0.463318 0
M  V30 8 C -4.50549 0.215634 -0.203897 0
M  V30 9 C -4.55214 1.31194 -1.03759 0
M  V30 10 C -5.71428 2.04159 -1.22862 0
M  V30 11 O -5.69378 3.14583 -2.08878 0
M  V30 12 C -6.83852 1.63353 -0.552355 0
M  V30 13 C -6.81856 0.549106 0.278971 0
M  V30 14 C 0.178894 0.069582 0.140106 0
M  V30 15 O 0.819291 1.09466 -0.269811 0
M  V30 16 N 0.791895 -1.20044 0.173161 0
M  V30 17 C 2.19354 -1.28938 -0.285252 0 CFG=1
M  V30 18 C 3.0277 -1.61321 0.932803 0
M  V30 19 C 4.46675 -1.72683 0.641317 0
M  V30 20 C 5.11304 -0.51851 0.0561121 0
M  V30 21 N 5.04916 0.654642 0.857756 0
M  V30 22 C 5.64391 1.84442 0.352676 0
M  V30 23 N 5.01354 3.10393 0.373575 0
M  V30 24 N 6.84519 1.81817 -0.172152 0
M  V30 25 C 2.31176 -2.29866 -1.33885 0
M  V30 26 O 3.43701 -2.63616 -2.04097 0
M  V30 27 O 1.25578 -2.95429 -1.66098 0
M  V30 28 H -0.815234 2.18005 0.441774 0
M  V30 29 H -2.26981 1.87881 1.19668 0
M  V30 30 H -1.32387 -0.134517 1.66419 0
M  V30 31 H -1.74617 -1.7542 -0.136764 0
M  V30 32 H -2.01606 -0.413297 -1.28819 0
M  V30 33 H -3.613 -2.41779 1.50851 0
M  V30 34 H -6.11888 -1.75946 1.81877 0
M  V30 35 H -3.66961 1.60609 -1.57109 0
M  V30 36 H -5.47463 4.07815 -1.76065 0
M  V30 37 H -7.74824 2.22107 -0.713348 0
M  V30 38 H -7.70836 0.229685 0.810097 0
M  V30 39 H 0.280434 -2.04139 0.506411 0
M  V30 40 H 2.5276 -0.291911 -0.635787 0
M  V30 41 H 2.63892 -2.61751 1.2814 0
M  V30 42 H 2.77195 -0.931419 1.76867 0
M  V30 43 H 4.98565 -1.99277 1.62207 0
M  V30 44 H 4.66963 -2.59936 0.00150214 0
M  V30 45 H 4.71917 -0.280886 -0.949943 0
M  V30 46 H 6.19878 -0.770989 -0.105131 0
M  V30 47 H 4.59618 0.708223 1.79454 0
M  V30 48 H 4.66685 3.51905 -0.500985 0
M  V30 49 H 4.90171 3.6063 1.26433 0
M  V30 50 H 7.39722 0.944747 -0.237682 0
M  V30 51 H 3.86678 -3.55157 -2.04963 0
M  V30 END ATOM
M  V30 BEGIN BOND
M  V30 1 1 1 2
M  V30 2 1 2 3
M  V30 3 1 3 4
M  V30 4 2 4 5
M  V30 5 1 5 6
M  V30 6 1 6 7
M  V30 7 2 7 8
M  V30 8 1 8 9
M  V30 9 2 9 10
M  V30 10 1 10 11
M  V30 11 1 10 12
M  V30 12 2 12 13
M  V30 13 1 2 14
M  V30 14 2 14 15
M  V30 15 1 14 16
M  V30 16 1 16 17
M  V30 17 1 17 18
M  V30 18 1 18 19
M  V30 19 1 19 20
M  V30 20 1 20 21
M  V30 21 1 21 22
M  V30 22 1 22 23
M  V30 23 2 22 24 CFG=2
M  V30 24 1 17 25
M  V30 25 1 25 26
M  V30 26 2 25 27
M  V30 27 1 8 4
M  V30 28 1 13 7
M  V30 29 1 1 28
M  V30 30 1 1 29
M  V30 31 1 2 30 CFG=1
M  V30 32 1 3 31
M  V30 33 1 3 32
M  V30 34 1 5 33
M  V30 35 1 6 34
M  V30 36 1 9 35
M  V30 37 1 11 36
M  V30 38 1 12 37
M  V30 39 1 13 38
M  V30 40 1 16 39
M  V30 41 1 17 40 CFG=3
M  V30 42 1 18 41
M  V30 43 1 18 42
M  V30 44 1 19 43
M  V30 45 1 19 44
M  V30 46 1 20 45
M  V30 47 1 20 46
M  V30 48 1 21 47
M  V30 49 1 23 48
M  V30 50 1 23 49
M  V30 51 1 24 50
M  V30 52 1 26 51
M  V30 END BOND
M  V30 END CTAB
M  END
