
     RDKit          3D

  0  0  0  0  0  0  0  0  0  0999 V3000
M  V30 BEGIN CTAB
M  V30 COUNTS 22 22 0 0 0
M  V30 BEGIN ATOM
M  V30 1 N -2.07835 -0.0284535 -1.46932 0
M  V30 2 C -1.92878 -0.864407 -0.266967 0
M  V30 3 C -1.18669 -0.0194509 0.766644 0
M  V30 4 C 0.185622 0.287208 0.216194 0
M  V30 5 C 0.629539 1.58391 0.0282195 0
M  V30 6 F -0.25646 2.61231 0.206605 0
M  V30 7 C 1.9479 1.83915 -0.344269 0
M  V30 8 C 2.8268 0.808556 -0.533168 0
M  V30 9 C 2.38704 -0.508108 -0.340332 0
M  V30 10 C 1.09214 -0.736444 0.026242 0
M  V30 11 F 0.741267 -2.0548 0.28189 0
M  V30 12 N -0.966807 -0.935949 1.88825 0
M  V30 13 H -1.26571 0.498416 -1.71476 0
M  V30 14 H -2.61132 -0.509219 -2.15131 0
M  V30 15 H -2.93755 -1.05211 0.155606 0
M  V30 16 H -1.36034 -1.76647 -0.503385 0
M  V30 17 H -1.76783 0.841876 1.05263 0
M  V30 18 H 2.2987 2.84259 -0.504939 0
M  V30 19 H 3.86955 0.903875 -0.826649 0
M  V30 20 H 3.05503 -1.35924 -0.471973 0
M  V30 21 H -1.46915 -1.84483 1.70673 0
M  V30 22 H -1.20462 -0.538398 2.79806 0
M  V30 END ATOM
M  V30 BEGIN BOND
M  V30 1 1 1 2
M  V30 2 1 2 3
M  V30 3 1 3 4
M  V30 4 2 4 5
M  V30 5 1 5 6
M  V30 6 1 5 7
M  V30 7 2 7 8
M  V30 8 1 8 9
M  V30 9 2 9 10
M  V30 10 1 10 11
M  V30 11 1 3 12
M  V30 12 1 10 4
M  V30 13 1 1 13
M  V30 14 1 1 14
M  V30 15 1 2 15
M  V30 16 1 2 16
M  V30 17 1 3 17
M  V30 18 1 7 18
M  V30 19 1 8 19
M  V30 20 1 9 20
M  V30 21 1 12 21
M  V30 22 1 12 22
M  V30 END BOND
M  V30 END CTAB
M  END
