
     RDKit          3D

  0  0  0  0  0  0  0  0  0  0999 V3000
M  V30 BEGIN CTAB
M  V30 COUNTS 31 33 0 0 0
M  V30 BEGIN ATOM
M  V30 1 N -0.266647 2.10911 1.21496 0
M  V30 2 C -0.668163 0.735819 1.33407 0 CFG=1
M  V30 3 C -2.15175 0.647156 1.39684 0
M  V30 4 C -2.75612 -0.362032 0.468883 0
M  V30 5 C -2.22213 -0.228145 -0.921243 0 CFG=2
M  V30 6 C -0.756549 -0.489336 -0.868453 0
M  V30 7 C -0.0665993 -0.0181689 0.209409 0
M  V30 8 C 1.29129 -0.25575 0.266136 0
M  V30 9 N 2.02312 0.19384 1.32049 0
M  V30 10 C 3.33697 -0.0160131 1.41086 0
M  V30 11 C 4.01062 -0.705951 0.425069 0
M  V30 12 C 3.30261 -1.17317 -0.652164 0
M  V30 13 C 1.94586 -0.954052 -0.741207 0
M  V30 14 C 1.20168 -1.41799 -1.82535 0
M  V30 15 C -0.144639 -1.18741 -1.89039 0
M  V30 16 N -2.50226 1.0459 -1.52157 0
M  V30 17 H 0.5735 2.27409 0.681921 0
M  V30 18 H -1.06701 2.7002 1.05234 0
M  V30 19 H -0.196573 0.349781 2.26491 0
M  V30 20 H -2.49139 0.377634 2.43346 0
M  V30 21 H -2.61695 1.66029 1.21632 0
M  V30 22 H -3.85253 -0.280064 0.547559 0
M  V30 23 H -2.45735 -1.37118 0.84318 0
M  V30 24 H -2.68783 -1.00722 -1.5615 0
M  V30 25 H 3.90857 0.354876 2.26937 0
M  V30 26 H 5.09544 -0.880898 0.496672 0
M  V30 27 H 3.81966 -1.7233 -1.44531 0
M  V30 28 H 1.72769 -1.94851 -2.58052 0
M  V30 29 H -0.752092 -1.52914 -2.7098 0
M  V30 30 H -1.85209 1.30507 -2.27576 0
M  V30 31 H -2.72836 1.79457 -0.859199 0
M  V30 END ATOM
M  V30 BEGIN BOND
M  V30 1 1 1 2
M  V30 2 1 2 3
M  V30 3 1 3 4
M  V30 4 1 4 5
M  V30 5 1 5 6
M  V30 6 2 6 7
M  V30 7 1 7 8
M  V30 8 2 8 9
M  V30 9 1 9 10
M  V30 10 2 10 11
M  V30 11 1 11 12
M  V30 12 2 12 13
M  V30 13 1 13 14
M  V30 14 2 14 15
M  V30 15 1 5 16
M  V30 16 1 7 2
M  V30 17 1 13 8
M  V30 18 1 15 6
M  V30 19 1 1 17
M  V30 20 1 1 18
M  V30 21 1 2 19 CFG=1
M  V30 22 1 3 20
M  V30 23 1 3 21
M  V30 24 1 4 22
M  V30 25 1 4 23
M  V30 26 1 5 24 CFG=3
M  V30 27 1 10 25
M  V30 28 1 11 26
M  V30 29 1 12 27
M  V30 30 1 14 28
M  V30 31 1 15 29
M  V30 32 1 16 30
M  V30 33 1 16 31
M  V30 END BOND
M  V30 END CTAB
M  END
