
     RDKit          3D

  0  0  0  0  0  0  0  0  0  0999 V3000
M  V30 BEGIN CTAB
M  V30 COUNTS 31 30 0 0 0
M  V30 BEGIN ATOM
M  V30 1 N 3.19622 0.933579 -1.73843 0
M  V30 2 O 2.87958 -0.114831 -0.951078 0
M  V30 3 C 2.73831 0.323489 0.360593 0
M  V30 4 C 2.38443 -0.834643 1.25441 0
M  V30 5 C 1.09251 -1.50685 0.860757 0 CFG=1
M  V30 6 C -0.0661118 -0.600906 0.90437 0
M  V30 7 O -0.3898 0.0911028 1.88934 0
M  V30 8 O -0.882506 -0.483881 -0.220309 0
M  V30 9 C -2.00661 0.344029 -0.291039 0
M  V30 10 C -2.58592 0.151934 -1.69888 0
M  V30 11 C -3.09586 -0.0710026 0.679046 0
M  V30 12 C -1.72504 1.79757 -0.144754 0
M  V30 13 N 1.18099 -2.15529 -0.427257 0
M  V30 14 H 4.17346 0.90788 -2.02289 0
M  V30 15 H 2.96963 1.81782 -1.24843 0
M  V30 16 H 1.91805 1.08471 0.383055 0
M  V30 17 H 3.65874 0.781301 0.76731 0
M  V30 18 H 2.38152 -0.589474 2.3137 0
M  V30 19 H 3.19091 -1.60536 1.10298 0
M  V30 20 H 0.927542 -2.3203 1.61514 0
M  V30 21 H -3.175 -0.767717 -1.77317 0
M  V30 22 H -1.71218 0.0634749 -2.37668 0
M  V30 23 H -3.13169 1.06502 -2.009 0
M  V30 24 H -3.55452 0.843503 1.12861 0
M  V30 25 H -2.71196 -0.707335 1.48735 0
M  V30 26 H -3.92334 -0.607967 0.170929 0
M  V30 27 H -1.59118 2.31139 -1.12518 0
M  V30 28 H -2.64217 2.2793 0.301242 0
M  V30 29 H -0.870636 2.05727 0.479043 0
M  V30 30 H 0.495403 -2.95977 -0.411034 0
M  V30 31 H 0.877238 -1.52805 -1.20718 0
M  V30 END ATOM
M  V30 BEGIN BOND
M  V30 1 1 1 2
M  V30 2 1 2 3
M  V30 3 1 3 4
M  V30 4 1 4 5
M  V30 5 1 5 6
M  V30 6 2 6 7
M  V30 7 1 6 8
M  V30 8 1 8 9
M  V30 9 1 9 10
M  V30 10 1 9 11
M  V30 11 1 9 12
M  V30 12 1 5 13
M  V30 13 1 1 14
M  V30 14 1 1 15
M  V30 15 1 3 16
M  V30 16 1 3 17
M  V30 17 1 4 18
M  V30 18 1 4 19
M  V30 19 1 5 20 CFG=1
M  V30 20 1 10 21
M  V30 21 1 10 22
M  V30 22 1 10 23
M  V30 23 1 11 24
M  V30 24 1 11 25
M  V30 25 1 11 26
M  V30 26 1 12 27
M  V30 27 1 12 28
M  V30 28 1 12 29
M  V30 29 1 13 30
M  V30 30 1 13 31
M  V30 END BOND
M  V30 END CTAB
M  END
