
     RDKit          3D

  0  0  0  0  0  0  0  0  0  0999 V3000
M  V30 BEGIN CTAB
M  V30 COUNTS 32 33 0 0 0
M  V30 BEGIN ATOM
M  V30 1 N -4.20807 -1.1868 1.89628 0
M  V30 2 C -3.87957 -0.529441 0.6859 0
M  V30 3 N -4.55236 -0.497091 -0.402675 0
M  V30 4 N -3.91152 0.253561 -1.38061 0
M  V30 5 C -2.67054 0.761554 -0.830317 0
M  V30 6 O -1.82331 1.47411 -1.3882 0
M  V30 7 C -2.64026 0.251634 0.524177 0
M  V30 8 N -1.70915 0.48251 1.36203 0
M  V30 9 N -0.557168 1.21759 1.16735 0
M  V30 10 C 0.710782 0.719693 0.813717 0
M  V30 11 C 1.17992 -0.397102 1.49322 0
M  V30 12 C 2.41759 -0.904614 1.16072 0
M  V30 13 C 3.15861 -0.301766 0.168624 0
M  V30 14 C 2.68699 0.790873 -0.493144 0
M  V30 15 C 1.46149 1.28833 -0.156803 0
M  V30 16 S 4.75938 -0.897518 -0.266606 0
M  V30 17 O 4.82356 -2.34689 0.172912 0
M  V30 18 O 5.04694 -0.804693 -1.71704 0
M  V30 19 N 5.96328 0.0193935 0.615237 0
M  V30 20 C -4.27697 0.56595 -2.74918 0
M  V30 21 H -3.84475 -2.12887 2.1525 0
M  V30 22 H -4.84537 -0.715104 2.56293 0
M  V30 23 H -0.62457 2.26553 1.2844 0
M  V30 24 H 0.584015 -0.865293 2.28427 0
M  V30 25 H 2.83744 -1.77889 1.65498 0
M  V30 26 H 3.27514 1.26363 -1.30061 0
M  V30 27 H 1.0806 2.17466 -0.69024 0
M  V30 28 H 6.87592 -0.15611 0.171359 0
M  V30 29 H 5.68589 1.02925 0.575395 0
M  V30 30 H -5.17771 0.0139956 -3.05469 0
M  V30 31 H -4.41367 1.65773 -2.91839 0
M  V30 32 H -3.41255 0.261036 -3.39749 0
M  V30 END ATOM
M  V30 BEGIN BOND
M  V30 1 1 1 2
M  V30 2 2 2 3
M  V30 3 1 3 4
M  V30 4 1 4 5
M  V30 5 2 5 6
M  V30 6 1 5 7
M  V30 7 2 7 8
M  V30 8 1 8 9
M  V30 9 1 9 10
M  V30 10 2 10 11
M  V30 11 1 11 12
M  V30 12 2 12 13
M  V30 13 1 13 14
M  V30 14 2 14 15
M  V30 15 1 13 16
M  V30 16 2 16 17
M  V30 17 2 16 18
M  V30 18 1 16 19
M  V30 19 1 4 20
M  V30 20 1 7 2
M  V30 21 1 15 10
M  V30 22 1 1 21
M  V30 23 1 1 22
M  V30 24 1 9 23
M  V30 25 1 11 24
M  V30 26 1 12 25
M  V30 27 1 14 26
M  V30 28 1 15 27
M  V30 29 1 19 28
M  V30 30 1 19 29
M  V30 31 1 20 30
M  V30 32 1 20 31
M  V30 33 1 20 32
M  V30 END BOND
M  V30 END CTAB
M  END
