
     RDKit          3D

  0  0  0  0  0  0  0  0  0  0999 V3000
M  V30 BEGIN CTAB
M  V30 COUNTS 27 27 0 0 0
M  V30 BEGIN ATOM
M  V30 1 O -2.71912 1.51544 -0.889918 0
M  V30 2 C -1.54768 0.790089 -0.837407 0
M  V30 3 C -1.91089 -0.646535 -1.24317 0
M  V30 4 C -2.96108 -0.91561 -0.165409 0
M  V30 5 C -2.23739 -0.449494 1.07133 0
M  V30 6 C -1.17306 0.527058 0.621397 0
M  V30 7 S 0.4694 -0.220884 0.584177 0
M  V30 8 C 1.71544 0.88856 0.0375252 0
M  V30 9 N 2.9423 0.543698 -0.0769406 0
M  V30 10 C 3.3689 -0.767331 0.234587 0
M  V30 11 N 2.73514 -1.55699 1.0253 0
M  V30 12 N 4.59173 -1.21439 -0.387748 0
M  V30 13 N 1.31317 2.23523 -0.288935 0
M  V30 14 H -2.9166 1.96207 -0.0178353 0
M  V30 15 H -0.736184 1.18622 -1.43756 0
M  V30 16 H -1.03808 -1.29037 -1.02646 0
M  V30 17 H -2.29683 -0.707992 -2.25699 0
M  V30 18 H -3.80679 -0.208783 -0.358507 0
M  V30 19 H -3.28969 -1.95176 -0.129037 0
M  V30 20 H -1.77687 -1.34866 1.52985 0
M  V30 21 H -2.98008 0.013788 1.74675 0
M  V30 22 H -1.19046 1.4767 1.20135 0
M  V30 23 H 3.04399 -2.51507 1.2559 0
M  V30 24 H 5.44788 -1.29245 0.167327 0
M  V30 25 H 4.6029 -1.45897 -1.40988 0
M  V30 26 H 1.81423 2.71929 -1.0648 0
M  V30 27 H 0.535747 2.68714 0.259478 0
M  V30 END ATOM
M  V30 BEGIN BOND
M  V30 1 1 1 2
M  V30 2 1 2 3
M  V30 3 1 3 4
M  V30 4 1 4 5
M  V30 5 1 5 6
M  V30 6 1 6 7
M  V30 7 1 7 8
M  V30 8 2 8 9 CFG=2
M  V30 9 1 9 10
M  V30 10 2 10 11 CFG=2
M  V30 11 1 10 12
M  V30 12 1 8 13
M  V30 13 1 6 2
M  V30 14 1 1 14
M  V30 15 1 2 15
M  V30 16 1 3 16
M  V30 17 1 3 17
M  V30 18 1 4 18
M  V30 19 1 4 19
M  V30 20 1 5 20
M  V30 21 1 5 21
M  V30 22 1 6 22
M  V30 23 1 11 23
M  V30 24 1 12 24
M  V30 25 1 12 25
M  V30 26 1 13 26
M  V30 27 1 13 27
M  V30 END BOND
M  V30 END CTAB
M  END
