
     RDKit          3D

  0  0  0  0  0  0  0  0  0  0999 V3000
M  V30 BEGIN CTAB
M  V30 COUNTS 44 45 0 0 0
M  V30 BEGIN ATOM
M  V30 1 C -5.78766 0.052309 1.33953 0
M  V30 2 C -4.31125 0.200202 1.22693 0
M  V30 3 C -3.49012 -0.230049 2.24268 0
M  V30 4 C -2.11504 -0.090998 2.13195 0
M  V30 5 C -1.50824 0.468301 1.03045 0
M  V30 6 C -2.34913 0.906169 -0.00163056 0
M  V30 7 C -3.69564 0.76046 0.128058 0
M  V30 8 C -1.75931 1.52268 -1.20676 0
M  V30 9 C -2.83394 2.03136 -2.15355 0
M  V30 10 C -1.0427 0.424142 -1.99716 0
M  V30 11 O -0.161987 0.604176 0.926996 0
M  V30 12 C 0.873901 0.256572 1.74674 0
M  V30 13 C 1.00009 -1.22764 1.92272 0
M  V30 14 S 1.30016 -2.03492 0.308602 0
M  V30 15 C 2.88365 -1.54904 -0.337016 0
M  V30 16 N 4.02824 -2.22867 -0.0570775 0
M  V30 17 C 5.19313 -1.80598 -0.583645 0
M  V30 18 N 6.4008 -2.51032 -0.29609 0
M  V30 19 C 5.25959 -0.698596 -1.40261 0
M  V30 20 C 4.09125 -0.0235145 -1.67474 0
M  V30 21 N 2.95412 -0.473591 -1.13335 0
M  V30 22 N 4.01954 1.12964 -2.5029 0
M  V30 23 H -6.12531 -0.968842 1.05952 0
M  V30 24 H -6.33222 0.750751 0.68704 0
M  V30 25 H -6.05872 0.249249 2.38243 0
M  V30 26 H -3.93192 -0.683109 3.13983 0
M  V30 27 H -1.51295 -0.426443 2.98458 0
M  V30 28 H -4.38647 1.09502 -0.667155 0
M  V30 29 H -1.0296 2.33244 -0.971374 0
M  V30 30 H -2.42499 2.45373 -3.06804 0
M  V30 31 H -3.41492 1.11925 -2.46007 0
M  V30 32 H -3.48447 2.70361 -1.57278 0
M  V30 33 H -0.930873 0.834601 -3.03448 0
M  V30 34 H -0.0963306 0.130476 -1.55242 0
M  V30 35 H -1.77557 -0.404363 -2.07454 0
M  V30 36 H 0.810077 0.748535 2.76791 0
M  V30 37 H 1.83509 0.658022 1.29561 0
M  V30 38 H 1.88967 -1.47108 2.57529 0
M  V30 39 H 0.165635 -1.74688 2.38301 0
M  V30 40 H 6.37298 -3.36283 0.300052 0
M  V30 41 H 7.31877 -2.20742 -0.658673 0
M  V30 42 H 6.16873 -0.327632 -1.84417 0
M  V30 43 H 3.7786 0.995483 -3.50539 0
M  V30 44 H 4.21535 2.04474 -2.04744 0
M  V30 END ATOM
M  V30 BEGIN BOND
M  V30 1 1 1 2
M  V30 2 2 2 3
M  V30 3 1 3 4
M  V30 4 2 4 5
M  V30 5 1 5 6
M  V30 6 2 6 7
M  V30 7 1 6 8
M  V30 8 1 8 9
M  V30 9 1 8 10
M  V30 10 1 5 11
M  V30 11 1 11 12
M  V30 12 1 12 13
M  V30 13 1 13 14
M  V30 14 1 14 15
M  V30 15 2 15 16
M  V30 16 1 16 17
M  V30 17 1 17 18
M  V30 18 2 17 19
M  V30 19 1 19 20
M  V30 20 2 20 21
M  V30 21 1 20 22
M  V30 22 1 7 2
M  V30 23 1 21 15
M  V30 24 1 1 23
M  V30 25 1 1 24
M  V30 26 1 1 25
M  V30 27 1 3 26
M  V30 28 1 4 27
M  V30 29 1 7 28
M  V30 30 1 8 29
M  V30 31 1 9 30
M  V30 32 1 9 31
M  V30 33 1 9 32
M  V30 34 1 10 33
M  V30 35 1 10 34
M  V30 36 1 10 35
M  V30 37 1 12 36
M  V30 38 1 12 37
M  V30 39 1 13 38
M  V30 40 1 13 39
M  V30 41 1 18 40
M  V30 42 1 18 41
M  V30 43 1 19 42
M  V30 44 1 22 43
M  V30 45 1 22 44
M  V30 END BOND
M  V30 END CTAB
M  END
