
     RDKit          3D

  0  0  0  0  0  0  0  0  0  0999 V3000
M  V30 BEGIN CTAB
M  V30 COUNTS 28 29 0 0 0
M  V30 BEGIN ATOM
M  V30 1 N -4.5126 -1.03762 -0.86665 0
M  V30 2 C -3.63994 -0.321561 0.0255329 0
M  V30 3 N -3.14395 0.949755 -0.304081 0
M  V30 4 N -3.32258 -0.87656 1.13934 0
M  V30 5 C -2.4642 -0.182747 2.02709 0
M  V30 6 O -2.95492 0.263865 3.09183 0
M  V30 7 C -1.05221 0.013075 1.72454 0
M  V30 8 C -0.154471 0.672583 2.52965 0
M  V30 9 C 1.0629 0.638074 1.8897 0
M  V30 10 C 0.861568 -0.0454092 0.710616 0
M  V30 11 O -0.381684 -0.384905 0.665507 0
M  V30 12 C 1.90258 -0.315559 -0.285264 0
M  V30 13 C 1.56121 -1.01204 -1.42233 0
M  V30 14 C 2.55669 -1.25451 -2.34505 0
M  V30 15 C 3.85155 -0.839467 -2.18351 0
M  V30 16 C 4.17851 -0.137541 -1.02948 0
M  V30 17 F 5.46494 0.278098 -0.862839 0
M  V30 18 C 3.19489 0.115152 -0.0933015 0
M  V30 19 H -4.06266 -1.62112 -1.57722 0
M  V30 20 H -5.52815 -0.900855 -0.712987 0
M  V30 21 H -2.84114 1.63892 0.41909 0
M  V30 22 H -3.08866 1.1851 -1.33519 0
M  V30 23 H -0.337709 1.14896 3.50443 0
M  V30 24 H 1.99425 1.07419 2.26243 0
M  V30 25 H 0.548332 -1.36872 -1.60838 0
M  V30 26 H 2.27961 -1.80414 -3.23874 0
M  V30 27 H 4.58047 -1.05978 -2.93891 0
M  V30 28 H 3.44739 0.665953 0.814185 0
M  V30 END ATOM
M  V30 BEGIN BOND
M  V30 1 1 1 2
M  V30 2 1 2 3
M  V30 3 2 2 4
M  V30 4 1 4 5
M  V30 5 2 5 6
M  V30 6 1 5 7
M  V30 7 2 7 8
M  V30 8 1 8 9
M  V30 9 2 9 10
M  V30 10 1 10 11
M  V30 11 1 10 12
M  V30 12 2 12 13
M  V30 13 1 13 14
M  V30 14 2 14 15
M  V30 15 1 15 16
M  V30 16 1 16 17
M  V30 17 2 16 18
M  V30 18 1 11 7
M  V30 19 1 18 12
M  V30 20 1 1 19
M  V30 21 1 1 20
M  V30 22 1 3 21
M  V30 23 1 3 22
M  V30 24 1 8 23
M  V30 25 1 9 24
M  V30 26 1 13 25
M  V30 27 1 14 26
M  V30 28 1 15 27
M  V30 29 1 18 28
M  V30 END BOND
M  V30 END CTAB
M  END
