
     RDKit          3D

  0  0  0  0  0  0  0  0  0  0999 V3000
M  V30 BEGIN CTAB
M  V30 COUNTS 22 22 0 0 0
M  V30 BEGIN ATOM
M  V30 1 N -3.41168 -0.344139 -1.2559 0
M  V30 2 C -3.01514 -0.271248 0.119369 0
M  V30 3 C -1.51724 -0.343632 0.26798 0
M  V30 4 N -0.841578 0.730632 -0.41825 0
M  V30 5 C 0.578172 0.780221 -0.357887 0
M  V30 6 N 1.26447 1.75588 -0.976301 0
M  V30 7 C 2.60112 1.83041 -0.938413 0
M  V30 8 N 3.27063 0.897035 -0.258897 0
M  V30 9 C 2.66329 -0.11291 0.388078 0
M  V30 10 C 1.2952 -0.169556 0.335937 0
M  V30 11 N 3.40976 -1.10035 1.10945 0
M  V30 12 H -4.31783 -0.844565 -1.40611 0
M  V30 13 H -2.69991 -0.808599 -1.86573 0
M  V30 14 H -3.44893 -1.14946 0.640622 0
M  V30 15 H -3.45758 0.620512 0.563499 0
M  V30 16 H -1.16669 -1.30394 -0.16178 0
M  V30 17 H -1.22048 -0.355513 1.33679 0
M  V30 18 H -1.33019 1.47049 -0.954136 0
M  V30 19 H 3.16666 2.61583 -1.43537 0
M  V30 20 H 0.81428 -0.987361 0.86057 0
M  V30 21 H 4.29339 -0.830806 1.54231 0
M  V30 22 H 3.07026 -2.07893 1.19927 0
M  V30 END ATOM
M  V30 BEGIN BOND
M  V30 1 1 1 2
M  V30 2 1 2 3
M  V30 3 1 3 4
M  V30 4 1 4 5
M  V30 5 2 5 6
M  V30 6 1 6 7
M  V30 7 2 7 8
M  V30 8 1 8 9
M  V30 9 2 9 10
M  V30 10 1 9 11
M  V30 11 1 10 5
M  V30 12 1 1 12
M  V30 13 1 1 13
M  V30 14 1 2 14
M  V30 15 1 2 15
M  V30 16 1 3 16
M  V30 17 1 3 17
M  V30 18 1 4 18
M  V30 19 1 7 19
M  V30 20 1 10 20
M  V30 21 1 11 21
M  V30 22 1 11 22
M  V30 END BOND
M  V30 END CTAB
M  END
