
     RDKit          3D

  0  0  0  0  0  0  0  0  0  0999 V3000
M  V30 BEGIN CTAB
M  V30 COUNTS 16 16 0 0 0
M  V30 BEGIN ATOM
M  V30 1 N 2.43756 -0.990601 0.0597196 0
M  V30 2 C 1.21051 -0.248915 0.053523 0
M  V30 3 C 1.19398 1.12673 0.18931 0
M  V30 4 Cl 2.72552 1.95986 0.372038 0
M  V30 5 C -0.0101972 1.79422 0.177222 0
M  V30 6 C -1.20839 1.15547 0.0355657 0
M  V30 7 Cl -2.74609 2.00384 0.0197272 0
M  V30 8 C -1.19992 -0.217053 -0.100436 0
M  V30 9 N -2.4116 -0.94245 -0.251585 0
M  V30 10 C 0.00452681 -0.911035 -0.0909665 0
M  V30 11 Cl 0.0452929 -2.64986 -0.261305 0
M  V30 12 H 2.94746 -1.19603 -0.84408 0
M  V30 13 H 2.80954 -1.31957 0.979951 0
M  V30 14 H -0.0334764 2.87702 0.283434 0
M  V30 15 H -3.28637 -0.479629 -0.57476 0
M  V30 16 H -2.47833 -1.96199 -0.0473582 0
M  V30 END ATOM
M  V30 BEGIN BOND
M  V30 1 1 1 2
M  V30 2 2 2 3
M  V30 3 1 3 4
M  V30 4 1 3 5
M  V30 5 2 5 6
M  V30 6 1 6 7
M  V30 7 1 6 8
M  V30 8 1 8 9
M  V30 9 2 8 10
M  V30 10 1 10 11
M  V30 11 1 10 2
M  V30 12 1 1 12
M  V30 13 1 1 13
M  V30 14 1 5 14
M  V30 15 1 9 15
M  V30 16 1 9 16
M  V30 END BOND
M  V30 END CTAB
M  END
