
     RDKit          3D

  0  0  0  0  0  0  0  0  0  0999 V3000
M  V30 BEGIN CTAB
M  V30 COUNTS 76 78 0 0 0
M  V30 BEGIN ATOM
M  V30 1 C 7.43131 -0.77828 -1.37113 0
M  V30 2 O 6.67128 -0.0574583 -0.405613 0
M  V30 3 C 5.39644 -0.423873 -0.0449798 0
M  V30 4 O 4.96613 -1.48021 -0.661053 0
M  V30 5 C 4.5099 0.217915 0.903742 0 CFG=2
M  V30 6 C 4.82547 0.193317 2.34911 0
M  V30 7 C 6.05348 0.784727 2.88618 0
M  V30 8 S 7.60186 0.0496695 2.40675 0
M  V30 9 C 7.80889 -1.62221 3.05752 0
M  V30 10 N 3.16642 -0.422288 0.784663 0
M  V30 11 C 2.00224 0.348404 0.525419 0
M  V30 12 O 2.17183 1.57761 0.409008 0
M  V30 13 C 0.723295 -0.288855 0.411384 0
M  V30 14 N -0.446665 0.461646 0.135413 0
M  V30 15 C -1.62836 -0.379761 0.231154 0
M  V30 16 C -1.74919 -1.50507 -0.690586 0 CFG=2
M  V30 17 C -1.80456 -1.19115 -2.14696 0
M  V30 18 C -2.41746 -2.44766 -2.79558 0
M  V30 19 C -2.81451 -3.29928 -1.57377 0
M  V30 20 N -2.97699 -2.2923 -0.552831 0
M  V30 21 C -4.03091 -2.10635 0.311695 0
M  V30 22 O -4.00479 -1.08043 1.09841 0
M  V30 23 C -5.22766 -2.93274 0.480465 0 CFG=1
M  V30 24 N -5.23869 -4.23783 -0.043763 0
M  V30 25 C -5.69547 -2.89695 1.94318 0
M  V30 26 N -6.88362 -3.75307 1.99351 0
M  V30 27 C -0.458128 1.50731 -0.776403 0
M  V30 28 C -1.35529 2.66605 -0.43907 0
M  V30 29 C -1.45565 3.69356 -1.35768 0
M  V30 30 C -0.798956 3.60272 -2.56432 0
M  V30 31 C -0.936315 4.65436 -3.45028 0
M  V30 32 C -1.70042 5.76348 -3.15335 0
M  V30 33 C -2.354 5.84772 -1.9462 0
M  V30 34 C -2.23692 4.80842 -1.03335 0
M  V30 35 C -2.89706 4.88579 0.176401 0
M  V30 36 C -2.77866 3.84756 1.06955 0
M  V30 37 C -2.01169 2.75348 0.752579 0
M  V30 38 H 6.83389 -0.874846 -2.28635 0
M  V30 39 H 8.36833 -0.219262 -1.57583 0
M  V30 40 H 7.69345 -1.75462 -0.910003 0
M  V30 41 H 4.36673 1.31564 0.636246 0
M  V30 42 H 3.95856 0.728175 2.88208 0
M  V30 43 H 4.75181 -0.861116 2.77134 0
M  V30 44 H 6.05211 1.90761 2.70647 0
M  V30 45 H 5.98129 0.740578 4.02161 0
M  V30 46 H 7.33201 -2.33227 2.35467 0
M  V30 47 H 7.39998 -1.72 4.09863 0
M  V30 48 H 8.91295 -1.82202 3.14092 0
M  V30 49 H 3.16319 -1.44948 0.905718 0
M  V30 50 H 0.525968 -0.810885 1.40703 0
M  V30 51 H 0.749654 -1.16675 -0.301229 0
M  V30 52 H -1.66457 -0.711496 1.27985 0
M  V30 53 H -2.47979 0.323766 -0.0183284 0
M  V30 54 H -0.943501 -2.29892 -0.496217 0
M  V30 55 H -2.56273 -0.363986 -2.27571 0
M  V30 56 H -0.861391 -1.0073 -2.65058 0
M  V30 57 H -1.71545 -2.95901 -3.45267 0
M  V30 58 H -3.37292 -2.19749 -3.31199 0
M  V30 59 H -3.69165 -3.89387 -1.8122 0
M  V30 60 H -1.92668 -3.92933 -1.31624 0
M  V30 61 H -6.07373 -2.37693 -0.0547392 0
M  V30 62 H -5.81913 -4.42311 -0.856689 0
M  V30 63 H -4.49717 -4.88576 0.208301 0
M  V30 64 H -4.92108 -3.19326 2.64881 0
M  V30 65 H -6.01665 -1.86682 2.14835 0
M  V30 66 H -7.75867 -3.21426 2.16875 0
M  V30 67 H -6.69013 -4.47922 2.7176 0
M  V30 68 H 0.533692 1.88563 -1.13717 0
M  V30 69 H -0.908099 1.15213 -1.74866 0
M  V30 70 H -0.206283 2.72943 -2.78532 0
M  V30 71 H -0.44339 4.62494 -4.40105 0
M  V30 72 H -1.82796 6.60543 -3.827 0
M  V30 73 H -2.96233 6.68518 -1.65888 0
M  V30 74 H -3.49587 5.76796 0.391069 0
M  V30 75 H -3.28148 3.89886 1.99993 0
M  V30 76 H -1.92956 1.97875 1.47027 0
M  V30 END ATOM
M  V30 BEGIN BOND
M  V30 1 1 1 2
M  V30 2 1 2 3
M  V30 3 2 3 4
M  V30 4 1 3 5
M  V30 5 1 5 6
M  V30 6 1 6 7
M  V30 7 1 7 8
M  V30 8 1 8 9
M  V30 9 1 5 10
M  V30 10 1 10 11
M  V30 11 2 11 12
M  V30 12 1 11 13
M  V30 13 1 13 14
M  V30 14 1 14 15
M  V30 15 1 15 16
M  V30 16 1 16 17
M  V30 17 1 17 18
M  V30 18 1 18 19
M  V30 19 1 19 20
M  V30 20 1 20 21
M  V30 21 2 21 22
M  V30 22 1 21 23
M  V30 23 1 23 24
M  V30 24 1 23 25
M  V30 25 1 25 26
M  V30 26 1 14 27
M  V30 27 1 27 28
M  V30 28 1 28 29
M  V30 29 2 29 30
M  V30 30 1 30 31
M  V30 31 2 31 32
M  V30 32 1 32 33
M  V30 33 2 33 34
M  V30 34 1 34 35
M  V30 35 2 35 36
M  V30 36 1 36 37
M  V30 37 1 20 16
M  V30 38 2 37 28
M  V30 39 1 34 29
M  V30 40 1 1 38
M  V30 41 1 1 39
M  V30 42 1 1 40
M  V30 43 1 5 41 CFG=3
M  V30 44 1 6 42
M  V30 45 1 6 43
M  V30 46 1 7 44
M  V30 47 1 7 45
M  V30 48 1 9 46
M  V30 49 1 9 47
M  V30 50 1 9 48
M  V30 51 1 10 49
M  V30 52 1 13 50
M  V30 53 1 13 51
M  V30 54 1 15 52
M  V30 55 1 15 53
M  V30 56 1 16 54 CFG=3
M  V30 57 1 17 55
M  V30 58 1 17 56
M  V30 59 1 18 57
M  V30 60 1 18 58
M  V30 61 1 19 59
M  V30 62 1 19 60
M  V30 63 1 23 61 CFG=3
M  V30 64 1 24 62
M  V30 65 1 24 63
M  V30 66 1 25 64
M  V30 67 1 25 65
M  V30 68 1 26 66
M  V30 69 1 26 67
M  V30 70 1 27 68
M  V30 71 1 27 69
M  V30 72 1 30 70
M  V30 73 1 31 71
M  V30 74 1 32 72
M  V30 75 1 33 73
M  V30 76 1 35 74
M  V30 77 1 36 75
M  V30 78 1 37 76
M  V30 END BOND
M  V30 END CTAB
M  END
