
     RDKit          3D

  0  0  0  0  0  0  0  0  0  0999 V3000
M  V30 BEGIN CTAB
M  V30 COUNTS 50 51 0 0 0
M  V30 BEGIN ATOM
M  V30 1 N 5.59886 -0.334987 2.51587 0
M  V30 2 C 5.56372 -1.54213 1.67861 0
M  V30 3 C 4.79778 -1.14162 0.421968 0
M  V30 4 N 5.53462 -0.0644555 -0.188839 0
M  V30 5 S 4.79756 0.508632 -1.63155 0
M  V30 6 O 5.65511 1.6236 -2.16442 0
M  V30 7 O 4.7456 -0.547674 -2.69661 0
M  V30 8 C 3.22697 1.13249 -1.293 0
M  V30 9 C 3.03009 2.45133 -0.966263 0
M  V30 10 C 1.75547 2.93192 -0.697193 0
M  V30 11 C 0.662466 2.08291 -0.755428 0
M  V30 12 C 0.818698 0.774206 -1.0751 0
M  V30 13 C 2.12625 0.326776 -1.34052 0
M  V30 14 N -0.253855 -0.12231 -1.16156 0
M  V30 15 C -1.6377 0.158991 -1.1361 0
M  V30 16 O -2.13653 1.30205 -1.03161 0
M  V30 17 C -2.61909 -0.9599 -1.24056 0
M  V30 18 C -4.03761 -0.562272 -1.07668 0
M  V30 19 C -4.40786 0.0581264 0.210091 0
M  V30 20 C -4.8157 1.37152 0.286773 0
M  V30 21 C -5.16123 1.95663 1.48318 0
M  V30 22 C -5.1094 1.23875 2.65307 0
M  V30 23 C -4.70057 -0.0699149 2.55665 0
M  V30 24 C -4.35167 -0.671312 1.37149 0
M  V30 25 N -4.8552 -1.79253 -1.26444 0
M  V30 26 C -2.15949 -2.10477 -0.392023 0
M  V30 27 H 5.70405 0.482543 1.87103 0
M  V30 28 H 4.66452 -0.255204 2.95827 0
M  V30 29 H 6.58665 -1.86421 1.46599 0
M  V30 30 H 4.99397 -2.30618 2.26084 0
M  V30 31 H 4.67953 -2.02573 -0.20615 0
M  V30 32 H 3.82561 -0.747658 0.768427 0
M  V30 33 H 6.53707 -0.262754 -0.309243 0
M  V30 34 H 3.88463 3.10131 -0.9239 0
M  V30 35 H 1.66249 3.97971 -0.445515 0
M  V30 36 H -0.28892 2.5552 -0.521217 0
M  V30 37 H 2.23611 -0.713484 -1.59341 0
M  V30 38 H 0.0134594 -1.14699 -1.25639 0
M  V30 39 H -2.52023 -1.31159 -2.3199 0
M  V30 40 H -4.31922 0.088831 -1.93057 0
M  V30 41 H -4.88472 2.00136 -0.618766 0
M  V30 42 H -5.48132 2.99967 1.51867 0
M  V30 43 H -5.37859 1.68955 3.59649 0
M  V30 44 H -4.66608 -0.621437 3.49241 0
M  V30 45 H -4.04916 -1.71036 1.42349 0
M  V30 46 H -4.38786 -2.36641 -1.9936 0
M  V30 47 H -4.90227 -2.26808 -0.341586 0
M  V30 48 H -2.92725 -2.90342 -0.298201 0
M  V30 49 H -1.32095 -2.61621 -0.950871 0
M  V30 50 H -1.72878 -1.78249 0.565998 0
M  V30 END ATOM
M  V30 BEGIN BOND
M  V30 1 1 1 2
M  V30 2 1 2 3
M  V30 3 1 3 4
M  V30 4 1 4 5
M  V30 5 2 5 6
M  V30 6 2 5 7
M  V30 7 1 5 8
M  V30 8 2 8 9
M  V30 9 1 9 10
M  V30 10 2 10 11
M  V30 11 1 11 12
M  V30 12 2 12 13
M  V30 13 1 12 14
M  V30 14 1 14 15
M  V30 15 2 15 16
M  V30 16 1 15 17
M  V30 17 1 17 18
M  V30 18 1 18 19
M  V30 19 2 19 20
M  V30 20 1 20 21
M  V30 21 2 21 22
M  V30 22 1 22 23
M  V30 23 2 23 24
M  V30 24 1 18 25
M  V30 25 1 17 26
M  V30 26 1 13 8
M  V30 27 1 24 19
M  V30 28 1 1 27
M  V30 29 1 1 28
M  V30 30 1 2 29
M  V30 31 1 2 30
M  V30 32 1 3 31
M  V30 33 1 3 32
M  V30 34 1 4 33
M  V30 35 1 9 34
M  V30 36 1 10 35
M  V30 37 1 11 36
M  V30 38 1 13 37
M  V30 39 1 14 38
M  V30 40 1 17 39
M  V30 41 1 18 40
M  V30 42 1 20 41
M  V30 43 1 21 42
M  V30 44 1 22 43
M  V30 45 1 23 44
M  V30 46 1 24 45
M  V30 47 1 25 46
M  V30 48 1 25 47
M  V30 49 1 26 48
M  V30 50 1 26 49
M  V30 51 1 26 50
M  V30 END BOND
M  V30 END CTAB
M  END
