
     RDKit          3D

  0  0  0  0  0  0  0  0  0  0999 V3000
M  V30 BEGIN CTAB
M  V30 COUNTS 27 29 0 0 0
M  V30 BEGIN ATOM
M  V30 1 N -2.88247 2.53234 0.955254 0
M  V30 2 C -2.45294 1.24261 0.537059 0
M  V30 3 N -1.15804 0.921411 0.391621 0
M  V30 4 C -0.816829 -0.326518 -0.0104477 0
M  V30 5 C -1.76762 -1.28782 -0.27799 0
M  V30 6 N -1.09075 -2.3945 -0.647551 0
M  V30 7 C 0.228962 -2.1386 -0.613396 0
M  V30 8 N 0.408726 -0.866559 -0.221899 0
M  V30 9 C 1.65196 -0.168792 -0.0469234 0
M  V30 10 C 1.82777 1.13288 -0.414401 0
M  V30 11 C 3.04191 1.76099 -0.226128 0
M  V30 12 C 4.12414 1.11472 0.33494 0
M  V30 13 C 3.94312 -0.202174 0.705694 0
M  V30 14 C 2.73065 -0.835609 0.519695 0
M  V30 15 C -3.08316 -0.944791 -0.125008 0
M  V30 16 N -4.05612 -1.94922 -0.405258 0
M  V30 17 N -3.37935 0.282254 0.268965 0
M  V30 18 H -3.16394 3.21533 0.219961 0
M  V30 19 H -2.93845 2.85043 1.94349 0
M  V30 20 H 1.05934 -2.81967 -0.855204 0
M  V30 21 H 0.986973 1.66893 -0.86137 0
M  V30 22 H 3.16177 2.79343 -0.523934 0
M  V30 23 H 5.08436 1.61945 0.481245 0
M  V30 24 H 4.7919 -0.723596 1.15047 0
M  V30 25 H 2.59464 -1.88685 0.818406 0
M  V30 26 H -4.85094 -1.6718 -1.02221 0
M  V30 27 H -3.9956 -2.91827 -0.0232809 0
M  V30 END ATOM
M  V30 BEGIN BOND
M  V30 1 1 1 2
M  V30 2 2 2 3
M  V30 3 1 3 4
M  V30 4 2 4 5
M  V30 5 1 5 6
M  V30 6 2 6 7
M  V30 7 1 7 8
M  V30 8 1 8 9
M  V30 9 2 9 10
M  V30 10 1 10 11
M  V30 11 2 11 12
M  V30 12 1 12 13
M  V30 13 2 13 14
M  V30 14 1 5 15
M  V30 15 1 15 16
M  V30 16 2 15 17
M  V30 17 1 17 2
M  V30 18 1 8 4
M  V30 19 1 14 9
M  V30 20 1 1 18
M  V30 21 1 1 19
M  V30 22 1 7 20
M  V30 23 1 10 21
M  V30 24 1 11 22
M  V30 25 1 12 23
M  V30 26 1 13 24
M  V30 27 1 14 25
M  V30 28 1 16 26
M  V30 29 1 16 27
M  V30 END BOND
M  V30 END CTAB
M  END
