
     RDKit          3D

  0  0  0  0  0  0  0  0  0  0999 V3000
M  V30 BEGIN CTAB
M  V30 COUNTS 23 23 0 0 0
M  V30 BEGIN ATOM
M  V30 1 O 3.301 -2.01397 -0.294718 0
M  V30 2 C 2.21127 -1.31131 0.266196 0
M  V30 3 C 2.15366 0.0789943 -0.278551 0
M  V30 4 N 1.05917 0.842971 0.263064 0
M  V30 5 C -0.295984 0.529098 0.0439715 0
M  V30 6 N -0.690666 -0.510663 -0.712763 0
M  V30 7 C -1.97319 -0.834689 -0.950744 0
M  V30 8 N -2.31243 -1.9523 -1.76398 0
M  V30 9 N -2.90585 -0.0463631 -0.3793 0
M  V30 10 C -2.58172 1.00923 0.388816 0
M  V30 11 C -1.27063 1.34329 0.634147 0
M  V30 12 N -0.869118 2.44541 1.43628 0
M  V30 13 Cl -3.81731 2.02951 1.12836 0
M  V30 14 H 4.15995 -1.70593 0.0550709 0
M  V30 15 H 1.3084 -1.88991 0.0215309 0
M  V30 16 H 2.37193 -1.23027 1.36917 0
M  V30 17 H 3.13276 0.560392 -0.0591018 0
M  V30 18 H 2.04979 -5.53033e-05 -1.4016 0
M  V30 19 H 1.30227 1.69277 0.86272 0
M  V30 20 H -1.6999 -2.25762 -2.55381 0
M  V30 21 H -3.18122 -2.51318 -1.60979 0
M  V30 22 H -0.218046 3.18566 1.11043 0
M  V30 23 H -1.23413 2.54896 2.4246 0
M  V30 END ATOM
M  V30 BEGIN BOND
M  V30 1 1 1 2
M  V30 2 1 2 3
M  V30 3 1 3 4
M  V30 4 1 4 5
M  V30 5 2 5 6
M  V30 6 1 6 7
M  V30 7 1 7 8
M  V30 8 2 7 9
M  V30 9 1 9 10
M  V30 10 2 10 11
M  V30 11 1 11 12
M  V30 12 1 10 13
M  V30 13 1 11 5
M  V30 14 1 1 14
M  V30 15 1 2 15
M  V30 16 1 2 16
M  V30 17 1 3 17
M  V30 18 1 3 18
M  V30 19 1 4 19
M  V30 20 1 8 20
M  V30 21 1 8 21
M  V30 22 1 12 22
M  V30 23 1 12 23
M  V30 END BOND
M  V30 END CTAB
M  END
