
     RDKit          3D

  0  0  0  0  0  0  0  0  0  0999 V3000
M  V30 BEGIN CTAB
M  V30 COUNTS 43 45 0 0 0
M  V30 BEGIN ATOM
M  V30 1 O 0.634284 -2.05067 -0.226428 0
M  V30 2 C 0.707131 -0.889106 0.19212 0
M  V30 3 C 1.92233 -0.0769603 0.37754 0
M  V30 4 O 1.66387 1.14987 -0.354981 0
M  V30 5 C 0.549515 1.87625 -0.0454531 0
M  V30 6 C -0.580053 1.18393 0.41334 0
M  V30 7 N -0.53917 -0.234709 0.54611 0
M  V30 8 C -1.6824 -0.951291 1.02918 0
M  V30 9 C -2.66492 -1.46973 0.0626182 0
M  V30 10 N -2.15478 -2.41598 -0.914951 0
M  V30 11 C -3.46117 -0.417104 -0.676495 0
M  V30 12 C -3.72911 -2.28567 0.844884 0
M  V30 13 N -1.67038 1.90963 0.720006 0
M  V30 14 C -1.73293 3.24035 0.609801 0
M  V30 15 C -0.641362 3.97714 0.157691 0
M  V30 16 C 0.486027 3.25815 -0.161444 0
M  V30 17 N -2.95815 3.87503 0.972354 0
M  V30 18 C 3.18888 -0.648604 -0.0389759 0
M  V30 19 C 4.1811 0.287088 -0.41006 0
M  V30 20 C 5.43992 -0.0856409 -0.811092 0
M  V30 21 C 5.74842 -1.42384 -0.853602 0
M  V30 22 C 4.80285 -2.35433 -0.497863 0
M  V30 23 C 3.52987 -1.96638 -0.0924707 0
M  V30 24 H 2.00378 0.230819 1.43718 0
M  V30 25 H -2.24307 -0.277639 1.75827 0
M  V30 26 H -1.36058 -1.80026 1.72025 0
M  V30 27 H -2.99784 -2.9609 -1.26735 0
M  V30 28 H -1.80546 -1.93144 -1.77951 0
M  V30 29 H -2.82513 0.149254 -1.37738 0
M  V30 30 H -4.26638 -0.922491 -1.29548 0
M  V30 31 H -4.01395 0.208969 0.0522937 0
M  V30 32 H -3.87499 -1.79425 1.82746 0
M  V30 33 H -3.41064 -3.33719 0.918266 0
M  V30 34 H -4.69641 -2.25604 0.304106 0
M  V30 35 H -0.729837 5.03174 0.0830483 0
M  V30 36 H 1.35911 3.77729 -0.516047 0
M  V30 37 H -3.01491 4.84241 1.34826 0
M  V30 38 H -3.86434 3.36594 0.865876 0
M  V30 39 H 3.94593 1.34141 -0.379247 0
M  V30 40 H 6.16174 0.683468 -1.08501 0
M  V30 41 H 6.75344 -1.70862 -1.17463 0
M  V30 42 H 5.02976 -3.41843 -0.525537 0
M  V30 43 H 2.81002 -2.71147 0.195072 0
M  V30 END ATOM
M  V30 BEGIN BOND
M  V30 1 2 1 2
M  V30 2 1 2 3
M  V30 3 1 3 4
M  V30 4 1 4 5
M  V30 5 2 5 6
M  V30 6 1 6 7
M  V30 7 1 7 8
M  V30 8 1 8 9
M  V30 9 1 9 10
M  V30 10 1 9 11
M  V30 11 1 9 12
M  V30 12 1 6 13
M  V30 13 2 13 14
M  V30 14 1 14 15
M  V30 15 2 15 16
M  V30 16 1 14 17
M  V30 17 1 3 18
M  V30 18 2 18 19
M  V30 19 1 19 20
M  V30 20 2 20 21
M  V30 21 1 21 22
M  V30 22 2 22 23
M  V30 23 1 7 2
M  V30 24 1 23 18
M  V30 25 1 16 5
M  V30 26 1 3 24
M  V30 27 1 8 25
M  V30 28 1 8 26
M  V30 29 1 10 27
M  V30 30 1 10 28
M  V30 31 1 11 29
M  V30 32 1 11 30
M  V30 33 1 11 31
M  V30 34 1 12 32
M  V30 35 1 12 33
M  V30 36 1 12 34
M  V30 37 1 15 35
M  V30 38 1 16 36
M  V30 39 1 17 37
M  V30 40 1 17 38
M  V30 41 1 19 39
M  V30 42 1 20 40
M  V30 43 1 21 41
M  V30 44 1 22 42
M  V30 45 1 23 43
M  V30 END BOND
M  V30 END CTAB
M  END
