
     RDKit          3D

  0  0  0  0  0  0  0  0  0  0999 V3000
M  V30 BEGIN CTAB
M  V30 COUNTS 27 28 0 0 0
M  V30 BEGIN ATOM
M  V30 1 C 2.13539 1.76632 0.219153 0
M  V30 2 C 1.50019 1.10556 -1.00352 0
M  V30 3 C 0.977252 -0.208477 -0.585209 0
M  V30 4 C -0.248753 -0.422781 -0.0963055 0
M  V30 5 C -1.28996 0.58323 0.0490449 0
M  V30 6 C -1.37216 1.92867 0.0630289 0
M  V30 7 C -2.583 2.51497 0.264945 0
M  V30 8 C -3.65604 1.70122 0.443798 0
M  V30 9 S -2.97922 0.165908 0.331711 0
M  V30 10 C -0.546612 -1.74366 0.301049 0
M  V30 11 N -1.82401 -2.00505 0.840332 0
M  V30 12 N 0.376276 -2.70279 0.175785 0
M  V30 13 C 1.60139 -2.48276 -0.316091 0
M  V30 14 N 2.56026 -3.54511 -0.42948 0
M  V30 15 N 1.89637 -1.24605 -0.692014 0
M  V30 16 H 3.18147 1.41657 0.311679 0
M  V30 17 H 1.57948 1.45919 1.14617 0
M  V30 18 H 2.13405 2.87338 0.0924997 0
M  V30 19 H 0.779528 1.71458 -1.53976 0
M  V30 20 H 2.3889 0.93307 -1.69624 0
M  V30 21 H -0.485747 2.59707 -0.0639089 0
M  V30 22 H -2.69507 3.63727 0.285656 0
M  V30 23 H -4.71536 2.01502 0.618091 0
M  V30 24 H -1.99585 -1.76809 1.86479 0
M  V30 25 H -2.61091 -2.42299 0.338839 0
M  V30 26 H 2.33834 -4.5011 -0.77132 0
M  V30 27 H 3.5538 -3.36316 -0.152725 0
M  V30 END ATOM
M  V30 BEGIN BOND
M  V30 1 1 1 2
M  V30 2 1 2 3
M  V30 3 2 3 4
M  V30 4 1 4 5
M  V30 5 2 5 6
M  V30 6 1 6 7
M  V30 7 2 7 8
M  V30 8 1 8 9
M  V30 9 1 4 10
M  V30 10 1 10 11
M  V30 11 2 10 12
M  V30 12 1 12 13
M  V30 13 1 13 14
M  V30 14 2 13 15
M  V30 15 1 15 3
M  V30 16 1 9 5
M  V30 17 1 1 16
M  V30 18 1 1 17
M  V30 19 1 1 18
M  V30 20 1 2 19
M  V30 21 1 2 20
M  V30 22 1 6 21
M  V30 23 1 7 22
M  V30 24 1 8 23
M  V30 25 1 11 24
M  V30 26 1 11 25
M  V30 27 1 14 26
M  V30 28 1 14 27
M  V30 END BOND
M  V30 END CTAB
M  END
