
     RDKit          3D

  0  0  0  0  0  0  0  0  0  0999 V3000
M  V30 BEGIN CTAB
M  V30 COUNTS 49 51 0 0 0
M  V30 BEGIN ATOM
M  V30 1 C -3.90798 -4.66032 0.556819 0
M  V30 2 O -3.5148 -4.16152 -0.728898 0
M  V30 3 C -2.61683 -3.0768 -0.743426 0
M  V30 4 C -2.23762 -2.59567 -1.98048 0
M  V30 5 C -1.35865 -1.53439 -1.98825 0
M  V30 6 C -0.862495 -0.956952 -0.845642 0
M  V30 7 C -1.26125 -1.46044 0.362673 0
M  V30 8 C -2.13852 -2.52058 0.400002 0
M  V30 9 C 0.065501 0.192333 -0.95091 0
M  V30 10 C -0.37202 1.38477 -0.184812 0
M  V30 11 C -1.20835 2.33919 -0.779893 0
M  V30 12 C -1.64982 3.46197 -0.125413 0
M  V30 13 C -2.52974 4.41136 -0.837205 0
M  V30 14 C -1.28642 3.70828 1.16755 0
M  V30 15 N -1.73405 4.87158 1.86997 0
M  V30 16 C -0.46528 2.79226 1.78485 0
M  V30 17 C -0.0261591 1.66496 1.11752 0
M  V30 18 C 1.47612 -0.104512 -0.757334 0
M  V30 19 C 2.39357 0.347136 -1.70859 0
M  V30 20 C 3.73716 0.117324 -1.6441 0
M  V30 21 C 4.24977 -0.597317 -0.594098 0
M  V30 22 N 5.65255 -0.852729 -0.501225 0
M  V30 23 C 3.37567 -1.05894 0.363207 0
M  V30 24 C 3.9791 -1.83095 1.48598 0
M  V30 25 C 2.02145 -0.817886 0.282543 0
M  V30 26 H -4.68877 -5.43628 0.454554 0
M  V30 27 H -3.00756 -5.06915 1.06547 0
M  V30 28 H -4.31436 -3.81812 1.16758 0
M  V30 29 H -2.5975 -3.01268 -2.90616 0
M  V30 30 H -1.0653 -1.16172 -2.97145 0
M  V30 31 H -0.936549 -1.07088 1.29988 0
M  V30 32 H -2.47842 -2.94892 1.34961 0
M  V30 33 H -0.0199024 0.566127 -2.04322 0
M  V30 34 H -1.51617 2.16468 -1.82177 0
M  V30 35 H -2.31077 5.46319 -0.587998 0
M  V30 36 H -2.51448 4.28945 -1.93157 0
M  V30 37 H -3.57234 4.21877 -0.460294 0
M  V30 38 H -2.56958 5.40211 1.55802 0
M  V30 39 H -1.22708 5.20129 2.7038 0
M  V30 40 H -0.179441 2.98874 2.80613 0
M  V30 41 H 0.617837 0.963625 1.63227 0
M  V30 42 H 2.04079 0.929867 -2.57767 0
M  V30 43 H 4.4378 0.479846 -2.39935 0
M  V30 44 H 6.24743 -0.669998 -1.32654 0
M  V30 45 H 6.07957 -1.2106 0.359271 0
M  V30 46 H 4.49778 -1.13896 2.15633 0
M  V30 47 H 3.19616 -2.4441 2.00262 0
M  V30 48 H 4.71588 -2.5515 1.08483 0
M  V30 49 H 1.38404 -1.19693 1.03951 0
M  V30 END ATOM
M  V30 BEGIN BOND
M  V30 1 1 1 2
M  V30 2 1 2 3
M  V30 3 2 3 4
M  V30 4 1 4 5
M  V30 5 2 5 6
M  V30 6 1 6 7
M  V30 7 2 7 8
M  V30 8 1 6 9
M  V30 9 1 9 10
M  V30 10 2 10 11
M  V30 11 1 11 12
M  V30 12 1 12 13
M  V30 13 2 12 14
M  V30 14 1 14 15
M  V30 15 1 14 16
M  V30 16 2 16 17
M  V30 17 1 9 18
M  V30 18 2 18 19
M  V30 19 1 19 20
M  V30 20 2 20 21
M  V30 21 1 21 22
M  V30 22 1 21 23
M  V30 23 1 23 24
M  V30 24 2 23 25
M  V30 25 1 8 3
M  V30 26 1 17 10
M  V30 27 1 25 18
M  V30 28 1 1 26
M  V30 29 1 1 27
M  V30 30 1 1 28
M  V30 31 1 4 29
M  V30 32 1 5 30
M  V30 33 1 7 31
M  V30 34 1 8 32
M  V30 35 1 9 33
M  V30 36 1 11 34
M  V30 37 1 13 35
M  V30 38 1 13 36
M  V30 39 1 13 37
M  V30 40 1 15 38
M  V30 41 1 15 39
M  V30 42 1 16 40
M  V30 43 1 17 41
M  V30 44 1 19 42
M  V30 45 1 20 43
M  V30 46 1 22 44
M  V30 47 1 22 45
M  V30 48 1 24 46
M  V30 49 1 24 47
M  V30 50 1 24 48
M  V30 51 1 25 49
M  V30 END BOND
M  V30 END CTAB
M  END
