
     RDKit          3D

  0  0  0  0  0  0  0  0  0  0999 V3000
M  V30 BEGIN CTAB
M  V30 COUNTS 42 42 0 0 0
M  V30 BEGIN ATOM
M  V30 1 N 6.45408 0.436883 0.0277402 0
M  V30 2 C 6.11555 -0.956201 0.0331822 0
M  V30 3 C 4.57325 -1.01175 0.207072 0
M  V30 4 C 3.98691 -0.283715 -0.95355 0
M  V30 5 C 2.50685 -0.243217 -1.04465 0
M  V30 6 C 1.75629 0.384392 0.0816897 0
M  V30 7 C 0.285644 0.337242 -0.262331 0
M  V30 8 O -0.23287 0.164927 -1.44068 0
M  V30 9 N -1.54995 0.17742 -1.37116 0
M  V30 10 C -1.89114 0.364192 -0.102752 0
M  V30 11 N -0.743975 0.464806 0.593449 0
M  V30 12 N -3.21186 0.45271 0.499666 0
M  V30 13 C -3.76877 1.74473 0.565137 0
M  V30 14 C -4.93929 2.08632 -0.264088 0
M  V30 15 O -4.72027 1.94966 -1.63473 0
M  V30 16 C -3.74011 -0.800959 0.934513 0
M  V30 17 C -4.9185 -1.30528 0.133062 0
M  V30 18 O -5.36796 -2.53768 0.621792 0
M  V30 19 N 1.95618 -0.430497 1.28293 0
M  V30 20 H 7.40964 0.567004 0.402401 0
M  V30 21 H 5.7881 0.947129 0.630904 0
M  V30 22 H 6.59506 -1.52349 0.840202 0
M  V30 23 H 6.32958 -1.385 -0.947441 0
M  V30 24 H 4.32031 -2.07281 0.278714 0
M  V30 25 H 4.38073 -0.442335 1.15863 0
M  V30 26 H 4.37098 0.782316 -0.959903 0
M  V30 27 H 4.38204 -0.713721 -1.92938 0
M  V30 28 H 2.1368 -1.31095 -1.10278 0
M  V30 29 H 2.1672 0.2775 -1.98505 0
M  V30 30 H 2.11104 1.39542 0.251039 0
M  V30 31 H -4.075 1.91216 1.64928 0
M  V30 32 H -2.9777 2.51583 0.371599 0
M  V30 33 H -5.05728 3.21972 -0.145454 0
M  V30 34 H -5.914 1.70927 0.0297873 0
M  V30 35 H -5.5336 1.69297 -2.13267 0
M  V30 36 H -4.03311 -0.791583 2.01896 0
M  V30 37 H -2.98642 -1.63639 0.896251 0
M  V30 38 H -5.7794 -0.610039 0.217083 0
M  V30 39 H -4.65729 -1.34367 -0.946126 0
M  V30 40 H -4.60046 -3.10305 0.894944 0
M  V30 41 H 1.30079 -1.2323 1.2025 0
M  V30 42 H 1.7719 0.15205 2.134 0
M  V30 END ATOM
M  V30 BEGIN BOND
M  V30 1 1 1 2
M  V30 2 1 2 3
M  V30 3 1 3 4
M  V30 4 1 4 5
M  V30 5 1 5 6
M  V30 6 1 6 7
M  V30 7 1 7 8
M  V30 8 1 8 9
M  V30 9 2 9 10
M  V30 10 1 10 11
M  V30 11 1 10 12
M  V30 12 1 12 13
M  V30 13 1 13 14
M  V30 14 1 14 15
M  V30 15 1 12 16
M  V30 16 1 16 17
M  V30 17 1 17 18
M  V30 18 1 6 19
M  V30 19 2 11 7
M  V30 20 1 1 20
M  V30 21 1 1 21
M  V30 22 1 2 22
M  V30 23 1 2 23
M  V30 24 1 3 24
M  V30 25 1 3 25
M  V30 26 1 4 26
M  V30 27 1 4 27
M  V30 28 1 5 28
M  V30 29 1 5 29
M  V30 30 1 6 30
M  V30 31 1 13 31
M  V30 32 1 13 32
M  V30 33 1 14 33
M  V30 34 1 14 34
M  V30 35 1 15 35
M  V30 36 1 16 36
M  V30 37 1 16 37
M  V30 38 1 17 38
M  V30 39 1 17 39
M  V30 40 1 18 40
M  V30 41 1 19 41
M  V30 42 1 19 42
M  V30 END BOND
M  V30 END CTAB
M  END
