
     RDKit          3D

  0  0  0  0  0  0  0  0  0  0999 V3000
M  V30 BEGIN CTAB
M  V30 COUNTS 21 21 0 0 0
M  V30 BEGIN ATOM
M  V30 1 C 3.19697 -0.323083 -0.268438 0
M  V30 2 C 2.07766 0.464582 0.242298 0
M  V30 3 O 2.32593 1.51496 0.893003 0
M  V30 4 C 0.676239 0.11948 0.0515764 0
M  V30 5 C 0.331328 -1.01664 -0.65151 0
M  V30 6 C -0.989299 -1.37521 -0.85225 0
M  V30 7 C -2.01888 -0.607332 -0.355 0
M  V30 8 C -1.67702 0.528901 0.348209 0
M  V30 9 C -0.357889 0.883827 0.546702 0
M  V30 10 N -0.0234999 2.05379 1.27108 0
M  V30 11 Cl -2.98695 1.50834 0.982394 0
M  V30 12 N -3.38946 -0.951507 -0.545888 0
M  V30 13 H 2.93932 -1.4116 -0.148787 0
M  V30 14 H 3.47896 -0.132893 -1.30329 0
M  V30 15 H 4.1233 -0.181188 0.355039 0
M  V30 16 H 1.13251 -1.65158 -1.06192 0
M  V30 17 H -1.22506 -2.26279 -1.40211 0
M  V30 18 H 0.0629521 2.00586 2.30529 0
M  V30 19 H 0.136085 2.95574 0.786279 0
M  V30 20 H -4.10922 -0.477747 0.0415317 0
M  V30 21 H -3.70398 -1.64392 -1.2342 0
M  V30 END ATOM
M  V30 BEGIN BOND
M  V30 1 1 1 2
M  V30 2 2 2 3
M  V30 3 1 2 4
M  V30 4 2 4 5
M  V30 5 1 5 6
M  V30 6 2 6 7
M  V30 7 1 7 8
M  V30 8 2 8 9
M  V30 9 1 9 10
M  V30 10 1 8 11
M  V30 11 1 7 12
M  V30 12 1 9 4
M  V30 13 1 1 13
M  V30 14 1 1 14
M  V30 15 1 1 15
M  V30 16 1 5 16
M  V30 17 1 6 17
M  V30 18 1 10 18
M  V30 19 1 10 19
M  V30 20 1 12 20
M  V30 21 1 12 21
M  V30 END BOND
M  V30 END CTAB
M  END
