
     RDKit          3D

  0  0  0  0  0  0  0  0  0  0999 V3000
M  V30 BEGIN CTAB
M  V30 COUNTS 30 31 0 0 0
M  V30 BEGIN ATOM
M  V30 1 N 4.44078 -1.00742 -2.05499 0
M  V30 2 C 3.37174 -0.257344 -1.45089 0
M  V30 3 C 2.09762 -0.814933 -1.426 0
M  V30 4 C 1.00889 -0.178989 -0.872673 0
M  V30 5 C 1.25936 1.08371 -0.325584 0
M  V30 6 C 2.51888 1.6607 -0.338355 0
M  V30 7 C 3.58859 0.978306 -0.909699 0
M  V30 8 O 4.86651 1.5342 -0.936634 0
M  V30 9 C -0.327458 -0.753206 -0.885914 0
M  V30 10 O -0.6625 -1.49461 -1.83595 0
M  V30 11 C -1.33329 -0.524028 0.152293 0
M  V30 12 C -0.876384 -0.234208 1.43284 0
M  V30 13 C -1.8353 -0.00246867 2.39224 0
M  V30 14 C -3.18492 -0.0525087 2.1107 0
M  V30 15 O -4.14854 0.189547 3.11434 0
M  V30 16 C -3.62906 -0.339891 0.84499 0
M  V30 17 N -5.02874 -0.398599 0.535239 0
M  V30 18 C -2.68458 -0.575256 -0.131324 0
M  V30 19 H 4.28269 -1.96056 -2.4401 0
M  V30 20 H 5.38523 -0.605127 -2.1137 0
M  V30 21 H 1.94544 -1.79793 -1.86006 0
M  V30 22 H 0.437047 1.60876 0.109793 0
M  V30 23 H 2.69103 2.6357 0.0893388 0
M  V30 24 H 5.0992 2.44189 -0.557404 0
M  V30 25 H 0.158221 -0.18598 1.71674 0
M  V30 26 H -1.53418 0.230068 3.42221 0
M  V30 27 H -3.77773 0.385359 4.03217 0
M  V30 28 H -5.46312 -1.02425 -0.145666 0
M  V30 29 H -5.66719 0.267898 1.06312 0
M  V30 30 H -2.99824 -0.808823 -1.14062 0
M  V30 END ATOM
M  V30 BEGIN BOND
M  V30 1 1 1 2
M  V30 2 2 2 3
M  V30 3 1 3 4
M  V30 4 2 4 5
M  V30 5 1 5 6
M  V30 6 2 6 7
M  V30 7 1 7 8
M  V30 8 1 4 9
M  V30 9 2 9 10
M  V30 10 1 9 11
M  V30 11 2 11 12
M  V30 12 1 12 13
M  V30 13 2 13 14
M  V30 14 1 14 15
M  V30 15 1 14 16
M  V30 16 1 16 17
M  V30 17 2 16 18
M  V30 18 1 7 2
M  V30 19 1 18 11
M  V30 20 1 1 19
M  V30 21 1 1 20
M  V30 22 1 3 21
M  V30 23 1 5 22
M  V30 24 1 6 23
M  V30 25 1 8 24
M  V30 26 1 12 25
M  V30 27 1 13 26
M  V30 28 1 15 27
M  V30 29 1 17 28
M  V30 30 1 17 29
M  V30 31 1 18 30
M  V30 END BOND
M  V30 END CTAB
M  END
