
     RDKit          3D

  0  0  0  0  0  0  0  0  0  0999 V3000
M  V30 BEGIN CTAB
M  V30 COUNTS 32 34 0 0 0
M  V30 BEGIN ATOM
M  V30 1 Cl 7.40748 1.44994 -0.893843 0
M  V30 2 C 5.88177 0.61181 -0.870618 0
M  V30 3 C 5.70904 -0.56767 -1.58559 0
M  V30 4 C 4.53602 -1.26677 -1.60393 0
M  V30 5 C 3.44506 -0.816447 -0.892834 0
M  V30 6 C 3.60337 0.358862 -0.175159 0
M  V30 7 C 4.78914 1.05665 -0.16252 0
M  V30 8 C 2.35558 0.550593 0.424224 0
M  V30 9 C 1.52463 -0.484969 0.0537299 0
M  V30 10 O 2.2099 -1.27732 -0.730024 0
M  V30 11 C 0.134616 -0.64775 0.472406 0
M  V30 12 O -0.511751 -1.64366 0.0582242 0
M  V30 13 O -0.520524 0.22766 1.29972 0
M  V30 14 C -1.82383 0.177967 1.75901 0
M  V30 15 C -2.87643 0.204167 0.718242 0
M  V30 16 N -3.41202 -0.964329 0.331305 0
M  V30 17 C -4.37038 -1.03404 -0.605034 0
M  V30 18 N -4.91446 -2.28404 -0.990537 0
M  V30 19 N -4.79165 0.1109 -1.15853 0
M  V30 20 C -4.29558 1.32932 -0.816573 0
M  V30 21 N -3.3317 1.32541 0.134097 0
M  V30 22 N -4.76081 2.52369 -1.41938 0
M  V30 23 H 6.59384 -0.908938 -2.14645 0
M  V30 24 H 4.47452 -2.1804 -2.18512 0
M  V30 25 H 4.8807 1.96313 0.402556 0
M  V30 26 H 2.1275 1.38976 1.06583 0
M  V30 27 H -2.04706 -0.675181 2.42985 0
M  V30 28 H -1.96649 1.08935 2.41298 0
M  V30 29 H -5.33838 -2.45761 -1.92941 0
M  V30 30 H -4.88736 -3.0777 -0.288429 0
M  V30 31 H -4.06533 3.21029 -1.76361 0
M  V30 32 H -5.75941 2.70733 -1.51429 0
M  V30 END ATOM
M  V30 BEGIN BOND
M  V30 1 1 1 2
M  V30 2 2 2 3
M  V30 3 1 3 4
M  V30 4 2 4 5
M  V30 5 1 5 6
M  V30 6 2 6 7
M  V30 7 1 6 8
M  V30 8 2 8 9
M  V30 9 1 9 10
M  V30 10 1 9 11
M  V30 11 2 11 12
M  V30 12 1 11 13
M  V30 13 1 13 14
M  V30 14 1 14 15
M  V30 15 2 15 16
M  V30 16 1 16 17
M  V30 17 1 17 18
M  V30 18 2 17 19
M  V30 19 1 19 20
M  V30 20 2 20 21
M  V30 21 1 20 22
M  V30 22 1 7 2
M  V30 23 1 21 15
M  V30 24 1 10 5
M  V30 25 1 3 23
M  V30 26 1 4 24
M  V30 27 1 7 25
M  V30 28 1 8 26
M  V30 29 1 14 27
M  V30 30 1 14 28
M  V30 31 1 18 29
M  V30 32 1 18 30
M  V30 33 1 22 31
M  V30 34 1 22 32
M  V30 END BOND
M  V30 END CTAB
M  END
