
     RDKit          3D

  0  0  0  0  0  0  0  0  0  0999 V3000
M  V30 BEGIN CTAB
M  V30 COUNTS 42 44 0 0 0
M  V30 BEGIN ATOM
M  V30 1 N -5.56872 2.22647 0.796051 0
M  V30 2 C -5.37092 0.852127 0.422231 0
M  V30 3 C -4.2942 0.225953 1.31823 0
M  V30 4 C -3.29551 0.605514 0.215671 0
M  V30 5 C -4.44316 0.610993 -0.741233 0
M  V30 6 C -2.28264 -0.457841 0.0194944 0
M  V30 7 C -0.954756 -0.0803809 0.0406101 0
M  V30 8 C 0.0602803 -1.01264 -0.135015 0
M  V30 9 N -0.322875 -2.28455 -0.323793 0
M  V30 10 C -1.6117 -2.65516 -0.344956 0
M  V30 11 N -2.59943 -1.73496 -0.172014 0
M  V30 12 N -1.99625 -4.00403 -0.545761 0
M  V30 13 N 1.42256 -0.648363 -0.116971 0
M  V30 14 C 1.83339 0.7188 0.0859255 0
M  V30 15 C 3.29508 0.877436 0.0686789 0
M  V30 16 N 4.07033 0.78069 1.18519 0
M  V30 17 C 5.35262 0.970295 0.856065 0
M  V30 18 C 5.40558 1.19699 -0.519575 0
M  V30 19 N 4.14236 1.1305 -0.943982 0
M  V30 20 C 6.64616 1.45654 -1.31169 0
M  V30 21 C 2.4267 -1.66686 -0.305792 0
M  V30 22 H -5.1226 2.9126 0.164768 0
M  V30 23 H -6.51503 2.46026 1.1143 0
M  V30 24 H -6.31002 0.30026 0.405727 0
M  V30 25 H -4.40777 -0.864081 1.392 0
M  V30 26 H -4.12455 0.76662 2.26538 0
M  V30 27 H -2.8847 1.61228 0.362108 0
M  V30 28 H -4.64958 -0.374572 -1.19859 0
M  V30 29 H -4.4417 1.38961 -1.52494 0
M  V30 30 H -0.644037 0.953913 0.194115 0
M  V30 31 H -2.13526 -4.62023 0.275892 0
M  V30 32 H -2.14391 -4.39692 -1.49272 0
M  V30 33 H 1.32555 1.33061 -0.691305 0
M  V30 34 H 1.39625 1.0517 1.05818 0
M  V30 35 H 3.71706 0.588278 2.14824 0
M  V30 36 H 6.21739 0.955405 1.52248 0
M  V30 37 H 7.15814 0.529838 -1.60929 0
M  V30 38 H 7.30683 2.12154 -0.684109 0
M  V30 39 H 6.37747 2.06061 -2.19788 0
M  V30 40 H 2.21406 -2.20637 -1.26839 0
M  V30 41 H 2.30315 -2.38766 0.549234 0
M  V30 42 H 3.44835 -1.29122 -0.332569 0
M  V30 END ATOM
M  V30 BEGIN BOND
M  V30 1 1 1 2
M  V30 2 1 2 3
M  V30 3 1 3 4
M  V30 4 1 4 5
M  V30 5 1 4 6
M  V30 6 2 6 7
M  V30 7 1 7 8
M  V30 8 2 8 9
M  V30 9 1 9 10
M  V30 10 2 10 11
M  V30 11 1 10 12
M  V30 12 1 8 13
M  V30 13 1 13 14
M  V30 14 1 14 15
M  V30 15 1 15 16
M  V30 16 1 16 17
M  V30 17 2 17 18
M  V30 18 1 18 19
M  V30 19 1 18 20
M  V30 20 1 13 21
M  V30 21 1 5 2
M  V30 22 1 11 6
M  V30 23 2 19 15
M  V30 24 1 1 22
M  V30 25 1 1 23
M  V30 26 1 2 24
M  V30 27 1 3 25
M  V30 28 1 3 26
M  V30 29 1 4 27
M  V30 30 1 5 28
M  V30 31 1 5 29
M  V30 32 1 7 30
M  V30 33 1 12 31
M  V30 34 1 12 32
M  V30 35 1 14 33
M  V30 36 1 14 34
M  V30 37 1 16 35
M  V30 38 1 17 36
M  V30 39 1 20 37
M  V30 40 1 20 38
M  V30 41 1 20 39
M  V30 42 1 21 40
M  V30 43 1 21 41
M  V30 44 1 21 42
M  V30 END BOND
M  V30 END CTAB
M  END
