
     RDKit          3D

  0  0  0  0  0  0  0  0  0  0999 V3000
M  V30 BEGIN CTAB
M  V30 COUNTS 35 37 0 0 0
M  V30 BEGIN ATOM
M  V30 1 N 6.74899 -0.372434 0.00636013 0
M  V30 2 C 5.34581 -0.27157 -0.149245 0
M  V30 3 N 4.48699 -0.328971 0.883252 0
M  V30 4 C 3.14211 -0.232083 0.732033 0
M  V30 5 C 2.64852 -0.0673506 -0.546254 0
M  V30 6 C 3.50488 -0.00515314 -1.62275 0
M  V30 7 N 2.98601 0.163995 -2.9276 0
M  V30 8 N 4.82814 -0.110352 -1.38055 0
M  V30 9 C 1.2623 0.0337254 -0.713769 0
M  V30 10 Cl 0.560297 0.243712 -2.30213 0
M  V30 11 C 0.376477 -0.0241857 0.338784 0
M  V30 12 N -1.02698 0.0800542 0.150973 0
M  V30 13 C -1.98669 0.0258782 1.20981 0
M  V30 14 C -3.36688 0.185142 0.686167 0
M  V30 15 C -4.44494 -0.464599 1.30162 0
M  V30 16 C -5.73549 -0.336423 0.846894 0
M  V30 17 C -5.98088 0.458787 -0.253309 0
M  V30 18 C -4.96319 1.12192 -0.899647 0
M  V30 19 C -3.68353 0.963655 -0.407671 0
M  V30 20 C 0.921533 -0.190407 1.60188 0
M  V30 21 C 2.28336 -0.292858 1.7963 0
M  V30 22 H 7.20171 0.0377952 0.840968 0
M  V30 23 H 7.31696 -0.851601 -0.707214 0
M  V30 24 H 2.75452 -0.69463 -3.47366 0
M  V30 25 H 2.86617 1.1336 -3.28059 0
M  V30 26 H -1.36649 0.200957 -0.827658 0
M  V30 27 H -1.81763 0.875526 1.91769 0
M  V30 28 H -1.97173 -0.936783 1.76704 0
M  V30 29 H -4.25438 -1.09119 2.16791 0
M  V30 30 H -6.57859 -0.840213 1.32249 0
M  V30 31 H -6.9955 0.565037 -0.618101 0
M  V30 32 H -5.13968 1.75859 -1.77606 0
M  V30 33 H -2.90371 1.49985 -0.934583 0
M  V30 34 H 0.27379 -0.243179 2.47033 0
M  V30 35 H 2.70771 -0.422311 2.78027 0
M  V30 END ATOM
M  V30 BEGIN BOND
M  V30 1 1 1 2
M  V30 2 2 2 3
M  V30 3 1 3 4
M  V30 4 2 4 5
M  V30 5 1 5 6
M  V30 6 1 6 7
M  V30 7 2 6 8
M  V30 8 1 5 9
M  V30 9 1 9 10
M  V30 10 2 9 11
M  V30 11 1 11 12
M  V30 12 1 12 13
M  V30 13 1 13 14
M  V30 14 2 14 15
M  V30 15 1 15 16
M  V30 16 2 16 17
M  V30 17 1 17 18
M  V30 18 2 18 19
M  V30 19 1 11 20
M  V30 20 2 20 21
M  V30 21 1 8 2
M  V30 22 1 19 14
M  V30 23 1 21 4
M  V30 24 1 1 22
M  V30 25 1 1 23
M  V30 26 1 7 24
M  V30 27 1 7 25
M  V30 28 1 12 26
M  V30 29 1 13 27
M  V30 30 1 13 28
M  V30 31 1 15 29
M  V30 32 1 16 30
M  V30 33 1 17 31
M  V30 34 1 18 32
M  V30 35 1 19 33
M  V30 36 1 20 34
M  V30 37 1 21 35
M  V30 END BOND
M  V30 END CTAB
M  END
