
     RDKit          3D

  0  0  0  0  0  0  0  0  0  0999 V3000
M  V30 BEGIN CTAB
M  V30 COUNTS 35 35 0 0 0
M  V30 BEGIN ATOM
M  V30 1 C -2.1542 -0.469331 0.72246 0 CFG=2
M  V30 2 O -1.9295 -0.0235391 2.02053 0
M  V30 3 C -2.2115 -1.9757 0.683496 0
M  V30 4 N -2.44547 -2.46377 -0.662517 0
M  V30 5 C -1.0736 0.0653817 -0.224899 0 CFG=1
M  V30 6 O -1.15652 1.447 -0.162313 0
M  V30 7 C -0.00799395 1.9343 0.392308 0
M  V30 8 C -0.249355 2.84216 1.58179 0
M  V30 9 C 0.676157 2.7993 -0.674517 0
M  V30 10 O 0.786588 0.90432 0.803979 0
M  V30 11 C 0.29526 -0.278243 0.241194 0 CFG=2
M  V30 12 C 1.24649 -0.626761 -0.878971 0 CFG=2
M  V30 13 O 0.920034 -1.77016 -1.55272 0
M  V30 14 C 2.63836 -0.811945 -0.295094 0
M  V30 15 N 3.59342 -1.05202 -1.36011 0
M  V30 16 H -3.15503 -0.100572 0.422436 0
M  V30 17 H -1.97494 -0.753095 2.68985 0
M  V30 18 H -1.28881 -2.45344 1.05062 0
M  V30 19 H -3.02603 -2.29743 1.36377 0
M  V30 20 H -3.43064 -2.83597 -0.700442 0
M  V30 21 H -1.78193 -3.20663 -0.926368 0
M  V30 22 H -1.25994 -0.236327 -1.25611 0
M  V30 23 H -1.2153 3.35395 1.53453 0
M  V30 24 H 0.619436 3.53313 1.63059 0
M  V30 25 H -0.179029 2.23159 2.52934 0
M  V30 26 H 0.39535 2.42801 -1.66878 0
M  V30 27 H 0.199739 3.81685 -0.586434 0
M  V30 28 H 1.76505 2.86956 -0.502944 0
M  V30 29 H 0.318571 -1.05624 1.02642 0
M  V30 30 H 1.32548 0.217174 -1.59379 0
M  V30 31 H 1.12818 -1.73847 -2.51922 0
M  V30 32 H 2.65325 -1.69022 0.364944 0
M  V30 33 H 2.96716 0.111124 0.245308 0
M  V30 34 H 3.28219 -0.624132 -2.24495 0
M  V30 35 H 3.72907 -2.08987 -1.49339 0
M  V30 END ATOM
M  V30 BEGIN BOND
M  V30 1 1 1 2
M  V30 2 1 1 3
M  V30 3 1 3 4
M  V30 4 1 1 5
M  V30 5 1 5 6
M  V30 6 1 6 7
M  V30 7 1 7 8
M  V30 8 1 7 9
M  V30 9 1 7 10
M  V30 10 1 10 11
M  V30 11 1 11 12
M  V30 12 1 12 13
M  V30 13 1 12 14
M  V30 14 1 14 15
M  V30 15 1 11 5
M  V30 16 1 1 16 CFG=3
M  V30 17 1 2 17
M  V30 18 1 3 18
M  V30 19 1 3 19
M  V30 20 1 4 20
M  V30 21 1 4 21
M  V30 22 1 5 22 CFG=3
M  V30 23 1 8 23
M  V30 24 1 8 24
M  V30 25 1 8 25
M  V30 26 1 9 26
M  V30 27 1 9 27
M  V30 28 1 9 28
M  V30 29 1 11 29 CFG=1
M  V30 30 1 12 30 CFG=3
M  V30 31 1 13 31
M  V30 32 1 14 32
M  V30 33 1 14 33
M  V30 34 1 15 34
M  V30 35 1 15 35
M  V30 END BOND
M  V30 END CTAB
M  END
