
     RDKit          3D

  0  0  0  0  0  0  0  0  0  0999 V3000
M  V30 BEGIN CTAB
M  V30 COUNTS 41 44 0 0 0
M  V30 BEGIN ATOM
M  V30 1 O 0.607209 -2.77358 2.83739 0
M  V30 2 C 0.354416 -1.71493 2.23988 0
M  V30 3 C -0.745284 -0.708017 2.47369 0
M  V30 4 N -1.03372 -0.421868 1.04204 0
M  V30 5 C 0.238937 -0.378433 0.403677 0
M  V30 6 C 1.09935 -1.14708 1.09784 0
M  V30 7 C 2.51189 -1.37964 0.793594 0
M  V30 8 S 3.43912 -2.80291 0.942004 0
M  V30 9 C 4.94002 -2.19627 0.393632 0
M  V30 10 C 4.61701 -0.887205 0.121318 0
M  V30 11 N 3.39813 -0.514782 0.332178 0
M  V30 12 C 5.66067 0.0502664 -0.390955 0
M  V30 13 C 5.52222 1.37271 -0.713632 0
M  V30 14 C 6.62684 2.01286 -1.15756 0
M  V30 15 C 7.77742 1.29016 -1.24539 0
M  V30 16 S 7.30416 -0.257383 -0.712171 0
M  V30 17 N 0.53149 0.368362 -0.753978 0
M  V30 18 C -2.34267 -0.243718 0.562402 0
M  V30 19 C -3.32798 0.171746 1.45582 0
M  V30 20 C -4.63821 0.353671 1.08713 0
M  V30 21 C -5.03529 0.126786 -0.206848 0
M  V30 22 C -4.09142 -0.287591 -1.13173 0
M  V30 23 C -2.76476 -0.46514 -0.73267 0
M  V30 24 S -6.69023 0.350314 -0.736338 0
M  V30 25 O -7.62693 0.219478 0.458936 0
M  V30 26 O -7.11306 -0.672014 -1.73778 0
M  V30 27 N -6.85432 1.94014 -1.41951 0
M  V30 28 H -0.318399 0.210647 2.88864 0
M  V30 29 H -1.60568 -1.13194 2.98634 0
M  V30 30 H 5.92346 -2.68577 0.274773 0
M  V30 31 H 4.52959 1.88152 -0.606122 0
M  V30 32 H 6.62362 3.0876 -1.44615 0
M  V30 33 H 8.76254 1.65893 -1.58558 0
M  V30 34 H -0.0418048 0.37824 -1.61651 0
M  V30 35 H 1.40202 0.971514 -0.76308 0
M  V30 36 H -3.04616 0.360717 2.4915 0
M  V30 37 H -5.40815 0.68172 1.79561 0
M  V30 38 H -4.42237 -0.461592 -2.14475 0
M  V30 39 H -2.05758 -0.791113 -1.45789 0
M  V30 40 H -6.12096 2.5619 -0.99021 0
M  V30 41 H -6.58514 1.87171 -2.44631 0
M  V30 END ATOM
M  V30 BEGIN BOND
M  V30 1 2 1 2
M  V30 2 1 2 3
M  V30 3 1 3 4
M  V30 4 1 4 5
M  V30 5 2 5 6
M  V30 6 1 6 7
M  V30 7 1 7 8
M  V30 8 1 8 9
M  V30 9 2 9 10
M  V30 10 1 10 11
M  V30 11 1 10 12
M  V30 12 2 12 13
M  V30 13 1 13 14
M  V30 14 2 14 15
M  V30 15 1 15 16
M  V30 16 1 5 17
M  V30 17 1 4 18
M  V30 18 2 18 19
M  V30 19 1 19 20
M  V30 20 2 20 21
M  V30 21 1 21 22
M  V30 22 2 22 23
M  V30 23 1 21 24
M  V30 24 2 24 25
M  V30 25 2 24 26
M  V30 26 1 24 27
M  V30 27 1 6 2
M  V30 28 2 11 7
M  V30 29 1 16 12
M  V30 30 1 23 18
M  V30 31 1 3 28
M  V30 32 1 3 29
M  V30 33 1 9 30
M  V30 34 1 13 31
M  V30 35 1 14 32
M  V30 36 1 15 33
M  V30 37 1 17 34
M  V30 38 1 17 35
M  V30 39 1 19 36
M  V30 40 1 20 37
M  V30 41 1 22 38
M  V30 42 1 23 39
M  V30 43 1 27 40
M  V30 44 1 27 41
M  V30 END BOND
M  V30 END CTAB
M  END
