
     RDKit          3D

  0  0  0  0  0  0  0  0  0  0999 V3000
M  V30 BEGIN CTAB
M  V30 COUNTS 25 26 0 0 0
M  V30 BEGIN ATOM
M  V30 1 N -3.732 2.32302 -0.160169 0
M  V30 2 N -3.22685 1.44729 0.787722 0
M  V30 3 C -2.23681 0.512118 0.407516 0
M  V30 4 C -0.884366 0.816835 0.436497 0
M  V30 5 C 0.10191 -0.0856594 0.078548 0
M  V30 6 O 1.41858 0.296963 0.136445 0
M  V30 7 C 2.55246 -0.434632 -0.147894 0
M  V30 8 C 3.61047 -0.189357 0.906677 0
M  V30 9 O 4.60614 0.0162946 -0.0174396 0
M  V30 10 C 3.61786 0.252539 -0.972743 0
M  V30 11 N -0.345641 -1.29523 -0.305681 0
M  V30 12 C -1.66521 -1.60283 -0.338044 0
M  V30 13 N -2.63448 -0.717883 0.0136058 0
M  V30 14 N -2.13056 -2.88101 -0.744953 0
M  V30 15 H -2.90693 2.76517 -0.630821 0
M  V30 16 H -4.28457 3.09121 0.303436 0
M  V30 17 H -3.5541 1.45633 1.76673 0
M  V30 18 H -0.617108 1.79746 0.751975 0
M  V30 19 H 2.44042 -1.51116 -0.425741 0
M  V30 20 H 3.74835 -1.02862 1.59829 0
M  V30 21 H 3.42422 0.751172 1.50514 0
M  V30 22 H 3.88146 -0.334369 -1.89155 0
M  V30 23 H 3.43476 1.28878 -1.24775 0
M  V30 24 H -2.47659 -3.04142 -1.71458 0
M  V30 25 H -2.14141 -3.69301 -0.0952221 0
M  V30 END ATOM
M  V30 BEGIN BOND
M  V30 1 1 1 2
M  V30 2 1 2 3
M  V30 3 2 3 4
M  V30 4 1 4 5
M  V30 5 1 5 6
M  V30 6 1 6 7
M  V30 7 1 7 8
M  V30 8 1 8 9
M  V30 9 1 9 10
M  V30 10 2 5 11
M  V30 11 1 11 12
M  V30 12 2 12 13
M  V30 13 1 12 14
M  V30 14 1 13 3
M  V30 15 1 10 7
M  V30 16 1 1 15
M  V30 17 1 1 16
M  V30 18 1 2 17
M  V30 19 1 4 18
M  V30 20 1 7 19
M  V30 21 1 8 20
M  V30 22 1 8 21
M  V30 23 1 10 22
M  V30 24 1 10 23
M  V30 25 1 14 24
M  V30 26 1 14 25
M  V30 END BOND
M  V30 END CTAB
M  END
