
     RDKit          3D

  0  0  0  0  0  0  0  0  0  0999 V3000
M  V30 BEGIN CTAB
M  V30 COUNTS 40 43 0 0 0
M  V30 BEGIN ATOM
M  V30 1 N -3.80923 3.49741 2.2246 0
M  V30 2 C -3.19234 2.64976 1.72485 0
M  V30 3 C -2.4156 1.59339 1.11991 0
M  V30 4 C -1.05446 1.69943 0.978403 0
M  V30 5 N -0.408203 2.86748 1.43568 0
M  V30 6 N -0.380079 0.72467 0.426229 0
M  V30 7 C -0.869065 -0.449888 -0.0562313 0
M  V30 8 C -2.22963 -0.588281 0.0698605 0
M  V30 9 C -2.99499 0.436372 0.658311 0
M  V30 10 N -4.40362 0.355752 0.818429 0
M  V30 11 C -2.97593 -1.67308 -0.338579 0
M  V30 12 N -4.27199 -1.71292 -0.172548 0
M  V30 13 S -2.07189 -2.9099 -1.05456 0
M  V30 14 C -0.394323 -2.57294 -1.13414 0
M  V30 15 C 0.0222403 -1.36233 -0.614409 0
M  V30 16 C 1.49163 -1.1829 -0.616219 0
M  V30 17 C 2.00829 -1.60693 -1.97204 0
M  V30 18 C 1.85189 -3.11458 -1.95176 0
M  V30 19 O 2.75264 -3.93163 -2.03626 0
M  V30 20 N 0.490058 -3.50644 -1.81882 0
M  V30 21 C 2.10298 0.00723372 -0.109373 0
M  V30 22 C 2.3439 1.08136 -0.933971 0
M  V30 23 C 2.98785 2.22591 -0.457769 0
M  V30 24 C 3.38713 2.28603 0.846211 0
M  V30 25 C 3.14936 1.21782 1.67324 0
M  V30 26 C 2.51622 0.102391 1.18983 0
M  V30 27 H -0.0448643 2.96417 2.40459 0
M  V30 28 H -0.286183 3.66554 0.788016 0
M  V30 29 H -4.89373 -0.0361623 1.6489 0
M  V30 30 H -4.98653 0.734015 0.0238979 0
M  V30 31 H -4.74841 -2.58071 -0.516489 0
M  V30 32 H 1.896 -2.02772 0.0743754 0
M  V30 33 H 1.33523 -1.17638 -2.73301 0
M  V30 34 H 3.0227 -1.29975 -2.18759 0
M  V30 35 H 0.0823932 -4.37781 -2.15139 0
M  V30 36 H 2.06637 1.12866 -1.97842 0
M  V30 37 H 3.18414 3.08195 -1.10018 0
M  V30 38 H 3.89388 3.18662 1.22085 0
M  V30 39 H 3.48679 1.31537 2.70269 0
M  V30 40 H 2.35939 -0.711012 1.90487 0
M  V30 END ATOM
M  V30 BEGIN BOND
M  V30 1 3 1 2
M  V30 2 1 2 3
M  V30 3 2 3 4
M  V30 4 1 4 5
M  V30 5 1 4 6
M  V30 6 2 6 7
M  V30 7 1 7 8
M  V30 8 2 8 9
M  V30 9 1 9 10
M  V30 10 1 8 11
M  V30 11 2 11 12 CFG=2
M  V30 12 1 11 13
M  V30 13 1 13 14
M  V30 14 2 14 15
M  V30 15 1 15 16
M  V30 16 1 16 17
M  V30 17 1 17 18
M  V30 18 2 18 19
M  V30 19 1 18 20
M  V30 20 1 16 21
M  V30 21 2 21 22
M  V30 22 1 22 23
M  V30 23 2 23 24
M  V30 24 1 24 25
M  V30 25 2 25 26
M  V30 26 1 9 3
M  V30 27 1 20 14
M  V30 28 1 26 21
M  V30 29 1 15 7
M  V30 30 1 5 27
M  V30 31 1 5 28
M  V30 32 1 10 29
M  V30 33 1 10 30
M  V30 34 1 12 31
M  V30 35 1 16 32
M  V30 36 1 17 33
M  V30 37 1 17 34
M  V30 38 1 20 35
M  V30 39 1 22 36
M  V30 40 1 23 37
M  V30 41 1 24 38
M  V30 42 1 25 39
M  V30 43 1 26 40
M  V30 END BOND
M  V30 END CTAB
M  END
