
     RDKit          3D

  0  0  0  0  0  0  0  0  0  0999 V3000
M  V30 BEGIN CTAB
M  V30 COUNTS 46 47 0 0 0
M  V30 BEGIN ATOM
M  V30 1 N -1.46628 0.0363102 -3.66203 0
M  V30 2 C -1.85503 -0.0598202 -2.57919 0
M  V30 3 C -2.34572 -0.201413 -1.24586 0
M  V30 4 C -3.47387 -0.821026 -1.04681 0
M  V30 5 N -4.18113 -1.33996 -2.14223 0
M  V30 6 O -3.96912 -0.962813 0.234154 0
M  V30 7 C -3.23618 -0.426274 1.29614 0
M  V30 8 C -2.09026 0.219492 1.15754 0
M  V30 9 C -1.50156 0.423939 -0.157436 0
M  V30 10 C -0.0713465 0.292248 -0.346164 0
M  V30 11 C 0.5614 -0.927193 -0.549951 0
M  V30 12 C -0.106052 -2.20568 -0.400408 0
M  V30 13 C -0.21475 -2.67718 1.06009 0
M  V30 14 C 1.93935 -0.98206 -0.85072 0
M  V30 15 C 2.71018 0.133614 -0.953252 0
M  V30 16 C 2.11085 1.3334 -0.758217 0
M  V30 17 C 0.730701 1.40857 -0.455039 0
M  V30 18 C 0.284136 2.77772 -0.152815 0
M  V30 19 C 1.04326 3.26879 1.11854 0
M  V30 20 C 4.20404 0.0229261 -1.1723 0
M  V30 21 C 4.77921 -0.0872927 0.253722 0
M  V30 22 C -1.48038 0.690964 2.35216 0
M  V30 23 N -0.981637 1.05497 3.3606 0
M  V30 24 N -3.78695 -0.608391 2.58831 0
M  V30 25 H -5.21556 -1.3254 -2.23558 0
M  V30 26 H -3.60256 -1.76706 -2.91366 0
M  V30 27 H -1.79448 1.52206 -0.36929 0
M  V30 28 H 0.599403 -3.02176 -0.823429 0
M  V30 29 H -1.00624 -2.43634 -0.943793 0
M  V30 30 H -1.28068 -2.90486 1.22468 0
M  V30 31 H 0.177109 -1.89627 1.74352 0
M  V30 32 H 0.398602 -3.57354 1.25433 0
M  V30 33 H 2.38551 -1.94608 -0.999265 0
M  V30 34 H 2.71969 2.22323 -0.847181 0
M  V30 35 H -0.762986 2.80328 0.19354 0
M  V30 36 H 0.50448 3.53476 -0.914476 0
M  V30 37 H 1.32303 2.40472 1.70419 0
M  V30 38 H 1.91321 3.89441 0.782581 0
M  V30 39 H 0.364864 3.91777 1.69011 0
M  V30 40 H 4.59297 0.88207 -1.69981 0
M  V30 41 H 4.44428 -0.902939 -1.65732 0
M  V30 42 H 3.98004 -0.62019 0.844957 0
M  V30 43 H 5.70155 -0.668876 0.219388 0
M  V30 44 H 4.90522 0.943726 0.639775 0
M  V30 45 H -3.45732 -1.43478 3.11652 0
M  V30 46 H -4.49298 0.00823477 3.04137 0
M  V30 END ATOM
M  V30 BEGIN BOND
M  V30 1 3 1 2
M  V30 2 1 2 3
M  V30 3 2 3 4
M  V30 4 1 4 5
M  V30 5 1 4 6
M  V30 6 1 6 7
M  V30 7 2 7 8
M  V30 8 1 8 9
M  V30 9 1 9 10
M  V30 10 2 10 11
M  V30 11 1 11 12
M  V30 12 1 12 13
M  V30 13 1 11 14
M  V30 14 2 14 15
M  V30 15 1 15 16
M  V30 16 2 16 17
M  V30 17 1 17 18
M  V30 18 1 18 19
M  V30 19 1 15 20
M  V30 20 1 20 21
M  V30 21 1 8 22
M  V30 22 3 22 23
M  V30 23 1 7 24
M  V30 24 1 9 3
M  V30 25 1 17 10
M  V30 26 1 5 25
M  V30 27 1 5 26
M  V30 28 1 9 27
M  V30 29 1 12 28
M  V30 30 1 12 29
M  V30 31 1 13 30
M  V30 32 1 13 31
M  V30 33 1 13 32
M  V30 34 1 14 33
M  V30 35 1 16 34
M  V30 36 1 18 35
M  V30 37 1 18 36
M  V30 38 1 19 37
M  V30 39 1 19 38
M  V30 40 1 19 39
M  V30 41 1 20 40
M  V30 42 1 20 41
M  V30 43 1 21 42
M  V30 44 1 21 43
M  V30 45 1 21 44
M  V30 46 1 24 45
M  V30 47 1 24 46
M  V30 END BOND
M  V30 END CTAB
M  END
