
     RDKit          3D

  0  0  0  0  0  0  0  0  0  0999 V3000
M  V30 BEGIN CTAB
M  V30 COUNTS 20 20 0 0 0
M  V30 BEGIN ATOM
M  V30 1 N 3.98033 -0.428451 -0.39853 0
M  V30 2 N 3.02452 0.214127 0.377616 0
M  V30 3 C 1.65829 -0.0749328 0.206075 0
M  V30 4 O 1.32483 -0.935648 -0.673991 0
M  V30 5 C 0.649821 0.615999 1.03872 0
M  V30 6 N -0.656787 0.121159 0.643036 0
M  V30 7 N -1.29525 -0.91372 1.15025 0
M  V30 8 C -2.48156 -1.09878 0.557593 0
M  V30 9 C -2.56489 -0.0964824 -0.380896 0
M  V30 10 C -1.41611 0.659836 -0.316774 0
M  V30 11 N -3.65784 0.117108 -1.26616 0
M  V30 12 H 4.85525 0.140924 -0.382213 0
M  V30 13 H 4.15625 -1.40579 -0.128619 0
M  V30 14 H 3.30658 0.911071 1.08907 0
M  V30 15 H 0.78734 0.42419 2.12251 0
M  V30 16 H 0.744924 1.71084 0.839768 0
M  V30 17 H -3.17367 -1.88383 0.809935 0
M  V30 18 H -1.15747 1.5331 -0.923327 0
M  V30 19 H -3.51987 -0.00585129 -2.28327 0
M  V30 20 H -4.56469 0.395134 -0.815238 0
M  V30 END ATOM
M  V30 BEGIN BOND
M  V30 1 1 1 2
M  V30 2 1 2 3
M  V30 3 2 3 4
M  V30 4 1 3 5
M  V30 5 1 5 6
M  V30 6 1 6 7
M  V30 7 2 7 8
M  V30 8 1 8 9
M  V30 9 2 9 10
M  V30 10 1 9 11
M  V30 11 1 10 6
M  V30 12 1 1 12
M  V30 13 1 1 13
M  V30 14 1 2 14
M  V30 15 1 5 15
M  V30 16 1 5 16
M  V30 17 1 8 17
M  V30 18 1 10 18
M  V30 19 1 11 19
M  V30 20 1 11 20
M  V30 END BOND
M  V30 END CTAB
M  END
