
     RDKit          3D

  0  0  0  0  0  0  0  0  0  0999 V3000
M  V30 BEGIN CTAB
M  V30 COUNTS 21 21 0 0 0
M  V30 BEGIN ATOM
M  V30 1 N -0.687266 -1.88787 0.523266 0
M  V30 2 C -0.645573 -0.515942 0.181955 0
M  V30 3 C -1.80805 0.208531 -0.00769038 0
M  V30 4 C -1.70522 1.5591 -0.343329 0
M  V30 5 C -0.480629 2.1785 -0.487953 0
M  V30 6 Cl -0.331443 3.86813 -0.907567 0
M  V30 7 C 0.664325 1.41021 -0.287668 0
M  V30 8 C 0.589957 0.0731076 0.0448745 0
M  V30 9 S 2.03146 -0.861429 0.289517 0
M  V30 10 N 3.45401 0.0902197 0.0632317 0
M  V30 11 O 2.04621 -1.94433 -0.77408 0
M  V30 12 O 2.04115 -1.57101 1.61005 0
M  V30 13 N -3.05875 -0.43476 0.143215 0 CHG=1
M  V30 14 O -3.11325 -1.78467 -0.0966971 0 CHG=-1
M  V30 15 O -4.09956 0.153117 0.478176 0
M  V30 16 H -0.580681 -2.1397 1.52935 0
M  V30 17 H -0.816118 -2.67406 -0.148482 0
M  V30 18 H -2.62033 2.11673 -0.489642 0
M  V30 19 H 1.6124 1.92177 -0.407992 0
M  V30 20 H 4.20669 -0.566187 -0.255074 0
M  V30 21 H 3.30066 0.800545 -0.657458 0
M  V30 END ATOM
M  V30 BEGIN BOND
M  V30 1 1 1 2
M  V30 2 2 2 3
M  V30 3 1 3 4
M  V30 4 2 4 5
M  V30 5 1 5 6
M  V30 6 1 5 7
M  V30 7 2 7 8
M  V30 8 1 8 9
M  V30 9 1 9 10
M  V30 10 2 9 11
M  V30 11 2 9 12
M  V30 12 1 3 13
M  V30 13 1 13 14
M  V30 14 2 13 15
M  V30 15 1 8 2
M  V30 16 1 1 16
M  V30 17 1 1 17
M  V30 18 1 4 18
M  V30 19 1 7 19
M  V30 20 1 10 20
M  V30 21 1 10 21
M  V30 END BOND
M  V30 END CTAB
M  END
