
     RDKit          3D

  0  0  0  0  0  0  0  0  0  0999 V3000
M  V30 BEGIN CTAB
M  V30 COUNTS 21 22 0 0 0
M  V30 BEGIN ATOM
M  V30 1 N -3.19145 0.515675 -0.0177775 0
M  V30 2 C -1.77494 0.564037 -0.0439141 0
M  V30 3 C -1.07764 1.72145 -0.327368 0
M  V30 4 C 0.301681 1.78187 -0.355999 0
M  V30 5 C 1.04208 0.647008 -0.0927385 0
M  V30 6 C 2.41926 0.714402 -0.123027 0
M  V30 7 C 3.13067 -0.42391 0.141351 0
M  V30 8 C 2.44137 -1.58589 0.425819 0
M  V30 9 N 1.0948 -1.62443 0.448898 0
M  V30 10 C 0.354033 -0.517502 0.192314 0
M  V30 11 C -1.02829 -0.566413 0.218226 0
M  V30 12 N -1.7019 -1.79486 0.518383 0
M  V30 13 H -3.67571 0.176643 -0.886784 0
M  V30 14 H -3.77726 0.784634 0.779641 0
M  V30 15 H -1.66563 2.60542 -0.532301 0
M  V30 16 H 0.81786 2.72716 -0.586943 0
M  V30 17 H 2.95857 1.62685 -0.346369 0
M  V30 18 H 4.21181 -0.37473 0.118467 0
M  V30 19 H 3.01673 -2.48014 0.633327 0
M  V30 20 H -2.7224 -1.81282 0.640463 0
M  V30 21 H -1.17362 -2.68445 0.617442 0
M  V30 END ATOM
M  V30 BEGIN BOND
M  V30 1 1 1 2
M  V30 2 2 2 3
M  V30 3 1 3 4
M  V30 4 2 4 5
M  V30 5 1 5 6
M  V30 6 2 6 7
M  V30 7 1 7 8
M  V30 8 2 8 9
M  V30 9 1 9 10
M  V30 10 2 10 11
M  V30 11 1 11 12
M  V30 12 1 11 2
M  V30 13 1 10 5
M  V30 14 1 1 13
M  V30 15 1 1 14
M  V30 16 1 3 15
M  V30 17 1 4 16
M  V30 18 1 6 17
M  V30 19 1 7 18
M  V30 20 1 8 19
M  V30 21 1 12 20
M  V30 22 1 12 21
M  V30 END BOND
M  V30 END CTAB
M  END
