
     RDKit          3D

  0  0  0  0  0  0  0  0  0  0999 V3000
M  V30 BEGIN CTAB
M  V30 COUNTS 47 48 0 0 0
M  V30 BEGIN ATOM
M  V30 1 O -0.945636 -1.89623 1.16352 0
M  V30 2 C -0.593754 -0.728747 0.75598 0
M  V30 3 N -1.55289 0.283604 0.790615 0
M  V30 4 C -1.33532 1.658 0.365289 0
M  V30 5 C -1.03362 1.76726 -1.11934 0
M  V30 6 C -2.49645 2.57205 0.651412 0
M  V30 7 C -0.177568 2.27639 1.16809 0
M  V30 8 C -2.87192 -0.0678458 1.32013 0
M  V30 9 C -3.69236 -0.875501 0.386448 0
M  V30 10 C -4.05348 -2.18805 0.740826 0
M  V30 11 C -4.79168 -3.01558 -0.0423397 0
M  V30 12 C -5.21516 -2.52938 -1.27207 0
M  V30 13 C -4.8972 -1.25851 -1.6775 0
M  V30 14 C -4.14408 -0.467091 -0.835851 0
M  V30 15 C 0.80452 -0.650359 0.303755 0
M  V30 16 S 1.9832 -0.484432 1.68512 0
M  V30 17 C 3.61669 -0.447992 0.965968 0
M  V30 18 N 4.32941 -1.56491 0.753462 0
M  V30 19 C 5.55797 -1.57287 0.21637 0
M  V30 20 N 6.30306 -2.75447 -0.00466731 0
M  V30 21 C 6.09025 -0.341267 -0.125978 0
M  V30 22 C 5.40236 0.817307 0.0721313 0
M  V30 23 N 4.16032 0.724641 0.623739 0
M  V30 24 N 5.88764 2.11314 -0.254899 0
M  V30 25 H -1.86985 2.29654 -1.66728 0
M  V30 26 H -0.129168 2.41399 -1.27383 0
M  V30 27 H -0.949105 0.788456 -1.62311 0
M  V30 28 H -3.38603 2.4396 0.0596754 0
M  V30 29 H -2.11279 3.60786 0.384397 0
M  V30 30 H -2.68619 2.6708 1.75376 0
M  V30 31 H 0.768747 2.24016 0.614058 0
M  V30 32 H -0.186556 1.79576 2.14867 0
M  V30 33 H -0.411313 3.33817 1.30337 0
M  V30 34 H -2.70812 -0.657967 2.2513 0
M  V30 35 H -3.48245 0.822563 1.55791 0
M  V30 36 H -3.71042 -2.54529 1.70923 0
M  V30 37 H -5.04693 -4.02984 0.27643 0
M  V30 38 H -5.79897 -3.2014 -1.87952 0
M  V30 39 H -5.21349 -0.863396 -2.62176 0
M  V30 40 H -3.91338 0.523857 -1.19281 0
M  V30 41 H 1.02172 0.121553 -0.434623 0
M  V30 42 H 1.09356 -1.61849 -0.20801 0
M  V30 43 H 5.92914 -3.66197 0.346396 0
M  V30 44 H 7.20881 -2.73817 -0.505 0
M  V30 45 H 7.07586 -0.290593 -0.56237 0
M  V30 46 H 6.9084 2.29022 -0.173702 0
M  V30 47 H 5.2642 2.88843 -0.571172 0
M  V30 END ATOM
M  V30 BEGIN BOND
M  V30 1 2 1 2
M  V30 2 1 2 3
M  V30 3 1 3 4
M  V30 4 1 4 5
M  V30 5 1 4 6
M  V30 6 1 4 7
M  V30 7 1 3 8
M  V30 8 1 8 9
M  V30 9 2 9 10
M  V30 10 1 10 11
M  V30 11 2 11 12
M  V30 12 1 12 13
M  V30 13 2 13 14
M  V30 14 1 2 15
M  V30 15 1 15 16
M  V30 16 1 16 17
M  V30 17 2 17 18
M  V30 18 1 18 19
M  V30 19 1 19 20
M  V30 20 2 19 21
M  V30 21 1 21 22
M  V30 22 2 22 23
M  V30 23 1 22 24
M  V30 24 1 14 9
M  V30 25 1 23 17
M  V30 26 1 5 25
M  V30 27 1 5 26
M  V30 28 1 5 27
M  V30 29 1 6 28
M  V30 30 1 6 29
M  V30 31 1 6 30
M  V30 32 1 7 31
M  V30 33 1 7 32
M  V30 34 1 7 33
M  V30 35 1 8 34
M  V30 36 1 8 35
M  V30 37 1 10 36
M  V30 38 1 11 37
M  V30 39 1 12 38
M  V30 40 1 13 39
M  V30 41 1 14 40
M  V30 42 1 15 41
M  V30 43 1 15 42
M  V30 44 1 20 43
M  V30 45 1 20 44
M  V30 46 1 21 45
M  V30 47 1 24 46
M  V30 48 1 24 47
M  V30 END BOND
M  V30 END CTAB
M  END
