
     RDKit          3D

  0  0  0  0  0  0  0  0  0  0999 V3000
M  V30 BEGIN CTAB
M  V30 COUNTS 21 21 0 0 0
M  V30 BEGIN ATOM
M  V30 1 N -2.1685 1.9511 1.02208 0
M  V30 2 N -2.50518 0.796531 0.426012 0
M  V30 3 C -1.78113 -0.0860941 -0.0376671 0
M  V30 4 C -0.341973 -0.0712254 -0.0418341 0
M  V30 5 C 0.434332 0.930508 0.462983 0
M  V30 6 C 1.82974 0.785422 0.380075 0
M  V30 7 C 2.40519 -0.327218 -0.190019 0
M  V30 8 N 1.62841 -1.30401 -0.682188 0
M  V30 9 C 0.320434 -1.19113 -0.616209 0
M  V30 10 N 3.81379 -0.497718 -0.285929 0
M  V30 11 C -2.50006 -1.27167 -0.647564 0
M  V30 12 H -2.04537 2.83815 0.484486 0
M  V30 13 H -2.02106 2.00397 2.05419 0
M  V30 14 H 0.0531306 1.81686 0.915605 0
M  V30 15 H 2.48225 1.54505 0.762498 0
M  V30 16 H -0.284188 -2.00973 -1.02874 0
M  V30 17 H 4.38582 -0.520547 0.592211 0
M  V30 18 H 4.30041 -0.601485 -1.20549 0
M  V30 19 H -2.13378 -1.45147 -1.6777 0
M  V30 20 H -2.27592 -2.18795 -0.0585942 0
M  V30 21 H -3.59633 -1.14732 -0.62821 0
M  V30 END ATOM
M  V30 BEGIN BOND
M  V30 1 1 1 2
M  V30 2 2 2 3
M  V30 3 1 3 4
M  V30 4 2 4 5
M  V30 5 1 5 6
M  V30 6 2 6 7
M  V30 7 1 7 8
M  V30 8 2 8 9
M  V30 9 1 7 10
M  V30 10 1 3 11
M  V30 11 1 9 4
M  V30 12 1 1 12
M  V30 13 1 1 13
M  V30 14 1 5 14
M  V30 15 1 6 15
M  V30 16 1 9 16
M  V30 17 1 10 17
M  V30 18 1 10 18
M  V30 19 1 11 19
M  V30 20 1 11 20
M  V30 21 1 11 21
M  V30 END BOND
M  V30 END CTAB
M  END
