
     RDKit          3D

  0  0  0  0  0  0  0  0  0  0999 V3000
M  V30 BEGIN CTAB
M  V30 COUNTS 22 22 0 0 0
M  V30 BEGIN ATOM
M  V30 1 N -1.86109 0.073798 -1.63422 0
M  V30 2 C -2.02008 -0.660125 -0.419831 0
M  V30 3 C -1.26054 0.0779684 0.672362 0
M  V30 4 C 0.179608 0.157015 0.294206 0
M  V30 5 C 1.02452 -0.938835 0.439047 0
M  V30 6 C 2.34897 -0.918418 0.108055 0
M  V30 7 F 3.13152 -2.02693 0.272257 0
M  V30 8 C 2.8827 0.259337 -0.400796 0
M  V30 9 C 2.07879 1.38728 -0.565981 0
M  V30 10 C 0.758267 1.30166 -0.215017 0
M  V30 11 Cl 2.75523 2.85969 -1.2044 0
M  V30 12 N -1.44119 -0.574687 1.95331 0
M  V30 13 H -2.5208 0.833492 -1.79434 0
M  V30 14 H -1.63931 -0.510259 -2.46401 0
M  V30 15 H -3.0816 -0.759011 -0.0871703 0
M  V30 16 H -1.60936 -1.67216 -0.543892 0
M  V30 17 H -1.65052 1.10255 0.759009 0
M  V30 18 H 0.602542 -1.8444 0.833139 0
M  V30 19 H 3.93456 0.311476 -0.675202 0
M  V30 20 H 0.124348 2.16822 -0.337916 0
M  V30 21 H -0.547473 -0.506957 2.48634 0
M  V30 22 H -2.18908 -0.120696 2.52505 0
M  V30 END ATOM
M  V30 BEGIN BOND
M  V30 1 1 1 2
M  V30 2 1 2 3
M  V30 3 1 3 4
M  V30 4 2 4 5
M  V30 5 1 5 6
M  V30 6 1 6 7
M  V30 7 2 6 8
M  V30 8 1 8 9
M  V30 9 2 9 10
M  V30 10 1 9 11
M  V30 11 1 3 12
M  V30 12 1 10 4
M  V30 13 1 1 13
M  V30 14 1 1 14
M  V30 15 1 2 15
M  V30 16 1 2 16
M  V30 17 1 3 17
M  V30 18 1 5 18
M  V30 19 1 8 19
M  V30 20 1 10 20
M  V30 21 1 12 21
M  V30 22 1 12 22
M  V30 END BOND
M  V30 END CTAB
M  END
