
     RDKit          3D

  0  0  0  0  0  0  0  0  0  0999 V3000
M  V30 BEGIN CTAB
M  V30 COUNTS 38 39 0 0 0
M  V30 BEGIN ATOM
M  V30 1 N -5.68038 1.0333 0.767704 0
M  V30 2 N -4.62483 0.534383 -0.0294296 0
M  V30 3 C -3.29401 0.506925 0.458373 0
M  V30 4 O -3.04394 0.930971 1.61513 0
M  V30 5 C -2.1914 -0.0174667 -0.382313 0
M  V30 6 N -2.72853 -0.434373 -1.64097 0
M  V30 7 C -1.62573 -1.23551 0.311558 0
M  V30 8 C -0.453966 -1.70212 -0.479077 0
M  V30 9 N 0.609078 -0.748242 -0.634809 0
M  V30 10 C 0.235613 0.582575 -0.82143 0
M  V30 11 C -1.13535 1.02287 -0.484517 0
M  V30 12 C 1.6711 -1.07334 0.222283 0
M  V30 13 C 2.8895 -0.302543 0.221721 0
M  V30 14 C 3.37383 0.489154 -0.795266 0
M  V30 15 C 4.5572 1.18528 -0.684733 0
M  V30 16 C 5.32058 1.12175 0.460893 0
M  V30 17 C 4.85431 0.334223 1.49301 0
M  V30 18 C 3.67762 -0.346387 1.35885 0
M  V30 19 H -6.2415 1.73297 0.253561 0
M  V30 20 H -6.29384 0.214894 0.985997 0
M  V30 21 H -4.80342 0.177877 -0.988729 0
M  V30 22 H -3.21778 -1.35861 -1.51347 0
M  V30 23 H -1.99051 -0.609513 -2.36352 0
M  V30 24 H -1.29058 -0.990048 1.33152 0
M  V30 25 H -2.38923 -2.01065 0.30688 0
M  V30 26 H -0.799922 -2.06141 -1.4929 0
M  V30 27 H -0.0519308 -2.61291 0.0120154 0
M  V30 28 H 0.405165 0.837833 -1.91283 0
M  V30 29 H 0.921087 1.31019 -0.291452 0
M  V30 30 H -1.15202 1.59068 0.493187 0
M  V30 31 H -1.50759 1.79301 -1.22402 0
M  V30 32 H 1.25953 -1.11329 1.27286 0
M  V30 33 H 1.95256 -2.15245 0.0250285 0
M  V30 34 H 2.7736 0.546454 -1.71319 0
M  V30 35 H 4.90143 1.80011 -1.51679 0
M  V30 36 H 6.26486 1.67869 0.546049 0
M  V30 37 H 5.4693 0.294941 2.391 0
M  V30 38 H 3.3801 -0.950205 2.22975 0
M  V30 END ATOM
M  V30 BEGIN BOND
M  V30 1 1 1 2
M  V30 2 1 2 3
M  V30 3 2 3 4
M  V30 4 1 3 5
M  V30 5 1 5 6
M  V30 6 1 5 7
M  V30 7 1 7 8
M  V30 8 1 8 9
M  V30 9 1 9 10
M  V30 10 1 10 11
M  V30 11 1 9 12
M  V30 12 1 12 13
M  V30 13 2 13 14
M  V30 14 1 14 15
M  V30 15 2 15 16
M  V30 16 1 16 17
M  V30 17 2 17 18
M  V30 18 1 11 5
M  V30 19 1 18 13
M  V30 20 1 1 19
M  V30 21 1 1 20
M  V30 22 1 2 21
M  V30 23 1 6 22
M  V30 24 1 6 23
M  V30 25 1 7 24
M  V30 26 1 7 25
M  V30 27 1 8 26
M  V30 28 1 8 27
M  V30 29 1 10 28
M  V30 30 1 10 29
M  V30 31 1 11 30
M  V30 32 1 11 31
M  V30 33 1 12 32
M  V30 34 1 12 33
M  V30 35 1 14 34
M  V30 36 1 15 35
M  V30 37 1 16 36
M  V30 38 1 17 37
M  V30 39 1 18 38
M  V30 END BOND
M  V30 END CTAB
M  END
