
     RDKit          3D

  0  0  0  0  0  0  0  0  0  0999 V3000
M  V30 BEGIN CTAB
M  V30 COUNTS 31 32 0 0 0
M  V30 BEGIN ATOM
M  V30 1 Cl 5.21924 -1.86147 2.6029 0
M  V30 2 C 4.06205 -1.49346 1.33791 0
M  V30 3 C 4.46919 -1.43183 0.0195555 0
M  V30 4 C 3.58017 -1.14763 -0.962066 0
M  V30 5 C 2.21296 -0.901315 -0.713374 0
M  V30 6 C 1.80625 -0.963004 0.596883 0
M  V30 7 C 2.73747 -1.2562 1.58748 0
M  V30 8 N 1.36539 -0.592643 -1.79119 0
M  V30 9 S 0.358666 0.764904 -1.89694 0
M  V30 10 O -0.319607 0.861699 -3.2477 0
M  V30 11 O 1.24121 2.00503 -1.78727 0
M  V30 12 C -0.863156 0.907403 -0.69623 0
M  V30 13 C -0.717023 1.78363 0.369311 0
M  V30 14 C -1.69884 1.89193 1.32581 0
M  V30 15 C -2.85495 1.14517 1.26866 0
M  V30 16 C -3.00132 0.27068 0.205679 0
M  V30 17 C -2.03367 0.142459 -0.766112 0
M  V30 18 N -4.18794 -0.510442 0.127222 0
M  V30 19 N -3.89612 1.22209 2.23169 0
M  V30 20 H 5.50419 -1.6128 -0.219367 0
M  V30 21 H 3.89461 -1.09807 -1.99834 0
M  V30 22 H 0.775993 -0.804678 0.869006 0
M  V30 23 H 2.39491 -1.29893 2.61215 0
M  V30 24 H 1.37221 -1.28538 -2.60061 0
M  V30 25 H 0.178099 2.37675 0.433785 0
M  V30 26 H -1.60431 2.57921 2.17815 0
M  V30 27 H -2.15173 -0.551982 -1.60875 0
M  V30 28 H -4.97308 -0.137844 -0.447824 0
M  V30 29 H -4.29479 -1.41146 0.608736 0
M  V30 30 H -4.31811 0.314316 2.54437 0
M  V30 31 H -4.25795 2.09387 2.63623 0
M  V30 END ATOM
M  V30 BEGIN BOND
M  V30 1 1 1 2
M  V30 2 2 2 3
M  V30 3 1 3 4
M  V30 4 2 4 5
M  V30 5 1 5 6
M  V30 6 2 6 7
M  V30 7 1 5 8
M  V30 8 1 8 9
M  V30 9 2 9 10
M  V30 10 2 9 11
M  V30 11 1 9 12
M  V30 12 2 12 13
M  V30 13 1 13 14
M  V30 14 2 14 15
M  V30 15 1 15 16
M  V30 16 2 16 17
M  V30 17 1 16 18
M  V30 18 1 15 19
M  V30 19 1 7 2
M  V30 20 1 17 12
M  V30 21 1 3 20
M  V30 22 1 4 21
M  V30 23 1 6 22
M  V30 24 1 7 23
M  V30 25 1 8 24
M  V30 26 1 13 25
M  V30 27 1 14 26
M  V30 28 1 17 27
M  V30 29 1 18 28
M  V30 30 1 18 29
M  V30 31 1 19 30
M  V30 32 1 19 31
M  V30 END BOND
M  V30 END CTAB
M  END
