
     RDKit          3D

  0  0  0  0  0  0  0  0  0  0999 V3000
M  V30 BEGIN CTAB
M  V30 COUNTS 32 32 0 0 0
M  V30 BEGIN ATOM
M  V30 1 N 3.67497 -0.355806 1.33269 0
M  V30 2 C 4.66128 -0.151072 0.321741 0
M  V30 3 C 4.25685 0.689088 -0.845796 0
M  V30 4 O 3.2419 0.260753 -1.59755 0
M  V30 5 C 2.03517 0.0900397 -1.00465 0
M  V30 6 C 0.961583 -0.280341 -2.03064 0
M  V30 7 N -0.308522 -0.457788 -1.38328 0
M  V30 8 C -1.02173 0.536455 -0.673196 0
M  V30 9 O -0.519676 1.69521 -0.593288 0
M  V30 10 C -2.30137 0.346642 -0.0151389 0
M  V30 11 C -2.97416 1.39566 0.576113 0
M  V30 12 C -4.18574 1.21232 1.20053 0
M  V30 13 C -4.73647 -0.0750425 1.22855 0
M  V30 14 N -4.04585 -1.06091 0.640993 0
M  V30 15 C -2.86452 -0.902872 0.0277939 0
M  V30 16 N -5.98551 -0.305096 1.86348 0
M  V30 17 H 3.72007 0.403027 2.04015 0
M  V30 18 H 3.65743 -1.31467 1.73537 0
M  V30 19 H 5.03439 -1.12975 -0.100213 0
M  V30 20 H 5.55447 0.308369 0.822507 0
M  V30 21 H 4.12448 1.76843 -0.492146 0
M  V30 22 H 5.21705 0.776526 -1.47137 0
M  V30 23 H 2.1018 -0.867837 -0.38868 0
M  V30 24 H 1.70502 0.903113 -0.357312 0
M  V30 25 H 1.29719 -1.21672 -2.50655 0
M  V30 26 H 0.924087 0.487442 -2.83725 0
M  V30 27 H -0.712036 -1.44023 -1.47271 0
M  V30 28 H -2.57399 2.40427 0.571282 0
M  V30 29 H -4.72627 2.01068 1.66613 0
M  V30 30 H -2.35728 -1.7741 -0.433547 0
M  V30 31 H -6.36025 -1.26182 1.9027 0
M  V30 32 H -6.49436 0.488248 2.2733 0
M  V30 END ATOM
M  V30 BEGIN BOND
M  V30 1 1 1 2
M  V30 2 1 2 3
M  V30 3 1 3 4
M  V30 4 1 4 5
M  V30 5 1 5 6
M  V30 6 1 6 7
M  V30 7 1 7 8
M  V30 8 2 8 9
M  V30 9 1 8 10
M  V30 10 2 10 11
M  V30 11 1 11 12
M  V30 12 2 12 13
M  V30 13 1 13 14
M  V30 14 2 14 15
M  V30 15 1 13 16
M  V30 16 1 15 10
M  V30 17 1 1 17
M  V30 18 1 1 18
M  V30 19 1 2 19
M  V30 20 1 2 20
M  V30 21 1 3 21
M  V30 22 1 3 22
M  V30 23 1 5 23
M  V30 24 1 5 24
M  V30 25 1 6 25
M  V30 26 1 6 26
M  V30 27 1 7 27
M  V30 28 1 11 28
M  V30 29 1 12 29
M  V30 30 1 15 30
M  V30 31 1 16 31
M  V30 32 1 16 32
M  V30 END BOND
M  V30 END CTAB
M  END
