
     RDKit          3D

  0  0  0  0  0  0  0  0  0  0999 V3000
M  V30 BEGIN CTAB
M  V30 COUNTS 24 24 0 0 0
M  V30 BEGIN ATOM
M  V30 1 N -1.69657 -2.37272 -0.653533 0
M  V30 2 C -1.85356 -0.968749 -0.33597 0
M  V30 3 N -3.03433 -0.391015 -0.60033 0
M  V30 4 C -3.28088 0.901914 -0.34379 0
M  V30 5 C -2.24151 1.6253 0.216552 0
M  V30 6 C -1.00726 1.05145 0.501142 0
M  V30 7 C -0.78583 -0.267861 0.228109 0
M  V30 8 C 0.429061 -1.033 0.478404 0
M  V30 9 C 1.6779 -0.288908 0.748384 0
M  V30 10 C 2.11977 0.605686 -0.385825 0
M  V30 11 N 3.35006 1.28906 -0.00290612 0
M  V30 12 F 0.64515 -1.81703 -0.666963 0
M  V30 13 Cl -2.5381 3.32192 0.565133 0
M  V30 14 H -1.64538 -2.62162 -1.67572 0
M  V30 15 H -1.64655 -3.02856 0.132627 0
M  V30 16 H -4.24729 1.36779 -0.561681 0
M  V30 17 H -0.245761 1.63508 0.937926 0
M  V30 18 H 0.245129 -1.79238 1.29861 0
M  V30 19 H 2.50019 -1.04721 0.874533 0
M  V30 20 H 1.66148 0.307558 1.68326 0
M  V30 21 H 2.40696 -0.0659658 -1.23181 0
M  V30 22 H 1.38106 1.33211 -0.711157 0
M  V30 23 H 3.99834 1.37661 -0.825291 0
M  V30 24 H 3.80793 0.880561 0.816495 0
M  V30 END ATOM
M  V30 BEGIN BOND
M  V30 1 1 1 2
M  V30 2 2 2 3
M  V30 3 1 3 4
M  V30 4 2 4 5
M  V30 5 1 5 6
M  V30 6 2 6 7
M  V30 7 1 7 8
M  V30 8 1 8 9
M  V30 9 1 9 10
M  V30 10 1 10 11
M  V30 11 1 8 12
M  V30 12 1 5 13
M  V30 13 1 7 2
M  V30 14 1 1 14
M  V30 15 1 1 15
M  V30 16 1 4 16
M  V30 17 1 6 17
M  V30 18 1 8 18
M  V30 19 1 9 19
M  V30 20 1 9 20
M  V30 21 1 10 21
M  V30 22 1 10 22
M  V30 23 1 11 23
M  V30 24 1 11 24
M  V30 END BOND
M  V30 END CTAB
M  END
