
     RDKit          3D

  0  0  0  0  0  0  0  0  0  0999 V3000
M  V30 BEGIN CTAB
M  V30 COUNTS 16 16 0 0 0
M  V30 BEGIN ATOM
M  V30 1 N -1.60168 1.59235 -0.109208 0
M  V30 2 C -0.436745 0.774464 -0.0371377 0
M  V30 3 C 0.832235 1.29381 0.0210811 0
M  V30 4 C 1.92034 0.452103 0.0894659 0
M  V30 5 Cl 3.53647 1.12843 0.163415 0
M  V30 6 C 1.80952 -0.916008 0.103359 0
M  V30 7 Br 3.34509 -2.06106 0.19925 0
M  V30 8 C 0.538598 -1.44906 0.0452398 0
M  V30 9 C -0.565973 -0.608043 -0.0239902 0
M  V30 10 N -1.88985 -1.13331 -0.0849979 0
M  V30 11 H -1.98829 1.99783 -0.967969 0
M  V30 12 H -2.09828 1.79221 0.78692 0
M  V30 13 H 0.925375 2.37962 0.0102994 0
M  V30 14 H 0.375685 -2.53724 0.0524358 0
M  V30 15 H -2.70765 -0.634695 0.277696 0
M  V30 16 H -1.99484 -2.07139 -0.52586 0
M  V30 END ATOM
M  V30 BEGIN BOND
M  V30 1 1 1 2
M  V30 2 2 2 3
M  V30 3 1 3 4
M  V30 4 1 4 5
M  V30 5 2 4 6
M  V30 6 1 6 7
M  V30 7 1 6 8
M  V30 8 2 8 9
M  V30 9 1 9 10
M  V30 10 1 9 2
M  V30 11 1 1 11
M  V30 12 1 1 12
M  V30 13 1 3 13
M  V30 14 1 8 14
M  V30 15 1 10 15
M  V30 16 1 10 16
M  V30 END BOND
M  V30 END CTAB
M  END
