
     RDKit          3D

  0  0  0  0  0  0  0  0  0  0999 V3000
M  V30 BEGIN CTAB
M  V30 COUNTS 29 30 0 0 0
M  V30 BEGIN ATOM
M  V30 1 N 1.30275 1.75369 -0.361749 0
M  V30 2 C 1.77867 0.473055 -0.0299966 0
M  V30 3 N 0.906676 -0.528605 0.16416 0
M  V30 4 C -0.507384 -0.305772 0.0365338 0
M  V30 5 C -1.2342 -1.03193 -0.884511 0
M  V30 6 C -2.59139 -0.854267 -1.04382 0
M  V30 7 C -3.18569 0.0891395 -0.232767 0
M  V30 8 C -2.4786 0.823716 0.691903 0
M  V30 9 C -1.12563 0.631357 0.8352 0
M  V30 10 C -4.65381 0.314171 -0.371657 0
M  V30 11 C 1.38692 -1.74258 0.480181 0
M  V30 12 S 0.310327 -2.94792 0.712387 0
M  V30 13 N 2.72457 -1.96522 0.603754 0
M  V30 14 C 3.6062 -0.97174 0.412062 0
M  V30 15 O 4.85004 -1.1427 0.518329 0
M  V30 16 C 3.14315 0.27854 0.0882457 0
M  V30 17 N 4.0719 1.35011 -0.119673 0
M  V30 18 H 0.901957 2.00955 -1.29469 0
M  V30 19 H 1.34999 2.50253 0.367145 0
M  V30 20 H -0.723177 -1.77707 -1.51469 0
M  V30 21 H -3.13923 -1.43577 -1.77283 0
M  V30 22 H -2.96862 1.56593 1.32436 0
M  V30 23 H -0.542105 1.20991 1.57015 0
M  V30 24 H -4.97381 0.00810155 -1.39297 0
M  V30 25 H -4.88117 1.39321 -0.219579 0
M  V30 26 H -5.22908 -0.295183 0.343497 0
M  V30 27 H 3.08909 -2.92474 0.852746 0
M  V30 28 H 4.98121 1.42742 0.383204 0
M  V30 29 H 3.83046 2.09307 -0.808193 0
M  V30 END ATOM
M  V30 BEGIN BOND
M  V30 1 1 1 2
M  V30 2 1 2 3
M  V30 3 1 3 4
M  V30 4 2 4 5
M  V30 5 1 5 6
M  V30 6 2 6 7
M  V30 7 1 7 8
M  V30 8 2 8 9
M  V30 9 1 7 10
M  V30 10 1 3 11
M  V30 11 2 11 12
M  V30 12 1 11 13
M  V30 13 1 13 14
M  V30 14 2 14 15
M  V30 15 1 14 16
M  V30 16 1 16 17
M  V30 17 2 16 2
M  V30 18 1 9 4
M  V30 19 1 1 18
M  V30 20 1 1 19
M  V30 21 1 5 20
M  V30 22 1 6 21
M  V30 23 1 8 22
M  V30 24 1 9 23
M  V30 25 1 10 24
M  V30 26 1 10 25
M  V30 27 1 10 26
M  V30 28 1 13 27
M  V30 29 1 17 28
M  V30 30 1 17 29
M  V30 END BOND
M  V30 END CTAB
M  END
