
     RDKit          3D

  0  0  0  0  0  0  0  0  0  0999 V3000
M  V30 BEGIN CTAB
M  V30 COUNTS 19 19 0 0 0
M  V30 BEGIN ATOM
M  V30 1 C -2.91448 -1.10856 0.110339 0
M  V30 2 O -2.13579 0.0355075 0.177684 0
M  V30 3 C -0.752638 0.0704102 0.0961505 0
M  V30 4 C -0.0210037 1.22387 0.167324 0
M  V30 5 N -0.679735 2.46762 0.333102 0
M  V30 6 O -1.69989 2.78907 -0.307733 0
M  V30 7 C 1.34517 1.16964 0.0778593 0
M  V30 8 N 2.09621 2.37811 0.153355 0
M  V30 9 N 1.96121 -0.014766 -0.0792951 0
M  V30 10 C 1.24009 -1.14246 -0.148519 0
M  V30 11 N 1.91473 -2.36854 -0.313467 0
M  V30 12 N -0.105881 -1.09841 -0.0613217 0
M  V30 13 H -3.67665 -1.18907 0.915895 0
M  V30 14 H -2.2734 -2.01499 0.200282 0
M  V30 15 H -3.40107 -1.17506 -0.900769 0
M  V30 16 H 1.74536 3.22873 0.635229 0
M  V30 17 H 3.03784 2.37602 -0.30644 0
M  V30 18 H 2.27649 -2.63194 -1.23991 0
M  V30 19 H 2.04345 -2.99519 0.490237 0
M  V30 END ATOM
M  V30 BEGIN BOND
M  V30 1 1 1 2
M  V30 2 1 2 3
M  V30 3 2 3 4
M  V30 4 1 4 5
M  V30 5 2 5 6
M  V30 6 1 4 7
M  V30 7 1 7 8
M  V30 8 2 7 9
M  V30 9 1 9 10
M  V30 10 1 10 11
M  V30 11 2 10 12
M  V30 12 1 12 3
M  V30 13 1 1 13
M  V30 14 1 1 14
M  V30 15 1 1 15
M  V30 16 1 8 16
M  V30 17 1 8 17
M  V30 18 1 11 18
M  V30 19 1 11 19
M  V30 END BOND
M  V30 END CTAB
M  END
