
     RDKit          3D

  0  0  0  0  0  0  0  0  0  0999 V3000
M  V30 BEGIN CTAB
M  V30 COUNTS 19 19 0 0 0
M  V30 BEGIN ATOM
M  V30 1 O -3.37877 -0.230765 -0.000854623 0
M  V30 2 C -2.13284 -0.823591 -0.11856 0
M  V30 3 O -2.04997 -2.05584 -0.306402 0
M  V30 4 C -0.9466 0.0127802 -0.0192389 0
M  V30 5 C -1.04701 1.37094 0.188044 0
M  V30 6 F -2.28816 1.89867 0.295877 0
M  V30 7 C 0.0974911 2.13512 0.27744 0
M  V30 8 C 1.33235 1.53771 0.159265 0
M  V30 9 C 1.47142 0.19492 -0.0465742 0
M  V30 10 C 0.314598 -0.583188 -0.137796 0
M  V30 11 N 0.370258 -1.97884 -0.349697 0
M  V30 12 N 2.74135 -0.442902 -0.171662 0
M  V30 13 H -3.87376 -0.093757 0.856328 0
M  V30 14 H -0.0184082 3.21395 0.442915 0
M  V30 15 H 2.2249 2.16164 0.233187 0
M  V30 16 H 0.588688 -2.61758 0.428769 0
M  V30 17 H 0.188496 -2.34828 -1.29726 0
M  V30 18 H 2.85709 -1.43926 0.127102 0
M  V30 19 H 3.54887 0.0882828 -0.560883 0
M  V30 END ATOM
M  V30 BEGIN BOND
M  V30 1 1 1 2
M  V30 2 2 2 3
M  V30 3 1 2 4
M  V30 4 2 4 5
M  V30 5 1 5 6
M  V30 6 1 5 7
M  V30 7 2 7 8
M  V30 8 1 8 9
M  V30 9 2 9 10
M  V30 10 1 10 11
M  V30 11 1 9 12
M  V30 12 1 10 4
M  V30 13 1 1 13
M  V30 14 1 7 14
M  V30 15 1 8 15
M  V30 16 1 11 16
M  V30 17 1 11 17
M  V30 18 1 12 18
M  V30 19 1 12 19
M  V30 END BOND
M  V30 END CTAB
M  END
