
     RDKit          3D

  0  0  0  0  0  0  0  0  0  0999 V3000
M  V30 BEGIN CTAB
M  V30 COUNTS 21 21 0 0 0
M  V30 BEGIN ATOM
M  V30 1 Br 2.44765 -2.23844 -1.18154 0
M  V30 2 C 2.91763 -0.900101 0.0519728 0
M  V30 3 C 1.89259 0.0979294 0.336918 0
M  V30 4 O 2.38822 1.16957 0.918388 0
M  V30 5 C 0.473159 0.134183 0.10758 0
M  V30 6 C -0.287091 -0.940395 -0.305706 0
M  V30 7 C -1.68128 -0.885509 -0.456363 0
M  V30 8 N -2.42582 -2.00509 -0.882556 0
M  V30 9 C -2.28987 0.302704 -0.174361 0
M  V30 10 C -1.55012 1.38905 0.240844 0
M  V30 11 C -0.180444 1.34657 0.391953 0
M  V30 12 N 0.528604 2.52202 0.805242 0
M  V30 13 F -3.64972 0.401937 -0.307109 0
M  V30 14 H 3.21365 -1.42282 1.01508 0
M  V30 15 H 3.88245 -0.407658 -0.283223 0
M  V30 16 H 0.136016 -1.89631 -0.515713 0
M  V30 17 H -3.45624 -2.02309 -0.964363 0
M  V30 18 H -1.90457 -2.86916 -1.13151 0
M  V30 19 H -2.03284 2.33124 0.463815 0
M  V30 20 H 1.07995 3.02683 0.0889265 0
M  V30 21 H 0.498091 2.86654 1.78171 0
M  V30 END ATOM
M  V30 BEGIN BOND
M  V30 1 1 1 2
M  V30 2 1 2 3
M  V30 3 2 3 4
M  V30 4 1 3 5
M  V30 5 2 5 6
M  V30 6 1 6 7
M  V30 7 1 7 8
M  V30 8 2 7 9
M  V30 9 1 9 10
M  V30 10 2 10 11
M  V30 11 1 11 12
M  V30 12 1 9 13
M  V30 13 1 11 5
M  V30 14 1 2 14
M  V30 15 1 2 15
M  V30 16 1 6 16
M  V30 17 1 8 17
M  V30 18 1 8 18
M  V30 19 1 10 19
M  V30 20 1 12 20
M  V30 21 1 12 21
M  V30 END BOND
M  V30 END CTAB
M  END
