
     RDKit          3D

  0  0  0  0  0  0  0  0  0  0999 V3000
M  V30 BEGIN CTAB
M  V30 COUNTS 19 19 0 0 0
M  V30 BEGIN ATOM
M  V30 1 F 2.09065 2.57535 -0.117301 0
M  V30 2 C 1.04116 1.71791 -0.100901 0
M  V30 3 C -0.261157 2.13018 -0.236537 0
M  V30 4 C -1.32316 1.25297 -0.218892 0
M  V30 5 Br -3.13095 1.84316 -0.409098 0
M  V30 6 C -1.05431 -0.0911439 -0.0578202 0
M  V30 7 C 0.25849 -0.513136 0.0795821 0
M  V30 8 C 1.32159 0.36252 0.0621792 0
M  V30 9 N 2.67471 -0.0499421 0.201446 0
M  V30 10 N 0.54668 -1.89421 0.245919 0
M  V30 11 C -2.13261 -1.12582 -0.024717 0
M  V30 12 H -0.450802 3.18222 -0.361129 0
M  V30 13 H 2.90339 -0.792669 0.8957 0
M  V30 14 H 3.38579 0.414755 -0.404494 0
M  V30 15 H 0.180345 -2.43023 1.0641 0
M  V30 16 H 1.13833 -2.35312 -0.480329 0
M  V30 17 H -1.94643 -1.91427 -0.806737 0
M  V30 18 H -2.13551 -1.63903 0.942952 0
M  V30 19 H -3.1062 -0.675488 -0.27392 0
M  V30 END ATOM
M  V30 BEGIN BOND
M  V30 1 1 1 2
M  V30 2 2 2 3
M  V30 3 1 3 4
M  V30 4 1 4 5
M  V30 5 2 4 6
M  V30 6 1 6 7
M  V30 7 2 7 8
M  V30 8 1 8 9
M  V30 9 1 7 10
M  V30 10 1 6 11
M  V30 11 1 8 2
M  V30 12 1 3 12
M  V30 13 1 9 13
M  V30 14 1 9 14
M  V30 15 1 10 15
M  V30 16 1 10 16
M  V30 17 1 11 17
M  V30 18 1 11 18
M  V30 19 1 11 19
M  V30 END BOND
M  V30 END CTAB
M  END
