
     RDKit          3D

  0  0  0  0  0  0  0  0  0  0999 V3000
M  V30 BEGIN CTAB
M  V30 COUNTS 46 48 0 0 0
M  V30 BEGIN ATOM
M  V30 1 C -0.238572 -2.53925 -0.105127 0
M  V30 2 C 0.196721 -1.27073 -0.806217 0
M  V30 3 C -0.141476 -0.0257686 -0.054186 0
M  V30 4 C 0.422417 0.129684 1.29643 0
M  V30 5 C 1.87711 0.158541 1.36376 0
M  V30 6 N 2.61722 0.111058 0.249126 0
M  V30 7 C 3.96052 0.135204 0.267813 0
M  V30 8 C 4.61961 0.211873 1.47662 0
M  V30 9 N 3.86415 0.258604 2.58229 0
M  V30 10 C 2.52481 0.236958 2.60855 0
M  V30 11 N 5.96776 0.236835 1.50845 0
M  V30 12 C 6.73388 0.190386 0.404217 0
M  V30 13 N 8.15534 0.217595 0.453887 0
M  V30 14 N 6.09361 0.115279 -0.781707 0
M  V30 15 C 4.7388 0.0872746 -0.86774 0
M  V30 16 N 4.07344 0.00799261 -2.12312 0
M  V30 17 C -1.61562 0.228705 -0.116746 0
M  V30 18 C -2.10627 1.23236 -0.923438 0
M  V30 19 C -3.46248 1.50477 -1.00938 0
M  V30 20 C -4.38403 0.778158 -0.286521 0
M  V30 21 C -3.90446 -0.228069 0.523647 0
M  V30 22 C -2.5335 -0.496554 0.604689 0
M  V30 23 C -5.81518 1.05517 -0.368345 0
M  V30 24 O -6.22985 1.9785 -1.11459 0
M  V30 25 O -6.7549 0.336742 0.349533 0
M  V30 26 C -8.14531 0.592325 0.281653 0
M  V30 27 H -0.169559 -2.50347 0.980166 0
M  V30 28 H -1.28571 -2.77979 -0.379136 0
M  V30 29 H 0.361244 -3.4188 -0.48561 0
M  V30 30 H -0.418153 -1.20096 -1.76674 0
M  V30 31 H 1.2125 -1.38602 -1.14279 0
M  V30 32 H 0.320976 0.809862 -0.677833 0
M  V30 33 H 0.0676763 -0.621225 2.03649 0
M  V30 34 H 0.0403786 1.11013 1.71971 0
M  V30 35 H 1.93318 0.275262 3.50604 0
M  V30 36 H 8.67665 -0.267709 -0.305953 0
M  V30 37 H 8.72051 0.686142 1.1927 0
M  V30 38 H 3.94261 0.880779 -2.68035 0
M  V30 39 H 3.70504 -0.867629 -2.52761 0
M  V30 40 H -1.42202 1.84948 -1.52667 0
M  V30 41 H -3.85652 2.29364 -1.64253 0
M  V30 42 H -4.61581 -0.816163 1.10495 0
M  V30 43 H -2.2027 -1.27681 1.24026 0
M  V30 44 H -8.55354 0.491854 1.3061 0
M  V30 45 H -8.68825 -0.105111 -0.359553 0
M  V30 46 H -8.28225 1.60289 -0.113419 0
M  V30 END ATOM
M  V30 BEGIN BOND
M  V30 1 1 1 2
M  V30 2 1 2 3
M  V30 3 1 3 4
M  V30 4 1 4 5
M  V30 5 2 5 6
M  V30 6 1 6 7
M  V30 7 2 7 8
M  V30 8 1 8 9
M  V30 9 2 9 10
M  V30 10 1 8 11
M  V30 11 2 11 12
M  V30 12 1 12 13
M  V30 13 1 12 14
M  V30 14 2 14 15
M  V30 15 1 15 16
M  V30 16 1 3 17
M  V30 17 2 17 18
M  V30 18 1 18 19
M  V30 19 2 19 20
M  V30 20 1 20 21
M  V30 21 2 21 22
M  V30 22 1 20 23
M  V30 23 2 23 24
M  V30 24 1 23 25
M  V30 25 1 25 26
M  V30 26 1 10 5
M  V30 27 1 22 17
M  V30 28 1 15 7
M  V30 29 1 1 27
M  V30 30 1 1 28
M  V30 31 1 1 29
M  V30 32 1 2 30
M  V30 33 1 2 31
M  V30 34 1 3 32
M  V30 35 1 4 33
M  V30 36 1 4 34
M  V30 37 1 10 35
M  V30 38 1 13 36
M  V30 39 1 13 37
M  V30 40 1 16 38
M  V30 41 1 16 39
M  V30 42 1 18 40
M  V30 43 1 19 41
M  V30 44 1 21 42
M  V30 45 1 22 43
M  V30 46 1 26 44
M  V30 47 1 26 45
M  V30 48 1 26 46
M  V30 END BOND
M  V30 END CTAB
M  END
