
     RDKit          3D

  0  0  0  0  0  0  0  0  0  0999 V3000
M  V30 BEGIN CTAB
M  V30 COUNTS 27 28 0 0 0
M  V30 BEGIN ATOM
M  V30 1 N -4.18457 -0.342782 1.25212 0
M  V30 2 C -2.9168 0.101144 0.812057 0
M  V30 3 C -2.50078 -0.193964 -0.472751 0
M  V30 4 N -3.38277 -0.937994 -1.29248 0
M  V30 5 C -1.25153 0.229282 -0.943144 0
M  V30 6 C -0.392194 0.953989 -0.145 0
M  V30 7 O 0.849596 1.38015 -0.598536 0
M  V30 8 C 1.99668 0.612177 -0.456475 0
M  V30 9 C 3.17851 1.13643 -0.945331 0
M  V30 10 C 4.3304 0.394958 -0.817028 0
M  V30 11 C 4.29883 -0.841926 -0.213471 0
M  V30 12 F 5.43902 -1.54921 -0.0993699 0
M  V30 13 C 3.11664 -1.36782 0.276252 0
M  V30 14 C 1.94467 -0.631693 0.154534 0
M  V30 15 C -0.825547 1.23864 1.13451 0
M  V30 16 C -2.05456 0.826996 1.60954 0
M  V30 17 H -4.8567 0.346879 1.6294 0
M  V30 18 H -4.46482 -1.33856 1.20969 0
M  V30 19 H -4.08102 -0.42377 -1.86042 0
M  V30 20 H -3.35682 -1.96818 -1.34562 0
M  V30 21 H -0.975681 -0.029205 -1.95758 0
M  V30 22 H 3.21147 2.11634 -1.42507 0
M  V30 23 H 5.26902 0.779887 -1.19008 0
M  V30 24 H 3.12125 -2.35253 0.750817 0
M  V30 25 H 1.00784 -1.02088 0.529317 0
M  V30 26 H -0.139154 1.8177 1.77255 0
M  V30 27 H -2.38099 1.06392 2.63158 0
M  V30 END ATOM
M  V30 BEGIN BOND
M  V30 1 1 1 2
M  V30 2 2 2 3
M  V30 3 1 3 4
M  V30 4 1 3 5
M  V30 5 2 5 6
M  V30 6 1 6 7
M  V30 7 1 7 8
M  V30 8 2 8 9
M  V30 9 1 9 10
M  V30 10 2 10 11
M  V30 11 1 11 12
M  V30 12 1 11 13
M  V30 13 2 13 14
M  V30 14 1 6 15
M  V30 15 2 15 16
M  V30 16 1 16 2
M  V30 17 1 14 8
M  V30 18 1 1 17
M  V30 19 1 1 18
M  V30 20 1 4 19
M  V30 21 1 4 20
M  V30 22 1 5 21
M  V30 23 1 9 22
M  V30 24 1 10 23
M  V30 25 1 13 24
M  V30 26 1 14 25
M  V30 27 1 15 26
M  V30 28 1 16 27
M  V30 END BOND
M  V30 END CTAB
M  END
