
     RDKit          3D

  0  0  0  0  0  0  0  0  0  0999 V3000
M  V30 BEGIN CTAB
M  V30 COUNTS 31 32 0 0 0
M  V30 BEGIN ATOM
M  V30 1 N 4.46427 1.53843 0.183154 0
M  V30 2 C 3.60486 0.477324 -0.160974 0
M  V30 3 N 4.0323 -0.619392 -0.81187 0
M  V30 4 C 3.21525 -1.63166 -1.1408 0
M  V30 5 C 1.87929 -1.57549 -0.812615 0
M  V30 6 C 1.40305 -0.470033 -0.146353 0
M  V30 7 C 2.26956 0.544714 0.172732 0
M  V30 8 C -0.0422598 -0.349949 0.238631 0 CFG=2
M  V30 9 O -0.416983 -1.58594 0.78213 0
M  V30 10 C -1.70156 -1.55547 1.27525 0
M  V30 11 C -2.72512 -1.05383 0.311498 0
M  V30 12 N -2.27371 -0.0738311 -0.605381 0
M  V30 13 C -0.912283 -0.131945 -0.978443 0
M  V30 14 S -2.96451 1.45659 -0.470913 0
M  V30 15 O -2.42491 2.33311 -1.57478 0
M  V30 16 O -4.449 1.34697 -0.703946 0
M  V30 17 N -2.70372 2.24823 1.01123 0
M  V30 18 H 4.85769 2.14145 -0.55485 0
M  V30 19 H 4.69916 1.71137 1.17117 0
M  V30 20 H 3.57499 -2.51695 -1.66951 0
M  V30 21 H 1.18703 -2.37591 -1.06234 0
M  V30 22 H 1.88828 1.39912 0.690648 0
M  V30 23 H -0.137204 0.414456 1.00122 0
M  V30 24 H -1.70667 -1.01041 2.25506 0
M  V30 25 H -1.96834 -2.61614 1.54023 0
M  V30 26 H -3.09879 -1.93509 -0.288426 0
M  V30 27 H -3.60216 -0.707108 0.895921 0
M  V30 28 H -0.633277 0.743422 -1.56302 0
M  V30 29 H -0.765326 -1.03168 -1.63074 0
M  V30 30 H -2.3187 3.21077 0.911829 0
M  V30 31 H -2.23121 1.67488 1.73427 0
M  V30 END ATOM
M  V30 BEGIN BOND
M  V30 1 1 1 2
M  V30 2 2 2 3
M  V30 3 1 3 4
M  V30 4 2 4 5
M  V30 5 1 5 6
M  V30 6 2 6 7
M  V30 7 1 6 8
M  V30 8 1 8 9
M  V30 9 1 9 10
M  V30 10 1 10 11
M  V30 11 1 11 12
M  V30 12 1 12 13
M  V30 13 1 12 14
M  V30 14 2 14 15
M  V30 15 2 14 16
M  V30 16 1 14 17
M  V30 17 1 7 2
M  V30 18 1 13 8
M  V30 19 1 1 18
M  V30 20 1 1 19
M  V30 21 1 4 20
M  V30 22 1 5 21
M  V30 23 1 7 22
M  V30 24 1 8 23 CFG=1
M  V30 25 1 10 24
M  V30 26 1 10 25
M  V30 27 1 11 26
M  V30 28 1 11 27
M  V30 29 1 13 28
M  V30 30 1 13 29
M  V30 31 1 17 30
M  V30 32 1 17 31
M  V30 END BOND
M  V30 END CTAB
M  END
