
     RDKit          3D

  0  0  0  0  0  0  0  0  0  0999 V3000
M  V30 BEGIN CTAB
M  V30 COUNTS 38 39 0 0 0
M  V30 BEGIN ATOM
M  V30 1 N 0.994325 -2.54779 -1.15134 0
M  V30 2 C 1.19305 -1.27283 -1.80481 0
M  V30 3 C 0.956467 -0.0827572 -0.901203 0
M  V30 4 C -0.423683 -0.0603995 -0.363481 0
M  V30 5 C -1.44729 0.663378 -0.998002 0
M  V30 6 N -1.09412 1.37272 -2.18271 0
M  V30 7 N -2.68969 0.695904 -0.529995 0
M  V30 8 C -3.72281 1.45155 -1.20745 0
M  V30 9 C -3.02415 0.0279557 0.586524 0
M  V30 10 O -4.2336 0.0825164 1.00852 0
M  V30 11 N -2.09715 -0.670474 1.2243 0
M  V30 12 C -0.843545 -0.718174 0.773865 0
M  V30 13 O -0.00909311 -1.39832 1.42399 0
M  V30 14 C -2.45783 -1.39415 2.43285 0
M  V30 15 C 2.0124 0.225962 0.049939 0
M  V30 16 C 2.85582 -0.643569 0.653864 0
M  V30 17 C 3.81097 -0.225114 1.54089 0
M  V30 18 C 3.96789 1.10094 1.86867 0
M  V30 19 C 3.13439 2.01631 1.28 0
M  V30 20 C 2.18123 1.5812 0.392157 0
M  V30 21 H 0.205785 -3.09735 -1.54235 0
M  V30 22 H 1.85446 -3.15 -1.21004 0
M  V30 23 H 2.22362 -1.27078 -2.2285 0
M  V30 24 H 0.52016 -1.26202 -2.6871 0
M  V30 25 H 0.971741 0.787358 -1.64564 0
M  V30 26 H -0.437839 2.18135 -2.19061 0
M  V30 27 H -1.50944 1.07208 -3.08656 0
M  V30 28 H -4.07997 0.978478 -2.12491 0
M  V30 29 H -4.60105 1.63395 -0.549748 0
M  V30 30 H -3.35805 2.47702 -1.49615 0
M  V30 31 H -1.62104 -2.07104 2.72182 0
M  V30 32 H -3.33494 -2.02917 2.16639 0
M  V30 33 H -2.65026 -0.730813 3.28243 0
M  V30 34 H 2.78821 -1.67641 0.446196 0
M  V30 35 H 4.48059 -0.929286 2.01821 0
M  V30 36 H 4.70875 1.46081 2.56136 0
M  V30 37 H 3.23024 3.076 1.51653 0
M  V30 38 H 1.54544 2.34496 -0.0478904 0
M  V30 END ATOM
M  V30 BEGIN BOND
M  V30 1 1 1 2
M  V30 2 1 2 3
M  V30 3 1 3 4
M  V30 4 2 4 5
M  V30 5 1 5 6
M  V30 6 1 5 7
M  V30 7 1 7 8
M  V30 8 1 7 9
M  V30 9 2 9 10
M  V30 10 1 9 11
M  V30 11 1 11 12
M  V30 12 2 12 13
M  V30 13 1 11 14
M  V30 14 1 3 15
M  V30 15 2 15 16
M  V30 16 1 16 17
M  V30 17 2 17 18
M  V30 18 1 18 19
M  V30 19 2 19 20
M  V30 20 1 12 4
M  V30 21 1 20 15
M  V30 22 1 1 21
M  V30 23 1 1 22
M  V30 24 1 2 23
M  V30 25 1 2 24
M  V30 26 1 3 25
M  V30 27 1 6 26
M  V30 28 1 6 27
M  V30 29 1 8 28
M  V30 30 1 8 29
M  V30 31 1 8 30
M  V30 32 1 14 31
M  V30 33 1 14 32
M  V30 34 1 14 33
M  V30 35 1 16 34
M  V30 36 1 17 35
M  V30 37 1 18 36
M  V30 38 1 19 37
M  V30 39 1 20 38
M  V30 END BOND
M  V30 END CTAB
M  END
