
     RDKit          3D

  0  0  0  0  0  0  0  0  0  0999 V3000
M  V30 BEGIN CTAB
M  V30 COUNTS 30 31 0 0 0
M  V30 BEGIN ATOM
M  V30 1 N 5.3958 1.25788 -0.383075 0
M  V30 2 C 4.0264 0.879286 -0.320017 0
M  V30 3 C 3.0189 1.7543 -0.000988476 0
M  V30 4 C 1.68437 1.31883 0.0447479 0
M  V30 5 C 1.33191 0.0306628 -0.220438 0
M  V30 6 C 2.36698 -0.855098 -0.545079 0
M  V30 7 C 3.67693 -0.424066 -0.589128 0
M  V30 8 N 2.00309 -2.19724 -0.821742 0
M  V30 9 C -0.048685 -0.480753 -0.187519 0
M  V30 10 O -0.260365 -1.69971 -0.452009 0
M  V30 11 N -1.12133 0.35504 0.129467 0
M  V30 12 C -2.50061 0.046429 0.202696 0
M  V30 13 C -3.35915 0.915418 0.89934 0
M  V30 14 C -4.69103 0.708761 1.00476 0
M  V30 15 C -5.23187 -0.402634 0.403046 0
M  V30 16 C -4.44244 -1.27998 -0.286952 0
M  V30 17 C -3.06848 -1.03684 -0.377275 0
M  V30 18 H 6.06549 0.698353 0.164632 0
M  V30 19 H 5.64514 2.07739 -0.977683 0
M  V30 20 H 3.23625 2.78772 0.219032 0
M  V30 21 H 0.903641 2.03507 0.300991 0
M  V30 22 H 4.46522 -1.13922 -0.845961 0
M  V30 23 H 1.70107 -2.46459 -1.77887 0
M  V30 24 H 2.04674 -2.89319 -0.0521822 0
M  V30 25 H -0.898349 1.38232 0.347209 0
M  V30 26 H -2.92007 1.79503 1.37519 0
M  V30 27 H -5.36121 1.37609 1.54164 0
M  V30 28 H -6.30221 -0.638865 0.444023 0
M  V30 29 H -4.88318 -2.1666 -0.765313 0
M  V30 30 H -2.47894 -1.73979 -0.93768 0
M  V30 END ATOM
M  V30 BEGIN BOND
M  V30 1 1 1 2
M  V30 2 2 2 3
M  V30 3 1 3 4
M  V30 4 2 4 5
M  V30 5 1 5 6
M  V30 6 2 6 7
M  V30 7 1 6 8
M  V30 8 1 5 9
M  V30 9 2 9 10
M  V30 10 1 9 11
M  V30 11 1 11 12
M  V30 12 2 12 13
M  V30 13 1 13 14
M  V30 14 2 14 15
M  V30 15 1 15 16
M  V30 16 2 16 17
M  V30 17 1 7 2
M  V30 18 1 17 12
M  V30 19 1 1 18
M  V30 20 1 1 19
M  V30 21 1 3 20
M  V30 22 1 4 21
M  V30 23 1 7 22
M  V30 24 1 8 23
M  V30 25 1 8 24
M  V30 26 1 11 25
M  V30 27 1 13 26
M  V30 28 1 14 27
M  V30 29 1 15 28
M  V30 30 1 16 29
M  V30 31 1 17 30
M  V30 END BOND
M  V30 END CTAB
M  END
