
     RDKit          3D

  0  0  0  0  0  0  0  0  0  0999 V3000
M  V30 BEGIN CTAB
M  V30 COUNTS 27 27 0 0 0
M  V30 BEGIN ATOM
M  V30 1 N -1.23736 1.89627 0.890231 0
M  V30 2 C -0.927021 0.797758 -0.00591626 0
M  V30 3 C 0.529125 0.572135 0.0263389 0
M  V30 4 C 1.39298 1.64546 -0.0387246 0
M  V30 5 C 2.76604 1.51262 -0.0138821 0
M  V30 6 C 3.29864 0.264385 0.0792236 0
M  V30 7 C 2.43174 -0.808907 0.144251 0
M  V30 8 N 1.08191 -0.650535 0.117892 0
M  V30 9 N 3.02683 -2.10123 0.241137 0
M  V30 10 C -1.73341 -0.383107 0.413634 0
M  V30 11 C -1.52893 -1.60783 -0.41376 0
M  V30 12 C -3.20694 0.0202819 0.259548 0
M  V30 13 H -1.06679 1.64131 1.88659 0
M  V30 14 H -2.15545 2.32438 0.715217 0
M  V30 15 H -1.28407 1.1024 -1.02308 0
M  V30 16 H 1.00618 2.66529 -0.114247 0
M  V30 17 H 3.40949 2.37735 -0.0668954 0
M  V30 18 H 4.38538 0.112459 0.102159 0
M  V30 19 H 3.52257 -2.50887 -0.580961 0
M  V30 20 H 2.97423 -2.64144 1.11581 0
M  V30 21 H -1.59427 -0.608323 1.50555 0
M  V30 22 H -2.5051 -2.06142 -0.75671 0
M  V30 23 H -1.04546 -2.42761 0.190075 0
M  V30 24 H -0.91971 -1.46229 -1.31583 0
M  V30 25 H -3.2707 0.434811 -0.788486 0
M  V30 26 H -3.85061 -0.882015 0.259988 0
M  V30 27 H -3.49931 0.776658 0.995546 0
M  V30 END ATOM
M  V30 BEGIN BOND
M  V30 1 1 1 2
M  V30 2 1 2 3
M  V30 3 2 3 4
M  V30 4 1 4 5
M  V30 5 2 5 6
M  V30 6 1 6 7
M  V30 7 2 7 8
M  V30 8 1 7 9
M  V30 9 1 2 10
M  V30 10 1 10 11
M  V30 11 1 10 12
M  V30 12 1 8 3
M  V30 13 1 1 13
M  V30 14 1 1 14
M  V30 15 1 2 15
M  V30 16 1 4 16
M  V30 17 1 5 17
M  V30 18 1 6 18
M  V30 19 1 9 19
M  V30 20 1 9 20
M  V30 21 1 10 21
M  V30 22 1 11 22
M  V30 23 1 11 23
M  V30 24 1 11 24
M  V30 25 1 12 25
M  V30 26 1 12 26
M  V30 27 1 12 27
M  V30 END BOND
M  V30 END CTAB
M  END
