
     RDKit          3D

  0  0  0  0  0  0  0  0  0  0999 V3000
M  V30 BEGIN CTAB
M  V30 COUNTS 23 23 0 0 0
M  V30 BEGIN ATOM
M  V30 1 C 4.43531 0.26718 0.218682 0
M  V30 2 S 3.37682 0.962286 -1.04624 0
M  V30 3 C 1.63885 0.92421 -0.648042 0
M  V30 4 C 1.06443 -0.462761 -0.565765 0
M  V30 5 C -0.392405 -0.349521 -0.226418 0
M  V30 6 N -1.1115 -1.47143 -0.101311 0
M  V30 7 C -2.41694 -1.41521 0.201092 0
M  V30 8 N -3.21617 -2.57435 0.343208 0
M  V30 9 N -3.01417 -0.218049 0.381577 0
M  V30 10 C -2.29256 0.911234 0.256154 0
M  V30 11 N -0.992617 0.829173 -0.0459166 0
M  V30 12 N -2.95207 2.16759 0.453062 0
M  V30 13 H 4.90763 1.11278 0.79888 0
M  V30 14 H 5.2506 -0.331525 -0.249102 0
M  V30 15 H 3.91547 -0.404306 0.926857 0
M  V30 16 H 1.45771 1.49298 0.287014 0
M  V30 17 H 1.09024 1.45589 -1.46026 0
M  V30 18 H 1.51941 -1.10161 0.188793 0
M  V30 19 H 1.09799 -0.961684 -1.55584 0
M  V30 20 H -3.43874 -2.91653 1.29416 0
M  V30 21 H -3.58154 -3.08539 -0.478431 0
M  V30 22 H -3.51121 2.54883 -0.340746 0
M  V30 23 H -2.83454 2.62023 1.36859 0
M  V30 END ATOM
M  V30 BEGIN BOND
M  V30 1 1 1 2
M  V30 2 1 2 3
M  V30 3 1 3 4
M  V30 4 1 4 5
M  V30 5 2 5 6
M  V30 6 1 6 7
M  V30 7 1 7 8
M  V30 8 2 7 9
M  V30 9 1 9 10
M  V30 10 2 10 11
M  V30 11 1 10 12
M  V30 12 1 11 5
M  V30 13 1 1 13
M  V30 14 1 1 14
M  V30 15 1 1 15
M  V30 16 1 3 16
M  V30 17 1 3 17
M  V30 18 1 4 18
M  V30 19 1 4 19
M  V30 20 1 8 20
M  V30 21 1 8 21
M  V30 22 1 12 22
M  V30 23 1 12 23
M  V30 END BOND
M  V30 END CTAB
M  END
