
     RDKit          3D

  0  0  0  0  0  0  0  0  0  0999 V3000
M  V30 BEGIN CTAB
M  V30 COUNTS 41 41 0 0 0
M  V30 BEGIN ATOM
M  V30 1 N -5.88143 0.514575 0.316793 0
M  V30 2 C -5.57949 -0.418472 -0.71789 0
M  V30 3 C -4.3033 -0.24109 -1.44067 0
M  V30 4 N -3.16824 -0.346138 -0.365585 0
M  V30 5 C -2.7824 -1.64792 -0.224331 0
M  V30 6 O -3.14756 -2.51433 -1.13081 0
M  V30 7 C -1.99157 -2.32271 0.85141 0
M  V30 8 C -2.79124 0.948444 -0.0469244 0
M  V30 9 C -1.62616 1.45663 0.0993028 0
M  V30 10 C -0.372947 0.811054 -0.0614273 0
M  V30 11 O -0.135322 -0.31746 -0.434829 0
M  V30 12 N 0.796887 1.59863 0.261408 0
M  V30 13 C 2.09292 1.05604 0.147749 0
M  V30 14 C 3.11332 1.9223 -0.262991 0
M  V30 15 C 4.41991 1.52458 -0.395588 0
M  V30 16 C 4.79122 0.228909 -0.124228 0
M  V30 17 C 3.79715 -0.633366 0.281411 0
M  V30 18 C 2.45873 -0.238712 0.420792 0
M  V30 19 S 6.45752 -0.293854 -0.289777 0
M  V30 20 O 7.12054 0.487851 -1.36323 0
M  V30 21 O 6.44487 -1.77673 -0.567897 0
M  V30 22 N 7.21221 -0.0231517 1.25767 0
M  V30 23 C -1.59753 2.89987 0.482937 0
M  V30 24 N -1.54462 4.039 0.786255 0
M  V30 25 H -6.16781 1.44895 0.000676159 0
M  V30 26 H -6.48202 0.0998547 1.06249 0
M  V30 27 H -5.7314 -1.45716 -0.348728 0
M  V30 28 H -6.39394 -0.290233 -1.49365 0
M  V30 29 H -4.0874 -1.04823 -2.12326 0
M  V30 30 H -4.20687 0.713271 -1.94841 0
M  V30 31 H -1.16422 -2.85899 0.356068 0
M  V30 32 H -2.60691 -3.14491 1.31579 0
M  V30 33 H -1.5969 -1.65843 1.60935 0
M  V30 34 H -3.66962 1.69802 0.126137 0
M  V30 35 H 0.70305 2.58288 0.584877 0
M  V30 36 H 2.85567 2.93821 -0.48159 0
M  V30 37 H 5.19563 2.22669 -0.721013 0
M  V30 38 H 4.07359 -1.64838 0.496739 0
M  V30 39 H 1.73955 -0.970947 0.760272 0
M  V30 40 H 6.49861 -0.33294 1.96685 0
M  V30 41 H 7.25752 1.02773 1.35786 0
M  V30 END ATOM
M  V30 BEGIN BOND
M  V30 1 1 1 2
M  V30 2 1 2 3
M  V30 3 1 3 4
M  V30 4 1 4 5
M  V30 5 2 5 6
M  V30 6 1 5 7
M  V30 7 1 4 8
M  V30 8 2 8 9
M  V30 9 1 9 10
M  V30 10 2 10 11
M  V30 11 1 10 12
M  V30 12 1 12 13
M  V30 13 2 13 14
M  V30 14 1 14 15
M  V30 15 2 15 16
M  V30 16 1 16 17
M  V30 17 2 17 18
M  V30 18 1 16 19
M  V30 19 2 19 20
M  V30 20 2 19 21
M  V30 21 1 19 22
M  V30 22 1 9 23
M  V30 23 3 23 24
M  V30 24 1 18 13
M  V30 25 1 1 25
M  V30 26 1 1 26
M  V30 27 1 2 27
M  V30 28 1 2 28
M  V30 29 1 3 29
M  V30 30 1 3 30
M  V30 31 1 7 31
M  V30 32 1 7 32
M  V30 33 1 7 33
M  V30 34 1 8 34
M  V30 35 1 12 35
M  V30 36 1 14 36
M  V30 37 1 15 37
M  V30 38 1 17 38
M  V30 39 1 18 39
M  V30 40 1 22 40
M  V30 41 1 22 41
M  V30 END BOND
M  V30 END CTAB
M  END
