
     RDKit          3D

  0  0  0  0  0  0  0  0  0  0999 V3000
M  V30 BEGIN CTAB
M  V30 COUNTS 52 55 0 0 0
M  V30 BEGIN ATOM
M  V30 1 N 6.94238 -0.39592 0.69109 0
M  V30 2 C 5.82922 -0.136249 -0.180852 0
M  V30 3 C 5.11983 -1.42685 -0.578538 0
M  V30 4 C 3.74963 -1.02292 -1.07923 0
M  V30 5 C 2.85578 -0.839883 0.157468 0
M  V30 6 C 3.76622 -0.144133 1.18207 0
M  V30 7 C 4.78476 0.727874 0.500137 0
M  V30 8 O 1.80371 0.0214043 -0.0854259 0
M  V30 9 C 0.449228 -0.226431 0.049445 0
M  V30 10 C -0.014886 -1.43782 0.467302 0
M  V30 11 C -1.3763 -1.66438 0.595306 0
M  V30 12 C -2.30516 -0.686868 0.309209 0
M  V30 13 C -3.72718 -0.988863 0.4628 0
M  V30 14 C -4.13425 -2.22359 0.910143 0
M  V30 15 C -5.48647 -2.54156 1.06862 0
M  V30 16 C -6.41552 -1.5746 0.761621 0
M  V30 17 C -6.0216 -0.333034 0.312373 0
M  V30 18 N -7.02456 0.621111 0.0124421 0
M  V30 19 N -4.7151 -0.126447 0.19454 0
M  V30 20 C -1.85801 0.564242 -0.120792 0
M  V30 21 C -0.48579 0.761106 -0.239699 0
M  V30 22 C 0.117462 2.05066 -0.693186 0
M  V30 23 C -0.892318 2.61993 -1.70096 0
M  V30 24 C -2.09781 2.91569 -0.861694 0
M  V30 25 C -2.83005 1.63421 -0.431187 0
M  V30 26 H 7.82915 -0.0466468 0.239862 0
M  V30 27 H 6.80952 0.185495 1.55659 0
M  V30 28 H 6.18135 0.338354 -1.12 0
M  V30 29 H 5.03064 -2.12151 0.274205 0
M  V30 30 H 5.67564 -1.95308 -1.38163 0
M  V30 31 H 3.79262 -0.11902 -1.69197 0
M  V30 32 H 3.35291 -1.91504 -1.63583 0
M  V30 33 H 2.60172 -1.84007 0.497289 0
M  V30 34 H 4.25879 -0.940874 1.74786 0
M  V30 35 H 3.12177 0.496141 1.83168 0
M  V30 36 H 5.28466 1.33182 1.25816 0
M  V30 37 H 4.33979 1.37646 -0.26953 0
M  V30 38 H 0.65385 -2.25912 0.712138 0
M  V30 39 H -1.65281 -2.67723 0.939381 0
M  V30 40 H -3.47388 -3.03568 1.17303 0
M  V30 41 H -5.80304 -3.52706 1.42534 0
M  V30 42 H -7.47193 -1.84197 0.892078 0
M  V30 43 H -7.05114 0.995254 -0.975795 0
M  V30 44 H -7.72635 0.970793 0.696021 0
M  V30 45 H 1.04543 1.89118 -1.26543 0
M  V30 46 H 0.20985 2.75552 0.134198 0
M  V30 47 H -1.13211 1.87232 -2.48477 0
M  V30 48 H -0.499858 3.55981 -2.08241 0
M  V30 49 H -1.73853 3.38095 0.0785247 0
M  V30 50 H -2.79993 3.61157 -1.32499 0
M  V30 51 H -3.43948 1.3826 -1.347 0
M  V30 52 H -3.43185 1.98236 0.419998 0
M  V30 END ATOM
M  V30 BEGIN BOND
M  V30 1 1 1 2
M  V30 2 1 2 3
M  V30 3 1 3 4
M  V30 4 1 4 5
M  V30 5 1 5 6
M  V30 6 1 6 7
M  V30 7 1 5 8
M  V30 8 1 8 9
M  V30 9 2 9 10
M  V30 10 1 10 11
M  V30 11 2 11 12
M  V30 12 1 12 13
M  V30 13 2 13 14
M  V30 14 1 14 15
M  V30 15 2 15 16
M  V30 16 1 16 17
M  V30 17 1 17 18
M  V30 18 2 17 19
M  V30 19 1 12 20
M  V30 20 2 20 21
M  V30 21 1 21 22
M  V30 22 1 22 23
M  V30 23 1 23 24
M  V30 24 1 24 25
M  V30 25 1 7 2
M  V30 26 1 21 9
M  V30 27 1 19 13
M  V30 28 1 25 20
M  V30 29 1 1 26
M  V30 30 1 1 27
M  V30 31 1 2 28
M  V30 32 1 3 29
M  V30 33 1 3 30
M  V30 34 1 4 31
M  V30 35 1 4 32
M  V30 36 1 5 33
M  V30 37 1 6 34
M  V30 38 1 6 35
M  V30 39 1 7 36
M  V30 40 1 7 37
M  V30 41 1 10 38
M  V30 42 1 11 39
M  V30 43 1 14 40
M  V30 44 1 15 41
M  V30 45 1 16 42
M  V30 46 1 18 43
M  V30 47 1 18 44
M  V30 48 1 22 45
M  V30 49 1 22 46
M  V30 50 1 23 47
M  V30 51 1 23 48
M  V30 52 1 24 49
M  V30 53 1 24 50
M  V30 54 1 25 51
M  V30 55 1 25 52
M  V30 END BOND
M  V30 END CTAB
M  END
