
     RDKit          3D

  0  0  0  0  0  0  0  0  0  0999 V3000
M  V30 BEGIN CTAB
M  V30 COUNTS 30 30 0 0 0
M  V30 BEGIN ATOM
M  V30 1 O 4.07832 -0.632468 1.50945 0
M  V30 2 C 4.17889 -0.0631817 0.233465 0
M  V30 3 C 3.30892 -0.780479 -0.739617 0
M  V30 4 O 1.97687 -0.823507 -0.508542 0
M  V30 5 C 0.989554 0.12054 -0.435758 0
M  V30 6 C 1.20025 1.46451 -0.634507 0
M  V30 7 C 0.158137 2.39191 -0.545373 0
M  V30 8 C -1.09892 1.94019 -0.253133 0
M  V30 9 C -1.33341 0.568515 -0.0471925 0
M  V30 10 C -0.314505 -0.329372 -0.135501 0
M  V30 11 C -2.75146 0.189271 0.248476 0
M  V30 12 C -2.99473 -1.24625 0.478935 0
M  V30 13 N -2.32162 -1.85565 1.58094 0
M  V30 14 N -3.58195 0.711935 -0.797181 0
M  V30 15 H 4.81269 -1.24031 1.70668 0
M  V30 16 H 5.27287 -0.154898 -0.0336756 0
M  V30 17 H 3.92682 0.996726 0.302114 0
M  V30 18 H 3.55776 -0.370493 -1.77178 0
M  V30 19 H 3.69676 -1.85243 -0.809489 0
M  V30 20 H 2.19799 1.83597 -0.886779 0
M  V30 21 H 0.378234 3.43876 -0.710389 0
M  V30 22 H -1.93216 2.65042 -0.178167 0
M  V30 23 H -0.465965 -1.40591 0.00804975 0
M  V30 24 H -3.08647 0.737028 1.1794 0
M  V30 25 H -4.09672 -1.41536 0.644382 0
M  V30 26 H -2.76748 -1.86689 -0.42664 0
M  V30 27 H -2.1477 -2.86806 1.43903 0
M  V30 28 H -2.64072 -1.58242 2.51267 0
M  V30 29 H -3.95441 0.00374711 -1.44671 0
M  V30 30 H -4.24583 1.43815 -0.516142 0
M  V30 END ATOM
M  V30 BEGIN BOND
M  V30 1 1 1 2
M  V30 2 1 2 3
M  V30 3 1 3 4
M  V30 4 1 4 5
M  V30 5 2 5 6
M  V30 6 1 6 7
M  V30 7 2 7 8
M  V30 8 1 8 9
M  V30 9 2 9 10
M  V30 10 1 9 11
M  V30 11 1 11 12
M  V30 12 1 12 13
M  V30 13 1 11 14
M  V30 14 1 10 5
M  V30 15 1 1 15
M  V30 16 1 2 16
M  V30 17 1 2 17
M  V30 18 1 3 18
M  V30 19 1 3 19
M  V30 20 1 6 20
M  V30 21 1 7 21
M  V30 22 1 8 22
M  V30 23 1 10 23
M  V30 24 1 11 24
M  V30 25 1 12 25
M  V30 26 1 12 26
M  V30 27 1 13 27
M  V30 28 1 13 28
M  V30 29 1 14 29
M  V30 30 1 14 30
M  V30 END BOND
M  V30 END CTAB
M  END
