
     RDKit          3D

  0  0  0  0  0  0  0  0  0  0999 V3000
M  V30 BEGIN CTAB
M  V30 COUNTS 18 17 0 0 0
M  V30 BEGIN ATOM
M  V30 1 N -2.15481 -1.12279 0.138666 0
M  V30 2 C -1.13622 -0.156838 -0.0501898 0
M  V30 3 N -1.49067 1.06986 -0.250456 0
M  V30 4 O -2.79389 1.47268 -0.287725 0
M  V30 5 C 0.266387 -0.531106 -0.0201629 0
M  V30 6 N 0.653994 -1.74888 0.177776 0
M  V30 7 O -0.214688 -2.7937 0.37644 0
M  V30 8 C 1.30621 0.465158 -0.214646 0
M  V30 9 N 2.69411 0.115843 -0.188496 0
M  V30 10 N 0.985288 1.69345 -0.415984 0
M  V30 11 O 1.94811 2.63174 -0.598759 0
M  V30 12 H -2.32107 -1.51092 1.0812 0
M  V30 13 H -2.73032 -1.44153 -0.652794 0
M  V30 14 H -3.24701 2.01395 0.446855 0
M  V30 15 H 0.209597 -3.7217 0.396868 0
M  V30 16 H 3.03497 -0.691949 -0.766064 0
M  V30 17 H 3.36487 0.653772 0.395792 0
M  V30 18 H 1.62512 3.60296 -0.730486 0
M  V30 END ATOM
M  V30 BEGIN BOND
M  V30 1 1 1 2
M  V30 2 2 2 3 CFG=2
M  V30 3 1 3 4
M  V30 4 1 2 5
M  V30 5 2 5 6 CFG=2
M  V30 6 1 6 7
M  V30 7 1 5 8
M  V30 8 1 8 9
M  V30 9 2 8 10 CFG=2
M  V30 10 1 10 11
M  V30 11 1 1 12
M  V30 12 1 1 13
M  V30 13 1 4 14
M  V30 14 1 7 15
M  V30 15 1 9 16
M  V30 16 1 9 17
M  V30 17 1 11 18
M  V30 END BOND
M  V30 END CTAB
M  END
