
     RDKit          3D

  0  0  0  0  0  0  0  0  0  0999 V3000
M  V30 BEGIN CTAB
M  V30 COUNTS 31 32 0 0 0
M  V30 BEGIN ATOM
M  V30 1 C 3.61789 1.55346 0.0988938 0
M  V30 2 N 2.60286 0.516048 0.0425193 0
M  V30 3 N 1.3116 0.659191 -0.148506 0
M  V30 4 C 0.661918 -0.538467 -0.15047 0
M  V30 5 N 1.62733 -1.45081 0.0526218 0
M  V30 6 C 2.80851 -0.808096 0.168595 0
M  V30 7 N 4.08099 -1.44017 0.37413 0
M  V30 8 C -0.810268 -0.731927 -0.360947 0
M  V30 9 N -0.932339 -2.00036 -1.07005 0
M  V30 10 C -1.25995 0.355417 -1.35185 0
M  V30 11 C -1.70526 1.51677 -0.440416 0
M  V30 12 C -3.11945 1.15938 -0.0263879 0
M  V30 13 C -3.08231 -0.248118 0.50812 0
M  V30 14 C -1.63202 -0.64376 0.867631 0
M  V30 15 H 3.78879 1.98162 -0.929756 0
M  V30 16 H 4.57468 1.20035 0.500875 0
M  V30 17 H 3.17277 2.4094 0.679562 0
M  V30 18 H 4.56993 -1.3584 1.27843 0
M  V30 19 H 4.50629 -1.98624 -0.416388 0
M  V30 20 H -1.9299 -2.3017 -1.19473 0
M  V30 21 H -0.303684 -2.70738 -0.665582 0
M  V30 22 H -0.38987 0.663283 -1.95373 0
M  V30 23 H -2.10964 0.0403262 -1.97509 0
M  V30 24 H -1.03382 1.59149 0.446062 0
M  V30 25 H -1.64994 2.48314 -0.950411 0
M  V30 26 H -3.46797 1.90151 0.704317 0
M  V30 27 H -3.73836 1.22154 -0.940601 0
M  V30 28 H -3.69903 -0.379985 1.40276 0
M  V30 29 H -3.43672 -0.96801 -0.266372 0
M  V30 30 H -1.28483 0.00237606 1.66324 0
M  V30 31 H -1.73822 -1.6919 1.2874 0
M  V30 END ATOM
M  V30 BEGIN BOND
M  V30 1 1 1 2
M  V30 2 1 2 3
M  V30 3 2 3 4
M  V30 4 1 4 5
M  V30 5 2 5 6
M  V30 6 1 6 7
M  V30 7 1 4 8
M  V30 8 1 8 9
M  V30 9 1 8 10
M  V30 10 1 10 11
M  V30 11 1 11 12
M  V30 12 1 12 13
M  V30 13 1 13 14
M  V30 14 1 6 2
M  V30 15 1 14 8
M  V30 16 1 1 15
M  V30 17 1 1 16
M  V30 18 1 1 17
M  V30 19 1 7 18
M  V30 20 1 7 19
M  V30 21 1 9 20
M  V30 22 1 9 21
M  V30 23 1 10 22
M  V30 24 1 10 23
M  V30 25 1 11 24
M  V30 26 1 11 25
M  V30 27 1 12 26
M  V30 28 1 12 27
M  V30 29 1 13 28
M  V30 30 1 13 29
M  V30 31 1 14 30
M  V30 32 1 14 31
M  V30 END BOND
M  V30 END CTAB
M  END
