
     RDKit          3D

  0  0  0  0  0  0  0  0  0  0999 V3000
M  V30 BEGIN CTAB
M  V30 COUNTS 28 28 0 0 0
M  V30 BEGIN ATOM
M  V30 1 C -1.90616 1.79024 -1.06721 0
M  V30 2 C -1.7225 0.64843 -0.102888 0
M  V30 3 C -2.56858 0.650788 0.925915 0
M  V30 4 C -0.682374 -0.355911 -0.332486 0
M  V30 5 C 0.729176 0.037448 -0.218966 0
M  V30 6 C 1.25337 1.23986 -0.684186 0
M  V30 7 C 2.58084 1.60474 -0.552011 0
M  V30 8 Br 3.17032 3.27561 -1.23009 0
M  V30 9 C 3.46788 0.764412 0.0657513 0
M  V30 10 C 2.97023 -0.431073 0.532334 0
M  V30 11 C 1.64953 -0.810807 0.408457 0
M  V30 12 N 1.29366 -2.11059 0.912964 0
M  V30 13 N -0.898011 -1.53054 0.521459 0
M  V30 14 N -2.10237 -2.16749 0.162327 0
M  V30 15 H -3.02477 1.95256 -1.1868 0
M  V30 16 H -1.52266 1.57175 -2.06811 0
M  V30 17 H -1.52622 2.72111 -0.630518 0
M  V30 18 H -3.31976 1.41416 1.04761 0
M  V30 19 H -2.53228 -0.113439 1.67195 0
M  V30 20 H -0.875421 -0.783672 -1.38063 0
M  V30 21 H 0.611992 1.96053 -1.19964 0
M  V30 22 H 4.52403 1.02073 0.188177 0
M  V30 23 H 3.64015 -1.13716 1.03361 0
M  V30 24 H 1.18504 -2.93914 0.279111 0
M  V30 25 H 1.15936 -2.19514 1.93335 0
M  V30 26 H -0.943786 -1.22694 1.53257 0
M  V30 27 H -1.98064 -3.18652 -0.00330472 0
M  V30 28 H -2.63004 -1.66395 -0.55875 0
M  V30 END ATOM
M  V30 BEGIN BOND
M  V30 1 1 1 2
M  V30 2 2 2 3 CFG=2
M  V30 3 1 2 4
M  V30 4 1 4 5
M  V30 5 2 5 6
M  V30 6 1 6 7
M  V30 7 1 7 8
M  V30 8 2 7 9
M  V30 9 1 9 10
M  V30 10 2 10 11
M  V30 11 1 11 12
M  V30 12 1 4 13
M  V30 13 1 13 14
M  V30 14 1 11 5
M  V30 15 1 1 15
M  V30 16 1 1 16
M  V30 17 1 1 17
M  V30 18 1 3 18
M  V30 19 1 3 19
M  V30 20 1 4 20
M  V30 21 1 6 21
M  V30 22 1 9 22
M  V30 23 1 10 23
M  V30 24 1 12 24
M  V30 25 1 12 25
M  V30 26 1 13 26
M  V30 27 1 14 27
M  V30 28 1 14 28
M  V30 END BOND
M  V30 END CTAB
M  END
