
     RDKit          3D

  0  0  0  0  0  0  0  0  0  0999 V3000
M  V30 BEGIN CTAB
M  V30 COUNTS 51 52 0 0 0
M  V30 BEGIN ATOM
M  V30 1 N -8.83491 -0.689854 -1.06218 0
M  V30 2 C -8.00548 0.350633 -0.494517 0
M  V30 3 N -8.55985 1.43514 -0.240181 0
M  V30 4 O -8.16344 2.58067 0.261939 0
M  V30 5 C -6.60811 0.057372 -0.266686 0
M  V30 6 C -6.15402 -1.22598 -0.6157 0
M  V30 7 C -4.83073 -1.54404 -0.41431 0
M  V30 8 C -3.90937 -0.669092 0.116335 0
M  V30 9 O -2.61309 -1.12307 0.262893 0
M  V30 10 C -1.55115 -0.379441 0.780265 0
M  V30 11 C -0.314427 -1.25246 0.763426 0
M  V30 12 C 0.0186793 -1.69319 -0.645649 0
M  V30 13 C 1.23147 -2.55666 -0.712098 0
M  V30 14 C 2.47534 -1.88871 -0.197851 0
M  V30 15 O 2.79979 -0.718466 -0.92231 0
M  V30 16 C 3.93404 -0.0241521 -0.526761 0
M  V30 17 C 4.73174 -0.425904 0.518724 0
M  V30 18 C 5.86355 0.269447 0.911216 0
M  V30 19 C 6.25656 1.41776 0.265711 0
M  V30 20 C 5.44468 1.83069 -0.80183 0
M  V30 21 C 4.32769 1.12576 -1.17308 0
M  V30 22 C 7.42841 2.19742 0.620502 0
M  V30 23 N 7.6787 3.37821 -0.177913 0
M  V30 24 N 8.25547 1.97108 1.54028 0
M  V30 25 O 8.34443 0.998803 2.45627 0
M  V30 26 C -4.3362 0.573745 0.457409 0
M  V30 27 C -5.67692 0.920988 0.262267 0
M  V30 28 H -9.01749 -1.55532 -0.544773 0
M  V30 29 H -9.22942 -0.528482 -1.99454 0
M  V30 30 H -8.60337 3.14027 0.993586 0
M  V30 31 H -6.85239 -1.93902 -1.03566 0
M  V30 32 H -4.52992 -2.56855 -0.707603 0
M  V30 33 H -1.39579 0.597821 0.331826 0
M  V30 34 H -1.78513 -0.199079 1.86901 0
M  V30 35 H 0.535992 -0.64365 1.17034 0
M  V30 36 H -0.499509 -2.15493 1.37464 0
M  V30 37 H 0.166554 -0.821425 -1.31021 0
M  V30 38 H -0.835911 -2.27148 -1.04905 0
M  V30 39 H 1.0795 -3.47913 -0.117766 0
M  V30 40 H 1.36837 -2.87874 -1.75946 0
M  V30 41 H 2.42383 -1.72969 0.887103 0
M  V30 42 H 3.32078 -2.60977 -0.383082 0
M  V30 43 H 4.42136 -1.34264 1.037 0
M  V30 44 H 6.43394 -0.11647 1.74385 0
M  V30 45 H 5.73829 2.74812 -1.33542 0
M  V30 46 H 3.71264 1.46812 -2.00727 0
M  V30 47 H 7.7112 3.31485 -1.20141 0
M  V30 48 H 7.81797 4.26056 0.334368 0
M  V30 49 H 8.44983 1.19377 3.45003 0
M  V30 50 H -3.66623 1.28231 0.869018 0
M  V30 51 H -5.99794 1.91584 0.540201 0
M  V30 END ATOM
M  V30 BEGIN BOND
M  V30 1 1 1 2
M  V30 2 2 2 3 CFG=2
M  V30 3 1 3 4
M  V30 4 1 2 5
M  V30 5 2 5 6
M  V30 6 1 6 7
M  V30 7 2 7 8
M  V30 8 1 8 9
M  V30 9 1 9 10
M  V30 10 1 10 11
M  V30 11 1 11 12
M  V30 12 1 12 13
M  V30 13 1 13 14
M  V30 14 1 14 15
M  V30 15 1 15 16
M  V30 16 2 16 17
M  V30 17 1 17 18
M  V30 18 2 18 19
M  V30 19 1 19 20
M  V30 20 2 20 21
M  V30 21 1 19 22
M  V30 22 1 22 23
M  V30 23 2 22 24 CFG=2
M  V30 24 1 24 25
M  V30 25 1 8 26
M  V30 26 2 26 27
M  V30 27 1 27 5
M  V30 28 1 21 16
M  V30 29 1 1 28
M  V30 30 1 1 29
M  V30 31 1 4 30
M  V30 32 1 6 31
M  V30 33 1 7 32
M  V30 34 1 10 33
M  V30 35 1 10 34
M  V30 36 1 11 35
M  V30 37 1 11 36
M  V30 38 1 12 37
M  V30 39 1 12 38
M  V30 40 1 13 39
M  V30 41 1 13 40
M  V30 42 1 14 41
M  V30 43 1 14 42
M  V30 44 1 17 43
M  V30 45 1 18 44
M  V30 46 1 20 45
M  V30 47 1 21 46
M  V30 48 1 23 47
M  V30 49 1 23 48
M  V30 50 1 25 49
M  V30 51 1 26 50
M  V30 52 1 27 51
M  V30 END BOND
M  V30 END CTAB
M  END
