
     RDKit          3D

  0  0  0  0  0  0  0  0  0  0999 V3000
M  V30 BEGIN CTAB
M  V30 COUNTS 27 28 0 0 0
M  V30 BEGIN ATOM
M  V30 1 C -4.28343 -0.540412 0.408301 0
M  V30 2 C -3.10618 0.367285 0.166467 0 CFG=2
M  V30 3 C -2.53138 0.240787 -1.21805 0
M  V30 4 C -1.76626 -0.214771 -0.0220804 0 CFG=1
M  V30 5 N -0.569264 0.537302 0.274186 0
M  V30 6 C 0.695002 -0.118873 0.0571719 0
M  V30 7 N 0.750419 -1.38213 -0.403374 0
M  V30 8 C 1.91228 -2.02254 -0.616472 0
M  V30 9 C 3.09664 -1.36216 -0.353908 0
M  V30 10 C 3.0685 -0.0718342 0.117016 0
M  V30 11 C 1.85917 0.541254 0.319278 0
M  V30 12 N 1.78407 1.87776 0.806222 0
M  V30 13 N 4.26928 0.619479 0.391178 0
M  V30 14 H -3.90807 -1.52817 0.654669 0
M  V30 15 H -4.8624 -0.596444 -0.512421 0
M  V30 16 H -4.87911 -0.145032 1.20573 0
M  V30 17 H -3.18808 1.40885 0.53528 0
M  V30 18 H -2.87109 -0.573797 -1.88635 0
M  V30 19 H -2.21832 1.14571 -1.7763 0
M  V30 20 H -1.68039 -1.30375 0.191273 0
M  V30 21 H -0.565397 1.50674 0.628431 0
M  V30 22 H 1.97328 -3.04007 -0.987143 0
M  V30 23 H 4.05563 -1.87437 -0.523813 0
M  V30 24 H 1.43136 2.11883 1.76465 0
M  V30 25 H 2.08944 2.6373 0.189533 0
M  V30 26 H 5.03034 0.20511 0.972156 0
M  V30 27 H 4.41397 1.56795 0.0109732 0
M  V30 END ATOM
M  V30 BEGIN BOND
M  V30 1 1 1 2
M  V30 2 1 2 3
M  V30 3 1 3 4
M  V30 4 1 4 5
M  V30 5 1 5 6
M  V30 6 2 6 7
M  V30 7 1 7 8
M  V30 8 2 8 9
M  V30 9 1 9 10
M  V30 10 2 10 11
M  V30 11 1 11 12
M  V30 12 1 10 13
M  V30 13 1 4 2
M  V30 14 1 11 6
M  V30 15 1 1 14
M  V30 16 1 1 15
M  V30 17 1 1 16
M  V30 18 1 2 17 CFG=1
M  V30 19 1 3 18
M  V30 20 1 3 19
M  V30 21 1 4 20 CFG=3
M  V30 22 1 5 21
M  V30 23 1 8 22
M  V30 24 1 9 23
M  V30 25 1 12 24
M  V30 26 1 12 25
M  V30 27 1 13 26
M  V30 28 1 13 27
M  V30 END BOND
M  V30 END CTAB
M  END
