
     RDKit          3D

  0  0  0  0  0  0  0  0  0  0999 V3000
M  V30 BEGIN CTAB
M  V30 COUNTS 19 19 0 0 0
M  V30 BEGIN ATOM
M  V30 1 N -2.04792 1.10461 -0.176164 0
M  V30 2 C -1.88173 -0.067564 0.682492 0
M  V30 3 C -0.701952 -0.869213 0.123984 0
M  V30 4 C 0.570361 -0.113663 0.173868 0
M  V30 5 S 1.51854 0.195184 1.5784 0
M  V30 6 C 2.89874 0.887421 0.847779 0
M  V30 7 C 2.56346 0.855043 -0.518964 0
M  V30 8 C 1.3574 0.339181 -0.839876 0
M  V30 9 Br 0.787442 0.345268 -2.69803 0
M  V30 10 N -0.947548 -1.59036 -1.06276 0
M  V30 11 H -1.60376 1.95689 0.0708597 0
M  V30 12 H -2.94936 1.18174 -0.632421 0
M  V30 13 H -1.71703 0.21332 1.69166 0
M  V30 14 H -2.75629 -0.697162 0.577924 0
M  V30 15 H -0.618259 -1.69174 0.948976 0
M  V30 16 H 3.77561 1.23822 1.33368 0
M  V30 17 H 3.3147 1.25422 -1.26003 0
M  V30 18 H -0.0160252 -2.06358 -1.30756 0
M  V30 19 H -1.54638 -2.47783 -0.865037 0
M  V30 END ATOM
M  V30 BEGIN BOND
M  V30 1 1 1 2
M  V30 2 1 2 3
M  V30 3 1 3 4
M  V30 4 1 4 5
M  V30 5 1 5 6
M  V30 6 2 6 7
M  V30 7 1 7 8
M  V30 8 1 8 9
M  V30 9 1 3 10
M  V30 10 2 8 4
M  V30 11 1 1 11
M  V30 12 1 1 12
M  V30 13 1 2 13
M  V30 14 1 2 14
M  V30 15 1 3 15
M  V30 16 1 6 16
M  V30 17 1 7 17
M  V30 18 1 10 18
M  V30 19 1 10 19
M  V30 END BOND
M  V30 END CTAB
M  END
