
     RDKit          3D

  0  0  0  0  0  0  0  0  0  0999 V3000
M  V30 BEGIN CTAB
M  V30 COUNTS 26 27 0 0 0
M  V30 BEGIN ATOM
M  V30 1 N -1.40731 1.93947 -0.839692 0
M  V30 2 C -1.73489 0.689901 -0.287694 0
M  V30 3 C -3.06094 0.297044 -0.235163 0
M  V30 4 C -3.4116 -0.938977 0.286732 0
M  V30 5 C -2.4246 -1.76504 0.747761 0
M  V30 6 C -1.11741 -1.35963 0.68659 0
M  V30 7 C -0.724873 -0.126211 0.170777 0
M  V30 8 C 0.687086 0.219579 0.178683 0
M  V30 9 C 1.62823 -0.62871 -0.36913 0
M  V30 10 N 1.14593 -1.83914 -0.97921 0
M  V30 11 C 2.97995 -0.352906 -0.362291 0
M  V30 12 C 3.43643 0.810617 0.207128 0
M  V30 13 Br 5.29466 1.24277 0.237327 0
M  V30 14 C 2.52901 1.66722 0.755583 0
M  V30 15 C 1.1638 1.37553 0.743131 0
M  V30 16 H -1.26843 2.75472 -0.222882 0
M  V30 17 H -1.30182 2.08045 -1.86544 0
M  V30 18 H -3.85316 0.94663 -0.59958 0
M  V30 19 H -4.44753 -1.27603 0.344326 0
M  V30 20 H -2.69061 -2.73632 1.15875 0
M  V30 21 H -0.371184 -2.03171 1.06341 0
M  V30 22 H 1.66922 -2.70977 -0.859713 0
M  V30 23 H 0.260681 -1.83892 -1.55036 0
M  V30 24 H 3.63813 -1.07549 -0.808054 0
M  V30 25 H 2.90246 2.58755 1.20593 0
M  V30 26 H 0.478768 2.0674 1.19308 0
M  V30 END ATOM
M  V30 BEGIN BOND
M  V30 1 1 1 2
M  V30 2 2 2 3
M  V30 3 1 3 4
M  V30 4 2 4 5
M  V30 5 1 5 6
M  V30 6 2 6 7
M  V30 7 1 7 8
M  V30 8 2 8 9
M  V30 9 1 9 10
M  V30 10 1 9 11
M  V30 11 2 11 12
M  V30 12 1 12 13
M  V30 13 1 12 14
M  V30 14 2 14 15
M  V30 15 1 7 2
M  V30 16 1 15 8
M  V30 17 1 1 16
M  V30 18 1 1 17
M  V30 19 1 3 18
M  V30 20 1 4 19
M  V30 21 1 5 20
M  V30 22 1 6 21
M  V30 23 1 10 22
M  V30 24 1 10 23
M  V30 25 1 11 24
M  V30 26 1 14 25
M  V30 27 1 15 26
M  V30 END BOND
M  V30 END CTAB
M  END
