
     RDKit          3D

  0  0  0  0  0  0  0  0  0  0999 V3000
M  V30 BEGIN CTAB
M  V30 COUNTS 42 43 0 0 0
M  V30 BEGIN ATOM
M  V30 1 O 0.14404 1.31891 -0.462544 0
M  V30 2 C -0.381073 0.22637 -0.0742311 0
M  V30 3 C 0.549411 -0.861957 0.296163 0
M  V30 4 O 0.14885 -1.93919 0.731632 0
M  V30 5 O 1.89469 -0.701892 0.170125 0
M  V30 6 C 2.98274 -1.46747 0.425905 0
M  V30 7 C 3.15068 -2.80192 -0.225285 0
M  V30 8 F 2.18138 -3.7228 0.0474234 0
M  V30 9 F 4.37112 -3.396 0.124617 0
M  V30 10 F 3.24229 -2.59316 -1.60625 0
M  V30 11 C 4.17402 -0.576612 0.105703 0
M  V30 12 C 4.04502 0.724899 0.532092 0
M  V30 13 C 5.08734 1.62646 0.279367 0
M  V30 14 C 6.19252 1.16379 -0.386035 0
M  V30 15 C 6.29062 -0.159773 -0.803655 0
M  V30 16 N 5.25314 -0.975065 -0.528072 0
M  V30 17 N 3.17439 -1.66823 1.901 0
M  V30 18 O -1.71663 0.112482 -0.0238222 0
M  V30 19 C -2.6705 1.0325 -0.342742 0
M  V30 20 C -2.76869 1.52959 -1.76533 0
M  V30 21 F -3.05803 0.454552 -2.60512 0
M  V30 22 F -3.85177 2.41543 -1.88077 0
M  V30 23 F -1.6265 2.16589 -2.16141 0
M  V30 24 C -4.06867 0.544909 -0.0209688 0
M  V30 25 C -4.34871 -0.780429 0.215807 0
M  V30 26 C -5.67901 -1.13701 0.481603 0
M  V30 27 C -6.6802 -0.177038 0.506618 0
M  V30 28 C -6.32447 1.14115 0.259492 0
M  V30 29 N -5.02715 1.47479 0.00159056 0
M  V30 30 N -2.52268 2.24135 0.501716 0
M  V30 31 H 3.20454 1.13495 1.05252 0
M  V30 32 H 5.05113 2.66595 0.57852 0
M  V30 33 H 7.01517 1.80513 -0.611261 0
M  V30 34 H 7.15316 -0.559245 -1.3279 0
M  V30 35 H 3.26291 -0.665861 2.23098 0
M  V30 36 H 2.30145 -2.06243 2.31585 0
M  V30 37 H -3.59019 -1.51756 0.197782 0
M  V30 38 H -5.9471 -2.14223 0.66511 0
M  V30 39 H -7.71799 -0.415655 0.708543 0
M  V30 40 H -7.05566 1.94386 0.265282 0
M  V30 41 H -3.40983 2.75984 0.471001 0
M  V30 42 H -2.42576 1.83872 1.47746 0
M  V30 END ATOM
M  V30 BEGIN BOND
M  V30 1 2 1 2
M  V30 2 1 2 3
M  V30 3 2 3 4
M  V30 4 1 3 5
M  V30 5 1 5 6
M  V30 6 1 6 7
M  V30 7 1 7 8
M  V30 8 1 7 9
M  V30 9 1 7 10
M  V30 10 1 6 11
M  V30 11 2 11 12
M  V30 12 1 12 13
M  V30 13 2 13 14
M  V30 14 1 14 15
M  V30 15 2 15 16
M  V30 16 1 6 17
M  V30 17 1 2 18
M  V30 18 1 18 19
M  V30 19 1 19 20
M  V30 20 1 20 21
M  V30 21 1 20 22
M  V30 22 1 20 23
M  V30 23 1 19 24
M  V30 24 2 24 25
M  V30 25 1 25 26
M  V30 26 2 26 27
M  V30 27 1 27 28
M  V30 28 2 28 29
M  V30 29 1 19 30
M  V30 30 1 16 11
M  V30 31 1 29 24
M  V30 32 1 12 31
M  V30 33 1 13 32
M  V30 34 1 14 33
M  V30 35 1 15 34
M  V30 36 1 17 35
M  V30 37 1 17 36
M  V30 38 1 25 37
M  V30 39 1 26 38
M  V30 40 1 27 39
M  V30 41 1 28 40
M  V30 42 1 30 41
M  V30 43 1 30 42
M  V30 END BOND
M  V30 END CTAB
M  END
