
     RDKit          3D

  0  0  0  0  0  0  0  0  0  0999 V3000
M  V30 BEGIN CTAB
M  V30 COUNTS 40 41 0 0 0
M  V30 BEGIN ATOM
M  V30 1 C 6.99579 1.02184 1.95101 0
M  V30 2 C 6.4631 0.0763175 0.917329 0
M  V30 3 C 5.01487 0.395282 0.676543 0
M  V30 4 O 4.49002 1.30629 1.30573 0
M  V30 5 N 4.32994 -0.381231 -0.272796 0
M  V30 6 C 2.97665 -0.181905 -0.59906 0
M  V30 7 C 2.26598 0.964901 -0.392121 0
M  V30 8 C 0.908909 1.05931 -0.727385 0
M  V30 9 C 0.249595 -0.00749986 -1.27904 0
M  V30 10 C 0.980449 -1.1522 -1.48052 0
M  V30 11 C 2.29837 -1.2534 -1.15792 0
M  V30 12 C -1.15387 0.0774224 -1.63132 0
M  V30 13 O -1.77154 1.1698 -1.41559 0
M  V30 14 C -1.85527 -1.08237 -2.23046 0
M  V30 15 S -2.59299 -2.14507 -0.929781 0
M  V30 16 C -3.88935 -1.17062 -0.144691 0
M  V30 17 N -5.15421 -1.193 -0.613283 0
M  V30 18 C -6.14813 -0.476715 -0.050762 0
M  V30 19 N -7.48716 -0.483734 -0.526103 0
M  V30 20 C -5.82494 0.306331 1.05485 0
M  V30 21 C -4.53825 0.342452 1.54861 0
M  V30 22 N -3.61625 -0.405901 0.920303 0
M  V30 23 N -4.27074 1.16017 2.67928 0
M  V30 24 H 7.5296 1.89353 1.51872 0
M  V30 25 H 7.69307 0.532712 2.66364 0
M  V30 26 H 6.17083 1.43974 2.5932 0
M  V30 27 H 6.51478 -0.958833 1.32233 0
M  V30 28 H 7.03368 0.126354 -0.0387571 0
M  V30 29 H 4.84373 -1.16716 -0.79276 0
M  V30 30 H 2.70244 1.85981 0.0205914 0
M  V30 31 H 0.383433 1.98205 -0.54701 0
M  V30 32 H 0.46806 -2.02187 -1.92274 0
M  V30 33 H 2.83519 -2.19761 -1.34194 0
M  V30 34 H -2.68251 -0.637571 -2.8612 0
M  V30 35 H -1.2571 -1.66811 -2.93226 0
M  V30 36 H -7.99231 0.3803 -0.816744 0
M  V30 37 H -8.00628 -1.3826 -0.595422 0
M  V30 38 H -6.63595 0.881075 1.50132 0
M  V30 39 H -3.56717 1.93717 2.55211 0
M  V30 40 H -4.70444 1.05454 3.59985 0
M  V30 END ATOM
M  V30 BEGIN BOND
M  V30 1 1 1 2
M  V30 2 1 2 3
M  V30 3 2 3 4
M  V30 4 1 3 5
M  V30 5 1 5 6
M  V30 6 2 6 7
M  V30 7 1 7 8
M  V30 8 2 8 9
M  V30 9 1 9 10
M  V30 10 2 10 11
M  V30 11 1 9 12
M  V30 12 2 12 13
M  V30 13 1 12 14
M  V30 14 1 14 15
M  V30 15 1 15 16
M  V30 16 2 16 17
M  V30 17 1 17 18
M  V30 18 1 18 19
M  V30 19 2 18 20
M  V30 20 1 20 21
M  V30 21 2 21 22
M  V30 22 1 21 23
M  V30 23 1 11 6
M  V30 24 1 22 16
M  V30 25 1 1 24
M  V30 26 1 1 25
M  V30 27 1 1 26
M  V30 28 1 2 27
M  V30 29 1 2 28
M  V30 30 1 5 29
M  V30 31 1 7 30
M  V30 32 1 8 31
M  V30 33 1 10 32
M  V30 34 1 11 33
M  V30 35 1 14 34
M  V30 36 1 14 35
M  V30 37 1 19 36
M  V30 38 1 19 37
M  V30 39 1 20 38
M  V30 40 1 23 39
M  V30 41 1 23 40
M  V30 END BOND
M  V30 END CTAB
M  END
