
     RDKit          3D

  0  0  0  0  0  0  0  0  0  0999 V3000
M  V30 BEGIN CTAB
M  V30 COUNTS 25 26 0 0 0
M  V30 BEGIN ATOM
M  V30 1 C -2.27678 1.46273 0.615348 0
M  V30 2 N -1.62839 0.297039 0.0645437 0
M  V30 3 C -2.2068 -0.774866 -0.502871 0
M  V30 4 C -3.67091 -1.01296 -0.698165 0
M  V30 5 N -1.21558 -1.6012 -0.865764 0
M  V30 6 C -0.0273868 -1.0562 -0.530904 0
M  V30 7 C 1.29656 -1.44658 -0.657975 0
M  V30 8 C 2.33788 -0.660518 -0.209877 0
M  V30 9 N 3.70545 -1.03287 -0.325669 0
M  V30 10 C 2.08395 0.568257 0.393018 0
M  V30 11 N 3.12923 1.39881 0.863612 0
M  V30 12 C 0.751242 0.955202 0.517915 0
M  V30 13 C -0.277722 0.156584 0.0641663 0
M  V30 14 H -2.1505 2.29251 -0.13413 0
M  V30 15 H -1.82731 1.75178 1.58671 0
M  V30 16 H -3.35753 1.32956 0.778527 0
M  V30 17 H -3.93406 -1.03788 -1.77507 0
M  V30 18 H -3.97811 -1.98483 -0.216726 0
M  V30 19 H -4.24866 -0.198882 -0.236612 0
M  V30 20 H 1.5331 -2.38435 -1.11586 0
M  V30 21 H 4.22069 -1.24056 0.556329 0
M  V30 22 H 4.18697 -1.10105 -1.23075 0
M  V30 23 H 2.94358 2.12388 1.58091 0
M  V30 24 H 4.0896 1.29161 0.497206 0
M  V30 25 H 0.521482 1.90478 0.982102 0
M  V30 END ATOM
M  V30 BEGIN BOND
M  V30 1 1 1 2
M  V30 2 1 2 3
M  V30 3 1 3 4
M  V30 4 2 3 5
M  V30 5 1 5 6
M  V30 6 2 6 7
M  V30 7 1 7 8
M  V30 8 1 8 9
M  V30 9 2 8 10
M  V30 10 1 10 11
M  V30 11 1 10 12
M  V30 12 2 12 13
M  V30 13 1 13 2
M  V30 14 1 13 6
M  V30 15 1 1 14
M  V30 16 1 1 15
M  V30 17 1 1 16
M  V30 18 1 4 17
M  V30 19 1 4 18
M  V30 20 1 4 19
M  V30 21 1 7 20
M  V30 22 1 9 21
M  V30 23 1 9 22
M  V30 24 1 11 23
M  V30 25 1 11 24
M  V30 26 1 12 25
M  V30 END BOND
M  V30 END CTAB
M  END
