
     RDKit          3D

  0  0  0  0  0  0  0  0  0  0999 V3000
M  V30 BEGIN CTAB
M  V30 COUNTS 31 32 0 0 0
M  V30 BEGIN ATOM
M  V30 1 N 0.479101 -0.544772 -2.11718 0
M  V30 2 C 1.1378 -0.468195 -0.831244 0
M  V30 3 C 1.61552 0.950143 -0.656502 0
M  V30 4 C 2.46722 1.07104 0.575115 0
M  V30 5 C 2.22184 0.0132822 1.58254 0
M  V30 6 C 0.824613 -0.517907 1.62773 0
M  V30 7 C 0.219702 -0.799016 0.30115 0
M  V30 8 C -0.110619 -2.2877 0.188896 0
M  V30 9 C -1.06946 -0.0540627 0.172634 0
M  V30 10 N -1.59034 0.780662 1.09286 0
M  V30 11 N -2.73547 1.27946 0.679898 0
M  V30 12 C -2.98192 0.768102 -0.536115 0
M  V30 13 N -1.95414 -0.0491561 -0.839278 0
M  V30 14 N -4.10888 1.04476 -1.33368 0
M  V30 15 H 1.15971 -1.04948 -2.76131 0
M  V30 16 H 0.269095 0.415998 -2.50331 0
M  V30 17 H 2.01648 -1.15593 -0.76308 0
M  V30 18 H 2.20338 1.23071 -1.57514 0
M  V30 19 H 0.768079 1.66152 -0.618155 0
M  V30 20 H 3.54123 0.990057 0.254773 0
M  V30 21 H 2.31631 2.06216 1.00717 0
M  V30 22 H 2.94759 -0.826745 1.5027 0
M  V30 23 H 2.42633 0.464369 2.60131 0
M  V30 24 H 0.152542 0.161016 2.22615 0
M  V30 25 H 0.857252 -1.4614 2.24268 0
M  V30 26 H -0.684152 -2.49695 -0.720576 0
M  V30 27 H -0.754578 -2.57037 1.04866 0
M  V30 28 H 0.831533 -2.87823 0.273396 0
M  V30 29 H -3.38075 1.95839 1.17157 0
M  V30 30 H -3.994 1.36531 -2.31037 0
M  V30 31 H -5.09103 0.942928 -0.983285 0
M  V30 END ATOM
M  V30 BEGIN BOND
M  V30 1 1 1 2
M  V30 2 1 2 3
M  V30 3 1 3 4
M  V30 4 1 4 5
M  V30 5 1 5 6
M  V30 6 1 6 7
M  V30 7 1 7 8
M  V30 8 1 7 9
M  V30 9 2 9 10
M  V30 10 1 10 11
M  V30 11 1 11 12
M  V30 12 2 12 13
M  V30 13 1 12 14
M  V30 14 1 7 2
M  V30 15 1 13 9
M  V30 16 1 1 15
M  V30 17 1 1 16
M  V30 18 1 2 17
M  V30 19 1 3 18
M  V30 20 1 3 19
M  V30 21 1 4 20
M  V30 22 1 4 21
M  V30 23 1 5 22
M  V30 24 1 5 23
M  V30 25 1 6 24
M  V30 26 1 6 25
M  V30 27 1 8 26
M  V30 28 1 8 27
M  V30 29 1 8 28
M  V30 30 1 11 29
M  V30 31 1 14 30
M  V30 32 1 14 31
M  V30 END BOND
M  V30 END CTAB
M  END
