
     RDKit          3D

  0  0  0  0  0  0  0  0  0  0999 V3000
M  V30 BEGIN CTAB
M  V30 COUNTS 42 44 0 0 0
M  V30 BEGIN ATOM
M  V30 1 C 5.82938 1.41869 -0.0979218 0
M  V30 2 C 5.2623 1.21612 -1.46503 0
M  V30 3 O 3.87286 1.33039 -1.54198 0
M  V30 4 C 2.97506 0.550838 -0.859319 0
M  V30 5 N 3.39529 -0.41495 -0.0368841 0
M  V30 6 C 2.50958 -1.19913 0.649561 0
M  V30 7 N 2.96503 -2.22236 1.5208 0
M  V30 8 C 1.15338 -1.00615 0.504579 0
M  V30 9 C 0.695014 -0.0248195 -0.330613 0
M  V30 10 C 1.62707 0.761765 -1.01983 0
M  V30 11 C -0.652719 0.162585 -0.470912 0
M  V30 12 C -1.07427 1.21847 -1.36704 0
M  V30 13 N -1.39757 2.07969 -2.08027 0
M  V30 14 C -1.58327 -0.61307 0.208816 0
M  V30 15 N -1.09636 -1.56377 1.01734 0
M  V30 16 C 0.219038 -1.77698 1.18034 0
M  V30 17 N 0.697459 -2.79849 2.04966 0
M  V30 18 N -2.97579 -0.394199 0.0389713 0
M  V30 19 C -3.67472 -0.522546 -1.22316 0
M  V30 20 C -4.77188 0.491996 -1.37135 0
M  V30 21 N -4.78046 1.53353 -0.438906 0
M  V30 22 C -4.56969 1.24806 0.915522 0
M  V30 23 C -3.78575 -0.0141433 1.18904 0
M  V30 24 H 6.33582 2.4224 -0.0483692 0
M  V30 25 H 6.65843 0.686424 0.115274 0
M  V30 26 H 5.10998 1.37656 0.718815 0
M  V30 27 H 5.56997 0.23777 -1.88906 0
M  V30 28 H 5.68705 1.98916 -2.1691 0
M  V30 29 H 3.13178 -3.19939 1.25524 0
M  V30 30 H 3.15858 -1.98395 2.53765 0
M  V30 31 H 1.21417 1.51815 -1.66267 0
M  V30 32 H 0.857093 -3.77231 1.72597 0
M  V30 33 H 0.899633 -2.58653 3.04681 0
M  V30 34 H -4.09868 -1.56901 -1.21612 0
M  V30 35 H -2.99058 -0.513918 -2.09623 0
M  V30 36 H -5.7451 -0.0395232 -1.36469 0
M  V30 37 H -4.69179 0.932566 -2.40644 0
M  V30 38 H -4.7261 2.49154 -0.758945 0
M  V30 39 H -5.54557 1.25434 1.45533 0
M  V30 40 H -3.98224 2.0886 1.3778 0
M  V30 41 H -4.52199 -0.83996 1.3379 0
M  V30 42 H -3.15944 0.0455495 2.08228 0
M  V30 END ATOM
M  V30 BEGIN BOND
M  V30 1 1 1 2
M  V30 2 1 2 3
M  V30 3 1 3 4
M  V30 4 2 4 5
M  V30 5 1 5 6
M  V30 6 1 6 7
M  V30 7 2 6 8
M  V30 8 1 8 9
M  V30 9 2 9 10
M  V30 10 1 9 11
M  V30 11 1 11 12
M  V30 12 3 12 13
M  V30 13 2 11 14
M  V30 14 1 14 15
M  V30 15 2 15 16
M  V30 16 1 16 17
M  V30 17 1 14 18
M  V30 18 1 18 19
M  V30 19 1 19 20
M  V30 20 1 20 21
M  V30 21 1 21 22
M  V30 22 1 22 23
M  V30 23 1 10 4
M  V30 24 1 23 18
M  V30 25 1 16 8
M  V30 26 1 1 24
M  V30 27 1 1 25
M  V30 28 1 1 26
M  V30 29 1 2 27
M  V30 30 1 2 28
M  V30 31 1 7 29
M  V30 32 1 7 30
M  V30 33 1 10 31
M  V30 34 1 17 32
M  V30 35 1 17 33
M  V30 36 1 19 34
M  V30 37 1 19 35
M  V30 38 1 20 36
M  V30 39 1 20 37
M  V30 40 1 21 38
M  V30 41 1 22 39
M  V30 42 1 22 40
M  V30 43 1 23 41
M  V30 44 1 23 42
M  V30 END BOND
M  V30 END CTAB
M  END
