
     RDKit          3D

  0  0  0  0  0  0  0  0  0  0999 V3000
M  V30 BEGIN CTAB
M  V30 COUNTS 33 35 0 0 0
M  V30 BEGIN ATOM
M  V30 1 C -1.3515 2.52387 -0.802907 0
M  V30 2 C -1.38244 1.21209 -1.55602 0
M  V30 3 C -1.69399 0.0387253 -0.755093 0
M  V30 4 C -0.853821 -0.717979 0.0187187 0
M  V30 5 C -1.29631 -1.81138 0.776803 0
M  V30 6 N -0.346408 -2.55081 1.55281 0
M  V30 7 N -2.59314 -2.1119 0.729635 0
M  V30 8 C -3.46161 -1.39074 -0.0237053 0
M  V30 9 N -4.82641 -1.76338 -0.0243905 0
M  V30 10 N -3.00433 -0.358988 -0.73006 0
M  V30 11 C 0.550443 -0.415799 0.0506643 0
M  V30 12 C 1.09672 0.534234 0.868309 0
M  V30 13 C 2.44539 0.785188 0.913679 0
M  V30 14 C 3.28039 0.0496997 0.100633 0
M  V30 15 O 4.56594 0.502757 0.345844 0
M  V30 16 C 4.47689 1.82947 0.891519 0
M  V30 17 O 3.25882 1.67775 1.63956 0
M  V30 18 C 2.74701 -0.928661 -0.747127 0
M  V30 19 C 1.38617 -1.14238 -0.754649 0
M  V30 20 H -2.38114 2.98184 -0.888031 0
M  V30 21 H -1.16354 2.44403 0.267447 0
M  V30 22 H -0.679367 3.26233 -1.30488 0
M  V30 23 H -2.18345 1.33899 -2.32676 0
M  V30 24 H -0.473196 1.09671 -2.19841 0
M  V30 25 H 0.0248573 -3.47841 1.33783 0
M  V30 26 H -0.0179355 -2.04661 2.43032 0
M  V30 27 H -5.61457 -1.09558 -0.157838 0
M  V30 28 H -5.12579 -2.77051 0.117594 0
M  V30 29 H 0.485833 1.15719 1.5333 0
M  V30 30 H 5.31248 2.09751 1.52979 0
M  V30 31 H 4.32799 2.47692 -0.00332544 0
M  V30 32 H 3.44548 -1.49801 -1.38241 0
M  V30 33 H 1.04454 -1.92818 -1.44884 0
M  V30 END ATOM
M  V30 BEGIN BOND
M  V30 1 1 1 2
M  V30 2 1 2 3
M  V30 3 2 3 4
M  V30 4 1 4 5
M  V30 5 1 5 6
M  V30 6 2 5 7
M  V30 7 1 7 8
M  V30 8 1 8 9
M  V30 9 2 8 10
M  V30 10 1 4 11
M  V30 11 2 11 12
M  V30 12 1 12 13
M  V30 13 2 13 14
M  V30 14 1 14 15
M  V30 15 1 15 16
M  V30 16 1 16 17
M  V30 17 1 14 18
M  V30 18 2 18 19
M  V30 19 1 10 3
M  V30 20 1 19 11
M  V30 21 1 17 13
M  V30 22 1 1 20
M  V30 23 1 1 21
M  V30 24 1 1 22
M  V30 25 1 2 23
M  V30 26 1 2 24
M  V30 27 1 6 25
M  V30 28 1 6 26
M  V30 29 1 9 27
M  V30 30 1 9 28
M  V30 31 1 12 29
M  V30 32 1 16 30
M  V30 33 1 16 31
M  V30 34 1 18 32
M  V30 35 1 19 33
M  V30 END BOND
M  V30 END CTAB
M  END
