
     RDKit          3D

  0  0  0  0  0  0  0  0  0  0999 V3000
M  V30 BEGIN CTAB
M  V30 COUNTS 31 32 0 0 0
M  V30 BEGIN ATOM
M  V30 1 N 4.46789 1.44034 -1.4531 0
M  V30 2 C 3.57068 0.861914 -0.513278 0
M  V30 3 C 3.87622 0.77426 0.834453 0
M  V30 4 C 3.01701 0.215942 1.76018 0
M  V30 5 C 1.79762 -0.280777 1.34172 0
M  V30 6 C 1.51164 -0.182793 -0.0130838 0
M  V30 7 N 2.37595 0.369387 -0.888943 0
M  V30 8 C 0.188523 -0.724534 -0.45097 0 CFG=1
M  V30 9 O 0.00196648 -1.92759 0.1425 0
M  V30 10 C -1.23042 -2.40386 0.33693 0
M  V30 11 C -2.36899 -1.51478 -0.078677 0
M  V30 12 N -2.03989 -0.217747 0.357597 0
M  V30 13 C -0.841716 0.32566 -0.191365 0
M  V30 14 S -3.26283 0.839386 0.746854 0
M  V30 15 O -2.68453 2.15741 1.17943 0
M  V30 16 O -4.1374 0.329658 1.84185 0
M  V30 17 N -4.25684 1.13658 -0.644416 0
M  V30 18 H 5.17899 0.835578 -1.88454 0
M  V30 19 H 4.44574 2.44521 -1.73032 0
M  V30 20 H 4.84919 1.17764 1.12711 0
M  V30 21 H 3.2956 0.165405 2.81685 0
M  V30 22 H 1.11638 -0.72017 2.05651 0
M  V30 23 H 0.266479 -0.879604 -1.54841 0
M  V30 24 H -1.40005 -2.67631 1.41314 0
M  V30 25 H -1.36127 -3.36901 -0.217187 0
M  V30 26 H -3.29313 -1.85786 0.416059 0
M  V30 27 H -2.51766 -1.62667 -1.1758 0
M  V30 28 H -0.482972 1.12106 0.497107 0
M  V30 29 H -1.12062 0.859997 -1.13905 0
M  V30 30 H -5.20344 1.4663 -0.357491 0
M  V30 31 H -3.75814 1.85997 -1.2207 0
M  V30 END ATOM
M  V30 BEGIN BOND
M  V30 1 1 1 2
M  V30 2 2 2 3
M  V30 3 1 3 4
M  V30 4 2 4 5
M  V30 5 1 5 6
M  V30 6 2 6 7
M  V30 7 1 6 8
M  V30 8 1 8 9
M  V30 9 1 9 10
M  V30 10 1 10 11
M  V30 11 1 11 12
M  V30 12 1 12 13
M  V30 13 1 12 14
M  V30 14 2 14 15
M  V30 15 2 14 16
M  V30 16 1 14 17
M  V30 17 1 7 2
M  V30 18 1 13 8
M  V30 19 1 1 18
M  V30 20 1 1 19
M  V30 21 1 3 20
M  V30 22 1 4 21
M  V30 23 1 5 22
M  V30 24 1 8 23 CFG=3
M  V30 25 1 10 24
M  V30 26 1 10 25
M  V30 27 1 11 26
M  V30 28 1 11 27
M  V30 29 1 13 28
M  V30 30 1 13 29
M  V30 31 1 17 30
M  V30 32 1 17 31
M  V30 END BOND
M  V30 END CTAB
M  END
