
     RDKit          3D

  0  0  0  0  0  0  0  0  0  0999 V3000
M  V30 BEGIN CTAB
M  V30 COUNTS 26 28 0 0 0
M  V30 BEGIN ATOM
M  V30 1 N 4.60739 -0.282236 -0.225692 0
M  V30 2 C 3.19306 -0.130249 -0.203831 0
M  V30 3 N 2.50837 -1.01976 0.530596 0
M  V30 4 C 1.17518 -0.950156 0.606575 0
M  V30 5 C 0.516101 0.0624956 -0.091083 0
M  V30 6 C 1.19129 0.970414 -0.838427 0
M  V30 7 N 0.726272 2.04074 -1.59812 0
M  V30 8 N 2.5647 0.846566 -0.877513 0
M  V30 9 C -0.86669 0.111487 0.00517209 0
M  V30 10 C -1.57069 1.07279 -0.649555 0
M  V30 11 C -2.97112 1.08302 -0.522459 0
M  V30 12 C -3.64721 0.173894 0.225872 0
M  V30 13 Br -5.57162 0.243431 0.358814 0
M  V30 14 C -2.93857 -0.792482 0.883965 0
M  V30 15 C -1.54812 -0.843314 0.788349 0
M  V30 16 C -0.868043 -1.83287 1.46663 0
M  V30 17 C 0.494923 -1.87413 1.36648 0
M  V30 18 H 5.24004 0.359415 0.313629 0
M  V30 19 H 5.08929 -1.04494 -0.783233 0
M  V30 20 H 0.515834 1.82051 -2.62669 0
M  V30 21 H 0.607723 3.02673 -1.25613 0
M  V30 22 H -1.1587 1.81013 -1.24335 0
M  V30 23 H -3.50049 1.86007 -1.05551 0
M  V30 24 H -3.42468 -1.53964 1.49228 0
M  V30 25 H -1.44246 -2.54537 2.0574 0
M  V30 26 H 1.07824 -2.62655 1.87584 0
M  V30 END ATOM
M  V30 BEGIN BOND
M  V30 1 1 1 2
M  V30 2 2 2 3
M  V30 3 1 3 4
M  V30 4 2 4 5
M  V30 5 1 5 6
M  V30 6 1 6 7
M  V30 7 2 6 8
M  V30 8 1 5 9
M  V30 9 2 9 10
M  V30 10 1 10 11
M  V30 11 2 11 12
M  V30 12 1 12 13
M  V30 13 1 12 14
M  V30 14 2 14 15
M  V30 15 1 15 16
M  V30 16 2 16 17
M  V30 17 1 8 2
M  V30 18 1 15 9
M  V30 19 1 17 4
M  V30 20 1 1 18
M  V30 21 1 1 19
M  V30 22 1 7 20
M  V30 23 1 7 21
M  V30 24 1 10 22
M  V30 25 1 11 23
M  V30 26 1 14 24
M  V30 27 1 16 25
M  V30 28 1 17 26
M  V30 END BOND
M  V30 END CTAB
M  END
