
     RDKit          3D

  0  0  0  0  0  0  0  0  0  0999 V3000
M  V30 BEGIN CTAB
M  V30 COUNTS 17 17 0 0 0
M  V30 BEGIN ATOM
M  V30 1 N -2.4105 -0.483624 1.15887 0
M  V30 2 C -1.96971 -0.445199 -0.214828 0
M  V30 3 C -0.616964 0.172769 -0.247127 0
M  V30 4 N -0.450388 1.49149 -0.385141 0
M  V30 5 C 0.772466 2.02739 -0.411899 0
M  V30 6 N 1.88513 1.29244 -0.304378 0
M  V30 7 C 1.75977 -0.038786 -0.163968 0
M  V30 8 C 0.505964 -0.612606 -0.133901 0
M  V30 9 N 2.93918 -0.861059 -0.0453338 0
M  V30 10 H -3.3046 -0.959537 1.30721 0
M  V30 11 H -2.49189 0.490903 1.50091 0
M  V30 12 H -2.64238 0.221603 -0.815058 0
M  V30 13 H -1.99486 -1.43054 -0.710292 0
M  V30 14 H 0.842378 3.1135 -0.527265 0
M  V30 15 H 0.439334 -1.68913 -0.019469 0
M  V30 16 H 2.98599 -1.78539 -0.49692 0
M  V30 17 H 3.75108 -0.504227 0.508584 0
M  V30 END ATOM
M  V30 BEGIN BOND
M  V30 1 1 1 2
M  V30 2 1 2 3
M  V30 3 2 3 4
M  V30 4 1 4 5
M  V30 5 2 5 6
M  V30 6 1 6 7
M  V30 7 2 7 8
M  V30 8 1 7 9
M  V30 9 1 8 3
M  V30 10 1 1 10
M  V30 11 1 1 11
M  V30 12 1 2 12
M  V30 13 1 2 13
M  V30 14 1 5 14
M  V30 15 1 8 15
M  V30 16 1 9 16
M  V30 17 1 9 17
M  V30 END BOND
M  V30 END CTAB
M  END
