
     RDKit          3D

  0  0  0  0  0  0  0  0  0  0999 V3000
M  V30 BEGIN CTAB
M  V30 COUNTS 49 52 0 0 0
M  V30 BEGIN ATOM
M  V30 1 O 2.90909 -1.9472 1.54647 0
M  V30 2 C 4.01608 -1.26821 1.58755 0
M  V30 3 N 4.01477 0.116848 1.41296 0
M  V30 4 C 2.74017 0.753091 1.22556 0
M  V30 5 N 2.39236 2.01139 1.01875 0
M  V30 6 N 1.17769 2.33336 0.898595 0
M  V30 7 C 0.23599 1.39968 0.981297 0
M  V30 8 S 1.17733 -0.00430272 1.24512 0
M  V30 9 S -1.56572 1.53457 0.855054 0
M  V30 10 C -2.20415 -0.154723 1.07275 0
M  V30 11 C -3.68246 -0.112171 0.962005 0
M  V30 12 O -4.32491 -0.00694764 2.01999 0
M  V30 13 N -4.32693 -0.19195 -0.281991 0
M  V30 14 C -5.70008 -0.189985 -0.571634 0
M  V30 15 C -6.70233 -0.387954 0.329096 0
M  V30 16 C -8.05307 -0.390452 -0.0795622 0
M  V30 17 C -8.41092 -0.196693 -1.38469 0
M  V30 18 C -7.38899 0.00517267 -2.29214 0
M  V30 19 C -6.07223 0.00923584 -1.90012 0
M  V30 20 S -10.0901 -0.24033 -1.89115 0
M  V30 21 O -10.1142 -0.613574 -3.3766 0
M  V30 22 O -10.8043 -1.27597 -1.10578 0
M  V30 23 N -10.8684 1.2822 -1.6995 0
M  V30 24 C 5.20785 -2.06244 1.82918 0
M  V30 25 S 6.1047 -2.41343 0.335297 0
M  V30 26 C 6.9411 -0.986221 -0.257986 0
M  V30 27 N 6.56767 0.00170233 -1.07631 0
M  V30 28 N 7.58552 0.859679 -1.25423 0
M  V30 29 C 8.64341 0.427853 -0.541479 0
M  V30 30 N 8.24594 -0.696191 0.0640876 0
M  V30 31 N 9.27616 -1.15164 0.779583 0
M  V30 32 C 10.3017 -0.304631 0.611185 0
M  V30 33 N 9.92956 0.70046 -0.217015 0
M  V30 34 N 10.7078 1.77253 -0.642918 0
M  V30 35 H 4.85766 0.679761 1.43498 0
M  V30 36 H -1.876 -0.477126 2.08872 0
M  V30 37 H -1.74212 -0.881197 0.372308 0
M  V30 38 H -3.62853 -0.268993 -1.11406 0
M  V30 39 H -6.46756 -0.546518 1.36412 0
M  V30 40 H -8.8197 -0.551956 0.669625 0
M  V30 41 H -7.67815 0.156141 -3.33586 0
M  V30 42 H -5.29596 0.176988 -2.6507 0
M  V30 43 H -10.8255 1.88855 -2.54618 0
M  V30 44 H -10.4953 1.80717 -0.86732 0
M  V30 45 H 5.83852 -1.54329 2.60863 0
M  V30 46 H 4.97239 -3.04497 2.32081 0
M  V30 47 H 11.2812 -0.417526 1.07483 0
M  V30 48 H 11.7444 1.70157 -0.77484 0
M  V30 49 H 10.2687 2.69354 -0.846474 0
M  V30 END ATOM
M  V30 BEGIN BOND
M  V30 1 2 1 2
M  V30 2 1 2 3
M  V30 3 1 3 4
M  V30 4 2 4 5
M  V30 5 1 5 6
M  V30 6 2 6 7
M  V30 7 1 7 8
M  V30 8 1 7 9
M  V30 9 1 9 10
M  V30 10 1 10 11
M  V30 11 2 11 12
M  V30 12 1 11 13
M  V30 13 1 13 14
M  V30 14 2 14 15
M  V30 15 1 15 16
M  V30 16 2 16 17
M  V30 17 1 17 18
M  V30 18 2 18 19
M  V30 19 1 17 20
M  V30 20 2 20 21
M  V30 21 2 20 22
M  V30 22 1 20 23
M  V30 23 1 2 24
M  V30 24 1 24 25
M  V30 25 1 25 26
M  V30 26 2 26 27
M  V30 27 1 27 28
M  V30 28 2 28 29
M  V30 29 1 29 30
M  V30 30 1 30 31
M  V30 31 2 31 32
M  V30 32 1 32 33
M  V30 33 1 33 34
M  V30 34 1 8 4
M  V30 35 1 19 14
M  V30 36 1 30 26
M  V30 37 1 33 29
M  V30 38 1 3 35
M  V30 39 1 10 36
M  V30 40 1 10 37
M  V30 41 1 13 38
M  V30 42 1 15 39
M  V30 43 1 16 40
M  V30 44 1 18 41
M  V30 45 1 19 42
M  V30 46 1 23 43
M  V30 47 1 23 44
M  V30 48 1 24 45
M  V30 49 1 24 46
M  V30 50 1 32 47
M  V30 51 1 34 48
M  V30 52 1 34 49
M  V30 END BOND
M  V30 END CTAB
M  END
