
     RDKit          3D

  0  0  0  0  0  0  0  0  0  0999 V3000
M  V30 BEGIN CTAB
M  V30 COUNTS 31 32 0 0 0
M  V30 BEGIN ATOM
M  V30 1 N -4.25659 1.11281 -0.402892 0
M  V30 2 C -3.184 0.274282 -0.0478904 0
M  V30 3 C -1.90688 0.63328 -0.426076 0
M  V30 4 N -0.843336 -0.145346 -0.105218 0
M  V30 5 C 0.448774 0.269067 -0.518056 0 CFG=1
M  V30 6 C 1.25734 0.93122 0.606858 0
M  V30 7 C 2.58264 1.03624 -0.121126 0 CFG=2
M  V30 8 O 2.45043 2.05412 -1.06002 0
M  V30 9 C 2.58473 -0.277445 -0.869991 0 CFG=1
M  V30 10 C 3.46126 -1.27904 -0.11647 0
M  V30 11 O 4.77472 -0.848411 -0.046576 0
M  V30 12 O 1.30071 -0.755464 -0.907051 0
M  V30 13 C -1.01521 -1.2838 0.588889 0
M  V30 14 O 0.0117091 -1.95727 0.852476 0
M  V30 15 N -2.25943 -1.66245 0.97438 0
M  V30 16 C -3.33473 -0.907232 0.668863 0
M  V30 17 N -4.64474 -1.26437 1.05021 0
M  V30 18 H -4.85654 1.58475 0.291302 0
M  V30 19 H -4.44227 1.25489 -1.42202 0
M  V30 20 H -1.74319 1.54658 -0.986254 0
M  V30 21 H 0.416496 1.02552 -1.33419 0
M  V30 22 H 1.41565 0.222232 1.45004 0
M  V30 23 H 0.841869 1.89036 0.906605 0
M  V30 24 H 3.43747 1.16317 0.54425 0
M  V30 25 H 3.2679 2.28054 -1.52987 0
M  V30 26 H 3.01956 -0.0921436 -1.87306 0
M  V30 27 H 3.45257 -2.26143 -0.630541 0
M  V30 28 H 3.0208 -1.45386 0.886368 0
M  V30 29 H 4.96748 -0.308214 0.762799 0
M  V30 30 H -4.80973 -1.63826 2.00146 0
M  V30 31 H -5.41546 -1.14432 0.367945 0
M  V30 END ATOM
M  V30 BEGIN BOND
M  V30 1 1 1 2
M  V30 2 2 2 3
M  V30 3 1 3 4
M  V30 4 1 4 5
M  V30 5 1 5 6
M  V30 6 1 6 7
M  V30 7 1 7 8
M  V30 8 1 7 9
M  V30 9 1 9 10
M  V30 10 1 10 11
M  V30 11 1 9 12
M  V30 12 1 4 13
M  V30 13 2 13 14
M  V30 14 1 13 15
M  V30 15 2 15 16
M  V30 16 1 16 17
M  V30 17 1 16 2
M  V30 18 1 12 5
M  V30 19 1 1 18
M  V30 20 1 1 19
M  V30 21 1 3 20
M  V30 22 1 5 21 CFG=3
M  V30 23 1 6 22
M  V30 24 1 6 23
M  V30 25 1 7 24 CFG=1
M  V30 26 1 8 25
M  V30 27 1 9 26 CFG=3
M  V30 28 1 10 27
M  V30 29 1 10 28
M  V30 30 1 11 29
M  V30 31 1 17 30
M  V30 32 1 17 31
M  V30 END BOND
M  V30 END CTAB
M  END
