
     RDKit          3D

  0  0  0  0  0  0  0  0  0  0999 V3000
M  V30 BEGIN CTAB
M  V30 COUNTS 20 21 0 0 0
M  V30 BEGIN ATOM
M  V30 1 N 3.39228 -1.473 -0.167525 0
M  V30 2 C 2.10967 -0.838096 -0.0832071 0
M  V30 3 N 0.97071 -1.50626 -0.322261 0
M  V30 4 C -0.251388 -0.950077 -0.254328 0
M  V30 5 C -1.41763 -1.63538 -0.499399 0
M  V30 6 C -2.67112 -1.05543 -0.427303 0
M  V30 7 C -2.74487 0.271086 -0.0937104 0
M  V30 8 C -1.58029 0.990658 0.159987 0
M  V30 9 Cl -1.71436 2.68323 0.5832 0
M  V30 10 C -0.334161 0.399543 0.0846023 0
M  V30 11 C 0.828718 1.09965 0.333234 0
M  V30 12 N 0.792844 2.47497 0.68154 0
M  V30 13 N 2.01477 0.463607 0.242776 0
M  V30 14 H 3.471 -2.49283 -0.271962 0
M  V30 15 H 4.23996 -0.889472 -0.121738 0
M  V30 16 H -1.35271 -2.67326 -0.759964 0
M  V30 17 H -3.59008 -1.58662 -0.618161 0
M  V30 18 H -3.7282 0.741003 -0.0333295 0
M  V30 19 H 0.73287 2.81148 1.66346 0
M  V30 20 H 0.831987 3.16521 -0.0959105 0
M  V30 END ATOM
M  V30 BEGIN BOND
M  V30 1 1 1 2
M  V30 2 2 2 3
M  V30 3 1 3 4
M  V30 4 2 4 5
M  V30 5 1 5 6
M  V30 6 2 6 7
M  V30 7 1 7 8
M  V30 8 1 8 9
M  V30 9 2 8 10
M  V30 10 1 10 11
M  V30 11 1 11 12
M  V30 12 2 11 13
M  V30 13 1 13 2
M  V30 14 1 10 4
M  V30 15 1 1 14
M  V30 16 1 1 15
M  V30 17 1 5 16
M  V30 18 1 6 17
M  V30 19 1 7 18
M  V30 20 1 12 19
M  V30 21 1 12 20
M  V30 END BOND
M  V30 END CTAB
M  END
