
     RDKit          3D

  0  0  0  0  0  0  0  0  0  0999 V3000
M  V30 BEGIN CTAB
M  V30 COUNTS 75 78 0 0 0
M  V30 BEGIN ATOM
M  V30 1 N 6.97281 2.34639 -2.376 0
M  V30 2 C 6.78727 1.55031 -1.2109 0
M  V30 3 N 7.8355 1.23116 -0.421658 0
M  V30 4 C 7.60634 0.479514 0.662976 0
M  V30 5 N 8.69604 0.146021 1.48611 0
M  V30 6 C 6.33599 0.0248814 0.994296 0
M  V30 7 C 5.29275 0.356238 0.187831 0
M  V30 8 N 5.54892 1.11979 -0.907283 0
M  V30 9 N 4.14579 -0.173715 0.669641 0
M  V30 10 C 4.51438 -0.831652 1.78223 0
M  V30 11 N 5.83921 -0.717628 1.98795 0
M  V30 12 C 2.87582 -0.00655946 0.0494822 0 CFG=2
M  V30 13 O 2.1514 1.08507 0.580185 0
M  V30 14 C 0.980736 0.976466 -0.190945 0 CFG=1
M  V30 15 C 0.59446 -0.466455 -0.165185 0 CFG=1
M  V30 16 C 1.91774 -1.12743 0.256108 0
M  V30 17 O 2.21829 -2.21245 -0.552289 0
M  V30 18 O -0.339473 -0.814623 0.75106 0
M  V30 19 Si -1.75168 -1.53498 0.14335 0 VAL=4
M  V30 20 O -2.84864 -0.450407 -0.534123 0
M  V30 21 Si -2.55219 1.19274 -0.171273 0 VAL=4
M  V30 22 O -1.20001 1.39823 0.760616 0
M  V30 23 C -0.0817192 1.93106 0.221023 0
M  V30 24 C -4.04837 1.78883 0.827218 0
M  V30 25 C -3.83601 1.61905 2.29513 0
M  V30 26 C -5.32135 1.20214 0.308764 0
M  V30 27 C -2.59555 2.15029 -1.76193 0
M  V30 28 C -1.58265 1.72354 -2.77015 0
M  V30 29 C -2.59455 3.65388 -1.52109 0
M  V30 30 C -2.59209 -2.37696 1.61391 0
M  V30 31 C -2.07519 -1.79905 2.9204 0
M  V30 32 C -4.0827 -2.29548 1.5082 0
M  V30 33 C -1.39692 -2.8759 -1.10274 0
M  V30 34 C -1.48647 -2.38054 -2.53072 0
M  V30 35 C -2.47087 -3.93344 -0.951705 0
M  V30 36 H 7.19909 3.36201 -2.33185 0
M  V30 37 H 6.88457 1.92219 -3.32339 0
M  V30 38 H 9.06235 0.835259 2.16297 0
M  V30 39 H 9.12883 -0.789245 1.41212 0
M  V30 40 H 3.82929 -1.37207 2.41265 0
M  V30 41 H 2.99108 0.226624 -1.03199 0
M  V30 42 H 1.32343 1.19821 -1.24587 0
M  V30 43 H 0.385951 -0.851572 -1.17141 0
M  V30 44 H 1.89672 -1.44903 1.29869 0
M  V30 45 H 2.17975 -1.98659 -1.51054 0
M  V30 46 H -0.281037 2.65311 -0.624799 0
M  V30 47 H 0.378151 2.6003 1.01238 0
M  V30 48 H -4.11556 2.90201 0.642927 0
M  V30 49 H -2.72998 1.71644 2.48638 0
M  V30 50 H -4.19713 0.634899 2.65382 0
M  V30 51 H -4.32819 2.44478 2.8372 0
M  V30 52 H -6.03023 1.95828 -0.100817 0
M  V30 53 H -5.86375 0.685736 1.12341 0
M  V30 54 H -5.13793 0.458611 -0.508138 0
M  V30 55 H -3.60959 1.93387 -2.21639 0
M  V30 56 H -1.14701 0.742855 -2.49345 0
M  V30 57 H -0.788539 2.48756 -2.96274 0
M  V30 58 H -2.04131 1.55071 -3.78889 0
M  V30 59 H -3.54875 4.13192 -1.7314 0
M  V30 60 H -2.36417 3.82842 -0.429425 0
M  V30 61 H -1.76372 4.06729 -2.14002 0
M  V30 62 H -2.28826 -3.46519 1.64204 0
M  V30 63 H -2.88801 -1.22904 3.44906 0
M  V30 64 H -1.25344 -1.09172 2.66379 0
M  V30 65 H -1.66326 -2.54517 3.60019 0
M  V30 66 H -4.36249 -1.78293 0.578941 0
M  V30 67 H -4.53343 -1.72356 2.34602 0
M  V30 68 H -4.52921 -3.32314 1.4397 0
M  V30 69 H -0.422526 -3.36634 -0.897693 0
M  V30 70 H -0.466552 -2.23365 -2.93742 0
M  V30 71 H -2.10515 -1.45437 -2.59534 0
M  V30 72 H -1.98074 -3.11504 -3.19777 0
M  V30 73 H -2.50709 -4.55821 -1.88851 0
M  V30 74 H -3.44694 -3.40645 -0.928576 0
M  V30 75 H -2.32224 -4.57611 -0.0658253 0
M  V30 END ATOM
M  V30 BEGIN BOND
M  V30 1 1 1 2
M  V30 2 2 2 3
M  V30 3 1 3 4
M  V30 4 1 4 5
M  V30 5 2 4 6
M  V30 6 1 6 7
M  V30 7 2 7 8
M  V30 8 1 7 9
M  V30 9 1 9 10
M  V30 10 2 10 11
M  V30 11 1 9 12
M  V30 12 1 12 13
M  V30 13 1 13 14
M  V30 14 1 14 15
M  V30 15 1 15 16
M  V30 16 1 16 17
M  V30 17 1 15 18
M  V30 18 1 18 19
M  V30 19 1 19 20
M  V30 20 1 20 21
M  V30 21 1 21 22
M  V30 22 1 22 23
M  V30 23 1 21 24
M  V30 24 1 24 25
M  V30 25 1 24 26
M  V30 26 1 21 27
M  V30 27 1 27 28
M  V30 28 1 27 29
M  V30 29 1 19 30
M  V30 30 1 30 31
M  V30 31 1 30 32
M  V30 32 1 19 33
M  V30 33 1 33 34
M  V30 34 1 33 35
M  V30 35 1 8 2
M  V30 36 1 16 12
M  V30 37 1 11 6
M  V30 38 1 23 14
M  V30 39 1 1 36
M  V30 40 1 1 37
M  V30 41 1 5 38
M  V30 42 1 5 39
M  V30 43 1 10 40
M  V30 44 1 12 41 CFG=3
M  V30 45 1 14 42 CFG=3
M  V30 46 1 15 43 CFG=3
M  V30 47 1 16 44
M  V30 48 1 17 45
M  V30 49 1 23 46
M  V30 50 1 23 47
M  V30 51 1 24 48
M  V30 52 1 25 49
M  V30 53 1 25 50
M  V30 54 1 25 51
M  V30 55 1 26 52
M  V30 56 1 26 53
M  V30 57 1 26 54
M  V30 58 1 27 55
M  V30 59 1 28 56
M  V30 60 1 28 57
M  V30 61 1 28 58
M  V30 62 1 29 59
M  V30 63 1 29 60
M  V30 64 1 29 61
M  V30 65 1 30 62
M  V30 66 1 31 63
M  V30 67 1 31 64
M  V30 68 1 31 65
M  V30 69 1 32 66
M  V30 70 1 32 67
M  V30 71 1 32 68
M  V30 72 1 33 69
M  V30 73 1 34 70
M  V30 74 1 34 71
M  V30 75 1 34 72
M  V30 76 1 35 73
M  V30 77 1 35 74
M  V30 78 1 35 75
M  V30 END BOND
M  V30 END CTAB
M  END
