
     RDKit          3D

  0  0  0  0  0  0  0  0  0  0999 V3000
M  V30 BEGIN CTAB
M  V30 COUNTS 75 80 0 0 0
M  V30 BEGIN ATOM
M  V30 1 N 5.55783 2.52613 -2.05407 0
M  V30 2 C 6.3728 1.47878 -1.54047 0
M  V30 3 C 6.81912 1.45647 -0.236891 0
M  V30 4 N 6.48323 2.47261 0.649297 0
M  V30 5 N 5.41387 2.84247 1.1212 0
M  V30 6 C 4.10595 2.34118 0.916467 0
M  V30 7 C 3.80526 0.994345 0.949221 0
M  V30 8 C 2.5287 0.488562 0.754083 0
M  V30 9 C 1.49111 1.34308 0.514439 0
M  V30 10 C 1.7818 2.68974 0.480028 0
M  V30 11 C 3.03689 3.21254 0.670201 0
M  V30 12 C 0.139241 0.832693 0.306183 0
M  V30 13 C -0.721277 1.5207 -0.523958 0
M  V30 14 C -2.00666 1.05688 -0.736633 0
M  V30 15 C -2.47869 -0.0941603 -0.139233 0
M  V30 16 C -1.62674 -0.787812 0.691241 0
M  V30 17 C -0.331093 -0.316976 0.903324 0
M  V30 18 N -3.8102 -0.524885 -0.393565 0
M  V30 19 N -4.70948 -0.490078 0.504172 0
M  V30 20 C -6.00289 -0.941069 0.150012 0
M  V30 21 C -6.18174 -2.23992 -0.224151 0
M  V30 22 N -5.06449 -3.10748 -0.248828 0
M  V30 23 C -7.43613 -2.7434 -0.58504 0
M  V30 24 C -8.49198 -1.85793 -0.544485 0
M  V30 25 C -8.35117 -0.551339 -0.17522 0
M  V30 26 C -7.08077 -0.0898583 0.17754 0
M  V30 27 C -6.88279 1.22475 0.55932 0
M  V30 28 C -7.94411 2.10645 0.597868 0
M  V30 29 C -9.20364 1.66871 0.253333 0
M  V30 30 C -9.37974 0.357198 -0.12364 0
M  V30 31 S -10.5541 2.80059 0.304991 0
M  V30 32 O -10.6744 3.53445 -1.20284 0
M  V30 33 O -10.2914 3.87089 1.34646 0
M  V30 34 O -11.8307 2.11128 0.610178 0
M  V30 35 S -7.64048 -4.41431 -1.06175 0
M  V30 36 O -6.67245 -4.69369 -2.42316 0
M  V30 37 O -7.18415 -5.36034 0.00486531 0
M  V30 38 O -9.06723 -4.62091 -1.43749 0
M  V30 39 C 7.61831 0.397153 0.185174 0
M  V30 40 C 7.99292 -0.643712 -0.636736 0
M  V30 41 C 7.53244 -0.603488 -1.94839 0
M  V30 42 C 6.74252 0.442119 -2.36899 0
M  V30 43 C 8.79133 -1.68968 -0.195024 0
M  V30 44 C 9.24191 -1.71971 1.10201 0
M  V30 45 C 8.87763 -0.686862 1.93944 0
M  V30 46 C 8.08439 0.35408 1.5039 0
M  V30 47 O 7.72321 1.39578 2.36606 0
M  V30 48 S 10.2601 -3.0413 1.68857 0
M  V30 49 O 11.8962 -2.6538 1.44256 0
M  V30 50 O 10.0662 -3.22725 3.15339 0
M  V30 51 O 9.92714 -4.24407 0.881521 0
M  V30 52 H 5.70608 3.5154 -1.82856 0
M  V30 53 H 4.7684 2.27665 -2.69306 0
M  V30 54 H 4.64629 0.309509 1.14568 0
M  V30 55 H 2.4158 -0.58548 0.802741 0
M  V30 56 H 0.954562 3.39218 0.287661 0
M  V30 57 H 3.20613 4.27751 0.632199 0
M  V30 58 H -0.366183 2.43776 -1.00858 0
M  V30 59 H -2.69834 1.59337 -1.39255 0
M  V30 60 H -1.98684 -1.69207 1.16499 0
M  V30 61 H 0.329579 -0.858764 1.55001 0
M  V30 62 H -4.62291 -3.38435 -1.15055 0
M  V30 63 H -4.64971 -3.49481 0.624334 0
M  V30 64 H -9.47865 -2.2096 -0.816687 0
M  V30 65 H -5.91611 1.61941 0.839178 0
M  V30 66 H -7.82647 3.15489 0.895007 0
M  V30 67 H -10.3692 -0.00961736 -0.400354 0
M  V30 68 H -10.2611 4.4232 -1.16151 0
M  V30 69 H -7.03569 -4.203 -3.20985 0
M  V30 70 H 7.82759 -1.42467 -2.59772 0
M  V30 71 H 6.39967 0.445601 -3.39533 0
M  V30 72 H 9.06016 -2.48554 -0.875933 0
M  V30 73 H 9.22387 -0.68925 2.97466 0
M  V30 74 H 8.05798 1.36691 3.31707 0
M  V30 75 H 11.9436 -1.95082 0.739322 0
M  V30 END ATOM
M  V30 BEGIN BOND
M  V30 1 1 1 2
M  V30 2 2 2 3
M  V30 3 1 3 4
M  V30 4 2 4 5 CFG=2
M  V30 5 1 5 6
M  V30 6 2 6 7
M  V30 7 1 7 8
M  V30 8 2 8 9
M  V30 9 1 9 10
M  V30 10 2 10 11
M  V30 11 1 9 12
M  V30 12 2 12 13
M  V30 13 1 13 14
M  V30 14 2 14 15
M  V30 15 1 15 16
M  V30 16 2 16 17
M  V30 17 1 15 18
M  V30 18 2 18 19 CFG=2
M  V30 19 1 19 20
M  V30 20 2 20 21
M  V30 21 1 21 22
M  V30 22 1 21 23
M  V30 23 2 23 24
M  V30 24 1 24 25
M  V30 25 2 25 26
M  V30 26 1 26 27
M  V30 27 2 27 28
M  V30 28 1 28 29
M  V30 29 2 29 30
M  V30 30 1 29 31
M  V30 31 1 31 32
M  V30 32 2 31 33
M  V30 33 2 31 34
M  V30 34 1 23 35
M  V30 35 1 35 36
M  V30 36 2 35 37
M  V30 37 2 35 38
M  V30 38 1 3 39
M  V30 39 2 39 40
M  V30 40 1 40 41
M  V30 41 2 41 42
M  V30 42 1 40 43
M  V30 43 2 43 44
M  V30 44 1 44 45
M  V30 45 2 45 46
M  V30 46 1 46 47
M  V30 47 1 44 48
M  V30 48 1 48 49
M  V30 49 2 48 50
M  V30 50 2 48 51
M  V30 51 1 42 2
M  V30 52 1 11 6
M  V30 53 1 17 12
M  V30 54 1 26 20
M  V30 55 1 46 39
M  V30 56 1 30 25
M  V30 57 1 1 52
M  V30 58 1 1 53
M  V30 59 1 7 54
M  V30 60 1 8 55
M  V30 61 1 10 56
M  V30 62 1 11 57
M  V30 63 1 13 58
M  V30 64 1 14 59
M  V30 65 1 16 60
M  V30 66 1 17 61
M  V30 67 1 22 62
M  V30 68 1 22 63
M  V30 69 1 24 64
M  V30 70 1 27 65
M  V30 71 1 28 66
M  V30 72 1 30 67
M  V30 73 1 32 68
M  V30 74 1 36 69
M  V30 75 1 41 70
M  V30 76 1 42 71
M  V30 77 1 43 72
M  V30 78 1 45 73
M  V30 79 1 47 74
M  V30 80 1 49 75
M  V30 END BOND
M  V30 END CTAB
M  END
