
     RDKit          3D

  0  0  0  0  0  0  0  0  0  0999 V3000
M  V30 BEGIN CTAB
M  V30 COUNTS 71 72 0 0 0
M  V30 BEGIN ATOM
M  V30 1 C 8.82149 3.38929 -2.35036 0
M  V30 2 C 8.05118 2.56822 -1.28789 0
M  V30 3 C 8.83431 1.35225 -0.929813 0
M  V30 4 C 8.36834 0.440596 0.107561 0
M  V30 5 C 7.10027 -0.292024 0.0561817 0
M  V30 6 C 5.81417 0.417338 0.0662278 0
M  V30 7 C 4.61156 -0.532106 -0.00577251 0
M  V30 8 C 4.60036 -1.44821 1.16443 0
M  V30 9 C 3.42447 -2.40959 1.18905 0
M  V30 10 C 2.14839 -1.61752 1.23779 0
M  V30 11 C 0.975731 -2.57779 1.27989 0
M  V30 12 C -0.33226 -1.854 1.34364 0
M  V30 13 C -0.602427 -0.953212 0.18291 0
M  V30 14 O -1.80737 -0.285969 0.180646 0
M  V30 15 C -3.05334 -0.80691 0.0951289 0
M  V30 16 C -3.29858 -2.1514 -0.0450632 0
M  V30 17 C -4.59881 -2.63622 -0.123316 0
M  V30 18 C -5.6517 -1.75708 -0.0604329 0
M  V30 19 C -5.43157 -0.404856 0.0788518 0
M  V30 20 C -4.16887 0.0562749 0.154381 0
M  V30 21 N -6.59589 0.432366 0.133709 0
M  V30 22 C -7.15749 0.688092 1.41039 0
M  V30 23 N -6.50843 0.0846892 2.55201 0
M  V30 24 N -8.20827 1.42779 1.5822 0
M  V30 25 C -8.80326 1.99432 0.427945 0
M  V30 26 N -9.97686 2.83037 0.529149 0
M  V30 27 N -8.31093 1.77528 -0.730853 0
M  V30 28 C -7.17391 0.993122 -1.06706 0
M  V30 29 C -7.4873 -0.0751116 -2.09174 0
M  V30 30 C -6.09985 1.8808 -1.71289 0
M  V30 31 H 9.90318 3.31557 -2.1984 0
M  V30 32 H 8.4724 4.43874 -2.29516 0
M  V30 33 H 8.59462 3.01239 -3.36784 0
M  V30 34 H 7.09676 2.3523 -1.82348 0
M  V30 35 H 7.84154 3.21927 -0.43222 0
M  V30 36 H 9.85238 1.75874 -0.582036 0
M  V30 37 H 9.14517 0.820877 -1.88285 0
M  V30 38 H 8.42516 0.970861 1.13849 0
M  V30 39 H 9.17689 -0.368542 0.287363 0
M  V30 40 H 7.1061 -0.95886 0.988924 0
M  V30 41 H 7.0771 -1.03212 -0.792903 0
M  V30 42 H 5.67894 0.939122 1.05372 0
M  V30 43 H 5.69062 1.18463 -0.719741 0
M  V30 44 H 3.69766 0.119051 -0.072868 0
M  V30 45 H 4.62467 -1.08555 -0.978961 0
M  V30 46 H 4.58704 -0.840085 2.08715 0
M  V30 47 H 5.55664 -2.02804 1.17829 0
M  V30 48 H 3.51609 -2.97207 2.15393 0
M  V30 49 H 3.46307 -3.13955 0.380468 0
M  V30 50 H 2.09068 -0.958425 0.344217 0
M  V30 51 H 2.13806 -1.01604 2.16296 0
M  V30 52 H 1.09718 -3.18885 2.18828 0
M  V30 53 H 0.980296 -3.25476 0.399222 0
M  V30 54 H -0.250467 -1.20507 2.2874 0
M  V30 55 H -1.12588 -2.56864 1.58903 0
M  V30 56 H 0.255698 -0.211601 0.151002 0
M  V30 57 H -0.539383 -1.52901 -0.779351 0
M  V30 58 H -2.52154 -2.89805 -0.125965 0
M  V30 59 H -4.76598 -3.70223 -0.233035 0
M  V30 60 H -6.66396 -2.15403 -0.123126 0
M  V30 61 H -3.98685 1.11707 0.263662 0
M  V30 62 H -5.80514 0.677982 3.03615 0
M  V30 63 H -6.69364 -0.85771 2.89904 0
M  V30 64 H -10.6055 2.78234 1.35854 0
M  V30 65 H -10.1999 3.48679 -0.229445 0
M  V30 66 H -8.07531 0.419438 -2.90076 0
M  V30 67 H -8.08247 -0.911163 -1.6339 0
M  V30 68 H -6.54859 -0.494098 -2.50014 0
M  V30 69 H -6.65785 2.51748 -2.46056 0
M  V30 70 H -5.57834 2.49942 -0.980983 0
M  V30 71 H -5.45024 1.21361 -2.29935 0
M  V30 END ATOM
M  V30 BEGIN BOND
M  V30 1 1 1 2
M  V30 2 1 2 3
M  V30 3 1 3 4
M  V30 4 1 4 5
M  V30 5 1 5 6
M  V30 6 1 6 7
M  V30 7 1 7 8
M  V30 8 1 8 9
M  V30 9 1 9 10
M  V30 10 1 10 11
M  V30 11 1 11 12
M  V30 12 1 12 13
M  V30 13 1 13 14
M  V30 14 1 14 15
M  V30 15 2 15 16
M  V30 16 1 16 17
M  V30 17 2 17 18
M  V30 18 1 18 19
M  V30 19 2 19 20
M  V30 20 1 19 21
M  V30 21 1 21 22
M  V30 22 1 22 23
M  V30 23 2 22 24
M  V30 24 1 24 25
M  V30 25 1 25 26
M  V30 26 2 25 27
M  V30 27 1 27 28
M  V30 28 1 28 29
M  V30 29 1 28 30
M  V30 30 1 20 15
M  V30 31 1 28 21
M  V30 32 1 1 31
M  V30 33 1 1 32
M  V30 34 1 1 33
M  V30 35 1 2 34
M  V30 36 1 2 35
M  V30 37 1 3 36
M  V30 38 1 3 37
M  V30 39 1 4 38
M  V30 40 1 4 39
M  V30 41 1 5 40
M  V30 42 1 5 41
M  V30 43 1 6 42
M  V30 44 1 6 43
M  V30 45 1 7 44
M  V30 46 1 7 45
M  V30 47 1 8 46
M  V30 48 1 8 47
M  V30 49 1 9 48
M  V30 50 1 9 49
M  V30 51 1 10 50
M  V30 52 1 10 51
M  V30 53 1 11 52
M  V30 54 1 11 53
M  V30 55 1 12 54
M  V30 56 1 12 55
M  V30 57 1 13 56
M  V30 58 1 13 57
M  V30 59 1 16 58
M  V30 60 1 17 59
M  V30 61 1 18 60
M  V30 62 1 20 61
M  V30 63 1 23 62
M  V30 64 1 23 63
M  V30 65 1 26 64
M  V30 66 1 26 65
M  V30 67 1 29 66
M  V30 68 1 29 67
M  V30 69 1 29 68
M  V30 70 1 30 69
M  V30 71 1 30 70
M  V30 72 1 30 71
M  V30 END BOND
M  V30 END CTAB
M  END
