
     RDKit          3D

  0  0  0  0  0  0  0  0  0  0999 V3000
M  V30 BEGIN CTAB
M  V30 COUNTS 38 41 0 0 0
M  V30 BEGIN ATOM
M  V30 1 N -6.10572 -0.144279 -1.88795 0
M  V30 2 C -4.8883 -0.213148 -1.12188 0
M  V30 3 N -4.70613 -1.14995 -0.18858 0
M  V30 4 C -3.54106 -1.19787 0.528692 0
M  V30 5 N -3.38995 -2.20786 1.50832 0
M  V30 6 C -2.55523 -0.289298 0.29695 0
M  V30 7 C -1.37095 -0.330445 1.01921 0
M  V30 8 C -0.396911 0.626441 0.737602 0
M  V30 9 C -0.648622 1.56949 -0.241162 0
M  V30 10 C -1.81032 1.61133 -0.950953 0
M  V30 11 C -2.78955 0.673971 -0.689961 0
M  V30 12 N -3.9516 0.7051 -1.39064 0
M  V30 13 N 0.662495 0.410888 1.54531 0
M  V30 14 C 1.8495 1.22807 1.49825 0
M  V30 15 C 2.89915 0.752377 0.598572 0
M  V30 16 C 3.02244 1.18201 -0.701232 0
M  V30 17 C 4.04553 0.690391 -1.52179 0
M  V30 18 C 4.96367 -0.233626 -1.07164 0
M  V30 19 C 4.84638 -0.667579 0.227331 0
M  V30 20 C 3.8408 -0.185868 1.03729 0
M  V30 21 C 6.01551 -0.737125 -1.91998 0
M  V30 22 N 6.84945 -1.12334 -2.60849 0
M  V30 23 C 0.379053 -0.643748 2.31623 0
M  V30 24 C -0.876179 -1.13105 2.01768 0
M  V30 25 H -7.00967 -0.496824 -1.54175 0
M  V30 26 H -6.10314 0.279319 -2.8468 0
M  V30 27 H -2.95815 -3.10798 1.21779 0
M  V30 28 H -3.68618 -2.11433 2.50013 0
M  V30 29 H 0.0957331 2.31836 -0.466701 0
M  V30 30 H -1.98727 2.3681 -1.72203 0
M  V30 31 H 1.54374 2.28573 1.31628 0
M  V30 32 H 2.26173 1.23434 2.54903 0
M  V30 33 H 2.34298 1.90745 -1.12686 0
M  V30 34 H 4.10864 1.05241 -2.53655 0
M  V30 35 H 5.57638 -1.39315 0.563041 0
M  V30 36 H 3.74371 -0.522181 2.05628 0
M  V30 37 H 1.05212 -1.04319 3.06273 0
M  V30 38 H -1.32408 -1.9629 2.49504 0
M  V30 END ATOM
M  V30 BEGIN BOND
M  V30 1 1 1 2
M  V30 2 2 2 3
M  V30 3 1 3 4
M  V30 4 1 4 5
M  V30 5 2 4 6
M  V30 6 1 6 7
M  V30 7 2 7 8
M  V30 8 1 8 9
M  V30 9 2 9 10
M  V30 10 1 10 11
M  V30 11 2 11 12
M  V30 12 1 8 13
M  V30 13 1 13 14
M  V30 14 1 14 15
M  V30 15 2 15 16
M  V30 16 1 16 17
M  V30 17 2 17 18
M  V30 18 1 18 19
M  V30 19 2 19 20
M  V30 20 1 18 21
M  V30 21 3 21 22
M  V30 22 1 13 23
M  V30 23 2 23 24
M  V30 24 1 12 2
M  V30 25 1 20 15
M  V30 26 1 11 6
M  V30 27 1 24 7
M  V30 28 1 1 25
M  V30 29 1 1 26
M  V30 30 1 5 27
M  V30 31 1 5 28
M  V30 32 1 9 29
M  V30 33 1 10 30
M  V30 34 1 14 31
M  V30 35 1 14 32
M  V30 36 1 16 33
M  V30 37 1 17 34
M  V30 38 1 19 35
M  V30 39 1 20 36
M  V30 40 1 23 37
M  V30 41 1 24 38
M  V30 END BOND
M  V30 END CTAB
M  END
