
     RDKit          3D

  0  0  0  0  0  0  0  0  0  0999 V3000
M  V30 BEGIN CTAB
M  V30 COUNTS 26 26 0 0 0
M  V30 BEGIN ATOM
M  V30 1 N -3.43683 1.3978 0.982366 0
M  V30 2 N -2.96189 0.682133 -0.113232 0
M  V30 3 C -2.1518 -0.485739 0.0458535 0
M  V30 4 O -1.87345 -0.853109 1.21401 0
M  V30 5 C -1.63894 -1.2641 -1.09502 0
M  V30 6 S -0.433441 -0.415617 -2.11465 0
M  V30 7 C 1.12357 -0.110124 -1.29881 0
M  V30 8 S 2.48902 -1.1713 -1.18237 0
M  V30 9 C 3.53452 -0.143575 -0.310062 0
M  V30 10 N 2.79978 0.940125 -0.155527 0
M  V30 11 C 1.59299 0.992561 -0.635926 0
M  V30 12 C 0.709515 2.22978 -0.513307 0
M  V30 13 N 4.88895 -0.388481 0.151397 0
M  V30 14 C -1.01416 -2.57982 -0.601567 0
M  V30 15 H -3.24088 2.41668 0.882482 0
M  V30 16 H -4.45799 1.21755 1.16748 0
M  V30 17 H -3.22604 1.03777 -1.06366 0
M  V30 18 H -2.51849 -1.62051 -1.71989 0
M  V30 19 H 0.608715 2.73891 -1.49746 0
M  V30 20 H -0.218148 1.93413 -0.0481678 0
M  V30 21 H 1.21991 2.98172 0.158315 0
M  V30 22 H 5.1593 -1.276 0.613798 0
M  V30 23 H 5.62678 0.335191 0.0251075 0
M  V30 24 H -1.7646 -3.39093 -0.567689 0
M  V30 25 H -0.225784 -2.85 -1.31883 0
M  V30 26 H -0.590601 -2.35506 0.391598 0
M  V30 END ATOM
M  V30 BEGIN BOND
M  V30 1 1 1 2
M  V30 2 1 2 3
M  V30 3 2 3 4
M  V30 4 1 3 5
M  V30 5 1 5 6
M  V30 6 1 6 7
M  V30 7 1 7 8
M  V30 8 1 8 9
M  V30 9 2 9 10
M  V30 10 1 10 11
M  V30 11 1 11 12
M  V30 12 1 9 13
M  V30 13 1 5 14
M  V30 14 2 11 7
M  V30 15 1 1 15
M  V30 16 1 1 16
M  V30 17 1 2 17
M  V30 18 1 5 18
M  V30 19 1 12 19
M  V30 20 1 12 20
M  V30 21 1 12 21
M  V30 22 1 13 22
M  V30 23 1 13 23
M  V30 24 1 14 24
M  V30 25 1 14 25
M  V30 26 1 14 26
M  V30 END BOND
M  V30 END CTAB
M  END
