
     RDKit          3D

  0  0  0  0  0  0  0  0  0  0999 V3000
M  V30 BEGIN CTAB
M  V30 COUNTS 98 97 0 0 0
M  V30 BEGIN ATOM
M  V30 1 C 5.4785 -1.58172 2.93572 0
M  V30 2 C 4.39073 -2.52463 2.52642 0
M  V30 3 C 4.03317 -2.47447 1.0789 0 CFG=2
M  V30 4 C 5.23562 -2.80419 0.200108 0
M  V30 5 C 3.28027 -1.27901 0.619394 0 CFG=2
M  V30 6 N 3.95422 -0.0268778 0.829523 0
M  V30 7 C 4.45812 0.749572 -0.270821 0
M  V30 8 O 4.30341 0.31696 -1.46002 0
M  V30 9 C 5.14723 2.02992 -0.0770494 0 CFG=1
M  V30 10 N 5.00766 2.37786 1.35396 0
M  V30 11 C 6.67219 1.93668 -0.264091 0
M  V30 12 C 7.08642 1.47559 -1.6025 0
M  V30 13 C 8.55291 1.36155 -1.77541 0
M  V30 14 N 9.28342 2.55035 -1.6372 0
M  V30 15 C 9.5304 3.26112 -0.448709 0
M  V30 16 N 9.82717 2.65482 0.789853 0
M  V30 17 N 9.49599 4.56326 -0.513222 0
M  V30 18 C 1.85867 -1.23012 1.03036 0
M  V30 19 O 1.46307 -0.17539 1.57279 0
M  V30 20 N 0.984895 -2.30122 0.822062 0
M  V30 21 C -0.396622 -2.40514 1.14701 0 CFG=1
M  V30 22 C -0.805787 -1.82117 2.48857 0
M  V30 23 C -0.138973 -2.47854 3.62477 0
M  V30 24 O -0.724177 -3.68726 4.07063 0
M  V30 25 O 0.867147 -2.10215 4.23202 0
M  V30 26 C -1.28547 -1.79594 0.136039 0
M  V30 27 O -0.72105 -1.24398 -0.848643 0
M  V30 28 N -2.68689 -1.78339 0.186577 0
M  V30 29 C -3.52329 -1.16318 -0.826374 0 CFG=1
M  V30 30 C -4.43948 -2.11507 -1.52863 0
M  V30 31 C -3.79964 -3.23483 -2.26333 0
M  V30 32 C -2.85616 -2.80393 -3.34953 0
M  V30 33 C -3.18102 -4.30845 -1.44165 0
M  V30 34 C -4.3208 -0.0728816 -0.193899 0
M  V30 35 O -4.21324 0.136172 1.05452 0
M  V30 36 N -5.20853 0.766013 -0.897677 0
M  V30 37 C -5.98031 1.81563 -0.273882 0 CFG=1
M  V30 38 C -5.36134 3.14884 -0.740867 0
M  V30 39 C -7.38109 1.84015 -0.733037 0
M  V30 40 O -7.74623 1.00529 -1.59521 0
M  V30 41 N -8.33548 2.76303 -0.242567 0
M  V30 42 C -9.69533 2.75218 -0.720734 0 CFG=1
M  V30 43 C -10.5902 2.45637 0.486401 0
M  V30 44 O -10.382 3.4642 1.41827 0
M  V30 45 C -10.09 4.05223 -1.27287 0
M  V30 46 O -11.3383 4.33354 -1.80599 0
M  V30 47 O -9.24048 4.99831 -1.26921 0
M  V30 48 H 5.98597 -1.06619 2.11141 0
M  V30 49 H 5.07691 -0.803483 3.62371 0
M  V30 50 H 6.26212 -2.10432 3.52506 0
M  V30 51 H 3.4858 -2.35201 3.15466 0
M  V30 52 H 4.72607 -3.55838 2.83433 0
M  V30 53 H 3.33756 -3.36128 0.917648 0
M  V30 54 H 6.11241 -2.19163 0.42 0
M  V30 55 H 5.49132 -3.8716 0.464914 0
M  V30 56 H 4.95145 -2.82415 -0.865344 0
M  V30 57 H 3.22408 -1.39651 -0.524376 0
M  V30 58 H 4.08668 0.35535 1.77873 0
M  V30 59 H 4.74981 2.86494 -0.661264 0
M  V30 60 H 5.67836 1.75098 1.85634 0
M  V30 61 H 5.41026 3.35508 1.42597 0
M  V30 62 H 7.06708 1.30146 0.537959 0
M  V30 63 H 6.98814 3.00115 -0.0937624 0
M  V30 64 H 6.6347 0.44893 -1.79469 0
M  V30 65 H 6.61824 2.11423 -2.39819 0
M  V30 66 H 8.98443 0.572623 -1.05913 0
M  V30 67 H 8.79856 0.892863 -2.7823 0
M  V30 68 H 9.70725 2.98079 -2.52206 0
M  V30 69 H 10.6025 1.98127 0.872306 0
M  V30 70 H 9.25827 2.89204 1.61882 0
M  V30 71 H 9.67321 5.13026 0.338216 0
M  V30 72 H 1.43666 -3.16196 0.342988 0
M  V30 73 H -0.649744 -3.4965 1.24892 0
M  V30 74 H -0.702907 -0.704956 2.51669 0
M  V30 75 H -1.91699 -1.97696 2.64448 0
M  V30 76 H -0.0853282 -4.48215 4.11351 0
M  V30 77 H -3.1711 -2.23445 0.981539 0
M  V30 78 H -2.83337 -0.680276 -1.54689 0
M  V30 79 H -5.1735 -2.54644 -0.818463 0
M  V30 80 H -5.04378 -1.53483 -2.25857 0
M  V30 81 H -4.65461 -3.7429 -2.82512 0
M  V30 82 H -3.31996 -2.81547 -4.37854 0
M  V30 83 H -2.37393 -1.83565 -3.16473 0
M  V30 84 H -2.04121 -3.55515 -3.40736 0
M  V30 85 H -3.45622 -4.17751 -0.375049 0
M  V30 86 H -2.07232 -4.34632 -1.50098 0
M  V30 87 H -3.5955 -5.33052 -1.70231 0
M  V30 88 H -5.31375 0.621678 -1.92622 0
M  V30 89 H -5.88636 1.83348 0.811965 0
M  V30 90 H -5.52722 3.34687 -1.796 0
M  V30 91 H -5.78764 3.92328 -0.0511944 0
M  V30 92 H -4.28342 3.07391 -0.458009 0
M  V30 93 H -8.09697 3.48908 0.487526 0
M  V30 94 H -9.86371 1.9681 -1.49468 0
M  V30 95 H -10.2916 1.49747 0.943078 0
M  V30 96 H -11.6586 2.39004 0.171907 0
M  V30 97 H -10.9324 3.32531 2.23296 0
M  V30 98 H -12.085 3.64428 -1.77936 0
M  V30 END ATOM
M  V30 BEGIN BOND
M  V30 1 1 1 2
M  V30 2 1 2 3
M  V30 3 1 3 4
M  V30 4 1 3 5
M  V30 5 1 5 6
M  V30 6 1 6 7
M  V30 7 2 7 8
M  V30 8 1 7 9
M  V30 9 1 9 10
M  V30 10 1 9 11
M  V30 11 1 11 12
M  V30 12 1 12 13
M  V30 13 1 13 14
M  V30 14 1 14 15
M  V30 15 1 15 16
M  V30 16 2 15 17 CFG=2
M  V30 17 1 5 18
M  V30 18 2 18 19
M  V30 19 1 18 20
M  V30 20 1 20 21
M  V30 21 1 21 22
M  V30 22 1 22 23
M  V30 23 1 23 24
M  V30 24 2 23 25
M  V30 25 1 21 26
M  V30 26 2 26 27
M  V30 27 1 26 28
M  V30 28 1 28 29
M  V30 29 1 29 30
M  V30 30 1 30 31
M  V30 31 1 31 32
M  V30 32 1 31 33
M  V30 33 1 29 34
M  V30 34 2 34 35
M  V30 35 1 34 36
M  V30 36 1 36 37
M  V30 37 1 37 38
M  V30 38 1 37 39
M  V30 39 2 39 40
M  V30 40 1 39 41
M  V30 41 1 41 42
M  V30 42 1 42 43
M  V30 43 1 43 44
M  V30 44 1 42 45
M  V30 45 1 45 46
M  V30 46 2 45 47
M  V30 47 1 1 48
M  V30 48 1 1 49
M  V30 49 1 1 50
M  V30 50 1 2 51
M  V30 51 1 2 52
M  V30 52 1 3 53 CFG=1
M  V30 53 1 4 54
M  V30 54 1 4 55
M  V30 55 1 4 56
M  V30 56 1 5 57 CFG=3
M  V30 57 1 6 58
M  V30 58 1 9 59 CFG=3
M  V30 59 1 10 60
M  V30 60 1 10 61
M  V30 61 1 11 62
M  V30 62 1 11 63
M  V30 63 1 12 64
M  V30 64 1 12 65
M  V30 65 1 13 66
M  V30 66 1 13 67
M  V30 67 1 14 68
M  V30 68 1 16 69
M  V30 69 1 16 70
M  V30 70 1 17 71
M  V30 71 1 20 72
M  V30 72 1 21 73 CFG=1
M  V30 73 1 22 74
M  V30 74 1 22 75
M  V30 75 1 24 76
M  V30 76 1 28 77
M  V30 77 1 29 78 CFG=3
M  V30 78 1 30 79
M  V30 79 1 30 80
M  V30 80 1 31 81
M  V30 81 1 32 82
M  V30 82 1 32 83
M  V30 83 1 32 84
M  V30 84 1 33 85
M  V30 85 1 33 86
M  V30 86 1 33 87
M  V30 87 1 36 88
M  V30 88 1 37 89 CFG=1
M  V30 89 1 38 90
M  V30 90 1 38 91
M  V30 91 1 38 92
M  V30 92 1 41 93
M  V30 93 1 42 94 CFG=3
M  V30 94 1 43 95
M  V30 95 1 43 96
M  V30 96 1 44 97
M  V30 97 1 46 98
M  V30 END BOND
M  V30 END CTAB
M  END
