
     RDKit          3D

  0  0  0  0  0  0  0  0  0  0999 V3000
M  V30 BEGIN CTAB
M  V30 COUNTS 22 22 0 0 0
M  V30 BEGIN ATOM
M  V30 1 C -2.7272 0.388571 -0.0508402 0
M  V30 2 C -1.24048 0.546849 0.00977341 0
M  V30 3 C -0.671014 1.79711 0.131013 0
M  V30 4 C 0.701315 1.94324 0.186989 0
M  V30 5 C 1.54371 0.838165 0.122923 0
M  V30 6 N 2.94776 1.00476 0.181636 0
M  V30 7 C 0.937962 -0.393692 0.00203976 0
M  V30 8 N 1.78113 -1.56083 -0.0670859 0
M  V30 9 C -0.419095 -0.561571 -0.0552474 0
M  V30 10 C -1.03696 -1.93391 -0.188137 0
M  V30 11 H -3.08238 0.701567 -1.0625 0
M  V30 12 H -3.22304 0.973117 0.761278 0
M  V30 13 H -2.96379 -0.681941 0.140784 0
M  V30 14 H -1.31766 2.67816 0.182904 0
M  V30 15 H 1.17791 2.89816 0.280931 0
M  V30 16 H 3.39945 1.73749 -0.387745 0
M  V30 17 H 3.538 0.4091 0.782941 0
M  V30 18 H 2.49036 -1.73164 0.680437 0
M  V30 19 H 1.70792 -2.25051 -0.84698 0
M  V30 20 H -1.49231 -2.253 0.757944 0
M  V30 21 H -0.266459 -2.65629 -0.531442 0
M  V30 22 H -1.78513 -1.89292 -1.03161 0
M  V30 END ATOM
M  V30 BEGIN BOND
M  V30 1 1 1 2
M  V30 2 2 2 3
M  V30 3 1 3 4
M  V30 4 2 4 5
M  V30 5 1 5 6
M  V30 6 1 5 7
M  V30 7 1 7 8
M  V30 8 2 7 9
M  V30 9 1 9 10
M  V30 10 1 9 2
M  V30 11 1 1 11
M  V30 12 1 1 12
M  V30 13 1 1 13
M  V30 14 1 3 14
M  V30 15 1 4 15
M  V30 16 1 6 16
M  V30 17 1 6 17
M  V30 18 1 8 18
M  V30 19 1 8 19
M  V30 20 1 10 20
M  V30 21 1 10 21
M  V30 22 1 10 22
M  V30 END BOND
M  V30 END CTAB
M  END
