
     RDKit          3D

  0  0  0  0  0  0  0  0  0  0999 V3000
M  V30 BEGIN CTAB
M  V30 COUNTS 24 24 0 0 0
M  V30 BEGIN ATOM
M  V30 1 C -2.54844 -0.908561 -0.801987 0
M  V30 2 C -1.62396 -1.38886 0.296773 0
M  V30 3 C -1.35078 -0.345289 1.31424 0
M  V30 4 C -0.727298 0.912112 0.856071 0 CFG=2
M  V30 5 C 0.60167 0.76444 0.245254 0
M  V30 6 N 1.42756 1.78637 -0.0891159 0
M  V30 7 N 2.55242 1.32573 -0.607112 0
M  V30 8 C 2.45446 -0.0177882 -0.608769 0
M  V30 9 N 1.26508 -0.339341 -0.0883869 0
M  V30 10 N 3.46027 -0.892834 -1.0876 0
M  V30 11 N -0.608322 1.85705 1.97425 0
M  V30 12 H -2.25491 0.0808847 -1.15163 0
M  V30 13 H -3.58463 -0.982292 -0.441174 0
M  V30 14 H -2.43391 -1.61343 -1.64434 0
M  V30 15 H -2.18259 -2.21069 0.826961 0
M  V30 16 H -0.725977 -1.8184 -0.128044 0
M  V30 17 H -2.28327 -0.0711708 1.88638 0
M  V30 18 H -0.66049 -0.828422 2.07459 0
M  V30 19 H -1.35095 1.44109 0.0701978 0
M  V30 20 H 3.35324 1.92189 -0.944644 0
M  V30 21 H 3.20823 -1.6582 -1.75815 0
M  V30 22 H 4.45609 -0.748607 -0.750294 0
M  V30 23 H 0.283311 2.40068 1.92135 0
M  V30 24 H -0.726829 1.33365 2.84946 0
M  V30 END ATOM
M  V30 BEGIN BOND
M  V30 1 1 1 2
M  V30 2 1 2 3
M  V30 3 1 3 4
M  V30 4 1 4 5
M  V30 5 2 5 6
M  V30 6 1 6 7
M  V30 7 1 7 8
M  V30 8 2 8 9
M  V30 9 1 8 10
M  V30 10 1 4 11
M  V30 11 1 9 5
M  V30 12 1 1 12
M  V30 13 1 1 13
M  V30 14 1 1 14
M  V30 15 1 2 15
M  V30 16 1 2 16
M  V30 17 1 3 17
M  V30 18 1 3 18
M  V30 19 1 4 19 CFG=3
M  V30 20 1 7 20
M  V30 21 1 10 21
M  V30 22 1 10 22
M  V30 23 1 11 23
M  V30 24 1 11 24
M  V30 END BOND
M  V30 END CTAB
M  END
