
     RDKit          3D

  0  0  0  0  0  0  0  0  0  0999 V3000
M  V30 BEGIN CTAB
M  V30 COUNTS 57 60 0 0 0
M  V30 BEGIN ATOM
M  V30 1 N -9.10934 -1.35118 -1.01377 0
M  V30 2 C -7.93656 -0.583815 -1.16743 0
M  V30 3 C -7.74775 0.581607 -0.449467 0
M  V30 4 C -6.58945 1.30067 -0.628114 0
M  V30 5 C -5.65057 0.846954 -1.51182 0
M  V30 6 O -4.43943 1.52259 -1.75283 0
M  V30 7 C -3.39562 1.1251 -0.905931 0
M  V30 8 C -2.55383 0.0905024 -1.24509 0
M  V30 9 C -1.50174 -0.334675 -0.425466 0
M  V30 10 C -1.2922 0.303638 0.774922 0
M  V30 11 C -2.10539 1.32722 1.13546 0
M  V30 12 C -3.15781 1.74348 0.302286 0
M  V30 13 C -0.176404 -0.16555 1.62833 0
M  V30 14 C 1.05269 -0.27061 0.818997 0
M  V30 15 C 1.78391 -1.40934 0.775827 0
M  V30 16 C 2.95207 -1.5315 0.00586087 0
M  V30 17 C 3.35044 -0.44232 -0.72404 0
M  V30 18 O 4.52392 -0.581399 -1.49057 0
M  V30 19 C 5.76301 -0.277577 -0.981908 0
M  V30 20 C 6.26374 0.992149 -1.1166 0
M  V30 21 C 7.52432 1.26398 -0.588002 0
M  V30 22 C 8.25684 0.300853 0.0516919 0
M  V30 23 N 9.53578 0.647294 0.566738 0
M  V30 24 C 7.73884 -0.956225 0.17426 0
M  V30 25 C 6.51332 -1.25117 -0.330452 0
M  V30 26 C 2.62818 0.730388 -0.701628 0
M  V30 27 C 1.48731 0.805171 0.0685712 0
M  V30 28 C 0.151495 0.777973 2.74487 0
M  V30 29 F 1.23175 0.343109 3.5054 0
M  V30 30 F 0.399384 2.05776 2.39549 0
M  V30 31 F -0.877106 0.841669 3.71402 0
M  V30 32 C -0.609829 -1.51287 2.12511 0
M  V30 33 F -1.84704 -1.36352 2.83219 0
M  V30 34 F 0.174163 -2.06129 3.11836 0
M  V30 35 F -0.866355 -2.44937 1.19169 0
M  V30 36 C -5.83318 -0.315758 -2.23159 0
M  V30 37 C -6.98364 -1.04952 -2.06797 0
M  V30 38 H -9.79233 -1.4082 -1.78522 0
M  V30 39 H -9.29456 -1.85931 -0.1345 0
M  V30 40 H -8.50454 0.913015 0.23856 0
M  V30 41 H -6.39532 2.21937 -0.0891963 0
M  V30 42 H -2.71633 -0.420227 -2.19773 0
M  V30 43 H -0.905447 -1.15291 -0.818753 0
M  V30 44 H -2.03382 1.90464 2.03998 0
M  V30 45 H -3.81005 2.55789 0.582295 0
M  V30 46 H 1.5489 -2.32163 1.31075 0
M  V30 47 H 3.51559 -2.4508 -0.00997209 0
M  V30 48 H 5.68052 1.75196 -1.62406 0
M  V30 49 H 7.91103 2.27328 -0.700446 0
M  V30 50 H 10.2801 0.893644 -0.130644 0
M  V30 51 H 9.76779 0.668681 1.58156 0
M  V30 52 H 8.32748 -1.7091 0.682119 0
M  V30 53 H 6.09817 -2.25481 -0.23325 0
M  V30 54 H 2.96714 1.58951 -1.29466 0
M  V30 55 H 0.945431 1.75911 0.0443096 0
M  V30 56 H -5.0794 -0.673558 -2.93663 0
M  V30 57 H -7.16831 -1.97494 -2.61718 0
M  V30 END ATOM
M  V30 BEGIN BOND
M  V30 1 1 1 2
M  V30 2 2 2 3
M  V30 3 1 3 4
M  V30 4 2 4 5
M  V30 5 1 5 6
M  V30 6 1 6 7
M  V30 7 2 7 8
M  V30 8 1 8 9
M  V30 9 2 9 10
M  V30 10 1 10 11
M  V30 11 2 11 12
M  V30 12 1 10 13
M  V30 13 1 13 14
M  V30 14 2 14 15
M  V30 15 1 15 16
M  V30 16 2 16 17
M  V30 17 1 17 18
M  V30 18 1 18 19
M  V30 19 2 19 20
M  V30 20 1 20 21
M  V30 21 2 21 22
M  V30 22 1 22 23
M  V30 23 1 22 24
M  V30 24 2 24 25
M  V30 25 1 17 26
M  V30 26 2 26 27
M  V30 27 1 13 28
M  V30 28 1 28 29
M  V30 29 1 28 30
M  V30 30 1 28 31
M  V30 31 1 13 32
M  V30 32 1 32 33
M  V30 33 1 32 34
M  V30 34 1 32 35
M  V30 35 1 5 36
M  V30 36 2 36 37
M  V30 37 1 37 2
M  V30 38 1 12 7
M  V30 39 1 27 14
M  V30 40 1 25 19
M  V30 41 1 1 38
M  V30 42 1 1 39
M  V30 43 1 3 40
M  V30 44 1 4 41
M  V30 45 1 8 42
M  V30 46 1 9 43
M  V30 47 1 11 44
M  V30 48 1 12 45
M  V30 49 1 15 46
M  V30 50 1 16 47
M  V30 51 1 20 48
M  V30 52 1 21 49
M  V30 53 1 23 50
M  V30 54 1 23 51
M  V30 55 1 24 52
M  V30 56 1 25 53
M  V30 57 1 26 54
M  V30 58 1 27 55
M  V30 59 1 36 56
M  V30 60 1 37 57
M  V30 END BOND
M  V30 END CTAB
M  END
