
     RDKit          3D

  0  0  0  0  0  0  0  0  0  0999 V3000
M  V30 BEGIN CTAB
M  V30 COUNTS 152 158 0 0 0
M  V30 BEGIN ATOM
M  V30 1 C 17.5897 -1.54647 -0.51637 0
M  V30 2 C 17.4799 -2.06942 0.909921 0
M  V30 3 S 16.7039 -0.945159 2.01046 0
M  V30 4 C 15.0142 -0.51871 1.757 0
M  V30 5 S 13.7808 -1.69775 2.11388 0
M  V30 6 C 13.5635 -3.17704 1.22594 0
M  V30 7 C 14.5538 -4.28577 1.42068 0
M  V30 8 C 14.8001 0.23562 0.432778 0 CFG=2
M  V30 9 C 15.6347 1.50007 0.437291 0
M  V30 10 C 14.9596 2.38404 1.44041 0
M  V30 11 C 13.5037 1.94599 1.33444 0
M  V30 12 N 13.4371 0.833112 0.43188 0
M  V30 13 C 12.4027 0.369633 -0.403078 0
M  V30 14 O 12.7284 -0.565759 -1.23162 0
M  V30 15 C 11.043 0.825586 -0.434611 0
M  V30 16 C 10.2382 0.335693 -1.49106 0
M  V30 17 N 10.8066 -0.550356 -2.45075 0
M  V30 18 C 8.9204 0.703766 -1.59873 0
M  V30 19 C 8.32804 1.54901 -0.704456 0
M  V30 20 O 7.04065 1.97557 -0.741573 0
M  V30 21 C 5.99888 1.75402 -1.58517 0
M  V30 22 C 5.40884 0.410326 -1.75636 0
M  V30 23 C 4.77032 -0.167377 -0.510492 0
M  V30 24 C 4.11505 -1.52197 -0.786805 0
M  V30 25 C 3.07878 -1.33488 -1.90502 0
M  V30 26 O 2.13531 -0.396488 -1.63395 0
M  V30 27 C 1.16513 -0.316903 -0.726274 0
M  V30 28 C 0.8564 -1.28728 0.199668 0
M  V30 29 C -0.161852 -1.16686 1.12138 0
M  V30 30 C -0.927992 -0.0213205 1.14042 0
M  V30 31 O -1.95046 0.224623 2.00192 0
M  V30 32 C -2.58287 -0.460493 2.99907 0
M  V30 33 C -3.38481 -1.6658 2.47601 0
M  V30 34 C -4.4039 -1.15327 1.46376 0
M  V30 35 C -5.35459 -0.131831 2.05301 0
M  V30 36 C -6.23698 -0.643534 3.13142 0
M  V30 37 O -7.19588 -1.59229 2.74413 0
M  V30 38 C -8.28389 -1.28114 1.92233 0
M  V30 39 C -8.49164 0.0196504 1.53123 0
M  V30 40 C -9.54487 0.357909 0.713821 0
M  V30 41 N -9.71195 1.72363 0.319438 0
M  V30 42 C -10.4452 -0.636764 0.256447 0
M  V30 43 C -10.2445 -1.9297 0.64601 0
M  V30 44 C -9.15667 -2.22303 1.47824 0
M  V30 45 O -8.98983 -3.55327 1.85079 0
M  V30 46 C -9.85681 -4.574 1.43004 0
M  V30 47 C -11.5269 -0.213069 -0.570194 0
M  V30 48 O -11.6332 1.09664 -0.732147 0
M  V30 49 N -12.5368 -0.913897 -1.27568 0
M  V30 50 C -12.826 -2.29086 -1.44917 0
M  V30 51 C -13.3663 -2.42304 -2.89173 0
M  V30 52 C -14.051 -1.11933 -3.07897 0
M  V30 53 C -13.6159 -0.189186 -2.0267 0 CFG=1
M  V30 54 C -14.6889 0.290036 -1.08234 0
M  V30 55 S -15.5464 -1.00562 -0.202841 0
M  V30 56 C -16.7329 -0.281205 0.953763 0
M  V30 57 C -16.0657 0.473285 2.08618 0
M  V30 58 S -15.7963 1.50761 -1.72264 0
M  V30 59 C -16.8599 1.0001 -3.06794 0
M  V30 60 C -17.8829 0.0156038 -2.58186 0
M  V30 61 C -0.621135 0.983034 0.194182 0
M  V30 62 C 0.381285 0.868221 -0.718282 0
M  V30 63 C 0.677741 1.91302 -1.69693 0
M  V30 64 O 1.61619 1.72932 -2.50097 0
M  V30 65 C -0.12772 3.12427 -1.69895 0
M  V30 66 C 0.114676 4.14847 -2.61724 0
M  V30 67 C -0.635117 5.30369 -2.64572 0
M  V30 68 C -1.6558 5.40701 -1.70775 0
M  V30 69 C -1.89593 4.39669 -0.800055 0
M  V30 70 C -1.14314 3.23727 -0.772556 0
M  V30 71 C -1.45103 2.2087 0.206363 0
M  V30 72 O -2.36706 2.30488 1.04478 0
M  V30 73 C 9.11695 2.02743 0.335549 0
M  V30 74 O 8.56133 2.88716 1.27015 0
M  V30 75 C 9.3572 3.37382 2.3214 0
M  V30 76 C 10.4554 1.66208 0.4585 0
M  V30 77 H 18.4791 -2.03742 -0.983393 0
M  V30 78 H 17.8164 -0.477544 -0.502937 0
M  V30 79 H 16.7098 -1.82136 -1.12973 0
M  V30 80 H 17.1478 -3.09786 0.946127 0
M  V30 81 H 18.5918 -2.16436 1.25672 0
M  V30 82 H 14.8214 0.365302 2.51079 0
M  V30 83 H 12.4985 -3.56772 1.34634 0
M  V30 84 H 13.5566 -2.92098 0.103684 0
M  V30 85 H 13.973 -5.23356 1.58836 0
M  V30 86 H 15.183 -4.04135 2.30635 0
M  V30 87 H 15.195 -4.3846 0.502117 0
M  V30 88 H 14.9804 -0.414528 -0.386381 0
M  V30 89 H 15.5415 1.94342 -0.568707 0
M  V30 90 H 16.6825 1.32113 0.741408 0
M  V30 91 H 15.0626 3.47518 1.16922 0
M  V30 92 H 15.3583 2.31162 2.46526 0
M  V30 93 H 12.9609 2.84229 0.894444 0
M  V30 94 H 13.1452 1.77298 2.34299 0
M  V30 95 H 11.3757 -0.285805 -3.25636 0
M  V30 96 H 10.6084 -1.56686 -2.30572 0
M  V30 97 H 8.31829 0.306557 -2.43901 0
M  V30 98 H 6.18759 2.16036 -2.62813 0
M  V30 99 H 5.13935 2.41668 -1.2104 0
M  V30 100 H 4.54319 0.535984 -2.48039 0
M  V30 101 H 6.05316 -0.341098 -2.26459 0
M  V30 102 H 5.54513 -0.315333 0.280698 0
M  V30 103 H 3.9746 0.52025 -0.192387 0
M  V30 104 H 3.72825 -1.95065 0.11887 0
M  V30 105 H 4.90358 -2.18219 -1.19954 0
M  V30 106 H 3.58159 -1.16717 -2.87421 0
M  V30 107 H 2.57211 -2.35036 -2.04355 0
M  V30 108 H 1.41249 -2.22549 0.248089 0
M  V30 109 H -0.377742 -1.94533 1.84615 0
M  V30 110 H -3.19218 0.180438 3.66215 0
M  V30 111 H -1.78039 -0.864646 3.70688 0
M  V30 112 H -2.68403 -2.30984 1.93381 0
M  V30 113 H -3.83062 -2.23622 3.29662 0
M  V30 114 H -5.01892 -1.98542 1.07061 0
M  V30 115 H -3.85407 -0.712755 0.633626 0
M  V30 116 H -5.86372 0.354124 1.22204 0
M  V30 117 H -4.70251 0.68149 2.49431 0
M  V30 118 H -5.67954 -1.01159 4.01888 0
M  V30 119 H -6.81353 0.239492 3.53574 0
M  V30 120 H -7.83515 0.830871 1.90699 0
M  V30 121 H -10.2415 2.32202 0.987131 0
M  V30 122 H -9.30613 2.03319 -0.587132 0
M  V30 123 H -10.9154 -2.70862 0.346415 0
M  V30 124 H -10.0245 -4.55257 0.311639 0
M  V30 125 H -10.8374 -4.56844 1.93915 0
M  V30 126 H -9.3553 -5.54666 1.63636 0
M  V30 127 H -13.5392 -2.72872 -0.740711 0
M  V30 128 H -11.9454 -2.97699 -1.47764 0
M  V30 129 H -14.0327 -3.31555 -2.94752 0
M  V30 130 H -12.5026 -2.56176 -3.58689 0
M  V30 131 H -15.1394 -1.31817 -3.1242 0
M  V30 132 H -13.798 -0.750851 -4.11888 0
M  V30 133 H -13.0869 0.665279 -2.49592 0
M  V30 134 H -14.0776 0.837647 -0.26315 0
M  V30 135 H -17.2764 -1.14317 1.43414 0
M  V30 136 H -17.5036 0.336931 0.497393 0
M  V30 137 H -16.6079 0.320898 3.05504 0
M  V30 138 H -16.1832 1.57041 1.86582 0
M  V30 139 H -15.0209 0.186687 2.25138 0
M  V30 140 H -16.2921 0.605046 -3.94155 0
M  V30 141 H -17.4013 1.89536 -3.49798 0
M  V30 142 H -18.4363 0.442941 -1.69573 0
M  V30 143 H -18.6779 -0.0999298 -3.36369 0
M  V30 144 H -17.4689 -0.944645 -2.27578 0
M  V30 145 H 0.911672 4.04766 -3.33821 0
M  V30 146 H -0.42348 6.07728 -3.37054 0
M  V30 147 H -2.24601 6.32324 -1.73538 0
M  V30 148 H -2.70773 4.52183 -0.0857674 0
M  V30 149 H 8.81459 4.10646 2.93877 0
M  V30 150 H 10.2732 3.84895 1.87796 0
M  V30 151 H 9.65085 2.49707 2.96227 0
M  V30 152 H 10.9951 2.03739 1.31171 0
M  V30 END ATOM
M  V30 BEGIN BOND
M  V30 1 1 1 2
M  V30 2 1 2 3
M  V30 3 1 3 4
M  V30 4 1 4 5
M  V30 5 1 5 6
M  V30 6 1 6 7
M  V30 7 1 4 8
M  V30 8 1 8 9
M  V30 9 1 9 10
M  V30 10 1 10 11
M  V30 11 1 11 12
M  V30 12 1 12 13
M  V30 13 2 13 14
M  V30 14 1 13 15
M  V30 15 2 15 16
M  V30 16 1 16 17
M  V30 17 1 16 18
M  V30 18 2 18 19
M  V30 19 1 19 20
M  V30 20 1 20 21
M  V30 21 1 21 22
M  V30 22 1 22 23
M  V30 23 1 23 24
M  V30 24 1 24 25
M  V30 25 1 25 26
M  V30 26 1 26 27
M  V30 27 2 27 28
M  V30 28 1 28 29
M  V30 29 2 29 30
M  V30 30 1 30 31
M  V30 31 1 31 32
M  V30 32 1 32 33
M  V30 33 1 33 34
M  V30 34 1 34 35
M  V30 35 1 35 36
M  V30 36 1 36 37
M  V30 37 1 37 38
M  V30 38 2 38 39
M  V30 39 1 39 40
M  V30 40 1 40 41
M  V30 41 2 40 42
M  V30 42 1 42 43
M  V30 43 2 43 44
M  V30 44 1 44 45
M  V30 45 1 45 46
M  V30 46 1 42 47
M  V30 47 2 47 48
M  V30 48 1 47 49
M  V30 49 1 49 50
M  V30 50 1 50 51
M  V30 51 1 51 52
M  V30 52 1 52 53
M  V30 53 1 53 54
M  V30 54 1 54 55
M  V30 55 1 55 56
M  V30 56 1 56 57
M  V30 57 1 54 58
M  V30 58 1 58 59
M  V30 59 1 59 60
M  V30 60 1 30 61
M  V30 61 2 61 62
M  V30 62 1 62 63
M  V30 63 2 63 64
M  V30 64 1 63 65
M  V30 65 2 65 66
M  V30 66 1 66 67
M  V30 67 2 67 68
M  V30 68 1 68 69
M  V30 69 2 69 70
M  V30 70 1 70 71
M  V30 71 2 71 72
M  V30 72 1 19 73
M  V30 73 1 73 74
M  V30 74 1 74 75
M  V30 75 2 73 76
M  V30 76 1 12 8
M  V30 77 1 76 15
M  V30 78 1 62 27
M  V30 79 1 70 65
M  V30 80 1 44 38
M  V30 81 1 53 49
M  V30 82 1 71 61
M  V30 83 1 1 77
M  V30 84 1 1 78
M  V30 85 1 1 79
M  V30 86 1 2 80
M  V30 87 1 2 81
M  V30 88 1 4 82
M  V30 89 1 6 83
M  V30 90 1 6 84
M  V30 91 1 7 85
M  V30 92 1 7 86
M  V30 93 1 7 87
M  V30 94 1 8 88 CFG=3
M  V30 95 1 9 89
M  V30 96 1 9 90
M  V30 97 1 10 91
M  V30 98 1 10 92
M  V30 99 1 11 93
M  V30 100 1 11 94
M  V30 101 1 17 95
M  V30 102 1 17 96
M  V30 103 1 18 97
M  V30 104 1 21 98
M  V30 105 1 21 99
M  V30 106 1 22 100
M  V30 107 1 22 101
M  V30 108 1 23 102
M  V30 109 1 23 103
M  V30 110 1 24 104
M  V30 111 1 24 105
M  V30 112 1 25 106
M  V30 113 1 25 107
M  V30 114 1 28 108
M  V30 115 1 29 109
M  V30 116 1 32 110
M  V30 117 1 32 111
M  V30 118 1 33 112
M  V30 119 1 33 113
M  V30 120 1 34 114
M  V30 121 1 34 115
M  V30 122 1 35 116
M  V30 123 1 35 117
M  V30 124 1 36 118
M  V30 125 1 36 119
M  V30 126 1 39 120
M  V30 127 1 41 121
M  V30 128 1 41 122
M  V30 129 1 43 123
M  V30 130 1 46 124
M  V30 131 1 46 125
M  V30 132 1 46 126
M  V30 133 1 50 127
M  V30 134 1 50 128
M  V30 135 1 51 129
M  V30 136 1 51 130
M  V30 137 1 52 131
M  V30 138 1 52 132
M  V30 139 1 53 133 CFG=3
M  V30 140 1 54 134
M  V30 141 1 56 135
M  V30 142 1 56 136
M  V30 143 1 57 137
M  V30 144 1 57 138
M  V30 145 1 57 139
M  V30 146 1 59 140
M  V30 147 1 59 141
M  V30 148 1 60 142
M  V30 149 1 60 143
M  V30 150 1 60 144
M  V30 151 1 66 145
M  V30 152 1 67 146
M  V30 153 1 68 147
M  V30 154 1 69 148
M  V30 155 1 75 149
M  V30 156 1 75 150
M  V30 157 1 75 151
M  V30 158 1 76 152
M  V30 END BOND
M  V30 END CTAB
M  END
