
     RDKit          3D

  0  0  0  0  0  0  0  0  0  0999 V3000
M  V30 BEGIN CTAB
M  V30 COUNTS 40 43 0 0 0
M  V30 BEGIN ATOM
M  V30 1 N 5.26876 0.919133 -0.772515 0
M  V30 2 C 4.26137 0.0226487 -0.311784 0
M  V30 3 N 4.5213 -1.28105 -0.100808 0
M  V30 4 C 3.56373 -2.12684 0.335861 0
M  V30 5 N 3.93719 -3.49645 0.530812 0
M  V30 6 N 2.33055 -1.67359 0.566722 0
M  V30 7 C 1.9749 -0.381489 0.383719 0
M  V30 8 C 2.95948 0.471895 -0.0617685 0
M  V30 9 N 0.654949 0.0772541 0.636514 0
M  V30 10 C 0.233854 1.44781 0.45379 0
M  V30 11 C -1.25243 1.42105 0.355447 0 CFG=2
M  V30 12 C -1.62648 0.199136 1.19169 0 CFG=2
M  V30 13 C -0.469817 -0.72712 1.1091 0
M  V30 14 C -2.90153 -0.346417 0.610966 0 CFG=2
M  V30 15 C -2.63812 -1.07074 -0.712368 0
M  V30 16 C -1.7249 -0.191171 -1.51318 0
M  V30 17 C -1.78893 1.25879 -1.02496 0 CFG=1
M  V30 18 C -3.2898 1.5791 -0.954383 0
M  V30 19 C -3.79443 0.841383 0.288743 0
M  V30 20 H 5.67569 1.58013 -0.063084 0
M  V30 21 H 5.61272 0.950327 -1.75347 0
M  V30 22 H 3.91678 -4.0828 -0.355734 0
M  V30 23 H 4.20546 -3.89102 1.45147 0
M  V30 24 H 2.72293 1.51779 -0.223566 0
M  V30 25 H 0.490358 1.97585 1.41857 0
M  V30 26 H 0.737866 1.96506 -0.366846 0
M  V30 27 H -1.72733 2.29882 0.858691 0
M  V30 28 H -1.84133 0.489504 2.24659 0
M  V30 29 H -0.618444 -1.63377 0.526133 0
M  V30 30 H -0.199765 -1.06232 2.15057 0
M  V30 31 H -3.46163 -0.995593 1.30237 0
M  V30 32 H -3.65899 -1.16463 -1.18646 0
M  V30 33 H -2.27934 -2.09147 -0.566391 0
M  V30 34 H -2.15592 -0.154243 -2.55678 0
M  V30 35 H -0.705912 -0.555517 -1.61721 0
M  V30 36 H -1.27953 1.87099 -1.78629 0
M  V30 37 H -3.34986 2.67889 -0.822838 0
M  V30 38 H -3.80195 1.22073 -1.86925 0
M  V30 39 H -3.66101 1.58393 1.12771 0
M  V30 40 H -4.84042 0.556025 0.154493 0
M  V30 END ATOM
M  V30 BEGIN BOND
M  V30 1 1 1 2
M  V30 2 2 2 3
M  V30 3 1 3 4
M  V30 4 1 4 5
M  V30 5 2 4 6
M  V30 6 1 6 7
M  V30 7 2 7 8
M  V30 8 1 7 9
M  V30 9 1 9 10
M  V30 10 1 10 11
M  V30 11 1 11 12
M  V30 12 1 12 13
M  V30 13 1 12 14
M  V30 14 1 14 15
M  V30 15 1 15 16
M  V30 16 1 16 17
M  V30 17 1 17 18
M  V30 18 1 18 19
M  V30 19 1 8 2
M  V30 20 1 13 9
M  V30 21 1 19 14
M  V30 22 1 17 11
M  V30 23 1 1 20
M  V30 24 1 1 21
M  V30 25 1 5 22
M  V30 26 1 5 23
M  V30 27 1 8 24
M  V30 28 1 10 25
M  V30 29 1 10 26
M  V30 30 1 11 27 CFG=1
M  V30 31 1 12 28 CFG=1
M  V30 32 1 13 29
M  V30 33 1 13 30
M  V30 34 1 14 31 CFG=1
M  V30 35 1 15 32
M  V30 36 1 15 33
M  V30 37 1 16 34
M  V30 38 1 16 35
M  V30 39 1 17 36 CFG=3
M  V30 40 1 18 37
M  V30 41 1 18 38
M  V30 42 1 19 39
M  V30 43 1 19 40
M  V30 END BOND
M  V30 END CTAB
M  END
