
     RDKit          3D

  0  0  0  0  0  0  0  0  0  0999 V3000
M  V30 BEGIN CTAB
M  V30 COUNTS 38 40 0 0 0
M  V30 BEGIN ATOM
M  V30 1 N 2.56515 0.0100113 -1.21019 0
M  V30 2 C 2.27017 0.42839 0.133583 0
M  V30 3 C 3.29679 0.761048 0.98992 0
M  V30 4 C 3.05759 1.17107 2.27776 0
M  V30 5 C 1.758 1.25433 2.73247 0
M  V30 6 C 0.751908 0.918574 1.86381 0
M  V30 7 C 0.953258 0.50233 0.563233 0
M  V30 8 C -0.19303 0.143599 -0.31091 0 CFG=1
M  V30 9 C -0.501742 -1.28321 -0.269389 0
M  V30 10 C 0.341177 -2.24167 0.258989 0
M  V30 11 C -0.0458235 -3.58361 0.244088 0
M  V30 12 C -1.23651 -4.01464 -0.274004 0
M  V30 13 C -2.07396 -3.03886 -0.801412 0
M  V30 14 C -1.70547 -1.71798 -0.792552 0
M  V30 15 C -2.58695 -0.648396 -1.33566 0
M  V30 16 C -2.58157 0.53549 -0.398373 0
M  V30 17 N -1.2789 1.04542 -0.121494 0
M  V30 18 S -1.07099 2.55872 -0.910089 0
M  V30 19 O -0.971676 2.43615 -2.38199 0
M  V30 20 O -2.25135 3.43357 -0.530033 0
M  V30 21 N 0.332207 3.30558 -0.238816 0
M  V30 22 H 2.81427 -0.990775 -1.35532 0
M  V30 23 H 2.53453 0.667545 -2.00922 0
M  V30 24 H 4.34736 0.70976 0.671267 0
M  V30 25 H 3.88625 1.43435 2.95299 0
M  V30 26 H 1.55725 1.57283 3.73493 0
M  V30 27 H -0.271074 0.98937 2.23774 0
M  V30 28 H 0.19818 0.358994 -1.36124 0
M  V30 29 H 1.29431 -1.97423 0.688563 0
M  V30 30 H 0.649625 -4.28912 0.668921 0
M  V30 31 H -1.51173 -5.04162 -0.275525 0
M  V30 32 H -3.03316 -3.3285 -1.22601 0
M  V30 33 H -3.61967 -1.0539 -1.34459 0
M  V30 34 H -2.26807 -0.402892 -2.3516 0
M  V30 35 H -3.078 0.253904 0.543971 0
M  V30 36 H -3.18999 1.33 -0.871239 0
M  V30 37 H 0.110501 3.77097 0.682174 0
M  V30 38 H 0.751131 4.0174 -0.874764 0
M  V30 END ATOM
M  V30 BEGIN BOND
M  V30 1 1 1 2
M  V30 2 2 2 3
M  V30 3 1 3 4
M  V30 4 2 4 5
M  V30 5 1 5 6
M  V30 6 2 6 7
M  V30 7 1 7 8
M  V30 8 1 8 9
M  V30 9 2 9 10
M  V30 10 1 10 11
M  V30 11 2 11 12
M  V30 12 1 12 13
M  V30 13 2 13 14
M  V30 14 1 14 15
M  V30 15 1 15 16
M  V30 16 1 16 17
M  V30 17 1 17 18
M  V30 18 2 18 19
M  V30 19 2 18 20
M  V30 20 1 18 21
M  V30 21 1 7 2
M  V30 22 1 17 8
M  V30 23 1 14 9
M  V30 24 1 1 22
M  V30 25 1 1 23
M  V30 26 1 3 24
M  V30 27 1 4 25
M  V30 28 1 5 26
M  V30 29 1 6 27
M  V30 30 1 8 28 CFG=3
M  V30 31 1 10 29
M  V30 32 1 11 30
M  V30 33 1 12 31
M  V30 34 1 13 32
M  V30 35 1 15 33
M  V30 36 1 15 34
M  V30 37 1 16 35
M  V30 38 1 16 36
M  V30 39 1 21 37
M  V30 40 1 21 38
M  V30 END BOND
M  V30 END CTAB
M  END
