
     RDKit          3D

  0  0  0  0  0  0  0  0  0  0999 V3000
M  V30 BEGIN CTAB
M  V30 COUNTS 24 25 0 0 0
M  V30 BEGIN ATOM
M  V30 1 O -4.54391 0.260044 -1.10139 0
M  V30 2 N -3.98184 0.186923 0.0265365 0
M  V30 3 C -2.55622 0.116716 0.0360095 0
M  V30 4 C -1.90891 -0.991798 0.55845 0
M  V30 5 N -2.74228 -2.03235 1.07341 0
M  V30 6 N -0.568366 -1.08953 0.582625 0
M  V30 7 C 0.198512 -0.0999435 0.0933059 0
M  V30 8 N -0.415041 0.983337 -0.417566 0
M  V30 9 C -1.75156 1.11839 -0.459771 0
M  V30 10 N -2.38637 2.27507 -1.0056 0
M  V30 11 C 1.66807 -0.189387 0.111276 0
M  V30 12 C 2.45519 0.822618 -0.389214 0
M  V30 13 C 3.83409 0.68219 -0.345179 0
M  V30 14 C 4.45128 -0.434821 0.181862 0
M  V30 15 N 3.65182 -1.40453 0.662205 0
M  V30 16 C 2.294 -1.2982 0.634224 0
M  V30 17 H -2.51945 -2.57176 1.92414 0
M  V30 18 H -3.62712 -2.25971 0.559428 0
M  V30 19 H -1.81442 2.87938 -1.63665 0
M  V30 20 H -3.36107 2.50288 -0.787868 0
M  V30 21 H 1.9671 1.68813 -0.797415 0
M  V30 22 H 4.46166 1.48872 -0.744046 0
M  V30 23 H 5.53856 -0.535728 0.211848 0
M  V30 24 H 1.65627 -2.09665 1.02939 0
M  V30 END ATOM
M  V30 BEGIN BOND
M  V30 1 2 1 2
M  V30 2 1 2 3
M  V30 3 2 3 4
M  V30 4 1 4 5
M  V30 5 1 4 6
M  V30 6 2 6 7
M  V30 7 1 7 8
M  V30 8 2 8 9
M  V30 9 1 9 10
M  V30 10 1 7 11
M  V30 11 2 11 12
M  V30 12 1 12 13
M  V30 13 2 13 14
M  V30 14 1 14 15
M  V30 15 2 15 16
M  V30 16 1 9 3
M  V30 17 1 16 11
M  V30 18 1 5 17
M  V30 19 1 5 18
M  V30 20 1 10 19
M  V30 21 1 10 20
M  V30 22 1 12 21
M  V30 23 1 13 22
M  V30 24 1 14 23
M  V30 25 1 16 24
M  V30 END BOND
M  V30 END CTAB
M  END
