
     RDKit          3D

  0  0  0  0  0  0  0  0  0  0999 V3000
M  V30 BEGIN CTAB
M  V30 COUNTS 22 23 0 0 0
M  V30 BEGIN ATOM
M  V30 1 C -2.67508 -2.12433 0.445228 0
M  V30 2 S -0.905091 -1.89772 0.300149 0
M  V30 3 C -0.541216 -0.176907 0.053865 0
M  V30 4 N -1.54279 0.681402 0.00839991 0
M  V30 5 C -1.45617 2.0089 -0.168878 0
M  V30 6 N -2.59953 2.85137 -0.20301 0
M  V30 7 N -0.202945 2.48375 -0.312212 0
M  V30 8 C 0.876718 1.6476 -0.274714 0
M  V30 9 C 0.775546 0.297335 -0.0935437 0
M  V30 10 C 1.91673 -0.410624 -0.0766771 0
M  V30 11 N 2.0053 -1.85437 0.104164 0
M  V30 12 C 3.09112 0.277688 -0.242482 0
M  V30 13 S 2.55612 1.89312 -0.416317 0
M  V30 14 C 4.45672 -0.239622 -0.264956 0
M  V30 15 N 5.54189 -0.628612 -0.286369 0
M  V30 16 H -3.15515 -1.30593 1.04945 0
M  V30 17 H -2.9493 -3.06577 0.997034 0
M  V30 18 H -3.15921 -2.08078 -0.552026 0
M  V30 19 H -2.69949 3.67832 0.429997 0
M  V30 20 H -3.39956 2.66888 -0.878634 0
M  V30 21 H 1.90892 -2.21743 1.06961 0
M  V30 22 H 2.15644 -2.48628 -0.688076 0
M  V30 END ATOM
M  V30 BEGIN BOND
M  V30 1 1 1 2
M  V30 2 1 2 3
M  V30 3 2 3 4
M  V30 4 1 4 5
M  V30 5 1 5 6
M  V30 6 2 5 7
M  V30 7 1 7 8
M  V30 8 2 8 9
M  V30 9 1 9 10
M  V30 10 1 10 11
M  V30 11 2 10 12
M  V30 12 1 12 13
M  V30 13 1 12 14
M  V30 14 3 14 15
M  V30 15 1 9 3
M  V30 16 1 13 8
M  V30 17 1 1 16
M  V30 18 1 1 17
M  V30 19 1 1 18
M  V30 20 1 6 19
M  V30 21 1 6 20
M  V30 22 1 11 21
M  V30 23 1 11 22
M  V30 END BOND
M  V30 END CTAB
M  END
