
     RDKit          3D

  0  0  0  0  0  0  0  0  0  0999 V3000
M  V30 BEGIN CTAB
M  V30 COUNTS 48 51 0 0 0
M  V30 BEGIN ATOM
M  V30 1 N -4.18362 -0.859645 -2.63583 0
M  V30 2 C -4.66325 0.324701 -2.05149 0 CFG=2
M  V30 3 C -3.62535 1.41957 -1.96709 0
M  V30 4 C -3.9718 1.54923 -0.480475 0 CFG=1
M  V30 5 C -4.78193 0.296533 -0.542277 0
M  V30 6 C -2.82159 1.58034 0.408853 0
M  V30 7 C -1.8284 0.627763 0.449027 0
M  V30 8 C -0.754384 0.71462 1.32297 0
M  V30 9 N -0.723763 1.77507 2.13455 0
M  V30 10 C -1.66447 2.7348 2.13924 0
M  V30 11 N -2.68334 2.60174 1.27245 0
M  V30 12 N -1.54464 3.81836 3.03639 0
M  V30 13 N 0.238581 -0.274554 1.33514 0
M  V30 14 C 0.159084 -1.39864 0.4363 0
M  V30 15 C 1.48711 -2.18241 0.468083 0
M  V30 16 N 2.57559 -1.2482 0.432488 0
M  V30 17 C 2.62635 -0.207541 1.44383 0
M  V30 18 C 1.34978 -0.184208 2.24109 0
M  V30 19 C 3.62612 -1.28221 -0.554264 0
M  V30 20 C 4.65271 -0.36616 -0.491042 0
M  V30 21 C 5.68418 -0.338609 -1.39747 0
M  V30 22 C 5.7208 -1.25127 -2.42214 0
M  V30 23 C 4.71007 -2.17848 -2.5118 0
M  V30 24 C 3.67388 -2.1898 -1.58341 0
M  V30 25 Cl 4.74222 -3.35752 -3.82368 0
M  V30 26 F 6.73332 -1.24501 -3.33432 0
M  V30 27 H -4.85659 -1.30445 -3.22467 0
M  V30 28 H -3.58446 -1.40379 -2.08254 0
M  V30 29 H -5.56096 0.702083 -2.57639 0
M  V30 30 H -3.82968 2.32716 -2.53911 0
M  V30 31 H -2.59076 1.01331 -2.09718 0
M  V30 32 H -4.63396 2.42448 -0.335562 0
M  V30 33 H -5.85264 0.410044 -0.255231 0
M  V30 34 H -4.35295 -0.613701 -0.134626 0
M  V30 35 H -1.90638 -0.203202 -0.227414 0
M  V30 36 H -1.75713 3.67298 4.03505 0
M  V30 37 H -1.24816 4.74382 2.69657 0
M  V30 38 H -0.654083 -2.10271 0.675271 0
M  V30 39 H 0.0860408 -0.981903 -0.594308 0
M  V30 40 H 1.42506 -2.89219 -0.346244 0
M  V30 41 H 1.48585 -2.67858 1.47727 0
M  V30 42 H 3.51953 -0.319682 2.0952 0
M  V30 43 H 2.77094 0.750268 0.879549 0
M  V30 44 H 1.39862 -1.03897 2.94857 0
M  V30 45 H 1.35013 0.764516 2.82411 0
M  V30 46 H 4.68629 0.391272 0.302611 0
M  V30 47 H 6.47096 0.38897 -1.32141 0
M  V30 48 H 2.90106 -2.92819 -1.68377 0
M  V30 END ATOM
M  V30 BEGIN BOND
M  V30 1 1 1 2
M  V30 2 1 2 3
M  V30 3 1 3 4
M  V30 4 1 4 5
M  V30 5 1 4 6
M  V30 6 2 6 7
M  V30 7 1 7 8
M  V30 8 2 8 9
M  V30 9 1 9 10
M  V30 10 2 10 11
M  V30 11 1 10 12
M  V30 12 1 8 13
M  V30 13 1 13 14
M  V30 14 1 14 15
M  V30 15 1 15 16
M  V30 16 1 16 17
M  V30 17 1 17 18
M  V30 18 1 16 19
M  V30 19 2 19 20
M  V30 20 1 20 21
M  V30 21 2 21 22
M  V30 22 1 22 23
M  V30 23 2 23 24
M  V30 24 1 23 25
M  V30 25 1 22 26
M  V30 26 1 5 2
M  V30 27 1 11 6
M  V30 28 1 18 13
M  V30 29 1 24 19
M  V30 30 1 1 27
M  V30 31 1 1 28
M  V30 32 1 2 29 CFG=3
M  V30 33 1 3 30
M  V30 34 1 3 31
M  V30 35 1 4 32 CFG=3
M  V30 36 1 5 33
M  V30 37 1 5 34
M  V30 38 1 7 35
M  V30 39 1 12 36
M  V30 40 1 12 37
M  V30 41 1 14 38
M  V30 42 1 14 39
M  V30 43 1 15 40
M  V30 44 1 15 41
M  V30 45 1 17 42
M  V30 46 1 17 43
M  V30 47 1 18 44
M  V30 48 1 18 45
M  V30 49 1 20 46
M  V30 50 1 21 47
M  V30 51 1 24 48
M  V30 END BOND
M  V30 END CTAB
M  END
