
     RDKit          3D

  0  0  0  0  0  0  0  0  0  0999 V3000
M  V30 BEGIN CTAB
M  V30 COUNTS 24 24 0 0 0
M  V30 BEGIN ATOM
M  V30 1 N 4.34291 -1.35244 0.65678 0
M  V30 2 C 3.48283 -0.811785 -0.100993 0
M  V30 3 N 3.87677 -0.355806 -1.37541 0
M  V30 4 N 2.12034 -0.659857 0.322284 0
M  V30 5 C 1.14336 -0.0562048 -0.514325 0
M  V30 6 O 1.50767 0.344297 -1.64413 0
M  V30 7 C -0.212409 0.0612665 -0.0154678 0
M  V30 8 N -0.577663 -0.377366 1.20272 0
M  V30 9 C -1.8422 -0.251227 1.62979 0
M  V30 10 Br -2.36498 -0.877599 3.36988 0
M  V30 11 C -2.83552 0.325975 0.863403 0
M  V30 12 C -4.2271 0.44804 1.37201 0
M  V30 13 N -2.4834 0.767891 -0.354903 0
M  V30 14 C -1.21631 0.642884 -0.786029 0
M  V30 15 N -0.811323 1.10452 -2.07981 0
M  V30 16 H 5.34459 -1.49965 0.427472 0
M  V30 17 H 4.10136 0.659737 -1.47507 0
M  V30 18 H 3.9246 -1.04314 -2.14631 0
M  V30 19 H 1.86335 -1.01717 1.29166 0
M  V30 20 H -4.89825 -0.319288 0.931153 0
M  V30 21 H -4.68577 1.43107 1.11289 0
M  V30 22 H -4.20743 0.326118 2.46854 0
M  V30 23 H -0.256371 1.96009 -2.23863 0
M  V30 24 H -1.08905 0.549649 -2.91751 0
M  V30 END ATOM
M  V30 BEGIN BOND
M  V30 1 2 1 2 CFG=2
M  V30 2 1 2 3
M  V30 3 1 2 4
M  V30 4 1 4 5
M  V30 5 2 5 6
M  V30 6 1 5 7
M  V30 7 2 7 8
M  V30 8 1 8 9
M  V30 9 1 9 10
M  V30 10 2 9 11
M  V30 11 1 11 12
M  V30 12 1 11 13
M  V30 13 2 13 14
M  V30 14 1 14 15
M  V30 15 1 14 7
M  V30 16 1 1 16
M  V30 17 1 3 17
M  V30 18 1 3 18
M  V30 19 1 4 19
M  V30 20 1 12 20
M  V30 21 1 12 21
M  V30 22 1 12 22
M  V30 23 1 15 23
M  V30 24 1 15 24
M  V30 END BOND
M  V30 END CTAB
M  END
