
     RDKit          3D

  0  0  0  0  0  0  0  0  0  0999 V3000
M  V30 BEGIN CTAB
M  V30 COUNTS 28 28 0 0 0
M  V30 BEGIN ATOM
M  V30 1 N 0.690086 -2.0349 -0.605614 0
M  V30 2 C 0.898559 -0.601178 -0.668722 0
M  V30 3 C 2.36567 -0.432417 -0.225512 0
M  V30 4 C 2.81019 0.989228 -0.213991 0
M  V30 5 N 4.20275 0.995091 0.217882 0
M  V30 6 C 0.0906246 0.171961 0.296743 0
M  V30 7 C -1.35252 0.0940482 0.234896 0
M  V30 8 C -2.03923 -0.567665 -0.734979 0
M  V30 9 C -3.43708 -0.574524 -0.698483 0
M  V30 10 F -4.14591 -1.22444 -1.64898 0
M  V30 11 C -4.14756 0.0748685 0.299883 0
M  V30 12 C -3.43204 0.740654 1.27481 0
M  V30 13 C -2.0534 0.757026 1.25344 0
M  V30 14 F -1.38551 1.42653 2.23517 0
M  V30 15 F -5.50204 0.0499113 0.303213 0
M  V30 16 H 0.334543 -2.39134 0.27857 0
M  V30 17 H 0.425482 -2.48921 -1.47552 0
M  V30 18 H 0.802991 -0.295291 -1.71545 0
M  V30 19 H 2.39618 -0.837554 0.820089 0
M  V30 20 H 3.02848 -1.033 -0.853302 0
M  V30 21 H 2.72306 1.38869 -1.24347 0
M  V30 22 H 2.28373 1.6333 0.498049 0
M  V30 23 H 4.31489 1.35623 1.1963 0
M  V30 24 H 4.83298 1.4098 -0.472831 0
M  V30 25 H 0.460132 -0.052572 1.32672 0
M  V30 26 H 0.338494 1.27087 0.16099 0
M  V30 27 H -1.48719 -1.06507 -1.50916 0
M  V30 28 H -4.01638 1.24097 2.04233 0
M  V30 END ATOM
M  V30 BEGIN BOND
M  V30 1 1 1 2
M  V30 2 1 2 3
M  V30 3 1 3 4
M  V30 4 1 4 5
M  V30 5 1 2 6
M  V30 6 1 6 7
M  V30 7 2 7 8
M  V30 8 1 8 9
M  V30 9 1 9 10
M  V30 10 2 9 11
M  V30 11 1 11 12
M  V30 12 2 12 13
M  V30 13 1 13 14
M  V30 14 1 11 15
M  V30 15 1 13 7
M  V30 16 1 1 16
M  V30 17 1 1 17
M  V30 18 1 2 18
M  V30 19 1 3 19
M  V30 20 1 3 20
M  V30 21 1 4 21
M  V30 22 1 4 22
M  V30 23 1 5 23
M  V30 24 1 5 24
M  V30 25 1 6 25
M  V30 26 1 6 26
M  V30 27 1 8 27
M  V30 28 1 12 28
M  V30 END BOND
M  V30 END CTAB
M  END
