
     RDKit          3D

  0  0  0  0  0  0  0  0  0  0999 V3000
M  V30 BEGIN CTAB
M  V30 COUNTS 37 37 0 0 0
M  V30 BEGIN ATOM
M  V30 1 N -2.84813 0.434588 -4.88481 0
M  V30 2 N -3.67514 -0.0261738 -3.86068 0
M  V30 3 C -4.96074 -0.474518 -3.38248 0
M  V30 4 O -5.94527 -0.573331 -4.01738 0
M  V30 5 C -4.96224 -0.837464 -1.90874 0
M  V30 6 N -3.5732 -0.710627 -1.45695 0
M  V30 7 C -2.38534 -0.602176 -1.07062 0
M  V30 8 O -1.39124 -1.23147 -1.82788 0
M  V30 9 C -1.62497 0.0269202 0.0465393 0
M  V30 10 C -2.13457 0.00352902 1.30318 0
M  V30 11 C -1.30849 0.371947 2.38314 0
M  V30 12 C -0.00136258 0.751024 2.15019 0
M  V30 13 C 0.48331 0.764123 0.835603 0
M  V30 14 N -0.354031 0.399937 -0.167065 0
M  V30 15 C 1.86523 0.951575 0.530101 0
M  V30 16 O 2.17639 1.37108 -0.660108 0
M  V30 17 N 2.93336 0.681449 1.42513 0
M  V30 18 C 4.30745 0.6768 0.972048 0
M  V30 19 C 5.2766 0.189548 1.87982 0
M  V30 20 O 6.56002 0.135316 1.61207 0
M  V30 21 N 4.97161 -0.332409 3.24727 0
M  V30 22 N 6.10286 -0.773239 3.97542 0
M  V30 23 H -1.8121 0.140875 -4.61886 0
M  V30 24 H -2.82005 1.51799 -4.75285 0
M  V30 25 H -4.64053 0.52056 -4.90498 0
M  V30 26 H -5.6419 -0.0984106 -1.4032 0
M  V30 27 H -5.3422 -1.83656 -1.75101 0
M  V30 28 H -3.29564 -1.74907 -2.28773 0
M  V30 29 H -3.17483 -0.280007 1.55418 0
M  V30 30 H -1.7451 0.364136 3.33503 0
M  V30 31 H 0.66379 0.987898 2.94493 0
M  V30 32 H 2.7271 0.513007 2.41368 0
M  V30 33 H 4.55425 1.62331 0.452185 0
M  V30 34 H 4.28681 -0.135848 0.0988917 0
M  V30 35 H 4.00945 -0.340929 3.55517 0
M  V30 36 H 6.866 -0.92268 3.31501 0
M  V30 37 H 5.85284 -1.50069 4.63308 0
M  V30 END ATOM
M  V30 BEGIN BOND
M  V30 1 1 1 2
M  V30 2 1 2 3
M  V30 3 2 3 4
M  V30 4 1 3 5
M  V30 5 1 5 6
M  V30 6 1 6 7
M  V30 7 2 7 8
M  V30 8 1 7 9
M  V30 9 2 9 10
M  V30 10 1 10 11
M  V30 11 2 11 12
M  V30 12 1 12 13
M  V30 13 2 13 14
M  V30 14 1 13 15
M  V30 15 2 15 16
M  V30 16 1 15 17
M  V30 17 1 17 18
M  V30 18 1 18 19
M  V30 19 2 19 20
M  V30 20 1 19 21
M  V30 21 1 21 22
M  V30 22 1 14 9
M  V30 23 1 1 23
M  V30 24 1 1 24
M  V30 25 1 2 25
M  V30 26 1 5 26
M  V30 27 1 5 27
M  V30 28 1 6 28
M  V30 29 1 10 29
M  V30 30 1 11 30
M  V30 31 1 12 31
M  V30 32 1 17 32
M  V30 33 1 18 33
M  V30 34 1 18 34
M  V30 35 1 21 35
M  V30 36 1 22 36
M  V30 37 1 22 37
M  V30 END BOND
M  V30 END CTAB
M  END
