
     RDKit          3D

  0  0  0  0  0  0  0  0  0  0999 V3000
M  V30 BEGIN CTAB
M  V30 COUNTS 48 51 0 0 0
M  V30 BEGIN ATOM
M  V30 1 N 6.94421 2.60958 1.62502 0
M  V30 2 C 6.50922 1.53182 0.817835 0
M  V30 3 C 6.95724 1.43278 -0.471581 0
M  V30 4 Cl 8.0615 2.61975 -1.14883 0
M  V30 5 C 6.55878 0.393437 -1.303 0
M  V30 6 C 5.68186 -0.549234 -0.76994 0
M  V30 7 C 5.22038 -0.466441 0.522824 0
M  V30 8 C 5.64639 0.592032 1.31899 0
M  V30 9 N 4.34518 -1.44844 1.04066 0
M  V30 10 N 4.63619 -2.57539 1.68168 0
M  V30 11 N 3.52085 -3.23182 2.01202 0
M  V30 12 N 2.53643 -2.44424 1.53942 0
M  V30 13 C 3.00923 -1.36767 0.951733 0
M  V30 14 C 2.19504 -0.278055 0.342455 0
M  V30 15 O 2.95192 0.727689 -0.0508397 0
M  V30 16 N 0.862896 -0.267103 0.194738 0
M  V30 17 C -0.493894 -0.255862 0.0442487 0
M  V30 18 C -1.19419 -1.4235 -0.163661 0
M  V30 19 Cl -0.328675 -2.89713 -0.538478 0
M  V30 20 C -2.58294 -1.4211 -0.135014 0
M  V30 21 C -3.2809 -0.254197 0.0977203 0
M  V30 22 C -2.63763 0.898243 0.303049 0
M  V30 23 C -1.26097 0.927572 0.281095 0
M  V30 24 C -4.70885 -0.373102 0.131232 0
M  V30 25 C -5.48523 0.178413 -0.840216 0
M  V30 26 C -6.8794 -0.00844717 -0.73948 0
M  V30 27 C -7.45701 -0.710041 0.281988 0
M  V30 28 C -6.66028 -1.26568 1.2635 0
M  V30 29 C -5.28952 -1.10456 1.19866 0
M  V30 30 S -4.83019 1.10044 -2.13874 0
M  V30 31 N -3.51257 0.337172 -2.95268 0
M  V30 32 O -5.98508 1.24375 -3.17241 0
M  V30 33 O -4.5401 2.49819 -1.71507 0
M  V30 34 H 6.84635 2.52401 2.65645 0
M  V30 35 H 7.36397 3.48279 1.18418 0
M  V30 36 H 6.9438 0.364456 -2.30613 0
M  V30 37 H 5.39837 -1.33955 -1.45633 0
M  V30 38 H 5.27477 0.671776 2.3542 0
M  V30 39 H 0.970138 0.829974 -0.611668 0
M  V30 40 H -3.07045 -2.36351 -0.295347 0
M  V30 41 H -3.12668 1.83047 0.518075 0
M  V30 42 H -0.693828 1.82846 0.448378 0
M  V30 43 H -7.50595 0.437271 -1.5165 0
M  V30 44 H -8.53207 -0.803854 0.283748 0
M  V30 45 H -7.13877 -1.82425 2.07065 0
M  V30 46 H -4.62672 -1.53239 1.95117 0
M  V30 47 H -3.82316 0.0500455 -3.90343 0
M  V30 48 H -2.78967 1.09547 -3.14604 0
M  V30 END ATOM
M  V30 BEGIN BOND
M  V30 1 1 1 2
M  V30 2 2 2 3
M  V30 3 1 3 4
M  V30 4 1 3 5
M  V30 5 2 5 6
M  V30 6 1 6 7
M  V30 7 2 7 8
M  V30 8 1 7 9
M  V30 9 1 9 10
M  V30 10 2 10 11
M  V30 11 1 11 12
M  V30 12 2 12 13
M  V30 13 1 13 14
M  V30 14 2 14 15
M  V30 15 1 14 16
M  V30 16 1 16 17
M  V30 17 2 17 18
M  V30 18 1 18 19
M  V30 19 1 18 20
M  V30 20 2 20 21
M  V30 21 1 21 22
M  V30 22 2 22 23
M  V30 23 1 21 24
M  V30 24 2 24 25
M  V30 25 1 25 26
M  V30 26 2 26 27
M  V30 27 1 27 28
M  V30 28 2 28 29
M  V30 29 1 25 30
M  V30 30 1 30 31
M  V30 31 2 30 32
M  V30 32 2 30 33
M  V30 33 1 8 2
M  V30 34 1 13 9
M  V30 35 1 23 17
M  V30 36 1 29 24
M  V30 37 1 1 34
M  V30 38 1 1 35
M  V30 39 1 5 36
M  V30 40 1 6 37
M  V30 41 1 8 38
M  V30 42 1 16 39
M  V30 43 1 20 40
M  V30 44 1 22 41
M  V30 45 1 23 42
M  V30 46 1 26 43
M  V30 47 1 27 44
M  V30 48 1 28 45
M  V30 49 1 29 46
M  V30 50 1 31 47
M  V30 51 1 31 48
M  V30 END BOND
M  V30 END CTAB
M  END
