
     RDKit          3D

  0  0  0  0  0  0  0  0  0  0999 V3000
M  V30 BEGIN CTAB
M  V30 COUNTS 28 29 0 0 0
M  V30 BEGIN ATOM
M  V30 1 N -0.814553 0.417299 -2.45997 0
M  V30 2 C -0.779746 0.532139 -1.02479 0
M  V30 3 C 0.563573 0.162029 -0.525622 0
M  V30 4 N 1.28281 0.82575 0.398165 0
M  V30 5 N 2.43272 0.2499 0.628151 0
M  V30 6 C 2.48012 -0.834319 -0.170172 0
M  V30 7 N 1.33428 -0.894266 -0.882097 0
M  V30 8 N 3.59272 -1.74803 -0.219273 0
M  V30 9 C 3.48173 0.66377 1.55339 0
M  V30 10 C -1.86803 -0.320608 -0.432673 0
M  V30 11 C -1.95839 -0.304084 1.06657 0
M  V30 12 C -3.45864 -0.00463461 0.972594 0
M  V30 13 C -3.18377 0.463809 -0.457401 0
M  V30 14 H 0.130472 0.401342 -2.8881 0
M  V30 15 H -1.4206 1.14207 -2.90964 0
M  V30 16 H -0.983779 1.58484 -0.739473 0
M  V30 17 H 3.79826 -2.39706 0.576873 0
M  V30 18 H 4.21774 -1.78008 -1.05374 0
M  V30 19 H 4.17611 1.38273 1.05581 0
M  V30 20 H 4.00901 -0.213812 1.92873 0
M  V30 21 H 3.06357 1.21078 2.42406 0
M  V30 22 H -1.9964 -1.30827 -0.889004 0
M  V30 23 H -1.7948 -1.30234 1.54626 0
M  V30 24 H -1.44385 0.518667 1.57036 0
M  V30 25 H -4.09668 -0.917843 0.993871 0
M  V30 26 H -3.80313 0.809825 1.61979 0
M  V30 27 H -3.93365 0.0904765 -1.15486 0
M  V30 28 H -3.0271 1.56991 -0.527798 0
M  V30 END ATOM
M  V30 BEGIN BOND
M  V30 1 1 1 2
M  V30 2 1 2 3
M  V30 3 2 3 4
M  V30 4 1 4 5
M  V30 5 1 5 6
M  V30 6 2 6 7
M  V30 7 1 6 8
M  V30 8 1 5 9
M  V30 9 1 2 10
M  V30 10 1 10 11
M  V30 11 1 11 12
M  V30 12 1 12 13
M  V30 13 1 7 3
M  V30 14 1 13 10
M  V30 15 1 1 14
M  V30 16 1 1 15
M  V30 17 1 2 16
M  V30 18 1 8 17
M  V30 19 1 8 18
M  V30 20 1 9 19
M  V30 21 1 9 20
M  V30 22 1 9 21
M  V30 23 1 10 22
M  V30 24 1 11 23
M  V30 25 1 11 24
M  V30 26 1 12 25
M  V30 27 1 12 26
M  V30 28 1 13 27
M  V30 29 1 13 28
M  V30 END BOND
M  V30 END CTAB
M  END
