
     RDKit          3D

  0  0  0  0  0  0  0  0  0  0999 V3000
M  V30 BEGIN CTAB
M  V30 COUNTS 24 24 0 0 0
M  V30 BEGIN ATOM
M  V30 1 C 4.04258 -0.624953 -0.541443 0
M  V30 2 C 2.6473 -0.831509 0.0092529 0
M  V30 3 N 1.70079 0.0844177 -0.543816 0
M  V30 4 C 0.337121 0.0589122 -0.160186 0
M  V30 5 C -0.0886791 -0.87949 0.776178 0
M  V30 6 C -1.42496 -0.902351 1.15028 0
M  V30 7 C -2.3296 -0.012482 0.608982 0
M  V30 8 C -1.90158 0.919311 -0.322179 0
M  V30 9 C -0.573547 0.947251 -0.698538 0
M  V30 10 F -0.211485 1.87939 -1.61251 0
M  V30 11 N -2.85811 1.82208 -0.861063 0
M  V30 12 N -3.69298 -0.0267124 0.982718 0
M  V30 13 H 4.16835 -1.12037 -1.5336 0
M  V30 14 H 4.75141 -1.03963 0.218703 0
M  V30 15 H 4.28497 0.456616 -0.611689 0
M  V30 16 H 2.37745 -1.88678 -0.198107 0
M  V30 17 H 2.70406 -0.734724 1.11412 0
M  V30 18 H 1.99585 0.793866 -1.2446 0
M  V30 19 H 0.646403 -1.54335 1.16403 0
M  V30 20 H -1.74722 -1.63313 1.87701 0
M  V30 21 H -3.572 2.29084 -0.260703 0
M  V30 22 H -2.88455 2.05212 -1.87895 0
M  V30 23 H -3.96903 0.313602 1.9028 0
M  V30 24 H -4.40255 -0.382933 0.318978 0
M  V30 END ATOM
M  V30 BEGIN BOND
M  V30 1 1 1 2
M  V30 2 1 2 3
M  V30 3 1 3 4
M  V30 4 2 4 5
M  V30 5 1 5 6
M  V30 6 2 6 7
M  V30 7 1 7 8
M  V30 8 2 8 9
M  V30 9 1 9 10
M  V30 10 1 8 11
M  V30 11 1 7 12
M  V30 12 1 9 4
M  V30 13 1 1 13
M  V30 14 1 1 14
M  V30 15 1 1 15
M  V30 16 1 2 16
M  V30 17 1 2 17
M  V30 18 1 3 18
M  V30 19 1 5 19
M  V30 20 1 6 20
M  V30 21 1 11 21
M  V30 22 1 11 22
M  V30 23 1 12 23
M  V30 24 1 12 24
M  V30 END BOND
M  V30 END CTAB
M  END
