
     RDKit          3D

  0  0  0  0  0  0  0  0  0  0999 V3000
M  V30 BEGIN CTAB
M  V30 COUNTS 26 26 0 0 0
M  V30 BEGIN ATOM
M  V30 1 C -4.52986 -0.211348 0.59078 0
M  V30 2 O -3.49857 -0.617944 -0.241161 0
M  V30 3 C -2.25001 -0.262202 0.212435 0
M  V30 4 C -1.23689 -0.766868 -0.786136 0
M  V30 5 N 0.114318 -0.467078 -0.442321 0
M  V30 6 C 0.803407 -1.35002 0.306244 0
M  V30 7 O 0.289748 -2.42984 0.71013 0
M  V30 8 N 2.09142 -1.14217 0.677016 0
M  V30 9 C 2.7316 -0.00818913 0.290874 0
M  V30 10 N 4.07255 0.273943 0.640466 0
M  V30 11 C 2.0406 0.905254 -0.475298 0
M  V30 12 N 2.62093 2.12355 -0.930707 0
M  V30 13 C 0.736739 0.661578 -0.832211 0
M  V30 14 O 0.0962189 1.48993 -1.53224 0
M  V30 15 H -4.45434 0.914726 0.640886 0
M  V30 16 H -5.5118 -0.403346 0.113497 0
M  V30 17 H -4.46016 -0.629854 1.61425 0
M  V30 18 H -2.09889 -0.777158 1.18467 0
M  V30 19 H -2.13417 0.820498 0.418093 0
M  V30 20 H -1.3428 -1.86979 -0.846347 0
M  V30 21 H -1.51375 -0.396166 -1.81399 0
M  V30 22 H 2.6179 -1.82175 1.25171 0
M  V30 23 H 4.66527 0.791842 -0.0442756 0
M  V30 24 H 4.49307 -0.012245 1.54982 0
M  V30 25 H 2.52471 2.96865 -0.32502 0
M  V30 26 H 3.13277 2.21599 -1.82962 0
M  V30 END ATOM
M  V30 BEGIN BOND
M  V30 1 1 1 2
M  V30 2 1 2 3
M  V30 3 1 3 4
M  V30 4 1 4 5
M  V30 5 1 5 6
M  V30 6 2 6 7
M  V30 7 1 6 8
M  V30 8 1 8 9
M  V30 9 1 9 10
M  V30 10 2 9 11
M  V30 11 1 11 12
M  V30 12 1 11 13
M  V30 13 2 13 14
M  V30 14 1 13 5
M  V30 15 1 1 15
M  V30 16 1 1 16
M  V30 17 1 1 17
M  V30 18 1 3 18
M  V30 19 1 3 19
M  V30 20 1 4 20
M  V30 21 1 4 21
M  V30 22 1 8 22
M  V30 23 1 10 23
M  V30 24 1 10 24
M  V30 25 1 12 25
M  V30 26 1 12 26
M  V30 END BOND
M  V30 END CTAB
M  END
