
     RDKit          3D

  0  0  0  0  0  0  0  0  0  0999 V3000
M  V30 BEGIN CTAB
M  V30 COUNTS 28 28 0 0 0
M  V30 BEGIN ATOM
M  V30 1 N 3.86657 -0.56951 -0.250585 0
M  V30 2 C 2.76068 -1.49895 -0.224665 0
M  V30 3 C 1.5039 -0.746902 -0.0760063 0
M  V30 4 C 1.53158 0.616923 0.0123374 0
M  V30 5 C 0.371404 1.351 0.152152 0
M  V30 6 C 0.524456 2.82588 0.23803 0
M  V30 7 C -0.825505 0.709827 0.203573 0
M  V30 8 C -0.91988 -0.669345 0.11952 0
M  V30 9 C 0.261626 -1.36244 -0.0192853 0
M  V30 10 S -2.40439 -1.53397 0.181424 0
M  V30 11 O -3.00935 -1.37834 1.5569 0
M  V30 12 O -2.12483 -3.00223 0.026052 0
M  V30 13 N -3.5075 -1.10824 -1.06463 0
M  V30 14 C -2.04941 1.49492 0.349579 0
M  V30 15 H 4.21797 -0.328636 0.687715 0
M  V30 16 H 4.59318 -0.93388 -0.874803 0
M  V30 17 H 2.89366 -2.15385 0.678433 0
M  V30 18 H 2.75951 -2.19346 -1.09702 0
M  V30 19 H 2.50256 1.12587 -0.0301217 0
M  V30 20 H 1.31644 3.10936 -0.499981 0
M  V30 21 H 0.915962 3.06087 1.23868 0
M  V30 22 H -0.38969 3.37439 -0.0363096 0
M  V30 23 H 0.279948 -2.44972 -0.0928928 0
M  V30 24 H -4.47811 -1.23016 -0.662083 0
M  V30 25 H -3.46748 -1.76233 -1.87951 0
M  V30 26 H -2.32566 1.89269 -0.645966 0
M  V30 27 H -1.89563 2.403 0.996066 0
M  V30 28 H -2.90199 0.957225 0.805532 0
M  V30 END ATOM
M  V30 BEGIN BOND
M  V30 1 1 1 2
M  V30 2 1 2 3
M  V30 3 2 3 4
M  V30 4 1 4 5
M  V30 5 1 5 6
M  V30 6 2 5 7
M  V30 7 1 7 8
M  V30 8 2 8 9
M  V30 9 1 8 10
M  V30 10 2 10 11
M  V30 11 2 10 12
M  V30 12 1 10 13
M  V30 13 1 7 14
M  V30 14 1 9 3
M  V30 15 1 1 15
M  V30 16 1 1 16
M  V30 17 1 2 17
M  V30 18 1 2 18
M  V30 19 1 4 19
M  V30 20 1 6 20
M  V30 21 1 6 21
M  V30 22 1 6 22
M  V30 23 1 9 23
M  V30 24 1 13 24
M  V30 25 1 13 25
M  V30 26 1 14 26
M  V30 27 1 14 27
M  V30 28 1 14 28
M  V30 END BOND
M  V30 END CTAB
M  END
