
     RDKit          3D

  0  0  0  0  0  0  0  0  0  0999 V3000
M  V30 BEGIN CTAB
M  V30 COUNTS 73 76 0 0 0
M  V30 BEGIN ATOM
M  V30 1 O 0.841292 5.10092 -0.95228 0
M  V30 2 C 1.35526 4.13219 -0.092275 0
M  V30 3 C 0.261357 3.15515 0.358477 0
M  V30 4 O -0.250017 2.55247 -0.729857 0
M  V30 5 C -0.47176 1.19503 -0.679446 0
M  V30 6 O -1.59716 0.833011 0.0188957 0
M  V30 7 C -2.59155 0.231015 -0.740949 0
M  V30 8 C -2.87727 -1.1555 -0.309735 0
M  V30 9 O -2.61866 -2.02359 -1.3969 0
M  V30 10 C -4.29625 -1.40485 0.0835299 0
M  V30 11 N -4.49247 -0.880641 1.42798 0
M  V30 12 C -5.33085 -0.80937 -0.809564 0
M  V30 13 C -4.81049 0.275168 -1.69059 0
M  V30 14 C -3.82579 1.08207 -0.857363 0
M  V30 15 O -3.53206 2.22442 -1.61096 0
M  V30 16 N -5.878 1.0845 -2.19786 0
M  V30 17 C -6.73564 0.252969 -3.01158 0
M  V30 18 C 0.782287 0.479293 -0.269068 0
M  V30 19 C 1.51825 1.11046 0.867699 0
M  V30 20 C 0.806567 2.30654 1.43949 0
M  V30 21 O -0.124876 1.97112 2.41844 0
M  V30 22 O 1.68976 0.0948575 1.78448 0
M  V30 23 C 1.70347 -1.03968 0.985379 0
M  V30 24 O 0.567853 -0.815693 0.200442 0
M  V30 25 O 2.84327 -0.983073 0.199999 0
M  V30 26 C 3.9826 -0.96109 1.00323 0
M  V30 27 C 5.16246 -0.445989 0.250233 0
M  V30 28 C 5.32126 -1.14035 -1.07424 0
M  V30 29 O 6.28378 -0.440254 -1.81069 0
M  V30 30 N 6.36957 -0.402201 1.02795 0
M  V30 31 C 4.13696 -2.3473 1.55886 0
M  V30 32 C 2.92986 -2.57389 2.46031 0
M  V30 33 C 1.64663 -2.32355 1.73426 0
M  V30 34 O 1.45021 -3.35794 0.824625 0
M  V30 35 O 3.01002 -3.86708 2.98767 0
M  V30 36 O 4.19226 -3.31898 0.559936 0
M  V30 37 H 0.992104 6.01627 -0.65498 0
M  V30 38 H 1.7528 4.69777 0.791804 0
M  V30 39 H 2.20149 3.58771 -0.557881 0
M  V30 40 H -0.533905 3.81738 0.811379 0
M  V30 41 H -0.656958 0.890854 -1.7547 0
M  V30 42 H -2.16962 0.201106 -1.78466 0
M  V30 43 H -2.25633 -1.49826 0.551427 0
M  V30 44 H -2.30431 -2.90802 -1.06421 0
M  V30 45 H -4.50619 -2.51382 0.187839 0
M  V30 46 H -5.35059 -0.299027 1.5214 0
M  V30 47 H -3.68392 -0.293849 1.72756 0
M  V30 48 H -6.23096 -0.446228 -0.266671 0
M  V30 49 H -5.72372 -1.62148 -1.48616 0
M  V30 50 H -4.19858 -0.178192 -2.51267 0
M  V30 51 H -4.32372 1.32105 0.0860857 0
M  V30 52 H -4.08833 2.97838 -1.29338 0
M  V30 53 H -5.54171 1.9282 -2.67997 0
M  V30 54 H -6.91862 0.730823 -4.00934 0
M  V30 55 H -6.28518 -0.737319 -3.24682 0
M  V30 56 H -7.72464 0.113047 -2.52628 0
M  V30 57 H 1.44303 0.35304 -1.17579 0
M  V30 58 H 2.50019 1.48481 0.461395 0
M  V30 59 H 1.59807 2.9062 1.97959 0
M  V30 60 H 0.277466 1.68071 3.25304 0
M  V30 61 H 3.78485 -0.294239 1.89849 0
M  V30 62 H 4.93282 0.633675 -0.0125939 0
M  V30 63 H 5.72718 -2.17695 -0.970325 0
M  V30 64 H 4.37639 -1.09559 -1.6178 0
M  V30 65 H 6.20927 0.541062 -1.68081 0
M  V30 66 H 6.11354 -0.167338 2.01252 0
M  V30 67 H 6.98266 0.343293 0.631847 0
M  V30 68 H 5.02726 -2.37658 2.19113 0
M  V30 69 H 3.01031 -1.83777 3.29328 0
M  V30 70 H 0.808701 -2.37618 2.45958 0
M  V30 71 H 0.510568 -3.6085 0.720737 0
M  V30 72 H 3.17783 -4.48798 2.23245 0
M  V30 73 H 3.64863 -3.09824 -0.235917 0
M  V30 END ATOM
M  V30 BEGIN BOND
M  V30 1 1 1 2
M  V30 2 1 2 3
M  V30 3 1 3 4
M  V30 4 1 4 5
M  V30 5 1 5 6
M  V30 6 1 6 7
M  V30 7 1 7 8
M  V30 8 1 8 9
M  V30 9 1 8 10
M  V30 10 1 10 11
M  V30 11 1 10 12
M  V30 12 1 12 13
M  V30 13 1 13 14
M  V30 14 1 14 15
M  V30 15 1 13 16
M  V30 16 1 16 17
M  V30 17 1 5 18
M  V30 18 1 18 19
M  V30 19 1 19 20
M  V30 20 1 20 21
M  V30 21 1 19 22
M  V30 22 1 22 23
M  V30 23 1 23 24
M  V30 24 1 23 25
M  V30 25 1 25 26
M  V30 26 1 26 27
M  V30 27 1 27 28
M  V30 28 1 28 29
M  V30 29 1 27 30
M  V30 30 1 26 31
M  V30 31 1 31 32
M  V30 32 1 32 33
M  V30 33 1 33 34
M  V30 34 1 32 35
M  V30 35 1 31 36
M  V30 36 1 20 3
M  V30 37 1 33 23
M  V30 38 1 14 7
M  V30 39 1 24 18
M  V30 40 1 1 37
M  V30 41 1 2 38
M  V30 42 1 2 39
M  V30 43 1 3 40
M  V30 44 1 5 41
M  V30 45 1 7 42
M  V30 46 1 8 43
M  V30 47 1 9 44
M  V30 48 1 10 45
M  V30 49 1 11 46
M  V30 50 1 11 47
M  V30 51 1 12 48
M  V30 52 1 12 49
M  V30 53 1 13 50
M  V30 54 1 14 51
M  V30 55 1 15 52
M  V30 56 1 16 53
M  V30 57 1 17 54
M  V30 58 1 17 55
M  V30 59 1 17 56
M  V30 60 1 18 57
M  V30 61 1 19 58
M  V30 62 1 20 59
M  V30 63 1 21 60
M  V30 64 1 26 61
M  V30 65 1 27 62
M  V30 66 1 28 63
M  V30 67 1 28 64
M  V30 68 1 29 65
M  V30 69 1 30 66
M  V30 70 1 30 67
M  V30 71 1 31 68
M  V30 72 1 32 69
M  V30 73 1 33 70
M  V30 74 1 34 71
M  V30 75 1 35 72
M  V30 76 1 36 73
M  V30 END BOND
M  V30 END CTAB
M  END
