
     RDKit          3D

  0  0  0  0  0  0  0  0  0  0999 V3000
M  V30 BEGIN CTAB
M  V30 COUNTS 133 137 0 0 0
M  V30 BEGIN ATOM
M  V30 1 C -11.1844 -3.03872 2.56318 0
M  V30 2 C -10.3991 -2.44578 1.46444 0
M  V30 3 O -10.8327 -2.53153 0.274654 0
M  V30 4 N -9.18005 -1.78833 1.71951 0
M  V30 5 C -8.4184 -1.20924 0.631345 0 CFG=1
M  V30 6 C -8.43043 0.286346 0.701366 0
M  V30 7 C -7.88185 0.880884 1.91719 0
M  V30 8 C -8.66365 1.01895 3.03716 0
M  V30 9 C -8.20875 1.59623 4.21651 0
M  V30 10 C -6.907 2.03883 4.22362 0
M  V30 11 C -6.1114 1.90632 3.10374 0
M  V30 12 C -6.55912 1.33579 1.93546 0
M  V30 13 C -7.05027 -1.73561 0.572397 0
M  V30 14 O -6.60214 -2.54754 1.43597 0
M  V30 15 N -6.17157 -1.34044 -0.483584 0
M  V30 16 C -4.79767 -1.90576 -0.507432 0 CFG=1
M  V30 17 C -4.60426 -2.6367 -1.79115 0
M  V30 18 C -3.24464 -3.26494 -1.92453 0
M  V30 19 C -3.13143 -4.00032 -3.25561 0
M  V30 20 N -1.83291 -4.60539 -3.38497 0
M  V30 21 C -3.88536 -0.778228 -0.287522 0
M  V30 22 O -4.18158 0.312892 -0.861269 0
M  V30 23 N -2.71658 -0.851243 0.526633 0
M  V30 24 C -2.17576 -2.01209 1.17589 0
M  V30 25 C -1.59176 -1.54853 2.48418 0
M  V30 26 C -1.52787 -0.0339837 2.37951 0
M  V30 27 C -1.89564 0.256336 0.907899 0 CFG=1
M  V30 28 C -0.677266 0.357805 0.0903587 0
M  V30 29 O -0.344136 -0.561128 -0.668287 0
M  V30 30 N 0.0989505 1.56409 0.212486 0
M  V30 31 C 1.30541 1.84777 -0.477836 0 CFG=2
M  V30 32 C 1.16883 2.08287 -1.91209 0
M  V30 33 C 0.355047 3.22599 -2.41441 0
M  V30 34 C -1.07688 3.24692 -2.08584 0
M  V30 35 C -1.88081 2.32575 -3.02333 0
M  V30 36 C -1.8859 2.93884 -4.40614 0
M  V30 37 C -0.715757 3.88498 -4.56254 0
M  V30 38 C 0.499847 3.31033 -3.93842 0
M  V30 39 C 2.38586 0.875925 -0.125204 0
M  V30 40 O 2.12228 -0.058225 0.659356 0
M  V30 41 N 3.68938 0.992467 -0.64838 0
M  V30 42 C 4.72792 0.0740609 -0.299132 0 CFG=1
M  V30 43 C 5.59175 -0.429116 -1.36159 0
M  V30 44 C 4.99442 -1.18654 -2.46374 0
M  V30 45 C 4.88821 -2.5905 -2.54191 0
M  V30 46 N 4.25684 -2.88616 -3.6675 0
M  V30 47 C 3.95033 -1.75031 -4.32219 0
M  V30 48 C 4.40371 -0.670296 -3.58681 0
M  V30 49 C 4.19326 0.579933 -4.10468 0
M  V30 50 C 3.55534 0.75131 -5.30683 0
M  V30 51 C 3.10887 -0.318339 -6.02889 0
M  V30 52 C 3.31855 -1.57765 -5.51217 0
M  V30 53 C 5.55929 0.717233 0.780656 0
M  V30 54 O 4.94866 1.34914 1.68299 0
M  V30 55 N 6.95952 0.660724 0.846106 0
M  V30 56 C 7.69126 1.30895 1.96373 0 CFG=1
M  V30 57 C 8.94701 0.561482 2.19922 0
M  V30 58 C 9.8231 1.00981 3.30561 0
M  V30 59 C 9.15704 0.94182 4.66131 0
M  V30 60 N 8.79134 -0.4372 4.95629 0
M  V30 61 C 8.14341 -0.86387 6.12396 0
M  V30 62 N 8.76397 -1.86036 6.92494 0
M  V30 63 N 7.01575 -0.365622 6.45588 0
M  V30 64 C 8.00687 2.66524 1.44759 0
M  V30 65 O 8.63789 3.57024 2.28078 0
M  V30 66 O 7.71655 2.99918 0.293708 0
M  V30 67 H -11.9999 -3.6584 2.14713 0
M  V30 68 H -10.5249 -3.75366 3.10906 0
M  V30 69 H -11.5049 -2.29415 3.29582 0
M  V30 70 H -8.82242 -1.71217 2.68021 0
M  V30 71 H -8.92282 -1.45931 -0.350965 0
M  V30 72 H -9.47686 0.68187 0.557044 0
M  V30 73 H -7.86365 0.727781 -0.159525 0
M  V30 74 H -9.70118 0.680984 3.07897 0
M  V30 75 H -8.83891 1.70127 5.0982 0
M  V30 76 H -6.50674 2.49699 5.11545 0
M  V30 77 H -5.06462 2.26278 3.11145 0
M  V30 78 H -5.92238 1.25373 1.07977 0
M  V30 79 H -6.41248 -0.688153 -1.23732 0
M  V30 80 H -4.69112 -2.59794 0.351106 0
M  V30 81 H -4.73556 -1.90942 -2.6363 0
M  V30 82 H -5.37456 -3.41144 -1.94162 0
M  V30 83 H -2.45013 -2.47401 -1.91822 0
M  V30 84 H -3.01394 -3.98093 -1.13489 0
M  V30 85 H -3.25152 -3.26237 -4.04831 0
M  V30 86 H -3.95153 -4.76057 -3.30322 0
M  V30 87 H -1.71523 -5.4311 -2.72929 0
M  V30 88 H -1.67902 -4.86344 -4.37013 0
M  V30 89 H -2.93403 -2.80159 1.36247 0
M  V30 90 H -1.39254 -2.47587 0.525948 0
M  V30 91 H -0.6028 -1.98482 2.67819 0
M  V30 92 H -2.24456 -1.87902 3.32527 0
M  V30 93 H -2.26281 0.386416 3.07598 0
M  V30 94 H -0.489964 0.270248 2.55407 0
M  V30 95 H -2.4541 1.21608 0.932601 0
M  V30 96 H -0.269501 2.2985 0.884902 0
M  V30 97 H 1.7249 2.82621 -0.0182566 0
M  V30 98 H 0.765271 1.15737 -2.46126 0
M  V30 99 H 2.19033 2.19696 -2.39181 0
M  V30 100 H 0.83315 4.20279 -2.05709 0
M  V30 101 H -1.48562 4.28117 -2.36899 0
M  V30 102 H -1.3846 3.05762 -1.06452 0
M  V30 103 H -2.91379 2.33744 -2.64515 0
M  V30 104 H -1.47482 1.29727 -3.00637 0
M  V30 105 H -2.84482 3.47675 -4.58034 0
M  V30 106 H -1.82643 2.12897 -5.17219 0
M  V30 107 H -0.99703 4.87932 -4.1728 0
M  V30 108 H -0.560044 4.00797 -5.67936 0
M  V30 109 H 1.38636 3.92411 -4.21397 0
M  V30 110 H 0.648833 2.26245 -4.27401 0
M  V30 111 H 3.85217 1.79792 -1.29102 0
M  V30 112 H 4.21029 -0.757549 0.278675 0
M  V30 113 H 6.4311 -1.06276 -0.964812 0
M  V30 114 H 6.13781 0.438166 -1.84286 0
M  V30 115 H 5.27936 -3.2353 -1.77435 0
M  V30 116 H 4.04055 -3.87087 -3.97709 0
M  V30 117 H 4.54882 1.45397 -3.53925 0
M  V30 118 H 3.42808 1.78101 -5.65025 0
M  V30 119 H 2.60489 -0.14437 -6.98711 0
M  V30 120 H 2.96661 -2.44911 -6.08133 0
M  V30 121 H 7.5197 0.182869 0.142859 0
M  V30 122 H 6.96733 1.3664 2.78959 0
M  V30 123 H 9.5356 0.498858 1.22722 0
M  V30 124 H 8.67316 -0.518475 2.375 0
M  V30 125 H 10.2292 2.01223 3.09653 0
M  V30 126 H 10.7427 0.354283 3.39698 0
M  V30 127 H 8.30515 1.63396 4.75394 0
M  V30 128 H 9.91315 1.23554 5.41063 0
M  V30 129 H 9.03584 -1.17981 4.23686 0
M  V30 130 H 8.19191 -2.46444 7.57798 0
M  V30 131 H 9.78635 -2.02044 6.88895 0
M  V30 132 H 6.48185 0.360634 5.94627 0
M  V30 133 H 8.12185 4.32685 2.7572 0
M  V30 END ATOM
M  V30 BEGIN BOND
M  V30 1 1 1 2
M  V30 2 2 2 3
M  V30 3 1 2 4
M  V30 4 1 4 5
M  V30 5 1 5 6
M  V30 6 1 6 7
M  V30 7 2 7 8
M  V30 8 1 8 9
M  V30 9 2 9 10
M  V30 10 1 10 11
M  V30 11 2 11 12
M  V30 12 1 5 13
M  V30 13 2 13 14
M  V30 14 1 13 15
M  V30 15 1 15 16
M  V30 16 1 16 17
M  V30 17 1 17 18
M  V30 18 1 18 19
M  V30 19 1 19 20
M  V30 20 1 16 21
M  V30 21 2 21 22
M  V30 22 1 21 23
M  V30 23 1 23 24
M  V30 24 1 24 25
M  V30 25 1 25 26
M  V30 26 1 26 27
M  V30 27 1 27 28
M  V30 28 2 28 29
M  V30 29 1 28 30
M  V30 30 1 30 31
M  V30 31 1 31 32
M  V30 32 1 32 33
M  V30 33 1 33 34
M  V30 34 1 34 35
M  V30 35 1 35 36
M  V30 36 1 36 37
M  V30 37 1 37 38
M  V30 38 1 31 39
M  V30 39 2 39 40
M  V30 40 1 39 41
M  V30 41 1 41 42
M  V30 42 1 42 43
M  V30 43 1 43 44
M  V30 44 2 44 45
M  V30 45 1 45 46
M  V30 46 1 46 47
M  V30 47 2 47 48
M  V30 48 1 48 49
M  V30 49 2 49 50
M  V30 50 1 50 51
M  V30 51 2 51 52
M  V30 52 1 42 53
M  V30 53 2 53 54
M  V30 54 1 53 55
M  V30 55 1 55 56
M  V30 56 1 56 57
M  V30 57 1 57 58
M  V30 58 1 58 59
M  V30 59 1 59 60
M  V30 60 1 60 61
M  V30 61 1 61 62
M  V30 62 2 61 63 CFG=2
M  V30 63 1 56 64
M  V30 64 1 64 65
M  V30 65 2 64 66
M  V30 66 1 12 7
M  V30 67 1 27 23
M  V30 68 1 38 33
M  V30 69 1 48 44
M  V30 70 1 52 47
M  V30 71 1 1 67
M  V30 72 1 1 68
M  V30 73 1 1 69
M  V30 74 1 4 70
M  V30 75 1 5 71 CFG=3
M  V30 76 1 6 72
M  V30 77 1 6 73
M  V30 78 1 8 74
M  V30 79 1 9 75
M  V30 80 1 10 76
M  V30 81 1 11 77
M  V30 82 1 12 78
M  V30 83 1 15 79
M  V30 84 1 16 80 CFG=1
M  V30 85 1 17 81
M  V30 86 1 17 82
M  V30 87 1 18 83
M  V30 88 1 18 84
M  V30 89 1 19 85
M  V30 90 1 19 86
M  V30 91 1 20 87
M  V30 92 1 20 88
M  V30 93 1 24 89
M  V30 94 1 24 90
M  V30 95 1 25 91
M  V30 96 1 25 92
M  V30 97 1 26 93
M  V30 98 1 26 94
M  V30 99 1 27 95 CFG=1
M  V30 100 1 30 96
M  V30 101 1 31 97 CFG=1
M  V30 102 1 32 98
M  V30 103 1 32 99
M  V30 104 1 33 100
M  V30 105 1 34 101
M  V30 106 1 34 102
M  V30 107 1 35 103
M  V30 108 1 35 104
M  V30 109 1 36 105
M  V30 110 1 36 106
M  V30 111 1 37 107
M  V30 112 1 37 108
M  V30 113 1 38 109
M  V30 114 1 38 110
M  V30 115 1 41 111
M  V30 116 1 42 112 CFG=1
M  V30 117 1 43 113
M  V30 118 1 43 114
M  V30 119 1 45 115
M  V30 120 1 46 116
M  V30 121 1 49 117
M  V30 122 1 50 118
M  V30 123 1 51 119
M  V30 124 1 52 120
M  V30 125 1 55 121
M  V30 126 1 56 122 CFG=1
M  V30 127 1 57 123
M  V30 128 1 57 124
M  V30 129 1 58 125
M  V30 130 1 58 126
M  V30 131 1 59 127
M  V30 132 1 59 128
M  V30 133 1 60 129
M  V30 134 1 62 130
M  V30 135 1 62 131
M  V30 136 1 63 132
M  V30 137 1 65 133
M  V30 END BOND
M  V30 END CTAB
M  END
