
     RDKit          3D

  0  0  0  0  0  0  0  0  0  0999 V3000
M  V30 BEGIN CTAB
M  V30 COUNTS 38 38 0 0 0
M  V30 BEGIN ATOM
M  V30 1 N 4.86912 1.52887 1.25008 0
M  V30 2 C 4.18901 0.770206 0.209153 0
M  V30 3 C 4.04716 -0.696332 0.611746 0
M  V30 4 C 3.35152 -1.40226 -0.48614 0
M  V30 5 N 2.0621 -0.889829 -0.789967 0
M  V30 6 C 0.902412 -0.838051 -0.0199331 0
M  V30 7 O 0.864715 -1.29328 1.13719 0
M  V30 8 C -0.36424 -0.21852 -0.574315 0
M  V30 9 C -1.40504 -0.29614 0.475036 0
M  V30 10 C -2.71436 0.259812 0.146886 0
M  V30 11 C -3.09114 0.853115 -1.02165 0
M  V30 12 C -4.36627 1.33835 -1.2193 0
M  V30 13 C -5.33331 1.2479 -0.23752 0
M  V30 14 C -4.96347 0.649957 0.948387 0
M  V30 15 C -3.69588 0.17181 1.13418 0
M  V30 16 N -0.997318 0.203961 1.77062 0
M  V30 17 C -0.711414 -1.09051 -1.76954 0
M  V30 18 F 5.36516 -1.22048 0.66015 0
M  V30 19 F 3.44891 -0.802549 1.8126 0
M  V30 20 H 5.23803 0.883735 1.97885 0
M  V30 21 H 5.64085 2.10346 0.853972 0
M  V30 22 H 4.79653 0.835174 -0.712257 0
M  V30 23 H 3.19189 1.16967 -0.0179056 0
M  V30 24 H 4.00789 -1.41689 -1.39233 0
M  V30 25 H 3.26526 -2.49505 -0.159952 0
M  V30 26 H 1.96845 -0.472452 -1.7788 0
M  V30 27 H -0.12411 0.776383 -0.937457 0
M  V30 28 H -1.58647 -1.40626 0.652249 0
M  V30 29 H -2.37925 0.953916 -1.81769 0
M  V30 30 H -4.63856 1.80326 -2.15336 0
M  V30 31 H -6.3386 1.63118 -0.395158 0
M  V30 32 H -5.72697 0.5822 1.7147 0
M  V30 33 H -3.47462 -0.281335 2.07786 0
M  V30 34 H -1.48999 -0.333771 2.51513 0
M  V30 35 H -1.36921 1.19253 1.82772 0
M  V30 36 H -0.607849 -0.484033 -2.69082 0
M  V30 37 H -1.78572 -1.37216 -1.72383 0
M  V30 38 H -0.0452137 -1.9456 -1.87858 0
M  V30 END ATOM
M  V30 BEGIN BOND
M  V30 1 1 1 2
M  V30 2 1 2 3
M  V30 3 1 3 4
M  V30 4 1 4 5
M  V30 5 1 5 6
M  V30 6 2 6 7
M  V30 7 1 6 8
M  V30 8 1 8 9
M  V30 9 1 9 10
M  V30 10 2 10 11
M  V30 11 1 11 12
M  V30 12 2 12 13
M  V30 13 1 13 14
M  V30 14 2 14 15
M  V30 15 1 9 16
M  V30 16 1 8 17
M  V30 17 1 3 18
M  V30 18 1 3 19
M  V30 19 1 15 10
M  V30 20 1 1 20
M  V30 21 1 1 21
M  V30 22 1 2 22
M  V30 23 1 2 23
M  V30 24 1 4 24
M  V30 25 1 4 25
M  V30 26 1 5 26
M  V30 27 1 8 27
M  V30 28 1 9 28
M  V30 29 1 11 29
M  V30 30 1 12 30
M  V30 31 1 13 31
M  V30 32 1 14 32
M  V30 33 1 15 33
M  V30 34 1 16 34
M  V30 35 1 16 35
M  V30 36 1 17 36
M  V30 37 1 17 37
M  V30 38 1 17 38
M  V30 END BOND
M  V30 END CTAB
M  END
