
     RDKit          3D

  0  0  0  0  0  0  0  0  0  0999 V3000
M  V30 BEGIN CTAB
M  V30 COUNTS 21 21 0 0 0
M  V30 BEGIN ATOM
M  V30 1 N 4.01375 -0.317404 0.672748 0
M  V30 2 C 2.66807 -0.664257 0.151371 0
M  V30 3 C 1.77821 0.493959 0.459265 0
M  V30 4 C 0.36057 0.35808 0.0412705 0
M  V30 5 N -0.591775 -0.282227 0.73771 0
M  V30 6 N -1.77305 -0.188538 0.119687 0
M  V30 7 C -1.58982 0.522695 -1.00359 0
M  V30 8 N -0.282857 0.851227 -1.04247 0
M  V30 9 N -2.65403 0.809954 -1.91779 0
M  V30 10 C -3.05697 -0.742439 0.55228 0
M  V30 11 F 1.83275 0.741322 1.85797 0
M  V30 12 F 2.33487 1.64772 -0.0887654 0
M  V30 13 H 4.14419 -0.868583 1.54505 0
M  V30 14 H 4.04965 0.706611 0.893397 0
M  V30 15 H 2.341 -1.64463 0.51405 0
M  V30 16 H 2.77514 -0.736448 -0.974276 0
M  V30 17 H -3.1889 1.72464 -1.89899 0
M  V30 18 H -2.95018 0.113526 -2.63789 0
M  V30 19 H -3.26152 -1.72945 0.0519265 0
M  V30 20 H -3.87557 -0.0218244 0.303731 0
M  V30 21 H -3.07352 -0.808446 1.6633 0
M  V30 END ATOM
M  V30 BEGIN BOND
M  V30 1 1 1 2
M  V30 2 1 2 3
M  V30 3 1 3 4
M  V30 4 2 4 5
M  V30 5 1 5 6
M  V30 6 1 6 7
M  V30 7 2 7 8
M  V30 8 1 7 9
M  V30 9 1 6 10
M  V30 10 1 3 11
M  V30 11 1 3 12
M  V30 12 1 8 4
M  V30 13 1 1 13
M  V30 14 1 1 14
M  V30 15 1 2 15
M  V30 16 1 2 16
M  V30 17 1 9 17
M  V30 18 1 9 18
M  V30 19 1 10 19
M  V30 20 1 10 20
M  V30 21 1 10 21
M  V30 END BOND
M  V30 END CTAB
M  END
