
     RDKit          3D

  0  0  0  0  0  0  0  0  0  0999 V3000
M  V30 BEGIN CTAB
M  V30 COUNTS 27 28 0 0 0
M  V30 BEGIN ATOM
M  V30 1 C -3.91086 0.862011 -0.110681 0
M  V30 2 C -2.42722 0.597689 -0.0711429 0
M  V30 3 C -1.97679 -0.679794 0.0186226 0
M  V30 4 C -0.62373 -1.05199 0.0632131 0
M  V30 5 C -0.212865 -2.45376 0.161089 0
M  V30 6 C 0.246268 0.0152367 0.0070037 0
M  V30 7 C -0.198405 1.33219 -0.0852276 0
M  V30 8 C -1.53161 1.61579 -0.123752 0
M  V30 9 N 0.68933 2.35629 -0.138343 0
M  V30 10 C 2.00579 2.19292 -0.107893 0
M  V30 11 C 2.46668 0.886632 -0.016143 0
M  V30 12 C 1.59653 -0.17277 0.0395281 0
M  V30 13 N 2.12639 -1.46703 0.130804 0
M  V30 14 N 3.86157 0.61533 0.0224745 0
M  V30 15 H -4.37197 0.0948748 -0.77658 0
M  V30 16 H -4.07274 1.86429 -0.572941 0
M  V30 17 H -4.35403 0.8223 0.895876 0
M  V30 18 H -2.71009 -1.47155 0.058969 0
M  V30 19 H 0.211744 -2.91669 -0.737733 0
M  V30 20 H 0.179734 -2.7876 1.13863 0
M  V30 21 H -1.20132 -3.03965 0.187938 0
M  V30 22 H -1.87044 2.64461 -0.195678 0
M  V30 23 H 2.71349 2.99363 -0.149207 0
M  V30 24 H 2.33465 -1.97702 -0.747741 0
M  V30 25 H 2.32469 -1.91307 1.04235 0
M  V30 26 H 4.40815 0.886127 0.862282 0
M  V30 27 H 4.29705 0.150983 -0.795712 0
M  V30 END ATOM
M  V30 BEGIN BOND
M  V30 1 1 1 2
M  V30 2 2 2 3
M  V30 3 1 3 4
M  V30 4 1 4 5
M  V30 5 2 4 6
M  V30 6 1 6 7
M  V30 7 2 7 8
M  V30 8 1 7 9
M  V30 9 2 9 10
M  V30 10 1 10 11
M  V30 11 2 11 12
M  V30 12 1 12 13
M  V30 13 1 11 14
M  V30 14 1 8 2
M  V30 15 1 12 6
M  V30 16 1 1 15
M  V30 17 1 1 16
M  V30 18 1 1 17
M  V30 19 1 3 18
M  V30 20 1 5 19
M  V30 21 1 5 20
M  V30 22 1 5 21
M  V30 23 1 8 22
M  V30 24 1 10 23
M  V30 25 1 13 24
M  V30 26 1 13 25
M  V30 27 1 14 26
M  V30 28 1 14 27
M  V30 END BOND
M  V30 END CTAB
M  END
