
     RDKit          3D

  0  0  0  0  0  0  0  0  0  0999 V3000
M  V30 BEGIN CTAB
M  V30 COUNTS 28 29 0 0 0
M  V30 BEGIN ATOM
M  V30 1 O -0.965193 -0.350972 0.916239 0
M  V30 2 C -1.87712 0.331494 0.151941 0
M  V30 3 C -3.12817 0.589909 1.00302 0
M  V30 4 C -3.641 -0.741487 0.499487 0
M  V30 5 C -2.75035 -0.55897 -0.708564 0
M  V30 6 C -1.36859 1.56314 -0.55373 0
M  V30 7 S -0.0357841 1.08872 -1.67284 0
M  V30 8 C 1.42474 0.512956 -0.854628 0
M  V30 9 N 1.57244 -0.791341 -0.572799 0
M  V30 10 C 2.66569 -1.27859 0.0435707 0
M  V30 11 N 2.74713 -2.67365 0.308398 0
M  V30 12 N 3.66264 -0.451324 0.401662 0
M  V30 13 C 3.5386 0.862312 0.13016 0
M  V30 14 N 2.43912 1.34443 -0.48797 0
M  V30 15 N 4.60225 1.72548 0.512194 0
M  V30 16 H -1.07053 -1.3359 0.913735 0
M  V30 17 H -3.7703 1.40302 0.663349 0
M  V30 18 H -2.92915 0.552411 2.0982 0
M  V30 19 H -3.27052 -1.61428 1.10414 0
M  V30 20 H -4.72855 -0.763352 0.2788 0
M  V30 21 H -2.24426 -1.49088 -1.02533 0
M  V30 22 H -3.26686 0.0132164 -1.51763 0
M  V30 23 H -2.16218 2.01831 -1.17705 0
M  V30 24 H -0.9749 2.31244 0.180716 0
M  V30 25 H 2.23443 -3.31881 -0.326676 0
M  V30 26 H 3.28377 -3.06907 1.09118 0
M  V30 27 H 5.04947 2.3005 -0.232632 0
M  V30 28 H 4.9632 1.82028 1.48437 0
M  V30 END ATOM
M  V30 BEGIN BOND
M  V30 1 1 1 2
M  V30 2 1 2 3
M  V30 3 1 3 4
M  V30 4 1 4 5
M  V30 5 1 2 6
M  V30 6 1 6 7
M  V30 7 1 7 8
M  V30 8 2 8 9
M  V30 9 1 9 10
M  V30 10 1 10 11
M  V30 11 2 10 12
M  V30 12 1 12 13
M  V30 13 2 13 14
M  V30 14 1 13 15
M  V30 15 1 5 2
M  V30 16 1 14 8
M  V30 17 1 1 16
M  V30 18 1 3 17
M  V30 19 1 3 18
M  V30 20 1 4 19
M  V30 21 1 4 20
M  V30 22 1 5 21
M  V30 23 1 5 22
M  V30 24 1 6 23
M  V30 25 1 6 24
M  V30 26 1 11 25
M  V30 27 1 11 26
M  V30 28 1 15 27
M  V30 29 1 15 28
M  V30 END BOND
M  V30 END CTAB
M  END
