
     RDKit          3D

  0  0  0  0  0  0  0  0  0  0999 V3000
M  V30 BEGIN CTAB
M  V30 COUNTS 50 53 0 0 0
M  V30 BEGIN ATOM
M  V30 1 C 5.1148 1.48389 2.88043 0
M  V30 2 O 5.91642 0.375253 2.56314 0
M  V30 3 C 5.53762 -0.417288 1.47813 0
M  V30 4 C 6.29414 -1.53231 1.11434 0
M  V30 5 C 5.87368 -2.27294 0.0404052 0
M  V30 6 N 4.77858 -1.97228 -0.665026 0
M  V30 7 C 4.05526 -0.892471 -0.304298 0
M  V30 8 N 4.45023 -0.163602 0.735556 0
M  V30 9 N 2.8816 -0.52473 -1.01635 0
M  V30 10 C 2.48548 -1.35427 -2.13665 0
M  V30 11 C 0.983434 -1.51592 -2.23336 0
M  V30 12 N 0.297021 -0.370717 -1.65201 0
M  V30 13 C 1.04549 0.863538 -1.62947 0
M  V30 14 C 2.15335 0.644458 -0.590361 0
M  V30 15 C -1.0215 -0.540005 -1.16168 0
M  V30 16 C -1.74713 0.462543 -0.561755 0
M  V30 17 C -3.04624 0.289508 -0.0825937 0
M  V30 18 N -3.58741 -0.922513 -0.227511 0
M  V30 19 C -2.89033 -1.92682 -0.816176 0
M  V30 20 N -1.64011 -1.74718 -1.27338 0
M  V30 21 N -3.44169 -3.22392 -0.982487 0
M  V30 22 C -3.70715 1.43782 0.53441 0 CFG=2
M  V30 23 C -4.35255 1.19771 1.88193 0
M  V30 24 C -5.46576 2.14721 1.43275 0 CFG=1
M  V30 25 C -5.11581 1.73037 0.000620411 0
M  V30 26 N -6.78238 1.77913 1.84935 0
M  V30 27 H 4.02106 1.22367 2.86961 0
M  V30 28 H 5.25963 2.25812 2.10903 0
M  V30 29 H 5.36951 1.88278 3.89145 0
M  V30 30 H 7.16471 -1.76789 1.67853 0
M  V30 31 H 6.43587 -3.14932 -0.275041 0
M  V30 32 H 2.90259 -2.37886 -2.03301 0
M  V30 33 H 2.8477 -0.849639 -3.07204 0
M  V30 34 H 0.714688 -1.53645 -3.30873 0
M  V30 35 H 0.614573 -2.427 -1.74881 0
M  V30 36 H 0.458843 1.76002 -1.44203 0
M  V30 37 H 1.50711 0.951722 -2.64229 0
M  V30 38 H 2.76368 1.56339 -0.573603 0
M  V30 39 H 1.65824 0.439774 0.384145 0
M  V30 40 H -1.26092 1.44726 -0.461658 0
M  V30 41 H -4.05075 -3.4241 -1.7988 0
M  V30 42 H -3.25807 -3.99408 -0.310231 0
M  V30 43 H -3.10034 2.35464 0.563995 0
M  V30 44 H -3.76719 1.55772 2.74549 0
M  V30 45 H -4.80115 0.1855 1.99662 0
M  V30 46 H -5.18479 3.21989 1.55508 0
M  V30 47 H -5.64053 0.80498 -0.238136 0
M  V30 48 H -5.15603 2.53762 -0.732024 0
M  V30 49 H -7.39196 1.70389 1.0089 0
M  V30 50 H -7.17553 2.60189 2.3955 0
M  V30 END ATOM
M  V30 BEGIN BOND
M  V30 1 1 1 2
M  V30 2 1 2 3
M  V30 3 2 3 4
M  V30 4 1 4 5
M  V30 5 2 5 6
M  V30 6 1 6 7
M  V30 7 2 7 8
M  V30 8 1 7 9
M  V30 9 1 9 10
M  V30 10 1 10 11
M  V30 11 1 11 12
M  V30 12 1 12 13
M  V30 13 1 13 14
M  V30 14 1 12 15
M  V30 15 2 15 16
M  V30 16 1 16 17
M  V30 17 2 17 18
M  V30 18 1 18 19
M  V30 19 2 19 20
M  V30 20 1 19 21
M  V30 21 1 17 22
M  V30 22 1 22 23
M  V30 23 1 23 24
M  V30 24 1 24 25
M  V30 25 1 24 26
M  V30 26 1 8 3
M  V30 27 1 14 9
M  V30 28 1 20 15
M  V30 29 1 25 22
M  V30 30 1 1 27
M  V30 31 1 1 28
M  V30 32 1 1 29
M  V30 33 1 4 30
M  V30 34 1 5 31
M  V30 35 1 10 32
M  V30 36 1 10 33
M  V30 37 1 11 34
M  V30 38 1 11 35
M  V30 39 1 13 36
M  V30 40 1 13 37
M  V30 41 1 14 38
M  V30 42 1 14 39
M  V30 43 1 16 40
M  V30 44 1 21 41
M  V30 45 1 21 42
M  V30 46 1 22 43 CFG=1
M  V30 47 1 23 44
M  V30 48 1 23 45
M  V30 49 1 24 46 CFG=3
M  V30 50 1 25 47
M  V30 51 1 25 48
M  V30 52 1 26 49
M  V30 53 1 26 50
M  V30 END BOND
M  V30 END CTAB
M  END
