
     RDKit          3D

  0  0  0  0  0  0  0  0  0  0999 V3000
M  V30 BEGIN CTAB
M  V30 COUNTS 25 26 0 0 0
M  V30 BEGIN ATOM
M  V30 1 C -3.53703 -0.00328674 0.468369 0
M  V30 2 O -2.67509 -0.035759 -0.642961 0
M  V30 3 C -1.31523 -0.0454568 -0.439493 0
M  V30 4 C -0.609492 1.14652 -0.361115 0
M  V30 5 N -1.27636 2.3971 -0.489213 0
M  V30 6 C 0.762216 1.10919 -0.155251 0
M  V30 7 C 1.42763 -0.0921533 -0.0284841 0
M  V30 8 C 0.692128 -1.24397 -0.112227 0
M  V30 9 C -0.673707 -1.27137 -0.315741 0
M  V30 10 N -1.35661 -2.50255 -0.389805 0
M  V30 11 C 2.87798 -0.151804 0.189709 0
M  V30 12 N 3.63132 -1.25686 0.327215 0
M  V30 13 N 4.90614 -0.907606 0.509936 0
M  V30 14 N 4.97262 0.417378 0.490042 0
M  V30 15 N 3.73689 0.872747 0.295044 0
M  V30 16 H -2.97219 0.144011 1.41807 0
M  V30 17 H -4.1656 -0.926757 0.549064 0
M  V30 18 H -4.28191 0.84238 0.39999 0
M  V30 19 H -2.2392 2.43787 -0.848527 0
M  V30 20 H -0.777948 3.27103 -0.214799 0
M  V30 21 H 1.35589 2.01353 -0.0870842 0
M  V30 22 H 1.2345 -2.19145 -0.00961823 0
M  V30 23 H -1.84256 -2.83549 0.454601 0
M  V30 24 H -1.38467 -3.06977 -1.24614 0
M  V30 25 H 3.51027 1.88253 0.238423 0
M  V30 END ATOM
M  V30 BEGIN BOND
M  V30 1 1 1 2
M  V30 2 1 2 3
M  V30 3 2 3 4
M  V30 4 1 4 5
M  V30 5 1 4 6
M  V30 6 2 6 7
M  V30 7 1 7 8
M  V30 8 2 8 9
M  V30 9 1 9 10
M  V30 10 1 7 11
M  V30 11 2 11 12
M  V30 12 1 12 13
M  V30 13 2 13 14
M  V30 14 1 14 15
M  V30 15 1 9 3
M  V30 16 1 15 11
M  V30 17 1 1 16
M  V30 18 1 1 17
M  V30 19 1 1 18
M  V30 20 1 5 19
M  V30 21 1 5 20
M  V30 22 1 6 21
M  V30 23 1 8 22
M  V30 24 1 10 23
M  V30 25 1 10 24
M  V30 26 1 15 25
M  V30 END BOND
M  V30 END CTAB
M  END
