
     RDKit          3D

  0  0  0  0  0  0  0  0  0  0999 V3000
M  V30 BEGIN CTAB
M  V30 COUNTS 26 26 0 0 0
M  V30 BEGIN ATOM
M  V30 1 N -4.63105 -0.665928 0.467496 0
M  V30 2 O -3.56174 -1.11157 -0.192843 0
M  V30 3 C -2.81269 0.127676 -0.414673 0
M  V30 4 C -1.4678 -0.122185 0.170471 0
M  V30 5 N -0.785975 1.17225 0.101109 0
M  V30 6 C 0.589997 1.29212 -0.259164 0
M  V30 7 O 1.12926 2.31443 -0.728771 0
M  V30 8 C 1.31375 0.0126769 -0.00328492 0
M  V30 9 C 2.78315 0.248718 -0.0626944 0
M  V30 10 O 3.54537 -0.727302 0.642095 0
M  V30 11 N 4.81795 -0.416529 0.674893 0
M  V30 12 N 0.740134 -1.09702 -0.712938 0
M  V30 13 C -0.716151 -1.1495 -0.538792 0
M  V30 14 O -1.24265 -2.19403 -1.06867 0
M  V30 15 H -4.20901 -0.0512421 1.29216 0
M  V30 16 H -5.49459 -0.330299 0.146237 0
M  V30 17 H -2.61649 0.22026 -1.55356 0
M  V30 18 H -3.28135 1.00252 -0.100303 0
M  V30 19 H -1.59235 -0.417745 1.26459 0
M  V30 20 H -1.29021 2.08062 0.328827 0
M  V30 21 H 1.06317 -0.286431 1.15307 0
M  V30 22 H 3.10496 0.0695712 -1.16215 0
M  V30 23 H 3.06262 1.28572 0.255986 0
M  V30 24 H 5.16442 0.311219 -0.0404962 0
M  V30 25 H 5.15861 -0.104622 1.63185 0
M  V30 26 H 1.22866 -1.75432 -1.29046 0
M  V30 END ATOM
M  V30 BEGIN BOND
M  V30 1 1 1 2
M  V30 2 1 2 3
M  V30 3 1 3 4
M  V30 4 1 4 5
M  V30 5 1 5 6
M  V30 6 2 6 7
M  V30 7 1 6 8
M  V30 8 1 8 9
M  V30 9 1 9 10
M  V30 10 1 10 11
M  V30 11 1 8 12
M  V30 12 1 12 13
M  V30 13 2 13 14
M  V30 14 1 13 4
M  V30 15 1 1 15
M  V30 16 1 1 16
M  V30 17 1 3 17
M  V30 18 1 3 18
M  V30 19 1 4 19
M  V30 20 1 5 20
M  V30 21 1 8 21
M  V30 22 1 9 22
M  V30 23 1 9 23
M  V30 24 1 11 24
M  V30 25 1 11 25
M  V30 26 1 12 26
M  V30 END BOND
M  V30 END CTAB
M  END
