
     RDKit          3D

  0  0  0  0  0  0  0  0  0  0999 V3000
M  V30 BEGIN CTAB
M  V30 COUNTS 23 24 0 0 0
M  V30 BEGIN ATOM
M  V30 1 I 5.95792 -0.187098 0.0391633 0
M  V30 2 C 3.83448 -0.136054 0.0536701 0
M  V30 3 C 3.116 -0.696851 1.08791 0
M  V30 4 C 1.73995 -0.635574 1.04721 0
M  V30 5 C 1.02662 -0.0421513 0.0260591 0
M  V30 6 C 1.78009 0.512884 -0.999663 0
M  V30 7 C 3.15739 0.466061 -0.98476 0
M  V30 8 C -0.427123 0.00651024 0.0118316 0
M  V30 9 N -1.06852 0.594944 -1.00427 0
M  V30 10 C -2.41715 0.668891 -1.06866 0
M  V30 11 N -3.06267 1.29792 -2.15686 0
M  V30 12 N -3.09601 0.114241 -0.0468173 0
M  V30 13 C -2.50295 -0.482155 0.985873 0
M  V30 14 N -1.13669 -0.530852 1.00441 0
M  V30 15 N -3.20339 -1.07127 2.07022 0
M  V30 16 H 3.67839 -1.16047 1.88541 0
M  V30 17 H 1.18005 -1.07869 1.86403 0
M  V30 18 H 1.24882 0.988988 -1.821 0
M  V30 19 H 3.74131 0.910783 -1.80564 0
M  V30 20 H -2.78597 2.24384 -2.44899 0
M  V30 21 H -3.81372 0.794628 -2.65214 0
M  V30 22 H -4.17175 -1.40567 1.89962 0
M  V30 23 H -2.77507 -1.17285 3.0134 0
M  V30 END ATOM
M  V30 BEGIN BOND
M  V30 1 1 1 2
M  V30 2 2 2 3
M  V30 3 1 3 4
M  V30 4 2 4 5
M  V30 5 1 5 6
M  V30 6 2 6 7
M  V30 7 1 5 8
M  V30 8 2 8 9
M  V30 9 1 9 10
M  V30 10 1 10 11
M  V30 11 2 10 12
M  V30 12 1 12 13
M  V30 13 2 13 14
M  V30 14 1 13 15
M  V30 15 1 7 2
M  V30 16 1 14 8
M  V30 17 1 3 16
M  V30 18 1 4 17
M  V30 19 1 6 18
M  V30 20 1 7 19
M  V30 21 1 11 20
M  V30 22 1 11 21
M  V30 23 1 15 22
M  V30 24 1 15 23
M  V30 END BOND
M  V30 END CTAB
M  END
