
     RDKit          3D

  0  0  0  0  0  0  0  0  0  0999 V3000
M  V30 BEGIN CTAB
M  V30 COUNTS 37 39 0 0 0
M  V30 BEGIN ATOM
M  V30 1 N -6.1097 1.99106 0.831763 0
M  V30 2 C -4.89112 1.36193 0.52734 0
M  V30 3 N -4.92637 0.00895809 0.245309 0
M  V30 4 C -3.83774 -0.707226 -0.0495381 0
M  V30 5 C -2.5849 -0.127574 -0.0887662 0
M  V30 6 C -2.55118 1.23533 0.196918 0
M  V30 7 N -1.31566 1.89326 0.176999 0
M  V30 8 N -3.67471 1.92608 0.490444 0
M  V30 9 C -1.4601 -0.855568 -0.415689 0
M  V30 10 O -0.180552 -0.251813 -0.412419 0
M  V30 11 C 0.898818 -1.04836 -0.735712 0
M  V30 12 C 2.21073 -0.437368 -0.420164 0
M  V30 13 C 3.03224 -1.14201 0.494116 0
M  V30 14 C 4.26031 -0.652995 0.83683 0
M  V30 15 C 4.73476 0.544296 0.303992 0
M  V30 16 C 3.92311 1.19999 -0.575196 0
M  V30 17 C 2.65422 0.726735 -0.952801 0
M  V30 18 C 6.04661 1.0469 0.789173 0
M  V30 19 F 7.01635 0.0324241 0.727 0
M  V30 20 F 6.53818 2.08873 0.0588482 0
M  V30 21 F 5.96865 1.45984 2.14101 0
M  V30 22 C -1.54837 -2.19223 -0.730413 0
M  V30 23 C -2.79889 -2.79771 -0.700145 0
M  V30 24 C -3.9118 -2.0549 -0.362749 0
M  V30 25 H -7.0056 1.5204 1.04145 0
M  V30 26 H -6.13127 3.05672 0.824563 0
M  V30 27 H -0.832804 2.09375 1.08457 0
M  V30 28 H -0.837119 2.20051 -0.704098 0
M  V30 29 H 0.856329 -2.05611 -0.267631 0
M  V30 30 H 0.908467 -1.13566 -1.86729 0
M  V30 31 H 2.64985 -2.04959 0.910281 0
M  V30 32 H 4.91843 -1.16749 1.53603 0
M  V30 33 H 4.28245 2.14628 -0.967258 0
M  V30 34 H 2.10519 1.33803 -1.66675 0
M  V30 35 H -0.693391 -2.81575 -1.01428 0
M  V30 36 H -2.84454 -3.82711 -0.940554 0
M  V30 37 H -4.86886 -2.55179 -0.345185 0
M  V30 END ATOM
M  V30 BEGIN BOND
M  V30 1 1 1 2
M  V30 2 2 2 3
M  V30 3 1 3 4
M  V30 4 2 4 5
M  V30 5 1 5 6
M  V30 6 1 6 7
M  V30 7 2 6 8
M  V30 8 1 5 9
M  V30 9 1 9 10
M  V30 10 1 10 11
M  V30 11 1 11 12
M  V30 12 2 12 13
M  V30 13 1 13 14
M  V30 14 2 14 15
M  V30 15 1 15 16
M  V30 16 2 16 17
M  V30 17 1 15 18
M  V30 18 1 18 19
M  V30 19 1 18 20
M  V30 20 1 18 21
M  V30 21 2 9 22
M  V30 22 1 22 23
M  V30 23 2 23 24
M  V30 24 1 8 2
M  V30 25 1 17 12
M  V30 26 1 24 4
M  V30 27 1 1 25
M  V30 28 1 1 26
M  V30 29 1 7 27
M  V30 30 1 7 28
M  V30 31 1 11 29
M  V30 32 1 11 30
M  V30 33 1 13 31
M  V30 34 1 14 32
M  V30 35 1 16 33
M  V30 36 1 17 34
M  V30 37 1 22 35
M  V30 38 1 23 36
M  V30 39 1 24 37
M  V30 END BOND
M  V30 END CTAB
M  END
