
     RDKit          3D

  0  0  0  0  0  0  0  0  0  0999 V3000
M  V30 BEGIN CTAB
M  V30 COUNTS 25 26 0 0 0
M  V30 BEGIN ATOM
M  V30 1 N -0.694998 1.87421 -0.819483 0
M  V30 2 C -1.38763 1.03252 0.0842944 0
M  V30 3 C -1.37052 -0.418339 -0.196663 0
M  V30 4 C -2.18212 -1.10798 0.914224 0
M  V30 5 C -1.37169 -2.39994 1.05941 0
M  V30 6 O -0.0681687 -1.85889 1.06678 0
M  V30 7 C -0.105081 -1.13963 -0.152356 0
M  V30 8 C 1.12849 -0.392856 -0.330847 0
M  V30 9 O 1.89354 -0.262402 -1.38936 0
M  V30 10 N 2.91927 0.501429 -1.13068 0
M  V30 11 C 2.84857 0.904644 0.150211 0
M  V30 12 N 1.7319 0.345974 0.646057 0
M  V30 13 N 3.75475 1.7461 0.853437 0
M  V30 14 H -0.195524 2.67639 -0.376557 0
M  V30 15 H -1.19667 2.12056 -1.69107 0
M  V30 16 H -2.44502 1.37148 0.122751 0
M  V30 17 H -0.991488 1.21158 1.12517 0
M  V30 18 H -1.95479 -0.612808 -1.12962 0
M  V30 19 H -2.05528 -0.522496 1.83035 0
M  V30 20 H -3.2131 -1.29189 0.61461 0
M  V30 21 H -1.61832 -2.91481 1.99034 0
M  V30 22 H -1.49126 -3.03225 0.149133 0
M  V30 23 H -0.121377 -1.95136 -0.94079 0
M  V30 24 H 4.44797 2.34122 0.35084 0
M  V30 25 H 3.73854 1.77955 1.87975 0
M  V30 END ATOM
M  V30 BEGIN BOND
M  V30 1 1 1 2
M  V30 2 1 2 3
M  V30 3 1 3 4
M  V30 4 1 4 5
M  V30 5 1 5 6
M  V30 6 1 6 7
M  V30 7 1 7 8
M  V30 8 1 8 9
M  V30 9 1 9 10
M  V30 10 2 10 11
M  V30 11 1 11 12
M  V30 12 1 11 13
M  V30 13 1 7 3
M  V30 14 2 12 8
M  V30 15 1 1 14
M  V30 16 1 1 15
M  V30 17 1 2 16
M  V30 18 1 2 17
M  V30 19 1 3 18
M  V30 20 1 4 19
M  V30 21 1 4 20
M  V30 22 1 5 21
M  V30 23 1 5 22
M  V30 24 1 7 23
M  V30 25 1 13 24
M  V30 26 1 13 25
M  V30 END BOND
M  V30 END CTAB
M  END
