
     RDKit          3D

  0  0  0  0  0  0  0  0  0  0999 V3000
M  V30 BEGIN CTAB
M  V30 COUNTS 24 24 0 0 0
M  V30 BEGIN ATOM
M  V30 1 C -3.12449 0.563623 0.193284 0
M  V30 2 C -2.15316 -0.49181 0.651841 0
M  V30 3 C -1.36656 -1.09642 -0.468425 0
M  V30 4 C -0.536491 -0.116515 -1.23422 0
M  V30 5 C 0.45959 0.562495 -0.361058 0
M  V30 6 N 0.333498 1.70056 0.34502 0
M  V30 7 N 1.4592 1.95669 0.990728 0
M  V30 8 C 2.35681 0.972807 0.712936 0
M  V30 9 N 1.70989 0.125884 -0.124963 0
M  V30 10 N 2.2656 -1.03518 -0.665139 0
M  V30 11 N 3.67922 0.865108 1.19883 0
M  V30 12 F -0.559984 -2.07448 0.0307538 0
M  V30 13 F -2.26311 -1.68158 -1.34429 0
M  V30 14 H -4.17681 0.164183 0.112387 0
M  V30 15 H -2.89099 0.975746 -0.803968 0
M  V30 16 H -3.12745 1.39534 0.913789 0
M  V30 17 H -1.50324 -0.0982061 1.46893 0
M  V30 18 H -2.75325 -1.30387 1.11367 0
M  V30 19 H 0.0287049 -0.68896 -2.00025 0
M  V30 20 H -1.14741 0.619897 -1.80133 0
M  V30 21 H 2.65576 -1.73528 -0.0075668 0
M  V30 22 H 2.30947 -1.23569 -1.68858 0
M  V30 23 H 3.97402 1.4057 2.02841 0
M  V30 24 H 4.37118 0.249963 0.7392 0
M  V30 END ATOM
M  V30 BEGIN BOND
M  V30 1 1 1 2
M  V30 2 1 2 3
M  V30 3 1 3 4
M  V30 4 1 4 5
M  V30 5 2 5 6
M  V30 6 1 6 7
M  V30 7 2 7 8
M  V30 8 1 8 9
M  V30 9 1 9 10
M  V30 10 1 8 11
M  V30 11 1 3 12
M  V30 12 1 3 13
M  V30 13 1 9 5
M  V30 14 1 1 14
M  V30 15 1 1 15
M  V30 16 1 1 16
M  V30 17 1 2 17
M  V30 18 1 2 18
M  V30 19 1 4 19
M  V30 20 1 4 20
M  V30 21 1 10 21
M  V30 22 1 10 22
M  V30 23 1 11 23
M  V30 24 1 11 24
M  V30 END BOND
M  V30 END CTAB
M  END
