
     RDKit          3D

  0  0  0  0  0  0  0  0  0  0999 V3000
M  V30 BEGIN CTAB
M  V30 COUNTS 32 33 0 0 0
M  V30 BEGIN ATOM
M  V30 1 C 5.57766 0.560925 -0.0506443 0
M  V30 2 O 4.52323 1.27864 -0.598002 0
M  V30 3 C 3.19041 0.909867 -0.533339 0
M  V30 4 C 2.78664 -0.25674 0.106831 0
M  V30 5 C 1.44447 -0.596123 0.149946 0
M  V30 6 C 0.487675 0.200989 -0.430418 0
M  V30 7 C 0.854457 1.36331 -1.07029 0
M  V30 8 C 2.20092 1.68259 -1.10193 0
M  V30 9 Cl 2.67139 3.1664 -1.92989 0
M  V30 10 C -0.892322 -0.205303 -0.342669 0
M  V30 11 C -1.75925 0.518919 0.45287 0
M  V30 12 C -1.31948 1.70986 1.17083 0
M  V30 13 N -0.970435 2.67358 1.72354 0
M  V30 14 C -3.0559 0.0635834 0.52018 0
M  V30 15 N -4.00348 0.728658 1.33 0
M  V30 16 N -3.46665 -1.03683 -0.158832 0
M  V30 17 C -2.57814 -1.72502 -0.933283 0
M  V30 18 O -2.98527 -2.74349 -1.54983 0
M  V30 19 C -1.27067 -1.3298 -1.04626 0
M  V30 20 C -0.394769 -2.11437 -1.86473 0
M  V30 21 N 0.320822 -2.75957 -2.50591 0
M  V30 22 N -4.77071 -1.48724 -0.107197 0
M  V30 23 H 6.4725 0.773929 -0.713283 0
M  V30 24 H 5.4214 -0.524486 0.0528775 0
M  V30 25 H 5.89356 0.925192 0.954226 0
M  V30 26 H 3.53904 -0.875337 0.5619 0
M  V30 27 H 1.19288 -1.53634 0.674118 0
M  V30 28 H 0.101486 2.02975 -1.54451 0
M  V30 29 H -3.6252 1.3938 2.07119 0
M  V30 30 H -5.02157 0.636441 1.27452 0
M  V30 31 H -4.95576 -2.50368 0.156552 0
M  V30 32 H -5.60894 -0.922113 -0.304015 0
M  V30 END ATOM
M  V30 BEGIN BOND
M  V30 1 1 1 2
M  V30 2 1 2 3
M  V30 3 2 3 4
M  V30 4 1 4 5
M  V30 5 2 5 6
M  V30 6 1 6 7
M  V30 7 2 7 8
M  V30 8 1 8 9
M  V30 9 1 6 10
M  V30 10 1 10 11
M  V30 11 1 11 12
M  V30 12 3 12 13
M  V30 13 2 11 14
M  V30 14 1 14 15
M  V30 15 1 14 16
M  V30 16 1 16 17
M  V30 17 2 17 18
M  V30 18 1 17 19
M  V30 19 1 19 20
M  V30 20 3 20 21
M  V30 21 1 16 22
M  V30 22 1 8 3
M  V30 23 2 19 10
M  V30 24 1 1 23
M  V30 25 1 1 24
M  V30 26 1 1 25
M  V30 27 1 4 26
M  V30 28 1 5 27
M  V30 29 1 7 28
M  V30 30 1 15 29
M  V30 31 1 15 30
M  V30 32 1 22 31
M  V30 33 1 22 32
M  V30 END BOND
M  V30 END CTAB
M  END
