
     RDKit          3D

  0  0  0  0  0  0  0  0  0  0999 V3000
M  V30 BEGIN CTAB
M  V30 COUNTS 24 24 0 0 0
M  V30 BEGIN ATOM
M  V30 1 C -0.999421 2.38689 -0.738024 0
M  V30 2 C -0.166968 1.2066 -0.374566 0
M  V30 3 C 1.21082 1.24024 -0.354674 0
M  V30 4 C 1.96482 0.126343 -0.0124927 0
M  V30 5 N 3.38571 0.187656 6.64418e-05 0 CHG=1
M  V30 6 O 3.96989 -0.533657 0.832134 0
M  V30 7 O 4.0978 0.979717 -0.836707 0 CHG=-1
M  V30 8 C 1.32734 -1.05521 0.31947 0
M  V30 9 C -0.036038 -1.11256 0.306865 0
M  V30 10 C -0.770746 0.000228052 -0.0345792 0
M  V30 11 S -2.49606 -0.0802666 -0.0484128 0
M  V30 12 O -3.11939 0.865552 0.941539 0
M  V30 13 O -3.04078 0.244696 -1.4327 0
M  V30 14 N -2.99198 -1.67067 0.406874 0
M  V30 15 N 2.12872 -2.16632 0.661918 0
M  V30 16 H -1.57112 2.20244 -1.69191 0
M  V30 17 H -0.354833 3.2637 -0.970078 0
M  V30 18 H -1.66585 2.66439 0.0975362 0
M  V30 19 H 1.70317 2.18163 -0.619502 0
M  V30 20 H -0.507872 -2.06297 0.574718 0
M  V30 21 H -3.87845 -1.90282 -0.0525392 0
M  V30 22 H -3.05831 -1.78189 1.44584 0
M  V30 23 H 2.40857 -2.86224 -0.0574042 0
M  V30 24 H 2.461 -2.32147 1.63663 0
M  V30 END ATOM
M  V30 BEGIN BOND
M  V30 1 1 1 2
M  V30 2 2 2 3
M  V30 3 1 3 4
M  V30 4 1 4 5
M  V30 5 2 5 6
M  V30 6 1 5 7
M  V30 7 2 4 8
M  V30 8 1 8 9
M  V30 9 2 9 10
M  V30 10 1 10 11
M  V30 11 2 11 12
M  V30 12 2 11 13
M  V30 13 1 11 14
M  V30 14 1 8 15
M  V30 15 1 10 2
M  V30 16 1 1 16
M  V30 17 1 1 17
M  V30 18 1 1 18
M  V30 19 1 3 19
M  V30 20 1 9 20
M  V30 21 1 14 21
M  V30 22 1 14 22
M  V30 23 1 15 23
M  V30 24 1 15 24
M  V30 END BOND
M  V30 END CTAB
M  END
