
     RDKit          3D

  0  0  0  0  0  0  0  0  0  0999 V3000
M  V30 BEGIN CTAB
M  V30 COUNTS 22 21 0 0 0
M  V30 BEGIN ATOM
M  V30 1 C 2.82669 0.707965 -1.07198 0
M  V30 2 O 1.76492 -0.167867 -0.9154 0
M  V30 3 C 1.22134 -0.00618355 0.353227 0
M  V30 4 C 0.0725788 -0.917681 0.592978 0
M  V30 5 C -1.08753 -0.795046 -0.324878 0
M  V30 6 C -1.77319 0.517724 -0.368525 0
M  V30 7 N -0.995494 1.64191 -0.771989 0
M  V30 8 N -2.08664 -1.77696 0.13462 0
M  V30 9 H 3.26478 0.581421 -2.08707 0
M  V30 10 H 2.49172 1.76537 -0.968881 0
M  V30 11 H 3.66278 0.505055 -0.360639 0
M  V30 12 H 1.02881 1.03691 0.644271 0
M  V30 13 H 2.05156 -0.351359 1.05111 0
M  V30 14 H 0.427905 -1.97908 0.518206 0
M  V30 15 H -0.302195 -0.752612 1.64111 0
M  V30 16 H -0.757149 -1.16619 -1.32071 0
M  V30 17 H -2.2361 0.678236 0.639297 0
M  V30 18 H -2.61775 0.411862 -1.11378 0
M  V30 19 H -0.86529 2.35357 -0.0156866 0
M  V30 20 H -1.4251 2.15508 -1.57136 0
M  V30 21 H -1.70836 -2.73851 0.134785 0
M  V30 22 H -2.95828 -1.70362 -0.428648 0
M  V30 END ATOM
M  V30 BEGIN BOND
M  V30 1 1 1 2
M  V30 2 1 2 3
M  V30 3 1 3 4
M  V30 4 1 4 5
M  V30 5 1 5 6
M  V30 6 1 6 7
M  V30 7 1 5 8
M  V30 8 1 1 9
M  V30 9 1 1 10
M  V30 10 1 1 11
M  V30 11 1 3 12
M  V30 12 1 3 13
M  V30 13 1 4 14
M  V30 14 1 4 15
M  V30 15 1 5 16
M  V30 16 1 6 17
M  V30 17 1 6 18
M  V30 18 1 7 19
M  V30 19 1 7 20
M  V30 20 1 8 21
M  V30 21 1 8 22
M  V30 END BOND
M  V30 END CTAB
M  END
