
     RDKit          3D

  0  0  0  0  0  0  0  0  0  0999 V3000
M  V30 BEGIN CTAB
M  V30 COUNTS 27 27 0 0 0
M  V30 BEGIN ATOM
M  V30 1 C 3.82808 -0.925798 0.775378 0
M  V30 2 O 3.41142 -0.500715 -0.483216 0
M  V30 3 N 2.22361 0.210058 -0.382952 0
M  V30 4 C 1.02593 -0.481099 -0.334358 0
M  V30 5 O 1.2021 -1.78779 -0.43212 0
M  V30 6 C -0.342521 -0.0918971 -0.204437 0
M  V30 7 C -0.75788 1.19602 0.0130763 0
M  V30 8 C -2.11067 1.50711 0.162794 0
M  V30 9 C -3.08642 0.548516 0.100878 0
M  V30 10 C -2.66528 -0.739119 -0.116395 0
M  V30 11 C -1.34304 -1.07932 -0.268241 0
M  V30 12 N -0.982029 -2.46115 -0.502063 0
M  V30 13 N -4.45375 0.893226 0.257521 0
M  V30 14 C 2.37976 1.6244 -0.373401 0
M  V30 15 H 3.81534 -2.04047 0.770633 0
M  V30 16 H 4.85738 -0.620537 0.986163 0
M  V30 17 H 3.14861 -0.529074 1.55684 0
M  V30 18 H -0.0750756 2.04342 0.0963057 0
M  V30 19 H -2.40106 2.52996 0.333309 0
M  V30 20 H -3.43524 -1.50768 -0.165194 0
M  V30 21 H -0.763146 -2.81187 -1.47686 0
M  V30 22 H -0.951113 -3.0784 0.328405 0
M  V30 23 H -4.76614 1.81281 0.637372 0
M  V30 24 H -5.15566 0.169415 -0.0286718 0
M  V30 25 H 3.4281 1.94224 -0.639465 0
M  V30 26 H 1.77304 2.08297 -1.21031 0
M  V30 27 H 2.19567 2.09479 0.599003 0
M  V30 END ATOM
M  V30 BEGIN BOND
M  V30 1 1 1 2
M  V30 2 1 2 3
M  V30 3 1 3 4
M  V30 4 2 4 5
M  V30 5 1 4 6
M  V30 6 2 6 7
M  V30 7 1 7 8
M  V30 8 2 8 9
M  V30 9 1 9 10
M  V30 10 2 10 11
M  V30 11 1 11 12
M  V30 12 1 9 13
M  V30 13 1 3 14
M  V30 14 1 11 6
M  V30 15 1 1 15
M  V30 16 1 1 16
M  V30 17 1 1 17
M  V30 18 1 7 18
M  V30 19 1 8 19
M  V30 20 1 10 20
M  V30 21 1 12 21
M  V30 22 1 12 22
M  V30 23 1 13 23
M  V30 24 1 13 24
M  V30 25 1 14 25
M  V30 26 1 14 26
M  V30 27 1 14 27
M  V30 END BOND
M  V30 END CTAB
M  END
