
     RDKit          3D

  0  0  0  0  0  0  0  0  0  0999 V3000
M  V30 BEGIN CTAB
M  V30 COUNTS 32 34 0 0 0
M  V30 BEGIN ATOM
M  V30 1 N 4.8915 -1.33532 -2.68238 0
M  V30 2 C 4.3907 -1.01781 -1.39215 0
M  V30 3 C 5.22688 -0.63096 -0.369725 0
M  V30 4 C 4.65617 -0.336703 0.866605 0
M  V30 5 N 5.50253 0.0638835 1.93251 0
M  V30 6 N 3.32351 -0.44083 1.01231 0
M  V30 7 C 2.53051 -0.82081 -0.00266572 0
M  V30 8 N 3.06515 -1.10503 -1.19048 0
M  V30 9 S 0.741265 -0.951472 0.22444 0
M  V30 10 C -0.0351373 0.653037 -0.163776 0
M  V30 11 N -1.46297 0.498359 0.0316134 0
M  V30 12 C -2.228 0.713718 1.2125 0
M  V30 13 O -1.76413 1.08636 2.31337 0
M  V30 14 C -3.63459 0.432677 0.939378 0
M  V30 15 C -3.73222 0.0526005 -0.381289 0
M  V30 16 C -2.38363 0.0863128 -0.970609 0
M  V30 17 O -2.15914 -0.213579 -2.17164 0
M  V30 18 C -4.95459 -0.277265 -0.928113 0
M  V30 19 C -6.07601 -0.223542 -0.143312 0
M  V30 20 C -6.00595 0.155403 1.18793 0
M  V30 21 C -4.7892 0.475704 1.7031 0
M  V30 22 H 5.5685 -2.09559 -2.78047 0
M  V30 23 H 4.58921 -0.815841 -3.53348 0
M  V30 24 H 6.29002 -0.56702 -0.552308 0
M  V30 25 H 6.37363 0.60473 1.77574 0
M  V30 26 H 5.2298 -0.199267 2.89686 0
M  V30 27 H 0.144794 0.877849 -1.25226 0
M  V30 28 H 0.385299 1.46997 0.435543 0
M  V30 29 H -5.03075 -0.575403 -1.96413 0
M  V30 30 H -7.03179 -0.478688 -0.561627 0
M  V30 31 H -6.90993 0.182356 1.76164 0
M  V30 32 H -4.71143 0.77615 2.74689 0
M  V30 END ATOM
M  V30 BEGIN BOND
M  V30 1 1 1 2
M  V30 2 2 2 3
M  V30 3 1 3 4
M  V30 4 1 4 5
M  V30 5 2 4 6
M  V30 6 1 6 7
M  V30 7 2 7 8
M  V30 8 1 7 9
M  V30 9 1 9 10
M  V30 10 1 10 11
M  V30 11 1 11 12
M  V30 12 2 12 13
M  V30 13 1 12 14
M  V30 14 2 14 15
M  V30 15 1 15 16
M  V30 16 2 16 17
M  V30 17 1 15 18
M  V30 18 2 18 19
M  V30 19 1 19 20
M  V30 20 2 20 21
M  V30 21 1 8 2
M  V30 22 1 16 11
M  V30 23 1 21 14
M  V30 24 1 1 22
M  V30 25 1 1 23
M  V30 26 1 3 24
M  V30 27 1 5 25
M  V30 28 1 5 26
M  V30 29 1 10 27
M  V30 30 1 10 28
M  V30 31 1 18 29
M  V30 32 1 19 30
M  V30 33 1 20 31
M  V30 34 1 21 32
M  V30 END BOND
M  V30 END CTAB
M  END
