
     RDKit          3D

  0  0  0  0  0  0  0  0  0  0999 V3000
M  V30 BEGIN CTAB
M  V30 COUNTS 55 58 0 0 0
M  V30 BEGIN ATOM
M  V30 1 C -7.37275 -0.349359 0.393612 0
M  V30 2 C -6.84548 0.965676 0.931762 0
M  V30 3 C -5.67232 1.44786 0.1812 0
M  V30 4 C -5.78996 2.45297 -0.737693 0
M  V30 5 C -4.73448 2.93695 -1.47166 0
M  V30 6 C -3.51852 2.37798 -1.26181 0
M  V30 7 C -3.37023 1.34393 -0.32323 0
M  V30 8 C -4.41513 0.852566 0.414743 0
M  V30 9 N -4.31106 -0.172906 1.36986 0
M  V30 10 C -3.15848 -0.904839 1.71721 0
M  V30 11 N -1.95063 -0.751562 1.19414 0
M  V30 12 C -0.907176 -1.47167 1.55988 0
M  V30 13 C 0.414824 -1.20972 0.898542 0
M  V30 14 S 1.24777 0.0215729 1.88755 0
M  V30 15 C 2.78565 0.598634 1.2474 0
M  V30 16 N 3.63367 1.49457 1.78357 0
M  V30 17 N 4.64244 1.64744 0.975304 0
M  V30 18 C 4.50558 0.84864 -0.146363 0
M  V30 19 N 3.36222 0.229599 0.0610723 0
M  V30 20 N 2.7402 -0.668345 -0.818758 0
M  V30 21 C 5.47705 0.901507 -1.20563 0
M  V30 22 C 6.27268 2.06381 -1.34425 0
M  V30 23 C 7.24643 2.23757 -2.26079 0
M  V30 24 C 7.5167 1.21768 -3.15402 0
M  V30 25 C 6.78614 0.062262 -3.07808 0
M  V30 26 C 5.77004 -0.0847247 -2.09987 0
M  V30 27 O 5.07664 -1.2824 -2.07681 0
M  V30 28 C 5.34297 -2.33202 -2.97889 0
M  V30 29 N -1.03794 -2.41117 2.50157 0
M  V30 30 C -2.24859 -2.63349 3.09176 0
M  V30 31 N -3.26929 -1.88338 2.69023 0
M  V30 32 N -2.30998 -3.64261 4.07873 0
M  V30 33 H -6.64697 -0.756928 -0.332619 0
M  V30 34 H -7.54883 -1.0665 1.22969 0
M  V30 35 H -8.34627 -0.224476 -0.111805 0
M  V30 36 H -7.67458 1.72246 0.783929 0
M  V30 37 H -6.72107 0.898956 2.01355 0
M  V30 38 H -6.77732 2.87807 -0.879883 0
M  V30 39 H -4.86204 3.729 -2.18697 0
M  V30 40 H -2.67189 2.75179 -1.8369 0
M  V30 41 H -2.36212 0.987303 -0.247847 0
M  V30 42 H -5.21213 -0.437407 1.90904 0
M  V30 43 H 1.00801 -2.15826 0.871437 0
M  V30 44 H 0.249703 -0.889047 -0.139011 0
M  V30 45 H 2.67048 -1.69631 -0.671806 0
M  V30 46 H 2.28882 -0.327388 -1.71861 0
M  V30 47 H 6.06485 2.8592 -0.654792 0
M  V30 48 H 7.85066 3.1403 -2.35623 0
M  V30 49 H 8.28446 1.30328 -3.90846 0
M  V30 50 H 6.95438 -0.764048 -3.74852 0
M  V30 51 H 6.34308 -2.75561 -2.8682 0
M  V30 52 H 4.60982 -3.15502 -2.85707 0
M  V30 53 H 5.21245 -1.95414 -4.02929 0
M  V30 54 H -1.82118 -3.43968 4.99692 0
M  V30 55 H -2.80128 -4.54854 3.9433 0
M  V30 END ATOM
M  V30 BEGIN BOND
M  V30 1 1 1 2
M  V30 2 1 2 3
M  V30 3 2 3 4
M  V30 4 1 4 5
M  V30 5 2 5 6
M  V30 6 1 6 7
M  V30 7 2 7 8
M  V30 8 1 8 9
M  V30 9 1 9 10
M  V30 10 2 10 11
M  V30 11 1 11 12
M  V30 12 1 12 13
M  V30 13 1 13 14
M  V30 14 1 14 15
M  V30 15 2 15 16
M  V30 16 1 16 17
M  V30 17 2 17 18
M  V30 18 1 18 19
M  V30 19 1 19 20
M  V30 20 1 18 21
M  V30 21 2 21 22
M  V30 22 1 22 23
M  V30 23 2 23 24
M  V30 24 1 24 25
M  V30 25 2 25 26
M  V30 26 1 26 27
M  V30 27 1 27 28
M  V30 28 2 12 29
M  V30 29 1 29 30
M  V30 30 2 30 31
M  V30 31 1 30 32
M  V30 32 1 8 3
M  V30 33 1 31 10
M  V30 34 1 19 15
M  V30 35 1 26 21
M  V30 36 1 1 33
M  V30 37 1 1 34
M  V30 38 1 1 35
M  V30 39 1 2 36
M  V30 40 1 2 37
M  V30 41 1 4 38
M  V30 42 1 5 39
M  V30 43 1 6 40
M  V30 44 1 7 41
M  V30 45 1 9 42
M  V30 46 1 13 43
M  V30 47 1 13 44
M  V30 48 1 20 45
M  V30 49 1 20 46
M  V30 50 1 22 47
M  V30 51 1 23 48
M  V30 52 1 24 49
M  V30 53 1 25 50
M  V30 54 1 28 51
M  V30 55 1 28 52
M  V30 56 1 28 53
M  V30 57 1 32 54
M  V30 58 1 32 55
M  V30 END BOND
M  V30 END CTAB
M  END
