
     RDKit          3D

  0  0  0  0  0  0  0  0  0  0999 V3000
M  V30 BEGIN CTAB
M  V30 COUNTS 41 42 0 0 0
M  V30 BEGIN ATOM
M  V30 1 C -6.20304 0.931204 -0.0199201 0
M  V30 2 C -4.87947 0.105548 -0.00598847 0
M  V30 3 O -3.82561 0.950981 -0.160052 0
M  V30 4 C -2.48896 0.640728 -0.176033 0
M  V30 5 C -1.93583 -0.614819 -0.0424166 0
M  V30 6 C -0.586081 -0.793605 -0.0582492 0
M  V30 7 C 0.0501853 -2.08567 0.261552 0
M  V30 8 C -0.5313 -3.19863 -0.628804 0
M  V30 9 C -0.465484 -2.55521 1.66631 0
M  V30 10 C 0.317579 0.290668 -0.217894 0
M  V30 11 O 1.60871 0.051311 -0.237266 0
M  V30 12 C 2.83322 0.420832 -0.390301 0
M  V30 13 C 3.73538 -0.152697 -1.30938 0
M  V30 14 N 4.97662 0.286152 -1.38204 0
M  V30 15 C 5.46482 1.27486 -0.619231 0
M  V30 16 N 6.83257 1.69177 -0.740815 0
M  V30 17 N 4.67031 1.85299 0.256017 0
M  V30 18 C 3.38131 1.4666 0.398916 0
M  V30 19 N 2.60543 2.15946 1.37125 0
M  V30 20 C -0.235668 1.54723 -0.355683 0
M  V30 21 C -1.58801 1.70909 -0.334132 0
M  V30 22 I -2.36778 3.67034 -0.541452 0
M  V30 23 H -5.93892 1.90905 0.445228 0
M  V30 24 H -6.56919 0.978264 -1.04018 0
M  V30 25 H -6.92294 0.455823 0.658017 0
M  V30 26 H -4.9059 -0.428045 0.980838 0
M  V30 27 H -4.96318 -0.637497 -0.859964 0
M  V30 28 H -2.63507 -1.43173 0.053712 0
M  V30 29 H 1.11135 -2.02751 0.322864 0
M  V30 30 H 0.35762 -3.89635 -0.807316 0
M  V30 31 H -1.38914 -3.70696 -0.210237 0
M  V30 32 H -0.827866 -2.71385 -1.61162 0
M  V30 33 H 0.0178002 -3.52534 1.82856 0
M  V30 34 H -0.219185 -1.8761 2.46682 0
M  V30 35 H -1.56431 -2.73487 1.60003 0
M  V30 36 H 3.32292 -0.950252 -1.90947 0
M  V30 37 H 7.21459 2.37478 -0.0430718 0
M  V30 38 H 7.46986 1.33344 -1.48472 0
M  V30 39 H 2.26345 3.08957 1.12846 0
M  V30 40 H 2.41604 1.69817 2.25197 0
M  V30 41 H 0.393168 2.44026 -0.504311 0
M  V30 END ATOM
M  V30 BEGIN BOND
M  V30 1 1 1 2
M  V30 2 1 2 3
M  V30 3 1 3 4
M  V30 4 2 4 5
M  V30 5 1 5 6
M  V30 6 1 6 7
M  V30 7 1 7 8
M  V30 8 1 7 9
M  V30 9 2 6 10
M  V30 10 1 10 11
M  V30 11 1 11 12
M  V30 12 2 12 13
M  V30 13 1 13 14
M  V30 14 2 14 15
M  V30 15 1 15 16
M  V30 16 1 15 17
M  V30 17 2 17 18
M  V30 18 1 18 19
M  V30 19 1 10 20
M  V30 20 2 20 21
M  V30 21 1 21 22
M  V30 22 1 21 4
M  V30 23 1 18 12
M  V30 24 1 1 23
M  V30 25 1 1 24
M  V30 26 1 1 25
M  V30 27 1 2 26
M  V30 28 1 2 27
M  V30 29 1 5 28
M  V30 30 1 7 29
M  V30 31 1 8 30
M  V30 32 1 8 31
M  V30 33 1 8 32
M  V30 34 1 9 33
M  V30 35 1 9 34
M  V30 36 1 9 35
M  V30 37 1 13 36
M  V30 38 1 16 37
M  V30 39 1 16 38
M  V30 40 1 19 39
M  V30 41 1 19 40
M  V30 42 1 20 41
M  V30 END BOND
M  V30 END CTAB
M  END
