
     RDKit          3D

  0  0  0  0  0  0  0  0  0  0999 V3000
M  V30 BEGIN CTAB
M  V30 COUNTS 51 53 0 0 0
M  V30 BEGIN ATOM
M  V30 1 N -2.77595 2.91244 -0.930267 0
M  V30 2 C -3.79487 2.04868 -1.3957 0
M  V30 3 C -3.94816 0.706104 -0.687185 0
M  V30 4 C -5.1424 0.0720445 -1.43271 0
M  V30 5 C -5.57052 -1.16559 -0.722488 0
M  V30 6 C -6.00502 -0.815677 0.673048 0
M  V30 7 C -4.90731 -0.148721 1.46705 0
M  V30 8 C -4.30714 1.01562 0.723415 0
M  V30 9 C -2.81223 -0.207393 -0.854375 0
M  V30 10 C -1.47811 0.144337 -0.371875 0
M  V30 11 O -1.222 1.07834 0.392738 0
M  V30 12 N -0.390896 -0.671143 -0.834095 0
M  V30 13 C 0.959355 -0.538564 -0.529809 0
M  V30 14 C 1.52513 0.585206 -0.0246505 0
M  V30 15 C 2.89762 0.654852 0.288649 0
M  V30 16 C 3.70001 -0.423854 0.0867548 0
M  V30 17 C 3.15447 -1.56429 -0.420579 0
M  V30 18 C 1.82741 -1.63071 -0.722883 0
M  V30 19 C 5.13697 -0.354847 0.413453 0
M  V30 20 N 6.00758 -1.35764 0.252186 0
M  V30 21 N 7.20831 -0.971337 0.638217 0
M  V30 22 C 7.11199 0.298301 1.05451 0
M  V30 23 N 5.81899 0.671148 0.910084 0
M  V30 24 C 8.245 1.10267 1.57004 0
M  V30 25 N 9.45378 0.31536 1.55364 0
M  V30 26 H -3.03069 3.54845 -0.165352 0
M  V30 27 H -2.39434 3.45632 -1.73849 0
M  V30 28 H -4.77097 2.62228 -1.29283 0
M  V30 29 H -3.74323 1.87753 -2.51409 0
M  V30 30 H -4.77941 -0.0998208 -2.45972 0
M  V30 31 H -5.98748 0.787933 -1.38866 0
M  V30 32 H -6.50178 -1.5594 -1.23187 0
M  V30 33 H -4.82199 -1.98609 -0.695852 0
M  V30 34 H -6.24332 -1.77562 1.2183 0
M  V30 35 H -6.93279 -0.242451 0.654229 0
M  V30 36 H -4.14745 -0.889569 1.79041 0
M  V30 37 H -5.3734 0.254315 2.39026 0
M  V30 38 H -3.41939 1.35451 1.27218 0
M  V30 39 H -5.02893 1.88103 0.783359 0
M  V30 40 H -3.09463 -1.18891 -0.335469 0
M  V30 41 H -2.76165 -0.561538 -1.94574 0
M  V30 42 H -0.631318 -1.48991 -1.50246 0
M  V30 43 H 0.992813 1.48604 0.157604 0
M  V30 44 H 3.33284 1.56062 0.691966 0
M  V30 45 H 3.84172 -2.40825 -0.566206 0
M  V30 46 H 1.41886 -2.55147 -1.12562 0
M  V30 47 H 8.06471 -1.56669 0.61407 0
M  V30 48 H 8.39174 1.94247 0.841735 0
M  V30 49 H 8.01799 1.49289 2.58898 0
M  V30 50 H 9.54553 -0.110334 0.607105 0
M  V30 51 H 9.36454 -0.456247 2.255 0
M  V30 END ATOM
M  V30 BEGIN BOND
M  V30 1 1 1 2
M  V30 2 1 2 3
M  V30 3 1 3 4
M  V30 4 1 4 5
M  V30 5 1 5 6
M  V30 6 1 6 7
M  V30 7 1 7 8
M  V30 8 1 3 9
M  V30 9 1 9 10
M  V30 10 2 10 11
M  V30 11 1 10 12
M  V30 12 1 12 13
M  V30 13 2 13 14
M  V30 14 1 14 15
M  V30 15 2 15 16
M  V30 16 1 16 17
M  V30 17 2 17 18
M  V30 18 1 16 19
M  V30 19 2 19 20
M  V30 20 1 20 21
M  V30 21 1 21 22
M  V30 22 2 22 23
M  V30 23 1 22 24
M  V30 24 1 24 25
M  V30 25 1 8 3
M  V30 26 1 18 13
M  V30 27 1 23 19
M  V30 28 1 1 26
M  V30 29 1 1 27
M  V30 30 1 2 28
M  V30 31 1 2 29
M  V30 32 1 4 30
M  V30 33 1 4 31
M  V30 34 1 5 32
M  V30 35 1 5 33
M  V30 36 1 6 34
M  V30 37 1 6 35
M  V30 38 1 7 36
M  V30 39 1 7 37
M  V30 40 1 8 38
M  V30 41 1 8 39
M  V30 42 1 9 40
M  V30 43 1 9 41
M  V30 44 1 12 42
M  V30 45 1 14 43
M  V30 46 1 15 44
M  V30 47 1 17 45
M  V30 48 1 18 46
M  V30 49 1 21 47
M  V30 50 1 24 48
M  V30 51 1 24 49
M  V30 52 1 25 50
M  V30 53 1 25 51
M  V30 END BOND
M  V30 END CTAB
M  END
