
     RDKit          3D

  0  0  0  0  0  0  0  0  0  0999 V3000
M  V30 BEGIN CTAB
M  V30 COUNTS 31 32 0 0 0
M  V30 BEGIN ATOM
M  V30 1 N -0.149291 -0.874136 -3.75188 0
M  V30 2 C -0.905547 -0.666212 -2.55756 0
M  V30 3 C -0.248754 -0.35095 -1.35549 0
M  V30 4 C -0.998584 -0.154369 -0.215222 0
M  V30 5 C -2.38584 -0.25597 -0.196764 0
M  V30 6 C -3.00505 -0.565548 -1.38324 0
M  V30 7 C -2.27241 -0.764205 -2.53382 0
M  V30 8 S -3.29199 -0.00179872 1.27729 0
M  V30 9 N -3.73364 1.65441 1.46847 0
M  V30 10 O -2.46387 -0.389805 2.47209 0
M  V30 11 O -4.54014 -0.836326 1.31746 0
M  V30 12 C 1.18196 -0.212348 -1.42375 0
M  V30 13 O 1.77061 -0.282295 -2.56496 0
M  V30 14 C 2.08657 0.00781588 -0.313798 0
M  V30 15 C 3.2018 0.847141 -0.487702 0
M  V30 16 C 4.11331 1.04916 0.510017 0
M  V30 17 C 3.98149 0.43681 1.73917 0
M  V30 18 C 2.9078 -0.386421 1.94002 0
M  V30 19 C 1.99459 -0.583587 0.925707 0
M  V30 20 H 0.321296 -1.7891 -3.88466 0
M  V30 21 H -0.0433009 -0.164389 -4.494 0
M  V30 22 H -0.53615 0.119562 0.719539 0
M  V30 23 H -4.09259 -0.65467 -1.41112 0
M  V30 24 H -2.7546 -1.01119 -3.4878 0
M  V30 25 H -4.17102 2.0543 0.610805 0
M  V30 26 H -2.93937 2.24594 1.79861 0
M  V30 27 H 3.30965 1.33144 -1.45425 0
M  V30 28 H 4.98715 1.71575 0.352101 0
M  V30 29 H 4.73411 0.630263 2.501 0
M  V30 30 H 2.79328 -0.870043 2.89435 0
M  V30 31 H 1.14853 -1.27922 1.09042 0
M  V30 END ATOM
M  V30 BEGIN BOND
M  V30 1 1 1 2
M  V30 2 2 2 3
M  V30 3 1 3 4
M  V30 4 2 4 5
M  V30 5 1 5 6
M  V30 6 2 6 7
M  V30 7 1 5 8
M  V30 8 1 8 9
M  V30 9 2 8 10
M  V30 10 2 8 11
M  V30 11 1 3 12
M  V30 12 2 12 13
M  V30 13 1 12 14
M  V30 14 2 14 15
M  V30 15 1 15 16
M  V30 16 2 16 17
M  V30 17 1 17 18
M  V30 18 2 18 19
M  V30 19 1 7 2
M  V30 20 1 19 14
M  V30 21 1 1 20
M  V30 22 1 1 21
M  V30 23 1 4 22
M  V30 24 1 6 23
M  V30 25 1 7 24
M  V30 26 1 9 25
M  V30 27 1 9 26
M  V30 28 1 15 27
M  V30 29 1 16 28
M  V30 30 1 17 29
M  V30 31 1 18 30
M  V30 32 1 19 31
M  V30 END BOND
M  V30 END CTAB
M  END
