
     RDKit          3D

  0  0  0  0  0  0  0  0  0  0999 V3000
M  V30 BEGIN CTAB
M  V30 COUNTS 41 43 0 0 0
M  V30 BEGIN ATOM
M  V30 1 N 7.71486 -2.39865 0.135256 0
M  V30 2 C 6.82038 -1.3183 -0.0411141 0
M  V30 3 N 5.50184 -1.52221 0.0441854 0
M  V30 4 C 4.62338 -0.534567 -0.114916 0
M  V30 5 C 3.13829 -0.779606 -0.0158887 0
M  V30 6 O 2.50295 0.459679 -0.231563 0
M  V30 7 C 1.11681 0.547075 -0.199828 0
M  V30 8 C 0.365614 -0.579145 0.0426711 0
M  V30 9 C -1.00803 -0.496861 0.0749489 0
M  V30 10 C -1.68838 0.681158 -0.127393 0
M  V30 11 C -0.937854 1.81163 -0.370684 0
M  V30 12 C 0.446396 1.73348 -0.404127 0
M  V30 13 O -3.06676 0.720135 -0.0866361 0
M  V30 14 C -3.76999 -0.479768 0.168317 0
M  V30 15 C -5.23276 -0.199482 0.165747 0
M  V30 16 C -5.71256 1.07648 -0.0620314 0
M  V30 17 C -7.06924 1.27747 -0.0531058 0
M  V30 18 C -7.96989 0.248232 0.175662 0
M  V30 19 C -7.47504 -1.01924 0.401285 0
M  V30 20 C -6.11001 -1.21458 0.390985 0
M  V30 21 N 5.09678 0.699769 -0.368706 0
M  V30 22 C 6.39503 0.949164 -0.462038 0
M  V30 23 N 7.25936 -0.0598879 -0.298327 0
M  V30 24 N 6.81699 2.28741 -0.73399 0
M  V30 25 H 7.6764 -3.20363 -0.50303 0
M  V30 26 H 8.40017 -2.37484 0.901156 0
M  V30 27 H 2.88119 -1.52987 -0.790289 0
M  V30 28 H 2.88725 -1.23797 0.959913 0
M  V30 29 H 0.861248 -1.51874 0.205707 0
M  V30 30 H -1.60319 -1.3824 0.265786 0
M  V30 31 H -1.42087 2.76322 -0.536463 0
M  V30 32 H 1.06719 2.61636 -0.595345 0
M  V30 33 H -3.44794 -0.934234 1.13707 0
M  V30 34 H -3.58925 -1.22753 -0.631326 0
M  V30 35 H -4.98783 1.86043 -0.23763 0
M  V30 36 H -7.41846 2.30409 -0.237658 0
M  V30 37 H -9.03038 0.473479 0.169578 0
M  V30 38 H -8.16101 -1.83696 0.582006 0
M  V30 39 H -5.78156 -2.24321 0.576649 0
M  V30 40 H 7.74648 2.6315 -0.477564 0
M  V30 41 H 6.16242 2.95092 -1.21218 0
M  V30 END ATOM
M  V30 BEGIN BOND
M  V30 1 1 1 2
M  V30 2 2 2 3
M  V30 3 1 3 4
M  V30 4 1 4 5
M  V30 5 1 5 6
M  V30 6 1 6 7
M  V30 7 2 7 8
M  V30 8 1 8 9
M  V30 9 2 9 10
M  V30 10 1 10 11
M  V30 11 2 11 12
M  V30 12 1 10 13
M  V30 13 1 13 14
M  V30 14 1 14 15
M  V30 15 2 15 16
M  V30 16 1 16 17
M  V30 17 2 17 18
M  V30 18 1 18 19
M  V30 19 2 19 20
M  V30 20 2 4 21
M  V30 21 1 21 22
M  V30 22 2 22 23
M  V30 23 1 22 24
M  V30 24 1 23 2
M  V30 25 1 12 7
M  V30 26 1 20 15
M  V30 27 1 1 25
M  V30 28 1 1 26
M  V30 29 1 5 27
M  V30 30 1 5 28
M  V30 31 1 8 29
M  V30 32 1 9 30
M  V30 33 1 11 31
M  V30 34 1 12 32
M  V30 35 1 14 33
M  V30 36 1 14 34
M  V30 37 1 16 35
M  V30 38 1 17 36
M  V30 39 1 18 37
M  V30 40 1 19 38
M  V30 41 1 20 39
M  V30 42 1 24 40
M  V30 43 1 24 41
M  V30 END BOND
M  V30 END CTAB
M  END
