
     RDKit          3D

  0  0  0  0  0  0  0  0  0  0999 V3000
M  V30 BEGIN CTAB
M  V30 COUNTS 22 22 0 0 0
M  V30 BEGIN ATOM
M  V30 1 N 0.398466 2.15246 0.381815 0
M  V30 2 C -0.613333 1.16955 0.203239 0
M  V30 3 C -0.266907 -0.200837 0.631498 0
M  V30 4 C 0.88091 -0.871435 -0.0209895 0
M  V30 5 C 2.26632 -0.264976 0.0931899 0
M  V30 6 C 1.55145 -0.304975 -1.21142 0
M  V30 7 C -1.5355 -1.05353 0.452864 0
M  V30 8 N -1.91464 -1.01353 -0.959099 0
M  V30 9 H 0.618737 2.70945 -0.464521 0
M  V30 10 H 0.216211 2.83298 1.15388 0
M  V30 11 H -1.47816 1.49886 0.859691 0
M  V30 12 H -1.05698 1.20079 -0.824814 0
M  V30 13 H -0.132554 -0.161717 1.75708 0
M  V30 14 H 0.882252 -2.00269 0.0309396 0
M  V30 15 H 2.40903 0.706949 0.596802 0
M  V30 16 H 3.12421 -0.97621 0.254216 0
M  V30 17 H 1.24263 0.690145 -1.63 0
M  V30 18 H 1.84198 -1.00915 -2.01557 0
M  V30 19 H -1.25289 -2.07498 0.719247 0
M  V30 20 H -2.32655 -0.619736 1.10307 0
M  V30 21 H -2.10703 -2.00081 -1.28432 0
M  V30 22 H -2.74766 -0.406611 -1.11542 0
M  V30 END ATOM
M  V30 BEGIN BOND
M  V30 1 1 1 2
M  V30 2 1 2 3
M  V30 3 1 3 4
M  V30 4 1 4 5
M  V30 5 1 5 6
M  V30 6 1 3 7
M  V30 7 1 7 8
M  V30 8 1 6 4
M  V30 9 1 1 9
M  V30 10 1 1 10
M  V30 11 1 2 11
M  V30 12 1 2 12
M  V30 13 1 3 13
M  V30 14 1 4 14
M  V30 15 1 5 15
M  V30 16 1 5 16
M  V30 17 1 6 17
M  V30 18 1 6 18
M  V30 19 1 7 19
M  V30 20 1 7 20
M  V30 21 1 8 21
M  V30 22 1 8 22
M  V30 END BOND
M  V30 END CTAB
M  END
