
     RDKit          3D

  0  0  0  0  0  0  0  0  0  0999 V3000
M  V30 BEGIN CTAB
M  V30 COUNTS 22 22 0 0 0
M  V30 BEGIN ATOM
M  V30 1 C 4.12786 -0.306864 -0.339869 0
M  V30 2 O 2.7151 -0.49909 -0.432621 0
M  V30 3 C 1.81796 0.344364 0.191472 0
M  V30 4 O 2.27187 1.30363 0.856168 0
M  V30 5 C 0.37409 0.180787 0.11992 0
M  V30 6 C -0.197906 -0.857274 -0.596873 0
M  V30 7 C -1.58123 -1.01825 -0.668438 0
M  V30 8 N -2.12059 -2.08448 -1.40615 0
M  V30 9 C -2.43036 -0.145546 -0.0251571 0
M  V30 10 C -1.86385 0.887543 0.688283 0
M  V30 11 C -0.492567 1.0435 0.756671 0
M  V30 12 Br 0.296665 2.47974 1.7485 0
M  V30 13 N -2.69961 1.80822 1.36509 0
M  V30 14 H 4.64164 -0.761774 -1.20812 0
M  V30 15 H 4.5363 -0.75235 0.591266 0
M  V30 16 H 4.3193 0.790452 -0.313522 0
M  V30 17 H 0.472375 -1.55263 -1.10923 0
M  V30 18 H -2.75626 -1.88636 -2.19504 0
M  V30 19 H -1.88393 -3.05993 -1.16241 0
M  V30 20 H -3.50789 -0.248192 -0.0647779 0
M  V30 21 H -3.14405 2.57439 0.819155 0
M  V30 22 H -2.89493 1.7601 2.38568 0
M  V30 END ATOM
M  V30 BEGIN BOND
M  V30 1 1 1 2
M  V30 2 1 2 3
M  V30 3 2 3 4
M  V30 4 1 3 5
M  V30 5 2 5 6
M  V30 6 1 6 7
M  V30 7 1 7 8
M  V30 8 2 7 9
M  V30 9 1 9 10
M  V30 10 2 10 11
M  V30 11 1 11 12
M  V30 12 1 10 13
M  V30 13 1 11 5
M  V30 14 1 1 14
M  V30 15 1 1 15
M  V30 16 1 1 16
M  V30 17 1 6 17
M  V30 18 1 8 18
M  V30 19 1 8 19
M  V30 20 1 9 20
M  V30 21 1 13 21
M  V30 22 1 13 22
M  V30 END BOND
M  V30 END CTAB
M  END
