
     RDKit          3D

  0  0  0  0  0  0  0  0  0  0999 V3000
M  V30 BEGIN CTAB
M  V30 COUNTS 47 51 0 0 0
M  V30 BEGIN ATOM
M  V30 1 N 9.27992 -0.216396 -0.581692 0
M  V30 2 C 7.86687 -0.268001 -0.683603 0
M  V30 3 C 7.13325 -1.36932 -0.296063 0
M  V30 4 C 5.75852 -1.38626 -0.408851 0
M  V30 5 C 5.05522 -0.293452 -0.918054 0
M  V30 6 C 5.78706 0.807515 -1.3056 0
M  V30 7 C 7.1654 0.81089 -1.18694 0
M  V30 8 O 3.6734 -0.354549 -1.01337 0
M  V30 9 C 2.87628 0.0770551 0.0666778 0
M  V30 10 C 3.51551 0.550905 1.194 0
M  V30 11 C 2.70321 0.964233 2.23019 0
M  V30 12 C 1.30072 0.897966 2.12321 0
M  V30 13 C 0.670479 0.428952 1.0073 0
M  V30 14 C 1.51993 0.00811646 -0.0485815 0
M  V30 15 C -0.693555 0.415627 1.02755 0
M  V30 16 C -1.582 -0.0171879 0.00962701 0
M  V30 17 C -2.9262 0.024215 0.162173 0
M  V30 18 C -3.52323 0.486527 1.30914 0
M  V30 19 C -2.69531 0.909065 2.30441 0
M  V30 20 C -1.29569 0.87279 2.1622 0
M  V30 21 S 0.0115057 1.30483 3.1621 0
M  V30 22 O -3.70345 -0.432753 -0.918749 0
M  V30 23 C -5.0746 -0.431829 -0.86358 0
M  V30 24 C -5.78807 0.688523 -1.29625 0
M  V30 25 C -7.16931 0.677385 -1.2357 0
M  V30 26 C -7.84406 -0.424111 -0.754548 0
M  V30 27 C -7.10202 -1.50187 -0.340583 0
M  V30 28 C -5.7293 -1.53667 -0.381867 0
M  V30 29 N -9.25568 -0.463031 -0.681314 0
M  V30 30 H 9.78591 0.241911 0.212112 0
M  V30 31 H 9.86272 -0.655239 -1.33192 0
M  V30 32 H 7.6747 -2.21729 0.0986758 0
M  V30 33 H 5.19455 -2.25814 -0.100582 0
M  V30 34 H 5.23471 1.64955 -1.69886 0
M  V30 35 H 7.72778 1.68141 -1.49479 0
M  V30 36 H 4.57891 0.599985 1.27229 0
M  V30 37 H 3.08195 1.35351 3.16195 0
M  V30 38 H 1.11566 -0.381647 -0.980547 0
M  V30 39 H -1.18468 -0.397047 -0.92919 0
M  V30 40 H -4.58341 0.524425 1.4422 0
M  V30 41 H -3.03964 1.29511 3.25622 0
M  V30 42 H -5.269 1.54577 -1.67046 0
M  V30 43 H -7.7461 1.53074 -1.5639 0
M  V30 44 H -7.63837 -2.37738 0.0418528 0
M  V30 45 H -5.20632 -2.4148 -0.0412706 0
M  V30 46 H -9.80838 -0.140321 -1.49144 0
M  V30 47 H -9.7158 -0.8097 0.171511 0
M  V30 END ATOM
M  V30 BEGIN BOND
M  V30 1 1 1 2
M  V30 2 2 2 3
M  V30 3 1 3 4
M  V30 4 2 4 5
M  V30 5 1 5 6
M  V30 6 2 6 7
M  V30 7 1 5 8
M  V30 8 1 8 9
M  V30 9 2 9 10
M  V30 10 1 10 11
M  V30 11 2 11 12
M  V30 12 1 12 13
M  V30 13 2 13 14
M  V30 14 1 13 15
M  V30 15 2 15 16
M  V30 16 1 16 17
M  V30 17 2 17 18
M  V30 18 1 18 19
M  V30 19 2 19 20
M  V30 20 1 20 21
M  V30 21 1 17 22
M  V30 22 1 22 23
M  V30 23 2 23 24
M  V30 24 1 24 25
M  V30 25 2 25 26
M  V30 26 1 26 27
M  V30 27 2 27 28
M  V30 28 1 26 29
M  V30 29 1 7 2
M  V30 30 1 14 9
M  V30 31 1 20 15
M  V30 32 1 28 23
M  V30 33 1 21 12
M  V30 34 1 1 30
M  V30 35 1 1 31
M  V30 36 1 3 32
M  V30 37 1 4 33
M  V30 38 1 6 34
M  V30 39 1 7 35
M  V30 40 1 10 36
M  V30 41 1 11 37
M  V30 42 1 14 38
M  V30 43 1 16 39
M  V30 44 1 18 40
M  V30 45 1 19 41
M  V30 46 1 24 42
M  V30 47 1 25 43
M  V30 48 1 27 44
M  V30 49 1 28 45
M  V30 50 1 29 46
M  V30 51 1 29 47
M  V30 END BOND
M  V30 END CTAB
M  END
