
     RDKit          3D

  0  0  0  0  0  0  0  0  0  0999 V3000
M  V30 BEGIN CTAB
M  V30 COUNTS 19 19 0 0 0
M  V30 BEGIN ATOM
M  V30 1 N 2.511 -1.00508 0.47287 0
M  V30 2 C 1.78714 0.143453 0.0394887 0
M  V30 3 C 0.319609 -0.0496182 0.0315521 0
M  V30 4 C -0.216987 -1.2573 0.421242 0
M  V30 5 C -1.59726 -1.40045 0.400502 0
M  V30 6 Cl -2.33076 -2.93064 0.891529 0
M  V30 7 C -2.40677 -0.358918 -0.000256861 0
M  V30 8 C -1.87544 0.851128 -0.391029 0
M  V30 9 C -0.481538 0.998398 -0.371015 0
M  V30 10 N 0.123542 2.21164 -0.759084 0
M  V30 11 H 2.30625 -1.85296 -0.0683585 0
M  V30 12 H 2.5718 -1.14283 1.48699 0
M  V30 13 H 2.06891 1.01927 0.661989 0
M  V30 14 H 2.0773 0.332002 -1.03346 0
M  V30 15 H 0.424773 -2.06787 0.733753 0
M  V30 16 H -3.47924 -0.490941 -0.00920555 0
M  V30 17 H -2.49335 1.69463 -0.713674 0
M  V30 18 H 0.785341 2.67541 -0.119465 0
M  V30 19 H -0.094318 2.63068 -1.67437 0
M  V30 END ATOM
M  V30 BEGIN BOND
M  V30 1 1 1 2
M  V30 2 1 2 3
M  V30 3 2 3 4
M  V30 4 1 4 5
M  V30 5 1 5 6
M  V30 6 2 5 7
M  V30 7 1 7 8
M  V30 8 2 8 9
M  V30 9 1 9 10
M  V30 10 1 9 3
M  V30 11 1 1 11
M  V30 12 1 1 12
M  V30 13 1 2 13
M  V30 14 1 2 14
M  V30 15 1 4 15
M  V30 16 1 7 16
M  V30 17 1 8 17
M  V30 18 1 10 18
M  V30 19 1 10 19
M  V30 END BOND
M  V30 END CTAB
M  END
