
     RDKit          3D

  0  0  0  0  0  0  0  0  0  0999 V3000
M  V30 BEGIN CTAB
M  V30 COUNTS 25 26 0 0 0
M  V30 BEGIN ATOM
M  V30 1 N 2.91189 2.77711 -0.169111 0
M  V30 2 C 2.26361 1.50886 -0.132271 0
M  V30 3 N 0.923484 1.41634 -0.269148 0
M  V30 4 C 0.341155 0.194415 -0.229116 0
M  V30 5 C -1.10634 0.14635 -0.370966 0
M  V30 6 C -1.76658 -0.703085 -1.23221 0
M  V30 7 C -3.14665 -0.758854 -1.35896 0
M  V30 8 C -3.90486 0.0866169 -0.576781 0
M  V30 9 C -3.27849 0.952287 0.297796 0
M  V30 10 C -1.90773 0.992054 0.408817 0
M  V30 11 C 1.07063 -0.956846 -0.0527997 0
M  V30 12 C 0.481512 -2.26046 0.0117314 0
M  V30 13 N 0.00877484 -3.31296 0.0873985 0
M  V30 14 C 2.45122 -0.833455 0.085506 0
M  V30 15 N 3.28778 -1.96401 0.270966 0
M  V30 16 N 2.99468 0.387859 0.0410379 0
M  V30 17 H 2.43198 3.64587 0.143955 0
M  V30 18 H 3.89868 2.88685 -0.513066 0
M  V30 19 H -1.18538 -1.37966 -1.87526 0
M  V30 20 H -3.6411 -1.43679 -2.04408 0
M  V30 21 H -5.00441 0.0846601 -0.636435 0
M  V30 22 H -3.89068 1.62369 0.918129 0
M  V30 23 H -1.3932 1.67156 1.0965 0
M  V30 24 H 4.17924 -2.0869 -0.256671 0
M  V30 25 H 2.98079 -2.68151 0.962038 0
M  V30 END ATOM
M  V30 BEGIN BOND
M  V30 1 1 1 2
M  V30 2 2 2 3
M  V30 3 1 3 4
M  V30 4 1 4 5
M  V30 5 2 5 6
M  V30 6 1 6 7
M  V30 7 2 7 8
M  V30 8 1 8 9
M  V30 9 2 9 10
M  V30 10 2 4 11
M  V30 11 1 11 12
M  V30 12 3 12 13
M  V30 13 1 11 14
M  V30 14 1 14 15
M  V30 15 2 14 16
M  V30 16 1 16 2
M  V30 17 1 10 5
M  V30 18 1 1 17
M  V30 19 1 1 18
M  V30 20 1 6 19
M  V30 21 1 7 20
M  V30 22 1 8 21
M  V30 23 1 9 22
M  V30 24 1 10 23
M  V30 25 1 15 24
M  V30 26 1 15 25
M  V30 END BOND
M  V30 END CTAB
M  END
