
     RDKit          3D

  0  0  0  0  0  0  0  0  0  0999 V3000
M  V30 BEGIN CTAB
M  V30 COUNTS 19 19 0 0 0
M  V30 BEGIN ATOM
M  V30 1 N 3.97855 -0.0263701 -0.449512 0
M  V30 2 N 2.60953 0.282735 -0.410745 0
M  V30 3 C 1.7004 -0.709545 0.0181035 0
M  V30 4 O 2.09682 -1.87056 0.367579 0
M  V30 5 C 0.271689 -0.437762 0.0756433 0
M  V30 6 C -0.632958 -1.40997 0.498227 0
M  V30 7 N -1.95724 -1.20624 0.567796 0
M  V30 8 C -2.48731 -0.0200781 0.222865 0
M  V30 9 C -1.62699 0.965141 -0.199476 0
M  V30 10 C -0.247321 0.786234 -0.283205 0
M  V30 11 Cl -2.30955 2.51726 -0.651985 0
M  V30 12 N -3.88492 0.239585 0.281214 0
M  V30 13 H 4.56777 0.746477 -0.0994375 0
M  V30 14 H 4.1883 -0.945268 0.0118011 0
M  V30 15 H 2.32199 1.22451 -0.697748 0
M  V30 16 H -0.181706 -2.37161 0.775622 0
M  V30 17 H 0.376814 1.60963 -0.626275 0
M  V30 18 H -4.25731 1.20406 0.409269 0
M  V30 19 H -4.52654 -0.578222 0.190263 0
M  V30 END ATOM
M  V30 BEGIN BOND
M  V30 1 1 1 2
M  V30 2 1 2 3
M  V30 3 2 3 4
M  V30 4 1 3 5
M  V30 5 2 5 6
M  V30 6 1 6 7
M  V30 7 2 7 8
M  V30 8 1 8 9
M  V30 9 2 9 10
M  V30 10 1 9 11
M  V30 11 1 8 12
M  V30 12 1 10 5
M  V30 13 1 1 13
M  V30 14 1 1 14
M  V30 15 1 2 15
M  V30 16 1 6 16
M  V30 17 1 10 17
M  V30 18 1 12 18
M  V30 19 1 12 19
M  V30 END BOND
M  V30 END CTAB
M  END
