
     RDKit          3D

  0  0  0  0  0  0  0  0  0  0999 V3000
M  V30 BEGIN CTAB
M  V30 COUNTS 77 79 0 0 0
M  V30 BEGIN ATOM
M  V30 1 N 5.90549 -2.52721 -0.105716 0
M  V30 2 C 5.00284 -2.2789 0.883086 0 CFG=1
M  V30 3 C 5.6273 -1.71068 2.15271 0
M  V30 4 C 6.61331 -2.61924 2.75964 0
M  V30 5 C 7.02787 -3.87534 2.3922 0
M  V30 6 N 7.9498 -4.27242 3.27272 0
M  V30 7 C 8.12174 -3.28918 4.18548 0
M  V30 8 N 7.30229 -2.28578 3.86451 0
M  V30 9 C 3.87513 -1.42518 0.505671 0
M  V30 10 O 3.16634 -1.0834 1.54043 0
M  V30 11 N 3.47064 -0.946255 -0.737803 0
M  V30 12 C 4.17975 -1.37458 -1.99164 0
M  V30 13 C 3.17651 -1.16 -3.119 0
M  V30 14 C 1.8654 -0.944553 -2.33132 0
M  V30 15 C 2.50265 -0.052287 -1.21851 0 CFG=1
M  V30 16 C 1.50497 0.611573 -0.442643 0
M  V30 17 O 1.4081 0.575091 0.795635 0
M  V30 18 N 0.483211 1.41498 -1.07147 0
M  V30 19 C -0.555123 2.10809 -0.271359 0 CFG=1
M  V30 20 C -0.306755 3.57038 -0.365471 0
M  V30 21 C -1.18805 4.49499 0.326451 0
M  V30 22 C -2.2263 5.0918 -0.354779 0
M  V30 23 C -3.04491 5.99032 0.302608 0
M  V30 24 C -2.83588 6.29948 1.6383 0
M  V30 25 C -1.80265 5.71466 2.34576 0
M  V30 26 C -1.01663 4.83533 1.66436 0
M  V30 27 C -1.82288 1.57497 -0.71219 0
M  V30 28 O -1.86939 0.830897 -1.7501 0
M  V30 29 N -3.05573 1.79886 -0.0785899 0
M  V30 30 C -4.29706 1.19109 -0.603167 0 CFG=1
M  V30 31 C -4.56564 0.0643187 0.418956 0
M  V30 32 C -5.77836 -0.738901 0.112608 0
M  V30 33 C -5.6658 -1.45228 -1.23053 0
M  V30 34 N -4.5339 -2.37008 -1.21745 0
M  V30 35 C -4.5243 -3.53447 -0.41973 0
M  V30 36 N -5.36662 -4.627 -0.758577 0
M  V30 37 N -3.74996 -3.61757 0.623346 0
M  V30 38 C -5.42138 2.1294 -0.63747 0
M  V30 39 O -6.64965 1.73289 -1.1799 0
M  V30 40 O -5.36824 3.29849 -0.207735 0
M  V30 41 H 6.72774 -2.01217 -0.260202 0
M  V30 42 H 5.93158 -3.45923 -0.474781 0
M  V30 43 H 4.53585 -3.25625 1.23867 0
M  V30 44 H 6.02225 -0.68751 1.99968 0
M  V30 45 H 4.76373 -1.62299 2.8753 0
M  V30 46 H 6.67647 -4.44644 1.54395 0
M  V30 47 H 8.47147 -5.20019 3.27877 0
M  V30 48 H 8.81532 -3.34339 5.0266 0
M  V30 49 H 5.00748 -0.652343 -2.10314 0
M  V30 50 H 4.43804 -2.43157 -1.97755 0
M  V30 51 H 3.3792 -0.202132 -3.62726 0
M  V30 52 H 3.09439 -2.01085 -3.79055 0
M  V30 53 H 1.52632 -1.89065 -1.91435 0
M  V30 54 H 1.13269 -0.354682 -2.85507 0
M  V30 55 H 3.04271 0.735729 -1.87472 0
M  V30 56 H 0.483045 1.50199 -2.08424 0
M  V30 57 H -0.31375 1.80426 0.799043 0
M  V30 58 H 0.765541 3.76921 -0.0168338 0
M  V30 59 H -0.228956 3.90136 -1.45698 0
M  V30 60 H -2.42231 4.87062 -1.41302 0
M  V30 61 H -3.85006 6.4377 -0.271045 0
M  V30 62 H -3.49401 7.01303 2.13515 0
M  V30 63 H -1.68058 5.9909 3.38185 0
M  V30 64 H -0.200469 4.36861 2.2266 0
M  V30 65 H -3.16167 2.37332 0.771646 0
M  V30 66 H -4.064 0.747599 -1.56044 0
M  V30 67 H -4.56359 0.500254 1.42629 0
M  V30 68 H -3.67136 -0.594084 0.362425 0
M  V30 69 H -5.77317 -1.58985 0.865172 0
M  V30 70 H -6.73459 -0.224774 0.24756 0
M  V30 71 H -5.56652 -0.763319 -2.08306 0
M  V30 72 H -6.588 -2.06667 -1.35362 0
M  V30 73 H -3.69807 -2.17659 -1.81453 0
M  V30 74 H -6.21565 -4.47807 -1.33528 0
M  V30 75 H -5.14774 -5.59134 -0.42723 0
M  V30 76 H -3.7661 -4.50121 1.19472 0
M  V30 77 H -7.21136 2.39941 -1.66057 0
M  V30 END ATOM
M  V30 BEGIN BOND
M  V30 1 1 1 2
M  V30 2 1 2 3
M  V30 3 1 3 4
M  V30 4 2 4 5
M  V30 5 1 5 6
M  V30 6 1 6 7
M  V30 7 2 7 8
M  V30 8 1 2 9
M  V30 9 2 9 10
M  V30 10 1 9 11
M  V30 11 1 11 12
M  V30 12 1 12 13
M  V30 13 1 13 14
M  V30 14 1 14 15
M  V30 15 1 15 16
M  V30 16 2 16 17
M  V30 17 1 16 18
M  V30 18 1 18 19
M  V30 19 1 19 20
M  V30 20 1 20 21
M  V30 21 2 21 22
M  V30 22 1 22 23
M  V30 23 2 23 24
M  V30 24 1 24 25
M  V30 25 2 25 26
M  V30 26 1 19 27
M  V30 27 2 27 28
M  V30 28 1 27 29
M  V30 29 1 29 30
M  V30 30 1 30 31
M  V30 31 1 31 32
M  V30 32 1 32 33
M  V30 33 1 33 34
M  V30 34 1 34 35
M  V30 35 1 35 36
M  V30 36 2 35 37 CFG=2
M  V30 37 1 30 38
M  V30 38 1 38 39
M  V30 39 2 38 40
M  V30 40 1 8 4
M  V30 41 1 15 11
M  V30 42 1 26 21
M  V30 43 1 1 41
M  V30 44 1 1 42
M  V30 45 1 2 43 CFG=1
M  V30 46 1 3 44
M  V30 47 1 3 45
M  V30 48 1 5 46
M  V30 49 1 6 47
M  V30 50 1 7 48
M  V30 51 1 12 49
M  V30 52 1 12 50
M  V30 53 1 13 51
M  V30 54 1 13 52
M  V30 55 1 14 53
M  V30 56 1 14 54
M  V30 57 1 15 55 CFG=3
M  V30 58 1 18 56
M  V30 59 1 19 57 CFG=1
M  V30 60 1 20 58
M  V30 61 1 20 59
M  V30 62 1 22 60
M  V30 63 1 23 61
M  V30 64 1 24 62
M  V30 65 1 25 63
M  V30 66 1 26 64
M  V30 67 1 29 65
M  V30 68 1 30 66 CFG=3
M  V30 69 1 31 67
M  V30 70 1 31 68
M  V30 71 1 32 69
M  V30 72 1 32 70
M  V30 73 1 33 71
M  V30 74 1 33 72
M  V30 75 1 34 73
M  V30 76 1 36 74
M  V30 77 1 36 75
M  V30 78 1 37 76
M  V30 79 1 39 77
M  V30 END BOND
M  V30 END CTAB
M  END
