
     RDKit          3D

  0  0  0  0  0  0  0  0  0  0999 V3000
M  V30 BEGIN CTAB
M  V30 COUNTS 43 43 0 0 0
M  V30 BEGIN ATOM
M  V30 1 C -5.14129 -1.00605 0.523519 0
M  V30 2 C -4.39719 -0.811848 -0.781551 0
M  V30 3 C -2.91398 -0.792728 -0.598284 0
M  V30 4 C -2.39045 0.278332 0.296313 0
M  V30 5 C -2.70732 1.65094 -0.166739 0
M  V30 6 O -1.85333 2.49507 -0.512063 0
M  V30 7 O -4.04242 2.02083 -0.218849 0
M  V30 8 C -4.40925 3.31294 -0.650264 0
M  V30 9 N -0.929568 0.175309 0.261236 0
M  V30 10 C -0.15864 -0.0483162 1.41217 0
M  V30 11 O -0.676554 -0.174864 2.55066 0
M  V30 12 C 1.31299 -0.142997 1.31493 0
M  V30 13 S 1.90786 0.0576641 -0.371381 0
M  V30 14 C 3.68642 -0.0761175 -0.348586 0
M  V30 15 N 4.31031 -1.25261 -0.495046 0
M  V30 16 C 5.6629 -1.35635 -0.477801 0
M  V30 17 N 6.23759 -2.64826 -0.641154 0
M  V30 18 C 6.42803 -0.234945 -0.306586 0
M  V30 19 C 5.7896 0.977793 -0.155508 0
M  V30 20 N 4.44786 1.01883 -0.181086 0
M  V30 21 N 6.57863 2.16533 0.0252874 0
M  V30 22 C -2.48758 -2.12818 -0.0254308 0
M  V30 23 H -6.20509 -0.732499 0.342558 0
M  V30 24 H -5.03155 -2.06047 0.868905 0
M  V30 25 H -4.75369 -0.340112 1.30601 0
M  V30 26 H -4.61322 -1.75255 -1.37369 0
M  V30 27 H -4.82277 0.00163751 -1.36585 0
M  V30 28 H -2.4547 -0.718818 -1.60745 0
M  V30 29 H -2.77311 0.157954 1.32784 0
M  V30 30 H -4.7884 3.23037 -1.69215 0
M  V30 31 H -5.2404 3.71192 -0.0236892 0
M  V30 32 H -3.52748 3.98131 -0.576765 0
M  V30 33 H -0.475755 0.276465 -0.669677 0
M  V30 34 H 1.57837 -1.19078 1.64313 0
M  V30 35 H 1.82448 0.599779 1.98307 0
M  V30 36 H 6.35851 -3.32784 0.117757 0
M  V30 37 H 6.54991 -2.90094 -1.60416 0
M  V30 38 H 7.50643 -0.312232 -0.292066 0
M  V30 39 H 6.35812 2.89641 0.717117 0
M  V30 40 H 7.41886 2.28431 -0.582227 0
M  V30 41 H -3.1421 -2.92516 -0.388876 0
M  V30 42 H -1.4274 -2.28289 -0.344817 0
M  V30 43 H -2.59363 -2.07562 1.07057 0
M  V30 END ATOM
M  V30 BEGIN BOND
M  V30 1 1 1 2
M  V30 2 1 2 3
M  V30 3 1 3 4
M  V30 4 1 4 5
M  V30 5 2 5 6
M  V30 6 1 5 7
M  V30 7 1 7 8
M  V30 8 1 4 9
M  V30 9 1 9 10
M  V30 10 2 10 11
M  V30 11 1 10 12
M  V30 12 1 12 13
M  V30 13 1 13 14
M  V30 14 2 14 15
M  V30 15 1 15 16
M  V30 16 1 16 17
M  V30 17 2 16 18
M  V30 18 1 18 19
M  V30 19 2 19 20
M  V30 20 1 19 21
M  V30 21 1 3 22
M  V30 22 1 20 14
M  V30 23 1 1 23
M  V30 24 1 1 24
M  V30 25 1 1 25
M  V30 26 1 2 26
M  V30 27 1 2 27
M  V30 28 1 3 28
M  V30 29 1 4 29
M  V30 30 1 8 30
M  V30 31 1 8 31
M  V30 32 1 8 32
M  V30 33 1 9 33
M  V30 34 1 12 34
M  V30 35 1 12 35
M  V30 36 1 17 36
M  V30 37 1 17 37
M  V30 38 1 18 38
M  V30 39 1 21 39
M  V30 40 1 21 40
M  V30 41 1 22 41
M  V30 42 1 22 42
M  V30 43 1 22 43
M  V30 END BOND
M  V30 END CTAB
M  END
