
     RDKit          3D

  0  0  0  0  0  0  0  0  0  0999 V3000
M  V30 BEGIN CTAB
M  V30 COUNTS 38 39 0 0 0
M  V30 BEGIN ATOM
M  V30 1 N -5.94397 0.39704 1.48555 0
M  V30 2 S -5.095 1.82849 0.95061 0
M  V30 3 O -5.89003 2.40078 -0.181587 0
M  V30 4 O -4.95496 2.78587 2.09756 0
M  V30 5 C -3.54238 1.34142 0.30851 0
M  V30 6 C -3.13031 0.0306422 0.266056 0
M  V30 7 C -1.90513 -0.38782 -0.236953 0
M  V30 8 C -1.05925 0.582726 -0.72006 0
M  V30 9 N 0.203362 0.190901 -1.22633 0
M  V30 10 C 1.39195 0.193884 -0.394643 0
M  V30 11 O 1.30793 0.553244 0.794931 0
M  V30 12 N 2.61341 -0.209363 -0.95057 0
M  V30 13 C 3.87969 -0.292963 -0.351247 0
M  V30 14 C 4.99952 -0.511039 -1.16529 0
M  V30 15 C 6.27241 -0.619159 -0.676564 0
M  V30 16 C 6.48813 -0.513167 0.663597 0
M  V30 17 Cl 8.07825 -0.638115 1.37437 0
M  V30 18 C 5.41149 -0.299331 1.48982 0
M  V30 19 Cl 5.66899 -0.158527 3.23389 0
M  V30 20 C 4.11064 -0.189391 0.986692 0
M  V30 21 C -1.45191 1.90343 -0.687656 0
M  V30 22 Cl -0.369669 3.15598 -1.30767 0
M  V30 23 C -2.68418 2.30369 -0.179803 0
M  V30 24 Cl -3.14751 3.99491 -0.155983 0
M  V30 25 S -1.53141 -2.09993 -0.23881 0
M  V30 26 N -2.85803 -2.96258 0.440675 0
M  V30 27 O -0.249765 -2.39792 0.430222 0
M  V30 28 O -1.39273 -2.53527 -1.69134 0
M  V30 29 H -6.96824 0.630152 1.60492 0
M  V30 30 H -5.8328 -0.323078 0.710302 0
M  V30 31 H -3.81659 -0.722015 0.654724 0
M  V30 32 H 0.254307 -0.10285 -2.22466 0
M  V30 33 H 2.55689 -0.498564 -1.98826 0
M  V30 34 H 4.82515 -0.595128 -2.24485 0
M  V30 35 H 7.12063 -0.790348 -1.35359 0
M  V30 36 H 3.31511 -0.028384 1.70438 0
M  V30 37 H -3.71296 -2.66293 -0.092111 0
M  V30 38 H -2.96102 -2.75527 1.43931 0
M  V30 END ATOM
M  V30 BEGIN BOND
M  V30 1 1 1 2
M  V30 2 2 2 3
M  V30 3 2 2 4
M  V30 4 1 2 5
M  V30 5 2 5 6
M  V30 6 1 6 7
M  V30 7 2 7 8
M  V30 8 1 8 9
M  V30 9 1 9 10
M  V30 10 2 10 11
M  V30 11 1 10 12
M  V30 12 1 12 13
M  V30 13 2 13 14
M  V30 14 1 14 15
M  V30 15 2 15 16
M  V30 16 1 16 17
M  V30 17 1 16 18
M  V30 18 1 18 19
M  V30 19 2 18 20
M  V30 20 1 8 21
M  V30 21 1 21 22
M  V30 22 2 21 23
M  V30 23 1 23 24
M  V30 24 1 7 25
M  V30 25 1 25 26
M  V30 26 2 25 27
M  V30 27 2 25 28
M  V30 28 1 23 5
M  V30 29 1 20 13
M  V30 30 1 1 29
M  V30 31 1 1 30
M  V30 32 1 6 31
M  V30 33 1 9 32
M  V30 34 1 12 33
M  V30 35 1 14 34
M  V30 36 1 15 35
M  V30 37 1 20 36
M  V30 38 1 26 37
M  V30 39 1 26 38
M  V30 END BOND
M  V30 END CTAB
M  END
