
     RDKit          3D

  0  0  0  0  0  0  0  0  0  0999 V3000
M  V30 BEGIN CTAB
M  V30 COUNTS 24 24 0 0 0
M  V30 BEGIN ATOM
M  V30 1 C -3.74928 0.0994066 0.168944 0
M  V30 2 O -2.51756 0.648428 -0.155415 0
M  V30 3 C -1.30757 0.0132376 -0.141513 0
M  V30 4 C -0.171452 0.716964 -0.496579 0
M  V30 5 N -0.303238 2.06918 -0.86138 0
M  V30 6 C 1.05606 0.050709 -0.47628 0
M  V30 7 O 2.16949 0.784739 -0.836817 0
M  V30 8 C 2.88908 1.48418 0.149508 0
M  V30 9 C 1.10649 -1.27793 -0.106997 0
M  V30 10 N 2.35794 -1.9538 -0.087265 0
M  V30 11 C -0.0185068 -1.99003 0.248911 0
M  V30 12 C -1.22444 -1.32212 0.225182 0
M  V30 13 H -3.80593 -0.945327 -0.159781 0
M  V30 14 H -3.99462 0.126255 1.24888 0
M  V30 15 H -4.53004 0.653073 -0.42394 0
M  V30 16 H -0.698586 2.76852 -0.206574 0
M  V30 17 H -0.00379241 2.38959 -1.80027 0
M  V30 18 H 2.36616 1.47121 1.1284 0
M  V30 19 H 3.85893 0.977954 0.288666 0
M  V30 20 H 2.98151 2.53903 -0.183766 0
M  V30 21 H 2.95181 -1.91296 0.75837 0
M  V30 22 H 2.68182 -2.48431 -0.90458 0
M  V30 23 H 0.0157926 -3.03643 0.540499 0
M  V30 24 H -2.11008 -1.86956 0.501647 0
M  V30 END ATOM
M  V30 BEGIN BOND
M  V30 1 1 1 2
M  V30 2 1 2 3
M  V30 3 2 3 4
M  V30 4 1 4 5
M  V30 5 1 4 6
M  V30 6 1 6 7
M  V30 7 1 7 8
M  V30 8 2 6 9
M  V30 9 1 9 10
M  V30 10 1 9 11
M  V30 11 2 11 12
M  V30 12 1 12 3
M  V30 13 1 1 13
M  V30 14 1 1 14
M  V30 15 1 1 15
M  V30 16 1 5 16
M  V30 17 1 5 17
M  V30 18 1 8 18
M  V30 19 1 8 19
M  V30 20 1 8 20
M  V30 21 1 10 21
M  V30 22 1 10 22
M  V30 23 1 11 23
M  V30 24 1 12 24
M  V30 END BOND
M  V30 END CTAB
M  END
