
     RDKit          3D

  0  0  0  0  0  0  0  0  0  0999 V3000
M  V30 BEGIN CTAB
M  V30 COUNTS 18 17 0 0 0
M  V30 BEGIN ATOM
M  V30 1 N -1.14509 -1.60336 0.973431 0
M  V30 2 C -0.135292 -1.01241 0.183102 0
M  V30 3 N -0.289007 0.186611 -0.23599 0
M  V30 4 C -1.38454 1.02334 0.0027665 0
M  V30 5 N -1.28883 2.30959 0.016974 0
M  V30 6 N -2.66629 0.458404 0.242638 0
M  V30 7 S 1.33623 -1.90755 -0.233416 0
M  V30 8 C 2.39285 -0.841296 -1.24717 0
M  V30 9 C 2.83923 0.274901 -0.412137 0
M  V30 10 C 3.21383 1.20451 0.261223 0
M  V30 11 H -1.08071 -1.6544 2.02992 0
M  V30 12 H -2.02223 -2.02927 0.566121 0
M  V30 13 H -2.09085 2.94281 0.192356 0
M  V30 14 H -3.01488 0.507499 1.23593 0
M  V30 15 H -3.23613 0.0176515 -0.518303 0
M  V30 16 H 1.76265 -0.47415 -2.09776 0
M  V30 17 H 3.27532 -1.42191 -1.64316 0
M  V30 18 H 3.53373 2.01903 0.859728 0
M  V30 END ATOM
M  V30 BEGIN BOND
M  V30 1 1 1 2
M  V30 2 2 2 3 CFG=2
M  V30 3 1 3 4
M  V30 4 2 4 5 CFG=2
M  V30 5 1 4 6
M  V30 6 1 2 7
M  V30 7 1 7 8
M  V30 8 1 8 9
M  V30 9 3 9 10
M  V30 10 1 1 11
M  V30 11 1 1 12
M  V30 12 1 5 13
M  V30 13 1 6 14
M  V30 14 1 6 15
M  V30 15 1 8 16
M  V30 16 1 8 17
M  V30 17 1 10 18
M  V30 END BOND
M  V30 END CTAB
M  END
