
     RDKit          3D

  0  0  0  0  0  0  0  0  0  0999 V3000
M  V30 BEGIN CTAB
M  V30 COUNTS 44 47 0 0 0
M  V30 BEGIN ATOM
M  V30 1 N 9.03568 -0.655931 -0.208868 0
M  V30 2 C 7.64403 -0.314535 -0.137466 0
M  V30 3 N 7.33936 0.973015 0.0457744 0
M  V30 4 C 6.03205 1.36924 0.123288 0
M  V30 5 N 5.74974 2.73432 0.316863 0
M  V30 6 C 5.04 0.407015 0.00757536 0
M  V30 7 C 3.72528 0.798138 0.0845216 0
M  V30 8 Cl 3.29731 2.48046 0.324453 0
M  V30 9 C 2.72457 -0.178316 -0.0329937 0
M  V30 10 N 1.39086 0.273232 0.0526443 0
M  V30 11 C 0.225689 -0.514994 -0.0359735 0
M  V30 12 O 0.165824 -1.75182 -0.205846 0
M  V30 13 C -1.0924 0.210456 0.0872491 0
M  V30 14 O -2.15419 -0.687565 -0.0182959 0
M  V30 15 C -3.47174 -0.258611 0.0639498 0
M  V30 16 C -3.80358 1.05515 0.251242 0
M  V30 17 C -5.11072 1.42653 0.325354 0
M  V30 18 C -6.13859 0.494823 0.214566 0
M  V30 19 C -7.45767 0.870558 0.289484 0
M  V30 20 C -8.4628 -0.0710528 0.176929 0
M  V30 21 C -8.1387 -1.39462 -0.0115839 0
M  V30 22 C -6.82996 -1.75877 -0.0847222 0
M  V30 23 C -5.79307 -0.826725 0.0259597 0
M  V30 24 C -4.47514 -1.20297 -0.0490133 0
M  V30 25 C 3.07364 -1.49511 -0.221049 0
M  V30 26 C 4.40858 -1.90404 -0.30081 0
M  V30 27 C 5.37404 -0.927382 -0.182652 0
M  V30 28 N 6.68445 -1.24585 -0.249473 0
M  V30 29 H 9.68175 -0.0517793 -0.768475 0
M  V30 30 H 9.41982 -1.47496 0.271756 0
M  V30 31 H 5.66724 3.11214 1.27363 0
M  V30 32 H 5.63635 3.3569 -0.498635 0
M  V30 33 H 1.2423 1.32792 0.200972 0
M  V30 34 H -1.12162 0.691826 1.06458 0
M  V30 35 H -1.12799 1.01737 -0.687535 0
M  V30 36 H -3.05105 1.817 0.343371 0
M  V30 37 H -5.43257 2.45932 0.473652 0
M  V30 38 H -7.71174 1.9224 0.439233 0
M  V30 39 H -9.49885 0.271757 0.242361 0
M  V30 40 H -8.96302 -2.10193 -0.0949244 0
M  V30 41 H -6.54087 -2.78557 -0.231623 0
M  V30 42 H -4.24974 -2.26417 -0.199553 0
M  V30 43 H 2.34887 -2.29023 -0.318305 0
M  V30 44 H 4.71857 -2.91262 -0.445592 0
M  V30 END ATOM
M  V30 BEGIN BOND
M  V30 1 1 1 2
M  V30 2 2 2 3
M  V30 3 1 3 4
M  V30 4 1 4 5
M  V30 5 2 4 6
M  V30 6 1 6 7
M  V30 7 1 7 8
M  V30 8 2 7 9
M  V30 9 1 9 10
M  V30 10 1 10 11
M  V30 11 2 11 12
M  V30 12 1 11 13
M  V30 13 1 13 14
M  V30 14 1 14 15
M  V30 15 2 15 16
M  V30 16 1 16 17
M  V30 17 2 17 18
M  V30 18 1 18 19
M  V30 19 2 19 20
M  V30 20 1 20 21
M  V30 21 2 21 22
M  V30 22 1 22 23
M  V30 23 2 23 24
M  V30 24 1 9 25
M  V30 25 2 25 26
M  V30 26 1 26 27
M  V30 27 2 27 28
M  V30 28 1 28 2
M  V30 29 1 27 6
M  V30 30 1 24 15
M  V30 31 1 23 18
M  V30 32 1 1 29
M  V30 33 1 1 30
M  V30 34 1 5 31
M  V30 35 1 5 32
M  V30 36 1 10 33
M  V30 37 1 13 34
M  V30 38 1 13 35
M  V30 39 1 16 36
M  V30 40 1 17 37
M  V30 41 1 19 38
M  V30 42 1 20 39
M  V30 43 1 21 40
M  V30 44 1 22 41
M  V30 45 1 24 42
M  V30 46 1 25 43
M  V30 47 1 26 44
M  V30 END BOND
M  V30 END CTAB
M  END
