
     RDKit          3D

  0  0  0  0  0  0  0  0  0  0999 V3000
M  V30 BEGIN CTAB
M  V30 COUNTS 76 81 0 0 0
M  V30 BEGIN ATOM
M  V30 1 N -12.5229 2.84046 -0.577867 0
M  V30 2 C -11.8366 1.62896 -0.377653 0
M  V30 3 C -12.5108 0.407547 -0.332688 0
M  V30 4 C -11.8054 -0.748247 -0.137085 0
M  V30 5 C -10.4275 -0.748723 0.0199063 0
M  V30 6 C -9.75191 -1.95034 0.215165 0
M  V30 7 C -8.36988 -1.92379 0.36808 0
M  V30 8 C -7.73582 -0.711634 0.319279 0
M  V30 9 N -6.3028 -0.688191 0.471512 0
M  V30 10 N -5.58144 -0.259888 -0.477506 0
M  V30 11 C -4.16693 -0.192843 -0.437238 0
M  V30 12 C -3.52444 0.852642 0.167426 0
M  V30 13 C -2.13467 0.876969 0.179129 0
M  V30 14 C -1.38591 -0.113713 -0.396246 0
M  V30 15 C -2.06216 -1.16098 -1.00176 0
M  V30 16 C -3.44139 -1.20703 -1.02598 0
M  V30 17 C 0.0695219 -0.0655677 -0.374192 0
M  V30 18 C 0.759478 -1.25405 -0.339951 0
M  V30 19 C 2.15977 -1.21928 -0.320239 0
M  V30 20 C 2.84114 -0.0325469 -0.334265 0
M  V30 21 C 2.12526 1.13857 -0.368319 0
M  V30 22 C 0.738696 1.15096 -0.38877 0
M  V30 23 N 4.24186 -0.00406819 -0.317338 0
M  V30 24 N 5.01117 -0.366132 0.599006 0
M  V30 25 C 6.40836 -0.244746 0.393548 0
M  V30 26 C 7.00154 0.968883 0.651724 0
M  V30 27 O 6.27996 2.05864 1.10472 0
M  V30 28 C 8.36101 1.07723 0.444369 0
M  V30 29 C 9.00932 2.26954 0.683479 0
M  V30 30 N 8.257 3.37946 1.14886 0
M  V30 31 C 10.3672 2.37778 0.473827 0
M  V30 32 C 11.1303 1.30041 0.0172284 0
M  V30 33 C 10.4514 0.123183 -0.211949 0
M  V30 34 C 9.099 -0.0197396 -0.0134139 0
M  V30 35 C 8.4619 -1.23969 -0.265376 0
M  V30 36 C 7.10765 -1.33609 -0.0556137 0
M  V30 37 S 6.25778 -2.82377 -0.35015 0
M  V30 38 O 5.53697 -3.32328 1.1039 0
M  V30 39 O 7.25819 -3.89305 -0.699497 0
M  V30 40 O 5.27605 -2.72832 -1.459 0
M  V30 41 S 12.852 1.47491 -0.243594 0
M  V30 42 O 13.7049 1.11653 1.14759 0
M  V30 43 O 13.225 0.53718 -1.35476 0
M  V30 44 O 13.19 2.87746 -0.686886 0
M  V30 45 C -8.39069 0.487508 0.126905 0
M  V30 46 O -7.77212 1.71572 0.0758807 0
M  V30 47 C -9.78153 0.464762 -0.0276366 0
M  V30 48 C -10.463 1.65385 -0.223667 0
M  V30 49 S -7.43827 -3.36453 0.613794 0
M  V30 50 O -6.33106 -3.5159 -0.641958 0
M  V30 51 O -6.74831 -3.27018 1.93866 0
M  V30 52 O -8.38384 -4.53723 0.545457 0
M  V30 53 H -12.5216 3.58159 0.158831 0
M  V30 54 H -13.0498 3.04542 -1.4511 0
M  V30 55 H -13.5853 0.371259 -0.451603 0
M  V30 56 H -12.2928 -1.72764 -0.0952939 0
M  V30 57 H -10.2566 -2.89972 0.252954 0
M  V30 58 H -4.11548 1.63453 0.621306 0
M  V30 59 H -1.63614 1.70736 0.659756 0
M  V30 60 H -1.50672 -1.96384 -1.46776 0
M  V30 61 H -3.96138 -2.04458 -1.51085 0
M  V30 62 H 0.199557 -2.17222 -0.329837 0
M  V30 63 H 2.64432 -2.19225 -0.293004 0
M  V30 64 H 2.60513 2.11124 -0.380693 0
M  V30 65 H 0.165134 2.06138 -0.415953 0
M  V30 66 H 5.30417 2.06732 1.27996 0
M  V30 67 H 7.74168 3.95197 0.462381 0
M  V30 68 H 8.20594 3.63673 2.1544 0
M  V30 69 H 10.8246 3.33609 0.677249 0
M  V30 70 H 11.014 -0.7409 -0.569014 0
M  V30 71 H 9.02015 -2.09417 -0.618597 0
M  V30 72 H 6.07335 -3.01759 1.87508 0
M  V30 73 H 13.0568 1.0562 1.89702 0
M  V30 74 H -6.79837 1.90994 0.170868 0
M  V30 75 H -9.90835 2.57782 -0.25282 0
M  V30 76 H -5.53538 -4.03154 -0.398642 0
M  V30 END ATOM
M  V30 BEGIN BOND
M  V30 1 1 1 2
M  V30 2 2 2 3
M  V30 3 1 3 4
M  V30 4 2 4 5
M  V30 5 1 5 6
M  V30 6 2 6 7
M  V30 7 1 7 8
M  V30 8 1 8 9
M  V30 9 2 9 10
M  V30 10 1 10 11
M  V30 11 2 11 12
M  V30 12 1 12 13
M  V30 13 2 13 14
M  V30 14 1 14 15
M  V30 15 2 15 16
M  V30 16 1 14 17
M  V30 17 2 17 18
M  V30 18 1 18 19
M  V30 19 2 19 20
M  V30 20 1 20 21
M  V30 21 2 21 22
M  V30 22 1 20 23
M  V30 23 2 23 24
M  V30 24 1 24 25
M  V30 25 2 25 26
M  V30 26 1 26 27
M  V30 27 1 26 28
M  V30 28 2 28 29
M  V30 29 1 29 30
M  V30 30 1 29 31
M  V30 31 2 31 32
M  V30 32 1 32 33
M  V30 33 2 33 34
M  V30 34 1 34 35
M  V30 35 2 35 36
M  V30 36 1 36 37
M  V30 37 1 37 38
M  V30 38 2 37 39
M  V30 39 2 37 40
M  V30 40 1 32 41
M  V30 41 1 41 42
M  V30 42 2 41 43
M  V30 43 2 41 44
M  V30 44 2 8 45
M  V30 45 1 45 46
M  V30 46 1 45 47
M  V30 47 2 47 48
M  V30 48 1 7 49
M  V30 49 1 49 50
M  V30 50 2 49 51
M  V30 51 2 49 52
M  V30 52 1 48 2
M  V30 53 1 47 5
M  V30 54 1 16 11
M  V30 55 1 22 17
M  V30 56 1 36 25
M  V30 57 1 34 28
M  V30 58 1 1 53
M  V30 59 1 1 54
M  V30 60 1 3 55
M  V30 61 1 4 56
M  V30 62 1 6 57
M  V30 63 1 12 58
M  V30 64 1 13 59
M  V30 65 1 15 60
M  V30 66 1 16 61
M  V30 67 1 18 62
M  V30 68 1 19 63
M  V30 69 1 21 64
M  V30 70 1 22 65
M  V30 71 1 27 66
M  V30 72 1 30 67
M  V30 73 1 30 68
M  V30 74 1 31 69
M  V30 75 1 33 70
M  V30 76 1 35 71
M  V30 77 1 38 72
M  V30 78 1 42 73
M  V30 79 1 46 74
M  V30 80 1 48 75
M  V30 81 1 50 76
M  V30 END BOND
M  V30 END CTAB
M  END
