
     RDKit          3D

  0  0  0  0  0  0  0  0  0  0999 V3000
M  V30 BEGIN CTAB
M  V30 COUNTS 30 32 0 0 0
M  V30 BEGIN ATOM
M  V30 1 C -1.0266 -2.77871 -1.17845 0
M  V30 2 C -1.69507 -1.53297 -0.676413 0
M  V30 3 C -1.13883 -0.384571 -0.162242 0
M  V30 4 C -1.99707 0.585814 0.219267 0
M  V30 5 C -1.67359 1.84109 0.766572 0
M  V30 6 N -0.327716 2.23622 0.989408 0
M  V30 7 N -2.67812 2.68013 1.08264 0
M  V30 8 C -3.97129 2.44522 0.930257 0
M  V30 9 N -4.30189 1.25152 0.408961 0
M  V30 10 C -3.33121 0.345041 0.062846 0
M  V30 11 S -3.36037 -1.22541 -0.611571 0
M  V30 12 C 0.359639 -0.345999 -0.0977705 0
M  V30 13 C 1.08756 0.235035 -1.12273 0
M  V30 14 C 2.46069 0.235466 -1.08808 0
M  V30 15 Cl 3.3321 0.990172 -2.41384 0
M  V30 16 C 3.1586 -0.334289 -0.04588 0
M  V30 17 N 4.58793 -0.330961 -0.0277723 0
M  V30 18 C 2.42136 -0.910411 0.970862 0
M  V30 19 C 1.03857 -0.921983 0.956234 0
M  V30 20 H -0.40414 -3.23616 -0.378137 0
M  V30 21 H -1.81175 -3.49979 -1.49543 0
M  V30 22 H -0.40264 -2.57054 -2.06863 0
M  V30 23 H 0.160902 2.83762 0.304959 0
M  V30 24 H 0.153347 1.91582 1.8553 0
M  V30 25 H -4.74581 3.14874 1.19713 0
M  V30 26 H 0.520043 0.682677 -1.93708 0
M  V30 27 H 5.13707 -0.896916 -0.686842 0
M  V30 28 H 5.03651 0.276789 0.690888 0
M  V30 29 H 2.95643 -1.36454 1.79925 0
M  V30 30 H 0.455338 -1.37411 1.75628 0
M  V30 END ATOM
M  V30 BEGIN BOND
M  V30 1 1 1 2
M  V30 2 2 2 3
M  V30 3 1 3 4
M  V30 4 2 4 5
M  V30 5 1 5 6
M  V30 6 1 5 7
M  V30 7 2 7 8
M  V30 8 1 8 9
M  V30 9 2 9 10
M  V30 10 1 10 11
M  V30 11 1 3 12
M  V30 12 2 12 13
M  V30 13 1 13 14
M  V30 14 1 14 15
M  V30 15 2 14 16
M  V30 16 1 16 17
M  V30 17 1 16 18
M  V30 18 2 18 19
M  V30 19 1 11 2
M  V30 20 1 19 12
M  V30 21 1 10 4
M  V30 22 1 1 20
M  V30 23 1 1 21
M  V30 24 1 1 22
M  V30 25 1 6 23
M  V30 26 1 6 24
M  V30 27 1 8 25
M  V30 28 1 13 26
M  V30 29 1 17 27
M  V30 30 1 17 28
M  V30 31 1 18 29
M  V30 32 1 19 30
M  V30 END BOND
M  V30 END CTAB
M  END
