
     RDKit          3D

  0  0  0  0  0  0  0  0  0  0999 V3000
M  V30 BEGIN CTAB
M  V30 COUNTS 42 43 0 0 0
M  V30 BEGIN ATOM
M  V30 1 N 3.83977 0.0879959 -0.936669 0
M  V30 2 C 3.77862 0.465136 0.470402 0
M  V30 3 C 5.07203 0.16005 1.18248 0
M  V30 4 C 6.34957 0.77778 0.75438 0
M  V30 5 C 6.0302 -0.701512 0.420406 0
M  V30 6 C 2.68272 -0.34381 1.1303 0
M  V30 7 N 1.39561 -0.0639387 0.482225 0
M  V30 8 C 0.226869 -0.702441 0.926595 0
M  V30 9 O 0.283068 -1.53133 1.90005 0
M  V30 10 C -1.05025 -0.43411 0.294278 0
M  V30 11 C -1.16839 0.426883 -0.775851 0
M  V30 12 C -2.41556 0.64883 -1.34353 0
M  V30 13 C -2.56216 1.57092 -2.49412 0
M  V30 14 C -3.5029 0.00262683 -0.82246 0
M  V30 15 C -3.41952 -0.865125 0.247364 0
M  V30 16 C -2.18252 -1.0785 0.802302 0
M  V30 17 S -4.81759 -1.68975 0.906635 0
M  V30 18 O -4.40295 -2.4394 2.16542 0
M  V30 19 O -5.40769 -2.6759 -0.0274312 0
M  V30 20 N -5.94621 -0.487995 1.43895 0
M  V30 21 C -4.82387 0.239969 -1.42378 0
M  V30 22 H 3.89823 -0.948368 -1.03485 0
M  V30 23 H 4.64019 0.528955 -1.40175 0
M  V30 24 H 3.59774 1.54862 0.545554 0
M  V30 25 H 4.9401 -0.0690978 2.26563 0
M  V30 26 H 7.13476 0.933172 1.52892 0
M  V30 27 H 6.41385 1.48191 -0.0883917 0
M  V30 28 H 6.65365 -1.44793 0.955278 0
M  V30 29 H 5.90531 -0.887579 -0.654354 0
M  V30 30 H 2.86087 -1.43119 1.03154 0
M  V30 31 H 2.54911 -0.0898687 2.19045 0
M  V30 32 H 1.40137 0.607689 -0.293088 0
M  V30 33 H -0.32732 0.944707 -1.20119 0
M  V30 34 H -1.95885 2.49193 -2.24244 0
M  V30 35 H -3.59663 1.90647 -2.60023 0
M  V30 36 H -2.12398 1.16007 -3.42403 0
M  V30 37 H -2.07756 -1.74742 1.63681 0
M  V30 38 H -5.5258 0.466498 1.39139 0
M  V30 39 H -6.85443 -0.563932 0.946192 0
M  V30 40 H -5.19726 1.25674 -1.18731 0
M  V30 41 H -5.60178 -0.489125 -1.12798 0
M  V30 42 H -4.69039 0.179894 -2.53411 0
M  V30 END ATOM
M  V30 BEGIN BOND
M  V30 1 1 1 2
M  V30 2 1 2 3
M  V30 3 1 3 4
M  V30 4 1 4 5
M  V30 5 1 2 6
M  V30 6 1 6 7
M  V30 7 1 7 8
M  V30 8 2 8 9
M  V30 9 1 8 10
M  V30 10 2 10 11
M  V30 11 1 11 12
M  V30 12 1 12 13
M  V30 13 2 12 14
M  V30 14 1 14 15
M  V30 15 2 15 16
M  V30 16 1 15 17
M  V30 17 2 17 18
M  V30 18 2 17 19
M  V30 19 1 17 20
M  V30 20 1 14 21
M  V30 21 1 5 3
M  V30 22 1 16 10
M  V30 23 1 1 22
M  V30 24 1 1 23
M  V30 25 1 2 24
M  V30 26 1 3 25
M  V30 27 1 4 26
M  V30 28 1 4 27
M  V30 29 1 5 28
M  V30 30 1 5 29
M  V30 31 1 6 30
M  V30 32 1 6 31
M  V30 33 1 7 32
M  V30 34 1 11 33
M  V30 35 1 13 34
M  V30 36 1 13 35
M  V30 37 1 13 36
M  V30 38 1 16 37
M  V30 39 1 20 38
M  V30 40 1 20 39
M  V30 41 1 21 40
M  V30 42 1 21 41
M  V30 43 1 21 42
M  V30 END BOND
M  V30 END CTAB
M  END
