
     RDKit          3D

  0  0  0  0  0  0  0  0  0  0999 V3000
M  V30 BEGIN CTAB
M  V30 COUNTS 40 43 0 0 0
M  V30 BEGIN ATOM
M  V30 1 C 5.90629 -0.921277 -1.31075 0
M  V30 2 C 4.66627 -0.121693 -1.10402 0
M  V30 3 C 4.52062 0.71156 -0.014194 0
M  V30 4 C 3.3681 1.44782 0.168033 0
M  V30 5 C 2.3048 1.39403 -0.720309 0
M  V30 6 C 1.10285 2.22329 -0.444457 0
M  V30 7 N 0.120945 1.57083 0.369311 0
M  V30 8 C 0.0451876 1.57865 1.70354 0
M  V30 9 C -1.04768 0.824209 2.1232 0
M  V30 10 C -1.65324 0.34347 0.992216 0
M  V30 11 C -0.905555 0.823359 -0.0841765 0
M  V30 12 C -1.29669 0.488685 -1.3752 0
M  V30 13 C -2.40295 -0.303171 -1.58938 0
M  V30 14 C -3.12766 -0.767179 -0.515686 0
M  V30 15 N -4.20607 -1.53953 -0.73262 0
M  V30 16 C -4.92691 -2.00376 0.274612 0
M  V30 17 N -6.0656 -2.81893 0.0530107 0
M  V30 18 N -4.57971 -1.70128 1.53646 0
M  V30 19 C -3.51705 -0.936271 1.83757 0
M  V30 20 N -3.23445 -0.6755 3.18876 0
M  V30 21 C -2.7659 -0.452474 0.788798 0
M  V30 22 C 2.44366 0.564211 -1.81045 0
M  V30 23 C 3.614 -0.182214 -1.99371 0
M  V30 24 H 6.79421 -0.428428 -0.876418 0
M  V30 25 H 5.79199 -1.89444 -0.797709 0
M  V30 26 H 6.11813 -1.10665 -2.37242 0
M  V30 27 H 5.36339 0.753979 0.689595 0
M  V30 28 H 3.27602 2.10024 1.03811 0
M  V30 29 H 1.4386 3.19924 0.00281235 0
M  V30 30 H 0.697068 2.51061 -1.45513 0
M  V30 31 H 0.700025 2.07453 2.40356 0
M  V30 32 H -1.34537 0.660231 3.14027 0
M  V30 33 H -0.69064 0.883195 -2.17809 0
M  V30 34 H -2.68706 -0.549622 -2.59995 0
M  V30 35 H -6.83637 -2.79731 0.736648 0
M  V30 36 H -6.11683 -3.42849 -0.789858 0
M  V30 37 H -3.63281 0.126815 3.72344 0
M  V30 38 H -2.58729 -1.31905 3.69599 0
M  V30 39 H 1.64221 0.502577 -2.51213 0
M  V30 40 H 3.71144 -0.834264 -2.85912 0
M  V30 END ATOM
M  V30 BEGIN BOND
M  V30 1 1 1 2
M  V30 2 2 2 3
M  V30 3 1 3 4
M  V30 4 2 4 5
M  V30 5 1 5 6
M  V30 6 1 6 7
M  V30 7 1 7 8
M  V30 8 2 8 9
M  V30 9 1 9 10
M  V30 10 2 10 11
M  V30 11 1 11 12
M  V30 12 2 12 13
M  V30 13 1 13 14
M  V30 14 2 14 15
M  V30 15 1 15 16
M  V30 16 1 16 17
M  V30 17 2 16 18
M  V30 18 1 18 19
M  V30 19 1 19 20
M  V30 20 2 19 21
M  V30 21 1 5 22
M  V30 22 2 22 23
M  V30 23 1 23 2
M  V30 24 1 11 7
M  V30 25 1 21 14
M  V30 26 1 21 10
M  V30 27 1 1 24
M  V30 28 1 1 25
M  V30 29 1 1 26
M  V30 30 1 3 27
M  V30 31 1 4 28
M  V30 32 1 6 29
M  V30 33 1 6 30
M  V30 34 1 8 31
M  V30 35 1 9 32
M  V30 36 1 12 33
M  V30 37 1 13 34
M  V30 38 1 17 35
M  V30 39 1 17 36
M  V30 40 1 20 37
M  V30 41 1 20 38
M  V30 42 1 22 39
M  V30 43 1 23 40
M  V30 END BOND
M  V30 END CTAB
M  END
