
     RDKit          3D

  0  0  0  0  0  0  0  0  0  0999 V3000
M  V30 BEGIN CTAB
M  V30 COUNTS 40 42 0 0 0
M  V30 BEGIN ATOM
M  V30 1 O -4.11162 0.0338715 1.92396 0
M  V30 2 C -3.60834 -0.0187331 0.77515 0 CFG=1
M  V30 3 C -3.10411 1.35431 0.440477 0
M  V30 4 N -1.81621 1.54468 0.994747 0
M  V30 5 C -0.708907 1.23447 0.172007 0
M  V30 6 C -0.40505 -0.241936 0.0731386 0 CFG=1
M  V30 7 C -1.57657 -1.06285 -0.336646 0 CFG=1
M  V30 8 C -2.54753 -1.08177 0.808411 0
M  V30 9 C -2.19203 -0.727589 -1.64626 0
M  V30 10 O -1.10474 -2.39657 -0.44095 0
M  V30 11 N 0.795231 -0.415308 -0.675368 0
M  V30 12 C 1.02098 -0.897763 -1.90179 0
M  V30 13 N 2.34389 -0.863556 -2.18309 0
M  V30 14 C 2.95516 -0.35577 -1.12572 0
M  V30 15 C 2.01332 -0.0645803 -0.163946 0
M  V30 16 N 2.41971 0.467352 1.00868 0
M  V30 17 C 3.71132 0.727032 1.28076 0
M  V30 18 N 4.12021 1.29419 2.5377 0
M  V30 19 N 4.61635 0.435357 0.327881 0
M  V30 20 C 4.28953 -0.0936281 -0.85947 0
M  V30 21 N 5.24003 -0.402218 -1.8657 0
M  V30 22 H -4.52611 0.341903 2.42614 0
M  V30 23 H -4.46655 -0.317839 0.0976365 0
M  V30 24 H -3.80597 2.09799 0.878744 0
M  V30 25 H -3.09559 1.58048 -0.644142 0
M  V30 26 H -1.7045 2.2967 1.67598 0
M  V30 27 H 0.195274 1.72446 0.589479 0
M  V30 28 H -0.873511 1.67524 -0.833287 0
M  V30 29 H -0.175135 -0.559845 1.13577 0
M  V30 30 H -3.06648 -2.06039 0.858068 0
M  V30 31 H -1.98206 -0.968986 1.75604 0
M  V30 32 H -3.31391 -0.621493 -1.55157 0
M  V30 33 H -1.73256 0.154451 -2.119 0
M  V30 34 H -2.10366 -1.55692 -2.41047 0
M  V30 35 H -1.70093 -3.03455 -0.0194103 0
M  V30 36 H 0.262209 -1.25779 -2.56188 0
M  V30 37 H 3.695 2.16495 2.91487 0
M  V30 38 H 4.86406 0.844656 3.11614 0
M  V30 39 H 5.8575 0.379432 -2.2044 0
M  V30 40 H 5.3223 -1.35143 -2.24867 0
M  V30 END ATOM
M  V30 BEGIN BOND
M  V30 1 1 1 2
M  V30 2 1 2 3
M  V30 3 1 3 4
M  V30 4 1 4 5
M  V30 5 1 5 6
M  V30 6 1 6 7
M  V30 7 1 7 8
M  V30 8 1 7 9
M  V30 9 1 7 10 CFG=3
M  V30 10 1 6 11
M  V30 11 1 11 12
M  V30 12 2 12 13
M  V30 13 1 13 14
M  V30 14 2 14 15
M  V30 15 1 15 16
M  V30 16 2 16 17
M  V30 17 1 17 18
M  V30 18 1 17 19
M  V30 19 2 19 20
M  V30 20 1 20 21
M  V30 21 1 8 2
M  V30 22 1 15 11
M  V30 23 1 20 14
M  V30 24 1 1 22
M  V30 25 1 2 23 CFG=3
M  V30 26 1 3 24
M  V30 27 1 3 25
M  V30 28 1 4 26
M  V30 29 1 5 27
M  V30 30 1 5 28
M  V30 31 1 6 29 CFG=1
M  V30 32 1 8 30
M  V30 33 1 8 31
M  V30 34 1 9 32
M  V30 35 1 9 33
M  V30 36 1 9 34
M  V30 37 1 10 35
M  V30 38 1 12 36
M  V30 39 1 18 37
M  V30 40 1 18 38
M  V30 41 1 21 39
M  V30 42 1 21 40
M  V30 END BOND
M  V30 END CTAB
M  END
