
     RDKit          3D

  0  0  0  0  0  0  0  0  0  0999 V3000
M  V30 BEGIN CTAB
M  V30 COUNTS 47 49 0 0 0
M  V30 BEGIN ATOM
M  V30 1 O 2.43069 0.521077 -1.47663 0
M  V30 2 C 1.8762 0.513516 -0.338879 0
M  V30 3 C 0.730476 1.409 -0.150505 0
M  V30 4 C 0.0421866 1.3468 1.16431 0
M  V30 5 C -0.539861 0.0236685 1.45748 0
M  V30 6 O 0.0922814 -0.851939 2.11401 0
M  V30 7 C -1.89454 -0.36144 1.00456 0
M  V30 8 C -2.40657 -1.60716 1.31169 0
M  V30 9 C -3.66417 -1.97854 0.900683 0
M  V30 10 C -4.4834 -1.14181 0.165342 0
M  V30 11 C -3.98564 0.102644 -0.147954 0
M  V30 12 C -2.70238 0.479013 0.272455 0
M  V30 13 C -4.74075 1.11785 -0.930206 0
M  V30 14 C -5.92986 0.445573 -1.57799 0
M  V30 15 C -6.65411 -0.332305 -0.503943 0
M  V30 16 C -5.8507 -1.58838 -0.260333 0
M  V30 17 O 2.40523 -0.327783 0.593445 0
M  V30 18 C 3.48684 -1.19198 0.473947 0
M  V30 19 C 4.77764 -0.546866 0.154296 0
M  V30 20 N 5.515 -0.0272955 1.14535 0
M  V30 21 C 6.70839 0.57585 0.94444 0
M  V30 22 N 7.46909 1.11669 2.00569 0
M  V30 23 N 7.1609 0.647625 -0.323153 0
M  V30 24 C 6.4403 0.13194 -1.35329 0
M  V30 25 N 5.24064 -0.467968 -1.10204 0
M  V30 26 N 6.91155 0.203504 -2.68961 0
M  V30 27 H -0.0670241 1.23749 -0.937059 0
M  V30 28 H 1.08666 2.44817 -0.375342 0
M  V30 29 H -0.79136 2.0963 1.12909 0
M  V30 30 H 0.694035 1.70315 2.00573 0
M  V30 31 H -1.78833 -2.2957 1.89078 0
M  V30 32 H -4.08313 -2.95817 1.13495 0
M  V30 33 H -2.32388 1.46008 0.0159956 0
M  V30 34 H -4.1066 1.57071 -1.72627 0
M  V30 35 H -5.12869 1.9432 -0.273162 0
M  V30 36 H -6.60408 1.21685 -2.0311 0
M  V30 37 H -5.52499 -0.220057 -2.37187 0
M  V30 38 H -7.68638 -0.592884 -0.774302 0
M  V30 39 H -6.6082 0.266393 0.446678 0
M  V30 40 H -5.81838 -2.1436 -1.21752 0
M  V30 41 H -6.28546 -2.21616 0.544104 0
M  V30 42 H 3.31149 -2.04081 -0.21968 0
M  V30 43 H 3.60811 -1.68367 1.48506 0
M  V30 44 H 7.62437 2.13078 2.06285 0
M  V30 45 H 7.86261 0.489559 2.71486 0
M  V30 46 H 7.60637 -0.501698 -3.01003 0
M  V30 47 H 6.58743 0.929946 -3.34692 0
M  V30 END ATOM
M  V30 BEGIN BOND
M  V30 1 2 1 2
M  V30 2 1 2 3
M  V30 3 1 3 4
M  V30 4 1 4 5
M  V30 5 2 5 6
M  V30 6 1 5 7
M  V30 7 2 7 8
M  V30 8 1 8 9
M  V30 9 2 9 10
M  V30 10 1 10 11
M  V30 11 2 11 12
M  V30 12 1 11 13
M  V30 13 1 13 14
M  V30 14 1 14 15
M  V30 15 1 15 16
M  V30 16 1 2 17
M  V30 17 1 17 18
M  V30 18 1 18 19
M  V30 19 2 19 20
M  V30 20 1 20 21
M  V30 21 1 21 22
M  V30 22 2 21 23
M  V30 23 1 23 24
M  V30 24 2 24 25
M  V30 25 1 24 26
M  V30 26 1 12 7
M  V30 27 1 25 19
M  V30 28 1 16 10
M  V30 29 1 3 27
M  V30 30 1 3 28
M  V30 31 1 4 29
M  V30 32 1 4 30
M  V30 33 1 8 31
M  V30 34 1 9 32
M  V30 35 1 12 33
M  V30 36 1 13 34
M  V30 37 1 13 35
M  V30 38 1 14 36
M  V30 39 1 14 37
M  V30 40 1 15 38
M  V30 41 1 15 39
M  V30 42 1 16 40
M  V30 43 1 16 41
M  V30 44 1 18 42
M  V30 45 1 18 43
M  V30 46 1 22 44
M  V30 47 1 22 45
M  V30 48 1 26 46
M  V30 49 1 26 47
M  V30 END BOND
M  V30 END CTAB
M  END
