
     RDKit          3D

  0  0  0  0  0  0  0  0  0  0999 V3000
M  V30 BEGIN CTAB
M  V30 COUNTS 20 20 0 0 0
M  V30 BEGIN ATOM
M  V30 1 N 2.56365 1.29231 0.813176 0
M  V30 2 C 1.3996 0.580123 0.400502 0
M  V30 3 C 0.145304 1.15868 0.381607 0
M  V30 4 C -0.935963 0.40442 -0.0310178 0
M  V30 5 C -0.798289 -0.910031 -0.424627 0
M  V30 6 C 0.449323 -1.49359 -0.408393 0
M  V30 7 C 1.53777 -0.72027 0.0114168 0
M  V30 8 O 2.7827 -1.30846 0.0257563 0
M  V30 9 N -1.94981 -1.63936 -0.840677 0
M  V30 10 C -2.29447 1.00037 -0.0611449 0
M  V30 11 F -2.81133 0.968531 -1.34913 0
M  V30 12 F -2.31247 2.26444 0.47969 0
M  V30 13 F -3.1837 0.239897 0.71138 0
M  V30 14 H 2.9117 1.22415 1.79322 0
M  V30 15 H 3.09985 1.89772 0.158006 0
M  V30 16 H 0.0139833 2.18582 0.685338 0
M  V30 17 H 0.580302 -2.5274 -0.714322 0
M  V30 18 H 3.57414 -0.766505 0.324603 0
M  V30 19 H -2.37172 -1.53837 -1.77553 0
M  V30 20 H -2.40057 -2.31246 -0.17985 0
M  V30 END ATOM
M  V30 BEGIN BOND
M  V30 1 1 1 2
M  V30 2 2 2 3
M  V30 3 1 3 4
M  V30 4 2 4 5
M  V30 5 1 5 6
M  V30 6 2 6 7
M  V30 7 1 7 8
M  V30 8 1 5 9
M  V30 9 1 4 10
M  V30 10 1 10 11
M  V30 11 1 10 12
M  V30 12 1 10 13
M  V30 13 1 7 2
M  V30 14 1 1 14
M  V30 15 1 1 15
M  V30 16 1 3 16
M  V30 17 1 6 17
M  V30 18 1 8 18
M  V30 19 1 9 19
M  V30 20 1 9 20
M  V30 END BOND
M  V30 END CTAB
M  END
