
     RDKit          3D

  0  0  0  0  0  0  0  0  0  0999 V3000
M  V30 BEGIN CTAB
M  V30 COUNTS 28 28 0 0 0
M  V30 BEGIN ATOM
M  V30 1 N 3.13921 -0.454423 -0.23982 0
M  V30 2 C 2.61373 0.661352 -0.893356 0
M  V30 3 C 1.48773 1.34524 -0.207732 0
M  V30 4 N 0.314501 0.623515 0.04326 0
M  V30 5 C 0.308423 -0.420868 0.984757 0
M  V30 6 C -0.288684 -1.71568 0.445056 0
M  V30 7 O -1.65481 -1.72482 0.657218 0
M  V30 8 C -2.39421 -1.09173 -0.307328 0
M  V30 9 C -2.02502 0.364598 -0.499656 0 CFG=2
M  V30 10 C -0.625393 0.521175 -1.02312 0
M  V30 11 N -2.28514 1.15607 0.670922 0
M  V30 12 H 2.9535 -1.32762 -0.614029 0
M  V30 13 H 3.72738 -0.347741 0.530477 0
M  V30 14 H 3.46176 1.40482 -0.985698 0
M  V30 15 H 2.36753 0.410526 -1.96055 0
M  V30 16 H 1.89042 1.70163 0.786786 0
M  V30 17 H 1.20433 2.27077 -0.779489 0
M  V30 18 H 1.26601 -0.660257 1.4782 0
M  V30 19 H -0.374414 -0.151816 1.8514 0
M  V30 20 H 0.120646 -2.55888 1.07553 0
M  V30 21 H 0.0203824 -1.92011 -0.582135 0
M  V30 22 H -2.34857 -1.5759 -1.30544 0
M  V30 23 H -3.45433 -1.12681 0.000447858 0
M  V30 24 H -2.72141 0.751008 -1.30035 0
M  V30 25 H -0.599353 1.49247 -1.59739 0
M  V30 26 H -0.431027 -0.27464 -1.76422 0
M  V30 27 H -2.79821 2.03177 0.44758 0
M  V30 28 H -2.87499 0.616344 1.34344 0
M  V30 END ATOM
M  V30 BEGIN BOND
M  V30 1 1 1 2
M  V30 2 1 2 3
M  V30 3 1 3 4
M  V30 4 1 4 5
M  V30 5 1 5 6
M  V30 6 1 6 7
M  V30 7 1 7 8
M  V30 8 1 8 9
M  V30 9 1 9 10
M  V30 10 1 9 11
M  V30 11 1 10 4
M  V30 12 1 1 12
M  V30 13 1 1 13
M  V30 14 1 2 14
M  V30 15 1 2 15
M  V30 16 1 3 16
M  V30 17 1 3 17
M  V30 18 1 5 18
M  V30 19 1 5 19
M  V30 20 1 6 20
M  V30 21 1 6 21
M  V30 22 1 8 22
M  V30 23 1 8 23
M  V30 24 1 9 24 CFG=3
M  V30 25 1 10 25
M  V30 26 1 10 26
M  V30 27 1 11 27
M  V30 28 1 11 28
M  V30 END BOND
M  V30 END CTAB
M  END
