
     RDKit          3D

  0  0  0  0  0  0  0  0  0  0999 V3000
M  V30 BEGIN CTAB
M  V30 COUNTS 60 63 0 0 0
M  V30 BEGIN ATOM
M  V30 1 N -8.83473 0.0504205 0.900627 0
M  V30 2 C -8.26024 -0.86495 -0.0329513 0
M  V30 3 C -6.8786 -0.41252 -0.307789 0
M  V30 4 C -6.67983 0.474155 -1.34463 0
M  V30 5 C -5.4328 0.922473 -1.63953 0
M  V30 6 C -4.31219 0.510977 -0.915797 0
M  V30 7 C -4.52764 -0.371369 0.109138 0
M  V30 8 C -5.79132 -0.829407 0.414173 0
M  V30 9 C -3.02199 0.990856 -1.35432 0
M  V30 10 O -3.03091 1.46131 -2.57757 0
M  V30 11 N -1.84081 1.00678 -0.655607 0
M  V30 12 C -0.622659 1.47792 -1.4068 0
M  V30 13 C 0.254625 0.216994 -1.37992 0
M  V30 14 C 0.657807 -0.213221 -0.0163415 0
M  V30 15 C -0.610896 -0.48423 0.815955 0
M  V30 16 C -1.54404 0.715207 0.693391 0
M  V30 17 O 1.31065 -1.41347 -0.104914 0
M  V30 18 C 2.56519 -1.37528 -0.631692 0
M  V30 19 C 3.3823 -0.190069 -0.243511 0 CFG=1
M  V30 20 C 2.8534 0.406145 1.03645 0 CFG=1
M  V30 21 C 1.42947 0.838705 0.744993 0
M  V30 22 C 2.87395 -0.515057 2.19613 0
M  V30 23 O 3.58316 1.55098 1.36647 0
M  V30 24 N 4.79741 -0.424207 -0.219531 0
M  V30 25 C 5.32329 -1.44987 0.479036 0
M  V30 26 C 6.69785 -1.68828 0.510418 0
M  V30 27 C 7.54417 -0.854333 -0.190828 0
M  V30 28 N 7.00194 0.149416 -0.871588 0
M  V30 29 C 5.67275 0.355958 -0.884302 0
M  V30 30 O 5.20314 1.32012 -1.54357 0
M  V30 31 N 8.95292 -1.01109 -0.223004 0
M  V30 32 H -9.57711 -0.315592 1.42697 0
M  V30 33 H -8.75187 1.00685 0.694328 0
M  V30 34 H -8.20608 -1.88251 0.412596 0
M  V30 35 H -8.80566 -0.884504 -0.994299 0
M  V30 36 H -7.52035 0.837302 -1.95368 0
M  V30 37 H -5.3143 1.63537 -2.47469 0
M  V30 38 H -3.71973 -0.783132 0.695321 0
M  V30 39 H -5.97657 -1.53027 1.22813 0
M  V30 40 H -0.872341 1.64928 -2.46771 0
M  V30 41 H -0.194325 2.31568 -0.867618 0
M  V30 42 H 1.06841 0.294115 -2.10187 0
M  V30 43 H -0.428042 -0.590453 -1.78107 0
M  V30 44 H -1.09088 -1.42079 0.553468 0
M  V30 45 H -0.275396 -0.52346 1.86816 0
M  V30 46 H -2.34991 0.627296 1.38672 0
M  V30 47 H -0.942489 1.61489 1.0964 0
M  V30 48 H 3.1099 -2.30076 -0.282313 0
M  V30 49 H 2.50933 -1.47607 -1.74044 0
M  V30 50 H 3.1933 0.601277 -1.02928 0
M  V30 51 H 1.51032 1.79029 0.165624 0
M  V30 52 H 0.975426 1.10694 1.71106 0
M  V30 53 H 3.85049 -0.482569 2.76042 0
M  V30 54 H 2.12359 -0.130482 2.94825 0
M  V30 55 H 2.59196 -1.55024 1.99645 0
M  V30 56 H 3.62778 1.6775 2.36322 0
M  V30 57 H 4.71644 -2.12649 1.03965 0
M  V30 58 H 7.12641 -2.5036 1.06462 0
M  V30 59 H 9.49392 -0.590784 0.572145 0
M  V30 60 H 9.41244 -1.52615 -1.01317 0
M  V30 END ATOM
M  V30 BEGIN BOND
M  V30 1 1 1 2
M  V30 2 1 2 3
M  V30 3 2 3 4
M  V30 4 1 4 5
M  V30 5 2 5 6
M  V30 6 1 6 7
M  V30 7 2 7 8
M  V30 8 1 6 9
M  V30 9 2 9 10
M  V30 10 1 9 11
M  V30 11 1 11 12
M  V30 12 1 12 13
M  V30 13 1 13 14
M  V30 14 1 14 15
M  V30 15 1 15 16
M  V30 16 1 14 17
M  V30 17 1 17 18
M  V30 18 1 18 19
M  V30 19 1 19 20
M  V30 20 1 20 21
M  V30 21 1 20 22
M  V30 22 1 20 23 CFG=1
M  V30 23 1 19 24
M  V30 24 1 24 25
M  V30 25 2 25 26
M  V30 26 1 26 27
M  V30 27 2 27 28
M  V30 28 1 28 29
M  V30 29 2 29 30
M  V30 30 1 27 31
M  V30 31 1 8 3
M  V30 32 1 16 11
M  V30 33 1 29 24
M  V30 34 1 21 14
M  V30 35 1 1 32
M  V30 36 1 1 33
M  V30 37 1 2 34
M  V30 38 1 2 35
M  V30 39 1 4 36
M  V30 40 1 5 37
M  V30 41 1 7 38
M  V30 42 1 8 39
M  V30 43 1 12 40
M  V30 44 1 12 41
M  V30 45 1 13 42
M  V30 46 1 13 43
M  V30 47 1 15 44
M  V30 48 1 15 45
M  V30 49 1 16 46
M  V30 50 1 16 47
M  V30 51 1 18 48
M  V30 52 1 18 49
M  V30 53 1 19 50 CFG=3
M  V30 54 1 21 51
M  V30 55 1 21 52
M  V30 56 1 22 53
M  V30 57 1 22 54
M  V30 58 1 22 55
M  V30 59 1 23 56
M  V30 60 1 25 57
M  V30 61 1 26 58
M  V30 62 1 31 59
M  V30 63 1 31 60
M  V30 END BOND
M  V30 END CTAB
M  END
