
     RDKit          3D

  0  0  0  0  0  0  0  0  0  0999 V3000
M  V30 BEGIN CTAB
M  V30 COUNTS 20 20 0 0 0
M  V30 BEGIN ATOM
M  V30 1 F 4.39962 -0.451964 -0.00686505 0
M  V30 2 C 3.42333 -0.0461486 0.882741 0
M  V30 3 O 2.25577 -0.753 0.642564 0
M  V30 4 C 1.03236 -0.246945 0.286787 0
M  V30 5 C 0.789132 1.09665 0.112279 0
M  V30 6 C -0.480713 1.55238 -0.251199 0
M  V30 7 C -1.47446 0.613446 -0.427485 0
M  V30 8 C -1.25973 -0.741622 -0.259324 0
M  V30 9 C 0.0117484 -1.16327 0.101728 0
M  V30 10 Br 0.277617 -3.03603 0.326203 0
M  V30 11 N -2.33004 -1.6387 -0.458691 0
M  V30 12 N -2.78694 1.0414 -0.799555 0
M  V30 13 F 3.86686 -0.240602 2.1979 0
M  V30 14 H 3.34276 1.05023 0.770548 0
M  V30 15 H 1.57172 1.84115 0.250683 0
M  V30 16 H -0.686677 2.61072 -0.392325 0
M  V30 17 H -2.53102 -1.98504 -1.40846 0
M  V30 18 H -2.91125 -1.95016 0.334126 0
M  V30 19 H -3.64962 0.526013 -0.546595 0
M  V30 20 H -2.86046 1.9215 -1.35506 0
M  V30 END ATOM
M  V30 BEGIN BOND
M  V30 1 1 1 2
M  V30 2 1 2 3
M  V30 3 1 3 4
M  V30 4 2 4 5
M  V30 5 1 5 6
M  V30 6 2 6 7
M  V30 7 1 7 8
M  V30 8 2 8 9
M  V30 9 1 9 10
M  V30 10 1 8 11
M  V30 11 1 7 12
M  V30 12 1 2 13
M  V30 13 1 9 4
M  V30 14 1 2 14
M  V30 15 1 5 15
M  V30 16 1 6 16
M  V30 17 1 11 17
M  V30 18 1 11 18
M  V30 19 1 12 19
M  V30 20 1 12 20
M  V30 END BOND
M  V30 END CTAB
M  END
