
     RDKit          3D

  0  0  0  0  0  0  0  0  0  0999 V3000
M  V30 BEGIN CTAB
M  V30 COUNTS 19 19 0 0 0
M  V30 BEGIN ATOM
M  V30 1 F -1.1411 2.85566 -0.0177906 0
M  V30 2 C -1.61691 1.63849 -0.514336 0
M  V30 3 C -0.585945 0.591267 -0.330099 0
M  V30 4 C 0.650599 0.78506 -0.903174 0
M  V30 5 C 1.59713 -0.222245 -0.709003 0
M  V30 6 N 2.88975 -0.0814685 -1.27414 0
M  V30 7 C 1.30976 -1.35683 0.0208159 0
M  V30 8 C 0.0646506 -1.52087 0.580832 0
M  V30 9 C -0.907762 -0.528882 0.404833 0
M  V30 10 N -2.19237 -0.709276 0.988869 0
M  V30 11 F 2.24897 -2.33809 0.203476 0
M  V30 12 F -1.88184 1.86507 -1.86005 0
M  V30 13 H -2.57104 1.3801 -0.0126526 0
M  V30 14 H 0.922314 1.65654 -1.48302 0
M  V30 15 H 3.50672 -0.88884 -1.48102 0
M  V30 16 H 3.26396 0.875304 -1.50355 0
M  V30 17 H -0.187257 -2.40191 1.15842 0
M  V30 18 H -2.70189 0.0343119 1.51475 0
M  V30 19 H -2.66773 -1.63339 0.895548 0
M  V30 END ATOM
M  V30 BEGIN BOND
M  V30 1 1 1 2
M  V30 2 1 2 3
M  V30 3 2 3 4
M  V30 4 1 4 5
M  V30 5 1 5 6
M  V30 6 2 5 7
M  V30 7 1 7 8
M  V30 8 2 8 9
M  V30 9 1 9 10
M  V30 10 1 7 11
M  V30 11 1 2 12
M  V30 12 1 9 3
M  V30 13 1 2 13
M  V30 14 1 4 14
M  V30 15 1 6 15
M  V30 16 1 6 16
M  V30 17 1 8 17
M  V30 18 1 10 18
M  V30 19 1 10 19
M  V30 END BOND
M  V30 END CTAB
M  END
