
     RDKit          3D

  0  0  0  0  0  0  0  0  0  0999 V3000
M  V30 BEGIN CTAB
M  V30 COUNTS 40 41 0 0 0
M  V30 BEGIN ATOM
M  V30 1 C -4.10324 0.842935 -1.30319 0
M  V30 2 C -3.19157 -0.27166 -0.869559 0
M  V30 3 C -2.4745 0.0418802 0.41934 0
M  V30 4 C -1.56652 -1.04717 0.867624 0
M  V30 5 C -0.0895321 -0.738252 0.612769 0
M  V30 6 N 0.339764 0.437783 1.30763 0
M  V30 7 C -0.790756 1.34493 1.57134 0
M  V30 8 C -1.69552 1.32775 0.345472 0
M  V30 9 C 1.32218 1.21609 0.620374 0
M  V30 10 C 2.57634 0.498369 0.335326 0
M  V30 11 N 2.85458 -0.752954 0.656321 0
M  V30 12 C 4.03579 -1.31748 0.348687 0
M  V30 13 N 4.33311 -2.64976 0.689966 0
M  V30 14 N 4.9736 -0.598335 -0.306245 0
M  V30 15 C 4.71524 0.682588 -0.646167 0
M  V30 16 N 3.53622 1.19884 -0.322499 0
M  V30 17 N 5.66899 1.48404 -1.33679 0
M  V30 18 C -4.04521 -1.50845 -0.686868 0
M  V30 19 H -4.89923 0.384696 -1.93168 0
M  V30 20 H -4.61264 1.22322 -0.391525 0
M  V30 21 H -3.58955 1.63158 -1.87401 0
M  V30 22 H -2.45381 -0.506926 -1.66098 0
M  V30 23 H -3.2452 0.189723 1.22473 0
M  V30 24 H -1.64963 -1.23973 1.97649 0
M  V30 25 H -1.75052 -2.02867 0.38203 0
M  V30 26 H 0.449978 -1.64771 1.01239 0
M  V30 27 H 0.142665 -0.727138 -0.46983 0
M  V30 28 H -1.38457 0.92958 2.41052 0
M  V30 29 H -0.44631 2.35624 1.81343 0
M  V30 30 H -1.0968 1.36395 -0.591258 0
M  V30 31 H -2.35273 2.21972 0.319042 0
M  V30 32 H 1.59285 2.06728 1.30303 0
M  V30 33 H 0.890213 1.7003 -0.280972 0
M  V30 34 H 3.90992 -3.42249 0.158801 0
M  V30 35 H 4.97332 -2.84905 1.47017 0
M  V30 36 H 5.39397 1.87162 -2.25606 0
M  V30 37 H 6.62319 1.69496 -0.95963 0
M  V30 38 H -3.46682 -2.43957 -0.669033 0
M  V30 39 H -4.59275 -1.42571 0.290694 0
M  V30 40 H -4.83451 -1.53704 -1.47403 0
M  V30 END ATOM
M  V30 BEGIN BOND
M  V30 1 1 1 2
M  V30 2 1 2 3
M  V30 3 1 3 4
M  V30 4 1 4 5
M  V30 5 1 5 6
M  V30 6 1 6 7
M  V30 7 1 7 8
M  V30 8 1 6 9
M  V30 9 1 9 10
M  V30 10 2 10 11
M  V30 11 1 11 12
M  V30 12 1 12 13
M  V30 13 2 12 14
M  V30 14 1 14 15
M  V30 15 2 15 16
M  V30 16 1 15 17
M  V30 17 1 2 18
M  V30 18 1 8 3
M  V30 19 1 16 10
M  V30 20 1 1 19
M  V30 21 1 1 20
M  V30 22 1 1 21
M  V30 23 1 2 22
M  V30 24 1 3 23
M  V30 25 1 4 24
M  V30 26 1 4 25
M  V30 27 1 5 26
M  V30 28 1 5 27
M  V30 29 1 7 28
M  V30 30 1 7 29
M  V30 31 1 8 30
M  V30 32 1 8 31
M  V30 33 1 9 32
M  V30 34 1 9 33
M  V30 35 1 13 34
M  V30 36 1 13 35
M  V30 37 1 17 36
M  V30 38 1 17 37
M  V30 39 1 18 38
M  V30 40 1 18 39
M  V30 41 1 18 40
M  V30 END BOND
M  V30 END CTAB
M  END
