
     RDKit          3D

  0  0  0  0  0  0  0  0  0  0999 V3000
M  V30 BEGIN CTAB
M  V30 COUNTS 26 27 0 0 0
M  V30 BEGIN ATOM
M  V30 1 N -2.50664 0.808208 0.997058 0
M  V30 2 C -2.07174 0.0995692 -0.194856 0
M  V30 3 C -1.41475 -1.21055 0.141893 0
M  V30 4 C -0.0284392 -1.18862 -0.41228 0
M  V30 5 C 0.0877405 0.0285527 -1.28407 0
M  V30 6 C -1.10579 0.900514 -1.01311 0
M  V30 7 C 1.31909 0.777579 -0.860806 0
M  V30 8 C 2.01573 -0.0461399 0.186341 0
M  V30 9 C 1.05013 -1.12726 0.617706 0
M  V30 10 N 2.39599 0.721461 1.29592 0
M  V30 11 H -1.92443 1.64713 1.20287 0
M  V30 12 H -2.61425 0.170792 1.81905 0
M  V30 13 H -2.99185 -0.0364583 -0.821186 0
M  V30 14 H -2.01348 -2.01682 -0.359557 0
M  V30 15 H -1.47182 -1.42354 1.2199 0
M  V30 16 H 0.149311 -2.1192 -1.01899 0
M  V30 17 H 0.123693 -0.296409 -2.35153 0
M  V30 18 H -1.53857 1.27264 -1.97165 0
M  V30 19 H -0.834655 1.80864 -0.433333 0
M  V30 20 H 1.0773 1.76821 -0.405894 0
M  V30 21 H 1.93595 0.985955 -1.7478 0
M  V30 22 H 2.9271 -0.480838 -0.309408 0
M  V30 23 H 1.65808 -2.07272 0.674437 0
M  V30 24 H 0.690287 -0.948372 1.64643 0
M  V30 25 H 1.98001 0.547379 2.19189 0
M  V30 26 H 3.10601 1.43031 1.19097 0
M  V30 END ATOM
M  V30 BEGIN BOND
M  V30 1 1 1 2
M  V30 2 1 2 3
M  V30 3 1 3 4
M  V30 4 1 4 5
M  V30 5 1 5 6
M  V30 6 1 5 7
M  V30 7 1 7 8
M  V30 8 1 8 9
M  V30 9 1 8 10
M  V30 10 1 6 2
M  V30 11 1 9 4
M  V30 12 1 1 11
M  V30 13 1 1 12
M  V30 14 1 2 13
M  V30 15 1 3 14
M  V30 16 1 3 15
M  V30 17 1 4 16
M  V30 18 1 5 17
M  V30 19 1 6 18
M  V30 20 1 6 19
M  V30 21 1 7 20
M  V30 22 1 7 21
M  V30 23 1 8 22
M  V30 24 1 9 23
M  V30 25 1 9 24
M  V30 26 1 10 25
M  V30 27 1 10 26
M  V30 END BOND
M  V30 END CTAB
M  END
