
     RDKit          3D

  0  0  0  0  0  0  0  0  0  0999 V3000
M  V30 BEGIN CTAB
M  V30 COUNTS 20 20 0 0 0
M  V30 BEGIN ATOM
M  V30 1 N -1.69828 -1.49213 1.11671 0
M  V30 2 C -1.44619 -0.0759802 0.850822 0
M  V30 3 N -2.33294 0.723624 1.26786 0
M  V30 4 O -2.423 2.0563 1.19804 0
M  V30 5 C -0.217443 0.223116 0.146406 0
M  V30 6 C 0.164465 1.50029 -0.179852 0
M  V30 7 C 1.36138 1.75607 -0.863145 0
M  V30 8 C 2.1975 0.736282 -1.23198 0
M  V30 9 Cl 3.69731 1.03466 -2.08619 0
M  V30 10 C 1.84424 -0.540887 -0.921514 0
M  V30 11 C 0.653724 -0.78658 -0.242658 0
M  V30 12 N 0.348318 -2.13883 0.0485363 0
M  V30 13 H -2.22733 -2.08464 0.44643 0
M  V30 14 H -1.3569 -1.94263 1.98907 0
M  V30 15 H -2.79997 2.49577 0.355195 0
M  V30 16 H -0.420584 2.35876 0.065082 0
M  V30 17 H 1.63774 2.77222 -1.10756 0
M  V30 18 H 2.50592 -1.34613 -1.21356 0
M  V30 19 H 0.70877 -2.51052 0.959683 0
M  V30 20 H -0.196716 -2.73877 -0.597379 0
M  V30 END ATOM
M  V30 BEGIN BOND
M  V30 1 1 1 2
M  V30 2 2 2 3 CFG=2
M  V30 3 1 3 4
M  V30 4 1 2 5
M  V30 5 2 5 6
M  V30 6 1 6 7
M  V30 7 2 7 8
M  V30 8 1 8 9
M  V30 9 1 8 10
M  V30 10 2 10 11
M  V30 11 1 11 12
M  V30 12 1 11 5
M  V30 13 1 1 13
M  V30 14 1 1 14
M  V30 15 1 4 15
M  V30 16 1 6 16
M  V30 17 1 7 17
M  V30 18 1 10 18
M  V30 19 1 12 19
M  V30 20 1 12 20
M  V30 END BOND
M  V30 END CTAB
M  END
