
     RDKit          3D

  0  0  0  0  0  0  0  0  0  0999 V3000
M  V30 BEGIN CTAB
M  V30 COUNTS 23 24 0 0 0
M  V30 BEGIN ATOM
M  V30 1 N 5.1291 0.368653 0.229437 0
M  V30 2 N 3.74885 0.552067 0.220167 0
M  V30 3 C 2.81888 -0.512362 0.305578 0
M  V30 4 O 3.25113 -1.68967 0.394864 0
M  V30 5 C 1.3795 -0.314286 0.295409 0
M  V30 6 C 0.40938 -1.2885 0.374126 0
M  V30 7 C -0.794881 -0.581127 0.323777 0
M  V30 8 C -0.505974 0.751749 0.219776 0
M  V30 9 O 0.813402 0.876188 0.20546 0
M  V30 10 C -1.53027 1.67382 0.152195 0
M  V30 11 C -2.83458 1.27971 0.187293 0
M  V30 12 C -3.10941 -0.0676937 0.292362 0
M  V30 13 C -2.0961 -1.00069 0.360827 0
M  V30 14 N -4.44865 -0.533581 0.333119 0
M  V30 15 H 5.37241 -0.547827 0.614983 0
M  V30 16 H 5.55886 0.614218 -0.673026 0
M  V30 17 H 3.38743 1.52219 0.146618 0
M  V30 18 H 0.518848 -2.35152 0.455862 0
M  V30 19 H -1.31334 2.73245 0.0696473 0
M  V30 20 H -3.66559 1.97868 0.136222 0
M  V30 21 H -2.28926 -2.05661 0.443053 0
M  V30 22 H -4.70422 -1.15093 1.14799 0
M  V30 23 H -5.09553 -0.254908 -0.416509 0
M  V30 END ATOM
M  V30 BEGIN BOND
M  V30 1 1 1 2
M  V30 2 1 2 3
M  V30 3 2 3 4
M  V30 4 1 3 5
M  V30 5 2 5 6
M  V30 6 1 6 7
M  V30 7 2 7 8
M  V30 8 1 8 9
M  V30 9 1 8 10
M  V30 10 2 10 11
M  V30 11 1 11 12
M  V30 12 2 12 13
M  V30 13 1 12 14
M  V30 14 1 9 5
M  V30 15 1 13 7
M  V30 16 1 1 15
M  V30 17 1 1 16
M  V30 18 1 2 17
M  V30 19 1 6 18
M  V30 20 1 10 19
M  V30 21 1 11 20
M  V30 22 1 13 21
M  V30 23 1 14 22
M  V30 24 1 14 23
M  V30 END BOND
M  V30 END CTAB
M  END
