
     RDKit          3D

  0  0  0  0  0  0  0  0  0  0999 V3000
M  V30 BEGIN CTAB
M  V30 COUNTS 45 47 0 0 0
M  V30 BEGIN ATOM
M  V30 1 C -2.7443 -0.732958 0.33181 0 CFG=1
M  V30 2 S -3.74321 0.45336 1.25333 0
M  V30 3 C -5.25466 -0.562893 1.45486 0
M  V30 4 C -6.28129 0.312674 2.13209 0
M  V30 5 C -5.66296 -0.991906 0.115494 0
M  V30 6 C -4.86251 -1.294 -0.866614 0
M  V30 7 N -3.45567 -1.24511 -0.764702 0
M  V30 8 C -2.19607 -1.50008 -1.32849 0
M  V30 9 O -1.72759 -2.38966 -2.04834 0
M  V30 10 C -1.76712 -0.221201 -0.643813 0
M  V30 11 N -0.393092 -0.236798 -0.216666 0
M  V30 12 C 0.43407 0.85271 -0.549064 0
M  V30 13 O -0.040145 1.80575 -1.20473 0
M  V30 14 C 1.83915 0.924276 -0.159487 0
M  V30 15 N 2.41081 -0.0069582 0.513878 0
M  V30 16 O 3.73226 0.131646 0.84197 0
M  V30 17 C 4.56609 -0.979661 0.564484 0
M  V30 18 C 5.99964 -0.719374 0.965204 0
M  V30 19 N 6.78777 -1.89227 0.653303 0
M  V30 20 C 2.67677 2.09881 -0.533821 0
M  V30 21 N 2.0862 3.08531 -1.24216 0
M  V30 22 S 3.3232 4.20759 -1.46689 0
M  V30 23 C 4.55008 3.36625 -0.64262 0
M  V30 24 N 5.92373 3.76172 -0.436241 0
M  V30 25 N 3.93568 2.2761 -0.245566 0
M  V30 26 C -5.51614 -1.7044 -2.13506 0
M  V30 27 O -4.69675 -2.03122 -3.1952 0
M  V30 28 O -6.74149 -1.75864 -2.26025 0
M  V30 29 H -2.34436 -1.48814 0.98352 0
M  V30 30 H -4.9612 -1.41789 2.10827 0
M  V30 31 H -5.8367 0.947747 2.92238 0
M  V30 32 H -6.7353 0.985573 1.37483 0
M  V30 33 H -7.03314 -0.357803 2.61269 0
M  V30 34 H -6.73053 -1.05338 -0.0412837 0
M  V30 35 H -2.06897 0.66127 -1.20933 0
M  V30 36 H -0.00905999 -1.06013 0.342049 0
M  V30 37 H 4.22024 -1.8962 1.12103 0
M  V30 38 H 4.50301 -1.25888 -0.513097 0
M  V30 39 H 6.37167 0.175678 0.425828 0
M  V30 40 H 6.03505 -0.579824 2.05741 0
M  V30 41 H 7.04196 -2.45628 1.47707 0
M  V30 42 H 6.32157 -2.47412 -0.0960516 0
M  V30 43 H 6.25448 4.06361 0.504903 0
M  V30 44 H 6.62512 3.76066 -1.20664 0
M  V30 45 H -4.83631 -1.56097 -4.0804 0
M  V30 END ATOM
M  V30 BEGIN BOND
M  V30 1 1 1 2
M  V30 2 1 2 3
M  V30 3 1 3 4
M  V30 4 1 3 5
M  V30 5 2 5 6
M  V30 6 1 6 7
M  V30 7 1 7 8
M  V30 8 2 8 9
M  V30 9 1 8 10
M  V30 10 1 10 11
M  V30 11 1 11 12
M  V30 12 2 12 13
M  V30 13 1 12 14
M  V30 14 2 14 15
M  V30 15 1 15 16
M  V30 16 1 16 17
M  V30 17 1 17 18
M  V30 18 1 18 19
M  V30 19 1 14 20
M  V30 20 2 20 21
M  V30 21 1 21 22
M  V30 22 1 22 23
M  V30 23 1 23 24
M  V30 24 2 23 25
M  V30 25 1 6 26
M  V30 26 1 26 27
M  V30 27 2 26 28
M  V30 28 1 7 1
M  V30 29 1 25 20
M  V30 30 1 10 1
M  V30 31 1 1 29 CFG=1
M  V30 32 1 3 30
M  V30 33 1 4 31
M  V30 34 1 4 32
M  V30 35 1 4 33
M  V30 36 1 5 34
M  V30 37 1 10 35
M  V30 38 1 11 36
M  V30 39 1 17 37
M  V30 40 1 17 38
M  V30 41 1 18 39
M  V30 42 1 18 40
M  V30 43 1 19 41
M  V30 44 1 19 42
M  V30 45 1 24 43
M  V30 46 1 24 44
M  V30 47 1 27 45
M  V30 END BOND
M  V30 END CTAB
M  END
