
     RDKit          3D

  0  0  0  0  0  0  0  0  0  0999 V3000
M  V30 BEGIN CTAB
M  V30 COUNTS 23 23 0 0 0
M  V30 BEGIN ATOM
M  V30 1 F -3.61519 -1.58017 0.678873 0
M  V30 2 C -2.89994 -0.407784 0.839841 0
M  V30 3 O -2.224 -0.0771877 -0.352447 0
M  V30 4 C -0.838954 0.0100522 -0.298415 0
M  V30 5 C -0.262913 1.23342 0.00669826 0
M  V30 6 N -1.10278 2.34049 0.250107 0
M  V30 7 C 1.10567 1.28101 0.050892 0
M  V30 8 C 1.9014 0.160685 -0.196747 0
M  V30 9 C 1.29072 -1.03449 -0.495977 0
M  V30 10 C -0.102187 -1.12287 -0.550466 0
M  V30 11 N -0.743367 -2.35076 -0.858217 0
M  V30 12 C 3.37017 0.27885 -0.133324 0
M  V30 13 F 3.77079 0.623256 1.15129 0
M  V30 14 F 3.85548 1.2646 -0.983166 0
M  V30 15 F -3.78084 0.588023 1.21989 0
M  V30 16 H -2.21656 -0.562065 1.70034 0
M  V30 17 H -2.00629 2.4039 -0.246406 0
M  V30 18 H -0.801409 3.06749 0.918912 0
M  V30 19 H 1.59823 2.19245 0.279722 0
M  V30 20 H 1.86129 -1.93451 -0.696557 0
M  V30 21 H -1.45534 -2.45113 -1.60903 0
M  V30 22 H -0.501235 -3.20521 -0.315076 0
M  V30 23 H 3.79724 -0.718062 -0.36074 0
M  V30 END ATOM
M  V30 BEGIN BOND
M  V30 1 1 1 2
M  V30 2 1 2 3
M  V30 3 1 3 4
M  V30 4 2 4 5
M  V30 5 1 5 6
M  V30 6 1 5 7
M  V30 7 2 7 8
M  V30 8 1 8 9
M  V30 9 2 9 10
M  V30 10 1 10 11
M  V30 11 1 8 12
M  V30 12 1 12 13
M  V30 13 1 12 14
M  V30 14 1 2 15
M  V30 15 1 10 4
M  V30 16 1 2 16
M  V30 17 1 6 17
M  V30 18 1 6 18
M  V30 19 1 7 19
M  V30 20 1 9 20
M  V30 21 1 11 21
M  V30 22 1 11 22
M  V30 23 1 12 23
M  V30 END BOND
M  V30 END CTAB
M  END
