
     RDKit          3D

  0  0  0  0  0  0  0  0  0  0999 V3000
M  V30 BEGIN CTAB
M  V30 COUNTS 37 38 0 0 0
M  V30 BEGIN ATOM
M  V30 1 N -4.20734 1.47291 1.54699 0
M  V30 2 C -3.24236 0.808558 0.642065 0
M  V30 3 C -4.04674 0.0878978 -0.36841 0
M  V30 4 C -3.34566 -0.67162 -1.42948 0
M  V30 5 N -2.46513 -1.71342 -1.00769 0
M  V30 6 C -1.0796 -1.52875 -0.652068 0
M  V30 7 C -0.410379 -0.374288 -0.86092 0
M  V30 8 C 0.943979 -0.256477 -0.532498 0
M  V30 9 N 1.57035 -1.30771 -0.00692077 0
M  V30 10 C 0.940508 -2.45156 0.208412 0
M  V30 11 C -0.383571 -2.61009 -0.0977038 0
M  V30 12 N -1.06107 -3.8488 0.136771 0
M  V30 13 N 1.63378 0.945804 -0.750943 0
M  V30 14 C 2.97572 1.23631 -0.484737 0
M  V30 15 C 3.91991 0.421868 0.046151 0
M  V30 16 N 5.21395 0.845186 0.254629 0
M  V30 17 C 5.58312 2.0867 -0.0638097 0
M  V30 18 C 4.64785 2.94005 -0.605397 0
M  V30 19 N 3.40685 2.50995 -0.79719 0
M  V30 20 C 6.91549 2.58238 0.13067 0
M  V30 21 N 7.98993 2.96174 0.293755 0
M  V30 22 H -4.97372 1.81287 0.925602 0
M  V30 23 H -3.72676 2.25549 2.04879 0
M  V30 24 H -2.58583 1.59912 0.231563 0
M  V30 25 H -2.60172 0.148472 1.26853 0
M  V30 26 H -4.7133 0.854978 -0.869411 0
M  V30 27 H -4.73683 -0.62635 0.167855 0
M  V30 28 H -4.158 -1.1551 -2.0575 0
M  V30 29 H -2.79352 -0.0146615 -2.14781 0
M  V30 30 H -2.85745 -2.70416 -0.94877 0
M  V30 31 H -0.882203 0.479526 -1.2922 0
M  V30 32 H 1.48079 -3.30184 0.642414 0
M  V30 33 H -1.50351 -4.32813 -0.697695 0
M  V30 34 H -1.10908 -4.25381 1.1038 0
M  V30 35 H 1.0114 1.72697 -1.18331 0
M  V30 36 H 3.69049 -0.577447 0.32081 0
M  V30 37 H 4.95965 3.94744 -0.860454 0
M  V30 END ATOM
M  V30 BEGIN BOND
M  V30 1 1 1 2
M  V30 2 1 2 3
M  V30 3 1 3 4
M  V30 4 1 4 5
M  V30 5 1 5 6
M  V30 6 2 6 7
M  V30 7 1 7 8
M  V30 8 2 8 9
M  V30 9 1 9 10
M  V30 10 2 10 11
M  V30 11 1 11 12
M  V30 12 1 8 13
M  V30 13 1 13 14
M  V30 14 2 14 15
M  V30 15 1 15 16
M  V30 16 2 16 17
M  V30 17 1 17 18
M  V30 18 2 18 19
M  V30 19 1 17 20
M  V30 20 3 20 21
M  V30 21 1 11 6
M  V30 22 1 19 14
M  V30 23 1 1 22
M  V30 24 1 1 23
M  V30 25 1 2 24
M  V30 26 1 2 25
M  V30 27 1 3 26
M  V30 28 1 3 27
M  V30 29 1 4 28
M  V30 30 1 4 29
M  V30 31 1 5 30
M  V30 32 1 7 31
M  V30 33 1 10 32
M  V30 34 1 12 33
M  V30 35 1 12 34
M  V30 36 1 13 35
M  V30 37 1 15 36
M  V30 38 1 18 37
M  V30 END BOND
M  V30 END CTAB
M  END
