
     RDKit          3D

  0  0  0  0  0  0  0  0  0  0999 V3000
M  V30 BEGIN CTAB
M  V30 COUNTS 24 24 0 0 0
M  V30 BEGIN ATOM
M  V30 1 N 3.60394 0.0616281 1.17404 0
M  V30 2 N 2.24768 -0.0276613 0.82481 0
M  V30 3 C 1.84891 0.124822 -0.506427 0
M  V30 4 O 2.68945 0.343613 -1.4134 0
M  V30 5 C 0.422247 0.0340416 -0.895364 0
M  V30 6 C -0.12926 -1.34936 -0.517267 0
M  V30 7 C -1.50958 -1.37654 -1.05483 0
M  V30 8 C -2.3339 -0.377817 -0.809944 0
M  V30 9 C -1.81771 0.749987 0.0146341 0
M  V30 10 C -0.404309 1.1371 -0.338111 0
M  V30 11 N -1.92908 0.327695 1.40762 0
M  V30 12 H 3.77744 -0.0290344 2.17791 0
M  V30 13 H 4.01907 0.866989 0.698904 0
M  V30 14 H 1.58082 -0.210149 1.6056 0
M  V30 15 H 0.306563 0.0613797 -2.01924 0
M  V30 16 H 0.528432 -2.10037 -0.995315 0
M  V30 17 H -0.0700114 -1.50428 0.568751 0
M  V30 18 H -1.84092 -2.20664 -1.64308 0
M  V30 19 H -3.3613 -0.340983 -1.1785 0
M  V30 20 H -2.46367 1.66224 -0.135851 0
M  V30 21 H -0.430573 1.97499 -1.09448 0
M  V30 22 H 0.0304732 1.5804 0.594363 0
M  V30 23 H -2.23612 1.11686 2.01999 0
M  V30 24 H -2.52859 -0.518923 1.51519 0
M  V30 END ATOM
M  V30 BEGIN BOND
M  V30 1 1 1 2
M  V30 2 1 2 3
M  V30 3 2 3 4
M  V30 4 1 3 5
M  V30 5 1 5 6
M  V30 6 1 6 7
M  V30 7 2 7 8
M  V30 8 1 8 9
M  V30 9 1 9 10
M  V30 10 1 9 11
M  V30 11 1 10 5
M  V30 12 1 1 12
M  V30 13 1 1 13
M  V30 14 1 2 14
M  V30 15 1 5 15
M  V30 16 1 6 16
M  V30 17 1 6 17
M  V30 18 1 7 18
M  V30 19 1 8 19
M  V30 20 1 9 20
M  V30 21 1 10 21
M  V30 22 1 10 22
M  V30 23 1 11 23
M  V30 24 1 11 24
M  V30 END BOND
M  V30 END CTAB
M  END
