
     RDKit          3D

  0  0  0  0  0  0  0  0  0  0999 V3000
M  V30 BEGIN CTAB
M  V30 COUNTS 23 23 0 0 0
M  V30 BEGIN ATOM
M  V30 1 C -3.25155 -0.624179 -0.948292 0
M  V30 2 C -1.96225 -0.40332 -0.189491 0
M  V30 3 C -0.890945 0.140556 -1.0985 0
M  V30 4 C 0.392286 0.371459 -0.390049 0
M  V30 5 N 0.690406 1.53904 0.201315 0
M  V30 6 C 1.8451 1.76887 0.847301 0
M  V30 7 C 2.79893 0.776689 0.92806 0
M  V30 8 C 2.47745 -0.4344 0.308739 0
M  V30 9 N 1.30672 -0.612185 -0.325057 0
M  V30 10 N 3.45025 -1.46138 0.38539 0
M  V30 11 N -2.24186 0.430523 0.933356 0
M  V30 12 H -4.0514 0.0843896 -0.624151 0
M  V30 13 H -3.05837 -0.409104 -2.01296 0
M  V30 14 H -3.63735 -1.65701 -0.838846 0
M  V30 15 H -1.63581 -1.4017 0.179187 0
M  V30 16 H -1.25372 1.07767 -1.53996 0
M  V30 17 H -0.723074 -0.582217 -1.92213 0
M  V30 18 H 2.07049 2.71712 1.31949 0
M  V30 19 H 3.7441 0.921943 1.44041 0
M  V30 20 H 3.29924 -2.28864 0.981403 0
M  V30 21 H 4.31469 -1.34941 -0.177742 0
M  V30 22 H -1.86276 0.0105182 1.81129 0
M  V30 23 H -1.82056 1.38477 0.846333 0
M  V30 END ATOM
M  V30 BEGIN BOND
M  V30 1 1 1 2
M  V30 2 1 2 3
M  V30 3 1 3 4
M  V30 4 2 4 5
M  V30 5 1 5 6
M  V30 6 2 6 7
M  V30 7 1 7 8
M  V30 8 2 8 9
M  V30 9 1 8 10
M  V30 10 1 2 11
M  V30 11 1 9 4
M  V30 12 1 1 12
M  V30 13 1 1 13
M  V30 14 1 1 14
M  V30 15 1 2 15
M  V30 16 1 3 16
M  V30 17 1 3 17
M  V30 18 1 6 18
M  V30 19 1 7 19
M  V30 20 1 10 20
M  V30 21 1 10 21
M  V30 22 1 11 22
M  V30 23 1 11 23
M  V30 END BOND
M  V30 END CTAB
M  END
