
     RDKit          3D

  0  0  0  0  0  0  0  0  0  0999 V3000
M  V30 BEGIN CTAB
M  V30 COUNTS 51 54 0 0 0
M  V30 BEGIN ATOM
M  V30 1 C -2.86327 0.270388 -1.32004 0
M  V30 2 C -2.48785 -0.0426367 0.0971546 0
M  V30 3 C -1.02322 -0.272096 0.295081 0
M  V30 4 C -0.147088 0.776873 0.364507 0
M  V30 5 C -0.598452 2.17693 0.255155 0
M  V30 6 C -0.6736 2.83465 -0.946412 0
M  V30 7 C -1.10218 4.13656 -0.96906 0
M  V30 8 C -1.46695 4.82261 0.188774 0
M  V30 9 C -1.39004 4.16103 1.38678 0
M  V30 10 C -0.959764 2.85686 1.40007 0
M  V30 11 Cl -2.00736 6.49402 0.0801283 0
M  V30 12 C 1.22317 0.575568 0.547491 0
M  V30 13 N 2.08287 1.73663 0.611006 0
M  V30 14 C 1.67034 -0.705664 0.65647 0
M  V30 15 C 0.746893 -1.75448 0.58136 0
M  V30 16 O 1.16251 -2.94214 0.682414 0
M  V30 17 N -0.569497 -1.55621 0.405274 0
M  V30 18 C -1.4286 -2.67732 0.342869 0
M  V30 19 C -2.10483 -3.11982 1.45673 0
M  V30 20 C -2.94671 -4.23575 1.3717 0
M  V30 21 C -3.11662 -4.91156 0.180091 0
M  V30 22 C -2.4322 -4.46282 -0.945219 0
M  V30 23 C -1.59431 -3.34607 -0.843428 0
M  V30 24 N -0.883892 -2.87969 -1.97874 0
M  V30 25 S 3.36654 -1.11194 0.888838 0
M  V30 26 C 4.49658 0.21685 0.976595 0
M  V30 27 N 4.85535 0.863783 2.11621 0
M  V30 28 N 5.73623 1.80054 1.83867 0
M  V30 29 N 5.96422 1.78504 0.550272 0
M  V30 30 N 5.21073 0.819257 0.0105564 0
M  V30 31 C 5.16566 0.472143 -1.3835 0
M  V30 32 H -1.97357 0.199951 -1.9829 0
M  V30 33 H -3.67004 -0.440749 -1.68679 0
M  V30 34 H -3.31598 1.26651 -1.45924 0
M  V30 35 H -2.81705 0.857592 0.702859 0
M  V30 36 H -3.09954 -0.870258 0.508528 0
M  V30 37 H -0.392853 2.30638 -1.83965 0
M  V30 38 H -1.16509 4.67073 -1.92961 0
M  V30 39 H -1.67475 4.68629 2.31128 0
M  V30 40 H -0.906457 2.34771 2.37101 0
M  V30 41 H 2.2232 2.17432 1.5413 0
M  V30 42 H 2.52814 2.11553 -0.238381 0
M  V30 43 H -1.99113 -2.60783 2.40937 0
M  V30 44 H -3.48063 -4.58829 2.24514 0
M  V30 45 H -3.77762 -5.77058 0.15595 0
M  V30 46 H -2.55336 -4.98155 -1.88698 0
M  V30 47 H -1.30515 -3.03716 -2.91597 0
M  V30 48 H 0.02456 -2.39557 -1.92411 0
M  V30 49 H 6.17228 0.415085 -1.82018 0
M  V30 50 H 4.65998 1.33201 -1.91122 0
M  V30 51 H 4.63038 -0.461676 -1.54818 0
M  V30 END ATOM
M  V30 BEGIN BOND
M  V30 1 1 1 2
M  V30 2 1 2 3
M  V30 3 2 3 4
M  V30 4 1 4 5
M  V30 5 2 5 6
M  V30 6 1 6 7
M  V30 7 2 7 8
M  V30 8 1 8 9
M  V30 9 2 9 10
M  V30 10 1 8 11
M  V30 11 1 4 12
M  V30 12 1 12 13
M  V30 13 2 12 14
M  V30 14 1 14 15
M  V30 15 2 15 16
M  V30 16 1 15 17
M  V30 17 1 17 18
M  V30 18 2 18 19
M  V30 19 1 19 20
M  V30 20 2 20 21
M  V30 21 1 21 22
M  V30 22 2 22 23
M  V30 23 1 23 24
M  V30 24 1 14 25
M  V30 25 1 25 26
M  V30 26 2 26 27
M  V30 27 1 27 28
M  V30 28 2 28 29
M  V30 29 1 29 30
M  V30 30 1 30 31
M  V30 31 1 17 3
M  V30 32 1 23 18
M  V30 33 1 30 26
M  V30 34 1 10 5
M  V30 35 1 1 32
M  V30 36 1 1 33
M  V30 37 1 1 34
M  V30 38 1 2 35
M  V30 39 1 2 36
M  V30 40 1 6 37
M  V30 41 1 7 38
M  V30 42 1 9 39
M  V30 43 1 10 40
M  V30 44 1 13 41
M  V30 45 1 13 42
M  V30 46 1 19 43
M  V30 47 1 20 44
M  V30 48 1 21 45
M  V30 49 1 22 46
M  V30 50 1 24 47
M  V30 51 1 24 48
M  V30 52 1 31 49
M  V30 53 1 31 50
M  V30 54 1 31 51
M  V30 END BOND
M  V30 END CTAB
M  END
