
     RDKit          3D

  0  0  0  0  0  0  0  0  0  0999 V3000
M  V30 BEGIN CTAB
M  V30 COUNTS 27 27 0 0 0
M  V30 BEGIN ATOM
M  V30 1 N -3.26194 2.00697 -1.48065 0
M  V30 2 C -2.65923 0.844708 -0.949435 0
M  V30 3 C -3.43684 -0.127995 -0.358182 0
M  V30 4 C -2.81727 -1.2484 0.149504 0
M  V30 5 C -1.44743 -1.37889 0.0602705 0
M  V30 6 C -0.635251 -0.420466 -0.527458 0
M  V30 7 C -1.2715 0.695759 -1.03127 0
M  V30 8 C 0.825836 -0.6466 -0.584303 0
M  V30 9 N 1.47634 -0.747082 0.678783 0
M  V30 10 S 2.00788 0.813128 1.17836 0
M  V30 11 O 2.05667 0.775647 2.69418 0
M  V30 12 O 1.02047 1.85391 0.786941 0
M  V30 13 N 3.60507 1.14611 0.605365 0
M  V30 14 C 2.61478 -1.67421 0.5963 0
M  V30 15 H -2.75117 2.91409 -1.49601 0
M  V30 16 H -4.2162 1.97377 -1.86077 0
M  V30 17 H -4.51293 0.00705875 -0.304823 0
M  V30 18 H -3.40361 -2.03454 0.622442 0
M  V30 19 H -0.956608 -2.259 0.458617 0
M  V30 20 H -0.681759 1.46896 -1.50216 0
M  V30 21 H 1.07043 -1.58733 -1.15695 0
M  V30 22 H 1.27407 0.171037 -1.21512 0
M  V30 23 H 3.83069 2.13731 0.836726 0
M  V30 24 H 3.54693 1.07006 -0.45237 0
M  V30 25 H 3.50054 -1.15186 0.151776 0
M  V30 26 H 2.36406 -2.54423 -0.0459345 0
M  V30 27 H 2.85798 -2.05791 1.60252 0
M  V30 END ATOM
M  V30 BEGIN BOND
M  V30 1 1 1 2
M  V30 2 2 2 3
M  V30 3 1 3 4
M  V30 4 2 4 5
M  V30 5 1 5 6
M  V30 6 2 6 7
M  V30 7 1 6 8
M  V30 8 1 8 9
M  V30 9 1 9 10
M  V30 10 2 10 11
M  V30 11 2 10 12
M  V30 12 1 10 13
M  V30 13 1 9 14
M  V30 14 1 7 2
M  V30 15 1 1 15
M  V30 16 1 1 16
M  V30 17 1 3 17
M  V30 18 1 4 18
M  V30 19 1 5 19
M  V30 20 1 7 20
M  V30 21 1 8 21
M  V30 22 1 8 22
M  V30 23 1 13 23
M  V30 24 1 13 24
M  V30 25 1 14 25
M  V30 26 1 14 26
M  V30 27 1 14 27
M  V30 END BOND
M  V30 END CTAB
M  END
