
     RDKit          3D

  0  0  0  0  0  0  0  0  0  0999 V3000
M  V30 BEGIN CTAB
M  V30 COUNTS 26 27 0 0 0
M  V30 BEGIN ATOM
M  V30 1 N -3.19486 -0.667278 -1.39805 0
M  V30 2 C -3.31839 -0.47932 0.0122155 0
M  V30 3 C -2.0873 0.18622 0.573471 0
M  V30 4 O -1.83823 1.41822 0.0340666 0
M  V30 5 C -0.486729 1.63564 -0.0133075 0
M  V30 6 C 0.19939 0.449089 0.627916 0
M  V30 7 C -0.833798 -0.638027 0.295617 0
M  V30 8 C 1.50816 0.155885 0.0186074 0
M  V30 9 N 1.82709 -0.0213526 -1.25678 0
M  V30 10 N 3.11984 -0.264667 -1.36546 0
M  V30 11 C 3.6624 -0.245158 -0.115454 0
M  V30 12 N 2.65526 0.0140969 0.711656 0
M  V30 13 N 5.04889 -0.467306 0.181409 0
M  V30 14 H -3.5355 0.120733 -1.96415 0
M  V30 15 H -3.58054 -1.55222 -1.76006 0
M  V30 16 H -4.18108 0.155942 0.282735 0
M  V30 17 H -3.46225 -1.43889 0.564441 0
M  V30 18 H -2.13852 0.29304 1.67508 0
M  V30 19 H -0.16185 2.59449 0.428987 0
M  V30 20 H -0.17836 1.64312 -1.09971 0
M  V30 21 H 0.261675 0.539478 1.71048 0
M  V30 22 H -0.740223 -1.49835 0.974121 0
M  V30 23 H -0.851965 -0.881339 -0.765951 0
M  V30 24 H 1.18086 0.0189463 -2.06883 0
M  V30 25 H 5.75784 0.00715446 -0.400601 0
M  V30 26 H 5.36819 -1.07816 0.948198 0
M  V30 END ATOM
M  V30 BEGIN BOND
M  V30 1 1 1 2
M  V30 2 1 2 3
M  V30 3 1 3 4
M  V30 4 1 4 5
M  V30 5 1 5 6
M  V30 6 1 6 7
M  V30 7 1 6 8
M  V30 8 1 8 9
M  V30 9 1 9 10
M  V30 10 2 10 11
M  V30 11 1 11 12
M  V30 12 1 11 13
M  V30 13 1 7 3
M  V30 14 2 12 8
M  V30 15 1 1 14
M  V30 16 1 1 15
M  V30 17 1 2 16
M  V30 18 1 2 17
M  V30 19 1 3 18
M  V30 20 1 5 19
M  V30 21 1 5 20
M  V30 22 1 6 21
M  V30 23 1 7 22
M  V30 24 1 7 23
M  V30 25 1 9 24
M  V30 26 1 13 25
M  V30 27 1 13 26
M  V30 END BOND
M  V30 END CTAB
M  END
