
     RDKit          3D

  0  0  0  0  0  0  0  0  0  0999 V3000
M  V30 BEGIN CTAB
M  V30 COUNTS 24 24 0 0 0
M  V30 BEGIN ATOM
M  V30 1 N 4.35741 1.46542 0.301992 0
M  V30 2 N 2.97997 1.36928 0.189674 0
M  V30 3 C 2.42005 0.310295 -0.253009 0
M  V30 4 N 1.01882 0.25325 -0.351404 0
M  V30 5 C 0.294225 -0.531225 0.624332 0
M  V30 6 C -1.15712 -0.444053 0.323529 0
M  V30 7 C -1.9561 0.54594 0.872747 0
M  V30 8 C -3.30399 0.626742 0.593274 0
M  V30 9 C -3.84509 -0.312752 -0.256436 0
M  V30 10 N -3.08325 -1.29179 -0.806736 0
M  V30 11 C -1.76466 -1.36083 -0.525741 0
M  V30 12 O -5.19103 -0.306194 -0.591753 0
M  V30 13 N 3.20512 -0.793088 -0.639845 0
M  V30 14 H 4.83408 2.33322 0.572003 0
M  V30 15 H 4.95031 0.628967 0.107203 0
M  V30 16 H 0.54602 0.773029 -1.11758 0
M  V30 17 H 0.450349 -0.174384 1.66577 0
M  V30 18 H 0.604897 -1.58597 0.477703 0
M  V30 19 H -1.48916 1.26234 1.53442 0
M  V30 20 H -3.96128 1.37774 0.996973 0
M  V30 21 H -1.12571 -2.1356 -0.95211 0
M  V30 22 H -5.7864 0.46628 -0.344745 0
M  V30 23 H 3.25095 -1.61176 0.00525617 0
M  V30 24 H 3.75157 -0.864833 -1.52544 0
M  V30 END ATOM
M  V30 BEGIN BOND
M  V30 1 1 1 2
M  V30 2 2 2 3 CFG=2
M  V30 3 1 3 4
M  V30 4 1 4 5
M  V30 5 1 5 6
M  V30 6 2 6 7
M  V30 7 1 7 8
M  V30 8 2 8 9
M  V30 9 1 9 10
M  V30 10 2 10 11
M  V30 11 1 9 12
M  V30 12 1 3 13
M  V30 13 1 11 6
M  V30 14 1 1 14
M  V30 15 1 1 15
M  V30 16 1 4 16
M  V30 17 1 5 17
M  V30 18 1 5 18
M  V30 19 1 7 19
M  V30 20 1 8 20
M  V30 21 1 11 21
M  V30 22 1 12 22
M  V30 23 1 13 23
M  V30 24 1 13 24
M  V30 END BOND
M  V30 END CTAB
M  END
