
     RDKit          3D

  0  0  0  0  0  0  0  0  0  0999 V3000
M  V30 BEGIN CTAB
M  V30 COUNTS 45 47 0 0 0
M  V30 BEGIN ATOM
M  V30 1 C 0.124171 -4.34578 2.12316 0
M  V30 2 C 0.13785 -3.15664 1.23154 0
M  V30 3 C -1.05757 -2.67503 0.73296 0
M  V30 4 C -1.11573 -1.5643 -0.108 0
M  V30 5 C 0.0791284 -0.948521 -0.43376 0
M  V30 6 C 1.29406 -1.39302 0.0391857 0
M  V30 7 C 1.28956 -2.4962 0.867302 0
M  V30 8 O 2.48556 -0.76098 -0.299172 0
M  V30 9 C 3.00055 0.274681 0.463363 0
M  V30 10 O 2.34166 0.614813 1.47243 0
M  V30 11 C 4.24092 0.95886 0.142414 0
M  V30 12 C 4.69508 1.98394 0.94814 0
M  V30 13 C 5.88394 2.65076 0.653672 0
M  V30 14 C 6.62622 2.30402 -0.439738 0
M  V30 15 C 6.18265 1.28239 -1.25105 0
M  V30 16 C 5.00814 0.632275 -0.949822 0
M  V30 17 N 6.97858 0.940591 -2.38771 0
M  V30 18 O -2.32462 -1.09071 -0.602105 0
M  V30 19 C -3.06368 -0.148713 0.0628566 0
M  V30 20 O -2.64233 0.302554 1.14854 0
M  V30 21 C -4.34463 0.357534 -0.45413 0
M  V30 22 C -4.86479 -0.0966834 -1.642 0
M  V30 23 C -6.06293 0.380478 -2.12012 0
M  V30 24 C -6.77026 1.32485 -1.42013 0
M  V30 25 C -6.27484 1.80112 -0.224064 0
M  V30 26 C -5.06235 1.30217 0.235971 0
M  V30 27 N -7.01287 2.78036 0.497259 0
M  V30 28 H -0.462776 -5.18498 1.70134 0
M  V30 29 H 1.19658 -4.69531 2.17965 0
M  V30 30 H -0.161484 -4.08149 3.15785 0
M  V30 31 H -1.98781 -3.16692 0.995951 0
M  V30 32 H 0.0672185 -0.0846415 -1.08402 0
M  V30 33 H 2.22598 -2.86937 1.25479 0
M  V30 34 H 4.13756 2.29152 1.82557 0
M  V30 35 H 6.19703 3.45424 1.32453 0
M  V30 36 H 7.5618 2.83841 -0.659976 0
M  V30 37 H 4.68879 -0.161847 -1.60379 0
M  V30 38 H 6.99601 -0.0375652 -2.75331 0
M  V30 39 H 7.5657 1.64007 -2.89216 0
M  V30 40 H -4.33747 -0.839704 -2.22165 0
M  V30 41 H -6.45207 -0.00234797 -3.07255 0
M  V30 42 H -7.70199 1.67814 -1.81829 0
M  V30 43 H -4.69546 1.691 1.17528 0
M  V30 44 H -7.94039 2.54918 0.934558 0
M  V30 45 H -6.66869 3.76679 0.624083 0
M  V30 END ATOM
M  V30 BEGIN BOND
M  V30 1 1 1 2
M  V30 2 2 2 3
M  V30 3 1 3 4
M  V30 4 2 4 5
M  V30 5 1 5 6
M  V30 6 2 6 7
M  V30 7 1 6 8
M  V30 8 1 8 9
M  V30 9 2 9 10
M  V30 10 1 9 11
M  V30 11 2 11 12
M  V30 12 1 12 13
M  V30 13 2 13 14
M  V30 14 1 14 15
M  V30 15 2 15 16
M  V30 16 1 15 17
M  V30 17 1 4 18
M  V30 18 1 18 19
M  V30 19 2 19 20
M  V30 20 1 19 21
M  V30 21 2 21 22
M  V30 22 1 22 23
M  V30 23 2 23 24
M  V30 24 1 24 25
M  V30 25 2 25 26
M  V30 26 1 25 27
M  V30 27 1 7 2
M  V30 28 1 16 11
M  V30 29 1 26 21
M  V30 30 1 1 28
M  V30 31 1 1 29
M  V30 32 1 1 30
M  V30 33 1 3 31
M  V30 34 1 5 32
M  V30 35 1 7 33
M  V30 36 1 12 34
M  V30 37 1 13 35
M  V30 38 1 14 36
M  V30 39 1 16 37
M  V30 40 1 17 38
M  V30 41 1 17 39
M  V30 42 1 22 40
M  V30 43 1 23 41
M  V30 44 1 24 42
M  V30 45 1 26 43
M  V30 46 1 27 44
M  V30 47 1 27 45
M  V30 END BOND
M  V30 END CTAB
M  END
