
     RDKit          3D

  0  0  0  0  0  0  0  0  0  0999 V3000
M  V30 BEGIN CTAB
M  V30 COUNTS 21 21 0 0 0
M  V30 BEGIN ATOM
M  V30 1 Cl 3.76288 -0.337939 1.69746 0
M  V30 2 C 3.23253 -0.641478 0.00468 0
M  V30 3 C 1.91505 -1.2904 0.0953034 0
M  V30 4 O 1.91002 -2.55643 0.239004 0
M  V30 5 C 0.659706 -0.593385 0.0326976 0
M  V30 6 C -0.515465 -1.31598 0.137071 0
M  V30 7 C -1.71818 -0.660461 0.0704403 0
M  V30 8 N -2.91643 -1.3728 0.17446 0
M  V30 9 C -1.82843 0.725741 -0.100318 0
M  V30 10 C -0.650005 1.42401 -0.201149 0
M  V30 11 C 0.566228 0.779578 -0.136012 0
M  V30 12 N -0.687643 2.82401 -0.378007 0
M  V30 13 I -3.71442 1.65808 -0.194431 0
M  V30 14 H 3.13025 0.283303 -0.570902 0
M  V30 15 H 3.99687 -1.32731 -0.477673 0
M  V30 16 H -0.491542 -2.41109 0.274946 0
M  V30 17 H -3.17233 -2.05486 -0.556092 0
M  V30 18 H -3.5481 -1.22478 0.971335 0
M  V30 19 H 1.48176 1.38431 -0.21776 0
M  V30 20 H -0.993067 3.43067 0.410566 0
M  V30 21 H -0.419692 3.27721 -1.27562 0
M  V30 END ATOM
M  V30 BEGIN BOND
M  V30 1 1 1 2
M  V30 2 1 2 3
M  V30 3 2 3 4
M  V30 4 1 3 5
M  V30 5 2 5 6
M  V30 6 1 6 7
M  V30 7 1 7 8
M  V30 8 2 7 9
M  V30 9 1 9 10
M  V30 10 2 10 11
M  V30 11 1 10 12
M  V30 12 1 9 13
M  V30 13 1 11 5
M  V30 14 1 2 14
M  V30 15 1 2 15
M  V30 16 1 6 16
M  V30 17 1 8 17
M  V30 18 1 8 18
M  V30 19 1 11 19
M  V30 20 1 12 20
M  V30 21 1 12 21
M  V30 END BOND
M  V30 END CTAB
M  END
