
     RDKit          3D

  0  0  0  0  0  0  0  0  0  0999 V3000
M  V30 BEGIN CTAB
M  V30 COUNTS 27 29 0 0 0
M  V30 BEGIN ATOM
M  V30 1 N 5.14703 -0.448571 -0.284919 0
M  V30 2 C 3.74335 -0.230822 -0.226489 0
M  V30 3 N 3.18978 0.973336 -0.426428 0
M  V30 4 C 1.83645 1.1628 -0.366017 0
M  V30 5 C 0.962174 0.130459 -0.096737 0
M  V30 6 N 1.55475 -1.05186 0.0960194 0
M  V30 7 C 2.8739 -1.27564 0.0449288 0
M  V30 8 C -0.485231 0.320972 -0.0297074 0
M  V30 9 C -1.05441 1.5752 -0.238517 0
M  V30 10 C -2.41094 1.82138 -0.189176 0
M  V30 11 N -2.95854 3.11281 -0.406986 0
M  V30 12 N -3.21854 0.788485 0.0753998 0
M  V30 13 C -2.75875 -0.45717 0.290438 0
M  V30 14 C -1.3721 -0.6947 0.237187 0
M  V30 15 C -1.2054 -2.02437 0.490238 0
M  V30 16 C -2.46779 -2.59601 0.695833 0
M  V30 17 N -3.37923 -1.62242 0.567824 0
M  V30 18 H 5.49272 -1.17712 -0.936697 0
M  V30 19 H 5.84511 0.0707367 0.278714 0
M  V30 20 H 1.49152 2.15913 -0.539653 0
M  V30 21 H 3.28195 -2.26592 0.212783 0
M  V30 22 H -0.415557 2.3971 -0.448775 0
M  V30 23 H -3.44378 3.42074 -1.27336 0
M  V30 24 H -2.86347 3.80335 0.367222 0
M  V30 25 H -0.288986 -2.56526 0.531598 0
M  V30 26 H -2.66262 -3.63555 0.917267 0
M  V30 27 H -4.43338 -1.69109 0.658009 0
M  V30 END ATOM
M  V30 BEGIN BOND
M  V30 1 1 1 2
M  V30 2 2 2 3
M  V30 3 1 3 4
M  V30 4 2 4 5
M  V30 5 1 5 6
M  V30 6 2 6 7
M  V30 7 1 5 8
M  V30 8 2 8 9
M  V30 9 1 9 10
M  V30 10 1 10 11
M  V30 11 2 10 12
M  V30 12 1 12 13
M  V30 13 2 13 14
M  V30 14 1 14 15
M  V30 15 2 15 16
M  V30 16 1 16 17
M  V30 17 1 7 2
M  V30 18 1 14 8
M  V30 19 1 17 13
M  V30 20 1 1 18
M  V30 21 1 1 19
M  V30 22 1 4 20
M  V30 23 1 7 21
M  V30 24 1 9 22
M  V30 25 1 11 23
M  V30 26 1 11 24
M  V30 27 1 15 25
M  V30 28 1 16 26
M  V30 29 1 17 27
M  V30 END BOND
M  V30 END CTAB
M  END
