
     RDKit          3D

  0  0  0  0  0  0  0  0  0  0999 V3000
M  V30 BEGIN CTAB
M  V30 COUNTS 24 24 0 0 0
M  V30 BEGIN ATOM
M  V30 1 N -1.04546 1.8389 -0.175084 0
M  V30 2 C -1.37035 0.550917 -0.596295 0 CFG=2
M  V30 3 C -2.8396 0.393104 -0.448221 0
M  V30 4 S -3.79715 1.58999 0.119193 0
M  V30 5 N -3.49496 -0.833443 -0.801068 0
M  V30 6 C -0.719688 -0.479136 0.306088 0
M  V30 7 C 0.737415 -0.394727 0.329893 0
M  V30 8 C 1.42383 0.39136 1.23165 0
M  V30 9 C 2.79242 0.443597 1.22174 0
M  V30 10 C 3.52881 -0.295164 0.301346 0
M  V30 11 C 2.86385 -1.08489 -0.605885 0
M  V30 12 C 1.49572 -1.11361 -0.567933 0
M  V30 13 H -1.26684 2.02114 0.763656 0
M  V30 14 H -0.843003 2.55071 -0.80656 0
M  V30 15 H -1.04678 0.373718 -1.66096 0
M  V30 16 H -4.37892 -0.790629 -1.34545 0
M  V30 17 H -3.13089 -1.75688 -0.540309 0
M  V30 18 H -1.18848 -0.364659 1.30672 0
M  V30 19 H -1.01786 -1.47427 -0.101969 0
M  V30 20 H 0.901982 0.996261 1.98097 0
M  V30 21 H 3.29903 1.07818 1.95222 0
M  V30 22 H 4.62083 -0.221859 0.331159 0
M  V30 23 H 3.46435 -1.65678 -1.32 0
M  V30 24 H 1.01173 -1.76182 -1.31582 0
M  V30 END ATOM
M  V30 BEGIN BOND
M  V30 1 1 1 2
M  V30 2 1 2 3
M  V30 3 2 3 4
M  V30 4 1 3 5
M  V30 5 1 2 6
M  V30 6 1 6 7
M  V30 7 2 7 8
M  V30 8 1 8 9
M  V30 9 2 9 10
M  V30 10 1 10 11
M  V30 11 2 11 12
M  V30 12 1 12 7
M  V30 13 1 1 13
M  V30 14 1 1 14
M  V30 15 1 2 15 CFG=3
M  V30 16 1 5 16
M  V30 17 1 5 17
M  V30 18 1 6 18
M  V30 19 1 6 19
M  V30 20 1 8 20
M  V30 21 1 9 21
M  V30 22 1 10 22
M  V30 23 1 11 23
M  V30 24 1 12 24
M  V30 END BOND
M  V30 END CTAB
M  END
