
     RDKit          3D

  0  0  0  0  0  0  0  0  0  0999 V3000
M  V30 BEGIN CTAB
M  V30 COUNTS 34 36 0 0 0
M  V30 BEGIN ATOM
M  V30 1 N -5.36847 2.09564 -0.788266 0
M  V30 2 C -4.11694 1.44779 -0.517602 0
M  V30 3 C -2.93454 2.10472 -0.755956 0
M  V30 4 C -1.69701 1.50319 -0.503178 0
M  V30 5 C -1.64836 0.223839 -0.00382274 0
M  V30 6 C -2.8314 -0.455681 0.243509 0
M  V30 7 C -4.03897 0.181898 -0.0229108 0
M  V30 8 C -2.48784 -1.67555 0.725562 0
M  V30 9 C -1.09197 -1.74169 0.772588 0
M  V30 10 N -0.581798 -0.586268 0.32925 0
M  V30 11 C 0.770784 -0.230151 0.189715 0
M  V30 12 O 1.09429 0.899686 -0.312185 0
M  V30 13 C 1.90365 -1.08048 0.589301 0
M  V30 14 N 3.17425 -0.452525 0.204755 0
M  V30 15 N 3.78653 -0.630426 -0.937693 0
M  V30 16 N 4.90189 0.0541794 -1.00782 0
M  V30 17 C 5.05111 0.729866 0.146504 0
M  V30 18 C 3.94267 0.396292 0.907456 0
M  V30 19 N 6.10891 1.59651 0.510701 0
M  V30 20 C -0.366794 -2.94782 1.23862 0
M  V30 21 H -5.39769 2.9055 -1.42217 0
M  V30 22 H -6.26906 1.78018 -0.366114 0
M  V30 23 H -2.93047 3.12376 -1.15218 0
M  V30 24 H -0.816499 2.08119 -0.714185 0
M  V30 25 H -4.94744 -0.38322 0.184627 0
M  V30 26 H -3.17805 -2.44159 1.01439 0
M  V30 27 H 1.92314 -2.08559 0.149429 0
M  V30 28 H 1.94471 -1.14748 1.72283 0
M  V30 29 H 3.73076 0.760415 1.90682 0
M  V30 30 H 6.19757 2.55031 0.0688727 0
M  V30 31 H 6.81531 1.31474 1.21562 0
M  V30 32 H -1.12049 -3.63108 1.75022 0
M  V30 33 H 0.11435 -3.51655 0.410172 0
M  V30 34 H 0.363871 -2.74359 2.03408 0
M  V30 END ATOM
M  V30 BEGIN BOND
M  V30 1 1 1 2
M  V30 2 2 2 3
M  V30 3 1 3 4
M  V30 4 2 4 5
M  V30 5 1 5 6
M  V30 6 2 6 7
M  V30 7 1 6 8
M  V30 8 2 8 9
M  V30 9 1 9 10
M  V30 10 1 10 11
M  V30 11 2 11 12
M  V30 12 1 11 13
M  V30 13 1 13 14
M  V30 14 1 14 15
M  V30 15 2 15 16
M  V30 16 1 16 17
M  V30 17 2 17 18
M  V30 18 1 17 19
M  V30 19 1 9 20
M  V30 20 1 7 2
M  V30 21 1 18 14
M  V30 22 1 10 5
M  V30 23 1 1 21
M  V30 24 1 1 22
M  V30 25 1 3 23
M  V30 26 1 4 24
M  V30 27 1 7 25
M  V30 28 1 8 26
M  V30 29 1 13 27
M  V30 30 1 13 28
M  V30 31 1 18 29
M  V30 32 1 19 30
M  V30 33 1 19 31
M  V30 34 1 20 32
M  V30 35 1 20 33
M  V30 36 1 20 34
M  V30 END BOND
M  V30 END CTAB
M  END
