
     RDKit          3D

  0  0  0  0  0  0  0  0  0  0999 V3000
M  V30 BEGIN CTAB
M  V30 COUNTS 13 12 0 0 0
M  V30 BEGIN ATOM
M  V30 1 N -2.24507 -0.516404 -0.534002 0
M  V30 2 N -1.44518 -0.285104 0.57154 0
M  V30 3 C -0.0588884 0.0127989 0.324004 0
M  V30 4 N 0.335527 1.34497 0.106539 0
M  V30 5 N 0.739622 -0.993699 0.320285 0
M  V30 6 N 2.09404 -0.744869 0.0834055 0 CHG=1
M  V30 7 O 2.48761 -0.646112 -1.23026 0 CHG=-1
M  V30 8 O 2.93414 -0.61275 0.982378 0
M  V30 9 H -1.83982 -1.28497 -1.10769 0
M  V30 10 H -2.21011 0.340282 -1.12915 0
M  V30 11 H -1.76021 -0.308246 1.56378 0
M  V30 12 H -0.290236 2.12411 0.352957 0
M  V30 13 H 1.25856 1.57 -0.303784 0
M  V30 END ATOM
M  V30 BEGIN BOND
M  V30 1 1 1 2
M  V30 2 1 2 3
M  V30 3 1 3 4
M  V30 4 2 3 5 CFG=2
M  V30 5 1 5 6
M  V30 6 1 6 7
M  V30 7 2 6 8
M  V30 8 1 1 9
M  V30 9 1 1 10
M  V30 10 1 2 11
M  V30 11 1 4 12
M  V30 12 1 4 13
M  V30 END BOND
M  V30 END CTAB
M  END
