
     RDKit          3D

  0  0  0  0  0  0  0  0  0  0999 V3000
M  V30 BEGIN CTAB
M  V30 COUNTS 28 28 0 0 0
M  V30 BEGIN ATOM
M  V30 1 C -3.88952 0.683173 -0.962865 0
M  V30 2 C -3.30207 -0.563734 -0.409782 0
M  V30 3 C -4.09596 -1.42355 0.188314 0
M  V30 4 C -1.85128 -0.876563 -0.487885 0
M  V30 5 N -1.03957 0.102802 0.151589 0
M  V30 6 C 0.365895 0.034861 0.101458 0
M  V30 7 C 1.03357 -0.970505 -0.545606 0
M  V30 8 C 2.41174 -1.06487 -0.633225 0
M  V30 9 C 3.18121 -0.104193 -0.0416826 0
M  V30 10 C 2.53137 0.936739 0.627696 0
M  V30 11 C 1.15525 1.0292 0.713086 0
M  V30 12 F 0.51373 2.02745 1.35519 0
M  V30 13 N 3.3268 1.93729 1.23796 0
M  V30 14 N 4.6043 -0.088296 -0.0915659 0
M  V30 15 H -4.5723 0.35954 -1.78457 0
M  V30 16 H -3.14726 1.41531 -1.28911 0
M  V30 17 H -4.53809 1.19948 -0.225347 0
M  V30 18 H -5.14908 -1.21821 0.273567 0
M  V30 19 H -3.69893 -2.35895 0.604138 0
M  V30 20 H -1.60315 -0.938344 -1.57133 0
M  V30 21 H -1.6912 -1.88225 -0.0787655 0
M  V30 22 H -1.45901 0.915633 0.687633 0
M  V30 23 H 0.450884 -1.74121 -1.01665 0
M  V30 24 H 2.93255 -1.8723 -1.15291 0
M  V30 25 H 3.88715 2.55515 0.627673 0
M  V30 26 H 3.36398 2.06718 2.25872 0
M  V30 27 H 5.13489 0.788509 -0.362327 0
M  V30 28 H 5.14412 -0.949331 0.139468 0
M  V30 END ATOM
M  V30 BEGIN BOND
M  V30 1 1 1 2
M  V30 2 2 2 3 CFG=2
M  V30 3 1 2 4
M  V30 4 1 4 5
M  V30 5 1 5 6
M  V30 6 2 6 7
M  V30 7 1 7 8
M  V30 8 2 8 9
M  V30 9 1 9 10
M  V30 10 2 10 11
M  V30 11 1 11 12
M  V30 12 1 10 13
M  V30 13 1 9 14
M  V30 14 1 11 6
M  V30 15 1 1 15
M  V30 16 1 1 16
M  V30 17 1 1 17
M  V30 18 1 3 18
M  V30 19 1 3 19
M  V30 20 1 4 20
M  V30 21 1 4 21
M  V30 22 1 5 22
M  V30 23 1 7 23
M  V30 24 1 8 24
M  V30 25 1 13 25
M  V30 26 1 13 26
M  V30 27 1 14 27
M  V30 28 1 14 28
M  V30 END BOND
M  V30 END CTAB
M  END
