
     RDKit          3D

  0  0  0  0  0  0  0  0  0  0999 V3000
M  V30 BEGIN CTAB
M  V30 COUNTS 46 49 0 0 0
M  V30 BEGIN ATOM
M  V30 1 C 3.66019 2.3402 3.22148 0
M  V30 2 C 2.7884 2.09542 2.03892 0
M  V30 3 C 2.60831 3.12457 1.12464 0
M  V30 4 C 1.81522 2.95941 0.0139042 0
M  V30 5 C 1.20735 1.75201 -0.166615 0
M  V30 6 C 1.35509 0.685677 0.721212 0
M  V30 7 C 2.1607 0.900895 1.82003 0
M  V30 8 N 0.657151 -0.507842 0.483182 0
M  V30 9 C -0.567802 -0.784634 1.06262 0
M  V30 10 N -0.992603 -1.97438 0.638932 0
M  V30 11 N -0.0983368 -2.441 -0.16566 0
M  V30 12 C 0.947631 -1.54179 -0.28129 0
M  V30 13 C 2.0854 -1.80421 -1.14137 0
M  V30 14 C 3.2262 -1.06928 -1.24859 0
M  V30 15 C 4.26352 -1.3887 -2.13758 0
M  V30 16 C 4.16183 -2.4734 -2.94393 0
M  V30 17 C 3.02925 -3.24712 -2.87163 0
M  V30 18 C 2.02605 -2.91604 -1.99449 0
M  V30 19 Cl 5.45112 -2.87739 -4.05434 0
M  V30 20 S -1.42538 0.277594 2.1861 0
M  V30 21 C -2.50219 1.39963 1.2544 0
M  V30 22 C -3.60146 0.664522 0.578005 0
M  V30 23 N -4.79334 0.473515 1.21059 0
M  V30 24 C -5.81714 -0.18073 0.651219 0
M  V30 25 N -7.06266 -0.383249 1.3033 0
M  V30 26 N -5.65542 -0.669515 -0.592884 0
M  V30 27 C -4.49356 -0.513526 -1.27774 0
M  V30 28 N -3.50907 0.151091 -0.659754 0
M  V30 29 N -4.37722 -1.05145 -2.59026 0
M  V30 30 H 3.69523 3.42843 3.44335 0
M  V30 31 H 3.19123 1.84571 4.10225 0
M  V30 32 H 4.67907 1.97442 3.09697 0
M  V30 33 H 3.09965 4.09834 1.27162 0
M  V30 34 H 1.70443 3.7977 -0.676178 0
M  V30 35 H 0.582617 1.64119 -1.05345 0
M  V30 36 H 2.31028 0.103613 2.54358 0
M  V30 37 H 3.40999 -0.210067 -0.651813 0
M  V30 38 H 5.14941 -0.772124 -2.18447 0
M  V30 39 H 2.95393 -4.10448 -3.513 0
M  V30 40 H 1.13738 -3.54446 -1.95567 0
M  V30 41 H -1.89078 1.95087 0.493665 0
M  V30 42 H -2.8866 2.16364 1.95827 0
M  V30 43 H -7.33166 -1.35281 1.56635 0
M  V30 44 H -7.65569 0.453439 1.49052 0
M  V30 45 H -3.52228 -1.57442 -2.8581 0
M  V30 46 H -5.17348 -0.899277 -3.25627 0
M  V30 END ATOM
M  V30 BEGIN BOND
M  V30 1 1 1 2
M  V30 2 2 2 3
M  V30 3 1 3 4
M  V30 4 2 4 5
M  V30 5 1 5 6
M  V30 6 2 6 7
M  V30 7 1 6 8
M  V30 8 1 8 9
M  V30 9 2 9 10
M  V30 10 1 10 11
M  V30 11 2 11 12
M  V30 12 1 12 13
M  V30 13 2 13 14
M  V30 14 1 14 15
M  V30 15 2 15 16
M  V30 16 1 16 17
M  V30 17 2 17 18
M  V30 18 1 16 19
M  V30 19 1 9 20
M  V30 20 1 20 21
M  V30 21 1 21 22
M  V30 22 2 22 23
M  V30 23 1 23 24
M  V30 24 1 24 25
M  V30 25 2 24 26
M  V30 26 1 26 27
M  V30 27 2 27 28
M  V30 28 1 27 29
M  V30 29 1 7 2
M  V30 30 1 12 8
M  V30 31 1 18 13
M  V30 32 1 28 22
M  V30 33 1 1 30
M  V30 34 1 1 31
M  V30 35 1 1 32
M  V30 36 1 3 33
M  V30 37 1 4 34
M  V30 38 1 5 35
M  V30 39 1 7 36
M  V30 40 1 14 37
M  V30 41 1 15 38
M  V30 42 1 17 39
M  V30 43 1 18 40
M  V30 44 1 21 41
M  V30 45 1 21 42
M  V30 46 1 25 43
M  V30 47 1 25 44
M  V30 48 1 29 45
M  V30 49 1 29 46
M  V30 END BOND
M  V30 END CTAB
M  END
