
     RDKit          3D

  0  0  0  0  0  0  0  0  0  0999 V3000
M  V30 BEGIN CTAB
M  V30 COUNTS 20 20 0 0 0
M  V30 BEGIN ATOM
M  V30 1 N 2.27706 -1.48787 0.785199 0
M  V30 2 C 1.13148 -0.745716 0.392301 0
M  V30 3 C -0.157366 -1.14814 0.724333 0
M  V30 4 C -1.25712 -0.410431 0.332016 0
M  V30 5 C -1.1333 0.750503 -0.40112 0
M  V30 6 N -2.27646 1.49853 -0.796857 0
M  V30 7 C 0.137968 1.16642 -0.740759 0
M  V30 8 C 1.25026 0.416664 -0.341769 0
M  V30 9 N 2.54284 0.871245 -0.705387 0 CHG=1
M  V30 10 O 3.599 0.040066 -0.867827 0 CHG=-1
M  V30 11 O 2.71515 2.09199 -0.884337 0
M  V30 12 N -2.55126 -0.843841 0.683334 0 CHG=1
M  V30 13 O -2.70685 -1.52137 1.86492 0 CHG=-1
M  V30 14 O -3.56508 -0.650099 -0.0129302 0
M  V30 15 H 3.11491 -1.0986 1.26491 0
M  V30 16 H 2.28906 -2.50926 0.580204 0
M  V30 17 H -0.230872 -2.06715 1.30395 0
M  V30 18 H -2.47751 1.74088 -1.79132 0
M  V30 19 H -2.95436 1.82779 -0.0697686 0
M  V30 20 H 0.25245 2.0784 -1.3191 0
M  V30 END ATOM
M  V30 BEGIN BOND
M  V30 1 1 1 2
M  V30 2 2 2 3
M  V30 3 1 3 4
M  V30 4 2 4 5
M  V30 5 1 5 6
M  V30 6 1 5 7
M  V30 7 2 7 8
M  V30 8 1 8 9
M  V30 9 1 9 10
M  V30 10 2 9 11
M  V30 11 1 4 12
M  V30 12 1 12 13
M  V30 13 2 12 14
M  V30 14 1 8 2
M  V30 15 1 1 15
M  V30 16 1 1 16
M  V30 17 1 3 17
M  V30 18 1 6 18
M  V30 19 1 6 19
M  V30 20 1 7 20
M  V30 END BOND
M  V30 END CTAB
M  END
