
     RDKit          3D

  0  0  0  0  0  0  0  0  0  0999 V3000
M  V30 BEGIN CTAB
M  V30 COUNTS 27 28 0 0 0
M  V30 BEGIN ATOM
M  V30 1 F -1.17595 1.96438 1.39497 0
M  V30 2 C -1.44011 0.885908 0.600827 0
M  V30 3 C -0.401879 0.128608 0.101396 0
M  V30 4 O 0.922627 0.456355 0.40192 0
M  V30 5 C 1.98218 -0.326567 -0.115064 0
M  V30 6 C 3.29883 0.269254 0.379368 0
M  V30 7 C 4.56973 -0.459709 -0.0884563 0
M  V30 8 C 4.21157 0.874728 -0.622953 0
M  V30 9 C -0.741964 -0.94642 -0.693855 0
M  V30 10 C -2.05799 -1.25171 -0.977701 0
M  V30 11 C -3.09227 -0.47514 -0.464116 0
M  V30 12 C -2.75644 0.608128 0.336905 0
M  V30 13 N -3.82655 1.38134 0.846352 0
M  V30 14 N -4.44899 -0.76665 -0.739911 0
M  V30 15 H 1.91632 -1.36115 0.274085 0
M  V30 16 H 1.95725 -0.34867 -1.22527 0
M  V30 17 H 3.29703 0.694753 1.40119 0
M  V30 18 H 5.37699 -0.532847 0.675563 0
M  V30 19 H 4.43461 -1.36882 -0.699835 0
M  V30 20 H 4.85524 1.71866 -0.326326 0
M  V30 21 H 3.80332 0.959631 -1.64833 0
M  V30 22 H 0.051952 -1.54472 -1.08968 0
M  V30 23 H -2.32424 -2.11046 -1.61271 0
M  V30 24 H -4.63512 0.906769 1.31363 0
M  V30 25 H -3.8577 2.42909 0.781444 0
M  V30 26 H -5.00984 -0.251333 -1.44105 0
M  V30 27 H -4.9086 -1.53339 -0.216515 0
M  V30 END ATOM
M  V30 BEGIN BOND
M  V30 1 1 1 2
M  V30 2 2 2 3
M  V30 3 1 3 4
M  V30 4 1 4 5
M  V30 5 1 5 6
M  V30 6 1 6 7
M  V30 7 1 7 8
M  V30 8 1 3 9
M  V30 9 2 9 10
M  V30 10 1 10 11
M  V30 11 2 11 12
M  V30 12 1 12 13
M  V30 13 1 11 14
M  V30 14 1 12 2
M  V30 15 1 8 6
M  V30 16 1 5 15
M  V30 17 1 5 16
M  V30 18 1 6 17
M  V30 19 1 7 18
M  V30 20 1 7 19
M  V30 21 1 8 20
M  V30 22 1 8 21
M  V30 23 1 9 22
M  V30 24 1 10 23
M  V30 25 1 13 24
M  V30 26 1 13 25
M  V30 27 1 14 26
M  V30 28 1 14 27
M  V30 END BOND
M  V30 END CTAB
M  END
