
     RDKit          3D

  0  0  0  0  0  0  0  0  0  0999 V3000
M  V30 BEGIN CTAB
M  V30 COUNTS 45 48 0 0 0
M  V30 BEGIN ATOM
M  V30 1 N -6.94227 -2.74408 0.317572 0
M  V30 2 C -6.906 -1.33074 0.137287 0
M  V30 3 C -5.71077 -0.680945 0.164302 0
M  V30 4 C -5.68079 0.699678 -0.0229855 0
M  V30 5 O -4.55604 1.40228 -0.0308044 0
M  V30 6 C -3.24995 1.03542 0.121107 0
M  V30 7 C -2.62214 1.10226 1.36068 0
M  V30 8 C -1.29539 0.747868 1.41594 0
M  V30 9 C -0.536009 0.311895 0.34152 0
M  V30 10 C -1.16645 0.238398 -0.87395 0
M  V30 11 C -2.50495 0.597034 -0.969213 0
M  V30 12 C 0.892812 0.113366 0.454274 0
M  V30 13 N 1.74725 0.103091 1.46534 0
M  V30 14 N 2.97491 -0.103544 1.03252 0
M  V30 15 C 2.92971 -0.244298 -0.307604 0
M  V30 16 N 3.9785 -0.454043 -1.27742 0
M  V30 17 C 5.34874 -0.352895 -1.02566 0
M  V30 18 C 5.90252 -0.300762 0.23297 0
M  V30 19 C 7.28142 -0.0921362 0.396753 0
M  V30 20 C 8.06482 0.0572899 -0.71153 0
M  V30 21 C 7.54249 0.0137103 -1.98413 0
M  V30 22 C 6.20557 -0.191018 -2.09353 0
M  V30 23 C 7.93034 -0.0257895 1.72765 0
M  V30 24 F 7.12221 -0.547054 2.71257 0
M  V30 25 F 8.23792 1.27751 2.05142 0
M  V30 26 F 9.07951 -0.820775 1.72702 0
M  V30 27 O 1.68078 -0.118633 -0.61917 0
M  V30 28 N -6.87516 1.33051 -0.224626 0
M  V30 29 C -8.04353 0.677148 -0.248639 0
M  V30 30 N -9.23333 1.45094 -0.451106 0
M  V30 31 N -8.03613 -0.641421 -0.0628821 0
M  V30 32 H -7.00901 -3.35468 -0.510839 0
M  V30 33 H -6.88945 -3.16475 1.2431 0
M  V30 34 H -4.7844 -1.20982 0.331194 0
M  V30 35 H -3.23852 1.43172 2.17249 0
M  V30 36 H -0.81747 0.809028 2.39395 0
M  V30 37 H -0.618416 -0.0757922 -1.73756 0
M  V30 38 H -3.01356 0.533523 -1.90311 0
M  V30 39 H 3.64171 -0.680274 -2.26917 0
M  V30 40 H 5.36331 -0.404622 1.1307 0
M  V30 41 H 9.12206 0.209785 -0.615099 0
M  V30 42 H 8.2473 0.156236 -2.82676 0
M  V30 43 H 5.76723 -0.204045 -3.11199 0
M  V30 44 H -9.81802 1.70936 0.361818 0
M  V30 45 H -9.51333 1.73406 -1.40799 0
M  V30 END ATOM
M  V30 BEGIN BOND
M  V30 1 1 1 2
M  V30 2 2 2 3
M  V30 3 1 3 4
M  V30 4 1 4 5
M  V30 5 1 5 6
M  V30 6 2 6 7
M  V30 7 1 7 8
M  V30 8 2 8 9
M  V30 9 1 9 10
M  V30 10 2 10 11
M  V30 11 1 9 12
M  V30 12 2 12 13
M  V30 13 1 13 14
M  V30 14 2 14 15
M  V30 15 1 15 16
M  V30 16 1 16 17
M  V30 17 2 17 18
M  V30 18 1 18 19
M  V30 19 2 19 20
M  V30 20 1 20 21
M  V30 21 2 21 22
M  V30 22 1 19 23
M  V30 23 1 23 24
M  V30 24 1 23 25
M  V30 25 1 23 26
M  V30 26 1 15 27
M  V30 27 2 4 28
M  V30 28 1 28 29
M  V30 29 1 29 30
M  V30 30 2 29 31
M  V30 31 1 31 2
M  V30 32 1 11 6
M  V30 33 1 27 12
M  V30 34 1 22 17
M  V30 35 1 1 32
M  V30 36 1 1 33
M  V30 37 1 3 34
M  V30 38 1 7 35
M  V30 39 1 8 36
M  V30 40 1 10 37
M  V30 41 1 11 38
M  V30 42 1 16 39
M  V30 43 1 18 40
M  V30 44 1 20 41
M  V30 45 1 21 42
M  V30 46 1 22 43
M  V30 47 1 30 44
M  V30 48 1 30 45
M  V30 END BOND
M  V30 END CTAB
M  END
