
     RDKit          3D

  0  0  0  0  0  0  0  0  0  0999 V3000
M  V30 BEGIN CTAB
M  V30 COUNTS 25 25 0 0 0
M  V30 BEGIN ATOM
M  V30 1 N 2.46826 -1.12198 0.644938 0
M  V30 2 C 1.83994 0.20435 0.540006 0
M  V30 3 N 2.27841 0.737405 -0.746457 0
M  V30 4 C 0.346953 -0.0443926 0.538373 0
M  V30 5 C 0.0201803 -0.904765 -0.630414 0
M  V30 6 C -1.41717 -0.952436 -1.00373 0
M  V30 7 C -2.32979 -0.297639 0.00724544 0
M  V30 8 C -1.84451 1.11723 0.201631 0
M  V30 9 C -0.42816 1.21203 0.647537 0
M  V30 10 H 2.0479 -1.6643 1.42706 0
M  V30 11 H 2.37344 -1.58727 -0.284685 0
M  V30 12 H 2.19187 0.784162 1.39158 0
M  V30 13 H 2.0047 1.71175 -0.900261 0
M  V30 14 H 3.32132 0.68613 -0.74245 0
M  V30 15 H 0.143352 -0.652708 1.46782 0
M  V30 16 H 0.660621 -0.636317 -1.5204 0
M  V30 17 H 0.3384 -1.95161 -0.376125 0
M  V30 18 H -1.57327 -0.394235 -1.96723 0
M  V30 19 H -1.79337 -1.97816 -1.204 0
M  V30 20 H -2.34717 -0.890891 0.930929 0
M  V30 21 H -3.33769 -0.228107 -0.474477 0
M  V30 22 H -2.00121 1.65398 -0.750717 0
M  V30 23 H -2.55621 1.59827 0.932481 0
M  V30 24 H 0.0378798 2.09034 0.133438 0
M  V30 25 H -0.44467 1.50917 1.7379 0
M  V30 END ATOM
M  V30 BEGIN BOND
M  V30 1 1 1 2
M  V30 2 1 2 3
M  V30 3 1 2 4
M  V30 4 1 4 5
M  V30 5 1 5 6
M  V30 6 1 6 7
M  V30 7 1 7 8
M  V30 8 1 8 9
M  V30 9 1 9 4
M  V30 10 1 1 10
M  V30 11 1 1 11
M  V30 12 1 2 12
M  V30 13 1 3 13
M  V30 14 1 3 14
M  V30 15 1 4 15
M  V30 16 1 5 16
M  V30 17 1 5 17
M  V30 18 1 6 18
M  V30 19 1 6 19
M  V30 20 1 7 20
M  V30 21 1 7 21
M  V30 22 1 8 22
M  V30 23 1 8 23
M  V30 24 1 9 24
M  V30 25 1 9 25
M  V30 END BOND
M  V30 END CTAB
M  END
