
     RDKit          3D

  0  0  0  0  0  0  0  0  0  0999 V3000
M  V30 BEGIN CTAB
M  V30 COUNTS 64 63 0 0 0
M  V30 BEGIN ATOM
M  V30 1 N 9.39637 3.35903 -0.210372 0
M  V30 2 C 8.75164 2.06591 0.0866035 0
M  V30 3 C 9.19497 1.7101 1.4477 0
M  V30 4 C 8.78918 0.404534 2.01667 0
M  V30 5 N 7.44024 0.144251 2.15296 0
M  V30 6 C 6.56098 -0.149739 1.12027 0
M  V30 7 C 5.17488 -0.415609 1.78147 0
M  V30 8 C 4.25535 -0.723888 0.644654 0
M  V30 9 C 2.84094 -1.02102 1.06334 0
M  V30 10 N 2.02782 -1.30113 -0.0946281 0
M  V30 11 C 0.656169 -1.62007 -0.00998112 0
M  V30 12 O 0.0877103 -1.67315 1.10927 0
M  V30 13 C -0.160897 -1.90157 -1.21782 0 CFG=2
M  V30 14 O 0.617788 -1.79184 -2.37813 0
M  V30 15 N -1.18316 -0.862356 -1.30314 0
M  V30 16 C -2.5362 -1.2432 -1.43836 0
M  V30 17 O -2.85577 -2.45968 -1.48672 0
M  V30 18 C -3.54494 -0.141622 -1.51867 0
M  V30 19 C -4.8835 -0.788427 -1.68452 0
M  V30 20 C -6.02947 0.18311 -1.7949 0
M  V30 21 C -6.10503 1.02865 -0.549618 0
M  V30 22 C -6.32113 0.228274 0.675391 0
M  V30 23 C -7.56621 -0.568629 0.784976 0
M  V30 24 N -8.75157 0.226436 0.833344 0
M  V30 25 C -9.35921 1.00916 -0.153749 0
M  V30 26 N -9.74142 0.571775 -1.4426 0
M  V30 27 N -9.61598 2.25248 0.158007 0
M  V30 28 H 9.09501 3.68328 -1.10584 0
M  V30 29 H 10.3991 3.28354 -0.0373869 0
M  V30 30 H 7.65517 2.35973 0.068376 0
M  V30 31 H 9.00172 1.38968 -0.725585 0
M  V30 32 H 8.81693 2.56297 2.12124 0
M  V30 33 H 10.3383 1.79547 1.54085 0
M  V30 34 H 9.31661 -0.375318 1.33626 0
M  V30 35 H 9.36032 0.218827 2.99959 0
M  V30 36 H 7.02193 0.267534 3.10455 0
M  V30 37 H 6.82867 -1.0901 0.537684 0
M  V30 38 H 6.44777 0.615839 0.358323 0
M  V30 39 H 4.87959 0.453467 2.37492 0
M  V30 40 H 5.2908 -1.28217 2.44706 0
M  V30 41 H 4.67784 -1.62366 0.114104 0
M  V30 42 H 4.30117 0.0905361 -0.088119 0
M  V30 43 H 2.4316 -0.0675109 1.50394 0
M  V30 44 H 2.76886 -1.80185 1.82775 0
M  V30 45 H 2.47143 -1.26674 -1.03359 0
M  V30 46 H -0.594799 -2.90223 -1.23292 0
M  V30 47 H 0.495557 -0.943063 -2.83576 0
M  V30 48 H -0.871534 0.133585 -1.2611 0
M  V30 49 H -3.47581 0.372231 -0.515865 0
M  V30 50 H -3.31463 0.587466 -2.32069 0
M  V30 51 H -4.8597 -1.38682 -2.63447 0
M  V30 52 H -5.01832 -1.52646 -0.867202 0
M  V30 53 H -5.8745 0.8257 -2.68858 0
M  V30 54 H -6.9571 -0.420617 -1.93542 0
M  V30 55 H -6.79716 1.89079 -0.685754 0
M  V30 56 H -5.0931 1.5351 -0.464106 0
M  V30 57 H -6.23865 0.900329 1.57327 0
M  V30 58 H -5.43557 -0.460507 0.78853 0
M  V30 59 H -7.63704 -1.35342 -0.026649 0
M  V30 60 H -7.49881 -1.18321 1.72892 0
M  V30 61 H -9.2535 0.219196 1.78748 0
M  V30 62 H -9.59269 1.21679 -2.2591 0
M  V30 63 H -10.1606 -0.373396 -1.56471 0
M  V30 64 H -10.0644 2.89062 -0.521444 0
M  V30 END ATOM
M  V30 BEGIN BOND
M  V30 1 1 1 2
M  V30 2 1 2 3
M  V30 3 1 3 4
M  V30 4 1 4 5
M  V30 5 1 5 6
M  V30 6 1 6 7
M  V30 7 1 7 8
M  V30 8 1 8 9
M  V30 9 1 9 10
M  V30 10 1 10 11
M  V30 11 2 11 12
M  V30 12 1 11 13
M  V30 13 1 13 14
M  V30 14 1 13 15
M  V30 15 1 15 16
M  V30 16 2 16 17
M  V30 17 1 16 18
M  V30 18 1 18 19
M  V30 19 1 19 20
M  V30 20 1 20 21
M  V30 21 1 21 22
M  V30 22 1 22 23
M  V30 23 1 23 24
M  V30 24 1 24 25
M  V30 25 1 25 26
M  V30 26 2 25 27 CFG=2
M  V30 27 1 1 28
M  V30 28 1 1 29
M  V30 29 1 2 30
M  V30 30 1 2 31
M  V30 31 1 3 32
M  V30 32 1 3 33
M  V30 33 1 4 34
M  V30 34 1 4 35
M  V30 35 1 5 36
M  V30 36 1 6 37
M  V30 37 1 6 38
M  V30 38 1 7 39
M  V30 39 1 7 40
M  V30 40 1 8 41
M  V30 41 1 8 42
M  V30 42 1 9 43
M  V30 43 1 9 44
M  V30 44 1 10 45
M  V30 45 1 13 46 CFG=1
M  V30 46 1 14 47
M  V30 47 1 15 48
M  V30 48 1 18 49
M  V30 49 1 18 50
M  V30 50 1 19 51
M  V30 51 1 19 52
M  V30 52 1 20 53
M  V30 53 1 20 54
M  V30 54 1 21 55
M  V30 55 1 21 56
M  V30 56 1 22 57
M  V30 57 1 22 58
M  V30 58 1 23 59
M  V30 59 1 23 60
M  V30 60 1 24 61
M  V30 61 1 26 62
M  V30 62 1 26 63
M  V30 63 1 27 64
M  V30 END BOND
M  V30 END CTAB
M  END
