
     RDKit          3D

  0  0  0  0  0  0  0  0  0  0999 V3000
M  V30 BEGIN CTAB
M  V30 COUNTS 25 25 0 0 0
M  V30 BEGIN ATOM
M  V30 1 N 2.9417 0.387941 0.394701 0
M  V30 2 C 1.96221 -0.469897 -0.146624 0
M  V30 3 C 0.592005 -0.169729 0.452207 0 CFG=1
M  V30 4 C 0.27008 1.25753 0.1175 0
M  V30 5 C -1.07361 1.70599 0.582392 0
M  V30 6 C -2.06933 0.602445 0.75547 0
M  V30 7 C -1.81499 -0.576808 -0.144251 0
M  V30 8 C -0.443533 -1.14989 0.0150835 0 CFG=1
M  V30 9 N -0.10755 -1.79284 -1.26138 0
M  V30 10 H 3.06237 1.29265 0.0919416 0
M  V30 11 H 3.41732 0.0134695 1.15574 0
M  V30 12 H 2.27363 -1.49672 0.0817358 0
M  V30 13 H 1.88108 -0.293456 -1.25688 0
M  V30 14 H 0.744661 -0.223764 1.56936 0
M  V30 15 H 1.03601 1.89028 0.632057 0
M  V30 16 H 0.377893 1.40275 -0.95827 0
M  V30 17 H -0.996101 2.24647 1.54284 0
M  V30 18 H -1.44425 2.4726 -0.156836 0
M  V30 19 H -3.07757 1.00808 0.468995 0
M  V30 20 H -2.18012 0.290149 1.82735 0
M  V30 21 H -2.56691 -1.35862 0.138207 0
M  V30 22 H -1.97489 -0.22642 -1.19332 0
M  V30 23 H -0.497566 -1.94777 0.812077 0
M  V30 24 H 0.656048 -2.48925 -1.14108 0
M  V30 25 H -0.968584 -2.37521 -1.49101 0
M  V30 END ATOM
M  V30 BEGIN BOND
M  V30 1 1 1 2
M  V30 2 1 2 3
M  V30 3 1 3 4
M  V30 4 1 4 5
M  V30 5 1 5 6
M  V30 6 1 6 7
M  V30 7 1 7 8
M  V30 8 1 8 9
M  V30 9 1 8 3
M  V30 10 1 1 10
M  V30 11 1 1 11
M  V30 12 1 2 12
M  V30 13 1 2 13
M  V30 14 1 3 14 CFG=1
M  V30 15 1 4 15
M  V30 16 1 4 16
M  V30 17 1 5 17
M  V30 18 1 5 18
M  V30 19 1 6 19
M  V30 20 1 6 20
M  V30 21 1 7 21
M  V30 22 1 7 22
M  V30 23 1 8 23 CFG=1
M  V30 24 1 9 24
M  V30 25 1 9 25
M  V30 END BOND
M  V30 END CTAB
M  END
