
     RDKit          3D

  0  0  0  0  0  0  0  0  0  0999 V3000
M  V30 BEGIN CTAB
M  V30 COUNTS 29 30 0 0 0
M  V30 BEGIN ATOM
M  V30 1 N -1.47726 -2.31648 0.734034 0
M  V30 2 C -1.97618 -1.06464 0.272905 0
M  V30 3 C -3.26027 -0.670067 0.522072 0
M  V30 4 C -3.7718 0.527687 0.0911225 0
M  V30 5 C -2.93604 1.34338 -0.615963 0
M  V30 6 C -1.61085 0.973875 -0.889741 0
M  V30 7 C -1.08007 -0.248639 -0.45711 0
M  V30 8 S 0.509288 -0.839267 -0.849814 0
M  V30 9 C 1.85462 0.0385108 -0.121425 0
M  V30 10 N 1.8996 1.14539 0.625018 0
M  V30 11 N 3.163 1.45691 0.925203 0
M  V30 12 C 3.96545 0.519441 0.353079 0
M  V30 13 N 3.15176 -0.339593 -0.281685 0
M  V30 14 N 3.60284 -1.46438 -0.996076 0
M  V30 15 C 5.47234 0.455315 0.403335 0
M  V30 16 F 5.90946 0.417684 -0.918274 0
M  V30 17 F 5.92569 -0.67933 1.03328 0
M  V30 18 F 5.95668 1.63292 0.950815 0
M  V30 19 C -5.18749 0.859104 0.361793 0
M  V30 20 O -5.9132 0.0350058 0.949206 0
M  V30 21 O -5.67316 2.06752 -0.0356141 0
M  V30 22 H -1.48699 -3.12088 0.0823601 0
M  V30 23 H -1.10366 -2.45021 1.69211 0
M  V30 24 H -3.88602 -1.36507 1.11055 0
M  V30 25 H -3.34037 2.29785 -0.951008 0
M  V30 26 H -0.962856 1.62251 -1.44629 0
M  V30 27 H 4.31645 -2.13969 -0.586632 0
M  V30 28 H 3.25427 -1.66561 -1.94145 0
M  V30 29 H -5.31523 2.97077 0.150026 0
M  V30 END ATOM
M  V30 BEGIN BOND
M  V30 1 1 1 2
M  V30 2 2 2 3
M  V30 3 1 3 4
M  V30 4 2 4 5
M  V30 5 1 5 6
M  V30 6 2 6 7
M  V30 7 1 7 8
M  V30 8 1 8 9
M  V30 9 2 9 10
M  V30 10 1 10 11
M  V30 11 2 11 12
M  V30 12 1 12 13
M  V30 13 1 13 14
M  V30 14 1 12 15
M  V30 15 1 15 16
M  V30 16 1 15 17
M  V30 17 1 15 18
M  V30 18 1 4 19
M  V30 19 2 19 20
M  V30 20 1 19 21
M  V30 21 1 7 2
M  V30 22 1 13 9
M  V30 23 1 1 22
M  V30 24 1 1 23
M  V30 25 1 3 24
M  V30 26 1 5 25
M  V30 27 1 6 26
M  V30 28 1 14 27
M  V30 29 1 14 28
M  V30 30 1 21 29
M  V30 END BOND
M  V30 END CTAB
M  END
