
     RDKit          3D

  0  0  0  0  0  0  0  0  0  0999 V3000
M  V30 BEGIN CTAB
M  V30 COUNTS 55 58 0 0 0
M  V30 BEGIN ATOM
M  V30 1 C -4.82875 0.728361 -3.26347 0
M  V30 2 C -3.511 0.780761 -2.4882 0
M  V30 3 C -3.68457 0.758296 -1.05659 0
M  V30 4 C -4.25466 -0.352925 -0.435965 0
M  V30 5 C -4.53904 -0.391723 0.909157 0
M  V30 6 C -4.26646 0.688327 1.71546 0
M  V30 7 C -4.55609 0.648331 3.06572 0
M  V30 8 C -5.12376 -0.460167 3.66037 0
M  V30 9 N -5.37951 -1.50074 2.85058 0
M  V30 10 C -5.1114 -1.49798 1.53235 0
M  V30 11 N -5.39948 -2.62161 0.732243 0
M  V30 12 C -3.6997 1.8023 1.12055 0
M  V30 13 C -3.40996 1.85451 -0.224327 0
M  V30 14 C -2.41829 0.974215 -3.14855 0
M  V30 15 F -2.59078 1.13534 -4.55252 0
M  V30 16 C -1.08622 0.891851 -2.64626 0
M  V30 17 O -0.208958 1.25114 -3.54274 0
M  V30 18 N -0.546487 0.511784 -1.43745 0
M  V30 19 C 0.820676 0.48335 -1.03364 0
M  V30 20 C 1.12856 0.0709338 0.277205 0
M  V30 21 Br -0.326654 -0.402806 1.41687 0
M  V30 22 C 2.43086 0.0161298 0.716683 0
M  V30 23 C 3.49426 0.358394 -0.0932133 0
M  V30 24 C 3.18629 0.757222 -1.35782 0
M  V30 25 C 1.86478 0.819766 -1.82724 0
M  V30 26 C 4.80459 0.287144 0.505563 0
M  V30 27 C 5.71481 -0.642737 0.10469 0
M  V30 28 C 6.9738 -0.633909 0.719723 0
M  V30 29 C 7.30082 0.291161 1.71442 0
M  V30 30 C 6.36995 1.21621 2.10185 0
M  V30 31 C 5.1357 1.21929 1.50854 0
M  V30 32 S 5.33401 -1.80781 -1.10314 0
M  V30 33 N 3.92954 -2.7321 -0.731488 0
M  V30 34 O 6.48083 -2.842 -1.08851 0
M  V30 35 O 5.32258 -1.30661 -2.5062 0
M  V30 36 H -5.13054 -0.325908 -3.35901 0
M  V30 37 H -5.59388 1.29244 -2.70344 0
M  V30 38 H -4.69767 1.25938 -4.22199 0
M  V30 39 H -4.48397 -1.22478 -1.04219 0
M  V30 40 H -4.32559 1.51325 3.6473 0
M  V30 41 H -5.35029 -0.482258 4.73124 0
M  V30 42 H -6.15365 -2.57359 0.0331898 0
M  V30 43 H -4.8521 -3.48705 0.852145 0
M  V30 44 H -3.49086 2.64647 1.77721 0
M  V30 45 H -2.96571 2.72996 -0.68521 0
M  V30 46 H -1.20814 0.137753 -0.708139 0
M  V30 47 H 2.57122 -0.317848 1.75302 0
M  V30 48 H 3.9756 1.0621 -2.02863 0
M  V30 49 H 1.76636 1.15466 -2.86018 0
M  V30 50 H 7.71189 -1.36641 0.411995 0
M  V30 51 H 8.29422 0.245296 2.15206 0
M  V30 52 H 6.58254 1.94499 2.86384 0
M  V30 53 H 4.35397 1.93233 1.77607 0
M  V30 54 H 3.85043 -2.97719 0.255758 0
M  V30 55 H 3.79587 -3.51532 -1.40113 0
M  V30 END ATOM
M  V30 BEGIN BOND
M  V30 1 1 1 2
M  V30 2 1 2 3
M  V30 3 2 3 4
M  V30 4 1 4 5
M  V30 5 2 5 6
M  V30 6 1 6 7
M  V30 7 2 7 8
M  V30 8 1 8 9
M  V30 9 2 9 10
M  V30 10 1 10 11
M  V30 11 1 6 12
M  V30 12 2 12 13
M  V30 13 2 2 14
M  V30 14 1 14 15
M  V30 15 1 14 16
M  V30 16 2 16 17
M  V30 17 1 16 18
M  V30 18 1 18 19
M  V30 19 2 19 20
M  V30 20 1 20 21
M  V30 21 1 20 22
M  V30 22 2 22 23
M  V30 23 1 23 24
M  V30 24 2 24 25
M  V30 25 1 23 26
M  V30 26 2 26 27
M  V30 27 1 27 28
M  V30 28 2 28 29
M  V30 29 1 29 30
M  V30 30 2 30 31
M  V30 31 1 27 32
M  V30 32 1 32 33
M  V30 33 2 32 34
M  V30 34 2 32 35
M  V30 35 1 13 3
M  V30 36 1 25 19
M  V30 37 1 31 26
M  V30 38 1 10 5
M  V30 39 1 1 36
M  V30 40 1 1 37
M  V30 41 1 1 38
M  V30 42 1 4 39
M  V30 43 1 7 40
M  V30 44 1 8 41
M  V30 45 1 11 42
M  V30 46 1 11 43
M  V30 47 1 12 44
M  V30 48 1 13 45
M  V30 49 1 18 46
M  V30 50 1 22 47
M  V30 51 1 24 48
M  V30 52 1 25 49
M  V30 53 1 28 50
M  V30 54 1 29 51
M  V30 55 1 30 52
M  V30 56 1 31 53
M  V30 57 1 33 54
M  V30 58 1 33 55
M  V30 END BOND
M  V30 END CTAB
M  END
