
     RDKit          3D

  0  0  0  0  0  0  0  0  0  0999 V3000
M  V30 BEGIN CTAB
M  V30 COUNTS 33 33 0 0 0
M  V30 BEGIN ATOM
M  V30 1 N -2.68291 -0.191818 0.85701 0
M  V30 2 C -1.62165 -0.326397 -0.0979264 0
M  V30 3 C -0.867628 0.948299 -0.39474 0
M  V30 4 C -1.00836 1.3211 -1.84747 0
M  V30 5 C -1.29535 2.07565 0.491372 0
M  V30 6 C 0.428636 0.269394 -0.0271919 0
M  V30 7 C -0.352724 -0.84905 0.559768 0
M  V30 8 C -0.436052 -0.854428 2.08379 0
M  V30 9 C -0.0805192 -2.24245 0.0795992 0
M  V30 10 N 1.27108 -0.108757 -1.11154 0
M  V30 11 S 2.89047 0.465468 -0.928722 0
M  V30 12 O 3.47689 0.613316 -2.32105 0
M  V30 13 O 2.85292 1.77273 -0.215647 0
M  V30 14 N 3.8811 -0.66774 -0.0873169 0
M  V30 15 H -3.50727 0.284735 0.431403 0
M  V30 16 H -2.98773 -1.16743 1.12653 0
M  V30 17 H -1.92435 -0.897953 -1.00588 0
M  V30 18 H -2.10035 1.22 -2.1032 0
M  V30 19 H -0.460726 0.653873 -2.51962 0
M  V30 20 H -0.768986 2.38864 -1.97507 0
M  V30 21 H -0.783532 2.12988 1.45336 0
M  V30 22 H -2.41518 2.00244 0.603161 0
M  V30 23 H -1.13646 3.06861 -0.00812459 0
M  V30 24 H 0.916426 0.87153 0.781081 0
M  V30 25 H -1.11309 -0.0574616 2.38427 0
M  V30 26 H -0.915478 -1.82108 2.37374 0
M  V30 27 H 0.596364 -0.765055 2.45545 0
M  V30 28 H -0.793402 -2.91518 0.599894 0
M  V30 29 H -0.324544 -2.31593 -1.00033 0
M  V30 30 H 0.938797 -2.60824 0.319783 0
M  V30 31 H 1.33982 -1.14725 -1.15731 0
M  V30 32 H 4.22999 -0.24201 0.818544 0
M  V30 33 H 4.7538 -0.907431 -0.617603 0
M  V30 END ATOM
M  V30 BEGIN BOND
M  V30 1 1 1 2
M  V30 2 1 2 3
M  V30 3 1 3 4
M  V30 4 1 3 5
M  V30 5 1 3 6
M  V30 6 1 6 7
M  V30 7 1 7 8
M  V30 8 1 7 9
M  V30 9 1 6 10
M  V30 10 1 10 11
M  V30 11 2 11 12
M  V30 12 2 11 13
M  V30 13 1 11 14
M  V30 14 1 7 2
M  V30 15 1 1 15
M  V30 16 1 1 16
M  V30 17 1 2 17
M  V30 18 1 4 18
M  V30 19 1 4 19
M  V30 20 1 4 20
M  V30 21 1 5 21
M  V30 22 1 5 22
M  V30 23 1 5 23
M  V30 24 1 6 24
M  V30 25 1 8 25
M  V30 26 1 8 26
M  V30 27 1 8 27
M  V30 28 1 9 28
M  V30 29 1 9 29
M  V30 30 1 9 30
M  V30 31 1 10 31
M  V30 32 1 14 32
M  V30 33 1 14 33
M  V30 END BOND
M  V30 END CTAB
M  END
