
     RDKit          3D

  0  0  0  0  0  0  0  0  0  0999 V3000
M  V30 BEGIN CTAB
M  V30 COUNTS 35 37 0 0 0
M  V30 BEGIN ATOM
M  V30 1 N 1.81942 -0.822428 1.96615 0
M  V30 2 C 2.68645 -0.216747 1.0282 0
M  V30 3 N 3.99455 0.0295616 1.13252 0
M  V30 4 N 4.42441 0.467627 -0.0294483 0
M  V30 5 C 3.43839 0.52491 -0.89537 0
M  V30 6 C 2.26338 0.0915348 -0.28497 0
M  V30 7 C 0.92324 0.13826 -0.826421 0 CFG=1
M  V30 8 C 0.595325 -1.08172 -1.65773 0
M  V30 9 C -0.861123 -1.12894 -1.97088 0
M  V30 10 C -1.6556 -1.15701 -0.722195 0
M  V30 11 C -1.30563 -0.199411 0.234749 0
M  V30 12 N -0.160452 0.649394 -0.0545255 0
M  V30 13 S -0.257805 2.28719 0.498489 0
M  V30 14 O -0.00718038 2.47815 1.93316 0
M  V30 15 O 0.93223 2.974 -0.208877 0
M  V30 16 N -1.63225 3.11108 -0.128355 0
M  V30 17 C -1.96062 -0.00944803 1.41185 0
M  V30 18 C -3.04477 -0.836823 1.64898 0
M  V30 19 C -3.41675 -1.8019 0.70558 0
M  V30 20 C -2.71769 -1.96371 -0.487502 0
M  V30 21 H 1.41943 -1.79035 1.74315 0
M  V30 22 H 1.56568 -0.379725 2.84477 0
M  V30 23 H 5.42788 0.74716 -0.266572 0
M  V30 24 H 3.49795 0.846132 -1.93642 0
M  V30 25 H 0.981816 0.950673 -1.68701 0
M  V30 26 H 0.76337 -1.96468 -0.918188 0
M  V30 27 H 1.29407 -1.2391 -2.47617 0
M  V30 28 H -1.12949 -1.97867 -2.64334 0
M  V30 29 H -1.14628 -0.156024 -2.48829 0
M  V30 30 H -1.74614 4.02335 0.352913 0
M  V30 31 H -2.48043 2.53183 -0.126772 0
M  V30 32 H -1.65848 0.752734 2.11952 0
M  V30 33 H -3.60368 -0.730581 2.56212 0
M  V30 34 H -4.24711 -2.4458 0.855584 0
M  V30 35 H -2.99612 -2.7005 -1.22872 0
M  V30 END ATOM
M  V30 BEGIN BOND
M  V30 1 1 1 2
M  V30 2 2 2 3
M  V30 3 1 3 4
M  V30 4 1 4 5
M  V30 5 2 5 6
M  V30 6 1 6 7
M  V30 7 1 7 8
M  V30 8 1 8 9
M  V30 9 1 9 10
M  V30 10 2 10 11
M  V30 11 1 11 12
M  V30 12 1 12 13
M  V30 13 2 13 14
M  V30 14 2 13 15
M  V30 15 1 13 16
M  V30 16 1 11 17
M  V30 17 2 17 18
M  V30 18 1 18 19
M  V30 19 2 19 20
M  V30 20 1 6 2
M  V30 21 1 12 7
M  V30 22 1 20 10
M  V30 23 1 1 21
M  V30 24 1 1 22
M  V30 25 1 4 23
M  V30 26 1 5 24
M  V30 27 1 7 25 CFG=3
M  V30 28 1 8 26
M  V30 29 1 8 27
M  V30 30 1 9 28
M  V30 31 1 9 29
M  V30 32 1 16 30
M  V30 33 1 16 31
M  V30 34 1 17 32
M  V30 35 1 18 33
M  V30 36 1 19 34
M  V30 37 1 20 35
M  V30 END BOND
M  V30 END CTAB
M  END
