
     RDKit          3D

  0  0  0  0  0  0  0  0  0  0999 V3000
M  V30 BEGIN CTAB
M  V30 COUNTS 49 50 0 0 0
M  V30 BEGIN ATOM
M  V30 1 O 1.74561 1.89738 0.7153 0
M  V30 2 C 1.40559 1.14441 -0.260523 0
M  V30 3 C 2.53006 0.666547 -1.10959 0
M  V30 4 C 3.43409 -0.215244 -0.282552 0
M  V30 5 C 4.6001 -0.740448 -1.07289 0
M  V30 6 C 5.15981 -1.92685 -0.28079 0
M  V30 7 O 5.16975 -1.61166 1.08781 0
M  V30 8 C 5.28637 -0.239171 1.29026 0
M  V30 9 C 3.98 0.48524 0.934829 0
M  V30 10 N 1.95396 -0.164804 -2.15248 0
M  V30 11 N 0.0548682 0.793696 -0.510617 0
M  V30 12 C -0.950195 1.3154 0.378155 0
M  V30 13 C -2.34451 0.864087 -0.00252293 0
M  V30 14 N -2.70722 1.29052 -1.33237 0
M  V30 15 C -3.26743 1.49833 1.04314 0
M  V30 16 C -4.67907 0.978147 0.921471 0
M  V30 17 C -4.88989 -0.29856 1.66647 0
M  V30 18 C -4.55285 -1.53135 0.870863 0
M  V30 19 C -3.67163 -1.24101 -0.320221 0
M  V30 20 C -2.37179 -0.634478 0.119223 0
M  V30 21 H 3.09318 1.48639 -1.57236 0
M  V30 22 H 2.85075 -1.08987 0.0731618 0
M  V30 23 H 4.30546 -1.14384 -2.06389 0
M  V30 24 H 5.39877 0.00807494 -1.23074 0
M  V30 25 H 6.17768 -2.17815 -0.579929 0
M  V30 26 H 4.50577 -2.8127 -0.391737 0
M  V30 27 H 6.1292 0.12603 0.672125 0
M  V30 28 H 5.55338 -0.0596247 2.34265 0
M  V30 29 H 4.18585 1.54533 0.712362 0
M  V30 30 H 3.31705 0.338348 1.80191 0
M  V30 31 H 2.50358 -0.107104 -3.02942 0
M  V30 32 H 1.94842 -1.15304 -1.84154 0
M  V30 33 H -0.132265 0.181255 -1.31964 0
M  V30 34 H -0.79356 1.02367 1.4336 0
M  V30 35 H -0.950907 2.43938 0.285062 0
M  V30 36 H -2.73877 0.485015 -1.99449 0
M  V30 37 H -3.63969 1.7581 -1.37821 0
M  V30 38 H -3.19121 2.58841 0.982414 0
M  V30 39 H -2.86836 1.19226 2.03327 0
M  V30 40 H -5.3347 1.75135 1.40366 0
M  V30 41 H -5.02926 0.929089 -0.135967 0
M  V30 42 H -4.25113 -0.260998 2.58857 0
M  V30 43 H -5.9439 -0.327936 2.0158 0
M  V30 44 H -5.5281 -1.94753 0.503426 0
M  V30 45 H -4.05023 -2.31415 1.4758 0
M  V30 46 H -4.18699 -0.654615 -1.10713 0
M  V30 47 H -3.43424 -2.22556 -0.78281 0
M  V30 48 H -2.2469 -0.868148 1.20864 0
M  V30 49 H -1.5345 -1.03964 -0.48053 0
M  V30 END ATOM
M  V30 BEGIN BOND
M  V30 1 2 1 2
M  V30 2 1 2 3
M  V30 3 1 3 4
M  V30 4 1 4 5
M  V30 5 1 5 6
M  V30 6 1 6 7
M  V30 7 1 7 8
M  V30 8 1 8 9
M  V30 9 1 3 10
M  V30 10 1 2 11
M  V30 11 1 11 12
M  V30 12 1 12 13
M  V30 13 1 13 14
M  V30 14 1 13 15
M  V30 15 1 15 16
M  V30 16 1 16 17
M  V30 17 1 17 18
M  V30 18 1 18 19
M  V30 19 1 19 20
M  V30 20 1 9 4
M  V30 21 1 20 13
M  V30 22 1 3 21
M  V30 23 1 4 22
M  V30 24 1 5 23
M  V30 25 1 5 24
M  V30 26 1 6 25
M  V30 27 1 6 26
M  V30 28 1 8 27
M  V30 29 1 8 28
M  V30 30 1 9 29
M  V30 31 1 9 30
M  V30 32 1 10 31
M  V30 33 1 10 32
M  V30 34 1 11 33
M  V30 35 1 12 34
M  V30 36 1 12 35
M  V30 37 1 14 36
M  V30 38 1 14 37
M  V30 39 1 15 38
M  V30 40 1 15 39
M  V30 41 1 16 40
M  V30 42 1 16 41
M  V30 43 1 17 42
M  V30 44 1 17 43
M  V30 45 1 18 44
M  V30 46 1 18 45
M  V30 47 1 19 46
M  V30 48 1 19 47
M  V30 49 1 20 48
M  V30 50 1 20 49
M  V30 END BOND
M  V30 END CTAB
M  END
