
     RDKit          3D

  0  0  0  0  0  0  0  0  0  0999 V3000
M  V30 BEGIN CTAB
M  V30 COUNTS 52 55 0 0 0
M  V30 BEGIN ATOM
M  V30 1 C 6.21781 -1.76005 -0.661251 0
M  V30 2 C 6.30766 -0.40942 0.0139746 0
M  V30 3 C 7.14916 -0.46324 1.26128 0
M  V30 4 N 5.05473 0.255005 0.161429 0
M  V30 5 C 4.46119 0.557188 -1.13376 0
M  V30 6 C 3.42295 1.65237 -0.846859 0
M  V30 7 N 2.44103 1.04544 0.0292855 0
M  V30 8 C 2.96661 0.601554 1.3164 0
M  V30 9 C 4.10545 -0.3884 1.02078 0
M  V30 10 C 1.08205 0.890391 -0.351885 0
M  V30 11 C 0.0936282 0.645078 0.586132 0
M  V30 12 C -1.23883 0.480024 0.23136 0
M  V30 13 C -1.62281 0.556419 -1.08094 0
M  V30 14 N -2.94303 0.364907 -1.15003 0
M  V30 15 C -3.3986 0.169707 0.0883733 0
M  V30 16 N -2.36733 0.239172 0.92574 0
M  V30 17 C -4.81711 -0.072737 0.392767 0
M  V30 18 C -5.77745 -0.107798 -0.590124 0
M  V30 19 C -7.11761 -0.337183 -0.309856 0
M  V30 20 N -8.10325 -0.370866 -1.33424 0
M  V30 21 C -7.52978 -0.539753 0.984254 0
M  V30 22 N -8.87804 -0.781184 1.36067 0
M  V30 23 C -6.56467 -0.504388 1.97097 0
M  V30 24 C -5.23173 -0.276578 1.69594 0
M  V30 25 C -0.664449 0.799648 -2.04405 0
M  V30 26 C 0.671325 0.962606 -1.66574 0
M  V30 27 H 7.08249 -1.92844 -1.33834 0
M  V30 28 H 6.29447 -2.5842 0.107678 0
M  V30 29 H 5.3084 -1.90036 -1.25019 0
M  V30 30 H 6.90745 0.227164 -0.709353 0
M  V30 31 H 7.59615 -1.47804 1.40162 0
M  V30 32 H 7.96905 0.305484 1.26705 0
M  V30 33 H 6.51885 -0.239095 2.13365 0
M  V30 34 H 5.24394 0.893513 -1.81197 0
M  V30 35 H 3.98267 -0.350203 -1.51569 0
M  V30 36 H 2.98729 2.07677 -1.74856 0
M  V30 37 H 3.93569 2.42617 -0.229784 0
M  V30 38 H 3.3544 1.47749 1.86323 0
M  V30 39 H 2.22107 0.0947584 1.94793 0
M  V30 40 H 3.6129 -1.26475 0.552934 0
M  V30 41 H 4.54375 -0.631984 1.98509 0
M  V30 42 H 0.327296 0.578469 1.62325 0
M  V30 43 H -3.52435 0.368862 -2.04372 0
M  V30 44 H -5.48895 0.0471055 -1.61462 0
M  V30 45 H -8.83719 -1.08159 -1.43555 0
M  V30 46 H -8.07137 0.404163 -2.04782 0
M  V30 47 H -9.11001 -1.40814 2.15284 0
M  V30 48 H -9.67996 -0.340783 0.858833 0
M  V30 49 H -6.86868 -0.662156 3.00005 0
M  V30 50 H -4.45872 -0.24443 2.45022 0
M  V30 51 H -0.962303 0.860352 -3.07601 0
M  V30 52 H 1.39676 1.14598 -2.44634 0
M  V30 END ATOM
M  V30 BEGIN BOND
M  V30 1 1 1 2
M  V30 2 1 2 3
M  V30 3 1 2 4
M  V30 4 1 4 5
M  V30 5 1 5 6
M  V30 6 1 6 7
M  V30 7 1 7 8
M  V30 8 1 8 9
M  V30 9 1 7 10
M  V30 10 2 10 11
M  V30 11 1 11 12
M  V30 12 2 12 13
M  V30 13 1 13 14
M  V30 14 1 14 15
M  V30 15 2 15 16
M  V30 16 1 15 17
M  V30 17 2 17 18
M  V30 18 1 18 19
M  V30 19 1 19 20
M  V30 20 2 19 21
M  V30 21 1 21 22
M  V30 22 1 21 23
M  V30 23 2 23 24
M  V30 24 1 13 25
M  V30 25 2 25 26
M  V30 26 1 9 4
M  V30 27 1 26 10
M  V30 28 1 16 12
M  V30 29 1 24 17
M  V30 30 1 1 27
M  V30 31 1 1 28
M  V30 32 1 1 29
M  V30 33 1 2 30
M  V30 34 1 3 31
M  V30 35 1 3 32
M  V30 36 1 3 33
M  V30 37 1 5 34
M  V30 38 1 5 35
M  V30 39 1 6 36
M  V30 40 1 6 37
M  V30 41 1 8 38
M  V30 42 1 8 39
M  V30 43 1 9 40
M  V30 44 1 9 41
M  V30 45 1 11 42
M  V30 46 1 14 43
M  V30 47 1 18 44
M  V30 48 1 20 45
M  V30 49 1 20 46
M  V30 50 1 22 47
M  V30 51 1 22 48
M  V30 52 1 23 49
M  V30 53 1 24 50
M  V30 54 1 25 51
M  V30 55 1 26 52
M  V30 END BOND
M  V30 END CTAB
M  END
