
     RDKit          3D

  0  0  0  0  0  0  0  0  0  0999 V3000
M  V30 BEGIN CTAB
M  V30 COUNTS 30 31 0 0 0
M  V30 BEGIN ATOM
M  V30 1 N 5.19712 -0.303349 0.749052 0
M  V30 2 C 3.82286 -0.542498 0.510786 0
M  V30 3 C 3.20917 -1.56409 1.19575 0
M  V30 4 C 1.87436 -1.79394 0.962744 0
M  V30 5 C 1.16832 -0.998381 0.046334 0
M  V30 6 C 1.7865 0.0246282 -0.639495 0
M  V30 7 C 3.14004 0.239851 -0.387202 0
M  V30 8 N 1.09066 0.826675 -1.58888 0
M  V30 9 O -0.176352 -1.23497 -0.186475 0
M  V30 10 C -1.1886 -0.330118 0.100396 0
M  V30 11 C -1.00802 0.837632 0.814209 0
M  V30 12 C -2.04278 1.70944 1.07475 0
M  V30 13 C -3.31998 1.44787 0.627296 0
M  V30 14 C -3.53389 0.289596 -0.0883726 0
M  V30 15 C -2.49471 -0.573655 -0.34318 0
M  V30 16 C -4.89548 -0.0456429 -0.597606 0
M  V30 17 H 5.86423 -1.08477 0.530586 0
M  V30 18 H 5.56947 0.608094 1.1288 0
M  V30 19 H 3.76479 -2.18893 1.91585 0
M  V30 20 H 1.33453 -2.58283 1.47036 0
M  V30 21 H 3.61213 1.05327 -0.937929 0
M  V30 22 H 1.2766 1.85222 -1.6305 0
M  V30 23 H 0.389252 0.450995 -2.26378 0
M  V30 24 H -0.0117327 1.07669 1.19318 0
M  V30 25 H -1.89759 2.62611 1.63554 0
M  V30 26 H -4.16377 2.09697 0.804204 0
M  V30 27 H -2.62719 -1.50092 -0.907105 0
M  V30 28 H -5.64276 0.46996 0.0396543 0
M  V30 29 H -4.99754 0.269055 -1.67062 0
M  V30 30 H -5.09963 -1.13495 -0.567615 0
M  V30 END ATOM
M  V30 BEGIN BOND
M  V30 1 1 1 2
M  V30 2 2 2 3
M  V30 3 1 3 4
M  V30 4 2 4 5
M  V30 5 1 5 6
M  V30 6 2 6 7
M  V30 7 1 6 8
M  V30 8 1 5 9
M  V30 9 1 9 10
M  V30 10 2 10 11
M  V30 11 1 11 12
M  V30 12 2 12 13
M  V30 13 1 13 14
M  V30 14 2 14 15
M  V30 15 1 14 16
M  V30 16 1 7 2
M  V30 17 1 15 10
M  V30 18 1 1 17
M  V30 19 1 1 18
M  V30 20 1 3 19
M  V30 21 1 4 20
M  V30 22 1 7 21
M  V30 23 1 8 22
M  V30 24 1 8 23
M  V30 25 1 11 24
M  V30 26 1 12 25
M  V30 27 1 13 26
M  V30 28 1 15 27
M  V30 29 1 16 28
M  V30 30 1 16 29
M  V30 31 1 16 30
M  V30 END BOND
M  V30 END CTAB
M  END
