
     RDKit          3D

  0  0  0  0  0  0  0  0  0  0999 V3000
M  V30 BEGIN CTAB
M  V30 COUNTS 23 23 0 0 0
M  V30 BEGIN ATOM
M  V30 1 C 3.95342 0.22326 -0.140142 0
M  V30 2 O 2.98568 -0.766159 -0.101671 0
M  V30 3 C 1.62329 -0.574674 -0.0113445 0
M  V30 4 C 0.752563 -1.64517 0.0195233 0
M  V30 5 C -0.624728 -1.47179 0.110354 0
M  V30 6 C -1.1729 -0.211301 0.173318 0
M  V30 7 C -2.64264 -0.00381365 0.27076 0
M  V30 8 N -3.34239 -1.26512 0.286553 0
M  V30 9 C -0.323652 0.87301 0.144114 0
M  V30 10 N -0.840688 2.20813 0.206783 0
M  V30 11 C 1.05837 0.682697 0.0525951 0
M  V30 12 H 4.94812 -0.0993389 0.220253 0
M  V30 13 H 3.6824 1.15032 0.444921 0
M  V30 14 H 4.06436 0.574045 -1.18738 0
M  V30 15 H 1.20394 -2.63922 -0.031333 0
M  V30 16 H -1.27596 -2.32825 0.132188 0
M  V30 17 H -2.88557 0.570631 1.18214 0
M  V30 18 H -3.03435 0.586098 -0.588141 0
M  V30 19 H -3.52318 -1.6012 -0.68283 0
M  V30 20 H -4.24529 -1.21846 0.817003 0
M  V30 21 H -1.65697 2.41463 0.826074 0
M  V30 22 H -0.432666 2.99682 -0.346871 0
M  V30 23 H 1.72883 1.54485 0.0294356 0
M  V30 END ATOM
M  V30 BEGIN BOND
M  V30 1 1 1 2
M  V30 2 1 2 3
M  V30 3 2 3 4
M  V30 4 1 4 5
M  V30 5 2 5 6
M  V30 6 1 6 7
M  V30 7 1 7 8
M  V30 8 1 6 9
M  V30 9 1 9 10
M  V30 10 2 9 11
M  V30 11 1 11 3
M  V30 12 1 1 12
M  V30 13 1 1 13
M  V30 14 1 1 14
M  V30 15 1 4 15
M  V30 16 1 5 16
M  V30 17 1 7 17
M  V30 18 1 7 18
M  V30 19 1 8 19
M  V30 20 1 8 20
M  V30 21 1 10 21
M  V30 22 1 10 22
M  V30 23 1 11 23
M  V30 END BOND
M  V30 END CTAB
M  END
