
     RDKit          3D

  0  0  0  0  0  0  0  0  0  0999 V3000
M  V30 BEGIN CTAB
M  V30 COUNTS 24 23 0 0 0
M  V30 BEGIN ATOM
M  V30 1 C 4.19255 0.379911 -0.70205 0
M  V30 2 C 2.81766 -0.0257432 -0.294663 0
M  V30 3 C 2.02504 0.827753 0.318644 0
M  V30 4 C 0.644858 0.538857 0.768428 0
M  V30 5 C 0.190117 -0.857132 0.464375 0
M  V30 6 N -1.1437 -1.0702 0.934232 0
M  V30 7 C -2.3272 -0.497513 0.441993 0
M  V30 8 N -2.48862 0.767699 0.465828 0
M  V30 9 N -3.63599 1.38299 -0.00558857 0
M  V30 10 N -3.35443 -1.31478 -0.0807639 0
M  V30 11 H 4.23873 0.405597 -1.8099 0
M  V30 12 H 4.91224 -0.376672 -0.332446 0
M  V30 13 H 4.41797 1.39389 -0.296567 0
M  V30 14 H 2.46457 -1.0204 -0.502081 0
M  V30 15 H 2.40333 1.8256 0.515312 0
M  V30 16 H -0.000703187 1.2328 0.150861 0
M  V30 17 H 0.4777 0.82556 1.82136 0
M  V30 18 H 0.269718 -0.974044 -0.644388 0
M  V30 19 H 0.852434 -1.62546 0.923274 0
M  V30 20 H -1.27988 -1.73661 1.75349 0
M  V30 21 H -3.59662 2.28456 -0.524834 0
M  V30 22 H -4.55073 0.912778 0.175189 0
M  V30 23 H -3.53323 -1.46627 -1.09598 0
M  V30 24 H -3.99581 -1.81318 0.578918 0
M  V30 END ATOM
M  V30 BEGIN BOND
M  V30 1 1 1 2
M  V30 2 2 2 3
M  V30 3 1 3 4
M  V30 4 1 4 5
M  V30 5 1 5 6
M  V30 6 1 6 7
M  V30 7 2 7 8
M  V30 8 1 8 9
M  V30 9 1 7 10
M  V30 10 1 1 11
M  V30 11 1 1 12
M  V30 12 1 1 13
M  V30 13 1 2 14
M  V30 14 1 3 15
M  V30 15 1 4 16
M  V30 16 1 4 17
M  V30 17 1 5 18
M  V30 18 1 5 19
M  V30 19 1 6 20
M  V30 20 1 9 21
M  V30 21 1 9 22
M  V30 22 1 10 23
M  V30 23 1 10 24
M  V30 END BOND
M  V30 END CTAB
M  END
