
     RDKit          3D

  0  0  0  0  0  0  0  0  0  0999 V3000
M  V30 BEGIN CTAB
M  V30 COUNTS 55 58 0 0 0
M  V30 BEGIN ATOM
M  V30 1 N -3.87447 4.28901 0.864691 0
M  V30 2 C -2.83801 3.33471 0.732196 0
M  V30 3 N -2.99601 2.11082 0.237503 0
M  V30 4 C -2.05299 1.18071 0.0905777 0
M  V30 5 C -2.2176 -0.160419 -0.47349 0
M  V30 6 O -3.48251 -0.51132 -0.828988 0
M  V30 7 C -4.41272 -0.618034 0.176329 0
M  V30 8 C -5.70868 -1.08066 -0.448689 0
M  V30 9 C -5.77631 -1.42075 -1.77978 0
M  V30 10 C -6.93428 -1.85315 -2.38195 0
M  V30 11 C -8.07384 -1.94567 -1.60152 0
M  V30 12 C -8.05759 -1.61659 -0.264765 0
M  V30 13 C -6.86041 -1.183 0.299755 0
M  V30 14 C -0.769733 1.52707 0.496937 0
M  V30 15 C -0.573864 2.79902 1.01736 0
M  V30 16 N 0.733648 3.21004 1.4501 0
M  V30 17 N -1.58229 3.6545 1.12229 0
M  V30 18 C 0.382738 0.668332 0.399403 0
M  V30 19 C 0.564965 -0.45864 1.15443 0
M  V30 20 C 1.69618 -1.2159 1.03493 0
M  V30 21 C 2.69097 -0.87146 0.152907 0
M  V30 22 N 3.86223 -1.69605 0.0120113 0
M  V30 23 C 5.15018 -1.11115 -0.0699178 0
M  V30 24 O 5.25682 0.126204 -0.00244935 0
M  V30 25 C 6.33423 -1.99798 -0.232866 0
M  V30 26 C 7.59621 -1.14807 -0.175259 0
M  V30 27 C 8.31529 -1.05792 0.993596 0
M  V30 28 S 9.58999 -0.0135998 0.576504 0
M  V30 29 C 9.18689 0.282523 -1.05556 0
M  V30 30 C 8.04638 -0.458656 -1.22469 0
M  V30 31 C 2.52861 0.25582 -0.615198 0
M  V30 32 C 1.38083 1.03959 -0.506812 0
M  V30 33 H -4.79274 4.16958 0.35314 0
M  V30 34 H -3.7923 5.13838 1.45808 0
M  V30 35 H -1.58075 -0.252187 -1.39435 0
M  V30 36 H -1.86976 -0.951174 0.249099 0
M  V30 37 H -4.11093 -1.41163 0.908998 0
M  V30 38 H -4.59453 0.334008 0.658067 0
M  V30 39 H -4.87898 -1.3364 -2.35103 0
M  V30 40 H -7.02169 -2.12741 -3.41956 0
M  V30 41 H -9.00048 -2.27923 -2.02968 0
M  V30 42 H -8.94926 -1.69795 0.311857 0
M  V30 43 H -6.86692 -0.9296 1.34373 0
M  V30 44 H 1.15827 2.84149 2.3213 0
M  V30 45 H 1.27495 3.90597 0.860533 0
M  V30 46 H -0.173818 -0.780761 1.87072 0
M  V30 47 H 1.85222 -2.12594 1.63965 0
M  V30 48 H 3.71153 -2.73161 -0.0277107 0
M  V30 49 H 6.34883 -2.77611 0.521882 0
M  V30 50 H 6.2961 -2.45522 -1.23393 0
M  V30 51 H 8.09201 -1.55584 1.95376 0
M  V30 52 H 9.69789 0.911148 -1.80652 0
M  V30 53 H 7.55065 -0.448162 -2.22604 0
M  V30 54 H 3.28913 0.575386 -1.34268 0
M  V30 55 H 1.25571 1.92394 -1.11219 0
M  V30 END ATOM
M  V30 BEGIN BOND
M  V30 1 1 1 2
M  V30 2 2 2 3
M  V30 3 1 3 4
M  V30 4 1 4 5
M  V30 5 1 5 6
M  V30 6 1 6 7
M  V30 7 1 7 8
M  V30 8 2 8 9
M  V30 9 1 9 10
M  V30 10 2 10 11
M  V30 11 1 11 12
M  V30 12 2 12 13
M  V30 13 2 4 14
M  V30 14 1 14 15
M  V30 15 1 15 16
M  V30 16 2 15 17
M  V30 17 1 14 18
M  V30 18 2 18 19
M  V30 19 1 19 20
M  V30 20 2 20 21
M  V30 21 1 21 22
M  V30 22 1 22 23
M  V30 23 2 23 24
M  V30 24 1 23 25
M  V30 25 1 25 26
M  V30 26 2 26 27
M  V30 27 1 27 28
M  V30 28 1 28 29
M  V30 29 2 29 30
M  V30 30 1 21 31
M  V30 31 2 31 32
M  V30 32 1 17 2
M  V30 33 1 32 18
M  V30 34 1 13 8
M  V30 35 1 30 26
M  V30 36 1 1 33
M  V30 37 1 1 34
M  V30 38 1 5 35
M  V30 39 1 5 36
M  V30 40 1 7 37
M  V30 41 1 7 38
M  V30 42 1 9 39
M  V30 43 1 10 40
M  V30 44 1 11 41
M  V30 45 1 12 42
M  V30 46 1 13 43
M  V30 47 1 16 44
M  V30 48 1 16 45
M  V30 49 1 19 46
M  V30 50 1 20 47
M  V30 51 1 22 48
M  V30 52 1 25 49
M  V30 53 1 25 50
M  V30 54 1 27 51
M  V30 55 1 29 52
M  V30 56 1 30 53
M  V30 57 1 31 54
M  V30 58 1 32 55
M  V30 END BOND
M  V30 END CTAB
M  END
