
     RDKit          3D

  0  0  0  0  0  0  0  0  0  0999 V3000
M  V30 BEGIN CTAB
M  V30 COUNTS 33 35 0 0 0
M  V30 BEGIN ATOM
M  V30 1 N -3.87885 2.58328 -0.951556 0
M  V30 2 C -3.13943 1.48219 -0.420303 0
M  V30 3 C -2.71511 1.51069 0.880259 0
M  V30 4 C -1.99457 0.449788 1.41739 0
M  V30 5 N -1.57336 0.516217 2.76455 0
M  V30 6 N -1.73909 -0.587228 0.61157 0
M  V30 7 C -2.1458 -0.632662 -0.662858 0
M  V30 8 N -2.8387 0.401092 -1.1585 0
M  V30 9 S -1.75345 -2.04581 -1.63677 0
M  V30 10 C -0.180842 -1.90445 -2.5 0
M  V30 11 C 0.972659 -1.86728 -1.56733 0
M  V30 12 O 1.94054 -2.73621 -1.52845 0
M  V30 13 N 2.8042 -2.42903 -0.599473 0
M  V30 14 C 2.36132 -1.30345 -0.0158395 0
M  V30 15 N 1.21631 -0.948527 -0.617806 0
M  V30 16 C 3.01303 -0.575312 1.09555 0
M  V30 17 C 2.54795 0.570245 1.67653 0
M  V30 18 C 3.44741 0.910733 2.66208 0
M  V30 19 C 4.40553 -0.0705706 2.60287 0
M  V30 20 O 4.11171 -0.923938 1.66855 0
M  V30 21 C -0.217882 -0.666282 -3.38233 0
M  V30 22 H -4.89818 2.49108 -1.14744 0
M  V30 23 H -3.43363 3.50795 -1.16065 0
M  V30 24 H -2.95172 2.38443 1.49576 0
M  V30 25 H -1.95918 -0.150914 3.44718 0
M  V30 26 H -0.887743 1.22698 3.05262 0
M  V30 27 H -0.098638 -2.77976 -3.17546 0
M  V30 28 H 1.63319 1.12665 1.41883 0
M  V30 29 H 3.38452 1.77888 3.32934 0
M  V30 30 H 5.29013 -0.104041 3.26821 0
M  V30 31 H -0.917798 -0.921423 -4.22365 0
M  V30 32 H 0.777092 -0.487209 -3.8252 0
M  V30 33 H -0.581634 0.193871 -2.81766 0
M  V30 END ATOM
M  V30 BEGIN BOND
M  V30 1 1 1 2
M  V30 2 2 2 3
M  V30 3 1 3 4
M  V30 4 1 4 5
M  V30 5 2 4 6
M  V30 6 1 6 7
M  V30 7 2 7 8
M  V30 8 1 7 9
M  V30 9 1 9 10
M  V30 10 1 10 11
M  V30 11 1 11 12
M  V30 12 1 12 13
M  V30 13 2 13 14
M  V30 14 1 14 15
M  V30 15 1 14 16
M  V30 16 2 16 17
M  V30 17 1 17 18
M  V30 18 2 18 19
M  V30 19 1 19 20
M  V30 20 1 10 21
M  V30 21 1 8 2
M  V30 22 2 15 11
M  V30 23 1 20 16
M  V30 24 1 1 22
M  V30 25 1 1 23
M  V30 26 1 3 24
M  V30 27 1 5 25
M  V30 28 1 5 26
M  V30 29 1 10 27
M  V30 30 1 17 28
M  V30 31 1 18 29
M  V30 32 1 19 30
M  V30 33 1 21 31
M  V30 34 1 21 32
M  V30 35 1 21 33
M  V30 END BOND
M  V30 END CTAB
M  END
