
     RDKit          3D

  0  0  0  0  0  0  0  0  0  0999 V3000
M  V30 BEGIN CTAB
M  V30 COUNTS 55 57 0 0 0
M  V30 BEGIN ATOM
M  V30 1 O -3.39749 -0.580622 -3.38753 0
M  V30 2 C -2.97112 -0.155628 -2.27159 0
M  V30 3 C -3.89461 0.133401 -1.14836 0
M  V30 4 C -3.79752 -0.947846 -0.104809 0
M  V30 5 C -4.724 -0.71962 1.04089 0
M  V30 6 C -4.43834 -1.31546 2.26163 0
M  V30 7 C -5.24845 -1.16173 3.36528 0
M  V30 8 C -6.38154 -0.393613 3.26491 0
M  V30 9 C -6.68366 0.20666 2.06212 0
M  V30 10 C -5.8586 0.0420012 0.961628 0
M  V30 11 N -2.45659 -0.892922 0.503425 0
M  V30 12 C -3.43101 1.47449 -0.575519 0
M  V30 13 N -1.57955 0.031282 -2.13667 0
M  V30 14 C -0.684147 -0.270156 -3.26028 0
M  V30 15 C 0.722218 0.0133373 -2.8142 0
M  V30 16 C 1.05071 -0.886088 -1.64672 0
M  V30 17 C 2.46123 -0.628253 -1.17819 0
M  V30 18 C 3.58651 -1.28122 -1.64663 0
M  V30 19 C 4.63872 -0.730423 -0.945484 0
M  V30 20 N 4.1782 0.208582 -0.0948302 0
M  V30 21 N 2.86518 0.253531 -0.251497 0
M  V30 22 C 5.00481 0.969996 0.778427 0
M  V30 23 C 5.09235 0.623769 2.11054 0
M  V30 24 C 5.86991 1.31188 3.01359 0
M  V30 25 C 6.58689 2.38858 2.56211 0
M  V30 26 C 6.53228 2.77558 1.23447 0
M  V30 27 C 5.73999 2.05953 0.357579 0
M  V30 28 N 6.00389 -1.10072 -1.10003 0
M  V30 29 H -4.89803 0.244729 -1.56888 0
M  V30 30 H -3.89843 -1.9661 -0.517372 0
M  V30 31 H -3.54175 -1.93547 2.37749 0
M  V30 32 H -5.02683 -1.62843 4.32554 0
M  V30 33 H -7.02991 -0.268065 4.14117 0
M  V30 34 H -7.56959 0.814997 1.96064 0
M  V30 35 H -6.12614 0.521192 0.0276658 0
M  V30 36 H -2.15214 -1.85224 0.780049 0
M  V30 37 H -2.4499 -0.308044 1.36113 0
M  V30 38 H -3.07279 2.09225 -1.44889 0
M  V30 39 H -2.58028 1.29203 0.0799766 0
M  V30 40 H -4.25968 1.96947 -0.059353 0
M  V30 41 H -1.21087 0.398478 -1.24117 0
M  V30 42 H -0.760572 -1.3785 -3.3956 0
M  V30 43 H -0.979976 0.284614 -4.16177 0
M  V30 44 H 0.751486 1.08535 -2.48621 0
M  V30 45 H 1.4619 -0.126908 -3.62963 0
M  V30 46 H 0.990271 -1.95258 -1.91592 0
M  V30 47 H 0.395855 -0.682593 -0.794159 0
M  V30 48 H 3.64062 -2.04995 -2.39242 0
M  V30 49 H 4.5256 -0.232588 2.48269 0
M  V30 50 H 5.9519 1.05649 4.06119 0
M  V30 51 H 7.2059 2.94691 3.25043 0
M  V30 52 H 7.07519 3.61116 0.833713 0
M  V30 53 H 5.69328 2.35714 -0.681045 0
M  V30 54 H 6.67722 -1.10524 -0.309065 0
M  V30 55 H 6.40139 -1.39122 -2.03445 0
M  V30 END ATOM
M  V30 BEGIN BOND
M  V30 1 2 1 2
M  V30 2 1 2 3
M  V30 3 1 3 4
M  V30 4 1 4 5
M  V30 5 2 5 6
M  V30 6 1 6 7
M  V30 7 2 7 8
M  V30 8 1 8 9
M  V30 9 2 9 10
M  V30 10 1 4 11
M  V30 11 1 3 12
M  V30 12 1 2 13
M  V30 13 1 13 14
M  V30 14 1 14 15
M  V30 15 1 15 16
M  V30 16 1 16 17
M  V30 17 1 17 18
M  V30 18 2 18 19
M  V30 19 1 19 20
M  V30 20 1 20 21
M  V30 21 1 20 22
M  V30 22 2 22 23
M  V30 23 1 23 24
M  V30 24 2 24 25
M  V30 25 1 25 26
M  V30 26 2 26 27
M  V30 27 1 19 28
M  V30 28 1 10 5
M  V30 29 2 21 17
M  V30 30 1 27 22
M  V30 31 1 3 29
M  V30 32 1 4 30
M  V30 33 1 6 31
M  V30 34 1 7 32
M  V30 35 1 8 33
M  V30 36 1 9 34
M  V30 37 1 10 35
M  V30 38 1 11 36
M  V30 39 1 11 37
M  V30 40 1 12 38
M  V30 41 1 12 39
M  V30 42 1 12 40
M  V30 43 1 13 41
M  V30 44 1 14 42
M  V30 45 1 14 43
M  V30 46 1 15 44
M  V30 47 1 15 45
M  V30 48 1 16 46
M  V30 49 1 16 47
M  V30 50 1 18 48
M  V30 51 1 23 49
M  V30 52 1 24 50
M  V30 53 1 25 51
M  V30 54 1 26 52
M  V30 55 1 27 53
M  V30 56 1 28 54
M  V30 57 1 28 55
M  V30 END BOND
M  V30 END CTAB
M  END
