
     RDKit          3D

  0  0  0  0  0  0  0  0  0  0999 V3000
M  V30 BEGIN CTAB
M  V30 COUNTS 28 28 0 0 0
M  V30 BEGIN ATOM
M  V30 1 N 1.36651 -0.396756 2.11232 0
M  V30 2 C 0.636047 -0.302926 0.910598 0
M  V30 3 C -0.713187 0.0137883 0.847567 0
M  V30 4 C -1.36542 0.0885398 -0.360887 0
M  V30 5 C -0.705266 -0.146594 -1.53542 0
M  V30 6 C 0.648809 -0.465717 -1.49128 0
M  V30 7 C 1.29757 -0.539184 -0.275961 0
M  V30 8 S 2.98534 -0.938801 -0.249857 0
M  V30 9 O 3.52558 -1.11881 -1.63645 0
M  V30 10 O 3.24573 -2.22072 0.495906 0
M  V30 11 C 3.86463 0.409138 0.506578 0
M  V30 12 N -1.42577 -0.0561914 -2.75327 0
M  V30 13 S -3.0631 0.489389 -0.404642 0
M  V30 14 O -3.28964 1.79473 -1.15409 0
M  V30 15 O -3.86846 -0.548438 -1.09739 0
M  V30 16 C -3.66414 0.742189 1.24318 0
M  V30 17 H 1.94022 0.359566 2.53066 0
M  V30 18 H 1.31486 -1.32708 2.62055 0
M  V30 19 H -1.23955 0.201078 1.78157 0
M  V30 20 H 1.15693 -0.649409 -2.43601 0
M  V30 21 H 4.2968 0.117254 1.47956 0
M  V30 22 H 4.66526 0.80904 -0.173427 0
M  V30 23 H 3.19308 1.28494 0.697475 0
M  V30 24 H -1.07983 0.607967 -3.47421 0
M  V30 25 H -2.2772 -0.601099 -2.98982 0
M  V30 26 H -4.77469 0.818217 1.21513 0
M  V30 27 H -3.29433 1.68286 1.6883 0
M  V30 28 H -3.37679 -0.10698 1.90331 0
M  V30 END ATOM
M  V30 BEGIN BOND
M  V30 1 1 1 2
M  V30 2 2 2 3
M  V30 3 1 3 4
M  V30 4 2 4 5
M  V30 5 1 5 6
M  V30 6 2 6 7
M  V30 7 1 7 8
M  V30 8 2 8 9
M  V30 9 2 8 10
M  V30 10 1 8 11
M  V30 11 1 5 12
M  V30 12 1 4 13
M  V30 13 2 13 14
M  V30 14 2 13 15
M  V30 15 1 13 16
M  V30 16 1 7 2
M  V30 17 1 1 17
M  V30 18 1 1 18
M  V30 19 1 3 19
M  V30 20 1 6 20
M  V30 21 1 11 21
M  V30 22 1 11 22
M  V30 23 1 11 23
M  V30 24 1 12 24
M  V30 25 1 12 25
M  V30 26 1 16 26
M  V30 27 1 16 27
M  V30 28 1 16 28
M  V30 END BOND
M  V30 END CTAB
M  END
