
     RDKit          3D

  0  0  0  0  0  0  0  0  0  0999 V3000
M  V30 BEGIN CTAB
M  V30 COUNTS 38 39 0 0 0
M  V30 BEGIN ATOM
M  V30 1 O -3.6022 1.5218 0.464135 0
M  V30 2 C -2.5368 2.14007 0.391276 0
M  V30 3 C -2.58599 3.6039 0.687565 0
M  V30 4 F -1.79187 3.90909 1.77673 0
M  V30 5 F -1.96032 4.2489 -0.391913 0
M  V30 6 F -3.86154 4.07043 0.845894 0
M  V30 7 N -1.33395 1.5229 0.0486604 0
M  V30 8 C -1.14058 0.114586 -0.261073 0
M  V30 9 C -1.52375 -0.667541 0.965689 0
M  V30 10 C -1.55421 -2.15591 0.752539 0
M  V30 11 C -2.00499 -2.60296 -0.59473 0
M  V30 12 C -2.81848 -1.50149 -1.2076 0
M  V30 13 C -1.95465 -0.244664 -1.41766 0
M  V30 14 C 0.352435 -0.0467497 -0.529446 0
M  V30 15 C 0.890652 -0.373699 -1.73743 0
M  V30 16 S 2.5742 -0.37803 -1.37352 0
M  V30 17 C 2.46883 0.0335877 0.276011 0
M  V30 18 N 1.17693 0.1526 0.468072 0
M  V30 19 N 3.53663 0.204212 1.23488 0
M  V30 20 C 4.75166 0.0809174 0.858352 0
M  V30 21 N 5.22032 -0.213662 -0.430697 0
M  V30 22 N 5.72037 0.273995 1.91101 0
M  V30 23 H -0.488178 2.18313 0.011617 0
M  V30 24 H -2.4514 -0.331741 1.41069 0
M  V30 25 H -0.685984 -0.493591 1.71021 0
M  V30 26 H -2.28727 -2.56921 1.50134 0
M  V30 27 H -0.588821 -2.64704 1.04932 0
M  V30 28 H -1.16639 -2.92561 -1.24095 0
M  V30 29 H -2.67604 -3.49132 -0.525078 0
M  V30 30 H -3.25173 -1.81099 -2.16702 0
M  V30 31 H -3.59935 -1.20802 -0.483292 0
M  V30 32 H -1.48765 -0.383601 -2.38838 0
M  V30 33 H -2.7552 0.540588 -1.61812 0
M  V30 34 H 0.459922 -0.589317 -2.70382 0
M  V30 35 H 5.14802 0.417734 -1.26281 0
M  V30 36 H 5.68824 -1.13764 -0.598256 0
M  V30 37 H 6.24357 -0.493176 2.34138 0
M  V30 38 H 5.87556 1.24753 2.22643 0
M  V30 END ATOM
M  V30 BEGIN BOND
M  V30 1 2 1 2
M  V30 2 1 2 3
M  V30 3 1 3 4
M  V30 4 1 3 5
M  V30 5 1 3 6
M  V30 6 1 2 7
M  V30 7 1 7 8
M  V30 8 1 8 9
M  V30 9 1 9 10
M  V30 10 1 10 11
M  V30 11 1 11 12
M  V30 12 1 12 13
M  V30 13 1 8 14
M  V30 14 2 14 15
M  V30 15 1 15 16
M  V30 16 1 16 17
M  V30 17 2 17 18
M  V30 18 1 17 19
M  V30 19 2 19 20 CFG=2
M  V30 20 1 20 21
M  V30 21 1 20 22
M  V30 22 1 13 8
M  V30 23 1 18 14
M  V30 24 1 7 23
M  V30 25 1 9 24
M  V30 26 1 9 25
M  V30 27 1 10 26
M  V30 28 1 10 27
M  V30 29 1 11 28
M  V30 30 1 11 29
M  V30 31 1 12 30
M  V30 32 1 12 31
M  V30 33 1 13 32
M  V30 34 1 13 33
M  V30 35 1 15 34
M  V30 36 1 21 35
M  V30 37 1 21 36
M  V30 38 1 22 37
M  V30 39 1 22 38
M  V30 END BOND
M  V30 END CTAB
M  END
