
     RDKit          3D

  0  0  0  0  0  0  0  0  0  0999 V3000
M  V30 BEGIN CTAB
M  V30 COUNTS 40 43 0 0 0
M  V30 BEGIN ATOM
M  V30 1 N 5.07218 -1.73164 1.34158 0
M  V30 2 C 3.67793 -1.60773 0.987839 0
M  V30 3 C 3.44215 -0.929563 -0.343067 0
M  V30 4 C 3.12276 0.351459 0.436803 0
M  V30 5 C 2.95028 -0.469678 1.68353 0
M  V30 6 C 1.88855 0.947087 -0.112498 0
M  V30 7 C 0.701462 0.244372 -0.227719 0
M  V30 8 C -0.429618 0.829898 -0.743896 0
M  V30 9 N -0.314153 2.13048 -1.13178 0
M  V30 10 C 0.809384 2.8464 -1.03922 0
M  V30 11 N 1.89425 2.22148 -0.523564 0
M  V30 12 N 0.854647 4.19823 -1.46395 0
M  V30 13 N -1.64227 0.13647 -0.866918 0
M  V30 14 C -2.74304 0.869642 -1.49399 0
M  V30 15 C -4.05006 0.132076 -1.42122 0
M  V30 16 C -4.19639 -0.562383 -0.0885126 0
M  V30 17 C -3.10613 -1.2367 0.416076 0
M  V30 18 C -1.86642 -1.21068 -0.427578 0
M  V30 19 C -3.45459 -1.78633 1.62142 0
M  V30 20 N -4.74069 -1.43749 1.82375 0
M  V30 21 N -5.17509 -0.704875 0.794055 0
M  V30 22 H 5.68936 -1.05109 0.876792 0
M  V30 23 H 5.22052 -1.8051 2.37032 0
M  V30 24 H 3.16259 -2.56295 1.11887 0
M  V30 25 H 2.6124 -1.31439 -0.93992 0
M  V30 26 H 4.36054 -0.789003 -0.95602 0
M  V30 27 H 3.95633 1.05183 0.450196 0
M  V30 28 H 3.50652 -0.146593 2.57294 0
M  V30 29 H 1.91403 -0.742317 1.95229 0
M  V30 30 H 0.73323 -0.766425 0.107198 0
M  V30 31 H 0.0261153 4.79216 -1.31637 0
M  V30 32 H 1.69374 4.59134 -1.91277 0
M  V30 33 H -2.83041 1.86086 -1.01304 0
M  V30 34 H -2.47738 1.03892 -2.56058 0
M  V30 35 H -4.12953 -0.650921 -2.21267 0
M  V30 36 H -4.87524 0.879369 -1.4944 0
M  V30 37 H -2.1273 -1.87416 -1.3014 0
M  V30 38 H -1.02221 -1.64883 0.0951907 0
M  V30 39 H -2.8048 -2.38794 2.27892 0
M  V30 40 H -5.30365 -1.70528 2.66333 0
M  V30 END ATOM
M  V30 BEGIN BOND
M  V30 1 1 1 2
M  V30 2 1 2 3
M  V30 3 1 3 4
M  V30 4 1 4 5
M  V30 5 1 4 6
M  V30 6 2 6 7
M  V30 7 1 7 8
M  V30 8 2 8 9
M  V30 9 1 9 10
M  V30 10 2 10 11
M  V30 11 1 10 12
M  V30 12 1 8 13
M  V30 13 1 13 14
M  V30 14 1 14 15
M  V30 15 1 15 16
M  V30 16 1 16 17
M  V30 17 1 17 18
M  V30 18 2 17 19
M  V30 19 1 19 20
M  V30 20 1 20 21
M  V30 21 1 5 2
M  V30 22 1 11 6
M  V30 23 1 18 13
M  V30 24 2 21 16
M  V30 25 1 1 22
M  V30 26 1 1 23
M  V30 27 1 2 24
M  V30 28 1 3 25
M  V30 29 1 3 26
M  V30 30 1 4 27
M  V30 31 1 5 28
M  V30 32 1 5 29
M  V30 33 1 7 30
M  V30 34 1 12 31
M  V30 35 1 12 32
M  V30 36 1 14 33
M  V30 37 1 14 34
M  V30 38 1 15 35
M  V30 39 1 15 36
M  V30 40 1 18 37
M  V30 41 1 18 38
M  V30 42 1 19 39
M  V30 43 1 20 40
M  V30 END BOND
M  V30 END CTAB
M  END
