
     RDKit          3D

  0  0  0  0  0  0  0  0  0  0999 V3000
M  V30 BEGIN CTAB
M  V30 COUNTS 53 54 0 0 0
M  V30 BEGIN ATOM
M  V30 1 C -2.92993 3.24038 -1.68075 0
M  V30 2 C -3.37356 1.78991 -1.5153 0
M  V30 3 C -4.00601 1.3756 -2.82637 0
M  V30 4 O -2.22614 1.04509 -1.34069 0
M  V30 5 P -2.19487 0.193747 0.109497 0
M  V30 6 O -1.46211 1.00162 1.13599 0
M  V30 7 C -1.35344 -1.36742 -0.186383 0
M  V30 8 O -0.11274 -1.17118 -0.705276 0
M  V30 9 C 0.853311 -0.572966 0.0354173 0 CFG=2
M  V30 10 C 1.36588 0.649981 -0.648136 0
M  V30 11 C 1.9646 -1.59449 0.278875 0
M  V30 12 N 3.02641 -1.03773 1.05857 0
M  V30 13 C 3.03606 -1.0096 2.39822 0
M  V30 14 N 4.143 -0.418954 2.84241 0
M  V30 15 C 4.85162 -0.0647783 1.75886 0
M  V30 16 C 4.13826 -0.459999 0.631807 0
M  V30 17 N 4.64168 -0.224449 -0.600884 0
M  V30 18 C 5.81306 0.382514 -0.747332 0
M  V30 19 N 6.30645 0.611379 -2.04612 0
M  V30 20 N 6.5242 0.776245 0.330757 0
M  V30 21 C 6.06092 0.561412 1.57076 0
M  V30 22 N 6.81388 0.978515 2.72176 0
M  V30 23 O -3.75979 -0.051444 0.720313 0
M  V30 24 C -4.10933 -1.3762 0.800818 0
M  V30 25 C -4.53831 -1.78927 2.19331 0
M  V30 26 C -5.34634 -1.56015 -0.0883643 0
M  V30 27 H -3.62167 3.94478 -1.21539 0
M  V30 28 H -1.93696 3.39344 -1.20541 0
M  V30 29 H -2.81868 3.50529 -2.74456 0
M  V30 30 H -4.07223 1.68903 -0.657377 0
M  V30 31 H -3.2668 0.877683 -3.5044 0
M  V30 32 H -4.39635 2.24024 -3.40074 0
M  V30 33 H -4.84967 0.685403 -2.68061 0
M  V30 34 H -1.94669 -1.90857 -0.989723 0
M  V30 35 H -1.33796 -2.00073 0.740193 0
M  V30 36 H 0.452039 -0.322133 1.03709 0
M  V30 37 H 1.85312 0.335235 -1.59424 0
M  V30 38 H 2.05757 1.16389 0.0600334 0
M  V30 39 H 0.571453 1.37432 -0.871931 0
M  V30 40 H 1.58215 -2.48485 0.796513 0
M  V30 41 H 2.35691 -1.92132 -0.714389 0
M  V30 42 H 2.26755 -1.4027 3.07516 0
M  V30 43 H 6.61022 -0.184897 -2.63701 0
M  V30 44 H 6.36245 1.59148 -2.40607 0
M  V30 45 H 6.92459 0.28617 3.47507 0
M  V30 46 H 7.2211 1.92712 2.78389 0
M  V30 47 H -3.35361 -2.08935 0.469454 0
M  V30 48 H -3.73353 -1.66455 2.93991 0
M  V30 49 H -5.4711 -1.28298 2.50366 0
M  V30 50 H -4.75754 -2.87767 2.15037 0
M  V30 51 H -5.5645 -2.65336 -0.190464 0
M  V30 52 H -5.09044 -1.11508 -1.06208 0
M  V30 53 H -6.1682 -1.01368 0.420842 0
M  V30 END ATOM
M  V30 BEGIN BOND
M  V30 1 1 1 2
M  V30 2 1 2 3
M  V30 3 1 2 4
M  V30 4 1 4 5
M  V30 5 2 5 6
M  V30 6 1 5 7
M  V30 7 1 7 8
M  V30 8 1 8 9
M  V30 9 1 9 10
M  V30 10 1 9 11
M  V30 11 1 11 12
M  V30 12 1 12 13
M  V30 13 2 13 14
M  V30 14 1 14 15
M  V30 15 2 15 16
M  V30 16 1 16 17
M  V30 17 2 17 18
M  V30 18 1 18 19
M  V30 19 1 18 20
M  V30 20 2 20 21
M  V30 21 1 21 22
M  V30 22 1 5 23
M  V30 23 1 23 24
M  V30 24 1 24 25
M  V30 25 1 24 26
M  V30 26 1 16 12
M  V30 27 1 21 15
M  V30 28 1 1 27
M  V30 29 1 1 28
M  V30 30 1 1 29
M  V30 31 1 2 30
M  V30 32 1 3 31
M  V30 33 1 3 32
M  V30 34 1 3 33
M  V30 35 1 7 34
M  V30 36 1 7 35
M  V30 37 1 9 36 CFG=1
M  V30 38 1 10 37
M  V30 39 1 10 38
M  V30 40 1 10 39
M  V30 41 1 11 40
M  V30 42 1 11 41
M  V30 43 1 13 42
M  V30 44 1 19 43
M  V30 45 1 19 44
M  V30 46 1 22 45
M  V30 47 1 22 46
M  V30 48 1 24 47
M  V30 49 1 25 48
M  V30 50 1 25 49
M  V30 51 1 25 50
M  V30 52 1 26 51
M  V30 53 1 26 52
M  V30 54 1 26 53
M  V30 END BOND
M  V30 END CTAB
M  END
