
     RDKit          3D

  0  0  0  0  0  0  0  0  0  0999 V3000
M  V30 BEGIN CTAB
M  V30 COUNTS 31 31 0 0 0
M  V30 BEGIN ATOM
M  V30 1 N 2.1727 1.51226 0.560546 0
M  V30 2 C 2.41079 0.79557 -0.636648 0
M  V30 3 C 1.12944 0.551269 -1.39571 0
M  V30 4 C 0.124122 -0.242625 -0.614766 0 CFG=1
M  V30 5 C 0.762156 -1.58143 -0.287497 0
M  V30 6 C -0.232229 -2.69632 -0.204585 0
M  V30 7 O -0.741299 -2.7415 1.11163 0
M  V30 8 C -1.53414 -1.58188 1.23235 0
M  V30 9 C -0.696864 -0.411726 1.64178 0
M  V30 10 N -0.381161 0.446065 0.513418 0
M  V30 11 S -1.6906 1.48197 0.234405 0
M  V30 12 O -2.92575 0.77868 -0.251275 0
M  V30 13 O -2.06855 2.10713 1.57212 0
M  V30 14 N -1.36387 2.76658 -0.840722 0
M  V30 15 H 2.91863 1.46993 1.19124 0
M  V30 16 H 1.59692 2.29079 0.536669 0
M  V30 17 H 2.95497 -0.114279 -0.375323 0
M  V30 18 H 3.09117 1.42334 -1.24687 0
M  V30 19 H 0.753953 1.55023 -1.7093 0
M  V30 20 H 1.40758 0.0259053 -2.33219 0
M  V30 21 H -0.720456 -0.466213 -1.30339 0
M  V30 22 H 1.29747 -1.5461 0.700059 0
M  V30 23 H 1.4685 -1.82853 -1.11428 0
M  V30 24 H 0.326324 -3.65505 -0.326872 0
M  V30 25 H -1.04121 -2.63929 -0.954966 0
M  V30 26 H -2.04861 -1.46492 0.270784 0
M  V30 27 H -2.32406 -1.72153 2.00223 0
M  V30 28 H -1.2712 0.245081 2.3605 0
M  V30 29 H 0.213464 -0.710847 2.21299 0
M  V30 30 H -2.11315 3.50031 -0.697191 0
M  V30 31 H -1.47504 2.45714 -1.84914 0
M  V30 END ATOM
M  V30 BEGIN BOND
M  V30 1 1 1 2
M  V30 2 1 2 3
M  V30 3 1 3 4
M  V30 4 1 4 5
M  V30 5 1 5 6
M  V30 6 1 6 7
M  V30 7 1 7 8
M  V30 8 1 8 9
M  V30 9 1 9 10
M  V30 10 1 10 11
M  V30 11 2 11 12
M  V30 12 2 11 13
M  V30 13 1 11 14
M  V30 14 1 10 4
M  V30 15 1 1 15
M  V30 16 1 1 16
M  V30 17 1 2 17
M  V30 18 1 2 18
M  V30 19 1 3 19
M  V30 20 1 3 20
M  V30 21 1 4 21 CFG=3
M  V30 22 1 5 22
M  V30 23 1 5 23
M  V30 24 1 6 24
M  V30 25 1 6 25
M  V30 26 1 8 26
M  V30 27 1 8 27
M  V30 28 1 9 28
M  V30 29 1 9 29
M  V30 30 1 14 30
M  V30 31 1 14 31
M  V30 END BOND
M  V30 END CTAB
M  END
