
     RDKit          3D

  0  0  0  0  0  0  0  0  0  0999 V3000
M  V30 BEGIN CTAB
M  V30 COUNTS 20 20 0 0 0
M  V30 BEGIN ATOM
M  V30 1 N -2.60708 -0.0703003 -1.10962 0
M  V30 2 C -2.02992 0.616384 0.0571235 0
M  V30 3 C -1.57219 -0.440971 1.00044 0
M  V30 4 N -0.584752 -1.34442 0.498524 0
M  V30 5 C 0.743162 -1.01086 0.122627 0
M  V30 6 N 1.69432 -1.84599 -0.35996 0
M  V30 7 N 2.80706 -1.17254 -0.585076 0
M  V30 8 C 2.62581 0.114718 -0.261014 0
M  V30 9 N 1.34189 0.189484 0.174083 0
M  V30 10 N 3.5711 1.1795 -0.350986 0
M  V30 11 H -2.58247 0.596668 -1.92578 0
M  V30 12 H -3.60714 -0.300345 -0.930136 0
M  V30 13 H -1.29634 1.3436 -0.264849 0
M  V30 14 H -2.83881 1.19614 0.585385 0
M  V30 15 H -2.44678 -1.01707 1.35133 0
M  V30 16 H -1.07976 0.105066 1.86179 0
M  V30 17 H -0.860724 -2.36025 0.392953 0
M  V30 18 H 0.918856 1.10883 0.506139 0
M  V30 19 H 4.5103 1.00444 -0.741497 0
M  V30 20 H 3.29347 2.10792 -0.0214829 0
M  V30 END ATOM
M  V30 BEGIN BOND
M  V30 1 1 1 2
M  V30 2 1 2 3
M  V30 3 1 3 4
M  V30 4 1 4 5
M  V30 5 2 5 6
M  V30 6 1 6 7
M  V30 7 2 7 8
M  V30 8 1 8 9
M  V30 9 1 8 10
M  V30 10 1 9 5
M  V30 11 1 1 11
M  V30 12 1 1 12
M  V30 13 1 2 13
M  V30 14 1 2 14
M  V30 15 1 3 15
M  V30 16 1 3 16
M  V30 17 1 4 17
M  V30 18 1 9 18
M  V30 19 1 10 19
M  V30 20 1 10 20
M  V30 END BOND
M  V30 END CTAB
M  END
