
     RDKit          3D

  0  0  0  0  0  0  0  0  0  0999 V3000
M  V30 BEGIN CTAB
M  V30 COUNTS 32 31 0 0 0
M  V30 BEGIN ATOM
M  V30 1 C 1.93493 -1.61968 0.0940908 0
M  V30 2 C 1.77915 -0.142624 0.313752 0
M  V30 3 C 2.48764 0.307337 1.56936 0
M  V30 4 C 2.37447 0.629755 -0.816078 0
M  V30 5 N 2.32455 2.0446 -0.788267 0
M  V30 6 N 2.91165 -0.00710387 -1.77523 0
M  V30 7 N 0.386126 0.187961 0.363779 0
M  V30 8 N -0.409497 -0.572854 -0.215078 0
M  V30 9 C -1.81974 -0.376148 -0.252699 0
M  V30 10 C -2.49023 -1.64813 0.237783 0
M  V30 11 C -2.22402 -0.162546 -1.68242 0
M  V30 12 C -2.2718 0.757855 0.572265 0
M  V30 13 N -2.04343 0.800919 1.96451 0
M  V30 14 N -2.89398 1.7485 0.0332411 0
M  V30 15 H 2.95509 -1.98681 0.287679 0
M  V30 16 H 1.53909 -1.89988 -0.891335 0
M  V30 17 H 1.26853 -2.12742 0.845093 0
M  V30 18 H 3.56972 0.107239 1.42895 0
M  V30 19 H 2.17098 -0.254536 2.4704 0
M  V30 20 H 2.37636 1.39319 1.69216 0
M  V30 21 H 2.98413 2.59027 -1.38134 0
M  V30 22 H 1.65876 2.58698 -0.202424 0
M  V30 23 H 3.35381 0.40187 -2.60693 0
M  V30 24 H -3.56281 -1.55285 -0.0264384 0
M  V30 25 H -2.09886 -2.50282 -0.338124 0
M  V30 26 H -2.30699 -1.71381 1.3122 0
M  V30 27 H -3.3264 -0.147661 -1.73058 0
M  V30 28 H -1.75858 0.745711 -2.11277 0
M  V30 29 H -1.84477 -1.01562 -2.29728 0
M  V30 30 H -1.09877 1.03844 2.31085 0
M  V30 31 H -2.82135 0.595085 2.61418 0
M  V30 32 H -3.10373 1.79479 -0.993311 0
M  V30 END ATOM
M  V30 BEGIN BOND
M  V30 1 1 1 2
M  V30 2 1 2 3
M  V30 3 1 2 4
M  V30 4 1 4 5
M  V30 5 2 4 6 CFG=2
M  V30 6 1 2 7
M  V30 7 2 7 8
M  V30 8 1 8 9
M  V30 9 1 9 10
M  V30 10 1 9 11
M  V30 11 1 9 12
M  V30 12 1 12 13
M  V30 13 2 12 14 CFG=2
M  V30 14 1 1 15
M  V30 15 1 1 16
M  V30 16 1 1 17
M  V30 17 1 3 18
M  V30 18 1 3 19
M  V30 19 1 3 20
M  V30 20 1 5 21
M  V30 21 1 5 22
M  V30 22 1 6 23
M  V30 23 1 10 24
M  V30 24 1 10 25
M  V30 25 1 10 26
M  V30 26 1 11 27
M  V30 27 1 11 28
M  V30 28 1 11 29
M  V30 29 1 13 30
M  V30 30 1 13 31
M  V30 31 1 14 32
M  V30 END BOND
M  V30 END CTAB
M  END
