
     RDKit          3D

  0  0  0  0  0  0  0  0  0  0999 V3000
M  V30 BEGIN CTAB
M  V30 COUNTS 24 25 0 0 0
M  V30 BEGIN ATOM
M  V30 1 C 3.37337 1.14411 0.507524 0
M  V30 2 C 2.00061 0.657921 0.288671 0
M  V30 3 N 0.879562 1.29571 0.664607 0
M  V30 4 N -0.166584 0.558207 0.301133 0
M  V30 5 C 0.270605 -0.555529 -0.309093 0
M  V30 6 N -0.573742 -1.5093 -0.794608 0
M  V30 7 C -1.89997 -1.33639 -0.661597 0
M  V30 8 N -2.8294 -2.31531 -1.158 0
M  V30 9 C -2.35239 -0.191883 -0.0344162 0
M  V30 10 C -1.50516 0.770898 0.455839 0
M  V30 11 C -1.9741 1.99727 1.12741 0
M  V30 12 C 1.65578 -0.520274 -0.332322 0
M  V30 13 N 2.50625 -1.51856 -0.89323 0
M  V30 14 H 3.39598 2.22114 0.229563 0
M  V30 15 H 4.11034 0.558938 -0.0670393 0
M  V30 16 H 3.59969 1.04425 1.59865 0
M  V30 17 H -3.34288 -2.91445 -0.476477 0
M  V30 18 H -3.01868 -2.45955 -2.16243 0
M  V30 19 H -3.42403 -0.00929549 0.0960259 0
M  V30 20 H -2.43055 2.70375 0.374209 0
M  V30 21 H -2.79254 1.69978 1.83069 0
M  V30 22 H -1.1357 2.48938 1.62145 0
M  V30 23 H 3.28379 -1.2908 -1.55071 0
M  V30 24 H 2.36976 -2.52004 -0.655857 0
M  V30 END ATOM
M  V30 BEGIN BOND
M  V30 1 1 1 2
M  V30 2 2 2 3
M  V30 3 1 3 4
M  V30 4 1 4 5
M  V30 5 1 5 6
M  V30 6 2 6 7
M  V30 7 1 7 8
M  V30 8 1 7 9
M  V30 9 2 9 10
M  V30 10 1 10 11
M  V30 11 2 5 12
M  V30 12 1 12 13
M  V30 13 1 12 2
M  V30 14 1 10 4
M  V30 15 1 1 14
M  V30 16 1 1 15
M  V30 17 1 1 16
M  V30 18 1 8 17
M  V30 19 1 8 18
M  V30 20 1 9 19
M  V30 21 1 11 20
M  V30 22 1 11 21
M  V30 23 1 11 22
M  V30 24 1 13 23
M  V30 25 1 13 24
M  V30 END BOND
M  V30 END CTAB
M  END
