
     RDKit          3D

  0  0  0  0  0  0  0  0  0  0999 V3000
M  V30 BEGIN CTAB
M  V30 COUNTS 32 32 0 0 0
M  V30 BEGIN ATOM
M  V30 1 N -3.53042 0.0589865 0.989738 0
M  V30 2 C -2.39208 -0.624324 0.299123 0
M  V30 3 C -1.33765 0.4151 0.210952 0
M  V30 4 C -0.0332515 0.0784672 -0.399729 0
M  V30 5 O 0.0686178 -0.454494 -1.58646 0
M  V30 6 C -0.367016 -1.61754 -2.0379 0
M  V30 7 C 0.689621 1.4622 -0.486588 0
M  V30 8 C 2.11156 1.28155 -0.908653 0
M  V30 9 C 2.88069 0.343344 -0.00579342 0
M  V30 10 C 2.1634 -0.954835 0.223771 0
M  V30 11 C 0.777323 -0.6411 0.695734 0
M  V30 12 N -1.21959 1.0114 1.52092 0
M  V30 13 H -4.4139 -0.455456 0.795112 0
M  V30 14 H -3.55161 1.04951 0.666366 0
M  V30 15 H -2.86944 -0.904771 -0.670337 0
M  V30 16 H -2.16546 -1.48219 0.951024 0
M  V30 17 H -1.77845 1.24467 -0.430371 0
M  V30 18 H -0.0169823 -2.53026 -1.50433 0
M  V30 19 H -1.44743 -1.68864 -2.17986 0
M  V30 20 H 0.0150528 -1.82841 -3.11734 0
M  V30 21 H 0.581912 1.99272 0.452156 0
M  V30 22 H 0.152907 2.02 -1.27705 0
M  V30 23 H 2.6013 2.27378 -0.816717 0
M  V30 24 H 2.21312 0.974783 -1.95569 0
M  V30 25 H 3.84458 0.111533 -0.496723 0
M  V30 26 H 3.12236 0.82769 0.973805 0
M  V30 27 H 2.6809 -1.49491 1.02117 0
M  V30 28 H 2.19252 -1.52261 -0.723639 0
M  V30 29 H 0.877682 0.119086 1.49868 0
M  V30 30 H 0.226696 -1.48488 1.12843 0
M  V30 31 H -0.968452 0.407743 2.28797 0
M  V30 32 H -1.1085 2.01186 1.57131 0
M  V30 END ATOM
M  V30 BEGIN BOND
M  V30 1 1 1 2
M  V30 2 1 2 3
M  V30 3 1 3 4
M  V30 4 1 4 5
M  V30 5 1 5 6
M  V30 6 1 4 7
M  V30 7 1 7 8
M  V30 8 1 8 9
M  V30 9 1 9 10
M  V30 10 1 10 11
M  V30 11 1 3 12
M  V30 12 1 11 4
M  V30 13 1 1 13
M  V30 14 1 1 14
M  V30 15 1 2 15
M  V30 16 1 2 16
M  V30 17 1 3 17
M  V30 18 1 6 18
M  V30 19 1 6 19
M  V30 20 1 6 20
M  V30 21 1 7 21
M  V30 22 1 7 22
M  V30 23 1 8 23
M  V30 24 1 8 24
M  V30 25 1 9 25
M  V30 26 1 9 26
M  V30 27 1 10 27
M  V30 28 1 10 28
M  V30 29 1 11 29
M  V30 30 1 11 30
M  V30 31 1 12 31
M  V30 32 1 12 32
M  V30 END BOND
M  V30 END CTAB
M  END
