
     RDKit          3D

  0  0  0  0  0  0  0  0  0  0999 V3000
M  V30 BEGIN CTAB
M  V30 COUNTS 42 45 0 0 0
M  V30 BEGIN ATOM
M  V30 1 N 5.03698 -3.16716 1.12044 0
M  V30 2 C 4.59265 -1.8569 0.734983 0
M  V30 3 N 5.48984 -0.888298 0.525746 0
M  V30 4 C 5.04882 0.30839 0.171706 0
M  V30 5 N 5.92516 1.41971 -0.0748631 0
M  V30 6 C 3.69254 0.545406 0.023178 0
M  V30 7 F 3.31354 1.79177 -0.351196 0
M  V30 8 C 2.72334 -0.432267 0.230723 0
M  V30 9 C 1.29926 -0.137884 0.0795447 0
M  V30 10 C 0.694084 1.05848 -0.169973 0
M  V30 11 C -0.703168 0.906466 -0.222597 0
M  V30 12 C -0.91559 -0.423467 0.00412505 0
M  V30 13 N 0.31019 -1.02069 0.181487 0
M  V30 14 C -2.21169 -1.07113 0.0465787 0
M  V30 15 C -2.61407 -1.68105 1.20422 0
M  V30 16 C -3.84751 -2.31918 1.29688 0
M  V30 17 C -4.66019 -2.32241 0.186692 0
M  V30 18 F -5.88099 -2.93367 0.220214 0
M  V30 19 C -4.28499 -1.71849 -0.991642 0
M  V30 20 C -3.03959 -1.08914 -1.043 0
M  V30 21 C -1.67369 1.96156 -0.465994 0
M  V30 22 C -1.68729 2.67684 -1.65375 0
M  V30 23 C -2.58224 3.67989 -1.92773 0
M  V30 24 N -3.48379 3.96565 -0.978242 0
M  V30 25 C -3.50791 3.29963 0.186173 0
M  V30 26 C -2.61472 2.29166 0.471327 0
M  V30 27 C 3.2103 -1.66454 0.597441 0
M  V30 28 F 2.38339 -2.70378 0.837576 0
M  V30 29 H 4.44614 -3.99201 0.901205 0
M  V30 30 H 5.95089 -3.30667 1.62105 0
M  V30 31 H 6.2077 1.73699 -1.02505 0
M  V30 32 H 6.30963 1.95029 0.734533 0
M  V30 33 H 1.11352 2.02311 -0.314912 0
M  V30 34 H 0.319368 -2.05288 0.362946 0
M  V30 35 H -1.98835 -1.68609 2.08122 0
M  V30 36 H -4.20454 -2.81106 2.18587 0
M  V30 37 H -4.92686 -1.72019 -1.87136 0
M  V30 38 H -2.78392 -0.626816 -1.98937 0
M  V30 39 H -0.954554 2.43573 -2.40977 0
M  V30 40 H -2.58452 4.22824 -2.85149 0
M  V30 41 H -4.25897 3.58279 0.900928 0
M  V30 42 H -2.65821 1.76315 1.43414 0
M  V30 END ATOM
M  V30 BEGIN BOND
M  V30 1 1 1 2
M  V30 2 2 2 3
M  V30 3 1 3 4
M  V30 4 1 4 5
M  V30 5 2 4 6
M  V30 6 1 6 7
M  V30 7 1 6 8
M  V30 8 1 8 9
M  V30 9 2 9 10
M  V30 10 1 10 11
M  V30 11 2 11 12
M  V30 12 1 12 13
M  V30 13 1 12 14
M  V30 14 2 14 15
M  V30 15 1 15 16
M  V30 16 2 16 17
M  V30 17 1 17 18
M  V30 18 1 17 19
M  V30 19 2 19 20
M  V30 20 1 11 21
M  V30 21 2 21 22
M  V30 22 1 22 23
M  V30 23 2 23 24
M  V30 24 1 24 25
M  V30 25 2 25 26
M  V30 26 2 8 27
M  V30 27 1 27 28
M  V30 28 1 27 2
M  V30 29 1 13 9
M  V30 30 1 20 14
M  V30 31 1 26 21
M  V30 32 1 1 29
M  V30 33 1 1 30
M  V30 34 1 5 31
M  V30 35 1 5 32
M  V30 36 1 10 33
M  V30 37 1 13 34
M  V30 38 1 15 35
M  V30 39 1 16 36
M  V30 40 1 19 37
M  V30 41 1 20 38
M  V30 42 1 22 39
M  V30 43 1 23 40
M  V30 44 1 25 41
M  V30 45 1 26 42
M  V30 END BOND
M  V30 END CTAB
M  END
