
     RDKit          3D

  0  0  0  0  0  0  0  0  0  0999 V3000
M  V30 BEGIN CTAB
M  V30 COUNTS 20 19 0 0 0
M  V30 BEGIN ATOM
M  V30 1 N -4.50093 0.0269717 0.314286 0
M  V30 2 C -3.13109 0.160831 -0.00339358 0
M  V30 3 N -2.80251 0.555569 -1.17617 0
M  V30 4 N -2.14311 -0.141348 0.973183 0
M  V30 5 O -1.03663 -0.890659 0.651697 0
M  V30 6 C 0.0774044 -0.398842 0.0144891 0
M  V30 7 O 0.104645 0.823475 -0.305569 0
M  V30 8 O 1.18789 -1.15868 -0.3062 0
M  V30 9 N 2.25391 -0.584074 -0.942127 0
M  V30 10 C 3.37126 -0.142912 -0.193422 0
M  V30 11 N 4.28836 0.797835 -0.732102 0
M  V30 12 N 3.61623 -0.566237 1.00714 0
M  V30 13 H -5.04945 0.884939 0.515829 0
M  V30 14 H -4.97091 -0.894297 0.351898 0
M  V30 15 H -3.55117 0.767074 -1.86334 0
M  V30 16 H -2.20748 0.187545 1.97453 0
M  V30 17 H 2.2764 -0.456302 -1.97148 0
M  V30 18 H 4.45671 0.805052 -1.76554 0
M  V30 19 H 4.81135 1.49598 -0.126251 0
M  V30 20 H 2.94914 -1.27193 1.44158 0
M  V30 END ATOM
M  V30 BEGIN BOND
M  V30 1 1 1 2
M  V30 2 2 2 3 CFG=2
M  V30 3 1 2 4
M  V30 4 1 4 5
M  V30 5 1 5 6
M  V30 6 2 6 7
M  V30 7 1 6 8
M  V30 8 1 8 9
M  V30 9 1 9 10
M  V30 10 1 10 11
M  V30 11 2 10 12 CFG=2
M  V30 12 1 1 13
M  V30 13 1 1 14
M  V30 14 1 3 15
M  V30 15 1 4 16
M  V30 16 1 9 17
M  V30 17 1 11 18
M  V30 18 1 11 19
M  V30 19 1 12 20
M  V30 END BOND
M  V30 END CTAB
M  END
