
     RDKit          3D

  0  0  0  0  0  0  0  0  0  0999 V3000
M  V30 BEGIN CTAB
M  V30 COUNTS 48 50 0 0 0
M  V30 BEGIN ATOM
M  V30 1 C 5.7723 1.77263 0.627122 0 CFG=1
M  V30 2 N 4.98227 2.20137 1.7456 0
M  V30 3 C 6.79162 0.726564 1.02398 0
M  V30 4 O 7.50922 0.370904 -0.118161 0
M  V30 5 C 4.94204 1.19784 -0.464549 0
M  V30 6 O 5.50428 0.784308 -1.50049 0
M  V30 7 O 3.5629 1.13113 -0.31408 0
M  V30 8 P 2.65899 0.454224 -1.61562 0
M  V30 9 O 3.57423 -0.804831 -2.28829 0
M  V30 10 O 2.40009 1.54223 -2.62706 0
M  V30 11 O 1.16084 -0.116922 -1.08052 0
M  V30 12 C 1.30628 -0.976115 0.00813103 0
M  V30 13 C 0.00442552 -1.50139 0.509295 0 CFG=1
M  V30 14 O -0.872728 -0.537642 0.934554 0
M  V30 15 C -2.14726 -0.934206 0.597499 0 CFG=2
M  V30 16 C -1.9243 -1.46548 -0.824994 0 CFG=2
M  V30 17 O -2.97872 -2.21871 -1.26738 0
M  V30 18 C -0.668884 -2.29897 -0.582867 0 CFG=2
M  V30 19 O -1.10593 -3.51804 -0.0594583 0
M  V30 20 N -3.0883 0.152084 0.606268 0
M  V30 21 C -2.89711 1.47392 0.697934 0
M  V30 22 N -4.07525 2.12329 0.665917 0
M  V30 23 C -5.05343 1.22355 0.552159 0
M  V30 24 C -4.41965 -0.0204536 0.515176 0
M  V30 25 N -5.23946 -1.09717 0.40029 0
M  V30 26 C -6.56817 -1.00646 0.325308 0
M  V30 27 N -7.13738 0.20455 0.364205 0
M  V30 28 C -6.423 1.33864 0.476182 0
M  V30 29 N -7.09316 2.58425 0.511087 0
M  V30 30 H 6.33986 2.64556 0.234964 0
M  V30 31 H 4.70029 3.20322 1.57545 0
M  V30 32 H 4.08068 1.67649 1.82325 0
M  V30 33 H 6.27709 -0.152457 1.48072 0
M  V30 34 H 7.54754 1.15482 1.73347 0
M  V30 35 H 7.50095 -0.589447 -0.304756 0
M  V30 36 H 3.59373 -1.53374 -1.60031 0
M  V30 37 H 1.89722 -1.85227 -0.365778 0
M  V30 38 H 1.91744 -0.472977 0.760119 0
M  V30 39 H 0.213542 -2.17217 1.3686 0
M  V30 40 H -2.50897 -1.75916 1.25701 0
M  V30 41 H -1.67616 -0.598844 -1.45077 0
M  V30 42 H -3.25006 -1.8648 -2.1671 0
M  V30 43 H -0.0565847 -2.41105 -1.48194 0
M  V30 44 H -1.23077 -4.2129 -0.739259 0
M  V30 45 H -1.94001 1.95639 0.785123 0
M  V30 46 H -7.15642 -1.90223 0.235416 0
M  V30 47 H -7.89022 2.70168 1.16806 0
M  V30 48 H -6.83589 3.3988 -0.0855844 0
M  V30 END ATOM
M  V30 BEGIN BOND
M  V30 1 1 1 2
M  V30 2 1 1 3
M  V30 3 1 3 4
M  V30 4 1 1 5
M  V30 5 2 5 6
M  V30 6 1 5 7
M  V30 7 1 7 8
M  V30 8 1 8 9
M  V30 9 2 8 10
M  V30 10 1 8 11
M  V30 11 1 11 12
M  V30 12 1 12 13
M  V30 13 1 13 14
M  V30 14 1 14 15
M  V30 15 1 15 16
M  V30 16 1 16 17
M  V30 17 1 16 18
M  V30 18 1 18 19
M  V30 19 1 15 20
M  V30 20 1 20 21
M  V30 21 2 21 22
M  V30 22 1 22 23
M  V30 23 2 23 24
M  V30 24 1 24 25
M  V30 25 2 25 26
M  V30 26 1 26 27
M  V30 27 2 27 28
M  V30 28 1 28 29
M  V30 29 1 18 13
M  V30 30 1 24 20
M  V30 31 1 28 23
M  V30 32 1 1 30 CFG=3
M  V30 33 1 2 31
M  V30 34 1 2 32
M  V30 35 1 3 33
M  V30 36 1 3 34
M  V30 37 1 4 35
M  V30 38 1 9 36
M  V30 39 1 12 37
M  V30 40 1 12 38
M  V30 41 1 13 39 CFG=1
M  V30 42 1 15 40 CFG=1
M  V30 43 1 16 41 CFG=3
M  V30 44 1 17 42
M  V30 45 1 18 43 CFG=3
M  V30 46 1 19 44
M  V30 47 1 21 45
M  V30 48 1 26 46
M  V30 49 1 29 47
M  V30 50 1 29 48
M  V30 END BOND
M  V30 END CTAB
M  END
