
     RDKit          3D

  0  0  0  0  0  0  0  0  0  0999 V3000
M  V30 BEGIN CTAB
M  V30 COUNTS 25 26 0 0 0
M  V30 BEGIN ATOM
M  V30 1 C 1.40558 1.78457 0.782508 0
M  V30 2 C 1.09629 0.490891 0.131298 0
M  V30 3 C 2.07819 -0.363615 -0.33605 0
M  V30 4 C 1.74473 -1.62714 -0.880809 0
M  V30 5 C 0.445678 -2.02761 -0.959088 0
M  V30 6 C -0.561013 -1.19977 -0.506552 0
M  V30 7 C -0.225451 0.0359346 0.026431 0
M  V30 8 C -1.28382 0.798528 0.433342 0
M  V30 9 N -1.09731 2.0833 0.95695 0
M  V30 10 N -2.58427 0.346552 0.314789 0
M  V30 11 C -2.86919 -0.848495 -0.20051 0
M  V30 12 N -4.22912 -1.25126 -0.293663 0
M  V30 13 N -1.85138 -1.60679 -0.605309 0
M  V30 14 N 3.45959 -0.0377084 -0.319592 0 CHG=1
M  V30 15 O 4.06892 1.15246 -0.412295 0 CHG=-1
M  V30 16 O 4.26814 -1.03087 -0.190105 0
M  V30 17 H 1.13293 1.83621 1.86598 0
M  V30 18 H 2.53266 1.7629 0.955605 0
M  V30 19 H 1.32088 2.67587 0.188159 0
M  V30 20 H 2.55647 -2.25503 -1.22846 0
M  V30 21 H 0.148633 -3.00185 -1.37468 0
M  V30 22 H -1.10928 2.22553 1.98827 0
M  V30 23 H -0.969291 2.8829 0.310154 0
M  V30 24 H -4.9509 -0.666043 -0.7547 0
M  V30 25 H -4.52766 -2.15947 0.108327 0
M  V30 END ATOM
M  V30 BEGIN BOND
M  V30 1 1 1 2
M  V30 2 2 2 3
M  V30 3 1 3 4
M  V30 4 2 4 5
M  V30 5 1 5 6
M  V30 6 2 6 7
M  V30 7 1 7 8
M  V30 8 1 8 9
M  V30 9 2 8 10
M  V30 10 1 10 11
M  V30 11 1 11 12
M  V30 12 2 11 13
M  V30 13 1 3 14
M  V30 14 1 14 15
M  V30 15 2 14 16
M  V30 16 1 7 2
M  V30 17 1 13 6
M  V30 18 1 1 17
M  V30 19 1 1 18
M  V30 20 1 1 19
M  V30 21 1 4 20
M  V30 22 1 5 21
M  V30 23 1 9 22
M  V30 24 1 9 23
M  V30 25 1 12 24
M  V30 26 1 12 25
M  V30 END BOND
M  V30 END CTAB
M  END
