
     RDKit          3D

  0  0  0  0  0  0  0  0  0  0999 V3000
M  V30 BEGIN CTAB
M  V30 COUNTS 27 27 0 0 0
M  V30 BEGIN ATOM
M  V30 1 C 3.13663 1.33564 -0.264674 0
M  V30 2 C 2.56369 0.167732 0.512141 0
M  V30 3 C 2.21626 -0.96732 -0.462165 0
M  V30 4 S 1.00754 -0.414481 -1.66403 0
M  V30 5 C -0.581147 -0.0703099 -0.944266 0
M  V30 6 N -1.55489 -0.982601 -0.831772 0
M  V30 7 C -2.75217 -0.715299 -0.274954 0
M  V30 8 N -3.76093 -1.7225 -0.180908 0
M  V30 9 C -3.00777 0.55019 0.208574 0
M  V30 10 C -2.01868 1.49405 0.0995076 0
M  V30 11 N -0.831264 1.16265 -0.47324 0
M  V30 12 N -2.26266 2.79861 0.594814 0
M  V30 13 C 1.8094 -2.19872 0.293216 0
M  V30 14 H 4.04507 1.09055 -0.811286 0
M  V30 15 H 2.36242 1.60822 -1.01737 0
M  V30 16 H 3.34917 2.14914 0.431287 0
M  V30 17 H 1.60993 0.503243 0.959096 0
M  V30 18 H 3.21271 -0.193064 1.31981 0
M  V30 19 H 3.15521 -1.19474 -1.0004 0
M  V30 20 H -4.25413 -2.07362 -1.03038 0
M  V30 21 H -3.97075 -2.0823 0.776915 0
M  V30 22 H -3.96902 0.757104 0.65434 0
M  V30 23 H -3.16541 3.05058 1.03969 0
M  V30 24 H -1.53068 3.52904 0.518882 0
M  V30 25 H 2.2722 -3.1357 -0.0819211 0
M  V30 26 H 2.20461 -2.08304 1.33808 0
M  V30 27 H 0.714643 -2.36305 0.305003 0
M  V30 END ATOM
M  V30 BEGIN BOND
M  V30 1 1 1 2
M  V30 2 1 2 3
M  V30 3 1 3 4
M  V30 4 1 4 5
M  V30 5 2 5 6
M  V30 6 1 6 7
M  V30 7 1 7 8
M  V30 8 2 7 9
M  V30 9 1 9 10
M  V30 10 2 10 11
M  V30 11 1 10 12
M  V30 12 1 3 13
M  V30 13 1 11 5
M  V30 14 1 1 14
M  V30 15 1 1 15
M  V30 16 1 1 16
M  V30 17 1 2 17
M  V30 18 1 2 18
M  V30 19 1 3 19
M  V30 20 1 8 20
M  V30 21 1 8 21
M  V30 22 1 9 22
M  V30 23 1 12 23
M  V30 24 1 12 24
M  V30 25 1 13 25
M  V30 26 1 13 26
M  V30 27 1 13 27
M  V30 END BOND
M  V30 END CTAB
M  END
