
     RDKit          3D

  0  0  0  0  0  0  0  0  0  0999 V3000
M  V30 BEGIN CTAB
M  V30 COUNTS 34 35 0 0 0
M  V30 BEGIN ATOM
M  V30 1 O 0.398021 0.403917 -1.40852 0
M  V30 2 C -0.0840712 -0.678803 -1.02571 0
M  V30 3 N -1.30591 -0.702764 -0.305561 0
M  V30 4 C -1.9299 0.563794 -0.0602244 0
M  V30 5 C -3.3323 0.548051 0.323519 0
M  V30 6 C -4.25629 -0.423568 0.0673149 0
M  V30 7 C -5.56312 -0.355635 0.468296 0
M  V30 8 C -5.98625 0.747652 1.1729 0
M  V30 9 C -5.08518 1.74619 1.45001 0
M  V30 10 C -3.78023 1.66044 1.03875 0
M  V30 11 C 0.613993 -1.94182 -1.32257 0
M  V30 12 S 2.10821 -1.56478 -2.30493 0
M  V30 13 C 3.2996 -0.755602 -1.25958 0
M  V30 14 N 3.35054 0.56561 -1.04221 0
M  V30 15 C 4.30038 1.11889 -0.252936 0
M  V30 16 N 4.34986 2.52688 -0.0179115 0
M  V30 17 N 5.22415 0.328321 0.333364 0
M  V30 18 C 5.20426 -0.996172 0.137105 0
M  V30 19 N 4.24472 -1.49748 -0.65002 0
M  V30 20 N 6.13559 -1.89855 0.689741 0
M  V30 21 H -1.67041 -1.61967 -0.00703578 0
M  V30 22 H -1.27257 1.1255 0.635449 0
M  V30 23 H -1.87183 1.13309 -1.03542 0
M  V30 24 H -3.91627 -1.2908 -0.488039 0
M  V30 25 H -6.2158 -1.17708 0.215092 0
M  V30 26 H -7.03374 0.781592 1.48772 0
M  V30 27 H -5.4631 2.61274 2.01492 0
M  V30 28 H -3.11673 2.47706 1.28775 0
M  V30 29 H 0.927624 -2.37047 -0.334525 0
M  V30 30 H 0.00555812 -2.7069 -1.81187 0
M  V30 31 H 4.6711 2.86033 0.935221 0
M  V30 32 H 4.09452 3.24822 -0.716897 0
M  V30 33 H 5.8331 -2.58033 1.40277 0
M  V30 34 H 7.12246 -1.88785 0.384029 0
M  V30 END ATOM
M  V30 BEGIN BOND
M  V30 1 2 1 2
M  V30 2 1 2 3
M  V30 3 1 3 4
M  V30 4 1 4 5
M  V30 5 2 5 6
M  V30 6 1 6 7
M  V30 7 2 7 8
M  V30 8 1 8 9
M  V30 9 2 9 10
M  V30 10 1 2 11
M  V30 11 1 11 12
M  V30 12 1 12 13
M  V30 13 2 13 14
M  V30 14 1 14 15
M  V30 15 1 15 16
M  V30 16 2 15 17
M  V30 17 1 17 18
M  V30 18 2 18 19
M  V30 19 1 18 20
M  V30 20 1 10 5
M  V30 21 1 19 13
M  V30 22 1 3 21
M  V30 23 1 4 22
M  V30 24 1 4 23
M  V30 25 1 6 24
M  V30 26 1 7 25
M  V30 27 1 8 26
M  V30 28 1 9 27
M  V30 29 1 10 28
M  V30 30 1 11 29
M  V30 31 1 11 30
M  V30 32 1 16 31
M  V30 33 1 16 32
M  V30 34 1 20 33
M  V30 35 1 20 34
M  V30 END BOND
M  V30 END CTAB
M  END
