
     RDKit          3D

  0  0  0  0  0  0  0  0  0  0999 V3000
M  V30 BEGIN CTAB
M  V30 COUNTS 15 15 0 0 0
M  V30 BEGIN ATOM
M  V30 1 N -2.2488 -1.52641 0.270353 0
M  V30 2 C -1.15099 -0.606602 0.138105 0
M  V30 3 C -1.34748 0.755296 0.179516 0
M  V30 4 C -0.301081 1.63933 0.0535495 0
M  V30 5 C 0.990647 1.1591 -0.120217 0
M  V30 6 Br 2.48258 2.34674 -0.300653 0
M  V30 7 C 1.16208 -0.208687 -0.158435 0
M  V30 8 N 2.48433 -0.73407 -0.336685 0
M  V30 9 N 0.11048 -1.05693 -0.0313729 0
M  V30 10 H -2.48694 -1.84882 1.24752 0
M  V30 11 H -2.79908 -1.87566 -0.52645 0
M  V30 12 H -2.35702 1.10927 0.31506 0
M  V30 13 H -0.445322 2.71382 0.0848197 0
M  V30 14 H 3.31528 -0.245915 0.041658 0
M  V30 15 H 2.59132 -1.62044 -0.856765 0
M  V30 END ATOM
M  V30 BEGIN BOND
M  V30 1 1 1 2
M  V30 2 2 2 3
M  V30 3 1 3 4
M  V30 4 2 4 5
M  V30 5 1 5 6
M  V30 6 1 5 7
M  V30 7 1 7 8
M  V30 8 2 7 9
M  V30 9 1 9 2
M  V30 10 1 1 10
M  V30 11 1 1 11
M  V30 12 1 3 12
M  V30 13 1 4 13
M  V30 14 1 8 14
M  V30 15 1 8 15
M  V30 END BOND
M  V30 END CTAB
M  END
