
     RDKit          3D

  0  0  0  0  0  0  0  0  0  0999 V3000
M  V30 BEGIN CTAB
M  V30 COUNTS 30 31 0 0 0
M  V30 BEGIN ATOM
M  V30 1 N 6.06327 -0.743996 -0.0355808 0
M  V30 2 C 4.68487 -0.419912 0.0770836 0
M  V30 3 C 4.23022 0.594879 0.864492 0
M  V30 4 C 2.8732 0.859593 0.930495 0
M  V30 5 Cl 2.32575 2.16842 1.95031 0
M  V30 6 C 1.93215 0.132749 0.223939 0
M  V30 7 C 2.39484 -0.881547 -0.562145 0
M  V30 8 C 3.76211 -1.16574 -0.643097 0
M  V30 9 C 0.500868 0.493281 0.361315 0
M  V30 10 C -0.45426 -0.136237 -0.268439 0
M  V30 11 C -1.88272 0.0904948 -0.246027 0
M  V30 12 C -2.53869 1.12587 0.325375 0
M  V30 13 Cl -1.68189 2.46437 1.04629 0
M  V30 14 C -3.95349 1.17015 0.314663 0
M  V30 15 C -4.72238 0.202557 -0.256135 0
M  V30 16 N -6.15542 0.267836 -0.254673 0
M  V30 17 C -4.05539 -0.852452 -0.84046 0
M  V30 18 C -2.69013 -0.922382 -0.844862 0
M  V30 19 H 6.40299 -1.18211 -0.908787 0
M  V30 20 H 6.70212 -0.534454 0.761173 0
M  V30 21 H 4.93132 1.19007 1.43524 0
M  V30 22 H 1.75817 -1.50524 -1.14898 0
M  V30 23 H 4.09284 -1.97557 -1.27509 0
M  V30 24 H 0.241469 1.29116 1.02767 0
M  V30 25 H -0.0737576 -0.969124 -0.924563 0
M  V30 26 H -4.41912 2.01338 0.783293 0
M  V30 27 H -6.72333 -0.586013 -0.307168 0
M  V30 28 H -6.64717 1.18305 -0.200306 0
M  V30 29 H -4.67797 -1.6143 -1.28999 0
M  V30 30 H -2.22047 -1.75879 -1.30924 0
M  V30 END ATOM
M  V30 BEGIN BOND
M  V30 1 1 1 2
M  V30 2 2 2 3
M  V30 3 1 3 4
M  V30 4 1 4 5
M  V30 5 2 4 6
M  V30 6 1 6 7
M  V30 7 2 7 8
M  V30 8 1 6 9
M  V30 9 2 9 10
M  V30 10 1 10 11
M  V30 11 2 11 12
M  V30 12 1 12 13
M  V30 13 1 12 14
M  V30 14 2 14 15
M  V30 15 1 15 16
M  V30 16 1 15 17
M  V30 17 2 17 18
M  V30 18 1 8 2
M  V30 19 1 18 11
M  V30 20 1 1 19
M  V30 21 1 1 20
M  V30 22 1 3 21
M  V30 23 1 7 22
M  V30 24 1 8 23
M  V30 25 1 9 24
M  V30 26 1 10 25
M  V30 27 1 14 26
M  V30 28 1 16 27
M  V30 29 1 16 28
M  V30 30 1 17 29
M  V30 31 1 18 30
M  V30 END BOND
M  V30 END CTAB
M  END
