
     RDKit          3D

  0  0  0  0  0  0  0  0  0  0999 V3000
M  V30 BEGIN CTAB
M  V30 COUNTS 35 36 0 0 0
M  V30 BEGIN ATOM
M  V30 1 N -0.262663 -2.61483 -0.170042 0
M  V30 2 C -0.525558 -1.33144 0.405075 0 CFG=2
M  V30 3 C -2.04903 -1.22326 0.359691 0 CFG=1
M  V30 4 O -2.6055 -2.05974 1.31536 0
M  V30 5 C -2.5198 0.201342 0.525558 0 CFG=2
M  V30 6 O -3.88793 0.214689 0.350505 0
M  V30 7 C -1.79364 1.00047 -0.536743 0 CFG=1
M  V30 8 C -2.33741 2.39944 -0.658817 0
M  V30 9 O -3.69279 2.29093 -1.03723 0
M  V30 10 O -0.459339 1.01054 -0.166337 0
M  V30 11 C 0.123923 -0.254664 -0.382759 0 CFG=1
M  V30 12 N 1.52303 -0.0948984 -0.184065 0
M  V30 13 C 2.22592 -0.865879 0.646842 0
M  V30 14 C 3.59339 -0.691962 0.825842 0
M  V30 15 C 4.24549 0.305394 0.12589 0
M  V30 16 N 5.63097 0.55105 0.24763 0
M  V30 17 N 3.51578 1.06252 -0.69956 0
M  V30 18 C 2.19012 0.867421 -0.850332 0
M  V30 19 O 1.57081 1.62956 -1.65358 0
M  V30 20 H 0.198294 -2.66084 -1.03287 0
M  V30 21 H -0.247185 -3.32828 0.500293 0
M  V30 22 H -0.273493 -1.32655 1.48672 0
M  V30 23 H -2.33278 -1.52424 -0.684846 0
M  V30 24 H -3.50415 -1.68708 1.57387 0
M  V30 25 H -2.22394 0.541148 1.5518 0
M  V30 26 H -4.28225 0.907459 0.958855 0
M  V30 27 H -1.89819 0.469853 -1.50441 0
M  V30 28 H -2.34343 2.92415 0.317962 0
M  V30 29 H -1.83303 2.95172 -1.46289 0
M  V30 30 H -3.80868 2.48418 -2.01129 0
M  V30 31 H -0.0844793 -0.471898 -1.46721 0
M  V30 32 H 1.70773 -1.63592 1.18372 0
M  V30 33 H 4.14145 -1.32809 1.50375 0
M  V30 34 H 6.26254 0.619931 -0.571232 0
M  V30 35 H 6.0358 0.667775 1.19485 0
M  V30 END ATOM
M  V30 BEGIN BOND
M  V30 1 1 1 2
M  V30 2 1 2 3
M  V30 3 1 3 4
M  V30 4 1 3 5
M  V30 5 1 5 6
M  V30 6 1 5 7
M  V30 7 1 7 8
M  V30 8 1 8 9
M  V30 9 1 7 10
M  V30 10 1 10 11
M  V30 11 1 11 12
M  V30 12 1 12 13
M  V30 13 2 13 14
M  V30 14 1 14 15
M  V30 15 1 15 16
M  V30 16 2 15 17
M  V30 17 1 17 18
M  V30 18 2 18 19
M  V30 19 1 11 2
M  V30 20 1 18 12
M  V30 21 1 1 20
M  V30 22 1 1 21
M  V30 23 1 2 22 CFG=1
M  V30 24 1 3 23 CFG=3
M  V30 25 1 4 24
M  V30 26 1 5 25 CFG=1
M  V30 27 1 6 26
M  V30 28 1 7 27 CFG=3
M  V30 29 1 8 28
M  V30 30 1 8 29
M  V30 31 1 9 30
M  V30 32 1 11 31 CFG=3
M  V30 33 1 13 32
M  V30 34 1 14 33
M  V30 35 1 16 34
M  V30 36 1 16 35
M  V30 END BOND
M  V30 END CTAB
M  END
