
     RDKit          3D

  0  0  0  0  0  0  0  0  0  0999 V3000
M  V30 BEGIN CTAB
M  V30 COUNTS 20 20 0 0 0
M  V30 BEGIN ATOM
M  V30 1 N -2.03678 -1.60066 1.04276 0
M  V30 2 C -1.06896 -0.78793 0.391876 0
M  V30 3 C 0.287876 -1.10138 0.418276 0
M  V30 4 C 1.24601 -0.330653 -0.204223 0
M  V30 5 S 2.98813 -0.726829 -0.174367 0
M  V30 6 C 3.19125 -2.20371 0.753771 0
M  V30 7 N 3.32291 -3.16761 1.34891 0
M  V30 8 C 0.871296 0.806448 -0.890437 0
M  V30 9 S 2.01365 1.87111 -1.72683 0
M  V30 10 C 2.61234 3.14622 -0.670352 0
M  V30 11 N 2.99026 3.98382 0.0114996 0
M  V30 12 C -0.478532 1.12112 -0.918536 0
M  V30 13 C -1.42731 0.358969 -0.302793 0
M  V30 14 N -2.80959 0.711915 -0.351378 0
M  V30 15 H -2.91876 -1.79469 0.527431 0
M  V30 16 H -1.92366 -2.01077 1.99097 0
M  V30 17 H 0.606991 -1.98386 0.947162 0
M  V30 18 H -0.79342 2.01137 -1.45297 0
M  V30 19 H -3.56012 0.0117942 -0.170211 0
M  V30 20 H -3.11356 1.68533 -0.570555 0
M  V30 END ATOM
M  V30 BEGIN BOND
M  V30 1 1 1 2
M  V30 2 2 2 3
M  V30 3 1 3 4
M  V30 4 1 4 5
M  V30 5 1 5 6
M  V30 6 3 6 7
M  V30 7 2 4 8
M  V30 8 1 8 9
M  V30 9 1 9 10
M  V30 10 3 10 11
M  V30 11 1 8 12
M  V30 12 2 12 13
M  V30 13 1 13 14
M  V30 14 1 13 2
M  V30 15 1 1 15
M  V30 16 1 1 16
M  V30 17 1 3 17
M  V30 18 1 12 18
M  V30 19 1 14 19
M  V30 20 1 14 20
M  V30 END BOND
M  V30 END CTAB
M  END
