
     RDKit          3D

  0  0  0  0  0  0  0  0  0  0999 V3000
M  V30 BEGIN CTAB
M  V30 COUNTS 24 25 0 0 0
M  V30 BEGIN ATOM
M  V30 1 N -3.7031 0.715649 0.936354 0
M  V30 2 C -3.44393 -0.651312 0.576427 0
M  V30 3 C -2.72358 -0.79503 -0.729203 0
M  V30 4 N -1.4357 -0.127177 -0.699808 0
M  V30 5 C -1.13508 1.14069 -1.02688 0
M  V30 6 N 0.204797 1.34356 -0.848521 0
M  V30 7 C 0.749301 0.200404 -0.407983 0
M  V30 8 C -0.285694 -0.700709 -0.322207 0
M  V30 9 C 2.14038 -0.0773246 -0.076147 0
M  V30 10 O 2.66127 -1.20453 0.355397 0
M  V30 11 N 3.93494 -1.09277 0.549302 0
M  V30 12 C 4.28928 0.151871 0.238798 0
M  V30 13 N 3.17219 0.785262 -0.150923 0
M  V30 14 N 5.62243 0.690123 0.315222 0
M  V30 15 H -3.7078 1.36153 0.123807 0
M  V30 16 H -3.09179 1.04406 1.70145 0
M  V30 17 H -4.43345 -1.16506 0.459399 0
M  V30 18 H -2.90653 -1.21258 1.37346 0
M  V30 19 H -2.61534 -1.88408 -0.930104 0
M  V30 20 H -3.35604 -0.390182 -1.54934 0
M  V30 21 H -1.87055 1.86642 -1.37615 0
M  V30 22 H -0.187641 -1.74341 0.0084349 0
M  V30 23 H 6.29591 0.454005 -0.432768 0
M  V30 24 H 5.82572 1.29059 1.12948 0
M  V30 END ATOM
M  V30 BEGIN BOND
M  V30 1 1 1 2
M  V30 2 1 2 3
M  V30 3 1 3 4
M  V30 4 1 4 5
M  V30 5 2 5 6
M  V30 6 1 6 7
M  V30 7 2 7 8
M  V30 8 1 7 9
M  V30 9 1 9 10
M  V30 10 1 10 11
M  V30 11 2 11 12
M  V30 12 1 12 13
M  V30 13 1 12 14
M  V30 14 1 8 4
M  V30 15 2 13 9
M  V30 16 1 1 15
M  V30 17 1 1 16
M  V30 18 1 2 17
M  V30 19 1 2 18
M  V30 20 1 3 19
M  V30 21 1 3 20
M  V30 22 1 5 21
M  V30 23 1 8 22
M  V30 24 1 14 23
M  V30 25 1 14 24
M  V30 END BOND
M  V30 END CTAB
M  END
