
     RDKit          3D

  0  0  0  0  0  0  0  0  0  0999 V3000
M  V30 BEGIN CTAB
M  V30 COUNTS 22 22 0 0 0
M  V30 BEGIN ATOM
M  V30 1 N 3.77847 -0.0854634 0.137903 0
M  V30 2 N 2.41391 -0.298452 0.140554 0
M  V30 3 C 1.54792 0.627747 -0.0789826 0
M  V30 4 C 0.125405 0.380968 -0.0710632 0
M  V30 5 C -0.878912 1.2992 -0.293156 0
M  V30 6 C -0.690936 2.74528 -0.588704 0
M  V30 7 N -2.02419 0.596483 -0.181771 0
M  V30 8 N -1.77585 -0.660187 0.0877077 0
M  V30 9 C -0.449943 -0.872142 0.172459 0
M  V30 10 N 0.248232 -2.07468 0.444422 0
M  V30 11 C -2.77016 -1.72268 0.278703 0
M  V30 12 H 4.17544 0.698453 -0.408878 0
M  V30 13 H 4.41812 -0.700407 0.677237 0
M  V30 14 H 1.90576 1.61185 -0.273156 0
M  V30 15 H -1.66061 3.23831 -0.474059 0
M  V30 16 H 0.0289304 3.22847 0.103635 0
M  V30 17 H -0.343919 2.85915 -1.63372 0
M  V30 18 H 0.0511249 -2.60438 1.31438 0
M  V30 19 H 0.952643 -2.41206 -0.235226 0
M  V30 20 H -2.94571 -2.18314 -0.722258 0
M  V30 21 H -3.7162 -1.23176 0.579483 0
M  V30 22 H -2.38955 -2.44058 1.02449 0
M  V30 END ATOM
M  V30 BEGIN BOND
M  V30 1 1 1 2
M  V30 2 2 2 3 CFG=2
M  V30 3 1 3 4
M  V30 4 1 4 5
M  V30 5 1 5 6
M  V30 6 2 5 7
M  V30 7 1 7 8
M  V30 8 1 8 9
M  V30 9 1 9 10
M  V30 10 1 8 11
M  V30 11 2 9 4
M  V30 12 1 1 12
M  V30 13 1 1 13
M  V30 14 1 3 14
M  V30 15 1 6 15
M  V30 16 1 6 16
M  V30 17 1 6 17
M  V30 18 1 10 18
M  V30 19 1 10 19
M  V30 20 1 11 20
M  V30 21 1 11 21
M  V30 22 1 11 22
M  V30 END BOND
M  V30 END CTAB
M  END
