
     RDKit          3D

  0  0  0  0  0  0  0  0  0  0999 V3000
M  V30 BEGIN CTAB
M  V30 COUNTS 47 49 0 0 0
M  V30 BEGIN ATOM
M  V30 1 N -5.90262 2.87141 2.12693 0
M  V30 2 C -5.19317 1.93895 1.30496 0
M  V30 3 N -3.84998 1.81045 1.40522 0
M  V30 4 C -3.1544 0.95414 0.656272 0
M  V30 5 N -3.80229 0.191894 -0.227917 0
M  V30 6 C -5.13927 0.248298 -0.400063 0
M  V30 7 C -5.86027 1.15087 0.391501 0
M  V30 8 N -5.82451 -0.5595 -1.33617 0
M  V30 9 S -1.36736 0.859703 0.869686 0
M  V30 10 C -0.678776 -0.355877 -0.254142 0
M  V30 11 C -1.08873 -1.73856 0.0208512 0
M  V30 12 C -1.7065 -2.47205 -0.961259 0
M  V30 13 C -2.11775 -3.7775 -0.76599 0
M  V30 14 C -1.90126 -4.364 0.455113 0
M  V30 15 C -1.28157 -3.65399 1.46723 0
M  V30 16 C -0.878298 -2.33944 1.23956 0
M  V30 17 C 0.828823 -0.235835 -0.186977 0
M  V30 18 O 1.44441 -1.28577 0.0515964 0
M  V30 19 N 1.43311 1.02906 -0.393813 0
M  V30 20 C 2.78359 1.358 -0.380697 0
M  V30 21 C 3.16479 2.70333 -0.437783 0
M  V30 22 C 4.46281 3.11865 -0.440239 0
M  V30 23 C 5.47078 2.16817 -0.383637 0
M  V30 24 C 5.14259 0.834887 -0.326615 0
M  V30 25 C 3.79626 0.450742 -0.32621 0
M  V30 26 C 6.1897 -0.178117 -0.268345 0
M  V30 27 O 5.88532 -1.38685 -0.217837 0
M  V30 28 C 7.63101 0.187323 -0.267193 0
M  V30 29 H -6.53989 3.56963 1.70049 0
M  V30 30 H -5.77842 2.84682 3.13969 0
M  V30 31 H -6.94322 1.23685 0.292824 0
M  V30 32 H -5.9113 -0.233584 -2.31166 0
M  V30 33 H -6.23235 -1.46227 -1.04939 0
M  V30 34 H -0.927246 -0.0427742 -1.29071 0
M  V30 35 H -1.8777 -2.01509 -1.91987 0
M  V30 36 H -2.6003 -4.33052 -1.55448 0
M  V30 37 H -2.23049 -5.40233 0.606031 0
M  V30 38 H -1.1035 -4.08713 2.41944 0
M  V30 39 H -0.391157 -1.79355 2.04866 0
M  V30 40 H 0.745771 1.82091 -0.58484 0
M  V30 41 H 2.40222 3.46404 -0.482237 0
M  V30 42 H 4.73247 4.1724 -0.485248 0
M  V30 43 H 6.51228 2.45864 -0.383495 0
M  V30 44 H 3.63384 -0.61275 -0.284197 0
M  V30 45 H 8.26674 -0.698262 -0.0737191 0
M  V30 46 H 7.81987 1.02666 0.420831 0
M  V30 47 H 7.93597 0.553906 -1.2881 0
M  V30 END ATOM
M  V30 BEGIN BOND
M  V30 1 1 1 2
M  V30 2 2 2 3
M  V30 3 1 3 4
M  V30 4 2 4 5
M  V30 5 1 5 6
M  V30 6 2 6 7
M  V30 7 1 6 8
M  V30 8 1 4 9
M  V30 9 1 9 10
M  V30 10 1 10 11
M  V30 11 2 11 12
M  V30 12 1 12 13
M  V30 13 2 13 14
M  V30 14 1 14 15
M  V30 15 2 15 16
M  V30 16 1 10 17
M  V30 17 2 17 18
M  V30 18 1 17 19
M  V30 19 1 19 20
M  V30 20 2 20 21
M  V30 21 1 21 22
M  V30 22 2 22 23
M  V30 23 1 23 24
M  V30 24 2 24 25
M  V30 25 1 24 26
M  V30 26 2 26 27
M  V30 27 1 26 28
M  V30 28 1 7 2
M  V30 29 1 16 11
M  V30 30 1 25 20
M  V30 31 1 1 29
M  V30 32 1 1 30
M  V30 33 1 7 31
M  V30 34 1 8 32
M  V30 35 1 8 33
M  V30 36 1 10 34
M  V30 37 1 12 35
M  V30 38 1 13 36
M  V30 39 1 14 37
M  V30 40 1 15 38
M  V30 41 1 16 39
M  V30 42 1 19 40
M  V30 43 1 21 41
M  V30 44 1 22 42
M  V30 45 1 23 43
M  V30 46 1 25 44
M  V30 47 1 28 45
M  V30 48 1 28 46
M  V30 49 1 28 47
M  V30 END BOND
M  V30 END CTAB
M  END
