
     RDKit          3D

  0  0  0  0  0  0  0  0  0  0999 V3000
M  V30 BEGIN CTAB
M  V30 COUNTS 21 21 0 0 0
M  V30 BEGIN ATOM
M  V30 1 N 3.67677 0.965997 -0.0782771 0
M  V30 2 C 3.0261 -0.276267 -0.149033 0
M  V30 3 S 3.87726 -1.64494 -0.21863 0
M  V30 4 C 1.57663 -0.325405 -0.159415 0
M  V30 5 C 0.868858 -0.182448 1.04247 0
M  V30 6 C -0.509608 -0.226472 1.05212 0
M  V30 7 C -1.24888 -0.409727 -0.0968951 0
M  V30 8 C -0.530523 -0.547204 -1.26169 0
M  V30 9 C 0.842938 -0.508707 -1.3101 0
M  V30 10 S -2.99362 -0.462576 -0.063966 0
M  V30 11 N -3.55298 1.16608 -0.281892 0
M  V30 12 O -3.46319 -0.903931 1.28767 0
M  V30 13 O -3.48626 -1.35877 -1.16328 0
M  V30 14 H 3.87097 1.3664 0.866102 0
M  V30 15 H 3.98511 1.52738 -0.894985 0
M  V30 16 H 1.46357 -0.0405819 1.92662 0
M  V30 17 H -0.991669 -0.108344 2.02084 0
M  V30 18 H -1.14229 -0.691998 -2.16298 0
M  V30 19 H 1.3686 -0.620512 -2.24347 0
M  V30 20 H -3.02275 1.5891 -1.04885 0
M  V30 21 H -3.61501 1.69293 0.590233 0
M  V30 END ATOM
M  V30 BEGIN BOND
M  V30 1 1 1 2
M  V30 2 2 2 3
M  V30 3 1 2 4
M  V30 4 2 4 5
M  V30 5 1 5 6
M  V30 6 2 6 7
M  V30 7 1 7 8
M  V30 8 2 8 9
M  V30 9 1 7 10
M  V30 10 1 10 11
M  V30 11 2 10 12
M  V30 12 2 10 13
M  V30 13 1 9 4
M  V30 14 1 1 14
M  V30 15 1 1 15
M  V30 16 1 5 16
M  V30 17 1 6 17
M  V30 18 1 8 18
M  V30 19 1 9 19
M  V30 20 1 11 20
M  V30 21 1 11 21
M  V30 END BOND
M  V30 END CTAB
M  END
