
     RDKit          3D

  0  0  0  0  0  0  0  0  0  0999 V3000
M  V30 BEGIN CTAB
M  V30 COUNTS 53 56 0 0 0
M  V30 BEGIN ATOM
M  V30 1 N 4.80748 -2.25188 -1.56204 0
M  V30 2 C 5.54966 -2.33438 -0.35625 0
M  V30 3 N 6.35478 -3.31698 -0.169127 0
M  V30 4 C 5.37403 -1.28894 0.648939 0
M  V30 5 C 4.51597 -0.235058 0.451617 0
M  V30 6 C 4.34792 0.751758 1.40035 0
M  V30 7 C 5.03609 0.723946 2.59271 0
M  V30 8 N 4.68673 1.79388 3.32304 0
M  V30 9 C 3.77876 2.538 2.64463 0
M  V30 10 C 3.55351 1.90368 1.44035 0
M  V30 11 C 2.65058 2.32781 0.363837 0
M  V30 12 C 1.41602 1.45611 0.405711 0
M  V30 13 O 1.35226 0.585887 1.27093 0
M  V30 14 N 0.415121 1.68942 -0.543794 0
M  V30 15 C -0.812075 0.9936 -0.681458 0
M  V30 16 C -1.68133 1.38668 -1.70538 0
M  V30 17 Br -1.1594 2.82299 -2.83726 0
M  V30 18 C -2.88203 0.73678 -1.87398 0
M  V30 19 C -3.30004 -0.297435 -1.08764 0
M  V30 20 C -2.44877 -0.684278 -0.0834589 0
M  V30 21 C -1.22069 -0.0440173 0.113951 0
M  V30 22 C -4.58222 -0.923317 -1.30414 0
M  V30 23 C -5.74645 -0.297632 -0.94445 0
M  V30 24 C -6.99331 -0.88507 -1.17405 0
M  V30 25 C -7.02359 -2.12119 -1.77594 0
M  V30 26 C -5.8686 -2.7857 -2.15312 0
M  V30 27 C -4.65373 -2.19107 -1.919 0
M  V30 28 S -5.73132 1.23851 -0.161175 0
M  V30 29 N -4.79672 1.19116 1.30841 0
M  V30 30 O -7.15303 1.58218 0.315502 0
M  V30 31 O -5.30626 2.38833 -0.979138 0
M  V30 32 C 5.89804 -0.338866 2.78556 0
M  V30 33 C 6.07782 -1.33334 1.84807 0
M  V30 34 H 5.28741 -2.5468 -2.45229 0
M  V30 35 H 3.83014 -1.92412 -1.63406 0
M  V30 36 H 6.48155 -4.05644 -0.873648 0
M  V30 37 H 3.93558 -0.141649 -0.465992 0
M  V30 38 H 5.07118 2.00318 4.27369 0
M  V30 39 H 3.30741 3.45739 2.96667 0
M  V30 40 H 3.10839 2.12112 -0.63115 0
M  V30 41 H 2.34005 3.38688 0.45797 0
M  V30 42 H 0.571754 2.48191 -1.26221 0
M  V30 43 H -3.51213 1.07922 -2.70656 0
M  V30 44 H -2.73785 -1.49372 0.557664 0
M  V30 45 H -0.599874 -0.387438 0.910617 0
M  V30 46 H -7.89643 -0.371691 -0.882411 0
M  V30 47 H -7.96192 -2.63364 -1.98307 0
M  V30 48 H -5.89851 -3.77063 -2.6322 0
M  V30 49 H -3.71635 -2.67872 -2.19993 0
M  V30 50 H -5.34137 1.41077 2.14523 0
M  V30 51 H -3.92989 1.77278 1.21655 0
M  V30 52 H 6.43771 -0.348657 3.73613 0
M  V30 53 H 6.76795 -2.14133 2.05654 0
M  V30 END ATOM
M  V30 BEGIN BOND
M  V30 1 1 1 2
M  V30 2 2 2 3 CFG=2
M  V30 3 1 2 4
M  V30 4 2 4 5
M  V30 5 1 5 6
M  V30 6 2 6 7
M  V30 7 1 7 8
M  V30 8 1 8 9
M  V30 9 2 9 10
M  V30 10 1 10 11
M  V30 11 1 11 12
M  V30 12 2 12 13
M  V30 13 1 12 14
M  V30 14 1 14 15
M  V30 15 2 15 16
M  V30 16 1 16 17
M  V30 17 1 16 18
M  V30 18 2 18 19
M  V30 19 1 19 20
M  V30 20 2 20 21
M  V30 21 1 19 22
M  V30 22 2 22 23
M  V30 23 1 23 24
M  V30 24 2 24 25
M  V30 25 1 25 26
M  V30 26 2 26 27
M  V30 27 1 23 28
M  V30 28 1 28 29
M  V30 29 2 28 30
M  V30 30 2 28 31
M  V30 31 1 7 32
M  V30 32 2 32 33
M  V30 33 1 33 4
M  V30 34 1 10 6
M  V30 35 1 21 15
M  V30 36 1 27 22
M  V30 37 1 1 34
M  V30 38 1 1 35
M  V30 39 1 3 36
M  V30 40 1 5 37
M  V30 41 1 8 38
M  V30 42 1 9 39
M  V30 43 1 11 40
M  V30 44 1 11 41
M  V30 45 1 14 42
M  V30 46 1 18 43
M  V30 47 1 20 44
M  V30 48 1 21 45
M  V30 49 1 24 46
M  V30 50 1 25 47
M  V30 51 1 26 48
M  V30 52 1 27 49
M  V30 53 1 29 50
M  V30 54 1 29 51
M  V30 55 1 32 52
M  V30 56 1 33 53
M  V30 END BOND
M  V30 END CTAB
M  END
