
     RDKit          3D

  0  0  0  0  0  0  0  0  0  0999 V3000
M  V30 BEGIN CTAB
M  V30 COUNTS 27 28 0 0 0
M  V30 BEGIN ATOM
M  V30 1 C -0.913853 -1.36925 -0.906563 0
M  V30 2 C -0.933416 -0.909097 0.544903 0 CFG=2
M  V30 3 O -2.22424 -1.10019 1.04374 0
M  V30 4 C -2.94047 0.0328417 1.27353 0
M  V30 5 C -2.77589 1.09242 0.213003 0
M  V30 6 O -1.4652 1.21101 -0.217438 0
M  V30 7 C -0.576818 0.524148 0.639716 0 CFG=2
M  V30 8 C 0.767398 0.886943 0.16892 0
M  V30 9 N 1.15976 2.13896 -0.238793 0
M  V30 10 N 2.40612 2.13894 -0.587708 0
M  V30 11 C 2.89007 0.905363 -0.429568 0
M  V30 12 N 1.86089 0.139601 0.0409099 0
M  V30 13 N 2.03473 -1.19777 0.316868 0
M  V30 14 N 4.1934 0.434934 -0.682587 0
M  V30 15 H -0.449289 -2.35091 -1.03782 0
M  V30 16 H -1.95122 -1.40453 -1.29508 0
M  V30 17 H -0.350106 -0.636288 -1.50667 0
M  V30 18 H -0.318309 -1.61653 1.12431 0
M  V30 19 H -4.02953 -0.24565 1.26663 0
M  V30 20 H -2.68074 0.449613 2.26924 0
M  V30 21 H -3.44182 0.836147 -0.630748 0
M  V30 22 H -3.13042 2.05028 0.647348 0
M  V30 23 H -0.733465 0.870208 1.69719 0
M  V30 24 H 2.13692 -1.94944 -0.39397 0
M  V30 25 H 2.06866 -1.49291 1.31645 0
M  V30 26 H 4.99057 1.06386 -0.424866 0
M  V30 27 H 4.40628 -0.502689 -1.11125 0
M  V30 END ATOM
M  V30 BEGIN BOND
M  V30 1 1 1 2
M  V30 2 1 2 3
M  V30 3 1 3 4
M  V30 4 1 4 5
M  V30 5 1 5 6
M  V30 6 1 6 7
M  V30 7 1 7 8
M  V30 8 2 8 9
M  V30 9 1 9 10
M  V30 10 2 10 11
M  V30 11 1 11 12
M  V30 12 1 12 13
M  V30 13 1 11 14
M  V30 14 1 7 2
M  V30 15 1 12 8
M  V30 16 1 1 15
M  V30 17 1 1 16
M  V30 18 1 1 17
M  V30 19 1 2 18 CFG=1
M  V30 20 1 4 19
M  V30 21 1 4 20
M  V30 22 1 5 21
M  V30 23 1 5 22
M  V30 24 1 7 23 CFG=1
M  V30 25 1 13 24
M  V30 26 1 13 25
M  V30 27 1 14 26
M  V30 28 1 14 27
M  V30 END BOND
M  V30 END CTAB
M  END
