
     RDKit          3D

  0  0  0  0  0  0  0  0  0  0999 V3000
M  V30 BEGIN CTAB
M  V30 COUNTS 25 25 0 0 0
M  V30 BEGIN ATOM
M  V30 1 N 2.75102 1.17942 -0.377155 0
M  V30 2 C 1.99304 -0.0273259 -0.107619 0
M  V30 3 C 0.637561 0.282853 0.482298 0
M  V30 4 C -0.133646 1.13294 -0.503479 0
M  V30 5 C -1.50097 1.48278 0.033408 0
M  V30 6 C -2.2874 0.191028 0.147503 0
M  V30 7 C -1.44861 -1.02842 0.00769924 0
M  V30 8 C -0.138882 -0.955368 0.766843 0
M  V30 9 N 0.596407 -2.17094 0.383195 0
M  V30 10 H 2.69041 1.87418 0.39394 0
M  V30 11 H 3.75884 0.897983 -0.447728 0
M  V30 12 H 1.86198 -0.537949 -1.08732 0
M  V30 13 H 2.55841 -0.706269 0.567503 0
M  V30 14 H 0.769042 0.877623 1.41376 0
M  V30 15 H 0.402082 2.05909 -0.696082 0
M  V30 16 H -0.276453 0.527509 -1.41576 0
M  V30 17 H -1.97123 2.1887 -0.656875 0
M  V30 18 H -1.43305 1.94262 1.05323 0
M  V30 19 H -2.90134 0.182022 1.08477 0
M  V30 20 H -3.02386 0.194002 -0.699134 0
M  V30 21 H -1.27448 -1.24166 -1.07774 0
M  V30 22 H -2.01203 -1.8919 0.420312 0
M  V30 23 H -0.350971 -1.07125 1.84897 0
M  V30 24 H 0.335399 -2.98291 0.962632 0
M  V30 25 H 0.398712 -2.39875 -0.62381 0
M  V30 END ATOM
M  V30 BEGIN BOND
M  V30 1 1 1 2
M  V30 2 1 2 3
M  V30 3 1 3 4
M  V30 4 1 4 5
M  V30 5 1 5 6
M  V30 6 1 6 7
M  V30 7 1 7 8
M  V30 8 1 8 9
M  V30 9 1 8 3
M  V30 10 1 1 10
M  V30 11 1 1 11
M  V30 12 1 2 12
M  V30 13 1 2 13
M  V30 14 1 3 14
M  V30 15 1 4 15
M  V30 16 1 4 16
M  V30 17 1 5 17
M  V30 18 1 5 18
M  V30 19 1 6 19
M  V30 20 1 6 20
M  V30 21 1 7 21
M  V30 22 1 7 22
M  V30 23 1 8 23
M  V30 24 1 9 24
M  V30 25 1 9 25
M  V30 END BOND
M  V30 END CTAB
M  END
