
     RDKit          3D

  0  0  0  0  0  0  0  0  0  0999 V3000
M  V30 BEGIN CTAB
M  V30 COUNTS 93 97 0 0 0
M  V30 BEGIN ATOM
M  V30 1 O 0.364759 1.71781 0.167301 0
M  V30 2 C -0.256606 0.823806 0.0341862 0
M  V30 3 C 0.546848 -0.258175 1.05238 0
M  V30 4 C 1.11447 0.64395 2.07678 0
M  V30 5 C 2.21988 -0.0705994 2.85477 0
M  V30 6 C 1.83721 -1.29157 3.4753 0
M  V30 7 O 2.48421 -2.36272 3.26648 0
M  V30 8 O 0.756894 -1.36424 4.31618 0
M  V30 9 N 3.33078 -0.0369452 1.91059 0
M  V30 10 C 4.14904 1.19906 1.93752 0
M  V30 11 O 3.81028 2.008 2.77761 0
M  V30 12 C 5.23271 1.29674 0.96399 0
M  V30 13 C 5.09663 0.613459 -0.245008 0
M  V30 14 C 6.08896 0.67208 -1.19967 0
M  V30 15 C 7.24972 1.38352 -1.03501 0
M  V30 16 C 7.39813 2.06695 0.148058 0
M  V30 17 C 6.38173 2.01765 1.1405 0
M  V30 18 N 8.23892 1.3493 -2.03243 0
M  V30 19 C 9.55325 1.99696 -1.94622 0
M  V30 20 C 10.4914 1.20349 -1.13055 0
M  V30 21 C 11.8479 1.31921 -1.3575 0
M  V30 22 N 12.7285 0.616342 -0.639727 0
M  V30 23 C 12.3359 -0.231017 0.337287 0
M  V30 24 C 11.0103 -0.340865 0.561353 0
M  V30 25 N 10.1013 0.342756 -0.143264 0
M  V30 26 C 10.5521 -1.19758 1.57937 0
M  V30 27 N 9.15773 -1.30782 1.77191 0
M  V30 28 N 11.4508 -1.88024 2.29256 0
M  V30 29 C 12.8036 -1.78227 2.07447 0
M  V30 30 N 13.1882 -0.960188 1.10342 0
M  V30 31 N 13.6541 -2.5612 2.88441 0
M  V30 32 C 8.10923 0.583805 -3.28961 0
M  V30 33 N -1.26258 0.104105 -0.465234 0
M  V30 34 C -2.29489 -0.626595 -0.981447 0
M  V30 35 C -3.58315 0.162026 -0.824771 0
M  V30 36 N -4.72832 -0.559861 -1.30602 0
M  V30 37 C -5.96402 0.149815 -1.27218 0
M  V30 38 O -6.02762 1.31585 -0.869876 0
M  V30 39 C -7.23228 -0.521368 -1.73125 0
M  V30 40 C -8.27605 0.530046 -1.85049 0
M  V30 41 C -9.67265 0.223805 -2.13431 0
M  V30 42 C -10.3593 -0.599003 -1.0256 0
M  V30 43 C -11.7936 -0.682396 -1.38853 0 CFG=2
M  V30 44 S -12.5136 1.02538 -1.52625 0
M  V30 45 C -14.2382 0.457894 -1.15271 0
M  V30 46 C -13.8921 -0.52952 -0.0602924 0
M  V30 47 C -12.6528 -1.24225 -0.286094 0
M  V30 48 N -11.8809 -1.02879 0.947537 0
M  V30 49 C -12.458 0.0201767 1.66473 0
M  V30 50 O -12.0144 0.792874 2.52401 0
M  V30 51 N -13.8266 0.0991387 1.21429 0
M  V30 52 H 1.2624 -0.679195 0.397304 0
M  V30 53 H -0.223882 -0.860375 1.4463 0
M  V30 54 H 0.319614 1.00104 2.78817 0
M  V30 55 H 1.62179 1.49214 1.59553 0
M  V30 56 H 2.49297 0.666632 3.70695 0
M  V30 57 H -0.0655925 -0.762615 4.21458 0
M  V30 58 H 3.5482 -0.794458 1.31959 0
M  V30 59 H 4.1829 0.0591251 -0.376928 0
M  V30 60 H 5.93818 0.11757 -2.1435 0
M  V30 61 H 8.27421 2.65082 0.304467 0
M  V30 62 H 6.53121 2.56717 2.04657 0
M  V30 63 H 9.90896 2.13711 -2.98715 0
M  V30 64 H 9.48248 3.00987 -1.49036 0
M  V30 65 H 12.1772 1.98897 -2.12737 0
M  V30 66 H 8.62328 -0.380517 1.76296 0
M  V30 67 H 8.60871 -2.14841 1.91275 0
M  V30 68 H 14.4707 -2.18545 3.40886 0
M  V30 69 H 13.4961 -3.60985 2.99001 0
M  V30 70 H 7.28029 -0.0997982 -3.33785 0
M  V30 71 H 9.03499 -0.0923761 -3.35943 0
M  V30 72 H 8.10033 1.31444 -4.12674 0
M  V30 73 H -1.54989 1.14728 -1.33994 0
M  V30 74 H -2.46745 -1.57402 -0.334521 0
M  V30 75 H -2.14497 -0.982378 -2.02873 0
M  V30 76 H -3.53353 1.10805 -1.4548 0
M  V30 77 H -3.72906 0.458561 0.226642 0
M  V30 78 H -4.67423 -1.56471 -1.67017 0
M  V30 79 H -7.05083 -1.03425 -2.70946 0
M  V30 80 H -7.4954 -1.28295 -1.00168 0
M  V30 81 H -7.94143 1.26151 -2.65522 0
M  V30 82 H -8.21045 1.16436 -0.91063 0
M  V30 83 H -10.2205 1.14928 -2.35717 0
M  V30 84 H -9.71132 -0.370105 -3.09649 0
M  V30 85 H -10.1335 -0.162144 -0.0471702 0
M  V30 86 H -9.85376 -1.59136 -1.09226 0
M  V30 87 H -12.0473 -1.15885 -2.32429 0
M  V30 88 H -14.6239 -0.092887 -2.01703 0
M  V30 89 H -14.8383 1.27201 -0.768068 0
M  V30 90 H -14.7406 -1.28067 -0.0985133 0
M  V30 91 H -12.7815 -2.35906 -0.430652 0
M  V30 92 H -11.0369 -1.56622 1.25046 0
M  V30 93 H -14.638 0.541397 1.732 0
M  V30 END ATOM
M  V30 BEGIN BOND
M  V30 1 2 1 2
M  V30 2 1 2 3
M  V30 3 1 3 4
M  V30 4 1 4 5
M  V30 5 1 5 6
M  V30 6 2 6 7
M  V30 7 1 6 8
M  V30 8 1 5 9
M  V30 9 1 9 10
M  V30 10 2 10 11
M  V30 11 1 10 12
M  V30 12 2 12 13
M  V30 13 1 13 14
M  V30 14 2 14 15
M  V30 15 1 15 16
M  V30 16 2 16 17
M  V30 17 1 15 18
M  V30 18 1 18 19
M  V30 19 1 19 20
M  V30 20 2 20 21
M  V30 21 1 21 22
M  V30 22 2 22 23
M  V30 23 1 23 24
M  V30 24 2 24 25
M  V30 25 1 24 26
M  V30 26 1 26 27
M  V30 27 2 26 28
M  V30 28 1 28 29
M  V30 29 2 29 30
M  V30 30 1 29 31
M  V30 31 1 18 32
M  V30 32 1 2 33
M  V30 33 1 33 34
M  V30 34 1 34 35
M  V30 35 1 35 36
M  V30 36 1 36 37
M  V30 37 2 37 38
M  V30 38 1 37 39
M  V30 39 1 39 40
M  V30 40 1 40 41
M  V30 41 1 41 42
M  V30 42 1 42 43
M  V30 43 1 43 44
M  V30 44 1 44 45
M  V30 45 1 45 46
M  V30 46 1 46 47
M  V30 47 1 47 48
M  V30 48 1 48 49
M  V30 49 2 49 50
M  V30 50 1 49 51
M  V30 51 1 17 12
M  V30 52 1 25 20
M  V30 53 1 47 43
M  V30 54 1 30 23
M  V30 55 1 51 46
M  V30 56 1 3 52
M  V30 57 1 3 53
M  V30 58 1 4 54
M  V30 59 1 4 55
M  V30 60 1 5 56
M  V30 61 1 8 57
M  V30 62 1 9 58
M  V30 63 1 13 59
M  V30 64 1 14 60
M  V30 65 1 16 61
M  V30 66 1 17 62
M  V30 67 1 19 63
M  V30 68 1 19 64
M  V30 69 1 21 65
M  V30 70 1 27 66
M  V30 71 1 27 67
M  V30 72 1 31 68
M  V30 73 1 31 69
M  V30 74 1 32 70
M  V30 75 1 32 71
M  V30 76 1 32 72
M  V30 77 1 33 73
M  V30 78 1 34 74
M  V30 79 1 34 75
M  V30 80 1 35 76
M  V30 81 1 35 77
M  V30 82 1 36 78
M  V30 83 1 39 79
M  V30 84 1 39 80
M  V30 85 1 40 81
M  V30 86 1 40 82
M  V30 87 1 41 83
M  V30 88 1 41 84
M  V30 89 1 42 85
M  V30 90 1 42 86
M  V30 91 1 43 87 CFG=3
M  V30 92 1 45 88
M  V30 93 1 45 89
M  V30 94 1 46 90
M  V30 95 1 47 91
M  V30 96 1 48 92
M  V30 97 1 51 93
M  V30 END BOND
M  V30 END CTAB
M  END
