
     RDKit          3D

  0  0  0  0  0  0  0  0  0  0999 V3000
M  V30 BEGIN CTAB
M  V30 COUNTS 58 60 0 0 0
M  V30 BEGIN ATOM
M  V30 1 N 4.2246 -4.45172 -0.642869 0
M  V30 2 C 3.66971 -3.70986 0.422979 0
M  V30 3 N 3.44404 -4.30093 1.54218 0
M  V30 4 C 3.33836 -2.28294 0.27421 0
M  V30 5 C 2.77355 -1.5919 1.32422 0
M  V30 6 C 2.4573 -0.249045 1.17397 0
M  V30 7 C 2.67461 0.460761 0.0172953 0
M  V30 8 C 3.25107 -0.26823 -1.03334 0
M  V30 9 C 3.57001 -1.60315 -0.898486 0
M  V30 10 C 2.32713 1.86329 -0.160968 0
M  V30 11 C 1.12859 2.402 -0.000118339 0
M  V30 12 C 1.00979 3.86145 -0.230947 0
M  V30 13 C -0.033658 4.32648 -1.15168 0
M  V30 14 C -1.45373 4.02916 -0.882694 0
M  V30 15 C -1.89086 4.68495 0.435455 0
M  V30 16 C -2.4796 3.67905 1.37118 0
M  V30 17 C -1.33377 2.94287 2.04152 0
M  V30 18 C -1.04922 1.68576 1.25119 0
M  V30 19 C -1.93277 0.721122 1.44114 0
M  V30 20 C -1.93493 -0.598492 0.839065 0
M  V30 21 C -2.8748 -0.918081 -0.133665 0
M  V30 22 C -3.01484 -2.13351 -0.702899 0
M  V30 23 C -2.17752 -3.18521 -0.321568 0
M  V30 24 C -1.23591 -2.89254 0.643255 0
M  V30 25 C -1.11329 -1.64109 1.20926 0
M  V30 26 C -2.31451 -4.49718 -0.931094 0
M  V30 27 N -3.2942 -4.69517 -1.9346 0
M  V30 28 N -1.57139 -5.46529 -0.582441 0
M  V30 29 C 0.0165784 1.52762 0.325592 0
M  V30 30 O 0.0494833 0.444721 -0.373268 0
M  V30 31 H 5.22481 -4.7334 -0.694114 0
M  V30 32 H 3.55671 -4.72533 -1.42526 0
M  V30 33 H 3.66812 -5.30974 1.65527 0
M  V30 34 H 2.58264 -2.11613 2.26494 0
M  V30 35 H 2.01384 0.273982 2.01412 0
M  V30 36 H 3.43501 0.268107 -1.95841 0
M  V30 37 H 4.01438 -2.16034 -1.7169 0
M  V30 38 H 3.17083 2.52242 -0.460333 0
M  V30 39 H 1.06347 4.36394 0.752347 0
M  V30 40 H 1.98126 4.24072 -0.692351 0
M  V30 41 H 0.19075 4.03726 -2.2236 0
M  V30 42 H 0.0544476 5.46018 -1.18997 0
M  V30 43 H -2.10246 4.54936 -1.66074 0
M  V30 44 H -1.77975 2.9861 -0.962959 0
M  V30 45 H -0.991386 5.11963 0.919983 0
M  V30 46 H -2.62161 5.48615 0.301072 0
M  V30 47 H -3.16573 4.16328 2.07735 0
M  V30 48 H -3.06824 2.93071 0.795517 0
M  V30 49 H -1.75732 2.63712 3.0492 0
M  V30 50 H -0.476157 3.53267 2.29218 0
M  V30 51 H -2.76872 0.964368 2.14982 0
M  V30 52 H -3.54073 -0.10272 -0.446243 0
M  V30 53 H -3.74903 -2.382 -1.46229 0
M  V30 54 H -0.559418 -3.70036 0.965296 0
M  V30 55 H -0.361766 -1.45055 1.96331 0
M  V30 56 H -4.28718 -4.34255 -1.79196 0
M  V30 57 H -3.13754 -5.17155 -2.84055 0
M  V30 58 H -0.819028 -5.48622 0.122096 0
M  V30 END ATOM
M  V30 BEGIN BOND
M  V30 1 1 1 2
M  V30 2 2 2 3 CFG=2
M  V30 3 1 2 4
M  V30 4 2 4 5
M  V30 5 1 5 6
M  V30 6 2 6 7
M  V30 7 1 7 8
M  V30 8 2 8 9
M  V30 9 1 7 10
M  V30 10 2 10 11
M  V30 11 1 11 12
M  V30 12 1 12 13
M  V30 13 1 13 14
M  V30 14 1 14 15
M  V30 15 1 15 16
M  V30 16 1 16 17
M  V30 17 1 17 18
M  V30 18 2 18 19
M  V30 19 1 19 20
M  V30 20 2 20 21
M  V30 21 1 21 22
M  V30 22 2 22 23
M  V30 23 1 23 24
M  V30 24 2 24 25
M  V30 25 1 23 26
M  V30 26 1 26 27
M  V30 27 2 26 28 CFG=2
M  V30 28 1 18 29
M  V30 29 2 29 30
M  V30 30 1 9 4
M  V30 31 1 29 11
M  V30 32 1 25 20
M  V30 33 1 1 31
M  V30 34 1 1 32
M  V30 35 1 3 33
M  V30 36 1 5 34
M  V30 37 1 6 35
M  V30 38 1 8 36
M  V30 39 1 9 37
M  V30 40 1 10 38
M  V30 41 1 12 39
M  V30 42 1 12 40
M  V30 43 1 13 41
M  V30 44 1 13 42
M  V30 45 1 14 43
M  V30 46 1 14 44
M  V30 47 1 15 45
M  V30 48 1 15 46
M  V30 49 1 16 47
M  V30 50 1 16 48
M  V30 51 1 17 49
M  V30 52 1 17 50
M  V30 53 1 19 51
M  V30 54 1 21 52
M  V30 55 1 22 53
M  V30 56 1 24 54
M  V30 57 1 25 55
M  V30 58 1 27 56
M  V30 59 1 27 57
M  V30 60 1 28 58
M  V30 END BOND
M  V30 END CTAB
M  END
