
     RDKit          3D

  0  0  0  0  0  0  0  0  0  0999 V3000
M  V30 BEGIN CTAB
M  V30 COUNTS 26 27 0 0 0
M  V30 BEGIN ATOM
M  V30 1 N -3.61967 2.45371 0.467911 0
M  V30 2 C -3.08499 1.17022 0.158874 0
M  V30 3 N -2.08114 0.718887 0.923832 0
M  V30 4 C -1.51313 -0.489171 0.702303 0
M  V30 5 C -0.424437 -0.909837 1.58589 0
M  V30 6 O 0.850604 -0.43913 1.22527 0
M  V30 7 C 1.47429 -0.705573 0.0455266 0
M  V30 8 O 0.938274 -1.40523 -0.814524 0
M  V30 9 C 2.80849 -0.138018 -0.182727 0
M  V30 10 C 3.61371 -0.273962 -1.28616 0
M  V30 11 C 4.80006 0.346778 -1.25475 0
M  V30 12 C 5.11017 1.06196 -0.130558 0
M  V30 13 S 3.73455 0.846359 0.850612 0
M  V30 14 Cl 6.59192 1.98094 0.198628 0
M  V30 15 N -2.01178 -1.1967 -0.317658 0
M  V30 16 C -3.01553 -0.789154 -1.11257 0
M  V30 17 N -3.54728 0.416766 -0.853683 0
M  V30 18 N -3.47755 -1.62342 -2.18034 0
M  V30 19 H -3.71703 2.83207 1.42544 0
M  V30 20 H -3.93712 3.05974 -0.320634 0
M  V30 21 H -0.647242 -0.502425 2.61541 0
M  V30 22 H -0.385876 -2.01202 1.70443 0
M  V30 23 H 3.29544 -0.875652 -2.17289 0
M  V30 24 H 5.54338 0.313147 -2.08795 0
M  V30 25 H -3.79651 -1.1875 -3.07525 0
M  V30 26 H -3.50163 -2.65277 -2.08231 0
M  V30 END ATOM
M  V30 BEGIN BOND
M  V30 1 1 1 2
M  V30 2 2 2 3
M  V30 3 1 3 4
M  V30 4 1 4 5
M  V30 5 1 5 6
M  V30 6 1 6 7
M  V30 7 2 7 8
M  V30 8 1 7 9
M  V30 9 2 9 10
M  V30 10 1 10 11
M  V30 11 2 11 12
M  V30 12 1 12 13
M  V30 13 1 12 14
M  V30 14 2 4 15
M  V30 15 1 15 16
M  V30 16 2 16 17
M  V30 17 1 16 18
M  V30 18 1 17 2
M  V30 19 1 13 9
M  V30 20 1 1 19
M  V30 21 1 1 20
M  V30 22 1 5 21
M  V30 23 1 5 22
M  V30 24 1 10 23
M  V30 25 1 11 24
M  V30 26 1 18 25
M  V30 27 1 18 26
M  V30 END BOND
M  V30 END CTAB
M  END
