
     RDKit          3D

  0  0  0  0  0  0  0  0  0  0999 V3000
M  V30 BEGIN CTAB
M  V30 COUNTS 18 18 0 0 0
M  V30 BEGIN ATOM
M  V30 1 O -3.46573 0.17881 0.000298889 0 CHG=-1
M  V30 2 N -2.48828 -0.737219 -0.230206 0 CHG=1
M  V30 3 O -2.86186 -1.88087 -0.619412 0
M  V30 4 C -1.10263 -0.511248 -0.0696619 0
M  V30 5 C -0.227419 -1.53497 0.223793 0
M  V30 6 C 1.1285 -1.32401 0.382533 0
M  V30 7 F 1.98166 -2.35996 0.674923 0
M  V30 8 C 1.61923 -0.0427974 0.241531 0
M  V30 9 C 0.754501 0.991327 -0.0521554 0
M  V30 10 C -0.615219 0.764397 -0.21019 0
M  V30 11 N -1.5116 1.80859 -0.510036 0
M  V30 12 N 3.01661 0.195907 0.401549 0
M  V30 13 H -0.573211 -2.54905 0.3415 0
M  V30 14 H 1.11671 1.99642 -0.165956 0
M  V30 15 H -2.16014 2.2631 0.16968 0
M  V30 16 H -1.55858 2.18922 -1.49678 0
M  V30 17 H 3.32063 0.604739 1.30672 0
M  V30 18 H 3.62681 -0.0523809 -0.388135 0
M  V30 END ATOM
M  V30 BEGIN BOND
M  V30 1 1 1 2
M  V30 2 2 2 3
M  V30 3 1 2 4
M  V30 4 2 4 5
M  V30 5 1 5 6
M  V30 6 1 6 7
M  V30 7 2 6 8
M  V30 8 1 8 9
M  V30 9 2 9 10
M  V30 10 1 10 11
M  V30 11 1 8 12
M  V30 12 1 10 4
M  V30 13 1 5 13
M  V30 14 1 9 14
M  V30 15 1 11 15
M  V30 16 1 11 16
M  V30 17 1 12 17
M  V30 18 1 12 18
M  V30 END BOND
M  V30 END CTAB
M  END
