
     RDKit          3D

  0  0  0  0  0  0  0  0  0  0999 V3000
M  V30 BEGIN CTAB
M  V30 COUNTS 40 41 0 0 0
M  V30 BEGIN ATOM
M  V30 1 C -6.60308 0.745363 0.627224 0
M  V30 2 O -5.75992 0.133639 -0.302485 0
M  V30 3 C -4.38803 0.202683 -0.116482 0
M  V30 4 C -3.84534 0.861879 0.965575 0
M  V30 5 C -2.50473 0.924201 1.13867 0
M  V30 6 C -1.63432 0.319383 0.221006 0
M  V30 7 C -2.18103 -0.333019 -0.849505 0
M  V30 8 C -3.56327 -0.392905 -1.02146 0
M  V30 9 N -4.10797 -1.07363 -2.13803 0
M  V30 10 N -0.251001 0.378639 0.424927 0
M  V30 11 C 0.800308 0.124697 -0.468752 0
M  V30 12 O 0.58769 -0.204147 -1.64316 0
M  V30 13 C 2.21976 0.260642 0.0316378 0
M  V30 14 C 2.4564 -0.676272 1.14262 0
M  V30 15 C 3.82147 -1.20494 1.3106 0
M  V30 16 C 4.6903 -1.19097 0.109196 0
M  V30 17 C 4.56898 0.0867049 -0.695103 0
M  V30 18 C 3.12111 0.154719 -1.13794 0
M  V30 19 N 4.95783 1.22822 0.0871351 0
M  V30 20 H -7.66761 0.699011 0.332281 0
M  V30 21 H -6.47143 0.305319 1.64917 0
M  V30 22 H -6.36954 1.83462 0.740851 0
M  V30 23 H -4.54658 1.32503 1.66639 0
M  V30 24 H -2.08864 1.43668 1.9779 0
M  V30 25 H -1.59383 -0.84267 -1.60955 0
M  V30 26 H -5.023 -1.53679 -2.0456 0
M  V30 27 H -3.58608 -1.10034 -3.03215 0
M  V30 28 H 0.0230412 0.662547 1.44144 0
M  V30 29 H 2.27176 1.32415 0.404832 0
M  V30 30 H 2.16389 -0.157897 2.1041 0
M  V30 31 H 1.70867 -1.51989 1.06609 0
M  V30 32 H 4.37993 -0.69032 2.1432 0
M  V30 33 H 3.747 -2.27585 1.664 0
M  V30 34 H 5.7478 -1.30543 0.442474 0
M  V30 35 H 4.4045 -2.02598 -0.578443 0
M  V30 36 H 5.20784 0.00741471 -1.59045 0
M  V30 37 H 3.02303 1.05045 -1.77176 0
M  V30 38 H 2.93645 -0.762134 -1.74658 0
M  V30 39 H 4.84051 1.1129 1.1058 0
M  V30 40 H 4.50714 2.11431 -0.186809 0
M  V30 END ATOM
M  V30 BEGIN BOND
M  V30 1 1 1 2
M  V30 2 1 2 3
M  V30 3 2 3 4
M  V30 4 1 4 5
M  V30 5 2 5 6
M  V30 6 1 6 7
M  V30 7 2 7 8
M  V30 8 1 8 9
M  V30 9 1 6 10
M  V30 10 1 10 11
M  V30 11 2 11 12
M  V30 12 1 11 13
M  V30 13 1 13 14
M  V30 14 1 14 15
M  V30 15 1 15 16
M  V30 16 1 16 17
M  V30 17 1 17 18
M  V30 18 1 17 19
M  V30 19 1 8 3
M  V30 20 1 18 13
M  V30 21 1 1 20
M  V30 22 1 1 21
M  V30 23 1 1 22
M  V30 24 1 4 23
M  V30 25 1 5 24
M  V30 26 1 7 25
M  V30 27 1 9 26
M  V30 28 1 9 27
M  V30 29 1 10 28
M  V30 30 1 13 29
M  V30 31 1 14 30
M  V30 32 1 14 31
M  V30 33 1 15 32
M  V30 34 1 15 33
M  V30 35 1 16 34
M  V30 36 1 16 35
M  V30 37 1 17 36
M  V30 38 1 18 37
M  V30 39 1 18 38
M  V30 40 1 19 39
M  V30 41 1 19 40
M  V30 END BOND
M  V30 END CTAB
M  END
