
     RDKit          3D

  0  0  0  0  0  0  0  0  0  0999 V3000
M  V30 BEGIN CTAB
M  V30 COUNTS 29 30 0 0 0
M  V30 BEGIN ATOM
M  V30 1 N -4.87458 0.485045 0.987411 0
M  V30 2 C -3.8558 0.0526068 0.0798719 0
M  V30 3 C -2.54181 0.209388 0.470055 0
M  V30 4 N -2.25272 0.78178 1.73081 0
M  V30 5 C -1.56575 -0.211165 -0.41308 0
M  V30 6 N -0.209154 -0.0574004 -0.0279346 0
M  V30 7 C 0.819001 -0.504048 -0.966216 0
M  V30 8 C 2.17371 -0.287788 -0.444682 0
M  V30 9 C 2.80005 0.927339 -0.722475 0
M  V30 10 C 4.07194 1.21767 -0.273447 0
M  V30 11 C 4.77214 0.294608 0.477662 0
M  V30 12 C 4.14514 -0.902683 0.746848 0
M  V30 13 C 2.87889 -1.19343 0.300606 0
M  V30 14 N -1.91648 -0.753404 -1.6102 0
M  V30 15 C -3.2021 -0.901428 -1.98023 0
M  V30 16 N -4.15055 -0.49062 -1.11738 0
M  V30 17 H -5.43738 1.31794 0.691035 0
M  V30 18 H -5.07942 0.0391593 1.88544 0
M  V30 19 H -2.40384 0.247953 2.61731 0
M  V30 20 H -1.8852 1.73891 1.82233 0
M  V30 21 H 0.0653335 0.347709 0.866934 0
M  V30 22 H 0.676841 0.00736365 -1.92801 0
M  V30 23 H 0.699485 -1.59258 -1.16161 0
M  V30 24 H 2.30592 1.69353 -1.30594 0
M  V30 25 H 4.55921 2.15275 -0.484783 0
M  V30 26 H 5.77777 0.48232 0.852157 0
M  V30 27 H 4.68574 -1.62641 1.33191 0
M  V30 28 H 2.39106 -2.1381 0.516155 0
M  V30 29 H -3.44747 -1.337 -2.94053 0
M  V30 END ATOM
M  V30 BEGIN BOND
M  V30 1 1 1 2
M  V30 2 2 2 3
M  V30 3 1 3 4
M  V30 4 1 3 5
M  V30 5 1 5 6
M  V30 6 1 6 7
M  V30 7 1 7 8
M  V30 8 2 8 9
M  V30 9 1 9 10
M  V30 10 2 10 11
M  V30 11 1 11 12
M  V30 12 2 12 13
M  V30 13 2 5 14
M  V30 14 1 14 15
M  V30 15 2 15 16
M  V30 16 1 16 2
M  V30 17 1 13 8
M  V30 18 1 1 17
M  V30 19 1 1 18
M  V30 20 1 4 19
M  V30 21 1 4 20
M  V30 22 1 6 21
M  V30 23 1 7 22
M  V30 24 1 7 23
M  V30 25 1 9 24
M  V30 26 1 10 25
M  V30 27 1 11 26
M  V30 28 1 12 27
M  V30 29 1 13 28
M  V30 30 1 15 29
M  V30 END BOND
M  V30 END CTAB
M  END
