
     RDKit          3D

  0  0  0  0  0  0  0  0  0  0999 V3000
M  V30 BEGIN CTAB
M  V30 COUNTS 25 26 0 0 0
M  V30 BEGIN ATOM
M  V30 1 N 0.790599 2.6652 0.0889959 0
M  V30 2 C -0.0318013 1.51436 -0.124312 0 CFG=2
M  V30 3 C -0.887059 1.19797 1.11617 0
M  V30 4 C -1.96572 0.260733 0.66182 0
M  V30 5 C -1.42993 -0.830468 -0.200892 0 CFG=1
M  V30 6 C 0.0393049 -0.907049 -0.320986 0
M  V30 7 C 0.747424 0.270625 -0.29727 0
M  V30 8 C 2.10903 0.221045 -0.420322 0
M  V30 9 C 2.7504 -1.02425 -0.566823 0
M  V30 10 Br 4.63877 -1.06354 -0.735329 0
M  V30 11 C 2.01482 -2.1891 -0.586699 0
M  V30 12 N 0.68365 -2.11057 -0.464479 0
M  V30 13 N -2.00662 -2.11692 0.171169 0
M  V30 14 H 0.569838 3.3741 -0.625992 0
M  V30 15 H 0.711821 3.04928 1.03508 0
M  V30 16 H -0.704988 1.63414 -1.00679 0
M  V30 17 H -0.260498 0.623243 1.85914 0
M  V30 18 H -1.24658 2.10167 1.59841 0
M  V30 19 H -2.49566 -0.144897 1.5679 0
M  V30 20 H -2.69224 0.913862 0.0834226 0
M  V30 21 H -1.79569 -0.671754 -1.26545 0
M  V30 22 H 2.67286 1.14381 -0.402937 0
M  V30 23 H 2.5429 -3.13126 -0.701088 0
M  V30 24 H -1.71194 -2.79219 -0.584461 0
M  V30 25 H -3.0427 -1.98804 0.121719 0
M  V30 END ATOM
M  V30 BEGIN BOND
M  V30 1 1 1 2
M  V30 2 1 2 3
M  V30 3 1 3 4
M  V30 4 1 4 5
M  V30 5 1 5 6
M  V30 6 2 6 7
M  V30 7 1 7 8
M  V30 8 2 8 9
M  V30 9 1 9 10
M  V30 10 1 9 11
M  V30 11 2 11 12
M  V30 12 1 5 13
M  V30 13 1 7 2
M  V30 14 1 12 6
M  V30 15 1 1 14
M  V30 16 1 1 15
M  V30 17 1 2 16 CFG=3
M  V30 18 1 3 17
M  V30 19 1 3 18
M  V30 20 1 4 19
M  V30 21 1 4 20
M  V30 22 1 5 21 CFG=3
M  V30 23 1 8 22
M  V30 24 1 11 23
M  V30 25 1 13 24
M  V30 26 1 13 25
M  V30 END BOND
M  V30 END CTAB
M  END
