
     RDKit          3D

  0  0  0  0  0  0  0  0  0  0999 V3000
M  V30 BEGIN CTAB
M  V30 COUNTS 86 87 0 0 0
M  V30 BEGIN ATOM
M  V30 1 C 0.843257 1.57906 -1.50639 0 CFG=1
M  V30 2 C 0.370802 2.63087 -0.603931 0
M  V30 3 C 1.29475 3.8612 -0.682598 0
M  V30 4 C 0.705558 4.87609 0.251424 0
M  V30 5 N 1.43531 6.10942 0.313708 0
M  V30 6 C 0.946989 7.15364 1.1386 0
M  V30 7 N 0.335301 8.28936 0.53432 0
M  V30 8 N 1.02901 7.12149 2.42012 0
M  V30 9 N 2.16098 1.0918 -1.25616 0
M  V30 10 C 2.40461 0.269809 -0.142789 0
M  V30 11 O 1.55209 -0.0803933 0.687761 0
M  V30 12 C 3.83388 -0.245255 0.0776366 0 CFG=2
M  V30 13 C 4.17079 -0.999116 -1.17925 0
M  V30 14 C 5.51389 -1.55786 -1.168 0
M  V30 15 C 6.61152 -0.765709 -1.55994 0
M  V30 16 C 7.87721 -1.28754 -1.60705 0
M  V30 17 C 8.15965 -2.5964 -1.28063 0
M  V30 18 O 9.45222 -3.10932 -1.33441 0
M  V30 19 C 7.07734 -3.36217 -0.89798 0
M  V30 20 C 5.79995 -2.8617 -0.843068 0
M  V30 21 N 3.76608 -1.01004 1.27738 0
M  V30 22 C 4.90137 -1.37147 2.02697 0
M  V30 23 N 4.87806 -2.62424 2.72344 0
M  V30 24 N 5.95646 -0.620437 2.14136 0
M  V30 25 C -0.0845694 0.412519 -1.49982 0
M  V30 26 O 0.256071 -0.675911 -2.03244 0
M  V30 27 N -1.34074 0.535347 -0.896503 0
M  V30 28 C -2.23775 -0.646196 -0.943856 0 CFG=1
M  V30 29 C -1.76926 -1.46835 0.257829 0
M  V30 30 C -2.48346 -2.71405 0.491491 0
M  V30 31 C -2.14166 -3.87655 -0.164543 0
M  V30 32 C -2.77555 -5.08299 0.0776042 0
M  V30 33 C -3.78638 -5.0936 1.01773 0
M  V30 34 C -4.13891 -3.93511 1.68146 0
M  V30 35 C -3.49825 -2.75553 1.42544 0
M  V30 36 C -3.63368 -0.262115 -0.923389 0
M  V30 37 O -3.95155 0.911568 -0.647554 0
M  V30 38 N -4.64052 -1.20499 -1.22061 0
M  V30 39 C -6.03551 -0.897955 -1.21042 0
M  V30 40 C -6.50062 -0.49275 0.154768 0
M  V30 41 C -7.99384 -0.182696 0.158679 0
M  V30 42 C -8.36167 0.208592 1.57279 0
M  V30 43 O -9.70472 0.518988 1.72451 0
M  V30 44 H 0.804752 1.95025 -2.56214 0
M  V30 45 H 0.337096 2.27798 0.444516 0
M  V30 46 H -0.626182 3.03853 -0.886348 0
M  V30 47 H 2.33126 3.58291 -0.420612 0
M  V30 48 H 1.28504 4.23385 -1.72139 0
M  V30 49 H -0.354739 5.04614 -0.0948534 0
M  V30 50 H 0.616331 4.40567 1.26738 0
M  V30 51 H 2.30329 6.21533 -0.242633 0
M  V30 52 H -0.658133 8.51412 0.742469 0
M  V30 53 H 0.869181 8.89467 -0.109605 0
M  V30 54 H 1.46295 6.31721 2.91913 0
M  V30 55 H 2.92842 1.35349 -1.90005 0
M  V30 56 H 4.43865 0.675276 0.191892 0
M  V30 57 H 3.4082 -1.83083 -1.30301 0
M  V30 58 H 3.98545 -0.35475 -2.09264 0
M  V30 59 H 6.38914 0.279494 -1.81989 0
M  V30 60 H 8.7183 -0.652863 -1.91441 0
M  V30 61 H 9.72491 -3.51969 -2.23911 0
M  V30 62 H 7.2735 -4.40159 -0.634933 0
M  V30 63 H 4.94935 -3.48315 -0.536517 0
M  V30 64 H 2.83043 -1.34906 1.67081 0
M  V30 65 H 5.41982 -3.41254 2.32916 0
M  V30 66 H 4.31999 -2.69411 3.59411 0
M  V30 67 H 5.95957 0.315116 1.64159 0
M  V30 68 H -1.66136 1.39722 -0.428449 0
M  V30 69 H -1.9311 -1.27277 -1.82002 0
M  V30 70 H -0.689145 -1.70731 -0.000745181 0
M  V30 71 H -1.69837 -0.82068 1.16643 0
M  V30 72 H -1.34462 -3.90442 -0.917008 0
M  V30 73 H -2.47012 -5.9781 -0.468458 0
M  V30 74 H -4.3153 -6.00109 1.24755 0
M  V30 75 H -4.94376 -3.95824 2.42932 0
M  V30 76 H -3.81952 -1.85994 1.98509 0
M  V30 77 H -4.38388 -2.20198 -1.48605 0
M  V30 78 H -6.64044 -1.75859 -1.61226 0
M  V30 79 H -6.27092 -0.0378679 -1.89215 0
M  V30 80 H -5.92464 0.347737 0.523665 0
M  V30 81 H -6.31783 -1.37268 0.828936 0
M  V30 82 H -8.57998 -1.04961 -0.204979 0
M  V30 83 H -8.11476 0.713226 -0.507576 0
M  V30 84 H -8.01437 -0.606171 2.23601 0
M  V30 85 H -7.72494 1.1021 1.80801 0
M  V30 86 H -10.1261 -0.22156 2.23608 0
M  V30 END ATOM
M  V30 BEGIN BOND
M  V30 1 1 1 2
M  V30 2 1 2 3
M  V30 3 1 3 4
M  V30 4 1 4 5
M  V30 5 1 5 6
M  V30 6 1 6 7
M  V30 7 2 6 8 CFG=2
M  V30 8 1 1 9
M  V30 9 1 9 10
M  V30 10 2 10 11
M  V30 11 1 10 12
M  V30 12 1 12 13
M  V30 13 1 13 14
M  V30 14 2 14 15
M  V30 15 1 15 16
M  V30 16 2 16 17
M  V30 17 1 17 18
M  V30 18 1 17 19
M  V30 19 2 19 20
M  V30 20 1 12 21
M  V30 21 1 21 22
M  V30 22 1 22 23
M  V30 23 2 22 24 CFG=2
M  V30 24 1 1 25
M  V30 25 2 25 26
M  V30 26 1 25 27
M  V30 27 1 27 28
M  V30 28 1 28 29
M  V30 29 1 29 30
M  V30 30 2 30 31
M  V30 31 1 31 32
M  V30 32 2 32 33
M  V30 33 1 33 34
M  V30 34 2 34 35
M  V30 35 1 28 36
M  V30 36 2 36 37
M  V30 37 1 36 38
M  V30 38 1 38 39
M  V30 39 1 39 40
M  V30 40 1 40 41
M  V30 41 1 41 42
M  V30 42 1 42 43
M  V30 43 1 20 14
M  V30 44 1 35 30
M  V30 45 1 1 44 CFG=3
M  V30 46 1 2 45
M  V30 47 1 2 46
M  V30 48 1 3 47
M  V30 49 1 3 48
M  V30 50 1 4 49
M  V30 51 1 4 50
M  V30 52 1 5 51
M  V30 53 1 7 52
M  V30 54 1 7 53
M  V30 55 1 8 54
M  V30 56 1 9 55
M  V30 57 1 12 56 CFG=1
M  V30 58 1 13 57
M  V30 59 1 13 58
M  V30 60 1 15 59
M  V30 61 1 16 60
M  V30 62 1 18 61
M  V30 63 1 19 62
M  V30 64 1 20 63
M  V30 65 1 21 64
M  V30 66 1 23 65
M  V30 67 1 23 66
M  V30 68 1 24 67
M  V30 69 1 27 68
M  V30 70 1 28 69 CFG=3
M  V30 71 1 29 70
M  V30 72 1 29 71
M  V30 73 1 31 72
M  V30 74 1 32 73
M  V30 75 1 33 74
M  V30 76 1 34 75
M  V30 77 1 35 76
M  V30 78 1 38 77
M  V30 79 1 39 78
M  V30 80 1 39 79
M  V30 81 1 40 80
M  V30 82 1 40 81
M  V30 83 1 41 82
M  V30 84 1 41 83
M  V30 85 1 42 84
M  V30 86 1 42 85
M  V30 87 1 43 86
M  V30 END BOND
M  V30 END CTAB
M  END
