
     RDKit          3D

  0  0  0  0  0  0  0  0  0  0999 V3000
M  V30 BEGIN CTAB
M  V30 COUNTS 27 27 0 0 0
M  V30 BEGIN ATOM
M  V30 1 C 1.40715 -1.72088 -1.57943 0
M  V30 2 N 1.33277 -0.676439 -0.53365 0
M  V30 3 C 0.0480166 -0.399562 -0.0441801 0
M  V30 4 C -0.265574 -0.112644 1.24723 0
M  V30 5 C -1.57992 0.23376 1.61082 0
M  V30 6 C -2.52271 0.265899 0.605124 0
M  V30 7 C -2.22591 -0.0225561 -0.702362 0
M  V30 8 N -0.951867 -0.345243 -0.987632 0
M  V30 9 N -3.21618 0.012554 -1.74272 0
M  V30 10 N -3.87744 0.638829 0.912699 0
M  V30 11 C 2.53695 -0.000957007 -0.244231 0
M  V30 12 C 2.61562 0.838853 0.981568 0
M  V30 13 C 3.95699 1.48858 0.985447 0
M  V30 14 N 4.97475 2.00059 0.964734 0
M  V30 15 H 0.561888 -2.39973 -1.49542 0
M  V30 16 H 2.39901 -2.20588 -1.49928 0
M  V30 17 H 1.34705 -1.17634 -2.54971 0
M  V30 18 H 0.453836 -0.147843 2.05272 0
M  V30 19 H -1.85711 0.464708 2.62679 0
M  V30 20 H -2.92726 -0.114504 -2.73301 0
M  V30 21 H -4.20161 0.165465 -1.52604 0
M  V30 22 H -4.504 1.08296 0.235457 0
M  V30 23 H -4.26743 0.456836 1.87523 0
M  V30 24 H 2.79083 0.654946 -1.17178 0
M  V30 25 H 3.42359 -0.708301 -0.230848 0
M  V30 26 H 1.87734 1.61407 1.09624 0
M  V30 27 H 2.67124 0.112834 1.84623 0
M  V30 END ATOM
M  V30 BEGIN BOND
M  V30 1 1 1 2
M  V30 2 1 2 3
M  V30 3 2 3 4
M  V30 4 1 4 5
M  V30 5 2 5 6
M  V30 6 1 6 7
M  V30 7 2 7 8
M  V30 8 1 7 9
M  V30 9 1 6 10
M  V30 10 1 2 11
M  V30 11 1 11 12
M  V30 12 1 12 13
M  V30 13 3 13 14
M  V30 14 1 8 3
M  V30 15 1 1 15
M  V30 16 1 1 16
M  V30 17 1 1 17
M  V30 18 1 4 18
M  V30 19 1 5 19
M  V30 20 1 9 20
M  V30 21 1 9 21
M  V30 22 1 10 22
M  V30 23 1 10 23
M  V30 24 1 11 24
M  V30 25 1 11 25
M  V30 26 1 12 26
M  V30 27 1 12 27
M  V30 END BOND
M  V30 END CTAB
M  END
