
     RDKit          3D

  0  0  0  0  0  0  0  0  0  0999 V3000
M  V30 BEGIN CTAB
M  V30 COUNTS 78 81 0 0 0
M  V30 BEGIN ATOM
M  V30 1 N 6.54722 -5.79979 -0.753691 0
M  V30 2 C 6.85781 -4.58345 -1.40868 0
M  V30 3 N 7.88497 -4.48633 -2.17723 0
M  V30 4 N 6.03069 -3.45022 -1.21503 0
M  V30 5 C 6.5519 -2.09781 -1.2139 0
M  V30 6 C 5.4201 -1.13161 -1.01624 0
M  V30 7 C 4.802 -1.41721 0.319631 0
M  V30 8 O 5.2364 -2.36294 1.00583 0
M  V30 9 N 3.7429 -0.575533 0.740381 0
M  V30 10 C 3.26586 0.452323 -0.125072 0
M  V30 11 C 1.92748 1.05881 0.253714 0
M  V30 12 N 1.62276 1.0205 1.65536 0
M  V30 13 C 2.80563 0.690536 2.50953 0
M  V30 14 C 3.15957 -0.739212 2.09 0
M  V30 15 C 0.407187 1.21314 2.21432 0
M  V30 16 O 0.353125 1.19974 3.4999 0
M  V30 17 C -0.935091 1.43847 1.56391 0 CFG=2
M  V30 18 C -0.864863 2.63963 0.695847 0
M  V30 19 C -2.10196 3.07028 0.0350596 0
M  V30 20 C -2.41424 2.68535 -1.2308 0
M  V30 21 C -3.61157 3.15267 -1.79064 0
M  V30 22 C -4.43632 3.97709 -1.06225 0
M  V30 23 C -4.13248 4.37701 0.227438 0
M  V30 24 C -2.95823 3.90585 0.750864 0
M  V30 25 C -5.06713 5.25536 0.917125 0
M  V30 26 N -6.25469 5.71136 0.274328 0
M  V30 27 N -4.87621 5.65981 2.09893 0
M  V30 28 N -1.94599 1.51014 2.54853 0
M  V30 29 S -2.91058 0.319974 3.06793 0
M  V30 30 O -2.13001 -0.817043 3.78645 0
M  V30 31 O -3.8561 0.881431 4.18445 0
M  V30 32 C -3.98528 -0.492066 1.97996 0
M  V30 33 C -3.44559 -1.27854 0.893146 0
M  V30 34 C -3.45807 -0.877 -0.408928 0
M  V30 35 C -2.92808 -1.62801 -1.43887 0
M  V30 36 C -2.35005 -2.84619 -1.1789 0
M  V30 37 C -1.80932 -3.61341 -2.18251 0
M  V30 38 C -1.84258 -3.15698 -3.50345 0
M  V30 39 C -2.41634 -1.93466 -3.80281 0
M  V30 40 C -2.94266 -1.20388 -2.75711 0
M  V30 41 C -2.33229 -3.26361 0.15104 0
M  V30 42 C -2.858 -2.52138 1.17245 0
M  V30 43 H 5.55162 -5.97677 -0.449293 0
M  V30 44 H 7.30158 -6.50525 -0.579595 0
M  V30 45 H 8.16935 -3.63341 -2.68547 0
M  V30 46 H 5.00626 -3.60486 -1.07467 0
M  V30 47 H 7.12265 -1.85509 -2.12107 0
M  V30 48 H 7.20811 -1.96972 -0.293657 0
M  V30 49 H 5.76532 -0.0694697 -1.05068 0
M  V30 50 H 4.6776 -1.30808 -1.83724 0
M  V30 51 H 3.16798 0.0789877 -1.16393 0
M  V30 52 H 4.06518 1.25596 -0.197575 0
M  V30 53 H 2.01973 2.16849 -0.0110818 0
M  V30 54 H 1.11664 0.563182 -0.302247 0
M  V30 55 H 2.5522 0.780396 3.55386 0
M  V30 56 H 3.58824 1.38375 2.21939 0
M  V30 57 H 3.87003 -1.23144 2.74676 0
M  V30 58 H 2.20277 -1.28338 1.96933 0
M  V30 59 H -1.1165 0.510802 0.959992 0
M  V30 60 H -0.135963 2.54953 -0.155713 0
M  V30 61 H -0.455471 3.53244 1.26578 0
M  V30 62 H -1.78489 2.02731 -1.85107 0
M  V30 63 H -3.84185 2.83217 -2.8174 0
M  V30 64 H -5.34916 4.31167 -1.53385 0
M  V30 65 H -2.68351 4.20558 1.77329 0
M  V30 66 H -6.22199 5.96325 -0.719732 0
M  V30 67 H -7.12519 5.78299 0.810234 0
M  V30 68 H -4.0444 5.38527 2.64292 0
M  V30 69 H -1.77277 2.27849 3.25636 0
M  V30 70 H -4.71018 -1.16145 2.57435 0
M  V30 71 H -4.6869 0.290459 1.56183 0
M  V30 72 H -3.91779 0.0734405 -0.720871 0
M  V30 73 H -1.36451 -4.57479 -1.93251 0
M  V30 74 H -1.41005 -3.78713 -4.28326 0
M  V30 75 H -2.43387 -1.57923 -4.83795 0
M  V30 76 H -3.40135 -0.241569 -2.96999 0
M  V30 77 H -1.87394 -4.22621 0.371478 0
M  V30 78 H -2.80686 -2.90893 2.17874 0
M  V30 END ATOM
M  V30 BEGIN BOND
M  V30 1 1 1 2
M  V30 2 2 2 3 CFG=2
M  V30 3 1 2 4
M  V30 4 1 4 5
M  V30 5 1 5 6
M  V30 6 1 6 7
M  V30 7 2 7 8
M  V30 8 1 7 9
M  V30 9 1 9 10
M  V30 10 1 10 11
M  V30 11 1 11 12
M  V30 12 1 12 13
M  V30 13 1 13 14
M  V30 14 1 12 15
M  V30 15 2 15 16
M  V30 16 1 15 17
M  V30 17 1 17 18
M  V30 18 1 18 19
M  V30 19 2 19 20
M  V30 20 1 20 21
M  V30 21 2 21 22
M  V30 22 1 22 23
M  V30 23 2 23 24
M  V30 24 1 23 25
M  V30 25 1 25 26
M  V30 26 2 25 27 CFG=2
M  V30 27 1 17 28
M  V30 28 1 28 29
M  V30 29 2 29 30
M  V30 30 2 29 31
M  V30 31 1 29 32
M  V30 32 1 32 33
M  V30 33 2 33 34
M  V30 34 1 34 35
M  V30 35 2 35 36
M  V30 36 1 36 37
M  V30 37 2 37 38
M  V30 38 1 38 39
M  V30 39 2 39 40
M  V30 40 1 36 41
M  V30 41 2 41 42
M  V30 42 1 14 9
M  V30 43 1 24 19
M  V30 44 1 42 33
M  V30 45 1 40 35
M  V30 46 1 1 43
M  V30 47 1 1 44
M  V30 48 1 3 45
M  V30 49 1 4 46
M  V30 50 1 5 47
M  V30 51 1 5 48
M  V30 52 1 6 49
M  V30 53 1 6 50
M  V30 54 1 10 51
M  V30 55 1 10 52
M  V30 56 1 11 53
M  V30 57 1 11 54
M  V30 58 1 13 55
M  V30 59 1 13 56
M  V30 60 1 14 57
M  V30 61 1 14 58
M  V30 62 1 17 59 CFG=3
M  V30 63 1 18 60
M  V30 64 1 18 61
M  V30 65 1 20 62
M  V30 66 1 21 63
M  V30 67 1 22 64
M  V30 68 1 24 65
M  V30 69 1 26 66
M  V30 70 1 26 67
M  V30 71 1 27 68
M  V30 72 1 28 69
M  V30 73 1 32 70
M  V30 74 1 32 71
M  V30 75 1 34 72
M  V30 76 1 37 73
M  V30 77 1 38 74
M  V30 78 1 39 75
M  V30 79 1 40 76
M  V30 80 1 41 77
M  V30 81 1 42 78
M  V30 END BOND
M  V30 END CTAB
M  END
