
     RDKit          3D

  0  0  0  0  0  0  0  0  0  0999 V3000
M  V30 BEGIN CTAB
M  V30 COUNTS 48 47 0 0 0
M  V30 BEGIN ATOM
M  V30 1 N 8.03091 -0.460227 0.306025 0
M  V30 2 C 6.60634 -0.702694 0.460446 0
M  V30 3 C 5.8919 0.385398 -0.308782 0
M  V30 4 C 4.37311 0.210999 -0.20303 0
M  V30 5 C 3.77749 1.34608 -1.0039 0
M  V30 6 C 2.26537 1.33697 -1.01656 0
M  V30 7 C 1.72134 1.45664 0.375043 0
M  V30 8 C 0.224823 1.46349 0.463476 0
M  V30 9 C -0.336152 0.194511 -0.094249 0
M  V30 10 C -1.85809 0.167287 -0.0126972 0
M  V30 11 C -2.30667 -1.14745 -0.598705 0
M  V30 12 C -3.80722 -1.2434 -0.57094 0
M  V30 13 C -4.36128 -1.16696 0.812846 0
M  V30 14 C -5.85741 -1.29541 0.809167 0
M  V30 15 C -6.52231 -0.200725 0.0147657 0
M  V30 16 N -7.96 -0.438979 0.104516 0
M  V30 17 H 8.20468 -0.233391 -0.70482 0
M  V30 18 H 8.3098 0.386366 0.854265 0
M  V30 19 H 6.33666 -1.69722 0.0806768 0
M  V30 20 H 6.38613 -0.652075 1.53586 0
M  V30 21 H 6.13026 1.3708 0.0956307 0
M  V30 22 H 6.1285 0.276627 -1.38414 0
M  V30 23 H 4.05788 0.193263 0.844815 0
M  V30 24 H 4.16017 -0.774036 -0.665807 0
M  V30 25 H 4.08163 2.30385 -0.530026 0
M  V30 26 H 4.21155 1.33837 -2.01012 0
M  V30 27 H 1.84869 0.491127 -1.56451 0
M  V30 28 H 1.96272 2.25817 -1.57171 0
M  V30 29 H 2.08786 2.40308 0.855148 0
M  V30 30 H 2.07968 0.613611 1.02562 0
M  V30 31 H -0.149407 2.37101 -0.0808851 0
M  V30 32 H -0.0328733 1.53396 1.54342 0
M  V30 33 H 0.0545585 -0.644031 0.506048 0
M  V30 34 H -0.0932503 0.108406 -1.18126 0
M  V30 35 H -2.2738 0.996347 -0.619345 0
M  V30 36 H -2.13986 0.280822 1.05697 0
M  V30 37 H -1.84928 -1.99084 -0.00347185 0
M  V30 38 H -1.915 -1.22336 -1.6372 0
M  V30 39 H -4.22599 -0.433209 -1.22906 0
M  V30 40 H -4.07816 -2.24278 -1.02356 0
M  V30 41 H -3.89873 -1.96316 1.43553 0
M  V30 42 H -4.03992 -0.210958 1.27829 0
M  V30 43 H -6.18146 -2.28741 0.424448 0
M  V30 44 H -6.19492 -1.22165 1.86413 0
M  V30 45 H -6.30099 0.754634 0.53109 0
M  V30 46 H -6.18041 -0.138043 -1.01671 0
M  V30 47 H -8.19447 -1.35205 -0.339475 0
M  V30 48 H -8.17441 -0.521765 1.12747 0
M  V30 END ATOM
M  V30 BEGIN BOND
M  V30 1 1 1 2
M  V30 2 1 2 3
M  V30 3 1 3 4
M  V30 4 1 4 5
M  V30 5 1 5 6
M  V30 6 1 6 7
M  V30 7 1 7 8
M  V30 8 1 8 9
M  V30 9 1 9 10
M  V30 10 1 10 11
M  V30 11 1 11 12
M  V30 12 1 12 13
M  V30 13 1 13 14
M  V30 14 1 14 15
M  V30 15 1 15 16
M  V30 16 1 1 17
M  V30 17 1 1 18
M  V30 18 1 2 19
M  V30 19 1 2 20
M  V30 20 1 3 21
M  V30 21 1 3 22
M  V30 22 1 4 23
M  V30 23 1 4 24
M  V30 24 1 5 25
M  V30 25 1 5 26
M  V30 26 1 6 27
M  V30 27 1 6 28
M  V30 28 1 7 29
M  V30 29 1 7 30
M  V30 30 1 8 31
M  V30 31 1 8 32
M  V30 32 1 9 33
M  V30 33 1 9 34
M  V30 34 1 10 35
M  V30 35 1 10 36
M  V30 36 1 11 37
M  V30 37 1 11 38
M  V30 38 1 12 39
M  V30 39 1 12 40
M  V30 40 1 13 41
M  V30 41 1 13 42
M  V30 42 1 14 43
M  V30 43 1 14 44
M  V30 44 1 15 45
M  V30 45 1 15 46
M  V30 46 1 16 47
M  V30 47 1 16 48
M  V30 END BOND
M  V30 END CTAB
M  END
