
     RDKit          3D

  0  0  0  0  0  0  0  0  0  0999 V3000
M  V30 BEGIN CTAB
M  V30 COUNTS 48 51 0 0 0
M  V30 BEGIN ATOM
M  V30 1 N -8.57068 1.09509 0.657193 0
M  V30 2 C -7.1582 0.954299 0.471448 0
M  V30 3 C -6.67276 -0.085885 -0.278559 0
M  V30 4 C -5.32344 -0.213144 -0.450246 0
M  V30 5 C -4.40401 0.649753 0.0898047 0
M  V30 6 C -4.8967 1.69343 0.842446 0
M  V30 7 C -6.27697 1.84325 1.03187 0
M  V30 8 C -2.92302 0.502336 -0.111467 0
M  V30 9 C -2.30296 1.43289 -0.947465 0
M  V30 10 S -0.709057 0.923839 -1.00152 0
M  V30 11 C -0.79427 -0.456359 0.0193563 0
M  V30 12 C 0.138544 -1.38899 0.462444 0
M  V30 13 C 1.50891 -1.33362 0.051796 0
M  V30 14 C 2.10659 -0.492118 -0.744533 0
M  V30 15 C 3.53669 -0.601883 -1.04617 0
M  V30 16 O 4.17516 -1.53612 -0.513295 0
M  V30 17 N 4.18138 0.312578 -1.90926 0
M  V30 18 C 5.57845 0.199177 -2.19922 0
M  V30 19 C 6.4366 0.674407 -1.09048 0
M  V30 20 C 5.94355 1.2339 0.0718443 0
M  V30 21 C 6.82518 1.64883 1.05505 0
M  V30 22 C 8.18096 1.50664 0.878871 0
M  V30 23 N 8.64246 0.95987 -0.258951 0
M  V30 24 C 7.80547 0.555645 -1.21453 0
M  V30 25 C -0.274706 -2.41798 1.3366 0
M  V30 26 N -1.55652 -2.40142 1.66758 0
M  V30 27 C -2.47666 -1.51455 1.25479 0
M  V30 28 N -3.80965 -1.64351 1.7541 0
M  V30 29 C -2.12557 -0.469543 0.382179 0
M  V30 30 H -8.90256 1.50477 1.54836 0
M  V30 31 H -9.17831 0.775397 -0.118419 0
M  V30 32 H -7.30286 -0.832026 -0.755837 0
M  V30 33 H -4.91459 -1.04335 -1.04936 0
M  V30 34 H -4.25603 2.42618 1.30925 0
M  V30 35 H -6.67475 2.65777 1.61997 0
M  V30 36 H -2.81045 2.29065 -1.43182 0
M  V30 37 H 2.17857 -2.12102 0.466596 0
M  V30 38 H 1.60288 0.321614 -1.22567 0
M  V30 39 H 3.62557 1.0842 -2.34066 0
M  V30 40 H 5.85893 -0.837523 -2.48946 0
M  V30 41 H 5.81317 0.853096 -3.0863 0
M  V30 42 H 4.87392 1.3429 0.201945 0
M  V30 43 H 6.43152 2.08546 1.96191 0
M  V30 44 H 8.85463 1.83883 1.66328 0
M  V30 45 H 8.21617 0.12155 -2.11411 0
M  V30 46 H 0.445455 -3.14271 1.68171 0
M  V30 47 H -4.22568 -0.940409 2.39008 0
M  V30 48 H -4.42034 -2.45355 1.50688 0
M  V30 END ATOM
M  V30 BEGIN BOND
M  V30 1 1 1 2
M  V30 2 2 2 3
M  V30 3 1 3 4
M  V30 4 2 4 5
M  V30 5 1 5 6
M  V30 6 2 6 7
M  V30 7 1 5 8
M  V30 8 2 8 9
M  V30 9 1 9 10
M  V30 10 1 10 11
M  V30 11 2 11 12
M  V30 12 1 12 13
M  V30 13 2 13 14
M  V30 14 1 14 15
M  V30 15 2 15 16
M  V30 16 1 15 17
M  V30 17 1 17 18
M  V30 18 1 18 19
M  V30 19 2 19 20
M  V30 20 1 20 21
M  V30 21 2 21 22
M  V30 22 1 22 23
M  V30 23 2 23 24
M  V30 24 1 12 25
M  V30 25 2 25 26
M  V30 26 1 26 27
M  V30 27 1 27 28
M  V30 28 2 27 29
M  V30 29 1 7 2
M  V30 30 1 29 8
M  V30 31 1 29 11
M  V30 32 1 24 19
M  V30 33 1 1 30
M  V30 34 1 1 31
M  V30 35 1 3 32
M  V30 36 1 4 33
M  V30 37 1 6 34
M  V30 38 1 7 35
M  V30 39 1 9 36
M  V30 40 1 13 37
M  V30 41 1 14 38
M  V30 42 1 17 39
M  V30 43 1 18 40
M  V30 44 1 18 41
M  V30 45 1 20 42
M  V30 46 1 21 43
M  V30 47 1 22 44
M  V30 48 1 24 45
M  V30 49 1 25 46
M  V30 50 1 28 47
M  V30 51 1 28 48
M  V30 END BOND
M  V30 END CTAB
M  END
