
     RDKit          3D

  0  0  0  0  0  0  0  0  0  0999 V3000
M  V30 BEGIN CTAB
M  V30 COUNTS 20 20 0 0 0
M  V30 BEGIN ATOM
M  V30 1 N 2.92771 -0.926886 0.0361598 0
M  V30 2 C 1.59077 -0.43951 0.0114185 0
M  V30 3 C 1.34331 0.912625 -0.0890778 0
M  V30 4 C 0.0500882 1.35919 -0.111131 0
M  V30 5 N -0.255055 2.7556 -0.214479 0
M  V30 6 C -0.999016 0.459636 -0.0331085 0
M  V30 7 C -0.716892 -0.885989 0.0665756 0
M  V30 8 C 0.577698 -1.38007 0.0922243 0
M  V30 9 C -1.88921 -1.82471 0.148704 0
M  V30 10 F -1.46012 -3.13116 0.244 0
M  V30 11 F -2.64627 -1.56136 1.28686 0
M  V30 12 F -2.7059 -1.68473 -0.953263 0
M  V30 13 O -2.30928 0.935407 -0.0572265 0
M  V30 14 H 3.56135 -0.687012 0.833381 0
M  V30 15 H 3.29262 -1.52843 -0.738674 0
M  V30 16 H 2.15427 1.63495 -0.15143 0
M  V30 17 H -0.31359 3.29383 0.678445 0
M  V30 18 H -0.417625 3.25556 -1.09343 0
M  V30 19 H 0.770297 -2.44886 0.171728 0
M  V30 20 H -2.55515 1.89193 -0.127668 0
M  V30 END ATOM
M  V30 BEGIN BOND
M  V30 1 1 1 2
M  V30 2 2 2 3
M  V30 3 1 3 4
M  V30 4 1 4 5
M  V30 5 2 4 6
M  V30 6 1 6 7
M  V30 7 2 7 8
M  V30 8 1 7 9
M  V30 9 1 9 10
M  V30 10 1 9 11
M  V30 11 1 9 12
M  V30 12 1 6 13
M  V30 13 1 8 2
M  V30 14 1 1 14
M  V30 15 1 1 15
M  V30 16 1 3 16
M  V30 17 1 5 17
M  V30 18 1 5 18
M  V30 19 1 8 19
M  V30 20 1 13 20
M  V30 END BOND
M  V30 END CTAB
M  END
