
     RDKit          3D

  0  0  0  0  0  0  0  0  0  0999 V3000
M  V30 BEGIN CTAB
M  V30 COUNTS 26 27 0 0 0
M  V30 BEGIN ATOM
M  V30 1 N -0.462602 3.66257 -0.538538 0
M  V30 2 N -0.836138 2.53161 -1.13857 0
M  V30 3 C -1.21181 1.39443 -1.74202 0
M  V30 4 O -2.00406 1.29767 -2.75968 0
M  V30 5 C -0.704472 0.0780909 -1.23766 0
M  V30 6 C 0.123742 0.0543605 -0.160371 0
M  V30 7 O 0.58442 1.15059 0.539107 0
M  V30 8 C 0.843592 1.12618 1.9284 0
M  V30 9 C 1.34777 -0.194252 2.41325 0
M  V30 10 O 1.40061 -1.18301 1.3938 0
M  V30 11 C 0.572807 -1.19136 0.310418 0
M  V30 12 C 0.176087 -2.35915 -0.314949 0
M  V30 13 N 0.624056 -3.63972 0.157641 0
M  V30 14 C -0.66525 -2.31859 -1.40889 0
M  V30 15 Cl -1.1292 -3.83562 -2.14748 0
M  V30 16 C -1.08484 -1.0917 -1.84315 0
M  V30 17 H 0.539959 3.93694 -0.593763 0
M  V30 18 H -0.81962 3.70581 0.46302 0
M  V30 19 H -1.61246 3.31018 -1.95274 0
M  V30 20 H 1.56673 1.92068 2.17781 0
M  V30 21 H -0.114635 1.44473 2.42914 0
M  V30 22 H 0.691076 -0.510649 3.25063 0
M  V30 23 H 2.37552 -0.111634 2.8195 0
M  V30 24 H 0.982726 -4.35586 -0.525874 0
M  V30 25 H 0.561777 -3.78537 1.18914 0
M  V30 26 H -1.74578 -1.03692 -2.70819 0
M  V30 END ATOM
M  V30 BEGIN BOND
M  V30 1 1 1 2
M  V30 2 1 2 3
M  V30 3 2 3 4
M  V30 4 1 3 5
M  V30 5 2 5 6
M  V30 6 1 6 7
M  V30 7 1 7 8
M  V30 8 1 8 9
M  V30 9 1 9 10
M  V30 10 1 10 11
M  V30 11 2 11 12
M  V30 12 1 12 13
M  V30 13 1 12 14
M  V30 14 1 14 15
M  V30 15 2 14 16
M  V30 16 1 16 5
M  V30 17 1 11 6
M  V30 18 1 1 17
M  V30 19 1 1 18
M  V30 20 1 2 19
M  V30 21 1 8 20
M  V30 22 1 8 21
M  V30 23 1 9 22
M  V30 24 1 9 23
M  V30 25 1 13 24
M  V30 26 1 13 25
M  V30 27 1 16 26
M  V30 END BOND
M  V30 END CTAB
M  END
