
     RDKit          3D

  0  0  0  0  0  0  0  0  0  0999 V3000
M  V30 BEGIN CTAB
M  V30 COUNTS 36 37 0 0 0
M  V30 BEGIN ATOM
M  V30 1 N -2.6029 0.788379 2.29723 0
M  V30 2 C -2.12659 1.14745 0.952319 0
M  V30 3 C -1.15907 0.044785 0.56101 0
M  V30 4 C -1.8866 -1.30862 0.553146 0
M  V30 5 C -2.85482 -1.37929 -0.602637 0
M  V30 6 C -2.13561 -1.12709 -1.90657 0
M  V30 7 C -1.50701 0.26919 -1.79793 0
M  V30 8 N -0.589804 0.215869 -0.716451 0
M  V30 9 S 0.874218 1.00589 -0.870052 0
M  V30 10 O 0.802627 2.45946 -0.403419 0
M  V30 11 O 1.18986 1.12733 -2.35972 0
M  V30 12 C 2.22557 0.240296 -0.0707076 0
M  V30 13 C 2.17174 -0.9618 0.585083 0
M  V30 14 C 3.31557 -1.50067 1.18405 0
M  V30 15 Cl 3.24199 -3.0248 2.01475 0
M  V30 16 C 4.52297 -0.843586 1.13271 0
M  V30 17 N 4.56031 0.329665 0.48822 0
M  V30 18 C 3.47282 0.875495 -0.0996993 0
M  V30 19 N 3.53236 2.12275 -0.779547 0
M  V30 20 H -2.50351 1.56734 2.96139 0
M  V30 21 H -3.54629 0.357774 2.26747 0
M  V30 22 H -2.96524 1.26011 0.270286 0
M  V30 23 H -1.574 2.08114 1.04203 0
M  V30 24 H -0.403482 0.0106046 1.35605 0
M  V30 25 H -2.46647 -1.45877 1.47781 0
M  V30 26 H -1.10291 -2.07686 0.43805 0
M  V30 27 H -3.65482 -0.626743 -0.468774 0
M  V30 28 H -3.23786 -2.4207 -0.634161 0
M  V30 29 H -2.79468 -1.21999 -2.76901 0
M  V30 30 H -1.26941 -1.8292 -1.93207 0
M  V30 31 H -0.961557 0.517943 -2.73652 0
M  V30 32 H -2.33229 1.00079 -1.64895 0
M  V30 33 H 1.24294 -1.48879 0.626094 0
M  V30 34 H 5.41715 -1.27739 1.60794 0
M  V30 35 H 3.6342 2.13099 -1.80104 0
M  V30 36 H 3.47062 2.99105 -0.218397 0
M  V30 END ATOM
M  V30 BEGIN BOND
M  V30 1 1 1 2
M  V30 2 1 2 3
M  V30 3 1 3 4
M  V30 4 1 4 5
M  V30 5 1 5 6
M  V30 6 1 6 7
M  V30 7 1 7 8
M  V30 8 1 8 9
M  V30 9 2 9 10
M  V30 10 2 9 11
M  V30 11 1 9 12
M  V30 12 2 12 13
M  V30 13 1 13 14
M  V30 14 1 14 15
M  V30 15 2 14 16
M  V30 16 1 16 17
M  V30 17 2 17 18
M  V30 18 1 18 19
M  V30 19 1 8 3
M  V30 20 1 18 12
M  V30 21 1 1 20
M  V30 22 1 1 21
M  V30 23 1 2 22
M  V30 24 1 2 23
M  V30 25 1 3 24
M  V30 26 1 4 25
M  V30 27 1 4 26
M  V30 28 1 5 27
M  V30 29 1 5 28
M  V30 30 1 6 29
M  V30 31 1 6 30
M  V30 32 1 7 31
M  V30 33 1 7 32
M  V30 34 1 13 33
M  V30 35 1 16 34
M  V30 36 1 19 35
M  V30 37 1 19 36
M  V30 END BOND
M  V30 END CTAB
M  END
