
     RDKit          3D

  0  0  0  0  0  0  0  0  0  0999 V3000
M  V30 BEGIN CTAB
M  V30 COUNTS 22 21 0 0 0
M  V30 BEGIN ATOM
M  V30 1 C -2.16278 0.892448 -0.258062 0
M  V30 2 C -1.40677 -0.0957012 -1.10946 0
M  V30 3 C -0.630243 -1.09013 -0.322841 0
M  V30 4 C 0.422682 -0.554635 0.582958 0
M  V30 5 C 1.47208 0.200669 -0.103198 0
M  V30 6 N 2.68557 -0.219223 -0.04932 0
M  V30 7 O 2.96356 -1.36033 0.647614 0
M  V30 8 N 1.25978 1.39822 -0.84907 0
M  V30 9 N -0.147493 0.194353 1.70444 0
M  V30 10 H -1.62924 1.81405 -0.0265098 0
M  V30 11 H -3.09177 1.19866 -0.821989 0
M  V30 12 H -2.52116 0.453323 0.701247 0
M  V30 13 H -0.874992 0.430853 -1.89499 0
M  V30 14 H -2.20359 -0.699949 -1.64548 0
M  V30 15 H -1.3248 -1.70663 0.281922 0
M  V30 16 H -0.136671 -1.77779 -1.05572 0
M  V30 17 H 0.881592 -1.46305 1.07793 0
M  V30 18 H 3.89361 -1.67325 0.88476 0
M  V30 19 H 1.37922 1.36764 -1.88026 0
M  V30 20 H 0.992684 2.28832 -0.396684 0
M  V30 21 H 0.595902 0.842673 2.04615 0
M  V30 22 H -0.417164 -0.440525 2.48658 0
M  V30 END ATOM
M  V30 BEGIN BOND
M  V30 1 1 1 2
M  V30 2 1 2 3
M  V30 3 1 3 4
M  V30 4 1 4 5
M  V30 5 2 5 6 CFG=2
M  V30 6 1 6 7
M  V30 7 1 5 8
M  V30 8 1 4 9
M  V30 9 1 1 10
M  V30 10 1 1 11
M  V30 11 1 1 12
M  V30 12 1 2 13
M  V30 13 1 2 14
M  V30 14 1 3 15
M  V30 15 1 3 16
M  V30 16 1 4 17
M  V30 17 1 7 18
M  V30 18 1 8 19
M  V30 19 1 8 20
M  V30 20 1 9 21
M  V30 21 1 9 22
M  V30 END BOND
M  V30 END CTAB
M  END
