
     RDKit          3D

  0  0  0  0  0  0  0  0  0  0999 V3000
M  V30 BEGIN CTAB
M  V30 COUNTS 45 46 0 0 0
M  V30 BEGIN ATOM
M  V30 1 O -0.135767 0.905193 1.4458 0
M  V30 2 C 0.133212 0.664849 0.239112 0
M  V30 3 C -1.0213 0.757315 -0.703425 0
M  V30 4 C -2.05983 -0.293739 -0.511042 0
M  V30 5 C -2.72273 -0.336349 0.819163 0
M  V30 6 C -3.44479 0.918789 1.19947 0
M  V30 7 C -4.94528 0.808331 1.08402 0
M  V30 8 C -5.34351 0.137711 -0.222618 0
M  V30 9 C -4.77979 -1.24716 -0.244222 0
M  V30 10 C -3.74531 -1.45976 0.803057 0
M  V30 11 N -0.476675 0.555744 -2.05187 0
M  V30 12 N 1.40732 0.331544 -0.227505 0
M  V30 13 C 2.60304 0.196509 0.492644 0
M  V30 14 C 2.74815 0.37296 1.82958 0
M  V30 15 C 3.98947 0.214682 2.46033 0
M  V30 16 C 5.111 -0.126404 1.74676 0
M  V30 17 C 4.97929 -0.3097 0.383311 0
M  V30 18 C 3.75345 -0.149107 -0.211771 0
M  V30 19 S 6.40526 -0.743979 -0.528007 0
M  V30 20 O 7.4112 -1.44147 0.348528 0
M  V30 21 O 6.09707 -1.61862 -1.69251 0
M  V30 22 N 7.15766 0.743163 -1.04535 0
M  V30 23 H -1.51102 1.7481 -0.647384 0
M  V30 24 H -1.68407 -1.32028 -0.729842 0
M  V30 25 H -2.85332 -0.0928082 -1.28272 0
M  V30 26 H -1.98235 -0.649349 1.61485 0
M  V30 27 H -3.12538 1.81493 0.652114 0
M  V30 28 H -3.23532 1.09756 2.29442 0
M  V30 29 H -5.40833 0.287207 1.93318 0
M  V30 30 H -5.36391 1.83185 1.05157 0
M  V30 31 H -5.07676 0.770328 -1.06924 0
M  V30 32 H -6.47136 0.0932319 -0.187535 0
M  V30 33 H -5.60787 -1.98689 -0.130987 0
M  V30 34 H -4.33731 -1.46582 -1.23733 0
M  V30 35 H -3.25274 -2.45216 0.624897 0
M  V30 36 H -4.20474 -1.55192 1.82577 0
M  V30 37 H -0.458265 -0.482808 -2.27761 0
M  V30 38 H -1.1046 1.00614 -2.75499 0
M  V30 39 H 1.45736 0.158864 -1.28431 0
M  V30 40 H 1.92784 0.638893 2.45787 0
M  V30 41 H 4.05203 0.368836 3.54259 0
M  V30 42 H 6.07409 -0.24854 2.24044 0
M  V30 43 H 3.73824 -0.313226 -1.29561 0
M  V30 44 H 8.14503 0.506699 -1.25385 0
M  V30 45 H 7.16163 1.36066 -0.191329 0
M  V30 END ATOM
M  V30 BEGIN BOND
M  V30 1 2 1 2
M  V30 2 1 2 3
M  V30 3 1 3 4
M  V30 4 1 4 5
M  V30 5 1 5 6
M  V30 6 1 6 7
M  V30 7 1 7 8
M  V30 8 1 8 9
M  V30 9 1 9 10
M  V30 10 1 3 11
M  V30 11 1 2 12
M  V30 12 1 12 13
M  V30 13 2 13 14
M  V30 14 1 14 15
M  V30 15 2 15 16
M  V30 16 1 16 17
M  V30 17 2 17 18
M  V30 18 1 17 19
M  V30 19 2 19 20
M  V30 20 2 19 21
M  V30 21 1 19 22
M  V30 22 1 10 5
M  V30 23 1 18 13
M  V30 24 1 3 23
M  V30 25 1 4 24
M  V30 26 1 4 25
M  V30 27 1 5 26
M  V30 28 1 6 27
M  V30 29 1 6 28
M  V30 30 1 7 29
M  V30 31 1 7 30
M  V30 32 1 8 31
M  V30 33 1 8 32
M  V30 34 1 9 33
M  V30 35 1 9 34
M  V30 36 1 10 35
M  V30 37 1 10 36
M  V30 38 1 11 37
M  V30 39 1 11 38
M  V30 40 1 12 39
M  V30 41 1 14 40
M  V30 42 1 15 41
M  V30 43 1 16 42
M  V30 44 1 18 43
M  V30 45 1 22 44
M  V30 46 1 22 45
M  V30 END BOND
M  V30 END CTAB
M  END
