
     RDKit          3D

  0  0  0  0  0  0  0  0  0  0999 V3000
M  V30 BEGIN CTAB
M  V30 COUNTS 22 22 0 0 0
M  V30 BEGIN ATOM
M  V30 1 N -2.46371 1.73361 -0.143721 0
M  V30 2 C -1.212 1.07855 -0.223207 0
M  V30 3 C -0.0547901 1.68916 -0.61375 0
M  V30 4 C 1.15172 1.03088 -0.683357 0
M  V30 5 C 1.19247 -0.305733 -0.343056 0
M  V30 6 C 0.0387133 -0.954381 0.0567154 0
M  V30 7 C -1.16633 -0.275646 0.120695 0
M  V30 8 C -2.36619 -0.957789 0.538424 0
M  V30 9 O -3.55577 -0.273646 0.597913 0
M  V30 10 O -2.32441 -2.1626 0.844157 0
M  V30 11 S 2.72774 -1.14399 -0.431466 0
M  V30 12 N 3.53198 -1.00158 1.10121 0
M  V30 13 O 2.53391 -2.59076 -0.780867 0
M  V30 14 O 3.58399 -0.441117 -1.44693 0
M  V30 15 H -2.72469 2.31993 0.673942 0
M  V30 16 H -3.16029 1.64413 -0.908187 0
M  V30 17 H -0.0975993 2.73873 -0.878801 0
M  V30 18 H 2.07509 1.54084 -1.00091 0
M  V30 19 H 0.0550142 -1.98606 0.322416 0
M  V30 20 H -4.42572 -0.592266 0.202877 0
M  V30 21 H 2.79679 -1.0976 1.85035 0
M  V30 22 H 3.86408 0.0073342 1.14555 0
M  V30 END ATOM
M  V30 BEGIN BOND
M  V30 1 1 1 2
M  V30 2 2 2 3
M  V30 3 1 3 4
M  V30 4 2 4 5
M  V30 5 1 5 6
M  V30 6 2 6 7
M  V30 7 1 7 8
M  V30 8 1 8 9
M  V30 9 2 8 10
M  V30 10 1 5 11
M  V30 11 1 11 12
M  V30 12 2 11 13
M  V30 13 2 11 14
M  V30 14 1 7 2
M  V30 15 1 1 15
M  V30 16 1 1 16
M  V30 17 1 3 17
M  V30 18 1 4 18
M  V30 19 1 6 19
M  V30 20 1 9 20
M  V30 21 1 12 21
M  V30 22 1 12 22
M  V30 END BOND
M  V30 END CTAB
M  END
