
     RDKit          3D

  0  0  0  0  0  0  0  0  0  0999 V3000
M  V30 BEGIN CTAB
M  V30 COUNTS 67 70 0 0 0
M  V30 BEGIN ATOM
M  V30 1 N 9.19338 -3.03746 0.809071 0
M  V30 2 C 8.12368 -2.11839 0.720747 0
M  V30 3 N 6.93201 -2.4576 0.193419 0
M  V30 4 C 5.89641 -1.58699 0.101766 0
M  V30 5 O 4.81212 -1.95588 -0.396984 0
M  V30 6 N 5.98653 -0.322772 0.531265 0
M  V30 7 C 7.16107 0.0576847 1.06552 0
M  V30 8 C 8.23832 -0.806547 1.17389 0
M  V30 9 C 4.91775 0.613758 0.448612 0 CFG=2
M  V30 10 O 3.69433 0.0623285 0.145142 0
M  V30 11 C 2.87728 1.18641 0.0298859 0 CFG=2
M  V30 12 C 1.61201 0.839125 -0.727839 0
M  V30 13 O 0.853746 2.0072 -0.800241 0
M  V30 14 P -0.602023 1.76897 -1.62742 0
M  V30 15 O -1.49995 3.19444 -1.5184 0
M  V30 16 O -0.229232 1.51742 -3.08661 0
M  V30 17 O -1.38792 0.452418 -0.976783 0
M  V30 18 C -2.63984 0.763004 -0.453342 0 CFG=2
M  V30 19 C -2.67536 0.230047 0.95956 0 CFG=1
M  V30 20 C -3.66675 1.08044 1.72902 0
M  V30 21 O -3.26599 2.40996 1.81771 0
M  V30 22 P -4.44951 3.23508 2.69077 0
M  V30 23 O -3.72598 4.51268 3.504 0
M  V30 24 O -5.21167 2.17597 3.76301 0
M  V30 25 O -5.53022 3.77823 1.76228 0
M  V30 26 O -3.14903 -1.04978 0.924333 0
M  V30 27 C -3.32506 -1.45004 -0.36876 0 CFG=2
M  V30 28 C -3.67264 -0.161203 -1.11391 0 CFG=2
M  V30 29 O -3.46403 -0.27278 -2.46441 0
M  V30 30 N -4.33905 -2.45401 -0.555809 0
M  V30 31 C -4.35201 -3.08664 -1.76315 0
M  V30 32 C -5.26455 -4.05331 -2.05403 0
M  V30 33 C -6.19633 -4.3911 -1.08875 0
M  V30 34 N -7.14042 -5.40218 -1.4107 0
M  V30 35 N -6.15159 -3.7495 0.0807505 0
M  V30 36 C -5.24848 -2.79578 0.362849 0
M  V30 37 O -5.23966 -2.21903 1.46879 0
M  V30 38 C 3.68234 2.23884 -0.695137 0 CFG=1
M  V30 39 O 3.67026 3.43359 0.0217837 0
M  V30 40 C 5.09004 1.64463 -0.636594 0 CFG=1
M  V30 41 O 6.03733 2.59269 -0.32913 0
M  V30 42 H 9.83286 -3.14236 0.00427184 0
M  V30 43 H 9.35113 -3.60593 1.65723 0
M  V30 44 H 7.27704 1.08476 1.42956 0
M  V30 45 H 9.18022 -0.519184 1.59678 0
M  V30 46 H 4.79073 1.18081 1.40573 0
M  V30 47 H 2.57486 1.58047 1.00661 0
M  V30 48 H 1.06124 0.0978008 -0.109636 0
M  V30 49 H 1.82415 0.420199 -1.72553 0
M  V30 50 H -1.6681 3.56983 -2.40631 0
M  V30 51 H -2.91843 1.81034 -0.544986 0
M  V30 52 H -1.68039 0.295099 1.419 0
M  V30 53 H -3.78071 0.716029 2.77126 0
M  V30 54 H -4.65974 1.06211 1.26457 0
M  V30 55 H -4.21952 5.35514 3.3489 0
M  V30 56 H -6.13709 2.50177 3.91746 0
M  V30 57 H -2.36498 -1.802 -0.782245 0
M  V30 58 H -4.68789 0.152545 -0.829877 0
M  V30 59 H -4.09163 0.37543 -2.91603 0
M  V30 60 H -3.6183 -2.82134 -2.52468 0
M  V30 61 H -5.2471 -4.53367 -3.01834 0
M  V30 62 H -7.07492 -6.31147 -0.901467 0
M  V30 63 H -7.85555 -5.20285 -2.13434 0
M  V30 64 H 3.3517 2.41779 -1.72383 0
M  V30 65 H 3.44641 4.18852 -0.57347 0
M  V30 66 H 5.28102 1.20282 -1.62499 0
M  V30 67 H 5.68169 3.50342 -0.24183 0
M  V30 END ATOM
M  V30 BEGIN BOND
M  V30 1 1 1 2
M  V30 2 2 2 3
M  V30 3 1 3 4
M  V30 4 2 4 5
M  V30 5 1 4 6
M  V30 6 1 6 7
M  V30 7 2 7 8
M  V30 8 1 6 9
M  V30 9 1 9 10
M  V30 10 1 10 11
M  V30 11 1 11 12
M  V30 12 1 12 13
M  V30 13 1 13 14
M  V30 14 1 14 15
M  V30 15 2 14 16
M  V30 16 1 14 17
M  V30 17 1 17 18
M  V30 18 1 18 19
M  V30 19 1 19 20
M  V30 20 1 20 21
M  V30 21 1 21 22
M  V30 22 1 22 23
M  V30 23 1 22 24
M  V30 24 2 22 25
M  V30 25 1 19 26
M  V30 26 1 26 27
M  V30 27 1 27 28
M  V30 28 1 28 29
M  V30 29 1 27 30
M  V30 30 1 30 31
M  V30 31 2 31 32
M  V30 32 1 32 33
M  V30 33 1 33 34
M  V30 34 2 33 35
M  V30 35 1 35 36
M  V30 36 2 36 37
M  V30 37 1 11 38
M  V30 38 1 38 39
M  V30 39 1 38 40
M  V30 40 1 40 41
M  V30 41 1 8 2
M  V30 42 1 40 9
M  V30 43 1 28 18
M  V30 44 1 36 30
M  V30 45 1 1 42
M  V30 46 1 1 43
M  V30 47 1 7 44
M  V30 48 1 8 45
M  V30 49 1 9 46 CFG=1
M  V30 50 1 11 47 CFG=1
M  V30 51 1 12 48
M  V30 52 1 12 49
M  V30 53 1 15 50
M  V30 54 1 18 51 CFG=1
M  V30 55 1 19 52 CFG=1
M  V30 56 1 20 53
M  V30 57 1 20 54
M  V30 58 1 23 55
M  V30 59 1 24 56
M  V30 60 1 27 57 CFG=3
M  V30 61 1 28 58 CFG=3
M  V30 62 1 29 59
M  V30 63 1 31 60
M  V30 64 1 32 61
M  V30 65 1 34 62
M  V30 66 1 34 63
M  V30 67 1 38 64 CFG=3
M  V30 68 1 39 65
M  V30 69 1 40 66 CFG=3
M  V30 70 1 41 67
M  V30 END BOND
M  V30 END CTAB
M  END
