
     RDKit          3D

  0  0  0  0  0  0  0  0  0  0999 V3000
M  V30 BEGIN CTAB
M  V30 COUNTS 25 25 0 0 0
M  V30 BEGIN ATOM
M  V30 1 C -2.64317 1.43633 -0.880485 0
M  V30 2 C -2.36955 0.610714 0.349434 0
M  V30 3 C -1.24642 -0.309598 0.219387 0
M  V30 4 C -1.49302 -1.65405 0.0318964 0
M  V30 5 C -0.477994 -2.5783 -0.101761 0
M  V30 6 C 0.82549 -2.11801 -0.0424836 0
M  V30 7 C 1.14697 -0.781229 0.143636 0
M  V30 8 C 0.0883188 0.0908572 0.270051 0
M  V30 9 N 0.377124 1.46622 0.464154 0
M  V30 10 S 2.81494 -0.229482 0.216277 0
M  V30 11 N 3.18302 0.9149 -1.00934 0
M  V30 12 O 3.08335 0.317598 1.60218 0
M  V30 13 O 3.69286 -1.46389 0.0632347 0
M  V30 14 H -3.73998 1.57442 -0.975883 0
M  V30 15 H -2.22768 2.47349 -0.785522 0
M  V30 16 H -2.3115 0.921314 -1.79619 0
M  V30 17 H -3.28488 0.0283332 0.572527 0
M  V30 18 H -2.18941 1.28346 1.21522 0
M  V30 19 H -2.51933 -2.05101 -0.0194134 0
M  V30 20 H -0.69071 -3.64893 -0.250927 0
M  V30 21 H 1.62583 -2.81949 -0.143472 0
M  V30 22 H 0.278713 2.18168 -0.302521 0
M  V30 23 H 0.700267 1.79928 1.39529 0
M  V30 24 H 3.28832 1.89326 -0.613853 0
M  V30 25 H 4.08844 0.662146 -1.47253 0
M  V30 END ATOM
M  V30 BEGIN BOND
M  V30 1 1 1 2
M  V30 2 1 2 3
M  V30 3 2 3 4
M  V30 4 1 4 5
M  V30 5 2 5 6
M  V30 6 1 6 7
M  V30 7 2 7 8
M  V30 8 1 8 9
M  V30 9 1 7 10
M  V30 10 1 10 11
M  V30 11 2 10 12
M  V30 12 2 10 13
M  V30 13 1 8 3
M  V30 14 1 1 14
M  V30 15 1 1 15
M  V30 16 1 1 16
M  V30 17 1 2 17
M  V30 18 1 2 18
M  V30 19 1 4 19
M  V30 20 1 5 20
M  V30 21 1 6 21
M  V30 22 1 9 22
M  V30 23 1 9 23
M  V30 24 1 11 24
M  V30 25 1 11 25
M  V30 END BOND
M  V30 END CTAB
M  END
