
     RDKit          3D

  0  0  0  0  0  0  0  0  0  0999 V3000
M  V30 BEGIN CTAB
M  V30 COUNTS 37 38 0 0 0
M  V30 BEGIN ATOM
M  V30 1 C -3.38614 2.61268 -0.0278345 0
M  V30 2 C -3.24255 1.13925 -0.321845 0
M  V30 3 C -3.70718 0.610216 -1.50239 0
M  V30 4 C -3.55622 -0.735153 -1.72947 0
M  V30 5 C -2.95032 -1.54304 -0.792809 0
M  V30 6 C -2.47044 -1.04214 0.408168 0
M  V30 7 C -2.64378 0.310539 0.591607 0
M  V30 8 N -1.84914 -1.86205 1.37203 0
M  V30 9 S -0.412792 -1.47296 2.20203 0
M  V30 10 O -0.536196 -0.222615 3.02397 0
M  V30 11 O -0.0744152 -2.58716 3.15203 0
M  V30 12 C 0.950438 -1.27696 1.13588 0
M  V30 13 C 1.77349 -2.32089 0.788673 0
M  V30 14 C 2.85707 -2.13263 -0.0670125 0
M  V30 15 C 3.10841 -0.870378 -0.57631 0
M  V30 16 C 2.29811 0.18067 -0.24043 0
M  V30 17 C 1.21733 -0.0342287 0.619965 0
M  V30 18 S 2.59096 1.78262 -0.86733 0
M  V30 19 O 1.59596 2.77287 -0.336872 0
M  V30 20 O 2.48788 1.81806 -2.36766 0
M  V30 21 N 4.15718 2.32733 -0.383627 0
M  V30 22 N 4.21446 -0.679701 -1.44935 0
M  V30 23 H -3.12364 3.18239 -0.951776 0
M  V30 24 H -4.4631 2.79525 0.231038 0
M  V30 25 H -2.71531 2.88917 0.787301 0
M  V30 26 H -4.17882 1.26405 -2.22147 0
M  V30 27 H -3.92468 -1.13686 -2.65849 0
M  V30 28 H -2.84298 -2.59013 -0.99069 0
M  V30 29 H -2.29046 0.757388 1.50726 0
M  V30 30 H -2.30976 -2.78424 1.59383 0
M  V30 31 H 1.55213 -3.29431 1.20196 0
M  V30 32 H 3.49152 -2.96371 -0.327923 0
M  V30 33 H 0.609301 0.821607 0.854881 0
M  V30 34 H 4.28786 2.16471 0.639746 0
M  V30 35 H 4.1849 3.35919 -0.5517 0
M  V30 36 H 5.11325 -1.17136 -1.25032 0
M  V30 37 H 4.18768 -0.0674712 -2.29488 0
M  V30 END ATOM
M  V30 BEGIN BOND
M  V30 1 1 1 2
M  V30 2 2 2 3
M  V30 3 1 3 4
M  V30 4 2 4 5
M  V30 5 1 5 6
M  V30 6 2 6 7
M  V30 7 1 6 8
M  V30 8 1 8 9
M  V30 9 2 9 10
M  V30 10 2 9 11
M  V30 11 1 9 12
M  V30 12 2 12 13
M  V30 13 1 13 14
M  V30 14 2 14 15
M  V30 15 1 15 16
M  V30 16 2 16 17
M  V30 17 1 16 18
M  V30 18 2 18 19
M  V30 19 2 18 20
M  V30 20 1 18 21
M  V30 21 1 15 22
M  V30 22 1 7 2
M  V30 23 1 17 12
M  V30 24 1 1 23
M  V30 25 1 1 24
M  V30 26 1 1 25
M  V30 27 1 3 26
M  V30 28 1 4 27
M  V30 29 1 5 28
M  V30 30 1 7 29
M  V30 31 1 8 30
M  V30 32 1 13 31
M  V30 33 1 14 32
M  V30 34 1 17 33
M  V30 35 1 21 34
M  V30 36 1 21 35
M  V30 37 1 22 36
M  V30 38 1 22 37
M  V30 END BOND
M  V30 END CTAB
M  END
