
     RDKit          3D

  0  0  0  0  0  0  0  0  0  0999 V3000
M  V30 BEGIN CTAB
M  V30 COUNTS 23 24 0 0 0
M  V30 BEGIN ATOM
M  V30 1 N 4.94594 -0.211953 -0.527693 0
M  V30 2 C 3.54425 -0.237052 -0.321181 0
M  V30 3 C 2.69782 0.722714 -0.85599 0
M  V30 4 C 1.32286 0.687426 -0.646211 0
M  V30 5 C 0.791571 -0.308361 0.0992458 0
M  V30 6 N 1.62963 -1.23174 0.610573 0
M  V30 7 N 2.93825 -1.19757 0.41052 0
M  V30 8 C -0.657381 -0.441153 0.385005 0
M  V30 9 N -1.10787 -1.4567 1.13293 0
M  V30 10 C -2.40904 -1.60309 1.40789 0
M  V30 11 C -3.35244 -0.722859 0.939975 0
M  V30 12 C -2.92808 0.336596 0.165885 0
M  V30 13 C -1.56602 0.455769 -0.0988984 0
M  V30 14 N -3.82208 1.30046 -0.365268 0
M  V30 15 H 5.33205 0.231513 -1.3731 0
M  V30 16 H 5.56963 -0.640921 0.1754 0
M  V30 17 H 3.15082 1.50961 -1.44955 0
M  V30 18 H 0.69964 1.45229 -1.07936 0
M  V30 19 H -2.80006 -2.41846 2.01236 0
M  V30 20 H -4.41336 -0.82373 1.15165 0
M  V30 21 H -1.27516 1.28695 -0.700499 0
M  V30 22 H -4.23264 2.01086 0.307179 0
M  V30 23 H -4.05834 1.29942 -1.38085 0
M  V30 END ATOM
M  V30 BEGIN BOND
M  V30 1 1 1 2
M  V30 2 2 2 3
M  V30 3 1 3 4
M  V30 4 2 4 5
M  V30 5 1 5 6
M  V30 6 2 6 7
M  V30 7 1 5 8
M  V30 8 2 8 9
M  V30 9 1 9 10
M  V30 10 2 10 11
M  V30 11 1 11 12
M  V30 12 2 12 13
M  V30 13 1 12 14
M  V30 14 1 7 2
M  V30 15 1 13 8
M  V30 16 1 1 15
M  V30 17 1 1 16
M  V30 18 1 3 17
M  V30 19 1 4 18
M  V30 20 1 10 19
M  V30 21 1 11 20
M  V30 22 1 13 21
M  V30 23 1 14 22
M  V30 24 1 14 23
M  V30 END BOND
M  V30 END CTAB
M  END
