
     RDKit          3D

  0  0  0  0  0  0  0  0  0  0999 V3000
M  V30 BEGIN CTAB
M  V30 COUNTS 38 38 0 0 0
M  V30 BEGIN ATOM
M  V30 1 Br -2.38548 4.68382 0.182691 0
M  V30 2 C -2.2135 2.8072 -0.119033 0
M  V30 3 C -0.9592 2.19915 -0.248176 0
M  V30 4 C -0.877107 0.845694 -0.460719 0
M  V30 5 C 0.481025 0.25356 -0.550271 0
M  V30 6 O 1.06835 0.620707 -1.61267 0
M  V30 7 N 0.982901 -0.584653 0.440734 0
M  V30 8 C 2.2254 -1.2364 0.528946 0
M  V30 9 C 3.50196 -0.479362 0.560008 0
M  V30 10 N 4.5663 -1.50456 0.751517 0
M  V30 11 C 3.49959 0.544639 1.63169 0
M  V30 12 C 3.91088 0.175263 -0.763913 0
M  V30 13 C -2.01535 0.041873 -0.554327 0
M  V30 14 C -3.24822 0.638306 -0.431813 0
M  V30 15 C -3.3432 2.01658 -0.213318 0
M  V30 16 S -4.69795 -0.26608 -0.627013 0
M  V30 17 O -4.88761 -0.75298 -2.04267 0
M  V30 18 O -5.91484 0.631732 -0.37657 0
M  V30 19 N -4.89495 -1.57932 0.458164 0
M  V30 20 C -1.93429 -1.4019 -0.800209 0
M  V30 21 H -0.0854543 2.81524 -0.17743 0
M  V30 22 H 0.2744 -0.744515 1.2797 0
M  V30 23 H 2.34776 -2.01745 -0.31215 0
M  V30 24 H 2.20329 -1.9261 1.44721 0
M  V30 25 H 4.45793 -2.11927 -0.105338 0
M  V30 26 H 5.48074 -1.0158 0.599808 0
M  V30 27 H 2.89421 1.41764 1.23752 0
M  V30 28 H 3.00692 0.196481 2.56026 0
M  V30 29 H 4.51672 0.95454 1.85953 0
M  V30 30 H 3.67313 -0.442983 -1.62808 0
M  V30 31 H 3.62004 1.23224 -0.793276 0
M  V30 32 H 5.05815 0.23278 -0.699577 0
M  V30 33 H -4.34297 2.44986 -0.118086 0
M  V30 34 H -5.85451 -1.94236 0.37504 0
M  V30 35 H -4.57497 -1.38372 1.41312 0
M  V30 36 H -2.51624 -2.05094 -0.153316 0
M  V30 37 H -2.15083 -1.54749 -1.91205 0
M  V30 38 H -0.873006 -1.76143 -0.712296 0
M  V30 END ATOM
M  V30 BEGIN BOND
M  V30 1 1 1 2
M  V30 2 2 2 3
M  V30 3 1 3 4
M  V30 4 1 4 5
M  V30 5 2 5 6
M  V30 6 1 5 7
M  V30 7 1 7 8
M  V30 8 1 8 9
M  V30 9 1 9 10
M  V30 10 1 9 11
M  V30 11 1 9 12
M  V30 12 2 4 13
M  V30 13 1 13 14
M  V30 14 2 14 15
M  V30 15 1 14 16
M  V30 16 2 16 17
M  V30 17 2 16 18
M  V30 18 1 16 19
M  V30 19 1 13 20
M  V30 20 1 15 2
M  V30 21 1 3 21
M  V30 22 1 7 22
M  V30 23 1 8 23
M  V30 24 1 8 24
M  V30 25 1 10 25
M  V30 26 1 10 26
M  V30 27 1 11 27
M  V30 28 1 11 28
M  V30 29 1 11 29
M  V30 30 1 12 30
M  V30 31 1 12 31
M  V30 32 1 12 32
M  V30 33 1 15 33
M  V30 34 1 19 34
M  V30 35 1 19 35
M  V30 36 1 20 36
M  V30 37 1 20 37
M  V30 38 1 20 38
M  V30 END BOND
M  V30 END CTAB
M  END
