
     RDKit          3D

  0  0  0  0  0  0  0  0  0  0999 V3000
M  V30 BEGIN CTAB
M  V30 COUNTS 45 47 0 0 0
M  V30 BEGIN ATOM
M  V30 1 O -0.087953 -2.82868 -0.0396988 0
M  V30 2 C 0.233341 -1.60278 -0.0328394 0
M  V30 3 N -0.758577 -0.666757 0.428005 0
M  V30 4 C -2.05432 -1.10538 0.871327 0
M  V30 5 C -2.32287 -0.583848 2.22782 0
M  V30 6 C -2.85757 -1.37418 3.22589 0
M  V30 7 C -3.09631 -0.848572 4.47131 0
M  V30 8 C -2.79571 0.478307 4.70856 0
M  V30 9 C -2.26345 1.2768 3.72415 0
M  V30 10 C -2.022 0.751554 2.47534 0
M  V30 11 C -3.17131 -0.668403 -0.0127626 0
M  V30 12 C -4.20931 -1.54724 -0.240371 0
M  V30 13 C -5.23423 -1.16688 -1.06564 0
M  V30 14 C -5.22266 0.070468 -1.65219 0
M  V30 15 C -4.21015 0.987388 -1.45961 0
M  V30 16 C -3.18679 0.567373 -0.617182 0
M  V30 17 C 1.57074 -1.25616 -0.491811 0
M  V30 18 S 2.02486 0.479573 -0.23282 0
M  V30 19 C 3.67768 0.738752 -0.866073 0
M  V30 20 N 4.78556 0.530227 -0.112803 0
M  V30 21 C 6.00734 0.739614 -0.629774 0
M  V30 22 N 7.18478 0.524355 0.133757 0
M  V30 23 C 6.15657 1.1714 -1.93565 0
M  V30 24 C 5.0384 1.37981 -2.68735 0
M  V30 25 N 3.83272 1.15226 -2.11474 0
M  V30 26 N 5.06378 1.82481 -4.03567 0
M  V30 27 H -0.457306 0.330909 0.406376 0
M  V30 28 H -2.02707 -2.22952 0.926214 0
M  V30 29 H -3.08879 -2.40114 3.02234 0
M  V30 30 H -3.51027 -1.42662 5.27968 0
M  V30 31 H -2.96742 0.941162 5.68065 0
M  V30 32 H -2.03476 2.3156 3.92081 0
M  V30 33 H -1.60533 1.40492 1.74644 0
M  V30 34 H -4.19182 -2.53716 0.245728 0
M  V30 35 H -6.0521 -1.86706 -1.24159 0
M  V30 36 H -6.05551 0.354108 -2.31237 0
M  V30 37 H -4.23878 1.95029 -1.93924 0
M  V30 38 H -2.38587 1.29004 -0.472348 0
M  V30 39 H 2.3066 -1.88069 0.0480417 0
M  V30 40 H 1.70053 -1.49446 -1.59027 0
M  V30 41 H 8.12977 0.562678 -0.288531 0
M  V30 42 H 7.10738 0.32397 1.14605 0
M  V30 43 H 7.12009 1.34787 -2.37898 0
M  V30 44 H 5.91194 2.34398 -4.40767 0
M  V30 45 H 4.25614 1.64731 -4.66571 0
M  V30 END ATOM
M  V30 BEGIN BOND
M  V30 1 2 1 2
M  V30 2 1 2 3
M  V30 3 1 3 4
M  V30 4 1 4 5
M  V30 5 2 5 6
M  V30 6 1 6 7
M  V30 7 2 7 8
M  V30 8 1 8 9
M  V30 9 2 9 10
M  V30 10 1 4 11
M  V30 11 2 11 12
M  V30 12 1 12 13
M  V30 13 2 13 14
M  V30 14 1 14 15
M  V30 15 2 15 16
M  V30 16 1 2 17
M  V30 17 1 17 18
M  V30 18 1 18 19
M  V30 19 2 19 20
M  V30 20 1 20 21
M  V30 21 1 21 22
M  V30 22 2 21 23
M  V30 23 1 23 24
M  V30 24 2 24 25
M  V30 25 1 24 26
M  V30 26 1 10 5
M  V30 27 1 16 11
M  V30 28 1 25 19
M  V30 29 1 3 27
M  V30 30 1 4 28
M  V30 31 1 6 29
M  V30 32 1 7 30
M  V30 33 1 8 31
M  V30 34 1 9 32
M  V30 35 1 10 33
M  V30 36 1 12 34
M  V30 37 1 13 35
M  V30 38 1 14 36
M  V30 39 1 15 37
M  V30 40 1 16 38
M  V30 41 1 17 39
M  V30 42 1 17 40
M  V30 43 1 22 41
M  V30 44 1 22 42
M  V30 45 1 23 43
M  V30 46 1 26 44
M  V30 47 1 26 45
M  V30 END BOND
M  V30 END CTAB
M  END
