
     RDKit          3D

  0  0  0  0  0  0  0  0  0  0999 V3000
M  V30 BEGIN CTAB
M  V30 COUNTS 53 56 0 0 0
M  V30 BEGIN ATOM
M  V30 1 C 0.532416 2.44577 0.683803 0 CFG=1
M  V30 2 S 0.145549 2.2582 -1.04583 0
M  V30 3 C -1.28401 1.1561 -1.10021 0
M  V30 4 C -2.29664 1.60672 -0.0445888 0
M  V30 5 C -3.69281 1.63483 -0.462935 0
M  V30 6 N -4.17582 0.353746 -0.989534 0 CHG=1
M  V30 7 C -4.13818 -0.0193252 -2.27744 0
M  V30 8 C -4.67979 -1.28277 -2.39591 0
M  V30 9 C -5.04999 -1.66591 -1.1284 0
M  V30 10 N -5.65595 -2.88322 -0.720975 0
M  V30 11 N -4.71535 -0.619245 -0.309246 0
M  V30 12 C -4.97964 -0.7042 1.13424 0
M  V30 13 C -1.85539 1.91062 1.17151 0
M  V30 14 N -0.447483 1.8154 1.47481 0
M  V30 15 C 0.549192 1.29468 2.34132 0
M  V30 16 O 0.573012 0.80746 3.49639 0
M  V30 17 C 1.53224 1.57775 1.29463 0 CFG=1
M  V30 18 N 2.01224 0.440267 0.518964 0
M  V30 19 C 3.38414 0.237379 0.3928 0
M  V30 20 O 4.11915 1.12072 1.00516 0
M  V30 21 C 4.09805 -0.802066 -0.313886 0
M  V30 22 N 3.50402 -1.7121 -0.941235 0
M  V30 23 O 2.18738 -1.88282 -1.06796 0
M  V30 24 C 1.48984 -3.10552 -0.960875 0
M  V30 25 C 5.59335 -0.811466 -0.310057 0
M  V30 26 C 6.3349 -1.77342 -0.964492 0
M  V30 27 S 7.93394 -1.291 -0.620472 0
M  V30 28 C 7.58554 0.0863217 0.322187 0
M  V30 29 N 8.47601 1.02307 0.976774 0
M  V30 30 N 6.268 0.103107 0.323153 0
M  V30 31 C -2.73973 2.34513 2.24506 0
M  V30 32 O -2.18897 2.6125 3.52171 0 CHG=-1
M  V30 33 O -3.96409 2.51691 2.16916 0
M  V30 34 H 0.683087 3.49999 0.925402 0
M  V30 35 H -0.943642 0.126264 -0.870905 0
M  V30 36 H -1.71597 1.21033 -2.09467 0
M  V30 37 H -4.4373 2.12532 0.130306 0
M  V30 38 H -3.66738 2.2977 -1.4206 0
M  V30 39 H -3.7499 0.557347 -3.13399 0
M  V30 40 H -4.79292 -1.86045 -3.30291 0
M  V30 41 H -6.6728 -2.8861 -0.472483 0
M  V30 42 H -5.15792 -3.79245 -0.645957 0
M  V30 43 H -3.99978 -0.691124 1.6316 0
M  V30 44 H -5.53891 0.188229 1.49158 0
M  V30 45 H -5.58309 -1.56982 1.38114 0
M  V30 46 H 2.37032 2.18277 1.73729 0
M  V30 47 H 1.26844 -0.150028 0.108165 0
M  V30 48 H 2.01636 -3.84396 -1.60391 0
M  V30 49 H 1.47856 -3.38189 0.097655 0
M  V30 50 H 0.446668 -2.90694 -1.30983 0
M  V30 51 H 5.95038 -2.62816 -1.55397 0
M  V30 52 H 8.46423 2.01398 0.685789 0
M  V30 53 H 9.12644 0.71536 1.73434 0
M  V30 END ATOM
M  V30 BEGIN BOND
M  V30 1 1 1 2
M  V30 2 1 2 3
M  V30 3 1 3 4
M  V30 4 1 4 5
M  V30 5 1 5 6
M  V30 6 2 6 7
M  V30 7 1 7 8
M  V30 8 2 8 9
M  V30 9 1 9 10
M  V30 10 1 9 11
M  V30 11 1 11 12
M  V30 12 2 4 13
M  V30 13 1 13 14
M  V30 14 1 14 15
M  V30 15 2 15 16
M  V30 16 1 15 17
M  V30 17 1 17 18
M  V30 18 1 18 19
M  V30 19 2 19 20
M  V30 20 1 19 21
M  V30 21 2 21 22
M  V30 22 1 22 23
M  V30 23 1 23 24
M  V30 24 1 21 25
M  V30 25 2 25 26
M  V30 26 1 26 27
M  V30 27 1 27 28
M  V30 28 1 28 29
M  V30 29 2 28 30
M  V30 30 1 13 31
M  V30 31 1 31 32
M  V30 32 2 31 33
M  V30 33 1 14 1
M  V30 34 1 30 25
M  V30 35 1 17 1
M  V30 36 1 11 6
M  V30 37 1 1 34 CFG=1
M  V30 38 1 3 35
M  V30 39 1 3 36
M  V30 40 1 5 37
M  V30 41 1 5 38
M  V30 42 1 7 39
M  V30 43 1 8 40
M  V30 44 1 10 41
M  V30 45 1 10 42
M  V30 46 1 12 43
M  V30 47 1 12 44
M  V30 48 1 12 45
M  V30 49 1 17 46 CFG=1
M  V30 50 1 18 47
M  V30 51 1 24 48
M  V30 52 1 24 49
M  V30 53 1 24 50
M  V30 54 1 26 51
M  V30 55 1 29 52
M  V30 56 1 29 53
M  V30 END BOND
M  V30 END CTAB
M  END
