
     RDKit          3D

  0  0  0  0  0  0  0  0  0  0999 V3000
M  V30 BEGIN CTAB
M  V30 COUNTS 25 25 0 0 0
M  V30 BEGIN ATOM
M  V30 1 C 4.38759 -0.239898 -0.193299 0
M  V30 2 O 2.98241 -0.4411 0.00761305 0
M  V30 3 C 2.04635 0.496834 -0.395283 0
M  V30 4 O 2.48473 1.53693 -0.947304 0
M  V30 5 C 0.610478 0.29268 -0.190698 0
M  V30 6 C -0.322286 1.22173 -0.589362 0
M  V30 7 C -1.67255 1.01944 -0.391807 0
M  V30 8 N -2.62921 1.97625 -0.802687 0
M  V30 9 C -2.12255 -0.127461 0.214525 0
M  V30 10 C -1.21492 -1.07108 0.622278 0
M  V30 11 C 0.150772 -0.852714 0.41557 0
M  V30 12 N 1.06317 -1.8457 0.847689 0
M  V30 13 C -3.58636 -0.341038 0.42587 0
M  V30 14 H 4.598 0.475286 -0.992837 0
M  V30 15 H 4.80379 -1.25198 -0.380944 0
M  V30 16 H 4.86831 0.134465 0.74879 0
M  V30 17 H 0.0197441 2.11822 -1.06262 0
M  V30 18 H -3.36289 1.70258 -1.48262 0
M  V30 19 H -2.60609 2.94459 -0.433716 0
M  V30 20 H -1.52212 -1.99365 1.10609 0
M  V30 21 H 1.57863 -2.4608 0.194319 0
M  V30 22 H 1.25447 -1.99723 1.87805 0
M  V30 23 H -4.18355 0.359214 -0.179715 0
M  V30 24 H -3.78093 -1.39349 0.0813223 0
M  V30 25 H -3.84501 -0.262067 1.50077 0
M  V30 END ATOM
M  V30 BEGIN BOND
M  V30 1 1 1 2
M  V30 2 1 2 3
M  V30 3 2 3 4
M  V30 4 1 3 5
M  V30 5 2 5 6
M  V30 6 1 6 7
M  V30 7 1 7 8
M  V30 8 2 7 9
M  V30 9 1 9 10
M  V30 10 2 10 11
M  V30 11 1 11 12
M  V30 12 1 9 13
M  V30 13 1 11 5
M  V30 14 1 1 14
M  V30 15 1 1 15
M  V30 16 1 1 16
M  V30 17 1 6 17
M  V30 18 1 8 18
M  V30 19 1 8 19
M  V30 20 1 10 20
M  V30 21 1 12 21
M  V30 22 1 12 22
M  V30 23 1 13 23
M  V30 24 1 13 24
M  V30 25 1 13 25
M  V30 END BOND
M  V30 END CTAB
M  END
