
     RDKit          3D

  0  0  0  0  0  0  0  0  0  0999 V3000
M  V30 BEGIN CTAB
M  V30 COUNTS 29 30 0 0 0
M  V30 BEGIN ATOM
M  V30 1 N -6.03789 -2.27898 1.74187 0
M  V30 2 C -5.34932 -1.62945 1.10502 0
M  V30 3 C -4.50379 -0.812536 0.28992 0
M  V30 4 C -5.04286 -0.159203 -0.818681 0
M  V30 5 C -4.28049 0.638113 -1.63785 0
M  V30 6 C -2.948 0.781539 -1.33598 0
M  V30 7 C -2.36182 0.159767 -0.253441 0
M  V30 8 C -3.16872 -0.625939 0.532897 0
M  V30 9 C -0.932645 0.379994 -0.0217606 0
M  V30 10 S 0.113993 -0.822442 -0.857375 0
M  V30 11 C 1.82685 -0.40657 -0.467696 0
M  V30 12 N 2.84523 -1.13001 -0.951598 0
M  V30 13 C 4.14445 -0.875874 -0.701224 0
M  V30 14 N 5.18872 -1.67317 -1.23833 0
M  V30 15 C 4.4533 0.215967 0.118659 0
M  V30 16 C 3.41186 0.966282 0.62126 0
M  V30 17 N 2.14311 0.638668 0.318189 0
M  V30 18 N 3.67807 2.0973 1.46793 0
M  V30 19 H -6.09045 -0.263297 -1.06804 0
M  V30 20 H -4.73529 1.12764 -2.48762 0
M  V30 21 H -2.3643 1.42242 -2.00536 0
M  V30 22 H -2.72689 -1.12386 1.38942 0
M  V30 23 H -0.662386 1.38523 -0.403852 0
M  V30 24 H -0.708516 0.349106 1.08011 0
M  V30 25 H 5.34468 -1.64845 -2.26056 0
M  V30 26 H 5.75684 -2.24933 -0.597656 0
M  V30 27 H 5.46792 0.47211 0.35671 0
M  V30 28 H 3.9658 2.00083 2.45642 0
M  V30 29 H 3.57255 3.06415 1.05361 0
M  V30 END ATOM
M  V30 BEGIN BOND
M  V30 1 3 1 2
M  V30 2 1 2 3
M  V30 3 2 3 4
M  V30 4 1 4 5
M  V30 5 2 5 6
M  V30 6 1 6 7
M  V30 7 2 7 8
M  V30 8 1 7 9
M  V30 9 1 9 10
M  V30 10 1 10 11
M  V30 11 2 11 12
M  V30 12 1 12 13
M  V30 13 1 13 14
M  V30 14 2 13 15
M  V30 15 1 15 16
M  V30 16 2 16 17
M  V30 17 1 16 18
M  V30 18 1 8 3
M  V30 19 1 17 11
M  V30 20 1 4 19
M  V30 21 1 5 20
M  V30 22 1 6 21
M  V30 23 1 8 22
M  V30 24 1 9 23
M  V30 25 1 9 24
M  V30 26 1 14 25
M  V30 27 1 14 26
M  V30 28 1 15 27
M  V30 29 1 18 28
M  V30 30 1 18 29
M  V30 END BOND
M  V30 END CTAB
M  END
