
     RDKit          3D

  0  0  0  0  0  0  0  0  0  0999 V3000
M  V30 BEGIN CTAB
M  V30 COUNTS 28 28 0 0 0
M  V30 BEGIN ATOM
M  V30 1 N 3.24803 -0.841218 -0.0528299 0
M  V30 2 C 1.83516 -1.13489 0.0228632 0
M  V30 3 C 1.12482 0.0872774 0.625355 0
M  V30 4 C 1.35145 1.26655 -0.233034 0
M  V30 5 C 0.207548 1.79905 -0.994606 0
M  V30 6 C -1.14313 1.48108 -0.457754 0
M  V30 7 C -1.19137 -0.0217789 -0.260483 0
M  V30 8 C -2.59431 -0.481433 -0.00636813 0
M  V30 9 N -2.74493 -1.87283 0.191048 0
M  V30 10 C -0.27035 -0.293807 0.90522 0
M  V30 11 H 3.76534 -1.70188 0.212552 0
M  V30 12 H 3.51685 -0.0535398 0.578486 0
M  V30 13 H 1.60923 -2.04745 0.579667 0
M  V30 14 H 1.45741 -1.23857 -1.00172 0
M  V30 15 H 1.64634 0.22434 1.62057 0
M  V30 16 H 1.77628 2.10912 0.390395 0
M  V30 17 H 2.18363 1.04585 -0.966799 0
M  V30 18 H 0.268388 2.92347 -1.09108 0
M  V30 19 H 0.230023 1.43946 -2.06609 0
M  V30 20 H -1.26501 1.95126 0.543398 0
M  V30 21 H -1.90311 1.83865 -1.17459 0
M  V30 22 H -0.773509 -0.559187 -1.13588 0
M  V30 23 H -3.21128 -0.163533 -0.873274 0
M  V30 24 H -3.01017 0.0520951 0.885095 0
M  V30 25 H -3.02474 -2.18224 1.13128 0
M  V30 26 H -2.04446 -2.47564 -0.280337 0
M  V30 27 H -0.356453 -1.39165 1.11819 0
M  V30 28 H -0.687707 0.241436 1.79072 0
M  V30 END ATOM
M  V30 BEGIN BOND
M  V30 1 1 1 2
M  V30 2 1 2 3
M  V30 3 1 3 4
M  V30 4 1 4 5
M  V30 5 1 5 6
M  V30 6 1 6 7
M  V30 7 1 7 8
M  V30 8 1 8 9
M  V30 9 1 7 10
M  V30 10 1 10 3
M  V30 11 1 1 11
M  V30 12 1 1 12
M  V30 13 1 2 13
M  V30 14 1 2 14
M  V30 15 1 3 15
M  V30 16 1 4 16
M  V30 17 1 4 17
M  V30 18 1 5 18
M  V30 19 1 5 19
M  V30 20 1 6 20
M  V30 21 1 6 21
M  V30 22 1 7 22
M  V30 23 1 8 23
M  V30 24 1 8 24
M  V30 25 1 9 25
M  V30 26 1 9 26
M  V30 27 1 10 27
M  V30 28 1 10 28
M  V30 END BOND
M  V30 END CTAB
M  END
