
     RDKit          3D

  0  0  0  0  0  0  0  0  0  0999 V3000
M  V30 BEGIN CTAB
M  V30 COUNTS 34 35 0 0 0
M  V30 BEGIN ATOM
M  V30 1 C -1.93448 -2.12337 -0.709643 0
M  V30 2 C -0.54208 -1.79683 -0.153088 0 CFG=2
M  V30 3 N -0.590514 -2.0996 1.23859 0
M  V30 4 C -0.1725 -0.372683 -0.503603 0 CFG=2
M  V30 5 N -0.236087 -0.36846 -2.00857 0
M  V30 6 C 1.25264 -0.0768169 -0.231036 0
M  V30 7 C 1.86286 -0.297721 0.981707 0
M  V30 8 C 3.21692 0.00203109 1.20542 0
M  V30 9 C 3.97741 0.536351 0.188197 0
M  V30 10 F 5.28701 0.838129 0.368132 0
M  V30 11 C 3.40699 0.771599 -1.03516 0
M  V30 12 C 2.08601 0.464306 -1.20701 0
M  V30 13 C -1.12257 0.635339 -0.0417867 0
M  V30 14 C -1.08954 1.19771 1.2002 0
M  V30 15 C -2.03126 2.15585 1.60381 0
M  V30 16 C -3.01918 2.54661 0.73187 0
M  V30 17 F -3.95075 3.48342 1.10767 0
M  V30 18 N -3.04894 1.99122 -0.489928 0
M  V30 19 C -2.13177 1.05824 -0.882245 0
M  V30 20 H -1.98841 -2.02601 -1.79303 0
M  V30 21 H -2.71535 -1.4749 -0.263888 0
M  V30 22 H -2.21749 -3.162 -0.445869 0
M  V30 23 H 0.158677 -2.48778 -0.657615 0
M  V30 24 H -0.960287 -1.39166 1.86809 0
M  V30 25 H 0.120441 -2.74879 1.58096 0
M  V30 26 H -0.303889 0.575572 -2.37847 0
M  V30 27 H 0.511229 -0.984096 -2.31735 0
M  V30 28 H 1.33255 -0.709258 1.81493 0
M  V30 29 H 3.69949 -0.165878 2.14295 0
M  V30 30 H 4.03163 1.19378 -1.81843 0
M  V30 31 H 1.66808 0.660735 -2.17504 0
M  V30 32 H -0.327645 0.909183 1.89324 0
M  V30 33 H -1.98675 2.58891 2.59252 0
M  V30 34 H -2.24243 0.676839 -1.86392 0
M  V30 END ATOM
M  V30 BEGIN BOND
M  V30 1 1 1 2
M  V30 2 1 2 3
M  V30 3 1 2 4
M  V30 4 1 4 5 CFG=3
M  V30 5 1 4 6
M  V30 6 2 6 7
M  V30 7 1 7 8
M  V30 8 2 8 9
M  V30 9 1 9 10
M  V30 10 1 9 11
M  V30 11 2 11 12
M  V30 12 1 4 13
M  V30 13 2 13 14
M  V30 14 1 14 15
M  V30 15 2 15 16
M  V30 16 1 16 17
M  V30 17 1 16 18
M  V30 18 2 18 19
M  V30 19 1 12 6
M  V30 20 1 19 13
M  V30 21 1 1 20
M  V30 22 1 1 21
M  V30 23 1 1 22
M  V30 24 1 2 23 CFG=3
M  V30 25 1 3 24
M  V30 26 1 3 25
M  V30 27 1 5 26
M  V30 28 1 5 27
M  V30 29 1 7 28
M  V30 30 1 8 29
M  V30 31 1 11 30
M  V30 32 1 12 31
M  V30 33 1 14 32
M  V30 34 1 15 33
M  V30 35 1 19 34
M  V30 END BOND
M  V30 END CTAB
M  END
