
     RDKit          3D

  0  0  0  0  0  0  0  0  0  0999 V3000
M  V30 BEGIN CTAB
M  V30 COUNTS 45 46 0 0 0
M  V30 BEGIN ATOM
M  V30 1 N -2.41046 1.79447 1.92721 0
M  V30 2 C -3.43636 0.904212 1.43732 0
M  V30 3 C -3.04432 0.21185 0.145276 0
M  V30 4 C -4.16659 -0.668814 -0.260497 0
M  V30 5 C -3.84131 -1.94526 -0.925825 0
M  V30 6 C -2.3862 -2.20189 -1.17765 0
M  V30 7 C -1.67938 -1.89983 0.126502 0
M  V30 8 C -1.7156 -0.396861 0.297632 0
M  V30 9 N -0.737474 0.133402 -0.651512 0
M  V30 10 C 0.523618 0.653033 -0.244584 0
M  V30 11 O 0.797783 0.651283 0.972768 0
M  V30 12 C 1.41464 1.15855 -1.31882 0
M  V30 13 C 2.74036 1.65916 -0.808434 0
M  V30 14 C 3.51779 0.593485 -0.119001 0
M  V30 15 C 4.56439 0.937194 0.746366 0
M  V30 16 C 5.30411 -0.0287457 1.38072 0
M  V30 17 C 5.00383 -1.36289 1.15567 0
M  V30 18 C 3.9684 -1.7097 0.299507 0
M  V30 19 C 3.21443 -0.723311 -0.347284 0
M  V30 20 N 2.53466 2.79344 0.0887242 0
M  V30 21 H -2.86765 2.50098 2.54094 0
M  V30 22 H -1.98909 2.32888 1.11961 0
M  V30 23 H -3.62324 0.159365 2.25306 0
M  V30 24 H -4.36193 1.50008 1.32048 0
M  V30 25 H -2.95688 1.04574 -0.614647 0
M  V30 26 H -4.81991 -0.904171 0.632403 0
M  V30 27 H -4.86879 -0.0981812 -0.940083 0
M  V30 28 H -4.22061 -2.83969 -0.347235 0
M  V30 29 H -4.35473 -2.0559 -1.92623 0
M  V30 30 H -1.99393 -1.65502 -2.03902 0
M  V30 31 H -2.27482 -3.28636 -1.39161 0
M  V30 32 H -2.24185 -2.42194 0.921193 0
M  V30 33 H -0.629603 -2.21023 0.0543588 0
M  V30 34 H -1.26184 -0.234835 1.32045 0
M  V30 35 H -1.04578 0.0987279 -1.65629 0
M  V30 36 H 1.55196 0.435466 -2.13243 0
M  V30 37 H 0.840376 2.02471 -1.76957 0
M  V30 38 H 3.33485 2.02063 -1.66302 0
M  V30 39 H 4.77257 1.98655 0.900052 0
M  V30 40 H 6.12609 0.242032 2.06033 0
M  V30 41 H 5.57688 -2.12302 1.64747 0
M  V30 42 H 3.72704 -2.73708 0.117774 0
M  V30 43 H 2.41555 -1.00734 -1.01483 0
M  V30 44 H 1.6492 3.25676 -0.237447 0
M  V30 45 H 3.34983 3.42106 0.015924 0
M  V30 END ATOM
M  V30 BEGIN BOND
M  V30 1 1 1 2
M  V30 2 1 2 3
M  V30 3 1 3 4
M  V30 4 1 4 5
M  V30 5 1 5 6
M  V30 6 1 6 7
M  V30 7 1 7 8
M  V30 8 1 8 9
M  V30 9 1 9 10
M  V30 10 2 10 11
M  V30 11 1 10 12
M  V30 12 1 12 13
M  V30 13 1 13 14
M  V30 14 2 14 15
M  V30 15 1 15 16
M  V30 16 2 16 17
M  V30 17 1 17 18
M  V30 18 2 18 19
M  V30 19 1 13 20
M  V30 20 1 8 3
M  V30 21 1 19 14
M  V30 22 1 1 21
M  V30 23 1 1 22
M  V30 24 1 2 23
M  V30 25 1 2 24
M  V30 26 1 3 25
M  V30 27 1 4 26
M  V30 28 1 4 27
M  V30 29 1 5 28
M  V30 30 1 5 29
M  V30 31 1 6 30
M  V30 32 1 6 31
M  V30 33 1 7 32
M  V30 34 1 7 33
M  V30 35 1 8 34
M  V30 36 1 9 35
M  V30 37 1 12 36
M  V30 38 1 12 37
M  V30 39 1 13 38
M  V30 40 1 15 39
M  V30 41 1 16 40
M  V30 42 1 17 41
M  V30 43 1 18 42
M  V30 44 1 19 43
M  V30 45 1 20 44
M  V30 46 1 20 45
M  V30 END BOND
M  V30 END CTAB
M  END
