
     RDKit          3D

  0  0  0  0  0  0  0  0  0  0999 V3000
M  V30 BEGIN CTAB
M  V30 COUNTS 30 31 0 0 0
M  V30 BEGIN ATOM
M  V30 1 C -1.65695 1.45827 0.569972 0
M  V30 2 C -1.53912 0.116988 -0.0768993 0
M  V30 3 C -1.77316 0.235895 -1.55645 0
M  V30 4 C -2.56358 -0.877371 0.45658 0
M  V30 5 N -1.95146 -2.17389 0.403406 0
M  V30 6 C -0.622335 -2.03094 -0.103875 0
M  V30 7 C -0.269434 -0.6126 0.267947 0
M  V30 8 C 0.916975 -0.101218 -0.430458 0
M  V30 9 N 1.18891 0.0288707 -1.72605 0
M  V30 10 N 2.39486 0.542633 -1.90234 0
M  V30 11 C 2.94414 0.761886 -0.681517 0
M  V30 12 N 2.00864 0.354757 0.21243 0
M  V30 13 N 2.21184 0.425306 1.59591 0
M  V30 14 N 4.22241 1.30095 -0.381673 0
M  V30 15 H -2.7401 1.76005 0.56896 0
M  V30 16 H -1.26448 1.49137 1.59916 0
M  V30 17 H -1.15351 2.19864 -0.101715 0
M  V30 18 H -1.2967 -0.577704 -2.14498 0
M  V30 19 H -2.88052 0.107798 -1.7418 0
M  V30 20 H -1.53298 1.24879 -1.95228 0
M  V30 21 H -2.71355 -0.586819 1.53529 0
M  V30 22 H -3.5179 -0.830467 -0.103119 0
M  V30 23 H -1.86144 -2.60721 1.37214 0
M  V30 24 H 0.112693 -2.7066 0.402148 0
M  V30 25 H -0.531328 -2.22726 -1.18806 0
M  V30 26 H -0.160648 -0.579006 1.36955 0
M  V30 27 H 2.78932 -0.306038 2.06777 0
M  V30 28 H 1.81314 1.17866 2.19254 0
M  V30 29 H 4.78161 0.935078 0.414779 0
M  V30 30 H 4.64466 2.07117 -0.937371 0
M  V30 END ATOM
M  V30 BEGIN BOND
M  V30 1 1 1 2
M  V30 2 1 2 3
M  V30 3 1 2 4
M  V30 4 1 4 5
M  V30 5 1 5 6
M  V30 6 1 6 7
M  V30 7 1 7 8
M  V30 8 2 8 9
M  V30 9 1 9 10
M  V30 10 2 10 11
M  V30 11 1 11 12
M  V30 12 1 12 13
M  V30 13 1 11 14
M  V30 14 1 7 2
M  V30 15 1 12 8
M  V30 16 1 1 15
M  V30 17 1 1 16
M  V30 18 1 1 17
M  V30 19 1 3 18
M  V30 20 1 3 19
M  V30 21 1 3 20
M  V30 22 1 4 21
M  V30 23 1 4 22
M  V30 24 1 5 23
M  V30 25 1 6 24
M  V30 26 1 6 25
M  V30 27 1 7 26
M  V30 28 1 13 27
M  V30 29 1 13 28
M  V30 30 1 14 29
M  V30 31 1 14 30
M  V30 END BOND
M  V30 END CTAB
M  END
