
     RDKit          3D

  0  0  0  0  0  0  0  0  0  0999 V3000
M  V30 BEGIN CTAB
M  V30 COUNTS 29 29 0 0 0
M  V30 BEGIN ATOM
M  V30 1 C -0.296954 1.60946 -1.81086 0
M  V30 2 C -0.348736 0.169286 -1.36302 0
M  V30 3 C -0.184572 0.0060965 0.0851108 0
M  V30 4 C -1.3009 0.148908 0.900682 0
M  V30 5 C -2.6712 0.368571 0.411901 0
M  V30 6 C -3.37705 -0.879201 -0.0509187 0
M  V30 7 N -1.13265 0.05125 2.22831 0
M  V30 8 N 0.0527908 -0.174059 2.75023 0
M  V30 9 C 1.15292 -0.317634 1.99764 0
M  V30 10 C 1.08407 -0.232039 0.591633 0
M  V30 11 C 2.30827 -0.369334 -0.118881 0
M  V30 12 N 3.42214 -0.596396 0.537445 0
M  V30 13 N 2.48159 -0.278751 -1.50331 0
M  V30 14 N 2.42563 -0.565668 2.61998 0
M  V30 15 H 0.322853 1.67089 -2.73644 0
M  V30 16 H 0.123319 2.26002 -1.00747 0
M  V30 17 H -1.28755 2.02449 -2.06189 0
M  V30 18 H -1.46321 -0.118853 -1.55603 0
M  V30 19 H 0.258143 -0.497431 -1.93307 0
M  V30 20 H -3.30772 0.836008 1.21056 0
M  V30 21 H -2.70969 1.10981 -0.417751 0
M  V30 22 H -2.67266 -1.71764 -0.251092 0
M  V30 23 H -4.10805 -1.21209 0.719332 0
M  V30 24 H -3.99309 -0.614652 -0.930766 0
M  V30 25 H 4.34272 -0.707863 0.122186 0
M  V30 26 H 2.49439 -1.19052 -2.05893 0
M  V30 27 H 2.6126 0.567382 -2.07374 0
M  V30 28 H 2.71065 -1.55608 2.77998 0
M  V30 29 H 3.06194 0.206038 2.91918 0
M  V30 END ATOM
M  V30 BEGIN BOND
M  V30 1 1 1 2
M  V30 2 1 2 3
M  V30 3 2 3 4
M  V30 4 1 4 5
M  V30 5 1 5 6
M  V30 6 1 4 7
M  V30 7 2 7 8
M  V30 8 1 8 9
M  V30 9 2 9 10
M  V30 10 1 10 11
M  V30 11 2 11 12 CFG=2
M  V30 12 1 11 13
M  V30 13 1 9 14
M  V30 14 1 10 3
M  V30 15 1 1 15
M  V30 16 1 1 16
M  V30 17 1 1 17
M  V30 18 1 2 18
M  V30 19 1 2 19
M  V30 20 1 5 20
M  V30 21 1 5 21
M  V30 22 1 6 22
M  V30 23 1 6 23
M  V30 24 1 6 24
M  V30 25 1 12 25
M  V30 26 1 13 26
M  V30 27 1 13 27
M  V30 28 1 14 28
M  V30 29 1 14 29
M  V30 END BOND
M  V30 END CTAB
M  END
