
     RDKit          3D

  0  0  0  0  0  0  0  0  0  0999 V3000
M  V30 BEGIN CTAB
M  V30 COUNTS 21 21 0 0 0
M  V30 BEGIN ATOM
M  V30 1 N 0.371663 2.83465 0.540625 0
M  V30 2 C 0.789981 1.58986 -0.174058 0
M  V30 3 C -0.301682 0.652665 -0.045998 0
M  V30 4 N -1.49479 1.03974 0.290822 0
M  V30 5 C -2.57656 0.256398 0.427332 0
M  V30 6 C -2.39926 -1.12495 0.189931 0
M  V30 7 C -1.12626 -1.52801 -0.170289 0
M  V30 8 C -0.0641252 -0.709162 -0.299897 0
M  V30 9 C 1.26385 -1.05494 -0.784053 0
M  V30 10 N 2.18177 -1.65173 0.224334 0
M  V30 11 H -0.102981 2.39525 1.42488 0
M  V30 12 H 1.22287 3.31559 0.905085 0
M  V30 13 H 1.81546 1.31725 -0.0750747 0
M  V30 14 H 0.654346 2.00981 -1.28156 0
M  V30 15 H -3.57329 0.572271 0.646451 0
M  V30 16 H -3.19042 -1.87657 0.314555 0
M  V30 17 H -0.944937 -2.62825 -0.420081 0
M  V30 18 H 1.00365 -2.1579 -1.32644 0
M  V30 19 H 1.71052 -0.633849 -1.65258 0
M  V30 20 H 1.70175 -1.55858 1.10271 0
M  V30 21 H 3.05845 -1.05954 0.163303 0
M  V30 END ATOM
M  V30 BEGIN BOND
M  V30 1 1 1 2
M  V30 2 1 2 3
M  V30 3 2 3 4
M  V30 4 1 4 5
M  V30 5 2 5 6
M  V30 6 1 6 7
M  V30 7 2 7 8
M  V30 8 1 8 9
M  V30 9 1 9 10
M  V30 10 1 8 3
M  V30 11 1 1 11
M  V30 12 1 1 12
M  V30 13 1 2 13
M  V30 14 1 2 14
M  V30 15 1 5 15
M  V30 16 1 6 16
M  V30 17 1 7 17
M  V30 18 1 9 18
M  V30 19 1 9 19
M  V30 20 1 10 20
M  V30 21 1 10 21
M  V30 END BOND
M  V30 END CTAB
M  END
