
     RDKit          3D

  0  0  0  0  0  0  0  0  0  0999 V3000
M  V30 BEGIN CTAB
M  V30 COUNTS 41 43 0 0 0
M  V30 BEGIN ATOM
M  V30 1 N -1.02514 -0.296662 -2.58562 0
M  V30 2 C -1.1927 -0.251479 -1.17831 0
M  V30 3 N -0.103815 -0.291935 -0.417004 0
M  V30 4 C -0.255456 -0.24981 0.905307 0
M  V30 5 C 0.913181 -0.290575 1.84827 0
M  V30 6 O 2.14628 -0.175746 1.22913 0
M  V30 7 C 2.61069 0.882816 0.470242 0
M  V30 8 O 1.84252 1.85036 0.321353 0
M  V30 9 C 3.9771 0.870786 -0.147645 0
M  V30 10 C 4.40132 1.9404 -0.893841 0
M  V30 11 S 5.96917 1.48598 -1.37527 0
M  V30 12 C 6.05907 -0.0370743 -0.629722 0
M  V30 13 C 4.8456 -0.15843 -0.0127777 0
M  V30 14 S 7.39136 -1.21034 -0.632305 0
M  V30 15 O 7.77957 -1.58297 -2.01803 0
M  V30 16 O 6.98641 -2.35666 0.214307 0
M  V30 17 N 8.74499 -0.377025 0.0892457 0
M  V30 18 N -1.45409 -0.168753 1.49696 0
M  V30 19 C -2.59161 -0.125612 0.736053 0
M  V30 20 N -2.38956 -0.170432 -0.583316 0
M  V30 21 N -3.84255 -0.0638117 1.37137 0
M  V30 22 C -5.06905 0.00128213 0.700882 0
M  V30 23 C -5.25663 0.42912 -0.577359 0
M  V30 24 C -6.51889 0.444347 -1.19425 0
M  V30 25 C -7.63386 0.0174853 -0.508919 0
M  V30 26 C -7.4746 -0.420638 0.787747 0
M  V30 27 C -6.23461 -0.427564 1.37012 0
M  V30 28 H -0.255292 0.256446 -3.0267 0
M  V30 29 H -1.6328 -0.855035 -3.2021 0
M  V30 30 H 0.714518 0.487248 2.61456 0
M  V30 31 H 0.853632 -1.28358 2.34292 0
M  V30 32 H 3.83349 2.86985 -1.11451 0
M  V30 33 H 4.58104 -1.0713 0.579538 0
M  V30 34 H 8.48285 -0.221565 1.0955 0
M  V30 35 H 8.8515 0.549495 -0.40227 0
M  V30 36 H -3.8494 -0.0648454 2.44982 0
M  V30 37 H -4.47261 0.802283 -1.20447 0
M  V30 38 H -6.65416 0.785495 -2.20897 0
M  V30 39 H -8.63161 0.00374784 -0.924588 0
M  V30 40 H -8.35118 -0.758624 1.33427 0
M  V30 41 H -6.09466 -0.766662 2.38138 0
M  V30 END ATOM
M  V30 BEGIN BOND
M  V30 1 1 1 2
M  V30 2 2 2 3
M  V30 3 1 3 4
M  V30 4 1 4 5
M  V30 5 1 5 6
M  V30 6 1 6 7
M  V30 7 2 7 8
M  V30 8 1 7 9
M  V30 9 2 9 10
M  V30 10 1 10 11
M  V30 11 1 11 12
M  V30 12 2 12 13
M  V30 13 1 12 14
M  V30 14 2 14 15
M  V30 15 2 14 16
M  V30 16 1 14 17
M  V30 17 2 4 18
M  V30 18 1 18 19
M  V30 19 2 19 20
M  V30 20 1 19 21
M  V30 21 1 21 22
M  V30 22 2 22 23
M  V30 23 1 23 24
M  V30 24 2 24 25
M  V30 25 1 25 26
M  V30 26 2 26 27
M  V30 27 1 20 2
M  V30 28 1 27 22
M  V30 29 1 13 9
M  V30 30 1 1 28
M  V30 31 1 1 29
M  V30 32 1 5 30
M  V30 33 1 5 31
M  V30 34 1 10 32
M  V30 35 1 13 33
M  V30 36 1 17 34
M  V30 37 1 17 35
M  V30 38 1 21 36
M  V30 39 1 23 37
M  V30 40 1 24 38
M  V30 41 1 25 39
M  V30 42 1 26 40
M  V30 43 1 27 41
M  V30 END BOND
M  V30 END CTAB
M  END
