
     RDKit          3D

  0  0  0  0  0  0  0  0  0  0999 V3000
M  V30 BEGIN CTAB
M  V30 COUNTS 22 22 0 0 0
M  V30 BEGIN ATOM
M  V30 1 N 2.03668 -0.319025 0.811476 0
M  V30 2 C 1.18596 0.108242 -0.298709 0
M  V30 3 C 0.679708 1.51582 -0.138867 0
M  V30 4 C -0.720582 1.04428 -0.211476 0
M  V30 5 C -0.221717 -0.401623 -0.253092 0
M  V30 6 C -0.480056 -1.18555 1.00272 0
M  V30 7 C -0.712788 -1.08058 -1.5035 0
M  V30 8 N -1.5165 1.24074 0.948196 0
M  V30 9 H 2.36048 -1.28558 0.552168 0
M  V30 10 H 2.89369 0.29665 0.785241 0
M  V30 11 H 1.64186 -0.133438 -1.28433 0
M  V30 12 H 1.0273 1.96088 0.818049 0
M  V30 13 H 1.03617 2.13106 -1.01624 0
M  V30 14 H -1.20938 1.38074 -1.15065 0
M  V30 15 H 0.436616 -1.69886 1.33907 0
M  V30 16 H -0.86856 -0.590345 1.83589 0
M  V30 17 H -1.21702 -1.99633 0.775653 0
M  V30 18 H -1.57404 -1.75254 -1.26198 0
M  V30 19 H 0.070959 -1.73862 -1.92153 0
M  V30 20 H -1.0317 -0.34798 -2.25801 0
M  V30 21 H -2.38887 0.731688 0.993062 0
M  V30 22 H -1.42819 2.12036 1.43685 0
M  V30 END ATOM
M  V30 BEGIN BOND
M  V30 1 1 1 2
M  V30 2 1 2 3
M  V30 3 1 3 4
M  V30 4 1 4 5
M  V30 5 1 5 6
M  V30 6 1 5 7
M  V30 7 1 4 8
M  V30 8 1 5 2
M  V30 9 1 1 9
M  V30 10 1 1 10
M  V30 11 1 2 11
M  V30 12 1 3 12
M  V30 13 1 3 13
M  V30 14 1 4 14
M  V30 15 1 6 15
M  V30 16 1 6 16
M  V30 17 1 6 17
M  V30 18 1 7 18
M  V30 19 1 7 19
M  V30 20 1 7 20
M  V30 21 1 8 21
M  V30 22 1 8 22
M  V30 END BOND
M  V30 END CTAB
M  END
