
     RDKit          3D

  0  0  0  0  0  0  0  0  0  0999 V3000
M  V30 BEGIN CTAB
M  V30 COUNTS 37 38 0 0 0
M  V30 BEGIN ATOM
M  V30 1 O -2.22522 3.88034 -0.738763 0 CHG=-1
M  V30 2 N -1.42818 2.77073 -0.605156 0 CHG=1
M  V30 3 O -0.208643 2.91751 -0.711035 0
M  V30 4 C -1.98418 1.499 -0.355616 0
M  V30 5 C -3.17169 1.5173 0.3997 0
M  V30 6 C -3.82905 0.349173 0.695859 0
M  V30 7 N -5.02453 0.397758 1.45955 0 CHG=1
M  V30 8 O -5.96104 -0.41167 1.32492 0
M  V30 9 O -5.18967 1.38631 2.41518 0 CHG=-1
M  V30 10 C -3.32921 -0.837906 0.255852 0
M  V30 11 C -2.16297 -0.84849 -0.48476 0
M  V30 12 C -1.48122 0.305822 -0.79727 0
M  V30 13 N -0.2889 0.257114 -1.5427 0
M  V30 14 C 1.00541 0.0528221 -1.05914 0
M  V30 15 C 1.21774 -0.209533 0.275818 0
M  V30 16 C 2.51058 -0.416628 0.769056 0
M  V30 17 C 3.56739 -0.353539 -0.104294 0
M  V30 18 C 3.34567 -0.0888736 -1.44736 0
M  V30 19 C 2.0727 0.113596 -1.92481 0
M  V30 20 S 5.18554 -0.604248 0.449811 0
M  V30 21 O 5.98668 -1.25313 -0.658743 0
M  V30 22 O 5.169 -1.5545 1.6285 0
M  V30 23 N 5.98572 0.818728 0.944347 0
M  V30 24 N -1.68921 -2.11682 -0.920118 0 CHG=1
M  V30 25 O -1.198 -2.88731 -0.0725977 0
M  V30 26 O -1.76967 -2.49504 -2.23052 0 CHG=-1
M  V30 27 N -4.0268 -2.03425 0.573962 0
M  V30 28 H -3.57602 2.46076 0.754181 0
M  V30 29 H -0.416937 0.394371 -2.59038 0
M  V30 30 H 0.4273 -0.271844 1.01025 0
M  V30 31 H 2.67546 -0.621686 1.81521 0
M  V30 32 H 4.18674 -0.0422352 -2.12304 0
M  V30 33 H 1.96287 0.317676 -2.98895 0
M  V30 34 H 5.38681 1.64946 1.04181 0
M  V30 35 H 6.85708 0.9351 0.42089 0
M  V30 36 H -4.35514 -2.63173 -0.227473 0
M  V30 37 H -4.22641 -2.34413 1.54338 0
M  V30 END ATOM
M  V30 BEGIN BOND
M  V30 1 1 1 2
M  V30 2 2 2 3
M  V30 3 1 2 4
M  V30 4 2 4 5
M  V30 5 1 5 6
M  V30 6 1 6 7
M  V30 7 2 7 8
M  V30 8 1 7 9
M  V30 9 2 6 10
M  V30 10 1 10 11
M  V30 11 2 11 12
M  V30 12 1 12 13
M  V30 13 1 13 14
M  V30 14 2 14 15
M  V30 15 1 15 16
M  V30 16 2 16 17
M  V30 17 1 17 18
M  V30 18 2 18 19
M  V30 19 1 17 20
M  V30 20 2 20 21
M  V30 21 2 20 22
M  V30 22 1 20 23
M  V30 23 1 11 24
M  V30 24 2 24 25
M  V30 25 1 24 26
M  V30 26 1 10 27
M  V30 27 1 12 4
M  V30 28 1 19 14
M  V30 29 1 5 28
M  V30 30 1 13 29
M  V30 31 1 15 30
M  V30 32 1 16 31
M  V30 33 1 18 32
M  V30 34 1 19 33
M  V30 35 1 23 34
M  V30 36 1 23 35
M  V30 37 1 27 36
M  V30 38 1 27 37
M  V30 END BOND
M  V30 END CTAB
M  END
