
     RDKit          3D

  0  0  0  0  0  0  0  0  0  0999 V3000
M  V30 BEGIN CTAB
M  V30 COUNTS 32 33 0 0 0
M  V30 BEGIN ATOM
M  V30 1 C -1.15858 2.66041 -0.804084 0
M  V30 2 C -1.33802 1.91836 0.491448 0
M  V30 3 C -1.70296 0.498643 0.34408 0
M  V30 4 C -0.779085 -0.457218 0.0651337 0
M  V30 5 C -1.1267 -1.80458 -0.109433 0
M  V30 6 N -0.133769 -2.78648 -0.417063 0
M  V30 7 N -2.42207 -2.11462 0.0148005 0
M  V30 8 C -3.3482 -1.18688 0.291188 0
M  V30 9 N -4.68502 -1.62357 0.415243 0
M  V30 10 N -3.00026 0.120808 0.456774 0
M  V30 11 C 0.647256 -0.198317 -0.02519 0
M  V30 12 C 1.33299 0.0395899 1.15317 0
M  V30 13 C 2.68855 0.251335 1.18169 0
M  V30 14 C 3.33528 0.215969 -0.0374883 0
M  V30 15 C 2.66155 -0.0195443 -1.22055 0
M  V30 16 C 1.2811 -0.234555 -1.23028 0
M  V30 17 N 4.74105 0.420075 -0.085518 0 CHG=1
M  V30 18 O 5.42568 0.373982 -1.27182 0 CHG=-1
M  V30 19 O 5.34209 0.650552 0.978683 0
M  V30 20 H -1.20442 3.75311 -0.563712 0
M  V30 21 H -1.93693 2.37927 -1.55394 0
M  V30 22 H -0.146959 2.49094 -1.19042 0
M  V30 23 H -0.405195 2.03319 1.05609 0
M  V30 24 H -2.12569 2.39406 1.13117 0
M  V30 25 H 0.124 -2.90729 -1.41842 0
M  V30 26 H 0.28734 -3.32975 0.346982 0
M  V30 27 H -5.23848 -1.85113 -0.418172 0
M  V30 28 H -5.10739 -1.71491 1.35269 0
M  V30 29 H 0.76409 0.0550979 2.07784 0
M  V30 30 H 3.24331 0.437555 2.07859 0
M  V30 31 H 3.1974 -0.0438406 -2.15845 0
M  V30 32 H 0.788032 -0.420253 -2.17264 0
M  V30 END ATOM
M  V30 BEGIN BOND
M  V30 1 1 1 2
M  V30 2 1 2 3
M  V30 3 2 3 4
M  V30 4 1 4 5
M  V30 5 1 5 6
M  V30 6 2 5 7
M  V30 7 1 7 8
M  V30 8 1 8 9
M  V30 9 2 8 10
M  V30 10 1 4 11
M  V30 11 2 11 12
M  V30 12 1 12 13
M  V30 13 2 13 14
M  V30 14 1 14 15
M  V30 15 2 15 16
M  V30 16 1 14 17
M  V30 17 1 17 18
M  V30 18 2 17 19
M  V30 19 1 10 3
M  V30 20 1 16 11
M  V30 21 1 1 20
M  V30 22 1 1 21
M  V30 23 1 1 22
M  V30 24 1 2 23
M  V30 25 1 2 24
M  V30 26 1 6 25
M  V30 27 1 6 26
M  V30 28 1 9 27
M  V30 29 1 9 28
M  V30 30 1 12 29
M  V30 31 1 13 30
M  V30 32 1 15 31
M  V30 33 1 16 32
M  V30 END BOND
M  V30 END CTAB
M  END
