
     RDKit          3D

  0  0  0  0  0  0  0  0  0  0999 V3000
M  V30 BEGIN CTAB
M  V30 COUNTS 48 50 0 0 0
M  V30 BEGIN ATOM
M  V30 1 N -5.01863 1.96639 -0.52066 0
M  V30 2 C -4.68942 0.639636 -0.984038 0
M  V30 3 C -5.30918 -0.361632 -0.0392945 0
M  V30 4 C -4.99015 -1.80017 -0.388875 0
M  V30 5 C -3.50922 -1.96071 -0.767694 0
M  V30 6 C -2.82585 -0.751661 -0.25437 0
M  V30 7 C -3.24419 0.39748 -1.19206 0
M  V30 8 C -2.31174 1.45063 -0.647198 0
M  V30 9 N -1.05438 0.751479 -0.34682 0
M  V30 10 C -1.34568 -0.677361 -0.451077 0
M  V30 11 C -0.629478 1.06545 1.02088 0
M  V30 12 C 0.722043 0.474304 1.32688 0
M  V30 13 O 1.64989 1.02592 0.427196 0
M  V30 14 C 2.9652 0.636387 0.482338 0
M  V30 15 C 3.37203 -0.290353 1.4042 0
M  V30 16 C 4.70843 -0.661105 1.43273 0
M  V30 17 C 5.61303 -0.0922031 0.532229 0
M  V30 18 C 5.15027 0.851092 -0.391774 0
M  V30 19 C 3.83603 1.21747 -0.422785 0
M  V30 20 S 7.299 -0.536189 0.53486 0
M  V30 21 O 8.1364 0.640191 0.118854 0
M  V30 22 O 7.74899 -1.01448 1.88608 0
M  V30 23 N 7.49758 -1.83787 -0.601556 0
M  V30 24 H -4.67923 2.72063 -1.15063 0
M  V30 25 H -4.82588 2.09643 0.47588 0
M  V30 26 H -5.20397 0.491471 -1.98098 0
M  V30 27 H -5.09921 -0.140752 1.01042 0
M  V30 28 H -6.4222 -0.260898 -0.181164 0
M  V30 29 H -5.66763 -2.23669 -1.13235 0
M  V30 30 H -5.11158 -2.39627 0.540359 0
M  V30 31 H -3.50684 -1.90024 -1.89232 0
M  V30 32 H -3.10047 -2.9265 -0.488112 0
M  V30 33 H -3.09224 -0.455576 0.77873 0
M  V30 34 H -2.95275 0.141235 -2.23151 0
M  V30 35 H -2.66618 1.88325 0.297769 0
M  V30 36 H -2.09592 2.27119 -1.33492 0
M  V30 37 H -1.13616 -1.00311 -1.51291 0
M  V30 38 H -0.768961 -1.2597 0.26282 0
M  V30 39 H -1.36684 0.687982 1.7403 0
M  V30 40 H -0.530624 2.17879 1.05458 0
M  V30 41 H 0.732003 -0.611562 1.40016 0
M  V30 42 H 0.995598 0.878316 2.34401 0
M  V30 43 H 2.69929 -0.761312 2.13363 0
M  V30 44 H 5.0346 -1.39203 2.15442 0
M  V30 45 H 5.87701 1.27208 -1.07557 0
M  V30 46 H 3.46629 1.93512 -1.11923 0
M  V30 47 H 7.11513 -1.54286 -1.54024 0
M  V30 48 H 8.53581 -2.03359 -0.711205 0
M  V30 END ATOM
M  V30 BEGIN BOND
M  V30 1 1 1 2
M  V30 2 1 2 3
M  V30 3 1 3 4
M  V30 4 1 4 5
M  V30 5 1 5 6
M  V30 6 1 6 7
M  V30 7 1 7 8
M  V30 8 1 8 9
M  V30 9 1 9 10
M  V30 10 1 9 11
M  V30 11 1 11 12
M  V30 12 1 12 13
M  V30 13 1 13 14
M  V30 14 2 14 15
M  V30 15 1 15 16
M  V30 16 2 16 17
M  V30 17 1 17 18
M  V30 18 2 18 19
M  V30 19 1 17 20
M  V30 20 2 20 21
M  V30 21 2 20 22
M  V30 22 1 20 23
M  V30 23 1 7 2
M  V30 24 1 19 14
M  V30 25 1 10 6
M  V30 26 1 1 24
M  V30 27 1 1 25
M  V30 28 1 2 26
M  V30 29 1 3 27
M  V30 30 1 3 28
M  V30 31 1 4 29
M  V30 32 1 4 30
M  V30 33 1 5 31
M  V30 34 1 5 32
M  V30 35 1 6 33
M  V30 36 1 7 34
M  V30 37 1 8 35
M  V30 38 1 8 36
M  V30 39 1 10 37
M  V30 40 1 10 38
M  V30 41 1 11 39
M  V30 42 1 11 40
M  V30 43 1 12 41
M  V30 44 1 12 42
M  V30 45 1 15 43
M  V30 46 1 16 44
M  V30 47 1 18 45
M  V30 48 1 19 46
M  V30 49 1 23 47
M  V30 50 1 23 48
M  V30 END BOND
M  V30 END CTAB
M  END
