
     RDKit          3D

  0  0  0  0  0  0  0  0  0  0999 V3000
M  V30 BEGIN CTAB
M  V30 COUNTS 24 24 0 0 0
M  V30 BEGIN ATOM
M  V30 1 C -3.88413 0.356074 -0.426027 0
M  V30 2 C -3.13149 -0.767542 0.332698 0
M  V30 3 C -1.89884 -1.03879 -0.546149 0
M  V30 4 S -0.927495 0.448209 -0.638724 0
M  V30 5 C 0.787445 0.298157 -0.318849 0
M  V30 6 N 1.47559 -0.824375 -0.0862828 0
M  V30 7 C 2.82102 -0.768183 0.147415 0
M  V30 8 N 3.61394 -1.90525 0.374407 0
M  V30 9 N 3.47109 0.432192 0.148417 0
M  V30 10 C 2.79518 1.55022 -0.0797152 0
M  V30 11 N 1.49323 1.46926 -0.30373 0
M  V30 12 N 3.43509 2.82363 -0.0950428 0
M  V30 13 O -2.79404 -0.223857 1.54586 0
M  V30 14 H -3.23765 1.26932 -0.285796 0
M  V30 15 H -4.86324 0.565142 -0.0289793 0
M  V30 16 H -3.8136 0.10995 -1.49862 0
M  V30 17 H -3.78494 -1.63782 0.386311 0
M  V30 18 H -1.35162 -1.93051 -0.143123 0
M  V30 19 H -2.29185 -1.3431 -1.53239 0
M  V30 20 H 3.58064 -2.36048 1.29453 0
M  V30 21 H 4.20276 -2.28024 -0.380878 0
M  V30 22 H 3.47317 3.34113 -0.979406 0
M  V30 23 H 3.84453 3.18002 0.785118 0
M  V30 24 H -3.01477 -0.763167 2.32895 0
M  V30 END ATOM
M  V30 BEGIN BOND
M  V30 1 1 1 2
M  V30 2 1 2 3
M  V30 3 1 3 4
M  V30 4 1 4 5
M  V30 5 2 5 6
M  V30 6 1 6 7
M  V30 7 1 7 8
M  V30 8 2 7 9
M  V30 9 1 9 10
M  V30 10 2 10 11
M  V30 11 1 10 12
M  V30 12 1 2 13
M  V30 13 1 11 5
M  V30 14 1 1 14
M  V30 15 1 1 15
M  V30 16 1 1 16
M  V30 17 1 2 17
M  V30 18 1 3 18
M  V30 19 1 3 19
M  V30 20 1 8 20
M  V30 21 1 8 21
M  V30 22 1 12 22
M  V30 23 1 12 23
M  V30 24 1 13 24
M  V30 END BOND
M  V30 END CTAB
M  END
