
     RDKit          3D

  0  0  0  0  0  0  0  0  0  0999 V3000
M  V30 BEGIN CTAB
M  V30 COUNTS 45 48 0 0 0
M  V30 BEGIN ATOM
M  V30 1 N -5.49037 -1.02351 -2.58691 0
M  V30 2 C -4.39444 -0.898758 -2.2366 0
M  V30 3 C -3.01932 -0.727575 -1.79312 0
M  V30 4 C -2.09933 -0.397329 -2.67308 0
M  V30 5 N -2.52191 -0.222411 -4.04174 0
M  V30 6 O -0.77249 -0.22082 -2.32333 0
M  V30 7 C -0.446996 -0.412857 -0.973351 0
M  V30 8 C -1.36978 -0.756149 -0.0273136 0
M  V30 9 C -2.77821 -0.932786 -0.353241 0
M  V30 10 C -3.74187 -0.200232 0.479862 0
M  V30 11 C -3.60247 1.15582 0.647531 0
M  V30 12 C -4.53007 1.87634 1.41357 0
M  V30 13 C -5.57571 1.20632 1.99084 0
M  V30 14 C -5.73761 -0.160327 1.83633 0
M  V30 15 C -4.80269 -0.824886 1.07616 0
M  V30 16 Br -7.21398 -1.07941 2.65659 0
M  V30 17 C -0.93755 -0.926203 1.28464 0
M  V30 18 N -1.91696 -1.29264 2.23444 0
M  V30 19 N 0.351912 -0.755943 1.61156 0
M  V30 20 C 1.24648 -0.418164 0.673365 0
M  V30 21 N 0.858629 -0.2495 -0.593253 0
M  V30 22 S 2.94864 -0.210683 1.19945 0
M  V30 23 C 3.90464 0.239129 -0.274925 0
M  V30 24 C 5.33924 0.436083 0.051207 0
M  V30 25 C 5.82916 0.28547 1.3196 0
M  V30 26 C 7.17327 0.48648 1.53767 0
M  V30 27 C 8.06104 0.835274 0.534499 0
M  V30 28 C 7.51906 0.976108 -0.731758 0
M  V30 29 C 6.19008 0.78273 -0.975886 0
M  V30 30 Cl 5.54694 0.975515 -2.6148 0
M  V30 31 H -3.4439 0.169201 -4.27615 0
M  V30 32 H -1.87837 -0.499099 -4.79871 0
M  V30 33 H -2.97665 -2.04751 -0.196503 0
M  V30 34 H -2.80575 1.71067 0.21625 0
M  V30 35 H -4.43356 2.94347 1.55443 0
M  V30 36 H -6.34085 1.69721 2.60275 0
M  V30 37 H -4.91582 -1.88561 0.947755 0
M  V30 38 H -2.26475 -0.590641 2.90145 0
M  V30 39 H -2.27769 -2.25556 2.2602 0
M  V30 40 H 3.79498 -0.587876 -0.994717 0
M  V30 41 H 3.4835 1.17821 -0.67791 0
M  V30 42 H 5.1497 0.00871675 2.13945 0
M  V30 43 H 7.58787 0.37137 2.54549 0
M  V30 44 H 9.11532 0.990449 0.718774 0
M  V30 45 H 8.18864 1.25191 -1.556 0
M  V30 END ATOM
M  V30 BEGIN BOND
M  V30 1 3 1 2
M  V30 2 1 2 3
M  V30 3 2 3 4
M  V30 4 1 4 5
M  V30 5 1 4 6
M  V30 6 1 6 7
M  V30 7 2 7 8
M  V30 8 1 8 9
M  V30 9 1 9 10
M  V30 10 2 10 11
M  V30 11 1 11 12
M  V30 12 2 12 13
M  V30 13 1 13 14
M  V30 14 2 14 15
M  V30 15 1 14 16
M  V30 16 1 8 17
M  V30 17 1 17 18
M  V30 18 2 17 19
M  V30 19 1 19 20
M  V30 20 2 20 21
M  V30 21 1 20 22
M  V30 22 1 22 23
M  V30 23 1 23 24
M  V30 24 2 24 25
M  V30 25 1 25 26
M  V30 26 2 26 27
M  V30 27 1 27 28
M  V30 28 2 28 29
M  V30 29 1 29 30
M  V30 30 1 9 3
M  V30 31 1 15 10
M  V30 32 1 29 24
M  V30 33 1 21 7
M  V30 34 1 5 31
M  V30 35 1 5 32
M  V30 36 1 9 33
M  V30 37 1 11 34
M  V30 38 1 12 35
M  V30 39 1 13 36
M  V30 40 1 15 37
M  V30 41 1 18 38
M  V30 42 1 18 39
M  V30 43 1 23 40
M  V30 44 1 23 41
M  V30 45 1 25 42
M  V30 46 1 26 43
M  V30 47 1 27 44
M  V30 48 1 28 45
M  V30 END BOND
M  V30 END CTAB
M  END
