
     RDKit          3D

  0  0  0  0  0  0  0  0  0  0999 V3000
M  V30 BEGIN CTAB
M  V30 COUNTS 22 22 0 0 0
M  V30 BEGIN ATOM
M  V30 1 N -3.37116 0.117958 -0.532956 0
M  V30 2 C -1.97387 0.0750986 -0.322396 0
M  V30 3 C -1.24422 -1.0565 -0.564571 0
M  V30 4 C 0.128714 -1.08045 -0.351909 0
M  V30 5 C 0.870176 -2.33069 -0.629673 0
M  V30 6 C 0.763949 0.0318672 0.103119 0
M  V30 7 C 0.0421876 1.20715 0.360431 0
M  V30 8 C -1.31743 1.1925 0.137652 0
M  V30 9 N 0.737343 2.33734 0.830756 0
M  V30 10 C 2.18125 0.0839176 0.346955 0
M  V30 11 O 2.92675 -0.89284 0.156434 0
M  V30 12 O 2.82569 1.24253 0.818138 0
M  V30 13 H -3.97118 -0.0342734 0.330958 0
M  V30 14 H -3.81574 0.286305 -1.46522 0
M  V30 15 H -1.7216 -1.97438 -0.932554 0
M  V30 16 H 0.160813 -3.15408 -0.922766 0
M  V30 17 H 1.34165 -2.68136 0.310442 0
M  V30 18 H 1.65251 -2.20657 -1.38205 0
M  V30 19 H -1.86185 2.1276 0.347163 0
M  V30 20 H 1.19612 2.97398 0.167731 0
M  V30 21 H 0.781097 2.51902 1.84554 0
M  V30 22 H 3.66878 1.21587 1.34877 0
M  V30 END ATOM
M  V30 BEGIN BOND
M  V30 1 1 1 2
M  V30 2 2 2 3
M  V30 3 1 3 4
M  V30 4 1 4 5
M  V30 5 2 4 6
M  V30 6 1 6 7
M  V30 7 2 7 8
M  V30 8 1 7 9
M  V30 9 1 6 10
M  V30 10 2 10 11
M  V30 11 1 10 12
M  V30 12 1 8 2
M  V30 13 1 1 13
M  V30 14 1 1 14
M  V30 15 1 3 15
M  V30 16 1 5 16
M  V30 17 1 5 17
M  V30 18 1 5 18
M  V30 19 1 8 19
M  V30 20 1 9 20
M  V30 21 1 9 21
M  V30 22 1 12 22
M  V30 END BOND
M  V30 END CTAB
M  END
