
     RDKit          3D

  0  0  0  0  0  0  0  0  0  0999 V3000
M  V30 BEGIN CTAB
M  V30 COUNTS 35 36 0 0 0
M  V30 BEGIN ATOM
M  V30 1 O -1.07288 0.00421399 -0.352826 0
M  V30 2 C -1.64745 1.0557 -0.000405728 0
M  V30 3 N -2.99798 1.20483 0.31652 0
M  V30 4 C -3.94385 0.148173 0.275418 0
M  V30 5 C -3.76983 -1.04957 -0.364988 0
M  V30 6 C -4.7389 -2.04431 -0.340502 0
M  V30 7 C -5.90326 -1.81765 0.345184 0
M  V30 8 C -6.08109 -0.605545 0.993316 0
M  V30 9 C -5.14971 0.371146 0.979685 0
M  V30 10 Cl -7.58652 -0.317644 1.87684 0
M  V30 11 C -0.758977 2.26305 0.078603 0
M  V30 12 C 0.631837 1.87247 -0.30015 0
M  V30 13 S 1.17486 0.588824 0.885081 0
M  V30 14 C 2.85133 0.0542914 0.501537 0
M  V30 15 N 3.89988 0.687242 1.05386 0
M  V30 16 C 5.15731 0.286746 0.766952 0
M  V30 17 N 6.29602 0.929354 1.32985 0
M  V30 18 C 5.3989 -0.767204 -0.0879955 0
M  V30 19 C 4.31589 -1.41133 -0.650576 0
M  V30 20 N 3.0868 -0.972772 -0.33158 0
M  V30 21 N 4.48308 -2.51448 -1.54801 0
M  V30 22 H -3.31448 2.17322 0.598531 0
M  V30 23 H -2.86027 -1.25038 -0.929308 0
M  V30 24 H -4.54379 -2.9877 -0.87325 0
M  V30 25 H -6.68742 -2.58465 0.382436 0
M  V30 26 H -5.29234 1.33274 1.4952 0
M  V30 27 H -1.16501 3.09951 -0.528396 0
M  V30 28 H -0.764096 2.57517 1.14187 0
M  V30 29 H 0.711953 1.43996 -1.31111 0
M  V30 30 H 1.33741 2.72454 -0.26259 0
M  V30 31 H 6.59513 1.88773 0.99088 0
M  V30 32 H 6.87579 0.50989 2.0767 0
M  V30 33 H 6.37682 -1.10319 -0.331263 0
M  V30 34 H 5.12865 -2.38828 -2.35796 0
M  V30 35 H 3.9562 -3.39408 -1.35695 0
M  V30 END ATOM
M  V30 BEGIN BOND
M  V30 1 2 1 2
M  V30 2 1 2 3
M  V30 3 1 3 4
M  V30 4 2 4 5
M  V30 5 1 5 6
M  V30 6 2 6 7
M  V30 7 1 7 8
M  V30 8 2 8 9
M  V30 9 1 8 10
M  V30 10 1 2 11
M  V30 11 1 11 12
M  V30 12 1 12 13
M  V30 13 1 13 14
M  V30 14 2 14 15
M  V30 15 1 15 16
M  V30 16 1 16 17
M  V30 17 2 16 18
M  V30 18 1 18 19
M  V30 19 2 19 20
M  V30 20 1 19 21
M  V30 21 1 9 4
M  V30 22 1 20 14
M  V30 23 1 3 22
M  V30 24 1 5 23
M  V30 25 1 6 24
M  V30 26 1 7 25
M  V30 27 1 9 26
M  V30 28 1 11 27
M  V30 29 1 11 28
M  V30 30 1 12 29
M  V30 31 1 12 30
M  V30 32 1 17 31
M  V30 33 1 17 32
M  V30 34 1 18 33
M  V30 35 1 21 34
M  V30 36 1 21 35
M  V30 END BOND
M  V30 END CTAB
M  END
