
     RDKit          3D

  0  0  0  0  0  0  0  0  0  0999 V3000
M  V30 BEGIN CTAB
M  V30 COUNTS 39 43 0 0 0
M  V30 BEGIN ATOM
M  V30 1 N -3.33515 -4.40067 0.0709932 0
M  V30 2 C -2.52185 -3.22603 0.180995 0
M  V30 3 C -3.09469 -1.97466 0.253908 0
M  V30 4 C -2.36902 -0.822351 0.359581 0
M  V30 5 C -0.974351 -0.861674 0.399617 0
M  V30 6 C -0.401605 -2.0896 0.328401 0
M  V30 7 O 0.990082 -2.24648 0.359837 0
M  V30 8 C 1.78117 -1.09623 0.467361 0
M  V30 9 C 3.16483 -1.21258 0.501484 0
M  V30 10 C 3.95633 -0.0966001 0.60654 0
M  V30 11 N 5.39068 -0.202076 0.643017 0
M  V30 12 C 3.41806 1.16956 0.681572 0
M  V30 13 C 2.05477 1.26342 0.646449 0
M  V30 14 C 1.23571 0.146445 0.540479 0
M  V30 15 C -0.1994 0.373821 0.5128 0
M  V30 16 O -0.523408 1.02111 1.76078 0
M  V30 17 C -1.04646 2.24989 1.52293 0
M  V30 18 O -1.44137 3.09311 2.37889 0
M  V30 19 C -1.0951 2.4779 0.107087 0
M  V30 20 C -1.54064 3.57012 -0.653766 0
M  V30 21 C -1.46334 3.50369 -2.03032 0
M  V30 22 C -0.957942 2.38715 -2.66748 0
M  V30 23 C -0.528582 1.33037 -1.88215 0
M  V30 24 C -0.593829 1.37068 -0.527096 0
M  V30 25 C -1.156 -3.28207 0.21894 0
M  V30 26 H -4.30379 -4.36944 0.462287 0
M  V30 27 H -3.02481 -5.27554 -0.370218 0
M  V30 28 H -4.19753 -1.96335 0.220808 0
M  V30 29 H -2.83089 0.150157 0.415747 0
M  V30 30 H 3.60107 -2.19778 0.443627 0
M  V30 31 H 5.83286 -0.827656 -0.0360116 0
M  V30 32 H 5.9345 0.337491 1.3314 0
M  V30 33 H 4.06885 2.04647 0.765004 0
M  V30 34 H 1.60143 2.26489 0.704969 0
M  V30 35 H -1.94003 4.45308 -0.157703 0
M  V30 36 H -1.8132 4.35767 -2.58362 0
M  V30 37 H -0.907867 2.36055 -3.76068 0
M  V30 38 H -0.130593 0.451043 -2.38246 0
M  V30 39 H -0.638901 -4.23382 0.165997 0
M  V30 END ATOM
M  V30 BEGIN BOND
M  V30 1 1 1 2
M  V30 2 2 2 3
M  V30 3 1 3 4
M  V30 4 2 4 5
M  V30 5 1 5 6
M  V30 6 1 6 7
M  V30 7 1 7 8
M  V30 8 2 8 9
M  V30 9 1 9 10
M  V30 10 1 10 11
M  V30 11 2 10 12
M  V30 12 1 12 13
M  V30 13 2 13 14
M  V30 14 1 14 15
M  V30 15 1 15 16
M  V30 16 1 16 17
M  V30 17 2 17 18
M  V30 18 1 17 19
M  V30 19 2 19 20
M  V30 20 1 20 21
M  V30 21 2 21 22
M  V30 22 1 22 23
M  V30 23 2 23 24
M  V30 24 2 6 25
M  V30 25 1 25 2
M  V30 26 1 15 5
M  V30 27 1 24 15
M  V30 28 1 14 8
M  V30 29 1 24 19
M  V30 30 1 1 26
M  V30 31 1 1 27
M  V30 32 1 3 28
M  V30 33 1 4 29
M  V30 34 1 9 30
M  V30 35 1 11 31
M  V30 36 1 11 32
M  V30 37 1 12 33
M  V30 38 1 13 34
M  V30 39 1 20 35
M  V30 40 1 21 36
M  V30 41 1 22 37
M  V30 42 1 23 38
M  V30 43 1 25 39
M  V30 END BOND
M  V30 END CTAB
M  END
