
     RDKit          3D

  0  0  0  0  0  0  0  0  0  0999 V3000
M  V30 BEGIN CTAB
M  V30 COUNTS 30 31 0 0 0
M  V30 BEGIN ATOM
M  V30 1 C -2.09248 -1.61308 1.43289 0
M  V30 2 C -1.97837 -0.57846 0.352162 0
M  V30 3 C -2.42629 -1.04219 -1.02595 0
M  V30 4 C -2.71193 0.68389 0.719404 0
M  V30 5 C -1.32383 1.18668 1.07445 0
M  V30 6 N -0.702776 0.0935446 0.35686 0
M  V30 7 C 0.59047 -0.220522 -0.143289 0
M  V30 8 N 0.852394 -1.36653 -0.796078 0
M  V30 9 C 2.09332 -1.6206 -1.25207 0
M  V30 10 C 3.1446 -0.744705 -1.08248 0
M  V30 11 C 2.91489 0.438567 -0.419178 0
M  V30 12 C 1.63853 0.680043 0.039729 0
M  V30 13 N 1.37386 1.8779 0.719846 0
M  V30 14 N 3.94407 1.38708 -0.206753 0
M  V30 15 H -1.08605 -2.11109 1.51301 0
M  V30 16 H -2.28466 -1.08435 2.40247 0
M  V30 17 H -2.89108 -2.34193 1.19423 0
M  V30 18 H -2.13381 -2.08914 -1.21258 0
M  V30 19 H -3.54819 -0.975239 -1.06554 0
M  V30 20 H -2.01674 -0.324499 -1.75336 0
M  V30 21 H -3.40904 0.610436 1.57489 0
M  V30 22 H -3.20378 1.21898 -0.117297 0
M  V30 23 H -1.19475 2.19471 0.597929 0
M  V30 24 H -1.16427 1.17877 2.17891 0
M  V30 25 H 2.24342 -2.55572 -1.76799 0
M  V30 26 H 4.14194 -1.00061 -1.47532 0
M  V30 27 H 1.45092 1.85072 1.78048 0
M  V30 28 H 1.1135 2.77569 0.290679 0
M  V30 29 H 4.40537 1.82496 -1.02799 0
M  V30 30 H 4.26079 1.66669 0.741424 0
M  V30 END ATOM
M  V30 BEGIN BOND
M  V30 1 1 1 2
M  V30 2 1 2 3
M  V30 3 1 2 4
M  V30 4 1 4 5
M  V30 5 1 5 6
M  V30 6 1 6 7
M  V30 7 2 7 8
M  V30 8 1 8 9
M  V30 9 2 9 10
M  V30 10 1 10 11
M  V30 11 2 11 12
M  V30 12 1 12 13
M  V30 13 1 11 14
M  V30 14 1 6 2
M  V30 15 1 12 7
M  V30 16 1 1 15
M  V30 17 1 1 16
M  V30 18 1 1 17
M  V30 19 1 3 18
M  V30 20 1 3 19
M  V30 21 1 3 20
M  V30 22 1 4 21
M  V30 23 1 4 22
M  V30 24 1 5 23
M  V30 25 1 5 24
M  V30 26 1 9 25
M  V30 27 1 10 26
M  V30 28 1 13 27
M  V30 29 1 13 28
M  V30 30 1 14 29
M  V30 31 1 14 30
M  V30 END BOND
M  V30 END CTAB
M  END
