
     RDKit          3D

  0  0  0  0  0  0  0  0  0  0999 V3000
M  V30 BEGIN CTAB
M  V30 COUNTS 58 59 0 0 0
M  V30 BEGIN ATOM
M  V30 1 N -9.74779 -0.783333 -0.309033 0
M  V30 2 C -8.80826 -0.838136 0.785169 0
M  V30 3 N -9.15927 -1.43693 1.83191 0
M  V30 4 C -7.53263 -0.205994 0.610112 0
M  V30 5 C -6.6022 -0.228262 1.61866 0
M  V30 6 C -5.36171 0.373036 1.47993 0
M  V30 7 C -5.03422 1.01227 0.312056 0
M  V30 8 O -3.87328 1.63957 0.0227755 0
M  V30 9 C -2.7038 1.83709 0.704275 0
M  V30 10 C -1.92025 0.618327 1.06258 0
M  V30 11 C -1.49646 -0.190223 -0.129656 0
M  V30 12 C -0.627663 0.56429 -1.09117 0
M  V30 13 C 0.643246 1.06452 -0.516395 0
M  V30 14 C 1.56159 0.0183591 0.0266155 0
M  V30 15 C 2.00449 -0.993416 -0.99598 0
M  V30 16 C 2.73716 -0.301033 -2.11534 0
M  V30 17 O 3.83796 0.354244 -1.65746 0
M  V30 18 C 5.00341 0.0363372 -1.06507 0
M  V30 19 C 5.45875 -1.2214 -0.738652 0
M  V30 20 C 6.68817 -1.46 -0.117907 0
M  V30 21 C 7.46943 -0.38052 0.174107 0
M  V30 22 C 7.04435 0.89884 -0.140132 0
M  V30 23 C 5.84787 1.11123 -0.742217 0
M  V30 24 C 8.76508 -0.553042 0.82173 0
M  V30 25 N 9.59208 0.566458 1.13279 0
M  V30 26 N 9.23847 -1.69873 1.14844 0
M  V30 27 C -6.00008 1.0299 -0.721153 0
M  V30 28 C -7.22355 0.440494 -0.592044 0
M  V30 29 H -10.1115 0.144418 -0.562297 0
M  V30 30 H -10.0223 -1.65597 -0.795648 0
M  V30 31 H -8.62332 -1.56844 2.69172 0
M  V30 32 H -6.85131 -0.735938 2.55613 0
M  V30 33 H -4.68821 0.331085 2.30703 0
M  V30 34 H -2.96558 2.43992 1.63303 0
M  V30 35 H -2.03489 2.57339 0.149756 0
M  V30 36 H -2.5097 -0.0361083 1.71512 0
M  V30 37 H -1.05553 0.946797 1.68059 0
M  V30 38 H -2.40744 -0.548965 -0.637975 0
M  V30 39 H -0.942675 -1.07669 0.238392 0
M  V30 40 H -1.21787 1.4606 -1.41938 0
M  V30 41 H -0.455904 -0.0220049 -2.01554 0
M  V30 42 H 1.17458 1.64709 -1.29703 0
M  V30 43 H 0.430454 1.7793 0.304732 0
M  V30 44 H 2.47671 0.531158 0.391004 0
M  V30 45 H 1.14356 -0.529315 0.894894 0
M  V30 46 H 1.16801 -1.62366 -1.36118 0
M  V30 47 H 2.69393 -1.67718 -0.490879 0
M  V30 48 H 3.06795 -1.10013 -2.82613 0
M  V30 49 H 2.07318 0.420966 -2.65534 0
M  V30 50 H 4.87938 -2.07966 -0.968886 0
M  V30 51 H 6.98637 -2.47014 0.111899 0
M  V30 52 H 7.6888 1.73053 0.105315 0
M  V30 53 H 5.51744 2.1135 -0.98716 0
M  V30 54 H 9.94556 1.14518 0.352467 0
M  V30 55 H 9.83343 0.796806 2.1016 0
M  V30 56 H 8.77609 -2.60122 0.997539 0
M  V30 57 H -5.78739 1.52134 -1.65787 0
M  V30 58 H -7.98282 0.433349 -1.35485 0
M  V30 END ATOM
M  V30 BEGIN BOND
M  V30 1 1 1 2
M  V30 2 2 2 3 CFG=2
M  V30 3 1 2 4
M  V30 4 2 4 5
M  V30 5 1 5 6
M  V30 6 2 6 7
M  V30 7 1 7 8
M  V30 8 1 8 9
M  V30 9 1 9 10
M  V30 10 1 10 11
M  V30 11 1 11 12
M  V30 12 1 12 13
M  V30 13 1 13 14
M  V30 14 1 14 15
M  V30 15 1 15 16
M  V30 16 1 16 17
M  V30 17 1 17 18
M  V30 18 2 18 19
M  V30 19 1 19 20
M  V30 20 2 20 21
M  V30 21 1 21 22
M  V30 22 2 22 23
M  V30 23 1 21 24
M  V30 24 1 24 25
M  V30 25 2 24 26 CFG=2
M  V30 26 1 7 27
M  V30 27 2 27 28
M  V30 28 1 28 4
M  V30 29 1 23 18
M  V30 30 1 1 29
M  V30 31 1 1 30
M  V30 32 1 3 31
M  V30 33 1 5 32
M  V30 34 1 6 33
M  V30 35 1 9 34
M  V30 36 1 9 35
M  V30 37 1 10 36
M  V30 38 1 10 37
M  V30 39 1 11 38
M  V30 40 1 11 39
M  V30 41 1 12 40
M  V30 42 1 12 41
M  V30 43 1 13 42
M  V30 44 1 13 43
M  V30 45 1 14 44
M  V30 46 1 14 45
M  V30 47 1 15 46
M  V30 48 1 15 47
M  V30 49 1 16 48
M  V30 50 1 16 49
M  V30 51 1 19 50
M  V30 52 1 20 51
M  V30 53 1 22 52
M  V30 54 1 23 53
M  V30 55 1 25 54
M  V30 56 1 25 55
M  V30 57 1 26 56
M  V30 58 1 27 57
M  V30 59 1 28 58
M  V30 END BOND
M  V30 END CTAB
M  END
