
     RDKit          3D

  0  0  0  0  0  0  0  0  0  0999 V3000
M  V30 BEGIN CTAB
M  V30 COUNTS 20 19 0 0 0
M  V30 BEGIN ATOM
M  V30 1 N -1.93368 -1.95923 -0.0982287 0
M  V30 2 C -2.06311 -0.600374 0.19661 0
M  V30 3 N -3.16833 -0.118573 0.597042 0
M  V30 4 N -3.3981 1.21483 0.915064 0
M  V30 5 S -0.658918 0.45637 0.00555413 0
M  V30 6 C 0.781286 -0.473006 -0.573657 0
M  V30 7 C 1.99087 0.381793 -0.748746 0
M  V30 8 C 2.43232 1.06083 0.518999 0
M  V30 9 F 1.45909 1.88797 1.03741 0
M  V30 10 O 3.03764 -0.439995 -1.16762 0
M  V30 11 H -1.54568 -2.2385 -1.01842 0
M  V30 12 H -2.21651 -2.68846 0.581445 0
M  V30 13 H -3.03781 1.67486 1.7742 0
M  V30 14 H -3.96532 1.79318 0.255847 0
M  V30 15 H 0.514283 -0.884397 -1.57408 0
M  V30 16 H 1.02423 -1.31539 0.114407 0
M  V30 17 H 1.83769 1.16918 -1.50734 0
M  V30 18 H 3.3103 1.68966 0.263521 0
M  V30 19 H 2.75325 0.287347 1.25242 0
M  V30 20 H 2.8465 -0.898079 -2.01677 0
M  V30 END ATOM
M  V30 BEGIN BOND
M  V30 1 1 1 2
M  V30 2 2 2 3 CFG=2
M  V30 3 1 3 4
M  V30 4 1 2 5
M  V30 5 1 5 6
M  V30 6 1 6 7
M  V30 7 1 7 8
M  V30 8 1 8 9
M  V30 9 1 7 10
M  V30 10 1 1 11
M  V30 11 1 1 12
M  V30 12 1 4 13
M  V30 13 1 4 14
M  V30 14 1 6 15
M  V30 15 1 6 16
M  V30 16 1 7 17
M  V30 17 1 8 18
M  V30 18 1 8 19
M  V30 19 1 10 20
M  V30 END BOND
M  V30 END CTAB
M  END
