
     RDKit          3D

  0  0  0  0  0  0  0  0  0  0999 V3000
M  V30 BEGIN CTAB
M  V30 COUNTS 52 53 0 0 0
M  V30 BEGIN ATOM
M  V30 1 N 8.88347 1.79735 -0.227685 0
M  V30 2 C 7.98081 1.33132 -1.1951 0
M  V30 3 N 8.27273 1.40008 -2.43727 0
M  V30 4 C 6.69802 0.761506 -0.81162 0
M  V30 5 C 5.78669 0.292949 -1.73989 0
M  V30 6 C 4.58298 -0.238725 -1.324 0
M  V30 7 C 4.22696 -0.331491 0.0132617 0
M  V30 8 O 3.00123 -0.876051 0.376607 0
M  V30 9 C 2.11857 -1.33544 -0.628589 0
M  V30 10 C 0.838017 -1.89142 -0.00190971 0
M  V30 11 C 0.196015 -0.779554 0.774849 0
M  V30 12 C -1.09034 -1.25723 1.43112 0
M  V30 13 C -1.67732 -0.0625947 2.20049 0
M  V30 14 C -2.94153 -0.511898 2.85209 0
M  V30 15 O -3.9113 -0.964307 2.01069 0
M  V30 16 C -4.64906 -0.420394 1.01644 0
M  V30 17 C -5.58824 -1.19175 0.306106 0
M  V30 18 I -5.80586 -3.21195 0.835693 0
M  V30 19 C -6.34807 -0.672496 -0.699261 0
M  V30 20 C -6.21835 0.655819 -1.06136 0
M  V30 21 C -5.31093 1.43908 -0.388783 0
M  V30 22 C -4.55121 0.876615 0.633219 0
M  V30 23 C -7.04015 1.18165 -2.13556 0
M  V30 24 N -7.96297 0.284701 -2.78138 0
M  V30 25 N -6.97583 2.41067 -2.52994 0
M  V30 26 C 5.1332 0.134545 0.938941 0
M  V30 27 C 6.33763 0.666932 0.529632 0
M  V30 28 H 9.02027 1.26937 0.649403 0
M  V30 29 H 9.41763 2.66778 -0.380714 0
M  V30 30 H 9.18947 1.80737 -2.70724 0
M  V30 31 H 6.02968 0.348783 -2.7899 0
M  V30 32 H 3.84315 -0.616914 -2.03478 0
M  V30 33 H 1.89143 -0.560612 -1.37817 0
M  V30 34 H 2.58806 -2.20393 -1.16252 0
M  V30 35 H 1.13383 -2.67568 0.719952 0
M  V30 36 H 0.184224 -2.32054 -0.783627 0
M  V30 37 H 0.931983 -0.449967 1.54125 0
M  V30 38 H -9.28296e-05 0.102907 0.134135 0
M  V30 39 H -0.840108 -2.06928 2.14332 0
M  V30 40 H -1.7721 -1.58196 0.619241 0
M  V30 41 H -1.72931 0.755166 1.49714 0
M  V30 42 H -0.907166 0.164177 2.99184 0
M  V30 43 H -2.64601 -1.36314 3.53961 0
M  V30 44 H -3.27363 0.347478 3.51315 0
M  V30 45 H -7.06102 -1.30313 -1.22157 0
M  V30 46 H -5.17046 2.49117 -0.63522 0
M  V30 47 H -3.8481 1.54114 1.15791 0
M  V30 48 H -7.8207 0.0754277 -3.79006 0
M  V30 49 H -8.75936 -0.157579 -2.28054 0
M  V30 50 H -6.35769 3.11854 -2.13761 0
M  V30 51 H 4.89686 0.0817893 1.99398 0
M  V30 52 H 7.07402 1.04373 1.24734 0
M  V30 END ATOM
M  V30 BEGIN BOND
M  V30 1 1 1 2
M  V30 2 2 2 3 CFG=2
M  V30 3 1 2 4
M  V30 4 2 4 5
M  V30 5 1 5 6
M  V30 6 2 6 7
M  V30 7 1 7 8
M  V30 8 1 8 9
M  V30 9 1 9 10
M  V30 10 1 10 11
M  V30 11 1 11 12
M  V30 12 1 12 13
M  V30 13 1 13 14
M  V30 14 1 14 15
M  V30 15 1 15 16
M  V30 16 2 16 17
M  V30 17 1 17 18
M  V30 18 1 17 19
M  V30 19 2 19 20
M  V30 20 1 20 21
M  V30 21 2 21 22
M  V30 22 1 20 23
M  V30 23 1 23 24
M  V30 24 2 23 25 CFG=2
M  V30 25 1 7 26
M  V30 26 2 26 27
M  V30 27 1 27 4
M  V30 28 1 22 16
M  V30 29 1 1 28
M  V30 30 1 1 29
M  V30 31 1 3 30
M  V30 32 1 5 31
M  V30 33 1 6 32
M  V30 34 1 9 33
M  V30 35 1 9 34
M  V30 36 1 10 35
M  V30 37 1 10 36
M  V30 38 1 11 37
M  V30 39 1 11 38
M  V30 40 1 12 39
M  V30 41 1 12 40
M  V30 42 1 13 41
M  V30 43 1 13 42
M  V30 44 1 14 43
M  V30 45 1 14 44
M  V30 46 1 19 45
M  V30 47 1 21 46
M  V30 48 1 22 47
M  V30 49 1 24 48
M  V30 50 1 24 49
M  V30 51 1 25 50
M  V30 52 1 26 51
M  V30 53 1 27 52
M  V30 END BOND
M  V30 END CTAB
M  END
