
     RDKit          3D

  0  0  0  0  0  0  0  0  0  0999 V3000
M  V30 BEGIN CTAB
M  V30 COUNTS 44 44 0 0 0
M  V30 BEGIN ATOM
M  V30 1 N 2.20952 1.96865 -1.66398 0
M  V30 2 C 1.9478 1.15526 -0.457055 0
M  V30 3 C 0.994007 0.125974 -0.875938 0
M  V30 4 O 0.801015 -0.0347977 -2.1234 0
M  V30 5 N 0.296651 -0.671354 0.0758702 0
M  V30 6 C -0.6178 -1.62667 -0.448503 0
M  V30 7 C -1.99054 -1.25343 -0.777908 0
M  V30 8 C -2.84185 -0.685248 0.316422 0
M  V30 9 C -4.25346 -0.390821 -0.187158 0
M  V30 10 C -4.24621 0.601078 -1.31675 0
M  V30 11 C -5.04243 0.214308 0.952975 0
M  V30 12 N -2.33263 0.580009 0.823278 0
M  V30 13 C 0.610555 -0.475986 1.45906 0
M  V30 14 C 3.27266 0.613539 -0.0175154 0
M  V30 15 C 4.08781 -0.112954 -0.874432 0
M  V30 16 C 5.31604 -0.589045 -0.505106 0
M  V30 17 C 5.77384 -0.34514 0.763621 0
M  V30 18 C 5.00101 0.37031 1.64768 0
M  V30 19 C 3.76545 0.838578 1.24753 0
M  V30 20 H 3.02216 2.56966 -1.44404 0
M  V30 21 H 2.38951 1.33803 -2.49015 0
M  V30 22 H 1.58885 1.84194 0.31722 0
M  V30 23 H -0.657283 -2.47031 0.311077 0
M  V30 24 H -0.0832556 -2.12461 -1.31479 0
M  V30 25 H -2.52523 -2.2233 -1.0609 0
M  V30 26 H -2.09679 -0.66896 -1.73245 0
M  V30 27 H -2.91181 -1.39966 1.13884 0
M  V30 28 H -4.74656 -1.30511 -0.53207 0
M  V30 29 H -3.87952 0.157335 -2.27881 0
M  V30 30 H -3.74169 1.5526 -1.06795 0
M  V30 31 H -5.32016 0.851886 -1.51712 0
M  V30 32 H -4.75983 -0.240161 1.93859 0
M  V30 33 H -6.13726 0.162404 0.772832 0
M  V30 34 H -4.7976 1.30005 1.00168 0
M  V30 35 H -2.88423 0.933253 1.61737 0
M  V30 36 H -2.09222 1.25798 0.0937707 0
M  V30 37 H -0.191834 -0.992383 2.07122 0
M  V30 38 H 0.698639 0.527922 1.8255 0
M  V30 39 H 1.50164 -1.1496 1.65595 0
M  V30 40 H 3.67509 -0.279415 -1.87481 0
M  V30 41 H 5.90652 -1.15666 -1.2368 0
M  V30 42 H 6.74016 -0.717302 1.06057 0
M  V30 43 H 5.37609 0.551884 2.63807 0
M  V30 44 H 3.17514 1.40027 1.96354 0
M  V30 END ATOM
M  V30 BEGIN BOND
M  V30 1 1 1 2
M  V30 2 1 2 3
M  V30 3 2 3 4
M  V30 4 1 3 5
M  V30 5 1 5 6
M  V30 6 1 6 7
M  V30 7 1 7 8
M  V30 8 1 8 9
M  V30 9 1 9 10
M  V30 10 1 9 11
M  V30 11 1 8 12
M  V30 12 1 5 13
M  V30 13 1 2 14
M  V30 14 2 14 15
M  V30 15 1 15 16
M  V30 16 2 16 17
M  V30 17 1 17 18
M  V30 18 2 18 19
M  V30 19 1 19 14
M  V30 20 1 1 20
M  V30 21 1 1 21
M  V30 22 1 2 22
M  V30 23 1 6 23
M  V30 24 1 6 24
M  V30 25 1 7 25
M  V30 26 1 7 26
M  V30 27 1 8 27
M  V30 28 1 9 28
M  V30 29 1 10 29
M  V30 30 1 10 30
M  V30 31 1 10 31
M  V30 32 1 11 32
M  V30 33 1 11 33
M  V30 34 1 11 34
M  V30 35 1 12 35
M  V30 36 1 12 36
M  V30 37 1 13 37
M  V30 38 1 13 38
M  V30 39 1 13 39
M  V30 40 1 15 40
M  V30 41 1 16 41
M  V30 42 1 17 42
M  V30 43 1 18 43
M  V30 44 1 19 44
M  V30 END BOND
M  V30 END CTAB
M  END
