
     RDKit          3D

  0  0  0  0  0  0  0  0  0  0999 V3000
M  V30 BEGIN CTAB
M  V30 COUNTS 30 32 0 0 0
M  V30 BEGIN ATOM
M  V30 1 N -2.61012 -2.67095 0.157512 0
M  V30 2 C -2.56643 -1.23968 0.0370716 0
M  V30 3 C -3.69674 -0.485096 -0.0805843 0
M  V30 4 C -3.61063 0.869952 -0.192502 0
M  V30 5 C -2.38472 1.58315 -0.195969 0
M  V30 6 O -2.44397 2.93798 -0.314695 0
M  V30 7 C -1.2498 0.807649 -0.0763036 0
M  V30 8 C -1.34979 -0.576095 0.0374217 0
M  V30 9 C -0.109866 -1.34874 0.161769 0
M  V30 10 O -0.246803 -2.57805 0.260543 0
M  V30 11 C 1.22228 -0.755464 0.173551 0
M  V30 12 C 1.26753 0.603438 0.0593832 0
M  V30 13 C 2.48333 1.2463 0.0614557 0
M  V30 14 N 2.56863 2.66801 -0.0562257 0
M  V30 15 C 3.65091 0.507312 0.179521 0
M  V30 16 C 3.58458 -0.845974 0.29222 0
M  V30 17 Br 5.16892 -1.91478 0.458061 0
M  V30 18 C 2.37497 -1.53688 0.294548 0
M  V30 19 O 2.37204 -2.89083 0.410276 0
M  V30 20 C 0.0606893 1.4394 -0.0688289 0
M  V30 21 O 0.190796 2.68429 -0.169258 0
M  V30 22 H -2.49917 -3.08715 1.12582 0
M  V30 23 H -2.74132 -3.31114 -0.631456 0
M  V30 24 H -4.64682 -1.02063 -0.0793841 0
M  V30 25 H -4.53428 1.44749 -0.28529 0
M  V30 26 H -1.7678 3.60081 -0.339669 0
M  V30 27 H 2.39501 3.3085 0.754339 0
M  V30 28 H 2.81235 3.07883 -0.982385 0
M  V30 29 H 4.62474 1.01753 0.181566 0
M  V30 30 H 1.68149 -3.53916 0.433323 0
M  V30 END ATOM
M  V30 BEGIN BOND
M  V30 1 1 1 2
M  V30 2 2 2 3
M  V30 3 1 3 4
M  V30 4 2 4 5
M  V30 5 1 5 6
M  V30 6 1 5 7
M  V30 7 2 7 8
M  V30 8 1 8 9
M  V30 9 2 9 10
M  V30 10 1 9 11
M  V30 11 2 11 12
M  V30 12 1 12 13
M  V30 13 1 13 14
M  V30 14 2 13 15
M  V30 15 1 15 16
M  V30 16 1 16 17
M  V30 17 2 16 18
M  V30 18 1 18 19
M  V30 19 1 12 20
M  V30 20 2 20 21
M  V30 21 1 8 2
M  V30 22 1 18 11
M  V30 23 1 20 7
M  V30 24 1 1 22
M  V30 25 1 1 23
M  V30 26 1 3 24
M  V30 27 1 4 25
M  V30 28 1 6 26
M  V30 29 1 14 27
M  V30 30 1 14 28
M  V30 31 1 15 29
M  V30 32 1 19 30
M  V30 END BOND
M  V30 END CTAB
M  END
