
     RDKit          3D

  0  0  0  0  0  0  0  0  0  0999 V3000
M  V30 BEGIN CTAB
M  V30 COUNTS 33 33 0 0 0
M  V30 BEGIN ATOM
M  V30 1 C -1.36499 -2.89414 0.135848 0
M  V30 2 C -2.21721 -1.80498 0.751115 0
M  V30 3 C -1.41625 -0.589265 1.10499 0
M  V30 4 N -0.757442 0.0348764 0.0128086 0
M  V30 5 C -1.46374 0.725422 -1.06109 0
M  V30 6 C -2.12944 1.9916 -0.548008 0
M  V30 7 C -1.14447 2.9525 0.0277473 0
M  V30 8 C 0.659702 -0.00871756 -0.0530982 0
M  V30 9 N 1.36174 -0.612156 0.895779 0
M  V30 10 C 2.71427 -0.692238 0.893027 0
M  V30 11 N 3.40581 -1.3541 1.94329 0
M  V30 12 N 3.35565 -0.116829 -0.145408 0
M  V30 13 C 2.69786 0.5089 -1.1375 0
M  V30 14 N 3.40215 1.11414 -2.23293 0
M  V30 15 N 1.35491 0.547832 -1.0658 0
M  V30 16 H -0.963453 -2.58922 -0.857777 0
M  V30 17 H -0.473452 -3.04333 0.787443 0
M  V30 18 H -1.95202 -3.81635 0.00375422 0
M  V30 19 H -3.03788 -1.61123 0.0380084 0
M  V30 20 H -2.6725 -2.19619 1.68224 0
M  V30 21 H -0.665869 -0.891731 1.85941 0
M  V30 22 H -2.03732 0.190039 1.61429 0
M  V30 23 H -2.1887 0.0279975 -1.49809 0
M  V30 24 H -0.77487 1.02378 -1.85841 0
M  V30 25 H -2.97388 1.74896 0.13742 0
M  V30 26 H -2.59847 2.4767 -1.435 0
M  V30 27 H -0.635988 3.47593 -0.783667 0
M  V30 28 H -0.434075 2.35645 0.662754 0
M  V30 29 H -1.69278 3.62971 0.710028 0
M  V30 30 H 4.32961 -1.82049 1.80787 0
M  V30 31 H 2.98537 -1.38388 2.89832 0
M  V30 32 H 3.54903 2.14293 -2.31396 0
M  V30 33 H 3.77869 0.477097 -2.9754 0
M  V30 END ATOM
M  V30 BEGIN BOND
M  V30 1 1 1 2
M  V30 2 1 2 3
M  V30 3 1 3 4
M  V30 4 1 4 5
M  V30 5 1 5 6
M  V30 6 1 6 7
M  V30 7 1 4 8
M  V30 8 2 8 9
M  V30 9 1 9 10
M  V30 10 1 10 11
M  V30 11 2 10 12
M  V30 12 1 12 13
M  V30 13 1 13 14
M  V30 14 2 13 15
M  V30 15 1 15 8
M  V30 16 1 1 16
M  V30 17 1 1 17
M  V30 18 1 1 18
M  V30 19 1 2 19
M  V30 20 1 2 20
M  V30 21 1 3 21
M  V30 22 1 3 22
M  V30 23 1 5 23
M  V30 24 1 5 24
M  V30 25 1 6 25
M  V30 26 1 6 26
M  V30 27 1 7 27
M  V30 28 1 7 28
M  V30 29 1 7 29
M  V30 30 1 11 30
M  V30 31 1 11 31
M  V30 32 1 14 32
M  V30 33 1 14 33
M  V30 END BOND
M  V30 END CTAB
M  END
