
     RDKit          3D

  0  0  0  0  0  0  0  0  0  0999 V3000
M  V30 BEGIN CTAB
M  V30 COUNTS 36 38 0 0 0
M  V30 BEGIN ATOM
M  V30 1 N 7.11953 -0.290075 -0.0896078 0
M  V30 2 C 5.70974 -0.334758 -0.047481 0
M  V30 3 N 4.93009 0.747564 -0.279809 0
M  V30 4 C 3.59517 0.636981 -0.224169 0
M  V30 5 C 2.74104 1.8204 -0.47818 0
M  V30 6 O 1.36816 1.49469 -0.371685 0
M  V30 7 C 0.353387 2.39617 -0.556902 0
M  V30 8 O 0.664238 3.58171 -0.837931 0
M  V30 9 C -1.06191 2.05516 -0.445898 0
M  V30 10 C -2.13178 2.90777 -0.61862 0
M  V30 11 N -3.24946 2.19679 -0.428822 0
M  V30 12 N -2.97154 0.935633 -0.143626 0
M  V30 13 C -1.62934 0.832179 -0.150279 0
M  V30 14 C -3.92665 -0.106157 0.118971 0
M  V30 15 C -4.97895 0.0929358 0.988027 0
M  V30 16 C -5.92738 -0.860669 1.28362 0
M  V30 17 C -5.79202 -2.0861 0.655403 0
M  V30 18 C -4.74046 -2.32185 -0.228883 0
M  V30 19 C -3.82211 -1.33546 -0.487967 0
M  V30 20 Cl -2.49939 -1.62838 -1.59871 0
M  V30 21 N 3.03385 -0.525847 0.056989 0
M  V30 22 C 3.78341 -1.62614 0.294145 0
M  V30 23 N 5.1184 -1.50589 0.236272 0
M  V30 24 N 3.20528 -2.87624 0.595832 0
M  V30 25 H 7.69795 -0.653519 0.686518 0
M  V30 26 H 7.58306 0.11742 -0.919775 0
M  V30 27 H 2.90478 2.09529 -1.55364 0
M  V30 28 H 3.02487 2.69184 0.1302 0
M  V30 29 H -2.05922 3.97008 -0.865828 0
M  V30 30 H -1.04849 -0.0563201 0.0418742 0
M  V30 31 H -5.05107 1.06283 1.45918 0
M  V30 32 H -6.73673 -0.66257 1.97139 0
M  V30 33 H -6.52888 -2.84885 0.875636 0
M  V30 34 H -4.6759 -3.28393 -0.691036 0
M  V30 35 H 2.8006 -3.4183 -0.209885 0
M  V30 36 H 3.1977 -3.21437 1.58235 0
M  V30 END ATOM
M  V30 BEGIN BOND
M  V30 1 1 1 2
M  V30 2 2 2 3
M  V30 3 1 3 4
M  V30 4 1 4 5
M  V30 5 1 5 6
M  V30 6 1 6 7
M  V30 7 2 7 8
M  V30 8 1 7 9
M  V30 9 1 9 10
M  V30 10 2 10 11
M  V30 11 1 11 12
M  V30 12 1 12 13
M  V30 13 1 12 14
M  V30 14 2 14 15
M  V30 15 1 15 16
M  V30 16 2 16 17
M  V30 17 1 17 18
M  V30 18 2 18 19
M  V30 19 1 19 20
M  V30 20 2 4 21
M  V30 21 1 21 22
M  V30 22 2 22 23
M  V30 23 1 22 24
M  V30 24 1 23 2
M  V30 25 2 13 9
M  V30 26 1 19 14
M  V30 27 1 1 25
M  V30 28 1 1 26
M  V30 29 1 5 27
M  V30 30 1 5 28
M  V30 31 1 10 29
M  V30 32 1 13 30
M  V30 33 1 15 31
M  V30 34 1 16 32
M  V30 35 1 17 33
M  V30 36 1 18 34
M  V30 37 1 24 35
M  V30 38 1 24 36
M  V30 END BOND
M  V30 END CTAB
M  END
