
     RDKit          3D

  0  0  0  0  0  0  0  0  0  0999 V3000
M  V30 BEGIN CTAB
M  V30 COUNTS 34 35 0 0 0
M  V30 BEGIN ATOM
M  V30 1 O 0.387146 -1.94391 0.42484 0
M  V30 2 C 0.430772 -1.34329 -0.666208 0
M  V30 3 C -0.659809 -1.67121 -1.6368 0
M  V30 4 S -1.63666 -0.234284 -2.07162 0
M  V30 5 C -2.5251 0.307793 -0.597938 0
M  V30 6 N -2.39814 -0.334202 0.564625 0
M  V30 7 C -3.0253 0.0089579 1.70323 0
M  V30 8 N -2.79301 -0.764384 2.85408 0
M  V30 9 N -3.83413 1.08181 1.63804 0
M  V30 10 C -3.99299 1.76444 0.477085 0
M  V30 11 N -3.34027 1.37988 -0.641387 0
M  V30 12 N -4.85756 2.88762 0.464995 0
M  V30 13 C -0.0319829 -2.22338 -2.92287 0
M  V30 14 N 1.43425 -0.424376 -0.959868 0
M  V30 15 C 2.52363 -0.00309906 -0.168887 0
M  V30 16 C 2.80281 -0.439325 1.10598 0
M  V30 17 C 3.91439 0.051355 1.79876 0
M  V30 18 C 4.76746 0.976238 1.25108 0
M  V30 19 C 4.50666 1.4254 -0.0221366 0
M  V30 20 C 3.41478 0.941254 -0.698119 0
M  V30 21 Cl 3.1083 1.53338 -2.32128 0
M  V30 22 H -1.28582 -2.46113 -1.21432 0
M  V30 23 H -3.21437 -1.68996 3.04921 0
M  V30 24 H -2.13612 -0.375909 3.58359 0
M  V30 25 H -5.04225 3.4134 1.35064 0
M  V30 26 H -5.32611 3.22141 -0.396164 0
M  V30 27 H 0.00563136 -3.34044 -2.88702 0
M  V30 28 H 1.01115 -1.8752 -3.04531 0
M  V30 29 H -0.612181 -1.89119 -3.82293 0
M  V30 30 H 1.36632 0.0277216 -1.92786 0
M  V30 31 H 2.16005 -1.16396 1.57393 0
M  V30 32 H 4.08057 -0.32947 2.79719 0
M  V30 33 H 5.61349 1.32355 1.82998 0
M  V30 34 H 5.18441 2.16452 -0.466537 0
M  V30 END ATOM
M  V30 BEGIN BOND
M  V30 1 2 1 2
M  V30 2 1 2 3
M  V30 3 1 3 4
M  V30 4 1 4 5
M  V30 5 2 5 6
M  V30 6 1 6 7
M  V30 7 1 7 8
M  V30 8 2 7 9
M  V30 9 1 9 10
M  V30 10 2 10 11
M  V30 11 1 10 12
M  V30 12 1 3 13
M  V30 13 1 2 14
M  V30 14 1 14 15
M  V30 15 2 15 16
M  V30 16 1 16 17
M  V30 17 2 17 18
M  V30 18 1 18 19
M  V30 19 2 19 20
M  V30 20 1 20 21
M  V30 21 1 11 5
M  V30 22 1 20 15
M  V30 23 1 3 22
M  V30 24 1 8 23
M  V30 25 1 8 24
M  V30 26 1 12 25
M  V30 27 1 12 26
M  V30 28 1 13 27
M  V30 29 1 13 28
M  V30 30 1 13 29
M  V30 31 1 14 30
M  V30 32 1 16 31
M  V30 33 1 17 32
M  V30 34 1 18 33
M  V30 35 1 19 34
M  V30 END BOND
M  V30 END CTAB
M  END
