
     RDKit          3D

  0  0  0  0  0  0  0  0  0  0999 V3000
M  V30 BEGIN CTAB
M  V30 COUNTS 23 24 0 0 0
M  V30 BEGIN ATOM
M  V30 1 N -3.944 0.927559 -0.230145 0
M  V30 2 C -2.71467 0.218577 -0.299975 0
M  V30 3 C -2.62605 -1.10347 -0.665065 0
M  V30 4 C -1.41717 -1.73596 -0.715412 0
M  V30 5 C -0.20481 -1.1007 -0.40624 0
M  V30 6 C -0.312333 0.207972 -0.0469531 0
M  V30 7 C -1.54669 0.879677 0.0117901 0
M  V30 8 N -1.54294 2.2473 0.399631 0
M  V30 9 S 1.27966 -2.0628 -0.520624 0
M  V30 10 C 2.75554 -1.17394 -0.111513 0
M  V30 11 N 2.89349 0.103626 0.265189 0
M  V30 12 C 4.18492 0.384715 0.482425 0
M  V30 13 C 4.86425 -0.786912 0.222807 0
M  V30 14 O 3.98179 -1.68187 -0.1248 0
M  V30 15 H -4.10122 1.57546 0.597342 0
M  V30 16 H -4.7017 0.842677 -0.953718 0
M  V30 17 H -3.53336 -1.63413 -0.912095 0
M  V30 18 H -1.33587 -2.78837 -1.00489 0
M  V30 19 H 0.587244 0.751559 0.202911 0
M  V30 20 H -1.09712 2.60556 1.24978 0
M  V30 21 H -2.02839 2.91772 -0.230217 0
M  V30 22 H 4.61932 1.31341 0.791861 0
M  V30 23 H 5.94012 -0.907653 0.303212 0
M  V30 END ATOM
M  V30 BEGIN BOND
M  V30 1 1 1 2
M  V30 2 2 2 3
M  V30 3 1 3 4
M  V30 4 2 4 5
M  V30 5 1 5 6
M  V30 6 2 6 7
M  V30 7 1 7 8
M  V30 8 1 5 9
M  V30 9 1 9 10
M  V30 10 2 10 11
M  V30 11 1 11 12
M  V30 12 2 12 13
M  V30 13 1 13 14
M  V30 14 1 7 2
M  V30 15 1 14 10
M  V30 16 1 1 15
M  V30 17 1 1 16
M  V30 18 1 3 17
M  V30 19 1 4 18
M  V30 20 1 6 19
M  V30 21 1 8 20
M  V30 22 1 8 21
M  V30 23 1 12 22
M  V30 24 1 13 23
M  V30 END BOND
M  V30 END CTAB
M  END
