
     RDKit          3D

  0  0  0  0  0  0  0  0  0  0999 V3000
M  V30 BEGIN CTAB
M  V30 COUNTS 26 26 0 0 0
M  V30 BEGIN ATOM
M  V30 1 N 4.22341 -1.5408 0.650636 0
M  V30 2 N 3.1848 -1.0514 1.47119 0
M  V30 3 C 2.14736 -0.355217 0.809453 0
M  V30 4 C 0.96068 -0.923886 0.444121 0
M  V30 5 C -0.0398085 -0.216146 -0.216363 0
M  V30 6 N -1.26383 -0.807152 -0.600606 0
M  V30 7 N -2.52174 -0.346622 -0.411269 0
M  V30 8 C -3.14154 -0.493285 0.828027 0
M  V30 9 C -3.20517 0.26464 -1.47573 0
M  V30 10 N 0.205901 1.0611 -0.486453 0
M  V30 11 C 1.37471 1.63644 -0.130522 0
M  V30 12 N 2.32199 0.939438 0.5039 0
M  V30 13 N 1.59002 2.99723 -0.447309 0
M  V30 14 H 3.73638 -2.08628 -0.112026 0
M  V30 15 H 4.58503 -0.678168 0.159847 0
M  V30 16 H 3.23893 -1.21479 2.48879 0
M  V30 17 H 0.771423 -1.95254 0.663722 0
M  V30 18 H -1.16336 -1.73728 -1.10884 0
M  V30 19 H -3.66178 0.419138 1.21394 0
M  V30 20 H -3.93961 -1.29149 0.761846 0
M  V30 21 H -2.44418 -0.852495 1.61292 0
M  V30 22 H -2.59797 0.910549 -2.13933 0
M  V30 23 H -4.07978 0.878158 -1.16116 0
M  V30 24 H -3.62535 -0.519908 -2.14782 0
M  V30 25 H 1.89905 3.21485 -1.43034 0
M  V30 26 H 1.44444 3.74591 0.259386 0
M  V30 END ATOM
M  V30 BEGIN BOND
M  V30 1 1 1 2
M  V30 2 1 2 3
M  V30 3 2 3 4
M  V30 4 1 4 5
M  V30 5 1 5 6
M  V30 6 1 6 7
M  V30 7 1 7 8
M  V30 8 1 7 9
M  V30 9 2 5 10
M  V30 10 1 10 11
M  V30 11 2 11 12
M  V30 12 1 11 13
M  V30 13 1 12 3
M  V30 14 1 1 14
M  V30 15 1 1 15
M  V30 16 1 2 16
M  V30 17 1 4 17
M  V30 18 1 6 18
M  V30 19 1 8 19
M  V30 20 1 8 20
M  V30 21 1 8 21
M  V30 22 1 9 22
M  V30 23 1 9 23
M  V30 24 1 9 24
M  V30 25 1 13 25
M  V30 26 1 13 26
M  V30 END BOND
M  V30 END CTAB
M  END
