
     RDKit          3D

  0  0  0  0  0  0  0  0  0  0999 V3000
M  V30 BEGIN CTAB
M  V30 COUNTS 35 36 0 0 0
M  V30 BEGIN ATOM
M  V30 1 C -4.1934 1.76711 -2.02119 0
M  V30 2 O -3.81188 1.05322 -0.863924 0
M  V30 3 C -2.57487 0.417654 -0.796375 0
M  V30 4 C -2.21809 -0.282333 0.350411 0
M  V30 5 O -3.1274 -0.318307 1.39632 0
M  V30 6 C -2.84791 -1.01899 2.61024 0
M  V30 7 C -1.01564 -0.902264 0.419164 0
M  V30 8 C -0.141383 -0.831048 -0.669468 0
M  V30 9 C 1.14503 -1.55742 -0.488514 0
M  V30 10 C 2.09736 -0.801348 0.332074 0
M  V30 11 C 2.18026 -1.09414 1.71181 0
M  V30 12 N 3.02989 -0.353849 2.40593 0
M  V30 13 C 3.80339 0.624695 1.93895 0
M  V30 14 N 4.68767 1.36697 2.78793 0
M  V30 15 N 3.71911 0.896302 0.624917 0
M  V30 16 C 2.87254 0.19328 -0.189789 0
M  V30 17 N 2.82852 0.504948 -1.57999 0
M  V30 18 C -0.481752 -0.150545 -1.79318 0
M  V30 19 C -1.72216 0.489102 -1.86434 0
M  V30 20 H -3.98769 1.17694 -2.93532 0
M  V30 21 H -3.67866 2.75105 -2.04437 0
M  V30 22 H -5.30616 1.89979 -1.93133 0
M  V30 23 H -3.80374 -1.03994 3.18269 0
M  V30 24 H -2.07581 -0.49649 3.21741 0
M  V30 25 H -2.51025 -2.05184 2.42813 0
M  V30 26 H -0.714312 -1.46037 1.31232 0
M  V30 27 H 1.55609 -1.70459 -1.52215 0
M  V30 28 H 0.96216 -2.58916 -0.108481 0
M  V30 29 H 1.55501 -1.87921 2.07252 0
M  V30 30 H 5.16969 2.22143 2.44159 0
M  V30 31 H 4.81831 1.01814 3.74295 0
M  V30 32 H 2.89371 -0.278358 -2.28078 0
M  V30 33 H 2.7353 1.4667 -1.97175 0
M  V30 34 H 0.141729 -0.0727704 -2.66439 0
M  V30 35 H -1.98467 1.03566 -2.77049 0
M  V30 END ATOM
M  V30 BEGIN BOND
M  V30 1 1 1 2
M  V30 2 1 2 3
M  V30 3 2 3 4
M  V30 4 1 4 5
M  V30 5 1 5 6
M  V30 6 1 4 7
M  V30 7 2 7 8
M  V30 8 1 8 9
M  V30 9 1 9 10
M  V30 10 2 10 11
M  V30 11 1 11 12
M  V30 12 2 12 13
M  V30 13 1 13 14
M  V30 14 1 13 15
M  V30 15 2 15 16
M  V30 16 1 16 17
M  V30 17 1 8 18
M  V30 18 2 18 19
M  V30 19 1 19 3
M  V30 20 1 16 10
M  V30 21 1 1 20
M  V30 22 1 1 21
M  V30 23 1 1 22
M  V30 24 1 6 23
M  V30 25 1 6 24
M  V30 26 1 6 25
M  V30 27 1 7 26
M  V30 28 1 9 27
M  V30 29 1 9 28
M  V30 30 1 11 29
M  V30 31 1 14 30
M  V30 32 1 14 31
M  V30 33 1 17 32
M  V30 34 1 17 33
M  V30 35 1 18 34
M  V30 36 1 19 35
M  V30 END BOND
M  V30 END CTAB
M  END
