
     RDKit          3D

  0  0  0  0  0  0  0  0  0  0999 V3000
M  V30 BEGIN CTAB
M  V30 COUNTS 29 29 0 0 0
M  V30 BEGIN ATOM
M  V30 1 C 0.0567462 3.23839 -0.242666 0
M  V30 2 O 0.407321 1.90136 -0.519845 0
M  V30 3 C -0.454267 0.836893 -0.389311 0
M  V30 4 C -1.75363 0.950041 0.0217445 0
M  V30 5 C -2.59978 -0.148526 0.141375 0
M  V30 6 N -3.9408 0.047794 0.576082 0
M  V30 7 C -2.08274 -1.38504 -0.173685 0
M  V30 8 C -0.76563 -1.55233 -0.597482 0
M  V30 9 C 0.0136158 -0.419113 -0.69147 0
M  V30 10 C 1.41828 -0.575644 -1.12754 0
M  V30 11 C 2.36569 -0.497882 -0.00104829 0
M  V30 12 O 1.93087 -0.319777 1.15348 0
M  V30 13 O 3.72476 -0.621597 -0.2271 0
M  V30 14 C 4.65329 -0.552263 0.848624 0
M  V30 15 N -2.90421 -2.53933 -0.0642134 0
M  V30 16 H 0.674578 3.98051 -0.758893 0
M  V30 17 H 0.252203 3.39356 0.858826 0
M  V30 18 H -0.996056 3.47469 -0.398508 0
M  V30 19 H -2.13646 1.92629 0.262813 0
M  V30 20 H -4.18529 0.323461 1.55043 0
M  V30 21 H -4.74122 -0.0795364 -0.0747914 0
M  V30 22 H -0.382746 -2.55625 -0.841203 0
M  V30 23 H 1.522 -1.51231 -1.67993 0
M  V30 24 H 1.71622 0.231501 -1.85065 0
M  V30 25 H 5.54737 0.0364933 0.570093 0
M  V30 26 H 4.96082 -1.59265 1.14195 0
M  V30 27 H 4.15685 -0.054776 1.70599 0
M  V30 28 H -3.66813 -2.53177 0.640304 0
M  V30 29 H -2.78965 -3.40221 -0.649814 0
M  V30 END ATOM
M  V30 BEGIN BOND
M  V30 1 1 1 2
M  V30 2 1 2 3
M  V30 3 2 3 4
M  V30 4 1 4 5
M  V30 5 1 5 6
M  V30 6 2 5 7
M  V30 7 1 7 8
M  V30 8 2 8 9
M  V30 9 1 9 10
M  V30 10 1 10 11
M  V30 11 2 11 12
M  V30 12 1 11 13
M  V30 13 1 13 14
M  V30 14 1 7 15
M  V30 15 1 9 3
M  V30 16 1 1 16
M  V30 17 1 1 17
M  V30 18 1 1 18
M  V30 19 1 4 19
M  V30 20 1 6 20
M  V30 21 1 6 21
M  V30 22 1 8 22
M  V30 23 1 10 23
M  V30 24 1 10 24
M  V30 25 1 14 25
M  V30 26 1 14 26
M  V30 27 1 14 27
M  V30 28 1 15 28
M  V30 29 1 15 29
M  V30 END BOND
M  V30 END CTAB
M  END
