
     RDKit          3D

  0  0  0  0  0  0  0  0  0  0999 V3000
M  V30 BEGIN CTAB
M  V30 COUNTS 25 25 0 0 0
M  V30 BEGIN ATOM
M  V30 1 N -3.875 2.0511 -0.526591 0
M  V30 2 C -3.00632 1.40197 -0.119988 0
M  V30 3 C -1.90438 0.574579 0.42416 0
M  V30 4 C -2.23154 -0.858688 0.10189 0
M  V30 5 C -1.56798 -1.21494 -1.19385 0
M  V30 6 C -0.0648182 -1.24455 -0.935687 0
M  V30 7 N 0.359607 0.00547265 -0.355092 0
M  V30 8 C -0.610777 1.04558 -0.152915 0
M  V30 9 C 1.71446 0.179615 0.000800083 0
M  V30 10 N 2.51405 -0.820782 0.129648 0
M  V30 11 N 3.85309 -0.665558 0.480142 0
M  V30 12 N 2.24597 1.47559 0.230687 0
M  V30 13 H -1.93134 0.657816 1.54632 0
M  V30 14 H -3.33991 -1.00193 0.0582544 0
M  V30 15 H -1.84811 -1.54058 0.889865 0
M  V30 16 H -1.84806 -2.23558 -1.52677 0
M  V30 17 H -1.74597 -0.45664 -1.98639 0
M  V30 18 H 0.477402 -1.42728 -1.88506 0
M  V30 19 H 0.189659 -2.04817 -0.206129 0
M  V30 20 H -0.847904 1.48353 -1.16646 0
M  V30 21 H -0.223997 1.86377 0.49353 0
M  V30 22 H 4.13373 -0.522866 1.47551 0
M  V30 23 H 4.6427 -0.681517 -0.212854 0
M  V30 24 H 3.04974 1.63598 0.878675 0
M  V30 25 H 1.86571 2.34407 -0.233446 0
M  V30 END ATOM
M  V30 BEGIN BOND
M  V30 1 3 1 2
M  V30 2 1 2 3
M  V30 3 1 3 4
M  V30 4 1 4 5
M  V30 5 1 5 6
M  V30 6 1 6 7
M  V30 7 1 7 8
M  V30 8 1 7 9
M  V30 9 2 9 10 CFG=2
M  V30 10 1 10 11
M  V30 11 1 9 12
M  V30 12 1 8 3
M  V30 13 1 3 13
M  V30 14 1 4 14
M  V30 15 1 4 15
M  V30 16 1 5 16
M  V30 17 1 5 17
M  V30 18 1 6 18
M  V30 19 1 6 19
M  V30 20 1 8 20
M  V30 21 1 8 21
M  V30 22 1 11 22
M  V30 23 1 11 23
M  V30 24 1 12 24
M  V30 25 1 12 25
M  V30 END BOND
M  V30 END CTAB
M  END
