
     RDKit          3D

  0  0  0  0  0  0  0  0  0  0999 V3000
M  V30 BEGIN CTAB
M  V30 COUNTS 36 38 0 0 0
M  V30 BEGIN ATOM
M  V30 1 C 3.76528 2.37934 -0.453991 0
M  V30 2 N 3.38249 1.42614 0.570168 0
M  V30 3 N 3.75854 1.6533 1.90473 0
M  V30 4 C 2.63283 0.288999 0.168006 0
M  V30 5 N 1.28745 0.245075 0.124045 0
M  V30 6 C 0.628879 -0.875113 -0.270405 0
M  V30 7 C 1.29135 -2.0221 -0.645426 0
M  V30 8 C 2.69211 -1.99341 -0.605439 0
M  V30 9 C 3.33244 -0.840693 -0.200342 0
M  V30 10 C 0.619884 -3.15706 -1.04517 0
M  V30 11 C -0.758328 -3.16168 -1.0765 0
M  V30 12 C -1.45154 -2.02966 -0.707219 0
M  V30 13 C -0.75795 -0.899224 -0.308534 0
M  V30 14 N -1.42812 0.212727 0.0544343 0
M  V30 15 C -2.76652 0.271807 0.0455937 0
M  V30 16 C -3.46066 -0.849363 -0.349958 0
M  V30 17 C -2.84807 -2.00908 -0.730384 0
M  V30 18 N -3.46716 1.4706 0.437395 0
M  V30 19 C -2.73393 2.63143 0.84724 0
M  V30 20 N -4.8642 1.5207 0.424266 0
M  V30 21 H 3.87723 1.88456 -1.4504 0
M  V30 22 H 3.05035 3.223 -0.536203 0
M  V30 23 H 4.75607 2.82173 -0.228065 0
M  V30 24 H 4.72371 1.24299 1.99995 0
M  V30 25 H 3.11228 1.13158 2.55617 0
M  V30 26 H 3.23735 -2.87627 -0.893334 0
M  V30 27 H 4.43004 -0.840102 -0.176441 0
M  V30 28 H 1.18216 -4.03277 -1.33027 0
M  V30 29 H -1.31583 -4.03093 -1.38359 0
M  V30 30 H -4.54845 -0.809383 -0.359873 0
M  V30 31 H -3.36449 -2.90123 -1.04436 0
M  V30 32 H -1.81186 2.29556 1.40333 0
M  V30 33 H -3.27152 3.29359 1.52314 0
M  V30 34 H -2.43249 3.23593 -0.0536017 0
M  V30 35 H -5.2343 0.906331 1.17675 0
M  V30 36 H -5.24498 1.19268 -0.505835 0
M  V30 END ATOM
M  V30 BEGIN BOND
M  V30 1 1 1 2
M  V30 2 1 2 3
M  V30 3 1 2 4
M  V30 4 2 4 5
M  V30 5 1 5 6
M  V30 6 2 6 7
M  V30 7 1 7 8
M  V30 8 2 8 9
M  V30 9 1 7 10
M  V30 10 2 10 11
M  V30 11 1 11 12
M  V30 12 2 12 13
M  V30 13 1 13 14
M  V30 14 2 14 15
M  V30 15 1 15 16
M  V30 16 2 16 17
M  V30 17 1 15 18
M  V30 18 1 18 19
M  V30 19 1 18 20
M  V30 20 1 9 4
M  V30 21 1 17 12
M  V30 22 1 13 6
M  V30 23 1 1 21
M  V30 24 1 1 22
M  V30 25 1 1 23
M  V30 26 1 3 24
M  V30 27 1 3 25
M  V30 28 1 8 26
M  V30 29 1 9 27
M  V30 30 1 10 28
M  V30 31 1 11 29
M  V30 32 1 16 30
M  V30 33 1 17 31
M  V30 34 1 19 32
M  V30 35 1 19 33
M  V30 36 1 19 34
M  V30 37 1 20 35
M  V30 38 1 20 36
M  V30 END BOND
M  V30 END CTAB
M  END
