
     RDKit          3D

  0  0  0  0  0  0  0  0  0  0999 V3000
M  V30 BEGIN CTAB
M  V30 COUNTS 28 28 0 0 0
M  V30 BEGIN ATOM
M  V30 1 C 4.22348 0.575178 -0.67021 0
M  V30 2 C 3.78046 -0.783234 -1.15415 0
M  V30 3 O 2.74227 -1.32087 -0.360502 0
M  V30 4 C 1.54013 -0.657713 -0.237967 0
M  V30 5 O 1.42266 0.420371 -0.855881 0
M  V30 6 C 0.475342 -1.21167 0.58035 0
M  V30 7 C -0.760664 -0.428549 0.619817 0
M  V30 8 C -1.17202 0.376628 1.65851 0
M  V30 9 C -2.34894 1.09022 1.62532 0
M  V30 10 I -2.8978 2.29611 3.25973 0
M  V30 11 C -3.16555 1.01394 0.523386 0
M  V30 12 C -2.78412 0.218566 -0.531656 0
M  V30 13 C -1.59997 -0.491648 -0.484327 0
M  V30 14 N -1.24952 -1.30714 -1.619 0
M  V30 15 N -4.37034 1.76676 0.526508 0
M  V30 16 H 5.30864 0.704172 -0.851595 0
M  V30 17 H 3.70706 1.33332 -1.30693 0
M  V30 18 H 4.04341 0.725987 0.411667 0
M  V30 19 H 3.37597 -0.737382 -2.19723 0
M  V30 20 H 4.64077 -1.48202 -1.12675 0
M  V30 21 H 0.782134 -1.3573 1.65869 0
M  V30 22 H 0.181166 -2.25013 0.249316 0
M  V30 23 H -0.539973 0.440046 2.5193 0
M  V30 24 H -3.44799 0.171987 -1.39418 0
M  V30 25 H -1.43762 -0.953656 -2.56802 0
M  V30 26 H -0.810436 -2.24641 -1.52593 0
M  V30 27 H -4.82629 2.00211 1.43466 0
M  V30 28 H -4.81225 2.0923 -0.373089 0
M  V30 END ATOM
M  V30 BEGIN BOND
M  V30 1 1 1 2
M  V30 2 1 2 3
M  V30 3 1 3 4
M  V30 4 2 4 5
M  V30 5 1 4 6
M  V30 6 1 6 7
M  V30 7 2 7 8
M  V30 8 1 8 9
M  V30 9 1 9 10
M  V30 10 2 9 11
M  V30 11 1 11 12
M  V30 12 2 12 13
M  V30 13 1 13 14
M  V30 14 1 11 15
M  V30 15 1 13 7
M  V30 16 1 1 16
M  V30 17 1 1 17
M  V30 18 1 1 18
M  V30 19 1 2 19
M  V30 20 1 2 20
M  V30 21 1 6 21
M  V30 22 1 6 22
M  V30 23 1 8 23
M  V30 24 1 12 24
M  V30 25 1 14 25
M  V30 26 1 14 26
M  V30 27 1 15 27
M  V30 28 1 15 28
M  V30 END BOND
M  V30 END CTAB
M  END
