
     RDKit          3D

  0  0  0  0  0  0  0  0  0  0999 V3000
M  V30 BEGIN CTAB
M  V30 COUNTS 51 53 0 0 0
M  V30 BEGIN ATOM
M  V30 1 C -4.05695 3.80313 0.774887 0
M  V30 2 O -4.73698 2.59716 0.584063 0
M  V30 3 C -3.97855 1.45022 0.303429 0
M  V30 4 C -2.59002 1.50356 0.216023 0
M  V30 5 C -1.83691 0.386333 -0.0583514 0
M  V30 6 N -0.431356 0.431591 -0.14857 0
M  V30 7 C 0.284834 -0.759421 -0.435136 0
M  V30 8 C 1.76278 -0.626686 -0.513128 0
M  V30 9 C 2.38268 -1.981 -0.825406 0
M  V30 10 C 3.75381 -1.72292 -1.36979 0
M  V30 11 C 4.4568 -0.665241 -0.590768 0
M  V30 12 N 5.77444 -0.485574 -0.911322 0
M  V30 13 C 6.52137 0.436952 -0.282573 0
M  V30 14 N 7.90248 0.614039 -0.629643 0
M  V30 15 N 5.93897 1.18235 0.673653 0
M  V30 16 C 4.63516 1.03735 1.02322 0
M  V30 17 N 4.02757 1.82283 2.02859 0
M  V30 18 C 3.85746 0.0972394 0.388744 0
M  V30 19 C 2.42401 -0.117251 0.718913 0
M  V30 20 C -2.4982 -0.802032 -0.24702 0
M  V30 21 C -3.89529 -0.876003 -0.163095 0
M  V30 22 O -4.56949 -2.07257 -0.352476 0
M  V30 23 C -3.82547 -3.23147 -0.63446 0
M  V30 24 C -4.61622 0.246301 0.110014 0
M  V30 25 O -6.0192 0.2398 0.207713 0
M  V30 26 C -6.59349 -0.00549488 1.47656 0
M  V30 27 H -4.81505 4.57111 1.08542 0
M  V30 28 H -3.2881 3.76634 1.57521 0
M  V30 29 H -3.52614 4.10364 -0.153802 0
M  V30 30 H -2.10169 2.47374 0.37369 0
M  V30 31 H 0.027069 1.37939 0.00689702 0
M  V30 32 H -0.109195 -1.20156 -1.37075 0
M  V30 33 H 0.0336098 -1.50737 0.372445 0
M  V30 34 H 2.03854 0.0434172 -1.35443 0
M  V30 35 H 1.70906 -2.47356 -1.53806 0
M  V30 36 H 2.39359 -2.54683 0.127078 0
M  V30 37 H 4.33062 -2.66975 -1.38765 0
M  V30 38 H 3.6203 -1.3044 -2.40304 0
M  V30 39 H 8.41772 -0.204187 -0.993095 0
M  V30 40 H 8.4061 1.5124 -0.535593 0
M  V30 41 H 3.17218 2.38332 1.90844 0
M  V30 42 H 4.49 1.83035 2.96784 0
M  V30 43 H 2.33315 -0.839874 1.57666 0
M  V30 44 H 1.94164 0.817361 1.08329 0
M  V30 45 H -1.9557 -1.70647 -0.464397 0
M  V30 46 H -3.25538 -3.09707 -1.56217 0
M  V30 47 H -4.48214 -4.10759 -0.749333 0
M  V30 48 H -3.12611 -3.46924 0.198471 0
M  V30 49 H -5.83062 -0.252271 2.22208 0
M  V30 50 H -7.28736 -0.883429 1.39175 0
M  V30 51 H -7.21031 0.879341 1.77634 0
M  V30 END ATOM
M  V30 BEGIN BOND
M  V30 1 1 1 2
M  V30 2 1 2 3
M  V30 3 2 3 4
M  V30 4 1 4 5
M  V30 5 1 5 6
M  V30 6 1 6 7
M  V30 7 1 7 8
M  V30 8 1 8 9
M  V30 9 1 9 10
M  V30 10 1 10 11
M  V30 11 2 11 12
M  V30 12 1 12 13
M  V30 13 1 13 14
M  V30 14 2 13 15
M  V30 15 1 15 16
M  V30 16 1 16 17
M  V30 17 2 16 18
M  V30 18 1 18 19
M  V30 19 2 5 20
M  V30 20 1 20 21
M  V30 21 1 21 22
M  V30 22 1 22 23
M  V30 23 2 21 24
M  V30 24 1 24 25
M  V30 25 1 25 26
M  V30 26 1 24 3
M  V30 27 1 19 8
M  V30 28 1 18 11
M  V30 29 1 1 27
M  V30 30 1 1 28
M  V30 31 1 1 29
M  V30 32 1 4 30
M  V30 33 1 6 31
M  V30 34 1 7 32
M  V30 35 1 7 33
M  V30 36 1 8 34
M  V30 37 1 9 35
M  V30 38 1 9 36
M  V30 39 1 10 37
M  V30 40 1 10 38
M  V30 41 1 14 39
M  V30 42 1 14 40
M  V30 43 1 17 41
M  V30 44 1 17 42
M  V30 45 1 19 43
M  V30 46 1 19 44
M  V30 47 1 20 45
M  V30 48 1 23 46
M  V30 49 1 23 47
M  V30 50 1 23 48
M  V30 51 1 26 49
M  V30 52 1 26 50
M  V30 53 1 26 51
M  V30 END BOND
M  V30 END CTAB
M  END
