
     RDKit          3D

  0  0  0  0  0  0  0  0  0  0999 V3000
M  V30 BEGIN CTAB
M  V30 COUNTS 49 51 0 0 0
M  V30 BEGIN ATOM
M  V30 1 N 3.51124 2.52934 0.079396 0
M  V30 2 C 2.41264 1.69896 -0.30668 0
M  V30 3 C 2.32386 0.429272 0.51704 0
M  V30 4 C 3.55225 -0.395143 0.381158 0
M  V30 5 C 4.31919 -0.649882 1.49439 0
M  V30 6 C 5.46797 -1.41525 1.39206 0
M  V30 7 C 5.8268 -1.91678 0.149704 0
M  V30 8 C 5.05443 -1.65611 -0.952412 0
M  V30 9 C 3.92915 -0.903573 -0.839035 0
M  V30 10 C 1.1054 -0.350547 0.178199 0
M  V30 11 O 1.24346 -1.55524 -0.166253 0
M  V30 12 N -0.193661 0.21993 0.232003 0
M  V30 13 C -1.37312 -0.508548 -0.088127 0
M  V30 14 C -2.12327 0.0252064 -1.28338 0
M  V30 15 C -3.30721 -0.855101 -1.53887 0
M  V30 16 C -3.31098 -2.12164 -0.736979 0
M  V30 17 C -3.17783 -1.90259 0.741558 0
M  V30 18 C -2.34781 -0.646217 1.04222 0
M  V30 19 C -3.29794 0.484698 1.19014 0
M  V30 20 C -3.00914 1.68927 0.378726 0
M  V30 21 C -2.52485 1.43773 -1.0039 0
M  V30 22 N -4.26075 2.45631 0.271034 0
M  V30 23 H 3.3335 3.5516 -0.0547559 0
M  V30 24 H 4.32521 2.29191 -0.556728 0
M  V30 25 H 2.46258 1.42566 -1.3995 0
M  V30 26 H 1.47855 2.28766 -0.204296 0
M  V30 27 H 2.23527 0.718606 1.58043 0
M  V30 28 H 4.05364 -0.263503 2.48407 0
M  V30 29 H 6.06587 -1.61075 2.27419 0
M  V30 30 H 6.73789 -2.51586 0.104889 0
M  V30 31 H 5.33305 -2.04726 -1.92491 0
M  V30 32 H 3.28473 -0.676183 -1.71295 0
M  V30 33 H -0.268426 1.21847 0.520973 0
M  V30 34 H -1.05805 -1.5563 -0.370275 0
M  V30 35 H -1.41259 0.0388183 -2.13454 0
M  V30 36 H -3.28792 -1.14132 -2.61068 0
M  V30 37 H -4.21761 -0.261957 -1.37844 0
M  V30 38 H -2.54074 -2.82518 -1.10984 0
M  V30 39 H -4.29257 -2.61704 -0.90899 0
M  V30 40 H -2.6489 -2.78979 1.16568 0
M  V30 41 H -4.11982 -1.7893 1.2767 0
M  V30 42 H -1.77229 -0.853973 1.97288 0
M  V30 43 H -3.28849 0.790234 2.27747 0
M  V30 44 H -4.37183 0.185043 1.00766 0
M  V30 45 H -2.32844 2.36106 0.976091 0
M  V30 46 H -3.29371 1.71357 -1.78396 0
M  V30 47 H -1.68014 2.15562 -1.2002 0
M  V30 48 H -4.13835 3.08248 -0.553 0
M  V30 49 H -4.41025 3.0336 1.13004 0
M  V30 END ATOM
M  V30 BEGIN BOND
M  V30 1 1 1 2
M  V30 2 1 2 3
M  V30 3 1 3 4
M  V30 4 2 4 5
M  V30 5 1 5 6
M  V30 6 2 6 7
M  V30 7 1 7 8
M  V30 8 2 8 9
M  V30 9 1 3 10
M  V30 10 2 10 11
M  V30 11 1 10 12
M  V30 12 1 12 13
M  V30 13 1 13 14
M  V30 14 1 14 15
M  V30 15 1 15 16
M  V30 16 1 16 17
M  V30 17 1 17 18
M  V30 18 1 18 19
M  V30 19 1 19 20
M  V30 20 1 20 21
M  V30 21 1 20 22
M  V30 22 1 9 4
M  V30 23 1 18 13
M  V30 24 1 21 14
M  V30 25 1 1 23
M  V30 26 1 1 24
M  V30 27 1 2 25
M  V30 28 1 2 26
M  V30 29 1 3 27
M  V30 30 1 5 28
M  V30 31 1 6 29
M  V30 32 1 7 30
M  V30 33 1 8 31
M  V30 34 1 9 32
M  V30 35 1 12 33
M  V30 36 1 13 34
M  V30 37 1 14 35
M  V30 38 1 15 36
M  V30 39 1 15 37
M  V30 40 1 16 38
M  V30 41 1 16 39
M  V30 42 1 17 40
M  V30 43 1 17 41
M  V30 44 1 18 42
M  V30 45 1 19 43
M  V30 46 1 19 44
M  V30 47 1 20 45
M  V30 48 1 21 46
M  V30 49 1 21 47
M  V30 50 1 22 48
M  V30 51 1 22 49
M  V30 END BOND
M  V30 END CTAB
M  END
