
     RDKit          3D

  0  0  0  0  0  0  0  0  0  0999 V3000
M  V30 BEGIN CTAB
M  V30 COUNTS 58 59 0 0 0
M  V30 BEGIN ATOM
M  V30 1 N 7.57681 2.02109 2.1835 0
M  V30 2 C 7.60651 1.11994 1.07005 0
M  V30 3 C 6.50027 0.359238 0.806135 0
M  V30 4 C 6.42075 -0.554302 -0.257129 0
M  V30 5 O 5.40386 -1.25967 -0.506961 0
M  V30 6 C 4.36637 -1.97858 -0.760954 0
M  V30 7 C 3.08359 -1.17916 -1.08271 0
M  V30 8 C 2.68503 -0.318818 0.0588296 0
M  V30 9 C 1.41946 0.470812 -0.212724 0
M  V30 10 C 0.245133 -0.424496 -0.497676 0
M  V30 11 C -1.02171 0.295509 -0.771514 0
M  V30 12 C -1.49709 1.16832 0.349268 0
M  V30 13 C -1.74575 0.405909 1.61597 0
M  V30 14 C -2.76682 -0.651591 1.41315 0
M  V30 15 C -4.07071 -0.0584281 0.968068 0
M  V30 16 O -4.98053 -1.15363 0.822355 0
M  V30 17 C -6.27867 -0.825255 0.40742 0
M  V30 18 C -7.22752 -1.8189 0.238989 0
M  V30 19 C -8.50906 -1.51259 -0.168734 0
M  V30 20 C -8.8597 -0.201273 -0.414432 0
M  V30 21 C -7.93591 0.833833 -0.257818 0
M  V30 22 N -8.28429 2.17869 -0.50651 0
M  V30 23 C -6.67087 0.470668 0.151215 0
M  V30 24 C 7.58139 -0.639941 -1.05497 0
M  V30 25 C 8.68551 0.109752 -0.803149 0
M  V30 26 C 8.69954 0.985206 0.252976 0
M  V30 27 H 6.99448 1.83057 3.02395 0
M  V30 28 H 8.1799 2.87621 2.08684 0
M  V30 29 H 5.61177 0.426278 1.41862 0
M  V30 30 H 4.03566 -2.69739 0.0893774 0
M  V30 31 H 4.50725 -2.72101 -1.62217 0
M  V30 32 H 3.28052 -0.529088 -1.9752 0
M  V30 33 H 2.34789 -1.91583 -1.39449 0
M  V30 34 H 3.46275 0.439773 0.279283 0
M  V30 35 H 2.58391 -0.928783 0.989985 0
M  V30 36 H 1.62311 1.18584 -1.0293 0
M  V30 37 H 1.22309 1.06799 0.701194 0
M  V30 38 H 0.457143 -1.0898 -1.35888 0
M  V30 39 H 0.082513 -1.08822 0.376985 0
M  V30 40 H -1.81218 -0.451586 -0.982854 0
M  V30 41 H -0.993509 0.937204 -1.67857 0
M  V30 42 H -2.45344 1.63097 0.0371658 0
M  V30 43 H -0.815037 2.04214 0.515839 0
M  V30 44 H -0.777444 -0.0398683 1.98952 0
M  V30 45 H -2.03673 1.12001 2.43885 0
M  V30 46 H -2.92178 -1.2481 2.35847 0
M  V30 47 H -2.47775 -1.41349 0.661084 0
M  V30 48 H -4.52256 0.644878 1.68194 0
M  V30 49 H -3.97629 0.371194 -0.069733 0
M  V30 50 H -6.90343 -2.84203 0.445479 0
M  V30 51 H -9.21004 -2.3298 -0.28384 0
M  V30 52 H -9.84812 0.0334737 -0.728603 0
M  V30 53 H -8.32814 2.84758 0.275949 0
M  V30 54 H -8.49377 2.49031 -1.46617 0
M  V30 55 H -5.91787 1.25964 0.285179 0
M  V30 56 H 7.55936 -1.34522 -1.89857 0
M  V30 57 H 9.55731 0.0104669 -1.44408 0
M  V30 58 H 9.55585 1.58336 0.468659 0
M  V30 END ATOM
M  V30 BEGIN BOND
M  V30 1 1 1 2
M  V30 2 2 2 3
M  V30 3 1 3 4
M  V30 4 1 4 5
M  V30 5 1 5 6
M  V30 6 1 6 7
M  V30 7 1 7 8
M  V30 8 1 8 9
M  V30 9 1 9 10
M  V30 10 1 10 11
M  V30 11 1 11 12
M  V30 12 1 12 13
M  V30 13 1 13 14
M  V30 14 1 14 15
M  V30 15 1 15 16
M  V30 16 1 16 17
M  V30 17 2 17 18
M  V30 18 1 18 19
M  V30 19 2 19 20
M  V30 20 1 20 21
M  V30 21 1 21 22
M  V30 22 2 21 23
M  V30 23 2 4 24
M  V30 24 1 24 25
M  V30 25 2 25 26
M  V30 26 1 26 2
M  V30 27 1 23 17
M  V30 28 1 1 27
M  V30 29 1 1 28
M  V30 30 1 3 29
M  V30 31 1 6 30
M  V30 32 1 6 31
M  V30 33 1 7 32
M  V30 34 1 7 33
M  V30 35 1 8 34
M  V30 36 1 8 35
M  V30 37 1 9 36
M  V30 38 1 9 37
M  V30 39 1 10 38
M  V30 40 1 10 39
M  V30 41 1 11 40
M  V30 42 1 11 41
M  V30 43 1 12 42
M  V30 44 1 12 43
M  V30 45 1 13 44
M  V30 46 1 13 45
M  V30 47 1 14 46
M  V30 48 1 14 47
M  V30 49 1 15 48
M  V30 50 1 15 49
M  V30 51 1 18 50
M  V30 52 1 19 51
M  V30 53 1 20 52
M  V30 54 1 22 53
M  V30 55 1 22 54
M  V30 56 1 23 55
M  V30 57 1 24 56
M  V30 58 1 25 57
M  V30 59 1 26 58
M  V30 END BOND
M  V30 END CTAB
M  END
