
     RDKit          3D

  0  0  0  0  0  0  0  0  0  0999 V3000
M  V30 BEGIN CTAB
M  V30 COUNTS 30 29 0 0 0
M  V30 BEGIN ATOM
M  V30 1 C -1.94959 2.12808 -1.01241 0
M  V30 2 C -0.57906 1.59991 -1.08362 0
M  V30 3 C -0.10407 0.685541 0.014266 0
M  V30 4 C -0.848511 -0.586727 0.161079 0
M  V30 5 O -0.661515 -1.30944 -1.03608 0
M  V30 6 C -2.35325 -0.456057 0.305016 0
M  V30 7 C -0.375658 -1.37572 1.33232 0
M  V30 8 N 1.28376 0.41953 -0.256788 0
M  V30 9 C 2.2604 -0.178355 0.557996 0
M  V30 10 N 3.07055 -1.09724 0.0749077 0
M  V30 11 N 2.92062 -1.4466 -1.2591 0
M  V30 12 N 2.50395 0.135955 1.925 0
M  V30 13 H -2.76504 1.53189 -1.40613 0
M  V30 14 H -2.1937 2.49291 0.0101504 0
M  V30 15 H -1.96569 3.08562 -1.63011 0
M  V30 16 H -0.412074 1.07691 -2.07487 0
M  V30 17 H 0.125628 2.484 -1.11305 0
M  V30 18 H -0.137427 1.30099 0.972156 0
M  V30 19 H -0.983921 -2.23246 -0.831136 0
M  V30 20 H -2.66509 -1.34444 0.951674 0
M  V30 21 H -2.90993 -0.62648 -0.622875 0
M  V30 22 H -2.65389 0.408562 0.912397 0
M  V30 23 H 0.484031 -2.01761 1.16468 0
M  V30 24 H -1.23382 -2.08898 1.59351 0
M  V30 25 H -0.3188 -0.724827 2.22819 0
M  V30 26 H 1.61466 0.725719 -1.24024 0
M  V30 27 H 2.52172 -2.36417 -1.50288 0
M  V30 28 H 3.21544 -0.771794 -2.00119 0
M  V30 29 H 1.75393 0.659938 2.42643 0
M  V30 30 H 3.35635 -0.114646 2.44071 0
M  V30 END ATOM
M  V30 BEGIN BOND
M  V30 1 1 1 2
M  V30 2 1 2 3
M  V30 3 1 3 4
M  V30 4 1 4 5
M  V30 5 1 4 6
M  V30 6 1 4 7
M  V30 7 1 3 8
M  V30 8 1 8 9
M  V30 9 2 9 10 CFG=2
M  V30 10 1 10 11
M  V30 11 1 9 12
M  V30 12 1 1 13
M  V30 13 1 1 14
M  V30 14 1 1 15
M  V30 15 1 2 16
M  V30 16 1 2 17
M  V30 17 1 3 18
M  V30 18 1 5 19
M  V30 19 1 6 20
M  V30 20 1 6 21
M  V30 21 1 6 22
M  V30 22 1 7 23
M  V30 23 1 7 24
M  V30 24 1 7 25
M  V30 25 1 8 26
M  V30 26 1 11 27
M  V30 27 1 11 28
M  V30 28 1 12 29
M  V30 29 1 12 30
M  V30 END BOND
M  V30 END CTAB
M  END
