
     RDKit          3D

  0  0  0  0  0  0  0  0  0  0999 V3000
M  V30 BEGIN CTAB
M  V30 COUNTS 26 26 0 0 0
M  V30 BEGIN ATOM
M  V30 1 C -0.735925 -2.86676 0.112918 0
M  V30 2 C -0.772021 -1.49863 -0.505244 0
M  V30 3 C 0.607354 -0.904525 -0.328922 0
M  V30 4 N 0.985621 0.350438 -0.41772 0
M  V30 5 C 2.22257 0.680001 -0.234106 0
M  V30 6 C 3.11223 -0.324787 0.0539087 0
M  V30 7 S 2.08345 -1.69746 0.0391659 0
M  V30 8 C 2.71065 2.11349 -0.325325 0
M  V30 9 N -1.72462 -0.679632 0.209948 0
M  V30 10 C -1.96565 0.681762 -0.166158 0
M  V30 11 N -1.96232 1.65844 0.644622 0
M  V30 12 N -1.72782 1.56648 2.00794 0
M  V30 13 N -2.2248 0.948035 -1.53945 0
M  V30 14 H -0.256971 -3.61896 -0.564822 0
M  V30 15 H -1.75619 -3.24407 0.31876 0
M  V30 16 H -0.208937 -2.81842 1.08935 0
M  V30 17 H -1.01813 -1.59141 -1.58098 0
M  V30 18 H 4.19755 -0.235734 0.240144 0
M  V30 19 H 2.01292 2.74715 -0.868072 0
M  V30 20 H 3.69351 2.1215 -0.866534 0
M  V30 21 H 2.82114 2.47107 0.706782 0
M  V30 22 H -2.23843 -1.09846 1.01108 0
M  V30 23 H -1.0452 2.24869 2.43091 0
M  V30 24 H -2.16783 0.881745 2.64979 0
M  V30 25 H -2.05 1.91478 -1.94105 0
M  V30 26 H -2.59213 0.195264 -2.17695 0
M  V30 END ATOM
M  V30 BEGIN BOND
M  V30 1 1 1 2
M  V30 2 1 2 3
M  V30 3 2 3 4
M  V30 4 1 4 5
M  V30 5 2 5 6
M  V30 6 1 6 7
M  V30 7 1 5 8
M  V30 8 1 2 9
M  V30 9 1 9 10
M  V30 10 2 10 11 CFG=2
M  V30 11 1 11 12
M  V30 12 1 10 13
M  V30 13 1 7 3
M  V30 14 1 1 14
M  V30 15 1 1 15
M  V30 16 1 1 16
M  V30 17 1 2 17
M  V30 18 1 6 18
M  V30 19 1 8 19
M  V30 20 1 8 20
M  V30 21 1 8 21
M  V30 22 1 9 22
M  V30 23 1 12 23
M  V30 24 1 12 24
M  V30 25 1 13 25
M  V30 26 1 13 26
M  V30 END BOND
M  V30 END CTAB
M  END
