
     RDKit          3D

  0  0  0  0  0  0  0  0  0  0999 V3000
M  V30 BEGIN CTAB
M  V30 COUNTS 44 48 0 0 0
M  V30 BEGIN ATOM
M  V30 1 N 7.35439 2.133 0.646485 0
M  V30 2 C 6.12551 1.51785 0.216697 0
M  V30 3 N 4.94389 1.60928 0.839901 0
M  V30 4 C 4.01034 0.901389 0.148268 0
M  V30 5 C 4.69247 0.378794 -0.924576 0
M  V30 6 O 5.94178 0.768209 -0.845729 0
M  V30 7 C 3.97062 -0.400076 -1.81087 0
M  V30 8 C 2.62734 -0.620001 -1.59374 0
M  V30 9 C 1.92212 -0.108388 -0.526875 0
M  V30 10 C 2.67252 0.676326 0.355907 0
M  V30 11 C 0.513039 -0.344374 -0.280533 0
M  V30 12 C -0.446617 0.659245 -0.259 0
M  V30 13 N -1.65504 0.115317 -0.0498296 0
M  V30 14 C -2.9019 0.823755 0.0373492 0
M  V30 15 C -3.73221 0.723387 -1.22254 0
M  V30 16 C -4.88966 1.71356 -1.03492 0
M  V30 17 O -5.64758 1.25822 0.0182815 0
M  V30 18 C -4.96209 1.34604 1.22811 0
M  V30 19 C -3.76614 0.385938 1.18649 0
M  V30 20 C -1.45963 -1.2112 0.0596042 0
M  V30 21 N -2.31534 -2.22218 0.278293 0
M  V30 22 C -1.96455 -3.51553 0.373202 0
M  V30 23 N -0.672913 -3.82792 0.242252 0
M  V30 24 C 0.254253 -2.86087 0.0189738 0
M  V30 25 N 1.6302 -3.18099 -0.0960279 0
M  V30 26 C -0.112758 -1.52636 -0.0799329 0
M  V30 27 H 7.65025 3.06413 0.292724 0
M  V30 28 H 7.9784 1.65376 1.32698 0
M  V30 29 H 4.46992 -0.831166 -2.67013 0
M  V30 30 H 2.08697 -1.22293 -2.30935 0
M  V30 31 H 2.14312 1.08892 1.19936 0
M  V30 32 H -0.23169 1.72741 -0.394056 0
M  V30 33 H -2.69641 1.92067 0.179684 0
M  V30 34 H -4.16631 -0.296039 -1.24749 0
M  V30 35 H -3.14956 0.973326 -2.13091 0
M  V30 36 H -4.3807 2.6865 -0.774226 0
M  V30 37 H -5.48536 1.83248 -1.93805 0
M  V30 38 H -5.64597 0.927941 2.00977 0
M  V30 39 H -4.67387 2.35791 1.5059 0
M  V30 40 H -4.23082 -0.622269 0.978338 0
M  V30 41 H -3.26587 0.403098 2.16084 0
M  V30 42 H -2.73861 -4.27136 0.553481 0
M  V30 43 H 1.92887 -3.75175 -0.914417 0
M  V30 44 H 2.27559 -2.83308 0.638361 0
M  V30 END ATOM
M  V30 BEGIN BOND
M  V30 1 1 1 2
M  V30 2 2 2 3
M  V30 3 1 3 4
M  V30 4 2 4 5
M  V30 5 1 5 6
M  V30 6 1 5 7
M  V30 7 2 7 8
M  V30 8 1 8 9
M  V30 9 2 9 10
M  V30 10 1 9 11
M  V30 11 2 11 12
M  V30 12 1 12 13
M  V30 13 1 13 14
M  V30 14 1 14 15
M  V30 15 1 15 16
M  V30 16 1 16 17
M  V30 17 1 17 18
M  V30 18 1 18 19
M  V30 19 1 13 20
M  V30 20 2 20 21
M  V30 21 1 21 22
M  V30 22 2 22 23
M  V30 23 1 23 24
M  V30 24 1 24 25
M  V30 25 2 24 26
M  V30 26 1 6 2
M  V30 27 1 26 11
M  V30 28 1 10 4
M  V30 29 1 19 14
M  V30 30 1 26 20
M  V30 31 1 1 27
M  V30 32 1 1 28
M  V30 33 1 7 29
M  V30 34 1 8 30
M  V30 35 1 10 31
M  V30 36 1 12 32
M  V30 37 1 14 33
M  V30 38 1 15 34
M  V30 39 1 15 35
M  V30 40 1 16 36
M  V30 41 1 16 37
M  V30 42 1 18 38
M  V30 43 1 18 39
M  V30 44 1 19 40
M  V30 45 1 19 41
M  V30 46 1 22 42
M  V30 47 1 25 43
M  V30 48 1 25 44
M  V30 END BOND
M  V30 END CTAB
M  END
