
     RDKit          3D

  0  0  0  0  0  0  0  0  0  0999 V3000
M  V30 BEGIN CTAB
M  V30 COUNTS 45 45 0 0 0
M  V30 BEGIN ATOM
M  V30 1 N -1.98971 -2.36861 1.27143 0
M  V30 2 C -2.44611 -1.24297 0.491 0
M  V30 3 C -1.91772 0.00426021 1.19513 0
M  V30 4 N -2.28737 1.19041 0.543308 0
M  V30 5 C -3.58886 1.76125 1.00247 0
M  V30 6 O -4.05563 2.8074 0.53858 0
M  V30 7 O -4.2503 1.06789 1.97196 0
M  V30 8 C -5.46828 1.46207 2.52115 0
M  V30 9 C -5.41804 2.814 3.18578 0
M  V30 10 C -1.75824 1.97279 -0.427927 0
M  V30 11 C -0.690931 1.91335 -1.09123 0
M  V30 12 C 0.350868 0.985719 -1.05031 0
M  V30 13 O 1.24898 1.45539 -1.99853 0
M  V30 14 N 0.921704 -0.142422 -0.54737 0
M  V30 15 C 2.23921 -0.63326 -0.984208 0
M  V30 16 C 3.28902 0.224535 -1.12658 0
M  V30 17 C 4.52149 -0.283975 -1.57603 0
M  V30 18 C 4.6295 -1.61803 -1.85441 0
M  V30 19 C 3.57429 -2.5069 -1.71533 0
M  V30 20 C 2.37743 -1.96389 -1.27053 0
M  V30 21 S 6.16076 -2.29374 -2.41692 0
M  V30 22 O 5.84339 -3.45232 -3.29643 0
M  V30 23 O 6.87807 -1.21034 -3.18227 0
M  V30 24 N 7.10913 -2.80305 -1.06145 0
M  V30 25 C -0.499088 3.04866 -2.12307 0
M  V30 26 N -0.32345 3.89911 -2.91942 0
M  V30 27 H -2.48182 -3.23339 0.941643 0
M  V30 28 H -0.975584 -2.50291 1.0689 0
M  V30 29 H -3.55095 -1.25041 0.539116 0
M  V30 30 H -2.1037 -1.33171 -0.539805 0
M  V30 31 H -0.943893 -0.0888646 1.65207 0
M  V30 32 H -2.58457 -0.0236912 2.17326 0
M  V30 33 H -5.66672 0.721267 3.35587 0
M  V30 34 H -6.32569 1.42857 1.84934 0
M  V30 35 H -5.58823 3.59643 2.42952 0
M  V30 36 H -6.28993 2.85432 3.88935 0
M  V30 37 H -4.508 2.96509 3.79689 0
M  V30 38 H -2.41555 2.9131 -0.737923 0
M  V30 39 H 0.528516 -0.76353 0.156932 0
M  V30 40 H 3.24981 1.27371 -0.895752 0
M  V30 41 H 5.35854 0.366738 -1.6968 0
M  V30 42 H 3.64607 -3.55126 -1.92966 0
M  V30 43 H 1.48948 -2.5908 -1.13141 0
M  V30 44 H 8.06203 -2.41577 -1.18938 0
M  V30 45 H 6.65007 -2.45421 -0.183041 0
M  V30 END ATOM
M  V30 BEGIN BOND
M  V30 1 1 1 2
M  V30 2 1 2 3
M  V30 3 1 3 4
M  V30 4 1 4 5
M  V30 5 2 5 6
M  V30 6 1 5 7
M  V30 7 1 7 8
M  V30 8 1 8 9
M  V30 9 1 4 10
M  V30 10 2 10 11
M  V30 11 1 11 12
M  V30 12 2 12 13
M  V30 13 1 12 14
M  V30 14 1 14 15
M  V30 15 2 15 16
M  V30 16 1 16 17
M  V30 17 2 17 18
M  V30 18 1 18 19
M  V30 19 2 19 20
M  V30 20 1 18 21
M  V30 21 2 21 22
M  V30 22 2 21 23
M  V30 23 1 21 24
M  V30 24 1 11 25
M  V30 25 3 25 26
M  V30 26 1 20 15
M  V30 27 1 1 27
M  V30 28 1 1 28
M  V30 29 1 2 29
M  V30 30 1 2 30
M  V30 31 1 3 31
M  V30 32 1 3 32
M  V30 33 1 8 33
M  V30 34 1 8 34
M  V30 35 1 9 35
M  V30 36 1 9 36
M  V30 37 1 9 37
M  V30 38 1 10 38
M  V30 39 1 14 39
M  V30 40 1 16 40
M  V30 41 1 17 41
M  V30 42 1 19 42
M  V30 43 1 20 43
M  V30 44 1 24 44
M  V30 45 1 24 45
M  V30 END BOND
M  V30 END CTAB
M  END
