
     RDKit          3D

  0  0  0  0  0  0  0  0  0  0999 V3000
M  V30 BEGIN CTAB
M  V30 COUNTS 22 22 0 0 0
M  V30 BEGIN ATOM
M  V30 1 C -0.861671 2.54354 0.335859 0
M  V30 2 C -0.23833 1.20695 0.195749 0
M  V30 3 C 1.15838 1.15854 0.151126 0
M  V30 4 C 1.81423 -0.0468426 0.0220597 0
M  V30 5 N 3.22727 -0.120813 -0.0253477 0
M  V30 6 C 1.07247 -1.20608 -0.062565 0
M  V30 7 C -0.315537 -1.19161 -0.0212907 0
M  V30 8 C -1.02866 -2.46184 -0.116902 0
M  V30 9 C -0.953111 0.0342056 0.109116 0
M  V30 10 N -2.3796 0.088455 0.155138 0
M  V30 11 H -1.93602 2.53781 0.0591934 0
M  V30 12 H -0.274206 3.26608 -0.285778 0
M  V30 13 H -0.750636 2.87505 1.40382 0
M  V30 14 H 1.75646 2.06657 0.216925 0
M  V30 15 H 3.77548 -0.250209 -0.887073 0
M  V30 16 H 3.74292 -0.036057 0.893199 0
M  V30 17 H 1.60661 -2.15771 -0.164927 0
M  V30 18 H -2.10286 -2.38226 -0.274783 0
M  V30 19 H -0.624621 -3.03542 -1.00185 0
M  V30 20 H -0.820025 -3.13239 0.767354 0
M  V30 21 H -2.91427 0.79044 -0.426633 0
M  V30 22 H -2.95428 -0.5464 0.75079 0
M  V30 END ATOM
M  V30 BEGIN BOND
M  V30 1 1 1 2
M  V30 2 2 2 3
M  V30 3 1 3 4
M  V30 4 1 4 5
M  V30 5 2 4 6
M  V30 6 1 6 7
M  V30 7 1 7 8
M  V30 8 2 7 9
M  V30 9 1 9 10
M  V30 10 1 9 2
M  V30 11 1 1 11
M  V30 12 1 1 12
M  V30 13 1 1 13
M  V30 14 1 3 14
M  V30 15 1 5 15
M  V30 16 1 5 16
M  V30 17 1 6 17
M  V30 18 1 8 18
M  V30 19 1 8 19
M  V30 20 1 8 20
M  V30 21 1 10 21
M  V30 22 1 10 22
M  V30 END BOND
M  V30 END CTAB
M  END
