
     RDKit          3D

  0  0  0  0  0  0  0  0  0  0999 V3000
M  V30 BEGIN CTAB
M  V30 COUNTS 36 35 0 0 0
M  V30 BEGIN ATOM
M  V30 1 N 5.48802 -0.338262 -1.36801 0
M  V30 2 N 4.91244 -0.643509 -0.147076 0
M  V30 3 C 3.86509 0.15825 0.351839 0
M  V30 4 O 3.44889 1.15017 -0.304615 0
M  V30 5 N 3.27574 -0.154452 1.60223 0
M  V30 6 C 2.20362 0.598427 2.19329 0
M  V30 7 C 0.943463 0.616536 1.33779 0
M  V30 8 C 0.416633 -0.754512 1.09953 0
M  V30 9 C -0.870285 -0.676901 0.251692 0
M  V30 10 C -0.638796 -0.0603276 -1.07621 0
M  V30 11 C -1.77751 -0.0107691 -2.02444 0
M  V30 12 N -2.97247 0.64373 -1.73386 0
M  V30 13 C -3.9721 0.348312 -0.814602 0
M  V30 14 O -3.96984 -0.645263 -0.0547189 0
M  V30 15 N -5.13193 1.21173 -0.672346 0
M  V30 16 N -6.14395 0.956381 0.224872 0
M  V30 17 H 5.44673 0.675811 -1.58269 0
M  V30 18 H 6.47301 -0.711687 -1.37272 0
M  V30 19 H 5.24645 -1.45033 0.393392 0
M  V30 20 H 3.62266 -0.988195 2.16253 0
M  V30 21 H 1.94921 0.268287 3.21146 0
M  V30 22 H 2.51914 1.67595 2.30411 0
M  V30 23 H 0.166998 1.20294 1.90212 0
M  V30 24 H 1.13523 1.15243 0.418661 0
M  V30 25 H 0.139086 -1.28453 2.03189 0
M  V30 26 H 1.12985 -1.35863 0.506739 0
M  V30 27 H -1.36071 -1.66012 0.223295 0
M  V30 28 H -1.56539 0.0112562 0.841303 0
M  V30 29 H -0.234577 1.00923 -0.945375 0
M  V30 30 H 0.251202 -0.548862 -1.6054 0
M  V30 31 H -1.3419 0.331828 -3.03696 0
M  V30 32 H -2.02894 -1.10762 -2.31928 0
M  V30 33 H -3.16918 1.54472 -2.32086 0
M  V30 34 H -5.17646 2.04725 -1.28182 0
M  V30 35 H -6.33098 1.73018 0.881977 0
M  V30 36 H -5.94843 0.0651786 0.722248 0
M  V30 END ATOM
M  V30 BEGIN BOND
M  V30 1 1 1 2
M  V30 2 1 2 3
M  V30 3 2 3 4
M  V30 4 1 3 5
M  V30 5 1 5 6
M  V30 6 1 6 7
M  V30 7 1 7 8
M  V30 8 1 8 9
M  V30 9 1 9 10
M  V30 10 1 10 11
M  V30 11 1 11 12
M  V30 12 1 12 13
M  V30 13 2 13 14
M  V30 14 1 13 15
M  V30 15 1 15 16
M  V30 16 1 1 17
M  V30 17 1 1 18
M  V30 18 1 2 19
M  V30 19 1 5 20
M  V30 20 1 6 21
M  V30 21 1 6 22
M  V30 22 1 7 23
M  V30 23 1 7 24
M  V30 24 1 8 25
M  V30 25 1 8 26
M  V30 26 1 9 27
M  V30 27 1 9 28
M  V30 28 1 10 29
M  V30 29 1 10 30
M  V30 30 1 11 31
M  V30 31 1 11 32
M  V30 32 1 12 33
M  V30 33 1 15 34
M  V30 34 1 16 35
M  V30 35 1 16 36
M  V30 END BOND
M  V30 END CTAB
M  END
