
     RDKit          3D

  0  0  0  0  0  0  0  0  0  0999 V3000
M  V30 BEGIN CTAB
M  V30 COUNTS 28 28 0 0 0
M  V30 BEGIN ATOM
M  V30 1 O -0.359992 2.48716 1.03426 0
M  V30 2 C 0.379582 1.69146 0.168603 0
M  V30 3 C -0.187338 0.335147 -0.0304333 0
M  V30 4 C -1.5849 0.280504 -0.526636 0
M  V30 5 C -2.12852 -1.12163 -0.717309 0
M  V30 6 C -3.49839 -0.49455 -0.417606 0
M  V30 7 C -2.69759 0.500006 0.440995 0
M  V30 8 N 0.674823 -0.387626 -0.949811 0
M  V30 9 C 2.04549 -0.635619 -0.663703 0
M  V30 10 N 2.37351 -1.71433 -0.00613053 0
M  V30 11 N 3.6877 -2.01144 0.30248 0
M  V30 12 N 3.08646 0.239307 -1.06091 0
M  V30 13 H 0.25438 3.17586 1.42073 0
M  V30 14 H 0.522057 2.19481 -0.831826 0
M  V30 15 H 1.38139 1.58289 0.636471 0
M  V30 16 H -0.139154 -0.218221 0.940068 0
M  V30 17 H -1.76739 0.861341 -1.45741 0
M  V30 18 H -1.8264 -1.77784 0.130762 0
M  V30 19 H -2.03629 -1.54196 -1.72051 0
M  V30 20 H -3.88147 -0.0499337 -1.35728 0
M  V30 21 H -4.17887 -1.12909 0.150893 0
M  V30 22 H -2.59162 0.0508873 1.44018 0
M  V30 23 H -3.18317 1.49308 0.427301 0
M  V30 24 H 0.31651 -0.757922 -1.86854 0
M  V30 25 H 4.00816 -1.82047 1.28109 0
M  V30 26 H 4.32643 -2.40977 -0.418295 0
M  V30 27 H 3.19859 0.573666 -2.05703 0
M  V30 28 H 3.806 0.604272 -0.38343 0
M  V30 END ATOM
M  V30 BEGIN BOND
M  V30 1 1 1 2
M  V30 2 1 2 3
M  V30 3 1 3 4
M  V30 4 1 4 5
M  V30 5 1 5 6
M  V30 6 1 6 7
M  V30 7 1 3 8
M  V30 8 1 8 9
M  V30 9 2 9 10 CFG=2
M  V30 10 1 10 11
M  V30 11 1 9 12
M  V30 12 1 7 4
M  V30 13 1 1 13
M  V30 14 1 2 14
M  V30 15 1 2 15
M  V30 16 1 3 16
M  V30 17 1 4 17
M  V30 18 1 5 18
M  V30 19 1 5 19
M  V30 20 1 6 20
M  V30 21 1 6 21
M  V30 22 1 7 22
M  V30 23 1 7 23
M  V30 24 1 8 24
M  V30 25 1 11 25
M  V30 26 1 11 26
M  V30 27 1 12 27
M  V30 28 1 12 28
M  V30 END BOND
M  V30 END CTAB
M  END
