
     RDKit          3D

  0  0  0  0  0  0  0  0  0  0999 V3000
M  V30 BEGIN CTAB
M  V30 COUNTS 25 25 0 0 0
M  V30 BEGIN ATOM
M  V30 1 C -2.78399 -1.20297 0.150766 0
M  V30 2 C -2.53854 0.19319 -0.37592 0
M  V30 3 S -1.0497 0.894641 0.343673 0
M  V30 4 C 0.431344 0.0452707 -0.155466 0
M  V30 5 N 0.468382 -1.01226 -0.982196 0
M  V30 6 C 1.60013 -1.6372 -1.34465 0
M  V30 7 C 2.79396 -1.16811 -0.840394 0
M  V30 8 C 2.8443 -0.0904946 0.0120732 0
M  V30 9 C 1.63436 0.49997 0.33851 0
M  V30 10 N 1.66074 1.60953 1.21334 0
M  V30 11 N 4.05083 0.419167 0.549661 0
M  V30 12 C -3.7274 1.03584 -0.00651118 0
M  V30 13 H -2.39197 -1.34416 1.18232 0
M  V30 14 H -3.89248 -1.40861 0.136183 0
M  V30 15 H -2.3171 -1.98405 -0.486317 0
M  V30 16 H -2.40573 0.152723 -1.48443 0
M  V30 17 H 1.59747 -2.49772 -2.02114 0
M  V30 18 H 3.73581 -1.64311 -1.10673 0
M  V30 19 H 1.56491 1.57103 2.23472 0
M  V30 20 H 1.79044 2.55532 0.772437 0
M  V30 21 H 4.3691 0.0800154 1.47348 0
M  V30 22 H 4.6168 1.11919 0.0406256 0
M  V30 23 H -3.45663 1.64308 0.88386 0
M  V30 24 H -3.9842 1.73727 -0.817554 0
M  V30 25 H -4.61086 0.432454 0.289657 0
M  V30 END ATOM
M  V30 BEGIN BOND
M  V30 1 1 1 2
M  V30 2 1 2 3
M  V30 3 1 3 4
M  V30 4 2 4 5
M  V30 5 1 5 6
M  V30 6 2 6 7
M  V30 7 1 7 8
M  V30 8 2 8 9
M  V30 9 1 9 10
M  V30 10 1 8 11
M  V30 11 1 2 12
M  V30 12 1 9 4
M  V30 13 1 1 13
M  V30 14 1 1 14
M  V30 15 1 1 15
M  V30 16 1 2 16
M  V30 17 1 6 17
M  V30 18 1 7 18
M  V30 19 1 10 19
M  V30 20 1 10 20
M  V30 21 1 11 21
M  V30 22 1 11 22
M  V30 23 1 12 23
M  V30 24 1 12 24
M  V30 25 1 12 25
M  V30 END BOND
M  V30 END CTAB
M  END
