
     RDKit          3D

  0  0  0  0  0  0  0  0  0  0999 V3000
M  V30 BEGIN CTAB
M  V30 COUNTS 68 71 0 0 0
M  V30 BEGIN ATOM
M  V30 1 C 3.44843 4.65762 -3.27503 0
M  V30 2 O 2.41254 3.82266 -2.85091 0
M  V30 3 C 1.4829 4.22742 -1.91124 0
M  V30 4 C 1.6433 5.51866 -1.41759 0
M  V30 5 C 0.779196 6.02961 -0.485269 0
M  V30 6 C -0.25032 5.2325 -0.0501519 0
M  V30 7 C -0.417752 3.92771 -0.543576 0
M  V30 8 O -1.49694 3.22295 -0.0222286 0
M  V30 9 C -2.34586 3.80391 0.932597 0
M  V30 10 C 0.43626 3.40002 -1.47576 0
M  V30 11 O 0.329632 2.17342 -1.97387 0
M  V30 12 C 0.485103 0.902671 -1.54421 0
M  V30 13 C 1.65203 0.287772 -1.15012 0
M  V30 14 F 2.79414 1.0302 -1.16868 0
M  V30 15 C 1.73649 -1.03464 -0.724766 0
M  V30 16 O 2.98585 -1.51856 -0.361857 0
M  V30 17 C 3.221 -2.78308 0.100441 0
M  V30 18 C 2.69647 -3.20309 1.29992 0
M  V30 19 O 1.91955 -2.44328 2.13805 0
M  V30 20 C 2.99133 -4.51487 1.68805 0
M  V30 21 C 3.76445 -5.34959 0.920768 0
M  V30 22 C 4.30333 -4.93076 -0.299694 0
M  V30 23 C 4.01051 -3.6454 -0.674176 0
M  V30 24 C 5.10942 -5.84521 -1.08939 0
M  V30 25 N 5.33081 -7.16101 -0.596067 0
M  V30 26 N 5.65125 -5.57222 -2.21511 0
M  V30 27 N 0.600957 -1.73493 -0.704239 0
M  V30 28 C -0.595498 -1.1826 -1.08384 0
M  V30 29 O -1.72384 -1.98614 -1.03212 0
M  V30 30 C -2.60969 -2.05015 0.0446859 0
M  V30 31 C -2.27052 -2.84372 1.13585 0
M  V30 32 C -3.11193 -2.92784 2.1954 0
M  V30 33 C -4.30797 -2.23908 2.21785 0
M  V30 34 C -4.6584 -1.45519 1.15593 0
M  V30 35 N -5.89966 -0.74485 1.17365 0
M  V30 36 C -6.75675 -0.890758 2.29721 0
M  V30 37 N -7.58508 -2.04764 2.36673 0
M  V30 38 N -6.82268 -0.0321412 3.25232 0
M  V30 39 C -3.79793 -1.37238 0.0790293 0
M  V30 40 C -0.681936 0.113832 -1.50283 0
M  V30 41 F -1.88749 0.610295 -1.92383 0
M  V30 42 C 0.9734 7.39247 0.0117635 0
M  V30 43 O 2.02007 8.16638 -0.452262 0
M  V30 44 O 0.187932 7.85992 0.861495 0
M  V30 45 H 3.12656 5.51215 -3.87505 0
M  V30 46 H 4.13439 4.02923 -3.89726 0
M  V30 47 H 4.00443 5.0113 -2.37921 0
M  V30 48 H 2.4573 6.16465 -1.75609 0
M  V30 49 H -0.929656 5.6459 0.686331 0
M  V30 50 H -2.81867 4.75368 0.547508 0
M  V30 51 H -3.22443 3.11369 1.08768 0
M  V30 52 H -1.84613 4.06503 1.88446 0
M  V30 53 H 1.6302 -1.50043 2.05159 0
M  V30 54 H 2.58407 -4.86133 2.62958 0
M  V30 55 H 3.98516 -6.35772 1.22881 0
M  V30 56 H 4.41558 -3.28739 -1.62081 0
M  V30 57 H 6.205 -7.35449 -0.0783835 0
M  V30 58 H 4.64881 -7.92478 -0.738628 0
M  V30 59 H 5.52153 -4.6252 -2.62203 0
M  V30 60 H -1.31454 -3.38038 1.09136 0
M  V30 61 H -2.87827 -3.53952 3.06429 0
M  V30 62 H -4.95765 -2.32693 3.0789 0
M  V30 63 H -6.17492 -0.126385 0.372043 0
M  V30 64 H -7.33908 -2.96307 1.89978 0
M  V30 65 H -8.46962 -2.01356 2.89048 0
M  V30 66 H -6.26615 0.836114 3.29551 0
M  V30 67 H -4.10846 -0.74308 -0.763298 0
M  V30 68 H 1.86847 9.0016 -1.00914 0
M  V30 END ATOM
M  V30 BEGIN BOND
M  V30 1 1 1 2
M  V30 2 1 2 3
M  V30 3 2 3 4
M  V30 4 1 4 5
M  V30 5 2 5 6
M  V30 6 1 6 7
M  V30 7 1 7 8
M  V30 8 1 8 9
M  V30 9 2 7 10
M  V30 10 1 10 11
M  V30 11 1 11 12
M  V30 12 2 12 13
M  V30 13 1 13 14
M  V30 14 1 13 15
M  V30 15 1 15 16
M  V30 16 1 16 17
M  V30 17 2 17 18
M  V30 18 1 18 19
M  V30 19 1 18 20
M  V30 20 2 20 21
M  V30 21 1 21 22
M  V30 22 2 22 23
M  V30 23 1 22 24
M  V30 24 1 24 25
M  V30 25 2 24 26 CFG=2
M  V30 26 2 15 27
M  V30 27 1 27 28
M  V30 28 1 28 29
M  V30 29 1 29 30
M  V30 30 2 30 31
M  V30 31 1 31 32
M  V30 32 2 32 33
M  V30 33 1 33 34
M  V30 34 1 34 35
M  V30 35 1 35 36
M  V30 36 1 36 37
M  V30 37 2 36 38 CFG=2
M  V30 38 2 34 39
M  V30 39 2 28 40
M  V30 40 1 40 41
M  V30 41 1 5 42
M  V30 42 1 42 43
M  V30 43 2 42 44
M  V30 44 1 10 3
M  V30 45 1 40 12
M  V30 46 1 23 17
M  V30 47 1 39 30
M  V30 48 1 1 45
M  V30 49 1 1 46
M  V30 50 1 1 47
M  V30 51 1 4 48
M  V30 52 1 6 49
M  V30 53 1 9 50
M  V30 54 1 9 51
M  V30 55 1 9 52
M  V30 56 1 19 53
M  V30 57 1 20 54
M  V30 58 1 21 55
M  V30 59 1 23 56
M  V30 60 1 25 57
M  V30 61 1 25 58
M  V30 62 1 26 59
M  V30 63 1 31 60
M  V30 64 1 32 61
M  V30 65 1 33 62
M  V30 66 1 35 63
M  V30 67 1 37 64
M  V30 68 1 37 65
M  V30 69 1 38 66
M  V30 70 1 39 67
M  V30 71 1 43 68
M  V30 END BOND
M  V30 END CTAB
M  END
