
     RDKit          3D

  0  0  0  0  0  0  0  0  0  0999 V3000
M  V30 BEGIN CTAB
M  V30 COUNTS 21 21 0 0 0
M  V30 BEGIN ATOM
M  V30 1 C 2.94549 0.250883 0.0274167 0
M  V30 2 C 2.03841 1.10168 0.892496 0
M  V30 3 O 0.728616 0.95705 0.39629 0
M  V30 4 C 0.0444959 -0.223717 0.315716 0
M  V30 5 O 0.621521 -1.25291 0.710935 0
M  V30 6 C -1.34635 -0.317458 -0.220869 0
M  V30 7 C -2.05583 0.737118 -0.672719 0
M  V30 8 N -1.51051 2.0871 -0.674527 0
M  V30 9 N -3.28133 0.518681 -1.12355 0
M  V30 10 S -3.51107 -1.13047 -0.948194 0
M  V30 11 C -1.99116 -1.5354 -0.279841 0
M  V30 12 N -1.47758 -2.82074 0.131617 0
M  V30 13 H 3.0265 -0.774582 0.458822 0
M  V30 14 H 2.54627 0.135216 -1.00257 0
M  V30 15 H 3.93661 0.738732 -0.0663932 0
M  V30 16 H 2.16302 0.768863 1.93192 0
M  V30 17 H 2.3739 2.15552 0.840855 0
M  V30 18 H -0.894419 2.43172 -1.42947 0
M  V30 19 H -1.74679 2.72845 0.108326 0
M  V30 20 H -1.70439 -3.14099 1.08574 0
M  V30 21 H -0.905406 -3.41475 -0.481989 0
M  V30 END ATOM
M  V30 BEGIN BOND
M  V30 1 1 1 2
M  V30 2 1 2 3
M  V30 3 1 3 4
M  V30 4 2 4 5
M  V30 5 1 4 6
M  V30 6 1 6 7
M  V30 7 1 7 8
M  V30 8 2 7 9
M  V30 9 1 9 10
M  V30 10 1 10 11
M  V30 11 1 11 12
M  V30 12 2 11 6
M  V30 13 1 1 13
M  V30 14 1 1 14
M  V30 15 1 1 15
M  V30 16 1 2 16
M  V30 17 1 2 17
M  V30 18 1 8 18
M  V30 19 1 8 19
M  V30 20 1 12 20
M  V30 21 1 12 21
M  V30 END BOND
M  V30 END CTAB
M  END
