
     RDKit          3D

  0  0  0  0  0  0  0  0  0  0999 V3000
M  V30 BEGIN CTAB
M  V30 COUNTS 19 20 0 0 0
M  V30 BEGIN ATOM
M  V30 1 N 0.0538365 2.11819 0.241366 0
M  V30 2 C 0.612619 0.821511 0.0819606 0
M  V30 3 C 1.96175 0.716014 0.0310121 0
M  V30 4 C 2.63584 -0.455745 -0.117967 0
M  V30 5 C 1.85885 -1.59746 -0.221353 0
M  V30 6 C 0.463942 -1.49552 -0.169464 0
M  V30 7 C -0.209274 -0.319069 -0.0199956 0
M  V30 8 C -1.56195 -0.376301 0.0130943 0
M  V30 9 N -2.45 0.762939 0.164704 0
M  V30 10 C -2.13213 -1.61108 -0.106587 0
M  V30 11 S -0.78863 -2.64927 -0.260321 0
M  V30 12 H -0.593409 2.43672 -0.522889 0
M  V30 13 H 0.250104 2.72939 1.04065 0
M  V30 14 H 2.59897 1.61466 0.111662 0
M  V30 15 H 3.69843 -0.570222 -0.16158 0
M  V30 16 H 2.30593 -2.55252 -0.339775 0
M  V30 17 H -2.74749 1.20369 -0.71793 0
M  V30 18 H -2.77204 1.12279 1.06107 0
M  V30 19 H -3.18535 -1.89871 -0.107658 0
M  V30 END ATOM
M  V30 BEGIN BOND
M  V30 1 1 1 2
M  V30 2 2 2 3
M  V30 3 1 3 4
M  V30 4 2 4 5
M  V30 5 1 5 6
M  V30 6 2 6 7
M  V30 7 1 7 8
M  V30 8 1 8 9
M  V30 9 2 8 10
M  V30 10 1 10 11
M  V30 11 1 7 2
M  V30 12 1 11 6
M  V30 13 1 1 12
M  V30 14 1 1 13
M  V30 15 1 3 14
M  V30 16 1 4 15
M  V30 17 1 5 16
M  V30 18 1 9 17
M  V30 19 1 9 18
M  V30 20 1 10 19
M  V30 END BOND
M  V30 END CTAB
M  END
