
     RDKit          3D

  0  0  0  0  0  0  0  0  0  0999 V3000
M  V30 BEGIN CTAB
M  V30 COUNTS 41 41 0 0 0
M  V30 BEGIN ATOM
M  V30 1 N 3.4912 -2.92371 0.217972 0
M  V30 2 C 3.43255 -2.62931 -1.20837 0
M  V30 3 C 3.92682 -1.22367 -1.40245 0
M  V30 4 C 3.15663 -0.165854 -0.689917 0
M  V30 5 C 1.74994 -0.0301451 -1.08056 0
M  V30 6 O 1.3448 -0.737668 -2.0241 0
M  V30 7 N 0.825712 0.847036 -0.459931 0
M  V30 8 C -0.538868 0.994255 -0.82124 0
M  V30 9 C -1.53589 0.642726 0.237598 0
M  V30 10 C -1.43519 -0.790873 0.700248 0
M  V30 11 C -2.84413 -1.18621 1.16521 0
M  V30 12 C -3.40634 0.00715337 1.88225 0
M  V30 13 C -2.34357 0.863105 2.52289 0
M  V30 14 C -1.44571 1.50769 1.47165 0
M  V30 15 C -0.882752 2.3686 -1.36442 0
M  V30 16 N -2.29874 2.37314 -1.68924 0
M  V30 17 H 3.65721 -3.93633 0.406938 0
M  V30 18 H 4.16202 -2.3112 0.725293 0
M  V30 19 H 2.42521 -2.81031 -1.5991 0
M  V30 20 H 4.14398 -3.29463 -1.76324 0
M  V30 21 H 3.98463 -1.05005 -2.50412 0
M  V30 22 H 5.00319 -1.23235 -1.07076 0
M  V30 23 H 3.73136 0.777016 -0.763891 0
M  V30 24 H 3.19509 -0.432242 0.406912 0
M  V30 25 H 1.22472 1.4134 0.323979 0
M  V30 26 H -0.744219 0.299355 -1.67345 0
M  V30 27 H -2.54712 0.807835 -0.191906 0
M  V30 28 H -1.05573 -1.47461 -0.0658668 0
M  V30 29 H -0.807757 -0.849314 1.62573 0
M  V30 30 H -3.43363 -1.28438 0.207802 0
M  V30 31 H -2.8491 -2.1094 1.74047 0
M  V30 32 H -4.07731 0.623911 1.23416 0
M  V30 33 H -4.04972 -0.371282 2.70291 0
M  V30 34 H -2.87171 1.63284 3.12817 0
M  V30 35 H -1.78104 0.233983 3.22763 0
M  V30 36 H -1.78576 2.54221 1.2575 0
M  V30 37 H -0.42471 1.48699 1.90997 0
M  V30 38 H -0.337913 2.48585 -2.30602 0
M  V30 39 H -0.685739 3.16715 -0.625866 0
M  V30 40 H -2.4661 2.66062 -2.67931 0
M  V30 41 H -2.8063 3.10867 -1.11151 0
M  V30 END ATOM
M  V30 BEGIN BOND
M  V30 1 1 1 2
M  V30 2 1 2 3
M  V30 3 1 3 4
M  V30 4 1 4 5
M  V30 5 2 5 6
M  V30 6 1 5 7
M  V30 7 1 7 8
M  V30 8 1 8 9
M  V30 9 1 9 10
M  V30 10 1 10 11
M  V30 11 1 11 12
M  V30 12 1 12 13
M  V30 13 1 13 14
M  V30 14 1 8 15
M  V30 15 1 15 16
M  V30 16 1 14 9
M  V30 17 1 1 17
M  V30 18 1 1 18
M  V30 19 1 2 19
M  V30 20 1 2 20
M  V30 21 1 3 21
M  V30 22 1 3 22
M  V30 23 1 4 23
M  V30 24 1 4 24
M  V30 25 1 7 25
M  V30 26 1 8 26
M  V30 27 1 9 27
M  V30 28 1 10 28
M  V30 29 1 10 29
M  V30 30 1 11 30
M  V30 31 1 11 31
M  V30 32 1 12 32
M  V30 33 1 12 33
M  V30 34 1 13 34
M  V30 35 1 13 35
M  V30 36 1 14 36
M  V30 37 1 14 37
M  V30 38 1 15 38
M  V30 39 1 15 39
M  V30 40 1 16 40
M  V30 41 1 16 41
M  V30 END BOND
M  V30 END CTAB
M  END
