
     RDKit          3D

  0  0  0  0  0  0  0  0  0  0999 V3000
M  V30 BEGIN CTAB
M  V30 COUNTS 27 28 0 0 0
M  V30 BEGIN ATOM
M  V30 1 N -4.35246 1.92641 0.0929901 0
M  V30 2 C -3.18077 1.121 0.0477477 0
M  V30 3 N -1.95243 1.68818 0.0207721 0
M  V30 4 C -0.818241 0.965947 -0.0222136 0
M  V30 5 C -0.900876 -0.401069 -0.0396766 0
M  V30 6 C 0.295465 -1.27975 -0.0867545 0
M  V30 7 C 1.55265 -0.520477 -0.111729 0
M  V30 8 C 2.1864 -0.175502 1.05909 0
M  V30 9 C 3.3733 0.54053 1.0606 0
M  V30 10 C 3.925 0.911661 -0.138168 0
M  V30 11 C 3.32114 0.585186 -1.32372 0
M  V30 12 C 2.13224 -0.132963 -1.29695 0
M  V30 13 C -2.13913 -1.00319 -0.0129232 0
M  V30 14 N -2.32382 -2.41469 -0.0280959 0
M  V30 15 N -3.23746 -0.219706 0.0299212 0
M  V30 16 H -4.76833 2.29108 -0.788367 0
M  V30 17 H -4.82329 2.17364 0.981391 0
M  V30 18 H 0.169043 1.4325 -0.0437403 0
M  V30 19 H 0.217123 -1.98016 0.770564 0
M  V30 20 H 0.175149 -1.92959 -1.00086 0
M  V30 21 H 1.77573 -0.454239 2.02925 0
M  V30 22 H 3.83863 0.791889 1.98092 0
M  V30 23 H 4.86095 1.47466 -0.0846732 0
M  V30 24 H 3.79683 0.901279 -2.23507 0
M  V30 25 H 1.67088 -0.381124 -2.24279 0
M  V30 26 H -1.82568 -3.04061 0.636952 0
M  V30 27 H -2.96805 -2.87089 -0.709982 0
M  V30 END ATOM
M  V30 BEGIN BOND
M  V30 1 1 1 2
M  V30 2 2 2 3
M  V30 3 1 3 4
M  V30 4 2 4 5
M  V30 5 1 5 6
M  V30 6 1 6 7
M  V30 7 2 7 8
M  V30 8 1 8 9
M  V30 9 2 9 10
M  V30 10 1 10 11
M  V30 11 2 11 12
M  V30 12 1 5 13
M  V30 13 1 13 14
M  V30 14 2 13 15
M  V30 15 1 15 2
M  V30 16 1 12 7
M  V30 17 1 1 16
M  V30 18 1 1 17
M  V30 19 1 4 18
M  V30 20 1 6 19
M  V30 21 1 6 20
M  V30 22 1 8 21
M  V30 23 1 9 22
M  V30 24 1 10 23
M  V30 25 1 11 24
M  V30 26 1 12 25
M  V30 27 1 14 26
M  V30 28 1 14 27
M  V30 END BOND
M  V30 END CTAB
M  END
