
     RDKit          3D

  0  0  0  0  0  0  0  0  0  0999 V3000
M  V30 BEGIN CTAB
M  V30 COUNTS 19 19 0 0 0
M  V30 BEGIN ATOM
M  V30 1 N -3.83709 -0.429197 0.411701 0
M  V30 2 C -2.4419 -0.420117 0.136879 0
M  V30 3 N -1.71949 -1.53632 0.0430699 0
M  V30 4 C -0.40295 -1.56295 -0.214745 0
M  V30 5 C 0.246718 -0.358989 -0.394628 0
M  V30 6 O 1.58272 -0.211959 -0.663796 0
M  V30 7 S 2.798 -0.0489868 0.496779 0
M  V30 8 O 4.26739 -0.101728 -0.32427 0
M  V30 9 O 2.80351 -1.18765 1.47801 0
M  V30 10 O 2.74223 1.28123 1.19928 0
M  V30 11 C -0.511244 0.789353 -0.295216 0
M  V30 12 N 0.0892169 2.06297 -0.468414 0
M  V30 13 N -1.83606 0.759474 -0.0333257 0
M  V30 14 H -4.41735 -1.27907 0.260313 0
M  V30 15 H -4.31897 0.421208 0.774647 0
M  V30 16 H 0.178827 -2.46755 -0.290045 0
M  V30 17 H 4.17624 -0.746863 -1.08616 0
M  V30 18 H 0.454355 2.35543 -1.39987 0
M  V30 19 H 0.145842 2.68171 0.369804 0
M  V30 END ATOM
M  V30 BEGIN BOND
M  V30 1 1 1 2
M  V30 2 2 2 3
M  V30 3 1 3 4
M  V30 4 2 4 5
M  V30 5 1 5 6
M  V30 6 1 6 7
M  V30 7 1 7 8
M  V30 8 2 7 9
M  V30 9 2 7 10
M  V30 10 1 5 11
M  V30 11 1 11 12
M  V30 12 2 11 13
M  V30 13 1 13 2
M  V30 14 1 1 14
M  V30 15 1 1 15
M  V30 16 1 4 16
M  V30 17 1 8 17
M  V30 18 1 12 18
M  V30 19 1 12 19
M  V30 END BOND
M  V30 END CTAB
M  END
