
     RDKit          3D

  0  0  0  0  0  0  0  0  0  0999 V3000
M  V30 BEGIN CTAB
M  V30 COUNTS 59 63 0 0 0
M  V30 BEGIN ATOM
M  V30 1 N 5.1735 -1.29745 3.55594 0
M  V30 2 C 4.63548 -0.865046 2.32623 0
M  V30 3 N 5.3465 -0.466392 1.2825 0
M  V30 4 C 4.85416 -0.0536867 0.110423 0
M  V30 5 N 5.63666 0.366413 -0.986843 0
M  V30 6 C 7.03308 0.434085 -1.10027 0
M  V30 7 C 7.90946 -0.203584 -0.272155 0
M  V30 8 C 9.29555 -0.0805585 -0.419519 0
M  V30 9 C 9.82927 0.69177 -1.41077 0
M  V30 10 C 8.97812 1.34272 -2.25681 0
M  V30 11 C 7.61795 1.21788 -2.10641 0
M  V30 12 N 3.48317 -0.0436342 -0.0194297 0
M  V30 13 C 2.75965 -0.437273 1.00956 0
M  V30 14 N 3.28288 -0.848662 2.18032 0
M  V30 15 C 1.28942 -0.446223 0.924802 0
M  V30 16 S 0.163864 -0.904787 2.10248 0
M  V30 17 C -1.29918 -0.612877 1.18999 0
M  V30 18 N -2.48858 -0.802477 1.60995 0
M  V30 19 C -3.68363 -0.603593 0.969556 0
M  V30 20 N -4.12648 -1.39257 0.101635 0
M  V30 21 C -5.23166 -1.48474 -0.689128 0
M  V30 22 C -5.14837 -1.48968 -2.08853 0
M  V30 23 C -6.24523 -1.60603 -2.89356 0
M  V30 24 C -7.49764 -1.72516 -2.35812 0
M  V30 25 C -7.63056 -1.72541 -0.986398 0
M  V30 26 C -6.51546 -1.60726 -0.182684 0
M  V30 27 C -4.51573 0.522328 1.3698 0
M  V30 28 C -5.20196 1.29508 0.48362 0
M  V30 29 C -6.01406 2.36195 0.897566 0
M  V30 30 C -6.14902 2.67247 2.23256 0
M  V30 31 C -5.46047 1.89943 3.1315 0
M  V30 32 C -4.67315 0.862363 2.70991 0
M  V30 33 N -0.828317 -0.17866 0.032523 0
M  V30 34 C 0.482531 -0.0885526 -0.118931 0
M  V30 35 N 1.14315 0.369266 -1.34896 0
M  V30 36 C -1.73769 0.211121 -1.08053 0
M  V30 37 H 5.19382 -2.30145 3.78056 0
M  V30 38 H 5.54412 -0.609653 4.22522 0
M  V30 39 H 5.08457 0.677403 -1.87096 0
M  V30 40 H 7.58977 -0.837454 0.520965 0
M  V30 41 H 9.93745 -0.611485 0.270123 0
M  V30 42 H 10.9085 0.753984 -1.48207 0
M  V30 43 H 9.39295 1.95398 -3.04181 0
M  V30 44 H 6.92367 1.72786 -2.76757 0
M  V30 45 H -4.17882 -1.39802 -2.56384 0
M  V30 46 H -6.14738 -1.60667 -3.99006 0
M  V30 47 H -8.3959 -1.81972 -2.94075 0
M  V30 48 H -8.5956 -1.81685 -0.53561 0
M  V30 49 H -6.67347 -1.61283 0.888432 0
M  V30 50 H -5.1714 1.17352 -0.585884 0
M  V30 51 H -6.55904 2.97305 0.178631 0
M  V30 52 H -6.78623 3.50892 2.55133 0
M  V30 53 H -5.54629 2.11801 4.17666 0
M  V30 54 H -4.11477 0.23339 3.41921 0
M  V30 55 H 1.25064 -0.283231 -2.12549 0
M  V30 56 H 1.49665 1.34164 -1.43041 0
M  V30 57 H -2.4754 0.944601 -0.792132 0
M  V30 58 H -2.01358 -0.628642 -1.71143 0
M  V30 59 H -1.13149 0.83709 -1.82817 0
M  V30 END ATOM
M  V30 BEGIN BOND
M  V30 1 1 1 2
M  V30 2 2 2 3
M  V30 3 1 3 4
M  V30 4 1 4 5
M  V30 5 1 5 6
M  V30 6 2 6 7
M  V30 7 1 7 8
M  V30 8 2 8 9
M  V30 9 1 9 10
M  V30 10 2 10 11
M  V30 11 2 4 12
M  V30 12 1 12 13
M  V30 13 2 13 14
M  V30 14 1 13 15
M  V30 15 1 15 16
M  V30 16 1 16 17
M  V30 17 2 17 18
M  V30 18 1 18 19
M  V30 19 2 19 20
M  V30 20 1 20 21
M  V30 21 2 21 22
M  V30 22 1 22 23
M  V30 23 2 23 24
M  V30 24 1 24 25
M  V30 25 2 25 26
M  V30 26 1 19 27
M  V30 27 2 27 28
M  V30 28 1 28 29
M  V30 29 2 29 30
M  V30 30 1 30 31
M  V30 31 2 31 32
M  V30 32 1 17 33
M  V30 33 1 33 34
M  V30 34 1 34 35
M  V30 35 1 33 36
M  V30 36 1 14 2
M  V30 37 2 34 15
M  V30 38 1 11 6
M  V30 39 1 26 21
M  V30 40 1 32 27
M  V30 41 1 1 37
M  V30 42 1 1 38
M  V30 43 1 5 39
M  V30 44 1 7 40
M  V30 45 1 8 41
M  V30 46 1 9 42
M  V30 47 1 10 43
M  V30 48 1 11 44
M  V30 49 1 22 45
M  V30 50 1 23 46
M  V30 51 1 24 47
M  V30 52 1 25 48
M  V30 53 1 26 49
M  V30 54 1 28 50
M  V30 55 1 29 51
M  V30 56 1 30 52
M  V30 57 1 31 53
M  V30 58 1 32 54
M  V30 59 1 35 55
M  V30 60 1 35 56
M  V30 61 1 36 57
M  V30 62 1 36 58
M  V30 63 1 36 59
M  V30 END BOND
M  V30 END CTAB
M  END
