
     RDKit          3D

  0  0  0  0  0  0  0  0  0  0999 V3000
M  V30 BEGIN CTAB
M  V30 COUNTS 40 40 0 0 0
M  V30 BEGIN ATOM
M  V30 1 C -5.01416 1.4517 0.485167 0
M  V30 2 C -4.01955 0.548752 -0.191825 0
M  V30 3 C -2.78987 0.353467 0.658472 0
M  V30 4 C -1.83247 -0.565223 -0.0838175 0
M  V30 5 C -0.603988 -0.79027 0.710906 0
M  V30 6 O -0.811333 -1.20346 1.89904 0
M  V30 7 N 0.712679 -0.595064 0.283717 0
M  V30 8 C 1.12255 -0.132285 -1.02751 0
M  V30 9 C 2.6387 -0.0418515 -1.03635 0
M  V30 10 N 3.10835 0.732029 0.0470018 0
M  V30 11 C 2.59373 0.420003 1.33215 0
M  V30 12 C 1.8048 -0.87867 1.23525 0
M  V30 13 S 4.70295 1.25955 -0.0310319 0
M  V30 14 O 5.00494 2.11522 1.16573 0
M  V30 15 O 4.88369 2.10871 -1.25799 0
M  V30 16 N 5.86188 -0.00840317 -0.0820342 0
M  V30 17 N -1.62169 -0.104267 -1.41092 0
M  V30 18 C -2.53492 -1.91702 -0.177158 0
M  V30 19 H -5.73168 1.80695 -0.286614 0
M  V30 20 H -5.64352 0.875695 1.21834 0
M  V30 21 H -4.54065 2.32578 0.977159 0
M  V30 22 H -4.51751 -0.420666 -0.37223 0
M  V30 23 H -3.77516 1.00916 -1.17447 0
M  V30 24 H -3.08643 -0.149603 1.58495 0
M  V30 25 H -2.33886 1.33632 0.877117 0
M  V30 26 H 0.79002 -0.897756 -1.75497 0
M  V30 27 H 0.749167 0.852681 -1.29846 0
M  V30 28 H 3.0408 -1.07141 -1.08846 0
M  V30 29 H 2.92355 0.458089 -1.98701 0
M  V30 30 H 3.33515 0.40618 2.14109 0
M  V30 31 H 1.84098 1.20933 1.59693 0
M  V30 32 H 2.47858 -1.62396 0.795608 0
M  V30 33 H 1.40906 -1.14366 2.22704 0
M  V30 34 H 5.73586 -0.701686 0.683931 0
M  V30 35 H 5.95387 -0.446574 -1.01047 0
M  V30 36 H -2.12761 -0.677623 -2.1348 0
M  V30 37 H -1.6954 0.906406 -1.55492 0
M  V30 38 H -3.2879 -1.93989 -0.973998 0
M  V30 39 H -1.72689 -2.67132 -0.363562 0
M  V30 40 H -2.99173 -2.19537 0.797166 0
M  V30 END ATOM
M  V30 BEGIN BOND
M  V30 1 1 1 2
M  V30 2 1 2 3
M  V30 3 1 3 4
M  V30 4 1 4 5
M  V30 5 2 5 6
M  V30 6 1 5 7
M  V30 7 1 7 8
M  V30 8 1 8 9
M  V30 9 1 9 10
M  V30 10 1 10 11
M  V30 11 1 11 12
M  V30 12 1 10 13
M  V30 13 2 13 14
M  V30 14 2 13 15
M  V30 15 1 13 16
M  V30 16 1 4 17
M  V30 17 1 4 18
M  V30 18 1 12 7
M  V30 19 1 1 19
M  V30 20 1 1 20
M  V30 21 1 1 21
M  V30 22 1 2 22
M  V30 23 1 2 23
M  V30 24 1 3 24
M  V30 25 1 3 25
M  V30 26 1 8 26
M  V30 27 1 8 27
M  V30 28 1 9 28
M  V30 29 1 9 29
M  V30 30 1 11 30
M  V30 31 1 11 31
M  V30 32 1 12 32
M  V30 33 1 12 33
M  V30 34 1 16 34
M  V30 35 1 16 35
M  V30 36 1 17 36
M  V30 37 1 17 37
M  V30 38 1 18 38
M  V30 39 1 18 39
M  V30 40 1 18 40
M  V30 END BOND
M  V30 END CTAB
M  END
