
     RDKit          3D

  0  0  0  0  0  0  0  0  0  0999 V3000
M  V30 BEGIN CTAB
M  V30 COUNTS 37 38 0 0 0
M  V30 BEGIN ATOM
M  V30 1 C -3.7836 -1.16571 -0.977524 0
M  V30 2 C -2.57884 -1.80314 -0.388339 0
M  V30 3 C -1.2795 -1.06556 -0.559385 0
M  V30 4 N -1.3058 0.182712 0.0480278 0
M  V30 5 C -2.04904 1.25813 -0.387187 0
M  V30 6 C -1.50697 2.46961 0.375755 0
M  V30 7 C -0.219891 2.04467 0.994396 0
M  V30 8 C -0.249663 0.535941 0.928018 0
M  V30 9 C 1.05955 -0.0532297 0.558964 0
M  V30 10 C 1.58742 0.0212246 -0.721076 0
M  V30 11 C 2.81336 -0.550067 -1.02171 0
M  V30 12 C 3.54666 -1.21107 -0.0549554 0
M  V30 13 C 3.04441 -1.29715 1.2112 0
M  V30 14 C 1.8314 -0.728009 1.49563 0
M  V30 15 N 4.80781 -1.8098 -0.322292 0
M  V30 16 N 0.926056 2.61697 0.306299 0
M  V30 17 H -4.42767 -1.97751 -1.4369 0
M  V30 18 H -4.47385 -0.730722 -0.194558 0
M  V30 19 H -3.53555 -0.443467 -1.75618 0
M  V30 20 H -2.69321 -1.94841 0.717666 0
M  V30 21 H -2.47243 -2.83263 -0.843194 0
M  V30 22 H -0.508817 -1.77016 -0.104029 0
M  V30 23 H -1.01674 -1.03092 -1.64762 0
M  V30 24 H -1.98909 1.44178 -1.48373 0
M  V30 25 H -3.1211 1.20754 -0.0823922 0
M  V30 26 H -2.21759 2.81874 1.16008 0
M  V30 27 H -1.30098 3.30449 -0.310132 0
M  V30 28 H -0.18891 2.40935 2.05969 0
M  V30 29 H -0.506437 0.171327 1.94013 0
M  V30 30 H 1.04396 0.537848 -1.50377 0
M  V30 31 H 3.24372 -0.502398 -2.01256 0
M  V30 32 H 3.58684 -1.80401 2.00719 0
M  V30 33 H 1.42758 -0.799284 2.49316 0
M  V30 34 H 5.65348 -1.25928 -0.0546851 0
M  V30 35 H 4.90345 -2.74358 -0.760608 0
M  V30 36 H 0.608018 3.11011 -0.57224 0
M  V30 37 H 1.34197 3.39568 0.898852 0
M  V30 END ATOM
M  V30 BEGIN BOND
M  V30 1 1 1 2
M  V30 2 1 2 3
M  V30 3 1 3 4
M  V30 4 1 4 5
M  V30 5 1 5 6
M  V30 6 1 6 7
M  V30 7 1 7 8
M  V30 8 1 8 9
M  V30 9 2 9 10
M  V30 10 1 10 11
M  V30 11 2 11 12
M  V30 12 1 12 13
M  V30 13 2 13 14
M  V30 14 1 12 15
M  V30 15 1 7 16
M  V30 16 1 8 4
M  V30 17 1 14 9
M  V30 18 1 1 17
M  V30 19 1 1 18
M  V30 20 1 1 19
M  V30 21 1 2 20
M  V30 22 1 2 21
M  V30 23 1 3 22
M  V30 24 1 3 23
M  V30 25 1 5 24
M  V30 26 1 5 25
M  V30 27 1 6 26
M  V30 28 1 6 27
M  V30 29 1 7 28
M  V30 30 1 8 29
M  V30 31 1 10 30
M  V30 32 1 11 31
M  V30 33 1 13 32
M  V30 34 1 14 33
M  V30 35 1 15 34
M  V30 36 1 15 35
M  V30 37 1 16 36
M  V30 38 1 16 37
M  V30 END BOND
M  V30 END CTAB
M  END
