
     RDKit          3D

  0  0  0  0  0  0  0  0  0  0999 V3000
M  V30 BEGIN CTAB
M  V30 COUNTS 41 41 0 0 0
M  V30 BEGIN ATOM
M  V30 1 N 2.06024 1.23188 -2.43372 0
M  V30 2 C 2.695 0.126123 -1.74398 0
M  V30 3 C 2.11777 -0.0534262 -0.379056 0
M  V30 4 C 2.75104 -1.1926 0.38354 0
M  V30 5 C 4.1795 -1.23204 0.697831 0
M  V30 6 C 3.23268 -0.897868 1.82161 0
M  V30 7 N 0.667943 -0.233818 -0.373766 0
M  V30 8 C -0.222125 0.655353 0.23611 0
M  V30 9 O 0.2218 1.69079 0.82844 0
M  V30 10 C -1.68147 0.480565 0.246348 0
M  V30 11 C -2.33382 1.50566 1.20093 0
M  V30 12 N -1.82555 1.30891 2.52899 0
M  V30 13 C -2.27205 0.750266 -1.09183 0
M  V30 14 C -1.77391 -0.14361 -2.17184 0
M  V30 15 C -1.96913 -0.911036 0.755216 0
M  V30 16 C -3.43136 -1.22948 0.818986 0
M  V30 17 H 2.21688 1.05744 -3.46115 0
M  V30 18 H 2.41538 2.14998 -2.11984 0
M  V30 19 H 2.69193 -0.800278 -2.35044 0
M  V30 20 H 3.75902 0.40728 -1.61613 0
M  V30 21 H 2.32918 0.873916 0.1932 0
M  V30 22 H 2.22759 -2.16509 0.284934 0
M  V30 23 H 4.69647 -2.22927 0.737254 0
M  V30 24 H 4.88481 -0.419338 0.439649 0
M  V30 25 H 3.00536 -1.66546 2.59346 0
M  V30 26 H 3.15513 0.162203 2.15368 0
M  V30 27 H 0.336063 -1.09166 -0.858031 0
M  V30 28 H -3.42792 1.36824 1.21383 0
M  V30 29 H -2.04671 2.5273 0.882741 0
M  V30 30 H -1.41299 2.17108 2.94666 0
M  V30 31 H -2.49652 0.838602 3.17673 0
M  V30 32 H -1.95009 1.7968 -1.37932 0
M  V30 33 H -3.38148 0.816091 -1.0876 0
M  V30 34 H -1.78261 -1.22357 -1.91617 0
M  V30 35 H -0.777896 0.177469 -2.53127 0
M  V30 36 H -2.45239 0.0463356 -3.06415 0
M  V30 37 H -1.55403 -0.970813 1.78088 0
M  V30 38 H -1.41238 -1.62089 0.106827 0
M  V30 39 H -3.52064 -2.34838 0.762507 0
M  V30 40 H -3.89749 -0.930971 1.78198 0
M  V30 41 H -4.02123 -0.782685 0.00594279 0
M  V30 END ATOM
M  V30 BEGIN BOND
M  V30 1 1 1 2
M  V30 2 1 2 3
M  V30 3 1 3 4
M  V30 4 1 4 5
M  V30 5 1 5 6
M  V30 6 1 3 7
M  V30 7 1 7 8
M  V30 8 2 8 9
M  V30 9 1 8 10
M  V30 10 1 10 11
M  V30 11 1 11 12
M  V30 12 1 10 13
M  V30 13 1 13 14
M  V30 14 1 10 15
M  V30 15 1 15 16
M  V30 16 1 6 4
M  V30 17 1 1 17
M  V30 18 1 1 18
M  V30 19 1 2 19
M  V30 20 1 2 20
M  V30 21 1 3 21
M  V30 22 1 4 22
M  V30 23 1 5 23
M  V30 24 1 5 24
M  V30 25 1 6 25
M  V30 26 1 6 26
M  V30 27 1 7 27
M  V30 28 1 11 28
M  V30 29 1 11 29
M  V30 30 1 12 30
M  V30 31 1 12 31
M  V30 32 1 13 32
M  V30 33 1 13 33
M  V30 34 1 14 34
M  V30 35 1 14 35
M  V30 36 1 14 36
M  V30 37 1 15 37
M  V30 38 1 15 38
M  V30 39 1 16 39
M  V30 40 1 16 40
M  V30 41 1 16 41
M  V30 END BOND
M  V30 END CTAB
M  END
