
     RDKit          3D

  0  0  0  0  0  0  0  0  0  0999 V3000
M  V30 BEGIN CTAB
M  V30 COUNTS 33 34 0 0 0
M  V30 BEGIN ATOM
M  V30 1 C 5.36676 -0.788349 0.261174 0
M  V30 2 N 4.10945 -1.47285 0.181065 0
M  V30 3 C 2.87245 -0.763805 0.253354 0
M  V30 4 N 2.60106 0.52227 0.392763 0
M  V30 5 N 1.44056 0.943024 0.433876 0
M  V30 6 C 0.386695 0.0629261 0.33326 0
M  V30 7 S 1.2905 -1.36996 0.18046 0
M  V30 8 C -0.999937 0.473454 0.263613 0
M  V30 9 N -1.25392 1.75413 0.00643791 0
M  V30 10 N -0.265875 2.66248 -0.187539 0
M  V30 11 C 0.0977879 3.00215 -1.5432 0
M  V30 12 S -0.653101 2.31781 -2.80997 0
M  V30 13 N 1.12555 3.94711 -1.77758 0
M  V30 14 C -2.17535 -0.338393 0.359532 0
M  V30 15 C -3.37926 0.149606 -0.244813 0
M  V30 16 C -4.48524 -0.61617 -0.312933 0
M  V30 17 C -4.53493 -1.90345 0.186728 0
M  V30 18 C -3.39858 -2.36881 0.762026 0
M  V30 19 C -2.21532 -1.60189 0.858611 0
M  V30 20 N -1.17816 -2.20852 1.61377 0
M  V30 21 H 6.11425 -1.39663 0.816299 0
M  V30 22 H 5.27587 0.214599 0.698224 0
M  V30 23 H 5.75167 -0.691578 -0.78696 0
M  V30 24 H 4.13425 -2.50999 0.0678129 0
M  V30 25 H 0.221341 3.12643 0.609581 0
M  V30 26 H 2.09733 3.73845 -1.46329 0
M  V30 27 H 0.926574 4.8421 -2.25633 0
M  V30 28 H -3.34979 1.15252 -0.638914 0
M  V30 29 H -5.37864 -0.188322 -0.787848 0
M  V30 30 H -5.44981 -2.47042 0.101476 0
M  V30 31 H -3.40664 -3.38065 1.16513 0
M  V30 32 H -0.903057 -3.16688 1.3273 0
M  V30 33 H -0.784475 -1.67239 2.40398 0
M  V30 END ATOM
M  V30 BEGIN BOND
M  V30 1 1 1 2
M  V30 2 1 2 3
M  V30 3 2 3 4
M  V30 4 1 4 5
M  V30 5 2 5 6
M  V30 6 1 6 7
M  V30 7 1 6 8
M  V30 8 2 8 9
M  V30 9 1 9 10
M  V30 10 1 10 11
M  V30 11 2 11 12
M  V30 12 1 11 13
M  V30 13 1 8 14
M  V30 14 2 14 15
M  V30 15 1 15 16
M  V30 16 2 16 17
M  V30 17 1 17 18
M  V30 18 2 18 19
M  V30 19 1 19 20
M  V30 20 1 7 3
M  V30 21 1 19 14
M  V30 22 1 1 21
M  V30 23 1 1 22
M  V30 24 1 1 23
M  V30 25 1 2 24
M  V30 26 1 10 25
M  V30 27 1 13 26
M  V30 28 1 13 27
M  V30 29 1 15 28
M  V30 30 1 16 29
M  V30 31 1 17 30
M  V30 32 1 18 31
M  V30 33 1 20 32
M  V30 34 1 20 33
M  V30 END BOND
M  V30 END CTAB
M  END
