
     RDKit          3D

  0  0  0  0  0  0  0  0  0  0999 V3000
M  V30 BEGIN CTAB
M  V30 COUNTS 30 30 0 0 0
M  V30 BEGIN ATOM
M  V30 1 C 5.81626 0.0475792 0.0443623 0
M  V30 2 C 4.51132 -0.709183 0.136746 0
M  V30 3 O 3.46491 0.258391 -0.00484167 0
M  V30 4 C 2.14651 -0.167643 0.0422003 0
M  V30 5 O 1.93359 -1.39606 0.208719 0
M  V30 6 N 1.1238 0.779599 -0.0964223 0
M  V30 7 C -0.227449 0.341571 -0.0480212 0
M  V30 8 C -1.2884 1.19281 -0.173807 0
M  V30 9 C -2.63669 0.796076 -0.131048 0
M  V30 10 N -3.64718 1.76471 -0.272464 0
M  V30 11 N -3.25245 3.10632 -0.452803 0
M  V30 12 C -2.87622 -0.541053 0.0501271 0
M  V30 13 C -1.78266 -1.41173 0.17886 0
M  V30 14 N -2.06854 -2.7829 0.364285 0
M  V30 15 N -0.522634 -0.969516 0.129109 0
M  V30 16 N -4.15574 -1.08212 0.113284 0 CHG=1
M  V30 17 O -4.3126 -2.46737 0.301785 0 CHG=-1
M  V30 18 O -5.22548 -0.475627 0.0209619 0
M  V30 19 H 5.92991 0.600015 1.00105 0
M  V30 20 H 6.69113 -0.615799 -0.0918229 0
M  V30 21 H 5.72954 0.796935 -0.754712 0
M  V30 22 H 4.40603 -1.47929 -0.661433 0
M  V30 23 H 4.35042 -1.16694 1.13788 0
M  V30 24 H 1.33564 1.77343 -0.230805 0
M  V30 25 H -1.05949 2.23887 -0.315166 0
M  V30 26 H -4.63265 1.5824 -0.256016 0
M  V30 27 H -2.7821 3.21709 -1.37442 0
M  V30 28 H -2.60269 3.43652 0.272931 0
M  V30 29 H -2.19158 -3.22255 1.31123 0
M  V30 30 H -2.17453 -3.44452 -0.449749 0
M  V30 END ATOM
M  V30 BEGIN BOND
M  V30 1 1 1 2
M  V30 2 1 2 3
M  V30 3 1 3 4
M  V30 4 2 4 5
M  V30 5 1 4 6
M  V30 6 1 6 7
M  V30 7 2 7 8
M  V30 8 1 8 9
M  V30 9 1 9 10
M  V30 10 1 10 11
M  V30 11 2 9 12
M  V30 12 1 12 13
M  V30 13 1 13 14
M  V30 14 2 13 15
M  V30 15 1 12 16
M  V30 16 1 16 17
M  V30 17 2 16 18
M  V30 18 1 15 7
M  V30 19 1 1 19
M  V30 20 1 1 20
M  V30 21 1 1 21
M  V30 22 1 2 22
M  V30 23 1 2 23
M  V30 24 1 6 24
M  V30 25 1 8 25
M  V30 26 1 10 26
M  V30 27 1 11 27
M  V30 28 1 11 28
M  V30 29 1 14 29
M  V30 30 1 14 30
M  V30 END BOND
M  V30 END CTAB
M  END
