
     RDKit          3D

  0  0  0  0  0  0  0  0  0  0999 V3000
M  V30 BEGIN CTAB
M  V30 COUNTS 27 27 0 0 0
M  V30 BEGIN ATOM
M  V30 1 N 3.90274 -0.0718184 -0.127376 0
M  V30 2 C 3.15679 1.11811 -0.432565 0
M  V30 3 C 2.04426 1.38674 0.549819 0
M  V30 4 C 1.0556 0.290631 0.60036 0
M  V30 5 C 1.14679 -0.790096 1.45303 0
M  V30 6 C 0.20158 -1.79628 1.47108 0
M  V30 7 C -0.866204 -1.70752 0.602525 0
M  V30 8 C -0.955818 -0.624823 -0.250368 0
M  V30 9 C -2.11151 -0.541993 -1.18068 0
M  V30 10 C -3.2068 0.21072 -0.448699 0
M  V30 11 N -4.39575 0.36009 -1.25244 0
M  V30 12 N -0.00602655 0.326036 -0.224851 0
M  V30 13 H 4.47574 0.118163 0.731708 0
M  V30 14 H 4.51005 -0.276884 -0.953774 0
M  V30 15 H 2.74907 1.09154 -1.46035 0
M  V30 16 H 3.8331 2.00553 -0.393434 0
M  V30 17 H 2.50002 1.57321 1.56393 0
M  V30 18 H 1.58262 2.35548 0.262959 0
M  V30 19 H 1.97112 -0.860415 2.12489 0
M  V30 20 H 0.249851 -2.65312 2.12905 0
M  V30 21 H -1.64676 -2.48162 0.57623 0
M  V30 22 H -2.45807 -1.56733 -1.38187 0
M  V30 23 H -1.84236 -0.0405506 -2.11935 0
M  V30 24 H -3.48957 -0.335408 0.468069 0
M  V30 25 H -2.86868 1.21217 -0.147478 0
M  V30 26 H -4.32641 1.24527 -1.80322 0
M  V30 27 H -5.2054 0.454159 -0.601922 0
M  V30 END ATOM
M  V30 BEGIN BOND
M  V30 1 1 1 2
M  V30 2 1 2 3
M  V30 3 1 3 4
M  V30 4 2 4 5
M  V30 5 1 5 6
M  V30 6 2 6 7
M  V30 7 1 7 8
M  V30 8 1 8 9
M  V30 9 1 9 10
M  V30 10 1 10 11
M  V30 11 2 8 12
M  V30 12 1 12 4
M  V30 13 1 1 13
M  V30 14 1 1 14
M  V30 15 1 2 15
M  V30 16 1 2 16
M  V30 17 1 3 17
M  V30 18 1 3 18
M  V30 19 1 5 19
M  V30 20 1 6 20
M  V30 21 1 7 21
M  V30 22 1 9 22
M  V30 23 1 9 23
M  V30 24 1 10 24
M  V30 25 1 10 25
M  V30 26 1 11 26
M  V30 27 1 11 27
M  V30 END BOND
M  V30 END CTAB
M  END
