
     RDKit          3D

  0  0  0  0  0  0  0  0  0  0999 V3000
M  V30 BEGIN CTAB
M  V30 COUNTS 36 38 0 0 0
M  V30 BEGIN ATOM
M  V30 1 N -7.46135 0.187909 -2.52059 0
M  V30 2 C -6.53187 0.193024 -1.83438 0
M  V30 3 C -5.34272 0.209939 -0.988402 0
M  V30 4 C -4.10055 0.00654483 -1.54052 0
M  V30 5 C -2.97725 0.026106 -0.697582 0
M  V30 6 C -3.25459 0.251912 0.617369 0
M  V30 7 N -4.48944 0.449389 1.13355 0
M  V30 8 C -5.58642 0.43516 0.342281 0
M  V30 9 N -6.87758 0.645376 0.89136 0
M  V30 10 S -1.69613 0.210096 1.33503 0
M  V30 11 C -0.768119 -0.0891856 -0.0536411 0
M  V30 12 C -1.69189 -0.151156 -1.05106 0
M  V30 13 N -1.21139 -0.402256 -2.40532 0
M  V30 14 C 0.706302 -0.23538 -0.117855 0
M  V30 15 O 1.26256 -0.441089 -1.21538 0
M  V30 16 N 1.47902 -0.142965 1.05482 0
M  V30 17 C 2.87246 -0.250236 1.13216 0
M  V30 18 C 3.40114 -0.611511 2.36662 0
M  V30 19 C 4.75129 -0.72265 2.54487 0
M  V30 20 C 5.62761 -0.482686 1.51563 0
M  V30 21 C 5.14777 -0.12359 0.283334 0
M  V30 22 C 3.75934 -0.0149399 0.122005 0
M  V30 23 C 6.0077 0.151271 -0.863862 0
M  V30 24 O 6.76027 -0.730186 -1.33187 0
M  V30 25 O 5.94626 1.44037 -1.40791 0
M  V30 26 Cl 7.34282 -0.63353 1.77107 0
M  V30 27 H -4.03961 -0.15993 -2.59962 0
M  V30 28 H -7.48569 -0.104675 1.28608 0
M  V30 29 H -7.26338 1.61664 0.908828 0
M  V30 30 H -1.15414 -1.37519 -2.76327 0
M  V30 31 H -0.950511 0.461147 -2.92973 0
M  V30 32 H 0.938966 0.0289483 1.95753 0
M  V30 33 H 2.72769 -0.811341 3.21 0
M  V30 34 H 5.09494 -1.01513 3.55151 0
M  V30 35 H 3.4175 0.286962 -0.868323 0
M  V30 36 H 5.63902 2.21724 -0.834732 0
M  V30 END ATOM
M  V30 BEGIN BOND
M  V30 1 3 1 2
M  V30 2 1 2 3
M  V30 3 2 3 4
M  V30 4 1 4 5
M  V30 5 2 5 6
M  V30 6 1 6 7
M  V30 7 2 7 8
M  V30 8 1 8 9
M  V30 9 1 6 10
M  V30 10 1 10 11
M  V30 11 2 11 12
M  V30 12 1 12 13
M  V30 13 1 11 14
M  V30 14 2 14 15
M  V30 15 1 14 16
M  V30 16 1 16 17
M  V30 17 2 17 18
M  V30 18 1 18 19
M  V30 19 2 19 20
M  V30 20 1 20 21
M  V30 21 2 21 22
M  V30 22 1 21 23
M  V30 23 2 23 24
M  V30 24 1 23 25
M  V30 25 1 20 26
M  V30 26 1 8 3
M  V30 27 1 22 17
M  V30 28 1 12 5
M  V30 29 1 4 27
M  V30 30 1 9 28
M  V30 31 1 9 29
M  V30 32 1 13 30
M  V30 33 1 13 31
M  V30 34 1 16 32
M  V30 35 1 18 33
M  V30 36 1 19 34
M  V30 37 1 22 35
M  V30 38 1 25 36
M  V30 END BOND
M  V30 END CTAB
M  END
