
     RDKit          3D

  0  0  0  0  0  0  0  0  0  0999 V3000
M  V30 BEGIN CTAB
M  V30 COUNTS 49 52 0 0 0
M  V30 BEGIN ATOM
M  V30 1 N 5.79894 -0.0458744 0.92515 0
M  V30 2 C 5.326 0.816202 -0.0719912 0 CFG=1
M  V30 3 C 5.29466 0.0550761 -1.38008 0
M  V30 4 C 4.13005 -0.896637 -1.09622 0
M  V30 5 N 3.21693 -0.105843 -0.278324 0
M  V30 6 C 3.85754 1.10244 0.151633 0
M  V30 7 C 1.8597 -0.486665 0.0506532 0
M  V30 8 O 1.44698 -1.60888 -0.409727 0
M  V30 9 N 1.09487 0.380253 0.837681 0
M  V30 10 C -0.222149 0.345266 1.31172 0
M  V30 11 C -1.35806 0.497709 0.390184 0
M  V30 12 N -1.21328 1.83064 -0.249801 0
M  V30 13 C -1.60605 -0.450516 -0.70453 0
M  V30 14 C -2.16229 -1.78069 -0.267135 0
M  V30 15 C -3.48411 -1.55528 0.407326 0
M  V30 16 C -3.22111 -0.657496 1.62144 0
M  V30 17 C -2.66301 0.658426 1.20025 0
M  V30 18 C -3.64893 1.36059 0.311618 0
M  V30 19 C -3.90099 0.488991 -0.905432 0
M  V30 20 C -2.65093 0.203858 -1.65599 0
M  V30 21 C -4.48433 -0.819887 -0.444141 0
M  V30 22 H 6.38662 -0.776321 0.672515 0
M  V30 23 H 5.39233 -0.06636 1.80844 0
M  V30 24 H 5.92209 1.7479 -0.148724 0
M  V30 25 H 6.22131 -0.487001 -1.5804 0
M  V30 26 H 5.02362 0.789975 -2.17151 0
M  V30 27 H 3.65665 -1.25234 -2.01861 0
M  V30 28 H 4.55063 -1.7244 -0.486375 0
M  V30 29 H 3.65697 1.37964 1.20948 0
M  V30 30 H 3.54375 1.90321 -0.552776 0
M  V30 31 H 1.66303 1.27697 1.13439 0
M  V30 32 H -0.348082 1.14778 2.10471 0
M  V30 33 H -0.330013 -0.59853 1.95122 0
M  V30 34 H -0.46928 1.78199 -0.980237 0
M  V30 35 H -1.00733 2.52809 0.494819 0
M  V30 36 H -0.711315 -0.542281 -1.35803 0
M  V30 37 H -1.47141 -2.19394 0.492169 0
M  V30 38 H -2.23349 -2.42406 -1.15849 0
M  V30 39 H -3.96226 -2.47404 0.767748 0
M  V30 40 H -4.22066 -0.465758 2.06219 0
M  V30 41 H -2.60441 -1.18469 2.3747 0
M  V30 42 H -2.45847 1.2555 2.10293 0
M  V30 43 H -3.26121 2.36066 0.021497 0
M  V30 44 H -4.63475 1.49514 0.80135 0
M  V30 45 H -4.59644 1.02199 -1.56297 0
M  V30 46 H -2.15093 1.07902 -2.08975 0
M  V30 47 H -2.8627 -0.530807 -2.44768 0
M  V30 48 H -4.7454 -1.39716 -1.35857 0
M  V30 49 H -5.35925 -0.605643 0.171683 0
M  V30 END ATOM
M  V30 BEGIN BOND
M  V30 1 1 1 2
M  V30 2 1 2 3
M  V30 3 1 3 4
M  V30 4 1 4 5
M  V30 5 1 5 6
M  V30 6 1 5 7
M  V30 7 2 7 8
M  V30 8 1 7 9
M  V30 9 1 9 10
M  V30 10 1 10 11
M  V30 11 1 11 12
M  V30 12 1 11 13
M  V30 13 1 13 14
M  V30 14 1 14 15
M  V30 15 1 15 16
M  V30 16 1 16 17
M  V30 17 1 17 18
M  V30 18 1 18 19
M  V30 19 1 19 20
M  V30 20 1 19 21
M  V30 21 1 6 2
M  V30 22 1 17 11
M  V30 23 1 20 13
M  V30 24 1 21 15
M  V30 25 1 1 22
M  V30 26 1 1 23
M  V30 27 1 2 24 CFG=3
M  V30 28 1 3 25
M  V30 29 1 3 26
M  V30 30 1 4 27
M  V30 31 1 4 28
M  V30 32 1 6 29
M  V30 33 1 6 30
M  V30 34 1 9 31
M  V30 35 1 10 32
M  V30 36 1 10 33
M  V30 37 1 12 34
M  V30 38 1 12 35
M  V30 39 1 13 36
M  V30 40 1 14 37
M  V30 41 1 14 38
M  V30 42 1 15 39
M  V30 43 1 16 40
M  V30 44 1 16 41
M  V30 45 1 17 42
M  V30 46 1 18 43
M  V30 47 1 18 44
M  V30 48 1 19 45
M  V30 49 1 20 46
M  V30 50 1 20 47
M  V30 51 1 21 48
M  V30 52 1 21 49
M  V30 END BOND
M  V30 END CTAB
M  END
