
     RDKit          3D

  0  0  0  0  0  0  0  0  0  0999 V3000
M  V30 BEGIN CTAB
M  V30 COUNTS 19 19 0 0 0
M  V30 BEGIN ATOM
M  V30 1 N 3.22101 -0.258125 -0.898004 0
M  V30 2 C 1.88346 -0.0741473 -0.463259 0
M  V30 3 C 1.44663 -0.658348 0.727072 0
M  V30 4 Br 2.70212 -1.69066 1.71775 0
M  V30 5 C 0.155053 -0.46628 1.12341 0
M  V30 6 C -0.721806 0.282622 0.386079 0
M  V30 7 C -0.277064 0.859442 -0.796589 0
M  V30 8 C 1.01784 0.697039 -1.24302 0
M  V30 9 Br 1.60643 1.49808 -2.86955 0
M  V30 10 S -2.38692 0.561623 0.845924 0
M  V30 11 N -3.41287 -0.678255 0.183876 0
M  V30 12 O -2.45003 0.57834 2.33858 0
M  V30 13 O -2.7912 1.91305 0.327521 0
M  V30 14 H 3.45822 -0.112044 -1.8831 0
M  V30 15 H 3.92808 -0.539248 -0.193706 0
M  V30 16 H -0.186595 -0.918485 2.04673 0
M  V30 17 H -0.948973 1.45209 -1.39211 0
M  V30 18 H -3.27589 -1.51481 0.789788 0
M  V30 19 H -2.9675 -0.931875 -0.747407 0
M  V30 END ATOM
M  V30 BEGIN BOND
M  V30 1 1 1 2
M  V30 2 2 2 3
M  V30 3 1 3 4
M  V30 4 1 3 5
M  V30 5 2 5 6
M  V30 6 1 6 7
M  V30 7 2 7 8
M  V30 8 1 8 9
M  V30 9 1 6 10
M  V30 10 1 10 11
M  V30 11 2 10 12
M  V30 12 2 10 13
M  V30 13 1 8 2
M  V30 14 1 1 14
M  V30 15 1 1 15
M  V30 16 1 5 16
M  V30 17 1 7 17
M  V30 18 1 11 18
M  V30 19 1 11 19
M  V30 END BOND
M  V30 END CTAB
M  END
