
     RDKit          3D

  0  0  0  0  0  0  0  0  0  0999 V3000
M  V30 BEGIN CTAB
M  V30 COUNTS 50 52 0 0 0
M  V30 BEGIN ATOM
M  V30 1 N 0.212802 0.439113 4.35958 0
M  V30 2 C 0.374495 0.265232 3.2054 0
M  V30 3 C 0.541379 0.0616411 1.80322 0
M  V30 4 C -0.571216 0.294855 1.02241 0
M  V30 5 S -1.97573 0.792034 1.86553 0
M  V30 6 C -3.41586 1.33873 1.09701 0
M  V30 7 C -4.46056 0.498898 0.737579 0
M  V30 8 C -5.63045 0.931474 0.159456 0
M  V30 9 C -5.79412 2.2871 -0.0870712 0
M  V30 10 C -4.78113 3.18026 0.251375 0
M  V30 11 C -3.63698 2.70263 0.823725 0
M  V30 12 N -2.57974 3.57916 1.18398 0
M  V30 13 S -0.32749 0.0401252 -0.664615 0
M  V30 14 C -1.71276 0.0841167 -1.69972 0
M  V30 15 C -2.19615 1.22153 -2.32756 0
M  V30 16 C -3.27732 1.22959 -3.1806 0
M  V30 17 C -3.92471 0.0299959 -3.42961 0
M  V30 18 C -3.49063 -1.12184 -2.83748 0
M  V30 19 C -2.41916 -1.09872 -1.99884 0
M  V30 20 N -1.95932 -2.2923 -1.37749 0
M  V30 21 N 1.74558 -0.351821 1.20599 0
M  V30 22 C 2.89252 -0.593058 2.00092 0
M  V30 23 O 2.8368 -0.435709 3.25458 0
M  V30 24 C 4.13736 -1.02119 1.3881 0
M  V30 25 C 5.2723 -1.18889 2.18907 0
M  V30 26 C 6.46388 -1.5967 1.63008 0
M  V30 27 C 6.56749 -1.84837 0.275426 0
M  V30 28 C 5.4633 -1.6879 -0.51991 0
M  V30 29 C 4.2586 -1.27461 0.0510732 0
M  V30 30 C 7.87663 -2.28903 -0.296178 0
M  V30 31 H -4.32708 -0.574909 0.934665 0
M  V30 32 H -6.39515 0.196561 -0.0884805 0
M  V30 33 H -6.70378 2.61183 -0.535223 0
M  V30 34 H -4.91927 4.24653 0.0532077 0
M  V30 35 H -2.25761 3.71202 2.16446 0
M  V30 36 H -2.11165 4.1099 0.417766 0
M  V30 37 H -1.6431 2.14377 -2.09231 0
M  V30 38 H -3.61785 2.15378 -3.64963 0
M  V30 39 H -4.7712 0.0520455 -4.10087 0
M  V30 40 H -4.00468 -2.07588 -3.03482 0
M  V30 41 H -1.04389 -2.71458 -1.68512 0
M  V30 42 H -2.54433 -2.70997 -0.637205 0
M  V30 43 H 1.74996 -0.46832 0.169071 0
M  V30 44 H 5.18716 -0.989326 3.25845 0
M  V30 45 H 7.34582 -1.72935 2.24056 0
M  V30 46 H 5.54666 -1.88558 -1.57763 0
M  V30 47 H 3.41991 -1.1664 -0.630901 0
M  V30 48 H 8.64065 -1.53325 0.0372383 0
M  V30 49 H 7.86229 -2.25615 -1.39718 0
M  V30 50 H 8.09735 -3.29909 0.0685155 0
M  V30 END ATOM
M  V30 BEGIN BOND
M  V30 1 3 1 2
M  V30 2 1 2 3
M  V30 3 2 3 4 CFG=2
M  V30 4 1 4 5
M  V30 5 1 5 6
M  V30 6 2 6 7
M  V30 7 1 7 8
M  V30 8 2 8 9
M  V30 9 1 9 10
M  V30 10 2 10 11
M  V30 11 1 11 12
M  V30 12 1 4 13
M  V30 13 1 13 14
M  V30 14 2 14 15
M  V30 15 1 15 16
M  V30 16 2 16 17
M  V30 17 1 17 18
M  V30 18 2 18 19
M  V30 19 1 19 20
M  V30 20 1 3 21
M  V30 21 1 21 22
M  V30 22 2 22 23
M  V30 23 1 22 24
M  V30 24 2 24 25
M  V30 25 1 25 26
M  V30 26 2 26 27
M  V30 27 1 27 28
M  V30 28 2 28 29
M  V30 29 1 27 30
M  V30 30 1 11 6
M  V30 31 1 19 14
M  V30 32 1 29 24
M  V30 33 1 7 31
M  V30 34 1 8 32
M  V30 35 1 9 33
M  V30 36 1 10 34
M  V30 37 1 12 35
M  V30 38 1 12 36
M  V30 39 1 15 37
M  V30 40 1 16 38
M  V30 41 1 17 39
M  V30 42 1 18 40
M  V30 43 1 20 41
M  V30 44 1 20 42
M  V30 45 1 21 43
M  V30 46 1 25 44
M  V30 47 1 26 45
M  V30 48 1 28 46
M  V30 49 1 29 47
M  V30 50 1 30 48
M  V30 51 1 30 49
M  V30 52 1 30 50
M  V30 END BOND
M  V30 END CTAB
M  END
