
     RDKit          3D

  0  0  0  0  0  0  0  0  0  0999 V3000
M  V30 BEGIN CTAB
M  V30 COUNTS 21 21 0 0 0
M  V30 BEGIN ATOM
M  V30 1 C -1.81457 -0.442202 -1.52158 0
M  V30 2 C -1.12203 -0.0236615 -0.291629 0
M  V30 3 C 0.292407 -0.269661 -0.0422119 0
M  V30 4 C 0.818029 -1.59562 -0.0362808 0
M  V30 5 C 2.0902 -1.80332 0.407482 0
M  V30 6 N 2.83487 -0.782524 0.835998 0
M  V30 7 C 2.34451 0.488274 0.841005 0
M  V30 8 C 1.06884 0.74912 0.400382 0
M  V30 9 N 0.589799 2.13266 0.313384 0
M  V30 10 N -1.77861 1.01804 0.497293 0
M  V30 11 H -1.0324 -0.686093 -2.30398 0
M  V30 12 H -2.34493 0.470262 -1.93508 0
M  V30 13 H -2.60171 -1.21539 -1.45311 0
M  V30 14 H -1.56086 -0.968714 0.459338 0
M  V30 15 H 0.157976 -2.41862 -0.355121 0
M  V30 16 H 2.43429 -2.84772 0.438113 0
M  V30 17 H 2.93737 1.30657 1.18871 0
M  V30 18 H 0.610979 2.52959 -0.670237 0
M  V30 19 H 0.274777 2.66179 1.11213 0
M  V30 20 H -1.36148 0.94066 1.47932 0
M  V30 21 H -2.83747 0.756574 0.636075 0
M  V30 END ATOM
M  V30 BEGIN BOND
M  V30 1 1 1 2
M  V30 2 1 2 3
M  V30 3 2 3 4
M  V30 4 1 4 5
M  V30 5 2 5 6
M  V30 6 1 6 7
M  V30 7 2 7 8
M  V30 8 1 8 9
M  V30 9 1 2 10
M  V30 10 1 8 3
M  V30 11 1 1 11
M  V30 12 1 1 12
M  V30 13 1 1 13
M  V30 14 1 2 14
M  V30 15 1 4 15
M  V30 16 1 5 16
M  V30 17 1 7 17
M  V30 18 1 9 18
M  V30 19 1 9 19
M  V30 20 1 10 20
M  V30 21 1 10 21
M  V30 END BOND
M  V30 END CTAB
M  END
