
     RDKit          3D

  0  0  0  0  0  0  0  0  0  0999 V3000
M  V30 BEGIN CTAB
M  V30 COUNTS 41 43 0 0 0
M  V30 BEGIN ATOM
M  V30 1 C 7.18533 -1.57382 0.172804 0
M  V30 2 S 6.7394 -0.443311 1.52061 0
M  V30 3 C 6.40483 1.19072 0.856383 0
M  V30 4 C 5.20034 1.22908 -0.00871778 0
M  V30 5 N 5.13412 1.03044 -1.3462 0
M  V30 6 O 3.88394 1.14667 -1.74964 0
M  V30 7 C 3.14067 1.41418 -0.714137 0
M  V30 8 N 3.93913 1.46842 0.369 0
M  V30 9 C 1.67038 1.64017 -0.613189 0
M  V30 10 N 0.974272 0.390508 -0.393408 0
M  V30 11 C -0.441574 0.414798 -0.260651 0
M  V30 12 C -1.17994 -0.731718 -0.0510629 0
M  V30 13 C -2.54978 -0.649498 0.0729206 0
M  V30 14 N -3.11991 0.562353 -0.0167598 0
M  V30 15 C -2.43355 1.70539 -0.220879 0
M  V30 16 N -1.09883 1.58661 -0.337032 0
M  V30 17 N -3.07751 2.96962 -0.309271 0
M  V30 18 C -3.3761 -1.88895 0.302218 0
M  V30 19 C -4.51086 -1.97469 -0.68084 0
M  V30 20 C -5.50958 -1.76149 0.41382 0
M  V30 21 C -4.37368 -1.7478 1.42479 0
M  V30 22 N -6.2332 -0.514244 0.337833 0
M  V30 23 H 8.07545 -2.16268 0.477775 0
M  V30 24 H 6.30109 -2.22436 0.000810152 0
M  V30 25 H 7.4025 -1.01437 -0.742935 0
M  V30 26 H 7.2786 1.58614 0.263076 0
M  V30 27 H 6.26081 1.93157 1.67141 0
M  V30 28 H 1.31599 2.10296 -1.57272 0
M  V30 29 H 1.42461 2.33025 0.222211 0
M  V30 30 H 1.526 -0.487679 -0.33854 0
M  V30 31 H -0.642447 -1.66386 0.00806751 0
M  V30 32 H -2.56049 3.84613 -0.0962843 0
M  V30 33 H -4.07741 3.04124 -0.588447 0
M  V30 34 H -2.73912 -2.76967 0.327775 0
M  V30 35 H -4.58224 -2.92689 -1.22768 0
M  V30 36 H -4.54287 -1.11839 -1.40903 0
M  V30 37 H -6.13241 -2.66875 0.565495 0
M  V30 38 H -4.22601 -0.801635 1.95884 0
M  V30 39 H -4.39742 -2.59965 2.14795 0
M  V30 40 H -5.96896 0.146046 1.12398 0
M  V30 41 H -6.08357 -0.00983258 -0.564175 0
M  V30 END ATOM
M  V30 BEGIN BOND
M  V30 1 1 1 2
M  V30 2 1 2 3
M  V30 3 1 3 4
M  V30 4 2 4 5
M  V30 5 1 5 6
M  V30 6 1 6 7
M  V30 7 2 7 8
M  V30 8 1 7 9
M  V30 9 1 9 10
M  V30 10 1 10 11
M  V30 11 2 11 12
M  V30 12 1 12 13
M  V30 13 2 13 14
M  V30 14 1 14 15
M  V30 15 2 15 16
M  V30 16 1 15 17
M  V30 17 1 13 18
M  V30 18 1 18 19
M  V30 19 1 19 20
M  V30 20 1 20 21
M  V30 21 1 20 22
M  V30 22 1 8 4
M  V30 23 1 16 11
M  V30 24 1 21 18
M  V30 25 1 1 23
M  V30 26 1 1 24
M  V30 27 1 1 25
M  V30 28 1 3 26
M  V30 29 1 3 27
M  V30 30 1 9 28
M  V30 31 1 9 29
M  V30 32 1 10 30
M  V30 33 1 12 31
M  V30 34 1 17 32
M  V30 35 1 17 33
M  V30 36 1 18 34
M  V30 37 1 19 35
M  V30 38 1 19 36
M  V30 39 1 20 37
M  V30 40 1 21 38
M  V30 41 1 21 39
M  V30 42 1 22 40
M  V30 43 1 22 41
M  V30 END BOND
M  V30 END CTAB
M  END
