
     RDKit          3D

  0  0  0  0  0  0  0  0  0  0999 V3000
M  V30 BEGIN CTAB
M  V30 COUNTS 87 90 0 0 0
M  V30 BEGIN ATOM
M  V30 1 C 1.57993 -0.557065 -0.625101 0 CFG=2
M  V30 2 O 2.45956 -1.21995 0.220835 0
M  V30 3 C 3.36103 -2.03819 -0.37685 0 CFG=1
M  V30 4 O 4.64604 -1.50506 -0.119712 0
M  V30 5 C 5.70096 -2.15425 0.449515 0
M  V30 6 C 6.76773 -1.49481 1.25071 0
M  V30 7 N 7.51202 -0.500353 0.560055 0
M  V30 8 C 6.80494 0.692075 0.215458 0
M  V30 9 C 7.82328 1.60006 -0.494615 0
M  V30 10 O 7.19755 2.78837 -0.861624 0
M  V30 11 C 5.75025 -3.4861 0.25396 0
M  V30 12 C 4.65605 -4.07602 -0.550885 0
M  V30 13 C 3.36447 -3.47448 0.0348133 0 CFG=1
M  V30 14 N 3.49666 -3.62 1.48373 0
M  V30 15 C 1.84612 0.910404 -0.620172 0 CFG=1
M  V30 16 N 3.03199 1.26874 -1.3627 0
M  V30 17 C 0.690171 1.59914 -1.3115 0
M  V30 18 C -0.482266 1.3913 -0.342677 0 CFG=1
M  V30 19 N -1.51196 2.34992 -0.584591 0
M  V30 20 C -1.63809 3.55546 0.175115 0
M  V30 21 O -0.784166 3.7345 1.08919 0
M  V30 22 C -2.65817 4.58146 -0.0239481 0
M  V30 23 O -2.45819 5.73627 0.745646 0
M  V30 24 C -4.10645 4.1228 -0.00931811 0
M  V30 25 N -4.37651 5.12318 -1.03422 0
M  V30 26 C -2.98307 4.95548 -1.45157 0
M  V30 27 C -0.914817 -0.0270559 -0.492148 0 CFG=2
M  V30 28 O -1.82889 -0.298589 0.433875 0
M  V30 29 C -3.06262 -0.750652 0.143956 0 CFG=1
M  V30 30 O -3.09147 -2.1101 0.420058 0
M  V30 31 C -3.82062 -2.43543 1.52745 0
M  V30 32 C -5.30782 -2.22597 1.27245 0 CFG=2
M  V30 33 C -5.95133 -2.04475 2.62391 0
M  V30 34 O -5.91921 -3.32538 0.685404 0
M  V30 35 C -5.50612 -0.949502 0.477675 0 CFG=2
M  V30 36 N -5.81546 -1.32704 -0.873075 0
M  V30 37 C -5.97686 -0.184249 -1.74707 0
M  V30 38 C -4.25979 -0.0638828 0.552781 0 CFG=1
M  V30 39 O -4.26747 0.474008 1.84093 0
M  V30 40 C 0.223304 -1.00706 -0.298985 0 CFG=1
M  V30 41 O -0.0790157 -2.14892 -1.03908 0
M  V30 42 H 1.84982 -0.904284 -1.66509 0
M  V30 43 H 3.27179 -2.0492 -1.50367 0
M  V30 44 H 7.47811 -2.26867 1.6117 0
M  V30 45 H 6.29036 -1.06346 2.17673 0
M  V30 46 H 8.41388 -0.349381 1.0311 0
M  V30 47 H 5.99763 0.4725 -0.515838 0
M  V30 48 H 6.376 1.2066 1.08989 0
M  V30 49 H 8.62565 1.78003 0.230393 0
M  V30 50 H 8.14193 1.10176 -1.43444 0
M  V30 51 H 6.41624 2.90706 -0.231549 0
M  V30 52 H 6.56067 -4.05436 0.676783 0
M  V30 53 H 4.7473 -3.68516 -1.58296 0
M  V30 54 H 4.63931 -5.18271 -0.489978 0
M  V30 55 H 2.55077 -4.08251 -0.350875 0
M  V30 56 H 3.96908 -4.53817 1.64296 0
M  V30 57 H 2.54757 -3.70179 1.93669 0
M  V30 58 H 1.94376 1.25627 0.433273 0
M  V30 59 H 3.68071 1.82517 -0.745178 0
M  V30 60 H 2.85554 1.82545 -2.21614 0
M  V30 61 H 0.935563 2.64648 -1.45446 0
M  V30 62 H 0.4585 1.07818 -2.24049 0
M  V30 63 H -0.0486003 1.54734 0.670926 0
M  V30 64 H -2.21324 2.19064 -1.33522 0
M  V30 65 H -2.0693 6.41605 0.129222 0
M  V30 66 H -4.55506 4.44092 0.956931 0
M  V30 67 H -4.24185 3.09601 -0.32983 0
M  V30 68 H -4.52016 6.07502 -0.614929 0
M  V30 69 H -2.95756 4.09228 -2.15545 0
M  V30 70 H -2.51547 5.88341 -1.82182 0
M  V30 71 H -1.21864 -0.157435 -1.55663 0
M  V30 72 H -3.05309 -0.74194 -1.00998 0
M  V30 73 H -3.71097 -3.55552 1.65337 0
M  V30 74 H -3.44336 -1.96445 2.42645 0
M  V30 75 H -6.18603 -3.0747 3.01592 0
M  V30 76 H -6.83651 -1.39553 2.591 0
M  V30 77 H -5.18313 -1.64013 3.34762 0
M  V30 78 H -6.33624 -3.87959 1.36305 0
M  V30 79 H -6.39955 -0.446623 0.896983 0
M  V30 80 H -5.09613 -1.9496 -1.26423 0
M  V30 81 H -6.27634 0.726677 -1.18819 0
M  V30 82 H -6.7668 -0.333946 -2.50684 0
M  V30 83 H -5.01906 -0.0373179 -2.28219 0
M  V30 84 H -4.49421 0.755537 -0.197696 0
M  V30 85 H -4.88273 1.24538 1.83001 0
M  V30 86 H 0.195953 -1.37199 0.773646 0
M  V30 87 H -0.0338127 -1.99859 -2.02868 0
M  V30 END ATOM
M  V30 BEGIN BOND
M  V30 1 1 1 2
M  V30 2 1 2 3
M  V30 3 1 3 4
M  V30 4 1 4 5
M  V30 5 1 5 6
M  V30 6 1 6 7
M  V30 7 1 7 8
M  V30 8 1 8 9
M  V30 9 1 9 10
M  V30 10 2 5 11
M  V30 11 1 11 12
M  V30 12 1 12 13
M  V30 13 1 13 14
M  V30 14 1 1 15
M  V30 15 1 15 16
M  V30 16 1 15 17
M  V30 17 1 17 18
M  V30 18 1 18 19
M  V30 19 1 19 20
M  V30 20 2 20 21
M  V30 21 1 20 22
M  V30 22 1 22 23
M  V30 23 1 22 24
M  V30 24 1 24 25
M  V30 25 1 25 26
M  V30 26 1 18 27
M  V30 27 1 27 28
M  V30 28 1 28 29
M  V30 29 1 29 30
M  V30 30 1 30 31
M  V30 31 1 31 32
M  V30 32 1 32 33
M  V30 33 1 32 34 CFG=3
M  V30 34 1 32 35
M  V30 35 1 35 36
M  V30 36 1 36 37
M  V30 37 1 35 38
M  V30 38 1 38 39
M  V30 39 1 27 40
M  V30 40 1 40 41
M  V30 41 1 40 1
M  V30 42 1 13 3
M  V30 43 1 26 22
M  V30 44 1 38 29
M  V30 45 1 1 42 CFG=3
M  V30 46 1 3 43 CFG=3
M  V30 47 1 6 44
M  V30 48 1 6 45
M  V30 49 1 7 46
M  V30 50 1 8 47
M  V30 51 1 8 48
M  V30 52 1 9 49
M  V30 53 1 9 50
M  V30 54 1 10 51
M  V30 55 1 11 52
M  V30 56 1 12 53
M  V30 57 1 12 54
M  V30 58 1 13 55 CFG=3
M  V30 59 1 14 56
M  V30 60 1 14 57
M  V30 61 1 15 58 CFG=1
M  V30 62 1 16 59
M  V30 63 1 16 60
M  V30 64 1 17 61
M  V30 65 1 17 62
M  V30 66 1 18 63 CFG=1
M  V30 67 1 19 64
M  V30 68 1 23 65
M  V30 69 1 24 66
M  V30 70 1 24 67
M  V30 71 1 25 68
M  V30 72 1 26 69
M  V30 73 1 26 70
M  V30 74 1 27 71 CFG=3
M  V30 75 1 29 72 CFG=3
M  V30 76 1 31 73
M  V30 77 1 31 74
M  V30 78 1 33 75
M  V30 79 1 33 76
M  V30 80 1 33 77
M  V30 81 1 34 78
M  V30 82 1 35 79 CFG=1
M  V30 83 1 36 80
M  V30 84 1 37 81
M  V30 85 1 37 82
M  V30 86 1 37 83
M  V30 87 1 38 84 CFG=3
M  V30 88 1 39 85
M  V30 89 1 40 86 CFG=1
M  V30 90 1 41 87
M  V30 END BOND
M  V30 END CTAB
M  END
