
     RDKit          3D

  0  0  0  0  0  0  0  0  0  0999 V3000
M  V30 BEGIN CTAB
M  V30 COUNTS 40 43 0 0 0
M  V30 BEGIN ATOM
M  V30 1 O 1.56727 -0.949406 -2.89333 0
M  V30 2 C 0.95656 -1.08047 -1.80764 0
M  V30 3 C -0.350447 -1.80156 -1.55011 0
M  V30 4 N -0.832064 -0.925515 -0.45903 0
M  V30 5 C 0.323947 -0.478961 0.219995 0
M  V30 6 C 1.38885 -0.551607 -0.530035 0
M  V30 7 C 2.75662 -0.171288 -0.155475 0
M  V30 8 N 3.70265 0.392087 -0.856407 0
M  V30 9 C 4.86501 0.651714 -0.331927 0
M  V30 10 C 5.05247 0.310102 0.980625 0
M  V30 11 S 3.53412 -0.367516 1.37953 0
M  V30 12 C 6.26616 0.546875 1.63911 0
M  V30 13 C 7.33089 1.13682 0.993223 0
M  V30 14 C 7.13766 1.47934 -0.329113 0
M  V30 15 C 5.95961 1.25258 -0.978359 0
M  V30 16 N 0.336273 -0.0156066 1.56123 0
M  V30 17 C -2.20935 -0.685015 -0.256605 0
M  V30 18 C -2.65161 0.273822 0.607676 0
M  V30 19 C -4.00538 0.510268 0.816868 0
M  V30 20 C -4.95844 -0.221875 0.152319 0
M  V30 21 C -4.53625 -1.19395 -0.724216 0
M  V30 22 C -3.18856 -1.4124 -0.917037 0
M  V30 23 S -6.68216 0.0803265 0.417452 0
M  V30 24 O -7.44705 -1.18423 0.187 0
M  V30 25 O -6.89931 0.627476 1.79735 0
M  V30 26 N -7.17222 1.27579 -0.725797 0
M  V30 27 H -1.04217 -1.64863 -2.39748 0
M  V30 28 H -0.204382 -2.82892 -1.23087 0
M  V30 29 H 6.31434 0.243324 2.66743 0
M  V30 30 H 8.26676 1.32501 1.48289 0
M  V30 31 H 7.96835 1.95877 -0.895924 0
M  V30 32 H 5.89804 1.5577 -2.02904 0
M  V30 33 H 0.529111 0.991342 1.71416 0
M  V30 34 H 0.164454 -0.621587 2.39318 0
M  V30 35 H -1.9776 0.896079 1.16447 0
M  V30 36 H -4.34683 1.26876 1.50107 0
M  V30 37 H -5.266 -1.78378 -1.25853 0
M  V30 38 H -2.84342 -2.18774 -1.61643 0
M  V30 39 H -6.95908 2.24843 -0.398349 0
M  V30 40 H -6.74686 1.08346 -1.65134 0
M  V30 END ATOM
M  V30 BEGIN BOND
M  V30 1 2 1 2
M  V30 2 1 2 3
M  V30 3 1 3 4
M  V30 4 1 4 5
M  V30 5 2 5 6
M  V30 6 1 6 7
M  V30 7 2 7 8
M  V30 8 1 8 9
M  V30 9 2 9 10
M  V30 10 1 10 11
M  V30 11 1 10 12
M  V30 12 2 12 13
M  V30 13 1 13 14
M  V30 14 2 14 15
M  V30 15 1 5 16
M  V30 16 1 4 17
M  V30 17 2 17 18
M  V30 18 1 18 19
M  V30 19 2 19 20
M  V30 20 1 20 21
M  V30 21 2 21 22
M  V30 22 1 20 23
M  V30 23 2 23 24
M  V30 24 2 23 25
M  V30 25 1 23 26
M  V30 26 1 6 2
M  V30 27 1 11 7
M  V30 28 1 22 17
M  V30 29 1 15 9
M  V30 30 1 3 27
M  V30 31 1 3 28
M  V30 32 1 12 29
M  V30 33 1 13 30
M  V30 34 1 14 31
M  V30 35 1 15 32
M  V30 36 1 16 33
M  V30 37 1 16 34
M  V30 38 1 18 35
M  V30 39 1 19 36
M  V30 40 1 21 37
M  V30 41 1 22 38
M  V30 42 1 26 39
M  V30 43 1 26 40
M  V30 END BOND
M  V30 END CTAB
M  END
