
     RDKit          3D

  0  0  0  0  0  0  0  0  0  0999 V3000
M  V30 BEGIN CTAB
M  V30 COUNTS 36 38 0 0 0
M  V30 BEGIN ATOM
M  V30 1 N -6.86581 0.979028 -0.675401 0
M  V30 2 C -5.60726 0.516954 -0.208641 0
M  V30 3 N -4.52666 1.2949 -0.395158 0
M  V30 4 C -3.29941 0.89564 0.0340073 0
M  V30 5 C -2.09525 1.73941 -0.160793 0
M  V30 6 S -1.2949 1.36846 -1.73799 0
M  V30 7 C -0.613102 -0.29183 -1.75083 0
M  V30 8 C 0.508538 -0.350589 -0.767949 0
M  V30 9 O 0.372112 -0.662696 0.489813 0
M  V30 10 N 1.52304 -0.624282 1.06809 0
M  V30 11 C 2.48546 -0.27851 0.199187 0
M  V30 12 C 1.83792 -0.0977629 -0.997761 0
M  V30 13 C 3.90707 -0.131694 0.477612 0
M  V30 14 C 4.79004 0.224389 -0.494514 0
M  V30 15 C 6.12988 0.345013 -0.165936 0
M  V30 16 C 6.60864 0.118564 1.11051 0
M  V30 17 C 5.70108 -0.242686 2.0895 0
M  V30 18 C 4.37604 -0.359608 1.75399 0
M  V30 19 N -3.18726 -0.285798 0.645262 0
M  V30 20 C -4.24392 -1.09708 0.853012 0
M  V30 21 N -5.44484 -0.673403 0.416621 0
M  V30 22 N -4.05404 -2.33616 1.50871 0
M  V30 23 H -7.42499 1.58997 -0.0460554 0
M  V30 24 H -7.23468 0.734563 -1.59561 0
M  V30 25 H -2.42745 2.79343 -0.182366 0
M  V30 26 H -1.40986 1.59669 0.701602 0
M  V30 27 H -0.145654 -0.475124 -2.75295 0
M  V30 28 H -1.37361 -1.07247 -1.51986 0
M  V30 29 H 2.27871 0.189225 -1.94763 0
M  V30 30 H 4.48883 0.413462 -1.50494 0
M  V30 31 H 6.86457 0.631343 -0.931387 0
M  V30 32 H 7.66484 0.218509 1.3489 0
M  V30 33 H 6.05958 -0.421305 3.09001 0
M  V30 34 H 3.64126 -0.644275 2.51047 0
M  V30 35 H -3.36241 -2.4569 2.27018 0
M  V30 36 H -4.62649 -3.14737 1.21652 0
M  V30 END ATOM
M  V30 BEGIN BOND
M  V30 1 1 1 2
M  V30 2 2 2 3
M  V30 3 1 3 4
M  V30 4 1 4 5
M  V30 5 1 5 6
M  V30 6 1 6 7
M  V30 7 1 7 8
M  V30 8 1 8 9
M  V30 9 1 9 10
M  V30 10 2 10 11
M  V30 11 1 11 12
M  V30 12 1 11 13
M  V30 13 2 13 14
M  V30 14 1 14 15
M  V30 15 2 15 16
M  V30 16 1 16 17
M  V30 17 2 17 18
M  V30 18 2 4 19
M  V30 19 1 19 20
M  V30 20 2 20 21
M  V30 21 1 20 22
M  V30 22 1 21 2
M  V30 23 2 12 8
M  V30 24 1 18 13
M  V30 25 1 1 23
M  V30 26 1 1 24
M  V30 27 1 5 25
M  V30 28 1 5 26
M  V30 29 1 7 27
M  V30 30 1 7 28
M  V30 31 1 12 29
M  V30 32 1 14 30
M  V30 33 1 15 31
M  V30 34 1 16 32
M  V30 35 1 17 33
M  V30 36 1 18 34
M  V30 37 1 22 35
M  V30 38 1 22 36
M  V30 END BOND
M  V30 END CTAB
M  END
