
     RDKit          3D

  0  0  0  0  0  0  0  0  0  0999 V3000
M  V30 BEGIN CTAB
M  V30 COUNTS 28 28 0 0 0
M  V30 BEGIN ATOM
M  V30 1 O -1.20792 2.21225 0.977071 0
M  V30 2 C 0.0156997 1.51523 1.00697 0
M  V30 3 C 0.0732959 0.669002 -0.246617 0
M  V30 4 C -1.13305 -0.183666 -0.334722 0
M  V30 5 C -1.16695 -1.34896 0.410813 0
M  V30 6 C -2.26604 -2.18039 0.366289 0
M  V30 7 C -3.32733 -1.82222 -0.437608 0
M  V30 8 C -3.29506 -0.665712 -1.17826 0
M  V30 9 C -2.19749 0.168111 -1.13611 0
M  V30 10 N 1.29025 -0.0956372 -0.326814 0
M  V30 11 C 2.56963 0.505239 -0.355411 0
M  V30 12 N 3.60855 0.0504356 0.239547 0
M  V30 13 N 3.66905 -1.09033 1.00486 0
M  V30 14 N 2.74264 1.70709 -1.09408 0
M  V30 15 H -1.46849 2.44585 1.90886 0
M  V30 16 H 0.800486 2.29718 1.00152 0
M  V30 17 H 0.115626 0.886559 1.90262 0
M  V30 18 H 0.0465182 1.37957 -1.11101 0
M  V30 19 H -0.333399 -1.65175 1.05627 0
M  V30 20 H -2.28396 -3.10349 0.961673 0
M  V30 21 H -4.19587 -2.48386 -0.469789 0
M  V30 22 H -4.12528 -0.366889 -1.81932 0
M  V30 23 H -2.17242 1.08515 -1.72369 0
M  V30 24 H 1.2344 -1.13047 -0.36556 0
M  V30 25 H 3.00091 -1.22452 1.77868 0
M  V30 26 H 4.41389 -1.79862 0.76381 0
M  V30 27 H 2.97694 2.60967 -0.637236 0
M  V30 28 H 2.61537 1.61519 -2.14277 0
M  V30 END ATOM
M  V30 BEGIN BOND
M  V30 1 1 1 2
M  V30 2 1 2 3
M  V30 3 1 3 4
M  V30 4 2 4 5
M  V30 5 1 5 6
M  V30 6 2 6 7
M  V30 7 1 7 8
M  V30 8 2 8 9
M  V30 9 1 3 10
M  V30 10 1 10 11
M  V30 11 2 11 12 CFG=2
M  V30 12 1 12 13
M  V30 13 1 11 14
M  V30 14 1 9 4
M  V30 15 1 1 15
M  V30 16 1 2 16
M  V30 17 1 2 17
M  V30 18 1 3 18
M  V30 19 1 5 19
M  V30 20 1 6 20
M  V30 21 1 7 21
M  V30 22 1 8 22
M  V30 23 1 9 23
M  V30 24 1 10 24
M  V30 25 1 13 25
M  V30 26 1 13 26
M  V30 27 1 14 27
M  V30 28 1 14 28
M  V30 END BOND
M  V30 END CTAB
M  END
