
     RDKit          3D

  0  0  0  0  0  0  0  0  0  0999 V3000
M  V30 BEGIN CTAB
M  V30 COUNTS 29 31 0 0 0
M  V30 BEGIN ATOM
M  V30 1 N -0.0234947 0.385753 -2.04472 0
M  V30 2 C 0.300534 0.307324 -0.60528 0
M  V30 3 C -0.381314 -0.985652 -0.0967349 0
M  V30 4 C -1.55348 -0.136932 0.179654 0
M  V30 5 C -0.6715 1.06964 0.24155 0
M  V30 6 C -2.43937 -0.465593 1.29904 0
M  V30 7 C -3.61649 -0.135661 0.408356 0
M  V30 8 C -2.69179 -0.159792 -0.774636 0
M  V30 9 C 1.73143 0.331595 -0.328549 0
M  V30 10 N 2.65299 0.782528 -1.20782 0
M  V30 11 N 3.8703 0.648979 -0.701816 0
M  V30 12 C 3.73847 0.107127 0.508918 0
M  V30 13 N 2.42391 -0.0735147 0.714686 0
M  V30 14 N 4.71614 -0.255518 1.48144 0
M  V30 15 H 0.869376 0.307698 -2.61526 0
M  V30 16 H -0.535537 1.26015 -2.27446 0
M  V30 17 H -0.417655 -1.77015 -0.826808 0
M  V30 18 H 0.115708 -1.31502 0.864248 0
M  V30 19 H -1.10938 1.97673 -0.210519 0
M  V30 20 H -0.308165 1.28925 1.25792 0
M  V30 21 H -2.39777 0.240673 2.16701 0
M  V30 22 H -2.38347 -1.5378 1.57601 0
M  V30 23 H -4.0299 0.877456 0.544522 0
M  V30 24 H -4.39758 -0.904895 0.397919 0
M  V30 25 H -2.80444 0.648416 -1.50967 0
M  V30 26 H -2.72249 -1.21528 -1.21819 0
M  V30 27 H 1.94543 -0.484178 1.5658 0
M  V30 28 H 4.85468 0.305775 2.31462 0
M  V30 29 H 5.26485 -1.0991 1.29087 0
M  V30 END ATOM
M  V30 BEGIN BOND
M  V30 1 1 1 2
M  V30 2 1 2 3
M  V30 3 1 3 4
M  V30 4 1 4 5
M  V30 5 1 4 6
M  V30 6 1 6 7
M  V30 7 1 7 8
M  V30 8 1 2 9
M  V30 9 2 9 10
M  V30 10 1 10 11
M  V30 11 2 11 12
M  V30 12 1 12 13
M  V30 13 1 12 14
M  V30 14 1 5 2
M  V30 15 1 13 9
M  V30 16 1 8 4
M  V30 17 1 1 15
M  V30 18 1 1 16
M  V30 19 1 3 17
M  V30 20 1 3 18
M  V30 21 1 5 19
M  V30 22 1 5 20
M  V30 23 1 6 21
M  V30 24 1 6 22
M  V30 25 1 7 23
M  V30 26 1 7 24
M  V30 27 1 8 25
M  V30 28 1 8 26
M  V30 29 1 13 27
M  V30 30 1 14 28
M  V30 31 1 14 29
M  V30 END BOND
M  V30 END CTAB
M  END
