
     RDKit          3D

  0  0  0  0  0  0  0  0  0  0999 V3000
M  V30 BEGIN CTAB
M  V30 COUNTS 16 16 0 0 0
M  V30 BEGIN ATOM
M  V30 1 N -2.28196 0.379932 0.0379582 0
M  V30 2 C -0.867741 0.330501 0.0518005 0
M  V30 3 C -0.13138 1.46658 0.270232 0
M  V30 4 C 1.24685 1.35531 0.272257 0
M  V30 5 C 1.821 0.119842 0.056925 0
M  V30 6 N 1.05897 -0.969125 -0.15335 0
M  V30 7 C -0.289287 -0.916831 -0.165618 0
M  V30 8 N -1.09664 -2.0625 -0.386929 0
M  V30 9 C 3.26213 -0.00957493 0.0566689 0
M  V30 10 N 4.41716 -0.105324 0.0574512 0
M  V30 11 H -2.7501 0.234465 -0.884168 0
M  V30 12 H -2.86417 0.546779 0.86292 0
M  V30 13 H -0.616665 2.4193 0.435623 0
M  V30 14 H 1.89571 2.21233 0.438518 0
M  V30 15 H -0.891071 -2.71748 -1.1676 0
M  V30 16 H -1.9128 -2.28421 0.217308 0
M  V30 END ATOM
M  V30 BEGIN BOND
M  V30 1 1 1 2
M  V30 2 2 2 3
M  V30 3 1 3 4
M  V30 4 2 4 5
M  V30 5 1 5 6
M  V30 6 2 6 7
M  V30 7 1 7 8
M  V30 8 1 5 9
M  V30 9 3 9 10
M  V30 10 1 7 2
M  V30 11 1 1 11
M  V30 12 1 1 12
M  V30 13 1 3 13
M  V30 14 1 4 14
M  V30 15 1 8 15
M  V30 16 1 8 16
M  V30 END BOND
M  V30 END CTAB
M  END
