
     RDKit          3D

  0  0  0  0  0  0  0  0  0  0999 V3000
M  V30 BEGIN CTAB
M  V30 COUNTS 51 55 0 0 0
M  V30 BEGIN ATOM
M  V30 1 F -8.1567 0.45684 -0.672614 0
M  V30 2 C -7.1544 -0.253589 -0.0521302 0
M  V30 3 C -7.48129 -1.35858 0.710141 0
M  V30 4 C -6.50198 -2.08964 1.3435 0
M  V30 5 C -5.15927 -1.71596 1.2187 0
M  V30 6 C -4.84089 -0.62607 0.465493 0
M  V30 7 C -5.84136 0.105948 -0.17037 0
M  V30 8 N -3.52041 -0.194863 0.260104 0
M  V30 9 C -2.35631 -0.977862 0.384014 0
M  V30 10 O -2.42291 -2.19567 0.699203 0
M  V30 11 C -0.996663 -0.441242 0.158347 0
M  V30 12 C 0.156171 -1.22763 0.283851 0
M  V30 13 N 0.239534 -2.6141 0.632258 0
M  V30 14 N 1.17673 -0.397303 0.0053695 0
M  V30 15 C 0.753277 0.839727 -0.282723 0
M  V30 16 C -0.624197 0.836443 -0.192036 0
M  V30 17 N -1.27404 1.98062 -0.441664 0
M  V30 18 C -0.660526 3.12655 -0.774145 0
M  V30 19 C -1.36679 4.29944 -1.02742 0
M  V30 20 C -0.722556 5.47048 -1.36832 0
M  V30 21 C 0.667852 5.45784 -1.45578 0
M  V30 22 C 1.37713 4.2868 -1.20317 0
M  V30 23 C 0.715233 3.12593 -0.863723 0
M  V30 24 N 1.39935 1.99444 -0.619566 0
M  V30 25 C 2.52806 -0.786785 0.0166455 0
M  V30 26 C 3.31531 -0.492344 1.09685 0
M  V30 27 C 4.6502 -0.856409 1.15059 0
M  V30 28 C 5.18087 -1.53952 0.0632404 0
M  V30 29 C 4.41756 -1.85453 -1.04492 0
M  V30 30 C 3.07248 -1.46065 -1.04338 0
M  V30 31 S 6.87353 -1.99022 0.153953 0
M  V30 32 O 7.51006 -1.97999 -1.20604 0
M  V30 33 O 7.58584 -0.981073 1.00648 0
M  V30 34 N 7.04539 -3.53262 0.864874 0
M  V30 35 H -8.52526 -1.61004 0.778974 0
M  V30 36 H -6.7552 -2.95498 1.94077 0
M  V30 37 H -4.43267 -2.32444 1.75615 0
M  V30 38 H -5.60506 0.97689 -0.774037 0
M  V30 39 H -3.40803 0.832013 -0.0098699 0
M  V30 40 H -0.20473 -2.92475 1.51439 0
M  V30 41 H 0.723572 -3.2788 0.0280053 0
M  V30 42 H -2.45308 4.28311 -0.952399 0
M  V30 43 H -1.25256 6.40294 -1.57173 0
M  V30 44 H 1.15687 6.38543 -1.72442 0
M  V30 45 H 2.45335 4.33897 -1.28669 0
M  V30 46 H 2.93119 0.0444218 1.97102 0
M  V30 47 H 5.24346 -0.608422 2.01837 0
M  V30 48 H 4.86689 -2.3865 -1.86997 0
M  V30 49 H 2.50769 -1.72254 -1.92266 0
M  V30 50 H 6.46597 -3.56357 1.7456 0
M  V30 51 H 6.70329 -4.30415 0.26287 0
M  V30 END ATOM
M  V30 BEGIN BOND
M  V30 1 1 1 2
M  V30 2 2 2 3
M  V30 3 1 3 4
M  V30 4 2 4 5
M  V30 5 1 5 6
M  V30 6 2 6 7
M  V30 7 1 6 8
M  V30 8 1 8 9
M  V30 9 2 9 10
M  V30 10 1 9 11
M  V30 11 2 11 12
M  V30 12 1 12 13
M  V30 13 1 12 14
M  V30 14 1 14 15
M  V30 15 2 15 16
M  V30 16 1 16 17
M  V30 17 2 17 18
M  V30 18 1 18 19
M  V30 19 2 19 20
M  V30 20 1 20 21
M  V30 21 2 21 22
M  V30 22 1 22 23
M  V30 23 2 23 24
M  V30 24 1 14 25
M  V30 25 2 25 26
M  V30 26 1 26 27
M  V30 27 2 27 28
M  V30 28 1 28 29
M  V30 29 2 29 30
M  V30 30 1 28 31
M  V30 31 2 31 32
M  V30 32 2 31 33
M  V30 33 1 31 34
M  V30 34 1 7 2
M  V30 35 1 16 11
M  V30 36 1 23 18
M  V30 37 1 30 25
M  V30 38 1 24 15
M  V30 39 1 3 35
M  V30 40 1 4 36
M  V30 41 1 5 37
M  V30 42 1 7 38
M  V30 43 1 8 39
M  V30 44 1 13 40
M  V30 45 1 13 41
M  V30 46 1 19 42
M  V30 47 1 20 43
M  V30 48 1 21 44
M  V30 49 1 22 45
M  V30 50 1 26 46
M  V30 51 1 27 47
M  V30 52 1 29 48
M  V30 53 1 30 49
M  V30 54 1 34 50
M  V30 55 1 34 51
M  V30 END BOND
M  V30 END CTAB
M  END
