
     RDKit          3D

  0  0  0  0  0  0  0  0  0  0999 V3000
M  V30 BEGIN CTAB
M  V30 COUNTS 25 25 0 0 0
M  V30 BEGIN ATOM
M  V30 1 C -2.29096 1.24258 -0.0123957 0
M  V30 2 C -1.04422 0.445462 0.00111536 0
M  V30 3 C -1.18626 -0.93159 0.0727083 0
M  V30 4 C -2.52005 -1.59526 0.133799 0
M  V30 5 C -0.0491896 -1.71323 0.0877226 0
M  V30 6 C 1.20511 -1.09466 0.030512 0
M  V30 7 C 1.33394 0.277757 -0.0405746 0
M  V30 8 C 0.183633 1.07083 -0.0558793 0
M  V30 9 N 0.304654 2.48109 -0.128676 0
M  V30 10 C 2.6876 0.851513 -0.0976644 0
M  V30 11 N 2.38321 -1.89263 0.0454803 0
M  V30 12 H -2.03467 2.29128 0.238801 0
M  V30 13 H -2.9922 0.913558 0.808393 0
M  V30 14 H -2.82473 1.20179 -0.980355 0
M  V30 15 H -3.30264 -0.861146 -0.148329 0
M  V30 16 H -2.68358 -1.98076 1.16333 0
M  V30 17 H -2.59471 -2.41236 -0.632469 0
M  V30 18 H -0.0932736 -2.79965 0.142778 0
M  V30 19 H 0.412132 3.10657 0.697616 0
M  V30 20 H 0.283718 2.91413 -1.07826 0
M  V30 21 H 2.73817 1.92232 0.144904 0
M  V30 22 H 3.32628 0.275266 0.604069 0
M  V30 23 H 3.07739 0.687168 -1.12817 0
M  V30 24 H 2.78943 -2.30283 -0.824947 0
M  V30 25 H 2.89122 -2.09719 0.956494 0
M  V30 END ATOM
M  V30 BEGIN BOND
M  V30 1 1 1 2
M  V30 2 2 2 3
M  V30 3 1 3 4
M  V30 4 1 3 5
M  V30 5 2 5 6
M  V30 6 1 6 7
M  V30 7 2 7 8
M  V30 8 1 8 9
M  V30 9 1 7 10
M  V30 10 1 6 11
M  V30 11 1 8 2
M  V30 12 1 1 12
M  V30 13 1 1 13
M  V30 14 1 1 14
M  V30 15 1 4 15
M  V30 16 1 4 16
M  V30 17 1 4 17
M  V30 18 1 5 18
M  V30 19 1 9 19
M  V30 20 1 9 20
M  V30 21 1 10 21
M  V30 22 1 10 22
M  V30 23 1 10 23
M  V30 24 1 11 24
M  V30 25 1 11 25
M  V30 END BOND
M  V30 END CTAB
M  END
