
     RDKit          3D

  0  0  0  0  0  0  0  0  0  0999 V3000
M  V30 BEGIN CTAB
M  V30 COUNTS 21 21 0 0 0
M  V30 BEGIN ATOM
M  V30 1 N -3.02179 -1.4092 1.06701 0
M  V30 2 C -2.64165 -0.789236 -0.152375 0
M  V30 3 S -3.56506 -1.08425 -1.46255 0
M  V30 4 C -1.46091 0.0637241 -0.155491 0
M  V30 5 C -1.54697 1.42102 -0.403143 0
M  V30 6 C -0.444445 2.25501 -0.412632 0
M  V30 7 C 0.7821 1.67237 -0.159423 0
M  V30 8 C 0.932 0.320457 0.095168 0
M  V30 9 C -0.209704 -0.449144 0.0885787 0
M  V30 10 S 2.51413 -0.369651 0.411017 0
M  V30 11 O 2.38535 -1.54559 1.3328 0
M  V30 12 O 3.36095 0.650724 1.11819 0
M  V30 13 N 3.23504 -0.876073 -1.07014 0
M  V30 14 H -2.31433 -1.99064 1.5673 0
M  V30 15 H -3.97219 -1.281 1.43705 0
M  V30 16 H -2.51756 1.83484 -0.595278 0
M  V30 17 H -0.535309 3.32651 -0.610959 0
M  V30 18 H 1.66998 2.26844 -0.153877 0
M  V30 19 H -0.079796 -1.51038 0.289916 0
M  V30 20 H 4.24353 -0.58903 -1.08611 0
M  V30 21 H 3.18662 -1.91889 -1.14506 0
M  V30 END ATOM
M  V30 BEGIN BOND
M  V30 1 1 1 2
M  V30 2 2 2 3
M  V30 3 1 2 4
M  V30 4 2 4 5
M  V30 5 1 5 6
M  V30 6 2 6 7
M  V30 7 1 7 8
M  V30 8 2 8 9
M  V30 9 1 8 10
M  V30 10 2 10 11
M  V30 11 2 10 12
M  V30 12 1 10 13
M  V30 13 1 9 4
M  V30 14 1 1 14
M  V30 15 1 1 15
M  V30 16 1 5 16
M  V30 17 1 6 17
M  V30 18 1 7 18
M  V30 19 1 9 19
M  V30 20 1 13 20
M  V30 21 1 13 21
M  V30 END BOND
M  V30 END CTAB
M  END
