
     RDKit          3D

  0  0  0  0  0  0  0  0  0  0999 V3000
M  V30 BEGIN CTAB
M  V30 COUNTS 21 22 0 0 0
M  V30 BEGIN ATOM
M  V30 1 N 4.76286 0.964747 0.178691 0
M  V30 2 C 3.56236 0.216935 0.205246 0
M  V30 3 N 3.42383 -1.13201 0.366402 0
M  V30 4 O 2.15436 -1.43929 0.333955 0
M  V30 5 C 1.43285 -0.360804 0.158612 0
M  V30 6 N 2.29812 0.664349 0.0785946 0
M  V30 7 C -0.0408044 -0.287296 0.0670738 0
M  V30 8 C -0.823974 -1.40368 0.16309 0
M  V30 9 C -2.19353 -1.30794 0.0746079 0
M  V30 10 C -2.81687 -0.0966704 -0.111848 0
M  V30 11 C -2.02375 1.05228 -0.211389 0
M  V30 12 C -0.656406 0.930686 -0.11979 0
M  V30 13 F -2.58525 2.27205 -0.395448 0
M  V30 14 N -4.22413 0.0418112 -0.207769 0
M  V30 15 H 5.64515 0.536508 -0.153338 0
M  V30 16 H 4.75246 1.94904 0.495566 0
M  V30 17 H -0.357737 -2.37185 0.310336 0
M  V30 18 H -2.8153 -2.21125 0.15297 0
M  V30 19 H 0.010777 1.79879 -0.191208 0
M  V30 20 H -4.69447 0.256316 -1.10942 0
M  V30 21 H -4.81056 -0.0727259 0.642674 0
M  V30 END ATOM
M  V30 BEGIN BOND
M  V30 1 1 1 2
M  V30 2 2 2 3
M  V30 3 1 3 4
M  V30 4 1 4 5
M  V30 5 2 5 6
M  V30 6 1 5 7
M  V30 7 2 7 8
M  V30 8 1 8 9
M  V30 9 2 9 10
M  V30 10 1 10 11
M  V30 11 2 11 12
M  V30 12 1 11 13
M  V30 13 1 10 14
M  V30 14 1 6 2
M  V30 15 1 12 7
M  V30 16 1 1 15
M  V30 17 1 1 16
M  V30 18 1 8 17
M  V30 19 1 9 18
M  V30 20 1 12 19
M  V30 21 1 14 20
M  V30 22 1 14 21
M  V30 END BOND
M  V30 END CTAB
M  END
