
     RDKit          3D

  0  0  0  0  0  0  0  0  0  0999 V3000
M  V30 BEGIN CTAB
M  V30 COUNTS 37 38 0 0 0
M  V30 BEGIN ATOM
M  V30 1 C -0.82746 -0.867476 -2.17245 0
M  V30 2 C -1.15208 -1.28188 -0.755005 0
M  V30 3 C -1.37813 -0.0642247 0.0450692 0
M  V30 4 C -0.422134 0.779996 0.533127 0
M  V30 5 N -1.08045 1.76367 1.19935 0
M  V30 6 C -2.41254 1.57385 1.15174 0
M  V30 7 C -2.61758 0.434113 0.43327 0
M  V30 8 C -3.88032 -0.191001 0.10304 0
M  V30 9 O -4.45788 0.139796 -0.959963 0
M  V30 10 C -4.5292 -1.20662 0.960398 0
M  V30 11 C -3.48064 2.41522 1.74923 0
M  V30 12 C 1.06293 0.704187 0.405587 0
M  V30 13 C 1.88899 1.65081 0.970033 0
M  V30 14 S 3.43319 1.07877 0.522519 0
M  V30 15 C 2.95049 -0.30824 -0.34217 0
M  V30 16 N 1.63674 -0.261024 -0.24352 0
M  V30 17 N 3.75515 -1.29408 -1.01574 0
M  V30 18 C 5.02073 -1.1403 -0.981956 0
M  V30 19 N 5.68847 -0.0873148 -0.340657 0
M  V30 20 N 5.82821 -2.12591 -1.65625 0
M  V30 21 H -0.613029 0.226163 -2.23715 0
M  V30 22 H 0.00820446 -1.45455 -2.58603 0
M  V30 23 H -1.69623 -1.03677 -2.84168 0
M  V30 24 H -2.07767 -1.91243 -0.811373 0
M  V30 25 H -0.340153 -1.87361 -0.294092 0
M  V30 26 H -0.642809 2.57661 1.69547 0
M  V30 27 H -3.78991 -1.76045 1.55712 0
M  V30 28 H -4.98669 -1.95956 0.265361 0
M  V30 29 H -5.29467 -0.72199 1.57341 0
M  V30 30 H -3.95379 3.07285 0.9633 0
M  V30 31 H -4.29617 1.77972 2.15513 0
M  V30 32 H -3.06914 3.1174 2.50143 0
M  V30 33 H 1.60082 2.54366 1.55876 0
M  V30 34 H 6.10378 -0.174949 0.610762 0
M  V30 35 H 5.78231 0.84079 -0.833197 0
M  V30 36 H 6.25921 -2.84951 -1.04549 0
M  V30 37 H 5.97945 -2.12572 -2.67523 0
M  V30 END ATOM
M  V30 BEGIN BOND
M  V30 1 1 1 2
M  V30 2 1 2 3
M  V30 3 2 3 4
M  V30 4 1 4 5
M  V30 5 1 5 6
M  V30 6 2 6 7
M  V30 7 1 7 8
M  V30 8 2 8 9
M  V30 9 1 8 10
M  V30 10 1 6 11
M  V30 11 1 4 12
M  V30 12 2 12 13
M  V30 13 1 13 14
M  V30 14 1 14 15
M  V30 15 2 15 16
M  V30 16 1 15 17
M  V30 17 2 17 18 CFG=2
M  V30 18 1 18 19
M  V30 19 1 18 20
M  V30 20 1 7 3
M  V30 21 1 16 12
M  V30 22 1 1 21
M  V30 23 1 1 22
M  V30 24 1 1 23
M  V30 25 1 2 24
M  V30 26 1 2 25
M  V30 27 1 5 26
M  V30 28 1 10 27
M  V30 29 1 10 28
M  V30 30 1 10 29
M  V30 31 1 11 30
M  V30 32 1 11 31
M  V30 33 1 11 32
M  V30 34 1 13 33
M  V30 35 1 19 34
M  V30 36 1 19 35
M  V30 37 1 20 36
M  V30 38 1 20 37
M  V30 END BOND
M  V30 END CTAB
M  END
