
     RDKit          3D

  0  0  0  0  0  0  0  0  0  0999 V3000
M  V30 BEGIN CTAB
M  V30 COUNTS 37 39 0 0 0
M  V30 BEGIN ATOM
M  V30 1 N 7.80919 -0.404251 -0.473227 0
M  V30 2 C 6.42198 -0.142897 -0.535853 0
M  V30 3 N 5.65668 0.0530864 0.548512 0
M  V30 4 C 4.33867 0.30282 0.519326 0
M  V30 5 C 3.71384 0.364347 -0.722959 0
M  V30 6 N 2.38061 0.615364 -0.787151 0
M  V30 7 C 1.64711 0.806537 0.324061 0
M  V30 8 C 0.209236 1.07617 0.231252 0
M  V30 9 N -0.562637 -0.161029 0.259453 0
M  V30 10 C -1.97457 -0.135806 0.181889 0
M  V30 11 C -2.67109 1.05022 0.0773207 0
M  V30 12 C -4.04389 0.984599 0.00701927 0
M  V30 13 C -4.73924 -0.204247 0.0367094 0
M  V30 14 C -4.03717 -1.37038 0.140452 0
M  V30 15 C -2.66864 -1.3324 0.212085 0
M  V30 16 S -6.48485 -0.249326 -0.0548544 0
M  V30 17 N -7.1298 -0.171997 1.53738 0
M  V30 18 O -6.96152 -1.47095 -0.790918 0
M  V30 19 O -6.94849 0.95972 -0.819481 0
M  V30 20 C 2.26654 0.745505 1.55485 0
M  V30 21 N 3.59253 0.496139 1.62487 0
M  V30 22 C 4.48849 0.165186 -1.83743 0
M  V30 23 O 3.94754 0.216127 -2.96324 0
M  V30 24 N 5.80069 -0.0806658 -1.74838 0
M  V30 25 H 8.32641 -0.15005 0.384343 0
M  V30 26 H 8.29421 -0.83786 -1.26321 0
M  V30 27 H -0.0366967 1.56393 -0.752353 0
M  V30 28 H -0.129924 1.76995 1.01104 0
M  V30 29 H -0.0484427 -1.05009 0.337353 0
M  V30 30 H -2.13291 1.98085 0.053754 0
M  V30 31 H -4.60327 1.90924 -0.0753837 0
M  V30 32 H -4.57537 -2.30834 0.16444 0
M  V30 33 H -2.08847 -2.26054 0.295805 0
M  V30 34 H -6.95165 -1.09917 2.01851 0
M  V30 35 H -8.164 0.0141453 1.46463 0
M  V30 36 H 1.64584 0.904092 2.4263 0
M  V30 37 H 6.41305 -0.23614 -2.5869 0
M  V30 END ATOM
M  V30 BEGIN BOND
M  V30 1 1 1 2
M  V30 2 2 2 3
M  V30 3 1 3 4
M  V30 4 2 4 5
M  V30 5 1 5 6
M  V30 6 2 6 7
M  V30 7 1 7 8
M  V30 8 1 8 9
M  V30 9 1 9 10
M  V30 10 2 10 11
M  V30 11 1 11 12
M  V30 12 2 12 13
M  V30 13 1 13 14
M  V30 14 2 14 15
M  V30 15 1 13 16
M  V30 16 1 16 17
M  V30 17 2 16 18
M  V30 18 2 16 19
M  V30 19 1 7 20
M  V30 20 2 20 21
M  V30 21 1 5 22
M  V30 22 2 22 23
M  V30 23 1 22 24
M  V30 24 1 24 2
M  V30 25 1 21 4
M  V30 26 1 15 10
M  V30 27 1 1 25
M  V30 28 1 1 26
M  V30 29 1 8 27
M  V30 30 1 8 28
M  V30 31 1 9 29
M  V30 32 1 11 30
M  V30 33 1 12 31
M  V30 34 1 14 32
M  V30 35 1 15 33
M  V30 36 1 17 34
M  V30 37 1 17 35
M  V30 38 1 20 36
M  V30 39 1 24 37
M  V30 END BOND
M  V30 END CTAB
M  END
