
     RDKit          3D

  0  0  0  0  0  0  0  0  0  0999 V3000
M  V30 BEGIN CTAB
M  V30 COUNTS 41 42 0 0 0
M  V30 BEGIN ATOM
M  V30 1 C -3.74225 -1.65595 -1.47947 0
M  V30 2 C -3.45242 -1.01983 -0.117071 0
M  V30 3 C -4.00125 0.3621 -0.0033743 0
M  V30 4 C -3.17067 1.41644 -0.632998 0
M  V30 5 C -3.53681 2.74868 0.0370589 0
M  V30 6 C -1.70517 1.17861 -0.639097 0
M  V30 7 N -1.246 0.0652602 0.144128 0
M  V30 8 C -2.01494 -1.13801 0.247477 0
M  V30 9 C -0.00841857 0.130051 0.840328 0
M  V30 10 O 0.679358 1.17782 0.762603 0
M  V30 11 C 0.494222 -0.985579 1.64736 0
M  V30 12 S 2.07901 -0.685402 2.41834 0
M  V30 13 C 3.3649 -0.541651 1.19422 0
M  V30 14 N 4.07365 -1.57311 0.731893 0
M  V30 15 C 5.04153 -1.43611 -0.191802 0
M  V30 16 N 5.78829 -2.53878 -0.676781 0
M  V30 17 C 5.2997 -0.159193 -0.672436 0
M  V30 18 C 4.5791 0.924229 -0.208803 0
M  V30 19 N 3.63908 0.679317 0.709316 0
M  V30 20 N 4.83044 2.24587 -0.69118 0
M  V30 21 H -3.52487 -2.74929 -1.34192 0
M  V30 22 H -3.17229 -1.20095 -2.28796 0
M  V30 23 H -4.8378 -1.56372 -1.6228 0
M  V30 24 H -4.03502 -1.65749 0.613157 0
M  V30 25 H -4.99895 0.359704 -0.532977 0
M  V30 26 H -4.23718 0.582409 1.05019 0
M  V30 27 H -3.48884 1.56146 -1.70796 0
M  V30 28 H -3.34963 3.6021 -0.654755 0
M  V30 29 H -4.63572 2.71589 0.200699 0
M  V30 30 H -3.04142 2.87079 1.0031 0
M  V30 31 H -1.2745 1.14324 -1.68276 0
M  V30 32 H -1.22053 2.09942 -0.19741 0
M  V30 33 H -1.89861 -1.49872 1.31009 0
M  V30 34 H -1.57812 -1.97809 -0.365466 0
M  V30 35 H -0.247451 -1.18452 2.4632 0
M  V30 36 H 0.549295 -1.91934 1.05625 0
M  V30 37 H 5.61367 -3.4774 -0.281638 0
M  V30 38 H 6.4976 -2.40759 -1.41535 0
M  V30 39 H 6.05737 0.0312933 -1.41212 0
M  V30 40 H 5.79149 2.62754 -0.737345 0
M  V30 41 H 4.04012 2.8485 -1.0058 0
M  V30 END ATOM
M  V30 BEGIN BOND
M  V30 1 1 1 2
M  V30 2 1 2 3
M  V30 3 1 3 4
M  V30 4 1 4 5
M  V30 5 1 4 6
M  V30 6 1 6 7
M  V30 7 1 7 8
M  V30 8 1 7 9
M  V30 9 2 9 10
M  V30 10 1 9 11
M  V30 11 1 11 12
M  V30 12 1 12 13
M  V30 13 2 13 14
M  V30 14 1 14 15
M  V30 15 1 15 16
M  V30 16 2 15 17
M  V30 17 1 17 18
M  V30 18 2 18 19
M  V30 19 1 18 20
M  V30 20 1 8 2
M  V30 21 1 19 13
M  V30 22 1 1 21
M  V30 23 1 1 22
M  V30 24 1 1 23
M  V30 25 1 2 24
M  V30 26 1 3 25
M  V30 27 1 3 26
M  V30 28 1 4 27
M  V30 29 1 5 28
M  V30 30 1 5 29
M  V30 31 1 5 30
M  V30 32 1 6 31
M  V30 33 1 6 32
M  V30 34 1 8 33
M  V30 35 1 8 34
M  V30 36 1 11 35
M  V30 37 1 11 36
M  V30 38 1 16 37
M  V30 39 1 16 38
M  V30 40 1 17 39
M  V30 41 1 20 40
M  V30 42 1 20 41
M  V30 END BOND
M  V30 END CTAB
M  END
