
     RDKit          3D

  0  0  0  0  0  0  0  0  0  0999 V3000
M  V30 BEGIN CTAB
M  V30 COUNTS 44 47 0 0 0
M  V30 BEGIN ATOM
M  V30 1 N 5.80335 -1.37614 -0.87444 0
M  V30 2 C 4.48296 -1.89253 -0.636532 0
M  V30 3 C 4.25027 -3.24194 -0.535027 0
M  V30 4 C 2.97112 -3.66504 -0.308199 0
M  V30 5 C 1.92402 -2.8121 -0.179297 0
M  V30 6 C 2.14038 -1.44831 -0.27884 0
M  V30 7 C 3.41148 -1.00941 -0.505116 0
M  V30 8 C 1.02603 -0.53399 -0.14196 0
M  V30 9 C 1.16407 0.826479 -0.22868 0
M  V30 10 C 0.0764508 1.65617 -0.09211 0
M  V30 11 N -1.11705 1.0814 0.128062 0
M  V30 12 C -1.28426 -0.247926 0.218024 0
M  V30 13 N -0.22105 -1.03587 0.0834247 0
M  V30 14 C -2.62652 -0.80759 0.461547 0
M  V30 15 C -3.73042 -0.00344259 0.602003 0
M  V30 16 C -4.97397 -0.554072 0.829143 0
M  V30 17 C -5.13428 -1.91989 0.919687 0
M  V30 18 C -4.0306 -2.7431 0.780169 0
M  V30 19 C -2.80066 -2.16836 0.55409 0
M  V30 20 N -4.14322 -4.15973 0.865403 0
M  V30 21 C 0.154486 3.11109 -0.173607 0
M  V30 22 C -1.00602 3.87224 -0.0220135 0
M  V30 23 C -1.00673 5.24178 -0.0867441 0
M  V30 24 C 0.170545 5.9272 -0.309542 0
M  V30 25 C 1.32423 5.19089 -0.461208 0
M  V30 26 C 1.30158 3.81242 -0.392278 0
M  V30 27 H 6.50187 -1.39537 -0.103211 0
M  V30 28 H 6.09121 -0.982646 -1.78812 0
M  V30 29 H 5.04637 -3.9563 -0.629911 0
M  V30 30 H 2.73787 -4.7376 -0.21971 0
M  V30 31 H 0.898486 -3.1302 0.00155885 0
M  V30 32 H 3.66412 0.0546698 -0.59634 0
M  V30 33 H 2.11667 1.28673 -0.404485 0
M  V30 34 H -3.61584 1.0801 0.532202 0
M  V30 35 H -5.85965 0.0863993 0.942051 0
M  V30 36 H -6.10132 -2.37654 1.09766 0
M  V30 37 H -1.94545 -2.85542 0.448301 0
M  V30 38 H -4.23835 -4.60163 1.79919 0
M  V30 39 H -4.13283 -4.76345 0.019128 0
M  V30 40 H -1.96085 3.36204 0.156527 0
M  V30 41 H -1.942 5.7623 0.0398225 0
M  V30 42 H 0.140725 7.01363 -0.356162 0
M  V30 43 H 2.2372 5.75178 -0.635377 0
M  V30 44 H 2.23558 3.30129 -0.519084 0
M  V30 END ATOM
M  V30 BEGIN BOND
M  V30 1 1 1 2
M  V30 2 2 2 3
M  V30 3 1 3 4
M  V30 4 2 4 5
M  V30 5 1 5 6
M  V30 6 2 6 7
M  V30 7 1 6 8
M  V30 8 2 8 9
M  V30 9 1 9 10
M  V30 10 2 10 11
M  V30 11 1 11 12
M  V30 12 2 12 13
M  V30 13 1 12 14
M  V30 14 2 14 15
M  V30 15 1 15 16
M  V30 16 2 16 17
M  V30 17 1 17 18
M  V30 18 2 18 19
M  V30 19 1 18 20
M  V30 20 1 10 21
M  V30 21 2 21 22
M  V30 22 1 22 23
M  V30 23 2 23 24
M  V30 24 1 24 25
M  V30 25 2 25 26
M  V30 26 1 7 2
M  V30 27 1 13 8
M  V30 28 1 19 14
M  V30 29 1 26 21
M  V30 30 1 1 27
M  V30 31 1 1 28
M  V30 32 1 3 29
M  V30 33 1 4 30
M  V30 34 1 5 31
M  V30 35 1 7 32
M  V30 36 1 9 33
M  V30 37 1 15 34
M  V30 38 1 16 35
M  V30 39 1 17 36
M  V30 40 1 19 37
M  V30 41 1 20 38
M  V30 42 1 20 39
M  V30 43 1 22 40
M  V30 44 1 23 41
M  V30 45 1 24 42
M  V30 46 1 25 43
M  V30 47 1 26 44
M  V30 END BOND
M  V30 END CTAB
M  END
