
     RDKit          3D

  0  0  0  0  0  0  0  0  0  0999 V3000
M  V30 BEGIN CTAB
M  V30 COUNTS 49 52 0 0 0
M  V30 BEGIN ATOM
M  V30 1 N 6.49417 -1.16302 0.847613 0
M  V30 2 C 5.47832 -0.585934 0.0223462 0
M  V30 3 N 5.73171 -0.232222 -1.25929 0
M  V30 4 C 4.72992 0.301447 -1.97091 0
M  V30 5 N 5.03777 0.666497 -3.3259 0
M  V30 6 N 3.50044 0.499883 -1.47932 0
M  V30 7 C 3.24152 0.155767 -0.221384 0
M  V30 8 C 4.22317 -0.391627 0.549668 0
M  V30 9 N 1.94123 0.333186 0.37245 0
M  V30 10 C 1.79633 0.0744819 1.76672 0
M  V30 11 C 0.531044 0.548784 2.36744 0
M  V30 12 C -0.376343 1.32456 1.45935 0
M  V30 13 C -0.502996 0.693676 0.0803648 0
M  V30 14 C 0.871952 0.759158 -0.477536 0
M  V30 15 C -1.15141 -0.604224 0.074824 0
M  V30 16 N -0.747918 -1.6656 0.79783 0
M  V30 17 C -1.5202 -2.73087 0.57107 0
M  V30 18 C -2.45293 -2.33911 -0.329491 0
M  V30 19 N -2.20703 -1.01698 -0.624063 0
M  V30 20 C -3.00645 -0.296861 -1.53519 0
M  V30 21 C -4.23838 0.372424 -1.04211 0
M  V30 22 C -4.18941 1.4172 0.00500701 0
M  V30 23 C -5.57041 0.904122 0.466144 0
M  V30 24 C -5.09042 -0.446999 -0.0697668 0
M  V30 25 H 7.41617 -0.688673 0.86963 0
M  V30 26 H 6.24035 -2.02091 1.37144 0
M  V30 27 H 4.6381 0.13724 -4.11443 0
M  V30 28 H 5.67546 1.47869 -3.48066 0
M  V30 29 H 4.08271 -0.696425 1.58036 0
M  V30 30 H 2.65594 0.522612 2.36352 0
M  V30 31 H 1.98816 -1.02117 1.91591 0
M  V30 32 H -0.00910828 -0.299409 2.86232 0
M  V30 33 H 0.748761 1.24377 3.22959 0
M  V30 34 H -1.37127 1.36553 1.94848 0
M  V30 35 H -0.0286454 2.36646 1.29907 0
M  V30 36 H -1.09614 1.47543 -0.496662 0
M  V30 37 H 1.01569 0.275794 -1.45843 0
M  V30 38 H 1.06739 1.85029 -0.682875 0
M  V30 39 H -1.41993 -3.72764 1.02439 0
M  V30 40 H -3.24254 -2.95982 -0.736854 0
M  V30 41 H -3.40153 -1.01031 -2.33887 0
M  V30 42 H -2.40276 0.389689 -2.20535 0
M  V30 43 H -4.91871 0.678848 -1.89716 0
M  V30 44 H -4.34501 2.45547 -0.410091 0
M  V30 45 H -3.44741 1.35791 0.795551 0
M  V30 46 H -5.67731 0.938019 1.55251 0
M  V30 47 H -6.40737 1.28641 -0.143685 0
M  V30 48 H -5.85239 -1.05108 -0.565242 0
M  V30 49 H -4.43231 -0.924452 0.671673 0
M  V30 END ATOM
M  V30 BEGIN BOND
M  V30 1 1 1 2
M  V30 2 2 2 3
M  V30 3 1 3 4
M  V30 4 1 4 5
M  V30 5 2 4 6
M  V30 6 1 6 7
M  V30 7 2 7 8
M  V30 8 1 7 9
M  V30 9 1 9 10
M  V30 10 1 10 11
M  V30 11 1 11 12
M  V30 12 1 12 13
M  V30 13 1 13 14
M  V30 14 1 13 15
M  V30 15 2 15 16
M  V30 16 1 16 17
M  V30 17 2 17 18
M  V30 18 1 18 19
M  V30 19 1 19 20
M  V30 20 1 20 21
M  V30 21 1 21 22
M  V30 22 1 22 23
M  V30 23 1 23 24
M  V30 24 1 8 2
M  V30 25 1 14 9
M  V30 26 1 19 15
M  V30 27 1 24 21
M  V30 28 1 1 25
M  V30 29 1 1 26
M  V30 30 1 5 27
M  V30 31 1 5 28
M  V30 32 1 8 29
M  V30 33 1 10 30
M  V30 34 1 10 31
M  V30 35 1 11 32
M  V30 36 1 11 33
M  V30 37 1 12 34
M  V30 38 1 12 35
M  V30 39 1 13 36
M  V30 40 1 14 37
M  V30 41 1 14 38
M  V30 42 1 17 39
M  V30 43 1 18 40
M  V30 44 1 20 41
M  V30 45 1 20 42
M  V30 46 1 21 43
M  V30 47 1 22 44
M  V30 48 1 22 45
M  V30 49 1 23 46
M  V30 50 1 23 47
M  V30 51 1 24 48
M  V30 52 1 24 49
M  V30 END BOND
M  V30 END CTAB
M  END
