
     RDKit          3D

  0  0  0  0  0  0  0  0  0  0999 V3000
M  V30 BEGIN CTAB
M  V30 COUNTS 32 33 0 0 0
M  V30 BEGIN ATOM
M  V30 1 N -6.10892 0.2704 1.86484 0
M  V30 2 N -5.1587 0.694599 1.04744 0
M  V30 3 C -4.20497 1.12038 0.227 0
M  V30 4 O -4.32793 2.12529 -0.565998 0
M  V30 5 C -2.85739 0.452412 0.147403 0
M  V30 6 N -2.54469 -0.567333 0.984129 0
M  V30 7 C -1.29522 -1.11482 0.933453 0
M  V30 8 Cl -0.864528 -2.43394 2.01664 0
M  V30 9 C -0.418088 -0.596852 0.030566 0
M  V30 10 N 0.958908 -1.06724 0.002282 0
M  V30 11 C 1.81074 -0.519148 -1.03036 0
M  V30 12 C 3.24852 -0.654065 -0.715674 0
M  V30 13 N 4.024 -1.54378 -1.34315 0
M  V30 14 C 5.34501 -1.61562 -1.06615 0
M  V30 15 C 5.96798 -0.803078 -0.146622 0
M  V30 16 C 5.18675 0.136128 0.525438 0
M  V30 17 C 3.85402 0.184068 0.225273 0
M  V30 18 N -0.74573 0.416901 -0.796468 0
M  V30 19 C -1.96921 0.977138 -0.767905 0
M  V30 20 N -2.30446 2.0713 -1.60144 0
M  V30 21 H -5.92233 -0.677272 2.33388 0
M  V30 22 H -7.11696 0.211651 1.48868 0
M  V30 23 H -5.98536 1.76499 0.762773 0
M  V30 24 H 1.34446 -1.74799 0.668161 0
M  V30 25 H 1.58951 -1.05358 -2.01558 0
M  V30 26 H 1.5174 0.5604 -1.14841 0
M  V30 27 H 5.95321 -2.34845 -1.59225 0
M  V30 28 H 7.04386 -0.884847 0.0596325 0
M  V30 29 H 5.63849 0.79812 1.25418 0
M  V30 30 H 3.16823 0.887986 0.707468 0
M  V30 31 H -2.78606 1.94247 -2.48471 0
M  V30 32 H -2.04055 3.01377 -1.283 0
M  V30 END ATOM
M  V30 BEGIN BOND
M  V30 1 1 1 2
M  V30 2 1 2 3
M  V30 3 2 3 4
M  V30 4 1 3 5
M  V30 5 2 5 6
M  V30 6 1 6 7
M  V30 7 1 7 8
M  V30 8 2 7 9
M  V30 9 1 9 10
M  V30 10 1 10 11
M  V30 11 1 11 12
M  V30 12 2 12 13
M  V30 13 1 13 14
M  V30 14 2 14 15
M  V30 15 1 15 16
M  V30 16 2 16 17
M  V30 17 1 9 18
M  V30 18 2 18 19
M  V30 19 1 19 20
M  V30 20 1 19 5
M  V30 21 1 17 12
M  V30 22 1 1 21
M  V30 23 1 1 22
M  V30 24 1 2 23
M  V30 25 1 10 24
M  V30 26 1 11 25
M  V30 27 1 11 26
M  V30 28 1 14 27
M  V30 29 1 15 28
M  V30 30 1 16 29
M  V30 31 1 17 30
M  V30 32 1 20 31
M  V30 33 1 20 32
M  V30 END BOND
M  V30 END CTAB
M  END
