
     RDKit          3D

  0  0  0  0  0  0  0  0  0  0999 V3000
M  V30 BEGIN CTAB
M  V30 COUNTS 50 52 0 0 0
M  V30 BEGIN ATOM
M  V30 1 C -4.50253 -1.58565 -1.82391 0
M  V30 2 C -3.16224 -0.901135 -2.07867 0
M  V30 3 C -3.13698 0.480175 -1.52321 0
M  V30 4 C -3.35115 0.602245 -0.0721864 0
M  V30 5 C -2.33421 0.458311 0.827235 0
M  V30 6 N -1.00476 0.203317 0.48801 0
M  V30 7 C -0.169611 1.38328 0.194463 0
M  V30 8 C 1.26176 1.175 0.646906 0
M  V30 9 N 1.77922 0.0102909 -0.091436 0
M  V30 10 C 0.780784 -0.917571 -0.62039 0
M  V30 11 C -0.308444 -1.04595 0.432704 0
M  V30 12 C 3.16949 -0.154205 -0.265775 0
M  V30 13 C 4.03609 0.875498 -0.00183466 0
M  V30 14 C 5.4199 0.734045 -0.158803 0
M  V30 15 C 5.88988 -0.474698 -0.587812 0
M  V30 16 C 5.06246 -1.53757 -0.865321 0
M  V30 17 C 3.68827 -1.347 -0.693567 0
M  V30 18 C 7.35565 -0.601011 -0.747613 0
M  V30 19 O 8.19947 0.450795 -0.480332 0
M  V30 20 O 7.85076 -1.67848 -1.13272 0
M  V30 21 C -2.68915 0.58997 2.18359 0
M  V30 22 N -1.61365 0.437244 3.11619 0
M  V30 23 N -3.94329 0.840749 2.5673 0
M  V30 24 C -4.92076 0.977245 1.65705 0
M  V30 25 N -6.27896 1.24914 2.06348 0
M  V30 26 N -4.637 0.861289 0.361126 0
M  V30 27 H -5.35726 -0.903841 -2.02097 0
M  V30 28 H -4.57737 -2.41396 -2.55215 0
M  V30 29 H -4.5577 -2.02365 -0.814456 0
M  V30 30 H -2.99105 -0.922913 -3.18118 0
M  V30 31 H -2.39171 -1.52181 -1.6354 0
M  V30 32 H -2.24912 1.067 -1.86533 0
M  V30 33 H -3.99644 1.02628 -2.02886 0
M  V30 34 H -0.536066 2.28247 0.728892 0
M  V30 35 H -0.131596 1.5227 -0.888249 0
M  V30 36 H 1.78881 2.09935 0.429578 0
M  V30 37 H 1.34878 0.922641 1.72398 0
M  V30 38 H 0.292701 -0.387073 -1.49261 0
M  V30 39 H 1.17145 -1.87441 -0.940218 0
M  V30 40 H 0.229329 -1.27321 1.39734 0
M  V30 41 H -0.960219 -1.92091 0.245618 0
M  V30 42 H 3.73689 1.85539 0.340684 0
M  V30 43 H 6.09399 1.56638 0.0544758 0
M  V30 44 H 5.46297 -2.48467 -1.20362 0
M  V30 45 H 3.09193 -2.22193 -0.925719 0
M  V30 46 H 8.17014 1.0465 0.311756 0
M  V30 47 H -1.28338 1.27665 3.62338 0
M  V30 48 H -1.22958 -0.5268 3.22204 0
M  V30 49 H -6.92021 0.503193 2.39229 0
M  V30 50 H -6.64627 2.2213 2.03305 0
M  V30 END ATOM
M  V30 BEGIN BOND
M  V30 1 1 1 2
M  V30 2 1 2 3
M  V30 3 1 3 4
M  V30 4 2 4 5
M  V30 5 1 5 6
M  V30 6 1 6 7
M  V30 7 1 7 8
M  V30 8 1 8 9
M  V30 9 1 9 10
M  V30 10 1 10 11
M  V30 11 1 9 12
M  V30 12 2 12 13
M  V30 13 1 13 14
M  V30 14 2 14 15
M  V30 15 1 15 16
M  V30 16 2 16 17
M  V30 17 1 15 18
M  V30 18 1 18 19
M  V30 19 2 18 20
M  V30 20 1 5 21
M  V30 21 1 21 22
M  V30 22 2 21 23
M  V30 23 1 23 24
M  V30 24 1 24 25
M  V30 25 2 24 26
M  V30 26 1 26 4
M  V30 27 1 11 6
M  V30 28 1 17 12
M  V30 29 1 1 27
M  V30 30 1 1 28
M  V30 31 1 1 29
M  V30 32 1 2 30
M  V30 33 1 2 31
M  V30 34 1 3 32
M  V30 35 1 3 33
M  V30 36 1 7 34
M  V30 37 1 7 35
M  V30 38 1 8 36
M  V30 39 1 8 37
M  V30 40 1 10 38
M  V30 41 1 10 39
M  V30 42 1 11 40
M  V30 43 1 11 41
M  V30 44 1 13 42
M  V30 45 1 14 43
M  V30 46 1 16 44
M  V30 47 1 17 45
M  V30 48 1 19 46
M  V30 49 1 22 47
M  V30 50 1 22 48
M  V30 51 1 25 49
M  V30 52 1 25 50
M  V30 END BOND
M  V30 END CTAB
M  END
