
     RDKit          3D

  0  0  0  0  0  0  0  0  0  0999 V3000
M  V30 BEGIN CTAB
M  V30 COUNTS 46 49 0 0 0
M  V30 BEGIN ATOM
M  V30 1 Cl -6.02831 -4.23429 1.00182 0
M  V30 2 C -4.58422 -3.43207 0.438451 0
M  V30 3 C -4.68838 -2.25818 -0.262314 0
M  V30 4 C -3.57029 -1.58024 -0.732278 0
M  V30 5 C -2.32416 -2.06238 -0.510579 0
M  V30 6 C -2.2134 -3.25802 0.20228 0
M  V30 7 C -3.31645 -3.92531 0.66489 0
M  V30 8 Cl -0.644423 -3.98692 0.556625 0
M  V30 9 C -1.11622 -1.39013 -0.926663 0
M  V30 10 N 0.0690767 -2.12769 -0.963674 0
M  V30 11 N 1.03345 -1.34693 -1.33376 0
M  V30 12 C 0.527989 -0.131674 -1.53968 0
M  V30 13 N -0.823943 -0.144841 -1.28466 0
M  V30 14 C -1.68172 0.988872 -1.41148 0
M  V30 15 C -1.96314 1.75008 -0.186016 0
M  V30 16 C -1.01201 2.23873 0.640711 0
M  V30 17 C -1.344 3.00239 1.76642 0
M  V30 18 C -2.65309 3.28419 2.0738 0
M  V30 19 C -3.6359 2.79577 1.2452 0
M  V30 20 C -3.27939 2.04787 0.145339 0
M  V30 21 S 1.47087 1.27227 -2.11074 0
M  V30 22 C 3.18591 0.842238 -2.36479 0
M  V30 23 C 3.91903 0.503346 -1.11297 0
M  V30 24 N 4.54578 1.48066 -0.405486 0
M  V30 25 C 5.22288 1.23085 0.728322 0
M  V30 26 N 5.87718 2.27098 1.46198 0
M  V30 27 N 5.27572 -0.0324363 1.16872 0
M  V30 28 C 4.67076 -1.06389 0.51071 0
M  V30 29 N 4.0146 -0.735367 -0.612419 0
M  V30 30 N 4.75242 -2.38288 1.01123 0
M  V30 31 H -5.6578 -1.84489 -0.457289 0
M  V30 32 H -3.78407 -0.673026 -1.27986 0
M  V30 33 H -3.20963 -4.8445 1.21353 0
M  V30 34 H -2.55584 0.870421 -2.08276 0
M  V30 35 H -1.07675 1.76697 -2.04666 0
M  V30 36 H 0.0257416 2.05149 0.466687 0
M  V30 37 H -0.549437 3.37358 2.40106 0
M  V30 38 H -2.86139 3.87753 2.95293 0
M  V30 39 H -4.65709 3.03057 1.50747 0
M  V30 40 H -4.08296 1.68617 -0.475271 0
M  V30 41 H 3.2261 -0.0978323 -2.99083 0
M  V30 42 H 3.7243 1.66018 -2.87244 0
M  V30 43 H 6.22374 2.07317 2.4188 0
M  V30 44 H 5.97245 3.19056 0.98549 0
M  V30 45 H 5.47251 -2.61761 1.71337 0
M  V30 46 H 4.10351 -3.11777 0.68677 0
M  V30 END ATOM
M  V30 BEGIN BOND
M  V30 1 1 1 2
M  V30 2 2 2 3
M  V30 3 1 3 4
M  V30 4 2 4 5
M  V30 5 1 5 6
M  V30 6 2 6 7
M  V30 7 1 6 8
M  V30 8 1 5 9
M  V30 9 2 9 10
M  V30 10 1 10 11
M  V30 11 2 11 12
M  V30 12 1 12 13
M  V30 13 1 13 14
M  V30 14 1 14 15
M  V30 15 2 15 16
M  V30 16 1 16 17
M  V30 17 2 17 18
M  V30 18 1 18 19
M  V30 19 2 19 20
M  V30 20 1 12 21
M  V30 21 1 21 22
M  V30 22 1 22 23
M  V30 23 2 23 24
M  V30 24 1 24 25
M  V30 25 1 25 26
M  V30 26 2 25 27
M  V30 27 1 27 28
M  V30 28 2 28 29
M  V30 29 1 28 30
M  V30 30 1 7 2
M  V30 31 1 13 9
M  V30 32 1 20 15
M  V30 33 1 29 23
M  V30 34 1 3 31
M  V30 35 1 4 32
M  V30 36 1 7 33
M  V30 37 1 14 34
M  V30 38 1 14 35
M  V30 39 1 16 36
M  V30 40 1 17 37
M  V30 41 1 18 38
M  V30 42 1 19 39
M  V30 43 1 20 40
M  V30 44 1 22 41
M  V30 45 1 22 42
M  V30 46 1 26 43
M  V30 47 1 26 44
M  V30 48 1 30 45
M  V30 49 1 30 46
M  V30 END BOND
M  V30 END CTAB
M  END
