
     RDKit          3D

  0  0  0  0  0  0  0  0  0  0999 V3000
M  V30 BEGIN CTAB
M  V30 COUNTS 20 20 0 0 0
M  V30 BEGIN ATOM
M  V30 1 N -2.76628 -2.33103 -0.870365 0
M  V30 2 N -1.69429 -1.77389 -0.183538 0
M  V30 3 C -1.05605 -0.591832 -0.647514 0
M  V30 4 O -1.49717 -0.0568342 -1.71468 0
M  V30 5 C 0.0683007 0.0260391 0.0384857 0
M  V30 6 C 0.602206 -0.485353 1.19044 0
M  V30 7 C 1.68395 0.109611 1.85003 0
M  V30 8 C 2.20079 1.24992 1.2864 0
M  V30 9 Cl 3.55526 2.00402 2.10294 0
M  V30 10 C 1.69175 1.79491 0.129142 0
M  V30 11 C 0.62397 1.18549 -0.499202 0
M  V30 12 N 0.0740944 1.72869 -1.70259 0
M  V30 13 H -2.61689 -3.3201 -1.14072 0
M  V30 14 H -3.6637 -2.17691 -0.34476 0
M  V30 15 H -1.34357 -2.2222 0.68848 0
M  V30 16 H 0.21196 -1.37922 1.64974 0
M  V30 17 H 2.06748 -0.33527 2.75714 0
M  V30 18 H 2.12736 2.7026 -0.291096 0
M  V30 19 H -0.603197 2.52531 -1.66026 0
M  V30 20 H 0.334029 1.34605 -2.63806 0
M  V30 END ATOM
M  V30 BEGIN BOND
M  V30 1 1 1 2
M  V30 2 1 2 3
M  V30 3 2 3 4
M  V30 4 1 3 5
M  V30 5 2 5 6
M  V30 6 1 6 7
M  V30 7 2 7 8
M  V30 8 1 8 9
M  V30 9 1 8 10
M  V30 10 2 10 11
M  V30 11 1 11 12
M  V30 12 1 11 5
M  V30 13 1 1 13
M  V30 14 1 1 14
M  V30 15 1 2 15
M  V30 16 1 6 16
M  V30 17 1 7 17
M  V30 18 1 10 18
M  V30 19 1 12 19
M  V30 20 1 12 20
M  V30 END BOND
M  V30 END CTAB
M  END
