
     RDKit          3D

  0  0  0  0  0  0  0  0  0  0999 V3000
M  V30 BEGIN CTAB
M  V30 COUNTS 48 50 0 0 0
M  V30 BEGIN ATOM
M  V30 1 C -7.07886 1.71064 0.223197 0
M  V30 2 C -5.95976 0.716568 0.342003 0
M  V30 3 O -6.25987 -0.451709 0.618549 0
M  V30 4 N -4.62673 1.13004 0.140139 0
M  V30 5 C -3.4859 0.310576 0.234415 0
M  V30 6 C -3.46764 -0.761928 1.10304 0
M  V30 7 C -2.3316 -1.48455 1.30505 0
M  V30 8 C -1.09892 -1.24265 0.687419 0
M  V30 9 C -1.1293 -0.157763 -0.185447 0
M  V30 10 C 0.0393106 0.138754 -0.830723 0
M  V30 11 C 0.0481526 1.21045 -1.72869 0
M  V30 12 C -1.06084 1.95347 -1.97032 0
M  V30 13 C -2.26029 1.65793 -1.30984 0
M  V30 14 O -3.3659 2.44417 -1.59925 0
M  V30 15 C -2.30027 0.610013 -0.415687 0
M  V30 16 N 1.21109 -0.575181 -0.568128 0
M  V30 17 N 2.31481 0.0523696 -0.794352 0
M  V30 18 C 3.60195 -0.420543 -0.619083 0
M  V30 19 C 4.00268 -1.61704 -1.1605 0
M  V30 20 C 5.26613 -2.14797 -1.02773 0
M  V30 21 C 6.18978 -1.43714 -0.30658 0
M  V30 22 C 5.83162 -0.232628 0.254055 0
M  V30 23 C 4.53799 0.286631 0.104002 0
M  V30 24 S 4.14993 1.81969 0.836644 0
M  V30 25 N 2.85594 1.68276 1.98398 0
M  V30 26 O 3.83127 2.86211 -0.206795 0
M  V30 27 O 5.34097 2.33767 1.59615 0
M  V30 28 S 0.231652 -2.29294 0.973907 0
M  V30 29 N 0.744364 -3.32532 -0.280456 0
M  V30 30 O -0.350484 -3.40859 1.88394 0
M  V30 31 O 1.25196 -1.87014 1.97716 0
M  V30 32 H -7.40046 1.82021 -0.831196 0
M  V30 33 H -7.93685 1.36785 0.835284 0
M  V30 34 H -6.74427 2.70896 0.584389 0
M  V30 35 H -4.51594 2.15377 -0.0271081 0
M  V30 36 H -4.37757 -1.00116 1.63671 0
M  V30 37 H -2.40133 -2.32782 2.01927 0
M  V30 38 H 0.981774 1.42818 -2.22908 0
M  V30 39 H -1.09907 2.78974 -2.65847 0
M  V30 40 H -3.36266 3.20241 -2.23794 0
M  V30 41 H 3.28088 -2.1813 -1.72831 0
M  V30 42 H 5.57169 -3.0891 -1.45747 0
M  V30 43 H 7.1813 -1.83326 -0.190649 0
M  V30 44 H 6.57465 0.315512 0.820899 0
M  V30 45 H 2.65291 0.661421 2.06171 0
M  V30 46 H 3.09565 2.08813 2.89702 0
M  V30 47 H 1.72797 -3.56091 -0.16579 0
M  V30 48 H 0.0980868 -4.0404 -0.589342 0
M  V30 END ATOM
M  V30 BEGIN BOND
M  V30 1 1 1 2
M  V30 2 2 2 3
M  V30 3 1 2 4
M  V30 4 1 4 5
M  V30 5 2 5 6
M  V30 6 1 6 7
M  V30 7 2 7 8
M  V30 8 1 8 9
M  V30 9 2 9 10
M  V30 10 1 10 11
M  V30 11 2 11 12
M  V30 12 1 12 13
M  V30 13 1 13 14
M  V30 14 2 13 15
M  V30 15 1 10 16
M  V30 16 2 16 17 CFG=2
M  V30 17 1 17 18
M  V30 18 2 18 19
M  V30 19 1 19 20
M  V30 20 2 20 21
M  V30 21 1 21 22
M  V30 22 2 22 23
M  V30 23 1 23 24
M  V30 24 1 24 25
M  V30 25 2 24 26
M  V30 26 2 24 27
M  V30 27 1 8 28
M  V30 28 1 28 29
M  V30 29 2 28 30
M  V30 30 2 28 31
M  V30 31 1 15 5
M  V30 32 1 23 18
M  V30 33 1 15 9
M  V30 34 1 1 32
M  V30 35 1 1 33
M  V30 36 1 1 34
M  V30 37 1 4 35
M  V30 38 1 6 36
M  V30 39 1 7 37
M  V30 40 1 11 38
M  V30 41 1 12 39
M  V30 42 1 14 40
M  V30 43 1 19 41
M  V30 44 1 20 42
M  V30 45 1 21 43
M  V30 46 1 22 44
M  V30 47 1 25 45
M  V30 48 1 25 46
M  V30 49 1 29 47
M  V30 50 1 29 48
M  V30 END BOND
M  V30 END CTAB
M  END
