
     RDKit          3D

  0  0  0  0  0  0  0  0  0  0999 V3000
M  V30 BEGIN CTAB
M  V30 COUNTS 38 40 0 0 0
M  V30 BEGIN ATOM
M  V30 1 C -6.3929 0.764925 1.31824 0
M  V30 2 O -5.27603 -0.102414 1.30377 0
M  V30 3 C -4.24406 0.182673 0.410707 0
M  V30 4 C -4.28847 1.26866 -0.440131 0
M  V30 5 C -3.23063 1.51322 -1.31684 0
M  V30 6 C -2.1253 0.687587 -1.3575 0
M  V30 7 C -2.07156 -0.404005 -0.508138 0
M  V30 8 C -3.14228 -0.628615 0.360762 0
M  V30 9 N -0.954317 -1.28503 -0.511345 0
M  V30 10 C -0.871306 -2.42568 -1.24373 0
M  V30 11 C 0.358883 -2.97573 -0.960691 0
M  V30 12 N 0.966379 -2.17603 -0.091366 0
M  V30 13 C 0.174024 -1.12462 0.201057 0
M  V30 14 S 0.469479 0.246679 1.29243 0
M  V30 15 C 2.09365 0.131986 2.08403 0
M  V30 16 C 3.20656 0.268147 1.10784 0
M  V30 17 N 3.71637 1.49412 0.826519 0
M  V30 18 C 4.72852 1.64704 -0.0568986 0
M  V30 19 N 5.22969 2.95639 -0.318676 0
M  V30 20 N 5.24186 0.574429 -0.668716 0
M  V30 21 C 4.76804 -0.661628 -0.420963 0
M  V30 22 N 3.76053 -0.774325 0.463967 0
M  V30 23 N 5.32083 -1.81437 -1.07931 0
M  V30 24 H -6.9067 0.673341 0.327385 0
M  V30 25 H -6.04136 1.81736 1.42535 0
M  V30 26 H -7.1056 0.483951 2.11974 0
M  V30 27 H -5.14562 1.90436 -0.405249 0
M  V30 28 H -3.26881 2.35601 -1.9749 0
M  V30 29 H -1.29379 0.862522 -2.03259 0
M  V30 30 H -3.07178 -1.49395 1.01634 0
M  V30 31 H -1.61656 -2.83043 -1.91777 0
M  V30 32 H 0.791837 -3.88516 -1.34854 0
M  V30 33 H 2.15426 1.01204 2.78881 0
M  V30 34 H 2.1902 -0.764811 2.72181 0
M  V30 35 H 5.6574 3.22867 -1.22925 0
M  V30 36 H 5.18632 3.70579 0.405495 0
M  V30 37 H 5.81177 -1.67369 -1.96595 0
M  V30 38 H 5.22049 -2.75941 -0.660359 0
M  V30 END ATOM
M  V30 BEGIN BOND
M  V30 1 1 1 2
M  V30 2 1 2 3
M  V30 3 2 3 4
M  V30 4 1 4 5
M  V30 5 2 5 6
M  V30 6 1 6 7
M  V30 7 2 7 8
M  V30 8 1 7 9
M  V30 9 1 9 10
M  V30 10 2 10 11
M  V30 11 1 11 12
M  V30 12 2 12 13
M  V30 13 1 13 14
M  V30 14 1 14 15
M  V30 15 1 15 16
M  V30 16 2 16 17
M  V30 17 1 17 18
M  V30 18 1 18 19
M  V30 19 2 18 20
M  V30 20 1 20 21
M  V30 21 2 21 22
M  V30 22 1 21 23
M  V30 23 1 8 3
M  V30 24 1 13 9
M  V30 25 1 22 16
M  V30 26 1 1 24
M  V30 27 1 1 25
M  V30 28 1 1 26
M  V30 29 1 4 27
M  V30 30 1 5 28
M  V30 31 1 6 29
M  V30 32 1 8 30
M  V30 33 1 10 31
M  V30 34 1 11 32
M  V30 35 1 15 33
M  V30 36 1 15 34
M  V30 37 1 19 35
M  V30 38 1 19 36
M  V30 39 1 23 37
M  V30 40 1 23 38
M  V30 END BOND
M  V30 END CTAB
M  END
