
     RDKit          3D

  0  0  0  0  0  0  0  0  0  0999 V3000
M  V30 BEGIN CTAB
M  V30 COUNTS 20 20 0 0 0
M  V30 BEGIN ATOM
M  V30 1 N -0.472356 -2.69666 0.262123 0
M  V30 2 N -0.0488518 -1.51004 0.865746 0
M  V30 3 C -0.505416 -0.296615 0.279483 0
M  V30 4 C -1.84579 0.0438673 0.479145 0
M  V30 5 C -2.35843 1.20444 -0.0569664 0
M  V30 6 C -1.4861 1.99726 -0.789327 0
M  V30 7 N -0.213735 1.63793 -0.956597 0
M  V30 8 C 0.326016 0.51044 -0.448267 0
M  V30 9 S 1.98949 0.0823112 -0.668574 0
M  V30 10 O 2.51476 0.643136 -1.97875 0
M  V30 11 O 2.1156 -1.40189 -0.725855 0
M  V30 12 N 2.99269 0.711929 0.581189 0
M  V30 13 H -1.41055 -2.99294 0.626301 0
M  V30 14 H -0.446112 -2.66725 -0.785094 0
M  V30 15 H 0.558443 -1.43219 1.69449 0
M  V30 16 H -2.50502 -0.609133 1.06744 0
M  V30 17 H -3.40036 1.45274 0.101438 0
M  V30 18 H -1.91075 2.91263 -1.2212 0
M  V30 19 H 3.63463 1.4446 0.229335 0
M  V30 20 H 2.47185 0.965432 1.44395 0
M  V30 END ATOM
M  V30 BEGIN BOND
M  V30 1 1 1 2
M  V30 2 1 2 3
M  V30 3 2 3 4
M  V30 4 1 4 5
M  V30 5 2 5 6
M  V30 6 1 6 7
M  V30 7 2 7 8
M  V30 8 1 8 9
M  V30 9 2 9 10
M  V30 10 2 9 11
M  V30 11 1 9 12
M  V30 12 1 8 3
M  V30 13 1 1 13
M  V30 14 1 1 14
M  V30 15 1 2 15
M  V30 16 1 4 16
M  V30 17 1 5 17
M  V30 18 1 6 18
M  V30 19 1 12 19
M  V30 20 1 12 20
M  V30 END BOND
M  V30 END CTAB
M  END
