
     RDKit          3D

  0  0  0  0  0  0  0  0  0  0999 V3000
M  V30 BEGIN CTAB
M  V30 COUNTS 27 28 0 0 0
M  V30 BEGIN ATOM
M  V30 1 N 4.27488 -0.507183 -1.11034 0
M  V30 2 C 3.00345 -0.197399 -0.535534 0
M  V30 3 C 2.58417 -0.777997 0.634781 0
M  V30 4 N 3.45997 -1.70243 1.2603 0
M  V30 5 C 1.35547 -0.472366 1.18119 0
M  V30 6 C 0.489103 0.436763 0.570047 0
M  V30 7 O -0.729495 0.757603 1.08678 0
M  V30 8 C -1.9771 0.627244 0.587699 0
M  V30 9 C -2.79352 1.72086 0.415216 0
M  V30 10 C -4.05808 1.5508 -0.0955826 0
M  V30 11 C -4.52337 0.291289 -0.439979 0
M  V30 12 C -3.70374 -0.812189 -0.267538 0
M  V30 13 Cl -4.34172 -2.38422 -0.719449 0
M  V30 14 C -2.43505 -0.647633 0.244139 0
M  V30 15 Cl -1.45917 -2.08124 0.434184 0
M  V30 16 C 0.919555 1.00964 -0.597984 0
M  V30 17 Cl -0.0894873 2.14801 -1.41809 0
M  V30 18 C 2.16559 0.702989 -1.15689 0
M  V30 19 H 4.4405 -0.266115 -2.10914 0
M  V30 20 H 5.04083 -0.956579 -0.59395 0
M  V30 21 H 3.83395 -2.53043 0.750172 0
M  V30 22 H 3.70988 -1.50854 2.25975 0
M  V30 23 H 1.01307 -0.915767 2.09278 0
M  V30 24 H -2.47994 2.73866 0.669413 0
M  V30 25 H -4.6889 2.44214 -0.222801 0
M  V30 26 H -5.51655 0.177958 -0.838515 0
M  V30 27 H 2.50572 1.15613 -2.08066 0
M  V30 END ATOM
M  V30 BEGIN BOND
M  V30 1 1 1 2
M  V30 2 2 2 3
M  V30 3 1 3 4
M  V30 4 1 3 5
M  V30 5 2 5 6
M  V30 6 1 6 7
M  V30 7 1 7 8
M  V30 8 2 8 9
M  V30 9 1 9 10
M  V30 10 2 10 11
M  V30 11 1 11 12
M  V30 12 1 12 13
M  V30 13 2 12 14
M  V30 14 1 14 15
M  V30 15 1 6 16
M  V30 16 1 16 17
M  V30 17 2 16 18
M  V30 18 1 18 2
M  V30 19 1 14 8
M  V30 20 1 1 19
M  V30 21 1 1 20
M  V30 22 1 4 21
M  V30 23 1 4 22
M  V30 24 1 5 23
M  V30 25 1 9 24
M  V30 26 1 10 25
M  V30 27 1 11 26
M  V30 28 1 18 27
M  V30 END BOND
M  V30 END CTAB
M  END
