
     RDKit          3D

  0  0  0  0  0  0  0  0  0  0999 V3000
M  V30 BEGIN CTAB
M  V30 COUNTS 30 31 0 0 0
M  V30 BEGIN ATOM
M  V30 1 N 5.15017 -0.963083 1.98835 0
M  V30 2 C 4.42094 -0.514314 0.814798 0
M  V30 3 S 4.58353 -1.00858 -0.820173 0
M  V30 4 C 3.37971 -0.00991282 -1.50312 0
M  V30 5 C 2.90777 0.663909 -0.39817 0
M  V30 6 N 3.45893 0.38021 0.744503 0
M  V30 7 C 1.78646 1.68897 -0.519667 0
M  V30 8 N 0.521659 1.14796 -0.0998474 0
M  V30 9 N 0.0974346 1.20086 1.17331 0
M  V30 10 N -1.07959 0.663651 1.30944 0
M  V30 11 C -1.51061 0.212154 0.098376 0
M  V30 12 C -0.465224 0.538093 -0.76885 0
M  V30 13 C -2.79978 -0.4467 -0.159543 0
M  V30 14 N -2.69646 -1.73007 -0.807738 0
M  V30 15 C -3.73881 0.433538 -0.9563 0
M  V30 16 C -3.49912 -0.684948 1.18448 0
M  V30 17 H 6.11938 -0.596432 2.11524 0
M  V30 18 H 4.69065 -1.61469 2.6498 0
M  V30 19 H 3.03618 0.105779 -2.54205 0
M  V30 20 H 1.76197 2.08867 -1.57539 0
M  V30 21 H 2.09932 2.55294 0.111037 0
M  V30 22 H -0.463072 0.333307 -1.82184 0
M  V30 23 H -2.55792 -1.62726 -1.81345 0
M  V30 24 H -2.13938 -2.4327 -0.314725 0
M  V30 25 H -4.1817 1.21078 -0.261028 0
M  V30 26 H -3.21088 0.897744 -1.8011 0
M  V30 27 H -4.55766 -0.211209 -1.33555 0
M  V30 28 H -3.49081 0.24505 1.77659 0
M  V30 29 H -3.06663 -1.56244 1.702 0
M  V30 30 H -4.55645 -0.961289 0.973771 0
M  V30 END ATOM
M  V30 BEGIN BOND
M  V30 1 1 1 2
M  V30 2 1 2 3
M  V30 3 1 3 4
M  V30 4 2 4 5
M  V30 5 1 5 6
M  V30 6 1 5 7
M  V30 7 1 7 8
M  V30 8 1 8 9
M  V30 9 2 9 10
M  V30 10 1 10 11
M  V30 11 2 11 12
M  V30 12 1 11 13
M  V30 13 1 13 14
M  V30 14 1 13 15
M  V30 15 1 13 16
M  V30 16 2 6 2
M  V30 17 1 12 8
M  V30 18 1 1 17
M  V30 19 1 1 18
M  V30 20 1 4 19
M  V30 21 1 7 20
M  V30 22 1 7 21
M  V30 23 1 12 22
M  V30 24 1 14 23
M  V30 25 1 14 24
M  V30 26 1 15 25
M  V30 27 1 15 26
M  V30 28 1 15 27
M  V30 29 1 16 28
M  V30 30 1 16 29
M  V30 31 1 16 30
M  V30 END BOND
M  V30 END CTAB
M  END
