
     RDKit          3D

  0  0  0  0  0  0  0  0  0  0999 V3000
M  V30 BEGIN CTAB
M  V30 COUNTS 12 12 0 0 0
M  V30 BEGIN ATOM
M  V30 1 N -0.0655305 -1.63146 -0.145577 0
M  V30 2 N 0.426034 -0.319375 0.0381422 0
M  V30 3 C 1.71865 -0.0244032 0.250914 0
M  V30 4 N 1.74443 1.30893 0.368895 0
M  V30 5 N 0.53963 1.82678 0.238504 0
M  V30 6 C -0.299191 0.805011 0.0292843 0
M  V30 7 N -1.68887 0.94469 -0.160311 0
M  V30 8 H 0.520597 -2.45195 0.025005 0
M  V30 9 H -1.04235 -1.76262 -0.460343 0
M  V30 10 H 2.56028 -0.696325 0.315431 0
M  V30 11 H -2.37779 0.849496 0.610178 0
M  V30 12 H -2.0359 1.15123 -1.11012 0
M  V30 END ATOM
M  V30 BEGIN BOND
M  V30 1 1 1 2
M  V30 2 1 2 3
M  V30 3 2 3 4
M  V30 4 1 4 5
M  V30 5 2 5 6
M  V30 6 1 6 7
M  V30 7 1 6 2
M  V30 8 1 1 8
M  V30 9 1 1 9
M  V30 10 1 3 10
M  V30 11 1 7 11
M  V30 12 1 7 12
M  V30 END BOND
M  V30 END CTAB
M  END
