
     RDKit          3D

  0  0  0  0  0  0  0  0  0  0999 V3000
M  V30 BEGIN CTAB
M  V30 COUNTS 35 36 0 0 0
M  V30 BEGIN ATOM
M  V30 1 Cl 3.30726 3.91951 0.680826 0
M  V30 2 C 3.3255 2.25417 0.121423 0
M  V30 3 C 4.47463 1.81147 -0.487968 0
M  V30 4 C 4.49523 0.51399 -0.926294 0
M  V30 5 F 5.61353 0.00997339 -1.54398 0
M  V30 6 C 3.39574 -0.291935 -0.750283 0
M  V30 7 C 2.23355 0.158158 -0.132818 0
M  V30 8 C 2.22864 1.43665 0.292038 0
M  V30 9 C 1.12491 -0.766556 -0.0279875 0
M  V30 10 O 1.33655 -1.94441 -0.616247 0
M  V30 11 N -0.116465 -0.708157 0.548134 0
M  V30 12 C -0.992635 -1.92402 0.366571 0
M  V30 13 C -2.32691 -1.4616 -0.17477 0
M  V30 14 N -2.93776 -0.409036 0.594269 0
M  V30 15 C -2.02293 0.743702 0.572249 0
M  V30 16 C -0.763414 0.283552 1.32368 0
M  V30 17 S -4.36183 0.0872762 -0.247563 0
M  V30 18 O -5.27244 -1.10557 -0.446349 0
M  V30 19 O -5.09362 1.16716 0.465587 0
M  V30 20 N -3.86573 0.68687 -1.78836 0
M  V30 21 N 3.46736 -1.64614 -1.22442 0
M  V30 22 H 5.3315 2.48334 -0.610402 0
M  V30 23 H 1.38745 1.88906 0.759988 0
M  V30 24 H -0.550554 -2.61984 -0.33312 0
M  V30 25 H -1.14842 -2.3219 1.37201 0
M  V30 26 H -2.20997 -1.08332 -1.21236 0
M  V30 27 H -3.0036 -2.33277 -0.138488 0
M  V30 28 H -1.80189 0.952366 -0.491396 0
M  V30 29 H -2.46385 1.59076 1.09169 0
M  V30 30 H -1.24356 -0.237071 2.24929 0
M  V30 31 H -0.249672 1.1362 1.69694 0
M  V30 32 H -4.42321 0.244747 -2.55097 0
M  V30 33 H -3.85465 1.72236 -1.83408 0
M  V30 34 H 3.75721 -2.41301 -0.59282 0
M  V30 35 H 3.22407 -1.826 -2.20009 0
M  V30 END ATOM
M  V30 BEGIN BOND
M  V30 1 1 1 2
M  V30 2 2 2 3
M  V30 3 1 3 4
M  V30 4 1 4 5
M  V30 5 2 4 6
M  V30 6 1 6 7
M  V30 7 2 7 8
M  V30 8 1 7 9
M  V30 9 2 9 10
M  V30 10 1 9 11
M  V30 11 1 11 12
M  V30 12 1 12 13
M  V30 13 1 13 14
M  V30 14 1 14 15
M  V30 15 1 15 16
M  V30 16 1 14 17
M  V30 17 2 17 18
M  V30 18 2 17 19
M  V30 19 1 17 20
M  V30 20 1 6 21
M  V30 21 1 8 2
M  V30 22 1 16 11
M  V30 23 1 3 22
M  V30 24 1 8 23
M  V30 25 1 12 24
M  V30 26 1 12 25
M  V30 27 1 13 26
M  V30 28 1 13 27
M  V30 29 1 15 28
M  V30 30 1 15 29
M  V30 31 1 16 30
M  V30 32 1 16 31
M  V30 33 1 20 32
M  V30 34 1 20 33
M  V30 35 1 21 34
M  V30 36 1 21 35
M  V30 END BOND
M  V30 END CTAB
M  END
