
     RDKit          3D

  0  0  0  0  0  0  0  0  0  0999 V3000
M  V30 BEGIN CTAB
M  V30 COUNTS 26 26 0 0 0
M  V30 BEGIN ATOM
M  V30 1 C -1.05834 3.0113 0.337053 0
M  V30 2 O -1.44755 1.66691 0.304438 0
M  V30 3 C -0.626184 0.605511 0.0516566 0
M  V30 4 C 0.709086 0.848065 -0.1967 0
M  V30 5 C 1.59658 -0.200021 -0.46166 0
M  V30 6 C 3.03884 0.0241141 -0.733062 0
M  V30 7 N 3.75152 -0.0184706 0.529359 0
M  V30 8 C 1.13118 -1.49725 -0.475247 0
M  V30 9 C -0.217425 -1.69531 -0.220526 0
M  V30 10 C -1.10253 -0.673281 0.0417891 0
M  V30 11 S -2.80158 -0.944394 0.360866 0
M  V30 12 O -3.65262 -0.181169 -0.585484 0
M  V30 13 O -3.0764 -0.458332 1.77335 0
M  V30 14 N -3.20977 -2.60157 0.306168 0
M  V30 15 H -0.339626 3.18846 -0.488323 0
M  V30 16 H -0.628094 3.22207 1.33661 0
M  V30 17 H -1.90646 3.71233 0.190562 0
M  V30 18 H 1.15474 1.83239 -0.204823 0
M  V30 19 H 3.20702 0.986452 -1.22824 0
M  V30 20 H 3.41932 -0.804351 -1.36309 0
M  V30 21 H 3.37622 0.733807 1.14288 0
M  V30 22 H 4.78313 0.0177333 0.409864 0
M  V30 23 H 1.80413 -2.33909 -0.68004 0
M  V30 24 H -0.604424 -2.6983 -0.225576 0
M  V30 25 H -4.15275 -2.72181 0.724644 0
M  V30 26 H -3.14799 -3.01579 -0.646472 0
M  V30 END ATOM
M  V30 BEGIN BOND
M  V30 1 1 1 2
M  V30 2 1 2 3
M  V30 3 2 3 4
M  V30 4 1 4 5
M  V30 5 1 5 6
M  V30 6 1 6 7
M  V30 7 2 5 8
M  V30 8 1 8 9
M  V30 9 2 9 10
M  V30 10 1 10 11
M  V30 11 2 11 12
M  V30 12 2 11 13
M  V30 13 1 11 14
M  V30 14 1 10 3
M  V30 15 1 1 15
M  V30 16 1 1 16
M  V30 17 1 1 17
M  V30 18 1 4 18
M  V30 19 1 6 19
M  V30 20 1 6 20
M  V30 21 1 7 21
M  V30 22 1 7 22
M  V30 23 1 8 23
M  V30 24 1 9 24
M  V30 25 1 14 25
M  V30 26 1 14 26
M  V30 END BOND
M  V30 END CTAB
M  END
