
     RDKit          3D

  0  0  0  0  0  0  0  0  0  0999 V3000
M  V30 BEGIN CTAB
M  V30 COUNTS 45 46 0 0 0
M  V30 BEGIN ATOM
M  V30 1 C -5.11438 -0.431197 -1.54465 0
M  V30 2 C -4.49267 -0.18983 -0.188866 0
M  V30 3 C -3.16651 -0.858233 -0.0310486 0
M  V30 4 C -2.66724 -0.526678 1.37556 0
M  V30 5 C -1.44463 -1.3209 1.74332 0
M  V30 6 C -0.698607 -1.60652 0.438153 0
M  V30 7 N -0.844481 -0.440415 -0.376265 0
M  V30 8 C -2.15688 -0.371613 -1.06466 0
M  V30 9 C 0.103042 0.556552 -0.51152 0
M  V30 10 O -0.206551 1.53035 -1.33641 0
M  V30 11 C 1.4223 0.747989 0.102949 0 CFG=2
M  V30 12 C 2.48063 0.854395 -0.98301 0
M  V30 13 C 3.84177 1.05165 -0.480782 0
M  V30 14 C 4.36972 2.29637 -0.194626 0
M  V30 15 C 5.6541 2.46925 0.26368 0
M  V30 16 C 6.47937 1.38588 0.458649 0
M  V30 17 C 5.98026 0.13232 0.181541 0
M  V30 18 C 4.67279 -0.0320641 -0.284202 0
M  V30 19 N 1.83611 -0.188941 1.06464 0
M  V30 20 N -5.39711 -0.766036 0.792097 0
M  V30 21 H -4.92282 -1.48391 -1.84228 0
M  V30 22 H -6.21788 -0.339182 -1.41317 0
M  V30 23 H -4.81174 0.310912 -2.28012 0
M  V30 24 H -4.43671 0.906428 0.00443465 0
M  V30 25 H -3.27044 -1.93528 -0.145199 0
M  V30 26 H -3.45202 -0.779325 2.11808 0
M  V30 27 H -2.40344 0.561385 1.42768 0
M  V30 28 H -1.71172 -2.3019 2.18468 0
M  V30 29 H -0.84042 -0.71213 2.42816 0
M  V30 30 H 0.294524 -2.01391 0.572977 0
M  V30 31 H -1.30341 -2.4393 -0.0802422 0
M  V30 32 H -2.15098 -1.0868 -1.88549 0
M  V30 33 H -2.35097 0.633934 -1.43924 0
M  V30 34 H 1.36325 1.80774 0.546492 0
M  V30 35 H 2.2 1.64576 -1.71064 0
M  V30 36 H 2.45399 -0.107488 -1.54274 0
M  V30 37 H 3.7285 3.14306 -0.345698 0
M  V30 38 H 6.01574 3.47811 0.472709 0
M  V30 39 H 7.48844 1.55192 0.821373 0
M  V30 40 H 6.63565 -0.710752 0.33782 0
M  V30 41 H 4.39812 -1.05901 -0.472723 0
M  V30 42 H 1.83394 0.0931317 2.04399 0
M  V30 43 H 2.41553 -0.97562 0.792145 0
M  V30 44 H -5.20597 -1.76708 0.9752 0
M  V30 45 H -6.40023 -0.713018 0.444714 0
M  V30 END ATOM
M  V30 BEGIN BOND
M  V30 1 1 1 2
M  V30 2 1 2 3
M  V30 3 1 3 4
M  V30 4 1 4 5
M  V30 5 1 5 6
M  V30 6 1 6 7
M  V30 7 1 7 8
M  V30 8 1 7 9
M  V30 9 2 9 10
M  V30 10 1 9 11
M  V30 11 1 11 12
M  V30 12 1 12 13
M  V30 13 2 13 14
M  V30 14 1 14 15
M  V30 15 2 15 16
M  V30 16 1 16 17
M  V30 17 2 17 18
M  V30 18 1 11 19
M  V30 19 1 2 20
M  V30 20 1 8 3
M  V30 21 1 18 13
M  V30 22 1 1 21
M  V30 23 1 1 22
M  V30 24 1 1 23
M  V30 25 1 2 24
M  V30 26 1 3 25
M  V30 27 1 4 26
M  V30 28 1 4 27
M  V30 29 1 5 28
M  V30 30 1 5 29
M  V30 31 1 6 30
M  V30 32 1 6 31
M  V30 33 1 8 32
M  V30 34 1 8 33
M  V30 35 1 11 34 CFG=1
M  V30 36 1 12 35
M  V30 37 1 12 36
M  V30 38 1 14 37
M  V30 39 1 15 38
M  V30 40 1 16 39
M  V30 41 1 17 40
M  V30 42 1 18 41
M  V30 43 1 19 42
M  V30 44 1 19 43
M  V30 45 1 20 44
M  V30 46 1 20 45
M  V30 END BOND
M  V30 END CTAB
M  END
