
     RDKit          3D

  0  0  0  0  0  0  0  0  0  0999 V3000
M  V30 BEGIN CTAB
M  V30 COUNTS 27 27 0 0 0
M  V30 BEGIN ATOM
M  V30 1 N -1.35986 -1.71928 -1.3206 0
M  V30 2 C -1.00994 -1.15928 -0.000731721 0
M  V30 3 C 0.3892 -0.762907 -0.0613414 0
M  V30 4 N 1.27174 -1.70231 -0.525606 0
M  V30 5 C 2.57432 -1.51309 -0.658518 0
M  V30 6 C 3.13137 -0.300028 -0.318494 0
M  V30 7 C 2.29013 0.685435 0.155443 0
M  V30 8 C 0.915863 0.448662 0.282452 0
M  V30 9 N 2.83947 1.94986 0.514681 0
M  V30 10 C -2.02896 -0.126593 0.294074 0
M  V30 11 C -1.91316 0.575581 1.6041 0
M  V30 12 C -2.17082 0.897747 -0.815795 0
M  V30 13 H -0.70435 -1.3534 -2.04151 0
M  V30 14 H -1.44426 -2.74011 -1.29842 0
M  V30 15 H -1.17248 -1.99802 0.736632 0
M  V30 16 H 3.24717 -2.30026 -1.03737 0
M  V30 17 H 4.20853 -0.135656 -0.425489 0
M  V30 18 H 0.350487 1.27846 0.651458 0
M  V30 19 H 2.86675 2.23461 1.51589 0
M  V30 20 H 3.22346 2.61915 -0.18477 0
M  V30 21 H -3.0253 -0.674277 0.296837 0
M  V30 22 H -1.07531 0.205938 2.2455 0
M  V30 23 H -1.86744 1.68547 1.44972 0
M  V30 24 H -2.8342 0.42975 2.22162 0
M  V30 25 H -1.61294 1.82951 -0.595328 0
M  V30 26 H -3.2338 1.20504 -0.895029 0
M  V30 27 H -1.85567 0.439982 -1.78941 0
M  V30 END ATOM
M  V30 BEGIN BOND
M  V30 1 1 1 2
M  V30 2 1 2 3
M  V30 3 2 3 4
M  V30 4 1 4 5
M  V30 5 2 5 6
M  V30 6 1 6 7
M  V30 7 2 7 8
M  V30 8 1 7 9
M  V30 9 1 2 10
M  V30 10 1 10 11
M  V30 11 1 10 12
M  V30 12 1 8 3
M  V30 13 1 1 13
M  V30 14 1 1 14
M  V30 15 1 2 15
M  V30 16 1 5 16
M  V30 17 1 6 17
M  V30 18 1 8 18
M  V30 19 1 9 19
M  V30 20 1 9 20
M  V30 21 1 10 21
M  V30 22 1 11 22
M  V30 23 1 11 23
M  V30 24 1 11 24
M  V30 25 1 12 25
M  V30 26 1 12 26
M  V30 27 1 12 27
M  V30 END BOND
M  V30 END CTAB
M  END
