
     RDKit          3D

  0  0  0  0  0  0  0  0  0  0999 V3000
M  V30 BEGIN CTAB
M  V30 COUNTS 142 147 0 0 0
M  V30 BEGIN ATOM
M  V30 1 C 6.95901 -2.30736 0.594327 0
M  V30 2 C 5.51182 -2.72684 0.45672 0
M  V30 3 O 5.26792 -3.63525 1.44687 0
M  V30 4 C 4.56915 -1.59308 0.305983 0 CFG=1
M  V30 5 N 3.20689 -1.89917 -0.0257747 0
M  V30 6 C 2.40264 -3.01146 0.105042 0
M  V30 7 O 2.11816 -3.6493 -0.992001 0
M  V30 8 C 1.78319 -3.63057 1.29656 0 CFG=2
M  V30 9 C 1.46781 -5.09966 1.09848 0
M  V30 10 C 2.62127 -5.97557 0.799781 0
M  V30 11 C 2.07093 -7.40255 0.63783 0
M  V30 12 C 3.24699 -8.30628 0.329401 0
M  V30 13 N 3.8435 -7.81162 -0.899457 0
M  V30 14 N 0.617276 -2.92105 1.80428 0
M  V30 15 C -0.410157 -2.28828 1.14902 0
M  V30 16 O -0.620365 -1.04444 1.42034 0
M  V30 17 C -1.37178 -2.81648 0.129188 0 CFG=1
M  V30 18 C -2.21418 -3.8928 0.730218 0
M  V30 19 C -3.1972 -4.49531 -0.190162 0
M  V30 20 C -4.5701 -4.36465 -0.0990758 0
M  V30 21 N -5.15986 -5.08142 -1.07162 0
M  V30 22 C -4.24094 -5.68506 -1.80748 0
M  V30 23 C -3.01169 -5.33091 -1.27191 0
M  V30 24 C -1.87936 -5.83302 -1.85969 0
M  V30 25 C -1.98269 -6.66829 -2.95782 0
M  V30 26 C -3.21856 -7.02046 -3.49163 0
M  V30 27 C -4.34879 -6.51665 -2.90028 0
M  V30 28 N -2.03767 -1.79883 -0.612811 0
M  V30 29 C -2.71921 -0.645598 -0.197927 0
M  V30 30 O -2.24816 0.503047 -0.539501 0
M  V30 31 C -3.96236 -0.535712 0.611593 0 CFG=2
M  V30 32 C -5.09692 -0.384578 -0.391892 0
M  V30 33 C -6.43555 -0.245289 0.207615 0
M  V30 34 C -7.25278 -1.31193 0.553941 0
M  V30 35 C -8.51712 -1.1247 1.09586 0
M  V30 36 C -8.98991 0.152404 1.30249 0
M  V30 37 C -8.20509 1.24162 0.969919 0
M  V30 38 C -6.97541 1.0129 0.442984 0
M  V30 39 N -3.9568 0.434994 1.65346 0
M  V30 40 C -3.32982 1.64326 1.83788 0
M  V30 41 O -2.45201 1.72513 2.77683 0
M  V30 42 C -3.49762 2.94906 1.10367 0 CFG=1
M  V30 43 C -4.53308 3.72323 1.91969 0
M  V30 44 C -4.85881 5.05589 1.34981 0
M  V30 45 C -5.84692 5.13373 0.390949 0
M  V30 46 C -6.17612 6.35973 -0.12647 0
M  V30 47 C -5.57686 7.54916 0.250251 0
M  V30 48 C -4.58088 7.42043 1.2257 0
M  V30 49 C -4.24391 6.2072 1.74809 0
M  V30 50 N -2.2206 3.63262 1.10466 0
M  V30 51 C -1.73584 4.60511 0.24653 0
M  V30 52 O -0.881451 5.44044 0.740777 0
M  V30 53 C -2.06101 4.82805 -1.18344 0 CFG=2
M  V30 54 N -1.3997 3.86877 -2.04634 0
M  V30 55 C -1.72039 6.2051 -1.65318 0
M  V30 56 S -0.0198439 6.40138 -2.22233 0
M  V30 57 S 1.31012 4.97005 -1.44725 0
M  V30 58 C 2.97475 5.57649 -1.17665 0
M  V30 59 C 3.67384 4.58298 -0.235422 0 CFG=2
M  V30 60 N 3.34647 3.2404 -0.651642 0
M  V30 61 C 4.23655 2.13383 -0.671409 0
M  V30 62 O 4.29191 1.47843 -1.77833 0
M  V30 63 C 5.05079 1.75687 0.508513 0 CFG=2
M  V30 64 C 6.5001 1.50136 0.198617 0
M  V30 65 C 7.21335 2.67614 -0.351715 0
M  V30 66 C 7.80721 3.53625 0.581279 0
M  V30 67 C 8.5037 4.65976 0.214649 0
M  V30 68 C 8.64487 4.98568 -1.12424 0
M  V30 69 C 8.06328 4.14354 -2.04335 0
M  V30 70 C 7.35527 3.00066 -1.65915 0
M  V30 71 N 4.42453 0.755537 1.33507 0
M  V30 72 C 4.64811 -0.60825 1.42527 0
M  V30 73 O 4.95009 -1.09046 2.57055 0
M  V30 74 C 3.20023 4.86238 1.14732 0
M  V30 75 O 3.42149 6.10441 1.74023 0
M  V30 76 O 2.59463 4.00402 1.81625 0
M  V30 77 H 7.57305 -3.20813 0.804226 0
M  V30 78 H 7.32052 -1.73083 -0.282769 0
M  V30 79 H 7.04374 -1.67096 1.49294 0
M  V30 80 H 5.50237 -3.28045 -0.552527 0
M  V30 81 H 5.57167 -4.53625 1.11857 0
M  V30 82 H 4.98918 -0.999806 -0.579822 0
M  V30 83 H 2.71218 -1.04074 -0.50222 0
M  V30 84 H 2.56286 -3.62566 2.09826 0
M  V30 85 H 0.725345 -5.20724 0.275816 0
M  V30 86 H 1.00197 -5.43612 2.06435 0
M  V30 87 H 3.16798 -5.66745 -0.0853131 0
M  V30 88 H 3.25652 -6.03224 1.71634 0
M  V30 89 H 1.56337 -7.73863 1.55846 0
M  V30 90 H 1.38826 -7.44925 -0.244328 0
M  V30 91 H 2.87587 -9.3604 0.161192 0
M  V30 92 H 3.94268 -8.30469 1.17576 0
M  V30 93 H 3.36782 -8.20656 -1.7342 0
M  V30 94 H 4.84718 -8.01822 -0.970107 0
M  V30 95 H 0.552126 -2.89161 2.8891 0
M  V30 96 H -0.695787 -3.38202 -0.579434 0
M  V30 97 H -1.54353 -4.71731 1.03986 0
M  V30 98 H -2.69418 -3.57155 1.69041 0
M  V30 99 H -5.10156 -3.79219 0.632323 0
M  V30 100 H -6.20491 -5.16876 -1.24655 0
M  V30 101 H -0.879657 -5.59201 -1.48143 0
M  V30 102 H -1.11424 -7.08619 -3.45177 0
M  V30 103 H -3.34352 -7.66387 -4.34014 0
M  V30 104 H -5.32343 -6.79025 -3.31404 0
M  V30 105 H -2.01085 -1.92667 -1.6922 0
M  V30 106 H -4.17572 -1.56894 1.05873 0
M  V30 107 H -4.94319 0.490281 -1.0526 0
M  V30 108 H -5.15647 -1.31 -1.03501 0
M  V30 109 H -6.90019 -2.30335 0.397559 0
M  V30 110 H -9.15163 -1.96238 1.36717 0
M  V30 111 H -9.96705 0.332513 1.71975 0
M  V30 112 H -8.55913 2.26528 1.12396 0
M  V30 113 H -6.37461 1.87075 0.184499 0
M  V30 114 H -4.58899 0.139609 2.50094 0
M  V30 115 H -3.93207 2.82674 0.1065 0
M  V30 116 H -5.47272 3.17638 2.0642 0
M  V30 117 H -4.11199 3.85848 2.94537 0
M  V30 118 H -6.37678 4.26071 0.0267833 0
M  V30 119 H -6.96568 6.42371 -0.892293 0
M  V30 120 H -5.86462 8.48952 -0.177832 0
M  V30 121 H -4.11121 8.36273 1.52348 0
M  V30 122 H -3.45965 6.182 2.50679 0
M  V30 123 H -1.56052 3.33293 1.8959 0
M  V30 124 H -3.16308 4.6891 -1.35315 0
M  V30 125 H -2.08058 3.20846 -2.5021 0
M  V30 126 H -0.805766 3.25885 -1.41321 0
M  V30 127 H -1.95547 6.96765 -0.865305 0
M  V30 128 H -2.38428 6.46082 -2.52225 0
M  V30 129 H 3.03012 6.55311 -0.64919 0
M  V30 130 H 3.50387 5.61193 -2.15078 0
M  V30 131 H 4.7348 4.8281 -0.269185 0
M  V30 132 H 2.33516 3.08804 -0.975395 0
M  V30 133 H 5.10242 2.74639 1.10943 0
M  V30 134 H 6.6357 0.685449 -0.547517 0
M  V30 135 H 6.98714 1.23688 1.16087 0
M  V30 136 H 7.7253 3.3273 1.65501 0
M  V30 137 H 8.95767 5.31846 0.947527 0
M  V30 138 H 9.1972 5.8759 -1.37847 0
M  V30 139 H 8.17217 4.39446 -3.08907 0
M  V30 140 H 6.92429 2.37117 -2.40686 0
M  V30 141 H 3.66092 1.17699 1.98271 0
M  V30 142 H 3.90129 6.12083 2.63089 0
M  V30 END ATOM
M  V30 BEGIN BOND
M  V30 1 1 1 2
M  V30 2 1 2 3
M  V30 3 1 2 4
M  V30 4 1 4 5
M  V30 5 1 5 6
M  V30 6 2 6 7
M  V30 7 1 6 8
M  V30 8 1 8 9
M  V30 9 1 9 10
M  V30 10 1 10 11
M  V30 11 1 11 12
M  V30 12 1 12 13
M  V30 13 1 8 14
M  V30 14 1 14 15
M  V30 15 2 15 16
M  V30 16 1 15 17
M  V30 17 1 17 18
M  V30 18 1 18 19
M  V30 19 2 19 20
M  V30 20 1 20 21
M  V30 21 1 21 22
M  V30 22 2 22 23
M  V30 23 1 23 24
M  V30 24 2 24 25
M  V30 25 1 25 26
M  V30 26 2 26 27
M  V30 27 1 17 28
M  V30 28 1 28 29
M  V30 29 2 29 30
M  V30 30 1 29 31
M  V30 31 1 31 32
M  V30 32 1 32 33
M  V30 33 2 33 34
M  V30 34 1 34 35
M  V30 35 2 35 36
M  V30 36 1 36 37
M  V30 37 2 37 38
M  V30 38 1 31 39
M  V30 39 1 39 40
M  V30 40 2 40 41
M  V30 41 1 40 42
M  V30 42 1 42 43
M  V30 43 1 43 44
M  V30 44 2 44 45
M  V30 45 1 45 46
M  V30 46 2 46 47
M  V30 47 1 47 48
M  V30 48 2 48 49
M  V30 49 1 42 50
M  V30 50 1 50 51
M  V30 51 2 51 52
M  V30 52 1 51 53
M  V30 53 1 53 54
M  V30 54 1 53 55
M  V30 55 1 55 56
M  V30 56 1 56 57
M  V30 57 1 57 58
M  V30 58 1 58 59
M  V30 59 1 59 60
M  V30 60 1 60 61
M  V30 61 2 61 62
M  V30 62 1 61 63
M  V30 63 1 63 64
M  V30 64 1 64 65
M  V30 65 2 65 66
M  V30 66 1 66 67
M  V30 67 2 67 68
M  V30 68 1 68 69
M  V30 69 2 69 70
M  V30 70 1 63 71
M  V30 71 1 71 72
M  V30 72 2 72 73
M  V30 73 1 59 74
M  V30 74 1 74 75
M  V30 75 2 74 76
M  V30 76 1 72 4
M  V30 77 1 23 19
M  V30 78 1 38 33
M  V30 79 1 49 44
M  V30 80 1 70 65
M  V30 81 1 27 22
M  V30 82 1 1 77
M  V30 83 1 1 78
M  V30 84 1 1 79
M  V30 85 1 2 80
M  V30 86 1 3 81
M  V30 87 1 4 82 CFG=3
M  V30 88 1 5 83
M  V30 89 1 8 84 CFG=1
M  V30 90 1 9 85
M  V30 91 1 9 86
M  V30 92 1 10 87
M  V30 93 1 10 88
M  V30 94 1 11 89
M  V30 95 1 11 90
M  V30 96 1 12 91
M  V30 97 1 12 92
M  V30 98 1 13 93
M  V30 99 1 13 94
M  V30 100 1 14 95
M  V30 101 1 17 96 CFG=3
M  V30 102 1 18 97
M  V30 103 1 18 98
M  V30 104 1 20 99
M  V30 105 1 21 100
M  V30 106 1 24 101
M  V30 107 1 25 102
M  V30 108 1 26 103
M  V30 109 1 27 104
M  V30 110 1 28 105
M  V30 111 1 31 106 CFG=1
M  V30 112 1 32 107
M  V30 113 1 32 108
M  V30 114 1 34 109
M  V30 115 1 35 110
M  V30 116 1 36 111
M  V30 117 1 37 112
M  V30 118 1 38 113
M  V30 119 1 39 114
M  V30 120 1 42 115 CFG=3
M  V30 121 1 43 116
M  V30 122 1 43 117
M  V30 123 1 45 118
M  V30 124 1 46 119
M  V30 125 1 47 120
M  V30 126 1 48 121
M  V30 127 1 49 122
M  V30 128 1 50 123
M  V30 129 1 53 124 CFG=1
M  V30 130 1 54 125
M  V30 131 1 54 126
M  V30 132 1 55 127
M  V30 133 1 55 128
M  V30 134 1 58 129
M  V30 135 1 58 130
M  V30 136 1 59 131 CFG=1
M  V30 137 1 60 132
M  V30 138 1 63 133 CFG=1
M  V30 139 1 64 134
M  V30 140 1 64 135
M  V30 141 1 66 136
M  V30 142 1 67 137
M  V30 143 1 68 138
M  V30 144 1 69 139
M  V30 145 1 70 140
M  V30 146 1 71 141
M  V30 147 1 75 142
M  V30 END BOND
M  V30 END CTAB
M  END
