
     RDKit          3D

  0  0  0  0  0  0  0  0  0  0999 V3000
M  V30 BEGIN CTAB
M  V30 COUNTS 31 32 0 0 0
M  V30 BEGIN ATOM
M  V30 1 C -3.05142 -1.96474 0.066275 0
M  V30 2 C -3.20968 -0.514229 0.118537 0
M  V30 3 C -4.50809 -0.0369475 0.362574 0
M  V30 4 C -4.7695 1.30642 0.46388 0
M  V30 5 C -3.71438 2.16975 0.317954 0
M  V30 6 F -3.94877 3.50352 0.414006 0
M  V30 7 C -2.47337 1.69734 0.0834529 0
M  V30 8 C -2.15116 0.330148 -0.0301089 0
M  V30 9 C -0.7839 -0.0410291 -0.326822 0
M  V30 10 C -0.23826 -1.21967 -0.667229 0
M  V30 11 C 1.15938 -1.04761 -0.855665 0
M  V30 12 C 1.34449 0.291265 -0.599571 0
M  V30 13 O 0.217679 0.837576 -0.30106 0
M  V30 14 C 2.64274 0.952558 -0.667815 0
M  V30 15 O 2.73944 2.18849 -0.41942 0
M  V30 16 N 3.82987 0.270026 -1.00517 0
M  V30 17 C 4.79707 0.0297585 -0.200528 0
M  V30 18 N 5.92558 -0.667466 -0.686626 0
M  V30 19 N 4.77254 0.438865 1.15657 0
M  V30 20 H -3.98101 -2.45671 0.506266 0
M  V30 21 H -2.96506 -2.40138 -0.930161 0
M  V30 22 H -2.26885 -2.31117 0.80466 0
M  V30 23 H -5.32746 -0.727375 0.474858 0
M  V30 24 H -5.77123 1.67719 0.652217 0
M  V30 25 H -1.66114 2.395 -0.02812 0
M  V30 26 H -0.676548 -2.18462 -0.817145 0
M  V30 27 H 1.86735 -1.81602 -1.13383 0
M  V30 28 H 6.02269 -1.69382 -0.561894 0
M  V30 29 H 6.67264 -0.140169 -1.17886 0
M  V30 30 H 4.47526 -0.258289 1.87175 0
M  V30 31 H 5.03309 1.39334 1.48525 0
M  V30 END ATOM
M  V30 BEGIN BOND
M  V30 1 1 1 2
M  V30 2 2 2 3
M  V30 3 1 3 4
M  V30 4 2 4 5
M  V30 5 1 5 6
M  V30 6 1 5 7
M  V30 7 2 7 8
M  V30 8 1 8 9
M  V30 9 2 9 10
M  V30 10 1 10 11
M  V30 11 2 11 12
M  V30 12 1 12 13
M  V30 13 1 12 14
M  V30 14 2 14 15
M  V30 15 1 14 16
M  V30 16 2 16 17
M  V30 17 1 17 18
M  V30 18 1 17 19
M  V30 19 1 8 2
M  V30 20 1 13 9
M  V30 21 1 1 20
M  V30 22 1 1 21
M  V30 23 1 1 22
M  V30 24 1 3 23
M  V30 25 1 4 24
M  V30 26 1 7 25
M  V30 27 1 10 26
M  V30 28 1 11 27
M  V30 29 1 18 28
M  V30 30 1 18 29
M  V30 31 1 19 30
M  V30 32 1 19 31
M  V30 END BOND
M  V30 END CTAB
M  END
