
     RDKit          3D

  0  0  0  0  0  0  0  0  0  0999 V3000
M  V30 BEGIN CTAB
M  V30 COUNTS 38 39 0 0 0
M  V30 BEGIN ATOM
M  V30 1 N 6.64223 -1.423 0.879385 0
M  V30 2 P 5.68978 -0.0388886 1.37857 0
M  V30 3 S 5.85882 0.109393 3.09039 0
M  V30 4 O 4.0967 -0.295586 0.951144 0
M  V30 5 C 3.97358 -0.896324 -0.307616 0
M  V30 6 C 2.49346 -1.09846 -0.628054 0
M  V30 7 O 1.8746 0.197219 -0.623137 0
M  V30 8 C 0.520702 0.235925 -0.893781 0
M  V30 9 C -0.233041 -0.892719 -1.16022 0
M  V30 10 C -1.58172 -0.784945 -1.42286 0
M  V30 11 C -2.23853 0.431096 -1.43366 0
M  V30 12 C -1.48165 1.55373 -1.16719 0
M  V30 13 C -0.11774 1.45801 -0.900251 0
M  V30 14 O -3.59575 0.483101 -1.70365 0
M  V30 15 C -4.58217 0.40153 -0.754019 0
M  V30 16 C -5.89369 0.469151 -1.18204 0
M  V30 17 C -6.92953 0.391982 -0.266343 0
M  V30 18 C -6.6428 0.248336 1.06452 0
M  V30 19 C -5.33598 0.181513 1.48569 0
M  V30 20 C -4.31059 0.258496 0.573535 0
M  V30 21 N 6.3837 1.37164 0.619673 0
M  V30 22 H 6.9971 -1.34229 -0.0889913 0
M  V30 23 H 6.17874 -2.31858 1.10356 0
M  V30 24 H 4.39016 -0.257629 -1.09729 0
M  V30 25 H 4.47074 -1.88904 -0.311717 0
M  V30 26 H 2.36041 -1.48864 -1.65684 0
M  V30 27 H 2.00422 -1.79476 0.0601175 0
M  V30 28 H 0.248313 -1.87344 -1.16132 0
M  V30 29 H -2.19111 -1.67392 -1.63591 0
M  V30 30 H -1.99479 2.50688 -1.17531 0
M  V30 31 H 0.400282 2.38436 -0.701992 0
M  V30 32 H -6.17608 0.582615 -2.2238 0
M  V30 33 H -7.94151 0.443657 -0.591934 0
M  V30 34 H -7.42283 0.183644 1.8171 0
M  V30 35 H -5.05216 0.0675171 2.53234 0
M  V30 36 H -3.28513 0.205112 0.913086 0
M  V30 37 H 5.74509 1.80291 -0.0899942 0
M  V30 38 H 6.67818 2.1004 1.28604 0
M  V30 END ATOM
M  V30 BEGIN BOND
M  V30 1 1 1 2
M  V30 2 2 2 3
M  V30 3 1 2 4
M  V30 4 1 4 5
M  V30 5 1 5 6
M  V30 6 1 6 7
M  V30 7 1 7 8
M  V30 8 2 8 9
M  V30 9 1 9 10
M  V30 10 2 10 11
M  V30 11 1 11 12
M  V30 12 2 12 13
M  V30 13 1 11 14
M  V30 14 1 14 15
M  V30 15 2 15 16
M  V30 16 1 16 17
M  V30 17 2 17 18
M  V30 18 1 18 19
M  V30 19 2 19 20
M  V30 20 1 2 21
M  V30 21 1 13 8
M  V30 22 1 20 15
M  V30 23 1 1 22
M  V30 24 1 1 23
M  V30 25 1 5 24
M  V30 26 1 5 25
M  V30 27 1 6 26
M  V30 28 1 6 27
M  V30 29 1 9 28
M  V30 30 1 10 29
M  V30 31 1 12 30
M  V30 32 1 13 31
M  V30 33 1 16 32
M  V30 34 1 17 33
M  V30 35 1 18 34
M  V30 36 1 19 35
M  V30 37 1 20 36
M  V30 38 1 21 37
M  V30 39 1 21 38
M  V30 END BOND
M  V30 END CTAB
M  END
