
     RDKit          3D

  0  0  0  0  0  0  0  0  0  0999 V3000
M  V30 BEGIN CTAB
M  V30 COUNTS 54 56 0 0 0
M  V30 BEGIN ATOM
M  V30 1 C -4.22113 2.2634 1.26939 0
M  V30 2 C -4.56205 0.944993 1.88421 0
M  V30 3 C -5.23525 0.0973961 0.901901 0
M  V30 4 C -4.54372 -0.563874 -0.0653698 0
M  V30 5 C -5.26303 -1.34568 -0.946723 0
M  V30 6 N -4.53477 -2.03718 -1.95982 0
M  V30 7 N -6.61125 -1.44667 -0.846844 0
M  V30 8 C -7.25608 -0.784732 0.113391 0
M  V30 9 N -8.68351 -0.854941 0.264153 0
M  V30 10 N -6.59383 -0.0176124 0.985434 0
M  V30 11 C -3.10427 -0.420459 -0.13813 0
M  V30 12 C -2.45618 0.456007 -0.946844 0
M  V30 13 C -1.05904 0.567604 -0.976139 0
M  V30 14 C -0.328823 -0.241118 -0.158246 0
M  V30 15 N 1.09633 -0.232552 -0.163372 0
M  V30 16 C 1.83425 -1.04308 0.818545 0
M  V30 17 C 3.2867 -0.777449 0.620593 0
M  V30 18 C 3.70771 0.499211 0.307009 0
M  V30 19 C 5.06701 0.771148 0.115727 0
M  V30 20 C 6.02416 -0.206372 0.23047 0
M  V30 21 C 5.58258 -1.48594 0.54681 0
M  V30 22 C 4.24394 -1.75969 0.736365 0
M  V30 23 C 7.45824 0.0278322 0.0312833 0
M  V30 24 O 8.2833 -0.828833 0.397072 0
M  V30 25 N 7.86607 1.22939 -0.576189 0
M  V30 26 C 9.28006 1.47124 -0.77466 0
M  V30 27 C -0.973104 -1.16385 0.69612 0
M  V30 28 C -2.34329 -1.22835 0.682855 0
M  V30 29 N -0.502803 1.54205 -1.88339 0 CHG=1
M  V30 30 O 0.661013 2.15864 -1.5968 0 CHG=-1
M  V30 31 O -1.10864 1.81703 -2.94946 0
M  V30 32 H -4.79515 3.05885 1.83961 0
M  V30 33 H -4.66233 2.30993 0.25429 0
M  V30 34 H -3.13526 2.49502 1.30048 0
M  V30 35 H -3.68123 0.449925 2.35728 0
M  V30 36 H -5.24519 1.13698 2.7671 0
M  V30 37 H -4.09484 -1.45649 -2.70586 0
M  V30 38 H -4.43243 -3.06164 -1.97795 0
M  V30 39 H -9.14261 -1.75252 -0.00605622 0
M  V30 40 H -9.24676 -0.0759913 0.617072 0
M  V30 41 H -3.02483 1.10419 -1.60308 0
M  V30 42 H 1.59733 0.321192 -0.870509 0
M  V30 43 H 1.58447 -2.11786 0.745525 0
M  V30 44 H 1.54046 -0.652848 1.81347 0
M  V30 45 H 2.98703 1.30005 0.210243 0
M  V30 46 H 5.37122 1.76815 -0.12436 0
M  V30 47 H 6.34801 -2.24684 0.63392 0
M  V30 48 H 3.95292 -2.76729 0.979545 0
M  V30 49 H 7.20657 1.96315 -0.896663 0
M  V30 50 H 9.49204 1.62067 -1.85575 0
M  V30 51 H 9.63602 2.34352 -0.173342 0
M  V30 52 H 9.88978 0.58858 -0.43717 0
M  V30 53 H -0.352416 -1.7844 1.3284 0
M  V30 54 H -2.80337 -1.95191 1.3551 0
M  V30 END ATOM
M  V30 BEGIN BOND
M  V30 1 1 1 2
M  V30 2 1 2 3
M  V30 3 2 3 4
M  V30 4 1 4 5
M  V30 5 1 5 6
M  V30 6 2 5 7
M  V30 7 1 7 8
M  V30 8 1 8 9
M  V30 9 2 8 10
M  V30 10 1 4 11
M  V30 11 2 11 12
M  V30 12 1 12 13
M  V30 13 2 13 14
M  V30 14 1 14 15
M  V30 15 1 15 16
M  V30 16 1 16 17
M  V30 17 2 17 18
M  V30 18 1 18 19
M  V30 19 2 19 20
M  V30 20 1 20 21
M  V30 21 2 21 22
M  V30 22 1 20 23
M  V30 23 2 23 24
M  V30 24 1 23 25
M  V30 25 1 25 26
M  V30 26 1 14 27
M  V30 27 2 27 28
M  V30 28 1 13 29
M  V30 29 1 29 30
M  V30 30 2 29 31
M  V30 31 1 10 3
M  V30 32 1 28 11
M  V30 33 1 22 17
M  V30 34 1 1 32
M  V30 35 1 1 33
M  V30 36 1 1 34
M  V30 37 1 2 35
M  V30 38 1 2 36
M  V30 39 1 6 37
M  V30 40 1 6 38
M  V30 41 1 9 39
M  V30 42 1 9 40
M  V30 43 1 12 41
M  V30 44 1 15 42
M  V30 45 1 16 43
M  V30 46 1 16 44
M  V30 47 1 18 45
M  V30 48 1 19 46
M  V30 49 1 21 47
M  V30 50 1 22 48
M  V30 51 1 25 49
M  V30 52 1 26 50
M  V30 53 1 26 51
M  V30 54 1 26 52
M  V30 55 1 27 53
M  V30 56 1 28 54
M  V30 END BOND
M  V30 END CTAB
M  END
