
     RDKit          3D

  0  0  0  0  0  0  0  0  0  0999 V3000
M  V30 BEGIN CTAB
M  V30 COUNTS 45 45 0 0 0
M  V30 BEGIN ATOM
M  V30 1 N -2.26083 3.62471 0.505228 0
M  V30 2 C -2.04862 2.41672 1.28187 0
M  V30 3 C -1.30699 1.45442 0.285382 0
M  V30 4 N -0.126479 2.2048 -0.0131033 0
M  V30 5 S 0.790686 1.90642 -1.35481 0
M  V30 6 O 1.9468 2.87331 -1.5335 0
M  V30 7 O -0.0602893 2.06147 -2.60231 0
M  V30 8 C 1.47206 0.305043 -1.38832 0
M  V30 9 C 0.999465 -0.690439 -2.23091 0
M  V30 10 C 1.55499 -1.94273 -2.24687 0
M  V30 11 C 2.61042 -2.25494 -1.41846 0
M  V30 12 C 3.10741 -1.28531 -0.564458 0
M  V30 13 C 2.53799 -0.0333275 -0.561246 0
M  V30 14 S 4.45017 -1.70559 0.479851 0
M  V30 15 O 5.26651 -2.74831 -0.22938 0
M  V30 16 O 5.32643 -0.527183 0.752075 0
M  V30 17 N 3.87411 -2.32347 1.97833 0
M  V30 18 C -0.982625 0.203739 1.01219 0
M  V30 19 C -2.09863 -0.574592 1.61283 0
M  V30 20 C -1.39896 -1.77887 2.30687 0
M  V30 21 C -3.06866 -1.20889 0.65918 0
M  V30 22 C -2.21971 1.28322 -0.875662 0
M  V30 23 H -2.18513 4.43384 1.15525 0
M  V30 24 H -3.21621 3.60815 0.0997467 0
M  V30 25 H -1.35473 2.64532 2.09975 0
M  V30 26 H -3.01407 2.00568 1.55903 0
M  V30 27 H 0.266 2.74762 0.762064 0
M  V30 28 H 0.180524 -0.460603 -2.87887 0
M  V30 29 H 1.18633 -2.73654 -2.91134 0
M  V30 30 H 3.02639 -3.25264 -1.45533 0
M  V30 31 H 2.93984 0.727683 0.119718 0
M  V30 32 H 4.67539 -2.83082 2.44382 0
M  V30 33 H 3.60634 -1.55509 2.63835 0
M  V30 34 H -0.397442 -0.496183 0.398685 0
M  V30 35 H -0.283 0.478226 1.87115 0
M  V30 36 H -2.61172 -0.0434123 2.44618 0
M  V30 37 H -0.995748 -2.45248 1.53069 0
M  V30 38 H -2.18667 -2.27845 2.87816 0
M  V30 39 H -0.555849 -1.40289 2.89456 0
M  V30 40 H -2.68368 -1.32524 -0.366576 0
M  V30 41 H -3.34066 -2.25622 0.986175 0
M  V30 42 H -4.07227 -0.689741 0.679675 0
M  V30 43 H -1.81719 0.484695 -1.53971 0
M  V30 44 H -2.26347 2.25984 -1.45132 0
M  V30 45 H -3.26819 1.12904 -0.562734 0
M  V30 END ATOM
M  V30 BEGIN BOND
M  V30 1 1 1 2
M  V30 2 1 2 3
M  V30 3 1 3 4
M  V30 4 1 4 5
M  V30 5 2 5 6
M  V30 6 2 5 7
M  V30 7 1 5 8
M  V30 8 2 8 9
M  V30 9 1 9 10
M  V30 10 2 10 11
M  V30 11 1 11 12
M  V30 12 2 12 13
M  V30 13 1 12 14
M  V30 14 2 14 15
M  V30 15 2 14 16
M  V30 16 1 14 17
M  V30 17 1 3 18
M  V30 18 1 18 19
M  V30 19 1 19 20
M  V30 20 1 19 21
M  V30 21 1 3 22
M  V30 22 1 13 8
M  V30 23 1 1 23
M  V30 24 1 1 24
M  V30 25 1 2 25
M  V30 26 1 2 26
M  V30 27 1 4 27
M  V30 28 1 9 28
M  V30 29 1 10 29
M  V30 30 1 11 30
M  V30 31 1 13 31
M  V30 32 1 17 32
M  V30 33 1 17 33
M  V30 34 1 18 34
M  V30 35 1 18 35
M  V30 36 1 19 36
M  V30 37 1 20 37
M  V30 38 1 20 38
M  V30 39 1 20 39
M  V30 40 1 21 40
M  V30 41 1 21 41
M  V30 42 1 21 42
M  V30 43 1 22 43
M  V30 44 1 22 44
M  V30 45 1 22 45
M  V30 END BOND
M  V30 END CTAB
M  END
