
     RDKit          3D

  0  0  0  0  0  0  0  0  0  0999 V3000
M  V30 BEGIN CTAB
M  V30 COUNTS 14 13 0 0 0
M  V30 BEGIN ATOM
M  V30 1 N -1.3043 1.21619 -0.361822 0
M  V30 2 C -0.386482 0.0931416 -0.557728 0
M  V30 3 C 0.75999 0.308131 0.404241 0
M  V30 4 N 1.75413 -0.741745 0.316002 0 CHG=1
M  V30 5 O 2.94857 -0.541994 0.0149875 0
M  V30 6 O 1.38772 -2.04191 0.57366 0 CHG=-1
M  V30 7 N -1.12095 -1.10373 -0.274464 0
M  V30 8 H -1.40456 1.33988 0.67744 0
M  V30 9 H -0.821691 2.06671 -0.750821 0
M  V30 10 H -0.0289401 0.0333193 -1.60176 0
M  V30 11 H 1.26629 1.27746 0.221734 0
M  V30 12 H 0.380643 0.354891 1.44518 0
M  V30 13 H -1.42849 -1.16711 0.729399 0
M  V30 14 H -2.00193 -1.09323 -0.836046 0
M  V30 END ATOM
M  V30 BEGIN BOND
M  V30 1 1 1 2
M  V30 2 1 2 3
M  V30 3 1 3 4
M  V30 4 2 4 5
M  V30 5 1 4 6
M  V30 6 1 2 7
M  V30 7 1 1 8
M  V30 8 1 1 9
M  V30 9 1 2 10
M  V30 10 1 3 11
M  V30 11 1 3 12
M  V30 12 1 7 13
M  V30 13 1 7 14
M  V30 END BOND
M  V30 END CTAB
M  END
