
     RDKit          3D

  0  0  0  0  0  0  0  0  0  0999 V3000
M  V30 BEGIN CTAB
M  V30 COUNTS 31 31 0 0 0
M  V30 BEGIN ATOM
M  V30 1 O 4.56909 -0.79529 0.319327 0
M  V30 2 C 3.22295 -0.417705 0.360845 0
M  V30 3 C 2.94638 0.769462 -0.566285 0
M  V30 4 C 1.56151 1.26661 -0.211003 0
M  V30 5 N 0.748324 0.273091 0.394331 0
M  V30 6 C 0.909881 -1.06444 -0.0876077 0
M  V30 7 C 2.32193 -1.53561 -0.130216 0
M  V30 8 C -0.579418 0.636377 0.624532 0
M  V30 9 C -1.48137 0.814705 -0.573827 0
M  V30 10 N -2.78722 1.17823 0.00438828 0
M  V30 11 C -3.72594 0.279544 0.0986187 0
M  V30 12 N -4.98509 0.629095 0.657266 0
M  V30 13 N -3.5405 -1.0532 -0.338647 0
M  V30 14 H 4.86464 -0.962358 -0.608334 0
M  V30 15 H 2.97777 -0.167236 1.41418 0
M  V30 16 H 2.9278 0.387764 -1.58818 0
M  V30 17 H 3.72139 1.53514 -0.476928 0
M  V30 18 H 1.08488 1.83723 -1.03325 0
M  V30 19 H 1.75753 2.05022 0.581946 0
M  V30 20 H 0.348572 -1.72213 0.617505 0
M  V30 21 H 0.44749 -1.23787 -1.08298 0
M  V30 22 H 2.48539 -2.47415 0.445784 0
M  V30 23 H 2.66043 -1.75184 -1.17145 0
M  V30 24 H -0.61557 1.63471 1.14884 0
M  V30 25 H -1.10289 -0.0517275 1.33598 0
M  V30 26 H -1.20824 1.6779 -1.19563 0
M  V30 27 H -1.64073 -0.0835659 -1.16648 0
M  V30 28 H -5.33665 0.0839041 1.48463 0
M  V30 29 H -5.60513 1.38964 0.309717 0
M  V30 30 H -3.06833 -1.75659 0.252303 0
M  V30 31 H -3.87889 -1.36993 -1.27291 0
M  V30 END ATOM
M  V30 BEGIN BOND
M  V30 1 1 1 2
M  V30 2 1 2 3
M  V30 3 1 3 4
M  V30 4 1 4 5
M  V30 5 1 5 6
M  V30 6 1 6 7
M  V30 7 1 5 8
M  V30 8 1 8 9
M  V30 9 1 9 10
M  V30 10 2 10 11 CFG=2
M  V30 11 1 11 12
M  V30 12 1 11 13
M  V30 13 1 7 2
M  V30 14 1 1 14
M  V30 15 1 2 15
M  V30 16 1 3 16
M  V30 17 1 3 17
M  V30 18 1 4 18
M  V30 19 1 4 19
M  V30 20 1 6 20
M  V30 21 1 6 21
M  V30 22 1 7 22
M  V30 23 1 7 23
M  V30 24 1 8 24
M  V30 25 1 8 25
M  V30 26 1 9 26
M  V30 27 1 9 27
M  V30 28 1 12 28
M  V30 29 1 12 29
M  V30 30 1 13 30
M  V30 31 1 13 31
M  V30 END BOND
M  V30 END CTAB
M  END
