
     RDKit          3D

  0  0  0  0  0  0  0  0  0  0999 V3000
M  V30 BEGIN CTAB
M  V30 COUNTS 28 29 0 0 0
M  V30 BEGIN ATOM
M  V30 1 N 4.85089 1.18184 -0.33184 0
M  V30 2 C 3.64841 0.428014 -0.235516 0
M  V30 3 C 3.11728 0.203972 1.02973 0
M  V30 4 C 1.95058 -0.529694 1.09778 0
M  V30 5 C 1.32612 -1.02639 -0.0333955 0
M  V30 6 C 1.86993 -0.791981 -1.27253 0
M  V30 7 C 3.02561 -0.067194 -1.3618 0
M  V30 8 S -0.16514 -1.9571 0.132935 0
M  V30 9 O -0.250535 -2.96513 -0.956902 0
M  V30 10 O -0.135375 -2.57733 1.50033 0
M  V30 11 C -1.52567 -0.853244 0.0612535 0
M  V30 12 C -2.49924 -0.957523 -0.905983 0
M  V30 13 C -3.54662 -0.092634 -0.945686 0
M  V30 14 C -3.6259 0.917483 0.0189537 0
M  V30 15 N -4.69275 1.83971 0.0207709 0
M  V30 16 C -2.64691 1.01861 0.987764 0
M  V30 17 N -1.64257 0.129191 0.964302 0
M  V30 18 H 5.5438 0.99232 -1.08932 0
M  V30 19 H 5.07747 1.93655 0.339311 0
M  V30 20 H 3.6124 0.597949 1.92831 0
M  V30 21 H 1.51219 -0.719419 2.08804 0
M  V30 22 H 1.39069 -1.17461 -2.15676 0
M  V30 23 H 3.48561 0.138771 -2.32365 0
M  V30 24 H -2.45042 -1.73534 -1.6596 0
M  V30 25 H -4.34584 -0.116737 -1.6767 0
M  V30 26 H -4.5463 2.80409 -0.330907 0
M  V30 27 H -5.62482 1.56866 0.369202 0
M  V30 28 H -2.71289 1.80715 1.73719 0
M  V30 END ATOM
M  V30 BEGIN BOND
M  V30 1 1 1 2
M  V30 2 2 2 3
M  V30 3 1 3 4
M  V30 4 2 4 5
M  V30 5 1 5 6
M  V30 6 2 6 7
M  V30 7 1 5 8
M  V30 8 2 8 9
M  V30 9 2 8 10
M  V30 10 1 8 11
M  V30 11 2 11 12
M  V30 12 1 12 13
M  V30 13 2 13 14
M  V30 14 1 14 15
M  V30 15 1 14 16
M  V30 16 2 16 17
M  V30 17 1 7 2
M  V30 18 1 17 11
M  V30 19 1 1 18
M  V30 20 1 1 19
M  V30 21 1 3 20
M  V30 22 1 4 21
M  V30 23 1 6 22
M  V30 24 1 7 23
M  V30 25 1 12 24
M  V30 26 1 13 25
M  V30 27 1 15 26
M  V30 28 1 15 27
M  V30 29 1 16 28
M  V30 END BOND
M  V30 END CTAB
M  END
