
     RDKit          3D

  0  0  0  0  0  0  0  0  0  0999 V3000
M  V30 BEGIN CTAB
M  V30 COUNTS 24 24 0 0 0
M  V30 BEGIN ATOM
M  V30 1 N -2.76647 -0.551385 1.06317 0
M  V30 2 C -3.23219 0.241938 -0.00491987 0
M  V30 3 C -2.37868 0.0355383 -1.22943 0
M  V30 4 N -0.995407 0.393785 -0.978143 0
M  V30 5 N -0.387718 1.56239 -1.13008 0
M  V30 6 N 0.899821 1.43879 -0.777629 0
M  V30 7 C 1.11543 0.161669 -0.39267 0
M  V30 8 C -0.0782843 -0.474768 -0.524609 0
M  V30 9 C 2.38477 -0.449327 0.0817477 0 CFG=1
M  V30 10 N 3.4358 -0.00375707 -0.813408 0
M  V30 11 C 2.68713 -0.0694498 1.51433 0
M  V30 12 H -3.14859 -1.49246 1.10627 0
M  V30 13 H -2.54503 -0.142885 1.92714 0
M  V30 14 H -3.29478 1.32108 0.232913 0
M  V30 15 H -4.25824 -0.0959385 -0.260718 0
M  V30 16 H -2.79768 0.686225 -2.02834 0
M  V30 17 H -2.43316 -1.03078 -1.51568 0
M  V30 18 H -0.257156 -1.51689 -0.298793 0
M  V30 19 H 2.29496 -1.55197 0.0364838 0
M  V30 20 H 4.34621 0.0552824 -0.337949 0
M  V30 21 H 3.18624 0.907369 -1.23753 0
M  V30 22 H 1.92232 -0.516642 2.16719 0
M  V30 23 H 2.61475 1.03788 1.63353 0
M  V30 24 H 3.68595 -0.451624 1.76713 0
M  V30 END ATOM
M  V30 BEGIN BOND
M  V30 1 1 1 2
M  V30 2 1 2 3
M  V30 3 1 3 4
M  V30 4 1 4 5
M  V30 5 2 5 6
M  V30 6 1 6 7
M  V30 7 2 7 8
M  V30 8 1 7 9
M  V30 9 1 9 10
M  V30 10 1 9 11
M  V30 11 1 8 4
M  V30 12 1 1 12
M  V30 13 1 1 13
M  V30 14 1 2 14
M  V30 15 1 2 15
M  V30 16 1 3 16
M  V30 17 1 3 17
M  V30 18 1 8 18
M  V30 19 1 9 19 CFG=1
M  V30 20 1 10 20
M  V30 21 1 10 21
M  V30 22 1 11 22
M  V30 23 1 11 23
M  V30 24 1 11 24
M  V30 END BOND
M  V30 END CTAB
M  END
