
     RDKit          3D

  0  0  0  0  0  0  0  0  0  0999 V3000
M  V30 BEGIN CTAB
M  V30 COUNTS 64 67 0 0 0
M  V30 BEGIN ATOM
M  V30 1 C -6.05688 4.38012 2.32282 0
M  V30 2 O -6.26587 3.06586 2.75295 0
M  V30 3 C -5.62 1.96872 2.15426 0
M  V30 4 C -4.74508 2.17801 1.10322 0
M  V30 5 C -4.07735 1.14294 0.471551 0
M  V30 6 C -3.14121 1.3614 -0.632619 0
M  V30 7 O -1.82625 1.07866 -0.121989 0
M  V30 8 C -0.822975 0.488826 -0.833905 0
M  V30 9 C 0.402339 0.270202 -0.198626 0
M  V30 10 C 1.44516 -0.318083 -0.864998 0
M  V30 11 N 1.2438 -0.675252 -2.15001 0
M  V30 12 C 0.0821529 -0.481207 -2.79214 0
M  V30 13 N -0.0103052 -0.901106 -4.13897 0
M  V30 14 N -0.917506 0.0960842 -2.11228 0
M  V30 15 C 2.76289 -0.565722 -0.230528 0
M  V30 16 C 3.78635 -1.12217 -0.975121 0
M  V30 17 C 5.01559 -1.37315 -0.418962 0
M  V30 18 C 5.28464 -1.08619 0.891518 0
M  V30 19 C 6.58411 -1.33641 1.5112 0
M  V30 20 C 7.53191 -0.164211 1.44358 0 CFG=2
M  V30 21 N 6.9879 1.00164 2.12068 0
M  V30 22 C 7.94953 0.158549 0.0569101 0
M  V30 23 O 8.49666 -0.844355 -0.71846 0
M  V30 24 O 7.8292 1.30008 -0.445948 0
M  V30 25 C 4.27719 -0.532065 1.64752 0
M  V30 26 C 3.01781 -0.271279 1.08917 0
M  V30 27 C -3.11505 2.79748 -1.16246 0
M  V30 28 F -2.71854 3.72533 -0.248709 0
M  V30 29 F -4.35723 3.12938 -1.63588 0
M  V30 30 F -2.28337 2.79068 -2.28315 0
M  V30 31 C -4.33444 -0.145724 0.952494 0
M  V30 32 C -5.2118 -0.334153 2.00415 0
M  V30 33 C -5.87013 0.700563 2.62646 0
M  V30 34 N -3.71787 -1.28968 0.344137 0
M  V30 35 C -3.9956 -1.71384 -0.884127 0
M  V30 36 C -3.25691 -2.83737 -1.13891 0
M  V30 37 C -3.21789 -3.67448 -2.37257 0
M  V30 38 C -2.51006 -3.08719 -0.0103422 0
M  V30 39 N -2.831 -2.11421 0.858905 0
M  V30 40 H -6.54965 4.604 1.36185 0
M  V30 41 H -4.95843 4.60561 2.25149 0
M  V30 42 H -6.51889 5.04946 3.08617 0
M  V30 43 H -4.61971 3.22072 0.786315 0
M  V30 44 H -3.26443 0.734148 -1.52438 0
M  V30 45 H 0.510085 0.583038 0.851205 0
M  V30 46 H 0.554315 -0.450071 -4.87814 0
M  V30 47 H -0.674732 -1.68563 -4.34074 0
M  V30 48 H 3.59627 -1.35692 -2.00838 0
M  V30 49 H 5.79 -1.81115 -1.03848 0
M  V30 50 H 6.44396 -1.59202 2.5823 0
M  V30 51 H 7.08492 -2.19215 0.997365 0
M  V30 52 H 8.44732 -0.452847 1.99769 0
M  V30 53 H 6.55857 0.778725 3.02247 0
M  V30 54 H 7.77062 1.71393 2.20205 0
M  V30 55 H 9.39903 -0.657128 -1.15346 0
M  V30 56 H 4.43471 -0.282766 2.69612 0
M  V30 57 H 2.25543 0.162277 1.70997 0
M  V30 58 H -5.38925 -1.33701 2.35386 0
M  V30 59 H -6.55746 0.556545 3.44871 0
M  V30 60 H -4.67878 -1.29083 -1.61448 0
M  V30 61 H -4.1269 -3.54292 -2.98582 0
M  V30 62 H -3.20484 -4.72637 -2.03506 0
M  V30 63 H -2.29997 -3.49413 -2.95826 0
M  V30 64 H -1.79611 -3.90318 0.165335 0
M  V30 END ATOM
M  V30 BEGIN BOND
M  V30 1 1 1 2
M  V30 2 1 2 3
M  V30 3 2 3 4
M  V30 4 1 4 5
M  V30 5 1 5 6
M  V30 6 1 6 7
M  V30 7 1 7 8
M  V30 8 2 8 9
M  V30 9 1 9 10
M  V30 10 2 10 11
M  V30 11 1 11 12
M  V30 12 1 12 13
M  V30 13 2 12 14
M  V30 14 1 10 15
M  V30 15 2 15 16
M  V30 16 1 16 17
M  V30 17 2 17 18
M  V30 18 1 18 19
M  V30 19 1 19 20
M  V30 20 1 20 21
M  V30 21 1 20 22
M  V30 22 1 22 23
M  V30 23 2 22 24
M  V30 24 1 18 25
M  V30 25 2 25 26
M  V30 26 1 6 27
M  V30 27 1 27 28
M  V30 28 1 27 29
M  V30 29 1 27 30
M  V30 30 2 5 31
M  V30 31 1 31 32
M  V30 32 2 32 33
M  V30 33 1 31 34
M  V30 34 1 34 35
M  V30 35 2 35 36
M  V30 36 1 36 37
M  V30 37 1 36 38
M  V30 38 2 38 39
M  V30 39 1 33 3
M  V30 40 1 39 34
M  V30 41 1 14 8
M  V30 42 1 26 15
M  V30 43 1 1 40
M  V30 44 1 1 41
M  V30 45 1 1 42
M  V30 46 1 4 43
M  V30 47 1 6 44
M  V30 48 1 9 45
M  V30 49 1 13 46
M  V30 50 1 13 47
M  V30 51 1 16 48
M  V30 52 1 17 49
M  V30 53 1 19 50
M  V30 54 1 19 51
M  V30 55 1 20 52 CFG=1
M  V30 56 1 21 53
M  V30 57 1 21 54
M  V30 58 1 23 55
M  V30 59 1 25 56
M  V30 60 1 26 57
M  V30 61 1 32 58
M  V30 62 1 33 59
M  V30 63 1 35 60
M  V30 64 1 37 61
M  V30 65 1 37 62
M  V30 66 1 37 63
M  V30 67 1 38 64
M  V30 END BOND
M  V30 END CTAB
M  END
