
     RDKit          3D

  0  0  0  0  0  0  0  0  0  0999 V3000
M  V30 BEGIN CTAB
M  V30 COUNTS 99 104 0 0 0
M  V30 BEGIN ATOM
M  V30 1 C 15.7396 -0.0204941 -1.04459 0
M  V30 2 C 15.3953 -1.12795 -0.0834868 0
M  V30 3 O 14.2344 -1.82833 -0.396881 0
M  V30 4 C 12.9474 -1.30741 -0.497458 0
M  V30 5 C 12.6782 0.00378044 -0.294689 0
M  V30 6 C 11.3961 0.530297 -0.388818 0
M  V30 7 C 10.3639 -0.333176 -0.701157 0
M  V30 8 C 10.631 -1.65433 -0.908798 0
M  V30 9 C 11.8974 -2.18981 -0.820039 0
M  V30 10 C 8.96515 0.242876 -0.781814 0
M  V30 11 N 8.15501 -0.567665 0.119728 0
M  V30 12 C 7.63963 -0.0702842 1.34435 0
M  V30 13 N 7.83099 1.17964 1.63776 0
M  V30 14 C 8.54595 2.03012 0.776277 0
M  V30 15 N 9.06793 1.61996 -0.342452 0
M  V30 16 N 8.68577 3.40043 1.10519 0
M  V30 17 S 6.69822 -1.15063 2.44985 0
M  V30 18 C 5.80731 -2.37222 1.39307 0
M  V30 19 C 4.65104 -1.56329 0.800691 0
M  V30 20 O 4.31867 -1.72776 -0.380815 0
M  V30 21 N 4.00367 -0.659989 1.65724 0
M  V30 22 C 2.90925 0.183013 1.34972 0
M  V30 23 C 2.08231 0.617563 2.38685 0
M  V30 24 C 1.02157 1.42845 2.1444 0
M  V30 25 C 0.691531 1.87676 0.844334 0
M  V30 26 C 1.48073 1.47332 -0.165662 0
M  V30 27 C 2.58411 0.62598 0.103802 0
M  V30 28 C 1.32554 1.94199 -1.51323 0
M  V30 29 N 1.23438 2.33622 -2.58636 0
M  V30 30 C -0.584074 2.65471 0.724108 0
M  V30 31 C -1.66757 1.67643 0.336418 0
M  V30 32 C -1.87487 0.600514 1.21122 0
M  V30 33 C -2.60434 -0.437473 0.788751 0
M  V30 34 C -3.20536 -0.543185 -0.504743 0
M  V30 35 C -2.97655 0.543408 -1.29912 0
M  V30 36 C -2.21964 1.65574 -0.90456 0
M  V30 37 C -2.19136 2.80547 -1.76984 0
M  V30 38 N -2.15719 3.74857 -2.44764 0
M  V30 39 N -3.81031 -1.71415 -0.728762 0
M  V30 40 C -4.42501 -2.90516 -0.960056 0
M  V30 41 O -4.5487 -3.48834 -2.05714 0
M  V30 42 C -5.07379 -3.68828 0.192895 0
M  V30 43 S -6.16173 -2.51203 1.1011 0
M  V30 44 C -7.42689 -2.04227 -0.0751816 0
M  V30 45 N -7.66082 -2.81551 -1.08246 0
M  V30 46 C -8.65229 -2.45105 -2.039 0
M  V30 47 N -9.29064 -1.37679 -1.93979 0
M  V30 48 C -9.085 -0.428049 -0.892185 0
M  V30 49 N -8.28149 -0.930282 0.171749 0
M  V30 50 C -10.2805 0.354681 -0.50928 0
M  V30 51 C -11.5665 -0.06934 -0.624159 0
M  V30 52 C -12.6993 0.665838 -0.279584 0
M  V30 53 C -12.5208 1.95923 0.232298 0
M  V30 54 C -11.2138 2.39494 0.353417 0
M  V30 55 C -10.1154 1.64642 0.00292241 0
M  V30 56 O -13.5821 2.75953 0.596269 0
M  V30 57 C -14.9224 2.38891 0.506715 0
M  V30 58 C -15.3326 1.2157 1.33645 0
M  V30 59 N -8.89438 -3.35873 -3.1245 0
M  V30 60 H 14.9345 0.0941045 -1.80353 0
M  V30 61 H 15.813 0.978854 -0.551883 0
M  V30 62 H 16.7189 -0.292318 -1.53123 0
M  V30 63 H 16.2345 -1.8786 -0.0468539 0
M  V30 64 H 15.3214 -0.715427 0.963179 0
M  V30 65 H 13.4462 0.741117 -0.0353693 0
M  V30 66 H 11.2115 1.56988 -0.2209 0
M  V30 67 H 9.80434 -2.31719 -1.15153 0
M  V30 68 H 12.1325 -3.21361 -0.979606 0
M  V30 69 H 8.56082 0.214289 -1.79811 0
M  V30 70 H 7.95635 -1.54781 -0.153706 0
M  V30 71 H 9.32328 3.6439 1.89781 0
M  V30 72 H 8.17209 4.1559 0.567466 0
M  V30 73 H 5.40372 -3.17065 2.02295 0
M  V30 74 H 6.47443 -2.75466 0.635538 0
M  V30 75 H 4.40396 -0.627614 2.65895 0
M  V30 76 H 2.32603 0.27765 3.40288 0
M  V30 77 H 0.384501 1.78102 2.96953 0
M  V30 78 H 3.17807 0.339864 -0.739833 0
M  V30 79 H -0.814996 3.11123 1.68434 0
M  V30 80 H -0.513446 3.43744 -0.0331143 0
M  V30 81 H -1.44777 0.676896 2.18776 0
M  V30 82 H -2.76452 -1.27698 1.45971 0
M  V30 83 H -3.39576 0.590674 -2.29106 0
M  V30 84 H -3.39312 -1.67041 -2.04231 0
M  V30 85 H -4.25867 -4.06015 0.832564 0
M  V30 86 H -5.67845 -4.50254 -0.159584 0
M  V30 87 H -8.39032 0.368393 -1.42014 0
M  V30 88 H -8.30912 -0.512583 1.11982 0
M  V30 89 H -11.7102 -1.08522 -1.02081 0
M  V30 90 H -13.6816 0.261989 -0.39916 0
M  V30 91 H -11.0825 3.4019 0.755264 0
M  V30 92 H -9.10417 2.02085 0.122185 0
M  V30 93 H -15.2139 2.12832 -0.556951 0
M  V30 94 H -15.5892 3.26141 0.732753 0
M  V30 95 H -15.7679 0.367626 0.733287 0
M  V30 96 H -16.1733 1.53545 2.02 0
M  V30 97 H -14.5459 0.855663 2.0184 0
M  V30 98 H -9.82991 -3.68869 -3.39819 0
M  V30 99 H -8.09185 -3.72647 -3.7015 0
M  V30 END ATOM
M  V30 BEGIN BOND
M  V30 1 1 1 2
M  V30 2 1 2 3
M  V30 3 1 3 4
M  V30 4 2 4 5
M  V30 5 1 5 6
M  V30 6 2 6 7
M  V30 7 1 7 8
M  V30 8 2 8 9
M  V30 9 1 7 10
M  V30 10 1 10 11
M  V30 11 1 11 12
M  V30 12 2 12 13
M  V30 13 1 13 14
M  V30 14 2 14 15
M  V30 15 1 14 16
M  V30 16 1 12 17
M  V30 17 1 17 18
M  V30 18 1 18 19
M  V30 19 2 19 20
M  V30 20 1 19 21
M  V30 21 1 21 22
M  V30 22 2 22 23
M  V30 23 1 23 24
M  V30 24 2 24 25
M  V30 25 1 25 26
M  V30 26 2 26 27
M  V30 27 1 26 28
M  V30 28 3 28 29
M  V30 29 1 25 30
M  V30 30 1 30 31
M  V30 31 2 31 32
M  V30 32 1 32 33
M  V30 33 2 33 34
M  V30 34 1 34 35
M  V30 35 2 35 36
M  V30 36 1 36 37
M  V30 37 3 37 38
M  V30 38 1 34 39
M  V30 39 1 39 40
M  V30 40 2 40 41
M  V30 41 1 40 42
M  V30 42 1 42 43
M  V30 43 1 43 44
M  V30 44 2 44 45
M  V30 45 1 45 46
M  V30 46 2 46 47
M  V30 47 1 47 48
M  V30 48 1 48 49
M  V30 49 1 48 50
M  V30 50 2 50 51
M  V30 51 1 51 52
M  V30 52 2 52 53
M  V30 53 1 53 54
M  V30 54 2 54 55
M  V30 55 1 53 56
M  V30 56 1 56 57
M  V30 57 1 57 58
M  V30 58 1 46 59
M  V30 59 1 9 4
M  V30 60 1 15 10
M  V30 61 1 27 22
M  V30 62 1 36 31
M  V30 63 1 49 44
M  V30 64 1 55 50
M  V30 65 1 1 60
M  V30 66 1 1 61
M  V30 67 1 1 62
M  V30 68 1 2 63
M  V30 69 1 2 64
M  V30 70 1 5 65
M  V30 71 1 6 66
M  V30 72 1 8 67
M  V30 73 1 9 68
M  V30 74 1 10 69
M  V30 75 1 11 70
M  V30 76 1 16 71
M  V30 77 1 16 72
M  V30 78 1 18 73
M  V30 79 1 18 74
M  V30 80 1 21 75
M  V30 81 1 23 76
M  V30 82 1 24 77
M  V30 83 1 27 78
M  V30 84 1 30 79
M  V30 85 1 30 80
M  V30 86 1 32 81
M  V30 87 1 33 82
M  V30 88 1 35 83
M  V30 89 1 39 84
M  V30 90 1 42 85
M  V30 91 1 42 86
M  V30 92 1 48 87
M  V30 93 1 49 88
M  V30 94 1 51 89
M  V30 95 1 52 90
M  V30 96 1 54 91
M  V30 97 1 55 92
M  V30 98 1 57 93
M  V30 99 1 57 94
M  V30 100 1 58 95
M  V30 101 1 58 96
M  V30 102 1 58 97
M  V30 103 1 59 98
M  V30 104 1 59 99
M  V30 END BOND
M  V30 END CTAB
M  END
