
     RDKit          3D

  0  0  0  0  0  0  0  0  0  0999 V3000
M  V30 BEGIN CTAB
M  V30 COUNTS 24 23 0 0 0
M  V30 BEGIN ATOM
M  V30 1 C -2.39967 1.40162 0.282185 0
M  V30 2 C -2.29239 -0.0874485 0.248164 0
M  V30 3 C -1.04401 -0.581319 -0.459421 0
M  V30 4 N -1.07975 -2.02608 -0.412402 0
M  V30 5 C 0.205983 -0.0534003 0.217831 0
M  V30 6 C 1.4307 -0.555518 -0.500392 0
M  V30 7 C 2.70787 -0.0825375 0.101241 0
M  V30 8 N 2.865 1.33774 0.126394 0
M  V30 9 H -1.92954 1.8586 1.16378 0
M  V30 10 H -3.4627 1.75174 0.264263 0
M  V30 11 H -1.92465 1.87227 -0.608488 0
M  V30 12 H -2.23315 -0.437046 1.31639 0
M  V30 13 H -3.20655 -0.534944 -0.161985 0
M  V30 14 H -1.01274 -0.251966 -1.50031 0
M  V30 15 H -1.07267 -2.41322 -1.37726 0
M  V30 16 H -0.367897 -2.43945 0.217491 0
M  V30 17 H 0.226247 -0.428233 1.25933 0
M  V30 18 H 0.192662 1.04438 0.274879 0
M  V30 19 H 1.41271 -1.67046 -0.415052 0
M  V30 20 H 1.39671 -0.341725 -1.58677 0
M  V30 21 H 3.54254 -0.522558 -0.487146 0
M  V30 22 H 2.83072 -0.457215 1.13718 0
M  V30 23 H 2.35823 1.81667 0.881163 0
M  V30 24 H 2.85635 1.80011 -0.785236 0
M  V30 END ATOM
M  V30 BEGIN BOND
M  V30 1 1 1 2
M  V30 2 1 2 3
M  V30 3 1 3 4
M  V30 4 1 3 5
M  V30 5 1 5 6
M  V30 6 1 6 7
M  V30 7 1 7 8
M  V30 8 1 1 9
M  V30 9 1 1 10
M  V30 10 1 1 11
M  V30 11 1 2 12
M  V30 12 1 2 13
M  V30 13 1 3 14
M  V30 14 1 4 15
M  V30 15 1 4 16
M  V30 16 1 5 17
M  V30 17 1 5 18
M  V30 18 1 6 19
M  V30 19 1 6 20
M  V30 20 1 7 21
M  V30 21 1 7 22
M  V30 22 1 8 23
M  V30 23 1 8 24
M  V30 END BOND
M  V30 END CTAB
M  END
