
     RDKit          3D

  0  0  0  0  0  0  0  0  0  0999 V3000
M  V30 BEGIN CTAB
M  V30 COUNTS 44 47 0 0 0
M  V30 BEGIN ATOM
M  V30 1 N -10.277 -1.02337 0.0802753 0
M  V30 2 C -9.22531 -0.583669 -0.132604 0
M  V30 3 C -7.91264 -0.0105301 -0.414289 0
M  V30 4 C -6.83422 -0.673371 0.096091 0
M  V30 5 C -5.53162 -0.171595 -0.13961 0
M  V30 6 C -5.47296 0.97086 -0.88296 0
M  V30 7 N -6.58658 1.60672 -1.37819 0
M  V30 8 C -7.82814 1.15221 -1.16907 0
M  V30 9 N -8.99949 1.77916 -1.66257 0
M  V30 10 S -3.79664 1.28417 -0.968756 0
M  V30 11 C -3.21828 -0.0406842 -0.0607648 0
M  V30 12 C -4.3659 -0.697822 0.287601 0
M  V30 13 N -4.25243 -1.91429 1.09162 0
M  V30 14 C -1.83315 -0.385326 0.263239 0
M  V30 15 O -1.58935 -1.38107 0.932096 0
M  V30 16 N -0.814399 0.454919 -0.214089 0
M  V30 17 C 0.548981 0.150272 0.0822115 0
M  V30 18 N 1.6014 0.850902 -0.301374 0
M  V30 19 C 2.78721 0.461808 0.0375579 0
M  V30 20 C 2.89082 -0.683331 0.794218 0
M  V30 21 S 1.25191 -1.12476 0.966488 0
M  V30 22 S 4.35119 -1.45521 1.40313 0
M  V30 23 O 4.36558 -2.84763 0.795059 0
M  V30 24 O 4.28496 -1.64268 2.89596 0
M  V30 25 C 5.77017 -0.593528 0.940286 0
M  V30 26 C 6.39801 -0.911014 -0.243277 0
M  V30 27 C 7.54422 -0.249419 -0.66536 0
M  V30 28 C 8.08023 0.754507 0.110175 0
M  V30 29 C 7.43874 1.06285 1.297 0
M  V30 30 C 6.29438 0.404769 1.72181 0
M  V30 31 N 9.26413 1.46026 -0.294395 0 CHG=1
M  V30 32 O 9.69799 2.35438 0.447582 0
M  V30 33 O 9.85156 1.11082 -1.4752 0 CHG=-1
M  V30 34 H -6.99064 -1.56807 0.670381 0
M  V30 35 H -9.29943 2.73847 -1.32893 0
M  V30 36 H -9.60642 1.32085 -2.3693 0
M  V30 37 H -3.9384 -2.80758 0.677984 0
M  V30 38 H -4.49465 -1.85849 2.0862 0
M  V30 39 H -1.05888 1.29174 -0.779011 0
M  V30 40 H 3.6942 1.03883 -0.275498 0
M  V30 41 H 6.04165 -1.69146 -0.917159 0
M  V30 42 H 8.03423 -0.49923 -1.59192 0
M  V30 43 H 7.87653 1.85426 1.89041 0
M  V30 44 H 5.85838 0.711359 2.66436 0
M  V30 END ATOM
M  V30 BEGIN BOND
M  V30 1 3 1 2
M  V30 2 1 2 3
M  V30 3 2 3 4
M  V30 4 1 4 5
M  V30 5 2 5 6
M  V30 6 1 6 7
M  V30 7 2 7 8
M  V30 8 1 8 9
M  V30 9 1 6 10
M  V30 10 1 10 11
M  V30 11 2 11 12
M  V30 12 1 12 13
M  V30 13 1 11 14
M  V30 14 2 14 15
M  V30 15 1 14 16
M  V30 16 1 16 17
M  V30 17 2 17 18
M  V30 18 1 18 19
M  V30 19 2 19 20
M  V30 20 1 20 21
M  V30 21 1 20 22
M  V30 22 2 22 23
M  V30 23 2 22 24
M  V30 24 1 22 25
M  V30 25 2 25 26
M  V30 26 1 26 27
M  V30 27 2 27 28
M  V30 28 1 28 29
M  V30 29 2 29 30
M  V30 30 1 28 31
M  V30 31 2 31 32
M  V30 32 1 31 33
M  V30 33 1 8 3
M  V30 34 1 21 17
M  V30 35 1 30 25
M  V30 36 1 12 5
M  V30 37 1 4 34
M  V30 38 1 9 35
M  V30 39 1 9 36
M  V30 40 1 13 37
M  V30 41 1 13 38
M  V30 42 1 16 39
M  V30 43 1 19 40
M  V30 44 1 26 41
M  V30 45 1 27 42
M  V30 46 1 29 43
M  V30 47 1 30 44
M  V30 END BOND
M  V30 END CTAB
M  END
