
     RDKit          3D

  0  0  0  0  0  0  0  0  0  0999 V3000
M  V30 BEGIN CTAB
M  V30 COUNTS 38 39 0 0 0
M  V30 BEGIN ATOM
M  V30 1 C -0.335039 1.72085 -0.144708 0
M  V30 2 C -0.498807 0.186982 -0.0329441 0
M  V30 3 C 0.500712 -0.47614 -0.834234 0
M  V30 4 C 1.87917 -0.0543626 -0.359111 0
M  V30 5 C 2.536 1.03097 -0.93988 0
M  V30 6 C 3.8085 1.4004 -0.567035 0
M  V30 7 C 4.48001 0.698091 0.405519 0
M  V30 8 C 3.85551 -0.397872 1.01585 0
M  V30 9 C 2.57695 -0.736543 0.611652 0
M  V30 10 Cl 6.11141 1.19127 0.864596 0
M  V30 11 N 0.534797 -0.339453 -2.24382 0
M  V30 12 C 0.485191 -1.98792 -0.493285 0
M  V30 13 C -1.93202 -0.022348 -0.289691 0
M  V30 14 C -2.7754 0.561424 0.669363 0
M  V30 15 C -4.15511 0.47924 0.543806 0
M  V30 16 C -4.69914 -0.176332 -0.527259 0
M  V30 17 C -3.84076 -0.747316 -1.46428 0
M  V30 18 C -2.47375 -0.677596 -1.357 0
M  V30 19 Cl -6.45161 -0.268306 -0.71525 0
M  V30 20 N -0.301129 -0.0980187 1.38315 0
M  V30 21 H -1.27333 2.16997 0.257797 0
M  V30 22 H -0.238348 2.03706 -1.17755 0
M  V30 23 H 0.473523 2.06884 0.535054 0
M  V30 24 H 2.07825 1.62729 -1.69502 0
M  V30 25 H 4.31211 2.22988 -1.01608 0
M  V30 26 H 4.41704 -0.920133 1.76676 0
M  V30 27 H 2.11283 -1.60076 1.10012 0
M  V30 28 H 1.46738 -0.00142891 -2.64125 0
M  V30 29 H 0.447547 -1.29068 -2.7288 0
M  V30 30 H 1.50643 -2.40509 -0.735656 0
M  V30 31 H 0.255504 -2.15757 0.564763 0
M  V30 32 H -0.222261 -2.55494 -1.08747 0
M  V30 33 H -2.4205 1.08872 1.54039 0
M  V30 34 H -4.84485 0.913103 1.25711 0
M  V30 35 H -4.29564 -1.25624 -2.30411 0
M  V30 36 H -1.82728 -1.11525 -2.08158 0
M  V30 37 H -0.329882 0.745121 1.98107 0
M  V30 38 H -0.924011 -0.864908 1.70497 0
M  V30 END ATOM
M  V30 BEGIN BOND
M  V30 1 1 1 2
M  V30 2 1 2 3
M  V30 3 1 3 4
M  V30 4 2 4 5
M  V30 5 1 5 6
M  V30 6 2 6 7
M  V30 7 1 7 8
M  V30 8 2 8 9
M  V30 9 1 7 10
M  V30 10 1 3 11
M  V30 11 1 3 12
M  V30 12 1 2 13
M  V30 13 2 13 14
M  V30 14 1 14 15
M  V30 15 2 15 16
M  V30 16 1 16 17
M  V30 17 2 17 18
M  V30 18 1 16 19
M  V30 19 1 2 20
M  V30 20 1 9 4
M  V30 21 1 18 13
M  V30 22 1 1 21
M  V30 23 1 1 22
M  V30 24 1 1 23
M  V30 25 1 5 24
M  V30 26 1 6 25
M  V30 27 1 8 26
M  V30 28 1 9 27
M  V30 29 1 11 28
M  V30 30 1 11 29
M  V30 31 1 12 30
M  V30 32 1 12 31
M  V30 33 1 12 32
M  V30 34 1 14 33
M  V30 35 1 15 34
M  V30 36 1 17 35
M  V30 37 1 18 36
M  V30 38 1 20 37
M  V30 39 1 20 38
M  V30 END BOND
M  V30 END CTAB
M  END
