
     RDKit          3D

  0  0  0  0  0  0  0  0  0  0999 V3000
M  V30 BEGIN CTAB
M  V30 COUNTS 24 24 0 0 0
M  V30 BEGIN ATOM
M  V30 1 C 4.12458 0.825482 0.131124 0
M  V30 2 C 3.14475 -0.28875 0.430131 0
M  V30 3 C 1.76707 0.226266 0.100889 0
M  V30 4 O 0.770714 -0.76798 0.355028 0
M  V30 5 C -0.557056 -0.498206 0.11928 0
M  V30 6 C -1.50813 -1.45448 0.36447 0
M  V30 7 C -2.844 -1.1397 0.111664 0
M  V30 8 N -3.80808 -2.15011 0.374979 0
M  V30 9 N -3.13922 0.074977 -0.356672 0
M  V30 10 C -2.21775 1.01276 -0.598287 0
M  V30 11 N -0.919878 0.697775 -0.349378 0
M  V30 12 N -2.59519 2.28695 -1.09665 0
M  V30 13 H 3.72972 1.74366 0.612095 0
M  V30 14 H 4.1733 0.94662 -0.967512 0
M  V30 15 H 5.09569 0.529944 0.578069 0
M  V30 16 H 3.19107 -0.53365 1.50639 0
M  V30 17 H 3.3775 -1.1883 -0.174747 0
M  V30 18 H 1.69856 0.507564 -0.973177 0
M  V30 19 H 1.56636 1.15801 0.669659 0
M  V30 20 H -1.26224 -2.43503 0.743324 0
M  V30 21 H -4.67964 -2.25366 -0.177856 0
M  V30 22 H -3.63739 -2.8263 1.16339 0
M  V30 23 H -1.90463 2.90648 -1.57626 0
M  V30 24 H -3.56613 2.61969 -0.989957 0
M  V30 END ATOM
M  V30 BEGIN BOND
M  V30 1 1 1 2
M  V30 2 1 2 3
M  V30 3 1 3 4
M  V30 4 1 4 5
M  V30 5 2 5 6
M  V30 6 1 6 7
M  V30 7 1 7 8
M  V30 8 2 7 9
M  V30 9 1 9 10
M  V30 10 2 10 11
M  V30 11 1 10 12
M  V30 12 1 11 5
M  V30 13 1 1 13
M  V30 14 1 1 14
M  V30 15 1 1 15
M  V30 16 1 2 16
M  V30 17 1 2 17
M  V30 18 1 3 18
M  V30 19 1 3 19
M  V30 20 1 6 20
M  V30 21 1 8 21
M  V30 22 1 8 22
M  V30 23 1 12 23
M  V30 24 1 12 24
M  V30 END BOND
M  V30 END CTAB
M  END
