
     RDKit          3D

  0  0  0  0  0  0  0  0  0  0999 V3000
M  V30 BEGIN CTAB
M  V30 COUNTS 43 46 0 0 0
M  V30 BEGIN ATOM
M  V30 1 C -2.41355 -1.78109 -0.344164 0
M  V30 2 C -2.32654 -0.387195 0.0610449 0
M  V30 3 C -1.07549 0.261177 0.255981 0
M  V30 4 C 0.107618 -0.554531 0.0294906 0
M  V30 5 N 1.34084 0.146767 0.237517 0
M  V30 6 C 2.57458 -0.54526 0.04788 0
M  V30 7 C 2.51572 -1.88855 -0.335928 0
M  V30 8 C 3.68263 -2.59436 -0.52994 0
M  V30 9 C 4.87499 -1.96942 -0.343936 0
M  V30 10 C 4.96249 -0.634623 0.0376324 0
M  V30 11 C 3.76885 0.0711523 0.231463 0
M  V30 12 C 3.85808 1.38573 0.607275 0
M  V30 13 C 5.09394 1.96738 0.781204 0
M  V30 14 C 6.25705 1.25772 0.586068 0
M  V30 15 C 6.20218 -0.0698953 0.206754 0
M  V30 16 C -1.04091 1.5701 0.634467 0
M  V30 17 N -2.19051 2.28277 0.833559 0
M  V30 18 C -3.38179 1.70298 0.658909 0
M  V30 19 C -3.45501 0.363142 0.271237 0
M  V30 20 C -4.69677 -0.181748 0.106887 0
M  V30 21 N -4.92475 -1.50909 -0.277247 0
M  V30 22 N -5.81079 0.576066 0.319692 0
M  V30 23 C -5.74833 1.86429 0.692324 0
M  V30 24 N -6.94063 2.60759 0.900455 0
M  V30 25 N -4.53035 2.3815 0.848596 0
M  V30 26 H -2.7268 -1.98622 -1.38826 0
M  V30 27 H -2.72655 -2.51478 0.418062 0
M  V30 28 H -1.32022 -2.11872 -0.451706 0
M  V30 29 H 0.15265 -1.4481 0.699498 0
M  V30 30 H 0.0986004 -0.851153 -1.0475 0
M  V30 31 H 1.35838 1.12185 0.515748 0
M  V30 32 H 1.55841 -2.34931 -0.473567 0
M  V30 33 H 3.61344 -3.61632 -0.822092 0
M  V30 34 H 5.82348 -2.48864 -0.486081 0
M  V30 35 H 2.99181 1.97249 0.769242 0
M  V30 36 H 5.14036 3.00935 1.07892 0
M  V30 37 H 7.20158 1.73478 0.728277 0
M  V30 38 H 7.09874 -0.634224 0.0513967 0
M  V30 39 H -0.142203 2.11349 0.796972 0
M  V30 40 H -5.023 -2.2874 0.410034 0
M  V30 41 H -5.02251 -1.76824 -1.27516 0
M  V30 42 H -7.82032 2.15544 1.22173 0
M  V30 43 H -6.95938 3.6331 0.73379 0
M  V30 END ATOM
M  V30 BEGIN BOND
M  V30 1 1 1 2
M  V30 2 2 2 3
M  V30 3 1 3 4
M  V30 4 1 4 5
M  V30 5 1 5 6
M  V30 6 2 6 7
M  V30 7 1 7 8
M  V30 8 2 8 9
M  V30 9 1 9 10
M  V30 10 2 10 11
M  V30 11 1 11 12
M  V30 12 2 12 13
M  V30 13 1 13 14
M  V30 14 2 14 15
M  V30 15 1 3 16
M  V30 16 2 16 17
M  V30 17 1 17 18
M  V30 18 2 18 19
M  V30 19 1 19 20
M  V30 20 1 20 21
M  V30 21 2 20 22
M  V30 22 1 22 23
M  V30 23 1 23 24
M  V30 24 2 23 25
M  V30 25 1 19 2
M  V30 26 1 11 6
M  V30 27 1 25 18
M  V30 28 1 15 10
M  V30 29 1 1 26
M  V30 30 1 1 27
M  V30 31 1 1 28
M  V30 32 1 4 29
M  V30 33 1 4 30
M  V30 34 1 5 31
M  V30 35 1 7 32
M  V30 36 1 8 33
M  V30 37 1 9 34
M  V30 38 1 12 35
M  V30 39 1 13 36
M  V30 40 1 14 37
M  V30 41 1 15 38
M  V30 42 1 16 39
M  V30 43 1 21 40
M  V30 44 1 21 41
M  V30 45 1 24 42
M  V30 46 1 24 43
M  V30 END BOND
M  V30 END CTAB
M  END
