
     RDKit          3D

  0  0  0  0  0  0  0  0  0  0999 V3000
M  V30 BEGIN CTAB
M  V30 COUNTS 24 24 0 0 0
M  V30 BEGIN ATOM
M  V30 1 N -2.02212 -2.49666 -0.0256204 0
M  V30 2 N -1.67356 -1.21429 -0.462468 0
M  V30 3 P -1.36406 -0.153533 0.888237 0
M  V30 4 S -0.876542 -1.08757 2.25945 0
M  V30 5 N -2.84945 0.719318 1.28248 0
M  V30 6 N -2.96245 1.8764 0.504476 0
M  V30 7 O -0.171917 1.00394 0.565119 0
M  V30 8 C 1.12137 0.710013 0.158767 0
M  V30 9 C 2.01035 1.73091 -0.0764471 0
M  V30 10 Cl 1.55454 3.42574 0.124158 0
M  V30 11 C 3.28486 1.3901 -0.478739 0
M  V30 12 C 3.66868 0.0821259 -0.64336 0
M  V30 13 Cl 5.29844 -0.362349 -1.15812 0
M  V30 14 C 2.7895 -0.946206 -0.411414 0
M  V30 15 Cl 3.23675 -2.61333 -0.608394 0
M  V30 16 C 1.49862 -0.606417 -0.00414686 0
M  V30 17 H -3.03578 -2.65818 -0.121463 0
M  V30 18 H -1.43416 -3.2261 -0.477075 0
M  V30 19 H -2.48408 -0.858612 -1.05141 0
M  V30 20 H -3.66665 0.0982488 1.00009 0
M  V30 21 H -3.5705 1.75811 -0.315168 0
M  V30 22 H -3.18837 2.6894 1.10781 0
M  V30 23 H 4.00695 2.17008 -0.671564 0
M  V30 24 H 0.829569 -1.43111 0.170833 0
M  V30 END ATOM
M  V30 BEGIN BOND
M  V30 1 1 1 2
M  V30 2 1 2 3
M  V30 3 2 3 4
M  V30 4 1 3 5
M  V30 5 1 5 6
M  V30 6 1 3 7
M  V30 7 1 7 8
M  V30 8 2 8 9
M  V30 9 1 9 10
M  V30 10 1 9 11
M  V30 11 2 11 12
M  V30 12 1 12 13
M  V30 13 1 12 14
M  V30 14 1 14 15
M  V30 15 2 14 16
M  V30 16 1 16 8
M  V30 17 1 1 17
M  V30 18 1 1 18
M  V30 19 1 2 19
M  V30 20 1 5 20
M  V30 21 1 6 21
M  V30 22 1 6 22
M  V30 23 1 11 23
M  V30 24 1 16 24
M  V30 END BOND
M  V30 END CTAB
M  END
