
     RDKit          3D

  0  0  0  0  0  0  0  0  0  0999 V3000
M  V30 BEGIN CTAB
M  V30 COUNTS 20 20 0 0 0
M  V30 BEGIN ATOM
M  V30 1 C 3.52091 0.413762 0.0529189 0
M  V30 2 O 2.26213 1.0013 0.14161 0
M  V30 3 C 1.05311 0.376582 0.0489525 0
M  V30 4 C 0.932083 -0.977541 -0.15349 0
M  V30 5 C -0.345938 -1.54624 -0.237726 0
M  V30 6 C -1.47483 -0.763385 -0.119916 0
M  V30 7 C -1.35042 0.59993 0.0839007 0
M  V30 8 C -0.0903406 1.13952 0.163792 0
M  V30 9 F 0.0282349 2.48544 0.365031 0
M  V30 10 N -2.4756 1.45337 0.21224 0
M  V30 11 N -2.79257 -1.31567 -0.201656 0
M  V30 12 H 3.75049 -0.0345478 -0.936369 0
M  V30 13 H 4.27469 1.19802 0.334962 0
M  V30 14 H 3.57765 -0.376598 0.838207 0
M  V30 15 H 1.82531 -1.5517 -0.239923 0
M  V30 16 H -0.461493 -2.59679 -0.394801 0
M  V30 17 H -3.05579 1.6155 -0.624194 0
M  V30 18 H -2.6698 1.88558 1.15966 0
M  V30 19 H -3.29033 -1.22104 -1.09343 0
M  V30 20 H -3.2175 -1.78549 0.60023 0
M  V30 END ATOM
M  V30 BEGIN BOND
M  V30 1 1 1 2
M  V30 2 1 2 3
M  V30 3 2 3 4
M  V30 4 1 4 5
M  V30 5 2 5 6
M  V30 6 1 6 7
M  V30 7 2 7 8
M  V30 8 1 8 9
M  V30 9 1 7 10
M  V30 10 1 6 11
M  V30 11 1 8 3
M  V30 12 1 1 12
M  V30 13 1 1 13
M  V30 14 1 1 14
M  V30 15 1 4 15
M  V30 16 1 5 16
M  V30 17 1 10 17
M  V30 18 1 10 18
M  V30 19 1 11 19
M  V30 20 1 11 20
M  V30 END BOND
M  V30 END CTAB
M  END
