
     RDKit          3D

  0  0  0  0  0  0  0  0  0  0999 V3000
M  V30 BEGIN CTAB
M  V30 COUNTS 51 53 0 0 0
M  V30 BEGIN ATOM
M  V30 1 C 6.71399 -2.37421 0.254467 0
M  V30 2 C 5.89835 -1.98585 1.48856 0
M  V30 3 C 5.23777 -0.690968 1.16349 0
M  V30 4 C 5.83977 0.521911 1.43341 0
M  V30 5 C 5.22879 1.70975 1.13287 0
M  V30 6 C 3.97733 1.66296 0.544536 0
M  V30 7 C 3.34152 0.467474 0.25852 0
M  V30 8 O 2.08104 0.418786 -0.334025 0
M  V30 9 C 1.35826 1.56894 -0.686784 0
M  V30 10 C 0.0665405 1.13162 -1.28965 0
M  V30 11 C 0.005779 0.924159 -2.65184 0
M  V30 12 C -1.17474 0.519702 -3.23713 0
M  V30 13 C -2.30808 0.321883 -2.43961 0
M  V30 14 C -2.26047 0.525878 -1.07652 0
M  V30 15 C -1.06487 0.930324 -0.520716 0
M  V30 16 N -3.42247 0.317487 -0.298778 0
M  V30 17 C -4.28015 1.44203 -0.1182 0
M  V30 18 N -3.94812 2.71282 -0.713038 0
M  V30 19 N -5.36058 1.39922 0.558348 0
M  V30 20 C -5.76725 0.177646 1.18396 0
M  V30 21 N -6.97892 0.145492 1.93777 0
M  V30 22 N -5.01521 -0.843407 1.03645 0
M  V30 23 C -3.78186 -0.925818 0.30458 0
M  V30 24 C -2.7221 -1.39596 1.30829 0
M  V30 25 C -3.97635 -2.02678 -0.748447 0
M  V30 26 C 3.99054 -0.700708 0.576748 0
M  V30 27 H 6.03029 -2.86283 -0.455481 0
M  V30 28 H 7.12788 -1.41944 -0.170974 0
M  V30 29 H 7.51536 -3.09281 0.502231 0
M  V30 30 H 6.53083 -1.91699 2.39186 0
M  V30 31 H 5.13063 -2.77197 1.64308 0
M  V30 32 H 6.82705 0.468814 1.89854 0
M  V30 33 H 5.71983 2.65013 1.35357 0
M  V30 34 H 3.48726 2.59566 0.303681 0
M  V30 35 H 1.95672 2.14061 -1.41838 0
M  V30 36 H 1.19753 2.15359 0.242171 0
M  V30 37 H 0.890279 1.07648 -3.28896 0
M  V30 38 H -1.23611 0.352337 -4.31197 0
M  V30 39 H -3.24326 0.00477249 -2.87979 0
M  V30 40 H -1.02262 1.09331 0.560094 0
M  V30 41 H -3.52754 3.46741 -0.130926 0
M  V30 42 H -4.1246 2.89334 -1.73386 0
M  V30 43 H -7.87005 0.0913893 1.41114 0
M  V30 44 H -7.01732 0.172955 2.97225 0
M  V30 45 H -1.89893 -1.94188 0.792016 0
M  V30 46 H -3.15946 -2.11684 2.02964 0
M  V30 47 H -2.32016 -0.544793 1.87735 0
M  V30 48 H -4.62187 -2.83628 -0.375475 0
M  V30 49 H -4.54587 -1.5494 -1.59183 0
M  V30 50 H -3.00453 -2.40413 -1.1144 0
M  V30 51 H 3.50013 -1.65782 0.35652 0
M  V30 END ATOM
M  V30 BEGIN BOND
M  V30 1 1 1 2
M  V30 2 1 2 3
M  V30 3 2 3 4
M  V30 4 1 4 5
M  V30 5 2 5 6
M  V30 6 1 6 7
M  V30 7 1 7 8
M  V30 8 1 8 9
M  V30 9 1 9 10
M  V30 10 2 10 11
M  V30 11 1 11 12
M  V30 12 2 12 13
M  V30 13 1 13 14
M  V30 14 2 14 15
M  V30 15 1 14 16
M  V30 16 1 16 17
M  V30 17 1 17 18
M  V30 18 2 17 19
M  V30 19 1 19 20
M  V30 20 1 20 21
M  V30 21 2 20 22
M  V30 22 1 22 23
M  V30 23 1 23 24
M  V30 24 1 23 25
M  V30 25 2 7 26
M  V30 26 1 26 3
M  V30 27 1 15 10
M  V30 28 1 23 16
M  V30 29 1 1 27
M  V30 30 1 1 28
M  V30 31 1 1 29
M  V30 32 1 2 30
M  V30 33 1 2 31
M  V30 34 1 4 32
M  V30 35 1 5 33
M  V30 36 1 6 34
M  V30 37 1 9 35
M  V30 38 1 9 36
M  V30 39 1 11 37
M  V30 40 1 12 38
M  V30 41 1 13 39
M  V30 42 1 15 40
M  V30 43 1 18 41
M  V30 44 1 18 42
M  V30 45 1 21 43
M  V30 46 1 21 44
M  V30 47 1 24 45
M  V30 48 1 24 46
M  V30 49 1 24 47
M  V30 50 1 25 48
M  V30 51 1 25 49
M  V30 52 1 25 50
M  V30 53 1 26 51
M  V30 END BOND
M  V30 END CTAB
M  END
