
     RDKit          3D

  0  0  0  0  0  0  0  0  0  0999 V3000
M  V30 BEGIN CTAB
M  V30 COUNTS 16 16 0 0 0
M  V30 BEGIN ATOM
M  V30 1 N -2.39169 -1.00563 0.151675 0
M  V30 2 C -1.2081 -0.237628 0.0590513 0
M  V30 3 C -1.23284 1.13735 -0.0181233 0
M  V30 4 C -0.0388465 1.86454 -0.10885 0
M  V30 5 C 1.1488 1.18612 -0.119374 0
M  V30 6 C 1.21062 -0.190443 -0.0436421 0
M  V30 7 N 2.46437 -0.85354 -0.0577803 0
M  V30 8 C 0.00859651 -0.884788 0.0455482 0
M  V30 9 Cl 0.0590511 -2.63297 0.142877 0
M  V30 10 H -2.4204 -1.77708 0.856284 0
M  V30 11 H -3.24154 -0.869711 -0.423123 0
M  V30 12 H -2.17514 1.68238 -0.0101579 0
M  V30 13 H -0.0391334 2.94434 -0.170246 0
M  V30 14 H 2.07026 1.78407 -0.191485 0
M  V30 15 H 2.59954 -1.6338 -0.721219 0
M  V30 16 H 3.18645 -0.513208 0.608565 0
M  V30 END ATOM
M  V30 BEGIN BOND
M  V30 1 1 1 2
M  V30 2 2 2 3
M  V30 3 1 3 4
M  V30 4 2 4 5
M  V30 5 1 5 6
M  V30 6 1 6 7
M  V30 7 2 6 8
M  V30 8 1 8 9
M  V30 9 1 8 2
M  V30 10 1 1 10
M  V30 11 1 1 11
M  V30 12 1 3 12
M  V30 13 1 4 13
M  V30 14 1 5 14
M  V30 15 1 7 15
M  V30 16 1 7 16
M  V30 END BOND
M  V30 END CTAB
M  END
