
     RDKit          3D

  0  0  0  0  0  0  0  0  0  0999 V3000
M  V30 BEGIN CTAB
M  V30 COUNTS 30 31 0 0 0
M  V30 BEGIN ATOM
M  V30 1 N 5.10308 0.847886 -0.045859 0
M  V30 2 C 3.69016 0.607433 -0.0956837 0
M  V30 3 C 3.15693 -0.471601 0.546476 0
M  V30 4 C 1.77139 -0.722998 0.507445 0
M  V30 5 C 0.92476 0.0926243 -0.166168 0
M  V30 6 C 1.49011 1.19878 -0.820904 0
M  V30 7 C 2.84373 1.45306 -0.787981 0
M  V30 8 C -0.503801 -0.139162 -0.262973 0
M  V30 9 C -1.36948 0.640927 0.527499 0
M  V30 10 C -2.72589 0.470304 0.412425 0
M  V30 11 C -3.24618 -0.454577 -0.466888 0
M  V30 12 N -4.6424 -0.604598 -0.560149 0
M  V30 13 C -2.38584 -1.22859 -1.25124 0
M  V30 14 C -1.02866 -1.05797 -1.13618 0
M  V30 15 N -3.61324 1.24409 1.19752 0 CHG=1
M  V30 16 O -3.22583 2.5111 1.53035 0 CHG=-1
M  V30 17 O -4.69281 0.80837 1.57264 0
M  V30 18 N 1.34713 -1.82989 1.23536 0 CHG=1
M  V30 19 O 2.0227 -2.17448 2.39358 0 CHG=-1
M  V30 20 O 0.411804 -2.54157 0.919444 0
M  V30 21 H 5.5082 1.56585 0.577846 0
M  V30 22 H 5.72678 0.293742 -0.644011 0
M  V30 23 H 3.83065 -1.12884 1.08662 0
M  V30 24 H 0.790775 1.84159 -1.3555 0
M  V30 25 H 3.23856 2.3163 -1.30554 0
M  V30 26 H -0.942595 1.37388 1.22395 0
M  V30 27 H -5.14646 -1.15563 0.153258 0
M  V30 28 H -5.17956 -0.174865 -1.32966 0
M  V30 29 H -2.81799 -1.9377 -1.92425 0
M  V30 30 H -0.336011 -1.64347 -1.7314 0
M  V30 END ATOM
M  V30 BEGIN BOND
M  V30 1 1 1 2
M  V30 2 2 2 3
M  V30 3 1 3 4
M  V30 4 2 4 5
M  V30 5 1 5 6
M  V30 6 2 6 7
M  V30 7 1 5 8
M  V30 8 2 8 9
M  V30 9 1 9 10
M  V30 10 2 10 11
M  V30 11 1 11 12
M  V30 12 1 11 13
M  V30 13 2 13 14
M  V30 14 1 10 15
M  V30 15 1 15 16
M  V30 16 2 15 17
M  V30 17 1 4 18
M  V30 18 1 18 19
M  V30 19 2 18 20
M  V30 20 1 7 2
M  V30 21 1 14 8
M  V30 22 1 1 21
M  V30 23 1 1 22
M  V30 24 1 3 23
M  V30 25 1 6 24
M  V30 26 1 7 25
M  V30 27 1 9 26
M  V30 28 1 12 27
M  V30 29 1 12 28
M  V30 30 1 13 29
M  V30 31 1 14 30
M  V30 END BOND
M  V30 END CTAB
M  END
