
     RDKit          3D

  0  0  0  0  0  0  0  0  0  0999 V3000
M  V30 BEGIN CTAB
M  V30 COUNTS 39 41 0 0 0
M  V30 BEGIN ATOM
M  V30 1 N 3.93355 -2.61824 0.42936 0
M  V30 2 C 2.78444 -1.8679 0.028285 0
M  V30 3 C 2.46657 -0.834432 1.0591 0
M  V30 4 N 1.27696 -0.0701255 0.703585 0
M  V30 5 C -0.0102765 -0.749285 0.755252 0
M  V30 6 C -0.985533 -0.0972667 -0.155581 0 CFG=2
M  V30 7 N -1.02001 1.31351 -0.0488897 0
M  V30 8 C 0.249568 2.01266 -0.0846347 0
M  V30 9 C 1.35977 1.27713 0.30062 0
M  V30 10 C 2.55579 1.96949 0.251186 0
M  V30 11 C 2.61257 3.30326 -0.16307 0
M  V30 12 C 1.46575 3.99047 -0.543814 0
M  V30 13 C 0.272152 3.32308 -0.4979 0
M  V30 14 C -2.26224 -0.796078 -0.3597 0
M  V30 15 C -2.343 -1.75167 -1.37062 0
M  V30 16 C -3.6022 -2.265 -1.69506 0
M  V30 17 C -4.7035 -1.82542 -1.0196 0
M  V30 18 N -4.58739 -0.894931 -0.0375653 0
M  V30 19 C -3.39789 -0.394336 0.28668 0
M  V30 20 N -3.3101 0.503429 1.42085 0
M  V30 21 H 4.79116 -2.09954 0.592049 0
M  V30 22 H 4.07758 -3.46967 -0.0802348 0
M  V30 23 H 1.94918 -2.5404 -0.152092 0
M  V30 24 H 3.0717 -1.37868 -0.947799 0
M  V30 25 H 2.15808 -1.43421 1.99068 0
M  V30 26 H 3.31939 -0.265375 1.35628 0
M  V30 27 H 0.0855936 -1.83393 0.716237 0
M  V30 28 H -0.323753 -0.540832 1.86453 0
M  V30 29 H -0.429524 -0.269228 -1.21023 0
M  V30 30 H -1.87677 1.92437 0.0246762 0
M  V30 31 H 3.44708 1.46823 0.545456 0
M  V30 32 H 3.54661 3.79757 -0.185099 0
M  V30 33 H 1.51859 5.00451 -0.866541 0
M  V30 34 H -0.665781 3.80155 -0.787553 0
M  V30 35 H -1.49148 -2.08967 -1.9425 0
M  V30 36 H -3.6822 -3.0032 -2.52978 0
M  V30 37 H -5.69956 -2.23086 -1.30039 0
M  V30 38 H -3.94507 1.29126 1.48313 0
M  V30 39 H -2.60581 0.339765 2.17069 0
M  V30 END ATOM
M  V30 BEGIN BOND
M  V30 1 1 1 2
M  V30 2 1 2 3
M  V30 3 1 3 4
M  V30 4 1 4 5
M  V30 5 1 5 6
M  V30 6 1 6 7
M  V30 7 1 7 8
M  V30 8 2 8 9
M  V30 9 1 9 10
M  V30 10 2 10 11
M  V30 11 1 11 12
M  V30 12 2 12 13
M  V30 13 1 6 14
M  V30 14 2 14 15
M  V30 15 1 15 16
M  V30 16 2 16 17
M  V30 17 1 17 18
M  V30 18 2 18 19
M  V30 19 1 19 20
M  V30 20 1 9 4
M  V30 21 1 19 14
M  V30 22 1 13 8
M  V30 23 1 1 21
M  V30 24 1 1 22
M  V30 25 1 2 23
M  V30 26 1 2 24
M  V30 27 1 3 25
M  V30 28 1 3 26
M  V30 29 1 5 27
M  V30 30 1 5 28
M  V30 31 1 6 29 CFG=3
M  V30 32 1 7 30
M  V30 33 1 10 31
M  V30 34 1 11 32
M  V30 35 1 12 33
M  V30 36 1 13 34
M  V30 37 1 15 35
M  V30 38 1 16 36
M  V30 39 1 17 37
M  V30 40 1 20 38
M  V30 41 1 20 39
M  V30 END BOND
M  V30 END CTAB
M  END
