
     RDKit          3D

  0  0  0  0  0  0  0  0  0  0999 V3000
M  V30 BEGIN CTAB
M  V30 COUNTS 33 34 0 0 0
M  V30 BEGIN ATOM
M  V30 1 N -1.52259 2.52095 -1.12511 0
M  V30 2 C -1.96871 1.15595 -0.872223 0
M  V30 3 C -3.1655 1.2095 0.00985144 0
M  V30 4 C -3.3119 0.041139 0.933053 0
M  V30 5 C -2.74264 -1.19321 0.243148 0
M  V30 6 N -1.31936 -0.970693 0.15628 0
M  V30 7 C -0.861239 0.267219 -0.42349 0
M  V30 8 C -0.399956 -1.91134 0.613403 0
M  V30 9 O -0.838254 -2.99368 1.11819 0
M  V30 10 C 1.05726 -1.72342 0.545501 0
M  V30 11 C 2.03867 -2.59933 0.971821 0
M  V30 12 C 3.27015 -2.01968 0.716414 0
M  V30 13 C 2.96627 -0.797797 0.136826 0
M  V30 14 O 1.68352 -0.680073 0.0631806 0
M  V30 15 S 4.11912 0.41566 -0.418102 0
M  V30 16 O 5.5166 -0.0957965 -0.295548 0
M  V30 17 O 3.80065 0.669936 -1.88513 0
M  V30 18 N 3.89605 1.89911 0.414023 0
M  V30 19 H -1.88304 3.174 -0.39128 0
M  V30 20 H -1.88502 2.89224 -2.03422 0
M  V30 21 H -2.31164 0.768706 -1.87545 0
M  V30 22 H -4.10966 1.42439 -0.559013 0
M  V30 23 H -3.04706 2.12029 0.668727 0
M  V30 24 H -2.71431 0.224669 1.8385 0
M  V30 25 H -4.379 -0.100424 1.19647 0
M  V30 26 H -3.00483 -2.11684 0.774989 0
M  V30 27 H -3.14003 -1.17529 -0.791983 0
M  V30 28 H -0.245478 0.834078 0.310527 0
M  V30 29 H -0.241877 -0.0130623 -1.30793 0
M  V30 30 H 1.87658 -3.56595 1.42462 0
M  V30 31 H 4.26516 -2.39819 0.908751 0
M  V30 32 H 4.70205 2.03135 1.0908 0
M  V30 33 H 3.90001 2.70561 -0.249665 0
M  V30 END ATOM
M  V30 BEGIN BOND
M  V30 1 1 1 2
M  V30 2 1 2 3
M  V30 3 1 3 4
M  V30 4 1 4 5
M  V30 5 1 5 6
M  V30 6 1 6 7
M  V30 7 1 6 8
M  V30 8 2 8 9
M  V30 9 1 8 10
M  V30 10 2 10 11
M  V30 11 1 11 12
M  V30 12 2 12 13
M  V30 13 1 13 14
M  V30 14 1 13 15
M  V30 15 2 15 16
M  V30 16 2 15 17
M  V30 17 1 15 18
M  V30 18 1 7 2
M  V30 19 1 14 10
M  V30 20 1 1 19
M  V30 21 1 1 20
M  V30 22 1 2 21
M  V30 23 1 3 22
M  V30 24 1 3 23
M  V30 25 1 4 24
M  V30 26 1 4 25
M  V30 27 1 5 26
M  V30 28 1 5 27
M  V30 29 1 7 28
M  V30 30 1 7 29
M  V30 31 1 11 30
M  V30 32 1 12 31
M  V30 33 1 18 32
M  V30 34 1 18 33
M  V30 END BOND
M  V30 END CTAB
M  END
