
     RDKit          3D

  0  0  0  0  0  0  0  0  0  0999 V3000
M  V30 BEGIN CTAB
M  V30 COUNTS 54 56 0 0 0
M  V30 BEGIN ATOM
M  V30 1 C 6.94198 -2.90405 -1.65957 0
M  V30 2 O 5.64351 -2.8256 -1.09849 0
M  V30 3 C 5.10496 -1.60164 -0.680493 0
M  V30 4 N 5.80167 -0.458532 -0.800152 0
M  V30 5 C 5.30406 0.752697 -0.402626 0
M  V30 6 N 6.06668 1.93372 -0.545102 0
M  V30 7 C 4.02649 0.740595 0.137605 0
M  V30 8 C 3.27581 -0.395989 0.281333 0
M  V30 9 C 3.83714 -1.58746 -0.140333 0
M  V30 10 C 1.98517 -0.344892 0.835887 0
M  V30 11 C 1.31028 -1.60207 0.962653 0
M  V30 12 N 0.793393 -2.62434 1.07105 0
M  V30 13 C 1.42699 0.820262 1.24974 0
M  V30 14 N 2.20364 1.94053 1.09302 0
M  V30 15 C 3.43575 1.9247 0.569218 0
M  V30 16 N 4.21325 3.10437 0.422133 0
M  V30 17 N 0.122703 0.96411 1.7938 0
M  V30 18 C -1.11973 0.897034 1.09628 0
M  V30 19 C -2.0815 -0.169041 1.50274 0
M  V30 20 C -3.34044 -0.101439 0.690306 0
M  V30 21 C -4.38045 0.673775 1.12659 0
M  V30 22 C -5.53633 0.722718 0.361459 0
M  V30 23 C -5.69196 0.0286855 -0.819215 0
M  V30 24 C -4.62753 -0.747845 -1.23987 0
M  V30 25 C -3.45865 -0.803905 -0.476265 0
M  V30 26 O -4.77648 -1.44911 -2.42652 0
M  V30 27 C -3.71665 -2.24508 -2.8783 0
M  V30 28 O -6.84664 0.0751085 -1.58721 0
M  V30 29 C -7.91102 0.891646 -1.10541 0
M  V30 30 C 0.00198508 1.29657 3.24044 0
M  V30 31 H 6.82117 -3.30728 -2.68785 0
M  V30 32 H 7.40423 -1.90177 -1.74857 0
M  V30 33 H 7.58474 -3.59879 -1.08412 0
M  V30 34 H 5.99497 2.48687 -1.41043 0
M  V30 35 H 6.69195 2.23825 0.214567 0
M  V30 36 H 3.28589 -2.51171 -0.0481951 0
M  V30 37 H 4.85153 3.44278 1.16019 0
M  V30 38 H 4.12864 3.64033 -0.458734 0
M  V30 39 H -1.67662 1.87983 1.22312 0
M  V30 40 H -0.973721 0.848026 -0.0182308 0
M  V30 41 H -1.72428 -1.19752 1.41634 0
M  V30 42 H -2.38994 -0.0576213 2.58168 0
M  V30 43 H -4.33134 1.25407 2.054 0
M  V30 44 H -6.38671 1.33601 0.685158 0
M  V30 45 H -2.65803 -1.43718 -0.86877 0
M  V30 46 H -3.56937 -3.17351 -2.2826 0
M  V30 47 H -3.96238 -2.53878 -3.9313 0
M  V30 48 H -2.74118 -1.71703 -2.88676 0
M  V30 49 H -7.51397 1.92843 -1.06295 0
M  V30 50 H -8.8161 0.819225 -1.72571 0
M  V30 51 H -8.10852 0.531406 -0.0565666 0
M  V30 52 H 0.0755032 0.36072 3.83836 0
M  V30 53 H 0.907218 1.89147 3.48129 0
M  V30 54 H -0.901761 1.87827 3.43239 0
M  V30 END ATOM
M  V30 BEGIN BOND
M  V30 1 1 1 2
M  V30 2 1 2 3
M  V30 3 2 3 4
M  V30 4 1 4 5
M  V30 5 1 5 6
M  V30 6 2 5 7
M  V30 7 1 7 8
M  V30 8 2 8 9
M  V30 9 1 8 10
M  V30 10 1 10 11
M  V30 11 3 11 12
M  V30 12 2 10 13
M  V30 13 1 13 14
M  V30 14 2 14 15
M  V30 15 1 15 16
M  V30 16 1 13 17
M  V30 17 1 17 18
M  V30 18 1 18 19
M  V30 19 1 19 20
M  V30 20 2 20 21
M  V30 21 1 21 22
M  V30 22 2 22 23
M  V30 23 1 23 24
M  V30 24 2 24 25
M  V30 25 1 24 26
M  V30 26 1 26 27
M  V30 27 1 23 28
M  V30 28 1 28 29
M  V30 29 1 17 30
M  V30 30 1 9 3
M  V30 31 1 25 20
M  V30 32 1 15 7
M  V30 33 1 1 31
M  V30 34 1 1 32
M  V30 35 1 1 33
M  V30 36 1 6 34
M  V30 37 1 6 35
M  V30 38 1 9 36
M  V30 39 1 16 37
M  V30 40 1 16 38
M  V30 41 1 18 39
M  V30 42 1 18 40
M  V30 43 1 19 41
M  V30 44 1 19 42
M  V30 45 1 21 43
M  V30 46 1 22 44
M  V30 47 1 25 45
M  V30 48 1 27 46
M  V30 49 1 27 47
M  V30 50 1 27 48
M  V30 51 1 29 49
M  V30 52 1 29 50
M  V30 53 1 29 51
M  V30 54 1 30 52
M  V30 55 1 30 53
M  V30 56 1 30 54
M  V30 END BOND
M  V30 END CTAB
M  END
