
     RDKit          3D

  0  0  0  0  0  0  0  0  0  0999 V3000
M  V30 BEGIN CTAB
M  V30 COUNTS 31 31 0 0 0
M  V30 BEGIN ATOM
M  V30 1 C -0.642581 -0.741712 -2.06313 0
M  V30 2 C -0.494157 -0.696833 -0.576053 0
M  V30 3 C -1.54926 0.0301451 0.124573 0
M  V30 4 C -1.38023 -0.0126862 1.6491 0
M  V30 5 C -1.79168 1.45667 -0.214622 0
M  V30 6 C -2.86355 -0.686927 -0.199363 0
M  V30 7 C 0.887201 -0.718388 -0.0747976 0
M  V30 8 N 1.4616 -1.76384 0.591334 0
M  V30 9 C 2.68231 -1.42598 1.06937 0
M  V30 10 N 2.91581 -0.160121 0.713779 0
M  V30 11 C 1.86059 0.291694 0.0286607 0
M  V30 12 N 1.74295 1.53189 -0.580519 0
M  V30 13 N 4.0814 0.605758 0.949949 0
M  V30 14 H -0.0489135 -1.57877 -2.49535 0
M  V30 15 H -0.381067 0.214354 -2.57188 0
M  V30 16 H -1.69729 -0.93694 -2.30338 0
M  V30 17 H -0.81143 -1.82535 -0.340037 0
M  V30 18 H -1.02654 0.955742 1.98817 0
M  V30 19 H -0.79508 -0.886716 1.95594 0
M  V30 20 H -2.40444 -0.178747 2.09471 0
M  V30 21 H -2.80678 1.70999 0.250647 0
M  V30 22 H -1.10202 2.14301 0.331271 0
M  V30 23 H -1.90761 1.66619 -1.26457 0
M  V30 24 H -3.46382 -0.859828 0.67988 0
M  V30 25 H -3.48986 -0.102171 -0.915947 0
M  V30 26 H -2.70258 -1.66097 -0.695436 0
M  V30 27 H 3.34079 -2.09114 1.63946 0
M  V30 28 H 1.84161 1.57156 -1.66106 0
M  V30 29 H 1.56905 2.43757 -0.118748 0
M  V30 30 H 4.19995 1.12307 1.83107 0
M  V30 31 H 4.77563 0.589473 0.17697 0
M  V30 END ATOM
M  V30 BEGIN BOND
M  V30 1 1 1 2
M  V30 2 1 2 3
M  V30 3 1 3 4
M  V30 4 1 3 5
M  V30 5 1 3 6
M  V30 6 1 2 7
M  V30 7 1 7 8
M  V30 8 2 8 9
M  V30 9 1 9 10
M  V30 10 1 10 11
M  V30 11 1 11 12
M  V30 12 1 10 13
M  V30 13 2 11 7
M  V30 14 1 1 14
M  V30 15 1 1 15
M  V30 16 1 1 16
M  V30 17 1 2 17
M  V30 18 1 4 18
M  V30 19 1 4 19
M  V30 20 1 4 20
M  V30 21 1 5 21
M  V30 22 1 5 22
M  V30 23 1 5 23
M  V30 24 1 6 24
M  V30 25 1 6 25
M  V30 26 1 6 26
M  V30 27 1 9 27
M  V30 28 1 12 28
M  V30 29 1 12 29
M  V30 30 1 13 30
M  V30 31 1 13 31
M  V30 END BOND
M  V30 END CTAB
M  END
