
     RDKit          3D

  0  0  0  0  0  0  0  0  0  0999 V3000
M  V30 BEGIN CTAB
M  V30 COUNTS 16 16 0 0 0
M  V30 BEGIN ATOM
M  V30 1 N 2.48358 -0.822483 -0.0972411 0
M  V30 2 C 1.22155 -0.189703 -0.0611723 0
M  V30 3 C 0.0590672 -0.898883 0.0709712 0
M  V30 4 C -1.19181 -0.295599 0.10854 0
M  V30 5 N -2.3466 -1.10871 0.248153 0
M  V30 6 C -1.28937 1.0741 0.0101965 0
M  V30 7 C -0.136673 1.80264 -0.122771 0
M  V30 8 C 1.1039 1.19242 -0.159121 0
M  V30 9 H 3.1417 -0.567768 -0.86544 0
M  V30 10 H 2.79408 -1.51803 0.585833 0
M  V30 11 H 0.13034 -1.974 0.148528 0
M  V30 12 H -3.1432 -0.896917 0.878541 0
M  V30 13 H -2.40957 -1.98263 -0.317619 0
M  V30 14 H -2.27237 1.5435 0.0400567 0
M  V30 15 H -0.154383 2.87002 -0.203291 0
M  V30 16 H 2.00975 1.77205 -0.264163 0
M  V30 END ATOM
M  V30 BEGIN BOND
M  V30 1 1 1 2
M  V30 2 2 2 3
M  V30 3 1 3 4
M  V30 4 1 4 5
M  V30 5 2 4 6
M  V30 6 1 6 7
M  V30 7 2 7 8
M  V30 8 1 8 2
M  V30 9 1 1 9
M  V30 10 1 1 10
M  V30 11 1 3 11
M  V30 12 1 5 12
M  V30 13 1 5 13
M  V30 14 1 6 14
M  V30 15 1 7 15
M  V30 16 1 8 16
M  V30 END BOND
M  V30 END CTAB
M  END
