
     RDKit          3D

  0  0  0  0  0  0  0  0  0  0999 V3000
M  V30 BEGIN CTAB
M  V30 COUNTS 27 28 0 0 0
M  V30 BEGIN ATOM
M  V30 1 N -3.97774 1.60668 -0.11165 0
M  V30 2 C -3.56085 0.382853 -0.769423 0
M  V30 3 C -3.22905 -0.708208 0.184156 0
M  V30 4 N -2.16882 -0.438439 1.109 0
M  V30 5 C -0.803463 -0.295981 0.74982 0
M  V30 6 N 0.241205 -0.0330464 1.56817 0
M  V30 7 C 1.38663 0.0095886 0.864329 0
M  V30 8 C 1.00479 -0.240067 -0.434801 0
M  V30 9 N -0.331124 -0.425561 -0.497353 0
M  V30 10 C 1.96917 -0.266354 -1.43271 0
M  V30 11 C 3.27717 -0.0403336 -1.08138 0
M  V30 12 C 3.69278 0.214239 0.22092 0
M  V30 13 C 2.71576 0.234561 1.19077 0
M  V30 14 N 5.06587 0.439549 0.51167 0
M  V30 15 H -4.41592 1.39937 0.807806 0
M  V30 16 H -3.20028 2.2727 -0.0755889 0
M  V30 17 H -2.77456 0.671437 -1.48301 0
M  V30 18 H -4.41396 0.0183293 -1.41391 0
M  V30 19 H -4.16196 -1.04167 0.689994 0
M  V30 20 H -2.92076 -1.59133 -0.456439 0
M  V30 21 H -2.41178 -0.338795 2.11843 0
M  V30 22 H -0.844637 -0.638663 -1.40121 0
M  V30 23 H 1.66702 -0.465007 -2.46799 0
M  V30 24 H 4.03441 -0.0587687 -1.85062 0
M  V30 25 H 3.00137 0.428286 2.20817 0
M  V30 26 H 5.35651 1.4155 0.722736 0
M  V30 27 H 5.80223 -0.293106 0.530104 0
M  V30 END ATOM
M  V30 BEGIN BOND
M  V30 1 1 1 2
M  V30 2 1 2 3
M  V30 3 1 3 4
M  V30 4 1 4 5
M  V30 5 2 5 6
M  V30 6 1 6 7
M  V30 7 2 7 8
M  V30 8 1 8 9
M  V30 9 1 8 10
M  V30 10 2 10 11
M  V30 11 1 11 12
M  V30 12 2 12 13
M  V30 13 1 12 14
M  V30 14 1 9 5
M  V30 15 1 13 7
M  V30 16 1 1 15
M  V30 17 1 1 16
M  V30 18 1 2 17
M  V30 19 1 2 18
M  V30 20 1 3 19
M  V30 21 1 3 20
M  V30 22 1 4 21
M  V30 23 1 9 22
M  V30 24 1 10 23
M  V30 25 1 11 24
M  V30 26 1 13 25
M  V30 27 1 14 26
M  V30 28 1 14 27
M  V30 END BOND
M  V30 END CTAB
M  END
