
     RDKit          3D

  0  0  0  0  0  0  0  0  0  0999 V3000
M  V30 BEGIN CTAB
M  V30 COUNTS 29 30 0 0 0
M  V30 BEGIN ATOM
M  V30 1 N -3.00308 1.03156 1.63583 0
M  V30 2 C -3.50475 0.0471863 0.727693 0
M  V30 3 C -2.84287 0.124667 -0.634841 0
M  V30 4 N -1.40838 -0.0825626 -0.525381 0
M  V30 5 N -0.473837 0.837623 -0.337974 0
M  V30 6 C 0.739735 0.274024 -0.288107 0
M  V30 7 C 0.528031 -1.0753 -0.456096 0
M  V30 8 C -0.84255 -1.31453 -0.608776 0
M  V30 9 N -1.48953 -2.55411 -0.804821 0
M  V30 10 C 2.0023 0.988038 -0.0931358 0
M  V30 11 C 3.11092 0.596771 -1.07731 0
M  V30 12 C 4.07745 0.741268 0.106283 0
M  V30 13 C 2.88414 0.362823 0.99426 0
M  V30 14 H -3.7728 1.41468 2.19253 0
M  V30 15 H -2.50367 1.82073 1.18047 0
M  V30 16 H -3.42733 -0.99808 1.1226 0
M  V30 17 H -4.58298 0.231876 0.562579 0
M  V30 18 H -3.04825 1.13354 -1.03363 0
M  V30 19 H -3.32798 -0.600923 -1.29962 0
M  V30 20 H 1.26049 -1.85522 -0.474391 0
M  V30 21 H -2.40382 -2.72572 -0.358204 0
M  V30 22 H -1.06283 -3.29053 -1.38721 0
M  V30 23 H 1.95376 2.06883 0.0213652 0
M  V30 24 H 3.2709 1.30788 -1.88523 0
M  V30 25 H 3.00278 -0.460196 -1.32173 0
M  V30 26 H 4.9002 0.0230144 0.114304 0
M  V30 27 H 4.32431 1.79821 0.268164 0
M  V30 28 H 2.86027 0.879903 1.95581 0
M  V30 29 H 2.77936 -0.725475 0.995988 0
M  V30 END ATOM
M  V30 BEGIN BOND
M  V30 1 1 1 2
M  V30 2 1 2 3
M  V30 3 1 3 4
M  V30 4 1 4 5
M  V30 5 2 5 6
M  V30 6 1 6 7
M  V30 7 2 7 8
M  V30 8 1 8 9
M  V30 9 1 6 10
M  V30 10 1 10 11
M  V30 11 1 11 12
M  V30 12 1 12 13
M  V30 13 1 8 4
M  V30 14 1 13 10
M  V30 15 1 1 14
M  V30 16 1 1 15
M  V30 17 1 2 16
M  V30 18 1 2 17
M  V30 19 1 3 18
M  V30 20 1 3 19
M  V30 21 1 7 20
M  V30 22 1 9 21
M  V30 23 1 9 22
M  V30 24 1 10 23
M  V30 25 1 11 24
M  V30 26 1 11 25
M  V30 27 1 12 26
M  V30 28 1 12 27
M  V30 29 1 13 28
M  V30 30 1 13 29
M  V30 END BOND
M  V30 END CTAB
M  END
