
     RDKit          3D

  0  0  0  0  0  0  0  0  0  0999 V3000
M  V30 BEGIN CTAB
M  V30 COUNTS 28 29 0 0 0
M  V30 BEGIN ATOM
M  V30 1 N -1.39271 2.58637 0.497928 0
M  V30 2 N -0.208063 1.98295 0.493674 0
M  V30 3 C -0.141672 0.527091 0.657137 0
M  V30 4 C -0.973533 -0.155558 -0.319205 0
M  V30 5 C -1.10573 -0.0233962 -1.68046 0
M  V30 6 N -2.16724 -0.784185 -2.04963 0
M  V30 7 N -2.68547 -1.37014 -0.998643 0
M  V30 8 C -2.01317 -1.03924 0.0753808 0
M  V30 9 N -2.20267 -1.55352 1.39481 0
M  V30 10 C 1.35083 0.283722 0.523012 0
M  V30 11 C 1.63768 -1.26309 0.629516 0
M  V30 12 C 2.85715 -0.926314 -0.178336 0
M  V30 13 C 2.0453 0.278587 -0.742918 0
M  V30 14 H -1.51186 3.50291 1.00878 0
M  V30 15 H -1.60249 2.89931 -0.524612 0
M  V30 16 H 0.520749 2.40163 1.0964 0
M  V30 17 H -0.48421 0.335419 1.67271 0
M  V30 18 H -0.520683 0.585672 -2.36155 0
M  V30 19 H -2.58834 -0.892716 -3.00764 0
M  V30 20 H -2.70852 -1.10272 2.16973 0
M  V30 21 H -1.77205 -2.52199 1.63436 0
M  V30 22 H 1.92251 0.790525 1.36545 0
M  V30 23 H 1.77012 -1.5258 1.68614 0
M  V30 24 H 0.933561 -1.84071 0.0359268 0
M  V30 25 H 3.69297 -0.591075 0.458655 0
M  V30 26 H 3.08757 -1.65458 -0.960085 0
M  V30 27 H 1.50714 -0.0625915 -1.60773 0
M  V30 28 H 2.75282 1.13342 -0.968787 0
M  V30 END ATOM
M  V30 BEGIN BOND
M  V30 1 1 1 2
M  V30 2 1 2 3
M  V30 3 1 3 4
M  V30 4 2 4 5
M  V30 5 1 5 6
M  V30 6 1 6 7
M  V30 7 2 7 8
M  V30 8 1 8 9
M  V30 9 1 3 10
M  V30 10 1 10 11
M  V30 11 1 11 12
M  V30 12 1 12 13
M  V30 13 1 8 4
M  V30 14 1 13 10
M  V30 15 1 1 14
M  V30 16 1 1 15
M  V30 17 1 2 16
M  V30 18 1 3 17
M  V30 19 1 5 18
M  V30 20 1 6 19
M  V30 21 1 9 20
M  V30 22 1 9 21
M  V30 23 1 10 22
M  V30 24 1 11 23
M  V30 25 1 11 24
M  V30 26 1 12 25
M  V30 27 1 12 26
M  V30 28 1 13 27
M  V30 29 1 13 28
M  V30 END BOND
M  V30 END CTAB
M  END
