
     RDKit          3D

  0  0  0  0  0  0  0  0  0  0999 V3000
M  V30 BEGIN CTAB
M  V30 COUNTS 28 28 0 0 0
M  V30 BEGIN ATOM
M  V30 1 N -4.41199 -0.835555 -0.261204 0
M  V30 2 C -3.71546 0.391785 -0.206849 0
M  V30 3 N -2.4805 0.466178 -0.134926 0
M  V30 4 S -1.50466 -0.965581 -0.109243 0
M  V30 5 O -1.81257 -1.80549 1.05413 0
M  V30 6 O -1.74413 -1.70326 -1.43979 0
M  V30 7 C 0.21869 -0.513835 -0.0890652 0
M  V30 8 C 0.611122 0.835867 -0.171243 0
M  V30 9 C 1.89386 1.2233 -0.20953 0
M  V30 10 C 2.8659 0.207049 -0.178593 0
M  V30 11 C 2.55083 -1.10417 -0.107598 0
M  V30 12 C 1.2028 -1.4656 -0.058318 0
M  V30 13 C 3.61814 -2.11186 -0.0932025 0
M  V30 14 F 4.02311 -2.26638 1.24365 0
M  V30 15 F 3.23042 -3.3652 -0.551618 0
M  V30 16 F 4.73275 -1.63012 -0.783768 0
M  V30 17 C 2.2367 2.68288 -0.281594 0
M  V30 18 F 1.45632 3.33606 -1.2447 0
M  V30 19 F 3.61042 2.76637 -0.593172 0
M  V30 20 F 2.1006 3.22061 0.918309 0
M  V30 21 N -4.45814 1.60306 -0.252865 0
M  V30 22 H -4.22918 -1.47464 -1.03258 0
M  V30 23 H -5.0972 -1.09596 0.479436 0
M  V30 24 H -0.244133 1.52339 -0.178526 0
M  V30 25 H 3.88995 0.546249 -0.222589 0
M  V30 26 H 0.923164 -2.51652 -0.00197437 0
M  V30 27 H -4.42344 2.20453 0.581028 0
M  V30 28 H -5.04338 1.84683 -1.04754 0
M  V30 END ATOM
M  V30 BEGIN BOND
M  V30 1 1 1 2
M  V30 2 2 2 3 CFG=2
M  V30 3 1 3 4
M  V30 4 2 4 5
M  V30 5 2 4 6
M  V30 6 1 4 7
M  V30 7 2 7 8
M  V30 8 1 8 9
M  V30 9 2 9 10
M  V30 10 1 10 11
M  V30 11 2 11 12
M  V30 12 1 11 13
M  V30 13 1 13 14
M  V30 14 1 13 15
M  V30 15 1 13 16
M  V30 16 1 9 17
M  V30 17 1 17 18
M  V30 18 1 17 19
M  V30 19 1 17 20
M  V30 20 1 2 21
M  V30 21 1 12 7
M  V30 22 1 1 22
M  V30 23 1 1 23
M  V30 24 1 8 24
M  V30 25 1 10 25
M  V30 26 1 12 26
M  V30 27 1 21 27
M  V30 28 1 21 28
M  V30 END BOND
M  V30 END CTAB
M  END
