
     RDKit          3D

  0  0  0  0  0  0  0  0  0  0999 V3000
M  V30 BEGIN CTAB
M  V30 COUNTS 25 26 0 0 0
M  V30 BEGIN ATOM
M  V30 1 S 2.84828 2.87402 -1.15412 0
M  V30 2 C 2.13524 1.26107 -0.777559 0
M  V30 3 N 2.81344 0.400141 -0.108412 0
M  V30 4 C 2.27315 -0.878853 0.200743 0
M  V30 5 N 1.09888 -1.20873 -0.178322 0
M  V30 6 C 0.261797 -0.351065 -0.918224 0
M  V30 7 N 0.835042 0.924487 -1.20341 0
M  V30 8 C -1.11763 -0.237881 -0.363767 0
M  V30 9 C -2.21744 -0.300653 -1.19358 0
M  V30 10 C -3.50267 -0.201959 -0.74112 0
M  V30 11 C -3.71614 -0.0323464 0.600578 0
M  V30 12 N -2.66275 0.0316567 1.42732 0
M  V30 13 C -1.37641 -0.0667025 0.977793 0
M  V30 14 N -0.303995 0.0100953 1.90858 0
M  V30 15 N 3.11223 -1.74668 0.945031 0
M  V30 16 H 3.10007 3.48734 0.0919227 0
M  V30 17 H 0.121272 -0.850727 -1.93063 0
M  V30 18 H 0.307652 1.6668 -1.74487 0
M  V30 19 H -2.03583 -0.43721 -2.27112 0
M  V30 20 H -4.29715 -0.262862 -1.46907 0
M  V30 21 H -4.73961 0.0443211 0.945084 0
M  V30 22 H -0.0996443 -0.791039 2.54584 0
M  V30 23 H 0.316669 0.842456 2.00308 0
M  V30 24 H 3.523 -1.49685 1.86146 0
M  V30 25 H 3.32253 -2.67884 0.54676 0
M  V30 END ATOM
M  V30 BEGIN BOND
M  V30 1 1 1 2
M  V30 2 2 2 3
M  V30 3 1 3 4
M  V30 4 2 4 5
M  V30 5 1 5 6
M  V30 6 1 6 7
M  V30 7 1 6 8
M  V30 8 2 8 9
M  V30 9 1 9 10
M  V30 10 2 10 11
M  V30 11 1 11 12
M  V30 12 2 12 13
M  V30 13 1 13 14
M  V30 14 1 4 15
M  V30 15 1 7 2
M  V30 16 1 13 8
M  V30 17 1 1 16
M  V30 18 1 6 17
M  V30 19 1 7 18
M  V30 20 1 9 19
M  V30 21 1 10 20
M  V30 22 1 11 21
M  V30 23 1 14 22
M  V30 24 1 14 23
M  V30 25 1 15 24
M  V30 26 1 15 25
M  V30 END BOND
M  V30 END CTAB
M  END
