
     RDKit          3D

  0  0  0  0  0  0  0  0  0  0999 V3000
M  V30 BEGIN CTAB
M  V30 COUNTS 24 24 0 0 0
M  V30 BEGIN ATOM
M  V30 1 Br -2.97356 -1.16054 2.6109 0
M  V30 2 C -2.92945 -0.392345 0.801744 0
M  V30 3 C -1.73109 -0.892021 0.151013 0
M  V30 4 O -1.9496 -2.09338 -0.338295 0
M  V30 5 C -0.426641 -0.335678 -0.039003 0
M  V30 6 C -0.0296249 0.897503 0.372106 0
M  V30 7 C -0.93063 1.82156 1.07662 0
M  V30 8 C 1.28921 1.30225 0.102012 0
M  V30 9 C 2.19353 0.515108 -0.555282 0
M  V30 10 C 1.7571 -0.719531 -0.95389 0
M  V30 11 C 0.494081 -1.17499 -0.725097 0
M  V30 12 N 0.0868616 -2.46363 -1.15551 0
M  V30 13 N 3.51237 0.991868 -0.793771 0
M  V30 14 H -3.13937 0.667241 0.821134 0
M  V30 15 H -3.87136 -0.858629 0.33091 0
M  V30 16 H -0.282856 2.71878 1.36831 0
M  V30 17 H -1.66669 2.32301 0.382022 0
M  V30 18 H -1.33272 1.48191 2.0224 0
M  V30 19 H 1.60357 2.29658 0.43511 0
M  V30 20 H 2.45317 -1.37286 -1.48091 0
M  V30 21 H -0.330001 -2.60975 -2.11974 0
M  V30 22 H 0.185972 -3.29677 -0.540413 0
M  V30 23 H 3.65853 1.92199 -1.21584 0
M  V30 24 H 4.3592 0.432326 -0.556531 0
M  V30 END ATOM
M  V30 BEGIN BOND
M  V30 1 1 1 2
M  V30 2 1 2 3
M  V30 3 2 3 4
M  V30 4 1 3 5
M  V30 5 2 5 6
M  V30 6 1 6 7
M  V30 7 1 6 8
M  V30 8 2 8 9
M  V30 9 1 9 10
M  V30 10 2 10 11
M  V30 11 1 11 12
M  V30 12 1 9 13
M  V30 13 1 11 5
M  V30 14 1 2 14
M  V30 15 1 2 15
M  V30 16 1 7 16
M  V30 17 1 7 17
M  V30 18 1 7 18
M  V30 19 1 8 19
M  V30 20 1 10 20
M  V30 21 1 12 21
M  V30 22 1 12 22
M  V30 23 1 13 23
M  V30 24 1 13 24
M  V30 END BOND
M  V30 END CTAB
M  END
