
     RDKit          3D

  0  0  0  0  0  0  0  0  0  0999 V3000
M  V30 BEGIN CTAB
M  V30 COUNTS 37 38 0 0 0
M  V30 BEGIN ATOM
M  V30 1 N -2.78937 -2.72772 -0.43496 0
M  V30 2 C -2.18483 -1.54382 -0.999404 0
M  V30 3 C -1.43707 -0.742007 0.0415455 0
M  V30 4 N -0.86336 0.418882 -0.591356 0
M  V30 5 C -1.82288 1.37976 -1.03457 0
M  V30 6 C -1.69151 2.74231 -0.455503 0
M  V30 7 C -1.19214 2.81461 0.945184 0
M  V30 8 C -0.378257 1.62932 1.38347 0
M  V30 9 C 0.205631 1.01678 0.160985 0 CFG=1
M  V30 10 C 1.34953 0.11955 0.371439 0
M  V30 11 C 1.98314 -0.078336 1.58498 0
M  V30 12 C 3.06965 -0.943936 1.70837 0
M  V30 13 C 3.53921 -1.6241 0.623652 0
M  V30 14 C 2.9365 -1.45809 -0.611617 0
M  V30 15 C 1.86989 -0.59608 -0.687476 0
M  V30 16 N 3.43657 -2.16888 -1.72462 0
M  V30 17 H -3.7869 -2.67971 -0.261572 0
M  V30 18 H -2.22538 -3.12425 0.337195 0
M  V30 19 H -1.49689 -1.8568 -1.82249 0
M  V30 20 H -2.99711 -0.976403 -1.48326 0
M  V30 21 H -2.17346 -0.463011 0.833994 0
M  V30 22 H -0.66532 -1.36832 0.486053 0
M  V30 23 H -1.72282 1.45158 -2.14494 0
M  V30 24 H -2.83365 0.955736 -0.855937 0
M  V30 25 H -1.02076 3.38571 -1.0901 0
M  V30 26 H -2.68172 3.24483 -0.495777 0
M  V30 27 H -2.01067 2.95714 1.69233 0
M  V30 28 H -0.538616 3.72017 1.0787 0
M  V30 29 H 0.393503 1.9781 2.10485 0
M  V30 30 H -1.06935 0.93488 1.93051 0
M  V30 31 H 0.58716 1.87198 -0.474989 0
M  V30 32 H 1.63975 0.439392 2.46232 0
M  V30 33 H 3.56007 -1.08909 2.67049 0
M  V30 34 H 4.38123 -2.30851 0.666716 0
M  V30 35 H 1.39263 -0.465095 -1.65905 0
M  V30 36 H 3.11285 -3.12552 -1.91041 0
M  V30 37 H 4.12477 -1.72105 -2.34476 0
M  V30 END ATOM
M  V30 BEGIN BOND
M  V30 1 1 1 2
M  V30 2 1 2 3
M  V30 3 1 3 4
M  V30 4 1 4 5
M  V30 5 1 5 6
M  V30 6 1 6 7
M  V30 7 1 7 8
M  V30 8 1 8 9
M  V30 9 1 9 10
M  V30 10 2 10 11
M  V30 11 1 11 12
M  V30 12 2 12 13
M  V30 13 1 13 14
M  V30 14 2 14 15
M  V30 15 1 14 16
M  V30 16 1 9 4
M  V30 17 1 15 10
M  V30 18 1 1 17
M  V30 19 1 1 18
M  V30 20 1 2 19
M  V30 21 1 2 20
M  V30 22 1 3 21
M  V30 23 1 3 22
M  V30 24 1 5 23
M  V30 25 1 5 24
M  V30 26 1 6 25
M  V30 27 1 6 26
M  V30 28 1 7 27
M  V30 29 1 7 28
M  V30 30 1 8 29
M  V30 31 1 8 30
M  V30 32 1 9 31 CFG=3
M  V30 33 1 11 32
M  V30 34 1 12 33
M  V30 35 1 13 34
M  V30 36 1 15 35
M  V30 37 1 16 36
M  V30 38 1 16 37
M  V30 END BOND
M  V30 END CTAB
M  END
