
     RDKit          3D

  0  0  0  0  0  0  0  0  0  0999 V3000
M  V30 BEGIN CTAB
M  V30 COUNTS 28 28 0 0 0
M  V30 BEGIN ATOM
M  V30 1 C 3.5605 0.797962 -0.00292414 0
M  V30 2 C 2.47662 -0.0978275 -0.523167 0
M  V30 3 C 1.152 0.287226 0.142607 0 CFG=1
M  V30 4 C 0.0912714 -0.579288 -0.499804 0
M  V30 5 C -1.25657 -0.373578 -0.00522171 0
M  V30 6 C -1.92654 -1.16104 0.888271 0
M  V30 7 C -3.25769 -1.00012 1.13468 0
M  V30 8 C -4.00096 -0.00781153 0.481624 0
M  V30 9 N -3.31109 0.742239 -0.38037 0
M  V30 10 C -2.02253 0.606452 -0.639036 0
M  V30 11 N -1.34586 1.47411 -1.49871 0
M  V30 12 O 0.4604 -1.92362 -0.129488 0
M  V30 13 N 1.21977 0.148872 1.52852 0
M  V30 14 H 3.42541 1.76587 -0.601301 0
M  V30 15 H 3.34966 1.01718 1.03824 0
M  V30 16 H 4.55117 0.471242 -0.15294 0
M  V30 17 H 2.43475 -0.00237891 -1.61958 0
M  V30 18 H 2.75261 -1.16232 -0.330726 0
M  V30 19 H 0.975615 1.3675 -0.112505 0
M  V30 20 H 0.194549 -0.591794 -1.58465 0
M  V30 21 H -1.4152 -1.96137 1.42888 0
M  V30 22 H -3.75847 -1.66319 1.84139 0
M  V30 23 H -5.04498 0.0824489 0.703995 0
M  V30 24 H -1.10881 2.44698 -1.08965 0
M  V30 25 H -1.04954 1.28487 -2.45845 0
M  V30 26 H 0.519283 -1.85696 0.886722 0
M  V30 27 H 0.363655 0.276415 2.05542 0
M  V30 28 H 1.97097 -0.388075 1.97466 0
M  V30 END ATOM
M  V30 BEGIN BOND
M  V30 1 1 1 2
M  V30 2 1 2 3
M  V30 3 1 3 4
M  V30 4 1 4 5
M  V30 5 2 5 6
M  V30 6 1 6 7
M  V30 7 2 7 8
M  V30 8 1 8 9
M  V30 9 2 9 10
M  V30 10 1 10 11
M  V30 11 1 4 12
M  V30 12 1 3 13
M  V30 13 1 10 5
M  V30 14 1 1 14
M  V30 15 1 1 15
M  V30 16 1 1 16
M  V30 17 1 2 17
M  V30 18 1 2 18
M  V30 19 1 3 19 CFG=1
M  V30 20 1 4 20
M  V30 21 1 6 21
M  V30 22 1 7 22
M  V30 23 1 8 23
M  V30 24 1 11 24
M  V30 25 1 11 25
M  V30 26 1 12 26
M  V30 27 1 13 27
M  V30 28 1 13 28
M  V30 END BOND
M  V30 END CTAB
M  END
