
     RDKit          3D

  0  0  0  0  0  0  0  0  0  0999 V3000
M  V30 BEGIN CTAB
M  V30 COUNTS 23 22 0 0 0
M  V30 BEGIN ATOM
M  V30 1 N 3.38505 1.23997 1.16818 0
M  V30 2 N 3.74234 0.0437891 0.512117 0
M  V30 3 C 2.91244 -0.421829 -0.400661 0
M  V30 4 S 1.42966 0.518443 -0.707056 0
M  V30 5 C 0.113814 -0.180829 0.315925 0
M  V30 6 C -1.03164 -0.539708 -0.528882 0
M  V30 7 C -2.21495 0.0460845 -0.242244 0
M  V30 8 C -3.44716 -0.231538 -1.02607 0
M  V30 9 C -2.31722 0.989674 0.904798 0
M  V30 10 N 3.23113 -1.60405 -1.04858 0
M  V30 11 H 3.55246 1.26226 2.19274 0
M  V30 12 H 2.98637 2.07397 0.696826 0
M  V30 13 H -0.124363 0.526357 1.1231 0
M  V30 14 H 0.447739 -1.12236 0.829439 0
M  V30 15 H -0.991754 -1.23785 -1.34583 0
M  V30 16 H -3.40815 -1.16069 -1.60528 0
M  V30 17 H -4.26357 -0.295808 -0.263911 0
M  V30 18 H -3.60645 0.678333 -1.67529 0
M  V30 19 H -1.9607 0.448035 1.81595 0
M  V30 20 H -3.40725 1.22016 1.11145 0
M  V30 21 H -1.72708 1.90921 0.770409 0
M  V30 22 H 2.50038 -2.3617 -1.1423 0
M  V30 23 H 4.1989 -1.79992 -1.45483 0
M  V30 END ATOM
M  V30 BEGIN BOND
M  V30 1 1 1 2
M  V30 2 2 2 3 CFG=2
M  V30 3 1 3 4
M  V30 4 1 4 5
M  V30 5 1 5 6
M  V30 6 2 6 7 CFG=2
M  V30 7 1 7 8
M  V30 8 1 7 9
M  V30 9 1 3 10
M  V30 10 1 1 11
M  V30 11 1 1 12
M  V30 12 1 5 13
M  V30 13 1 5 14
M  V30 14 1 6 15
M  V30 15 1 8 16
M  V30 16 1 8 17
M  V30 17 1 8 18
M  V30 18 1 9 19
M  V30 19 1 9 20
M  V30 20 1 9 21
M  V30 21 1 10 22
M  V30 22 1 10 23
M  V30 END BOND
M  V30 END CTAB
M  END
