
     RDKit          3D

  0  0  0  0  0  0  0  0  0  0999 V3000
M  V30 BEGIN CTAB
M  V30 COUNTS 26 27 0 0 0
M  V30 BEGIN ATOM
M  V30 1 O 3.95755 1.06054 -0.381253 0
M  V30 2 C 3.60608 -0.161939 0.141129 0
M  V30 3 C 2.61329 -0.856952 -0.758936 0
M  V30 4 N 1.54488 -0.379637 0.0915776 0
M  V30 5 C 2.47889 -0.15202 1.14732 0
M  V30 6 C 0.138616 -0.233208 -0.133241 0
M  V30 7 C -0.440495 -0.569976 -1.33365 0
M  V30 8 C -1.78956 -0.442635 -1.58592 0
M  V30 9 C -2.62613 0.0508589 -0.585783 0
M  V30 10 C -2.04584 0.390042 0.621906 0
M  V30 11 C -0.698017 0.254384 0.850406 0
M  V30 12 F -0.16959 0.600113 2.05298 0
M  V30 13 N -2.93277 0.894477 1.62988 0
M  V30 14 N -4.01459 0.202491 -0.787989 0
M  V30 15 H 3.37249 1.74815 -0.0071535 0
M  V30 16 H 4.4529 -0.761733 0.479044 0
M  V30 17 H 2.67324 -1.96313 -0.715215 0
M  V30 18 H 2.53001 -0.428718 -1.78963 0
M  V30 19 H 2.54031 -1.0526 1.80575 0
M  V30 20 H 2.38371 0.805754 1.69297 0
M  V30 21 H 0.19875 -0.960004 -2.13395 0
M  V30 22 H -2.25026 -0.707634 -2.53274 0
M  V30 23 H -2.87599 0.532761 2.58721 0
M  V30 24 H -3.61009 1.61245 1.36746 0
M  V30 25 H -4.4488 1.13094 -0.671128 0
M  V30 26 H -4.5886 -0.612776 -1.05105 0
M  V30 END ATOM
M  V30 BEGIN BOND
M  V30 1 1 1 2
M  V30 2 1 2 3
M  V30 3 1 3 4
M  V30 4 1 4 5
M  V30 5 1 4 6
M  V30 6 2 6 7
M  V30 7 1 7 8
M  V30 8 2 8 9
M  V30 9 1 9 10
M  V30 10 2 10 11
M  V30 11 1 11 12
M  V30 12 1 10 13
M  V30 13 1 9 14
M  V30 14 1 5 2
M  V30 15 1 11 6
M  V30 16 1 1 15
M  V30 17 1 2 16
M  V30 18 1 3 17
M  V30 19 1 3 18
M  V30 20 1 5 19
M  V30 21 1 5 20
M  V30 22 1 7 21
M  V30 23 1 8 22
M  V30 24 1 13 23
M  V30 25 1 13 24
M  V30 26 1 14 25
M  V30 27 1 14 26
M  V30 END BOND
M  V30 END CTAB
M  END
