
     RDKit          3D

  0  0  0  0  0  0  0  0  0  0999 V3000
M  V30 BEGIN CTAB
M  V30 COUNTS 29 30 0 0 0
M  V30 BEGIN ATOM
M  V30 1 N 3.42345 0.543473 0.654741 0
M  V30 2 C 2.68808 -0.395003 -0.133205 0
M  V30 3 C 1.24214 -0.337726 0.276415 0
M  V30 4 C 0.38452 -1.3105 -0.517197 0
M  V30 5 C -0.5945 -0.446811 -1.31194 0
M  V30 6 C 0.29392 0.797118 -1.51228 0
M  V30 7 C 0.592423 0.971785 -0.0150477 0
M  V30 8 C -0.80173 0.903481 0.582898 0
M  V30 9 C -1.63099 0.175251 -0.437114 0
M  V30 10 C -2.61063 -0.781661 0.153178 0
M  V30 11 N -3.53947 0.00285387 0.971889 0
M  V30 12 H 3.91834 0.10851 1.47314 0
M  V30 13 H 4.05959 1.15473 0.0861733 0
M  V30 14 H 2.8658 -0.193262 -1.18798 0
M  V30 15 H 3.04742 -1.4278 0.0802286 0
M  V30 16 H 1.19728 -0.521793 1.36189 0
M  V30 17 H -0.218251 -1.86725 0.22309 0
M  V30 18 H 0.964837 -1.93378 -1.19818 0
M  V30 19 H -0.926361 -0.884581 -2.23183 0
M  V30 20 H -0.318134 1.61098 -1.90024 0
M  V30 21 H 1.18761 0.570016 -2.08786 0
M  V30 22 H 1.14418 1.85773 0.214959 0
M  V30 23 H -0.797446 0.262379 1.50712 0
M  V30 24 H -1.19338 1.87334 0.880477 0
M  V30 25 H -2.18002 0.92601 -1.0212 0
M  V30 26 H -2.17356 -1.59402 0.738262 0
M  V30 27 H -3.22258 -1.19459 -0.674852 0
M  V30 28 H -3.08175 0.196845 1.89177 0
M  V30 29 H -3.72077 0.934282 0.536619 0
M  V30 END ATOM
M  V30 BEGIN BOND
M  V30 1 1 1 2
M  V30 2 1 2 3
M  V30 3 1 3 4
M  V30 4 1 4 5
M  V30 5 1 5 6
M  V30 6 1 6 7
M  V30 7 1 7 8
M  V30 8 1 8 9
M  V30 9 1 9 10
M  V30 10 1 10 11
M  V30 11 1 7 3
M  V30 12 1 9 5
M  V30 13 1 1 12
M  V30 14 1 1 13
M  V30 15 1 2 14
M  V30 16 1 2 15
M  V30 17 1 3 16
M  V30 18 1 4 17
M  V30 19 1 4 18
M  V30 20 1 5 19
M  V30 21 1 6 20
M  V30 22 1 6 21
M  V30 23 1 7 22
M  V30 24 1 8 23
M  V30 25 1 8 24
M  V30 26 1 9 25
M  V30 27 1 10 26
M  V30 28 1 10 27
M  V30 29 1 11 28
M  V30 30 1 11 29
M  V30 END BOND
M  V30 END CTAB
M  END
