
     RDKit          3D

  0  0  0  0  0  0  0  0  0  0999 V3000
M  V30 BEGIN CTAB
M  V30 COUNTS 34 36 0 0 0
M  V30 BEGIN ATOM
M  V30 1 N -3.83229 2.8807 -1.44119 0
M  V30 2 C -3.79047 1.74206 -0.508845 0
M  V30 3 C -2.43674 1.10224 -0.693363 0
M  V30 4 C -2.23886 -0.0694509 0.1831 0
M  V30 5 C -3.06705 -0.645086 1.10625 0
M  V30 6 N -2.47276 -1.70678 1.6795 0
M  V30 7 C -1.24911 -1.80141 1.10744 0
M  V30 8 C -1.06061 -0.80982 0.176269 0
M  V30 9 C 0.113643 -0.683103 -0.554953 0
M  V30 10 C 1.14302 -1.56997 -0.359796 0
M  V30 11 C 2.41151 -1.43655 -1.14681 0
M  V30 12 C 3.34144 -0.551827 -0.384816 0
M  V30 13 N 3.44145 0.784342 -0.476966 0
M  V30 14 C 4.39924 1.18397 0.379634 0
M  V30 15 N 4.85767 2.5095 0.630516 0
M  V30 16 N 4.85696 0.0732736 0.97161 0
M  V30 17 O 4.2179 -0.958509 0.507405 0
M  V30 18 C 0.971503 -2.57161 0.570754 0
M  V30 19 C -0.192157 -2.69292 1.29181 0
M  V30 20 H -2.88778 3.34863 -1.34694 0
M  V30 21 H -3.99767 2.56521 -2.41839 0
M  V30 22 H -4.62516 1.05343 -0.680267 0
M  V30 23 H -3.85862 2.18772 0.50408 0
M  V30 24 H -2.25555 0.814755 -1.74874 0
M  V30 25 H -1.6736 1.86327 -0.379471 0
M  V30 26 H -4.0514 -0.308332 1.34804 0
M  V30 27 H -2.85577 -2.3538 2.42548 0
M  V30 28 H 0.21668 0.1143 -1.27792 0
M  V30 29 H 2.85467 -2.41173 -1.36913 0
M  V30 30 H 2.22105 -0.932639 -2.12022 0
M  V30 31 H 4.33449 3.35313 0.322232 0
M  V30 32 H 5.74718 2.65969 1.13988 0
M  V30 33 H 1.77566 -3.26787 0.726086 0
M  V30 34 H -0.358476 -3.46481 2.02709 0
M  V30 END ATOM
M  V30 BEGIN BOND
M  V30 1 1 1 2
M  V30 2 1 2 3
M  V30 3 1 3 4
M  V30 4 2 4 5
M  V30 5 1 5 6
M  V30 6 1 6 7
M  V30 7 2 7 8
M  V30 8 1 8 9
M  V30 9 2 9 10
M  V30 10 1 10 11
M  V30 11 1 11 12
M  V30 12 2 12 13
M  V30 13 1 13 14
M  V30 14 1 14 15
M  V30 15 2 14 16
M  V30 16 1 16 17
M  V30 17 1 10 18
M  V30 18 2 18 19
M  V30 19 1 8 4
M  V30 20 1 17 12
M  V30 21 1 19 7
M  V30 22 1 1 20
M  V30 23 1 1 21
M  V30 24 1 2 22
M  V30 25 1 2 23
M  V30 26 1 3 24
M  V30 27 1 3 25
M  V30 28 1 5 26
M  V30 29 1 6 27
M  V30 30 1 9 28
M  V30 31 1 11 29
M  V30 32 1 11 30
M  V30 33 1 15 31
M  V30 34 1 15 32
M  V30 35 1 18 33
M  V30 36 1 19 34
M  V30 END BOND
M  V30 END CTAB
M  END
