
     RDKit          3D

  0  0  0  0  0  0  0  0  0  0999 V3000
M  V30 BEGIN CTAB
M  V30 COUNTS 27 27 0 0 0
M  V30 BEGIN ATOM
M  V30 1 C 0.971757 1.99436 -0.614852 0
M  V30 2 N 0.876392 0.576802 -0.351562 0
M  V30 3 C 2.03004 -0.0359861 0.218482 0
M  V30 4 N 2.29231 -1.2891 0.0631777 0
M  V30 5 N 3.3795 -1.93672 0.582453 0
M  V30 6 N 2.95846 0.71891 0.996545 0
M  V30 7 C -0.247586 -0.244523 -0.606325 0
M  V30 8 C -1.48264 0.119426 0.0907058 0
M  V30 9 C -1.7893 1.13041 0.973749 0
M  V30 10 C -3.10789 0.992724 1.31196 0
M  V30 11 O -3.56493 -0.0555872 0.657522 0
M  V30 12 C -2.64935 -0.600555 -0.0713355 0
M  V30 13 C -2.87275 -1.81521 -0.932791 0
M  V30 14 H 1.05066 2.53976 0.352993 0
M  V30 15 H 0.167265 2.37588 -1.2647 0
M  V30 16 H 1.93187 2.22482 -1.15166 0
M  V30 17 H 3.59132 -2.9102 0.303921 0
M  V30 18 H 4.0002 -1.45859 1.25884 0
M  V30 19 H 3.97607 0.723909 0.843702 0
M  V30 20 H 2.54278 1.29649 1.76778 0
M  V30 21 H -0.476819 -0.143302 -1.71123 0
M  V30 22 H -0.0232001 -1.30359 -0.46648 0
M  V30 23 H -1.05949 1.88002 1.30588 0
M  V30 24 H -3.66235 1.62494 1.98641 0
M  V30 25 H -3.52279 -2.50135 -0.352477 0
M  V30 26 H -3.39135 -1.54749 -1.87165 0
M  V30 27 H -1.91819 -2.35627 -1.11403 0
M  V30 END ATOM
M  V30 BEGIN BOND
M  V30 1 1 1 2
M  V30 2 1 2 3
M  V30 3 2 3 4
M  V30 4 1 4 5
M  V30 5 1 3 6
M  V30 6 1 2 7
M  V30 7 1 7 8
M  V30 8 1 8 9
M  V30 9 2 9 10
M  V30 10 1 10 11
M  V30 11 1 11 12
M  V30 12 1 12 13
M  V30 13 2 12 8
M  V30 14 1 1 14
M  V30 15 1 1 15
M  V30 16 1 1 16
M  V30 17 1 5 17
M  V30 18 1 5 18
M  V30 19 1 6 19
M  V30 20 1 6 20
M  V30 21 1 7 21
M  V30 22 1 7 22
M  V30 23 1 9 23
M  V30 24 1 10 24
M  V30 25 1 13 25
M  V30 26 1 13 26
M  V30 27 1 13 27
M  V30 END BOND
M  V30 END CTAB
M  END
