
     RDKit          3D

  0  0  0  0  0  0  0  0  0  0999 V3000
M  V30 BEGIN CTAB
M  V30 COUNTS 43 44 0 0 0
M  V30 BEGIN ATOM
M  V30 1 C -6.42641 -2.97932 -0.589055 0
M  V30 2 O -5.03359 -2.83693 -0.789423 0
M  V30 3 C -4.34211 -1.70581 -0.387911 0
M  V30 4 C -2.97065 -1.60798 -0.605322 0
M  V30 5 C -2.30739 -0.487999 -0.203682 0
M  V30 6 N -0.917772 -0.301643 -0.383059 0
M  V30 7 C 0.0130925 -1.15225 -0.96511 0
M  V30 8 O -0.261385 -2.2634 -1.43837 0
M  V30 9 C 1.44844 -0.708664 -1.03146 0
M  V30 10 S 2.05163 -0.431722 0.674354 0
M  V30 11 C 3.77092 0.0953249 0.505019 0
M  V30 12 N 4.73383 -0.843778 0.495646 0
M  V30 13 C 6.04273 -0.477474 0.369029 0
M  V30 14 N 7.07043 -1.46421 0.357953 0
M  V30 15 C 6.41277 0.845744 0.248679 0
M  V30 16 C 5.39717 1.7883 0.261863 0
M  V30 17 N 4.12456 1.36897 0.389359 0
M  V30 18 N 5.7642 3.14213 0.139645 0
M  V30 19 C 1.49136 0.651987 -1.71568 0
M  V30 20 C -3.04897 0.524903 0.417433 0
M  V30 21 C -4.39159 0.438513 0.634692 0
M  V30 22 C -5.05386 -0.698374 0.224865 0
M  V30 23 O -5.12502 1.45852 1.2576 0
M  V30 24 C -4.40883 2.61071 1.66432 0
M  V30 25 H -6.96504 -2.10828 -1.06405 0
M  V30 26 H -6.77608 -3.93822 -1.01827 0
M  V30 27 H -6.69876 -2.90153 0.49795 0
M  V30 28 H -2.52735 -2.4522 -1.08941 0
M  V30 29 H -0.498053 0.633778 -0.0209317 0
M  V30 30 H 2.06586 -1.44828 -1.54543 0
M  V30 31 H 7.20521 -1.99246 -0.538194 0
M  V30 32 H 7.66807 -1.66657 1.18481 0
M  V30 33 H 7.44569 1.15616 0.14716 0
M  V30 34 H 5.55602 3.79861 0.903047 0
M  V30 35 H 6.23874 3.47097 -0.711273 0
M  V30 36 H 2.33394 0.725893 -2.40952 0
M  V30 37 H 0.551169 0.855024 -2.28282 0
M  V30 38 H 1.59001 1.48182 -0.987837 0
M  V30 39 H -2.54585 1.41385 0.740655 0
M  V30 40 H -6.11549 -0.754445 0.40247 0
M  V30 41 H -5.06745 3.42642 1.98872 0
M  V30 42 H -3.63021 2.36319 2.40634 0
M  V30 43 H -3.86401 2.97074 0.746955 0
M  V30 END ATOM
M  V30 BEGIN BOND
M  V30 1 1 1 2
M  V30 2 1 2 3
M  V30 3 2 3 4
M  V30 4 1 4 5
M  V30 5 1 5 6
M  V30 6 1 6 7
M  V30 7 2 7 8
M  V30 8 1 7 9
M  V30 9 1 9 10
M  V30 10 1 10 11
M  V30 11 2 11 12
M  V30 12 1 12 13
M  V30 13 1 13 14
M  V30 14 2 13 15
M  V30 15 1 15 16
M  V30 16 2 16 17
M  V30 17 1 16 18
M  V30 18 1 9 19
M  V30 19 2 5 20
M  V30 20 1 20 21
M  V30 21 2 21 22
M  V30 22 1 21 23
M  V30 23 1 23 24
M  V30 24 1 22 3
M  V30 25 1 17 11
M  V30 26 1 1 25
M  V30 27 1 1 26
M  V30 28 1 1 27
M  V30 29 1 4 28
M  V30 30 1 6 29
M  V30 31 1 9 30
M  V30 32 1 14 31
M  V30 33 1 14 32
M  V30 34 1 15 33
M  V30 35 1 18 34
M  V30 36 1 18 35
M  V30 37 1 19 36
M  V30 38 1 19 37
M  V30 39 1 19 38
M  V30 40 1 20 39
M  V30 41 1 22 40
M  V30 42 1 24 41
M  V30 43 1 24 42
M  V30 44 1 24 43
M  V30 END BOND
M  V30 END CTAB
M  END
