
     RDKit          3D

  0  0  0  0  0  0  0  0  0  0999 V3000
M  V30 BEGIN CTAB
M  V30 COUNTS 26 26 0 0 0
M  V30 BEGIN ATOM
M  V30 1 C -3.22714 -0.453644 1.45195 0
M  V30 2 N -2.29537 0.0426181 0.367147 0
M  V30 3 C -2.9327 0.71422 -0.740074 0
M  V30 4 C -0.961703 -0.222577 0.598414 0
M  V30 5 O -0.737855 -0.855181 1.7122 0
M  V30 6 C 0.221008 0.0766033 -0.173244 0
M  V30 7 C 0.229759 0.738757 -1.38413 0
M  V30 8 C 1.40959 0.987828 -2.0634 0
M  V30 9 C 2.59805 0.576251 -1.53782 0
M  V30 10 C 2.61023 -0.0945157 -0.315173 0
M  V30 11 N 3.88021 -0.494592 0.173889 0
M  V30 12 C 1.45279 -0.348173 0.368205 0
M  V30 13 N 1.52841 -1.03193 1.60249 0
M  V30 14 H -3.19598 0.321998 2.23055 0
M  V30 15 H -4.21373 -0.651175 1.01761 0
M  V30 16 H -2.82109 -1.39074 1.87243 0
M  V30 17 H -4.05455 0.716289 -0.55396 0
M  V30 18 H -2.79108 0.155897 -1.6738 0
M  V30 19 H -2.64917 1.77279 -0.848285 0
M  V30 20 H -0.702415 1.08635 -1.84139 0
M  V30 21 H 1.34308 1.5186 -3.02005 0
M  V30 22 H 3.53247 0.77342 -2.07562 0
M  V30 23 H 4.20837 -1.45037 -0.00928799 0
M  V30 24 H 4.45742 0.169687 0.703435 0
M  V30 25 H 1.49428 -2.09124 1.61165 0
M  V30 26 H 1.61713 -0.567165 2.52626 0
M  V30 END ATOM
M  V30 BEGIN BOND
M  V30 1 1 1 2
M  V30 2 1 2 3
M  V30 3 1 2 4
M  V30 4 2 4 5
M  V30 5 1 4 6
M  V30 6 2 6 7
M  V30 7 1 7 8
M  V30 8 2 8 9
M  V30 9 1 9 10
M  V30 10 1 10 11
M  V30 11 2 10 12
M  V30 12 1 12 13
M  V30 13 1 12 6
M  V30 14 1 1 14
M  V30 15 1 1 15
M  V30 16 1 1 16
M  V30 17 1 3 17
M  V30 18 1 3 18
M  V30 19 1 3 19
M  V30 20 1 7 20
M  V30 21 1 8 21
M  V30 22 1 9 22
M  V30 23 1 11 23
M  V30 24 1 11 24
M  V30 25 1 13 25
M  V30 26 1 13 26
M  V30 END BOND
M  V30 END CTAB
M  END
