
     RDKit          3D

  0  0  0  0  0  0  0  0  0  0999 V3000
M  V30 BEGIN CTAB
M  V30 COUNTS 63 63 0 0 0
M  V30 BEGIN ATOM
M  V30 1 C 5.55046 -2.31114 -0.462623 0
M  V30 2 C 5.5713 -1.09513 0.420687 0
M  V30 3 C 4.24184 -0.324323 0.327216 0
M  V30 4 C 3.16357 -1.23759 0.754034 0
M  V30 5 C 1.75949 -0.655615 0.746616 0
M  V30 6 C 1.70522 0.540227 1.68771 0
M  V30 7 C 2.0452 0.072171 3.0611 0
M  V30 8 C 1.40648 -0.323667 -0.638913 0
M  V30 9 N 0.118237 0.193554 -0.955207 0
M  V30 10 C -1.07242 -0.552864 -0.999044 0
M  V30 11 C -1.74911 -1.11395 0.162299 0
M  V30 12 C -2.27404 -0.32101 1.25796 0
M  V30 13 C -2.83081 -1.28874 2.31762 0
M  V30 14 C -2.81822 -2.08232 -0.377136 0
M  V30 15 C -3.7758 -1.53844 -1.33538 0
M  V30 16 C -4.71085 -0.451585 -1.0609 0
M  V30 17 C -5.75624 -0.650006 -0.0197242 0
M  V30 18 C 0.038417 1.60524 -1.25146 0
M  V30 19 N 1.13206 2.40328 -1.26305 0
M  V30 20 C 1.09234 3.70333 -1.52178 0
M  V30 21 N 2.29879 4.44842 -1.50836 0
M  V30 22 N -0.0816584 4.26802 -1.78631 0
M  V30 23 C -1.22543 3.52785 -1.7927 0
M  V30 24 N -2.47692 4.13778 -2.07311 0
M  V30 25 N -1.13485 2.21681 -1.52534 0
M  V30 26 H 6.5914 -2.63797 -0.65798 0
M  V30 27 H 5.0167 -3.1425 0.079822 0
M  V30 28 H 4.9897 -2.10739 -1.39247 0
M  V30 29 H 6.41981 -0.453361 0.129073 0
M  V30 30 H 5.7316 -1.35822 1.48366 0
M  V30 31 H 4.18397 -0.0368562 -0.750943 0
M  V30 32 H 4.37358 0.582304 0.908135 0
M  V30 33 H 3.12228 -2.08007 -0.000297298 0
M  V30 34 H 3.37631 -1.72578 1.71316 0
M  V30 35 H 1.12117 -1.42811 1.16221 0
M  V30 36 H 2.35684 1.36482 1.33198 0
M  V30 37 H 0.689013 0.934723 1.66497 0
M  V30 38 H 1.91164 0.891924 3.7953 0
M  V30 39 H 1.33806 -0.757846 3.35859 0
M  V30 40 H 3.05387 -0.334148 3.16002 0
M  V30 41 H 1.63145 -1.2619 -1.25362 0
M  V30 42 H 2.23021 0.369234 -1.01988 0
M  V30 43 H -0.922449 -1.43813 -1.72898 0
M  V30 44 H -1.889 0.013956 -1.59416 0
M  V30 45 H -1.02096 -1.87093 0.65218 0
M  V30 46 H -1.4697 0.231901 1.82928 0
M  V30 47 H -3.02571 0.450571 1.05715 0
M  V30 48 H -2.6188 -0.913053 3.35555 0
M  V30 49 H -3.88166 -1.53115 2.18987 0
M  V30 50 H -2.25537 -2.25907 2.28089 0
M  V30 51 H -2.26481 -2.92671 -0.856805 0
M  V30 52 H -3.27976 -2.51801 0.541535 0
M  V30 53 H -3.26308 -1.25825 -2.33349 0
M  V30 54 H -4.43489 -2.41332 -1.72726 0
M  V30 55 H -4.22595 0.561036 -0.92182 0
M  V30 56 H -5.29759 -0.256753 -2.03752 0
M  V30 57 H -5.9096 -1.71695 0.254322 0
M  V30 58 H -6.75233 -0.26271 -0.322034 0
M  V30 59 H -5.50539 -0.082203 0.922921 0
M  V30 60 H 2.9748 4.35451 -2.31516 0
M  V30 61 H 2.58378 5.09414 -0.758406 0
M  V30 62 H -3.37657 3.63124 -1.95276 0
M  V30 63 H -2.51961 5.12072 -2.41128 0
M  V30 END ATOM
M  V30 BEGIN BOND
M  V30 1 1 1 2
M  V30 2 1 2 3
M  V30 3 1 3 4
M  V30 4 1 4 5
M  V30 5 1 5 6
M  V30 6 1 6 7
M  V30 7 1 5 8
M  V30 8 1 8 9
M  V30 9 1 9 10
M  V30 10 1 10 11
M  V30 11 1 11 12
M  V30 12 1 12 13
M  V30 13 1 11 14
M  V30 14 1 14 15
M  V30 15 1 15 16
M  V30 16 1 16 17
M  V30 17 1 9 18
M  V30 18 2 18 19
M  V30 19 1 19 20
M  V30 20 1 20 21
M  V30 21 2 20 22
M  V30 22 1 22 23
M  V30 23 1 23 24
M  V30 24 2 23 25
M  V30 25 1 25 18
M  V30 26 1 1 26
M  V30 27 1 1 27
M  V30 28 1 1 28
M  V30 29 1 2 29
M  V30 30 1 2 30
M  V30 31 1 3 31
M  V30 32 1 3 32
M  V30 33 1 4 33
M  V30 34 1 4 34
M  V30 35 1 5 35
M  V30 36 1 6 36
M  V30 37 1 6 37
M  V30 38 1 7 38
M  V30 39 1 7 39
M  V30 40 1 7 40
M  V30 41 1 8 41
M  V30 42 1 8 42
M  V30 43 1 10 43
M  V30 44 1 10 44
M  V30 45 1 11 45
M  V30 46 1 12 46
M  V30 47 1 12 47
M  V30 48 1 13 48
M  V30 49 1 13 49
M  V30 50 1 13 50
M  V30 51 1 14 51
M  V30 52 1 14 52
M  V30 53 1 15 53
M  V30 54 1 15 54
M  V30 55 1 16 55
M  V30 56 1 16 56
M  V30 57 1 17 57
M  V30 58 1 17 58
M  V30 59 1 17 59
M  V30 60 1 21 60
M  V30 61 1 21 61
M  V30 62 1 24 62
M  V30 63 1 24 63
M  V30 END BOND
M  V30 END CTAB
M  END
