
     RDKit          3D

  0  0  0  0  0  0  0  0  0  0999 V3000
M  V30 BEGIN CTAB
M  V30 COUNTS 52 54 0 0 0
M  V30 BEGIN ATOM
M  V30 1 O -0.920831 -5.14022 -0.667128 0
M  V30 2 C -1.25453 -3.78911 -0.924864 0
M  V30 3 C -0.0865113 -2.97682 -0.402914 0
M  V30 4 C -0.345369 -1.50515 -0.63314 0
M  V30 5 C -1.60421 -1.15121 0.108647 0
M  V30 6 N -1.86441 0.258869 0.149132 0
M  V30 7 C -0.796252 1.2008 -0.0471187 0
M  V30 8 C 0.502892 0.533741 0.340701 0
M  V30 9 N 0.755585 -0.670993 -0.368319 0
M  V30 10 C 1.96355 -1.28722 0.0309979 0
M  V30 11 C 3.04593 -0.304954 0.282732 0
M  V30 12 C 3.22612 0.150681 1.56903 0
M  V30 13 C 4.23686 1.06972 1.80325 0
M  V30 14 C 5.03358 1.51131 0.781944 0
M  V30 15 C 4.86809 1.06582 -0.514255 0
M  V30 16 C 3.86188 0.15449 -0.732407 0
M  V30 17 O 5.66574 1.4997 -1.5716 0
M  V30 18 C 6.69805 2.43161 -1.36079 0
M  V30 19 C -3.1732 0.784944 0.382756 0
M  V30 20 C -4.23827 -0.0866942 0.595232 0
M  V30 21 C -5.49021 0.4486 0.817384 0
M  V30 22 N -6.62857 -0.356922 1.04224 0
M  V30 23 N -5.66662 1.79703 0.826168 0
M  V30 24 C -4.63077 2.62698 0.619859 0
M  V30 25 N -3.4224 2.09215 0.405762 0
M  V30 26 N -4.8641 4.01399 0.638393 0
M  V30 27 H -0.934738 -5.21555 0.327709 0
M  V30 28 H -1.45712 -3.63813 -1.98532 0
M  V30 29 H -2.18214 -3.61923 -0.317281 0
M  V30 30 H 0.0259993 -3.21316 0.659296 0
M  V30 31 H 0.797266 -3.30285 -1.01798 0
M  V30 32 H -0.58916 -1.41414 -1.73333 0
M  V30 33 H -2.45146 -1.6072 -0.484093 0
M  V30 34 H -1.57916 -1.62835 1.10573 0
M  V30 35 H -0.955614 2.02313 0.70583 0
M  V30 36 H -0.815348 1.58344 -1.0663 0
M  V30 37 H 1.30966 1.28179 0.0862315 0
M  V30 38 H 0.513326 0.439291 1.43432 0
M  V30 39 H 2.3601 -2.0407 -0.679096 0
M  V30 40 H 1.80799 -1.84814 0.97781 0
M  V30 41 H 2.60557 -0.183329 2.41392 0
M  V30 42 H 4.3833 1.42994 2.80527 0
M  V30 43 H 5.83136 2.24061 0.983459 0
M  V30 44 H 3.68725 -0.230792 -1.73856 0
M  V30 45 H 7.55617 1.90527 -0.894561 0
M  V30 46 H 6.96762 2.83869 -2.36666 0
M  V30 47 H 6.35813 3.25102 -0.708574 0
M  V30 48 H -4.12056 -1.16386 0.592892 0
M  V30 49 H -7.345 -0.450896 0.302508 0
M  V30 50 H -6.74598 -0.850569 1.94152 0
M  V30 51 H -5.1398 4.47532 1.51713 0
M  V30 52 H -4.75969 4.56723 -0.223957 0
M  V30 END ATOM
M  V30 BEGIN BOND
M  V30 1 1 1 2
M  V30 2 1 2 3
M  V30 3 1 3 4
M  V30 4 1 4 5
M  V30 5 1 5 6
M  V30 6 1 6 7
M  V30 7 1 7 8
M  V30 8 1 8 9
M  V30 9 1 9 10
M  V30 10 1 10 11
M  V30 11 2 11 12
M  V30 12 1 12 13
M  V30 13 2 13 14
M  V30 14 1 14 15
M  V30 15 2 15 16
M  V30 16 1 15 17
M  V30 17 1 17 18
M  V30 18 1 6 19
M  V30 19 2 19 20
M  V30 20 1 20 21
M  V30 21 1 21 22
M  V30 22 2 21 23
M  V30 23 1 23 24
M  V30 24 2 24 25
M  V30 25 1 24 26
M  V30 26 1 9 4
M  V30 27 1 16 11
M  V30 28 1 25 19
M  V30 29 1 1 27
M  V30 30 1 2 28
M  V30 31 1 2 29
M  V30 32 1 3 30
M  V30 33 1 3 31
M  V30 34 1 4 32
M  V30 35 1 5 33
M  V30 36 1 5 34
M  V30 37 1 7 35
M  V30 38 1 7 36
M  V30 39 1 8 37
M  V30 40 1 8 38
M  V30 41 1 10 39
M  V30 42 1 10 40
M  V30 43 1 12 41
M  V30 44 1 13 42
M  V30 45 1 14 43
M  V30 46 1 16 44
M  V30 47 1 18 45
M  V30 48 1 18 46
M  V30 49 1 18 47
M  V30 50 1 20 48
M  V30 51 1 22 49
M  V30 52 1 22 50
M  V30 53 1 26 51
M  V30 54 1 26 52
M  V30 END BOND
M  V30 END CTAB
M  END
