
     RDKit          3D

  0  0  0  0  0  0  0  0  0  0999 V3000
M  V30 BEGIN CTAB
M  V30 COUNTS 30 31 0 0 0
M  V30 BEGIN ATOM
M  V30 1 C 0.687802 -0.201969 -0.541339 0 CFG=1
M  V30 2 O 0.635765 -1.42638 0.165574 0
M  V30 3 C -0.601904 -1.99168 -0.121334 0
M  V30 4 O -1.51709 -1.34015 0.714217 0
M  V30 5 C -1.62106 -0.00843268 0.442188 0 CFG=2
M  V30 6 C -3.04311 0.242703 -0.0795934 0
M  V30 7 N -4.03357 -0.121909 0.877071 0
M  V30 8 C -0.603626 0.519788 -0.531954 0 CFG=1
M  V30 9 O -0.53094 1.88227 -0.360977 0
M  V30 10 C 0.590859 2.36055 0.228717 0
M  V30 11 O 1.76883 1.88733 -0.395857 0
M  V30 12 C 1.84603 0.553174 0.0304171 0 CFG=2
M  V30 13 C 3.17502 0.0093582 -0.438046 0
M  V30 14 N 3.38288 -1.35829 -0.065081 0
M  V30 15 H 0.998349 -0.505035 -1.57954 0
M  V30 16 H -0.6387 -3.07069 0.113567 0
M  V30 17 H -0.909242 -1.77215 -1.16136 0
M  V30 18 H -1.57219 0.55146 1.40906 0
M  V30 19 H -3.18156 1.29157 -0.368051 0
M  V30 20 H -3.15162 -0.428893 -0.970075 0
M  V30 21 H -4.38699 -1.07907 0.825734 0
M  V30 22 H -3.92294 0.28818 1.80731 0
M  V30 23 H -1.07627 0.376871 -1.55185 0
M  V30 24 H 0.622511 3.4536 0.128246 0
M  V30 25 H 0.710498 2.06786 1.31085 0
M  V30 26 H 1.78283 0.558086 1.12166 0
M  V30 27 H 3.35835 0.194407 -1.50447 0
M  V30 28 H 3.95814 0.611754 0.109184 0
M  V30 29 H 4.40302 -1.56667 -0.189085 0
M  V30 30 H 2.86992 -1.97766 -0.722717 0
M  V30 END ATOM
M  V30 BEGIN BOND
M  V30 1 1 1 2
M  V30 2 1 2 3
M  V30 3 1 3 4
M  V30 4 1 4 5
M  V30 5 1 5 6
M  V30 6 1 6 7
M  V30 7 1 5 8
M  V30 8 1 8 9
M  V30 9 1 9 10
M  V30 10 1 10 11
M  V30 11 1 11 12
M  V30 12 1 12 13
M  V30 13 1 13 14
M  V30 14 1 8 1
M  V30 15 1 12 1
M  V30 16 1 1 15 CFG=3
M  V30 17 1 3 16
M  V30 18 1 3 17
M  V30 19 1 5 18 CFG=1
M  V30 20 1 6 19
M  V30 21 1 6 20
M  V30 22 1 7 21
M  V30 23 1 7 22
M  V30 24 1 8 23 CFG=3
M  V30 25 1 10 24
M  V30 26 1 10 25
M  V30 27 1 12 26 CFG=1
M  V30 28 1 13 27
M  V30 29 1 13 28
M  V30 30 1 14 29
M  V30 31 1 14 30
M  V30 END BOND
M  V30 END CTAB
M  END
