
     RDKit          3D

  0  0  0  0  0  0  0  0  0  0999 V3000
M  V30 BEGIN CTAB
M  V30 COUNTS 40 39 0 0 0
M  V30 BEGIN ATOM
M  V30 1 C 4.91028 1.84664 -0.486956 0
M  V30 2 C 3.81116 0.763822 -0.317595 0
M  V30 3 C 2.47899 1.37249 -0.280031 0
M  V30 4 C 1.22916 0.639663 -0.252682 0
M  V30 5 C 0.782147 -0.335581 0.739774 0
M  V30 6 N -0.654504 -0.626948 0.254934 0
M  V30 7 C -1.69565 -0.274803 1.12933 0
M  V30 8 O -1.39431 0.245865 2.23377 0
M  V30 9 C -3.07938 -0.536587 0.699353 0
M  V30 10 C -3.55396 0.186549 -0.498007 0
M  V30 11 N -2.82292 -0.058147 -1.69898 0
M  V30 12 C -3.68928 1.67686 -0.319029 0
M  V30 13 C -3.15606 -2.0376 0.383017 0
M  V30 14 C 1.3677 -1.69787 0.819864 0
M  V30 15 N 2.72616 -1.90979 1.08913 0
M  V30 16 H 4.89128 2.46942 0.418787 0
M  V30 17 H 5.85161 1.29283 -0.613004 0
M  V30 18 H 4.63908 2.40711 -1.3888 0
M  V30 19 H 4.03437 0.409399 0.747497 0
M  V30 20 H 3.9761 -0.0821409 -0.975165 0
M  V30 21 H 2.48081 2.13554 -1.16118 0
M  V30 22 H 2.41805 2.13641 0.595938 0
M  V30 23 H 0.400222 1.47023 -0.235627 0
M  V30 24 H 0.98844 0.236993 -1.32495 0
M  V30 25 H 0.707765 0.117081 1.73226 0
M  V30 26 H -0.692608 -1.05452 -0.666475 0
M  V30 27 H -3.73715 -0.348077 1.56153 0
M  V30 28 H -4.60551 -0.185485 -0.689584 0
M  V30 29 H -2.587 0.804925 -2.24629 0
M  V30 30 H -3.20281 -0.828363 -2.28379 0
M  V30 31 H -2.75646 2.22989 -0.41918 0
M  V30 32 H -4.23847 1.93398 0.622412 0
M  V30 33 H -4.36566 2.02883 -1.1463 0
M  V30 34 H -2.89129 -2.13317 -0.689382 0
M  V30 35 H -2.42308 -2.59539 1.00091 0
M  V30 36 H -4.19738 -2.34716 0.553951 0
M  V30 37 H 1.03738 -2.3297 -0.0708118 0
M  V30 38 H 0.794686 -2.20256 1.68119 0
M  V30 39 H 2.92531 -2.52309 1.91066 0
M  V30 40 H 3.29279 -2.29755 0.301636 0
M  V30 END ATOM
M  V30 BEGIN BOND
M  V30 1 1 1 2
M  V30 2 1 2 3
M  V30 3 1 3 4
M  V30 4 1 4 5
M  V30 5 1 5 6
M  V30 6 1 6 7
M  V30 7 2 7 8
M  V30 8 1 7 9
M  V30 9 1 9 10
M  V30 10 1 10 11
M  V30 11 1 10 12
M  V30 12 1 9 13
M  V30 13 1 5 14
M  V30 14 1 14 15
M  V30 15 1 1 16
M  V30 16 1 1 17
M  V30 17 1 1 18
M  V30 18 1 2 19
M  V30 19 1 2 20
M  V30 20 1 3 21
M  V30 21 1 3 22
M  V30 22 1 4 23
M  V30 23 1 4 24
M  V30 24 1 5 25
M  V30 25 1 6 26
M  V30 26 1 9 27
M  V30 27 1 10 28
M  V30 28 1 11 29
M  V30 29 1 11 30
M  V30 30 1 12 31
M  V30 31 1 12 32
M  V30 32 1 12 33
M  V30 33 1 13 34
M  V30 34 1 13 35
M  V30 35 1 13 36
M  V30 36 1 14 37
M  V30 37 1 14 38
M  V30 38 1 15 39
M  V30 39 1 15 40
M  V30 END BOND
M  V30 END CTAB
M  END
