
     RDKit          3D

  0  0  0  0  0  0  0  0  0  0999 V3000
M  V30 BEGIN CTAB
M  V30 COUNTS 36 36 0 0 0
M  V30 BEGIN ATOM
M  V30 1 C -5.63512 0.505156 0.0559534 0
M  V30 2 C -4.53087 -0.426163 -0.386292 0
M  V30 3 C -3.4967 -0.539769 0.695241 0
M  V30 4 C -2.3806 -1.46931 0.284861 0
M  V30 5 C -1.67082 -1.00341 -0.952297 0
M  V30 6 N -1.06465 0.297366 -0.845819 0
M  V30 7 C -0.0602387 0.576037 0.0943629 0
M  V30 8 O 0.336479 -0.315647 0.869529 0
M  V30 9 C 0.542265 1.92376 0.182133 0
M  V30 10 S 1.8302 2.05037 1.44475 0
M  V30 11 C 3.20148 1.04604 0.941863 0
M  V30 12 N 3.29962 -0.237772 1.28485 0
M  V30 13 C 4.36442 -0.990695 0.885916 0
M  V30 14 N 4.43259 -2.35709 1.27202 0
M  V30 15 N 5.31499 -0.394904 0.13329 0
M  V30 16 C 5.24326 0.898386 -0.228372 0
M  V30 17 N 4.16304 1.59714 0.19669 0
M  V30 18 N 6.24336 1.52015 -1.01826 0
M  V30 19 H -5.65315 1.44949 -0.512468 0
M  V30 20 H -5.50855 0.70232 1.13558 0
M  V30 21 H -6.64972 0.0419971 -0.103326 0
M  V30 22 H -4.03354 0.0387863 -1.27451 0
M  V30 23 H -4.99428 -1.38698 -0.654177 0
M  V30 24 H -3.97852 -0.867178 1.63776 0
M  V30 25 H -3.07689 0.484448 0.84341 0
M  V30 26 H -2.79162 -2.48928 0.0239262 0
M  V30 27 H -1.67225 -1.63697 1.08779 0
M  V30 28 H -0.838925 -1.71147 -1.16951 0
M  V30 29 H -2.40491 -1.04524 -1.79743 0
M  V30 30 H -1.40242 1.0466 -1.50496 0
M  V30 31 H -0.274196 2.66373 0.351012 0
M  V30 32 H 1.04679 2.13944 -0.801951 0
M  V30 33 H 3.78165 -3.03138 0.811132 0
M  V30 34 H 5.13137 -2.62401 1.99961 0
M  V30 35 H 7.19315 1.14466 -1.12604 0
M  V30 36 H 5.99333 2.4014 -1.51023 0
M  V30 END ATOM
M  V30 BEGIN BOND
M  V30 1 1 1 2
M  V30 2 1 2 3
M  V30 3 1 3 4
M  V30 4 1 4 5
M  V30 5 1 5 6
M  V30 6 1 6 7
M  V30 7 2 7 8
M  V30 8 1 7 9
M  V30 9 1 9 10
M  V30 10 1 10 11
M  V30 11 2 11 12
M  V30 12 1 12 13
M  V30 13 1 13 14
M  V30 14 2 13 15
M  V30 15 1 15 16
M  V30 16 2 16 17
M  V30 17 1 16 18
M  V30 18 1 17 11
M  V30 19 1 1 19
M  V30 20 1 1 20
M  V30 21 1 1 21
M  V30 22 1 2 22
M  V30 23 1 2 23
M  V30 24 1 3 24
M  V30 25 1 3 25
M  V30 26 1 4 26
M  V30 27 1 4 27
M  V30 28 1 5 28
M  V30 29 1 5 29
M  V30 30 1 6 30
M  V30 31 1 9 31
M  V30 32 1 9 32
M  V30 33 1 14 33
M  V30 34 1 14 34
M  V30 35 1 18 35
M  V30 36 1 18 36
M  V30 END BOND
M  V30 END CTAB
M  END
