
     RDKit          3D

  0  0  0  0  0  0  0  0  0  0999 V3000
M  V30 BEGIN CTAB
M  V30 COUNTS 48 51 0 0 0
M  V30 BEGIN ATOM
M  V30 1 C -8.46223 0.828055 -1.84377 0
M  V30 2 C -7.13502 0.591301 -1.17277 0
M  V30 3 N -5.99614 0.532843 -1.86687 0
M  V30 4 C -4.82194 0.319654 -1.24046 0
M  V30 5 C -3.63555 0.254976 -1.93141 0
M  V30 6 C -2.41519 0.0318636 -1.26661 0
M  V30 7 C -2.35683 -0.128766 0.085437 0
M  V30 8 N -1.20649 -0.344105 0.870148 0
M  V30 9 C 0.145671 -0.283501 0.474242 0
M  V30 10 O 0.435803 -0.00746315 -0.702254 0
M  V30 11 N 1.17048 -0.536591 1.41524 0
M  V30 12 C 2.55759 -0.52403 1.22643 0
M  V30 13 C 3.34702 -0.963455 2.30204 0
M  V30 14 C 4.71871 -0.986967 2.23146 0
M  V30 15 C 5.38552 -0.580684 1.10234 0
M  V30 16 N 6.71396 -0.58511 0.985585 0
M  V30 17 C 7.35287 -0.189028 -0.114111 0
M  V30 18 C 8.83474 -0.220451 -0.174953 0
M  V30 19 C 6.63083 0.253212 -1.20327 0
M  V30 20 C 5.24227 0.275721 -1.1281 0
M  V30 21 N 4.44634 0.714292 -2.20065 0
M  V30 22 C 4.63255 -0.144735 0.0326562 0
M  V30 23 C 3.23869 -0.120124 0.102817 0
M  V30 24 C -3.58451 -0.0576271 0.761083 0
M  V30 25 C -4.78317 0.158472 0.133068 0
M  V30 26 C -5.95661 0.215953 0.872333 0
M  V30 27 N -5.88266 0.0473274 2.2738 0
M  V30 28 C -7.13803 0.435513 0.197633 0
M  V30 29 H -8.98801 1.69749 -1.3997 0
M  V30 30 H -8.31629 0.965704 -2.93394 0
M  V30 31 H -9.05524 -0.114657 -1.6647 0
M  V30 32 H -3.64195 0.377317 -2.99932 0
M  V30 33 H -1.52254 -0.0172476 -1.84439 0
M  V30 34 H -1.32638 -0.593463 1.91721 0
M  V30 35 H 0.805483 -0.762517 2.39851 0
M  V30 36 H 2.88658 -1.29531 3.21456 0
M  V30 37 H 5.32361 -1.32837 3.06798 0
M  V30 38 H 9.21476 0.339683 0.692231 0
M  V30 39 H 9.20748 -1.26724 -0.149759 0
M  V30 40 H 9.20679 0.23386 -1.09609 0
M  V30 41 H 7.13316 0.578287 -2.1037 0
M  V30 42 H 4.56355 1.70152 -2.52931 0
M  V30 43 H 3.74367 0.121594 -2.69422 0
M  V30 44 H 2.704 0.228142 -0.744033 0
M  V30 45 H -3.61607 -0.176077 1.83647 0
M  V30 46 H -5.64844 0.768943 2.96143 0
M  V30 47 H -6.09249 -0.925885 2.63387 0
M  V30 48 H -8.06037 0.481678 0.770049 0
M  V30 END ATOM
M  V30 BEGIN BOND
M  V30 1 1 1 2
M  V30 2 2 2 3
M  V30 3 1 3 4
M  V30 4 2 4 5
M  V30 5 1 5 6
M  V30 6 2 6 7
M  V30 7 1 7 8
M  V30 8 1 8 9
M  V30 9 2 9 10
M  V30 10 1 9 11
M  V30 11 1 11 12
M  V30 12 2 12 13
M  V30 13 1 13 14
M  V30 14 2 14 15
M  V30 15 1 15 16
M  V30 16 2 16 17
M  V30 17 1 17 18
M  V30 18 1 17 19
M  V30 19 2 19 20
M  V30 20 1 20 21
M  V30 21 1 20 22
M  V30 22 2 22 23
M  V30 23 1 7 24
M  V30 24 2 24 25
M  V30 25 1 25 26
M  V30 26 1 26 27
M  V30 27 2 26 28
M  V30 28 1 28 2
M  V30 29 1 25 4
M  V30 30 1 23 12
M  V30 31 1 22 15
M  V30 32 1 1 29
M  V30 33 1 1 30
M  V30 34 1 1 31
M  V30 35 1 5 32
M  V30 36 1 6 33
M  V30 37 1 8 34
M  V30 38 1 11 35
M  V30 39 1 13 36
M  V30 40 1 14 37
M  V30 41 1 18 38
M  V30 42 1 18 39
M  V30 43 1 18 40
M  V30 44 1 19 41
M  V30 45 1 21 42
M  V30 46 1 21 43
M  V30 47 1 23 44
M  V30 48 1 24 45
M  V30 49 1 27 46
M  V30 50 1 27 47
M  V30 51 1 28 48
M  V30 END BOND
M  V30 END CTAB
M  END
