
     RDKit          3D

  0  0  0  0  0  0  0  0  0  0999 V3000
M  V30 BEGIN CTAB
M  V30 COUNTS 34 35 0 0 0
M  V30 BEGIN ATOM
M  V30 1 N 3.84087 -2.03631 0.157692 0
M  V30 2 C 2.61333 -1.58719 -0.412521 0
M  V30 3 C 1.86146 -0.861509 0.681472 0
M  V30 4 N 0.597767 -0.332048 0.287011 0
M  V30 5 C -0.517351 -1.19495 0.00736984 0
M  V30 6 C -1.71843 -0.440647 -0.468204 0 CFG=1
M  V30 7 C -2.98488 -1.25123 -0.280461 0
M  V30 8 N -3.0067 -2.49895 -0.975887 0
M  V30 9 C -1.94095 0.819276 0.332177 0
M  V30 10 C -0.768911 1.6932 0.164812 0
M  V30 11 C 0.471849 1.08935 0.157558 0
M  V30 12 C 1.56306 1.92273 0.0100815 0
M  V30 13 C 1.40826 3.28656 -0.121795 0
M  V30 14 C 0.163986 3.83835 -0.109719 0
M  V30 15 C -0.943161 3.04344 0.0345006 0
M  V30 16 H 3.68582 -2.75461 0.836941 0
M  V30 17 H 4.38425 -1.27658 0.516636 0
M  V30 18 H 2.08018 -2.47865 -0.79583 0
M  V30 19 H 2.86109 -0.925432 -1.26706 0
M  V30 20 H 1.74749 -1.6432 1.49952 0
M  V30 21 H 2.55543 -0.123938 1.13994 0
M  V30 22 H -0.230404 -1.96904 -0.741705 0
M  V30 23 H -0.791961 -1.71466 0.955364 0
M  V30 24 H -1.58464 -0.182468 -1.53843 0
M  V30 25 H -3.21753 -1.32225 0.803815 0
M  V30 26 H -3.81035 -0.61481 -0.703814 0
M  V30 27 H -3.96695 -2.91801 -0.780445 0
M  V30 28 H -2.31455 -3.17771 -0.575154 0
M  V30 29 H -2.04727 0.475992 1.40731 0
M  V30 30 H -2.88985 1.31805 0.00230247 0
M  V30 31 H 2.5645 1.52803 -0.00628997 0
M  V30 32 H 2.26405 3.93247 -0.235183 0
M  V30 33 H 0.0214779 4.90963 -0.208621 0
M  V30 34 H -1.95097 3.44713 0.0526024 0
M  V30 END ATOM
M  V30 BEGIN BOND
M  V30 1 1 1 2
M  V30 2 1 2 3
M  V30 3 1 3 4
M  V30 4 1 4 5
M  V30 5 1 5 6
M  V30 6 1 6 7
M  V30 7 1 7 8
M  V30 8 1 6 9
M  V30 9 1 9 10
M  V30 10 2 10 11
M  V30 11 1 11 12
M  V30 12 2 12 13
M  V30 13 1 13 14
M  V30 14 2 14 15
M  V30 15 1 11 4
M  V30 16 1 15 10
M  V30 17 1 1 16
M  V30 18 1 1 17
M  V30 19 1 2 18
M  V30 20 1 2 19
M  V30 21 1 3 20
M  V30 22 1 3 21
M  V30 23 1 5 22
M  V30 24 1 5 23
M  V30 25 1 6 24 CFG=3
M  V30 26 1 7 25
M  V30 27 1 7 26
M  V30 28 1 8 27
M  V30 29 1 8 28
M  V30 30 1 9 29
M  V30 31 1 9 30
M  V30 32 1 12 31
M  V30 33 1 13 32
M  V30 34 1 14 33
M  V30 35 1 15 34
M  V30 END BOND
M  V30 END CTAB
M  END
