
     RDKit          3D

  0  0  0  0  0  0  0  0  0  0999 V3000
M  V30 BEGIN CTAB
M  V30 COUNTS 26 25 0 0 0
M  V30 BEGIN ATOM
M  V30 1 O 4.80187 -0.139113 1.49853 0
M  V30 2 N 3.44995 -0.0920971 1.2045 0
M  V30 3 C 3.05243 0.17872 0.0138881 0
M  V30 4 C 1.65493 0.255303 -0.410235 0
M  V30 5 C 0.67651 -0.0151455 0.684549 0
M  V30 6 C -0.7538 0.0693685 0.223778 0
M  V30 7 C -1.72877 -0.207703 1.34747 0
M  V30 8 C -3.1078 -0.0898098 0.746431 0
M  V30 9 N -3.9598 0.766376 1.1746 0
M  V30 10 O -5.19949 0.824952 0.585903 0
M  V30 11 N -3.49592 -0.940385 -0.324676 0
M  V30 12 F -1.57741 0.610292 2.41938 0
M  V30 13 F -1.60143 -1.54509 1.7104 0
M  V30 14 F -1.04177 -0.775922 -0.804128 0
M  V30 15 F -0.961395 1.37191 -0.239649 0
M  V30 16 F 0.886856 -1.31088 1.12647 0
M  V30 17 F 0.849747 0.806656 1.78029 0
M  V30 18 F 1.46134 -0.720136 -1.38634 0
M  V30 19 F 1.46009 1.48321 -1.01685 0
M  V30 20 N 4.06483 0.42169 -0.961188 0
M  V30 21 H 5.37 -0.930346 1.20353 0
M  V30 22 H -5.8705 1.53966 0.872112 0
M  V30 23 H -3.80677 -1.92768 -0.0923688 0
M  V30 24 H -3.48628 -0.630423 -1.32671 0
M  V30 25 H 4.79853 -0.315555 -1.07554 0
M  V30 26 H 4.06405 1.31214 -1.53798 0
M  V30 END ATOM
M  V30 BEGIN BOND
M  V30 1 1 1 2
M  V30 2 2 2 3
M  V30 3 1 3 4
M  V30 4 1 4 5
M  V30 5 1 5 6
M  V30 6 1 6 7
M  V30 7 1 7 8
M  V30 8 2 8 9
M  V30 9 1 9 10
M  V30 10 1 8 11
M  V30 11 1 7 12
M  V30 12 1 7 13
M  V30 13 1 6 14
M  V30 14 1 6 15
M  V30 15 1 5 16
M  V30 16 1 5 17
M  V30 17 1 4 18
M  V30 18 1 4 19
M  V30 19 1 3 20
M  V30 20 1 1 21
M  V30 21 1 10 22
M  V30 22 1 11 23
M  V30 23 1 11 24
M  V30 24 1 20 25
M  V30 25 1 20 26
M  V30 END BOND
M  V30 END CTAB
M  END
