
     RDKit          3D

  0  0  0  0  0  0  0  0  0  0999 V3000
M  V30 BEGIN CTAB
M  V30 COUNTS 34 35 0 0 0
M  V30 BEGIN ATOM
M  V30 1 N 4.24146 1.00548 1.34505 0
M  V30 2 C 3.28149 0.321944 0.556371 0
M  V30 3 C 3.67262 -0.738068 -0.224193 0
M  V30 4 C 2.74877 -1.40277 -0.989218 0
M  V30 5 C 1.43569 -1.00218 -0.968884 0
M  V30 6 C 1.03042 0.0542612 -0.19389 0
M  V30 7 N 1.99624 0.674673 0.54421 0
M  V30 8 C -0.380853 0.507362 -0.133069 0 CFG=1
M  V30 9 C -0.781627 1.14858 -1.46914 0
M  V30 10 C -1.72321 2.30758 -1.25802 0
M  V30 11 O -2.20403 2.39278 0.0359901 0
M  V30 12 C -3.10489 1.3616 0.324364 0
M  V30 13 C -2.36312 0.373956 1.19961 0
M  V30 14 N -1.3446 -0.312775 0.413794 0
M  V30 15 S -1.49011 -1.93565 0.305296 0
M  V30 16 O -1.85701 -2.54876 -1.01433 0
M  V30 17 O -2.68392 -2.33828 1.20549 0
M  V30 18 N -0.195576 -2.8931 0.96003 0
M  V30 19 H 4.47546 0.634683 2.27673 0
M  V30 20 H 4.70502 1.8626 1.00074 0
M  V30 21 H 4.71937 -1.07154 -0.252041 0
M  V30 22 H 3.0905 -2.23674 -1.59531 0
M  V30 23 H 0.717207 -1.55175 -1.60638 0
M  V30 24 H -0.361925 1.43584 0.536952 0
M  V30 25 H -1.22113 0.426913 -2.15603 0
M  V30 26 H 0.161386 1.51883 -1.92491 0
M  V30 27 H -2.60446 2.22908 -1.94517 0
M  V30 28 H -1.21892 3.29097 -1.47961 0
M  V30 29 H -3.96172 1.78301 0.861527 0
M  V30 30 H -3.38985 0.83152 -0.609134 0
M  V30 31 H -3.07284 -0.389784 1.54965 0
M  V30 32 H -1.82374 0.892644 2.02317 0
M  V30 33 H -0.261544 -3.87711 0.68557 0
M  V30 34 H -0.230548 -2.75579 1.9948 0
M  V30 END ATOM
M  V30 BEGIN BOND
M  V30 1 1 1 2
M  V30 2 2 2 3
M  V30 3 1 3 4
M  V30 4 2 4 5
M  V30 5 1 5 6
M  V30 6 2 6 7
M  V30 7 1 6 8
M  V30 8 1 8 9
M  V30 9 1 9 10
M  V30 10 1 10 11
M  V30 11 1 11 12
M  V30 12 1 12 13
M  V30 13 1 13 14
M  V30 14 1 14 15
M  V30 15 2 15 16
M  V30 16 2 15 17
M  V30 17 1 15 18
M  V30 18 1 7 2
M  V30 19 1 14 8
M  V30 20 1 1 19
M  V30 21 1 1 20
M  V30 22 1 3 21
M  V30 23 1 4 22
M  V30 24 1 5 23
M  V30 25 1 8 24 CFG=1
M  V30 26 1 9 25
M  V30 27 1 9 26
M  V30 28 1 10 27
M  V30 29 1 10 28
M  V30 30 1 12 29
M  V30 31 1 12 30
M  V30 32 1 13 31
M  V30 33 1 13 32
M  V30 34 1 18 33
M  V30 35 1 18 34
M  V30 END BOND
M  V30 END CTAB
M  END
