
     RDKit          3D

  0  0  0  0  0  0  0  0  0  0999 V3000
M  V30 BEGIN CTAB
M  V30 COUNTS 26 25 0 0 0
M  V30 BEGIN ATOM
M  V30 1 N -2.29699 1.34209 -0.906793 0
M  V30 2 C -0.963453 0.772121 -1.13075 0
M  V30 3 C -0.54772 -0.0782979 0.0623689 0
M  V30 4 N 0.726637 -0.620442 -0.155642 0
M  V30 5 S 2.07892 0.32795 0.150106 0
M  V30 6 O 1.9317 1.76871 -0.26419 0
M  V30 7 O 3.2167 -0.212041 -0.712303 0
M  V30 8 N 2.64336 0.176408 1.77815 0
M  V30 9 C 0.902811 -1.51242 -1.24111 0
M  V30 10 C -0.719797 0.697948 1.32939 0
M  V30 11 C -1.5465 -1.21637 0.131942 0
M  V30 12 H -2.10836 2.21032 -0.322202 0
M  V30 13 H -2.90526 0.674041 -0.383085 0
M  V30 14 H -1.00407 0.140629 -2.05049 0
M  V30 15 H -0.288947 1.59733 -1.34188 0
M  V30 16 H 3.68175 0.221279 1.8456 0
M  V30 17 H 2.15701 0.818941 2.43652 0
M  V30 18 H 1.85242 -2.08563 -1.13036 0
M  V30 19 H 0.106227 -2.21574 -1.44418 0
M  V30 20 H 1.03051 -0.893569 -2.17385 0
M  V30 21 H -0.329335 0.118393 2.18666 0
M  V30 22 H -0.3525 1.73044 1.29746 0
M  V30 23 H -1.83434 0.787605 1.49287 0
M  V30 24 H -2.12167 -1.32732 -0.809315 0
M  V30 25 H -2.27469 -1.04002 0.945569 0
M  V30 26 H -1.0344 -2.18237 0.409499 0
M  V30 END ATOM
M  V30 BEGIN BOND
M  V30 1 1 1 2
M  V30 2 1 2 3
M  V30 3 1 3 4
M  V30 4 1 4 5
M  V30 5 2 5 6
M  V30 6 2 5 7
M  V30 7 1 5 8
M  V30 8 1 4 9
M  V30 9 1 3 10
M  V30 10 1 3 11
M  V30 11 1 1 12
M  V30 12 1 1 13
M  V30 13 1 2 14
M  V30 14 1 2 15
M  V30 15 1 8 16
M  V30 16 1 8 17
M  V30 17 1 9 18
M  V30 18 1 9 19
M  V30 19 1 9 20
M  V30 20 1 10 21
M  V30 21 1 10 22
M  V30 22 1 10 23
M  V30 23 1 11 24
M  V30 24 1 11 25
M  V30 25 1 11 26
M  V30 END BOND
M  V30 END CTAB
M  END
