
     RDKit          3D

  0  0  0  0  0  0  0  0  0  0999 V3000
M  V30 BEGIN CTAB
M  V30 COUNTS 36 38 0 0 0
M  V30 BEGIN ATOM
M  V30 1 C 5.78119 1.28754 -1.66603 0
M  V30 2 O 5.3746 1.4111 -0.329619 0
M  V30 3 C 4.28706 0.684156 0.123185 0
M  V30 4 C 3.59222 -0.166372 -0.727276 0
M  V30 5 C 2.51013 -0.88964 -0.276646 0
M  V30 6 C 2.08529 -0.790176 1.03222 0
M  V30 7 C 2.76832 0.0454458 1.86691 0
M  V30 8 C 3.84615 0.768953 1.42717 0
M  V30 9 S 0.697821 -1.75044 1.51306 0
M  V30 10 O 0.857717 -2.3934 2.86762 0
M  V30 11 C -0.832898 -0.930922 1.29772 0
M  V30 12 C -1.43344 -0.148464 2.26127 0
M  V30 13 C -2.64316 0.485412 2.05978 0
M  V30 14 C -3.28436 0.335794 0.848911 0
M  V30 15 N -4.46434 0.93673 0.612924 0
M  V30 16 C -5.04536 0.756604 -0.585585 0
M  V30 17 N -6.29353 1.38107 -0.860653 0
M  V30 18 N -4.49959 0.00285778 -1.55825 0
M  V30 19 C -3.31949 -0.61729 -1.36578 0
M  V30 20 N -2.70183 -1.42356 -2.36023 0
M  V30 21 C -2.70539 -0.447631 -0.146144 0
M  V30 22 C -1.48798 -1.07074 0.0902591 0
M  V30 23 H 6.21272 0.265543 -1.85287 0
M  V30 24 H 4.95937 1.42171 -2.38717 0
M  V30 25 H 6.60691 1.99853 -1.85473 0
M  V30 26 H 3.92831 -0.244342 -1.7606 0
M  V30 27 H 1.97503 -1.55788 -0.970696 0
M  V30 28 H 2.42573 0.115577 2.89266 0
M  V30 29 H 4.38479 1.43204 2.09751 0
M  V30 30 H -0.886161 -0.0606012 3.2042 0
M  V30 31 H -3.08977 1.08439 2.81519 0
M  V30 32 H -6.58387 1.58379 -1.82639 0
M  V30 33 H -6.95668 1.65427 -0.0875364 0
M  V30 34 H -3.31627 -2.11186 -2.84908 0
M  V30 35 H -1.69772 -1.36502 -2.61887 0
M  V30 36 H -1.0515 -1.68317 -0.709489 0
M  V30 END ATOM
M  V30 BEGIN BOND
M  V30 1 1 1 2
M  V30 2 1 2 3
M  V30 3 2 3 4
M  V30 4 1 4 5
M  V30 5 2 5 6
M  V30 6 1 6 7
M  V30 7 2 7 8
M  V30 8 1 6 9
M  V30 9 2 9 10
M  V30 10 1 9 11
M  V30 11 2 11 12
M  V30 12 1 12 13
M  V30 13 2 13 14
M  V30 14 1 14 15
M  V30 15 2 15 16
M  V30 16 1 16 17
M  V30 17 1 16 18
M  V30 18 2 18 19
M  V30 19 1 19 20
M  V30 20 1 19 21
M  V30 21 2 21 22
M  V30 22 1 8 3
M  V30 23 1 22 11
M  V30 24 1 21 14
M  V30 25 1 1 23
M  V30 26 1 1 24
M  V30 27 1 1 25
M  V30 28 1 4 26
M  V30 29 1 5 27
M  V30 30 1 7 28
M  V30 31 1 8 29
M  V30 32 1 12 30
M  V30 33 1 13 31
M  V30 34 1 17 32
M  V30 35 1 17 33
M  V30 36 1 20 34
M  V30 37 1 20 35
M  V30 38 1 22 36
M  V30 END BOND
M  V30 END CTAB
M  END
