
     RDKit          3D

  0  0  0  0  0  0  0  0  0  0999 V3000
M  V30 BEGIN CTAB
M  V30 COUNTS 29 30 0 0 0
M  V30 BEGIN ATOM
M  V30 1 N -4.53629 1.58846 1.12982 0
M  V30 2 C -3.66975 0.855279 0.275974 0
M  V30 3 C -2.29501 0.834923 0.536716 0
M  V30 4 C -1.42777 0.135596 -0.269149 0
M  V30 5 N -0.0270499 0.145149 0.0393014 0
M  V30 6 C 0.931028 -0.566021 -0.764087 0
M  V30 7 C 2.29663 -0.379314 -0.192175 0
M  V30 8 C 3.40333 -0.21042 -0.993035 0
M  V30 9 C 4.64363 -0.0440959 -0.421416 0
M  V30 10 C 4.84176 -0.0373368 0.937285 0
M  V30 11 C 3.74659 -0.204949 1.75792 0
M  V30 12 C 2.50532 -0.371387 1.18262 0
M  V30 13 N -1.93781 -0.529092 -1.3161 0
M  V30 14 C -3.27186 -0.519563 -1.58358 0
M  V30 15 N -4.10568 0.164833 -0.791776 0
M  V30 16 N -3.72001 -1.25913 -2.72337 0
M  V30 17 H -4.88091 1.26605 2.05788 0
M  V30 18 H -4.85469 2.52487 0.804265 0
M  V30 19 H -1.96859 1.40043 1.40481 0
M  V30 20 H 0.318802 0.680243 0.86571 0
M  V30 21 H 0.956386 -0.0433586 -1.76438 0
M  V30 22 H 0.704903 -1.63839 -0.880607 0
M  V30 23 H 3.28207 -0.21071 -2.07125 0
M  V30 24 H 5.48052 0.0849169 -1.10997 0
M  V30 25 H 5.8384 0.0973877 1.33 0
M  V30 26 H 3.90238 -0.19972 2.83174 0
M  V30 27 H 1.64001 -0.50583 1.84616 0
M  V30 28 H -3.40098 -2.22474 -2.91816 0
M  V30 29 H -4.39536 -0.834067 -3.40278 0
M  V30 END ATOM
M  V30 BEGIN BOND
M  V30 1 1 1 2
M  V30 2 2 2 3
M  V30 3 1 3 4
M  V30 4 1 4 5
M  V30 5 1 5 6
M  V30 6 1 6 7
M  V30 7 2 7 8
M  V30 8 1 8 9
M  V30 9 2 9 10
M  V30 10 1 10 11
M  V30 11 2 11 12
M  V30 12 2 4 13
M  V30 13 1 13 14
M  V30 14 2 14 15
M  V30 15 1 14 16
M  V30 16 1 15 2
M  V30 17 1 12 7
M  V30 18 1 1 17
M  V30 19 1 1 18
M  V30 20 1 3 19
M  V30 21 1 5 20
M  V30 22 1 6 21
M  V30 23 1 6 22
M  V30 24 1 8 23
M  V30 25 1 9 24
M  V30 26 1 10 25
M  V30 27 1 11 26
M  V30 28 1 12 27
M  V30 29 1 16 28
M  V30 30 1 16 29
M  V30 END BOND
M  V30 END CTAB
M  END
