
     RDKit          3D

  0  0  0  0  0  0  0  0  0  0999 V3000
M  V30 BEGIN CTAB
M  V30 COUNTS 24 25 0 0 0
M  V30 BEGIN ATOM
M  V30 1 C 3.6805 -1.60947 -0.119203 0
M  V30 2 C 2.28678 -1.09812 -0.144455 0
M  V30 3 C 1.92547 0.0474524 0.52185 0
M  V30 4 C 0.649123 0.546129 0.518923 0
M  V30 5 C 0.360639 1.80167 1.27763 0
M  V30 6 C -0.375477 -0.119878 -0.191712 0
M  V30 7 C 0.0165522 -1.25773 -0.84484 0
M  V30 8 N 1.31161 -1.72239 -0.814405 0
M  V30 9 S -1.42313 -1.80242 -1.58374 0
M  V30 10 C -2.4827 -0.589747 -1.05579 0
M  V30 11 C -1.68247 0.231349 -0.300788 0
M  V30 12 N -2.25761 1.41314 0.333166 0
M  V30 13 N -3.90061 -0.415251 -1.31128 0
M  V30 14 H 4.3138 -0.824113 0.323244 0
M  V30 15 H 3.67171 -2.48845 0.589406 0
M  V30 16 H 4.02568 -1.91851 -1.13398 0
M  V30 17 H 2.72332 0.582529 1.08613 0
M  V30 18 H -2.87821e-05 2.61895 0.6372 0
M  V30 19 H -0.373409 1.51876 2.08705 0
M  V30 20 H 1.28256 2.10214 1.81972 0
M  V30 21 H -2.25259 2.3298 -0.141 0
M  V30 22 H -2.68392 1.36092 1.27229 0
M  V30 23 H -4.57862 -0.281549 -0.536364 0
M  V30 24 H -4.23717 -0.42522 -2.28905 0
M  V30 END ATOM
M  V30 BEGIN BOND
M  V30 1 1 1 2
M  V30 2 2 2 3
M  V30 3 1 3 4
M  V30 4 1 4 5
M  V30 5 2 4 6
M  V30 6 1 6 7
M  V30 7 2 7 8
M  V30 8 1 7 9
M  V30 9 1 9 10
M  V30 10 2 10 11
M  V30 11 1 11 12
M  V30 12 1 10 13
M  V30 13 1 8 2
M  V30 14 1 11 6
M  V30 15 1 1 14
M  V30 16 1 1 15
M  V30 17 1 1 16
M  V30 18 1 3 17
M  V30 19 1 5 18
M  V30 20 1 5 19
M  V30 21 1 5 20
M  V30 22 1 12 21
M  V30 23 1 12 22
M  V30 24 1 13 23
M  V30 25 1 13 24
M  V30 END BOND
M  V30 END CTAB
M  END
