
     RDKit          3D

  0  0  0  0  0  0  0  0  0  0999 V3000
M  V30 BEGIN CTAB
M  V30 COUNTS 56 58 0 0 0
M  V30 BEGIN ATOM
M  V30 1 N 8.36067 0.367437 1.65998 0
M  V30 2 C 7.03413 -0.0576104 1.17637 0 CFG=1
M  V30 3 C 6.24119 1.13259 0.750151 0
M  V30 4 C 4.89114 0.859205 0.242082 0
M  V30 5 C 4.6562 0.691774 -1.11144 0
M  V30 6 C 3.40431 0.430224 -1.60845 0
M  V30 7 C 2.30901 0.321924 -0.759899 0
M  V30 8 C 2.54874 0.490117 0.593188 0
M  V30 9 C 3.8147 0.752764 1.07452 0
M  V30 10 C 0.970179 0.0570533 -1.28538 0
M  V30 11 N 0.827028 -0.0245535 -2.61661 0
M  V30 12 C -0.374274 -0.276497 -3.20666 0
M  V30 13 N -0.401159 -0.344822 -4.62436 0
M  V30 14 N -1.41682 -0.443022 -2.4325 0
M  V30 15 C -1.41814 -0.387424 -1.05682 0
M  V30 16 O -2.43204 -0.54828 -0.297945 0
M  V30 17 C -3.27927 -0.672784 0.727188 0
M  V30 18 C -4.22525 0.462854 0.881915 0
M  V30 19 C -5.19638 0.398582 2.0208 0
M  V30 20 C -6.57595 -0.0140901 1.75027 0
M  V30 21 C -7.03491 -0.167269 0.356099 0
M  V30 22 C -6.18769 0.374754 -0.715191 0
M  V30 23 C -4.89975 1.02252 -0.296017 0
M  V30 24 C -3.76373 -2.08177 0.795381 0
M  V30 25 F -4.4228 -2.59319 -0.256726 0
M  V30 26 F -4.37117 -2.45715 1.96749 0
M  V30 27 F -2.57341 -2.86455 0.825904 0
M  V30 28 C -0.138407 -0.122667 -0.523525 0
M  V30 29 C 7.25891 -1.07489 0.139441 0
M  V30 30 O 8.57022 -1.37256 -0.280507 0
M  V30 31 O 6.35813 -1.72333 -0.421448 0
M  V30 32 H 8.21519 1.20536 2.21776 0
M  V30 33 H 8.7971 -0.376069 2.23497 0
M  V30 34 H 6.58551 -0.587863 2.04888 0
M  V30 35 H 6.82227 1.60394 -0.0967228 0
M  V30 36 H 6.20069 1.90107 1.56651 0
M  V30 37 H 5.53529 0.779199 -1.7683 0
M  V30 38 H 3.25373 0.304819 -2.66224 0
M  V30 39 H 1.75854 0.422371 1.31019 0
M  V30 40 H 3.98603 0.883697 2.13646 0
M  V30 41 H -0.160923 0.478008 -5.19727 0
M  V30 42 H -0.663564 -1.22738 -5.09219 0
M  V30 43 H -2.63574 -0.617801 1.6793 0
M  V30 44 H -3.52164 1.31319 1.21791 0
M  V30 45 H -5.25374 1.436 2.49802 0
M  V30 46 H -4.77513 -0.22333 2.87454 0
M  V30 47 H -6.79196 -0.949495 2.3589 0
M  V30 48 H -7.26469 0.726729 2.28449 0
M  V30 49 H -7.15507 -1.27898 0.164972 0
M  V30 50 H -8.10739 0.187114 0.283397 0
M  V30 51 H -5.94453 -0.381957 -1.49118 0
M  V30 52 H -6.81769 1.12263 -1.29567 0
M  V30 53 H -4.24932 1.1677 -1.18586 0
M  V30 54 H -5.19304 2.07895 -0.0407854 0
M  V30 55 H -0.0606506 -0.0627096 0.547107 0
M  V30 56 H 8.90732 -2.30582 -0.0604554 0
M  V30 END ATOM
M  V30 BEGIN BOND
M  V30 1 1 1 2
M  V30 2 1 2 3
M  V30 3 1 3 4
M  V30 4 2 4 5
M  V30 5 1 5 6
M  V30 6 2 6 7
M  V30 7 1 7 8
M  V30 8 2 8 9
M  V30 9 1 7 10
M  V30 10 2 10 11
M  V30 11 1 11 12
M  V30 12 1 12 13
M  V30 13 2 12 14
M  V30 14 1 14 15
M  V30 15 1 15 16
M  V30 16 1 16 17
M  V30 17 1 17 18
M  V30 18 1 18 19
M  V30 19 1 19 20
M  V30 20 1 20 21
M  V30 21 1 21 22
M  V30 22 1 22 23
M  V30 23 1 17 24
M  V30 24 1 24 25
M  V30 25 1 24 26
M  V30 26 1 24 27
M  V30 27 2 15 28
M  V30 28 1 2 29
M  V30 29 1 29 30
M  V30 30 2 29 31
M  V30 31 1 9 4
M  V30 32 1 28 10
M  V30 33 1 23 18
M  V30 34 1 1 32
M  V30 35 1 1 33
M  V30 36 1 2 34 CFG=1
M  V30 37 1 3 35
M  V30 38 1 3 36
M  V30 39 1 5 37
M  V30 40 1 6 38
M  V30 41 1 8 39
M  V30 42 1 9 40
M  V30 43 1 13 41
M  V30 44 1 13 42
M  V30 45 1 17 43
M  V30 46 1 18 44
M  V30 47 1 19 45
M  V30 48 1 19 46
M  V30 49 1 20 47
M  V30 50 1 20 48
M  V30 51 1 21 49
M  V30 52 1 21 50
M  V30 53 1 22 51
M  V30 54 1 22 52
M  V30 55 1 23 53
M  V30 56 1 23 54
M  V30 57 1 28 55
M  V30 58 1 30 56
M  V30 END BOND
M  V30 END CTAB
M  END
