
     RDKit          3D

  0  0  0  0  0  0  0  0  0  0999 V3000
M  V30 BEGIN CTAB
M  V30 COUNTS 51 54 0 0 0
M  V30 BEGIN ATOM
M  V30 1 N -2.05308 -2.8208 -6.99108 0
M  V30 2 C -2.10516 -2.51892 -5.5994 0
M  V30 3 N -1.74861 -1.30771 -5.14111 0
M  V30 4 C -1.77762 -1.02034 -3.82461 0
M  V30 5 N -1.41105 0.258197 -3.32099 0
M  V30 6 C -2.18807 -2.0208 -2.95847 0
M  V30 7 C -2.21122 -1.74051 -1.62706 0
M  V30 8 O -1.83567 -0.493041 -1.18675 0
M  V30 9 C -1.88044 -0.260366 0.206097 0
M  V30 10 C -1.40486 1.1218 0.57642 0
M  V30 11 C 0.00549076 1.31311 0.13277 0
M  V30 12 C 0.886825 1.93612 1.20482 0
M  V30 13 N 0.848891 1.23419 2.44396 0
M  V30 14 C -0.402335 0.516992 2.76543 0
M  V30 15 C -1.52654 1.22728 2.10081 0
M  V30 16 C 1.90066 1.19439 3.36433 0
M  V30 17 O 1.67518 0.444258 4.40556 0
M  V30 18 C 3.19201 1.83159 3.36433 0
M  V30 19 C 3.60925 2.85963 2.56793 0
M  V30 20 C 4.8972 3.37816 2.55206 0
M  V30 21 F 5.22685 4.41251 1.71375 0
M  V30 22 C 5.8405 2.83747 3.39218 0
M  V30 23 F 7.10178 3.36022 3.36048 0
M  V30 24 C 5.48573 1.81543 4.21003 0
M  V30 25 C 4.21149 1.30919 4.2177 0
M  V30 26 C -2.6091 -2.71808 -0.744755 0
M  V30 27 C -2.98143 -3.97649 -1.21194 0
M  V30 28 C -2.95229 -4.24129 -2.54197 0
M  V30 29 C -2.55908 -3.28203 -3.44619 0
M  V30 30 N -2.50887 -3.50412 -4.76905 0
M  V30 31 H -1.71137 -3.75208 -7.25581 0
M  V30 32 H -2.34599 -2.12477 -7.70344 0
M  V30 33 H -2.06889 1.05628 -3.26937 0
M  V30 34 H -0.432671 0.380185 -2.99111 0
M  V30 35 H -2.88445 -0.50488 0.538545 0
M  V30 36 H -1.17193 -0.994022 0.649336 0
M  V30 37 H -2.04593 1.90576 0.137326 0
M  V30 38 H 0.0167339 2.02038 -0.723572 0
M  V30 39 H 0.422566 0.348455 -0.215356 0
M  V30 40 H 0.66148 2.99743 1.22935 0
M  V30 41 H 1.93741 1.72121 0.794288 0
M  V30 42 H -0.294671 -0.489155 2.37436 0
M  V30 43 H -0.576981 0.547765 3.8663 0
M  V30 44 H -1.61282 2.29458 2.38621 0
M  V30 45 H -2.47885 0.75766 2.44422 0
M  V30 46 H 2.88761 3.35851 1.9105 0
M  V30 47 H 6.22682 1.3638 4.89113 0
M  V30 48 H 3.92763 0.49028 4.87018 0
M  V30 49 H -2.64141 -2.52622 0.301385 0
M  V30 50 H -3.29571 -4.7564 -0.512052 0
M  V30 51 H -3.24499 -5.24079 -2.93768 0
M  V30 END ATOM
M  V30 BEGIN BOND
M  V30 1 1 1 2
M  V30 2 2 2 3
M  V30 3 1 3 4
M  V30 4 1 4 5
M  V30 5 2 4 6
M  V30 6 1 6 7
M  V30 7 1 7 8
M  V30 8 1 8 9
M  V30 9 1 9 10
M  V30 10 1 10 11
M  V30 11 1 11 12
M  V30 12 1 12 13
M  V30 13 1 13 14
M  V30 14 1 14 15
M  V30 15 1 13 16
M  V30 16 2 16 17
M  V30 17 1 16 18
M  V30 18 2 18 19
M  V30 19 1 19 20
M  V30 20 1 20 21
M  V30 21 2 20 22
M  V30 22 1 22 23
M  V30 23 1 22 24
M  V30 24 2 24 25
M  V30 25 2 7 26
M  V30 26 1 26 27
M  V30 27 2 27 28
M  V30 28 1 28 29
M  V30 29 2 29 30
M  V30 30 1 30 2
M  V30 31 1 29 6
M  V30 32 1 15 10
M  V30 33 1 25 18
M  V30 34 1 1 31
M  V30 35 1 1 32
M  V30 36 1 5 33
M  V30 37 1 5 34
M  V30 38 1 9 35
M  V30 39 1 9 36
M  V30 40 1 10 37
M  V30 41 1 11 38
M  V30 42 1 11 39
M  V30 43 1 12 40
M  V30 44 1 12 41
M  V30 45 1 14 42
M  V30 46 1 14 43
M  V30 47 1 15 44
M  V30 48 1 15 45
M  V30 49 1 19 46
M  V30 50 1 24 47
M  V30 51 1 25 48
M  V30 52 1 26 49
M  V30 53 1 27 50
M  V30 54 1 28 51
M  V30 END BOND
M  V30 END CTAB
M  END
