
     RDKit          3D

  0  0  0  0  0  0  0  0  0  0999 V3000
M  V30 BEGIN CTAB
M  V30 COUNTS 37 38 0 0 0
M  V30 BEGIN ATOM
M  V30 1 C -1.14747 -1.97295 0.808779 0
M  V30 2 C -0.943767 -1.25454 -0.517082 0
M  V30 3 C 0.540811 -1.15496 -0.790024 0
M  V30 4 O 0.956508 -1.74586 -1.79144 0
M  V30 5 N 1.34467 -0.430101 0.0669197 0
M  V30 6 C 2.73552 -0.200162 0.00555091 0
M  V30 7 C 3.32035 0.578076 1.00294 0
M  V30 8 C 4.65253 0.883221 1.0462 0
M  V30 9 C 5.47594 0.386483 0.0332349 0
M  V30 10 C 4.93496 -0.371207 -0.946003 0
M  V30 11 C 3.55922 -0.668175 -0.963503 0
M  V30 12 C 6.90034 0.740704 0.112286 0
M  V30 13 F 7.26551 1.33393 -1.06977 0
M  V30 14 F 7.71388 -0.343803 0.434301 0
M  V30 15 F 7.13861 1.7015 1.09864 0
M  V30 16 S -1.56811 0.417219 -0.471193 0
M  V30 17 C -3.32557 0.542799 -0.343946 0
M  V30 18 N -3.88952 1.77518 -0.274264 0
M  V30 19 C -5.21269 1.96444 -0.186784 0
M  V30 20 N -5.71204 3.31016 -0.108443 0
M  V30 21 N -6.04323 0.894029 -0.166543 0
M  V30 22 C -5.50352 -0.347887 -0.235074 0
M  V30 23 N -4.17785 -0.507877 -0.32045 0
M  V30 24 N -6.34942 -1.48808 -0.221477 0
M  V30 25 H -2.00614 -2.66692 0.79201 0
M  V30 26 H -0.245798 -2.58528 1.06016 0
M  V30 27 H -1.27882 -1.22016 1.62485 0
M  V30 28 H -1.44192 -1.8592 -1.28225 0
M  V30 29 H 0.81724 0.0207497 0.899806 0
M  V30 30 H 2.68337 0.976203 1.8047 0
M  V30 31 H 5.0895 1.49571 1.84591 0
M  V30 32 H 5.5773 -0.755246 -1.7374 0
M  V30 33 H 3.20613 -1.26776 -1.76461 0
M  V30 34 H -6.63192 3.53163 0.299265 0
M  V30 35 H -5.12356 4.08051 -0.473076 0
M  V30 36 H -6.72384 -1.84418 -1.13407 0
M  V30 37 H -6.58719 -1.94822 0.672472 0
M  V30 END ATOM
M  V30 BEGIN BOND
M  V30 1 1 1 2
M  V30 2 1 2 3
M  V30 3 2 3 4
M  V30 4 1 3 5
M  V30 5 1 5 6
M  V30 6 2 6 7
M  V30 7 1 7 8
M  V30 8 2 8 9
M  V30 9 1 9 10
M  V30 10 2 10 11
M  V30 11 1 9 12
M  V30 12 1 12 13
M  V30 13 1 12 14
M  V30 14 1 12 15
M  V30 15 1 2 16
M  V30 16 1 16 17
M  V30 17 2 17 18
M  V30 18 1 18 19
M  V30 19 1 19 20
M  V30 20 2 19 21
M  V30 21 1 21 22
M  V30 22 2 22 23
M  V30 23 1 22 24
M  V30 24 1 11 6
M  V30 25 1 23 17
M  V30 26 1 1 25
M  V30 27 1 1 26
M  V30 28 1 1 27
M  V30 29 1 2 28
M  V30 30 1 5 29
M  V30 31 1 7 30
M  V30 32 1 8 31
M  V30 33 1 10 32
M  V30 34 1 11 33
M  V30 35 1 20 34
M  V30 36 1 20 35
M  V30 37 1 24 36
M  V30 38 1 24 37
M  V30 END BOND
M  V30 END CTAB
M  END
