
     RDKit          3D

  0  0  0  0  0  0  0  0  0  0999 V3000
M  V30 BEGIN CTAB
M  V30 COUNTS 39 40 0 0 0
M  V30 BEGIN ATOM
M  V30 1 N -0.758815 -2.84688 -1.53789 0
M  V30 2 C -1.78227 -1.89349 -1.19379 0
M  V30 3 C -1.33146 -0.917922 -0.15486 0
M  V30 4 C -2.43245 0.00878936 0.131691 0
M  V30 5 C -2.94487 0.102146 1.40021 0
M  V30 6 C -3.99085 0.968083 1.72093 0
M  V30 7 C -4.5283 1.76083 0.717387 0
M  V30 8 C -4.02242 1.67535 -0.557412 0
M  V30 9 C -2.98763 0.807523 -0.837234 0
M  V30 10 C -0.135657 -0.130123 -0.573198 0
M  V30 11 O 0.301937 -0.37969 -1.72821 0
M  V30 12 N 0.452341 0.825603 0.279871 0
M  V30 13 C 1.60659 1.58431 -0.126669 0
M  V30 14 C 2.8036 0.729683 -0.450082 0
M  V30 15 C 3.20447 -0.0738383 0.75768 0
M  V30 16 C 4.3825 -0.984084 0.615357 0
M  V30 17 C 2.99328 -1.54107 0.730612 0
M  V30 18 N 3.89194 1.6638 -0.781116 0
M  V30 19 H -0.411876 -2.60297 -2.50755 0
M  V30 20 H -1.19439 -3.78467 -1.62524 0
M  V30 21 H -2.19288 -1.37348 -2.0864 0
M  V30 22 H -2.64225 -2.44857 -0.755269 0
M  V30 23 H -1.02359 -1.47282 0.756427 0
M  V30 24 H -2.51928 -0.519435 2.17416 0
M  V30 25 H -4.35623 1.00299 2.73182 0
M  V30 26 H -5.33968 2.42537 0.990297 0
M  V30 27 H -4.44512 2.29154 -1.32217 0
M  V30 28 H -2.58442 0.735821 -1.84134 0
M  V30 29 H 0.0327365 0.97574 1.22098 0
M  V30 30 H 1.37838 2.26939 -0.981194 0
M  V30 31 H 1.92171 2.26594 0.704552 0
M  V30 32 H 2.68505 0.0844516 -1.31778 0
M  V30 33 H 3.13851 0.475253 1.7203 0
M  V30 34 H 4.89183 -1.01595 -0.36792 0
M  V30 35 H 5.04433 -1.14013 1.49632 0
M  V30 36 H 2.72795 -2.09 1.66464 0
M  V30 37 H 2.6026 -1.99318 -0.208931 0
M  V30 38 H 3.53731 2.29282 -1.53459 0
M  V30 39 H 4.02736 2.26285 0.0733974 0
M  V30 END ATOM
M  V30 BEGIN BOND
M  V30 1 1 1 2
M  V30 2 1 2 3
M  V30 3 1 3 4
M  V30 4 2 4 5
M  V30 5 1 5 6
M  V30 6 2 6 7
M  V30 7 1 7 8
M  V30 8 2 8 9
M  V30 9 1 3 10
M  V30 10 2 10 11
M  V30 11 1 10 12
M  V30 12 1 12 13
M  V30 13 1 13 14
M  V30 14 1 14 15
M  V30 15 1 15 16
M  V30 16 1 16 17
M  V30 17 1 14 18
M  V30 18 1 9 4
M  V30 19 1 17 15
M  V30 20 1 1 19
M  V30 21 1 1 20
M  V30 22 1 2 21
M  V30 23 1 2 22
M  V30 24 1 3 23
M  V30 25 1 5 24
M  V30 26 1 6 25
M  V30 27 1 7 26
M  V30 28 1 8 27
M  V30 29 1 9 28
M  V30 30 1 12 29
M  V30 31 1 13 30
M  V30 32 1 13 31
M  V30 33 1 14 32
M  V30 34 1 15 33
M  V30 35 1 16 34
M  V30 36 1 16 35
M  V30 37 1 17 36
M  V30 38 1 17 37
M  V30 39 1 18 38
M  V30 40 1 18 39
M  V30 END BOND
M  V30 END CTAB
M  END
