
     RDKit          3D

  0  0  0  0  0  0  0  0  0  0999 V3000
M  V30 BEGIN CTAB
M  V30 COUNTS 31 31 0 0 0
M  V30 BEGIN ATOM
M  V30 1 N 5.98064 -2.11667 -0.0194024 0
M  V30 2 N 5.51364 -0.857672 0.335755 0
M  V30 3 C 4.18301 -0.632973 0.789114 0
M  V30 4 O 3.41943 -1.62931 0.862329 0
M  V30 5 O 3.68854 0.588465 1.14663 0
M  V30 6 C 2.3936 0.876443 1.59681 0
M  V30 7 C 1.31661 0.558725 0.647109 0
M  V30 8 C 1.58635 0.312359 -0.676945 0
M  V30 9 C 0.557887 0.00736717 -1.57989 0
M  V30 10 C -0.740717 -0.044631 -1.12712 0
M  V30 11 C -0.972584 0.208437 0.208265 0
M  V30 12 C -2.37405 0.156595 0.717849 0
M  V30 13 O -3.26808 -0.166594 -0.341431 0
M  V30 14 C -4.62391 -0.284397 -0.170789 0
M  V30 15 O -5.08266 -0.0950714 0.980888 0
M  V30 16 N -5.53037 -0.605146 -1.21178 0
M  V30 17 N -6.89627 -0.70391 -0.944705 0
M  V30 18 N 0.0379834 0.497966 1.04703 0
M  V30 19 H 6.01902 -2.14398 -1.08042 0
M  V30 20 H 6.98166 -2.19457 0.282179 0
M  V30 21 H 6.1366 0.000625535 0.283561 0
M  V30 22 H 2.36784 1.99421 1.76329 0
M  V30 23 H 2.17998 0.349622 2.56767 0
M  V30 24 H 2.56528 0.33654 -1.09602 0
M  V30 25 H 0.751569 -0.188485 -2.62108 0
M  V30 26 H -1.53696 -0.281862 -1.83145 0
M  V30 27 H -2.3926 -0.582694 1.53151 0
M  V30 28 H -2.69097 1.13559 1.1341 0
M  V30 29 H -5.19802 -0.771799 -2.18714 0
M  V30 30 H -7.35053 0.218047 -1.01372 0
M  V30 31 H -7.02192 -1.11311 0.0078002 0
M  V30 END ATOM
M  V30 BEGIN BOND
M  V30 1 1 1 2
M  V30 2 1 2 3
M  V30 3 2 3 4
M  V30 4 1 3 5
M  V30 5 1 5 6
M  V30 6 1 6 7
M  V30 7 2 7 8
M  V30 8 1 8 9
M  V30 9 2 9 10
M  V30 10 1 10 11
M  V30 11 1 11 12
M  V30 12 1 12 13
M  V30 13 1 13 14
M  V30 14 2 14 15
M  V30 15 1 14 16
M  V30 16 1 16 17
M  V30 17 2 11 18
M  V30 18 1 18 7
M  V30 19 1 1 19
M  V30 20 1 1 20
M  V30 21 1 2 21
M  V30 22 1 6 22
M  V30 23 1 6 23
M  V30 24 1 8 24
M  V30 25 1 9 25
M  V30 26 1 10 26
M  V30 27 1 12 27
M  V30 28 1 12 28
M  V30 29 1 16 29
M  V30 30 1 17 30
M  V30 31 1 17 31
M  V30 END BOND
M  V30 END CTAB
M  END
