
     RDKit          3D

  0  0  0  0  0  0  0  0  0  0999 V3000
M  V30 BEGIN CTAB
M  V30 COUNTS 20 20 0 0 0
M  V30 BEGIN ATOM
M  V30 1 N 3.76136 0.0458658 0.281005 0
M  V30 2 N 2.44976 -0.422168 0.0981264 0
M  V30 3 C 1.32766 0.43704 0.129293 0
M  V30 4 O 1.51841 1.66062 0.328006 0
M  V30 5 C -0.0360401 -0.0415288 -0.0596508 0
M  V30 6 C -0.354092 -1.3624 -0.283813 0
M  V30 7 C -1.65381 -1.79704 -0.460671 0
M  V30 8 Cl -2.02679 -3.48354 -0.744038 0
M  V30 9 C -2.7114 -0.912913 -0.420232 0
M  V30 10 C -2.40364 0.412448 -0.196289 0
M  V30 11 C -1.11169 0.852434 -0.0193054 0
M  V30 12 N -0.812325 2.2185 0.209949 0
M  V30 13 Cl -3.75414 1.54172 -0.144601 0
M  V30 14 H 4.40095 -0.697154 0.603098 0
M  V30 15 H 3.71152 0.868111 0.951908 0
M  V30 16 H 2.36364 -1.44757 -0.0620492 0
M  V30 17 H 0.470846 -2.09231 -0.32136 0
M  V30 18 H -3.73981 -1.24095 -0.557815 0
M  V30 19 H -0.658053 2.91648 -0.531695 0
M  V30 20 H -0.742352 2.54435 1.20013 0
M  V30 END ATOM
M  V30 BEGIN BOND
M  V30 1 1 1 2
M  V30 2 1 2 3
M  V30 3 2 3 4
M  V30 4 1 3 5
M  V30 5 2 5 6
M  V30 6 1 6 7
M  V30 7 1 7 8
M  V30 8 2 7 9
M  V30 9 1 9 10
M  V30 10 2 10 11
M  V30 11 1 11 12
M  V30 12 1 10 13
M  V30 13 1 11 5
M  V30 14 1 1 14
M  V30 15 1 1 15
M  V30 16 1 2 16
M  V30 17 1 6 17
M  V30 18 1 9 18
M  V30 19 1 12 19
M  V30 20 1 12 20
M  V30 END BOND
M  V30 END CTAB
M  END
