
     RDKit          3D

  0  0  0  0  0  0  0  0  0  0999 V3000
M  V30 BEGIN CTAB
M  V30 COUNTS 27 28 0 0 0
M  V30 BEGIN ATOM
M  V30 1 N -3.75311 1.369 0.0355047 0
M  V30 2 N -3.43181 0.0100372 0.0859129 0
M  V30 3 C -2.08183 -0.454998 0.0833645 0
M  V30 4 C -1.85738 -1.80704 0.135064 0
M  V30 5 C -0.566816 -2.29932 0.134557 0
M  V30 6 C 0.495511 -1.42186 0.0816884 0
M  V30 7 C 0.295716 -0.0583491 0.0291282 0
M  V30 8 C -1.00942 0.402985 0.0311316 0
M  V30 9 N -1.27094 1.78985 -0.021389 0
M  V30 10 C 1.37388 0.800038 -0.0232159 0
M  V30 11 C 2.64182 0.306288 -0.0233063 0
M  V30 12 C 2.82313 -1.05981 0.0296579 0
M  V30 13 C 1.784 -1.96453 0.0832748 0
M  V30 14 C 3.80375 1.25821 -0.0808074 0
M  V30 15 H -3.83293 1.72364 1.02452 0
M  V30 16 H -4.69318 1.51385 -0.390402 0
M  V30 17 H -4.23187 -0.655808 0.125894 0
M  V30 18 H -2.70838 -2.50573 0.177235 0
M  V30 19 H -0.409408 -3.36913 0.175795 0
M  V30 20 H -1.46881 2.29592 0.846754 0
M  V30 21 H -1.25567 2.25851 -0.936622 0
M  V30 22 H 1.22121 1.88833 -0.065268 0
M  V30 23 H 3.83558 -1.43502 0.0287994 0
M  V30 24 H 1.93132 -3.03796 0.124827 0
M  V30 25 H 4.75552 0.691246 -0.0325078 0
M  V30 26 H 3.79467 1.9478 0.774727 0
M  V30 27 H 3.81544 1.81385 -1.04509 0
M  V30 END ATOM
M  V30 BEGIN BOND
M  V30 1 1 1 2
M  V30 2 1 2 3
M  V30 3 2 3 4
M  V30 4 1 4 5
M  V30 5 2 5 6
M  V30 6 1 6 7
M  V30 7 2 7 8
M  V30 8 1 8 9
M  V30 9 1 7 10
M  V30 10 2 10 11
M  V30 11 1 11 12
M  V30 12 2 12 13
M  V30 13 1 11 14
M  V30 14 1 8 3
M  V30 15 1 13 6
M  V30 16 1 1 15
M  V30 17 1 1 16
M  V30 18 1 2 17
M  V30 19 1 4 18
M  V30 20 1 5 19
M  V30 21 1 9 20
M  V30 22 1 9 21
M  V30 23 1 10 22
M  V30 24 1 12 23
M  V30 25 1 13 24
M  V30 26 1 14 25
M  V30 27 1 14 26
M  V30 28 1 14 27
M  V30 END BOND
M  V30 END CTAB
M  END
