
     RDKit          3D

  0  0  0  0  0  0  0  0  0  0999 V3000
M  V30 BEGIN CTAB
M  V30 COUNTS 45 46 0 0 0
M  V30 BEGIN ATOM
M  V30 1 C 5.0092 -3.30446 0.688191 0
M  V30 2 C 4.2197 -2.64606 -0.423471 0
M  V30 3 O 3.21509 -1.85124 0.159433 0
M  V30 4 C 2.30951 -1.10728 -0.591221 0
M  V30 5 O 2.42064 -1.17015 -1.81881 0
M  V30 6 C 1.29926 -0.311204 0.145484 0
M  V30 7 C 0.372163 0.451361 -0.711418 0
M  V30 8 C -1.01211 -0.113128 -0.608569 0
M  V30 9 C -1.78173 -0.0247718 0.613956 0
M  V30 10 O -1.24604 0.54554 1.59375 0
M  V30 11 O -3.05616 -0.517976 0.785317 0
M  V30 12 C -3.74672 -0.385059 2.03767 0
M  V30 13 C -5.1094 -0.995036 1.98127 0
M  V30 14 C -1.5662 -0.712215 -1.64856 0
M  V30 15 N -2.89282 -1.25415 -1.55269 0
M  V30 16 N -0.948823 -0.874574 -2.89463 0
M  V30 17 C 0.352975 1.92233 -0.446673 0
M  V30 18 C -0.470724 2.71289 -1.21128 0
M  V30 19 C -0.520886 4.07865 -1.00149 0
M  V30 20 C 0.231922 4.69472 -0.0422617 0
M  V30 21 C 1.06008 3.91895 0.7302 0
M  V30 22 C 1.10728 2.54547 0.515611 0
M  V30 23 O 1.96742 1.82817 1.3351 0
M  V30 24 C 2.04134 0.478881 1.155 0
M  V30 25 O 2.8134 -0.175211 1.91518 0
M  V30 26 H 6.07888 -2.96093 0.690959 0
M  V30 27 H 4.95796 -4.4187 0.616834 0
M  V30 28 H 4.59791 -3.03706 1.68196 0
M  V30 29 H 4.91557 -1.93455 -0.945069 0
M  V30 30 H 3.83811 -3.4219 -1.09875 0
M  V30 31 H 0.708451 -1.06284 0.739531 0
M  V30 32 H 0.692713 0.366729 -1.78826 0
M  V30 33 H -3.18409 -0.888889 2.85269 0
M  V30 34 H -3.83433 0.678108 2.33333 0
M  V30 35 H -5.77915 -0.449224 2.6861 0
M  V30 36 H -5.49327 -0.919932 0.930155 0
M  V30 37 H -5.02975 -2.05213 2.28273 0
M  V30 38 H -2.96277 -2.27964 -1.32661 0
M  V30 39 H -3.745 -0.667009 -1.69847 0
M  V30 40 H -0.704059 -0.0477298 -3.4607 0
M  V30 41 H -0.735975 -1.81807 -3.25248 0
M  V30 42 H -1.10969 2.33204 -1.99784 0
M  V30 43 H -1.17439 4.70918 -1.60746 0
M  V30 44 H 0.225275 5.75973 0.157526 0
M  V30 45 H 1.66922 4.37835 1.49876 0
M  V30 END ATOM
M  V30 BEGIN BOND
M  V30 1 1 1 2
M  V30 2 1 2 3
M  V30 3 1 3 4
M  V30 4 2 4 5
M  V30 5 1 4 6
M  V30 6 1 6 7
M  V30 7 1 7 8
M  V30 8 1 8 9
M  V30 9 2 9 10
M  V30 10 1 9 11
M  V30 11 1 11 12
M  V30 12 1 12 13
M  V30 13 2 8 14
M  V30 14 1 14 15
M  V30 15 1 14 16
M  V30 16 1 7 17
M  V30 17 2 17 18
M  V30 18 1 18 19
M  V30 19 2 19 20
M  V30 20 1 20 21
M  V30 21 2 21 22
M  V30 22 1 22 23
M  V30 23 1 23 24
M  V30 24 2 24 25
M  V30 25 1 24 6
M  V30 26 1 22 17
M  V30 27 1 1 26
M  V30 28 1 1 27
M  V30 29 1 1 28
M  V30 30 1 2 29
M  V30 31 1 2 30
M  V30 32 1 6 31
M  V30 33 1 7 32
M  V30 34 1 12 33
M  V30 35 1 12 34
M  V30 36 1 13 35
M  V30 37 1 13 36
M  V30 38 1 13 37
M  V30 39 1 15 38
M  V30 40 1 15 39
M  V30 41 1 16 40
M  V30 42 1 16 41
M  V30 43 1 18 42
M  V30 44 1 19 43
M  V30 45 1 20 44
M  V30 46 1 21 45
M  V30 END BOND
M  V30 END CTAB
M  END
