
     RDKit          3D

  0  0  0  0  0  0  0  0  0  0999 V3000
M  V30 BEGIN CTAB
M  V30 COUNTS 30 30 0 0 0
M  V30 BEGIN ATOM
M  V30 1 C -3.08384 -1.64814 0.39144 0
M  V30 2 C -3.36179 -0.596428 -0.670233 0
M  V30 3 N -3.01621 0.709822 -0.205549 0
M  V30 4 C -1.69335 1.03978 0.191713 0
M  V30 5 N -1.34512 2.24243 0.626339 0
M  V30 6 C -0.0717258 2.48742 0.987311 0
M  V30 7 N 0.253438 3.80043 1.44938 0
M  V30 8 N 0.89279 1.53705 0.924724 0
M  V30 9 C 0.526618 0.32235 0.482467 0
M  V30 10 N -0.747379 0.0912285 0.125463 0
M  V30 11 C 1.51976 -0.774009 0.383184 0 CFG=1
M  V30 12 C 2.43574 -0.559089 -0.810066 0
M  V30 13 C 3.42432 -1.6783 -0.883827 0
M  V30 14 N 2.34588 -0.835458 1.57498 0
M  V30 15 H -3.03153 -1.11638 1.36268 0
M  V30 16 H -3.86948 -2.41216 0.341484 0
M  V30 17 H -2.12393 -2.14331 0.157138 0
M  V30 18 H -2.78341 -0.887075 -1.59496 0
M  V30 19 H -4.44187 -0.623276 -0.905366 0
M  V30 20 H -3.73179 1.46397 -0.144584 0
M  V30 21 H 0.727677 4.51347 0.835083 0
M  V30 22 H 0.0179276 4.07164 2.42462 0
M  V30 23 H 0.984765 -1.75112 0.244598 0
M  V30 24 H 1.80624 -0.55828 -1.73087 0
M  V30 25 H 2.92933 0.419707 -0.722373 0
M  V30 26 H 4.37121 -1.41692 -0.378422 0
M  V30 27 H 3.70279 -1.95347 -1.93654 0
M  V30 28 H 2.99042 -2.60957 -0.440084 0
M  V30 29 H 2.5504 0.149377 1.86002 0
M  V30 30 H 1.82213 -1.28568 2.35527 0
M  V30 END ATOM
M  V30 BEGIN BOND
M  V30 1 1 1 2
M  V30 2 1 2 3
M  V30 3 1 3 4
M  V30 4 2 4 5
M  V30 5 1 5 6
M  V30 6 1 6 7
M  V30 7 2 6 8
M  V30 8 1 8 9
M  V30 9 2 9 10
M  V30 10 1 9 11
M  V30 11 1 11 12
M  V30 12 1 12 13
M  V30 13 1 11 14
M  V30 14 1 10 4
M  V30 15 1 1 15
M  V30 16 1 1 16
M  V30 17 1 1 17
M  V30 18 1 2 18
M  V30 19 1 2 19
M  V30 20 1 3 20
M  V30 21 1 7 21
M  V30 22 1 7 22
M  V30 23 1 11 23 CFG=3
M  V30 24 1 12 24
M  V30 25 1 12 25
M  V30 26 1 13 26
M  V30 27 1 13 27
M  V30 28 1 13 28
M  V30 29 1 14 29
M  V30 30 1 14 30
M  V30 END BOND
M  V30 END CTAB
M  END
