
     RDKit          3D

  0  0  0  0  0  0  0  0  0  0999 V3000
M  V30 BEGIN CTAB
M  V30 COUNTS 59 61 0 0 0
M  V30 BEGIN ATOM
M  V30 1 C -8.23791 0.137191 1.94554 0
M  V30 2 C -7.41222 -0.822952 1.18926 0
M  V30 3 C -8.19823 -1.25338 -0.0572247 0
M  V30 4 C -6.02104 -0.499412 0.864865 0
M  V30 5 C -5.65395 0.649453 0.0163802 0 CFG=2
M  V30 6 N -4.15603 0.582185 -0.0516109 0
M  V30 7 C -3.49829 0.361923 -1.27306 0
M  V30 8 O -4.17782 0.223091 -2.31913 0
M  V30 9 C -2.0507 0.293237 -1.34234 0
M  V30 10 C -1.2147 0.19786 -0.253535 0
M  V30 11 C 0.162806 0.138076 -0.360266 0
M  V30 12 C 0.752011 0.173362 -1.59189 0
M  V30 13 N 2.19911 0.107366 -1.71749 0
M  V30 14 C 2.99132 -0.0249353 -0.544342 0
M  V30 15 C 4.42711 -0.0695218 -0.747398 0
M  V30 16 C 4.99381 0.0522358 -1.98358 0
M  V30 17 N 6.31228 0.0324882 -2.17608 0
M  V30 18 C 7.13738 -0.108693 -1.15445 0
M  V30 19 N 8.47372 -0.132024 -1.30199 0
M  V30 20 C 9.35833 -0.269724 -0.308881 0
M  V30 21 N 10.7674 -0.284762 -0.564097 0
M  V30 22 N 8.86939 -0.393466 0.928294 0
M  V30 23 C 7.51754 -0.377533 1.14625 0
M  V30 24 N 7.08446 -0.504446 2.47515 0
M  V30 25 C 6.60344 -0.237627 0.135211 0
M  V30 26 C 5.25596 -0.225661 0.399365 0
M  V30 27 C 4.67927 -0.379025 1.74364 0
M  V30 28 C -0.0333263 0.267691 -2.71276 0
M  V30 29 C -1.40091 0.326049 -2.58884 0
M  V30 30 C -5.94588 1.99844 0.42997 0
M  V30 31 O -7.20684 2.54528 0.415659 0
M  V30 32 O -5.02288 2.78144 0.836875 0
M  V30 33 H -8.86318 -0.463082 2.69125 0
M  V30 34 H -9.04183 0.632069 1.33158 0
M  V30 35 H -7.6985 0.84546 2.60283 0
M  V30 36 H -7.38143 -1.7908 1.79998 0
M  V30 37 H -9.16876 -1.64151 0.303435 0
M  V30 38 H -8.37777 -0.427581 -0.747732 0
M  V30 39 H -7.63793 -2.10679 -0.489029 0
M  V30 40 H -5.55355 -1.41246 0.388339 0
M  V30 41 H -5.45641 -0.458482 1.86532 0
M  V30 42 H -6.00246 0.4411 -1.02484 0
M  V30 43 H -3.61415 0.70264 0.82157 0
M  V30 44 H -1.69355 0.167064 0.740593 0
M  V30 45 H 0.779028 0.0632154 0.525209 0
M  V30 46 H 2.60683 0.156757 -2.6578 0
M  V30 47 H 2.69661 -1.02642 -0.0985808 0
M  V30 48 H 2.68194 0.715701 0.246665 0
M  V30 49 H 4.40363 0.175914 -2.90588 0
M  V30 50 H 11.3058 -1.15315 -0.465449 0
M  V30 51 H 11.2223 0.591164 -0.846231 0
M  V30 52 H 6.95199 0.381281 3.02418 0
M  V30 53 H 6.90109 -1.39827 2.96892 0
M  V30 54 H 4.74898 -1.39604 2.18511 0
M  V30 55 H 4.73467 0.472452 2.41459 0
M  V30 56 H 3.54518 -0.386657 1.57679 0
M  V30 57 H 0.456237 0.294747 -3.69112 0
M  V30 58 H -2.03943 0.400681 -3.45568 0
M  V30 59 H -7.85999 2.33678 -0.349661 0
M  V30 END ATOM
M  V30 BEGIN BOND
M  V30 1 1 1 2
M  V30 2 1 2 3
M  V30 3 1 2 4
M  V30 4 1 4 5
M  V30 5 1 5 6
M  V30 6 1 6 7
M  V30 7 2 7 8
M  V30 8 1 7 9
M  V30 9 2 9 10
M  V30 10 1 10 11
M  V30 11 2 11 12
M  V30 12 1 12 13
M  V30 13 1 13 14
M  V30 14 1 14 15
M  V30 15 2 15 16
M  V30 16 1 16 17
M  V30 17 2 17 18
M  V30 18 1 18 19
M  V30 19 2 19 20
M  V30 20 1 20 21
M  V30 21 1 20 22
M  V30 22 2 22 23
M  V30 23 1 23 24
M  V30 24 1 23 25
M  V30 25 2 25 26
M  V30 26 1 26 27
M  V30 27 1 12 28
M  V30 28 2 28 29
M  V30 29 1 5 30
M  V30 30 1 30 31
M  V30 31 2 30 32
M  V30 32 1 29 9
M  V30 33 1 26 15
M  V30 34 1 25 18
M  V30 35 1 1 33
M  V30 36 1 1 34
M  V30 37 1 1 35
M  V30 38 1 2 36
M  V30 39 1 3 37
M  V30 40 1 3 38
M  V30 41 1 3 39
M  V30 42 1 4 40
M  V30 43 1 4 41
M  V30 44 1 5 42 CFG=3
M  V30 45 1 6 43
M  V30 46 1 10 44
M  V30 47 1 11 45
M  V30 48 1 13 46
M  V30 49 1 14 47
M  V30 50 1 14 48
M  V30 51 1 16 49
M  V30 52 1 21 50
M  V30 53 1 21 51
M  V30 54 1 24 52
M  V30 55 1 24 53
M  V30 56 1 27 54
M  V30 57 1 27 55
M  V30 58 1 27 56
M  V30 59 1 28 57
M  V30 60 1 29 58
M  V30 61 1 31 59
M  V30 END BOND
M  V30 END CTAB
M  END
