
     RDKit          3D

  0  0  0  0  0  0  0  0  0  0999 V3000
M  V30 BEGIN CTAB
M  V30 COUNTS 40 42 0 0 0
M  V30 BEGIN ATOM
M  V30 1 N 5.41874 0.70819 0.0765134 0
M  V30 2 C 4.35089 -0.238528 -0.226462 0
M  V30 3 C 3.30111 -0.190953 0.844513 0
M  V30 4 C 2.21292 -1.14819 0.568964 0
M  V30 5 C 1.40627 -0.929188 -0.686009 0
M  V30 6 N 0.707852 0.30367 -0.736113 0
M  V30 7 C 1.22168 1.48281 -1.19617 0
M  V30 8 N 0.324028 2.46719 -1.10315 0
M  V30 9 C -0.81066 1.95088 -0.574953 0
M  V30 10 C -2.03461 2.49888 -0.271033 0
M  V30 11 N -2.25975 3.88369 -0.512084 0
M  V30 12 N -3.001 1.73272 0.246199 0
M  V30 13 C -2.77263 0.436778 0.465645 0
M  V30 14 C -3.85319 -0.405701 1.03177 0
M  V30 15 C -3.93444 -1.75749 0.385469 0
M  V30 16 C -2.66988 -2.20023 -0.277398 0
M  V30 17 C -1.47257 -1.56171 0.465176 0
M  V30 18 C -1.52341 -0.159637 0.164689 0
M  V30 19 C -0.544654 0.620869 -0.360159 0
M  V30 20 H 5.91432 0.890557 -0.82952 0
M  V30 21 H 5.08837 1.55638 0.553304 0
M  V30 22 H 4.80019 -1.2566 -0.225101 0
M  V30 23 H 3.95002 0.0344256 -1.19176 0
M  V30 24 H 2.9102 0.845162 0.99989 0
M  V30 25 H 3.79385 -0.454506 1.80895 0
M  V30 26 H 2.51982 -2.21707 0.677586 0
M  V30 27 H 1.46193 -1.02583 1.41281 0
M  V30 28 H 2.21132 -0.830553 -1.49416 0
M  V30 29 H 0.907951 -1.82342 -1.07328 0
M  V30 30 H 2.21344 1.63395 -1.58836 0
M  V30 31 H -1.4849 4.58284 -0.463744 0
M  V30 32 H -3.207 4.2695 -0.748515 0
M  V30 33 H -4.80824 0.141882 0.912853 0
M  V30 34 H -3.66929 -0.494473 2.12185 0
M  V30 35 H -4.75044 -1.74335 -0.366462 0
M  V30 36 H -4.22588 -2.51235 1.15368 0
M  V30 37 H -2.56175 -3.29883 -0.151892 0
M  V30 38 H -2.62848 -1.99044 -1.35053 0
M  V30 39 H -0.630913 -2.17038 0.531787 0
M  V30 40 H -1.8712 -1.63094 1.55053 0
M  V30 END ATOM
M  V30 BEGIN BOND
M  V30 1 1 1 2
M  V30 2 1 2 3
M  V30 3 1 3 4
M  V30 4 1 4 5
M  V30 5 1 5 6
M  V30 6 1 6 7
M  V30 7 2 7 8
M  V30 8 1 8 9
M  V30 9 2 9 10
M  V30 10 1 10 11
M  V30 11 1 10 12
M  V30 12 2 12 13
M  V30 13 1 13 14
M  V30 14 1 14 15
M  V30 15 1 15 16
M  V30 16 1 16 17
M  V30 17 1 17 18
M  V30 18 2 18 19
M  V30 19 1 19 6
M  V30 20 1 19 9
M  V30 21 1 18 13
M  V30 22 1 1 20
M  V30 23 1 1 21
M  V30 24 1 2 22
M  V30 25 1 2 23
M  V30 26 1 3 24
M  V30 27 1 3 25
M  V30 28 1 4 26
M  V30 29 1 4 27
M  V30 30 1 5 28
M  V30 31 1 5 29
M  V30 32 1 7 30
M  V30 33 1 11 31
M  V30 34 1 11 32
M  V30 35 1 14 33
M  V30 36 1 14 34
M  V30 37 1 15 35
M  V30 38 1 15 36
M  V30 39 1 16 37
M  V30 40 1 16 38
M  V30 41 1 17 39
M  V30 42 1 17 40
M  V30 END BOND
M  V30 END CTAB
M  END
