
     RDKit          3D

  0  0  0  0  0  0  0  0  0  0999 V3000
M  V30 BEGIN CTAB
M  V30 COUNTS 56 59 0 0 0
M  V30 BEGIN ATOM
M  V30 1 N -3.53305 4.46477 0.126416 0
M  V30 2 C -2.48039 3.54485 -0.240155 0
M  V30 3 N -1.25372 3.99614 -0.546201 0
M  V30 4 C -0.226693 3.2054 -0.892125 0
M  V30 5 N 1.0332 3.75504 -1.20529 0
M  V30 6 C -0.493575 1.83926 -0.922314 0
M  V30 7 C -1.75073 1.35525 -0.610644 0
M  V30 8 C -2.00623 -0.0860443 -0.687818 0
M  V30 9 O -3.24897 -0.518617 -0.322691 0
M  V30 10 C -3.61424 -0.341138 0.98307 0
M  V30 11 C -4.9644 -0.928865 1.18799 0
M  V30 12 C -5.04491 -2.28091 1.4456 0
M  V30 13 C -6.25996 -2.88099 1.65904 0
M  V30 14 C -7.40235 -2.11742 1.61408 0
M  V30 15 C -7.36598 -0.74895 1.35665 0
M  V30 16 C -6.10867 -0.183012 1.14549 0
M  V30 17 N -2.69891 2.22918 -0.280973 0
M  V30 18 C 0.625237 0.989816 -1.27344 0
M  V30 19 C 1.14548 0.851085 -2.53651 0
M  V30 20 C 2.2144 0.00274766 -2.80598 0
M  V30 21 C 2.79403 -0.738311 -1.79744 0
M  V30 22 N 3.86032 -1.60683 -2.04755 0
M  V30 23 C 4.5269 -2.44981 -1.09332 0
M  V30 24 C 5.22846 -1.76879 -0.0153596 0
M  V30 25 C 5.66492 -0.474212 -0.150958 0
M  V30 26 C 6.33376 0.186866 0.877053 0
M  V30 27 C 6.54906 -0.501943 2.04664 0
M  V30 28 Cl 7.3991 0.330289 3.36022 0
M  V30 29 C 6.13178 -1.80025 2.23025 0
M  V30 30 C 5.46888 -2.41611 1.17746 0
M  V30 31 C 2.27553 -0.599897 -0.537282 0
M  V30 32 C 1.22051 0.236972 -0.262286 0
M  V30 33 H -4.08038 4.97359 -0.601305 0
M  V30 34 H -3.74822 4.62304 1.14671 0
M  V30 35 H 1.35255 3.75606 -2.19199 0
M  V30 36 H 1.64448 4.15782 -0.476632 0
M  V30 37 H -1.90841 -0.352856 -1.79284 0
M  V30 38 H -1.19075 -0.698283 -0.225543 0
M  V30 39 H -2.9243 -0.911908 1.68994 0
M  V30 40 H -3.66677 0.678696 1.36405 0
M  V30 41 H -4.12926 -2.89351 1.48138 0
M  V30 42 H -6.25761 -3.94871 1.85637 0
M  V30 43 H -8.35922 -2.62579 1.79043 0
M  V30 44 H -8.26849 -0.173917 1.32437 0
M  V30 45 H -6.08283 0.871205 0.945933 0
M  V30 46 H 0.706564 1.42041 -3.33534 0
M  V30 47 H 2.62232 -0.104324 -3.79727 0
M  V30 48 H 4.23264 -1.66429 -3.04633 0
M  V30 49 H 3.7128 -3.12686 -0.681672 0
M  V30 50 H 5.21491 -3.17819 -1.6026 0
M  V30 51 H 5.48098 0.0365805 -1.0766 0
M  V30 52 H 6.64485 1.20398 0.697098 0
M  V30 53 H 6.32568 -2.29239 3.16261 0
M  V30 54 H 5.12935 -3.44528 1.30591 0
M  V30 55 H 2.67481 -1.15971 0.320607 0
M  V30 56 H 0.855547 0.309073 0.761069 0
M  V30 END ATOM
M  V30 BEGIN BOND
M  V30 1 1 1 2
M  V30 2 2 2 3
M  V30 3 1 3 4
M  V30 4 1 4 5
M  V30 5 2 4 6
M  V30 6 1 6 7
M  V30 7 1 7 8
M  V30 8 1 8 9
M  V30 9 1 9 10
M  V30 10 1 10 11
M  V30 11 2 11 12
M  V30 12 1 12 13
M  V30 13 2 13 14
M  V30 14 1 14 15
M  V30 15 2 15 16
M  V30 16 2 7 17
M  V30 17 1 6 18
M  V30 18 2 18 19
M  V30 19 1 19 20
M  V30 20 2 20 21
M  V30 21 1 21 22
M  V30 22 1 22 23
M  V30 23 1 23 24
M  V30 24 2 24 25
M  V30 25 1 25 26
M  V30 26 2 26 27
M  V30 27 1 27 28
M  V30 28 1 27 29
M  V30 29 2 29 30
M  V30 30 1 21 31
M  V30 31 2 31 32
M  V30 32 1 17 2
M  V30 33 1 32 18
M  V30 34 1 16 11
M  V30 35 1 30 24
M  V30 36 1 1 33
M  V30 37 1 1 34
M  V30 38 1 5 35
M  V30 39 1 5 36
M  V30 40 1 8 37
M  V30 41 1 8 38
M  V30 42 1 10 39
M  V30 43 1 10 40
M  V30 44 1 12 41
M  V30 45 1 13 42
M  V30 46 1 14 43
M  V30 47 1 15 44
M  V30 48 1 16 45
M  V30 49 1 19 46
M  V30 50 1 20 47
M  V30 51 1 22 48
M  V30 52 1 23 49
M  V30 53 1 23 50
M  V30 54 1 25 51
M  V30 55 1 26 52
M  V30 56 1 29 53
M  V30 57 1 30 54
M  V30 58 1 31 55
M  V30 59 1 32 56
M  V30 END BOND
M  V30 END CTAB
M  END
