
     RDKit          3D

  0  0  0  0  0  0  0  0  0  0999 V3000
M  V30 BEGIN CTAB
M  V30 COUNTS 21 21 0 0 0
M  V30 BEGIN ATOM
M  V30 1 N -0.626956 -3.49204 1.03398 0
M  V30 2 C -0.631451 -2.38665 0.638115 0
M  V30 3 C -0.640594 -1.00156 0.159399 0
M  V30 4 C -1.79978 -0.399147 0.12833 0
M  V30 5 N -2.96032 -1.1236 0.562139 0
M  V30 6 N -2.06546 0.911923 -0.333575 0
M  V30 7 C 0.6546 -0.473224 -0.178553 0
M  V30 8 N 1.46785 -1.109 -1.08333 0
M  V30 9 C 2.62948 -0.462401 -1.2102 0
M  V30 10 C 2.58384 0.620537 -0.37381 0
M  V30 11 N 1.36765 0.577119 0.235334 0
M  V30 12 C 0.990052 1.55883 1.22451 0
M  V30 13 Cl 3.84363 1.84331 -0.123732 0
M  V30 14 H -3.22896 -2.03825 0.204711 0
M  V30 15 H -3.55331 -0.677178 1.28414 0
M  V30 16 H -2.00982 1.7001 0.334174 0
M  V30 17 H -2.31254 1.08598 -1.31486 0
M  V30 18 H 3.47794 -0.702497 -1.83343 0
M  V30 19 H 1.78103 1.58852 2.04204 0
M  V30 20 H -0.002514 1.41589 1.64529 0
M  V30 21 H 1.03562 2.56334 0.734779 0
M  V30 END ATOM
M  V30 BEGIN BOND
M  V30 1 3 1 2
M  V30 2 1 2 3
M  V30 3 2 3 4 CFG=2
M  V30 4 1 4 5
M  V30 5 1 4 6
M  V30 6 1 3 7
M  V30 7 2 7 8
M  V30 8 1 8 9
M  V30 9 2 9 10
M  V30 10 1 10 11
M  V30 11 1 11 12
M  V30 12 1 10 13
M  V30 13 1 11 7
M  V30 14 1 5 14
M  V30 15 1 5 15
M  V30 16 1 6 16
M  V30 17 1 6 17
M  V30 18 1 9 18
M  V30 19 1 12 19
M  V30 20 1 12 20
M  V30 21 1 12 21
M  V30 END BOND
M  V30 END CTAB
M  END
