
     RDKit          3D

  0  0  0  0  0  0  0  0  0  0999 V3000
M  V30 BEGIN CTAB
M  V30 COUNTS 51 54 0 0 0
M  V30 BEGIN ATOM
M  V30 1 N 1.56956 0.172944 3.25006 0
M  V30 2 C 1.85063 -0.60664 2.11208 0
M  V30 3 N 1.03033 -1.61132 1.80632 0
M  V30 4 C 1.29339 -2.35336 0.728633 0
M  V30 5 C 0.441988 -3.50624 0.282021 0
M  V30 6 S -0.773274 -2.88603 -0.896043 0
M  V30 7 C -1.93291 -1.83691 -0.0422936 0
M  V30 8 N -2.00584 -1.50315 1.25681 0
M  V30 9 N -3.03205 -0.69727 1.44292 0
M  V30 10 C -3.65224 -0.493283 0.238687 0
M  V30 11 N -2.98058 -1.18785 -0.660619 0
M  V30 12 N -3.21815 -1.30375 -2.02204 0
M  V30 13 C -4.82525 0.339629 0.0712856 0
M  V30 14 C -5.47074 0.594248 -1.09863 0
M  V30 15 C -6.60661 1.41169 -1.15623 0
M  V30 16 C -7.11361 1.99043 -0.0239573 0
M  V30 17 C -6.48396 1.74909 1.15471 0
M  V30 18 C -5.3835 0.956116 1.20513 0
M  V30 19 C -8.31207 2.85503 -0.065537 0
M  V30 20 N 2.36346 -2.08945 -0.0287225 0
M  V30 21 C 3.23914 -1.05412 0.256485 0
M  V30 22 N 2.91546 -0.368675 1.33095 0
M  V30 23 N 4.33048 -0.863029 -0.598324 0
M  V30 24 C 5.31575 0.116156 -0.48962 0
M  V30 25 C 5.35715 1.07007 0.473226 0
M  V30 26 C 6.35918 2.05442 0.56263 0
M  V30 27 C 7.3362 2.01844 -0.396089 0
M  V30 28 C 7.31633 1.05534 -1.38898 0
M  V30 29 C 6.33723 0.129489 -1.43838 0
M  V30 30 C 6.38596 -0.880184 -2.54457 0
M  V30 31 H 1.41589 1.19066 3.19287 0
M  V30 32 H 1.51434 -0.288052 4.17832 0
M  V30 33 H 1.10128 -4.28244 -0.153353 0
M  V30 34 H -0.0557555 -3.98094 1.15727 0
M  V30 35 H -3.74506 -2.09617 -2.45517 0
M  V30 36 H -2.87408 -0.581985 -2.72242 0
M  V30 37 H -5.13229 0.179704 -2.01647 0
M  V30 38 H -7.10664 1.60328 -2.09453 0
M  V30 39 H -6.89013 2.21165 2.0593 0
M  V30 40 H -4.90211 0.782355 2.16541 0
M  V30 41 H -8.6594 3.08329 0.959442 0
M  V30 42 H -9.14598 2.35965 -0.60623 0
M  V30 43 H -8.07398 3.8394 -0.543756 0
M  V30 44 H 4.42002 -1.55899 -1.44576 0
M  V30 45 H 4.61705 1.13919 1.24087 0
M  V30 46 H 6.33103 2.785 1.3561 0
M  V30 47 H 8.12178 2.76868 -0.349039 0
M  V30 48 H 8.1089 1.04743 -2.14408 0
M  V30 49 H 7.36874 -0.85483 -3.05135 0
M  V30 50 H 5.61341 -0.711149 -3.30495 0
M  V30 51 H 6.32156 -1.90757 -2.08743 0
M  V30 END ATOM
M  V30 BEGIN BOND
M  V30 1 1 1 2
M  V30 2 2 2 3
M  V30 3 1 3 4
M  V30 4 1 4 5
M  V30 5 1 5 6
M  V30 6 1 6 7
M  V30 7 2 7 8
M  V30 8 1 8 9
M  V30 9 2 9 10
M  V30 10 1 10 11
M  V30 11 1 11 12
M  V30 12 1 10 13
M  V30 13 2 13 14
M  V30 14 1 14 15
M  V30 15 2 15 16
M  V30 16 1 16 17
M  V30 17 2 17 18
M  V30 18 1 16 19
M  V30 19 2 4 20
M  V30 20 1 20 21
M  V30 21 2 21 22
M  V30 22 1 21 23
M  V30 23 1 23 24
M  V30 24 2 24 25
M  V30 25 1 25 26
M  V30 26 2 26 27
M  V30 27 1 27 28
M  V30 28 2 28 29
M  V30 29 1 29 30
M  V30 30 1 22 2
M  V30 31 1 29 24
M  V30 32 1 11 7
M  V30 33 1 18 13
M  V30 34 1 1 31
M  V30 35 1 1 32
M  V30 36 1 5 33
M  V30 37 1 5 34
M  V30 38 1 12 35
M  V30 39 1 12 36
M  V30 40 1 14 37
M  V30 41 1 15 38
M  V30 42 1 17 39
M  V30 43 1 18 40
M  V30 44 1 19 41
M  V30 45 1 19 42
M  V30 46 1 19 43
M  V30 47 1 23 44
M  V30 48 1 25 45
M  V30 49 1 26 46
M  V30 50 1 27 47
M  V30 51 1 28 48
M  V30 52 1 30 49
M  V30 53 1 30 50
M  V30 54 1 30 51
M  V30 END BOND
M  V30 END CTAB
M  END
