
     RDKit          3D

  0  0  0  0  0  0  0  0  0  0999 V3000
M  V30 BEGIN CTAB
M  V30 COUNTS 27 26 0 0 0
M  V30 BEGIN ATOM
M  V30 1 N -2.73126 0.304507 -1.50103 0
M  V30 2 C -2.79025 -0.566376 -0.347494 0
M  V30 3 C -3.50491 0.210291 0.763801 0
M  V30 4 O -4.76487 0.517526 0.277636 0
M  V30 5 C -1.36918 -0.88278 0.073177 0
M  V30 6 O -0.726187 0.314206 0.391156 0
M  V30 7 C 0.607479 0.246057 0.807744 0
M  V30 8 C 1.60981 0.193489 -0.0529319 0
M  V30 9 C 3.00148 0.122441 0.437257 0
M  V30 10 N 3.55499 -1.20858 0.337746 0
M  V30 11 C 3.79916 1.11025 -0.314027 0
M  V30 12 O 4.91723 0.704487 -0.992439 0
M  V30 13 O 3.45096 2.30701 -0.326719 0
M  V30 14 H -3.66494 0.533315 -1.88974 0
M  V30 15 H -2.18792 1.15339 -1.2091 0
M  V30 16 H -3.39632 -1.47164 -0.528119 0
M  V30 17 H -3.63519 -0.425735 1.66375 0
M  V30 18 H -2.88207 1.10038 0.968458 0
M  V30 19 H -5.06197 -0.108288 -0.447465 0
M  V30 20 H -0.865861 -1.29632 -0.837525 0
M  V30 21 H -1.31484 -1.65217 0.855519 0
M  V30 22 H 0.858795 0.234337 1.85772 0
M  V30 23 H 1.43011 0.201541 -1.11485 0
M  V30 24 H 3.07578 0.410182 1.51762 0
M  V30 25 H 2.76708 -1.86043 0.126421 0
M  V30 26 H 4.09078 -1.50028 1.17905 0
M  V30 27 H 5.73212 1.30917 -1.09387 0
M  V30 END ATOM
M  V30 BEGIN BOND
M  V30 1 1 1 2
M  V30 2 1 2 3
M  V30 3 1 3 4
M  V30 4 1 2 5
M  V30 5 1 5 6
M  V30 6 1 6 7
M  V30 7 2 7 8
M  V30 8 1 8 9
M  V30 9 1 9 10
M  V30 10 1 9 11
M  V30 11 1 11 12
M  V30 12 2 11 13
M  V30 13 1 1 14
M  V30 14 1 1 15
M  V30 15 1 2 16
M  V30 16 1 3 17
M  V30 17 1 3 18
M  V30 18 1 4 19
M  V30 19 1 5 20
M  V30 20 1 5 21
M  V30 21 1 7 22
M  V30 22 1 8 23
M  V30 23 1 9 24
M  V30 24 1 10 25
M  V30 25 1 10 26
M  V30 26 1 12 27
M  V30 END BOND
M  V30 END CTAB
M  END
