
     RDKit          3D

  0  0  0  0  0  0  0  0  0  0999 V3000
M  V30 BEGIN CTAB
M  V30 COUNTS 42 45 0 0 0
M  V30 BEGIN ATOM
M  V30 1 N -6.29589 0.220971 -1.65948 0
M  V30 2 N -5.29149 -0.00997176 -0.728006 0
M  V30 3 C -5.59971 -0.533301 0.467065 0
M  V30 4 C -7.041 -0.854161 0.768615 0
M  V30 5 N -4.62237 -0.758208 1.36214 0
M  V30 6 C -3.3195 -0.46496 1.08144 0
M  V30 7 C -3.02486 0.0719276 -0.151947 0
M  V30 8 C -4.02981 0.312919 -1.09711 0
M  V30 9 O -3.76739 0.797066 -2.21055 0
M  V30 10 C -1.70828 0.3757 -0.466147 0
M  V30 11 C -0.722385 0.13308 0.463105 0
M  V30 12 C -1.03348 -0.410676 1.70731 0
M  V30 13 C -2.34728 -0.718864 2.03406 0
M  V30 14 C 0.660155 0.456296 0.132562 0
M  V30 15 C 0.984689 1.51496 -0.684134 0
M  V30 16 C 2.30756 1.79231 -0.992731 0
M  V30 17 C 3.32379 1.0101 -0.485223 0
M  V30 18 C 3.02482 -0.0529119 0.33292 0
M  V30 19 C 1.69967 -0.322354 0.635922 0
M  V30 20 C 4.03828 -0.841702 0.842739 0
M  V30 21 O 3.76071 -1.81419 1.59115 0
M  V30 22 N 5.31932 -0.592365 0.555464 0
M  V30 23 C 5.61975 0.461722 -0.256126 0
M  V30 24 N 4.62282 1.22714 -0.749916 0
M  V30 25 C 7.03826 0.773311 -0.599987 0
M  V30 26 N 6.35763 -1.38008 1.06158 0
M  V30 27 H -6.38737 -0.286427 -2.55777 0
M  V30 28 H -7.00669 0.952487 -1.44654 0
M  V30 29 H -7.62396 -0.922197 -0.160144 0
M  V30 30 H -7.46655 -0.103856 1.44804 0
M  V30 31 H -7.08876 -1.84502 1.25809 0
M  V30 32 H -1.52344 0.793321 -1.44286 0
M  V30 33 H -0.238396 -0.588651 2.41174 0
M  V30 34 H -2.59789 -1.14654 3.0136 0
M  V30 35 H 0.20267 2.1617 -1.10761 0
M  V30 36 H 2.60916 2.61572 -1.63064 0
M  V30 37 H 1.50887 -1.17149 1.28534 0
M  V30 38 H 7.54603 1.38107 0.16999 0
M  V30 39 H 7.00327 1.31794 -1.58609 0
M  V30 40 H 7.58985 -0.173912 -0.843051 0
M  V30 41 H 6.91352 -1.94109 0.392459 0
M  V30 42 H 6.6057 -1.43681 2.06854 0
M  V30 END ATOM
M  V30 BEGIN BOND
M  V30 1 1 1 2
M  V30 2 1 2 3
M  V30 3 1 3 4
M  V30 4 2 3 5
M  V30 5 1 5 6
M  V30 6 2 6 7
M  V30 7 1 7 8
M  V30 8 2 8 9
M  V30 9 1 7 10
M  V30 10 2 10 11
M  V30 11 1 11 12
M  V30 12 2 12 13
M  V30 13 1 11 14
M  V30 14 2 14 15
M  V30 15 1 15 16
M  V30 16 2 16 17
M  V30 17 1 17 18
M  V30 18 2 18 19
M  V30 19 1 18 20
M  V30 20 2 20 21
M  V30 21 1 20 22
M  V30 22 1 22 23
M  V30 23 2 23 24
M  V30 24 1 23 25
M  V30 25 1 22 26
M  V30 26 1 8 2
M  V30 27 1 19 14
M  V30 28 1 13 6
M  V30 29 1 24 17
M  V30 30 1 1 27
M  V30 31 1 1 28
M  V30 32 1 4 29
M  V30 33 1 4 30
M  V30 34 1 4 31
M  V30 35 1 10 32
M  V30 36 1 12 33
M  V30 37 1 13 34
M  V30 38 1 15 35
M  V30 39 1 16 36
M  V30 40 1 19 37
M  V30 41 1 25 38
M  V30 42 1 25 39
M  V30 43 1 25 40
M  V30 44 1 26 41
M  V30 45 1 26 42
M  V30 END BOND
M  V30 END CTAB
M  END
