
     RDKit          3D

  0  0  0  0  0  0  0  0  0  0999 V3000
M  V30 BEGIN CTAB
M  V30 COUNTS 47 50 0 0 0
M  V30 BEGIN ATOM
M  V30 1 C 6.05349 1.35138 0.861809 0
M  V30 2 S 6.19336 -0.325563 0.272467 0
M  V30 3 O 6.56985 -0.291578 -1.18651 0
M  V30 4 O 7.34708 -0.947537 1.00131 0
M  V30 5 N 4.78478 -1.23355 0.574504 0
M  V30 6 C 3.50282 -0.88175 0.012289 0
M  V30 7 C 3.35694 -0.524039 -1.30933 0
M  V30 8 C 2.09674 -0.194596 -1.7974 0
M  V30 9 C 0.970402 -0.210259 -1.00599 0
M  V30 10 N -0.318846 0.132527 -1.52808 0
M  V30 11 C -1.48772 0.131351 -0.766498 0
M  V30 12 C -1.87761 1.27206 -0.102473 0
M  V30 13 C -1.15659 2.44622 -0.150643 0
M  V30 14 C -1.57214 3.5672 0.523022 0
M  V30 15 C -2.73882 3.547 1.27634 0
M  V30 16 N -3.13618 4.72459 1.95848 0
M  V30 17 C -3.44124 2.36893 1.31098 0
M  V30 18 C -3.03832 1.23341 0.640323 0
M  V30 19 N -3.80118 0.135502 0.743163 0
M  V30 20 C -3.40447 -0.988276 0.0807695 0
M  V30 21 C -2.24884 -1.009 -0.680043 0
M  V30 22 C -1.92036 -2.1849 -1.31669 0
M  V30 23 C -2.70238 -3.3174 -1.21379 0
M  V30 24 C -3.86346 -3.31502 -0.456021 0
M  V30 25 N -4.68088 -4.47221 -0.338913 0
M  V30 26 C -4.16742 -2.12662 0.169138 0
M  V30 27 C 1.12249 -0.568766 0.314742 0
M  V30 28 C 2.37581 -0.898113 0.806895 0
M  V30 29 H 5.55024 2.00845 0.140881 0
M  V30 30 H 5.5901 1.33408 1.86369 0
M  V30 31 H 7.11127 1.73182 0.95135 0
M  V30 32 H 4.845 -2.07591 1.18766 0
M  V30 33 H 4.23165 -0.509325 -1.93413 0
M  V30 34 H 2.00006 0.0798937 -2.82142 0
M  V30 35 H -0.398499 0.401789 -2.54241 0
M  V30 36 H -0.242726 2.50784 -0.724261 0
M  V30 37 H -0.977898 4.47556 0.462007 0
M  V30 38 H -2.40138 5.32313 2.38809 0
M  V30 39 H -4.12737 5.02783 2.05548 0
M  V30 40 H -4.3611 2.38175 1.91524 0
M  V30 41 H -0.998259 -2.19365 -1.92095 0
M  V30 42 H -2.40248 -4.21082 -1.73032 0
M  V30 43 H -4.2102 -5.39867 -0.257038 0
M  V30 44 H -5.72426 -4.43346 -0.331528 0
M  V30 45 H -5.07071 -2.09212 0.7704 0
M  V30 46 H 0.276654 -0.598259 0.979259 0
M  V30 47 H 2.49259 -1.18092 1.85081 0
M  V30 END ATOM
M  V30 BEGIN BOND
M  V30 1 1 1 2
M  V30 2 2 2 3
M  V30 3 2 2 4
M  V30 4 1 2 5
M  V30 5 1 5 6
M  V30 6 2 6 7
M  V30 7 1 7 8
M  V30 8 2 8 9
M  V30 9 1 9 10
M  V30 10 1 10 11
M  V30 11 1 11 12
M  V30 12 2 12 13
M  V30 13 1 13 14
M  V30 14 2 14 15
M  V30 15 1 15 16
M  V30 16 1 15 17
M  V30 17 2 17 18
M  V30 18 1 18 19
M  V30 19 2 19 20
M  V30 20 1 20 21
M  V30 21 1 21 22
M  V30 22 2 22 23
M  V30 23 1 23 24
M  V30 24 1 24 25
M  V30 25 2 24 26
M  V30 26 1 9 27
M  V30 27 2 27 28
M  V30 28 1 28 6
M  V30 29 2 21 11
M  V30 30 1 18 12
M  V30 31 1 26 20
M  V30 32 1 1 29
M  V30 33 1 1 30
M  V30 34 1 1 31
M  V30 35 1 5 32
M  V30 36 1 7 33
M  V30 37 1 8 34
M  V30 38 1 10 35
M  V30 39 1 13 36
M  V30 40 1 14 37
M  V30 41 1 16 38
M  V30 42 1 16 39
M  V30 43 1 17 40
M  V30 44 1 22 41
M  V30 45 1 23 42
M  V30 46 1 25 43
M  V30 47 1 25 44
M  V30 48 1 26 45
M  V30 49 1 27 46
M  V30 50 1 28 47
M  V30 END BOND
M  V30 END CTAB
M  END
