
     RDKit          3D

  0  0  0  0  0  0  0  0  0  0999 V3000
M  V30 BEGIN CTAB
M  V30 COUNTS 29 29 0 0 0
M  V30 BEGIN ATOM
M  V30 1 N 3.31881 -0.218767 -0.955012 0
M  V30 2 C 2.60023 0.958702 -0.586668 0
M  V30 3 N 1.34859 0.86532 -0.290574 0
M  V30 4 C 0.638319 -0.393888 -0.316892 0
M  V30 5 C -0.430293 -0.481945 0.740342 0
M  V30 6 O 0.0419793 -0.356841 2.02561 0
M  V30 7 C -1.06453 -1.87379 0.640217 0
M  V30 8 C -2.10175 -1.74197 -0.4607 0
M  V30 9 C -2.28927 -0.257318 -0.664896 0
M  V30 10 C -1.5946 0.414962 0.506131 0
M  V30 11 C -1.26294 1.81383 0.10197 0
M  V30 12 N 3.30085 2.18564 -0.563154 0
M  V30 13 H 4.20384 -0.514665 -0.487545 0
M  V30 14 H 2.98058 -0.842541 -1.72167 0
M  V30 15 H 1.38699 -1.19953 -0.173807 0
M  V30 16 H 0.164916 -0.585474 -1.29907 0
M  V30 17 H -0.482173 -0.858818 2.695 0
M  V30 18 H -0.303577 -2.64678 0.406449 0
M  V30 19 H -1.56444 -2.11147 1.60611 0
M  V30 20 H -3.03825 -2.20656 -0.126552 0
M  V30 21 H -1.75149 -2.25139 -1.38749 0
M  V30 22 H -3.37233 0.0281819 -0.578596 0
M  V30 23 H -1.89446 0.0786133 -1.62234 0
M  V30 24 H -2.25643 0.355464 1.38954 0
M  V30 25 H -2.23485 2.38973 0.14296 0
M  V30 26 H -0.527179 2.32053 0.740567 0
M  V30 27 H -0.94067 1.88196 -0.950588 0
M  V30 28 H 2.82178 3.06134 -0.796961 0
M  V30 29 H 4.30236 2.18748 -0.307082 0
M  V30 END ATOM
M  V30 BEGIN BOND
M  V30 1 1 1 2
M  V30 2 2 2 3 CFG=2
M  V30 3 1 3 4
M  V30 4 1 4 5
M  V30 5 1 5 6
M  V30 6 1 5 7
M  V30 7 1 7 8
M  V30 8 1 8 9
M  V30 9 1 9 10
M  V30 10 1 10 11
M  V30 11 1 2 12
M  V30 12 1 10 5
M  V30 13 1 1 13
M  V30 14 1 1 14
M  V30 15 1 4 15
M  V30 16 1 4 16
M  V30 17 1 6 17
M  V30 18 1 7 18
M  V30 19 1 7 19
M  V30 20 1 8 20
M  V30 21 1 8 21
M  V30 22 1 9 22
M  V30 23 1 9 23
M  V30 24 1 10 24
M  V30 25 1 11 25
M  V30 26 1 11 26
M  V30 27 1 11 27
M  V30 28 1 12 28
M  V30 29 1 12 29
M  V30 END BOND
M  V30 END CTAB
M  END
