
     RDKit          3D

  0  0  0  0  0  0  0  0  0  0999 V3000
M  V30 BEGIN CTAB
M  V30 COUNTS 22 23 0 0 0
M  V30 BEGIN ATOM
M  V30 1 Cl -5.47339 0.0546951 0.261371 0
M  V30 2 C -3.74401 0.167237 -0.0126703 0
M  V30 3 C -3.285 0.880426 -1.09425 0
M  V30 4 C -1.90643 0.973657 -1.31795 0
M  V30 5 C -0.991532 0.368035 -0.480939 0
M  V30 6 C -1.45924 -0.351345 0.610317 0
M  V30 7 C -2.82138 -0.435594 0.819729 0
M  V30 8 N -0.36301 -0.818432 1.23146 0
M  V30 9 C 0.76634 -0.437004 0.597841 0
M  V30 10 N 0.351536 0.293239 -0.454356 0
M  V30 11 N 2.09781 -0.756635 0.986541 0
M  V30 12 C 3.10071 -0.324264 0.28552 0
M  V30 13 N 4.43569 -0.627805 0.650259 0
M  V30 14 N 2.88788 0.468576 -0.871794 0
M  V30 15 H -3.95698 1.37335 -1.78004 0
M  V30 16 H -1.52653 1.53215 -2.16618 0
M  V30 17 H -3.17501 -0.995276 1.66809 0
M  V30 18 H -0.413248 -1.404 2.09911 0
M  V30 19 H 4.9413 -0.0684783 1.36247 0
M  V30 20 H 4.91873 -1.42762 0.19482 0
M  V30 21 H 2.64855 1.47368 -0.765161 0
M  V30 22 H 2.96721 0.0614077 -1.8242 0
M  V30 END ATOM
M  V30 BEGIN BOND
M  V30 1 1 1 2
M  V30 2 2 2 3
M  V30 3 1 3 4
M  V30 4 2 4 5
M  V30 5 1 5 6
M  V30 6 2 6 7
M  V30 7 1 6 8
M  V30 8 1 8 9
M  V30 9 2 9 10
M  V30 10 1 9 11
M  V30 11 2 11 12 CFG=2
M  V30 12 1 12 13
M  V30 13 1 12 14
M  V30 14 1 7 2
M  V30 15 1 10 5
M  V30 16 1 3 15
M  V30 17 1 4 16
M  V30 18 1 7 17
M  V30 19 1 8 18
M  V30 20 1 13 19
M  V30 21 1 13 20
M  V30 22 1 14 21
M  V30 23 1 14 22
M  V30 END BOND
M  V30 END CTAB
M  END
