
     RDKit          3D

  0  0  0  0  0  0  0  0  0  0999 V3000
M  V30 BEGIN CTAB
M  V30 COUNTS 26 26 0 0 0
M  V30 BEGIN ATOM
M  V30 1 O 3.24355 0.747694 -1.65666 0
M  V30 2 C 2.2672 0.76037 -0.65663 0
M  V30 3 C 1.84998 -0.644471 -0.280325 0
M  V30 4 N 0.85254 -0.64692 0.731042 0
M  V30 5 C -0.499827 -0.228381 0.59017 0
M  V30 6 C -1.06999 0.198748 -0.582711 0
M  V30 7 C -2.38446 0.599262 -0.619036 0
M  V30 8 N -2.97438 1.03917 -1.82067 0
M  V30 9 N -3.13358 0.579412 0.490716 0
M  V30 10 C -2.59381 0.162799 1.65447 0
M  V30 11 N -1.30778 -0.225059 1.67308 0
M  V30 12 N -3.41789 0.154525 2.81229 0
M  V30 13 C 3.1156 -1.33451 0.209627 0
M  V30 14 H 3.12256 -0.0350496 -2.25849 0
M  V30 15 H 2.80059 1.17276 0.252113 0
M  V30 16 H 1.44787 1.39289 -0.962614 0
M  V30 17 H 1.47203 -1.17946 -1.19822 0
M  V30 18 H 1.16006 -1.00042 1.69056 0
M  V30 19 H -0.486177 0.210786 -1.48691 0
M  V30 20 H -3.35146 2.0034 -1.86335 0
M  V30 21 H -3.0465 0.43899 -2.6621 0
M  V30 22 H -3.78681 1.02952 3.23241 0
M  V30 23 H -3.65264 -0.764009 3.2445 0
M  V30 24 H 3.1039 -2.41897 0.0135956 0
M  V30 25 H 3.24797 -1.07466 1.27714 0
M  V30 26 H 4.02147 -0.938404 -0.31385 0
M  V30 END ATOM
M  V30 BEGIN BOND
M  V30 1 1 1 2
M  V30 2 1 2 3
M  V30 3 1 3 4
M  V30 4 1 4 5
M  V30 5 2 5 6
M  V30 6 1 6 7
M  V30 7 1 7 8
M  V30 8 2 7 9
M  V30 9 1 9 10
M  V30 10 2 10 11
M  V30 11 1 10 12
M  V30 12 1 3 13
M  V30 13 1 11 5
M  V30 14 1 1 14
M  V30 15 1 2 15
M  V30 16 1 2 16
M  V30 17 1 3 17
M  V30 18 1 4 18
M  V30 19 1 6 19
M  V30 20 1 8 20
M  V30 21 1 8 21
M  V30 22 1 12 22
M  V30 23 1 12 23
M  V30 24 1 13 24
M  V30 25 1 13 25
M  V30 26 1 13 26
M  V30 END BOND
M  V30 END CTAB
M  END
