
     RDKit          3D

  0  0  0  0  0  0  0  0  0  0999 V3000
M  V30 BEGIN CTAB
M  V30 COUNTS 28 29 0 0 0
M  V30 BEGIN ATOM
M  V30 1 N 5.20661 0.841312 -0.451999 0
M  V30 2 C 3.7683 0.747223 -0.43366 0
M  V30 3 N 3.01837 1.50303 -1.26259 0
M  V30 4 C 1.6741 1.45805 -1.29025 0
M  V30 5 C 0.978639 0.614105 -0.449627 0
M  V30 6 C 1.73859 -0.166102 0.405272 0
M  V30 7 C 3.1163 -0.112224 0.425517 0
M  V30 8 N 3.86932 -0.925993 1.315 0
M  V30 9 O -0.409044 0.574918 -0.485727 0
M  V30 10 C -1.06241 -0.314656 0.404714 0
M  V30 11 C -2.53756 -0.236486 0.241574 0
M  V30 12 C -3.13049 -1.07998 -0.674773 0
M  V30 13 C -4.51778 -1.01628 -0.837727 0
M  V30 14 C -5.25893 -0.128743 -0.0948214 0
M  V30 15 C -4.62979 0.693047 0.806295 0
M  V30 16 N -3.2936 0.623063 0.954851 0
M  V30 17 H 5.65247 0.791203 -1.39265 0
M  V30 18 H 5.78063 0.950861 0.389798 0
M  V30 19 H 1.07213 2.07169 -1.96287 0
M  V30 20 H 1.18045 -0.832452 1.06851 0
M  V30 21 H 4.61415 -0.51405 1.92739 0
M  V30 22 H 3.72908 -1.957 1.40922 0
M  V30 23 H -0.686875 -1.33029 0.163045 0
M  V30 24 H -0.811706 -0.121807 1.45751 0
M  V30 25 H -2.5582 -1.78576 -1.26832 0
M  V30 26 H -4.98394 -1.66866 -1.54769 0
M  V30 27 H -6.32241 -0.0740231 -0.214007 0
M  V30 28 H -5.19642 1.39599 1.39801 0
M  V30 END ATOM
M  V30 BEGIN BOND
M  V30 1 1 1 2
M  V30 2 2 2 3
M  V30 3 1 3 4
M  V30 4 2 4 5
M  V30 5 1 5 6
M  V30 6 2 6 7
M  V30 7 1 7 8
M  V30 8 1 5 9
M  V30 9 1 9 10
M  V30 10 1 10 11
M  V30 11 2 11 12
M  V30 12 1 12 13
M  V30 13 2 13 14
M  V30 14 1 14 15
M  V30 15 2 15 16
M  V30 16 1 7 2
M  V30 17 1 16 11
M  V30 18 1 1 17
M  V30 19 1 1 18
M  V30 20 1 4 19
M  V30 21 1 6 20
M  V30 22 1 8 21
M  V30 23 1 8 22
M  V30 24 1 10 23
M  V30 25 1 10 24
M  V30 26 1 12 25
M  V30 27 1 13 26
M  V30 28 1 14 27
M  V30 29 1 15 28
M  V30 END BOND
M  V30 END CTAB
M  END
