
     RDKit          3D

  0  0  0  0  0  0  0  0  0  0999 V3000
M  V30 BEGIN CTAB
M  V30 COUNTS 44 46 0 0 0
M  V30 BEGIN ATOM
M  V30 1 N -2.95023 -2.83816 1.12642 0
M  V30 2 C -3.59329 -1.59504 0.859652 0
M  V30 3 S -5.18615 -1.51591 1.06222 0
M  V30 4 N -2.86831 -0.406316 0.457404 0
M  V30 5 C -3.64429 0.745855 0.221578 0
M  V30 6 C -4.67896 0.54845 -0.703697 0
M  V30 7 C -5.5378 1.57059 -0.989515 0
M  V30 8 C -5.4431 2.81825 -0.406354 0
M  V30 9 C -4.41684 2.97762 0.495621 0
M  V30 10 C -3.53508 1.96466 0.805077 0
M  V30 11 C -1.45937 -0.544622 0.455001 0
M  V30 12 C -0.571456 0.253476 1.09337 0
M  V30 13 C 0.789955 0.0500364 0.967578 0
M  V30 14 C 1.30253 -0.973463 0.18846 0
M  V30 15 C 0.389753 -1.75656 -0.439205 0
M  V30 16 C -0.969908 -1.58487 -0.338558 0
M  V30 17 N 2.71871 -1.13477 0.0686209 0
M  V30 18 C 3.30624 -2.40967 0.232668 0
M  V30 19 N 4.7104 -2.6146 0.10316 0
M  V30 20 S 2.39745 -3.72293 0.609706 0
M  V30 21 C 3.5234 -0.00566872 -0.187589 0
M  V30 22 C 4.6755 0.230303 0.505477 0
M  V30 23 C 5.4751 1.34176 0.240664 0
M  V30 24 C 5.10186 2.23138 -0.743485 0
M  V30 25 C 3.94136 2.00563 -1.45034 0
M  V30 26 C 3.16414 0.891886 -1.167 0
M  V30 27 H -2.27893 -2.86761 1.93523 0
M  V30 28 H -3.12842 -3.68672 0.553624 0
M  V30 29 H -4.81446 -0.395709 -1.23095 0
M  V30 30 H -6.35219 1.40131 -1.72223 0
M  V30 31 H -6.14803 3.60783 -0.661367 0
M  V30 32 H -4.31487 3.96024 0.97662 0
M  V30 33 H -2.75214 2.15822 1.54485 0
M  V30 34 H -0.914446 1.07485 1.74596 0
M  V30 35 H 1.45153 0.736216 1.51312 0
M  V30 36 H 0.751465 -2.5687 -1.07903 0
M  V30 37 H -1.6409 -2.25282 -0.894195 0
M  V30 38 H 5.23511 -2.9651 0.920761 0
M  V30 39 H 5.19819 -2.41865 -0.786436 0
M  V30 40 H 5.02207 -0.407375 1.28604 0
M  V30 41 H 6.38947 1.54016 0.781461 0
M  V30 42 H 5.72326 3.09453 -0.948802 0
M  V30 43 H 3.6784 2.72628 -2.21728 0
M  V30 44 H 2.25327 0.735749 -1.73835 0
M  V30 END ATOM
M  V30 BEGIN BOND
M  V30 1 1 1 2
M  V30 2 2 2 3
M  V30 3 1 2 4
M  V30 4 1 4 5
M  V30 5 2 5 6
M  V30 6 1 6 7
M  V30 7 2 7 8
M  V30 8 1 8 9
M  V30 9 2 9 10
M  V30 10 1 4 11
M  V30 11 2 11 12
M  V30 12 1 12 13
M  V30 13 2 13 14
M  V30 14 1 14 15
M  V30 15 2 15 16
M  V30 16 1 14 17
M  V30 17 1 17 18
M  V30 18 1 18 19
M  V30 19 2 18 20
M  V30 20 1 17 21
M  V30 21 2 21 22
M  V30 22 1 22 23
M  V30 23 2 23 24
M  V30 24 1 24 25
M  V30 25 2 25 26
M  V30 26 1 10 5
M  V30 27 1 16 11
M  V30 28 1 26 21
M  V30 29 1 1 27
M  V30 30 1 1 28
M  V30 31 1 6 29
M  V30 32 1 7 30
M  V30 33 1 8 31
M  V30 34 1 9 32
M  V30 35 1 10 33
M  V30 36 1 12 34
M  V30 37 1 13 35
M  V30 38 1 15 36
M  V30 39 1 16 37
M  V30 40 1 19 38
M  V30 41 1 19 39
M  V30 42 1 22 40
M  V30 43 1 23 41
M  V30 44 1 24 42
M  V30 45 1 25 43
M  V30 46 1 26 44
M  V30 END BOND
M  V30 END CTAB
M  END
