
     RDKit          3D

  0  0  0  0  0  0  0  0  0  0999 V3000
M  V30 BEGIN CTAB
M  V30 COUNTS 17 17 0 0 0
M  V30 BEGIN ATOM
M  V30 1 N 3.83717 0.659001 0.380072 0
M  V30 2 C 2.59325 -0.00802036 0.224617 0
M  V30 3 N 2.32564 -1.18487 -0.303867 0
M  V30 4 N 1.17188 -1.64134 -0.401778 0
M  V30 5 C 0.148706 -0.866829 0.0578856 0
M  V30 6 S 0.961432 0.486278 0.614023 0
M  V30 7 C -1.29703 -1.18491 -0.0622833 0
M  V30 8 F -1.45028 -2.33157 -0.779472 0
M  V30 9 F -1.69838 -1.45213 1.28465 0
M  V30 10 S -2.2227 0.120441 -0.774139 0
M  V30 11 N -2.26131 1.53619 0.211645 0
M  V30 12 O -1.40855 0.597979 -2.02329 0
M  V30 13 O -3.55984 -0.280757 -1.2686 0
M  V30 14 H 4.03164 1.33405 -0.459295 0
M  V30 15 H 4.49946 0.554989 1.07783 0
M  V30 16 H -2.82746 2.26809 -0.334917 0
M  V30 17 H -2.84361 1.39341 1.10856 0
M  V30 END ATOM
M  V30 BEGIN BOND
M  V30 1 1 1 2
M  V30 2 2 2 3
M  V30 3 1 3 4
M  V30 4 2 4 5
M  V30 5 1 5 6
M  V30 6 1 5 7
M  V30 7 1 7 8
M  V30 8 1 7 9
M  V30 9 1 7 10
M  V30 10 1 10 11
M  V30 11 2 10 12
M  V30 12 2 10 13
M  V30 13 1 6 2
M  V30 14 1 1 14
M  V30 15 1 1 15
M  V30 16 1 11 16
M  V30 17 1 11 17
M  V30 END BOND
M  V30 END CTAB
M  END
