
     RDKit          3D

  0  0  0  0  0  0  0  0  0  0999 V3000
M  V30 BEGIN CTAB
M  V30 COUNTS 24 25 0 0 0
M  V30 BEGIN ATOM
M  V30 1 N 2.3669 2.33064 -1.56528 0
M  V30 2 C 2.03814 1.12431 -0.883647 0
M  V30 3 N 0.772104 0.740127 -0.660096 0
M  V30 4 C 0.448057 -0.39457 -0.0188905 0
M  V30 5 N 1.46186 -1.16633 0.410336 0
M  V30 6 C 2.76072 -0.81498 0.205106 0
M  V30 7 N 3.03596 0.332195 -0.442857 0
M  V30 8 N 3.85768 -1.59957 0.641108 0
M  V30 9 C -0.942187 -0.798284 0.21638 0
M  V30 10 C -1.69456 0.290096 0.988728 0
M  V30 11 C -3.13958 -0.211168 0.886424 0
M  V30 12 C -3.46716 -0.0627787 -0.605618 0
M  V30 13 S -1.93003 -0.770022 -1.32904 0
M  V30 14 H 1.99875 3.21552 -1.14435 0
M  V30 15 H 2.94423 2.29512 -2.43245 0
M  V30 16 H 4.7253 -1.6263 0.0689974 0
M  V30 17 H 3.7761 -2.13586 1.52685 0
M  V30 18 H -1.0625 -1.73674 0.745878 0
M  V30 19 H -1.66381 1.25169 0.446122 0
M  V30 20 H -1.3931 0.360985 2.02525 0
M  V30 21 H -3.82081 0.392993 1.51104 0
M  V30 22 H -3.13814 -1.28652 1.13291 0
M  V30 23 H -4.33734 -0.713206 -0.838898 0
M  V30 24 H -3.59658 0.982643 -0.883994 0
M  V30 END ATOM
M  V30 BEGIN BOND
M  V30 1 1 1 2
M  V30 2 2 2 3
M  V30 3 1 3 4
M  V30 4 2 4 5
M  V30 5 1 5 6
M  V30 6 2 6 7
M  V30 7 1 6 8
M  V30 8 1 4 9
M  V30 9 1 9 10
M  V30 10 1 10 11
M  V30 11 1 11 12
M  V30 12 1 12 13
M  V30 13 1 7 2
M  V30 14 1 13 9
M  V30 15 1 1 14
M  V30 16 1 1 15
M  V30 17 1 8 16
M  V30 18 1 8 17
M  V30 19 1 9 18
M  V30 20 1 10 19
M  V30 21 1 10 20
M  V30 22 1 11 21
M  V30 23 1 11 22
M  V30 24 1 12 23
M  V30 25 1 12 24
M  V30 END BOND
M  V30 END CTAB
M  END
