
     RDKit          3D

  0  0  0  0  0  0  0  0  0  0999 V3000
M  V30 BEGIN CTAB
M  V30 COUNTS 37 39 0 0 0
M  V30 BEGIN ATOM
M  V30 1 C 6.76179 0.935796 0.292424 0
M  V30 2 O 6.24026 -0.230532 -0.287066 0
M  V30 3 C 4.86986 -0.516142 -0.2687 0
M  V30 4 C 4.37911 -1.66795 -0.843918 0
M  V30 5 C 3.04362 -1.97061 -0.839726 0
M  V30 6 C 2.11962 -1.10015 -0.238323 0
M  V30 7 C 2.61221 0.034253 0.32765 0
M  V30 8 C 3.97546 0.346817 0.325061 0
M  V30 9 C 0.719665 -1.42714 -0.212951 0
M  V30 10 O 0.442261 -2.66722 -0.169992 0
M  V30 11 C -0.375899 -0.466839 -0.235112 0
M  V30 12 S -0.284197 1.23204 -0.349351 0
M  V30 13 C -1.94566 1.60602 -0.34462 0
M  V30 14 C -2.53738 0.380747 -0.252791 0
M  V30 15 C -1.72372 -0.69852 -0.195653 0
M  V30 16 N -2.18881 -2.06939 -0.0959269 0
M  V30 17 C -3.94662 0.410298 -0.230091 0
M  V30 18 S -4.93254 -1.07308 -0.114265 0
M  V30 19 C -5.25616 -1.51154 1.61454 0
M  V30 20 N -4.57849 1.56842 -0.296038 0
M  V30 21 C -4.01673 2.76701 -0.385509 0
M  V30 22 N -2.65266 2.77649 -0.410031 0
M  V30 23 N -4.7875 3.94474 -0.450324 0
M  V30 24 H 7.84681 0.76079 0.456555 0
M  V30 25 H 6.63979 1.82987 -0.381848 0
M  V30 26 H 6.30514 1.21087 1.25529 0
M  V30 27 H 5.11086 -2.32966 -1.30487 0
M  V30 28 H 2.64815 -2.86888 -1.28673 0
M  V30 29 H 1.99216 0.752303 0.821789 0
M  V30 30 H 4.32318 1.24698 0.77912 0
M  V30 31 H -2.24248 -2.44958 0.868993 0
M  V30 32 H -2.45312 -2.6505 -0.88977 0
M  V30 33 H -4.72927 -0.804209 2.28478 0
M  V30 34 H -4.88299 -2.55733 1.7748 0
M  V30 35 H -6.3567 -1.50567 1.75472 0
M  V30 36 H -4.55603 4.74344 0.160461 0
M  V30 37 H -5.58301 4.01806 -1.10336 0
M  V30 END ATOM
M  V30 BEGIN BOND
M  V30 1 1 1 2
M  V30 2 1 2 3
M  V30 3 2 3 4
M  V30 4 1 4 5
M  V30 5 2 5 6
M  V30 6 1 6 7
M  V30 7 2 7 8
M  V30 8 1 6 9
M  V30 9 2 9 10
M  V30 10 1 9 11
M  V30 11 1 11 12
M  V30 12 1 12 13
M  V30 13 2 13 14
M  V30 14 1 14 15
M  V30 15 1 15 16
M  V30 16 1 14 17
M  V30 17 1 17 18
M  V30 18 1 18 19
M  V30 19 2 17 20
M  V30 20 1 20 21
M  V30 21 2 21 22
M  V30 22 1 21 23
M  V30 23 1 8 3
M  V30 24 2 15 11
M  V30 25 1 22 13
M  V30 26 1 1 24
M  V30 27 1 1 25
M  V30 28 1 1 26
M  V30 29 1 4 27
M  V30 30 1 5 28
M  V30 31 1 7 29
M  V30 32 1 8 30
M  V30 33 1 16 31
M  V30 34 1 16 32
M  V30 35 1 19 33
M  V30 36 1 19 34
M  V30 37 1 19 35
M  V30 38 1 23 36
M  V30 39 1 23 37
M  V30 END BOND
M  V30 END CTAB
M  END
