
     RDKit          3D

  0  0  0  0  0  0  0  0  0  0999 V3000
M  V30 BEGIN CTAB
M  V30 COUNTS 29 30 0 0 0
M  V30 BEGIN ATOM
M  V30 1 C 5.12124 -0.567619 0.0622824 0
M  V30 2 O 3.87805 -0.362678 0.661956 0
M  V30 3 C 2.90604 -0.396957 -0.305 0
M  V30 4 C 2.00579 0.814663 -0.269531 0
M  V30 5 N 0.827383 -0.00601099 -0.0921045 0
M  V30 6 C 1.65411 -1.17206 0.0216143 0
M  V30 7 C -0.563202 0.270113 -0.0532167 0
M  V30 8 C -1.07224 1.54928 -0.200453 0
M  V30 9 C -2.42189 1.83728 -0.165528 0
M  V30 10 C -3.31191 0.809799 0.0243319 0
M  V30 11 C -2.86063 -0.484596 0.17684 0
M  V30 12 C -1.50543 -0.738153 0.136891 0
M  V30 13 N -3.83398 -1.50302 0.370065 0
M  V30 14 N -4.694 1.08185 0.0632255 0
M  V30 15 H 5.36761 0.196713 -0.694121 0
M  V30 16 H 5.15162 -1.59197 -0.39563 0
M  V30 17 H 5.89574 -0.556696 0.855333 0
M  V30 18 H 3.30438 -0.576243 -1.33571 0
M  V30 19 H 1.99057 1.37711 -1.22684 0
M  V30 20 H 2.20616 1.526 0.56576 0
M  V30 21 H 1.42055 -1.90148 -0.786669 0
M  V30 22 H 1.64955 -1.67786 1.00668 0
M  V30 23 H -0.37362 2.34862 -0.348499 0
M  V30 24 H -2.77827 2.85211 -0.284959 0
M  V30 25 H -1.14383 -1.73383 0.253405 0
M  V30 26 H -4.52773 -1.44092 1.1383 0
M  V30 27 H -3.79686 -2.31131 -0.315157 0
M  V30 28 H -5.07887 2.0464 0.138628 0
M  V30 29 H -5.41632 0.31148 0.0172555 0
M  V30 END ATOM
M  V30 BEGIN BOND
M  V30 1 1 1 2
M  V30 2 1 2 3
M  V30 3 1 3 4
M  V30 4 1 4 5
M  V30 5 1 5 6
M  V30 6 1 5 7
M  V30 7 2 7 8
M  V30 8 1 8 9
M  V30 9 2 9 10
M  V30 10 1 10 11
M  V30 11 2 11 12
M  V30 12 1 11 13
M  V30 13 1 10 14
M  V30 14 1 6 3
M  V30 15 1 12 7
M  V30 16 1 1 15
M  V30 17 1 1 16
M  V30 18 1 1 17
M  V30 19 1 3 18
M  V30 20 1 4 19
M  V30 21 1 4 20
M  V30 22 1 6 21
M  V30 23 1 6 22
M  V30 24 1 8 23
M  V30 25 1 9 24
M  V30 26 1 12 25
M  V30 27 1 13 26
M  V30 28 1 13 27
M  V30 29 1 14 28
M  V30 30 1 14 29
M  V30 END BOND
M  V30 END CTAB
M  END
