
     RDKit          3D

  0  0  0  0  0  0  0  0  0  0999 V3000
M  V30 BEGIN CTAB
M  V30 COUNTS 39 42 0 0 0
M  V30 BEGIN ATOM
M  V30 1 N 3.67408 2.59214 0.0345372 0
M  V30 2 C 3.83251 1.17497 -0.11859 0
M  V30 3 N 2.93351 0.288404 0.345158 0
M  V30 4 C 3.07834 -1.03857 0.205848 0
M  V30 5 C 2.12344 -2.0389 0.698354 0
M  V30 6 S 0.834751 -2.4287 -0.557992 0
M  V30 7 C -0.199294 -1.00802 -0.807925 0
M  V30 8 N 0.103986 0.0129784 -1.68108 0
M  V30 9 N -0.850547 0.872096 -1.65122 0
M  V30 10 C -1.84839 0.469851 -0.753059 0
M  V30 11 N -1.39435 -0.700507 -0.260174 0
M  V30 12 C -2.12491 -1.51345 0.675734 0
M  V30 13 C -1.9453 -1.38475 2.151 0
M  V30 14 C -1.6512 -2.67032 1.42425 0
M  V30 15 C -3.02793 1.26807 -0.563105 0
M  V30 16 C -3.19214 2.42313 -1.36863 0
M  V30 17 C -4.28316 3.23638 -1.23556 0
M  V30 18 N -5.23087 2.9745 -0.34564 0
M  V30 19 C -5.1467 1.91168 0.443485 0
M  V30 20 C -4.01982 1.06318 0.313233 0
M  V30 21 N 4.17045 -1.49479 -0.424712 0
M  V30 22 C 5.09527 -0.653482 -0.904486 0
M  V30 23 N 4.91246 0.660157 -0.744655 0
M  V30 24 N 6.24101 -1.19999 -1.5675 0
M  V30 25 H 3.2285 3.18677 -0.713733 0
M  V30 26 H 4.01491 3.04301 0.922203 0
M  V30 27 H 1.61881 -1.59707 1.60133 0
M  V30 28 H 2.67092 -2.94322 0.980508 0
M  V30 29 H -3.22764 -1.65809 0.358 0
M  V30 30 H -1.07697 -0.89696 2.59946 0
M  V30 31 H -2.85462 -1.32706 2.8091 0
M  V30 32 H -0.62762 -3.02399 1.37449 0
M  V30 33 H -2.41752 -3.48879 1.67837 0
M  V30 34 H -2.43745 2.66226 -2.1048 0
M  V30 35 H -4.36987 4.13184 -1.8889 0
M  V30 36 H -5.89785 1.65289 1.19022 0
M  V30 37 H -4.02117 0.23914 0.988084 0
M  V30 38 H 7.15484 -1.20497 -1.096 0
M  V30 39 H 6.15753 -1.59185 -2.52108 0
M  V30 END ATOM
M  V30 BEGIN BOND
M  V30 1 1 1 2
M  V30 2 2 2 3
M  V30 3 1 3 4
M  V30 4 1 4 5
M  V30 5 1 5 6
M  V30 6 1 6 7
M  V30 7 2 7 8
M  V30 8 1 8 9
M  V30 9 2 9 10
M  V30 10 1 10 11
M  V30 11 1 11 12
M  V30 12 1 12 13
M  V30 13 1 13 14
M  V30 14 1 10 15
M  V30 15 2 15 16
M  V30 16 1 16 17
M  V30 17 2 17 18
M  V30 18 1 18 19
M  V30 19 2 19 20
M  V30 20 2 4 21
M  V30 21 1 21 22
M  V30 22 2 22 23
M  V30 23 1 22 24
M  V30 24 1 23 2
M  V30 25 1 11 7
M  V30 26 1 14 12
M  V30 27 1 20 15
M  V30 28 1 1 25
M  V30 29 1 1 26
M  V30 30 1 5 27
M  V30 31 1 5 28
M  V30 32 1 12 29
M  V30 33 1 13 30
M  V30 34 1 13 31
M  V30 35 1 14 32
M  V30 36 1 14 33
M  V30 37 1 16 34
M  V30 38 1 17 35
M  V30 39 1 19 36
M  V30 40 1 20 37
M  V30 41 1 24 38
M  V30 42 1 24 39
M  V30 END BOND
M  V30 END CTAB
M  END
