
     RDKit          3D

  0  0  0  0  0  0  0  0  0  0999 V3000
M  V30 BEGIN CTAB
M  V30 COUNTS 25 25 0 0 0
M  V30 BEGIN ATOM
M  V30 1 N -2.84221 1.29507 -1.38601 0
M  V30 2 S -2.68392 0.50358 0.0970435 0
M  V30 3 O -2.75164 1.52075 1.20144 0
M  V30 4 O -3.84411 -0.431657 0.27987 0
M  V30 5 N -1.24476 -0.383327 0.224642 0
M  V30 6 C -1.0805 -1.42904 -0.712141 0
M  V30 7 C 0.298423 -1.4965 -1.32484 0
M  V30 8 O 1.31656 -1.35622 -0.425788 0
M  V30 9 C 1.05145 -0.582472 0.664465 0 CFG=2
M  V30 10 C -0.0561624 0.42229 0.376284 0
M  V30 11 S 2.52174 0.219428 1.23887 0
M  V30 12 O 2.23802 0.976238 2.52211 0
M  V30 13 O 3.50529 -0.862828 1.58456 0
M  V30 14 N 3.19616 1.2489 0.0441061 0
M  V30 15 H -3.59629 1.98465 -1.39207 0
M  V30 16 H -2.01034 1.4795 -1.91654 0
M  V30 17 H -1.80754 -1.37989 -1.55226 0
M  V30 18 H -1.23503 -2.40244 -0.184613 0
M  V30 19 H 0.372337 -0.724769 -2.12412 0
M  V30 20 H 0.395461 -2.4832 -1.82378 0
M  V30 21 H 0.687298 -1.2239 1.49788 0
M  V30 22 H 0.237843 0.910223 -0.593806 0
M  V30 23 H -0.17733 1.15172 1.17781 0
M  V30 24 H 4.09492 0.879034 -0.352163 0
M  V30 25 H 3.41433 2.16483 0.501103 0
M  V30 END ATOM
M  V30 BEGIN BOND
M  V30 1 1 1 2
M  V30 2 2 2 3
M  V30 3 2 2 4
M  V30 4 1 2 5
M  V30 5 1 5 6
M  V30 6 1 6 7
M  V30 7 1 7 8
M  V30 8 1 8 9
M  V30 9 1 9 10
M  V30 10 1 9 11
M  V30 11 2 11 12
M  V30 12 2 11 13
M  V30 13 1 11 14
M  V30 14 1 10 5
M  V30 15 1 1 15
M  V30 16 1 1 16
M  V30 17 1 6 17
M  V30 18 1 6 18
M  V30 19 1 7 19
M  V30 20 1 7 20
M  V30 21 1 9 21 CFG=1
M  V30 22 1 10 22
M  V30 23 1 10 23
M  V30 24 1 14 24
M  V30 25 1 14 25
M  V30 END BOND
M  V30 END CTAB
M  END
