
     RDKit          3D

  0  0  0  0  0  0  0  0  0  0999 V3000
M  V30 BEGIN CTAB
M  V30 COUNTS 37 39 0 0 0
M  V30 BEGIN ATOM
M  V30 1 N -5.8375 -1.2933 0.494904 0
M  V30 2 C -4.44741 -0.987226 0.496164 0
M  V30 3 C -4.01677 0.110813 -0.188718 0
M  V30 4 C -4.89503 0.911248 -0.868351 0
M  V30 5 C -4.40726 2.00864 -1.54415 0
M  V30 6 C -3.06312 2.28039 -1.52641 0
M  V30 7 C -2.18607 1.47327 -0.842397 0
M  V30 8 C -2.65179 0.380697 -0.16655 0
M  V30 9 C -1.78664 -0.428381 0.516995 0
M  V30 10 C -2.22008 -1.52706 1.20188 0
M  V30 11 C -3.57761 -1.80334 1.18522 0
M  V30 12 N -0.390542 -0.124972 0.520965 0
M  V30 13 N 0.475741 -1.02094 0.204459 0
M  V30 14 C 1.83455 -0.631704 0.235964 0
M  V30 15 C 2.7768 -1.48253 0.751136 0
M  V30 16 C 4.09647 -1.07926 0.770636 0
M  V30 17 C 4.50856 0.144655 0.29343 0
M  V30 18 C 3.53404 0.974747 -0.217433 0
M  V30 19 C 2.19422 0.597461 -0.251381 0
M  V30 20 S 6.19296 0.617075 0.336942 0
M  V30 21 N 6.9028 0.0862923 -1.16478 0
M  V30 22 O 6.30557 2.10058 0.48282 0
M  V30 23 O 6.92212 -0.070646 1.46819 0
M  V30 24 H -6.15514 -2.12459 -0.0646134 0
M  V30 25 H -6.55386 -0.762141 1.00026 0
M  V30 26 H -5.95454 0.667042 -0.861833 0
M  V30 27 H -5.07449 2.65788 -2.08859 0
M  V30 28 H -2.70599 3.15101 -2.06709 0
M  V30 29 H -1.12447 1.71981 -0.85018 0
M  V30 30 H -1.54756 -2.16236 1.73759 0
M  V30 31 H -3.96553 -2.66045 1.712 0
M  V30 32 H 2.51555 -2.46235 1.14342 0
M  V30 33 H 4.87369 -1.72397 1.17045 0
M  V30 34 H 3.78742 1.9556 -0.611339 0
M  V30 35 H 1.46133 1.30124 -0.670569 0
M  V30 36 H 7.88299 -0.191194 -1.05684 0
M  V30 37 H 6.29659 -0.602038 -1.65451 0
M  V30 END ATOM
M  V30 BEGIN BOND
M  V30 1 1 1 2
M  V30 2 2 2 3
M  V30 3 1 3 4
M  V30 4 2 4 5
M  V30 5 1 5 6
M  V30 6 2 6 7
M  V30 7 1 7 8
M  V30 8 2 8 9
M  V30 9 1 9 10
M  V30 10 2 10 11
M  V30 11 1 9 12
M  V30 12 2 12 13 CFG=2
M  V30 13 1 13 14
M  V30 14 2 14 15
M  V30 15 1 15 16
M  V30 16 2 16 17
M  V30 17 1 17 18
M  V30 18 2 18 19
M  V30 19 1 17 20
M  V30 20 1 20 21
M  V30 21 2 20 22
M  V30 22 2 20 23
M  V30 23 1 11 2
M  V30 24 1 19 14
M  V30 25 1 8 3
M  V30 26 1 1 24
M  V30 27 1 1 25
M  V30 28 1 4 26
M  V30 29 1 5 27
M  V30 30 1 6 28
M  V30 31 1 7 29
M  V30 32 1 10 30
M  V30 33 1 11 31
M  V30 34 1 15 32
M  V30 35 1 16 33
M  V30 36 1 18 34
M  V30 37 1 19 35
M  V30 38 1 21 36
M  V30 39 1 21 37
M  V30 END BOND
M  V30 END CTAB
M  END
