
     RDKit          3D

  0  0  0  0  0  0  0  0  0  0999 V3000
M  V30 BEGIN CTAB
M  V30 COUNTS 24 24 0 0 0
M  V30 BEGIN ATOM
M  V30 1 N 3.01938 -2.13906 1.30133 0
M  V30 2 C 2.29667 -1.84339 0.448818 0
M  V30 3 C 1.35908 -1.45865 -0.633652 0
M  V30 4 C 0.673413 -0.208759 -0.164148 0
M  V30 5 C 1.41455 0.979349 -0.218346 0
M  V30 6 N 2.74236 0.923737 -0.713934 0
M  V30 7 C 0.847937 2.15234 0.202365 0
M  V30 8 C -0.433958 2.17019 0.673644 0
M  V30 9 C -1.15263 0.986444 0.720174 0
M  V30 10 C -0.614292 -0.232454 0.301314 0
M  V30 11 O -1.39095 -1.34627 0.380133 0
M  V30 12 C -2.25701 -1.82028 -0.611662 0
M  V30 13 F -2.076 -3.13691 -0.962739 0
M  V30 14 F -3.59967 -1.63714 -0.224694 0
M  V30 15 N -2.4672 1.09318 1.2202 0
M  V30 16 H 0.668866 -2.27793 -0.783572 0
M  V30 17 H 1.94004 -1.23582 -1.54467 0
M  V30 18 H 3.5353 0.86174 -0.0605366 0
M  V30 19 H 2.93998 0.943388 -1.73151 0
M  V30 20 H 1.46879 3.05806 0.141442 0
M  V30 21 H -0.868533 3.11797 1.0047 0
M  V30 22 H -2.17087 -1.20993 -1.54825 0
M  V30 23 H -2.68387 0.704039 2.1444 0
M  V30 24 H -3.1914 1.55617 0.659196 0
M  V30 END ATOM
M  V30 BEGIN BOND
M  V30 1 3 1 2
M  V30 2 1 2 3
M  V30 3 1 3 4
M  V30 4 2 4 5
M  V30 5 1 5 6
M  V30 6 1 5 7
M  V30 7 2 7 8
M  V30 8 1 8 9
M  V30 9 2 9 10
M  V30 10 1 10 11
M  V30 11 1 11 12
M  V30 12 1 12 13
M  V30 13 1 12 14
M  V30 14 1 9 15
M  V30 15 1 10 4
M  V30 16 1 3 16
M  V30 17 1 3 17
M  V30 18 1 6 18
M  V30 19 1 6 19
M  V30 20 1 7 20
M  V30 21 1 8 21
M  V30 22 1 12 22
M  V30 23 1 15 23
M  V30 24 1 15 24
M  V30 END BOND
M  V30 END CTAB
M  END
