
     RDKit          3D

  0  0  0  0  0  0  0  0  0  0999 V3000
M  V30 BEGIN CTAB
M  V30 COUNTS 45 47 0 0 0
M  V30 BEGIN ATOM
M  V30 1 N -4.36023 4.42635 2.44421 0
M  V30 2 C -4.5084 3.51448 1.38191 0
M  V30 3 S -4.52008 4.09093 -0.142749 0
M  V30 4 N -4.64636 2.11667 1.61266 0
M  V30 5 N -4.79442 1.19558 0.5727 0
M  V30 6 C -3.93862 0.253662 0.361443 0
M  V30 7 C -3.91176 -0.784272 -0.646581 0
M  V30 8 C -4.77188 -1.07975 -1.66783 0
M  V30 9 C -4.55921 -2.14151 -2.54224 0
M  V30 10 C -3.42446 -2.89706 -2.3323 0
M  V30 11 C -2.54416 -2.616 -1.3083 0
M  V30 12 C -2.76513 -1.56161 -0.448231 0
M  V30 13 N -2.03563 -1.06693 0.660355 0
M  V30 14 C -2.7317 0.0545047 1.185 0
M  V30 15 O -2.3529 0.726377 2.17279 0
M  V30 16 C -0.799479 -1.61306 1.16429 0
M  V30 17 C 0.351852 -0.936455 0.467755 0
M  V30 18 O 0.091373 -0.0662572 -0.381408 0
M  V30 19 N 1.64503 -1.31804 0.808558 0
M  V30 20 C 2.81467 -0.774561 0.254059 0
M  V30 21 C 4.00686 -1.51812 0.380572 0
M  V30 22 C 5.15553 -1.0034 -0.127942 0
M  V30 23 C 5.21721 0.217822 -0.766435 0
M  V30 24 C 4.07082 0.960248 -0.901762 0
M  V30 25 C 2.89716 0.432866 -0.381059 0
M  V30 26 S 6.72479 0.854286 -1.41416 0
M  V30 27 O 7.65618 -0.300507 -1.74953 0
M  V30 28 O 6.41655 1.66054 -2.63069 0
M  V30 29 N 7.48422 1.77967 -0.177712 0
M  V30 30 H -4.83176 4.26267 3.34756 0
M  V30 31 H -3.77453 5.26666 2.31875 0
M  V30 32 H -4.6432 1.71143 2.57965 0
M  V30 33 H -5.65817 -0.474047 -1.81633 0
M  V30 34 H -5.24901 -2.35921 -3.34209 0
M  V30 35 H -3.21456 -3.73957 -2.99133 0
M  V30 36 H -1.66925 -3.26788 -1.21529 0
M  V30 37 H -0.734887 -1.44116 2.27344 0
M  V30 38 H -0.768045 -2.70241 1.0166 0
M  V30 39 H 1.75359 -2.07452 1.54581 0
M  V30 40 H 3.94737 -2.4726 0.881335 0
M  V30 41 H 6.07108 -1.58645 -0.0245867 0
M  V30 42 H 4.10328 1.91228 -1.3962 0
M  V30 43 H 2.03002 1.08606 -0.511734 0
M  V30 44 H 6.73263 2.1533 0.445807 0
M  V30 45 H 8.03757 1.11899 0.410316 0
M  V30 END ATOM
M  V30 BEGIN BOND
M  V30 1 1 1 2
M  V30 2 2 2 3
M  V30 3 1 2 4
M  V30 4 1 4 5
M  V30 5 2 5 6
M  V30 6 1 6 7
M  V30 7 2 7 8
M  V30 8 1 8 9
M  V30 9 2 9 10
M  V30 10 1 10 11
M  V30 11 2 11 12
M  V30 12 1 12 13
M  V30 13 1 13 14
M  V30 14 2 14 15
M  V30 15 1 13 16
M  V30 16 1 16 17
M  V30 17 2 17 18
M  V30 18 1 17 19
M  V30 19 1 19 20
M  V30 20 2 20 21
M  V30 21 1 21 22
M  V30 22 2 22 23
M  V30 23 1 23 24
M  V30 24 2 24 25
M  V30 25 1 23 26
M  V30 26 2 26 27
M  V30 27 2 26 28
M  V30 28 1 26 29
M  V30 29 1 6 14
M  V30 30 1 25 20
M  V30 31 1 12 7
M  V30 32 1 1 30
M  V30 33 1 1 31
M  V30 34 1 4 32
M  V30 35 1 8 33
M  V30 36 1 9 34
M  V30 37 1 10 35
M  V30 38 1 11 36
M  V30 39 1 16 37
M  V30 40 1 16 38
M  V30 41 1 19 39
M  V30 42 1 21 40
M  V30 43 1 22 41
M  V30 44 1 24 42
M  V30 45 1 25 43
M  V30 46 1 29 44
M  V30 47 1 29 45
M  V30 END BOND
M  V30 END CTAB
M  END
