
     RDKit          3D

  0  0  0  0  0  0  0  0  0  0999 V3000
M  V30 BEGIN CTAB
M  V30 COUNTS 26 27 0 0 0
M  V30 BEGIN ATOM
M  V30 1 N 4.96024 0.0608231 0.106158 0
M  V30 2 C 3.54485 0.0522333 0.0131144 0
M  V30 3 C 2.89397 0.557262 -1.08992 0
M  V30 4 C 1.51641 0.535922 -1.15691 0
M  V30 5 C 0.714896 0.0139303 -0.135816 0
M  V30 6 C 1.39071 -0.483938 0.955002 0
M  V30 7 Br 0.354636 -1.21485 2.39102 0
M  V30 8 C 2.78026 -0.461142 1.0198 0
M  V30 9 C -0.732825 0.00581972 -0.234754 0
M  V30 10 C -1.34634 -0.886197 -1.07994 0
M  V30 11 C -2.72819 -0.929263 -1.20448 0
M  V30 12 C -3.53388 -0.0786025 -0.484749 0
M  V30 13 N -4.9586 -0.118171 -0.608518 0
M  V30 14 C -2.92377 0.82479 0.370038 0
M  V30 15 C -1.54931 0.851153 0.479341 0
M  V30 16 Br -0.746526 2.0979 1.65498 0
M  V30 17 H 5.54311 0.333738 -0.739001 0
M  V30 18 H 5.49207 -0.184868 0.956247 0
M  V30 19 H 3.51007 0.962141 -1.88227 0
M  V30 20 H 0.993961 0.930596 -2.0185 0
M  V30 21 H 3.25218 -0.867918 1.90478 0
M  V30 22 H -0.728232 -1.56954 -1.66036 0
M  V30 23 H -3.17161 -1.65299 -1.88693 0
M  V30 24 H -5.43565 -0.253867 -1.51344 0
M  V30 25 H -5.50509 -0.00211808 0.269574 0
M  V30 26 H -3.58734 1.47715 0.919068 0
M  V30 END ATOM
M  V30 BEGIN BOND
M  V30 1 1 1 2
M  V30 2 2 2 3
M  V30 3 1 3 4
M  V30 4 2 4 5
M  V30 5 1 5 6
M  V30 6 1 6 7
M  V30 7 2 6 8
M  V30 8 1 5 9
M  V30 9 2 9 10
M  V30 10 1 10 11
M  V30 11 2 11 12
M  V30 12 1 12 13
M  V30 13 1 12 14
M  V30 14 2 14 15
M  V30 15 1 15 16
M  V30 16 1 8 2
M  V30 17 1 15 9
M  V30 18 1 1 17
M  V30 19 1 1 18
M  V30 20 1 3 19
M  V30 21 1 4 20
M  V30 22 1 8 21
M  V30 23 1 10 22
M  V30 24 1 11 23
M  V30 25 1 13 24
M  V30 26 1 13 25
M  V30 27 1 14 26
M  V30 END BOND
M  V30 END CTAB
M  END
