
     RDKit          3D

  0  0  0  0  0  0  0  0  0  0999 V3000
M  V30 BEGIN CTAB
M  V30 COUNTS 41 43 0 0 0
M  V30 BEGIN ATOM
M  V30 1 C 6.1798 -2.01956 0.475624 0
M  V30 2 O 5.71949 -1.12589 -0.512467 0
M  V30 3 C 4.59459 -0.350187 -0.381891 0
M  V30 4 C 3.84102 -0.414677 0.760963 0
M  V30 5 C 2.70842 0.341189 0.93696 0
M  V30 6 C 2.27847 1.20628 -0.0417221 0
M  V30 7 C 3.05453 1.26208 -1.19806 0
M  V30 8 C 4.18949 0.505764 -1.37681 0
M  V30 9 C 1.08045 2.034 0.145696 0
M  V30 10 C -0.20938 1.34314 0.0622125 0
M  V30 11 C -0.748503 0.917813 -1.12097 0
M  V30 12 N -0.0326853 1.1496 -2.32783 0
M  V30 13 N -1.96196 0.282609 -1.1571 0
M  V30 14 C -2.67061 0.0492631 -0.0584116 0
M  V30 15 N -2.17286 0.45328 1.12137 0
M  V30 16 C -0.972992 1.08803 1.20945 0
M  V30 17 N -0.448691 1.53113 2.43878 0
M  V30 18 C -3.96427 -0.628249 -0.0959361 0
M  V30 19 C -4.67098 -0.852382 1.05928 0
M  V30 20 C -5.89198 -1.48765 1.05607 0
M  V30 21 C -6.44734 -1.92164 -0.114903 0
M  V30 22 C -5.74253 -1.70061 -1.287 0
M  V30 23 C -4.50257 -1.05441 -1.27499 0
M  V30 24 H 5.43859 -2.85965 0.526715 0
M  V30 25 H 7.16272 -2.43975 0.252591 0
M  V30 26 H 6.14883 -1.48681 1.45128 0
M  V30 27 H 4.14453 -1.09034 1.56868 0
M  V30 28 H 2.17738 0.213216 1.89492 0
M  V30 29 H 2.81081 1.92546 -2.02956 0
M  V30 30 H 4.79752 0.540607 -2.26842 0
M  V30 31 H 1.17025 2.61858 1.11417 0
M  V30 32 H 1.16317 2.86258 -0.624144 0
M  V30 33 H 0.357423 0.313135 -2.81405 0
M  V30 34 H 0.124249 2.07125 -2.74735 0
M  V30 35 H 0.119276 0.860442 3.00068 0
M  V30 36 H -0.580802 2.4824 2.84004 0
M  V30 37 H -4.28151 -0.530958 2.017 0
M  V30 38 H -6.41121 -1.64179 1.9889 0
M  V30 39 H -7.40162 -2.41288 -0.0724846 0
M  V30 40 H -6.17489 -2.04109 -2.21946 0
M  V30 41 H -3.9736 -0.894131 -2.19783 0
M  V30 END ATOM
M  V30 BEGIN BOND
M  V30 1 1 1 2
M  V30 2 1 2 3
M  V30 3 2 3 4
M  V30 4 1 4 5
M  V30 5 2 5 6
M  V30 6 1 6 7
M  V30 7 2 7 8
M  V30 8 1 6 9
M  V30 9 1 9 10
M  V30 10 2 10 11
M  V30 11 1 11 12
M  V30 12 1 11 13
M  V30 13 2 13 14
M  V30 14 1 14 15
M  V30 15 2 15 16
M  V30 16 1 16 17
M  V30 17 1 14 18
M  V30 18 2 18 19
M  V30 19 1 19 20
M  V30 20 2 20 21
M  V30 21 1 21 22
M  V30 22 2 22 23
M  V30 23 1 8 3
M  V30 24 1 16 10
M  V30 25 1 23 18
M  V30 26 1 1 24
M  V30 27 1 1 25
M  V30 28 1 1 26
M  V30 29 1 4 27
M  V30 30 1 5 28
M  V30 31 1 7 29
M  V30 32 1 8 30
M  V30 33 1 9 31
M  V30 34 1 9 32
M  V30 35 1 12 33
M  V30 36 1 12 34
M  V30 37 1 17 35
M  V30 38 1 17 36
M  V30 39 1 19 37
M  V30 40 1 20 38
M  V30 41 1 21 39
M  V30 42 1 22 40
M  V30 43 1 23 41
M  V30 END BOND
M  V30 END CTAB
M  END
