
     RDKit          3D

  0  0  0  0  0  0  0  0  0  0999 V3000
M  V30 BEGIN CTAB
M  V30 COUNTS 66 68 0 0 0
M  V30 BEGIN ATOM
M  V30 1 N -6.85622 -2.07593 -0.994065 0
M  V30 2 C -5.46165 -1.76167 -1.22206 0 CFG=2
M  V30 3 C -4.70459 -1.98561 0.0237919 0
M  V30 4 O -5.29403 -2.30225 1.06893 0
M  V30 5 O -3.33165 -1.83714 0.00164256 0
M  V30 6 C -2.56947 -2.0425 1.1682 0
M  V30 7 C -1.11498 -1.79695 0.771569 0
M  V30 8 C -1.03046 -0.374017 0.275226 0
M  V30 9 C 0.394013 0.0475708 -0.00911895 0
M  V30 10 C 1.34741 -0.55192 1.01171 0
M  V30 11 C 0.547948 -0.832808 2.27573 0
M  V30 12 C -0.276798 -2.06811 1.98973 0
M  V30 13 C 2.46175 0.40038 1.23621 0
M  V30 14 O 3.14486 0.641679 0.0399316 0
M  V30 15 C 3.83267 -0.272888 -0.722546 0
M  V30 16 O 3.87638 -1.46561 -0.326937 0
M  V30 17 C 4.52217 0.111072 -1.99617 0 CFG=2
M  V30 18 C 5.98551 -0.171907 -1.86883 0
M  V30 19 C 6.66033 0.566257 -0.781899 0
M  V30 20 C 6.81881 0.0942063 0.498657 0
M  V30 21 C 7.45129 0.819896 1.48779 0
M  V30 22 C 7.94012 2.06566 1.16984 0
M  V30 23 C 7.7788 2.53954 -0.124109 0
M  V30 24 C 7.15129 1.82634 -1.11574 0
M  V30 25 N 4.26057 1.50631 -2.31311 0
M  V30 26 C -5.26441 -0.358857 -1.69738 0
M  V30 27 C -5.77134 0.668821 -0.737684 0
M  V30 28 C -7.10543 1.04891 -0.867205 0
M  V30 29 C -7.65395 1.99007 -0.0321924 0
M  V30 30 C -6.83784 2.54312 0.936051 0
M  V30 31 C -5.51265 2.17151 1.07116 0
M  V30 32 C -4.974 1.22381 0.224514 0
M  V30 33 H -6.91742 -3.11791 -0.910054 0
M  V30 34 H -7.12144 -1.64608 -0.0704785 0
M  V30 35 H -5.11763 -2.46217 -2.02212 0
M  V30 36 H -2.60895 -3.08308 1.54281 0
M  V30 37 H -2.82823 -1.29863 1.9537 0
M  V30 38 H -0.832484 -2.44691 -0.0858303 0
M  V30 39 H -1.45362 0.355298 0.993921 0
M  V30 40 H -1.59668 -0.306208 -0.66935 0
M  V30 41 H 0.723291 -0.231337 -1.03569 0
M  V30 42 H 0.417326 1.15549 0.0370999 0
M  V30 43 H 1.71168 -1.52724 0.671558 0
M  V30 44 H -0.120642 0.0201068 2.54072 0
M  V30 45 H 1.22318 -1.07174 3.1158 0
M  V30 46 H 0.44703 -2.88456 1.71571 0
M  V30 47 H -0.881098 -2.37404 2.86964 0
M  V30 48 H 1.98632 1.38489 1.53356 0
M  V30 49 H 3.14007 0.105874 2.06836 0
M  V30 50 H 4.12146 -0.495629 -2.82805 0
M  V30 51 H 6.08387 -1.25819 -1.62051 0
M  V30 52 H 6.51675 -0.0459222 -2.8375 0
M  V30 53 H 6.45202 -0.874995 0.772882 0
M  V30 54 H 7.57445 0.444638 2.49721 0
M  V30 55 H 8.4348 2.64827 1.9191 0
M  V30 56 H 8.16287 3.52944 -0.391221 0
M  V30 57 H 7.05888 2.25318 -2.10233 0
M  V30 58 H 3.73331 1.6135 -3.21139 0
M  V30 59 H 3.70584 1.9686 -1.57377 0
M  V30 60 H -5.75424 -0.246361 -2.69373 0
M  V30 61 H -4.1745 -0.209245 -1.86898 0
M  V30 62 H -7.72475 0.598302 -1.63731 0
M  V30 63 H -8.68886 2.30842 -0.105547 0
M  V30 64 H -7.26502 3.28282 1.59393 0
M  V30 65 H -4.8842 2.59935 1.81884 0
M  V30 66 H -3.93786 0.94509 0.337666 0
M  V30 END ATOM
M  V30 BEGIN BOND
M  V30 1 1 1 2
M  V30 2 1 2 3
M  V30 3 2 3 4
M  V30 4 1 3 5
M  V30 5 1 5 6
M  V30 6 1 6 7
M  V30 7 1 7 8
M  V30 8 1 8 9
M  V30 9 1 9 10
M  V30 10 1 10 11
M  V30 11 1 11 12
M  V30 12 1 10 13
M  V30 13 1 13 14
M  V30 14 1 14 15
M  V30 15 2 15 16
M  V30 16 1 15 17
M  V30 17 1 17 18
M  V30 18 1 18 19
M  V30 19 2 19 20
M  V30 20 1 20 21
M  V30 21 2 21 22
M  V30 22 1 22 23
M  V30 23 2 23 24
M  V30 24 1 17 25
M  V30 25 1 2 26
M  V30 26 1 26 27
M  V30 27 2 27 28
M  V30 28 1 28 29
M  V30 29 2 29 30
M  V30 30 1 30 31
M  V30 31 2 31 32
M  V30 32 1 12 7
M  V30 33 1 24 19
M  V30 34 1 32 27
M  V30 35 1 1 33
M  V30 36 1 1 34
M  V30 37 1 2 35 CFG=3
M  V30 38 1 6 36
M  V30 39 1 6 37
M  V30 40 1 7 38
M  V30 41 1 8 39
M  V30 42 1 8 40
M  V30 43 1 9 41
M  V30 44 1 9 42
M  V30 45 1 10 43
M  V30 46 1 11 44
M  V30 47 1 11 45
M  V30 48 1 12 46
M  V30 49 1 12 47
M  V30 50 1 13 48
M  V30 51 1 13 49
M  V30 52 1 17 50 CFG=3
M  V30 53 1 18 51
M  V30 54 1 18 52
M  V30 55 1 20 53
M  V30 56 1 21 54
M  V30 57 1 22 55
M  V30 58 1 23 56
M  V30 59 1 24 57
M  V30 60 1 25 58
M  V30 61 1 25 59
M  V30 62 1 26 60
M  V30 63 1 26 61
M  V30 64 1 28 62
M  V30 65 1 29 63
M  V30 66 1 30 64
M  V30 67 1 31 65
M  V30 68 1 32 66
M  V30 END BOND
M  V30 END CTAB
M  END
