
     RDKit          3D

  0  0  0  0  0  0  0  0  0  0999 V3000
M  V30 BEGIN CTAB
M  V30 COUNTS 22 22 0 0 0
M  V30 BEGIN ATOM
M  V30 1 N -0.873064 2.38235 -0.966628 0
M  V30 2 C -1.12929 1.14938 -0.280691 0
M  V30 3 C -2.43092 0.861043 0.0199787 0
M  V30 4 C -2.73536 -0.29926 0.672614 0
M  V30 5 C -1.70812 -1.15373 1.01183 0
M  V30 6 C -0.380929 -0.84532 0.697537 0
M  V30 7 C -0.0654142 0.324208 0.038817 0
M  V30 8 N 1.27075 0.683684 -0.306707 0
M  V30 9 S 2.65873 -0.1835 0.164992 0
M  V30 10 O 2.63041 -0.714402 1.54676 0
M  V30 11 O 3.85285 0.764566 0.111706 0
M  V30 12 N 3.05007 -1.44365 -0.97481 0
M  V30 13 O -1.98227 -2.33239 1.67083 0
M  V30 14 H -0.766083 2.40749 -1.99795 0
M  V30 15 H -0.789751 3.27837 -0.436417 0
M  V30 16 H -3.26146 1.52436 -0.239639 0
M  V30 17 H -3.77723 -0.531537 0.914107 0
M  V30 18 H 0.397778 -1.5416 0.978718 0
M  V30 19 H 1.38363 1.55874 -0.902528 0
M  V30 20 H 4.08452 -1.58022 -1.02245 0
M  V30 21 H 2.75036 -1.09502 -1.9132 0
M  V30 22 H -2.17922 -3.21357 1.21313 0
M  V30 END ATOM
M  V30 BEGIN BOND
M  V30 1 1 1 2
M  V30 2 2 2 3
M  V30 3 1 3 4
M  V30 4 2 4 5
M  V30 5 1 5 6
M  V30 6 2 6 7
M  V30 7 1 7 8
M  V30 8 1 8 9
M  V30 9 2 9 10
M  V30 10 2 9 11
M  V30 11 1 9 12
M  V30 12 1 5 13
M  V30 13 1 7 2
M  V30 14 1 1 14
M  V30 15 1 1 15
M  V30 16 1 3 16
M  V30 17 1 4 17
M  V30 18 1 6 18
M  V30 19 1 8 19
M  V30 20 1 12 20
M  V30 21 1 12 21
M  V30 22 1 13 22
M  V30 END BOND
M  V30 END CTAB
M  END
