
     RDKit          3D

  0  0  0  0  0  0  0  0  0  0999 V3000
M  V30 BEGIN CTAB
M  V30 COUNTS 44 46 0 0 0
M  V30 BEGIN ATOM
M  V30 1 N -3.837 2.78168 -1.08732 0
M  V30 2 C -4.45655 2.08641 0.0356172 0
M  V30 3 C -3.53903 1.98696 1.20665 0
M  V30 4 N -2.29751 1.24802 0.900944 0
M  V30 5 C -2.33309 -0.138056 0.637037 0
M  V30 6 C -3.50372 -0.819181 0.991494 0
M  V30 7 C -3.6167 -2.19567 0.829732 0
M  V30 8 C -2.53082 -2.84792 0.30938 0
M  V30 9 C -1.3566 -2.21407 -0.0538926 0
M  V30 10 C -1.27455 -0.848239 0.117629 0
M  V30 11 C -0.0276953 -0.208122 -0.28905 0
M  V30 12 O 0.0779886 1.02094 -0.146906 0
M  V30 13 C 1.11469 -0.923239 -0.855404 0
M  V30 14 C 2.3012 -0.324385 -1.22768 0
M  V30 15 N 2.43941 1.06804 -1.19715 0
M  V30 16 C 3.72957 1.77838 -1.1931 0
M  V30 17 C 4.38268 1.79466 0.1507 0
M  V30 18 N 4.66494 0.516213 0.691101 0
M  V30 19 C 3.36653 -1.05629 -1.74396 0
M  V30 20 C 3.21546 -2.40861 -1.88108 0
M  V30 21 C 2.06159 -3.05553 -1.53079 0
M  V30 22 C 1.00641 -2.30612 -1.01553 0
M  V30 23 C -0.233305 -2.95118 -0.61368 0
M  V30 24 O -0.370769 -4.19585 -0.742809 0
M  V30 25 H -3.03103 2.24283 -1.47637 0
M  V30 26 H -4.55007 3.01908 -1.79838 0
M  V30 27 H -4.86387 1.13074 -0.298859 0
M  V30 28 H -5.32585 2.72258 0.332628 0
M  V30 29 H -3.99229 1.49876 2.06632 0
M  V30 30 H -3.26129 3.0141 1.55705 0
M  V30 31 H -1.45014 1.80717 0.924928 0
M  V30 32 H -4.36718 -0.338754 1.41333 0
M  V30 33 H -4.52929 -2.71453 1.10755 0
M  V30 34 H -2.57091 -3.91659 0.165876 0
M  V30 35 H 1.62951 1.69837 -1.22111 0
M  V30 36 H 3.49359 2.86043 -1.42439 0
M  V30 37 H 4.36287 1.44769 -2.02296 0
M  V30 38 H 5.3295 2.38307 0.119247 0
M  V30 39 H 3.69305 2.34475 0.836616 0
M  V30 40 H 4.75034 0.541244 1.73073 0
M  V30 41 H 5.51634 0.134843 0.22626 0
M  V30 42 H 4.27121 -0.544214 -2.03468 0
M  V30 43 H 4.0189 -3.01352 -2.27732 0
M  V30 44 H 1.89349 -4.10692 -1.61889 0
M  V30 END ATOM
M  V30 BEGIN BOND
M  V30 1 1 1 2
M  V30 2 1 2 3
M  V30 3 1 3 4
M  V30 4 1 4 5
M  V30 5 2 5 6
M  V30 6 1 6 7
M  V30 7 2 7 8
M  V30 8 1 8 9
M  V30 9 2 9 10
M  V30 10 1 10 11
M  V30 11 2 11 12
M  V30 12 1 11 13
M  V30 13 2 13 14
M  V30 14 1 14 15
M  V30 15 1 15 16
M  V30 16 1 16 17
M  V30 17 1 17 18
M  V30 18 1 14 19
M  V30 19 2 19 20
M  V30 20 1 20 21
M  V30 21 2 21 22
M  V30 22 1 22 23
M  V30 23 2 23 24
M  V30 24 1 10 5
M  V30 25 1 22 13
M  V30 26 1 23 9
M  V30 27 1 1 25
M  V30 28 1 1 26
M  V30 29 1 2 27
M  V30 30 1 2 28
M  V30 31 1 3 29
M  V30 32 1 3 30
M  V30 33 1 4 31
M  V30 34 1 6 32
M  V30 35 1 7 33
M  V30 36 1 8 34
M  V30 37 1 15 35
M  V30 38 1 16 36
M  V30 39 1 16 37
M  V30 40 1 17 38
M  V30 41 1 17 39
M  V30 42 1 18 40
M  V30 43 1 18 41
M  V30 44 1 19 42
M  V30 45 1 20 43
M  V30 46 1 21 44
M  V30 END BOND
M  V30 END CTAB
M  END
