
     RDKit          3D

  0  0  0  0  0  0  0  0  0  0999 V3000
M  V30 BEGIN CTAB
M  V30 COUNTS 50 50 0 0 0
M  V30 BEGIN ATOM
M  V30 1 N -5.41978 -1.06795 0.249173 0
M  V30 2 C -5.18909 -0.212697 1.37178 0
M  V30 3 C -4.96718 1.20046 0.981412 0
M  V30 4 C -3.82687 1.50822 0.0946849 0
M  V30 5 O -2.58166 1.36665 0.450842 0
M  V30 6 C -1.87821 0.314755 0.747937 0
M  V30 7 C -1.66162 -0.74616 -0.332058 0
M  V30 8 C -0.814162 -1.82818 0.300413 0
M  V30 9 C 0.599699 -1.83333 -0.180514 0
M  V30 10 C 1.19794 -0.480703 -0.403965 0
M  V30 11 C 0.285422 0.482717 -1.10927 0
M  V30 12 C -0.93959 -0.23812 -1.52796 0
M  V30 13 C 2.42224 -0.629477 -1.28485 0
M  V30 14 O 3.41097 -1.4215 -0.791892 0
M  V30 15 C 3.89952 -0.967229 0.395222 0
M  V30 16 C 4.48865 0.415473 0.377236 0
M  V30 17 C 5.65937 0.530702 -0.572407 0
M  V30 18 N 6.22192 1.86143 -0.531423 0
M  V30 19 O 4.92943 0.686444 1.67584 0
M  V30 20 O -6.14793 1.59018 0.273458 0
M  V30 21 H -6.38524 -1.40213 0.177729 0
M  V30 22 H -4.98527 -0.801165 -0.633742 0
M  V30 23 H -6.14451 -0.294639 1.99544 0
M  V30 24 H -4.40509 -0.633971 2.01784 0
M  V30 25 H -4.92731 1.80102 1.93424 0
M  V30 26 H -3.99678 0.920374 -0.874144 0
M  V30 27 H -3.94124 2.59434 -0.305717 0
M  V30 28 H -0.806812 0.570069 1.05396 0
M  V30 29 H -2.23038 -0.254422 1.64834 0
M  V30 30 H -2.62084 -1.16851 -0.667487 0
M  V30 31 H -0.859271 -1.77011 1.407 0
M  V30 32 H -1.26101 -2.80783 0.0293542 0
M  V30 33 H 1.20959 -2.3491 0.591593 0
M  V30 34 H 0.703821 -2.43866 -1.10642 0
M  V30 35 H 1.46028 -0.020824 0.5735 0
M  V30 36 H 0.747448 0.880195 -2.06707 0
M  V30 37 H 0.123586 1.39767 -0.511038 0
M  V30 38 H -0.595274 -1.14875 -2.10076 0
M  V30 39 H -1.57912 0.316606 -2.24217 0
M  V30 40 H 2.79653 0.412405 -1.45922 0
M  V30 41 H 2.0155 -1.04427 -2.25682 0
M  V30 42 H 3.11177 -0.99369 1.1681 0
M  V30 43 H 4.74536 -1.65049 0.672022 0
M  V30 44 H 3.77183 1.21592 0.130064 0
M  V30 45 H 5.38108 0.279906 -1.61235 0
M  V30 46 H 6.46851 -0.164119 -0.215947 0
M  V30 47 H 5.59103 2.48081 -0.000417011 0
M  V30 48 H 7.19309 1.89324 -0.191441 0
M  V30 49 H 5.80921 1.10717 1.63075 0
M  V30 50 H -6.07957 2.54126 0.00136103 0
M  V30 END ATOM
M  V30 BEGIN BOND
M  V30 1 1 1 2
M  V30 2 1 2 3
M  V30 3 1 3 4
M  V30 4 1 4 5
M  V30 5 1 5 6
M  V30 6 1 6 7
M  V30 7 1 7 8
M  V30 8 1 8 9
M  V30 9 1 9 10
M  V30 10 1 10 11
M  V30 11 1 11 12
M  V30 12 1 10 13
M  V30 13 1 13 14
M  V30 14 1 14 15
M  V30 15 1 15 16
M  V30 16 1 16 17
M  V30 17 1 17 18
M  V30 18 1 16 19
M  V30 19 1 3 20
M  V30 20 1 12 7
M  V30 21 1 1 21
M  V30 22 1 1 22
M  V30 23 1 2 23
M  V30 24 1 2 24
M  V30 25 1 3 25
M  V30 26 1 4 26
M  V30 27 1 4 27
M  V30 28 1 6 28
M  V30 29 1 6 29
M  V30 30 1 7 30
M  V30 31 1 8 31
M  V30 32 1 8 32
M  V30 33 1 9 33
M  V30 34 1 9 34
M  V30 35 1 10 35
M  V30 36 1 11 36
M  V30 37 1 11 37
M  V30 38 1 12 38
M  V30 39 1 12 39
M  V30 40 1 13 40
M  V30 41 1 13 41
M  V30 42 1 15 42
M  V30 43 1 15 43
M  V30 44 1 16 44
M  V30 45 1 17 45
M  V30 46 1 17 46
M  V30 47 1 18 47
M  V30 48 1 18 48
M  V30 49 1 19 49
M  V30 50 1 20 50
M  V30 END BOND
M  V30 END CTAB
M  END
