
     RDKit          3D

  0  0  0  0  0  0  0  0  0  0999 V3000
M  V30 BEGIN CTAB
M  V30 COUNTS 21 22 0 0 0
M  V30 BEGIN ATOM
M  V30 1 N -3.16948 0.93276 -0.218581 0
M  V30 2 C -1.74668 0.90451 -0.240164 0
M  V30 3 C -0.969218 1.98275 -0.59284 0
M  V30 4 N 0.377664 1.93485 -0.6067 0
M  V30 5 C 1.01814 0.805792 -0.268495 0
M  V30 6 C 0.311167 -0.320971 0.0977955 0
M  V30 7 C -1.08175 -0.256055 0.107338 0
M  V30 8 N -1.8381 -1.38336 0.474829 0
M  V30 9 C 0.98265 -1.47631 0.443528 0
M  V30 10 C 2.3705 -1.55354 0.437925 0
M  V30 11 C 3.08 -0.428414 0.0720912 0
M  V30 12 C 2.41525 0.729851 -0.274694 0
M  V30 13 Br 3.42408 2.26801 -0.775673 0
M  V30 14 Cl 4.84859 -0.495726 0.055268 0
M  V30 15 H -3.67827 1.35048 -1.02639 0
M  V30 16 H -3.72997 0.549024 0.579952 0
M  V30 17 H -1.52 2.89256 -0.864639 0
M  V30 18 H -1.58508 -2.09804 1.16728 0
M  V30 19 H -2.77553 -1.52597 -0.0066558 0
M  V30 20 H 0.392221 -2.32677 0.721214 0
M  V30 21 H 2.87382 -2.48543 0.71761 0
M  V30 END ATOM
M  V30 BEGIN BOND
M  V30 1 1 1 2
M  V30 2 2 2 3
M  V30 3 1 3 4
M  V30 4 2 4 5
M  V30 5 1 5 6
M  V30 6 2 6 7
M  V30 7 1 7 8
M  V30 8 1 6 9
M  V30 9 2 9 10
M  V30 10 1 10 11
M  V30 11 2 11 12
M  V30 12 1 12 13
M  V30 13 1 11 14
M  V30 14 1 7 2
M  V30 15 1 12 5
M  V30 16 1 1 15
M  V30 17 1 1 16
M  V30 18 1 3 17
M  V30 19 1 8 18
M  V30 20 1 8 19
M  V30 21 1 9 20
M  V30 22 1 10 21
M  V30 END BOND
M  V30 END CTAB
M  END
