
     RDKit          3D

  0  0  0  0  0  0  0  0  0  0999 V3000
M  V30 BEGIN CTAB
M  V30 COUNTS 24 24 0 0 0
M  V30 BEGIN ATOM
M  V30 1 N -2.34582 -2.10222 -0.642577 0
M  V30 2 C -2.77287 -0.838655 -0.558594 0
M  V30 3 N -4.16257 -0.786235 -1.01132 0
M  V30 4 N -1.94583 0.128686 -0.255428 0
M  V30 5 C -1.06864 1.15479 0.0661389 0
M  V30 6 O -1.3 2.34814 0.240198 0
M  V30 7 C 0.383868 0.74512 0.225582 0
M  V30 8 N 0.805619 -0.490172 0.110522 0
M  V30 9 C 2.1041 -0.844782 0.251773 0
M  V30 10 C 2.55798 -2.24782 0.136589 0
M  V30 11 C 3.03366 0.132984 0.526286 0
M  V30 12 N 2.60829 1.40188 0.646801 0
M  V30 13 C 1.27622 1.74529 0.49872 0
M  V30 14 N 0.911995 3.09926 0.609872 0
M  V30 15 H -1.42779 -2.42814 -0.376251 0
M  V30 16 H -4.42575 0.056239 -1.54194 0
M  V30 17 H -4.80006 -1.53559 -0.788953 0
M  V30 18 H -2.96501 1.02162 -0.22441 0
M  V30 19 H 2.54587 -2.68919 1.15735 0
M  V30 20 H 3.55899 -2.2797 -0.353729 0
M  V30 21 H 1.78416 -2.80403 -0.4604 0
M  V30 22 H 4.0993 -0.0664386 0.643493 0
M  V30 23 H 0.636917 3.66987 -0.250239 0
M  V30 24 H 0.907345 3.60911 1.50781 0
M  V30 END ATOM
M  V30 BEGIN BOND
M  V30 1 2 1 2 CFG=2
M  V30 2 1 2 3
M  V30 3 1 2 4
M  V30 4 1 4 5
M  V30 5 2 5 6
M  V30 6 1 5 7
M  V30 7 2 7 8
M  V30 8 1 8 9
M  V30 9 1 9 10
M  V30 10 2 9 11
M  V30 11 1 11 12
M  V30 12 2 12 13
M  V30 13 1 13 14
M  V30 14 1 13 7
M  V30 15 1 1 15
M  V30 16 1 3 16
M  V30 17 1 3 17
M  V30 18 1 4 18
M  V30 19 1 10 19
M  V30 20 1 10 20
M  V30 21 1 10 21
M  V30 22 1 11 22
M  V30 23 1 14 23
M  V30 24 1 14 24
M  V30 END BOND
M  V30 END CTAB
M  END
