
     RDKit          3D

  0  0  0  0  0  0  0  0  0  0999 V3000
M  V30 BEGIN CTAB
M  V30 COUNTS 45 47 0 0 0
M  V30 BEGIN ATOM
M  V30 1 C -2.07219 1.53818 -2.16891 0
M  V30 2 C -2.71816 1.08387 -0.882416 0
M  V30 3 C -2.20641 1.978 0.263629 0
M  V30 4 N -4.1205 1.33817 -0.971909 0
M  V30 5 C -5.0798 0.543158 -0.801641 0
M  V30 6 N -6.40797 1.02689 -0.944033 0
M  V30 7 N -4.79646 -0.80535 -0.477466 0
M  V30 8 C -3.55652 -1.16452 -0.370697 0
M  V30 9 N -3.27213 -2.54466 -0.0382501 0
M  V30 10 N -2.4604 -0.281247 -0.566597 0
M  V30 11 C -1.1565 -0.825785 -0.436405 0
M  V30 12 C -0.503083 -0.831264 0.765951 0
M  V30 13 C 0.786984 -1.3711 0.884432 0
M  V30 14 C 1.43391 -1.90465 -0.178405 0
M  V30 15 C 2.81565 -2.4795 -0.104019 0
M  V30 16 S 4.10076 -1.37214 -0.574435 0
M  V30 17 C 4.50678 -0.0662775 0.528534 0
M  V30 18 C 5.35314 0.964469 0.0814546 0
M  V30 19 C 5.75454 2.00093 0.860421 0
M  V30 20 C 5.31085 2.05825 2.17735 0
M  V30 21 C 4.48736 1.08968 2.67633 0
M  V30 22 C 4.10645 0.0511645 1.83872 0
M  V30 23 C 0.770464 -1.90295 -1.41357 0
M  V30 24 C -0.491043 -1.36955 -1.50521 0
M  V30 25 H -2.71245 2.35401 -2.61586 0
M  V30 26 H -1.97211 0.765912 -2.92865 0
M  V30 27 H -1.12139 2.04678 -1.89361 0
M  V30 28 H -1.16306 1.76239 0.502301 0
M  V30 29 H -2.80712 1.76056 1.17324 0
M  V30 30 H -2.41783 3.01907 -0.0250378 0
M  V30 31 H -7.10804 0.54545 -1.55872 0
M  V30 32 H -6.73674 1.87453 -0.446109 0
M  V30 33 H -3.4965 -2.90183 0.909523 0
M  V30 34 H -2.84556 -3.20715 -0.718034 0
M  V30 35 H -0.960399 -0.423955 1.64329 0
M  V30 36 H 1.26811 -1.36141 1.87581 0
M  V30 37 H 3.00813 -2.81655 0.961626 0
M  V30 38 H 2.88841 -3.42472 -0.688466 0
M  V30 39 H 5.6963 0.912276 -0.949814 0
M  V30 40 H 6.402 2.77513 0.49003 0
M  V30 41 H 5.61397 2.87236 2.82212 0
M  V30 42 H 4.14067 1.11973 3.68072 0
M  V30 43 H 3.47509 -0.732001 2.22931 0
M  V30 44 H 1.25744 -2.31865 -2.27054 0
M  V30 45 H -0.994659 -1.37568 -2.47052 0
M  V30 END ATOM
M  V30 BEGIN BOND
M  V30 1 1 1 2
M  V30 2 1 2 3
M  V30 3 1 2 4
M  V30 4 2 4 5
M  V30 5 1 5 6
M  V30 6 1 5 7
M  V30 7 2 7 8
M  V30 8 1 8 9
M  V30 9 1 8 10
M  V30 10 1 10 11
M  V30 11 2 11 12
M  V30 12 1 12 13
M  V30 13 2 13 14
M  V30 14 1 14 15
M  V30 15 1 15 16
M  V30 16 1 16 17
M  V30 17 2 17 18
M  V30 18 1 18 19
M  V30 19 2 19 20
M  V30 20 1 20 21
M  V30 21 2 21 22
M  V30 22 1 14 23
M  V30 23 2 23 24
M  V30 24 1 10 2
M  V30 25 1 24 11
M  V30 26 1 22 17
M  V30 27 1 1 25
M  V30 28 1 1 26
M  V30 29 1 1 27
M  V30 30 1 3 28
M  V30 31 1 3 29
M  V30 32 1 3 30
M  V30 33 1 6 31
M  V30 34 1 6 32
M  V30 35 1 9 33
M  V30 36 1 9 34
M  V30 37 1 12 35
M  V30 38 1 13 36
M  V30 39 1 15 37
M  V30 40 1 15 38
M  V30 41 1 18 39
M  V30 42 1 19 40
M  V30 43 1 20 41
M  V30 44 1 21 42
M  V30 45 1 22 43
M  V30 46 1 23 44
M  V30 47 1 24 45
M  V30 END BOND
M  V30 END CTAB
M  END
