
     RDKit          3D

  0  0  0  0  0  0  0  0  0  0999 V3000
M  V30 BEGIN CTAB
M  V30 COUNTS 24 24 0 0 0
M  V30 BEGIN ATOM
M  V30 1 O -4.55716 -0.513365 -0.058279 0
M  V30 2 N -3.24741 -0.855425 -0.268536 0
M  V30 3 C -2.26719 -0.0664606 0.0330611 0
M  V30 4 C -0.887415 -0.457636 -0.20197 0
M  V30 5 C -0.576389 -1.70268 -0.762952 0
M  V30 6 C 0.730975 -2.0756 -0.986565 0
M  V30 7 C 1.71925 -1.17758 -0.637458 0
M  V30 8 C 1.43834 0.0506321 -0.0852461 0
M  V30 9 C 0.115975 0.420454 0.137691 0
M  V30 10 N -0.176623 1.67828 0.703396 0
M  V30 11 O 2.43038 0.965085 0.270908 0
M  V30 12 C 3.78011 0.612662 0.0543545 0
M  V30 13 N -2.5331 1.20081 0.601873 0
M  V30 14 H -4.87542 -0.382782 0.910749 0
M  V30 15 H -1.39435 -2.36762 -1.01752 0
M  V30 16 H 0.948999 -3.05179 -1.42522 0
M  V30 17 H 2.76554 -1.454 -0.806745 0
M  V30 18 H -0.27422 1.81258 1.72513 0
M  V30 19 H -0.299351 2.5004 0.0863992 0
M  V30 20 H 3.97254 0.289413 -0.990574 0
M  V30 21 H 4.46076 1.42647 0.298329 0
M  V30 22 H 4.0041 -0.243666 0.707039 0
M  V30 23 H -2.61922 1.31639 1.65553 0
M  V30 24 H -2.6591 2.07543 0.0566028 0
M  V30 END ATOM
M  V30 BEGIN BOND
M  V30 1 1 1 2
M  V30 2 2 2 3 CFG=2
M  V30 3 1 3 4
M  V30 4 2 4 5
M  V30 5 1 5 6
M  V30 6 2 6 7
M  V30 7 1 7 8
M  V30 8 2 8 9
M  V30 9 1 9 10
M  V30 10 1 8 11
M  V30 11 1 11 12
M  V30 12 1 3 13
M  V30 13 1 9 4
M  V30 14 1 1 14
M  V30 15 1 5 15
M  V30 16 1 6 16
M  V30 17 1 7 17
M  V30 18 1 10 18
M  V30 19 1 10 19
M  V30 20 1 12 20
M  V30 21 1 12 21
M  V30 22 1 12 22
M  V30 23 1 13 23
M  V30 24 1 13 24
M  V30 END BOND
M  V30 END CTAB
M  END
