
     RDKit          3D

  0  0  0  0  0  0  0  0  0  0999 V3000
M  V30 BEGIN CTAB
M  V30 COUNTS 68 71 0 0 0
M  V30 BEGIN ATOM
M  V30 1 C 8.31719 4.19913 0.177584 0
M  V30 2 C 7.7658 2.90648 -0.405859 0
M  V30 3 C 6.41459 2.57782 0.193852 0
M  V30 4 C 5.9603 1.29905 -0.434306 0
M  V30 5 C 4.63983 0.834413 0.0300456 0
M  V30 6 C 4.42111 0.0122643 1.09073 0
M  V30 7 C 3.12775 -0.355199 1.43559 0
M  V30 8 C 2.036 0.0833369 0.738578 0
M  V30 9 C 0.652177 -0.306151 1.11799 0
M  V30 10 C 0.258888 -1.59795 0.544745 0
M  V30 11 N 1.07508 -2.28223 -0.296462 0
M  V30 12 C 0.763377 -3.47862 -0.823769 0
M  V30 13 N 1.55121 -4.17495 -1.65556 0
M  V30 14 C 1.17477 -5.37304 -2.14707 0
M  V30 15 N 1.98921 -6.12875 -3.02792 0
M  V30 16 N -0.011862 -5.92265 -1.82333 0
M  V30 17 C -0.82872 -5.27561 -1.00452 0
M  V30 18 N -2.10276 -5.77484 -0.606628 0
M  V30 19 C -0.4565 -4.02891 -0.481614 0
M  V30 20 N -1.28051 -3.39497 0.334024 0
M  V30 21 C -0.940999 -2.16876 0.862984 0
M  V30 22 C -1.97659 -1.57914 1.73284 0
M  V30 23 C -2.85161 -0.602433 1.05629 0
M  V30 24 C -3.67473 -1.12876 0.0508477 0
M  V30 25 C -4.55419 -0.306666 -0.614111 0
M  V30 26 C -4.63589 1.05708 -0.295142 0
M  V30 27 C -5.58375 1.93006 -1.03808 0
M  V30 28 C -6.96549 1.95914 -0.472661 0
M  V30 29 C -7.09687 2.46172 0.922029 0
M  V30 30 C -6.64862 3.88989 1.10785 0
M  V30 31 C -3.81777 1.54928 0.694998 0
M  V30 32 C -2.92691 0.726664 1.37155 0
M  V30 33 C 2.25663 0.922076 -0.344241 0
M  V30 34 C 3.54724 1.29524 -0.69636 0
M  V30 35 H 9.40353 4.31088 0.0255791 0
M  V30 36 H 7.80593 5.01749 -0.356177 0
M  V30 37 H 8.10399 4.26431 1.26871 0
M  V30 38 H 7.68029 3.0184 -1.52978 0
M  V30 39 H 8.52433 2.11788 -0.251709 0
M  V30 40 H 5.73271 3.41876 -0.0608273 0
M  V30 41 H 6.51195 2.55617 1.28707 0
M  V30 42 H 6.69469 0.475577 -0.308052 0
M  V30 43 H 5.90011 1.45932 -1.52938 0
M  V30 44 H 5.29539 -0.332843 1.63795 0
M  V30 45 H 3.00562 -0.998 2.27059 0
M  V30 46 H -0.0366317 0.478577 0.676364 0
M  V30 47 H 0.478998 -0.305515 2.21145 0
M  V30 48 H 1.63292 -6.31222 -3.98549 0
M  V30 49 H 2.91865 -6.50847 -2.76972 0
M  V30 50 H -2.61282 -6.38073 -1.26087 0
M  V30 51 H -2.4948 -5.52951 0.31503 0
M  V30 52 H -2.66851 -2.37004 2.14476 0
M  V30 53 H -1.52329 -1.1418 2.66903 0
M  V30 54 H -3.60314 -2.17937 -0.185902 0
M  V30 55 H -5.19738 -0.70876 -1.39816 0
M  V30 56 H -5.65246 1.51209 -2.08663 0
M  V30 57 H -5.1073 2.94594 -1.108 0
M  V30 58 H -7.64006 2.53249 -1.16216 0
M  V30 59 H -7.35833 0.912851 -0.520913 0
M  V30 60 H -8.15745 2.33857 1.23248 0
M  V30 61 H -6.51723 1.79011 1.62137 0
M  V30 62 H -7.52349 4.50914 1.43464 0
M  V30 63 H -5.92778 3.95519 1.95971 0
M  V30 64 H -6.25413 4.36052 0.183069 0
M  V30 65 H -3.83982 2.61692 0.976239 0
M  V30 66 H -2.27165 1.1171 2.16421 0
M  V30 67 H 1.40561 1.27481 -0.904213 0
M  V30 68 H 3.69417 1.96014 -1.55677 0
M  V30 END ATOM
M  V30 BEGIN BOND
M  V30 1 1 1 2
M  V30 2 1 2 3
M  V30 3 1 3 4
M  V30 4 1 4 5
M  V30 5 2 5 6
M  V30 6 1 6 7
M  V30 7 2 7 8
M  V30 8 1 8 9
M  V30 9 1 9 10
M  V30 10 2 10 11
M  V30 11 1 11 12
M  V30 12 2 12 13
M  V30 13 1 13 14
M  V30 14 1 14 15
M  V30 15 2 14 16
M  V30 16 1 16 17
M  V30 17 1 17 18
M  V30 18 2 17 19
M  V30 19 1 19 20
M  V30 20 2 20 21
M  V30 21 1 21 22
M  V30 22 1 22 23
M  V30 23 2 23 24
M  V30 24 1 24 25
M  V30 25 2 25 26
M  V30 26 1 26 27
M  V30 27 1 27 28
M  V30 28 1 28 29
M  V30 29 1 29 30
M  V30 30 1 26 31
M  V30 31 2 31 32
M  V30 32 1 8 33
M  V30 33 2 33 34
M  V30 34 1 34 5
M  V30 35 1 21 10
M  V30 36 1 32 23
M  V30 37 1 19 12
M  V30 38 1 1 35
M  V30 39 1 1 36
M  V30 40 1 1 37
M  V30 41 1 2 38
M  V30 42 1 2 39
M  V30 43 1 3 40
M  V30 44 1 3 41
M  V30 45 1 4 42
M  V30 46 1 4 43
M  V30 47 1 6 44
M  V30 48 1 7 45
M  V30 49 1 9 46
M  V30 50 1 9 47
M  V30 51 1 15 48
M  V30 52 1 15 49
M  V30 53 1 18 50
M  V30 54 1 18 51
M  V30 55 1 22 52
M  V30 56 1 22 53
M  V30 57 1 24 54
M  V30 58 1 25 55
M  V30 59 1 27 56
M  V30 60 1 27 57
M  V30 61 1 28 58
M  V30 62 1 28 59
M  V30 63 1 29 60
M  V30 64 1 29 61
M  V30 65 1 30 62
M  V30 66 1 30 63
M  V30 67 1 30 64
M  V30 68 1 31 65
M  V30 69 1 32 66
M  V30 70 1 33 67
M  V30 71 1 34 68
M  V30 END BOND
M  V30 END CTAB
M  END
