
     RDKit          3D

  0  0  0  0  0  0  0  0  0  0999 V3000
M  V30 BEGIN CTAB
M  V30 COUNTS 28 29 0 0 0
M  V30 BEGIN ATOM
M  V30 1 C 3.69576 -0.638871 -0.385242 0
M  V30 2 C 2.16826 -0.698957 -0.141555 0
M  V30 3 C 1.6644 0.0268724 1.04833 0
M  V30 4 C 1.39924 0.547231 -0.338613 0
M  V30 5 C 0.0276747 0.69515 -0.8339 0
M  V30 6 C -1.02909 -0.00885393 -0.0903262 0
M  V30 7 C -1.0988 -1.35459 0.0492522 0
M  V30 8 N -2.20613 -1.89697 0.65276 0
M  V30 9 C -3.23345 -1.20349 1.10854 0
M  V30 10 C -3.19993 0.180487 0.973188 0
M  V30 11 C -2.09512 0.761213 0.378648 0
M  V30 12 N -2.05111 2.17716 0.294726 0
M  V30 13 N -0.0504363 0.0756437 -2.21138 0
M  V30 14 H 4.07221 0.389322 -0.255689 0
M  V30 15 H 3.84809 -0.979988 -1.41795 0
M  V30 16 H 4.22737 -1.2853 0.338274 0
M  V30 17 H 1.82413 -1.73203 -0.256528 0
M  V30 18 H 0.767125 -0.374278 1.54619 0
M  V30 19 H 2.30703 0.632613 1.71354 0
M  V30 20 H 2.07883 1.4547 -0.573303 0
M  V30 21 H -0.21442 1.76323 -1.01571 0
M  V30 22 H -0.342468 -2.03727 -0.332387 0
M  V30 23 H -4.12544 -1.60371 1.56099 0
M  V30 24 H -4.00752 0.799082 1.33404 0
M  V30 25 H -2.34824 2.64557 -0.562343 0
M  V30 26 H -1.71252 2.75929 1.10057 0
M  V30 27 H -0.982327 -0.353005 -2.29854 0
M  V30 28 H 0.616873 -0.740247 -2.16438 0
M  V30 END ATOM
M  V30 BEGIN BOND
M  V30 1 1 1 2
M  V30 2 1 2 3
M  V30 3 1 3 4
M  V30 4 1 4 5
M  V30 5 1 5 6
M  V30 6 2 6 7
M  V30 7 1 7 8
M  V30 8 2 8 9
M  V30 9 1 9 10
M  V30 10 2 10 11
M  V30 11 1 11 12
M  V30 12 1 5 13
M  V30 13 1 4 2
M  V30 14 1 11 6
M  V30 15 1 1 14
M  V30 16 1 1 15
M  V30 17 1 1 16
M  V30 18 1 2 17
M  V30 19 1 3 18
M  V30 20 1 3 19
M  V30 21 1 4 20
M  V30 22 1 5 21
M  V30 23 1 7 22
M  V30 24 1 9 23
M  V30 25 1 10 24
M  V30 26 1 12 25
M  V30 27 1 12 26
M  V30 28 1 13 27
M  V30 29 1 13 28
M  V30 END BOND
M  V30 END CTAB
M  END
