
     RDKit          3D

  0  0  0  0  0  0  0  0  0  0999 V3000
M  V30 BEGIN CTAB
M  V30 COUNTS 25 26 0 0 0
M  V30 BEGIN ATOM
M  V30 1 N 4.80303 0.31088 0.679104 0
M  V30 2 N 3.49196 -0.112152 0.879103 0
M  V30 3 C 2.40233 0.352366 0.0887429 0
M  V30 4 O 2.67717 1.17911 -0.818296 0
M  V30 5 C 1.04382 -0.0683728 0.275355 0
M  V30 6 C 0.642754 -0.971029 1.24291 0
M  V30 7 N -0.634106 -1.35719 1.40742 0
M  V30 8 C -1.63734 -0.875516 0.616438 0
M  V30 9 C -1.26078 0.0268219 -0.356271 0
M  V30 10 C 0.0530213 0.434422 -0.53758 0
M  V30 11 N 0.393027 1.37672 -1.56537 0
M  V30 12 C -2.23475 0.544657 -1.18302 0
M  V30 13 C -3.53855 0.135395 -0.997487 0
M  V30 14 C -3.92096 -0.768669 -0.024071 0
M  V30 15 C -2.9425 -1.28293 0.799501 0
M  V30 16 Br -5.7568 -1.28612 0.168237 0
M  V30 17 H 5.19934 -0.0404453 -0.222965 0
M  V30 18 H 4.90039 1.34896 0.650086 0
M  V30 19 H 3.33888 -0.802049 1.65322 0
M  V30 20 H 1.40165 -1.38631 1.90093 0
M  V30 21 H 0.69283 1.02038 -2.49346 0
M  V30 22 H 0.334275 2.41196 -1.36576 0
M  V30 23 H -1.93389 1.24691 -1.93829 0
M  V30 24 H -4.3074 0.548612 -1.65534 0
M  V30 25 H -3.20742 -1.9864 1.5643 0
M  V30 END ATOM
M  V30 BEGIN BOND
M  V30 1 1 1 2
M  V30 2 1 2 3
M  V30 3 2 3 4
M  V30 4 1 3 5
M  V30 5 2 5 6
M  V30 6 1 6 7
M  V30 7 2 7 8
M  V30 8 1 8 9
M  V30 9 2 9 10
M  V30 10 1 10 11
M  V30 11 1 9 12
M  V30 12 2 12 13
M  V30 13 1 13 14
M  V30 14 2 14 15
M  V30 15 1 14 16
M  V30 16 1 10 5
M  V30 17 1 15 8
M  V30 18 1 1 17
M  V30 19 1 1 18
M  V30 20 1 2 19
M  V30 21 1 6 20
M  V30 22 1 11 21
M  V30 23 1 11 22
M  V30 24 1 12 23
M  V30 25 1 13 24
M  V30 26 1 15 25
M  V30 END BOND
M  V30 END CTAB
M  END
