
     RDKit          3D

  0  0  0  0  0  0  0  0  0  0999 V3000
M  V30 BEGIN CTAB
M  V30 COUNTS 75 79 0 0 0
M  V30 BEGIN ATOM
M  V30 1 N 12.2108 1.8088 -1.07605 0
M  V30 2 C 11.065 1.06555 -0.723135 0
M  V30 3 N 10.0315 1.58298 -0.0276026 0
M  V30 4 C 8.93518 0.889946 0.321195 0
M  V30 5 C 8.82501 -0.431486 -0.036115 0
M  V30 6 N 7.7535 -1.16099 0.297431 0
M  V30 7 C 6.72519 -0.597532 1.01722 0
M  V30 8 C 5.61365 -1.50849 1.33508 0
M  V30 9 N 4.58272 -1.4246 0.321635 0
M  V30 10 C 3.42692 -0.641795 0.470237 0
M  V30 11 C 2.47898 -0.636235 -0.563904 0
M  V30 12 C 2.66171 -1.25675 -1.76069 0
M  V30 13 C 1.75123 -1.22312 -2.78478 0
M  V30 14 C 0.576855 -0.531725 -2.62774 0
M  V30 15 C 0.3541 0.108407 -1.4367 0
M  V30 16 C 1.27201 0.07655 -0.393317 0
M  V30 17 C 1.00979 0.75314 0.750854 0
M  V30 18 C 1.95758 0.756799 1.78693 0
M  V30 19 C 3.13428 0.059923 1.61367 0
M  V30 20 C -0.259058 1.35935 1.1023 0
M  V30 21 O -0.301425 2.54442 1.58402 0
M  V30 22 N -1.45355 0.631238 0.927678 0
M  V30 23 C -2.78081 1.17758 1.30122 0 CFG=1
M  V30 24 C -3.50462 1.38205 0.0296354 0
M  V30 25 C -3.74974 0.244988 -0.856288 0
M  V30 26 C -4.64535 -0.831962 -0.448941 0
M  V30 27 N -6.0301 -0.621977 -0.437776 0
M  V30 28 C -6.94106 0.212574 0.18793 0
M  V30 29 O -6.63371 1.10068 0.99304 0
M  V30 30 C -8.40162 0.0510818 -0.0921588 0
M  V30 31 C -8.98239 0.41575 -1.25376 0
M  V30 32 C -10.3564 0.142401 -1.42728 0
M  V30 33 C -11.0684 -0.479227 -0.426847 0
M  V30 34 C -10.484 -0.860566 0.778198 0
M  V30 35 C -9.15432 -0.586119 0.922837 0
M  V30 36 C -8.24768 1.1023 -2.29688 0
M  V30 37 O -6.93804 1.41912 -2.18362 0
M  V30 38 O -8.88109 1.41571 -3.35929 0
M  V30 39 C -3.31739 0.427851 2.4101 0
M  V30 40 O -4.45974 0.684575 3.15555 0
M  V30 41 O -2.70257 -0.639481 2.83176 0
M  V30 42 C 6.80947 0.711009 1.38393 0
M  V30 43 N 7.91574 1.42931 1.02757 0
M  V30 44 C 9.88541 -0.992681 -0.759451 0
M  V30 45 N 9.75645 -2.36035 -1.11678 0
M  V30 46 N 10.9564 -0.24848 -1.07882 0
M  V30 47 H 13.146 1.39868 -0.942895 0
M  V30 48 H 12.1102 2.75531 -1.46511 0
M  V30 49 H 5.22922 -1.31338 2.33488 0
M  V30 50 H 5.98191 -2.5797 1.38938 0
M  V30 51 H 4.74988 -1.9918 -0.555286 0
M  V30 52 H 3.55925 -1.81251 -1.94911 0
M  V30 53 H 1.95247 -1.75096 -3.73804 0
M  V30 54 H -0.160582 -0.502476 -3.44635 0
M  V30 55 H -0.565342 0.672537 -1.36335 0
M  V30 56 H 1.7885 1.28714 2.71045 0
M  V30 57 H 3.89317 0.0554874 2.4092 0
M  V30 58 H -1.427 -0.330105 0.54401 0
M  V30 59 H -2.53103 2.20791 1.69436 0
M  V30 60 H -2.73538 2.0602 -0.572665 0
M  V30 61 H -4.32036 2.1265 0.136874 0
M  V30 62 H -4.10365 0.673522 -1.8858 0
M  V30 63 H -2.75553 -0.219251 -1.21702 0
M  V30 64 H -4.3436 -1.2405 0.599993 0
M  V30 65 H -4.46771 -1.7712 -1.08883 0
M  V30 66 H -6.60972 -1.32074 -1.14171 0
M  V30 67 H -10.7971 0.4428 -2.36008 0
M  V30 68 H -12.1198 -0.710458 -0.52155 0
M  V30 69 H -11.048 -1.35883 1.57072 0
M  V30 70 H -8.65201 -0.864158 1.84246 0
M  V30 71 H -6.49696 2.19837 -1.74722 0
M  V30 72 H -5.05508 -0.0248961 3.56941 0
M  V30 73 H 6.01252 1.18927 1.95839 0
M  V30 74 H 10.144 -2.79317 -1.98355 0
M  V30 75 H 9.2254 -3.00412 -0.460286 0
M  V30 END ATOM
M  V30 BEGIN BOND
M  V30 1 1 1 2
M  V30 2 2 2 3
M  V30 3 1 3 4
M  V30 4 2 4 5
M  V30 5 1 5 6
M  V30 6 2 6 7
M  V30 7 1 7 8
M  V30 8 1 8 9
M  V30 9 1 9 10
M  V30 10 1 10 11
M  V30 11 2 11 12
M  V30 12 1 12 13
M  V30 13 2 13 14
M  V30 14 1 14 15
M  V30 15 2 15 16
M  V30 16 1 16 17
M  V30 17 2 17 18
M  V30 18 1 18 19
M  V30 19 1 17 20
M  V30 20 2 20 21
M  V30 21 1 20 22
M  V30 22 1 22 23
M  V30 23 1 23 24
M  V30 24 1 24 25
M  V30 25 1 25 26
M  V30 26 1 26 27
M  V30 27 1 27 28
M  V30 28 2 28 29
M  V30 29 1 28 30
M  V30 30 2 30 31
M  V30 31 1 31 32
M  V30 32 2 32 33
M  V30 33 1 33 34
M  V30 34 2 34 35
M  V30 35 1 31 36
M  V30 36 1 36 37
M  V30 37 2 36 38
M  V30 38 1 23 39
M  V30 39 1 39 40
M  V30 40 2 39 41
M  V30 41 1 7 42
M  V30 42 2 42 43
M  V30 43 1 5 44
M  V30 44 1 44 45
M  V30 45 2 44 46
M  V30 46 1 46 2
M  V30 47 1 43 4
M  V30 48 2 19 10
M  V30 49 1 35 30
M  V30 50 1 16 11
M  V30 51 1 1 47
M  V30 52 1 1 48
M  V30 53 1 8 49
M  V30 54 1 8 50
M  V30 55 1 9 51
M  V30 56 1 12 52
M  V30 57 1 13 53
M  V30 58 1 14 54
M  V30 59 1 15 55
M  V30 60 1 18 56
M  V30 61 1 19 57
M  V30 62 1 22 58
M  V30 63 1 23 59 CFG=1
M  V30 64 1 24 60
M  V30 65 1 24 61
M  V30 66 1 25 62
M  V30 67 1 25 63
M  V30 68 1 26 64
M  V30 69 1 26 65
M  V30 70 1 27 66
M  V30 71 1 32 67
M  V30 72 1 33 68
M  V30 73 1 34 69
M  V30 74 1 35 70
M  V30 75 1 37 71
M  V30 76 1 40 72
M  V30 77 1 42 73
M  V30 78 1 45 74
M  V30 79 1 45 75
M  V30 END BOND
M  V30 END CTAB
M  END
