
     RDKit          3D

  0  0  0  0  0  0  0  0  0  0999 V3000
M  V30 BEGIN CTAB
M  V30 COUNTS 56 57 0 0 0
M  V30 BEGIN ATOM
M  V30 1 C -6.91984 -3.29169 -1.13389 0
M  V30 2 N -7.68215 -2.07582 -1.20933 0
M  V30 3 C -9.0484 -2.06779 -0.761934 0
M  V30 4 C -7.09491 -0.902113 -1.71828 0
M  V30 5 S -7.98532 0.478942 -1.79592 0
M  V30 6 O -5.79096 -0.916959 -2.14444 0
M  V30 7 C -4.74939 -0.192069 -1.58441 0
M  V30 8 C -3.48582 -0.305747 -2.12193 0
M  V30 9 C -2.41488 0.41862 -1.57247 0
M  V30 10 C -2.59138 1.24971 -0.498486 0
M  V30 11 C -1.49034 1.99867 0.0739637 0
M  V30 12 C -0.727369 1.39837 1.18288 0
M  V30 13 C -0.00946941 0.114409 0.894085 0
M  V30 14 C 1.04131 0.20395 -0.164092 0
M  V30 15 N 2.09119 1.15001 0.175009 0
M  V30 16 C 3.12755 1.30532 -0.774506 0
M  V30 17 N 2.85507 1.80859 -1.92005 0
M  V30 18 N 4.46476 0.918916 -0.498976 0
M  V30 19 C 4.82401 0.357924 0.751067 0
M  V30 20 O 3.95325 0.194239 1.64183 0
M  V30 21 C 6.19973 -0.0251995 0.99548 0
M  V30 22 N 7.10994 0.159397 0.0256874 0
M  V30 23 C 8.39257 -0.178827 0.203484 0
M  V30 24 Cl 9.51285 0.0960619 -1.11408 0
M  V30 25 C 8.81749 -0.729228 1.39399 0
M  V30 26 N 10.1867 -1.08736 1.57786 0
M  V30 27 N 7.88918 -0.903197 2.34656 0
M  V30 28 C 6.6004 -0.580979 2.21327 0
M  V30 29 N 5.63173 -0.769945 3.2266 0
M  V30 30 C -3.86718 1.34533 0.0211017 0
M  V30 31 C -4.94439 0.640983 -0.502239 0
M  V30 32 H -7.44417 -4.1048 -0.613863 0
M  V30 33 H -5.89737 -3.11378 -0.715432 0
M  V30 34 H -6.72688 -3.62685 -2.19418 0
M  V30 35 H -9.60698 -1.17176 -1.15498 0
M  V30 36 H -9.17145 -2.14263 0.327165 0
M  V30 37 H -9.59502 -2.95617 -1.19012 0
M  V30 38 H -3.33552 -0.961203 -2.97169 0
M  V30 39 H -1.45897 0.275209 -2.05816 0
M  V30 40 H -1.82364 3.03582 0.362951 0
M  V30 41 H -0.755148 2.18759 -0.766569 0
M  V30 42 H -1.29017 1.30038 2.13621 0
M  V30 43 H 0.0910926 2.13871 1.44327 0
M  V30 44 H -0.715829 -0.710993 0.68349 0
M  V30 45 H 0.522389 -0.162661 1.84507 0
M  V30 46 H 0.707547 0.448071 -1.16605 0
M  V30 47 H 1.51784 -0.810957 -0.222537 0
M  V30 48 H 2.07317 1.68027 1.0704 0
M  V30 49 H 1.88819 2.09686 -2.14427 0
M  V30 50 H 5.2112 1.05138 -1.24077 0
M  V30 51 H 10.4446 -1.50333 2.5009 0
M  V30 52 H 10.8594 -0.9291 0.815587 0
M  V30 53 H 5.24981 -1.71404 3.42747 0
M  V30 54 H 5.26826 0.0232685 3.80436 0
M  V30 55 H -3.98733 2.00614 0.868564 0
M  V30 56 H -5.92098 0.754426 -0.0546377 0
M  V30 END ATOM
M  V30 BEGIN BOND
M  V30 1 1 1 2
M  V30 2 1 2 3
M  V30 3 1 2 4
M  V30 4 2 4 5
M  V30 5 1 4 6
M  V30 6 1 6 7
M  V30 7 2 7 8
M  V30 8 1 8 9
M  V30 9 2 9 10
M  V30 10 1 10 11
M  V30 11 1 11 12
M  V30 12 1 12 13
M  V30 13 1 13 14
M  V30 14 1 14 15
M  V30 15 1 15 16
M  V30 16 2 16 17 CFG=2
M  V30 17 1 16 18
M  V30 18 1 18 19
M  V30 19 2 19 20
M  V30 20 1 19 21
M  V30 21 2 21 22
M  V30 22 1 22 23
M  V30 23 1 23 24
M  V30 24 2 23 25
M  V30 25 1 25 26
M  V30 26 1 25 27
M  V30 27 2 27 28
M  V30 28 1 28 29
M  V30 29 1 10 30
M  V30 30 2 30 31
M  V30 31 1 31 7
M  V30 32 1 28 21
M  V30 33 1 1 32
M  V30 34 1 1 33
M  V30 35 1 1 34
M  V30 36 1 3 35
M  V30 37 1 3 36
M  V30 38 1 3 37
M  V30 39 1 8 38
M  V30 40 1 9 39
M  V30 41 1 11 40
M  V30 42 1 11 41
M  V30 43 1 12 42
M  V30 44 1 12 43
M  V30 45 1 13 44
M  V30 46 1 13 45
M  V30 47 1 14 46
M  V30 48 1 14 47
M  V30 49 1 15 48
M  V30 50 1 17 49
M  V30 51 1 18 50
M  V30 52 1 26 51
M  V30 53 1 26 52
M  V30 54 1 29 53
M  V30 55 1 29 54
M  V30 56 1 30 55
M  V30 57 1 31 56
M  V30 END BOND
M  V30 END CTAB
M  END
