
     RDKit          3D

  0  0  0  0  0  0  0  0  0  0999 V3000
M  V30 BEGIN CTAB
M  V30 COUNTS 42 43 0 0 0
M  V30 BEGIN ATOM
M  V30 1 C -2.6515 1.38094 -2.22993 0
M  V30 2 C -2.42706 1.98188 -0.834841 0
M  V30 3 C -2.85996 0.955285 0.133177 0
M  V30 4 C -2.05446 -0.0249739 0.589171 0
M  V30 5 C -0.653861 -0.116425 0.260489 0
M  V30 6 C 0.262721 0.753045 0.869847 0
M  V30 7 C 1.59621 0.680382 0.632666 0
M  V30 8 C 2.1297 -0.259473 -0.227806 0
M  V30 9 C 1.23814 -1.11365 -0.829068 0
M  V30 10 C -0.115013 -1.04754 -0.595016 0
M  V30 11 C 3.58432 -0.304966 -0.417254 0
M  V30 12 C 4.26954 0.223719 0.836631 0
M  V30 13 C 3.95204 0.567647 -1.58891 0
M  V30 14 C 4.1262 -1.7127 -0.60118 0
M  V30 15 C -2.58599 -0.972489 1.44205 0
M  V30 16 N -1.74266 -1.99367 1.92261 0
M  V30 17 N -3.88915 -0.908609 1.80687 0
M  V30 18 C -4.68416 0.0670036 1.35133 0
M  V30 19 N -6.0689 0.0974947 1.75703 0
M  V30 20 N -4.17865 0.98503 0.526185 0
M  V30 21 H -3.77956 1.26259 -2.28593 0
M  V30 22 H -2.26712 0.359663 -2.22037 0
M  V30 23 H -2.27217 2.00947 -3.038 0
M  V30 24 H -2.90149 2.96083 -0.709332 0
M  V30 25 H -1.32509 2.15714 -0.77709 0
M  V30 26 H -0.140217 1.50369 1.55409 0
M  V30 27 H 2.22137 1.41231 1.16905 0
M  V30 28 H 1.62858 -1.8653 -1.50596 0
M  V30 29 H -0.803613 -1.72846 -1.08024 0
M  V30 30 H 3.61609 0.0772343 1.70425 0
M  V30 31 H 5.21465 -0.331713 1.05007 0
M  V30 32 H 4.51781 1.27973 0.737184 0
M  V30 33 H 3.32341 0.28775 -2.46901 0
M  V30 34 H 3.74934 1.623 -1.28039 0
M  V30 35 H 5.02651 0.397003 -1.82246 0
M  V30 36 H 5.23602 -1.61811 -0.50794 0
M  V30 37 H 3.91245 -2.15072 -1.57987 0
M  V30 38 H 3.81244 -2.32754 0.255995 0
M  V30 39 H -1.12773 -1.815 2.73292 0
M  V30 40 H -1.7414 -2.92111 1.47583 0
M  V30 41 H -6.69966 -0.6557 1.4376 0
M  V30 42 H -6.44812 0.845308 2.35553 0
M  V30 END ATOM
M  V30 BEGIN BOND
M  V30 1 1 1 2
M  V30 2 1 2 3
M  V30 3 2 3 4
M  V30 4 1 4 5
M  V30 5 2 5 6
M  V30 6 1 6 7
M  V30 7 2 7 8
M  V30 8 1 8 9
M  V30 9 2 9 10
M  V30 10 1 8 11
M  V30 11 1 11 12
M  V30 12 1 11 13
M  V30 13 1 11 14
M  V30 14 1 4 15
M  V30 15 1 15 16
M  V30 16 2 15 17
M  V30 17 1 17 18
M  V30 18 1 18 19
M  V30 19 2 18 20
M  V30 20 1 20 3
M  V30 21 1 10 5
M  V30 22 1 1 21
M  V30 23 1 1 22
M  V30 24 1 1 23
M  V30 25 1 2 24
M  V30 26 1 2 25
M  V30 27 1 6 26
M  V30 28 1 7 27
M  V30 29 1 9 28
M  V30 30 1 10 29
M  V30 31 1 12 30
M  V30 32 1 12 31
M  V30 33 1 12 32
M  V30 34 1 13 33
M  V30 35 1 13 34
M  V30 36 1 13 35
M  V30 37 1 14 36
M  V30 38 1 14 37
M  V30 39 1 14 38
M  V30 40 1 16 39
M  V30 41 1 16 40
M  V30 42 1 19 41
M  V30 43 1 19 42
M  V30 END BOND
M  V30 END CTAB
M  END
