
     RDKit          3D

  0  0  0  0  0  0  0  0  0  0999 V3000
M  V30 BEGIN CTAB
M  V30 COUNTS 23 24 0 0 0
M  V30 BEGIN ATOM
M  V30 1 N -2.76158 2.2367 1.06587 0
M  V30 2 C -2.15464 1.09945 0.44897 0
M  V30 3 C -0.974343 1.24658 -0.274599 0
M  V30 4 C -0.417013 0.143043 -0.853034 0
M  V30 5 C 0.823153 0.245814 -1.62376 0
M  V30 6 C 2.04645 0.0503703 -0.75672 0
M  V30 7 N 2.67867 -1.07787 -0.473071 0
M  V30 8 C 3.71852 -1.0579 0.293723 0
M  V30 9 C 4.12663 0.155627 0.787683 0
M  V30 10 S 2.96238 1.20849 0.101284 0
M  V30 11 N -1.01269 -1.0486 -0.713406 0
M  V30 12 C -2.15579 -1.21188 -0.0168415 0
M  V30 13 N -2.69294 -0.11513 0.547347 0
M  V30 14 N -2.77493 -2.49417 0.119445 0
M  V30 15 H -2.21448 3.10464 1.19807 0
M  V30 16 H -3.75893 2.15947 1.37208 0
M  V30 17 H -0.528408 2.23936 -0.358799 0
M  V30 18 H 0.968384 1.23991 -2.0961 0
M  V30 19 H 0.879701 -0.517285 -2.4047 0
M  V30 20 H 4.27686 -1.98166 0.555858 0
M  V30 21 H 4.98856 0.348576 1.45153 0
M  V30 22 H -3.79389 -2.62377 -0.0531164 0
M  V30 23 H -2.22968 -3.34976 0.397096 0
M  V30 END ATOM
M  V30 BEGIN BOND
M  V30 1 1 1 2
M  V30 2 2 2 3
M  V30 3 1 3 4
M  V30 4 1 4 5
M  V30 5 1 5 6
M  V30 6 2 6 7
M  V30 7 1 7 8
M  V30 8 2 8 9
M  V30 9 1 9 10
M  V30 10 2 4 11
M  V30 11 1 11 12
M  V30 12 2 12 13
M  V30 13 1 12 14
M  V30 14 1 13 2
M  V30 15 1 10 6
M  V30 16 1 1 15
M  V30 17 1 1 16
M  V30 18 1 3 17
M  V30 19 1 5 18
M  V30 20 1 5 19
M  V30 21 1 8 20
M  V30 22 1 9 21
M  V30 23 1 14 22
M  V30 24 1 14 23
M  V30 END BOND
M  V30 END CTAB
M  END
