
     RDKit          3D

  0  0  0  0  0  0  0  0  0  0999 V3000
M  V30 BEGIN CTAB
M  V30 COUNTS 55 56 0 0 0
M  V30 BEGIN ATOM
M  V30 1 C 5.94825 1.28467 -0.369596 0
M  V30 2 C 4.85455 2.0159 -1.08515 0
M  V30 3 O 3.6581 1.35286 -1.15819 0
M  V30 4 C 3.15469 1.08449 0.0890285 0
M  V30 5 C 1.68915 1.49908 0.275801 0
M  V30 6 C 1.30828 0.0923349 -0.0964575 0
M  V30 7 C 2.68292 -0.347974 0.306664 0
M  V30 8 C 2.87346 -0.729396 1.73889 0
M  V30 9 C 3.3225 -1.31953 -0.692687 0
M  V30 10 N 1.07516 -0.00357112 -1.52137 0
M  V30 11 C 0.183774 -0.417693 0.683146 0
M  V30 12 O 0.230352 -0.403298 1.96101 0
M  V30 13 N -1.00335 -0.948922 0.108769 0
M  V30 14 C -2.11048 -1.45127 0.89422 0
M  V30 15 C -3.34371 -0.610059 0.750258 0
M  V30 16 C -2.96861 0.79961 1.23587 0
M  V30 17 C -4.25744 1.56691 1.31951 0
M  V30 18 C -4.74513 1.80259 -0.0927942 0
M  V30 19 C -4.01869 0.957883 -1.08263 0
M  V30 20 C -3.88862 -0.498159 -0.628984 0
M  V30 21 C -2.33927 -2.9229 0.743773 0
M  V30 22 N -2.63078 -3.35978 -0.587404 0
M  V30 23 H 6.54751 0.706255 -1.10334 0
M  V30 24 H 5.59496 0.590576 0.406613 0
M  V30 25 H 6.62915 2.0204 0.111476 0
M  V30 26 H 4.72935 3.0197 -0.593558 0
M  V30 27 H 5.16965 2.24861 -2.14305 0
M  V30 28 H 3.81768 1.45921 0.889036 0
M  V30 29 H 1.34104 2.25025 -0.433662 0
M  V30 30 H 1.52825 1.76066 1.35467 0
M  V30 31 H 2.60005 0.139754 2.36635 0
M  V30 32 H 2.35624 -1.64691 2.04085 0
M  V30 33 H 3.97115 -0.938994 1.87302 0
M  V30 34 H 4.02785 -1.97211 -0.168385 0
M  V30 35 H 3.80308 -0.728385 -1.49375 0
M  V30 36 H 2.52427 -1.99735 -1.10679 0
M  V30 37 H 1.93341 -0.164254 -2.07513 0
M  V30 38 H 0.455701 0.749365 -1.89039 0
M  V30 39 H -1.02603 -0.953602 -0.954069 0
M  V30 40 H -1.79206 -1.3144 1.97517 0
M  V30 41 H -4.1561 -0.937144 1.42874 0
M  V30 42 H -2.53975 0.694007 2.25554 0
M  V30 43 H -2.3091 1.30199 0.532023 0
M  V30 44 H -5.02751 1.01574 1.91345 0
M  V30 45 H -4.02339 2.52702 1.8447 0
M  V30 46 H -5.85124 1.68966 -0.142186 0
M  V30 47 H -4.55326 2.88361 -0.312128 0
M  V30 48 H -4.66376 0.9088 -2.00789 0
M  V30 49 H -3.05857 1.39344 -1.36264 0
M  V30 50 H -3.29115 -1.00049 -1.41196 0
M  V30 51 H -4.91481 -0.916861 -0.7098 0
M  V30 52 H -1.3592 -3.41468 1.02393 0
M  V30 53 H -3.05406 -3.24413 1.49745 0
M  V30 54 H -3.24757 -4.19631 -0.623945 0
M  V30 55 H -1.83695 -3.37723 -1.22556 0
M  V30 END ATOM
M  V30 BEGIN BOND
M  V30 1 1 1 2
M  V30 2 1 2 3
M  V30 3 1 3 4
M  V30 4 1 4 5
M  V30 5 1 5 6
M  V30 6 1 6 7
M  V30 7 1 7 8
M  V30 8 1 7 9
M  V30 9 1 6 10
M  V30 10 1 6 11
M  V30 11 2 11 12
M  V30 12 1 11 13
M  V30 13 1 13 14
M  V30 14 1 14 15
M  V30 15 1 15 16
M  V30 16 1 16 17
M  V30 17 1 17 18
M  V30 18 1 18 19
M  V30 19 1 19 20
M  V30 20 1 14 21
M  V30 21 1 21 22
M  V30 22 1 7 4
M  V30 23 1 20 15
M  V30 24 1 1 23
M  V30 25 1 1 24
M  V30 26 1 1 25
M  V30 27 1 2 26
M  V30 28 1 2 27
M  V30 29 1 4 28
M  V30 30 1 5 29
M  V30 31 1 5 30
M  V30 32 1 8 31
M  V30 33 1 8 32
M  V30 34 1 8 33
M  V30 35 1 9 34
M  V30 36 1 9 35
M  V30 37 1 9 36
M  V30 38 1 10 37
M  V30 39 1 10 38
M  V30 40 1 13 39
M  V30 41 1 14 40
M  V30 42 1 15 41
M  V30 43 1 16 42
M  V30 44 1 16 43
M  V30 45 1 17 44
M  V30 46 1 17 45
M  V30 47 1 18 46
M  V30 48 1 18 47
M  V30 49 1 19 48
M  V30 50 1 19 49
M  V30 51 1 20 50
M  V30 52 1 20 51
M  V30 53 1 21 52
M  V30 54 1 21 53
M  V30 55 1 22 54
M  V30 56 1 22 55
M  V30 END BOND
M  V30 END CTAB
M  END
