
     RDKit          3D

  0  0  0  0  0  0  0  0  0  0999 V3000
M  V30 BEGIN CTAB
M  V30 COUNTS 57 56 0 0 0
M  V30 BEGIN ATOM
M  V30 1 C 2.89255 -1.68242 -1.47263 0 CFG=1
M  V30 2 N 3.40257 -0.850783 -2.44579 0
M  V30 3 C 3.82143 -2.46038 -0.606953 0
M  V30 4 C 4.78186 -1.74553 0.239225 0
M  V30 5 C 5.7944 -0.871103 -0.447925 0
M  V30 6 N 6.69487 -0.264888 0.55172 0
M  V30 7 C 7.69998 0.608526 0.108225 0
M  V30 8 N 8.17546 1.61976 0.983785 0
M  V30 9 N 8.19161 0.51025 -1.06112 0
M  V30 10 C 1.90733 -1.02999 -0.606506 0
M  V30 11 O 1.37504 -1.76166 0.273547 0
M  V30 12 N 1.5628 0.312388 -0.725353 0
M  V30 13 C 0.575464 0.92961 0.14547 0
M  V30 14 C -0.729314 0.262019 -0.0853786 0
M  V30 15 O -0.884474 -0.670169 -0.938878 0
M  V30 16 N -1.83559 0.676823 0.667907 0
M  V30 17 C -3.12805 0.075553 0.511077 0 CFG=1
M  V30 18 C -3.50936 -0.565409 1.83409 0
M  V30 19 C -2.5487 -1.616 2.24253 0
M  V30 20 O -1.94612 -1.55178 3.46453 0
M  V30 21 O -2.30015 -2.55184 1.45786 0
M  V30 22 C -4.12802 1.08516 0.0895626 0
M  V30 23 O -3.80513 2.29641 -0.0728494 0
M  V30 24 N -5.46481 0.673739 -0.133363 0
M  V30 25 C -6.45759 1.63177 -0.548012 0 CFG=1
M  V30 26 C -6.93189 1.2654 -1.95987 0
M  V30 27 O -5.84548 1.29847 -2.83947 0
M  V30 28 C -7.59119 1.62481 0.384767 0
M  V30 29 O -8.70196 2.44474 0.247876 0
M  V30 30 O -7.57938 0.831681 1.38235 0
M  V30 31 H 2.28384 -2.4875 -2.01444 0
M  V30 32 H 3.86146 -1.29766 -3.26786 0
M  V30 33 H 3.40843 0.143268 -2.40884 0
M  V30 34 H 4.411 -3.20953 -1.22216 0
M  V30 35 H 3.22559 -3.14467 0.0761906 0
M  V30 36 H 5.40473 -2.53935 0.768171 0
M  V30 37 H 4.28964 -1.1857 1.07797 0
M  V30 38 H 6.38214 -1.46924 -1.14822 0
M  V30 39 H 5.26606 -0.0444001 -0.987308 0
M  V30 40 H 6.54149 -0.513507 1.53561 0
M  V30 41 H 9.20005 1.80499 1.07362 0
M  V30 42 H 7.54169 2.21386 1.56913 0
M  V30 43 H 7.84991 -0.224948 -1.70515 0
M  V30 44 H 1.9767 0.95438 -1.43228 0
M  V30 45 H 0.518358 2.01987 0.016844 0
M  V30 46 H 0.925919 0.771878 1.19445 0
M  V30 47 H -1.72714 1.44452 1.36752 0
M  V30 48 H -3.13615 -0.743438 -0.246532 0
M  V30 49 H -3.56968 0.180578 2.64859 0
M  V30 50 H -4.55401 -0.975688 1.73383 0
M  V30 51 H -2.1628 -2.15709 4.22903 0
M  V30 52 H -5.72163 -0.320125 0.00342749 0
M  V30 53 H -6.00089 2.65367 -0.613348 0
M  V30 54 H -7.66516 2.00545 -2.31437 0
M  V30 55 H -7.37458 0.245024 -1.96009 0
M  V30 56 H -5.79128 2.2106 -3.2204 0
M  V30 57 H -8.87184 3.13957 0.953597 0
M  V30 END ATOM
M  V30 BEGIN BOND
M  V30 1 1 1 2
M  V30 2 1 1 3
M  V30 3 1 3 4
M  V30 4 1 4 5
M  V30 5 1 5 6
M  V30 6 1 6 7
M  V30 7 1 7 8
M  V30 8 2 7 9 CFG=2
M  V30 9 1 1 10
M  V30 10 2 10 11
M  V30 11 1 10 12
M  V30 12 1 12 13
M  V30 13 1 13 14
M  V30 14 2 14 15
M  V30 15 1 14 16
M  V30 16 1 16 17
M  V30 17 1 17 18
M  V30 18 1 18 19
M  V30 19 1 19 20
M  V30 20 2 19 21
M  V30 21 1 17 22
M  V30 22 2 22 23
M  V30 23 1 22 24
M  V30 24 1 24 25
M  V30 25 1 25 26
M  V30 26 1 26 27
M  V30 27 1 25 28
M  V30 28 1 28 29
M  V30 29 2 28 30
M  V30 30 1 1 31 CFG=3
M  V30 31 1 2 32
M  V30 32 1 2 33
M  V30 33 1 3 34
M  V30 34 1 3 35
M  V30 35 1 4 36
M  V30 36 1 4 37
M  V30 37 1 5 38
M  V30 38 1 5 39
M  V30 39 1 6 40
M  V30 40 1 8 41
M  V30 41 1 8 42
M  V30 42 1 9 43
M  V30 43 1 12 44
M  V30 44 1 13 45
M  V30 45 1 13 46
M  V30 46 1 16 47
M  V30 47 1 17 48 CFG=3
M  V30 48 1 18 49
M  V30 49 1 18 50
M  V30 50 1 20 51
M  V30 51 1 24 52
M  V30 52 1 25 53 CFG=3
M  V30 53 1 26 54
M  V30 54 1 26 55
M  V30 55 1 27 56
M  V30 56 1 29 57
M  V30 END BOND
M  V30 END CTAB
M  END
