
     RDKit          3D

  0  0  0  0  0  0  0  0  0  0999 V3000
M  V30 BEGIN CTAB
M  V30 COUNTS 62 66 0 0 0
M  V30 BEGIN ATOM
M  V30 1 N 2.99476 3.52784 -4.56257 0
M  V30 2 C 2.27534 2.9422 -3.87161 0
M  V30 3 C 1.40259 2.22886 -3.00325 0
M  V30 4 C 0.156437 2.78998 -2.7412 0
M  V30 5 N -0.219198 4.02557 -3.32196 0
M  V30 6 N -0.641217 2.09872 -1.92364 0
M  V30 7 C -0.352179 0.925883 -1.33906 0
M  V30 8 C 0.908038 0.366079 -1.60752 0
M  V30 9 C 1.78187 1.02676 -2.44456 0
M  V30 10 N 3.06771 0.555843 -2.80199 0
M  V30 11 C 1.32254 -0.92278 -1.0065 0
M  V30 12 C 2.58925 -0.797213 -0.197659 0
M  V30 13 C 3.74662 -1.45594 -0.544276 0
M  V30 14 C 4.91379 -1.35483 0.180426 0
M  V30 15 C 4.90304 -0.558586 1.29259 0
M  V30 16 C 3.77403 0.129172 1.69412 0
M  V30 17 C 2.63752 -0.00741899 0.934921 0
M  V30 18 N 3.83456 0.938604 2.86036 0 CHG=1
M  V30 19 O 2.79911 1.54422 3.19318 0
M  V30 20 O 4.99297 1.04326 3.58576 0 CHG=-1
M  V30 21 C 0.263017 -1.54155 -0.145432 0
M  V30 22 C -0.912787 -0.976652 0.0695657 0
M  V30 23 N -1.28226 0.262747 -0.497685 0
M  V30 24 N -2.52229 0.827437 -0.245034 0
M  V30 25 C -2.73756 1.87021 0.688281 0
M  V30 26 C -4.00958 2.36314 0.866466 0
M  V30 27 C -4.32142 3.37523 1.74919 0
M  V30 28 C -3.28472 3.91287 2.48832 0
M  V30 29 C -2.00397 3.43323 2.3246 0
M  V30 30 C -1.72813 2.41669 1.4296 0
M  V30 31 C -1.86586 -1.70766 0.961666 0
M  V30 32 C -1.9452 -3.17831 0.615784 0
M  V30 33 C -0.583881 -3.83466 0.675485 0
M  V30 34 C 0.50718 -2.83871 0.504133 0
M  V30 35 O 1.63876 -3.12894 0.924933 0
M  V30 36 C -2.84571 -3.82644 1.64583 0
M  V30 37 C -2.58134 -3.32771 -0.729121 0
M  V30 38 H -1.21093 4.18668 -3.57783 0
M  V30 39 H 0.465485 4.77937 -3.50165 0
M  V30 40 H 3.9422 1.03554 -2.4594 0
M  V30 41 H 3.19869 -0.272389 -3.40997 0
M  V30 42 H 1.58148 -1.64511 -1.83285 0
M  V30 43 H 3.77297 -2.09371 -1.42619 0
M  V30 44 H 5.803 -1.88516 -0.119889 0
M  V30 45 H 5.82471 -0.480657 1.86217 0
M  V30 46 H 1.74428 0.522137 1.23212 0
M  V30 47 H -3.32416 0.436889 -0.79315 0
M  V30 48 H -4.8232 1.94502 0.289985 0
M  V30 49 H -5.3368 3.70364 1.83019 0
M  V30 50 H -3.5506 4.70618 3.17541 0
M  V30 51 H -1.21914 3.87747 2.91918 0
M  V30 52 H -0.721579 2.02415 1.28625 0
M  V30 53 H -1.6151 -1.55161 2.02304 0
M  V30 54 H -2.88117 -1.29007 0.80785 0
M  V30 55 H -0.529991 -4.60851 -0.145241 0
M  V30 56 H -0.425727 -4.35661 1.62862 0
M  V30 57 H -3.22889 -4.76463 1.18235 0
M  V30 58 H -2.21747 -4.06302 2.54509 0
M  V30 59 H -3.65059 -3.1611 1.99738 0
M  V30 60 H -2.68524 -4.41477 -0.954223 0
M  V30 61 H -1.99381 -2.86824 -1.54123 0
M  V30 62 H -3.5903 -2.90864 -0.720157 0
M  V30 END ATOM
M  V30 BEGIN BOND
M  V30 1 3 1 2
M  V30 2 1 2 3
M  V30 3 2 3 4
M  V30 4 1 4 5
M  V30 5 1 4 6
M  V30 6 2 6 7
M  V30 7 1 7 8
M  V30 8 2 8 9
M  V30 9 1 9 10
M  V30 10 1 8 11
M  V30 11 1 11 12
M  V30 12 2 12 13
M  V30 13 1 13 14
M  V30 14 2 14 15
M  V30 15 1 15 16
M  V30 16 2 16 17
M  V30 17 1 16 18
M  V30 18 2 18 19
M  V30 19 1 18 20
M  V30 20 1 11 21
M  V30 21 2 21 22
M  V30 22 1 22 23
M  V30 23 1 23 24
M  V30 24 1 24 25
M  V30 25 2 25 26
M  V30 26 1 26 27
M  V30 27 2 27 28
M  V30 28 1 28 29
M  V30 29 2 29 30
M  V30 30 1 22 31
M  V30 31 1 31 32
M  V30 32 1 32 33
M  V30 33 1 33 34
M  V30 34 2 34 35
M  V30 35 1 32 36
M  V30 36 1 32 37
M  V30 37 1 9 3
M  V30 38 1 17 12
M  V30 39 1 34 21
M  V30 40 1 23 7
M  V30 41 1 30 25
M  V30 42 1 5 38
M  V30 43 1 5 39
M  V30 44 1 10 40
M  V30 45 1 10 41
M  V30 46 1 11 42
M  V30 47 1 13 43
M  V30 48 1 14 44
M  V30 49 1 15 45
M  V30 50 1 17 46
M  V30 51 1 24 47
M  V30 52 1 26 48
M  V30 53 1 27 49
M  V30 54 1 28 50
M  V30 55 1 29 51
M  V30 56 1 30 52
M  V30 57 1 31 53
M  V30 58 1 31 54
M  V30 59 1 33 55
M  V30 60 1 33 56
M  V30 61 1 36 57
M  V30 62 1 36 58
M  V30 63 1 36 59
M  V30 64 1 37 60
M  V30 65 1 37 61
M  V30 66 1 37 62
M  V30 END BOND
M  V30 END CTAB
M  END
