
     RDKit          3D

  0  0  0  0  0  0  0  0  0  0999 V3000
M  V30 BEGIN CTAB
M  V30 COUNTS 21 21 0 0 0
M  V30 BEGIN ATOM
M  V30 1 N -3.17098 1.40968 -0.560138 0
M  V30 2 C -2.20073 0.453886 -0.155778 0
M  V30 3 C -2.48698 -0.533057 0.76118 0
M  V30 4 C -1.52699 -1.44177 1.13108 0
M  V30 5 C -0.267593 -1.37174 0.585607 0
M  V30 6 C 0.0547687 -0.392302 -0.339137 0
M  V30 7 C -0.926141 0.507321 -0.693542 0
M  V30 8 N 1.33284 -0.262235 -0.943438 0
M  V30 9 S 2.82082 -0.344059 -0.0905465 0
M  V30 10 O 3.87871 -0.904269 -0.992575 0
M  V30 11 O 2.76297 -1.20972 1.11844 0
M  V30 12 N 3.28914 1.25742 0.429916 0
M  V30 13 H -3.03298 1.97473 -1.41285 0
M  V30 14 H -4.02208 1.53424 0.0121062 0
M  V30 15 H -3.48908 -0.611346 1.21362 0
M  V30 16 H -1.75293 -2.20676 1.84341 0
M  V30 17 H 0.485298 -2.09013 0.87861 0
M  V30 18 H -0.680315 1.27974 -1.41966 0
M  V30 19 H 1.41136 -0.101712 -1.99264 0
M  V30 20 H 4.27943 1.16677 0.747614 0
M  V30 21 H 3.24143 1.88531 -0.39284 0
M  V30 END ATOM
M  V30 BEGIN BOND
M  V30 1 1 1 2
M  V30 2 2 2 3
M  V30 3 1 3 4
M  V30 4 2 4 5
M  V30 5 1 5 6
M  V30 6 2 6 7
M  V30 7 1 6 8
M  V30 8 1 8 9
M  V30 9 2 9 10
M  V30 10 2 9 11
M  V30 11 1 9 12
M  V30 12 1 7 2
M  V30 13 1 1 13
M  V30 14 1 1 14
M  V30 15 1 3 15
M  V30 16 1 4 16
M  V30 17 1 5 17
M  V30 18 1 7 18
M  V30 19 1 8 19
M  V30 20 1 12 20
M  V30 21 1 12 21
M  V30 END BOND
M  V30 END CTAB
M  END
