
     RDKit          3D

  0  0  0  0  0  0  0  0  0  0999 V3000
M  V30 BEGIN CTAB
M  V30 COUNTS 30 30 0 0 0
M  V30 BEGIN ATOM
M  V30 1 N -0.727612 1.40116 2.9136 0
M  V30 2 N 0.173093 0.424265 2.53861 0
M  V30 3 C 0.667651 0.665151 1.15685 0
M  V30 4 C 1.63473 -0.437908 0.836134 0
M  V30 5 C 2.22913 -0.328371 -0.49575 0
M  V30 6 O 1.9805 0.644131 -1.23283 0
M  V30 7 N 3.10408 -1.35186 -0.950658 0
M  V30 8 N 3.71503 -1.33287 -2.2007 0
M  V30 9 C -0.501754 0.640138 0.231342 0
M  V30 10 C -1.38038 -0.430054 0.2339 0
M  V30 11 C -2.4801 -0.476254 -0.585889 0
M  V30 12 C -2.73155 0.578321 -1.45114 0
M  V30 13 C -1.87895 1.63609 -1.46586 0
M  V30 14 C -0.786852 1.66391 -0.640213 0
M  V30 15 N -3.38391 -1.58392 -0.578936 0 CHG=1
M  V30 16 O -3.12943 -2.60896 0.269859 0 CHG=-1
M  V30 17 O -4.37121 -1.59541 -1.334 0
M  V30 18 H -0.313289 2.04412 3.64016 0
M  V30 19 H -0.9233 1.99689 2.08182 0
M  V30 20 H -0.174387 -0.540695 2.63508 0
M  V30 21 H 1.09613 1.67251 1.17139 0
M  V30 22 H 2.40231 -0.508275 1.64226 0
M  V30 23 H 1.114 -1.43916 0.855805 0
M  V30 24 H 3.31364 -2.16055 -0.343368 0
M  V30 25 H 4.41823 -0.599032 -2.32622 0
M  V30 26 H 3.92866 -2.25509 -2.58196 0
M  V30 27 H -1.19398 -1.25809 0.904761 0
M  V30 28 H -3.58046 0.547346 -2.08699 0
M  V30 29 H -2.07429 2.46196 -2.14224 0
M  V30 30 H -0.145733 2.53051 -0.694821 0
M  V30 END ATOM
M  V30 BEGIN BOND
M  V30 1 1 1 2
M  V30 2 1 2 3
M  V30 3 1 3 4
M  V30 4 1 4 5
M  V30 5 2 5 6
M  V30 6 1 5 7
M  V30 7 1 7 8
M  V30 8 1 3 9
M  V30 9 2 9 10
M  V30 10 1 10 11
M  V30 11 2 11 12
M  V30 12 1 12 13
M  V30 13 2 13 14
M  V30 14 1 11 15
M  V30 15 1 15 16
M  V30 16 2 15 17
M  V30 17 1 14 9
M  V30 18 1 1 18
M  V30 19 1 1 19
M  V30 20 1 2 20
M  V30 21 1 3 21
M  V30 22 1 4 22
M  V30 23 1 4 23
M  V30 24 1 7 24
M  V30 25 1 8 25
M  V30 26 1 8 26
M  V30 27 1 10 27
M  V30 28 1 12 28
M  V30 29 1 13 29
M  V30 30 1 14 30
M  V30 END BOND
M  V30 END CTAB
M  END
