
     RDKit          3D

  0  0  0  0  0  0  0  0  0  0999 V3000
M  V30 BEGIN CTAB
M  V30 COUNTS 32 33 0 0 0
M  V30 BEGIN ATOM
M  V30 1 N 1.62291 -1.32125 1.699 0
M  V30 2 C 0.995589 -0.123686 1.24313 0
M  V30 3 C 1.43952 0.327947 -0.124627 0
M  V30 4 N 2.26661 -0.579965 -0.818141 0
M  V30 5 C 0.137816 0.660709 -0.790723 0
M  V30 6 C -0.757319 -0.450419 -0.315846 0
M  V30 7 C -0.52163 -0.229385 1.1612 0
M  V30 8 C -0.998382 1.20694 1.29574 0
M  V30 9 C -0.461593 1.82675 0.0120966 0
M  V30 10 C -0.424624 -1.79894 -0.806006 0
M  V30 11 C -2.21445 -0.201345 -0.692019 0
M  V30 12 C 0.180063 0.901669 -2.22791 0
M  V30 13 H 2.53171 -1.08975 2.12124 0
M  V30 14 H 1.01844 -1.73063 2.44936 0
M  V30 15 H 1.24855 0.67359 2.00472 0
M  V30 16 H 2.00106 1.30125 -0.0229637 0
M  V30 17 H 2.62797 -1.38279 -0.281837 0
M  V30 18 H 1.9711 -0.819193 -1.78615 0
M  V30 19 H -0.971156 -0.933146 1.82441 0
M  V30 20 H -2.06599 1.31017 1.42013 0
M  V30 21 H -0.465762 1.70003 2.15123 0
M  V30 22 H -1.22993 2.36232 -0.544998 0
M  V30 23 H 0.417368 2.49316 0.229952 0
M  V30 24 H 0.404398 -2.3198 -0.352561 0
M  V30 25 H -1.33334 -2.45227 -0.64847 0
M  V30 26 H -0.324071 -1.75354 -1.92145 0
M  V30 27 H -2.28141 -0.38622 -1.78249 0
M  V30 28 H -2.54908 0.808883 -0.496635 0
M  V30 29 H -2.80224 -0.957026 -0.129885 0
M  V30 30 H 1.07878 1.49517 -2.48401 0
M  V30 31 H -0.741374 1.46562 -2.53098 0
M  V30 32 H 0.200469 -0.00484694 -2.82295 0
M  V30 END ATOM
M  V30 BEGIN BOND
M  V30 1 1 1 2
M  V30 2 1 2 3
M  V30 3 1 3 4
M  V30 4 1 3 5
M  V30 5 1 5 6
M  V30 6 1 6 7
M  V30 7 1 7 8
M  V30 8 1 8 9
M  V30 9 1 6 10
M  V30 10 1 6 11
M  V30 11 1 5 12
M  V30 12 1 7 2
M  V30 13 1 9 5
M  V30 14 1 1 13
M  V30 15 1 1 14
M  V30 16 1 2 15
M  V30 17 1 3 16
M  V30 18 1 4 17
M  V30 19 1 4 18
M  V30 20 1 7 19
M  V30 21 1 8 20
M  V30 22 1 8 21
M  V30 23 1 9 22
M  V30 24 1 9 23
M  V30 25 1 10 24
M  V30 26 1 10 25
M  V30 27 1 10 26
M  V30 28 1 11 27
M  V30 29 1 11 28
M  V30 30 1 11 29
M  V30 31 1 12 30
M  V30 32 1 12 31
M  V30 33 1 12 32
M  V30 END BOND
M  V30 END CTAB
M  END
