
     RDKit          3D

  0  0  0  0  0  0  0  0  0  0999 V3000
M  V30 BEGIN CTAB
M  V30 COUNTS 35 34 0 0 0
M  V30 BEGIN ATOM
M  V30 1 N -2.91928 -3.73318 -0.21996 0
M  V30 2 C -2.66989 -2.34427 0.0537424 0
M  V30 3 C -1.17254 -2.00933 -0.144973 0
M  V30 4 C -1.05153 -0.564487 0.157375 0
M  V30 5 N 0.207057 0.0647131 0.0498874 0
M  V30 6 C 1.24369 -0.180646 0.943654 0
M  V30 7 C 1.89985 -1.52229 0.964372 0
M  V30 8 C 2.48299 -1.89559 -0.344667 0
M  V30 9 O 3.00463 -3.02578 -0.444583 0
M  V30 10 O 2.47469 -1.06342 -1.44154 0
M  V30 11 C -0.0322755 1.47315 -0.153526 0
M  V30 12 C 1.15248 2.35187 -0.252534 0
M  V30 13 C 0.603563 3.77374 -0.506841 0
M  V30 14 N -0.228545 4.10006 0.62678 0
M  V30 15 H -3.93608 -3.84421 -0.428767 0
M  V30 16 H -2.31698 -4.05444 -1.01587 0
M  V30 17 H -2.94258 -2.13143 1.08988 0
M  V30 18 H -3.27225 -1.67705 -0.600684 0
M  V30 19 H -0.97573 -2.28497 -1.20337 0
M  V30 20 H -0.655429 -2.68305 0.517939 0
M  V30 21 H -1.74067 -0.00039098 -0.563105 0
M  V30 22 H -1.54309 -0.404774 1.15589 0
M  V30 23 H 0.874993 0.0812316 1.98639 0
M  V30 24 H 2.07887 0.576154 0.742474 0
M  V30 25 H 1.36416 -2.34846 1.39043 0
M  V30 26 H 2.82759 -1.41276 1.63778 0
M  V30 27 H 3.02348 -0.1941 -1.37458 0
M  V30 28 H -0.691364 1.79241 0.710732 0
M  V30 29 H -0.671686 1.5784 -1.07651 0
M  V30 30 H 1.8858 2.06788 -1.00708 0
M  V30 31 H 1.62627 2.44174 0.775161 0
M  V30 32 H 1.43063 4.4939 -0.602616 0
M  V30 33 H 0.000386583 3.68624 -1.44638 0
M  V30 34 H -1.18946 3.76392 0.453251 0
M  V30 35 H -0.171728 5.12922 0.865836 0
M  V30 END ATOM
M  V30 BEGIN BOND
M  V30 1 1 1 2
M  V30 2 1 2 3
M  V30 3 1 3 4
M  V30 4 1 4 5
M  V30 5 1 5 6
M  V30 6 1 6 7
M  V30 7 1 7 8
M  V30 8 2 8 9
M  V30 9 1 8 10
M  V30 10 1 5 11
M  V30 11 1 11 12
M  V30 12 1 12 13
M  V30 13 1 13 14
M  V30 14 1 1 15
M  V30 15 1 1 16
M  V30 16 1 2 17
M  V30 17 1 2 18
M  V30 18 1 3 19
M  V30 19 1 3 20
M  V30 20 1 4 21
M  V30 21 1 4 22
M  V30 22 1 6 23
M  V30 23 1 6 24
M  V30 24 1 7 25
M  V30 25 1 7 26
M  V30 26 1 10 27
M  V30 27 1 11 28
M  V30 28 1 11 29
M  V30 29 1 12 30
M  V30 30 1 12 31
M  V30 31 1 13 32
M  V30 32 1 13 33
M  V30 33 1 14 34
M  V30 34 1 14 35
M  V30 END BOND
M  V30 END CTAB
M  END
