
     RDKit          3D

  0  0  0  0  0  0  0  0  0  0999 V3000
M  V30 BEGIN CTAB
M  V30 COUNTS 23 23 0 0 0
M  V30 BEGIN ATOM
M  V30 1 C 3.0974 0.68417 0.32022 0
M  V30 2 C 2.7873 -0.261782 -0.805717 0
M  V30 3 O 1.65765 -1.00197 -0.511692 0
M  V30 4 C 0.38158 -0.56989 -0.265031 0
M  V30 5 C -0.0127024 0.755856 -0.272067 0
M  V30 6 C -1.33498 1.04711 -0.00511617 0
M  V30 7 N -1.72878 2.41426 -0.0150582 0
M  V30 8 C -2.27541 0.0771932 0.266974 0
M  V30 9 C -1.89691 -1.26434 0.278449 0
M  V30 10 C -0.569838 -1.53185 0.00884447 0
M  V30 11 N -2.84169 -2.27981 0.554613 0
M  V30 12 H 4.05981 0.424161 0.768937 0
M  V30 13 H 3.08595 1.75016 -0.0489625 0
M  V30 14 H 2.33947 0.651516 1.1354 0
M  V30 15 H 3.64679 -0.959533 -0.961247 0
M  V30 16 H 2.61811 0.311606 -1.73913 0
M  V30 17 H 0.709747 1.52963 -0.484913 0
M  V30 18 H -2.20512 2.79581 -0.864813 0
M  V30 19 H -1.54505 3.02299 0.810403 0
M  V30 20 H -3.30874 0.28549 0.476942 0
M  V30 21 H -0.299439 -2.5985 0.024602 0
M  V30 22 H -3.2621 -2.3168 1.49176 0
M  V30 23 H -3.10306 -2.96549 -0.163396 0
M  V30 END ATOM
M  V30 BEGIN BOND
M  V30 1 1 1 2
M  V30 2 1 2 3
M  V30 3 1 3 4
M  V30 4 2 4 5
M  V30 5 1 5 6
M  V30 6 1 6 7
M  V30 7 2 6 8
M  V30 8 1 8 9
M  V30 9 2 9 10
M  V30 10 1 9 11
M  V30 11 1 10 4
M  V30 12 1 1 12
M  V30 13 1 1 13
M  V30 14 1 1 14
M  V30 15 1 2 15
M  V30 16 1 2 16
M  V30 17 1 5 17
M  V30 18 1 7 18
M  V30 19 1 7 19
M  V30 20 1 8 20
M  V30 21 1 10 21
M  V30 22 1 11 22
M  V30 23 1 11 23
M  V30 END BOND
M  V30 END CTAB
M  END
