
     RDKit          3D

  0  0  0  0  0  0  0  0  0  0999 V3000
M  V30 BEGIN CTAB
M  V30 COUNTS 31 32 0 0 0
M  V30 BEGIN ATOM
M  V30 1 N -3.09256 -1.33347 -0.83219 0
M  V30 2 C -2.22729 -0.700811 0.132207 0 CFG=2
M  V30 3 C -2.11442 0.77375 -0.0966056 0 CFG=1
M  V30 4 C -3.20187 1.57088 0.567433 0
M  V30 5 O -4.40882 1.20436 -0.0265001 0
M  V30 6 O -0.850385 1.05888 0.420421 0
M  V30 7 C -0.084717 0.144963 -0.333255 0 CFG=2
M  V30 8 C -0.768475 -1.14726 -0.0416973 0 CFG=2
M  V30 9 O -0.649443 -1.97326 -1.1592 0
M  V30 10 N 1.30514 0.173595 0.0370213 0
M  V30 11 C 2.2115 0.0302201 -0.948296 0
M  V30 12 C 3.57881 0.04915 -0.653716 0
M  V30 13 C 4.01129 0.21387 0.641314 0
M  V30 14 N 5.40733 0.227604 0.899649 0
M  V30 15 N 3.07159 0.353239 1.59259 0
M  V30 16 C 1.74533 0.331409 1.2806 0
M  V30 17 O 0.889996 0.468 2.22016 0
M  V30 18 H -3.21818 -2.3326 -0.556213 0
M  V30 19 H -2.64904 -1.22414 -1.76446 0
M  V30 20 H -2.56175 -0.88881 1.18152 0
M  V30 21 H -2.09467 1.02084 -1.16485 0
M  V30 22 H -3.03154 2.63923 0.292323 0
M  V30 23 H -3.24561 1.45969 1.65314 0
M  V30 24 H -4.54268 1.65647 -0.905334 0
M  V30 25 H -0.215824 0.418435 -1.37689 0
M  V30 26 H -0.395977 -1.65412 0.871644 0
M  V30 27 H -0.884859 -2.91322 -0.951857 0
M  V30 28 H 1.89761 -0.102615 -1.98871 0
M  V30 29 H 4.26613 -0.0694572 -1.47579 0
M  V30 30 H 5.87732 1.1728 0.902053 0
M  V30 31 H 5.97608 -0.627637 1.0823 0
M  V30 END ATOM
M  V30 BEGIN BOND
M  V30 1 1 1 2
M  V30 2 1 2 3
M  V30 3 1 3 4
M  V30 4 1 4 5
M  V30 5 1 3 6
M  V30 6 1 6 7
M  V30 7 1 7 8
M  V30 8 1 8 9
M  V30 9 1 7 10
M  V30 10 1 10 11
M  V30 11 2 11 12
M  V30 12 1 12 13
M  V30 13 1 13 14
M  V30 14 2 13 15
M  V30 15 1 15 16
M  V30 16 2 16 17
M  V30 17 1 8 2
M  V30 18 1 16 10
M  V30 19 1 1 18
M  V30 20 1 1 19
M  V30 21 1 2 20 CFG=1
M  V30 22 1 3 21 CFG=3
M  V30 23 1 4 22
M  V30 24 1 4 23
M  V30 25 1 5 24
M  V30 26 1 7 25 CFG=3
M  V30 27 1 8 26 CFG=1
M  V30 28 1 9 27
M  V30 29 1 11 28
M  V30 30 1 12 29
M  V30 31 1 14 30
M  V30 32 1 14 31
M  V30 END BOND
M  V30 END CTAB
M  END
