
     RDKit          3D

  0  0  0  0  0  0  0  0  0  0999 V3000
M  V30 BEGIN CTAB
M  V30 COUNTS 42 43 0 0 0
M  V30 BEGIN ATOM
M  V30 1 N -1.47403 1.55403 2.82971 0
M  V30 2 C -0.852122 1.4216 1.83734 0
M  V30 3 C -0.0390211 1.2848 0.63934 0
M  V30 4 C 1.20039 1.83778 0.69068 0
M  V30 5 N 2.08831 1.78208 -0.390295 0
M  V30 6 C 3.20628 0.873261 -0.272942 0
M  V30 7 C 3.39229 0.0795706 0.833991 0
M  V30 8 C 4.45813 -0.789484 0.953902 0
M  V30 9 C 5.38747 -0.886307 -0.0595124 0
M  V30 10 C 5.21365 -0.0936517 -1.18032 0
M  V30 11 C 4.14275 0.767418 -1.28033 0
M  V30 12 N 6.48438 -1.78843 0.0796912 0
M  V30 13 C -0.393593 0.619814 -0.574239 0
M  V30 14 O 0.473103 0.567245 -1.53901 0
M  V30 15 N -1.61685 -0.00300277 -0.846464 0
M  V30 16 C -2.75346 -0.0719927 0.035482 0
M  V30 17 C -2.97347 -1.12919 0.875796 0
M  V30 18 C -4.09587 -1.18596 1.67214 0
M  V30 19 C -5.03076 -0.159916 1.63303 0
M  V30 20 C -4.82461 0.909101 0.794086 0
M  V30 21 C -3.68546 0.95482 -0.00638719 0
M  V30 22 N -6.18786 -0.242891 2.46987 0
M  V30 23 C -1.88654 -0.685439 -2.10333 0
M  V30 24 O -3.02552 -1.24589 -2.30271 0
M  V30 25 C -0.883881 -0.760427 -3.17842 0
M  V30 26 H 1.46645 2.33435 1.63668 0
M  V30 27 H 2.01926 2.35041 -1.26623 0
M  V30 28 H 2.68283 0.13001 1.64687 0
M  V30 29 H 4.58171 -1.4032 1.83502 0
M  V30 30 H 5.95815 -0.188297 -1.963 0
M  V30 31 H 4.04355 1.36937 -2.17205 0
M  V30 32 H 6.26354 -2.80993 0.0720371 0
M  V30 33 H 7.46507 -1.49653 0.185614 0
M  V30 34 H -2.26165 -1.9464 0.929259 0
M  V30 35 H -4.27339 -2.02685 2.34289 0
M  V30 36 H -5.54973 1.71692 0.756085 0
M  V30 37 H -3.56055 1.81369 -0.652398 0
M  V30 38 H -6.09107 0.176715 3.43031 0
M  V30 39 H -7.07189 -0.688924 2.15274 0
M  V30 40 H -0.708119 0.266078 -3.56981 0
M  V30 41 H -1.31082 -1.34955 -4.06066 0
M  V30 42 H 0.0229671 -1.3058 -2.91446 0
M  V30 END ATOM
M  V30 BEGIN BOND
M  V30 1 3 1 2
M  V30 2 1 2 3
M  V30 3 2 3 4
M  V30 4 1 4 5
M  V30 5 1 5 6
M  V30 6 2 6 7
M  V30 7 1 7 8
M  V30 8 2 8 9
M  V30 9 1 9 10
M  V30 10 2 10 11
M  V30 11 1 9 12
M  V30 12 1 3 13
M  V30 13 2 13 14
M  V30 14 1 13 15
M  V30 15 1 15 16
M  V30 16 2 16 17
M  V30 17 1 17 18
M  V30 18 2 18 19
M  V30 19 1 19 20
M  V30 20 2 20 21
M  V30 21 1 19 22
M  V30 22 1 15 23
M  V30 23 2 23 24
M  V30 24 1 23 25
M  V30 25 1 11 6
M  V30 26 1 21 16
M  V30 27 1 4 26
M  V30 28 1 5 27
M  V30 29 1 7 28
M  V30 30 1 8 29
M  V30 31 1 10 30
M  V30 32 1 11 31
M  V30 33 1 12 32
M  V30 34 1 12 33
M  V30 35 1 17 34
M  V30 36 1 18 35
M  V30 37 1 20 36
M  V30 38 1 21 37
M  V30 39 1 22 38
M  V30 40 1 22 39
M  V30 41 1 25 40
M  V30 42 1 25 41
M  V30 43 1 25 42
M  V30 END BOND
M  V30 END CTAB
M  END
