
     RDKit          3D

  0  0  0  0  0  0  0  0  0  0999 V3000
M  V30 BEGIN CTAB
M  V30 COUNTS 50 52 0 0 0
M  V30 BEGIN ATOM
M  V30 1 O 0.466173 -0.0914445 -0.463908 0
M  V30 2 C 0.682565 -0.0297162 0.750393 0
M  V30 3 C -0.508391 -0.00705205 1.64354 0
M  V30 4 N -1.73964 -0.0622805 0.921644 0
M  V30 5 C -2.38362 1.13809 0.497444 0
M  V30 6 O -1.68754 2.18245 0.538298 0
M  V30 7 C -3.78789 1.08144 0.0493457 0
M  V30 8 O -4.12036 -0.184757 -0.473506 0
M  V30 9 C -3.49547 -1.35928 -0.0615321 0
M  V30 10 C -2.3052 -1.34669 0.63784 0
M  V30 11 N -1.70025 -2.48811 1.03681 0
M  V30 12 C -2.22238 -3.70815 0.776074 0
M  V30 13 N -1.60753 -4.91524 1.18332 0
M  V30 14 C -3.42406 -3.73765 0.0706397 0
M  V30 15 C -4.0645 -2.59628 -0.349198 0
M  V30 16 C -4.04911 2.17768 -0.945134 0
M  V30 17 C -3.8006 3.52667 -0.347748 0
M  V30 18 C -5.5067 2.0273 -1.39346 0
M  V30 19 N 1.96783 0.01843 1.30428 0
M  V30 20 C 3.21252 0.00100914 0.615372 0
M  V30 21 C 3.36565 -0.364623 -0.700446 0
M  V30 22 C 4.63169 -0.319581 -1.26744 0
M  V30 23 C 5.75254 0.0710046 -0.588951 0
M  V30 24 C 5.59607 0.437421 0.733139 0
M  V30 25 C 4.35965 0.402572 1.31666 0
M  V30 26 S 7.34293 0.12402 -1.31318 0
M  V30 27 O 8.42546 -0.103785 -0.290417 0
M  V30 28 O 7.50073 -0.950939 -2.36254 0
M  V30 29 N 7.63883 1.68389 -2.02446 0
M  V30 30 H -0.494317 0.935506 2.22996 0
M  V30 31 H -0.466658 -0.838248 2.39211 0
M  V30 32 H -4.42216 1.23109 0.94735 0
M  V30 33 H -0.605692 -5.09076 0.98797 0
M  V30 34 H -2.1485 -5.64363 1.68349 0
M  V30 35 H -3.87634 -4.69572 -0.15896 0
M  V30 36 H -4.99329 -2.62231 -0.894309 0
M  V30 37 H -3.44619 2.0266 -1.86581 0
M  V30 38 H -3.75993 3.49565 0.752002 0
M  V30 39 H -4.66011 4.18656 -0.666975 0
M  V30 40 H -2.84175 3.9653 -0.708085 0
M  V30 41 H -5.76979 2.82345 -2.12134 0
M  V30 42 H -5.54649 1.02417 -1.89419 0
M  V30 43 H -6.17947 1.99602 -0.525461 0
M  V30 44 H 2.05203 0.0682783 2.38133 0
M  V30 45 H 2.5128 -0.692858 -1.28351 0
M  V30 46 H 4.72889 -0.611826 -2.30627 0
M  V30 47 H 6.48342 0.755956 1.30238 0
M  V30 48 H 4.24059 0.698451 2.37427 0
M  V30 49 H 6.70229 2.07517 -2.30183 0
M  V30 50 H 7.95128 2.30676 -1.2207 0
M  V30 END ATOM
M  V30 BEGIN BOND
M  V30 1 2 1 2
M  V30 2 1 2 3
M  V30 3 1 3 4
M  V30 4 1 4 5
M  V30 5 2 5 6
M  V30 6 1 5 7
M  V30 7 1 7 8
M  V30 8 1 8 9
M  V30 9 2 9 10
M  V30 10 1 10 11
M  V30 11 2 11 12
M  V30 12 1 12 13
M  V30 13 1 12 14
M  V30 14 2 14 15
M  V30 15 1 7 16
M  V30 16 1 16 17
M  V30 17 1 16 18
M  V30 18 1 2 19
M  V30 19 1 19 20
M  V30 20 2 20 21
M  V30 21 1 21 22
M  V30 22 2 22 23
M  V30 23 1 23 24
M  V30 24 2 24 25
M  V30 25 1 23 26
M  V30 26 2 26 27
M  V30 27 2 26 28
M  V30 28 1 26 29
M  V30 29 1 10 4
M  V30 30 1 25 20
M  V30 31 1 15 9
M  V30 32 1 3 30
M  V30 33 1 3 31
M  V30 34 1 7 32
M  V30 35 1 13 33
M  V30 36 1 13 34
M  V30 37 1 14 35
M  V30 38 1 15 36
M  V30 39 1 16 37
M  V30 40 1 17 38
M  V30 41 1 17 39
M  V30 42 1 17 40
M  V30 43 1 18 41
M  V30 44 1 18 42
M  V30 45 1 18 43
M  V30 46 1 19 44
M  V30 47 1 21 45
M  V30 48 1 22 46
M  V30 49 1 24 47
M  V30 50 1 25 48
M  V30 51 1 29 49
M  V30 52 1 29 50
M  V30 END BOND
M  V30 END CTAB
M  END
