
     RDKit          3D

  0  0  0  0  0  0  0  0  0  0999 V3000
M  V30 BEGIN CTAB
M  V30 COUNTS 28 29 0 0 0
M  V30 BEGIN ATOM
M  V30 1 F -5.27574 0.769312 -1.97887 0
M  V30 2 C -4.62257 0.34602 -0.868923 0
M  V30 3 C -5.30827 -0.359438 0.0757266 0
M  V30 4 C -4.60601 -0.774363 1.19531 0
M  V30 5 C -3.25334 -0.489191 1.36208 0
M  V30 6 C -2.60299 0.220132 0.3923 0
M  V30 7 C -3.28352 0.653298 -0.749674 0
M  V30 8 C -1.14677 0.565859 0.500801 0
M  V30 9 S -0.220826 -0.778738 -0.260381 0
M  V30 10 C 1.54017 -0.444314 -0.173476 0
M  V30 11 N 2.41583 -1.32085 -0.683679 0
M  V30 12 C 3.74392 -1.14409 -0.658185 0
M  V30 13 N 4.67464 -2.06351 -1.19397 0
M  V30 14 C 4.23467 0.0181031 -0.0666661 0
M  V30 15 C 3.3524 0.916215 0.455326 0
M  V30 16 N 2.02524 0.667205 0.39144 0
M  V30 17 N 3.82511 2.11693 1.06822 0
M  V30 18 H -6.36024 -0.587688 -0.0420593 0
M  V30 19 H -5.1459 -1.33881 1.95557 0
M  V30 20 H -2.72691 -0.830069 2.25607 0
M  V30 21 H -2.75162 1.21558 -1.51007 0
M  V30 22 H -0.949679 1.55256 0.0447905 0
M  V30 23 H -0.845711 0.613432 1.57266 0
M  V30 24 H 5.56495 -1.76761 -1.63411 0
M  V30 25 H 4.45993 -3.07611 -1.14577 0
M  V30 26 H 5.30738 0.194682 -0.0281147 0
M  V30 27 H 3.44851 3.00597 0.679958 0
M  V30 28 H 4.50734 2.11947 1.85897 0
M  V30 END ATOM
M  V30 BEGIN BOND
M  V30 1 1 1 2
M  V30 2 2 2 3
M  V30 3 1 3 4
M  V30 4 2 4 5
M  V30 5 1 5 6
M  V30 6 2 6 7
M  V30 7 1 6 8
M  V30 8 1 8 9
M  V30 9 1 9 10
M  V30 10 2 10 11
M  V30 11 1 11 12
M  V30 12 1 12 13
M  V30 13 2 12 14
M  V30 14 1 14 15
M  V30 15 2 15 16
M  V30 16 1 15 17
M  V30 17 1 7 2
M  V30 18 1 16 10
M  V30 19 1 3 18
M  V30 20 1 4 19
M  V30 21 1 5 20
M  V30 22 1 7 21
M  V30 23 1 8 22
M  V30 24 1 8 23
M  V30 25 1 13 24
M  V30 26 1 13 25
M  V30 27 1 14 26
M  V30 28 1 17 27
M  V30 29 1 17 28
M  V30 END BOND
M  V30 END CTAB
M  END
