
     RDKit          3D

  0  0  0  0  0  0  0  0  0  0999 V3000
M  V30 BEGIN CTAB
M  V30 COUNTS 36 37 0 0 0
M  V30 BEGIN ATOM
M  V30 1 O 0.174771 -0.882546 -0.29883 0
M  V30 2 C -0.255551 0.0538819 -1.00999 0
M  V30 3 C 0.55989 0.497253 -2.16394 0
M  V30 4 S 2.10236 -0.412112 -2.34097 0
M  V30 5 C 3.16816 -0.033631 -0.962914 0
M  V30 6 N 4.01854 1.00246 -1.02674 0
M  V30 7 C 4.84325 1.31797 -0.00629611 0
M  V30 8 N 5.74267 2.39186 -0.0388714 0
M  V30 9 C 4.78594 0.53113 1.12394 0
M  V30 10 C 3.91402 -0.548425 1.21646 0
M  V30 11 N 3.13643 -0.780726 0.151915 0
M  V30 12 N 3.8544 -1.36478 2.38858 0
M  V30 13 N -1.47787 0.678002 -0.733843 0
M  V30 14 C -2.38026 0.362033 0.339947 0
M  V30 15 C -2.85623 -1.04319 0.21397 0
M  V30 16 C -3.79064 -1.2219 -0.98959 0
M  V30 17 C -5.0454 -0.541539 -0.483177 0
M  V30 18 C -4.87242 -0.612843 1.01207 0
M  V30 19 O -3.7451 -1.36793 1.25763 0
M  V30 20 H 0.746177 1.5989 -1.99592 0
M  V30 21 H -0.095229 0.39477 -3.06659 0
M  V30 22 H 6.5727 2.46792 -0.662764 0
M  V30 23 H 5.59134 3.21175 0.616024 0
M  V30 24 H 5.41865 0.740555 1.95787 0
M  V30 25 H 3.2638 -2.20775 2.35656 0
M  V30 26 H 4.40875 -1.06409 3.20705 0
M  V30 27 H -1.78419 1.47196 -1.3798 0
M  V30 28 H -1.85316 0.428599 1.34153 0
M  V30 29 H -3.20436 1.09885 0.385498 0
M  V30 30 H -2.03802 -1.74897 0.134281 0
M  V30 31 H -3.94144 -2.27083 -1.23094 0
M  V30 32 H -3.35116 -0.632977 -1.83222 0
M  V30 33 H -5.89072 -1.22463 -0.73803 0
M  V30 34 H -5.1824 0.469835 -0.873433 0
M  V30 35 H -5.72794 -1.15566 1.50908 0
M  V30 36 H -4.80978 0.396804 1.43322 0
M  V30 END ATOM
M  V30 BEGIN BOND
M  V30 1 2 1 2
M  V30 2 1 2 3
M  V30 3 1 3 4
M  V30 4 1 4 5
M  V30 5 2 5 6
M  V30 6 1 6 7
M  V30 7 1 7 8
M  V30 8 2 7 9
M  V30 9 1 9 10
M  V30 10 2 10 11
M  V30 11 1 10 12
M  V30 12 1 2 13
M  V30 13 1 13 14
M  V30 14 1 14 15
M  V30 15 1 15 16
M  V30 16 1 16 17
M  V30 17 1 17 18
M  V30 18 1 18 19
M  V30 19 1 11 5
M  V30 20 1 19 15
M  V30 21 1 3 20
M  V30 22 1 3 21
M  V30 23 1 8 22
M  V30 24 1 8 23
M  V30 25 1 9 24
M  V30 26 1 12 25
M  V30 27 1 12 26
M  V30 28 1 13 27
M  V30 29 1 14 28
M  V30 30 1 14 29
M  V30 31 1 15 30
M  V30 32 1 16 31
M  V30 33 1 16 32
M  V30 34 1 17 33
M  V30 35 1 17 34
M  V30 36 1 18 35
M  V30 37 1 18 36
M  V30 END BOND
M  V30 END CTAB
M  END
