
     RDKit          3D

  0  0  0  0  0  0  0  0  0  0999 V3000
M  V30 BEGIN CTAB
M  V30 COUNTS 22 22 0 0 0
M  V30 BEGIN ATOM
M  V30 1 N -3.49976 -0.771979 -0.595257 0
M  V30 2 C -3.72437 0.468812 0.0400964 0
M  V30 3 S -5.19029 1.15704 -0.152806 0
M  V30 4 N -2.69135 1.0532 0.802314 0
M  V30 5 N -1.45448 0.41848 0.933426 0
M  V30 6 C -0.468763 0.68188 0.153005 0
M  V30 7 C 0.790199 -0.0105435 0.339787 0
M  V30 8 C 1.86699 0.24838 -0.479611 0
M  V30 9 N 1.70275 1.21081 -1.50711 0
M  V30 10 C 3.0914 -0.392974 -0.334902 0
M  V30 11 C 3.20475 -1.32517 0.682518 0
M  V30 12 C 2.11387 -1.56456 1.48627 0
M  V30 13 N 0.949093 -0.91667 1.30516 0
M  V30 14 H -4.27833 -1.44788 -0.66366 0
M  V30 15 H -2.58007 -1.00707 -0.985992 0
M  V30 16 H -2.8119 1.97633 1.29394 0
M  V30 17 H -0.582262 1.39657 -0.614177 0
M  V30 18 H 1.95646 0.973436 -2.49016 0
M  V30 19 H 1.33244 2.17239 -1.33786 0
M  V30 20 H 3.93829 -0.1763 -0.994363 0
M  V30 21 H 4.14301 -1.85645 0.839191 0
M  V30 22 H 2.19231 -2.28773 2.28018 0
M  V30 END ATOM
M  V30 BEGIN BOND
M  V30 1 1 1 2
M  V30 2 2 2 3
M  V30 3 1 2 4
M  V30 4 1 4 5
M  V30 5 2 5 6
M  V30 6 1 6 7
M  V30 7 2 7 8
M  V30 8 1 8 9
M  V30 9 1 8 10
M  V30 10 2 10 11
M  V30 11 1 11 12
M  V30 12 2 12 13
M  V30 13 1 13 7
M  V30 14 1 1 14
M  V30 15 1 1 15
M  V30 16 1 4 16
M  V30 17 1 6 17
M  V30 18 1 9 18
M  V30 19 1 9 19
M  V30 20 1 10 20
M  V30 21 1 11 21
M  V30 22 1 12 22
M  V30 END BOND
M  V30 END CTAB
M  END
