
     RDKit          3D

  0  0  0  0  0  0  0  0  0  0999 V3000
M  V30 BEGIN CTAB
M  V30 COUNTS 36 37 0 0 0
M  V30 BEGIN ATOM
M  V30 1 N 4.13882 0.0281269 2.32319 0
M  V30 2 C 3.38031 0.0184094 1.12309 0
M  V30 3 C 4.05626 0.137931 -0.0869501 0
M  V30 4 C 3.34128 0.130736 -1.25866 0
M  V30 5 C 1.96985 0.00318527 -1.16721 0
M  V30 6 C 1.30003 -0.114976 0.0261488 0
M  V30 7 N 2.03869 -0.103186 1.14705 0
M  V30 8 C -0.170877 -0.244762 -0.0197078 0 CFG=1
M  V30 9 C -0.474197 -1.68917 0.409921 0
M  V30 10 C -1.61173 -2.26293 -0.391333 0
M  V30 11 C -2.94422 -1.6956 -0.0521624 0
M  V30 12 C -2.94311 -0.172601 -0.0165984 0
M  V30 13 C -2.17385 0.2495 1.1907 0
M  V30 14 N -0.816879 0.595185 0.958349 0
M  V30 15 S -0.657936 2.26615 0.637811 0
M  V30 16 O 0.773063 2.71988 0.6633 0
M  V30 17 O -1.37539 3.0142 1.72755 0
M  V30 18 N -1.36689 2.73617 -0.852634 0
M  V30 19 H 4.24719 0.887741 2.87265 0
M  V30 20 H 4.59113 -0.850527 2.64931 0
M  V30 21 H 5.12039 0.233295 -0.0836791 0
M  V30 22 H 3.82589 0.221973 -2.24008 0
M  V30 23 H 1.43743 0.00228222 -2.13137 0
M  V30 24 H -0.512939 -0.0849631 -1.03789 0
M  V30 25 H -0.640486 -1.73336 1.5043 0
M  V30 26 H 0.413971 -2.34601 0.215205 0
M  V30 27 H -1.63144 -3.34545 -0.216025 0
M  V30 28 H -1.4043 -2.07398 -1.45512 0
M  V30 29 H -3.64762 -1.9719 -0.884808 0
M  V30 30 H -3.3783 -2.07614 0.886113 0
M  V30 31 H -2.53525 0.174009 -0.972878 0
M  V30 32 H -4.00917 0.1694 0.0102994 0
M  V30 33 H -2.21874 -0.535142 1.98945 0
M  V30 34 H -2.67892 1.14327 1.65716 0
M  V30 35 H -1.03394 3.73028 -1.03824 0
M  V30 36 H -2.40809 2.83899 -0.730122 0
M  V30 END ATOM
M  V30 BEGIN BOND
M  V30 1 1 1 2
M  V30 2 2 2 3
M  V30 3 1 3 4
M  V30 4 2 4 5
M  V30 5 1 5 6
M  V30 6 2 6 7
M  V30 7 1 6 8
M  V30 8 1 8 9
M  V30 9 1 9 10
M  V30 10 1 10 11
M  V30 11 1 11 12
M  V30 12 1 12 13
M  V30 13 1 13 14
M  V30 14 1 14 15
M  V30 15 2 15 16
M  V30 16 2 15 17
M  V30 17 1 15 18
M  V30 18 1 7 2
M  V30 19 1 14 8
M  V30 20 1 1 19
M  V30 21 1 1 20
M  V30 22 1 3 21
M  V30 23 1 4 22
M  V30 24 1 5 23
M  V30 25 1 8 24 CFG=3
M  V30 26 1 9 25
M  V30 27 1 9 26
M  V30 28 1 10 27
M  V30 29 1 10 28
M  V30 30 1 11 29
M  V30 31 1 11 30
M  V30 32 1 12 31
M  V30 33 1 12 32
M  V30 34 1 13 33
M  V30 35 1 13 34
M  V30 36 1 18 35
M  V30 37 1 18 36
M  V30 END BOND
M  V30 END CTAB
M  END
