
     RDKit          3D

  0  0  0  0  0  0  0  0  0  0999 V3000
M  V30 BEGIN CTAB
M  V30 COUNTS 42 44 0 0 0
M  V30 BEGIN ATOM
M  V30 1 N -5.9343 -1.46065 0.781846 0
M  V30 2 C -4.91787 -0.570257 0.349903 0
M  V30 3 C -5.21166 0.529477 -0.426084 0
M  V30 4 C -4.21018 1.40145 -0.848142 0
M  V30 5 N -4.51006 2.53419 -1.647 0
M  V30 6 N -2.95866 1.11004 -0.458809 0
M  V30 7 C -2.63637 0.0482278 0.296466 0
M  V30 8 N -3.6436 -0.779885 0.688509 0
M  V30 9 N -1.29743 -0.199161 0.670262 0
M  V30 10 C -0.925451 -1.32326 1.47461 0
M  V30 11 C 0.341375 -1.91185 0.886557 0
M  V30 12 C 1.48943 -0.925748 0.916523 0
M  V30 13 C 0.993814 0.476483 1.05015 0
M  V30 14 C -0.259775 0.70677 0.231367 0
M  V30 15 C 2.33703 -1.18411 -0.285397 0
M  V30 16 C 3.50918 -0.329222 -0.442332 0
M  V30 17 C 3.3952 0.837643 -1.15659 0
M  V30 18 C 4.47785 1.66687 -1.32466 0
M  V30 19 C 5.70145 1.34755 -0.781293 0
M  V30 20 C 5.84141 0.175089 -0.0561962 0
M  V30 21 C 4.7312 -0.646385 0.099307 0
M  V30 22 H -6.66358 -1.06415 1.42319 0
M  V30 23 H -5.91959 -2.44366 0.456796 0
M  V30 24 H -6.2141 0.747992 -0.728039 0
M  V30 25 H -5.11365 3.30663 -1.29178 0
M  V30 26 H -4.12755 2.62391 -2.62641 0
M  V30 27 H -1.68132 -2.13383 1.47079 0
M  V30 28 H -0.707585 -1.06274 2.52718 0
M  V30 29 H 0.160815 -2.20144 -0.168424 0
M  V30 30 H 0.610833 -2.84661 1.41709 0
M  V30 31 H 2.08048 -1.1925 1.82849 0
M  V30 32 H 1.72439 1.25915 0.870425 0
M  V30 33 H 0.666732 0.606189 2.12274 0
M  V30 34 H -0.622504 1.73706 0.39954 0
M  V30 35 H -0.0699481 0.507408 -0.847045 0
M  V30 36 H 2.71011 -2.2421 -0.189178 0
M  V30 37 H 1.72487 -1.15973 -1.21391 0
M  V30 38 H 2.43843 1.12545 -1.60371 0
M  V30 39 H 4.40347 2.58732 -1.88354 0
M  V30 40 H 6.58579 1.97365 -0.888677 0
M  V30 41 H 6.8042 -0.0759869 0.371242 0
M  V30 42 H 4.89711 -1.55528 0.678161 0
M  V30 END ATOM
M  V30 BEGIN BOND
M  V30 1 1 1 2
M  V30 2 2 2 3
M  V30 3 1 3 4
M  V30 4 1 4 5
M  V30 5 2 4 6
M  V30 6 1 6 7
M  V30 7 2 7 8
M  V30 8 1 7 9
M  V30 9 1 9 10
M  V30 10 1 10 11
M  V30 11 1 11 12
M  V30 12 1 12 13
M  V30 13 1 13 14
M  V30 14 1 12 15
M  V30 15 1 15 16
M  V30 16 2 16 17
M  V30 17 1 17 18
M  V30 18 2 18 19
M  V30 19 1 19 20
M  V30 20 2 20 21
M  V30 21 1 8 2
M  V30 22 1 14 9
M  V30 23 1 21 16
M  V30 24 1 1 22
M  V30 25 1 1 23
M  V30 26 1 3 24
M  V30 27 1 5 25
M  V30 28 1 5 26
M  V30 29 1 10 27
M  V30 30 1 10 28
M  V30 31 1 11 29
M  V30 32 1 11 30
M  V30 33 1 12 31
M  V30 34 1 13 32
M  V30 35 1 13 33
M  V30 36 1 14 34
M  V30 37 1 14 35
M  V30 38 1 15 36
M  V30 39 1 15 37
M  V30 40 1 17 38
M  V30 41 1 18 39
M  V30 42 1 19 40
M  V30 43 1 20 41
M  V30 44 1 21 42
M  V30 END BOND
M  V30 END CTAB
M  END
