
     RDKit          3D

  0  0  0  0  0  0  0  0  0  0999 V3000
M  V30 BEGIN CTAB
M  V30 COUNTS 60 63 0 0 0
M  V30 BEGIN ATOM
M  V30 1 C -7.60856 1.74227 -3.77067 0
M  V30 2 O -7.54338 0.622919 -2.91772 0
M  V30 3 C -6.54295 0.400421 -1.99415 0
M  V30 4 C -6.59375 -0.728727 -1.21344 0
M  V30 5 C -5.59927 -0.983599 -0.272284 0
M  V30 6 C -5.64459 -2.10677 0.513945 0
M  V30 7 C -4.6309 -2.3396 1.45522 0
M  V30 8 C -3.58832 -1.46544 1.61076 0
M  V30 9 C -3.54839 -0.339417 0.820456 0
M  V30 10 C -4.54149 -0.10557 -0.105969 0
M  V30 11 C -4.51184 1.01976 -0.90018 0
M  V30 12 C -5.48931 1.28786 -1.83769 0
M  V30 13 C -2.52069 -1.69136 2.5765 0 CFG=2
M  V30 14 O -1.23382 -1.53214 2.04817 0
M  V30 15 C -0.349704 -0.525285 2.21782 0
M  V30 16 N -0.539269 0.572779 2.95348 0
M  V30 17 C 0.372817 1.56563 3.09878 0
M  V30 18 N 0.160256 2.73251 3.87787 0
M  V30 19 N 1.55309 1.41784 2.44611 0
M  V30 20 C 1.83664 0.346836 1.68202 0
M  V30 21 C 0.892617 -0.620022 1.56674 0
M  V30 22 C 3.11932 0.249889 0.981243 0
M  V30 23 C 4.00531 1.33638 1.01913 0
M  V30 24 C 5.21602 1.24977 0.374862 0
M  V30 25 C 5.63696 0.143396 -0.32447 0
M  V30 26 C 6.94531 0.0670048 -1.02837 0
M  V30 27 C 6.7939 0.507165 -2.48891 0 CFG=2
M  V30 28 N 5.8647 -0.338263 -3.18903 0
M  V30 29 C 8.10936 0.570715 -3.15499 0
M  V30 30 O 9.09782 1.36311 -2.56302 0
M  V30 31 O 8.37598 -0.0479569 -4.21699 0
M  V30 32 C 4.7584 -0.92407 -0.356842 0
M  V30 33 C 3.52973 -0.857952 0.285621 0
M  V30 34 C -2.5818 -3.00755 3.30174 0
M  V30 35 F -1.48519 -3.10078 4.1839 0
M  V30 36 F -3.68215 -3.06817 4.17686 0
M  V30 37 F -2.49262 -4.09512 2.48694 0
M  V30 38 H -8.17601 1.53907 -4.69674 0
M  V30 39 H -8.17551 2.54915 -3.23167 0
M  V30 40 H -6.6389 2.17388 -4.04658 0
M  V30 41 H -7.40283 -1.4695 -1.28756 0
M  V30 42 H -6.46528 -2.82652 0.410644 0
M  V30 43 H -4.7665 -3.25373 2.01735 0
M  V30 44 H -2.76018 0.416211 0.870364 0
M  V30 45 H -3.69989 1.74197 -0.805172 0
M  V30 46 H -5.40755 2.19863 -2.437 0
M  V30 47 H -2.62229 -0.857749 3.34771 0
M  V30 48 H -0.412438 3.49497 3.45825 0
M  V30 49 H 0.535771 2.88072 4.83675 0
M  V30 50 H 1.05252 -1.49387 0.973596 0
M  V30 51 H 3.70589 2.22843 1.56048 0
M  V30 52 H 5.92476 2.09078 0.390395 0
M  V30 53 H 7.75878 0.612045 -0.525153 0
M  V30 54 H 7.28894 -1.00098 -1.07419 0
M  V30 55 H 6.34643 1.53373 -2.44452 0
M  V30 56 H 6.34424 -0.953193 -3.89663 0
M  V30 57 H 5.14382 0.24815 -3.65168 0
M  V30 58 H 8.97045 2.37438 -2.44997 0
M  V30 59 H 5.05134 -1.81943 -0.900389 0
M  V30 60 H 2.86423 -1.72561 0.238285 0
M  V30 END ATOM
M  V30 BEGIN BOND
M  V30 1 1 1 2
M  V30 2 1 2 3
M  V30 3 2 3 4
M  V30 4 1 4 5
M  V30 5 2 5 6
M  V30 6 1 6 7
M  V30 7 2 7 8
M  V30 8 1 8 9
M  V30 9 2 9 10
M  V30 10 1 10 11
M  V30 11 2 11 12
M  V30 12 1 8 13
M  V30 13 1 13 14
M  V30 14 1 14 15
M  V30 15 2 15 16
M  V30 16 1 16 17
M  V30 17 1 17 18
M  V30 18 2 17 19
M  V30 19 1 19 20
M  V30 20 2 20 21
M  V30 21 1 20 22
M  V30 22 2 22 23
M  V30 23 1 23 24
M  V30 24 2 24 25
M  V30 25 1 25 26
M  V30 26 1 26 27
M  V30 27 1 27 28
M  V30 28 1 27 29
M  V30 29 1 29 30
M  V30 30 2 29 31
M  V30 31 1 25 32
M  V30 32 2 32 33
M  V30 33 1 13 34
M  V30 34 1 34 35
M  V30 35 1 34 36
M  V30 36 1 34 37
M  V30 37 1 12 3
M  V30 38 1 21 15
M  V30 39 1 33 22
M  V30 40 1 10 5
M  V30 41 1 1 38
M  V30 42 1 1 39
M  V30 43 1 1 40
M  V30 44 1 4 41
M  V30 45 1 6 42
M  V30 46 1 7 43
M  V30 47 1 9 44
M  V30 48 1 11 45
M  V30 49 1 12 46
M  V30 50 1 13 47 CFG=1
M  V30 51 1 18 48
M  V30 52 1 18 49
M  V30 53 1 21 50
M  V30 54 1 23 51
M  V30 55 1 24 52
M  V30 56 1 26 53
M  V30 57 1 26 54
M  V30 58 1 27 55 CFG=1
M  V30 59 1 28 56
M  V30 60 1 28 57
M  V30 61 1 30 58
M  V30 62 1 32 59
M  V30 63 1 33 60
M  V30 END BOND
M  V30 END CTAB
M  END
