
     RDKit          3D

  0  0  0  0  0  0  0  0  0  0999 V3000
M  V30 BEGIN CTAB
M  V30 COUNTS 48 49 0 0 0
M  V30 BEGIN ATOM
M  V30 1 O -0.0125034 2.40377 0.378801 0
M  V30 2 C 0.373401 1.22274 0.569785 0
M  V30 3 C 1.87681 0.994269 0.725416 0
M  V30 4 C 2.43945 0.325786 -0.485825 0
M  V30 5 C 3.90997 0.093994 -0.350978 0
M  V30 6 C 4.85854 1.00244 -0.79389 0
M  V30 7 C 6.20963 0.760167 -0.65512 0
M  V30 8 C 6.65176 -0.404301 -0.0660451 0
M  V30 9 C 5.70826 -1.31523 0.378177 0
M  V30 10 C 4.3445 -1.06844 0.236987 0
M  V30 11 N 1.74565 -0.822413 -0.959541 0
M  V30 12 C 2.096 0.193366 1.99115 0
M  V30 13 N -0.5047 0.149905 0.639446 0
M  V30 14 C -1.90002 0.155845 0.515052 0
M  V30 15 C -2.64277 1.28735 0.297426 0
M  V30 16 C -4.02994 1.18682 0.188926 0
M  V30 17 C -4.64142 -0.0192884 0.29746 0
M  V30 18 C -3.92886 -1.19186 0.517941 0
M  V30 19 C -2.57126 -1.09405 0.624192 0
M  V30 20 C -1.76118 -2.33751 0.861817 0
M  V30 21 C -4.61401 -2.51079 0.635193 0
M  V30 22 S -4.92744 2.66157 -0.088475 0
M  V30 23 O -4.21298 3.83786 0.473004 0
M  V30 24 O -6.32113 2.50847 0.446329 0
M  V30 25 N -5.04067 2.86452 -1.81587 0
M  V30 26 H 2.34114 1.9781 0.85904 0
M  V30 27 H 2.36338 1.09547 -1.31557 0
M  V30 28 H 4.47347 1.9166 -1.25683 0
M  V30 29 H 6.89492 1.50137 -1.01763 0
M  V30 30 H 7.71398 -0.623719 0.0575492 0
M  V30 31 H 6.03837 -2.23413 0.842781 0
M  V30 32 H 3.62447 -1.79347 0.591054 0
M  V30 33 H 1.99907 -0.98764 -1.95938 0
M  V30 34 H 1.85697 -1.68388 -0.419297 0
M  V30 35 H 1.49679 0.724001 2.78842 0
M  V30 36 H 1.70986 -0.823925 1.94265 0
M  V30 37 H 3.14665 0.277426 2.32127 0
M  V30 38 H -0.0441864 -0.80217 0.823352 0
M  V30 39 H -2.17968 2.24519 0.209255 0
M  V30 40 H -5.71128 -0.117316 0.216547 0
M  V30 41 H -1.02421 -2.39318 0.0112923 0
M  V30 42 H -1.19081 -2.27042 1.79126 0
M  V30 43 H -2.38797 -3.23465 0.757607 0
M  V30 44 H -4.45015 -2.98168 1.61511 0
M  V30 45 H -4.31578 -3.17789 -0.195969 0
M  V30 46 H -5.71436 -2.36025 0.533824 0
M  V30 47 H -4.07939 2.70889 -2.18194 0
M  V30 48 H -5.66633 2.15228 -2.23677 0
M  V30 END ATOM
M  V30 BEGIN BOND
M  V30 1 2 1 2
M  V30 2 1 2 3
M  V30 3 1 3 4
M  V30 4 1 4 5
M  V30 5 2 5 6
M  V30 6 1 6 7
M  V30 7 2 7 8
M  V30 8 1 8 9
M  V30 9 2 9 10
M  V30 10 1 4 11
M  V30 11 1 3 12
M  V30 12 1 2 13
M  V30 13 1 13 14
M  V30 14 2 14 15
M  V30 15 1 15 16
M  V30 16 2 16 17
M  V30 17 1 17 18
M  V30 18 2 18 19
M  V30 19 1 19 20
M  V30 20 1 18 21
M  V30 21 1 16 22
M  V30 22 2 22 23
M  V30 23 2 22 24
M  V30 24 1 22 25
M  V30 25 1 10 5
M  V30 26 1 19 14
M  V30 27 1 3 26
M  V30 28 1 4 27
M  V30 29 1 6 28
M  V30 30 1 7 29
M  V30 31 1 8 30
M  V30 32 1 9 31
M  V30 33 1 10 32
M  V30 34 1 11 33
M  V30 35 1 11 34
M  V30 36 1 12 35
M  V30 37 1 12 36
M  V30 38 1 12 37
M  V30 39 1 13 38
M  V30 40 1 15 39
M  V30 41 1 17 40
M  V30 42 1 20 41
M  V30 43 1 20 42
M  V30 44 1 20 43
M  V30 45 1 21 44
M  V30 46 1 21 45
M  V30 47 1 21 46
M  V30 48 1 25 47
M  V30 49 1 25 48
M  V30 END BOND
M  V30 END CTAB
M  END
