
     RDKit          3D

  0  0  0  0  0  0  0  0  0  0999 V3000
M  V30 BEGIN CTAB
M  V30 COUNTS 40 42 0 0 0
M  V30 BEGIN ATOM
M  V30 1 O 0.229546 -2.0437 0.464094 0
M  V30 2 C 0.0944274 -0.825794 0.233334 0
M  V30 3 N 1.12589 0.11631 0.0708729 0
M  V30 4 C 2.51553 -0.152051 0.132185 0
M  V30 5 C 3.00187 -1.44943 0.0285296 0
M  V30 6 C 4.37501 -1.69052 0.0161192 0
M  V30 7 O 5.08547 -2.87769 -0.0767653 0
M  V30 8 C 6.45891 -2.57005 -0.35038 0
M  V30 9 O 6.59592 -1.24088 0.0632821 0
M  V30 10 C 5.29899 -0.689078 0.102465 0
M  V30 11 C 4.8158 0.58573 0.204676 0
M  V30 12 C 3.43776 0.888136 0.223374 0
M  V30 13 C 3.05303 2.26389 0.389018 0
M  V30 14 O 1.91985 2.73641 0.499371 0
M  V30 15 C 4.15684 3.30507 0.439435 0
M  V30 16 C -1.32537 -0.29678 0.113974 0
M  V30 17 S -2.5152 -1.61408 0.344784 0
M  V30 18 C -4.1568 -0.896258 0.186833 0
M  V30 19 N -4.34057 0.418139 -0.0627519 0
M  V30 20 C -5.55312 0.984105 -0.186123 0
M  V30 21 N -5.71344 2.37231 -0.449249 0
M  V30 22 C -6.66468 0.180676 -0.0507352 0
M  V30 23 C -6.51313 -1.18749 0.208503 0
M  V30 24 N -5.26344 -1.65081 0.313103 0
M  V30 25 N -7.65666 -2.01441 0.347864 0
M  V30 26 H 0.785658 1.09074 -0.144601 0
M  V30 27 H 2.33011 -2.27487 -0.0559089 0
M  V30 28 H 6.67894 -2.62595 -1.43562 0
M  V30 29 H 7.11598 -3.26841 0.224051 0
M  V30 30 H 5.53821 1.40111 0.273991 0
M  V30 31 H 4.86414 3.04906 1.2579 0
M  V30 32 H 3.73585 4.29051 0.702717 0
M  V30 33 H 4.67256 3.38965 -0.517071 0
M  V30 34 H -1.41131 0.0811598 -0.916994 0
M  V30 35 H -1.40688 0.504446 0.872749 0
M  V30 36 H -5.46848 2.7674 -1.3698 0
M  V30 37 H -6.09237 2.97885 0.334686 0
M  V30 38 H -7.67692 0.552339 -0.134783 0
M  V30 39 H -8.48432 -1.61942 0.830481 0
M  V30 40 H -7.64359 -2.96838 -0.0239187 0
M  V30 END ATOM
M  V30 BEGIN BOND
M  V30 1 2 1 2
M  V30 2 1 2 3
M  V30 3 1 3 4
M  V30 4 2 4 5
M  V30 5 1 5 6
M  V30 6 1 6 7
M  V30 7 1 7 8
M  V30 8 1 8 9
M  V30 9 1 9 10
M  V30 10 1 10 11
M  V30 11 2 11 12
M  V30 12 1 12 13
M  V30 13 2 13 14
M  V30 14 1 13 15
M  V30 15 1 2 16
M  V30 16 1 16 17
M  V30 17 1 17 18
M  V30 18 2 18 19
M  V30 19 1 19 20
M  V30 20 1 20 21
M  V30 21 2 20 22
M  V30 22 1 22 23
M  V30 23 2 23 24
M  V30 24 1 23 25
M  V30 25 1 12 4
M  V30 26 1 24 18
M  V30 27 2 10 6
M  V30 28 1 3 26
M  V30 29 1 5 27
M  V30 30 1 8 28
M  V30 31 1 8 29
M  V30 32 1 11 30
M  V30 33 1 15 31
M  V30 34 1 15 32
M  V30 35 1 15 33
M  V30 36 1 16 34
M  V30 37 1 16 35
M  V30 38 1 21 36
M  V30 39 1 21 37
M  V30 40 1 22 38
M  V30 41 1 25 39
M  V30 42 1 25 40
M  V30 END BOND
M  V30 END CTAB
M  END
