
     RDKit          3D

  0  0  0  0  0  0  0  0  0  0999 V3000
M  V30 BEGIN CTAB
M  V30 COUNTS 49 51 0 0 0
M  V30 BEGIN ATOM
M  V30 1 N -4.17226 -1.91406 1.82563 0
M  V30 2 C -3.85776 -2.01032 0.436262 0
M  V30 3 C -2.504 -1.42725 0.114132 0 CFG=2
M  V30 4 C -1.39919 -2.1652 0.888769 0
M  V30 5 N -0.284362 -1.21902 0.707613 0
M  V30 6 C -0.802263 0.114107 0.550532 0
M  V30 7 C -2.29284 -0.0622002 0.728463 0 CFG=1
M  V30 8 C -3.0805 0.991012 0.0878852 0
M  V30 9 C -3.00757 1.24269 -1.24231 0
M  V30 10 C -3.77817 2.25314 -1.78958 0
M  V30 11 C -4.62745 3.02033 -1.01432 0
M  V30 12 C -4.69121 2.75307 0.336584 0
M  V30 13 C -3.92469 1.74999 0.872935 0
M  V30 14 C 1.07637 -1.59327 0.697234 0
M  V30 15 O 1.37644 -2.83049 0.866001 0
M  V30 16 C 2.23313 -0.703281 0.509317 0
M  V30 17 C 3.20187 -1.27832 -0.535649 0
M  V30 18 C 4.36341 -0.363739 -0.706886 0
M  V30 19 C 5.49554 -0.495245 0.098408 0
M  V30 20 C 6.5785 0.332008 -0.0443561 0
M  V30 21 C 6.59008 1.33655 -0.999835 0
M  V30 22 C 5.48233 1.46122 -1.78406 0
M  V30 23 C 4.38188 0.636535 -1.65436 0
M  V30 24 N 1.91957 0.668055 0.248296 0
M  V30 25 H -4.66448 -2.77733 2.19298 0
M  V30 26 H -4.86924 -1.13663 1.97207 0
M  V30 27 H -4.5996 -1.54472 -0.240036 0
M  V30 28 H -3.82013 -3.09039 0.1643 0
M  V30 29 H -2.28979 -1.39414 -0.952999 0
M  V30 30 H -1.18523 -3.14509 0.471355 0
M  V30 31 H -1.72936 -2.16664 1.94644 0
M  V30 32 H -0.57119 0.44103 -0.504554 0
M  V30 33 H -0.397427 0.835877 1.29506 0
M  V30 34 H -2.47676 -0.127722 1.81828 0
M  V30 35 H -2.33692 0.640677 -1.86976 0
M  V30 36 H -3.74035 2.47472 -2.84173 0
M  V30 37 H -5.23405 3.81193 -1.42997 0
M  V30 38 H -5.3478 3.32985 1.00105 0
M  V30 39 H -4.00228 1.57201 1.93081 0
M  V30 40 H 2.86051 -0.705568 1.4554 0
M  V30 41 H 2.66792 -1.45906 -1.48707 0
M  V30 42 H 3.58611 -2.23955 -0.149775 0
M  V30 43 H 5.5094 -1.26401 0.843246 0
M  V30 44 H 7.47296 0.243853 0.576772 0
M  V30 45 H 7.44689 1.97596 -1.09822 0
M  V30 46 H 5.45913 2.23395 -2.53832 0
M  V30 47 H 3.52768 0.789633 -2.31863 0
M  V30 48 H 1.75282 0.917717 -0.7387 0
M  V30 49 H 2.70432 1.28731 0.587088 0
M  V30 END ATOM
M  V30 BEGIN BOND
M  V30 1 1 1 2
M  V30 2 1 2 3
M  V30 3 1 3 4
M  V30 4 1 4 5
M  V30 5 1 5 6
M  V30 6 1 6 7
M  V30 7 1 7 8
M  V30 8 2 8 9
M  V30 9 1 9 10
M  V30 10 2 10 11
M  V30 11 1 11 12
M  V30 12 2 12 13
M  V30 13 1 5 14
M  V30 14 2 14 15
M  V30 15 1 14 16
M  V30 16 1 16 17
M  V30 17 1 17 18
M  V30 18 2 18 19
M  V30 19 1 19 20
M  V30 20 2 20 21
M  V30 21 1 21 22
M  V30 22 2 22 23
M  V30 23 1 16 24
M  V30 24 1 7 3
M  V30 25 1 13 8
M  V30 26 1 23 18
M  V30 27 1 1 25
M  V30 28 1 1 26
M  V30 29 1 2 27
M  V30 30 1 2 28
M  V30 31 1 3 29 CFG=3
M  V30 32 1 4 30
M  V30 33 1 4 31
M  V30 34 1 6 32
M  V30 35 1 6 33
M  V30 36 1 7 34 CFG=1
M  V30 37 1 9 35
M  V30 38 1 10 36
M  V30 39 1 11 37
M  V30 40 1 12 38
M  V30 41 1 13 39
M  V30 42 1 16 40
M  V30 43 1 17 41
M  V30 44 1 17 42
M  V30 45 1 19 43
M  V30 46 1 20 44
M  V30 47 1 21 45
M  V30 48 1 22 46
M  V30 49 1 23 47
M  V30 50 1 24 48
M  V30 51 1 24 49
M  V30 END BOND
M  V30 END CTAB
M  END
