
     RDKit          3D

  0  0  0  0  0  0  0  0  0  0999 V3000
M  V30 BEGIN CTAB
M  V30 COUNTS 31 30 0 0 0
M  V30 BEGIN ATOM
M  V30 1 N 4.33193 1.0628 1.30595 0
M  V30 2 C 3.24756 1.42923 0.410253 0
M  V30 3 C 2.57876 0.150855 -0.0173911 0
M  V30 4 C 1.42201 0.367749 -0.975172 0
M  V30 5 C 0.843417 -0.995826 -1.33849 0
M  V30 6 N 0.349981 -1.6414 -0.186837 0
M  V30 7 C -0.821955 -1.10868 0.420241 0
M  V30 8 C -2.0377 -1.34316 -0.46644 0
M  V30 9 N -3.19658 -0.802015 0.159771 0
M  V30 10 C -3.48621 0.564328 0.360053 0
M  V30 11 N -3.03032 1.28513 1.30465 0
M  V30 12 N -4.36888 1.17745 -0.581029 0
M  V30 13 H 3.9692 0.319015 1.93807 0
M  V30 14 H 4.67651 1.85481 1.87031 0
M  V30 15 H 2.59458 2.10924 1.00238 0
M  V30 16 H 3.62788 1.95811 -0.490892 0
M  V30 17 H 2.25605 -0.418158 0.888604 0
M  V30 18 H 3.34195 -0.494037 -0.505068 0
M  V30 19 H 0.619953 0.933282 -0.443311 0
M  V30 20 H 1.76188 0.930487 -1.85529 0
M  V30 21 H 0.108381 -0.854905 -2.14636 0
M  V30 22 H 1.69974 -1.63276 -1.72472 0
M  V30 23 H 0.973524 -2.14846 0.421115 0
M  V30 24 H -0.779885 -0.043123 0.670217 0
M  V30 25 H -1.00723 -1.7041 1.35229 0
M  V30 26 H -1.80407 -0.875824 -1.4453 0
M  V30 27 H -2.11379 -2.43675 -0.622394 0
M  V30 28 H -3.9307 -1.47918 0.521608 0
M  V30 29 H -2.39809 1.03034 2.06533 0
M  V30 30 H -4.26906 2.16625 -0.852273 0
M  V30 31 H -5.15883 0.6393 -1.03988 0
M  V30 END ATOM
M  V30 BEGIN BOND
M  V30 1 1 1 2
M  V30 2 1 2 3
M  V30 3 1 3 4
M  V30 4 1 4 5
M  V30 5 1 5 6
M  V30 6 1 6 7
M  V30 7 1 7 8
M  V30 8 1 8 9
M  V30 9 1 9 10
M  V30 10 2 10 11 CFG=2
M  V30 11 1 10 12
M  V30 12 1 1 13
M  V30 13 1 1 14
M  V30 14 1 2 15
M  V30 15 1 2 16
M  V30 16 1 3 17
M  V30 17 1 3 18
M  V30 18 1 4 19
M  V30 19 1 4 20
M  V30 20 1 5 21
M  V30 21 1 5 22
M  V30 22 1 6 23
M  V30 23 1 7 24
M  V30 24 1 7 25
M  V30 25 1 8 26
M  V30 26 1 8 27
M  V30 27 1 9 28
M  V30 28 1 11 29
M  V30 29 1 12 30
M  V30 30 1 12 31
M  V30 END BOND
M  V30 END CTAB
M  END
