
     RDKit          3D

  0  0  0  0  0  0  0  0  0  0999 V3000
M  V30 BEGIN CTAB
M  V30 COUNTS 50 49 0 0 0
M  V30 BEGIN ATOM
M  V30 1 C 6.13352 0.674463 0.292807 0
M  V30 2 C 5.69255 0.359715 -1.11104 0
M  V30 3 C 4.64665 -0.716252 -1.15219 0
M  V30 4 C 3.46098 -0.185609 -0.33149 0
M  V30 5 C 2.36702 -1.19958 -0.33761 0
M  V30 6 C 1.1354 -0.794406 0.454281 0
M  V30 7 C 0.523146 0.469477 -0.0590044 0
M  V30 8 C -0.68109 0.988587 0.540183 0
M  V30 9 N -1.98707 0.59172 0.513951 0
M  V30 10 C -2.59374 0.910924 -0.838063 0
M  V30 11 C -2.70188 2.40204 -1.01492 0
M  V30 12 C -3.54882 3.06623 0.0254106 0
M  V30 13 N -4.88748 2.54257 -0.016175 0
M  V30 14 C -2.53763 -0.618751 0.939359 0
M  V30 15 C -2.4916 -1.81473 0.080676 0
M  V30 16 C -3.12074 -3.01928 0.772643 0
M  V30 17 N -2.99136 -4.11621 -0.203265 0
M  V30 18 H 7.2273 0.831352 0.375672 0
M  V30 19 H 5.61832 1.6075 0.636962 0
M  V30 20 H 5.86749 -0.191886 0.952253 0
M  V30 21 H 6.58424 0.0377612 -1.71775 0
M  V30 22 H 5.26211 1.27303 -1.61103 0
M  V30 23 H 5.04144 -1.64703 -0.674417 0
M  V30 24 H 4.29893 -0.860031 -2.17435 0
M  V30 25 H 3.16614 0.810987 -0.736521 0
M  V30 26 H 3.82705 -0.0247744 0.705705 0
M  V30 27 H 2.76022 -2.10194 0.177385 0
M  V30 28 H 2.03607 -1.47807 -1.33641 0
M  V30 29 H 0.469861 -1.61585 0.547701 0
M  V30 30 H 1.50045 -0.555908 1.51722 0
M  V30 31 H 0.482247 0.381664 -1.19149 0
M  V30 32 H 1.3692 1.24385 0.0434952 0
M  V30 33 H -0.412865 1.07787 1.69256 0
M  V30 34 H -0.688631 2.13489 0.330008 0
M  V30 35 H -3.61622 0.510965 -0.760047 0
M  V30 36 H -2.0539 0.43214 -1.63163 0
M  V30 37 H -3.24803 2.53083 -2.00023 0
M  V30 38 H -1.73494 2.91461 -1.19032 0
M  V30 39 H -3.11776 2.88702 1.02925 0
M  V30 40 H -3.60333 4.1543 -0.194784 0
M  V30 41 H -5.10775 1.86973 0.756948 0
M  V30 42 H -5.61061 3.27615 -0.129943 0
M  V30 43 H -3.62419 -0.400957 1.22756 0
M  V30 44 H -2.09765 -0.860275 1.95688 0
M  V30 45 H -1.52935 -2.0874 -0.269996 0
M  V30 46 H -3.20283 -1.64465 -0.804463 0
M  V30 47 H -2.58949 -3.23493 1.69615 0
M  V30 48 H -4.19889 -2.89131 0.93526 0
M  V30 49 H -1.97648 -4.12727 -0.477275 0
M  V30 50 H -3.516 -3.79328 -1.05482 0
M  V30 END ATOM
M  V30 BEGIN BOND
M  V30 1 1 1 2
M  V30 2 1 2 3
M  V30 3 1 3 4
M  V30 4 1 4 5
M  V30 5 1 5 6
M  V30 6 1 6 7
M  V30 7 1 7 8
M  V30 8 1 8 9
M  V30 9 1 9 10
M  V30 10 1 10 11
M  V30 11 1 11 12
M  V30 12 1 12 13
M  V30 13 1 9 14
M  V30 14 1 14 15
M  V30 15 1 15 16
M  V30 16 1 16 17
M  V30 17 1 1 18
M  V30 18 1 1 19
M  V30 19 1 1 20
M  V30 20 1 2 21
M  V30 21 1 2 22
M  V30 22 1 3 23
M  V30 23 1 3 24
M  V30 24 1 4 25
M  V30 25 1 4 26
M  V30 26 1 5 27
M  V30 27 1 5 28
M  V30 28 1 6 29
M  V30 29 1 6 30
M  V30 30 1 7 31
M  V30 31 1 7 32
M  V30 32 1 8 33
M  V30 33 1 8 34
M  V30 34 1 10 35
M  V30 35 1 10 36
M  V30 36 1 11 37
M  V30 37 1 11 38
M  V30 38 1 12 39
M  V30 39 1 12 40
M  V30 40 1 13 41
M  V30 41 1 13 42
M  V30 42 1 14 43
M  V30 43 1 14 44
M  V30 44 1 15 45
M  V30 45 1 15 46
M  V30 46 1 16 47
M  V30 47 1 16 48
M  V30 48 1 17 49
M  V30 49 1 17 50
M  V30 END BOND
M  V30 END CTAB
M  END
