
     RDKit          3D

  0  0  0  0  0  0  0  0  0  0999 V3000
M  V30 BEGIN CTAB
M  V30 COUNTS 56 60 0 0 0
M  V30 BEGIN ATOM
M  V30 1 Cl -7.92469 -0.539553 -2.80912 0
M  V30 2 C -6.70579 -0.633266 -1.55202 0
M  V30 3 C -5.6533 -1.51274 -1.66311 0
M  V30 4 C -4.70389 -1.56714 -0.656507 0
M  V30 5 C -4.76188 -0.772967 0.466571 0
M  V30 6 C -5.83109 0.108646 0.561733 0
M  V30 7 C -6.79126 0.175259 -0.438942 0
M  V30 8 C -3.78656 -0.791304 1.54695 0
M  V30 9 N -4.06242 -0.813927 2.86929 0
M  V30 10 N -2.94866 -0.821567 3.57812 0
M  V30 11 C -1.87905 -0.804608 2.76317 0
M  V30 12 C -2.39207 -0.785142 1.48646 0
M  V30 13 C -1.27742 -0.754955 0.533421 0
M  V30 14 C -1.26942 0.482884 -0.290947 0
M  V30 15 C -1.00107 1.71012 0.258667 0
M  V30 16 C -0.993489 2.85072 -0.525864 0
M  V30 17 C -1.2555 2.7851 -1.88293 0
M  V30 18 C -1.52517 1.56006 -2.44228 0
M  V30 19 C -1.52884 0.424562 -1.64024 0
M  V30 20 N -1.24088 3.96914 -2.64965 0 CHG=1
M  V30 21 O -1.47908 3.92339 -3.86944 0
M  V30 22 O -0.967411 5.18372 -2.07179 0 CHG=-1
M  V30 23 N -0.0739132 -0.786264 1.37392 0
M  V30 24 C -0.423427 -0.805364 2.74985 0
M  V30 25 O 0.390001 -0.819402 3.71469 0
M  V30 26 C 1.21509 -0.795976 0.775354 0
M  V30 27 C 2.04483 0.274249 0.994707 0
M  V30 28 C 3.30101 0.265796 0.401929 0
M  V30 29 C 3.73027 -0.774721 -0.389548 0
M  V30 30 C 2.89217 -1.8445 -0.604031 0
M  V30 31 C 1.62525 -1.84593 -0.0118543 0
M  V30 32 S 5.32264 -0.705463 -1.10819 0
M  V30 33 O 5.2663 -1.58285 -2.3432 0
M  V30 34 O 5.70469 0.674197 -1.49878 0
M  V30 35 N 6.48492 -1.37686 -0.0323119 0
M  V30 36 C 7.33614 -0.630668 0.586745 0
M  V30 37 N 7.32584 0.762729 0.388235 0
M  V30 38 N 8.26291 -1.26486 1.45644 0
M  V30 39 H -5.56903 -2.15494 -2.52813 0
M  V30 40 H -3.85606 -2.25504 -0.715234 0
M  V30 41 H -5.90733 0.752359 1.43841 0
M  V30 42 H -7.62679 0.868482 -0.358628 0
M  V30 43 H -2.86712 -0.838093 4.62846 0
M  V30 44 H -1.34486 -1.64738 -0.105069 0
M  V30 45 H -0.787558 1.83731 1.30808 0
M  V30 46 H -0.784365 3.82193 -0.104557 0
M  V30 47 H -1.7329 1.48057 -3.49866 0
M  V30 48 H -1.74732 -0.515948 -2.1264 0
M  V30 49 H 1.76376 1.12195 1.61056 0
M  V30 50 H 3.9691 1.10032 0.563074 0
M  V30 51 H 3.24327 -2.64444 -1.22121 0
M  V30 52 H 0.991247 -2.71195 -0.206298 0
M  V30 53 H 7.89885 1.16829 -0.380779 0
M  V30 54 H 6.78042 1.4479 0.957296 0
M  V30 55 H 8.44283 -0.800391 2.36758 0
M  V30 56 H 8.70808 -2.15147 1.13869 0
M  V30 END ATOM
M  V30 BEGIN BOND
M  V30 1 1 1 2
M  V30 2 2 2 3
M  V30 3 1 3 4
M  V30 4 2 4 5
M  V30 5 1 5 6
M  V30 6 2 6 7
M  V30 7 1 5 8
M  V30 8 2 8 9
M  V30 9 1 9 10
M  V30 10 1 10 11
M  V30 11 2 11 12
M  V30 12 1 12 13
M  V30 13 1 13 14
M  V30 14 2 14 15
M  V30 15 1 15 16
M  V30 16 2 16 17
M  V30 17 1 17 18
M  V30 18 2 18 19
M  V30 19 1 17 20
M  V30 20 2 20 21
M  V30 21 1 20 22
M  V30 22 1 13 23
M  V30 23 1 23 24
M  V30 24 2 24 25
M  V30 25 1 23 26
M  V30 26 2 26 27
M  V30 27 1 27 28
M  V30 28 2 28 29
M  V30 29 1 29 30
M  V30 30 2 30 31
M  V30 31 1 29 32
M  V30 32 2 32 33
M  V30 33 2 32 34
M  V30 34 1 32 35
M  V30 35 2 35 36 CFG=2
M  V30 36 1 36 37
M  V30 37 1 36 38
M  V30 38 1 7 2
M  V30 39 1 12 8
M  V30 40 1 19 14
M  V30 41 1 31 26
M  V30 42 1 24 11
M  V30 43 1 3 39
M  V30 44 1 4 40
M  V30 45 1 6 41
M  V30 46 1 7 42
M  V30 47 1 10 43
M  V30 48 1 13 44
M  V30 49 1 15 45
M  V30 50 1 16 46
M  V30 51 1 18 47
M  V30 52 1 19 48
M  V30 53 1 27 49
M  V30 54 1 28 50
M  V30 55 1 30 51
M  V30 56 1 31 52
M  V30 57 1 37 53
M  V30 58 1 37 54
M  V30 59 1 38 55
M  V30 60 1 38 56
M  V30 END BOND
M  V30 END CTAB
M  END
