
     RDKit          3D

  0  0  0  0  0  0  0  0  0  0999 V3000
M  V30 BEGIN CTAB
M  V30 COUNTS 41 44 0 0 0
M  V30 BEGIN ATOM
M  V30 1 N 0.00562364 1.51303 -0.784817 0
M  V30 2 C 0.170173 0.223171 -0.131208 0
M  V30 3 C 1.4548 -0.170565 0.171128 0
M  V30 4 S 1.21112 -1.68878 0.904639 0
M  V30 5 C -0.48514 -1.78486 0.81126 0
M  V30 6 C -0.824421 -0.608679 0.199051 0
M  V30 7 C -2.20365 -0.440763 0.00118707 0
M  V30 8 C -2.78987 0.732992 -0.632146 0
M  V30 9 C -3.17027 1.84349 0.0918299 0
M  V30 10 Br -2.9083 1.84854 1.97713 0
M  V30 11 C -3.73967 2.95346 -0.534594 0
M  V30 12 C -3.92995 2.94983 -1.90358 0
M  V30 13 C -3.55397 1.84725 -2.63444 0
M  V30 14 C -2.99974 0.774006 -2.0027 0
M  V30 15 C -3.07418 -1.42496 0.417757 0
M  V30 16 C -4.49495 -1.25275 0.214263 0
M  V30 17 N -5.63814 -1.12653 0.0433613 0
M  V30 18 C -2.69243 -2.59215 1.0291 0
M  V30 19 N -3.56231 -3.6179 1.46635 0
M  V30 20 N -1.36188 -2.73964 1.2127 0
M  V30 21 C 2.70611 0.547198 -0.06049 0
M  V30 22 O 2.69719 1.70598 -0.592239 0
M  V30 23 C 3.98516 -0.00366572 0.293822 0
M  V30 24 C 4.99039 0.902868 0.65317 0
M  V30 25 C 6.26256 0.521804 0.997046 0
M  V30 26 Cl 7.49264 1.70777 1.44254 0
M  V30 27 C 6.6034 -0.79976 1.00066 0
M  V30 28 Cl 8.23359 -1.30491 1.44023 0
M  V30 29 C 5.63913 -1.71184 0.65253 0
M  V30 30 C 4.34995 -1.32396 0.303885 0
M  V30 31 H -0.0977557 2.32096 -0.158557 0
M  V30 32 H -0.000421744 1.60456 -1.82303 0
M  V30 33 H -4.0357 3.82208 0.0422212 0
M  V30 34 H -4.36814 3.79182 -2.42372 0
M  V30 35 H -3.71178 1.86393 -3.70846 0
M  V30 36 H -2.70294 -0.0891727 -2.55733 0
M  V30 37 H -3.72717 -4.43526 0.837819 0
M  V30 38 H -3.99991 -3.50265 2.40688 0
M  V30 39 H 4.76224 1.97857 0.664549 0
M  V30 40 H 5.86671 -2.76998 0.642253 0
M  V30 41 H 3.64188 -2.06452 0.0299572 0
M  V30 END ATOM
M  V30 BEGIN BOND
M  V30 1 1 1 2
M  V30 2 2 2 3
M  V30 3 1 3 4
M  V30 4 1 4 5
M  V30 5 2 5 6
M  V30 6 1 6 7
M  V30 7 1 7 8
M  V30 8 2 8 9
M  V30 9 1 9 10
M  V30 10 1 9 11
M  V30 11 2 11 12
M  V30 12 1 12 13
M  V30 13 2 13 14
M  V30 14 2 7 15
M  V30 15 1 15 16
M  V30 16 3 16 17
M  V30 17 1 15 18
M  V30 18 1 18 19
M  V30 19 2 18 20
M  V30 20 1 3 21
M  V30 21 2 21 22
M  V30 22 1 21 23
M  V30 23 2 23 24
M  V30 24 1 24 25
M  V30 25 1 25 26
M  V30 26 2 25 27
M  V30 27 1 27 28
M  V30 28 1 27 29
M  V30 29 2 29 30
M  V30 30 1 6 2
M  V30 31 1 14 8
M  V30 32 1 30 23
M  V30 33 1 20 5
M  V30 34 1 1 31
M  V30 35 1 1 32
M  V30 36 1 11 33
M  V30 37 1 12 34
M  V30 38 1 13 35
M  V30 39 1 14 36
M  V30 40 1 19 37
M  V30 41 1 19 38
M  V30 42 1 24 39
M  V30 43 1 29 40
M  V30 44 1 30 41
M  V30 END BOND
M  V30 END CTAB
M  END
