
     RDKit          3D

  0  0  0  0  0  0  0  0  0  0999 V3000
M  V30 BEGIN CTAB
M  V30 COUNTS 90 92 0 0 0
M  V30 BEGIN ATOM
M  V30 1 C 8.76922 -0.429948 2.03205 0
M  V30 2 C 9.37555 0.847698 2.48697 0
M  V30 3 C 10.8217 0.922306 2.0195 0
M  V30 4 C 8.62673 2.09226 2.32187 0
M  V30 5 C 8.21026 2.62549 1.02035 0
M  V30 6 N 7.3459 1.88328 0.178017 0
M  V30 7 C 5.9936 1.85031 0.393434 0
M  V30 8 C 5.36957 1.03463 -0.514095 0
M  V30 9 N 3.97322 0.753805 -0.60969 0
M  V30 10 C 3.15499 0.828212 0.538769 0
M  V30 11 O 3.68193 1.10223 1.6577 0
M  V30 12 C 1.70155 0.610124 0.493593 0
M  V30 13 C 0.963611 0.719926 1.66405 0
M  V30 14 C -0.404825 0.611457 1.68212 0
M  V30 15 C -1.13279 0.381317 0.505035 0
M  V30 16 C -0.404634 0.2684 -0.652798 0
M  V30 17 C 0.991621 0.38106 -0.659943 0
M  V30 18 C -2.58484 0.36959 0.560686 0
M  V30 19 O -3.13782 1.04814 1.47881 0
M  V30 20 N -3.35202 -0.341053 -0.347281 0
M  V30 21 C -4.78951 -0.28438 -0.283141 0
M  V30 22 C -5.66693 -1.2037 -0.79274 0
M  V30 23 N -6.9663 -0.767372 -0.59302 0
M  V30 24 C -8.09106 -1.59449 -1.01952 0
M  V30 25 C -8.52221 -2.52166 0.100541 0
M  V30 26 C -9.68055 -3.39449 -0.233308 0
M  V30 27 C -9.48052 -4.32601 -1.38573 0
M  V30 28 C -10.0114 -4.21538 0.995886 0
M  V30 29 C -6.95397 0.403756 0.0271021 0
M  V30 30 C -5.57534 0.712373 0.227736 0
M  V30 31 C -7.99624 1.30987 0.398845 0
M  V30 32 O -7.77438 2.02246 1.45369 0
M  V30 33 N -9.2155 1.52294 -0.240395 0
M  V30 34 C -10.2148 2.4843 0.225991 0
M  V30 35 C -9.70854 3.90088 0.215684 0
M  V30 36 N -10.8123 4.74776 0.67971 0
M  V30 37 C 6.41464 0.555288 -1.31571 0
M  V30 38 C 7.60692 1.08628 -0.876772 0
M  V30 39 C 8.93156 0.901306 -1.52561 0
M  V30 40 O 9.6256 2.00372 -1.53168 0
M  V30 41 N 9.33906 -0.289342 -2.02722 0
M  V30 42 C 9.759 -1.49733 -2.53898 0
M  V30 43 C 8.79753 -2.6719 -2.45924 0
M  V30 44 N 7.57904 -2.51384 -3.16726 0
M  V30 45 H 7.69826 -0.368129 1.83319 0
M  V30 46 H 9.27897 -0.76289 1.0959 0
M  V30 47 H 8.99565 -1.27275 2.75281 0
M  V30 48 H 9.50258 0.716246 3.6297 0
M  V30 49 H 11.3448 0.0479413 2.46149 0
M  V30 50 H 10.8186 0.745564 0.932581 0
M  V30 51 H 11.3188 1.86968 2.22719 0
M  V30 52 H 7.71935 1.99846 3.03475 0
M  V30 53 H 9.20279 2.91514 2.84787 0
M  V30 54 H 9.11201 3.01715 0.486907 0
M  V30 55 H 7.63834 3.60638 1.25694 0
M  V30 56 H 5.52126 2.41297 1.17438 0
M  V30 57 H 3.53696 0.486595 -1.52642 0
M  V30 58 H 1.5262 0.900263 2.58621 0
M  V30 59 H -0.985187 0.693097 2.58623 0
M  V30 60 H -0.948084 0.0834625 -1.58703 0
M  V30 61 H 1.51633 0.285282 -1.58285 0
M  V30 62 H -2.91664 -0.929512 -1.09179 0
M  V30 63 H -5.37442 -2.11844 -1.27078 0
M  V30 64 H -8.90676 -0.978151 -1.3441 0
M  V30 65 H -7.78344 -2.20153 -1.92393 0
M  V30 66 H -7.68595 -3.19972 0.43216 0
M  V30 67 H -8.80047 -1.91884 0.985965 0
M  V30 68 H -10.5995 -2.78432 -0.428997 0
M  V30 69 H -8.98245 -5.25524 -0.96467 0
M  V30 70 H -8.78456 -3.94262 -2.15062 0
M  V30 71 H -10.4241 -4.70125 -1.81939 0
M  V30 72 H -11.0698 -4.53731 1.02663 0
M  V30 73 H -9.75607 -3.58849 1.88714 0
M  V30 74 H -9.30674 -5.06691 1.02375 0
M  V30 75 H -5.26609 1.61928 0.712975 0
M  V30 76 H -9.52532 1.03667 -1.13851 0
M  V30 77 H -10.5716 2.21951 1.24783 0
M  V30 78 H -11.0873 2.44246 -0.448832 0
M  V30 79 H -9.5093 4.24099 -0.829987 0
M  V30 80 H -8.85038 4.02442 0.873041 0
M  V30 81 H -10.3648 5.5378 1.22105 0
M  V30 82 H -11.4261 4.18536 1.29495 0
M  V30 83 H 6.23101 -0.121948 -2.14186 0
M  V30 84 H 10.5339 0.284131 -2.38414 0
M  V30 85 H 10.6977 -1.90004 -2.04022 0
M  V30 86 H 10.0655 -1.42301 -3.63366 0
M  V30 87 H 8.62115 -2.85496 -1.3803 0
M  V30 88 H 9.32163 -3.6021 -2.83388 0
M  V30 89 H 7.36594 -3.33671 -3.79954 0
M  V30 90 H 6.8011 -2.43422 -2.46323 0
M  V30 END ATOM
M  V30 BEGIN BOND
M  V30 1 1 1 2
M  V30 2 1 2 3
M  V30 3 1 2 4
M  V30 4 1 4 5
M  V30 5 1 5 6
M  V30 6 1 6 7
M  V30 7 2 7 8
M  V30 8 1 8 9
M  V30 9 1 9 10
M  V30 10 2 10 11
M  V30 11 1 10 12
M  V30 12 2 12 13
M  V30 13 1 13 14
M  V30 14 2 14 15
M  V30 15 1 15 16
M  V30 16 2 16 17
M  V30 17 1 15 18
M  V30 18 2 18 19
M  V30 19 1 18 20
M  V30 20 1 20 21
M  V30 21 2 21 22
M  V30 22 1 22 23
M  V30 23 1 23 24
M  V30 24 1 24 25
M  V30 25 1 25 26
M  V30 26 1 26 27
M  V30 27 1 26 28
M  V30 28 1 23 29
M  V30 29 2 29 30
M  V30 30 1 29 31
M  V30 31 2 31 32
M  V30 32 1 31 33
M  V30 33 1 33 34
M  V30 34 1 34 35
M  V30 35 1 35 36
M  V30 36 1 8 37
M  V30 37 2 37 38
M  V30 38 1 38 39
M  V30 39 2 39 40
M  V30 40 1 39 41
M  V30 41 1 41 42
M  V30 42 1 42 43
M  V30 43 1 43 44
M  V30 44 1 38 6
M  V30 45 1 17 12
M  V30 46 1 30 21
M  V30 47 1 1 45
M  V30 48 1 1 46
M  V30 49 1 1 47
M  V30 50 1 2 48
M  V30 51 1 3 49
M  V30 52 1 3 50
M  V30 53 1 3 51
M  V30 54 1 4 52
M  V30 55 1 4 53
M  V30 56 1 5 54
M  V30 57 1 5 55
M  V30 58 1 7 56
M  V30 59 1 9 57
M  V30 60 1 13 58
M  V30 61 1 14 59
M  V30 62 1 16 60
M  V30 63 1 17 61
M  V30 64 1 20 62
M  V30 65 1 22 63
M  V30 66 1 24 64
M  V30 67 1 24 65
M  V30 68 1 25 66
M  V30 69 1 25 67
M  V30 70 1 26 68
M  V30 71 1 27 69
M  V30 72 1 27 70
M  V30 73 1 27 71
M  V30 74 1 28 72
M  V30 75 1 28 73
M  V30 76 1 28 74
M  V30 77 1 30 75
M  V30 78 1 33 76
M  V30 79 1 34 77
M  V30 80 1 34 78
M  V30 81 1 35 79
M  V30 82 1 35 80
M  V30 83 1 36 81
M  V30 84 1 36 82
M  V30 85 1 37 83
M  V30 86 1 41 84
M  V30 87 1 42 85
M  V30 88 1 42 86
M  V30 89 1 43 87
M  V30 90 1 43 88
M  V30 91 1 44 89
M  V30 92 1 44 90
M  V30 END BOND
M  V30 END CTAB
M  END
