
     RDKit          3D

  0  0  0  0  0  0  0  0  0  0999 V3000
M  V30 BEGIN CTAB
M  V30 COUNTS 43 45 0 0 0
M  V30 BEGIN ATOM
M  V30 1 N 2.33367 3.80576 0.554788 0
M  V30 2 C 2.45856 2.49691 1.03636 0
M  V30 3 C 1.57499 1.51262 0.267079 0 CFG=2
M  V30 4 C 0.150418 1.99957 0.452242 0
M  V30 5 N -0.672813 0.764316 0.340733 0
M  V30 6 C 0.180658 -0.320724 0.638297 0
M  V30 7 C 1.59923 0.148999 0.866767 0 CFG=1
M  V30 8 C 2.52024 -0.807048 0.213753 0
M  V30 9 C 3.50072 -1.46496 0.920301 0
M  V30 10 C 4.36987 -2.363 0.321291 0
M  V30 11 C 4.25052 -2.6104 -1.03933 0
M  V30 12 C 3.27339 -1.95634 -1.74978 0
M  V30 13 C 2.42468 -1.07169 -1.13477 0
M  V30 14 C -2.00666 0.818037 0.00147885 0
M  V30 15 O -2.48069 2.0215 -0.210917 0
M  V30 16 C -2.97418 -0.235361 -0.159924 0
M  V30 17 C -2.70415 -1.56573 0.0120294 0
M  V30 18 C -3.71068 -2.53094 -0.165804 0
M  V30 19 C -4.98328 -2.14392 -0.516288 0
M  V30 20 C -5.28388 -0.811971 -0.696057 0
M  V30 21 C -4.30224 0.127853 -0.522502 0
M  V30 22 N -4.60111 1.5073 -0.705664 0
M  V30 23 Br -6.36477 -3.4416 -0.762522 0
M  V30 24 H 2.41289 4.54647 1.17853 0
M  V30 25 H 2.27176 3.99262 -0.389344 0
M  V30 26 H 2.07844 2.50825 2.10009 0
M  V30 27 H 3.50163 2.17738 1.07969 0
M  V30 28 H 1.87721 1.57094 -0.784419 0
M  V30 29 H -0.14478 2.75279 -0.277985 0
M  V30 30 H -0.0544565 2.388 1.46665 0
M  V30 31 H -0.131204 -0.906349 1.5318 0
M  V30 32 H 0.240286 -0.943227 -0.300585 0
M  V30 33 H 1.81991 0.23957 1.95255 0
M  V30 34 H 3.64305 -1.31099 1.99376 0
M  V30 35 H 5.14283 -2.88972 0.846992 0
M  V30 36 H 4.9138 -3.30864 -1.54662 0
M  V30 37 H 3.1395 -2.11421 -2.81041 0
M  V30 38 H 1.64903 -0.563776 -1.74272 0
M  V30 39 H -1.72509 -1.91638 0.286002 0
M  V30 40 H -3.46849 -3.5771 -0.0230858 0
M  V30 41 H -6.30887 -0.503208 -0.978115 0
M  V30 42 H -4.92561 2.06107 0.097705 0
M  V30 43 H -4.48432 1.91735 -1.64205 0
M  V30 END ATOM
M  V30 BEGIN BOND
M  V30 1 1 1 2
M  V30 2 1 2 3
M  V30 3 1 3 4
M  V30 4 1 4 5
M  V30 5 1 5 6
M  V30 6 1 6 7
M  V30 7 1 7 8
M  V30 8 2 8 9
M  V30 9 1 9 10
M  V30 10 2 10 11
M  V30 11 1 11 12
M  V30 12 2 12 13
M  V30 13 1 5 14
M  V30 14 2 14 15
M  V30 15 1 14 16
M  V30 16 2 16 17
M  V30 17 1 17 18
M  V30 18 2 18 19
M  V30 19 1 19 20
M  V30 20 2 20 21
M  V30 21 1 21 22
M  V30 22 1 19 23
M  V30 23 1 7 3
M  V30 24 1 13 8
M  V30 25 1 21 16
M  V30 26 1 1 24
M  V30 27 1 1 25
M  V30 28 1 2 26
M  V30 29 1 2 27
M  V30 30 1 3 28 CFG=3
M  V30 31 1 4 29
M  V30 32 1 4 30
M  V30 33 1 6 31
M  V30 34 1 6 32
M  V30 35 1 7 33 CFG=1
M  V30 36 1 9 34
M  V30 37 1 10 35
M  V30 38 1 11 36
M  V30 39 1 12 37
M  V30 40 1 13 38
M  V30 41 1 17 39
M  V30 42 1 18 40
M  V30 43 1 20 41
M  V30 44 1 22 42
M  V30 45 1 22 43
M  V30 END BOND
M  V30 END CTAB
M  END
