
     RDKit          3D

  0  0  0  0  0  0  0  0  0  0999 V3000
M  V30 BEGIN CTAB
M  V30 COUNTS 20 20 0 0 0
M  V30 BEGIN ATOM
M  V30 1 C -2.49134 -0.486972 0.145372 0
M  V30 2 O -1.49456 -0.280678 -0.839693 0
M  V30 3 C -0.209029 -0.0137978 -0.390075 0
M  V30 4 C 0.62931 -1.09089 -0.183511 0
M  V30 5 N 0.224708 -2.42514 -0.411714 0
M  V30 6 C 1.93134 -0.860176 0.269144 0
M  V30 7 C 2.34561 0.437702 0.497962 0
M  V30 8 C 1.47945 1.4919 0.280479 0
M  V30 9 C 0.201384 1.28086 -0.162766 0
M  V30 10 N -0.738648 2.32074 -0.405969 0
M  V30 11 Br 4.10465 0.810147 1.11365 0
M  V30 12 H -2.62645 -1.54041 0.414058 0
M  V30 13 H -2.30992 0.138376 1.04153 0
M  V30 14 H -3.44991 -0.137098 -0.289055 0
M  V30 15 H -0.621696 -2.8062 0.0431985 0
M  V30 16 H 0.777253 -3.02989 -1.03885 0
M  V30 17 H 2.58956 -1.7105 0.431036 0
M  V30 18 H 1.80762 2.50804 0.460922 0
M  V30 19 H -1.32105 2.32167 -1.27306 0
M  V30 20 H -0.82827 3.07231 0.297339 0
M  V30 END ATOM
M  V30 BEGIN BOND
M  V30 1 1 1 2
M  V30 2 1 2 3
M  V30 3 2 3 4
M  V30 4 1 4 5
M  V30 5 1 4 6
M  V30 6 2 6 7
M  V30 7 1 7 8
M  V30 8 2 8 9
M  V30 9 1 9 10
M  V30 10 1 7 11
M  V30 11 1 9 3
M  V30 12 1 1 12
M  V30 13 1 1 13
M  V30 14 1 1 14
M  V30 15 1 5 15
M  V30 16 1 5 16
M  V30 17 1 6 17
M  V30 18 1 8 18
M  V30 19 1 10 19
M  V30 20 1 10 20
M  V30 END BOND
M  V30 END CTAB
M  END
