
     RDKit          3D

  0  0  0  0  0  0  0  0  0  0999 V3000
M  V30 BEGIN CTAB
M  V30 COUNTS 37 38 0 0 0
M  V30 BEGIN ATOM
M  V30 1 N -3.86946 2.22917 1.08244 0
M  V30 2 C -2.9343 1.1566 1.09252 0
M  V30 3 C -2.47531 0.937085 -0.347675 0
M  V30 4 N -1.53269 -0.112743 -0.486035 0
M  V30 5 C -2.03375 -1.42676 -0.239388 0
M  V30 6 C -1.24885 -2.37798 -1.12767 0
M  V30 7 C 0.150711 -2.54721 -0.62362 0
M  V30 8 C 1.11161 -1.53237 -1.17629 0
M  V30 9 C 0.808432 -0.130465 -0.845179 0 CFG=1
M  V30 10 C -0.284052 0.0558565 0.177643 0
M  V30 11 C 2.00679 0.616569 -0.388467 0
M  V30 12 N 2.54397 1.73751 -0.925023 0
M  V30 13 N 3.59578 2.07433 -0.228411 0
M  V30 14 C 3.80458 1.21892 0.777784 0
M  V30 15 C 2.81118 0.277113 0.705816 0
M  V30 16 N 4.86936 1.29877 1.72718 0
M  V30 17 H -3.68259 2.91475 1.796 0
M  V30 18 H -4.17076 2.51608 0.166743 0
M  V30 19 H -3.35489 0.209906 1.49002 0
M  V30 20 H -2.01367 1.4161 1.67131 0
M  V30 21 H -2.10935 1.85509 -0.806746 0
M  V30 22 H -3.39432 0.633644 -0.91319 0
M  V30 23 H -1.85046 -1.66192 0.833976 0
M  V30 24 H -3.12459 -1.52904 -0.393926 0
M  V30 25 H -1.29621 -1.99679 -2.16932 0
M  V30 26 H -1.77743 -3.36113 -1.05159 0
M  V30 27 H 0.507472 -3.54597 -0.954793 0
M  V30 28 H 0.142555 -2.58459 0.481481 0
M  V30 29 H 2.11839 -1.78557 -0.726767 0
M  V30 30 H 1.22937 -1.71898 -2.25615 0
M  V30 31 H 0.435403 0.40101 -1.76761 0
M  V30 32 H -0.157906 -0.629961 1.04962 0
M  V30 33 H -0.203453 1.08109 0.577116 0
M  V30 34 H 2.17671 2.24895 -1.75735 0
M  V30 35 H 2.70981 -0.54874 1.38728 0
M  V30 36 H 4.90715 0.580608 2.51023 0
M  V30 37 H 5.58478 2.03105 1.65805 0
M  V30 END ATOM
M  V30 BEGIN BOND
M  V30 1 1 1 2
M  V30 2 1 2 3
M  V30 3 1 3 4
M  V30 4 1 4 5
M  V30 5 1 5 6
M  V30 6 1 6 7
M  V30 7 1 7 8
M  V30 8 1 8 9
M  V30 9 1 9 10
M  V30 10 1 9 11
M  V30 11 1 11 12
M  V30 12 1 12 13
M  V30 13 2 13 14
M  V30 14 1 14 15
M  V30 15 1 14 16
M  V30 16 1 10 4
M  V30 17 2 15 11
M  V30 18 1 1 17
M  V30 19 1 1 18
M  V30 20 1 2 19
M  V30 21 1 2 20
M  V30 22 1 3 21
M  V30 23 1 3 22
M  V30 24 1 5 23
M  V30 25 1 5 24
M  V30 26 1 6 25
M  V30 27 1 6 26
M  V30 28 1 7 27
M  V30 29 1 7 28
M  V30 30 1 8 29
M  V30 31 1 8 30
M  V30 32 1 9 31 CFG=3
M  V30 33 1 10 32
M  V30 34 1 10 33
M  V30 35 1 12 34
M  V30 36 1 15 35
M  V30 37 1 16 36
M  V30 38 1 16 37
M  V30 END BOND
M  V30 END CTAB
M  END
