
     RDKit          3D

  0  0  0  0  0  0  0  0  0  0999 V3000
M  V30 BEGIN CTAB
M  V30 COUNTS 22 22 0 0 0
M  V30 BEGIN ATOM
M  V30 1 Cl 3.78472 -1.05812 -1.0389 0
M  V30 2 C 2.87601 -0.663022 0.462899 0
M  V30 3 C 1.49351 -1.0054 0.258771 0
M  V30 4 O 1.29976 -2.29808 0.250512 0
M  V30 5 C 0.329821 -0.200303 0.0663177 0
M  V30 6 C 0.383114 1.16024 0.116707 0
M  V30 7 N 1.55871 1.93808 0.338183 0
M  V30 8 C -0.817509 1.86642 -0.0531167 0
M  V30 9 C -2.01196 1.22832 -0.263261 0
M  V30 10 C -2.09388 -0.132516 -0.317355 0
M  V30 11 C -0.903721 -0.87119 -0.149982 0
M  V30 12 O -1.0642 -2.2024 -0.217906 0
M  V30 13 N -3.31721 -0.804367 -0.537862 0
M  V30 14 H 3.3642 -1.32392 1.25362 0
M  V30 15 H 3.12494 0.336498 0.746774 0
M  V30 16 H 1.81705 2.18817 1.35409 0
M  V30 17 H 2.13896 2.25548 -0.444394 0
M  V30 18 H -0.751476 2.94146 -0.00888958 0
M  V30 19 H -2.92445 1.80667 -0.388614 0
M  V30 20 H -0.762579 -3.07223 -0.193987 0
M  V30 21 H -3.68861 -1.45624 0.168904 0
M  V30 22 H -3.83521 -0.633567 -1.40251 0
M  V30 END ATOM
M  V30 BEGIN BOND
M  V30 1 1 1 2
M  V30 2 1 2 3
M  V30 3 2 3 4
M  V30 4 1 3 5
M  V30 5 2 5 6
M  V30 6 1 6 7
M  V30 7 1 6 8
M  V30 8 2 8 9
M  V30 9 1 9 10
M  V30 10 2 10 11
M  V30 11 1 11 12
M  V30 12 1 10 13
M  V30 13 1 11 5
M  V30 14 1 2 14
M  V30 15 1 2 15
M  V30 16 1 7 16
M  V30 17 1 7 17
M  V30 18 1 8 18
M  V30 19 1 9 19
M  V30 20 1 12 20
M  V30 21 1 13 21
M  V30 22 1 13 22
M  V30 END BOND
M  V30 END CTAB
M  END
