
     RDKit          3D

  0  0  0  0  0  0  0  0  0  0999 V3000
M  V30 BEGIN CTAB
M  V30 COUNTS 48 49 0 0 0
M  V30 BEGIN ATOM
M  V30 1 N -5.92354 0.904399 -1.79391 0
M  V30 2 C -6.12639 0.130002 -0.615156 0
M  V30 3 C -7.36933 -0.38733 -0.320832 0
M  V30 4 C -7.56382 -1.13657 0.820435 0
M  V30 5 C -6.50383 -1.36671 1.67006 0
M  V30 6 C -5.24544 -0.834851 1.35924 0
M  V30 7 C -5.01924 -0.0841505 0.228821 0
M  V30 8 O -3.84849 0.464436 -0.146522 0
M  V30 9 C -2.58269 0.491987 0.354551 0
M  V30 10 C -1.83419 -0.78143 0.501585 0
M  V30 11 O -1.64743 -1.46692 -0.685284 0
M  V30 12 C -0.956809 -0.797536 -1.657 0
M  V30 13 C 0.445668 -0.39143 -1.28152 0
M  V30 14 O 1.22657 -1.47097 -0.967938 0
M  V30 15 C 2.52596 -1.21179 -0.619324 0
M  V30 16 C 2.67581 -0.337404 0.584312 0
M  V30 17 O 3.94335 -0.0324395 0.99374 0
M  V30 18 C 4.98772 0.615874 0.468353 0
M  V30 19 C 6.16305 0.708961 1.222 0
M  V30 20 N 6.26397 0.134793 2.5126 0
M  V30 21 C 7.26437 1.36901 0.721969 0
M  V30 22 C 7.217 1.9521 -0.544152 0
M  V30 23 C 6.06171 1.84775 -1.25722 0
M  V30 24 C 4.95044 1.19135 -0.772281 0
M  V30 25 H -6.61167 1.65891 -1.9906 0
M  V30 26 H -5.1468 0.752841 -2.44051 0
M  V30 27 H -8.21832 -0.205354 -0.99712 0
M  V30 28 H -8.54115 -1.53857 1.04369 0
M  V30 29 H -6.59645 -1.9481 2.58163 0
M  V30 30 H -4.40547 -1.00054 2.02495 0
M  V30 31 H -1.95308 1.22126 -0.238711 0
M  V30 32 H -2.63189 0.968283 1.38476 0
M  V30 33 H -2.29189 -1.48529 1.21031 0
M  V30 34 H -0.844133 -0.514088 0.978287 0
M  V30 35 H -1.47988 0.148055 -1.96545 0
M  V30 36 H -0.961006 -1.43426 -2.56628 0
M  V30 37 H 0.355415 0.306431 -0.437911 0
M  V30 38 H 0.885788 0.0844658 -2.18763 0
M  V30 39 H 2.94192 -2.22298 -0.288477 0
M  V30 40 H 3.16179 -0.952793 -1.48155 0
M  V30 41 H 2.14072 -0.801419 1.46796 0
M  V30 42 H 2.1303 0.646653 0.45845 0
M  V30 43 H 6.83696 0.536991 3.28109 0
M  V30 44 H 5.73682 -0.737611 2.70536 0
M  V30 45 H 8.19078 1.46156 1.27561 0
M  V30 46 H 8.09807 2.47049 -0.924355 0
M  V30 47 H 6.0322 2.304 -2.24179 0
M  V30 48 H 4.06655 1.17772 -1.42824 0
M  V30 END ATOM
M  V30 BEGIN BOND
M  V30 1 1 1 2
M  V30 2 2 2 3
M  V30 3 1 3 4
M  V30 4 2 4 5
M  V30 5 1 5 6
M  V30 6 2 6 7
M  V30 7 1 7 8
M  V30 8 1 8 9
M  V30 9 1 9 10
M  V30 10 1 10 11
M  V30 11 1 11 12
M  V30 12 1 12 13
M  V30 13 1 13 14
M  V30 14 1 14 15
M  V30 15 1 15 16
M  V30 16 1 16 17
M  V30 17 1 17 18
M  V30 18 2 18 19
M  V30 19 1 19 20
M  V30 20 1 19 21
M  V30 21 2 21 22
M  V30 22 1 22 23
M  V30 23 2 23 24
M  V30 24 1 7 2
M  V30 25 1 24 18
M  V30 26 1 1 25
M  V30 27 1 1 26
M  V30 28 1 3 27
M  V30 29 1 4 28
M  V30 30 1 5 29
M  V30 31 1 6 30
M  V30 32 1 9 31
M  V30 33 1 9 32
M  V30 34 1 10 33
M  V30 35 1 10 34
M  V30 36 1 12 35
M  V30 37 1 12 36
M  V30 38 1 13 37
M  V30 39 1 13 38
M  V30 40 1 15 39
M  V30 41 1 15 40
M  V30 42 1 16 41
M  V30 43 1 16 42
M  V30 44 1 20 43
M  V30 45 1 20 44
M  V30 46 1 21 45
M  V30 47 1 22 46
M  V30 48 1 23 47
M  V30 49 1 24 48
M  V30 END BOND
M  V30 END CTAB
M  END
