
     RDKit          3D

  0  0  0  0  0  0  0  0  0  0999 V3000
M  V30 BEGIN CTAB
M  V30 COUNTS 18 18 0 0 0
M  V30 BEGIN ATOM
M  V30 1 N -2.9861 1.82193 0.130285 0
M  V30 2 N -1.65526 1.4176 0.125204 0
M  V30 3 C -1.33497 0.18665 -0.0798594 0
M  V30 4 N -2.27982 -0.839371 -0.312357 0
M  V30 5 C 0.0777228 -0.187535 -0.075409 0
M  V30 6 C 0.624083 -1.43843 -0.272476 0
M  V30 7 C 1.99006 -1.28237 -0.175102 0
M  V30 8 C 2.24269 0.0406911 0.0754825 0
M  V30 9 O 1.07831 0.62888 0.122089 0
M  V30 10 N 3.5338 0.634586 0.247725 0 CHG=1
M  V30 11 O 3.7116 1.97044 0.496823 0 CHG=-1
M  V30 12 O 4.53283 -0.0974992 0.166813 0
M  V30 13 H -3.37674 2.42842 0.90635 0
M  V30 14 H -3.68204 1.56381 -0.612665 0
M  V30 15 H -2.63514 -1.00976 -1.28491 0
M  V30 16 H -2.59999 -1.40301 0.496102 0
M  V30 17 H 0.0528612 -2.34271 -0.46397 0
M  V30 18 H 2.7061 -2.09232 -0.28433 0
M  V30 END ATOM
M  V30 BEGIN BOND
M  V30 1 1 1 2
M  V30 2 2 2 3 CFG=2
M  V30 3 1 3 4
M  V30 4 1 3 5
M  V30 5 2 5 6
M  V30 6 1 6 7
M  V30 7 2 7 8
M  V30 8 1 8 9
M  V30 9 1 8 10
M  V30 10 1 10 11
M  V30 11 2 10 12
M  V30 12 1 9 5
M  V30 13 1 1 13
M  V30 14 1 1 14
M  V30 15 1 4 15
M  V30 16 1 4 16
M  V30 17 1 6 17
M  V30 18 1 7 18
M  V30 END BOND
M  V30 END CTAB
M  END
