
     RDKit          3D

  0  0  0  0  0  0  0  0  0  0999 V3000
M  V30 BEGIN CTAB
M  V30 COUNTS 37 38 0 0 0
M  V30 BEGIN ATOM
M  V30 1 N 1.08744 -1.92348 1.04488 0
M  V30 2 C -0.11726 -1.13003 1.13853 0
M  V30 3 C -0.56269 -0.524318 -0.130705 0
M  V30 4 C -1.77982 0.264856 -0.0553237 0
M  V30 5 C -1.89681 1.62345 0.028401 0
M  V30 6 C -3.10822 2.26614 -0.0636113 0
M  V30 7 C -4.26324 1.53781 -0.251962 0
M  V30 8 C -4.20059 0.165663 -0.341516 0
M  V30 9 C -2.99942 -0.450532 -0.24357 0
M  V30 10 N -3.00752 -1.88796 -0.266109 0
M  V30 11 N 0.513093 0.262353 -0.757617 0
M  V30 12 C 1.49512 -0.600763 -1.39328 0
M  V30 13 C 2.87565 -0.221303 -1.03616 0
M  V30 14 C 2.71657 1.01093 -0.209571 0
M  V30 15 C 1.27917 0.967992 0.262752 0
M  V30 16 C 3.65092 1.01045 0.938453 0
M  V30 17 O 3.20825 1.05371 2.09314 0
M  V30 18 O 5.02107 0.969437 0.655726 0
M  V30 19 H 1.50994 -1.97976 1.98831 0
M  V30 20 H 0.9005 -2.94062 0.782226 0
M  V30 21 H -0.919631 -1.95111 1.36727 0
M  V30 22 H -0.200655 -0.51137 2.04326 0
M  V30 23 H -0.741521 -1.37065 -0.861296 0
M  V30 24 H -1.02124 2.27882 0.173481 0
M  V30 25 H -3.13187 3.35586 0.00697131 0
M  V30 26 H -5.21911 2.06776 -0.332184 0
M  V30 27 H -5.16484 -0.373967 -0.480383 0
M  V30 28 H -3.15722 -2.38865 0.660717 0
M  V30 29 H -2.89272 -2.47029 -1.09984 0
M  V30 30 H 1.24772 -1.65813 -1.40666 0
M  V30 31 H 1.39091 -0.290003 -2.50882 0
M  V30 32 H 3.51528 0.000489889 -1.96328 0
M  V30 33 H 3.45755 -1.00607 -0.484899 0
M  V30 34 H 2.90068 1.89705 -0.850655 0
M  V30 35 H 1.19795 0.597893 1.27335 0
M  V30 36 H 0.982137 2.0276 0.287296 0
M  V30 37 H 5.43442 0.32073 -0.00730716 0
M  V30 END ATOM
M  V30 BEGIN BOND
M  V30 1 1 1 2
M  V30 2 1 2 3
M  V30 3 1 3 4
M  V30 4 2 4 5
M  V30 5 1 5 6
M  V30 6 2 6 7
M  V30 7 1 7 8
M  V30 8 2 8 9
M  V30 9 1 9 10
M  V30 10 1 3 11
M  V30 11 1 11 12
M  V30 12 1 12 13
M  V30 13 1 13 14
M  V30 14 1 14 15
M  V30 15 1 14 16
M  V30 16 2 16 17
M  V30 17 1 16 18
M  V30 18 1 9 4
M  V30 19 1 15 11
M  V30 20 1 1 19
M  V30 21 1 1 20
M  V30 22 1 2 21
M  V30 23 1 2 22
M  V30 24 1 3 23
M  V30 25 1 5 24
M  V30 26 1 6 25
M  V30 27 1 7 26
M  V30 28 1 8 27
M  V30 29 1 10 28
M  V30 30 1 10 29
M  V30 31 1 12 30
M  V30 32 1 12 31
M  V30 33 1 13 32
M  V30 34 1 13 33
M  V30 35 1 14 34
M  V30 36 1 15 35
M  V30 37 1 15 36
M  V30 38 1 18 37
M  V30 END BOND
M  V30 END CTAB
M  END
