
     RDKit          3D

  0  0  0  0  0  0  0  0  0  0999 V3000
M  V30 BEGIN CTAB
M  V30 COUNTS 25 26 0 0 0
M  V30 BEGIN ATOM
M  V30 1 N -2.70596 3.05787 -0.477217 0
M  V30 2 C -2.16021 1.74035 -0.285933 0
M  V30 3 N -0.834796 1.52974 -0.240981 0
M  V30 4 C -0.313272 0.27759 -0.0591577 0
M  V30 5 C 1.1191 0.0676221 0.00052668 0
M  V30 6 C 1.7322 -0.907177 -0.750033 0
M  V30 7 C 3.10735 -1.12966 -0.690904 0
M  V30 8 C 3.89425 -0.363452 0.134991 0
M  V30 9 Br 5.79691 -0.644222 0.24079 0
M  V30 10 C 3.28979 0.617422 0.89179 0
M  V30 11 C 1.93479 0.825088 0.823639 0
M  V30 12 C -1.22205 -0.742506 0.0742976 0
M  V30 13 C -0.787651 -2.08695 0.292249 0
M  V30 14 N -0.444689 -3.1754 0.491751 0
M  V30 15 C -2.60174 -0.51064 0.0253303 0
M  V30 16 N -3.48149 -1.6181 0.170429 0
M  V30 17 N -3.05446 0.743537 -0.156383 0
M  V30 18 H -3.44051 3.2064 -1.20152 0
M  V30 19 H -2.40433 3.87617 0.0728494 0
M  V30 20 H 1.1617 -1.54934 -1.44316 0
M  V30 21 H 3.59485 -1.89362 -1.27725 0
M  V30 22 H 3.9372 1.20329 1.53154 0
M  V30 23 H 1.50633 1.59747 1.42842 0
M  V30 24 H -3.45166 -2.40458 -0.533867 0
M  V30 25 H -4.17167 -1.71689 0.937799 0
M  V30 END ATOM
M  V30 BEGIN BOND
M  V30 1 1 1 2
M  V30 2 2 2 3
M  V30 3 1 3 4
M  V30 4 1 4 5
M  V30 5 2 5 6
M  V30 6 1 6 7
M  V30 7 2 7 8
M  V30 8 1 8 9
M  V30 9 1 8 10
M  V30 10 2 10 11
M  V30 11 2 4 12
M  V30 12 1 12 13
M  V30 13 3 13 14
M  V30 14 1 12 15
M  V30 15 1 15 16
M  V30 16 2 15 17
M  V30 17 1 17 2
M  V30 18 1 11 5
M  V30 19 1 1 18
M  V30 20 1 1 19
M  V30 21 1 6 20
M  V30 22 1 7 21
M  V30 23 1 10 22
M  V30 24 1 11 23
M  V30 25 1 16 24
M  V30 26 1 16 25
M  V30 END BOND
M  V30 END CTAB
M  END
