
     RDKit          3D

  0  0  0  0  0  0  0  0  0  0999 V3000
M  V30 BEGIN CTAB
M  V30 COUNTS 40 42 0 0 0
M  V30 BEGIN ATOM
M  V30 1 N -2.32823 3.93717 -0.408652 0
M  V30 2 C -1.84472 2.68416 -0.897868 0
M  V30 3 C -1.16051 1.93839 0.238905 0
M  V30 4 N -0.646685 0.674243 -0.158011 0
M  V30 5 C 0.474039 0.490763 -1.07395 0 CFG=2
M  V30 6 C 0.0316025 -0.434796 -2.1927 0
M  V30 7 C -0.488019 -1.75096 -1.76138 0
M  V30 8 C -1.14181 -1.70382 -0.453482 0
M  V30 9 C -1.22285 -0.55594 0.320695 0
M  V30 10 C -1.85931 -0.635949 1.52781 0
M  V30 11 C -2.41433 -1.81186 1.98715 0
M  V30 12 C -2.33831 -2.94859 1.22848 0
M  V30 13 C -1.70275 -2.90134 0.00605916 0
M  V30 14 C 1.70325 0.0341108 -0.426471 0
M  V30 15 C 2.51339 -0.932968 -0.980108 0
M  V30 16 C 3.67406 -1.36054 -0.350177 0
M  V30 17 N 4.04004 -0.838141 0.824712 0
M  V30 18 C 3.2851 0.10291 1.39991 0
M  V30 19 C 2.10972 0.546599 0.777739 0
M  V30 20 N 3.71143 0.621579 2.63704 0
M  V30 21 H -3.24434 3.97028 -0.022959 0
M  V30 22 H -1.66467 4.6322 -0.16156 0
M  V30 23 H -2.64695 2.10207 -1.37406 0
M  V30 24 H -1.10203 2.91832 -1.69454 0
M  V30 25 H -0.271605 2.59843 0.485656 0
M  V30 26 H -1.77025 1.94733 1.15099 0
M  V30 27 H 0.658341 1.47968 -1.54259 0
M  V30 28 H 0.816845 -0.477811 -2.97054 0
M  V30 29 H -0.819712 0.121157 -2.69066 0
M  V30 30 H -1.24205 -2.08043 -2.53937 0
M  V30 31 H 0.238829 -2.58378 -1.72978 0
M  V30 32 H -1.90792 0.278092 2.12131 0
M  V30 33 H -2.90193 -1.79874 2.95298 0
M  V30 34 H -2.78725 -3.87206 1.61458 0
M  V30 35 H -1.63606 -3.79054 -0.599471 0
M  V30 36 H 2.29107 -1.39113 -1.90862 0
M  V30 37 H 4.30607 -2.12634 -0.800005 0
M  V30 38 H 1.55289 1.29446 1.28285 0
M  V30 39 H 3.58951 0.0694216 3.4973 0
M  V30 40 H 4.14612 1.55436 2.68278 0
M  V30 END ATOM
M  V30 BEGIN BOND
M  V30 1 1 1 2
M  V30 2 1 2 3
M  V30 3 1 3 4
M  V30 4 1 4 5
M  V30 5 1 5 6
M  V30 6 1 6 7
M  V30 7 1 7 8
M  V30 8 2 8 9
M  V30 9 1 9 10
M  V30 10 2 10 11
M  V30 11 1 11 12
M  V30 12 2 12 13
M  V30 13 1 5 14
M  V30 14 2 14 15
M  V30 15 1 15 16
M  V30 16 2 16 17
M  V30 17 1 17 18
M  V30 18 2 18 19
M  V30 19 1 18 20
M  V30 20 1 9 4
M  V30 21 1 19 14
M  V30 22 1 13 8
M  V30 23 1 1 21
M  V30 24 1 1 22
M  V30 25 1 2 23
M  V30 26 1 2 24
M  V30 27 1 3 25
M  V30 28 1 3 26
M  V30 29 1 5 27 CFG=3
M  V30 30 1 6 28
M  V30 31 1 6 29
M  V30 32 1 7 30
M  V30 33 1 7 31
M  V30 34 1 10 32
M  V30 35 1 11 33
M  V30 36 1 12 34
M  V30 37 1 13 35
M  V30 38 1 15 36
M  V30 39 1 16 37
M  V30 40 1 19 38
M  V30 41 1 20 39
M  V30 42 1 20 40
M  V30 END BOND
M  V30 END CTAB
M  END
