
     RDKit          3D

  0  0  0  0  0  0  0  0  0  0999 V3000
M  V30 BEGIN CTAB
M  V30 COUNTS 36 37 0 0 0
M  V30 BEGIN ATOM
M  V30 1 C 5.68501 2.75846 -0.961139 0
M  V30 2 O 5.72964 1.69805 -0.0182142 0
M  V30 3 C 4.61073 0.889128 0.103648 0
M  V30 4 C 3.46945 1.06073 -0.62597 0
M  V30 5 C 2.38016 0.206245 -0.455809 0
M  V30 6 C 2.40499 -0.832406 0.440943 0
M  V30 7 C 3.58242 -0.975759 1.16663 0
M  V30 8 C 4.6675 -0.142755 1.01266 0
M  V30 9 N 1.35623 -1.73954 0.639659 0
M  V30 10 C 0.0617514 -1.74558 0.0992264 0
M  V30 11 O -0.325619 -0.857469 -0.679141 0
M  V30 12 C -0.929024 -2.8136 0.41399 0
M  V30 13 S -2.17757 -2.32959 1.61099 0
M  V30 14 C -3.28228 -1.09949 0.960525 0
M  V30 15 N -4.37153 -1.53109 0.308876 0
M  V30 16 C -5.26039 -0.668274 -0.205651 0
M  V30 17 N -6.4133 -1.13712 -0.897327 0
M  V30 18 C -5.03325 0.67261 -0.0524779 0
M  V30 19 C -3.90825 1.1242 0.620489 0
M  V30 20 N -3.06634 0.188672 1.10577 0
M  V30 21 N -3.64606 2.50002 0.801022 0
M  V30 22 H 6.65514 3.3143 -0.983168 0
M  V30 23 H 5.56698 2.31762 -1.99213 0
M  V30 24 H 4.85153 3.39958 -0.668312 0
M  V30 25 H 3.45831 1.87827 -1.32838 0
M  V30 26 H 1.54075 0.437228 -1.0842 0
M  V30 27 H 3.68999 -1.75666 1.88852 0
M  V30 28 H 5.57799 -0.296099 1.60883 0
M  V30 29 H 1.60143 -2.55416 1.31307 0
M  V30 30 H -0.451567 -3.74741 0.757717 0
M  V30 31 H -1.48893 -3.03794 -0.546647 0
M  V30 32 H -6.44594 -2.04662 -1.3985 0
M  V30 33 H -7.25577 -0.537294 -0.897656 0
M  V30 34 H -5.71616 1.41083 -0.445353 0
M  V30 35 H -3.95099 2.94886 1.70679 0
M  V30 36 H -3.16705 3.04405 0.0592836 0
M  V30 END ATOM
M  V30 BEGIN BOND
M  V30 1 1 1 2
M  V30 2 1 2 3
M  V30 3 2 3 4
M  V30 4 1 4 5
M  V30 5 2 5 6
M  V30 6 1 6 7
M  V30 7 2 7 8
M  V30 8 1 6 9
M  V30 9 1 9 10
M  V30 10 2 10 11
M  V30 11 1 10 12
M  V30 12 1 12 13
M  V30 13 1 13 14
M  V30 14 2 14 15
M  V30 15 1 15 16
M  V30 16 1 16 17
M  V30 17 2 16 18
M  V30 18 1 18 19
M  V30 19 2 19 20
M  V30 20 1 19 21
M  V30 21 1 8 3
M  V30 22 1 20 14
M  V30 23 1 1 22
M  V30 24 1 1 23
M  V30 25 1 1 24
M  V30 26 1 4 25
M  V30 27 1 5 26
M  V30 28 1 7 27
M  V30 29 1 8 28
M  V30 30 1 9 29
M  V30 31 1 12 30
M  V30 32 1 12 31
M  V30 33 1 17 32
M  V30 34 1 17 33
M  V30 35 1 18 34
M  V30 36 1 21 35
M  V30 37 1 21 36
M  V30 END BOND
M  V30 END CTAB
M  END
