
     RDKit          3D

  0  0  0  0  0  0  0  0  0  0999 V3000
M  V30 BEGIN CTAB
M  V30 COUNTS 51 54 0 0 0
M  V30 BEGIN ATOM
M  V30 1 O 1.13184 -1.42707 -0.756505 0
M  V30 2 C 0.504746 -0.403391 -0.443037 0
M  V30 3 C -0.972272 -0.323772 -0.526769 0
M  V30 4 S -2.00158 0.980252 -0.142981 0
M  V30 5 C -3.50238 0.265468 -0.506746 0
M  V30 6 C -3.15979 -0.986478 -0.923141 0
M  V30 7 C -1.84143 -1.29523 -0.934309 0
M  V30 8 N -1.29466 -2.58254 -1.35002 0
M  V30 9 C -4.24591 -1.81279 -1.29327 0
M  V30 10 C -5.51631 -1.29037 -1.2013 0
M  V30 11 C -5.83004 -0.0286011 -0.779339 0
M  V30 12 N -4.77225 0.743467 -0.430563 0
M  V30 13 C -7.1755 0.513383 -0.683383 0
M  V30 14 C -7.37636 1.81282 -0.234692 0
M  V30 15 C -8.63142 2.37285 -0.124221 0
M  V30 16 C -9.75375 1.64901 -0.461913 0
M  V30 17 C -9.5813 0.358095 -0.909583 0
M  V30 18 C -8.3013 -0.199854 -1.01738 0
M  V30 19 N 1.2032 0.742077 0.0141711 0
M  V30 20 C 2.63437 0.740163 0.128509 0
M  V30 21 C 3.1757 -0.282266 1.09645 0
M  V30 22 C 4.67871 -0.202745 1.14695 0
M  V30 23 C 5.49005 -0.950117 0.323271 0
M  V30 24 C 6.85166 -0.878586 0.361905 0
M  V30 25 C 7.46549 -0.0277493 1.25682 0
M  V30 26 C 6.69288 0.736582 2.09775 0
M  V30 27 C 5.32434 0.638148 2.03043 0
M  V30 28 S 9.2207 0.0774544 1.31945 0
M  V30 29 O 9.80745 -1.25917 1.01441 0
M  V30 30 O 9.5884 0.507457 2.72007 0
M  V30 31 N 9.81084 1.26207 0.241269 0
M  V30 32 H -1.45966 -2.99364 -2.26978 0
M  V30 33 H -0.712925 -3.07354 -0.642284 0
M  V30 34 H -4.07655 -2.82588 -1.63792 0
M  V30 35 H -6.31544 -1.95634 -1.49325 0
M  V30 36 H -6.47871 2.38609 0.0333527 0
M  V30 37 H -8.75113 3.40256 0.234565 0
M  V30 38 H -10.7269 2.11812 -0.363313 0
M  V30 39 H -10.4503 -0.226175 -1.17928 0
M  V30 40 H -8.19285 -1.22295 -1.37414 0
M  V30 41 H 0.691553 1.62486 0.282395 0
M  V30 42 H 3.10727 0.597973 -0.869515 0
M  V30 43 H 2.96612 1.76775 0.446327 0
M  V30 44 H 2.84552 -1.2993 0.928332 0
M  V30 45 H 2.84505 0.009335 2.13406 0
M  V30 46 H 5.01356 -1.62096 -0.38179 0
M  V30 47 H 7.4906 -1.48513 -0.305246 0
M  V30 48 H 7.18535 1.41647 2.81358 0
M  V30 49 H 4.69668 1.23413 2.68767 0
M  V30 50 H 10.0999 0.876876 -0.680591 0
M  V30 51 H 10.5988 1.82119 0.604522 0
M  V30 END ATOM
M  V30 BEGIN BOND
M  V30 1 2 1 2
M  V30 2 1 2 3
M  V30 3 1 3 4
M  V30 4 1 4 5
M  V30 5 2 5 6
M  V30 6 1 6 7
M  V30 7 1 7 8
M  V30 8 1 6 9
M  V30 9 2 9 10
M  V30 10 1 10 11
M  V30 11 2 11 12
M  V30 12 1 11 13
M  V30 13 2 13 14
M  V30 14 1 14 15
M  V30 15 2 15 16
M  V30 16 1 16 17
M  V30 17 2 17 18
M  V30 18 1 2 19
M  V30 19 1 19 20
M  V30 20 1 20 21
M  V30 21 1 21 22
M  V30 22 2 22 23
M  V30 23 1 23 24
M  V30 24 2 24 25
M  V30 25 1 25 26
M  V30 26 2 26 27
M  V30 27 1 25 28
M  V30 28 2 28 29
M  V30 29 2 28 30
M  V30 30 1 28 31
M  V30 31 2 7 3
M  V30 32 1 18 13
M  V30 33 1 27 22
M  V30 34 1 12 5
M  V30 35 1 8 32
M  V30 36 1 8 33
M  V30 37 1 9 34
M  V30 38 1 10 35
M  V30 39 1 14 36
M  V30 40 1 15 37
M  V30 41 1 16 38
M  V30 42 1 17 39
M  V30 43 1 18 40
M  V30 44 1 19 41
M  V30 45 1 20 42
M  V30 46 1 20 43
M  V30 47 1 21 44
M  V30 48 1 21 45
M  V30 49 1 23 46
M  V30 50 1 24 47
M  V30 51 1 26 48
M  V30 52 1 27 49
M  V30 53 1 31 50
M  V30 54 1 31 51
M  V30 END BOND
M  V30 END CTAB
M  END
