
     RDKit          3D

  0  0  0  0  0  0  0  0  0  0999 V3000
M  V30 BEGIN CTAB
M  V30 COUNTS 16 16 0 0 0
M  V30 BEGIN ATOM
M  V30 1 N -1.77352 -1.40471 -0.0927736 0
M  V30 2 C -0.517129 -0.724344 -0.0549174 0
M  V30 3 C 0.683005 -1.40325 -0.143425 0
M  V30 4 C 1.88072 -0.718664 -0.103954 0
M  V30 5 F 3.03218 -1.42777 -0.194268 0
M  V30 6 C 1.93704 0.654602 0.0237231 0
M  V30 7 C 0.736824 1.32888 0.111797 0
M  V30 8 C -0.477351 0.646812 0.0729051 0
M  V30 9 N -1.70354 1.35086 0.164311 0
M  V30 10 F 0.723363 2.68446 0.239259 0
M  V30 11 Br 3.6109 1.59008 0.076914 0
M  V30 12 H -2.05053 -1.99905 0.741829 0
M  V30 13 H -2.4338 -1.35503 -0.885191 0
M  V30 14 H 0.679253 -2.47602 -0.244004 0
M  V30 15 H -2.0782 1.76193 -0.739932 0
M  V30 16 H -2.24922 1.49121 1.02773 0
M  V30 END ATOM
M  V30 BEGIN BOND
M  V30 1 1 1 2
M  V30 2 2 2 3
M  V30 3 1 3 4
M  V30 4 1 4 5
M  V30 5 2 4 6
M  V30 6 1 6 7
M  V30 7 2 7 8
M  V30 8 1 8 9
M  V30 9 1 7 10
M  V30 10 1 6 11
M  V30 11 1 8 2
M  V30 12 1 1 12
M  V30 13 1 1 13
M  V30 14 1 3 14
M  V30 15 1 9 15
M  V30 16 1 9 16
M  V30 END BOND
M  V30 END CTAB
M  END
