
     RDKit          3D

  0  0  0  0  0  0  0  0  0  0999 V3000
M  V30 BEGIN CTAB
M  V30 COUNTS 26 26 0 0 0
M  V30 BEGIN ATOM
M  V30 1 N 2.94622 0.330764 -0.443592 0
M  V30 2 C 1.92157 0.417184 0.574208 0
M  V30 3 C 0.60604 -0.180418 0.0930173 0
M  V30 4 N 0.836032 -1.58704 -0.237073 0
M  V30 5 C 0.103899 0.615371 -1.05576 0
M  V30 6 C -1.29178 1.15749 -0.867479 0
M  V30 7 O -2.26278 0.189594 -0.829265 0
M  V30 8 C -2.63544 -0.119927 0.484334 0
M  V30 9 C -1.54313 -1.04084 1.01399 0
M  V30 10 C -0.337665 -0.176679 1.28165 0
M  V30 11 H 3.71899 -0.31432 -0.106094 0
M  V30 12 H 3.29092 1.23407 -0.777803 0
M  V30 13 H 1.73087 1.52108 0.720259 0
M  V30 14 H 2.23212 0.0321066 1.55154 0
M  V30 15 H 1.83485 -1.76414 -0.483013 0
M  V30 16 H 0.633448 -2.20891 0.5957 0
M  V30 17 H 0.755494 1.51328 -1.2652 0
M  V30 18 H 0.151481 0.00696008 -1.97787 0
M  V30 19 H -1.34566 1.78502 0.0194202 0
M  V30 20 H -1.49686 1.80494 -1.76753 0
M  V30 21 H -3.56394 -0.721167 0.470036 0
M  V30 22 H -2.7535 0.753977 1.12148 0
M  V30 23 H -1.8598 -1.63796 1.86672 0
M  V30 24 H -1.32449 -1.74889 0.161368 0
M  V30 25 H 0.229363 -0.685352 2.11365 0
M  V30 26 H -0.576253 0.823819 1.64606 0
M  V30 END ATOM
M  V30 BEGIN BOND
M  V30 1 1 1 2
M  V30 2 1 2 3
M  V30 3 1 3 4
M  V30 4 1 3 5
M  V30 5 1 5 6
M  V30 6 1 6 7
M  V30 7 1 7 8
M  V30 8 1 8 9
M  V30 9 1 9 10
M  V30 10 1 10 3
M  V30 11 1 1 11
M  V30 12 1 1 12
M  V30 13 1 2 13
M  V30 14 1 2 14
M  V30 15 1 4 15
M  V30 16 1 4 16
M  V30 17 1 5 17
M  V30 18 1 5 18
M  V30 19 1 6 19
M  V30 20 1 6 20
M  V30 21 1 8 21
M  V30 22 1 8 22
M  V30 23 1 9 23
M  V30 24 1 9 24
M  V30 25 1 10 25
M  V30 26 1 10 26
M  V30 END BOND
M  V30 END CTAB
M  END
