
     RDKit          3D

  0  0  0  0  0  0  0  0  0  0999 V3000
M  V30 BEGIN CTAB
M  V30 COUNTS 24 25 0 0 0
M  V30 BEGIN ATOM
M  V30 1 O 1.12331 1.05028 0.116767 0
M  V30 2 C 1.56539 -0.0655171 0.446978 0
M  V30 3 C 2.98699 -0.35758 0.212784 0
M  V30 4 N 3.64839 -1.48678 0.493716 0
M  V30 5 O 4.87165 -1.33267 0.132748 0
M  V30 6 N 5.05912 -0.158904 -0.374062 0
M  V30 7 C 3.8994 0.508156 -0.351159 0
M  V30 8 N 3.67027 1.83457 -0.815569 0
M  V30 9 N 0.708076 -1.02106 1.03322 0
M  V30 10 N -0.641343 -0.776045 1.26801 0
M  V30 11 C -1.53784 -0.471452 0.213966 0
M  V30 12 O -1.1128 -0.419024 -0.969748 0
M  V30 13 C -2.95732 -0.212023 0.451865 0
M  V30 14 N -3.51922 -0.241896 1.67076 0
M  V30 15 O -4.77476 0.0290925 1.52722 0
M  V30 16 N -5.07709 0.235375 0.295531 0
M  V30 17 C -3.9512 0.0919145 -0.420558 0
M  V30 18 N -3.77533 0.22317 -1.83498 0
M  V30 19 H 4.34438 2.62638 -0.631135 0
M  V30 20 H 2.81688 2.06643 -1.35975 0
M  V30 21 H 1.10761 -1.94546 1.29875 0
M  V30 22 H -1.02687 -0.812011 2.23803 0
M  V30 23 H -3.71276 1.22866 -2.17332 0
M  V30 24 H -3.71493 -0.593621 -2.47005 0
M  V30 END ATOM
M  V30 BEGIN BOND
M  V30 1 2 1 2
M  V30 2 1 2 3
M  V30 3 2 3 4
M  V30 4 1 4 5
M  V30 5 1 5 6
M  V30 6 2 6 7
M  V30 7 1 7 8
M  V30 8 1 2 9
M  V30 9 1 9 10
M  V30 10 1 10 11
M  V30 11 2 11 12
M  V30 12 1 11 13
M  V30 13 2 13 14
M  V30 14 1 14 15
M  V30 15 1 15 16
M  V30 16 2 16 17
M  V30 17 1 17 18
M  V30 18 1 7 3
M  V30 19 1 17 13
M  V30 20 1 8 19
M  V30 21 1 8 20
M  V30 22 1 9 21
M  V30 23 1 10 22
M  V30 24 1 18 23
M  V30 25 1 18 24
M  V30 END BOND
M  V30 END CTAB
M  END
