
     RDKit          3D

  0  0  0  0  0  0  0  0  0  0999 V3000
M  V30 BEGIN CTAB
M  V30 COUNTS 43 44 0 0 0
M  V30 BEGIN ATOM
M  V30 1 N -6.58017 0.890919 1.98381 0
M  V30 2 C -5.83187 -0.335068 1.7803 0
M  V30 3 C -4.97489 -0.136191 0.581401 0
M  V30 4 C -5.46659 -0.469196 -0.675806 0
M  V30 5 C -4.74505 -0.31671 -1.81917 0
M  V30 6 C -3.45313 0.198234 -1.71594 0
M  V30 7 C -2.92062 0.543223 -0.491773 0
M  V30 8 C -3.70272 0.367761 0.656209 0
M  V30 9 C -1.54717 1.08954 -0.340374 0
M  V30 10 N -0.728459 0.667284 -1.45895 0
M  V30 11 C -0.497615 -0.731469 -1.64579 0
M  V30 12 C 0.634821 -1.31418 -1.34072 0
M  V30 13 C 1.71289 -0.471639 -0.778345 0
M  V30 14 O 1.52363 0.740917 -0.612087 0
M  V30 15 N 2.93462 -1.08178 -0.445843 0
M  V30 16 C 4.04739 -0.413559 0.0873293 0
M  V30 17 C 4.99484 -1.21043 0.735839 0
M  V30 18 C 6.12516 -0.680553 1.2759 0
M  V30 19 C 6.40549 0.662669 1.21865 0
M  V30 20 C 5.47758 1.45485 0.5813 0
M  V30 21 C 4.30913 0.929873 0.0190584 0
M  V30 22 Cl 5.80409 3.17575 0.489922 0
M  V30 23 N 7.60063 1.16639 1.799 0
M  V30 24 C 0.829872 -2.72158 -1.54254 0
M  V30 25 N 0.972322 -3.87579 -1.71814 0
M  V30 26 H -7.54314 0.83549 1.59088 0
M  V30 27 H -6.0615 1.72761 1.63676 0
M  V30 28 H -5.24063 -0.558282 2.69363 0
M  V30 29 H -6.54436 -1.15188 1.62187 0
M  V30 30 H -6.4695 -0.866056 -0.73035 0
M  V30 31 H -5.09619 -0.565559 -2.81508 0
M  V30 32 H -2.84846 0.337587 -2.60894 0
M  V30 33 H -3.27449 0.644398 1.63221 0
M  V30 34 H -1.12767 0.698241 0.623941 0
M  V30 35 H -1.5518 2.19176 -0.238303 0
M  V30 36 H -0.345897 1.3936 -2.07534 0
M  V30 37 H -1.27583 -1.36035 -2.05518 0
M  V30 38 H 3.03241 -2.1444 -0.618812 0
M  V30 39 H 4.83718 -2.28253 0.819301 0
M  V30 40 H 6.83107 -1.36034 1.77265 0
M  V30 41 H 3.62928 1.60034 -0.477938 0
M  V30 42 H 8.31167 1.60162 1.16765 0
M  V30 43 H 7.81367 1.1295 2.81505 0
M  V30 END ATOM
M  V30 BEGIN BOND
M  V30 1 1 1 2
M  V30 2 1 2 3
M  V30 3 2 3 4
M  V30 4 1 4 5
M  V30 5 2 5 6
M  V30 6 1 6 7
M  V30 7 2 7 8
M  V30 8 1 7 9
M  V30 9 1 9 10
M  V30 10 1 10 11
M  V30 11 2 11 12
M  V30 12 1 12 13
M  V30 13 2 13 14
M  V30 14 1 13 15
M  V30 15 1 15 16
M  V30 16 2 16 17
M  V30 17 1 17 18
M  V30 18 2 18 19
M  V30 19 1 19 20
M  V30 20 2 20 21
M  V30 21 1 20 22
M  V30 22 1 19 23
M  V30 23 1 12 24
M  V30 24 3 24 25
M  V30 25 1 8 3
M  V30 26 1 21 16
M  V30 27 1 1 26
M  V30 28 1 1 27
M  V30 29 1 2 28
M  V30 30 1 2 29
M  V30 31 1 4 30
M  V30 32 1 5 31
M  V30 33 1 6 32
M  V30 34 1 8 33
M  V30 35 1 9 34
M  V30 36 1 9 35
M  V30 37 1 10 36
M  V30 38 1 11 37
M  V30 39 1 15 38
M  V30 40 1 17 39
M  V30 41 1 18 40
M  V30 42 1 21 41
M  V30 43 1 23 42
M  V30 44 1 23 43
M  V30 END BOND
M  V30 END CTAB
M  END
