
     RDKit          3D

  0  0  0  0  0  0  0  0  0  0999 V3000
M  V30 BEGIN CTAB
M  V30 COUNTS 44 46 0 0 0
M  V30 BEGIN ATOM
M  V30 1 N -4.99988 -0.647602 -0.954114 0
M  V30 2 C -3.85171 -0.978708 -0.143486 0
M  V30 3 C -2.68255 -1.27822 -1.07875 0
M  V30 4 C -2.38736 -0.0854313 -1.91413 0
M  V30 5 N -2.0724 1.13391 -1.40019 0
M  V30 6 C -0.958802 1.58401 -0.736492 0
M  V30 7 C -0.679722 1.1469 0.647301 0 CFG=1
M  V30 8 O -0.452583 -0.150167 0.918664 0
M  V30 9 C 0.572026 -0.280623 1.85492 0 CFG=2
M  V30 10 C 0.587971 1.07968 2.53514 0 CFG=2
M  V30 11 O -0.629029 1.21801 3.19037 0
M  V30 12 C 0.503526 1.93672 1.25961 0 CFG=2
M  V30 13 O 0.147259 3.21969 1.57431 0
M  V30 14 N 1.88067 -0.43488 1.21705 0
M  V30 15 C 3.03337 -0.0684569 1.79721 0
M  V30 16 N 4.03698 -0.341791 0.95054 0
M  V30 17 C 3.53347 -0.882686 -0.170777 0
M  V30 18 C 2.17039 -0.93856 0.00518708 0
M  V30 19 N 1.32776 -1.43596 -0.936872 0
M  V30 20 C 1.90433 -1.88206 -2.07847 0
M  V30 21 N 3.24045 -1.83699 -2.27387 0
M  V30 22 C 4.07649 -1.35067 -1.3548 0
M  V30 23 N 5.48979 -1.2789 -1.51243 0
M  V30 24 H -5.81097 -1.23134 -0.740031 0
M  V30 25 H -5.16995 0.369741 -0.93236 0
M  V30 26 H -3.58669 -0.15871 0.555175 0
M  V30 27 H -4.13523 -1.8901 0.452705 0
M  V30 28 H -3.08748 -2.05575 -1.84565 0
M  V30 29 H -1.8721 -1.81537 -0.614646 0
M  V30 30 H -1.59973 -0.428882 -2.6956 0
M  V30 31 H -3.29847 0.00785134 -2.63039 0
M  V30 32 H -2.80355 1.89167 -1.52777 0
M  V30 33 H -0.899228 2.72599 -0.794942 0
M  V30 34 H -0.0448125 1.32286 -1.40036 0
M  V30 35 H -1.55244 1.54389 1.27503 0
M  V30 36 H 0.426444 -1.08912 2.56983 0
M  V30 37 H 1.45248 1.29798 3.13145 0
M  V30 38 H -0.525047 1.2924 4.17222 0
M  V30 39 H 1.39589 1.81853 0.639708 0
M  V30 40 H 0.780437 3.57271 2.25209 0
M  V30 41 H 3.20386 0.377436 2.77914 0
M  V30 42 H 1.30642 -2.29962 -2.89266 0
M  V30 43 H 6.02372 -0.420271 -1.29213 0
M  V30 44 H 6.00601 -2.10443 -1.8567 0
M  V30 END ATOM
M  V30 BEGIN BOND
M  V30 1 1 1 2
M  V30 2 1 2 3
M  V30 3 1 3 4
M  V30 4 1 4 5
M  V30 5 1 5 6
M  V30 6 1 6 7
M  V30 7 1 7 8
M  V30 8 1 8 9
M  V30 9 1 9 10
M  V30 10 1 10 11
M  V30 11 1 10 12
M  V30 12 1 12 13
M  V30 13 1 9 14
M  V30 14 1 14 15
M  V30 15 2 15 16
M  V30 16 1 16 17
M  V30 17 2 17 18
M  V30 18 1 18 19
M  V30 19 2 19 20
M  V30 20 1 20 21
M  V30 21 2 21 22
M  V30 22 1 22 23
M  V30 23 1 12 7
M  V30 24 1 18 14
M  V30 25 1 22 17
M  V30 26 1 1 24
M  V30 27 1 1 25
M  V30 28 1 2 26
M  V30 29 1 2 27
M  V30 30 1 3 28
M  V30 31 1 3 29
M  V30 32 1 4 30
M  V30 33 1 4 31
M  V30 34 1 5 32
M  V30 35 1 6 33
M  V30 36 1 6 34
M  V30 37 1 7 35 CFG=1
M  V30 38 1 9 36 CFG=1
M  V30 39 1 10 37 CFG=1
M  V30 40 1 11 38
M  V30 41 1 12 39 CFG=3
M  V30 42 1 13 40
M  V30 43 1 15 41
M  V30 44 1 20 42
M  V30 45 1 23 43
M  V30 46 1 23 44
M  V30 END BOND
M  V30 END CTAB
M  END
