
     RDKit          3D

  0  0  0  0  0  0  0  0  0  0999 V3000
M  V30 BEGIN CTAB
M  V30 COUNTS 24 25 0 0 0
M  V30 BEGIN ATOM
M  V30 1 N 2.16333 -0.368685 -1.15506 0
M  V30 2 N 1.77846 -0.295407 0.19671 0
M  V30 3 C 2.62036 -0.294533 1.2564 0
M  V30 4 N 4.03027 -0.364761 1.24405 0
M  V30 5 N 1.79963 -0.210327 2.34345 0
M  V30 6 N 0.544239 -0.164652 1.93422 0
M  V30 7 C 0.497068 -0.216307 0.588609 0
M  V30 8 C -0.714358 -0.19167 -0.290786 0
M  V30 9 C -1.32499 1.17697 -0.3595 0
M  V30 10 C -2.78921 0.942595 -0.0467147 0
M  V30 11 C -2.92981 -0.53203 -0.447433 0
M  V30 12 N -1.73845 -1.08061 0.220333 0
M  V30 13 H 1.76279 0.344185 -1.78985 0
M  V30 14 H 2.8103 -1.09114 -1.50555 0
M  V30 15 H 4.49014 -1.25537 1.0165 0
M  V30 16 H 4.59397 0.466894 1.46059 0
M  V30 17 H -0.443884 -0.535224 -1.29319 0
M  V30 18 H -0.87255 1.89719 0.363944 0
M  V30 19 H -1.28792 1.58866 -1.40296 0
M  V30 20 H -2.97522 0.955214 1.05773 0
M  V30 21 H -3.46315 1.58553 -0.610094 0
M  V30 22 H -3.85668 -0.9753 -0.0675741 0
M  V30 23 H -2.82172 -0.570212 -1.54812 0
M  V30 24 H -1.87263 -0.811001 1.24104 0
M  V30 END ATOM
M  V30 BEGIN BOND
M  V30 1 1 1 2
M  V30 2 1 2 3
M  V30 3 1 3 4
M  V30 4 2 3 5
M  V30 5 1 5 6
M  V30 6 2 6 7
M  V30 7 1 7 8
M  V30 8 1 8 9
M  V30 9 1 9 10
M  V30 10 1 10 11
M  V30 11 1 11 12
M  V30 12 1 7 2
M  V30 13 1 12 8
M  V30 14 1 1 13
M  V30 15 1 1 14
M  V30 16 1 4 15
M  V30 17 1 4 16
M  V30 18 1 8 17
M  V30 19 1 9 18
M  V30 20 1 9 19
M  V30 21 1 10 20
M  V30 22 1 10 21
M  V30 23 1 11 22
M  V30 24 1 11 23
M  V30 25 1 12 24
M  V30 END BOND
M  V30 END CTAB
M  END
