
     RDKit          3D

  0  0  0  0  0  0  0  0  0  0999 V3000
M  V30 BEGIN CTAB
M  V30 COUNTS 24 23 0 0 0
M  V30 BEGIN ATOM
M  V30 1 N 4.58212 0.000915098 -0.181907 0
M  V30 2 N 3.32675 0.543758 0.0175919 0
M  V30 3 C 2.33857 -0.23665 0.355801 0
M  V30 4 N 1.04445 0.356248 0.556293 0
M  V30 5 C 0.0278879 0.116544 -0.438724 0
M  V30 6 C -1.11226 0.99444 -0.125068 0
M  V30 7 C -2.29693 0.524874 0.122382 0
M  V30 8 C -2.60917 -0.910831 0.119156 0
M  V30 9 C -3.43045 1.47935 0.419674 0
M  V30 10 N 2.43361 -1.63901 0.538804 0
M  V30 11 H 4.79256 -0.46059 -1.08951 0
M  V30 12 H 5.32739 0.0327999 0.537947 0
M  V30 13 H 0.814105 0.932734 1.38235 0
M  V30 14 H 0.439687 0.273801 -1.47667 0
M  V30 15 H -0.266724 -0.973666 -0.442011 0
M  V30 16 H -0.938914 2.05922 -0.106802 0
M  V30 17 H -3.72911 -1.09429 0.0299885 0
M  V30 18 H -2.15202 -1.50485 -0.675052 0
M  V30 19 H -2.35028 -1.29937 1.14196 0
M  V30 20 H -3.08678 2.3063 1.05928 0
M  V30 21 H -3.82384 1.83123 -0.584884 0
M  V30 22 H -4.27147 0.941334 0.891078 0
M  V30 23 H 2.83921 -2.0051 1.42006 0
M  V30 24 H 2.1016 -2.2692 -0.201554 0
M  V30 END ATOM
M  V30 BEGIN BOND
M  V30 1 1 1 2
M  V30 2 2 2 3 CFG=2
M  V30 3 1 3 4
M  V30 4 1 4 5
M  V30 5 1 5 6
M  V30 6 2 6 7 CFG=2
M  V30 7 1 7 8
M  V30 8 1 7 9
M  V30 9 1 3 10
M  V30 10 1 1 11
M  V30 11 1 1 12
M  V30 12 1 4 13
M  V30 13 1 5 14
M  V30 14 1 5 15
M  V30 15 1 6 16
M  V30 16 1 8 17
M  V30 17 1 8 18
M  V30 18 1 8 19
M  V30 19 1 9 20
M  V30 20 1 9 21
M  V30 21 1 9 22
M  V30 22 1 10 23
M  V30 23 1 10 24
M  V30 END BOND
M  V30 END CTAB
M  END
