
     RDKit          3D

  0  0  0  0  0  0  0  0  0  0999 V3000
M  V30 BEGIN CTAB
M  V30 COUNTS 40 41 0 0 0
M  V30 BEGIN ATOM
M  V30 1 C -1.48469 3.0916 -1.54583 0
M  V30 2 C -0.421829 2.19105 -0.892007 0
M  V30 3 C 0.0727148 2.93856 0.345358 0
M  V30 4 C -1.06025 0.9092 -0.493932 0
M  V30 5 C -0.239997 -0.169797 -0.0986728 0
M  V30 6 O 1.07183 0.0232154 -0.140416 0
M  V30 7 C 2.2351 -0.549186 0.136372 0
M  V30 8 C 2.47575 -1.75299 0.737401 0
M  V30 9 N 3.74091 -2.20776 0.950171 0
M  V30 10 C 4.8183 -1.50755 0.586159 0
M  V30 11 N 6.13964 -1.97055 0.802055 0
M  V30 12 N 4.59135 -0.32506 -0.00416274 0
M  V30 13 C 3.38224 0.18888 -0.247634 0
M  V30 14 N 3.25271 1.45538 -0.895407 0
M  V30 15 C -0.946948 -1.29089 0.281599 0
M  V30 16 C -2.33309 -1.38744 0.288057 0
M  V30 17 C -2.9474 -2.65413 0.720913 0
M  V30 18 C -4.39603 -2.8602 0.762987 0
M  V30 19 O -2.19892 -3.61814 1.0758 0
M  V30 20 C -3.08644 -0.328498 -0.0997253 0
M  V30 21 O -4.479 -0.400822 -0.102482 0
M  V30 22 C -2.42836 0.814767 -0.488598 0
M  V30 23 H -0.99017 3.9141 -2.10352 0
M  V30 24 H -2.0223 2.49754 -2.30954 0
M  V30 25 H -2.2068 3.48432 -0.822945 0
M  V30 26 H 0.376774 2.05967 -1.62662 0
M  V30 27 H -0.678492 3.64819 0.727102 0
M  V30 28 H 0.971224 3.4974 0.0265188 0
M  V30 29 H 0.374215 2.23835 1.13957 0
M  V30 30 H 1.64838 -2.36745 1.06721 0
M  V30 31 H 6.51264 -2.7348 0.228717 0
M  V30 32 H 6.71059 -1.533 1.53362 0
M  V30 33 H 3.65545 2.28165 -0.415084 0
M  V30 34 H 2.76811 1.4891 -1.80389 0
M  V30 35 H -0.395817 -2.16418 0.588636 0
M  V30 36 H -4.7942 -2.82276 -0.280818 0
M  V30 37 H -4.94513 -2.21768 1.47102 0
M  V30 38 H -4.62973 -3.90925 1.09919 0
M  V30 39 H -5.04446 0.395149 -0.393366 0
M  V30 40 H -3.06787 1.65403 -0.795865 0
M  V30 END ATOM
M  V30 BEGIN BOND
M  V30 1 1 1 2
M  V30 2 1 2 3
M  V30 3 1 2 4
M  V30 4 2 4 5
M  V30 5 1 5 6
M  V30 6 1 6 7
M  V30 7 2 7 8
M  V30 8 1 8 9
M  V30 9 2 9 10
M  V30 10 1 10 11
M  V30 11 1 10 12
M  V30 12 2 12 13
M  V30 13 1 13 14
M  V30 14 1 5 15
M  V30 15 2 15 16
M  V30 16 1 16 17
M  V30 17 1 17 18
M  V30 18 2 17 19
M  V30 19 1 16 20
M  V30 20 1 20 21
M  V30 21 2 20 22
M  V30 22 1 22 4
M  V30 23 1 13 7
M  V30 24 1 1 23
M  V30 25 1 1 24
M  V30 26 1 1 25
M  V30 27 1 2 26
M  V30 28 1 3 27
M  V30 29 1 3 28
M  V30 30 1 3 29
M  V30 31 1 8 30
M  V30 32 1 11 31
M  V30 33 1 11 32
M  V30 34 1 14 33
M  V30 35 1 14 34
M  V30 36 1 15 35
M  V30 37 1 18 36
M  V30 38 1 18 37
M  V30 39 1 18 38
M  V30 40 1 21 39
M  V30 41 1 22 40
M  V30 END BOND
M  V30 END CTAB
M  END
