
     RDKit          3D

  0  0  0  0  0  0  0  0  0  0999 V3000
M  V30 BEGIN CTAB
M  V30 COUNTS 19 19 0 0 0
M  V30 BEGIN ATOM
M  V30 1 N -2.51188 -0.825965 0.301854 0
M  V30 2 C -1.34611 -0.0140391 0.149041 0
M  V30 3 C -1.45142 1.36775 0.115503 0
M  V30 4 C -0.356453 2.18732 -0.0299027 0
M  V30 5 Cl -0.491693 3.93722 -0.0721476 0
M  V30 6 C 0.884698 1.59459 -0.145206 0
M  V30 7 C 0.992586 0.199579 -0.111516 0
M  V30 8 C -0.107131 -0.613029 0.0341783 0
M  V30 9 N 0.0489193 -2.02385 0.0631735 0
M  V30 10 C 2.31871 -0.460857 -0.233807 0
M  V30 11 F 2.60078 -1.23058 0.897395 0
M  V30 12 F 3.28262 0.518566 -0.378066 0
M  V30 13 F 2.39303 -1.26397 -1.35362 0
M  V30 14 H -2.79713 -1.44809 -0.488181 0
M  V30 15 H -3.05159 -0.784779 1.18752 0
M  V30 16 H -2.41916 1.85308 0.204648 0
M  V30 17 H 1.80338 2.1638 -0.263339 0
M  V30 18 H 0.479965 -2.54346 0.859835 0
M  V30 19 H -0.272135 -2.61329 -0.737364 0
M  V30 END ATOM
M  V30 BEGIN BOND
M  V30 1 1 1 2
M  V30 2 2 2 3
M  V30 3 1 3 4
M  V30 4 1 4 5
M  V30 5 2 4 6
M  V30 6 1 6 7
M  V30 7 2 7 8
M  V30 8 1 8 9
M  V30 9 1 7 10
M  V30 10 1 10 11
M  V30 11 1 10 12
M  V30 12 1 10 13
M  V30 13 1 8 2
M  V30 14 1 1 14
M  V30 15 1 1 15
M  V30 16 1 3 16
M  V30 17 1 6 17
M  V30 18 1 9 18
M  V30 19 1 9 19
M  V30 END BOND
M  V30 END CTAB
M  END
