
     RDKit          3D

  0  0  0  0  0  0  0  0  0  0999 V3000
M  V30 BEGIN CTAB
M  V30 COUNTS 23 24 0 0 0
M  V30 BEGIN ATOM
M  V30 1 N -2.51361 2.6663 -0.389926 0
M  V30 2 C -2.03891 1.35001 -0.169603 0
M  V30 3 N -2.86607 0.312222 0.0477714 0
M  V30 4 C -2.29822 -0.88786 0.243795 0
M  V30 5 N -3.19817 -1.98997 0.47543 0
M  V30 6 N -0.978456 -1.05596 0.226219 0
M  V30 7 C -0.10381 -0.0362541 0.0103841 0
M  V30 8 C -0.644501 1.2055 -0.194147 0
M  V30 9 C 1.32328 -0.265106 -0.000105179 0
M  V30 10 C 2.2212 0.749542 -0.215738 0
M  V30 11 C 3.59901 0.500415 -0.220763 0
M  V30 12 N 4.03058 -0.756159 -0.00970164 0
M  V30 13 C 3.19216 -1.7938 0.207917 0
M  V30 14 C 1.82997 -1.53055 0.209826 0
M  V30 15 H -2.86258 3.20553 0.416666 0
M  V30 16 H -2.49939 3.05223 -1.34496 0
M  V30 17 H -3.60793 -2.4979 -0.328444 0
M  V30 18 H -3.44946 -2.29163 1.44084 0
M  V30 19 H -0.0147512 2.08106 -0.375078 0
M  V30 20 H 1.92944 1.77458 -0.390085 0
M  V30 21 H 4.24854 1.34097 -0.395984 0
M  V30 22 H 3.58646 -2.79848 0.374862 0
M  V30 23 H 1.11523 -2.33469 0.380828 0
M  V30 END ATOM
M  V30 BEGIN BOND
M  V30 1 1 1 2
M  V30 2 2 2 3
M  V30 3 1 3 4
M  V30 4 1 4 5
M  V30 5 2 4 6
M  V30 6 1 6 7
M  V30 7 2 7 8
M  V30 8 1 7 9
M  V30 9 2 9 10
M  V30 10 1 10 11
M  V30 11 2 11 12
M  V30 12 1 12 13
M  V30 13 2 13 14
M  V30 14 1 8 2
M  V30 15 1 14 9
M  V30 16 1 1 15
M  V30 17 1 1 16
M  V30 18 1 5 17
M  V30 19 1 5 18
M  V30 20 1 8 19
M  V30 21 1 10 20
M  V30 22 1 11 21
M  V30 23 1 13 22
M  V30 24 1 14 23
M  V30 END BOND
M  V30 END CTAB
M  END
