
     RDKit          3D

  0  0  0  0  0  0  0  0  0  0999 V3000
M  V30 BEGIN CTAB
M  V30 COUNTS 26 27 0 0 0
M  V30 BEGIN ATOM
M  V30 1 C -3.09216 0.441437 -0.526668 0
M  V30 2 N -2.03955 0.320208 0.494049 0
M  V30 3 C -1.80263 -1.0743 0.683849 0
M  V30 4 C -0.554352 -1.40653 1.43187 0
M  V30 5 C 0.60077 -0.808317 0.689918 0
M  V30 6 C 0.374736 0.416698 0.104368 0
M  V30 7 C -0.920864 1.12348 0.186232 0
M  V30 8 C 1.38001 1.05136 -0.602888 0
M  V30 9 N 1.17621 2.31667 -1.21836 0
M  V30 10 N 2.55695 0.401815 -0.672823 0
M  V30 11 C 2.77636 -0.794225 -0.100681 0
M  V30 12 N 1.78256 -1.38867 0.580561 0
M  V30 13 N 4.0449 -1.41793 -0.217672 0
M  V30 14 H -4.0707 0.670056 -0.0569846 0
M  V30 15 H -2.81894 1.26237 -1.19763 0
M  V30 16 H -3.13598 -0.486542 -1.14763 0
M  V30 17 H -2.66086 -1.49479 1.25815 0
M  V30 18 H -1.78775 -1.64353 -0.279069 0
M  V30 19 H -0.474664 -2.49308 1.5305 0
M  V30 20 H -0.569758 -0.887462 2.42529 0
M  V30 21 H -0.885801 1.98076 0.917271 0
M  V30 22 H -1.09193 1.60494 -0.802195 0
M  V30 23 H 0.680725 3.1207 -0.782809 0
M  V30 24 H 1.54714 2.46102 -2.17891 0
M  V30 25 H 4.23679 -2.05846 -1.03867 0
M  V30 26 H 4.74878 -1.21769 0.52093 0
M  V30 END ATOM
M  V30 BEGIN BOND
M  V30 1 1 1 2
M  V30 2 1 2 3
M  V30 3 1 3 4
M  V30 4 1 4 5
M  V30 5 2 5 6
M  V30 6 1 6 7
M  V30 7 1 6 8
M  V30 8 1 8 9
M  V30 9 2 8 10
M  V30 10 1 10 11
M  V30 11 2 11 12
M  V30 12 1 11 13
M  V30 13 1 7 2
M  V30 14 1 12 5
M  V30 15 1 1 14
M  V30 16 1 1 15
M  V30 17 1 1 16
M  V30 18 1 3 17
M  V30 19 1 3 18
M  V30 20 1 4 19
M  V30 21 1 4 20
M  V30 22 1 7 21
M  V30 23 1 7 22
M  V30 24 1 9 23
M  V30 25 1 9 24
M  V30 26 1 13 25
M  V30 27 1 13 26
M  V30 END BOND
M  V30 END CTAB
M  END
