
     RDKit          3D

  0  0  0  0  0  0  0  0  0  0999 V3000
M  V30 BEGIN CTAB
M  V30 COUNTS 30 31 0 0 0
M  V30 BEGIN ATOM
M  V30 1 C 4.09374 0.383697 0.778081 0
M  V30 2 C 2.81771 -0.0165901 1.38508 0
M  V30 3 C 1.67882 -0.0622743 0.500865 0
M  V30 4 N 0.375089 0.0342271 0.98265 0
M  V30 5 C -0.418954 -0.124042 -0.0682224 0
M  V30 6 C 0.341137 -0.323611 -1.22464 0
M  V30 7 N 1.6015 -0.277432 -0.811927 0
M  V30 8 N 2.68228 -0.385518 -1.68766 0
M  V30 9 N -0.195506 -0.464283 -2.52472 0
M  V30 10 C -1.90048 -0.227677 -0.0840793 0
M  V30 11 C -2.42986 1.09666 0.575601 0
M  V30 12 C -3.86975 0.650247 0.834727 0
M  V30 13 C -3.60129 -0.80261 1.25474 0
M  V30 14 O -2.30849 -1.12272 0.957162 0
M  V30 15 H 4.88068 0.287063 1.58851 0
M  V30 16 H 4.09684 1.51941 0.540355 0
M  V30 17 H 4.50047 -0.203506 -0.0486516 0
M  V30 18 H 3.02778 -1.01886 1.90229 0
M  V30 19 H 2.6033 0.657928 2.25278 0
M  V30 20 H 2.9539 -1.30085 -2.07338 0
M  V30 21 H 3.23097 0.476569 -1.97408 0
M  V30 22 H -0.701935 -1.27203 -2.86189 0
M  V30 23 H -0.0269239 0.341007 -3.17735 0
M  V30 24 H -2.34711 -0.486268 -0.999641 0
M  V30 25 H -2.34049 1.90586 -0.138076 0
M  V30 26 H -1.87436 1.20078 1.50314 0
M  V30 27 H -4.3822 0.645537 -0.166643 0
M  V30 28 H -4.37258 1.24205 1.5824 0
M  V30 29 H -4.30008 -1.47453 0.71841 0
M  V30 30 H -3.81422 -0.878253 2.36713 0
M  V30 END ATOM
M  V30 BEGIN BOND
M  V30 1 1 1 2
M  V30 2 1 2 3
M  V30 3 2 3 4
M  V30 4 1 4 5
M  V30 5 2 5 6
M  V30 6 1 6 7
M  V30 7 1 7 8
M  V30 8 1 6 9
M  V30 9 1 5 10
M  V30 10 1 10 11
M  V30 11 1 11 12
M  V30 12 1 12 13
M  V30 13 1 13 14
M  V30 14 1 7 3
M  V30 15 1 14 10
M  V30 16 1 1 15
M  V30 17 1 1 16
M  V30 18 1 1 17
M  V30 19 1 2 18
M  V30 20 1 2 19
M  V30 21 1 8 20
M  V30 22 1 8 21
M  V30 23 1 9 22
M  V30 24 1 9 23
M  V30 25 1 10 24
M  V30 26 1 11 25
M  V30 27 1 11 26
M  V30 28 1 12 27
M  V30 29 1 12 28
M  V30 30 1 13 29
M  V30 31 1 13 30
M  V30 END BOND
M  V30 END CTAB
M  END
