
     RDKit          3D

  0  0  0  0  0  0  0  0  0  0999 V3000
M  V30 BEGIN CTAB
M  V30 COUNTS 27 28 0 0 0
M  V30 BEGIN ATOM
M  V30 1 N -3.7642 -0.802434 -0.00820886 0
M  V30 2 C -2.35725 -0.815078 0.275474 0 CFG=2
M  V30 3 C -1.97826 0.461092 0.951962 0
M  V30 4 C -0.490216 0.639971 1.10359 0
M  V30 5 C 0.144701 0.465583 -0.281038 0 CFG=2
M  V30 6 C -0.110984 -1.00323 -0.629504 0
M  V30 7 C -1.58221 -1.0829 -0.985518 0
M  V30 8 C 1.57381 0.772761 -0.263732 0
M  V30 9 O 2.19589 1.66194 -0.966847 0
M  V30 10 N 3.45358 1.6558 -0.691553 0
M  V30 11 C 3.6794 0.711515 0.245097 0
M  V30 12 N 2.48689 0.163027 0.505495 0
M  V30 13 N 4.94056 0.379464 0.827744 0
M  V30 14 H -3.92931 -0.989993 -1.02573 0
M  V30 15 H -4.19959 0.110487 0.26178 0
M  V30 16 H -2.16215 -1.66291 0.97613 0
M  V30 17 H -2.3646 1.31279 0.339457 0
M  V30 18 H -2.41261 0.450626 1.97262 0
M  V30 19 H -0.1073 -0.190449 1.72221 0
M  V30 20 H -0.288121 1.6236 1.52834 0
M  V30 21 H -0.424006 1.08879 -0.989413 0
M  V30 22 H 0.544804 -1.35652 -1.43618 0
M  V30 23 H 0.0459263 -1.65074 0.246847 0
M  V30 24 H -1.81868 -2.11435 -1.32115 0
M  V30 25 H -1.8709 -0.364084 -1.77397 0
M  V30 26 H 5.65451 1.12261 0.94973 0
M  V30 27 H 5.14032 -0.587361 1.12415 0
M  V30 END ATOM
M  V30 BEGIN BOND
M  V30 1 1 1 2
M  V30 2 1 2 3
M  V30 3 1 3 4
M  V30 4 1 4 5
M  V30 5 1 5 6
M  V30 6 1 6 7
M  V30 7 1 5 8
M  V30 8 1 8 9
M  V30 9 1 9 10
M  V30 10 2 10 11
M  V30 11 1 11 12
M  V30 12 1 11 13
M  V30 13 1 7 2
M  V30 14 2 12 8
M  V30 15 1 1 14
M  V30 16 1 1 15
M  V30 17 1 2 16 CFG=1
M  V30 18 1 3 17
M  V30 19 1 3 18
M  V30 20 1 4 19
M  V30 21 1 4 20
M  V30 22 1 5 21 CFG=3
M  V30 23 1 6 22
M  V30 24 1 6 23
M  V30 25 1 7 24
M  V30 26 1 7 25
M  V30 27 1 13 26
M  V30 28 1 13 27
M  V30 END BOND
M  V30 END CTAB
M  END
