
     RDKit          3D

  0  0  0  0  0  0  0  0  0  0999 V3000
M  V30 BEGIN CTAB
M  V30 COUNTS 47 48 0 0 0
M  V30 BEGIN ATOM
M  V30 1 N -5.6869 -0.925326 0.760303 0
M  V30 2 C -5.62178 0.223373 -0.0855708 0
M  V30 3 C -4.21619 0.750554 -0.257323 0
M  V30 4 C -4.18093 1.95633 -1.15004 0
M  V30 5 C -3.65945 1.05318 1.1184 0
M  V30 6 C -2.17067 0.900478 0.889551 0
M  V30 7 N -2.00336 0.152106 -0.301699 0
M  V30 8 C -3.26841 -0.331168 -0.737763 0
M  V30 9 C -0.952526 -0.800442 -0.299349 0
M  V30 10 C 0.403831 -0.168792 -0.127495 0
M  V30 11 O 0.415326 1.0648 -0.0190938 0
M  V30 12 N 1.49523 -1.04984 -0.109976 0
M  V30 13 C 2.84886 -0.690421 0.0406721 0
M  V30 14 C 3.30437 0.566725 0.28823 0
M  V30 15 C 4.67548 0.86789 0.422961 0
M  V30 16 C 5.6299 -0.108054 0.309251 0
M  V30 17 C 5.18925 -1.38216 0.0600092 0
M  V30 18 C 3.85493 -1.67433 -0.0712914 0
M  V30 19 S 7.33498 0.277343 0.478528 0
M  V30 20 O 7.44913 1.4196 1.44583 0
M  V30 21 O 8.04491 -0.905565 1.06886 0
M  V30 22 N 8.03906 0.698128 -1.02792 0
M  V30 23 C -1.1746 -1.78092 0.830022 0
M  V30 24 H -6.35415 -1.66182 0.439594 0
M  V30 25 H -5.7802 -0.710023 1.77192 0
M  V30 26 H -6.21029 1.03305 0.423365 0
M  V30 27 H -6.07685 0.0850736 -1.07716 0
M  V30 28 H -4.13693 2.86698 -0.506906 0
M  V30 29 H -5.18075 2.01739 -1.66411 0
M  V30 30 H -3.34889 1.91471 -1.8705 0
M  V30 31 H -4.03433 0.344792 1.88498 0
M  V30 32 H -3.90824 2.10606 1.39306 0
M  V30 33 H -1.73002 1.90441 0.881941 0
M  V30 34 H -1.78645 0.275573 1.7399 0
M  V30 35 H -3.54499 -1.32541 -0.332377 0
M  V30 36 H -3.33818 -0.37569 -1.85239 0
M  V30 37 H -0.900811 -1.37562 -1.24457 0
M  V30 38 H 1.28488 -2.1002 -0.221015 0
M  V30 39 H 2.61075 1.38576 0.395193 0
M  V30 40 H 4.97135 1.90041 0.621253 0
M  V30 41 H 5.93014 -2.18711 -0.0360124 0
M  V30 42 H 3.50198 -2.69122 -0.27085 0
M  V30 43 H 8.63731 1.5435 -0.888478 0
M  V30 44 H 7.27139 0.971634 -1.67159 0
M  V30 45 H -0.4686 -1.51615 1.66669 0
M  V30 46 H -2.22282 -1.69566 1.17765 0
M  V30 47 H -0.93573 -2.82393 0.532984 0
M  V30 END ATOM
M  V30 BEGIN BOND
M  V30 1 1 1 2
M  V30 2 1 2 3
M  V30 3 1 3 4
M  V30 4 1 3 5
M  V30 5 1 5 6
M  V30 6 1 6 7
M  V30 7 1 7 8
M  V30 8 1 7 9
M  V30 9 1 9 10
M  V30 10 2 10 11
M  V30 11 1 10 12
M  V30 12 1 12 13
M  V30 13 2 13 14
M  V30 14 1 14 15
M  V30 15 2 15 16
M  V30 16 1 16 17
M  V30 17 2 17 18
M  V30 18 1 16 19
M  V30 19 2 19 20
M  V30 20 2 19 21
M  V30 21 1 19 22
M  V30 22 1 9 23
M  V30 23 1 8 3
M  V30 24 1 18 13
M  V30 25 1 1 24
M  V30 26 1 1 25
M  V30 27 1 2 26
M  V30 28 1 2 27
M  V30 29 1 4 28
M  V30 30 1 4 29
M  V30 31 1 4 30
M  V30 32 1 5 31
M  V30 33 1 5 32
M  V30 34 1 6 33
M  V30 35 1 6 34
M  V30 36 1 8 35
M  V30 37 1 8 36
M  V30 38 1 9 37
M  V30 39 1 12 38
M  V30 40 1 14 39
M  V30 41 1 15 40
M  V30 42 1 17 41
M  V30 43 1 18 42
M  V30 44 1 22 43
M  V30 45 1 22 44
M  V30 46 1 23 45
M  V30 47 1 23 46
M  V30 48 1 23 47
M  V30 END BOND
M  V30 END CTAB
M  END
