
     RDKit          3D

  0  0  0  0  0  0  0  0  0  0999 V3000
M  V30 BEGIN CTAB
M  V30 COUNTS 22 23 0 0 0
M  V30 BEGIN ATOM
M  V30 1 N -3.51913 -0.511372 -0.160718 0
M  V30 2 C -2.11785 -0.321431 -0.101742 0
M  V30 3 C -1.26466 -1.32986 -0.496539 0
M  V30 4 C 0.119842 -1.20211 -0.46123 0
M  V30 5 C 0.680283 -0.0296413 -0.0175036 0
M  V30 6 C -0.161709 0.972323 0.37471 0
M  V30 7 C -1.5496 0.862964 0.346478 0
M  V30 8 N -2.37729 1.93159 0.764105 0
M  V30 9 C 2.12056 0.15187 0.0378553 0
M  V30 10 N 2.63677 1.31397 0.477996 0
M  V30 11 S 4.3061 1.13015 0.391119 0
M  V30 12 C 4.33538 -0.474255 -0.223855 0
M  V30 13 C 3.02229 -0.781668 -0.328692 0
M  V30 14 H -3.97967 -0.633259 -1.07324 0
M  V30 15 H -4.07868 -0.527589 0.711347 0
M  V30 16 H -1.71045 -2.24107 -0.841287 0
M  V30 17 H 0.728614 -2.05185 -0.792813 0
M  V30 18 H 0.203288 1.94501 0.743812 0
M  V30 19 H -3.35899 1.7834 1.01948 0
M  V30 20 H -1.97717 2.89972 0.813872 0
M  V30 21 H 5.20693 -1.10666 -0.474737 0
M  V30 22 H 2.73515 -1.78023 -0.708425 0
M  V30 END ATOM
M  V30 BEGIN BOND
M  V30 1 1 1 2
M  V30 2 2 2 3
M  V30 3 1 3 4
M  V30 4 2 4 5
M  V30 5 1 5 6
M  V30 6 2 6 7
M  V30 7 1 7 8
M  V30 8 1 5 9
M  V30 9 2 9 10
M  V30 10 1 10 11
M  V30 11 1 11 12
M  V30 12 2 12 13
M  V30 13 1 7 2
M  V30 14 1 13 9
M  V30 15 1 1 14
M  V30 16 1 1 15
M  V30 17 1 3 16
M  V30 18 1 4 17
M  V30 19 1 6 18
M  V30 20 1 8 19
M  V30 21 1 8 20
M  V30 22 1 12 21
M  V30 23 1 13 22
M  V30 END BOND
M  V30 END CTAB
M  END
