
     RDKit          3D

  0  0  0  0  0  0  0  0  0  0999 V3000
M  V30 BEGIN CTAB
M  V30 COUNTS 25 25 0 0 0
M  V30 BEGIN ATOM
M  V30 1 C -2.31552 -1.67392 -0.561798 0
M  V30 2 C -0.977576 -1.08831 -0.323216 0
M  V30 3 C 0.142674 -1.61635 -0.901139 0
M  V30 4 C 1.38821 -1.07038 -0.678682 0
M  V30 5 Cl 2.83598 -1.73202 -1.40975 0
M  V30 6 C 1.53775 0.0317522 0.139386 0
M  V30 7 C 0.389354 0.541206 0.707506 0
M  V30 8 C -0.866448 0.0118635 0.499343 0
M  V30 9 S -2.23848 0.741901 1.27079 0
M  V30 10 N -3.4045 1.30705 0.128679 0
M  V30 11 O -2.91968 -0.260693 2.14658 0
M  V30 12 O -1.80265 1.90859 2.08556 0
M  V30 13 S 3.10549 0.744703 0.439066 0
M  V30 14 N 3.86936 1.29611 -0.979726 0
M  V30 15 O 2.90613 1.93606 1.35014 0
M  V30 16 O 3.98461 -0.228407 1.21191 0
M  V30 17 H -2.92528 -0.988182 -1.19461 0
M  V30 18 H -2.18285 -2.59898 -1.15247 0
M  V30 19 H -2.83579 -1.96903 0.372899 0
M  V30 20 H 0.111174 -2.48428 -1.55881 0
M  V30 21 H 0.531133 1.42347 1.35893 0
M  V30 22 H -3.86899 2.17067 0.49595 0
M  V30 23 H -2.98114 1.55399 -0.779055 0
M  V30 24 H 4.91225 1.22922 -0.824277 0
M  V30 25 H 3.60479 0.813977 -1.8432 0
M  V30 END ATOM
M  V30 BEGIN BOND
M  V30 1 1 1 2
M  V30 2 2 2 3
M  V30 3 1 3 4
M  V30 4 1 4 5
M  V30 5 2 4 6
M  V30 6 1 6 7
M  V30 7 2 7 8
M  V30 8 1 8 9
M  V30 9 1 9 10
M  V30 10 2 9 11
M  V30 11 2 9 12
M  V30 12 1 6 13
M  V30 13 1 13 14
M  V30 14 2 13 15
M  V30 15 2 13 16
M  V30 16 1 8 2
M  V30 17 1 1 17
M  V30 18 1 1 18
M  V30 19 1 1 19
M  V30 20 1 3 20
M  V30 21 1 7 21
M  V30 22 1 10 22
M  V30 23 1 10 23
M  V30 24 1 14 24
M  V30 25 1 14 25
M  V30 END BOND
M  V30 END CTAB
M  END
