
     RDKit          3D

  0  0  0  0  0  0  0  0  0  0999 V3000
M  V30 BEGIN CTAB
M  V30 COUNTS 23 24 0 0 0
M  V30 BEGIN ATOM
M  V30 1 O -3.29908 0.854826 1.08567 0
M  V30 2 C -2.93182 -0.209204 0.274286 0
M  V30 3 C -1.80466 -0.999009 0.94975 0
M  V30 4 C -0.869612 0.0582779 0.42754 0
M  V30 5 C -1.86688 0.261418 -0.718698 0
M  V30 6 C 0.460689 -0.427636 -0.0142978 0
M  V30 7 N 0.746902 -1.4638 -0.798227 0
M  V30 8 N 2.06477 -1.54786 -0.942128 0
M  V30 9 C 2.61416 -0.548471 -0.237217 0
M  V30 10 N 1.60692 0.135678 0.331144 0
M  V30 11 N 1.76383 1.27286 1.16229 0
M  V30 12 N 3.98637 -0.209559 -0.0717575 0
M  V30 13 H -3.17118 1.72414 0.659852 0
M  V30 14 H -3.72619 -0.813829 -0.152425 0
M  V30 15 H -1.66853 -2.01099 0.521854 0
M  V30 16 H -1.97227 -1.02068 2.02644 0
M  V30 17 H -0.852506 0.9368 1.07614 0
M  V30 18 H -1.67443 -0.468476 -1.53652 0
M  V30 19 H -1.94339 1.30671 -1.01677 0
M  V30 20 H 2.63125 1.8172 1.14938 0
M  V30 21 H 0.989699 1.54696 1.78357 0
M  V30 22 H 4.52891 -0.750564 0.636816 0
M  V30 23 H 4.38704 0.555212 -0.657858 0
M  V30 END ATOM
M  V30 BEGIN BOND
M  V30 1 1 1 2
M  V30 2 1 2 3
M  V30 3 1 3 4
M  V30 4 1 4 5
M  V30 5 1 4 6
M  V30 6 2 6 7
M  V30 7 1 7 8
M  V30 8 2 8 9
M  V30 9 1 9 10
M  V30 10 1 10 11
M  V30 11 1 9 12
M  V30 12 1 5 2
M  V30 13 1 10 6
M  V30 14 1 1 13
M  V30 15 1 2 14
M  V30 16 1 3 15
M  V30 17 1 3 16
M  V30 18 1 4 17
M  V30 19 1 5 18
M  V30 20 1 5 19
M  V30 21 1 11 20
M  V30 22 1 11 21
M  V30 23 1 12 22
M  V30 24 1 12 23
M  V30 END BOND
M  V30 END CTAB
M  END
