
     RDKit          3D

  0  0  0  0  0  0  0  0  0  0999 V3000
M  V30 BEGIN CTAB
M  V30 COUNTS 40 42 0 0 0
M  V30 BEGIN ATOM
M  V30 1 N -4.34306 -0.695155 0.575336 0
M  V30 2 C -2.98153 -1.05033 0.473448 0
M  V30 3 C -2.30336 -0.123742 -0.496496 0
M  V30 4 N -0.912616 -0.389806 -0.685495 0
M  V30 5 C -0.6372 -1.59295 -1.34077 0
M  V30 6 C 0.263853 -2.57918 -0.697507 0
M  V30 7 C 1.35866 -1.9018 0.000441018 0
M  V30 8 C 1.21148 -0.610442 0.4619 0
M  V30 9 C -0.0442937 0.133311 0.296403 0 CFG=1
M  V30 10 C 0.183882 1.61276 0.14709 0
M  V30 11 C 0.0964366 2.46673 1.22369 0
M  V30 12 C 0.301054 3.81495 1.10313 0
M  V30 13 C 0.607008 4.33626 -0.147041 0
M  V30 14 N 0.69567 3.5242 -1.20622 0
M  V30 15 C 0.488923 2.18415 -1.06994 0
M  V30 16 N 0.58944 1.39245 -2.2168 0
M  V30 17 C 2.27337 -0.0337024 1.11436 0
M  V30 18 C 3.45586 -0.762334 1.29012 0
M  V30 19 C 3.58856 -2.04139 0.82826 0
M  V30 20 C 2.53645 -2.63523 0.172041 0
M  V30 21 H -4.53077 0.276621 0.566455 0
M  V30 22 H -4.88341 -1.25174 1.1889 0
M  V30 23 H -2.92575 -2.0906 0.118054 0
M  V30 24 H -2.54421 -1.01888 1.48766 0
M  V30 25 H -2.80086 -0.293614 -1.48952 0
M  V30 26 H -2.51187 0.927766 -0.227009 0
M  V30 27 H -0.324776 -1.48991 -2.42121 0
M  V30 28 H -1.63666 -2.12953 -1.4552 0
M  V30 29 H 0.727217 -3.22914 -1.49877 0
M  V30 30 H -0.27884 -3.31221 -0.0522701 0
M  V30 31 H -0.581456 0.0337408 1.28722 0
M  V30 32 H -0.139042 2.04249 2.18522 0
M  V30 33 H 0.239901 4.5042 1.95098 0
M  V30 34 H 0.774729 5.40199 -0.273277 0
M  V30 35 H 1.44122 0.831118 -2.39364 0
M  V30 36 H -0.196751 1.36113 -2.89901 0
M  V30 37 H 2.29194 0.950985 1.51398 0
M  V30 38 H 4.29355 -0.329896 1.80195 0
M  V30 39 H 4.5251 -2.58794 0.979568 0
M  V30 40 H 2.63215 -3.64531 -0.196027 0
M  V30 END ATOM
M  V30 BEGIN BOND
M  V30 1 1 1 2
M  V30 2 1 2 3
M  V30 3 1 3 4
M  V30 4 1 4 5
M  V30 5 1 5 6
M  V30 6 1 6 7
M  V30 7 2 7 8
M  V30 8 1 8 9
M  V30 9 1 9 10
M  V30 10 2 10 11
M  V30 11 1 11 12
M  V30 12 2 12 13
M  V30 13 1 13 14
M  V30 14 2 14 15
M  V30 15 1 15 16
M  V30 16 1 8 17
M  V30 17 2 17 18
M  V30 18 1 18 19
M  V30 19 2 19 20
M  V30 20 1 9 4
M  V30 21 1 15 10
M  V30 22 1 20 7
M  V30 23 1 1 21
M  V30 24 1 1 22
M  V30 25 1 2 23
M  V30 26 1 2 24
M  V30 27 1 3 25
M  V30 28 1 3 26
M  V30 29 1 5 27
M  V30 30 1 5 28
M  V30 31 1 6 29
M  V30 32 1 6 30
M  V30 33 1 9 31 CFG=1
M  V30 34 1 11 32
M  V30 35 1 12 33
M  V30 36 1 13 34
M  V30 37 1 16 35
M  V30 38 1 16 36
M  V30 39 1 17 37
M  V30 40 1 18 38
M  V30 41 1 19 39
M  V30 42 1 20 40
M  V30 END BOND
M  V30 END CTAB
M  END
