
     RDKit          3D

  0  0  0  0  0  0  0  0  0  0999 V3000
M  V30 BEGIN CTAB
M  V30 COUNTS 48 51 0 0 0
M  V30 BEGIN ATOM
M  V30 1 N -3.28453 -3.15633 -1.07213 0
M  V30 2 C -1.86844 -3.26821 -1.12271 0
M  V30 3 N -1.29899 -4.43763 -1.5128 0
M  V30 4 N 0.00799961 -4.60669 -1.58024 0
M  V30 5 C 0.877896 -3.63493 -1.26822 0
M  V30 6 C 0.382423 -2.41991 -0.863854 0
M  V30 7 C -1.00563 -2.24387 -0.79337 0
M  V30 8 N -1.50414 -1.07906 -0.405349 0
M  V30 9 C -0.716744 -0.0446543 -0.0718203 0
M  V30 10 N -1.28909 1.16094 0.356681 0
M  V30 11 C -2.66058 1.49851 0.45248 0
M  V30 12 C -3.65822 0.890695 -0.247623 0
M  V30 13 C -4.99268 1.26707 -0.0707556 0
M  V30 14 C -5.35928 2.25686 0.806399 0
M  V30 15 C -4.355 2.87352 1.51442 0
M  V30 16 C -3.04929 2.51288 1.34899 0
M  V30 17 C -6.78868 2.64199 0.979732 0
M  V30 18 C 0.662672 -0.237256 -0.147544 0
M  V30 19 N 1.18483 -1.41058 -0.538622 0
M  V30 20 N 1.57969 0.770766 0.21029 0
M  V30 21 C 2.9985 0.704513 0.139969 0
M  V30 22 C 3.70382 -0.0193065 -0.776915 0
M  V30 23 C 5.08514 -0.0518798 -0.743395 0
M  V30 24 C 5.75284 0.652357 0.221943 0
M  V30 25 C 5.05134 1.37979 1.14209 0
M  V30 26 C 3.68272 1.42913 1.13213 0
M  V30 27 C 7.252 0.59268 0.226299 0
M  V30 28 N 2.29966 -3.85677 -1.35387 0
M  V30 29 H -3.78164 -2.24484 -1.10345 0
M  V30 30 H -3.86349 -4.01693 -1.00042 0
M  V30 31 H -0.619909 1.93936 0.652055 0
M  V30 32 H -3.49355 0.128194 -0.963494 0
M  V30 33 H -5.77768 0.774794 -0.633356 0
M  V30 34 H -4.61855 3.64915 2.20437 0
M  V30 35 H -2.26891 3.01851 1.92358 0
M  V30 36 H -7.34062 1.95952 1.64587 0
M  V30 37 H -7.25904 2.56802 -0.0261342 0
M  V30 38 H -6.86336 3.69266 1.3407 0
M  V30 39 H 1.18742 1.69093 0.571055 0
M  V30 40 H 3.18312 -0.574661 -1.57622 0
M  V30 41 H 5.5822 -0.645731 -1.49924 0
M  V30 42 H 5.62366 1.93125 1.89985 0
M  V30 43 H 3.11133 2.01174 1.86897 0
M  V30 44 H 7.59587 -0.307407 -0.29552 0
M  V30 45 H 7.6378 0.669377 1.27572 0
M  V30 46 H 7.63434 1.48334 -0.352569 0
M  V30 47 H 2.79447 -4.23766 -0.521983 0
M  V30 48 H 2.84628 -3.65426 -2.20375 0
M  V30 END ATOM
M  V30 BEGIN BOND
M  V30 1 1 1 2
M  V30 2 2 2 3
M  V30 3 1 3 4
M  V30 4 2 4 5
M  V30 5 1 5 6
M  V30 6 2 6 7
M  V30 7 1 7 8
M  V30 8 2 8 9
M  V30 9 1 9 10
M  V30 10 1 10 11
M  V30 11 2 11 12
M  V30 12 1 12 13
M  V30 13 2 13 14
M  V30 14 1 14 15
M  V30 15 2 15 16
M  V30 16 1 14 17
M  V30 17 1 9 18
M  V30 18 2 18 19
M  V30 19 1 18 20
M  V30 20 1 20 21
M  V30 21 2 21 22
M  V30 22 1 22 23
M  V30 23 2 23 24
M  V30 24 1 24 25
M  V30 25 2 25 26
M  V30 26 1 24 27
M  V30 27 1 5 28
M  V30 28 1 7 2
M  V30 29 1 16 11
M  V30 30 1 26 21
M  V30 31 1 19 6
M  V30 32 1 1 29
M  V30 33 1 1 30
M  V30 34 1 10 31
M  V30 35 1 12 32
M  V30 36 1 13 33
M  V30 37 1 15 34
M  V30 38 1 16 35
M  V30 39 1 17 36
M  V30 40 1 17 37
M  V30 41 1 17 38
M  V30 42 1 20 39
M  V30 43 1 22 40
M  V30 44 1 23 41
M  V30 45 1 25 42
M  V30 46 1 26 43
M  V30 47 1 27 44
M  V30 48 1 27 45
M  V30 49 1 27 46
M  V30 50 1 28 47
M  V30 51 1 28 48
M  V30 END BOND
M  V30 END CTAB
M  END
