
     RDKit          3D

  0  0  0  0  0  0  0  0  0  0999 V3000
M  V30 BEGIN CTAB
M  V30 COUNTS 46 46 0 0 0
M  V30 BEGIN ATOM
M  V30 1 C 1.48258 -1.14341 -0.762025 0 CFG=1
M  V30 2 N 1.75043 -0.225033 -1.83589 0
M  V30 3 C 2.28294 -0.679557 0.450063 0
M  V30 4 C 3.7685 -0.678571 0.121885 0
M  V30 5 C 4.53486 -0.216159 1.33805 0
M  V30 6 N 5.94488 -0.222027 1.01863 0
M  V30 7 C 6.46265 0.689303 0.0924091 0
M  V30 8 N 6.49586 0.361387 -1.28405 0
M  V30 9 N 6.91032 1.82319 0.475332 0
M  V30 10 C 0.054445 -1.22604 -0.397671 0
M  V30 11 O -0.260062 -1.98799 0.551744 0
M  V30 12 N -0.967094 -0.505795 -1.04858 0
M  V30 13 C -2.3775 -0.629303 -0.639669 0 CFG=1
M  V30 14 C -2.80804 0.74579 -0.25484 0
M  V30 15 C -4.18469 0.898583 0.197087 0
M  V30 16 C -4.47559 0.722275 1.54872 0
M  V30 17 C -5.75708 0.862644 2.05299 0
M  V30 18 C -6.76086 1.18813 1.16858 0
M  V30 19 C -6.46417 1.36198 -0.173693 0
M  V30 20 C -5.19046 1.22177 -0.67223 0
M  V30 21 C -3.10701 -1.23037 -1.76322 0
M  V30 22 O -4.45701 -1.53886 -1.76032 0
M  V30 23 O -2.49476 -1.51144 -2.85114 0
M  V30 24 H 1.88995 -2.12981 -1.08615 0
M  V30 25 H 1.50745 0.767958 -1.55789 0
M  V30 26 H 1.18643 -0.444273 -2.69966 0
M  V30 27 H 2.09889 -1.32813 1.31892 0
M  V30 28 H 1.94778 0.353913 0.671561 0
M  V30 29 H 3.99703 -0.00277022 -0.712534 0
M  V30 30 H 4.06081 -1.71241 -0.143933 0
M  V30 31 H 4.3483 -0.931807 2.19166 0
M  V30 32 H 4.17229 0.782945 1.65731 0
M  V30 33 H 6.58004 -0.906268 1.4781 0
M  V30 34 H 5.96558 0.952882 -1.94594 0
M  V30 35 H 7.03896 -0.455049 -1.63371 0
M  V30 36 H 7.3063 2.52621 -0.211885 0
M  V30 37 H -0.73611 0.126308 -1.83222 0
M  V30 38 H -2.39909 -1.34721 0.213556 0
M  V30 39 H -2.07781 1.0888 0.534142 0
M  V30 40 H -2.60216 1.41022 -1.12489 0
M  V30 41 H -3.70441 0.465232 2.26862 0
M  V30 42 H -5.97683 0.725274 3.10243 0
M  V30 43 H -7.7866 1.31017 1.51357 0
M  V30 44 H -7.30441 1.61893 -0.822517 0
M  V30 45 H -5.04789 1.3748 -1.73256 0
M  V30 46 H -4.84763 -2.32643 -1.27154 0
M  V30 END ATOM
M  V30 BEGIN BOND
M  V30 1 1 1 2
M  V30 2 1 1 3
M  V30 3 1 3 4
M  V30 4 1 4 5
M  V30 5 1 5 6
M  V30 6 1 6 7
M  V30 7 1 7 8
M  V30 8 2 7 9 CFG=2
M  V30 9 1 1 10
M  V30 10 2 10 11
M  V30 11 1 10 12
M  V30 12 1 12 13
M  V30 13 1 13 14
M  V30 14 1 14 15
M  V30 15 2 15 16
M  V30 16 1 16 17
M  V30 17 2 17 18
M  V30 18 1 18 19
M  V30 19 2 19 20
M  V30 20 1 13 21
M  V30 21 1 21 22
M  V30 22 2 21 23
M  V30 23 1 20 15
M  V30 24 1 1 24 CFG=3
M  V30 25 1 2 25
M  V30 26 1 2 26
M  V30 27 1 3 27
M  V30 28 1 3 28
M  V30 29 1 4 29
M  V30 30 1 4 30
M  V30 31 1 5 31
M  V30 32 1 5 32
M  V30 33 1 6 33
M  V30 34 1 8 34
M  V30 35 1 8 35
M  V30 36 1 9 36
M  V30 37 1 12 37
M  V30 38 1 13 38 CFG=1
M  V30 39 1 14 39
M  V30 40 1 14 40
M  V30 41 1 16 41
M  V30 42 1 17 42
M  V30 43 1 18 43
M  V30 44 1 19 44
M  V30 45 1 20 45
M  V30 46 1 22 46
M  V30 END BOND
M  V30 END CTAB
M  END
