
     RDKit          3D

  0  0  0  0  0  0  0  0  0  0999 V3000
M  V30 BEGIN CTAB
M  V30 COUNTS 25 24 0 0 0
M  V30 BEGIN ATOM
M  V30 1 N 3.92491 1.13519 -0.384092 0
M  V30 2 C 3.68274 -0.285427 -0.388473 0
M  V30 3 C 2.23345 -0.617774 -0.637664 0
M  V30 4 O 1.39588 -0.0737554 0.334705 0
M  V30 5 C 0.0901114 -0.489506 -0.0662464 0
M  V30 6 C -0.905544 0.032315 0.900255 0
M  V30 7 C -2.2911 -0.389186 0.562745 0
M  V30 8 N -3.24292 0.145913 1.55211 0
M  V30 9 C -2.75362 0.0846182 -0.747767 0
M  V30 10 O -3.76547 1.01751 -0.844375 0
M  V30 11 O -2.22636 -0.360392 -1.78903 0
M  V30 12 H 3.22166 1.65558 -0.964867 0
M  V30 13 H 3.99465 1.54237 0.566916 0
M  V30 14 H 4.05211 -0.744234 0.532351 0
M  V30 15 H 4.26223 -0.713694 -1.23054 0
M  V30 16 H 2.12935 -1.72116 -0.554834 0
M  V30 17 H 1.90754 -0.226368 -1.60941 0
M  V30 18 H 0.0525854 -1.58232 -0.211193 0
M  V30 19 H 0.0103249 -0.0228193 -1.09231 0
M  V30 20 H -0.882776 1.154 0.884088 0
M  V30 21 H -0.682476 -0.349439 1.92793 0
M  V30 22 H -2.4081 -1.50795 0.647048 0
M  V30 23 H -3.20194 1.18011 1.56537 0
M  V30 24 H -4.20703 -0.150374 1.32255 0
M  V30 25 H -4.39021 1.2868 -0.114555 0
M  V30 END ATOM
M  V30 BEGIN BOND
M  V30 1 1 1 2
M  V30 2 1 2 3
M  V30 3 1 3 4
M  V30 4 1 4 5
M  V30 5 1 5 6
M  V30 6 1 6 7
M  V30 7 1 7 8
M  V30 8 1 7 9
M  V30 9 1 9 10
M  V30 10 2 9 11
M  V30 11 1 1 12
M  V30 12 1 1 13
M  V30 13 1 2 14
M  V30 14 1 2 15
M  V30 15 1 3 16
M  V30 16 1 3 17
M  V30 17 1 5 18
M  V30 18 1 5 19
M  V30 19 1 6 20
M  V30 20 1 6 21
M  V30 21 1 7 22
M  V30 22 1 8 23
M  V30 23 1 8 24
M  V30 24 1 10 25
M  V30 END BOND
M  V30 END CTAB
M  END
