
     RDKit          3D

  0  0  0  0  0  0  0  0  0  0999 V3000
M  V30 BEGIN CTAB
M  V30 COUNTS 28 28 0 0 0
M  V30 BEGIN ATOM
M  V30 1 C 2.65535 -0.331333 1.42086 0
M  V30 2 C 2.17929 0.82152 0.568366 0
M  V30 3 C 1.88688 0.365057 -0.83931 0
M  V30 4 C 0.818675 -0.696671 -0.891187 0
M  V30 5 C -0.468504 -0.241205 -0.3333 0
M  V30 6 N -0.998158 -0.921979 0.697033 0
M  V30 7 C -2.17355 -0.568799 1.26426 0
M  V30 8 N -2.62787 -1.36805 2.34662 0
M  V30 9 N -2.84041 0.487903 0.796226 0
M  V30 10 C -2.34178 1.19181 -0.231867 0
M  V30 11 N -1.16229 0.817044 -0.782313 0
M  V30 12 N -3.08355 2.29961 -0.69017 0
M  V30 13 C 0.577669 -1.05085 -2.35028 0
M  V30 14 H 3.02249 -1.1746 0.78485 0
M  V30 15 H 1.80255 -0.718458 2.00112 0
M  V30 16 H 3.51129 -0.04772 2.07069 0
M  V30 17 H 1.33937 1.34652 1.04041 0
M  V30 18 H 3.05554 1.5237 0.487608 0
M  V30 19 H 1.61793 1.20961 -1.50415 0
M  V30 20 H 2.82216 -0.07419 -1.24253 0
M  V30 21 H 1.18723 -1.57182 -0.364229 0
M  V30 22 H -2.93894 -2.35542 2.25016 0
M  V30 23 H -2.65 -0.938812 3.29008 0
M  V30 24 H -3.66598 2.2207 -1.53871 0
M  V30 25 H -3.05023 3.19691 -0.18176 0
M  V30 26 H 0.51716 -0.147664 -2.98888 0
M  V30 27 H -0.39349 -1.57817 -2.39774 0
M  V30 28 H 1.40115 -1.69465 -2.68186 0
M  V30 END ATOM
M  V30 BEGIN BOND
M  V30 1 1 1 2
M  V30 2 1 2 3
M  V30 3 1 3 4
M  V30 4 1 4 5
M  V30 5 2 5 6
M  V30 6 1 6 7
M  V30 7 1 7 8
M  V30 8 2 7 9
M  V30 9 1 9 10
M  V30 10 2 10 11
M  V30 11 1 10 12
M  V30 12 1 4 13
M  V30 13 1 11 5
M  V30 14 1 1 14
M  V30 15 1 1 15
M  V30 16 1 1 16
M  V30 17 1 2 17
M  V30 18 1 2 18
M  V30 19 1 3 19
M  V30 20 1 3 20
M  V30 21 1 4 21
M  V30 22 1 8 22
M  V30 23 1 8 23
M  V30 24 1 12 24
M  V30 25 1 12 25
M  V30 26 1 13 26
M  V30 27 1 13 27
M  V30 28 1 13 28
M  V30 END BOND
M  V30 END CTAB
M  END
