
     RDKit          3D

  0  0  0  0  0  0  0  0  0  0999 V3000
M  V30 BEGIN CTAB
M  V30 COUNTS 48 50 0 0 0
M  V30 BEGIN ATOM
M  V30 1 C 6.29309 -0.526348 1.84091 0
M  V30 2 N 5.54354 -1.00931 0.692983 0
M  V30 3 C 4.36889 -0.314574 0.276021 0
M  V30 4 C 3.62992 -0.731856 -0.797031 0
M  V30 5 C 2.50048 -0.0744616 -1.21149 0
M  V30 6 C 2.04379 1.05227 -0.564328 0
M  V30 7 C 2.7687 1.49622 0.520459 0
M  V30 8 C 3.9179 0.815192 0.931113 0
M  V30 9 C 0.861137 1.79613 -0.98283 0
M  V30 10 C -0.441082 1.21264 -0.658441 0
M  V30 11 C -1.01254 1.19592 0.594316 0
M  V30 12 N -0.322477 1.77202 1.69019 0
M  V30 13 N -2.24181 0.634052 0.798023 0
M  V30 14 C -2.9471 0.0766796 -0.198481 0
M  V30 15 N -2.3943 0.0892196 -1.4288 0
M  V30 16 C -1.19351 0.6258 -1.68713 0
M  V30 17 N -0.682136 0.613593 -3.0093 0
M  V30 18 N -4.22106 -0.493955 0.0515321 0
M  V30 19 C -5.03402 -1.13446 -0.960205 0
M  V30 20 C -6.4145 -1.35945 -0.355855 0
M  V30 21 O -6.89503 -0.245424 0.279373 0
M  V30 22 C -6.10346 0.28192 1.26771 0
M  V30 23 C -4.75776 -0.438748 1.39415 0
M  V30 24 C 5.94832 -2.17481 -0.0473387 0
M  V30 25 H 5.62916 -0.337637 2.69024 0
M  V30 26 H 6.8542 0.39038 1.54524 0
M  V30 27 H 7.0666 -1.26674 2.12965 0
M  V30 28 H 3.96871 -1.62515 -1.33128 0
M  V30 29 H 1.95706 -0.443604 -2.06123 0
M  V30 30 H 2.53158 2.36965 1.10964 0
M  V30 31 H 4.50967 1.14183 1.78349 0
M  V30 32 H 0.928225 1.93366 -2.10268 0
M  V30 33 H 0.938299 2.84379 -0.5879 0
M  V30 34 H -0.310561 2.80927 1.79311 0
M  V30 35 H 0.172948 1.2148 2.39765 0
M  V30 36 H -0.276005 -0.241254 -3.45743 0
M  V30 37 H -0.724658 1.51402 -3.54032 0
M  V30 38 H -5.11903 -0.468918 -1.8669 0
M  V30 39 H -4.6316 -2.12197 -1.19898 0
M  V30 40 H -7.12666 -1.61763 -1.16615 0
M  V30 41 H -6.34547 -2.24585 0.309815 0
M  V30 42 H -6.60461 0.375353 2.25572 0
M  V30 43 H -5.82694 1.32851 0.942492 0
M  V30 44 H -4.87287 -1.4614 1.77363 0
M  V30 45 H -4.14335 0.197068 2.06621 0
M  V30 46 H 6.23212 -1.88403 -1.09413 0
M  V30 47 H 5.13266 -2.90435 -0.152032 0
M  V30 48 H 6.84555 -2.65808 0.376177 0
M  V30 END ATOM
M  V30 BEGIN BOND
M  V30 1 1 1 2
M  V30 2 1 2 3
M  V30 3 2 3 4
M  V30 4 1 4 5
M  V30 5 2 5 6
M  V30 6 1 6 7
M  V30 7 2 7 8
M  V30 8 1 6 9
M  V30 9 1 9 10
M  V30 10 2 10 11
M  V30 11 1 11 12
M  V30 12 1 11 13
M  V30 13 2 13 14
M  V30 14 1 14 15
M  V30 15 2 15 16
M  V30 16 1 16 17
M  V30 17 1 14 18
M  V30 18 1 18 19
M  V30 19 1 19 20
M  V30 20 1 20 21
M  V30 21 1 21 22
M  V30 22 1 22 23
M  V30 23 1 2 24
M  V30 24 1 8 3
M  V30 25 1 16 10
M  V30 26 1 23 18
M  V30 27 1 1 25
M  V30 28 1 1 26
M  V30 29 1 1 27
M  V30 30 1 4 28
M  V30 31 1 5 29
M  V30 32 1 7 30
M  V30 33 1 8 31
M  V30 34 1 9 32
M  V30 35 1 9 33
M  V30 36 1 12 34
M  V30 37 1 12 35
M  V30 38 1 17 36
M  V30 39 1 17 37
M  V30 40 1 19 38
M  V30 41 1 19 39
M  V30 42 1 20 40
M  V30 43 1 20 41
M  V30 44 1 22 42
M  V30 45 1 22 43
M  V30 46 1 23 44
M  V30 47 1 23 45
M  V30 48 1 24 46
M  V30 49 1 24 47
M  V30 50 1 24 48
M  V30 END BOND
M  V30 END CTAB
M  END
