
     RDKit          3D

  0  0  0  0  0  0  0  0  0  0999 V3000
M  V30 BEGIN CTAB
M  V30 COUNTS 31 33 0 0 0
M  V30 BEGIN ATOM
M  V30 1 N 4.87533 1.10336 -0.439714 0
M  V30 2 C 3.81631 0.278638 0.0322806 0
M  V30 3 C 4.01249 -0.874094 0.753391 0
M  V30 4 N 3.0091 -1.64885 1.19678 0
M  V30 5 C 1.73913 -1.3416 0.96026 0
M  V30 6 C 1.47702 -0.195632 0.240969 0
M  V30 7 C 2.50439 0.618995 -0.22627 0
M  V30 8 N 2.20849 1.79439 -0.96589 0
M  V30 9 C 0.175914 0.206448 -0.0548053 0
M  V30 10 C -0.895964 -0.546746 0.373329 0
M  V30 11 C -0.609638 -1.70075 1.09845 0
M  V30 12 C 0.671891 -2.10423 1.3943 0
M  V30 13 C -2.28502 -0.186102 0.100494 0
M  V30 14 C -3.29736 -0.506524 0.977178 0
M  V30 15 C -4.59368 -0.16063 0.705134 0
M  V30 16 C -4.93239 0.506072 -0.428763 0
M  V30 17 C -3.95006 0.84853 -1.33752 0
M  V30 18 C -2.64914 0.493522 -1.04999 0
M  V30 19 H 5.41996 1.72359 0.205528 0
M  V30 20 H 5.15493 1.12633 -1.44721 0
M  V30 21 H 5.06039 -1.14472 0.959226 0
M  V30 22 H 1.81245 2.65022 -0.508445 0
M  V30 23 H 2.39571 1.78612 -1.98226 0
M  V30 24 H -0.0317701 1.09793 -0.614662 0
M  V30 25 H -1.46985 -2.28032 1.42651 0
M  V30 26 H 0.880805 -3.00697 1.96091 0
M  V30 27 H -3.05524 -1.03862 1.89036 0
M  V30 28 H -5.36905 -0.42473 1.41114 0
M  V30 29 H -5.96275 0.789916 -0.661283 0
M  V30 30 H -4.23866 1.38008 -2.23615 0
M  V30 31 H -1.87374 0.756398 -1.7536 0
M  V30 END ATOM
M  V30 BEGIN BOND
M  V30 1 1 1 2
M  V30 2 2 2 3
M  V30 3 1 3 4
M  V30 4 2 4 5
M  V30 5 1 5 6
M  V30 6 2 6 7
M  V30 7 1 7 8
M  V30 8 1 6 9
M  V30 9 2 9 10
M  V30 10 1 10 11
M  V30 11 2 11 12
M  V30 12 1 10 13
M  V30 13 2 13 14
M  V30 14 1 14 15
M  V30 15 2 15 16
M  V30 16 1 16 17
M  V30 17 2 17 18
M  V30 18 1 7 2
M  V30 19 1 18 13
M  V30 20 1 12 5
M  V30 21 1 1 19
M  V30 22 1 1 20
M  V30 23 1 3 21
M  V30 24 1 8 22
M  V30 25 1 8 23
M  V30 26 1 9 24
M  V30 27 1 11 25
M  V30 28 1 12 26
M  V30 29 1 14 27
M  V30 30 1 15 28
M  V30 31 1 16 29
M  V30 32 1 17 30
M  V30 33 1 18 31
M  V30 END BOND
M  V30 END CTAB
M  END
