
     RDKit          3D

  0  0  0  0  0  0  0  0  0  0999 V3000
M  V30 BEGIN CTAB
M  V30 COUNTS 28 29 0 0 0
M  V30 BEGIN ATOM
M  V30 1 C 4.42293 -1.45637 -0.292361 0
M  V30 2 O 3.01492 -1.49914 -0.13425 0
M  V30 3 C 2.20404 -0.385657 -0.191659 0
M  V30 4 O 2.73875 0.731259 -0.395283 0
M  V30 5 C 0.760702 -0.43974 -0.0282546 0
M  V30 6 C 0.110787 -1.64377 0.199421 0
M  V30 7 C -1.24872 -1.73081 0.358051 0
M  V30 8 N -1.91936 -2.95044 0.589987 0
M  V30 9 C -1.98431 -0.568186 0.285866 0
M  V30 10 C -1.37308 0.666249 0.0584078 0
M  V30 11 C 0.00599496 0.701626 -0.0955961 0
M  V30 12 O 0.634708 1.93314 -0.32458 0
M  V30 13 C -0.0918839 3.11962 -0.0224759 0
M  V30 14 C -1.49537 2.97553 -0.614039 0
M  V30 15 O -2.09978 1.84357 -0.01666 0
M  V30 16 N -3.37897 -0.587518 0.439461 0
M  V30 17 H 4.81728 -2.3076 -0.85389 0
M  V30 18 H 4.87757 -1.39685 0.71808 0
M  V30 19 H 4.67768 -0.480814 -0.791237 0
M  V30 20 H 0.736944 -2.52422 0.246611 0
M  V30 21 H -1.85392 -3.39035 1.5193 0
M  V30 22 H -2.47339 -3.41045 -0.15092 0
M  V30 23 H 0.34672 4.00793 -0.478602 0
M  V30 24 H -0.214297 3.24835 1.07216 0
M  V30 25 H -2.07406 3.87949 -0.370505 0
M  V30 26 H -1.36137 2.84627 -1.70636 0
M  V30 27 H -3.81998 -1.09948 1.25057 0
M  V30 28 H -3.96053 -0.081642 -0.271242 0
M  V30 END ATOM
M  V30 BEGIN BOND
M  V30 1 1 1 2
M  V30 2 1 2 3
M  V30 3 2 3 4
M  V30 4 1 3 5
M  V30 5 2 5 6
M  V30 6 1 6 7
M  V30 7 1 7 8
M  V30 8 2 7 9
M  V30 9 1 9 10
M  V30 10 2 10 11
M  V30 11 1 11 12
M  V30 12 1 12 13
M  V30 13 1 13 14
M  V30 14 1 14 15
M  V30 15 1 9 16
M  V30 16 1 11 5
M  V30 17 1 15 10
M  V30 18 1 1 17
M  V30 19 1 1 18
M  V30 20 1 1 19
M  V30 21 1 6 20
M  V30 22 1 8 21
M  V30 23 1 8 22
M  V30 24 1 13 23
M  V30 25 1 13 24
M  V30 26 1 14 25
M  V30 27 1 14 26
M  V30 28 1 16 27
M  V30 29 1 16 28
M  V30 END BOND
M  V30 END CTAB
M  END
