
     RDKit          3D

  0  0  0  0  0  0  0  0  0  0999 V3000
M  V30 BEGIN CTAB
M  V30 COUNTS 30 30 0 0 0
M  V30 BEGIN ATOM
M  V30 1 N 4.41429 0.472694 -0.967488 0
M  V30 2 C 3.09977 0.52084 -0.436884 0
M  V30 3 N 2.75431 1.26159 0.609403 0
M  V30 4 N 1.46165 1.05304 0.817781 0
M  V30 5 C 0.962625 0.199764 -0.0621011 0
M  V30 6 N 1.99991 -0.138406 -0.859025 0
M  V30 7 C -0.380791 -0.385235 -0.279158 0
M  V30 8 C -1.39831 0.0334816 0.723293 0
M  V30 9 N -1.05827 -0.265936 2.075 0
M  V30 10 C -1.81967 1.47971 0.6193 0
M  V30 11 C -2.65693 -0.843845 0.458348 0
M  V30 12 C -0.787518 0.135132 -1.68642 0
M  V30 13 C -0.280753 -1.87694 -0.441192 0
M  V30 14 H 4.75258 1.27238 -1.52979 0
M  V30 15 H 5.03729 -0.331256 -0.804606 0
M  V30 16 H 3.33783 1.90503 1.20148 0
M  V30 17 H -0.868788 0.500612 2.71041 0
M  V30 18 H -0.799556 -1.21362 2.31039 0
M  V30 19 H -2.25025 1.6973 -0.388887 0
M  V30 20 H -0.893168 2.09873 0.794802 0
M  V30 21 H -2.55937 1.70371 1.42042 0
M  V30 22 H -2.38026 -1.89009 0.770814 0
M  V30 23 H -3.46858 -0.548367 1.17792 0
M  V30 24 H -3.01428 -0.767911 -0.554631 0
M  V30 25 H -0.0453813 -0.370703 -2.35253 0
M  V30 26 H -0.648539 1.24215 -1.7036 0
M  V30 27 H -1.77511 -0.171133 -1.98498 0
M  V30 28 H 0.494751 -2.06956 -1.22923 0
M  V30 29 H 0.0160153 -2.41128 0.463265 0
M  V30 30 H -1.2455 -2.29188 -0.87211 0
M  V30 END ATOM
M  V30 BEGIN BOND
M  V30 1 1 1 2
M  V30 2 1 2 3
M  V30 3 1 3 4
M  V30 4 2 4 5
M  V30 5 1 5 6
M  V30 6 1 5 7
M  V30 7 1 7 8
M  V30 8 1 8 9
M  V30 9 1 8 10
M  V30 10 1 8 11
M  V30 11 1 7 12
M  V30 12 1 7 13
M  V30 13 2 6 2
M  V30 14 1 1 14
M  V30 15 1 1 15
M  V30 16 1 3 16
M  V30 17 1 9 17
M  V30 18 1 9 18
M  V30 19 1 10 19
M  V30 20 1 10 20
M  V30 21 1 10 21
M  V30 22 1 11 22
M  V30 23 1 11 23
M  V30 24 1 11 24
M  V30 25 1 12 25
M  V30 26 1 12 26
M  V30 27 1 12 27
M  V30 28 1 13 28
M  V30 29 1 13 29
M  V30 30 1 13 30
M  V30 END BOND
M  V30 END CTAB
M  END
