
     RDKit          3D

  0  0  0  0  0  0  0  0  0  0999 V3000
M  V30 BEGIN CTAB
M  V30 COUNTS 38 40 0 0 0
M  V30 BEGIN ATOM
M  V30 1 O -0.794191 1.36564 0.105033 0
M  V30 2 C -0.445508 1.06055 1.24298 0
M  V30 3 N 0.747538 0.444146 1.57446 0
M  V30 4 C 1.74021 0.0664943 0.653352 0
M  V30 5 C 1.53681 -0.0968946 -0.694752 0
M  V30 6 C 2.57869 -0.453372 -1.55938 0
M  V30 7 C 3.84118 -0.652817 -1.0882 0
M  V30 8 C 4.08655 -0.496234 0.277116 0
M  V30 9 C 3.06393 -0.149506 1.10351 0
M  V30 10 O 5.37689 -0.705033 0.723067 0
M  V30 11 C 6.44401 -0.295349 -0.0858097 0
M  V30 12 C 6.20964 -0.598761 -1.53241 0
M  V30 13 O 4.91324 -1.00527 -1.87665 0
M  V30 14 C -1.41518 1.39677 2.34702 0
M  V30 15 S -2.89359 2.17649 1.7108 0
M  V30 16 C -3.86406 1.0751 0.694946 0
M  V30 17 N -5.00346 1.53494 0.154322 0
M  V30 18 C -5.81606 0.79344 -0.629839 0
M  V30 19 N -7.0127 1.29755 -1.18951 0
M  V30 20 C -5.39667 -0.512145 -0.854523 0
M  V30 21 C -4.22837 -0.975468 -0.297183 0
M  V30 22 N -3.46722 -0.185588 0.473016 0
M  V30 23 N -3.80029 -2.31049 -0.528318 0
M  V30 24 H 0.968552 0.214031 2.60553 0
M  V30 25 H 0.545342 0.0320444 -1.13672 0
M  V30 26 H 2.34566 -0.564156 -2.60996 0
M  V30 27 H 3.20931 -0.0138066 2.18318 0
M  V30 28 H 7.36062 -0.826644 0.251468 0
M  V30 29 H 6.58516 0.814397 0.0663336 0
M  V30 30 H 6.88878 -1.45032 -1.82204 0
M  V30 31 H 6.49924 0.290659 -2.16036 0
M  V30 32 H -1.69586 0.476207 2.90243 0
M  V30 33 H -0.889511 2.06539 3.0311 0
M  V30 34 H -7.93027 0.894372 -0.934308 0
M  V30 35 H -6.98049 2.07992 -1.86405 0
M  V30 36 H -6.03542 -1.12061 -1.48066 0
M  V30 37 H -3.8921 -2.75761 -1.47857 0
M  V30 38 H -3.3804 -2.90807 0.216168 0
M  V30 END ATOM
M  V30 BEGIN BOND
M  V30 1 2 1 2
M  V30 2 1 2 3
M  V30 3 1 3 4
M  V30 4 2 4 5
M  V30 5 1 5 6
M  V30 6 2 6 7
M  V30 7 1 7 8
M  V30 8 2 8 9
M  V30 9 1 8 10
M  V30 10 1 10 11
M  V30 11 1 11 12
M  V30 12 1 12 13
M  V30 13 1 2 14
M  V30 14 1 14 15
M  V30 15 1 15 16
M  V30 16 2 16 17
M  V30 17 1 17 18
M  V30 18 1 18 19
M  V30 19 2 18 20
M  V30 20 1 20 21
M  V30 21 2 21 22
M  V30 22 1 21 23
M  V30 23 1 9 4
M  V30 24 1 22 16
M  V30 25 1 13 7
M  V30 26 1 3 24
M  V30 27 1 5 25
M  V30 28 1 6 26
M  V30 29 1 9 27
M  V30 30 1 11 28
M  V30 31 1 11 29
M  V30 32 1 12 30
M  V30 33 1 12 31
M  V30 34 1 14 32
M  V30 35 1 14 33
M  V30 36 1 19 34
M  V30 37 1 19 35
M  V30 38 1 20 36
M  V30 39 1 23 37
M  V30 40 1 23 38
M  V30 END BOND
M  V30 END CTAB
M  END
