
     RDKit          3D

  0  0  0  0  0  0  0  0  0  0999 V3000
M  V30 BEGIN CTAB
M  V30 COUNTS 80 80 0 0 0
M  V30 BEGIN ATOM
M  V30 1 C -5.40144 2.57458 -0.11194 0
M  V30 2 C -6.28581 1.55229 0.570795 0
M  V30 3 C -7.72041 1.78416 0.172136 0
M  V30 4 Si -5.73607 -0.192669 0.104344 0 VAL=4
M  V30 5 C -3.9112 -0.126887 -0.0200209 0
M  V30 6 C -2.70525 -0.0827036 -0.0810615 0
M  V30 7 C -1.26649 -0.0422819 -0.138032 0
M  V30 8 C -0.551076 -0.788902 -1.05567 0
M  V30 9 C 0.828055 -0.732879 -1.09014 0
M  V30 10 C 1.51595 0.0787416 -0.19832 0
M  V30 11 C 2.95026 0.109717 -0.265855 0
M  V30 12 C 4.15596 0.115983 -0.316552 0
M  V30 13 Si 5.98366 0.0999811 -0.374911 0 VAL=4
M  V30 14 C 6.5419 1.76194 -0.974727 0
M  V30 15 C 5.60931 2.84792 -0.483597 0
M  V30 16 C 7.97398 2.05823 -0.66108 0
M  V30 17 C 6.70488 -0.340978 1.28229 0
M  V30 18 C 6.57348 0.75759 2.28604 0
M  V30 19 C 5.93453 -1.54555 1.80124 0
M  V30 20 C 6.48032 -1.20349 -1.60893 0
M  V30 21 C 5.43045 -2.27675 -1.60931 0
M  V30 22 C 7.81543 -1.78295 -1.14561 0
M  V30 23 C 0.787905 0.816381 0.709803 0
M  V30 24 N 1.50013 1.64342 1.61775 0
M  V30 25 C -0.572973 0.760947 0.743655 0
M  V30 26 N -1.24058 1.56488 1.72428 0
M  V30 27 C -6.27013 -1.42698 1.37849 0
M  V30 28 C -6.72034 -2.73036 0.785898 0
M  V30 29 C -7.3107 -0.913215 2.31526 0
M  V30 30 C -6.3673 -0.615854 -1.59405 0
M  V30 31 C -5.45392 -1.64548 -2.22 0
M  V30 32 C -7.79996 -1.02501 -1.60764 0
M  V30 33 H -5.32442 2.39818 -1.20424 0
M  V30 34 H -5.83293 3.56918 0.124015 0
M  V30 35 H -4.37786 2.57636 0.326636 0
M  V30 36 H -6.17651 1.7101 1.66334 0
M  V30 37 H -7.7964 1.56842 -0.923216 0
M  V30 38 H -7.97686 2.81357 0.419771 0
M  V30 39 H -8.34475 1.10781 0.781734 0
M  V30 40 H -1.11515 -1.42381 -1.75145 0
M  V30 41 H 1.39669 -1.30665 -1.79673 0
M  V30 42 H 6.43723 1.75504 -2.09686 0
M  V30 43 H 4.58934 2.42978 -0.348974 0
M  V30 44 H 5.94109 3.29816 0.467893 0
M  V30 45 H 5.49462 3.66783 -1.25021 0
M  V30 46 H 8.02529 3.15553 -0.398641 0
M  V30 47 H 8.61732 1.95133 -1.55597 0
M  V30 48 H 8.34736 1.45778 0.198832 0
M  V30 49 H 7.77158 -0.58998 1.1343 0
M  V30 50 H 7.52911 1.30481 2.44995 0
M  V30 51 H 5.75225 1.467 2.00788 0
M  V30 52 H 6.29158 0.339151 3.27704 0
M  V30 53 H 6.57561 -2.43819 1.80001 0
M  V30 54 H 4.99351 -1.70226 1.23701 0
M  V30 55 H 5.6133 -1.38943 2.87189 0
M  V30 56 H 6.58887 -0.706134 -2.59311 0
M  V30 57 H 5.44756 -2.88542 -2.53486 0
M  V30 58 H 4.44829 -1.79011 -1.44786 0
M  V30 59 H 5.61883 -2.92654 -0.731952 0
M  V30 60 H 8.44362 -0.965946 -0.770363 0
M  V30 61 H 7.60748 -2.52016 -0.366561 0
M  V30 62 H 8.26701 -2.31705 -2.01393 0
M  V30 63 H 1.95621 1.30048 2.47424 0
M  V30 64 H 1.58028 2.68406 1.42115 0
M  V30 65 H -1.95647 1.09054 2.3163 0
M  V30 66 H -1.03994 2.567 1.85727 0
M  V30 67 H -5.35746 -1.66306 2.00108 0
M  V30 68 H -7.80456 -2.75065 0.537987 0
M  V30 69 H -6.08894 -3.08819 -0.0448461 0
M  V30 70 H -6.60371 -3.50267 1.60219 0
M  V30 71 H -7.06781 0.133464 2.60224 0
M  V30 72 H -7.21541 -1.49928 3.27636 0
M  V30 73 H -8.3465 -1.01971 1.92726 0
M  V30 74 H -6.27141 0.315479 -2.21235 0
M  V30 75 H -5.95135 -2.60685 -2.4032 0
M  V30 76 H -5.05208 -1.30402 -3.20122 0
M  V30 77 H -4.56703 -1.81366 -1.57276 0
M  V30 78 H -7.82174 -2.13873 -1.79522 0
M  V30 79 H -8.36742 -0.775903 -0.705216 0
M  V30 80 H -8.34987 -0.590484 -2.47848 0
M  V30 END ATOM
M  V30 BEGIN BOND
M  V30 1 1 1 2
M  V30 2 1 2 3
M  V30 3 1 2 4
M  V30 4 1 4 5
M  V30 5 3 5 6
M  V30 6 1 6 7
M  V30 7 2 7 8
M  V30 8 1 8 9
M  V30 9 2 9 10
M  V30 10 1 10 11
M  V30 11 3 11 12
M  V30 12 1 12 13
M  V30 13 1 13 14
M  V30 14 1 14 15
M  V30 15 1 14 16
M  V30 16 1 13 17
M  V30 17 1 17 18
M  V30 18 1 17 19
M  V30 19 1 13 20
M  V30 20 1 20 21
M  V30 21 1 20 22
M  V30 22 1 10 23
M  V30 23 1 23 24
M  V30 24 2 23 25
M  V30 25 1 25 26
M  V30 26 1 4 27
M  V30 27 1 27 28
M  V30 28 1 27 29
M  V30 29 1 4 30
M  V30 30 1 30 31
M  V30 31 1 30 32
M  V30 32 1 25 7
M  V30 33 1 1 33
M  V30 34 1 1 34
M  V30 35 1 1 35
M  V30 36 1 2 36
M  V30 37 1 3 37
M  V30 38 1 3 38
M  V30 39 1 3 39
M  V30 40 1 8 40
M  V30 41 1 9 41
M  V30 42 1 14 42
M  V30 43 1 15 43
M  V30 44 1 15 44
M  V30 45 1 15 45
M  V30 46 1 16 46
M  V30 47 1 16 47
M  V30 48 1 16 48
M  V30 49 1 17 49
M  V30 50 1 18 50
M  V30 51 1 18 51
M  V30 52 1 18 52
M  V30 53 1 19 53
M  V30 54 1 19 54
M  V30 55 1 19 55
M  V30 56 1 20 56
M  V30 57 1 21 57
M  V30 58 1 21 58
M  V30 59 1 21 59
M  V30 60 1 22 60
M  V30 61 1 22 61
M  V30 62 1 22 62
M  V30 63 1 24 63
M  V30 64 1 24 64
M  V30 65 1 26 65
M  V30 66 1 26 66
M  V30 67 1 27 67
M  V30 68 1 28 68
M  V30 69 1 28 69
M  V30 70 1 28 70
M  V30 71 1 29 71
M  V30 72 1 29 72
M  V30 73 1 29 73
M  V30 74 1 30 74
M  V30 75 1 31 75
M  V30 76 1 31 76
M  V30 77 1 31 77
M  V30 78 1 32 78
M  V30 79 1 32 79
M  V30 80 1 32 80
M  V30 END BOND
M  V30 END CTAB
M  END
