
     RDKit          3D

  0  0  0  0  0  0  0  0  0  0999 V3000
M  V30 BEGIN CTAB
M  V30 COUNTS 39 41 0 0 0
M  V30 BEGIN ATOM
M  V30 1 N 4.43647 3.17287 0.307209 0
M  V30 2 N 3.37001 2.3236 0.109706 0
M  V30 3 C 3.43991 0.912638 0.404451 0
M  V30 4 O 4.52819 0.492032 0.851305 0
M  V30 5 C 2.24682 0.125344 0.157583 0
M  V30 6 C 0.978629 0.377152 0.717961 0
M  V30 7 N 0.102196 -0.526499 0.273435 0
M  V30 8 C -1.30032 -0.6622 0.572341 0 CFG=2
M  V30 9 O -2.03599 -0.319019 -0.584831 0
M  V30 10 C -3.33903 -0.366474 -0.073245 0 CFG=2
M  V30 11 C -4.29856 0.108323 -1.12318 0
M  V30 12 O -3.96971 1.41525 -1.45491 0
M  V30 13 C -3.23026 0.582105 1.08957 0 CFG=1
M  V30 14 O -4.15041 0.233812 2.04872 0
M  V30 15 C -1.78608 0.378134 1.54832 0 CFG=1
M  V30 16 O -1.80549 -0.201718 2.82472 0
M  V30 17 C 0.735964 -1.39019 -0.574862 0
M  V30 18 C 2.06895 -0.974878 -0.640058 0
M  V30 19 C 2.93 -1.69382 -1.44059 0
M  V30 20 N 4.28239 -1.28478 -1.51903 0
M  V30 21 N 2.47775 -2.75997 -2.12781 0
M  V30 22 C 1.19838 -3.13866 -2.05051 0
M  V30 23 N 0.361395 -2.44242 -1.27549 0
M  V30 24 H 4.56068 3.32117 1.32026 0
M  V30 25 H 4.22311 4.09045 -0.103316 0
M  V30 26 H 2.47333 2.70534 -0.258136 0
M  V30 27 H 0.809944 1.1779 1.38899 0
M  V30 28 H -1.53618 -1.67819 0.918037 0
M  V30 29 H -3.51783 -1.41723 0.239469 0
M  V30 30 H -4.09405 -0.524036 -2.02619 0
M  V30 31 H -5.35198 -0.0255433 -0.84517 0
M  V30 32 H -4.54205 2.07186 -0.957694 0
M  V30 33 H -3.39376 1.61342 0.763844 0
M  V30 34 H -3.8537 0.403764 2.97057 0
M  V30 35 H -1.21462 1.30553 1.50864 0
M  V30 36 H -2.18409 -1.10404 2.74903 0
M  V30 37 H 5.00346 -1.82353 -1.01582 0
M  V30 38 H 4.5372 -0.459645 -2.07266 0
M  V30 39 H 0.839324 -4.01784 -2.62064 0
M  V30 END ATOM
M  V30 BEGIN BOND
M  V30 1 1 1 2
M  V30 2 1 2 3
M  V30 3 2 3 4
M  V30 4 1 3 5
M  V30 5 2 5 6
M  V30 6 1 6 7
M  V30 7 1 7 8
M  V30 8 1 8 9
M  V30 9 1 9 10
M  V30 10 1 10 11
M  V30 11 1 11 12
M  V30 12 1 10 13
M  V30 13 1 13 14
M  V30 14 1 13 15
M  V30 15 1 15 16
M  V30 16 1 7 17
M  V30 17 2 17 18
M  V30 18 1 18 19
M  V30 19 1 19 20
M  V30 20 2 19 21
M  V30 21 1 21 22
M  V30 22 2 22 23
M  V30 23 1 18 5
M  V30 24 1 15 8
M  V30 25 1 23 17
M  V30 26 1 1 24
M  V30 27 1 1 25
M  V30 28 1 2 26
M  V30 29 1 6 27
M  V30 30 1 8 28 CFG=1
M  V30 31 1 10 29 CFG=1
M  V30 32 1 11 30
M  V30 33 1 11 31
M  V30 34 1 12 32
M  V30 35 1 13 33 CFG=3
M  V30 36 1 14 34
M  V30 37 1 15 35 CFG=1
M  V30 38 1 16 36
M  V30 39 1 20 37
M  V30 40 1 20 38
M  V30 41 1 22 39
M  V30 END BOND
M  V30 END CTAB
M  END
