
     RDKit          3D

  0  0  0  0  0  0  0  0  0  0999 V3000
M  V30 BEGIN CTAB
M  V30 COUNTS 25 25 0 0 0
M  V30 BEGIN ATOM
M  V30 1 N 2.70628 0.667298 -1.19439 0
M  V30 2 C 2.15558 -0.501326 -0.539461 0
M  V30 3 C 1.71342 -0.166814 0.886905 0
M  V30 4 C 0.64409 0.918573 0.874203 0
M  V30 5 C -0.559496 0.475623 0.119121 0
M  V30 6 C -1.44592 -0.39487 0.763089 0
M  V30 7 N -1.22452 -0.828288 2.09279 0
M  V30 8 C -2.56928 -0.832853 0.087673 0
M  V30 9 C -2.84204 -0.445534 -1.18401 0
M  V30 10 C -1.96527 0.415844 -1.8226 0
M  V30 11 C -0.840039 0.86697 -1.17232 0
M  V30 12 H 2.75677 1.49827 -0.560786 0
M  V30 13 H 3.64206 0.484307 -1.63394 0
M  V30 14 H 2.95525 -1.27461 -0.437716 0
M  V30 15 H 1.33839 -0.88773 -1.15895 0
M  V30 16 H 2.59131 0.124947 1.4603 0
M  V30 17 H 1.24692 -1.063 1.34035 0
M  V30 18 H 0.312182 1.02006 1.94499 0
M  V30 19 H 1.03201 1.89186 0.573739 0
M  V30 20 H -0.949102 -1.79105 2.35502 0
M  V30 21 H -1.34765 -0.132246 2.84959 0
M  V30 22 H -3.26347 -1.51365 0.592991 0
M  V30 23 H -3.71787 -0.78157 -1.72359 0
M  V30 24 H -2.20899 0.709332 -2.84274 0
M  V30 25 H -0.160605 1.54046 -1.67025 0
M  V30 END ATOM
M  V30 BEGIN BOND
M  V30 1 1 1 2
M  V30 2 1 2 3
M  V30 3 1 3 4
M  V30 4 1 4 5
M  V30 5 2 5 6
M  V30 6 1 6 7
M  V30 7 1 6 8
M  V30 8 2 8 9
M  V30 9 1 9 10
M  V30 10 2 10 11
M  V30 11 1 11 5
M  V30 12 1 1 12
M  V30 13 1 1 13
M  V30 14 1 2 14
M  V30 15 1 2 15
M  V30 16 1 3 16
M  V30 17 1 3 17
M  V30 18 1 4 18
M  V30 19 1 4 19
M  V30 20 1 7 20
M  V30 21 1 7 21
M  V30 22 1 8 22
M  V30 23 1 9 23
M  V30 24 1 10 24
M  V30 25 1 11 25
M  V30 END BOND
M  V30 END CTAB
M  END
