
     RDKit          3D

  0  0  0  0  0  0  0  0  0  0999 V3000
M  V30 BEGIN CTAB
M  V30 COUNTS 81 83 0 0 0
M  V30 BEGIN ATOM
M  V30 1 N 5.18478 -4.02449 -1.61197 0
M  V30 2 C 5.45497 -2.66198 -1.83888 0
M  V30 3 N 6.04048 -2.33037 -2.9392 0
M  V30 4 N 5.06848 -1.71878 -0.848587 0
M  V30 5 C 5.85469 -1.44453 0.325688 0
M  V30 6 C 5.2193 -0.415061 1.21695 0
M  V30 7 C 5.06429 0.90148 0.47039 0
M  V30 8 C 4.4156 1.93894 1.37732 0 CFG=2
M  V30 9 N 3.11346 1.49426 1.80023 0
M  V30 10 C 2.00476 1.25788 0.967297 0
M  V30 11 O 2.07751 1.43081 -0.267474 0
M  V30 12 C 0.715325 0.793811 1.53925 0
M  V30 13 N -0.284287 0.625731 0.496216 0
M  V30 14 C -1.11649 1.72759 0.167326 0
M  V30 15 C -2.54581 1.22008 -0.123091 0
M  V30 16 N -2.52379 0.0996309 -0.970035 0
M  V30 17 C -1.81559 -1.03674 -0.543707 0 CFG=2
M  V30 18 C -2.32573 -1.70694 0.7089 0
M  V30 19 C -3.72061 -2.20059 0.570159 0
M  V30 20 C -3.92705 -3.25012 -0.466135 0
M  V30 21 N -3.10057 -4.41426 -0.112688 0
M  V30 22 C -3.47837 -5.14047 1.04775 0
M  V30 23 N -4.82149 -5.31929 1.46488 0
M  V30 24 N -2.53888 -5.65674 1.74587 0
M  V30 25 C -0.390155 -0.613465 -0.15831 0
M  V30 26 O 0.592508 -1.34823 -0.424203 0
M  V30 27 S -3.43565 0.143444 -2.34015 0
M  V30 28 O -3.02627 1.41869 -3.14699 0
M  V30 29 O -3.10417 -0.978125 -3.31611 0
M  V30 30 C -5.17549 0.260762 -2.20434 0
M  V30 31 C -5.65128 1.44331 -1.49449 0
M  V30 32 C -6.00121 1.43104 -0.15613 0
M  V30 33 C -6.4441 2.59109 0.43594 0
M  V30 34 C -6.55192 3.76559 -0.258274 0
M  V30 35 C -6.19721 3.7638 -1.60212 0
M  V30 36 C -5.75375 2.62122 -2.21141 0
M  V30 37 C 4.39211 3.24943 0.721334 0
M  V30 38 O 3.32179 3.89255 0.468938 0
M  V30 39 C 5.65474 3.90194 0.315036 0
M  V30 40 N 6.91373 3.52701 0.436386 0
M  V30 41 C 7.86993 4.27039 0.00263084 0
M  V30 42 C 7.53746 5.4635 -0.589078 0
M  V30 43 S 5.83222 5.43502 -0.479482 0
M  V30 44 H 5.13583 -4.38643 -0.650083 0
M  V30 45 H 5.03633 -4.65931 -2.40764 0
M  V30 46 H 6.23138 -1.31322 -3.08734 0
M  V30 47 H 4.17162 -1.19673 -0.969218 0
M  V30 48 H 6.90165 -1.12988 0.0776327 0
M  V30 49 H 5.97008 -2.39239 0.905504 0
M  V30 50 H 5.88211 -0.215758 2.08006 0
M  V30 51 H 4.24862 -0.77838 1.6027 0
M  V30 52 H 6.08348 1.20422 0.186328 0
M  V30 53 H 4.4127 0.727145 -0.385448 0
M  V30 54 H 5.11324 2.01647 2.25506 0
M  V30 55 H 2.98353 1.33046 2.84203 0
M  V30 56 H 0.910009 -0.125664 2.11383 0
M  V30 57 H 0.302217 1.52439 2.2671 0
M  V30 58 H -1.19799 2.48178 0.975862 0
M  V30 59 H -0.800923 2.21197 -0.801711 0
M  V30 60 H -3.01938 1.00828 0.850229 0
M  V30 61 H -3.09564 2.06228 -0.62724 0
M  V30 62 H -1.67269 -1.74692 -1.37673 0
M  V30 63 H -1.69023 -2.60113 0.961205 0
M  V30 64 H -2.2412 -1.0507 1.59637 0
M  V30 65 H -4.40786 -1.33214 0.356307 0
M  V30 66 H -4.0136 -2.65703 1.54995 0
M  V30 67 H -3.68449 -3.00351 -1.48764 0
M  V30 68 H -5.00463 -3.58082 -0.473195 0
M  V30 69 H -2.28903 -4.67568 -0.691146 0
M  V30 70 H -5.09257 -5.19594 2.45863 0
M  V30 71 H -5.53651 -5.57656 0.757378 0
M  V30 72 H -2.66338 -6.20728 2.60877 0
M  V30 73 H -5.6234 0.213845 -3.24813 0
M  V30 74 H -5.6275 -0.633261 -1.69692 0
M  V30 75 H -5.91765 0.507431 0.384556 0
M  V30 76 H -6.70907 2.53788 1.49299 0
M  V30 77 H -6.9017 4.67931 0.207001 0
M  V30 78 H -6.27705 4.69059 -2.17442 0
M  V30 79 H -5.48699 2.65537 -3.25246 0
M  V30 80 H 8.94138 3.98729 0.0862522 0
M  V30 81 H 8.23107 6.21122 -1.01051 0
M  V30 END ATOM
M  V30 BEGIN BOND
M  V30 1 1 1 2
M  V30 2 2 2 3 CFG=2
M  V30 3 1 2 4
M  V30 4 1 4 5
M  V30 5 1 5 6
M  V30 6 1 6 7
M  V30 7 1 7 8
M  V30 8 1 8 9
M  V30 9 1 9 10
M  V30 10 2 10 11
M  V30 11 1 10 12
M  V30 12 1 12 13
M  V30 13 1 13 14
M  V30 14 1 14 15
M  V30 15 1 15 16
M  V30 16 1 16 17
M  V30 17 1 17 18
M  V30 18 1 18 19
M  V30 19 1 19 20
M  V30 20 1 20 21
M  V30 21 1 21 22
M  V30 22 1 22 23
M  V30 23 2 22 24 CFG=2
M  V30 24 1 17 25
M  V30 25 2 25 26
M  V30 26 1 16 27
M  V30 27 2 27 28
M  V30 28 2 27 29
M  V30 29 1 27 30
M  V30 30 1 30 31
M  V30 31 2 31 32
M  V30 32 1 32 33
M  V30 33 2 33 34
M  V30 34 1 34 35
M  V30 35 2 35 36
M  V30 36 1 8 37
M  V30 37 2 37 38
M  V30 38 1 37 39
M  V30 39 2 39 40
M  V30 40 1 40 41
M  V30 41 2 41 42
M  V30 42 1 42 43
M  V30 43 1 25 13
M  V30 44 1 36 31
M  V30 45 1 43 39
M  V30 46 1 1 44
M  V30 47 1 1 45
M  V30 48 1 3 46
M  V30 49 1 4 47
M  V30 50 1 5 48
M  V30 51 1 5 49
M  V30 52 1 6 50
M  V30 53 1 6 51
M  V30 54 1 7 52
M  V30 55 1 7 53
M  V30 56 1 8 54 CFG=1
M  V30 57 1 9 55
M  V30 58 1 12 56
M  V30 59 1 12 57
M  V30 60 1 14 58
M  V30 61 1 14 59
M  V30 62 1 15 60
M  V30 63 1 15 61
M  V30 64 1 17 62 CFG=3
M  V30 65 1 18 63
M  V30 66 1 18 64
M  V30 67 1 19 65
M  V30 68 1 19 66
M  V30 69 1 20 67
M  V30 70 1 20 68
M  V30 71 1 21 69
M  V30 72 1 23 70
M  V30 73 1 23 71
M  V30 74 1 24 72
M  V30 75 1 30 73
M  V30 76 1 30 74
M  V30 77 1 32 75
M  V30 78 1 33 76
M  V30 79 1 34 77
M  V30 80 1 35 78
M  V30 81 1 36 79
M  V30 82 1 41 80
M  V30 83 1 42 81
M  V30 END BOND
M  V30 END CTAB
M  END
