
     RDKit          3D

  0  0  0  0  0  0  0  0  0  0999 V3000
M  V30 BEGIN CTAB
M  V30 COUNTS 26 26 0 0 0
M  V30 BEGIN ATOM
M  V30 1 C -1.74911 1.91823 0.748833 0
M  V30 2 C -2.17148 0.713944 0.0381142 0
M  V30 3 C -3.49216 0.485788 -0.23503 0
M  V30 4 C -3.87738 -0.647609 -0.902542 0
M  V30 5 N -2.98356 -1.55902 -1.30496 0
M  V30 6 C -1.65074 -1.36674 -1.05023 0
M  V30 7 C -1.24443 -0.249806 -0.389435 0
M  V30 8 C 0.153224 0.0190735 -0.0852586 0
M  V30 9 N 1.10907 -0.960052 -0.518102 0
M  V30 10 C 2.4847 -0.649051 -0.193139 0
M  V30 11 N 2.88806 0.537044 -0.347808 0
M  V30 12 N 4.17966 0.973807 -0.0757443 0
M  V30 13 N 3.31169 -1.68393 0.281141 0
M  V30 14 H -2.63118 2.33697 1.30908 0
M  V30 15 H -0.972695 1.74206 1.52032 0
M  V30 16 H -1.44264 2.73401 0.0459323 0
M  V30 17 H -4.25339 1.22111 0.0851604 0
M  V30 18 H -4.94265 -0.803853 -1.10755 0
M  V30 19 H -0.961012 -2.10674 -1.38098 0
M  V30 20 H 0.51295 0.997391 -0.483488 0
M  V30 21 H 0.240955 0.160005 1.04034 0
M  V30 22 H 0.886244 -1.83753 -1.02653 0
M  V30 23 H 4.71175 0.526494 0.686819 0
M  V30 24 H 4.58938 1.73662 -0.636835 0
M  V30 25 H 4.0921 -1.54509 0.982368 0
M  V30 26 H 3.21265 -2.69313 -0.0333563 0
M  V30 END ATOM
M  V30 BEGIN BOND
M  V30 1 1 1 2
M  V30 2 2 2 3
M  V30 3 1 3 4
M  V30 4 2 4 5
M  V30 5 1 5 6
M  V30 6 2 6 7
M  V30 7 1 7 8
M  V30 8 1 8 9
M  V30 9 1 9 10
M  V30 10 2 10 11
M  V30 11 1 11 12
M  V30 12 1 10 13
M  V30 13 1 7 2
M  V30 14 1 1 14
M  V30 15 1 1 15
M  V30 16 1 1 16
M  V30 17 1 3 17
M  V30 18 1 4 18
M  V30 19 1 6 19
M  V30 20 1 8 20
M  V30 21 1 8 21
M  V30 22 1 9 22
M  V30 23 1 12 23
M  V30 24 1 12 24
M  V30 25 1 13 25
M  V30 26 1 13 26
M  V30 END BOND
M  V30 END CTAB
M  END
