
     RDKit          3D

  0  0  0  0  0  0  0  0  0  0999 V3000
M  V30 BEGIN CTAB
M  V30 COUNTS 30 32 0 0 0
M  V30 BEGIN ATOM
M  V30 1 N -4.81684 1.03911 -0.0445901 0
M  V30 2 C -3.61217 0.282314 0.0464544 0
M  V30 3 C -2.44473 0.755105 -0.55965 0
M  V30 4 C -1.25583 0.0570727 -0.497912 0
M  V30 5 C -1.30789 -1.13256 0.20203 0
M  V30 6 C -2.43386 -1.62072 0.805007 0
M  V30 7 C -3.61899 -0.892616 0.724751 0
M  V30 8 S 0.177882 -2.04314 0.310284 0
M  V30 9 O 0.275927 -3.12693 -0.693464 0
M  V30 10 O 0.257491 -2.64574 1.68348 0
M  V30 11 C 1.472 -0.844331 0.111117 0
M  V30 12 C 2.71476 -1.1265 0.668684 0
M  V30 13 C 3.75021 -0.228337 0.549343 0
M  V30 14 C 3.52937 0.949752 -0.130897 0
M  V30 15 N 4.60677 1.88014 -0.252772 0
M  V30 16 C 2.29728 1.21011 -0.673825 0
M  V30 17 C 1.22034 0.319617 -0.572348 0
M  V30 18 C -0.0805388 0.611513 -1.16121 0
M  V30 19 H -5.12458 1.54821 0.803314 0
M  V30 20 H -5.36268 1.07705 -0.927275 0
M  V30 21 H -2.53975 1.70679 -1.08028 0
M  V30 22 H -2.47518 -2.55193 1.35288 0
M  V30 23 H -4.53204 -1.25673 1.19543 0
M  V30 24 H 2.83268 -2.05234 1.18484 0
M  V30 25 H 4.72278 -0.464169 0.993412 0
M  V30 26 H 5.44094 1.82919 0.335861 0
M  V30 27 H 4.52334 2.62151 -0.963615 0
M  V30 28 H 2.11119 2.12978 -1.20939 0
M  V30 29 H -0.207055 1.71628 -1.25539 0
M  V30 30 H -0.120821 0.252492 -2.22986 0
M  V30 END ATOM
M  V30 BEGIN BOND
M  V30 1 1 1 2
M  V30 2 2 2 3
M  V30 3 1 3 4
M  V30 4 2 4 5
M  V30 5 1 5 6
M  V30 6 2 6 7
M  V30 7 1 5 8
M  V30 8 2 8 9
M  V30 9 2 8 10
M  V30 10 1 8 11
M  V30 11 2 11 12
M  V30 12 1 12 13
M  V30 13 2 13 14
M  V30 14 1 14 15
M  V30 15 1 14 16
M  V30 16 2 16 17
M  V30 17 1 17 18
M  V30 18 1 7 2
M  V30 19 1 17 11
M  V30 20 1 18 4
M  V30 21 1 1 19
M  V30 22 1 1 20
M  V30 23 1 3 21
M  V30 24 1 6 22
M  V30 25 1 7 23
M  V30 26 1 12 24
M  V30 27 1 13 25
M  V30 28 1 15 26
M  V30 29 1 15 27
M  V30 30 1 16 28
M  V30 31 1 18 29
M  V30 32 1 18 30
M  V30 END BOND
M  V30 END CTAB
M  END
