
     RDKit          3D

  0  0  0  0  0  0  0  0  0  0999 V3000
M  V30 BEGIN CTAB
M  V30 COUNTS 31 32 0 0 0
M  V30 BEGIN ATOM
M  V30 1 C -5.78127 -0.331054 0.807407 0
M  V30 2 C -4.3766 0.100154 0.55537 0
M  V30 3 C -3.41984 0.133856 1.5353 0
M  V30 4 C -2.1032 0.536723 1.2473 0
M  V30 5 C -1.74421 0.905246 -0.0184094 0
M  V30 6 C -2.7115 0.868776 -0.989056 0
M  V30 7 C -4.00259 0.480116 -0.735708 0
M  V30 8 C -0.370157 1.3015 -0.353212 0
M  V30 9 S 0.779716 1.33717 1.02277 0
M  V30 10 C 2.31329 0.596584 0.413491 0
M  V30 11 N 2.49097 -0.709434 0.520893 0
M  V30 12 C 3.62576 -1.33166 0.0754916 0
M  V30 13 N 3.79936 -2.72349 0.186989 0
M  V30 14 C 4.60592 -0.555102 -0.499998 0
M  V30 15 C 4.42022 0.820358 -0.612624 0
M  V30 16 N 3.26629 1.3732 -0.151494 0
M  V30 17 N 5.43948 1.62698 -1.20556 0
M  V30 18 H -6.24043 0.114017 1.69772 0
M  V30 19 H -6.39666 0.00975993 -0.0718956 0
M  V30 20 H -5.8635 -1.45532 0.775834 0
M  V30 21 H -3.68081 -0.144265 2.52066 0
M  V30 22 H -1.4136 0.531766 2.0784 0
M  V30 23 H -2.47843 1.14375 -2.01743 0
M  V30 24 H -4.78092 0.455409 -1.49728 0
M  V30 25 H -0.010671 0.496428 -1.07971 0
M  V30 26 H -0.311543 2.22124 -0.990191 0
M  V30 27 H 3.70051 -3.18226 1.11452 0
M  V30 28 H 4.03608 -3.28957 -0.643832 0
M  V30 29 H 5.53939 -0.941075 -0.884317 0
M  V30 30 H 6.40139 1.46685 -0.846405 0
M  V30 31 H 5.26755 2.33908 -1.95502 0
M  V30 END ATOM
M  V30 BEGIN BOND
M  V30 1 1 1 2
M  V30 2 2 2 3
M  V30 3 1 3 4
M  V30 4 2 4 5
M  V30 5 1 5 6
M  V30 6 2 6 7
M  V30 7 1 5 8
M  V30 8 1 8 9
M  V30 9 1 9 10
M  V30 10 2 10 11
M  V30 11 1 11 12
M  V30 12 1 12 13
M  V30 13 2 12 14
M  V30 14 1 14 15
M  V30 15 2 15 16
M  V30 16 1 15 17
M  V30 17 1 7 2
M  V30 18 1 16 10
M  V30 19 1 1 18
M  V30 20 1 1 19
M  V30 21 1 1 20
M  V30 22 1 3 21
M  V30 23 1 4 22
M  V30 24 1 6 23
M  V30 25 1 7 24
M  V30 26 1 8 25
M  V30 27 1 8 26
M  V30 28 1 13 27
M  V30 29 1 13 28
M  V30 30 1 14 29
M  V30 31 1 17 30
M  V30 32 1 17 31
M  V30 END BOND
M  V30 END CTAB
M  END
