
     RDKit          3D

  0  0  0  0  0  0  0  0  0  0999 V3000
M  V30 BEGIN CTAB
M  V30 COUNTS 45 45 0 0 0
M  V30 BEGIN ATOM
M  V30 1 N -2.88407 4.79825 -0.653689 0
M  V30 2 C -2.29269 3.47236 -0.857595 0
M  V30 3 C -1.43724 3.18206 0.312037 0
M  V30 4 N -0.779328 1.80327 0.164314 0
M  V30 5 C -1.56254 0.771838 0.714108 0
M  V30 6 O -2.7061 1.16378 1.29487 0
M  V30 7 O -1.47063 -0.557412 0.815708 0
M  V30 8 C -2.39126 -1.38845 1.41544 0
M  V30 9 C -3.77348 -1.34762 0.81588 0
M  V30 10 C -2.51743 -1.25404 2.90249 0
M  V30 11 C -1.88981 -2.82307 1.15956 0
M  V30 12 C 0.434167 1.86919 -0.439777 0
M  V30 13 S 0.791494 3.5042 -1.01239 0
M  V30 14 N 1.49659 1.07336 -0.746537 0
M  V30 15 C 1.85562 -0.248472 -0.582271 0
M  V30 16 O 1.13916 -1.09519 -0.0158983 0
M  V30 17 C 3.1747 -0.74442 -1.09776 0
M  V30 18 C 4.02776 0.0828234 -1.72744 0
M  V30 19 C 5.25021 -0.424079 -2.19351 0
M  V30 20 C 5.53561 -1.74079 -1.99342 0
M  V30 21 C 4.66509 -2.57737 -1.35284 0
M  V30 22 C 3.46311 -2.09113 -0.891418 0
M  V30 23 N 2.52536 -2.91259 -0.2219 0
M  V30 24 H -2.3155 5.54454 -1.09849 0
M  V30 25 H -2.96993 4.98781 0.369624 0
M  V30 26 H -3.19508 2.78841 -0.881564 0
M  V30 27 H -1.76968 3.46696 -1.82536 0
M  V30 28 H -0.671461 3.91798 0.49015 0
M  V30 29 H -2.04243 3.08624 1.22734 0
M  V30 30 H -4.43515 -0.589718 1.3231 0
M  V30 31 H -3.77842 -1.23043 -0.275734 0
M  V30 32 H -4.25091 -2.32601 1.03869 0
M  V30 33 H -1.83623 -1.98968 3.4209 0
M  V30 34 H -3.54653 -1.58058 3.21299 0
M  V30 35 H -2.38732 -0.238883 3.28523 0
M  V30 36 H -1.86843 -2.91803 0.0496443 0
M  V30 37 H -2.54307 -3.54887 1.64278 0
M  V30 38 H -0.865714 -2.84218 1.59803 0
M  V30 39 H 2.28787 1.68459 -1.28101 0
M  V30 40 H 3.8421 1.14372 -1.91061 0
M  V30 41 H 5.93033 0.260579 -2.70199 0
M  V30 42 H 6.47763 -2.11937 -2.35567 0
M  V30 43 H 4.88953 -3.60839 -1.19663 0
M  V30 44 H 1.7864 -3.41565 -0.75712 0
M  V30 45 H 2.6077 -2.98955 0.817723 0
M  V30 END ATOM
M  V30 BEGIN BOND
M  V30 1 1 1 2
M  V30 2 1 2 3
M  V30 3 1 3 4
M  V30 4 1 4 5
M  V30 5 2 5 6
M  V30 6 1 5 7
M  V30 7 1 7 8
M  V30 8 1 8 9
M  V30 9 1 8 10
M  V30 10 1 8 11
M  V30 11 1 4 12
M  V30 12 2 12 13
M  V30 13 1 12 14
M  V30 14 1 14 15
M  V30 15 2 15 16
M  V30 16 1 15 17
M  V30 17 2 17 18
M  V30 18 1 18 19
M  V30 19 2 19 20
M  V30 20 1 20 21
M  V30 21 2 21 22
M  V30 22 1 22 23
M  V30 23 1 22 17
M  V30 24 1 1 24
M  V30 25 1 1 25
M  V30 26 1 2 26
M  V30 27 1 2 27
M  V30 28 1 3 28
M  V30 29 1 3 29
M  V30 30 1 9 30
M  V30 31 1 9 31
M  V30 32 1 9 32
M  V30 33 1 10 33
M  V30 34 1 10 34
M  V30 35 1 10 35
M  V30 36 1 11 36
M  V30 37 1 11 37
M  V30 38 1 11 38
M  V30 39 1 14 39
M  V30 40 1 18 40
M  V30 41 1 19 41
M  V30 42 1 20 42
M  V30 43 1 21 43
M  V30 44 1 23 44
M  V30 45 1 23 45
M  V30 END BOND
M  V30 END CTAB
M  END
