
     RDKit          3D

  0  0  0  0  0  0  0  0  0  0999 V3000
M  V30 BEGIN CTAB
M  V30 COUNTS 34 36 0 0 0
M  V30 BEGIN ATOM
M  V30 1 N -0.967245 3.55649 -0.0875614 0
M  V30 2 C -0.105372 2.4075 -0.138802 0
M  V30 3 C -0.841611 1.10904 0.0249339 0
M  V30 4 C -0.127575 -0.0906515 -0.00431206 0
M  V30 5 C 1.31956 -0.0592841 -0.1933 0
M  V30 6 C 1.91887 -0.103387 -1.43447 0
M  V30 7 Cl 0.907248 -0.201641 -2.85502 0
M  V30 8 C 3.29807 -0.0693287 -1.53082 0
M  V30 9 C 4.0659 0.00882753 -0.379216 0
M  V30 10 Cl 5.80334 0.0506281 -0.523221 0
M  V30 11 C 3.44139 0.051486 0.84696 0
M  V30 12 C 2.08849 0.0194218 0.968881 0
M  V30 13 C -0.846214 -1.24911 0.149697 0
M  V30 14 C -2.21929 -1.24224 0.327045 0
M  V30 15 C -2.8659 -2.43362 0.473448 0
M  V30 16 C -2.17909 -3.63175 0.447631 0
M  V30 17 C -0.802555 -3.6307 0.26942 0
M  V30 18 C -0.145253 -2.44012 0.121672 0
M  V30 19 N -2.88807 -0.107616 0.353859 0
M  V30 20 C -2.19849 1.06294 0.202974 0
M  V30 21 N -2.93302 2.30264 0.232633 0
M  V30 22 H -0.741626 4.2254 -0.826847 0
M  V30 23 H -1.01264 3.97475 0.868735 0
M  V30 24 H 0.625933 2.50162 0.692108 0
M  V30 25 H 0.404618 2.41397 -1.12654 0
M  V30 26 H 3.7289 -0.105169 -2.50705 0
M  V30 27 H 4.06783 0.112298 1.7264 0
M  V30 28 H 1.60661 0.054013 1.94887 0
M  V30 29 H -3.93726 -2.46031 0.613515 0
M  V30 30 H -2.74552 -4.54426 0.568959 0
M  V30 31 H -0.25294 -4.55702 0.247055 0
M  V30 32 H 0.935073 -2.43827 -0.0182496 0
M  V30 33 H -3.33838 2.75122 -0.609233 0
M  V30 34 H -3.06378 2.76223 1.14986 0
M  V30 END ATOM
M  V30 BEGIN BOND
M  V30 1 1 1 2
M  V30 2 1 2 3
M  V30 3 2 3 4
M  V30 4 1 4 5
M  V30 5 2 5 6
M  V30 6 1 6 7
M  V30 7 1 6 8
M  V30 8 2 8 9
M  V30 9 1 9 10
M  V30 10 1 9 11
M  V30 11 2 11 12
M  V30 12 1 4 13
M  V30 13 2 13 14
M  V30 14 1 14 15
M  V30 15 2 15 16
M  V30 16 1 16 17
M  V30 17 2 17 18
M  V30 18 1 14 19
M  V30 19 2 19 20
M  V30 20 1 20 21
M  V30 21 1 20 3
M  V30 22 1 12 5
M  V30 23 1 18 13
M  V30 24 1 1 22
M  V30 25 1 1 23
M  V30 26 1 2 24
M  V30 27 1 2 25
M  V30 28 1 8 26
M  V30 29 1 11 27
M  V30 30 1 12 28
M  V30 31 1 15 29
M  V30 32 1 16 30
M  V30 33 1 17 31
M  V30 34 1 18 32
M  V30 35 1 21 33
M  V30 36 1 21 34
M  V30 END BOND
M  V30 END CTAB
M  END
