
     RDKit          3D

  0  0  0  0  0  0  0  0  0  0999 V3000
M  V30 BEGIN CTAB
M  V30 COUNTS 35 36 0 0 0
M  V30 BEGIN ATOM
M  V30 1 N -6.27909 1.11934 1.20566 0
M  V30 2 C -5.09229 1.88049 1.17016 0
M  V30 3 N -5.1297 3.14667 1.42101 0
M  V30 4 N -3.82735 1.2675 0.856631 0
M  V30 5 C -3.79982 -0.121856 0.583459 0
M  V30 6 O -4.86748 -0.818739 0.613044 0
M  V30 7 C -2.51413 -0.737847 0.266159 0
M  V30 8 C -2.49701 -2.09041 0.0017194 0
M  V30 9 N -3.65643 -2.88392 0.0267515 0
M  V30 10 N -1.30881 -2.65085 -0.289811 0
M  V30 11 C -0.189058 -1.92644 -0.3221 0
M  V30 12 C -0.186279 -0.565238 -0.0590541 0
M  V30 13 S 1.31448 0.40238 -0.102959 0
M  V30 14 C 2.68443 -0.697295 -0.526857 0
M  V30 15 C 3.97772 0.0161588 -0.587979 0
M  V30 16 C 4.79126 0.148391 0.518311 0
M  V30 17 C 6.00368 0.815751 0.46638 0
M  V30 18 C 6.44216 1.37839 -0.714179 0
M  V30 19 C 5.63293 1.24916 -1.82297 0
M  V30 20 C 4.4173 0.579239 -1.76801 0
M  V30 21 N -1.38221 -0.0159979 0.231498 0
M  V30 22 H -6.47559 0.528946 2.03136 0
M  V30 23 H -6.94252 1.15401 0.413113 0
M  V30 24 H -4.27576 3.73998 1.4043 0
M  V30 25 H -2.95141 1.81984 0.828597 0
M  V30 26 H -3.80988 -3.53766 0.812254 0
M  V30 27 H -4.35911 -2.82298 -0.730461 0
M  V30 28 H 0.785993 -2.357 -0.555653 0
M  V30 29 H 2.76574 -1.44355 0.299191 0
M  V30 30 H 2.47339 -1.27616 -1.44219 0
M  V30 31 H 4.44656 -0.291224 1.43668 0
M  V30 32 H 6.63417 0.912624 1.34402 0
M  V30 33 H 7.3965 1.90124 -0.746199 0
M  V30 34 H 5.9722 1.68636 -2.74314 0
M  V30 35 H 3.80543 0.490702 -2.63955 0
M  V30 END ATOM
M  V30 BEGIN BOND
M  V30 1 1 1 2
M  V30 2 2 2 3 CFG=2
M  V30 3 1 2 4
M  V30 4 1 4 5
M  V30 5 2 5 6
M  V30 6 1 5 7
M  V30 7 2 7 8
M  V30 8 1 8 9
M  V30 9 1 8 10
M  V30 10 2 10 11
M  V30 11 1 11 12
M  V30 12 1 12 13
M  V30 13 1 13 14
M  V30 14 1 14 15
M  V30 15 2 15 16
M  V30 16 1 16 17
M  V30 17 2 17 18
M  V30 18 1 18 19
M  V30 19 2 19 20
M  V30 20 2 12 21
M  V30 21 1 21 7
M  V30 22 1 20 15
M  V30 23 1 1 22
M  V30 24 1 1 23
M  V30 25 1 3 24
M  V30 26 1 4 25
M  V30 27 1 9 26
M  V30 28 1 9 27
M  V30 29 1 11 28
M  V30 30 1 14 29
M  V30 31 1 14 30
M  V30 32 1 16 31
M  V30 33 1 17 32
M  V30 34 1 18 33
M  V30 35 1 19 34
M  V30 36 1 20 35
M  V30 END BOND
M  V30 END CTAB
M  END
