
     RDKit          3D

  0  0  0  0  0  0  0  0  0  0999 V3000
M  V30 BEGIN CTAB
M  V30 COUNTS 20 19 0 0 0
M  V30 BEGIN ATOM
M  V30 1 C 2.23758 -1.4356 -0.421375 0
M  V30 2 C 1.6388 -0.0960911 -0.44089 0
M  V30 3 O 2.42677 0.869571 -0.799775 0
M  V30 4 C 0.289023 0.288503 -0.113513 0
M  V30 5 C -0.0801781 1.68865 -0.206645 0
M  V30 6 C -1.38069 2.29536 0.0742771 0
M  V30 7 O 0.839096 2.49601 -0.579285 0
M  V30 8 C -0.590354 -0.588513 0.259763 0
M  V30 9 N -1.95041 -0.276383 0.600389 0
M  V30 10 N -0.305861 -2.00257 0.379974 0
M  V30 11 H 2.22279 -1.89551 0.580012 0
M  V30 12 H 3.33478 -1.35365 -0.728904 0
M  V30 13 H 1.732 -2.11043 -1.13725 0
M  V30 14 H -1.69872 2.20769 1.12965 0
M  V30 15 H -2.11828 1.92839 -0.663261 0
M  V30 16 H -1.30005 3.40272 -0.19367 0
M  V30 17 H -2.25583 -0.0324864 1.56722 0
M  V30 18 H -2.63885 -0.312266 -0.172331 0
M  V30 19 H 0.0380719 -2.41724 1.28139 0
M  V30 20 H -0.439669 -2.65612 -0.415773 0
M  V30 END ATOM
M  V30 BEGIN BOND
M  V30 1 1 1 2
M  V30 2 2 2 3
M  V30 3 1 2 4
M  V30 4 1 4 5
M  V30 5 1 5 6
M  V30 6 2 5 7
M  V30 7 2 4 8
M  V30 8 1 8 9
M  V30 9 1 8 10
M  V30 10 1 1 11
M  V30 11 1 1 12
M  V30 12 1 1 13
M  V30 13 1 6 14
M  V30 14 1 6 15
M  V30 15 1 6 16
M  V30 16 1 9 17
M  V30 17 1 9 18
M  V30 18 1 10 19
M  V30 19 1 10 20
M  V30 END BOND
M  V30 END CTAB
M  END
