
     RDKit          3D

  0  0  0  0  0  0  0  0  0  0999 V3000
M  V30 BEGIN CTAB
M  V30 COUNTS 15 14 0 0 0
M  V30 BEGIN ATOM
M  V30 1 N -1.58184 -1.46172 -0.651375 0
M  V30 2 C -1.44328 -0.187191 -0.053725 0
M  V30 3 N -2.4834 0.522306 0.268047 0
M  V30 4 N -2.40266 1.76772 0.851522 0
M  V30 5 S 0.157373 0.523027 0.29404 0
M  V30 6 C 1.46727 -0.620757 -0.228915 0
M  V30 7 C 2.78778 -0.0542789 0.0487184 0
M  V30 8 C 3.89265 0.39766 0.284387 0
M  V30 9 H -2.07108 -2.26308 -0.203733 0
M  V30 10 H -1.16353 -1.59235 -1.5983 0
M  V30 11 H -3.24912 2.20398 1.2631 0
M  V30 12 H -1.51187 2.30507 0.900642 0
M  V30 13 H 1.30665 -1.56567 0.315891 0
M  V30 14 H 1.43452 -0.763448 -1.34855 0
M  V30 15 H 4.86052 0.788724 0.506337 0
M  V30 END ATOM
M  V30 BEGIN BOND
M  V30 1 1 1 2
M  V30 2 2 2 3 CFG=2
M  V30 3 1 3 4
M  V30 4 1 2 5
M  V30 5 1 5 6
M  V30 6 1 6 7
M  V30 7 3 7 8
M  V30 8 1 1 9
M  V30 9 1 1 10
M  V30 10 1 4 11
M  V30 11 1 4 12
M  V30 12 1 6 13
M  V30 13 1 6 14
M  V30 14 1 8 15
M  V30 END BOND
M  V30 END CTAB
M  END
