
     RDKit          3D

  0  0  0  0  0  0  0  0  0  0999 V3000
M  V30 BEGIN CTAB
M  V30 COUNTS 93 99 0 0 0
M  V30 BEGIN ATOM
M  V30 1 C 4.98543 -3.42379 -1.48731 0
M  V30 2 C 5.27553 -2.09146 -2.09906 0
M  V30 3 O 5.19278 -1.00786 -1.28709 0
M  V30 4 C 4.00232 -0.711237 -0.696298 0
M  V30 5 C 4.20605 0.665965 -0.0334865 0
M  V30 6 N 5.25805 0.640277 0.950845 0
M  V30 7 C 5.57497 1.81456 1.66439 0
M  V30 8 O 4.96169 2.88938 1.46024 0
M  V30 9 O 6.57673 1.79405 2.60875 0
M  V30 10 C 6.88613 2.96086 3.31144 0
M  V30 11 C 7.33373 4.0809 2.45814 0
M  V30 12 C 7.23117 5.36727 2.98819 0
M  V30 13 C 7.62539 6.46964 2.27453 0
M  V30 14 C 8.13856 6.33001 1.00011 0
M  V30 15 C 8.24487 5.0695 0.466555 0
M  V30 16 C 7.8441 3.9431 1.19114 0
M  V30 17 O 3.06786 -0.493388 -1.69055 0
M  V30 18 C 1.91877 -1.21051 -1.4034 0 CFG=2
M  V30 19 C 0.771917 -0.338881 -0.989691 0 CFG=1
M  V30 20 C -0.079139 0.0948599 -2.15293 0
M  V30 21 O -1.17322 0.861435 -1.72111 0
M  V30 22 P -2.10838 1.36525 -3.03709 0
M  V30 23 O -2.01671 0.28215 -4.32699 0
M  V30 24 O -1.43512 2.65356 -3.53651 0
M  V30 25 O -3.64334 1.7625 -2.5975 0
M  V30 26 C -4.38039 0.869496 -1.89474 0 CFG=2
M  V30 27 C -5.55977 0.308964 -2.65167 0 CFG=1
M  V30 28 C -5.71291 -1.17814 -2.40838 0
M  V30 29 O -5.89918 -1.41394 -1.03026 0
M  V30 30 O -6.69118 0.937598 -2.22515 0
M  V30 31 C -6.43281 1.6916 -1.09808 0 CFG=2
M  V30 32 C -5.02996 1.39226 -0.638701 0 CFG=2
M  V30 33 O -4.39481 2.5043 -0.111821 0
M  V30 34 N -7.4397 1.36969 -0.0983073 0
M  V30 35 C -7.14161 1.53411 1.1985 0
M  V30 36 C -8.0978 1.23164 2.14533 0
M  V30 37 C -9.35553 0.763682 1.79328 0
M  V30 38 N -10.3392 0.452391 2.75865 0
M  V30 39 N -9.56555 0.630088 0.467647 0
M  V30 40 C -8.64085 0.922018 -0.454575 0
M  V30 41 O -8.93753 0.760891 -1.68132 0
M  V30 42 O 0.0957897 -1.11965 -0.0552636 0
M  V30 43 C 1.13583 -1.54332 0.787866 0 CFG=2
M  V30 44 C 2.23054 -1.98767 -0.163838 0 CFG=2
M  V30 45 O 3.49071 -1.6164 0.187949 0
M  V30 46 N 0.629901 -2.65753 1.55996 0
M  V30 47 C 0.745425 -2.89613 2.87578 0
M  V30 48 N 0.130333 -4.0551 3.20291 0
M  V30 49 C -0.390498 -4.57399 2.07962 0
M  V30 50 C -0.0790879 -3.70587 1.06603 0
M  V30 51 N -0.489518 -3.99089 -0.184021 0
M  V30 52 C -1.19513 -5.11705 -0.414054 0
M  V30 53 N -1.49999 -5.97238 0.593629 0
M  V30 54 C -1.1091 -5.73244 1.87424 0
M  V30 55 N -1.44781 -6.64913 2.87531 0
M  V30 56 H 5.00898 -3.45778 -0.389209 0
M  V30 57 H 4.03118 -3.89665 -1.86674 0
M  V30 58 H 5.76429 -4.18727 -1.79823 0
M  V30 59 H 4.70007 -1.96302 -3.06604 0
M  V30 60 H 6.34679 -2.12546 -2.4628 0
M  V30 61 H 3.29233 1.01156 0.488703 0
M  V30 62 H 4.43147 1.42881 -0.810153 0
M  V30 63 H 5.7864 -0.229158 1.1433 0
M  V30 64 H 5.94942 3.31739 3.82123 0
M  V30 65 H 7.63258 2.80399 4.11716 0
M  V30 66 H 6.83538 5.51608 3.98049 0
M  V30 67 H 7.54481 7.46655 2.68433 0
M  V30 68 H 8.44605 7.22127 0.452713 0
M  V30 69 H 8.64831 4.99323 -0.526273 0
M  V30 70 H 7.93065 2.94824 0.762573 0
M  V30 71 H 1.65929 -1.87481 -2.26265 0
M  V30 72 H 1.16339 0.526494 -0.416277 0
M  V30 73 H 0.556254 0.782118 -2.75782 0
M  V30 74 H -0.361747 -0.731323 -2.81262 0
M  V30 75 H -1.89074 0.73751 -5.20406 0
M  V30 76 H -3.7515 0.00185787 -1.62149 0
M  V30 77 H -5.41936 0.425976 -3.765 0
M  V30 78 H -4.79256 -1.73708 -2.67348 0
M  V30 79 H -6.5399 -1.60857 -2.97822 0
M  V30 80 H -5.71889 -2.35185 -0.795657 0
M  V30 81 H -6.50149 2.78369 -1.27407 0
M  V30 82 H -5.09768 0.63132 0.166459 0
M  V30 83 H -3.56382 2.18577 0.3235 0
M  V30 84 H -6.15074 1.90459 1.51438 0
M  V30 85 H -7.91362 1.34582 3.20806 0
M  V30 86 H -10.8088 -0.470649 2.71795 0
M  V30 87 H -10.5889 1.11958 3.48649 0
M  V30 88 H 1.4493 -0.75639 1.48059 0
M  V30 89 H 2.09528 -3.08391 -0.294321 0
M  V30 90 H 1.26186 -2.24237 3.57266 0
M  V30 91 H -1.54581 -5.38214 -1.40975 0
M  V30 92 H -1.4276 -7.6735 2.71283 0
M  V30 93 H -1.72981 -6.30718 3.81427 0
M  V30 END ATOM
M  V30 BEGIN BOND
M  V30 1 1 1 2
M  V30 2 1 2 3
M  V30 3 1 3 4
M  V30 4 1 4 5
M  V30 5 1 5 6
M  V30 6 1 6 7
M  V30 7 2 7 8
M  V30 8 1 7 9
M  V30 9 1 9 10
M  V30 10 1 10 11
M  V30 11 2 11 12
M  V30 12 1 12 13
M  V30 13 2 13 14
M  V30 14 1 14 15
M  V30 15 2 15 16
M  V30 16 1 4 17
M  V30 17 1 17 18
M  V30 18 1 18 19
M  V30 19 1 19 20
M  V30 20 1 20 21
M  V30 21 1 21 22
M  V30 22 1 22 23
M  V30 23 2 22 24
M  V30 24 1 22 25
M  V30 25 1 25 26
M  V30 26 1 26 27
M  V30 27 1 27 28
M  V30 28 1 28 29
M  V30 29 1 27 30
M  V30 30 1 30 31
M  V30 31 1 31 32
M  V30 32 1 32 33
M  V30 33 1 31 34
M  V30 34 1 34 35
M  V30 35 2 35 36
M  V30 36 1 36 37
M  V30 37 1 37 38
M  V30 38 2 37 39
M  V30 39 1 39 40
M  V30 40 2 40 41
M  V30 41 1 19 42
M  V30 42 1 42 43
M  V30 43 1 43 44
M  V30 44 1 44 45
M  V30 45 1 43 46
M  V30 46 1 46 47
M  V30 47 2 47 48
M  V30 48 1 48 49
M  V30 49 2 49 50
M  V30 50 1 50 51
M  V30 51 2 51 52
M  V30 52 1 52 53
M  V30 53 2 53 54
M  V30 54 1 54 55
M  V30 55 1 45 4
M  V30 56 1 50 46
M  V30 57 1 16 11
M  V30 58 1 44 18
M  V30 59 1 54 49
M  V30 60 1 32 26
M  V30 61 1 40 34
M  V30 62 1 1 56
M  V30 63 1 1 57
M  V30 64 1 1 58
M  V30 65 1 2 59
M  V30 66 1 2 60
M  V30 67 1 5 61
M  V30 68 1 5 62
M  V30 69 1 6 63
M  V30 70 1 10 64
M  V30 71 1 10 65
M  V30 72 1 12 66
M  V30 73 1 13 67
M  V30 74 1 14 68
M  V30 75 1 15 69
M  V30 76 1 16 70
M  V30 77 1 18 71 CFG=3
M  V30 78 1 19 72 CFG=1
M  V30 79 1 20 73
M  V30 80 1 20 74
M  V30 81 1 23 75
M  V30 82 1 26 76 CFG=1
M  V30 83 1 27 77 CFG=3
M  V30 84 1 28 78
M  V30 85 1 28 79
M  V30 86 1 29 80
M  V30 87 1 31 81 CFG=3
M  V30 88 1 32 82 CFG=1
M  V30 89 1 33 83
M  V30 90 1 35 84
M  V30 91 1 36 85
M  V30 92 1 38 86
M  V30 93 1 38 87
M  V30 94 1 43 88 CFG=1
M  V30 95 1 44 89 CFG=3
M  V30 96 1 47 90
M  V30 97 1 52 91
M  V30 98 1 55 92
M  V30 99 1 55 93
M  V30 END BOND
M  V30 END CTAB
M  END
