
     RDKit          3D

  0  0  0  0  0  0  0  0  0  0999 V3000
M  V30 BEGIN CTAB
M  V30 COUNTS 21 20 0 0 0
M  V30 BEGIN ATOM
M  V30 1 N 1.95009 -0.81913 1.03787 0
M  V30 2 C 1.55675 -1.07406 -0.329567 0
M  V30 3 C 0.732902 0.0143592 -0.924883 0
M  V30 4 C -0.547881 0.325795 -0.266659 0
M  V30 5 C -1.52324 -0.817683 -0.209324 0
M  V30 6 F -1.79493 -1.195 -1.5098 0
M  V30 7 F -2.69707 -0.299038 0.359441 0
M  V30 8 F -1.14415 -1.84507 0.595968 0
M  V30 9 N -1.21504 1.34446 -1.10249 0
M  V30 10 C -0.446498 0.934884 1.10336 0
M  V30 11 H 2.1187 0.158369 1.27575 0
M  V30 12 H 1.51412 -1.41023 1.74374 0
M  V30 13 H 1.13547 -2.07292 -0.375616 0
M  V30 14 H 2.52076 -1.10056 -0.919304 0
M  V30 15 H 1.36205 0.953128 -0.879204 0
M  V30 16 H 0.55311 -0.138975 -2.00832 0
M  V30 17 H -0.568677 2.07978 -1.39928 0
M  V30 18 H -2.06944 1.67008 -0.619948 0
M  V30 19 H 0.3008 1.71757 1.20551 0
M  V30 20 H -0.301475 0.151002 1.87478 0
M  V30 21 H -1.43635 1.42324 1.34798 0
M  V30 END ATOM
M  V30 BEGIN BOND
M  V30 1 1 1 2
M  V30 2 1 2 3
M  V30 3 1 3 4
M  V30 4 1 4 5
M  V30 5 1 5 6
M  V30 6 1 5 7
M  V30 7 1 5 8
M  V30 8 1 4 9
M  V30 9 1 4 10
M  V30 10 1 1 11
M  V30 11 1 1 12
M  V30 12 1 2 13
M  V30 13 1 2 14
M  V30 14 1 3 15
M  V30 15 1 3 16
M  V30 16 1 9 17
M  V30 17 1 9 18
M  V30 18 1 10 19
M  V30 19 1 10 20
M  V30 20 1 10 21
M  V30 END BOND
M  V30 END CTAB
M  END
