
     RDKit          3D

  0  0  0  0  0  0  0  0  0  0999 V3000
M  V30 BEGIN CTAB
M  V30 COUNTS 30 30 0 0 0
M  V30 BEGIN ATOM
M  V30 1 N -1.37456 1.34379 1.75536 0
M  V30 2 C -1.03921 0.0622372 1.16295 0
M  V30 3 C -0.936571 0.144963 -0.338414 0
M  V30 4 C -2.22642 0.592684 -0.975399 0
M  V30 5 C 0.173407 1.11169 -0.687385 0
M  V30 6 N 1.32998 0.340092 -0.995675 0
M  V30 7 C 1.05942 -1.02677 -0.61791 0
M  V30 8 C -0.414918 -1.13837 -0.934961 0
M  V30 9 C -1.04947 -2.35927 -0.333927 0
M  V30 10 S 2.79094 0.940789 -0.351234 0
M  V30 11 O 3.19701 2.24911 -0.903494 0
M  V30 12 O 3.88186 -0.055587 -0.719517 0
M  V30 13 N 2.70345 0.960626 1.36132 0
M  V30 14 H -2.4241 1.42984 1.68763 0
M  V30 15 H -1.18319 1.22522 2.79485 0
M  V30 16 H -0.0846476 -0.246379 1.62304 0
M  V30 17 H -1.82566 -0.648522 1.44673 0
M  V30 18 H -2.02986 1.28141 -1.84273 0
M  V30 19 H -2.87861 1.16301 -0.286028 0
M  V30 20 H -2.78632 -0.309592 -1.27186 0
M  V30 21 H 0.324747 1.85874 0.116016 0
M  V30 22 H -0.143631 1.62768 -1.6351 0
M  V30 23 H 1.27635 -1.19328 0.460992 0
M  V30 24 H 1.61748 -1.75533 -1.24201 0
M  V30 25 H -0.511468 -1.11442 -2.03126 0
M  V30 26 H -2.13531 -2.22787 -0.321065 0
M  V30 27 H -0.845733 -3.20928 -1.04587 0
M  V30 28 H -0.627814 -2.65682 0.626621 0
M  V30 29 H 2.69068 0.0308655 1.78707 0
M  V30 30 H 3.47218 1.57872 1.71127 0
M  V30 END ATOM
M  V30 BEGIN BOND
M  V30 1 1 1 2
M  V30 2 1 2 3
M  V30 3 1 3 4
M  V30 4 1 3 5
M  V30 5 1 5 6
M  V30 6 1 6 7
M  V30 7 1 7 8
M  V30 8 1 8 9
M  V30 9 1 6 10
M  V30 10 2 10 11
M  V30 11 2 10 12
M  V30 12 1 10 13
M  V30 13 1 8 3
M  V30 14 1 1 14
M  V30 15 1 1 15
M  V30 16 1 2 16
M  V30 17 1 2 17
M  V30 18 1 4 18
M  V30 19 1 4 19
M  V30 20 1 4 20
M  V30 21 1 5 21
M  V30 22 1 5 22
M  V30 23 1 7 23
M  V30 24 1 7 24
M  V30 25 1 8 25
M  V30 26 1 9 26
M  V30 27 1 9 27
M  V30 28 1 9 28
M  V30 29 1 13 29
M  V30 30 1 13 30
M  V30 END BOND
M  V30 END CTAB
M  END
