
     RDKit          3D

  0  0  0  0  0  0  0  0  0  0999 V3000
M  V30 BEGIN CTAB
M  V30 COUNTS 63 65 0 0 0
M  V30 BEGIN ATOM
M  V30 1 C 0.506909 1.66893 2.13491 0 CFG=2
M  V30 2 C 0.631612 3.18822 1.94277 0
M  V30 3 C 1.73296 3.34803 0.891666 0
M  V30 4 C 1.54734 2.03487 0.125171 0
M  V30 5 N 1.47 1.10588 1.21888 0
M  V30 6 C 2.17111 -0.107197 1.36315 0
M  V30 7 O 1.93637 -0.833686 2.39703 0
M  V30 8 C 3.17656 -0.615026 0.391555 0 CFG=2
M  V30 9 N 3.50069 -2.0137 0.738548 0
M  V30 10 C 4.48926 0.12908 0.572463 0
M  V30 11 C 5.52329 -0.341216 -0.374373 0
M  V30 12 C 6.36805 -1.37237 -0.0352477 0
M  V30 13 C 7.34922 -1.83688 -0.900015 0
M  V30 14 C 7.48688 -1.24785 -2.14496 0
M  V30 15 C 6.65034 -0.210635 -2.50864 0
M  V30 16 C 5.67288 0.234414 -1.61664 0
M  V30 17 C -0.883459 1.24217 1.83814 0
M  V30 18 O -1.80839 1.6703 2.56766 0
M  V30 19 N -1.15296 0.389292 0.777705 0
M  V30 20 C -2.5723 -0.00898542 0.522012 0 CFG=1
M  V30 21 C -2.89453 0.664818 -0.748293 0
M  V30 22 C -4.17455 0.561901 -1.43472 0
M  V30 23 C -4.49753 -0.767369 -1.99048 0
M  V30 24 C -5.87527 -0.693167 -2.68821 0
M  V30 25 N -5.78495 0.293026 -3.74529 0
M  V30 26 C -2.70774 -1.44119 0.671503 0
M  V30 27 O -1.89003 -2.23575 0.161275 0
M  V30 28 C -3.83084 -2.02389 1.45615 0
M  V30 29 N -4.08866 -3.29753 1.69237 0
M  V30 30 C -5.1187 -3.62273 2.40232 0
M  V30 31 C -5.91026 -2.61465 2.8862 0
M  V30 32 S -5.10195 -1.22978 2.27361 0
M  V30 33 H 0.778128 1.47963 3.1994 0
M  V30 34 H 0.932236 3.70231 2.85582 0
M  V30 35 H -0.315314 3.58222 1.51891 0
M  V30 36 H 2.73864 3.27731 1.35397 0
M  V30 37 H 1.59419 4.22513 0.261319 0
M  V30 38 H 0.583402 2.07594 -0.453848 0
M  V30 39 H 2.32184 1.84914 -0.611018 0
M  V30 40 H 2.83526 -0.625596 -0.647526 0
M  V30 41 H 2.80774 -2.65549 0.302549 0
M  V30 42 H 3.55016 -2.12664 1.78376 0
M  V30 43 H 4.31272 1.1945 0.445244 0
M  V30 44 H 4.80428 -0.12014 1.63052 0
M  V30 45 H 6.29748 -1.86049 0.923122 0
M  V30 46 H 7.99566 -2.64292 -0.610617 0
M  V30 47 H 8.26929 -1.62909 -2.81386 0
M  V30 48 H 6.79318 0.218777 -3.48821 0
M  V30 49 H 5.05333 1.04934 -1.96564 0
M  V30 50 H -0.454901 0.00413726 0.148433 0
M  V30 51 H -3.19217 0.504104 1.33114 0
M  V30 52 H -2.04971 0.463599 -1.52064 0
M  V30 53 H -2.70203 1.78293 -0.571397 0
M  V30 54 H -4.16387 1.27603 -2.33412 0
M  V30 55 H -5.03559 0.993514 -0.838708 0
M  V30 56 H -3.77469 -1.03299 -2.8231 0
M  V30 57 H -4.48713 -1.59332 -1.29374 0
M  V30 58 H -6.16858 -1.68225 -3.04626 0
M  V30 59 H -6.55816 -0.299727 -1.90064 0
M  V30 60 H -6.55452 0.156438 -4.45265 0
M  V30 61 H -5.9328 1.26144 -3.35434 0
M  V30 62 H -5.37971 -4.67698 2.6295 0
M  V30 63 H -6.8197 -2.71813 3.50442 0
M  V30 END ATOM
M  V30 BEGIN BOND
M  V30 1 1 1 2
M  V30 2 1 2 3
M  V30 3 1 3 4
M  V30 4 1 4 5
M  V30 5 1 5 6
M  V30 6 2 6 7
M  V30 7 1 6 8
M  V30 8 1 8 9
M  V30 9 1 8 10
M  V30 10 1 10 11
M  V30 11 2 11 12
M  V30 12 1 12 13
M  V30 13 2 13 14
M  V30 14 1 14 15
M  V30 15 2 15 16
M  V30 16 1 1 17
M  V30 17 2 17 18
M  V30 18 1 17 19
M  V30 19 1 19 20
M  V30 20 1 20 21
M  V30 21 1 21 22
M  V30 22 1 22 23
M  V30 23 1 23 24
M  V30 24 1 24 25
M  V30 25 1 20 26
M  V30 26 2 26 27
M  V30 27 1 26 28
M  V30 28 2 28 29
M  V30 29 1 29 30
M  V30 30 2 30 31
M  V30 31 1 31 32
M  V30 32 1 5 1
M  V30 33 1 16 11
M  V30 34 1 32 28
M  V30 35 1 1 33 CFG=1
M  V30 36 1 2 34
M  V30 37 1 2 35
M  V30 38 1 3 36
M  V30 39 1 3 37
M  V30 40 1 4 38
M  V30 41 1 4 39
M  V30 42 1 8 40 CFG=3
M  V30 43 1 9 41
M  V30 44 1 9 42
M  V30 45 1 10 43
M  V30 46 1 10 44
M  V30 47 1 12 45
M  V30 48 1 13 46
M  V30 49 1 14 47
M  V30 50 1 15 48
M  V30 51 1 16 49
M  V30 52 1 19 50
M  V30 53 1 20 51 CFG=1
M  V30 54 1 21 52
M  V30 55 1 21 53
M  V30 56 1 22 54
M  V30 57 1 22 55
M  V30 58 1 23 56
M  V30 59 1 23 57
M  V30 60 1 24 58
M  V30 61 1 24 59
M  V30 62 1 25 60
M  V30 63 1 25 61
M  V30 64 1 30 62
M  V30 65 1 31 63
M  V30 END BOND
M  V30 END CTAB
M  END
