
     RDKit          3D

  0  0  0  0  0  0  0  0  0  0999 V3000
M  V30 BEGIN CTAB
M  V30 COUNTS 45 47 0 0 0
M  V30 BEGIN ATOM
M  V30 1 N -7.57246 0.602348 1.75889 0
M  V30 2 N -6.38054 0.557351 1.04849 0
M  V30 3 C -6.30233 0.377679 -0.350745 0
M  V30 4 O -7.37082 0.254652 -1.00513 0
M  V30 5 C -5.02826 0.328087 -1.07119 0
M  V30 6 C -5.0125 0.343794 -2.45093 0
M  V30 7 C -3.85122 0.293703 -3.18585 0
M  V30 8 C -2.63463 0.223715 -2.53409 0
M  V30 9 C -2.61935 0.206628 -1.16075 0
M  V30 10 C -3.81462 0.258713 -0.423461 0
M  V30 11 N -1.44973 0.138773 -0.517946 0
M  V30 12 C -0.234134 0.0836178 -1.17374 0
M  V30 13 N -0.277822 0.099904 -2.48566 0
M  V30 14 C -1.44063 0.169317 -3.20413 0
M  V30 15 O -1.43247 0.184026 -4.46583 0
M  V30 16 N 0.870507 0.00772729 -3.27173 0
M  V30 17 C 0.967811 -0.02546 -0.372157 0
M  V30 18 C 2.26175 0.147153 -0.769566 0
M  V30 19 C 3.35078 -0.0459944 0.113341 0
M  V30 20 C 3.14862 -0.416409 1.41492 0
M  V30 21 C 1.84081 -0.596508 1.84271 0
M  V30 22 C 0.799318 -0.406683 0.977623 0
M  V30 23 O 4.17469 -0.611284 2.29542 0
M  V30 24 C 5.53673 -0.473427 2.09741 0
M  V30 25 C 6.31637 -1.74482 2.35864 0
M  V30 26 C 6.15411 0.609072 2.96209 0
M  V30 27 H -7.63157 1.31713 2.48847 0
M  V30 28 H -8.41581 0.384668 1.22458 0
M  V30 29 H -5.49832 0.667584 1.58477 0
M  V30 30 H -5.95929 0.398333 -2.96128 0
M  V30 31 H -3.8283 0.307176 -4.27144 0
M  V30 32 H -3.77269 0.240585 0.654725 0
M  V30 33 H 1.289 0.808746 -3.79852 0
M  V30 34 H 1.36579 -0.918614 -3.36112 0
M  V30 35 H 2.46987 0.46085 -1.75975 0
M  V30 36 H 4.32504 0.115125 -0.304945 0
M  V30 37 H 1.70966 -0.890263 2.87737 0
M  V30 38 H -0.197009 -0.554603 1.33533 0
M  V30 39 H 5.74255 -0.182022 1.05403 0
M  V30 40 H 6.04073 -2.22595 3.31045 0
M  V30 41 H 6.147 -2.41498 1.48344 0
M  V30 42 H 7.38503 -1.45509 2.39773 0
M  V30 43 H 6.01088 0.380575 4.03692 0
M  V30 44 H 7.23128 0.714674 2.7858 0
M  V30 45 H 5.58617 1.55803 2.79678 0
M  V30 END ATOM
M  V30 BEGIN BOND
M  V30 1 1 1 2
M  V30 2 1 2 3
M  V30 3 2 3 4
M  V30 4 1 3 5
M  V30 5 2 5 6
M  V30 6 1 6 7
M  V30 7 2 7 8
M  V30 8 1 8 9
M  V30 9 2 9 10
M  V30 10 1 9 11
M  V30 11 2 11 12
M  V30 12 1 12 13
M  V30 13 1 13 14
M  V30 14 2 14 15
M  V30 15 1 13 16
M  V30 16 1 12 17
M  V30 17 2 17 18
M  V30 18 1 18 19
M  V30 19 2 19 20
M  V30 20 1 20 21
M  V30 21 2 21 22
M  V30 22 1 20 23
M  V30 23 1 23 24
M  V30 24 1 24 25
M  V30 25 1 24 26
M  V30 26 1 10 5
M  V30 27 1 22 17
M  V30 28 1 14 8
M  V30 29 1 1 27
M  V30 30 1 1 28
M  V30 31 1 2 29
M  V30 32 1 6 30
M  V30 33 1 7 31
M  V30 34 1 10 32
M  V30 35 1 16 33
M  V30 36 1 16 34
M  V30 37 1 18 35
M  V30 38 1 19 36
M  V30 39 1 21 37
M  V30 40 1 22 38
M  V30 41 1 24 39
M  V30 42 1 25 40
M  V30 43 1 25 41
M  V30 44 1 25 42
M  V30 45 1 26 43
M  V30 46 1 26 44
M  V30 47 1 26 45
M  V30 END BOND
M  V30 END CTAB
M  END
