
     RDKit          3D

  0  0  0  0  0  0  0  0  0  0999 V3000
M  V30 BEGIN CTAB
M  V30 COUNTS 38 40 0 0 0
M  V30 BEGIN ATOM
M  V30 1 C -4.39286 -1.42137 0.787752 0
M  V30 2 C -3.92704 -0.182238 1.47274 0
M  V30 3 C -3.27284 0.725774 0.444537 0
M  V30 4 N -3.91524 1.74638 -0.0270896 0
M  V30 5 C -3.3818 2.53954 -0.923749 0
M  V30 6 S -1.85743 1.82989 -1.14859 0
M  V30 7 C -1.99001 0.512746 -0.0460986 0
M  V30 8 C -1.04898 -0.52918 0.312024 0
M  V30 9 O -1.36656 -1.3904 1.20434 0
M  V30 10 N 0.216015 -0.644889 -0.279339 0
M  V30 11 C 0.650442 0.266669 -1.2988 0
M  V30 12 C 2.04097 -0.10378 -1.76859 0
M  V30 13 C 2.90554 -0.284564 -0.599177 0
M  V30 14 C 2.45022 -1.13284 0.423141 0
M  V30 15 C 1.11655 -1.71948 0.165111 0
M  V30 16 N 3.18969 -1.35015 1.50679 0
M  V30 17 C 4.40605 -0.75821 1.65634 0
M  V30 18 N 4.83389 0.0494404 0.678607 0
M  V30 19 C 4.12019 0.31133 -0.457189 0
M  V30 20 O 4.55651 1.07155 -1.3452 0
M  V30 21 N 5.16727 -1.01805 2.83112 0
M  V30 22 N -3.98072 3.6992 -1.52862 0
M  V30 23 H -3.88238 -1.49185 -0.208458 0
M  V30 24 H -5.50083 -1.29628 0.599356 0
M  V30 25 H -4.19997 -2.35079 1.3445 0
M  V30 26 H -3.25096 -0.414935 2.28535 0
M  V30 27 H -4.80379 0.354698 1.95401 0
M  V30 28 H -0.052451 0.285256 -2.17043 0
M  V30 29 H 0.713677 1.28159 -0.803179 0
M  V30 30 H 1.90458 -1.08531 -2.31157 0
M  V30 31 H 2.43943 0.638524 -2.49297 0
M  V30 32 H 0.699548 -2.10154 1.11644 0
M  V30 33 H 1.13619 -2.55324 -0.561454 0
M  V30 34 H 5.75766 0.512674 0.769076 0
M  V30 35 H 4.84718 -0.683322 3.76482 0
M  V30 36 H 6.06997 -1.54784 2.81925 0
M  V30 37 H -4.86807 3.60205 -2.04434 0
M  V30 38 H -3.52966 4.63294 -1.45233 0
M  V30 END ATOM
M  V30 BEGIN BOND
M  V30 1 1 1 2
M  V30 2 1 2 3
M  V30 3 1 3 4
M  V30 4 2 4 5
M  V30 5 1 5 6
M  V30 6 1 6 7
M  V30 7 1 7 8
M  V30 8 2 8 9
M  V30 9 1 8 10
M  V30 10 1 10 11
M  V30 11 1 11 12
M  V30 12 1 12 13
M  V30 13 2 13 14
M  V30 14 1 14 15
M  V30 15 1 14 16
M  V30 16 2 16 17
M  V30 17 1 17 18
M  V30 18 1 18 19
M  V30 19 2 19 20
M  V30 20 1 17 21
M  V30 21 1 5 22
M  V30 22 2 7 3
M  V30 23 1 15 10
M  V30 24 1 19 13
M  V30 25 1 1 23
M  V30 26 1 1 24
M  V30 27 1 1 25
M  V30 28 1 2 26
M  V30 29 1 2 27
M  V30 30 1 11 28
M  V30 31 1 11 29
M  V30 32 1 12 30
M  V30 33 1 12 31
M  V30 34 1 15 32
M  V30 35 1 15 33
M  V30 36 1 18 34
M  V30 37 1 21 35
M  V30 38 1 21 36
M  V30 39 1 22 37
M  V30 40 1 22 38
M  V30 END BOND
M  V30 END CTAB
M  END
