
     RDKit          3D

  0  0  0  0  0  0  0  0  0  0999 V3000
M  V30 BEGIN CTAB
M  V30 COUNTS 56 59 0 0 0
M  V30 BEGIN ATOM
M  V30 1 N -2.64854 4.11512 1.70727 0
M  V30 2 C -2.12912 3.12526 1.39516 0
M  V30 3 C -1.46524 1.89829 1.0157 0
M  V30 4 C -0.175338 1.94484 0.763596 0
M  V30 5 N 0.558812 3.14716 0.856772 0
M  V30 6 N 0.486029 0.737175 0.368168 0
M  V30 7 C 1.85568 0.748177 0.0883621 0
M  V30 8 C 2.34436 0.995037 -1.18193 0
M  V30 9 C 3.70489 0.997128 -1.41724 0
M  V30 10 C 4.62819 0.758191 -0.418874 0
M  V30 11 C 4.13868 0.512101 0.847842 0
M  V30 12 C 2.76399 0.504602 1.11155 0
M  V30 13 S 6.3432 0.756614 -0.695147 0
M  V30 14 O 6.62361 0.329608 -2.11811 0
M  V30 15 O 7.0606 -0.200621 0.2061 0
M  V30 16 N 7.04736 2.31199 -0.476958 0
M  V30 17 C -0.23627 -0.488318 0.254011 0
M  V30 18 C -1.5311 -0.516268 0.525327 0
M  V30 19 C -2.29271 0.690771 0.960799 0
M  V30 20 C -3.52497 0.929335 0.200075 0
M  V30 21 C -4.76316 0.599697 0.776358 0
M  V30 22 C -5.95521 0.818063 0.157146 0
M  V30 23 C -5.99666 1.38772 -1.09396 0
M  V30 24 C -4.80058 1.72224 -1.68358 0
M  V30 25 C -3.59119 1.49386 -1.04132 0
M  V30 26 Cl -2.14901 1.9635 -1.88742 0
M  V30 27 Cl -7.54022 1.65851 -1.86985 0
M  V30 28 C -2.27673 -1.76721 0.411254 0
M  V30 29 O -3.29835 -2.07806 1.04136 0
M  V30 30 C -1.70463 -2.75125 -0.587354 0
M  V30 31 C -0.26407 -2.95546 -0.15117 0
M  V30 32 C 0.493124 -1.68339 -0.175858 0
M  V30 33 C -0.317987 -3.56378 1.23926 0
M  V30 34 C 0.396022 -3.9723 -1.05034 0
M  V30 35 H 0.785556 3.66863 -0.00521087 0
M  V30 36 H 0.87081 3.51076 1.77077 0
M  V30 37 H 1.62731 1.18169 -1.96253 0
M  V30 38 H 4.09812 1.1918 -2.42025 0
M  V30 39 H 4.85876 0.323989 1.63496 0
M  V30 40 H 2.46668 0.306536 2.11506 0
M  V30 41 H 6.72821 2.92255 -1.24942 0
M  V30 42 H 6.81595 2.68816 0.46997 0
M  V30 43 H -2.59413 0.429805 2.03185 0
M  V30 44 H -4.78997 0.16596 1.77114 0
M  V30 45 H -6.89252 0.531347 0.673109 0
M  V30 46 H -4.80142 2.17112 -2.66479 0
M  V30 47 H -2.21601 -3.72748 -0.479581 0
M  V30 48 H -1.80441 -2.39908 -1.61342 0
M  V30 49 H 1.48206 -1.78506 0.333687 0
M  V30 50 H 0.763093 -1.49572 -1.26427 0
M  V30 51 H -1.1511 -3.09391 1.8089 0
M  V30 52 H 0.650744 -3.35395 1.73628 0
M  V30 53 H -0.450978 -4.66178 1.17415 0
M  V30 54 H -0.0491926 -4.96572 -0.8299 0
M  V30 55 H 1.4716 -4.0502 -0.755491 0
M  V30 56 H 0.347385 -3.72776 -2.11246 0
M  V30 END ATOM
M  V30 BEGIN BOND
M  V30 1 3 1 2
M  V30 2 1 2 3
M  V30 3 2 3 4
M  V30 4 1 4 5
M  V30 5 1 4 6
M  V30 6 1 6 7
M  V30 7 2 7 8
M  V30 8 1 8 9
M  V30 9 2 9 10
M  V30 10 1 10 11
M  V30 11 2 11 12
M  V30 12 1 10 13
M  V30 13 2 13 14
M  V30 14 2 13 15
M  V30 15 1 13 16
M  V30 16 1 6 17
M  V30 17 2 17 18
M  V30 18 1 18 19
M  V30 19 1 19 20
M  V30 20 2 20 21
M  V30 21 1 21 22
M  V30 22 2 22 23
M  V30 23 1 23 24
M  V30 24 2 24 25
M  V30 25 1 25 26
M  V30 26 1 23 27
M  V30 27 1 18 28
M  V30 28 2 28 29
M  V30 29 1 28 30
M  V30 30 1 30 31
M  V30 31 1 31 32
M  V30 32 1 31 33
M  V30 33 1 31 34
M  V30 34 1 19 3
M  V30 35 1 25 20
M  V30 36 1 12 7
M  V30 37 1 32 17
M  V30 38 1 5 35
M  V30 39 1 5 36
M  V30 40 1 8 37
M  V30 41 1 9 38
M  V30 42 1 11 39
M  V30 43 1 12 40
M  V30 44 1 16 41
M  V30 45 1 16 42
M  V30 46 1 19 43
M  V30 47 1 21 44
M  V30 48 1 22 45
M  V30 49 1 24 46
M  V30 50 1 30 47
M  V30 51 1 30 48
M  V30 52 1 32 49
M  V30 53 1 32 50
M  V30 54 1 33 51
M  V30 55 1 33 52
M  V30 56 1 33 53
M  V30 57 1 34 54
M  V30 58 1 34 55
M  V30 59 1 34 56
M  V30 END BOND
M  V30 END CTAB
M  END
