
     RDKit          3D

  0  0  0  0  0  0  0  0  0  0999 V3000
M  V30 BEGIN CTAB
M  V30 COUNTS 25 25 0 0 0
M  V30 BEGIN ATOM
M  V30 1 Br 3.02594 -2.969 -1.27265 0
M  V30 2 C 2.24628 -1.37868 -0.555914 0
M  V30 3 C 3.0263 -0.354182 -0.0670071 0
M  V30 4 C 2.42321 0.775179 0.440946 0
M  V30 5 C 1.05202 0.902924 0.470802 0
M  V30 6 C 0.253937 -0.131605 -0.0231069 0
M  V30 7 C 0.880327 -1.25091 -0.525944 0
M  V30 8 C -1.20097 -0.0459567 -0.015221 0
M  V30 9 N -1.63539 0.106586 1.36087 0
M  V30 10 C -1.7459 1.05694 -0.892008 0
M  V30 11 C -1.78336 -1.34565 -0.521875 0
M  V30 12 N 0.442085 2.09183 1.00608 0
M  V30 13 H 4.11782 -0.470673 -0.0975964 0
M  V30 14 H 3.04111 1.58017 0.825186 0
M  V30 15 H 0.312609 -2.10112 -0.93027 0
M  V30 16 H -0.852188 0.0830627 2.02184 0
M  V30 17 H -2.39154 -0.561375 1.62237 0
M  V30 18 H -1.98348 1.9093 -0.217557 0
M  V30 19 H -1.08223 1.33274 -1.71916 0
M  V30 20 H -2.7167 0.736913 -1.3257 0
M  V30 21 H -2.88606 -1.25702 -0.402163 0
M  V30 22 H -1.52257 -1.54218 -1.59177 0
M  V30 23 H -1.45965 -2.22867 0.049165 0
M  V30 24 H 0.159092 2.8302 0.349386 0
M  V30 25 H 0.279298 2.23119 2.0113 0
M  V30 END ATOM
M  V30 BEGIN BOND
M  V30 1 1 1 2
M  V30 2 2 2 3
M  V30 3 1 3 4
M  V30 4 2 4 5
M  V30 5 1 5 6
M  V30 6 2 6 7
M  V30 7 1 6 8
M  V30 8 1 8 9
M  V30 9 1 8 10
M  V30 10 1 8 11
M  V30 11 1 5 12
M  V30 12 1 7 2
M  V30 13 1 3 13
M  V30 14 1 4 14
M  V30 15 1 7 15
M  V30 16 1 9 16
M  V30 17 1 9 17
M  V30 18 1 10 18
M  V30 19 1 10 19
M  V30 20 1 10 20
M  V30 21 1 11 21
M  V30 22 1 11 22
M  V30 23 1 11 23
M  V30 24 1 12 24
M  V30 25 1 12 25
M  V30 END BOND
M  V30 END CTAB
M  END
