
     RDKit          3D

  0  0  0  0  0  0  0  0  0  0999 V3000
M  V30 BEGIN CTAB
M  V30 COUNTS 16 16 0 0 0
M  V30 BEGIN ATOM
M  V30 1 N 2.71155 -0.974474 0.436938 0
M  V30 2 N 1.76733 -0.873258 -0.571679 0
M  V30 3 C 0.663753 -0.00710739 -0.39834 0
M  V30 4 N 0.738331 1.31931 -0.66732 0
M  V30 5 C -0.303946 2.13474 -0.504987 0
M  V30 6 N -1.46781 1.63012 -0.0627161 0
M  V30 7 C -1.62469 0.323636 0.224866 0
M  V30 8 C -0.547201 -0.495068 0.0538726 0
M  V30 9 Br -0.709347 -2.35659 0.4408 0
M  V30 10 N -2.85482 -0.204049 0.680603 0
M  V30 11 H 3.58183 -1.49299 0.137239 0
M  V30 12 H 3.03461 0.00898344 0.692912 0
M  V30 13 H 1.86431 -1.41987 -1.43585 0
M  V30 14 H -0.260962 3.19315 -0.712408 0
M  V30 15 H -3.55839 -0.513526 -0.00383741 0
M  V30 16 H -3.03454 -0.273007 1.6899 0
M  V30 END ATOM
M  V30 BEGIN BOND
M  V30 1 1 1 2
M  V30 2 1 2 3
M  V30 3 2 3 4
M  V30 4 1 4 5
M  V30 5 2 5 6
M  V30 6 1 6 7
M  V30 7 2 7 8
M  V30 8 1 8 9
M  V30 9 1 7 10
M  V30 10 1 8 3
M  V30 11 1 1 11
M  V30 12 1 1 12
M  V30 13 1 2 13
M  V30 14 1 5 14
M  V30 15 1 10 15
M  V30 16 1 10 16
M  V30 END BOND
M  V30 END CTAB
M  END
