
     RDKit          3D

  0  0  0  0  0  0  0  0  0  0999 V3000
M  V30 BEGIN CTAB
M  V30 COUNTS 28 29 0 0 0
M  V30 BEGIN ATOM
M  V30 1 N 0.570799 1.45916 0.411028 0
M  V30 2 C 0.105968 0.420813 -0.444578 0
M  V30 3 C -1.32308 0.0452501 -0.220976 0
M  V30 4 C -1.68486 -1.19655 0.248097 0
M  V30 5 C -3.02923 -1.50766 0.442009 0
M  V30 6 C -3.93034 -0.502823 0.135157 0
M  V30 7 N -3.55057 0.707211 -0.32322 0
M  V30 8 C -2.26525 1.03271 -0.519033 0
M  V30 9 N -1.86222 2.30892 -1.00918 0
M  V30 10 C 0.945815 -0.812206 -0.259358 0
M  V30 11 C 2.39091 -0.661243 -0.571829 0
M  V30 12 C 3.27991 0.272083 0.126626 0
M  V30 13 C 3.42874 -1.20299 0.423001 0
M  V30 14 H 0.360086 1.36388 1.40736 0
M  V30 15 H 0.617186 2.40448 0.0244597 0
M  V30 16 H 0.201317 0.79067 -1.49827 0
M  V30 17 H -0.962411 -1.97589 0.483302 0
M  V30 18 H -3.33199 -2.47761 0.809664 0
M  V30 19 H -4.99272 -0.718066 0.276863 0
M  V30 20 H -1.90186 3.11603 -0.356794 0
M  V30 21 H -1.53563 2.45468 -1.9832 0
M  V30 22 H 0.861906 -1.17114 0.803538 0
M  V30 23 H 0.490238 -1.61303 -0.883377 0
M  V30 24 H 2.62761 -0.961361 -1.63865 0
M  V30 25 H 4.09169 0.762043 -0.479118 0
M  V30 26 H 2.96358 0.88788 0.962078 0
M  V30 27 H 4.34352 -1.68129 0.00647722 0
M  V30 28 H 3.09086 -1.54399 1.40111 0
M  V30 END ATOM
M  V30 BEGIN BOND
M  V30 1 1 1 2
M  V30 2 1 2 3
M  V30 3 2 3 4
M  V30 4 1 4 5
M  V30 5 2 5 6
M  V30 6 1 6 7
M  V30 7 2 7 8
M  V30 8 1 8 9
M  V30 9 1 2 10
M  V30 10 1 10 11
M  V30 11 1 11 12
M  V30 12 1 12 13
M  V30 13 1 8 3
M  V30 14 1 13 11
M  V30 15 1 1 14
M  V30 16 1 1 15
M  V30 17 1 2 16
M  V30 18 1 4 17
M  V30 19 1 5 18
M  V30 20 1 6 19
M  V30 21 1 9 20
M  V30 22 1 9 21
M  V30 23 1 10 22
M  V30 24 1 10 23
M  V30 25 1 11 24
M  V30 26 1 12 25
M  V30 27 1 12 26
M  V30 28 1 13 27
M  V30 29 1 13 28
M  V30 END BOND
M  V30 END CTAB
M  END
