
     RDKit          3D

  0  0  0  0  0  0  0  0  0  0999 V3000
M  V30 BEGIN CTAB
M  V30 COUNTS 57 58 0 0 0
M  V30 BEGIN ATOM
M  V30 1 O 2.78058 -0.388099 -0.0635797 0
M  V30 2 C 2.53995 -0.990078 0.666067 0
M  V30 3 N 1.509 -0.65535 1.61344 0
M  V30 4 C 0.769907 0.611651 1.52468 0 CFG=2
M  V30 5 C 1.08316 1.40531 2.74465 0
M  V30 6 O 1.85205 0.961786 3.62008 0
M  V30 7 N 0.505648 2.68795 2.92852 0
M  V30 8 C 0.810952 3.45803 4.116 0
M  V30 9 C 0.0815753 4.74029 4.0457 0
M  V30 10 O -0.653503 5.04609 3.09925 0
M  V30 11 O 0.228837 5.64983 5.09734 0
M  V30 12 C -0.705739 0.377969 1.52028 0
M  V30 13 S -1.19232 -0.642381 0.124356 0
M  V30 14 C -0.929657 0.20484 -1.43212 0
M  V30 15 C -1.82922 1.41852 -1.60192 0
M  V30 16 N -3.22292 1.05997 -1.55299 0
M  V30 17 C -3.99795 1.02397 -0.436607 0
M  V30 18 N -5.24588 0.651029 -0.758269 0
M  V30 19 C -5.3143 0.434514 -2.09443 0
M  V30 20 C -4.02974 0.699811 -2.56067 0
M  V30 21 C -3.79828 0.556876 -3.92558 0
M  V30 22 O -2.63815 0.795503 -4.3529 0
M  V30 23 N -4.79733 0.177384 -4.7245 0
M  V30 24 C -6.03159 -0.0694089 -4.22098 0
M  V30 25 N -6.29878 0.0550054 -2.91923 0
M  V30 26 N -7.03923 -0.473803 -5.16976 0
M  V30 27 C 3.22006 -2.31656 0.867551 0
M  V30 28 C 4.26779 -2.51098 -0.193295 0
M  V30 29 C 4.91606 -3.8664 0.0643966 0 CFG=1
M  V30 30 C 5.96003 -4.06938 -0.987265 0
M  V30 31 O 7.15058 -4.15578 -0.63937 0
M  V30 32 O 5.55391 -4.15287 -2.30949 0
M  V30 33 N 5.51535 -3.8054 1.37274 0
M  V30 34 H 1.30406 -1.3354 2.35985 0
M  V30 35 H 1.14199 1.1457 0.653403 0
M  V30 36 H -0.145703 3.06981 2.19004 0
M  V30 37 H 0.423011 2.87949 4.98171 0
M  V30 38 H 1.90996 3.61536 4.20166 0
M  V30 39 H 0.845984 6.4281 5.08402 0
M  V30 40 H -1.20708 1.37502 1.45273 0
M  V30 41 H -0.978203 -0.108793 2.48824 0
M  V30 42 H -1.13391 -0.520976 -2.25428 0
M  V30 43 H 0.120425 0.561344 -1.57593 0
M  V30 44 H -1.52212 1.95414 -2.50995 0
M  V30 45 H -1.60432 2.1226 -0.746432 0
M  V30 46 H -3.67932 1.25779 0.576379 0
M  V30 47 H -7.25322 -0.142559 -2.57697 0
M  V30 48 H -7.53261 -1.36238 -4.98426 0
M  V30 49 H -7.27732 0.0764727 -6.0019 0
M  V30 50 H 3.65556 -2.39202 1.88262 0
M  V30 51 H 2.43872 -3.09139 0.770176 0
M  V30 52 H 3.81499 -2.48559 -1.18757 0
M  V30 53 H 5.05844 -1.71913 -0.109563 0
M  V30 54 H 4.15177 -4.66348 0.0654799 0
M  V30 55 H 5.9221 -3.56917 -3.04248 0
M  V30 56 H 4.85234 -4.20169 2.07193 0
M  V30 57 H 5.67365 -2.81308 1.66059 0
M  V30 END ATOM
M  V30 BEGIN BOND
M  V30 1 2 1 2
M  V30 2 1 2 3
M  V30 3 1 3 4
M  V30 4 1 4 5
M  V30 5 2 5 6
M  V30 6 1 5 7
M  V30 7 1 7 8
M  V30 8 1 8 9
M  V30 9 2 9 10
M  V30 10 1 9 11
M  V30 11 1 4 12
M  V30 12 1 12 13
M  V30 13 1 13 14
M  V30 14 1 14 15
M  V30 15 1 15 16
M  V30 16 1 16 17
M  V30 17 2 17 18
M  V30 18 1 18 19
M  V30 19 2 19 20
M  V30 20 1 20 21
M  V30 21 2 21 22
M  V30 22 1 21 23
M  V30 23 2 23 24
M  V30 24 1 24 25
M  V30 25 1 24 26
M  V30 26 1 2 27
M  V30 27 1 27 28
M  V30 28 1 28 29
M  V30 29 1 29 30
M  V30 30 2 30 31
M  V30 31 1 30 32
M  V30 32 1 29 33
M  V30 33 1 20 16
M  V30 34 1 25 19
M  V30 35 1 3 34
M  V30 36 1 4 35 CFG=3
M  V30 37 1 7 36
M  V30 38 1 8 37
M  V30 39 1 8 38
M  V30 40 1 11 39
M  V30 41 1 12 40
M  V30 42 1 12 41
M  V30 43 1 14 42
M  V30 44 1 14 43
M  V30 45 1 15 44
M  V30 46 1 15 45
M  V30 47 1 17 46
M  V30 48 1 25 47
M  V30 49 1 26 48
M  V30 50 1 26 49
M  V30 51 1 27 50
M  V30 52 1 27 51
M  V30 53 1 28 52
M  V30 54 1 28 53
M  V30 55 1 29 54 CFG=1
M  V30 56 1 32 55
M  V30 57 1 33 56
M  V30 58 1 33 57
M  V30 END BOND
M  V30 END CTAB
M  END
