
     RDKit          3D

  0  0  0  0  0  0  0  0  0  0999 V3000
M  V30 BEGIN CTAB
M  V30 COUNTS 25 25 0 0 0
M  V30 BEGIN ATOM
M  V30 1 C 3.06272 -0.695261 1.03114 0
M  V30 2 N 2.25757 -0.245151 -0.0626748 0
M  V30 3 C 2.83712 0.148258 -1.32937 0
M  V30 4 C 0.853922 -0.190231 0.0605595 0
M  V30 5 N 0.246109 0.930594 -0.351988 0
M  V30 6 C -1.08189 1.07464 -0.319098 0
M  V30 7 N -1.6811 2.28997 -0.772776 0
M  V30 8 N -1.88251 3.35802 0.104008 0
M  V30 9 N -1.81496 0.048488 0.147145 0
M  V30 10 C -1.23103 -1.0886 0.567134 0
M  V30 11 N -2.06616 -2.14302 1.00255 0
M  V30 12 N -3.21795 -2.53128 0.284915 0
M  V30 13 N 0.105687 -1.20007 0.52104 0
M  V30 14 H 4.04076 -1.10238 0.695099 0
M  V30 15 H 3.30907 0.206897 1.63542 0
M  V30 16 H 2.48118 -1.40807 1.62096 0
M  V30 17 H 2.26599 1.02475 -1.76688 0
M  V30 18 H 3.89416 0.431449 -1.27484 0
M  V30 19 H 2.73683 -0.644628 -2.10743 0
M  V30 20 H -1.95849 2.33693 -1.78142 0
M  V30 21 H -1.98362 2.991 1.07769 0
M  V30 22 H -2.79877 3.78256 -0.16264 0
M  V30 23 H -1.83426 -2.64805 1.86793 0
M  V30 24 H -3.66146 -1.64665 -0.117426 0
M  V30 25 H -2.87891 -3.08017 -0.569066 0
M  V30 END ATOM
M  V30 BEGIN BOND
M  V30 1 1 1 2
M  V30 2 1 2 3
M  V30 3 1 2 4
M  V30 4 2 4 5
M  V30 5 1 5 6
M  V30 6 1 6 7
M  V30 7 1 7 8
M  V30 8 2 6 9
M  V30 9 1 9 10
M  V30 10 1 10 11
M  V30 11 1 11 12
M  V30 12 2 10 13
M  V30 13 1 13 4
M  V30 14 1 1 14
M  V30 15 1 1 15
M  V30 16 1 1 16
M  V30 17 1 3 17
M  V30 18 1 3 18
M  V30 19 1 3 19
M  V30 20 1 7 20
M  V30 21 1 8 21
M  V30 22 1 8 22
M  V30 23 1 11 23
M  V30 24 1 12 24
M  V30 25 1 12 25
M  V30 END BOND
M  V30 END CTAB
M  END
