
     RDKit          3D

  0  0  0  0  0  0  0  0  0  0999 V3000
M  V30 BEGIN CTAB
M  V30 COUNTS 50 54 0 0 0
M  V30 BEGIN ATOM
M  V30 1 N -8.09526 -1.70773 0.725769 0
M  V30 2 C -7.47843 -0.442534 0.550805 0
M  V30 3 C -8.23582 0.709436 0.646257 0
M  V30 4 C -7.64714 1.94187 0.478219 0
M  V30 5 C -6.30512 2.03574 0.214177 0
M  V30 6 C -5.492 0.892544 0.106749 0
M  V30 7 S -3.78816 1.14133 -0.174532 0
M  V30 8 C -2.82792 -0.178405 -0.780773 0
M  V30 9 C -3.38277 -1.27708 -1.39403 0
M  V30 10 C -2.53236 -2.29219 -1.80172 0
M  V30 11 C -1.17029 -2.239 -1.6179 0
M  V30 12 C -0.640744 -1.12863 -1.00337 0
M  V30 13 C -1.43722 -0.09697 -0.580412 0
M  V30 14 C -0.831741 1.06146 0.0668225 0
M  V30 15 O -1.5535 2.00492 0.454389 0
M  V30 16 C 0.606226 1.1701 0.286193 0
M  V30 17 C 1.41644 0.123961 -0.142412 0
M  V30 18 C 0.820743 -1.03469 -0.788636 0
M  V30 19 O 1.56235 -1.97464 -1.17217 0
M  V30 20 C 2.77678 0.174855 0.0392467 0
M  V30 21 S 3.76081 -1.19252 -0.52958 0
M  V30 22 C 5.47424 -0.853231 -0.163544 0
M  V30 23 C 6.32543 -0.193439 -1.03926 0
M  V30 24 C 7.64764 0.0521599 -0.721852 0
M  V30 25 N 8.50165 0.729106 -1.63269 0
M  V30 26 C 8.14484 -0.361992 0.487934 0
M  V30 27 C 7.30294 -1.02867 1.38443 0
M  V30 28 C 5.98014 -1.26473 1.0461 0
M  V30 29 C 3.30932 1.28663 0.654845 0
M  V30 30 C 2.54146 2.33633 1.09009 0
M  V30 31 C 1.18287 2.27891 0.90538 0
M  V30 32 C -6.1301 -0.308457 0.284478 0
M  V30 33 H -8.09915 -2.14102 1.66017 0
M  V30 34 H -8.5336 -2.18703 -0.071156 0
M  V30 35 H -9.30585 0.626366 0.856553 0
M  V30 36 H -8.29663 2.80431 0.566211 0
M  V30 37 H -5.83162 2.99615 0.0802017 0
M  V30 38 H -4.4308 -1.40031 -1.61172 0
M  V30 39 H -3.00703 -3.15445 -2.28613 0
M  V30 40 H -0.524377 -3.03685 -1.94093 0
M  V30 41 H 5.90748 0.119458 -1.98035 0
M  V30 42 H 8.31849 1.72227 -1.89673 0
M  V30 43 H 9.33631 0.286914 -2.07744 0
M  V30 44 H 9.18351 -0.160421 0.718675 0
M  V30 45 H 7.74158 -1.33296 2.32022 0
M  V30 46 H 5.38424 -1.7872 1.78955 0
M  V30 47 H 4.4026 1.27531 0.774794 0
M  V30 48 H 3.00832 3.17161 1.56026 0
M  V30 49 H 0.509859 3.06485 1.21999 0
M  V30 50 H -5.56865 -1.23144 0.252215 0
M  V30 END ATOM
M  V30 BEGIN BOND
M  V30 1 1 1 2
M  V30 2 2 2 3
M  V30 3 1 3 4
M  V30 4 2 4 5
M  V30 5 1 5 6
M  V30 6 1 6 7
M  V30 7 1 7 8
M  V30 8 2 8 9
M  V30 9 1 9 10
M  V30 10 2 10 11
M  V30 11 1 11 12
M  V30 12 2 12 13
M  V30 13 1 13 14
M  V30 14 2 14 15
M  V30 15 1 14 16
M  V30 16 2 16 17
M  V30 17 1 17 18
M  V30 18 2 18 19
M  V30 19 1 17 20
M  V30 20 1 20 21
M  V30 21 1 21 22
M  V30 22 2 22 23
M  V30 23 1 23 24
M  V30 24 1 24 25
M  V30 25 2 24 26
M  V30 26 1 26 27
M  V30 27 2 27 28
M  V30 28 2 20 29
M  V30 29 1 29 30
M  V30 30 2 30 31
M  V30 31 2 6 32
M  V30 32 1 32 2
M  V30 33 1 13 8
M  V30 34 1 31 16
M  V30 35 1 18 12
M  V30 36 1 28 22
M  V30 37 1 1 33
M  V30 38 1 1 34
M  V30 39 1 3 35
M  V30 40 1 4 36
M  V30 41 1 5 37
M  V30 42 1 9 38
M  V30 43 1 10 39
M  V30 44 1 11 40
M  V30 45 1 23 41
M  V30 46 1 25 42
M  V30 47 1 25 43
M  V30 48 1 26 44
M  V30 49 1 27 45
M  V30 50 1 28 46
M  V30 51 1 29 47
M  V30 52 1 30 48
M  V30 53 1 31 49
M  V30 54 1 32 50
M  V30 END BOND
M  V30 END CTAB
M  END
