
     RDKit          3D

  0  0  0  0  0  0  0  0  0  0999 V3000
M  V30 BEGIN CTAB
M  V30 COUNTS 25 26 0 0 0
M  V30 BEGIN ATOM
M  V30 1 N -1.22783 2.59856 -0.772826 0
M  V30 2 C -1.70425 1.23864 -0.677075 0
M  V30 3 C -0.955522 0.451132 0.355538 0
M  V30 4 C 0.465662 0.361609 0.0428691 0
M  V30 5 C 1.16411 0.844196 -1.02598 0
M  V30 6 N 2.45972 0.62484 -1.07145 0
M  V30 7 C 3.04139 -0.045399 -0.0964799 0
M  V30 8 S 1.73728 -0.392857 0.940377 0
M  V30 9 N 4.42449 -0.397653 0.0545043 0
M  V30 10 C -1.67893 -0.838169 0.560063 0
M  V30 11 C -1.22737 -1.876 1.50351 0
M  V30 12 C -1.25748 -2.12638 -0.0268936 0
M  V30 13 F -1.07056 1.12727 1.60544 0
M  V30 14 H -1.14229 3.05658 0.139306 0
M  V30 15 H -1.74326 3.16592 -1.46817 0
M  V30 16 H -2.80376 1.31393 -0.418928 0
M  V30 17 H -1.69649 0.740313 -1.67463 0
M  V30 18 H 0.703814 1.42116 -1.87648 0
M  V30 19 H 5.11918 -0.0573637 -0.605641 0
M  V30 20 H 4.73308 -1.00366 0.848087 0
M  V30 21 H -2.79911 -0.679541 0.563844 0
M  V30 22 H -0.240993 -1.91971 1.96496 0
M  V30 23 H -1.99605 -2.47757 2.05345 0
M  V30 24 H -0.275217 -2.25937 -0.526004 0
M  V30 25 H -2.02961 -2.87049 -0.391387 0
M  V30 END ATOM
M  V30 BEGIN BOND
M  V30 1 1 1 2
M  V30 2 1 2 3
M  V30 3 1 3 4
M  V30 4 2 4 5
M  V30 5 1 5 6
M  V30 6 2 6 7
M  V30 7 1 7 8
M  V30 8 1 7 9
M  V30 9 1 3 10
M  V30 10 1 10 11
M  V30 11 1 11 12
M  V30 12 1 3 13
M  V30 13 1 8 4
M  V30 14 1 12 10
M  V30 15 1 1 14
M  V30 16 1 1 15
M  V30 17 1 2 16
M  V30 18 1 2 17
M  V30 19 1 5 18
M  V30 20 1 9 19
M  V30 21 1 9 20
M  V30 22 1 10 21
M  V30 23 1 11 22
M  V30 24 1 11 23
M  V30 25 1 12 24
M  V30 26 1 12 25
M  V30 END BOND
M  V30 END CTAB
M  END
