
     RDKit          3D

  0  0  0  0  0  0  0  0  0  0999 V3000
M  V30 BEGIN CTAB
M  V30 COUNTS 38 39 0 0 0
M  V30 BEGIN ATOM
M  V30 1 N -5.83309 -1.52353 -2.7259 0
M  V30 2 C -5.29215 -1.15937 -1.38505 0
M  V30 3 C -3.95872 -0.521128 -1.56769 0
M  V30 4 C -3.80953 0.814886 -1.86947 0
M  V30 5 C -2.55382 1.33952 -2.0714 0
M  V30 6 C -1.43177 0.545282 -1.96781 0
M  V30 7 C -1.5368 -0.821475 -1.65902 0
M  V30 8 C -2.81014 -1.27343 -1.47686 0
M  V30 9 C -0.35052 -1.63923 -1.53233 0
M  V30 10 N 0.749428 -0.938902 -0.700744 0
M  V30 11 C 0.752193 -0.728811 0.43646 0
M  V30 12 S -0.901418 -1.42071 1.06774 0
M  V30 13 N 1.17114 -0.276739 1.79843 0
M  V30 14 C 2.44615 0.34708 1.9139 0
M  V30 15 C 3.25893 0.654985 0.870708 0
M  V30 16 C 4.52853 1.23635 0.977746 0
M  V30 17 C 5.00474 1.5278 2.27292 0
M  V30 18 C 4.18656 1.21901 3.32506 0
M  V30 19 C 2.92836 0.643546 3.20815 0
M  V30 20 Cl 1.97802 0.290226 4.62539 0
M  V30 21 N 6.29568 2.1137 2.40342 0
M  V30 22 H -5.00584 -2.01701 -3.19504 0
M  V30 23 H -5.89407 -0.566634 -3.21428 0
M  V30 24 H -5.17526 -2.09645 -0.825781 0
M  V30 25 H -5.99145 -0.423862 -0.966667 0
M  V30 26 H -4.7154 1.41396 -1.93223 0
M  V30 27 H -2.4692 2.40722 -2.31274 0
M  V30 28 H -0.470757 0.957312 -2.15462 0
M  V30 29 H -2.91605 -2.3449 -1.24127 0
M  V30 30 H -0.544363 -2.51845 -0.804733 0
M  V30 31 H 0.0312705 -2.09975 -2.41308 0
M  V30 32 H 1.53202 -0.693627 -1.47404 0
M  V30 33 H 0.549415 -0.425312 2.57792 0
M  V30 34 H 2.9826 0.438149 -0.168973 0
M  V30 35 H 5.14656 1.45894 0.139964 0
M  V30 36 H 4.6068 1.45346 4.32464 0
M  V30 37 H 6.39125 2.98623 2.96283 0
M  V30 38 H 7.1207 1.64167 1.92647 0
M  V30 END ATOM
M  V30 BEGIN BOND
M  V30 1 1 1 2
M  V30 2 1 2 3
M  V30 3 2 3 4
M  V30 4 1 4 5
M  V30 5 2 5 6
M  V30 6 1 6 7
M  V30 7 2 7 8
M  V30 8 1 7 9
M  V30 9 1 9 10
M  V30 10 1 10 11
M  V30 11 2 11 12
M  V30 12 1 11 13
M  V30 13 1 13 14
M  V30 14 2 14 15
M  V30 15 1 15 16
M  V30 16 2 16 17
M  V30 17 1 17 18
M  V30 18 2 18 19
M  V30 19 1 19 20
M  V30 20 1 17 21
M  V30 21 1 8 3
M  V30 22 1 19 14
M  V30 23 1 1 22
M  V30 24 1 1 23
M  V30 25 1 2 24
M  V30 26 1 2 25
M  V30 27 1 4 26
M  V30 28 1 5 27
M  V30 29 1 6 28
M  V30 30 1 8 29
M  V30 31 1 9 30
M  V30 32 1 9 31
M  V30 33 1 10 32
M  V30 34 1 13 33
M  V30 35 1 15 34
M  V30 36 1 16 35
M  V30 37 1 18 36
M  V30 38 1 21 37
M  V30 39 1 21 38
M  V30 END BOND
M  V30 END CTAB
M  END
