
     RDKit          3D

  0  0  0  0  0  0  0  0  0  0999 V3000
M  V30 BEGIN CTAB
M  V30 COUNTS 45 48 0 0 0
M  V30 BEGIN ATOM
M  V30 1 C -5.30879 0.340859 2.26337 0
M  V30 2 N -4.44863 0.25936 1.07423 0
M  V30 3 C -4.03324 1.36335 0.435984 0
M  V30 4 O -4.40209 2.47177 0.886252 0
M  V30 5 C -3.21684 1.23962 -0.690417 0
M  V30 6 C -2.80589 0.0307094 -1.19271 0
M  V30 7 N -3.26524 -1.05625 -0.494755 0
M  V30 8 C -4.04995 -0.928036 0.586989 0
M  V30 9 N -4.50126 -2.09012 1.27807 0
M  V30 10 C -1.94857 -0.124591 -2.35547 0 CFG=1
M  V30 11 C -1.51908 1.02921 -3.20557 0
M  V30 12 C -0.521626 0.194904 -2.46184 0 CFG=1
M  V30 13 C 0.341387 0.801881 -1.48591 0
M  V30 14 C 0.167894 2.07661 -1.0527 0
M  V30 15 C 1.01273 2.64695 -0.0920726 0
M  V30 16 C 2.03305 1.879 0.407728 0
M  V30 17 C 2.25407 0.578061 0.0015953 0
M  V30 18 C 1.39731 0.0748059 -0.938329 0
M  V30 19 C 3.35763 -0.17851 0.575417 0
M  V30 20 C 3.78299 0.0172096 1.85752 0
M  V30 21 C 4.8453 -0.719589 2.39201 0
M  V30 22 C 5.47871 -1.65547 1.62998 0
M  V30 23 C 5.06455 -1.87222 0.324552 0
M  V30 24 N 5.7454 -2.85144 -0.435991 0
M  V30 25 C 3.99942 -1.12482 -0.192596 0
M  V30 26 H -5.56437 -0.684943 2.55542 0
M  V30 27 H -6.27892 0.846167 1.98644 0
M  V30 28 H -4.81747 0.915669 3.07625 0
M  V30 29 H -2.92342 2.16266 -1.16616 0
M  V30 30 H -4.12667 -2.36217 2.21293 0
M  V30 31 H -5.22997 -2.72907 0.884724 0
M  V30 32 H -2.22639 -1.05547 -2.95275 0
M  V30 33 H -1.58587 0.944942 -4.31517 0
M  V30 34 H -1.78267 2.05329 -2.87244 0
M  V30 35 H 0.0552992 -0.524181 -3.14572 0
M  V30 36 H -0.603932 2.73585 -1.40736 0
M  V30 37 H 0.841856 3.67291 0.230969 0
M  V30 38 H 2.68353 2.32458 1.15021 0
M  V30 39 H 1.57248 -0.953153 -1.25875 0
M  V30 40 H 3.2885 0.755891 2.46962 0
M  V30 41 H 5.15298 -0.537666 3.40749 0
M  V30 42 H 6.31141 -2.23651 2.04085 0
M  V30 43 H 5.64731 -3.86702 -0.311966 0
M  V30 44 H 6.40717 -2.52683 -1.19121 0
M  V30 45 H 3.71992 -1.33822 -1.2195 0
M  V30 END ATOM
M  V30 BEGIN BOND
M  V30 1 1 1 2
M  V30 2 1 2 3
M  V30 3 2 3 4
M  V30 4 1 3 5
M  V30 5 2 5 6
M  V30 6 1 6 7
M  V30 7 2 7 8
M  V30 8 1 8 9
M  V30 9 1 6 10
M  V30 10 1 10 11
M  V30 11 1 11 12
M  V30 12 1 12 13
M  V30 13 2 13 14
M  V30 14 1 14 15
M  V30 15 2 15 16
M  V30 16 1 16 17
M  V30 17 2 17 18
M  V30 18 1 17 19
M  V30 19 2 19 20
M  V30 20 1 20 21
M  V30 21 2 21 22
M  V30 22 1 22 23
M  V30 23 1 23 24
M  V30 24 2 23 25
M  V30 25 1 8 2
M  V30 26 1 12 10
M  V30 27 1 18 13
M  V30 28 1 25 19
M  V30 29 1 1 26
M  V30 30 1 1 27
M  V30 31 1 1 28
M  V30 32 1 5 29
M  V30 33 1 9 30
M  V30 34 1 9 31
M  V30 35 1 10 32 CFG=3
M  V30 36 1 11 33
M  V30 37 1 11 34
M  V30 38 1 12 35 CFG=3
M  V30 39 1 14 36
M  V30 40 1 15 37
M  V30 41 1 16 38
M  V30 42 1 18 39
M  V30 43 1 20 40
M  V30 44 1 21 41
M  V30 45 1 22 42
M  V30 46 1 24 43
M  V30 47 1 24 44
M  V30 48 1 25 45
M  V30 END BOND
M  V30 END CTAB
M  END
