
     RDKit          3D

  0  0  0  0  0  0  0  0  0  0999 V3000
M  V30 BEGIN CTAB
M  V30 COUNTS 30 30 0 0 0
M  V30 BEGIN ATOM
M  V30 1 N -3.71068 1.16187 -0.710604 0
M  V30 2 C -3.45382 0.44555 0.489525 0
M  V30 3 C -2.47358 -0.664812 0.265649 0
M  V30 4 C -1.17291 -0.0898168 -0.231997 0 CFG=1
M  V30 5 C -0.528953 0.87026 0.701552 0
M  V30 6 C 0.939476 0.807436 0.244002 0
M  V30 7 N 1.1221 -0.477711 -0.317909 0
M  V30 8 C -0.11075 -1.17209 -0.376823 0
M  V30 9 C 2.26282 -1.1774 0.132848 0
M  V30 10 C 3.58058 -0.607432 -0.343897 0
M  V30 11 N 3.82759 0.74208 0.0534374 0
M  V30 12 H -4.40288 0.794149 -1.31148 0
M  V30 13 H -3.54588 2.13818 -0.713444 0
M  V30 14 H -4.438 0.0206414 0.847094 0
M  V30 15 H -3.14596 1.16993 1.25211 0
M  V30 16 H -2.85644 -1.33671 -0.531738 0
M  V30 17 H -2.25907 -1.19498 1.21465 0
M  V30 18 H -1.26387 0.394735 -1.21897 0
M  V30 19 H -0.613169 0.507608 1.72734 0
M  V30 20 H -0.906008 1.91589 0.606296 0
M  V30 21 H 1.55378 0.996182 1.16562 0
M  V30 22 H 1.07156 1.59822 -0.522973 0
M  V30 23 H -0.253164 -1.69027 -1.36358 0
M  V30 24 H -0.284209 -1.89915 0.447938 0
M  V30 25 H 2.28314 -1.14327 1.26712 0
M  V30 26 H 2.24323 -2.24851 -0.167104 0
M  V30 27 H 4.3954 -1.24005 0.102693 0
M  V30 28 H 3.6343 -0.74805 -1.44992 0
M  V30 29 H 3.95007 0.904607 1.05568 0
M  V30 30 H 4.55529 1.22293 -0.47556 0
M  V30 END ATOM
M  V30 BEGIN BOND
M  V30 1 1 1 2
M  V30 2 1 2 3
M  V30 3 1 3 4
M  V30 4 1 4 5
M  V30 5 1 5 6
M  V30 6 1 6 7
M  V30 7 1 7 8
M  V30 8 1 7 9
M  V30 9 1 9 10
M  V30 10 1 10 11
M  V30 11 1 8 4
M  V30 12 1 1 12
M  V30 13 1 1 13
M  V30 14 1 2 14
M  V30 15 1 2 15
M  V30 16 1 3 16
M  V30 17 1 3 17
M  V30 18 1 4 18 CFG=3
M  V30 19 1 5 19
M  V30 20 1 5 20
M  V30 21 1 6 21
M  V30 22 1 6 22
M  V30 23 1 8 23
M  V30 24 1 8 24
M  V30 25 1 9 25
M  V30 26 1 9 26
M  V30 27 1 10 27
M  V30 28 1 10 28
M  V30 29 1 11 29
M  V30 30 1 11 30
M  V30 END BOND
M  V30 END CTAB
M  END
