
     RDKit          3D

  0  0  0  0  0  0  0  0  0  0999 V3000
M  V30 BEGIN CTAB
M  V30 COUNTS 51 52 0 0 0
M  V30 BEGIN ATOM
M  V30 1 C -4.00185 -0.118564 2.01371 0
M  V30 2 C -3.75085 0.858304 0.899986 0
M  V30 3 C -2.91762 0.286663 -0.245381 0
M  V30 4 O -3.76806 -0.850987 -0.547681 0
M  V30 5 C -3.00919 1.15087 -1.46102 0
M  V30 6 C -2.53585 2.55845 -1.27133 0
M  V30 7 C -1.61549 -0.258342 0.0764383 0
M  V30 8 C -0.982057 -1.14553 -0.843908 0
M  V30 9 O -1.71979 -1.51628 -1.95782 0
M  V30 10 C -1.1383 -2.39159 -2.89797 0
M  V30 11 C 0.274043 -1.62583 -0.672161 0
M  V30 12 C 1.02259 -1.27517 0.424681 0
M  V30 13 C 2.3848 -1.79851 0.559329 0
M  V30 14 C 3.467 -0.827768 0.363094 0
M  V30 15 C 4.1637 -0.269812 1.41589 0
M  V30 16 N 5.12722 0.613653 1.13674 0
M  V30 17 C 5.48072 1.00984 -0.0850229 0
M  V30 18 N 6.5062 1.94978 -0.347265 0
M  V30 19 N 4.81395 0.47722 -1.11943 0
M  V30 20 C 3.8146 -0.434828 -0.899941 0
M  V30 21 N 3.18968 -0.930814 -2.09758 0
M  V30 22 C 0.460125 -0.428069 1.33456 0
M  V30 23 C -0.847444 0.0686683 1.14802 0
M  V30 24 O -1.3043 0.919367 2.11681 0
M  V30 25 C -0.564085 1.30434 3.25633 0
M  V30 26 H -3.95727 0.419197 2.98292 0
M  V30 27 H -5.07889 -0.461319 1.91672 0
M  V30 28 H -3.33489 -1.0109 2.0007 0
M  V30 29 H -4.77938 1.09335 0.468895 0
M  V30 30 H -3.36091 1.77752 1.32715 0
M  V30 31 H -4.5364 -0.552538 -1.07701 0
M  V30 32 H -4.0596 1.16353 -1.8443 0
M  V30 33 H -2.39735 0.718071 -2.26691 0
M  V30 34 H -1.44505 2.66709 -1.45004 0
M  V30 35 H -3.0334 3.20902 -2.02113 0
M  V30 36 H -2.78572 2.98604 -0.284291 0
M  V30 37 H -0.874008 -3.32589 -2.31871 0
M  V30 38 H -0.214595 -1.96347 -3.33852 0
M  V30 39 H -1.86401 -2.67187 -3.69918 0
M  V30 40 H 0.659035 -2.31063 -1.42985 0
M  V30 41 H 2.52859 -2.5994 -0.200854 0
M  V30 42 H 2.53042 -2.33124 1.53983 0
M  V30 43 H 3.91744 -0.555618 2.41432 0
M  V30 44 H 7.51035 1.73418 -0.184993 0
M  V30 45 H 6.25998 2.89142 -0.714957 0
M  V30 46 H 3.45045 -1.85595 -2.49258 0
M  V30 47 H 2.45917 -0.370375 -2.59629 0
M  V30 48 H 1.01114 -0.130944 2.20455 0
M  V30 49 H -1.2508 1.86422 3.92497 0
M  V30 50 H 0.341538 1.88622 2.98205 0
M  V30 51 H -0.245596 0.405205 3.85843 0
M  V30 END ATOM
M  V30 BEGIN BOND
M  V30 1 1 1 2
M  V30 2 1 2 3
M  V30 3 1 3 4
M  V30 4 1 3 5
M  V30 5 1 5 6
M  V30 6 1 3 7
M  V30 7 2 7 8
M  V30 8 1 8 9
M  V30 9 1 9 10
M  V30 10 1 8 11
M  V30 11 2 11 12
M  V30 12 1 12 13
M  V30 13 1 13 14
M  V30 14 2 14 15
M  V30 15 1 15 16
M  V30 16 2 16 17
M  V30 17 1 17 18
M  V30 18 1 17 19
M  V30 19 2 19 20
M  V30 20 1 20 21
M  V30 21 1 12 22
M  V30 22 2 22 23
M  V30 23 1 23 24
M  V30 24 1 24 25
M  V30 25 1 23 7
M  V30 26 1 20 14
M  V30 27 1 1 26
M  V30 28 1 1 27
M  V30 29 1 1 28
M  V30 30 1 2 29
M  V30 31 1 2 30
M  V30 32 1 4 31
M  V30 33 1 5 32
M  V30 34 1 5 33
M  V30 35 1 6 34
M  V30 36 1 6 35
M  V30 37 1 6 36
M  V30 38 1 10 37
M  V30 39 1 10 38
M  V30 40 1 10 39
M  V30 41 1 11 40
M  V30 42 1 13 41
M  V30 43 1 13 42
M  V30 44 1 15 43
M  V30 45 1 18 44
M  V30 46 1 18 45
M  V30 47 1 21 46
M  V30 48 1 21 47
M  V30 49 1 22 48
M  V30 50 1 25 49
M  V30 51 1 25 50
M  V30 52 1 25 51
M  V30 END BOND
M  V30 END CTAB
M  END
