
     RDKit          3D

  0  0  0  0  0  0  0  0  0  0999 V3000
M  V30 BEGIN CTAB
M  V30 COUNTS 52 53 0 0 0
M  V30 BEGIN ATOM
M  V30 1 N 7.22513 0.191582 -0.855533 0
M  V30 2 C 6.01745 -0.276504 -0.213102 0
M  V30 3 C 4.84568 0.335434 -0.911972 0
M  V30 4 C 3.52406 -0.0910341 -0.316949 0
M  V30 5 C 3.42809 0.312236 1.14512 0
M  V30 6 C 2.07479 -0.133638 1.7194 0 CFG=1
M  V30 7 C 0.983414 0.489866 0.987226 0
M  V30 8 O 0.961467 1.78304 0.967139 0
M  V30 9 N -0.05029 -0.134728 0.298935 0
M  V30 10 C -0.16557 -1.56544 0.224907 0
M  V30 11 C -1.35654 -1.87248 -0.69366 0
M  V30 12 C -2.6131 -1.24618 -0.131289 0 CFG=1
M  V30 13 C -2.39533 0.205288 0.237326 0 CFG=1
M  V30 14 C -1.10802 0.618797 -0.406279 0
M  V30 15 N -3.50802 1.05123 0.0168125 0
M  V30 16 C -4.51625 1.00065 0.923587 0
M  V30 17 C -5.64995 1.7759 0.816482 0
M  V30 18 C -5.75448 2.6348 -0.259632 0
M  V30 19 O -6.77681 3.36425 -0.397338 0
M  V30 20 N -4.75686 2.68582 -1.15822 0
M  V30 21 C -3.68119 1.90512 -0.995448 0
M  V30 22 O -2.77618 1.98161 -1.85147 0
M  V30 23 C -3.69625 -1.4206 -1.16903 0
M  V30 24 O -2.98214 -2.01044 0.977405 0
M  V30 25 N 2.09136 -1.56683 1.74791 0
M  V30 26 H 7.48645 -0.413171 -1.63606 0
M  V30 27 H 7.10635 1.17523 -1.09276 0
M  V30 28 H 6.02594 -0.0317273 0.857722 0
M  V30 29 H 5.95918 -1.37593 -0.299719 0
M  V30 30 H 4.82958 0.0246015 -1.97665 0
M  V30 31 H 4.87531 1.44492 -0.874566 0
M  V30 32 H 3.45889 -1.18113 -0.41059 0
M  V30 33 H 2.72501 0.351674 -0.922294 0
M  V30 34 H 3.50002 1.40735 1.24417 0
M  V30 35 H 4.19342 -0.220684 1.72463 0
M  V30 36 H 2.10999 0.219859 2.79641 0
M  V30 37 H 0.713541 -1.96313 -0.340838 0
M  V30 38 H -0.332727 -2.06685 1.19945 0
M  V30 39 H -1.16194 -1.66811 -1.74098 0
M  V30 40 H -1.52807 -2.98251 -0.626303 0
M  V30 41 H -2.19446 0.204513 1.34882 0
M  V30 42 H -0.861582 1.69062 -0.224248 0
M  V30 43 H -0.991861 0.330676 -1.46105 0
M  V30 44 H -4.46333 0.327379 1.79136 0
M  V30 45 H -6.44422 1.71182 1.56369 0
M  V30 46 H -4.85832 3.35129 -1.97485 0
M  V30 47 H -3.39924 -1.10544 -2.17291 0
M  V30 48 H -4.67141 -1.01029 -0.83447 0
M  V30 49 H -3.86744 -2.53552 -1.23763 0
M  V30 50 H -2.49672 -1.74924 1.78255 0
M  V30 51 H 2.96862 -1.99605 1.3939 0
M  V30 52 H 1.95454 -1.95793 2.71452 0
M  V30 END ATOM
M  V30 BEGIN BOND
M  V30 1 1 1 2
M  V30 2 1 2 3
M  V30 3 1 3 4
M  V30 4 1 4 5
M  V30 5 1 5 6
M  V30 6 1 6 7
M  V30 7 2 7 8
M  V30 8 1 7 9
M  V30 9 1 9 10
M  V30 10 1 10 11
M  V30 11 1 11 12
M  V30 12 1 12 13
M  V30 13 1 13 14
M  V30 14 1 13 15
M  V30 15 1 15 16
M  V30 16 2 16 17
M  V30 17 1 17 18
M  V30 18 2 18 19
M  V30 19 1 18 20
M  V30 20 1 20 21
M  V30 21 2 21 22
M  V30 22 1 12 23
M  V30 23 1 12 24 CFG=1
M  V30 24 1 6 25
M  V30 25 1 14 9
M  V30 26 1 21 15
M  V30 27 1 1 26
M  V30 28 1 1 27
M  V30 29 1 2 28
M  V30 30 1 2 29
M  V30 31 1 3 30
M  V30 32 1 3 31
M  V30 33 1 4 32
M  V30 34 1 4 33
M  V30 35 1 5 34
M  V30 36 1 5 35
M  V30 37 1 6 36 CFG=1
M  V30 38 1 10 37
M  V30 39 1 10 38
M  V30 40 1 11 39
M  V30 41 1 11 40
M  V30 42 1 13 41 CFG=1
M  V30 43 1 14 42
M  V30 44 1 14 43
M  V30 45 1 16 44
M  V30 46 1 17 45
M  V30 47 1 20 46
M  V30 48 1 23 47
M  V30 49 1 23 48
M  V30 50 1 23 49
M  V30 51 1 24 50
M  V30 52 1 25 51
M  V30 53 1 25 52
M  V30 END BOND
M  V30 END CTAB
M  END
