
     RDKit          3D

  0  0  0  0  0  0  0  0  0  0999 V3000
M  V30 BEGIN CTAB
M  V30 COUNTS 51 54 0 0 0
M  V30 BEGIN ATOM
M  V30 1 N -5.29439 -1.0734 2.25862 0
M  V30 2 C -4.09184 -1.61136 2.73955 0
M  V30 3 C -3.28477 -2.32575 1.66831 0
M  V30 4 N -2.94168 -1.38946 0.585568 0
M  V30 5 C -3.73193 -1.13081 -0.598178 0
M  V30 6 C -3.05436 0.000845381 -1.22309 0 CFG=1
M  V30 7 C -2.05932 0.599388 -0.209473 0 CFG=1
M  V30 8 C -1.73503 -0.582181 0.560192 0
M  V30 9 O -0.695138 -0.967356 1.13949 0
M  V30 10 C -1.03453 1.1542 -1.14241 0 CFG=2
M  V30 11 C -1.67114 0.93687 -2.49931 0 CFG=1
M  V30 12 O -2.24711 -0.319256 -2.32287 0
M  V30 13 C -2.90678 1.80913 -2.66821 0
M  V30 14 C -3.88665 1.10549 -1.74622 0
M  V30 15 C 0.285474 0.521995 -1.13911 0
M  V30 16 O 0.618459 -0.27662 -2.085 0
M  V30 17 N 1.27744 0.722044 -0.136441 0
M  V30 18 C 2.57971 0.107529 -0.12665 0
M  V30 19 C 3.44685 0.43994 -1.29355 0
M  V30 20 C 4.79434 -0.218258 -1.24043 0
M  V30 21 C 5.56917 0.190654 -0.00924709 0
M  V30 22 C 6.39057 1.2916 -0.0241803 0
M  V30 23 S 6.99533 1.2821 1.58995 0
M  V30 24 C 6.17173 -0.101694 2.15943 0
M  V30 25 N 5.48913 -0.475835 1.10023 0
M  V30 26 N 6.1952 -0.719426 3.44529 0
M  V30 27 H -5.3037 -0.156053 1.87982 0
M  V30 28 H -6.12868 -1.43301 2.69027 0
M  V30 29 H -4.3181 -2.37156 3.51329 0
M  V30 30 H -3.46834 -0.832288 3.25163 0
M  V30 31 H -3.90412 -3.1377 1.26463 0
M  V30 32 H -2.34509 -2.65772 2.13488 0
M  V30 33 H -3.65631 -2.04634 -1.2448 0
M  V30 34 H -4.80488 -0.986646 -0.363316 0
M  V30 35 H -2.57392 1.39699 0.382243 0
M  V30 36 H -0.941548 2.27334 -0.948237 0
M  V30 37 H -0.976802 0.999143 -3.32774 0
M  V30 38 H -3.21271 1.7739 -3.72508 0
M  V30 39 H -2.72788 2.84689 -2.29561 0
M  V30 40 H -4.72977 0.773852 -2.37255 0
M  V30 41 H -4.25903 1.78306 -0.951303 0
M  V30 42 H 0.970955 1.38922 0.639219 0
M  V30 43 H 3.06134 0.392965 0.85141 0
M  V30 44 H 2.39447 -0.992071 -0.129009 0
M  V30 45 H 3.64461 1.54909 -1.35455 0
M  V30 46 H 2.98272 0.18321 -2.26067 0
M  V30 47 H 4.65733 -1.31781 -1.2672 0
M  V30 48 H 5.41559 0.0420203 -2.11144 0
M  V30 49 H 6.587 1.97752 -0.865306 0
M  V30 50 H 5.4071 -0.675941 4.11121 0
M  V30 51 H 7.05104 -1.23586 3.71598 0
M  V30 END ATOM
M  V30 BEGIN BOND
M  V30 1 1 1 2
M  V30 2 1 2 3
M  V30 3 1 3 4
M  V30 4 1 4 5
M  V30 5 1 6 5 CFG=1
M  V30 6 1 6 7
M  V30 7 1 7 8
M  V30 8 2 8 9
M  V30 9 1 7 10
M  V30 10 1 10 11
M  V30 11 1 11 12
M  V30 12 1 11 13
M  V30 13 1 13 14
M  V30 14 1 10 15
M  V30 15 2 15 16
M  V30 16 1 15 17
M  V30 17 1 17 18
M  V30 18 1 18 19
M  V30 19 1 19 20
M  V30 20 1 20 21
M  V30 21 2 21 22
M  V30 22 1 22 23
M  V30 23 1 23 24
M  V30 24 2 24 25
M  V30 25 1 24 26
M  V30 26 1 8 4
M  V30 27 1 25 21
M  V30 28 1 14 6
M  V30 29 1 12 6
M  V30 30 1 1 27
M  V30 31 1 1 28
M  V30 32 1 2 29
M  V30 33 1 2 30
M  V30 34 1 3 31
M  V30 35 1 3 32
M  V30 36 1 5 33
M  V30 37 1 5 34
M  V30 38 1 7 35 CFG=1
M  V30 39 1 10 36 CFG=1
M  V30 40 1 11 37 CFG=3
M  V30 41 1 13 38
M  V30 42 1 13 39
M  V30 43 1 14 40
M  V30 44 1 14 41
M  V30 45 1 17 42
M  V30 46 1 18 43
M  V30 47 1 18 44
M  V30 48 1 19 45
M  V30 49 1 19 46
M  V30 50 1 20 47
M  V30 51 1 20 48
M  V30 52 1 22 49
M  V30 53 1 26 50
M  V30 54 1 26 51
M  V30 END BOND
M  V30 END CTAB
M  END
