
     RDKit          3D

  0  0  0  0  0  0  0  0  0  0999 V3000
M  V30 BEGIN CTAB
M  V30 COUNTS 40 42 0 0 0
M  V30 BEGIN ATOM
M  V30 1 C -2.60361 1.7308 -1.34432 0
M  V30 2 C -3.19871 0.587341 -0.593109 0
M  V30 3 C -4.44283 0.114336 -1.01323 0
M  V30 4 C -5.10523 -0.879163 -0.351776 0
M  V30 5 C -4.53606 -1.43761 0.764323 0
M  V30 6 C -3.31283 -0.97589 1.17882 0
M  V30 7 C -2.61143 0.0486026 0.509105 0
M  V30 8 C -1.27194 0.389353 1.01793 0
M  V30 9 C -0.153459 -0.473821 0.513932 0
M  V30 10 C 0.115037 -0.534493 -0.929763 0
M  V30 11 C 1.02266 0.611354 -1.36632 0
M  V30 12 C 2.31775 0.342734 -0.717296 0
M  V30 13 N 3.45837 0.490999 -1.3693 0
M  V30 14 C 4.66066 0.238247 -0.800968 0
M  V30 15 N 5.84023 0.416994 -1.56031 0
M  V30 16 N 4.71449 -0.175447 0.460471 0
M  V30 17 C 3.56612 -0.332759 1.14243 0
M  V30 18 N 3.64444 -0.781369 2.50564 0
M  V30 19 C 2.31159 -0.0801129 0.583777 0
M  V30 20 C 1.08784 -0.265375 1.38261 0
M  V30 21 H -3.44942 2.32558 -1.7791 0
M  V30 22 H -2.02416 2.39889 -0.703675 0
M  V30 23 H -1.98585 1.4252 -2.19993 0
M  V30 24 H -4.85029 0.598148 -1.91263 0
M  V30 25 H -6.07217 -1.21046 -0.722745 0
M  V30 26 H -5.07716 -2.22237 1.27343 0
M  V30 27 H -2.86509 -1.40916 2.05071 0
M  V30 28 H -1.05415 1.47955 0.841234 0
M  V30 29 H -1.23315 0.32099 2.15032 0
M  V30 30 H -0.46157 -1.55576 0.800612 0
M  V30 31 H -0.787605 -0.631189 -1.5104 0
M  V30 32 H 0.775716 -1.44823 -1.08836 0
M  V30 33 H 0.533113 1.54701 -1.02681 0
M  V30 34 H 1.05245 0.628605 -2.46336 0
M  V30 35 H 6.48256 1.19357 -1.28255 0
M  V30 36 H 6.03093 -0.230576 -2.37046 0
M  V30 37 H 3.49892 -1.79926 2.70973 0
M  V30 38 H 3.84112 -0.108956 3.26581 0
M  V30 39 H 0.929891 0.703811 1.94403 0
M  V30 40 H 1.21281 -1.04012 2.1492 0
M  V30 END ATOM
M  V30 BEGIN BOND
M  V30 1 1 1 2
M  V30 2 2 2 3
M  V30 3 1 3 4
M  V30 4 2 4 5
M  V30 5 1 5 6
M  V30 6 2 6 7
M  V30 7 1 7 8
M  V30 8 1 8 9
M  V30 9 1 9 10
M  V30 10 1 10 11
M  V30 11 1 11 12
M  V30 12 2 12 13
M  V30 13 1 13 14
M  V30 14 1 14 15
M  V30 15 2 14 16
M  V30 16 1 16 17
M  V30 17 1 17 18
M  V30 18 2 17 19
M  V30 19 1 19 20
M  V30 20 1 7 2
M  V30 21 1 20 9
M  V30 22 1 19 12
M  V30 23 1 1 21
M  V30 24 1 1 22
M  V30 25 1 1 23
M  V30 26 1 3 24
M  V30 27 1 4 25
M  V30 28 1 5 26
M  V30 29 1 6 27
M  V30 30 1 8 28
M  V30 31 1 8 29
M  V30 32 1 9 30
M  V30 33 1 10 31
M  V30 34 1 10 32
M  V30 35 1 11 33
M  V30 36 1 11 34
M  V30 37 1 15 35
M  V30 38 1 15 36
M  V30 39 1 18 37
M  V30 40 1 18 38
M  V30 41 1 20 39
M  V30 42 1 20 40
M  V30 END BOND
M  V30 END CTAB
M  END
