
     RDKit          3D

  0  0  0  0  0  0  0  0  0  0999 V3000
M  V30 BEGIN CTAB
M  V30 COUNTS 31 32 0 0 0
M  V30 BEGIN ATOM
M  V30 1 N 5.35539 0.48514 -1.12436 0
M  V30 2 C 4.54632 -0.345413 -0.253137 0
M  V30 3 C 3.18254 0.25749 -0.0250992 0
M  V30 4 C 2.37454 -0.632084 0.882181 0
M  V30 5 C 1.02615 -0.10635 1.15123 0
M  V30 6 N 0.577528 0.700367 2.10946 0
M  V30 7 N -0.719115 0.893577 1.93881 0
M  V30 8 C -1.14463 0.211658 0.858023 0
M  V30 9 N -0.0564584 -0.403958 0.377738 0
M  V30 10 C -2.52626 0.205346 0.384559 0
M  V30 11 C -3.52363 0.909786 1.01813 0
M  V30 12 C -4.80164 0.875504 0.541067 0
M  V30 13 C -5.17828 0.154208 -0.577878 0
M  V30 14 C -4.16502 -0.545459 -1.19954 0
M  V30 15 C -2.86807 -0.523685 -0.733317 0
M  V30 16 N -1.86839 -1.28234 -1.44077 0
M  V30 17 H 5.04964 0.40603 -2.11526 0
M  V30 18 H 5.32481 1.4833 -0.856758 0
M  V30 19 H 5.08226 -0.540033 0.700325 0
M  V30 20 H 4.46798 -1.346 -0.753191 0
M  V30 21 H 3.30375 1.27592 0.353443 0
M  V30 22 H 2.70004 0.340557 -1.02896 0
M  V30 23 H 2.31777 -1.63583 0.404313 0
M  V30 24 H 2.93103 -0.774369 1.82721 0
M  V30 25 H 1.13183 1.12398 2.87842 0
M  V30 26 H -3.26679 1.49784 1.91348 0
M  V30 27 H -5.59954 1.43413 1.04115 0
M  V30 28 H -6.20293 0.14741 -0.931909 0
M  V30 29 H -4.42522 -1.11959 -2.07688 0
M  V30 30 H -1.55643 -2.16537 -0.985698 0
M  V30 31 H -1.46917 -0.981774 -2.35443 0
M  V30 END ATOM
M  V30 BEGIN BOND
M  V30 1 1 1 2
M  V30 2 1 2 3
M  V30 3 1 3 4
M  V30 4 1 4 5
M  V30 5 1 5 6
M  V30 6 1 6 7
M  V30 7 2 7 8
M  V30 8 1 8 9
M  V30 9 1 8 10
M  V30 10 2 10 11
M  V30 11 1 11 12
M  V30 12 2 12 13
M  V30 13 1 13 14
M  V30 14 2 14 15
M  V30 15 1 15 16
M  V30 16 2 9 5
M  V30 17 1 15 10
M  V30 18 1 1 17
M  V30 19 1 1 18
M  V30 20 1 2 19
M  V30 21 1 2 20
M  V30 22 1 3 21
M  V30 23 1 3 22
M  V30 24 1 4 23
M  V30 25 1 4 24
M  V30 26 1 6 25
M  V30 27 1 11 26
M  V30 28 1 12 27
M  V30 29 1 13 28
M  V30 30 1 14 29
M  V30 31 1 16 30
M  V30 32 1 16 31
M  V30 END BOND
M  V30 END CTAB
M  END
