
     RDKit          3D

  0  0  0  0  0  0  0  0  0  0999 V3000
M  V30 BEGIN CTAB
M  V30 COUNTS 55 58 0 0 0
M  V30 BEGIN ATOM
M  V30 1 N 7.13208 0.0998591 -0.347362 0
M  V30 2 C 7.07577 0.0142654 1.04622 0 CFG=1
M  V30 3 C 6.16463 -1.11558 1.4989 0
M  V30 4 C 4.77852 -0.912956 1.00448 0
M  V30 5 C 4.37321 -1.41811 -0.211961 0
M  V30 6 C 3.0856 -1.22822 -0.667686 0
M  V30 7 C 2.13837 -0.522507 0.0720841 0
M  V30 8 C 2.54867 -0.0238974 1.27923 0
M  V30 9 C 3.85683 -0.214366 1.7469 0
M  V30 10 C 0.791251 -0.339155 -0.433389 0
M  V30 11 N 0.462525 -0.868109 -1.64581 0
M  V30 12 C -0.77209 -0.725725 -2.15754 0
M  V30 13 N -1.04105 -1.30408 -3.42597 0
M  V30 14 N -1.69034 -0.0485401 -1.45359 0
M  V30 15 C -1.47074 0.509205 -0.25565 0
M  V30 16 N -2.44612 1.22758 0.490593 0
M  V30 17 C -3.7619 1.36602 -0.00649658 0
M  V30 18 C -4.61968 2.35735 0.803966 0
M  V30 19 C -5.7223 2.79212 -0.138521 0
M  V30 20 C -6.33981 1.6603 -0.91813 0
M  V30 21 C -5.88969 0.336175 -0.478439 0
M  V30 22 C -4.58917 0.126556 0.00499249 0
M  V30 23 C -4.22068 -1.09945 0.414029 0
M  V30 24 C -5.12376 -2.16136 0.358494 0
M  V30 25 C -6.39186 -1.99425 -0.105107 0
M  V30 26 C -6.76772 -0.715954 -0.527922 0
M  V30 27 C -0.176008 0.347456 0.257398 0
M  V30 28 C 8.42513 -0.171582 1.61499 0
M  V30 29 O 9.52151 -0.237655 0.792588 0
M  V30 30 O 8.57746 -0.270063 2.85134 0
M  V30 31 H 6.79975 0.913901 -0.767468 0
M  V30 32 H 7.43877 -0.626723 -0.912094 0
M  V30 33 H 6.6862 0.973041 1.44531 0
M  V30 34 H 6.57437 -2.10064 1.22952 0
M  V30 35 H 6.12648 -1.09747 2.62622 0
M  V30 36 H 5.10038 -1.96555 -0.790631 0
M  V30 37 H 2.75191 -1.62262 -1.62839 0
M  V30 38 H 1.85223 0.532417 1.89424 0
M  V30 39 H 4.14173 0.200457 2.71545 0
M  V30 40 H -0.752273 -0.886395 -4.33559 0
M  V30 41 H -1.56094 -2.20595 -3.464 0
M  V30 42 H -2.17058 1.64983 1.41137 0
M  V30 43 H -3.76239 1.73645 -1.05061 0
M  V30 44 H -4.001 3.2277 1.02487 0
M  V30 45 H -5.05094 1.85639 1.69334 0
M  V30 46 H -5.26514 3.54909 -0.81958 0
M  V30 47 H -6.52007 3.35856 0.425307 0
M  V30 48 H -7.44068 1.77237 -0.883925 0
M  V30 49 H -6.0515 1.78706 -1.98317 0
M  V30 50 H -3.23925 -1.25391 0.789978 0
M  V30 51 H -4.82603 -3.154 0.689054 0
M  V30 52 H -7.10515 -2.82514 -0.151048 0
M  V30 53 H -7.79151 -0.632223 -0.89009 0
M  V30 54 H 0.000469104 0.797405 1.22337 0
M  V30 55 H 10.1566 0.550605 0.618799 0
M  V30 END ATOM
M  V30 BEGIN BOND
M  V30 1 1 1 2
M  V30 2 1 2 3
M  V30 3 1 3 4
M  V30 4 2 4 5
M  V30 5 1 5 6
M  V30 6 2 6 7
M  V30 7 1 7 8
M  V30 8 2 8 9
M  V30 9 1 7 10
M  V30 10 2 10 11
M  V30 11 1 11 12
M  V30 12 1 12 13
M  V30 13 2 12 14
M  V30 14 1 14 15
M  V30 15 1 15 16
M  V30 16 1 16 17
M  V30 17 1 17 18
M  V30 18 1 18 19
M  V30 19 1 19 20
M  V30 20 1 20 21
M  V30 21 2 21 22
M  V30 22 1 22 23
M  V30 23 2 23 24
M  V30 24 1 24 25
M  V30 25 2 25 26
M  V30 26 2 15 27
M  V30 27 1 2 28
M  V30 28 1 28 29
M  V30 29 2 28 30
M  V30 30 1 9 4
M  V30 31 1 27 10
M  V30 32 1 22 17
M  V30 33 1 26 21
M  V30 34 1 1 31
M  V30 35 1 1 32
M  V30 36 1 2 33 CFG=1
M  V30 37 1 3 34
M  V30 38 1 3 35
M  V30 39 1 5 36
M  V30 40 1 6 37
M  V30 41 1 8 38
M  V30 42 1 9 39
M  V30 43 1 13 40
M  V30 44 1 13 41
M  V30 45 1 16 42
M  V30 46 1 17 43
M  V30 47 1 18 44
M  V30 48 1 18 45
M  V30 49 1 19 46
M  V30 50 1 19 47
M  V30 51 1 20 48
M  V30 52 1 20 49
M  V30 53 1 23 50
M  V30 54 1 24 51
M  V30 55 1 25 52
M  V30 56 1 26 53
M  V30 57 1 27 54
M  V30 58 1 29 55
M  V30 END BOND
M  V30 END CTAB
M  END
