
     RDKit          3D

  0  0  0  0  0  0  0  0  0  0999 V3000
M  V30 BEGIN CTAB
M  V30 COUNTS 26 26 0 0 0
M  V30 BEGIN ATOM
M  V30 1 C 4.64576 0.108668 -0.642066 0
M  V30 2 O 3.25039 0.113442 -0.860471 0
M  V30 3 C 2.74188 -0.852437 0.00108391 0
M  V30 4 C 1.23847 -0.975687 -0.109415 0
M  V30 5 N 0.608483 0.27535 0.215513 0
M  V30 6 C -0.804394 0.401722 0.180695 0
M  V30 7 C -1.59517 -0.688055 -0.169546 0
M  V30 8 C -2.96454 -0.547468 -0.198112 0
M  V30 9 N -3.77819 -1.66418 -0.557164 0
M  V30 10 N -3.48604 0.634008 0.112487 0
M  V30 11 C -2.74983 1.71905 0.458637 0
M  V30 12 N -1.41545 1.55754 0.479486 0
M  V30 13 N -3.36851 2.96053 0.781476 0
M  V30 14 H 4.76347 0.367108 0.439472 0
M  V30 15 H 4.95551 -0.953848 -0.769114 0
M  V30 16 H 5.16974 0.796885 -1.3096 0
M  V30 17 H 3.21536 -1.82393 -0.23412 0
M  V30 18 H 3.04169 -0.558791 1.02721 0
M  V30 19 H 0.954083 -1.35371 -1.09113 0
M  V30 20 H 0.935275 -1.72074 0.675655 0
M  V30 21 H 1.17807 1.10146 0.479487 0
M  V30 22 H -1.15857 -1.63128 -0.416497 0
M  V30 23 H -3.51152 -2.63252 -0.350495 0
M  V30 24 H -4.67938 -1.48739 -1.04913 0
M  V30 25 H -2.96152 3.83126 0.425986 0
M  V30 26 H -4.22506 3.023 1.36889 0
M  V30 END ATOM
M  V30 BEGIN BOND
M  V30 1 1 1 2
M  V30 2 1 2 3
M  V30 3 1 3 4
M  V30 4 1 4 5
M  V30 5 1 5 6
M  V30 6 2 6 7
M  V30 7 1 7 8
M  V30 8 1 8 9
M  V30 9 2 8 10
M  V30 10 1 10 11
M  V30 11 2 11 12
M  V30 12 1 11 13
M  V30 13 1 12 6
M  V30 14 1 1 14
M  V30 15 1 1 15
M  V30 16 1 1 16
M  V30 17 1 3 17
M  V30 18 1 3 18
M  V30 19 1 4 19
M  V30 20 1 4 20
M  V30 21 1 5 21
M  V30 22 1 7 22
M  V30 23 1 9 23
M  V30 24 1 9 24
M  V30 25 1 13 25
M  V30 26 1 13 26
M  V30 END BOND
M  V30 END CTAB
M  END
