
     RDKit          3D

  0  0  0  0  0  0  0  0  0  0999 V3000
M  V30 BEGIN CTAB
M  V30 COUNTS 62 64 0 0 0
M  V30 BEGIN ATOM
M  V30 1 N 7.15993 -1.59502 1.54771 0
M  V30 2 C 7.17658 -0.669071 0.432349 0
M  V30 3 C 5.96959 -0.918468 -0.455302 0
M  V30 4 C 5.96226 0.0263477 -1.61723 0
M  V30 5 C 4.56594 0.0710057 -2.19213 0
M  V30 6 C 3.59272 0.704665 -1.20905 0
M  V30 7 C 2.2603 0.00625477 -1.33859 0
M  V30 8 N 1.27647 0.553208 -0.433633 0
M  V30 9 C -0.0554419 0.070756 -0.360594 0
M  V30 10 O -0.370052 -0.872458 -1.12489 0
M  V30 11 C -1.0538 0.615142 0.547861 0 CFG=2
M  V30 12 N -2.34751 -0.0309684 0.446432 0
M  V30 13 C -2.95809 -0.722064 1.51353 0
M  V30 14 O -2.40872 -0.822668 2.63926 0
M  V30 15 C -4.25648 -1.34725 1.34478 0
M  V30 16 C -4.85448 -2.01816 2.41799 0
M  V30 17 C -6.08348 -2.63154 2.32306 0
M  V30 18 C -6.76865 -2.59307 1.12676 0
M  V30 19 C -6.21352 -1.93521 0.0252607 0
M  V30 20 C -4.98394 -1.33887 0.172193 0
M  V30 21 C -6.98777 -1.93409 -1.19846 0
M  V30 22 N -8.25608 -2.56915 -1.2868 0
M  V30 23 N -6.55908 -1.35646 -2.26004 0
M  V30 24 C -1.27046 2.07771 0.394132 0
M  V30 25 C -2.09068 2.57313 -0.597818 0
M  V30 26 C -2.24199 3.94154 -0.676696 0
M  V30 27 C -1.60248 4.79549 0.1978 0
M  V30 28 C -0.771574 4.31097 1.20403 0
M  V30 29 C -0.633526 2.94084 1.26608 0
M  V30 30 C 4.13373 0.574482 0.178058 0
M  V30 31 C 4.73033 -0.807318 0.393962 0
M  V30 32 H 6.87799 -1.03349 2.38723 0
M  V30 33 H 6.48753 -2.34793 1.33273 0
M  V30 34 H 7.14985 0.39127 0.753168 0
M  V30 35 H 8.09542 -0.878117 -0.183112 0
M  V30 36 H 6.00021 -1.96404 -0.846707 0
M  V30 37 H 6.2612 1.04721 -1.34079 0
M  V30 38 H 6.61794 -0.38879 -2.42723 0
M  V30 39 H 4.56248 0.598643 -3.16922 0
M  V30 40 H 4.25407 -1.00202 -2.32247 0
M  V30 41 H 3.45922 1.76112 -1.50763 0
M  V30 42 H 2.40752 -1.07981 -1.16937 0
M  V30 43 H 1.89372 0.126055 -2.39346 0
M  V30 44 H 1.61264 1.35149 0.18494 0
M  V30 45 H -0.701427 0.424532 1.60463 0
M  V30 46 H -2.78337 0.0651584 -0.496157 0
M  V30 47 H -4.34054 -2.05979 3.35341 0
M  V30 48 H -6.50356 -3.1444 3.20193 0
M  V30 49 H -7.73516 -3.06606 1.02434 0
M  V30 50 H -4.55978 -0.838556 -0.663008 0
M  V30 51 H -8.30088 -3.60394 -1.2636 0
M  V30 52 H -9.11588 -2.00296 -1.37256 0
M  V30 53 H -5.65655 -0.858801 -2.3343 0
M  V30 54 H -2.60804 1.92328 -1.30269 0
M  V30 55 H -2.87478 4.36414 -1.43858 0
M  V30 56 H -1.70139 5.87573 0.161372 0
M  V30 57 H -0.263272 4.96349 1.89705 0
M  V30 58 H 0.0232703 2.56833 2.06242 0
M  V30 59 H 5.00651 1.28588 0.266972 0
M  V30 60 H 3.4242 0.836575 0.964757 0
M  V30 61 H 5.00003 -0.873893 1.48705 0
M  V30 62 H 3.95075 -1.54002 0.128853 0
M  V30 END ATOM
M  V30 BEGIN BOND
M  V30 1 1 1 2
M  V30 2 1 2 3
M  V30 3 1 3 4
M  V30 4 1 4 5
M  V30 5 1 5 6
M  V30 6 1 6 7
M  V30 7 1 7 8
M  V30 8 1 8 9
M  V30 9 2 9 10
M  V30 10 1 9 11
M  V30 11 1 11 12
M  V30 12 1 12 13
M  V30 13 2 13 14
M  V30 14 1 13 15
M  V30 15 2 15 16
M  V30 16 1 16 17
M  V30 17 2 17 18
M  V30 18 1 18 19
M  V30 19 2 19 20
M  V30 20 1 19 21
M  V30 21 1 21 22
M  V30 22 2 21 23 CFG=2
M  V30 23 1 11 24
M  V30 24 2 24 25
M  V30 25 1 25 26
M  V30 26 2 26 27
M  V30 27 1 27 28
M  V30 28 2 28 29
M  V30 29 1 6 30
M  V30 30 1 30 31
M  V30 31 1 31 3
M  V30 32 1 20 15
M  V30 33 1 29 24
M  V30 34 1 1 32
M  V30 35 1 1 33
M  V30 36 1 2 34
M  V30 37 1 2 35
M  V30 38 1 3 36
M  V30 39 1 4 37
M  V30 40 1 4 38
M  V30 41 1 5 39
M  V30 42 1 5 40
M  V30 43 1 6 41
M  V30 44 1 7 42
M  V30 45 1 7 43
M  V30 46 1 8 44
M  V30 47 1 11 45 CFG=1
M  V30 48 1 12 46
M  V30 49 1 16 47
M  V30 50 1 17 48
M  V30 51 1 18 49
M  V30 52 1 20 50
M  V30 53 1 22 51
M  V30 54 1 22 52
M  V30 55 1 23 53
M  V30 56 1 25 54
M  V30 57 1 26 55
M  V30 58 1 27 56
M  V30 59 1 28 57
M  V30 60 1 29 58
M  V30 61 1 30 59
M  V30 62 1 30 60
M  V30 63 1 31 61
M  V30 64 1 31 62
M  V30 END BOND
M  V30 END CTAB
M  END
