
     RDKit          3D

  0  0  0  0  0  0  0  0  0  0999 V3000
M  V30 BEGIN CTAB
M  V30 COUNTS 22 22 0 0 0
M  V30 BEGIN ATOM
M  V30 1 F 4.54642 -1.41859 1.22952 0
M  V30 2 C 4.02465 -0.531847 0.28609 0
M  V30 3 O 2.63667 -0.74012 0.0913372 0
M  V30 4 C 1.68715 0.259291 0.239066 0
M  V30 5 O 2.10888 1.39673 0.562527 0
M  V30 6 C 0.255746 0.016869 0.0314226 0
M  V30 7 C -0.232896 -1.2198 -0.323349 0
M  V30 8 C -1.57503 -1.45996 -0.521184 0
M  V30 9 C -2.5035 -0.446401 -0.367802 0
M  V30 10 C -2.02637 0.797323 -0.0124806 0
M  V30 11 C -0.659965 1.03622 0.187552 0
M  V30 12 N -0.202754 2.3128 0.548868 0
M  V30 13 N -3.88598 -0.714604 -0.576725 0
M  V30 14 F 4.64396 -0.882781 -0.920813 0
M  V30 15 H 4.27783 0.497736 0.56558 0
M  V30 16 H 0.494581 -2.01577 -0.443981 0
M  V30 17 H -1.96339 -2.44299 -0.803171 0
M  V30 18 H -2.74281 1.59822 0.110517 0
M  V30 19 H 0.285172 2.90867 -0.141746 0
M  V30 20 H -0.343618 2.68087 1.50662 0
M  V30 21 H -4.49761 -0.810285 0.26038 0
M  V30 22 H -4.32714 -0.821571 -1.50823 0
M  V30 END ATOM
M  V30 BEGIN BOND
M  V30 1 1 1 2
M  V30 2 1 2 3
M  V30 3 1 3 4
M  V30 4 2 4 5
M  V30 5 1 4 6
M  V30 6 2 6 7
M  V30 7 1 7 8
M  V30 8 2 8 9
M  V30 9 1 9 10
M  V30 10 2 10 11
M  V30 11 1 11 12
M  V30 12 1 9 13
M  V30 13 1 2 14
M  V30 14 1 11 6
M  V30 15 1 2 15
M  V30 16 1 7 16
M  V30 17 1 8 17
M  V30 18 1 10 18
M  V30 19 1 12 19
M  V30 20 1 12 20
M  V30 21 1 13 21
M  V30 22 1 13 22
M  V30 END BOND
M  V30 END CTAB
M  END
