
     RDKit          3D

  0  0  0  0  0  0  0  0  0  0999 V3000
M  V30 BEGIN CTAB
M  V30 COUNTS 35 35 0 0 0
M  V30 BEGIN ATOM
M  V30 1 O -1.92968 1.48476 -1.07316 0
M  V30 2 C -2.19063 0.6958 -0.540849 0
M  V30 3 C -3.68108 0.487519 -0.257012 0 CFG=1
M  V30 4 N -3.91728 -0.678202 0.530101 0
M  V30 5 C -4.13994 1.72931 0.462785 0
M  V30 6 N -1.33992 -0.294344 0.00838977 0
M  V30 7 C 0.0590144 -0.260871 -0.154173 0
M  V30 8 C 0.783691 0.681541 -0.830283 0
M  V30 9 C 2.16378 0.635702 -0.939978 0
M  V30 10 C 2.81614 -0.410764 -0.335996 0
M  V30 11 C 2.14545 -1.37825 0.350727 0
M  V30 12 C 0.784615 -1.30779 0.442721 0
M  V30 13 C 0.0415082 -2.36927 1.19657 0
M  V30 14 C 2.89563 -2.49554 0.990152 0
M  V30 15 S 3.07773 1.82751 -1.79473 0
M  V30 16 O 4.364 1.17605 -2.28033 0
M  V30 17 O 2.3152 2.33697 -2.96336 0
M  V30 18 N 3.56333 3.14348 -0.778925 0
M  V30 19 H -4.15174 0.425666 -1.27245 0
M  V30 20 H -4.51753 -0.500845 1.36622 0
M  V30 21 H -4.39935 -1.44444 -0.0112528 0
M  V30 22 H -3.30036 2.39002 0.762477 0
M  V30 23 H -4.82333 2.345 -0.161853 0
M  V30 24 H -4.70287 1.50017 1.3989 0
M  V30 25 H -1.76235 -1.10075 0.568332 0
M  V30 26 H 0.293964 1.49702 -1.30276 0
M  V30 27 H 3.89743 -0.479434 -0.40099 0
M  V30 28 H -0.510402 -1.85669 2.0011 0
M  V30 29 H -0.701699 -2.84042 0.488649 0
M  V30 30 H 0.714203 -3.15055 1.54453 0
M  V30 31 H 3.96862 -2.29203 0.936587 0
M  V30 32 H 2.68835 -3.43847 0.446856 0
M  V30 33 H 2.60308 -2.56964 2.07038 0
M  V30 34 H 4.15029 2.79783 0.00338588 0
M  V30 35 H 2.74216 3.71395 -0.470758 0
M  V30 END ATOM
M  V30 BEGIN BOND
M  V30 1 2 1 2
M  V30 2 1 2 3
M  V30 3 1 3 4
M  V30 4 1 3 5
M  V30 5 1 2 6
M  V30 6 1 6 7
M  V30 7 2 7 8
M  V30 8 1 8 9
M  V30 9 2 9 10
M  V30 10 1 10 11
M  V30 11 2 11 12
M  V30 12 1 12 13
M  V30 13 1 11 14
M  V30 14 1 9 15
M  V30 15 2 15 16
M  V30 16 2 15 17
M  V30 17 1 15 18
M  V30 18 1 12 7
M  V30 19 1 3 19 CFG=3
M  V30 20 1 4 20
M  V30 21 1 4 21
M  V30 22 1 5 22
M  V30 23 1 5 23
M  V30 24 1 5 24
M  V30 25 1 6 25
M  V30 26 1 8 26
M  V30 27 1 10 27
M  V30 28 1 13 28
M  V30 29 1 13 29
M  V30 30 1 13 30
M  V30 31 1 14 31
M  V30 32 1 14 32
M  V30 33 1 14 33
M  V30 34 1 18 34
M  V30 35 1 18 35
M  V30 END BOND
M  V30 END CTAB
M  END
