
     RDKit          3D

  0  0  0  0  0  0  0  0  0  0999 V3000
M  V30 BEGIN CTAB
M  V30 COUNTS 47 47 0 0 0
M  V30 BEGIN ATOM
M  V30 1 N 0.613128 -0.117021 3.55418 0
M  V30 2 C 1.63347 0.0374378 2.58319 0
M  V30 3 C 1.12196 -0.245553 1.18843 0
M  V30 4 C 2.1986 -0.0798764 0.16416 0
M  V30 5 C 1.7063 -0.349776 -1.23943 0
M  V30 6 C 2.66429 0.373805 -2.19529 0
M  V30 7 C 4.05965 0.151349 -1.65217 0
M  V30 8 C 4.13321 -1.17247 -0.882076 0
M  V30 9 C 3.34966 -1.06129 0.41253 0
M  V30 10 N -0.0624349 0.487646 0.845395 0
M  V30 11 C -1.35356 -0.095847 0.754862 0
M  V30 12 O -1.49853 -1.31033 0.986685 0
M  V30 13 C -2.51012 0.731683 0.392153 0 CFG=2
M  V30 14 C -3.38505 0.126303 -0.666739 0
M  V30 15 C -2.70243 -0.150097 -1.96768 0
M  V30 16 C -4.10286 -1.11675 -0.149942 0
M  V30 17 C -4.48752 1.15679 -0.956766 0
M  V30 18 N -2.04101 2.03444 -0.0341767 0
M  V30 19 H 0.768949 0.432991 4.4071 0
M  V30 20 H 0.322024 -1.05912 3.78251 0
M  V30 21 H 2.41172 -0.751173 2.78437 0
M  V30 22 H 2.14107 1.00533 2.69064 0
M  V30 23 H 0.836469 -1.3384 1.20849 0
M  V30 24 H 2.6633 0.939253 0.200938 0
M  V30 25 H 0.700841 0.0784387 -1.42284 0
M  V30 26 H 1.73795 -1.44427 -1.44596 0
M  V30 27 H 2.40796 1.44756 -2.13178 0
M  V30 28 H 2.5503 -0.0630261 -3.1923 0
M  V30 29 H 4.35371 0.956653 -0.931107 0
M  V30 30 H 4.75134 0.0677998 -2.4958 0
M  V30 31 H 5.18542 -1.32326 -0.62547 0
M  V30 32 H 3.78993 -1.96885 -1.54663 0
M  V30 33 H 2.96971 -2.07253 0.658556 0
M  V30 34 H 4.00128 -0.70504 1.22482 0
M  V30 35 H 0.0865556 1.52746 0.65776 0
M  V30 36 H -3.16755 0.855578 1.29723 0
M  V30 37 H -3.0453 0.537308 -2.78847 0
M  V30 38 H -2.94015 -1.19104 -2.32573 0
M  V30 39 H -1.62954 0.0284012 -1.87346 0
M  V30 40 H -5.07251 -1.17563 -0.686159 0
M  V30 41 H -3.51864 -2.03726 -0.260277 0
M  V30 42 H -4.34901 -0.962482 0.930194 0
M  V30 43 H -4.20849 2.16165 -0.571315 0
M  V30 44 H -5.43601 0.891752 -0.453189 0
M  V30 45 H -4.64896 1.27402 -2.04793 0
M  V30 46 H -1.31832 1.87197 -0.76537 0
M  V30 47 H -1.68081 2.61547 0.762445 0
M  V30 END ATOM
M  V30 BEGIN BOND
M  V30 1 1 1 2
M  V30 2 1 2 3
M  V30 3 1 3 4
M  V30 4 1 4 5
M  V30 5 1 5 6
M  V30 6 1 6 7
M  V30 7 1 7 8
M  V30 8 1 8 9
M  V30 9 1 3 10
M  V30 10 1 10 11
M  V30 11 2 11 12
M  V30 12 1 11 13
M  V30 13 1 13 14
M  V30 14 1 14 15
M  V30 15 1 14 16
M  V30 16 1 14 17
M  V30 17 1 13 18
M  V30 18 1 9 4
M  V30 19 1 1 19
M  V30 20 1 1 20
M  V30 21 1 2 21
M  V30 22 1 2 22
M  V30 23 1 3 23
M  V30 24 1 4 24
M  V30 25 1 5 25
M  V30 26 1 5 26
M  V30 27 1 6 27
M  V30 28 1 6 28
M  V30 29 1 7 29
M  V30 30 1 7 30
M  V30 31 1 8 31
M  V30 32 1 8 32
M  V30 33 1 9 33
M  V30 34 1 9 34
M  V30 35 1 10 35
M  V30 36 1 13 36 CFG=1
M  V30 37 1 15 37
M  V30 38 1 15 38
M  V30 39 1 15 39
M  V30 40 1 16 40
M  V30 41 1 16 41
M  V30 42 1 16 42
M  V30 43 1 17 43
M  V30 44 1 17 44
M  V30 45 1 17 45
M  V30 46 1 18 46
M  V30 47 1 18 47
M  V30 END BOND
M  V30 END CTAB
M  END
