
     RDKit          3D

  0  0  0  0  0  0  0  0  0  0999 V3000
M  V30 BEGIN CTAB
M  V30 COUNTS 41 41 0 0 0
M  V30 BEGIN ATOM
M  V30 1 N -5.86582 0.905679 -1.10807 0
M  V30 2 C -6.11801 0.63953 0.287894 0
M  V30 3 C -5.22923 -0.514526 0.695032 0
M  V30 4 C -3.78275 -0.125467 0.477244 0
M  V30 5 O -3.54161 1.01371 0.023735 0
M  V30 6 N -2.76366 -1.0278 0.780656 0
M  V30 7 C -1.37141 -0.865666 0.643311 0
M  V30 8 C -0.775563 -0.662418 -0.693114 0
M  V30 9 C 0.722703 -0.544293 -0.460892 0
M  V30 10 C 1.58092 -1.59308 -0.648261 0
M  V30 11 C 2.9391 -1.43926 -0.424316 0
M  V30 12 C 3.45618 -0.227824 -0.00819259 0
M  V30 13 C 2.60181 0.838286 0.184665 0
M  V30 14 C 1.25154 0.667297 -0.0431681 0
M  V30 15 C 4.90414 -0.0529658 0.233681 0
M  V30 16 C 5.13819 0.427293 1.65073 0
M  V30 17 C 5.50151 0.982139 -0.722138 0
M  V30 18 N -1.1313 0.504527 -1.4204 0
M  V30 19 H -6.65995 0.608096 -1.71573 0
M  V30 20 H -5.54786 1.87385 -1.29562 0
M  V30 21 H -7.15571 0.420279 0.5272 0
M  V30 22 H -5.77679 1.54368 0.870067 0
M  V30 23 H -5.39068 -0.776071 1.74858 0
M  V30 24 H -5.47215 -1.41502 0.0897892 0
M  V30 25 H -3.09286 -1.97316 1.1712 0
M  V30 26 H -1.09804 0.0523735 1.26115 0
M  V30 27 H -0.824334 -1.75369 1.09478 0
M  V30 28 H -0.860142 -1.56851 -1.35966 0
M  V30 29 H 1.19616 -2.53096 -0.968369 0
M  V30 30 H 3.62307 -2.26367 -0.570364 0
M  V30 31 H 3.03509 1.77237 0.510099 0
M  V30 32 H 0.591177 1.50777 0.110609 0
M  V30 33 H 5.45101 -0.992475 0.0365011 0
M  V30 34 H 6.1488 0.125263 1.99615 0
M  V30 35 H 4.42149 -0.0212931 2.3716 0
M  V30 36 H 5.05936 1.54784 1.62488 0
M  V30 37 H 6.32797 1.48587 -0.194191 0
M  V30 38 H 5.89625 0.491523 -1.63281 0
M  V30 39 H 4.74764 1.75075 -1.00754 0
M  V30 40 H -1.8163 0.247326 -2.18459 0
M  V30 41 H -0.319951 0.942698 -1.93212 0
M  V30 END ATOM
M  V30 BEGIN BOND
M  V30 1 1 1 2
M  V30 2 1 2 3
M  V30 3 1 3 4
M  V30 4 2 4 5
M  V30 5 1 4 6
M  V30 6 1 6 7
M  V30 7 1 7 8
M  V30 8 1 8 9
M  V30 9 2 9 10
M  V30 10 1 10 11
M  V30 11 2 11 12
M  V30 12 1 12 13
M  V30 13 2 13 14
M  V30 14 1 12 15
M  V30 15 1 15 16
M  V30 16 1 15 17
M  V30 17 1 8 18
M  V30 18 1 14 9
M  V30 19 1 1 19
M  V30 20 1 1 20
M  V30 21 1 2 21
M  V30 22 1 2 22
M  V30 23 1 3 23
M  V30 24 1 3 24
M  V30 25 1 6 25
M  V30 26 1 7 26
M  V30 27 1 7 27
M  V30 28 1 8 28
M  V30 29 1 10 29
M  V30 30 1 11 30
M  V30 31 1 13 31
M  V30 32 1 14 32
M  V30 33 1 15 33
M  V30 34 1 16 34
M  V30 35 1 16 35
M  V30 36 1 16 36
M  V30 37 1 17 37
M  V30 38 1 17 38
M  V30 39 1 17 39
M  V30 40 1 18 40
M  V30 41 1 18 41
M  V30 END BOND
M  V30 END CTAB
M  END
