
     RDKit          3D

  0  0  0  0  0  0  0  0  0  0999 V3000
M  V30 BEGIN CTAB
M  V30 COUNTS 28 28 0 0 0
M  V30 BEGIN ATOM
M  V30 1 N -2.28281 1.29873 1.66628 0
M  V30 2 C -2.5489 0.842769 0.313096 0
M  V30 3 C -1.35573 0.0827921 -0.247482 0
M  V30 4 O -1.14843 -0.995297 0.587494 0
M  V30 5 C -1.02031 -2.12397 -0.239091 0
M  V30 6 C 0.144446 -1.79569 -1.17179 0
M  V30 7 C 1.19495 -0.997105 -0.481386 0
M  V30 8 N 1.07347 0.402516 -0.565667 0
M  V30 9 C -0.182653 0.992643 -0.388447 0
M  V30 10 S 2.25711 1.13237 0.476289 0
M  V30 11 O 2.08191 2.63116 0.473955 0
M  V30 12 O 2.00274 0.624881 1.86821 0
M  V30 13 N 3.82605 0.67331 -0.0686634 0
M  V30 14 H -1.89136 2.27261 1.59359 0
M  V30 15 H -3.21814 1.42207 2.15545 0
M  V30 16 H -2.79392 1.72201 -0.333191 0
M  V30 17 H -3.45264 0.188991 0.308252 0
M  V30 18 H -1.66827 -0.227963 -1.28713 0
M  V30 19 H -1.908 -2.27824 -0.866722 0
M  V30 20 H -0.784566 -3.00633 0.401955 0
M  V30 21 H 0.581848 -2.80203 -1.44177 0
M  V30 22 H -0.185186 -1.35547 -2.11835 0
M  V30 23 H 1.29577 -1.38456 0.574265 0
M  V30 24 H 2.17967 -1.28678 -0.95823 0
M  V30 25 H -0.165916 1.64723 0.532354 0
M  V30 26 H -0.392452 1.69273 -1.22413 0
M  V30 27 H 3.83204 -0.34243 -0.223811 0
M  V30 28 H 4.52928 0.969058 0.664673 0
M  V30 END ATOM
M  V30 BEGIN BOND
M  V30 1 1 1 2
M  V30 2 1 2 3
M  V30 3 1 3 4
M  V30 4 1 4 5
M  V30 5 1 5 6
M  V30 6 1 6 7
M  V30 7 1 7 8
M  V30 8 1 8 9
M  V30 9 1 8 10
M  V30 10 2 10 11
M  V30 11 2 10 12
M  V30 12 1 10 13
M  V30 13 1 9 3
M  V30 14 1 1 14
M  V30 15 1 1 15
M  V30 16 1 2 16
M  V30 17 1 2 17
M  V30 18 1 3 18
M  V30 19 1 5 19
M  V30 20 1 5 20
M  V30 21 1 6 21
M  V30 22 1 6 22
M  V30 23 1 7 23
M  V30 24 1 7 24
M  V30 25 1 9 25
M  V30 26 1 9 26
M  V30 27 1 13 27
M  V30 28 1 13 28
M  V30 END BOND
M  V30 END CTAB
M  END
