
     RDKit          3D

  0  0  0  0  0  0  0  0  0  0999 V3000
M  V30 BEGIN CTAB
M  V30 COUNTS 28 29 0 0 0
M  V30 BEGIN ATOM
M  V30 1 C -1.24612 1.62705 1.48721 0
M  V30 2 C -1.10446 0.276585 0.842308 0
M  V30 3 C -2.52238 -0.279877 0.674916 0
M  V30 4 C -2.54686 -0.99695 -0.635515 0
M  V30 5 C -1.09194 -1.03649 -1.08988 0
M  V30 6 C -0.63193 0.332318 -0.572794 0
M  V30 7 C 0.789661 0.560154 -0.763442 0
M  V30 8 N 1.2928 1.56011 -1.51159 0
M  V30 9 N 2.62106 1.5114 -1.49608 0
M  V30 10 C 3.00966 0.472396 -0.73282 0
M  V30 11 N 1.86665 -0.0981397 -0.292712 0
M  V30 12 N 1.7603 -1.20587 0.529055 0
M  V30 13 N 4.31044 0.023636 -0.420714 0
M  V30 14 H -2.16042 1.60647 2.14965 0
M  V30 15 H -0.401345 1.8844 2.15247 0
M  V30 16 H -1.45219 2.38115 0.716934 0
M  V30 17 H -0.573784 -0.459101 1.46424 0
M  V30 18 H -2.78976 -0.95485 1.51742 0
M  V30 19 H -3.2656 0.560145 0.637989 0
M  V30 20 H -3.08851 -0.388407 -1.40528 0
M  V30 21 H -2.99259 -2.00557 -0.58235 0
M  V30 22 H -0.618102 -1.85348 -0.498197 0
M  V30 23 H -0.98238 -1.13642 -2.16624 0
M  V30 24 H -1.25591 1.07181 -1.11131 0
M  V30 25 H 1.75682 -1.09149 1.55927 0
M  V30 26 H 1.68315 -2.16074 0.118184 0
M  V30 27 H 4.97238 0.734084 -0.00674608 0
M  V30 28 H 4.66136 -0.934318 -0.56396 0
M  V30 END ATOM
M  V30 BEGIN BOND
M  V30 1 1 1 2
M  V30 2 1 2 3
M  V30 3 1 3 4
M  V30 4 1 4 5
M  V30 5 1 5 6
M  V30 6 1 6 7
M  V30 7 2 7 8
M  V30 8 1 8 9
M  V30 9 2 9 10
M  V30 10 1 10 11
M  V30 11 1 11 12
M  V30 12 1 10 13
M  V30 13 1 6 2
M  V30 14 1 11 7
M  V30 15 1 1 14
M  V30 16 1 1 15
M  V30 17 1 1 16
M  V30 18 1 2 17
M  V30 19 1 3 18
M  V30 20 1 3 19
M  V30 21 1 4 20
M  V30 22 1 4 21
M  V30 23 1 5 22
M  V30 24 1 5 23
M  V30 25 1 6 24
M  V30 26 1 12 25
M  V30 27 1 12 26
M  V30 28 1 13 27
M  V30 29 1 13 28
M  V30 END BOND
M  V30 END CTAB
M  END
