
     RDKit          3D

  0  0  0  0  0  0  0  0  0  0999 V3000
M  V30 BEGIN CTAB
M  V30 COUNTS 27 28 0 0 0
M  V30 BEGIN ATOM
M  V30 1 N -3.42373 -0.530847 1.26015 0
M  V30 2 C -2.05897 -0.317887 0.848846 0
M  V30 3 C -1.26493 -1.60713 0.794291 0
M  V30 4 O 0.0666793 -1.24765 0.447711 0
M  V30 5 C 0.357044 -0.122797 -0.311635 0
M  V30 6 C -0.634696 0.672552 -0.840711 0
M  V30 7 C -2.05084 0.259432 -0.553249 0
M  V30 8 C -0.381144 1.78919 -1.59428 0
M  V30 9 C 0.925103 2.1504 -1.84606 0
M  V30 10 C 1.94724 1.37975 -1.33382 0
M  V30 11 C 1.67603 0.256675 -0.575795 0
M  V30 12 S 2.9987 -0.68398 0.0490754 0
M  V30 13 O 4.289 -0.102539 -0.38827 0
M  V30 14 O 2.91043 -2.08246 -0.489622 0
M  V30 15 N 2.92085 -0.722914 1.77208 0
M  V30 16 H -3.98543 0.260656 0.841561 0
M  V30 17 H -3.519 -0.412708 2.30161 0
M  V30 18 H -1.53824 0.343985 1.56333 0
M  V30 19 H -1.26436 -2.15369 1.74091 0
M  V30 20 H -1.66777 -2.28829 -0.0102072 0
M  V30 21 H -2.2646 -0.578061 -1.27205 0
M  V30 22 H -2.7523 1.09855 -0.677478 0
M  V30 23 H -1.22686 2.36613 -1.97724 0
M  V30 24 H 1.14695 3.04188 -2.44781 0
M  V30 25 H 2.9968 1.65481 -1.52591 0
M  V30 26 H 2.04892 -1.23153 2.04125 0
M  V30 27 H 3.74911 -1.19152 2.18333 0
M  V30 END ATOM
M  V30 BEGIN BOND
M  V30 1 1 1 2
M  V30 2 1 2 3
M  V30 3 1 3 4
M  V30 4 1 4 5
M  V30 5 2 5 6
M  V30 6 1 6 7
M  V30 7 1 6 8
M  V30 8 2 8 9
M  V30 9 1 9 10
M  V30 10 2 10 11
M  V30 11 1 11 12
M  V30 12 2 12 13
M  V30 13 2 12 14
M  V30 14 1 12 15
M  V30 15 1 7 2
M  V30 16 1 11 5
M  V30 17 1 1 16
M  V30 18 1 1 17
M  V30 19 1 2 18
M  V30 20 1 3 19
M  V30 21 1 3 20
M  V30 22 1 7 21
M  V30 23 1 7 22
M  V30 24 1 8 23
M  V30 25 1 9 24
M  V30 26 1 10 25
M  V30 27 1 15 26
M  V30 28 1 15 27
M  V30 END BOND
M  V30 END CTAB
M  END
