
     RDKit          3D

  0  0  0  0  0  0  0  0  0  0999 V3000
M  V30 BEGIN CTAB
M  V30 COUNTS 34 34 0 0 0
M  V30 BEGIN ATOM
M  V30 1 O -0.304236 3.71552 0.523295 0
M  V30 2 C -0.784399 2.41352 0.269202 0
M  V30 3 C 0.404092 1.50523 0.2026 0
M  V30 4 C 0.0555596 0.0658564 -0.0663428 0
M  V30 5 C -0.844626 -0.515764 1.00248 0
M  V30 6 C -2.29416 -0.575695 0.526175 0
M  V30 7 C -2.35291 -1.68343 -0.503252 0
M  V30 8 C -1.14312 -1.57041 -1.40089 0
M  V30 9 C -0.585254 -0.141988 -1.40921 0
M  V30 10 N 1.30909 -0.663079 -0.0725606 0
M  V30 11 C 2.18964 -0.714518 1.02125 0
M  V30 12 N 3.35501 -0.198762 0.946062 0
M  V30 13 N 3.75246 0.421769 -0.239367 0
M  V30 14 N 1.78982 -1.34199 2.22121 0
M  V30 15 H -1.05403 4.33618 0.294737 0
M  V30 16 H -1.29125 2.45073 -0.707219 0
M  V30 17 H -1.49336 2.19012 1.05446 0
M  V30 18 H 1.07713 1.83724 -0.609978 0
M  V30 19 H 0.98361 1.52524 1.1464 0
M  V30 20 H -0.743477 0.0253671 1.96378 0
M  V30 21 H -0.582542 -1.58606 1.2233 0
M  V30 22 H -2.63033 0.337484 0.045555 0
M  V30 23 H -2.90968 -0.785981 1.40828 0
M  V30 24 H -3.24584 -1.51919 -1.1338 0
M  V30 25 H -2.45267 -2.65368 -0.0115172 0
M  V30 26 H -1.38662 -1.92369 -2.40863 0
M  V30 27 H -0.362807 -2.25506 -0.960269 0
M  V30 28 H -1.39671 0.555428 -1.63228 0
M  V30 29 H 0.215182 -0.150572 -2.1938 0
M  V30 30 H 1.60375 -1.18967 -0.921131 0
M  V30 31 H 3.77872 -0.0717176 -1.15902 0
M  V30 32 H 4.03773 1.41169 -0.233163 0
M  V30 33 H 1.95121 -2.38301 2.29031 0
M  V30 34 H 1.35502 -0.867075 3.03124 0
M  V30 END ATOM
M  V30 BEGIN BOND
M  V30 1 1 1 2
M  V30 2 1 2 3
M  V30 3 1 3 4
M  V30 4 1 4 5
M  V30 5 1 5 6
M  V30 6 1 6 7
M  V30 7 1 7 8
M  V30 8 1 8 9
M  V30 9 1 4 10
M  V30 10 1 10 11
M  V30 11 2 11 12 CFG=2
M  V30 12 1 12 13
M  V30 13 1 11 14
M  V30 14 1 9 4
M  V30 15 1 1 15
M  V30 16 1 2 16
M  V30 17 1 2 17
M  V30 18 1 3 18
M  V30 19 1 3 19
M  V30 20 1 5 20
M  V30 21 1 5 21
M  V30 22 1 6 22
M  V30 23 1 6 23
M  V30 24 1 7 24
M  V30 25 1 7 25
M  V30 26 1 8 26
M  V30 27 1 8 27
M  V30 28 1 9 28
M  V30 29 1 9 29
M  V30 30 1 10 30
M  V30 31 1 13 31
M  V30 32 1 13 32
M  V30 33 1 14 33
M  V30 34 1 14 34
M  V30 END BOND
M  V30 END CTAB
M  END
