
     RDKit          3D

  0  0  0  0  0  0  0  0  0  0999 V3000
M  V30 BEGIN CTAB
M  V30 COUNTS 42 41 0 0 0
M  V30 BEGIN ATOM
M  V30 1 N 6.27722 0.0730091 0.763454 0
M  V30 2 C 5.57259 -1.05905 0.201155 0
M  V30 3 C 4.06396 -0.767558 0.189909 0
M  V30 4 C 3.82091 0.457325 -0.648651 0
M  V30 5 C 2.33809 0.78821 -0.68216 0
M  V30 6 C 1.60351 -0.359305 -1.2685 0
M  V30 7 C 0.13184 -0.0724933 -1.35281 0
M  V30 8 C -0.412989 0.175697 0.0228025 0
M  V30 9 C -1.88441 0.449554 -0.0514755 0
M  V30 10 O -2.33273 1.41685 -0.711954 0
M  V30 11 O -2.83589 -0.32238 0.585369 0
M  V30 12 C -4.18052 -0.0377401 0.492678 0
M  V30 13 C -4.59878 1.31024 1.00074 0
M  V30 14 C -4.92745 -1.07019 1.35137 0
M  V30 15 C -4.63791 -0.223033 -0.940127 0
M  V30 16 N -0.181447 -0.993368 0.847001 0
M  V30 17 H 5.7355 0.423852 1.57296 0
M  V30 18 H 6.36837 0.845963 0.0625538 0
M  V30 19 H 5.72015 -1.93788 0.845539 0
M  V30 20 H 5.8443 -1.25865 -0.855151 0
M  V30 21 H 3.66417 -0.641704 1.20466 0
M  V30 22 H 3.62265 -1.69552 -0.261515 0
M  V30 23 H 4.39685 1.29002 -0.239861 0
M  V30 24 H 4.12728 0.283206 -1.69327 0
M  V30 25 H 2.15693 1.67919 -1.29194 0
M  V30 26 H 2.07087 1.05174 0.362723 0
M  V30 27 H 2.04018 -0.580552 -2.28471 0
M  V30 28 H 1.68148 -1.2948 -0.636747 0
M  V30 29 H -0.408655 -0.987077 -1.72886 0
M  V30 30 H -0.0971136 0.759544 -2.05656 0
M  V30 31 H 0.116481 1.0613 0.444567 0
M  V30 32 H -4.11107 1.48609 1.97507 0
M  V30 33 H -5.69324 1.23926 1.21419 0
M  V30 34 H -4.47881 2.12373 0.276248 0
M  V30 35 H -5.94474 -1.24256 0.949153 0
M  V30 36 H -4.93163 -0.701733 2.40169 0
M  V30 37 H -4.37758 -2.03273 1.35708 0
M  V30 38 H -4.59306 0.772541 -1.45819 0
M  V30 39 H -3.90207 -0.866463 -1.46567 0
M  V30 40 H -5.65619 -0.659389 -0.995373 0
M  V30 41 H -0.274397 -0.760448 1.86709 0
M  V30 42 H -0.892648 -1.72565 0.635534 0
M  V30 END ATOM
M  V30 BEGIN BOND
M  V30 1 1 1 2
M  V30 2 1 2 3
M  V30 3 1 3 4
M  V30 4 1 4 5
M  V30 5 1 5 6
M  V30 6 1 6 7
M  V30 7 1 7 8
M  V30 8 1 8 9
M  V30 9 2 9 10
M  V30 10 1 9 11
M  V30 11 1 11 12
M  V30 12 1 12 13
M  V30 13 1 12 14
M  V30 14 1 12 15
M  V30 15 1 8 16
M  V30 16 1 1 17
M  V30 17 1 1 18
M  V30 18 1 2 19
M  V30 19 1 2 20
M  V30 20 1 3 21
M  V30 21 1 3 22
M  V30 22 1 4 23
M  V30 23 1 4 24
M  V30 24 1 5 25
M  V30 25 1 5 26
M  V30 26 1 6 27
M  V30 27 1 6 28
M  V30 28 1 7 29
M  V30 29 1 7 30
M  V30 30 1 8 31
M  V30 31 1 13 32
M  V30 32 1 13 33
M  V30 33 1 13 34
M  V30 34 1 14 35
M  V30 35 1 14 36
M  V30 36 1 14 37
M  V30 37 1 15 38
M  V30 38 1 15 39
M  V30 39 1 15 40
M  V30 40 1 16 41
M  V30 41 1 16 42
M  V30 END BOND
M  V30 END CTAB
M  END
