
     RDKit          3D

  0  0  0  0  0  0  0  0  0  0999 V3000
M  V30 BEGIN CTAB
M  V30 COUNTS 57 60 0 0 0
M  V30 BEGIN ATOM
M  V30 1 C 0.79091 -0.687473 0.258108 0 CFG=1
M  V30 2 S 1.19519 -1.95123 -0.97983 0
M  V30 3 C 2.82571 -1.42592 -1.64032 0
M  V30 4 C 3.75047 -1.3048 -0.400534 0
M  V30 5 C 4.93265 -2.15605 -0.430694 0
M  V30 6 S 6.26277 -1.89522 -1.52786 0
M  V30 7 C 7.48003 -0.708473 -1.03345 0
M  V30 8 N 7.6725 0.580405 -1.24233 0
M  V30 9 N 8.63915 1.20743 -0.721324 0
M  V30 10 C 9.49809 0.550523 0.0641223 0
M  V30 11 C 10.7172 1.05511 0.807685 0
M  V30 12 S 8.83009 -1.01149 0.0390941 0
M  V30 13 C 3.32735 -0.605451 0.633654 0
M  V30 14 N 2.02999 0.0192391 0.627431 0
M  V30 15 C 1.16753 1.12799 0.796808 0
M  V30 16 O 1.16076 2.01163 1.69887 0
M  V30 17 C 0.514283 0.640637 -0.421131 0
M  V30 18 N -0.851378 0.949151 -0.59004 0
M  V30 19 C -2.00089 0.225851 -0.28706 0
M  V30 20 O -1.84891 -0.933034 0.284725 0
M  V30 21 C -3.35328 0.612575 -0.540899 0
M  V30 22 N -4.32162 -0.145247 -0.210898 0
M  V30 23 O -5.60594 -0.115481 -0.304699 0
M  V30 24 C -6.47882 -0.712488 0.699067 0
M  V30 25 C -7.20842 -1.7834 -0.133202 0
M  V30 26 C -8.13683 -2.66807 0.537809 0
M  V30 27 N -9.35248 -2.13066 1.04975 0
M  V30 28 C -3.68815 1.98495 -0.96168 0
M  V30 29 N -2.98312 2.7097 -1.82203 0
M  V30 30 S -3.63854 4.23473 -1.70113 0
M  V30 31 C -4.82125 3.92908 -0.532733 0
M  V30 32 N -5.7549 4.80413 0.123476 0
M  V30 33 N -4.65734 2.63817 -0.291067 0
M  V30 34 C 4.14548 -0.281448 1.77774 0
M  V30 35 O 5.54725 -0.627865 1.7663 0
M  V30 36 O 3.79323 0.277125 2.82423 0
M  V30 37 H 0.304639 -1.01794 1.08746 0
M  V30 38 H 2.70385 -0.482166 -2.13508 0
M  V30 39 H 3.21777 -2.2416 -2.26819 0
M  V30 40 H 5.29722 -2.40283 0.620252 0
M  V30 41 H 4.46304 -3.20274 -0.775781 0
M  V30 42 H 10.4023 1.64462 1.71599 0
M  V30 43 H 11.3 1.64808 0.085628 0
M  V30 44 H 11.2674 0.116428 1.08885 0
M  V30 45 H 1.08273 0.644138 -1.38187 0
M  V30 46 H -1.01425 1.89941 -1.08764 0
M  V30 47 H -5.92955 -1.08086 1.51388 0
M  V30 48 H -7.227 0.0991508 0.941745 0
M  V30 49 H -7.59482 -1.28442 -1.07145 0
M  V30 50 H -6.35757 -2.44938 -0.541941 0
M  V30 51 H -7.56927 -3.18688 1.41597 0
M  V30 52 H -8.34864 -3.5383 -0.134627 0
M  V30 53 H -9.54078 -1.17286 0.607524 0
M  V30 54 H -10.1861 -2.74396 0.74208 0
M  V30 55 H -5.52805 4.9483 1.16299 0
M  V30 56 H -6.52027 5.2234 -0.359667 0
M  V30 57 H 6.19854 0.165781 1.59917 0
M  V30 END ATOM
M  V30 BEGIN BOND
M  V30 1 1 1 2
M  V30 2 1 2 3
M  V30 3 1 3 4
M  V30 4 1 4 5
M  V30 5 1 5 6
M  V30 6 1 6 7
M  V30 7 2 7 8
M  V30 8 1 8 9
M  V30 9 2 9 10
M  V30 10 1 10 11
M  V30 11 1 10 12
M  V30 12 2 4 13
M  V30 13 1 13 14
M  V30 14 1 14 15
M  V30 15 2 15 16
M  V30 16 1 15 17
M  V30 17 1 17 18
M  V30 18 1 18 19
M  V30 19 2 19 20
M  V30 20 1 19 21
M  V30 21 2 21 22
M  V30 22 1 22 23
M  V30 23 1 23 24
M  V30 24 1 24 25
M  V30 25 1 25 26
M  V30 26 1 26 27
M  V30 27 1 21 28
M  V30 28 2 28 29
M  V30 29 1 29 30
M  V30 30 1 30 31
M  V30 31 1 31 32
M  V30 32 2 31 33
M  V30 33 1 13 34
M  V30 34 1 34 35
M  V30 35 2 34 36
M  V30 36 1 14 1
M  V30 37 1 33 28
M  V30 38 1 17 1
M  V30 39 1 12 7
M  V30 40 1 1 37 CFG=1
M  V30 41 1 3 38
M  V30 42 1 3 39
M  V30 43 1 5 40
M  V30 44 1 5 41
M  V30 45 1 11 42
M  V30 46 1 11 43
M  V30 47 1 11 44
M  V30 48 1 17 45
M  V30 49 1 18 46
M  V30 50 1 24 47
M  V30 51 1 24 48
M  V30 52 1 25 49
M  V30 53 1 25 50
M  V30 54 1 26 51
M  V30 55 1 26 52
M  V30 56 1 27 53
M  V30 57 1 27 54
M  V30 58 1 32 55
M  V30 59 1 32 56
M  V30 60 1 35 57
M  V30 END BOND
M  V30 END CTAB
M  END
