
     RDKit          3D

  0  0  0  0  0  0  0  0  0  0999 V3000
M  V30 BEGIN CTAB
M  V30 COUNTS 46 47 0 0 0
M  V30 BEGIN ATOM
M  V30 1 N 7.39609 0.526187 -0.211946 0
M  V30 2 C 6.26079 0.864079 0.59158 0
M  V30 3 C 5.01345 0.404421 -0.222494 0
M  V30 4 C 3.82961 0.766528 0.576356 0
M  V30 5 C 2.46426 0.514944 0.0239703 0
M  V30 6 C 2.09754 -0.882852 -0.223953 0 CFG=1
M  V30 7 C 0.801588 -1.1644 -0.804518 0
M  V30 8 O 0.8038 -2.05032 -1.75902 0
M  V30 9 N -0.450033 -0.63552 -0.503738 0
M  V30 10 C -1.61467 -1.13215 -1.2947 0
M  V30 11 C -2.69782 -1.49501 -0.305734 0
M  V30 12 N -3.15019 -0.24255 0.23792 0
M  V30 13 C -2.13845 0.608458 0.742909 0
M  V30 14 O -2.44475 1.61764 1.43244 0
M  V30 15 C -0.690317 0.351814 0.48419 0
M  V30 16 C -4.50598 0.117807 0.245271 0
M  V30 17 C -5.38151 -0.563874 1.05462 0
M  V30 18 C -6.72574 -0.210704 1.08783 0
M  V30 19 C -7.1623 0.833522 0.293646 0
M  V30 20 C -6.32193 1.53806 -0.529274 0
M  V30 21 C -5.00125 1.1622 -0.535285 0
M  V30 22 N 3.10252 -1.53858 -1.07298 0
M  V30 23 H 7.51089 1.26626 -0.927988 0
M  V30 24 H 7.24797 -0.358968 -0.698552 0
M  V30 25 H 6.25068 0.262607 1.50261 0
M  V30 26 H 6.11202 1.94547 0.757508 0
M  V30 27 H 5.02428 0.855602 -1.23024 0
M  V30 28 H 5.22664 -0.679764 -0.345634 0
M  V30 29 H 3.87303 0.195099 1.54826 0
M  V30 30 H 3.91746 1.85945 0.854397 0
M  V30 31 H 2.28631 1.20232 -0.841528 0
M  V30 32 H 1.79554 0.948108 0.850527 0
M  V30 33 H 2.12701 -1.42299 0.777038 0
M  V30 34 H -1.3023 -2.03643 -1.86315 0
M  V30 35 H -1.93096 -0.323203 -1.98107 0
M  V30 36 H -3.48285 -2.11272 -0.741838 0
M  V30 37 H -2.18743 -2.03999 0.538654 0
M  V30 38 H -0.257093 1.33809 0.130085 0
M  V30 39 H -0.24154 0.12589 1.45663 0
M  V30 40 H -5.05541 -1.38278 1.68435 0
M  V30 41 H -7.38237 -0.751828 1.72541 0
M  V30 42 H -8.18768 1.10165 0.324759 0
M  V30 43 H -6.73482 2.33865 -1.12279 0
M  V30 44 H -4.31108 1.68543 -1.16939 0
M  V30 45 H 2.84591 -2.48491 -1.3269 0
M  V30 46 H 3.3711 -0.920722 -1.87217 0
M  V30 END ATOM
M  V30 BEGIN BOND
M  V30 1 1 1 2
M  V30 2 1 2 3
M  V30 3 1 3 4
M  V30 4 1 4 5
M  V30 5 1 5 6
M  V30 6 1 6 7
M  V30 7 2 7 8
M  V30 8 1 7 9
M  V30 9 1 9 10
M  V30 10 1 10 11
M  V30 11 1 11 12
M  V30 12 1 12 13
M  V30 13 2 13 14
M  V30 14 1 13 15
M  V30 15 1 12 16
M  V30 16 2 16 17
M  V30 17 1 17 18
M  V30 18 2 18 19
M  V30 19 1 19 20
M  V30 20 2 20 21
M  V30 21 1 6 22
M  V30 22 1 15 9
M  V30 23 1 21 16
M  V30 24 1 1 23
M  V30 25 1 1 24
M  V30 26 1 2 25
M  V30 27 1 2 26
M  V30 28 1 3 27
M  V30 29 1 3 28
M  V30 30 1 4 29
M  V30 31 1 4 30
M  V30 32 1 5 31
M  V30 33 1 5 32
M  V30 34 1 6 33 CFG=1
M  V30 35 1 10 34
M  V30 36 1 10 35
M  V30 37 1 11 36
M  V30 38 1 11 37
M  V30 39 1 15 38
M  V30 40 1 15 39
M  V30 41 1 17 40
M  V30 42 1 18 41
M  V30 43 1 19 42
M  V30 44 1 20 43
M  V30 45 1 21 44
M  V30 46 1 22 45
M  V30 47 1 22 46
M  V30 END BOND
M  V30 END CTAB
M  END
