
     RDKit          3D

  0  0  0  0  0  0  0  0  0  0999 V3000
M  V30 BEGIN CTAB
M  V30 COUNTS 44 43 0 0 0
M  V30 BEGIN ATOM
M  V30 1 N 0.52766 2.51443 -2.35469 0
M  V30 2 C 0.0672594 1.2617 -2.87348 0
M  V30 3 C 0.401043 0.0314015 -2.11052 0
M  V30 4 N -0.0762475 0.0189133 -0.732623 0
M  V30 5 C 0.615821 0.458148 0.397317 0
M  V30 6 S -0.418154 0.540623 1.75956 0
M  V30 7 N 1.96438 0.807846 0.640873 0
M  V30 8 C 2.30801 1.2746 1.94703 0
M  V30 9 O 1.42161 1.36814 2.84242 0
M  V30 10 C 3.64449 1.66963 2.35775 0
M  V30 11 C 3.02321 0.675478 -0.284151 0
M  V30 12 C 3.68922 -0.685664 -0.320898 0
M  V30 13 N 4.27488 -1.12205 0.891597 0
M  V30 14 C -1.43904 -0.459255 -0.559317 0
M  V30 15 O -2.03808 -0.781103 -1.63382 0
M  V30 16 O -2.1279 -0.600907 0.581603 0
M  V30 17 C -3.46761 -1.08504 0.641679 0
M  V30 18 C -3.88996 -1.1054 2.08707 0
M  V30 19 C -4.42344 -0.172471 -0.101267 0
M  V30 20 C -3.5661 -2.50131 0.121136 0
M  V30 21 H 0.68247 3.18791 -3.12319 0
M  V30 22 H -0.224403 2.92978 -1.74371 0
M  V30 23 H 0.589813 1.14974 -3.87698 0
M  V30 24 H -1.0096 1.31168 -3.16877 0
M  V30 25 H -0.25004 -0.798757 -2.61779 0
M  V30 26 H 1.38143 -0.32571 -2.2186 0
M  V30 27 H 3.629 2.61092 2.98974 0
M  V30 28 H 4.42823 1.79223 1.63606 0
M  V30 29 H 4.00413 0.900242 3.1167 0
M  V30 30 H 2.76001 0.959566 -1.30931 0
M  V30 31 H 3.83274 1.44452 -0.0138875 0
M  V30 32 H 2.91788 -1.40897 -0.640451 0
M  V30 33 H 4.44225 -0.644568 -1.13747 0
M  V30 34 H 3.86064 -2.0115 1.25705 0
M  V30 35 H 5.296 -1.31695 0.774569 0
M  V30 36 H -4.67734 -1.87926 2.28195 0
M  V30 37 H -3.03977 -1.40579 2.76575 0
M  V30 38 H -4.20866 -0.109457 2.45499 0
M  V30 39 H -4.15509 0.884765 0.00321176 0
M  V30 40 H -4.47448 -0.396677 -1.1829 0
M  V30 41 H -5.4262 -0.295701 0.401238 0
M  V30 42 H -3.69528 -3.24065 0.96512 0
M  V30 43 H -2.6669 -2.83176 -0.418889 0
M  V30 44 H -4.48787 -2.61331 -0.491711 0
M  V30 END ATOM
M  V30 BEGIN BOND
M  V30 1 1 1 2
M  V30 2 1 2 3
M  V30 3 1 3 4
M  V30 4 1 4 5
M  V30 5 2 5 6
M  V30 6 1 5 7
M  V30 7 1 7 8
M  V30 8 2 8 9
M  V30 9 1 8 10
M  V30 10 1 7 11
M  V30 11 1 11 12
M  V30 12 1 12 13
M  V30 13 1 4 14
M  V30 14 2 14 15
M  V30 15 1 14 16
M  V30 16 1 16 17
M  V30 17 1 17 18
M  V30 18 1 17 19
M  V30 19 1 17 20
M  V30 20 1 1 21
M  V30 21 1 1 22
M  V30 22 1 2 23
M  V30 23 1 2 24
M  V30 24 1 3 25
M  V30 25 1 3 26
M  V30 26 1 10 27
M  V30 27 1 10 28
M  V30 28 1 10 29
M  V30 29 1 11 30
M  V30 30 1 11 31
M  V30 31 1 12 32
M  V30 32 1 12 33
M  V30 33 1 13 34
M  V30 34 1 13 35
M  V30 35 1 18 36
M  V30 36 1 18 37
M  V30 37 1 18 38
M  V30 38 1 19 39
M  V30 39 1 19 40
M  V30 40 1 19 41
M  V30 41 1 20 42
M  V30 42 1 20 43
M  V30 43 1 20 44
M  V30 END BOND
M  V30 END CTAB
M  END
