
     RDKit          3D

  0  0  0  0  0  0  0  0  0  0999 V3000
M  V30 BEGIN CTAB
M  V30 COUNTS 43 44 0 0 0
M  V30 BEGIN ATOM
M  V30 1 O 0.53321 0.917005 0.267556 0
M  V30 2 C 0.686954 0.354675 -0.836159 0
M  V30 3 N 1.92593 -0.170788 -1.213 0
M  V30 4 C 3.15172 -0.198589 -0.531557 0
M  V30 5 C 4.31599 -0.638537 -1.19494 0
M  V30 6 C 5.52967 -0.687345 -0.559603 0
M  V30 7 C 5.69586 -0.315709 0.752319 0
M  V30 8 C 4.58276 0.116131 1.42344 0
M  V30 9 C 3.33311 0.168836 0.777666 0
M  V30 10 S 7.27752 -0.408172 1.48576 0
M  V30 11 O 8.37007 -0.197442 0.458217 0
M  V30 12 O 7.35413 0.681825 2.51687 0
M  V30 13 N 7.54094 -1.94122 2.2115 0
M  V30 14 C -0.479523 0.260276 -1.73363 0
M  V30 15 C -1.75397 0.69045 -1.08252 0
M  V30 16 C -2.20195 -0.135104 0.0770263 0
M  V30 17 O -3.40153 0.304803 0.60754 0
M  V30 18 C -4.62604 0.274077 0.00490647 0
M  V30 19 C -4.84593 -0.250594 -1.22422 0
M  V30 20 C -6.10788 -0.279364 -1.8288 0
M  V30 21 C -7.14978 0.254269 -1.11885 0
M  V30 22 C -6.95626 0.790798 0.128157 0
M  V30 23 C -5.72664 0.803709 0.682762 0
M  V30 24 N -5.49441 1.35675 1.98217 0
M  V30 25 H 1.93975 -0.630918 -2.18327 0
M  V30 26 H 4.21588 -0.935575 -2.22448 0
M  V30 27 H 6.4298 -1.03377 -1.0931 0
M  V30 28 H 4.65698 0.415809 2.44231 0
M  V30 29 H 2.48043 0.51458 1.3617 0
M  V30 30 H 7.32578 -1.88148 3.21115 0
M  V30 31 H 7.08857 -2.72487 1.72885 0
M  V30 32 H -0.242749 0.917216 -2.61364 0
M  V30 33 H -0.563258 -0.792186 -2.10134 0
M  V30 34 H -2.50273 0.839213 -1.8689 0
M  V30 35 H -1.56791 1.76156 -0.685262 0
M  V30 36 H -1.4299 -0.150106 0.882578 0
M  V30 37 H -2.30492 -1.22214 -0.217576 0
M  V30 38 H -4.05225 -0.71833 -1.81455 0
M  V30 39 H -6.27521 -0.696109 -2.80471 0
M  V30 40 H -8.14734 0.25728 -1.54092 0
M  V30 41 H -7.78567 1.21944 0.703002 0
M  V30 42 H -4.88847 2.20348 2.07069 0
M  V30 43 H -5.93074 0.906168 2.79957 0
M  V30 END ATOM
M  V30 BEGIN BOND
M  V30 1 2 1 2
M  V30 2 1 2 3
M  V30 3 1 3 4
M  V30 4 2 4 5
M  V30 5 1 5 6
M  V30 6 2 6 7
M  V30 7 1 7 8
M  V30 8 2 8 9
M  V30 9 1 7 10
M  V30 10 2 10 11
M  V30 11 2 10 12
M  V30 12 1 10 13
M  V30 13 1 2 14
M  V30 14 1 14 15
M  V30 15 1 15 16
M  V30 16 1 16 17
M  V30 17 1 17 18
M  V30 18 2 18 19
M  V30 19 1 19 20
M  V30 20 2 20 21
M  V30 21 1 21 22
M  V30 22 2 22 23
M  V30 23 1 23 24
M  V30 24 1 9 4
M  V30 25 1 23 18
M  V30 26 1 3 25
M  V30 27 1 5 26
M  V30 28 1 6 27
M  V30 29 1 8 28
M  V30 30 1 9 29
M  V30 31 1 13 30
M  V30 32 1 13 31
M  V30 33 1 14 32
M  V30 34 1 14 33
M  V30 35 1 15 34
M  V30 36 1 15 35
M  V30 37 1 16 36
M  V30 38 1 16 37
M  V30 39 1 19 38
M  V30 40 1 20 39
M  V30 41 1 21 40
M  V30 42 1 22 41
M  V30 43 1 24 42
M  V30 44 1 24 43
M  V30 END BOND
M  V30 END CTAB
M  END
