
     RDKit          3D

  0  0  0  0  0  0  0  0  0  0999 V3000
M  V30 BEGIN CTAB
M  V30 COUNTS 23 23 0 0 0
M  V30 BEGIN ATOM
M  V30 1 C 2.92524 -0.450996 -0.0203003 0
M  V30 2 O 1.64244 -0.358197 -0.60444 0
M  V30 3 C 0.815213 0.449641 0.167141 0
M  V30 4 C 0.335791 1.62419 -0.696112 0
M  V30 5 C -0.87595 0.753184 -1.04004 0
M  V30 6 C -0.606316 0.0235404 0.274198 0
M  V30 7 N -1.2523 0.614329 1.41639 0
M  V30 8 C -0.87956 -1.44971 0.144336 0
M  V30 9 N -2.30619 -1.68096 0.27301 0
M  V30 10 H 3.39811 0.555504 0.062381 0
M  V30 11 H 2.84516 -0.871313 1.01002 0
M  V30 12 H 3.52786 -1.15689 -0.604299 0
M  V30 13 H 1.29718 0.857678 1.06652 0
M  V30 14 H 0.950302 1.83698 -1.56828 0
M  V30 15 H -0.0104863 2.46898 -0.0815858 0
M  V30 16 H -0.621764 0.104376 -1.88454 0
M  V30 17 H -1.83181 1.27046 -1.0453 0
M  V30 18 H -2.19714 0.971829 1.1487 0
M  V30 19 H -0.669302 1.32556 1.89713 0
M  V30 20 H -0.39433 -1.94454 1.02291 0
M  V30 21 H -0.557828 -1.87607 -0.80457 0
M  V30 22 H -2.84993 -0.811822 0.401291 0
M  V30 23 H -2.68441 -2.25576 -0.534561 0
M  V30 END ATOM
M  V30 BEGIN BOND
M  V30 1 1 1 2
M  V30 2 1 2 3
M  V30 3 1 3 4
M  V30 4 1 4 5
M  V30 5 1 5 6
M  V30 6 1 6 7
M  V30 7 1 6 8
M  V30 8 1 8 9
M  V30 9 1 6 3
M  V30 10 1 1 10
M  V30 11 1 1 11
M  V30 12 1 1 12
M  V30 13 1 3 13
M  V30 14 1 4 14
M  V30 15 1 4 15
M  V30 16 1 5 16
M  V30 17 1 5 17
M  V30 18 1 7 18
M  V30 19 1 7 19
M  V30 20 1 8 20
M  V30 21 1 8 21
M  V30 22 1 9 22
M  V30 23 1 9 23
M  V30 END BOND
M  V30 END CTAB
M  END
