
     RDKit          3D

  0  0  0  0  0  0  0  0  0  0999 V3000
M  V30 BEGIN CTAB
M  V30 COUNTS 19 18 0 0 0
M  V30 BEGIN ATOM
M  V30 1 C -1.9229 -0.624594 1.60132 0
M  V30 2 C -1.40691 0.482714 0.662332 0
M  V30 3 C 0.0347165 0.338444 0.479353 0
M  V30 4 N 0.818506 0.458858 1.72398 0
M  V30 5 C 0.746883 0.123828 -0.580746 0
M  V30 6 C 2.2103 0.0378794 -0.36279 0
M  V30 7 N 3.34798 -0.0412317 -0.177129 0
M  V30 8 C 0.294922 -0.0459059 -1.92855 0
M  V30 9 N 1.29724 -0.277577 -2.97495 0
M  V30 10 S -1.21626 -0.025404 -2.50599 0
M  V30 11 H -1.75102 -0.27167 2.63431 0
M  V30 12 H -1.33502 -1.55527 1.38163 0
M  V30 13 H -2.99517 -0.814661 1.42018 0
M  V30 14 H -2.02778 0.477902 -0.218161 0
M  V30 15 H -1.55685 1.46296 1.20638 0
M  V30 16 H 0.674302 1.26563 2.34303 0
M  V30 17 H 1.50475 -0.266674 1.96356 0
M  V30 18 H 1.55693 -1.25462 -3.23067 0
M  V30 19 H 1.72537 0.529394 -3.4371 0
M  V30 END ATOM
M  V30 BEGIN BOND
M  V30 1 1 1 2
M  V30 2 1 2 3
M  V30 3 1 3 4
M  V30 4 2 3 5 CFG=2
M  V30 5 1 5 6
M  V30 6 3 6 7
M  V30 7 1 5 8
M  V30 8 1 8 9
M  V30 9 2 8 10
M  V30 10 1 1 11
M  V30 11 1 1 12
M  V30 12 1 1 13
M  V30 13 1 2 14
M  V30 14 1 2 15
M  V30 15 1 4 16
M  V30 16 1 4 17
M  V30 17 1 9 18
M  V30 18 1 9 19
M  V30 END BOND
M  V30 END CTAB
M  END
