
     RDKit          3D

  0  0  0  0  0  0  0  0  0  0999 V3000
M  V30 BEGIN CTAB
M  V30 COUNTS 36 38 0 0 0
M  V30 BEGIN ATOM
M  V30 1 O -4.91963 -0.0778818 -0.0673575 0
M  V30 2 C -3.81224 -0.91207 0.0279114 0
M  V30 3 C -2.64274 -0.21262 -0.565005 0 CFG=2
M  V30 4 O -1.44686 -0.897327 -0.539732 0
M  V30 5 C -0.469706 0.0175998 -0.825546 0 CFG=1
M  V30 6 C -1.00612 1.41327 -0.475928 0 CFG=2
M  V30 7 C -2.26342 1.01476 0.282561 0 CFG=1
M  V30 8 O -3.19709 2.01348 0.214757 0
M  V30 9 O -1.34201 2.08792 -1.63201 0
M  V30 10 N 0.768975 -0.233046 -0.113505 0
M  V30 11 C 1.03753 -0.957034 0.983499 0
M  V30 12 N 0.0702285 -1.68793 1.70615 0
M  V30 13 N -0.110386 -3.04019 1.44736 0
M  V30 14 N 2.37082 -0.876746 1.27266 0
M  V30 15 C 2.94812 -0.1057 0.365975 0
M  V30 16 C 1.94746 0.296853 -0.500373 0
M  V30 17 N 2.30054 1.09922 -1.51758 0
M  V30 18 C 3.57927 1.49568 -1.68604 0
M  V30 19 N 4.53688 1.08941 -0.826925 0
M  V30 20 C 4.26246 0.285076 0.216037 0
M  V30 21 N 5.32135 -0.111271 1.07625 0
M  V30 22 H -4.86039 0.519417 -0.817625 0
M  V30 23 H -3.70384 -1.24796 1.05142 0
M  V30 24 H -4.0442 -1.8054 -0.616508 0
M  V30 25 H -2.86722 0.194314 -1.593 0
M  V30 26 H -0.21376 -0.0039717 -1.91674 0
M  V30 27 H -0.250774 1.90963 0.144267 0
M  V30 28 H -2.05045 0.63309 1.27936 0
M  V30 29 H -2.92754 2.72466 0.851819 0
M  V30 30 H -0.749127 1.80746 -2.37626 0
M  V30 31 H -0.509943 -1.23057 2.42962 0
M  V30 32 H -0.125037 -3.27488 0.444686 0
M  V30 33 H -0.834087 -3.5098 1.9992 0
M  V30 34 H 3.77346 2.14584 -2.53612 0
M  V30 35 H 6.11755 0.50715 1.32822 0
M  V30 36 H 5.31192 -1.07045 1.48448 0
M  V30 END ATOM
M  V30 BEGIN BOND
M  V30 1 1 1 2
M  V30 2 1 2 3
M  V30 3 1 3 4
M  V30 4 1 4 5
M  V30 5 1 5 6
M  V30 6 1 6 7
M  V30 7 1 7 8
M  V30 8 1 6 9
M  V30 9 1 5 10
M  V30 10 1 10 11
M  V30 11 1 11 12
M  V30 12 1 12 13
M  V30 13 2 11 14
M  V30 14 1 14 15
M  V30 15 2 15 16
M  V30 16 1 16 17
M  V30 17 2 17 18
M  V30 18 1 18 19
M  V30 19 2 19 20
M  V30 20 1 20 21
M  V30 21 1 7 3
M  V30 22 1 16 10
M  V30 23 1 20 15
M  V30 24 1 1 22
M  V30 25 1 2 23
M  V30 26 1 2 24
M  V30 27 1 3 25 CFG=3
M  V30 28 1 5 26 CFG=3
M  V30 29 1 6 27 CFG=1
M  V30 30 1 7 28 CFG=1
M  V30 31 1 8 29
M  V30 32 1 9 30
M  V30 33 1 12 31
M  V30 34 1 13 32
M  V30 35 1 13 33
M  V30 36 1 18 34
M  V30 37 1 21 35
M  V30 38 1 21 36
M  V30 END BOND
M  V30 END CTAB
M  END
