
     RDKit          3D

  0  0  0  0  0  0  0  0  0  0999 V3000
M  V30 BEGIN CTAB
M  V30 COUNTS 36 37 0 0 0
M  V30 BEGIN ATOM
M  V30 1 C 3.87643 -0.980137 0.3545 0
M  V30 2 C 2.7356 -1.60911 1.1579 0
M  V30 3 C 1.46873 -1.66716 0.328712 0
M  V30 4 N 1.03883 -0.350291 -0.0864698 0
M  V30 5 C 1.44705 0.275249 -1.29123 0
M  V30 6 O 1.82387 -0.262808 -2.38496 0
M  V30 7 C 1.37175 1.74895 -1.09518 0
M  V30 8 C 0.258121 1.85736 -0.0868864 0
M  V30 9 C 0.161163 0.529608 0.604697 0
M  V30 10 C -1.24646 0.131279 0.596295 0
M  V30 11 C -1.95687 0.19988 1.77027 0
M  V30 12 C -3.30528 -0.164886 1.83476 0
M  V30 13 C -3.92018 -0.600781 0.686004 0
M  V30 14 C -3.23066 -0.678817 -0.503548 0
M  V30 15 C -1.90653 -0.310208 -0.521501 0
M  V30 16 N -3.92171 -1.14062 -1.67296 0
M  V30 17 N 0.42179 2.90097 0.8659 0
M  V30 18 H 4.80774 -1.09581 0.931507 0
M  V30 19 H 3.67347 0.110072 0.283206 0
M  V30 20 H 3.96719 -1.4579 -0.632461 0
M  V30 21 H 3.06819 -2.60603 1.46822 0
M  V30 22 H 2.60648 -0.994384 2.06695 0
M  V30 23 H 1.71643 -2.29925 -0.57114 0
M  V30 24 H 0.709674 -2.20657 0.910321 0
M  V30 25 H 1.14781 2.25181 -2.0528 0
M  V30 26 H 2.33298 2.15588 -0.726982 0
M  V30 27 H -0.667581 2.08464 -0.676146 0
M  V30 28 H 0.55282 0.657743 1.6364 0
M  V30 29 H -1.49889 0.537898 2.68541 0
M  V30 30 H -3.85147 -0.102659 2.78007 0
M  V30 31 H -4.96481 -0.885105 0.729109 0
M  V30 32 H -1.3939 -0.383197 -1.47132 0
M  V30 33 H -4.78653 -0.617912 -1.95301 0
M  V30 34 H -3.55879 -1.9646 -2.20545 0
M  V30 35 H -0.349222 3.61816 0.838082 0
M  V30 36 H 1.37278 3.31874 0.898753 0
M  V30 END ATOM
M  V30 BEGIN BOND
M  V30 1 1 1 2
M  V30 2 1 2 3
M  V30 3 1 3 4
M  V30 4 1 4 5
M  V30 5 2 5 6
M  V30 6 1 5 7
M  V30 7 1 7 8
M  V30 8 1 8 9
M  V30 9 1 9 10
M  V30 10 2 10 11
M  V30 11 1 11 12
M  V30 12 2 12 13
M  V30 13 1 13 14
M  V30 14 2 14 15
M  V30 15 1 14 16
M  V30 16 1 8 17
M  V30 17 1 9 4
M  V30 18 1 15 10
M  V30 19 1 1 18
M  V30 20 1 1 19
M  V30 21 1 1 20
M  V30 22 1 2 21
M  V30 23 1 2 22
M  V30 24 1 3 23
M  V30 25 1 3 24
M  V30 26 1 7 25
M  V30 27 1 7 26
M  V30 28 1 8 27
M  V30 29 1 9 28
M  V30 30 1 11 29
M  V30 31 1 12 30
M  V30 32 1 13 31
M  V30 33 1 15 32
M  V30 34 1 16 33
M  V30 35 1 16 34
M  V30 36 1 17 35
M  V30 37 1 17 36
M  V30 END BOND
M  V30 END CTAB
M  END
