
     RDKit          3D

  0  0  0  0  0  0  0  0  0  0999 V3000
M  V30 BEGIN CTAB
M  V30 COUNTS 40 42 0 0 0
M  V30 BEGIN ATOM
M  V30 1 N 1.06483 -0.0855505 2.9499 0
M  V30 2 C 1.24027 0.801818 1.81907 0
M  V30 3 C 0.0519175 1.09532 1.03938 0
M  V30 4 O -0.319342 2.2878 0.595928 0
M  V30 5 N -1.39015 2.25009 -0.0556584 0
M  V30 6 C -1.83856 0.964557 -0.0932483 0
M  V30 7 N -0.921654 0.270578 0.597163 0
M  V30 8 C -3.06798 0.518047 -0.760891 0
M  V30 9 N -3.50006 1.57346 -1.67023 0
M  V30 10 C -2.91837 -0.73225 -1.56857 0
M  V30 11 C -4.19152 -1.54013 -1.37389 0
M  V30 12 C -4.53205 -1.19741 0.0420701 0
M  V30 13 C -4.19666 0.234477 0.219454 0
M  V30 14 C 2.42303 0.363953 1.02958 0
M  V30 15 C 2.32531 -0.321883 -0.1609 0
M  V30 16 C 3.46971 -0.693168 -0.874882 0
M  V30 17 C 4.72436 -0.387169 -0.418619 0
M  V30 18 C 4.8335 0.305186 0.782583 0
M  V30 19 C 3.70609 0.664297 1.47851 0
M  V30 20 C 5.95835 -0.777707 -1.16629 0
M  V30 21 H 0.0520246 -0.0593604 3.27323 0
M  V30 22 H 1.18506 -1.11393 2.67004 0
M  V30 23 H 1.61581 1.77207 2.29206 0
M  V30 24 H -2.77311 1.83065 -2.34215 0
M  V30 25 H -3.83003 2.3506 -1.05599 0
M  V30 26 H -2.08386 -1.37752 -1.22746 0
M  V30 27 H -2.84087 -0.50125 -2.65985 0
M  V30 28 H -4.9933 -1.18861 -2.04897 0
M  V30 29 H -4.05217 -2.60612 -1.49867 0
M  V30 30 H -3.91976 -1.83748 0.71146 0
M  V30 31 H -5.60567 -1.39878 0.28864 0
M  V30 32 H -5.07072 0.860397 0.0344675 0
M  V30 33 H -3.85403 0.383732 1.28642 0
M  V30 34 H 1.35986 -0.567401 -0.552058 0
M  V30 35 H 3.37298 -1.24972 -1.81071 0
M  V30 36 H 5.84019 0.541615 1.11776 0
M  V30 37 H 3.78419 1.18594 2.38961 0
M  V30 38 H 6.3736 0.114182 -1.69993 0
M  V30 39 H 6.73534 -1.09728 -0.427179 0
M  V30 40 H 5.78345 -1.63606 -1.81661 0
M  V30 END ATOM
M  V30 BEGIN BOND
M  V30 1 1 1 2
M  V30 2 1 2 3
M  V30 3 1 3 4
M  V30 4 1 4 5
M  V30 5 2 5 6
M  V30 6 1 6 7
M  V30 7 1 6 8
M  V30 8 1 8 9
M  V30 9 1 8 10
M  V30 10 1 10 11
M  V30 11 1 11 12
M  V30 12 1 12 13
M  V30 13 1 2 14
M  V30 14 2 14 15
M  V30 15 1 15 16
M  V30 16 2 16 17
M  V30 17 1 17 18
M  V30 18 2 18 19
M  V30 19 1 17 20
M  V30 20 2 7 3
M  V30 21 1 13 8
M  V30 22 1 19 14
M  V30 23 1 1 21
M  V30 24 1 1 22
M  V30 25 1 2 23
M  V30 26 1 9 24
M  V30 27 1 9 25
M  V30 28 1 10 26
M  V30 29 1 10 27
M  V30 30 1 11 28
M  V30 31 1 11 29
M  V30 32 1 12 30
M  V30 33 1 12 31
M  V30 34 1 13 32
M  V30 35 1 13 33
M  V30 36 1 15 34
M  V30 37 1 16 35
M  V30 38 1 18 36
M  V30 39 1 19 37
M  V30 40 1 20 38
M  V30 41 1 20 39
M  V30 42 1 20 40
M  V30 END BOND
M  V30 END CTAB
M  END
