
     RDKit          3D

  0  0  0  0  0  0  0  0  0  0999 V3000
M  V30 BEGIN CTAB
M  V30 COUNTS 22 22 0 0 0
M  V30 BEGIN ATOM
M  V30 1 N 3.52328 0.218935 1.17387 0
M  V30 2 C 2.62623 0.484371 0.0820669 0
M  V30 3 C 2.07117 -0.775707 -0.561634 0
M  V30 4 S 0.976577 -0.187315 -1.91291 0
M  V30 5 C -0.421909 0.621837 -1.11062 0
M  V30 6 N -0.548781 1.90208 -0.725949 0
M  V30 7 N -1.74857 2.05016 -0.190272 0
M  V30 8 C -2.40042 0.8753 -0.2256 0
M  V30 9 N -1.56248 -0.0099461 -0.802111 0
M  V30 10 C -1.90348 -1.39666 -1.02655 0
M  V30 11 N -3.73205 0.595765 0.249783 0
M  V30 12 H 4.09053 -0.631856 1.02578 0
M  V30 13 H 4.11013 1.05804 1.40401 0
M  V30 14 H 1.79244 1.16515 0.355695 0
M  V30 15 H 3.22792 1.01655 -0.695698 0
M  V30 16 H 1.49531 -1.33481 0.209036 0
M  V30 17 H 2.90799 -1.3491 -0.965123 0
M  V30 18 H -1.12795 -2.09932 -0.671674 0
M  V30 19 H -2.1023 -1.55859 -2.10527 0
M  V30 20 H -2.82972 -1.68189 -0.49198 0
M  V30 21 H -3.93297 -0.13053 0.953432 0
M  V30 22 H -4.51094 1.16754 -0.152342 0
M  V30 END ATOM
M  V30 BEGIN BOND
M  V30 1 1 1 2
M  V30 2 1 2 3
M  V30 3 1 3 4
M  V30 4 1 4 5
M  V30 5 2 5 6
M  V30 6 1 6 7
M  V30 7 2 7 8
M  V30 8 1 8 9
M  V30 9 1 9 10
M  V30 10 1 8 11
M  V30 11 1 9 5
M  V30 12 1 1 12
M  V30 13 1 1 13
M  V30 14 1 2 14
M  V30 15 1 2 15
M  V30 16 1 3 16
M  V30 17 1 3 17
M  V30 18 1 10 18
M  V30 19 1 10 19
M  V30 20 1 10 20
M  V30 21 1 11 21
M  V30 22 1 11 22
M  V30 END BOND
M  V30 END CTAB
M  END
