
     RDKit          3D

  0  0  0  0  0  0  0  0  0  0999 V3000
M  V30 BEGIN CTAB
M  V30 COUNTS 58 63 0 0 0
M  V30 BEGIN ATOM
M  V30 1 N -0.873861 -1.03555 -2.94536 0
M  V30 2 C -0.513132 -0.993816 -1.81539 0
M  V30 3 C -0.130743 -0.934663 -0.427118 0
M  V30 4 C -1.07217 -1.12274 0.559229 0
M  V30 5 N -0.693891 -1.02137 1.87434 0
M  V30 6 C 0.557333 -0.747648 2.22844 0
M  V30 7 C 1.531 -0.553734 1.28699 0
M  V30 8 C 1.16974 -0.651561 -0.0749293 0
M  V30 9 C 2.18109 -0.455945 -1.02261 0
M  V30 10 C 2.17188 -0.477207 -2.48008 0
M  V30 11 C 3.58232 -0.213643 -2.86938 0
M  V30 12 O 4.0544 -0.158274 -4.03689 0
M  V30 13 N 4.31855 -0.032737 -1.69203 0
M  V30 14 C 3.45699 -0.181895 -0.548494 0
M  V30 15 N 3.73284 -0.102405 0.760244 0
M  V30 16 C 2.81493 -0.27847 1.70888 0
M  V30 17 N 3.15924 -0.187121 3.08211 0
M  V30 18 C 5.7245 0.257966 -1.56628 0
M  V30 19 N 6.75887 -0.414208 -2.09139 0
M  V30 20 O 7.84719 0.165066 -1.74765 0
M  V30 21 C 7.61499 1.22387 -0.997113 0
M  V30 22 C 6.24661 1.31244 -0.860295 0
M  V30 23 C 8.66116 2.12086 -0.429795 0
M  V30 24 N 0.899979 -0.651458 3.61175 0
M  V30 25 N -2.44367 -1.4683 0.313637 0
M  V30 26 C -3.38672 -0.710756 1.17866 0
M  V30 27 C -4.81271 -1.07106 0.783656 0
M  V30 28 N -4.83353 -0.875751 -0.646346 0
M  V30 29 C -4.10627 -1.96402 -1.38011 0
M  V30 30 C -2.9569 -2.44992 -0.549951 0
M  V30 31 C -5.38714 0.176005 -1.3306 0
M  V30 32 O -5.3048 0.0637119 -2.63078 0
M  V30 33 C -6.03948 1.37759 -0.860177 0
M  V30 34 C -6.25624 1.87935 0.393211 0
M  V30 35 C -6.94697 3.08291 0.245456 0
M  V30 36 C -7.11872 3.25835 -1.10646 0
M  V30 37 O -6.58646 2.26302 -1.70707 0
M  V30 38 H 1.6157 0.36995 -2.93748 0
M  V30 39 H 1.9616 -1.47321 -2.92046 0
M  V30 40 H 3.12018 0.718083 3.5909 0
M  V30 41 H 3.46479 -1.02506 3.61527 0
M  V30 42 H 5.74803 2.09093 -0.290443 0
M  V30 43 H 9.6476 1.59051 -0.472744 0
M  V30 44 H 8.778 3.05922 -0.974416 0
M  V30 45 H 8.48851 2.33155 0.649756 0
M  V30 46 H 1.19374 -1.52965 4.08738 0
M  V30 47 H 0.856407 0.260121 4.14752 0
M  V30 48 H -3.2302 -1.06904 2.19468 0
M  V30 49 H -3.15482 0.344033 0.992884 0
M  V30 50 H -4.89145 -2.19157 0.96362 0
M  V30 51 H -5.55318 -0.602775 1.37917 0
M  V30 52 H -4.8561 -2.77456 -1.56976 0
M  V30 53 H -3.76525 -1.60347 -2.36088 0
M  V30 54 H -2.21349 -2.97599 -1.17836 0
M  V30 55 H -3.35806 -3.29229 0.134293 0
M  V30 56 H -5.97 1.49249 1.33504 0
M  V30 57 H -7.27029 3.72854 1.04449 0
M  V30 58 H -7.63191 4.12527 -1.50555 0
M  V30 END ATOM
M  V30 BEGIN BOND
M  V30 1 3 1 2
M  V30 2 1 2 3
M  V30 3 2 3 4
M  V30 4 1 4 5
M  V30 5 2 5 6
M  V30 6 1 6 7
M  V30 7 2 7 8
M  V30 8 1 8 9
M  V30 9 1 9 10
M  V30 10 1 10 11
M  V30 11 2 11 12
M  V30 12 1 11 13
M  V30 13 1 13 14
M  V30 14 1 14 15
M  V30 15 2 15 16
M  V30 16 1 16 17
M  V30 17 1 13 18
M  V30 18 2 18 19
M  V30 19 1 19 20
M  V30 20 1 20 21
M  V30 21 2 21 22
M  V30 22 1 21 23
M  V30 23 1 6 24
M  V30 24 1 4 25
M  V30 25 1 25 26
M  V30 26 1 26 27
M  V30 27 1 27 28
M  V30 28 1 28 29
M  V30 29 1 29 30
M  V30 30 1 28 31
M  V30 31 2 31 32
M  V30 32 1 31 33
M  V30 33 2 33 34
M  V30 34 1 34 35
M  V30 35 2 35 36
M  V30 36 1 36 37
M  V30 37 1 8 3
M  V30 38 2 14 9
M  V30 39 1 22 18
M  V30 40 1 30 25
M  V30 41 1 37 33
M  V30 42 1 16 7
M  V30 43 1 10 38
M  V30 44 1 10 39
M  V30 45 1 17 40
M  V30 46 1 17 41
M  V30 47 1 22 42
M  V30 48 1 23 43
M  V30 49 1 23 44
M  V30 50 1 23 45
M  V30 51 1 24 46
M  V30 52 1 24 47
M  V30 53 1 26 48
M  V30 54 1 26 49
M  V30 55 1 27 50
M  V30 56 1 27 51
M  V30 57 1 29 52
M  V30 58 1 29 53
M  V30 59 1 30 54
M  V30 60 1 30 55
M  V30 61 1 34 56
M  V30 62 1 35 57
M  V30 63 1 36 58
M  V30 END BOND
M  V30 END CTAB
M  END
