
     RDKit          3D

  0  0  0  0  0  0  0  0  0  0999 V3000
M  V30 BEGIN CTAB
M  V30 COUNTS 29 29 0 0 0
M  V30 BEGIN ATOM
M  V30 1 C 4.44988 0.326752 0.73346 0
M  V30 2 O 3.31899 0.855103 0.0395557 0
M  V30 3 C 2.10972 0.195859 0.0562615 0
M  V30 4 O 2.02934 -0.878147 0.695809 0
M  V30 5 C 0.938442 0.787969 -0.686711 0
M  V30 6 C -0.215031 -0.110826 -0.488541 0
M  V30 7 C -0.338026 -1.30699 -1.18942 0
M  V30 8 N 0.630032 -1.71195 -2.14191 0
M  V30 9 C -1.43738 -2.13232 -0.95637 0
M  V30 10 C -2.41154 -1.78216 -0.0385242 0
M  V30 11 C -2.28012 -0.587488 0.655102 0
M  V30 12 C -1.18753 0.222516 0.416904 0
M  V30 13 O -1.10322 1.39946 1.13012 0
M  V30 14 C -1.71953 2.55482 0.60576 0
M  V30 15 N -3.23834 -0.184795 1.60532 0
M  V30 16 H 5.36193 0.822809 0.378783 0
M  V30 17 H 4.31501 0.550657 1.83384 0
M  V30 18 H 4.47639 -0.748716 0.56482 0
M  V30 19 H 0.778587 1.81509 -0.373945 0
M  V30 20 H 1.26951 0.733655 -1.76673 0
M  V30 21 H 1.32309 -2.43209 -1.8519 0
M  V30 22 H 0.694173 -1.33727 -3.11502 0
M  V30 23 H -1.52117 -3.04946 -1.49673 0
M  V30 24 H -3.26207 -2.44593 0.129642 0
M  V30 25 H -2.81503 2.31495 0.42565 0
M  V30 26 H -1.63471 3.4144 1.31226 0
M  V30 27 H -1.35237 2.79889 -0.407387 0
M  V30 28 H -3.17951 -0.552437 2.57211 0
M  V30 29 H -3.99954 0.467646 1.3578 0
M  V30 END ATOM
M  V30 BEGIN BOND
M  V30 1 1 1 2
M  V30 2 1 2 3
M  V30 3 2 3 4
M  V30 4 1 3 5
M  V30 5 1 5 6
M  V30 6 2 6 7
M  V30 7 1 7 8
M  V30 8 1 7 9
M  V30 9 2 9 10
M  V30 10 1 10 11
M  V30 11 2 11 12
M  V30 12 1 12 13
M  V30 13 1 13 14
M  V30 14 1 11 15
M  V30 15 1 12 6
M  V30 16 1 1 16
M  V30 17 1 1 17
M  V30 18 1 1 18
M  V30 19 1 5 19
M  V30 20 1 5 20
M  V30 21 1 8 21
M  V30 22 1 8 22
M  V30 23 1 9 23
M  V30 24 1 10 24
M  V30 25 1 14 25
M  V30 26 1 14 26
M  V30 27 1 14 27
M  V30 28 1 15 28
M  V30 29 1 15 29
M  V30 END BOND
M  V30 END CTAB
M  END
