
     RDKit          3D

  0  0  0  0  0  0  0  0  0  0999 V3000
M  V30 BEGIN CTAB
M  V30 COUNTS 48 50 0 0 0
M  V30 BEGIN ATOM
M  V30 1 N -0.973811 -2.39192 -2.41574 0
M  V30 2 C -1.35704 -1.2836 -1.57427 0 CFG=2
M  V30 3 C -0.340829 -0.939846 -0.579517 0 CFG=1
M  V30 4 C 0.731291 0.0826253 -0.887821 0
M  V30 5 O 1.38922 0.0198962 0.408899 0
M  V30 6 P 2.91732 -0.619265 0.294292 0
M  V30 7 O 3.22831 -0.946944 -1.32147 0
M  V30 8 O 2.88457 -2.00428 1.0623 0
M  V30 9 O 4.06533 0.255492 1.09884 0
M  V30 10 P 4.57796 1.50542 0.0509642 0
M  V30 11 O 4.85441 0.740462 -1.44617 0
M  V30 12 O 3.48593 2.50943 0.00828191 0
M  V30 13 O 6.01612 2.08164 0.713383 0
M  V30 14 P 7.30421 1.14787 0.0725157 0
M  V30 15 O 8.69815 1.77624 0.787436 0
M  V30 16 O 7.14665 -0.480501 0.471419 0
M  V30 17 O 7.33249 1.33444 -1.44953 0
M  V30 18 O -0.917908 -0.603127 0.581458 0
M  V30 19 C -2.19706 -1.18499 0.626378 0 CFG=2
M  V30 20 C -2.43009 -1.83535 -0.632269 0 CFG=2
M  V30 21 O -2.05279 -3.20329 -0.483664 0
M  V30 22 N -3.0485 -0.113963 1.10533 0
M  V30 23 C -2.86307 0.492034 2.29303 0
M  V30 24 N -3.80738 1.39336 2.52122 0
M  V30 25 C -4.66921 1.41136 1.45566 0
M  V30 26 C -4.15508 0.45284 0.579289 0
M  V30 27 N -4.72817 0.207942 -0.575651 0
M  V30 28 C -5.86205 0.938732 -0.865337 0
M  V30 29 N -6.36715 1.85894 -0.0323667 0
M  V30 30 C -5.79931 2.13169 1.14511 0
M  V30 31 N -6.37239 3.06498 2.07214 0
M  V30 32 H -0.953767 -2.27766 -3.38628 0
M  V30 33 H -0.691224 -3.18651 -1.90821 0
M  V30 34 H -1.68566 -0.483414 -2.22426 0
M  V30 35 H 0.307418 -1.90299 -0.451109 0
M  V30 36 H 0.315092 1.12054 -0.915168 0
M  V30 37 H 1.40938 -0.149859 -1.70217 0
M  V30 38 H 2.97431 -1.89128 -1.53296 0
M  V30 39 H 5.39424 -0.0779236 -1.20056 0
M  V30 40 H 9.52351 1.45062 0.39642 0
M  V30 41 H 6.62303 -0.568567 1.28396 0
M  V30 42 H -2.12717 -1.99343 1.45117 0
M  V30 43 H -3.3957 -1.86954 -1.09559 0
M  V30 44 H -2.80369 -3.79892 -0.769322 0
M  V30 45 H -2.06558 0.318918 3.02961 0
M  V30 46 H -6.31841 0.70738 -1.83561 0
M  V30 47 H -6.56881 4.06579 1.83913 0
M  V30 48 H -6.62709 2.73855 3.06164 0
M  V30 END ATOM
M  V30 BEGIN BOND
M  V30 1 1 1 2
M  V30 2 1 2 3
M  V30 3 1 3 4
M  V30 4 1 4 5
M  V30 5 1 5 6
M  V30 6 1 6 7
M  V30 7 2 6 8
M  V30 8 1 6 9
M  V30 9 1 9 10
M  V30 10 1 10 11
M  V30 11 2 10 12
M  V30 12 1 10 13
M  V30 13 1 13 14
M  V30 14 1 14 15
M  V30 15 1 14 16
M  V30 16 2 14 17
M  V30 17 1 3 18
M  V30 18 1 18 19
M  V30 19 1 19 20
M  V30 20 1 20 21
M  V30 21 1 19 22
M  V30 22 1 22 23
M  V30 23 2 23 24
M  V30 24 1 24 25
M  V30 25 2 25 26
M  V30 26 1 26 27
M  V30 27 2 27 28
M  V30 28 1 28 29
M  V30 29 2 29 30
M  V30 30 1 30 31
M  V30 31 1 20 2
M  V30 32 1 26 22
M  V30 33 1 30 25
M  V30 34 1 1 32
M  V30 35 1 1 33
M  V30 36 1 2 34 CFG=3
M  V30 37 1 3 35 CFG=1
M  V30 38 1 4 36
M  V30 39 1 4 37
M  V30 40 1 7 38
M  V30 41 1 11 39
M  V30 42 1 15 40
M  V30 43 1 16 41
M  V30 44 1 19 42 CFG=1
M  V30 45 1 20 43 CFG=3
M  V30 46 1 21 44
M  V30 47 1 23 45
M  V30 48 1 28 46
M  V30 49 1 31 47
M  V30 50 1 31 48
M  V30 END BOND
M  V30 END CTAB
M  END
