
     RDKit          3D

  0  0  0  0  0  0  0  0  0  0999 V3000
M  V30 BEGIN CTAB
M  V30 COUNTS 80 85 0 0 0
M  V30 BEGIN ATOM
M  V30 1 N -8.38375 2.6596 -0.543239 0
M  V30 2 C -9.06034 1.41297 -0.626881 0
M  V30 3 C -10.46 1.34951 -0.711243 0
M  V30 4 C -11.1348 0.152431 -0.793323 0
M  V30 5 C -12.5269 0.119152 -0.876081 0
M  V30 6 C -13.2113 -1.07507 -0.958614 0
M  V30 7 C -12.4538 -2.23634 -0.95547 0
M  V30 8 C -11.0782 -2.21031 -0.873968 0
M  V30 9 C -10.4019 -1.01339 -0.791855 0
M  V30 10 C -9.00322 -0.965616 -0.708192 0
M  V30 11 C -8.34517 0.239018 -0.626733 0
M  V30 12 N -6.93841 0.286733 -0.542521 0
M  V30 13 N -6.26287 0.851267 0.343658 0
M  V30 14 C -4.84852 0.875045 0.390841 0
M  V30 15 C -4.1792 1.72791 -0.447016 0
M  V30 16 C -2.8048 1.75035 -0.402371 0
M  V30 17 C -2.09138 0.936783 0.463352 0
M  V30 18 C -2.75438 0.0814919 1.3041 0
M  V30 19 C -4.13019 0.0741204 1.24401 0
M  V30 20 S -1.83384 -0.932695 2.38537 0
M  V30 21 O -2.81337 -1.81398 3.11824 0
M  V30 22 O -1.10502 -0.129455 3.42243 0
M  V30 23 O -0.799535 -1.95145 1.54104 0
M  V30 24 C -0.659397 0.984293 0.482945 0
M  V30 25 C 0.554178 1.00248 0.500413 0
M  V30 26 C 1.996 0.997731 0.523962 0
M  V30 27 C 2.66485 1.15558 1.73263 0
M  V30 28 C 4.0582 1.1535 1.79136 0
M  V30 29 C 4.80466 0.99376 0.643951 0
M  V30 30 C 4.12581 0.83854 -0.546526 0
M  V30 31 C 2.74558 0.838542 -0.619893 0
M  V30 32 S 1.89582 0.639759 -2.14701 0
M  V30 33 O 1.04725 1.81971 -2.45092 0
M  V30 34 O 2.93026 0.427832 -3.2334 0
M  V30 35 O 0.914398 -0.714165 -2.10635 0
M  V30 36 N 6.23689 0.992999 0.727612 0
M  V30 37 N 6.91887 -0.0103097 0.331071 0
M  V30 38 C 8.36278 -0.028 0.408119 0
M  V30 39 C 9.12155 -0.564285 -0.603489 0
M  V30 40 C 10.4982 -0.610861 -0.587367 0
M  V30 41 C 11.2382 -1.1517 -1.60886 0
M  V30 42 C 12.6042 -1.1691 -1.53448 0
M  V30 43 C 13.2368 -0.630493 -0.407826 0
M  V30 44 C 12.5064 -0.0840628 0.625576 0
M  V30 45 C 11.131 -0.0722088 0.539355 0
M  V30 46 C 10.3918 0.470762 1.56582 0
M  V30 47 C 9.00224 0.498359 1.51073 0
M  V30 48 N 8.21987 1.04675 2.54464 0
M  V30 49 S 14.9819 -0.662963 -0.331381 0
M  V30 50 O 15.5597 -0.629592 -1.73353 0
M  V30 51 O 15.523 0.516624 0.426647 0
M  V30 52 O 15.5121 -2.09421 0.405013 0
M  V30 53 S -14.957 -1.1646 -1.06395 0
M  V30 54 O -15.3883 -2.41622 -1.79255 0
M  V30 55 O -15.5107 -0.000767825 -1.84235 0
M  V30 56 O -15.6088 -1.2526 0.479925 0
M  V30 57 H -8.10266 3.05976 0.395742 0
M  V30 58 H -8.1313 3.23596 -1.36419 0
M  V30 59 H -11.0408 2.25523 -0.713175 0
M  V30 60 H -13.0719 1.03349 -0.875476 0
M  V30 61 H -13.0145 -3.18161 -1.02183 0
M  V30 62 H -10.4983 -3.12795 -0.872478 0
M  V30 63 H -8.49413 -1.91843 -0.712282 0
M  V30 64 H -4.68952 2.38763 -1.14529 0
M  V30 65 H -2.29418 2.4402 -1.08165 0
M  V30 66 H -4.65341 -0.613557 1.92051 0
M  V30 67 H -0.953203 -1.90446 0.564563 0
M  V30 68 H 2.08128 1.28112 2.63481 0
M  V30 69 H 4.56508 1.2788 2.74932 0
M  V30 70 H 4.67344 0.711337 -1.46258 0
M  V30 71 H 1.32135 -1.47895 -1.64911 0
M  V30 72 H 8.59127 -0.977919 -1.47241 0
M  V30 73 H 10.7431 -1.5593 -2.46302 0
M  V30 74 H 13.1828 -1.60209 -2.35349 0
M  V30 75 H 13.0647 0.312592 1.4624 0
M  V30 76 H 10.8925 0.880123 2.42395 0
M  V30 77 H 7.98824 0.492873 3.39298 0
M  V30 78 H 7.85843 2.01426 2.48171 0
M  V30 79 H 14.84 -2.35752 1.09564 0
M  V30 80 H -14.8957 -1.60224 1.07993 0
M  V30 END ATOM
M  V30 BEGIN BOND
M  V30 1 1 1 2
M  V30 2 2 2 3
M  V30 3 1 3 4
M  V30 4 2 4 5
M  V30 5 1 5 6
M  V30 6 2 6 7
M  V30 7 1 7 8
M  V30 8 2 8 9
M  V30 9 1 9 10
M  V30 10 2 10 11
M  V30 11 1 11 12
M  V30 12 2 12 13
M  V30 13 1 13 14
M  V30 14 2 14 15
M  V30 15 1 15 16
M  V30 16 2 16 17
M  V30 17 1 17 18
M  V30 18 2 18 19
M  V30 19 1 18 20
M  V30 20 2 20 21
M  V30 21 2 20 22
M  V30 22 1 20 23
M  V30 23 1 17 24
M  V30 24 3 24 25
M  V30 25 1 25 26
M  V30 26 2 26 27
M  V30 27 1 27 28
M  V30 28 2 28 29
M  V30 29 1 29 30
M  V30 30 2 30 31
M  V30 31 1 31 32
M  V30 32 2 32 33
M  V30 33 2 32 34
M  V30 34 1 32 35
M  V30 35 1 29 36
M  V30 36 2 36 37
M  V30 37 1 37 38
M  V30 38 2 38 39
M  V30 39 1 39 40
M  V30 40 2 40 41
M  V30 41 1 41 42
M  V30 42 2 42 43
M  V30 43 1 43 44
M  V30 44 2 44 45
M  V30 45 1 45 46
M  V30 46 2 46 47
M  V30 47 1 47 48
M  V30 48 1 43 49
M  V30 49 2 49 50
M  V30 50 2 49 51
M  V30 51 1 49 52
M  V30 52 1 6 53
M  V30 53 2 53 54
M  V30 54 2 53 55
M  V30 55 1 53 56
M  V30 56 1 11 2
M  V30 57 1 19 14
M  V30 58 1 31 26
M  V30 59 1 47 38
M  V30 60 1 9 4
M  V30 61 1 45 40
M  V30 62 1 1 57
M  V30 63 1 1 58
M  V30 64 1 3 59
M  V30 65 1 5 60
M  V30 66 1 7 61
M  V30 67 1 8 62
M  V30 68 1 10 63
M  V30 69 1 15 64
M  V30 70 1 16 65
M  V30 71 1 19 66
M  V30 72 1 23 67
M  V30 73 1 27 68
M  V30 74 1 28 69
M  V30 75 1 30 70
M  V30 76 1 35 71
M  V30 77 1 39 72
M  V30 78 1 41 73
M  V30 79 1 42 74
M  V30 80 1 44 75
M  V30 81 1 46 76
M  V30 82 1 48 77
M  V30 83 1 48 78
M  V30 84 1 52 79
M  V30 85 1 56 80
M  V30 END BOND
M  V30 END CTAB
M  END
