
     RDKit          3D

  0  0  0  0  0  0  0  0  0  0999 V3000
M  V30 BEGIN CTAB
M  V30 COUNTS 82 85 0 0 0
M  V30 BEGIN ATOM
M  V30 1 N 0.661454 5.43215 2.33957 0
M  V30 2 C 0.264835 5.21344 0.998603 0
M  V30 3 N 0.348516 6.21984 0.178733 0
M  V30 4 N -0.205074 3.94259 0.594813 0
M  V30 5 C 0.15871 2.77294 1.35933 0
M  V30 6 C 1.60197 2.4108 1.29045 0
M  V30 7 C 2.18937 2.15041 -0.0125457 0
M  V30 8 C 1.78257 1.07371 -0.917219 0 CFG=2
M  V30 9 N 0.409992 1.19588 -1.35526 0
M  V30 10 C 0.074123 1.76057 -2.60997 0
M  V30 11 O 0.986026 2.16936 -3.34183 0
M  V30 12 C -1.3224 1.86367 -3.04627 0 CFG=2
M  V30 13 C -1.72695 3.31536 -3.17253 0
M  V30 14 C -3.03298 3.4137 -2.49067 0
M  V30 15 N -3.25939 2.20344 -1.78615 0
M  V30 16 C -4.57602 1.67587 -2.12043 0
M  V30 17 C -4.91381 0.396125 -1.43497 0
M  V30 18 C -3.66919 -0.154018 -0.722085 0 CFG=1
M  V30 19 N -3.41047 0.723735 0.382243 0
M  V30 20 C -3.87727 -1.57795 -0.296811 0
M  V30 21 C -5.01122 -1.75656 0.62091 0
M  V30 22 C -4.90892 -1.66067 1.98001 0
M  V30 23 C -6.01626 -1.84529 2.76307 0
M  V30 24 C -7.24943 -2.12994 2.20133 0
M  V30 25 C -7.3792 -2.23177 0.832989 0
M  V30 26 C -6.2447 -2.04009 0.078616 0
M  V30 27 C -2.5917 -0.054778 -1.7391 0
M  V30 28 O -1.99436 -1.0525 -2.12847 0
M  V30 29 N -2.31 1.27187 -2.22127 0
M  V30 30 C 2.07601 -0.297676 -0.430527 0
M  V30 31 O 1.14662 -1.16273 -0.306798 0
M  V30 32 C 3.41416 -0.711081 -0.082146 0
M  V30 33 O 4.42266 0.0553526 -0.209797 0
M  V30 34 N 3.61189 -2.04568 0.428438 0
M  V30 35 C 4.91464 -2.52723 0.782753 0
M  V30 36 C 4.83204 -3.93367 1.31482 0
M  V30 37 C 6.20379 -4.44232 1.65543 0
M  V30 38 C 6.71442 -4.24272 2.89982 0
M  V30 39 C 7.99679 -4.70279 3.21391 0
M  V30 40 C 8.76748 -5.36226 2.28475 0
M  V30 41 Cl 10.3923 -5.94872 2.66366 0
M  V30 42 C 8.22171 -5.54949 1.03212 0
M  V30 43 C 6.96718 -5.10402 0.710576 0
M  V30 44 H 1.62551 5.7004 2.53351 0
M  V30 45 H 0.00647123 5.32965 3.13394 0
M  V30 46 H 0.0694256 6.12044 -0.826922 0
M  V30 47 H -0.807963 3.88736 -0.250481 0
M  V30 48 H -0.491602 1.92917 1.13292 0
M  V30 49 H -0.111645 3.01116 2.4561 0
M  V30 50 H 2.16034 3.28685 1.77652 0
M  V30 51 H 1.73077 1.56256 2.02943 0
M  V30 52 H 3.33214 2.14818 0.150056 0
M  V30 53 H 2.11801 3.16525 -0.591477 0
M  V30 54 H 2.40004 1.23445 -1.86722 0
M  V30 55 H -0.328082 0.829518 -0.731942 0
M  V30 56 H -1.37156 1.4396 -4.10513 0
M  V30 57 H -0.975473 3.98663 -2.68229 0
M  V30 58 H -1.73854 3.58035 -4.24965 0
M  V30 59 H -3.85887 3.58311 -3.23611 0
M  V30 60 H -3.02627 4.29795 -1.80818 0
M  V30 61 H -4.55729 1.51162 -3.23719 0
M  V30 62 H -5.31109 2.48364 -1.94556 0
M  V30 63 H -5.74595 0.555974 -0.753361 0
M  V30 64 H -5.24097 -0.371337 -2.19241 0
M  V30 65 H -4.21961 1.32756 0.632491 0
M  V30 66 H -2.91313 0.2852 1.16634 0
M  V30 67 H -2.95022 -1.8562 0.28577 0
M  V30 68 H -3.893 -2.25425 -1.1477 0
M  V30 69 H -3.9688 -1.44284 2.44316 0
M  V30 70 H -5.9625 -1.7723 3.86618 0
M  V30 71 H -8.1289 -2.27541 2.83935 0
M  V30 72 H -8.34963 -2.45647 0.379454 0
M  V30 73 H -6.38573 -2.13111 -1.01049 0
M  V30 74 H 2.79298 -2.67465 0.543471 0
M  V30 75 H 5.58639 -2.59389 -0.124353 0
M  V30 76 H 5.44631 -1.89423 1.50123 0
M  V30 77 H 4.2489 -3.98703 2.26261 0
M  V30 78 H 4.38462 -4.64969 0.614543 0
M  V30 79 H 6.18948 -3.73744 3.69779 0
M  V30 80 H 8.43398 -4.56082 4.19436 0
M  V30 81 H 8.79493 -6.06061 0.277634 0
M  V30 82 H 6.55663 -5.26519 -0.286575 0
M  V30 END ATOM
M  V30 BEGIN BOND
M  V30 1 1 1 2
M  V30 2 2 2 3 CFG=2
M  V30 3 1 2 4
M  V30 4 1 4 5
M  V30 5 1 5 6
M  V30 6 1 6 7
M  V30 7 1 7 8
M  V30 8 1 8 9
M  V30 9 1 9 10
M  V30 10 2 10 11
M  V30 11 1 10 12
M  V30 12 1 12 13
M  V30 13 1 13 14
M  V30 14 1 14 15
M  V30 15 1 15 16
M  V30 16 1 16 17
M  V30 17 1 17 18
M  V30 18 1 18 19 CFG=1
M  V30 19 1 18 20
M  V30 20 1 20 21
M  V30 21 2 21 22
M  V30 22 1 22 23
M  V30 23 2 23 24
M  V30 24 1 24 25
M  V30 25 2 25 26
M  V30 26 1 18 27
M  V30 27 2 27 28
M  V30 28 1 27 29
M  V30 29 1 8 30
M  V30 30 2 30 31
M  V30 31 1 30 32
M  V30 32 2 32 33
M  V30 33 1 32 34
M  V30 34 1 34 35
M  V30 35 1 35 36
M  V30 36 1 36 37
M  V30 37 2 37 38
M  V30 38 1 38 39
M  V30 39 2 39 40
M  V30 40 1 40 41
M  V30 41 1 40 42
M  V30 42 2 42 43
M  V30 43 1 29 12
M  V30 44 1 43 37
M  V30 45 1 29 15
M  V30 46 1 26 21
M  V30 47 1 1 44
M  V30 48 1 1 45
M  V30 49 1 3 46
M  V30 50 1 4 47
M  V30 51 1 5 48
M  V30 52 1 5 49
M  V30 53 1 6 50
M  V30 54 1 6 51
M  V30 55 1 7 52
M  V30 56 1 7 53
M  V30 57 1 8 54 CFG=3
M  V30 58 1 9 55
M  V30 59 1 12 56 CFG=3
M  V30 60 1 13 57
M  V30 61 1 13 58
M  V30 62 1 14 59
M  V30 63 1 14 60
M  V30 64 1 16 61
M  V30 65 1 16 62
M  V30 66 1 17 63
M  V30 67 1 17 64
M  V30 68 1 19 65
M  V30 69 1 19 66
M  V30 70 1 20 67
M  V30 71 1 20 68
M  V30 72 1 22 69
M  V30 73 1 23 70
M  V30 74 1 24 71
M  V30 75 1 25 72
M  V30 76 1 26 73
M  V30 77 1 34 74
M  V30 78 1 35 75
M  V30 79 1 35 76
M  V30 80 1 36 77
M  V30 81 1 36 78
M  V30 82 1 38 79
M  V30 83 1 39 80
M  V30 84 1 42 81
M  V30 85 1 43 82
M  V30 END BOND
M  V30 END CTAB
M  END
