
     RDKit          3D

  0  0  0  0  0  0  0  0  0  0999 V3000
M  V30 BEGIN CTAB
M  V30 COUNTS 49 50 0 0 0
M  V30 BEGIN ATOM
M  V30 1 N -8.2728 0.0754536 -1.00005 0
M  V30 2 C -7.09715 -0.504297 -1.61143 0
M  V30 3 C -5.90032 -0.264986 -0.777639 0
M  V30 4 C -5.55704 -1.18481 0.188864 0
M  V30 5 C -4.45951 -1.01836 0.991676 0
M  V30 6 C -3.63354 0.114506 0.854151 0
M  V30 7 O -2.56991 0.217866 1.67947 0
M  V30 8 C -1.59813 1.16766 1.7532 0
M  V30 9 C -0.683158 1.29975 0.573405 0
M  V30 10 C 0.0411264 -0.0104568 0.321095 0
M  V30 11 C 0.850474 -0.369977 1.52684 0
M  V30 12 C 1.59599 -1.66525 1.29685 0
M  V30 13 O 2.45937 -1.6251 0.241909 0
M  V30 14 C 3.57682 -0.922481 -0.0587828 0
M  V30 15 C 4.15632 -1.18792 -1.30269 0
M  V30 16 C 5.28931 -0.546499 -1.72558 0
M  V30 17 C 5.9069 0.394509 -0.932187 0
M  V30 18 C 7.12888 1.08117 -1.39808 0
M  V30 19 N 8.34183 0.38587 -1.02233 0
M  V30 20 C 5.32301 0.644539 0.291856 0
M  V30 21 C 4.18904 0.00622244 0.722223 0
M  V30 22 C -3.9935 1.01625 -0.111525 0
M  V30 23 C -5.11807 0.848981 -0.937298 0
M  V30 24 H -8.12837 0.345932 -0.00300358 0
M  V30 25 H -9.1387 -0.47602 -1.16099 0
M  V30 26 H -7.19406 -1.55733 -1.86658 0
M  V30 27 H -6.93345 0.0574027 -2.57036 0
M  V30 28 H -6.15619 -2.07496 0.338936 0
M  V30 29 H -4.20382 -1.74878 1.74494 0
M  V30 30 H -2.07721 2.2092 1.87252 0
M  V30 31 H -0.987567 1.10047 2.71078 0
M  V30 32 H -1.22207 1.62432 -0.309015 0
M  V30 33 H 0.106274 2.05948 0.866782 0
M  V30 34 H -0.703082 -0.787705 0.0670205 0
M  V30 35 H 0.673998 0.133735 -0.565307 0
M  V30 36 H 0.153154 -0.501396 2.40129 0
M  V30 37 H 1.55074 0.444793 1.73225 0
M  V30 38 H 0.796652 -2.43002 1.10741 0
M  V30 39 H 2.12686 -1.92097 2.26702 0
M  V30 40 H 3.70417 -1.92699 -1.97037 0
M  V30 41 H 5.74376 -0.753862 -2.6997 0
M  V30 42 H 7.12823 2.13596 -1.05975 0
M  V30 43 H 7.10636 1.10098 -2.50797 0
M  V30 44 H 8.33307 -0.555504 -1.42601 0
M  V30 45 H 8.53191 0.430332 -0.000209219 0
M  V30 46 H 5.80282 1.38407 0.922938 0
M  V30 47 H 3.82245 0.261441 1.69701 0
M  V30 48 H -3.42363 1.92744 -0.264109 0
M  V30 49 H -5.38822 1.56535 -1.69236 0
M  V30 END ATOM
M  V30 BEGIN BOND
M  V30 1 1 1 2
M  V30 2 1 2 3
M  V30 3 2 3 4
M  V30 4 1 4 5
M  V30 5 2 5 6
M  V30 6 1 6 7
M  V30 7 1 7 8
M  V30 8 1 8 9
M  V30 9 1 9 10
M  V30 10 1 10 11
M  V30 11 1 11 12
M  V30 12 1 12 13
M  V30 13 1 13 14
M  V30 14 2 14 15
M  V30 15 1 15 16
M  V30 16 2 16 17
M  V30 17 1 17 18
M  V30 18 1 18 19
M  V30 19 1 17 20
M  V30 20 2 20 21
M  V30 21 1 6 22
M  V30 22 2 22 23
M  V30 23 1 23 3
M  V30 24 1 21 14
M  V30 25 1 1 24
M  V30 26 1 1 25
M  V30 27 1 2 26
M  V30 28 1 2 27
M  V30 29 1 4 28
M  V30 30 1 5 29
M  V30 31 1 8 30
M  V30 32 1 8 31
M  V30 33 1 9 32
M  V30 34 1 9 33
M  V30 35 1 10 34
M  V30 36 1 10 35
M  V30 37 1 11 36
M  V30 38 1 11 37
M  V30 39 1 12 38
M  V30 40 1 12 39
M  V30 41 1 15 40
M  V30 42 1 16 41
M  V30 43 1 18 42
M  V30 44 1 18 43
M  V30 45 1 19 44
M  V30 46 1 19 45
M  V30 47 1 20 46
M  V30 48 1 21 47
M  V30 49 1 22 48
M  V30 50 1 23 49
M  V30 END BOND
M  V30 END CTAB
M  END
