
     RDKit          3D

  0  0  0  0  0  0  0  0  0  0999 V3000
M  V30 BEGIN CTAB
M  V30 COUNTS 19 19 0 0 0
M  V30 BEGIN ATOM
M  V30 1 N 3.04426 -0.379808 -0.0504689 0
M  V30 2 C 1.68363 0.0247695 -0.0712118 0
M  V30 3 C 1.37336 1.34778 -0.307813 0
M  V30 4 C 0.0462571 1.71784 -0.323433 0
M  V30 5 C -0.971068 0.817717 -0.112388 0
M  V30 6 C -0.680209 -0.499486 0.123914 0
M  V30 7 C 0.65504 -0.870583 0.139402 0
M  V30 8 I 1.17099 -2.89008 0.498854 0
M  V30 9 C -1.68325 -1.53813 0.360496 0
M  V30 10 N -2.31179 1.23232 -0.135862 0
M  V30 11 H 3.80636 0.282977 0.0857953 0
M  V30 12 H 3.24754 -1.39245 -0.180846 0
M  V30 13 H 2.1663 2.07415 -0.477011 0
M  V30 14 H -0.201128 2.755 -0.508757 0
M  V30 15 H -2.7157 -1.24373 0.183026 0
M  V30 16 H -1.52598 -1.95452 1.3756 0
M  V30 17 H -1.46606 -2.38555 -0.348056 0
M  V30 18 H -2.5176 2.23411 0.152055 0
M  V30 19 H -3.12096 0.667675 -0.403293 0
M  V30 END ATOM
M  V30 BEGIN BOND
M  V30 1 1 1 2
M  V30 2 2 2 3
M  V30 3 1 3 4
M  V30 4 2 4 5
M  V30 5 1 5 6
M  V30 6 2 6 7
M  V30 7 1 7 8
M  V30 8 1 6 9
M  V30 9 1 5 10
M  V30 10 1 7 2
M  V30 11 1 1 11
M  V30 12 1 1 12
M  V30 13 1 3 13
M  V30 14 1 4 14
M  V30 15 1 9 15
M  V30 16 1 9 16
M  V30 17 1 9 17
M  V30 18 1 10 18
M  V30 19 1 10 19
M  V30 END BOND
M  V30 END CTAB
M  END
