
     RDKit          3D

  0  0  0  0  0  0  0  0  0  0999 V3000
M  V30 BEGIN CTAB
M  V30 COUNTS 34 35 0 0 0
M  V30 BEGIN ATOM
M  V30 1 N 3.35236 3.42435 0.402777 0
M  V30 2 C 2.92827 2.08546 0.629763 0
M  V30 3 C 2.78861 1.57589 1.89451 0
M  V30 4 C 2.38196 0.292467 2.10732 0
M  V30 5 C 2.08756 -0.567179 1.05789 0
M  V30 6 C 2.22697 -0.0586025 -0.203864 0
M  V30 7 C 2.64393 1.25769 -0.427603 0
M  V30 8 S 1.58616 -2.20135 1.28327 0
M  V30 9 O 2.01661 -2.98016 0.0508629 0
M  V30 10 O 2.34411 -2.76038 2.48169 0
M  V30 11 N -0.058368 -2.45189 1.54327 0
M  V30 12 S -1.015 -2.83922 0.200596 0
M  V30 13 O -2.01921 -3.92261 0.511453 0
M  V30 14 O -0.105447 -3.31351 -0.927264 0
M  V30 15 C -1.86476 -1.44966 -0.437228 0
M  V30 16 C -1.35012 -0.703992 -1.46476 0
M  V30 17 C -2.01887 0.391755 -1.96865 0
M  V30 18 C -3.24811 0.784062 -1.45027 0
M  V30 19 N -3.91181 1.91263 -1.98698 0
M  V30 20 C -3.76299 0.0343683 -0.418991 0
M  V30 21 C -3.09441 -1.06104 0.0847226 0
M  V30 22 H 3.10694 4.17653 1.08292 0
M  V30 23 H 3.91214 3.68087 -0.439763 0
M  V30 24 H 3.01844 2.2459 2.73272 0
M  V30 25 H 2.26817 -0.120622 3.10222 0
M  V30 26 H 2.02529 -0.63672 -1.10964 0
M  V30 27 H 2.74629 1.63517 -1.42418 0
M  V30 28 H -0.487119 -1.77432 2.18551 0
M  V30 29 H -0.389771 -0.987013 -1.89064 0
M  V30 30 H -1.56701 0.951731 -2.78645 0
M  V30 31 H -3.81059 2.82083 -1.48371 0
M  V30 32 H -4.49496 1.8952 -2.85217 0
M  V30 33 H -4.71046 0.294203 0.0184662 0
M  V30 34 H -3.52483 -1.63084 0.896124 0
M  V30 END ATOM
M  V30 BEGIN BOND
M  V30 1 1 1 2
M  V30 2 2 2 3
M  V30 3 1 3 4
M  V30 4 2 4 5
M  V30 5 1 5 6
M  V30 6 2 6 7
M  V30 7 1 5 8
M  V30 8 2 8 9
M  V30 9 2 8 10
M  V30 10 1 8 11
M  V30 11 1 11 12
M  V30 12 2 12 13
M  V30 13 2 12 14
M  V30 14 1 12 15
M  V30 15 2 15 16
M  V30 16 1 16 17
M  V30 17 2 17 18
M  V30 18 1 18 19
M  V30 19 1 18 20
M  V30 20 2 20 21
M  V30 21 1 7 2
M  V30 22 1 21 15
M  V30 23 1 1 22
M  V30 24 1 1 23
M  V30 25 1 3 24
M  V30 26 1 4 25
M  V30 27 1 6 26
M  V30 28 1 7 27
M  V30 29 1 11 28
M  V30 30 1 16 29
M  V30 31 1 17 30
M  V30 32 1 19 31
M  V30 33 1 19 32
M  V30 34 1 20 33
M  V30 35 1 21 34
M  V30 END BOND
M  V30 END CTAB
M  END
