
     RDKit          3D

  0  0  0  0  0  0  0  0  0  0999 V3000
M  V30 BEGIN CTAB
M  V30 COUNTS 38 39 0 0 0
M  V30 BEGIN ATOM
M  V30 1 N 4.95631 -1.97085 -0.248812 0
M  V30 2 C 3.58973 -1.58815 -0.309086 0
M  V30 3 N 2.62246 -2.47668 -0.671406 0
M  V30 4 C 1.34568 -2.0532 -0.709533 0
M  V30 5 C 0.977512 -0.761259 -0.397996 0
M  V30 6 C 1.93735 0.156963 -0.0283892 0
M  V30 7 C 3.25728 -0.288683 0.00886357 0
M  V30 8 S 4.52492 0.80831 0.465089 0
M  V30 9 O 5.23821 0.35058 1.71227 0
M  V30 10 O 5.55211 0.962933 -0.616629 0
M  V30 11 N 3.84636 2.35784 0.810009 0
M  V30 12 B -0.545191 -0.350309 -0.469415 0
M  V30 13 O -1.6299 -1.25927 -0.041072 0
M  V30 14 C -2.74677 -0.516304 -0.48925 0
M  V30 15 C -2.35479 0.866129 -0.0325085 0
M  V30 16 O -1.08642 1.00201 -0.595009 0
M  V30 17 C -3.30842 1.92952 -0.505351 0
M  V30 18 C -2.20531 0.837296 1.45897 0
M  V30 19 C -2.78595 -0.640651 -1.9853 0
M  V30 20 C -4.02615 -1.00176 0.113898 0
M  V30 21 H 5.34105 -2.67718 0.411936 0
M  V30 22 H 5.63029 -1.52298 -0.903762 0
M  V30 23 H 0.53972 -2.74149 -0.997066 0
M  V30 24 H 1.68434 1.17675 0.222086 0
M  V30 25 H 4.63386 2.97395 1.10743 0
M  V30 26 H 3.44622 2.7897 -0.0585978 0
M  V30 27 H -3.84701 2.33234 0.378475 0
M  V30 28 H -4.00445 1.55979 -1.27782 0
M  V30 29 H -2.72037 2.74871 -0.966865 0
M  V30 30 H -2.395 -0.171301 1.89302 0
M  V30 31 H -2.9039 1.59541 1.91487 0
M  V30 32 H -1.1917 1.12691 1.8093 0
M  V30 33 H -2.28353 0.248081 -2.46214 0
M  V30 34 H -2.24149 -1.56798 -2.30487 0
M  V30 35 H -3.81968 -0.764814 -2.37223 0
M  V30 36 H -4.34914 -0.430873 1.00686 0
M  V30 37 H -4.81074 -0.985572 -0.667124 0
M  V30 38 H -3.86751 -2.05391 0.434797 0
M  V30 END ATOM
M  V30 BEGIN BOND
M  V30 1 1 1 2
M  V30 2 2 2 3
M  V30 3 1 3 4
M  V30 4 2 4 5
M  V30 5 1 5 6
M  V30 6 2 6 7
M  V30 7 1 7 8
M  V30 8 2 8 9
M  V30 9 2 8 10
M  V30 10 1 8 11
M  V30 11 1 5 12
M  V30 12 1 12 13
M  V30 13 1 13 14
M  V30 14 1 14 15
M  V30 15 1 15 16
M  V30 16 1 15 17
M  V30 17 1 15 18
M  V30 18 1 14 19
M  V30 19 1 14 20
M  V30 20 1 7 2
M  V30 21 1 16 12
M  V30 22 1 1 21
M  V30 23 1 1 22
M  V30 24 1 4 23
M  V30 25 1 6 24
M  V30 26 1 11 25
M  V30 27 1 11 26
M  V30 28 1 17 27
M  V30 29 1 17 28
M  V30 30 1 17 29
M  V30 31 1 18 30
M  V30 32 1 18 31
M  V30 33 1 18 32
M  V30 34 1 19 33
M  V30 35 1 19 34
M  V30 36 1 19 35
M  V30 37 1 20 36
M  V30 38 1 20 37
M  V30 39 1 20 38
M  V30 END BOND
M  V30 END CTAB
M  END
