
     RDKit          3D

  0  0  0  0  0  0  0  0  0  0999 V3000
M  V30 BEGIN CTAB
M  V30 COUNTS 45 47 0 0 0
M  V30 BEGIN ATOM
M  V30 1 N 4.96448 2.71882 -0.242776 0
M  V30 2 C 5.19422 1.2947 -0.309425 0
M  V30 3 C 4.41616 0.588517 -1.40803 0
M  V30 4 C 4.32769 -0.592043 -0.430362 0
M  V30 5 C 4.37113 0.476771 0.67163 0
M  V30 6 C 3.1013 -1.36036 -0.495492 0
M  V30 7 C 1.87214 -0.749683 -0.497733 0
M  V30 8 C 0.691145 -1.50465 -0.561237 0
M  V30 9 N -0.577506 -0.863407 -0.563137 0
M  V30 10 C -0.71868 0.564288 -0.501384 0
M  V30 11 C -2.17839 0.931131 -0.471752 0
M  V30 12 C -2.81065 0.335528 0.750879 0
M  V30 13 C -4.24239 0.64391 0.86944 0
M  V30 14 C -4.65807 1.7657 1.53598 0
M  V30 15 C -6.01931 2.07347 1.65758 0
M  V30 16 C -6.92762 1.21275 1.0859 0
M  V30 17 C -6.54338 0.0828336 0.412843 0
M  V30 18 C -5.18278 -0.184372 0.316041 0
M  V30 19 N 0.804121 -2.84284 -0.619655 0
M  V30 20 C 2.00745 -3.44326 -0.61758 0
M  V30 21 N 3.13809 -2.70008 -0.555847 0
M  V30 22 N 2.10626 -4.85911 -0.679991 0
M  V30 23 H 5.11798 3.12395 0.686247 0
M  V30 24 H 5.64125 3.16327 -0.903204 0
M  V30 25 H 6.26559 1.0119 -0.2828 0
M  V30 26 H 3.43023 1.11685 -1.52104 0
M  V30 27 H 4.96084 0.382193 -2.3273 0
M  V30 28 H 5.2796 -1.12286 -0.43127 0
M  V30 29 H 3.3861 0.958542 0.807349 0
M  V30 30 H 4.89909 0.165839 1.57746 0
M  V30 31 H 1.73475 0.320385 -0.452183 0
M  V30 32 H -1.41863 -1.45953 -0.617545 0
M  V30 33 H -0.193115 0.899712 0.426256 0
M  V30 34 H -0.22293 0.999142 -1.40274 0
M  V30 35 H -2.31436 2.04008 -0.480124 0
M  V30 36 H -2.64141 0.478659 -1.37597 0
M  V30 37 H -2.69273 -0.760156 0.741646 0
M  V30 38 H -2.24157 0.751889 1.62298 0
M  V30 39 H -3.93086 2.4301 1.97855 0
M  V30 40 H -6.34888 2.94749 2.17662 0
M  V30 41 H -7.989 1.41877 1.15993 0
M  V30 42 H -7.24479 -0.604937 -0.0427695 0
M  V30 43 H -4.89697 -1.0799 -0.218351 0
M  V30 44 H 2.22175 -5.43032 0.178077 0
M  V30 45 H 2.06264 -5.33966 -1.60241 0
M  V30 END ATOM
M  V30 BEGIN BOND
M  V30 1 1 1 2
M  V30 2 1 2 3
M  V30 3 1 3 4
M  V30 4 1 4 5
M  V30 5 1 4 6
M  V30 6 2 6 7
M  V30 7 1 7 8
M  V30 8 1 8 9
M  V30 9 1 9 10
M  V30 10 1 10 11
M  V30 11 1 11 12
M  V30 12 1 12 13
M  V30 13 2 13 14
M  V30 14 1 14 15
M  V30 15 2 15 16
M  V30 16 1 16 17
M  V30 17 2 17 18
M  V30 18 2 8 19
M  V30 19 1 19 20
M  V30 20 2 20 21
M  V30 21 1 20 22
M  V30 22 1 5 2
M  V30 23 1 21 6
M  V30 24 1 18 13
M  V30 25 1 1 23
M  V30 26 1 1 24
M  V30 27 1 2 25
M  V30 28 1 3 26
M  V30 29 1 3 27
M  V30 30 1 4 28
M  V30 31 1 5 29
M  V30 32 1 5 30
M  V30 33 1 7 31
M  V30 34 1 9 32
M  V30 35 1 10 33
M  V30 36 1 10 34
M  V30 37 1 11 35
M  V30 38 1 11 36
M  V30 39 1 12 37
M  V30 40 1 12 38
M  V30 41 1 14 39
M  V30 42 1 15 40
M  V30 43 1 16 41
M  V30 44 1 17 42
M  V30 45 1 18 43
M  V30 46 1 22 44
M  V30 47 1 22 45
M  V30 END BOND
M  V30 END CTAB
M  END
