
     RDKit          3D

  0  0  0  0  0  0  0  0  0  0999 V3000
M  V30 BEGIN CTAB
M  V30 COUNTS 44 46 0 0 0
M  V30 BEGIN ATOM
M  V30 1 N -4.66704 -0.971408 1.10375 0
M  V30 2 C -4.1382 -1.81476 0.0320543 0
M  V30 3 C -3.96273 -1.00908 -1.20823 0
M  V30 4 N -3.01011 0.0902703 -0.955503 0
M  V30 5 C -1.6353 -0.199854 -0.756355 0
M  V30 6 C -0.694945 0.683278 -0.303639 0
M  V30 7 C -1.10601 2.01449 0.0854395 0
M  V30 8 O -2.29916 2.39056 0.0166565 0
M  V30 9 C -0.151258 2.99403 0.58264 0
M  V30 10 C -0.606514 4.27723 0.946849 0
M  V30 11 C 0.328128 5.15982 1.40707 0
M  V30 12 C 1.66119 4.82929 1.51759 0
M  V30 13 C 2.10144 3.57462 1.16067 0
M  V30 14 C 1.16399 2.66417 0.690422 0
M  V30 15 C 1.61745 1.32418 0.306733 0
M  V30 16 O 2.86457 1.07206 0.429981 0
M  V30 17 C 0.677029 0.328176 -0.193401 0
M  V30 18 C 1.10806 -0.928107 -0.541147 0
M  V30 19 N 2.46085 -1.35827 -0.45882 0
M  V30 20 C 2.75013 -2.74666 -0.878405 0
M  V30 21 C 4.21137 -3.0214 -0.716018 0
M  V30 22 N 4.65602 -2.86759 0.653933 0
M  V30 23 C 0.137365 -1.8254 -1.00274 0
M  V30 24 C -1.17794 -1.48297 -1.10846 0
M  V30 25 H -4.84059 -1.54517 1.95392 0
M  V30 26 H -5.60357 -0.634165 0.772218 0
M  V30 27 H -4.89116 -2.62109 -0.112312 0
M  V30 28 H -3.2355 -2.28291 0.404103 0
M  V30 29 H -3.70998 -1.55965 -2.11718 0
M  V30 30 H -4.96324 -0.531458 -1.42603 0
M  V30 31 H -3.45382 1.01759 -0.970037 0
M  V30 32 H -1.65601 4.51123 0.850827 0
M  V30 33 H -0.00406704 6.16548 1.69664 0
M  V30 34 H 2.39078 5.55447 1.88927 0
M  V30 35 H 3.1396 3.28497 1.23567 0
M  V30 36 H 3.289 -0.856849 -0.150671 0
M  V30 37 H 2.40716 -2.91937 -1.89849 0
M  V30 38 H 2.1927 -3.37497 -0.125316 0
M  V30 39 H 4.44584 -4.05669 -1.03672 0
M  V30 40 H 4.78088 -2.27147 -1.32323 0
M  V30 41 H 4.00068 -2.27671 1.2071 0
M  V30 42 H 4.87714 -3.77044 1.10341 0
M  V30 43 H 0.471316 -2.82118 -1.27854 0
M  V30 44 H -1.92553 -2.18829 -1.48569 0
M  V30 END ATOM
M  V30 BEGIN BOND
M  V30 1 1 1 2
M  V30 2 1 2 3
M  V30 3 1 3 4
M  V30 4 1 4 5
M  V30 5 2 5 6
M  V30 6 1 6 7
M  V30 7 2 7 8
M  V30 8 1 7 9
M  V30 9 2 9 10
M  V30 10 1 10 11
M  V30 11 2 11 12
M  V30 12 1 12 13
M  V30 13 2 13 14
M  V30 14 1 14 15
M  V30 15 2 15 16
M  V30 16 1 15 17
M  V30 17 2 17 18
M  V30 18 1 18 19
M  V30 19 1 19 20
M  V30 20 1 20 21
M  V30 21 1 21 22
M  V30 22 1 18 23
M  V30 23 2 23 24
M  V30 24 1 24 5
M  V30 25 1 17 6
M  V30 26 1 14 9
M  V30 27 1 1 25
M  V30 28 1 1 26
M  V30 29 1 2 27
M  V30 30 1 2 28
M  V30 31 1 3 29
M  V30 32 1 3 30
M  V30 33 1 4 31
M  V30 34 1 10 32
M  V30 35 1 11 33
M  V30 36 1 12 34
M  V30 37 1 13 35
M  V30 38 1 19 36
M  V30 39 1 20 37
M  V30 40 1 20 38
M  V30 41 1 21 39
M  V30 42 1 21 40
M  V30 43 1 22 41
M  V30 44 1 22 42
M  V30 45 1 23 43
M  V30 46 1 24 44
M  V30 END BOND
M  V30 END CTAB
M  END
