
     RDKit          3D

  0  0  0  0  0  0  0  0  0  0999 V3000
M  V30 BEGIN CTAB
M  V30 COUNTS 38 41 0 0 0
M  V30 BEGIN ATOM
M  V30 1 N 8.19886 -0.36923 0.372412 0
M  V30 2 C 7.05362 -0.186535 0.324849 0
M  V30 3 C 5.61743 0.0393585 0.27778 0
M  V30 4 C 4.82151 -1.05294 0.16816 0
M  V30 5 C 3.42228 -0.870213 0.11978 0
M  V30 6 C 3.0153 0.420757 0.190662 0
M  V30 7 N 3.85163 1.50065 0.301189 0
M  V30 8 C 5.1801 1.34453 0.348314 0
M  V30 9 N 6.13217 2.38056 0.460852 0
M  V30 10 S 1.33333 0.27837 0.107668 0
M  V30 11 C 1.16954 -1.42875 -0.0166208 0
M  V30 12 C 2.48971 -1.83769 0.0127844 0
M  V30 13 N 2.78776 -3.26587 -0.0722579 0
M  V30 14 C -0.0146388 -2.25353 -0.12477 0
M  V30 15 O 0.280249 -3.53627 -0.19996 0
M  V30 16 N -1.35262 -1.94814 -0.162056 0
M  V30 17 C -2.073 -0.735686 -0.110206 0
M  V30 18 S -1.66689 0.907815 0.0202704 0
M  V30 19 C -3.21859 1.61092 0.00097442 0
M  V30 20 C -3.99994 0.488125 -0.110101 0
M  V30 21 N -3.40752 -0.654896 -0.162759 0
M  V30 22 C -5.39754 0.693951 -0.156815 0
M  V30 23 C -6.3522 -0.437781 -0.276047 0
M  V30 24 C -5.86793 1.96489 -0.0900612 0
M  V30 25 C -5.11165 3.09629 0.0205138 0
M  V30 26 C -3.74303 2.90468 0.066941 0
M  V30 27 H 5.28127 -2.02764 0.121265 0
M  V30 28 H 6.36961 3.05075 -0.314725 0
M  V30 29 H 6.67917 2.55181 1.35297 0
M  V30 30 H 2.8152 -3.78958 -0.943615 0
M  V30 31 H 2.97579 -3.7326 0.830072 0
M  V30 32 H -2.04464 -2.80628 -0.25107 0
M  V30 33 H -6.73556 -0.783935 0.698309 0
M  V30 34 H -7.16475 -0.167822 -0.971347 0
M  V30 35 H -5.77427 -1.27118 -0.766141 0
M  V30 36 H -6.95669 2.14891 -0.124825 0
M  V30 37 H -5.56084 4.0697 0.0677705 0
M  V30 38 H -3.03225 3.7045 0.152781 0
M  V30 END ATOM
M  V30 BEGIN BOND
M  V30 1 3 1 2
M  V30 2 1 2 3
M  V30 3 2 3 4
M  V30 4 1 4 5
M  V30 5 2 5 6
M  V30 6 1 6 7
M  V30 7 2 7 8
M  V30 8 1 8 9
M  V30 9 1 6 10
M  V30 10 1 10 11
M  V30 11 2 11 12
M  V30 12 1 12 13
M  V30 13 1 11 14
M  V30 14 2 14 15
M  V30 15 1 14 16
M  V30 16 1 16 17
M  V30 17 1 17 18
M  V30 18 1 18 19
M  V30 19 2 19 20
M  V30 20 1 20 21
M  V30 21 1 20 22
M  V30 22 1 22 23
M  V30 23 2 22 24
M  V30 24 1 24 25
M  V30 25 2 25 26
M  V30 26 1 8 3
M  V30 27 2 21 17
M  V30 28 1 12 5
M  V30 29 1 26 19
M  V30 30 1 4 27
M  V30 31 1 9 28
M  V30 32 1 9 29
M  V30 33 1 13 30
M  V30 34 1 13 31
M  V30 35 1 16 32
M  V30 36 1 23 33
M  V30 37 1 23 34
M  V30 38 1 23 35
M  V30 39 1 24 36
M  V30 40 1 25 37
M  V30 41 1 26 38
M  V30 END BOND
M  V30 END CTAB
M  END
