
     RDKit          3D

  0  0  0  0  0  0  0  0  0  0999 V3000
M  V30 BEGIN CTAB
M  V30 COUNTS 56 57 0 0 0
M  V30 BEGIN ATOM
M  V30 1 C -5.59091 1.76431 -1.81538 0
M  V30 2 C -4.55598 0.935136 -1.0865 0
M  V30 3 C -5.42378 -0.150614 -0.372937 0
M  V30 4 C -3.84502 1.7326 -0.0286741 0
M  V30 5 C -2.81576 1.0099 0.701567 0
M  V30 6 C -3.1931 0.260117 1.82951 0
M  V30 7 C -2.31624 -0.520283 2.5426 0
M  V30 8 N -2.76346 -1.26271 3.68551 0
M  V30 9 C -1.00861 -0.552573 2.11156 0
M  V30 10 C -0.597883 0.168195 1.01346 0
M  V30 11 C -1.52245 0.963185 0.298865 0
M  V30 12 S -0.895248 1.94376 -0.943198 0
M  V30 13 O -1.71819 1.83244 -2.18963 0
M  V30 14 O -0.920178 3.41998 -0.614002 0
M  V30 15 N 0.707066 1.46772 -1.40873 0
M  V30 16 C 0.761311 0.134819 -1.96009 0
M  V30 17 C 2.16418 -0.253979 -2.36936 0 CFG=1
M  V30 18 O 2.64631 0.661127 -3.31851 0
M  V30 19 C 3.13383 -0.375652 -1.23242 0 CFG=1
M  V30 20 N 3.2726 0.877363 -0.570579 0
M  V30 21 C 2.88068 -1.55818 -0.335605 0
M  V30 22 C 3.90365 -1.56531 0.752839 0
M  V30 23 C 3.71579 -0.958619 1.96894 0
M  V30 24 C 4.68884 -0.972941 2.96867 0
M  V30 25 C 5.89152 -1.61305 2.75298 0
M  V30 26 C 6.09172 -2.22952 1.52802 0
M  V30 27 C 5.12896 -2.20869 0.553904 0
M  V30 28 H -6.3826 2.14189 -1.16877 0
M  V30 29 H -5.05427 2.5371 -2.39064 0
M  V30 30 H -6.06301 1.09114 -2.56287 0
M  V30 31 H -3.94901 0.391415 -1.78226 0
M  V30 32 H -6.21728 -0.493093 -1.07031 0
M  V30 33 H -4.80036 -1.03114 -0.136374 0
M  V30 34 H -5.93313 0.289784 0.497412 0
M  V30 35 H -3.5254 2.73307 -0.393715 0
M  V30 36 H -4.65744 2.001 0.71715 0
M  V30 37 H -4.22691 0.277576 2.18223 0
M  V30 38 H -2.14269 -1.5726 4.44196 0
M  V30 39 H -3.77836 -1.50023 3.74978 0
M  V30 40 H -0.280913 -1.16507 2.65531 0
M  V30 41 H 0.443549 0.127107 0.739543 0
M  V30 42 H 1.01473 2.11314 -2.19602 0
M  V30 43 H 0.170662 0.166524 -2.93975 0
M  V30 44 H 0.300889 -0.658831 -1.39585 0
M  V30 45 H 2.10641 -1.23513 -2.88625 0
M  V30 46 H 2.98379 1.46205 -2.83366 0
M  V30 47 H 4.13601 -0.636368 -1.7504 0
M  V30 48 H 2.6284 0.937638 0.226432 0
M  V30 49 H 4.25407 1.16433 -0.37379 0
M  V30 50 H 3.0076 -2.5218 -0.891755 0
M  V30 51 H 1.87204 -1.57942 0.0648217 0
M  V30 52 H 2.76481 -0.457335 2.14104 0
M  V30 53 H 4.48721 -0.47336 3.91928 0
M  V30 54 H 6.66756 -1.6408 3.51226 0
M  V30 55 H 7.05915 -2.72497 1.39993 0
M  V30 56 H 5.29483 -2.69216 -0.398022 0
M  V30 END ATOM
M  V30 BEGIN BOND
M  V30 1 1 1 2
M  V30 2 1 2 3
M  V30 3 1 2 4
M  V30 4 1 4 5
M  V30 5 2 5 6
M  V30 6 1 6 7
M  V30 7 1 7 8
M  V30 8 2 7 9
M  V30 9 1 9 10
M  V30 10 2 10 11
M  V30 11 1 11 12
M  V30 12 2 12 13
M  V30 13 2 12 14
M  V30 14 1 12 15
M  V30 15 1 15 16
M  V30 16 1 16 17
M  V30 17 1 17 18
M  V30 18 1 17 19
M  V30 19 1 19 20
M  V30 20 1 19 21
M  V30 21 1 21 22
M  V30 22 2 22 23
M  V30 23 1 23 24
M  V30 24 2 24 25
M  V30 25 1 25 26
M  V30 26 2 26 27
M  V30 27 1 11 5
M  V30 28 1 27 22
M  V30 29 1 1 28
M  V30 30 1 1 29
M  V30 31 1 1 30
M  V30 32 1 2 31
M  V30 33 1 3 32
M  V30 34 1 3 33
M  V30 35 1 3 34
M  V30 36 1 4 35
M  V30 37 1 4 36
M  V30 38 1 6 37
M  V30 39 1 8 38
M  V30 40 1 8 39
M  V30 41 1 9 40
M  V30 42 1 10 41
M  V30 43 1 15 42
M  V30 44 1 16 43
M  V30 45 1 16 44
M  V30 46 1 17 45 CFG=3
M  V30 47 1 18 46
M  V30 48 1 19 47 CFG=3
M  V30 49 1 20 48
M  V30 50 1 20 49
M  V30 51 1 21 50
M  V30 52 1 21 51
M  V30 53 1 23 52
M  V30 54 1 24 53
M  V30 55 1 25 54
M  V30 56 1 26 55
M  V30 57 1 27 56
M  V30 END BOND
M  V30 END CTAB
M  END
