
     RDKit          3D

  0  0  0  0  0  0  0  0  0  0999 V3000
M  V30 BEGIN CTAB
M  V30 COUNTS 19 18 0 0 0
M  V30 BEGIN ATOM
M  V30 1 N -1.46533 -1.14119 0.369803 0
M  V30 2 C -1.00353 -0.194684 -0.594143 0 CFG=1
M  V30 3 C -2.09902 0.735055 -0.923976 0
M  V30 4 O -1.94683 1.67373 -1.75873 0
M  V30 5 O -3.34914 0.62111 -0.331478 0
M  V30 6 C 0.187411 0.579024 -0.0999466 0
M  V30 7 C 1.35527 -0.321177 0.220055 0
M  V30 8 O 2.42652 0.427826 0.669895 0
M  V30 9 N 3.49862 -0.303265 0.973113 0
M  V30 10 H -2.50343 -1.17647 0.357745 0
M  V30 11 H -1.16828 -0.804607 1.31634 0
M  V30 12 H -0.717754 -0.704585 -1.5464 0
M  V30 13 H -3.88983 1.45791 -0.145415 0
M  V30 14 H 0.461761 1.37051 -0.826208 0
M  V30 15 H -0.0920109 1.09259 0.847303 0
M  V30 16 H 1.59441 -0.87128 -0.725215 0
M  V30 17 H 1.03767 -1.07992 0.944208 0
M  V30 18 H 3.31908 -1.32037 1.01539 0
M  V30 19 H 4.35443 -0.0402009 0.452367 0
M  V30 END ATOM
M  V30 BEGIN BOND
M  V30 1 1 1 2
M  V30 2 1 2 3
M  V30 3 2 3 4
M  V30 4 1 3 5
M  V30 5 1 2 6
M  V30 6 1 6 7
M  V30 7 1 7 8
M  V30 8 1 8 9
M  V30 9 1 1 10
M  V30 10 1 1 11
M  V30 11 1 2 12 CFG=3
M  V30 12 1 5 13
M  V30 13 1 6 14
M  V30 14 1 6 15
M  V30 15 1 7 16
M  V30 16 1 7 17
M  V30 17 1 9 18
M  V30 18 1 9 19
M  V30 END BOND
M  V30 END CTAB
M  END
