
     RDKit          3D

  0  0  0  0  0  0  0  0  0  0999 V3000
M  V30 BEGIN CTAB
M  V30 COUNTS 53 54 0 0 0
M  V30 BEGIN ATOM
M  V30 1 N 6.25162 0.882938 1.26943 0
M  V30 2 C 6.07306 0.960472 -0.170367 0
M  V30 3 C 4.79207 0.281366 -0.545203 0
M  V30 4 C 4.39573 0.219434 -1.8547 0
M  V30 5 C 3.2356 -0.389935 -2.24007 0
M  V30 6 C 2.43308 -0.964828 -1.27152 0
M  V30 7 C 2.80923 -0.915869 0.0509222 0
M  V30 8 C 3.98704 -0.29213 0.400938 0
M  V30 9 C 1.95671 -1.52282 1.06596 0
M  V30 10 N 0.519787 -1.45449 0.729777 0
M  V30 11 C -0.126145 -0.212606 0.588573 0
M  V30 12 S 0.873214 1.09384 0.846239 0
M  V30 13 N -1.51978 -0.0165869 0.267121 0
M  V30 14 C -2.37342 -1.14557 0.0724441 0
M  V30 15 C -2.36806 -2.08881 1.29169 0
M  V30 16 C -1.81285 -1.96619 -1.08954 0
M  V30 17 C -3.8084 -0.877714 -0.195171 0
M  V30 18 C -4.27634 0.493869 0.175567 0
M  V30 19 C -3.32959 1.55615 -0.266049 0
M  V30 20 C -1.91156 1.37658 0.17113 0
M  V30 21 C -1.75395 1.96552 1.57785 0
M  V30 22 C -1.0708 2.15194 -0.839086 0
M  V30 23 N -5.56882 0.763346 -0.426825 0
M  V30 24 H 6.77172 0.0136994 1.51764 0
M  V30 25 H 6.69965 1.74319 1.6516 0
M  V30 26 H 6.91531 0.459367 -0.698247 0
M  V30 27 H 6.02272 2.02439 -0.471478 0
M  V30 28 H 5.02177 0.670229 -2.62896 0
M  V30 29 H 2.94313 -0.425328 -3.28944 0
M  V30 30 H 1.52845 -1.44391 -1.55235 0
M  V30 31 H 4.30467 -0.240418 1.43373 0
M  V30 32 H 2.26165 -2.52993 1.35844 0
M  V30 33 H 2.01862 -0.917107 2.02054 0
M  V30 34 H 0.0821896 -2.37719 0.616513 0
M  V30 35 H -3.3703 -2.10914 1.79294 0
M  V30 36 H -1.70191 -1.62114 2.02672 0
M  V30 37 H -2.15372 -3.11799 1.01793 0
M  V30 38 H -0.851891 -1.56842 -1.45936 0
M  V30 39 H -1.69107 -3.02555 -0.847133 0
M  V30 40 H -2.51921 -1.88886 -1.96572 0
M  V30 41 H -3.98575 -0.995418 -1.30274 0
M  V30 42 H -4.45239 -1.64069 0.273545 0
M  V30 43 H -4.4152 0.574013 1.27354 0
M  V30 44 H -3.68138 2.53024 0.186682 0
M  V30 45 H -3.392 1.72762 -1.3635 0
M  V30 46 H -1.37397 1.24323 2.30976 0
M  V30 47 H -1.07058 2.82628 1.51694 0
M  V30 48 H -2.75299 2.29994 1.94761 0
M  V30 49 H -0.441041 1.47767 -1.44298 0
M  V30 50 H -1.72927 2.66465 -1.61118 0
M  V30 51 H -0.532184 3.00156 -0.376032 0
M  V30 52 H -6.31201 0.107158 -0.0808543 0
M  V30 53 H -5.55045 0.639957 -1.46324 0
M  V30 END ATOM
M  V30 BEGIN BOND
M  V30 1 1 1 2
M  V30 2 1 2 3
M  V30 3 2 3 4
M  V30 4 1 4 5
M  V30 5 2 5 6
M  V30 6 1 6 7
M  V30 7 2 7 8
M  V30 8 1 7 9
M  V30 9 1 9 10
M  V30 10 1 10 11
M  V30 11 2 11 12
M  V30 12 1 11 13
M  V30 13 1 13 14
M  V30 14 1 14 15
M  V30 15 1 14 16
M  V30 16 1 14 17
M  V30 17 1 17 18
M  V30 18 1 18 19
M  V30 19 1 19 20
M  V30 20 1 20 21
M  V30 21 1 20 22
M  V30 22 1 18 23
M  V30 23 1 8 3
M  V30 24 1 20 13
M  V30 25 1 1 24
M  V30 26 1 1 25
M  V30 27 1 2 26
M  V30 28 1 2 27
M  V30 29 1 4 28
M  V30 30 1 5 29
M  V30 31 1 6 30
M  V30 32 1 8 31
M  V30 33 1 9 32
M  V30 34 1 9 33
M  V30 35 1 10 34
M  V30 36 1 15 35
M  V30 37 1 15 36
M  V30 38 1 15 37
M  V30 39 1 16 38
M  V30 40 1 16 39
M  V30 41 1 16 40
M  V30 42 1 17 41
M  V30 43 1 17 42
M  V30 44 1 18 43
M  V30 45 1 19 44
M  V30 46 1 19 45
M  V30 47 1 21 46
M  V30 48 1 21 47
M  V30 49 1 21 48
M  V30 50 1 22 49
M  V30 51 1 22 50
M  V30 52 1 22 51
M  V30 53 1 23 52
M  V30 54 1 23 53
M  V30 END BOND
M  V30 END CTAB
M  END
