
     RDKit          3D

  0  0  0  0  0  0  0  0  0  0999 V3000
M  V30 BEGIN CTAB
M  V30 COUNTS 17 18 0 0 0
M  V30 BEGIN ATOM
M  V30 1 N -2.00953 -1.32081 -0.110827 0
M  V30 2 C -0.757393 -0.653565 -0.0531213 0
M  V30 3 C 0.433502 -1.3446 -0.0821009 0
M  V30 4 Br 0.286135 -3.2525 -0.204598 0
M  V30 5 C 1.68709 -0.714948 -0.0267641 0
M  V30 6 N 2.85872 -1.36 -0.0530629 0
M  V30 7 S 4.01127 -0.146639 0.0379534 0
M  V30 8 N 2.95867 1.16408 0.107835 0
M  V30 9 C 1.73126 0.620143 0.0582354 0
M  V30 10 C 0.544791 1.34505 0.0894088 0
M  V30 11 Br 0.528675 3.23535 0.208787 0
M  V30 12 C -0.693301 0.711754 0.034033 0
M  V30 13 N -1.91688 1.44856 0.065507 0
M  V30 14 H -2.72242 -1.2121 0.637208 0
M  V30 15 H -2.23033 -1.93594 -0.916083 0
M  V30 16 H -2.35773 1.56324 1.00499 0
M  V30 17 H -2.35253 1.85291 -0.7974 0
M  V30 END ATOM
M  V30 BEGIN BOND
M  V30 1 1 1 2
M  V30 2 2 2 3
M  V30 3 1 3 4
M  V30 4 1 3 5
M  V30 5 2 5 6
M  V30 6 1 6 7
M  V30 7 1 7 8
M  V30 8 2 8 9
M  V30 9 1 9 10
M  V30 10 1 10 11
M  V30 11 2 10 12
M  V30 12 1 12 13
M  V30 13 1 12 2
M  V30 14 1 9 5
M  V30 15 1 1 14
M  V30 16 1 1 15
M  V30 17 1 13 16
M  V30 18 1 13 17
M  V30 END BOND
M  V30 END CTAB
M  END
