
     RDKit          3D

  0  0  0  0  0  0  0  0  0  0999 V3000
M  V30 BEGIN CTAB
M  V30 COUNTS 16 16 0 0 0
M  V30 BEGIN ATOM
M  V30 1 N 2.78301 0.287578 -0.0750187 0
M  V30 2 C 1.35569 0.457541 -0.0525948 0
M  V30 3 N 0.809263 1.62053 -0.0310454 0
M  V30 4 C -0.597184 1.81482 -0.00864635 0
M  V30 5 O -1.15521 2.94199 0.0127081 0
M  V30 6 C -1.46532 0.64522 -0.0100918 0
M  V30 7 O -2.68591 0.717588 0.346835 0
M  V30 8 C -0.87855 -0.643743 -0.443906 0
M  V30 9 N 0.511346 -0.699917 -0.0540239 0
M  V30 10 N -1.60991 -1.74833 0.192666 0
M  V30 11 H 3.42653 1.03463 0.263989 0
M  V30 12 H 3.18035 -0.579863 -0.4289 0
M  V30 13 H -1.01078 -0.801361 -1.54925 0
M  V30 14 H 0.94701 -1.60081 0.242695 0
M  V30 15 H -2.54598 -1.43253 0.527083 0
M  V30 16 H -1.06436 -2.01335 1.0675 0
M  V30 END ATOM
M  V30 BEGIN BOND
M  V30 1 1 1 2
M  V30 2 2 2 3
M  V30 3 1 3 4
M  V30 4 2 4 5
M  V30 5 1 4 6
M  V30 6 2 6 7
M  V30 7 1 6 8
M  V30 8 1 8 9
M  V30 9 1 8 10
M  V30 10 1 9 2
M  V30 11 1 1 11
M  V30 12 1 1 12
M  V30 13 1 8 13
M  V30 14 1 9 14
M  V30 15 1 10 15
M  V30 16 1 10 16
M  V30 END BOND
M  V30 END CTAB
M  END
