
     RDKit          3D

  0  0  0  0  0  0  0  0  0  0999 V3000
M  V30 BEGIN CTAB
M  V30 COUNTS 44 46 0 0 0
M  V30 BEGIN ATOM
M  V30 1 N 8.70639 0.422598 0.192398 0
M  V30 2 C 7.33692 0.0981492 0.230712 0
M  V30 3 C 6.37204 1.08094 0.165721 0
M  V30 4 C 5.03003 0.786021 0.201521 0
M  V30 5 C 4.6341 -0.528008 0.305259 0
M  V30 6 C 5.58154 -1.51162 0.370486 0
M  V30 7 C 6.9162 -1.21136 0.334353 0
M  V30 8 O 3.25563 -0.8395 0.342685 0
M  V30 9 S 2.40727 -1.14003 -1.11216 0
M  V30 10 O 1.91492 -2.56297 -1.05052 0
M  V30 11 O 3.33255 -0.923267 -2.26147 0
M  V30 12 C 1.03924 -0.0465221 -1.18517 0
M  V30 13 C 1.20146 1.18668 -1.78016 0
M  V30 14 C 0.116562 2.03323 -1.82883 0
M  V30 15 C -1.13653 1.68487 -1.29766 0
M  V30 16 C -1.29783 0.467623 -0.710151 0
M  V30 17 C -0.192036 -0.380445 -0.667027 0
M  V30 18 C -2.59144 0.0175614 -0.128007 0
M  V30 19 O -2.55931 -1.02617 0.546625 0
M  V30 20 N -3.77039 0.721901 -0.326064 0
M  V30 21 C -5.02824 0.364816 0.200386 0
M  V30 22 C -6.16907 0.876271 -0.451143 0
M  V30 23 C -7.4028 0.584069 0.0280557 0
M  V30 24 C -7.58881 -0.200158 1.1368 0
M  V30 25 C -6.51078 -0.712468 1.79367 0
M  V30 26 C -5.22664 -0.417098 1.30788 0
M  V30 27 N -6.58905 -1.53069 2.94383 0
M  V30 28 H 9.43106 -0.248839 -0.0979931 0
M  V30 29 H 9.00774 1.38078 0.468078 0
M  V30 30 H 6.64945 2.1293 0.0833391 0
M  V30 31 H 4.28914 1.56726 0.149596 0
M  V30 32 H 5.26685 -2.5566 0.452989 0
M  V30 33 H 7.69505 -1.95842 0.383302 0
M  V30 34 H 2.13489 1.52353 -2.2101 0
M  V30 35 H 0.203752 3.01531 -2.29003 0
M  V30 36 H -1.95569 2.37833 -1.35535 0
M  V30 37 H -0.322094 -1.35168 -0.197858 0
M  V30 38 H -3.70889 1.59322 -0.919313 0
M  V30 39 H -5.9909 1.48976 -1.322 0
M  V30 40 H -8.26323 0.993014 -0.495776 0
M  V30 41 H -8.56939 -0.409137 1.48458 0
M  V30 42 H -4.3873 -0.815421 1.84827 0
M  V30 43 H -6.92394 -2.50987 2.80885 0
M  V30 44 H -6.33845 -1.2282 3.9074 0
M  V30 END ATOM
M  V30 BEGIN BOND
M  V30 1 1 1 2
M  V30 2 2 2 3
M  V30 3 1 3 4
M  V30 4 2 4 5
M  V30 5 1 5 6
M  V30 6 2 6 7
M  V30 7 1 5 8
M  V30 8 1 8 9
M  V30 9 2 9 10
M  V30 10 2 9 11
M  V30 11 1 9 12
M  V30 12 2 12 13
M  V30 13 1 13 14
M  V30 14 2 14 15
M  V30 15 1 15 16
M  V30 16 2 16 17
M  V30 17 1 16 18
M  V30 18 2 18 19
M  V30 19 1 18 20
M  V30 20 1 20 21
M  V30 21 2 21 22
M  V30 22 1 22 23
M  V30 23 2 23 24
M  V30 24 1 24 25
M  V30 25 2 25 26
M  V30 26 1 25 27
M  V30 27 1 7 2
M  V30 28 1 17 12
M  V30 29 1 26 21
M  V30 30 1 1 28
M  V30 31 1 1 29
M  V30 32 1 3 30
M  V30 33 1 4 31
M  V30 34 1 6 32
M  V30 35 1 7 33
M  V30 36 1 13 34
M  V30 37 1 14 35
M  V30 38 1 15 36
M  V30 39 1 17 37
M  V30 40 1 20 38
M  V30 41 1 22 39
M  V30 42 1 23 40
M  V30 43 1 24 41
M  V30 44 1 26 42
M  V30 45 1 27 43
M  V30 46 1 27 44
M  V30 END BOND
M  V30 END CTAB
M  END
