
     RDKit          3D

  0  0  0  0  0  0  0  0  0  0999 V3000
M  V30 BEGIN CTAB
M  V30 COUNTS 36 37 0 0 0
M  V30 BEGIN ATOM
M  V30 1 N 3.63723 2.65677 -0.655986 0
M  V30 2 C 2.80908 1.76398 0.0823399 0
M  V30 3 C 2.89046 0.372997 -0.478952 0
M  V30 4 N 2.07021 -0.564681 0.234659 0
M  V30 5 C 2.20783 -1.86955 -0.368367 0
M  V30 6 C 0.931169 -2.28309 -1.08821 0
M  V30 7 N -0.0931266 -2.37487 -0.102429 0
M  V30 8 C -0.276935 -1.17506 0.638606 0 CFG=1
M  V30 9 C 0.706398 -0.0999801 0.277078 0
M  V30 10 C -1.64884 -0.62465 0.511111 0
M  V30 11 C -2.75882 -1.43483 0.586298 0
M  V30 12 C -4.04078 -0.922843 0.47004 0
M  V30 13 C -4.21511 0.414314 0.27641 0
M  V30 14 C -3.13861 1.25053 0.196447 0
M  V30 15 C -1.84842 0.720963 0.315489 0
M  V30 16 N -3.31201 2.64833 -0.00565252 0
M  V30 17 H 4.60611 2.49897 -0.597854 0
M  V30 18 H 3.21443 2.97339 -1.50314 0
M  V30 19 H 1.75018 2.12555 0.0851593 0
M  V30 20 H 3.17734 1.71955 1.12863 0
M  V30 21 H 2.69144 0.417401 -1.55954 0
M  V30 22 H 3.96045 0.0372803 -0.367606 0
M  V30 23 H 3.06457 -1.94728 -1.04673 0
M  V30 24 H 2.33811 -2.59807 0.459891 0
M  V30 25 H 0.70207 -1.63055 -1.9436 0
M  V30 26 H 1.13384 -3.32 -1.47119 0
M  V30 27 H -0.942485 -2.86904 -0.370625 0
M  V30 28 H -0.175404 -1.45052 1.73052 0
M  V30 29 H 0.656115 0.678216 1.06413 0
M  V30 30 H 0.425589 0.393492 -0.67427 0
M  V30 31 H -2.6281 -2.4743 0.73666 0
M  V30 32 H -4.87467 -1.59406 0.535307 0
M  V30 33 H -5.2299 0.806867 0.186147 0
M  V30 34 H -1.05239 1.43177 0.244814 0
M  V30 35 H -2.63857 3.33319 0.422883 0
M  V30 36 H -4.09846 2.98984 -0.572628 0
M  V30 END ATOM
M  V30 BEGIN BOND
M  V30 1 1 1 2
M  V30 2 1 2 3
M  V30 3 1 3 4
M  V30 4 1 4 5
M  V30 5 1 5 6
M  V30 6 1 6 7
M  V30 7 1 7 8
M  V30 8 1 8 9
M  V30 9 1 8 10
M  V30 10 2 10 11
M  V30 11 1 11 12
M  V30 12 2 12 13
M  V30 13 1 13 14
M  V30 14 2 14 15
M  V30 15 1 14 16
M  V30 16 1 9 4
M  V30 17 1 15 10
M  V30 18 1 1 17
M  V30 19 1 1 18
M  V30 20 1 2 19
M  V30 21 1 2 20
M  V30 22 1 3 21
M  V30 23 1 3 22
M  V30 24 1 5 23
M  V30 25 1 5 24
M  V30 26 1 6 25
M  V30 27 1 6 26
M  V30 28 1 7 27
M  V30 29 1 8 28 CFG=1
M  V30 30 1 9 29
M  V30 31 1 9 30
M  V30 32 1 11 31
M  V30 33 1 12 32
M  V30 34 1 13 33
M  V30 35 1 15 34
M  V30 36 1 16 35
M  V30 37 1 16 36
M  V30 END BOND
M  V30 END CTAB
M  END
