
     RDKit          3D

  0  0  0  0  0  0  0  0  0  0999 V3000
M  V30 BEGIN CTAB
M  V30 COUNTS 53 55 0 0 0
M  V30 BEGIN ATOM
M  V30 1 O 0.9384 -1.09603 -1.16327 0
M  V30 2 C 0.352436 0.00496344 -1.12638 0
M  V30 3 N -0.89905 0.10132 -0.49262 0
M  V30 4 C -1.55417 1.41219 -0.478596 0
M  V30 5 C -1.66939 1.91979 0.962981 0
M  V30 6 C -1.82355 3.44218 0.860275 0
M  V30 7 C -2.76709 3.7423 -0.265895 0
M  V30 8 C -3.70252 2.57141 -0.541003 0
M  V30 9 C -2.89603 1.40172 -1.12379 0
M  V30 10 C -1.49359 -1.05993 0.11837 0
M  V30 11 C -0.741644 -1.54905 1.31856 0
M  V30 12 C -1.02791 -2.92282 1.75193 0
M  V30 13 C -1.33979 -3.90966 0.670782 0
M  V30 14 C -2.46766 -3.30947 -0.149941 0
M  V30 15 C -1.84704 -2.11233 -0.880283 0
M  V30 16 C 0.996839 1.17096 -1.75187 0
M  V30 17 S 2.602 0.790843 -2.49385 0
M  V30 18 C 3.80669 0.35377 -1.26457 0
M  V30 19 N 3.92833 -0.937055 -0.911028 0
M  V30 20 C 4.79602 -1.37433 -0.00450532 0
M  V30 21 N 4.89413 -2.74414 0.341461 0
M  V30 22 N 5.60377 -0.492768 0.601866 0
M  V30 23 C 5.51671 0.818674 0.277432 0
M  V30 24 N 4.61385 1.23731 -0.659032 0
M  V30 25 N 6.39198 1.71492 0.945227 0
M  V30 26 H -0.935639 2.17207 -0.997507 0
M  V30 27 H -2.53558 1.52161 1.4828 0
M  V30 28 H -0.706989 1.75379 1.47947 0
M  V30 29 H -2.10969 3.88522 1.82293 0
M  V30 30 H -0.814363 3.81452 0.569041 0
M  V30 31 H -2.25653 3.99808 -1.21837 0
M  V30 32 H -3.40896 4.61998 -0.025445 0
M  V30 33 H -4.48896 2.90798 -1.23309 0
M  V30 34 H -4.14668 2.28715 0.433923 0
M  V30 35 H -2.82017 1.59356 -2.21408 0
M  V30 36 H -3.45461 0.463119 -1.00601 0
M  V30 37 H -2.49034 -0.698612 0.533011 0
M  V30 38 H 0.34456 -1.4049 1.16733 0
M  V30 39 H -0.98794 -0.864164 2.18677 0
M  V30 40 H -1.89295 -2.90649 2.46744 0
M  V30 41 H -0.176335 -3.32789 2.34341 0
M  V30 42 H -0.484096 -4.21865 0.0723498 0
M  V30 43 H -1.76583 -4.81876 1.17845 0
M  V30 44 H -2.91644 -4.01275 -0.852758 0
M  V30 45 H -3.23853 -2.96125 0.574299 0
M  V30 46 H -1.03133 -2.50738 -1.47997 0
M  V30 47 H -2.67848 -1.74189 -1.53248 0
M  V30 48 H 0.370292 1.61536 -2.56598 0
M  V30 49 H 1.14203 2.01757 -1.01848 0
M  V30 50 H 5.42723 -3.3556 -0.315575 0
M  V30 51 H 4.45669 -3.13613 1.21246 0
M  V30 52 H 7.4017 1.5141 1.07747 0
M  V30 53 H 5.98624 2.61558 1.31634 0
M  V30 END ATOM
M  V30 BEGIN BOND
M  V30 1 2 1 2
M  V30 2 1 2 3
M  V30 3 1 3 4
M  V30 4 1 4 5
M  V30 5 1 5 6
M  V30 6 1 6 7
M  V30 7 1 7 8
M  V30 8 1 8 9
M  V30 9 1 3 10
M  V30 10 1 10 11
M  V30 11 1 11 12
M  V30 12 1 12 13
M  V30 13 1 13 14
M  V30 14 1 14 15
M  V30 15 1 2 16
M  V30 16 1 16 17
M  V30 17 1 17 18
M  V30 18 2 18 19
M  V30 19 1 19 20
M  V30 20 1 20 21
M  V30 21 2 20 22
M  V30 22 1 22 23
M  V30 23 2 23 24
M  V30 24 1 23 25
M  V30 25 1 9 4
M  V30 26 1 15 10
M  V30 27 1 24 18
M  V30 28 1 4 26
M  V30 29 1 5 27
M  V30 30 1 5 28
M  V30 31 1 6 29
M  V30 32 1 6 30
M  V30 33 1 7 31
M  V30 34 1 7 32
M  V30 35 1 8 33
M  V30 36 1 8 34
M  V30 37 1 9 35
M  V30 38 1 9 36
M  V30 39 1 10 37
M  V30 40 1 11 38
M  V30 41 1 11 39
M  V30 42 1 12 40
M  V30 43 1 12 41
M  V30 44 1 13 42
M  V30 45 1 13 43
M  V30 46 1 14 44
M  V30 47 1 14 45
M  V30 48 1 15 46
M  V30 49 1 15 47
M  V30 50 1 16 48
M  V30 51 1 16 49
M  V30 52 1 21 50
M  V30 53 1 21 51
M  V30 54 1 25 52
M  V30 55 1 25 53
M  V30 END BOND
M  V30 END CTAB
M  END
