
     RDKit          3D

  0  0  0  0  0  0  0  0  0  0999 V3000
M  V30 BEGIN CTAB
M  V30 COUNTS 21 21 0 0 0
M  V30 BEGIN ATOM
M  V30 1 N 3.36993 0.682372 0.176131 0
M  V30 2 C 2.08674 0.510019 0.786098 0
M  V30 3 N 1.68261 1.05576 1.93622 0
M  V30 4 N 0.446304 0.647929 2.13788 0
M  V30 5 C 0.0668959 -0.146401 1.13133 0
M  V30 6 N 1.1015 -0.230657 0.283116 0
M  V30 7 N 1.18517 -0.952811 -0.927703 0
M  V30 8 C -1.21589 -0.830772 0.923503 0
M  V30 9 S -2.40745 0.0821016 0.0302378 0
M  V30 10 O -2.77804 1.31899 0.803606 0
M  V30 11 O -3.65532 -0.750646 -0.0771808 0
M  V30 12 C -1.92001 0.538033 -1.59217 0
M  V30 13 H 3.47773 0.987712 -0.811243 0
M  V30 14 H 4.24917 0.505507 0.707506 0
M  V30 15 H 1.77866 -0.574446 -1.68527 0
M  V30 16 H 0.683584 -1.83598 -1.0895 0
M  V30 17 H -1.62051 -1.10112 1.92 0
M  V30 18 H -1.02581 -1.81527 0.408518 0
M  V30 19 H -2.73725 1.12161 -2.06285 0
M  V30 20 H -1.76264 -0.349717 -2.23899 0
M  V30 21 H -1.00537 1.13779 -1.64403 0
M  V30 END ATOM
M  V30 BEGIN BOND
M  V30 1 1 1 2
M  V30 2 2 2 3
M  V30 3 1 3 4
M  V30 4 2 4 5
M  V30 5 1 5 6
M  V30 6 1 6 7
M  V30 7 1 5 8
M  V30 8 1 8 9
M  V30 9 2 9 10
M  V30 10 2 9 11
M  V30 11 1 9 12
M  V30 12 1 6 2
M  V30 13 1 1 13
M  V30 14 1 1 14
M  V30 15 1 7 15
M  V30 16 1 7 16
M  V30 17 1 8 17
M  V30 18 1 8 18
M  V30 19 1 12 19
M  V30 20 1 12 20
M  V30 21 1 12 21
M  V30 END BOND
M  V30 END CTAB
M  END
