
     RDKit          3D

  0  0  0  0  0  0  0  0  0  0999 V3000
M  V30 BEGIN CTAB
M  V30 COUNTS 38 39 0 0 0
M  V30 BEGIN ATOM
M  V30 1 O 0.568774 1.28218 -1.87583 0
M  V30 2 C 0.0672049 0.56654 -0.896322 0
M  V30 3 N -1.25096 0.381655 -0.781461 0
M  V30 4 C -2.59593 0.193036 -0.664301 0
M  V30 5 C -3.6412 0.937785 -1.20145 0
M  V30 6 C -4.97307 0.715406 -0.915678 0
M  V30 7 C -5.33944 -0.287684 -0.0580179 0
M  V30 8 C -4.35397 -1.05855 0.502885 0
M  V30 9 C -3.04613 -0.837497 0.220049 0
M  V30 10 N -2.01538 -1.65171 0.786199 0
M  V30 11 C -6.78737 -0.526006 0.262619 0
M  V30 12 N 1.08722 0.0635694 -0.0445627 0
M  V30 13 C 2.44356 0.238259 -0.145222 0
M  V30 14 C 3.11787 0.801328 -1.19655 0
M  V30 15 C 4.50722 0.930342 -1.22234 0
M  V30 16 C 5.23571 0.474757 -0.152484 0
M  V30 17 C 4.60322 -0.100699 0.925543 0
M  V30 18 C 3.23771 -0.214287 0.923831 0
M  V30 19 N 2.62576 -0.802709 2.03656 0
M  V30 20 C 6.71964 0.643136 -0.228562 0
M  V30 21 H -1.40858 0.961671 -2.01343 0
M  V30 22 H -3.38992 1.75257 -1.88222 0
M  V30 23 H -5.75448 1.33632 -1.36454 0
M  V30 24 H -4.65831 -1.85163 1.17619 0
M  V30 25 H -1.7055 -1.58139 1.76556 0
M  V30 26 H -1.58539 -2.34538 0.113262 0
M  V30 27 H -7.33696 -0.330513 -0.659678 0
M  V30 28 H -7.04987 0.30885 0.976571 0
M  V30 29 H -6.90056 -1.50739 0.718796 0
M  V30 30 H 0.697319 -0.524918 0.772218 0
M  V30 31 H 2.6287 1.1721 -2.08555 0
M  V30 32 H 4.98936 1.38967 -2.08874 0
M  V30 33 H 5.19821 -0.457999 1.77548 0
M  V30 34 H 1.73374 -0.545275 2.486 0
M  V30 35 H 3.13907 -1.62395 2.49181 0
M  V30 36 H 7.08732 -0.168413 -0.892497 0
M  V30 37 H 7.16708 0.600368 0.773175 0
M  V30 38 H 6.93834 1.66647 -0.615072 0
M  V30 END ATOM
M  V30 BEGIN BOND
M  V30 1 2 1 2
M  V30 2 1 2 3
M  V30 3 1 3 4
M  V30 4 2 4 5
M  V30 5 1 5 6
M  V30 6 2 6 7
M  V30 7 1 7 8
M  V30 8 2 8 9
M  V30 9 1 9 10
M  V30 10 1 7 11
M  V30 11 1 2 12
M  V30 12 1 12 13
M  V30 13 2 13 14
M  V30 14 1 14 15
M  V30 15 2 15 16
M  V30 16 1 16 17
M  V30 17 2 17 18
M  V30 18 1 18 19
M  V30 19 1 16 20
M  V30 20 1 9 4
M  V30 21 1 18 13
M  V30 22 1 3 21
M  V30 23 1 5 22
M  V30 24 1 6 23
M  V30 25 1 8 24
M  V30 26 1 10 25
M  V30 27 1 10 26
M  V30 28 1 11 27
M  V30 29 1 11 28
M  V30 30 1 11 29
M  V30 31 1 12 30
M  V30 32 1 14 31
M  V30 33 1 15 32
M  V30 34 1 17 33
M  V30 35 1 19 34
M  V30 36 1 19 35
M  V30 37 1 20 36
M  V30 38 1 20 37
M  V30 39 1 20 38
M  V30 END BOND
M  V30 END CTAB
M  END
