
     RDKit          3D

  0  0  0  0  0  0  0  0  0  0999 V3000
M  V30 BEGIN CTAB
M  V30 COUNTS 25 25 0 0 0
M  V30 BEGIN ATOM
M  V30 1 O -1.8713 1.22666 0.932631 0
M  V30 2 C -2.85279 0.555083 0.209583 0
M  V30 3 C -2.44947 -0.848633 -0.125358 0
M  V30 4 N -1.2818 -0.998956 -0.921145 0
M  V30 5 C -0.0439807 -0.417298 -0.585263 0
M  V30 6 C 0.81115 -1.03529 0.332233 0
M  V30 7 N 0.342572 -2.25736 0.90991 0
M  V30 8 C 2.03331 -0.495996 0.658748 0
M  V30 9 C 2.41242 0.687807 0.0563237 0
M  V30 10 C 1.59429 1.33143 -0.858263 0
M  V30 11 C 0.367105 0.752427 -1.1607 0
M  V30 12 F -0.426945 1.38134 -2.08252 0
M  V30 13 Cl 2.06251 2.83444 -1.63063 0
M  V30 14 N 3.67545 1.24629 0.393514 0
M  V30 15 H -1.89594 2.17884 0.616894 0
M  V30 16 H -3.73985 0.477334 0.884933 0
M  V30 17 H -3.13374 1.13373 -0.715879 0
M  V30 18 H -2.30389 -1.37829 0.855002 0
M  V30 19 H -3.31747 -1.35536 -0.609171 0
M  V30 20 H -1.3405 -1.57133 -1.80403 0
M  V30 21 H 0.237342 -3.10965 0.344094 0
M  V30 22 H 0.115894 -2.24647 1.91409 0
M  V30 23 H 2.65098 -1.01993 1.37515 0
M  V30 24 H 3.95078 1.51147 1.36136 0
M  V30 25 H 4.40387 1.41772 -0.351493 0
M  V30 END ATOM
M  V30 BEGIN BOND
M  V30 1 1 1 2
M  V30 2 1 2 3
M  V30 3 1 3 4
M  V30 4 1 4 5
M  V30 5 2 5 6
M  V30 6 1 6 7
M  V30 7 1 6 8
M  V30 8 2 8 9
M  V30 9 1 9 10
M  V30 10 2 10 11
M  V30 11 1 11 12
M  V30 12 1 10 13
M  V30 13 1 9 14
M  V30 14 1 11 5
M  V30 15 1 1 15
M  V30 16 1 2 16
M  V30 17 1 2 17
M  V30 18 1 3 18
M  V30 19 1 3 19
M  V30 20 1 4 20
M  V30 21 1 7 21
M  V30 22 1 7 22
M  V30 23 1 8 23
M  V30 24 1 14 24
M  V30 25 1 14 25
M  V30 END BOND
M  V30 END CTAB
M  END
