
     RDKit          3D

  0  0  0  0  0  0  0  0  0  0999 V3000
M  V30 BEGIN CTAB
M  V30 COUNTS 41 43 0 0 0
M  V30 BEGIN ATOM
M  V30 1 C 3.70268 -0.138933 2.0029 0
M  V30 2 C 3.53875 0.697682 0.753421 0
M  V30 3 C 3.22297 -0.129221 -0.42922 0
M  V30 4 C 4.2694 -0.790264 -1.03656 0
M  V30 5 C 5.60037 -0.63833 -0.494913 0
M  V30 6 N 6.68215 -0.509673 -0.0720532 0
M  V30 7 C 4.16064 -1.60418 -2.14017 0
M  V30 8 N 5.27088 -2.2583 -2.72307 0
M  V30 9 N 2.91474 -1.73425 -2.62833 0
M  V30 10 C 1.848 -1.09957 -2.06014 0
M  V30 11 C 1.9285 -0.283177 -0.960334 0
M  V30 12 C 0.773628 0.259434 -0.523423 0
M  V30 13 N 0.630519 1.13803 0.631039 0
M  V30 14 C -0.369988 -0.0511857 -1.21609 0
M  V30 15 S 0.18611 -1.0793 -2.44215 0
M  V30 16 C -1.76076 0.391744 -0.973102 0
M  V30 17 O -2.63417 -0.0309759 -1.74698 0
M  V30 18 O -2.03389 1.24251 0.0823992 0
M  V30 19 C -3.34375 1.67149 0.328277 0
M  V30 20 C -4.27638 0.574559 0.626272 0
M  V30 21 C -5.64144 0.811838 0.526096 0
M  V30 22 C -6.5677 -0.165182 0.800809 0
M  V30 23 C -6.15402 -1.41555 1.18586 0
M  V30 24 C -4.79579 -1.66611 1.28998 0
M  V30 25 C -3.86427 -0.672437 1.01037 0
M  V30 26 H 3.38418 -1.19064 1.84585 0
M  V30 27 H 4.72532 -0.111715 2.42481 0
M  V30 28 H 3.03182 0.255598 2.80476 0
M  V30 29 H 4.60757 1.07868 0.552993 0
M  V30 30 H 2.98052 1.61411 0.878574 0
M  V30 31 H 5.27128 -3.18564 -3.16913 0
M  V30 32 H 6.18993 -1.74331 -2.6968 0
M  V30 33 H 0.692655 2.15026 0.423398 0
M  V30 34 H 0.480183 0.788768 1.58398 0
M  V30 35 H -3.34377 2.4562 1.12423 0
M  V30 36 H -3.65227 2.23263 -0.599873 0
M  V30 37 H -5.96616 1.81511 0.216535 0
M  V30 38 H -7.61313 0.056481 0.711782 0
M  V30 39 H -6.82583 -2.22679 1.41528 0
M  V30 40 H -4.44319 -2.64775 1.5924 0
M  V30 41 H -2.80627 -0.883131 1.10033 0
M  V30 END ATOM
M  V30 BEGIN BOND
M  V30 1 1 1 2
M  V30 2 1 2 3
M  V30 3 2 3 4
M  V30 4 1 4 5
M  V30 5 3 5 6
M  V30 6 1 4 7
M  V30 7 1 7 8
M  V30 8 2 7 9
M  V30 9 1 9 10
M  V30 10 2 10 11
M  V30 11 1 11 12
M  V30 12 1 12 13
M  V30 13 2 12 14
M  V30 14 1 14 15
M  V30 15 1 14 16
M  V30 16 2 16 17
M  V30 17 1 16 18
M  V30 18 1 18 19
M  V30 19 1 19 20
M  V30 20 2 20 21
M  V30 21 1 21 22
M  V30 22 2 22 23
M  V30 23 1 23 24
M  V30 24 2 24 25
M  V30 25 1 11 3
M  V30 26 1 25 20
M  V30 27 1 15 10
M  V30 28 1 1 26
M  V30 29 1 1 27
M  V30 30 1 1 28
M  V30 31 1 2 29
M  V30 32 1 2 30
M  V30 33 1 8 31
M  V30 34 1 8 32
M  V30 35 1 13 33
M  V30 36 1 13 34
M  V30 37 1 19 35
M  V30 38 1 19 36
M  V30 39 1 21 37
M  V30 40 1 22 38
M  V30 41 1 23 39
M  V30 42 1 24 40
M  V30 43 1 25 41
M  V30 END BOND
M  V30 END CTAB
M  END
