
     RDKit          3D

  0  0  0  0  0  0  0  0  0  0999 V3000
M  V30 BEGIN CTAB
M  V30 COUNTS 33 33 0 0 0
M  V30 BEGIN ATOM
M  V30 1 N 4.33426 -0.567612 -0.581952 0
M  V30 2 C 3.09416 -0.479428 -1.30357 0
M  V30 3 C 2.53425 0.943506 -1.28114 0
M  V30 4 C 2.27755 1.392 0.133093 0
M  V30 5 C 1.28486 0.508535 0.847102 0
M  V30 6 C -0.0574331 0.493209 0.142505 0
M  V30 7 C -0.967095 -0.414871 0.936065 0
M  V30 8 C -2.32473 -0.509817 0.33679 0
M  V30 9 C -3.31327 0.422518 0.617932 0
M  V30 10 C -4.57411 0.343709 0.0680858 0
M  V30 11 N -4.87786 -0.66245 -0.77164 0
M  V30 12 C -3.95139 -1.58655 -1.07117 0
M  V30 13 C -2.68418 -1.52479 -0.531046 0
M  V30 14 N -0.974525 -0.124821 2.33288 0
M  V30 15 H 4.93205 0.282351 -0.662183 0
M  V30 16 H 4.87441 -1.40078 -0.877532 0
M  V30 17 H 2.3872 -1.20456 -0.853879 0
M  V30 18 H 3.29771 -0.789422 -2.34858 0
M  V30 19 H 1.67082 1.02157 -1.94425 0
M  V30 20 H 3.34074 1.58729 -1.68995 0
M  V30 21 H 3.23752 1.3279 0.684217 0
M  V30 22 H 1.96534 2.44358 0.152651 0
M  V30 23 H 1.65267 -0.513598 0.923518 0
M  V30 24 H 1.12239 0.940272 1.84967 0
M  V30 25 H -0.486583 1.50268 0.0201153 0
M  V30 26 H 0.13586 0.103415 -0.877812 0
M  V30 27 H -0.525717 -1.4504 0.827537 0
M  V30 28 H -3.05218 1.21788 1.28994 0
M  V30 29 H -5.35063 1.08707 0.296825 0
M  V30 30 H -4.20734 -2.38977 -1.7468 0
M  V30 31 H -1.94345 -2.27008 -0.775137 0
M  V30 32 H -1.03238 0.86979 2.581 0
M  V30 33 H -1.81892 -0.598331 2.75503 0
M  V30 END ATOM
M  V30 BEGIN BOND
M  V30 1 1 1 2
M  V30 2 1 2 3
M  V30 3 1 3 4
M  V30 4 1 4 5
M  V30 5 1 5 6
M  V30 6 1 6 7
M  V30 7 1 7 8
M  V30 8 2 8 9
M  V30 9 1 9 10
M  V30 10 2 10 11
M  V30 11 1 11 12
M  V30 12 2 12 13
M  V30 13 1 7 14
M  V30 14 1 13 8
M  V30 15 1 1 15
M  V30 16 1 1 16
M  V30 17 1 2 17
M  V30 18 1 2 18
M  V30 19 1 3 19
M  V30 20 1 3 20
M  V30 21 1 4 21
M  V30 22 1 4 22
M  V30 23 1 5 23
M  V30 24 1 5 24
M  V30 25 1 6 25
M  V30 26 1 6 26
M  V30 27 1 7 27
M  V30 28 1 9 28
M  V30 29 1 10 29
M  V30 30 1 12 30
M  V30 31 1 13 31
M  V30 32 1 14 32
M  V30 33 1 14 33
M  V30 END BOND
M  V30 END CTAB
M  END
