
     RDKit          3D

  0  0  0  0  0  0  0  0  0  0999 V3000
M  V30 BEGIN CTAB
M  V30 COUNTS 39 40 0 0 0
M  V30 BEGIN ATOM
M  V30 1 N 3.66775 3.21255 -1.97718 0
M  V30 2 C 3.06988 1.96911 -1.68158 0
M  V30 3 C 2.51255 1.11745 -2.61102 0
M  V30 4 C 1.94317 -0.104071 -2.23356 0
M  V30 5 C 1.93015 -0.479658 -0.910725 0
M  V30 6 C 2.48993 0.369653 0.0477801 0
M  V30 7 C 3.04403 1.56887 -0.359813 0
M  V30 8 N 1.42975 -1.76673 -0.46947 0
M  V30 9 C 0.332261 -1.98141 0.329028 0
M  V30 10 S 0.36594 -3.53062 1.08863 0
M  V30 11 N -0.810836 -1.29146 0.687094 0
M  V30 12 C -1.35544 -0.0607381 0.373188 0
M  V30 13 O -0.850937 0.789633 -0.4347 0
M  V30 14 C -2.64912 0.385098 0.991154 0
M  V30 15 C -3.29974 -0.390095 1.8997 0
M  V30 16 C -4.50726 0.00805096 2.48649 0
M  V30 17 C -5.01208 1.22198 2.10491 0
M  V30 18 C -4.35043 2.00919 1.18217 0
M  V30 19 C -3.15696 1.62956 0.593954 0
M  V30 20 N -2.4864 2.44735 -0.352831 0
M  V30 21 C 2.33803 -2.82495 -0.842798 0
M  V30 22 O 3.48813 -2.44446 -1.31495 0
M  V30 23 C 2.15711 -4.25775 -0.777108 0
M  V30 24 H 3.24756 4.08841 -1.62905 0
M  V30 25 H 4.52934 3.24073 -2.54497 0
M  V30 26 H 2.52532 1.42044 -3.65448 0
M  V30 27 H 1.51509 -0.748018 -2.98886 0
M  V30 28 H 2.4723 0.0596204 1.09021 0
M  V30 29 H 3.47083 2.21166 0.39721 0
M  V30 30 H -1.44092 -1.85414 1.38786 0
M  V30 31 H -2.9518 -1.35336 2.24369 0
M  V30 32 H -5.00881 -0.629054 3.21267 0
M  V30 33 H -5.94291 1.56952 2.53117 0
M  V30 34 H -4.75932 2.98253 0.878833 0
M  V30 35 H -2.59667 2.26933 -1.37049 0
M  V30 36 H -1.86925 3.24268 -0.0712574 0
M  V30 37 H 2.48122 -4.71903 0.173825 0
M  V30 38 H 2.88082 -4.7296 -1.5391 0
M  V30 39 H 1.15773 -4.64825 -1.06303 0
M  V30 END ATOM
M  V30 BEGIN BOND
M  V30 1 1 1 2
M  V30 2 2 2 3
M  V30 3 1 3 4
M  V30 4 2 4 5
M  V30 5 1 5 6
M  V30 6 2 6 7
M  V30 7 1 5 8
M  V30 8 1 8 9
M  V30 9 2 9 10
M  V30 10 1 9 11
M  V30 11 1 11 12
M  V30 12 2 12 13
M  V30 13 1 12 14
M  V30 14 2 14 15
M  V30 15 1 15 16
M  V30 16 2 16 17
M  V30 17 1 17 18
M  V30 18 2 18 19
M  V30 19 1 19 20
M  V30 20 1 8 21
M  V30 21 2 21 22
M  V30 22 1 21 23
M  V30 23 1 7 2
M  V30 24 1 19 14
M  V30 25 1 1 24
M  V30 26 1 1 25
M  V30 27 1 3 26
M  V30 28 1 4 27
M  V30 29 1 6 28
M  V30 30 1 7 29
M  V30 31 1 11 30
M  V30 32 1 15 31
M  V30 33 1 16 32
M  V30 34 1 17 33
M  V30 35 1 18 34
M  V30 36 1 20 35
M  V30 37 1 20 36
M  V30 38 1 23 37
M  V30 39 1 23 38
M  V30 40 1 23 39
M  V30 END BOND
M  V30 END CTAB
M  END
