
     RDKit          3D

  0  0  0  0  0  0  0  0  0  0999 V3000
M  V30 BEGIN CTAB
M  V30 COUNTS 32 33 0 0 0
M  V30 BEGIN ATOM
M  V30 1 C 2.67414 2.78322 -1.44719 0
M  V30 2 O 1.72884 1.74737 -1.48534 0
M  V30 3 C 2.00807 0.498577 -0.959202 0
M  V30 4 C 3.24197 0.278519 -0.388837 0
M  V30 5 C 3.49511 -0.965182 0.125052 0
M  V30 6 C 2.55896 -1.98292 0.0845901 0
M  V30 7 C 1.33579 -1.76084 -0.482135 0
M  V30 8 C 1.05462 -0.522439 -1.00553 0
M  V30 9 C 0.347498 -2.87562 -0.511826 0
M  V30 10 S -0.690007 -2.87664 0.959884 0
M  V30 11 C -1.70578 -1.39568 0.935346 0
M  V30 12 N -1.24228 -0.265905 1.50909 0
M  V30 13 C -1.98193 0.859228 1.50561 0
M  V30 14 N -1.47973 2.03647 2.11302 0
M  V30 15 C -3.24385 0.881923 0.908748 0
M  V30 16 C -3.7097 -0.284507 0.322438 0
M  V30 17 N -2.91609 -1.36907 0.364417 0
M  V30 18 N -4.99229 -0.260282 -0.284104 0
M  V30 19 H 2.21175 3.77043 -1.67329 0
M  V30 20 H 3.09622 2.87697 -0.425396 0
M  V30 21 H 3.54084 2.57386 -2.1338 0
M  V30 22 H 4.00566 1.05472 -0.337997 0
M  V30 23 H 4.46706 -1.14483 0.576421 0
M  V30 24 H 2.82239 -2.94368 0.508989 0
M  V30 25 H 0.0910746 -0.366927 -1.44542 0
M  V30 26 H 0.851176 -3.85675 -0.672962 0
M  V30 27 H -0.288807 -2.70908 -1.41807 0
M  V30 28 H -2.00589 2.52653 2.84637 0
M  V30 29 H -0.562992 2.4067 1.80815 0
M  V30 30 H -3.81278 1.7872 0.918418 0
M  V30 31 H -5.84585 -0.28431 0.275505 0
M  V30 32 H -5.0532 -0.217046 -1.32172 0
M  V30 END ATOM
M  V30 BEGIN BOND
M  V30 1 1 1 2
M  V30 2 1 2 3
M  V30 3 2 3 4
M  V30 4 1 4 5
M  V30 5 2 5 6
M  V30 6 1 6 7
M  V30 7 2 7 8
M  V30 8 1 7 9
M  V30 9 1 9 10
M  V30 10 1 10 11
M  V30 11 2 11 12
M  V30 12 1 12 13
M  V30 13 1 13 14
M  V30 14 2 13 15
M  V30 15 1 15 16
M  V30 16 2 16 17
M  V30 17 1 16 18
M  V30 18 1 8 3
M  V30 19 1 17 11
M  V30 20 1 1 19
M  V30 21 1 1 20
M  V30 22 1 1 21
M  V30 23 1 4 22
M  V30 24 1 5 23
M  V30 25 1 6 24
M  V30 26 1 8 25
M  V30 27 1 9 26
M  V30 28 1 9 27
M  V30 29 1 14 28
M  V30 30 1 14 29
M  V30 31 1 15 30
M  V30 32 1 18 31
M  V30 33 1 18 32
M  V30 END BOND
M  V30 END CTAB
M  END
