
     RDKit          3D

  0  0  0  0  0  0  0  0  0  0999 V3000
M  V30 BEGIN CTAB
M  V30 COUNTS 35 37 0 0 0
M  V30 BEGIN ATOM
M  V30 1 N -0.589777 -1.6736 -3.20415 0
M  V30 2 C 0.235358 -2.11582 -2.16459 0
M  V30 3 N 0.734892 -3.34683 -2.03063 0
M  V30 4 O 1.44966 -3.36377 -0.944603 0
M  V30 5 N 1.42424 -2.17852 -0.375793 0
M  V30 6 C 0.673291 -1.33604 -1.09366 0
M  V30 7 N 0.397121 0.0351004 -0.867908 0
M  V30 8 C -0.927723 0.567105 -0.868289 0
M  V30 9 C -1.79056 0.220984 0.275842 0
M  V30 10 C -1.42174 -0.482525 1.38541 0
M  V30 11 C -2.26914 -0.757847 2.46394 0
M  V30 12 C -3.5631 -0.299226 2.42696 0
M  V30 13 C -3.97516 0.416918 1.32196 0
M  V30 14 C -3.10696 0.679057 0.253978 0
M  V30 15 N -3.63984 1.40073 -0.828801 0 CHG=1
M  V30 16 O -3.03419 2.19073 -1.55556 0
M  V30 17 O -4.98563 1.22325 -1.12326 0 CHG=-1
M  V30 18 N 1.51651 0.887974 -0.6325 0
M  V30 19 N 2.17421 0.808414 0.447325 0
M  V30 20 C 3.30195 1.64396 0.723454 0
M  V30 21 N 3.31874 2.98552 0.797107 0
M  V30 22 O 4.52293 3.33689 1.06344 0
M  V30 23 N 5.31136 2.32544 1.1728 0
M  V30 24 C 4.5881 1.21122 0.96549 0
M  V30 25 N 5.00102 -0.149874 0.978349 0
M  V30 26 H -1.41077 -2.24753 -3.50804 0
M  V30 27 H -0.420902 -0.774103 -3.70578 0
M  V30 28 H -1.49262 0.281976 -1.78903 0
M  V30 29 H -0.806339 1.68927 -0.912008 0
M  V30 30 H -0.404939 -0.836976 1.44051 0
M  V30 31 H -1.92152 -1.31936 3.31424 0
M  V30 32 H -4.23335 -0.502888 3.25335 0
M  V30 33 H -4.99889 0.76947 1.31295 0
M  V30 34 H 5.7557 -0.429657 1.64927 0
M  V30 35 H 4.58808 -0.859455 0.358207 0
M  V30 END ATOM
M  V30 BEGIN BOND
M  V30 1 1 1 2
M  V30 2 2 2 3
M  V30 3 1 3 4
M  V30 4 1 4 5
M  V30 5 2 5 6
M  V30 6 1 6 7
M  V30 7 1 7 8
M  V30 8 1 8 9
M  V30 9 2 9 10
M  V30 10 1 10 11
M  V30 11 2 11 12
M  V30 12 1 12 13
M  V30 13 2 13 14
M  V30 14 1 14 15
M  V30 15 2 15 16
M  V30 16 1 15 17
M  V30 17 1 7 18
M  V30 18 2 18 19
M  V30 19 1 19 20
M  V30 20 2 20 21
M  V30 21 1 21 22
M  V30 22 1 22 23
M  V30 23 2 23 24
M  V30 24 1 24 25
M  V30 25 1 6 2
M  V30 26 1 14 9
M  V30 27 1 24 20
M  V30 28 1 1 26
M  V30 29 1 1 27
M  V30 30 1 8 28
M  V30 31 1 8 29
M  V30 32 1 10 30
M  V30 33 1 11 31
M  V30 34 1 12 32
M  V30 35 1 13 33
M  V30 36 1 25 34
M  V30 37 1 25 35
M  V30 END BOND
M  V30 END CTAB
M  END
