
     RDKit          3D

  0  0  0  0  0  0  0  0  0  0999 V3000
M  V30 BEGIN CTAB
M  V30 COUNTS 26 27 0 0 0
M  V30 BEGIN ATOM
M  V30 1 N 4.3252 -0.144917 0.568812 0
M  V30 2 C 2.91656 -0.120148 0.34577 0
M  V30 3 C 2.35678 0.473734 -0.752449 0
M  V30 4 C 0.958436 0.467434 -0.921345 0
M  V30 5 C 0.107178 -0.115798 -0.0194346 0
M  V30 6 C 0.69133 -0.710544 1.08345 0
M  V30 7 C 2.08057 -0.712825 1.26335 0
M  V30 8 C -1.34696 -0.0364364 -0.173907 0
M  V30 9 C -2.27733 -0.874113 0.451304 0
M  V30 10 N -2.0397 -2.00844 1.2575 0
M  V30 11 C -3.54342 -0.397972 0.103022 0
M  V30 12 N -3.33944 0.640478 -0.668919 0
M  V30 13 N -2.03748 0.889715 -0.858094 0
M  V30 14 C -1.61629 2.03444 -1.66121 0
M  V30 15 H 4.78148 -1.03642 0.862425 0
M  V30 16 H 4.93574 0.693544 0.4527 0
M  V30 17 H 2.95904 0.953424 -1.50373 0
M  V30 18 H 0.613819 0.922021 -1.83171 0
M  V30 19 H 0.05916 -1.15918 1.819 0
M  V30 20 H 2.44876 -1.20646 2.16242 0
M  V30 21 H -2.17865 -1.94892 2.27913 0
M  V30 22 H -1.72869 -2.89041 0.822416 0
M  V30 23 H -4.47581 -0.843383 0.437648 0
M  V30 24 H -0.829711 2.56236 -1.12517 0
M  V30 25 H -1.34832 1.79442 -2.68559 0
M  V30 26 H -2.47225 2.7744 -1.7074 0
M  V30 END ATOM
M  V30 BEGIN BOND
M  V30 1 1 1 2
M  V30 2 2 2 3
M  V30 3 1 3 4
M  V30 4 2 4 5
M  V30 5 1 5 6
M  V30 6 2 6 7
M  V30 7 1 5 8
M  V30 8 2 8 9
M  V30 9 1 9 10
M  V30 10 1 9 11
M  V30 11 2 11 12
M  V30 12 1 12 13
M  V30 13 1 13 14
M  V30 14 1 7 2
M  V30 15 1 13 8
M  V30 16 1 1 15
M  V30 17 1 1 16
M  V30 18 1 3 17
M  V30 19 1 4 18
M  V30 20 1 6 19
M  V30 21 1 7 20
M  V30 22 1 10 21
M  V30 23 1 10 22
M  V30 24 1 11 23
M  V30 25 1 14 24
M  V30 26 1 14 25
M  V30 27 1 14 26
M  V30 END BOND
M  V30 END CTAB
M  END
