
     RDKit          3D

  0  0  0  0  0  0  0  0  0  0999 V3000
M  V30 BEGIN CTAB
M  V30 COUNTS 26 26 0 0 0
M  V30 BEGIN ATOM
M  V30 1 N -0.13086 -1.33359 1.45381 0
M  V30 2 C 0.199735 -0.216273 0.633227 0 CFG=1
M  V30 3 C 1.5918 -0.440367 0.163116 0
M  V30 4 O 2.13949 -1.53523 -0.306366 0
M  V30 5 N 3.38491 -1.32937 -0.612227 0
M  V30 6 C 3.71248 -0.0415477 -0.344053 0
M  V30 7 N 2.57204 0.485696 0.138286 0
M  V30 8 N 4.95042 0.611506 -0.521339 0
M  V30 9 C -0.692389 -0.146298 -0.567 0
M  V30 10 C -2.14816 -0.00827101 -0.232303 0
M  V30 11 C -2.90802 0.048332 -1.55609 0
M  V30 12 C -2.49092 1.21109 0.548568 0
M  V30 13 H 0.0859749 -1.24425 2.40719 0
M  V30 14 H -0.770418 -1.96206 1.0979 0
M  V30 15 H 0.191924 0.723015 1.20916 0
M  V30 16 H 5.08049 1.31922 -1.26059 0
M  V30 17 H 5.7408 0.377331 0.0996478 0
M  V30 18 H -0.573075 -1.09721 -1.13065 0
M  V30 19 H -0.340212 0.666033 -1.22908 0
M  V30 20 H -2.50531 -0.918069 0.28875 0
M  V30 21 H -3.98266 0.201319 -1.30312 0
M  V30 22 H -2.49342 0.895527 -2.14527 0
M  V30 23 H -2.71682 -0.871453 -2.12352 0
M  V30 24 H -2.50182 2.12772 -0.10992 0
M  V30 25 H -1.86129 1.37207 1.44082 0
M  V30 26 H -3.5347 1.10515 0.911766 0
M  V30 END ATOM
M  V30 BEGIN BOND
M  V30 1 1 1 2
M  V30 2 1 2 3
M  V30 3 1 3 4
M  V30 4 1 4 5
M  V30 5 2 5 6
M  V30 6 1 6 7
M  V30 7 1 6 8
M  V30 8 1 2 9
M  V30 9 1 9 10
M  V30 10 1 10 11
M  V30 11 1 10 12
M  V30 12 2 7 3
M  V30 13 1 1 13
M  V30 14 1 1 14
M  V30 15 1 2 15 CFG=1
M  V30 16 1 8 16
M  V30 17 1 8 17
M  V30 18 1 9 18
M  V30 19 1 9 19
M  V30 20 1 10 20
M  V30 21 1 11 21
M  V30 22 1 11 22
M  V30 23 1 11 23
M  V30 24 1 12 24
M  V30 25 1 12 25
M  V30 26 1 12 26
M  V30 END BOND
M  V30 END CTAB
M  END
