
     RDKit          3D

  0  0  0  0  0  0  0  0  0  0999 V3000
M  V30 BEGIN CTAB
M  V30 COUNTS 25 24 0 0 0
M  V30 BEGIN ATOM
M  V30 1 C -2.40834 3.05347 -0.204215 0
M  V30 2 C -2.2647 1.88501 0.0887924 0
M  V30 3 C -2.0746 0.484494 0.443466 0
M  V30 4 C -0.724225 0.0277201 -0.0439128 0
M  V30 5 N 0.352895 0.783538 0.533005 0
M  V30 6 C 1.69058 0.499087 0.194453 0
M  V30 7 N 2.63675 0.737536 1.05017 0
M  V30 8 N 3.97132 0.493227 0.810743 0
M  V30 9 N 2.06449 -0.0443767 -1.05586 0
M  V30 10 C -0.570858 -1.41782 0.450999 0
M  V30 11 C -1.70267 -2.25305 -0.146177 0
M  V30 12 H -2.53531 4.07431 -0.472555 0
M  V30 13 H -2.84753 -0.102958 -0.0948668 0
M  V30 14 H -2.16227 0.308265 1.53327 0
M  V30 15 H -0.683943 -0.0183578 -1.14636 0
M  V30 16 H 0.142979 1.54026 1.20038 0
M  V30 17 H 4.59645 0.24007 1.59929 0
M  V30 18 H 4.38854 0.55134 -0.137395 0
M  V30 19 H 2.13835 0.610979 -1.8735 0
M  V30 20 H 2.27204 -1.03601 -1.23373 0
M  V30 21 H -0.732326 -1.37823 1.54829 0
M  V30 22 H 0.412198 -1.80311 0.155953 0
M  V30 23 H -1.96682 -1.76038 -1.11794 0
M  V30 24 H -1.38676 -3.30201 -0.28862 0
M  V30 25 H -2.60624 -2.17302 0.517791 0
M  V30 END ATOM
M  V30 BEGIN BOND
M  V30 1 3 1 2
M  V30 2 1 2 3
M  V30 3 1 3 4
M  V30 4 1 4 5
M  V30 5 1 5 6
M  V30 6 2 6 7 CFG=2
M  V30 7 1 7 8
M  V30 8 1 6 9
M  V30 9 1 4 10
M  V30 10 1 10 11
M  V30 11 1 1 12
M  V30 12 1 3 13
M  V30 13 1 3 14
M  V30 14 1 4 15
M  V30 15 1 5 16
M  V30 16 1 8 17
M  V30 17 1 8 18
M  V30 18 1 9 19
M  V30 19 1 9 20
M  V30 20 1 10 21
M  V30 21 1 10 22
M  V30 22 1 11 23
M  V30 23 1 11 24
M  V30 24 1 11 25
M  V30 END BOND
M  V30 END CTAB
M  END
