
     RDKit          3D

  0  0  0  0  0  0  0  0  0  0999 V3000
M  V30 BEGIN CTAB
M  V30 COUNTS 43 46 0 0 0
M  V30 BEGIN ATOM
M  V30 1 N 6.78355 0.633763 -2.02081 0
M  V30 2 C 5.72226 0.34423 -1.14622 0
M  V30 3 N 4.42585 0.621073 -1.45059 0
M  V30 4 C 3.43916 0.330579 -0.59037 0
M  V30 5 C 2.03603 0.617813 -0.893873 0
M  V30 6 S 1.18413 -0.722952 -1.72144 0
M  V30 7 C -0.496634 -0.227222 -2.02183 0
M  V30 8 N -0.970632 0.42734 -3.09666 0
M  V30 9 N -2.27399 0.617494 -2.98619 0
M  V30 10 C -2.66562 0.068208 -1.79806 0
M  V30 11 N -1.55837 -0.441436 -1.22958 0
M  V30 12 C -1.50607 -1.12482 0.0151654 0
M  V30 13 C -0.95795 -0.615682 1.1699 0
M  V30 14 C -0.944644 -1.34526 2.34117 0
M  V30 15 C -1.4851 -2.62519 2.40133 0
M  V30 16 C -2.03177 -3.144 1.26729 0
M  V30 17 C -2.03884 -2.4166 0.121112 0
M  V30 18 C -4.03721 0.0236315 -1.24106 0
M  V30 19 C -4.27849 1.34975 -0.551902 0
M  V30 20 C -4.08104 1.64555 0.770029 0
M  V30 21 C -4.36122 2.90153 1.16767 0
M  V30 22 C -4.81788 3.77058 0.217207 0
M  V30 23 S -4.84502 2.82203 -1.19623 0
M  V30 24 N 3.7736 -0.240577 0.576766 0
M  V30 25 C 5.05001 -0.526711 0.905938 0
M  V30 26 N 6.02222 -0.232384 0.0407562 0
M  V30 27 N 5.40124 -1.1332 2.14614 0
M  V30 28 H 7.33728 -0.0683699 -2.54681 0
M  V30 29 H 7.06659 1.644 -2.17819 0
M  V30 30 H 1.50014 0.923136 0.00819502 0
M  V30 31 H 2.01517 1.49601 -1.58976 0
M  V30 32 H -0.532862 0.376556 1.14871 0
M  V30 33 H -0.519402 -0.965351 3.2603 0
M  V30 34 H -1.48782 -3.21176 3.29581 0
M  V30 35 H -2.45766 -4.14975 1.31033 0
M  V30 36 H -2.47039 -2.82067 -0.781856 0
M  V30 37 H -4.09591 -0.734853 -0.425726 0
M  V30 38 H -4.82009 -0.156159 -1.99683 0
M  V30 39 H -3.70396 0.882095 1.49966 0
M  V30 40 H -4.24276 3.26712 2.21615 0
M  V30 41 H -5.09485 4.83111 0.363882 0
M  V30 42 H 4.76835 -0.978491 2.96016 0
M  V30 43 H 6.25062 -1.71215 2.26032 0
M  V30 END ATOM
M  V30 BEGIN BOND
M  V30 1 1 1 2
M  V30 2 2 2 3
M  V30 3 1 3 4
M  V30 4 1 4 5
M  V30 5 1 5 6
M  V30 6 1 6 7
M  V30 7 2 7 8
M  V30 8 1 8 9
M  V30 9 2 9 10
M  V30 10 1 10 11
M  V30 11 1 11 12
M  V30 12 2 12 13
M  V30 13 1 13 14
M  V30 14 2 14 15
M  V30 15 1 15 16
M  V30 16 2 16 17
M  V30 17 1 10 18
M  V30 18 1 18 19
M  V30 19 2 19 20
M  V30 20 1 20 21
M  V30 21 2 21 22
M  V30 22 1 22 23
M  V30 23 2 4 24
M  V30 24 1 24 25
M  V30 25 2 25 26
M  V30 26 1 25 27
M  V30 27 1 26 2
M  V30 28 1 11 7
M  V30 29 1 17 12
M  V30 30 1 23 19
M  V30 31 1 1 28
M  V30 32 1 1 29
M  V30 33 1 5 30
M  V30 34 1 5 31
M  V30 35 1 13 32
M  V30 36 1 14 33
M  V30 37 1 15 34
M  V30 38 1 16 35
M  V30 39 1 17 36
M  V30 40 1 18 37
M  V30 41 1 18 38
M  V30 42 1 20 39
M  V30 43 1 21 40
M  V30 44 1 22 41
M  V30 45 1 27 42
M  V30 46 1 27 43
M  V30 END BOND
M  V30 END CTAB
M  END
