
     RDKit          3D

  0  0  0  0  0  0  0  0  0  0999 V3000
M  V30 BEGIN CTAB
M  V30 COUNTS 29 29 0 0 0
M  V30 BEGIN ATOM
M  V30 1 C 5.19037 -0.133114 -0.090135 0
M  V30 2 C 3.77308 0.248688 0.179206 0
M  V30 3 C 2.77722 -0.725195 -0.38849 0
M  V30 4 C 1.38086 -0.203297 -0.0342987 0
M  V30 5 O 0.421813 -1.09673 -0.553909 0
M  V30 6 C -0.928862 -0.850641 -0.368974 0
M  V30 7 C -1.42018 0.242561 0.30992 0
M  V30 8 C -2.76751 0.475174 0.48656 0
M  V30 9 N -3.21233 1.62545 1.19903 0
M  V30 10 C -3.65249 -0.437593 -0.0467398 0
M  V30 11 C -3.19498 -1.54388 -0.732734 0
M  V30 12 C -1.82064 -1.75445 -0.89664 0
M  V30 13 Br -1.15609 -3.2658 -1.83485 0
M  V30 14 N -5.05742 -0.260001 0.0978668 0
M  V30 15 H 5.5111 0.0715355 -1.12524 0
M  V30 16 H 5.42487 -1.18016 0.20166 0
M  V30 17 H 5.8355 0.509357 0.578294 0
M  V30 18 H 3.63151 0.309465 1.27827 0
M  V30 19 H 3.57651 1.23202 -0.266714 0
M  V30 20 H 2.84732 -0.714073 -1.49387 0
M  V30 21 H 2.89721 -1.75283 -0.033807 0
M  V30 22 H 1.25327 0.834306 -0.392474 0
M  V30 23 H 1.24052 -0.181183 1.06851 0
M  V30 24 H -0.696995 0.959814 0.72827 0
M  V30 25 H -3.03101 1.77682 2.21881 0
M  V30 26 H -3.75568 2.39474 0.726252 0
M  V30 27 H -3.87649 -2.26847 -1.15664 0
M  V30 28 H -5.46067 -0.0904218 1.04379 0
M  V30 29 H -5.72982 -0.288835 -0.70094 0
M  V30 END ATOM
M  V30 BEGIN BOND
M  V30 1 1 1 2
M  V30 2 1 2 3
M  V30 3 1 3 4
M  V30 4 1 4 5
M  V30 5 1 5 6
M  V30 6 2 6 7
M  V30 7 1 7 8
M  V30 8 1 8 9
M  V30 9 2 8 10
M  V30 10 1 10 11
M  V30 11 2 11 12
M  V30 12 1 12 13
M  V30 13 1 10 14
M  V30 14 1 12 6
M  V30 15 1 1 15
M  V30 16 1 1 16
M  V30 17 1 1 17
M  V30 18 1 2 18
M  V30 19 1 2 19
M  V30 20 1 3 20
M  V30 21 1 3 21
M  V30 22 1 4 22
M  V30 23 1 4 23
M  V30 24 1 7 24
M  V30 25 1 9 25
M  V30 26 1 9 26
M  V30 27 1 11 27
M  V30 28 1 14 28
M  V30 29 1 14 29
M  V30 END BOND
M  V30 END CTAB
M  END
