
     RDKit          3D

  0  0  0  0  0  0  0  0  0  0999 V3000
M  V30 BEGIN CTAB
M  V30 COUNTS 60 62 0 0 0
M  V30 BEGIN ATOM
M  V30 1 C -5.14558 -2.9474 1.63662 0
M  V30 2 C -5.43029 -3.0018 0.144478 0
M  V30 3 C -5.99591 -4.35261 -0.201492 0
M  V30 4 N -4.23645 -2.7815 -0.609814 0
M  V30 5 C -3.46262 -1.58587 -0.609141 0
M  V30 6 C -2.30501 -1.50966 -1.33948 0
M  V30 7 F -1.88827 -2.58888 -2.0584 0
M  V30 8 C -1.57596 -0.325479 -1.33023 0
M  V30 9 C -0.331815 -0.335317 -2.09897 0
M  V30 10 C 0.765565 -1.05952 -1.38034 0
M  V30 11 O 0.560902 -1.55419 -0.246064 0
M  V30 12 N 2.04365 -1.19716 -1.96304 0
M  V30 13 C 3.17061 -1.86964 -1.3463 0
M  V30 14 C 3.80917 -1.04699 -0.313276 0
M  V30 15 C 4.67824 -0.0552807 -0.708051 0
M  V30 16 C 5.30217 0.750382 0.216964 0
M  V30 17 C 5.05887 0.568655 1.56715 0
M  V30 18 C 4.19148 -0.421446 1.96955 0
M  V30 19 C 3.56505 -1.23138 1.02568 0
M  V30 20 C 5.72248 1.42934 2.52617 0
M  V30 21 N 6.61795 2.45285 2.07807 0
M  V30 22 N 5.53014 1.30198 3.76594 0
M  V30 23 C -1.9567 0.781735 -0.623729 0
M  V30 24 C -3.14721 0.679179 0.118311 0
M  V30 25 C -3.88315 -0.485628 0.122197 0
M  V30 26 C -1.26497 2.06178 -0.595074 0
M  V30 27 C -0.983736 2.8723 -1.64015 0
M  V30 28 C -0.314406 4.05481 -1.49293 0
M  V30 29 N -0.0169934 4.8984 -2.58731 0
M  V30 30 C 0.116316 4.48971 -0.241713 0
M  V30 31 C -0.153888 3.68891 0.843877 0
M  V30 32 C -0.828204 2.505 0.666009 0
M  V30 33 H -5.19593 -3.95149 2.0941 0
M  V30 34 H -5.90622 -2.31676 2.14935 0
M  V30 35 H -4.12978 -2.54712 1.81253 0
M  V30 36 H -6.16102 -2.17662 -0.0811028 0
M  V30 37 H -5.73647 -4.62188 -1.24379 0
M  V30 38 H -7.09142 -4.41929 -0.0329194 0
M  V30 39 H -5.42895 -5.09823 0.427219 0
M  V30 40 H -3.88566 -3.57184 -1.23084 0
M  V30 41 H -0.499813 -0.958308 -3.02545 0
M  V30 42 H 0.0189481 0.654452 -2.31385 0
M  V30 43 H 2.23836 -0.792326 -2.92545 0
M  V30 44 H 2.72359 -2.79858 -0.881457 0
M  V30 45 H 3.87592 -2.2546 -2.11406 0
M  V30 46 H 4.88684 0.108679 -1.76037 0
M  V30 47 H 5.98726 1.53458 -0.0656799 0
M  V30 48 H 3.9624 -0.609267 3.02639 0
M  V30 49 H 2.88771 -2.00389 1.39816 0
M  V30 50 H 6.49961 3.42518 2.41919 0
M  V30 51 H 7.3805 2.17151 1.40255 0
M  V30 52 H 4.93212 0.635879 4.26825 0
M  V30 53 H -3.45395 1.54668 0.678398 0
M  V30 54 H -4.79887 -0.500168 0.715201 0
M  V30 55 H -1.30449 2.57897 -2.61664 0
M  V30 56 H -0.784126 5.26774 -3.16932 0
M  V30 57 H 0.9618 5.14749 -2.80848 0
M  V30 58 H 0.647227 5.43656 -0.151437 0
M  V30 59 H 0.176625 4.01535 1.83123 0
M  V30 60 H -1.01367 1.91201 1.56345 0
M  V30 END ATOM
M  V30 BEGIN BOND
M  V30 1 1 1 2
M  V30 2 1 2 3
M  V30 3 1 2 4
M  V30 4 1 4 5
M  V30 5 2 5 6
M  V30 6 1 6 7
M  V30 7 1 6 8
M  V30 8 1 8 9
M  V30 9 1 9 10
M  V30 10 2 10 11
M  V30 11 1 10 12
M  V30 12 1 12 13
M  V30 13 1 13 14
M  V30 14 2 14 15
M  V30 15 1 15 16
M  V30 16 2 16 17
M  V30 17 1 17 18
M  V30 18 2 18 19
M  V30 19 1 17 20
M  V30 20 1 20 21
M  V30 21 2 20 22 CFG=2
M  V30 22 2 8 23
M  V30 23 1 23 24
M  V30 24 2 24 25
M  V30 25 1 23 26
M  V30 26 2 26 27
M  V30 27 1 27 28
M  V30 28 1 28 29
M  V30 29 2 28 30
M  V30 30 1 30 31
M  V30 31 2 31 32
M  V30 32 1 25 5
M  V30 33 1 32 26
M  V30 34 1 19 14
M  V30 35 1 1 33
M  V30 36 1 1 34
M  V30 37 1 1 35
M  V30 38 1 2 36
M  V30 39 1 3 37
M  V30 40 1 3 38
M  V30 41 1 3 39
M  V30 42 1 4 40
M  V30 43 1 9 41
M  V30 44 1 9 42
M  V30 45 1 12 43
M  V30 46 1 13 44
M  V30 47 1 13 45
M  V30 48 1 15 46
M  V30 49 1 16 47
M  V30 50 1 18 48
M  V30 51 1 19 49
M  V30 52 1 21 50
M  V30 53 1 21 51
M  V30 54 1 22 52
M  V30 55 1 24 53
M  V30 56 1 25 54
M  V30 57 1 27 55
M  V30 58 1 29 56
M  V30 59 1 29 57
M  V30 60 1 30 58
M  V30 61 1 31 59
M  V30 62 1 32 60
M  V30 END BOND
M  V30 END CTAB
M  END
