
     RDKit          3D

  0  0  0  0  0  0  0  0  0  0999 V3000
M  V30 BEGIN CTAB
M  V30 COUNTS 39 41 0 0 0
M  V30 BEGIN ATOM
M  V30 1 N -5.36506 1.97387 0.654003 0
M  V30 2 C -4.69859 0.750435 0.789751 0 CFG=2
M  V30 3 C -3.24104 0.880615 1.24468 0
M  V30 4 C -2.93584 -0.300972 0.315246 0 CFG=1
M  V30 5 C -4.14974 0.134077 -0.500387 0
M  V30 6 C -1.67751 -0.0509377 -0.391357 0
M  V30 7 C -0.666096 -1.01531 -0.457938 0
M  V30 8 C 0.505408 -0.760896 -1.12505 0
M  V30 9 N 1.50878 -1.72138 -1.19116 0
M  V30 10 C 2.77755 -1.56185 -1.86073 0
M  V30 11 C 3.61706 -0.435587 -1.30764 0
M  V30 12 C 3.93202 -0.637522 0.129682 0
M  V30 13 N 3.17076 -0.190608 1.14468 0
M  V30 14 C 3.72027 -0.530807 2.32227 0
M  V30 15 C 4.86989 -1.21725 2.04283 0
M  V30 16 N 4.98353 -1.2729 0.689605 0
M  V30 17 N 0.664061 0.430282 -1.71303 0
M  V30 18 C -0.294546 1.39136 -1.67017 0
M  V30 19 N -1.44506 1.12089 -1.00614 0
M  V30 20 N -0.0826858 2.64297 -2.30948 0
M  V30 21 H -6.33826 1.96179 0.876393 0
M  V30 22 H -4.86476 2.76608 0.992026 0
M  V30 23 H -5.19652 0.00988696 1.45844 0
M  V30 24 H -3.07369 0.662524 2.30706 0
M  V30 25 H -2.82886 1.82423 0.851731 0
M  V30 26 H -3.06246 -1.26991 0.792251 0
M  V30 27 H -3.91637 0.947952 -1.2027 0
M  V30 28 H -4.76635 -0.692828 -0.888054 0
M  V30 29 H -0.87873 -1.95955 0.0494989 0
M  V30 30 H 1.35382 -2.65538 -0.719263 0
M  V30 31 H 2.54489 -1.35879 -2.92891 0
M  V30 32 H 3.37907 -2.49241 -1.8588 0
M  V30 33 H 4.61036 -0.523381 -1.83982 0
M  V30 34 H 3.23875 0.554124 -1.55378 0
M  V30 35 H 3.26156 -0.264594 3.26693 0
M  V30 36 H 5.53127 -1.62062 2.79757 0
M  V30 37 H 5.76362 -1.73566 0.171174 0
M  V30 38 H -0.789089 3.10888 -2.89323 0
M  V30 39 H 0.838596 3.10915 -2.17667 0
M  V30 END ATOM
M  V30 BEGIN BOND
M  V30 1 1 1 2
M  V30 2 1 2 3
M  V30 3 1 3 4
M  V30 4 1 4 5
M  V30 5 1 4 6
M  V30 6 2 6 7
M  V30 7 1 7 8
M  V30 8 1 8 9
M  V30 9 1 9 10
M  V30 10 1 10 11
M  V30 11 1 11 12
M  V30 12 2 12 13
M  V30 13 1 13 14
M  V30 14 2 14 15
M  V30 15 1 15 16
M  V30 16 2 8 17
M  V30 17 1 17 18
M  V30 18 2 18 19
M  V30 19 1 18 20
M  V30 20 1 5 2
M  V30 21 1 19 6
M  V30 22 1 16 12
M  V30 23 1 1 21
M  V30 24 1 1 22
M  V30 25 1 2 23 CFG=1
M  V30 26 1 3 24
M  V30 27 1 3 25
M  V30 28 1 4 26 CFG=1
M  V30 29 1 5 27
M  V30 30 1 5 28
M  V30 31 1 7 29
M  V30 32 1 9 30
M  V30 33 1 10 31
M  V30 34 1 10 32
M  V30 35 1 11 33
M  V30 36 1 11 34
M  V30 37 1 14 35
M  V30 38 1 15 36
M  V30 39 1 16 37
M  V30 40 1 20 38
M  V30 41 1 20 39
M  V30 END BOND
M  V30 END CTAB
M  END
