
     RDKit          3D

  0  0  0  0  0  0  0  0  0  0999 V3000
M  V30 BEGIN CTAB
M  V30 COUNTS 21 21 0 0 0
M  V30 BEGIN ATOM
M  V30 1 C -3.47973 -1.1512 -0.249165 0
M  V30 2 O -2.05586 -0.960952 -0.22088 0
M  V30 3 C -1.46087 0.255768 -0.0849869 0
M  V30 4 O -2.1484 1.28921 0.0241296 0
M  V30 5 C -0.00221295 0.360154 -0.0658865 0
M  V30 6 C 0.811255 -0.74342 -0.181954 0
M  V30 7 C 2.16787 -0.656552 -0.165281 0
M  V30 8 N 2.94764 -1.86092 -0.292526 0
M  V30 9 C 2.75153 0.573226 -0.0280344 0
M  V30 10 N 1.95605 1.65806 0.0860801 0
M  V30 11 C 0.628308 1.58718 0.0713031 0
M  V30 12 N -0.22415 2.72112 0.190472 0
M  V30 13 H -4.01674 -0.240197 -0.513354 0
M  V30 14 H -3.63863 -1.87568 -1.09769 0
M  V30 15 H -3.79538 -1.60925 0.709194 0
M  V30 16 H 0.335386 -1.70532 -0.289411 0
M  V30 17 H 3.90325 -1.75959 -0.660016 0
M  V30 18 H 2.54312 -2.76508 -0.0214612 0
M  V30 19 H 3.83192 0.636209 -0.0154259 0
M  V30 20 H -0.493503 3.10276 1.12133 0
M  V30 21 H -0.560863 3.14449 -0.700885 0
M  V30 END ATOM
M  V30 BEGIN BOND
M  V30 1 1 1 2
M  V30 2 1 2 3
M  V30 3 2 3 4
M  V30 4 1 3 5
M  V30 5 2 5 6
M  V30 6 1 6 7
M  V30 7 1 7 8
M  V30 8 2 7 9
M  V30 9 1 9 10
M  V30 10 2 10 11
M  V30 11 1 11 12
M  V30 12 1 11 5
M  V30 13 1 1 13
M  V30 14 1 1 14
M  V30 15 1 1 15
M  V30 16 1 6 16
M  V30 17 1 8 17
M  V30 18 1 8 18
M  V30 19 1 9 19
M  V30 20 1 12 20
M  V30 21 1 12 21
M  V30 END BOND
M  V30 END CTAB
M  END
