
     RDKit          3D

  0  0  0  0  0  0  0  0  0  0999 V3000
M  V30 BEGIN CTAB
M  V30 COUNTS 22 23 0 0 0
M  V30 BEGIN ATOM
M  V30 1 Br -4.11585 1.77941 0.860476 0
M  V30 2 C -2.91074 0.525561 0.0858866 0
M  V30 3 C -3.3274 -0.519352 -0.712171 0
M  V30 4 C -2.41047 -1.40543 -1.25256 0
M  V30 5 C -1.06059 -1.26413 -1.00578 0
M  V30 6 C -0.641628 -0.230741 -0.215781 0
M  V30 7 C -1.56541 0.646157 0.317257 0
M  V30 8 N -1.11402 1.73299 1.14931 0
M  V30 9 C 0.778687 -0.0328928 0.0792368 0
M  V30 10 N 1.31675 0.938515 0.837343 0
M  V30 11 N 2.63243 0.807155 0.883763 0
M  V30 12 C 2.96033 -0.268009 0.143735 0
M  V30 13 N 1.80164 -0.779826 -0.349577 0
M  V30 14 N 4.27066 -0.783899 -0.0877027 0
M  V30 15 H -4.39538 -0.616817 -0.8971 0
M  V30 16 H -2.80812 -2.20713 -1.87326 0
M  V30 17 H -0.345168 -1.9661 -1.43504 0
M  V30 18 H -0.762079 2.56639 0.660126 0
M  V30 19 H -1.16933 1.61387 2.18017 0
M  V30 20 H 3.33362 1.40936 1.39317 0
M  V30 21 H 4.58874 -1.1454 -1.01364 0
M  V30 22 H 4.94333 -0.799694 0.71036 0
M  V30 END ATOM
M  V30 BEGIN BOND
M  V30 1 1 1 2
M  V30 2 2 2 3
M  V30 3 1 3 4
M  V30 4 2 4 5
M  V30 5 1 5 6
M  V30 6 2 6 7
M  V30 7 1 7 8
M  V30 8 1 6 9
M  V30 9 2 9 10
M  V30 10 1 10 11
M  V30 11 1 11 12
M  V30 12 2 12 13
M  V30 13 1 12 14
M  V30 14 1 7 2
M  V30 15 1 13 9
M  V30 16 1 3 15
M  V30 17 1 4 16
M  V30 18 1 5 17
M  V30 19 1 8 18
M  V30 20 1 8 19
M  V30 21 1 11 20
M  V30 22 1 14 21
M  V30 23 1 14 22
M  V30 END BOND
M  V30 END CTAB
M  END
