
     RDKit          3D

  0  0  0  0  0  0  0  0  0  0999 V3000
M  V30 BEGIN CTAB
M  V30 COUNTS 19 19 0 0 0
M  V30 BEGIN ATOM
M  V30 1 C -1.7833 -0.78192 1.39235 0
M  V30 2 C -0.690962 -0.467801 0.443289 0
M  V30 3 C 0.267024 -1.42286 0.159942 0
M  V30 4 C 1.29024 -1.12488 -0.730692 0
M  V30 5 I 2.72361 -2.60758 -1.13069 0
M  V30 6 C 1.39483 0.100455 -1.35477 0
M  V30 7 C 0.418315 1.04231 -1.05181 0
M  V30 8 C -0.617128 0.768075 -0.162719 0
M  V30 9 N -1.60159 1.7503 0.128123 0
M  V30 10 N 2.44595 0.398027 -2.26576 0
M  V30 11 H -2.70294 -1.05619 0.801269 0
M  V30 12 H -2.0297 0.103194 2.04416 0
M  V30 13 H -1.5058 -1.58915 2.10153 0
M  V30 14 H 0.174386 -2.38003 0.655558 0
M  V30 15 H 0.457742 2.01193 -1.51356 0
M  V30 16 H -2.48969 1.47135 0.592577 0
M  V30 17 H -1.4392 2.76556 -0.124074 0
M  V30 18 H 2.2606 0.499763 -3.27834 0
M  V30 19 H 3.42763 0.519459 -1.92601 0
M  V30 END ATOM
M  V30 BEGIN BOND
M  V30 1 1 1 2
M  V30 2 2 2 3
M  V30 3 1 3 4
M  V30 4 1 4 5
M  V30 5 2 4 6
M  V30 6 1 6 7
M  V30 7 2 7 8
M  V30 8 1 8 9
M  V30 9 1 6 10
M  V30 10 1 8 2
M  V30 11 1 1 11
M  V30 12 1 1 12
M  V30 13 1 1 13
M  V30 14 1 3 14
M  V30 15 1 7 15
M  V30 16 1 9 16
M  V30 17 1 9 17
M  V30 18 1 10 18
M  V30 19 1 10 19
M  V30 END BOND
M  V30 END CTAB
M  END
