
     RDKit          3D

  0  0  0  0  0  0  0  0  0  0999 V3000
M  V30 BEGIN CTAB
M  V30 COUNTS 24 24 0 0 0
M  V30 BEGIN ATOM
M  V30 1 C -2.29123 -2.15349 -0.654552 0
M  V30 2 O -2.42277 -0.858111 -0.0982361 0
M  V30 3 C -1.27199 -0.114698 0.089404 0
M  V30 4 C -0.00355211 -0.580936 -0.241908 0
M  V30 5 C 1.13494 0.156797 -0.0553256 0
M  V30 6 O 2.39436 -0.266975 -0.367902 0
M  V30 7 C 2.71755 -1.50635 -0.92139 0
M  V30 8 F 3.57789 -2.13122 -0.0274612 0
M  V30 9 F 3.33872 -1.31064 -2.14489 0
M  V30 10 C 1.01473 1.44438 0.496521 0
M  V30 11 C -0.227711 1.93056 0.833391 0
M  V30 12 C -1.35355 1.14814 0.626742 0
M  V30 13 N -2.63675 1.64304 0.971599 0
M  V30 14 N 2.17922 2.21038 0.692143 0
M  V30 15 H -1.55249 -2.69865 -0.0509279 0
M  V30 16 H -3.26179 -2.68404 -0.71182 0
M  V30 17 H -1.8695 -2.0394 -1.67649 0
M  V30 18 H 0.0350915 -1.5718 -0.660803 0
M  V30 19 H 1.86671 -2.16173 -1.10437 0
M  V30 20 H -0.343019 2.93604 1.26663 0
M  V30 21 H -3.26479 1.0535 1.54726 0
M  V30 22 H -2.97434 2.57564 0.669817 0
M  V30 23 H 2.96794 2.12696 0.0283894 0
M  V30 24 H 2.24632 2.85261 1.49418 0
M  V30 END ATOM
M  V30 BEGIN BOND
M  V30 1 1 1 2
M  V30 2 1 2 3
M  V30 3 2 3 4
M  V30 4 1 4 5
M  V30 5 1 5 6
M  V30 6 1 6 7
M  V30 7 1 7 8
M  V30 8 1 7 9
M  V30 9 2 5 10
M  V30 10 1 10 11
M  V30 11 2 11 12
M  V30 12 1 12 13
M  V30 13 1 10 14
M  V30 14 1 12 3
M  V30 15 1 1 15
M  V30 16 1 1 16
M  V30 17 1 1 17
M  V30 18 1 4 18
M  V30 19 1 7 19
M  V30 20 1 11 20
M  V30 21 1 13 21
M  V30 22 1 13 22
M  V30 23 1 14 23
M  V30 24 1 14 24
M  V30 END BOND
M  V30 END CTAB
M  END
