
     RDKit          3D

  0  0  0  0  0  0  0  0  0  0999 V3000
M  V30 BEGIN CTAB
M  V30 COUNTS 41 44 0 0 0
M  V30 BEGIN ATOM
M  V30 1 C -0.193522 -2.6981 0.203294 0
M  V30 2 N -0.224473 -1.26896 0.49152 0
M  V30 3 C 0.953035 -0.515882 0.805039 0
M  V30 4 C 2.00185 -0.542513 -0.193208 0
M  V30 5 C 1.97448 -1.18148 -1.40578 0
M  V30 6 O 3.12313 -0.974181 -2.04541 0
M  V30 7 C 3.92517 -0.228458 -1.32778 0
M  V30 8 N 5.17109 0.271786 -1.48317 0
M  V30 9 C 5.71552 1.02496 -0.513996 0
M  V30 10 N 7.01337 1.57936 -0.598821 0
M  V30 11 N 5.04684 1.31191 0.646631 0
M  V30 12 C 3.80899 0.83407 0.836873 0
M  V30 13 N 3.04569 1.07787 2.00532 0
M  V30 14 C 3.24637 0.0631718 -0.149591 0
M  V30 15 C -1.49608 -0.658427 0.487037 0
M  V30 16 C -2.00434 -0.281746 1.73569 0
M  V30 17 C -3.24659 0.286099 1.86032 0
M  V30 18 C -4.02282 0.496816 0.747333 0
M  V30 19 C -5.28685 1.0653 0.900631 0
M  V30 20 C -6.03488 1.24861 -0.234965 0
M  V30 21 C -5.60595 0.905226 -1.49286 0
M  V30 22 C -4.35266 0.347108 -1.60479 0
M  V30 23 C -3.54979 0.137711 -0.4896 0
M  V30 24 C -2.28868 -0.435983 -0.602588 0
M  V30 25 H -0.824733 -3.27115 0.935386 0
M  V30 26 H 0.838078 -3.05466 0.359234 0
M  V30 27 H -0.59614 -2.9436 -0.792841 0
M  V30 28 H 0.624125 0.562818 0.927584 0
M  V30 29 H 1.25671 -0.793406 1.82898 0
M  V30 30 H 1.20659 -1.77838 -1.86696 0
M  V30 31 H 7.78914 1.135 -0.0870386 0
M  V30 32 H 7.17814 2.42055 -1.16678 0
M  V30 33 H 2.45415 1.92532 2.01907 0
M  V30 34 H 3.10856 0.39133 2.80798 0
M  V30 35 H -1.39367 -0.444443 2.62563 0
M  V30 36 H -3.64008 0.579314 2.82119 0
M  V30 37 H -5.6236 1.33409 1.89055 0
M  V30 38 H -7.02506 1.68971 -0.122991 0
M  V30 39 H -6.21147 1.05482 -2.38756 0
M  V30 40 H -3.95734 0.051313 -2.58602 0
M  V30 41 H -1.90228 -0.722901 -1.5601 0
M  V30 END ATOM
M  V30 BEGIN BOND
M  V30 1 1 1 2
M  V30 2 1 2 3
M  V30 3 1 3 4
M  V30 4 2 4 5
M  V30 5 1 5 6
M  V30 6 1 6 7
M  V30 7 2 7 8
M  V30 8 1 8 9
M  V30 9 1 9 10
M  V30 10 2 9 11
M  V30 11 1 11 12
M  V30 12 1 12 13
M  V30 13 2 12 14
M  V30 14 1 2 15
M  V30 15 2 15 16
M  V30 16 1 16 17
M  V30 17 2 17 18
M  V30 18 1 18 19
M  V30 19 2 19 20
M  V30 20 1 20 21
M  V30 21 2 21 22
M  V30 22 1 22 23
M  V30 23 2 23 24
M  V30 24 1 14 4
M  V30 25 1 24 15
M  V30 26 1 14 7
M  V30 27 1 23 18
M  V30 28 1 1 25
M  V30 29 1 1 26
M  V30 30 1 1 27
M  V30 31 1 3 28
M  V30 32 1 3 29
M  V30 33 1 5 30
M  V30 34 1 10 31
M  V30 35 1 10 32
M  V30 36 1 13 33
M  V30 37 1 13 34
M  V30 38 1 16 35
M  V30 39 1 17 36
M  V30 40 1 19 37
M  V30 41 1 20 38
M  V30 42 1 21 39
M  V30 43 1 22 40
M  V30 44 1 24 41
M  V30 END BOND
M  V30 END CTAB
M  END
