
     RDKit          3D

  0  0  0  0  0  0  0  0  0  0999 V3000
M  V30 BEGIN CTAB
M  V30 COUNTS 25 25 0 0 0
M  V30 BEGIN ATOM
M  V30 1 C -1.66631 -2.20275 0.375695 0
M  V30 2 C -0.800592 -1.04417 0.0809401 0
M  V30 3 C 0.548783 -1.20758 -0.157732 0
M  V30 4 C 1.34272 -0.119802 -0.430862 0
M  V30 5 C 0.783306 1.13064 -0.46448 0
M  V30 6 C -0.558163 1.31526 -0.229691 0
M  V30 7 C -1.34891 0.199244 0.0459972 0
M  V30 8 C -2.77372 0.430352 0.291435 0
M  V30 9 N -1.13187 2.61704 -0.266337 0
M  V30 10 S 3.05172 -0.277479 -0.738664 0
M  V30 11 O 3.49496 0.863341 -1.59181 0
M  V30 12 O 3.37187 -1.58586 -1.39133 0
M  V30 13 N 3.86265 -0.141471 0.797263 0
M  V30 14 H -2.12224 -2.62245 -0.533557 0
M  V30 15 H -2.40523 -2.00052 1.17732 0
M  V30 16 H -0.996476 -3.00301 0.78702 0
M  V30 17 H 0.989029 -2.22321 -0.127744 0
M  V30 18 H 1.38762 2.02105 -0.679366 0
M  V30 19 H -2.8945 1.03836 1.22292 0
M  V30 20 H -3.40157 -0.452515 0.298345 0
M  V30 21 H -3.14549 1.08864 -0.548574 0
M  V30 22 H -1.32535 3.03235 -1.19749 0
M  V30 23 H -1.32575 3.08083 0.646662 0
M  V30 24 H 3.37015 -0.768317 1.50021 0
M  V30 25 H 3.69338 0.832043 1.13384 0
M  V30 END ATOM
M  V30 BEGIN BOND
M  V30 1 1 1 2
M  V30 2 2 2 3
M  V30 3 1 3 4
M  V30 4 2 4 5
M  V30 5 1 5 6
M  V30 6 2 6 7
M  V30 7 1 7 8
M  V30 8 1 6 9
M  V30 9 1 4 10
M  V30 10 2 10 11
M  V30 11 2 10 12
M  V30 12 1 10 13
M  V30 13 1 7 2
M  V30 14 1 1 14
M  V30 15 1 1 15
M  V30 16 1 1 16
M  V30 17 1 3 17
M  V30 18 1 5 18
M  V30 19 1 8 19
M  V30 20 1 8 20
M  V30 21 1 8 21
M  V30 22 1 9 22
M  V30 23 1 9 23
M  V30 24 1 13 24
M  V30 25 1 13 25
M  V30 END BOND
M  V30 END CTAB
M  END
