
     RDKit          3D

  0  0  0  0  0  0  0  0  0  0999 V3000
M  V30 BEGIN CTAB
M  V30 COUNTS 33 32 0 0 0
M  V30 BEGIN ATOM
M  V30 1 O 4.27103 -1.596 0.0541792 0
M  V30 2 C 3.29719 -0.933693 -0.629809 0
M  V30 3 O 3.49129 -0.513237 -1.79185 0
M  V30 4 C 1.96113 -0.686347 -0.0126891 0
M  V30 5 C 1.5688 0.733617 -0.00726411 0
M  V30 6 C 2.60801 1.53946 0.822787 0
M  V30 7 F 2.63878 1.05797 2.09853 0
M  V30 8 F 2.18393 2.86257 0.779405 0
M  V30 9 F 3.80506 1.43773 0.203432 0
M  V30 10 C 0.216611 1.02348 0.464043 0
M  V30 11 C -1.01773 0.581347 -0.146823 0
M  V30 12 C -1.40295 -0.821992 -0.338496 0
M  V30 13 S -3.07315 -0.69935 -1.08463 0
M  V30 14 O -2.99883 -0.151085 -2.45261 0
M  V30 15 O -3.65482 -2.09319 -1.19093 0
M  V30 16 N -4.0818 0.193691 -0.0429095 0
M  V30 17 C -1.60752 -1.61031 0.945957 0
M  V30 18 N -1.23454 1.23331 -1.47795 0
M  V30 19 H 5.26876 -1.43893 -0.0524638 0
M  V30 20 H 1.98686 -1.05396 1.04911 0
M  V30 21 H 1.21334 -1.30821 -0.516249 0
M  V30 22 H 1.76546 1.12186 -1.05411 0
M  V30 23 H 0.172441 2.18894 0.497599 0
M  V30 24 H 0.203763 0.848139 1.61365 0
M  V30 25 H -1.89464 1.05622 0.444677 0
M  V30 26 H -0.809223 -1.40246 -1.07407 0
M  V30 27 H -3.88116 1.19483 0.0304093 0
M  V30 28 H -4.28814 -0.308899 0.833069 0
M  V30 29 H -1.18675 -2.62896 0.788784 0
M  V30 30 H -2.67386 -1.76176 1.19969 0
M  V30 31 H -1.1543 -1.08474 1.8057 0
M  V30 32 H -0.609008 0.768254 -2.17974 0
M  V30 33 H -1.08403 2.25171 -1.38333 0
M  V30 END ATOM
M  V30 BEGIN BOND
M  V30 1 1 1 2
M  V30 2 2 2 3
M  V30 3 1 2 4
M  V30 4 1 4 5
M  V30 5 1 5 6
M  V30 6 1 6 7
M  V30 7 1 6 8
M  V30 8 1 6 9
M  V30 9 1 5 10
M  V30 10 1 10 11
M  V30 11 1 11 12
M  V30 12 1 12 13
M  V30 13 2 13 14
M  V30 14 2 13 15
M  V30 15 1 13 16
M  V30 16 1 12 17
M  V30 17 1 11 18
M  V30 18 1 1 19
M  V30 19 1 4 20
M  V30 20 1 4 21
M  V30 21 1 5 22
M  V30 22 1 10 23
M  V30 23 1 10 24
M  V30 24 1 11 25
M  V30 25 1 12 26
M  V30 26 1 16 27
M  V30 27 1 16 28
M  V30 28 1 17 29
M  V30 29 1 17 30
M  V30 30 1 17 31
M  V30 31 1 18 32
M  V30 32 1 18 33
M  V30 END BOND
M  V30 END CTAB
M  END
