
     RDKit          3D

  0  0  0  0  0  0  0  0  0  0999 V3000
M  V30 BEGIN CTAB
M  V30 COUNTS 19 19 0 0 0
M  V30 BEGIN ATOM
M  V30 1 N 2.49229 -1.46432 0.0256851 0
M  V30 2 C 1.31942 -0.671425 0.00600776 0
M  V30 3 C 1.40546 0.685834 -0.0323143 0
M  V30 4 C 0.26423 1.45368 -0.0513574 0
M  V30 5 N 0.323953 2.86472 -0.091131 0
M  V30 6 C -0.979432 0.806595 -0.0304256 0
M  V30 7 C -1.04174 -0.568593 0.00834896 0
M  V30 8 C 0.106932 -1.32634 0.027094 0
M  V30 9 C -2.34871 -1.26659 0.0308502 0
M  V30 10 F -2.94924 -0.919946 1.24915 0
M  V30 11 F -3.14126 -0.86935 -1.03066 0
M  V30 12 F -2.12292 1.53846 -0.0484506 0
M  V30 13 H 2.86249 -1.83068 -0.862701 0
M  V30 14 H 2.95161 -1.65803 0.933628 0
M  V30 15 H 2.34941 1.23157 -0.0497376 0
M  V30 16 H -0.497335 3.41604 0.210106 0
M  V30 17 H 1.1673 3.36982 -0.413646 0
M  V30 18 H 0.0520693 -2.42633 0.058158 0
M  V30 19 H -2.21452 -2.36512 0.0613921 0
M  V30 END ATOM
M  V30 BEGIN BOND
M  V30 1 1 1 2
M  V30 2 2 2 3
M  V30 3 1 3 4
M  V30 4 1 4 5
M  V30 5 2 4 6
M  V30 6 1 6 7
M  V30 7 2 7 8
M  V30 8 1 7 9
M  V30 9 1 9 10
M  V30 10 1 9 11
M  V30 11 1 6 12
M  V30 12 1 8 2
M  V30 13 1 1 13
M  V30 14 1 1 14
M  V30 15 1 3 15
M  V30 16 1 5 16
M  V30 17 1 5 17
M  V30 18 1 8 18
M  V30 19 1 9 19
M  V30 END BOND
M  V30 END CTAB
M  END
