
     RDKit          3D

  0  0  0  0  0  0  0  0  0  0999 V3000
M  V30 BEGIN CTAB
M  V30 COUNTS 44 45 0 0 0
M  V30 BEGIN ATOM
M  V30 1 C -3.80235 1.73268 1.21241 0
M  V30 2 C -3.64491 0.264792 1.03113 0
M  V30 3 N -2.6784 -0.0729974 -0.0323785 0
M  V30 4 C -1.305 -0.241155 0.266742 0
M  V30 5 O -0.994814 -0.076382 1.50081 0
M  V30 6 C -0.222767 -0.569898 -0.6487 0 CFG=2
M  V30 7 C -0.0466352 -2.03408 -0.960945 0
M  V30 8 C 0.485813 -2.5287 0.36112 0 CFG=2
M  V30 9 C 1.57975 -1.5196 0.622292 0
M  V30 10 N 1.06044 -0.303373 0.0400127 0
M  V30 11 C 1.72125 0.948766 0.137062 0
M  V30 12 O 1.17104 1.95443 -0.418764 0
M  V30 13 C 3.01022 1.09738 0.858198 0
M  V30 14 N 3.503 2.44353 0.831319 0
M  V30 15 N 3.2339 3.3864 1.73122 0
M  V30 16 N 3.86405 4.50397 1.37758 0
M  V30 17 N 4.52505 4.24541 0.252135 0
M  V30 18 C 4.32226 2.9726 -0.11558 0
M  V30 19 N 4.80165 2.22994 -1.22405 0
M  V30 20 N 0.984194 -3.88672 0.279734 0
M  V30 21 C -3.25825 -0.213925 -1.34881 0
M  V30 22 C -3.77021 -1.57334 -1.67048 0
M  V30 23 H -3.17992 2.06936 2.07961 0
M  V30 24 H -4.84958 1.97142 1.49898 0
M  V30 25 H -3.57094 2.26697 0.288097 0
M  V30 26 H -4.61973 -0.222957 0.844012 0
M  V30 27 H -3.23129 -0.190235 1.96027 0
M  V30 28 H -0.309349 -0.00402731 -1.57313 0
M  V30 29 H 0.816335 -2.0952 -1.67169 0
M  V30 30 H -0.873382 -2.56238 -1.37849 0
M  V30 31 H -0.262518 -2.42195 1.17762 0
M  V30 32 H 2.53461 -1.79815 0.130927 0
M  V30 33 H 1.70157 -1.43889 1.72365 0
M  V30 34 H 2.84631 0.724683 1.91039 0
M  V30 35 H 3.76003 0.373256 0.425742 0
M  V30 36 H 4.53813 2.42295 -2.21435 0
M  V30 37 H 5.46639 1.42769 -1.07046 0
M  V30 38 H 1.43928 -4.09717 1.19741 0
M  V30 39 H 1.62327 -3.97304 -0.519187 0
M  V30 40 H -2.48819 0.0589159 -2.12807 0
M  V30 41 H -4.1187 0.503736 -1.41199 0
M  V30 42 H -3.24557 -2.39046 -1.12514 0
M  V30 43 H -4.87452 -1.61695 -1.47821 0
M  V30 44 H -3.64155 -1.76729 -2.74804 0
M  V30 END ATOM
M  V30 BEGIN BOND
M  V30 1 1 1 2
M  V30 2 1 2 3
M  V30 3 1 3 4
M  V30 4 2 4 5
M  V30 5 1 4 6
M  V30 6 1 6 7
M  V30 7 1 7 8
M  V30 8 1 8 9
M  V30 9 1 9 10
M  V30 10 1 10 11
M  V30 11 2 11 12
M  V30 12 1 11 13
M  V30 13 1 13 14
M  V30 14 1 14 15
M  V30 15 2 15 16
M  V30 16 1 16 17
M  V30 17 2 17 18
M  V30 18 1 18 19
M  V30 19 1 8 20
M  V30 20 1 3 21
M  V30 21 1 21 22
M  V30 22 1 10 6
M  V30 23 1 18 14
M  V30 24 1 1 23
M  V30 25 1 1 24
M  V30 26 1 1 25
M  V30 27 1 2 26
M  V30 28 1 2 27
M  V30 29 1 6 28 CFG=3
M  V30 30 1 7 29
M  V30 31 1 7 30
M  V30 32 1 8 31 CFG=1
M  V30 33 1 9 32
M  V30 34 1 9 33
M  V30 35 1 13 34
M  V30 36 1 13 35
M  V30 37 1 19 36
M  V30 38 1 19 37
M  V30 39 1 20 38
M  V30 40 1 20 39
M  V30 41 1 21 40
M  V30 42 1 21 41
M  V30 43 1 22 42
M  V30 44 1 22 43
M  V30 45 1 22 44
M  V30 END BOND
M  V30 END CTAB
M  END
