
     RDKit          3D

  0  0  0  0  0  0  0  0  0  0999 V3000
M  V30 BEGIN CTAB
M  V30 COUNTS 28 28 0 0 0
M  V30 BEGIN ATOM
M  V30 1 C -4.47699 -1.55482 -0.649666 0
M  V30 2 O -3.41846 -0.600776 -0.511668 0
M  V30 3 C -2.1135 -0.9489 -0.300002 0
M  V30 4 O -1.812 -2.16177 -0.220228 0
M  V30 5 C -1.06331 0.0556221 -0.164689 0
M  V30 6 C -1.31365 1.40206 -0.24021 0
M  V30 7 C -0.347126 2.3859 -0.11732 0
M  V30 8 N -0.665163 3.76992 -0.204348 0
M  V30 9 C 0.951286 1.97064 0.0951598 0
M  V30 10 C 1.25645 0.61418 0.179448 0
M  V30 11 C 0.250463 -0.320419 0.0491025 0
M  V30 12 N 0.587958 -1.68845 0.138704 0
M  V30 13 C 2.6449 0.224519 0.405218 0
M  V30 14 O 3.54804 1.09207 0.521435 0
M  V30 15 O 2.92429 -1.13265 0.48561 0
M  V30 16 C 4.26744 -1.5196 0.704304 0
M  V30 17 H -5.41032 -0.963326 -0.770259 0
M  V30 18 H -4.29546 -2.17532 -1.56315 0
M  V30 19 H -4.59055 -2.17662 0.24819 0
M  V30 20 H -2.33385 1.7311 -0.407235 0
M  V30 21 H -0.109744 4.46443 -0.742271 0
M  V30 22 H -1.51215 4.08761 0.310702 0
M  V30 23 H 1.72071 2.73281 0.193556 0
M  V30 24 H 0.736312 -2.21956 -0.733516 0
M  V30 25 H 0.682832 -2.14186 1.05748 0
M  V30 26 H 4.95238 -0.696824 0.415765 0
M  V30 27 H 4.44245 -1.83852 1.7639 0
M  V30 28 H 4.49676 -2.39145 0.0559829 0
M  V30 END ATOM
M  V30 BEGIN BOND
M  V30 1 1 1 2
M  V30 2 1 2 3
M  V30 3 2 3 4
M  V30 4 1 3 5
M  V30 5 2 5 6
M  V30 6 1 6 7
M  V30 7 1 7 8
M  V30 8 2 7 9
M  V30 9 1 9 10
M  V30 10 2 10 11
M  V30 11 1 11 12
M  V30 12 1 10 13
M  V30 13 2 13 14
M  V30 14 1 13 15
M  V30 15 1 15 16
M  V30 16 1 11 5
M  V30 17 1 1 17
M  V30 18 1 1 18
M  V30 19 1 1 19
M  V30 20 1 6 20
M  V30 21 1 8 21
M  V30 22 1 8 22
M  V30 23 1 9 23
M  V30 24 1 12 24
M  V30 25 1 12 25
M  V30 26 1 16 26
M  V30 27 1 16 27
M  V30 28 1 16 28
M  V30 END BOND
M  V30 END CTAB
M  END
