
     RDKit          3D

  0  0  0  0  0  0  0  0  0  0999 V3000
M  V30 BEGIN CTAB
M  V30 COUNTS 40 41 0 0 0
M  V30 BEGIN ATOM
M  V30 1 N 0.0945051 -2.94552 0.995712 0
M  V30 2 C 0.531214 -1.93724 0.609751 0
M  V30 3 C 1.00036 -0.703591 0.160098 0
M  V30 4 C 0.0558615 0.142172 -0.292318 0
M  V30 5 C -1.37034 -0.16424 -0.335655 0
M  V30 6 C -1.90882 -1.28449 -0.909382 0
M  V30 7 C -3.26719 -1.51942 -0.883356 0
M  V30 8 C -4.15528 -0.650156 -0.286002 0
M  V30 9 C -3.60156 0.47357 0.286624 0
M  V30 10 C -2.2571 0.727644 0.273698 0
M  V30 11 O -4.49976 1.36343 0.896205 0
M  V30 12 C -4.06845 2.54279 1.51511 0
M  V30 13 O -5.5237 -0.876466 -0.253911 0
M  V30 14 C -5.99657 -2.06611 -0.873635 0
M  V30 15 C 2.34904 -0.185263 0.117178 0
M  V30 16 N 2.56105 1.1015 -0.318947 0
M  V30 17 C 3.7347 1.69789 -0.413219 0
M  V30 18 N 3.83829 3.06263 -0.88789 0
M  V30 19 C 4.8647 1.00206 -0.0525344 0
M  V30 20 C 4.70689 -0.283251 0.388282 0
M  V30 21 C 3.45258 -0.913211 0.486174 0
M  V30 22 C 3.39129 -2.26698 0.948669 0
M  V30 23 N 3.38266 -3.34949 1.31737 0
M  V30 24 N 5.85181 -1.05443 0.777303 0
M  V30 25 C 6.14464 1.64013 -0.15083 0
M  V30 26 N 7.17583 2.15901 -0.211116 0
M  V30 27 H 0.306024 1.13435 -0.66467 0
M  V30 28 H -1.25426 -1.98729 -1.41319 0
M  V30 29 H -3.69013 -2.41163 -1.34006 0
M  V30 30 H -1.84472 1.61295 0.727591 0
M  V30 31 H -3.13393 2.41586 2.08898 0
M  V30 32 H -4.86744 2.91694 2.19442 0
M  V30 33 H -3.86845 3.31958 0.725206 0
M  V30 34 H -5.61798 -2.11313 -1.932 0
M  V30 35 H -7.11347 -2.08141 -0.92696 0
M  V30 36 H -5.7016 -2.97524 -0.314481 0
M  V30 37 H 3.55863 3.30413 -1.85192 0
M  V30 38 H 4.19371 3.80302 -0.26162 0
M  V30 39 H 6.31138 -1.75534 0.16852 0
M  V30 40 H 6.23561 -0.895764 1.72315 0
M  V30 END ATOM
M  V30 BEGIN BOND
M  V30 1 3 1 2
M  V30 2 1 2 3
M  V30 3 2 3 4
M  V30 4 1 4 5
M  V30 5 2 5 6
M  V30 6 1 6 7
M  V30 7 2 7 8
M  V30 8 1 8 9
M  V30 9 2 9 10
M  V30 10 1 9 11
M  V30 11 1 11 12
M  V30 12 1 8 13
M  V30 13 1 13 14
M  V30 14 1 3 15
M  V30 15 2 15 16
M  V30 16 1 16 17
M  V30 17 1 17 18
M  V30 18 2 17 19
M  V30 19 1 19 20
M  V30 20 2 20 21
M  V30 21 1 21 22
M  V30 22 3 22 23
M  V30 23 1 20 24
M  V30 24 1 19 25
M  V30 25 3 25 26
M  V30 26 1 10 5
M  V30 27 1 21 15
M  V30 28 1 4 27
M  V30 29 1 6 28
M  V30 30 1 7 29
M  V30 31 1 10 30
M  V30 32 1 12 31
M  V30 33 1 12 32
M  V30 34 1 12 33
M  V30 35 1 14 34
M  V30 36 1 14 35
M  V30 37 1 14 36
M  V30 38 1 18 37
M  V30 39 1 18 38
M  V30 40 1 24 39
M  V30 41 1 24 40
M  V30 END BOND
M  V30 END CTAB
M  END
