
     RDKit          3D

  0  0  0  0  0  0  0  0  0  0999 V3000
M  V30 BEGIN CTAB
M  V30 COUNTS 52 55 0 0 0
M  V30 BEGIN ATOM
M  V30 1 N 4.4793 -3.67986 -0.605972 0
M  V30 2 C 4.67448 -2.28041 -0.331409 0
M  V30 3 N 5.94973 -1.82426 -0.341776 0
M  V30 4 C 6.22883 -0.526757 -0.0953018 0
M  V30 5 N 7.55702 -0.0494734 -0.105646 0
M  V30 6 C 5.14234 0.295785 0.16508 0
M  V30 7 C 3.84851 -0.180099 0.17288 0
M  V30 8 N 3.62218 -1.48114 -0.078679 0
M  V30 9 N 3.02344 0.823236 0.449259 0
M  V30 10 C 3.77807 1.92089 0.615032 0
M  V30 11 N 5.06665 1.59115 0.440349 0
M  V30 12 C 1.58239 0.765655 0.556056 0 CFG=2
M  V30 13 C 1.06328 -0.565871 0.983363 0
M  V30 14 C -0.404183 -0.366407 1.3867 0
M  V30 15 N -1.08287 0.212227 0.246452 0
M  V30 16 C -0.354739 0.349212 -0.989232 0
M  V30 17 C 0.871813 1.21323 -0.67816 0 CFG=2
M  V30 18 C 1.73899 1.20722 -1.90421 0
M  V30 19 O 0.365744 2.52415 -0.541326 0
M  V30 20 C -2.43159 0.643751 0.311678 0
M  V30 21 O -2.9591 1.13715 -0.716269 0
M  V30 22 O -3.19105 0.541601 1.46846 0
M  V30 23 C -4.53108 0.978647 1.48778 0
M  V30 24 C -5.39199 0.259062 0.543069 0
M  V30 25 C -6.59786 0.837421 0.143359 0
M  V30 26 C -7.42238 0.162784 -0.739577 0
M  V30 27 C -7.07779 -1.083 -1.24093 0
M  V30 28 C -5.88403 -1.61106 -0.819888 0
M  V30 29 C -5.03653 -0.976778 0.0539514 0
M  V30 30 H 3.7673 -4.21206 -0.0688913 0
M  V30 31 H 5.0566 -4.12786 -1.33738 0
M  V30 32 H 7.95734 0.452463 0.702527 0
M  V30 33 H 8.14561 -0.204488 -0.940659 0
M  V30 34 H 3.39938 2.90309 0.850236 0
M  V30 35 H 1.31003 1.49911 1.37125 0
M  V30 36 H 1.0396 -1.31889 0.169829 0
M  V30 37 H 1.59448 -0.900519 1.87864 0
M  V30 38 H -0.828769 -1.38392 1.52549 0
M  V30 39 H -0.490861 0.240599 2.29379 0
M  V30 40 H -0.914733 0.893854 -1.76424 0
M  V30 41 H -0.0574828 -0.619601 -1.42604 0
M  V30 42 H 1.07065 1.47301 -2.76933 0
M  V30 43 H 2.50039 2.03615 -1.88284 0
M  V30 44 H 2.17249 0.233049 -2.1449 0
M  V30 45 H -0.125891 2.52232 0.330444 0
M  V30 46 H -4.58921 2.08126 1.30322 0
M  V30 47 H -4.97987 0.850086 2.51077 0
M  V30 48 H -6.89024 1.79733 0.51343 0
M  V30 49 H -8.35104 0.612308 -1.04505 0
M  V30 50 H -7.74413 -1.60104 -1.939 0
M  V30 51 H -5.57216 -2.5916 -1.18991 0
M  V30 52 H -4.09705 -1.47274 0.339521 0
M  V30 END ATOM
M  V30 BEGIN BOND
M  V30 1 1 1 2
M  V30 2 2 2 3
M  V30 3 1 3 4
M  V30 4 1 4 5
M  V30 5 2 4 6
M  V30 6 1 6 7
M  V30 7 2 7 8
M  V30 8 1 7 9
M  V30 9 1 9 10
M  V30 10 2 10 11
M  V30 11 1 9 12
M  V30 12 1 12 13
M  V30 13 1 13 14
M  V30 14 1 14 15
M  V30 15 1 15 16
M  V30 16 1 16 17
M  V30 17 1 17 18
M  V30 18 1 17 19 CFG=1
M  V30 19 1 15 20
M  V30 20 2 20 21
M  V30 21 1 20 22
M  V30 22 1 22 23
M  V30 23 1 23 24
M  V30 24 2 24 25
M  V30 25 1 25 26
M  V30 26 2 26 27
M  V30 27 1 27 28
M  V30 28 2 28 29
M  V30 29 1 8 2
M  V30 30 1 17 12
M  V30 31 1 29 24
M  V30 32 1 11 6
M  V30 33 1 1 30
M  V30 34 1 1 31
M  V30 35 1 5 32
M  V30 36 1 5 33
M  V30 37 1 10 34
M  V30 38 1 12 35 CFG=1
M  V30 39 1 13 36
M  V30 40 1 13 37
M  V30 41 1 14 38
M  V30 42 1 14 39
M  V30 43 1 16 40
M  V30 44 1 16 41
M  V30 45 1 18 42
M  V30 46 1 18 43
M  V30 47 1 18 44
M  V30 48 1 19 45
M  V30 49 1 23 46
M  V30 50 1 23 47
M  V30 51 1 25 48
M  V30 52 1 26 49
M  V30 53 1 27 50
M  V30 54 1 28 51
M  V30 55 1 29 52
M  V30 END BOND
M  V30 END CTAB
M  END
