
     RDKit          3D

  0  0  0  0  0  0  0  0  0  0999 V3000
M  V30 BEGIN CTAB
M  V30 COUNTS 57 59 0 0 0
M  V30 BEGIN ATOM
M  V30 1 C -4.21874 -2.85504 0.700883 0
M  V30 2 C -4.7794 -2.20663 -0.559106 0
M  V30 3 C -5.42544 -0.926813 -0.263346 0
M  V30 4 C -4.69761 0.209885 -0.0278213 0
M  V30 5 C -5.3778 1.3744 0.245523 0
M  V30 6 N -4.64779 2.55373 0.489821 0
M  V30 7 N -6.7327 1.38542 0.278921 0
M  V30 8 C -7.43758 0.258408 0.0452475 0
M  V30 9 N -8.84248 0.253963 0.0769936 0
M  V30 10 N -6.76392 -0.867059 -0.219777 0
M  V30 11 C -3.25225 0.158753 -0.0743252 0
M  V30 12 C -2.60843 0.205077 -1.27882 0
M  V30 13 C -1.20903 0.164002 -1.41258 0
M  V30 14 C -0.499954 0.0711752 -0.251812 0
M  V30 15 C -1.15302 0.0235894 0.991874 0
M  V30 16 C -2.51591 0.0666701 1.08236 0
M  V30 17 N 0.91079 -0.0302141 -0.19125 0
M  V30 18 C 1.53541 -1.30595 -0.438402 0
M  V30 19 C 1.69842 1.13048 0.116371 0
M  V30 20 C 3.15444 0.805246 0.137392 0
M  V30 21 C 3.72751 0.278967 1.26744 0
M  V30 22 C 5.06948 -0.0306337 1.23967 0
M  V30 23 C 5.85782 0.163758 0.13243 0
M  V30 24 C 5.26164 0.696883 -0.998339 0
M  V30 25 C 3.92852 1.00767 -0.979787 0
M  V30 26 C 7.26344 -0.168978 0.0824279 0
M  V30 27 O 7.6767 -0.953632 -0.819613 0
M  V30 28 N 8.16542 0.362563 1.01608 0
M  V30 29 C 9.55613 -0.00132813 0.9545 0
M  V30 30 N -0.622074 0.256787 -2.70331 0 CHG=1
M  V30 31 O 0.560612 -0.259403 -3.07144 0 CHG=-1
M  V30 32 O -1.30623 0.900442 -3.574 0
M  V30 33 H -4.5702 -2.25252 1.57345 0
M  V30 34 H -3.13814 -3.00428 0.668774 0
M  V30 35 H -4.67503 -3.87163 0.852257 0
M  V30 36 H -3.99853 -2.13207 -1.34745 0
M  V30 37 H -5.53703 -2.90267 -0.968638 0
M  V30 38 H -4.80925 3.39656 -0.0841895 0
M  V30 39 H -3.94647 2.5721 1.24755 0
M  V30 40 H -9.37052 -0.633888 0.29975 0
M  V30 41 H -9.38763 1.11945 -0.116568 0
M  V30 42 H -3.15596 0.278459 -2.2341 0
M  V30 43 H -0.555771 -0.049683 1.91959 0
M  V30 44 H -3.009 0.028316 2.0649 0
M  V30 45 H 2.41686 -1.24811 -1.11666 0
M  V30 46 H 1.91358 -1.75749 0.526179 0
M  V30 47 H 0.843202 -2.05925 -0.858253 0
M  V30 48 H 1.47655 1.59342 1.09997 0
M  V30 49 H 1.53473 1.92583 -0.640644 0
M  V30 50 H 3.14691 0.0947326 2.18903 0
M  V30 51 H 5.53453 -0.451348 2.13523 0
M  V30 52 H 5.85414 0.872748 -1.91154 0
M  V30 53 H 3.50403 1.43187 -1.9064 0
M  V30 54 H 7.83798 1.01416 1.75007 0
M  V30 55 H 9.86931 -0.481754 1.92024 0
M  V30 56 H 9.71466 -0.721618 0.114189 0
M  V30 57 H 10.2311 0.867858 0.829066 0
M  V30 END ATOM
M  V30 BEGIN BOND
M  V30 1 1 1 2
M  V30 2 1 2 3
M  V30 3 2 3 4
M  V30 4 1 4 5
M  V30 5 1 5 6
M  V30 6 2 5 7
M  V30 7 1 7 8
M  V30 8 1 8 9
M  V30 9 2 8 10
M  V30 10 1 4 11
M  V30 11 2 11 12
M  V30 12 1 12 13
M  V30 13 2 13 14
M  V30 14 1 14 15
M  V30 15 2 15 16
M  V30 16 1 14 17
M  V30 17 1 17 18
M  V30 18 1 17 19
M  V30 19 1 19 20
M  V30 20 2 20 21
M  V30 21 1 21 22
M  V30 22 2 22 23
M  V30 23 1 23 24
M  V30 24 2 24 25
M  V30 25 1 23 26
M  V30 26 2 26 27
M  V30 27 1 26 28
M  V30 28 1 28 29
M  V30 29 1 13 30
M  V30 30 1 30 31
M  V30 31 2 30 32
M  V30 32 1 10 3
M  V30 33 1 16 11
M  V30 34 1 25 20
M  V30 35 1 1 33
M  V30 36 1 1 34
M  V30 37 1 1 35
M  V30 38 1 2 36
M  V30 39 1 2 37
M  V30 40 1 6 38
M  V30 41 1 6 39
M  V30 42 1 9 40
M  V30 43 1 9 41
M  V30 44 1 12 42
M  V30 45 1 15 43
M  V30 46 1 16 44
M  V30 47 1 18 45
M  V30 48 1 18 46
M  V30 49 1 18 47
M  V30 50 1 19 48
M  V30 51 1 19 49
M  V30 52 1 21 50
M  V30 53 1 22 51
M  V30 54 1 24 52
M  V30 55 1 25 53
M  V30 56 1 28 54
M  V30 57 1 29 55
M  V30 58 1 29 56
M  V30 59 1 29 57
M  V30 END BOND
M  V30 END CTAB
M  END
