
     RDKit          3D

  0  0  0  0  0  0  0  0  0  0999 V3000
M  V30 BEGIN CTAB
M  V30 COUNTS 41 42 0 0 0
M  V30 BEGIN ATOM
M  V30 1 N 7.56921 -0.133226 1.06809 0
M  V30 2 C 6.23276 -0.0826684 0.588333 0
M  V30 3 C 5.38121 -1.1375 0.80247 0
M  V30 4 C 4.06229 -1.05867 0.329506 0
M  V30 5 C 3.61307 0.0390521 -0.335875 0
M  V30 6 C 4.47196 1.09798 -0.551508 0
M  V30 7 C 5.76965 1.02748 -0.0877441 0
M  V30 8 C 2.20273 0.13672 -0.799608 0
M  V30 9 O 2.04652 0.761411 -1.86175 0
M  V30 10 N 1.14946 -0.43422 -0.0757008 0
M  V30 11 C -0.223669 -0.416152 -0.228254 0
M  V30 12 O -0.879331 -1.02316 0.720747 0
M  V30 13 C -1.05884 0.151657 -1.23739 0
M  V30 14 O -0.517698 0.597641 -2.2981 0
M  V30 15 N -2.45787 0.278722 -1.18553 0
M  V30 16 C -3.20916 -0.108181 -0.00678169 0
M  V30 17 C -3.22614 0.624344 1.13216 0
M  V30 18 C -3.98379 0.24641 2.21541 0
M  V30 19 C -4.74431 -0.916085 2.12566 0
M  V30 20 C -4.75643 -1.69852 0.976567 0
M  V30 21 C -3.97562 -1.26672 -0.0761979 0
M  V30 22 N -5.53696 -1.33929 3.21263 0
M  V30 23 C -3.20738 0.784826 -2.27003 0
M  V30 24 O -4.46183 0.901907 -2.11569 0
M  V30 25 C -2.6042 1.172 -3.54637 0
M  V30 26 H 8.25506 0.614707 0.785997 0
M  V30 27 H 7.91924 -0.878814 1.6924 0
M  V30 28 H 5.75415 -1.99736 1.32909 0
M  V30 29 H 3.41291 -1.89278 0.501485 0
M  V30 30 H 4.11815 1.98232 -1.08156 0
M  V30 31 H 6.47259 1.8584 -0.23816 0
M  V30 32 H 1.54818 -0.968013 0.81626 0
M  V30 33 H -2.62288 1.53099 1.1975 0
M  V30 34 H -4.01386 0.82307 3.1569 0
M  V30 35 H -5.37357 -2.60811 0.926491 0
M  V30 36 H -3.97092 -1.85556 -0.972394 0
M  V30 37 H -6.47777 -0.926825 3.3565 0
M  V30 38 H -5.15488 -2.06459 3.84991 0
M  V30 39 H -3.46444 1.47304 -4.24562 0
M  V30 40 H -2.09694 0.295279 -4.04108 0
M  V30 41 H -1.96065 2.06814 -3.52878 0
M  V30 END ATOM
M  V30 BEGIN BOND
M  V30 1 1 1 2
M  V30 2 2 2 3
M  V30 3 1 3 4
M  V30 4 2 4 5
M  V30 5 1 5 6
M  V30 6 2 6 7
M  V30 7 1 5 8
M  V30 8 2 8 9
M  V30 9 1 8 10
M  V30 10 1 10 11
M  V30 11 2 11 12
M  V30 12 1 11 13
M  V30 13 2 13 14
M  V30 14 1 13 15
M  V30 15 1 15 16
M  V30 16 2 16 17
M  V30 17 1 17 18
M  V30 18 2 18 19
M  V30 19 1 19 20
M  V30 20 2 20 21
M  V30 21 1 19 22
M  V30 22 1 15 23
M  V30 23 2 23 24
M  V30 24 1 23 25
M  V30 25 1 7 2
M  V30 26 1 21 16
M  V30 27 1 1 26
M  V30 28 1 1 27
M  V30 29 1 3 28
M  V30 30 1 4 29
M  V30 31 1 6 30
M  V30 32 1 7 31
M  V30 33 1 10 32
M  V30 34 1 17 33
M  V30 35 1 18 34
M  V30 36 1 20 35
M  V30 37 1 21 36
M  V30 38 1 22 37
M  V30 39 1 22 38
M  V30 40 1 25 39
M  V30 41 1 25 40
M  V30 42 1 25 41
M  V30 END BOND
M  V30 END CTAB
M  END
