
     RDKit          3D

  0  0  0  0  0  0  0  0  0  0999 V3000
M  V30 BEGIN CTAB
M  V30 COUNTS 22 22 0 0 0
M  V30 BEGIN ATOM
M  V30 1 N -1.95447 -1.33592 -0.895438 0
M  V30 2 C -1.78028 0.0567906 -0.672386 0 CFG=2
M  V30 3 C -0.35914 0.214793 -0.263636 0
M  V30 4 C 0.569025 -0.460449 -1.06591 0
M  V30 5 C 1.89777 -0.361269 -0.743399 0
M  V30 6 C 2.32149 0.368471 0.322943 0
M  V30 7 C 1.39993 1.0278 1.10428 0
M  V30 8 C 0.0278684 0.956342 0.814098 0
M  V30 9 N 3.70277 0.456958 0.637938 0
M  V30 10 C -2.74818 0.481855 0.345352 0
M  V30 11 O -2.92221 1.68013 0.634744 0
M  V30 12 O -3.49868 -0.463357 1.01383 0
M  V30 13 H -1.44085 -1.88507 -0.254731 0
M  V30 14 H -2.13419 -1.67909 -1.77867 0
M  V30 15 H -1.9539 0.63292 -1.61035 0
M  V30 16 H 0.210264 -1.03804 -1.9132 0
M  V30 17 H 2.60536 -0.888926 -1.37278 0
M  V30 18 H 1.70552 1.612 1.95327 0
M  V30 19 H -0.682122 1.48212 1.44534 0
M  V30 20 H 4.06504 1.147 1.30562 0
M  V30 21 H 4.37605 -0.188718 0.187145 0
M  V30 22 H -3.40707 -1.43331 0.805951 0
M  V30 END ATOM
M  V30 BEGIN BOND
M  V30 1 1 1 2
M  V30 2 1 2 3
M  V30 3 2 3 4
M  V30 4 1 4 5
M  V30 5 2 5 6
M  V30 6 1 6 7
M  V30 7 2 7 8
M  V30 8 1 6 9
M  V30 9 1 2 10
M  V30 10 2 10 11
M  V30 11 1 10 12
M  V30 12 1 8 3
M  V30 13 1 1 13
M  V30 14 1 1 14
M  V30 15 1 2 15 CFG=3
M  V30 16 1 4 16
M  V30 17 1 5 17
M  V30 18 1 7 18
M  V30 19 1 8 19
M  V30 20 1 9 20
M  V30 21 1 9 21
M  V30 22 1 12 22
M  V30 END BOND
M  V30 END CTAB
M  END
