
     RDKit          3D

  0  0  0  0  0  0  0  0  0  0999 V3000
M  V30 BEGIN CTAB
M  V30 COUNTS 25 25 0 0 0
M  V30 BEGIN ATOM
M  V30 1 O -2.40635 1.49497 -1.46214 0
M  V30 2 C -3.02157 0.568314 -0.839824 0
M  V30 3 C -2.24971 0.271001 0.436959 0 CFG=2
M  V30 4 C -0.828166 -0.032411 0.171563 0
M  V30 5 N 0.162825 0.846309 0.339712 0
M  V30 6 C 1.46241 0.569924 0.0974193 0
M  V30 7 N 2.46449 1.54143 0.294319 0
M  V30 8 C 3.84796 1.20619 0.0231055 0
M  V30 9 N 1.77605 -0.673863 -0.342349 0
M  V30 10 C 0.78133 -1.5639 -0.513729 0
M  V30 11 N -0.490304 -1.26502 -0.267428 0
M  V30 12 N 1.11664 -2.85671 -0.971903 0
M  V30 13 N -2.92022 -0.780467 1.17377 0
M  V30 14 H -2.17904 2.24367 -1.36549 0
M  V30 15 H -4.02521 0.934495 -0.527871 0
M  V30 16 H -3.17805 -0.357338 -1.40314 0
M  V30 17 H -2.25631 1.1935 1.0837 0
M  V30 18 H 2.19478 2.48928 0.633049 0
M  V30 19 H 3.98969 0.116367 0.191371 0
M  V30 20 H 4.48358 1.81136 0.693404 0
M  V30 21 H 4.11376 1.50706 -1.01419 0
M  V30 22 H 1.6048 -2.99215 -1.8693 0
M  V30 23 H 0.872727 -3.70178 -0.403143 0
M  V30 24 H -2.39202 -0.930882 2.05018 0
M  V30 25 H -2.92408 -1.63933 0.553022 0
M  V30 END ATOM
M  V30 BEGIN BOND
M  V30 1 1 1 2
M  V30 2 1 2 3
M  V30 3 1 3 4
M  V30 4 2 4 5
M  V30 5 1 5 6
M  V30 6 1 6 7
M  V30 7 1 7 8
M  V30 8 2 6 9
M  V30 9 1 9 10
M  V30 10 2 10 11
M  V30 11 1 10 12
M  V30 12 1 3 13
M  V30 13 1 11 4
M  V30 14 1 1 14
M  V30 15 1 2 15
M  V30 16 1 2 16
M  V30 17 1 3 17 CFG=1
M  V30 18 1 7 18
M  V30 19 1 8 19
M  V30 20 1 8 20
M  V30 21 1 8 21
M  V30 22 1 12 22
M  V30 23 1 12 23
M  V30 24 1 13 24
M  V30 25 1 13 25
M  V30 END BOND
M  V30 END CTAB
M  END
