
     RDKit          3D

  0  0  0  0  0  0  0  0  0  0999 V3000
M  V30 BEGIN CTAB
M  V30 COUNTS 24 25 0 0 0
M  V30 BEGIN ATOM
M  V30 1 N 1.68596 -1.24034 -0.583398 0
M  V30 2 N 1.62724 0.123714 -0.28678 0
M  V30 3 C 2.71342 0.86786 0.0156424 0
M  V30 4 N 4.05858 0.368425 0.0779633 0
M  V30 5 N 2.27712 2.11313 0.23345 0
M  V30 6 N 0.965311 2.13331 0.070177 0
M  V30 7 C 0.536596 0.875354 -0.26093 0
M  V30 8 C -0.885836 0.501549 -0.518915 0 CFG=1
M  V30 9 C -1.16658 -0.961202 -0.244308 0
M  V30 10 C -2.6179 -0.934287 0.230297 0
M  V30 11 C -2.92964 0.489336 0.576387 0
M  V30 12 N -1.66763 1.20211 0.517147 0
M  V30 13 H 2.06504 -1.91789 0.126179 0
M  V30 14 H 1.36137 -1.62129 -1.50128 0
M  V30 15 H 4.38409 -0.298372 -0.622789 0
M  V30 16 H 4.68764 0.696313 0.843252 0
M  V30 17 H -1.2175 0.809753 -1.52054 0
M  V30 18 H -1.04158 -1.51831 -1.19109 0
M  V30 19 H -0.591951 -1.35813 0.590608 0
M  V30 20 H -2.77157 -1.55939 1.12956 0
M  V30 21 H -3.30331 -1.32118 -0.557892 0
M  V30 22 H -3.35637 0.59142 1.57951 0
M  V30 23 H -3.63172 0.964809 -0.140614 0
M  V30 24 H -1.18075 0.993317 1.43836 0
M  V30 END ATOM
M  V30 BEGIN BOND
M  V30 1 1 1 2
M  V30 2 1 2 3
M  V30 3 1 3 4
M  V30 4 2 3 5
M  V30 5 1 5 6
M  V30 6 2 6 7
M  V30 7 1 7 8
M  V30 8 1 8 9
M  V30 9 1 9 10
M  V30 10 1 10 11
M  V30 11 1 11 12
M  V30 12 1 7 2
M  V30 13 1 12 8
M  V30 14 1 1 13
M  V30 15 1 1 14
M  V30 16 1 4 15
M  V30 17 1 4 16
M  V30 18 1 8 17 CFG=3
M  V30 19 1 9 18
M  V30 20 1 9 19
M  V30 21 1 10 20
M  V30 22 1 10 21
M  V30 23 1 11 22
M  V30 24 1 11 23
M  V30 25 1 12 24
M  V30 END BOND
M  V30 END CTAB
M  END
