
     RDKit          3D

  0  0  0  0  0  0  0  0  0  0999 V3000
M  V30 BEGIN CTAB
M  V30 COUNTS 24 24 0 0 0
M  V30 BEGIN ATOM
M  V30 1 N 5.22988 0.568787 -0.231544 0
M  V30 2 N 3.85489 0.80463 -0.287718 0
M  V30 3 C 2.92721 -0.220595 -0.0245556 0
M  V30 4 O 3.31264 -1.37719 0.268409 0
M  V30 5 C 1.48136 0.065539 -0.0933301 0
M  V30 6 C 0.597876 -0.864314 0.145471 0
M  V30 7 C -0.847126 -0.681689 0.10301 0
M  V30 8 C -1.66022 -1.78202 0.38494 0
M  V30 9 C -3.02475 -1.6027 0.343085 0
M  V30 10 C -3.60287 -0.3893 0.0362161 0
M  V30 11 C -2.81041 0.703129 -0.243648 0
M  V30 12 C -1.428 0.528848 -0.203124 0
M  V30 13 N -3.37215 1.96656 -0.563276 0
M  V30 14 H 5.4562 -0.411062 -0.00192912 0
M  V30 15 H 5.69218 0.935054 -1.08772 0
M  V30 16 H 3.537 1.76595 -0.531221 0
M  V30 17 H 1.14582 1.05943 -0.345072 0
M  V30 18 H 1.00294 -1.85442 0.396055 0
M  V30 19 H -1.19599 -2.72938 0.624504 0
M  V30 20 H -3.62922 -2.48322 0.568548 0
M  V30 21 H -4.67733 -0.267789 0.00827132 0
M  V30 22 H -0.835683 1.39787 -0.425655 0
M  V30 23 H -3.16387 2.79537 0.0317862 0
M  V30 24 H -3.99036 2.07251 -1.38692 0
M  V30 END ATOM
M  V30 BEGIN BOND
M  V30 1 1 1 2
M  V30 2 1 2 3
M  V30 3 2 3 4
M  V30 4 1 3 5
M  V30 5 2 5 6
M  V30 6 1 6 7
M  V30 7 2 7 8
M  V30 8 1 8 9
M  V30 9 2 9 10
M  V30 10 1 10 11
M  V30 11 2 11 12
M  V30 12 1 11 13
M  V30 13 1 12 7
M  V30 14 1 1 14
M  V30 15 1 1 15
M  V30 16 1 2 16
M  V30 17 1 5 17
M  V30 18 1 6 18
M  V30 19 1 8 19
M  V30 20 1 9 20
M  V30 21 1 10 21
M  V30 22 1 12 22
M  V30 23 1 13 23
M  V30 24 1 13 24
M  V30 END BOND
M  V30 END CTAB
M  END
