
     RDKit          3D

  0  0  0  0  0  0  0  0  0  0999 V3000
M  V30 BEGIN CTAB
M  V30 COUNTS 23 23 0 0 0
M  V30 BEGIN ATOM
M  V30 1 N 2.53784 1.32577 0.0110296 0
M  V30 2 C 2.77228 -0.10361 0.0816971 0
M  V30 3 C 1.72699 -0.86776 -0.640097 0
M  V30 4 C 0.356969 -0.704679 -0.177925 0
M  V30 5 C -0.392818 0.305612 -0.747702 0
M  V30 6 C -1.7006 0.55892 -0.393755 0
M  V30 7 N -2.39253 1.6147 -1.02984 0
M  V30 8 C -2.31572 -0.228517 0.582518 0
M  V30 9 O -3.61732 0.0382307 0.921708 0
M  V30 10 C -1.56631 -1.23316 1.14742 0
M  V30 11 C -0.260352 -1.47212 0.781459 0
M  V30 12 H 3.22813 1.83487 -0.550209 0
M  V30 13 H 2.33142 1.75109 0.935177 0
M  V30 14 H 2.91499 -0.364784 1.13282 0
M  V30 15 H 3.74268 -0.284954 -0.429146 0
M  V30 16 H 1.76931 -0.602504 -1.71611 0
M  V30 17 H 1.96341 -1.96626 -0.606451 0
M  V30 18 H 0.0551629 0.949668 -1.52174 0
M  V30 19 H -2.42747 2.53921 -0.571281 0
M  V30 20 H -2.85815 1.4704 -1.93927 0
M  V30 21 H -4.14029 -0.461362 1.6 0
M  V30 22 H -2.03705 -1.84364 1.90158 0
M  V30 23 H 0.309426 -2.25513 1.22811 0
M  V30 END ATOM
M  V30 BEGIN BOND
M  V30 1 1 1 2
M  V30 2 1 2 3
M  V30 3 1 3 4
M  V30 4 2 4 5
M  V30 5 1 5 6
M  V30 6 1 6 7
M  V30 7 2 6 8
M  V30 8 1 8 9
M  V30 9 1 8 10
M  V30 10 2 10 11
M  V30 11 1 11 4
M  V30 12 1 1 12
M  V30 13 1 1 13
M  V30 14 1 2 14
M  V30 15 1 2 15
M  V30 16 1 3 16
M  V30 17 1 3 17
M  V30 18 1 5 18
M  V30 19 1 7 19
M  V30 20 1 7 20
M  V30 21 1 9 21
M  V30 22 1 10 22
M  V30 23 1 11 23
M  V30 END BOND
M  V30 END CTAB
M  END
