
     RDKit          3D

  0  0  0  0  0  0  0  0  0  0999 V3000
M  V30 BEGIN CTAB
M  V30 COUNTS 43 45 0 0 0
M  V30 BEGIN ATOM
M  V30 1 C -4.8954 -1.74708 1.13109 0
M  V30 2 C -3.6862 -1.02831 1.65153 0
M  V30 3 C -2.59221 -0.911531 0.592511 0
M  V30 4 C -1.43971 -0.188503 1.19739 0
M  V30 5 N -0.311408 0.0163609 0.34692 0
M  V30 6 C -0.245795 1.20593 -0.431644 0
M  V30 7 N -1.23574 2.13427 -0.375404 0
M  V30 8 C -1.14271 3.24167 -1.11943 0
M  V30 9 N -2.20148 4.21071 -1.04452 0
M  V30 10 C -0.0928105 3.52642 -1.964 0
M  V30 11 C 0.913049 2.59082 -2.02572 0
M  V30 12 C 0.829365 1.43294 -1.25627 0
M  V30 13 O 1.86457 0.506234 -1.34134 0
M  V30 14 C 1.82447 -0.774189 -0.784552 0
M  V30 15 C 0.756288 -0.909611 0.241866 0
M  V30 16 O 0.831375 -1.89548 1.03338 0
M  V30 17 C 3.1699 -1.10279 -0.231876 0
M  V30 18 C 3.72043 -2.33514 -0.474571 0
M  V30 19 C 4.96183 -2.6223 0.0422109 0
M  V30 20 C 5.65739 -1.70315 0.792981 0
M  V30 21 C 5.10079 -0.474951 1.03078 0
M  V30 22 C 3.85675 -0.177562 0.517006 0
M  V30 23 N -3.16803 -0.314814 -0.567436 0
M  V30 24 H -4.68153 -2.52296 0.389305 0
M  V30 25 H -5.39414 -2.25336 1.99402 0
M  V30 26 H -5.58872 -0.99527 0.704173 0
M  V30 27 H -3.24981 -1.54351 2.51409 0
M  V30 28 H -3.96948 0.00393895 1.98485 0
M  V30 29 H -2.29702 -1.95961 0.360567 0
M  V30 30 H -1.1297 -0.694355 2.13507 0
M  V30 31 H -1.80014 0.827391 1.53574 0
M  V30 32 H -2.3619 4.74965 -0.160518 0
M  V30 33 H -2.82552 4.40549 -1.83798 0
M  V30 34 H -0.0749105 4.45699 -2.55097 0
M  V30 35 H 1.77433 2.75539 -2.67585 0
M  V30 36 H 1.55785 -1.48595 -1.6059 0
M  V30 37 H 3.22005 -3.09909 -1.05855 0
M  V30 38 H 5.42956 -3.57624 -0.124227 0
M  V30 39 H 6.6495 -1.95845 1.19496 0
M  V30 40 H 5.64327 0.256748 1.62267 0
M  V30 41 H 3.43671 0.807489 0.721309 0
M  V30 42 H -4.18971 -0.426254 -0.667152 0
M  V30 43 H -2.62339 -0.427965 -1.4365 0
M  V30 END ATOM
M  V30 BEGIN BOND
M  V30 1 1 1 2
M  V30 2 1 2 3
M  V30 3 1 3 4
M  V30 4 1 4 5
M  V30 5 1 5 6
M  V30 6 2 6 7
M  V30 7 1 7 8
M  V30 8 1 8 9
M  V30 9 2 8 10
M  V30 10 1 10 11
M  V30 11 2 11 12
M  V30 12 1 12 13
M  V30 13 1 13 14
M  V30 14 1 14 15
M  V30 15 2 15 16
M  V30 16 1 14 17
M  V30 17 2 17 18
M  V30 18 1 18 19
M  V30 19 2 19 20
M  V30 20 1 20 21
M  V30 21 2 21 22
M  V30 22 1 3 23
M  V30 23 1 15 5
M  V30 24 1 22 17
M  V30 25 1 12 6
M  V30 26 1 1 24
M  V30 27 1 1 25
M  V30 28 1 1 26
M  V30 29 1 2 27
M  V30 30 1 2 28
M  V30 31 1 3 29
M  V30 32 1 4 30
M  V30 33 1 4 31
M  V30 34 1 9 32
M  V30 35 1 9 33
M  V30 36 1 10 34
M  V30 37 1 11 35
M  V30 38 1 14 36
M  V30 39 1 18 37
M  V30 40 1 19 38
M  V30 41 1 20 39
M  V30 42 1 21 40
M  V30 43 1 22 41
M  V30 44 1 23 42
M  V30 45 1 23 43
M  V30 END BOND
M  V30 END CTAB
M  END
