
     RDKit          3D

  0  0  0  0  0  0  0  0  0  0999 V3000
M  V30 BEGIN CTAB
M  V30 COUNTS 30 31 0 0 0
M  V30 BEGIN ATOM
M  V30 1 N 5.97942 0.565449 -0.11637 0
M  V30 2 C 4.5658 0.301355 -0.124959 0
M  V30 3 C 4.0267 -0.736626 -0.838686 0
M  V30 4 C 2.68303 -0.994204 -0.852119 0
M  V30 5 C 1.80648 -0.187491 -0.122164 0
M  V30 6 N 0.430205 -0.46956 -0.127399 0
M  V30 7 C -0.601648 0.382639 0.305226 0
M  V30 8 O -0.467248 1.53262 0.758535 0
M  V30 9 C -1.99844 -0.111943 0.223866 0
M  V30 10 C -2.29554 -1.44641 0.160069 0
M  V30 11 C -3.62042 -1.82706 0.073396 0
M  V30 12 C -4.6492 -0.92776 0.0487234 0
M  V30 13 C -4.30381 0.427195 0.116138 0
M  V30 14 N -5.31012 1.41751 0.0960965 0
M  V30 15 C -3.00158 0.824278 0.202066 0
M  V30 16 C 2.33073 0.843903 0.589201 0
M  V30 17 C 3.69675 1.08724 0.588526 0
M  V30 18 H 6.41752 0.718632 -1.04992 0
M  V30 19 H 6.47789 0.589586 0.79195 0
M  V30 20 H 4.70466 -1.38001 -1.41801 0
M  V30 21 H 2.29063 -1.83699 -1.43804 0
M  V30 22 H 0.186288 -1.43627 -0.505904 0
M  V30 23 H -1.50859 -2.21099 0.180663 0
M  V30 24 H -3.83008 -2.86832 0.0246837 0
M  V30 25 H -5.69375 -1.17715 -0.0178158 0
M  V30 26 H -6.02014 1.45546 -0.654088 0
M  V30 27 H -5.33554 2.12277 0.853299 0
M  V30 28 H -2.79383 1.8969 0.251846 0
M  V30 29 H 1.7533 1.53448 1.20495 0
M  V30 30 H 4.08052 1.91077 1.16075 0
M  V30 END ATOM
M  V30 BEGIN BOND
M  V30 1 1 1 2
M  V30 2 2 2 3
M  V30 3 1 3 4
M  V30 4 2 4 5
M  V30 5 1 5 6
M  V30 6 1 6 7
M  V30 7 2 7 8
M  V30 8 1 7 9
M  V30 9 2 9 10
M  V30 10 1 10 11
M  V30 11 2 11 12
M  V30 12 1 12 13
M  V30 13 1 13 14
M  V30 14 2 13 15
M  V30 15 1 5 16
M  V30 16 2 16 17
M  V30 17 1 17 2
M  V30 18 1 15 9
M  V30 19 1 1 18
M  V30 20 1 1 19
M  V30 21 1 3 20
M  V30 22 1 4 21
M  V30 23 1 6 22
M  V30 24 1 10 23
M  V30 25 1 11 24
M  V30 26 1 12 25
M  V30 27 1 14 26
M  V30 28 1 14 27
M  V30 29 1 15 28
M  V30 30 1 16 29
M  V30 31 1 17 30
M  V30 END BOND
M  V30 END CTAB
M  END
