
     RDKit          3D

  0  0  0  0  0  0  0  0  0  0999 V3000
M  V30 BEGIN CTAB
M  V30 COUNTS 52 51 0 0 0
M  V30 BEGIN ATOM
M  V30 1 N 7.69761 -0.485011 -1.29352 0
M  V30 2 C 7.97679 0.6399 -0.459786 0
M  V30 3 C 7.16722 0.780542 0.780245 0
M  V30 4 N 5.78412 0.905633 0.638009 0
M  V30 5 C 5.05679 -0.259012 0.315705 0
M  V30 6 C 3.56176 0.0486687 0.088295 0
M  V30 7 N 2.88483 -1.17738 -0.190667 0
M  V30 8 C 1.47587 -0.924215 -0.534522 0
M  V30 9 C 0.788073 -0.416889 0.675306 0
M  V30 10 N -0.648472 -0.113175 0.466676 0
M  V30 11 C -1.0407 0.465871 1.72052 0
M  V30 12 C -2.44459 0.878475 1.90762 0
M  V30 13 N -3.44781 -0.0932391 1.81143 0
M  V30 14 C -3.85529 -0.635537 0.588554 0
M  V30 15 C -4.69487 0.316982 -0.259498 0
M  V30 16 N -5.0822 -0.331991 -1.48051 0
M  V30 17 C -6.0145 0.483967 -2.24505 0
M  V30 18 C -7.34199 0.571938 -1.51213 0
M  V30 19 N -7.84199 -0.795648 -1.34121 0
M  V30 20 H 8.59693 -0.825023 -1.75919 0
M  V30 21 H 7.01302 -0.188117 -2.06678 0
M  V30 22 H 7.87664 1.58439 -1.07973 0
M  V30 23 H 9.09061 0.643426 -0.175834 0
M  V30 24 H 7.5825 1.66993 1.37872 0
M  V30 25 H 7.38918 -0.0889317 1.50952 0
M  V30 26 H 5.31452 1.53086 1.31445 0
M  V30 27 H 5.41226 -0.911964 -0.487285 0
M  V30 28 H 5.08715 -0.926746 1.24274 0
M  V30 29 H 3.37368 0.769764 -0.699268 0
M  V30 30 H 3.25909 0.512158 1.06148 0
M  V30 31 H 2.94434 -1.76662 0.678364 0
M  V30 32 H 0.987572 -1.85499 -0.896749 0
M  V30 33 H 1.47592 -0.165572 -1.33639 0
M  V30 34 H 1.19462 0.548083 1.0602 0
M  V30 35 H 0.810237 -1.13029 1.53358 0
M  V30 36 H -0.678274 0.515739 -0.356766 0
M  V30 37 H -0.372385 1.37873 1.85559 0
M  V30 38 H -0.713191 -0.297117 2.49661 0
M  V30 39 H -2.63483 1.80728 1.29212 0
M  V30 40 H -2.49243 1.29278 2.96551 0
M  V30 41 H -4.03274 -0.285186 2.63116 0
M  V30 42 H -4.49901 -1.55101 0.756744 0
M  V30 43 H -2.98487 -1.00925 -0.00369566 0
M  V30 44 H -5.62972 0.475831 0.362054 0
M  V30 45 H -4.14802 1.24976 -0.371265 0
M  V30 46 H -5.35898 -1.31175 -1.41271 0
M  V30 47 H -6.15293 0.146643 -3.28772 0
M  V30 48 H -5.57148 1.49217 -2.25447 0
M  V30 49 H -7.26292 1.11446 -0.567258 0
M  V30 50 H -8.12234 1.06428 -2.16204 0
M  V30 51 H -8.10018 -1.21867 -2.24446 0
M  V30 52 H -8.63461 -0.826084 -0.652692 0
M  V30 END ATOM
M  V30 BEGIN BOND
M  V30 1 1 1 2
M  V30 2 1 2 3
M  V30 3 1 3 4
M  V30 4 1 4 5
M  V30 5 1 5 6
M  V30 6 1 6 7
M  V30 7 1 7 8
M  V30 8 1 8 9
M  V30 9 1 9 10
M  V30 10 1 10 11
M  V30 11 1 11 12
M  V30 12 1 12 13
M  V30 13 1 13 14
M  V30 14 1 14 15
M  V30 15 1 15 16
M  V30 16 1 16 17
M  V30 17 1 17 18
M  V30 18 1 18 19
M  V30 19 1 1 20
M  V30 20 1 1 21
M  V30 21 1 2 22
M  V30 22 1 2 23
M  V30 23 1 3 24
M  V30 24 1 3 25
M  V30 25 1 4 26
M  V30 26 1 5 27
M  V30 27 1 5 28
M  V30 28 1 6 29
M  V30 29 1 6 30
M  V30 30 1 7 31
M  V30 31 1 8 32
M  V30 32 1 8 33
M  V30 33 1 9 34
M  V30 34 1 9 35
M  V30 35 1 10 36
M  V30 36 1 11 37
M  V30 37 1 11 38
M  V30 38 1 12 39
M  V30 39 1 12 40
M  V30 40 1 13 41
M  V30 41 1 14 42
M  V30 42 1 14 43
M  V30 43 1 15 44
M  V30 44 1 15 45
M  V30 45 1 16 46
M  V30 46 1 17 47
M  V30 47 1 17 48
M  V30 48 1 18 49
M  V30 49 1 18 50
M  V30 50 1 19 51
M  V30 51 1 19 52
M  V30 END BOND
M  V30 END CTAB
M  END
