
     RDKit          3D

  0  0  0  0  0  0  0  0  0  0999 V3000
M  V30 BEGIN CTAB
M  V30 COUNTS 48 51 0 0 0
M  V30 BEGIN ATOM
M  V30 1 N -4.10384 -1.44872 0.691653 0
M  V30 2 C -3.81771 -0.739796 -0.521032 0
M  V30 3 C -4.88701 0.357936 -0.636623 0
M  V30 4 C -4.41125 1.36241 0.376447 0
M  V30 5 C -2.93551 1.09519 0.613455 0
M  V30 6 C -2.58263 0.118858 -0.470255 0
M  V30 7 N -1.35597 -0.552338 -0.290805 0
M  V30 8 C -0.356041 0.207068 0.368061 0
M  V30 9 C 0.962457 -0.496181 0.520294 0
M  V30 10 N 0.826231 -1.71524 1.28999 0
M  V30 11 C 1.90231 0.421022 1.23703 0
M  V30 12 C 3.15346 -0.307897 1.59243 0
M  V30 13 C 3.81181 -0.779944 0.310476 0
M  V30 14 C 2.85705 -1.62792 -0.505931 0
M  V30 15 C 1.58039 -0.875725 -0.804627 0
M  V30 16 C 1.95176 0.339045 -1.62685 0
M  V30 17 C 2.91987 1.18795 -0.866847 0
M  V30 18 C 2.28366 1.6284 0.414999 0
M  V30 19 C 4.18489 0.42715 -0.502057 0
M  V30 20 H -4.65699 -0.838886 1.36814 0
M  V30 21 H -4.73238 -2.26832 0.437542 0
M  V30 22 H -3.88175 -1.36684 -1.42861 0
M  V30 23 H -4.75942 0.837489 -1.64984 0
M  V30 24 H -5.89411 -0.0296606 -0.463208 0
M  V30 25 H -4.53556 2.41206 0.00148115 0
M  V30 26 H -5.01406 1.2919 1.30382 0
M  V30 27 H -2.83994 0.656535 1.62209 0
M  V30 28 H -2.37412 2.05074 0.517782 0
M  V30 29 H -2.60331 0.723111 -1.42944 0
M  V30 30 H -1.07312 -1.25299 -0.968849 0
M  V30 31 H -0.233594 1.17492 -0.132827 0
M  V30 32 H -0.712736 0.422837 1.41293 0
M  V30 33 H -0.0406336 -2.22633 1.05147 0
M  V30 34 H 0.757827 -1.44224 2.29596 0
M  V30 35 H 1.444 0.771376 2.20676 0
M  V30 36 H 2.92513 -1.15648 2.27004 0
M  V30 37 H 3.90039 0.317974 2.12242 0
M  V30 38 H 4.70107 -1.3999 0.521887 0
M  V30 39 H 3.35892 -1.86029 -1.46643 0
M  V30 40 H 2.64952 -2.58538 0.0306465 0
M  V30 41 H 0.933411 -1.54201 -1.39884 0
M  V30 42 H 2.31312 -0.0171644 -2.60029 0
M  V30 43 H 1.04588 0.949476 -1.81191 0
M  V30 44 H 3.23606 2.04346 -1.48963 0
M  V30 45 H 3.06851 2.16499 1.00035 0
M  V30 46 H 1.43772 2.28819 0.191472 0
M  V30 47 H 4.76775 0.151736 -1.41618 0
M  V30 48 H 4.82846 1.12842 0.0570426 0
M  V30 END ATOM
M  V30 BEGIN BOND
M  V30 1 1 1 2
M  V30 2 1 2 3
M  V30 3 1 3 4
M  V30 4 1 4 5
M  V30 5 1 5 6
M  V30 6 1 6 7
M  V30 7 1 7 8
M  V30 8 1 8 9
M  V30 9 1 9 10
M  V30 10 1 9 11
M  V30 11 1 11 12
M  V30 12 1 12 13
M  V30 13 1 13 14
M  V30 14 1 14 15
M  V30 15 1 15 16
M  V30 16 1 16 17
M  V30 17 1 17 18
M  V30 18 1 17 19
M  V30 19 1 6 2
M  V30 20 1 15 9
M  V30 21 1 18 11
M  V30 22 1 19 13
M  V30 23 1 1 20
M  V30 24 1 1 21
M  V30 25 1 2 22
M  V30 26 1 3 23
M  V30 27 1 3 24
M  V30 28 1 4 25
M  V30 29 1 4 26
M  V30 30 1 5 27
M  V30 31 1 5 28
M  V30 32 1 6 29
M  V30 33 1 7 30
M  V30 34 1 8 31
M  V30 35 1 8 32
M  V30 36 1 10 33
M  V30 37 1 10 34
M  V30 38 1 11 35
M  V30 39 1 12 36
M  V30 40 1 12 37
M  V30 41 1 13 38
M  V30 42 1 14 39
M  V30 43 1 14 40
M  V30 44 1 15 41
M  V30 45 1 16 42
M  V30 46 1 16 43
M  V30 47 1 17 44
M  V30 48 1 18 45
M  V30 49 1 18 46
M  V30 50 1 19 47
M  V30 51 1 19 48
M  V30 END BOND
M  V30 END CTAB
M  END
