
     RDKit          3D

  0  0  0  0  0  0  0  0  0  0999 V3000
M  V30 BEGIN CTAB
M  V30 COUNTS 25 26 0 0 0
M  V30 BEGIN ATOM
M  V30 1 N 5.18656 0.44348 0.636335 0
M  V30 2 C 4.37738 -0.58705 0.0769591 0
M  V30 3 C 2.93979 -0.134175 0.172887 0
M  V30 4 N 2.43594 0.972022 0.658788 0
M  V30 5 C 1.15553 1.17687 0.649455 0
M  V30 6 C 0.361843 0.198795 0.116168 0
M  V30 7 S 1.52513 -0.966963 -0.342997 0
M  V30 8 C -1.09307 0.190967 -0.00927177 0
M  V30 9 C -1.833 1.26211 0.440118 0
M  V30 10 C -3.21699 1.27384 0.329961 0
M  V30 11 C -3.8321 0.19199 -0.237875 0
M  V30 12 C -3.12864 -0.910252 -0.70516 0
M  V30 13 C -1.75902 -0.885761 -0.578915 0
M  V30 14 N -3.81668 -2.00582 -1.2856 0
M  V30 15 H 5.62127 0.988066 -0.142066 0
M  V30 16 H 4.62032 1.13199 1.18485 0
M  V30 17 H 4.42554 -1.54857 0.622086 0
M  V30 18 H 4.64909 -0.764956 -0.975268 0
M  V30 19 H 0.708808 2.1067 1.05595 0
M  V30 20 H -1.31162 2.09491 0.881243 0
M  V30 21 H -3.73434 2.13826 0.69929 0
M  V30 22 H -4.92054 0.179458 -0.334895 0
M  V30 23 H -1.20029 -1.72551 -0.933006 0
M  V30 24 H -4.66474 -2.3791 -0.808167 0
M  V30 25 H -3.49619 -2.4413 -2.16993 0
M  V30 END ATOM
M  V30 BEGIN BOND
M  V30 1 1 1 2
M  V30 2 1 2 3
M  V30 3 2 3 4
M  V30 4 1 4 5
M  V30 5 2 5 6
M  V30 6 1 6 7
M  V30 7 1 6 8
M  V30 8 2 8 9
M  V30 9 1 9 10
M  V30 10 2 10 11
M  V30 11 1 11 12
M  V30 12 2 12 13
M  V30 13 1 12 14
M  V30 14 1 7 3
M  V30 15 1 13 8
M  V30 16 1 1 15
M  V30 17 1 1 16
M  V30 18 1 2 17
M  V30 19 1 2 18
M  V30 20 1 5 19
M  V30 21 1 9 20
M  V30 22 1 10 21
M  V30 23 1 11 22
M  V30 24 1 13 23
M  V30 25 1 14 24
M  V30 26 1 14 25
M  V30 END BOND
M  V30 END CTAB
M  END
