
     RDKit          3D

  0  0  0  0  0  0  0  0  0  0999 V3000
M  V30 BEGIN CTAB
M  V30 COUNTS 47 48 0 0 0
M  V30 BEGIN ATOM
M  V30 1 C -4.36706 -0.937164 -1.28063 0
M  V30 2 C -3.16231 -0.505286 -2.097 0
M  V30 3 C -1.9089 -1.15325 -1.68145 0
M  V30 4 C -1.42722 -0.985114 -0.291985 0
M  V30 5 C -1.15295 0.415903 0.118435 0
M  V30 6 C -0.110475 1.0659 -0.503335 0
M  V30 7 C 0.191262 2.35486 -0.142091 0
M  V30 8 C -0.522872 3.02 0.829695 0
M  V30 9 C -1.5651 2.33863 1.43581 0
M  V30 10 C -1.88657 1.05094 1.0931 0
M  V30 11 N -0.15701 -1.70481 -0.207192 0
M  V30 12 C 0.0450537 -2.81334 0.648394 0
M  V30 13 O -0.919146 -3.18383 1.36277 0
M  V30 14 C 1.3054 -3.54687 0.744175 0
M  V30 15 S 2.63734 -2.8945 -0.273048 0
M  V30 16 C 3.13043 -1.28489 0.382469 0
M  V30 17 N 4.10561 -0.569207 -0.202882 0
M  V30 18 C 4.49069 0.62487 0.2741 0
M  V30 19 N 5.5097 1.40718 -0.311205 0
M  V30 20 C 3.87711 1.14794 1.39856 0
M  V30 21 C 2.87417 0.421303 2.00786 0
M  V30 22 N 2.54341 -0.767316 1.47162 0
M  V30 23 N 2.25309 0.960475 3.15291 0
M  V30 24 C -3.1916 0.957503 -2.29645 0
M  V30 25 H -4.16948 -0.812805 -0.180634 0
M  V30 26 H -4.61144 -2.00159 -1.42874 0
M  V30 27 H -5.25045 -0.300922 -1.49063 0
M  V30 28 H -3.39127 -0.94839 -3.13672 0
M  V30 29 H -2.02051 -2.25801 -1.91322 0
M  V30 30 H -1.06103 -0.84082 -2.36192 0
M  V30 31 H -2.09883 -1.49126 0.453428 0
M  V30 32 H 0.484503 0.568845 -1.28765 0
M  V30 33 H 1.01488 2.85437 -0.640937 0
M  V30 34 H -0.294718 4.03217 1.12119 0
M  V30 35 H -2.10868 2.8921 2.19903 0
M  V30 36 H -2.70235 0.526879 1.57233 0
M  V30 37 H 0.626956 -1.38918 -0.802925 0
M  V30 38 H 1.62155 -3.54177 1.81043 0
M  V30 39 H 1.13876 -4.6212 0.494874 0
M  V30 40 H 6.50852 1.22543 -0.0874624 0
M  V30 41 H 5.24593 2.16558 -0.967353 0
M  V30 42 H 4.18493 2.12051 1.79391 0
M  V30 43 H 2.24203 1.98584 3.3054 0
M  V30 44 H 1.81112 0.328343 3.83545 0
M  V30 45 H -3.95988 1.17447 -3.11032 0
M  V30 46 H -2.24847 1.34149 -2.75974 0
M  V30 47 H -3.55412 1.56998 -1.45163 0
M  V30 END ATOM
M  V30 BEGIN BOND
M  V30 1 1 1 2
M  V30 2 1 2 3
M  V30 3 1 3 4
M  V30 4 1 4 5
M  V30 5 2 5 6
M  V30 6 1 6 7
M  V30 7 2 7 8
M  V30 8 1 8 9
M  V30 9 2 9 10
M  V30 10 1 4 11
M  V30 11 1 11 12
M  V30 12 2 12 13
M  V30 13 1 12 14
M  V30 14 1 14 15
M  V30 15 1 15 16
M  V30 16 2 16 17
M  V30 17 1 17 18
M  V30 18 1 18 19
M  V30 19 2 18 20
M  V30 20 1 20 21
M  V30 21 2 21 22
M  V30 22 1 21 23
M  V30 23 1 2 24
M  V30 24 1 10 5
M  V30 25 1 22 16
M  V30 26 1 1 25
M  V30 27 1 1 26
M  V30 28 1 1 27
M  V30 29 1 2 28
M  V30 30 1 3 29
M  V30 31 1 3 30
M  V30 32 1 4 31
M  V30 33 1 6 32
M  V30 34 1 7 33
M  V30 35 1 8 34
M  V30 36 1 9 35
M  V30 37 1 10 36
M  V30 38 1 11 37
M  V30 39 1 14 38
M  V30 40 1 14 39
M  V30 41 1 19 40
M  V30 42 1 19 41
M  V30 43 1 20 42
M  V30 44 1 23 43
M  V30 45 1 23 44
M  V30 46 1 24 45
M  V30 47 1 24 46
M  V30 48 1 24 47
M  V30 END BOND
M  V30 END CTAB
M  END
