
     RDKit          3D

  0  0  0  0  0  0  0  0  0  0999 V3000
M  V30 BEGIN CTAB
M  V30 COUNTS 62 64 0 0 0
M  V30 BEGIN ATOM
M  V30 1 C 7.85971 4.41743 -0.66289 0
M  V30 2 O 7.76008 3.00897 -0.696845 0
M  V30 3 C 6.5244 2.42601 -0.461043 0
M  V30 4 O 5.55247 3.1489 -0.229677 0
M  V30 5 C 6.34385 0.925139 -0.481556 0
M  V30 6 C 4.91697 0.635156 -0.1956 0
M  V30 7 C 4.58976 -0.819242 -0.214159 0 CFG=2
M  V30 8 N 3.16141 -0.913817 0.0774679 0
M  V30 9 C 2.29781 -1.42177 -0.905161 0
M  V30 10 O 2.79177 -1.78203 -2.01534 0
M  V30 11 C 0.839323 -1.54884 -0.686894 0
M  V30 12 C 0.22316 -1.15388 0.475781 0
M  V30 13 C -1.14722 -1.29293 0.634512 0
M  V30 14 C -1.95643 -1.82905 -0.354671 0
M  V30 15 N -3.35584 -1.97176 -0.198272 0
M  V30 16 C -3.97541 -1.5473 0.999736 0
M  V30 17 C -5.4571 -1.74275 1.06093 0
M  V30 18 C -6.20617 -1.00656 -0.0204769 0
M  V30 19 C -6.1411 0.46943 0.159661 0
M  V30 20 C -5.97615 1.01833 1.41121 0
M  V30 21 N -5.85797 0.18264 2.5827 0
M  V30 22 C -5.9218 -1.2147 2.36101 0
M  V30 23 O -6.35949 -1.9834 3.2413 0
M  V30 24 N -5.9248 2.35931 1.52433 0
M  V30 25 C -6.0313 3.15265 0.444557 0
M  V30 26 N -5.97208 4.58478 0.601939 0
M  V30 27 N -6.19195 2.61366 -0.773782 0
M  V30 28 C -6.25237 1.26266 -0.960211 0
M  V30 29 N -6.42304 0.734854 -2.26546 0
M  V30 30 C -1.32031 -2.22156 -1.51845 0
M  V30 31 C 0.0424648 -2.08431 -1.67885 0
M  V30 32 C 5.30174 -1.65859 0.757307 0
M  V30 33 O 4.68156 -2.25175 1.67206 0
M  V30 34 O 6.66801 -1.8088 0.674995 0
M  V30 35 C 7.42663 -2.59884 1.56673 0
M  V30 36 H 7.40998 4.74685 0.304716 0
M  V30 37 H 8.93451 4.67729 -0.727082 0
M  V30 38 H 7.31327 4.9112 -1.47467 0
M  V30 39 H 6.99852 0.513004 0.341721 0
M  V30 40 H 6.59711 0.501304 -1.47048 0
M  V30 41 H 4.56816 1.0858 0.776289 0
M  V30 42 H 4.22865 1.11176 -0.955814 0
M  V30 43 H 4.79419 -1.18711 -1.25905 0
M  V30 44 H 2.81023 -0.606367 0.99948 0
M  V30 45 H 0.814244 -0.730192 1.27475 0
M  V30 46 H -1.65049 -0.988539 1.54101 0
M  V30 47 H -3.89916 -2.3876 -0.972273 0
M  V30 48 H -3.54657 -2.16453 1.84289 0
M  V30 49 H -3.67834 -0.506351 1.23677 0
M  V30 50 H -5.74289 -2.81028 0.987563 0
M  V30 51 H -5.95713 -1.33073 -1.03449 0
M  V30 52 H -7.29337 -1.27398 0.126819 0
M  V30 53 H -5.7351 0.599119 3.52439 0
M  V30 54 H -6.3167 4.96757 1.48909 0
M  V30 55 H -5.58823 5.15293 -0.180674 0
M  V30 56 H -5.62185 0.603507 -2.90388 0
M  V30 57 H -7.37848 0.477993 -2.57595 0
M  V30 58 H -1.92623 -2.64814 -2.31937 0
M  V30 59 H 0.550681 -2.38995 -2.59009 0
M  V30 60 H 8.19313 -1.97489 2.05524 0
M  V30 61 H 7.87034 -3.45986 1.00291 0
M  V30 62 H 6.74094 -2.97785 2.36351 0
M  V30 END ATOM
M  V30 BEGIN BOND
M  V30 1 1 1 2
M  V30 2 1 2 3
M  V30 3 2 3 4
M  V30 4 1 3 5
M  V30 5 1 5 6
M  V30 6 1 6 7
M  V30 7 1 7 8
M  V30 8 1 8 9
M  V30 9 2 9 10
M  V30 10 1 9 11
M  V30 11 2 11 12
M  V30 12 1 12 13
M  V30 13 2 13 14
M  V30 14 1 14 15
M  V30 15 1 15 16
M  V30 16 1 16 17
M  V30 17 1 17 18
M  V30 18 1 18 19
M  V30 19 2 19 20
M  V30 20 1 20 21
M  V30 21 1 21 22
M  V30 22 2 22 23
M  V30 23 1 20 24
M  V30 24 2 24 25
M  V30 25 1 25 26
M  V30 26 1 25 27
M  V30 27 2 27 28
M  V30 28 1 28 29
M  V30 29 1 14 30
M  V30 30 2 30 31
M  V30 31 1 7 32
M  V30 32 2 32 33
M  V30 33 1 32 34
M  V30 34 1 34 35
M  V30 35 1 31 11
M  V30 36 1 22 17
M  V30 37 1 28 19
M  V30 38 1 1 36
M  V30 39 1 1 37
M  V30 40 1 1 38
M  V30 41 1 5 39
M  V30 42 1 5 40
M  V30 43 1 6 41
M  V30 44 1 6 42
M  V30 45 1 7 43 CFG=3
M  V30 46 1 8 44
M  V30 47 1 12 45
M  V30 48 1 13 46
M  V30 49 1 15 47
M  V30 50 1 16 48
M  V30 51 1 16 49
M  V30 52 1 17 50
M  V30 53 1 18 51
M  V30 54 1 18 52
M  V30 55 1 21 53
M  V30 56 1 26 54
M  V30 57 1 26 55
M  V30 58 1 29 56
M  V30 59 1 29 57
M  V30 60 1 30 58
M  V30 61 1 31 59
M  V30 62 1 35 60
M  V30 63 1 35 61
M  V30 64 1 35 62
M  V30 END BOND
M  V30 END CTAB
M  END
