
     RDKit          3D

  0  0  0  0  0  0  0  0  0  0999 V3000
M  V30 BEGIN CTAB
M  V30 COUNTS 30 31 0 0 0
M  V30 BEGIN ATOM
M  V30 1 C 3.40364 -0.981102 0.869952 0
M  V30 2 C 3.00536 0.0861338 -0.112675 0
M  V30 3 C 3.98477 0.261356 -1.2539 0
M  V30 4 C 2.37571 1.35186 0.366801 0
M  V30 5 C 1.54544 0.341434 -0.39245 0
M  V30 6 N 0.548857 -0.405937 0.332096 0
M  V30 7 C -0.827738 -0.185648 0.0955784 0
M  V30 8 C -1.29218 0.735497 -0.818633 0
M  V30 9 C -2.64151 0.936214 -1.03599 0
M  V30 10 C -3.53767 0.184361 -0.308327 0
M  V30 11 C -3.08136 -0.729281 0.598396 0
M  V30 12 N -1.76456 -0.89408 0.779888 0
M  V30 13 N -3.95068 -1.53641 1.38092 0
M  V30 14 N -4.94294 0.34396 -0.486009 0
M  V30 15 H 2.76601 -1.04542 1.75112 0
M  V30 16 H 3.42061 -1.95352 0.327975 0
M  V30 17 H 4.43677 -0.752333 1.20448 0
M  V30 18 H 4.75819 -0.536098 -1.26586 0
M  V30 19 H 3.39586 0.230666 -2.2091 0
M  V30 20 H 4.43586 1.26387 -1.16695 0
M  V30 21 H 2.65219 2.31185 -0.136255 0
M  V30 22 H 2.15197 1.49629 1.44576 0
M  V30 23 H 1.32062 0.549776 -1.48058 0
M  V30 24 H 0.857949 -1.1068 1.02864 0
M  V30 25 H -0.566878 1.30246 -1.36621 0
M  V30 26 H -2.98315 1.65498 -1.74906 0
M  V30 27 H -4.2745 -2.43388 0.957499 0
M  V30 28 H -4.27518 -1.28953 2.32964 0
M  V30 29 H -5.56506 0.143208 0.300681 0
M  V30 30 H -5.35637 0.656125 -1.38387 0
M  V30 END ATOM
M  V30 BEGIN BOND
M  V30 1 1 1 2
M  V30 2 1 2 3
M  V30 3 1 2 4
M  V30 4 1 4 5
M  V30 5 1 5 6
M  V30 6 1 6 7
M  V30 7 2 7 8
M  V30 8 1 8 9
M  V30 9 2 9 10
M  V30 10 1 10 11
M  V30 11 2 11 12
M  V30 12 1 11 13
M  V30 13 1 10 14
M  V30 14 1 5 2
M  V30 15 1 12 7
M  V30 16 1 1 15
M  V30 17 1 1 16
M  V30 18 1 1 17
M  V30 19 1 3 18
M  V30 20 1 3 19
M  V30 21 1 3 20
M  V30 22 1 4 21
M  V30 23 1 4 22
M  V30 24 1 5 23
M  V30 25 1 6 24
M  V30 26 1 8 25
M  V30 27 1 9 26
M  V30 28 1 13 27
M  V30 29 1 13 28
M  V30 30 1 14 29
M  V30 31 1 14 30
M  V30 END BOND
M  V30 END CTAB
M  END
