
     RDKit          3D

  0  0  0  0  0  0  0  0  0  0999 V3000
M  V30 BEGIN CTAB
M  V30 COUNTS 46 48 0 0 0
M  V30 BEGIN ATOM
M  V30 1 O 0.834104 1.71002 -0.241822 0
M  V30 2 C 0.197183 0.654307 0.0242111 0
M  V30 3 C -1.29364 0.87221 0.135867 0
M  V30 4 C -1.54171 2.32915 0.0406122 0
M  V30 5 C -1.69249 3.10021 1.19263 0
M  V30 6 C -1.93278 4.4317 1.04309 0
M  V30 7 C -2.0213 4.99647 -0.224305 0
M  V30 8 C -1.87117 4.2291 -1.37978 0
M  V30 9 C -1.63167 2.89415 -1.21366 0
M  V30 10 S -2.2285 0.0249465 -1.11088 0
M  V30 11 C -3.39267 -1.12484 -0.424609 0
M  V30 12 N -4.07366 -1.97138 -1.28979 0
M  V30 13 C -4.98567 -2.81976 -0.81672 0
M  V30 14 N -5.69547 -3.69497 -1.68732 0
M  V30 15 C -5.25789 -2.85899 0.544333 0
M  V30 16 C -4.57271 -2.01014 1.40366 0
M  V30 17 O -4.80438 -2.03057 2.63371 0
M  V30 18 N -3.64836 -1.1562 0.888131 0
M  V30 19 N 0.875316 -0.53986 0.187672 0
M  V30 20 C 2.28416 -0.710333 0.0615944 0
M  V30 21 C 2.87319 -1.78876 0.714455 0
M  V30 22 C 4.20987 -1.99251 0.588348 0
M  V30 23 C 4.99682 -1.14473 -0.175474 0
M  V30 24 C 4.4299 -0.0830797 -0.820246 0
M  V30 25 C 3.05545 0.12407 -0.692488 0
M  V30 26 S 6.72719 -1.38092 -0.374092 0
M  V30 27 O 7.10241 -2.83158 -0.338172 0
M  V30 28 O 7.14104 -0.794899 -1.70208 0
M  V30 29 N 7.55391 -0.545758 0.900626 0
M  V30 30 H -1.51427 0.512437 1.18981 0
M  V30 31 H -1.61092 2.60263 2.14525 0
M  V30 32 H -2.0459 5.03631 1.92215 0
M  V30 33 H -2.21013 6.04729 -0.387711 0
M  V30 34 H -1.93844 4.64844 -2.36193 0
M  V30 35 H -1.51799 2.29573 -2.11054 0
M  V30 36 H -6.72569 -3.79097 -1.68568 0
M  V30 37 H -5.15173 -4.26652 -2.36024 0
M  V30 38 H -6.00111 -3.55589 0.872542 0
M  V30 39 H -3.16834 -0.532222 1.58369 0
M  V30 40 H 0.269929 -1.39114 0.43232 0
M  V30 41 H 2.27342 -2.43748 1.30108 0
M  V30 42 H 4.67745 -2.8223 1.08626 0
M  V30 43 H 5.0343 0.603659 -1.43987 0
M  V30 44 H 2.6595 0.987158 -1.25713 0
M  V30 45 H 8.40665 -0.0505188 0.497374 0
M  V30 46 H 6.92677 0.22634 1.24841 0
M  V30 END ATOM
M  V30 BEGIN BOND
M  V30 1 2 1 2
M  V30 2 1 2 3
M  V30 3 1 3 4
M  V30 4 2 4 5
M  V30 5 1 5 6
M  V30 6 2 6 7
M  V30 7 1 7 8
M  V30 8 2 8 9
M  V30 9 1 3 10
M  V30 10 1 10 11
M  V30 11 2 11 12
M  V30 12 1 12 13
M  V30 13 1 13 14
M  V30 14 2 13 15
M  V30 15 1 15 16
M  V30 16 2 16 17
M  V30 17 1 16 18
M  V30 18 1 2 19
M  V30 19 1 19 20
M  V30 20 2 20 21
M  V30 21 1 21 22
M  V30 22 2 22 23
M  V30 23 1 23 24
M  V30 24 2 24 25
M  V30 25 1 23 26
M  V30 26 2 26 27
M  V30 27 2 26 28
M  V30 28 1 26 29
M  V30 29 1 9 4
M  V30 30 1 18 11
M  V30 31 1 25 20
M  V30 32 1 3 30
M  V30 33 1 5 31
M  V30 34 1 6 32
M  V30 35 1 7 33
M  V30 36 1 8 34
M  V30 37 1 9 35
M  V30 38 1 14 36
M  V30 39 1 14 37
M  V30 40 1 15 38
M  V30 41 1 18 39
M  V30 42 1 19 40
M  V30 43 1 21 41
M  V30 44 1 22 42
M  V30 45 1 24 43
M  V30 46 1 25 44
M  V30 47 1 29 45
M  V30 48 1 29 46
M  V30 END BOND
M  V30 END CTAB
M  END
