
     RDKit          3D

  0  0  0  0  0  0  0  0  0  0999 V3000
M  V30 BEGIN CTAB
M  V30 COUNTS 49 52 0 0 0
M  V30 BEGIN ATOM
M  V30 1 N 9.65009 -0.860988 -1.53697 0
M  V30 2 C 8.41147 -1.06344 -0.856216 0
M  V30 3 C 7.31484 -0.298163 -1.19233 0
M  V30 4 C 6.10488 -0.485375 -0.53781 0
M  V30 5 C 5.97959 -1.43685 0.456447 0
M  V30 6 S 4.41041 -1.65742 1.2832 0
M  V30 7 C 3.21631 -0.512043 0.607022 0
M  V30 8 C 3.04315 0.754648 1.13844 0
M  V30 9 C 2.12412 1.64271 0.621764 0
M  V30 10 C 1.33263 1.2946 -0.459731 0
M  V30 11 S 0.15435 2.46644 -1.10311 0
M  V30 12 C -1.39949 2.27072 -0.285029 0
M  V30 13 C -1.69007 2.97675 0.862782 0
M  V30 14 C -2.92695 2.79358 1.47734 0
M  V30 15 C -3.8572 1.91976 0.95352 0
M  V30 16 S -5.45867 1.6807 1.74671 0
M  V30 17 C -6.38734 0.485362 0.791016 0
M  V30 18 C -7.21614 0.864814 -0.246016 0
M  V30 19 C -7.92529 -0.0682499 -0.973182 0
M  V30 20 C -7.84395 -1.41889 -0.704171 0
M  V30 21 N -8.57545 -2.37443 -1.45513 0
M  V30 22 C -7.00628 -1.79829 0.343437 0
M  V30 23 C -6.29874 -0.863185 1.06843 0
M  V30 24 C -3.53871 1.22709 -0.19581 0
M  V30 25 C -2.32325 1.40634 -0.800716 0
M  V30 26 C 1.49803 0.0389073 -0.993509 0
M  V30 27 C 2.41893 -0.846069 -0.472983 0
M  V30 28 C 7.0863 -2.17523 0.761931 0
M  V30 29 C 8.30491 -2.01384 0.129719 0
M  V30 30 H 9.63865 -0.695855 -2.58224 0
M  V30 31 H 10.5718 -0.867843 -1.05175 0
M  V30 32 H 7.39209 0.439608 -1.95558 0
M  V30 33 H 5.23356 0.104218 -0.786519 0
M  V30 34 H 3.66713 1.01494 1.98296 0
M  V30 35 H 1.98775 2.63641 1.03805 0
M  V30 36 H -0.952898 3.65489 1.2587 0
M  V30 37 H -3.17102 3.33615 2.37384 0
M  V30 38 H -7.29444 1.93572 -0.475774 0
M  V30 39 H -8.57398 0.24987 -1.78754 0
M  V30 40 H -9.59126 -2.48791 -1.29461 0
M  V30 41 H -8.07638 -2.94211 -2.15223 0
M  V30 42 H -6.956 -2.85896 0.538465 0
M  V30 43 H -5.64984 -1.18934 1.88408 0
M  V30 44 H -4.28959 0.53261 -0.60409 0
M  V30 45 H -2.13422 0.823006 -1.71357 0
M  V30 46 H 0.892391 -0.270079 -1.84543 0
M  V30 47 H 2.5316 -1.83792 -0.91465 0
M  V30 48 H 6.9921 -2.92829 1.54693 0
M  V30 49 H 9.18008 -2.59907 0.372613 0
M  V30 END ATOM
M  V30 BEGIN BOND
M  V30 1 1 1 2
M  V30 2 2 2 3
M  V30 3 1 3 4
M  V30 4 2 4 5
M  V30 5 1 5 6
M  V30 6 1 6 7
M  V30 7 2 7 8
M  V30 8 1 8 9
M  V30 9 2 9 10
M  V30 10 1 10 11
M  V30 11 1 11 12
M  V30 12 2 12 13
M  V30 13 1 13 14
M  V30 14 2 14 15
M  V30 15 1 15 16
M  V30 16 1 16 17
M  V30 17 2 17 18
M  V30 18 1 18 19
M  V30 19 2 19 20
M  V30 20 1 20 21
M  V30 21 1 20 22
M  V30 22 2 22 23
M  V30 23 1 15 24
M  V30 24 2 24 25
M  V30 25 1 10 26
M  V30 26 2 26 27
M  V30 27 1 5 28
M  V30 28 2 28 29
M  V30 29 1 29 2
M  V30 30 1 27 7
M  V30 31 1 25 12
M  V30 32 1 23 17
M  V30 33 1 1 30
M  V30 34 1 1 31
M  V30 35 1 3 32
M  V30 36 1 4 33
M  V30 37 1 8 34
M  V30 38 1 9 35
M  V30 39 1 13 36
M  V30 40 1 14 37
M  V30 41 1 18 38
M  V30 42 1 19 39
M  V30 43 1 21 40
M  V30 44 1 21 41
M  V30 45 1 22 42
M  V30 46 1 23 43
M  V30 47 1 24 44
M  V30 48 1 25 45
M  V30 49 1 26 46
M  V30 50 1 27 47
M  V30 51 1 28 48
M  V30 52 1 29 49
M  V30 END BOND
M  V30 END CTAB
M  END
