
     RDKit          3D

  0  0  0  0  0  0  0  0  0  0999 V3000
M  V30 BEGIN CTAB
M  V30 COUNTS 31 33 0 0 0
M  V30 BEGIN ATOM
M  V30 1 N -5.14447 1.44986 -0.165546 0
M  V30 2 C -3.88291 0.7848 -0.123689 0
M  V30 3 N -3.52046 0.168457 1.01278 0
M  V30 4 C -2.3586 -0.482612 1.15581 0
M  V30 5 C -2.06774 -1.11728 2.36507 0
M  V30 6 C -0.877518 -1.80251 2.49069 0
M  V30 7 C -0.0306247 -1.82411 1.40978 0
M  V30 8 C -0.297559 -1.20114 0.202083 0
M  V30 9 S 0.88131 -1.28762 -1.15488 0
M  V30 10 C 2.28675 -0.232801 -0.832852 0
M  V30 11 C 2.39062 1.07876 -1.20014 0
M  V30 12 C 3.52549 1.84763 -0.913394 0
M  V30 13 C 4.58657 1.28388 -0.238646 0
M  V30 14 C 4.51502 -0.0359818 0.146361 0
M  V30 15 C 3.39097 -0.762004 -0.148899 0
M  V30 16 C -1.48674 -0.525512 0.0883752 0
M  V30 17 C -1.85912 0.0985984 -1.0617 0
M  V30 18 N -1.06526 0.0765547 -2.24239 0
M  V30 19 N -3.05172 0.751868 -1.16761 0
M  V30 20 H -5.92597 1.06805 0.436051 0
M  V30 21 H -5.29289 2.27415 -0.760245 0
M  V30 22 H -2.76228 -1.07179 3.18567 0
M  V30 23 H -0.628932 -2.31157 3.43598 0
M  V30 24 H 0.90942 -2.35956 1.49531 0
M  V30 25 H 1.59386 1.56237 -1.72625 0
M  V30 26 H 3.57132 2.88832 -1.22192 0
M  V30 27 H 5.48595 1.82139 0.0113658 0
M  V30 28 H 5.34926 -0.498698 0.683035 0
M  V30 29 H 3.34827 -1.78824 0.156505 0
M  V30 30 H -0.499945 0.915914 -2.45851 0
M  V30 31 H -1.08208 -0.769189 -2.85819 0
M  V30 END ATOM
M  V30 BEGIN BOND
M  V30 1 1 1 2
M  V30 2 2 2 3
M  V30 3 1 3 4
M  V30 4 2 4 5
M  V30 5 1 5 6
M  V30 6 2 6 7
M  V30 7 1 7 8
M  V30 8 1 8 9
M  V30 9 1 9 10
M  V30 10 2 10 11
M  V30 11 1 11 12
M  V30 12 2 12 13
M  V30 13 1 13 14
M  V30 14 2 14 15
M  V30 15 2 8 16
M  V30 16 1 16 17
M  V30 17 1 17 18
M  V30 18 2 17 19
M  V30 19 1 19 2
M  V30 20 1 16 4
M  V30 21 1 15 10
M  V30 22 1 1 20
M  V30 23 1 1 21
M  V30 24 1 5 22
M  V30 25 1 6 23
M  V30 26 1 7 24
M  V30 27 1 11 25
M  V30 28 1 12 26
M  V30 29 1 13 27
M  V30 30 1 14 28
M  V30 31 1 15 29
M  V30 32 1 18 30
M  V30 33 1 18 31
M  V30 END BOND
M  V30 END CTAB
M  END
