
     RDKit          3D

  0  0  0  0  0  0  0  0  0  0999 V3000
M  V30 BEGIN CTAB
M  V30 COUNTS 45 46 0 0 0
M  V30 BEGIN ATOM
M  V30 1 N -3.25864 2.82689 -0.747716 0
M  V30 2 C -3.73585 1.75381 -1.6003 0
M  V30 3 C -2.60562 0.953492 -2.11624 0
M  V30 4 O -1.74986 0.336232 -1.25329 0
M  V30 5 C -1.77736 -0.558672 -0.273325 0
M  V30 6 C -2.98413 -1.11797 0.0761647 0
M  V30 7 C -3.14151 -2.06047 1.0674 0
M  V30 8 O -4.37797 -2.57941 1.36112 0
M  V30 9 C -4.56979 -3.56375 2.37672 0
M  V30 10 C -1.99795 -2.44062 1.7254 0
M  V30 11 C -0.79432 -1.90778 1.40315 0
M  V30 12 C -0.636965 -0.940683 0.38493 0
M  V30 13 C 0.719091 -0.482577 0.147297 0
M  V30 14 O 1.61815 -1.03916 0.833034 0
M  V30 15 N 1.15416 0.482031 -0.754557 0
M  V30 16 C 2.42087 0.956372 -1.13571 0
M  V30 17 C 3.59643 0.969926 -0.278356 0
M  V30 18 N 4.48195 1.9242 -0.00587633 0
M  V30 19 N 5.48858 1.75711 0.683659 0
M  V30 20 C 5.73459 0.555776 1.20683 0
M  V30 21 S 4.36339 -0.317478 0.60923 0
M  V30 22 N 6.80687 0.0952236 2.00404 0
M  V30 23 C 2.30548 2.23289 -2.0029 0
M  V30 24 C 2.90685 -0.0792425 -2.28681 0
M  V30 25 H -3.95906 3.0729 -0.0508647 0
M  V30 26 H -2.92672 3.65086 -1.28325 0
M  V30 27 H -4.58608 1.28043 -1.14143 0
M  V30 28 H -4.19049 2.31478 -2.50552 0
M  V30 29 H -2.98425 0.179009 -2.84239 0
M  V30 30 H -2.01034 1.63618 -2.80513 0
M  V30 31 H -3.87292 -0.810286 -0.451252 0
M  V30 32 H -4.76683 -2.99519 3.30591 0
M  V30 33 H -5.45484 -4.16802 2.13209 0
M  V30 34 H -3.70047 -4.24413 2.45838 0
M  V30 35 H -2.09066 -3.18309 2.5307 0
M  V30 36 H 0.05773 -2.24862 1.95913 0
M  V30 37 H 0.339984 0.986675 -1.29876 0
M  V30 38 H 7.67036 0.611982 2.08611 0
M  V30 39 H 6.66814 -0.799881 2.51297 0
M  V30 40 H 1.74242 1.98612 -2.93517 0
M  V30 41 H 3.3204 2.56643 -2.28259 0
M  V30 42 H 1.81611 3.05801 -1.45897 0
M  V30 43 H 3.77267 0.44363 -2.67644 0
M  V30 44 H 2.09031 -0.0588956 -3.01216 0
M  V30 45 H 3.09812 -1.03503 -1.81745 0
M  V30 END ATOM
M  V30 BEGIN BOND
M  V30 1 1 1 2
M  V30 2 1 2 3
M  V30 3 1 3 4
M  V30 4 1 4 5
M  V30 5 2 5 6
M  V30 6 1 6 7
M  V30 7 1 7 8
M  V30 8 1 8 9
M  V30 9 2 7 10
M  V30 10 1 10 11
M  V30 11 2 11 12
M  V30 12 1 12 13
M  V30 13 2 13 14
M  V30 14 1 13 15
M  V30 15 1 15 16
M  V30 16 1 16 17
M  V30 17 2 17 18
M  V30 18 1 18 19
M  V30 19 2 19 20
M  V30 20 1 20 21
M  V30 21 1 20 22
M  V30 22 1 16 23
M  V30 23 1 16 24
M  V30 24 1 12 5
M  V30 25 1 21 17
M  V30 26 1 1 25
M  V30 27 1 1 26
M  V30 28 1 2 27
M  V30 29 1 2 28
M  V30 30 1 3 29
M  V30 31 1 3 30
M  V30 32 1 6 31
M  V30 33 1 9 32
M  V30 34 1 9 33
M  V30 35 1 9 34
M  V30 36 1 10 35
M  V30 37 1 11 36
M  V30 38 1 15 37
M  V30 39 1 22 38
M  V30 40 1 22 39
M  V30 41 1 23 40
M  V30 42 1 23 41
M  V30 43 1 23 42
M  V30 44 1 24 43
M  V30 45 1 24 44
M  V30 46 1 24 45
M  V30 END BOND
M  V30 END CTAB
M  END
