
     RDKit          3D

  0  0  0  0  0  0  0  0  0  0999 V3000
M  V30 BEGIN CTAB
M  V30 COUNTS 25 25 0 0 0
M  V30 BEGIN ATOM
M  V30 1 N -2.49465 1.54234 0.102264 0
M  V30 2 C -2.2969 0.378718 0.940992 0
M  V30 3 C -1.52568 -0.715396 0.258871 0
M  V30 4 C -0.165037 -0.255002 -0.153437 0
M  V30 5 C 0.0189534 0.564539 -1.24755 0
M  V30 6 C 1.2703 0.995945 -1.63737 0
M  V30 7 C 2.39559 0.617079 -0.936464 0
M  V30 8 C 2.20391 -0.203694 0.15809 0
M  V30 9 C 0.956162 -0.637582 0.551897 0
M  V30 10 C 3.4138 -0.616858 0.919686 0
M  V30 11 F 3.55245 -1.98981 0.955717 0
M  V30 12 F 3.23278 -0.145706 2.22328 0
M  V30 13 N -2.21944 -1.13438 -0.940455 0
M  V30 14 H -3.44719 1.47287 -0.301861 0
M  V30 15 H -2.52816 2.37306 0.760141 0
M  V30 16 H -3.26684 -0.0478526 1.2656 0
M  V30 17 H -1.69371 0.67875 1.84761 0
M  V30 18 H -1.47457 -1.57642 0.926853 0
M  V30 19 H -0.878986 0.867989 -1.80861 0
M  V30 20 H 1.37239 1.64515 -2.51111 0
M  V30 21 H 3.38105 0.956248 -1.24268 0
M  V30 22 H 0.839715 -1.28554 1.42159 0
M  V30 23 H 4.33109 -0.189828 0.48215 0
M  V30 24 H -1.74884 -1.99966 -1.3067 0
M  V30 25 H -3.2282 -1.29496 -0.7285 0
M  V30 END ATOM
M  V30 BEGIN BOND
M  V30 1 1 1 2
M  V30 2 1 2 3
M  V30 3 1 3 4
M  V30 4 2 4 5
M  V30 5 1 5 6
M  V30 6 2 6 7
M  V30 7 1 7 8
M  V30 8 2 8 9
M  V30 9 1 8 10
M  V30 10 1 10 11
M  V30 11 1 10 12
M  V30 12 1 3 13
M  V30 13 1 9 4
M  V30 14 1 1 14
M  V30 15 1 1 15
M  V30 16 1 2 16
M  V30 17 1 2 17
M  V30 18 1 3 18
M  V30 19 1 5 19
M  V30 20 1 6 20
M  V30 21 1 7 21
M  V30 22 1 9 22
M  V30 23 1 10 23
M  V30 24 1 13 24
M  V30 25 1 13 25
M  V30 END BOND
M  V30 END CTAB
M  END
