
     RDKit          3D

  0  0  0  0  0  0  0  0  0  0999 V3000
M  V30 BEGIN CTAB
M  V30 COUNTS 19 19 0 0 0
M  V30 BEGIN ATOM
M  V30 1 C 2.35905 0.669133 -0.0162785 0
M  V30 2 C 0.86141 0.659686 -0.0277084 0
M  V30 3 C 0.219295 -0.557124 0.024713 0
M  V30 4 N 0.924883 -1.79785 0.0889899 0
M  V30 5 C -1.1676 -0.647071 0.0179438 0
M  V30 6 N -1.85168 -1.87215 0.0704262 0
M  V30 7 C -1.90219 0.530382 -0.0435536 0
M  V30 8 C -1.25529 1.75162 -0.09615 0
M  V30 9 Cl -2.21655 3.2352 -0.173906 0
M  V30 10 C 0.12374 1.82469 -0.0886492 0
M  V30 11 H 2.70976 1.74304 -0.0508813 0
M  V30 12 H 2.69256 0.151831 -0.915639 0
M  V30 13 H 2.76018 0.262299 0.929098 0
M  V30 14 H 1.2128 -2.25526 0.972516 0
M  V30 15 H 1.16454 -2.27124 -0.800697 0
M  V30 16 H -2.4141 -2.06802 0.943389 0
M  V30 17 H -1.86399 -2.60414 -0.654731 0
M  V30 18 H -3.00143 0.459991 -0.0489503 0
M  V30 19 H 0.644617 2.78498 -0.129932 0
M  V30 END ATOM
M  V30 BEGIN BOND
M  V30 1 1 1 2
M  V30 2 2 2 3
M  V30 3 1 3 4
M  V30 4 1 3 5
M  V30 5 1 5 6
M  V30 6 2 5 7
M  V30 7 1 7 8
M  V30 8 1 8 9
M  V30 9 2 8 10
M  V30 10 1 10 2
M  V30 11 1 1 11
M  V30 12 1 1 12
M  V30 13 1 1 13
M  V30 14 1 4 14
M  V30 15 1 4 15
M  V30 16 1 6 16
M  V30 17 1 6 17
M  V30 18 1 7 18
M  V30 19 1 10 19
M  V30 END BOND
M  V30 END CTAB
M  END
