
     RDKit          3D

  0  0  0  0  0  0  0  0  0  0999 V3000
M  V30 BEGIN CTAB
M  V30 COUNTS 36 36 0 0 0
M  V30 BEGIN ATOM
M  V30 1 C -3.46689 -1.88708 1.04572 0
M  V30 2 N -3.56856 -0.460708 0.835995 0
M  V30 3 C -2.92177 0.515631 1.66692 0
M  V30 4 C -1.56905 0.842578 1.13458 0
M  V30 5 N -0.655037 -0.255909 1.05775 0
M  V30 6 C 0.646255 -0.044875 0.551307 0
M  V30 7 C 1.5558 -1.10183 0.466852 0
M  V30 8 Cl 1.12039 -2.71711 0.981986 0
M  V30 9 N 2.79635 -0.911724 -0.0134762 0
M  V30 10 C 3.20339 0.296603 -0.427515 0
M  V30 11 C 4.54345 0.528624 -0.952338 0
M  V30 12 O 4.90198 1.66574 -1.33334 0
M  V30 13 N 5.48804 -0.526815 -1.04947 0
M  V30 14 N 6.77415 -0.362423 -1.54011 0
M  V30 15 C 2.32284 1.38018 -0.359251 0
M  V30 16 N 2.7735 2.63904 -0.799989 0
M  V30 17 N 1.09133 1.1512 0.126586 0
M  V30 18 C -4.36917 -0.0238699 -0.263973 0
M  V30 19 C -5.07559 -0.968958 -1.16658 0
M  V30 20 O -4.50282 1.19814 -0.506297 0
M  V30 21 H -3.17914 -2.14831 2.09193 0
M  V30 22 H -2.8349 -2.39068 0.308651 0
M  V30 23 H -4.5013 -2.30711 0.916857 0
M  V30 24 H -2.80155 0.11807 2.71963 0
M  V30 25 H -3.54681 1.42755 1.80636 0
M  V30 26 H -1.13566 1.7048 1.69864 0
M  V30 27 H -1.7046 1.23039 0.0988776 0
M  V30 28 H -0.927457 -1.19738 1.36691 0
M  V30 29 H 5.20724 -1.46646 -0.740099 0
M  V30 30 H 6.86807 -0.44732 -2.55782 0
M  V30 31 H 7.25906 0.478581 -1.15845 0
M  V30 32 H 2.53944 2.97076 -1.74335 0
M  V30 33 H 3.33838 3.22748 -0.175499 0
M  V30 34 H -4.44292 -1.90072 -1.22837 0
M  V30 35 H -6.03474 -1.28381 -0.698257 0
M  V30 36 H -5.19167 -0.523476 -2.16137 0
M  V30 END ATOM
M  V30 BEGIN BOND
M  V30 1 1 1 2
M  V30 2 1 2 3
M  V30 3 1 3 4
M  V30 4 1 4 5
M  V30 5 1 5 6
M  V30 6 2 6 7
M  V30 7 1 7 8
M  V30 8 1 7 9
M  V30 9 2 9 10
M  V30 10 1 10 11
M  V30 11 2 11 12
M  V30 12 1 11 13
M  V30 13 1 13 14
M  V30 14 1 10 15
M  V30 15 1 15 16
M  V30 16 2 15 17
M  V30 17 1 2 18
M  V30 18 1 18 19
M  V30 19 2 18 20
M  V30 20 1 17 6
M  V30 21 1 1 21
M  V30 22 1 1 22
M  V30 23 1 1 23
M  V30 24 1 3 24
M  V30 25 1 3 25
M  V30 26 1 4 26
M  V30 27 1 4 27
M  V30 28 1 5 28
M  V30 29 1 13 29
M  V30 30 1 14 30
M  V30 31 1 14 31
M  V30 32 1 16 32
M  V30 33 1 16 33
M  V30 34 1 19 34
M  V30 35 1 19 35
M  V30 36 1 19 36
M  V30 END BOND
M  V30 END CTAB
M  END
