
     RDKit          3D

  0  0  0  0  0  0  0  0  0  0999 V3000
M  V30 BEGIN CTAB
M  V30 COUNTS 29 30 0 0 0
M  V30 BEGIN ATOM
M  V30 1 N -1.74934 0.0355315 1.77481 0
M  V30 2 C -2.18829 0.126669 0.440798 0
M  V30 3 C -3.22354 0.987454 0.0972855 0
M  V30 4 C -3.63301 1.01966 -1.21496 0
M  V30 5 N -3.06879 0.252276 -2.16276 0
M  V30 6 C -2.07038 -0.586411 -1.86259 0
M  V30 7 C -1.61982 -0.653169 -0.542492 0
M  V30 8 C -0.482323 -1.56357 -0.209143 0
M  V30 9 C 0.790787 -0.758037 -0.163377 0
M  V30 10 C 0.905382 0.529892 -0.426592 0
M  V30 11 C 2.32325 0.963459 -0.274249 0
M  V30 12 C 3.1382 -0.311549 -0.216674 0
M  V30 13 C 2.12271 -1.34799 0.204116 0
M  V30 14 N 2.47668 1.785 0.892552 0
M  V30 15 H -2.50182 -0.12673 2.50917 0
M  V30 16 H -0.797898 0.107356 2.10845 0
M  V30 17 H -3.65182 1.58468 0.882672 0
M  V30 18 H -4.43304 1.67846 -1.50985 0
M  V30 19 H -1.58858 -1.22645 -2.61286 0
M  V30 20 H -0.38066 -2.37403 -0.956905 0
M  V30 21 H -0.605347 -2.00209 0.787845 0
M  V30 22 H 0.111582 1.21029 -0.714072 0
M  V30 23 H 2.65475 1.56023 -1.15248 0
M  V30 24 H 3.98327 -0.205283 0.486259 0
M  V30 25 H 3.55749 -0.564395 -1.20577 0
M  V30 26 H 2.33594 -2.28404 -0.314068 0
M  V30 27 H 2.08898 -1.48086 1.31119 0
M  V30 28 H 2.12005 1.38744 1.76683 0
M  V30 29 H 3.38558 2.25622 0.933346 0
M  V30 END ATOM
M  V30 BEGIN BOND
M  V30 1 1 1 2
M  V30 2 2 2 3
M  V30 3 1 3 4
M  V30 4 2 4 5
M  V30 5 1 5 6
M  V30 6 2 6 7
M  V30 7 1 7 8
M  V30 8 1 8 9
M  V30 9 2 9 10
M  V30 10 1 10 11
M  V30 11 1 11 12
M  V30 12 1 12 13
M  V30 13 1 11 14
M  V30 14 1 7 2
M  V30 15 1 13 9
M  V30 16 1 1 15
M  V30 17 1 1 16
M  V30 18 1 3 17
M  V30 19 1 4 18
M  V30 20 1 6 19
M  V30 21 1 8 20
M  V30 22 1 8 21
M  V30 23 1 10 22
M  V30 24 1 11 23
M  V30 25 1 12 24
M  V30 26 1 12 25
M  V30 27 1 13 26
M  V30 28 1 13 27
M  V30 29 1 14 28
M  V30 30 1 14 29
M  V30 END BOND
M  V30 END CTAB
M  END
