
     RDKit          3D

  0  0  0  0  0  0  0  0  0  0999 V3000
M  V30 BEGIN CTAB
M  V30 COUNTS 32 34 0 0 0
M  V30 BEGIN ATOM
M  V30 1 N -2.08235 4.90613 0.339685 0
M  V30 2 C -1.42152 3.62173 0.271414 0
M  V30 3 N -1.95646 2.41959 0.153048 0
M  V30 4 C -1.19973 1.37041 0.108377 0
M  V30 5 C 0.158004 1.56183 0.188219 0
M  V30 6 S 0.25491 3.26183 0.323801 0
M  V30 7 C 1.23261 0.572371 0.166743 0
M  V30 8 C 2.11432 0.430272 1.22403 0
M  V30 9 C 3.12846 -0.489904 1.23334 0
M  V30 10 C 3.28213 -1.31483 0.141432 0
M  V30 11 N 4.34449 -2.27708 0.156158 0
M  V30 12 C 2.42307 -1.20817 -0.939571 0
M  V30 13 C 1.41728 -0.268497 -0.905724 0
M  V30 14 C -1.73837 -0.0127279 -0.0260438 0
M  V30 15 C -1.52559 -0.953535 0.958432 0
M  V30 16 C -2.02701 -2.22703 0.822961 0
M  V30 17 C -2.75776 -2.58105 -0.314323 0
M  V30 18 C -2.97529 -1.64953 -1.30169 0
M  V30 19 C -2.47183 -0.379111 -1.16047 0
M  V30 20 H -2.11596 5.38685 1.26508 0
M  V30 21 H -2.51238 5.35706 -0.469982 0
M  V30 22 H 1.97939 1.08702 2.07458 0
M  V30 23 H 3.78995 -0.561011 2.0835 0
M  V30 24 H 5.18505 -2.18599 -0.453865 0
M  V30 25 H 4.27887 -3.08715 0.788932 0
M  V30 26 H 2.58401 -1.87952 -1.77568 0
M  V30 27 H 0.750648 -0.188049 -1.74788 0
M  V30 28 H -0.948892 -0.655487 1.84433 0
M  V30 29 H -1.87734 -2.98363 1.57323 0
M  V30 30 H -3.16376 -3.57893 -0.445148 0
M  V30 31 H -3.53131 -1.88907 -2.18463 0
M  V30 32 H -2.61764 0.395209 -1.91556 0
M  V30 END ATOM
M  V30 BEGIN BOND
M  V30 1 1 1 2
M  V30 2 2 2 3
M  V30 3 1 3 4
M  V30 4 2 4 5
M  V30 5 1 5 6
M  V30 6 1 5 7
M  V30 7 2 7 8
M  V30 8 1 8 9
M  V30 9 2 9 10
M  V30 10 1 10 11
M  V30 11 1 10 12
M  V30 12 2 12 13
M  V30 13 1 4 14
M  V30 14 2 14 15
M  V30 15 1 15 16
M  V30 16 2 16 17
M  V30 17 1 17 18
M  V30 18 2 18 19
M  V30 19 1 6 2
M  V30 20 1 13 7
M  V30 21 1 19 14
M  V30 22 1 1 20
M  V30 23 1 1 21
M  V30 24 1 8 22
M  V30 25 1 9 23
M  V30 26 1 11 24
M  V30 27 1 11 25
M  V30 28 1 12 26
M  V30 29 1 13 27
M  V30 30 1 15 28
M  V30 31 1 16 29
M  V30 32 1 17 30
M  V30 33 1 18 31
M  V30 34 1 19 32
M  V30 END BOND
M  V30 END CTAB
M  END
