
     RDKit          3D

  0  0  0  0  0  0  0  0  0  0999 V3000
M  V30 BEGIN CTAB
M  V30 COUNTS 36 37 0 0 0
M  V30 BEGIN ATOM
M  V30 1 O -1.454 -1.08903 0.662734 0
M  V30 2 C -1.60547 -0.746881 -0.516328 0
M  V30 3 C -2.78578 0.0617406 -0.880704 0
M  V30 4 C -3.13693 0.552279 -2.10104 0
M  V30 5 N -4.30184 1.23886 -1.92509 0
M  V30 6 N -4.68742 1.19895 -0.667063 0
M  V30 7 C -3.74947 0.466413 -0.00301204 0
M  V30 8 N -3.81342 0.191362 1.38328 0
M  V30 9 C -5.87926 1.81771 -0.10495 0
M  V30 10 N -0.645751 -1.13792 -1.48399 0
M  V30 11 C 0.484711 -1.9134 -1.10208 0
M  V30 12 C 1.56723 -1.18839 -0.427897 0
M  V30 13 C 2.42995 -0.322228 -1.07488 0
M  V30 14 C 3.43246 0.322907 -0.381197 0
M  V30 15 C 3.62586 0.143351 0.970579 0
M  V30 16 C 2.77188 -0.719575 1.63405 0
M  V30 17 C 1.75695 -1.37062 0.921617 0
M  V30 18 S 4.91435 0.980981 1.80444 0
M  V30 19 O 5.21694 2.29478 1.09244 0
M  V30 20 O 4.53261 1.33354 3.20487 0
M  V30 21 N 6.34732 0.0243746 1.85625 0
M  V30 22 H -2.58655 0.415729 -3.02345 0
M  V30 23 H -4.58812 -0.434239 1.71442 0
M  V30 24 H -3.15799 0.556837 2.10458 0
M  V30 25 H -6.08628 1.44144 0.914699 0
M  V30 26 H -6.75559 1.55316 -0.748245 0
M  V30 27 H -5.82244 2.92881 -0.121111 0
M  V30 28 H -0.836725 -0.819758 -2.47031 0
M  V30 29 H 0.910957 -2.36306 -2.0415 0
M  V30 30 H 0.151746 -2.80145 -0.504988 0
M  V30 31 H 2.29776 -0.16981 -2.11833 0
M  V30 32 H 4.10898 1.00899 -0.916556 0
M  V30 33 H 2.93766 -0.845941 2.68529 0
M  V30 34 H 1.11057 -2.05055 1.49444 0
M  V30 35 H 6.17015 -0.975701 1.67759 0
M  V30 36 H 7.12495 0.416328 1.27329 0
M  V30 END ATOM
M  V30 BEGIN BOND
M  V30 1 2 1 2
M  V30 2 1 2 3
M  V30 3 1 3 4
M  V30 4 2 4 5
M  V30 5 1 5 6
M  V30 6 1 6 7
M  V30 7 1 7 8
M  V30 8 1 6 9
M  V30 9 1 2 10
M  V30 10 1 10 11
M  V30 11 1 11 12
M  V30 12 2 12 13
M  V30 13 1 13 14
M  V30 14 2 14 15
M  V30 15 1 15 16
M  V30 16 2 16 17
M  V30 17 1 15 18
M  V30 18 2 18 19
M  V30 19 2 18 20
M  V30 20 1 18 21
M  V30 21 2 7 3
M  V30 22 1 17 12
M  V30 23 1 4 22
M  V30 24 1 8 23
M  V30 25 1 8 24
M  V30 26 1 9 25
M  V30 27 1 9 26
M  V30 28 1 9 27
M  V30 29 1 10 28
M  V30 30 1 11 29
M  V30 31 1 11 30
M  V30 32 1 13 31
M  V30 33 1 14 32
M  V30 34 1 16 33
M  V30 35 1 17 34
M  V30 36 1 21 35
M  V30 37 1 21 36
M  V30 END BOND
M  V30 END CTAB
M  END
