
     RDKit          3D

  0  0  0  0  0  0  0  0  0  0999 V3000
M  V30 BEGIN CTAB
M  V30 COUNTS 22 22 0 0 0
M  V30 BEGIN ATOM
M  V30 1 N -2.99597 -0.123479 -0.453805 0
M  V30 2 C -1.67695 -0.658074 -0.475899 0
M  V30 3 C -0.731298 -0.011657 0.505952 0
M  V30 4 C 0.602195 -0.702425 0.33802 0
M  V30 5 C 1.71138 -0.239597 1.20338 0
M  V30 6 C 2.38872 0.341738 -0.030276 0
M  V30 7 C 1.28857 -0.235021 -0.900498 0
M  V30 8 N -0.640626 1.40193 0.12592 0
M  V30 9 H -3.50549 -0.359606 0.400649 0
M  V30 10 H -3.10901 0.827796 -0.816762 0
M  V30 11 H -1.2114 -0.587373 -1.47495 0
M  V30 12 H -1.73691 -1.73952 -0.235313 0
M  V30 13 H -1.07392 -0.0829659 1.55241 0
M  V30 14 H 0.461007 -1.7961 0.374054 0
M  V30 15 H 1.49859 0.476379 1.99543 0
M  V30 16 H 2.33567 -1.08955 1.59457 0
M  V30 17 H 2.33833 1.44819 0.00956751 0
M  V30 18 H 3.35462 -0.105905 -0.275354 0
M  V30 19 H 1.59697 -1.0379 -1.57559 0
M  V30 20 H 0.761575 0.55454 -1.47875 0
M  V30 21 H -1.60857 1.79199 0.173321 0
M  V30 22 H -0.047501 1.92661 0.810331 0
M  V30 END ATOM
M  V30 BEGIN BOND
M  V30 1 1 1 2
M  V30 2 1 2 3
M  V30 3 1 3 4
M  V30 4 1 4 5
M  V30 5 1 5 6
M  V30 6 1 6 7
M  V30 7 1 3 8
M  V30 8 1 7 4
M  V30 9 1 1 9
M  V30 10 1 1 10
M  V30 11 1 2 11
M  V30 12 1 2 12
M  V30 13 1 3 13
M  V30 14 1 4 14
M  V30 15 1 5 15
M  V30 16 1 5 16
M  V30 17 1 6 17
M  V30 18 1 6 18
M  V30 19 1 7 19
M  V30 20 1 7 20
M  V30 21 1 8 21
M  V30 22 1 8 22
M  V30 END BOND
M  V30 END CTAB
M  END
