
     RDKit          3D

  0  0  0  0  0  0  0  0  0  0999 V3000
M  V30 BEGIN CTAB
M  V30 COUNTS 66 69 0 0 0
M  V30 BEGIN ATOM
M  V30 1 C -0.852726 -4.37688 2.86165 0
M  V30 2 C -1.37582 -3.30296 1.86178 0
M  V30 3 C -0.287432 -2.34409 1.55364 0
M  V30 4 N -0.502948 -1.26169 0.683113 0
M  V30 5 C -1.00894 0.0178328 1.10662 0
M  V30 6 C -0.174595 0.997938 1.64373 0
M  V30 7 O 1.03491 0.813578 1.77733 0
M  V30 8 N -0.683433 2.18153 2.03242 0
M  V30 9 C -1.98037 2.47676 1.92752 0
M  V30 10 O -2.44183 3.58836 2.30005 0
M  V30 11 N -2.83066 1.57073 1.41538 0
M  V30 12 C -2.33129 0.370116 1.02045 0
M  V30 13 N -3.19011 -0.595548 0.508786 0
M  V30 14 C -4.23606 1.8351 1.26501 0
M  V30 15 C -4.71915 2.35866 0.00791769 0
M  V30 16 C -4.57986 3.659 -0.353424 0
M  V30 17 C -5.06094 4.14917 -1.54749 0
M  V30 18 C -5.70826 3.30152 -2.41412 0
M  V30 19 C -5.88049 1.97438 -2.10403 0
M  V30 20 C -5.37428 1.53236 -0.883766 0
M  V30 21 C -0.236834 -1.3523 -0.693845 0
M  V30 22 O -0.523787 -0.322278 -1.44534 0
M  V30 23 C 0.341042 -2.46362 -1.45462 0
M  V30 24 S 2.01781 -2.9481 -0.982178 0
M  V30 25 C 3.24666 -1.73396 -1.31184 0
M  V30 26 N 3.68537 -0.739166 -0.497104 0
M  V30 27 C 4.64136 -0.0311937 -1.11849 0
M  V30 28 C 4.77793 -0.626432 -2.3543 0
M  V30 29 N 3.9331 -1.66687 -2.48647 0
M  V30 30 N 3.77462 -2.50901 -3.57723 0
M  V30 31 C 5.39551 1.1185 -0.615801 0
M  V30 32 C 6.34975 1.69929 -1.42409 0
M  V30 33 C 7.10498 2.77854 -1.0318 0
M  V30 34 C 6.90692 3.31204 0.226598 0
M  V30 35 C 5.95513 2.74652 1.05749 0
M  V30 36 C 5.19999 1.65081 0.635923 0
M  V30 37 C -1.95828 -4.09519 0.758453 0
M  V30 38 H -0.693201 -3.87893 3.83946 0
M  V30 39 H -1.67084 -5.10886 2.99588 0
M  V30 40 H 0.0543689 -4.84364 2.47559 0
M  V30 41 H -2.2286 -2.86336 2.42834 0
M  V30 42 H 0.182973 -2.01801 2.54621 0
M  V30 43 H 0.553356 -3.03252 1.20867 0
M  V30 44 H -0.0463635 2.92745 2.4427 0
M  V30 45 H -3.22707 -0.734423 -0.526961 0
M  V30 46 H -3.82119 -1.2128 1.06155 0
M  V30 47 H -4.75012 0.864335 1.56401 0
M  V30 48 H -4.49674 2.50609 2.14744 0
M  V30 49 H -4.09446 4.36602 0.286274 0
M  V30 50 H -4.92295 5.21867 -1.80198 0
M  V30 51 H -6.09325 3.6796 -3.36268 0
M  V30 52 H -6.39394 1.28252 -2.79022 0
M  V30 53 H -5.56704 0.476337 -0.694337 0
M  V30 54 H 0.477926 -2.1064 -2.54245 0
M  V30 55 H -0.320079 -3.33542 -1.59441 0
M  V30 56 H 5.47308 -0.305942 -3.13181 0
M  V30 57 H 3.47029 -3.49018 -3.45198 0
M  V30 58 H 3.9632 -2.15974 -4.52734 0
M  V30 59 H 6.52496 1.30074 -2.41598 0
M  V30 60 H 7.83107 3.18372 -1.70705 0
M  V30 61 H 7.51456 4.16377 0.518868 0
M  V30 62 H 5.8313 3.18539 2.02096 0
M  V30 63 H 4.46942 1.22508 1.28724 0
M  V30 64 H -2.78712 -4.70409 1.20861 0
M  V30 65 H -2.43665 -3.51318 -0.0488148 0
M  V30 66 H -1.22387 -4.83571 0.383348 0
M  V30 END ATOM
M  V30 BEGIN BOND
M  V30 1 1 1 2
M  V30 2 1 2 3
M  V30 3 1 3 4
M  V30 4 1 4 5
M  V30 5 1 5 6
M  V30 6 2 6 7
M  V30 7 1 6 8
M  V30 8 1 8 9
M  V30 9 2 9 10
M  V30 10 1 9 11
M  V30 11 1 11 12
M  V30 12 1 12 13
M  V30 13 1 11 14
M  V30 14 1 14 15
M  V30 15 2 15 16
M  V30 16 1 16 17
M  V30 17 2 17 18
M  V30 18 1 18 19
M  V30 19 2 19 20
M  V30 20 1 4 21
M  V30 21 2 21 22
M  V30 22 1 21 23
M  V30 23 1 23 24
M  V30 24 1 24 25
M  V30 25 2 25 26
M  V30 26 1 26 27
M  V30 27 2 27 28
M  V30 28 1 28 29
M  V30 29 1 29 30
M  V30 30 1 27 31
M  V30 31 2 31 32
M  V30 32 1 32 33
M  V30 33 2 33 34
M  V30 34 1 34 35
M  V30 35 2 35 36
M  V30 36 1 2 37
M  V30 37 2 12 5
M  V30 38 1 20 15
M  V30 39 1 29 25
M  V30 40 1 36 31
M  V30 41 1 1 38
M  V30 42 1 1 39
M  V30 43 1 1 40
M  V30 44 1 2 41
M  V30 45 1 3 42
M  V30 46 1 3 43
M  V30 47 1 8 44
M  V30 48 1 13 45
M  V30 49 1 13 46
M  V30 50 1 14 47
M  V30 51 1 14 48
M  V30 52 1 16 49
M  V30 53 1 17 50
M  V30 54 1 18 51
M  V30 55 1 19 52
M  V30 56 1 20 53
M  V30 57 1 23 54
M  V30 58 1 23 55
M  V30 59 1 28 56
M  V30 60 1 30 57
M  V30 61 1 30 58
M  V30 62 1 32 59
M  V30 63 1 33 60
M  V30 64 1 34 61
M  V30 65 1 35 62
M  V30 66 1 36 63
M  V30 67 1 37 64
M  V30 68 1 37 65
M  V30 69 1 37 66
M  V30 END BOND
M  V30 END CTAB
M  END
