
     RDKit          3D

  0  0  0  0  0  0  0  0  0  0999 V3000
M  V30 BEGIN CTAB
M  V30 COUNTS 23 23 0 0 0
M  V30 BEGIN ATOM
M  V30 1 C 3.45866 0.479122 -0.253399 0
M  V30 2 C 2.72582 -0.800154 0.0302121 0
M  V30 3 C 1.25589 -0.499094 0.0414475 0
M  V30 4 N 0.341599 -1.45841 0.271342 0
M  V30 5 C -0.98969 -1.24087 0.29224 0
M  V30 6 N -1.92926 -2.27497 0.537863 0
M  V30 7 C -1.45899 0.0226186 0.0688852 0
M  V30 8 C -0.530311 1.00936 -0.167024 0
M  V30 9 N 0.800197 0.744834 -0.178752 0
M  V30 10 N -0.986819 2.33454 -0.402976 0
M  V30 11 C -2.89935 0.381352 0.0675039 0
M  V30 12 H 3.01193 1.34133 0.264517 0
M  V30 13 H 4.53045 0.349405 0.0462789 0
M  V30 14 H 3.4189 0.689122 -1.34075 0
M  V30 15 H 2.91642 -1.53659 -0.757967 0
M  V30 16 H 3.04134 -1.236 0.999696 0
M  V30 17 H -2.38817 -2.41851 1.46234 0
M  V30 18 H -2.18964 -2.9402 -0.236649 0
M  V30 19 H -0.341978 3.11287 -0.143666 0
M  V30 20 H -1.89546 2.57481 -0.805681 0
M  V30 21 H -3.26619 0.576409 -0.97299 0
M  V30 22 H -3.10988 1.24735 0.726528 0
M  V30 23 H -3.51549 -0.458335 0.451002 0
M  V30 END ATOM
M  V30 BEGIN BOND
M  V30 1 1 1 2
M  V30 2 1 2 3
M  V30 3 2 3 4
M  V30 4 1 4 5
M  V30 5 1 5 6
M  V30 6 2 5 7
M  V30 7 1 7 8
M  V30 8 2 8 9
M  V30 9 1 8 10
M  V30 10 1 7 11
M  V30 11 1 9 3
M  V30 12 1 1 12
M  V30 13 1 1 13
M  V30 14 1 1 14
M  V30 15 1 2 15
M  V30 16 1 2 16
M  V30 17 1 6 17
M  V30 18 1 6 18
M  V30 19 1 10 19
M  V30 20 1 10 20
M  V30 21 1 11 21
M  V30 22 1 11 22
M  V30 23 1 11 23
M  V30 END BOND
M  V30 END CTAB
M  END
