
     RDKit          3D

  0  0  0  0  0  0  0  0  0  0999 V3000
M  V30 BEGIN CTAB
M  V30 COUNTS 21 21 0 0 0
M  V30 BEGIN ATOM
M  V30 1 C 3.30484 -0.102845 -0.168397 0
M  V30 2 C 2.13976 -1.01665 -0.0549174 0
M  V30 3 O 2.39349 -2.24677 0.00214525 0
M  V30 4 C 0.763578 -0.518579 -0.0111505 0
M  V30 5 C 0.474047 0.825543 -0.0744974 0
M  V30 6 C -0.844001 1.2902 -0.0315191 0
M  V30 7 N -1.1326 2.68416 -0.0978293 0
M  V30 8 C -1.89274 0.426814 0.0749287 0
M  V30 9 C -1.61611 -0.926551 0.139492 0
M  V30 10 C -0.309507 -1.37576 0.0962253 0
M  V30 11 N -2.72013 -1.8089 0.249991 0
M  V30 12 I -3.87085 1.15871 0.137409 0
M  V30 13 H 3.58808 0.0667261 -1.23591 0
M  V30 14 H 4.16208 -0.557183 0.363293 0
M  V30 15 H 3.12393 0.880842 0.336251 0
M  V30 16 H 1.26308 1.53991 -0.158644 0
M  V30 17 H -1.09459 3.32074 0.707807 0
M  V30 18 H -1.39685 3.05364 -1.03977 0
M  V30 19 H -0.0937968 -2.44613 0.147452 0
M  V30 20 H -3.08398 -2.33828 -0.572094 0
M  V30 21 H -3.15772 -1.90964 1.18974 0
M  V30 END ATOM
M  V30 BEGIN BOND
M  V30 1 1 1 2
M  V30 2 2 2 3
M  V30 3 1 2 4
M  V30 4 2 4 5
M  V30 5 1 5 6
M  V30 6 1 6 7
M  V30 7 2 6 8
M  V30 8 1 8 9
M  V30 9 2 9 10
M  V30 10 1 9 11
M  V30 11 1 8 12
M  V30 12 1 10 4
M  V30 13 1 1 13
M  V30 14 1 1 14
M  V30 15 1 1 15
M  V30 16 1 5 16
M  V30 17 1 7 17
M  V30 18 1 7 18
M  V30 19 1 10 19
M  V30 20 1 11 20
M  V30 21 1 11 21
M  V30 END BOND
M  V30 END CTAB
M  END
