
     RDKit          3D

  0  0  0  0  0  0  0  0  0  0999 V3000
M  V30 BEGIN CTAB
M  V30 COUNTS 31 31 0 0 0
M  V30 BEGIN ATOM
M  V30 1 C 3.33773 0.758754 0.626193 0
M  V30 2 C 2.20948 -0.112779 1.07689 0
M  V30 3 C 0.928688 0.237747 0.367675 0
M  V30 4 C 1.13597 0.0475612 -1.11502 0
M  V30 5 C -0.103379 0.263822 -1.9101 0
M  V30 6 C -1.34258 -0.329812 -1.3791 0
M  V30 7 C -1.40731 -0.628864 0.0669772 0
M  V30 8 C -0.10694 -0.774004 0.770822 0
M  V30 9 N -2.08118 -1.93651 0.212893 0
M  V30 10 C -2.35186 0.327059 0.81119 0
M  V30 11 N -1.93305 1.68829 0.684286 0
M  V30 12 H 3.92205 1.1642 1.4986 0
M  V30 13 H 4.04932 0.232669 -0.0606642 0
M  V30 14 H 2.96867 1.65118 0.0767897 0
M  V30 15 H 2.01444 -0.0357806 2.18057 0
M  V30 16 H 2.49274 -1.17035 0.825359 0
M  V30 17 H 0.649573 1.27573 0.570599 0
M  V30 18 H 1.89377 0.794432 -1.43047 0
M  V30 19 H 1.60586 -0.956113 -1.29033 0
M  V30 20 H 0.122564 -0.112296 -2.95271 0
M  V30 21 H -0.213433 1.37946 -2.05568 0
M  V30 22 H -2.19064 0.385403 -1.60684 0
M  V30 23 H -1.60007 -1.22704 -2.01849 0
M  V30 24 H 0.318003 -1.78087 0.501811 0
M  V30 25 H -0.275936 -0.771771 1.8574 0
M  V30 26 H -2.09318 -2.21168 1.19976 0
M  V30 27 H -1.70322 -2.62566 -0.447097 0
M  V30 28 H -3.3541 0.202864 0.362403 0
M  V30 29 H -2.41945 0.035303 1.86664 0
M  V30 30 H -2.69527 2.2962 1.02799 0
M  V30 31 H -1.77725 1.93285 -0.318349 0
M  V30 END ATOM
M  V30 BEGIN BOND
M  V30 1 1 1 2
M  V30 2 1 2 3
M  V30 3 1 3 4
M  V30 4 1 4 5
M  V30 5 1 5 6
M  V30 6 1 6 7
M  V30 7 1 7 8
M  V30 8 1 7 9
M  V30 9 1 7 10
M  V30 10 1 10 11
M  V30 11 1 8 3
M  V30 12 1 1 12
M  V30 13 1 1 13
M  V30 14 1 1 14
M  V30 15 1 2 15
M  V30 16 1 2 16
M  V30 17 1 3 17
M  V30 18 1 4 18
M  V30 19 1 4 19
M  V30 20 1 5 20
M  V30 21 1 5 21
M  V30 22 1 6 22
M  V30 23 1 6 23
M  V30 24 1 8 24
M  V30 25 1 8 25
M  V30 26 1 9 26
M  V30 27 1 9 27
M  V30 28 1 10 28
M  V30 29 1 10 29
M  V30 30 1 11 30
M  V30 31 1 11 31
M  V30 END BOND
M  V30 END CTAB
M  END
