
     RDKit          3D

  0  0  0  0  0  0  0  0  0  0999 V3000
M  V30 BEGIN CTAB
M  V30 COUNTS 51 54 0 0 0
M  V30 BEGIN ATOM
M  V30 1 O 2.34893 0.630107 -2.04897 0
M  V30 2 C 1.45193 0.3576 -1.19105 0
M  V30 3 N 0.679458 -0.828132 -1.44405 0
M  V30 4 C 0.788269 -1.70255 -2.5853 0
M  V30 5 C -0.0393772 -2.90634 -2.33166 0
M  V30 6 C -0.463904 -2.81201 -0.899226 0
M  V30 7 C -0.320958 -1.33868 -0.569397 0
M  V30 8 C -1.61294 -0.638466 -0.588673 0
M  V30 9 C -2.23421 -0.268267 -1.76195 0
M  V30 10 C -3.4471 0.394955 -1.77544 0
M  V30 11 C -4.07821 0.709777 -0.603125 0
M  V30 12 C -3.49066 0.356297 0.595187 0
M  V30 13 C -2.28464 -0.303905 0.598208 0
M  V30 14 O -3.95347 0.57531 1.90969 0
M  V30 15 C -4.98772 1.54356 2.17334 0
M  V30 16 C -6.27175 1.11265 1.51698 0
M  V30 17 C -6.42237 1.49352 0.089618 0
M  V30 18 O -5.28311 1.37287 -0.70739 0
M  V30 19 C 1.26537 1.23772 -0.0371184 0
M  V30 20 S 2.0092 0.610013 1.48018 0
M  V30 21 C 3.78121 0.561132 1.3879 0
M  V30 22 N 4.39606 -0.549706 0.932543 0
M  V30 23 C 5.72826 -0.63493 0.837436 0
M  V30 24 N 6.39908 -1.80044 0.356634 0
M  V30 25 C 6.52676 0.422973 1.20729 0
M  V30 26 C 5.90742 1.56397 1.67474 0
M  V30 27 N 4.56148 1.58882 1.74654 0
M  V30 28 N 6.62065 2.71813 2.08366 0
M  V30 29 H 0.389884 -1.19958 -3.50579 0
M  V30 30 H 1.84874 -1.94325 -2.82785 0
M  V30 31 H -0.934999 -2.94802 -3.00952 0
M  V30 32 H 0.551298 -3.83586 -2.47998 0
M  V30 33 H -1.5093 -3.17796 -0.83243 0
M  V30 34 H 0.138651 -3.45739 -0.229395 0
M  V30 35 H 0.0816639 -1.31788 0.484705 0
M  V30 36 H -1.73904 -0.514218 -2.71334 0
M  V30 37 H -3.9231 0.679395 -2.70752 0
M  V30 38 H -1.78788 -0.605773 1.52054 0
M  V30 39 H -5.14254 1.51606 3.27043 0
M  V30 40 H -4.63914 2.54231 1.86155 0
M  V30 41 H -7.10803 1.57484 2.09966 0
M  V30 42 H -6.37302 0.0195528 1.67281 0
M  V30 43 H -6.8511 2.50207 -0.0567329 0
M  V30 44 H -7.17698 0.775231 -0.355902 0
M  V30 45 H 1.7941 2.21556 -0.269962 0
M  V30 46 H 0.187925 1.42376 0.106541 0
M  V30 47 H 6.85342 -1.79212 -0.580133 0
M  V30 48 H 6.41382 -2.64245 0.970429 0
M  V30 49 H 7.58957 0.390184 1.14641 0
M  V30 50 H 6.78041 3.46069 1.3453 0
M  V30 51 H 6.982 2.86888 3.04358 0
M  V30 END ATOM
M  V30 BEGIN BOND
M  V30 1 2 1 2
M  V30 2 1 2 3
M  V30 3 1 3 4
M  V30 4 1 4 5
M  V30 5 1 5 6
M  V30 6 1 6 7
M  V30 7 1 7 8
M  V30 8 2 8 9
M  V30 9 1 9 10
M  V30 10 2 10 11
M  V30 11 1 11 12
M  V30 12 2 12 13
M  V30 13 1 12 14
M  V30 14 1 14 15
M  V30 15 1 15 16
M  V30 16 1 16 17
M  V30 17 1 17 18
M  V30 18 1 2 19
M  V30 19 1 19 20
M  V30 20 1 20 21
M  V30 21 2 21 22
M  V30 22 1 22 23
M  V30 23 1 23 24
M  V30 24 2 23 25
M  V30 25 1 25 26
M  V30 26 2 26 27
M  V30 27 1 26 28
M  V30 28 1 7 3
M  V30 29 1 13 8
M  V30 30 1 27 21
M  V30 31 1 18 11
M  V30 32 1 4 29
M  V30 33 1 4 30
M  V30 34 1 5 31
M  V30 35 1 5 32
M  V30 36 1 6 33
M  V30 37 1 6 34
M  V30 38 1 7 35
M  V30 39 1 9 36
M  V30 40 1 10 37
M  V30 41 1 13 38
M  V30 42 1 15 39
M  V30 43 1 15 40
M  V30 44 1 16 41
M  V30 45 1 16 42
M  V30 46 1 17 43
M  V30 47 1 17 44
M  V30 48 1 19 45
M  V30 49 1 19 46
M  V30 50 1 24 47
M  V30 51 1 24 48
M  V30 52 1 25 49
M  V30 53 1 28 50
M  V30 54 1 28 51
M  V30 END BOND
M  V30 END CTAB
M  END
