
     RDKit          3D

  0  0  0  0  0  0  0  0  0  0999 V3000
M  V30 BEGIN CTAB
M  V30 COUNTS 50 52 0 0 0
M  V30 BEGIN ATOM
M  V30 1 C -4.43726 1.66957 0.0213921 0
M  V30 2 N -5.01361 0.490881 -0.633632 0
M  V30 3 C -4.00539 -0.345183 -1.14261 0
M  V30 4 C -3.528 -1.24025 -0.0554493 0
M  V30 5 C -4.43769 -2.17198 0.487952 0
M  V30 6 C -3.97119 -3.1267 1.38973 0
M  V30 7 C -2.6362 -3.11635 1.71542 0
M  V30 8 C -1.72443 -2.17152 1.16529 0
M  V30 9 C -2.2051 -1.2403 0.272918 0
M  V30 10 C -1.34957 -0.261476 -0.389435 0
M  V30 11 N -0.0486246 -0.256687 0.176142 0
M  V30 12 C 0.992152 0.590058 -0.272057 0
M  V30 13 C 2.23146 -0.0219092 -0.279113 0
M  V30 14 C 3.28755 0.742573 -0.602637 0
M  V30 15 N 3.18311 1.9939 -0.893316 0
M  V30 16 C 1.97878 2.61261 -0.890646 0
M  V30 17 N 0.898866 1.88913 -0.57635 0
M  V30 18 N 1.92469 4.04084 -1.14908 0
M  V30 19 C 4.58635 0.0053054 -0.688866 0
M  V30 20 C 4.95633 -0.566988 0.675957 0
M  V30 21 C 6.3274 0.0177183 0.456269 0
M  V30 22 C 5.78102 0.872666 -0.655569 0
M  V30 23 N 7.26723 -0.965086 -0.102523 0
M  V30 24 C -6.31277 0.664196 -0.956409 0
M  V30 25 H -3.64377 1.43721 0.730005 0
M  V30 26 H -5.20337 2.22718 0.520428 0
M  V30 27 H -3.95533 2.28253 -0.798598 0
M  V30 28 H -3.2493 0.0482454 -1.79799 0
M  V30 29 H -4.5647 -1.10128 -1.85003 0
M  V30 30 H -5.47427 -2.2006 0.192451 0
M  V30 31 H -4.64731 -3.84609 1.83957 0
M  V30 32 H -2.20684 -3.82621 2.4207 0
M  V30 33 H -0.704064 -2.23275 1.47245 0
M  V30 34 H -1.0734 -0.862263 -1.43673 0
M  V30 35 H -1.72298 0.694057 -0.683023 0
M  V30 36 H 0.160415 -0.846429 1.0141 0
M  V30 37 H 2.30859 -1.08095 -0.020344 0
M  V30 38 H 1.57605 4.69052 -0.40146 0
M  V30 39 H 2.20599 4.44404 -2.04826 0
M  V30 40 H 4.55254 -0.754929 -1.46316 0
M  V30 41 H 4.92462 -1.67188 0.684613 0
M  V30 42 H 4.34427 -0.161697 1.49532 0
M  V30 43 H 6.66534 0.545617 1.36992 0
M  V30 44 H 5.54111 1.92558 -0.361572 0
M  V30 45 H 6.32572 0.897211 -1.60838 0
M  V30 46 H 6.68457 -1.54244 -0.756108 0
M  V30 47 H 7.75733 -1.51569 0.605853 0
M  V30 48 H -6.83975 1.1211 -0.0272787 0
M  V30 49 H -6.96609 -0.221034 -1.13352 0
M  V30 50 H -6.54045 1.44594 -1.72479 0
M  V30 END ATOM
M  V30 BEGIN BOND
M  V30 1 1 1 2
M  V30 2 1 2 3
M  V30 3 1 3 4
M  V30 4 2 4 5
M  V30 5 1 5 6
M  V30 6 2 6 7
M  V30 7 1 7 8
M  V30 8 2 8 9
M  V30 9 1 9 10
M  V30 10 1 10 11
M  V30 11 1 11 12
M  V30 12 2 12 13
M  V30 13 1 13 14
M  V30 14 2 14 15
M  V30 15 1 15 16
M  V30 16 2 16 17
M  V30 17 1 16 18
M  V30 18 1 14 19
M  V30 19 1 19 20
M  V30 20 1 20 21
M  V30 21 1 21 22
M  V30 22 1 21 23
M  V30 23 1 2 24
M  V30 24 1 9 4
M  V30 25 1 17 12
M  V30 26 1 22 19
M  V30 27 1 1 25
M  V30 28 1 1 26
M  V30 29 1 1 27
M  V30 30 1 3 28
M  V30 31 1 3 29
M  V30 32 1 5 30
M  V30 33 1 6 31
M  V30 34 1 7 32
M  V30 35 1 8 33
M  V30 36 1 10 34
M  V30 37 1 10 35
M  V30 38 1 11 36
M  V30 39 1 13 37
M  V30 40 1 18 38
M  V30 41 1 18 39
M  V30 42 1 19 40
M  V30 43 1 20 41
M  V30 44 1 20 42
M  V30 45 1 21 43
M  V30 46 1 22 44
M  V30 47 1 22 45
M  V30 48 1 23 46
M  V30 49 1 23 47
M  V30 50 1 24 48
M  V30 51 1 24 49
M  V30 52 1 24 50
M  V30 END BOND
M  V30 END CTAB
M  END
