
     RDKit          3D

  0  0  0  0  0  0  0  0  0  0999 V3000
M  V30 BEGIN CTAB
M  V30 COUNTS 68 72 0 0 0
M  V30 BEGIN ATOM
M  V30 1 C 9.82801 2.12146 -0.0203943 0
M  V30 2 C 9.56382 0.659553 -0.322628 0
M  V30 3 C 8.1037 0.38903 -0.533769 0
M  V30 4 C 7.62845 0.73634 -1.79572 0
M  V30 5 C 8.47829 1.31442 -2.85703 0
M  V30 6 N 6.3327 0.510599 -1.99894 0
M  V30 7 C 5.51766 -0.0269586 -1.03552 0
M  V30 8 C 5.94753 -0.380945 0.214058 0
M  V30 9 C 7.32272 -0.146141 0.446018 0
M  V30 10 C 7.92542 -0.457744 1.77968 0
M  V30 11 C 5.03509 -0.893811 1.055 0
M  V30 12 N 5.3099 -1.33925 2.42046 0
M  V30 13 C 3.74163 -1.02064 0.592014 0
M  V30 14 S 3.85993 -0.418949 -0.997681 0
M  V30 15 C 2.57874 -1.50442 1.32246 0
M  V30 16 O 2.69597 -1.8364 2.52735 0
M  V30 17 C 1.27848 -1.6019 0.675053 0
M  V30 18 C 1.0713 -1.82432 -0.658255 0
M  V30 19 C -0.205827 -1.84753 -1.19598 0
M  V30 20 C -1.34261 -1.65017 -0.425985 0
M  V30 21 C -1.13274 -1.43152 0.904266 0
M  V30 22 C 0.130537 -1.40225 1.46614 0
M  V30 23 C -2.64053 -1.70393 -1.04254 0
M  V30 24 O -2.77119 -2.50733 -2.00763 0
M  V30 25 C -3.77382 -0.879058 -0.599167 0
M  V30 26 S -3.77066 0.31839 0.597384 0
M  V30 27 C -5.39424 0.830469 0.489803 0
M  V30 28 C -5.89935 0.0353285 -0.496713 0
M  V30 29 C -5.05652 -0.860155 -1.06954 0
M  V30 30 N -5.40685 -1.78662 -2.12947 0
M  V30 31 C -7.26108 0.245986 -0.803682 0
M  V30 32 C -7.93117 -0.542725 -1.84273 0
M  V30 33 C -7.95474 1.20567 -0.109022 0
M  V30 34 C -7.41291 1.99805 0.886947 0
M  V30 35 N -6.11826 1.77784 1.15935 0
M  V30 36 C -8.18716 3.02017 1.61053 0
M  V30 37 C -9.40571 1.45989 -0.383914 0
M  V30 38 C -10.1987 0.355447 0.280186 0
M  V30 39 H 8.86696 2.66106 0.158991 0
M  V30 40 H 10.4822 2.1464 0.888331 0
M  V30 41 H 10.4154 2.6355 -0.807354 0
M  V30 42 H 10.0605 -0.0440705 0.353119 0
M  V30 43 H 10.1069 0.487017 -1.31571 0
M  V30 44 H 7.84725 1.41922 -3.78493 0
M  V30 45 H 8.8905 2.31043 -2.59963 0
M  V30 46 H 9.28681 0.603143 -3.17066 0
M  V30 47 H 7.31437 0.141518 2.52467 0
M  V30 48 H 8.93937 -0.0405173 1.90388 0
M  V30 49 H 7.83553 -1.50408 2.05321 0
M  V30 50 H 5.64392 -2.28874 2.61793 0
M  V30 51 H 5.13301 -0.611065 3.1467 0
M  V30 52 H 1.88461 -2.00534 -1.31465 0
M  V30 53 H -0.358776 -2.02467 -2.25175 0
M  V30 54 H -2.00531 -1.28993 1.55864 0
M  V30 55 H 0.267778 -1.22462 2.52576 0
M  V30 56 H -5.7886 -2.71654 -1.90938 0
M  V30 57 H -5.26548 -1.49549 -3.10525 0
M  V30 58 H -7.93879 -1.64096 -1.60846 0
M  V30 59 H -7.4221 -0.325273 -2.81348 0
M  V30 60 H -8.98641 -0.280769 -2.00771 0
M  V30 61 H -8.52869 3.85849 0.963758 0
M  V30 62 H -7.52656 3.50891 2.38235 0
M  V30 63 H -9.03585 2.57781 2.18014 0
M  V30 64 H -9.61956 1.5469 -1.47847 0
M  V30 65 H -9.71485 2.46878 0.0177513 0
M  V30 66 H -9.52667 -0.398699 0.755859 0
M  V30 67 H -10.8075 -0.170971 -0.482126 0
M  V30 68 H -10.9357 0.780647 0.998642 0
M  V30 END ATOM
M  V30 BEGIN BOND
M  V30 1 1 1 2
M  V30 2 1 2 3
M  V30 3 2 3 4
M  V30 4 1 4 5
M  V30 5 1 4 6
M  V30 6 2 6 7
M  V30 7 1 7 8
M  V30 8 2 8 9
M  V30 9 1 9 10
M  V30 10 1 8 11
M  V30 11 1 11 12
M  V30 12 2 11 13
M  V30 13 1 13 14
M  V30 14 1 13 15
M  V30 15 2 15 16
M  V30 16 1 15 17
M  V30 17 2 17 18
M  V30 18 1 18 19
M  V30 19 2 19 20
M  V30 20 1 20 21
M  V30 21 2 21 22
M  V30 22 1 20 23
M  V30 23 2 23 24
M  V30 24 1 23 25
M  V30 25 1 25 26
M  V30 26 1 26 27
M  V30 27 2 27 28
M  V30 28 1 28 29
M  V30 29 1 29 30
M  V30 30 1 28 31
M  V30 31 1 31 32
M  V30 32 2 31 33
M  V30 33 1 33 34
M  V30 34 2 34 35
M  V30 35 1 34 36
M  V30 36 1 33 37
M  V30 37 1 37 38
M  V30 38 1 9 3
M  V30 39 1 22 17
M  V30 40 2 29 25
M  V30 41 1 14 7
M  V30 42 1 35 27
M  V30 43 1 1 39
M  V30 44 1 1 40
M  V30 45 1 1 41
M  V30 46 1 2 42
M  V30 47 1 2 43
M  V30 48 1 5 44
M  V30 49 1 5 45
M  V30 50 1 5 46
M  V30 51 1 10 47
M  V30 52 1 10 48
M  V30 53 1 10 49
M  V30 54 1 12 50
M  V30 55 1 12 51
M  V30 56 1 18 52
M  V30 57 1 19 53
M  V30 58 1 21 54
M  V30 59 1 22 55
M  V30 60 1 30 56
M  V30 61 1 30 57
M  V30 62 1 32 58
M  V30 63 1 32 59
M  V30 64 1 32 60
M  V30 65 1 36 61
M  V30 66 1 36 62
M  V30 67 1 36 63
M  V30 68 1 37 64
M  V30 69 1 37 65
M  V30 70 1 38 66
M  V30 71 1 38 67
M  V30 72 1 38 68
M  V30 END BOND
M  V30 END CTAB
M  END
