
     RDKit          3D

  0  0  0  0  0  0  0  0  0  0999 V3000
M  V30 BEGIN CTAB
M  V30 COUNTS 38 38 0 0 0
M  V30 BEGIN ATOM
M  V30 1 C 4.9954 1.07699 0.949065 0
M  V30 2 C 5.03455 -0.179279 0.132132 0
M  V30 3 C 4.06673 -0.182405 -1.00509 0
M  V30 4 C 2.65939 -0.041862 -0.569513 0
M  V30 5 O 2.45477 0.0597085 0.666049 0
M  V30 6 N 1.61601 -0.0259277 -1.52179 0
M  V30 7 C 0.227753 0.104881 -1.19979 0
M  V30 8 C -0.317955 -0.976615 -0.319197 0
M  V30 9 C -1.75095 -0.69793 -0.0831229 0
M  V30 10 C -2.76497 -1.17133 -0.888485 0
M  V30 11 C -4.09395 -0.896542 -0.645807 0
M  V30 12 C -4.47027 -0.12356 0.430982 0
M  V30 13 C -3.46955 0.358283 1.24702 0
M  V30 14 C -2.14002 0.078759 0.997544 0
M  V30 15 S -6.16393 0.240962 0.761121 0
M  V30 16 O -6.42382 0.267906 2.22565 0
M  V30 17 O -6.96011 -0.904164 0.175548 0
M  V30 18 N -6.66132 1.68583 -0.0282221 0
M  V30 19 N 6.37392 -0.317484 -0.429605 0
M  V30 20 H 4.62887 1.94521 0.363598 0
M  V30 21 H 6.02541 1.31118 1.28256 0
M  V30 22 H 4.40599 0.93323 1.89208 0
M  V30 23 H 4.82365 -1.0271 0.823435 0
M  V30 24 H 4.34957 0.597954 -1.74165 0
M  V30 25 H 4.14959 -1.16414 -1.51791 0
M  V30 26 H 1.88489 -0.117251 -2.53995 0
M  V30 27 H -0.36254 0.100698 -2.13487 0
M  V30 28 H 0.0434489 1.09274 -0.729404 0
M  V30 29 H -0.245619 -1.96069 -0.817533 0
M  V30 30 H 0.247683 -1.02409 0.631751 0
M  V30 31 H -2.43972 -1.78526 -1.74062 0
M  V30 32 H -4.82186 -1.29644 -1.31103 0
M  V30 33 H -3.75682 0.965996 2.09459 0
M  V30 34 H -1.34891 0.462274 1.64643 0
M  V30 35 H -5.89464 2.38496 -0.104851 0
M  V30 36 H -6.97863 1.48721 -1.01322 0
M  V30 37 H 6.67307 -1.3047 -0.322973 0
M  V30 38 H 6.4049 0.0419997 -1.39344 0
M  V30 END ATOM
M  V30 BEGIN BOND
M  V30 1 1 1 2
M  V30 2 1 2 3
M  V30 3 1 3 4
M  V30 4 2 4 5
M  V30 5 1 4 6
M  V30 6 1 6 7
M  V30 7 1 7 8
M  V30 8 1 8 9
M  V30 9 2 9 10
M  V30 10 1 10 11
M  V30 11 2 11 12
M  V30 12 1 12 13
M  V30 13 2 13 14
M  V30 14 1 12 15
M  V30 15 2 15 16
M  V30 16 2 15 17
M  V30 17 1 15 18
M  V30 18 1 2 19
M  V30 19 1 14 9
M  V30 20 1 1 20
M  V30 21 1 1 21
M  V30 22 1 1 22
M  V30 23 1 2 23
M  V30 24 1 3 24
M  V30 25 1 3 25
M  V30 26 1 6 26
M  V30 27 1 7 27
M  V30 28 1 7 28
M  V30 29 1 8 29
M  V30 30 1 8 30
M  V30 31 1 10 31
M  V30 32 1 11 32
M  V30 33 1 13 33
M  V30 34 1 14 34
M  V30 35 1 18 35
M  V30 36 1 18 36
M  V30 37 1 19 37
M  V30 38 1 19 38
M  V30 END BOND
M  V30 END CTAB
M  END
