
     RDKit          3D

  0  0  0  0  0  0  0  0  0  0999 V3000
M  V30 BEGIN CTAB
M  V30 COUNTS 58 63 0 0 0
M  V30 BEGIN ATOM
M  V30 1 N -1.2745 0.816804 1.65795 0
M  V30 2 C -1.6334 0.192557 0.44175 0
M  V30 3 C -0.670848 -0.465174 -0.264174 0
M  V30 4 C -1.05512 -1.07963 -1.46382 0
M  V30 5 C -0.130601 -1.76243 -2.22799 0
M  V30 6 C -0.470327 -2.378 -3.41069 0
M  V30 7 C -1.77248 -2.31115 -3.84576 0
M  V30 8 C -2.71261 -1.63731 -3.10328 0
M  V30 9 C -2.36337 -1.013 -1.90184 0
M  V30 10 C -3.34255 -0.340727 -1.17853 0
M  V30 11 C -2.93126 0.261703 0.0119892 0
M  V30 12 C -3.95651 0.9672 0.760898 0
M  V30 13 C -3.80513 2.2315 1.27996 0
M  V30 14 C -4.81153 2.85516 1.9886 0
M  V30 15 C -6.03358 2.22564 2.21002 0
M  V30 16 C -6.18832 0.963123 1.693 0
M  V30 17 C -5.18943 0.346699 0.990922 0
M  V30 18 C 0.721116 -0.579438 0.128645 0
M  V30 19 C 1.64349 0.369808 -0.276333 0
M  V30 20 N 1.22049 1.46459 -1.07731 0
M  V30 21 C 2.96903 0.277758 0.086649 0
M  V30 22 C 3.30906 -0.823146 0.87919 0
M  V30 23 C 2.39441 -1.7701 1.28456 0
M  V30 24 C 2.74965 -2.85031 2.06709 0
M  V30 25 C 1.83976 -3.80379 2.47773 0
M  V30 26 C 0.523345 -3.67831 2.09491 0
M  V30 27 C 0.138351 -2.5926 1.30199 0
M  V30 28 C 1.07384 -1.6578 0.909337 0
M  V30 29 C 3.98932 1.24813 -0.315993 0
M  V30 30 C 4.88008 1.76501 0.61286 0
M  V30 31 C 5.86129 2.67243 0.29946 0
M  V30 32 C 5.95161 3.08545 -1.03216 0
M  V30 33 C 5.08921 2.59932 -1.98837 0
M  V30 34 C 4.11379 1.68385 -1.62421 0
M  V30 35 H -0.684718 1.66951 1.62187 0
M  V30 36 H -1.59597 0.427935 2.56988 0
M  V30 37 H 0.898192 -1.83284 -1.91397 0
M  V30 38 H 0.227892 -2.91699 -4.0272 0
M  V30 39 H -2.05223 -2.7913 -4.77447 0
M  V30 40 H -3.76115 -1.56323 -3.41943 0
M  V30 41 H -4.36851 -0.280828 -1.50912 0
M  V30 42 H -2.8728 2.75584 1.12719 0
M  V30 43 H -4.625 3.84025 2.36447 0
M  V30 44 H -6.83219 2.69612 2.7611 0
M  V30 45 H -7.14529 0.475089 1.86859 0
M  V30 46 H -5.33721 -0.648164 0.594323 0
M  V30 47 H 1.25601 2.44446 -0.725607 0
M  V30 48 H 0.869184 1.26866 -2.03587 0
M  V30 49 H 4.35103 -0.902367 1.16915 0
M  V30 50 H 3.80404 -2.90549 2.34429 0
M  V30 51 H 2.17888 -4.64142 3.09911 0
M  V30 52 H -0.193768 -4.40974 2.40554 0
M  V30 53 H -0.897377 -2.47213 0.986676 0
M  V30 54 H 4.78916 1.43027 1.63298 0
M  V30 55 H 6.52455 3.04235 1.05017 0
M  V30 56 H 6.71518 3.79565 -1.29172 0
M  V30 57 H 5.18649 2.93876 -3.00583 0
M  V30 58 H 3.43933 1.2958 -2.35917 0
M  V30 END ATOM
M  V30 BEGIN BOND
M  V30 1 1 1 2
M  V30 2 2 2 3
M  V30 3 1 3 4
M  V30 4 2 4 5
M  V30 5 1 5 6
M  V30 6 2 6 7
M  V30 7 1 7 8
M  V30 8 2 8 9
M  V30 9 1 9 10
M  V30 10 2 10 11
M  V30 11 1 11 12
M  V30 12 2 12 13
M  V30 13 1 13 14
M  V30 14 2 14 15
M  V30 15 1 15 16
M  V30 16 2 16 17
M  V30 17 1 3 18
M  V30 18 2 18 19
M  V30 19 1 19 20
M  V30 20 1 19 21
M  V30 21 2 21 22
M  V30 22 1 22 23
M  V30 23 2 23 24
M  V30 24 1 24 25
M  V30 25 2 25 26
M  V30 26 1 26 27
M  V30 27 2 27 28
M  V30 28 1 21 29
M  V30 29 2 29 30
M  V30 30 1 30 31
M  V30 31 2 31 32
M  V30 32 1 32 33
M  V30 33 2 33 34
M  V30 34 1 11 2
M  V30 35 1 17 12
M  V30 36 1 28 18
M  V30 37 1 34 29
M  V30 38 1 9 4
M  V30 39 1 28 23
M  V30 40 1 1 35
M  V30 41 1 1 36
M  V30 42 1 5 37
M  V30 43 1 6 38
M  V30 44 1 7 39
M  V30 45 1 8 40
M  V30 46 1 10 41
M  V30 47 1 13 42
M  V30 48 1 14 43
M  V30 49 1 15 44
M  V30 50 1 16 45
M  V30 51 1 17 46
M  V30 52 1 20 47
M  V30 53 1 20 48
M  V30 54 1 22 49
M  V30 55 1 24 50
M  V30 56 1 25 51
M  V30 57 1 26 52
M  V30 58 1 27 53
M  V30 59 1 30 54
M  V30 60 1 31 55
M  V30 61 1 32 56
M  V30 62 1 33 57
M  V30 63 1 34 58
M  V30 END BOND
M  V30 END CTAB
M  END
