
     RDKit          3D

  0  0  0  0  0  0  0  0  0  0999 V3000
M  V30 BEGIN CTAB
M  V30 COUNTS 39 40 0 0 0
M  V30 BEGIN ATOM
M  V30 1 C -2.15837 -1.43167 -1.07107 0
M  V30 2 C -2.83573 -0.670355 0.0507996 0
M  V30 3 C -2.87716 -1.65102 1.24003 0
M  V30 4 N -4.18089 -0.309679 -0.280933 0
M  V30 5 C -4.73651 0.840005 -0.187954 0
M  V30 6 N -6.1103 1.04064 -0.564477 0
M  V30 7 N -3.96379 1.92424 0.291373 0
M  V30 8 C -2.74252 1.72381 0.613247 0
M  V30 9 N -1.98278 2.85005 1.09991 0
M  V30 10 N -2.0973 0.463315 0.51126 0
M  V30 11 O -0.782438 0.389504 0.868233 0
M  V30 12 C 0.0422398 0.832849 -0.155126 0
M  V30 13 C 1.49199 0.743185 0.267342 0
M  V30 14 C 2.30454 0.00273395 -0.410667 0
M  V30 15 C 3.70814 -0.296036 -0.282589 0
M  V30 16 C 4.55545 0.188312 0.675492 0
M  V30 17 Cl 3.95716 1.29325 1.91605 0
M  V30 18 C 5.88481 -0.169199 0.698118 0
M  V30 19 C 6.42218 -1.01095 -0.216544 0
M  V30 20 Cl 8.12478 -1.43864 -0.147542 0
M  V30 21 C 5.5817 -1.50371 -1.18321 0
M  V30 22 C 4.26568 -1.16871 -1.23068 0
M  V30 23 H -2.82434 -2.29253 -1.306 0
M  V30 24 H -1.21479 -1.87042 -0.682009 0
M  V30 25 H -2.03722 -0.845697 -1.98234 0
M  V30 26 H -3.66611 -2.43471 1.04727 0
M  V30 27 H -1.9121 -2.19573 1.24825 0
M  V30 28 H -3.07475 -1.12446 2.1767 0
M  V30 29 H -6.59852 1.89638 -0.273263 0
M  V30 30 H -6.59715 0.329571 -1.1217 0
M  V30 31 H -1.26992 2.74773 1.82346 0
M  V30 32 H -2.18377 3.77295 0.689992 0
M  V30 33 H -0.149315 1.89081 -0.418271 0
M  V30 34 H -0.100923 0.233804 -1.06324 0
M  V30 35 H 1.73898 1.31376 1.11583 0
M  V30 36 H 1.81405 -0.51824 -1.28432 0
M  V30 37 H 6.50707 0.246872 1.48172 0
M  V30 38 H 6.01273 -2.18163 -1.92049 0
M  V30 39 H 3.68521 -1.61039 -2.03262 0
M  V30 END ATOM
M  V30 BEGIN BOND
M  V30 1 1 1 2
M  V30 2 1 2 3
M  V30 3 1 2 4
M  V30 4 2 4 5
M  V30 5 1 5 6
M  V30 6 1 5 7
M  V30 7 2 7 8
M  V30 8 1 8 9
M  V30 9 1 8 10
M  V30 10 1 10 11
M  V30 11 1 11 12
M  V30 12 1 12 13
M  V30 13 2 13 14 CFG=2
M  V30 14 1 14 15
M  V30 15 2 15 16
M  V30 16 1 16 17
M  V30 17 1 16 18
M  V30 18 2 18 19
M  V30 19 1 19 20
M  V30 20 1 19 21
M  V30 21 2 21 22
M  V30 22 1 10 2
M  V30 23 1 22 15
M  V30 24 1 1 23
M  V30 25 1 1 24
M  V30 26 1 1 25
M  V30 27 1 3 26
M  V30 28 1 3 27
M  V30 29 1 3 28
M  V30 30 1 6 29
M  V30 31 1 6 30
M  V30 32 1 9 31
M  V30 33 1 9 32
M  V30 34 1 12 33
M  V30 35 1 12 34
M  V30 36 1 13 35
M  V30 37 1 14 36
M  V30 38 1 18 37
M  V30 39 1 21 38
M  V30 40 1 22 39
M  V30 END BOND
M  V30 END CTAB
M  END
