
     RDKit          3D

  0  0  0  0  0  0  0  0  0  0999 V3000
M  V30 BEGIN CTAB
M  V30 COUNTS 36 38 0 0 0
M  V30 BEGIN ATOM
M  V30 1 N 3.75307 0.855058 1.97454 0
M  V30 2 C 3.95849 1.24253 0.611031 0
M  V30 3 C 2.83944 0.788723 -0.273279 0
M  V30 4 C 2.89003 1.08536 -1.61959 0
M  V30 5 C 1.85509 0.671356 -2.46592 0
M  V30 6 C 0.77518 -0.033125 -1.98094 0
M  V30 7 C 0.720689 -0.331879 -0.635002 0
M  V30 8 C 1.75544 0.0859538 0.191569 0
M  V30 9 C -0.420614 -1.08665 -0.0709218 0
M  V30 10 C -0.95425 -2.13381 -1.0171 0
M  V30 11 C -2.11276 -2.8159 -0.277567 0
M  V30 12 C -3.24537 -1.81885 -0.276591 0
M  V30 13 N -2.80028 -0.555716 0.274774 0
M  V30 14 C -1.52147 -0.197337 0.379951 0
M  V30 15 C -1.45779 1.05496 0.943322 0
M  V30 16 C -2.75358 1.45405 1.18138 0
M  V30 17 N -3.51883 0.4372 0.755656 0
M  V30 18 N -3.22683 2.65913 1.74728 0
M  V30 19 H 4.70553 0.773284 2.41844 0
M  V30 20 H 3.24652 1.5771 2.53642 0
M  V30 21 H 4.02791 2.34812 0.510537 0
M  V30 22 H 4.92282 0.794747 0.256393 0
M  V30 23 H 3.74128 1.64391 -2.01814 0
M  V30 24 H 1.90207 0.908343 -3.52303 0
M  V30 25 H 0.00192857 -0.329836 -2.67652 0
M  V30 26 H 1.75055 -0.131323 1.26866 0
M  V30 27 H -0.0779076 -1.63672 0.844139 0
M  V30 28 H -0.161229 -2.85245 -1.22969 0
M  V30 29 H -1.40846 -1.68435 -1.92505 0
M  V30 30 H -2.3706 -3.73599 -0.802677 0
M  V30 31 H -1.75161 -2.97849 0.759329 0
M  V30 32 H -3.60661 -1.68835 -1.31595 0
M  V30 33 H -4.04518 -2.25878 0.378984 0
M  V30 34 H -0.6009 1.67143 1.18394 0
M  V30 35 H -3.13597 2.85174 2.75418 0
M  V30 36 H -3.67578 3.36655 1.13746 0
M  V30 END ATOM
M  V30 BEGIN BOND
M  V30 1 1 1 2
M  V30 2 1 2 3
M  V30 3 2 3 4
M  V30 4 1 4 5
M  V30 5 2 5 6
M  V30 6 1 6 7
M  V30 7 2 7 8
M  V30 8 1 7 9
M  V30 9 1 9 10
M  V30 10 1 10 11
M  V30 11 1 11 12
M  V30 12 1 12 13
M  V30 13 1 13 14
M  V30 14 2 14 15
M  V30 15 1 15 16
M  V30 16 2 16 17
M  V30 17 1 16 18
M  V30 18 1 8 3
M  V30 19 1 14 9
M  V30 20 1 17 13
M  V30 21 1 1 19
M  V30 22 1 1 20
M  V30 23 1 2 21
M  V30 24 1 2 22
M  V30 25 1 4 23
M  V30 26 1 5 24
M  V30 27 1 6 25
M  V30 28 1 8 26
M  V30 29 1 9 27
M  V30 30 1 10 28
M  V30 31 1 10 29
M  V30 32 1 11 30
M  V30 33 1 11 31
M  V30 34 1 12 32
M  V30 35 1 12 33
M  V30 36 1 15 34
M  V30 37 1 18 35
M  V30 38 1 18 36
M  V30 END BOND
M  V30 END CTAB
M  END
