
     RDKit          3D

  0  0  0  0  0  0  0  0  0  0999 V3000
M  V30 BEGIN CTAB
M  V30 COUNTS 25 26 0 0 0
M  V30 BEGIN ATOM
M  V30 1 C -3.18602 -0.186935 -0.340509 0
M  V30 2 C -1.71069 -0.22758 0.00102965 0
M  V30 3 C -1.29616 0.695685 1.09389 0
M  V30 4 C -1.07716 -1.57319 -0.200004 0
M  V30 5 C -0.705017 -0.472303 -1.07353 0
M  V30 6 C 0.598686 0.232868 -1.03483 0
M  V30 7 N 1.01996 1.18811 -1.92112 0
M  V30 8 N 2.22915 1.55788 -1.56122 0
M  V30 9 C 2.63281 0.890968 -0.473763 0
M  V30 10 N 1.59047 0.0674605 -0.166501 0
M  V30 11 N 1.6714 -0.790838 0.922286 0
M  V30 12 N 3.86428 1.01745 0.199161 0
M  V30 13 H -3.68342 -0.919859 0.335174 0
M  V30 14 H -3.35957 -0.434837 -1.40682 0
M  V30 15 H -3.63748 0.802191 -0.0945176 0
M  V30 16 H -2.11697 1.4003 1.38565 0
M  V30 17 H -0.962652 0.195984 2.02854 0
M  V30 18 H -0.470303 1.34525 0.740212 0
M  V30 19 H -0.552396 -1.94143 0.677178 0
M  V30 20 H -1.70648 -2.38049 -0.675433 0
M  V30 21 H -1.17582 -0.415218 -2.09653 0
M  V30 22 H 1.83751 -1.81768 0.855696 0
M  V30 23 H 1.55852 -0.382544 1.87465 0
M  V30 24 H 4.7482 0.626177 -0.171844 0
M  V30 25 H 3.88917 1.5226 1.10314 0
M  V30 END ATOM
M  V30 BEGIN BOND
M  V30 1 1 1 2
M  V30 2 1 2 3
M  V30 3 1 2 4
M  V30 4 1 4 5
M  V30 5 1 5 6
M  V30 6 2 6 7
M  V30 7 1 7 8
M  V30 8 2 8 9
M  V30 9 1 9 10
M  V30 10 1 10 11
M  V30 11 1 9 12
M  V30 12 1 5 2
M  V30 13 1 10 6
M  V30 14 1 1 13
M  V30 15 1 1 14
M  V30 16 1 1 15
M  V30 17 1 3 16
M  V30 18 1 3 17
M  V30 19 1 3 18
M  V30 20 1 4 19
M  V30 21 1 4 20
M  V30 22 1 5 21
M  V30 23 1 11 22
M  V30 24 1 11 23
M  V30 25 1 12 24
M  V30 26 1 12 25
M  V30 END BOND
M  V30 END CTAB
M  END
