
     RDKit          3D

  0  0  0  0  0  0  0  0  0  0999 V3000
M  V30 BEGIN CTAB
M  V30 COUNTS 38 39 0 0 0
M  V30 BEGIN ATOM
M  V30 1 C 0.475092 2.46458 0.336628 0
M  V30 2 C 1.31212 1.24443 0.296641 0
M  V30 3 C 2.69306 1.37032 0.488965 0
M  V30 4 C 3.46823 0.229305 0.450538 0
M  V30 5 N 4.87675 0.32018 0.642169 0
M  V30 6 C 2.90803 -1.0086 0.229132 0
M  V30 7 C 1.54754 -1.11179 0.0421721 0
M  V30 8 C 0.92275 -2.42034 -0.196076 0
M  V30 9 C 0.719645 0.0164951 0.0723017 0
M  V30 10 C -0.70079 -0.0559996 -0.118625 0
M  V30 11 C -1.30594 0.0436228 -1.35986 0
M  V30 12 C -0.443087 0.23284 -2.53478 0
M  V30 13 C -2.65933 -0.0261834 -1.5351 0
M  V30 14 C -3.47214 -0.203767 -0.434579 0
M  V30 15 N -4.89631 -0.285836 -0.542303 0
M  V30 16 C -2.90758 -0.307381 0.818264 0
M  V30 17 C -1.52265 -0.233225 0.973354 0
M  V30 18 C -0.970214 -0.348981 2.32624 0
M  V30 19 H 0.958746 3.19689 1.04819 0
M  V30 20 H 0.517108 2.99088 -0.658746 0
M  V30 21 H -0.541637 2.30512 0.684982 0
M  V30 22 H 3.12065 2.3635 0.663796 0
M  V30 23 H 5.323 1.2188 0.957251 0
M  V30 24 H 5.50564 -0.480921 0.481598 0
M  V30 25 H 3.56595 -1.88592 0.207524 0
M  V30 26 H 1.43026 -2.85828 -1.10407 0
M  V30 27 H -0.134045 -2.33463 -0.45771 0
M  V30 28 H 1.07307 -3.08415 0.698935 0
M  V30 29 H 0.618975 0.0491378 -2.34386 0
M  V30 30 H -0.795803 -0.479328 -3.31902 0
M  V30 31 H -0.57066 1.24978 -2.98326 0
M  V30 32 H -3.14624 0.0499626 -2.49822 0
M  V30 33 H -5.45198 0.546041 -0.277109 0
M  V30 34 H -5.37512 -1.16389 -0.880961 0
M  V30 35 H -3.54114 -0.446887 1.68582 0
M  V30 36 H -0.0336245 0.216583 2.48413 0
M  V30 37 H -0.853784 -1.43001 2.60838 0
M  V30 38 H -1.71455 0.0576599 3.04727 0
M  V30 END ATOM
M  V30 BEGIN BOND
M  V30 1 1 1 2
M  V30 2 2 2 3
M  V30 3 1 3 4
M  V30 4 1 4 5
M  V30 5 2 4 6
M  V30 6 1 6 7
M  V30 7 1 7 8
M  V30 8 2 7 9
M  V30 9 1 9 10
M  V30 10 2 10 11
M  V30 11 1 11 12
M  V30 12 1 11 13
M  V30 13 2 13 14
M  V30 14 1 14 15
M  V30 15 1 14 16
M  V30 16 2 16 17
M  V30 17 1 17 18
M  V30 18 1 9 2
M  V30 19 1 17 10
M  V30 20 1 1 19
M  V30 21 1 1 20
M  V30 22 1 1 21
M  V30 23 1 3 22
M  V30 24 1 5 23
M  V30 25 1 5 24
M  V30 26 1 6 25
M  V30 27 1 8 26
M  V30 28 1 8 27
M  V30 29 1 8 28
M  V30 30 1 12 29
M  V30 31 1 12 30
M  V30 32 1 12 31
M  V30 33 1 13 32
M  V30 34 1 15 33
M  V30 35 1 15 34
M  V30 36 1 16 35
M  V30 37 1 18 36
M  V30 38 1 18 37
M  V30 39 1 18 38
M  V30 END BOND
M  V30 END CTAB
M  END
