
     RDKit          3D

  0  0  0  0  0  0  0  0  0  0999 V3000
M  V30 BEGIN CTAB
M  V30 COUNTS 23 24 0 0 0
M  V30 BEGIN ATOM
M  V30 1 C 4.41859 -0.345467 -0.105667 0
M  V30 2 C 3.09609 0.393753 0.0192276 0
M  V30 3 C 3.0655 1.7334 0.317475 0
M  V30 4 S 1.38355 2.03698 0.334197 0
M  V30 5 C 0.831741 0.468992 -0.0327299 0
M  V30 6 N 1.95317 -0.207441 -0.14974 0
M  V30 7 C -0.565628 0.0238015 -0.174581 0
M  V30 8 C -1.59992 0.915237 -0.00689525 0
M  V30 9 C -2.92627 0.559 -0.126706 0
M  V30 10 N -3.97642 1.50196 0.0520071 0
M  V30 11 N -3.16391 -0.744526 -0.425027 0
M  V30 12 C -2.1705 -1.63701 -0.594191 0
M  V30 13 N -0.872311 -1.24817 -0.467951 0
M  V30 14 N -2.44493 -3.00872 -0.90887 0
M  V30 15 H 4.80223 -0.236766 -1.1336 0
M  V30 16 H 4.29533 -1.4131 0.111958 0
M  V30 17 H 5.1276 0.0625887 0.632941 0
M  V30 18 H 3.92881 2.40245 0.493108 0
M  V30 19 H -1.36956 1.94255 0.229526 0
M  V30 20 H -4.83146 1.31264 0.611771 0
M  V30 21 H -3.88993 2.44726 -0.405474 0
M  V30 22 H -2.62347 -3.19893 -1.93479 0
M  V30 23 H -2.4683 -3.76049 -0.19307 0
M  V30 END ATOM
M  V30 BEGIN BOND
M  V30 1 1 1 2
M  V30 2 2 2 3
M  V30 3 1 3 4
M  V30 4 1 4 5
M  V30 5 2 5 6
M  V30 6 1 5 7
M  V30 7 2 7 8
M  V30 8 1 8 9
M  V30 9 1 9 10
M  V30 10 2 9 11
M  V30 11 1 11 12
M  V30 12 2 12 13
M  V30 13 1 12 14
M  V30 14 1 6 2
M  V30 15 1 13 7
M  V30 16 1 1 15
M  V30 17 1 1 16
M  V30 18 1 1 17
M  V30 19 1 3 18
M  V30 20 1 8 19
M  V30 21 1 10 20
M  V30 22 1 10 21
M  V30 23 1 14 22
M  V30 24 1 14 23
M  V30 END BOND
M  V30 END CTAB
M  END
