
     RDKit          3D

  0  0  0  0  0  0  0  0  0  0999 V3000
M  V30 BEGIN CTAB
M  V30 COUNTS 38 40 0 0 0
M  V30 BEGIN ATOM
M  V30 1 N -3.29621 -3.20873 0.906694 0
M  V30 2 C -2.57876 -2.2944 0.109091 0
M  V30 3 C -1.82131 -1.31004 0.976193 0
M  V30 4 N -1.06613 -0.347143 0.190453 0
M  V30 5 C 0.070178 -0.740491 -0.590094 0
M  V30 6 C 1.01166 0.334978 -0.969864 0 CFG=1
M  V30 7 C 0.898995 1.58376 -0.137413 0
M  V30 8 C -0.515045 1.98346 0.0377694 0
M  V30 9 C -1.48187 1.01057 0.204298 0
M  V30 10 C -2.83183 1.33798 0.380135 0
M  V30 11 C -3.1787 2.66761 0.383085 0
M  V30 12 C -2.20199 3.62725 0.215439 0
M  V30 13 C -0.885655 3.32863 0.043432 0
M  V30 14 C 2.42135 -0.128237 -0.909796 0
M  V30 15 N 3.2518 -0.141663 -1.96417 0
M  V30 16 N 4.40902 -0.60569 -1.55803 0
M  V30 17 C 4.38538 -0.904911 -0.267293 0
M  V30 18 C 3.10548 -0.608208 0.194916 0
M  V30 19 N 5.4251 -1.42399 0.527376 0
M  V30 20 H -3.52065 -4.08805 0.632698 0
M  V30 21 H -3.80089 -2.77912 1.64234 0
M  V30 22 H -1.91293 -2.80131 -0.615746 0
M  V30 23 H -3.35549 -1.76278 -0.509578 0
M  V30 24 H -1.0592 -1.91551 1.52942 0
M  V30 25 H -2.45578 -0.826234 1.71263 0
M  V30 26 H -0.261841 -1.31487 -1.50256 0
M  V30 27 H 0.641452 -1.51009 0.00665626 0
M  V30 28 H 0.801961 0.647936 -2.01173 0
M  V30 29 H 1.31486 1.35609 0.867367 0
M  V30 30 H 1.4592 2.42847 -0.536649 0
M  V30 31 H -3.53303 0.526143 0.506763 0
M  V30 32 H -4.21477 2.95166 0.516926 0
M  V30 33 H -2.50111 4.66448 0.22176 0
M  V30 34 H -0.0983866 4.05042 -0.0895375 0
M  V30 35 H 3.06993 0.153608 -2.96462 0
M  V30 36 H 2.69519 -0.713011 1.18441 0
M  V30 37 H 5.21291 -2.11787 1.26368 0
M  V30 38 H 6.3971 -1.11068 0.373554 0
M  V30 END ATOM
M  V30 BEGIN BOND
M  V30 1 1 1 2
M  V30 2 1 2 3
M  V30 3 1 3 4
M  V30 4 1 4 5
M  V30 5 1 5 6
M  V30 6 1 6 7
M  V30 7 1 7 8
M  V30 8 2 8 9
M  V30 9 1 9 10
M  V30 10 2 10 11
M  V30 11 1 11 12
M  V30 12 2 12 13
M  V30 13 1 6 14
M  V30 14 1 14 15
M  V30 15 1 15 16
M  V30 16 2 16 17
M  V30 17 1 17 18
M  V30 18 1 17 19
M  V30 19 1 9 4
M  V30 20 2 18 14
M  V30 21 1 13 8
M  V30 22 1 1 20
M  V30 23 1 1 21
M  V30 24 1 2 22
M  V30 25 1 2 23
M  V30 26 1 3 24
M  V30 27 1 3 25
M  V30 28 1 5 26
M  V30 29 1 5 27
M  V30 30 1 6 28 CFG=3
M  V30 31 1 7 29
M  V30 32 1 7 30
M  V30 33 1 10 31
M  V30 34 1 11 32
M  V30 35 1 12 33
M  V30 36 1 13 34
M  V30 37 1 15 35
M  V30 38 1 18 36
M  V30 39 1 19 37
M  V30 40 1 19 38
M  V30 END BOND
M  V30 END CTAB
M  END
