
     RDKit          3D

  0  0  0  0  0  0  0  0  0  0999 V3000
M  V30 BEGIN CTAB
M  V30 COUNTS 30 30 0 0 0
M  V30 BEGIN ATOM
M  V30 1 C 4.25968 0.697931 1.19409 0
M  V30 2 C 3.82485 -0.666027 0.756732 0
M  V30 3 C 2.34004 -0.860182 0.778265 0
M  V30 4 N 1.63184 0.0471155 -0.075676 0
M  V30 5 C 0.20811 -0.0552467 -0.126932 0
M  V30 6 C -0.483037 -0.988699 0.612702 0
M  V30 7 C -1.84895 -1.10288 0.577429 0
M  V30 8 C -2.59292 -0.252342 -0.231311 0
M  V30 9 C -1.92825 0.689276 -0.980604 0
M  V30 10 C -0.541465 0.785711 -0.927934 0
M  V30 11 N 0.103292 1.7639 -1.71089 0
M  V30 12 S -4.32815 -0.451844 -0.229011 0
M  V30 13 O -4.81346 -0.054925 -1.61325 0
M  V30 14 O -4.64381 -1.90566 -0.0261577 0
M  V30 15 N -5.07886 0.523313 0.982381 0
M  V30 16 H 5.34351 0.645173 1.43509 0
M  V30 17 H 4.15637 1.45446 0.389025 0
M  V30 18 H 3.74892 1.01768 2.13454 0
M  V30 19 H 4.27378 -0.900316 -0.208464 0
M  V30 20 H 4.25716 -1.39568 1.49261 0
M  V30 21 H 1.9461 -0.747095 1.79776 0
M  V30 22 H 2.14034 -1.89196 0.397295 0
M  V30 23 H 2.11182 0.765071 -0.649288 0
M  V30 24 H 0.0591534 -1.67659 1.26096 0
M  V30 25 H -2.3287 -1.84799 1.17489 0
M  V30 26 H -2.53318 1.33621 -1.59957 0
M  V30 27 H -0.321224 2.69616 -1.82015 0
M  V30 28 H 0.997819 1.54644 -2.17309 0
M  V30 29 H -5.63572 -0.120813 1.60432 0
M  V30 30 H -4.32507 0.94979 1.55654 0
M  V30 END ATOM
M  V30 BEGIN BOND
M  V30 1 1 1 2
M  V30 2 1 2 3
M  V30 3 1 3 4
M  V30 4 1 4 5
M  V30 5 2 5 6
M  V30 6 1 6 7
M  V30 7 2 7 8
M  V30 8 1 8 9
M  V30 9 2 9 10
M  V30 10 1 10 11
M  V30 11 1 8 12
M  V30 12 2 12 13
M  V30 13 2 12 14
M  V30 14 1 12 15
M  V30 15 1 10 5
M  V30 16 1 1 16
M  V30 17 1 1 17
M  V30 18 1 1 18
M  V30 19 1 2 19
M  V30 20 1 2 20
M  V30 21 1 3 21
M  V30 22 1 3 22
M  V30 23 1 4 23
M  V30 24 1 6 24
M  V30 25 1 7 25
M  V30 26 1 9 26
M  V30 27 1 11 27
M  V30 28 1 11 28
M  V30 29 1 15 29
M  V30 30 1 15 30
M  V30 END BOND
M  V30 END CTAB
M  END
