
     RDKit          3D

  0  0  0  0  0  0  0  0  0  0999 V3000
M  V30 BEGIN CTAB
M  V30 COUNTS 26 27 0 0 0
M  V30 BEGIN ATOM
M  V30 1 O 3.70918 0.131153 0.871589 0
M  V30 2 C 3.03645 0.355048 -0.2648 0 CFG=1
M  V30 3 C 2.60665 -0.931464 -0.927711 0
M  V30 4 N 1.478 -1.38295 -0.175411 0
M  V30 5 C 0.942024 -0.280803 0.563589 0 CFG=1
M  V30 6 C 1.67393 0.965368 0.0826568 0
M  V30 7 C -0.50105 -0.0923449 0.384666 0
M  V30 8 N -1.36045 -1.13606 0.426775 0
M  V30 9 C -2.68207 -0.976775 0.264614 0
M  V30 10 N -3.56443 -2.0903 0.313254 0
M  V30 11 N -3.20686 0.257638 0.0496001 0
M  V30 12 C -2.36036 1.30201 0.00602368 0
M  V30 13 N -1.0294 1.12584 0.171357 0
M  V30 14 N -2.82447 2.62882 -0.214393 0
M  V30 15 H 3.60556 -0.62687 1.34585 0
M  V30 16 H 3.62878 1.00917 -0.915162 0
M  V30 17 H 2.27284 -0.704338 -1.96656 0
M  V30 18 H 3.41915 -1.68297 -0.954337 0
M  V30 19 H 0.753278 -1.77912 -0.842499 0
M  V30 20 H 1.16614 -0.414162 1.65663 0
M  V30 21 H 1.74319 1.74369 0.837902 0
M  V30 22 H 1.21271 1.33376 -0.847096 0
M  V30 23 H -4.40933 -2.11743 -0.275902 0
M  V30 24 H -3.31924 -2.86208 0.9612 0
M  V30 25 H -2.89951 3.03163 -1.16309 0
M  V30 26 H -3.09069 3.19354 0.611247 0
M  V30 END ATOM
M  V30 BEGIN BOND
M  V30 1 1 1 2
M  V30 2 1 2 3
M  V30 3 1 3 4
M  V30 4 1 4 5
M  V30 5 1 5 6
M  V30 6 1 5 7
M  V30 7 2 7 8
M  V30 8 1 8 9
M  V30 9 1 9 10
M  V30 10 2 9 11
M  V30 11 1 11 12
M  V30 12 2 12 13
M  V30 13 1 12 14
M  V30 14 1 6 2
M  V30 15 1 13 7
M  V30 16 1 1 15
M  V30 17 1 2 16 CFG=3
M  V30 18 1 3 17
M  V30 19 1 3 18
M  V30 20 1 4 19
M  V30 21 1 5 20 CFG=1
M  V30 22 1 6 21
M  V30 23 1 6 22
M  V30 24 1 10 23
M  V30 25 1 10 24
M  V30 26 1 14 25
M  V30 27 1 14 26
M  V30 END BOND
M  V30 END CTAB
M  END
