
     RDKit          3D

  0  0  0  0  0  0  0  0  0  0999 V3000
M  V30 BEGIN CTAB
M  V30 COUNTS 31 32 0 0 0
M  V30 BEGIN ATOM
M  V30 1 C -0.724054 -0.205419 -2.16324 0
M  V30 2 C -1.25296 -0.161409 -0.729916 0
M  V30 3 C -1.5573 -1.63764 -0.381413 0
M  V30 4 N -2.46708 0.551805 -0.624732 0
M  V30 5 C -2.6667 1.51471 0.171775 0
M  V30 6 N -3.95636 2.18355 0.201743 0
M  V30 7 N -1.68696 2.009 1.07239 0
M  V30 8 C -0.538944 1.40319 1.0358 0
M  V30 9 N 0.524858 1.82543 1.90826 0
M  V30 10 N -0.248601 0.324848 0.173748 0
M  V30 11 C 1.05446 -0.253054 0.232183 0
M  V30 12 C 2.0864 0.19908 -0.548427 0
M  V30 13 C 3.35646 -0.348846 -0.505389 0
M  V30 14 Br 4.78798 0.278653 -1.5885 0
M  V30 15 C 3.55346 -1.39816 0.377755 0
M  V30 16 C 2.55339 -1.8868 1.18013 0
M  V30 17 C 1.30444 -1.29816 1.09252 0
M  V30 18 H -1.5325 -0.585745 -2.82098 0
M  V30 19 H 0.113694 -0.928514 -2.22944 0
M  V30 20 H -0.46186 0.805443 -2.5334 0
M  V30 21 H -2.5181 -1.92742 -0.854225 0
M  V30 22 H -0.77832 -2.29879 -0.800789 0
M  V30 23 H -1.6716 -1.76041 0.714415 0
M  V30 24 H -3.96379 3.22749 0.13936 0
M  V30 25 H -4.83553 1.64594 0.281932 0
M  V30 26 H 0.681103 1.23526 2.75128 0
M  V30 27 H 1.10089 2.66698 1.70886 0
M  V30 28 H 1.93808 1.01636 -1.23812 0
M  V30 29 H 4.53357 -1.84243 0.430455 0
M  V30 30 H 2.76 -2.69484 1.84054 0
M  V30 31 H 0.511899 -1.66012 1.70542 0
M  V30 END ATOM
M  V30 BEGIN BOND
M  V30 1 1 1 2
M  V30 2 1 2 3
M  V30 3 1 2 4
M  V30 4 2 4 5
M  V30 5 1 5 6
M  V30 6 1 5 7
M  V30 7 2 7 8
M  V30 8 1 8 9
M  V30 9 1 8 10
M  V30 10 1 10 11
M  V30 11 2 11 12
M  V30 12 1 12 13
M  V30 13 1 13 14
M  V30 14 2 13 15
M  V30 15 1 15 16
M  V30 16 2 16 17
M  V30 17 1 10 2
M  V30 18 1 17 11
M  V30 19 1 1 18
M  V30 20 1 1 19
M  V30 21 1 1 20
M  V30 22 1 3 21
M  V30 23 1 3 22
M  V30 24 1 3 23
M  V30 25 1 6 24
M  V30 26 1 6 25
M  V30 27 1 9 26
M  V30 28 1 9 27
M  V30 29 1 12 28
M  V30 30 1 15 29
M  V30 31 1 16 30
M  V30 32 1 17 31
M  V30 END BOND
M  V30 END CTAB
M  END
