
     RDKit          3D

  0  0  0  0  0  0  0  0  0  0999 V3000
M  V30 BEGIN CTAB
M  V30 COUNTS 54 57 0 0 0
M  V30 BEGIN ATOM
M  V30 1 C 6.93882 -2.4199 0.918802 0
M  V30 2 S 6.30261 -1.23851 2.16256 0
M  V30 3 C 4.93629 -0.368538 1.39148 0
M  V30 4 C 3.67601 -0.910574 1.52965 0
M  V30 5 C 2.61602 -0.247443 0.9389 0
M  V30 6 C 2.83574 0.912357 0.241791 0
M  V30 7 C 4.07736 1.45797 0.0983364 0
M  V30 8 C 5.13764 0.791394 0.691316 0
M  V30 9 C 1.66672 1.59418 -0.378502 0
M  V30 10 C 0.781912 2.01636 0.710901 0
M  V30 11 C -0.478811 1.67223 0.873176 0
M  V30 12 N -1.29483 2.10912 1.94781 0
M  V30 13 N -1.0716 0.807809 -0.0839907 0
M  V30 14 C -0.27873 0.357623 -1.16636 0
M  V30 15 C 0.978141 0.701672 -1.32601 0
M  V30 16 C 1.67839 0.160317 -2.50074 0
M  V30 17 O 2.50883 0.910932 -3.08191 0
M  V30 18 C 1.37478 -1.21834 -2.93117 0
M  V30 19 C 0.0651743 -1.68786 -2.39319 0
M  V30 20 C -0.910571 -0.545457 -2.17466 0
M  V30 21 C -2.40263 0.403091 0.026245 0
M  V30 22 C -2.75568 -0.74712 0.722664 0
M  V30 23 C -4.07867 -1.13603 0.823641 0
M  V30 24 C -5.06492 -0.366167 0.220898 0
M  V30 25 C -4.74845 0.780946 -0.477626 0
M  V30 26 C -3.42179 1.13501 -0.555897 0
M  V30 27 S -6.74848 -0.872075 0.356431 0
M  V30 28 O -7.50113 -0.334299 -0.834885 0
M  V30 29 O -6.86392 -2.34734 0.473894 0
M  V30 30 N -7.40458 -0.146576 1.76691 0
M  V30 31 C 1.31121 2.90724 1.73989 0
M  V30 32 N 1.74791 3.60338 2.55241 0
M  V30 33 H 7.75929 -1.87413 0.379804 0
M  V30 34 H 7.3454 -3.31542 1.44846 0
M  V30 35 H 6.14994 -2.74294 0.232823 0
M  V30 36 H 3.45848 -1.80826 2.06152 0
M  V30 37 H 1.6137 -0.660528 1.03742 0
M  V30 38 H 4.24883 2.38687 -0.460703 0
M  V30 39 H 6.12077 1.21544 0.582759 0
M  V30 40 H 2.01315 2.51971 -0.906414 0
M  V30 41 H -1.19615 1.62235 2.86053 0
M  V30 42 H -1.98476 2.88361 1.88294 0
M  V30 43 H 1.42142 -1.24226 -4.03856 0
M  V30 44 H 2.17373 -1.87575 -2.486 0
M  V30 45 H 0.160409 -2.22012 -1.43414 0
M  V30 46 H -0.363527 -2.4124 -3.11936 0
M  V30 47 H -1.84124 -1.00118 -1.78095 0
M  V30 48 H -1.13201 -0.00935604 -3.11846 0
M  V30 49 H -1.93689 -1.2982 1.16672 0
M  V30 50 H -4.28823 -2.03409 1.37477 0
M  V30 51 H -5.5354 1.38144 -0.94974 0
M  V30 52 H -3.14319 2.04491 -1.10689 0
M  V30 53 H -6.68917 0.00197519 2.5122 0
M  V30 54 H -7.96332 0.702939 1.57848 0
M  V30 END ATOM
M  V30 BEGIN BOND
M  V30 1 1 1 2
M  V30 2 1 2 3
M  V30 3 2 3 4
M  V30 4 1 4 5
M  V30 5 2 5 6
M  V30 6 1 6 7
M  V30 7 2 7 8
M  V30 8 1 6 9
M  V30 9 1 9 10
M  V30 10 2 10 11
M  V30 11 1 11 12
M  V30 12 1 11 13
M  V30 13 1 13 14
M  V30 14 2 14 15
M  V30 15 1 15 16
M  V30 16 2 16 17
M  V30 17 1 16 18
M  V30 18 1 18 19
M  V30 19 1 19 20
M  V30 20 1 13 21
M  V30 21 2 21 22
M  V30 22 1 22 23
M  V30 23 2 23 24
M  V30 24 1 24 25
M  V30 25 2 25 26
M  V30 26 1 24 27
M  V30 27 2 27 28
M  V30 28 2 27 29
M  V30 29 1 27 30
M  V30 30 1 10 31
M  V30 31 3 31 32
M  V30 32 1 8 3
M  V30 33 1 15 9
M  V30 34 1 26 21
M  V30 35 1 20 14
M  V30 36 1 1 33
M  V30 37 1 1 34
M  V30 38 1 1 35
M  V30 39 1 4 36
M  V30 40 1 5 37
M  V30 41 1 7 38
M  V30 42 1 8 39
M  V30 43 1 9 40
M  V30 44 1 12 41
M  V30 45 1 12 42
M  V30 46 1 18 43
M  V30 47 1 18 44
M  V30 48 1 19 45
M  V30 49 1 19 46
M  V30 50 1 20 47
M  V30 51 1 20 48
M  V30 52 1 22 49
M  V30 53 1 23 50
M  V30 54 1 25 51
M  V30 55 1 26 52
M  V30 56 1 30 53
M  V30 57 1 30 54
M  V30 END BOND
M  V30 END CTAB
M  END
