
     RDKit          3D

  0  0  0  0  0  0  0  0  0  0999 V3000
M  V30 BEGIN CTAB
M  V30 COUNTS 21 21 0 0 0
M  V30 BEGIN ATOM
M  V30 1 N -0.741046 2.63841 -0.0936939 0
M  V30 2 C -0.282174 1.30154 -0.0503159 0
M  V30 3 C 1.0716 0.989583 -0.0806565 0
M  V30 4 C 1.56039 -0.294336 -0.0383705 0
M  V30 5 C 3.02483 -0.528756 -0.0784657 0
M  V30 6 C 0.65605 -1.32997 0.037697 0
M  V30 7 C -0.709995 -1.09207 0.071182 0
M  V30 8 C -1.15422 0.220628 0.0268389 0
M  V30 9 N -2.54915 0.485221 0.0558477 0
M  V30 10 N -1.65577 -2.13768 0.162672 0 CHG=1
M  V30 11 O -1.87068 -2.8175 -0.85331 0
M  V30 12 O -2.33311 -2.42588 1.31611 0 CHG=-1
M  V30 13 F 1.08469 -2.62773 0.0803661 0
M  V30 14 H -0.114766 3.43829 0.0816904 0
M  V30 15 H -1.73054 2.84037 -0.305564 0
M  V30 16 H 1.75088 1.84497 -0.142419 0
M  V30 17 H 3.46895 -0.120861 0.863148 0
M  V30 18 H 3.42821 0.0625378 -0.920359 0
M  V30 19 H 3.25344 -1.60867 -0.147169 0
M  V30 20 H -3.043 0.494558 -0.873939 0
M  V30 21 H -3.11457 0.667347 0.888713 0
M  V30 END ATOM
M  V30 BEGIN BOND
M  V30 1 1 1 2
M  V30 2 2 2 3
M  V30 3 1 3 4
M  V30 4 1 4 5
M  V30 5 2 4 6
M  V30 6 1 6 7
M  V30 7 2 7 8
M  V30 8 1 8 9
M  V30 9 1 7 10
M  V30 10 2 10 11
M  V30 11 1 10 12
M  V30 12 1 6 13
M  V30 13 1 8 2
M  V30 14 1 1 14
M  V30 15 1 1 15
M  V30 16 1 3 16
M  V30 17 1 5 17
M  V30 18 1 5 18
M  V30 19 1 5 19
M  V30 20 1 9 20
M  V30 21 1 9 21
M  V30 END BOND
M  V30 END CTAB
M  END
