
     RDKit          3D

  0  0  0  0  0  0  0  0  0  0999 V3000
M  V30 BEGIN CTAB
M  V30 COUNTS 30 31 0 0 0
M  V30 BEGIN ATOM
M  V30 1 N 4.37495 -1.26323 0.629353 0
M  V30 2 C 3.50619 -0.513364 -0.194138 0
M  V30 3 N 3.98872 0.0387329 -1.312 0
M  V30 4 C 3.18361 0.754812 -2.10952 0
M  V30 5 C 1.83718 0.916053 -1.7579 0
M  V30 6 C 1.32402 0.357253 -0.615171 0
M  V30 7 C 2.17437 -0.372594 0.184108 0
M  V30 8 C -0.0865836 0.551341 -0.28767 0 CFG=2
M  V30 9 C -0.295404 1.21795 1.05624 0
M  V30 10 C -1.76063 0.851903 1.32706 0
M  V30 11 N -1.98996 -0.344892 0.63193 0
M  V30 12 C -0.833304 -0.751106 -0.0930173 0
M  V30 13 S -3.44859 -0.500121 -0.204749 0
M  V30 14 O -3.41884 -1.80465 -0.976437 0
M  V30 15 O -3.5002 0.590241 -1.26679 0
M  V30 16 N -4.85289 -0.432906 0.705328 0
M  V30 17 H 4.09342 -1.54601 1.60424 0
M  V30 18 H 5.31729 -1.56813 0.321713 0
M  V30 19 H 3.59474 1.19346 -3.01029 0
M  V30 20 H 1.25443 1.5102 -2.45847 0
M  V30 21 H 1.80398 -0.820592 1.08152 0
M  V30 22 H -0.634754 1.16109 -1.03015 0
M  V30 23 H 0.333213 0.675739 1.78673 0
M  V30 24 H -0.133878 2.29525 1.02882 0
M  V30 25 H -1.94268 0.853326 2.39984 0
M  V30 26 H -2.35031 1.67755 0.82985 0
M  V30 27 H -0.189538 -1.48686 0.441212 0
M  V30 28 H -1.14935 -1.15635 -1.08733 0
M  V30 29 H -4.85424 0.195971 1.52742 0
M  V30 30 H -5.34495 -1.33126 0.848295 0
M  V30 END ATOM
M  V30 BEGIN BOND
M  V30 1 1 1 2
M  V30 2 2 2 3
M  V30 3 1 3 4
M  V30 4 2 4 5
M  V30 5 1 5 6
M  V30 6 2 6 7
M  V30 7 1 6 8
M  V30 8 1 8 9
M  V30 9 1 9 10
M  V30 10 1 10 11
M  V30 11 1 11 12
M  V30 12 1 11 13
M  V30 13 2 13 14
M  V30 14 2 13 15
M  V30 15 1 13 16
M  V30 16 1 7 2
M  V30 17 1 12 8
M  V30 18 1 1 17
M  V30 19 1 1 18
M  V30 20 1 4 19
M  V30 21 1 5 20
M  V30 22 1 7 21
M  V30 23 1 8 22 CFG=3
M  V30 24 1 9 23
M  V30 25 1 9 24
M  V30 26 1 10 25
M  V30 27 1 10 26
M  V30 28 1 12 27
M  V30 29 1 12 28
M  V30 30 1 16 29
M  V30 31 1 16 30
M  V30 END BOND
M  V30 END CTAB
M  END
