
     RDKit          3D

  0  0  0  0  0  0  0  0  0  0999 V3000
M  V30 BEGIN CTAB
M  V30 COUNTS 46 49 0 0 0
M  V30 BEGIN ATOM
M  V30 1 N -0.793448 -0.621193 -4.89643 0
M  V30 2 C -1.25213 -0.611001 -3.53966 0
M  V30 3 N -0.671005 0.232669 -2.7649 0
M  V30 4 C -1.00134 0.350215 -1.36883 0
M  V30 5 N -2.33518 -0.132549 -1.09721 0
M  V30 6 C -2.89579 -1.09641 -1.95971 0
M  V30 7 N -3.99993 -1.88454 -1.50365 0
M  V30 8 N -2.40422 -1.33917 -3.15107 0
M  V30 9 C -3.05663 0.470112 0.0100148 0
M  V30 10 C -4.39779 0.376234 0.227272 0
M  V30 11 C -5.0388 0.956077 1.32022 0
M  V30 12 C -4.3041 1.65786 2.22834 0
M  V30 13 C -2.95231 1.78706 2.06124 0
M  V30 14 Cl -2.03968 2.68666 3.23182 0
M  V30 15 C -2.34007 1.18908 0.948475 0
M  V30 16 C -0.0123217 -0.516192 -0.620781 0
M  V30 17 C -0.414557 -1.50398 0.209585 0
M  V30 18 C 0.518906 -2.29169 0.898083 0
M  V30 19 C 1.85501 -2.03864 0.710974 0
M  V30 20 C 2.2854 -1.04225 -0.126386 0
M  V30 21 O 3.64213 -0.83829 -0.271511 0
M  V30 22 C 4.28681 0.0452838 0.580173 0
M  V30 23 C 4.80715 -0.437323 1.74811 0
M  V30 24 C 5.46453 0.42502 2.63209 0
M  V30 25 C 5.58879 1.74591 2.33388 0
M  V30 26 C 5.0634 2.23591 1.15353 0
M  V30 27 C 4.41824 1.37975 0.289937 0
M  V30 28 C 1.33533 -0.284326 -0.789796 0
M  V30 29 H -1.29459 -0.0511146 -5.59038 0
M  V30 30 H 0.0159424 -1.18754 -5.15547 0
M  V30 31 H -0.909736 1.42272 -1.0372 0
M  V30 32 H -4.84134 -2.0711 -2.09172 0
M  V30 33 H -4.00419 -2.3086 -0.550502 0
M  V30 34 H -5.04086 -0.132124 -0.456277 0
M  V30 35 H -6.10633 0.861936 1.46444 0
M  V30 36 H -4.83533 2.10283 3.07814 0
M  V30 37 H -1.27313 1.3423 0.886144 0
M  V30 38 H -1.43873 -1.74308 0.385239 0
M  V30 39 H 0.193248 -3.06684 1.5497 0
M  V30 40 H 2.57973 -2.63179 1.22986 0
M  V30 41 H 4.73063 -1.48151 2.02447 0
M  V30 42 H 5.86732 0.0282179 3.54551 0
M  V30 43 H 6.10103 2.43939 3.01405 0
M  V30 44 H 5.17816 3.29854 0.941335 0
M  V30 45 H 4.01806 1.78562 -0.622211 0
M  V30 46 H 1.70372 0.491839 -1.44139 0
M  V30 END ATOM
M  V30 BEGIN BOND
M  V30 1 1 1 2
M  V30 2 2 2 3
M  V30 3 1 3 4
M  V30 4 1 4 5
M  V30 5 1 5 6
M  V30 6 1 6 7
M  V30 7 2 6 8
M  V30 8 1 5 9
M  V30 9 2 9 10
M  V30 10 1 10 11
M  V30 11 2 11 12
M  V30 12 1 12 13
M  V30 13 1 13 14
M  V30 14 2 13 15
M  V30 15 1 4 16
M  V30 16 2 16 17
M  V30 17 1 17 18
M  V30 18 2 18 19
M  V30 19 1 19 20
M  V30 20 1 20 21
M  V30 21 1 21 22
M  V30 22 2 22 23
M  V30 23 1 23 24
M  V30 24 2 24 25
M  V30 25 1 25 26
M  V30 26 2 26 27
M  V30 27 2 20 28
M  V30 28 1 8 2
M  V30 29 1 15 9
M  V30 30 1 28 16
M  V30 31 1 27 22
M  V30 32 1 1 29
M  V30 33 1 1 30
M  V30 34 1 4 31
M  V30 35 1 7 32
M  V30 36 1 7 33
M  V30 37 1 10 34
M  V30 38 1 11 35
M  V30 39 1 12 36
M  V30 40 1 15 37
M  V30 41 1 17 38
M  V30 42 1 18 39
M  V30 43 1 19 40
M  V30 44 1 23 41
M  V30 45 1 24 42
M  V30 46 1 25 43
M  V30 47 1 26 44
M  V30 48 1 27 45
M  V30 49 1 28 46
M  V30 END BOND
M  V30 END CTAB
M  END
