
     RDKit          3D

  0  0  0  0  0  0  0  0  0  0999 V3000
M  V30 BEGIN CTAB
M  V30 COUNTS 68 68 0 0 0
M  V30 BEGIN ATOM
M  V30 1 C 5.1599 -4.28933 -0.612345 0
M  V30 2 C 3.90586 -3.90444 0.126468 0
M  V30 3 C 4.12755 -2.63507 0.955086 0
M  V30 4 C 4.51566 -1.55876 -0.047123 0
M  V30 5 C 4.78099 -0.229668 0.573173 0
M  V30 6 C 3.57569 0.269257 1.29844 0
M  V30 7 C 2.42053 0.415684 0.358082 0
M  V30 8 C 1.20984 0.93729 1.12178 0
M  V30 9 N 0.0760882 1.09224 0.251293 0
M  V30 10 C -0.807929 -0.121666 0.126769 0
M  V30 11 C -1.83861 0.0208646 1.18347 0
M  V30 12 C -2.83736 -1.07498 1.25591 0
M  V30 13 C -3.64911 -1.27624 0.0208555 0
M  V30 14 C -4.59562 -2.43082 0.307406 0
M  V30 15 C -5.48316 -2.74198 -0.871913 0
M  V30 16 C -6.37039 -3.90015 -0.460796 0
M  V30 17 C -7.18762 -3.48447 0.73941 0
M  V30 18 C -0.334545 2.18265 -0.501804 0
M  V30 19 O -1.45046 1.93348 -1.17446 0
M  V30 20 C 0.201689 3.50067 -0.690785 0
M  V30 21 C -0.50919 4.38605 -1.51719 0
M  V30 22 C -0.0928495 5.66947 -1.77943 0
M  V30 23 N -0.856372 6.51852 -2.62483 0
M  V30 24 C 1.05147 6.15192 -1.23916 0
M  V30 25 F 1.52318 7.40785 -1.45413 0
M  V30 26 C 1.77982 5.32964 -0.427724 0
M  V30 27 N 2.98417 5.77298 0.167549 0
M  V30 28 C 1.34804 4.01386 -0.162215 0
M  V30 29 H 5.24075 -5.39451 -0.589247 0
M  V30 30 H 5.16499 -3.92344 -1.65806 0
M  V30 31 H 6.03811 -3.84618 -0.0870283 0
M  V30 32 H 3.5756 -4.72299 0.773747 0
M  V30 33 H 3.11015 -3.73811 -0.62726 0
M  V30 34 H 3.18851 -2.38441 1.47413 0
M  V30 35 H 4.9198 -2.76753 1.69074 0
M  V30 36 H 5.46661 -1.85188 -0.572693 0
M  V30 37 H 3.75871 -1.49151 -0.824992 0
M  V30 38 H 5.7015 -0.222033 1.19998 0
M  V30 39 H 5.0257 0.476198 -0.273496 0
M  V30 40 H 3.31073 -0.460968 2.09697 0
M  V30 41 H 3.77179 1.27622 1.77073 0
M  V30 42 H 2.13855 -0.585668 -0.0819924 0
M  V30 43 H 2.70393 1.06025 -0.476792 0
M  V30 44 H 0.956605 0.0639681 1.82202 0
M  V30 45 H 1.42441 1.74639 1.80207 0
M  V30 46 H -0.172038 -1.0077 0.21276 0
M  V30 47 H -1.20593 -0.0704111 -0.895812 0
M  V30 48 H -2.36729 1.00287 1.00797 0
M  V30 49 H -1.3754 0.132633 2.18583 0
M  V30 50 H -3.53677 -0.852998 2.0898 0
M  V30 51 H -2.33584 -2.03164 1.50845 0
M  V30 52 H -2.99677 -1.63431 -0.828036 0
M  V30 53 H -4.18685 -0.368851 -0.296641 0
M  V30 54 H -5.2585 -2.07025 1.14081 0
M  V30 55 H -4.02715 -3.28135 0.677982 0
M  V30 56 H -6.0762 -1.86639 -1.12333 0
M  V30 57 H -4.81566 -3.0533 -1.70821 0
M  V30 58 H -5.6805 -4.71257 -0.106733 0
M  V30 59 H -6.9849 -4.28669 -1.29266 0
M  V30 60 H -8.1926 -3.97214 0.669115 0
M  V30 61 H -6.69369 -3.76478 1.70328 0
M  V30 62 H -7.35864 -2.40239 0.766271 0
M  V30 63 H -1.41671 4.07492 -1.97468 0
M  V30 64 H -0.934229 6.35366 -3.64585 0
M  V30 65 H -1.36216 7.33726 -2.23202 0
M  V30 66 H 3.41875 6.66274 -0.125166 0
M  V30 67 H 3.46299 5.2199 0.91142 0
M  V30 68 H 1.95236 3.40312 0.475052 0
M  V30 END ATOM
M  V30 BEGIN BOND
M  V30 1 1 1 2
M  V30 2 1 2 3
M  V30 3 1 3 4
M  V30 4 1 4 5
M  V30 5 1 5 6
M  V30 6 1 6 7
M  V30 7 1 7 8
M  V30 8 1 8 9
M  V30 9 1 9 10
M  V30 10 1 10 11
M  V30 11 1 11 12
M  V30 12 1 12 13
M  V30 13 1 13 14
M  V30 14 1 14 15
M  V30 15 1 15 16
M  V30 16 1 16 17
M  V30 17 1 9 18
M  V30 18 2 18 19
M  V30 19 1 18 20
M  V30 20 2 20 21
M  V30 21 1 21 22
M  V30 22 1 22 23
M  V30 23 2 22 24
M  V30 24 1 24 25
M  V30 25 1 24 26
M  V30 26 1 26 27
M  V30 27 2 26 28
M  V30 28 1 28 20
M  V30 29 1 1 29
M  V30 30 1 1 30
M  V30 31 1 1 31
M  V30 32 1 2 32
M  V30 33 1 2 33
M  V30 34 1 3 34
M  V30 35 1 3 35
M  V30 36 1 4 36
M  V30 37 1 4 37
M  V30 38 1 5 38
M  V30 39 1 5 39
M  V30 40 1 6 40
M  V30 41 1 6 41
M  V30 42 1 7 42
M  V30 43 1 7 43
M  V30 44 1 8 44
M  V30 45 1 8 45
M  V30 46 1 10 46
M  V30 47 1 10 47
M  V30 48 1 11 48
M  V30 49 1 11 49
M  V30 50 1 12 50
M  V30 51 1 12 51
M  V30 52 1 13 52
M  V30 53 1 13 53
M  V30 54 1 14 54
M  V30 55 1 14 55
M  V30 56 1 15 56
M  V30 57 1 15 57
M  V30 58 1 16 58
M  V30 59 1 16 59
M  V30 60 1 17 60
M  V30 61 1 17 61
M  V30 62 1 17 62
M  V30 63 1 21 63
M  V30 64 1 23 64
M  V30 65 1 23 65
M  V30 66 1 27 66
M  V30 67 1 27 67
M  V30 68 1 28 68
M  V30 END BOND
M  V30 END CTAB
M  END
