
     RDKit          3D

  0  0  0  0  0  0  0  0  0  0999 V3000
M  V30 BEGIN CTAB
M  V30 COUNTS 17 17 0 0 0
M  V30 BEGIN ATOM
M  V30 1 C -2.13445 0.778694 0.318975 0
M  V30 2 N -0.730136 0.476161 0.119608 0
M  V30 3 C 0.190855 1.45458 0.0401167 0
M  V30 4 S -0.357381 3.005 0.180294 0
M  V30 5 N 1.48178 1.1717 -0.143317 0
M  V30 6 C 1.92781 -0.101822 -0.257881 0
M  V30 7 N 3.30667 -0.35648 -0.451765 0
M  V30 8 N 1.00652 -1.07721 -0.178218 0
M  V30 9 C -0.298407 -0.79115 0.00721072 0
M  V30 10 N -1.27336 -1.83779 0.0908327 0
M  V30 11 H -2.5801 0.158176 1.14376 0
M  V30 12 H -2.69598 0.66479 -0.632953 0
M  V30 13 H -2.26001 1.82833 0.646235 0
M  V30 14 H 3.9043 -0.844906 0.242413 0
M  V30 15 H 3.753 -0.0416416 -1.3324 0
M  V30 16 H -2.12992 -1.77557 0.676281 0
M  V30 17 H -1.1112 -2.71086 -0.469193 0
M  V30 END ATOM
M  V30 BEGIN BOND
M  V30 1 1 1 2
M  V30 2 1 2 3
M  V30 3 2 3 4
M  V30 4 1 3 5
M  V30 5 2 5 6
M  V30 6 1 6 7
M  V30 7 1 6 8
M  V30 8 2 8 9
M  V30 9 1 9 10
M  V30 10 1 9 2
M  V30 11 1 1 11
M  V30 12 1 1 12
M  V30 13 1 1 13
M  V30 14 1 7 14
M  V30 15 1 7 15
M  V30 16 1 10 16
M  V30 17 1 10 17
M  V30 END BOND
M  V30 END CTAB
M  END
