
     RDKit          3D

  0  0  0  0  0  0  0  0  0  0999 V3000
M  V30 BEGIN CTAB
M  V30 COUNTS 55 57 0 0 0
M  V30 BEGIN ATOM
M  V30 1 C -2.59388 -2.46201 0.20922 0
M  V30 2 N -1.99052 -1.44029 1.01198 0
M  V30 3 C -2.80389 -0.52656 1.76086 0
M  V30 4 C -3.69225 0.318459 0.968681 0
M  V30 5 N -4.64022 -0.240296 0.200443 0
M  V30 6 C -5.51323 0.464458 -0.557397 0
M  V30 7 C -5.40771 1.85404 -0.526853 0
M  V30 8 N -4.46155 2.42175 0.238848 0
M  V30 9 C -3.6083 1.69512 0.981003 0
M  V30 10 N -6.27419 2.55667 -1.27793 0
M  V30 11 C -7.22168 1.98673 -2.04361 0
M  V30 12 N -8.09489 2.83284 -2.80598 0
M  V30 13 N -7.32332 0.630485 -2.07217 0
M  V30 14 C -6.48326 -0.126389 -1.34104 0
M  V30 15 N -6.60447 -1.52902 -1.38525 0
M  V30 16 C -0.572619 -1.3529 1.06722 0
M  V30 17 C 0.144067 -0.597207 0.148012 0
M  V30 18 Cl -0.688148 0.255151 -1.15147 0
M  V30 19 C 1.5178 -0.492519 0.210917 0
M  V30 20 C 2.19746 -1.1524 1.20784 0
M  V30 21 C 1.4747 -1.90064 2.11476 0
M  V30 22 C 0.100151 -2.0175 2.06828 0
M  V30 23 Cl -0.768295 -2.99426 3.26218 0
M  V30 24 C 3.62573 -1.06327 1.29846 0
M  V30 25 O 4.1982 -1.42246 2.37653 0
M  V30 26 N 4.47839 -0.594422 0.256488 0
M  V30 27 C 5.88617 -0.504908 0.35606 0
M  V30 28 C 6.50122 0.836157 0.484549 0
M  V30 29 C 6.27899 1.83026 -0.582951 0
M  V30 30 C 4.93722 2.37568 -0.771698 0
M  V30 31 O 4.57741 3.0317 -1.97331 0
M  V30 32 O 4.03017 2.31219 0.0766174 0
M  V30 33 C 6.55265 -1.27863 -0.738304 0
M  V30 34 O 7.93593 -1.28392 -0.790564 0
M  V30 35 O 5.89404 -1.90035 -1.57934 0
M  V30 36 H -3.42019 -2.90491 0.825619 0
M  V30 37 H -3.05922 -2.08937 -0.704198 0
M  V30 38 H -1.91525 -3.3109 -0.00805503 0
M  V30 39 H -3.43866 -1.16937 2.44027 0
M  V30 40 H -2.18833 0.147191 2.41193 0
M  V30 41 H -2.84668 2.18824 1.59537 0
M  V30 42 H -8.53197 2.41095 -3.64796 0
M  V30 43 H -8.24286 3.81365 -2.47819 0
M  V30 44 H -6.85026 -1.99752 -2.26916 0
M  V30 45 H -6.44661 -2.08382 -0.532326 0
M  V30 46 H 2.06445 0.0961469 -0.502892 0
M  V30 47 H 1.98538 -2.44134 2.92502 0
M  V30 48 H 4.02474 -0.32731 -0.66638 0
M  V30 49 H 6.17645 -1.05223 1.30942 0
M  V30 50 H 7.60942 0.694148 0.609121 0
M  V30 51 H 6.18519 1.2828 1.46978 0
M  V30 52 H 6.96081 2.72615 -0.400989 0
M  V30 53 H 6.69263 1.43847 -1.56749 0
M  V30 54 H 5.26609 3.57237 -2.44522 0
M  V30 55 H 8.38702 -1.5151 -1.65006 0
M  V30 END ATOM
M  V30 BEGIN BOND
M  V30 1 1 1 2
M  V30 2 1 2 3
M  V30 3 1 3 4
M  V30 4 2 4 5
M  V30 5 1 5 6
M  V30 6 2 6 7
M  V30 7 1 7 8
M  V30 8 2 8 9
M  V30 9 1 7 10
M  V30 10 2 10 11
M  V30 11 1 11 12
M  V30 12 1 11 13
M  V30 13 2 13 14
M  V30 14 1 14 15
M  V30 15 1 2 16
M  V30 16 2 16 17
M  V30 17 1 17 18
M  V30 18 1 17 19
M  V30 19 2 19 20
M  V30 20 1 20 21
M  V30 21 2 21 22
M  V30 22 1 22 23
M  V30 23 1 20 24
M  V30 24 2 24 25
M  V30 25 1 24 26
M  V30 26 1 26 27
M  V30 27 1 27 28
M  V30 28 1 28 29
M  V30 29 1 29 30
M  V30 30 1 30 31
M  V30 31 2 30 32
M  V30 32 1 27 33
M  V30 33 1 33 34
M  V30 34 2 33 35
M  V30 35 1 9 4
M  V30 36 1 22 16
M  V30 37 1 14 6
M  V30 38 1 1 36
M  V30 39 1 1 37
M  V30 40 1 1 38
M  V30 41 1 3 39
M  V30 42 1 3 40
M  V30 43 1 9 41
M  V30 44 1 12 42
M  V30 45 1 12 43
M  V30 46 1 15 44
M  V30 47 1 15 45
M  V30 48 1 19 46
M  V30 49 1 21 47
M  V30 50 1 26 48
M  V30 51 1 27 49
M  V30 52 1 28 50
M  V30 53 1 28 51
M  V30 54 1 29 52
M  V30 55 1 29 53
M  V30 56 1 31 54
M  V30 57 1 34 55
M  V30 END BOND
M  V30 END CTAB
M  END
