
     RDKit          3D

  0  0  0  0  0  0  0  0  0  0999 V3000
M  V30 BEGIN CTAB
M  V30 COUNTS 38 41 0 0 0
M  V30 BEGIN ATOM
M  V30 1 N 6.17683 -1.11065 -2.75739 0
M  V30 2 C 5.06993 -0.575664 -1.9999 0
M  V30 3 N 3.77744 -0.615355 -2.31085 0
M  V30 4 N 2.93174 -0.0989488 -1.53842 0
M  V30 5 C 3.3001 0.489569 -0.411224 0
M  V30 6 S 5.022 0.256857 -0.510825 0
M  V30 7 C 2.5375 1.16883 0.670716 0
M  V30 8 C 1.07587 1.13817 0.507012 0
M  V30 9 C 0.493037 -0.250985 0.53637 0
M  V30 10 N -0.95303 -0.224622 0.383128 0
M  V30 11 C -1.87001 -0.148943 1.34699 0
M  V30 12 N -3.0848 -0.150784 0.713625 0
M  V30 13 C -2.92331 -0.225907 -0.609691 0
M  V30 14 C -1.56618 -0.273791 -0.835834 0
M  V30 15 C -1.07476 -0.356064 -2.12938 0
M  V30 16 C -1.98807 -0.387374 -3.16287 0
M  V30 17 C -3.35448 -0.340823 -2.96631 0
M  V30 18 C -3.81614 -0.258697 -1.6608 0
M  V30 19 C -1.66355 -0.0792278 2.78526 0
M  V30 20 N -0.551471 -0.0696285 3.52198 0
M  V30 21 O -0.838245 0.00399395 4.79046 0
M  V30 22 N -2.14068 0.0446404 4.92217 0
M  V30 23 C -2.70579 -0.00359766 3.71676 0
M  V30 24 N -4.09854 0.0188312 3.45472 0
M  V30 25 H 6.85941 -1.71294 -2.24968 0
M  V30 26 H 6.32796 -0.93351 -3.75617 0
M  V30 27 H 2.83643 0.655416 1.61142 0
M  V30 28 H 2.96061 2.20265 0.774568 0
M  V30 29 H 0.598917 1.70787 1.36038 0
M  V30 30 H 0.741649 1.6925 -0.408884 0
M  V30 31 H 0.794152 -0.777534 1.47715 0
M  V30 32 H 0.963319 -0.845884 -0.270065 0
M  V30 33 H -0.00953085 -0.392572 -2.28638 0
M  V30 34 H -1.62742 -0.452372 -4.19842 0
M  V30 35 H -4.0746 -0.365064 -3.77306 0
M  V30 36 H -4.87087 -0.217501 -1.41075 0
M  V30 37 H -4.77837 -0.713464 3.74931 0
M  V30 38 H -4.47703 0.831718 2.92489 0
M  V30 END ATOM
M  V30 BEGIN BOND
M  V30 1 1 1 2
M  V30 2 2 2 3
M  V30 3 1 3 4
M  V30 4 2 4 5
M  V30 5 1 5 6
M  V30 6 1 5 7
M  V30 7 1 7 8
M  V30 8 1 8 9
M  V30 9 1 9 10
M  V30 10 1 10 11
M  V30 11 2 11 12
M  V30 12 1 12 13
M  V30 13 2 13 14
M  V30 14 1 14 15
M  V30 15 2 15 16
M  V30 16 1 16 17
M  V30 17 2 17 18
M  V30 18 1 11 19
M  V30 19 2 19 20
M  V30 20 1 20 21
M  V30 21 1 21 22
M  V30 22 2 22 23
M  V30 23 1 23 24
M  V30 24 1 6 2
M  V30 25 1 14 10
M  V30 26 1 23 19
M  V30 27 1 18 13
M  V30 28 1 1 25
M  V30 29 1 1 26
M  V30 30 1 7 27
M  V30 31 1 7 28
M  V30 32 1 8 29
M  V30 33 1 8 30
M  V30 34 1 9 31
M  V30 35 1 9 32
M  V30 36 1 15 33
M  V30 37 1 16 34
M  V30 38 1 17 35
M  V30 39 1 18 36
M  V30 40 1 24 37
M  V30 41 1 24 38
M  V30 END BOND
M  V30 END CTAB
M  END
