
     RDKit          3D

  0  0  0  0  0  0  0  0  0  0999 V3000
M  V30 BEGIN CTAB
M  V30 COUNTS 41 41 0 0 0
M  V30 BEGIN ATOM
M  V30 1 C -2.92771 1.07201 1.89143 0
M  V30 2 C -1.59607 0.505104 1.49609 0
M  V30 3 C -1.49415 -0.116266 0.156255 0
M  V30 4 C -0.162951 -0.652643 -0.129793 0
M  V30 5 O -0.159176 -1.89224 -0.595091 0
M  V30 6 N 1.13549 -0.143279 -0.022651 0
M  V30 7 C 1.47652 1.15454 0.448337 0
M  V30 8 C 2.84871 1.65498 0.100582 0
M  V30 9 C 3.53828 0.871995 -0.983322 0
M  V30 10 C 3.57783 -0.5518 -0.398965 0
M  V30 11 C 2.20091 -1.04418 -0.418141 0
M  V30 12 N 4.38703 -1.33172 -1.30811 0
M  V30 13 C -1.88319 0.875186 -0.911736 0
M  V30 14 N -3.22251 1.37339 -0.804117 0
M  V30 15 C -2.56146 -1.21115 0.0331775 0
M  V30 16 C -2.4882 -2.30578 1.00814 0
M  V30 17 H -3.77826 0.419468 1.65642 0
M  V30 18 H -2.91768 1.09869 3.02885 0
M  V30 19 H -3.06813 2.14089 1.62696 0
M  V30 20 H -0.902026 1.37009 1.57571 0
M  V30 21 H -1.3524 -0.282293 2.24728 0
M  V30 22 H 0.739027 1.9142 0.0619792 0
M  V30 23 H 1.44353 1.23185 1.56666 0
M  V30 24 H 3.5279 1.61486 0.978794 0
M  V30 25 H 2.80116 2.72067 -0.194442 0
M  V30 26 H 4.5381 1.27736 -1.11629 0
M  V30 27 H 2.95129 0.880827 -1.93421 0
M  V30 28 H 4.03744 -0.447279 0.599886 0
M  V30 29 H 2.10808 -2.02803 0.108447 0
M  V30 30 H 1.9507 -1.29484 -1.50082 0
M  V30 31 H 3.86907 -2.09908 -1.7746 0
M  V30 32 H 5.3004 -1.61786 -0.899544 0
M  V30 33 H -1.1511 1.66196 -1.11981 0
M  V30 34 H -1.90559 0.287022 -1.88926 0
M  V30 35 H -3.92578 0.88125 -1.36184 0
M  V30 36 H -3.20802 2.37227 -1.15468 0
M  V30 37 H -2.49523 -1.67543 -0.997 0
M  V30 38 H -3.54283 -0.725132 0.0565512 0
M  V30 39 H -3.53571 -2.74304 1.06373 0
M  V30 40 H -1.89528 -3.14987 0.598816 0
M  V30 41 H -2.25803 -2.0667 2.04701 0
M  V30 END ATOM
M  V30 BEGIN BOND
M  V30 1 1 1 2
M  V30 2 1 2 3
M  V30 3 1 3 4
M  V30 4 2 4 5
M  V30 5 1 4 6
M  V30 6 1 6 7
M  V30 7 1 7 8
M  V30 8 1 8 9
M  V30 9 1 9 10
M  V30 10 1 10 11
M  V30 11 1 10 12
M  V30 12 1 3 13
M  V30 13 1 13 14
M  V30 14 1 3 15
M  V30 15 1 15 16
M  V30 16 1 11 6
M  V30 17 1 1 17
M  V30 18 1 1 18
M  V30 19 1 1 19
M  V30 20 1 2 20
M  V30 21 1 2 21
M  V30 22 1 7 22
M  V30 23 1 7 23
M  V30 24 1 8 24
M  V30 25 1 8 25
M  V30 26 1 9 26
M  V30 27 1 9 27
M  V30 28 1 10 28
M  V30 29 1 11 29
M  V30 30 1 11 30
M  V30 31 1 12 31
M  V30 32 1 12 32
M  V30 33 1 13 33
M  V30 34 1 13 34
M  V30 35 1 14 35
M  V30 36 1 14 36
M  V30 37 1 15 37
M  V30 38 1 15 38
M  V30 39 1 16 39
M  V30 40 1 16 40
M  V30 41 1 16 41
M  V30 END BOND
M  V30 END CTAB
M  END
