
     RDKit          3D

  0  0  0  0  0  0  0  0  0  0999 V3000
M  V30 BEGIN CTAB
M  V30 COUNTS 23 24 0 0 0
M  V30 BEGIN ATOM
M  V30 1 N -3.40887 -0.258187 2.23655 0
M  V30 2 C -2.63116 -0.204476 1.05345 0
M  V30 3 N -3.26688 -0.267425 -0.127411 0
M  V30 4 C -2.60711 -0.223268 -1.29324 0
M  V30 5 N -3.33823 -0.294359 -2.50466 0
M  V30 6 N -1.26786 -0.112322 -1.25225 0
M  V30 7 C -0.586506 -0.0458617 -0.100471 0
M  V30 8 N -1.2892 -0.0937385 1.04518 0
M  V30 9 C 0.873836 0.0747015 -0.104289 0
M  V30 10 C 1.65928 0.129558 -1.2359 0
M  V30 11 C 2.98788 0.242775 -0.839707 0
M  V30 12 C 2.92996 0.250236 0.544994 0
M  V30 13 O 1.69264 0.151254 0.906131 0
M  V30 14 C 4.17291 0.360189 1.37333 0
M  V30 15 H -3.95282 0.582158 2.49435 0
M  V30 16 H -3.42613 -1.10636 2.81245 0
M  V30 17 H -2.95967 -0.905821 -3.25902 0
M  V30 18 H -4.22295 0.240501 -2.64738 0
M  V30 19 H 1.29791 0.0906965 -2.25541 0
M  V30 20 H 3.84869 0.308098 -1.48988 0
M  V30 21 H 3.96166 0.210438 2.43663 0
M  V30 22 H 4.85714 -0.453903 1.0556 0
M  V30 23 H 4.67548 1.32512 1.15095 0
M  V30 END ATOM
M  V30 BEGIN BOND
M  V30 1 1 1 2
M  V30 2 2 2 3
M  V30 3 1 3 4
M  V30 4 1 4 5
M  V30 5 2 4 6
M  V30 6 1 6 7
M  V30 7 2 7 8
M  V30 8 1 7 9
M  V30 9 2 9 10
M  V30 10 1 10 11
M  V30 11 2 11 12
M  V30 12 1 12 13
M  V30 13 1 12 14
M  V30 14 1 8 2
M  V30 15 1 13 9
M  V30 16 1 1 15
M  V30 17 1 1 16
M  V30 18 1 5 17
M  V30 19 1 5 18
M  V30 20 1 10 19
M  V30 21 1 11 20
M  V30 22 1 14 21
M  V30 23 1 14 22
M  V30 24 1 14 23
M  V30 END BOND
M  V30 END CTAB
M  END
