
     RDKit          3D

  0  0  0  0  0  0  0  0  0  0999 V3000
M  V30 BEGIN CTAB
M  V30 COUNTS 30 31 0 0 0
M  V30 BEGIN ATOM
M  V30 1 F -4.34091 2.01698 0.0273423 0
M  V30 2 C -3.42403 1.01518 -0.0712214 0
M  V30 3 C -3.57909 -0.106732 0.611976 0
M  V30 4 C -2.55206 -1.17005 0.475667 0
M  V30 5 C -1.17155 -0.50094 0.453535 0
M  V30 6 N -1.08873 0.683249 -0.278077 0
M  V30 7 C -2.27675 1.12864 -0.967316 0
M  V30 8 C 0.0392391 0.826003 -1.20287 0
M  V30 9 C 1.22813 0.156219 -0.629483 0
M  V30 10 C 1.73482 -0.938334 -1.29628 0
M  V30 11 N 2.85075 -1.51701 -0.83698 0
M  V30 12 C 3.47738 -1.07819 0.250306 0
M  V30 13 N 2.99208 0.0133557 0.935645 0
M  V30 14 C 1.86074 0.597096 0.458549 0
M  V30 15 N 1.36735 1.77901 1.18449 0
M  V30 16 N 4.66799 -1.67364 0.803747 0
M  V30 17 H -4.39154 -0.222744 1.32467 0
M  V30 18 H -2.69572 -1.749 -0.45614 0
M  V30 19 H -2.60033 -1.86843 1.31397 0
M  V30 20 H -1.1026 -0.147032 1.5722 0
M  V30 21 H -0.357375 -1.20818 0.408919 0
M  V30 22 H -2.06162 2.1948 -1.25986 0
M  V30 23 H -2.39057 0.510172 -1.89721 0
M  V30 24 H -0.337003 0.188366 -2.0994 0
M  V30 25 H 0.12769 1.82393 -1.55756 0
M  V30 26 H 1.27381 -1.36667 -2.21769 0
M  V30 27 H 0.396704 1.99258 1.34993 0
M  V30 28 H 2.1276 2.37985 1.54942 0
M  V30 29 H 5.42489 -2.04989 0.209646 0
M  V30 30 H 4.8007 -1.70861 1.8401 0
M  V30 END ATOM
M  V30 BEGIN BOND
M  V30 1 1 1 2
M  V30 2 2 2 3
M  V30 3 1 3 4
M  V30 4 1 4 5
M  V30 5 1 5 6
M  V30 6 1 6 7
M  V30 7 1 6 8
M  V30 8 1 8 9
M  V30 9 2 9 10
M  V30 10 1 10 11
M  V30 11 2 11 12
M  V30 12 1 12 13
M  V30 13 2 13 14
M  V30 14 1 14 15
M  V30 15 1 12 16
M  V30 16 1 7 2
M  V30 17 1 14 9
M  V30 18 1 3 17
M  V30 19 1 4 18
M  V30 20 1 4 19
M  V30 21 1 5 20
M  V30 22 1 5 21
M  V30 23 1 7 22
M  V30 24 1 7 23
M  V30 25 1 8 24
M  V30 26 1 8 25
M  V30 27 1 10 26
M  V30 28 1 15 27
M  V30 29 1 15 28
M  V30 30 1 16 29
M  V30 31 1 16 30
M  V30 END BOND
M  V30 END CTAB
M  END
