
     RDKit          3D

  0  0  0  0  0  0  0  0  0  0999 V3000
M  V30 BEGIN CTAB
M  V30 COUNTS 40 40 0 0 0
M  V30 BEGIN ATOM
M  V30 1 N 2.14022 -3.81226 1.14608 0
M  V30 2 C 1.9059 -2.74603 0.169321 0
M  V30 3 C 1.90919 -1.45592 0.960844 0
M  V30 4 N 1.69168 -0.298146 0.154023 0
M  V30 5 C 0.370643 0.205133 -0.109482 0
M  V30 6 O 0.217538 1.23106 -0.816764 0
M  V30 7 N -0.784478 -0.420836 0.405032 0
M  V30 8 C -2.12923 -0.108515 0.277992 0
M  V30 9 C -2.6139 0.965095 -0.438799 0
M  V30 10 C -3.97705 1.26385 -0.555197 0
M  V30 11 C -4.43808 2.43639 -1.34263 0
M  V30 12 C -4.85037 0.423893 0.0902974 0
M  V30 13 C -4.42418 -0.663707 0.820811 0
M  V30 14 C -3.0744 -0.92813 0.914142 0
M  V30 15 N -2.5841 -2.03516 1.65399 0
M  V30 16 C 2.78896 0.385473 -0.409549 0
M  V30 17 O 3.94822 -0.0469075 -0.184902 0
M  V30 18 O 2.64692 1.51875 -1.20435 0
M  V30 19 C 3.80378 2.12884 -1.71993 0
M  V30 20 C 4.75296 2.60127 -0.644083 0
M  V30 21 H 2.87535 -3.52017 1.83247 0
M  V30 22 H 1.22347 -3.92715 1.64949 0
M  V30 23 H 0.936171 -2.96631 -0.292986 0
M  V30 24 H 2.69454 -2.80814 -0.579159 0
M  V30 25 H 1.23814 -1.57734 1.81327 0
M  V30 26 H 2.94509 -1.43908 1.4376 0
M  V30 27 H -0.554578 -1.29634 0.99537 0
M  V30 28 H -1.96487 1.65805 -0.966511 0
M  V30 29 H -5.41175 2.79995 -0.920607 0
M  V30 30 H -3.72716 3.28609 -1.30329 0
M  V30 31 H -4.6645 2.16668 -2.39747 0
M  V30 32 H -5.90879 0.634722 0.014685 0
M  V30 33 H -5.12053 -1.33806 1.33872 0
M  V30 34 H -1.99877 -1.93592 2.51698 0
M  V30 35 H -2.84805 -2.98904 1.27776 0
M  V30 36 H 3.58565 2.97677 -2.37915 0
M  V30 37 H 4.3497 1.36918 -2.35283 0
M  V30 38 H 5.51449 1.84534 -0.391131 0
M  V30 39 H 5.33192 3.49112 -1.02183 0
M  V30 40 H 4.20423 2.92549 0.281966 0
M  V30 END ATOM
M  V30 BEGIN BOND
M  V30 1 1 1 2
M  V30 2 1 2 3
M  V30 3 1 3 4
M  V30 4 1 4 5
M  V30 5 2 5 6
M  V30 6 1 5 7
M  V30 7 1 7 8
M  V30 8 2 8 9
M  V30 9 1 9 10
M  V30 10 1 10 11
M  V30 11 2 10 12
M  V30 12 1 12 13
M  V30 13 2 13 14
M  V30 14 1 14 15
M  V30 15 1 4 16
M  V30 16 2 16 17
M  V30 17 1 16 18
M  V30 18 1 18 19
M  V30 19 1 19 20
M  V30 20 1 14 8
M  V30 21 1 1 21
M  V30 22 1 1 22
M  V30 23 1 2 23
M  V30 24 1 2 24
M  V30 25 1 3 25
M  V30 26 1 3 26
M  V30 27 1 7 27
M  V30 28 1 9 28
M  V30 29 1 11 29
M  V30 30 1 11 30
M  V30 31 1 11 31
M  V30 32 1 12 32
M  V30 33 1 13 33
M  V30 34 1 15 34
M  V30 35 1 15 35
M  V30 36 1 19 36
M  V30 37 1 19 37
M  V30 38 1 20 38
M  V30 39 1 20 39
M  V30 40 1 20 40
M  V30 END BOND
M  V30 END CTAB
M  END
