
     RDKit          3D

  0  0  0  0  0  0  0  0  0  0999 V3000
M  V30 BEGIN CTAB
M  V30 COUNTS 28 30 0 0 0
M  V30 BEGIN ATOM
M  V30 1 N 5.79859 0.144601 -0.568773 0
M  V30 2 C 4.39722 0.0778122 -0.366115 0
M  V30 3 C 3.59876 0.605696 -1.3749 0
M  V30 4 C 2.23433 0.549187 -1.19448 0
M  V30 5 C 1.63763 0.00372189 -0.0810797 0
M  V30 6 C 2.45358 -0.50897 0.896647 0
M  V30 7 C 3.83244 -0.473913 0.758127 0
M  V30 8 C 0.174307 -0.0358975 0.0707719 0
M  V30 9 N -0.753192 0.419016 -0.786577 0
M  V30 10 C -1.98895 0.206467 -0.302554 0
M  V30 11 C -3.27503 0.453371 -0.728754 0
M  V30 12 C -4.38631 0.109349 0.0102222 0
M  V30 13 N -5.71151 0.36029 -0.422042 0
M  V30 14 C -4.14052 -0.509459 1.22724 0
M  V30 15 C -2.87841 -0.775466 1.69259 0
M  V30 16 C -1.79558 -0.410723 0.913867 0
M  V30 17 O -0.48225 -0.530249 1.08565 0
M  V30 18 H 6.24598 0.1517 -1.50494 0
M  V30 19 H 6.41182 0.188924 0.26757 0
M  V30 20 H 4.05317 1.04204 -2.26443 0
M  V30 21 H 1.60687 0.956749 -1.97279 0
M  V30 22 H 2.00317 -0.945098 1.78554 0
M  V30 23 H 4.47909 -0.875769 1.52413 0
M  V30 24 H -3.4248 0.934388 -1.67683 0
M  V30 25 H -6.00471 1.33379 -0.604833 0
M  V30 26 H -6.3778 -0.41671 -0.553629 0
M  V30 27 H -4.99343 -0.796572 1.84025 0
M  V30 28 H -2.71446 -1.25827 2.6435 0
M  V30 END ATOM
M  V30 BEGIN BOND
M  V30 1 1 1 2
M  V30 2 2 2 3
M  V30 3 1 3 4
M  V30 4 2 4 5
M  V30 5 1 5 6
M  V30 6 2 6 7
M  V30 7 1 5 8
M  V30 8 2 8 9
M  V30 9 1 9 10
M  V30 10 2 10 11
M  V30 11 1 11 12
M  V30 12 1 12 13
M  V30 13 2 12 14
M  V30 14 1 14 15
M  V30 15 2 15 16
M  V30 16 1 16 17
M  V30 17 1 7 2
M  V30 18 1 17 8
M  V30 19 1 16 10
M  V30 20 1 1 18
M  V30 21 1 1 19
M  V30 22 1 3 20
M  V30 23 1 4 21
M  V30 24 1 6 22
M  V30 25 1 7 23
M  V30 26 1 11 24
M  V30 27 1 13 25
M  V30 28 1 13 26
M  V30 29 1 14 27
M  V30 30 1 15 28
M  V30 END BOND
M  V30 END CTAB
M  END
