
     RDKit          3D

  0  0  0  0  0  0  0  0  0  0999 V3000
M  V30 BEGIN CTAB
M  V30 COUNTS 15 15 0 0 0
M  V30 BEGIN ATOM
M  V30 1 N -2.09139 0.502639 0.141097 0
M  V30 2 C -0.842817 -0.167535 0.0434695 0
M  V30 3 C -0.74959 -1.55149 -0.0135991 0
M  V30 4 Cl -2.25881 -2.45641 0.040396 0
M  V30 5 N 0.428699 -2.17222 -0.10526 0
M  V30 6 C 1.60571 -1.52004 -0.149342 0
M  V30 7 C 1.57074 -0.140216 -0.0958145 0
M  V30 8 C 0.353432 0.521694 -0.000346992 0
M  V30 9 N 0.281935 1.93686 0.0565964 0
M  V30 10 Br 3.20427 0.870794 -0.153058 0
M  V30 11 Cl 3.12466 -2.36912 -0.269353 0
M  V30 12 H -2.93118 0.0858711 0.59878 0
M  V30 13 H -2.20457 1.46175 -0.256001 0
M  V30 14 H -0.109112 2.52162 -0.721941 0
M  V30 15 H 0.618017 2.4758 0.884376 0
M  V30 END ATOM
M  V30 BEGIN BOND
M  V30 1 1 1 2
M  V30 2 2 2 3
M  V30 3 1 3 4
M  V30 4 1 3 5
M  V30 5 2 5 6
M  V30 6 1 6 7
M  V30 7 2 7 8
M  V30 8 1 8 9
M  V30 9 1 7 10
M  V30 10 1 6 11
M  V30 11 1 8 2
M  V30 12 1 1 12
M  V30 13 1 1 13
M  V30 14 1 9 14
M  V30 15 1 9 15
M  V30 END BOND
M  V30 END CTAB
M  END
