
     RDKit          3D

  0  0  0  0  0  0  0  0  0  0999 V3000
M  V30 BEGIN CTAB
M  V30 COUNTS 22 22 0 0 0
M  V30 BEGIN ATOM
M  V30 1 N -1.44285 1.02341 -2.35901 0
M  V30 2 C -1.62546 0.517648 -1.03424 0
M  V30 3 C -0.580091 -0.0620581 -0.328658 0
M  V30 4 O 0.632731 -0.129184 -0.954608 0
M  V30 5 C 1.80539 -0.670548 -0.422048 0
M  V30 6 C 2.29657 -0.0196896 0.825579 0
M  V30 7 N 3.52537 -0.729232 1.217 0
M  V30 8 N -0.798433 -0.526213 0.920019 0
M  V30 9 C -1.98901 -0.461989 1.53817 0
M  V30 10 N -3.00552 0.10142 0.852766 0
M  V30 11 C -2.84603 0.581722 -0.396288 0
M  V30 12 O -3.81433 1.11087 -1.03121 0
M  V30 13 H -1.09826 2.00445 -2.46077 0
M  V30 14 H -1.63221 0.474153 -3.21599 0
M  V30 15 H 2.63561 -0.723761 -1.13657 0
M  V30 16 H 1.5656 -1.74689 -0.171695 0
M  V30 17 H 2.63793 1.02496 0.575956 0
M  V30 18 H 1.62416 -0.0328703 1.67872 0
M  V30 19 H 4.04527 -1.01556 0.343984 0
M  V30 20 H 4.16699 -0.0484787 1.70627 0
M  V30 21 H -2.15532 -0.836618 2.53957 0
M  V30 22 H -3.9481 0.164462 1.31304 0
M  V30 END ATOM
M  V30 BEGIN BOND
M  V30 1 1 1 2
M  V30 2 2 2 3
M  V30 3 1 3 4
M  V30 4 1 4 5
M  V30 5 1 5 6
M  V30 6 1 6 7
M  V30 7 1 3 8
M  V30 8 2 8 9
M  V30 9 1 9 10
M  V30 10 1 10 11
M  V30 11 2 11 12
M  V30 12 1 11 2
M  V30 13 1 1 13
M  V30 14 1 1 14
M  V30 15 1 5 15
M  V30 16 1 5 16
M  V30 17 1 6 17
M  V30 18 1 6 18
M  V30 19 1 7 19
M  V30 20 1 7 20
M  V30 21 1 9 21
M  V30 22 1 10 22
M  V30 END BOND
M  V30 END CTAB
M  END
