
     RDKit          3D

  0  0  0  0  0  0  0  0  0  0999 V3000
M  V30 BEGIN CTAB
M  V30 COUNTS 30 30 0 0 0
M  V30 BEGIN ATOM
M  V30 1 O -2.48056 -3.49486 -0.313208 0
M  V30 2 N -3.32034 -2.44735 -0.153057 0
M  V30 3 C -3.13944 -1.28109 -0.673433 0
M  V30 4 C -1.93666 -1.045 -1.50894 0
M  V30 5 C -1.07904 0.0292584 -0.957155 0
M  V30 6 C -1.29756 1.33403 -1.347 0
M  V30 7 C -0.532679 2.38934 -0.87016 0
M  V30 8 C 0.471363 2.07196 0.0246153 0
M  V30 9 C 0.717001 0.780442 0.435179 0
M  V30 10 C -0.0523487 -0.251992 -0.0490333 0
M  V30 11 C 1.81958 0.5247 1.40314 0
M  V30 12 C 3.09438 0.268371 0.6978 0
M  V30 13 N 4.09482 1.04805 0.915358 0
M  V30 14 O 5.31057 0.914574 0.329924 0
M  V30 15 N 3.15255 -0.834481 -0.192289 0
M  V30 16 N -4.0873 -0.248594 -0.440374 0
M  V30 17 H -2.40642 -4.24034 0.35623 0
M  V30 18 H -2.28542 -0.707171 -2.50501 0
M  V30 19 H -1.31802 -1.93318 -1.63226 0
M  V30 20 H -2.09793 1.52063 -2.04979 0
M  V30 21 H -0.703674 3.41577 -1.17606 0
M  V30 22 H 1.10254 2.84843 0.433008 0
M  V30 23 H 0.109684 -1.26949 0.247932 0
M  V30 24 H 1.93587 1.3995 2.07376 0
M  V30 25 H 1.52874 -0.326476 2.05747 0
M  V30 26 H 5.96913 1.68105 0.39155 0
M  V30 27 H 3.049 -0.648364 -1.20557 0
M  V30 28 H 3.29676 -1.7847 0.208677 0
M  V30 29 H -4.8901 -0.123567 -1.09014 0
M  V30 30 H -4.02448 0.410546 0.366579 0
M  V30 END ATOM
M  V30 BEGIN BOND
M  V30 1 1 1 2
M  V30 2 2 2 3 CFG=2
M  V30 3 1 3 4
M  V30 4 1 4 5
M  V30 5 2 5 6
M  V30 6 1 6 7
M  V30 7 2 7 8
M  V30 8 1 8 9
M  V30 9 2 9 10
M  V30 10 1 9 11
M  V30 11 1 11 12
M  V30 12 2 12 13 CFG=2
M  V30 13 1 13 14
M  V30 14 1 12 15
M  V30 15 1 3 16
M  V30 16 1 10 5
M  V30 17 1 1 17
M  V30 18 1 4 18
M  V30 19 1 4 19
M  V30 20 1 6 20
M  V30 21 1 7 21
M  V30 22 1 8 22
M  V30 23 1 10 23
M  V30 24 1 11 24
M  V30 25 1 11 25
M  V30 26 1 14 26
M  V30 27 1 15 27
M  V30 28 1 15 28
M  V30 29 1 16 29
M  V30 30 1 16 30
M  V30 END BOND
M  V30 END CTAB
M  END
