
     RDKit          3D

  0  0  0  0  0  0  0  0  0  0999 V3000
M  V30 BEGIN CTAB
M  V30 COUNTS 16 16 0 0 0
M  V30 BEGIN ATOM
M  V30 1 N 2.86234 -0.179251 -0.0759498 0
M  V30 2 C 1.43746 -0.0794241 -0.0398313 0
M  V30 3 C 0.626004 -1.19403 0.0110791 0
M  V30 4 C -0.747309 -1.07561 0.0452997 0
M  V30 5 Br -1.88727 -2.61679 0.116172 0
M  V30 6 C -1.37707 0.153059 0.0305635 0
M  V30 7 N -2.79383 0.27501 0.0658683 0
M  V30 8 C -0.567513 1.28065 -0.0206308 0
M  V30 9 C 0.800107 1.1442 -0.0542286 0
M  V30 10 H 3.4213 -0.120424 -0.945265 0
M  V30 11 H 3.39466 -0.319704 0.81082 0
M  V30 12 H 1.07502 -2.18693 0.0246142 0
M  V30 13 H -3.25282 1.14371 0.413106 0
M  V30 14 H -3.40655 -0.499455 -0.253852 0
M  V30 15 H -1.03639 2.25739 -0.033212 0
M  V30 16 H 1.45186 2.01761 -0.0945545 0
M  V30 END ATOM
M  V30 BEGIN BOND
M  V30 1 1 1 2
M  V30 2 2 2 3
M  V30 3 1 3 4
M  V30 4 1 4 5
M  V30 5 2 4 6
M  V30 6 1 6 7
M  V30 7 1 6 8
M  V30 8 2 8 9
M  V30 9 1 9 2
M  V30 10 1 1 10
M  V30 11 1 1 11
M  V30 12 1 3 12
M  V30 13 1 7 13
M  V30 14 1 7 14
M  V30 15 1 8 15
M  V30 16 1 9 16
M  V30 END BOND
M  V30 END CTAB
M  END
