
     RDKit          3D

  0  0  0  0  0  0  0  0  0  0999 V3000
M  V30 BEGIN CTAB
M  V30 COUNTS 35 36 0 0 0
M  V30 BEGIN ATOM
M  V30 1 O -1.91047 1.71361 1.49036 0
M  V30 2 C -1.43087 1.01569 0.585326 0
M  V30 3 C 0.0518361 1.15171 0.333267 0
M  V30 4 S 0.760788 -0.484382 0.585214 0
M  V30 5 C 2.51871 -0.515507 0.328322 0
M  V30 6 N 3.0888 -0.75666 -0.854024 0
M  V30 7 C 4.42684 -0.755858 -0.932893 0
M  V30 8 N 5.04292 -1.01227 -2.19046 0
M  V30 9 C 5.25799 -0.517074 0.151583 0
M  V30 10 C 4.64946 -0.270278 1.36313 0
M  V30 11 N 3.31134 -0.283802 1.3815 0
M  V30 12 N 5.43237 -0.019921 2.50635 0
M  V30 13 C 0.326979 1.72285 -1.01445 0
M  V30 14 N -2.20902 0.134641 -0.181315 0
M  V30 15 C -3.58217 -0.0898812 -0.0679478 0
M  V30 16 C -4.42469 0.769153 0.587781 0
M  V30 17 C -5.78915 0.445991 0.668716 0
M  V30 18 C -6.27694 -0.698038 0.108446 0
M  V30 19 C -5.44792 -1.57309 -0.554506 0
M  V30 20 C -4.12149 -1.26215 -0.634692 0
M  V30 21 Cl -6.12365 -3.03774 -1.26202 0
M  V30 22 F -7.6087 -0.987433 0.202361 0
M  V30 23 H 0.44899 1.81485 1.1195 0
M  V30 24 H 5.99706 -0.696529 -2.4082 0
M  V30 25 H 4.52011 -1.53597 -2.92219 0
M  V30 26 H 6.34943 -0.525245 0.0451099 0
M  V30 27 H 5.93648 0.872773 2.59179 0
M  V30 28 H 5.49982 -0.725635 3.2518 0
M  V30 29 H 0.273204 0.941423 -1.82172 0
M  V30 30 H 1.27318 2.28283 -1.06987 0
M  V30 31 H -0.473544 2.46598 -1.30247 0
M  V30 32 H -1.72253 -0.443401 -0.954863 0
M  V30 33 H -4.13513 1.69011 1.04413 0
M  V30 34 H -6.42476 1.13342 1.18649 0
M  V30 35 H -3.48524 -1.96416 -1.16058 0
M  V30 END ATOM
M  V30 BEGIN BOND
M  V30 1 2 1 2
M  V30 2 1 2 3
M  V30 3 1 3 4
M  V30 4 1 4 5
M  V30 5 2 5 6
M  V30 6 1 6 7
M  V30 7 1 7 8
M  V30 8 2 7 9
M  V30 9 1 9 10
M  V30 10 2 10 11
M  V30 11 1 10 12
M  V30 12 1 3 13
M  V30 13 1 2 14
M  V30 14 1 14 15
M  V30 15 2 15 16
M  V30 16 1 16 17
M  V30 17 2 17 18
M  V30 18 1 18 19
M  V30 19 2 19 20
M  V30 20 1 19 21
M  V30 21 1 18 22
M  V30 22 1 11 5
M  V30 23 1 20 15
M  V30 24 1 3 23
M  V30 25 1 8 24
M  V30 26 1 8 25
M  V30 27 1 9 26
M  V30 28 1 12 27
M  V30 29 1 12 28
M  V30 30 1 13 29
M  V30 31 1 13 30
M  V30 32 1 13 31
M  V30 33 1 14 32
M  V30 34 1 16 33
M  V30 35 1 17 34
M  V30 36 1 20 35
M  V30 END BOND
M  V30 END CTAB
M  END
