
     RDKit          3D

  0  0  0  0  0  0  0  0  0  0999 V3000
M  V30 BEGIN CTAB
M  V30 COUNTS 23 24 0 0 0
M  V30 BEGIN ATOM
M  V30 1 C 3.56858 0.854442 0.954769 0
M  V30 2 O 2.86891 -0.315451 0.617187 0
M  V30 3 C 1.90414 -0.0605655 -0.346781 0
M  V30 4 C 1.58437 -1.13681 -1.31612 0
M  V30 5 C 0.591321 -0.887132 -0.247334 0
M  V30 6 C -0.661311 -0.139721 -0.577801 0
M  V30 7 N -0.883282 0.689523 -1.61228 0
M  V30 8 N -2.12091 1.14357 -1.54047 0
M  V30 9 C -2.73509 0.613203 -0.446434 0
M  V30 10 N -1.80917 -0.168863 0.119416 0
M  V30 11 N -2.02515 -0.915926 1.28922 0
M  V30 12 N -4.06576 0.848258 -0.0147392 0
M  V30 13 H 4.32242 0.590415 1.7253 0
M  V30 14 H 2.86697 1.64914 1.32108 0
M  V30 15 H 4.14091 1.22036 0.0650404 0
M  V30 16 H 1.78564 0.982978 -0.735319 0
M  V30 17 H 2.2039 -2.07341 -1.25845 0
M  V30 18 H 1.24711 -0.843981 -2.35211 0
M  V30 19 H 0.530233 -1.50759 0.656418 0
M  V30 20 H -2.32273 -1.91018 1.20248 0
M  V30 21 H -1.90546 -0.535075 2.24684 0
M  V30 22 H -4.5688 1.65602 -0.422902 0
M  V30 23 H -4.51684 0.246783 0.672987 0
M  V30 END ATOM
M  V30 BEGIN BOND
M  V30 1 1 1 2
M  V30 2 1 2 3
M  V30 3 1 3 4
M  V30 4 1 4 5
M  V30 5 1 5 6
M  V30 6 2 6 7
M  V30 7 1 7 8
M  V30 8 2 8 9
M  V30 9 1 9 10
M  V30 10 1 10 11
M  V30 11 1 9 12
M  V30 12 1 5 3
M  V30 13 1 10 6
M  V30 14 1 1 13
M  V30 15 1 1 14
M  V30 16 1 1 15
M  V30 17 1 3 16
M  V30 18 1 4 17
M  V30 19 1 4 18
M  V30 20 1 5 19
M  V30 21 1 11 20
M  V30 22 1 11 21
M  V30 23 1 12 22
M  V30 24 1 12 23
M  V30 END BOND
M  V30 END CTAB
M  END
