
     RDKit          3D

  0  0  0  0  0  0  0  0  0  0999 V3000
M  V30 BEGIN CTAB
M  V30 COUNTS 19 20 0 0 0
M  V30 BEGIN ATOM
M  V30 1 N 3.61759 0.286578 -0.349095 0
M  V30 2 C 2.21414 0.137472 -0.208226 0
M  V30 3 N 1.59546 -0.940568 -0.543703 0
M  V30 4 C 0.175346 -1.11382 -0.409949 0
M  V30 5 N -0.603171 -2.10451 -0.688349 0
M  V30 6 C -1.96994 -1.79783 -0.373773 0
M  V30 7 C -1.93338 -0.409121 0.166919 0
M  V30 8 N -0.561603 -0.0349316 0.118515 0
M  V30 9 C 0.152012 1.15782 0.485545 0
M  V30 10 N -0.625948 2.22448 1.01503 0
M  V30 11 N 1.40061 1.18495 0.318766 0
M  V30 12 H 4.21532 0.370086 0.481086 0
M  V30 13 H 4.02342 0.309432 -1.29146 0
M  V30 14 H -2.39503 -2.5263 0.369881 0
M  V30 15 H -2.62148 -1.83568 -1.30479 0
M  V30 16 H -2.20202 -0.476969 1.25599 0
M  V30 17 H -2.60897 0.292435 -0.365609 0
M  V30 18 H -1.23301 2.77452 0.351774 0
M  V30 19 H -0.639347 2.50195 2.01211 0
M  V30 END ATOM
M  V30 BEGIN BOND
M  V30 1 1 1 2
M  V30 2 2 2 3
M  V30 3 1 3 4
M  V30 4 2 4 5
M  V30 5 1 5 6
M  V30 6 1 6 7
M  V30 7 1 7 8
M  V30 8 1 8 9
M  V30 9 1 9 10
M  V30 10 2 9 11
M  V30 11 1 11 2
M  V30 12 1 8 4
M  V30 13 1 1 12
M  V30 14 1 1 13
M  V30 15 1 6 14
M  V30 16 1 6 15
M  V30 17 1 7 16
M  V30 18 1 7 17
M  V30 19 1 10 18
M  V30 20 1 10 19
M  V30 END BOND
M  V30 END CTAB
M  END
