
     RDKit          3D

  0  0  0  0  0  0  0  0  0  0999 V3000
M  V30 BEGIN CTAB
M  V30 COUNTS 49 51 0 0 0
M  V30 BEGIN ATOM
M  V30 1 C 3.7723 -1.60323 -2.80892 0
M  V30 2 C 3.79468 -1.4151 -1.48171 0
M  V30 3 C 3.28596 -2.41493 -0.524076 0
M  V30 4 N 2.23843 -1.95477 0.339161 0
M  V30 5 C 0.901158 -2.00293 0.0499395 0
M  V30 6 S 0.183999 -2.59699 -1.47331 0
M  V30 7 C -0.0865562 -1.3664 -2.71339 0
M  V30 8 C -1.23019 -0.427405 -2.4243 0
M  V30 9 O -1.29966 0.557021 -3.21846 0
M  V30 10 N -2.09499 -0.683501 -1.36687 0
M  V30 11 C -3.21649 0.0594579 -0.92387 0
M  V30 12 C -3.53266 1.29044 -1.38724 0
M  V30 13 C -4.66822 1.97648 -0.943888 0
M  V30 14 C -5.51467 1.43024 -0.0160759 0
M  V30 15 C -5.18912 0.179404 0.453079 0
M  V30 16 C -4.08248 -0.493832 0.0231505 0
M  V30 17 S -6.95041 2.28253 0.540892 0
M  V30 18 O -8.0002 1.29073 0.937721 0
M  V30 19 O -7.47803 3.1908 -0.536936 0
M  V30 20 N -6.49533 3.21901 1.91834 0
M  V30 21 N 0.299604 -1.51561 1.14529 0
M  V30 22 N 1.18728 -1.18634 2.05299 0
M  V30 23 C 2.44075 -1.45323 1.57335 0
M  V30 24 C 3.68975 -1.21744 2.33714 0
M  V30 25 C 4.06808 0.249407 2.27473 0
M  V30 26 C 3.4865 1.14398 3.16518 0
M  V30 27 S 4.23273 2.60892 2.71577 0
M  V30 28 C 5.22736 2.01898 1.4419 0
M  V30 29 N 4.92361 0.735612 1.44238 0
M  V30 30 N 6.13784 2.74376 0.610586 0
M  V30 31 H 4.12902 -0.905722 -3.52661 0
M  V30 32 H 3.36161 -2.54235 -3.18055 0
M  V30 33 H 4.21437 -0.469327 -1.17457 0
M  V30 34 H 4.13208 -2.80301 0.0863311 0
M  V30 35 H 2.88615 -3.26383 -1.14829 0
M  V30 36 H 0.815232 -0.678032 -2.72333 0
M  V30 37 H -0.168264 -1.74055 -3.73325 0
M  V30 38 H -1.89789 -1.57507 -0.814803 0
M  V30 39 H -2.88423 1.7693 -2.12014 0
M  V30 40 H -4.8719 2.95856 -1.34892 0
M  V30 41 H -5.86361 -0.263499 1.1969 0
M  V30 42 H -3.83707 -1.48785 0.404759 0
M  V30 43 H -6.3709 2.55884 2.72891 0
M  V30 44 H -7.31034 3.83168 2.18515 0
M  V30 45 H 3.48627 -1.50675 3.38563 0
M  V30 46 H 4.49714 -1.84891 1.97486 0
M  V30 47 H 2.73868 0.908827 3.94419 0
M  V30 48 H 6.02182 2.70646 -0.393404 0
M  V30 49 H 6.8908 3.28657 1.05456 0
M  V30 END ATOM
M  V30 BEGIN BOND
M  V30 1 2 1 2 CFG=2
M  V30 2 1 2 3
M  V30 3 1 3 4
M  V30 4 1 4 5
M  V30 5 1 5 6
M  V30 6 1 6 7
M  V30 7 1 7 8
M  V30 8 2 8 9
M  V30 9 1 8 10
M  V30 10 1 10 11
M  V30 11 2 11 12
M  V30 12 1 12 13
M  V30 13 2 13 14
M  V30 14 1 14 15
M  V30 15 2 15 16
M  V30 16 1 14 17
M  V30 17 2 17 18
M  V30 18 2 17 19
M  V30 19 1 17 20
M  V30 20 2 5 21
M  V30 21 1 21 22
M  V30 22 2 22 23
M  V30 23 1 23 24
M  V30 24 1 24 25
M  V30 25 2 25 26
M  V30 26 1 26 27
M  V30 27 1 27 28
M  V30 28 2 28 29
M  V30 29 1 28 30
M  V30 30 1 23 4
M  V30 31 1 29 25
M  V30 32 1 16 11
M  V30 33 1 1 31
M  V30 34 1 1 32
M  V30 35 1 2 33
M  V30 36 1 3 34
M  V30 37 1 3 35
M  V30 38 1 7 36
M  V30 39 1 7 37
M  V30 40 1 10 38
M  V30 41 1 12 39
M  V30 42 1 13 40
M  V30 43 1 15 41
M  V30 44 1 16 42
M  V30 45 1 20 43
M  V30 46 1 20 44
M  V30 47 1 24 45
M  V30 48 1 24 46
M  V30 49 1 26 47
M  V30 50 1 30 48
M  V30 51 1 30 49
M  V30 END BOND
M  V30 END CTAB
M  END
