
     RDKit          3D

  0  0  0  0  0  0  0  0  0  0999 V3000
M  V30 BEGIN CTAB
M  V30 COUNTS 17 18 0 0 0
M  V30 BEGIN ATOM
M  V30 1 N -2.04799 1.28479 0.256991 0
M  V30 2 C -0.782614 0.648223 0.115909 0
M  V30 3 C -0.767028 -0.66358 -0.058124 0
M  V30 4 N -1.99573 -1.41932 -0.102662 0
M  V30 5 C 0.516463 -1.33621 -0.20478 0
M  V30 6 O 0.46928 -2.58215 -0.367282 0
M  V30 7 C 1.80271 -0.606452 -0.166261 0
M  V30 8 N 3.00822 -1.18007 -0.296336 0
M  V30 9 S 4.08687 0.101111 -0.175621 0
M  V30 10 N 2.96518 1.34342 0.0390358 0
M  V30 11 C 1.78643 0.718523 0.00954445 0
M  V30 12 C 0.471365 1.38998 0.157466 0
M  V30 13 O 0.386756 2.63344 0.325576 0
M  V30 14 H -2.40243 1.50511 1.20518 0
M  V30 15 H -2.621 1.53124 -0.583143 0
M  V30 16 H -2.49533 -1.55676 0.809483 0
M  V30 17 H -2.38116 -1.8113 -0.964974 0
M  V30 END ATOM
M  V30 BEGIN BOND
M  V30 1 1 1 2
M  V30 2 2 2 3
M  V30 3 1 3 4
M  V30 4 1 3 5
M  V30 5 2 5 6
M  V30 6 1 5 7
M  V30 7 2 7 8
M  V30 8 1 8 9
M  V30 9 1 9 10
M  V30 10 2 10 11
M  V30 11 1 11 12
M  V30 12 2 12 13
M  V30 13 1 12 2
M  V30 14 1 11 7
M  V30 15 1 1 14
M  V30 16 1 1 15
M  V30 17 1 4 16
M  V30 18 1 4 17
M  V30 END BOND
M  V30 END CTAB
M  END
