
     RDKit          3D

  0  0  0  0  0  0  0  0  0  0999 V3000
M  V30 BEGIN CTAB
M  V30 COUNTS 24 25 0 0 0
M  V30 BEGIN ATOM
M  V30 1 N 4.37771 0.9095 0.385762 0
M  V30 2 C 3.38039 -0.0717932 0.257232 0
M  V30 3 N 3.65082 -1.3782 0.142901 0
M  V30 4 C 2.69683 -2.30957 0.0206477 0
M  V30 5 C 1.37546 -1.93429 0.00930451 0
M  V30 6 C 1.03134 -0.611593 0.12256 0
M  V30 7 C 2.05514 0.301108 0.245523 0
M  V30 8 C -0.359518 -0.159209 0.116056 0
M  V30 9 N -0.74817 1.1193 0.223516 0
M  V30 10 C -2.08503 1.1973 0.183427 0
M  V30 11 N -2.5356 -0.0859259 0.0457054 0
M  V30 12 N -1.4803 -0.871771 0.00865495 0
M  V30 13 C -3.94738 -0.427396 -0.0368441 0
M  V30 14 N -2.89306 2.36238 0.265223 0
M  V30 15 H 5.31314 0.762178 -0.0340614 0
M  V30 16 H 4.21607 1.80551 0.898897 0
M  V30 17 H 2.95526 -3.36685 -0.0704779 0
M  V30 18 H 0.575686 -2.64989 -0.0869966 0
M  V30 19 H 1.78964 1.35201 0.335789 0
M  V30 20 H -4.36406 -0.693557 0.954533 0
M  V30 21 H -4.1202 -1.2619 -0.753698 0
M  V30 22 H -4.50492 0.439654 -0.442125 0
M  V30 23 H -2.90515 2.93728 1.1198 0
M  V30 24 H -3.47408 2.63571 -0.540007 0
M  V30 END ATOM
M  V30 BEGIN BOND
M  V30 1 1 1 2
M  V30 2 2 2 3
M  V30 3 1 3 4
M  V30 4 2 4 5
M  V30 5 1 5 6
M  V30 6 2 6 7
M  V30 7 1 6 8
M  V30 8 1 8 9
M  V30 9 2 9 10
M  V30 10 1 10 11
M  V30 11 1 11 12
M  V30 12 1 11 13
M  V30 13 1 10 14
M  V30 14 1 7 2
M  V30 15 2 12 8
M  V30 16 1 1 15
M  V30 17 1 1 16
M  V30 18 1 4 17
M  V30 19 1 5 18
M  V30 20 1 7 19
M  V30 21 1 13 20
M  V30 22 1 13 21
M  V30 23 1 13 22
M  V30 24 1 14 23
M  V30 25 1 14 24
M  V30 END BOND
M  V30 END CTAB
M  END
