
     RDKit          3D

  0  0  0  0  0  0  0  0  0  0999 V3000
M  V30 BEGIN CTAB
M  V30 COUNTS 44 44 0 0 0
M  V30 BEGIN ATOM
M  V30 1 N -6.9572 1.35883 2.12446 0
M  V30 2 C -6.91951 0.670454 0.872012 0
M  V30 3 C -5.56833 0.762955 0.177629 0
M  V30 4 C -4.52399 0.162356 1.0687 0
M  V30 5 N -3.1951 0.179957 0.555941 0
M  V30 6 C -2.95391 -0.691334 -0.571565 0
M  V30 7 C -1.5167 -0.522817 -0.924595 0
M  V30 8 C -0.597789 -1.01344 -0.0321669 0
M  V30 9 C 0.765123 -0.920056 -0.241707 0
M  V30 10 C 1.21485 -0.309609 -1.3931 0
M  V30 11 C 2.69363 -0.214462 -1.5997 0
M  V30 12 N 3.39208 -0.528565 -0.359161 0
M  V30 13 C 4.82383 -0.448279 -0.511727 0
M  V30 14 C 5.47098 -0.772262 0.817228 0
M  V30 15 C 6.96324 -0.713947 0.78256 0
M  V30 16 N 7.42827 0.605175 0.421944 0
M  V30 17 C 0.29947 0.186722 -2.29598 0
M  V30 18 C -1.06938 0.086523 -2.07387 0
M  V30 19 H -7.19362 0.720279 2.91415 0
M  V30 20 H -6.11971 1.93633 2.33115 0
M  V30 21 H -7.66195 1.08635 0.133396 0
M  V30 22 H -7.2125 -0.389456 1.00521 0
M  V30 23 H -5.67619 0.284968 -0.791424 0
M  V30 24 H -5.37205 1.83664 0.0188799 0
M  V30 25 H -4.82323 -0.86464 1.42014 0
M  V30 26 H -4.5084 0.753781 2.01855 0
M  V30 27 H -2.56676 -0.161065 1.33567 0
M  V30 28 H -3.53158 -0.423325 -1.46596 0
M  V30 29 H -3.10339 -1.7568 -0.326583 0
M  V30 30 H -0.923958 -1.49488 0.878302 0
M  V30 31 H 1.49402 -1.30466 0.453012 0
M  V30 32 H 2.91461 0.826893 -1.90316 0
M  V30 33 H 3.04334 -0.859675 -2.4244 0
M  V30 34 H 3.10173 0.175642 0.360968 0
M  V30 35 H 5.17026 0.506897 -0.926957 0
M  V30 36 H 5.18675 -1.23645 -1.22437 0
M  V30 37 H 5.11845 -1.75154 1.1662 0
M  V30 38 H 5.10997 0.00586522 1.54169 0
M  V30 39 H 7.30855 -0.887504 1.84108 0
M  V30 40 H 7.42743 -1.51428 0.191803 0
M  V30 41 H 7.1379 0.896396 -0.522055 0
M  V30 42 H 7.06456 1.26919 1.14618 0
M  V30 43 H 0.638599 0.668337 -3.20022 0
M  V30 44 H -1.7724 0.481862 -2.78814 0
M  V30 END ATOM
M  V30 BEGIN BOND
M  V30 1 1 1 2
M  V30 2 1 2 3
M  V30 3 1 3 4
M  V30 4 1 4 5
M  V30 5 1 5 6
M  V30 6 1 6 7
M  V30 7 2 7 8
M  V30 8 1 8 9
M  V30 9 2 9 10
M  V30 10 1 10 11
M  V30 11 1 11 12
M  V30 12 1 12 13
M  V30 13 1 13 14
M  V30 14 1 14 15
M  V30 15 1 15 16
M  V30 16 1 10 17
M  V30 17 2 17 18
M  V30 18 1 18 7
M  V30 19 1 1 19
M  V30 20 1 1 20
M  V30 21 1 2 21
M  V30 22 1 2 22
M  V30 23 1 3 23
M  V30 24 1 3 24
M  V30 25 1 4 25
M  V30 26 1 4 26
M  V30 27 1 5 27
M  V30 28 1 6 28
M  V30 29 1 6 29
M  V30 30 1 8 30
M  V30 31 1 9 31
M  V30 32 1 11 32
M  V30 33 1 11 33
M  V30 34 1 12 34
M  V30 35 1 13 35
M  V30 36 1 13 36
M  V30 37 1 14 37
M  V30 38 1 14 38
M  V30 39 1 15 39
M  V30 40 1 15 40
M  V30 41 1 16 41
M  V30 42 1 16 42
M  V30 43 1 17 43
M  V30 44 1 18 44
M  V30 END BOND
M  V30 END CTAB
M  END
