
     RDKit          3D

  0  0  0  0  0  0  0  0  0  0999 V3000
M  V30 BEGIN CTAB
M  V30 COUNTS 72 71 0 0 0
M  V30 BEGIN ATOM
M  V30 1 O -4.26617 -0.433794 -1.31449 0
M  V30 2 C -4.45792 -1.05024 -0.267657 0
M  V30 3 N -3.87764 -0.76811 0.970022 0
M  V30 4 C -2.93776 0.348657 1.12981 0 CFG=2
M  V30 5 C -3.66376 1.60933 1.03102 0
M  V30 6 O -4.87991 1.54189 1.47351 0
M  V30 7 N -3.26451 2.85481 0.54578 0
M  V30 8 C -4.18506 3.97592 0.562375 0
M  V30 9 C -5.34629 3.70258 -0.290162 0
M  V30 10 O -5.48214 2.67912 -0.985319 0
M  V30 11 O -6.35977 4.6748 -0.305532 0
M  V30 12 C -1.80659 0.15731 0.211734 0
M  V30 13 S -0.481931 1.41502 0.36231 0
M  V30 14 S 0.503101 1.21107 2.2424 0
M  V30 15 C 1.91512 0.100712 2.12284 0
M  V30 16 C 2.98674 0.723349 1.29303 0 CFG=1
M  V30 17 C 3.53173 1.98164 1.82549 0
M  V30 18 O 4.78762 1.96364 2.11731 0
M  V30 19 N 2.87926 3.19655 2.05699 0
M  V30 20 C 3.56285 4.35688 2.6079 0
M  V30 21 C 4.08073 4.10335 3.95368 0
M  V30 22 O 3.91697 3.04209 4.57457 0
M  V30 23 O 4.80388 5.1075 4.58813 0
M  V30 24 N 4.09019 -0.221458 1.07671 0
M  V30 25 C 4.5643 -0.508545 -0.233222 0
M  V30 26 O 4.04879 0.0382741 -1.2299 0
M  V30 27 C 5.6742 -1.45614 -0.428099 0
M  V30 28 C 6.0382 -1.46849 -1.89544 0
M  V30 29 C 7.17784 -2.41977 -2.18253 0 CFG=1
M  V30 30 C 8.33861 -1.95885 -1.37972 0
M  V30 31 O 8.71589 -0.759223 -1.53337 0
M  V30 32 O 9.00305 -2.78542 -0.489223 0
M  V30 33 N 6.82314 -3.78299 -1.92959 0
M  V30 34 C -5.40877 -2.23323 -0.290558 0
M  V30 35 C -5.9106 -2.36674 -1.69753 0
M  V30 36 C -6.87424 -3.49784 -1.91453 0 CFG=2
M  V30 37 C -7.25195 -3.4732 -3.36344 0
M  V30 38 O -8.46233 -3.44046 -3.65677 0
M  V30 39 O -6.22633 -3.48792 -4.32965 0
M  V30 40 N -8.0273 -3.44736 -1.06821 0
M  V30 41 H -4.0833 -1.32868 1.81471 0
M  V30 42 H -2.52046 0.297517 2.19232 0
M  V30 43 H -2.33028 3.01826 0.158615 0
M  V30 44 H -3.66438 4.91788 0.274336 0
M  V30 45 H -4.53599 4.04067 1.63682 0
M  V30 46 H -6.16413 5.6428 -0.0554996 0
M  V30 47 H -1.28585 -0.836033 0.402208 0
M  V30 48 H -2.02882 0.121144 -0.869844 0
M  V30 49 H 1.55545 -0.826184 1.59299 0
M  V30 50 H 2.27015 -0.146666 3.14544 0
M  V30 51 H 2.59111 0.967999 0.281484 0
M  V30 52 H 1.87601 3.33053 1.83191 0
M  V30 53 H 2.86978 5.20715 2.61587 0
M  V30 54 H 4.38502 4.58232 1.88092 0
M  V30 55 H 5.48972 5.62258 4.06153 0
M  V30 56 H 4.47421 -0.642271 1.94626 0
M  V30 57 H 5.3423 -2.49176 -0.135417 0
M  V30 58 H 6.5132 -1.11956 0.218714 0
M  V30 59 H 5.14066 -1.63707 -2.49057 0
M  V30 60 H 6.37825 -0.415182 -2.12651 0
M  V30 61 H 7.42118 -2.31338 -3.27107 0
M  V30 62 H 9.71407 -3.44351 -0.84277 0
M  V30 63 H 7.13435 -4.01792 -0.967242 0
M  V30 64 H 5.78654 -3.93975 -1.95708 0
M  V30 65 H -4.87318 -3.1455 0.0263133 0
M  V30 66 H -6.229 -1.97228 0.399235 0
M  V30 67 H -6.39748 -1.41137 -2.04584 0
M  V30 68 H -5.01167 -2.46639 -2.34542 0
M  V30 69 H -6.33473 -4.45502 -1.68192 0
M  V30 70 H -5.57041 -2.71594 -4.39913 0
M  V30 71 H -8.44946 -4.41943 -1.06482 0
M  V30 72 H -7.73411 -3.22966 -0.100368 0
M  V30 END ATOM
M  V30 BEGIN BOND
M  V30 1 2 1 2
M  V30 2 1 2 3
M  V30 3 1 3 4
M  V30 4 1 4 5
M  V30 5 2 5 6
M  V30 6 1 5 7
M  V30 7 1 7 8
M  V30 8 1 8 9
M  V30 9 2 9 10
M  V30 10 1 9 11
M  V30 11 1 4 12
M  V30 12 1 12 13
M  V30 13 1 13 14
M  V30 14 1 14 15
M  V30 15 1 15 16
M  V30 16 1 16 17
M  V30 17 2 17 18
M  V30 18 1 17 19
M  V30 19 1 19 20
M  V30 20 1 20 21
M  V30 21 2 21 22
M  V30 22 1 21 23
M  V30 23 1 16 24
M  V30 24 1 24 25
M  V30 25 2 25 26
M  V30 26 1 25 27
M  V30 27 1 27 28
M  V30 28 1 28 29
M  V30 29 1 29 30
M  V30 30 2 30 31
M  V30 31 1 30 32
M  V30 32 1 29 33
M  V30 33 1 2 34
M  V30 34 1 34 35
M  V30 35 1 35 36
M  V30 36 1 36 37
M  V30 37 2 37 38
M  V30 38 1 37 39
M  V30 39 1 36 40
M  V30 40 1 3 41
M  V30 41 1 4 42 CFG=1
M  V30 42 1 7 43
M  V30 43 1 8 44
M  V30 44 1 8 45
M  V30 45 1 11 46
M  V30 46 1 12 47
M  V30 47 1 12 48
M  V30 48 1 15 49
M  V30 49 1 15 50
M  V30 50 1 16 51 CFG=3
M  V30 51 1 19 52
M  V30 52 1 20 53
M  V30 53 1 20 54
M  V30 54 1 23 55
M  V30 55 1 24 56
M  V30 56 1 27 57
M  V30 57 1 27 58
M  V30 58 1 28 59
M  V30 59 1 28 60
M  V30 60 1 29 61 CFG=3
M  V30 61 1 32 62
M  V30 62 1 33 63
M  V30 63 1 33 64
M  V30 64 1 34 65
M  V30 65 1 34 66
M  V30 66 1 35 67
M  V30 67 1 35 68
M  V30 68 1 36 69 CFG=3
M  V30 69 1 39 70
M  V30 70 1 40 71
M  V30 71 1 40 72
M  V30 END BOND
M  V30 END CTAB
M  END
