
     RDKit          3D

  0  0  0  0  0  0  0  0  0  0999 V3000
M  V30 BEGIN CTAB
M  V30 COUNTS 47 51 0 0 0
M  V30 BEGIN ATOM
M  V30 1 N -7.05334 -0.582765 1.90137 0
M  V30 2 C -6.17054 0.194978 1.02854 0
M  V30 3 C -5.94972 -0.599994 -0.238601 0
M  V30 4 C -4.85796 0.0711738 -1.04633 0
M  V30 5 N -3.62562 -0.0453493 -0.291886 0
M  V30 6 C -3.74622 -0.430894 1.11009 0
M  V30 7 C -4.83835 0.429606 1.70965 0
M  V30 8 C -2.37681 0.20826 -0.900006 0
M  V30 9 N -1.22824 0.0437637 -0.22551 0
M  V30 10 C -0.0205935 0.287207 -0.804631 0
M  V30 11 C 0.00565857 0.711465 -2.11367 0
M  V30 12 C 1.24519 0.948252 -2.67397 0
M  V30 13 C 2.41068 0.780489 -1.99306 0
M  V30 14 C 2.37755 0.35585 -0.683545 0
M  V30 15 C 1.15476 0.114548 -0.106388 0
M  V30 16 C 3.63698 0.179971 0.027357 0
M  V30 17 C 3.65421 0.401043 1.38574 0
M  V30 18 C 4.80995 0.253905 2.13956 0
M  V30 19 C 5.98555 -0.127799 1.50608 0
M  V30 20 O 7.20871 -0.349496 1.90663 0
M  V30 21 C 7.99512 -0.695139 0.938374 0
M  V30 22 N 9.39206 -1.01861 0.972435 0
M  V30 23 N 7.25239 -0.705341 -0.179085 0
M  V30 24 C 5.99258 -0.356596 0.135168 0
M  V30 25 C 4.81606 -0.197535 -0.576413 0
M  V30 26 N -1.12795 0.884825 -2.81381 0
M  V30 27 C -2.32105 0.632531 -2.20496 0
M  V30 28 H -6.48112 -1.06564 2.64614 0
M  V30 29 H -7.54985 -1.32823 1.33488 0
M  V30 30 H -6.67533 1.13815 0.75793 0
M  V30 31 H -5.62607 -1.61163 0.0440533 0
M  V30 32 H -6.85706 -0.615482 -0.877856 0
M  V30 33 H -4.70711 -0.45241 -2.02491 0
M  V30 34 H -5.07048 1.14336 -1.18052 0
M  V30 35 H -4.00022 -1.48267 1.25688 0
M  V30 36 H -2.81706 -0.18568 1.67392 0
M  V30 37 H -4.93488 0.2372 2.7879 0
M  V30 38 H -4.60952 1.51877 1.58776 0
M  V30 39 H 1.28943 1.28595 -3.71193 0
M  V30 40 H 3.35976 0.974434 -2.4631 0
M  V30 41 H 1.13402 -0.217695 0.918701 0
M  V30 42 H 2.73531 0.698892 1.87551 0
M  V30 43 H 4.84731 0.421928 3.20574 0
M  V30 44 H 9.82194 -1.56709 1.73788 0
M  V30 45 H 9.97246 -0.676223 0.185051 0
M  V30 46 H 4.79669 -0.367711 -1.63302 0
M  V30 47 H -3.24924 0.76342 -2.74014 0
M  V30 END ATOM
M  V30 BEGIN BOND
M  V30 1 1 1 2
M  V30 2 1 2 3
M  V30 3 1 3 4
M  V30 4 1 4 5
M  V30 5 1 5 6
M  V30 6 1 6 7
M  V30 7 1 5 8
M  V30 8 2 8 9
M  V30 9 1 9 10
M  V30 10 2 10 11
M  V30 11 1 11 12
M  V30 12 2 12 13
M  V30 13 1 13 14
M  V30 14 2 14 15
M  V30 15 1 14 16
M  V30 16 2 16 17
M  V30 17 1 17 18
M  V30 18 2 18 19
M  V30 19 1 19 20
M  V30 20 1 20 21
M  V30 21 1 21 22
M  V30 22 2 21 23
M  V30 23 1 23 24
M  V30 24 2 24 25
M  V30 25 1 11 26
M  V30 26 2 26 27
M  V30 27 1 7 2
M  V30 28 1 27 8
M  V30 29 1 15 10
M  V30 30 1 25 16
M  V30 31 1 24 19
M  V30 32 1 1 28
M  V30 33 1 1 29
M  V30 34 1 2 30
M  V30 35 1 3 31
M  V30 36 1 3 32
M  V30 37 1 4 33
M  V30 38 1 4 34
M  V30 39 1 6 35
M  V30 40 1 6 36
M  V30 41 1 7 37
M  V30 42 1 7 38
M  V30 43 1 12 39
M  V30 44 1 13 40
M  V30 45 1 15 41
M  V30 46 1 17 42
M  V30 47 1 18 43
M  V30 48 1 22 44
M  V30 49 1 22 45
M  V30 50 1 25 46
M  V30 51 1 27 47
M  V30 END BOND
M  V30 END CTAB
M  END
