
     RDKit          3D

  0  0  0  0  0  0  0  0  0  0999 V3000
M  V30 BEGIN CTAB
M  V30 COUNTS 21 21 0 0 0
M  V30 BEGIN ATOM
M  V30 1 Cl 4.60123 -0.912981 0.734154 0
M  V30 2 C 2.91166 -1.2049 0.343047 0
M  V30 3 C 2.08701 0.0145719 0.413452 0
M  V30 4 O 2.60893 1.10275 0.725819 0
M  V30 5 C 0.667247 -0.0205238 0.125037 0
M  V30 6 C -0.00125439 -1.16951 -0.2281 0
M  V30 7 C -1.34907 -1.16682 -0.495011 0
M  V30 8 I -2.3532 -2.94446 -1.03538 0
M  V30 9 C -2.11734 -0.0221168 -0.427768 0
M  V30 10 C -1.463 1.13792 -0.0753136 0
M  V30 11 C -0.110238 1.14297 0.194062 0
M  V30 12 N 0.576077 2.3237 0.556822 0
M  V30 13 N -3.51195 -0.0502055 -0.70993 0
M  V30 14 H 2.52673 -1.96286 1.07005 0
M  V30 15 H 2.82112 -1.60663 -0.683895 0
M  V30 16 H 0.560635 -2.10234 -0.295628 0
M  V30 17 H -2.04115 2.06649 -0.0118162 0
M  V30 18 H 0.576433 2.63112 1.54127 0
M  V30 19 H 1.07898 2.88702 -0.145874 0
M  V30 20 H -3.90835 0.3928 -1.54319 0
M  V30 21 H -4.16049 -0.535997 -0.051796 0
M  V30 END ATOM
M  V30 BEGIN BOND
M  V30 1 1 1 2
M  V30 2 1 2 3
M  V30 3 2 3 4
M  V30 4 1 3 5
M  V30 5 2 5 6
M  V30 6 1 6 7
M  V30 7 1 7 8
M  V30 8 2 7 9
M  V30 9 1 9 10
M  V30 10 2 10 11
M  V30 11 1 11 12
M  V30 12 1 9 13
M  V30 13 1 11 5
M  V30 14 1 2 14
M  V30 15 1 2 15
M  V30 16 1 6 16
M  V30 17 1 10 17
M  V30 18 1 12 18
M  V30 19 1 12 19
M  V30 20 1 13 20
M  V30 21 1 13 21
M  V30 END BOND
M  V30 END CTAB
M  END
