
     RDKit          3D

  0  0  0  0  0  0  0  0  0  0999 V3000
M  V30 BEGIN CTAB
M  V30 COUNTS 35 36 0 0 0
M  V30 BEGIN ATOM
M  V30 1 O -1.93142 -2.22076 -1.45773 0
M  V30 2 C -1.24981 -1.94086 -0.419201 0
M  V30 3 C -0.124596 -2.89096 -0.101589 0
M  V30 4 S 1.33123 -2.53717 -1.01366 0
M  V30 5 C 2.19959 -1.05161 -0.614886 0
M  V30 6 N 1.85198 -0.179915 0.332111 0
M  V30 7 C 2.51002 0.94516 0.646022 0
M  V30 8 N 2.09874 1.84205 1.67013 0
M  V30 9 C 3.65495 1.20555 -0.0963248 0
M  V30 10 C 4.07498 0.337306 -1.10056 0
M  V30 11 N 3.33615 -0.755934 -1.32383 0
M  V30 12 N 5.25722 0.618296 -1.85736 0
M  V30 13 C 0.0512565 -2.89896 1.39854 0
M  V30 14 N -1.49212 -0.833172 0.400208 0
M  V30 15 C -2.48278 0.172242 0.260235 0
M  V30 16 C -3.43405 0.217424 -0.729138 0
M  V30 17 C -4.39787 1.23277 -0.828036 0
M  V30 18 C -4.39949 2.23943 0.109127 0
M  V30 19 C -3.45537 2.20035 1.09651 0
M  V30 20 C -2.51029 1.21542 1.20315 0
M  V30 21 F -1.5816 1.22631 2.21593 0
M  V30 22 Br -5.70206 3.60865 -0.0298354 0
M  V30 23 H -0.473523 -3.93076 -0.365235 0
M  V30 24 H 1.65252 1.56677 2.55713 0
M  V30 25 H 2.2623 2.85964 1.50989 0
M  V30 26 H 4.25687 2.07743 0.0714567 0
M  V30 27 H 5.64066 -0.116706 -2.46027 0
M  V30 28 H 5.70542 1.55145 -1.78612 0
M  V30 29 H 0.572766 -3.81708 1.75593 0
M  V30 30 H 0.635815 -2.02138 1.7412 0
M  V30 31 H -0.955037 -2.81878 1.85413 0
M  V30 32 H -0.861832 -0.748458 1.25499 0
M  V30 33 H -3.46282 -0.54321 -1.46944 0
M  V30 34 H -5.09971 1.17479 -1.64476 0
M  V30 35 H -3.4781 3.01468 1.82964 0
M  V30 END ATOM
M  V30 BEGIN BOND
M  V30 1 2 1 2
M  V30 2 1 2 3
M  V30 3 1 3 4
M  V30 4 1 4 5
M  V30 5 2 5 6
M  V30 6 1 6 7
M  V30 7 1 7 8
M  V30 8 2 7 9
M  V30 9 1 9 10
M  V30 10 2 10 11
M  V30 11 1 10 12
M  V30 12 1 3 13
M  V30 13 1 2 14
M  V30 14 1 14 15
M  V30 15 2 15 16
M  V30 16 1 16 17
M  V30 17 2 17 18
M  V30 18 1 18 19
M  V30 19 2 19 20
M  V30 20 1 20 21
M  V30 21 1 18 22
M  V30 22 1 11 5
M  V30 23 1 20 15
M  V30 24 1 3 23
M  V30 25 1 8 24
M  V30 26 1 8 25
M  V30 27 1 9 26
M  V30 28 1 12 27
M  V30 29 1 12 28
M  V30 30 1 13 29
M  V30 31 1 13 30
M  V30 32 1 13 31
M  V30 33 1 14 32
M  V30 34 1 16 33
M  V30 35 1 17 34
M  V30 36 1 19 35
M  V30 END BOND
M  V30 END CTAB
M  END
