
     RDKit          3D

  0  0  0  0  0  0  0  0  0  0999 V3000
M  V30 BEGIN CTAB
M  V30 COUNTS 27 27 0 0 0
M  V30 BEGIN ATOM
M  V30 1 C 3.44657 0.929551 -0.416188 0
M  V30 2 C 2.99173 -0.4949 -0.390582 0
M  V30 3 C 1.53597 -0.590811 0.0703011 0
M  V30 4 C 0.723838 0.209071 -0.930035 0
M  V30 5 C -0.724474 0.195329 -0.592002 0
M  V30 6 N -1.68073 -0.658657 -0.972498 0
M  V30 7 N -2.83121 -0.284963 -0.429115 0
M  V30 8 C -2.64268 0.827789 0.320703 0
M  V30 9 N -1.32766 1.10131 0.200257 0
M  V30 10 N -3.62936 1.53662 1.06422 0
M  V30 11 C -4.13635 -0.91185 -0.563563 0
M  V30 12 N 3.82494 -1.32339 0.470235 0
M  V30 13 H 4.55848 0.928821 -0.459784 0
M  V30 14 H 3.10265 1.39912 -1.35464 0
M  V30 15 H 3.12767 1.50628 0.480052 0
M  V30 16 H 3.08065 -0.907798 -1.41342 0
M  V30 17 H 1.51002 -0.134112 1.07845 0
M  V30 18 H 1.23622 -1.65639 0.100268 0
M  V30 19 H 1.12148 1.24955 -0.892218 0
M  V30 20 H 0.913448 -0.217542 -1.92555 0
M  V30 21 H -3.66241 2.57821 1.12504 0
M  V30 22 H -4.36971 1.0199 1.58511 0
M  V30 23 H -4.8481 -0.18567 -1.0039 0
M  V30 24 H -4.50629 -1.19228 0.448593 0
M  V30 25 H -4.1136 -1.7852 -1.22224 0
M  V30 26 H 3.94952 -0.887955 1.41175 0
M  V30 27 H 3.34939 -2.25003 0.523956 0
M  V30 END ATOM
M  V30 BEGIN BOND
M  V30 1 1 1 2
M  V30 2 1 2 3
M  V30 3 1 3 4
M  V30 4 1 4 5
M  V30 5 2 5 6
M  V30 6 1 6 7
M  V30 7 1 7 8
M  V30 8 2 8 9
M  V30 9 1 8 10
M  V30 10 1 7 11
M  V30 11 1 2 12
M  V30 12 1 9 5
M  V30 13 1 1 13
M  V30 14 1 1 14
M  V30 15 1 1 15
M  V30 16 1 2 16
M  V30 17 1 3 17
M  V30 18 1 3 18
M  V30 19 1 4 19
M  V30 20 1 4 20
M  V30 21 1 10 21
M  V30 22 1 10 22
M  V30 23 1 11 23
M  V30 24 1 11 24
M  V30 25 1 11 25
M  V30 26 1 12 26
M  V30 27 1 12 27
M  V30 END BOND
M  V30 END CTAB
M  END
