
     RDKit          3D

  0  0  0  0  0  0  0  0  0  0999 V3000
M  V30 BEGIN CTAB
M  V30 COUNTS 36 35 0 0 0
M  V30 BEGIN ATOM
M  V30 1 N -5.84199 -1.06797 -0.242662 0
M  V30 2 C -5.7852 -0.260828 0.955078 0
M  V30 3 C -4.91517 0.945525 0.704432 0
M  V30 4 O -3.59868 0.583859 0.35323 0
M  V30 5 C -2.69928 1.60413 0.0970426 0
M  V30 6 O -3.07068 2.80315 0.182046 0
M  V30 7 C -1.28534 1.36484 -0.282049 0
M  V30 8 C -0.959331 -0.105472 -0.351582 0
M  V30 9 C 0.484949 -0.303278 -0.740882 0
M  V30 10 C 1.43684 0.316014 0.227571 0
M  V30 11 C 2.84812 0.0678535 -0.239241 0
M  V30 12 O 3.01763 -0.576065 -1.29726 0
M  V30 13 O 3.93136 0.50866 0.432438 0
M  V30 14 C 5.28294 0.413495 0.241812 0
M  V30 15 C 5.89907 -0.947723 0.350779 0
M  V30 16 N 5.39838 -1.88595 -0.584351 0
M  V30 17 H -5.11643 -1.81695 -0.180258 0
M  V30 18 H -6.77178 -1.44692 -0.450872 0
M  V30 19 H -6.81953 0.124424 1.12526 0
M  V30 20 H -5.51057 -0.826831 1.84802 0
M  V30 21 H -4.85514 1.56398 1.63298 0
M  V30 22 H -5.36591 1.50655 -0.134056 0
M  V30 23 H -1.14868 1.78272 -1.30068 0
M  V30 24 H -0.666235 1.93279 0.416518 0
M  V30 25 H -1.57255 -0.540897 -1.17034 0
M  V30 26 H -1.15829 -0.631068 0.605638 0
M  V30 27 H 0.62734 0.119092 -1.7561 0
M  V30 28 H 0.659473 -1.38319 -0.818441 0
M  V30 29 H 1.31381 -0.159803 1.22809 0
M  V30 30 H 1.29598 1.40586 0.321307 0
M  V30 31 H 5.52131 0.823307 -0.792522 0
M  V30 32 H 5.79121 1.09714 0.980852 0
M  V30 33 H 7.00764 -0.848526 0.190349 0
M  V30 34 H 5.7607 -1.3019 1.42002 0
M  V30 35 H 6.06672 -2.22553 -1.28801 0
M  V30 36 H 4.79734 -2.63447 -0.177058 0
M  V30 END ATOM
M  V30 BEGIN BOND
M  V30 1 1 1 2
M  V30 2 1 2 3
M  V30 3 1 3 4
M  V30 4 1 4 5
M  V30 5 2 5 6
M  V30 6 1 5 7
M  V30 7 1 7 8
M  V30 8 1 8 9
M  V30 9 1 9 10
M  V30 10 1 10 11
M  V30 11 2 11 12
M  V30 12 1 11 13
M  V30 13 1 13 14
M  V30 14 1 14 15
M  V30 15 1 15 16
M  V30 16 1 1 17
M  V30 17 1 1 18
M  V30 18 1 2 19
M  V30 19 1 2 20
M  V30 20 1 3 21
M  V30 21 1 3 22
M  V30 22 1 7 23
M  V30 23 1 7 24
M  V30 24 1 8 25
M  V30 25 1 8 26
M  V30 26 1 9 27
M  V30 27 1 9 28
M  V30 28 1 10 29
M  V30 29 1 10 30
M  V30 30 1 14 31
M  V30 31 1 14 32
M  V30 32 1 15 33
M  V30 33 1 15 34
M  V30 34 1 16 35
M  V30 35 1 16 36
M  V30 END BOND
M  V30 END CTAB
M  END
