
     RDKit          3D

  0  0  0  0  0  0  0  0  0  0999 V3000
M  V30 BEGIN CTAB
M  V30 COUNTS 36 38 0 0 0
M  V30 BEGIN ATOM
M  V30 1 C 7.57917 -1.26586 -0.449184 0
M  V30 2 O 6.99315 -0.236952 0.313466 0
M  V30 3 C 5.64225 -0.015113 0.394709 0
M  V30 4 C 4.7397 -0.816882 -0.291932 0
M  V30 5 C 3.36834 -0.572083 -0.194172 0
M  V30 6 C 2.83086 0.435551 0.555199 0
M  V30 7 C 3.74884 1.25011 1.25286 0
M  V30 8 C 5.0808 0.994976 1.14437 0
M  V30 9 N 1.53152 0.561338 0.56503 0
M  V30 10 C 0.787911 -0.270064 -0.133932 0
M  V30 11 N -0.648881 -0.319859 -0.270405 0
M  V30 12 C -1.48479 0.600072 0.390294 0
M  V30 13 O -1.01126 1.52151 1.14121 0
M  V30 14 C -2.92519 0.503216 0.216795 0
M  V30 15 C -3.55771 -0.437756 -0.560515 0
M  V30 16 C -4.94464 -0.489189 -0.694955 0
M  V30 17 N -5.55671 -1.47904 -1.50902 0
M  V30 18 C -5.72968 0.436746 -0.02576 0
M  V30 19 N -7.13753 0.426752 -0.129281 0
M  V30 20 C -5.12943 1.39808 0.765251 0
M  V30 21 C -3.76695 1.4112 0.868127 0
M  V30 22 S 1.94833 -1.29138 -0.851652 0
M  V30 23 H 8.62615 -1.00576 -0.734465 0
M  V30 24 H 7.65555 -2.17639 0.212946 0
M  V30 25 H 7.03833 -1.48693 -1.38555 0
M  V30 26 H 5.05201 -1.63869 -0.911673 0
M  V30 27 H 3.42468 2.07327 1.87284 0
M  V30 28 H 5.81219 1.62049 1.68191 0
M  V30 29 H -1.02683 -1.06028 -0.873625 0
M  V30 30 H -2.99752 -1.16536 -1.09023 0
M  V30 31 H -5.7558 -2.45133 -1.20473 0
M  V30 32 H -5.82979 -1.21199 -2.49234 0
M  V30 33 H -7.73007 0.155201 0.684581 0
M  V30 34 H -7.58539 0.691907 -1.0228 0
M  V30 35 H -5.755 2.11902 1.28533 0
M  V30 36 H -3.2866 2.1551 1.4813 0
M  V30 END ATOM
M  V30 BEGIN BOND
M  V30 1 1 1 2
M  V30 2 1 2 3
M  V30 3 2 3 4
M  V30 4 1 4 5
M  V30 5 2 5 6
M  V30 6 1 6 7
M  V30 7 2 7 8
M  V30 8 1 6 9
M  V30 9 2 9 10
M  V30 10 1 10 11
M  V30 11 1 11 12
M  V30 12 2 12 13
M  V30 13 1 12 14
M  V30 14 2 14 15
M  V30 15 1 15 16
M  V30 16 1 16 17
M  V30 17 2 16 18
M  V30 18 1 18 19
M  V30 19 1 18 20
M  V30 20 2 20 21
M  V30 21 1 10 22
M  V30 22 1 8 3
M  V30 23 1 21 14
M  V30 24 1 22 5
M  V30 25 1 1 23
M  V30 26 1 1 24
M  V30 27 1 1 25
M  V30 28 1 4 26
M  V30 29 1 7 27
M  V30 30 1 8 28
M  V30 31 1 11 29
M  V30 32 1 15 30
M  V30 33 1 17 31
M  V30 34 1 17 32
M  V30 35 1 19 33
M  V30 36 1 19 34
M  V30 37 1 20 35
M  V30 38 1 21 36
M  V30 END BOND
M  V30 END CTAB
M  END
