
     RDKit          3D

  0  0  0  0  0  0  0  0  0  0999 V3000
M  V30 BEGIN CTAB
M  V30 COUNTS 35 36 0 0 0
M  V30 BEGIN ATOM
M  V30 1 O -0.0539397 -1.7315 -0.494612 0
M  V30 2 C 0.169779 -1.12687 -1.54921 0
M  V30 3 N 1.24791 -0.290967 -1.83357 0
M  V30 4 C 2.30424 0.0304582 -0.959734 0
M  V30 5 C 3.36202 0.839682 -1.42879 0
M  V30 6 C 4.417 1.20803 -0.672048 0
M  V30 7 C 4.48898 0.787089 0.624634 0
M  V30 8 C 3.49254 -0.0020797 1.14185 0
M  V30 9 C 2.40027 -0.37797 0.343187 0
M  V30 10 Br 3.56547 -0.602613 2.9427 0
M  V30 11 C 5.61546 1.14349 1.53408 0
M  V30 12 C -0.843668 -1.31028 -2.67243 0
M  V30 13 S -1.95993 0.0983202 -2.61309 0
M  V30 14 C -2.95894 -0.00904095 -1.13815 0
M  V30 15 N -2.88608 -0.999776 -0.242246 0
M  V30 16 C -3.62584 -1.09606 0.868374 0
M  V30 17 N -3.5069 -2.17282 1.78764 0
M  V30 18 C -4.53732 -0.0648386 1.08099 0
M  V30 19 C -4.65345 0.971543 0.198535 0
M  V30 20 N -3.87105 0.977663 -0.879835 0
M  V30 21 N -5.58759 2.03418 0.410474 0
M  V30 22 H 1.28309 0.152647 -2.80348 0
M  V30 23 H 3.32153 1.18887 -2.47297 0
M  V30 24 H 5.2052 1.83721 -1.09213 0
M  V30 25 H 1.66032 -0.986959 0.799264 0
M  V30 26 H 6.13505 0.170995 1.75505 0
M  V30 27 H 6.32161 1.84315 1.08639 0
M  V30 28 H 5.18875 1.51155 2.4829 0
M  V30 29 H -1.372 -2.27415 -2.51576 0
M  V30 30 H -0.307585 -1.39069 -3.6395 0
M  V30 31 H -4.29245 -2.37415 2.44077 0
M  V30 32 H -2.66846 -2.78519 1.85087 0
M  V30 33 H -5.15526 -0.086785 1.94957 0
M  V30 34 H -5.93251 2.26814 1.36844 0
M  V30 35 H -5.96627 2.61974 -0.365183 0
M  V30 END ATOM
M  V30 BEGIN BOND
M  V30 1 2 1 2
M  V30 2 1 2 3
M  V30 3 1 3 4
M  V30 4 2 4 5
M  V30 5 1 5 6
M  V30 6 2 6 7
M  V30 7 1 7 8
M  V30 8 2 8 9
M  V30 9 1 8 10
M  V30 10 1 7 11
M  V30 11 1 2 12
M  V30 12 1 12 13
M  V30 13 1 13 14
M  V30 14 2 14 15
M  V30 15 1 15 16
M  V30 16 1 16 17
M  V30 17 2 16 18
M  V30 18 1 18 19
M  V30 19 2 19 20
M  V30 20 1 19 21
M  V30 21 1 9 4
M  V30 22 1 20 14
M  V30 23 1 3 22
M  V30 24 1 5 23
M  V30 25 1 6 24
M  V30 26 1 9 25
M  V30 27 1 11 26
M  V30 28 1 11 27
M  V30 29 1 11 28
M  V30 30 1 12 29
M  V30 31 1 12 30
M  V30 32 1 17 31
M  V30 33 1 17 32
M  V30 34 1 18 33
M  V30 35 1 21 34
M  V30 36 1 21 35
M  V30 END BOND
M  V30 END CTAB
M  END
