
     RDKit          3D

  0  0  0  0  0  0  0  0  0  0999 V3000
M  V30 BEGIN CTAB
M  V30 COUNTS 36 37 0 0 0
M  V30 BEGIN ATOM
M  V30 1 N -4.24174 1.76525 0.648007 0
M  V30 2 C -2.95365 1.33422 0.170461 0
M  V30 3 C -2.80852 -0.146168 0.276934 0
M  V30 4 N -1.55155 -0.643237 -0.182232 0
M  V30 5 C -1.40752 -2.07249 -0.084608 0
M  V30 6 C -0.34764 -2.56629 -1.05819 0
M  V30 7 C 0.506728 -1.3355 -1.40183 0
M  V30 8 C 0.861616 -0.717933 -0.0662604 0 CFG=2
M  V30 9 C -0.406267 0.0156101 0.37723 0
M  V30 10 C 2.01644 0.173834 -0.12554 0
M  V30 11 C 2.64789 0.582862 -1.27176 0
M  V30 12 C 3.72137 1.43488 -1.19962 0
M  V30 13 C 4.17613 1.88726 0.0108847 0
M  V30 14 N 3.5712 1.49698 1.13303 0
M  V30 15 C 2.51826 0.662096 1.07286 0
M  V30 16 N 1.94689 0.301366 2.33535 0
M  V30 17 H -4.90531 1.74459 -0.146418 0
M  V30 18 H -4.17789 2.70539 1.02519 0
M  V30 19 H -2.18958 1.84543 0.809547 0
M  V30 20 H -2.85511 1.72588 -0.859799 0
M  V30 21 H -3.0339 -0.437891 1.31835 0
M  V30 22 H -3.60211 -0.620405 -0.369043 0
M  V30 23 H -2.36292 -2.60986 -0.302112 0
M  V30 24 H -1.1108 -2.32982 0.967133 0
M  V30 25 H 0.322999 -3.24601 -0.499479 0
M  V30 26 H -0.757259 -3.03455 -1.95011 0
M  V30 27 H 1.36464 -1.6095 -2.01235 0
M  V30 28 H -0.182619 -0.65552 -1.94741 0
M  V30 29 H 1.05838 -1.53295 0.653245 0
M  V30 30 H -0.451554 -0.0349203 1.45953 0
M  V30 31 H -0.318065 1.03289 -0.0601422 0
M  V30 32 H 2.261 0.204937 -2.21949 0
M  V30 33 H 4.19589 1.73604 -2.14495 0
M  V30 34 H 5.03401 2.56475 0.0215778 0
M  V30 35 H 1.84228 -0.683055 2.65867 0
M  V30 36 H 1.61828 1.06185 2.96334 0
M  V30 END ATOM
M  V30 BEGIN BOND
M  V30 1 1 1 2
M  V30 2 1 2 3
M  V30 3 1 3 4
M  V30 4 1 4 5
M  V30 5 1 5 6
M  V30 6 1 6 7
M  V30 7 1 7 8
M  V30 8 1 8 9
M  V30 9 1 8 10
M  V30 10 2 10 11
M  V30 11 1 11 12
M  V30 12 2 12 13
M  V30 13 1 13 14
M  V30 14 2 14 15
M  V30 15 1 15 16
M  V30 16 1 9 4
M  V30 17 1 15 10
M  V30 18 1 1 17
M  V30 19 1 1 18
M  V30 20 1 2 19
M  V30 21 1 2 20
M  V30 22 1 3 21
M  V30 23 1 3 22
M  V30 24 1 5 23
M  V30 25 1 5 24
M  V30 26 1 6 25
M  V30 27 1 6 26
M  V30 28 1 7 27
M  V30 29 1 7 28
M  V30 30 1 8 29 CFG=1
M  V30 31 1 9 30
M  V30 32 1 9 31
M  V30 33 1 11 32
M  V30 34 1 12 33
M  V30 35 1 13 34
M  V30 36 1 16 35
M  V30 37 1 16 36
M  V30 END BOND
M  V30 END CTAB
M  END
