
     RDKit          3D

  0  0  0  0  0  0  0  0  0  0999 V3000
M  V30 BEGIN CTAB
M  V30 COUNTS 43 45 0 0 0
M  V30 BEGIN ATOM
M  V30 1 C -5.3909 0.0624088 -1.50658 0
M  V30 2 C -3.86403 0.0740437 -1.4214 0
M  V30 3 N -3.43349 -0.338631 -0.124496 0
M  V30 4 C -2.09352 -0.432752 0.307587 0
M  V30 5 C -1.37981 -1.58086 0.179841 0
M  V30 6 C -1.99053 -2.78817 -0.427466 0
M  V30 7 C -0.0590318 -1.61153 0.637718 0
M  V30 8 C 0.569148 -0.513041 1.22142 0
M  V30 9 C 1.97108 -0.528079 1.60743 0
M  V30 10 C 2.97156 -0.0573561 0.595568 0
M  V30 11 C 3.4211 -0.871486 -0.449299 0
M  V30 12 N 2.9728 -2.21516 -0.52084 0
M  V30 13 N 4.30264 -0.400237 -1.3461 0
M  V30 14 C 4.81586 0.829112 -1.33404 0
M  V30 15 N 5.74437 1.30868 -2.29228 0
M  V30 16 N 4.39163 1.62108 -0.327873 0
M  V30 17 C 3.51586 1.22177 0.602578 0
M  V30 18 C -0.222289 0.631493 1.32676 0
M  V30 19 C 0.243803 1.77458 1.93312 0
M  V30 20 C -0.527116 2.90622 2.08331 0
M  V30 21 C -1.81121 2.9014 1.61455 0
M  V30 22 N -2.28686 1.80729 1.02886 0
M  V30 23 C -1.53289 0.703951 0.88555 0
M  V30 24 H -5.68099 0.666603 -2.37061 0
M  V30 25 H -5.78588 -0.979626 -1.57686 0
M  V30 26 H -5.81938 0.472433 -0.550396 0
M  V30 27 H -3.46862 -0.596049 -2.1911 0
M  V30 28 H -3.5462 1.13298 -1.57449 0
M  V30 29 H -4.15953 -0.597585 0.586532 0
M  V30 30 H -1.2156 -3.60473 -0.506543 0
M  V30 31 H -2.90056 -3.11392 0.101499 0
M  V30 32 H -2.22967 -2.50892 -1.49222 0
M  V30 33 H 0.431829 -2.56567 0.545299 0
M  V30 34 H 2.2558 -1.61892 1.75608 0
M  V30 35 H 2.18162 -0.0930858 2.60701 0
M  V30 36 H 3.11063 -2.92558 0.231054 0
M  V30 37 H 2.47519 -2.51677 -1.37607 0
M  V30 38 H 6.76744 1.12002 -2.24273 0
M  V30 39 H 5.37464 1.88134 -3.08395 0
M  V30 40 H 3.25543 1.91271 1.37382 0
M  V30 41 H 1.20737 1.79525 2.34558 0
M  V30 42 H -0.16421 3.81806 2.56221 0
M  V30 43 H -2.41748 3.81672 1.73814 0
M  V30 END ATOM
M  V30 BEGIN BOND
M  V30 1 1 1 2
M  V30 2 1 2 3
M  V30 3 1 3 4
M  V30 4 2 4 5
M  V30 5 1 5 6
M  V30 6 1 5 7
M  V30 7 2 7 8
M  V30 8 1 8 9
M  V30 9 1 9 10
M  V30 10 2 10 11
M  V30 11 1 11 12
M  V30 12 1 11 13
M  V30 13 2 13 14
M  V30 14 1 14 15
M  V30 15 1 14 16
M  V30 16 2 16 17
M  V30 17 1 8 18
M  V30 18 2 18 19
M  V30 19 1 19 20
M  V30 20 2 20 21
M  V30 21 1 21 22
M  V30 22 2 22 23
M  V30 23 1 23 4
M  V30 24 1 17 10
M  V30 25 1 23 18
M  V30 26 1 1 24
M  V30 27 1 1 25
M  V30 28 1 1 26
M  V30 29 1 2 27
M  V30 30 1 2 28
M  V30 31 1 3 29
M  V30 32 1 6 30
M  V30 33 1 6 31
M  V30 34 1 6 32
M  V30 35 1 7 33
M  V30 36 1 9 34
M  V30 37 1 9 35
M  V30 38 1 12 36
M  V30 39 1 12 37
M  V30 40 1 15 38
M  V30 41 1 15 39
M  V30 42 1 17 40
M  V30 43 1 19 41
M  V30 44 1 20 42
M  V30 45 1 21 43
M  V30 END BOND
M  V30 END CTAB
M  END
