
     RDKit          3D

  0  0  0  0  0  0  0  0  0  0999 V3000
M  V30 BEGIN CTAB
M  V30 COUNTS 32 34 0 0 0
M  V30 BEGIN ATOM
M  V30 1 N 5.64951 2.06255 0.135733 0
M  V30 2 C 4.87392 0.933256 -0.275043 0
M  V30 3 N 3.55622 1.02316 -0.535405 0
M  V30 4 C 2.88128 -0.0659375 -0.916075 0
M  V30 5 S 1.11103 -0.0153819 -1.28125 0
M  V30 6 C 0.262378 -0.350566 0.270725 0
M  V30 7 C -1.20338 -0.344103 0.139013 0
M  V30 8 C -1.8114 -1.544 -0.167536 0
M  V30 9 N -3.16758 -1.61981 -0.306624 0
M  V30 10 C -3.95317 -0.543497 -0.152568 0
M  V30 11 C -3.38476 0.665616 0.152317 0
M  V30 12 C -2.01009 0.756484 0.296236 0
M  V30 13 C -4.21768 1.75423 0.30464 0
M  V30 14 C -5.58824 1.66187 0.160761 0
M  V30 15 C -6.156 0.441654 -0.146396 0
M  V30 16 C -5.31299 -0.663851 -0.301337 0
M  V30 17 N 3.56407 -1.22645 -1.02384 0
M  V30 18 C 4.87188 -1.33322 -0.769251 0
M  V30 19 N 5.54941 -0.242103 -0.387593 0
M  V30 20 N 5.55494 -2.55529 -0.890358 0
M  V30 21 H 6.05591 2.73979 -0.532051 0
M  V30 22 H 5.83752 2.24684 1.15955 0
M  V30 23 H 0.513849 0.420358 1.05515 0
M  V30 24 H 0.603752 -1.35171 0.628111 0
M  V30 25 H -1.22407 -2.44304 -0.30245 0
M  V30 26 H -1.55716 1.68767 0.53243 0
M  V30 27 H -3.75259 2.70639 0.54633 0
M  V30 28 H -6.21966 2.53212 0.285648 0
M  V30 29 H -7.23309 0.323336 -0.269038 0
M  V30 30 H -5.70559 -1.64754 -0.543024 0
M  V30 31 H 5.85841 -3.07487 -0.0543743 0
M  V30 32 H 5.75335 -2.93397 -1.82797 0
M  V30 END ATOM
M  V30 BEGIN BOND
M  V30 1 1 1 2
M  V30 2 2 2 3
M  V30 3 1 3 4
M  V30 4 1 4 5
M  V30 5 1 5 6
M  V30 6 1 6 7
M  V30 7 2 7 8
M  V30 8 1 8 9
M  V30 9 2 9 10
M  V30 10 1 10 11
M  V30 11 2 11 12
M  V30 12 1 11 13
M  V30 13 2 13 14
M  V30 14 1 14 15
M  V30 15 2 15 16
M  V30 16 2 4 17
M  V30 17 1 17 18
M  V30 18 2 18 19
M  V30 19 1 18 20
M  V30 20 1 19 2
M  V30 21 1 12 7
M  V30 22 1 16 10
M  V30 23 1 1 21
M  V30 24 1 1 22
M  V30 25 1 6 23
M  V30 26 1 6 24
M  V30 27 1 8 25
M  V30 28 1 12 26
M  V30 29 1 13 27
M  V30 30 1 14 28
M  V30 31 1 15 29
M  V30 32 1 16 30
M  V30 33 1 20 31
M  V30 34 1 20 32
M  V30 END BOND
M  V30 END CTAB
M  END
