
     RDKit          3D

  0  0  0  0  0  0  0  0  0  0999 V3000
M  V30 BEGIN CTAB
M  V30 COUNTS 41 42 0 0 0
M  V30 BEGIN ATOM
M  V30 1 O 1.71047 -1.5486 -0.592316 0
M  V30 2 C 1.41841 -0.487613 -0.00380564 0
M  V30 3 C 1.88487 0.826281 -0.404169 0
M  V30 4 C 2.8682 0.956643 -1.50086 0
M  V30 5 C 4.18633 0.277592 -1.17057 0
M  V30 6 C 4.51473 -0.980279 -1.60324 0
M  V30 7 S 6.05672 -1.20693 -0.906928 0
M  V30 8 C 6.20401 0.294175 -0.110579 0
M  V30 9 N 5.06958 0.885987 -0.418489 0
M  V30 10 N 7.29509 0.792933 0.697485 0
M  V30 11 N 0.555247 -0.550452 1.1622 0
M  V30 12 C 0.0215328 -1.76622 1.6677 0
M  V30 13 C -0.889439 -2.51182 0.739599 0
M  V30 14 C -2.06201 -1.69163 0.413972 0
M  V30 15 C -2.09598 -0.914505 -0.709886 0
M  V30 16 C -3.23391 -0.142389 -0.963881 0
M  V30 17 C -4.33314 -0.120908 -0.137818 0
M  V30 18 C -4.27023 -0.91646 0.989776 0
M  V30 19 C -3.16023 -1.68584 1.26197 0
M  V30 20 S -5.73888 0.866924 -0.501863 0
M  V30 21 O -6.93423 0.182952 0.0810607 0
M  V30 22 O -5.86655 0.919328 -1.99872 0
M  V30 23 N -5.59199 2.4232 0.189332 0
M  V30 24 H 1.01535 1.54455 -0.563663 0
M  V30 25 H 2.37204 1.27301 0.533895 0
M  V30 26 H 3.04813 2.03916 -1.67157 0
M  V30 27 H 2.51946 0.539726 -2.466 0
M  V30 28 H 3.92447 -1.64969 -2.25209 0
M  V30 29 H 7.31684 1.81391 0.8566 0
M  V30 30 H 7.96848 0.092678 1.05362 0
M  V30 31 H 0.322457 0.354977 1.64534 0
M  V30 32 H 0.811947 -2.4891 1.98767 0
M  V30 33 H -0.571364 -1.55619 2.60382 0
M  V30 34 H -0.354835 -2.76148 -0.218855 0
M  V30 35 H -1.18172 -3.50203 1.16668 0
M  V30 36 H -1.28039 -0.87686 -1.42231 0
M  V30 37 H -3.27646 0.488954 -1.86451 0
M  V30 38 H -5.13659 -0.898744 1.63929 0
M  V30 39 H -3.13416 -2.30644 2.15953 0
M  V30 40 H -5.87754 3.19253 -0.454277 0
M  V30 41 H -6.0947 2.44369 1.08685 0
M  V30 END ATOM
M  V30 BEGIN BOND
M  V30 1 2 1 2
M  V30 2 1 2 3
M  V30 3 1 3 4
M  V30 4 1 4 5
M  V30 5 2 5 6
M  V30 6 1 6 7
M  V30 7 1 7 8
M  V30 8 2 8 9
M  V30 9 1 8 10
M  V30 10 1 2 11
M  V30 11 1 11 12
M  V30 12 1 12 13
M  V30 13 1 13 14
M  V30 14 2 14 15
M  V30 15 1 15 16
M  V30 16 2 16 17
M  V30 17 1 17 18
M  V30 18 2 18 19
M  V30 19 1 17 20
M  V30 20 2 20 21
M  V30 21 2 20 22
M  V30 22 1 20 23
M  V30 23 1 9 5
M  V30 24 1 19 14
M  V30 25 1 3 24
M  V30 26 1 3 25
M  V30 27 1 4 26
M  V30 28 1 4 27
M  V30 29 1 6 28
M  V30 30 1 10 29
M  V30 31 1 10 30
M  V30 32 1 11 31
M  V30 33 1 12 32
M  V30 34 1 12 33
M  V30 35 1 13 34
M  V30 36 1 13 35
M  V30 37 1 15 36
M  V30 38 1 16 37
M  V30 39 1 18 38
M  V30 40 1 19 39
M  V30 41 1 23 40
M  V30 42 1 23 41
M  V30 END BOND
M  V30 END CTAB
M  END
