
     RDKit          3D

  0  0  0  0  0  0  0  0  0  0999 V3000
M  V30 BEGIN CTAB
M  V30 COUNTS 34 35 0 0 0
M  V30 BEGIN ATOM
M  V30 1 N -1.31241 0.534903 -3.91002 0
M  V30 2 N -1.1464 0.277963 -2.50242 0
M  V30 3 C -2.22953 -0.106032 -1.71672 0
M  V30 4 O -3.35565 -0.205208 -2.34927 0
M  V30 5 C -2.20477 -0.394333 -0.300391 0
M  V30 6 C -3.43468 -0.764766 0.300237 0
M  V30 7 C -3.56837 -1.06318 1.62518 0
M  V30 8 N -4.83859 -1.43542 2.19513 0
M  V30 9 C -2.43799 -0.996006 2.40636 0
M  V30 10 C -1.23311 -0.636999 1.83642 0
M  V30 11 C -1.08953 -0.330273 0.480898 0
M  V30 12 O 0.172775 0.0254735 -0.0202777 0
M  V30 13 C 1.23737 0.0621712 0.86259 0
M  V30 14 C 2.54246 0.422228 0.327346 0
M  V30 15 C 2.7639 0.717934 -0.981367 0
M  V30 16 C 4.02594 1.06192 -1.48178 0
M  V30 17 C 5.07346 1.09736 -0.599941 0
M  V30 18 C 4.90724 0.807065 0.736732 0
M  V30 19 C 3.65299 0.478732 1.16392 0
M  V30 20 Cl 3.40394 0.102533 2.86184 0
M  V30 21 Cl 6.66764 1.52499 -1.19612 0
M  V30 22 H -1.53352 1.54286 -4.0269 0
M  V30 23 H -2.15452 -0.0180237 -4.18535 0
M  V30 24 H -0.208188 0.401703 -2.16834 0
M  V30 25 H -4.34371 -0.822439 -0.310386 0
M  V30 26 H -5.17295 -2.4155 2.22702 0
M  V30 27 H -5.42225 -0.688839 2.57993 0
M  V30 28 H -2.52709 -1.23007 3.46126 0
M  V30 29 H -0.326214 -0.583393 2.45259 0
M  V30 30 H 1.30843 -0.958744 1.33878 0
M  V30 31 H 0.927248 0.766165 1.69703 0
M  V30 32 H 1.96089 0.695749 -1.68627 0
M  V30 33 H 4.15809 1.29353 -2.5488 0
M  V30 34 H 5.73708 0.835937 1.43107 0
M  V30 END ATOM
M  V30 BEGIN BOND
M  V30 1 1 1 2
M  V30 2 1 2 3
M  V30 3 2 3 4
M  V30 4 1 3 5
M  V30 5 2 5 6
M  V30 6 1 6 7
M  V30 7 1 7 8
M  V30 8 2 7 9
M  V30 9 1 9 10
M  V30 10 2 10 11
M  V30 11 1 11 12
M  V30 12 1 12 13
M  V30 13 1 13 14
M  V30 14 2 14 15
M  V30 15 1 15 16
M  V30 16 2 16 17
M  V30 17 1 17 18
M  V30 18 2 18 19
M  V30 19 1 19 20
M  V30 20 1 17 21
M  V30 21 1 11 5
M  V30 22 1 19 14
M  V30 23 1 1 22
M  V30 24 1 1 23
M  V30 25 1 2 24
M  V30 26 1 6 25
M  V30 27 1 8 26
M  V30 28 1 8 27
M  V30 29 1 9 28
M  V30 30 1 10 29
M  V30 31 1 13 30
M  V30 32 1 13 31
M  V30 33 1 15 32
M  V30 34 1 16 33
M  V30 35 1 18 34
M  V30 END BOND
M  V30 END CTAB
M  END
