
     RDKit          3D

  0  0  0  0  0  0  0  0  0  0999 V3000
M  V30 BEGIN CTAB
M  V30 COUNTS 35 37 0 0 0
M  V30 BEGIN ATOM
M  V30 1 N 4.2362 -0.999856 -1.80145 0
M  V30 2 C 3.236 -0.436766 -0.956288 0
M  V30 3 N 3.04474 0.865003 -0.723796 0
M  V30 4 N 2.01605 1.00985 0.119646 0
M  V30 5 C 1.52144 -0.184322 0.450258 0
M  V30 6 C 2.2939 -1.11113 -0.231709 0
M  V30 7 C 0.387297 -0.42157 1.35832 0 CFG=2
M  V30 8 C -0.112136 -1.85192 1.26382 0
M  V30 9 C -0.828034 -2.1317 -0.0229727 0
M  V30 10 C -1.37745 -0.967349 -0.717496 0
M  V30 11 C -1.33311 0.330965 -0.193129 0
M  V30 12 N -0.720749 0.50308 1.09389 0
M  V30 13 S -1.275 1.6803 2.19541 0
M  V30 14 O -2.55232 2.33338 1.84746 0
M  V30 15 O -1.57365 0.90311 3.4959 0
M  V30 16 N -0.111757 2.87007 2.61355 0
M  V30 17 C -1.84644 1.42666 -0.839039 0
M  V30 18 C -2.44321 1.23197 -2.08279 0
M  V30 19 C -2.48351 -0.0519967 -2.59405 0
M  V30 20 C -1.96856 -1.15528 -1.94821 0
M  V30 21 H 4.06451 -1.14137 -2.8336 0
M  V30 22 H 5.17168 -1.29605 -1.45274 0
M  V30 23 H 1.72443 1.96555 0.411565 0
M  V30 24 H 2.14421 -2.16336 -0.172751 0
M  V30 25 H 0.715918 -0.255138 2.39403 0
M  V30 26 H -0.741085 -2.09663 2.14139 0
M  V30 27 H 0.783964 -2.50298 1.30607 0
M  V30 28 H -1.69052 -2.82099 0.205567 0
M  V30 29 H -0.182352 -2.72075 -0.726272 0
M  V30 30 H -0.460866 3.35116 3.47597 0
M  V30 31 H -0.00913243 3.62041 1.89506 0
M  V30 32 H -1.7667 2.39739 -0.365343 0
M  V30 33 H -2.84586 2.09346 -2.58813 0
M  V30 34 H -2.95812 -0.165489 -3.56937 0
M  V30 35 H -2.05973 -2.10774 -2.44874 0
M  V30 END ATOM
M  V30 BEGIN BOND
M  V30 1 1 1 2
M  V30 2 2 2 3
M  V30 3 1 3 4
M  V30 4 1 4 5
M  V30 5 2 5 6
M  V30 6 1 5 7
M  V30 7 1 7 8
M  V30 8 1 8 9
M  V30 9 1 9 10
M  V30 10 2 10 11
M  V30 11 1 11 12
M  V30 12 1 12 13
M  V30 13 2 13 14
M  V30 14 2 13 15
M  V30 15 1 13 16
M  V30 16 1 11 17
M  V30 17 2 17 18
M  V30 18 1 18 19
M  V30 19 2 19 20
M  V30 20 1 6 2
M  V30 21 1 12 7
M  V30 22 1 20 10
M  V30 23 1 1 21
M  V30 24 1 1 22
M  V30 25 1 4 23
M  V30 26 1 6 24
M  V30 27 1 7 25 CFG=1
M  V30 28 1 8 26
M  V30 29 1 8 27
M  V30 30 1 9 28
M  V30 31 1 9 29
M  V30 32 1 16 30
M  V30 33 1 16 31
M  V30 34 1 17 32
M  V30 35 1 18 33
M  V30 36 1 19 34
M  V30 37 1 20 35
M  V30 END BOND
M  V30 END CTAB
M  END
