
     RDKit          3D

  0  0  0  0  0  0  0  0  0  0999 V3000
M  V30 BEGIN CTAB
M  V30 COUNTS 43 45 0 0 0
M  V30 BEGIN ATOM
M  V30 1 N -3.19613 1.73634 -1.13479 0
M  V30 2 C -3.46415 0.795649 -0.0757425 0
M  V30 3 C -4.20801 -0.404757 -0.642857 0
M  V30 4 C -4.47582 -1.45461 0.384798 0
M  V30 5 C -3.2345 -1.74633 1.24477 0
M  V30 6 C -2.08975 -1.11324 0.54579 0
M  V30 7 C -2.25165 0.410086 0.700394 0
M  V30 8 C -0.943604 0.828964 0.0690912 0
M  V30 9 N -0.0103329 -0.167183 0.557868 0
M  V30 10 C -0.739734 -1.29545 1.14884 0
M  V30 11 C 1.40517 -0.0989705 0.4769 0
M  V30 12 C 2.0647 -0.924524 -0.45187 0
M  V30 13 C 3.40661 -0.924317 -0.659309 0
M  V30 14 C 4.18096 -0.0709037 0.075274 0
M  V30 15 C 3.59727 0.756688 0.995894 0
M  V30 16 C 2.20206 0.744232 1.20073 0
M  V30 17 N 1.66139 1.61224 2.17749 0 CHG=1
M  V30 18 O 2.26001 2.6822 2.4026 0
M  V30 19 O 0.526422 1.28614 2.84582 0 CHG=-1
M  V30 20 S 5.93737 -0.00532307 -0.132284 0
M  V30 21 O 6.6147 0.322402 1.17279 0
M  V30 22 O 6.41235 -1.38559 -0.531452 0
M  V30 23 N 6.3252 1.13509 -1.3487 0
M  V30 24 H -3.04775 2.67189 -0.6895 0
M  V30 25 H -4.07593 1.82637 -1.69194 0
M  V30 26 H -4.16817 1.29039 0.630175 0
M  V30 27 H -3.68366 -0.810676 -1.55477 0
M  V30 28 H -5.17861 -0.0316205 -1.01236 0
M  V30 29 H -4.68314 -2.40954 -0.177083 0
M  V30 30 H -5.35427 -1.21948 0.983717 0
M  V30 31 H -3.12979 -2.83769 1.3953 0
M  V30 32 H -3.37045 -1.24943 2.23061 0
M  V30 33 H -2.01335 -1.37404 -0.527642 0
M  V30 34 H -2.25799 0.668427 1.75811 0
M  V30 35 H -1.09168 0.735897 -1.03467 0
M  V30 36 H -0.615498 1.82834 0.357286 0
M  V30 37 H -0.758579 -1.19902 2.23339 0
M  V30 38 H -0.305027 -2.26379 0.801192 0
M  V30 39 H 1.43622 -1.59877 -1.03047 0
M  V30 40 H 3.89155 -1.56933 -1.37961 0
M  V30 41 H 4.17433 1.45217 1.60214 0
M  V30 42 H 5.46623 1.39955 -1.84771 0
M  V30 43 H 6.78503 1.97152 -0.925986 0
M  V30 END ATOM
M  V30 BEGIN BOND
M  V30 1 1 1 2
M  V30 2 1 2 3
M  V30 3 1 3 4
M  V30 4 1 4 5
M  V30 5 1 5 6
M  V30 6 1 6 7
M  V30 7 1 7 8
M  V30 8 1 8 9
M  V30 9 1 9 10
M  V30 10 1 9 11
M  V30 11 2 11 12
M  V30 12 1 12 13
M  V30 13 2 13 14
M  V30 14 1 14 15
M  V30 15 2 15 16
M  V30 16 1 16 17
M  V30 17 2 17 18
M  V30 18 1 17 19
M  V30 19 1 14 20
M  V30 20 2 20 21
M  V30 21 2 20 22
M  V30 22 1 20 23
M  V30 23 1 7 2
M  V30 24 1 16 11
M  V30 25 1 10 6
M  V30 26 1 1 24
M  V30 27 1 1 25
M  V30 28 1 2 26
M  V30 29 1 3 27
M  V30 30 1 3 28
M  V30 31 1 4 29
M  V30 32 1 4 30
M  V30 33 1 5 31
M  V30 34 1 5 32
M  V30 35 1 6 33
M  V30 36 1 7 34
M  V30 37 1 8 35
M  V30 38 1 8 36
M  V30 39 1 10 37
M  V30 40 1 10 38
M  V30 41 1 12 39
M  V30 42 1 13 40
M  V30 43 1 15 41
M  V30 44 1 23 42
M  V30 45 1 23 43
M  V30 END BOND
M  V30 END CTAB
M  END
