
     RDKit          3D

  0  0  0  0  0  0  0  0  0  0999 V3000
M  V30 BEGIN CTAB
M  V30 COUNTS 35 37 0 0 0
M  V30 BEGIN ATOM
M  V30 1 C -3.7205 1.36623 -2.39584 0
M  V30 2 S -3.27452 -0.350235 -2.03359 0
M  V30 3 C -2.72773 -0.540224 -0.344267 0
M  V30 4 C -3.65204 -0.82271 0.631338 0
M  V30 5 C -5.04807 -0.957814 0.263478 0
M  V30 6 N -6.16507 -1.05092 -0.0453018 0
M  V30 7 C -3.35026 -0.990954 1.96282 0
M  V30 8 N -4.33955 -1.2853 2.93864 0
M  V30 9 N -2.05228 -0.858683 2.26939 0
M  V30 10 C -1.09591 -0.576688 1.32457 0
M  V30 11 C -1.36263 -0.404778 -0.000478998 0
M  V30 12 C -0.306426 -0.132833 -0.812456 0
M  V30 13 N -0.428668 0.0764753 -2.25488 0
M  V30 14 C 0.927136 -0.056333 -0.225319 0
M  V30 15 S 0.595059 -0.358793 1.4122 0
M  V30 16 C 2.19273 0.245922 -0.884687 0
M  V30 17 O 2.20134 0.502868 -2.14456 0
M  V30 18 C 3.43251 0.263617 -0.140607 0
M  V30 19 C 4.4181 1.16052 -0.568036 0
M  V30 20 C 5.60934 1.17664 0.0990844 0
M  V30 21 C 5.87273 0.356584 1.15938 0
M  V30 22 C 4.91641 -0.521818 1.58244 0
M  V30 23 C 3.68301 -0.56588 0.921254 0
M  V30 24 H -4.78983 1.59096 -2.21597 0
M  V30 25 H -3.09948 2.08285 -1.81589 0
M  V30 26 H -3.51311 1.5862 -3.46864 0
M  V30 27 H -4.7348 -2.27017 3.00921 0
M  V30 28 H -4.72732 -0.610726 3.6122 0
M  V30 29 H -0.534009 -0.728709 -2.90582 0
M  V30 30 H -0.409366 1.04626 -2.63309 0
M  V30 31 H 4.19476 1.79951 -1.4056 0
M  V30 32 H 6.35899 1.87771 -0.246454 0
M  V30 33 H 6.83833 0.411823 1.65532 0
M  V30 34 H 5.12021 -1.16895 2.41792 0
M  V30 35 H 2.97091 -1.29167 1.28222 0
M  V30 END ATOM
M  V30 BEGIN BOND
M  V30 1 1 1 2
M  V30 2 1 2 3
M  V30 3 2 3 4
M  V30 4 1 4 5
M  V30 5 3 5 6
M  V30 6 1 4 7
M  V30 7 1 7 8
M  V30 8 2 7 9
M  V30 9 1 9 10
M  V30 10 2 10 11
M  V30 11 1 11 12
M  V30 12 1 12 13
M  V30 13 2 12 14
M  V30 14 1 14 15
M  V30 15 1 14 16
M  V30 16 2 16 17
M  V30 17 1 16 18
M  V30 18 2 18 19
M  V30 19 1 19 20
M  V30 20 2 20 21
M  V30 21 1 21 22
M  V30 22 2 22 23
M  V30 23 1 11 3
M  V30 24 1 23 18
M  V30 25 1 15 10
M  V30 26 1 1 24
M  V30 27 1 1 25
M  V30 28 1 1 26
M  V30 29 1 8 27
M  V30 30 1 8 28
M  V30 31 1 13 29
M  V30 32 1 13 30
M  V30 33 1 19 31
M  V30 34 1 20 32
M  V30 35 1 21 33
M  V30 36 1 22 34
M  V30 37 1 23 35
M  V30 END BOND
M  V30 END CTAB
M  END
