
     RDKit          3D

  0  0  0  0  0  0  0  0  0  0999 V3000
M  V30 BEGIN CTAB
M  V30 COUNTS 39 40 0 0 0
M  V30 BEGIN ATOM
M  V30 1 N 6.62559 -0.667253 1.12789 0
M  V30 2 C 5.47383 -0.22876 0.402209 0
M  V30 3 C 4.64787 0.686081 0.999808 0
M  V30 4 C 3.52114 1.12687 0.311944 0
M  V30 5 C 3.21465 0.671606 -0.946178 0
M  V30 6 C 4.05214 -0.243854 -1.52949 0
M  V30 7 C 5.19344 -0.703567 -0.857354 0
M  V30 8 S 1.79691 1.25437 -1.75959 0
M  V30 9 O 1.5196 2.6765 -1.29405 0
M  V30 10 O 2.02379 1.3209 -3.24883 0
M  V30 11 N 0.435806 0.258224 -1.4004 0
M  V30 12 C 0.0112169 0.159869 -0.0497014 0
M  V30 13 N 0.215773 -0.932288 0.587945 0
M  V30 14 N -0.6315 1.23123 0.615284 0
M  V30 15 S -1.92484 0.977721 1.7417 0
M  V30 16 O -1.45703 0.0934777 2.87944 0
M  V30 17 O -2.36427 2.26986 2.35351 0
M  V30 18 C -3.27995 0.21411 0.952571 0
M  V30 19 C -4.29274 0.933384 0.351341 0
M  V30 20 C -5.37092 0.347571 -0.276691 0
M  V30 21 C -5.44818 -1.02908 -0.309834 0
M  V30 22 N -6.56265 -1.62903 -0.95907 0
M  V30 23 C -4.44091 -1.76703 0.288321 0
M  V30 24 C -3.368 -1.1523 0.912999 0
M  V30 25 H 7.13842 0.0396823 1.68623 0
M  V30 26 H 6.91418 -1.65677 1.08041 0
M  V30 27 H 4.87689 1.05714 1.99742 0
M  V30 28 H 2.88462 1.85773 0.820662 0
M  V30 29 H 3.85073 -0.63353 -2.52478 0
M  V30 30 H 5.86722 -1.42162 -1.29221 0
M  V30 31 H -0.0474248 -0.249684 -2.17257 0
M  V30 32 H 0.685932 -1.72497 0.111632 0
M  V30 33 H -0.320243 2.2003 0.423958 0
M  V30 34 H -4.23596 2.01008 0.375108 0
M  V30 35 H -6.15042 0.940075 -0.739768 0
M  V30 36 H -7.16765 -2.30803 -0.450312 0
M  V30 37 H -6.73088 -1.35143 -1.95449 0
M  V30 38 H -4.54557 -2.84749 0.236463 0
M  V30 39 H -2.61062 -1.78008 1.36341 0
M  V30 END ATOM
M  V30 BEGIN BOND
M  V30 1 1 1 2
M  V30 2 2 2 3
M  V30 3 1 3 4
M  V30 4 2 4 5
M  V30 5 1 5 6
M  V30 6 2 6 7
M  V30 7 1 5 8
M  V30 8 2 8 9
M  V30 9 2 8 10
M  V30 10 1 8 11
M  V30 11 1 11 12
M  V30 12 2 12 13 CFG=2
M  V30 13 1 12 14
M  V30 14 1 14 15
M  V30 15 2 15 16
M  V30 16 2 15 17
M  V30 17 1 15 18
M  V30 18 2 18 19
M  V30 19 1 19 20
M  V30 20 2 20 21
M  V30 21 1 21 22
M  V30 22 1 21 23
M  V30 23 2 23 24
M  V30 24 1 7 2
M  V30 25 1 24 18
M  V30 26 1 1 25
M  V30 27 1 1 26
M  V30 28 1 3 27
M  V30 29 1 4 28
M  V30 30 1 6 29
M  V30 31 1 7 30
M  V30 32 1 11 31
M  V30 33 1 13 32
M  V30 34 1 14 33
M  V30 35 1 19 34
M  V30 36 1 20 35
M  V30 37 1 22 36
M  V30 38 1 22 37
M  V30 39 1 23 38
M  V30 40 1 24 39
M  V30 END BOND
M  V30 END CTAB
M  END
