
     RDKit          3D

  0  0  0  0  0  0  0  0  0  0999 V3000
M  V30 BEGIN CTAB
M  V30 COUNTS 50 53 0 0 0
M  V30 BEGIN ATOM
M  V30 1 N 7.19511 0.811361 0.397191 0
M  V30 2 C 6.00847 0.54885 1.06568 0 CFG=2
M  V30 3 C 5.21832 -0.668785 0.566108 0
M  V30 4 C 3.96902 0.126991 0.883289 0 CFG=1
M  V30 5 C 4.79887 1.38368 0.621764 0
M  V30 6 C 2.84164 -0.069027 -0.0201564 0
M  V30 7 C 1.57538 -0.284612 0.545969 0
M  V30 8 C 0.466562 -0.477095 -0.219591 0
M  V30 9 N 0.642798 -0.45066 -1.56622 0
M  V30 10 C 1.82997 -0.248644 -2.15004 0
M  V30 11 N 2.90583 -0.0618237 -1.35242 0
M  V30 12 N 1.98079 -0.226712 -3.55962 0
M  V30 13 N -0.841644 -0.703262 0.260064 0
M  V30 14 C -1.16385 -0.839013 1.66162 0
M  V30 15 C -2.00615 0.34179 2.08723 0
M  V30 16 C -2.86063 0.868598 0.966347 0
M  V30 17 C -3.20918 -0.156624 -0.0702326 0
M  V30 18 C -1.97939 -0.810173 -0.666624 0
M  V30 19 C -3.9261 0.571692 -1.19633 0
M  V30 20 C -4.93938 -0.349631 -1.86834 0
M  V30 21 O -6.00398 -0.47176 -0.978006 0
M  V30 22 C -5.61612 -0.674038 0.323072 0
M  V30 23 C -4.19591 -1.19718 0.450785 0
M  V30 24 H 7.15982 0.923371 -0.563864 0
M  V30 25 H 8.03885 0.829494 0.912275 0
M  V30 26 H 6.11949 0.545354 2.17142 0
M  V30 27 H 5.29603 -1.5518 1.20129 0
M  V30 28 H 5.38923 -0.796148 -0.508344 0
M  V30 29 H 3.71854 0.0873063 1.94158 0
M  V30 30 H 4.63814 2.19199 1.33727 0
M  V30 31 H 4.91056 1.65697 -0.427903 0
M  V30 32 H 1.47419 -0.29664 1.62124 0
M  V30 33 H 2.05978 -1.10759 -4.09363 0
M  V30 34 H 2.01185 0.670015 -4.05404 0
M  V30 35 H -1.69202 -1.80745 1.85597 0
M  V30 36 H -0.274965 -0.872018 2.30665 0
M  V30 37 H -2.59 0.0506337 2.98289 0
M  V30 38 H -1.32082 1.16232 2.39035 0
M  V30 39 H -3.80137 1.23962 1.40698 0
M  V30 40 H -2.39594 1.73288 0.442704 0
M  V30 41 H -1.6767 -0.23709 -1.56721 0
M  V30 42 H -2.14987 -1.86428 -0.95322 0
M  V30 43 H -3.21333 0.946937 -1.95039 0
M  V30 44 H -4.52141 1.42994 -0.803045 0
M  V30 45 H -5.298 0.189686 -2.76427 0
M  V30 46 H -4.49745 -1.33225 -2.12731 0
M  V30 47 H -6.2748 -1.48345 0.742766 0
M  V30 48 H -5.70992 0.198536 0.980559 0
M  V30 49 H -4.05239 -2.10582 -0.160174 0
M  V30 50 H -4.03794 -1.45008 1.4979 0
M  V30 END ATOM
M  V30 BEGIN BOND
M  V30 1 1 1 2
M  V30 2 1 2 3
M  V30 3 1 3 4
M  V30 4 1 4 5
M  V30 5 1 4 6
M  V30 6 2 6 7
M  V30 7 1 7 8
M  V30 8 2 8 9
M  V30 9 1 9 10
M  V30 10 2 10 11
M  V30 11 1 10 12
M  V30 12 1 8 13
M  V30 13 1 13 14
M  V30 14 1 14 15
M  V30 15 1 15 16
M  V30 16 1 16 17
M  V30 17 1 17 18
M  V30 18 1 17 19
M  V30 19 1 19 20
M  V30 20 1 20 21
M  V30 21 1 21 22
M  V30 22 1 22 23
M  V30 23 1 5 2
M  V30 24 1 11 6
M  V30 25 1 18 13
M  V30 26 1 23 17
M  V30 27 1 1 24
M  V30 28 1 1 25
M  V30 29 1 2 26 CFG=1
M  V30 30 1 3 27
M  V30 31 1 3 28
M  V30 32 1 4 29 CFG=1
M  V30 33 1 5 30
M  V30 34 1 5 31
M  V30 35 1 7 32
M  V30 36 1 12 33
M  V30 37 1 12 34
M  V30 38 1 14 35
M  V30 39 1 14 36
M  V30 40 1 15 37
M  V30 41 1 15 38
M  V30 42 1 16 39
M  V30 43 1 16 40
M  V30 44 1 18 41
M  V30 45 1 18 42
M  V30 46 1 19 43
M  V30 47 1 19 44
M  V30 48 1 20 45
M  V30 49 1 20 46
M  V30 50 1 22 47
M  V30 51 1 22 48
M  V30 52 1 23 49
M  V30 53 1 23 50
M  V30 END BOND
M  V30 END CTAB
M  END
