
     RDKit          3D

  0  0  0  0  0  0  0  0  0  0999 V3000
M  V30 BEGIN CTAB
M  V30 COUNTS 25 25 0 0 0
M  V30 BEGIN ATOM
M  V30 1 C -1.97947 0.931466 1.51106 0
M  V30 2 C -2.47316 0.449861 0.38112 0
M  V30 3 C -2.25673 -0.938576 -0.0597479 0
M  V30 4 S -1.16166 -0.920658 -1.50116 0
M  V30 5 C 0.444996 -0.326759 -0.931003 0
M  V30 6 N 1.37888 -1.17977 -0.474134 0
M  V30 7 C 2.58722 -0.760125 -0.0430845 0
M  V30 8 N 3.53051 -1.69372 0.42615 0
M  V30 9 C 2.81255 0.603457 -0.0979598 0
M  V30 10 C 1.8748 1.50649 -0.561556 0
M  V30 11 N 0.693453 0.991561 -0.971766 0
M  V30 12 N 2.11485 2.90555 -0.614981 0
M  V30 13 C -3.54072 -1.66465 -0.406883 0
M  V30 14 H -2.16117 1.96253 1.80216 0
M  V30 15 H -1.38562 0.31856 2.17314 0
M  V30 16 H -3.06288 1.0966 -0.255207 0
M  V30 17 H -1.79323 -1.52729 0.775299 0
M  V30 18 H 3.50001 -2.00205 1.4053 0
M  V30 19 H 4.24524 -2.06162 -0.212782 0
M  V30 20 H 3.76233 0.988653 0.234377 0
M  V30 21 H 1.84007 3.46296 0.220678 0
M  V30 22 H 2.5415 3.37404 -1.43424 0
M  V30 23 H -4.01624 -1.25 -1.30271 0
M  V30 24 H -3.28437 -2.73183 -0.544584 0
M  V30 25 H -4.21115 -1.53467 0.48251 0
M  V30 END ATOM
M  V30 BEGIN BOND
M  V30 1 2 1 2 CFG=2
M  V30 2 1 2 3
M  V30 3 1 3 4
M  V30 4 1 4 5
M  V30 5 2 5 6
M  V30 6 1 6 7
M  V30 7 1 7 8
M  V30 8 2 7 9
M  V30 9 1 9 10
M  V30 10 2 10 11
M  V30 11 1 10 12
M  V30 12 1 3 13
M  V30 13 1 11 5
M  V30 14 1 1 14
M  V30 15 1 1 15
M  V30 16 1 2 16
M  V30 17 1 3 17
M  V30 18 1 8 18
M  V30 19 1 8 19
M  V30 20 1 9 20
M  V30 21 1 12 21
M  V30 22 1 12 22
M  V30 23 1 13 23
M  V30 24 1 13 24
M  V30 25 1 13 25
M  V30 END BOND
M  V30 END CTAB
M  END
