
     RDKit          3D

  0  0  0  0  0  0  0  0  0  0999 V3000
M  V30 BEGIN CTAB
M  V30 COUNTS 38 38 0 0 0
M  V30 BEGIN ATOM
M  V30 1 C 5.51867 -0.831663 -0.383269 0
M  V30 2 C 4.09135 -1.27219 -0.152387 0
M  V30 3 C 3.20605 -0.0978074 -0.456127 0
M  V30 4 C 1.75128 -0.415211 -0.261482 0
M  V30 5 O 1.49127 -1.56262 0.109873 0
M  V30 6 N 0.779331 0.558395 -0.497317 0
M  V30 7 C -0.607529 0.418059 -0.361688 0
M  V30 8 C -1.2522 -0.700949 0.0341764 0
M  V30 9 C -2.64467 -0.765992 0.149064 0
M  V30 10 C -3.408 0.334837 -0.145568 0
M  V30 11 C -2.74241 1.48293 -0.552009 0
M  V30 12 C -1.37978 1.53468 -0.660792 0
M  V30 13 C -0.763151 2.80554 -1.1044 0
M  V30 14 C -3.61044 2.66068 -0.863027 0
M  V30 15 S -3.45192 -2.23169 0.664998 0
M  V30 16 O -2.59209 -3.42915 0.299354 0
M  V30 17 O -4.81546 -2.34952 0.0613993 0
M  V30 18 N -3.62486 -2.25045 2.38285 0
M  V30 19 N 3.96781 -1.6886 1.23065 0
M  V30 20 H 6.24702 -1.47217 0.149611 0
M  V30 21 H 5.76131 -0.799579 -1.4702 0
M  V30 22 H 5.67394 0.225185 -0.0270684 0
M  V30 23 H 3.87471 -2.13996 -0.815894 0
M  V30 24 H 3.51348 0.723155 0.246618 0
M  V30 25 H 3.40088 0.229287 -1.48603 0
M  V30 26 H 1.1715 1.49679 -0.812087 0
M  V30 27 H -0.753874 -1.61109 0.287019 0
M  V30 28 H -4.4836 0.284383 -0.0567254 0
M  V30 29 H -0.0513951 2.66173 -1.93933 0
M  V30 30 H -0.319263 3.30003 -0.228803 0
M  V30 31 H -1.54911 3.47161 -1.50908 0
M  V30 32 H -3.22215 3.57068 -0.355303 0
M  V30 33 H -3.63094 2.76272 -1.96882 0
M  V30 34 H -4.63965 2.50396 -0.490823 0
M  V30 35 H -3.57787 -1.28197 2.78284 0
M  V30 36 H -4.52923 -2.68602 2.6385 0
M  V30 37 H 3.81905 -0.915401 1.8906 0
M  V30 38 H 3.38193 -2.52263 1.36666 0
M  V30 END ATOM
M  V30 BEGIN BOND
M  V30 1 1 1 2
M  V30 2 1 2 3
M  V30 3 1 3 4
M  V30 4 2 4 5
M  V30 5 1 4 6
M  V30 6 1 6 7
M  V30 7 2 7 8
M  V30 8 1 8 9
M  V30 9 2 9 10
M  V30 10 1 10 11
M  V30 11 2 11 12
M  V30 12 1 12 13
M  V30 13 1 11 14
M  V30 14 1 9 15
M  V30 15 2 15 16
M  V30 16 2 15 17
M  V30 17 1 15 18
M  V30 18 1 2 19
M  V30 19 1 12 7
M  V30 20 1 1 20
M  V30 21 1 1 21
M  V30 22 1 1 22
M  V30 23 1 2 23
M  V30 24 1 3 24
M  V30 25 1 3 25
M  V30 26 1 6 26
M  V30 27 1 8 27
M  V30 28 1 10 28
M  V30 29 1 13 29
M  V30 30 1 13 30
M  V30 31 1 13 31
M  V30 32 1 14 32
M  V30 33 1 14 33
M  V30 34 1 14 34
M  V30 35 1 18 35
M  V30 36 1 18 36
M  V30 37 1 19 37
M  V30 38 1 19 38
M  V30 END BOND
M  V30 END CTAB
M  END
