
     RDKit          3D

  0  0  0  0  0  0  0  0  0  0999 V3000
M  V30 BEGIN CTAB
M  V30 COUNTS 100 103 0 0 0
M  V30 BEGIN ATOM
M  V30 1 N 0.794078 8.70289 1.28211 0
M  V30 2 C 1.65275 7.79266 1.97584 0
M  V30 3 N 2.53718 8.32342 2.74612 0
M  V30 4 N 1.49217 6.40134 1.78633 0
M  V30 5 C 2.60411 5.52054 1.87567 0
M  V30 6 C 2.23201 4.06752 1.64656 0
M  V30 7 C 1.63545 3.82975 0.305868 0
M  V30 8 C 1.28162 2.3544 0.109013 0 CFG=2
M  V30 9 N 0.354799 2.03197 1.16528 0
M  V30 10 C -1.02746 1.79523 1.05728 0
M  V30 11 O -1.83258 2.51994 1.75827 0
M  V30 12 C -1.71192 0.788224 0.217634 0 CFG=2
M  V30 13 C -2.0686 1.21835 -1.15182 0
M  V30 14 C -2.94294 2.38043 -1.36507 0
M  V30 15 C -4.33397 2.29841 -0.801751 0
M  V30 16 N -5.06645 3.52567 -1.14638 0
M  V30 17 C -5.44029 3.84694 -2.46044 0
M  V30 18 N -5.65745 2.86278 -3.47266 0
M  V30 19 N -5.60679 5.0727 -2.81166 0
M  V30 20 N -2.80538 0.114274 0.857731 0
M  V30 21 C -3.1687 -1.2324 0.592349 0
M  V30 22 O -4.3933 -1.45382 0.311921 0
M  V30 23 C -2.23102 -2.38463 0.617918 0 CFG=1
M  V30 24 C -2.46436 -3.33454 1.74503 0
M  V30 25 C -3.76619 -3.97941 1.81411 0
M  V30 26 C -4.81019 -3.45565 2.55136 0
M  V30 27 C -6.04915 -4.05297 2.63202 0
M  V30 28 C -6.29345 -5.21958 1.96427 0
M  V30 29 O -7.54355 -5.84617 2.03007 0
M  V30 30 C -5.28856 -5.78038 1.21746 0
M  V30 31 C -4.04134 -5.16834 1.14339 0
M  V30 32 N -2.20555 -3.03301 -0.675521 0
M  V30 33 C -1.14965 -3.05022 -1.60385 0
M  V30 34 O -1.43455 -2.60421 -2.7825 0
M  V30 35 C 0.227089 -3.52352 -1.35841 0
M  V30 36 N 0.833984 -3.08036 -0.143281 0
M  V30 37 C 1.82513 -2.1036 0.0438269 0
M  V30 38 O 2.67182 -2.32612 0.983218 0
M  V30 39 C 2.03707 -0.845518 -0.689857 0 CFG=2
M  V30 40 C 2.92678 -1.04838 -1.90724 0
M  V30 41 C 4.25748 -1.56973 -1.59358 0
M  V30 42 C 4.44387 -2.95522 -1.53459 0
M  V30 43 C 5.6704 -3.50392 -1.24885 0
M  V30 44 C 5.89228 -4.86029 -1.18052 0
M  V30 45 C 7.12269 -5.40836 -0.892871 0
M  V30 46 C 8.18667 -4.58682 -0.660609 0
M  V30 47 C 8.02376 -3.2337 -0.715197 0
M  V30 48 C 6.77557 -2.69701 -1.00702 0
M  V30 49 C 6.57791 -1.32881 -1.06859 0
M  V30 50 C 5.34208 -0.78537 -1.35645 0
M  V30 51 N 2.65356 0.168829 0.172572 0
M  V30 52 C 2.51734 1.55076 0.0804711 0
M  V30 53 O 3.61868 2.21097 -0.0470369 0
M  V30 54 H 1.15738 9.12798 0.42224 0
M  V30 55 H -0.140356 8.87423 1.69293 0
M  V30 56 H 3.22355 7.77052 3.30698 0
M  V30 57 H 0.547445 6.03077 1.57964 0
M  V30 58 H 3.04239 5.56534 2.90159 0
M  V30 59 H 3.41347 5.86126 1.18753 0
M  V30 60 H 1.40685 3.87816 2.39829 0
M  V30 61 H 3.1282 3.4866 1.90032 0
M  V30 62 H 2.37118 4.05873 -0.507626 0
M  V30 63 H 0.720601 4.38749 0.107116 0
M  V30 64 H 0.762134 2.31959 -0.895576 0
M  V30 65 H 0.773396 1.98124 2.14696 0
M  V30 66 H -0.964748 -0.0891159 0.0253625 0
M  V30 67 H -2.6121 0.331271 -1.64647 0
M  V30 68 H -1.13337 1.25772 -1.80086 0
M  V30 69 H -2.45954 3.36111 -1.1158 0
M  V30 70 H -3.09481 2.46362 -2.49081 0
M  V30 71 H -4.30413 2.22407 0.286903 0
M  V30 72 H -4.90445 1.47917 -1.28548 0
M  V30 73 H -5.30965 4.1724 -0.375263 0
M  V30 74 H -6.13377 1.98602 -3.17227 0
M  V30 75 H -5.36876 2.98228 -4.46385 0
M  V30 76 H -5.46152 5.81319 -2.1144 0
M  V30 77 H -3.36776 0.634361 1.5748 0
M  V30 78 H -1.21398 -1.92099 0.838044 0
M  V30 79 H -2.21312 -2.83247 2.72547 0
M  V30 80 H -1.67661 -4.14198 1.66982 0
M  V30 81 H -4.69069 -2.52478 3.11183 0
M  V30 82 H -6.86442 -3.63532 3.21361 0
M  V30 83 H -7.70479 -6.5333 2.77325 0
M  V30 84 H -5.46035 -6.70423 0.680633 0
M  V30 85 H -3.2722 -5.63464 0.548203 0
M  V30 86 H -3.10959 -3.54194 -0.924277 0
M  V30 87 H 0.858312 -3.29473 -2.26449 0
M  V30 88 H 0.188395 -4.66463 -1.40478 0
M  V30 89 H 0.477695 -3.58195 0.737501 0
M  V30 90 H 1.11164 -0.380874 -1.0865 0
M  V30 91 H 3.09963 -0.013431 -2.34163 0
M  V30 92 H 2.41542 -1.58608 -2.72372 0
M  V30 93 H 3.62196 -3.63059 -1.71359 0
M  V30 94 H 5.06409 -5.52866 -1.36084 0
M  V30 95 H 7.22356 -6.49535 -0.856139 0
M  V30 96 H 9.14491 -5.04387 -0.434538 0
M  V30 97 H 8.85562 -2.56874 -0.533409 0
M  V30 98 H 7.4405 -0.675848 -0.878952 0
M  V30 99 H 5.28778 0.28932 -1.38599 0
M  V30 100 H 3.26967 -0.238814 0.940322 0
M  V30 END ATOM
M  V30 BEGIN BOND
M  V30 1 1 1 2
M  V30 2 2 2 3 CFG=2
M  V30 3 1 2 4
M  V30 4 1 4 5
M  V30 5 1 5 6
M  V30 6 1 6 7
M  V30 7 1 7 8
M  V30 8 1 8 9
M  V30 9 1 9 10
M  V30 10 2 10 11
M  V30 11 1 10 12
M  V30 12 1 12 13
M  V30 13 1 13 14
M  V30 14 1 14 15
M  V30 15 1 15 16
M  V30 16 1 16 17
M  V30 17 1 17 18
M  V30 18 2 17 19 CFG=2
M  V30 19 1 12 20
M  V30 20 1 20 21
M  V30 21 2 21 22
M  V30 22 1 21 23
M  V30 23 1 23 24
M  V30 24 1 24 25
M  V30 25 2 25 26
M  V30 26 1 26 27
M  V30 27 2 27 28
M  V30 28 1 28 29
M  V30 29 1 28 30
M  V30 30 2 30 31
M  V30 31 1 23 32
M  V30 32 1 32 33
M  V30 33 2 33 34
M  V30 34 1 33 35
M  V30 35 1 35 36
M  V30 36 1 36 37
M  V30 37 2 37 38
M  V30 38 1 37 39
M  V30 39 1 39 40
M  V30 40 1 40 41
M  V30 41 2 41 42
M  V30 42 1 42 43
M  V30 43 2 43 44
M  V30 44 1 44 45
M  V30 45 2 45 46
M  V30 46 1 46 47
M  V30 47 2 47 48
M  V30 48 1 48 49
M  V30 49 2 49 50
M  V30 50 1 39 51
M  V30 51 1 51 52
M  V30 52 2 52 53
M  V30 53 1 52 8
M  V30 54 1 31 25
M  V30 55 1 50 41
M  V30 56 1 48 43
M  V30 57 1 1 54
M  V30 58 1 1 55
M  V30 59 1 3 56
M  V30 60 1 4 57
M  V30 61 1 5 58
M  V30 62 1 5 59
M  V30 63 1 6 60
M  V30 64 1 6 61
M  V30 65 1 7 62
M  V30 66 1 7 63
M  V30 67 1 8 64 CFG=3
M  V30 68 1 9 65
M  V30 69 1 12 66 CFG=3
M  V30 70 1 13 67
M  V30 71 1 13 68
M  V30 72 1 14 69
M  V30 73 1 14 70
M  V30 74 1 15 71
M  V30 75 1 15 72
M  V30 76 1 16 73
M  V30 77 1 18 74
M  V30 78 1 18 75
M  V30 79 1 19 76
M  V30 80 1 20 77
M  V30 81 1 23 78 CFG=1
M  V30 82 1 24 79
M  V30 83 1 24 80
M  V30 84 1 26 81
M  V30 85 1 27 82
M  V30 86 1 29 83
M  V30 87 1 30 84
M  V30 88 1 31 85
M  V30 89 1 32 86
M  V30 90 1 35 87
M  V30 91 1 35 88
M  V30 92 1 36 89
M  V30 93 1 39 90 CFG=3
M  V30 94 1 40 91
M  V30 95 1 40 92
M  V30 96 1 42 93
M  V30 97 1 44 94
M  V30 98 1 45 95
M  V30 99 1 46 96
M  V30 100 1 47 97
M  V30 101 1 49 98
M  V30 102 1 50 99
M  V30 103 1 51 100
M  V30 END BOND
M  V30 END CTAB
M  END
