
     RDKit          3D

  0  0  0  0  0  0  0  0  0  0999 V3000
M  V30 BEGIN CTAB
M  V30 COUNTS 22 22 0 0 0
M  V30 BEGIN ATOM
M  V30 1 N 1.83028 2.32891 -0.192219 0
M  V30 2 C 1.82651 0.971676 0.19475 0
M  V30 3 N 2.84644 0.2441 -0.0645085 0
M  V30 4 N 2.82591 -1.09585 0.325202 0
M  V30 5 N 0.725879 0.414345 0.855586 0
M  V30 6 C -0.280793 -0.408267 0.265564 0
M  V30 7 C -1.30242 -0.811289 1.31644 0
M  V30 8 C -2.59264 -0.835595 0.53458 0
M  V30 9 C -2.37232 0.0336111 -0.616214 0
M  V30 10 C -1.08629 0.268961 -0.763036 0
M  V30 11 H 2.20685 3.08694 0.439035 0
M  V30 12 H 1.46717 2.66041 -1.1105 0
M  V30 13 H 2.99943 -1.80641 -0.421377 0
M  V30 14 H 2.64636 -1.38585 1.31467 0
M  V30 15 H 0.637387 0.628207 1.89617 0
M  V30 16 H 0.111802 -1.3451 -0.183984 0
M  V30 17 H -1.35751 -0.0558979 2.12409 0
M  V30 18 H -1.04151 -1.81707 1.73825 0
M  V30 19 H -2.77227 -1.88758 0.207769 0
M  V30 20 H -3.45816 -0.488668 1.14858 0
M  V30 21 H -3.20573 0.4069 -1.23513 0
M  V30 22 H -0.654405 0.89351 -1.5536 0
M  V30 END ATOM
M  V30 BEGIN BOND
M  V30 1 1 1 2
M  V30 2 2 2 3
M  V30 3 1 3 4
M  V30 4 1 2 5
M  V30 5 1 5 6
M  V30 6 1 6 7
M  V30 7 1 7 8
M  V30 8 1 8 9
M  V30 9 2 9 10
M  V30 10 1 10 6
M  V30 11 1 1 11
M  V30 12 1 1 12
M  V30 13 1 4 13
M  V30 14 1 4 14
M  V30 15 1 5 15
M  V30 16 1 6 16
M  V30 17 1 7 17
M  V30 18 1 7 18
M  V30 19 1 8 19
M  V30 20 1 8 20
M  V30 21 1 9 21
M  V30 22 1 10 22
M  V30 END BOND
M  V30 END CTAB
M  END
