
     RDKit          3D

  0  0  0  0  0  0  0  0  0  0999 V3000
M  V30 BEGIN CTAB
M  V30 COUNTS 41 42 0 0 0
M  V30 BEGIN ATOM
M  V30 1 C -1.16253 -2.08327 2.00933 0
M  V30 2 C -0.116682 -2.43663 0.998514 0
M  V30 3 Si 0.178386 -1.04146 -0.214107 0 VAL=4
M  V30 4 C 0.942589 -1.70344 -1.78243 0
M  V30 5 C 0.201238 -2.86407 -2.3498 0
M  V30 6 C 1.43544 0.091064 0.52261 0
M  V30 7 C 2.15091 0.936953 -0.319913 0
M  V30 8 C 3.10431 1.81232 0.136078 0
M  V30 9 N 3.84633 2.68524 -0.710319 0
M  V30 10 C 3.35129 1.8416 1.49218 0
M  V30 11 C 2.64979 1.00642 2.35466 0
M  V30 12 C 1.69546 0.134792 1.86949 0
M  V30 13 C -1.33423 -0.0836265 -0.518285 0
M  V30 14 C -1.59603 1.0407 0.25021 0
M  V30 15 C -2.70954 1.80713 0.0788934 0
M  V30 16 N -2.99551 2.96293 0.856398 0
M  V30 17 C -3.62443 1.46677 -0.892899 0
M  V30 18 C -3.41308 0.35695 -1.68648 0
M  V30 19 C -2.27232 -0.394104 -1.48171 0
M  V30 20 H -2.13142 -2.58888 1.7762 0
M  V30 21 H -0.882486 -2.46148 3.02767 0
M  V30 22 H -1.31681 -1.00548 2.11588 0
M  V30 23 H 0.843013 -2.58812 1.55975 0
M  V30 24 H -0.323911 -3.38505 0.490234 0
M  V30 25 H 0.991485 -0.850879 -2.50335 0
M  V30 26 H 1.96964 -1.99589 -1.54916 0
M  V30 27 H -0.384174 -3.42444 -1.58806 0
M  V30 28 H 0.935763 -3.58263 -2.77166 0
M  V30 29 H -0.44786 -2.56829 -3.21363 0
M  V30 30 H 1.93508 0.889847 -1.37013 0
M  V30 31 H 4.18172 2.36319 -1.65664 0
M  V30 32 H 4.0872 3.65518 -0.444923 0
M  V30 33 H 4.07978 2.49464 1.9398 0
M  V30 34 H 2.85991 1.04616 3.41514 0
M  V30 35 H 1.12951 -0.530387 2.51121 0
M  V30 36 H -0.88301 1.32889 1.02722 0
M  V30 37 H -2.97586 3.88824 0.374926 0
M  V30 38 H -3.21747 2.89602 1.87056 0
M  V30 39 H -4.52575 2.03477 -1.07644 0
M  V30 40 H -4.14157 0.0984278 -2.44959 0
M  V30 41 H -2.11417 -1.25011 -2.09742 0
M  V30 END ATOM
M  V30 BEGIN BOND
M  V30 1 1 1 2
M  V30 2 1 2 3
M  V30 3 1 3 4
M  V30 4 1 4 5
M  V30 5 1 3 6
M  V30 6 2 6 7
M  V30 7 1 7 8
M  V30 8 1 8 9
M  V30 9 2 8 10
M  V30 10 1 10 11
M  V30 11 2 11 12
M  V30 12 1 3 13
M  V30 13 2 13 14
M  V30 14 1 14 15
M  V30 15 1 15 16
M  V30 16 2 15 17
M  V30 17 1 17 18
M  V30 18 2 18 19
M  V30 19 1 12 6
M  V30 20 1 19 13
M  V30 21 1 1 20
M  V30 22 1 1 21
M  V30 23 1 1 22
M  V30 24 1 2 23
M  V30 25 1 2 24
M  V30 26 1 4 25
M  V30 27 1 4 26
M  V30 28 1 5 27
M  V30 29 1 5 28
M  V30 30 1 5 29
M  V30 31 1 7 30
M  V30 32 1 9 31
M  V30 33 1 9 32
M  V30 34 1 10 33
M  V30 35 1 11 34
M  V30 36 1 12 35
M  V30 37 1 14 36
M  V30 38 1 16 37
M  V30 39 1 16 38
M  V30 40 1 17 39
M  V30 41 1 18 40
M  V30 42 1 19 41
M  V30 END BOND
M  V30 END CTAB
M  END
