
     RDKit          3D

  0  0  0  0  0  0  0  0  0  0999 V3000
M  V30 BEGIN CTAB
M  V30 COUNTS 32 34 0 0 0
M  V30 BEGIN ATOM
M  V30 1 N 5.82897 -0.817489 -0.848825 0
M  V30 2 C 4.5366 -0.644989 -0.265416 0
M  V30 3 N 3.84796 0.488459 -0.457312 0
M  V30 4 C 2.63259 0.727722 0.0541437 0
M  V30 5 C 1.96455 1.92504 -0.179211 0
M  V30 6 C 0.735003 2.08358 0.378524 0
M  V30 7 C 0.156866 1.08692 1.15786 0
M  V30 8 S -1.44081 1.38433 1.83845 0
M  V30 9 C -2.74866 0.838706 0.732678 0
M  V30 10 C -2.46665 0.263607 -0.488855 0
M  V30 11 C -3.46349 -0.159388 -1.34665 0
M  V30 12 C -4.79398 -0.0215839 -1.01131 0
M  V30 13 O -5.805 -0.445567 -1.87073 0
M  V30 14 C -5.07588 0.553537 0.210256 0
M  V30 15 C -4.07769 0.977456 1.06996 0
M  V30 16 C 0.814453 -0.104904 1.39395 0
M  V30 17 C 2.05887 -0.267814 0.830656 0
M  V30 18 C 2.78364 -1.43099 1.01827 0
M  V30 19 N 2.20708 -2.45971 1.81224 0
M  V30 20 N 3.99441 -1.60582 0.478082 0
M  V30 21 H 6.10766 -0.193069 -1.63486 0
M  V30 22 H 6.49541 -1.53844 -0.518999 0
M  V30 23 H 2.43303 2.68158 -0.786064 0
M  V30 24 H 0.210245 3.02468 0.194939 0
M  V30 25 H -1.42557 0.155594 -0.751629 0
M  V30 26 H -3.25084 -0.613075 -2.30997 0
M  V30 27 H -6.19328 -1.3774 -1.84873 0
M  V30 28 H -6.12996 0.66199 0.474408 0
M  V30 29 H -4.31591 1.42892 2.02947 0
M  V30 30 H 0.383227 -0.895311 1.99794 0
M  V30 31 H 2.5926 -2.66645 2.7625 0
M  V30 32 H 1.40456 -3.04012 1.5076 0
M  V30 END ATOM
M  V30 BEGIN BOND
M  V30 1 1 1 2
M  V30 2 2 2 3
M  V30 3 1 3 4
M  V30 4 2 4 5
M  V30 5 1 5 6
M  V30 6 2 6 7
M  V30 7 1 7 8
M  V30 8 1 8 9
M  V30 9 2 9 10
M  V30 10 1 10 11
M  V30 11 2 11 12
M  V30 12 1 12 13
M  V30 13 1 12 14
M  V30 14 2 14 15
M  V30 15 1 7 16
M  V30 16 2 16 17
M  V30 17 1 17 18
M  V30 18 1 18 19
M  V30 19 2 18 20
M  V30 20 1 20 2
M  V30 21 1 17 4
M  V30 22 1 15 9
M  V30 23 1 1 21
M  V30 24 1 1 22
M  V30 25 1 5 23
M  V30 26 1 6 24
M  V30 27 1 10 25
M  V30 28 1 11 26
M  V30 29 1 13 27
M  V30 30 1 14 28
M  V30 31 1 15 29
M  V30 32 1 16 30
M  V30 33 1 19 31
M  V30 34 1 19 32
M  V30 END BOND
M  V30 END CTAB
M  END
