
     RDKit          3D

  0  0  0  0  0  0  0  0  0  0999 V3000
M  V30 BEGIN CTAB
M  V30 COUNTS 61 62 0 0 0
M  V30 BEGIN ATOM
M  V30 1 N 9.81205 1.66942 -0.913431 0
M  V30 2 C 8.45013 1.5384 -0.521829 0
M  V30 3 N 7.97962 0.464563 0.105588 0
M  V30 4 C 6.6963 0.312164 0.488705 0
M  V30 5 N 6.29013 -0.875811 1.15357 0
M  V30 6 C 5.82394 1.34239 0.20695 0
M  V30 7 C 4.4073 1.21687 0.610687 0
M  V30 8 C 3.64089 0.27585 -0.311977 0
M  V30 9 C 2.20396 0.230421 0.201856 0
M  V30 10 C 1.38772 -0.681339 -0.656008 0
M  V30 11 C 1.90247 -2.07107 -0.669712 0
M  V30 12 O 2.38339 -2.54222 -1.71846 0
M  V30 13 C 1.89662 -2.98845 0.496502 0
M  V30 14 F 2.61176 -4.15957 0.192241 0
M  V30 15 F 2.54736 -2.45287 1.58529 0
M  V30 16 F 0.619111 -3.45178 0.806438 0
M  V30 17 C -0.0492584 -0.605497 -0.303847 0
M  V30 18 C -0.996001 -0.539143 -1.30447 0
M  V30 19 C -2.3178 -0.450721 -0.940071 0
M  V30 20 C -2.76357 -0.423542 0.360375 0
M  V30 21 C -1.77912 -0.49194 1.35072 0
M  V30 22 C -0.453631 -0.580939 1.0137 0
M  V30 23 C -4.16983 -0.340974 0.716568 0
M  V30 24 O -4.4781 0.0781173 1.85683 0
M  V30 25 N -5.1574 -0.726002 -0.2041 0
M  V30 26 C -6.58026 -0.668455 0.0851706 0 CFG=1
M  V30 27 C -7.38126 -0.0491259 -0.993197 0
M  V30 28 C -7.07224 1.3483 -1.37062 0
M  V30 29 C -7.23556 2.35766 -0.312356 0
M  V30 30 O -7.7555 1.99338 0.919406 0
M  V30 31 O -6.90436 3.55971 -0.521029 0
M  V30 32 C -7.0772 -2.08301 0.215448 0
M  V30 33 O -8.40832 -2.28279 0.483637 0
M  V30 34 O -6.31208 -3.05733 0.0854806 0
M  V30 35 C 6.32124 2.4498 -0.44294 0
M  V30 36 O 5.51372 3.38714 -0.695818 0
M  V30 37 N 7.62198 2.54179 -0.801405 0
M  V30 38 H 10.531 1.05988 -0.465247 0
M  V30 39 H 10.1354 2.34169 -1.62537 0
M  V30 40 H 5.94993 -0.883768 2.12965 0
M  V30 41 H 6.32481 -1.81064 0.659498 0
M  V30 42 H 4.35104 0.890127 1.66006 0
M  V30 43 H 3.95522 2.24252 0.576076 0
M  V30 44 H 3.60253 0.710957 -1.32931 0
M  V30 45 H 4.1216 -0.703789 -0.26309 0
M  V30 46 H 1.79372 1.269 0.0318623 0
M  V30 47 H 2.1455 0.0198381 1.2677 0
M  V30 48 H 1.49108 -0.311171 -1.71979 0
M  V30 49 H -0.713064 -0.553931 -2.34952 0
M  V30 50 H -3.07629 -0.393435 -1.72589 0
M  V30 51 H -2.11678 -0.471535 2.37854 0
M  V30 52 H 0.294995 -0.631256 1.82319 0
M  V30 53 H -4.8663 -1.07077 -1.13571 0
M  V30 54 H -6.78996 -0.21977 1.07428 0
M  V30 55 H -7.41583 -0.665232 -1.92091 0
M  V30 56 H -8.45522 -0.0560493 -0.636304 0
M  V30 57 H -6.09145 1.44994 -1.90385 0
M  V30 58 H -7.82499 1.62748 -2.17023 0
M  V30 59 H -7.56574 2.56351 1.71002 0
M  V30 60 H -8.95852 -3.05111 0.114167 0
M  V30 61 H 7.95915 3.4041 -1.29551 0
M  V30 END ATOM
M  V30 BEGIN BOND
M  V30 1 1 1 2
M  V30 2 2 2 3
M  V30 3 1 3 4
M  V30 4 1 4 5
M  V30 5 2 4 6
M  V30 6 1 6 7
M  V30 7 1 7 8
M  V30 8 1 8 9
M  V30 9 1 9 10
M  V30 10 1 10 11
M  V30 11 2 11 12
M  V30 12 1 11 13
M  V30 13 1 13 14
M  V30 14 1 13 15
M  V30 15 1 13 16
M  V30 16 1 10 17
M  V30 17 2 17 18
M  V30 18 1 18 19
M  V30 19 2 19 20
M  V30 20 1 20 21
M  V30 21 2 21 22
M  V30 22 1 20 23
M  V30 23 2 23 24
M  V30 24 1 23 25
M  V30 25 1 25 26
M  V30 26 1 26 27
M  V30 27 1 27 28
M  V30 28 1 28 29
M  V30 29 1 29 30
M  V30 30 2 29 31
M  V30 31 1 26 32
M  V30 32 1 32 33
M  V30 33 2 32 34
M  V30 34 1 6 35
M  V30 35 2 35 36
M  V30 36 1 35 37
M  V30 37 1 37 2
M  V30 38 1 22 17
M  V30 39 1 1 38
M  V30 40 1 1 39
M  V30 41 1 5 40
M  V30 42 1 5 41
M  V30 43 1 7 42
M  V30 44 1 7 43
M  V30 45 1 8 44
M  V30 46 1 8 45
M  V30 47 1 9 46
M  V30 48 1 9 47
M  V30 49 1 10 48
M  V30 50 1 18 49
M  V30 51 1 19 50
M  V30 52 1 21 51
M  V30 53 1 22 52
M  V30 54 1 25 53
M  V30 55 1 26 54 CFG=1
M  V30 56 1 27 55
M  V30 57 1 27 56
M  V30 58 1 28 57
M  V30 59 1 28 58
M  V30 60 1 30 59
M  V30 61 1 33 60
M  V30 62 1 37 61
M  V30 END BOND
M  V30 END CTAB
M  END
