
     RDKit          3D

  0  0  0  0  0  0  0  0  0  0999 V3000
M  V30 BEGIN CTAB
M  V30 COUNTS 44 44 0 0 0
M  V30 BEGIN ATOM
M  V30 1 C -4.04424 -1.2372 -1.34496 0
M  V30 2 C -3.8937 -0.0413034 -0.485332 0
M  V30 3 C -2.663 0.0876287 0.323898 0
M  V30 4 C -1.41909 0.103408 -0.497988 0
M  V30 5 O -1.53998 -0.0251886 -1.71193 0
M  V30 6 N -0.181332 0.262689 0.148697 0
M  V30 7 C 1.10238 0.311058 -0.407613 0
M  V30 8 C 1.31471 0.466213 -1.74505 0
M  V30 9 C 2.62975 0.485812 -2.23407 0
M  V30 10 C 3.70875 0.352894 -1.39804 0
M  V30 11 C 3.51537 0.196444 -0.050841 0
M  V30 12 C 2.20859 0.17934 0.413637 0
M  V30 13 S 4.88407 0.0263298 1.02271 0
M  V30 14 O 5.76613 1.24374 0.990514 0
M  V30 15 O 5.69344 -1.17566 0.62532 0
M  V30 16 N 4.31361 -0.151272 2.64092 0
M  V30 17 C 5.09476 0.378784 -1.95652 0
M  V30 18 C -2.70767 1.48434 0.986644 0
M  V30 19 N -2.75715 2.52569 0.000190416 0
M  V30 20 C -2.60864 -0.872877 1.47137 0
M  V30 21 C -2.64047 -2.31959 1.11463 0
M  V30 22 H -4.38244 -0.950556 -2.39135 0
M  V30 23 H -3.16881 -1.86103 -1.50147 0
M  V30 24 H -4.90559 -1.88359 -0.996197 0
M  V30 25 H -4.75773 -0.0138387 0.249494 0
M  V30 26 H -4.09861 0.870669 -1.12088 0
M  V30 27 H -0.180926 0.374392 1.23409 0
M  V30 28 H 0.520904 0.588103 -2.48011 0
M  V30 29 H 2.78517 0.608047 -3.28772 0
M  V30 30 H 2.09591 0.0509275 1.50272 0
M  V30 31 H 3.64131 -0.919558 2.75877 0
M  V30 32 H 5.04926 -0.074393 3.34975 0
M  V30 33 H 5.64726 -0.557345 -1.75807 0
M  V30 34 H 5.04017 0.5093 -3.03798 0
M  V30 35 H 5.60497 1.2531 -1.46718 0
M  V30 36 H -1.81059 1.5373 1.63384 0
M  V30 37 H -3.59338 1.48504 1.64802 0
M  V30 38 H -3.77211 2.72706 -0.225054 0
M  V30 39 H -2.39859 3.40761 0.4452 0
M  V30 40 H -3.4477 -0.591132 2.16306 0
M  V30 41 H -1.68345 -0.680583 2.08161 0
M  V30 42 H -2.35951 -2.93416 2.02954 0
M  V30 43 H -3.68876 -2.61324 0.910465 0
M  V30 44 H -1.91306 -2.6134 0.353286 0
M  V30 END ATOM
M  V30 BEGIN BOND
M  V30 1 1 1 2
M  V30 2 1 2 3
M  V30 3 1 3 4
M  V30 4 2 4 5
M  V30 5 1 4 6
M  V30 6 1 6 7
M  V30 7 2 7 8
M  V30 8 1 8 9
M  V30 9 2 9 10
M  V30 10 1 10 11
M  V30 11 2 11 12
M  V30 12 1 11 13
M  V30 13 2 13 14
M  V30 14 2 13 15
M  V30 15 1 13 16
M  V30 16 1 10 17
M  V30 17 1 3 18
M  V30 18 1 18 19
M  V30 19 1 3 20
M  V30 20 1 20 21
M  V30 21 1 12 7
M  V30 22 1 1 22
M  V30 23 1 1 23
M  V30 24 1 1 24
M  V30 25 1 2 25
M  V30 26 1 2 26
M  V30 27 1 6 27
M  V30 28 1 8 28
M  V30 29 1 9 29
M  V30 30 1 12 30
M  V30 31 1 16 31
M  V30 32 1 16 32
M  V30 33 1 17 33
M  V30 34 1 17 34
M  V30 35 1 17 35
M  V30 36 1 18 36
M  V30 37 1 18 37
M  V30 38 1 19 38
M  V30 39 1 19 39
M  V30 40 1 20 40
M  V30 41 1 20 41
M  V30 42 1 21 42
M  V30 43 1 21 43
M  V30 44 1 21 44
M  V30 END BOND
M  V30 END CTAB
M  END
