
     RDKit          3D

  0  0  0  0  0  0  0  0  0  0999 V3000
M  V30 BEGIN CTAB
M  V30 COUNTS 39 40 0 0 0
M  V30 BEGIN ATOM
M  V30 1 N 5.91973 -0.0439804 0.158674 0
M  V30 2 C 4.51216 -0.274267 0.03427 0 CFG=2
M  V30 3 C 4.00856 0.0142708 -1.38857 0
M  V30 4 C 2.49274 0.0975565 -1.1299 0
M  V30 5 N 2.31486 0.394691 0.269534 0
M  V30 6 C 3.66689 0.734466 0.768315 0
M  V30 7 C 1.18828 0.431332 1.11285 0
M  V30 8 O 1.45768 0.720096 2.34737 0
M  V30 9 C -0.190389 0.205262 0.837474 0
M  V30 10 C -1.13983 0.204912 1.8648 0
M  V30 11 C -2.48736 0.011996 1.64107 0
M  V30 12 C -3.37866 0.0373808 2.83004 0
M  V30 13 C -2.94872 -0.192221 0.35712 0
M  V30 14 C -2.05234 -0.199605 -0.682545 0
M  V30 15 C -0.688147 0.000629369 -0.415689 0
M  V30 16 S -2.59894 -0.455434 -2.32176 0
M  V30 17 O -3.16936 -1.84941 -2.50512 0
M  V30 18 O -1.42676 -0.367307 -3.26817 0
M  V30 19 N -3.72721 0.754649 -2.82107 0
M  V30 20 C -4.39758 -0.397029 0.140259 0
M  V30 21 H 6.28708 0.55608 -0.596948 0
M  V30 22 H 6.09498 0.355834 1.10685 0
M  V30 23 H 4.24974 -1.29964 0.317825 0
M  V30 24 H 4.27035 -0.767341 -2.09623 0
M  V30 25 H 4.422 1.00585 -1.66033 0
M  V30 26 H 2.08524 0.936321 -1.72377 0
M  V30 27 H 2.03629 -0.888757 -1.40192 0
M  V30 28 H 3.89453 1.72486 0.353291 0
M  V30 29 H 3.73189 0.661689 1.85015 0
M  V30 30 H -0.769651 0.36412 2.86238 0
M  V30 31 H -4.42131 0.261117 2.57584 0
M  V30 32 H -3.34552 -0.91969 3.37645 0
M  V30 33 H -3.03153 0.84429 3.50794 0
M  V30 34 H -0.0697518 -0.00902362 -1.29623 0
M  V30 35 H -4.5824 0.366246 -3.23438 0
M  V30 36 H -3.8766 1.42934 -2.04395 0
M  V30 37 H -4.63386 -0.710617 -0.885225 0
M  V30 38 H -4.99984 0.509293 0.355431 0
M  V30 39 H -4.69725 -1.2536 0.803891 0
M  V30 END ATOM
M  V30 BEGIN BOND
M  V30 1 1 1 2
M  V30 2 1 2 3
M  V30 3 1 3 4
M  V30 4 1 4 5
M  V30 5 1 5 6
M  V30 6 1 5 7
M  V30 7 2 7 8
M  V30 8 1 7 9
M  V30 9 2 9 10
M  V30 10 1 10 11
M  V30 11 1 11 12
M  V30 12 2 11 13
M  V30 13 1 13 14
M  V30 14 2 14 15
M  V30 15 1 14 16
M  V30 16 2 16 17
M  V30 17 2 16 18
M  V30 18 1 16 19
M  V30 19 1 13 20
M  V30 20 1 6 2
M  V30 21 1 15 9
M  V30 22 1 1 21
M  V30 23 1 1 22
M  V30 24 1 2 23 CFG=1
M  V30 25 1 3 24
M  V30 26 1 3 25
M  V30 27 1 4 26
M  V30 28 1 4 27
M  V30 29 1 6 28
M  V30 30 1 6 29
M  V30 31 1 10 30
M  V30 32 1 12 31
M  V30 33 1 12 32
M  V30 34 1 12 33
M  V30 35 1 15 34
M  V30 36 1 19 35
M  V30 37 1 19 36
M  V30 38 1 20 37
M  V30 39 1 20 38
M  V30 40 1 20 39
M  V30 END BOND
M  V30 END CTAB
M  END
