
     RDKit          3D

  0  0  0  0  0  0  0  0  0  0999 V3000
M  V30 BEGIN CTAB
M  V30 COUNTS 33 33 0 0 0
M  V30 BEGIN ATOM
M  V30 1 N 0.242793 -1.64592 0.445031 0
M  V30 2 C 0.318211 -0.213445 0.387928 0
M  V30 3 C 1.72901 0.128553 0.121365 0
M  V30 4 C 2.12973 1.02774 -0.833798 0
M  V30 5 C 3.47388 1.26531 -0.986908 0
M  V30 6 C 4.39435 0.6134 -0.197126 0
M  V30 7 N 4.01685 -0.277836 0.751594 0
M  V30 8 C 2.70698 -0.508115 0.899237 0
M  V30 9 N 2.3258 -1.45585 1.90729 0
M  V30 10 C -0.619487 0.429081 -0.568134 0
M  V30 11 C -2.05535 0.187126 -0.321992 0
M  V30 12 C -2.84725 0.926014 -1.40753 0
M  V30 13 C -2.52215 -1.22183 -0.303096 0
M  V30 14 C -2.50541 0.830097 0.997814 0
M  V30 15 H 0.219322 -2.13633 -0.442752 0
M  V30 16 H -0.200217 -2.05736 1.26316 0
M  V30 17 H 0.10454 0.225389 1.41046 0
M  V30 18 H 1.36193 1.50513 -1.41884 0
M  V30 19 H 3.81416 1.97462 -1.73877 0
M  V30 20 H 5.45359 0.788286 -0.302328 0
M  V30 21 H 1.92778 -1.19603 2.82686 0
M  V30 22 H 2.46152 -2.46642 1.69046 0
M  V30 23 H -0.459662 1.5399 -0.472382 0
M  V30 24 H -0.32883 0.135288 -1.606 0
M  V30 25 H -2.29526 0.916691 -2.37968 0
M  V30 26 H -3.0398 1.96889 -1.14567 0
M  V30 27 H -3.82299 0.437559 -1.60877 0
M  V30 28 H -2.50244 -1.69993 0.708267 0
M  V30 29 H -3.62011 -1.21157 -0.574154 0
M  V30 30 H -2.07011 -1.86966 -1.09069 0
M  V30 31 H -3.40443 1.44642 0.884692 0
M  V30 32 H -1.69971 1.52321 1.31848 0
M  V30 33 H -2.68723 0.0916125 1.78598 0
M  V30 END ATOM
M  V30 BEGIN BOND
M  V30 1 1 1 2
M  V30 2 1 2 3
M  V30 3 2 3 4
M  V30 4 1 4 5
M  V30 5 2 5 6
M  V30 6 1 6 7
M  V30 7 2 7 8
M  V30 8 1 8 9
M  V30 9 1 2 10
M  V30 10 1 10 11
M  V30 11 1 11 12
M  V30 12 1 11 13
M  V30 13 1 11 14
M  V30 14 1 8 3
M  V30 15 1 1 15
M  V30 16 1 1 16
M  V30 17 1 2 17
M  V30 18 1 4 18
M  V30 19 1 5 19
M  V30 20 1 6 20
M  V30 21 1 9 21
M  V30 22 1 9 22
M  V30 23 1 10 23
M  V30 24 1 10 24
M  V30 25 1 12 25
M  V30 26 1 12 26
M  V30 27 1 12 27
M  V30 28 1 13 28
M  V30 29 1 13 29
M  V30 30 1 13 30
M  V30 31 1 14 31
M  V30 32 1 14 32
M  V30 33 1 14 33
M  V30 END BOND
M  V30 END CTAB
M  END
