
     RDKit          3D

  0  0  0  0  0  0  0  0  0  0999 V3000
M  V30 BEGIN CTAB
M  V30 COUNTS 36 37 0 0 0
M  V30 BEGIN ATOM
M  V30 1 C 6.68885 0.28352 1.26034 0
M  V30 2 C 6.78987 -0.331375 -0.117981 0
M  V30 3 C 6.12573 0.578732 -1.12946 0
M  V30 4 C 4.68118 0.744111 -0.748534 0
M  V30 5 N 4.15451 1.67209 0.0463106 0
M  V30 6 N 2.91263 1.67723 0.270216 0
M  V30 7 C 2.12809 0.772398 -0.274822 0
M  V30 8 S 3.28473 -0.146919 -1.17474 0
M  V30 9 N 0.722733 0.561202 -0.185488 0
M  V30 10 C 0.136468 -0.511947 -0.892889 0
M  V30 11 O 0.874023 -1.25322 -1.58396 0
M  V30 12 C -1.31778 -0.799778 -0.852811 0
M  V30 13 S -2.10964 0.417261 0.207387 0
M  V30 14 C -3.8581 0.0791292 0.261777 0
M  V30 15 N -4.39914 -0.945332 -0.416537 0
M  V30 16 C -5.74089 -1.14983 -0.333238 0
M  V30 17 N -6.28166 -2.24404 -1.06429 0
M  V30 18 C -6.52101 -0.327466 0.426526 0
M  V30 19 C -5.95139 0.720129 1.11726 0
M  V30 20 N -4.62627 0.890025 1.01077 0
M  V30 21 N -6.76688 1.57849 1.91049 0
M  V30 22 H 5.76673 -0.0849718 1.76388 0
M  V30 23 H 7.59333 -0.0423183 1.83672 0
M  V30 24 H 6.64887 1.38086 1.13137 0
M  V30 25 H 7.83185 -0.546224 -0.418368 0
M  V30 26 H 6.23818 -1.30661 -0.17038 0
M  V30 27 H 6.18062 0.103943 -2.12927 0
M  V30 28 H 6.55595 1.57723 -1.17669 0
M  V30 29 H 0.142568 1.17519 0.381471 0
M  V30 30 H -1.4295 -1.84141 -0.451176 0
M  V30 31 H -1.76602 -0.714836 -1.86832 0
M  V30 32 H -6.7199 -2.08611 -1.99282 0
M  V30 33 H -6.23415 -3.20325 -0.660535 0
M  V30 34 H -7.59216 -0.484468 0.497735 0
M  V30 35 H -7.15772 1.24884 2.80375 0
M  V30 36 H -6.9847 2.55973 1.60167 0
M  V30 END ATOM
M  V30 BEGIN BOND
M  V30 1 1 1 2
M  V30 2 1 2 3
M  V30 3 1 3 4
M  V30 4 2 4 5
M  V30 5 1 5 6
M  V30 6 2 6 7
M  V30 7 1 7 8
M  V30 8 1 7 9
M  V30 9 1 9 10
M  V30 10 2 10 11
M  V30 11 1 10 12
M  V30 12 1 12 13
M  V30 13 1 13 14
M  V30 14 2 14 15
M  V30 15 1 15 16
M  V30 16 1 16 17
M  V30 17 2 16 18
M  V30 18 1 18 19
M  V30 19 2 19 20
M  V30 20 1 19 21
M  V30 21 1 8 4
M  V30 22 1 20 14
M  V30 23 1 1 22
M  V30 24 1 1 23
M  V30 25 1 1 24
M  V30 26 1 2 25
M  V30 27 1 2 26
M  V30 28 1 3 27
M  V30 29 1 3 28
M  V30 30 1 9 29
M  V30 31 1 12 30
M  V30 32 1 12 31
M  V30 33 1 17 32
M  V30 34 1 17 33
M  V30 35 1 18 34
M  V30 36 1 21 35
M  V30 37 1 21 36
M  V30 END BOND
M  V30 END CTAB
M  END
