
     RDKit          3D

  0  0  0  0  0  0  0  0  0  0999 V3000
M  V30 BEGIN CTAB
M  V30 COUNTS 28 28 0 0 0
M  V30 BEGIN ATOM
M  V30 1 C 3.35436 0.101635 -0.443673 0
M  V30 2 C 2.06762 -0.550605 -0.920158 0
M  V30 3 C 0.972994 0.475534 -0.772703 0
M  V30 4 C 0.896536 0.854446 0.691725 0
M  V30 5 C -0.151076 -0.139068 1.21479 0
M  V30 6 C -1.22153 0.0274833 0.145894 0
M  V30 7 C -0.390593 -0.0689011 -1.1155 0
M  V30 8 N -1.8198 1.31489 0.326902 0
M  V30 9 C -2.2621 -1.0584 0.231045 0
M  V30 10 N -3.24157 -0.857229 -0.7909 0
M  V30 11 H 4.22556 -0.233222 -1.04141 0
M  V30 12 H 3.56341 -0.168463 0.62063 0
M  V30 13 H 3.25666 1.21004 -0.449562 0
M  V30 14 H 1.85606 -1.39082 -0.207641 0
M  V30 15 H 2.1826 -0.903054 -1.96019 0
M  V30 16 H 1.20678 1.36197 -1.40448 0
M  V30 17 H 0.413795 1.84903 0.765413 0
M  V30 18 H 1.84519 0.773886 1.21839 0
M  V30 19 H -0.506141 0.131621 2.21753 0
M  V30 20 H 0.264078 -1.17522 1.16094 0
M  V30 21 H -0.29073 -1.1486 -1.35609 0
M  V30 22 H -0.819767 0.461961 -1.96762 0
M  V30 23 H -1.73591 1.95677 -0.472864 0
M  V30 24 H -1.59673 1.7576 1.24492 0
M  V30 25 H -2.71332 -1.04496 1.22472 0
M  V30 26 H -1.78053 -2.05647 0.087143 0
M  V30 27 H -3.62226 0.113951 -0.76005 0
M  V30 28 H -3.9536 -1.5958 -0.865597 0
M  V30 END ATOM
M  V30 BEGIN BOND
M  V30 1 1 1 2
M  V30 2 1 2 3
M  V30 3 1 3 4
M  V30 4 1 4 5
M  V30 5 1 5 6
M  V30 6 1 6 7
M  V30 7 1 6 8
M  V30 8 1 6 9
M  V30 9 1 9 10
M  V30 10 1 7 3
M  V30 11 1 1 11
M  V30 12 1 1 12
M  V30 13 1 1 13
M  V30 14 1 2 14
M  V30 15 1 2 15
M  V30 16 1 3 16
M  V30 17 1 4 17
M  V30 18 1 4 18
M  V30 19 1 5 19
M  V30 20 1 5 20
M  V30 21 1 7 21
M  V30 22 1 7 22
M  V30 23 1 8 23
M  V30 24 1 8 24
M  V30 25 1 9 25
M  V30 26 1 9 26
M  V30 27 1 10 27
M  V30 28 1 10 28
M  V30 END BOND
M  V30 END CTAB
M  END
