
     RDKit          3D

  0  0  0  0  0  0  0  0  0  0999 V3000
M  V30 BEGIN CTAB
M  V30 COUNTS 53 55 0 0 0
M  V30 BEGIN ATOM
M  V30 1 N -8.5052 0.770681 0.692816 0
M  V30 2 C -7.48522 1.76755 0.731038 0
M  V30 3 C -6.16021 1.30397 0.195993 0
M  V30 4 C -6.23918 0.866415 -1.24173 0
M  V30 5 C -4.92536 0.40417 -1.79265 0
M  V30 6 C -4.33707 -0.757182 -1.07044 0
M  V30 7 C -3.04849 -1.14471 -1.67188 0
M  V30 8 O -2.62347 -0.475599 -2.65012 0
M  V30 9 N -2.26472 -2.2321 -1.20329 0
M  V30 10 C -1.0168 -2.60595 -1.78366 0
M  V30 11 C 0.11393 -1.7438 -1.41946 0
M  V30 12 C 1.36183 -2.07306 -1.92426 0
M  V30 13 C 2.48141 -1.32414 -1.63201 0
M  V30 14 C 2.39709 -0.213165 -0.820747 0
M  V30 15 C 1.1689 0.113609 -0.322438 0
M  V30 16 C 0.0305594 -0.638992 -0.61348 0
M  V30 17 C 3.64231 0.557071 -0.533654 0
M  V30 18 O 4.31671 -0.0890905 0.52384 0
M  V30 19 C 5.50258 0.300068 1.08898 0
M  V30 20 N 6.21654 1.37501 0.716048 0
M  V30 21 C 7.37994 1.72676 1.29505 0
M  V30 22 N 8.10276 2.87822 0.86376 0
M  V30 23 N 7.82482 0.93998 2.29774 0
M  V30 24 C 7.15771 -0.150971 2.71998 0
M  V30 25 C 5.97046 -0.510378 2.12941 0
M  V30 26 N 5.49527 -1.61711 2.70984 0
M  V30 27 C 6.37692 -1.96082 3.66614 0
M  V30 28 N 7.38987 -1.0776 3.68073 0
M  V30 29 H -9.23408 1.03732 1.39025 0
M  V30 30 H -8.13331 -0.169606 1.02437 0
M  V30 31 H -7.40084 2.14678 1.76846 0
M  V30 32 H -7.88158 2.64694 0.139211 0
M  V30 33 H -5.47485 2.17865 0.230613 0
M  V30 34 H -5.75739 0.546337 0.865954 0
M  V30 35 H -6.59821 1.69927 -1.88032 0
M  V30 36 H -6.9642 0.0365239 -1.37456 0
M  V30 37 H -4.15614 1.22849 -1.78247 0
M  V30 38 H -5.01086 0.123542 -2.86396 0
M  V30 39 H -4.1131 -0.517949 0.0111679 0
M  V30 40 H -4.99759 -1.66637 -1.13369 0
M  V30 41 H -2.62952 -2.77673 -0.39369 0
M  V30 42 H -1.14616 -2.64012 -2.90684 0
M  V30 43 H -0.726531 -3.65357 -1.50564 0
M  V30 44 H 1.4798 -2.93687 -2.56599 0
M  V30 45 H 3.4544 -1.60211 -2.04105 0
M  V30 46 H 1.05967 0.970472 0.311696 0
M  V30 47 H -0.940369 -0.377833 -0.217624 0
M  V30 48 H 3.41607 1.62112 -0.332057 0
M  V30 49 H 4.32797 0.54314 -1.41919 0
M  V30 50 H 7.63237 3.79487 0.947572 0
M  V30 51 H 9.06813 2.79593 0.479828 0
M  V30 52 H 6.20729 -2.84284 4.2867 0
M  V30 53 H 8.19514 -1.12801 4.32972 0
M  V30 END ATOM
M  V30 BEGIN BOND
M  V30 1 1 1 2
M  V30 2 1 2 3
M  V30 3 1 3 4
M  V30 4 1 4 5
M  V30 5 1 5 6
M  V30 6 1 6 7
M  V30 7 2 7 8
M  V30 8 1 7 9
M  V30 9 1 9 10
M  V30 10 1 10 11
M  V30 11 2 11 12
M  V30 12 1 12 13
M  V30 13 2 13 14
M  V30 14 1 14 15
M  V30 15 2 15 16
M  V30 16 1 14 17
M  V30 17 1 17 18
M  V30 18 1 18 19
M  V30 19 2 19 20
M  V30 20 1 20 21
M  V30 21 1 21 22
M  V30 22 2 21 23
M  V30 23 1 23 24
M  V30 24 2 24 25
M  V30 25 1 25 26
M  V30 26 2 26 27
M  V30 27 1 27 28
M  V30 28 1 16 11
M  V30 29 1 25 19
M  V30 30 1 28 24
M  V30 31 1 1 29
M  V30 32 1 1 30
M  V30 33 1 2 31
M  V30 34 1 2 32
M  V30 35 1 3 33
M  V30 36 1 3 34
M  V30 37 1 4 35
M  V30 38 1 4 36
M  V30 39 1 5 37
M  V30 40 1 5 38
M  V30 41 1 6 39
M  V30 42 1 6 40
M  V30 43 1 9 41
M  V30 44 1 10 42
M  V30 45 1 10 43
M  V30 46 1 12 44
M  V30 47 1 13 45
M  V30 48 1 15 46
M  V30 49 1 16 47
M  V30 50 1 17 48
M  V30 51 1 17 49
M  V30 52 1 22 50
M  V30 53 1 22 51
M  V30 54 1 27 52
M  V30 55 1 28 53
M  V30 END BOND
M  V30 END CTAB
M  END
