
     RDKit          3D

  0  0  0  0  0  0  0  0  0  0999 V3000
M  V30 BEGIN CTAB
M  V30 COUNTS 45 47 0 0 0
M  V30 BEGIN ATOM
M  V30 1 N 1.63242 4.24691 0.294105 0
M  V30 2 C 1.51239 3.02287 -0.382502 0
M  V30 3 S 2.52008 2.73737 -1.61381 0
M  V30 4 C 0.515321 1.99533 -0.0172429 0
M  V30 5 C -0.285662 2.30725 0.988762 0
M  V30 6 N -0.170677 3.58657 1.67958 0
M  V30 7 O -1.25905 1.41593 1.40392 0
M  V30 8 C -1.40723 0.191482 0.777565 0
M  V30 9 C -0.631872 -0.173612 -0.225314 0
M  V30 10 C 0.446982 0.71751 -0.725711 0
M  V30 11 C 1.75241 -0.0277345 -0.588046 0
M  V30 12 C 2.45632 -0.472512 -1.67764 0
M  V30 13 C 3.644 -1.1486 -1.50023 0
M  V30 14 C 4.12666 -1.37884 -0.221266 0
M  V30 15 C 3.43444 -0.940279 0.88193 0
M  V30 16 C 2.24875 -0.266064 0.684563 0
M  V30 17 N 5.34595 -2.07369 -0.0603646 0 CHG=1
M  V30 18 O 6.02095 -2.49702 -1.01831 0
M  V30 19 O 5.84812 -2.31559 1.20534 0 CHG=-1
M  V30 20 C -0.878946 -1.46979 -0.814023 0
M  V30 21 O 0.0606363 -2.19988 -1.20065 0
M  V30 22 C -2.26492 -1.9627 -0.972215 0
M  V30 23 C -3.21147 -1.33539 0.0223919 0
M  V30 24 C -2.46365 -0.780479 1.21693 0
M  V30 25 C -4.2146 -2.3622 0.50344 0
M  V30 26 C -3.97594 -0.184323 -0.596573 0
M  V30 27 H 2.2573 4.32431 1.11876 0
M  V30 28 H 1.10257 5.07756 -0.0290879 0
M  V30 29 H -0.711328 4.41611 1.35089 0
M  V30 30 H 0.437695 3.70376 2.51028 0
M  V30 31 H 0.284201 0.913547 -1.80109 0
M  V30 32 H 2.08472 -0.29574 -2.67541 0
M  V30 33 H 4.20807 -1.50453 -2.35994 0
M  V30 34 H 3.83462 -1.13404 1.86449 0
M  V30 35 H 1.7202 0.0704577 1.57194 0
M  V30 36 H -2.62577 -1.68373 -1.99166 0
M  V30 37 H -2.26777 -3.06782 -0.907077 0
M  V30 38 H -1.98581 -1.64065 1.72679 0
M  V30 39 H -3.12629 -0.265894 1.92229 0
M  V30 40 H -4.34784 -3.18328 -0.247205 0
M  V30 41 H -5.22553 -1.92606 0.664983 0
M  V30 42 H -3.82888 -2.8165 1.44225 0
M  V30 43 H -3.3862 0.371876 -1.34463 0
M  V30 44 H -4.29028 0.551653 0.192923 0
M  V30 45 H -4.93509 -0.54355 -1.05412 0
M  V30 END ATOM
M  V30 BEGIN BOND
M  V30 1 1 1 2
M  V30 2 2 2 3
M  V30 3 1 2 4
M  V30 4 2 4 5
M  V30 5 1 5 6
M  V30 6 1 5 7
M  V30 7 1 7 8
M  V30 8 2 8 9
M  V30 9 1 9 10
M  V30 10 1 10 11
M  V30 11 2 11 12
M  V30 12 1 12 13
M  V30 13 2 13 14
M  V30 14 1 14 15
M  V30 15 2 15 16
M  V30 16 1 14 17
M  V30 17 2 17 18
M  V30 18 1 17 19
M  V30 19 1 9 20
M  V30 20 2 20 21
M  V30 21 1 20 22
M  V30 22 1 22 23
M  V30 23 1 23 24
M  V30 24 1 23 25
M  V30 25 1 23 26
M  V30 26 1 10 4
M  V30 27 1 16 11
M  V30 28 1 24 8
M  V30 29 1 1 27
M  V30 30 1 1 28
M  V30 31 1 6 29
M  V30 32 1 6 30
M  V30 33 1 10 31
M  V30 34 1 12 32
M  V30 35 1 13 33
M  V30 36 1 15 34
M  V30 37 1 16 35
M  V30 38 1 22 36
M  V30 39 1 22 37
M  V30 40 1 24 38
M  V30 41 1 24 39
M  V30 42 1 25 40
M  V30 43 1 25 41
M  V30 44 1 25 42
M  V30 45 1 26 43
M  V30 46 1 26 44
M  V30 47 1 26 45
M  V30 END BOND
M  V30 END CTAB
M  END
