
     RDKit          3D

  0  0  0  0  0  0  0  0  0  0999 V3000
M  V30 BEGIN CTAB
M  V30 COUNTS 38 39 0 0 0
M  V30 BEGIN ATOM
M  V30 1 C -5.9761 0.952696 -0.813787 0
M  V30 2 O -4.59729 0.876048 -0.720469 0
M  V30 3 C -4.2738 0.532862 0.583833 0
M  V30 4 C -2.74997 0.445709 0.696291 0
M  V30 5 C -2.30092 -0.599999 -0.261367 0
M  V30 6 N -0.928812 -0.874111 -0.344713 0
M  V30 7 C -0.213884 -1.24164 0.814788 0
M  V30 8 C 0.840187 -0.293523 1.25908 0 CFG=2
M  V30 9 N 0.476731 1.08114 1.32917 0
M  V30 10 C 2.01943 -0.389927 0.307989 0
M  V30 11 C 1.67179 -0.229057 -1.01145 0
M  V30 12 S -0.0250669 0.0433494 -1.46793 0
M  V30 13 O -0.177942 -0.529506 -2.85126 0
M  V30 14 O -0.371737 1.48016 -1.52286 0
M  V30 15 S 3.1578 -0.370762 -1.83369 0
M  V30 16 C 4.18376 -0.629974 -0.495773 0
M  V30 17 C 3.32343 -0.597232 0.564251 0
M  V30 18 S 5.94215 -0.883702 -0.462821 0
M  V30 19 O 6.34931 -0.935062 0.964169 0
M  V30 20 O 6.28458 -2.09722 -1.23872 0
M  V30 21 N 6.70764 0.522965 -1.16299 0
M  V30 22 H -6.481 3.38523e-05 -0.567549 0
M  V30 23 H -6.34244 1.72483 -0.104325 0
M  V30 24 H -6.25664 1.31772 -1.83411 0
M  V30 25 H -4.70986 -0.442964 0.88772 0
M  V30 26 H -4.67975 1.32124 1.24877 0
M  V30 27 H -2.52452 0.20263 1.75296 0
M  V30 28 H -2.38926 1.44883 0.38743 0
M  V30 29 H -2.83119 -1.55491 0.029982 0
M  V30 30 H -2.69041 -0.305541 -1.27368 0
M  V30 31 H 0.307034 -2.22176 0.59586 0
M  V30 32 H -0.86447 -1.46477 1.68425 0
M  V30 33 H 1.17087 -0.599968 2.2737 0
M  V30 34 H 0.0827707 1.38875 2.22813 0
M  V30 35 H 1.26256 1.70927 1.03453 0
M  V30 36 H 3.71718 -0.740646 1.59871 0
M  V30 37 H 7.70555 0.55787 -0.935555 0
M  V30 38 H 6.1823 1.39617 -0.866358 0
M  V30 END ATOM
M  V30 BEGIN BOND
M  V30 1 1 1 2
M  V30 2 1 2 3
M  V30 3 1 3 4
M  V30 4 1 4 5
M  V30 5 1 5 6
M  V30 6 1 6 7
M  V30 7 1 7 8
M  V30 8 1 8 9
M  V30 9 1 8 10
M  V30 10 2 10 11
M  V30 11 1 11 12
M  V30 12 2 12 13
M  V30 13 2 12 14
M  V30 14 1 11 15
M  V30 15 1 15 16
M  V30 16 2 16 17
M  V30 17 1 16 18
M  V30 18 2 18 19
M  V30 19 2 18 20
M  V30 20 1 18 21
M  V30 21 1 12 6
M  V30 22 1 17 10
M  V30 23 1 1 22
M  V30 24 1 1 23
M  V30 25 1 1 24
M  V30 26 1 3 25
M  V30 27 1 3 26
M  V30 28 1 4 27
M  V30 29 1 4 28
M  V30 30 1 5 29
M  V30 31 1 5 30
M  V30 32 1 7 31
M  V30 33 1 7 32
M  V30 34 1 8 33 CFG=1
M  V30 35 1 9 34
M  V30 36 1 9 35
M  V30 37 1 17 36
M  V30 38 1 21 37
M  V30 39 1 21 38
M  V30 END BOND
M  V30 END CTAB
M  END
