
     RDKit          3D

  0  0  0  0  0  0  0  0  0  0999 V3000
M  V30 BEGIN CTAB
M  V30 COUNTS 34 35 0 0 0
M  V30 BEGIN ATOM
M  V30 1 N -4.32516 1.8353 0.466409 0
M  V30 2 C -3.5595 1.15003 -0.500995 0
M  V30 3 N -4.07262 0.964639 -1.72937 0
M  V30 4 C -3.35564 0.31395 -2.66135 0
M  V30 5 C -2.09379 -0.17734 -2.39802 0
M  V30 6 C -1.53548 -0.00635339 -1.15094 0
M  V30 7 C -2.28868 0.663797 -0.210931 0
M  V30 8 C -0.181633 -0.526161 -0.847084 0 CFG=2
M  V30 9 C -0.282368 -1.571 0.271335 0
M  V30 10 O 0.963271 -1.57867 0.920045 0
M  V30 11 C 1.98177 -2.01517 0.111214 0
M  V30 12 C 2.48128 -1.00141 -0.863446 0
M  V30 13 N 2.10124 0.341772 -0.590851 0
M  V30 14 C 0.727173 0.560406 -0.327703 0
M  V30 15 S 3.15893 1.14595 0.49301 0
M  V30 16 O 4.53146 1.30683 -0.04217 0
M  V30 17 O 2.59655 2.5419 0.703647 0
M  V30 18 N 3.19069 0.367716 2.01953 0
M  V30 19 H -3.86322 2.33833 1.23624 0
M  V30 20 H -5.35269 1.82939 0.397783 0
M  V30 21 H -3.82293 0.194426 -3.63642 0
M  V30 22 H -1.57652 -0.691389 -3.20019 0
M  V30 23 H -1.92065 0.833737 0.777567 0
M  V30 24 H 0.206236 -1.01507 -1.7487 0
M  V30 25 H -0.559539 -2.55525 -0.109549 0
M  V30 26 H -1.00429 -1.15267 1.00226 0
M  V30 27 H 2.80403 -2.38177 0.793623 0
M  V30 28 H 1.67484 -2.94488 -0.45217 0
M  V30 29 H 3.61 -1.03969 -0.835252 0
M  V30 30 H 2.23667 -1.31939 -1.91942 0
M  V30 31 H 0.42301 1.53042 -0.786272 0
M  V30 32 H 0.52481 0.660331 0.757395 0
M  V30 33 H 4.11671 0.625891 2.4752 0
M  V30 34 H 2.46604 0.771422 2.67063 0
M  V30 END ATOM
M  V30 BEGIN BOND
M  V30 1 1 1 2
M  V30 2 2 2 3
M  V30 3 1 3 4
M  V30 4 2 4 5
M  V30 5 1 5 6
M  V30 6 2 6 7
M  V30 7 1 6 8
M  V30 8 1 8 9
M  V30 9 1 9 10
M  V30 10 1 10 11
M  V30 11 1 11 12
M  V30 12 1 12 13
M  V30 13 1 13 14
M  V30 14 1 13 15
M  V30 15 2 15 16
M  V30 16 2 15 17
M  V30 17 1 15 18
M  V30 18 1 7 2
M  V30 19 1 14 8
M  V30 20 1 1 19
M  V30 21 1 1 20
M  V30 22 1 4 21
M  V30 23 1 5 22
M  V30 24 1 7 23
M  V30 25 1 8 24 CFG=3
M  V30 26 1 9 25
M  V30 27 1 9 26
M  V30 28 1 11 27
M  V30 29 1 11 28
M  V30 30 1 12 29
M  V30 31 1 12 30
M  V30 32 1 14 31
M  V30 33 1 14 32
M  V30 34 1 18 33
M  V30 35 1 18 34
M  V30 END BOND
M  V30 END CTAB
M  END
