
     RDKit          3D

  0  0  0  0  0  0  0  0  0  0999 V3000
M  V30 BEGIN CTAB
M  V30 COUNTS 29 30 0 0 0
M  V30 BEGIN ATOM
M  V30 1 C 3.59891 -0.18826 1.33006 0
M  V30 2 C 2.62719 0.000197525 0.2191 0
M  V30 3 C 3.01399 0.761018 -0.868286 0
M  V30 4 C 2.09703 0.921725 -1.88372 0
M  V30 5 C 0.855498 0.338308 -1.79313 0
M  V30 6 C 0.455247 -0.417696 -0.724189 0
M  V30 7 C 1.38287 -0.580649 0.303129 0
M  V30 8 C -0.883401 -0.994327 -0.702205 0
M  V30 9 C -1.90981 -0.225739 -0.00262582 0
M  V30 10 C -2.58574 0.889976 -0.438227 0
M  V30 11 N -2.49398 1.59441 -1.67048 0
M  V30 12 N -3.42722 1.23398 0.584621 0
M  V30 13 N -3.27663 0.384317 1.58203 0
M  V30 14 C -2.3507 -0.540277 1.27402 0
M  V30 15 N -1.94321 -1.60216 2.12618 0
M  V30 16 H 3.04085 -0.417077 2.25923 0
M  V30 17 H 4.32636 -0.99632 1.10095 0
M  V30 18 H 4.17952 0.752116 1.41092 0
M  V30 19 H 4.00897 1.20479 -0.897525 0
M  V30 20 H 2.39697 1.51426 -2.73071 0
M  V30 21 H 0.163253 0.488706 -2.624 0
M  V30 22 H 1.0515 -1.1821 1.14285 0
M  V30 23 H -1.23341 -1.0925 -1.77329 0
M  V30 24 H -0.793919 -2.04413 -0.353388 0
M  V30 25 H -3.2707 1.53279 -2.39606 0
M  V30 26 H -1.67757 2.18266 -1.89281 0
M  V30 27 H -3.82611 0.46465 2.46793 0
M  V30 28 H -1.24227 -1.39787 2.88404 0
M  V30 29 H -2.28347 -2.58479 2.06558 0
M  V30 END ATOM
M  V30 BEGIN BOND
M  V30 1 1 1 2
M  V30 2 2 2 3
M  V30 3 1 3 4
M  V30 4 2 4 5
M  V30 5 1 5 6
M  V30 6 2 6 7
M  V30 7 1 6 8
M  V30 8 1 8 9
M  V30 9 1 9 10
M  V30 10 1 10 11
M  V30 11 2 10 12
M  V30 12 1 12 13
M  V30 13 1 13 14
M  V30 14 1 14 15
M  V30 15 1 7 2
M  V30 16 2 14 9
M  V30 17 1 1 16
M  V30 18 1 1 17
M  V30 19 1 1 18
M  V30 20 1 3 19
M  V30 21 1 4 20
M  V30 22 1 5 21
M  V30 23 1 7 22
M  V30 24 1 8 23
M  V30 25 1 8 24
M  V30 26 1 11 25
M  V30 27 1 11 26
M  V30 28 1 13 27
M  V30 29 1 15 28
M  V30 30 1 15 29
M  V30 END BOND
M  V30 END CTAB
M  END
