
     RDKit          3D

  0  0  0  0  0  0  0  0  0  0999 V3000
M  V30 BEGIN CTAB
M  V30 COUNTS 25 25 0 0 0
M  V30 BEGIN ATOM
M  V30 1 C 3.90563 -0.190135 -0.480849 0
M  V30 2 O 2.53654 0.163184 -0.535983 0
M  V30 3 C 1.51823 -0.617779 -0.0543919 0
M  V30 4 O 1.79618 -1.72201 0.473767 0
M  V30 5 C 0.10826 -0.233517 -0.121398 0
M  V30 6 C -0.391433 0.932155 -0.660583 0
M  V30 7 S 0.568421 2.26165 -1.41161 0
M  V30 8 C 1.06117 3.491 -0.189278 0
M  V30 9 N -1.71843 0.892654 -0.522782 0
M  V30 10 N -2.10105 -0.220136 0.0683958 0
M  V30 11 C -0.979615 -0.928414 0.323275 0
M  V30 12 N -0.962029 -2.21491 0.965833 0
M  V30 13 C -3.42744 -0.630978 0.39206 0
M  V30 14 S -4.34621 0.278219 1.36465 0
M  V30 15 N -3.91241 -1.83646 -0.151161 0
M  V30 16 H 4.21702 -0.832122 -1.32836 0
M  V30 17 H 4.50423 0.741308 -0.531834 0
M  V30 18 H 4.16979 -0.690744 0.479403 0
M  V30 19 H 0.286362 4.26428 -0.0189751 0
M  V30 20 H 1.2121 2.98406 0.788243 0
M  V30 21 H 2.03547 3.91355 -0.497682 0
M  V30 22 H -0.987343 -2.23734 2.00266 0
M  V30 23 H -0.924578 -3.05784 0.348833 0
M  V30 24 H -4.23479 -1.83391 -1.14471 0
M  V30 25 H -3.93409 -2.67578 0.442478 0
M  V30 END ATOM
M  V30 BEGIN BOND
M  V30 1 1 1 2
M  V30 2 1 2 3
M  V30 3 2 3 4
M  V30 4 1 3 5
M  V30 5 1 5 6
M  V30 6 1 6 7
M  V30 7 1 7 8
M  V30 8 2 6 9
M  V30 9 1 9 10
M  V30 10 1 10 11
M  V30 11 1 11 12
M  V30 12 1 10 13
M  V30 13 2 13 14
M  V30 14 1 13 15
M  V30 15 2 11 5
M  V30 16 1 1 16
M  V30 17 1 1 17
M  V30 18 1 1 18
M  V30 19 1 8 19
M  V30 20 1 8 20
M  V30 21 1 8 21
M  V30 22 1 12 22
M  V30 23 1 12 23
M  V30 24 1 15 24
M  V30 25 1 15 25
M  V30 END BOND
M  V30 END CTAB
M  END
