
     RDKit          3D

  0  0  0  0  0  0  0  0  0  0999 V3000
M  V30 BEGIN CTAB
M  V30 COUNTS 30 30 0 0 0
M  V30 BEGIN ATOM
M  V30 1 C -3.34059 2.87209 -0.219755 0
M  V30 2 O -2.90191 1.56386 -0.391137 0
M  V30 3 C -1.67392 1.05774 -0.0637309 0
M  V30 4 C -0.70006 1.84233 0.499224 0
M  V30 5 C 0.512909 1.25682 0.80074 0
M  V30 6 C 0.788316 -0.0726635 0.56319 0
M  V30 7 C -0.224408 -0.833413 -0.00813102 0
M  V30 8 C -1.45326 -0.293335 -0.327169 0
M  V30 9 O -2.47624 -1.07006 -0.906385 0
M  V30 10 C -2.20497 -2.42788 -1.15274 0
M  V30 11 C 2.10706 -0.688847 0.896218 0
M  V30 12 N 1.8747 -1.95895 1.54778 0
M  V30 13 C 2.8776 -0.829703 -0.388915 0
M  V30 14 N 3.04124 0.500879 -0.94871 0
M  V30 15 H -3.19822 3.49415 -1.13854 0
M  V30 16 H -2.84435 3.42144 0.607422 0
M  V30 17 H -4.44247 2.93622 0.0151158 0
M  V30 18 H -0.876289 2.89348 0.702478 0
M  V30 19 H 1.28604 1.86672 1.24434 0
M  V30 20 H -0.0193466 -1.89683 -0.203831 0
M  V30 21 H -1.25339 -2.55557 -1.6887 0
M  V30 22 H -2.99846 -2.83206 -1.82301 0
M  V30 23 H -2.27008 -3.04203 -0.219945 0
M  V30 24 H 2.66551 -0.0306803 1.56581 0
M  V30 25 H 1.5362 -1.72434 2.52679 0
M  V30 26 H 2.83404 -2.38928 1.70975 0
M  V30 27 H 2.34663 -1.50115 -1.11395 0
M  V30 28 H 3.90477 -1.20173 -0.171913 0
M  V30 29 H 3.37578 1.12743 -0.186168 0
M  V30 30 H 3.72715 0.515386 -1.72612 0
M  V30 END ATOM
M  V30 BEGIN BOND
M  V30 1 1 1 2
M  V30 2 1 2 3
M  V30 3 2 3 4
M  V30 4 1 4 5
M  V30 5 2 5 6
M  V30 6 1 6 7
M  V30 7 2 7 8
M  V30 8 1 8 9
M  V30 9 1 9 10
M  V30 10 1 6 11
M  V30 11 1 11 12
M  V30 12 1 11 13
M  V30 13 1 13 14
M  V30 14 1 8 3
M  V30 15 1 1 15
M  V30 16 1 1 16
M  V30 17 1 1 17
M  V30 18 1 4 18
M  V30 19 1 5 19
M  V30 20 1 7 20
M  V30 21 1 10 21
M  V30 22 1 10 22
M  V30 23 1 10 23
M  V30 24 1 11 24
M  V30 25 1 12 25
M  V30 26 1 12 26
M  V30 27 1 13 27
M  V30 28 1 13 28
M  V30 29 1 14 29
M  V30 30 1 14 30
M  V30 END BOND
M  V30 END CTAB
M  END
