
     RDKit          3D

  0  0  0  0  0  0  0  0  0  0999 V3000
M  V30 BEGIN CTAB
M  V30 COUNTS 31 31 0 0 0
M  V30 BEGIN ATOM
M  V30 1 C 4.28511 -0.506385 1.17276 0
M  V30 2 C 3.91569 -0.748188 -0.267291 0
M  V30 3 O 2.82714 0.00233557 -0.725003 0
M  V30 4 C 1.56176 -0.0823987 -0.192801 0
M  V30 5 O 1.32099 -0.849759 0.740903 0
M  V30 6 C 0.492715 0.765355 -0.761998 0
M  V30 7 C -0.806305 0.581439 -0.116438 0
M  V30 8 C -1.08572 1.12465 1.14343 0
M  V30 9 N -0.0988376 1.88242 1.82149 0
M  V30 10 C -2.29829 0.946516 1.75398 0
M  V30 11 C -3.27332 0.213732 1.11562 0
M  V30 12 C -3.02249 -0.336564 -0.135894 0
M  V30 13 C -1.78813 -0.1463 -0.740805 0
M  V30 14 C -1.54372 -0.723774 -2.07077 0
M  V30 15 F -0.449116 -1.60238 -2.08819 0
M  V30 16 F -1.51265 0.173204 -3.1009 0
M  V30 17 F -2.60538 -1.59256 -2.41282 0
M  V30 18 N -4.03979 -1.08225 -0.767584 0
M  V30 19 H 5.00576 0.361808 1.19166 0
M  V30 20 H 3.44175 -0.358145 1.8387 0
M  V30 21 H 4.87605 -1.3824 1.51952 0
M  V30 22 H 4.79954 -0.441245 -0.902299 0
M  V30 23 H 3.75825 -1.85151 -0.450966 0
M  V30 24 H 0.507267 0.746233 -1.8528 0
M  V30 25 H 0.826027 1.82295 -0.507365 0
M  V30 26 H 0.498214 1.49295 2.58457 0
M  V30 27 H 0.0471142 2.87972 1.55325 0
M  V30 28 H -2.53484 1.35616 2.72357 0
M  V30 29 H -4.25754 0.0436462 1.56312 0
M  V30 30 H -4.65992 -0.603546 -1.44714 0
M  V30 31 H -4.18733 -2.0857 -0.573741 0
M  V30 END ATOM
M  V30 BEGIN BOND
M  V30 1 1 1 2
M  V30 2 1 2 3
M  V30 3 1 3 4
M  V30 4 2 4 5
M  V30 5 1 4 6
M  V30 6 1 6 7
M  V30 7 2 7 8
M  V30 8 1 8 9
M  V30 9 1 8 10
M  V30 10 2 10 11
M  V30 11 1 11 12
M  V30 12 2 12 13
M  V30 13 1 13 14
M  V30 14 1 14 15
M  V30 15 1 14 16
M  V30 16 1 14 17
M  V30 17 1 12 18
M  V30 18 1 13 7
M  V30 19 1 1 19
M  V30 20 1 1 20
M  V30 21 1 1 21
M  V30 22 1 2 22
M  V30 23 1 2 23
M  V30 24 1 6 24
M  V30 25 1 6 25
M  V30 26 1 9 26
M  V30 27 1 9 27
M  V30 28 1 10 28
M  V30 29 1 11 29
M  V30 30 1 18 30
M  V30 31 1 18 31
M  V30 END BOND
M  V30 END CTAB
M  END
