
     RDKit          3D

  0  0  0  0  0  0  0  0  0  0999 V3000
M  V30 BEGIN CTAB
M  V30 COUNTS 28 29 0 0 0
M  V30 BEGIN ATOM
M  V30 1 N 0.467403 3.41155 -0.561889 0
M  V30 2 C -0.199437 2.49452 -0.327563 0
M  V30 3 C -1.02101 1.32524 -0.0208229 0
M  V30 4 C -2.25287 1.37371 -0.495711 0
M  V30 5 N -2.73204 2.49379 -1.25219 0
M  V30 6 S -3.31142 0.000562754 -0.164707 0
M  V30 7 C -2.26523 -1.34881 0.375754 0
M  V30 8 C -1.04314 -1.04147 0.741028 0
M  V30 9 C -0.415279 0.275105 0.765117 0
M  V30 10 C 0.999449 0.071751 0.302046 0
M  V30 11 C 1.32486 -0.0896362 -1.02216 0
M  V30 12 Cl 0.072518 -0.13736 -2.24533 0
M  V30 13 C 2.65661 -0.248689 -1.44487 0
M  V30 14 C 3.65926 -0.243758 -0.510663 0
M  V30 15 C 3.32713 -0.0812905 0.827524 0
M  V30 16 C 2.0351 0.0733559 1.2354 0
M  V30 17 Cl 1.63971 0.280412 2.90445 0
M  V30 18 C -0.207423 -2.15613 1.17754 0
M  V30 19 N 0.442849 -3.05421 1.51258 0
M  V30 20 N -2.7658 -2.66229 0.393886 0
M  V30 21 H -3.56738 3.01591 -0.936258 0
M  V30 22 H -2.2251 2.76198 -2.11246 0
M  V30 23 H -0.367719 0.587911 1.8432 0
M  V30 24 H 2.85366 -0.372043 -2.5102 0
M  V30 25 H 4.67784 -0.365112 -0.830318 0
M  V30 26 H 4.11263 -0.0778435 1.5591 0
M  V30 27 H -3.49309 -2.92772 1.07282 0
M  V30 28 H -2.40208 -3.35945 -0.27529 0
M  V30 END ATOM
M  V30 BEGIN BOND
M  V30 1 3 1 2
M  V30 2 1 2 3
M  V30 3 2 3 4
M  V30 4 1 4 5
M  V30 5 1 4 6
M  V30 6 1 6 7
M  V30 7 2 7 8
M  V30 8 1 8 9
M  V30 9 1 9 10
M  V30 10 2 10 11
M  V30 11 1 11 12
M  V30 12 1 11 13
M  V30 13 2 13 14
M  V30 14 1 14 15
M  V30 15 2 15 16
M  V30 16 1 16 17
M  V30 17 1 8 18
M  V30 18 3 18 19
M  V30 19 1 7 20
M  V30 20 1 9 3
M  V30 21 1 16 10
M  V30 22 1 5 21
M  V30 23 1 5 22
M  V30 24 1 9 23
M  V30 25 1 13 24
M  V30 26 1 14 25
M  V30 27 1 15 26
M  V30 28 1 20 27
M  V30 29 1 20 28
M  V30 END BOND
M  V30 END CTAB
M  END
