
     RDKit          3D

  0  0  0  0  0  0  0  0  0  0999 V3000
M  V30 BEGIN CTAB
M  V30 COUNTS 20 21 0 0 0
M  V30 BEGIN ATOM
M  V30 1 N -3.07211 -0.321556 -0.112203 0
M  V30 2 C -1.67819 -0.486268 0.134359 0
M  V30 3 C -1.17579 -1.54832 0.857699 0
M  V30 4 C 0.18502 -1.65477 1.06393 0
M  V30 5 C 1.07298 -0.723339 0.565143 0
M  V30 6 N 2.39474 -0.793391 0.744339 0
M  V30 7 C 3.26647 0.112008 0.260341 0
M  V30 8 C 2.75101 1.17075 -0.462235 0
M  V30 9 N 1.40671 1.27499 -0.66536 0
M  V30 10 C 0.575202 0.341754 -0.159643 0
M  V30 11 C -0.79937 0.444547 -0.364966 0
M  V30 12 N -1.2704 1.53865 -1.10537 0
M  V30 13 H -3.73777 -0.683434 0.604691 0
M  V30 14 H -3.44305 0.140958 -0.971051 0
M  V30 15 H -1.89174 -2.26251 1.23658 0
M  V30 16 H 0.582969 -2.48803 1.63183 0
M  V30 17 H 4.3349 0.0409927 0.414278 0
M  V30 18 H 3.39824 1.94236 -0.884497 0
M  V30 19 H -0.837505 2.48695 -1.00189 0
M  V30 20 H -2.06229 1.46765 -1.78598 0
M  V30 END ATOM
M  V30 BEGIN BOND
M  V30 1 1 1 2
M  V30 2 2 2 3
M  V30 3 1 3 4
M  V30 4 2 4 5
M  V30 5 1 5 6
M  V30 6 2 6 7
M  V30 7 1 7 8
M  V30 8 2 8 9
M  V30 9 1 9 10
M  V30 10 2 10 11
M  V30 11 1 11 12
M  V30 12 1 11 2
M  V30 13 1 10 5
M  V30 14 1 1 13
M  V30 15 1 1 14
M  V30 16 1 3 15
M  V30 17 1 4 16
M  V30 18 1 7 17
M  V30 19 1 8 18
M  V30 20 1 12 19
M  V30 21 1 12 20
M  V30 END BOND
M  V30 END CTAB
M  END
