
     RDKit          3D

  0  0  0  0  0  0  0  0  0  0999 V3000
M  V30 BEGIN CTAB
M  V30 COUNTS 74 79 0 0 0
M  V30 BEGIN ATOM
M  V30 1 C -7.50489 -1.08606 2.52619 0
M  V30 2 C -6.82977 -0.583325 1.2763 0
M  V30 3 C -5.44871 -0.58063 1.27397 0
M  V30 4 C -4.70018 -1.05604 2.46064 0
M  V30 5 C -4.84406 -0.117515 0.121983 0
M  V30 6 N -3.44571 -0.0983177 0.0769076 0
M  V30 7 C -2.7797 1.0241 0.346833 0
M  V30 8 O -3.37409 2.12808 0.656951 0
M  V30 9 C -1.40339 1.05818 0.306573 0
M  V30 10 C -0.728411 2.21934 0.586427 0
M  V30 11 C 0.637227 2.26023 0.548472 0
M  V30 12 C 1.36849 1.13616 0.228206 0
M  V30 13 C 2.7477 1.15183 0.18325 0
M  V30 14 O 3.29389 2.28819 0.461223 0
M  V30 15 N 3.45193 0.064892 -0.126258 0
M  V30 16 C 2.81451 -1.07464 -0.401801 0
M  V30 17 O 3.4399 -2.16268 -0.708781 0
M  V30 18 C 1.44074 -1.15881 -0.374961 0
M  V30 19 C 0.707769 -0.0387658 -0.0557758 0
M  V30 20 C -0.660763 -0.0631819 -0.0133971 0
M  V30 21 C -1.38959 -1.20881 -0.28716 0
M  V30 22 C -0.664962 -2.34183 -0.609449 0
M  V30 23 C 0.714499 -2.29752 -0.647039 0
M  V30 24 C -2.76607 -1.20061 -0.235826 0
M  V30 25 O -3.3399 -2.32455 -0.509444 0
M  V30 26 C 4.85064 0.11383 -0.163212 0
M  V30 27 C 5.45598 0.33403 -1.38621 0
M  V30 28 C 4.69941 0.519691 -2.64837 0
M  V30 29 C 6.83761 0.37497 -1.38233 0
M  V30 30 C 7.50942 0.614399 -2.71001 0
M  V30 31 C 7.59699 0.208661 -0.237082 0
M  V30 32 N 9.02159 0.26251 -0.303742 0
M  V30 33 C 6.91352 -0.00718082 0.945311 0
M  V30 34 C 7.74528 -0.187735 2.18843 0
M  V30 35 C 5.53483 -0.0617871 1.02484 0
M  V30 36 C 4.86263 -0.29668 2.32535 0
M  V30 37 C -5.53392 0.327498 -0.988947 0
M  V30 38 C -4.87031 0.822666 -2.22029 0
M  V30 39 C -6.91277 0.292747 -0.906776 0
M  V30 40 C -7.679 0.766403 -2.08995 0
M  V30 41 C -7.59703 -0.155626 0.208264 0
M  V30 42 N -9.01884 -0.169901 0.239056 0
M  V30 43 H -6.92678 -0.725251 3.40117 0
M  V30 44 H -7.51323 -2.19291 2.49809 0
M  V30 45 H -8.56323 -0.757703 2.56167 0
M  V30 46 H -4.85472 -0.377731 3.35105 0
M  V30 47 H -5.21506 -2.01153 2.7844 0
M  V30 48 H -3.67188 -1.32732 2.28739 0
M  V30 49 H -1.32277 3.09116 0.835736 0
M  V30 50 H 1.17418 3.16971 0.767429 0
M  V30 51 H -1.22677 -3.23422 -0.822935 0
M  V30 52 H 1.25852 -3.19141 -0.900425 0
M  V30 53 H 3.70977 0.977067 -2.51505 0
M  V30 54 H 5.27461 1.25331 -3.26692 0
M  V30 55 H 4.68154 -0.408609 -3.26533 0
M  V30 56 H 8.51676 0.162653 -2.70216 0
M  V30 57 H 6.91695 0.026908 -3.45652 0
M  V30 58 H 7.50287 1.67085 -2.97626 0
M  V30 59 H 9.61306 -0.594812 -0.241984 0
M  V30 60 H 9.45563 1.20409 -0.41802 0
M  V30 61 H 7.84234 0.813679 2.65635 0
M  V30 62 H 8.76603 -0.518946 1.92183 0
M  V30 63 H 7.25232 -0.880736 2.89911 0
M  V30 64 H 5.503 0.142283 3.13109 0
M  V30 65 H 3.8915 0.208898 2.42644 0
M  V30 66 H 4.8179 -1.38769 2.58182 0
M  V30 67 H -3.86932 0.417776 -2.3878 0
M  V30 68 H -5.47922 0.448797 -3.09114 0
M  V30 69 H -4.92561 1.9293 -2.30949 0
M  V30 70 H -7.82778 -0.00498708 -2.8522 0
M  V30 71 H -7.15951 1.6407 -2.52708 0
M  V30 72 H -8.66002 1.13065 -1.72016 0
M  V30 73 H -9.56824 0.166519 1.04598 0
M  V30 74 H -9.54531 -0.536703 -0.590151 0
M  V30 END ATOM
M  V30 BEGIN BOND
M  V30 1 1 1 2
M  V30 2 2 2 3
M  V30 3 1 3 4
M  V30 4 1 3 5
M  V30 5 1 5 6
M  V30 6 1 6 7
M  V30 7 2 7 8
M  V30 8 1 7 9
M  V30 9 2 9 10
M  V30 10 1 10 11
M  V30 11 2 11 12
M  V30 12 1 12 13
M  V30 13 2 13 14
M  V30 14 1 13 15
M  V30 15 1 15 16
M  V30 16 2 16 17
M  V30 17 1 16 18
M  V30 18 1 18 19
M  V30 19 2 19 20
M  V30 20 1 20 21
M  V30 21 2 21 22
M  V30 22 1 22 23
M  V30 23 1 21 24
M  V30 24 2 24 25
M  V30 25 1 15 26
M  V30 26 2 26 27
M  V30 27 1 27 28
M  V30 28 1 27 29
M  V30 29 1 29 30
M  V30 30 2 29 31
M  V30 31 1 31 32
M  V30 32 1 31 33
M  V30 33 1 33 34
M  V30 34 2 33 35
M  V30 35 1 35 36
M  V30 36 2 5 37
M  V30 37 1 37 38
M  V30 38 1 37 39
M  V30 39 1 39 40
M  V30 40 2 39 41
M  V30 41 1 41 42
M  V30 42 1 41 2
M  V30 43 1 24 6
M  V30 44 1 35 26
M  V30 45 1 20 9
M  V30 46 1 19 12
M  V30 47 2 23 18
M  V30 48 1 1 43
M  V30 49 1 1 44
M  V30 50 1 1 45
M  V30 51 1 4 46
M  V30 52 1 4 47
M  V30 53 1 4 48
M  V30 54 1 10 49
M  V30 55 1 11 50
M  V30 56 1 22 51
M  V30 57 1 23 52
M  V30 58 1 28 53
M  V30 59 1 28 54
M  V30 60 1 28 55
M  V30 61 1 30 56
M  V30 62 1 30 57
M  V30 63 1 30 58
M  V30 64 1 32 59
M  V30 65 1 32 60
M  V30 66 1 34 61
M  V30 67 1 34 62
M  V30 68 1 34 63
M  V30 69 1 36 64
M  V30 70 1 36 65
M  V30 71 1 36 66
M  V30 72 1 38 67
M  V30 73 1 38 68
M  V30 74 1 38 69
M  V30 75 1 40 70
M  V30 76 1 40 71
M  V30 77 1 40 72
M  V30 78 1 42 73
M  V30 79 1 42 74
M  V30 END BOND
M  V30 END CTAB
M  END
