
     RDKit          3D

  0  0  0  0  0  0  0  0  0  0999 V3000
M  V30 BEGIN CTAB
M  V30 COUNTS 28 29 0 0 0
M  V30 BEGIN ATOM
M  V30 1 N 2.59712 1.6675 -0.261652 0
M  V30 2 C 2.25561 0.496545 0.517213 0
M  V30 3 C 1.06234 -0.230893 -0.0848401 0
M  V30 4 N 1.44143 -0.619826 -1.42332 0
M  V30 5 C 0.659163 -1.38525 0.777604 0
M  V30 6 C -0.628126 -0.998569 1.46494 0
M  V30 7 N -0.904391 0.365426 1.10631 0
M  V30 8 C -0.171557 0.622263 -0.108827 0
M  V30 9 C -1.11416 0.041899 -1.15579 0
M  V30 10 C -2.49867 0.362491 -0.651289 0
M  V30 11 C -2.30149 0.490652 0.817993 0
M  V30 12 H 1.96827 1.85231 -1.04685 0
M  V30 13 H 3.61256 1.73887 -0.476342 0
M  V30 14 H 2.1207 0.705008 1.58934 0
M  V30 15 H 3.1155 -0.214747 0.422944 0
M  V30 16 H 1.01141 -1.49287 -1.74928 0
M  V30 17 H 1.37359 0.184365 -2.06138 0
M  V30 18 H 0.510695 -2.30789 0.148514 0
M  V30 19 H 1.4342 -1.57055 1.56003 0
M  V30 20 H -1.4743 -1.6606 1.17443 0
M  V30 21 H -0.544591 -1.06434 2.57343 0
M  V30 22 H 0.0111517 1.67898 -0.309172 0
M  V30 23 H -0.991106 -1.0467 -1.12469 0
M  V30 24 H -0.878535 0.512874 -2.11326 0
M  V30 25 H -2.85999 1.27923 -1.14992 0
M  V30 26 H -3.16847 -0.477805 -0.945113 0
M  V30 27 H -2.87677 -0.34796 1.30911 0
M  V30 28 H -2.76161 1.41956 1.19987 0
M  V30 END ATOM
M  V30 BEGIN BOND
M  V30 1 1 1 2
M  V30 2 1 2 3
M  V30 3 1 3 4
M  V30 4 1 3 5
M  V30 5 1 5 6
M  V30 6 1 6 7
M  V30 7 1 7 8
M  V30 8 1 8 9
M  V30 9 1 9 10
M  V30 10 1 10 11
M  V30 11 1 8 3
M  V30 12 1 11 7
M  V30 13 1 1 12
M  V30 14 1 1 13
M  V30 15 1 2 14
M  V30 16 1 2 15
M  V30 17 1 4 16
M  V30 18 1 4 17
M  V30 19 1 5 18
M  V30 20 1 5 19
M  V30 21 1 6 20
M  V30 22 1 6 21
M  V30 23 1 8 22
M  V30 24 1 9 23
M  V30 25 1 9 24
M  V30 26 1 10 25
M  V30 27 1 10 26
M  V30 28 1 11 27
M  V30 29 1 11 28
M  V30 END BOND
M  V30 END CTAB
M  END
