
     RDKit          3D

  0  0  0  0  0  0  0  0  0  0999 V3000
M  V30 BEGIN CTAB
M  V30 COUNTS 28 28 0 0 0
M  V30 BEGIN ATOM
M  V30 1 C -3.48228 -2.02817 -0.542266 0
M  V30 2 N -3.49476 -0.58891 -0.512157 0
M  V30 3 C -2.32685 0.175666 -0.275194 0
M  V30 4 N -1.13832 -0.40733 -0.0647356 0
M  V30 5 C -0.00532795 0.282245 0.163949 0
M  V30 6 N -0.0726609 1.61406 0.181293 0
M  V30 7 C -1.269 2.23404 -0.0297976 0
M  V30 8 N -2.36463 1.5101 -0.252228 0
M  V30 9 N -1.37722 3.652 -0.0182159 0
M  V30 10 C 1.21199 -0.521989 0.374843 0 CFG=2
M  V30 11 C 2.46917 0.290975 0.439884 0 CFG=2
M  V30 12 O 2.75981 0.943301 -0.740567 0
M  V30 13 C 3.6083 -0.653773 0.763249 0
M  V30 14 N 1.24253 -1.55514 -0.628792 0
M  V30 15 H -2.52052 -2.41713 -0.946414 0
M  V30 16 H -4.27351 -2.37815 -1.20314 0
M  V30 17 H -3.56287 -2.43863 0.487093 0
M  V30 18 H -4.39046 -0.0956607 -0.669542 0
M  V30 19 H -2.23112 4.11699 0.356589 0
M  V30 20 H -0.614051 4.27901 -0.38075 0
M  V30 21 H 1.09764 -1.02431 1.36968 0
M  V30 22 H 2.37969 0.993429 1.2809 0
M  V30 23 H 3.70467 0.849666 -1.00468 0
M  V30 24 H 4.08555 -1.04302 -0.173758 0
M  V30 25 H 3.19759 -1.50194 1.351 0
M  V30 26 H 4.40766 -0.14073 1.35198 0
M  V30 27 H 2.16194 -1.70155 -1.06605 0
M  V30 28 H 0.797039 -2.44505 -0.273027 0
M  V30 END ATOM
M  V30 BEGIN BOND
M  V30 1 1 1 2
M  V30 2 1 2 3
M  V30 3 2 3 4
M  V30 4 1 4 5
M  V30 5 2 5 6
M  V30 6 1 6 7
M  V30 7 2 7 8
M  V30 8 1 7 9
M  V30 9 1 5 10
M  V30 10 1 10 11
M  V30 11 1 11 12
M  V30 12 1 11 13
M  V30 13 1 10 14
M  V30 14 1 8 3
M  V30 15 1 1 15
M  V30 16 1 1 16
M  V30 17 1 1 17
M  V30 18 1 2 18
M  V30 19 1 9 19
M  V30 20 1 9 20
M  V30 21 1 10 21 CFG=1
M  V30 22 1 11 22 CFG=1
M  V30 23 1 12 23
M  V30 24 1 13 24
M  V30 25 1 13 25
M  V30 26 1 13 26
M  V30 27 1 14 27
M  V30 28 1 14 28
M  V30 END BOND
M  V30 END CTAB
M  END
