
     RDKit          3D

  0  0  0  0  0  0  0  0  0  0999 V3000
M  V30 BEGIN CTAB
M  V30 COUNTS 31 33 0 0 0
M  V30 BEGIN ATOM
M  V30 1 N 5.27371 -0.379609 0.208166 0
M  V30 2 C 3.86661 -0.316869 0.462127 0
M  V30 3 C 3.3548 -0.891718 1.59706 0
M  V30 4 C 2.01055 -0.813781 1.80749 0
M  V30 5 C 1.17656 -0.172837 0.903467 0
M  V30 6 C 1.65541 0.416158 -0.24965 0
M  V30 7 C 3.03651 0.318007 -0.432874 0
M  V30 8 N 3.27427 0.96329 -1.60683 0
M  V30 9 C 2.1189 1.41563 -2.09288 0
M  V30 10 N 1.08263 1.08547 -1.26033 0
M  V30 11 C -0.261504 1.42061 -1.47404 0
M  V30 12 O -0.506911 2.11726 -2.54865 0
M  V30 13 C -1.41135 1.09021 -0.651985 0
M  V30 14 C -2.09256 1.87422 0.248083 0
M  V30 15 C -3.10634 1.0984 0.759939 0
M  V30 16 C -3.01089 -0.14338 0.151557 0
M  V30 17 O -2.0073 -0.0805558 -0.655555 0
M  V30 18 S -4.02769 -1.55918 0.392732 0
M  V30 19 O -5.14493 -1.2551 1.34833 0
M  V30 20 O -3.23008 -2.70373 0.928211 0
M  V30 21 N -4.7808 -2.00293 -1.12253 0
M  V30 22 H 5.71823 0.494825 -0.140094 0
M  V30 23 H 5.80224 -1.26842 0.372135 0
M  V30 24 H 4.0088 -1.4041 2.32335 0
M  V30 25 H 1.54946 -1.25601 2.69875 0
M  V30 26 H 0.110686 -0.114562 1.09469 0
M  V30 27 H 1.98424 1.96675 -3.00894 0
M  V30 28 H -1.88604 2.8965 0.511555 0
M  V30 29 H -3.86971 1.3496 1.502 0
M  V30 30 H -5.281 -2.88789 -1.01106 0
M  V30 31 H -5.40652 -1.25626 -1.46116 0
M  V30 END ATOM
M  V30 BEGIN BOND
M  V30 1 1 1 2
M  V30 2 2 2 3
M  V30 3 1 3 4
M  V30 4 2 4 5
M  V30 5 1 5 6
M  V30 6 2 6 7
M  V30 7 1 7 8
M  V30 8 2 8 9
M  V30 9 1 9 10
M  V30 10 1 10 11
M  V30 11 2 11 12
M  V30 12 1 11 13
M  V30 13 2 13 14
M  V30 14 1 14 15
M  V30 15 2 15 16
M  V30 16 1 16 17
M  V30 17 1 16 18
M  V30 18 2 18 19
M  V30 19 2 18 20
M  V30 20 1 18 21
M  V30 21 1 7 2
M  V30 22 1 17 13
M  V30 23 1 10 6
M  V30 24 1 1 22
M  V30 25 1 1 23
M  V30 26 1 3 24
M  V30 27 1 4 25
M  V30 28 1 5 26
M  V30 29 1 9 27
M  V30 30 1 14 28
M  V30 31 1 15 29
M  V30 32 1 21 30
M  V30 33 1 21 31
M  V30 END BOND
M  V30 END CTAB
M  END
