
     RDKit          3D

  0  0  0  0  0  0  0  0  0  0999 V3000
M  V30 BEGIN CTAB
M  V30 COUNTS 19 19 0 0 0
M  V30 BEGIN ATOM
M  V30 1 N 2.76018 0.573788 0.153951 0
M  V30 2 C 1.90494 -0.492962 0.573463 0
M  V30 3 C 0.606773 -0.538609 -0.20601 0
M  V30 4 C -0.215898 0.674043 0.220638 0
M  V30 5 C -1.65614 0.195578 0.267181 0
M  V30 6 N -2.37586 0.874117 -0.768137 0
M  V30 7 C -1.56041 -1.2723 0.0469558 0
M  V30 8 O -2.53686 -2.0014 -0.236297 0
M  V30 9 O -0.222988 -1.597 0.221728 0
M  V30 10 H 3.74288 0.268618 0.0261081 0
M  V30 11 H 2.3799 1.13546 -0.634829 0
M  V30 12 H 2.40008 -1.47074 0.432246 0
M  V30 13 H 1.70025 -0.35581 1.65459 0
M  V30 14 H 0.768779 -0.573485 -1.28919 0
M  V30 15 H -0.0873399 1.52117 -0.448049 0
M  V30 16 H 0.10218 0.991862 1.24589 0
M  V30 17 H -2.12117 0.353298 1.26262 0
M  V30 18 H -3.28658 1.25579 -0.497148 0
M  V30 19 H -2.30272 0.458588 -1.69897 0
M  V30 END ATOM
M  V30 BEGIN BOND
M  V30 1 1 1 2
M  V30 2 1 2 3
M  V30 3 1 3 4
M  V30 4 1 4 5
M  V30 5 1 5 6
M  V30 6 1 5 7
M  V30 7 2 7 8
M  V30 8 1 7 9
M  V30 9 1 9 3
M  V30 10 1 1 10
M  V30 11 1 1 11
M  V30 12 1 2 12
M  V30 13 1 2 13
M  V30 14 1 3 14
M  V30 15 1 4 15
M  V30 16 1 4 16
M  V30 17 1 5 17
M  V30 18 1 6 18
M  V30 19 1 6 19
M  V30 END BOND
M  V30 END CTAB
M  END
