
     RDKit          3D

  0  0  0  0  0  0  0  0  0  0999 V3000
M  V30 BEGIN CTAB
M  V30 COUNTS 46 48 0 0 0
M  V30 BEGIN ATOM
M  V30 1 O -4.4246 1.44887 1.35203 0
M  V30 2 C -3.19078 0.897453 1.08813 0
M  V30 3 C -3.35488 -0.310179 0.166304 0
M  V30 4 C -4.23388 -1.32938 0.885096 0
M  V30 5 C -5.09674 -1.47795 -0.373104 0
M  V30 6 C -4.48076 -0.154496 -0.826211 0
M  V30 7 C -2.08109 -0.913906 -0.314024 0
M  V30 8 N -1.22952 -0.0435121 -1.06895 0
M  V30 9 C 0.0511485 0.422137 -0.659447 0
M  V30 10 C 1.02118 -0.406079 -0.106636 0
M  V30 11 C 2.24187 0.0640577 0.272608 0
M  V30 12 N 2.50626 1.37126 0.103754 0
M  V30 13 C 1.57795 2.21051 -0.434199 0
M  V30 14 N 0.388836 1.73032 -0.799867 0
M  V30 15 N 1.83287 3.59937 -0.59454 0
M  V30 16 C 3.26597 -0.803166 0.853743 0
M  V30 17 C 4.355 -1.2078 -0.172907 0
M  V30 18 C 5.35061 -1.02681 0.94296 0
M  V30 19 C 4.36067 -0.108027 1.61324 0
M  V30 20 N 6.58297 -0.366613 0.531828 0
M  V30 21 C -1.67388 0.401018 -2.38669 0
M  V30 22 H -4.41725 2.38391 1.61251 0
M  V30 23 H -2.82201 0.476882 2.07369 0
M  V30 24 H -2.43448 1.58932 0.686336 0
M  V30 25 H -4.83084 -0.894362 1.72541 0
M  V30 26 H -3.72501 -2.26209 1.15285 0
M  V30 27 H -6.18791 -1.43802 -0.190742 0
M  V30 28 H -4.78994 -2.31772 -1.01369 0
M  V30 29 H -4.24095 -0.140711 -1.88555 0
M  V30 30 H -5.17064 0.658077 -0.473221 0
M  V30 31 H -2.26641 -1.8473 -0.88686 0
M  V30 32 H -1.49879 -1.20898 0.598952 0
M  V30 33 H 0.810271 -1.45023 0.0308332 0
M  V30 34 H 1.74222 4.20246 0.258627 0
M  V30 35 H 2.095 4.01471 -1.4919 0
M  V30 36 H 2.93264 -1.72261 1.36978 0
M  V30 37 H 4.40232 -0.435994 -0.98014 0
M  V30 38 H 4.2285 -2.25433 -0.519128 0
M  V30 39 H 5.53261 -1.95899 1.49563 0
M  V30 40 H 4.56247 0.938801 1.27906 0
M  V30 41 H 4.34111 -0.192196 2.71988 0
M  V30 42 H 6.62313 -0.228623 -0.496433 0
M  V30 43 H 6.59972 0.566652 1.04666 0
M  V30 44 H -2.14585 -0.417218 -2.93259 0
M  V30 45 H -2.29891 1.29319 -2.23432 0
M  V30 46 H -0.810241 0.73227 -3.01877 0
M  V30 END ATOM
M  V30 BEGIN BOND
M  V30 1 1 1 2
M  V30 2 1 2 3
M  V30 3 1 3 4
M  V30 4 1 4 5
M  V30 5 1 5 6
M  V30 6 1 3 7
M  V30 7 1 7 8
M  V30 8 1 8 9
M  V30 9 2 9 10
M  V30 10 1 10 11
M  V30 11 2 11 12
M  V30 12 1 12 13
M  V30 13 2 13 14
M  V30 14 1 13 15
M  V30 15 1 11 16
M  V30 16 1 16 17
M  V30 17 1 17 18
M  V30 18 1 18 19
M  V30 19 1 18 20
M  V30 20 1 8 21
M  V30 21 1 6 3
M  V30 22 1 14 9
M  V30 23 1 19 16
M  V30 24 1 1 22
M  V30 25 1 2 23
M  V30 26 1 2 24
M  V30 27 1 4 25
M  V30 28 1 4 26
M  V30 29 1 5 27
M  V30 30 1 5 28
M  V30 31 1 6 29
M  V30 32 1 6 30
M  V30 33 1 7 31
M  V30 34 1 7 32
M  V30 35 1 10 33
M  V30 36 1 15 34
M  V30 37 1 15 35
M  V30 38 1 16 36
M  V30 39 1 17 37
M  V30 40 1 17 38
M  V30 41 1 18 39
M  V30 42 1 19 40
M  V30 43 1 19 41
M  V30 44 1 20 42
M  V30 45 1 20 43
M  V30 46 1 21 44
M  V30 47 1 21 45
M  V30 48 1 21 46
M  V30 END BOND
M  V30 END CTAB
M  END
