
     RDKit          3D

  0  0  0  0  0  0  0  0  0  0999 V3000
M  V30 BEGIN CTAB
M  V30 COUNTS 64 67 0 0 0
M  V30 BEGIN ATOM
M  V30 1 C 7.22896 -3.21185 -1.8189 0
M  V30 2 C 6.24697 -2.57559 -0.887353 0
M  V30 3 C 6.50755 -1.0872 -0.802899 0
M  V30 4 C 5.42647 -0.548113 0.190357 0
M  V30 5 C 5.64054 0.89704 0.304198 0
M  V30 6 C 4.77963 1.63004 1.24674 0
M  V30 7 O 3.45025 1.5783 1.06616 0
M  V30 8 C 2.56141 0.605516 1.33675 0
M  V30 9 O 2.889 -0.465992 1.86474 0
M  V30 10 C 1.12628 0.800183 0.998754 0
M  V30 11 C 0.089459 -0.0857722 1.20519 0
M  V30 12 N 0.248953 -1.3568 1.79119 0
M  V30 13 N -1.06674 0.480193 0.753283 0
M  V30 14 C -0.812285 1.70588 0.260039 0
M  V30 15 C 0.548652 1.90711 0.41121 0
M  V30 16 N 1.0448 3.07891 -0.0158602 0
M  V30 17 C 0.276719 4.03638 -0.571328 0
M  V30 18 C 0.788177 5.23937 -1.0094 0
M  V30 19 C 0.0349051 6.24149 -1.58186 0
M  V30 20 C -1.33721 6.02271 -1.72729 0
M  V30 21 C -1.86376 4.82 -1.292 0
M  V30 22 C -1.08949 3.82746 -0.720046 0
M  V30 23 N -1.60367 2.65827 -0.297297 0
M  V30 24 C -2.35347 -0.155589 0.805876 0
M  V30 25 C -2.6634 -0.970405 -0.430837 0
M  V30 26 C -4.0103 -1.56588 -0.243628 0
M  V30 27 C -5.104 -0.842158 -0.682588 0
M  V30 28 C -6.36394 -1.37705 -0.518331 0
M  V30 29 C -6.55928 -2.60429 0.06727 0
M  V30 30 C -5.46625 -3.31253 0.498601 0
M  V30 31 C -4.1793 -2.79889 0.346839 0
M  V30 32 S -8.14805 -3.25394 0.262262 0
M  V30 33 O -9.04441 -2.67439 -0.813804 0
M  V30 34 O -8.14138 -4.73622 0.0804784 0
M  V30 35 N -8.83914 -2.78362 1.77872 0
M  V30 36 H 8.00857 -2.4831 -2.12189 0
M  V30 37 H 7.73784 -4.03247 -1.27264 0
M  V30 38 H 6.68792 -3.6406 -2.67293 0
M  V30 39 H 5.19717 -2.68485 -1.27452 0
M  V30 40 H 6.32153 -2.98762 0.137795 0
M  V30 41 H 7.46866 -0.848274 -0.31548 0
M  V30 42 H 6.42082 -0.574687 -1.76637 0
M  V30 43 H 5.54763 -1.15809 1.08973 0
M  V30 44 H 4.43799 -0.816307 -0.286284 0
M  V30 45 H 5.52889 1.31679 -0.760676 0
M  V30 46 H 6.75328 1.12576 0.495089 0
M  V30 47 H 5.08502 2.73447 1.17564 0
M  V30 48 H 5.01352 1.3422 2.32749 0
M  V30 49 H -0.0586077 -1.59239 2.76238 0
M  V30 50 H 0.699382 -2.10546 1.22424 0
M  V30 51 H 1.85079 5.39394 -0.890248 0
M  V30 52 H 0.455731 7.18254 -1.9209 0
M  V30 53 H -1.97693 6.77471 -2.16998 0
M  V30 54 H -2.92152 4.67253 -1.41341 0
M  V30 55 H -3.16926 0.56578 1.01123 0
M  V30 56 H -2.36594 -0.879461 1.66336 0
M  V30 57 H -2.68437 -0.35933 -1.34586 0
M  V30 58 H -1.89609 -1.74968 -0.567941 0
M  V30 59 H -5.03254 0.127841 -1.15188 0
M  V30 60 H -7.20814 -0.800122 -0.866111 0
M  V30 61 H -5.56669 -4.27273 0.960837 0
M  V30 62 H -3.31699 -3.34441 0.680651 0
M  V30 63 H -9.21003 -3.64623 2.27662 0
M  V30 64 H -8.05029 -2.38337 2.35764 0
M  V30 END ATOM
M  V30 BEGIN BOND
M  V30 1 1 1 2
M  V30 2 1 2 3
M  V30 3 1 3 4
M  V30 4 1 4 5
M  V30 5 1 5 6
M  V30 6 1 6 7
M  V30 7 1 7 8
M  V30 8 2 8 9
M  V30 9 1 8 10
M  V30 10 2 10 11
M  V30 11 1 11 12
M  V30 12 1 11 13
M  V30 13 1 13 14
M  V30 14 2 14 15
M  V30 15 1 15 16
M  V30 16 2 16 17
M  V30 17 1 17 18
M  V30 18 2 18 19
M  V30 19 1 19 20
M  V30 20 2 20 21
M  V30 21 1 21 22
M  V30 22 2 22 23
M  V30 23 1 13 24
M  V30 24 1 24 25
M  V30 25 1 25 26
M  V30 26 2 26 27
M  V30 27 1 27 28
M  V30 28 2 28 29
M  V30 29 1 29 30
M  V30 30 2 30 31
M  V30 31 1 29 32
M  V30 32 2 32 33
M  V30 33 2 32 34
M  V30 34 1 32 35
M  V30 35 1 15 10
M  V30 36 1 22 17
M  V30 37 1 31 26
M  V30 38 1 23 14
M  V30 39 1 1 36
M  V30 40 1 1 37
M  V30 41 1 1 38
M  V30 42 1 2 39
M  V30 43 1 2 40
M  V30 44 1 3 41
M  V30 45 1 3 42
M  V30 46 1 4 43
M  V30 47 1 4 44
M  V30 48 1 5 45
M  V30 49 1 5 46
M  V30 50 1 6 47
M  V30 51 1 6 48
M  V30 52 1 12 49
M  V30 53 1 12 50
M  V30 54 1 18 51
M  V30 55 1 19 52
M  V30 56 1 20 53
M  V30 57 1 21 54
M  V30 58 1 24 55
M  V30 59 1 24 56
M  V30 60 1 25 57
M  V30 61 1 25 58
M  V30 62 1 27 59
M  V30 63 1 28 60
M  V30 64 1 30 61
M  V30 65 1 31 62
M  V30 66 1 35 63
M  V30 67 1 35 64
M  V30 END BOND
M  V30 END CTAB
M  END
