
     RDKit          3D

  0  0  0  0  0  0  0  0  0  0999 V3000
M  V30 BEGIN CTAB
M  V30 COUNTS 82 81 0 0 0
M  V30 BEGIN ATOM
M  V30 1 C 1.34133 1.33383 0.939084 0 CFG=1
M  V30 2 N 1.29644 2.08179 2.19937 0
M  V30 3 C 1.40172 -0.129228 1.22278 0
M  V30 4 C 2.6043 -0.418249 2.0778 0
M  V30 5 C 3.86031 0.0278837 1.41184 0
M  V30 6 C 4.09891 -0.656609 0.1061 0
M  V30 7 N 5.3677 -0.166778 -0.420883 0
M  V30 8 C 5.76413 -0.77177 -1.65321 0
M  V30 9 C 7.1191 -0.176431 -2.07596 0
M  V30 10 C 8.08539 -0.490029 -0.945502 0
M  V30 11 C 9.4704 0.015496 -1.17528 0
M  V30 12 C 10.3044 -0.368162 0.0279329 0
M  V30 13 C 11.7337 0.106049 -0.124896 0
M  V30 14 C 12.4894 -0.313542 1.11606 0
M  V30 15 C 0.0826108 1.61253 0.173712 0
M  V30 16 O -0.569021 2.61546 0.530007 0
M  V30 17 N -0.314088 0.780468 -0.866269 0
M  V30 18 C -1.52787 0.971931 -1.64044 0
M  V30 19 C -2.71822 0.896631 -0.72449 0
M  V30 20 C -4.00064 1.06842 -1.50906 0
M  V30 21 N -5.15921 1.05478 -0.647666 0
M  V30 22 C -5.45996 -0.185081 -0.0182766 0
M  V30 23 C -5.95232 -1.27007 -0.893423 0
M  V30 24 C -7.13974 -1.05639 -1.68882 0
M  V30 25 C -8.48648 -0.832964 -1.21189 0
M  V30 26 N -9.04805 0.1596 -0.477811 0
M  V30 27 C -8.95903 0.485818 0.854344 0
M  V30 28 C -9.59282 -0.564444 1.76901 0
M  V30 29 C -11.0701 -0.707607 1.4596 0
M  V30 30 N -11.6943 -1.69198 2.30325 0
M  V30 31 H 2.16478 1.73684 0.346076 0
M  V30 32 H 1.04175 3.06294 1.96924 0
M  V30 33 H 0.633852 1.62366 2.86954 0
M  V30 34 H 0.462921 -0.472715 1.70468 0
M  V30 35 H 1.55636 -0.713234 0.272472 0
M  V30 36 H 2.42681 0.149472 3.04183 0
M  V30 37 H 2.65858 -1.51394 2.29714 0
M  V30 38 H 3.86607 1.13512 1.22321 0
M  V30 39 H 4.70665 -0.125703 2.13024 0
M  V30 40 H 4.07524 -1.75485 0.18236 0
M  V30 41 H 3.33407 -0.374011 -0.650572 0
M  V30 42 H 5.44267 0.853557 -0.398505 0
M  V30 43 H 5.83048 -1.86043 -1.56319 0
M  V30 44 H 5.06231 -0.47315 -2.44464 0
M  V30 45 H 6.97096 0.920986 -2.10942 0
M  V30 46 H 7.43399 -0.588538 -3.03118 0
M  V30 47 H 8.14915 -1.61377 -0.865758 0
M  V30 48 H 7.70321 -0.12055 0.00707279 0
M  V30 49 H 9.90169 -0.321015 -2.1346 0
M  V30 50 H 9.42517 1.14064 -1.15972 0
M  V30 51 H 9.83142 0.0882516 0.915687 0
M  V30 52 H 10.292 -1.47525 0.096061 0
M  V30 53 H 11.7431 1.21104 -0.183207 0
M  V30 54 H 12.2073 -0.382452 -0.983735 0
M  V30 55 H 12.5578 -1.41701 1.20953 0
M  V30 56 H 13.5423 0.0957191 1.0595 0
M  V30 57 H 12.0032 0.0528669 2.04977 0
M  V30 58 H 0.271302 -0.0626428 -1.15738 0
M  V30 59 H -1.53154 1.95648 -2.12638 0
M  V30 60 H -1.67399 0.191227 -2.41368 0
M  V30 61 H -2.69022 -0.159496 -0.313277 0
M  V30 62 H -2.61416 1.6234 0.0718277 0
M  V30 63 H -3.96408 2.06095 -2.00493 0
M  V30 64 H -4.07299 0.307099 -2.30104 0
M  V30 65 H -5.02714 1.77579 0.0988788 0
M  V30 66 H -6.07488 -0.0475874 0.857591 0
M  V30 67 H -4.46893 -0.576224 0.489658 0
M  V30 68 H -6.10083 -2.19474 -0.20688 0
M  V30 69 H -5.10482 -1.68187 -1.54673 0
M  V30 70 H -7.1587 -1.94927 -2.4696 0
M  V30 71 H -6.95067 -0.210454 -2.47382 0
M  V30 72 H -8.82269 -1.89058 -0.790964 0
M  V30 73 H -9.14109 -0.888582 -2.2109 0
M  V30 74 H -9.59788 0.880477 -1.05018 0
M  V30 75 H -9.68512 1.38705 1.01428 0
M  V30 76 H -8.04638 0.853987 1.30966 0
M  V30 77 H -9.49639 -0.257573 2.81954 0
M  V30 78 H -9.09891 -1.55317 1.66897 0
M  V30 79 H -11.5542 0.268307 1.68581 0
M  V30 80 H -11.2228 -0.904022 0.374891 0
M  V30 81 H -12.1265 -2.46166 1.74086 0
M  V30 82 H -12.3982 -1.28563 2.96693 0
M  V30 END ATOM
M  V30 BEGIN BOND
M  V30 1 1 1 2
M  V30 2 1 1 3
M  V30 3 1 3 4
M  V30 4 1 4 5
M  V30 5 1 5 6
M  V30 6 1 6 7
M  V30 7 1 7 8
M  V30 8 1 8 9
M  V30 9 1 9 10
M  V30 10 1 10 11
M  V30 11 1 11 12
M  V30 12 1 12 13
M  V30 13 1 13 14
M  V30 14 1 1 15
M  V30 15 2 15 16
M  V30 16 1 15 17
M  V30 17 1 17 18
M  V30 18 1 18 19
M  V30 19 1 19 20
M  V30 20 1 20 21
M  V30 21 1 21 22
M  V30 22 1 22 23
M  V30 23 1 23 24
M  V30 24 1 24 25
M  V30 25 1 25 26
M  V30 26 1 26 27
M  V30 27 1 27 28
M  V30 28 1 28 29
M  V30 29 1 29 30
M  V30 30 1 1 31 CFG=3
M  V30 31 1 2 32
M  V30 32 1 2 33
M  V30 33 1 3 34
M  V30 34 1 3 35
M  V30 35 1 4 36
M  V30 36 1 4 37
M  V30 37 1 5 38
M  V30 38 1 5 39
M  V30 39 1 6 40
M  V30 40 1 6 41
M  V30 41 1 7 42
M  V30 42 1 8 43
M  V30 43 1 8 44
M  V30 44 1 9 45
M  V30 45 1 9 46
M  V30 46 1 10 47
M  V30 47 1 10 48
M  V30 48 1 11 49
M  V30 49 1 11 50
M  V30 50 1 12 51
M  V30 51 1 12 52
M  V30 52 1 13 53
M  V30 53 1 13 54
M  V30 54 1 14 55
M  V30 55 1 14 56
M  V30 56 1 14 57
M  V30 57 1 17 58
M  V30 58 1 18 59
M  V30 59 1 18 60
M  V30 60 1 19 61
M  V30 61 1 19 62
M  V30 62 1 20 63
M  V30 63 1 20 64
M  V30 64 1 21 65
M  V30 65 1 22 66
M  V30 66 1 22 67
M  V30 67 1 23 68
M  V30 68 1 23 69
M  V30 69 1 24 70
M  V30 70 1 24 71
M  V30 71 1 25 72
M  V30 72 1 25 73
M  V30 73 1 26 74
M  V30 74 1 27 75
M  V30 75 1 27 76
M  V30 76 1 28 77
M  V30 77 1 28 78
M  V30 78 1 29 79
M  V30 79 1 29 80
M  V30 80 1 30 81
M  V30 81 1 30 82
M  V30 END BOND
M  V30 END CTAB
M  END
