
     RDKit          3D

  0  0  0  0  0  0  0  0  0  0999 V3000
M  V30 BEGIN CTAB
M  V30 COUNTS 33 35 0 0 0
M  V30 BEGIN ATOM
M  V30 1 N 3.83543 1.53932 -0.637807 0
M  V30 2 C 2.99181 0.836187 0.258303 0 CFG=1
M  V30 3 C 1.5736 1.34465 0.262882 0
M  V30 4 C 0.800794 0.103125 0.718832 0 CFG=2
M  V30 5 C 1.41071 -0.966786 -0.110102 0 CFG=2
M  V30 6 O 1.32321 -2.24412 0.488909 0
M  V30 7 C 2.90383 -0.618542 -0.0500057 0 CFG=2
M  V30 8 O 3.51906 -1.3099 1.01856 0
M  V30 9 N -0.584768 0.35828 0.45373 0
M  V30 10 C -1.18591 1.53877 0.715047 0
M  V30 11 C -2.5091 1.4803 0.355606 0
M  V30 12 I -3.96699 2.9828 0.510847 0
M  V30 13 C -2.74215 0.220261 -0.147333 0
M  V30 14 C -1.53257 -0.436881 -0.0687303 0
M  V30 15 N -1.4759 -1.70476 -0.500232 0
M  V30 16 C -2.52544 -2.36924 -1.00277 0
M  V30 17 N -3.71241 -1.71729 -1.0774 0
M  V30 18 C -3.83103 -0.446595 -0.660778 0
M  V30 19 N -5.08708 0.21278 -0.750463 0
M  V30 20 H 4.38026 1.0553 -1.28476 0
M  V30 21 H 3.95017 2.493 -0.462083 0
M  V30 22 H 3.39479 1.03572 1.29306 0
M  V30 23 H 1.29158 1.57564 -0.797244 0
M  V30 24 H 1.40862 2.19788 0.933151 0
M  V30 25 H 1.02032 -0.0579691 1.78902 0
M  V30 26 H 1.06782 -0.978056 -1.14513 0
M  V30 27 H 1.6357 -2.87337 -0.233358 0
M  V30 28 H 3.42856 -0.929368 -0.957403 0
M  V30 29 H 3.46971 -2.27146 0.815489 0
M  V30 30 H -0.708087 2.43008 1.15095 0
M  V30 31 H -2.41053 -3.39128 -1.33287 0
M  V30 32 H -5.22128 1.03906 -1.3769 0
M  V30 33 H -5.91272 -0.127542 -0.177941 0
M  V30 END ATOM
M  V30 BEGIN BOND
M  V30 1 1 1 2
M  V30 2 1 2 3
M  V30 3 1 3 4
M  V30 4 1 4 5
M  V30 5 1 5 6
M  V30 6 1 5 7
M  V30 7 1 7 8
M  V30 8 1 4 9
M  V30 9 1 9 10
M  V30 10 2 10 11
M  V30 11 1 11 12
M  V30 12 1 11 13
M  V30 13 2 13 14
M  V30 14 1 14 15
M  V30 15 2 15 16
M  V30 16 1 16 17
M  V30 17 2 17 18
M  V30 18 1 18 19
M  V30 19 1 7 2
M  V30 20 1 14 9
M  V30 21 1 18 13
M  V30 22 1 1 20
M  V30 23 1 1 21
M  V30 24 1 2 22 CFG=1
M  V30 25 1 3 23
M  V30 26 1 3 24
M  V30 27 1 4 25 CFG=1
M  V30 28 1 5 26 CFG=3
M  V30 29 1 6 27
M  V30 30 1 7 28 CFG=3
M  V30 31 1 8 29
M  V30 32 1 10 30
M  V30 33 1 16 31
M  V30 34 1 19 32
M  V30 35 1 19 33
M  V30 END BOND
M  V30 END CTAB
M  END
