
     RDKit          3D

  0  0  0  0  0  0  0  0  0  0999 V3000
M  V30 BEGIN CTAB
M  V30 COUNTS 35 36 0 0 0
M  V30 BEGIN ATOM
M  V30 1 N 4.30493 -0.629988 1.48855 0
M  V30 2 C 4.16699 -0.480686 0.0874535 0
M  V30 3 C 3.10261 0.48038 -0.296976 0
M  V30 4 N 1.77231 0.0922581 0.158415 0
M  V30 5 C 1.27789 -1.03587 -0.547866 0
M  V30 6 C -0.0496457 -1.45346 0.0280249 0
M  V30 7 O -1.05771 -0.960618 -0.783263 0
M  V30 8 C -1.39879 0.372347 -0.539326 0 CFG=2
M  V30 9 C -0.485219 1.00925 0.471491 0
M  V30 10 C 0.896854 1.2148 -0.0589471 0
M  V30 11 C -2.7655 0.338545 -0.00460416 0
M  V30 12 C -3.12603 0.350732 1.31971 0
M  V30 13 N -4.4867 0.240679 1.40601 0
M  V30 14 N -4.95575 0.163812 0.183548 0
M  V30 15 C -3.96721 0.218539 -0.713566 0
M  V30 16 N -4.07385 0.20144 -2.11052 0
M  V30 17 H 4.9893 -0.0811929 1.90435 0
M  V30 18 H 3.83654 -1.35233 1.93087 0
M  V30 19 H 5.1302 -0.123096 -0.322061 0
M  V30 20 H 4.0004 -1.51485 -0.291962 0
M  V30 21 H 3.07078 0.645738 -1.41593 0
M  V30 22 H 3.31757 1.4618 0.150999 0
M  V30 23 H 1.97617 -1.89548 -0.582799 0
M  V30 24 H 1.16905 -0.729367 -1.63144 0
M  V30 25 H -0.193145 -1.25046 1.0856 0
M  V30 26 H -0.157209 -2.58456 -0.0510799 0
M  V30 27 H -1.34933 0.922173 -1.47169 0
M  V30 28 H -0.900753 2.06948 0.57837 0
M  V30 29 H -0.494399 0.613839 1.46918 0
M  V30 30 H 1.34586 2.10262 0.448867 0
M  V30 31 H 0.794856 1.42056 -1.16293 0
M  V30 32 H -2.50404 0.426945 2.1975 0
M  V30 33 H -5.01356 0.217541 2.32324 0
M  V30 34 H -4.65241 -0.473557 -2.62043 0
M  V30 35 H -3.52107 0.929585 -2.62681 0
M  V30 END ATOM
M  V30 BEGIN BOND
M  V30 1 1 1 2
M  V30 2 1 2 3
M  V30 3 1 3 4
M  V30 4 1 4 5
M  V30 5 1 5 6
M  V30 6 1 6 7
M  V30 7 1 7 8
M  V30 8 1 8 9
M  V30 9 1 9 10
M  V30 10 1 8 11
M  V30 11 2 11 12
M  V30 12 1 12 13
M  V30 13 1 13 14
M  V30 14 2 14 15
M  V30 15 1 15 16
M  V30 16 1 10 4
M  V30 17 1 15 11
M  V30 18 1 1 17
M  V30 19 1 1 18
M  V30 20 1 2 19
M  V30 21 1 2 20
M  V30 22 1 3 21
M  V30 23 1 3 22
M  V30 24 1 5 23
M  V30 25 1 5 24
M  V30 26 1 6 25
M  V30 27 1 6 26
M  V30 28 1 8 27 CFG=3
M  V30 29 1 9 28
M  V30 30 1 9 29
M  V30 31 1 10 30
M  V30 32 1 10 31
M  V30 33 1 12 32
M  V30 34 1 13 33
M  V30 35 1 16 34
M  V30 36 1 16 35
M  V30 END BOND
M  V30 END CTAB
M  END
