
     RDKit          3D

  0  0  0  0  0  0  0  0  0  0999 V3000
M  V30 BEGIN CTAB
M  V30 COUNTS 27 27 0 0 0
M  V30 BEGIN ATOM
M  V30 1 C -0.959197 1.10534 0.740329 0
M  V30 2 C -1.01872 0.135171 -0.412402 0
M  V30 3 C 0.0150969 -0.934868 -0.306021 0
M  V30 4 C 1.40999 -0.400569 -0.286527 0
M  V30 5 N 2.08732 0.123188 0.749947 0
M  V30 6 C 3.32232 0.494324 0.369039 0
M  V30 7 N 3.3896 0.183825 -0.937969 0
M  V30 8 N 2.24881 -0.351192 -1.33363 0
M  V30 9 N 4.35842 1.08409 1.13218 0
M  V30 10 N -0.145794 -1.76605 0.868219 0
M  V30 11 C -2.3648 -0.503256 -0.558788 0
M  V30 12 C -3.45836 0.531959 -0.802915 0
M  V30 13 H -1.04104 0.541421 1.67484 0
M  V30 14 H -0.0112269 1.64457 0.720081 0
M  V30 15 H -1.77549 1.84546 0.584285 0
M  V30 16 H -0.818138 0.70929 -1.33945 0
M  V30 17 H -0.0668824 -1.60378 -1.18231 0
M  V30 18 H 2.06678 -0.670753 -2.30756 0
M  V30 19 H 4.27508 2.06607 1.44064 0
M  V30 20 H 5.20098 0.535747 1.38346 0
M  V30 21 H -1.06182 -2.23368 0.924204 0
M  V30 22 H 0.584068 -2.53263 0.783542 0
M  V30 23 H -2.33334 -1.13062 -1.48156 0
M  V30 24 H -2.65963 -1.14937 0.265714 0
M  V30 25 H -4.39663 -0.0128075 -1.03363 0
M  V30 26 H -3.63537 1.16314 0.0748501 0
M  V30 27 H -3.21203 1.12599 -1.72752 0
M  V30 END ATOM
M  V30 BEGIN BOND
M  V30 1 1 1 2
M  V30 2 1 2 3
M  V30 3 1 3 4
M  V30 4 2 4 5
M  V30 5 1 5 6
M  V30 6 2 6 7
M  V30 7 1 7 8
M  V30 8 1 6 9
M  V30 9 1 3 10
M  V30 10 1 2 11
M  V30 11 1 11 12
M  V30 12 1 8 4
M  V30 13 1 1 13
M  V30 14 1 1 14
M  V30 15 1 1 15
M  V30 16 1 2 16
M  V30 17 1 3 17
M  V30 18 1 8 18
M  V30 19 1 9 19
M  V30 20 1 9 20
M  V30 21 1 10 21
M  V30 22 1 10 22
M  V30 23 1 11 23
M  V30 24 1 11 24
M  V30 25 1 12 25
M  V30 26 1 12 26
M  V30 27 1 12 27
M  V30 END BOND
M  V30 END CTAB
M  END
