
     RDKit          3D

  0  0  0  0  0  0  0  0  0  0999 V3000
M  V30 BEGIN CTAB
M  V30 COUNTS 44 45 0 0 0
M  V30 BEGIN ATOM
M  V30 1 N -5.3748 1.62626 0.382307 0
M  V30 2 C -4.06445 1.17742 0.0331698 0
M  V30 3 C -4.22646 -0.00886794 -0.910515 0
M  V30 4 C -2.81318 -0.248748 -1.42732 0
M  V30 5 C -1.90699 -0.701562 -0.31364 0
M  V30 6 C -0.499365 -0.723182 -0.876899 0
M  V30 7 C 0.502309 -1.17069 0.175878 0
M  V30 8 C 1.89496 -1.17466 -0.439547 0
M  V30 9 C 2.2984 0.174378 -0.929757 0
M  V30 10 C 3.79491 0.380424 -0.934841 0
M  V30 11 C 4.34301 0.301561 0.469726 0
M  V30 12 N 4.16873 1.62458 1.06817 0
M  V30 13 C 3.6412 -0.725534 1.29811 0
M  V30 14 C 2.91482 -1.76593 0.477288 0
M  V30 15 C -2.00904 0.041129 0.944796 0
M  V30 16 C -3.21654 0.822009 1.2217 0
M  V30 17 H -5.77195 2.11182 -0.477283 0
M  V30 18 H -5.39368 2.27008 1.20253 0
M  V30 19 H -3.54123 1.96452 -0.544592 0
M  V30 20 H -4.82268 0.373103 -1.77294 0
M  V30 21 H -4.65968 -0.883765 -0.42791 0
M  V30 22 H -2.44579 0.742675 -1.77794 0
M  V30 23 H -2.8141 -0.961715 -2.25263 0
M  V30 24 H -2.16014 -1.78971 -0.136907 0
M  V30 25 H -0.502378 -1.54657 -1.647 0
M  V30 26 H -0.189488 0.235193 -1.30101 0
M  V30 27 H 0.254984 -2.18894 0.53886 0
M  V30 28 H 0.515258 -0.497451 1.05434 0
M  V30 29 H 1.81626 -1.85164 -1.33958 0
M  V30 30 H 1.88357 0.93599 -0.207474 0
M  V30 31 H 1.91033 0.345839 -1.95912 0
M  V30 32 H 4.29023 -0.337231 -1.60965 0
M  V30 33 H 3.9753 1.39845 -1.34845 0
M  V30 34 H 5.44138 0.0817754 0.368431 0
M  V30 35 H 5.02581 1.80071 1.62788 0
M  V30 36 H 4.05436 2.35931 0.320848 0
M  V30 37 H 4.39318 -1.26803 1.90912 0
M  V30 38 H 2.95685 -0.231552 2.0124 0
M  V30 39 H 2.50835 -2.51292 1.17578 0
M  V30 40 H 3.68916 -2.27285 -0.151199 0
M  V30 41 H -1.84647 -0.676862 1.8038 0
M  V30 42 H -1.11548 0.731914 1.02092 0
M  V30 43 H -3.89884 0.26038 1.92579 0
M  V30 44 H -3.00062 1.77889 1.75436 0
M  V30 END ATOM
M  V30 BEGIN BOND
M  V30 1 1 1 2
M  V30 2 1 2 3
M  V30 3 1 3 4
M  V30 4 1 4 5
M  V30 5 1 5 6
M  V30 6 1 6 7
M  V30 7 1 7 8
M  V30 8 1 8 9
M  V30 9 1 9 10
M  V30 10 1 10 11
M  V30 11 1 11 12
M  V30 12 1 11 13
M  V30 13 1 13 14
M  V30 14 1 5 15
M  V30 15 1 15 16
M  V30 16 1 16 2
M  V30 17 1 14 8
M  V30 18 1 1 17
M  V30 19 1 1 18
M  V30 20 1 2 19
M  V30 21 1 3 20
M  V30 22 1 3 21
M  V30 23 1 4 22
M  V30 24 1 4 23
M  V30 25 1 5 24
M  V30 26 1 6 25
M  V30 27 1 6 26
M  V30 28 1 7 27
M  V30 29 1 7 28
M  V30 30 1 8 29
M  V30 31 1 9 30
M  V30 32 1 9 31
M  V30 33 1 10 32
M  V30 34 1 10 33
M  V30 35 1 11 34
M  V30 36 1 12 35
M  V30 37 1 12 36
M  V30 38 1 13 37
M  V30 39 1 13 38
M  V30 40 1 14 39
M  V30 41 1 14 40
M  V30 42 1 15 41
M  V30 43 1 15 42
M  V30 44 1 16 43
M  V30 45 1 16 44
M  V30 END BOND
M  V30 END CTAB
M  END
