
     RDKit          3D

  0  0  0  0  0  0  0  0  0  0999 V3000
M  V30 BEGIN CTAB
M  V30 COUNTS 31 31 0 0 0
M  V30 BEGIN ATOM
M  V30 1 C -3.35095 -0.181095 -1.07651 0
M  V30 2 C -2.30941 0.503729 -0.223166 0
M  V30 3 C -0.928738 -0.000968976 -0.54783 0
M  V30 4 C 0.16872 0.54573 0.263604 0
M  V30 5 C 1.42244 -0.22132 0.209783 0
M  V30 6 C 1.51249 -1.53985 0.59412 0
M  V30 7 N 2.7329 -2.17739 0.73024 0
M  V30 8 C 3.86914 -1.50627 0.485152 0
M  V30 9 C 3.85091 -0.206391 0.0881569 0
M  V30 10 C 2.61648 0.41676 -0.0450101 0
M  V30 11 N 2.63492 1.76053 -0.52325 0
M  V30 12 O 0.236273 1.87344 0.528032 0
M  V30 13 N -0.865442 -1.36746 -0.857464 0
M  V30 14 C -2.70748 0.451809 1.20028 0
M  V30 15 H -3.11342 -1.26279 -1.24872 0
M  V30 16 H -4.34054 -0.190203 -0.585426 0
M  V30 17 H -3.49276 0.27302 -2.0739 0
M  V30 18 H -2.36107 1.59406 -0.529848 0
M  V30 19 H -0.743638 0.508727 -1.59143 0
M  V30 20 H -0.247042 0.184755 1.3836 0
M  V30 21 H 0.674955 -2.12995 0.850888 0
M  V30 22 H 4.85951 -1.96286 0.574394 0
M  V30 23 H 4.76627 0.362127 -0.151984 0
M  V30 24 H 2.20946 1.943 -1.45366 0
M  V30 25 H 3.03968 2.52132 0.0156061 0
M  V30 26 H 0.7213 1.97781 1.42733 0
M  V30 27 H -0.944091 -1.54257 -1.90887 0
M  V30 28 H -1.38435 -2.05002 -0.308513 0
M  V30 29 H -2.06676 1.0876 1.86077 0
M  V30 30 H -2.73561 -0.553806 1.63576 0
M  V30 31 H -3.72414 0.888531 1.27787 0
M  V30 END ATOM
M  V30 BEGIN BOND
M  V30 1 1 1 2
M  V30 2 1 2 3
M  V30 3 1 3 4
M  V30 4 1 4 5
M  V30 5 2 5 6
M  V30 6 1 6 7
M  V30 7 2 7 8
M  V30 8 1 8 9
M  V30 9 2 9 10
M  V30 10 1 10 11
M  V30 11 1 4 12
M  V30 12 1 3 13
M  V30 13 1 2 14
M  V30 14 1 10 5
M  V30 15 1 1 15
M  V30 16 1 1 16
M  V30 17 1 1 17
M  V30 18 1 2 18
M  V30 19 1 3 19
M  V30 20 1 4 20
M  V30 21 1 6 21
M  V30 22 1 8 22
M  V30 23 1 9 23
M  V30 24 1 11 24
M  V30 25 1 11 25
M  V30 26 1 12 26
M  V30 27 1 13 27
M  V30 28 1 13 28
M  V30 29 1 14 29
M  V30 30 1 14 30
M  V30 31 1 14 31
M  V30 END BOND
M  V30 END CTAB
M  END
