
     RDKit          3D

  0  0  0  0  0  0  0  0  0  0999 V3000
M  V30 BEGIN CTAB
M  V30 COUNTS 25 25 0 0 0
M  V30 BEGIN ATOM
M  V30 1 C 3.8707 0.0264551 -0.178261 0
M  V30 2 O 2.55141 0.51142 -0.171518 0
M  V30 3 C 1.47661 -0.386581 -0.0151786 0
M  V30 4 O 1.84216 -1.56862 0.10517 0
M  V30 5 C 0.124335 0.0452839 -0.000660827 0
M  V30 6 C -0.0754565 1.42649 -0.154739 0
M  V30 7 N 1.05101 2.25583 -0.301232 0
M  V30 8 C -1.34575 1.94991 -0.161228 0
M  V30 9 C -2.45943 1.15508 -0.01917 0
M  V30 10 C -2.24726 -0.199226 0.131412 0
M  V30 11 C -0.955402 -0.7725 0.143016 0
M  V30 12 C -0.853428 -2.22221 0.321349 0
M  V30 13 F -0.181648 -2.65106 1.42355 0
M  V30 14 F -2.16595 -2.75061 0.413944 0
M  V30 15 F -0.371704 -2.7811 -0.863236 0
M  V30 16 N -3.42836 -0.986488 0.27594 0
M  V30 17 H 3.92126 -1.07276 -0.0602333 0
M  V30 18 H 4.51248 0.532454 0.571602 0
M  V30 19 H 4.36692 0.241144 -1.16962 0
M  V30 20 H 1.45879 2.53013 -1.20432 0
M  V30 21 H 1.50285 2.61679 0.568237 0
M  V30 22 H -1.4619 3.03158 -0.283654 0
M  V30 23 H -3.45538 1.57531 -0.0255642 0
M  V30 24 H -3.7976 -1.1553 1.22804 0
M  V30 25 H -3.87925 -1.35144 -0.573646 0
M  V30 END ATOM
M  V30 BEGIN BOND
M  V30 1 1 1 2
M  V30 2 1 2 3
M  V30 3 2 3 4
M  V30 4 1 3 5
M  V30 5 2 5 6
M  V30 6 1 6 7
M  V30 7 1 6 8
M  V30 8 2 8 9
M  V30 9 1 9 10
M  V30 10 2 10 11
M  V30 11 1 11 12
M  V30 12 1 12 13
M  V30 13 1 12 14
M  V30 14 1 12 15
M  V30 15 1 10 16
M  V30 16 1 11 5
M  V30 17 1 1 17
M  V30 18 1 1 18
M  V30 19 1 1 19
M  V30 20 1 7 20
M  V30 21 1 7 21
M  V30 22 1 8 22
M  V30 23 1 9 23
M  V30 24 1 16 24
M  V30 25 1 16 25
M  V30 END BOND
M  V30 END CTAB
M  END
