
     RDKit          3D

  0  0  0  0  0  0  0  0  0  0999 V3000
M  V30 BEGIN CTAB
M  V30 COUNTS 65 67 0 0 0
M  V30 BEGIN ATOM
M  V30 1 C -6.46233 1.36146 0.0169935 0 CFG=1
M  V30 2 S -5.79251 1.56679 -1.62126 0
M  V30 3 C -4.36448 0.416011 -1.72561 0
M  V30 4 C -4.79359 -0.951001 -1.20615 0
M  V30 5 C -4.49258 -2.06152 -2.08665 0
M  V30 6 S -2.72757 -2.35421 -2.18941 0
M  V30 7 C -1.98794 -2.9965 -0.727951 0
M  V30 8 N -1.93894 -4.34825 -0.481797 0
M  V30 9 N -1.31942 -4.52997 0.663624 0
M  V30 10 N -0.988895 -3.33903 1.12438 0
M  V30 11 N -1.38412 -2.39819 0.296698 0
M  V30 12 C -1.17022 -0.987873 0.479885 0
M  V30 13 C 0.177379 -0.673079 -0.158025 0
M  V30 14 C 0.537782 0.792909 -0.0490008 0
M  V30 15 C 1.87325 0.997807 -0.703649 0
M  V30 16 C 2.92028 0.167152 -0.0380336 0
M  V30 17 C 3.06129 0.541972 1.40685 0
M  V30 18 C 4.10268 -0.305143 2.07182 0
M  V30 19 C 5.44382 -0.149338 1.40526 0
M  V30 20 C 5.86152 1.28275 1.45623 0
M  V30 21 C 7.20836 1.51731 0.895889 0
M  V30 22 S 7.36191 1.07462 -0.779633 0
M  V30 23 N 8.9916 1.49126 -1.26863 0
M  V30 24 O 6.43219 1.84436 -1.65016 0
M  V30 25 O 7.17028 -0.404312 -0.99365 0
M  V30 26 C -5.462 -0.979991 -0.0636001 0
M  V30 27 N -5.77156 0.237419 0.639947 0
M  V30 28 C -5.66636 0.904797 1.89828 0
M  V30 29 O -5.48981 0.623052 3.10825 0
M  V30 30 C -5.86941 2.18582 1.12499 0
M  V30 31 N -6.83536 3.03132 1.79859 0
M  V30 32 C -5.82182 -2.26143 0.526488 0
M  V30 33 O -5.5327 -3.5136 0.0303351 0
M  V30 34 O -6.48184 -2.32048 1.63207 0
M  V30 35 H -7.54388 1.25371 0.0944472 0
M  V30 36 H -4.0811 0.382631 -2.77331 0
M  V30 37 H -3.56962 0.843121 -1.12092 0
M  V30 38 H -5.10788 -2.95252 -2.06155 0
M  V30 39 H -4.75563 -1.64802 -3.15173 0
M  V30 40 H -1.91848 -0.337351 0.0512432 0
M  V30 41 H -1.05224 -0.774336 1.58409 0
M  V30 42 H 0.0749182 -0.909092 -1.23924 0
M  V30 43 H 0.902597 -1.31969 0.34197 0
M  V30 44 H 0.550212 1.11596 0.999961 0
M  V30 45 H -0.249582 1.40561 -0.563262 0
M  V30 46 H 1.79746 0.694747 -1.77506 0
M  V30 47 H 2.21276 2.06474 -0.619313 0
M  V30 48 H 3.90021 0.415627 -0.552419 0
M  V30 49 H 2.8148 -0.923953 -0.193824 0
M  V30 50 H 3.26395 1.62978 1.4683 0
M  V30 51 H 2.0805 0.353562 1.96055 0
M  V30 52 H 4.21369 -0.00784866 3.15505 0
M  V30 53 H 3.8077 -1.38387 2.08469 0
M  V30 54 H 6.20261 -0.819399 1.89537 0
M  V30 55 H 5.34631 -0.486406 0.35696 0
M  V30 56 H 5.12255 1.9288 0.902647 0
M  V30 57 H 5.78224 1.63443 2.52715 0
M  V30 58 H 7.96437 0.920653 1.48217 0
M  V30 59 H 7.47388 2.59138 1.08479 0
M  V30 60 H 9.00052 2.10654 -2.09472 0
M  V30 61 H 9.57567 1.7814 -0.47987 0
M  V30 62 H -4.94716 2.66315 0.794126 0
M  V30 63 H -7.73316 2.51117 1.86677 0
M  V30 64 H -7.01135 3.89989 1.28313 0
M  V30 65 H -4.90576 -4.09727 0.603671 0
M  V30 END ATOM
M  V30 BEGIN BOND
M  V30 1 1 1 2
M  V30 2 1 2 3
M  V30 3 1 3 4
M  V30 4 1 4 5
M  V30 5 1 5 6
M  V30 6 1 6 7
M  V30 7 2 7 8
M  V30 8 1 8 9
M  V30 9 2 9 10
M  V30 10 1 10 11
M  V30 11 1 11 12
M  V30 12 1 12 13
M  V30 13 1 13 14
M  V30 14 1 14 15
M  V30 15 1 15 16
M  V30 16 1 16 17
M  V30 17 1 17 18
M  V30 18 1 18 19
M  V30 19 1 19 20
M  V30 20 1 20 21
M  V30 21 1 21 22
M  V30 22 1 22 23
M  V30 23 2 22 24
M  V30 24 2 22 25
M  V30 25 2 4 26
M  V30 26 1 26 27
M  V30 27 1 27 28
M  V30 28 2 28 29
M  V30 29 1 28 30
M  V30 30 1 30 31
M  V30 31 1 26 32
M  V30 32 1 32 33
M  V30 33 2 32 34
M  V30 34 1 27 1
M  V30 35 1 30 1
M  V30 36 1 11 7
M  V30 37 1 1 35 CFG=3
M  V30 38 1 3 36
M  V30 39 1 3 37
M  V30 40 1 5 38
M  V30 41 1 5 39
M  V30 42 1 12 40
M  V30 43 1 12 41
M  V30 44 1 13 42
M  V30 45 1 13 43
M  V30 46 1 14 44
M  V30 47 1 14 45
M  V30 48 1 15 46
M  V30 49 1 15 47
M  V30 50 1 16 48
M  V30 51 1 16 49
M  V30 52 1 17 50
M  V30 53 1 17 51
M  V30 54 1 18 52
M  V30 55 1 18 53
M  V30 56 1 19 54
M  V30 57 1 19 55
M  V30 58 1 20 56
M  V30 59 1 20 57
M  V30 60 1 21 58
M  V30 61 1 21 59
M  V30 62 1 23 60
M  V30 63 1 23 61
M  V30 64 1 30 62
M  V30 65 1 31 63
M  V30 66 1 31 64
M  V30 67 1 33 65
M  V30 END BOND
M  V30 END CTAB
M  END
