
     RDKit          3D

  0  0  0  0  0  0  0  0  0  0999 V3000
M  V30 BEGIN CTAB
M  V30 COUNTS 22 22 0 0 0
M  V30 BEGIN ATOM
M  V30 1 N -3.65454 0.446446 0.383115 0
M  V30 2 C -2.28721 0.0864425 0.252564 0
M  V30 3 C -1.82599 -1.14417 0.620092 0
M  V30 4 C -0.495425 -1.47464 0.48555 0
M  V30 5 C 0.464041 -0.594883 -0.0263658 0
M  V30 6 C -0.0114764 0.647944 -0.395409 0
M  V30 7 C -1.36915 0.972882 -0.253702 0
M  V30 8 C 0.90033 1.65434 -0.934442 0
M  V30 9 F 1.57551 1.29492 -2.0771 0
M  V30 10 F 1.69856 2.27742 0.00950091 0
M  V30 11 F 0.102434 2.7312 -1.39494 0
M  V30 12 S 2.10512 -1.08868 -0.169895 0
M  V30 13 N 3.25092 -0.170338 0.690652 0
M  V30 14 O 2.22646 -2.48498 0.464132 0
M  V30 15 O 2.5704 -1.34267 -1.57749 0
M  V30 16 H -4.32857 -0.0982327 0.945296 0
M  V30 17 H -4.02493 1.2973 -0.100836 0
M  V30 18 H -2.54873 -1.84762 1.02084 0
M  V30 19 H -0.154918 -2.46922 0.788575 0
M  V30 20 H -1.73643 1.96847 -0.55192 0
M  V30 21 H 3.39485 -0.481274 1.66768 0
M  V30 22 H 4.14874 -0.18064 0.1541 0
M  V30 END ATOM
M  V30 BEGIN BOND
M  V30 1 1 1 2
M  V30 2 2 2 3
M  V30 3 1 3 4
M  V30 4 2 4 5
M  V30 5 1 5 6
M  V30 6 2 6 7
M  V30 7 1 6 8
M  V30 8 1 8 9
M  V30 9 1 8 10
M  V30 10 1 8 11
M  V30 11 1 5 12
M  V30 12 1 12 13
M  V30 13 2 12 14
M  V30 14 2 12 15
M  V30 15 1 7 2
M  V30 16 1 1 16
M  V30 17 1 1 17
M  V30 18 1 3 18
M  V30 19 1 4 19
M  V30 20 1 7 20
M  V30 21 1 13 21
M  V30 22 1 13 22
M  V30 END BOND
M  V30 END CTAB
M  END
