
     RDKit          3D

  0  0  0  0  0  0  0  0  0  0999 V3000
M  V30 BEGIN CTAB
M  V30 COUNTS 52 55 0 0 0
M  V30 BEGIN ATOM
M  V30 1 N -7.89418 -0.0171303 2.59308 0
M  V30 2 C -6.6777 0.0845796 1.8589 0
M  V30 3 N -5.5215 0.412117 2.47528 0
M  V30 4 C -4.36624 0.531699 1.74752 0
M  V30 5 N -3.13462 0.843315 2.42606 0
M  V30 6 C -4.31857 0.32966 0.387231 0
M  V30 7 C -5.54884 -0.0130473 -0.217288 0
M  V30 8 N -6.64026 -0.114064 0.538472 0
M  V30 9 C -5.56174 -0.219694 -1.57691 0
M  V30 10 C -4.45099 -0.107729 -2.35133 0
M  V30 11 C -3.23426 0.236328 -1.73751 0
M  V30 12 C -3.18036 0.455047 -0.378223 0
M  V30 13 O -1.98231 0.828928 0.284948 0
M  V30 14 C -0.806877 0.960698 -0.524537 0
M  V30 15 C -0.235734 -0.342109 -0.997627 0
M  V30 16 C 0.867784 -0.0603708 -2.00795 0
M  V30 17 C 2.02479 -0.962798 -1.73318 0
M  V30 18 N 2.76234 -0.311394 -0.584278 0
M  V30 19 C 1.89023 -0.450603 0.486892 0
M  V30 20 C 0.487124 -0.951654 0.206729 0
M  V30 21 C 4.025 -0.859537 -0.609047 0
M  V30 22 C 5.113 -0.243336 0.149682 0
M  V30 23 C 5.42499 1.09783 -0.120113 0
M  V30 24 Cl 4.29646 1.93947 -1.18671 0
M  V30 25 C 6.51438 1.68379 0.438219 0
M  V30 26 C 7.32422 0.954541 1.28055 0
M  V30 27 C 7.06967 -0.365101 1.58403 0
M  V30 28 C 5.9457 -0.948839 0.999555 0
M  V30 29 Cl 5.65682 -2.63082 1.38035 0
M  V30 30 H -8.78263 0.287143 2.17653 0
M  V30 31 H -7.84972 -0.387359 3.54192 0
M  V30 32 H -2.54917 0.110016 2.89762 0
M  V30 33 H -2.82225 1.84162 2.4473 0
M  V30 34 H -6.52633 -0.469966 -2.02161 0
M  V30 35 H -4.41926 -0.269152 -3.43202 0
M  V30 36 H -2.3629 0.346073 -2.33787 0
M  V30 37 H -0.040976 1.5397 0.0482384 0
M  V30 38 H -1.11262 1.56406 -1.39855 0
M  V30 39 H -0.953267 -1.09576 -1.31867 0
M  V30 40 H 1.22692 0.983015 -1.81809 0
M  V30 41 H 0.536131 -0.174492 -3.03002 0
M  V30 42 H 1.67803 -1.93957 -1.3991 0
M  V30 43 H 2.67535 -1.06634 -2.59292 0
M  V30 44 H 1.7948 0.541952 1.0366 0
M  V30 45 H 2.25818 -1.14415 1.31591 0
M  V30 46 H -0.120038 -0.624005 1.08792 0
M  V30 47 H 0.44293 -2.05241 0.174458 0
M  V30 48 H 3.98416 -1.95464 -0.187609 0
M  V30 49 H 4.42438 -1.06344 -1.64992 0
M  V30 50 H 6.72776 2.72876 0.21573 0
M  V30 51 H 8.20606 1.4361 1.73298 0
M  V30 52 H 7.73612 -0.896942 2.24847 0
M  V30 END ATOM
M  V30 BEGIN BOND
M  V30 1 1 1 2
M  V30 2 2 2 3
M  V30 3 1 3 4
M  V30 4 1 4 5
M  V30 5 2 4 6
M  V30 6 1 6 7
M  V30 7 2 7 8
M  V30 8 1 7 9
M  V30 9 2 9 10
M  V30 10 1 10 11
M  V30 11 2 11 12
M  V30 12 1 12 13
M  V30 13 1 13 14
M  V30 14 1 14 15
M  V30 15 1 15 16
M  V30 16 1 16 17
M  V30 17 1 17 18
M  V30 18 1 18 19
M  V30 19 1 19 20
M  V30 20 1 18 21
M  V30 21 1 21 22
M  V30 22 2 22 23
M  V30 23 1 23 24
M  V30 24 1 23 25
M  V30 25 2 25 26
M  V30 26 1 26 27
M  V30 27 2 27 28
M  V30 28 1 28 29
M  V30 29 1 8 2
M  V30 30 1 20 15
M  V30 31 1 28 22
M  V30 32 1 12 6
M  V30 33 1 1 30
M  V30 34 1 1 31
M  V30 35 1 5 32
M  V30 36 1 5 33
M  V30 37 1 9 34
M  V30 38 1 10 35
M  V30 39 1 11 36
M  V30 40 1 14 37
M  V30 41 1 14 38
M  V30 42 1 15 39
M  V30 43 1 16 40
M  V30 44 1 16 41
M  V30 45 1 17 42
M  V30 46 1 17 43
M  V30 47 1 19 44
M  V30 48 1 19 45
M  V30 49 1 20 46
M  V30 50 1 20 47
M  V30 51 1 21 48
M  V30 52 1 21 49
M  V30 53 1 25 50
M  V30 54 1 26 51
M  V30 55 1 27 52
M  V30 END BOND
M  V30 END CTAB
M  END
