
     RDKit          3D

  0  0  0  0  0  0  0  0  0  0999 V3000
M  V30 BEGIN CTAB
M  V30 COUNTS 32 34 0 0 0
M  V30 BEGIN ATOM
M  V30 1 N -5.64626 0.683316 1.73468 0
M  V30 2 C -4.41928 0.487134 1.05488 0
M  V30 3 N -3.58865 -0.517741 1.37138 0
M  V30 4 C -2.41015 -0.743719 0.751895 0
M  V30 5 C -1.60745 -1.79381 1.12813 0
M  V30 6 C -0.40312 -1.98978 0.46394 0
M  V30 7 C 0.00941543 -1.16893 -0.554438 0
M  V30 8 C -0.803766 -0.125026 -0.917863 0
M  V30 9 C -2.0248 0.0974362 -0.265639 0
M  V30 10 C -2.85865 1.13128 -0.605689 0
M  V30 11 N -2.44164 1.99852 -1.66853 0
M  V30 12 N -4.02003 1.30752 0.0461636 0
M  V30 13 S 1.54586 -1.48499 -1.34296 0
M  V30 14 O 1.52389 -1.10103 -2.81909 0
M  V30 15 C 2.89502 -0.649985 -0.57449 0
M  V30 16 C 3.2809 0.617235 -0.959995 0
M  V30 17 C 4.32882 1.30256 -0.384775 0
M  V30 18 C 5.03028 0.694525 0.62816 0
M  V30 19 Br 6.47714 1.59308 1.45043 0
M  V30 20 C 4.68605 -0.554101 1.04162 0
M  V30 21 C 3.61976 -1.23166 0.444666 0
M  V30 22 H -6.52982 0.622263 1.19451 0
M  V30 23 H -5.70427 0.885871 2.75049 0
M  V30 24 H -1.91422 -2.44848 1.92484 0
M  V30 25 H 0.184341 -2.83422 0.806916 0
M  V30 26 H -0.521219 0.54867 -1.71464 0
M  V30 27 H -2.63302 1.69841 -2.66467 0
M  V30 28 H -1.97009 2.8831 -1.41419 0
M  V30 29 H 2.73365 1.09879 -1.75447 0
M  V30 30 H 4.62301 2.28928 -0.690808 0
M  V30 31 H 5.20384 -1.0865 1.8385 0
M  V30 32 H 3.35446 -2.20903 0.772166 0
M  V30 END ATOM
M  V30 BEGIN BOND
M  V30 1 1 1 2
M  V30 2 2 2 3
M  V30 3 1 3 4
M  V30 4 2 4 5
M  V30 5 1 5 6
M  V30 6 2 6 7
M  V30 7 1 7 8
M  V30 8 2 8 9
M  V30 9 1 9 10
M  V30 10 1 10 11
M  V30 11 2 10 12
M  V30 12 1 7 13
M  V30 13 2 13 14
M  V30 14 1 13 15
M  V30 15 2 15 16
M  V30 16 1 16 17
M  V30 17 2 17 18
M  V30 18 1 18 19
M  V30 19 1 18 20
M  V30 20 2 20 21
M  V30 21 1 12 2
M  V30 22 1 21 15
M  V30 23 1 9 4
M  V30 24 1 1 22
M  V30 25 1 1 23
M  V30 26 1 5 24
M  V30 27 1 6 25
M  V30 28 1 8 26
M  V30 29 1 11 27
M  V30 30 1 11 28
M  V30 31 1 16 29
M  V30 32 1 17 30
M  V30 33 1 20 31
M  V30 34 1 21 32
M  V30 END BOND
M  V30 END CTAB
M  END
