
     RDKit          3D

  0  0  0  0  0  0  0  0  0  0999 V3000
M  V30 BEGIN CTAB
M  V30 COUNTS 36 37 0 0 0
M  V30 BEGIN ATOM
M  V30 1 N 4.75423 -0.837524 2.03448 0
M  V30 2 C 3.56283 -0.44605 1.3713 0
M  V30 3 C 2.51969 0.0149111 2.13338 0
M  V30 4 C 1.36862 0.390231 1.46182 0
M  V30 5 C 1.24404 0.317211 0.0974982 0
M  V30 6 C 2.33373 -0.155198 -0.597854 0
M  V30 7 N 3.45461 -0.521241 0.0529418 0
M  V30 8 C 0.0476703 0.728176 -0.661452 0 CFG=1
M  V30 9 C 0.0660536 -0.106164 -1.94734 0
M  V30 10 C -1.30943 -0.431339 -2.44393 0
M  V30 11 C -1.75769 -1.72998 -1.79715 0
M  V30 12 C -2.40823 -1.52268 -0.47283 0
M  V30 13 C -1.53049 -0.716807 0.480738 0
M  V30 14 N -1.19923 0.53682 -0.0343007 0
M  V30 15 S -2.12331 1.86914 0.374807 0
M  V30 16 O -3.43052 1.36257 0.976444 0
M  V30 17 O -2.56288 2.72933 -0.803521 0
M  V30 18 N -1.40484 2.95187 1.50212 0
M  V30 19 H 5.5967 -0.245578 1.93016 0
M  V30 20 H 4.79613 -1.68734 2.6095 0
M  V30 21 H 2.54214 0.100072 3.19548 0
M  V30 22 H 0.552481 0.744571 2.04614 0
M  V30 23 H 2.33644 -0.244372 -1.6939 0
M  V30 24 H 0.165438 1.78236 -0.958398 0
M  V30 25 H 0.680474 0.352649 -2.72279 0
M  V30 26 H 0.542919 -1.10354 -1.70465 0
M  V30 27 H -2.07408 0.314942 -2.23078 0
M  V30 28 H -1.23039 -0.614103 -3.53974 0
M  V30 29 H -2.45884 -2.29245 -2.43814 0
M  V30 30 H -0.854819 -2.39658 -1.69347 0
M  V30 31 H -2.56957 -2.51498 -0.0112439 0
M  V30 32 H -3.36295 -0.974796 -0.632366 0
M  V30 33 H -2.14817 -0.589232 1.41015 0
M  V30 34 H -0.661002 -1.38921 0.711776 0
M  V30 35 H -2.00684 3.81083 1.54318 0
M  V30 36 H -1.47091 2.51348 2.45196 0
M  V30 END ATOM
M  V30 BEGIN BOND
M  V30 1 1 1 2
M  V30 2 2 2 3
M  V30 3 1 3 4
M  V30 4 2 4 5
M  V30 5 1 5 6
M  V30 6 2 6 7
M  V30 7 1 5 8
M  V30 8 1 8 9
M  V30 9 1 9 10
M  V30 10 1 10 11
M  V30 11 1 11 12
M  V30 12 1 12 13
M  V30 13 1 13 14
M  V30 14 1 14 15
M  V30 15 2 15 16
M  V30 16 2 15 17
M  V30 17 1 15 18
M  V30 18 1 7 2
M  V30 19 1 14 8
M  V30 20 1 1 19
M  V30 21 1 1 20
M  V30 22 1 3 21
M  V30 23 1 4 22
M  V30 24 1 6 23
M  V30 25 1 8 24 CFG=3
M  V30 26 1 9 25
M  V30 27 1 9 26
M  V30 28 1 10 27
M  V30 29 1 10 28
M  V30 30 1 11 29
M  V30 31 1 11 30
M  V30 32 1 12 31
M  V30 33 1 12 32
M  V30 34 1 13 33
M  V30 35 1 13 34
M  V30 36 1 18 35
M  V30 37 1 18 36
M  V30 END BOND
M  V30 END CTAB
M  END
