
     RDKit          3D

  0  0  0  0  0  0  0  0  0  0999 V3000
M  V30 BEGIN CTAB
M  V30 COUNTS 19 19 0 0 0
M  V30 BEGIN ATOM
M  V30 1 N -3.67895 -0.619743 0.570817 0
M  V30 2 C -3.21701 0.308146 -0.416928 0
M  V30 3 C -1.72828 0.568137 -0.160879 0
M  V30 4 S -0.834007 -0.988606 -0.290926 0
M  V30 5 C 0.896423 -0.687755 0.00646899 0
M  V30 6 N 1.5037 -0.725296 1.20302 0
M  V30 7 N 2.79533 -0.453421 1.06381 0
M  V30 8 C 3.05142 -0.232498 -0.238378 0
M  V30 9 N 1.85529 -0.383399 -0.879265 0
M  V30 10 N 4.30105 0.0917729 -0.84046 0
M  V30 11 H -4.69012 -0.59288 0.761917 0
M  V30 12 H -3.06553 -0.74587 1.38274 0
M  V30 13 H -3.79205 1.25431 -0.302529 0
M  V30 14 H -3.36961 -0.030884 -1.46123 0
M  V30 15 H -1.5932 0.95885 0.851164 0
M  V30 16 H -1.40411 1.25958 -0.964066 0
M  V30 17 H 3.52085 -0.411778 1.83326 0
M  V30 18 H 4.9801 0.638797 -0.307987 0
M  V30 19 H 4.4687 -0.248332 -1.81054 0
M  V30 END ATOM
M  V30 BEGIN BOND
M  V30 1 1 1 2
M  V30 2 1 2 3
M  V30 3 1 3 4
M  V30 4 1 4 5
M  V30 5 2 5 6
M  V30 6 1 6 7
M  V30 7 1 7 8
M  V30 8 2 8 9
M  V30 9 1 8 10
M  V30 10 1 9 5
M  V30 11 1 1 11
M  V30 12 1 1 12
M  V30 13 1 2 13
M  V30 14 1 2 14
M  V30 15 1 3 15
M  V30 16 1 3 16
M  V30 17 1 7 17
M  V30 18 1 10 18
M  V30 19 1 10 19
M  V30 END BOND
M  V30 END CTAB
M  END
