
     RDKit          3D

  0  0  0  0  0  0  0  0  0  0999 V3000
M  V30 BEGIN CTAB
M  V30 COUNTS 29 30 0 0 0
M  V30 BEGIN ATOM
M  V30 1 N 4.21782 1.01174 -0.769277 0
M  V30 2 C 2.9649 0.374732 -0.486631 0
M  V30 3 C 2.56862 0.0478245 0.789765 0
M  V30 4 N 3.42507 0.346118 1.87859 0
M  V30 5 C 1.34618 -0.572648 1.05533 0
M  V30 6 O 1.07759 -0.841964 2.27464 0
M  V30 7 N 0.55103 -0.846988 0.0221379 0
M  V30 8 C -0.741421 -1.43333 0.209018 0
M  V30 9 C -1.92285 -0.573807 0.140095 0
M  V30 10 C -2.39542 0.309541 1.06678 0
M  V30 11 F -1.76114 0.469515 2.23188 0
M  V30 12 C -3.55997 1.07845 0.876954 0
M  V30 13 C -4.29961 0.983223 -0.267466 0
M  V30 14 C -3.84761 0.100509 -1.21882 0
M  V30 15 C -2.71537 -0.645412 -1.03013 0
M  V30 16 C 0.967976 -0.513508 -1.23926 0
M  V30 17 O 0.254688 -0.754113 -2.25759 0
M  V30 18 N 2.14239 0.0824522 -1.50327 0
M  V30 19 H 5.09433 0.702528 -0.259353 0
M  V30 20 H 4.2142 1.77265 -1.48092 0
M  V30 21 H 3.82158 1.28758 2.07896 0
M  V30 22 H 3.69372 -0.413597 2.53904 0
M  V30 23 H -0.764551 -2.05746 1.16218 0
M  V30 24 H -0.823409 -2.23588 -0.583942 0
M  V30 25 H -3.89979 1.76699 1.63697 0
M  V30 26 H -5.20133 1.56274 -0.44248 0
M  V30 27 H -4.42202 0.00858455 -2.14184 0
M  V30 28 H -2.41651 -1.3398 -1.79841 0
M  V30 29 H 2.43091 0.323342 -2.48296 0
M  V30 END ATOM
M  V30 BEGIN BOND
M  V30 1 1 1 2
M  V30 2 2 2 3
M  V30 3 1 3 4
M  V30 4 1 3 5
M  V30 5 2 5 6
M  V30 6 1 5 7
M  V30 7 1 7 8
M  V30 8 1 8 9
M  V30 9 2 9 10
M  V30 10 1 10 11
M  V30 11 1 10 12
M  V30 12 2 12 13
M  V30 13 1 13 14
M  V30 14 2 14 15
M  V30 15 1 7 16
M  V30 16 2 16 17
M  V30 17 1 16 18
M  V30 18 1 18 2
M  V30 19 1 15 9
M  V30 20 1 1 19
M  V30 21 1 1 20
M  V30 22 1 4 21
M  V30 23 1 4 22
M  V30 24 1 8 23
M  V30 25 1 8 24
M  V30 26 1 12 25
M  V30 27 1 13 26
M  V30 28 1 14 27
M  V30 29 1 15 28
M  V30 30 1 18 29
M  V30 END BOND
M  V30 END CTAB
M  END
