
     RDKit          3D

  0  0  0  0  0  0  0  0  0  0999 V3000
M  V30 BEGIN CTAB
M  V30 COUNTS 47 48 0 0 0
M  V30 BEGIN ATOM
M  V30 1 N -5.44059 0.354634 -2.08969 0
M  V30 2 C -5.30098 0.713939 -0.693791 0
M  V30 3 C -3.86551 0.860787 -0.309307 0
M  V30 4 C -3.10741 -0.410661 -0.533475 0
M  V30 5 C -3.58476 -1.58397 0.214367 0
M  V30 6 C -3.34444 -1.53268 1.7 0
M  V30 7 C -2.13866 -0.716973 2.05988 0
M  V30 8 C -1.18285 -0.504066 0.926725 0
M  V30 9 N -1.71412 -0.143421 -0.324391 0
M  V30 10 C -0.902253 -0.447555 -1.474 0
M  V30 11 C 0.496112 0.0671145 -1.35536 0
M  V30 12 O 1.259 -0.406718 -0.300646 0
M  V30 13 C 2.5469 -0.0255988 -0.0157872 0
M  V30 14 C 3.20617 -0.560882 1.05915 0
M  V30 15 C 4.51642 -0.180933 1.36651 0
M  V30 16 C 5.14766 0.742604 0.575385 0
M  V30 17 C 4.50635 1.29522 -0.511683 0
M  V30 18 C 3.19605 0.902027 -0.802005 0
M  V30 19 S 6.80476 1.25507 0.93206 0
M  V30 20 O 6.96546 2.6951 0.568035 0
M  V30 21 O 7.0185 1.1173 2.42989 0
M  V30 22 N 7.9212 0.246586 0.0935609 0
M  V30 23 H -6.39834 0.697493 -2.37062 0
M  V30 24 H -4.68449 0.84818 -2.60964 0
M  V30 25 H -5.80465 -0.0486145 -0.0747614 0
M  V30 26 H -5.87239 1.66954 -0.510665 0
M  V30 27 H -3.36115 1.67419 -0.914428 0
M  V30 28 H -3.7253 1.18598 0.736452 0
M  V30 29 H -3.19604 -0.667111 -1.63592 0
M  V30 30 H -4.6811 -1.72686 -0.00990389 0
M  V30 31 H -3.0987 -2.50346 -0.227785 0
M  V30 32 H -4.24566 -1.09986 2.16851 0
M  V30 33 H -3.28669 -2.58355 2.04761 0
M  V30 34 H -2.43662 0.252477 2.49635 0
M  V30 35 H -1.60442 -1.26227 2.86352 0
M  V30 36 H -0.601785 -1.45666 0.766444 0
M  V30 37 H -0.436222 0.24602 1.23799 0
M  V30 38 H -0.808434 -1.57388 -1.54656 0
M  V30 39 H -1.3458 -0.0766802 -2.39787 0
M  V30 40 H 0.458182 1.20073 -1.31618 0
M  V30 41 H 0.987301 -0.114362 -2.35583 0
M  V30 42 H 2.76374 -1.28615 1.71403 0
M  V30 43 H 5.06505 -0.581887 2.20339 0
M  V30 44 H 4.96206 2.012 -1.15428 0
M  V30 45 H 2.69976 1.3343 -1.65325 0
M  V30 46 H 8.26749 0.743575 -0.769018 0
M  V30 47 H 7.38121 -0.620053 -0.202987 0
M  V30 END ATOM
M  V30 BEGIN BOND
M  V30 1 1 1 2
M  V30 2 1 2 3
M  V30 3 1 3 4
M  V30 4 1 4 5
M  V30 5 1 5 6
M  V30 6 1 6 7
M  V30 7 1 7 8
M  V30 8 1 8 9
M  V30 9 1 9 10
M  V30 10 1 10 11
M  V30 11 1 11 12
M  V30 12 1 12 13
M  V30 13 2 13 14
M  V30 14 1 14 15
M  V30 15 2 15 16
M  V30 16 1 16 17
M  V30 17 2 17 18
M  V30 18 1 16 19
M  V30 19 2 19 20
M  V30 20 2 19 21
M  V30 21 1 19 22
M  V30 22 1 9 4
M  V30 23 1 18 13
M  V30 24 1 1 23
M  V30 25 1 1 24
M  V30 26 1 2 25
M  V30 27 1 2 26
M  V30 28 1 3 27
M  V30 29 1 3 28
M  V30 30 1 4 29
M  V30 31 1 5 30
M  V30 32 1 5 31
M  V30 33 1 6 32
M  V30 34 1 6 33
M  V30 35 1 7 34
M  V30 36 1 7 35
M  V30 37 1 8 36
M  V30 38 1 8 37
M  V30 39 1 10 38
M  V30 40 1 10 39
M  V30 41 1 11 40
M  V30 42 1 11 41
M  V30 43 1 14 42
M  V30 44 1 15 43
M  V30 45 1 17 44
M  V30 46 1 18 45
M  V30 47 1 22 46
M  V30 48 1 22 47
M  V30 END BOND
M  V30 END CTAB
M  END
