
     RDKit          3D

  0  0  0  0  0  0  0  0  0  0999 V3000
M  V30 BEGIN CTAB
M  V30 COUNTS 34 35 0 0 0
M  V30 BEGIN ATOM
M  V30 1 C 3.9829 3.26942 -0.574275 0
M  V30 2 C 3.68401 1.93735 0.0470541 0
M  V30 3 O 2.51318 1.36887 -0.471384 0
M  V30 4 C 2.09729 0.134444 6.84661e-05 0
M  V30 5 C 2.80774 -0.523859 0.951694 0
M  V30 6 C 2.39819 -1.75114 1.42336 0
M  V30 7 C 1.26264 -2.31002 0.924906 0
M  V30 8 C 0.523222 -1.65668 -0.0457372 0
M  V30 9 C 0.930827 -0.444138 -0.50867 0
M  V30 10 O 0.244589 0.247295 -1.45954 0
M  V30 11 C -0.937936 -0.160366 -2.05086 0
M  V30 12 C -2.08961 -0.303802 -1.12256 0
M  V30 13 N -3.17866 -1.00854 -1.47151 0
M  V30 14 C -4.25449 -1.16202 -0.669388 0
M  V30 15 N -5.38341 -1.91278 -1.07387 0
M  V30 16 N -4.18805 -0.55517 0.543417 0
M  V30 17 C -3.12689 0.163124 0.950205 0
M  V30 18 N -2.09199 0.273628 0.100138 0
M  V30 19 N -3.06327 0.796983 2.22301 0
M  V30 20 H 3.64224 3.34551 -1.62723 0
M  V30 21 H 3.63303 4.10876 0.0306262 0
M  V30 22 H 5.10653 3.36309 -0.614394 0
M  V30 23 H 3.50069 2.11784 1.1367 0
M  V30 24 H 4.50785 1.21591 -0.107604 0
M  V30 25 H 3.69891 -0.087061 1.3437 0
M  V30 26 H 2.99654 -2.24539 2.18698 0
M  V30 27 H 0.909183 -3.27731 1.2736 0
M  V30 28 H -0.387103 -2.15271 -0.433718 0
M  V30 29 H -0.814143 -1.09453 -2.67028 0
M  V30 30 H -1.22936 0.63194 -2.78927 0
M  V30 31 H -5.25329 -2.85811 -1.4692 0
M  V30 32 H -6.33625 -1.52603 -0.978235 0
M  V30 33 H -3.59761 0.408529 3.05301 0
M  V30 34 H -2.5075 1.64696 2.40066 0
M  V30 END ATOM
M  V30 BEGIN BOND
M  V30 1 1 1 2
M  V30 2 1 2 3
M  V30 3 1 3 4
M  V30 4 2 4 5
M  V30 5 1 5 6
M  V30 6 2 6 7
M  V30 7 1 7 8
M  V30 8 2 8 9
M  V30 9 1 9 10
M  V30 10 1 10 11
M  V30 11 1 11 12
M  V30 12 2 12 13
M  V30 13 1 13 14
M  V30 14 1 14 15
M  V30 15 2 14 16
M  V30 16 1 16 17
M  V30 17 2 17 18
M  V30 18 1 17 19
M  V30 19 1 9 4
M  V30 20 1 18 12
M  V30 21 1 1 20
M  V30 22 1 1 21
M  V30 23 1 1 22
M  V30 24 1 2 23
M  V30 25 1 2 24
M  V30 26 1 5 25
M  V30 27 1 6 26
M  V30 28 1 7 27
M  V30 29 1 8 28
M  V30 30 1 11 29
M  V30 31 1 11 30
M  V30 32 1 15 31
M  V30 33 1 15 32
M  V30 34 1 19 33
M  V30 35 1 19 34
M  V30 END BOND
M  V30 END CTAB
M  END
