
     RDKit          3D

  0  0  0  0  0  0  0  0  0  0999 V3000
M  V30 BEGIN CTAB
M  V30 COUNTS 22 23 0 0 0
M  V30 BEGIN ATOM
M  V30 1 C -2.37928 -0.769623 1.27126 0
M  V30 2 C -2.08018 0.0564124 0.0337072 0
M  V30 3 C -3.02586 0.603252 -0.730024 0
M  V30 4 C -2.62698 1.32812 -1.82261 0
M  V30 5 S -0.921452 1.21396 -1.73637 0
M  V30 6 C -0.772493 0.259213 -0.330037 0
M  V30 7 C 0.445494 -0.213772 0.311162 0
M  V30 8 N 0.50262 -0.964953 1.42067 0
M  V30 9 N 1.79644 -1.19964 1.70532 0
M  V30 10 C 2.55586 -0.595939 0.774527 0
M  V30 11 N 1.70388 0.00345111 -0.0716094 0
M  V30 12 N 2.05537 0.750407 -1.19471 0
M  V30 13 N 3.96965 -0.597553 0.708256 0
M  V30 14 H -1.93908 -1.7936 1.15222 0
M  V30 15 H -1.89648 -0.319891 2.16186 0
M  V30 16 H -3.44901 -0.907123 1.42364 0
M  V30 17 H -4.1143 0.508125 -0.536342 0
M  V30 18 H -3.25972 1.84873 -2.56269 0
M  V30 19 H 1.89852 1.78048 -1.28542 0
M  V30 20 H 2.50517 0.245415 -1.99777 0
M  V30 21 H 4.43653 -1.10435 -0.0942568 0
M  V30 22 H 4.59532 -0.131123 1.39922 0
M  V30 END ATOM
M  V30 BEGIN BOND
M  V30 1 1 1 2
M  V30 2 1 2 3
M  V30 3 2 3 4
M  V30 4 1 4 5
M  V30 5 1 5 6
M  V30 6 1 6 7
M  V30 7 2 7 8
M  V30 8 1 8 9
M  V30 9 2 9 10
M  V30 10 1 10 11
M  V30 11 1 11 12
M  V30 12 1 10 13
M  V30 13 2 6 2
M  V30 14 1 11 7
M  V30 15 1 1 14
M  V30 16 1 1 15
M  V30 17 1 1 16
M  V30 18 1 3 17
M  V30 19 1 4 18
M  V30 20 1 12 19
M  V30 21 1 12 20
M  V30 22 1 13 21
M  V30 23 1 13 22
M  V30 END BOND
M  V30 END CTAB
M  END
