
     RDKit          3D

  0  0  0  0  0  0  0  0  0  0999 V3000
M  V30 BEGIN CTAB
M  V30 COUNTS 19 19 0 0 0
M  V30 BEGIN ATOM
M  V30 1 F -2.65491 -1.89331 0.527907 0
M  V30 2 C -3.0107 -0.74467 -0.160345 0
M  V30 3 O -1.93716 -0.43109 -1.03941 0
M  V30 4 C -0.660231 -0.170718 -0.576286 0
M  V30 5 C 0.279527 -1.16575 -0.414963 0
M  V30 6 C 1.51508 -0.834887 0.0450925 0
M  V30 7 N 2.55179 -1.81379 0.24102 0
M  V30 8 N 1.83682 0.434384 0.343869 0
M  V30 9 C 0.940235 1.4205 0.195526 0
M  V30 10 C -0.338111 1.13764 -0.271471 0
M  V30 11 N 1.26395 2.76954 0.50702 0
M  V30 12 F -4.12521 -0.993907 -0.932334 0
M  V30 13 F -3.22421 0.317449 0.720216 0
M  V30 14 H 0.0453822 -2.1945 -0.648285 0
M  V30 15 H 3.19669 -2.01945 -0.561211 0
M  V30 16 H 2.64965 -2.3016 1.1656 0
M  V30 17 H -1.07381 1.92889 -0.395913 0
M  V30 18 H 0.521467 3.42364 0.837679 0
M  V30 19 H 2.22377 3.1316 0.416286 0
M  V30 END ATOM
M  V30 BEGIN BOND
M  V30 1 1 1 2
M  V30 2 1 2 3
M  V30 3 1 3 4
M  V30 4 2 4 5
M  V30 5 1 5 6
M  V30 6 1 6 7
M  V30 7 2 6 8
M  V30 8 1 8 9
M  V30 9 2 9 10
M  V30 10 1 9 11
M  V30 11 1 2 12
M  V30 12 1 2 13
M  V30 13 1 10 4
M  V30 14 1 5 14
M  V30 15 1 7 15
M  V30 16 1 7 16
M  V30 17 1 10 17
M  V30 18 1 11 18
M  V30 19 1 11 19
M  V30 END BOND
M  V30 END CTAB
M  END
