
     RDKit          3D

  0  0  0  0  0  0  0  0  0  0999 V3000
M  V30 BEGIN CTAB
M  V30 COUNTS 27 27 0 0 0
M  V30 BEGIN ATOM
M  V30 1 N -2.64845 -1.47183 0.726263 0
M  V30 2 C -1.72822 -1.26575 -0.306693 0
M  V30 3 C -0.575948 -0.33878 0.117095 0 CFG=2
M  V30 4 C -1.17738 0.951043 0.500335 0
M  V30 5 C -0.387073 2.17798 0.262181 0
M  V30 6 C 1.03408 1.85278 -0.0425168 0
M  V30 7 C 1.03956 0.883476 -1.1992 0
M  V30 8 N 0.385097 -0.352539 -0.905993 0
M  V30 9 S 1.53284 -1.62468 -0.770775 0
M  V30 10 O 0.952637 -2.97577 -0.913361 0
M  V30 11 O 2.52522 -1.42561 -1.90753 0
M  V30 12 N 2.43869 -1.49469 0.690001 0
M  V30 13 H -3.4379 -2.01112 0.484377 0
M  V30 14 H -2.64439 -0.913376 1.5256 0
M  V30 15 H -1.37772 -2.20068 -0.733164 0
M  V30 16 H -2.24709 -0.693673 -1.12968 0
M  V30 17 H -0.134204 -0.858816 1.01785 0
M  V30 18 H -1.40303 0.907836 1.6079 0
M  V30 19 H -2.19966 1.09913 0.0415695 0
M  V30 20 H -0.402226 2.88222 1.12346 0
M  V30 21 H -0.813486 2.7532 -0.594629 0
M  V30 22 H 1.51689 2.7921 -0.423381 0
M  V30 23 H 1.60355 1.52038 0.82452 0
M  V30 24 H 2.09077 0.743201 -1.51661 0
M  V30 25 H 0.508164 1.37078 -2.04227 0
M  V30 26 H 2.09803 -0.772557 1.33145 0
M  V30 27 H 3.45124 -1.53425 0.532935 0
M  V30 END ATOM
M  V30 BEGIN BOND
M  V30 1 1 1 2
M  V30 2 1 2 3
M  V30 3 1 3 4
M  V30 4 1 4 5
M  V30 5 1 5 6
M  V30 6 1 6 7
M  V30 7 1 7 8
M  V30 8 1 8 9
M  V30 9 2 9 10
M  V30 10 2 9 11
M  V30 11 1 9 12
M  V30 12 1 8 3
M  V30 13 1 1 13
M  V30 14 1 1 14
M  V30 15 1 2 15
M  V30 16 1 2 16
M  V30 17 1 3 17 CFG=1
M  V30 18 1 4 18
M  V30 19 1 4 19
M  V30 20 1 5 20
M  V30 21 1 5 21
M  V30 22 1 6 22
M  V30 23 1 6 23
M  V30 24 1 7 24
M  V30 25 1 7 25
M  V30 26 1 12 26
M  V30 27 1 12 27
M  V30 END BOND
M  V30 END CTAB
M  END
