
     RDKit          3D

  0  0  0  0  0  0  0  0  0  0999 V3000
M  V30 BEGIN CTAB
M  V30 COUNTS 27 29 0 0 0
M  V30 BEGIN ATOM
M  V30 1 N 4.5397 0.21492 1.09007 0
M  V30 2 C 3.1749 -0.0934864 1.36501 0
M  V30 3 C 2.25733 0.269326 0.254688 0
M  V30 4 C 2.71581 0.837636 -0.914246 0
M  V30 5 C 1.83599 1.17058 -1.94418 0
M  V30 6 N 0.526845 0.919146 -1.75949 0
M  V30 7 C 0.0666689 0.362899 -0.618816 0
M  V30 8 N 0.938569 0.04202 0.381015 0
M  V30 9 N 0.273866 -0.485888 1.39505 0
M  V30 10 C -1.04922 -0.539872 1.12153 0
M  V30 11 C -1.17513 -0.00564757 -0.144642 0
M  V30 12 C -2.42135 0.0695372 -0.692063 0
M  V30 13 C -3.51607 -0.381806 0.0166763 0
M  V30 14 C -3.40047 -0.917176 1.28238 0
M  V30 15 C -2.14256 -0.996189 1.84212 0
M  V30 16 N -4.80888 -0.293914 -0.573978 0
M  V30 17 H 4.62156 1.21043 0.838758 0
M  V30 18 H 5.03543 -0.454758 0.499332 0
M  V30 19 H 3.09031 -1.21427 1.46629 0
M  V30 20 H 2.81352 0.306727 2.33292 0
M  V30 21 H 3.77829 1.01683 -1.00725 0
M  V30 22 H 2.24239 1.61484 -2.84353 0
M  V30 23 H -2.52997 0.493203 -1.69883 0
M  V30 24 H -4.29475 -1.25817 1.79764 0
M  V30 25 H -2.04367 -1.41403 2.83256 0
M  V30 26 H -5.00175 0.533176 -1.18051 0
M  V30 27 H -5.52737 -1.00606 -0.41758 0
M  V30 END ATOM
M  V30 BEGIN BOND
M  V30 1 1 1 2
M  V30 2 1 2 3
M  V30 3 2 3 4
M  V30 4 1 4 5
M  V30 5 2 5 6
M  V30 6 1 6 7
M  V30 7 1 7 8
M  V30 8 1 8 9
M  V30 9 2 9 10
M  V30 10 1 10 11
M  V30 11 1 11 12
M  V30 12 2 12 13
M  V30 13 1 13 14
M  V30 14 2 14 15
M  V30 15 1 13 16
M  V30 16 1 8 3
M  V30 17 1 15 10
M  V30 18 2 11 7
M  V30 19 1 1 17
M  V30 20 1 1 18
M  V30 21 1 2 19
M  V30 22 1 2 20
M  V30 23 1 4 21
M  V30 24 1 5 22
M  V30 25 1 12 23
M  V30 26 1 14 24
M  V30 27 1 15 25
M  V30 28 1 16 26
M  V30 29 1 16 27
M  V30 END BOND
M  V30 END CTAB
M  END
