
     RDKit          3D

  0  0  0  0  0  0  0  0  0  0999 V3000
M  V30 BEGIN CTAB
M  V30 COUNTS 32 33 0 0 0
M  V30 BEGIN ATOM
M  V30 1 C 4.88717 1.07001 1.43784 0
M  V30 2 O 3.51297 1.13954 1.0422 0
M  V30 3 C 2.91247 0.100635 0.380642 0
M  V30 4 C 3.61664 -1.03268 0.0817296 0
M  V30 5 C 3.00484 -2.09759 -0.595255 0
M  V30 6 C 1.67569 -1.95006 -0.940695 0
M  V30 7 C 0.935347 -0.810471 -0.649602 0
M  V30 8 C 1.58452 0.198268 0.0122268 0
M  V30 9 N -0.400349 -0.729026 -1.0794 0
M  V30 10 C -1.49385 -0.139693 -0.4327 0
M  V30 11 C -1.46038 0.251201 0.890778 0
M  V30 12 C -2.59357 0.80293 1.51078 0
M  V30 13 C -3.75567 0.957519 0.795467 0
M  V30 14 C -3.80116 0.571124 -0.522146 0
M  V30 15 C -2.68949 0.0266941 -1.14288 0
M  V30 16 N -2.72043 -0.373572 -2.50084 0
M  V30 17 N -4.89968 1.51506 1.42337 0
M  V30 18 H 5.05452 0.195787 2.10103 0
M  V30 19 H 5.2006 1.96379 1.98116 0
M  V30 20 H 5.54409 0.986588 0.541052 0
M  V30 21 H 4.65458 -1.18749 0.333822 0
M  V30 22 H 3.53553 -3.00004 -0.843042 0
M  V30 23 H 1.17583 -2.76752 -1.46976 0
M  V30 24 H 1.05245 1.13529 0.250037 0
M  V30 25 H -0.619768 -1.18727 -2.03801 0
M  V30 26 H -0.56988 0.124539 1.49864 0
M  V30 27 H -2.56385 1.10506 2.53478 0
M  V30 28 H -4.72619 0.692211 -1.09646 0
M  V30 29 H -1.981 -0.0163748 -3.13538 0
M  V30 30 H -3.44423 -1.00196 -2.8813 0
M  V30 31 H -5.82576 1.08374 1.27771 0
M  V30 32 H -4.80198 2.37378 2.04123 0
M  V30 END ATOM
M  V30 BEGIN BOND
M  V30 1 1 1 2
M  V30 2 1 2 3
M  V30 3 2 3 4
M  V30 4 1 4 5
M  V30 5 2 5 6
M  V30 6 1 6 7
M  V30 7 2 7 8
M  V30 8 1 7 9
M  V30 9 1 9 10
M  V30 10 2 10 11
M  V30 11 1 11 12
M  V30 12 2 12 13
M  V30 13 1 13 14
M  V30 14 2 14 15
M  V30 15 1 15 16
M  V30 16 1 13 17
M  V30 17 1 8 3
M  V30 18 1 15 10
M  V30 19 1 1 18
M  V30 20 1 1 19
M  V30 21 1 1 20
M  V30 22 1 4 21
M  V30 23 1 5 22
M  V30 24 1 6 23
M  V30 25 1 8 24
M  V30 26 1 9 25
M  V30 27 1 11 26
M  V30 28 1 12 27
M  V30 29 1 14 28
M  V30 30 1 16 29
M  V30 31 1 16 30
M  V30 32 1 17 31
M  V30 33 1 17 32
M  V30 END BOND
M  V30 END CTAB
M  END
