
     RDKit          3D

  0  0  0  0  0  0  0  0  0  0999 V3000
M  V30 BEGIN CTAB
M  V30 COUNTS 46 48 0 0 0
M  V30 BEGIN ATOM
M  V30 1 N -4.11272 1.12728 1.64729 0
M  V30 2 C -2.72135 1.02697 1.17611 0
M  V30 3 C -2.08498 -0.228128 1.66669 0
M  V30 4 C -2.1624 -1.38125 0.719686 0
M  V30 5 C -3.59539 -1.61566 0.246118 0
M  V30 6 C -3.78646 -0.754793 -0.974567 0
M  V30 7 C -2.47588 0.0189945 -1.11289 0
M  V30 8 C -2.62824 1.25782 -0.287244 0
M  V30 9 C -1.49418 -0.967244 -0.564503 0
M  V30 10 N -0.168003 -0.496552 -0.425516 0
M  V30 11 C 0.982767 -1.05552 -1.03299 0
M  V30 12 O 0.806499 -2.05867 -1.75927 0
M  V30 13 C 2.35473 -0.530531 -0.860688 0
M  V30 14 N 3.29143 -1.34408 -1.62562 0
M  V30 15 C 2.49202 0.894581 -1.32626 0
M  V30 16 C 3.1172 1.79969 -0.291711 0
M  V30 17 C 4.4687 1.21255 0.0554783 0
M  V30 18 C 4.24288 -0.131616 0.667381 0
M  V30 19 C 2.80184 -0.579587 0.583901 0
M  V30 20 H -4.09796 1.40025 2.63532 0
M  V30 21 H -4.59042 1.88801 1.1065 0
M  V30 22 H -2.19994 1.8831 1.69359 0
M  V30 23 H -1.00907 -0.0672075 1.9058 0
M  V30 24 H -2.60542 -0.530713 2.60847 0
M  V30 25 H -1.72536 -2.26026 1.19027 0
M  V30 26 H -3.69006 -2.69587 0.0221134 0
M  V30 27 H -4.33349 -1.39704 1.04403 0
M  V30 28 H -4.64805 -0.0820554 -0.898027 0
M  V30 29 H -3.82606 -1.4407 -1.85037 0
M  V30 30 H -2.32013 0.286704 -2.15547 0
M  V30 31 H -3.60406 1.72545 -0.614188 0
M  V30 32 H -1.86831 2.04657 -0.554227 0
M  V30 33 H -1.52292 -1.86271 -1.23675 0
M  V30 34 H -0.000588677 0.349426 0.18373 0
M  V30 35 H 3.66279 -2.13756 -1.05838 0
M  V30 36 H 4.05251 -0.730822 -1.96126 0
M  V30 37 H 3.10205 0.954513 -2.25099 0
M  V30 38 H 1.47961 1.30839 -1.5658 0
M  V30 39 H 3.29738 2.794 -0.765693 0
M  V30 40 H 2.52505 1.89241 0.628785 0
M  V30 41 H 5.0465 1.89923 0.713211 0
M  V30 42 H 5.04945 1.17616 -0.903141 0
M  V30 43 H 4.9346 -0.851069 0.191723 0
M  V30 44 H 4.55963 -0.060626 1.74118 0
M  V30 45 H 2.8212 -1.67828 0.846036 0
M  V30 46 H 2.1826 -0.00357021 1.26824 0
M  V30 END ATOM
M  V30 BEGIN BOND
M  V30 1 1 1 2
M  V30 2 1 2 3
M  V30 3 1 3 4
M  V30 4 1 4 5
M  V30 5 1 5 6
M  V30 6 1 6 7
M  V30 7 1 7 8
M  V30 8 1 7 9
M  V30 9 1 9 10
M  V30 10 1 10 11
M  V30 11 2 11 12
M  V30 12 1 11 13
M  V30 13 1 13 14
M  V30 14 1 13 15
M  V30 15 1 15 16
M  V30 16 1 16 17
M  V30 17 1 17 18
M  V30 18 1 18 19
M  V30 19 1 8 2
M  V30 20 1 19 13
M  V30 21 1 9 4
M  V30 22 1 1 20
M  V30 23 1 1 21
M  V30 24 1 2 22
M  V30 25 1 3 23
M  V30 26 1 3 24
M  V30 27 1 4 25
M  V30 28 1 5 26
M  V30 29 1 5 27
M  V30 30 1 6 28
M  V30 31 1 6 29
M  V30 32 1 7 30
M  V30 33 1 8 31
M  V30 34 1 8 32
M  V30 35 1 9 33
M  V30 36 1 10 34
M  V30 37 1 14 35
M  V30 38 1 14 36
M  V30 39 1 15 37
M  V30 40 1 15 38
M  V30 41 1 16 39
M  V30 42 1 16 40
M  V30 43 1 17 41
M  V30 44 1 17 42
M  V30 45 1 18 43
M  V30 46 1 18 44
M  V30 47 1 19 45
M  V30 48 1 19 46
M  V30 END BOND
M  V30 END CTAB
M  END
