
     RDKit          3D

  0  0  0  0  0  0  0  0  0  0999 V3000
M  V30 BEGIN CTAB
M  V30 COUNTS 15 15 0 0 0
M  V30 BEGIN ATOM
M  V30 1 N 2.26978 -0.718522 0.576861 0
M  V30 2 C 1.40675 -0.334108 -0.481282 0
M  V30 3 S 1.76242 -0.740669 -2.03718 0
M  V30 4 C 0.195393 0.428928 -0.172243 0
M  V30 5 C -1.09681 -0.0380082 -0.0656352 0
M  V30 6 N -1.51631 -1.39795 -0.241426 0
M  V30 7 N -1.91095 0.979218 0.229864 0
M  V30 8 N -1.15562 2.05382 0.307123 0
M  V30 9 C 0.128556 1.78444 0.0734881 0
M  V30 10 H 3.25846 -0.399603 0.595283 0
M  V30 11 H 1.94356 -1.32132 1.35303 0
M  V30 12 H -1.74663 -1.72206 -1.19217 0
M  V30 13 H -1.56561 -1.98896 0.609802 0
M  V30 14 H -2.96452 0.95381 0.378668 0
M  V30 15 H 0.991525 2.46098 0.0658175 0
M  V30 END ATOM
M  V30 BEGIN BOND
M  V30 1 1 1 2
M  V30 2 2 2 3
M  V30 3 1 2 4
M  V30 4 2 4 5
M  V30 5 1 5 6
M  V30 6 1 5 7
M  V30 7 1 7 8
M  V30 8 2 8 9
M  V30 9 1 9 4
M  V30 10 1 1 10
M  V30 11 1 1 11
M  V30 12 1 6 12
M  V30 13 1 6 13
M  V30 14 1 7 14
M  V30 15 1 9 15
M  V30 END BOND
M  V30 END CTAB
M  END
