
     RDKit          3D

  0  0  0  0  0  0  0  0  0  0999 V3000
M  V30 BEGIN CTAB
M  V30 COUNTS 28 29 0 0 0
M  V30 BEGIN ATOM
M  V30 1 N 3.63567 2.13462 -1.08404 0
M  V30 2 C 3.22905 0.838896 -0.62681 0
M  V30 3 C 4.18427 -0.115734 -0.347906 0
M  V30 4 C 3.75419 -1.35542 0.0914564 0
M  V30 5 N 4.75858 -2.32275 0.37238 0
M  V30 6 N 2.44467 -1.60841 0.237565 0
M  V30 7 C 1.5179 -0.675119 -0.0354357 0
M  V30 8 N 1.94654 0.522303 -0.460429 0
M  V30 9 S -0.219613 -0.977179 0.147073 0
M  V30 10 C -1.12356 0.519724 -0.317758 0
M  V30 11 C -2.58563 0.321118 -0.182923 0
M  V30 12 C -3.0396 -0.903569 0.252595 0
M  V30 13 C -4.36937 -1.15832 0.400323 0
M  V30 14 C -5.30599 -0.170087 0.109149 0
M  V30 15 C -4.84423 1.05315 -0.326241 0
M  V30 16 C -3.49067 1.31292 -0.476764 0
M  V30 17 Cl -2.91695 2.86971 -1.03022 0
M  V30 18 H 4.3322 2.72244 -0.614524 0
M  V30 19 H 3.17269 2.47494 -1.95738 0
M  V30 20 H 5.23984 0.0962924 -0.468421 0
M  V30 21 H 4.95496 -3.08021 -0.318756 0
M  V30 22 H 5.32395 -2.32125 1.24727 0
M  V30 23 H -0.763829 1.36872 0.315629 0
M  V30 24 H -0.835757 0.748494 -1.38199 0
M  V30 25 H -2.33447 -1.70105 0.48991 0
M  V30 26 H -4.75506 -2.11739 0.742782 0
M  V30 27 H -6.36942 -0.325605 0.21096 0
M  V30 28 H -5.54036 1.84876 -0.563342 0
M  V30 END ATOM
M  V30 BEGIN BOND
M  V30 1 1 1 2
M  V30 2 2 2 3
M  V30 3 1 3 4
M  V30 4 1 4 5
M  V30 5 2 4 6
M  V30 6 1 6 7
M  V30 7 2 7 8
M  V30 8 1 7 9
M  V30 9 1 9 10
M  V30 10 1 10 11
M  V30 11 2 11 12
M  V30 12 1 12 13
M  V30 13 2 13 14
M  V30 14 1 14 15
M  V30 15 2 15 16
M  V30 16 1 16 17
M  V30 17 1 8 2
M  V30 18 1 16 11
M  V30 19 1 1 18
M  V30 20 1 1 19
M  V30 21 1 3 20
M  V30 22 1 5 21
M  V30 23 1 5 22
M  V30 24 1 10 23
M  V30 25 1 10 24
M  V30 26 1 12 25
M  V30 27 1 13 26
M  V30 28 1 14 27
M  V30 29 1 15 28
M  V30 END BOND
M  V30 END CTAB
M  END
