
     RDKit          3D

  0  0  0  0  0  0  0  0  0  0999 V3000
M  V30 BEGIN CTAB
M  V30 COUNTS 36 38 0 0 0
M  V30 BEGIN ATOM
M  V30 1 N 4.6779 -1.8044 -1.18724 0
M  V30 2 C 4.6151 -0.557475 -0.506814 0
M  V30 3 N 3.46999 -0.193431 0.124529 0
M  V30 4 C 3.33241 0.947379 0.803862 0
M  V30 5 C 1.98343 1.26126 1.43558 0
M  V30 6 S 1.12996 -0.384891 1.51559 0
M  V30 7 C 0.730643 -0.863038 -0.220168 0
M  V30 8 C -0.704993 -1.33979 -0.179957 0
M  V30 9 C -0.953456 -2.69834 -0.0598381 0
M  V30 10 S -2.65601 -2.72457 -0.0305702 0
M  V30 11 C -2.9476 -1.05255 -0.167634 0
M  V30 12 N -1.72974 -0.552876 -0.230941 0
M  V30 13 C -4.21834 -0.345249 -0.1829 0
M  V30 14 C -4.27984 1.01878 -0.283791 0
M  V30 15 C -5.48745 1.67902 -0.266769 0
M  V30 16 C -6.69153 1.00262 -0.14648 0
M  V30 17 C -6.62987 -0.380122 -0.0453596 0
M  V30 18 C -5.41911 -1.02219 -0.065029 0
M  V30 19 N 4.36081 1.81513 0.894835 0
M  V30 20 C 5.5147 1.4681 0.267487 0
M  V30 21 N 5.63887 0.308233 -0.418248 0
M  V30 22 N 6.61484 2.37609 0.344871 0
M  V30 23 H 5.22465 -2.60613 -0.744357 0
M  V30 24 H 4.23356 -2.01506 -2.09733 0
M  V30 25 H 1.39932 1.96441 0.856664 0
M  V30 26 H 2.18497 1.53352 2.48315 0
M  V30 27 H 0.830542 0.0318537 -0.870919 0
M  V30 28 H 1.38097 -1.6481 -0.603706 0
M  V30 29 H -0.208905 -3.50905 -0.00208394 0
M  V30 30 H -3.36602 1.61408 -0.383871 0
M  V30 31 H -5.52969 2.77195 -0.347837 0
M  V30 32 H -7.66017 1.50409 -0.129125 0
M  V30 33 H -7.57657 -0.911387 0.0475462 0
M  V30 34 H -5.36232 -2.10753 0.0157167 0
M  V30 35 H 6.71608 3.09589 1.07736 0
M  V30 36 H 7.38288 2.32375 -0.381105 0
M  V30 END ATOM
M  V30 BEGIN BOND
M  V30 1 1 1 2
M  V30 2 2 2 3
M  V30 3 1 3 4
M  V30 4 1 4 5
M  V30 5 1 5 6
M  V30 6 1 6 7
M  V30 7 1 7 8
M  V30 8 2 8 9
M  V30 9 1 9 10
M  V30 10 1 10 11
M  V30 11 2 11 12
M  V30 12 1 11 13
M  V30 13 2 13 14
M  V30 14 1 14 15
M  V30 15 2 15 16
M  V30 16 1 16 17
M  V30 17 2 17 18
M  V30 18 2 4 19
M  V30 19 1 19 20
M  V30 20 2 20 21
M  V30 21 1 20 22
M  V30 22 1 21 2
M  V30 23 1 12 8
M  V30 24 1 18 13
M  V30 25 1 1 23
M  V30 26 1 1 24
M  V30 27 1 5 25
M  V30 28 1 5 26
M  V30 29 1 7 27
M  V30 30 1 7 28
M  V30 31 1 9 29
M  V30 32 1 14 30
M  V30 33 1 15 31
M  V30 34 1 16 32
M  V30 35 1 17 33
M  V30 36 1 18 34
M  V30 37 1 22 35
M  V30 38 1 22 36
M  V30 END BOND
M  V30 END CTAB
M  END
