
     RDKit          3D

  0  0  0  0  0  0  0  0  0  0999 V3000
M  V30 BEGIN CTAB
M  V30 COUNTS 23 24 0 0 0
M  V30 BEGIN ATOM
M  V30 1 N -3.05055 1.91383 -1.65855 0
M  V30 2 C -2.35126 0.925294 -0.937166 0
M  V30 3 N -1.02406 0.938214 -0.739354 0
M  V30 4 C -0.361452 0.00258967 -0.0564647 0
M  V30 5 N -1.08744 -1.01892 0.464336 0
M  V30 6 C -2.42128 -1.0871 0.29976 0
M  V30 7 N -3.20888 -2.13226 0.825667 0
M  V30 8 N -3.03241 -0.115877 -0.39722 0
M  V30 9 C 1.07621 0.0231695 0.153737 0
M  V30 10 C 1.73076 -0.95675 0.862824 0
M  V30 11 C 3.08879 -0.978191 1.08674 0
M  V30 12 C 3.85008 0.0683732 0.555929 0
M  V30 13 C 3.2291 1.06799 -0.160166 0
M  V30 14 Br 4.29944 2.47401 -0.865916 0
M  V30 15 C 1.85491 1.04118 -0.356676 0
M  V30 16 H -2.7727 2.13416 -2.62549 0
M  V30 17 H -3.83677 2.41469 -1.22123 0
M  V30 18 H -3.35123 -2.9947 0.267846 0
M  V30 19 H -3.65307 -2.06345 1.76029 0
M  V30 20 H 1.13759 -1.76081 1.26935 0
M  V30 21 H 3.58403 -1.7649 1.65134 0
M  V30 22 H 4.90377 0.0268134 0.74512 0
M  V30 23 H 1.39642 1.84265 -0.924719 0
M  V30 END ATOM
M  V30 BEGIN BOND
M  V30 1 1 1 2
M  V30 2 2 2 3
M  V30 3 1 3 4
M  V30 4 2 4 5
M  V30 5 1 5 6
M  V30 6 1 6 7
M  V30 7 2 6 8
M  V30 8 1 4 9
M  V30 9 2 9 10
M  V30 10 1 10 11
M  V30 11 2 11 12
M  V30 12 1 12 13
M  V30 13 1 13 14
M  V30 14 2 13 15
M  V30 15 1 8 2
M  V30 16 1 15 9
M  V30 17 1 1 16
M  V30 18 1 1 17
M  V30 19 1 7 18
M  V30 20 1 7 19
M  V30 21 1 10 20
M  V30 22 1 11 21
M  V30 23 1 12 22
M  V30 24 1 15 23
M  V30 END BOND
M  V30 END CTAB
M  END
