
     RDKit          3D

  0  0  0  0  0  0  0  0  0  0999 V3000
M  V30 BEGIN CTAB
M  V30 COUNTS 46 49 0 0 0
M  V30 BEGIN ATOM
M  V30 1 N 6.59682 3.13561 -0.912204 0
M  V30 2 C 6.1455 1.80861 -0.658896 0
M  V30 3 N 5.27313 1.21081 -1.49324 0
M  V30 4 C 4.83143 -0.0526879 -1.26888 0
M  V30 5 S 3.69939 -0.871314 -2.34488 0
M  V30 6 C 1.95011 -0.566922 -1.90011 0
M  V30 7 C 1.65186 -1.21146 -0.626767 0
M  V30 8 O 2.59453 -1.85145 -0.0436866 0
M  V30 9 C 0.371666 -1.20381 0.0652651 0
M  V30 10 C 0.1157 -1.74645 1.32688 0
M  V30 11 C -1.21237 -1.51572 1.60831 0
M  V30 12 N -1.77988 -0.863463 0.589675 0
M  V30 13 C -0.822476 -0.669114 -0.355457 0
M  V30 14 C -1.09977 0.0219205 -1.63904 0
M  V30 15 C -3.1199 -0.444188 0.491712 0
M  V30 16 C -4.15059 -1.35705 0.298166 0
M  V30 17 C -5.44872 -0.906079 0.206813 0
M  V30 18 C -5.79075 0.425044 0.298156 0
M  V30 19 C -4.77217 1.35081 0.491747 0
M  V30 20 C -3.48406 0.901423 0.582166 0
M  V30 21 O -5.37843 2.59296 0.547294 0
M  V30 22 C -6.68306 2.50816 -0.0469746 0
M  V30 23 O -6.99229 1.13825 0.241662 0
M  V30 24 C -1.93767 -1.91613 2.84505 0
M  V30 25 N 5.30611 -0.662434 -0.185477 0
M  V30 26 C 6.17331 -0.119747 0.678728 0
M  V30 27 N 6.59215 1.14716 0.41969 0
M  V30 28 N 6.67604 -0.766398 1.82619 0
M  V30 29 H 7.08462 3.67942 -0.170356 0
M  V30 30 H 6.46226 3.61131 -1.83027 0
M  V30 31 H 1.88954 0.541751 -1.77336 0
M  V30 32 H 1.31243 -0.901488 -2.75345 0
M  V30 33 H 0.860834 -2.24909 1.93658 0
M  V30 34 H -2.16993 0.355556 -1.68704 0
M  V30 35 H -1.00796 -0.676581 -2.51589 0
M  V30 36 H -0.411661 0.860323 -1.77484 0
M  V30 37 H -3.88752 -2.399 0.2262 0
M  V30 38 H -6.226 -1.6445 0.0561088 0
M  V30 39 H -2.68966 1.64539 0.735329 0
M  V30 40 H -6.61557 2.57387 -1.14596 0
M  V30 41 H -7.37611 3.20124 0.423081 0
M  V30 42 H -2.26684 -2.98937 2.7583 0
M  V30 43 H -2.76088 -1.23941 3.0963 0
M  V30 44 H -1.22746 -1.89914 3.69989 0
M  V30 45 H 6.79207 -0.202971 2.70363 0
M  V30 46 H 6.93224 -1.78364 1.81965 0
M  V30 END ATOM
M  V30 BEGIN BOND
M  V30 1 1 1 2
M  V30 2 2 2 3
M  V30 3 1 3 4
M  V30 4 1 4 5
M  V30 5 1 5 6
M  V30 6 1 6 7
M  V30 7 2 7 8
M  V30 8 1 7 9
M  V30 9 1 9 10
M  V30 10 2 10 11
M  V30 11 1 11 12
M  V30 12 1 12 13
M  V30 13 1 13 14
M  V30 14 1 12 15
M  V30 15 2 15 16
M  V30 16 1 16 17
M  V30 17 2 17 18
M  V30 18 1 18 19
M  V30 19 2 19 20
M  V30 20 1 19 21
M  V30 21 1 21 22
M  V30 22 1 22 23
M  V30 23 1 11 24
M  V30 24 2 4 25
M  V30 25 1 25 26
M  V30 26 2 26 27
M  V30 27 1 26 28
M  V30 28 1 27 2
M  V30 29 2 13 9
M  V30 30 1 20 15
M  V30 31 1 23 18
M  V30 32 1 1 29
M  V30 33 1 1 30
M  V30 34 1 6 31
M  V30 35 1 6 32
M  V30 36 1 10 33
M  V30 37 1 14 34
M  V30 38 1 14 35
M  V30 39 1 14 36
M  V30 40 1 16 37
M  V30 41 1 17 38
M  V30 42 1 20 39
M  V30 43 1 22 40
M  V30 44 1 22 41
M  V30 45 1 24 42
M  V30 46 1 24 43
M  V30 47 1 24 44
M  V30 48 1 28 45
M  V30 49 1 28 46
M  V30 END BOND
M  V30 END CTAB
M  END
