
     RDKit          3D

  0  0  0  0  0  0  0  0  0  0999 V3000
M  V30 BEGIN CTAB
M  V30 COUNTS 40 42 0 0 0
M  V30 BEGIN ATOM
M  V30 1 O -3.80539 0.219347 2.46217 0
M  V30 2 C -4.02862 -0.231324 1.30476 0
M  V30 3 C -5.19836 -1.0888 0.885233 0
M  V30 4 C -4.98189 -1.28605 -0.599092 0
M  V30 5 C -3.44818 -1.21354 -0.651052 0
M  V30 6 N -3.19881 -0.00717348 0.163512 0
M  V30 7 C -2.38611 1.12133 -0.122912 0
M  V30 8 C -3.01468 2.31671 -0.542385 0
M  V30 9 C -2.3162 3.43254 -0.882232 0
M  V30 10 C -0.902613 3.37293 -0.802329 0
M  V30 11 C -0.301676 2.21888 -0.397679 0
M  V30 12 C -1.02884 1.0666 -0.0478567 0
M  V30 13 C -0.314666 -0.101949 0.435545 0
M  V30 14 O -0.801216 -1.12878 0.935818 0
M  V30 15 O 1.09327 -0.115554 0.334413 0
M  V30 16 C 1.86361 -1.21215 0.780317 0
M  V30 17 C 3.28714 -0.940076 0.457907 0
M  V30 18 N 3.92898 0.186111 0.760715 0
M  V30 19 C 5.22256 0.362134 0.421492 0
M  V30 20 N 5.97212 1.51775 0.702733 0
M  V30 21 N 5.832 -0.647368 -0.234836 0
M  V30 22 C 5.21184 -1.78056 -0.548241 0
M  V30 23 N 3.93571 -1.94722 -0.209081 0
M  V30 24 N 5.92271 -2.79549 -1.245 0
M  V30 25 H -5.25649 -2.01747 1.43565 0
M  V30 26 H -6.12345 -0.467622 0.968061 0
M  V30 27 H -5.41228 -0.519216 -1.23443 0
M  V30 28 H -5.25432 -2.32287 -0.838194 0
M  V30 29 H -3.10725 -0.988815 -1.65913 0
M  V30 30 H -3.11143 -2.13753 -0.202198 0
M  V30 31 H -4.11716 2.27665 -0.57967 0
M  V30 32 H -2.81277 4.33715 -1.20664 0
M  V30 33 H -0.372807 4.25886 -1.07435 0
M  V30 34 H 0.798463 2.13523 -0.325539 0
M  V30 35 H 1.50689 -2.18221 0.398608 0
M  V30 36 H 1.81599 -1.26302 1.90824 0
M  V30 37 H 6.40089 2.13126 -0.0116686 0
M  V30 38 H 6.10947 1.78475 1.72226 0
M  V30 39 H 5.58541 -3.77604 -1.27235 0
M  V30 40 H 6.80816 -2.56742 -1.7541 0
M  V30 END ATOM
M  V30 BEGIN BOND
M  V30 1 2 1 2
M  V30 2 1 2 3
M  V30 3 1 3 4
M  V30 4 1 4 5
M  V30 5 1 5 6
M  V30 6 1 6 7
M  V30 7 2 7 8
M  V30 8 1 8 9
M  V30 9 2 9 10
M  V30 10 1 10 11
M  V30 11 2 11 12
M  V30 12 1 12 13
M  V30 13 2 13 14
M  V30 14 1 13 15
M  V30 15 1 15 16
M  V30 16 1 16 17
M  V30 17 2 17 18
M  V30 18 1 18 19
M  V30 19 1 19 20
M  V30 20 2 19 21
M  V30 21 1 21 22
M  V30 22 2 22 23
M  V30 23 1 22 24
M  V30 24 1 6 2
M  V30 25 1 12 7
M  V30 26 1 23 17
M  V30 27 1 3 25
M  V30 28 1 3 26
M  V30 29 1 4 27
M  V30 30 1 4 28
M  V30 31 1 5 29
M  V30 32 1 5 30
M  V30 33 1 8 31
M  V30 34 1 9 32
M  V30 35 1 10 33
M  V30 36 1 11 34
M  V30 37 1 16 35
M  V30 38 1 16 36
M  V30 39 1 20 37
M  V30 40 1 20 38
M  V30 41 1 24 39
M  V30 42 1 24 40
M  V30 END BOND
M  V30 END CTAB
M  END
