
     RDKit          3D

  0  0  0  0  0  0  0  0  0  0999 V3000
M  V30 BEGIN CTAB
M  V30 COUNTS 31 31 0 0 0
M  V30 BEGIN ATOM
M  V30 1 N 2.98552 0.820181 -0.291735 0
M  V30 2 C 2.3929 -0.430144 0.097733 0
M  V30 3 C 1.02508 -0.717967 -0.341028 0
M  V30 4 C -0.118239 0.113627 0.0455643 0
M  V30 5 C -0.390757 0.251773 1.52842 0
M  V30 6 C -0.493301 1.73875 1.38433 0
M  V30 7 C 0.00290131 1.56744 -0.0597543 0
M  V30 8 C -1.41293 -0.455065 -0.583481 0
M  V30 9 C -2.61747 0.344733 -0.240823 0
M  V30 10 C -1.64864 -1.8672 -0.107874 0
M  V30 11 N 1.09459 -0.892445 -1.81863 0
M  V30 12 H 3.86205 0.755827 -0.811149 0
M  V30 13 H 3.17785 1.44358 0.54542 0
M  V30 14 H 2.57628 -0.647623 1.18726 0
M  V30 15 H 3.0596 -1.21505 -0.395622 0
M  V30 16 H 0.822732 -1.8005 -0.0159309 0
M  V30 17 H 0.427759 -0.109787 2.18346 0
M  V30 18 H -1.34016 -0.174678 1.89245 0
M  V30 19 H 0.200488 2.29058 2.04917 0
M  V30 20 H -1.50224 2.16583 1.37406 0
M  V30 21 H 0.962142 2.08665 -0.135924 0
M  V30 22 H -0.688637 2.08026 -0.785434 0
M  V30 23 H -1.26153 -0.396871 -1.67773 0
M  V30 24 H -2.98086 0.239094 0.799637 0
M  V30 25 H -2.59611 1.39184 -0.602791 0
M  V30 26 H -3.44933 -0.115396 -0.860988 0
M  V30 27 H -1.03563 -2.16257 0.743529 0
M  V30 28 H -1.52752 -2.55142 -0.997484 0
M  V30 29 H -2.7193 -2.03134 0.207052 0
M  V30 30 H 1.47838 -0.0340669 -2.26101 0
M  V30 31 H 1.71439 -1.68806 -2.05069 0
M  V30 END ATOM
M  V30 BEGIN BOND
M  V30 1 1 1 2
M  V30 2 1 2 3
M  V30 3 1 3 4
M  V30 4 1 4 5
M  V30 5 1 5 6
M  V30 6 1 6 7
M  V30 7 1 4 8
M  V30 8 1 8 9
M  V30 9 1 8 10
M  V30 10 1 3 11
M  V30 11 1 7 4
M  V30 12 1 1 12
M  V30 13 1 1 13
M  V30 14 1 2 14
M  V30 15 1 2 15
M  V30 16 1 3 16
M  V30 17 1 5 17
M  V30 18 1 5 18
M  V30 19 1 6 19
M  V30 20 1 6 20
M  V30 21 1 7 21
M  V30 22 1 7 22
M  V30 23 1 8 23
M  V30 24 1 9 24
M  V30 25 1 9 25
M  V30 26 1 9 26
M  V30 27 1 10 27
M  V30 28 1 10 28
M  V30 29 1 10 29
M  V30 30 1 11 30
M  V30 31 1 11 31
M  V30 END BOND
M  V30 END CTAB
M  END
