
     RDKit          3D

  0  0  0  0  0  0  0  0  0  0999 V3000
M  V30 BEGIN CTAB
M  V30 COUNTS 57 58 0 0 0
M  V30 BEGIN ATOM
M  V30 1 N 8.01084 0.23122 -2.0063 0
M  V30 2 C 7.47814 0.844635 -0.818674 0
M  V30 3 C 7.47951 -0.163754 0.300675 0
M  V30 4 C 6.64709 -1.38249 0.000682513 0
M  V30 5 N 5.25173 -1.06564 -0.250695 0
M  V30 6 C 4.68096 -0.604758 0.975673 0
M  V30 7 C 3.24732 -0.233863 0.87369 0
M  V30 8 C 2.44822 -0.445718 -0.217888 0
M  V30 9 C 1.10301 -0.0481329 -0.227504 0
M  V30 10 C 0.554894 0.56675 0.865027 0
M  V30 11 C -0.895609 1.01694 0.889183 0
M  V30 12 N -1.35323 1.43075 -0.353701 0
M  V30 13 C -2.62851 1.94986 -0.518478 0
M  V30 14 C -3.83475 1.11837 -0.43535 0
M  V30 15 C -3.79521 0.00845918 -1.47328 0
M  V30 16 C -5.16783 -0.636028 -1.59928 0
M  V30 17 C -5.59385 -1.13858 -0.258081 0
M  V30 18 C -6.92275 -1.83459 -0.27515 0
M  V30 19 N -8.00468 -1.01007 -0.711896 0
M  V30 20 C -5.66147 -0.0278201 0.768722 0
M  V30 21 C -4.25781 0.622632 0.893945 0
M  V30 22 C 1.36103 0.779079 1.96333 0
M  V30 23 C 2.68153 0.38983 1.9767 0
M  V30 24 H 8.9059 -0.249392 -1.75821 0
M  V30 25 H 7.34643 -0.497602 -2.40103 0
M  V30 26 H 6.48115 1.27288 -0.935142 0
M  V30 27 H 8.22995 1.63266 -0.522215 0
M  V30 28 H 7.24111 0.298149 1.28132 0
M  V30 29 H 8.53873 -0.555376 0.397939 0
M  V30 30 H 7.11715 -1.90812 -0.834996 0
M  V30 31 H 6.69041 -2.03268 0.917259 0
M  V30 32 H 5.25133 -0.343325 -1.00724 0
M  V30 33 H 4.75053 -1.4645 1.70178 0
M  V30 34 H 5.22884 0.256699 1.43573 0
M  V30 35 H 2.89428 -0.935193 -1.08497 0
M  V30 36 H 0.516082 -0.236507 -1.10502 0
M  V30 37 H -0.879149 1.88915 1.58668 0
M  V30 38 H -1.48567 0.190277 1.30734 0
M  V30 39 H -0.764882 1.31613 -1.18769 0
M  V30 40 H -2.65406 2.41778 -1.57272 0
M  V30 41 H -2.73658 2.89056 0.146287 0
M  V30 42 H -4.69081 1.84506 -0.803984 0
M  V30 43 H -3.52528 0.473341 -2.44062 0
M  V30 44 H -3.04296 -0.725972 -1.13914 0
M  V30 45 H -5.85602 0.0696471 -2.06883 0
M  V30 46 H -5.02418 -1.51826 -2.27273 0
M  V30 47 H -4.84321 -1.89846 0.0713183 0
M  V30 48 H -7.16528 -2.26629 0.71559 0
M  V30 49 H -6.85524 -2.70149 -0.977443 0
M  V30 50 H -7.70257 -0.101866 -1.12302 0
M  V30 51 H -8.70253 -0.912995 0.0584118 0
M  V30 52 H -6.41061 0.710854 0.530267 0
M  V30 53 H -5.86546 -0.475292 1.75278 0
M  V30 54 H -3.60575 -0.121311 1.37088 0
M  V30 55 H -4.39987 1.47574 1.58143 0
M  V30 56 H 0.899705 1.26981 2.82504 0
M  V30 57 H 3.28995 0.568836 2.86234 0
M  V30 END ATOM
M  V30 BEGIN BOND
M  V30 1 1 1 2
M  V30 2 1 2 3
M  V30 3 1 3 4
M  V30 4 1 4 5
M  V30 5 1 5 6
M  V30 6 1 6 7
M  V30 7 2 7 8
M  V30 8 1 8 9
M  V30 9 2 9 10
M  V30 10 1 10 11
M  V30 11 1 11 12
M  V30 12 1 12 13
M  V30 13 1 13 14
M  V30 14 1 14 15
M  V30 15 1 15 16
M  V30 16 1 16 17
M  V30 17 1 17 18
M  V30 18 1 18 19
M  V30 19 1 17 20
M  V30 20 1 20 21
M  V30 21 1 10 22
M  V30 22 2 22 23
M  V30 23 1 23 7
M  V30 24 1 21 14
M  V30 25 1 1 24
M  V30 26 1 1 25
M  V30 27 1 2 26
M  V30 28 1 2 27
M  V30 29 1 3 28
M  V30 30 1 3 29
M  V30 31 1 4 30
M  V30 32 1 4 31
M  V30 33 1 5 32
M  V30 34 1 6 33
M  V30 35 1 6 34
M  V30 36 1 8 35
M  V30 37 1 9 36
M  V30 38 1 11 37
M  V30 39 1 11 38
M  V30 40 1 12 39
M  V30 41 1 13 40
M  V30 42 1 13 41
M  V30 43 1 14 42
M  V30 44 1 15 43
M  V30 45 1 15 44
M  V30 46 1 16 45
M  V30 47 1 16 46
M  V30 48 1 17 47
M  V30 49 1 18 48
M  V30 50 1 18 49
M  V30 51 1 19 50
M  V30 52 1 19 51
M  V30 53 1 20 52
M  V30 54 1 20 53
M  V30 55 1 21 54
M  V30 56 1 21 55
M  V30 57 1 22 56
M  V30 58 1 23 57
M  V30 END BOND
M  V30 END CTAB
M  END
