
     RDKit          3D

  0  0  0  0  0  0  0  0  0  0999 V3000
M  V30 BEGIN CTAB
M  V30 COUNTS 49 52 0 0 0
M  V30 BEGIN ATOM
M  V30 1 N -5.83306 3.20845 0.529022 0
M  V30 2 C -5.24403 1.8985 0.360933 0
M  V30 3 N -5.99898 0.811879 0.322841 0
M  V30 4 C -5.40301 -0.411189 0.162706 0
M  V30 5 N -6.2862 -1.51284 0.0721468 0
M  V30 6 C -4.05198 -0.552548 0.0424417 0
M  V30 7 C -3.28293 0.630862 0.0861094 0
M  V30 8 N -3.91776 1.81402 0.245181 0
M  V30 9 N -1.96058 0.612516 -0.0451463 0
M  V30 10 C -1.31441 -0.524702 -0.221954 0
M  V30 11 C -2.02429 -1.69188 -0.267122 0
M  V30 12 C -3.43735 -1.77454 -0.135117 0
M  V30 13 C -4.12149 -3.03223 -0.119957 0
M  V30 14 F -4.74806 -3.50795 1.00804 0
M  V30 15 F -3.00576 -3.94807 0.0968816 0
M  V30 16 F -4.4489 -3.64174 -1.3166 0
M  V30 17 C 0.162275 -0.482293 -0.363446 0
M  V30 18 C 0.46246 0.344833 -1.58856 0
M  V30 19 C 1.93669 0.616083 -1.77523 0
M  V30 20 N 2.6783 0.435382 -0.543698 0
M  V30 21 C 2.12242 0.621147 0.755153 0
M  V30 22 C 0.723299 0.101574 0.906525 0
M  V30 23 C 4.03031 0.0430827 -0.653804 0
M  V30 24 O 4.50419 -0.132176 -1.81068 0
M  V30 25 C 4.92832 -0.175878 0.494755 0
M  V30 26 C 5.24466 1.03176 1.348 0
M  V30 27 C 6.40707 1.30882 0.383732 0
M  V30 28 C 6.37277 -0.16629 0.0464656 0
M  V30 29 H -6.23074 3.72712 -0.27259 0
M  V30 30 H -5.85976 3.63968 1.46763 0
M  V30 31 H -6.45831 -1.97806 -0.816277 0
M  V30 32 H -6.80644 -1.82145 0.926936 0
M  V30 33 H -1.5207 -2.65857 -0.420325 0
M  V30 34 H 0.530552 -1.52608 -0.507455 0
M  V30 35 H 0.129524 -0.250817 -2.4641 0
M  V30 36 H -0.148893 1.26518 -1.5873 0
M  V30 37 H 2.3788 0.0441632 -2.61611 0
M  V30 38 H 2.00731 1.7019 -2.08071 0
M  V30 39 H 2.75279 0.102911 1.50125 0
M  V30 40 H 2.17046 1.71065 0.997449 0
M  V30 41 H 0.0801303 0.941046 1.24118 0
M  V30 42 H 0.65774 -0.680281 1.68994 0
M  V30 43 H 4.72447 -1.09996 1.07957 0
M  V30 44 H 5.68422 0.687554 2.30627 0
M  V30 45 H 4.50932 1.82786 1.40198 0
M  V30 46 H 6.02326 1.9221 -0.44657 0
M  V30 47 H 7.32241 1.65875 0.873807 0
M  V30 48 H 6.50103 -0.408513 -1.0277 0
M  V30 49 H 7.05887 -0.729756 0.73351 0
M  V30 END ATOM
M  V30 BEGIN BOND
M  V30 1 1 1 2
M  V30 2 2 2 3
M  V30 3 1 3 4
M  V30 4 1 4 5
M  V30 5 2 4 6
M  V30 6 1 6 7
M  V30 7 2 7 8
M  V30 8 1 7 9
M  V30 9 2 9 10
M  V30 10 1 10 11
M  V30 11 2 11 12
M  V30 12 1 12 13
M  V30 13 1 13 14
M  V30 14 1 13 15
M  V30 15 1 13 16
M  V30 16 1 10 17
M  V30 17 1 17 18
M  V30 18 1 18 19
M  V30 19 1 19 20
M  V30 20 1 20 21
M  V30 21 1 21 22
M  V30 22 1 20 23
M  V30 23 2 23 24
M  V30 24 1 23 25
M  V30 25 1 25 26
M  V30 26 1 26 27
M  V30 27 1 27 28
M  V30 28 1 8 2
M  V30 29 1 22 17
M  V30 30 1 28 25
M  V30 31 1 12 6
M  V30 32 1 1 29
M  V30 33 1 1 30
M  V30 34 1 5 31
M  V30 35 1 5 32
M  V30 36 1 11 33
M  V30 37 1 17 34
M  V30 38 1 18 35
M  V30 39 1 18 36
M  V30 40 1 19 37
M  V30 41 1 19 38
M  V30 42 1 21 39
M  V30 43 1 21 40
M  V30 44 1 22 41
M  V30 45 1 22 42
M  V30 46 1 25 43
M  V30 47 1 26 44
M  V30 48 1 26 45
M  V30 49 1 27 46
M  V30 50 1 27 47
M  V30 51 1 28 48
M  V30 52 1 28 49
M  V30 END BOND
M  V30 END CTAB
M  END
