
     RDKit          3D

  0  0  0  0  0  0  0  0  0  0999 V3000
M  V30 BEGIN CTAB
M  V30 COUNTS 147 150 0 0 0
M  V30 BEGIN ATOM
M  V30 1 C 3.50164 0.392645 2.78418 0
M  V30 2 C 2.24751 1.05886 2.3173 0
M  V30 3 C 1.9367 0.989891 0.885927 0 CFG=2
M  V30 4 C 0.634186 1.73189 0.576286 0
M  V30 5 C 1.78824 -0.370687 0.261079 0 CFG=2
M  V30 6 N 0.727566 -1.14056 0.900988 0
M  V30 7 C -0.500934 -1.38167 0.263439 0
M  V30 8 O -0.677889 -0.917706 -0.891526 0
M  V30 9 C -1.61831 -2.16552 0.88183 0 CFG=2
M  V30 10 C -1.20478 -3.54669 1.21081 0
M  V30 11 C -2.23179 -4.40742 1.82926 0
M  V30 12 C -2.36844 -4.4518 3.20683 0
M  V30 13 C -3.28982 -5.25775 3.79767 0
M  V30 14 C -4.13515 -6.0702 3.0658 0
M  V30 15 O -5.0468 -6.86394 3.72269 0
M  V30 16 C -3.99945 -6.02428 1.69566 0
M  V30 17 C -3.07094 -5.21351 1.08352 0
M  V30 18 N -2.72186 -2.24061 -0.105084 0
M  V30 19 C -3.83723 -1.39763 0.0109223 0
M  V30 20 O -3.81327 -0.582397 1.02719 0
M  V30 21 C -5.01881 -1.27229 -0.819188 0 CFG=1
M  V30 22 N -5.56193 0.0711908 -0.896984 0
M  V30 23 C -6.91918 0.379829 -0.630788 0
M  V30 24 O -7.67259 -0.570441 -0.313684 0
M  V30 25 C -7.4536 1.73637 -0.715633 0 CFG=2
M  V30 26 C -6.6671 2.78879 -0.032812 0
M  V30 27 C -6.41691 2.70474 1.41109 0
M  V30 28 C -7.60045 2.70775 2.33354 0
M  V30 29 N -8.3523 3.93303 2.11372 0
M  V30 30 C -9.5208 4.21039 2.85599 0
M  V30 31 N -10.0272 5.52612 2.92012 0
M  V30 32 N -10.159 3.29074 3.4872 0
M  V30 33 N -8.86901 1.73236 -0.474774 0
M  V30 34 C -9.81805 2.19532 -1.43531 0
M  V30 35 O -9.34958 2.61755 -2.53377 0
M  V30 36 C -11.2615 2.17361 -1.14161 0 CFG=1
M  V30 37 N -11.9875 2.70998 -2.28838 0
M  V30 38 C -11.755 0.763223 -0.852699 0
M  V30 39 C -13.1983 0.752345 -0.564339 0
M  V30 40 O -13.9008 -0.392769 -0.284923 0
M  V30 41 O -13.8255 1.84807 -0.575554 0
M  V30 42 C -4.97363 -1.92734 -2.1768 0
M  V30 43 C -4.82112 -3.40892 -2.14055 0
M  V30 44 C -6.16671 -1.5684 -3.04463 0
M  V30 45 C 3.04323 -1.11915 0.0825551 0
M  V30 46 O 3.27716 -2.20947 0.708641 0
M  V30 47 N 4.07443 -0.687806 -0.798425 0
M  V30 48 C 5.29997 -1.44101 -0.93996 0 CFG=1
M  V30 49 C 5.07127 -2.68664 -1.75713 0
M  V30 50 C 4.5666 -2.52371 -3.10871 0
M  V30 51 C 4.35971 -3.64521 -3.94884 0
M  V30 52 N 3.87857 -3.23283 -5.11306 0
M  V30 53 C 3.75728 -1.91173 -5.08896 0
M  V30 54 N 4.1791 -1.49915 -3.86515 0
M  V30 55 C 6.43697 -0.682775 -1.43277 0
M  V30 56 O 6.19106 0.453193 -1.90847 0
M  V30 57 N 7.80501 -1.09703 -1.42828 0
M  V30 58 C 8.21149 -2.34895 -0.878987 0
M  V30 59 C 9.62936 -2.02385 -0.376867 0
M  V30 60 C 10.1387 -1.1748 -1.53597 0
M  V30 61 C 8.89176 -0.399713 -1.97524 0 CFG=2
M  V30 62 C 9.0636 1.02996 -1.66681 0
M  V30 63 O 9.79945 1.65322 -2.53081 0
M  V30 64 N 8.5441 1.76289 -0.584065 0
M  V30 65 C 8.75094 3.15382 -0.350163 0 CFG=1
M  V30 66 C 10.1616 3.66899 -0.426008 0
M  V30 67 C 11.0801 3.09571 0.577037 0
M  V30 68 C 11.9064 2.03381 0.404019 0
M  V30 69 C 12.7625 1.54357 1.39227 0
M  V30 70 C 12.801 2.14228 2.62264 0
M  V30 71 O 13.6372 1.6959 3.64817 0
M  V30 72 C 11.9705 3.23578 2.84765 0
M  V30 73 C 11.1443 3.69115 1.86196 0
M  V30 74 C 7.82116 4.08006 -1.01131 0
M  V30 75 O 7.96302 5.43449 -0.841622 0
M  V30 76 O 6.90074 3.64872 -1.7316 0
M  V30 77 H 3.97996 0.963194 3.62874 0
M  V30 78 H 3.33794 -0.670487 3.10749 0
M  V30 79 H 4.24978 0.417049 1.97929 0
M  V30 80 H 2.37177 2.15619 2.57713 0
M  V30 81 H 1.42525 0.737465 2.99711 0
M  V30 82 H 2.71599 1.53137 0.315776 0
M  V30 83 H 0.4688 1.8855 -0.4864 0
M  V30 84 H 0.593335 2.71771 1.08143 0
M  V30 85 H -0.185099 1.13792 1.07837 0
M  V30 86 H 1.40435 -0.140695 -0.773416 0
M  V30 87 H 0.868642 -1.53225 1.8537 0
M  V30 88 H -2.01901 -1.58222 1.72957 0
M  V30 89 H -0.875036 -4.06446 0.280518 0
M  V30 90 H -0.319183 -3.59481 1.88927 0
M  V30 91 H -1.73116 -3.83387 3.83917 0
M  V30 92 H -3.36676 -5.26949 4.88553 0
M  V30 93 H -6.00157 -6.58319 3.96846 0
M  V30 94 H -4.6657 -6.66515 1.11856 0
M  V30 95 H -2.99465 -5.21012 0.024803 0
M  V30 96 H -2.62629 -2.91459 -0.865236 0
M  V30 97 H -5.84331 -1.87468 -0.276273 0
M  V30 98 H -4.9238 0.857583 -1.15934 0
M  V30 99 H -7.37668 2.0135 -1.84057 0
M  V30 100 H -5.6931 2.97891 -0.583584 0
M  V30 101 H -7.21941 3.76703 -0.217563 0
M  V30 102 H -5.75173 1.86268 1.71593 0
M  V30 103 H -5.80688 3.61828 1.7246 0
M  V30 104 H -8.19755 1.80062 2.35518 0
M  V30 105 H -7.17045 2.81719 3.37794 0
M  V30 106 H -8.03669 4.61737 1.4127 0
M  V30 107 H -9.64747 6.2583 2.29689 0
M  V30 108 H -10.7831 5.79339 3.58371 0
M  V30 109 H -9.80783 2.32124 3.45114 0
M  V30 110 H -9.24086 1.37415 0.404453 0
M  V30 111 H -11.5152 2.77164 -0.230623 0
M  V30 112 H -12.4593 3.60736 -2.01815 0
M  V30 113 H -11.3312 2.85364 -3.10009 0
M  V30 114 H -11.2303 0.345557 0.00575471 0
M  V30 115 H -11.555 0.146351 -1.76503 0
M  V30 116 H -13.8014 -1.23986 -0.870611 0
M  V30 117 H -4.082 -1.53272 -2.74735 0
M  V30 118 H -3.90819 -3.72554 -2.64893 0
M  V30 119 H -5.6727 -3.9237 -2.68272 0
M  V30 120 H -4.82005 -3.75891 -1.07013 0
M  V30 121 H -5.94238 -1.95803 -4.0731 0
M  V30 122 H -6.38788 -0.500265 -3.06049 0
M  V30 123 H -7.04802 -2.13291 -2.70218 0
M  V30 124 H 3.95452 0.184334 -1.34935 0
M  V30 125 H 5.53181 -1.83375 0.0879214 0
M  V30 126 H 5.96592 -3.33124 -1.80037 0
M  V30 127 H 4.32017 -3.35082 -1.20514 0
M  V30 128 H 4.57305 -4.67114 -3.65531 0
M  V30 129 H 3.39166 -1.28053 -5.88838 0
M  V30 130 H 4.17628 -0.515318 -3.60287 0
M  V30 131 H 7.5689 -2.75533 -0.0759339 0
M  V30 132 H 8.31148 -3.08989 -1.72602 0
M  V30 133 H 9.58118 -1.49474 0.574541 0
M  V30 134 H 10.1844 -2.97652 -0.300256 0
M  V30 135 H 10.9616 -0.516635 -1.21972 0
M  V30 136 H 10.4406 -1.85989 -2.35717 0
M  V30 137 H 8.84907 -0.532797 -3.11609 0
M  V30 138 H 7.9636 1.20926 0.119975 0
M  V30 139 H 8.5169 3.33763 0.790033 0
M  V30 140 H 10.0687 4.77815 -0.184573 0
M  V30 141 H 10.5917 3.67831 -1.44869 0
M  V30 142 H 11.9107 1.54634 -0.577122 0
M  V30 143 H 13.3883 0.697382 1.17943 0
M  V30 144 H 13.3535 1.00712 4.31909 0
M  V30 145 H 11.9844 3.73562 3.82286 0
M  V30 146 H 10.479 4.53875 2.00384 0
M  V30 147 H 8.41291 6.07058 -1.47191 0
M  V30 END ATOM
M  V30 BEGIN BOND
M  V30 1 1 1 2
M  V30 2 1 2 3
M  V30 3 1 3 4
M  V30 4 1 3 5
M  V30 5 1 5 6
M  V30 6 1 6 7
M  V30 7 2 7 8
M  V30 8 1 7 9
M  V30 9 1 9 10
M  V30 10 1 10 11
M  V30 11 2 11 12
M  V30 12 1 12 13
M  V30 13 2 13 14
M  V30 14 1 14 15
M  V30 15 1 14 16
M  V30 16 2 16 17
M  V30 17 1 9 18
M  V30 18 1 18 19
M  V30 19 2 19 20
M  V30 20 1 19 21
M  V30 21 1 21 22
M  V30 22 1 22 23
M  V30 23 2 23 24
M  V30 24 1 23 25
M  V30 25 1 25 26
M  V30 26 1 26 27
M  V30 27 1 27 28
M  V30 28 1 28 29
M  V30 29 1 29 30
M  V30 30 1 30 31
M  V30 31 2 30 32 CFG=2
M  V30 32 1 25 33
M  V30 33 1 33 34
M  V30 34 2 34 35
M  V30 35 1 34 36
M  V30 36 1 36 37
M  V30 37 1 36 38
M  V30 38 1 38 39
M  V30 39 1 39 40
M  V30 40 2 39 41
M  V30 41 1 21 42
M  V30 42 1 42 43
M  V30 43 1 42 44
M  V30 44 1 5 45
M  V30 45 2 45 46
M  V30 46 1 45 47
M  V30 47 1 47 48
M  V30 48 1 48 49
M  V30 49 1 49 50
M  V30 50 2 50 51
M  V30 51 1 51 52
M  V30 52 2 52 53
M  V30 53 1 53 54
M  V30 54 1 48 55
M  V30 55 2 55 56
M  V30 56 1 55 57
M  V30 57 1 57 58
M  V30 58 1 58 59
M  V30 59 1 59 60
M  V30 60 1 60 61
M  V30 61 1 61 62
M  V30 62 2 62 63
M  V30 63 1 62 64
M  V30 64 1 64 65
M  V30 65 1 65 66
M  V30 66 1 66 67
M  V30 67 2 67 68
M  V30 68 1 68 69
M  V30 69 2 69 70
M  V30 70 1 70 71
M  V30 71 1 70 72
M  V30 72 2 72 73
M  V30 73 1 65 74
M  V30 74 1 74 75
M  V30 75 2 74 76
M  V30 76 1 17 11
M  V30 77 1 54 50
M  V30 78 1 61 57
M  V30 79 1 73 67
M  V30 80 1 1 77
M  V30 81 1 1 78
M  V30 82 1 1 79
M  V30 83 1 2 80
M  V30 84 1 2 81
M  V30 85 1 3 82 CFG=3
M  V30 86 1 4 83
M  V30 87 1 4 84
M  V30 88 1 4 85
M  V30 89 1 5 86 CFG=3
M  V30 90 1 6 87
M  V30 91 1 9 88 CFG=1
M  V30 92 1 10 89
M  V30 93 1 10 90
M  V30 94 1 12 91
M  V30 95 1 13 92
M  V30 96 1 15 93
M  V30 97 1 16 94
M  V30 98 1 17 95
M  V30 99 1 18 96
M  V30 100 1 21 97 CFG=1
M  V30 101 1 22 98
M  V30 102 1 25 99 CFG=3
M  V30 103 1 26 100
M  V30 104 1 26 101
M  V30 105 1 27 102
M  V30 106 1 27 103
M  V30 107 1 28 104
M  V30 108 1 28 105
M  V30 109 1 29 106
M  V30 110 1 31 107
M  V30 111 1 31 108
M  V30 112 1 32 109
M  V30 113 1 33 110
M  V30 114 1 36 111 CFG=1
M  V30 115 1 37 112
M  V30 116 1 37 113
M  V30 117 1 38 114
M  V30 118 1 38 115
M  V30 119 1 40 116
M  V30 120 1 42 117
M  V30 121 1 43 118
M  V30 122 1 43 119
M  V30 123 1 43 120
M  V30 124 1 44 121
M  V30 125 1 44 122
M  V30 126 1 44 123
M  V30 127 1 47 124
M  V30 128 1 48 125 CFG=1
M  V30 129 1 49 126
M  V30 130 1 49 127
M  V30 131 1 51 128
M  V30 132 1 53 129
M  V30 133 1 54 130
M  V30 134 1 58 131
M  V30 135 1 58 132
M  V30 136 1 59 133
M  V30 137 1 59 134
M  V30 138 1 60 135
M  V30 139 1 60 136
M  V30 140 1 61 137 CFG=3
M  V30 141 1 64 138
M  V30 142 1 65 139 CFG=1
M  V30 143 1 66 140
M  V30 144 1 66 141
M  V30 145 1 68 142
M  V30 146 1 69 143
M  V30 147 1 71 144
M  V30 148 1 72 145
M  V30 149 1 73 146
M  V30 150 1 75 147
M  V30 END BOND
M  V30 END CTAB
M  END
