
     RDKit          3D

  0  0  0  0  0  0  0  0  0  0999 V3000
M  V30 BEGIN CTAB
M  V30 COUNTS 53 56 0 0 0
M  V30 BEGIN ATOM
M  V30 1 N -5.81689 -1.90724 0.141057 0
M  V30 2 C -6.04774 -0.547364 -0.203891 0
M  V30 3 N -5.03534 0.288695 -0.572168 0
M  V30 4 C -5.28939 1.56994 -0.892134 0
M  V30 5 S -3.97779 2.68422 -1.37829 0
M  V30 6 C -2.38582 1.82597 -1.35803 0
M  V30 7 C -2.05663 1.46176 0.0430154 0
M  V30 8 O -2.87125 1.78142 0.951508 0
M  V30 9 N -0.880691 0.778542 0.400633 0
M  V30 10 C 0.0709768 0.397933 -0.606486 0
M  V30 11 C 0.304151 -1.08851 -0.454888 0
M  V30 12 N 0.682575 -1.41183 0.875869 0
M  V30 13 C 0.688705 -0.357753 1.83052 0
M  V30 14 C -0.601091 0.444572 1.76974 0
M  V30 15 S 2.06994 -2.39481 0.906362 0
M  V30 16 O 1.78607 -3.71562 0.203734 0
M  V30 17 O 2.3322 -2.77616 2.35717 0
M  V30 18 C 3.48042 -1.63136 0.201548 0
M  V30 19 C 3.81171 -1.74402 -1.13221 0
M  V30 20 C 4.94337 -1.11967 -1.6547 0
M  V30 21 C 5.77409 -0.365369 -0.854989 0
M  V30 22 C 5.44929 -0.248126 0.479832 0
M  V30 23 C 4.32878 -0.867489 0.992421 0
M  V30 24 C 6.28626 0.509297 1.27384 0
M  V30 25 C 7.41133 1.1315 0.759326 0
M  V30 26 C 7.7385 1.01641 -0.573244 0
M  V30 27 C 6.90132 0.258033 -1.37055 0
M  V30 28 N -6.54553 2.05148 -0.855231 0
M  V30 29 C -7.60021 1.29597 -0.503454 0
M  V30 30 C -7.33216 -0.0308794 -0.17282 0
M  V30 31 N -8.92908 1.7871 -0.459545 0
M  V30 32 H -6.34909 -2.27103 0.975447 0
M  V30 33 H -5.17419 -2.54031 -0.367267 0
M  V30 34 H -1.61929 2.48078 -1.81542 0
M  V30 35 H -2.48645 0.93475 -2.00955 0
M  V30 36 H -0.253125 0.658251 -1.6314 0
M  V30 37 H 1.0336 0.917879 -0.339898 0
M  V30 38 H -0.691181 -1.56814 -0.6942 0
M  V30 39 H 1.05945 -1.38418 -1.21344 0
M  V30 40 H 0.69129 -0.835066 2.85294 0
M  V30 41 H 1.55624 0.300525 1.80233 0
M  V30 42 H -0.422876 1.40008 2.31029 0
M  V30 43 H -1.42772 -0.0944109 2.2613 0
M  V30 44 H 3.18818 -2.32317 -1.7799 0
M  V30 45 H 5.18902 -1.21914 -2.7072 0
M  V30 46 H 4.08375 -0.766917 2.0482 0
M  V30 47 H 6.05572 0.618957 2.32652 0
M  V30 48 H 8.07138 1.7273 1.37925 0
M  V30 49 H 8.61007 1.48862 -1.01131 0
M  V30 50 H 7.11836 0.135011 -2.43964 0
M  V30 51 H -8.14831 -0.650527 0.109125 0
M  V30 52 H -9.09277 2.70352 -0.00439016 0
M  V30 53 H -9.68212 1.21057 -0.883937 0
M  V30 END ATOM
M  V30 BEGIN BOND
M  V30 1 1 1 2
M  V30 2 2 2 3
M  V30 3 1 3 4
M  V30 4 1 4 5
M  V30 5 1 5 6
M  V30 6 1 6 7
M  V30 7 2 7 8
M  V30 8 1 7 9
M  V30 9 1 9 10
M  V30 10 1 10 11
M  V30 11 1 11 12
M  V30 12 1 12 13
M  V30 13 1 13 14
M  V30 14 1 12 15
M  V30 15 2 15 16
M  V30 16 2 15 17
M  V30 17 1 15 18
M  V30 18 2 18 19
M  V30 19 1 19 20
M  V30 20 2 20 21
M  V30 21 1 21 22
M  V30 22 2 22 23
M  V30 23 1 22 24
M  V30 24 2 24 25
M  V30 25 1 25 26
M  V30 26 2 26 27
M  V30 27 2 4 28
M  V30 28 1 28 29
M  V30 29 2 29 30
M  V30 30 1 29 31
M  V30 31 1 30 2
M  V30 32 1 14 9
M  V30 33 1 23 18
M  V30 34 1 27 21
M  V30 35 1 1 32
M  V30 36 1 1 33
M  V30 37 1 6 34
M  V30 38 1 6 35
M  V30 39 1 10 36
M  V30 40 1 10 37
M  V30 41 1 11 38
M  V30 42 1 11 39
M  V30 43 1 13 40
M  V30 44 1 13 41
M  V30 45 1 14 42
M  V30 46 1 14 43
M  V30 47 1 19 44
M  V30 48 1 20 45
M  V30 49 1 23 46
M  V30 50 1 24 47
M  V30 51 1 25 48
M  V30 52 1 26 49
M  V30 53 1 27 50
M  V30 54 1 30 51
M  V30 55 1 31 52
M  V30 56 1 31 53
M  V30 END BOND
M  V30 END CTAB
M  END
