
     RDKit          3D

  0  0  0  0  0  0  0  0  0  0999 V3000
M  V30 BEGIN CTAB
M  V30 COUNTS 23 24 0 0 0
M  V30 BEGIN ATOM
M  V30 1 N 3.91512 1.1901 0.798942 0
M  V30 2 C 2.73003 0.476366 0.414891 0
M  V30 3 N 1.49434 0.956864 0.467164 0
M  V30 4 N 0.605341 0.0543335 0.0433531 0
M  V30 5 C 1.30494 -1.04892 -0.293509 0
M  V30 6 C 2.64861 -0.795554 -0.0635494 0
M  V30 7 N 0.734164 -2.24873 -0.794936 0
M  V30 8 C -0.797048 0.27277 -0.0181605 0
M  V30 9 C -1.59827 -0.143243 1.02445 0
M  V30 10 C -2.96865 0.0394529 1.02562 0
M  V30 11 C -3.6031 0.655001 -0.0319816 0
M  V30 12 C -2.8087 1.07343 -1.0776 0
M  V30 13 C -1.4337 0.888709 -1.07596 0
M  V30 14 H 3.9476 2.21599 0.740758 0
M  V30 15 H 4.76293 0.686224 1.14296 0
M  V30 16 H 3.48311 -1.48383 -0.233331 0
M  V30 17 H 1.01823 -3.15389 -0.366406 0
M  V30 18 H 0.0417928 -2.28848 -1.57184 0
M  V30 19 H -1.09581 -0.633597 1.86775 0
M  V30 20 H -3.57787 -0.302049 1.86857 0
M  V30 21 H -4.68376 0.808071 -0.0490126 0
M  V30 22 H -3.30885 1.55749 -1.90895 0
M  V30 23 H -0.810441 1.22348 -1.90923 0
M  V30 END ATOM
M  V30 BEGIN BOND
M  V30 1 1 1 2
M  V30 2 2 2 3
M  V30 3 1 3 4
M  V30 4 1 4 5
M  V30 5 2 5 6
M  V30 6 1 5 7
M  V30 7 1 4 8
M  V30 8 2 8 9
M  V30 9 1 9 10
M  V30 10 2 10 11
M  V30 11 1 11 12
M  V30 12 2 12 13
M  V30 13 1 6 2
M  V30 14 1 13 8
M  V30 15 1 1 14
M  V30 16 1 1 15
M  V30 17 1 6 16
M  V30 18 1 7 17
M  V30 19 1 7 18
M  V30 20 1 9 19
M  V30 21 1 10 20
M  V30 22 1 11 21
M  V30 23 1 12 22
M  V30 24 1 13 23
M  V30 END BOND
M  V30 END CTAB
M  END
