
     RDKit          3D

  0  0  0  0  0  0  0  0  0  0999 V3000
M  V30 BEGIN CTAB
M  V30 COUNTS 20 20 0 0 0
M  V30 BEGIN ATOM
M  V30 1 C -2.96682 -0.949033 0.57456 0
M  V30 2 O -2.60229 -0.46448 -0.635411 0
M  V30 3 C -1.59664 0.426735 -0.730679 0
M  V30 4 C -0.306934 -0.158636 -0.291633 0
M  V30 5 N 0.0253756 -1.38356 0.138054 0
M  V30 6 C 1.33823 -1.46082 0.412305 0
M  V30 7 N 1.90467 -0.254466 0.160105 0
M  V30 8 C 0.913633 0.536837 -0.26599 0
M  V30 9 N 1.05181 1.89306 -0.644979 0
M  V30 10 N 3.25774 0.0617699 0.324165 0
M  V30 11 H -3.29836 -0.150432 1.29853 0
M  V30 12 H -3.89115 -1.61044 0.49886 0
M  V30 13 H -2.24511 -1.56018 1.1312 0
M  V30 14 H -1.83 1.35028 -0.109386 0
M  V30 15 H -1.48809 0.857967 -1.76528 0
M  V30 16 H 1.92058 -2.30351 0.775581 0
M  V30 17 H 0.654256 2.68154 -0.0841611 0
M  V30 18 H 1.56928 2.12868 -1.5175 0
M  V30 19 H 3.93996 -0.0786245 -0.478505 0
M  V30 20 H 3.64987 0.437321 1.21017 0
M  V30 END ATOM
M  V30 BEGIN BOND
M  V30 1 1 1 2
M  V30 2 1 2 3
M  V30 3 1 3 4
M  V30 4 1 4 5
M  V30 5 2 5 6
M  V30 6 1 6 7
M  V30 7 1 7 8
M  V30 8 1 8 9
M  V30 9 1 7 10
M  V30 10 2 8 4
M  V30 11 1 1 11
M  V30 12 1 1 12
M  V30 13 1 1 13
M  V30 14 1 3 14
M  V30 15 1 3 15
M  V30 16 1 6 16
M  V30 17 1 9 17
M  V30 18 1 9 18
M  V30 19 1 10 19
M  V30 20 1 10 20
M  V30 END BOND
M  V30 END CTAB
M  END
