
     RDKit          3D

  0  0  0  0  0  0  0  0  0  0999 V3000
M  V30 BEGIN CTAB
M  V30 COUNTS 27 28 0 0 0
M  V30 BEGIN ATOM
M  V30 1 N -5.62756 0.556289 -0.43487 0
M  V30 2 C -4.2062 0.502383 -0.338595 0
M  V30 3 N -3.578 0.426465 0.848231 0
M  V30 4 C -2.23957 0.373937 0.978241 0
M  V30 5 N -1.60669 0.293685 2.25664 0
M  V30 6 C -1.43577 0.396994 -0.142745 0
M  V30 7 N -0.0204055 0.342261 -0.0234388 0
M  V30 8 N 0.649234 -0.697254 -0.251217 0
M  V30 9 C 2.0737 -0.598649 -0.0880483 0
M  V30 10 C 2.84763 -1.67814 0.284853 0
M  V30 11 C 4.21921 -1.56462 0.437293 0
M  V30 12 C 4.84597 -0.374709 0.221444 0
M  V30 13 Cl 6.58315 -0.213981 0.410268 0
M  V30 14 C 4.09995 0.715362 -0.150433 0
M  V30 15 C 2.73336 0.596361 -0.300837 0
M  V30 16 C -2.0865 0.475254 -1.36374 0
M  V30 17 O -1.27769 0.498522 -2.49322 0
M  V30 18 N -3.42997 0.525591 -1.44184 0
M  V30 19 H -6.22862 1.23677 0.0772433 0
M  V30 20 H -6.10165 -0.12509 -1.05484 0
M  V30 21 H -2.06944 0.761235 3.05456 0
M  V30 22 H -0.724177 -0.212407 2.36887 0
M  V30 23 H 2.39235 -2.63514 0.464896 0
M  V30 24 H 4.80892 -2.41649 0.728797 0
M  V30 25 H 4.60816 1.63829 -0.314942 0
M  V30 26 H 2.15229 1.45397 -0.592629 0
M  V30 27 H -1.38167 -0.276882 -3.13993 0
M  V30 END ATOM
M  V30 BEGIN BOND
M  V30 1 1 1 2
M  V30 2 2 2 3
M  V30 3 1 3 4
M  V30 4 1 4 5
M  V30 5 2 4 6
M  V30 6 1 6 7
M  V30 7 2 7 8 CFG=2
M  V30 8 1 8 9
M  V30 9 2 9 10
M  V30 10 1 10 11
M  V30 11 2 11 12
M  V30 12 1 12 13
M  V30 13 1 12 14
M  V30 14 2 14 15
M  V30 15 1 6 16
M  V30 16 1 16 17
M  V30 17 2 16 18
M  V30 18 1 18 2
M  V30 19 1 15 9
M  V30 20 1 1 19
M  V30 21 1 1 20
M  V30 22 1 5 21
M  V30 23 1 5 22
M  V30 24 1 10 23
M  V30 25 1 11 24
M  V30 26 1 14 25
M  V30 27 1 15 26
M  V30 28 1 17 27
M  V30 END BOND
M  V30 END CTAB
M  END
