
     RDKit          3D

  0  0  0  0  0  0  0  0  0  0999 V3000
M  V30 BEGIN CTAB
M  V30 COUNTS 40 41 0 0 0
M  V30 BEGIN ATOM
M  V30 1 C 2.14493 2.10571 -6.70053 0
M  V30 2 O 1.94392 1.20232 -5.63444 0
M  V30 3 C 2.2281 1.52843 -4.29941 0
M  V30 4 O 2.66997 2.65749 -4.08334 0
M  V30 5 C 1.98332 0.511916 -3.25655 0
M  V30 6 C 1.48171 -0.730264 -3.57868 0
M  V30 7 C 1.25335 -1.67649 -2.57009 0
M  V30 8 C 1.52966 -1.36541 -1.25174 0
M  V30 9 N 1.30136 -2.3215 -0.243748 0
M  V30 10 C 2.02719 -0.136928 -0.920405 0
M  V30 11 S 2.40443 0.352074 0.723362 0
M  V30 12 S 1.9841 -1.08109 2.19061 0
M  V30 13 C 0.307665 -0.87182 2.78377 0
M  V30 14 C -0.129333 -1.71324 3.76272 0
M  V30 15 N 0.694782 -2.75478 4.31325 0
M  V30 16 C -1.43745 -1.54842 4.22508 0
M  V30 17 C -2.23252 -0.565042 3.69357 0
M  V30 18 C -1.82435 0.299944 2.70612 0
M  V30 19 C -0.507978 0.097429 2.27514 0
M  V30 20 C -2.66004 1.33408 2.12589 0
M  V30 21 O -2.05915 2.08331 1.21938 0
M  V30 22 O -3.86026 1.67626 2.30655 0
M  V30 23 C -5.09872 2.0611 2.46482 0
M  V30 24 C 2.24336 0.775221 -1.93347 0
M  V30 25 H 3.1955 2.20947 -7.0073 0
M  V30 26 H 1.57465 1.68384 -7.57689 0
M  V30 27 H 1.66103 3.06321 -6.45142 0
M  V30 28 H 1.26985 -0.960441 -4.616 0
M  V30 29 H 0.859622 -2.6299 -2.90151 0
M  V30 30 H 2.02665 -2.91488 0.206338 0
M  V30 31 H 0.318004 -2.45191 0.0811988 0
M  V30 32 H 1.42412 -2.54262 5.00977 0
M  V30 33 H 0.523405 -3.72731 3.97787 0
M  V30 34 H -1.81026 -2.21829 5.0166 0
M  V30 35 H -3.25589 -0.426759 4.04863 0
M  V30 36 H -0.144947 0.763022 1.49204 0
M  V30 37 H -5.38838 2.42424 3.48791 0
M  V30 38 H -5.79673 1.16419 2.3262 0
M  V30 39 H -5.48692 2.87444 1.77976 0
M  V30 40 H 2.64226 1.76944 -1.70971 0
M  V30 END ATOM
M  V30 BEGIN BOND
M  V30 1 1 1 2
M  V30 2 1 2 3
M  V30 3 2 3 4
M  V30 4 1 3 5
M  V30 5 2 5 6
M  V30 6 1 6 7
M  V30 7 2 7 8
M  V30 8 1 8 9
M  V30 9 1 8 10
M  V30 10 1 10 11
M  V30 11 1 11 12
M  V30 12 1 12 13
M  V30 13 2 13 14
M  V30 14 1 14 15
M  V30 15 1 14 16
M  V30 16 2 16 17
M  V30 17 1 17 18
M  V30 18 2 18 19
M  V30 19 1 18 20
M  V30 20 2 20 21
M  V30 21 1 20 22
M  V30 22 1 22 23
M  V30 23 2 10 24
M  V30 24 1 24 5
M  V30 25 1 19 13
M  V30 26 1 1 25
M  V30 27 1 1 26
M  V30 28 1 1 27
M  V30 29 1 6 28
M  V30 30 1 7 29
M  V30 31 1 9 30
M  V30 32 1 9 31
M  V30 33 1 15 32
M  V30 34 1 15 33
M  V30 35 1 16 34
M  V30 36 1 17 35
M  V30 37 1 19 36
M  V30 38 1 23 37
M  V30 39 1 23 38
M  V30 40 1 23 39
M  V30 41 1 24 40
M  V30 END BOND
M  V30 END CTAB
M  END
