
     RDKit          3D

  0  0  0  0  0  0  0  0  0  0999 V3000
M  V30 BEGIN CTAB
M  V30 COUNTS 30 30 0 0 0
M  V30 BEGIN ATOM
M  V30 1 N 4.03753 1.68564 -0.203574 0
M  V30 2 C 2.59443 1.40213 -0.189997 0
M  V30 3 C 2.44885 -0.0749101 0.0161543 0
M  V30 4 C 1.02729 -0.53692 0.0553248 0
M  V30 5 C 0.250726 -0.255307 -1.18348 0
M  V30 6 C -1.05667 -1.02124 -1.05825 0
M  V30 7 N -1.75729 -0.812912 0.126597 0
M  V30 8 C -1.12265 -0.434238 1.29559 0
M  V30 9 C 0.272808 0.0713597 1.21265 0
M  V30 10 S -3.43325 -0.672956 0.0387176 0
M  V30 11 N -3.87328 0.678696 -0.923798 0
M  V30 12 O -4.02797 -0.539467 1.40482 0
M  V30 13 O -3.99029 -1.95474 -0.565282 0
M  V30 14 H 4.50749 1.04845 -0.913681 0
M  V30 15 H 4.38094 1.30466 0.728983 0
M  V30 16 H 2.18877 1.97522 0.672175 0
M  V30 17 H 2.2085 1.76151 -1.15192 0
M  V30 18 H 3.01203 -0.609075 -0.752228 0
M  V30 19 H 2.91235 -0.321186 0.994028 0
M  V30 20 H 1.03893 -1.63852 0.213948 0
M  V30 21 H -0.0080446 0.815789 -1.30901 0
M  V30 22 H 0.733915 -0.60946 -2.11057 0
M  V30 23 H -1.72348 -0.842012 -1.9334 0
M  V30 24 H -0.769157 -2.11084 -1.13615 0
M  V30 25 H -1.12358 -1.29357 2.02887 0
M  V30 26 H -1.73246 0.357502 1.8219 0
M  V30 27 H 0.230686 1.17382 1.01182 0
M  V30 28 H 0.86179 -0.0989568 2.13013 0
M  V30 29 H -3.21875 0.873703 -1.70034 0
M  V30 30 H -4.87016 0.677818 -1.1814 0
M  V30 END ATOM
M  V30 BEGIN BOND
M  V30 1 1 1 2
M  V30 2 1 2 3
M  V30 3 1 3 4
M  V30 4 1 4 5
M  V30 5 1 5 6
M  V30 6 1 6 7
M  V30 7 1 7 8
M  V30 8 1 8 9
M  V30 9 1 7 10
M  V30 10 1 10 11
M  V30 11 2 10 12
M  V30 12 2 10 13
M  V30 13 1 9 4
M  V30 14 1 1 14
M  V30 15 1 1 15
M  V30 16 1 2 16
M  V30 17 1 2 17
M  V30 18 1 3 18
M  V30 19 1 3 19
M  V30 20 1 4 20
M  V30 21 1 5 21
M  V30 22 1 5 22
M  V30 23 1 6 23
M  V30 24 1 6 24
M  V30 25 1 8 25
M  V30 26 1 8 26
M  V30 27 1 9 27
M  V30 28 1 9 28
M  V30 29 1 11 29
M  V30 30 1 11 30
M  V30 END BOND
M  V30 END CTAB
M  END
