
     RDKit          3D

  0  0  0  0  0  0  0  0  0  0999 V3000
M  V30 BEGIN CTAB
M  V30 COUNTS 36 36 0 0 0
M  V30 BEGIN ATOM
M  V30 1 C -3.48569 2.03423 0.739141 0
M  V30 2 C -3.08757 1.04832 -0.333952 0
M  V30 3 N -2.69773 -0.226996 0.17421 0
M  V30 4 C -1.3307 -0.615393 0.0566608 0
M  V30 5 N -0.992797 -1.80471 -0.510547 0
M  V30 6 C 0.286838 -2.17677 -0.621551 0
M  V30 7 N 0.548274 -3.44874 -1.23099 0
M  V30 8 N 1.2462 -1.38156 -0.175032 0
M  V30 9 C 0.984978 -0.171889 0.407184 0
M  V30 10 N -0.316068 0.149196 0.491394 0
M  V30 11 C 2.07055 0.665467 0.882516 0
M  V30 12 N 3.27752 0.263585 0.749356 0
M  V30 13 O 4.39639 0.953412 1.15438 0
M  V30 14 C 5.58493 0.762221 0.450481 0
M  V30 15 O 5.62682 -0.0358788 -0.547228 0
M  V30 16 C 6.82596 1.47332 0.835084 0
M  V30 17 N 1.80475 1.90267 1.48966 0
M  V30 18 C -3.61976 -1.13656 0.801435 0
M  V30 19 C -4.57815 -1.6432 -0.244155 0
M  V30 20 H -2.5893 2.33891 1.32983 0
M  V30 21 H -3.79459 2.96861 0.188325 0
M  V30 22 H -4.34474 1.74543 1.34131 0
M  V30 23 H -2.23964 1.51891 -0.874632 0
M  V30 24 H -3.93218 0.969784 -1.06859 0
M  V30 25 H 0.989213 -4.18024 -0.628035 0
M  V30 26 H 0.314174 -3.63214 -2.21074 0
M  V30 27 H 7.16703 2.13096 0.00719699 0
M  V30 28 H 7.61005 0.734402 1.11189 0
M  V30 29 H 6.60417 2.12683 1.69636 0
M  V30 30 H 1.44672 2.71576 0.924887 0
M  V30 31 H 1.94094 2.09207 2.51253 0
M  V30 32 H -4.13925 -0.68798 1.67098 0
M  V30 33 H -3.07458 -2.01571 1.21276 0
M  V30 34 H -5.64044 -1.48949 0.00241011 0
M  V30 35 H -4.44334 -2.75193 -0.418818 0
M  V30 36 H -4.41898 -1.19491 -1.24538 0
M  V30 END ATOM
M  V30 BEGIN BOND
M  V30 1 1 1 2
M  V30 2 1 2 3
M  V30 3 1 3 4
M  V30 4 2 4 5
M  V30 5 1 5 6
M  V30 6 1 6 7
M  V30 7 2 6 8
M  V30 8 1 8 9
M  V30 9 2 9 10
M  V30 10 1 9 11
M  V30 11 2 11 12
M  V30 12 1 12 13
M  V30 13 1 13 14
M  V30 14 2 14 15
M  V30 15 1 14 16
M  V30 16 1 11 17
M  V30 17 1 3 18
M  V30 18 1 18 19
M  V30 19 1 10 4
M  V30 20 1 1 20
M  V30 21 1 1 21
M  V30 22 1 1 22
M  V30 23 1 2 23
M  V30 24 1 2 24
M  V30 25 1 7 25
M  V30 26 1 7 26
M  V30 27 1 16 27
M  V30 28 1 16 28
M  V30 29 1 16 29
M  V30 30 1 17 30
M  V30 31 1 17 31
M  V30 32 1 18 32
M  V30 33 1 18 33
M  V30 34 1 19 34
M  V30 35 1 19 35
M  V30 36 1 19 36
M  V30 END BOND
M  V30 END CTAB
M  END
