
     RDKit          3D

  0  0  0  0  0  0  0  0  0  0999 V3000
M  V30 BEGIN CTAB
M  V30 COUNTS 67 70 0 0 0
M  V30 BEGIN ATOM
M  V30 1 N 10.3865 -1.51566 1.31306 0
M  V30 2 C 9.15173 -0.982311 0.872121 0
M  V30 3 N 8.01907 -1.69008 0.832209 0
M  V30 4 C 6.88284 -1.10604 0.398153 0
M  V30 5 O 5.84131 -1.8002 0.374669 0
M  V30 6 N 6.81714 0.160494 -0.00231116 0
M  V30 7 C 7.9445 0.893218 0.028812 0
M  V30 8 C 9.14444 0.34507 0.466319 0
M  V30 9 C 5.60609 0.784013 -0.465163 0 CFG=2
M  V30 10 O 4.50397 0.38691 0.280835 0
M  V30 11 C 3.39456 0.747493 -0.440488 0 CFG=2
M  V30 12 C 2.20025 -0.145751 -0.141113 0
M  V30 13 O 1.10075 0.252678 -0.891189 0
M  V30 14 P -0.214012 -0.743153 -0.549857 0
M  V30 15 O 0.253622 -2.0067 0.427532 0
M  V30 16 O -0.66268 -1.33931 -1.88836 0
M  V30 17 O -1.48026 0.163809 0.0383678 0
M  V30 18 C -2.65144 -0.559816 0.230456 0 CFG=2
M  V30 19 C -3.67051 0.083224 -0.725629 0 CFG=2
M  V30 20 O -3.00199 0.43422 -1.88595 0
M  V30 21 C -3.92478 1.34414 0.0725542 0 CFG=1
M  V30 22 C -5.18941 1.97354 -0.387606 0
M  V30 23 O -5.16374 2.27843 -1.747 0
M  V30 24 P -6.66978 2.98569 -2.11232 0
M  V30 25 O -7.22495 2.41977 -3.61701 0
M  V30 26 O -6.54755 4.6717 -2.12687 0
M  V30 27 O -7.71286 2.61946 -1.09222 0
M  V30 28 O -3.84133 1.00394 1.38782 0
M  V30 29 C -3.21697 -0.214215 1.55176 0 CFG=1
M  V30 30 N -4.18075 -1.14775 2.08762 0
M  V30 31 C -5.43364 -0.759085 2.31748 0
M  V30 32 C -6.33976 -1.65411 2.82707 0
M  V30 33 C -5.96816 -2.9712 3.10987 0
M  V30 34 N -6.8926 -3.9009 3.63449 0
M  V30 35 N -4.68988 -3.26443 2.84537 0
M  V30 36 C -3.79425 -2.40496 2.34905 0
M  V30 37 O -2.58398 -2.77577 2.12651 0
M  V30 38 C 3.75267 0.756007 -1.88781 0 CFG=1
M  V30 39 O 3.76884 2.0975 -2.32797 0
M  V30 40 C 5.22199 0.324509 -1.85664 0 CFG=1
M  V30 41 O 5.96534 1.0059 -2.8249 0
M  V30 42 H 10.5331 -1.79208 2.29443 0
M  V30 43 H 11.1531 -1.62578 0.623408 0
M  V30 44 H 7.97025 1.92945 -0.280922 0
M  V30 45 H 10.0546 0.931246 0.49314 0
M  V30 46 H 5.71586 1.88308 -0.502512 0
M  V30 47 H 3.10009 1.77604 -0.0831792 0
M  V30 48 H 2.47589 -1.22094 -0.346275 0
M  V30 49 H 1.94939 -0.0325389 0.933905 0
M  V30 50 H 0.647352 -2.72203 -0.154145 0
M  V30 51 H -2.56 -1.61473 -0.0259866 0
M  V30 52 H -4.55526 -0.528952 -0.866952 0
M  V30 53 H -3.25878 -0.140836 -2.65043 0
M  V30 54 H -3.09421 2.08163 -0.135278 0
M  V30 55 H -5.42713 2.92627 0.135983 0
M  V30 56 H -6.03498 1.23447 -0.266211 0
M  V30 57 H -8.20391 2.60298 -3.67908 0
M  V30 58 H -6.74187 5.06454 -1.23355 0
M  V30 59 H -2.39004 -0.02484 2.2931 0
M  V30 60 H -5.8087 0.237605 2.1327 0
M  V30 61 H -7.37428 -1.38657 3.0323 0
M  V30 62 H -6.55143 -4.794 4.02132 0
M  V30 63 H -7.90139 -3.69004 3.63169 0
M  V30 64 H 3.14537 0.117017 -2.52331 0
M  V30 65 H 2.84282 2.43769 -2.24554 0
M  V30 66 H 5.32072 -0.766086 -1.98566 0
M  V30 67 H 6.09315 0.367123 -3.58643 0
M  V30 END ATOM
M  V30 BEGIN BOND
M  V30 1 1 1 2
M  V30 2 2 2 3
M  V30 3 1 3 4
M  V30 4 2 4 5
M  V30 5 1 4 6
M  V30 6 1 6 7
M  V30 7 2 7 8
M  V30 8 1 6 9
M  V30 9 1 9 10
M  V30 10 1 10 11
M  V30 11 1 11 12
M  V30 12 1 12 13
M  V30 13 1 13 14
M  V30 14 1 14 15
M  V30 15 2 14 16
M  V30 16 1 14 17
M  V30 17 1 17 18
M  V30 18 1 18 19
M  V30 19 1 19 20
M  V30 20 1 19 21
M  V30 21 1 21 22
M  V30 22 1 22 23
M  V30 23 1 23 24
M  V30 24 1 24 25
M  V30 25 1 24 26
M  V30 26 2 24 27
M  V30 27 1 21 28
M  V30 28 1 28 29
M  V30 29 1 29 30
M  V30 30 1 30 31
M  V30 31 2 31 32
M  V30 32 1 32 33
M  V30 33 1 33 34
M  V30 34 2 33 35
M  V30 35 1 35 36
M  V30 36 2 36 37
M  V30 37 1 11 38
M  V30 38 1 38 39
M  V30 39 1 38 40
M  V30 40 1 40 41
M  V30 41 1 8 2
M  V30 42 1 40 9
M  V30 43 1 29 18
M  V30 44 1 36 30
M  V30 45 1 1 42
M  V30 46 1 1 43
M  V30 47 1 7 44
M  V30 48 1 8 45
M  V30 49 1 9 46 CFG=3
M  V30 50 1 11 47 CFG=1
M  V30 51 1 12 48
M  V30 52 1 12 49
M  V30 53 1 15 50
M  V30 54 1 18 51 CFG=3
M  V30 55 1 19 52 CFG=3
M  V30 56 1 20 53
M  V30 57 1 21 54 CFG=3
M  V30 58 1 22 55
M  V30 59 1 22 56
M  V30 60 1 25 57
M  V30 61 1 26 58
M  V30 62 1 29 59 CFG=1
M  V30 63 1 31 60
M  V30 64 1 32 61
M  V30 65 1 34 62
M  V30 66 1 34 63
M  V30 67 1 38 64 CFG=3
M  V30 68 1 39 65
M  V30 69 1 40 66 CFG=1
M  V30 70 1 41 67
M  V30 END BOND
M  V30 END CTAB
M  END
