
     RDKit          3D

  0  0  0  0  0  0  0  0  0  0999 V3000
M  V30 BEGIN CTAB
M  V30 COUNTS 25 25 0 0 0
M  V30 BEGIN ATOM
M  V30 1 N 3.39419 -1.91301 -0.465552 0
M  V30 2 N 2.9188 -0.800506 0.217799 0
M  V30 3 C 1.6805 -0.151109 -0.01978 0
M  V30 4 C 1.65976 1.24717 -0.0213266 0
M  V30 5 C 0.505013 1.97001 -0.219734 0
M  V30 6 N 0.513064 3.40223 -0.237481 0
M  V30 7 N -0.621435 1.26554 -0.413814 0
M  V30 8 C -0.643075 -0.093453 -0.419872 0
M  V30 9 N 0.504599 -0.765321 -0.224105 0
M  V30 10 C -1.95699 -0.759144 -0.613721 0
M  V30 11 C -1.96494 -1.91658 0.401564 0
M  V30 12 C -3.08686 0.197814 -0.340808 0
M  V30 13 H 3.51006 -2.72232 0.213052 0
M  V30 14 H 4.38469 -1.66449 -0.798717 0
M  V30 15 H 3.5685 -0.425573 0.977802 0
M  V30 16 H 2.57426 1.78688 0.136645 0
M  V30 17 H -0.302154 3.91993 0.136416 0
M  V30 18 H 1.3121 3.91503 -0.625174 0
M  V30 19 H -2.09109 -1.22928 -1.58685 0
M  V30 20 H -1.1585 -2.60421 0.0728332 0
M  V30 21 H -1.79196 -1.56666 1.43059 0
M  V30 22 H -2.92609 -2.45868 0.283655 0
M  V30 23 H -2.75115 0.866557 0.507234 0
M  V30 24 H -3.24249 0.807461 -1.24595 0
M  V30 25 H -3.98879 -0.308291 0.0100285 0
M  V30 END ATOM
M  V30 BEGIN BOND
M  V30 1 1 1 2
M  V30 2 1 2 3
M  V30 3 2 3 4
M  V30 4 1 4 5
M  V30 5 1 5 6
M  V30 6 2 5 7
M  V30 7 1 7 8
M  V30 8 2 8 9
M  V30 9 1 8 10
M  V30 10 1 10 11
M  V30 11 1 10 12
M  V30 12 1 9 3
M  V30 13 1 1 13
M  V30 14 1 1 14
M  V30 15 1 2 15
M  V30 16 1 4 16
M  V30 17 1 6 17
M  V30 18 1 6 18
M  V30 19 1 10 19
M  V30 20 1 11 20
M  V30 21 1 11 21
M  V30 22 1 11 22
M  V30 23 1 12 23
M  V30 24 1 12 24
M  V30 25 1 12 25
M  V30 END BOND
M  V30 END CTAB
M  END
