
     RDKit          3D

  0  0  0  0  0  0  0  0  0  0999 V3000
M  V30 BEGIN CTAB
M  V30 COUNTS 25 26 0 0 0
M  V30 BEGIN ATOM
M  V30 1 N -0.175692 2.79347 -0.783691 0
M  V30 2 N -0.928408 1.81478 -0.103202 0
M  V30 3 C -0.553585 0.500555 -0.558056 0
M  V30 4 C -1.31259 -0.530835 0.153344 0
M  V30 5 C -1.98481 -0.366065 1.36913 0
M  V30 6 N -2.55866 -1.52827 1.71704 0
M  V30 7 N -2.27714 -2.40891 0.778683 0
M  V30 8 C -1.52711 -1.85026 -0.184796 0
M  V30 9 N -1.04683 -2.51588 -1.35163 0
M  V30 10 C 0.940672 0.287621 -0.470275 0
M  V30 11 C 1.76184 0.624618 0.577421 0
M  V30 12 C 3.06453 0.348649 0.446011 0
M  V30 13 C 3.47285 -0.244844 -0.716886 0
M  V30 14 S 2.02269 -0.401917 -1.59693 0
M  V30 15 H -0.718975 3.67062 -0.896597 0
M  V30 16 H 0.641978 3.03419 -0.175236 0
M  V30 17 H -0.833205 1.91304 0.913071 0
M  V30 18 H -0.772964 0.420045 -1.65287 0
M  V30 19 H -2.01329 0.566181 1.91218 0
M  V30 20 H -3.12548 -1.71065 2.57283 0
M  V30 21 H -1.40919 -2.28457 -2.31199 0
M  V30 22 H -0.319871 -3.26198 -1.32927 0
M  V30 23 H 1.3339 1.10738 1.48896 0
M  V30 24 H 3.83407 0.570948 1.22178 0
M  V30 25 H 4.48527 -0.547946 -1.01901 0
M  V30 END ATOM
M  V30 BEGIN BOND
M  V30 1 1 1 2
M  V30 2 1 2 3
M  V30 3 1 3 4
M  V30 4 2 4 5
M  V30 5 1 5 6
M  V30 6 1 6 7
M  V30 7 2 7 8
M  V30 8 1 8 9
M  V30 9 1 3 10
M  V30 10 2 10 11
M  V30 11 1 11 12
M  V30 12 2 12 13
M  V30 13 1 13 14
M  V30 14 1 8 4
M  V30 15 1 14 10
M  V30 16 1 1 15
M  V30 17 1 1 16
M  V30 18 1 2 17
M  V30 19 1 3 18
M  V30 20 1 5 19
M  V30 21 1 6 20
M  V30 22 1 9 21
M  V30 23 1 9 22
M  V30 24 1 11 23
M  V30 25 1 12 24
M  V30 26 1 13 25
M  V30 END BOND
M  V30 END CTAB
M  END
