
     RDKit          3D

  0  0  0  0  0  0  0  0  0  0999 V3000
M  V30 BEGIN CTAB
M  V30 COUNTS 25 25 0 0 0
M  V30 BEGIN ATOM
M  V30 1 N 1.231 -1.54465 -1.60656 0
M  V30 2 C 1.58571 -0.457727 -0.756225 0
M  V30 3 C 0.530087 0.427724 -0.300323 0
M  V30 4 O 0.986144 1.58216 0.106198 0
M  V30 5 C -0.896867 0.241918 -0.226568 0
M  V30 6 C -1.57938 -0.8973 -0.55273 0
M  V30 7 C -2.98099 -0.996548 -0.435044 0
M  V30 8 Cl -3.77298 -2.49273 -0.875361 0
M  V30 9 C -3.71607 0.064334 0.0183644 0
M  V30 10 N -3.04141 1.17686 0.336436 0
M  V30 11 C -1.69452 1.29138 0.229855 0
M  V30 12 N -1.0544 2.5051 0.586335 0
M  V30 13 C 2.35399 -0.971888 0.475111 0
M  V30 14 C 2.75668 0.0842219 1.38183 0
M  V30 15 C 3.11697 0.956808 2.15699 0
M  V30 16 H 1.63949 -2.45556 -1.37257 0
M  V30 17 H 1.28323 -1.25467 -2.5883 0
M  V30 18 H 2.36958 0.134152 -1.3216 0
M  V30 19 H -1.03263 -1.75646 -0.904372 0
M  V30 20 H -4.79832 0.0391261 0.127336 0
M  V30 21 H -0.941201 3.25101 -0.115876 0
M  V30 22 H -0.701287 2.62144 1.57981 0
M  V30 23 H 1.70235 -1.67178 1.06379 0
M  V30 24 H 3.22637 -1.5766 0.156711 0
M  V30 25 H 3.42848 1.69968 2.83677 0
M  V30 END ATOM
M  V30 BEGIN BOND
M  V30 1 1 1 2
M  V30 2 1 2 3
M  V30 3 2 3 4
M  V30 4 1 3 5
M  V30 5 2 5 6
M  V30 6 1 6 7
M  V30 7 1 7 8
M  V30 8 2 7 9
M  V30 9 1 9 10
M  V30 10 2 10 11
M  V30 11 1 11 12
M  V30 12 1 2 13
M  V30 13 1 13 14
M  V30 14 3 14 15
M  V30 15 1 11 5
M  V30 16 1 1 16
M  V30 17 1 1 17
M  V30 18 1 2 18
M  V30 19 1 6 19
M  V30 20 1 9 20
M  V30 21 1 12 21
M  V30 22 1 12 22
M  V30 23 1 13 23
M  V30 24 1 13 24
M  V30 25 1 15 25
M  V30 END BOND
M  V30 END CTAB
M  END
