
     RDKit          3D

  0  0  0  0  0  0  0  0  0  0999 V3000
M  V30 BEGIN CTAB
M  V30 COUNTS 60 63 0 0 0
M  V30 BEGIN ATOM
M  V30 1 C 4.30294 2.08169 -0.764885 0
M  V30 2 N 3.6986 0.979066 -0.196866 0
M  V30 3 C 4.39233 -0.33045 -0.090598 0
M  V30 4 C 5.83525 -0.276391 0.0132733 0
M  V30 5 C 6.63664 -1.16858 -0.737666 0
M  V30 6 C 8.00194 -1.15473 -0.669153 0
M  V30 7 C 8.68237 -0.262768 0.137592 0
M  V30 8 C 7.91741 0.612001 0.870125 0
M  V30 9 C 6.53206 0.607152 0.808396 0
M  V30 10 C 10.1442 -0.260966 0.222161 0
M  V30 11 N 11.3196 -0.24169 0.295549 0
M  V30 12 C 2.30048 0.880378 0.223317 0
M  V30 13 C 1.97148 0.285518 1.40066 0
M  V30 14 C 0.649414 -0.184233 1.60182 0
M  V30 15 C -0.258431 -0.0295871 0.599965 0
M  V30 16 C 0.0650416 0.589977 -0.590645 0
M  V30 17 C 1.36844 1.05304 -0.775521 0
M  V30 18 C -1.52006 -0.821552 0.574052 0
M  V30 19 C -2.74924 -0.352344 0.488657 0
M  V30 20 C -3.08592 1.11056 0.655372 0
M  V30 21 O -3.70059 1.5552 -0.422627 0
M  V30 22 C -4.65232 1.15755 -1.17401 0
M  V30 23 C -6.00294 1.0919 -0.673365 0
M  V30 24 C -6.52365 2.22815 -0.0511334 0
M  V30 25 C -7.84737 2.17174 0.387052 0
M  V30 26 C -8.64046 1.07319 0.238517 0
M  V30 27 C -8.09262 -0.0420071 -0.381513 0
M  V30 28 C -6.81086 -0.0263692 -0.819985 0
M  V30 29 N -3.75441 -1.25792 0.388821 0
M  V30 30 C -3.56929 -2.61165 0.365132 0
M  V30 31 N -4.64308 -3.54699 0.283317 0
M  V30 32 N -2.29778 -3.05789 0.451614 0
M  V30 33 C -1.29562 -2.23112 0.554695 0
M  V30 34 N 0.0947295 -2.63419 0.554185 0
M  V30 35 H 3.62196 2.64915 -1.48221 0
M  V30 36 H 5.17856 1.82607 -1.44631 0
M  V30 37 H 4.62401 2.86433 -0.0256248 0
M  V30 38 H 3.9587 -0.950507 -0.928183 0
M  V30 39 H 3.90442 -0.848506 0.817484 0
M  V30 40 H 6.08157 -1.8514 -1.36718 0
M  V30 41 H 8.61155 -1.86201 -1.24686 0
M  V30 42 H 8.38715 1.32905 1.5226 0
M  V30 43 H 5.95081 1.31051 1.39893 0
M  V30 44 H 2.7049 0.180501 2.16667 0
M  V30 45 H 0.395498 -0.662035 2.5332 0
M  V30 46 H -0.685168 0.699114 -1.35724 0
M  V30 47 H 1.69992 1.5577 -1.67547 0
M  V30 48 H -3.83485 1.20954 1.52558 0
M  V30 49 H -2.17617 1.61437 0.953641 0
M  V30 50 H -4.4022 0.146546 -1.70406 0
M  V30 51 H -4.72839 1.83063 -2.11783 0
M  V30 52 H -5.91546 3.10535 0.0841594 0
M  V30 53 H -8.26978 3.05298 0.870538 0
M  V30 54 H -9.66639 1.01673 0.562964 0
M  V30 55 H -8.70429 -0.971427 -0.487127 0
M  V30 56 H -6.36335 -0.901767 -1.34319 0
M  V30 57 H -4.74915 -4.11869 -0.578113 0
M  V30 58 H -5.32543 -3.67983 1.05016 0
M  V30 59 H 0.779149 -2.17289 -0.0907394 0
M  V30 60 H 0.454097 -3.35917 1.1664 0
M  V30 END ATOM
M  V30 BEGIN BOND
M  V30 1 1 1 2
M  V30 2 1 2 3
M  V30 3 1 3 4
M  V30 4 2 4 5
M  V30 5 1 5 6
M  V30 6 2 6 7
M  V30 7 1 7 8
M  V30 8 2 8 9
M  V30 9 1 7 10
M  V30 10 3 10 11
M  V30 11 1 2 12
M  V30 12 2 12 13
M  V30 13 1 13 14
M  V30 14 2 14 15
M  V30 15 1 15 16
M  V30 16 2 16 17
M  V30 17 1 15 18
M  V30 18 1 18 19
M  V30 19 1 19 20
M  V30 20 1 20 21
M  V30 21 1 21 22
M  V30 22 1 22 23
M  V30 23 2 23 24
M  V30 24 1 24 25
M  V30 25 2 25 26
M  V30 26 1 26 27
M  V30 27 2 27 28
M  V30 28 2 19 29
M  V30 29 1 29 30
M  V30 30 1 30 31
M  V30 31 2 30 32
M  V30 32 1 32 33
M  V30 33 1 33 34
M  V30 34 1 9 4
M  V30 35 1 17 12
M  V30 36 2 33 18
M  V30 37 1 28 23
M  V30 38 1 1 35
M  V30 39 1 1 36
M  V30 40 1 1 37
M  V30 41 1 3 38
M  V30 42 1 3 39
M  V30 43 1 5 40
M  V30 44 1 6 41
M  V30 45 1 8 42
M  V30 46 1 9 43
M  V30 47 1 13 44
M  V30 48 1 14 45
M  V30 49 1 16 46
M  V30 50 1 17 47
M  V30 51 1 20 48
M  V30 52 1 20 49
M  V30 53 1 22 50
M  V30 54 1 22 51
M  V30 55 1 24 52
M  V30 56 1 25 53
M  V30 57 1 26 54
M  V30 58 1 27 55
M  V30 59 1 28 56
M  V30 60 1 31 57
M  V30 61 1 31 58
M  V30 62 1 34 59
M  V30 63 1 34 60
M  V30 END BOND
M  V30 END CTAB
M  END
