
     RDKit          3D

  0  0  0  0  0  0  0  0  0  0999 V3000
M  V30 BEGIN CTAB
M  V30 COUNTS 40 41 0 0 0
M  V30 BEGIN ATOM
M  V30 1 N -3.99737 2.70161 -0.297114 0
M  V30 2 C -3.23452 1.67396 0.310598 0
M  V30 3 C -2.60886 0.837706 -0.758663 0
M  V30 4 N -1.80955 -0.237444 -0.283204 0
M  V30 5 C -2.52137 -1.28951 0.370711 0
M  V30 6 C -1.68496 -2.54393 0.217704 0
M  V30 7 C -0.513118 -2.5546 1.14927 0
M  V30 8 C 0.739669 -1.98831 0.556459 0
M  V30 9 C 0.516838 -0.738743 -0.258371 0 CFG=1
M  V30 10 C -0.572583 0.122171 0.32228 0
M  V30 11 C 1.80128 -0.0567024 -0.402537 0
M  V30 12 C 2.35706 0.0355227 -1.66063 0
M  V30 13 C 3.56474 0.661596 -1.88657 0
M  V30 14 C 4.21739 1.20517 -0.799489 0
M  V30 15 C 3.7091 1.14077 0.468013 0
M  V30 16 C 2.49883 0.506327 0.653795 0
M  V30 17 N 4.40796 1.71446 1.58327 0
M  V30 18 H -3.63958 3.08471 -1.14175 0
M  V30 19 H -4.55864 3.27848 0.282249 0
M  V30 20 H -2.43653 2.14303 0.923341 0
M  V30 21 H -3.93261 1.07558 0.935181 0
M  V30 22 H -3.44935 0.382568 -1.36016 0
M  V30 23 H -2.05557 1.48426 -1.46817 0
M  V30 24 H -3.47255 -1.46456 -0.146505 0
M  V30 25 H -2.68749 -1.10536 1.45 0
M  V30 26 H -1.39742 -2.7051 -0.840156 0
M  V30 27 H -2.34961 -3.39256 0.488408 0
M  V30 28 H -0.297727 -3.63342 1.38721 0
M  V30 29 H -0.795737 -2.09311 2.111 0
M  V30 30 H 1.44199 -1.80217 1.39706 0
M  V30 31 H 1.21162 -2.79752 -0.0581379 0
M  V30 32 H 0.179382 -1.08282 -1.25428 0
M  V30 33 H -0.6507 -0.0447038 1.41577 0
M  V30 34 H -0.377728 1.18191 0.143121 0
M  V30 35 H 1.85059 -0.393522 -2.54311 0
M  V30 36 H 3.96332 0.709949 -2.89494 0
M  V30 37 H 5.16856 1.70149 -0.964404 0
M  V30 38 H 2.06382 0.437849 1.65716 0
M  V30 39 H 5.39333 1.45393 1.75888 0
M  V30 40 H 3.95809 2.39103 2.23233 0
M  V30 END ATOM
M  V30 BEGIN BOND
M  V30 1 1 1 2
M  V30 2 1 2 3
M  V30 3 1 3 4
M  V30 4 1 4 5
M  V30 5 1 5 6
M  V30 6 1 6 7
M  V30 7 1 7 8
M  V30 8 1 8 9
M  V30 9 1 9 10
M  V30 10 1 9 11
M  V30 11 2 11 12
M  V30 12 1 12 13
M  V30 13 2 13 14
M  V30 14 1 14 15
M  V30 15 2 15 16
M  V30 16 1 15 17
M  V30 17 1 10 4
M  V30 18 1 16 11
M  V30 19 1 1 18
M  V30 20 1 1 19
M  V30 21 1 2 20
M  V30 22 1 2 21
M  V30 23 1 3 22
M  V30 24 1 3 23
M  V30 25 1 5 24
M  V30 26 1 5 25
M  V30 27 1 6 26
M  V30 28 1 6 27
M  V30 29 1 7 28
M  V30 30 1 7 29
M  V30 31 1 8 30
M  V30 32 1 8 31
M  V30 33 1 9 32 CFG=3
M  V30 34 1 10 33
M  V30 35 1 10 34
M  V30 36 1 12 35
M  V30 37 1 13 36
M  V30 38 1 14 37
M  V30 39 1 16 38
M  V30 40 1 17 39
M  V30 41 1 17 40
M  V30 END BOND
M  V30 END CTAB
M  END
