
     RDKit          3D

  0  0  0  0  0  0  0  0  0  0999 V3000
M  V30 BEGIN CTAB
M  V30 COUNTS 30 31 0 0 0
M  V30 BEGIN ATOM
M  V30 1 N 4.64426 0.704062 -1.02777 0
M  V30 2 C 3.79431 0.668572 0.170745 0
M  V30 3 C 2.38579 0.490078 -0.189486 0
M  V30 4 C 1.54283 1.45645 -0.700952 0
M  V30 5 N 0.256477 1.16925 -0.867542 0
M  V30 6 C -0.319944 0.0136728 -0.578626 0
M  V30 7 N 0.543931 -0.937656 -0.068661 0
M  V30 8 C 1.81084 -0.71387 0.10769 0
M  V30 9 N 2.6869 -1.8112 0.497739 0
M  V30 10 C -1.67783 -0.454269 -0.732103 0
M  V30 11 C -2.2344 -1.11702 0.558545 0
M  V30 12 C -2.89717 0.0478926 -0.126578 0
M  V30 13 C -4.18479 -0.325867 -0.859542 0
M  V30 14 C -2.98772 1.33545 0.628878 0
M  V30 15 H 5.18024 -0.246903 -1.02941 0
M  V30 16 H 3.9876 0.57749 -1.84009 0
M  V30 17 H 3.90718 1.74714 0.596482 0
M  V30 18 H 4.15486 0.00382879 0.924055 0
M  V30 19 H 1.98101 2.42035 -0.918354 0
M  V30 20 H 3.3847 -2.095 -0.211544 0
M  V30 21 H 2.59521 -2.25336 1.40042 0
M  V30 22 H -1.78153 -1.17676 -1.63124 0
M  V30 23 H -2.66 -2.13247 0.437432 0
M  V30 24 H -1.72355 -0.973403 1.49937 0
M  V30 25 H -3.9588 -1.1288 -1.61708 0
M  V30 26 H -4.91889 -0.780216 -0.168136 0
M  V30 27 H -4.58603 0.552263 -1.38507 0
M  V30 28 H -3.89143 1.31503 1.24944 0
M  V30 29 H -2.91298 2.22015 -0.0398713 0
M  V30 30 H -2.12104 1.4251 1.3305 0
M  V30 END ATOM
M  V30 BEGIN BOND
M  V30 1 1 1 2
M  V30 2 1 2 3
M  V30 3 2 3 4
M  V30 4 1 4 5
M  V30 5 2 5 6
M  V30 6 1 6 7
M  V30 7 2 7 8
M  V30 8 1 8 9
M  V30 9 1 6 10
M  V30 10 1 10 11
M  V30 11 1 11 12
M  V30 12 1 12 13
M  V30 13 1 12 14
M  V30 14 1 8 3
M  V30 15 1 12 10
M  V30 16 1 1 15
M  V30 17 1 1 16
M  V30 18 1 2 17
M  V30 19 1 2 18
M  V30 20 1 4 19
M  V30 21 1 9 20
M  V30 22 1 9 21
M  V30 23 1 10 22
M  V30 24 1 11 23
M  V30 25 1 11 24
M  V30 26 1 13 25
M  V30 27 1 13 26
M  V30 28 1 13 27
M  V30 29 1 14 28
M  V30 30 1 14 29
M  V30 31 1 14 30
M  V30 END BOND
M  V30 END CTAB
M  END
