
     RDKit          3D

  0  0  0  0  0  0  0  0  0  0999 V3000
M  V30 BEGIN CTAB
M  V30 COUNTS 31 33 0 0 0
M  V30 BEGIN ATOM
M  V30 1 N 2.38211 0.36626 0.35492 0
M  V30 2 C 2.23672 1.76432 0.269356 0
M  V30 3 N 1.10138 2.29145 0.53524 0
M  V30 4 N -0.0422362 1.61532 0.912144 0
M  V30 5 C -0.534286 0.578709 0.32705 0
M  V30 6 C -1.75582 -0.00523008 0.86628 0
M  V30 7 C -2.51158 0.390481 1.93545 0
M  V30 8 N -3.57073 -0.437011 2.08112 0
M  V30 9 C -3.49728 -1.37893 1.09268 0
M  V30 10 C -2.36692 -1.11975 0.326771 0
M  V30 11 C -2.06444 -1.9341 -0.741144 0
M  V30 12 C -2.85132 -3.01042 -1.08398 0
M  V30 13 C -3.97183 -3.27568 -0.334027 0
M  V30 14 C -4.27846 -2.45546 0.744443 0
M  V30 15 C 3.35895 2.60645 -0.111538 0
M  V30 16 N 3.35474 3.97073 -0.22777 0
M  V30 17 O 4.54813 4.32283 -0.584906 0
M  V30 18 N 5.33245 3.30067 -0.71138 0
M  V30 19 C 4.6326 2.18064 -0.423576 0
M  V30 20 N 5.12374 0.834692 -0.446422 0
M  V30 21 H 2.54004 -0.0681721 1.30929 0
M  V30 22 H 2.33753 -0.23665 -0.493823 0
M  V30 23 H -0.0322577 0.190479 -0.525906 0
M  V30 24 H -2.27171 1.25875 2.56778 0
M  V30 25 H -4.30427 -0.357874 2.8209 0
M  V30 26 H -1.18335 -1.74693 -1.34846 0
M  V30 27 H -2.58277 -3.64792 -1.94521 0
M  V30 28 H -4.5956 -4.10739 -0.586945 0
M  V30 29 H -5.14952 -2.67022 1.31957 0
M  V30 30 H 4.64669 0.119647 -1.02074 0
M  V30 31 H 5.9693 0.660306 0.145529 0
M  V30 END ATOM
M  V30 BEGIN BOND
M  V30 1 1 1 2
M  V30 2 2 2 3
M  V30 3 1 3 4
M  V30 4 2 4 5
M  V30 5 1 5 6
M  V30 6 2 6 7
M  V30 7 1 7 8
M  V30 8 1 8 9
M  V30 9 2 9 10
M  V30 10 1 10 11
M  V30 11 2 11 12
M  V30 12 1 12 13
M  V30 13 2 13 14
M  V30 14 1 2 15
M  V30 15 2 15 16
M  V30 16 1 16 17
M  V30 17 1 17 18
M  V30 18 2 18 19
M  V30 19 1 19 20
M  V30 20 1 10 6
M  V30 21 1 19 15
M  V30 22 1 14 9
M  V30 23 1 1 21
M  V30 24 1 1 22
M  V30 25 1 5 23
M  V30 26 1 7 24
M  V30 27 1 8 25
M  V30 28 1 11 26
M  V30 29 1 12 27
M  V30 30 1 13 28
M  V30 31 1 14 29
M  V30 32 1 20 30
M  V30 33 1 20 31
M  V30 END BOND
M  V30 END CTAB
M  END
