
     RDKit          3D

  0  0  0  0  0  0  0  0  0  0999 V3000
M  V30 BEGIN CTAB
M  V30 COUNTS 26 27 0 0 0
M  V30 BEGIN ATOM
M  V30 1 C 3.51494 1.13473 -0.236972 0
M  V30 2 C 2.57164 0.0281223 0.0697989 0
M  V30 3 C 3.05234 -1.26179 0.187217 0
M  V30 4 C 2.1573 -2.27197 0.472401 0
M  V30 5 C 0.806054 -1.978 0.634342 0
M  V30 6 C 0.327638 -0.688808 0.516682 0
M  V30 7 C 1.24297 0.302999 0.231128 0
M  V30 8 C -1.09285 -0.400996 0.690079 0
M  V30 9 N -1.93479 -0.845125 1.64006 0
M  V30 10 C -3.17812 -0.336601 1.43819 0
M  V30 11 N -3.14042 0.446545 0.343725 0
M  V30 12 C -1.86621 0.414463 -0.123423 0
M  V30 13 N -1.40854 1.11641 -1.27453 0
M  V30 14 N -4.18437 1.17473 -0.240888 0
M  V30 15 H 4.52605 0.945851 0.183587 0
M  V30 16 H 3.62737 1.21364 -1.35336 0
M  V30 17 H 3.07505 2.0749 0.145267 0
M  V30 18 H 4.12304 -1.45162 0.0525396 0
M  V30 19 H 2.5324 -3.28773 0.565383 0
M  V30 20 H 0.107081 -2.7757 0.858359 0
M  V30 21 H 0.881337 1.32137 0.135714 0
M  V30 22 H -4.07702 -0.505895 2.03227 0
M  V30 23 H -0.902316 0.637215 -2.0511 0
M  V30 24 H -1.61496 2.15151 -1.29 0
M  V30 25 H -4.24757 2.2162 -0.152856 0
M  V30 26 H -4.89802 0.625546 -0.7701 0
M  V30 END ATOM
M  V30 BEGIN BOND
M  V30 1 1 1 2
M  V30 2 2 2 3
M  V30 3 1 3 4
M  V30 4 2 4 5
M  V30 5 1 5 6
M  V30 6 2 6 7
M  V30 7 1 6 8
M  V30 8 1 8 9
M  V30 9 2 9 10
M  V30 10 1 10 11
M  V30 11 1 11 12
M  V30 12 1 12 13
M  V30 13 1 11 14
M  V30 14 1 7 2
M  V30 15 2 12 8
M  V30 16 1 1 15
M  V30 17 1 1 16
M  V30 18 1 1 17
M  V30 19 1 3 18
M  V30 20 1 4 19
M  V30 21 1 5 20
M  V30 22 1 7 21
M  V30 23 1 10 22
M  V30 24 1 13 23
M  V30 25 1 13 24
M  V30 26 1 14 25
M  V30 27 1 14 26
M  V30 END BOND
M  V30 END CTAB
M  END
