
     RDKit          3D

  0  0  0  0  0  0  0  0  0  0999 V3000
M  V30 BEGIN CTAB
M  V30 COUNTS 37 38 0 0 0
M  V30 BEGIN ATOM
M  V30 1 N -0.357811 -4.78988 -0.83282 0
M  V30 2 C -0.0262935 -3.6913 -0.972848 0
M  V30 3 C 0.37571 -2.30534 -1.1607 0
M  V30 4 C 1.55 -1.96741 -1.61692 0
M  V30 5 N 1.97974 -0.634267 -1.81402 0
M  V30 6 C 2.88532 -0.0029705 -0.915427 0
M  V30 7 C 3.29273 1.29676 -1.1243 0
M  V30 8 C 4.16942 1.94928 -0.27934 0
M  V30 9 C 4.68586 1.30788 0.837623 0
M  V30 10 C 4.2726 0.00591437 1.03959 0
M  V30 11 C 3.39512 -0.645409 0.192796 0
M  V30 12 N 5.58841 1.95768 1.72077 0
M  V30 13 C -0.586976 -1.22643 -0.820502 0
M  V30 14 O -0.200704 -0.0613896 -0.996864 0
M  V30 15 N -1.86381 -1.55937 -0.325296 0
M  V30 16 C -2.84098 -0.635121 0.0163466 0
M  V30 17 C -3.89113 -1.09646 0.83375 0
M  V30 18 C -4.92342 -0.286528 1.2197 0
M  V30 19 C -4.9656 1.02043 0.814476 0
M  V30 20 C -3.94554 1.47507 0.0179495 0
M  V30 21 C -2.87419 0.660824 -0.391698 0
M  V30 22 Cl -4.00812 3.15211 -0.496682 0
M  V30 23 N -6.02021 1.87694 1.1996 0
M  V30 24 H 2.26415 -2.74983 -1.86974 0
M  V30 25 H 1.60805 -0.131538 -2.64741 0
M  V30 26 H 2.89026 1.81736 -2.00732 0
M  V30 27 H 4.48185 2.97681 -0.45813 0
M  V30 28 H 4.67137 -0.50258 1.91005 0
M  V30 29 H 3.08435 -1.66841 0.371174 0
M  V30 30 H 5.34033 2.84327 2.20161 0
M  V30 31 H 6.52576 1.54825 1.90071 0
M  V30 32 H -2.05122 -2.62358 -0.224707 0
M  V30 33 H -3.87369 -2.1212 1.16151 0
M  V30 34 H -5.71278 -0.672934 1.84721 0
M  V30 35 H -2.13116 1.11343 -1.02898 0
M  V30 36 H -6.39868 1.82217 2.17112 0
M  V30 37 H -6.38871 2.54778 0.479225 0
M  V30 END ATOM
M  V30 BEGIN BOND
M  V30 1 3 1 2
M  V30 2 1 2 3
M  V30 3 2 3 4
M  V30 4 1 4 5
M  V30 5 1 5 6
M  V30 6 2 6 7
M  V30 7 1 7 8
M  V30 8 2 8 9
M  V30 9 1 9 10
M  V30 10 2 10 11
M  V30 11 1 9 12
M  V30 12 1 3 13
M  V30 13 2 13 14
M  V30 14 1 13 15
M  V30 15 1 15 16
M  V30 16 2 16 17
M  V30 17 1 17 18
M  V30 18 2 18 19
M  V30 19 1 19 20
M  V30 20 2 20 21
M  V30 21 1 20 22
M  V30 22 1 19 23
M  V30 23 1 11 6
M  V30 24 1 21 16
M  V30 25 1 4 24
M  V30 26 1 5 25
M  V30 27 1 7 26
M  V30 28 1 8 27
M  V30 29 1 10 28
M  V30 30 1 11 29
M  V30 31 1 12 30
M  V30 32 1 12 31
M  V30 33 1 15 32
M  V30 34 1 17 33
M  V30 35 1 18 34
M  V30 36 1 21 35
M  V30 37 1 23 36
M  V30 38 1 23 37
M  V30 END BOND
M  V30 END CTAB
M  END
