
     RDKit          3D

  0  0  0  0  0  0  0  0  0  0999 V3000
M  V30 BEGIN CTAB
M  V30 COUNTS 35 37 0 0 0
M  V30 BEGIN ATOM
M  V30 1 N -5.99784 1.15333 0.239346 0
M  V30 2 C -4.60098 0.979297 0.0588083 0
M  V30 3 C -3.73701 1.98631 0.462457 0
M  V30 4 C -2.37406 1.86504 0.308801 0
M  V30 5 C -1.88044 0.698244 -0.265921 0
M  V30 6 C -2.75632 -0.284516 -0.657617 0
M  V30 7 C -4.12238 -0.173534 -0.508441 0
M  V30 8 C -0.410842 0.566485 -0.503364 0
M  V30 9 C 0.113173 1.40834 -1.45985 0
M  V30 10 S 1.73486 0.935154 -1.51245 0
M  V30 11 C 1.74282 -0.304563 -0.342081 0
M  V30 12 C 2.71712 -1.1326 0.158081 0
M  V30 13 C 4.06171 -1.09911 -0.297042 0
M  V30 14 C 4.62088 -0.352511 -1.21076 0
M  V30 15 C 6.05561 -0.478915 -1.53578 0
M  V30 16 O 6.57913 0.336637 -2.50653 0
M  V30 17 O 6.77744 -1.30469 -0.945548 0
M  V30 18 C 2.37023 -2.05829 1.16363 0
M  V30 19 N 1.09997 -2.05381 1.55487 0
M  V30 20 C 0.136559 -1.25619 1.08026 0
M  V30 21 N -1.16532 -1.40185 1.67396 0
M  V30 22 C 0.409381 -0.312458 0.077115 0
M  V30 23 H -6.65363 1.11976 -0.576841 0
M  V30 24 H -6.37051 1.31497 1.18781 0
M  V30 25 H -4.09298 2.90858 0.914286 0
M  V30 26 H -1.64704 2.60865 0.600487 0
M  V30 27 H -2.3751 -1.18516 -1.10388 0
M  V30 28 H -4.8228 -0.936724 -0.811086 0
M  V30 29 H -0.39064 2.19481 -2.04706 0
M  V30 30 H 4.76766 -1.81897 0.1939 0
M  V30 31 H 4.05068 0.35891 -1.73731 0
M  V30 32 H 6.34302 1.30234 -2.54717 0
M  V30 33 H 3.12285 -2.69298 1.54457 0
M  V30 34 H -1.7293 -2.26289 1.5639 0
M  V30 35 H -1.5759 -0.627103 2.23956 0
M  V30 END ATOM
M  V30 BEGIN BOND
M  V30 1 1 1 2
M  V30 2 2 2 3
M  V30 3 1 3 4
M  V30 4 2 4 5
M  V30 5 1 5 6
M  V30 6 2 6 7
M  V30 7 1 5 8
M  V30 8 2 8 9
M  V30 9 1 9 10
M  V30 10 1 10 11
M  V30 11 2 11 12
M  V30 12 1 12 13
M  V30 13 2 13 14
M  V30 14 1 14 15
M  V30 15 1 15 16
M  V30 16 2 15 17
M  V30 17 1 12 18
M  V30 18 2 18 19
M  V30 19 1 19 20
M  V30 20 1 20 21
M  V30 21 2 20 22
M  V30 22 1 7 2
M  V30 23 1 22 8
M  V30 24 1 22 11
M  V30 25 1 1 23
M  V30 26 1 1 24
M  V30 27 1 3 25
M  V30 28 1 4 26
M  V30 29 1 6 27
M  V30 30 1 7 28
M  V30 31 1 9 29
M  V30 32 1 13 30
M  V30 33 1 14 31
M  V30 34 1 16 32
M  V30 35 1 18 33
M  V30 36 1 21 34
M  V30 37 1 21 35
M  V30 END BOND
M  V30 END CTAB
M  END
