
     RDKit          3D

  0  0  0  0  0  0  0  0  0  0999 V3000
M  V30 BEGIN CTAB
M  V30 COUNTS 41 43 0 0 0
M  V30 BEGIN ATOM
M  V30 1 C 3.59331 0.135471 2.43529 0
M  V30 2 O 3.69748 0.494404 1.09294 0
M  V30 3 C 2.7032 0.334523 0.152487 0
M  V30 4 C 1.50646 -0.234014 0.605667 0
M  V30 5 C 0.443023 -0.44853 -0.216594 0
M  V30 6 C 0.550574 -0.0920947 -1.54446 0
M  V30 7 C 1.74675 0.476229 -1.9978 0
M  V30 8 Br 1.87793 0.964165 -3.84174 0
M  V30 9 C 2.8188 0.690302 -1.15937 0
M  V30 10 O 4.00436 1.25405 -1.61045 0
M  V30 11 C 5.07363 0.480877 -2.11553 0
M  V30 12 C -0.82511 -1.05944 0.308773 0
M  V30 13 C -1.78004 -0.0100937 0.715801 0
M  V30 14 C -3.04478 -0.00938077 0.18579 0
M  V30 15 O -3.49567 -0.961832 -0.736335 0
M  V30 16 C -2.60432 -1.95244 -1.12477 0
M  V30 17 N -3.03744 -2.9537 -2.07699 0
M  V30 18 C -1.37141 -2.02121 -0.660515 0
M  V30 19 C -0.539868 -3.11178 -1.15102 0
M  V30 20 N 0.142227 -3.97696 -1.53132 0
M  V30 21 C -3.90459 1.00814 0.608142 0
M  V30 22 C -3.54511 1.98164 1.50811 0
M  V30 23 N -4.4567 2.99927 1.90878 0
M  V30 24 C -2.25671 1.93973 2.01634 0
M  V30 25 C -1.38091 0.951037 1.62288 0
M  V30 26 H 4.57077 0.153444 2.95866 0
M  V30 27 H 2.84371 0.728141 2.99961 0
M  V30 28 H 3.2219 -0.931136 2.47375 0
M  V30 29 H 1.4071 -0.519917 1.6428 0
M  V30 30 H -0.285472 -0.257386 -2.20522 0
M  V30 31 H 5.82397 0.275614 -1.30573 0
M  V30 32 H 4.63763 -0.485381 -2.45102 0
M  V30 33 H 5.58016 0.951123 -2.97736 0
M  V30 34 H -0.506696 -1.65788 1.21629 0
M  V30 35 H -3.21188 -2.65903 -3.06395 0
M  V30 36 H -3.16236 -3.92736 -1.75953 0
M  V30 37 H -4.90326 1.01217 0.192302 0
M  V30 38 H -4.94975 2.93971 2.81291 0
M  V30 39 H -4.61282 3.79643 1.27543 0
M  V30 40 H -1.97148 2.71129 2.72974 0
M  V30 41 H -0.39658 0.99181 2.06721 0
M  V30 END ATOM
M  V30 BEGIN BOND
M  V30 1 1 1 2
M  V30 2 1 2 3
M  V30 3 2 3 4
M  V30 4 1 4 5
M  V30 5 2 5 6
M  V30 6 1 6 7
M  V30 7 1 7 8
M  V30 8 2 7 9
M  V30 9 1 9 10
M  V30 10 1 10 11
M  V30 11 1 5 12
M  V30 12 1 12 13
M  V30 13 2 13 14
M  V30 14 1 14 15
M  V30 15 1 15 16
M  V30 16 1 16 17
M  V30 17 2 16 18
M  V30 18 1 18 19
M  V30 19 3 19 20
M  V30 20 1 14 21
M  V30 21 2 21 22
M  V30 22 1 22 23
M  V30 23 1 22 24
M  V30 24 2 24 25
M  V30 25 1 9 3
M  V30 26 1 18 12
M  V30 27 1 25 13
M  V30 28 1 1 26
M  V30 29 1 1 27
M  V30 30 1 1 28
M  V30 31 1 4 29
M  V30 32 1 6 30
M  V30 33 1 11 31
M  V30 34 1 11 32
M  V30 35 1 11 33
M  V30 36 1 12 34
M  V30 37 1 17 35
M  V30 38 1 17 36
M  V30 39 1 21 37
M  V30 40 1 23 38
M  V30 41 1 23 39
M  V30 42 1 24 40
M  V30 43 1 25 41
M  V30 END BOND
M  V30 END CTAB
M  END
