
     RDKit          3D

  0  0  0  0  0  0  0  0  0  0999 V3000
M  V30 BEGIN CTAB
M  V30 COUNTS 25 26 0 0 0
M  V30 BEGIN ATOM
M  V30 1 N 4.35708 0.461653 -1.18893 0
M  V30 2 C 3.60016 0.140058 -0.0531153 0
M  V30 3 S 4.34916 -0.271942 1.33594 0
M  V30 4 C 2.1485 0.166805 -0.0893788 0
M  V30 5 C 1.44124 1.18453 -0.683167 0
M  V30 6 N 0.0977126 1.17568 -0.697479 0
M  V30 7 C -0.630244 0.171808 -0.132349 0
M  V30 8 N 0.0943377 -0.808013 0.439954 0
M  V30 9 C 1.41504 -0.871528 0.49543 0
M  V30 10 N 2.05256 -1.96028 1.12895 0
M  V30 11 C -2.0744 0.18048 -0.158172 0
M  V30 12 C -2.73674 1.21677 -0.761954 0
M  V30 13 C -4.12378 1.24015 -0.795397 0
M  V30 14 N -4.79791 0.24398 -0.233926 0
M  V30 15 C -4.1962 -0.784194 0.364332 0
M  V30 16 C -2.79767 -0.831526 0.411674 0
M  V30 17 H 4.74443 1.43543 -1.30278 0
M  V30 18 H 4.55989 -0.232207 -1.94381 0
M  V30 19 H 1.99718 1.992 -1.13816 0
M  V30 20 H 2.50425 -2.68773 0.561503 0
M  V30 21 H 2.05916 -2.01563 2.15536 0
M  V30 22 H -2.24249 2.05461 -1.23523 0
M  V30 23 H -4.66445 2.04505 -1.26476 0
M  V30 24 H -4.79984 -1.56321 0.802314 0
M  V30 25 H -2.35695 -1.68275 0.90614 0
M  V30 END ATOM
M  V30 BEGIN BOND
M  V30 1 1 1 2
M  V30 2 2 2 3
M  V30 3 1 2 4
M  V30 4 2 4 5
M  V30 5 1 5 6
M  V30 6 2 6 7
M  V30 7 1 7 8
M  V30 8 2 8 9
M  V30 9 1 9 10
M  V30 10 1 7 11
M  V30 11 2 11 12
M  V30 12 1 12 13
M  V30 13 2 13 14
M  V30 14 1 14 15
M  V30 15 2 15 16
M  V30 16 1 9 4
M  V30 17 1 16 11
M  V30 18 1 1 17
M  V30 19 1 1 18
M  V30 20 1 5 19
M  V30 21 1 10 20
M  V30 22 1 10 21
M  V30 23 1 12 22
M  V30 24 1 13 23
M  V30 25 1 15 24
M  V30 26 1 16 25
M  V30 END BOND
M  V30 END CTAB
M  END
