
     RDKit          3D

  0  0  0  0  0  0  0  0  0  0999 V3000
M  V30 BEGIN CTAB
M  V30 COUNTS 23 24 0 0 0
M  V30 BEGIN ATOM
M  V30 1 N -1.37451 1.75092 1.12879 0
M  V30 2 C -1.519 0.454895 0.542216 0
M  V30 3 C -2.73182 0.378635 -0.386816 0
M  V30 4 O -2.48195 -0.633778 -1.2762 0
M  V30 5 C -1.14825 -0.950963 -1.24748 0
M  V30 6 C -0.440612 0.146458 -0.478139 0
M  V30 7 C 0.798911 -0.382556 0.186521 0
M  V30 8 C 0.732091 -1.51298 0.964972 0
M  V30 9 S 2.35551 -1.68635 1.47003 0
M  V30 10 C 3.01362 -0.329434 0.672035 0
M  V30 11 N 1.95877 0.186627 0.0604383 0
M  V30 12 N 4.369 0.171123 0.640358 0
M  V30 13 H -0.775123 2.38923 0.597113 0
M  V30 14 H -2.31198 2.15043 1.37303 0
M  V30 15 H -1.61135 -0.367242 1.27965 0
M  V30 16 H -2.7342 1.34353 -0.969604 0
M  V30 17 H -3.67453 0.288509 0.164146 0
M  V30 18 H -0.694864 -1.12281 -2.24189 0
M  V30 19 H -1.04116 -1.88034 -0.634448 0
M  V30 20 H -0.271385 1.04372 -1.0662 0
M  V30 21 H -0.157114 -2.12765 1.18692 0
M  V30 22 H 4.77812 0.720988 1.41175 0
M  V30 23 H 4.96182 -0.0309697 -0.198038 0
M  V30 END ATOM
M  V30 BEGIN BOND
M  V30 1 1 1 2
M  V30 2 1 2 3
M  V30 3 1 3 4
M  V30 4 1 4 5
M  V30 5 1 5 6
M  V30 6 1 6 7
M  V30 7 2 7 8
M  V30 8 1 8 9
M  V30 9 1 9 10
M  V30 10 2 10 11
M  V30 11 1 10 12
M  V30 12 1 6 2
M  V30 13 1 11 7
M  V30 14 1 1 13
M  V30 15 1 1 14
M  V30 16 1 2 15
M  V30 17 1 3 16
M  V30 18 1 3 17
M  V30 19 1 5 18
M  V30 20 1 5 19
M  V30 21 1 6 20
M  V30 22 1 8 21
M  V30 23 1 12 22
M  V30 24 1 12 23
M  V30 END BOND
M  V30 END CTAB
M  END
