
     RDKit          3D

  0  0  0  0  0  0  0  0  0  0999 V3000
M  V30 BEGIN CTAB
M  V30 COUNTS 27 28 0 0 0
M  V30 BEGIN ATOM
M  V30 1 C -3.76827 0.926434 0.225117 0
M  V30 2 C -2.58751 0.161054 -0.301277 0
M  V30 3 C -2.81844 -1.34745 -0.352503 0
M  V30 4 C -1.82011 -0.718915 0.596906 0
M  V30 5 N -0.448559 -1.0646 0.328288 0
M  V30 6 C 0.581898 -0.0831666 0.228519 0
M  V30 7 N 0.287087 1.24218 0.389037 0
M  V30 8 C 1.26273 2.15895 0.293448 0
M  V30 9 C 2.57679 1.83344 0.0365306 0
M  V30 10 C 2.8769 0.502011 -0.125413 0
M  V30 11 C 1.87863 -0.418191 -0.026141 0
M  V30 12 N 2.19101 -1.79425 -0.193815 0
M  V30 13 N 4.21852 0.083686 -0.394814 0
M  V30 14 H -3.79481 1.97897 -0.0875952 0
M  V30 15 H -3.8031 0.781107 1.31856 0
M  V30 16 H -4.68218 0.437629 -0.217514 0
M  V30 17 H -2.12471 0.640009 -1.20131 0
M  V30 18 H -3.75659 -1.75728 0.0589924 0
M  V30 19 H -2.43974 -1.83073 -1.2763 0
M  V30 20 H -2.16084 -0.716756 1.66437 0
M  V30 21 H -0.150126 -2.0534 0.194793 0
M  V30 22 H 1.06183 3.23154 0.41672 0
M  V30 23 H 3.34449 2.61903 -0.0333984 0
M  V30 24 H 1.79923 -2.33362 -1.00186 0
M  V30 25 H 2.80604 -2.32896 0.453695 0
M  V30 26 H 4.41504 -0.755342 -0.960984 0
M  V30 27 H 5.05478 0.606616 -0.0320514 0
M  V30 END ATOM
M  V30 BEGIN BOND
M  V30 1 1 1 2
M  V30 2 1 2 3
M  V30 3 1 3 4
M  V30 4 1 4 5
M  V30 5 1 5 6
M  V30 6 2 6 7
M  V30 7 1 7 8
M  V30 8 2 8 9
M  V30 9 1 9 10
M  V30 10 2 10 11
M  V30 11 1 11 12
M  V30 12 1 10 13
M  V30 13 1 4 2
M  V30 14 1 11 6
M  V30 15 1 1 14
M  V30 16 1 1 15
M  V30 17 1 1 16
M  V30 18 1 2 17
M  V30 19 1 3 18
M  V30 20 1 3 19
M  V30 21 1 4 20
M  V30 22 1 5 21
M  V30 23 1 8 22
M  V30 24 1 9 23
M  V30 25 1 12 24
M  V30 26 1 12 25
M  V30 27 1 13 26
M  V30 28 1 13 27
M  V30 END BOND
M  V30 END CTAB
M  END
