
     RDKit          3D

  0  0  0  0  0  0  0  0  0  0999 V3000
M  V30 BEGIN CTAB
M  V30 COUNTS 118 118 0 0 0
M  V30 BEGIN ATOM
M  V30 1 C 6.56306 -0.470129 3.34098 0
M  V30 2 C 5.11186 -0.667069 3.48996 0
M  V30 3 C 4.9299 -2.18527 3.80945 0
M  V30 4 C 4.18119 -0.341486 2.41063 0
M  V30 5 C 4.00376 0.980163 1.82564 0 CFG=2
M  V30 6 N 2.91338 0.84502 0.805623 0
M  V30 7 C 2.2391 1.9616 0.369772 0
M  V30 8 O 2.61101 3.09507 0.868981 0
M  V30 9 C 1.15343 1.97819 -0.603122 0
M  V30 10 N 0.683447 0.708297 -1.06284 0
M  V30 11 C 0.066703 -0.240867 -0.222323 0
M  V30 12 O -0.0804782 0.0541343 1.01514 0
M  V30 13 C -0.448151 -1.57826 -0.628991 0 CFG=2
M  V30 14 C -0.751366 -1.67915 -2.08133 0
M  V30 15 C -1.26905 -2.97474 -2.53277 0
M  V30 16 C -0.404258 -3.98908 -2.89696 0
M  V30 17 C -0.929939 -5.19077 -3.31999 0
M  V30 18 C -2.2897 -5.43386 -3.39941 0
M  V30 19 C -2.80254 -6.76688 -3.86559 0
M  V30 20 C -3.13263 -4.40736 -3.03158 0
M  V30 21 C -2.64984 -3.17967 -2.59895 0
M  V30 22 N -1.57569 -1.95427 0.230718 0
M  V30 23 C -2.68884 -1.10934 0.40379 0
M  V30 24 O -2.63452 0.00088063 -0.257599 0
M  V30 25 C -3.88639 -1.28412 1.19975 0 CFG=1
M  V30 26 N -5.00433 -0.721453 0.419439 0
M  V30 27 C -5.71427 0.427022 0.762011 0
M  V30 28 O -5.41532 1.06235 1.7979 0
M  V30 29 C -6.82179 0.913911 -0.0808417 0 CFG=1
M  V30 30 N -7.41754 2.12719 0.396328 0
M  V30 31 C -8.76551 2.19015 0.829079 0
M  V30 32 O -9.45541 1.13831 0.792153 0
M  V30 33 C -9.3713 3.4522 1.31764 0 CFG=1
M  V30 34 N -8.39303 4.5451 1.26685 0
M  V30 35 C -10.5315 3.86728 0.424583 0
M  V30 36 O -10.0847 4.05934 -0.881605 0
M  V30 37 C -6.44129 1.03215 -1.54486 0
M  V30 38 C -7.659 1.53119 -2.2933 0
M  V30 39 C -5.34414 2.05906 -1.74337 0
M  V30 40 C -4.27977 -2.6413 1.63229 0
M  V30 41 C -5.59791 -2.46889 2.42092 0
M  V30 42 C -3.31789 -3.29342 2.59105 0
M  V30 43 C 5.19314 1.39982 0.975631 0
M  V30 44 O 5.16236 0.994456 -0.222032 0
M  V30 45 N 6.22176 2.19539 1.53016 0
M  V30 46 C 7.38367 2.70734 0.882037 0 CFG=1
M  V30 47 C 8.50683 1.80003 0.64267 0
M  V30 48 C 8.32984 0.610433 -0.217255 0
M  V30 49 C 9.71288 -0.0881698 -0.252461 0
M  V30 50 N 10.6608 0.861177 -0.779563 0
M  V30 51 C 10.5983 1.26844 -2.11539 0
M  V30 52 N 10.8234 2.60879 -2.54015 0
M  V30 53 N 10.3308 0.41577 -3.04664 0
M  V30 54 C 7.0297 3.54242 -0.316581 0
M  V30 55 O 7.96789 4.13451 -1.13887 0
M  V30 56 O 5.82557 3.7145 -0.58872 0
M  V30 57 H 6.86538 0.483275 3.85519 0
M  V30 58 H 7.09004 -1.26039 3.98168 0
M  V30 59 H 6.97441 -0.60446 2.34645 0
M  V30 60 H 4.81479 -0.157294 4.4647 0
M  V30 61 H 3.88972 -2.48172 3.60809 0
M  V30 62 H 5.66831 -2.71406 3.13747 0
M  V30 63 H 5.21468 -2.30682 4.85002 0
M  V30 64 H 3.15206 -0.733156 2.77262 0
M  V30 65 H 4.35457 -1.11943 1.56153 0
M  V30 66 H 3.70502 1.82699 2.43664 0
M  V30 67 H 2.72758 -0.102263 0.469256 0
M  V30 68 H 0.265776 2.57202 -0.243477 0
M  V30 69 H 1.50191 2.56237 -1.5063 0
M  V30 70 H 0.791483 0.451574 -2.06088 0
M  V30 71 H 0.39574 -2.27646 -0.320013 0
M  V30 72 H 0.110995 -1.42874 -2.72942 0
M  V30 73 H -1.52844 -0.907629 -2.36659 0
M  V30 74 H 0.649927 -3.79189 -2.83509 0
M  V30 75 H -0.258874 -5.984 -3.60244 0
M  V30 76 H -3.92004 -6.74981 -3.76485 0
M  V30 77 H -2.56636 -6.96434 -4.91833 0
M  V30 78 H -2.45597 -7.53488 -3.15064 0
M  V30 79 H -4.20556 -4.60511 -3.09767 0
M  V30 80 H -3.3408 -2.40331 -2.33276 0
M  V30 81 H -1.53332 -2.86516 0.705669 0
M  V30 82 H -3.86906 -0.630001 2.12594 0
M  V30 83 H -5.28281 -1.24049 -0.469021 0
M  V30 84 H -7.61538 0.11246 -0.0304654 0
M  V30 85 H -6.84148 3.02109 0.434453 0
M  V30 86 H -9.72791 3.3764 2.36746 0
M  V30 87 H -8.19639 4.82419 0.268194 0
M  V30 88 H -8.70369 5.35099 1.85072 0
M  V30 89 H -10.9063 4.83085 0.785771 0
M  V30 90 H -11.3414 3.11085 0.481646 0
M  V30 91 H -10.7512 3.67054 -1.52172 0
M  V30 92 H -6.13664 0.0802325 -1.98715 0
M  V30 93 H -8.58297 0.966163 -1.97886 0
M  V30 94 H -7.86383 2.60271 -2.08244 0
M  V30 95 H -7.58141 1.43561 -3.38128 0
M  V30 96 H -5.63517 2.83702 -2.50679 0
M  V30 97 H -5.15816 2.64442 -0.805821 0
M  V30 98 H -4.40856 1.59942 -2.13084 0
M  V30 99 H -4.47226 -3.29761 0.784215 0
M  V30 100 H -6.43635 -2.21745 1.75424 0
M  V30 101 H -5.83582 -3.42698 2.93207 0
M  V30 102 H -5.48494 -1.70384 3.21089 0
M  V30 103 H -3.02567 -4.27512 2.20501 0
M  V30 104 H -2.4763 -2.62163 2.86871 0
M  V30 105 H -3.8493 -3.48609 3.54384 0
M  V30 106 H 6.04267 2.42961 2.57818 0
M  V30 107 H 7.79378 3.51606 1.59832 0
M  V30 108 H 9.42645 2.3356 0.276266 0
M  V30 109 H 8.84954 1.40643 1.65655 0
M  V30 110 H 8.1201 0.864115 -1.28265 0
M  V30 111 H 7.66515 -0.181618 0.161785 0
M  V30 112 H 9.94108 -0.441298 0.759124 0
M  V30 113 H 9.65697 -0.957313 -0.962466 0
M  V30 114 H 11.3912 1.22764 -0.116736 0
M  V30 115 H 11.7207 3.0956 -2.42393 0
M  V30 116 H 10.0368 3.1251 -2.99319 0
M  V30 117 H 10.1505 -0.582231 -2.89637 0
M  V30 118 H 7.97942 4.07713 -2.13325 0
M  V30 END ATOM
M  V30 BEGIN BOND
M  V30 1 1 1 2
M  V30 2 1 2 3
M  V30 3 1 2 4
M  V30 4 1 4 5
M  V30 5 1 5 6
M  V30 6 1 6 7
M  V30 7 2 7 8
M  V30 8 1 7 9
M  V30 9 1 9 10
M  V30 10 1 10 11
M  V30 11 2 11 12
M  V30 12 1 11 13
M  V30 13 1 13 14
M  V30 14 1 14 15
M  V30 15 2 15 16
M  V30 16 1 16 17
M  V30 17 2 17 18
M  V30 18 1 18 19
M  V30 19 1 18 20
M  V30 20 2 20 21
M  V30 21 1 13 22
M  V30 22 1 22 23
M  V30 23 2 23 24
M  V30 24 1 23 25
M  V30 25 1 25 26
M  V30 26 1 26 27
M  V30 27 2 27 28
M  V30 28 1 27 29
M  V30 29 1 29 30
M  V30 30 1 30 31
M  V30 31 2 31 32
M  V30 32 1 31 33
M  V30 33 1 33 34
M  V30 34 1 33 35
M  V30 35 1 35 36
M  V30 36 1 29 37
M  V30 37 1 37 38
M  V30 38 1 37 39
M  V30 39 1 25 40
M  V30 40 1 40 41
M  V30 41 1 40 42
M  V30 42 1 5 43
M  V30 43 2 43 44
M  V30 44 1 43 45
M  V30 45 1 45 46
M  V30 46 1 46 47
M  V30 47 1 47 48
M  V30 48 1 48 49
M  V30 49 1 49 50
M  V30 50 1 50 51
M  V30 51 1 51 52
M  V30 52 2 51 53 CFG=2
M  V30 53 1 46 54
M  V30 54 1 54 55
M  V30 55 2 54 56
M  V30 56 1 21 15
M  V30 57 1 1 57
M  V30 58 1 1 58
M  V30 59 1 1 59
M  V30 60 1 2 60
M  V30 61 1 3 61
M  V30 62 1 3 62
M  V30 63 1 3 63
M  V30 64 1 4 64
M  V30 65 1 4 65
M  V30 66 1 5 66 CFG=1
M  V30 67 1 6 67
M  V30 68 1 9 68
M  V30 69 1 9 69
M  V30 70 1 10 70
M  V30 71 1 13 71 CFG=3
M  V30 72 1 14 72
M  V30 73 1 14 73
M  V30 74 1 16 74
M  V30 75 1 17 75
M  V30 76 1 19 76
M  V30 77 1 19 77
M  V30 78 1 19 78
M  V30 79 1 20 79
M  V30 80 1 21 80
M  V30 81 1 22 81
M  V30 82 1 25 82 CFG=1
M  V30 83 1 26 83
M  V30 84 1 29 84 CFG=3
M  V30 85 1 30 85
M  V30 86 1 33 86 CFG=1
M  V30 87 1 34 87
M  V30 88 1 34 88
M  V30 89 1 35 89
M  V30 90 1 35 90
M  V30 91 1 36 91
M  V30 92 1 37 92
M  V30 93 1 38 93
M  V30 94 1 38 94
M  V30 95 1 38 95
M  V30 96 1 39 96
M  V30 97 1 39 97
M  V30 98 1 39 98
M  V30 99 1 40 99
M  V30 100 1 41 100
M  V30 101 1 41 101
M  V30 102 1 41 102
M  V30 103 1 42 103
M  V30 104 1 42 104
M  V30 105 1 42 105
M  V30 106 1 45 106
M  V30 107 1 46 107 CFG=1
M  V30 108 1 47 108
M  V30 109 1 47 109
M  V30 110 1 48 110
M  V30 111 1 48 111
M  V30 112 1 49 112
M  V30 113 1 49 113
M  V30 114 1 50 114
M  V30 115 1 52 115
M  V30 116 1 52 116
M  V30 117 1 53 117
M  V30 118 1 55 118
M  V30 END BOND
M  V30 END CTAB
M  END
