
     RDKit          3D

  0  0  0  0  0  0  0  0  0  0999 V3000
M  V30 BEGIN CTAB
M  V30 COUNTS 19 19 0 0 0
M  V30 BEGIN ATOM
M  V30 1 N -3.12191 -0.779518 -0.311426 0
M  V30 2 C -1.71132 -0.529292 -0.163597 0
M  V30 3 C -1.18754 0.739604 -0.197669 0
M  V30 4 C 0.180715 0.973279 -0.053602 0
M  V30 5 N 0.719313 2.2828 -0.0890415 0
M  V30 6 C 1.00622 -0.126292 0.127158 0
M  V30 7 C 0.515759 -1.41169 0.16642 0
M  V30 8 C -0.851922 -1.59515 0.0186231 0
M  V30 9 Br 1.6956 -2.88435 0.417347 0
M  V30 10 C 2.45988 0.120557 0.280383 0
M  V30 11 F 2.98747 0.754246 -0.83006 0
M  V30 12 F 2.73669 0.802398 1.45063 0
M  V30 13 F 3.1273 -1.10312 0.385322 0
M  V30 14 H -3.50022 -1.36238 -1.07888 0
M  V30 15 H -3.81064 -0.377046 0.356821 0
M  V30 16 H -1.84093 1.59004 -0.339248 0
M  V30 17 H 1.21498 2.64292 0.740423 0
M  V30 18 H 0.618677 2.86792 -0.928964 0
M  V30 19 H -1.23814 -2.60494 0.049365 0
M  V30 END ATOM
M  V30 BEGIN BOND
M  V30 1 1 1 2
M  V30 2 2 2 3
M  V30 3 1 3 4
M  V30 4 1 4 5
M  V30 5 2 4 6
M  V30 6 1 6 7
M  V30 7 2 7 8
M  V30 8 1 7 9
M  V30 9 1 6 10
M  V30 10 1 10 11
M  V30 11 1 10 12
M  V30 12 1 10 13
M  V30 13 1 8 2
M  V30 14 1 1 14
M  V30 15 1 1 15
M  V30 16 1 3 16
M  V30 17 1 5 17
M  V30 18 1 5 18
M  V30 19 1 8 19
M  V30 END BOND
M  V30 END CTAB
M  END
