
     RDKit          3D

  0  0  0  0  0  0  0  0  0  0999 V3000
M  V30 BEGIN CTAB
M  V30 COUNTS 45 47 0 0 0
M  V30 BEGIN ATOM
M  V30 1 C 1.5435 -2.98959 -3.54606 0
M  V30 2 O 1.60304 -1.95662 -2.59614 0
M  V30 3 C 0.477584 -1.24907 -2.15963 0
M  V30 4 C -0.767101 -1.5542 -2.66602 0
M  V30 5 C -1.86924 -0.834922 -2.21482 0
M  V30 6 C -1.76211 0.163692 -1.28603 0
M  V30 7 C -2.90394 0.918042 -0.789233 0
M  V30 8 C -3.37026 0.59969 0.561281 0
M  V30 9 C -4.12486 -0.502903 0.845339 0
M  V30 10 N -4.49564 -1.38094 -0.211481 0
M  V30 11 N -4.53233 -0.766668 2.12485 0
M  V30 12 C -4.21539 0.0348706 3.15208 0
M  V30 13 N -4.66051 -0.279004 4.47601 0
M  V30 14 N -3.47381 1.12432 2.8898 0
M  V30 15 C -3.04839 1.42842 1.6522 0
M  V30 16 C -0.50915 0.45817 -0.788312 0
M  V30 17 C 0.583633 -0.24422 -1.22661 0
M  V30 18 O 1.82717 0.0640484 -0.718277 0
M  V30 19 C 2.07113 1.06924 0.240635 0
M  V30 20 C 3.50413 1.16215 0.585388 0
M  V30 21 C 3.91182 2.07645 1.51853 0
M  V30 22 C 5.25948 2.19377 1.86775 0
M  V30 23 C 6.18502 1.37344 1.2597 0
M  V30 24 C 5.76126 0.466357 0.330409 0
M  V30 25 C 4.42096 0.340645 -0.0256522 0
M  V30 26 H 2.59304 -3.09467 -3.95307 0
M  V30 27 H 0.86265 -2.78205 -4.39611 0
M  V30 28 H 1.21526 -3.9649 -3.10503 0
M  V30 29 H -0.859314 -2.34309 -3.40035 0
M  V30 30 H -2.82377 -1.10196 -2.65125 0
M  V30 31 H -2.69689 2.02844 -0.798088 0
M  V30 32 H -3.79523 0.820524 -1.46513 0
M  V30 33 H -5.2598 -1.20968 -0.87074 0
M  V30 34 H -3.92175 -2.25914 -0.292163 0
M  V30 35 H -5.6712 -0.110931 4.69017 0
M  V30 36 H -4.02565 -0.657512 5.20488 0
M  V30 37 H -2.44959 2.29663 1.40389 0
M  V30 38 H -0.415888 1.26097 -0.0391171 0
M  V30 39 H 1.63861 2.05126 -0.0509089 0
M  V30 40 H 1.53168 0.777009 1.17768 0
M  V30 41 H 3.23213 2.74066 2.02449 0
M  V30 42 H 5.5991 2.90811 2.6006 0
M  V30 43 H 7.22706 1.49013 1.55509 0
M  V30 44 H 6.50098 -0.169221 -0.135425 0
M  V30 45 H 4.10256 -0.39575 -0.775131 0
M  V30 END ATOM
M  V30 BEGIN BOND
M  V30 1 1 1 2
M  V30 2 1 2 3
M  V30 3 2 3 4
M  V30 4 1 4 5
M  V30 5 2 5 6
M  V30 6 1 6 7
M  V30 7 1 7 8
M  V30 8 2 8 9
M  V30 9 1 9 10
M  V30 10 1 9 11
M  V30 11 2 11 12
M  V30 12 1 12 13
M  V30 13 1 12 14
M  V30 14 2 14 15
M  V30 15 1 6 16
M  V30 16 2 16 17
M  V30 17 1 17 18
M  V30 18 1 18 19
M  V30 19 1 19 20
M  V30 20 2 20 21
M  V30 21 1 21 22
M  V30 22 2 22 23
M  V30 23 1 23 24
M  V30 24 2 24 25
M  V30 25 1 17 3
M  V30 26 1 25 20
M  V30 27 1 15 8
M  V30 28 1 1 26
M  V30 29 1 1 27
M  V30 30 1 1 28
M  V30 31 1 4 29
M  V30 32 1 5 30
M  V30 33 1 7 31
M  V30 34 1 7 32
M  V30 35 1 10 33
M  V30 36 1 10 34
M  V30 37 1 13 35
M  V30 38 1 13 36
M  V30 39 1 15 37
M  V30 40 1 16 38
M  V30 41 1 19 39
M  V30 42 1 19 40
M  V30 43 1 21 41
M  V30 44 1 22 42
M  V30 45 1 23 43
M  V30 46 1 24 44
M  V30 47 1 25 45
M  V30 END BOND
M  V30 END CTAB
M  END
