
     RDKit          3D

  0  0  0  0  0  0  0  0  0  0999 V3000
M  V30 BEGIN CTAB
M  V30 COUNTS 17 17 0 0 0
M  V30 BEGIN ATOM
M  V30 1 O -2.49913 -0.0992471 0.139893 0
M  V30 2 C -1.3915 0.728239 0.228014 0
M  V30 3 O -1.55981 1.93689 0.436731 0
M  V30 4 C -0.076071 0.11472 0.0669706 0
M  V30 5 C 0.0552427 -1.2246 -0.161814 0
M  V30 6 N -1.0792 -2.07076 -0.251751 0
M  V30 7 N 1.3128 -1.71796 -0.300304 0
M  V30 8 C 2.3808 -0.902763 -0.212519 0
M  V30 9 N 2.24912 0.42139 0.0137559 0
M  V30 10 C 1.03165 0.955253 0.15719 0
M  V30 11 N 0.826483 2.34925 0.398379 0
M  V30 12 H -3.10269 -0.0434352 -0.65982 0
M  V30 13 H -1.62406 -2.36413 0.579564 0
M  V30 14 H -1.38569 -2.41611 -1.17929 0
M  V30 15 H 3.35678 -1.38133 -0.335917 0
M  V30 16 H 0.705211 3.07478 -0.317899 0
M  V30 17 H 0.800074 2.63981 1.39881 0
M  V30 END ATOM
M  V30 BEGIN BOND
M  V30 1 1 1 2
M  V30 2 2 2 3
M  V30 3 1 2 4
M  V30 4 2 4 5
M  V30 5 1 5 6
M  V30 6 1 5 7
M  V30 7 2 7 8
M  V30 8 1 8 9
M  V30 9 2 9 10
M  V30 10 1 10 11
M  V30 11 1 10 4
M  V30 12 1 1 12
M  V30 13 1 6 13
M  V30 14 1 6 14
M  V30 15 1 8 15
M  V30 16 1 11 16
M  V30 17 1 11 17
M  V30 END BOND
M  V30 END CTAB
M  END
