
     RDKit          3D

  0  0  0  0  0  0  0  0  0  0999 V3000
M  V30 BEGIN CTAB
M  V30 COUNTS 40 39 0 0 0
M  V30 BEGIN ATOM
M  V30 1 C -4.91404 -0.896372 -0.152355 0
M  V30 2 C -3.51484 -1.27115 0.131568 0
M  V30 3 C -2.4552 -0.284669 -0.25314 0
M  V30 4 C -1.14561 -0.970095 0.163221 0
M  V30 5 N 0.0147222 -0.195608 -0.120767 0
M  V30 6 C 1.27618 -0.739163 0.229062 0
M  V30 7 O 1.38775 -1.88578 0.782144 0
M  V30 8 C 2.54079 0.0174033 -0.0388216 0
M  V30 9 C 3.74143 -0.772414 0.423692 0
M  V30 10 C 4.98399 0.01801 0.138608 0
M  V30 11 N 5.04011 0.243579 -1.2949 0
M  V30 12 C 4.84296 1.3547 0.850682 0
M  V30 13 C -2.4916 1.00131 0.498439 0
M  V30 14 C -3.73545 1.80677 0.378292 0
M  V30 15 N -2.39882 -0.0177133 -1.66092 0
M  V30 16 H -5.07247 -0.122335 -0.914391 0
M  V30 17 H -5.49325 -0.700345 0.797203 0
M  V30 18 H -5.44286 -1.80761 -0.568929 0
M  V30 19 H -3.41185 -1.44534 1.22465 0
M  V30 20 H -3.27204 -2.24313 -0.382186 0
M  V30 21 H -1.16093 -1.21508 1.24666 0
M  V30 22 H -1.05047 -1.94022 -0.373072 0
M  V30 23 H 0.0087803 0.746458 -0.571234 0
M  V30 24 H 2.54387 0.972166 0.555153 0
M  V30 25 H 2.58765 0.255694 -1.1125 0
M  V30 26 H 3.64724 -1.10358 1.47291 0
M  V30 27 H 3.80949 -1.71469 -0.181728 0
M  V30 28 H 5.90659 -0.507049 0.432573 0
M  V30 29 H 4.49844 -0.488705 -1.8078 0
M  V30 30 H 6.0202 0.303663 -1.5957 0
M  V30 31 H 5.8228 1.76855 1.12294 0
M  V30 32 H 4.33165 2.08237 0.189389 0
M  V30 33 H 4.22202 1.26484 1.76229 0
M  V30 34 H -2.31373 0.825555 1.5802 0
M  V30 35 H -1.64316 1.64294 0.167559 0
M  V30 36 H -3.47689 2.84031 0.767612 0
M  V30 37 H -4.04242 2.01463 -0.674631 0
M  V30 38 H -4.58237 1.49497 0.993231 0
M  V30 39 H -3.19082 0.559699 -1.96044 0
M  V30 40 H -2.41781 -0.892566 -2.24457 0
M  V30 END ATOM
M  V30 BEGIN BOND
M  V30 1 1 1 2
M  V30 2 1 2 3
M  V30 3 1 3 4
M  V30 4 1 4 5
M  V30 5 1 5 6
M  V30 6 2 6 7
M  V30 7 1 6 8
M  V30 8 1 8 9
M  V30 9 1 9 10
M  V30 10 1 10 11
M  V30 11 1 10 12
M  V30 12 1 3 13
M  V30 13 1 13 14
M  V30 14 1 3 15
M  V30 15 1 1 16
M  V30 16 1 1 17
M  V30 17 1 1 18
M  V30 18 1 2 19
M  V30 19 1 2 20
M  V30 20 1 4 21
M  V30 21 1 4 22
M  V30 22 1 5 23
M  V30 23 1 8 24
M  V30 24 1 8 25
M  V30 25 1 9 26
M  V30 26 1 9 27
M  V30 27 1 10 28
M  V30 28 1 11 29
M  V30 29 1 11 30
M  V30 30 1 12 31
M  V30 31 1 12 32
M  V30 32 1 12 33
M  V30 33 1 13 34
M  V30 34 1 13 35
M  V30 35 1 14 36
M  V30 36 1 14 37
M  V30 37 1 14 38
M  V30 38 1 15 39
M  V30 39 1 15 40
M  V30 END BOND
M  V30 END CTAB
M  END
