
     RDKit          3D

  0  0  0  0  0  0  0  0  0  0999 V3000
M  V30 BEGIN CTAB
M  V30 COUNTS 57 60 0 0 0
M  V30 BEGIN ATOM
M  V30 1 C 0.924433 0.0547149 1.7716 0 CFG=1
M  V30 2 S 0.812336 1.43985 0.653502 0
M  V30 3 C -0.119299 0.764154 -0.713438 0
M  V30 4 C -1.45172 0.0948565 -0.183227 0
M  V30 5 C -2.55365 0.550387 -0.899002 0
M  V30 6 N -3.92205 0.361426 -0.934384 0 CHG=1
M  V30 7 C -4.5729 -0.541315 -1.69333 0
M  V30 8 C -5.92423 -0.424182 -1.54429 0
M  V30 9 C -6.09423 0.604493 -0.648078 0
M  V30 10 N -7.38024 1.05566 -0.211953 0
M  V30 11 N -4.88555 1.05487 -0.301294 0
M  V30 12 C -4.71035 2.15646 0.618563 0
M  V30 13 C -4.61991 1.77331 2.05634 0
M  V30 14 O -4.45434 2.95127 2.79985 0
M  V30 15 C -1.29295 -0.741329 0.805109 0
M  V30 16 N 0.059926 -0.977121 1.32863 0
M  V30 17 C 1.10558 -1.89311 1.66634 0
M  V30 18 O 1.17469 -3.13365 1.85418 0
M  V30 19 C 2.12143 -0.815632 1.71888 0 CFG=1
M  V30 20 N 2.96844 -0.688977 0.54071 0
M  V30 21 C 4.3671 -0.6138 0.748134 0
M  V30 22 O 4.77602 -0.664738 1.97932 0
M  V30 23 C 5.41267 -0.486961 -0.230351 0
M  V30 24 N 6.64647 -0.437253 0.21766 0
M  V30 25 O 6.98279 -0.498619 1.5408 0
M  V30 26 C 7.74589 -1.55411 2.09324 0
M  V30 27 C 5.19296 -0.408964 -1.70084 0
M  V30 28 C 6.27117 -0.2869 -2.56703 0
M  V30 29 S 5.49857 -0.240712 -4.08629 0
M  V30 30 C 3.88288 -0.375675 -3.55606 0
M  V30 31 N 2.65941 -0.404283 -4.33353 0
M  V30 32 N 4.02475 -0.448246 -2.25087 0
M  V30 33 C -2.30639 -1.52253 1.44052 0
M  V30 34 O -3.63454 -1.59624 1.22208 0 CHG=-1
M  V30 35 O -1.94569 -2.32169 2.40082 0
M  V30 36 H 0.746926 0.389567 2.80244 0
M  V30 37 H -0.476512 1.60299 -1.32193 0
M  V30 38 H 0.431935 0.0153535 -1.26815 0
M  V30 39 H -2.18135 0.449009 -2.05401 0
M  V30 40 H -2.48286 1.7579 -0.941061 0
M  V30 41 H -4.08426 -1.25703 -2.33031 0
M  V30 42 H -6.73438 -1.00272 -2.01637 0
M  V30 43 H -8.0239 1.4594 -0.923874 0
M  V30 44 H -7.68097 0.993077 0.768735 0
M  V30 45 H -3.75303 2.65756 0.350704 0
M  V30 46 H -5.57144 2.87758 0.505932 0
M  V30 47 H -5.55096 1.30564 2.43767 0
M  V30 48 H -3.72333 1.16479 2.25331 0
M  V30 49 H -4.44391 3.75482 2.23503 0
M  V30 50 H 2.68966 -0.853349 2.6422 0
M  V30 51 H 2.53197 -0.659868 -0.392685 0
M  V30 52 H 8.81482 -1.41038 1.90168 0
M  V30 53 H 7.33769 -2.50029 1.67849 0
M  V30 54 H 7.60102 -1.51838 3.19261 0
M  V30 55 H 7.34196 -0.235674 -2.30653 0
M  V30 56 H 2.36195 0.477902 -4.76863 0
M  V30 57 H 2.0895 -1.25334 -4.46439 0
M  V30 END ATOM
M  V30 BEGIN BOND
M  V30 1 1 1 2
M  V30 2 1 2 3
M  V30 3 1 3 4
M  V30 4 1 4 5
M  V30 5 1 5 6
M  V30 6 2 6 7
M  V30 7 1 7 8
M  V30 8 2 8 9
M  V30 9 1 9 10
M  V30 10 1 9 11
M  V30 11 1 11 12
M  V30 12 1 12 13
M  V30 13 1 13 14
M  V30 14 2 4 15
M  V30 15 1 15 16
M  V30 16 1 16 17
M  V30 17 2 17 18
M  V30 18 1 17 19
M  V30 19 1 19 20
M  V30 20 1 20 21
M  V30 21 2 21 22
M  V30 22 1 21 23
M  V30 23 2 23 24
M  V30 24 1 24 25
M  V30 25 1 25 26
M  V30 26 1 23 27
M  V30 27 2 27 28
M  V30 28 1 28 29
M  V30 29 1 29 30
M  V30 30 1 30 31
M  V30 31 2 30 32
M  V30 32 1 15 33
M  V30 33 1 33 34
M  V30 34 2 33 35
M  V30 35 1 16 1
M  V30 36 1 32 27
M  V30 37 1 19 1
M  V30 38 1 11 6
M  V30 39 1 1 36 CFG=1
M  V30 40 1 3 37
M  V30 41 1 3 38
M  V30 42 1 5 39
M  V30 43 1 5 40
M  V30 44 1 7 41
M  V30 45 1 8 42
M  V30 46 1 10 43
M  V30 47 1 10 44
M  V30 48 1 12 45
M  V30 49 1 12 46
M  V30 50 1 13 47
M  V30 51 1 13 48
M  V30 52 1 14 49
M  V30 53 1 19 50 CFG=1
M  V30 54 1 20 51
M  V30 55 1 26 52
M  V30 56 1 26 53
M  V30 57 1 26 54
M  V30 58 1 28 55
M  V30 59 1 31 56
M  V30 60 1 31 57
M  V30 END BOND
M  V30 END CTAB
M  END
