
     RDKit          3D

  0  0  0  0  0  0  0  0  0  0999 V3000
M  V30 BEGIN CTAB
M  V30 COUNTS 19 19 0 0 0
M  V30 BEGIN ATOM
M  V30 1 N 4.08622 0.0218812 0.0508837 0
M  V30 2 N 2.77849 0.419932 0.197508 0
M  V30 3 C 1.66183 -0.43144 -0.134018 0
M  V30 4 O 1.85198 -1.58953 -0.577137 0
M  V30 5 C 0.306707 0.0396552 0.0403695 0
M  V30 6 N 0.0851926 1.28096 0.515142 0
M  V30 7 C -1.20324 1.68465 0.663954 0
M  V30 8 Cl -1.56444 3.30025 1.28153 0
M  V30 9 C -2.2749 0.87595 0.349058 0
M  V30 10 C -2.05194 -0.402354 -0.139888 0
M  V30 11 C -0.738617 -0.788163 -0.281732 0
M  V30 12 Cl -0.393125 -2.38714 -0.893056 0
M  V30 13 N -3.10237 -1.2701 -0.477315 0
M  V30 14 Cl -3.92454 1.47718 0.57193 0
M  V30 15 H 4.25312 -0.986962 0.0780206 0
M  V30 16 H 4.65266 0.570824 -0.601407 0
M  V30 17 H 2.56217 1.36902 0.560409 0
M  V30 18 H -3.77207 -1.58024 0.241845 0
M  V30 19 H -3.21311 -1.60438 -1.44609 0
M  V30 END ATOM
M  V30 BEGIN BOND
M  V30 1 1 1 2
M  V30 2 1 2 3
M  V30 3 2 3 4
M  V30 4 1 3 5
M  V30 5 2 5 6
M  V30 6 1 6 7
M  V30 7 1 7 8
M  V30 8 2 7 9
M  V30 9 1 9 10
M  V30 10 2 10 11
M  V30 11 1 11 12
M  V30 12 1 10 13
M  V30 13 1 9 14
M  V30 14 1 11 5
M  V30 15 1 1 15
M  V30 16 1 1 16
M  V30 17 1 2 17
M  V30 18 1 13 18
M  V30 19 1 13 19
M  V30 END BOND
M  V30 END CTAB
M  END
