
     RDKit          3D

  0  0  0  0  0  0  0  0  0  0999 V3000
M  V30 BEGIN CTAB
M  V30 COUNTS 23 22 0 0 0
M  V30 BEGIN ATOM
M  V30 1 N 1.15948 -1.80233 0.901251 0
M  V30 2 C 1.70086 -0.689569 0.180073 0
M  V30 3 C 0.749566 0.510208 0.233796 0 CFG=2
M  V30 4 N -0.475128 0.121812 -0.348313 0
M  V30 5 S -1.8137 0.0727334 0.683555 0
M  V30 6 O -1.80047 1.12155 1.75431 0
M  V30 7 O -3.06671 0.287983 -0.130382 0
M  V30 8 N -1.95346 -1.50897 1.3966 0
M  V30 9 C -0.744839 0.654573 -1.65169 0
M  V30 10 C 1.40222 1.70933 -0.392159 0
M  V30 11 H 0.759286 -2.5177 0.318144 0
M  V30 12 H 1.85796 -2.1989 1.54831 0
M  V30 13 H 1.89129 -1.00439 -0.864967 0
M  V30 14 H 2.68271 -0.392512 0.61922 0
M  V30 15 H 0.599224 0.720188 1.30703 0
M  V30 16 H -2.43064 -2.10907 0.692547 0
M  V30 17 H -2.57208 -1.37784 2.24615 0
M  V30 18 H -1.77381 0.287982 -1.93985 0
M  V30 19 H -0.832772 1.75879 -1.61119 0
M  V30 20 H -0.023654 0.374661 -2.41689 0
M  V30 21 H 2.38783 1.8442 0.102033 0
M  V30 22 H 0.804331 2.61406 -0.159738 0
M  V30 23 H 1.4925 1.52321 -1.47736 0
M  V30 END ATOM
M  V30 BEGIN BOND
M  V30 1 1 1 2
M  V30 2 1 2 3
M  V30 3 1 3 4
M  V30 4 1 4 5
M  V30 5 2 5 6
M  V30 6 2 5 7
M  V30 7 1 5 8
M  V30 8 1 4 9
M  V30 9 1 3 10
M  V30 10 1 1 11
M  V30 11 1 1 12
M  V30 12 1 2 13
M  V30 13 1 2 14
M  V30 14 1 3 15 CFG=1
M  V30 15 1 8 16
M  V30 16 1 8 17
M  V30 17 1 9 18
M  V30 18 1 9 19
M  V30 19 1 9 20
M  V30 20 1 10 21
M  V30 21 1 10 22
M  V30 22 1 10 23
M  V30 END BOND
M  V30 END CTAB
M  END
