
     RDKit          3D

  0  0  0  0  0  0  0  0  0  0999 V3000
M  V30 BEGIN CTAB
M  V30 COUNTS 35 35 0 0 0
M  V30 BEGIN ATOM
M  V30 1 C -2.0883 3.52955 0.0313647 0
M  V30 2 C -0.990922 2.44155 0.0989141 0
M  V30 3 C -1.67789 1.11525 0.133714 0
M  V30 4 N -0.809181 -0.0389886 0.242089 0
M  V30 5 C 0.570407 0.0308149 0.0304873 0
M  V30 6 N 1.20535 0.782554 -0.885955 0
M  V30 7 C 2.53543 0.855371 -1.03679 0
M  V30 8 C 3.39365 0.126138 -0.219934 0
M  V30 9 C 2.80758 -0.660862 0.73432 0
M  V30 10 C 1.43621 -0.70336 0.850941 0
M  V30 11 N 3.67358 -1.40204 1.59158 0
M  V30 12 N 4.81274 0.189981 -0.355346 0
M  V30 13 C -1.5235 -1.27914 0.552749 0
M  V30 14 C -2.41854 -1.73373 -0.558257 0
M  V30 15 C -3.10245 -3.00858 -0.0400298 0
M  V30 16 H -1.71259 4.46065 -0.402423 0
M  V30 17 H -2.93595 3.15968 -0.571444 0
M  V30 18 H -2.48394 3.66495 1.06579 0
M  V30 19 H -0.427165 2.60038 -0.835002 0
M  V30 20 H -0.377927 2.58954 1.00658 0
M  V30 21 H -2.46315 1.14137 0.936832 0
M  V30 22 H -2.31585 1.01202 -0.815074 0
M  V30 23 H 2.97446 1.48862 -1.8071 0
M  V30 24 H 1.0205 -1.34162 1.62023 0
M  V30 25 H 3.71123 -1.07715 2.57834 0
M  V30 26 H 4.22655 -2.20415 1.26431 0
M  V30 27 H 5.28063 -0.50302 -0.964864 0
M  V30 28 H 5.38368 0.906257 0.136972 0
M  V30 29 H -0.840492 -2.09894 0.804558 0
M  V30 30 H -2.14173 -1.06214 1.44233 0
M  V30 31 H -3.18384 -1.02688 -0.877661 0
M  V30 32 H -1.81782 -2.08342 -1.43329 0
M  V30 33 H -2.32544 -3.7918 -0.0391809 0
M  V30 34 H -3.42175 -2.82376 1.03178 0
M  V30 35 H -3.97357 -3.25509 -0.654318 0
M  V30 END ATOM
M  V30 BEGIN BOND
M  V30 1 1 1 2
M  V30 2 1 2 3
M  V30 3 1 3 4
M  V30 4 1 4 5
M  V30 5 2 5 6
M  V30 6 1 6 7
M  V30 7 2 7 8
M  V30 8 1 8 9
M  V30 9 2 9 10
M  V30 10 1 9 11
M  V30 11 1 8 12
M  V30 12 1 4 13
M  V30 13 1 13 14
M  V30 14 1 14 15
M  V30 15 1 10 5
M  V30 16 1 1 16
M  V30 17 1 1 17
M  V30 18 1 1 18
M  V30 19 1 2 19
M  V30 20 1 2 20
M  V30 21 1 3 21
M  V30 22 1 3 22
M  V30 23 1 7 23
M  V30 24 1 10 24
M  V30 25 1 11 25
M  V30 26 1 11 26
M  V30 27 1 12 27
M  V30 28 1 12 28
M  V30 29 1 13 29
M  V30 30 1 13 30
M  V30 31 1 14 31
M  V30 32 1 14 32
M  V30 33 1 15 33
M  V30 34 1 15 34
M  V30 35 1 15 35
M  V30 END BOND
M  V30 END CTAB
M  END
