
     RDKit          3D

  0  0  0  0  0  0  0  0  0  0999 V3000
M  V30 BEGIN CTAB
M  V30 COUNTS 33 34 0 0 0
M  V30 BEGIN ATOM
M  V30 1 C -0.27734 2.13016 -0.175063 0
M  V30 2 N -0.531538 0.737958 0.020818 0
M  V30 3 C 0.435457 -0.253255 0.10569 0
M  V30 4 O -0.0447366 -1.47619 0.225285 0
M  V30 5 C 1.8805 -0.220011 0.089227 0
M  V30 6 C 2.6672 0.89605 0.0324015 0
M  V30 7 C 4.04229 0.816533 0.0049497 0
M  V30 8 C 4.70755 -0.384911 0.0331814 0
M  V30 9 N 6.12253 -0.425528 0.00279129 0
M  V30 10 C 3.92077 -1.50097 0.0903059 0
M  V30 11 C 2.55015 -1.45156 0.118729 0
M  V30 12 C -1.91962 0.306156 0.126195 0
M  V30 13 C -2.79621 0.527026 -0.903184 0
M  V30 14 C -4.11052 0.121141 -0.809488 0
M  V30 15 C -4.5976 -0.524861 0.327058 0
M  V30 16 N -5.94266 -0.93919 0.419972 0
M  V30 17 C -3.68949 -0.735679 1.35333 0
M  V30 18 C -2.35799 -0.319027 1.24564 0
M  V30 19 H 0.189171 2.56213 0.713775 0
M  V30 20 H -1.24089 2.68689 -0.418385 0
M  V30 21 H 0.301953 2.2539 -1.11041 0
M  V30 22 H 2.24267 1.88355 0.0148465 0
M  V30 23 H 4.66851 1.7152 -0.0410903 0
M  V30 24 H 6.66136 0.320129 -0.480908 0
M  V30 25 H 6.59704 -1.21876 0.476749 0
M  V30 26 H 4.43909 -2.46708 0.113756 0
M  V30 27 H 2.02017 -2.40719 0.163712 0
M  V30 28 H -2.47299 1.02929 -1.8206 0
M  V30 29 H -4.8261 0.277524 -1.59746 0
M  V30 30 H -6.46144 -0.775929 1.29061 0
M  V30 31 H -6.39437 -1.39969 -0.378279 0
M  V30 32 H -4.05065 -1.23507 2.24157 0
M  V30 33 H -1.73224 -0.528717 2.09565 0
M  V30 END ATOM
M  V30 BEGIN BOND
M  V30 1 1 1 2
M  V30 2 1 2 3
M  V30 3 2 3 4
M  V30 4 1 3 5
M  V30 5 2 5 6
M  V30 6 1 6 7
M  V30 7 2 7 8
M  V30 8 1 8 9
M  V30 9 1 8 10
M  V30 10 2 10 11
M  V30 11 1 2 12
M  V30 12 2 12 13
M  V30 13 1 13 14
M  V30 14 2 14 15
M  V30 15 1 15 16
M  V30 16 1 15 17
M  V30 17 2 17 18
M  V30 18 1 11 5
M  V30 19 1 18 12
M  V30 20 1 1 19
M  V30 21 1 1 20
M  V30 22 1 1 21
M  V30 23 1 6 22
M  V30 24 1 7 23
M  V30 25 1 9 24
M  V30 26 1 9 25
M  V30 27 1 10 26
M  V30 28 1 11 27
M  V30 29 1 13 28
M  V30 30 1 14 29
M  V30 31 1 16 30
M  V30 32 1 16 31
M  V30 33 1 17 32
M  V30 34 1 18 33
M  V30 END BOND
M  V30 END CTAB
M  END
