
     RDKit          3D

  0  0  0  0  0  0  0  0  0  0999 V3000
M  V30 BEGIN CTAB
M  V30 COUNTS 28 30 0 0 0
M  V30 BEGIN ATOM
M  V30 1 N -4.74602 1.49252 0.280891 0
M  V30 2 C -3.50777 0.799486 0.217759 0
M  V30 3 C -3.19811 -0.178856 1.14258 0
M  V30 4 C -2.00167 -0.855511 1.08979 0
M  V30 5 C -1.07428 -0.580903 0.115208 0
M  V30 6 C -1.40109 0.398197 -0.798406 0
M  V30 7 C -2.5812 1.10078 -0.787427 0
M  V30 8 N 0.177277 -1.27818 0.0476646 0
M  V30 9 C 0.40921 -2.59952 0.0845157 0
M  V30 10 N 1.72524 -2.85354 -0.00634559 0
M  V30 11 C 2.37337 -1.68975 -0.104466 0
M  V30 12 C 1.41275 -0.700856 -0.0714174 0
M  V30 13 N 1.72391 0.601094 -0.149302 0
M  V30 14 C 3.00877 0.963176 -0.263275 0
M  V30 15 N 3.39371 2.34252 -0.350055 0
M  V30 16 N 3.94727 -0.000902885 -0.295646 0
M  V30 17 C 3.69388 -1.30379 -0.222173 0
M  V30 18 O 4.58105 -2.19429 -0.253638 0
M  V30 19 H -4.79751 2.35541 0.852295 0
M  V30 20 H -5.5866 1.16649 -0.219396 0
M  V30 21 H -3.91848 -0.415715 1.92712 0
M  V30 22 H -1.74426 -1.6349 1.81899 0
M  V30 23 H -0.658336 0.60624 -1.56506 0
M  V30 24 H -2.83245 1.87231 -1.51178 0
M  V30 25 H -0.401018 -3.34008 0.177599 0
M  V30 26 H 4.09535 2.71142 0.30367 0
M  V30 27 H 2.94724 2.92084 -1.07375 0
M  V30 28 H 4.95978 0.296318 -0.385948 0
M  V30 END ATOM
M  V30 BEGIN BOND
M  V30 1 1 1 2
M  V30 2 2 2 3
M  V30 3 1 3 4
M  V30 4 2 4 5
M  V30 5 1 5 6
M  V30 6 2 6 7
M  V30 7 1 5 8
M  V30 8 1 8 9
M  V30 9 2 9 10
M  V30 10 1 10 11
M  V30 11 2 11 12
M  V30 12 1 12 13
M  V30 13 2 13 14
M  V30 14 1 14 15
M  V30 15 1 14 16
M  V30 16 1 16 17
M  V30 17 2 17 18
M  V30 18 1 7 2
M  V30 19 1 12 8
M  V30 20 1 17 11
M  V30 21 1 1 19
M  V30 22 1 1 20
M  V30 23 1 3 21
M  V30 24 1 4 22
M  V30 25 1 6 23
M  V30 26 1 7 24
M  V30 27 1 9 25
M  V30 28 1 15 26
M  V30 29 1 15 27
M  V30 30 1 16 28
M  V30 END BOND
M  V30 END CTAB
M  END
