
     RDKit          3D

  0  0  0  0  0  0  0  0  0  0999 V3000
M  V30 BEGIN CTAB
M  V30 COUNTS 41 43 0 0 0
M  V30 BEGIN ATOM
M  V30 1 N 1.88616 3.82601 -0.49167 0
M  V30 2 C 1.92339 2.39212 -0.666239 0
M  V30 3 C 1.32026 1.78341 0.574114 0
M  V30 4 N 1.27525 0.35956 0.562158 0
M  V30 5 C 2.54186 -0.267523 0.639496 0
M  V30 6 C 2.76865 -1.34861 -0.429544 0
M  V30 7 C 1.61028 -2.25384 -0.284101 0
M  V30 8 C 0.36061 -1.67967 -0.244014 0
M  V30 9 C 0.32891 -0.198345 -0.361003 0 CFG=1
M  V30 10 C -1.03789 0.309635 -0.159161 0
M  V30 11 C -1.79408 0.689165 -1.23715 0
M  V30 12 C -3.07165 1.1706 -1.11708 0
M  V30 13 C -3.62447 1.28172 0.12789 0
M  V30 14 C -2.90204 0.913614 1.23045 0
M  V30 15 C -1.62153 0.43291 1.08551 0
M  V30 16 N -4.96844 1.78708 0.218272 0
M  V30 17 C -0.792506 -2.45863 -0.107394 0
M  V30 18 C -0.663666 -3.83204 -0.0112421 0
M  V30 19 C 0.589674 -4.42138 -0.050312 0
M  V30 20 C 1.72688 -3.61774 -0.188065 0
M  V30 21 H 1.83004 4.10684 0.485783 0
M  V30 22 H 2.68502 4.31378 -0.92815 0
M  V30 23 H 2.98375 2.11712 -0.808912 0
M  V30 24 H 1.33272 2.17656 -1.58381 0
M  V30 25 H 1.97397 2.0937 1.42024 0
M  V30 26 H 0.349892 2.26938 0.737509 0
M  V30 27 H 2.58465 -0.84763 1.61159 0
M  V30 28 H 3.37627 0.462232 0.662103 0
M  V30 29 H 2.8178 -0.883252 -1.4366 0
M  V30 30 H 3.71951 -1.83911 -0.199551 0
M  V30 31 H 0.610872 0.0167116 -1.42925 0
M  V30 32 H -1.3739 0.61166 -2.24302 0
M  V30 33 H -3.64979 1.46306 -2.01038 0
M  V30 34 H -3.34668 1.00253 2.22666 0
M  V30 35 H -1.04971 0.145232 1.93919 0
M  V30 36 H -5.15095 2.78574 0.00654097 0
M  V30 37 H -5.69871 1.10702 0.499072 0
M  V30 38 H -1.75765 -1.96766 -0.0798855 0
M  V30 39 H -1.52618 -4.46571 0.097536 0
M  V30 40 H 0.712149 -5.49359 0.0239676 0
M  V30 41 H 2.72127 -4.04268 -0.218048 0
M  V30 END ATOM
M  V30 BEGIN BOND
M  V30 1 1 1 2
M  V30 2 1 2 3
M  V30 3 1 3 4
M  V30 4 1 4 5
M  V30 5 1 5 6
M  V30 6 1 6 7
M  V30 7 2 7 8
M  V30 8 1 8 9
M  V30 9 1 9 10
M  V30 10 2 10 11
M  V30 11 1 11 12
M  V30 12 2 12 13
M  V30 13 1 13 14
M  V30 14 2 14 15
M  V30 15 1 13 16
M  V30 16 1 8 17
M  V30 17 2 17 18
M  V30 18 1 18 19
M  V30 19 2 19 20
M  V30 20 1 9 4
M  V30 21 1 15 10
M  V30 22 1 20 7
M  V30 23 1 1 21
M  V30 24 1 1 22
M  V30 25 1 2 23
M  V30 26 1 2 24
M  V30 27 1 3 25
M  V30 28 1 3 26
M  V30 29 1 5 27
M  V30 30 1 5 28
M  V30 31 1 6 29
M  V30 32 1 6 30
M  V30 33 1 9 31 CFG=3
M  V30 34 1 11 32
M  V30 35 1 12 33
M  V30 36 1 14 34
M  V30 37 1 15 35
M  V30 38 1 16 36
M  V30 39 1 16 37
M  V30 40 1 17 38
M  V30 41 1 18 39
M  V30 42 1 19 40
M  V30 43 1 20 41
M  V30 END BOND
M  V30 END CTAB
M  END
