
     RDKit          3D

  0  0  0  0  0  0  0  0  0  0999 V3000
M  V30 BEGIN CTAB
M  V30 COUNTS 40 43 0 0 0
M  V30 BEGIN ATOM
M  V30 1 N 4.07941 0.848415 1.83867 0
M  V30 2 C 4.72624 1.1837 0.627851 0
M  V30 3 N 5.88236 2.03674 0.676411 0
M  V30 4 N 4.36145 0.784091 -0.525108 0
M  V30 5 C 3.24781 -0.0613254 -0.778557 0
M  V30 6 O 3.48417 -1.26674 -1.01237 0
M  V30 7 C 1.875 0.419408 -0.774594 0
M  V30 8 C 0.695594 -0.257632 -1.02735 0
M  V30 9 C 0.642841 -1.67058 -1.39045 0
M  V30 10 C -0.527765 -2.51909 -1.47252 0
M  V30 11 C 0.471243 -2.67452 -0.295226 0
M  V30 12 N -0.265936 0.658535 -0.875471 0
M  V30 13 N 0.232669 1.85448 -0.546796 0
M  V30 14 C 1.56025 1.7277 -0.479158 0
M  V30 15 C -1.63881 0.455345 -1.03132 0
M  V30 16 C -2.43012 0.366761 0.112547 0
M  V30 17 C -1.85917 0.470457 1.38562 0
M  V30 18 C -2.61567 0.38688 2.53578 0
M  V30 19 C -3.97552 0.194834 2.40104 0
M  V30 20 C -4.5424 0.0921871 1.14948 0
M  V30 21 C -3.78902 0.175288 -0.00174911 0
M  V30 22 C -4.35372 0.073009 -1.25886 0
M  V30 23 C -3.55097 0.16367 -2.38412 0
M  V30 24 N -2.2362 0.349713 -2.22657 0
M  V30 25 H 3.66166 1.60081 2.41453 0
M  V30 26 H 4.0094 -0.129341 2.17092 0
M  V30 27 H 5.67766 3.04367 0.8901 0
M  V30 28 H 6.84419 1.6927 0.514595 0
M  V30 29 H 1.45973 -1.95185 -2.12951 0
M  V30 30 H -0.507989 -3.39626 -2.19103 0
M  V30 31 H -1.53143 -2.36189 -1.10317 0
M  V30 32 H 0.155738 -2.38047 0.705298 0
M  V30 33 H 1.08145 -3.61357 -0.297881 0
M  V30 34 H 2.24204 2.54149 -0.230386 0
M  V30 35 H -0.79814 0.620318 1.49836 0
M  V30 36 H -2.15086 0.470176 3.51821 0
M  V30 37 H -4.56191 0.130287 3.30292 0
M  V30 38 H -5.60659 -0.0578967 1.04268 0
M  V30 39 H -5.41921 -0.0777408 -1.38056 0
M  V30 40 H -4.02948 0.0782503 -3.37224 0
M  V30 END ATOM
M  V30 BEGIN BOND
M  V30 1 1 1 2
M  V30 2 1 2 3
M  V30 3 2 2 4
M  V30 4 1 4 5
M  V30 5 2 5 6
M  V30 6 1 5 7
M  V30 7 2 7 8
M  V30 8 1 8 9
M  V30 9 1 9 10
M  V30 10 1 10 11
M  V30 11 1 8 12
M  V30 12 1 12 13
M  V30 13 2 13 14
M  V30 14 1 12 15
M  V30 15 1 15 16
M  V30 16 2 16 17
M  V30 17 1 17 18
M  V30 18 2 18 19
M  V30 19 1 19 20
M  V30 20 2 20 21
M  V30 21 1 21 22
M  V30 22 2 22 23
M  V30 23 1 23 24
M  V30 24 1 14 7
M  V30 25 2 24 15
M  V30 26 1 11 9
M  V30 27 1 21 16
M  V30 28 1 1 25
M  V30 29 1 1 26
M  V30 30 1 3 27
M  V30 31 1 3 28
M  V30 32 1 9 29
M  V30 33 1 10 30
M  V30 34 1 10 31
M  V30 35 1 11 32
M  V30 36 1 11 33
M  V30 37 1 14 34
M  V30 38 1 17 35
M  V30 39 1 18 36
M  V30 40 1 19 37
M  V30 41 1 20 38
M  V30 42 1 22 39
M  V30 43 1 23 40
M  V30 END BOND
M  V30 END CTAB
M  END
