
     RDKit          3D

  0  0  0  0  0  0  0  0  0  0999 V3000
M  V30 BEGIN CTAB
M  V30 COUNTS 29 29 0 0 0
M  V30 BEGIN ATOM
M  V30 1 C 4.39504 -0.954131 0.788709 0
M  V30 2 C 4.00581 0.50245 0.910682 0
M  V30 3 O 2.96857 0.858176 0.0476058 0
M  V30 4 C 1.69113 0.324288 0.0619716 0
M  V30 5 O 1.40195 -0.545926 0.902253 0
M  V30 6 C 0.745304 0.851887 -0.957027 0
M  V30 7 C -0.589376 0.264935 -0.863077 0
M  V30 8 C -1.03725 -0.701733 -1.7323 0
M  V30 9 C -2.31622 -1.24273 -1.60889 0
M  V30 10 C -3.15711 -0.814007 -0.606909 0
M  V30 11 C -2.72364 0.159118 0.278383 0
M  V30 12 C -1.44642 0.676277 0.127843 0
M  V30 13 N -1.02687 1.6862 1.06355 0
M  V30 14 C -3.56274 0.639287 1.34084 0
M  V30 15 N -4.23549 1.03986 2.20884 0
M  V30 16 N -4.45452 -1.31997 -0.430732 0
M  V30 17 H 5.22604 -1.13277 1.51524 0
M  V30 18 H 4.77838 -1.12751 -0.232595 0
M  V30 19 H 3.5823 -1.65037 0.996855 0
M  V30 20 H 3.75367 0.762804 1.96462 0
M  V30 21 H 4.90843 1.10155 0.67132 0
M  V30 22 H 0.704489 1.9514 -0.812048 0
M  V30 23 H 1.14092 0.702492 -1.99257 0
M  V30 24 H -0.432361 -1.08622 -2.54238 0
M  V30 25 H -2.68868 -2.00239 -2.27872 0
M  V30 26 H -1.18873 1.53047 2.0809 0
M  V30 27 H -0.572145 2.54481 0.683538 0
M  V30 28 H -4.743 -1.67037 0.501023 0
M  V30 29 H -5.12748 -1.34788 -1.21925 0
M  V30 END ATOM
M  V30 BEGIN BOND
M  V30 1 1 1 2
M  V30 2 1 2 3
M  V30 3 1 3 4
M  V30 4 2 4 5
M  V30 5 1 4 6
M  V30 6 1 6 7
M  V30 7 2 7 8
M  V30 8 1 8 9
M  V30 9 2 9 10
M  V30 10 1 10 11
M  V30 11 2 11 12
M  V30 12 1 12 13
M  V30 13 1 11 14
M  V30 14 3 14 15
M  V30 15 1 10 16
M  V30 16 1 12 7
M  V30 17 1 1 17
M  V30 18 1 1 18
M  V30 19 1 1 19
M  V30 20 1 2 20
M  V30 21 1 2 21
M  V30 22 1 6 22
M  V30 23 1 6 23
M  V30 24 1 8 24
M  V30 25 1 9 25
M  V30 26 1 13 26
M  V30 27 1 13 27
M  V30 28 1 16 28
M  V30 29 1 16 29
M  V30 END BOND
M  V30 END CTAB
M  END
