
     RDKit          3D

  0  0  0  0  0  0  0  0  0  0999 V3000
M  V30 BEGIN CTAB
M  V30 COUNTS 24 24 0 0 0
M  V30 BEGIN ATOM
M  V30 1 N 2.78039 -0.516525 0.616808 0
M  V30 2 C 1.36686 -0.530707 0.839133 0
M  V30 3 C 0.644193 0.0640556 -0.377723 0
M  V30 4 C -0.793219 0.000679033 -0.0526419 0
M  V30 5 C -1.40455 1.07018 0.554454 0
M  V30 6 C -2.76789 0.907114 0.821931 0
M  V30 7 N -3.43504 -0.21934 0.507046 0
M  V30 8 C -2.83202 -1.26637 -0.0877666 0
M  V30 9 C -1.48819 -1.14168 -0.367255 0
M  V30 10 N 0.911408 -0.802022 -1.50511 0
M  V30 11 C 1.08398 1.47276 -0.596881 0
M  V30 12 H 3.24945 -1.44563 0.821524 0
M  V30 13 H 3.23442 0.169509 1.25751 0
M  V30 14 H 0.965501 -1.55259 1.04829 0
M  V30 15 H 1.05276 0.117152 1.70623 0
M  V30 16 H -0.911161 1.99067 0.823267 0
M  V30 17 H -3.27844 1.72318 1.29477 0
M  V30 18 H -3.32704 -2.18471 -0.355441 0
M  V30 19 H -0.969115 -1.96807 -0.846791 0
M  V30 20 H 0.335195 -0.570473 -2.33585 0
M  V30 21 H 1.90977 -0.80482 -1.78213 0
M  V30 22 H 0.269923 2.17125 -0.821542 0
M  V30 23 H 1.60617 1.84446 0.300137 0
M  V30 24 H 1.79665 1.47193 -1.46197 0
M  V30 END ATOM
M  V30 BEGIN BOND
M  V30 1 1 1 2
M  V30 2 1 2 3
M  V30 3 1 3 4
M  V30 4 2 4 5
M  V30 5 1 5 6
M  V30 6 2 6 7
M  V30 7 1 7 8
M  V30 8 2 8 9
M  V30 9 1 3 10
M  V30 10 1 3 11
M  V30 11 1 9 4
M  V30 12 1 1 12
M  V30 13 1 1 13
M  V30 14 1 2 14
M  V30 15 1 2 15
M  V30 16 1 5 16
M  V30 17 1 6 17
M  V30 18 1 8 18
M  V30 19 1 9 19
M  V30 20 1 10 20
M  V30 21 1 10 21
M  V30 22 1 11 22
M  V30 23 1 11 23
M  V30 24 1 11 24
M  V30 END BOND
M  V30 END CTAB
M  END
