
     RDKit          3D

  0  0  0  0  0  0  0  0  0  0999 V3000
M  V30 BEGIN CTAB
M  V30 COUNTS 38 39 0 0 0
M  V30 BEGIN ATOM
M  V30 1 O 1.04324 -1.06002 0.386903 0
M  V30 2 C 0.515756 0.0845155 0.633796 0
M  V30 3 C -0.512626 0.16681 1.73705 0
M  V30 4 C -1.79205 -0.254466 1.13796 0
M  V30 5 C -2.14223 -1.56015 1.04886 0
M  V30 6 C -3.35147 -1.87806 0.442422 0
M  V30 7 C -4.15442 -0.883142 -0.044622 0
M  V30 8 C -3.82012 0.454763 0.0352411 0
M  V30 9 C -2.60597 0.72929 0.646467 0
M  V30 10 C -4.70105 1.5055 -0.498284 0
M  V30 11 C -5.43684 -1.23535 -0.71082 0
M  V30 12 O 0.930685 1.13222 -0.125023 0
M  V30 13 C 1.88073 0.999197 -1.13401 0
M  V30 14 C 3.16923 0.563994 -0.537808 0
M  V30 15 N 3.76616 -0.615545 -0.81059 0
M  V30 16 C 4.94584 -0.905946 -0.240046 0
M  V30 17 N 5.56657 -2.14219 -0.531183 0
M  V30 18 N 5.54503 -0.0375817 0.602727 0
M  V30 19 C 4.97287 1.16491 0.904903 0
M  V30 20 N 3.79575 1.41969 0.319372 0
M  V30 21 N 5.62259 2.06239 1.77955 0
M  V30 22 H -0.600775 1.17797 2.11691 0
M  V30 23 H -0.223625 -0.573467 2.54636 0
M  V30 24 H -1.51488 -2.38061 1.429 0
M  V30 25 H -3.60876 -2.90782 0.377493 0
M  V30 26 H -2.34659 1.78852 0.704548 0
M  V30 27 H -4.09165 2.44733 -0.526894 0
M  V30 28 H -5.06457 1.30854 -1.52033 0
M  V30 29 H -5.52855 1.73191 0.22653 0
M  V30 30 H -5.95271 -1.97638 -0.0691157 0
M  V30 31 H -5.14521 -1.74783 -1.65197 0
M  V30 32 H -6.10808 -0.387851 -0.868657 0
M  V30 33 H 1.58258 0.264842 -1.91741 0
M  V30 34 H 2.04797 2.01068 -1.56784 0
M  V30 35 H 5.1006 -3.04062 -0.278693 0
M  V30 36 H 6.4959 -2.20244 -0.998987 0
M  V30 37 H 6.51129 2.49645 1.48779 0
M  V30 38 H 5.20935 2.27992 2.69681 0
M  V30 END ATOM
M  V30 BEGIN BOND
M  V30 1 2 1 2
M  V30 2 1 2 3
M  V30 3 1 3 4
M  V30 4 2 4 5
M  V30 5 1 5 6
M  V30 6 2 6 7
M  V30 7 1 7 8
M  V30 8 2 8 9
M  V30 9 1 8 10
M  V30 10 1 7 11
M  V30 11 1 2 12
M  V30 12 1 12 13
M  V30 13 1 13 14
M  V30 14 2 14 15
M  V30 15 1 15 16
M  V30 16 1 16 17
M  V30 17 2 16 18
M  V30 18 1 18 19
M  V30 19 2 19 20
M  V30 20 1 19 21
M  V30 21 1 9 4
M  V30 22 1 20 14
M  V30 23 1 3 22
M  V30 24 1 3 23
M  V30 25 1 5 24
M  V30 26 1 6 25
M  V30 27 1 9 26
M  V30 28 1 10 27
M  V30 29 1 10 28
M  V30 30 1 10 29
M  V30 31 1 11 30
M  V30 32 1 11 31
M  V30 33 1 11 32
M  V30 34 1 13 33
M  V30 35 1 13 34
M  V30 36 1 17 35
M  V30 37 1 17 36
M  V30 38 1 21 37
M  V30 39 1 21 38
M  V30 END BOND
M  V30 END CTAB
M  END
