
     RDKit          3D

  0  0  0  0  0  0  0  0  0  0999 V3000
M  V30 BEGIN CTAB
M  V30 COUNTS 20 20 0 0 0
M  V30 BEGIN ATOM
M  V30 1 C 4.29733 -0.0190793 0.329866 0
M  V30 2 C 3.10651 -0.102075 0.525551 0
M  V30 3 C 1.66159 -0.193769 0.74442 0
M  V30 4 C 0.916516 0.0570597 -0.57383 0
M  V30 5 C -0.543151 -0.0283868 -0.387228 0
M  V30 6 N -1.33596 -1.11192 -0.292275 0
M  V30 7 N -2.59721 -0.743865 -0.128298 0
M  V30 8 C -2.65579 0.584316 -0.112582 0
M  V30 9 N -1.39445 1.02395 -0.271582 0
M  V30 10 N -3.78903 1.44582 0.0380414 0
M  V30 11 N 1.40654 -0.844797 -1.58887 0
M  V30 12 H 5.35003 0.0643206 0.140737 0
M  V30 13 H 1.41878 -1.23447 1.05435 0
M  V30 14 H 1.31377 0.475157 1.52931 0
M  V30 15 H 1.21143 1.07994 -0.88527 0
M  V30 16 H -3.4422 -1.38073 -0.0239075 0
M  V30 17 H -3.7447 2.43431 -0.293244 0
M  V30 18 H -4.67371 1.12805 0.470862 0
M  V30 19 H 2.44348 -0.817213 -1.5679 0
M  V30 20 H 1.05021 -1.81663 -1.4838 0
M  V30 END ATOM
M  V30 BEGIN BOND
M  V30 1 3 1 2
M  V30 2 1 2 3
M  V30 3 1 3 4
M  V30 4 1 4 5
M  V30 5 2 5 6
M  V30 6 1 6 7
M  V30 7 1 7 8
M  V30 8 2 8 9
M  V30 9 1 8 10
M  V30 10 1 4 11
M  V30 11 1 9 5
M  V30 12 1 1 12
M  V30 13 1 3 13
M  V30 14 1 3 14
M  V30 15 1 4 15
M  V30 16 1 7 16
M  V30 17 1 10 17
M  V30 18 1 10 18
M  V30 19 1 11 19
M  V30 20 1 11 20
M  V30 END BOND
M  V30 END CTAB
M  END
