
     RDKit          3D

  0  0  0  0  0  0  0  0  0  0999 V3000
M  V30 BEGIN CTAB
M  V30 COUNTS 27 27 0 0 0
M  V30 BEGIN ATOM
M  V30 1 C 2.158 0.910389 0.722047 0
M  V30 2 N 1.86344 -0.505597 0.688306 0
M  V30 3 S 0.718241 -0.8681 -0.543283 0
M  V30 4 O 1.28519 -0.409674 -1.86484 0
M  V30 5 O 0.49709 -2.37288 -0.59224 0
M  V30 6 C -0.805568 -0.0932617 -0.322697 0
M  V30 7 C -1.74054 -0.791606 0.459828 0
M  V30 8 N -1.42556 -2.06084 1.03002 0
M  V30 9 C -2.97297 -0.272891 0.693647 0
M  V30 10 C -3.30306 0.952289 0.154244 0
M  V30 11 C -2.37605 1.62804 -0.612521 0
M  V30 12 C -1.11545 1.12593 -0.867599 0
M  V30 13 N -0.151032 1.7929 -1.65243 0
M  V30 14 C 3.10086 -1.19575 0.376398 0
M  V30 15 H 2.59412 1.26973 -0.245561 0
M  V30 16 H 2.93466 1.07235 1.50492 0
M  V30 17 H 1.28638 1.51717 1.0234 0
M  V30 18 H -1.71491 -2.92985 0.572109 0
M  V30 19 H -0.88198 -2.01355 1.9416 0
M  V30 20 H -3.72562 -0.786024 1.29641 0
M  V30 21 H -4.29562 1.38689 0.333328 0
M  V30 22 H -2.6599 2.60563 -1.03426 0
M  V30 23 H 0.0911518 1.56915 -2.64234 0
M  V30 24 H 0.368872 2.58249 -1.21923 0
M  V30 25 H 3.69015 -1.42758 1.28734 0
M  V30 26 H 3.75847 -0.576716 -0.298861 0
M  V30 27 H 2.82163 -2.10862 -0.187737 0
M  V30 END ATOM
M  V30 BEGIN BOND
M  V30 1 1 1 2
M  V30 2 1 2 3
M  V30 3 2 3 4
M  V30 4 2 3 5
M  V30 5 1 3 6
M  V30 6 2 6 7
M  V30 7 1 7 8
M  V30 8 1 7 9
M  V30 9 2 9 10
M  V30 10 1 10 11
M  V30 11 2 11 12
M  V30 12 1 12 13
M  V30 13 1 2 14
M  V30 14 1 12 6
M  V30 15 1 1 15
M  V30 16 1 1 16
M  V30 17 1 1 17
M  V30 18 1 8 18
M  V30 19 1 8 19
M  V30 20 1 9 20
M  V30 21 1 10 21
M  V30 22 1 11 22
M  V30 23 1 13 23
M  V30 24 1 13 24
M  V30 25 1 14 25
M  V30 26 1 14 26
M  V30 27 1 14 27
M  V30 END BOND
M  V30 END CTAB
M  END
