
     RDKit          3D

  0  0  0  0  0  0  0  0  0  0999 V3000
M  V30 BEGIN CTAB
M  V30 COUNTS 28 28 0 0 0
M  V30 BEGIN ATOM
M  V30 1 C -4.47335 0.351035 -0.591735 0
M  V30 2 S -4.14572 -0.542045 0.899556 0
M  V30 3 O -5.32891 -0.652014 1.82303 0
M  V30 4 C -2.65845 0.0121023 1.73447 0
M  V30 5 C -1.50022 -0.189916 0.780147 0
M  V30 6 N -0.246849 0.231578 1.36807 0
M  V30 7 C 0.978948 0.13439 0.652958 0
M  V30 8 C 2.14237 0.552851 1.26753 0
M  V30 9 C 3.32501 0.457372 0.573279 0
M  V30 10 C 3.35284 -0.0439731 -0.706959 0
M  V30 11 C 2.16094 -0.458061 -1.29955 0
M  V30 12 N 1.027 -0.349221 -0.590087 0
M  V30 13 N 2.18272 -0.979698 -2.6289 0
M  V30 14 N 4.5576 -0.15749 -1.45546 0
M  V30 15 H -5.33363 1.01809 -0.5661 0
M  V30 16 H -3.56816 0.966159 -0.833181 0
M  V30 17 H -4.57145 -0.386166 -1.42548 0
M  V30 18 H -2.77196 1.09986 1.93738 0
M  V30 19 H -2.52329 -0.512175 2.68136 0
M  V30 20 H -1.70127 0.298669 -0.177556 0
M  V30 21 H -1.3894 -1.28487 0.571132 0
M  V30 22 H -0.271965 0.609009 2.33356 0
M  V30 23 H 2.09655 0.945751 2.27998 0
M  V30 24 H 4.22674 0.786102 1.0607 0
M  V30 25 H 2.57503 -1.92996 -2.75687 0
M  V30 26 H 1.8199 -0.413467 -3.39213 0
M  V30 27 H 5.44608 -0.534003 -1.06716 0
M  V30 28 H 4.59289 0.148868 -2.47199 0
M  V30 END ATOM
M  V30 BEGIN BOND
M  V30 1 1 1 2
M  V30 2 2 2 3
M  V30 3 1 2 4
M  V30 4 1 4 5
M  V30 5 1 5 6
M  V30 6 1 6 7
M  V30 7 2 7 8
M  V30 8 1 8 9
M  V30 9 2 9 10
M  V30 10 1 10 11
M  V30 11 2 11 12
M  V30 12 1 11 13
M  V30 13 1 10 14
M  V30 14 1 12 7
M  V30 15 1 1 15
M  V30 16 1 1 16
M  V30 17 1 1 17
M  V30 18 1 4 18
M  V30 19 1 4 19
M  V30 20 1 5 20
M  V30 21 1 5 21
M  V30 22 1 6 22
M  V30 23 1 8 23
M  V30 24 1 9 24
M  V30 25 1 13 25
M  V30 26 1 13 26
M  V30 27 1 14 27
M  V30 28 1 14 28
M  V30 END BOND
M  V30 END CTAB
M  END
