
     RDKit          3D

  0  0  0  0  0  0  0  0  0  0999 V3000
M  V30 BEGIN CTAB
M  V30 COUNTS 44 47 0 0 0
M  V30 BEGIN ATOM
M  V30 1 N -5.45863 -1.76875 -1.37104 0
M  V30 2 C -4.58531 -2.80364 -0.909682 0
M  V30 3 C -4.00522 -2.51721 0.454963 0
M  V30 4 N -3.22811 -1.29591 0.483516 0
M  V30 5 N -1.94076 -1.23023 0.236001 0
M  V30 6 C -1.48051 0.0578841 0.338501 0
M  V30 7 C -2.55665 0.831516 0.668205 0
M  V30 8 C -2.74577 2.16922 0.891367 0
M  V30 9 N -1.69024 3.10778 0.782544 0
M  V30 10 N -3.99851 2.61083 1.19709 0
M  V30 11 C -5.01182 1.73487 1.2714 0
M  V30 12 N -4.83304 0.427831 1.05237 0
M  V30 13 C -3.63106 -0.0524804 0.750734 0
M  V30 14 C -0.0931162 0.44944 0.0934892 0
M  V30 15 C 0.701793 1.11174 0.987185 0
M  V30 16 C 1.98084 1.45936 0.658698 0
M  V30 17 C 2.50243 1.15224 -0.577002 0
M  V30 18 O 3.79447 1.50486 -0.905251 0
M  V30 19 C 4.87049 0.649062 -0.654316 0
M  V30 20 C 6.14798 1.00017 -0.979968 0
M  V30 21 C 7.18679 0.137041 -0.720868 0
M  V30 22 C 6.95371 -1.0734 -0.138575 0
M  V30 23 C 5.66285 -1.44181 0.196697 0
M  V30 24 C 4.6253 -0.573968 -0.064714 0
M  V30 25 C 1.72089 0.490564 -1.47898 0
M  V30 26 C 0.44457 0.144799 -1.1497 0
M  V30 27 H -5.53012 -1.68093 -2.38787 0
M  V30 28 H -6.3349 -1.67305 -0.844581 0
M  V30 29 H -3.81156 -3.00591 -1.66619 0
M  V30 30 H -5.18108 -3.73511 -0.811114 0
M  V30 31 H -4.80163 -2.45514 1.19598 0
M  V30 32 H -3.3358 -3.35304 0.74097 0
M  V30 33 H -1.30177 3.30206 -0.164982 0
M  V30 34 H -1.27093 3.62127 1.58385 0
M  V30 35 H -6.00019 2.10206 1.51599 0
M  V30 36 H 0.348683 1.35595 1.96893 0
M  V30 37 H 2.58668 1.98566 1.39073 0
M  V30 38 H 6.29126 1.97409 -1.44275 0
M  V30 39 H 8.20845 0.412167 -0.978722 0
M  V30 40 H 7.77708 -1.75747 0.0667524 0
M  V30 41 H 5.46448 -2.38831 0.654112 0
M  V30 42 H 3.59669 -0.859446 0.198755 0
M  V30 43 H 2.13569 0.24999 -2.4517 0
M  V30 44 H -0.174414 -0.376661 -1.85758 0
M  V30 END ATOM
M  V30 BEGIN BOND
M  V30 1 1 1 2
M  V30 2 1 2 3
M  V30 3 1 3 4
M  V30 4 1 4 5
M  V30 5 2 5 6
M  V30 6 1 6 7
M  V30 7 2 7 8
M  V30 8 1 8 9
M  V30 9 1 8 10
M  V30 10 2 10 11
M  V30 11 1 11 12
M  V30 12 2 12 13
M  V30 13 1 6 14
M  V30 14 2 14 15
M  V30 15 1 15 16
M  V30 16 2 16 17
M  V30 17 1 17 18
M  V30 18 1 18 19
M  V30 19 2 19 20
M  V30 20 1 20 21
M  V30 21 2 21 22
M  V30 22 1 22 23
M  V30 23 2 23 24
M  V30 24 1 17 25
M  V30 25 2 25 26
M  V30 26 1 13 4
M  V30 27 1 26 14
M  V30 28 1 13 7
M  V30 29 1 24 19
M  V30 30 1 1 27
M  V30 31 1 1 28
M  V30 32 1 2 29
M  V30 33 1 2 30
M  V30 34 1 3 31
M  V30 35 1 3 32
M  V30 36 1 9 33
M  V30 37 1 9 34
M  V30 38 1 11 35
M  V30 39 1 15 36
M  V30 40 1 16 37
M  V30 41 1 20 38
M  V30 42 1 21 39
M  V30 43 1 22 40
M  V30 44 1 23 41
M  V30 45 1 24 42
M  V30 46 1 25 43
M  V30 47 1 26 44
M  V30 END BOND
M  V30 END CTAB
M  END
