
     RDKit          3D

  0  0  0  0  0  0  0  0  0  0999 V3000
M  V30 BEGIN CTAB
M  V30 COUNTS 17 17 0 0 0
M  V30 BEGIN ATOM
M  V30 1 N -2.20557 1.83587 -0.0104684 0
M  V30 2 C -1.38098 0.679646 -0.0616738 0
M  V30 3 C -1.91821 -0.585907 -0.000366709 0
M  V30 4 C -1.09715 -1.69355 -0.051921 0
M  V30 5 C 0.271098 -1.54387 -0.165484 0
M  V30 6 C 0.781426 -0.27087 -0.224708 0
M  V30 7 N -0.0429377 0.789865 -0.172229 0
M  V30 8 C 2.20295 0.00482275 -0.344399 0
M  V30 9 S 2.97903 -0.502841 -1.68021 0
M  V30 10 N 2.85132 0.701581 0.703251 0
M  V30 11 H -1.90293 2.75757 0.315583 0
M  V30 12 H -3.19185 1.71796 -0.333718 0
M  V30 13 H -2.99208 -0.706734 0.0888215 0
M  V30 14 H -1.47039 -2.71002 -0.00744664 0
M  V30 15 H 0.936344 -2.39277 -0.207921 0
M  V30 16 H 3.46194 1.51344 0.472783 0
M  V30 17 H 2.71798 0.40582 1.6801 0
M  V30 END ATOM
M  V30 BEGIN BOND
M  V30 1 1 1 2
M  V30 2 2 2 3
M  V30 3 1 3 4
M  V30 4 2 4 5
M  V30 5 1 5 6
M  V30 6 2 6 7
M  V30 7 1 6 8
M  V30 8 2 8 9
M  V30 9 1 8 10
M  V30 10 1 7 2
M  V30 11 1 1 11
M  V30 12 1 1 12
M  V30 13 1 3 13
M  V30 14 1 4 14
M  V30 15 1 5 15
M  V30 16 1 10 16
M  V30 17 1 10 17
M  V30 END BOND
M  V30 END CTAB
M  END
