
     RDKit          3D

  0  0  0  0  0  0  0  0  0  0999 V3000
M  V30 BEGIN CTAB
M  V30 COUNTS 21 21 0 0 0
M  V30 BEGIN ATOM
M  V30 1 F 2.83865 -1.84666 -0.00547762 0
M  V30 2 C 2.88315 -0.495293 -0.289822 0
M  V30 3 C 3.02252 0.337926 0.977159 0
M  V30 4 F 3.05707 1.66265 0.586433 0
M  V30 5 F 4.22179 -0.00584145 1.60644 0
M  V30 6 F 1.97093 0.170887 1.83619 0
M  V30 7 O 1.8441 -0.0512825 -1.0996 0
M  V30 8 C 0.4987 -0.120466 -0.821731 0
M  V30 9 C -0.186958 -1.24889 -1.22281 0
M  V30 10 N -1.52344 -1.38281 -0.979186 0
M  V30 11 C -2.18879 -0.412004 -0.342885 0
M  V30 12 C -1.51587 0.732117 0.0689381 0
M  V30 13 N -0.202612 0.832056 -0.186162 0
M  V30 14 N -2.25419 1.74441 0.742775 0
M  V30 15 N -3.58104 -0.551996 -0.0893283 0
M  V30 16 F 4.07285 -0.28261 -1.00138 0
M  V30 17 H 0.273125 -2.0776 -1.74095 0
M  V30 18 H -2.26968 2.68792 0.305193 0
M  V30 19 H -2.75473 1.57423 1.61909 0
M  V30 20 H -4.2935 0.16981 -0.312427 0
M  V30 21 H -3.91208 -1.43656 0.349526 0
M  V30 END ATOM
M  V30 BEGIN BOND
M  V30 1 1 1 2
M  V30 2 1 2 3
M  V30 3 1 3 4
M  V30 4 1 3 5
M  V30 5 1 3 6
M  V30 6 1 2 7
M  V30 7 1 7 8
M  V30 8 2 8 9
M  V30 9 1 9 10
M  V30 10 2 10 11
M  V30 11 1 11 12
M  V30 12 2 12 13
M  V30 13 1 12 14
M  V30 14 1 11 15
M  V30 15 1 2 16
M  V30 16 1 13 8
M  V30 17 1 9 17
M  V30 18 1 14 18
M  V30 19 1 14 19
M  V30 20 1 15 20
M  V30 21 1 15 21
M  V30 END BOND
M  V30 END CTAB
M  END
