
     RDKit          3D

  0  0  0  0  0  0  0  0  0  0999 V3000
M  V30 BEGIN CTAB
M  V30 COUNTS 83 87 0 0 0
M  V30 BEGIN ATOM
M  V30 1 N 10.3135 0.465971 -2.16081 0
M  V30 2 C 10.0333 0.934813 -0.862816 0
M  V30 3 N 10.9652 1.44059 -0.12433 0
M  V30 4 N 8.71178 0.857453 -0.343658 0
M  V30 5 C 8.25468 -0.221579 0.239857 0
M  V30 6 N 6.92969 -0.274695 0.750931 0
M  V30 7 C 5.95212 0.726047 0.469223 0
M  V30 8 C 4.54776 0.25525 0.342299 0
M  V30 9 N 4.23576 -1.00194 0.926018 0
M  V30 10 C 5.28426 -1.96348 0.984485 0
M  V30 11 C 6.56044 -1.39449 1.59396 0
M  V30 12 C 3.44275 -0.923342 2.13309 0
M  V30 13 N 2.18232 -0.243913 1.74818 0
M  V30 14 C 1.35753 -0.788272 0.784412 0
M  V30 15 O 1.81139 -1.91479 0.288616 0
M  V30 16 C 0.10846 -0.313642 0.259748 0
M  V30 17 C -0.465636 0.796846 0.661973 0
M  V30 18 O 0.14248 1.56937 1.64049 0
M  V30 19 C -1.77548 1.3062 0.121502 0 CFG=1
M  V30 20 N -1.74299 2.7259 -0.112738 0
M  V30 21 C -1.53725 3.5366 1.04033 0
M  V30 22 C -1.001 3.11937 -1.26968 0
M  V30 23 C -2.17893 0.634991 -1.14026 0 CFG=1
M  V30 24 C -1.94684 -0.854583 -1.12783 0 CFG=2
M  V30 25 C -0.556895 -1.13354 -0.799839 0
M  V30 26 O 0.112117 -2.02814 -1.36256 0
M  V30 27 O -2.15426 -1.30688 -2.4464 0
M  V30 28 C -2.9362 -1.41579 -0.176916 0
M  V30 29 C -4.21331 -1.06399 -0.311331 0
M  V30 30 C -4.58615 -0.140088 -1.38969 0 CFG=2
M  V30 31 C -3.57517 1.00879 -1.47967 0
M  V30 32 C -5.96915 0.366811 -1.32163 0 CFG=2
M  V30 33 C -6.58424 0.267517 -2.73321 0
M  V30 34 O -5.93589 1.76987 -1.08544 0
M  V30 35 C -6.94577 -0.238976 -0.424372 0
M  V30 36 C -6.61534 -1.16879 0.511388 0
M  V30 37 C -5.23592 -1.61057 0.598173 0
M  V30 38 O -4.8959 -2.46659 1.45201 0
M  V30 39 C -7.59871 -1.67669 1.33514 0
M  V30 40 O -7.29024 -2.63025 2.30422 0
M  V30 41 C -8.90603 -1.25302 1.21856 0
M  V30 42 C -9.2171 -0.300674 0.251627 0
M  V30 43 C -8.26133 0.212848 -0.570399 0
M  V30 44 O -2.63296 -2.28203 0.845292 0
M  V30 45 N 9.15415 -1.30946 0.324475 0
M  V30 46 H 10.3324 -0.545715 -2.3602 0
M  V30 47 H 10.4996 1.14716 -2.9108 0
M  V30 48 H 10.8033 1.79655 0.834285 0
M  V30 49 H 6.24131 1.21423 -0.508823 0
M  V30 50 H 6.08254 1.53799 1.22038 0
M  V30 51 H 4.18195 0.335064 -0.724473 0
M  V30 52 H 3.90925 1.01973 0.880156 0
M  V30 53 H 4.96299 -2.77089 1.69584 0
M  V30 54 H 5.528 -2.3441 -0.010667 0
M  V30 55 H 6.39682 -0.997674 2.60541 0
M  V30 56 H 7.31323 -2.20733 1.55777 0
M  V30 57 H 4.01338 -0.314055 2.8517 0
M  V30 58 H 3.23617 -1.92284 2.51246 0
M  V30 59 H 2.00751 0.624471 2.25259 0
M  V30 60 H -0.16451 1.59787 2.60784 0
M  V30 61 H -2.50175 1.13974 0.955509 0
M  V30 62 H -1.98223 3.04185 1.92231 0
M  V30 63 H -0.512418 3.89945 1.18675 0
M  V30 64 H -2.15829 4.46983 0.894534 0
M  V30 65 H -1.7147 3.06676 -2.14211 0
M  V30 66 H -0.0890076 2.54542 -1.44554 0
M  V30 67 H -0.77402 4.20665 -1.16327 0
M  V30 68 H -1.5187 1.04469 -1.95989 0
M  V30 69 H -1.82959 -2.22363 -2.58288 0
M  V30 70 H -4.51608 -0.72809 -2.37224 0
M  V30 71 H -3.95499 1.8364 -0.810543 0
M  V30 72 H -3.6795 1.40504 -2.5142 0
M  V30 73 H -7.5837 -0.203084 -2.71632 0
M  V30 74 H -6.65859 1.23015 -3.23032 0
M  V30 75 H -5.95119 -0.421404 -3.36548 0
M  V30 76 H -6.10548 1.85688 -0.104302 0
M  V30 77 H -7.98516 -3.00743 2.90628 0
M  V30 78 H -9.71214 -1.60085 1.81865 0
M  V30 79 H -10.2427 0.0578742 0.130278 0
M  V30 80 H -8.50822 0.944832 -1.31037 0
M  V30 81 H -1.66707 -2.41507 1.1095 0
M  V30 82 H 9.09878 -2.07485 -0.362067 0
M  V30 83 H 9.86174 -1.33648 1.0698 0
M  V30 END ATOM
M  V30 BEGIN BOND
M  V30 1 1 1 2
M  V30 2 2 2 3
M  V30 3 1 2 4
M  V30 4 2 4 5
M  V30 5 1 5 6
M  V30 6 1 6 7
M  V30 7 1 7 8
M  V30 8 1 8 9
M  V30 9 1 9 10
M  V30 10 1 10 11
M  V30 11 1 9 12
M  V30 12 1 12 13
M  V30 13 1 13 14
M  V30 14 2 14 15
M  V30 15 1 14 16
M  V30 16 2 16 17
M  V30 17 1 17 18
M  V30 18 1 17 19
M  V30 19 1 19 20
M  V30 20 1 20 21
M  V30 21 1 20 22
M  V30 22 1 19 23
M  V30 23 1 23 24
M  V30 24 1 24 25
M  V30 25 2 25 26
M  V30 26 1 24 27 CFG=3
M  V30 27 1 24 28
M  V30 28 2 28 29
M  V30 29 1 29 30
M  V30 30 1 30 31
M  V30 31 1 30 32
M  V30 32 1 32 33
M  V30 33 1 32 34 CFG=1
M  V30 34 1 32 35
M  V30 35 2 35 36
M  V30 36 1 36 37
M  V30 37 2 37 38
M  V30 38 1 36 39
M  V30 39 1 39 40
M  V30 40 2 39 41
M  V30 41 1 41 42
M  V30 42 2 42 43
M  V30 43 1 28 44
M  V30 44 1 5 45
M  V30 45 1 11 6
M  V30 46 1 25 16
M  V30 47 1 37 29
M  V30 48 1 31 23
M  V30 49 1 43 35
M  V30 50 1 1 46
M  V30 51 1 1 47
M  V30 52 1 3 48
M  V30 53 1 7 49
M  V30 54 1 7 50
M  V30 55 1 8 51
M  V30 56 1 8 52
M  V30 57 1 10 53
M  V30 58 1 10 54
M  V30 59 1 11 55
M  V30 60 1 11 56
M  V30 61 1 12 57
M  V30 62 1 12 58
M  V30 63 1 13 59
M  V30 64 1 18 60
M  V30 65 1 19 61 CFG=1
M  V30 66 1 21 62
M  V30 67 1 21 63
M  V30 68 1 21 64
M  V30 69 1 22 65
M  V30 70 1 22 66
M  V30 71 1 22 67
M  V30 72 1 23 68 CFG=3
M  V30 73 1 27 69
M  V30 74 1 30 70 CFG=3
M  V30 75 1 31 71
M  V30 76 1 31 72
M  V30 77 1 33 73
M  V30 78 1 33 74
M  V30 79 1 33 75
M  V30 80 1 34 76
M  V30 81 1 40 77
M  V30 82 1 41 78
M  V30 83 1 42 79
M  V30 84 1 43 80
M  V30 85 1 44 81
M  V30 86 1 45 82
M  V30 87 1 45 83
M  V30 END BOND
M  V30 END CTAB
M  END
