
     RDKit          3D

  0  0  0  0  0  0  0  0  0  0999 V3000
M  V30 BEGIN CTAB
M  V30 COUNTS 26 26 0 0 0
M  V30 BEGIN ATOM
M  V30 1 C 4.14741 -0.0531554 -0.248117 0
M  V30 2 C 3.38352 -1.04918 0.595298 0
M  V30 3 O 1.975 -0.962003 0.364616 0
M  V30 4 C 1.27774 0.210847 0.604971 0
M  V30 5 O 1.93713 1.18762 1.03232 0
M  V30 6 C -0.155202 0.264742 0.359371 0
M  V30 7 C -0.810112 1.45064 0.611499 0
M  V30 8 C -2.18928 1.54618 0.388754 0
M  V30 9 O -2.86205 2.71431 0.63203 0
M  V30 10 C -2.9161 0.459588 -0.0854066 0
M  V30 11 C -2.23301 -0.717308 -0.329545 0
M  V30 12 C -0.868588 -0.815209 -0.110241 0
M  V30 13 N -0.220574 -2.03042 -0.372809 0
M  V30 14 N -4.31256 0.537462 -0.316897 0
M  V30 15 H 4.52407 0.80739 0.341349 0
M  V30 16 H 3.4972 0.265395 -1.09357 0
M  V30 17 H 5.06246 -0.553403 -0.661166 0
M  V30 18 H 3.60224 -0.799775 1.65424 0
M  V30 19 H 3.69387 -2.07264 0.317328 0
M  V30 20 H -0.288984 2.33151 0.983405 0
M  V30 21 H -3.84345 2.80462 0.480533 0
M  V30 22 H -2.80154 -1.57647 -0.703332 0
M  V30 23 H -0.406552 -2.87345 0.244909 0
M  V30 24 H 0.450573 -2.17873 -1.15003 0
M  V30 25 H -4.70815 0.00796449 -1.11616 0
M  V30 26 H -4.93506 1.09348 0.273346 0
M  V30 END ATOM
M  V30 BEGIN BOND
M  V30 1 1 1 2
M  V30 2 1 2 3
M  V30 3 1 3 4
M  V30 4 2 4 5
M  V30 5 1 4 6
M  V30 6 2 6 7
M  V30 7 1 7 8
M  V30 8 1 8 9
M  V30 9 2 8 10
M  V30 10 1 10 11
M  V30 11 2 11 12
M  V30 12 1 12 13
M  V30 13 1 10 14
M  V30 14 1 12 6
M  V30 15 1 1 15
M  V30 16 1 1 16
M  V30 17 1 1 17
M  V30 18 1 2 18
M  V30 19 1 2 19
M  V30 20 1 7 20
M  V30 21 1 9 21
M  V30 22 1 11 22
M  V30 23 1 13 23
M  V30 24 1 13 24
M  V30 25 1 14 25
M  V30 26 1 14 26
M  V30 END BOND
M  V30 END CTAB
M  END
