
     RDKit          3D

  0  0  0  0  0  0  0  0  0  0999 V3000
M  V30 BEGIN CTAB
M  V30 COUNTS 62 67 0 0 0
M  V30 BEGIN ATOM
M  V30 1 O -0.756103 1.60501 -2.53673 0
M  V30 2 C -1.8256 1.71552 -1.9541 0
M  V30 3 C -1.68385 1.19489 -0.52118 0 CFG=1
M  V30 4 O -2.89642 1.33772 0.0869892 0
M  V30 5 C -3.36066 0.116617 0.489638 0 CFG=2
M  V30 6 C -2.63573 -0.941227 -0.31466 0 CFG=1
M  V30 7 C -1.29952 -0.232985 -0.564184 0 CFG=2
M  V30 8 O -0.356036 -0.61933 0.362723 0
M  V30 9 C 0.733194 -1.26736 -0.19157 0
M  V30 10 C 1.67723 -1.62697 0.953098 0 CFG=1
M  V30 11 O 2.77352 -2.27242 0.449237 0
M  V30 12 C 3.85837 -2.01359 1.2567 0 CFG=2
M  V30 13 C 3.55468 -0.820453 2.10214 0 CFG=1
M  V30 14 C 2.20467 -0.369918 1.61211 0 CFG=2
M  V30 15 O 1.39569 0.024922 2.67928 0
M  V30 16 O 3.37443 -1.17778 3.46022 0
M  V30 17 N 5.06497 -1.90297 0.471818 0
M  V30 18 C 5.94366 -2.90598 0.298824 0
M  V30 19 N 6.96117 -2.50359 -0.478502 0
M  V30 20 C 6.72246 -1.23196 -0.800165 0
M  V30 21 C 5.54341 -0.859303 -0.208976 0
M  V30 22 N 5.02549 0.376015 -0.345215 0
M  V30 23 C 5.7129 1.2557 -1.09515 0
M  V30 24 N 5.2119 2.57492 -1.27285 0
M  V30 25 N 6.87927 0.924374 -1.69373 0
M  V30 26 C 7.41193 -0.300157 -1.5706 0
M  V30 27 O 8.49183 -0.652971 -2.1078 0
M  V30 28 O -2.45616 -2.11647 0.400393 0
M  V30 29 N -4.79575 0.0652889 0.257028 0
M  V30 30 C -5.55515 -1.0651 0.235797 0
M  V30 31 N -6.85388 -0.737002 -0.00928853 0
M  V30 32 C -6.93268 0.594079 -0.145211 0
M  V30 33 C -5.66329 1.05763 0.021932 0
M  V30 34 N -5.46245 2.38243 -0.0671673 0
M  V30 35 C -6.46329 3.24815 -0.312623 0
M  V30 36 N -7.70548 2.7848 -0.475285 0
M  V30 37 C -7.97197 1.4751 -0.398441 0
M  V30 38 N -9.29998 1.03287 -0.577237 0
M  V30 39 H -0.25739 1.64213 -3.06341 0
M  V30 40 H -2.10564 2.80828 -1.93111 0
M  V30 41 H -2.6668 1.16559 -2.46128 0
M  V30 42 H -0.949716 1.85899 -0.0255875 0
M  V30 43 H -3.14846 -0.0643908 1.58187 0
M  V30 44 H -3.18919 -1.09231 -1.24931 0
M  V30 45 H -0.988442 -0.526072 -1.5905 0
M  V30 46 H 1.2796 -0.510405 -0.804499 0
M  V30 47 H 0.493811 -2.1836 -0.731773 0
M  V30 48 H 1.14586 -2.20468 1.74011 0
M  V30 49 H 3.97898 -2.87804 1.93915 0
M  V30 50 H 4.31831 -0.039853 2.10745 0
M  V30 51 H 2.22922 0.422519 0.865581 0
M  V30 52 H 1.91345 0.592547 3.30815 0
M  V30 53 H 3.79348 -2.08397 3.56141 0
M  V30 54 H 5.90212 -3.92583 0.700773 0
M  V30 55 H 5.2554 3.31928 -0.550127 0
M  V30 56 H 4.76924 2.8244 -2.18425 0
M  V30 57 H 7.38748 1.64805 -2.27524 0
M  V30 58 H -2.70992 -2.90068 -0.166347 0
M  V30 59 H -5.18973 -2.05662 0.387768 0
M  V30 60 H -6.23617 4.29789 -0.37198 0
M  V30 61 H -9.70811 1.01967 -1.53533 0
M  V30 62 H -9.88416 0.718616 0.225291 0
M  V30 END ATOM
M  V30 BEGIN BOND
M  V30 1 1 1 2
M  V30 2 1 2 3
M  V30 3 1 3 4
M  V30 4 1 4 5
M  V30 5 1 5 6
M  V30 6 1 6 7
M  V30 7 1 7 8
M  V30 8 1 8 9
M  V30 9 1 9 10
M  V30 10 1 10 11
M  V30 11 1 11 12
M  V30 12 1 12 13
M  V30 13 1 13 14
M  V30 14 1 14 15
M  V30 15 1 13 16
M  V30 16 1 12 17
M  V30 17 1 17 18
M  V30 18 2 18 19
M  V30 19 1 19 20
M  V30 20 2 20 21
M  V30 21 1 21 22
M  V30 22 2 22 23
M  V30 23 1 23 24
M  V30 24 1 23 25
M  V30 25 1 25 26
M  V30 26 2 26 27
M  V30 27 1 6 28
M  V30 28 1 5 29
M  V30 29 1 29 30
M  V30 30 2 30 31
M  V30 31 1 31 32
M  V30 32 2 32 33
M  V30 33 1 33 34
M  V30 34 2 34 35
M  V30 35 1 35 36
M  V30 36 2 36 37
M  V30 37 1 37 38
M  V30 38 1 7 3
M  V30 39 1 14 10
M  V30 40 1 21 17
M  V30 41 1 33 29
M  V30 42 1 26 20
M  V30 43 1 37 32
M  V30 44 1 1 39
M  V30 45 1 2 40
M  V30 46 1 2 41
M  V30 47 1 3 42 CFG=1
M  V30 48 1 5 43 CFG=1
M  V30 49 1 6 44 CFG=3
M  V30 50 1 7 45 CFG=3
M  V30 51 1 9 46
M  V30 52 1 9 47
M  V30 53 1 10 48 CFG=1
M  V30 54 1 12 49 CFG=1
M  V30 55 1 13 50 CFG=1
M  V30 56 1 14 51 CFG=3
M  V30 57 1 15 52
M  V30 58 1 16 53
M  V30 59 1 18 54
M  V30 60 1 24 55
M  V30 61 1 24 56
M  V30 62 1 25 57
M  V30 63 1 28 58
M  V30 64 1 30 59
M  V30 65 1 35 60
M  V30 66 1 38 61
M  V30 67 1 38 62
M  V30 END BOND
M  V30 END CTAB
M  END
