
     RDKit          3D

  0  0  0  0  0  0  0  0  0  0999 V3000
M  V30 BEGIN CTAB
M  V30 COUNTS 48 50 0 0 0
M  V30 BEGIN ATOM
M  V30 1 O 1.09591 -1.61041 0.67974 0
M  V30 2 C 1.16989 -0.812104 -0.110896 0
M  V30 3 N 2.37921 -0.212743 -0.490331 0
M  V30 4 C 3.65493 -0.484298 0.0203956 0
M  V30 5 C 3.95039 -1.37841 0.991737 0
M  V30 6 C 5.27371 -1.55138 1.40879 0
M  V30 7 C 6.30719 -0.84876 0.874565 0
M  V30 8 C 6.01943 0.0606684 -0.111076 0
M  V30 9 C 4.73985 0.229259 -0.515734 0
M  V30 10 S 7.31365 0.99403 -0.834935 0
M  V30 11 O 8.59728 0.19929 -0.837063 0
M  V30 12 O 6.8881 1.31997 -2.24567 0
M  V30 13 N 7.59652 2.46312 -0.0105766 0
M  V30 14 C -0.110277 -0.380553 -0.783349 0
M  V30 15 N -1.25607 -1.10248 -0.268663 0
M  V30 16 C -2.41397 -0.60559 -0.983999 0
M  V30 17 C -3.18207 0.220959 0.0264492 0 CFG=2
M  V30 18 C -2.99613 -0.673621 1.26078 0 CFG=1
M  V30 19 C -1.48251 -0.902573 1.12796 0
M  V30 20 N -3.33699 -0.00221933 2.47328 0
M  V30 21 C -4.58407 0.414198 -0.311856 0
M  V30 22 C -5.43354 -0.623829 -0.553118 0
M  V30 23 C -6.77401 -0.390743 -0.875029 0
M  V30 24 C -7.25059 0.90343 -0.951414 0
M  V30 25 C -6.40548 1.94293 -0.711178 0
M  V30 26 C -5.08555 1.69702 -0.394713 0
M  V30 27 H 2.29004 0.528529 -1.25366 0
M  V30 28 H 3.18742 -1.98178 1.47367 0
M  V30 29 H 5.45801 -2.28366 2.19386 0
M  V30 30 H 7.33318 -0.96295 1.17746 0
M  V30 31 H 4.54396 0.966812 -1.30838 0
M  V30 32 H 6.85929 2.71987 0.672497 0
M  V30 33 H 8.56559 2.57276 0.348293 0
M  V30 34 H -0.264462 0.683129 -0.546308 0
M  V30 35 H -0.0672917 -0.535956 -1.8724 0
M  V30 36 H -3.05644 -1.48859 -1.22955 0
M  V30 37 H -2.13768 -0.0230843 -1.88766 0
M  V30 38 H -2.61283 1.13906 0.194934 0
M  V30 39 H -3.47832 -1.65336 1.11898 0
M  V30 40 H -1.02884 0.0924876 1.4115 0
M  V30 41 H -1.13494 -1.72142 1.7644 0
M  V30 42 H -2.75622 -0.431796 3.24373 0
M  V30 43 H -4.33023 -0.229801 2.70602 0
M  V30 44 H -5.06076 -1.61948 -0.492847 0
M  V30 45 H -7.44956 -1.22729 -1.06724 0
M  V30 46 H -8.30684 1.07257 -1.20552 0
M  V30 47 H -6.77258 2.95719 -0.769471 0
M  V30 48 H -4.4553 2.56159 -0.21274 0
M  V30 END ATOM
M  V30 BEGIN BOND
M  V30 1 2 1 2
M  V30 2 1 2 3
M  V30 3 1 3 4
M  V30 4 2 4 5
M  V30 5 1 5 6
M  V30 6 2 6 7
M  V30 7 1 7 8
M  V30 8 2 8 9
M  V30 9 1 8 10
M  V30 10 2 10 11
M  V30 11 2 10 12
M  V30 12 1 10 13
M  V30 13 1 2 14
M  V30 14 1 14 15
M  V30 15 1 15 16
M  V30 16 1 16 17
M  V30 17 1 17 18
M  V30 18 1 18 19
M  V30 19 1 18 20
M  V30 20 1 17 21
M  V30 21 2 21 22
M  V30 22 1 22 23
M  V30 23 2 23 24
M  V30 24 1 24 25
M  V30 25 2 25 26
M  V30 26 1 9 4
M  V30 27 1 19 15
M  V30 28 1 26 21
M  V30 29 1 3 27
M  V30 30 1 5 28
M  V30 31 1 6 29
M  V30 32 1 7 30
M  V30 33 1 9 31
M  V30 34 1 13 32
M  V30 35 1 13 33
M  V30 36 1 14 34
M  V30 37 1 14 35
M  V30 38 1 16 36
M  V30 39 1 16 37
M  V30 40 1 17 38 CFG=1
M  V30 41 1 18 39 CFG=3
M  V30 42 1 19 40
M  V30 43 1 19 41
M  V30 44 1 20 42
M  V30 45 1 20 43
M  V30 46 1 22 44
M  V30 47 1 23 45
M  V30 48 1 24 46
M  V30 49 1 25 47
M  V30 50 1 26 48
M  V30 END BOND
M  V30 END CTAB
M  END
