
     RDKit          3D

  0  0  0  0  0  0  0  0  0  0999 V3000
M  V30 BEGIN CTAB
M  V30 COUNTS 62 64 0 0 0
M  V30 BEGIN ATOM
M  V30 1 C -2.21884 -3.36873 -1.22542 0
M  V30 2 C -2.04321 -2.84211 0.205795 0
M  V30 3 N -0.689379 -2.45022 0.31147 0
M  V30 4 C -0.0841649 -1.51138 -0.545321 0
M  V30 5 N -0.745453 -0.897292 -1.53613 0
M  V30 6 C -0.171397 -0.0114434 -2.37423 0
M  V30 7 N -0.921147 0.619887 -3.39649 0
M  V30 8 N 1.15943 0.263756 -2.19151 0
M  V30 9 C 1.84255 -0.337738 -1.2088 0
M  V30 10 N 1.22856 -1.20193 -0.408797 0
M  V30 11 C 3.26582 -0.0844159 -1.01753 0
M  V30 12 C 3.97124 0.742145 -1.86845 0
M  V30 13 C 5.32405 0.986442 -1.69165 0
M  V30 14 C 6.0342 0.40293 -0.637169 0
M  V30 15 C 7.47694 0.66066 -0.50076 0
M  V30 16 C 7.72366 1.92806 0.251922 0 CFG=2
M  V30 17 N 9.20161 2.07702 0.310082 0
M  V30 18 C 7.23482 1.824 1.62907 0
M  V30 19 O 8.12401 1.61547 2.66965 0
M  V30 20 O 6.01982 1.92026 1.89289 0
M  V30 21 C 5.29636 -0.41353 0.187435 0
M  V30 22 C 3.94979 -0.663554 0.0199018 0
M  V30 23 C -3.05395 -1.79647 0.481283 0
M  V30 24 C -4.36453 -2.07164 0.0851968 0
M  V30 25 C -5.38024 -1.16335 0.318329 0
M  V30 26 C -5.16232 0.0525729 0.946704 0
M  V30 27 C -3.86508 0.320393 1.33546 0
M  V30 28 C -2.82866 -0.595696 1.10188 0
M  V30 29 C -6.27728 1.007 1.21525 0
M  V30 30 C -7.60181 0.381923 0.75446 0
M  V30 31 C -6.40963 1.31803 2.69342 0
M  V30 32 C -6.15209 2.30561 0.468479 0
M  V30 33 H -2.92016 -4.20996 -1.19842 0
M  V30 34 H -1.26699 -3.69391 -1.67107 0
M  V30 35 H -2.69887 -2.56314 -1.84005 0
M  V30 36 H -2.2719 -3.73722 0.868191 0
M  V30 37 H -0.103142 -2.87364 1.05894 0
M  V30 38 H -1.75903 1.19838 -3.15471 0
M  V30 39 H -0.623196 0.500223 -4.38602 0
M  V30 40 H 3.41801 1.18636 -2.68059 0
M  V30 41 H 5.87739 1.61466 -2.34946 0
M  V30 42 H 7.96823 0.744927 -1.50521 0
M  V30 43 H 7.95929 -0.199289 0.0341584 0
M  V30 44 H 7.30895 2.79184 -0.293729 0
M  V30 45 H 9.50176 2.40484 -0.61927 0
M  V30 46 H 9.56619 1.1106 0.478241 0
M  V30 47 H 8.77147 0.850771 2.61654 0
M  V30 48 H 5.79142 -0.901103 1.02942 0
M  V30 49 H 3.42052 -1.31457 0.70448 0
M  V30 50 H -4.55511 -3.03011 -0.410102 0
M  V30 51 H -6.40196 -1.38899 0.00384497 0
M  V30 52 H -3.65281 1.25712 1.82524 0
M  V30 53 H -1.80201 -0.389315 1.41196 0
M  V30 54 H -7.80006 -0.588091 1.21248 0
M  V30 55 H -7.51085 0.243239 -0.344356 0
M  V30 56 H -8.41684 1.1255 0.878235 0
M  V30 57 H -5.93791 0.495092 3.29904 0
M  V30 58 H -7.48669 1.42256 2.91248 0
M  V30 59 H -5.93153 2.28602 2.92692 0
M  V30 60 H -5.44937 2.17783 -0.392974 0
M  V30 61 H -5.71334 3.07275 1.17206 0
M  V30 62 H -7.16515 2.65743 0.137317 0
M  V30 END ATOM
M  V30 BEGIN BOND
M  V30 1 1 1 2
M  V30 2 1 2 3
M  V30 3 1 3 4
M  V30 4 2 4 5
M  V30 5 1 5 6
M  V30 6 1 6 7
M  V30 7 2 6 8
M  V30 8 1 8 9
M  V30 9 2 9 10
M  V30 10 1 9 11
M  V30 11 2 11 12
M  V30 12 1 12 13
M  V30 13 2 13 14
M  V30 14 1 14 15
M  V30 15 1 15 16
M  V30 16 1 16 17
M  V30 17 1 16 18
M  V30 18 1 18 19
M  V30 19 2 18 20
M  V30 20 1 14 21
M  V30 21 2 21 22
M  V30 22 1 2 23
M  V30 23 2 23 24
M  V30 24 1 24 25
M  V30 25 2 25 26
M  V30 26 1 26 27
M  V30 27 2 27 28
M  V30 28 1 26 29
M  V30 29 1 29 30
M  V30 30 1 29 31
M  V30 31 1 29 32
M  V30 32 1 10 4
M  V30 33 1 22 11
M  V30 34 1 28 23
M  V30 35 1 1 33
M  V30 36 1 1 34
M  V30 37 1 1 35
M  V30 38 1 2 36
M  V30 39 1 3 37
M  V30 40 1 7 38
M  V30 41 1 7 39
M  V30 42 1 12 40
M  V30 43 1 13 41
M  V30 44 1 15 42
M  V30 45 1 15 43
M  V30 46 1 16 44 CFG=3
M  V30 47 1 17 45
M  V30 48 1 17 46
M  V30 49 1 19 47
M  V30 50 1 21 48
M  V30 51 1 22 49
M  V30 52 1 24 50
M  V30 53 1 25 51
M  V30 54 1 27 52
M  V30 55 1 28 53
M  V30 56 1 30 54
M  V30 57 1 30 55
M  V30 58 1 30 56
M  V30 59 1 31 57
M  V30 60 1 31 58
M  V30 61 1 31 59
M  V30 62 1 32 60
M  V30 63 1 32 61
M  V30 64 1 32 62
M  V30 END BOND
M  V30 END CTAB
M  END
