
     RDKit          3D

  0  0  0  0  0  0  0  0  0  0999 V3000
M  V30 BEGIN CTAB
M  V30 COUNTS 27 29 0 0 0
M  V30 BEGIN ATOM
M  V30 1 N 4.62481 1.72597 0.551286 0
M  V30 2 C 3.461 0.930005 0.309173 0
M  V30 3 C 2.21451 1.47791 0.468584 0
M  V30 4 C 1.11759 0.669498 0.223003 0
M  V30 5 N -0.129592 1.1476 0.361535 0
M  V30 6 C -1.19935 0.365818 0.124006 0
M  V30 7 C -2.49375 0.864466 0.268515 0
M  V30 8 C -3.62964 0.130767 0.0451247 0
M  V30 9 N -4.94274 0.684759 0.206101 0
M  V30 10 C -3.45998 -1.19257 -0.34994 0
M  V30 11 Cl -4.90488 -2.13305 -0.636249 0
M  V30 12 C -2.20904 -1.73941 -0.509009 0
M  V30 13 C -1.08141 -0.948893 -0.268661 0
M  V30 14 C 0.192465 -1.47211 -0.420588 0
M  V30 15 C 1.26732 -0.644122 -0.169224 0
M  V30 16 C 2.56402 -1.15086 -0.316148 0
M  V30 17 C 3.67753 -0.372755 -0.0795699 0
M  V30 18 Cl 5.27013 -1.06283 -0.280259 0
M  V30 19 H 5.23809 1.45819 1.35196 0
M  V30 20 H 4.90184 2.54097 -0.0037299 0
M  V30 21 H 2.05281 2.49275 0.771429 0
M  V30 22 H -2.58082 1.88618 0.573691 0
M  V30 23 H -5.109 1.70869 0.102572 0
M  V30 24 H -5.75608 0.0794435 0.429042 0
M  V30 25 H -2.06662 -2.7693 -0.816427 0
M  V30 26 H 0.31255 -2.50106 -0.727808 0
M  V30 27 H 2.66824 -2.17606 -0.622301 0
M  V30 END ATOM
M  V30 BEGIN BOND
M  V30 1 1 1 2
M  V30 2 2 2 3
M  V30 3 1 3 4
M  V30 4 2 4 5
M  V30 5 1 5 6
M  V30 6 2 6 7
M  V30 7 1 7 8
M  V30 8 1 8 9
M  V30 9 2 8 10
M  V30 10 1 10 11
M  V30 11 1 10 12
M  V30 12 2 12 13
M  V30 13 1 13 14
M  V30 14 2 14 15
M  V30 15 1 15 16
M  V30 16 2 16 17
M  V30 17 1 17 18
M  V30 18 1 17 2
M  V30 19 1 15 4
M  V30 20 1 13 6
M  V30 21 1 1 19
M  V30 22 1 1 20
M  V30 23 1 3 21
M  V30 24 1 7 22
M  V30 25 1 9 23
M  V30 26 1 9 24
M  V30 27 1 12 25
M  V30 28 1 14 26
M  V30 29 1 16 27
M  V30 END BOND
M  V30 END CTAB
M  END
