
     RDKit          3D

  0  0  0  0  0  0  0  0  0  0999 V3000
M  V30 BEGIN CTAB
M  V30 COUNTS 44 46 0 0 0
M  V30 BEGIN ATOM
M  V30 1 N -5.53028 2.57987 -2.70845 0
M  V30 2 C -5.46371 1.60337 -2.09109 0
M  V30 3 C -5.38388 0.400916 -1.31877 0
M  V30 4 N -6.23363 -0.666496 -1.30265 0
M  V30 5 C -5.78929 -1.55896 -0.419437 0
M  V30 6 O -4.70305 -1.08667 0.108923 0
M  V30 7 C -4.40005 0.120421 -0.406724 0
M  V30 8 N -3.25549 0.825792 0.0172002 0
M  V30 9 C -2.22478 1.42765 -0.755703 0
M  V30 10 C -0.848963 1.26217 -0.138186 0
M  V30 11 N -0.77408 0.424129 1.0078 0
M  V30 12 C -1.94745 -0.136639 1.69161 0
M  V30 13 C -3.07392 0.927082 1.48716 0
M  V30 14 C 0.479974 0.134096 1.59818 0
M  V30 15 O 0.594269 -0.683153 2.55954 0
M  V30 16 C 1.70925 0.775395 1.12591 0
M  V30 17 S 2.30645 0.0420029 -0.389334 0
M  V30 18 C 4.09283 -0.234013 -0.329535 0
M  V30 19 N 4.66046 -1.37435 0.0486016 0
M  V30 20 C 6.00065 -1.45606 0.0809577 0
M  V30 21 N 6.66326 -2.65863 0.460667 0
M  V30 22 C 6.78 -0.356171 -0.27484 0
M  V30 23 C 6.18242 0.822128 -0.662931 0
M  V30 24 N 4.8478 0.833068 -0.67599 0
M  V30 25 N 6.94458 1.98263 -1.01896 0
M  V30 26 C -6.37411 -2.89623 -0.0372813 0
M  V30 27 H -2.44015 2.53599 -0.788197 0
M  V30 28 H -2.23584 1.10869 -1.82707 0
M  V30 29 H -0.196081 0.84919 -0.959025 0
M  V30 30 H -0.405354 2.24704 0.110562 0
M  V30 31 H -2.23512 -1.03874 1.16907 0
M  V30 32 H -1.81974 -0.290351 2.74756 0
M  V30 33 H -2.68217 1.90579 1.75966 0
M  V30 34 H -3.94695 0.556485 2.00609 0
M  V30 35 H 2.52802 0.725548 1.90873 0
M  V30 36 H 1.5131 1.87849 1.03266 0
M  V30 37 H 6.14478 -3.54434 0.614326 0
M  V30 38 H 7.69779 -2.67389 0.588527 0
M  V30 39 H 7.87065 -0.405889 -0.251029 0
M  V30 40 H 7.95376 1.88157 -1.13377 0
M  V30 41 H 6.49786 2.91012 -1.1562 0
M  V30 42 H -5.96471 -3.70058 -0.652523 0
M  V30 43 H -6.07931 -3.11817 1.01261 0
M  V30 44 H -7.45978 -2.8803 -0.129083 0
M  V30 END ATOM
M  V30 BEGIN BOND
M  V30 1 3 1 2
M  V30 2 1 2 3
M  V30 3 1 3 4
M  V30 4 2 4 5
M  V30 5 1 5 6
M  V30 6 1 6 7
M  V30 7 1 7 8
M  V30 8 1 8 9
M  V30 9 1 9 10
M  V30 10 1 10 11
M  V30 11 1 11 12
M  V30 12 1 12 13
M  V30 13 1 11 14
M  V30 14 2 14 15
M  V30 15 1 14 16
M  V30 16 1 16 17
M  V30 17 1 17 18
M  V30 18 2 18 19
M  V30 19 1 19 20
M  V30 20 1 20 21
M  V30 21 2 20 22
M  V30 22 1 22 23
M  V30 23 2 23 24
M  V30 24 1 23 25
M  V30 25 1 5 26
M  V30 26 2 7 3
M  V30 27 1 13 8
M  V30 28 1 24 18
M  V30 29 1 9 27
M  V30 30 1 9 28
M  V30 31 1 10 29
M  V30 32 1 10 30
M  V30 33 1 12 31
M  V30 34 1 12 32
M  V30 35 1 13 33
M  V30 36 1 13 34
M  V30 37 1 16 35
M  V30 38 1 16 36
M  V30 39 1 21 37
M  V30 40 1 21 38
M  V30 41 1 22 39
M  V30 42 1 25 40
M  V30 43 1 25 41
M  V30 44 1 26 42
M  V30 45 1 26 43
M  V30 46 1 26 44
M  V30 END BOND
M  V30 END CTAB
M  END
