
     RDKit          3D

  0  0  0  0  0  0  0  0  0  0999 V3000
M  V30 BEGIN CTAB
M  V30 COUNTS 20 20 0 0 0
M  V30 BEGIN ATOM
M  V30 1 O 2.38673 2.10024 -1.21926 0
M  V30 2 N 2.83975 1.03182 -0.58235 0
M  V30 3 C 2.17846 0.0933037 -0.0486762 0
M  V30 4 C 0.73367 0.0670358 -0.0684743 0
M  V30 5 C -0.116907 0.966444 -0.615953 0
M  V30 6 C -1.51213 0.80768 -0.556865 0
M  V30 7 Cl -2.5235 2.05158 -1.31003 0
M  V30 8 C -2.06099 -0.281212 0.0675916 0
M  V30 9 C -1.23064 -1.21978 0.637513 0
M  V30 10 C 0.125058 -1.0317 0.560291 0
M  V30 11 Cl -1.89445 -2.64527 1.45633 0
M  V30 12 N -3.47162 -0.442827 0.128052 0
M  V30 13 N 2.89572 -0.963373 0.587888 0
M  V30 14 H 2.31987 3.05309 -0.87614 0
M  V30 15 H 0.256972 1.83876 -1.11785 0
M  V30 16 H 0.74387 -1.78688 1.01764 0
M  V30 17 H -3.98245 -1.29451 -0.156943 0
M  V30 18 H -4.02753 0.360288 0.487262 0
M  V30 19 H 2.66837 -1.29199 1.53973 0
M  V30 20 H 3.67176 -1.41271 0.0702409 0
M  V30 END ATOM
M  V30 BEGIN BOND
M  V30 1 1 1 2
M  V30 2 2 2 3
M  V30 3 1 3 4
M  V30 4 2 4 5
M  V30 5 1 5 6
M  V30 6 1 6 7
M  V30 7 2 6 8
M  V30 8 1 8 9
M  V30 9 2 9 10
M  V30 10 1 9 11
M  V30 11 1 8 12
M  V30 12 1 3 13
M  V30 13 1 10 4
M  V30 14 1 1 14
M  V30 15 1 5 15
M  V30 16 1 10 16
M  V30 17 1 12 17
M  V30 18 1 12 18
M  V30 19 1 13 19
M  V30 20 1 13 20
M  V30 END BOND
M  V30 END CTAB
M  END
