
     RDKit          3D

  0  0  0  0  0  0  0  0  0  0999 V3000
M  V30 BEGIN CTAB
M  V30 COUNTS 27 28 0 0 0
M  V30 BEGIN ATOM
M  V30 1 N -3.24007 2.5102 0.313406 0
M  V30 2 C -2.62912 1.23218 0.0893416 0
M  V30 3 C -1.51238 1.09092 -0.717244 0
M  V30 4 C -0.908564 -0.125292 -0.947181 0
M  V30 5 S 0.526767 -0.332162 -1.97926 0
M  V30 6 C 2.03686 -0.171876 -1.05147 0
M  V30 7 C 3.25054 -0.301746 -1.68407 0
M  V30 8 C 4.45532 -0.187649 -1.01726 0
M  V30 9 C 4.44289 0.0670504 0.339135 0
M  V30 10 C 3.24383 0.202147 1.00029 0
M  V30 11 C 2.04464 0.0825089 0.30425 0
M  V30 12 C -1.4442 -1.2473 -0.345097 0
M  V30 13 C -2.57097 -1.12129 0.471713 0
M  V30 14 C -3.14576 0.10461 0.678271 0
M  V30 15 N -3.15303 -2.2528 1.11012 0
M  V30 16 H -3.14146 3.19616 -0.480913 0
M  V30 17 H -3.74134 2.74078 1.19235 0
M  V30 18 H -1.11124 1.96022 -1.17339 0
M  V30 19 H 3.26462 -0.497893 -2.72842 0
M  V30 20 H 5.41722 -0.28679 -1.49842 0
M  V30 21 H 5.35035 0.165109 0.90597 0
M  V30 22 H 3.24814 0.39877 2.04814 0
M  V30 23 H 1.1086 0.193969 0.852334 0
M  V30 24 H -1.01683 -2.23946 -0.48409 0
M  V30 25 H -4.01708 0.205888 1.30922 0
M  V30 26 H -3.30968 -2.28453 2.14006 0
M  V30 27 H -3.44808 -3.10172 0.567436 0
M  V30 END ATOM
M  V30 BEGIN BOND
M  V30 1 1 1 2
M  V30 2 2 2 3
M  V30 3 1 3 4
M  V30 4 1 4 5
M  V30 5 1 5 6
M  V30 6 2 6 7
M  V30 7 1 7 8
M  V30 8 2 8 9
M  V30 9 1 9 10
M  V30 10 2 10 11
M  V30 11 2 4 12
M  V30 12 1 12 13
M  V30 13 2 13 14
M  V30 14 1 13 15
M  V30 15 1 14 2
M  V30 16 1 11 6
M  V30 17 1 1 16
M  V30 18 1 1 17
M  V30 19 1 3 18
M  V30 20 1 7 19
M  V30 21 1 8 20
M  V30 22 1 9 21
M  V30 23 1 10 22
M  V30 24 1 11 23
M  V30 25 1 12 24
M  V30 26 1 14 25
M  V30 27 1 15 26
M  V30 28 1 15 27
M  V30 END BOND
M  V30 END CTAB
M  END
