
     RDKit          3D

  0  0  0  0  0  0  0  0  0  0999 V3000
M  V30 BEGIN CTAB
M  V30 COUNTS 23 23 0 0 0
M  V30 BEGIN ATOM
M  V30 1 C 2.47471 1.05485 -1.16544 0
M  V30 2 N 2.05732 0.0652503 -0.168926 0
M  V30 3 C 0.685605 0.120299 0.206689 0
M  V30 4 N 0.257152 0.676541 1.35628 0
M  V30 5 C -1.0571 0.722009 1.6681 0
M  V30 6 C -2.04362 0.215006 0.853799 0
M  V30 7 C -1.64377 -0.360405 -0.329661 0
M  V30 8 C -0.29557 -0.394409 -0.623567 0
M  V30 9 N -2.58362 -0.898178 -1.22568 0
M  V30 10 N -3.41604 0.290322 1.23887 0
M  V30 11 C 3.02576 -0.852873 0.352736 0
M  V30 12 H 2.23721 2.08975 -0.829829 0
M  V30 13 H 3.50735 0.924019 -1.49562 0
M  V30 14 H 1.79996 0.852425 -2.05094 0
M  V30 15 H -1.34566 1.17953 2.60926 0
M  V30 16 H 0.0734184 -0.842897 -1.55677 0
M  V30 17 H -3.56989 -0.62252 -1.21664 0
M  V30 18 H -2.26169 -1.6018 -1.92363 0
M  V30 19 H -4.19209 -0.0295052 0.628159 0
M  V30 20 H -3.67188 0.682861 2.17224 0
M  V30 21 H 3.32567 -1.64056 -0.399354 0
M  V30 22 H 2.7061 -1.37585 1.25791 0
M  V30 23 H 3.93067 -0.253868 0.642016 0
M  V30 END ATOM
M  V30 BEGIN BOND
M  V30 1 1 1 2
M  V30 2 1 2 3
M  V30 3 2 3 4
M  V30 4 1 4 5
M  V30 5 2 5 6
M  V30 6 1 6 7
M  V30 7 2 7 8
M  V30 8 1 7 9
M  V30 9 1 6 10
M  V30 10 1 2 11
M  V30 11 1 8 3
M  V30 12 1 1 12
M  V30 13 1 1 13
M  V30 14 1 1 14
M  V30 15 1 5 15
M  V30 16 1 8 16
M  V30 17 1 9 17
M  V30 18 1 9 18
M  V30 19 1 10 19
M  V30 20 1 10 20
M  V30 21 1 11 21
M  V30 22 1 11 22
M  V30 23 1 11 23
M  V30 END BOND
M  V30 END CTAB
M  END
