
     RDKit          3D

  0  0  0  0  0  0  0  0  0  0999 V3000
M  V30 BEGIN CTAB
M  V30 COUNTS 31 31 0 0 0
M  V30 BEGIN ATOM
M  V30 1 N 4.49391 1.49093 -0.252987 0
M  V30 2 N 4.14356 0.294577 0.382699 0
M  V30 3 C 2.92357 -0.187699 0.315755 0
M  V30 4 N 1.91752 0.491954 -0.403873 0
M  V30 5 C 0.852374 -0.147915 -1.12063 0
M  V30 6 C -0.165733 -0.818841 -0.270315 0
M  V30 7 C -0.87829 0.111458 0.682892 0
M  V30 8 C -1.61266 1.21151 0.00264892 0
M  V30 9 C -3.11282 1.05881 0.103388 0
M  V30 10 C -3.45427 -0.339403 -0.266343 0
M  V30 11 C -2.83099 -1.30353 0.406336 0
M  V30 12 C -1.86459 -0.787515 1.44798 0
M  V30 13 N 2.73877 -1.40796 1.01756 0
M  V30 14 H 4.07641 2.42184 -0.038085 0
M  V30 15 H 5.23593 1.48093 -1.01231 0
M  V30 16 H 1.95278 1.53607 -0.412304 0
M  V30 17 H 1.34762 -0.977853 -1.71146 0
M  V30 18 H 0.417989 0.50745 -1.90585 0
M  V30 19 H 0.307665 -1.60338 0.341274 0
M  V30 20 H -0.931746 -1.36971 -0.887125 0
M  V30 21 H -0.147696 0.457928 1.4531 0
M  V30 22 H -1.35984 1.18809 -1.08021 0
M  V30 23 H -1.36525 2.20916 0.44006 0
M  V30 24 H -3.63833 1.79607 -0.538503 0
M  V30 25 H -3.48737 1.22664 1.13489 0
M  V30 26 H -4.16014 -0.622552 -1.03306 0
M  V30 27 H -2.9957 -2.35997 0.230969 0
M  V30 28 H -1.32452 -1.62293 1.93566 0
M  V30 29 H -2.41593 -0.16709 2.15409 0
M  V30 30 H 2.6744 -2.28714 0.466481 0
M  V30 31 H 2.66337 -1.47994 2.05765 0
M  V30 END ATOM
M  V30 BEGIN BOND
M  V30 1 1 1 2
M  V30 2 2 2 3 CFG=2
M  V30 3 1 3 4
M  V30 4 1 4 5
M  V30 5 1 5 6
M  V30 6 1 6 7
M  V30 7 1 7 8
M  V30 8 1 8 9
M  V30 9 1 9 10
M  V30 10 2 10 11
M  V30 11 1 11 12
M  V30 12 1 3 13
M  V30 13 1 12 7
M  V30 14 1 1 14
M  V30 15 1 1 15
M  V30 16 1 4 16
M  V30 17 1 5 17
M  V30 18 1 5 18
M  V30 19 1 6 19
M  V30 20 1 6 20
M  V30 21 1 7 21
M  V30 22 1 8 22
M  V30 23 1 8 23
M  V30 24 1 9 24
M  V30 25 1 9 25
M  V30 26 1 10 26
M  V30 27 1 11 27
M  V30 28 1 12 28
M  V30 29 1 12 29
M  V30 30 1 13 30
M  V30 31 1 13 31
M  V30 END BOND
M  V30 END CTAB
M  END
