
     RDKit          3D

  0  0  0  0  0  0  0  0  0  0999 V3000
M  V30 BEGIN CTAB
M  V30 COUNTS 71 74 0 0 0
M  V30 BEGIN ATOM
M  V30 1 C 1.14787 -0.0944735 4.55839 0
M  V30 2 O 2.07507 -0.422972 3.5421 0
M  V30 3 C 1.99162 0.1686 2.29313 0
M  V30 4 C 1.00829 1.08433 2.016 0
M  V30 5 C 0.897625 1.69487 0.776377 0
M  V30 6 C 1.80397 1.36738 -0.196002 0
M  V30 7 C 2.80109 0.4359 0.0904978 0
M  V30 8 C 2.9267 -0.177941 1.30708 0
M  V30 9 N 3.92089 -1.11505 1.59474 0
M  V30 10 C 4.93123 -1.64474 0.789819 0
M  V30 11 O 5.09754 -1.32815 -0.39434 0
M  V30 12 C 5.90526 -2.66183 1.33185 0
M  V30 13 S 7.09278 -3.15937 0.0671384 0
M  V30 14 C 8.14373 -1.79305 -0.333145 0
M  V30 15 N 9.04328 -1.96477 -1.31616 0
M  V30 16 C 9.8939 -1.00261 -1.72806 0
M  V30 17 N 10.8297 -1.19713 -2.76088 0
M  V30 18 C 9.84164 0.221546 -1.11206 0
M  V30 19 C 8.92135 0.41115 -0.0996691 0
M  V30 20 O 8.89094 1.54477 0.453022 0
M  V30 21 N 8.09703 -0.593129 0.266566 0
M  V30 22 C -0.188236 2.66773 0.487426 0
M  V30 23 C -1.27249 1.85875 -0.165636 0
M  V30 24 C -1.35601 1.85876 -1.52725 0
M  V30 25 C -2.34634 1.09651 -2.15666 0
M  V30 26 C -3.2422 0.343372 -1.44266 0
M  V30 27 C -3.15878 0.341281 -0.0336956 0
M  V30 28 C -2.17415 1.10225 0.53638 0
M  V30 29 O -4.05722 -0.414908 0.707004 0
M  V30 30 C -4.08365 -0.505196 2.09414 0
M  V30 31 N -4.23141 -0.441558 -2.05424 0
M  V30 32 C -4.54621 -0.561946 -3.40135 0
M  V30 33 O -3.96475 0.0510238 -4.32238 0
M  V30 34 C -5.66403 -1.48372 -3.86715 0
M  V30 35 S -7.25803 -0.647982 -3.77604 0
M  V30 36 C -7.73698 -0.322083 -2.08904 0
M  V30 37 N -7.40244 0.796323 -1.42638 0
M  V30 38 C -7.78565 0.993337 -0.142819 0
M  V30 39 N -7.4385 2.17533 0.581806 0
M  V30 40 C -8.5341 0.00723297 0.469049 0
M  V30 41 C -8.88142 -1.13793 -0.197601 0
M  V30 42 O -9.55884 -2.03329 0.351146 0
M  V30 43 N -8.46596 -1.26347 -1.46703 0
M  V30 44 H 1.02528 1.0211 4.60958 0
M  V30 45 H 0.142659 -0.49199 4.2778 0
M  V30 46 H 1.48319 -0.459051 5.55289 0
M  V30 47 H 0.272784 1.37234 2.75306 0
M  V30 48 H 1.75129 1.82426 -1.17886 0
M  V30 49 H 3.47804 0.230409 -0.724512 0
M  V30 50 H 3.92166 -1.50351 2.60106 0
M  V30 51 H 6.46453 -2.22116 2.19459 0
M  V30 52 H 5.31875 -3.55369 1.63195 0
M  V30 53 H 11.8282 -1.35929 -2.51586 0
M  V30 54 H 10.5241 -1.17847 -3.75758 0
M  V30 55 H 10.5045 1.01959 -1.4116 0
M  V30 56 H 7.41916 -0.431334 1.02992 0
M  V30 57 H 0.128913 3.49691 -0.164501 0
M  V30 58 H -0.629325 3.09275 1.41608 0
M  V30 59 H -0.649713 2.45438 -2.12526 0
M  V30 60 H -2.33104 1.15928 -3.23826 0
M  V30 61 H -2.10894 1.10079 1.63265 0
M  V30 62 H -3.75431 0.416497 2.60958 0
M  V30 63 H -5.11461 -0.745089 2.47268 0
M  V30 64 H -3.4441 -1.37229 2.38736 0
M  V30 65 H -4.83141 -1.03568 -1.38541 0
M  V30 66 H -5.63631 -2.42058 -3.25785 0
M  V30 67 H -5.45983 -1.78765 -4.90797 0
M  V30 68 H -6.43745 2.44735 0.641617 0
M  V30 69 H -8.20827 2.71892 1.02336 0
M  V30 70 H -8.83663 0.174085 1.49756 0
M  V30 71 H -8.73524 -2.13949 -1.96746 0
M  V30 END ATOM
M  V30 BEGIN BOND
M  V30 1 1 1 2
M  V30 2 1 2 3
M  V30 3 2 3 4
M  V30 4 1 4 5
M  V30 5 2 5 6
M  V30 6 1 6 7
M  V30 7 2 7 8
M  V30 8 1 8 9
M  V30 9 1 9 10
M  V30 10 2 10 11
M  V30 11 1 10 12
M  V30 12 1 12 13
M  V30 13 1 13 14
M  V30 14 2 14 15
M  V30 15 1 15 16
M  V30 16 1 16 17
M  V30 17 2 16 18
M  V30 18 1 18 19
M  V30 19 2 19 20
M  V30 20 1 19 21
M  V30 21 1 5 22
M  V30 22 1 22 23
M  V30 23 2 23 24
M  V30 24 1 24 25
M  V30 25 2 25 26
M  V30 26 1 26 27
M  V30 27 2 27 28
M  V30 28 1 27 29
M  V30 29 1 29 30
M  V30 30 1 26 31
M  V30 31 1 31 32
M  V30 32 2 32 33
M  V30 33 1 32 34
M  V30 34 1 34 35
M  V30 35 1 35 36
M  V30 36 2 36 37
M  V30 37 1 37 38
M  V30 38 1 38 39
M  V30 39 2 38 40
M  V30 40 1 40 41
M  V30 41 2 41 42
M  V30 42 1 41 43
M  V30 43 1 8 3
M  V30 44 1 21 14
M  V30 45 1 28 23
M  V30 46 1 43 36
M  V30 47 1 1 44
M  V30 48 1 1 45
M  V30 49 1 1 46
M  V30 50 1 4 47
M  V30 51 1 6 48
M  V30 52 1 7 49
M  V30 53 1 9 50
M  V30 54 1 12 51
M  V30 55 1 12 52
M  V30 56 1 17 53
M  V30 57 1 17 54
M  V30 58 1 18 55
M  V30 59 1 21 56
M  V30 60 1 22 57
M  V30 61 1 22 58
M  V30 62 1 24 59
M  V30 63 1 25 60
M  V30 64 1 28 61
M  V30 65 1 30 62
M  V30 66 1 30 63
M  V30 67 1 30 64
M  V30 68 1 31 65
M  V30 69 1 34 66
M  V30 70 1 34 67
M  V30 71 1 39 68
M  V30 72 1 39 69
M  V30 73 1 40 70
M  V30 74 1 43 71
M  V30 END BOND
M  V30 END CTAB
M  END
