
     RDKit          3D

  0  0  0  0  0  0  0  0  0  0999 V3000
M  V30 BEGIN CTAB
M  V30 COUNTS 43 44 0 0 0
M  V30 BEGIN ATOM
M  V30 1 C -6.3422 1.22781 0.578393 0
M  V30 2 C -5.17162 0.270587 0.665968 0
M  V30 3 C -4.88743 0.0383484 2.13425 0
M  V30 4 C -5.60119 -1.03678 0.0418869 0
M  V30 5 O -4.09425 0.858861 -0.00464918 0
M  V30 6 C -2.83593 0.233285 -0.116765 0
M  V30 7 O -2.7856 -0.888437 0.439471 0
M  V30 8 N -1.7945 0.85466 -0.791968 0
M  V30 9 C -0.479391 0.386113 -1.00386 0
M  V30 10 C 0.428574 1.17901 -1.721 0
M  V30 11 C 1.71528 0.798769 -1.96797 0
M  V30 12 C 2.17537 -0.430242 -1.49715 0
M  V30 13 O 3.48407 -0.768957 -1.7771 0
M  V30 14 C 4.53523 -0.121766 -1.11208 0
M  V30 15 C 4.73871 -0.14208 0.238048 0
M  V30 16 N 3.83752 -0.874848 1.09184 0
M  V30 17 C 5.80369 0.521539 0.841531 0
M  V30 18 N 5.95328 0.456864 2.2543 0
M  V30 19 N 6.64969 1.19846 0.0612969 0
M  V30 20 C 6.48719 1.24523 -1.27586 0
M  V30 21 C 5.45323 0.604219 -1.88819 0
M  V30 22 C 1.32129 -1.23963 -0.790749 0
M  V30 23 C 0.0233458 -0.806161 -0.56682 0
M  V30 24 H -5.9414 2.26367 0.5507 0
M  V30 25 H -6.92599 1.0076 -0.350721 0
M  V30 26 H -7.01127 1.14677 1.45799 0
M  V30 27 H -4.23703 0.821267 2.55794 0
M  V30 28 H -5.85898 0.0977983 2.67106 0
M  V30 29 H -4.49715 -0.990559 2.32957 0
M  V30 30 H -5.39124 -1.04261 -1.04153 0
M  V30 31 H -6.71392 -1.1252 0.149951 0
M  V30 32 H -5.17984 -1.91451 0.567147 0
M  V30 33 H -2.01964 1.8192 -1.20782 0
M  V30 34 H 0.0860033 2.14222 -2.09617 0
M  V30 35 H 2.40631 1.43583 -2.53096 0
M  V30 36 H 3.90264 -1.9263 1.04654 0
M  V30 37 H 3.17104 -0.372247 1.70775 0
M  V30 38 H 6.58924 1.09648 2.75748 0
M  V30 39 H 5.41182 -0.249315 2.79835 0
M  V30 40 H 7.23674 1.8283 -1.82798 0
M  V30 41 H 5.30774 0.630254 -2.95224 0
M  V30 42 H 1.64919 -2.22318 -0.414718 0
M  V30 43 H -0.598621 -1.48707 -0.00515624 0
M  V30 END ATOM
M  V30 BEGIN BOND
M  V30 1 1 1 2
M  V30 2 1 2 3
M  V30 3 1 2 4
M  V30 4 1 2 5
M  V30 5 1 5 6
M  V30 6 2 6 7
M  V30 7 1 6 8
M  V30 8 1 8 9
M  V30 9 2 9 10
M  V30 10 1 10 11
M  V30 11 2 11 12
M  V30 12 1 12 13
M  V30 13 1 13 14
M  V30 14 2 14 15
M  V30 15 1 15 16
M  V30 16 1 15 17
M  V30 17 1 17 18
M  V30 18 2 17 19
M  V30 19 1 19 20
M  V30 20 2 20 21
M  V30 21 1 12 22
M  V30 22 2 22 23
M  V30 23 1 23 9
M  V30 24 1 21 14
M  V30 25 1 1 24
M  V30 26 1 1 25
M  V30 27 1 1 26
M  V30 28 1 3 27
M  V30 29 1 3 28
M  V30 30 1 3 29
M  V30 31 1 4 30
M  V30 32 1 4 31
M  V30 33 1 4 32
M  V30 34 1 8 33
M  V30 35 1 10 34
M  V30 36 1 11 35
M  V30 37 1 16 36
M  V30 38 1 16 37
M  V30 39 1 18 38
M  V30 40 1 18 39
M  V30 41 1 20 40
M  V30 42 1 21 41
M  V30 43 1 22 42
M  V30 44 1 23 43
M  V30 END BOND
M  V30 END CTAB
M  END
