
     RDKit          3D

  0  0  0  0  0  0  0  0  0  0999 V3000
M  V30 BEGIN CTAB
M  V30 COUNTS 49 50 0 0 0
M  V30 BEGIN ATOM
M  V30 1 N 8.63617 -1.97334 0.996287 0
M  V30 2 C 7.36974 -1.41869 0.65579 0
M  V30 3 C 6.96106 -0.187695 1.13376 0
M  V30 4 C 5.72687 0.327356 0.787698 0
M  V30 5 C 4.84919 -0.342998 -0.037648 0
M  V30 6 O 3.61388 0.221437 -0.356685 0
M  V30 7 C 2.66886 -0.380863 -1.1786 0
M  V30 8 C 1.4708 0.563652 -1.26608 0
M  V30 9 C 0.871235 0.818813 0.0762667 0
M  V30 10 C -0.291876 1.76359 -0.0545071 0
M  V30 11 C -1.36563 1.20453 -0.941932 0
M  V30 12 C -2.52998 2.18031 -1.04128 0
M  V30 13 C -3.14843 2.4629 0.285665 0
M  V30 14 O -3.64398 1.33507 0.904674 0
M  V30 15 C -4.63571 0.461373 0.595953 0
M  V30 16 C -4.87687 -0.635976 1.4487 0
M  V30 17 C -5.85773 -1.55841 1.20977 0
M  V30 18 C -6.67023 -1.45862 0.107314 0
M  V30 19 N -7.67399 -2.42457 -0.114662 0
M  V30 20 C -6.4708 -0.404291 -0.750852 0
M  V30 21 C -5.46258 0.538009 -0.49829 0
M  V30 22 C 5.25704 -1.57094 -0.514335 0
M  V30 23 C 6.49132 -2.09091 -0.170976 0
M  V30 24 H 9.46134 -1.38587 1.24896 0
M  V30 25 H 8.78785 -3.01083 1.00553 0
M  V30 26 H 7.65198 0.349755 1.78892 0
M  V30 27 H 5.40715 1.3032 1.16877 0
M  V30 28 H 3.00635 -0.569588 -2.20847 0
M  V30 29 H 2.35971 -1.33618 -0.708267 0
M  V30 30 H 0.716771 0.0533782 -1.90085 0
M  V30 31 H 1.77527 1.52106 -1.71779 0
M  V30 32 H 0.502866 -0.130681 0.554858 0
M  V30 33 H 1.59717 1.30204 0.767658 0
M  V30 34 H 0.078037 2.732 -0.469434 0
M  V30 35 H -0.692996 2.03535 0.962193 0
M  V30 36 H -0.953825 1.13149 -1.97655 0
M  V30 37 H -1.71928 0.244278 -0.560604 0
M  V30 38 H -3.22507 1.77215 -1.75838 0
M  V30 39 H -2.1601 3.15331 -1.44895 0
M  V30 40 H -2.45883 3.02212 0.965322 0
M  V30 41 H -3.98348 3.21363 0.0751994 0
M  V30 42 H -4.24454 -0.719455 2.31278 0
M  V30 43 H -6.01388 -2.39763 1.89666 0
M  V30 44 H -8.16052 -2.94686 0.642997 0
M  V30 45 H -7.95678 -2.63941 -1.09371 0
M  V30 46 H -7.10769 -0.317468 -1.62403 0
M  V30 47 H -5.37299 1.3596 -1.20932 0
M  V30 48 H 4.58746 -2.11148 -1.16026 0
M  V30 49 H 6.82968 -3.05766 -0.537405 0
M  V30 END ATOM
M  V30 BEGIN BOND
M  V30 1 1 1 2
M  V30 2 2 2 3
M  V30 3 1 3 4
M  V30 4 2 4 5
M  V30 5 1 5 6
M  V30 6 1 6 7
M  V30 7 1 7 8
M  V30 8 1 8 9
M  V30 9 1 9 10
M  V30 10 1 10 11
M  V30 11 1 11 12
M  V30 12 1 12 13
M  V30 13 1 13 14
M  V30 14 1 14 15
M  V30 15 2 15 16
M  V30 16 1 16 17
M  V30 17 2 17 18
M  V30 18 1 18 19
M  V30 19 1 18 20
M  V30 20 2 20 21
M  V30 21 1 5 22
M  V30 22 2 22 23
M  V30 23 1 23 2
M  V30 24 1 21 15
M  V30 25 1 1 24
M  V30 26 1 1 25
M  V30 27 1 3 26
M  V30 28 1 4 27
M  V30 29 1 7 28
M  V30 30 1 7 29
M  V30 31 1 8 30
M  V30 32 1 8 31
M  V30 33 1 9 32
M  V30 34 1 9 33
M  V30 35 1 10 34
M  V30 36 1 10 35
M  V30 37 1 11 36
M  V30 38 1 11 37
M  V30 39 1 12 38
M  V30 40 1 12 39
M  V30 41 1 13 40
M  V30 42 1 13 41
M  V30 43 1 16 42
M  V30 44 1 17 43
M  V30 45 1 19 44
M  V30 46 1 19 45
M  V30 47 1 20 46
M  V30 48 1 21 47
M  V30 49 1 22 48
M  V30 50 1 23 49
M  V30 END BOND
M  V30 END CTAB
M  END
