
     RDKit          3D

  0  0  0  0  0  0  0  0  0  0999 V3000
M  V30 BEGIN CTAB
M  V30 COUNTS 64 66 0 0 0
M  V30 BEGIN ATOM
M  V30 1 C 5.15122 -5.24205 1.47291 0
M  V30 2 C 4.0669 -4.72494 1.42662 0
M  V30 3 C 2.76432 -4.10335 1.35684 0
M  V30 4 C 2.89434 -2.55969 1.44258 0
M  V30 5 C 1.4937 -2.02215 1.35788 0
M  V30 6 C 0.944408 -1.65082 0.152056 0
M  V30 7 C -0.367251 -1.17634 0.0642965 0
M  V30 8 C -1.15656 -1.06469 1.18851 0
M  V30 9 C -0.594864 -1.43991 2.3909 0
M  V30 10 C 0.698115 -1.90848 2.48323 0
M  V30 11 C -2.54929 -0.571231 1.13147 0
M  V30 12 O -3.05079 -0.274213 2.24248 0
M  V30 13 N -3.25875 -0.44172 -0.0577093 0
M  V30 14 C -4.57785 0.0293117 -0.305278 0
M  V30 15 C -5.57623 -1.02086 -0.573507 0
M  V30 16 O -5.18502 -2.2155 -0.564609 0
M  V30 17 O -6.91162 -0.781736 -0.833825 0
M  V30 18 C -7.84333 -1.81313 -1.08635 0
M  V30 19 C -5.13766 0.981254 0.729549 0
M  V30 20 C -4.41889 2.26603 0.894536 0
M  V30 21 C -4.40753 3.14289 -0.307302 0
M  V30 22 O -3.64995 4.17252 -0.252344 0
M  V30 23 O -5.12592 2.94801 -1.44549 0
M  V30 24 C -5.05949 3.83401 -2.54838 0
M  V30 25 C 3.81232 -2.06652 0.401461 0
M  V30 26 C 4.08045 -0.624519 0.346041 0
M  V30 27 C 3.6064 0.297357 1.23913 0
M  V30 28 N 3.90663 1.6229 1.09425 0
M  V30 29 C 4.67476 2.05155 0.0712237 0
M  V30 30 C 5.16504 1.13471 -0.843609 0
M  V30 31 N 4.85274 -0.138927 -0.669899 0
M  V30 32 C 5.96186 1.53865 -1.91028 0
M  V30 33 N 6.47137 0.616179 -2.85148 0
M  V30 34 N 6.2407 2.8415 -2.0266 0
M  V30 35 C 5.75555 3.73773 -1.12433 0
M  V30 36 N 4.98889 3.34131 -0.0992438 0
M  V30 37 N 6.08404 5.11974 -1.2989 0
M  V30 38 H 6.12866 -5.68712 1.5171 0
M  V30 39 H 2.05789 -4.46129 2.11539 0
M  V30 40 H 2.3272 -4.32772 0.362374 0
M  V30 41 H 3.29164 -2.38841 2.44674 0
M  V30 42 H 1.57087 -1.7414 -0.72325 0
M  V30 43 H -0.741434 -0.898235 -0.909706 0
M  V30 44 H -1.20954 -1.35618 3.29014 0
M  V30 45 H 1.14396 -2.20742 3.44162 0
M  V30 46 H -2.72905 -0.75488 -0.942314 0
M  V30 47 H -4.48642 0.673793 -1.25934 0
M  V30 48 H -8.63257 -1.87569 -0.29408 0
M  V30 49 H -8.29363 -1.67009 -2.08443 0
M  V30 50 H -7.3108 -2.77608 -1.06233 0
M  V30 51 H -6.16923 1.24138 0.321997 0
M  V30 52 H -5.28661 0.451698 1.6694 0
M  V30 53 H -4.98839 2.83321 1.70426 0
M  V30 54 H -3.38926 2.23784 1.24915 0
M  V30 55 H -4.02858 3.77168 -3.0066 0
M  V30 56 H -5.75164 3.44473 -3.32151 0
M  V30 57 H -5.27752 4.87889 -2.27537 0
M  V30 58 H 4.81588 -2.56497 0.610273 0
M  V30 59 H 3.56305 -2.47869 -0.617072 0
M  V30 60 H 2.99615 0.0403752 2.09304 0
M  V30 61 H 6.97563 -0.264801 -2.60642 0
M  V30 62 H 6.34081 0.817411 -3.86563 0
M  V30 63 H 5.38507 5.6751 -1.83588 0
M  V30 64 H 6.9551 5.55201 -0.921859 0
M  V30 END ATOM
M  V30 BEGIN BOND
M  V30 1 3 1 2
M  V30 2 1 2 3
M  V30 3 1 3 4
M  V30 4 1 4 5
M  V30 5 2 5 6
M  V30 6 1 6 7
M  V30 7 2 7 8
M  V30 8 1 8 9
M  V30 9 2 9 10
M  V30 10 1 8 11
M  V30 11 2 11 12
M  V30 12 1 11 13
M  V30 13 1 13 14
M  V30 14 1 14 15
M  V30 15 2 15 16
M  V30 16 1 15 17
M  V30 17 1 17 18
M  V30 18 1 14 19
M  V30 19 1 19 20
M  V30 20 1 20 21
M  V30 21 2 21 22
M  V30 22 1 21 23
M  V30 23 1 23 24
M  V30 24 1 4 25
M  V30 25 1 25 26
M  V30 26 2 26 27
M  V30 27 1 27 28
M  V30 28 2 28 29
M  V30 29 1 29 30
M  V30 30 2 30 31
M  V30 31 1 30 32
M  V30 32 1 32 33
M  V30 33 2 32 34
M  V30 34 1 34 35
M  V30 35 2 35 36
M  V30 36 1 35 37
M  V30 37 1 10 5
M  V30 38 1 31 26
M  V30 39 1 36 29
M  V30 40 1 1 38
M  V30 41 1 3 39
M  V30 42 1 3 40
M  V30 43 1 4 41
M  V30 44 1 6 42
M  V30 45 1 7 43
M  V30 46 1 9 44
M  V30 47 1 10 45
M  V30 48 1 13 46
M  V30 49 1 14 47
M  V30 50 1 18 48
M  V30 51 1 18 49
M  V30 52 1 18 50
M  V30 53 1 19 51
M  V30 54 1 19 52
M  V30 55 1 20 53
M  V30 56 1 20 54
M  V30 57 1 24 55
M  V30 58 1 24 56
M  V30 59 1 24 57
M  V30 60 1 25 58
M  V30 61 1 25 59
M  V30 62 1 27 60
M  V30 63 1 33 61
M  V30 64 1 33 62
M  V30 65 1 37 63
M  V30 66 1 37 64
M  V30 END BOND
M  V30 END CTAB
M  END
