
     RDKit          3D

  0  0  0  0  0  0  0  0  0  0999 V3000
M  V30 BEGIN CTAB
M  V30 COUNTS 50 53 0 0 0
M  V30 BEGIN ATOM
M  V30 1 N -9.13046 0.0430126 -0.768161 0
M  V30 2 C -7.80879 0.542577 -0.884177 0
M  V30 3 C -6.8992 0.0574357 -1.79003 0
M  V30 4 C -5.60077 0.563983 -1.88707 0
M  V30 5 C -5.19978 1.5859 -1.05342 0
M  V30 6 S -3.52849 2.26493 -1.14683 0
M  V30 7 C -2.45514 1.33331 -0.032769 0
M  V30 8 C -1.78601 0.221108 -0.461128 0
M  V30 9 C -0.940853 -0.5447 0.356856 0
M  V30 10 C -0.831575 -0.0840167 1.65462 0
M  V30 11 C -1.47431 1.02239 2.14538 0
M  V30 12 C -2.29336 1.72922 1.27706 0
M  V30 13 C -0.28949 -1.72469 -0.157699 0
M  V30 14 O -0.853171 -2.39461 -1.05859 0
M  V30 15 C 0.99359 -2.17111 0.324722 0
M  V30 16 C 1.89781 -1.29522 0.905487 0
M  V30 17 C 3.11812 -1.70404 1.38425 0
M  V30 18 S 4.25587 -0.563715 2.12825 0
M  V30 19 C 5.3437 0.146106 0.903688 0
M  V30 20 C 6.31388 1.05228 1.2753 0
M  V30 21 C 7.17769 1.62977 0.370328 0
M  V30 22 C 7.10856 1.3192 -0.982921 0
M  V30 23 N 8.00641 1.92288 -1.89459 0
M  V30 24 C 6.13851 0.412783 -1.35575 0
M  V30 25 C 5.27556 -0.162144 -0.440399 0
M  V30 26 C 3.44535 -3.03475 1.27773 0
M  V30 27 C 2.56102 -3.94791 0.698186 0
M  V30 28 C 1.35654 -3.52496 0.22987 0
M  V30 29 C -6.11053 2.07159 -0.146367 0
M  V30 30 C -7.40253 1.56757 -0.05005 0
M  V30 31 H -9.67017 0.219088 0.101837 0
M  V30 32 H -9.5979 -0.501343 -1.52441 0
M  V30 33 H -7.22468 -0.74229 -2.43534 0
M  V30 34 H -4.88803 0.179483 -2.60131 0
M  V30 35 H -1.88536 -0.123797 -1.48147 0
M  V30 36 H -0.201122 -0.632649 2.35814 0
M  V30 37 H -1.33548 1.3185 3.17578 0
M  V30 38 H -2.79118 2.59058 1.66758 0
M  V30 39 H 1.7 -0.227647 1.00466 0
M  V30 40 H 6.3619 1.29265 2.3472 0
M  V30 41 H 7.92817 2.33528 0.683525 0
M  V30 42 H 7.97819 2.95844 -1.99733 0
M  V30 43 H 8.70102 1.40865 -2.47693 0
M  V30 44 H 6.05459 0.147557 -2.39574 0
M  V30 45 H 4.50374 -0.881144 -0.726661 0
M  V30 46 H 4.40324 -3.3776 1.64943 0
M  V30 47 H 2.84376 -4.98686 0.626562 0
M  V30 48 H 0.61618 -4.1692 -0.231588 0
M  V30 49 H -5.7856 2.88591 0.516512 0
M  V30 50 H -8.09943 1.97223 0.677278 0
M  V30 END ATOM
M  V30 BEGIN BOND
M  V30 1 1 1 2
M  V30 2 2 2 3
M  V30 3 1 3 4
M  V30 4 2 4 5
M  V30 5 1 5 6
M  V30 6 1 6 7
M  V30 7 2 7 8
M  V30 8 1 8 9
M  V30 9 2 9 10
M  V30 10 1 10 11
M  V30 11 2 11 12
M  V30 12 1 9 13
M  V30 13 2 13 14
M  V30 14 1 13 15
M  V30 15 2 15 16
M  V30 16 1 16 17
M  V30 17 1 17 18
M  V30 18 1 18 19
M  V30 19 2 19 20
M  V30 20 1 20 21
M  V30 21 2 21 22
M  V30 22 1 22 23
M  V30 23 1 22 24
M  V30 24 2 24 25
M  V30 25 2 17 26
M  V30 26 1 26 27
M  V30 27 2 27 28
M  V30 28 1 5 29
M  V30 29 2 29 30
M  V30 30 1 30 2
M  V30 31 1 12 7
M  V30 32 1 28 15
M  V30 33 1 25 19
M  V30 34 1 1 31
M  V30 35 1 1 32
M  V30 36 1 3 33
M  V30 37 1 4 34
M  V30 38 1 8 35
M  V30 39 1 10 36
M  V30 40 1 11 37
M  V30 41 1 12 38
M  V30 42 1 16 39
M  V30 43 1 20 40
M  V30 44 1 21 41
M  V30 45 1 23 42
M  V30 46 1 23 43
M  V30 47 1 24 44
M  V30 48 1 25 45
M  V30 49 1 26 46
M  V30 50 1 27 47
M  V30 51 1 28 48
M  V30 52 1 29 49
M  V30 53 1 30 50
M  V30 END BOND
M  V30 END CTAB
M  END
