
     RDKit          3D

  0  0  0  0  0  0  0  0  0  0999 V3000
M  V30 BEGIN CTAB
M  V30 COUNTS 55 58 0 0 0
M  V30 BEGIN ATOM
M  V30 1 C 6.69046 -1.05299 -0.76278 0
M  V30 2 C 5.49532 -1.36754 0.0441678 0
M  V30 3 N 4.3525 -0.401848 -0.21109 0
M  V30 4 C 4.72669 0.819281 0.213327 0
M  V30 5 C 3.74305 1.96078 0.152139 0
M  V30 6 C 3.29411 -1.19029 -0.367657 0
M  V30 7 C 1.97216 -1.16553 0.257182 0
M  V30 8 C 1.64123 -2.42403 0.918903 0
M  V30 9 O 2.64769 -3.30535 1.00113 0
M  V30 10 C 0.371302 -2.54312 1.38481 0
M  V30 11 C -0.581356 -1.58102 1.24812 0
M  V30 12 C -0.341508 -0.428334 0.646968 0
M  V30 13 N -1.24383 0.598686 0.376298 0
M  V30 14 C -2.61535 0.570495 -0.000995555 0
M  V30 15 C -3.45352 1.62854 0.51863 0
M  V30 16 C -2.97568 2.8255 0.808915 0
M  V30 17 N -1.66585 3.26114 0.481805 0
M  V30 18 N -3.86929 3.81312 1.1751 0
M  V30 19 C -5.19038 3.63035 1.22922 0
M  V30 20 N -6.09849 4.7015 1.49239 0
M  V30 21 N -5.65198 2.3495 0.894618 0
M  V30 22 C -4.8193 1.34977 0.547264 0
M  V30 23 N -5.34247 0.208766 0.114117 0
M  V30 24 C -4.54041 -0.760432 -0.40401 0
M  V30 25 C -5.21922 -1.84639 -0.991394 0
M  V30 26 C -4.37694 -2.78396 -1.70879 0
M  V30 27 Cl -5.15021 -4.15462 -2.39175 0
M  V30 28 C -3.08179 -2.54042 -1.7624 0
M  V30 29 C -2.40883 -1.49945 -1.18619 0
M  V30 30 C -3.17767 -0.606757 -0.484914 0
M  V30 31 C 1.00738 -0.23197 0.148407 0
M  V30 32 H 6.46813 -0.788534 -1.80268 0
M  V30 33 H 7.27062 -2.03838 -0.828949 0
M  V30 34 H 7.41304 -0.399949 -0.22597 0
M  V30 35 H 5.11023 -2.38696 -0.332789 0
M  V30 36 H 5.64081 -1.43362 1.11653 0
M  V30 37 H 5.65294 1.23939 -0.335737 0
M  V30 38 H 5.12062 0.839738 1.29185 0
M  V30 39 H 4.32837 2.91786 0.207995 0
M  V30 40 H 3.10071 1.97197 1.0611 0
M  V30 41 H 3.1734 2.04015 -0.786322 0
M  V30 42 H 2.89674 -0.849816 -1.55671 0
M  V30 43 H 3.49976 -2.25322 -0.765737 0
M  V30 44 H 2.56674 -4.22236 1.40842 0
M  V30 45 H 0.139215 -3.51744 1.8662 0
M  V30 46 H -1.56434 -1.72205 1.68127 0
M  V30 47 H -0.78709 1.47424 0.574653 0
M  V30 48 H -1.31815 3.10311 -0.513936 0
M  V30 49 H -1.08647 3.77138 1.14572 0
M  V30 50 H -5.88397 5.62959 1.02882 0
M  V30 51 H -6.95211 4.62472 2.03127 0
M  V30 52 H -6.2406 -1.98112 -0.943295 0
M  V30 53 H -2.43124 -3.23167 -2.3368 0
M  V30 54 H -1.38136 -1.30726 -1.40919 0
M  V30 55 H 1.12618 0.686854 -0.36183 0
M  V30 END ATOM
M  V30 BEGIN BOND
M  V30 1 1 1 2
M  V30 2 1 2 3
M  V30 3 1 3 4
M  V30 4 1 4 5
M  V30 5 1 3 6
M  V30 6 1 6 7
M  V30 7 2 7 8
M  V30 8 1 8 9
M  V30 9 1 8 10
M  V30 10 2 10 11
M  V30 11 1 11 12
M  V30 12 1 12 13
M  V30 13 1 13 14
M  V30 14 1 14 15
M  V30 15 2 15 16
M  V30 16 1 16 17
M  V30 17 1 16 18
M  V30 18 2 18 19
M  V30 19 1 19 20
M  V30 20 1 19 21
M  V30 21 2 21 22
M  V30 22 1 22 23
M  V30 23 2 23 24
M  V30 24 1 24 25
M  V30 25 2 25 26
M  V30 26 1 26 27
M  V30 27 1 26 28
M  V30 28 2 28 29
M  V30 29 1 29 30
M  V30 30 2 12 31
M  V30 31 1 31 7
M  V30 32 2 30 14
M  V30 33 1 22 15
M  V30 34 1 30 24
M  V30 35 1 1 32
M  V30 36 1 1 33
M  V30 37 1 1 34
M  V30 38 1 2 35
M  V30 39 1 2 36
M  V30 40 1 4 37
M  V30 41 1 4 38
M  V30 42 1 5 39
M  V30 43 1 5 40
M  V30 44 1 5 41
M  V30 45 1 6 42
M  V30 46 1 6 43
M  V30 47 1 9 44
M  V30 48 1 10 45
M  V30 49 1 11 46
M  V30 50 1 13 47
M  V30 51 1 17 48
M  V30 52 1 17 49
M  V30 53 1 20 50
M  V30 54 1 20 51
M  V30 55 1 25 52
M  V30 56 1 28 53
M  V30 57 1 29 54
M  V30 58 1 31 55
M  V30 END BOND
M  V30 END CTAB
M  END
