
     RDKit          3D

  0  0  0  0  0  0  0  0  0  0999 V3000
M  V30 BEGIN CTAB
M  V30 COUNTS 40 39 0 0 0
M  V30 BEGIN ATOM
M  V30 1 C -3.54166 -2.73606 0.121727 0
M  V30 2 C -4.18149 -1.50853 -0.493101 0
M  V30 3 C -3.46232 -0.228435 -0.0177525 0
M  V30 4 C -2.03667 -0.240626 -0.401223 0
M  V30 5 C -1.26025 0.908747 0.0981322 0
M  V30 6 N 0.132168 0.868325 -0.313231 0
M  V30 7 C 1.15023 0.659214 0.626145 0
M  V30 8 O 0.907521 0.499486 1.84978 0
M  V30 9 C 2.60309 0.61281 0.225964 0
M  V30 10 C 2.85025 -0.424455 -0.811989 0
M  V30 11 C 4.29271 -0.445649 -1.20121 0
M  V30 12 C 5.25857 -0.763331 -0.103634 0
M  V30 13 N 3.3796 0.384554 1.41814 0
M  V30 14 C -1.88065 2.23412 -0.15622 0
M  V30 15 N -3.15515 2.45546 0.475964 0
M  V30 16 H -2.99947 -3.2738 -0.681227 0
M  V30 17 H -4.34211 -3.40369 0.552869 0
M  V30 18 H -2.87842 -2.40469 0.947711 0
M  V30 19 H -4.2427 -1.55443 -1.58059 0
M  V30 20 H -5.21278 -1.42054 -0.0924333 0
M  V30 21 H -3.98426 0.555071 -0.626185 0
M  V30 22 H -3.64884 -0.123108 1.03341 0
M  V30 23 H -1.99027 -0.186226 -1.54312 0
M  V30 24 H -1.54057 -1.22824 -0.182337 0
M  V30 25 H -1.19973 0.73887 1.24089 0
M  V30 26 H 0.370447 0.994838 -1.30535 0
M  V30 27 H 2.88501 1.62622 -0.139793 0
M  V30 28 H 2.27764 -0.193555 -1.74661 0
M  V30 29 H 2.59764 -1.44655 -0.435439 0
M  V30 30 H 4.61654 0.551884 -1.62892 0
M  V30 31 H 4.48047 -1.15656 -2.0612 0
M  V30 32 H 6.17031 -1.21502 -0.612412 0
M  V30 33 H 4.89533 -1.51113 0.613927 0
M  V30 34 H 5.70158 0.152988 0.387205 0
M  V30 35 H 3.87173 1.24795 1.76007 0
M  V30 36 H 2.87364 -0.124291 2.16406 0
M  V30 37 H -2.07829 2.39721 -1.2634 0
M  V30 38 H -1.17092 3.0859 0.0761268 0
M  V30 39 H -3.09469 2.16663 1.48371 0
M  V30 40 H -3.41327 3.44864 0.47324 0
M  V30 END ATOM
M  V30 BEGIN BOND
M  V30 1 1 1 2
M  V30 2 1 2 3
M  V30 3 1 3 4
M  V30 4 1 4 5
M  V30 5 1 5 6
M  V30 6 1 6 7
M  V30 7 2 7 8
M  V30 8 1 7 9
M  V30 9 1 9 10
M  V30 10 1 10 11
M  V30 11 1 11 12
M  V30 12 1 9 13
M  V30 13 1 5 14
M  V30 14 1 14 15
M  V30 15 1 1 16
M  V30 16 1 1 17
M  V30 17 1 1 18
M  V30 18 1 2 19
M  V30 19 1 2 20
M  V30 20 1 3 21
M  V30 21 1 3 22
M  V30 22 1 4 23
M  V30 23 1 4 24
M  V30 24 1 5 25
M  V30 25 1 6 26
M  V30 26 1 9 27
M  V30 27 1 10 28
M  V30 28 1 10 29
M  V30 29 1 11 30
M  V30 30 1 11 31
M  V30 31 1 12 32
M  V30 32 1 12 33
M  V30 33 1 12 34
M  V30 34 1 13 35
M  V30 35 1 13 36
M  V30 36 1 14 37
M  V30 37 1 14 38
M  V30 38 1 15 39
M  V30 39 1 15 40
M  V30 END BOND
M  V30 END CTAB
M  END
