
     RDKit          3D

  0  0  0  0  0  0  0  0  0  0999 V3000
M  V30 BEGIN CTAB
M  V30 COUNTS 36 37 0 0 0
M  V30 BEGIN ATOM
M  V30 1 C -5.93553 -0.0311751 -2.32683 0
M  V30 2 C -5.2535 -0.164642 -0.979383 0
M  V30 3 C -3.79997 0.293765 -1.08414 0
M  V30 4 O -3.20849 0.153784 0.181459 0
M  V30 5 C -1.89409 0.492497 0.390523 0
M  V30 6 C -1.31566 0.356285 1.62548 0
M  V30 7 C 0.00398837 0.692637 1.85025 0
M  V30 8 C 0.779411 1.18487 0.802013 0
M  V30 9 C 0.19835 1.32101 -0.43579 0
M  V30 10 C -1.13708 0.975927 -0.644401 0
M  V30 11 C 2.19454 1.54292 1.05357 0
M  V30 12 C 3.11041 0.400169 0.829807 0
M  V30 13 N 3.64282 0.208614 -0.391956 0
M  V30 14 C 4.47673 -0.825099 -0.613603 0
M  V30 15 N 5.05456 -1.04239 -1.91795 0
M  V30 16 N 4.75363 -1.64494 0.411944 0
M  V30 17 C 4.21315 -1.44724 1.64475 0
M  V30 18 N 3.37641 -0.409954 1.86699 0
M  V30 19 N 4.53269 -2.33742 2.69925 0
M  V30 20 H -5.49832 -0.808773 -2.99515 0
M  V30 21 H -5.65431 0.987546 -2.71495 0
M  V30 22 H -7.01862 -0.146782 -2.21044 0
M  V30 23 H -5.80397 0.433534 -0.236899 0
M  V30 24 H -5.20815 -1.23064 -0.646664 0
M  V30 25 H -3.32533 -0.331249 -1.86121 0
M  V30 26 H -3.75832 1.34841 -1.45557 0
M  V30 27 H -1.89428 -0.0233419 2.45706 0
M  V30 28 H 0.464354 0.586901 2.82242 0
M  V30 29 H 0.799797 1.7022 -1.24643 0
M  V30 30 H -1.5852 1.08637 -1.62083 0
M  V30 31 H 2.53742 2.3557 0.365311 0
M  V30 32 H 2.33511 1.87656 2.10134 0
M  V30 33 H 5.04649 -1.98616 -2.31226 0
M  V30 34 H 5.47726 -0.259035 -2.46156 0
M  V30 35 H 4.87023 -3.28894 2.47155 0
M  V30 36 H 4.42346 -2.02192 3.67842 0
M  V30 END ATOM
M  V30 BEGIN BOND
M  V30 1 1 1 2
M  V30 2 1 2 3
M  V30 3 1 3 4
M  V30 4 1 4 5
M  V30 5 2 5 6
M  V30 6 1 6 7
M  V30 7 2 7 8
M  V30 8 1 8 9
M  V30 9 2 9 10
M  V30 10 1 8 11
M  V30 11 1 11 12
M  V30 12 2 12 13
M  V30 13 1 13 14
M  V30 14 1 14 15
M  V30 15 2 14 16
M  V30 16 1 16 17
M  V30 17 2 17 18
M  V30 18 1 17 19
M  V30 19 1 10 5
M  V30 20 1 18 12
M  V30 21 1 1 20
M  V30 22 1 1 21
M  V30 23 1 1 22
M  V30 24 1 2 23
M  V30 25 1 2 24
M  V30 26 1 3 25
M  V30 27 1 3 26
M  V30 28 1 6 27
M  V30 29 1 7 28
M  V30 30 1 9 29
M  V30 31 1 10 30
M  V30 32 1 11 31
M  V30 33 1 11 32
M  V30 34 1 15 33
M  V30 35 1 15 34
M  V30 36 1 19 35
M  V30 37 1 19 36
M  V30 END BOND
M  V30 END CTAB
M  END
