
     RDKit          3D

  0  0  0  0  0  0  0  0  0  0999 V3000
M  V30 BEGIN CTAB
M  V30 COUNTS 25 25 0 0 0
M  V30 BEGIN ATOM
M  V30 1 C 3.60101 1.05225 -0.396209 0
M  V30 2 C 3.17916 -0.155085 -0.727053 0
M  V30 3 C 2.70022 -1.12907 0.288691 0
M  V30 4 N 1.35862 -1.5189 0.0266995 0
M  V30 5 C 0.189843 -0.717313 0.129923 0
M  V30 6 C 0.16445 0.4954 0.777542 0
M  V30 7 C -0.995052 1.27693 0.852441 0
M  V30 8 C -2.15899 0.830264 0.263067 0
M  V30 9 C -2.16927 -0.386415 -0.396708 0
M  V30 10 C -1.01135 -1.12297 -0.448099 0
M  V30 11 N -3.38709 -0.798886 -0.983711 0
M  V30 12 N -3.348 1.62326 0.335307 0
M  V30 13 H 3.60436 1.36322 0.663429 0
M  V30 14 H 3.9481 1.76485 -1.10856 0
M  V30 15 H 3.19295 -0.419426 -1.78239 0
M  V30 16 H 2.72511 -0.655424 1.31187 0
M  V30 17 H 3.39561 -2.00099 0.297964 0
M  V30 18 H 1.23984 -2.53952 -0.28261 0
M  V30 19 H 1.03246 0.903504 1.27225 0
M  V30 20 H -0.984055 2.23123 1.37082 0
M  V30 21 H -1.01322 -2.07169 -0.960695 0
M  V30 22 H -3.98428 -1.53593 -0.575479 0
M  V30 23 H -3.70206 -0.349634 -1.85915 0
M  V30 24 H -3.9953 1.61095 1.14419 0
M  V30 25 H -3.58305 2.2494 -0.463905 0
M  V30 END ATOM
M  V30 BEGIN BOND
M  V30 1 2 1 2 CFG=2
M  V30 2 1 2 3
M  V30 3 1 3 4
M  V30 4 1 4 5
M  V30 5 2 5 6
M  V30 6 1 6 7
M  V30 7 2 7 8
M  V30 8 1 8 9
M  V30 9 2 9 10
M  V30 10 1 9 11
M  V30 11 1 8 12
M  V30 12 1 10 5
M  V30 13 1 1 13
M  V30 14 1 1 14
M  V30 15 1 2 15
M  V30 16 1 3 16
M  V30 17 1 3 17
M  V30 18 1 4 18
M  V30 19 1 6 19
M  V30 20 1 7 20
M  V30 21 1 10 21
M  V30 22 1 11 22
M  V30 23 1 11 23
M  V30 24 1 12 24
M  V30 25 1 12 25
M  V30 END BOND
M  V30 END CTAB
M  END
