
     RDKit          3D

  0  0  0  0  0  0  0  0  0  0999 V3000
M  V30 BEGIN CTAB
M  V30 COUNTS 43 44 0 0 0
M  V30 BEGIN ATOM
M  V30 1 N 7.97891 0.801187 0.78946 0
M  V30 2 C 8.57021 0.772991 -0.493179 0
M  V30 3 S 10.1395 1.17948 -0.639163 0
M  V30 4 N 7.84789 0.4052 -1.64925 0
M  V30 5 N 6.50683 0.0583032 -1.52148 0
M  V30 6 C 5.66632 0.828597 -0.965247 0
M  V30 7 C 4.28603 0.446045 -0.846045 0
M  V30 8 C 3.37619 1.28585 -0.240986 0
M  V30 9 C 2.04607 0.880196 -0.143975 0
M  V30 10 C 1.60701 -0.317463 -0.624846 0
M  V30 11 C 2.52211 -1.15147 -1.22827 0
M  V30 12 C 3.86424 -0.769563 -1.33937 0
M  V30 13 C 0.208461 -0.693972 -0.49872 0
M  V30 14 N -0.675361 0.0555086 0.0570669 0
M  V30 15 C -2.04462 -0.306234 0.183871 0
M  V30 16 C -2.78205 0.179533 1.24133 0
M  V30 17 C -4.12961 -0.166717 1.38026 0
M  V30 18 C -4.76815 -0.989272 0.488098 0
M  V30 19 C -4.00819 -1.47678 -0.582148 0
M  V30 20 C -2.68193 -1.13386 -0.715326 0
M  V30 21 S -6.44795 -1.45224 0.583587 0
M  V30 22 O -6.56185 -2.92544 0.235321 0
M  V30 23 O -6.90974 -1.33707 2.01453 0
M  V30 24 N -7.44677 -0.55274 -0.476677 0
M  V30 25 C -7.5682 0.838176 -0.348494 0
M  V30 26 N -6.87615 1.5452 0.656222 0
M  V30 27 S -8.532 1.64535 -1.38765 0
M  V30 28 H 8.03755 1.6465 1.38884 0
M  V30 29 H 7.47628 -0.0319108 1.14551 0
M  V30 30 H 8.27512 0.382309 -2.59303 0
M  V30 31 H 6.00845 1.78563 -0.579137 0
M  V30 32 H 3.74137 2.22986 0.133844 0
M  V30 33 H 1.35624 1.5433 0.327484 0
M  V30 34 H 2.23066 -2.11017 -1.62639 0
M  V30 35 H 4.60119 -1.41144 -1.81096 0
M  V30 36 H -0.10681 -1.64763 -0.889169 0
M  V30 37 H -2.33528 0.825933 1.96794 0
M  V30 38 H -4.71092 0.207056 2.22079 0
M  V30 39 H -4.49269 -2.1311 -1.30224 0
M  V30 40 H -2.09074 -1.50919 -1.54222 0
M  V30 41 H -7.97017 -1.07513 -1.2319 0
M  V30 42 H -7.05212 1.3791 1.67714 0
M  V30 43 H -6.15533 2.26809 0.440227 0
M  V30 END ATOM
M  V30 BEGIN BOND
M  V30 1 1 1 2
M  V30 2 2 2 3
M  V30 3 1 2 4
M  V30 4 1 4 5
M  V30 5 2 5 6
M  V30 6 1 6 7
M  V30 7 2 7 8
M  V30 8 1 8 9
M  V30 9 2 9 10
M  V30 10 1 10 11
M  V30 11 2 11 12
M  V30 12 1 10 13
M  V30 13 2 13 14
M  V30 14 1 14 15
M  V30 15 2 15 16
M  V30 16 1 16 17
M  V30 17 2 17 18
M  V30 18 1 18 19
M  V30 19 2 19 20
M  V30 20 1 18 21
M  V30 21 2 21 22
M  V30 22 2 21 23
M  V30 23 1 21 24
M  V30 24 1 24 25
M  V30 25 1 25 26
M  V30 26 2 25 27
M  V30 27 1 12 7
M  V30 28 1 20 15
M  V30 29 1 1 28
M  V30 30 1 1 29
M  V30 31 1 4 30
M  V30 32 1 6 31
M  V30 33 1 8 32
M  V30 34 1 9 33
M  V30 35 1 11 34
M  V30 36 1 12 35
M  V30 37 1 13 36
M  V30 38 1 16 37
M  V30 39 1 17 38
M  V30 40 1 19 39
M  V30 41 1 20 40
M  V30 42 1 24 41
M  V30 43 1 26 42
M  V30 44 1 26 43
M  V30 END BOND
M  V30 END CTAB
M  END
