
     RDKit          3D

  0  0  0  0  0  0  0  0  0  0999 V3000
M  V30 BEGIN CTAB
M  V30 COUNTS 35 36 0 0 0
M  V30 BEGIN ATOM
M  V30 1 Br -6.7892 -0.308085 -1.2329 0
M  V30 2 C -4.99113 -0.18958 -0.588328 0
M  V30 3 C -3.94204 -0.0455272 -1.46177 0
M  V30 4 C -2.62105 0.0401659 -0.964968 0
M  V30 5 C -2.33612 -0.01451 0.362591 0
M  V30 6 C -3.42006 -0.162664 1.25369 0
M  V30 7 C -4.69139 -0.242976 0.739609 0
M  V30 8 N -3.19463 -0.227111 2.65786 0
M  V30 9 C -1.0068 0.0705761 0.887856 0
M  V30 10 O -0.933747 -0.00118511 2.21053 0
M  V30 11 N 0.241534 0.214012 0.305815 0
M  V30 12 C 0.527676 0.32032 -1.07981 0
M  V30 13 C 2.03956 0.449035 -1.26967 0
M  V30 14 N 2.74792 -0.606219 -0.64014 0
M  V30 15 C 2.46743 -0.744498 0.770161 0
M  V30 16 C 1.42999 0.266907 1.18875 0
M  V30 17 S 4.4155 -0.645378 -0.997756 0
M  V30 18 O 4.69477 -0.8106 -2.44437 0
M  V30 19 O 5.11347 -1.75409 -0.262467 0
M  V30 20 N 5.10227 0.853294 -0.415453 0
M  V30 21 H -4.16516 -0.00220914 -2.51001 0
M  V30 22 H -1.90969 0.149588 -1.74945 0
M  V30 23 H -5.53537 -0.35814 1.43018 0
M  V30 24 H -3.22648 0.641274 3.22165 0
M  V30 25 H -2.99951 -1.13048 3.12143 0
M  V30 26 H 0.253087 -0.613253 -1.61166 0
M  V30 27 H 0.0932848 1.24634 -1.48345 0
M  V30 28 H 2.38665 1.42839 -0.901414 0
M  V30 29 H 2.22956 0.420361 -2.36071 0
M  V30 30 H 3.40098 -0.478848 1.30862 0
M  V30 31 H 2.19789 -1.7631 1.06592 0
M  V30 32 H 1.14111 0.0718667 2.24175 0
M  V30 33 H 1.87488 1.27068 1.05888 0
M  V30 34 H 4.73726 1.6297 -1.04154 0
M  V30 35 H 4.66756 1.02594 0.515474 0
M  V30 END ATOM
M  V30 BEGIN BOND
M  V30 1 1 1 2
M  V30 2 2 2 3
M  V30 3 1 3 4
M  V30 4 2 4 5
M  V30 5 1 5 6
M  V30 6 2 6 7
M  V30 7 1 6 8
M  V30 8 1 5 9
M  V30 9 2 9 10
M  V30 10 1 9 11
M  V30 11 1 11 12
M  V30 12 1 12 13
M  V30 13 1 13 14
M  V30 14 1 14 15
M  V30 15 1 15 16
M  V30 16 1 14 17
M  V30 17 2 17 18
M  V30 18 2 17 19
M  V30 19 1 17 20
M  V30 20 1 7 2
M  V30 21 1 16 11
M  V30 22 1 3 21
M  V30 23 1 4 22
M  V30 24 1 7 23
M  V30 25 1 8 24
M  V30 26 1 8 25
M  V30 27 1 12 26
M  V30 28 1 12 27
M  V30 29 1 13 28
M  V30 30 1 13 29
M  V30 31 1 15 30
M  V30 32 1 15 31
M  V30 33 1 16 32
M  V30 34 1 16 33
M  V30 35 1 20 34
M  V30 36 1 20 35
M  V30 END BOND
M  V30 END CTAB
M  END
