
     RDKit          3D

  0  0  0  0  0  0  0  0  0  0999 V3000
M  V30 BEGIN CTAB
M  V30 COUNTS 42 43 0 0 0
M  V30 BEGIN ATOM
M  V30 1 C -1.48676 1.45773 -3.10077 0
M  V30 2 O -2.07286 1.30328 -1.82375 0
M  V30 3 C -1.43011 0.478904 -0.917098 0
M  V30 4 C -0.255844 -0.178249 -1.23043 0
M  V30 5 C 0.389585 -1.01209 -0.307213 0
M  V30 6 C 1.62659 -1.6866 -0.74133 0
M  V30 7 C 2.82574 -0.853117 -0.779708 0
M  V30 8 C 3.33009 -0.33668 -1.98241 0
M  V30 9 N 4.41643 0.423114 -1.99955 0
M  V30 10 C 5.09209 0.743039 -0.895794 0
M  V30 11 N 6.25997 1.55622 -0.898716 0
M  V30 12 N 4.63687 0.26789 0.255133 0
M  V30 13 C 3.52665 -0.519107 0.347854 0
M  V30 14 N 3.13203 -0.981603 1.62981 0
M  V30 15 C -0.202629 -1.14882 0.935243 0
M  V30 16 C -1.38914 -0.482775 1.24809 0
M  V30 17 O -1.97089 -0.624246 2.48579 0
M  V30 18 C -1.32528 -1.46373 3.41921 0
M  V30 19 C -1.99994 0.327061 0.326541 0
M  V30 20 O -3.14616 0.96786 0.63344 0
M  V30 21 C -4.4556 0.534472 0.478531 0
M  V30 22 C -5.37456 1.59123 0.959911 0
M  V30 23 O -6.75585 1.45947 0.936052 0
M  V30 24 O -4.89657 2.65903 1.4122 0
M  V30 25 H -1.31342 0.450575 -3.53225 0
M  V30 26 H -0.564676 2.07738 -3.07646 0
M  V30 27 H -2.27414 1.91854 -3.7415 0
M  V30 28 H 0.161306 -0.0321497 -2.21917 0
M  V30 29 H 1.80528 -2.51382 0.005109 0
M  V30 30 H 1.51752 -2.15295 -1.75421 0
M  V30 31 H 2.80304 -0.580772 -2.88281 0
M  V30 32 H 6.50434 2.13772 -1.73762 0
M  V30 33 H 6.88349 1.58944 -0.0835207 0
M  V30 34 H 3.23655 -2.0055 1.80966 0
M  V30 35 H 2.75905 -0.373212 2.36768 0
M  V30 36 H 0.271986 -1.79036 1.64689 0
M  V30 37 H -1.95782 -1.68989 4.29728 0
M  V30 38 H -1.18407 -2.45453 2.90525 0
M  V30 39 H -0.333654 -1.10257 3.70977 0
M  V30 40 H -4.73599 0.320747 -0.572667 0
M  V30 41 H -4.69182 -0.381941 1.07558 0
M  V30 42 H -7.36083 2.10099 1.39195 0
M  V30 END ATOM
M  V30 BEGIN BOND
M  V30 1 1 1 2
M  V30 2 1 2 3
M  V30 3 2 3 4
M  V30 4 1 4 5
M  V30 5 1 5 6
M  V30 6 1 6 7
M  V30 7 2 7 8
M  V30 8 1 8 9
M  V30 9 2 9 10
M  V30 10 1 10 11
M  V30 11 1 10 12
M  V30 12 2 12 13
M  V30 13 1 13 14
M  V30 14 2 5 15
M  V30 15 1 15 16
M  V30 16 1 16 17
M  V30 17 1 17 18
M  V30 18 2 16 19
M  V30 19 1 19 20
M  V30 20 1 20 21
M  V30 21 1 21 22
M  V30 22 1 22 23
M  V30 23 2 22 24
M  V30 24 1 19 3
M  V30 25 1 13 7
M  V30 26 1 1 25
M  V30 27 1 1 26
M  V30 28 1 1 27
M  V30 29 1 4 28
M  V30 30 1 6 29
M  V30 31 1 6 30
M  V30 32 1 8 31
M  V30 33 1 11 32
M  V30 34 1 11 33
M  V30 35 1 14 34
M  V30 36 1 14 35
M  V30 37 1 15 36
M  V30 38 1 18 37
M  V30 39 1 18 38
M  V30 40 1 18 39
M  V30 41 1 21 40
M  V30 42 1 21 41
M  V30 43 1 23 42
M  V30 END BOND
M  V30 END CTAB
M  END
