
     RDKit          3D

  0  0  0  0  0  0  0  0  0  0999 V3000
M  V30 BEGIN CTAB
M  V30 COUNTS 37 37 0 0 0
M  V30 BEGIN ATOM
M  V30 1 N 3.80136 0.806396 0.240607 0
M  V30 2 C 2.93742 -0.280763 0.534647 0
M  V30 3 C 1.92001 -0.495987 -0.549633 0
M  V30 4 C 1.04554 -1.67604 -0.183298 0
M  V30 5 C -0.0979718 -1.37798 0.679996 0
M  V30 6 C -0.786356 -0.0822388 0.596839 0
M  V30 7 C 0.141324 1.04826 0.283127 0
M  V30 8 C 1.12204 0.737249 -0.811613 0
M  V30 9 N 1.95683 1.877 -1.02357 0
M  V30 10 C -2.06536 -0.0564499 -0.194263 0
M  V30 11 C -1.97407 -0.433966 -1.62114 0
M  V30 12 C -3.04547 -1.02985 0.478716 0
M  V30 13 C -2.70248 1.30828 -0.0888029 0
M  V30 14 H 4.40046 0.541761 -0.579087 0
M  V30 15 H 4.32375 1.19529 1.02951 0
M  V30 16 H 3.57068 -1.20855 0.568508 0
M  V30 17 H 2.48014 -0.236274 1.54538 0
M  V30 18 H 2.4524 -0.757422 -1.47757 0
M  V30 19 H 0.732348 -2.23261 -1.08999 0
M  V30 20 H 1.7291 -2.39659 0.350258 0
M  V30 21 H 0.201343 -1.58388 1.75412 0
M  V30 22 H -0.887542 -2.17404 0.503455 0
M  V30 23 H -1.16101 0.162829 1.64817 0
M  V30 24 H 0.76707 1.21523 1.20948 0
M  V30 25 H -0.344529 1.9966 0.0622129 0
M  V30 26 H 0.520005 0.598781 -1.76178 0
M  V30 27 H 1.95581 2.55779 -0.229305 0
M  V30 28 H 1.63977 2.41314 -1.84901 0
M  V30 29 H -1.80232 0.425143 -2.30932 0
M  V30 30 H -3.00115 -0.803498 -1.92752 0
M  V30 31 H -1.30794 -1.28047 -1.86634 0
M  V30 32 H -4.09485 -0.7054 0.306139 0
M  V30 33 H -2.84732 -0.980235 1.54839 0
M  V30 34 H -2.88887 -2.06614 0.123074 0
M  V30 35 H -2.26378 2.01865 -0.825558 0
M  V30 36 H -2.63613 1.71493 0.946847 0
M  V30 37 H -3.79025 1.24105 -0.314688 0
M  V30 END ATOM
M  V30 BEGIN BOND
M  V30 1 1 1 2
M  V30 2 1 2 3
M  V30 3 1 3 4
M  V30 4 1 4 5
M  V30 5 1 5 6
M  V30 6 1 6 7
M  V30 7 1 7 8
M  V30 8 1 8 9
M  V30 9 1 6 10
M  V30 10 1 10 11
M  V30 11 1 10 12
M  V30 12 1 10 13
M  V30 13 1 8 3
M  V30 14 1 1 14
M  V30 15 1 1 15
M  V30 16 1 2 16
M  V30 17 1 2 17
M  V30 18 1 3 18
M  V30 19 1 4 19
M  V30 20 1 4 20
M  V30 21 1 5 21
M  V30 22 1 5 22
M  V30 23 1 6 23
M  V30 24 1 7 24
M  V30 25 1 7 25
M  V30 26 1 8 26
M  V30 27 1 9 27
M  V30 28 1 9 28
M  V30 29 1 11 29
M  V30 30 1 11 30
M  V30 31 1 11 31
M  V30 32 1 12 32
M  V30 33 1 12 33
M  V30 34 1 12 34
M  V30 35 1 13 35
M  V30 36 1 13 36
M  V30 37 1 13 37
M  V30 END BOND
M  V30 END CTAB
M  END
