
     RDKit          3D

  0  0  0  0  0  0  0  0  0  0999 V3000
M  V30 BEGIN CTAB
M  V30 COUNTS 29 30 0 0 0
M  V30 BEGIN ATOM
M  V30 1 C 5.80623 -0.14707 0.342577 0
M  V30 2 S 4.57848 -1.41667 0.800046 0
M  V30 3 C 2.95992 -0.841456 0.330431 0
M  V30 4 C 2.2143 -0.121823 1.23038 0
M  V30 5 C 0.94931 0.346696 0.904211 0
M  V30 6 C 0.402977 0.102226 -0.337333 0
M  V30 7 N -0.902969 0.567924 -0.707295 0
M  V30 8 N -2.00214 -0.244073 -0.517705 0
M  V30 9 C -3.14156 0.0977421 -0.066752 0
M  V30 10 C -4.28674 -0.789912 0.12176 0
M  V30 11 N -4.26404 -2.17823 -0.18598 0
M  V30 12 N -5.22043 -0.0552383 0.58894 0
M  V30 13 N -4.82166 1.27709 0.743621 0
M  V30 14 C -3.57727 1.41896 0.361759 0
M  V30 15 N -2.78681 2.60162 0.354323 0
M  V30 16 C 1.16768 -0.625157 -1.23401 0
M  V30 17 C 2.42541 -1.091 -0.909846 0
M  V30 18 H 5.51684 0.814318 0.802923 0
M  V30 19 H 5.84315 -0.0709428 -0.769157 0
M  V30 20 H 6.80478 -0.407013 0.74748 0
M  V30 21 H 2.62208 0.0748615 2.1921 0
M  V30 22 H 0.382461 0.911816 1.63142 0
M  V30 23 H -0.942595 1.52763 -1.11125 0
M  V30 24 H -3.37058 -2.69114 -0.233196 0
M  V30 25 H -5.15293 -2.69368 -0.368051 0
M  V30 26 H -2.16449 2.85051 1.15389 0
M  V30 27 H -2.79947 3.26486 -0.450766 0
M  V30 28 H 0.745107 -0.816551 -2.20151 0
M  V30 29 H 3.01499 -1.6663 -1.63674 0
M  V30 END ATOM
M  V30 BEGIN BOND
M  V30 1 1 1 2
M  V30 2 1 2 3
M  V30 3 2 3 4
M  V30 4 1 4 5
M  V30 5 2 5 6
M  V30 6 1 6 7
M  V30 7 1 7 8
M  V30 8 2 8 9
M  V30 9 1 9 10
M  V30 10 1 10 11
M  V30 11 2 10 12
M  V30 12 1 12 13
M  V30 13 2 13 14
M  V30 14 1 14 15
M  V30 15 1 6 16
M  V30 16 2 16 17
M  V30 17 1 17 3
M  V30 18 1 14 9
M  V30 19 1 1 18
M  V30 20 1 1 19
M  V30 21 1 1 20
M  V30 22 1 4 21
M  V30 23 1 5 22
M  V30 24 1 7 23
M  V30 25 1 11 24
M  V30 26 1 11 25
M  V30 27 1 15 26
M  V30 28 1 15 27
M  V30 29 1 16 28
M  V30 30 1 17 29
M  V30 END BOND
M  V30 END CTAB
M  END
