
     RDKit          3D

  0  0  0  0  0  0  0  0  0  0999 V3000
M  V30 BEGIN CTAB
M  V30 COUNTS 54 57 0 0 0
M  V30 BEGIN ATOM
M  V30 1 C 7.49753 -3.0267 1.85037 0
M  V30 2 O 6.41875 -2.31487 2.37547 0
M  V30 3 C 5.17138 -2.21421 1.80626 0
M  V30 4 C 4.93914 -2.86891 0.603014 0
M  V30 5 C 3.7092 -2.76834 0.0430608 0
M  V30 6 C 2.68926 -2.0319 0.642933 0
M  V30 7 C 2.94823 -1.39335 1.83737 0
M  V30 8 C 4.20204 -1.47982 2.43318 0
M  V30 9 C 1.4014 -2.01823 0.00165645 0
M  V30 10 C 0.714758 -0.977343 -0.333305 0
M  V30 11 N -0.587176 -1.00864 -0.974852 0
M  V30 12 C -1.01996 0.152155 -1.22397 0
M  V30 13 N -0.094964 1.15173 -0.798763 0
M  V30 14 C 1.00711 0.439126 -0.233729 0
M  V30 15 O 2.00442 1.01445 0.236963 0
M  V30 16 C -0.281848 2.55634 -0.934487 0
M  V30 17 C -1.10747 3.26776 -0.0874876 0
M  V30 18 C -1.31274 4.62133 -0.18732 0
M  V30 19 C -0.673283 5.32709 -1.17482 0
M  V30 20 C 0.174051 4.65153 -2.05835 0
M  V30 21 C 0.359384 3.27427 -1.92736 0
M  V30 22 O -0.822646 6.66733 -1.3412 0
M  V30 23 C -1.58595 7.57475 -0.62574 0
M  V30 24 F -2.49104 8.26773 -1.43029 0
M  V30 25 F -0.817971 8.53506 0.0160952 0
M  V30 26 S -2.59958 0.52498 -2.0168 0
M  V30 27 C -3.4754 -1.01168 -2.38083 0
M  V30 28 C -3.91948 -1.75622 -1.20782 0
M  V30 29 N -5.11614 -1.49755 -0.659464 0
M  V30 30 C -5.57309 -2.16766 0.420795 0
M  V30 31 N -6.84026 -1.89398 1.00309 0
M  V30 32 N -4.80395 -3.1204 0.95909 0
M  V30 33 C -3.60077 -3.40369 0.434005 0
M  V30 34 N -3.16113 -2.71205 -0.658439 0
M  V30 35 N -2.77186 -4.41647 0.996778 0
M  V30 36 H 7.32095 -4.13203 1.9088 0
M  V30 37 H 8.38345 -2.80723 2.48246 0
M  V30 38 H 7.68219 -2.80449 0.784105 0
M  V30 39 H 5.73521 -3.45169 0.121946 0
M  V30 40 H 3.50763 -3.2708 -0.894729 0
M  V30 41 H 2.16001 -0.833599 2.32534 0
M  V30 42 H 4.38229 -0.971972 3.36645 0
M  V30 43 H 0.970875 -3.01065 -0.21967 0
M  V30 44 H -1.61403 2.70012 0.697267 0
M  V30 45 H -1.97749 5.06711 0.528445 0
M  V30 46 H 0.65772 5.22271 -2.8158 0
M  V30 47 H 1.02326 2.79887 -2.63423 0
M  V30 48 H -2.13167 7.04597 0.178234 0
M  V30 49 H -2.76203 -1.62397 -3.01169 0
M  V30 50 H -4.32372 -0.773896 -3.08127 0
M  V30 51 H -7.12475 -0.896703 1.13973 0
M  V30 52 H -7.51368 -2.63269 1.30685 0
M  V30 53 H -3.11189 -4.92626 1.83849 0
M  V30 54 H -1.84427 -4.64239 0.574193 0
M  V30 END ATOM
M  V30 BEGIN BOND
M  V30 1 1 1 2
M  V30 2 1 2 3
M  V30 3 2 3 4
M  V30 4 1 4 5
M  V30 5 2 5 6
M  V30 6 1 6 7
M  V30 7 2 7 8
M  V30 8 1 6 9
M  V30 9 2 9 10 CFG=2
M  V30 10 1 10 11
M  V30 11 2 11 12
M  V30 12 1 12 13
M  V30 13 1 13 14
M  V30 14 2 14 15
M  V30 15 1 13 16
M  V30 16 2 16 17
M  V30 17 1 17 18
M  V30 18 2 18 19
M  V30 19 1 19 20
M  V30 20 2 20 21
M  V30 21 1 19 22
M  V30 22 1 22 23
M  V30 23 1 23 24
M  V30 24 1 23 25
M  V30 25 1 12 26
M  V30 26 1 26 27
M  V30 27 1 27 28
M  V30 28 2 28 29
M  V30 29 1 29 30
M  V30 30 1 30 31
M  V30 31 2 30 32
M  V30 32 1 32 33
M  V30 33 2 33 34
M  V30 34 1 33 35
M  V30 35 1 8 3
M  V30 36 1 14 10
M  V30 37 1 21 16
M  V30 38 1 34 28
M  V30 39 1 1 36
M  V30 40 1 1 37
M  V30 41 1 1 38
M  V30 42 1 4 39
M  V30 43 1 5 40
M  V30 44 1 7 41
M  V30 45 1 8 42
M  V30 46 1 9 43
M  V30 47 1 17 44
M  V30 48 1 18 45
M  V30 49 1 20 46
M  V30 50 1 21 47
M  V30 51 1 23 48
M  V30 52 1 27 49
M  V30 53 1 27 50
M  V30 54 1 31 51
M  V30 55 1 31 52
M  V30 56 1 35 53
M  V30 57 1 35 54
M  V30 END BOND
M  V30 END CTAB
M  END
