
     RDKit          3D

  0  0  0  0  0  0  0  0  0  0999 V3000
M  V30 BEGIN CTAB
M  V30 COUNTS 38 40 0 0 0
M  V30 BEGIN ATOM
M  V30 1 N 4.71344 0.412345 -1.5688 0
M  V30 2 C 3.30468 0.241386 -1.36948 0
M  V30 3 C 2.98742 -0.648123 -0.179576 0
M  V30 4 N 1.56465 -0.733919 -0.0847879 0
M  V30 5 C 0.833312 -1.45877 -1.13674 0
M  V30 6 C -0.429318 -0.61069 -1.37402 0
M  V30 7 C -1.2468 -0.811498 -0.105909 0 CFG=1
M  V30 8 C -0.543191 -0.164215 1.00582 0
M  V30 9 C 0.84908 -0.140147 0.985628 0
M  V30 10 C 1.47743 0.477866 2.04161 0
M  V30 11 C 0.771668 1.05793 3.09179 0
M  V30 12 C -0.609252 1.01441 3.07711 0
M  V30 13 C -1.26142 0.401697 2.03121 0
M  V30 14 C -2.64772 -0.386352 -0.253805 0
M  V30 15 C -3.77523 -1.16279 -0.135442 0
M  V30 16 N -4.84374 -0.403607 -0.356738 0
M  V30 17 N -4.457 0.821563 -0.610706 0
M  V30 18 C -3.09968 0.879276 -0.557511 0
M  V30 19 N -2.3332 2.04862 -0.774335 0
M  V30 20 H 5.17259 -0.449539 -1.8451 0
M  V30 21 H 4.85854 1.21752 -2.18833 0
M  V30 22 H 2.93793 -0.302543 -2.28001 0
M  V30 23 H 2.74488 1.18775 -1.34063 0
M  V30 24 H 3.40507 -1.66398 -0.486341 0
M  V30 25 H 3.53979 -0.383709 0.711362 0
M  V30 26 H 0.4591 -2.4147 -0.7017 0
M  V30 27 H 1.41644 -1.60666 -2.04482 0
M  V30 28 H -0.0685165 0.44603 -1.39597 0
M  V30 29 H -0.964469 -0.924992 -2.26983 0
M  V30 30 H -1.23666 -1.92286 0.0778482 0
M  V30 31 H 2.5402 0.542267 2.10589 0
M  V30 32 H 1.27151 1.54427 3.92788 0
M  V30 33 H -1.18596 1.45975 3.88759 0
M  V30 34 H -2.33957 0.387869 2.05389 0
M  V30 35 H -3.81737 -2.22232 0.0974921 0
M  V30 36 H -5.86701 -0.671584 -0.346594 0
M  V30 37 H -2.30026 2.76475 -0.0228631 0
M  V30 38 H -1.82138 2.1777 -1.66508 0
M  V30 END ATOM
M  V30 BEGIN BOND
M  V30 1 1 1 2
M  V30 2 1 2 3
M  V30 3 1 3 4
M  V30 4 1 4 5
M  V30 5 1 5 6
M  V30 6 1 6 7
M  V30 7 1 7 8
M  V30 8 2 8 9
M  V30 9 1 9 10
M  V30 10 2 10 11
M  V30 11 1 11 12
M  V30 12 2 12 13
M  V30 13 1 7 14
M  V30 14 2 14 15
M  V30 15 1 15 16
M  V30 16 1 16 17
M  V30 17 2 17 18
M  V30 18 1 18 19
M  V30 19 1 9 4
M  V30 20 1 18 14
M  V30 21 1 13 8
M  V30 22 1 1 20
M  V30 23 1 1 21
M  V30 24 1 2 22
M  V30 25 1 2 23
M  V30 26 1 3 24
M  V30 27 1 3 25
M  V30 28 1 5 26
M  V30 29 1 5 27
M  V30 30 1 6 28
M  V30 31 1 6 29
M  V30 32 1 7 30 CFG=1
M  V30 33 1 10 31
M  V30 34 1 11 32
M  V30 35 1 12 33
M  V30 36 1 13 34
M  V30 37 1 15 35
M  V30 38 1 16 36
M  V30 39 1 19 37
M  V30 40 1 19 38
M  V30 END BOND
M  V30 END CTAB
M  END
