
     RDKit          3D

  0  0  0  0  0  0  0  0  0  0999 V3000
M  V30 BEGIN CTAB
M  V30 COUNTS 30 30 0 0 0
M  V30 BEGIN ATOM
M  V30 1 N 4.83975 -0.810208 -0.348168 0
M  V30 2 N 3.53823 -1.25416 -0.209312 0
M  V30 3 C 2.45256 -0.357749 0.0390223 0
M  V30 4 C 1.16666 -0.831122 0.191659 0
M  V30 5 C 0.135057 0.0582142 0.437146 0
M  V30 6 N 0.476665 1.37478 0.510224 0
M  V30 7 C 1.70581 1.84265 0.365482 0
M  V30 8 N 2.68518 0.957526 0.129853 0
M  V30 9 N 1.94435 3.26499 0.46636 0
M  V30 10 N -1.21537 -0.352157 0.606181 0
M  V30 11 C -2.25208 0.0522218 -0.302648 0
M  V30 12 C -3.31808 0.879804 0.429969 0
M  V30 13 C -2.90119 -1.2017 -0.886825 0
M  V30 14 C -1.5394 -1.20577 1.74727 0
M  V30 15 H 5.3995 -1.20439 0.442295 0
M  V30 16 H 4.96371 0.206305 -0.391241 0
M  V30 17 H 3.36246 -2.27782 -0.291999 0
M  V30 18 H 0.959623 -1.89485 0.122138 0
M  V30 19 H 2.81907 3.69738 0.111085 0
M  V30 20 H 1.22712 3.87631 0.904202 0
M  V30 21 H -1.83862 0.620685 -1.15511 0
M  V30 22 H -4.29129 0.392503 0.44557 0
M  V30 23 H -2.97962 1.09528 1.46683 0
M  V30 24 H -3.399 1.86585 -0.0925262 0
M  V30 25 H -3.88437 -0.975486 -1.36519 0
M  V30 26 H -2.23761 -1.57093 -1.68851 0
M  V30 27 H -2.99521 -1.97119 -0.0933381 0
M  V30 28 H -0.843654 -0.95521 2.57087 0
M  V30 29 H -1.38657 -2.26285 1.38654 0
M  V30 30 H -2.59367 -1.05889 2.0603 0
M  V30 END ATOM
M  V30 BEGIN BOND
M  V30 1 1 1 2
M  V30 2 1 2 3
M  V30 3 2 3 4
M  V30 4 1 4 5
M  V30 5 2 5 6
M  V30 6 1 6 7
M  V30 7 2 7 8
M  V30 8 1 7 9
M  V30 9 1 5 10
M  V30 10 1 10 11
M  V30 11 1 11 12
M  V30 12 1 11 13
M  V30 13 1 10 14
M  V30 14 1 8 3
M  V30 15 1 1 15
M  V30 16 1 1 16
M  V30 17 1 2 17
M  V30 18 1 4 18
M  V30 19 1 9 19
M  V30 20 1 9 20
M  V30 21 1 11 21
M  V30 22 1 12 22
M  V30 23 1 12 23
M  V30 24 1 12 24
M  V30 25 1 13 25
M  V30 26 1 13 26
M  V30 27 1 13 27
M  V30 28 1 14 28
M  V30 29 1 14 29
M  V30 30 1 14 30
M  V30 END BOND
M  V30 END CTAB
M  END
