
     RDKit          3D

  0  0  0  0  0  0  0  0  0  0999 V3000
M  V30 BEGIN CTAB
M  V30 COUNTS 25 25 0 0 0
M  V30 BEGIN ATOM
M  V30 1 C -3.22232 -0.890102 -0.411165 0
M  V30 2 C -1.73323 -0.706209 -0.404365 0
M  V30 3 C -0.952636 -1.73903 -0.877409 0
M  V30 4 C 0.426481 -1.56488 -0.869487 0
M  V30 5 C 1.0164 -0.418809 -0.413822 0
M  V30 6 C 0.210404 0.592023 0.0511517 0
M  V30 7 C -1.18003 0.458282 0.0608282 0
M  V30 8 N -1.96583 1.53207 0.551394 0
M  V30 9 C 0.85093 1.82639 0.54189 0
M  V30 10 S 2.72746 -0.232307 -0.416718 0
M  V30 11 O 3.22453 0.883741 -1.26665 0
M  V30 12 O 3.36014 -1.49812 -0.930143 0
M  V30 13 N 3.27937 0.0293205 1.20829 0
M  V30 14 H -3.68491 -0.0510064 0.136066 0
M  V30 15 H -3.63184 -0.970644 -1.41584 0
M  V30 16 H -3.50518 -1.81609 0.147035 0
M  V30 17 H -1.36904 -2.67562 -1.25294 0
M  V30 18 H 1.0398 -2.3889 -1.24645 0
M  V30 19 H -2.07065 2.42871 0.0656671 0
M  V30 20 H -2.4581 1.38982 1.45486 0
M  V30 21 H 1.33301 1.70674 1.5312 0
M  V30 22 H 0.0404935 2.59602 0.716633 0
M  V30 23 H 1.51681 2.30766 -0.211457 0
M  V30 24 H 4.19802 -0.46754 1.36614 0
M  V30 25 H 2.54994 -0.331521 1.88528 0
M  V30 END ATOM
M  V30 BEGIN BOND
M  V30 1 1 1 2
M  V30 2 2 2 3
M  V30 3 1 3 4
M  V30 4 2 4 5
M  V30 5 1 5 6
M  V30 6 2 6 7
M  V30 7 1 7 8
M  V30 8 1 6 9
M  V30 9 1 5 10
M  V30 10 2 10 11
M  V30 11 2 10 12
M  V30 12 1 10 13
M  V30 13 1 7 2
M  V30 14 1 1 14
M  V30 15 1 1 15
M  V30 16 1 1 16
M  V30 17 1 3 17
M  V30 18 1 4 18
M  V30 19 1 8 19
M  V30 20 1 8 20
M  V30 21 1 9 21
M  V30 22 1 9 22
M  V30 23 1 9 23
M  V30 24 1 13 24
M  V30 25 1 13 25
M  V30 END BOND
M  V30 END CTAB
M  END
