
     RDKit          3D

  0  0  0  0  0  0  0  0  0  0999 V3000
M  V30 BEGIN CTAB
M  V30 COUNTS 20 20 0 0 0
M  V30 BEGIN ATOM
M  V30 1 N -3.06636 -2.25285 -0.394678 0
M  V30 2 N -2.81367 -0.993944 -0.914331 0
M  V30 3 C -1.9324 -0.164268 -0.436515 0
M  V30 4 S -1.00738 -0.693708 0.966567 0
M  V30 5 C 0.240539 0.435356 1.53366 0
M  V30 6 C 1.39994 0.596551 0.564536 0
M  V30 7 C 1.43831 1.64979 -0.307993 0
M  V30 8 S 2.88318 1.3837 -1.17692 0
M  V30 9 C 3.39802 -0.048842 -0.413882 0
M  V30 10 C 2.41223 -0.280918 0.510403 0
M  V30 11 Br 4.97367 -1.11451 -0.739164 0
M  V30 12 N -1.81292 1.06909 -1.09791 0
M  V30 13 H -3.90334 -2.49057 0.188636 0
M  V30 14 H -2.39229 -3.01541 -0.588824 0
M  V30 15 H -0.149165 1.44168 1.80741 0
M  V30 16 H 0.663076 0.0320378 2.48526 0
M  V30 17 H 0.708662 2.47688 -0.408456 0
M  V30 18 H 2.48575 -1.17592 1.17334 0
M  V30 19 H -1.59573 1.14674 -2.13627 0
M  V30 20 H -1.93012 1.99912 -0.614871 0
M  V30 END ATOM
M  V30 BEGIN BOND
M  V30 1 1 1 2
M  V30 2 2 2 3 CFG=2
M  V30 3 1 3 4
M  V30 4 1 4 5
M  V30 5 1 5 6
M  V30 6 2 6 7
M  V30 7 1 7 8
M  V30 8 1 8 9
M  V30 9 2 9 10
M  V30 10 1 9 11
M  V30 11 1 3 12
M  V30 12 1 10 6
M  V30 13 1 1 13
M  V30 14 1 1 14
M  V30 15 1 5 15
M  V30 16 1 5 16
M  V30 17 1 7 17
M  V30 18 1 10 18
M  V30 19 1 12 19
M  V30 20 1 12 20
M  V30 END BOND
M  V30 END CTAB
M  END
