
     RDKit          3D

  0  0  0  0  0  0  0  0  0  0999 V3000
M  V30 BEGIN CTAB
M  V30 COUNTS 26 26 0 0 0
M  V30 BEGIN ATOM
M  V30 1 N -3.63662 -1.04963 -1.30008 0
M  V30 2 C -2.75823 -0.34661 -0.374361 0
M  V30 3 C -2.05775 -1.39606 0.43865 0
M  V30 4 N -1.15686 -0.770549 1.37306 0
M  V30 5 C 0.0328976 -0.17868 0.944889 0
M  V30 6 C 0.791704 0.519534 1.89349 0
M  V30 7 Cl 0.23566 0.660757 3.55025 0
M  V30 8 C 1.98064 1.09759 1.52083 0
M  V30 9 C 2.40236 0.976709 0.214422 0
M  V30 10 N 3.62173 1.55954 -0.205362 0
M  V30 11 C 1.67531 0.292171 -0.749296 0
M  V30 12 C 0.467609 -0.291582 -0.35714 0
M  V30 13 N 2.12593 0.17911 -2.0866 0 CHG=1
M  V30 14 O 2.93344 1.12515 -2.6318 0 CHG=-1
M  V30 15 O 1.77635 -0.795144 -2.7607 0
M  V30 16 H -4.62797 -0.774186 -1.20643 0
M  V30 17 H -3.30335 -0.913817 -2.29488 0
M  V30 18 H -3.4597 0.200545 0.322115 0
M  V30 19 H -2.06524 0.34354 -0.854885 0
M  V30 20 H -2.83103 -1.98356 0.979104 0
M  V30 21 H -1.44791 -2.0587 -0.232793 0
M  V30 22 H -1.41346 -0.76811 2.39148 0
M  V30 23 H 2.61377 1.65574 2.22462 0
M  V30 24 H 3.66193 2.47298 -0.700653 0
M  V30 25 H 4.52448 1.08088 -0.0260969 0
M  V30 26 H -0.0857022 -0.8376 -1.12524 0
M  V30 END ATOM
M  V30 BEGIN BOND
M  V30 1 1 1 2
M  V30 2 1 2 3
M  V30 3 1 3 4
M  V30 4 1 4 5
M  V30 5 2 5 6
M  V30 6 1 6 7
M  V30 7 1 6 8
M  V30 8 2 8 9
M  V30 9 1 9 10
M  V30 10 1 9 11
M  V30 11 2 11 12
M  V30 12 1 11 13
M  V30 13 1 13 14
M  V30 14 2 13 15
M  V30 15 1 12 5
M  V30 16 1 1 16
M  V30 17 1 1 17
M  V30 18 1 2 18
M  V30 19 1 2 19
M  V30 20 1 3 20
M  V30 21 1 3 21
M  V30 22 1 4 22
M  V30 23 1 8 23
M  V30 24 1 10 24
M  V30 25 1 10 25
M  V30 26 1 12 26
M  V30 END BOND
M  V30 END CTAB
M  END
