
     RDKit          3D

  0  0  0  0  0  0  0  0  0  0999 V3000
M  V30 BEGIN CTAB
M  V30 COUNTS 43 43 0 0 0
M  V30 BEGIN ATOM
M  V30 1 N -1.68739 -2.84856 -3.0389 0
M  V30 2 N -1.65526 -1.83791 -2.05838 0
M  V30 3 C -0.42941 -1.54035 -1.42446 0
M  V30 4 O 0.604707 -2.15463 -1.72259 0
M  V30 5 C -0.346791 -0.460393 -0.362144 0
M  V30 6 C -0.848916 0.78762 -1.10581 0
M  V30 7 C -0.355982 1.05159 -2.36129 0
M  V30 8 S -1.16474 2.49823 -2.77808 0
M  V30 9 C -2.08785 2.69438 -1.33786 0
M  V30 10 N -1.72048 1.64753 -0.634911 0
M  V30 11 N -3.0176 3.7388 -1.00279 0
M  V30 12 C -1.30133 -0.90986 0.64941 0
M  V30 13 C -1.57483 -0.174249 1.88006 0
M  V30 14 C -2.64184 -0.962082 2.62095 0
M  V30 15 O -3.12771 -2.02511 2.17647 0
M  V30 16 O -3.08712 -0.480741 3.82951 0
M  V30 17 C 1.08036 -0.307707 -0.0671109 0
M  V30 18 C 1.56065 0.67535 0.912492 0
M  V30 19 C 3.10763 0.612201 0.981942 0
M  V30 20 C 3.55149 -0.767841 1.40151 0
M  V30 21 C 3.7239 0.956879 -0.33079 0
M  V30 22 H -2.55778 -3.39145 -2.88996 0
M  V30 23 H -0.863111 -3.48964 -2.8998 0
M  V30 24 H -2.56107 -1.36225 -1.86067 0
M  V30 25 H 0.38154 0.455113 -2.93348 0
M  V30 26 H -3.03965 4.07892 -0.0418704 0
M  V30 27 H -3.62482 4.10643 -1.73426 0
M  V30 28 H -2.30263 -1.00864 0.113714 0
M  V30 29 H -1.0719 -1.97523 0.893103 0
M  V30 30 H -0.762866 -0.140023 2.65128 0
M  V30 31 H -1.97113 0.833465 1.80394 0
M  V30 32 H -2.50753 -0.389607 4.65632 0
M  V30 33 H 1.58747 -1.28986 0.203545 0
M  V30 34 H 1.59486 -0.0693824 -1.0551 0
M  V30 35 H 1.27533 0.575921 1.95067 0
M  V30 36 H 1.36646 1.70679 0.498478 0
M  V30 37 H 3.4704 1.31548 1.7579 0
M  V30 38 H 3.01088 -1.14136 2.29712 0
M  V30 39 H 3.58327 -1.49173 0.574544 0
M  V30 40 H 4.62245 -0.653173 1.74147 0
M  V30 41 H 3.21177 1.78599 -0.857181 0
M  V30 42 H 3.81013 0.0403612 -0.94481 0
M  V30 43 H 4.76641 1.31072 -0.152166 0
M  V30 END ATOM
M  V30 BEGIN BOND
M  V30 1 1 1 2
M  V30 2 1 2 3
M  V30 3 2 3 4
M  V30 4 1 3 5
M  V30 5 1 5 6
M  V30 6 2 6 7
M  V30 7 1 7 8
M  V30 8 1 8 9
M  V30 9 2 9 10
M  V30 10 1 9 11
M  V30 11 1 5 12
M  V30 12 1 12 13
M  V30 13 1 13 14
M  V30 14 2 14 15
M  V30 15 1 14 16
M  V30 16 1 5 17
M  V30 17 1 17 18
M  V30 18 1 18 19
M  V30 19 1 19 20
M  V30 20 1 19 21
M  V30 21 1 10 6
M  V30 22 1 1 22
M  V30 23 1 1 23
M  V30 24 1 2 24
M  V30 25 1 7 25
M  V30 26 1 11 26
M  V30 27 1 11 27
M  V30 28 1 12 28
M  V30 29 1 12 29
M  V30 30 1 13 30
M  V30 31 1 13 31
M  V30 32 1 16 32
M  V30 33 1 17 33
M  V30 34 1 17 34
M  V30 35 1 18 35
M  V30 36 1 18 36
M  V30 37 1 19 37
M  V30 38 1 20 38
M  V30 39 1 20 39
M  V30 40 1 20 40
M  V30 41 1 21 41
M  V30 42 1 21 42
M  V30 43 1 21 43
M  V30 END BOND
M  V30 END CTAB
M  END
