
     RDKit          3D

  0  0  0  0  0  0  0  0  0  0999 V3000
M  V30 BEGIN CTAB
M  V30 COUNTS 40 42 0 0 0
M  V30 BEGIN ATOM
M  V30 1 C -4.85035 2.90631 -1.60047 0
M  V30 2 O -3.73705 2.86339 -0.759339 0
M  V30 3 C -3.17067 1.68977 -0.281221 0
M  V30 4 C -3.68155 0.470465 -0.613306 0
M  V30 5 C -3.07641 -0.656948 -0.107963 0
M  V30 6 O -3.5965 -1.88939 -0.446413 0
M  V30 7 C -2.98491 -3.05855 0.0655975 0
M  V30 8 C -1.97665 -0.554098 0.716718 0
M  V30 9 C -1.43811 0.672854 1.06931 0
M  V30 10 C -0.274836 0.793246 1.9411 0
M  V30 11 C 1.01995 0.795641 1.21445 0
M  V30 12 C 1.69143 -0.380783 0.958677 0
M  V30 13 C 2.90711 -0.397716 0.278403 0
M  V30 14 C 3.45141 0.793659 -0.149432 0
M  V30 15 N 2.77836 1.94948 0.10934 0
M  V30 16 C 1.60397 1.96344 0.76676 0
M  V30 17 N 4.62979 0.811951 -0.81241 0
M  V30 18 C 5.25299 -0.357463 -1.04183 0
M  V30 19 N 6.50866 -0.411314 -1.74077 0
M  V30 20 N 4.74307 -1.5384 -0.634363 0
M  V30 21 C 3.57418 -1.57935 0.0256244 0
M  V30 22 N 3.04444 -2.82668 0.451061 0
M  V30 23 C -2.06197 1.78533 0.550517 0
M  V30 24 H -5.44075 3.85836 -1.45276 0
M  V30 25 H -4.53413 2.83425 -2.66328 0
M  V30 26 H -5.59355 2.0976 -1.34342 0
M  V30 27 H -4.54157 0.352897 -1.25665 0
M  V30 28 H -3.12532 -3.06737 1.18058 0
M  V30 29 H -1.90559 -3.00871 -0.198855 0
M  V30 30 H -3.455 -3.97793 -0.327626 0
M  V30 31 H -1.50561 -1.45855 1.11124 0
M  V30 32 H -0.249109 -0.0796416 2.65262 0
M  V30 33 H -0.283766 1.69509 2.59095 0
M  V30 34 H 1.31022 -1.33736 1.27087 0
M  V30 35 H 1.12372 2.94125 0.935666 0
M  V30 36 H 6.62808 -1.18275 -2.43288 0
M  V30 37 H 7.22964 0.306889 -1.53047 0
M  V30 38 H 2.90687 -3.64554 -0.170697 0
M  V30 39 H 2.77365 -2.92938 1.45991 0
M  V30 40 H -1.69415 2.75608 0.785567 0
M  V30 END ATOM
M  V30 BEGIN BOND
M  V30 1 1 1 2
M  V30 2 1 2 3
M  V30 3 2 3 4
M  V30 4 1 4 5
M  V30 5 1 5 6
M  V30 6 1 6 7
M  V30 7 2 5 8
M  V30 8 1 8 9
M  V30 9 1 9 10
M  V30 10 1 10 11
M  V30 11 2 11 12
M  V30 12 1 12 13
M  V30 13 2 13 14
M  V30 14 1 14 15
M  V30 15 2 15 16
M  V30 16 1 14 17
M  V30 17 2 17 18
M  V30 18 1 18 19
M  V30 19 1 18 20
M  V30 20 2 20 21
M  V30 21 1 21 22
M  V30 22 2 9 23
M  V30 23 1 23 3
M  V30 24 1 16 11
M  V30 25 1 21 13
M  V30 26 1 1 24
M  V30 27 1 1 25
M  V30 28 1 1 26
M  V30 29 1 4 27
M  V30 30 1 7 28
M  V30 31 1 7 29
M  V30 32 1 7 30
M  V30 33 1 8 31
M  V30 34 1 10 32
M  V30 35 1 10 33
M  V30 36 1 12 34
M  V30 37 1 16 35
M  V30 38 1 19 36
M  V30 39 1 19 37
M  V30 40 1 22 38
M  V30 41 1 22 39
M  V30 42 1 23 40
M  V30 END BOND
M  V30 END CTAB
M  END
