
     RDKit          3D

  0  0  0  0  0  0  0  0  0  0999 V3000
M  V30 BEGIN CTAB
M  V30 COUNTS 43 46 0 0 0
M  V30 BEGIN ATOM
M  V30 1 N -4.17177 -2.19027 -1.49653 0
M  V30 2 N -3.74963 -1.75311 -0.230456 0
M  V30 3 C -3.47109 -0.397615 0.0449807 0
M  V30 4 N -4.51989 0.457427 -0.0116053 0
M  V30 5 C -4.4814 1.75179 0.232103 0
M  V30 6 N -5.60466 2.6205 0.143055 0
M  V30 7 N -5.54246 3.97548 0.451001 0
M  V30 8 N -3.27652 2.2588 0.570208 0
M  V30 9 C -2.19241 1.44112 0.640561 0
M  V30 10 C -2.19948 0.0981488 0.393713 0
M  V30 11 C -1.02233 -0.55851 0.518704 0
M  V30 12 C -0.633826 -2.00829 0.332132 0
M  V30 13 C 0.643333 -2.17167 -0.453446 0
M  V30 14 N 1.58501 -1.11518 -0.320608 0
M  V30 15 C 1.38378 -0.539676 0.997766 0
M  V30 16 C 0.0654534 0.199541 0.882112 0
M  V30 17 S -0.555332 1.75617 1.03741 0
M  V30 18 C 2.90543 -1.39952 -0.696154 0
M  V30 19 C 3.8613 -0.26731 -0.611488 0
M  V30 20 C 5.19137 -0.565555 -0.360607 0
M  V30 21 C 6.1401 0.423287 -0.27024 0
M  V30 22 C 5.81458 1.75389 -0.423627 0
M  V30 23 C 4.49027 2.05572 -0.675766 0
M  V30 24 C 3.54032 1.05804 -0.764771 0
M  V30 25 H -3.89435 -3.14428 -1.74728 0
M  V30 26 H -5.23771 -2.14642 -1.47842 0
M  V30 27 H -3.64914 -2.47099 0.514568 0
M  V30 28 H -6.50238 2.22102 -0.174894 0
M  V30 29 H -4.63467 4.13829 0.970984 0
M  V30 30 H -5.51113 4.5912 -0.414792 0
M  V30 31 H -0.492972 -2.40235 1.37124 0
M  V30 32 H -1.41254 -2.50627 -0.233678 0
M  V30 33 H 1.14569 -3.0882 -0.0215507 0
M  V30 34 H 0.449654 -2.48176 -1.51869 0
M  V30 35 H 2.14512 0.211147 1.2288 0
M  V30 36 H 1.3057 -1.34501 1.74457 0
M  V30 37 H 3.28029 -2.29107 -0.146866 0
M  V30 38 H 2.88335 -1.66365 -1.79706 0
M  V30 39 H 5.48173 -1.59439 -0.233369 0
M  V30 40 H 7.18868 0.18449 -0.0746994 0
M  V30 41 H 6.55858 2.54381 -0.352398 0
M  V30 42 H 4.20019 3.08545 -0.797503 0
M  V30 43 H 2.49577 1.27576 -0.959447 0
M  V30 END ATOM
M  V30 BEGIN BOND
M  V30 1 1 1 2
M  V30 2 1 2 3
M  V30 3 2 3 4
M  V30 4 1 4 5
M  V30 5 1 5 6
M  V30 6 1 6 7
M  V30 7 2 5 8
M  V30 8 1 8 9
M  V30 9 2 9 10
M  V30 10 1 10 11
M  V30 11 1 11 12
M  V30 12 1 12 13
M  V30 13 1 13 14
M  V30 14 1 14 15
M  V30 15 1 15 16
M  V30 16 1 16 17
M  V30 17 1 14 18
M  V30 18 1 18 19
M  V30 19 2 19 20
M  V30 20 1 20 21
M  V30 21 2 21 22
M  V30 22 1 22 23
M  V30 23 2 23 24
M  V30 24 1 10 3
M  V30 25 2 16 11
M  V30 26 1 24 19
M  V30 27 1 17 9
M  V30 28 1 1 25
M  V30 29 1 1 26
M  V30 30 1 2 27
M  V30 31 1 6 28
M  V30 32 1 7 29
M  V30 33 1 7 30
M  V30 34 1 12 31
M  V30 35 1 12 32
M  V30 36 1 13 33
M  V30 37 1 13 34
M  V30 38 1 15 35
M  V30 39 1 15 36
M  V30 40 1 18 37
M  V30 41 1 18 38
M  V30 42 1 20 39
M  V30 43 1 21 40
M  V30 44 1 22 41
M  V30 45 1 23 42
M  V30 46 1 24 43
M  V30 END BOND
M  V30 END CTAB
M  END
