
     RDKit          3D

  0  0  0  0  0  0  0  0  0  0999 V3000
M  V30 BEGIN CTAB
M  V30 COUNTS 91 96 0 0 0
M  V30 BEGIN ATOM
M  V30 1 N 14.3448 2.62262 -0.1129 0
M  V30 2 C 13.4728 1.92303 0.761688 0
M  V30 3 N 13.5304 2.03425 2.0888 0
M  V30 4 C 12.6894 1.35747 2.89056 0
M  V30 5 N 11.7731 0.554541 2.3682 0
M  V30 6 C 11.6531 0.390757 1.04903 0
M  V30 7 C 12.518 1.08687 0.226558 0
M  V30 8 N 12.1907 0.750128 -1.02642 0
M  V30 9 C 11.1758 -0.110828 -1.00101 0
M  V30 10 N 10.8244 -0.349346 0.278418 0
M  V30 11 C 9.7842 -1.21016 0.762895 0 CFG=2
M  V30 12 O 9.09876 -1.72963 -0.324167 0
M  V30 13 C 7.80558 -1.98018 0.0567224 0 CFG=2
M  V30 14 C 6.8891 -1.38603 -0.991394 0
M  V30 15 O 5.55211 -1.60419 -0.667471 0
M  V30 16 P 4.49867 -0.969051 -1.79109 0
M  V30 17 O 5.4196 -0.178638 -2.98316 0
M  V30 18 O 3.70873 -2.08282 -2.48187 0
M  V30 19 O 3.40043 0.118799 -1.16734 0
M  V30 20 P 2.97024 -0.168304 0.415937 0
M  V30 21 O 3.84311 -1.46505 1.09885 0
M  V30 22 O 3.32849 1.05513 1.26493 0
M  V30 23 O 1.34728 -0.472097 0.644239 0
M  V30 24 P 0.397137 -0.172272 -0.693091 0
M  V30 25 O 1.17853 0.687421 -1.89687 0
M  V30 26 O 0.0115386 -1.52971 -1.2902 0
M  V30 27 O -1.0346 0.551055 -0.185076 0
M  V30 28 P -1.25723 2.07577 -0.867461 0
M  V30 29 O -0.0320206 3.14571 -0.487379 0
M  V30 30 O -2.55059 2.63327 -0.284611 0
M  V30 31 O -1.49919 1.92685 -2.53582 0
M  V30 32 P -2.90453 0.992496 -2.76681 0
M  V30 33 O -2.38586 -0.462889 -3.49035 0
M  V30 34 O -3.82272 1.66091 -3.74681 0
M  V30 35 O -3.62757 0.612642 -1.31936 0
M  V30 36 P -4.56739 -0.774959 -1.36683 0
M  V30 37 O -4.87615 -1.30922 -2.92968 0
M  V30 38 O -3.80743 -1.86856 -0.646281 0
M  V30 39 O -5.98209 -0.482263 -0.499951 0
M  V30 40 C -5.88094 0.592411 0.347285 0
M  V30 41 C -7.20255 0.757177 1.06701 0 CFG=1
M  V30 42 O -8.2377 0.977227 0.190314 0
M  V30 43 C -9.38859 0.578359 0.876107 0 CFG=2
M  V30 44 C -8.93774 -0.782333 1.42057 0 CFG=2
M  V30 45 O -9.75837 -1.21959 2.43565 0
M  V30 46 C -7.53877 -0.412541 1.92989 0 CFG=2
M  V30 47 O -7.60604 -0.109342 3.27459 0
M  V30 48 N -10.4926 0.307922 -0.025442 0
M  V30 49 C -10.489 0.117516 -1.33922 0
M  V30 50 N -11.7468 -0.101588 -1.75461 0
M  V30 51 C -12.5751 -0.0510631 -0.687159 0
M  V30 52 C -11.7603 0.210976 0.408888 0
M  V30 53 N -12.3688 0.30616 1.59331 0
M  V30 54 C -13.689 0.164074 1.7627 0
M  V30 55 N -14.4682 -0.0862629 0.716253 0
M  V30 56 C -13.9291 -0.195137 -0.5021 0
M  V30 57 N -14.7647 -0.461062 -1.60751 0
M  V30 58 C 7.52742 -1.32627 1.36157 0 CFG=1
M  V30 59 O 7.32783 -2.24611 2.38989 0
M  V30 60 C 8.77395 -0.514653 1.62799 0 CFG=1
M  V30 61 O 9.07041 -0.636759 2.98447 0
M  V30 62 H 14.2579 3.63963 -0.31486 0
M  V30 63 H 15.1403 2.1206 -0.607452 0
M  V30 64 H 12.779 1.48416 3.96941 0
M  V30 65 H 10.7199 -0.539432 -1.88412 0
M  V30 66 H 10.2078 -2.08631 1.3205 0
M  V30 67 H 7.68725 -3.08423 0.127084 0
M  V30 68 H 7.10812 -0.300677 -1.03044 0
M  V30 69 H 7.12029 -1.90846 -1.94238 0
M  V30 70 H 5.22253 0.800299 -2.99478 0
M  V30 71 H 3.24469 -2.20436 1.36655 0
M  V30 72 H 1.47325 1.5778 -1.65046 0
M  V30 73 H 0.0841597 3.77467 -1.23747 0
M  V30 74 H -1.73406 -0.266657 -4.21891 0
M  V30 75 H -5.74048 -1.00114 -3.2914 0
M  V30 76 H -5.51581 1.51761 -0.0941168 0
M  V30 77 H -5.12959 0.307928 1.14116 0
M  V30 78 H -7.1395 1.65756 1.74282 0
M  V30 79 H -9.66647 1.24908 1.69175 0
M  V30 80 H -8.85549 -1.46863 0.574426 0
M  V30 81 H -10.2629 -2.01824 2.08478 0
M  V30 82 H -6.8811 -1.2773 1.80532 0
M  V30 83 H -8.11702 -0.851555 3.71905 0
M  V30 84 H -9.61124 0.136258 -1.97316 0
M  V30 85 H -14.1172 0.251415 2.73627 0
M  V30 86 H -15.5602 0.173588 -1.82758 0
M  V30 87 H -14.6146 -1.27955 -2.22083 0
M  V30 88 H 6.62547 -0.674901 1.30551 0
M  V30 89 H 7.48944 -3.18615 2.0759 0
M  V30 90 H 8.64512 0.562228 1.34226 0
M  V30 91 H 8.21657 -0.713796 3.46123 0
M  V30 END ATOM
M  V30 BEGIN BOND
M  V30 1 1 1 2
M  V30 2 2 2 3
M  V30 3 1 3 4
M  V30 4 2 4 5
M  V30 5 1 5 6
M  V30 6 2 6 7
M  V30 7 1 7 8
M  V30 8 2 8 9
M  V30 9 1 9 10
M  V30 10 1 10 11
M  V30 11 1 11 12
M  V30 12 1 12 13
M  V30 13 1 13 14
M  V30 14 1 14 15
M  V30 15 1 15 16
M  V30 16 1 16 17
M  V30 17 2 16 18
M  V30 18 1 16 19
M  V30 19 1 19 20
M  V30 20 1 20 21
M  V30 21 2 20 22
M  V30 22 1 20 23
M  V30 23 1 23 24
M  V30 24 1 24 25
M  V30 25 2 24 26
M  V30 26 1 24 27
M  V30 27 1 27 28
M  V30 28 1 28 29
M  V30 29 2 28 30
M  V30 30 1 28 31
M  V30 31 1 31 32
M  V30 32 1 32 33
M  V30 33 2 32 34
M  V30 34 1 32 35
M  V30 35 1 35 36
M  V30 36 1 36 37
M  V30 37 2 36 38
M  V30 38 1 36 39
M  V30 39 1 39 40
M  V30 40 1 40 41
M  V30 41 1 41 42
M  V30 42 1 42 43
M  V30 43 1 43 44
M  V30 44 1 44 45
M  V30 45 1 44 46
M  V30 46 1 46 47
M  V30 47 1 43 48
M  V30 48 1 48 49
M  V30 49 2 49 50
M  V30 50 1 50 51
M  V30 51 2 51 52
M  V30 52 1 52 53
M  V30 53 2 53 54
M  V30 54 1 54 55
M  V30 55 2 55 56
M  V30 56 1 56 57
M  V30 57 1 13 58
M  V30 58 1 58 59
M  V30 59 1 58 60
M  V30 60 1 60 61
M  V30 61 1 7 2
M  V30 62 1 60 11
M  V30 63 1 10 6
M  V30 64 1 46 41
M  V30 65 1 52 48
M  V30 66 1 56 51
M  V30 67 1 1 62
M  V30 68 1 1 63
M  V30 69 1 4 64
M  V30 70 1 9 65
M  V30 71 1 11 66 CFG=1
M  V30 72 1 13 67 CFG=1
M  V30 73 1 14 68
M  V30 74 1 14 69
M  V30 75 1 17 70
M  V30 76 1 21 71
M  V30 77 1 25 72
M  V30 78 1 29 73
M  V30 79 1 33 74
M  V30 80 1 37 75
M  V30 81 1 40 76
M  V30 82 1 40 77
M  V30 83 1 41 78 CFG=1
M  V30 84 1 43 79 CFG=1
M  V30 85 1 44 80 CFG=3
M  V30 86 1 45 81
M  V30 87 1 46 82 CFG=1
M  V30 88 1 47 83
M  V30 89 1 49 84
M  V30 90 1 54 85
M  V30 91 1 57 86
M  V30 92 1 57 87
M  V30 93 1 58 88 CFG=3
M  V30 94 1 59 89
M  V30 95 1 60 90 CFG=3
M  V30 96 1 61 91
M  V30 END BOND
M  V30 END CTAB
M  END
