
     RDKit          3D

  0  0  0  0  0  0  0  0  0  0999 V3000
M  V30 BEGIN CTAB
M  V30 COUNTS 39 39 0 0 0
M  V30 BEGIN ATOM
M  V30 1 O -2.38637 -0.266917 1.23069 0
M  V30 2 C -2.55292 0.906483 0.881188 0
M  V30 3 C -3.77851 1.66544 0.963864 0
M  V30 4 C -5.11187 1.08795 1.1537 0
M  V30 5 N -5.64708 0.26832 0.141644 0
M  V30 6 C -5.53752 -1.06408 -0.223081 0
M  V30 7 S -6.37931 -1.59165 -1.59662 0
M  V30 8 N -4.81731 -2.11103 0.383545 0
M  V30 9 N -1.38053 1.55848 0.336252 0
M  V30 10 C -0.164306 0.817112 0.239601 0
M  V30 11 C 0.950645 1.66015 -0.347811 0
M  V30 12 C 2.1769 0.843077 -0.445105 0
M  V30 13 C 2.41584 0.088609 -1.57625 0
M  V30 14 C 3.57889 -0.671929 -1.66572 0
M  V30 15 C 4.4904 -0.676226 -0.633989 0
M  V30 16 C 4.22427 0.0815738 0.472367 0
M  V30 17 C 3.08217 0.841293 0.583421 0
M  V30 18 S 5.93442 -1.63694 -0.803742 0
M  V30 19 O 6.24728 -1.74786 -2.29217 0
M  V30 20 O 7.10211 -0.90642 -0.199402 0
M  V30 21 N 5.75814 -3.2268 -0.191776 0
M  V30 22 H -3.80559 2.41178 0.0603239 0
M  V30 23 H -3.65455 2.47831 1.80183 0
M  V30 24 H -5.85412 1.92396 1.43613 0
M  V30 25 H -5.11889 0.487228 2.14948 0
M  V30 26 H -6.32056 0.866099 -0.526153 0
M  V30 27 H -4.62217 -2.07767 1.40867 0
M  V30 28 H -4.45571 -2.93793 -0.12532 0
M  V30 29 H -1.41862 2.54222 0.0200653 0
M  V30 30 H 0.161733 0.515853 1.26443 0
M  V30 31 H -0.2982 -0.128787 -0.336148 0
M  V30 32 H 1.10224 2.50081 0.379432 0
M  V30 33 H 0.627306 2.14081 -1.2752 0
M  V30 34 H 1.69348 0.109883 -2.36449 0
M  V30 35 H 3.76079 -1.26051 -2.55327 0
M  V30 36 H 4.93505 0.0867655 1.29099 0
M  V30 37 H 2.85903 1.45134 1.45941 0
M  V30 38 H 5.64012 -3.22449 0.854815 0
M  V30 39 H 6.56333 -3.80428 -0.466809 0
M  V30 END ATOM
M  V30 BEGIN BOND
M  V30 1 2 1 2
M  V30 2 1 2 3
M  V30 3 1 3 4
M  V30 4 1 4 5
M  V30 5 1 5 6
M  V30 6 2 6 7
M  V30 7 1 6 8
M  V30 8 1 2 9
M  V30 9 1 9 10
M  V30 10 1 10 11
M  V30 11 1 11 12
M  V30 12 2 12 13
M  V30 13 1 13 14
M  V30 14 2 14 15
M  V30 15 1 15 16
M  V30 16 2 16 17
M  V30 17 1 15 18
M  V30 18 2 18 19
M  V30 19 2 18 20
M  V30 20 1 18 21
M  V30 21 1 17 12
M  V30 22 1 3 22
M  V30 23 1 3 23
M  V30 24 1 4 24
M  V30 25 1 4 25
M  V30 26 1 5 26
M  V30 27 1 8 27
M  V30 28 1 8 28
M  V30 29 1 9 29
M  V30 30 1 10 30
M  V30 31 1 10 31
M  V30 32 1 11 32
M  V30 33 1 11 33
M  V30 34 1 13 34
M  V30 35 1 14 35
M  V30 36 1 16 36
M  V30 37 1 17 37
M  V30 38 1 21 38
M  V30 39 1 21 39
M  V30 END BOND
M  V30 END CTAB
M  END
