
     RDKit          3D

  0  0  0  0  0  0  0  0  0  0999 V3000
M  V30 BEGIN CTAB
M  V30 COUNTS 33 35 0 0 0
M  V30 BEGIN ATOM
M  V30 1 N 5.83064 1.16766 -0.103194 0
M  V30 2 C 4.72627 0.429464 -0.571183 0
M  V30 3 N 4.36034 0.588436 -1.93579 0
M  V30 4 N 4.03984 -0.370972 0.161668 0
M  V30 5 C 2.93562 -1.09043 -0.362093 0
M  V30 6 O 3.17293 -2.11818 -1.04273 0
M  V30 7 C 1.56901 -0.640108 -0.110883 0
M  V30 8 C 0.473105 -1.31777 -0.606398 0
M  V30 9 C -0.811213 -0.87528 -0.357385 0
M  V30 10 C -1.00983 0.262806 0.398791 0
M  V30 11 C 0.0938872 0.930677 0.888027 0
M  V30 12 C 1.36952 0.498032 0.645296 0
M  V30 13 C -2.44867 0.482805 0.492763 0
M  V30 14 C -3.20346 1.46269 1.12207 0
M  V30 15 C -4.58199 1.45659 1.0666 0
M  V30 16 C -5.23081 0.475632 0.384255 0
M  V30 17 F -6.59676 0.49749 0.348007 0
M  V30 18 C -4.50335 -0.507192 -0.248044 0
M  V30 19 C -3.12456 -0.504625 -0.194931 0
M  V30 20 C -2.10848 -1.43363 -0.780378 0
M  V30 21 O -2.34186 -2.70464 -0.281085 0
M  V30 22 H 6.73045 0.662328 0.0933653 0
M  V30 23 H 5.8297 2.19081 0.0672972 0
M  V30 24 H 4.7257 -0.11905 -2.61271 0
M  V30 25 H 3.75502 1.37392 -2.25127 0
M  V30 26 H 0.656171 -2.21802 -1.20358 0
M  V30 27 H -0.065168 1.83547 1.48916 0
M  V30 28 H 2.20903 1.05769 1.05209 0
M  V30 29 H -2.6636 2.22573 1.65414 0
M  V30 30 H -5.1416 2.23377 1.56718 0
M  V30 31 H -5.02082 -1.29023 -0.792712 0
M  V30 32 H -2.1345 -1.40618 -1.88648 0
M  V30 33 H -1.49057 -3.23568 -0.235045 0
M  V30 END ATOM
M  V30 BEGIN BOND
M  V30 1 1 1 2
M  V30 2 1 2 3
M  V30 3 2 2 4
M  V30 4 1 4 5
M  V30 5 2 5 6
M  V30 6 1 5 7
M  V30 7 2 7 8
M  V30 8 1 8 9
M  V30 9 2 9 10
M  V30 10 1 10 11
M  V30 11 2 11 12
M  V30 12 1 10 13
M  V30 13 2 13 14
M  V30 14 1 14 15
M  V30 15 2 15 16
M  V30 16 1 16 17
M  V30 17 1 16 18
M  V30 18 2 18 19
M  V30 19 1 19 20
M  V30 20 1 20 21
M  V30 21 1 12 7
M  V30 22 1 19 13
M  V30 23 1 20 9
M  V30 24 1 1 22
M  V30 25 1 1 23
M  V30 26 1 3 24
M  V30 27 1 3 25
M  V30 28 1 8 26
M  V30 29 1 11 27
M  V30 30 1 12 28
M  V30 31 1 14 29
M  V30 32 1 15 30
M  V30 33 1 18 31
M  V30 34 1 20 32
M  V30 35 1 21 33
M  V30 END BOND
M  V30 END CTAB
M  END
