
     RDKit          3D

  0  0  0  0  0  0  0  0  0  0999 V3000
M  V30 BEGIN CTAB
M  V30 COUNTS 59 59 0 0 0
M  V30 BEGIN ATOM
M  V30 1 C 3.40419 1.38322 0.499269 0 CFG=1
M  V30 2 N 4.01552 2.1442 1.57831 0
M  V30 3 C 4.30019 0.377968 -0.0935155 0
M  V30 4 C 4.89914 -0.669633 0.749646 0
M  V30 5 C 3.9953 -1.60886 1.45492 0
M  V30 6 C 5.80408 -1.53842 -0.152772 0
M  V30 7 C 2.04824 0.995031 0.860813 0
M  V30 8 O 1.61834 1.22158 2.02236 0
M  V30 9 N 1.18148 0.370594 -0.0620982 0
M  V30 10 C -0.21036 -0.0171076 0.269349 0 CFG=1
M  V30 11 C -1.16592 0.88894 -0.443551 0
M  V30 12 C -0.809549 2.31368 0.0013317 0
M  V30 13 C -1.72412 3.31974 -0.658772 0
M  V30 14 N -3.11239 3.08923 -0.314875 0
M  V30 15 C -4.13149 3.90702 -0.832016 0
M  V30 16 N -3.92408 5.28584 -1.02539 0
M  V30 17 N -5.26941 3.39542 -1.13521 0
M  V30 18 C -0.384309 -1.4469 0.00733971 0
M  V30 19 O 0.694151 -2.18744 0.176302 0
M  V30 20 N -1.50087 -2.19498 -0.398319 0
M  V30 21 C -1.34576 -3.68127 -0.518214 0
M  V30 22 C -2.69235 -4.15657 -0.885337 0
M  V30 23 C -3.22315 -3.01742 -1.72523 0
M  V30 24 C -2.83294 -1.84963 -0.773895 0 CFG=1
M  V30 25 C -3.7739 -1.87349 0.379334 0
M  V30 26 O -3.33629 -2.18232 1.66902 0
M  V30 27 O -4.98915 -1.6159 0.227992 0
M  V30 28 H 3.32833 2.20921 -0.340569 0
M  V30 29 H 5.05102 2.19993 1.42488 0
M  V30 30 H 3.77922 1.74321 2.51398 0
M  V30 31 H 3.70176 -0.16508 -0.897585 0
M  V30 32 H 5.10907 0.883122 -0.720149 0
M  V30 33 H 5.61288 -0.261447 1.5216 0
M  V30 34 H 3.52317 -2.32132 0.717414 0
M  V30 35 H 4.54931 -2.22574 2.21221 0
M  V30 36 H 3.19476 -1.11167 2.00749 0
M  V30 37 H 6.17992 -0.910599 -0.971326 0
M  V30 38 H 5.16346 -2.33099 -0.600863 0
M  V30 39 H 6.61272 -2.00368 0.42038 0
M  V30 40 H 1.51698 0.164183 -1.02576 0
M  V30 41 H -0.264888 0.141666 1.38928 0
M  V30 42 H -1.13681 0.743683 -1.50523 0
M  V30 43 H -2.20574 0.706098 -0.0265584 0
M  V30 44 H -0.852789 2.36151 1.08613 0
M  V30 45 H 0.213294 2.51133 -0.34726 0
M  V30 46 H -1.44178 4.31741 -0.26973 0
M  V30 47 H -1.59763 3.28936 -1.7405 0
M  V30 48 H -3.41323 2.30707 0.331031 0
M  V30 49 H -3.17948 5.75567 -0.465797 0
M  V30 50 H -4.44747 5.89929 -1.68074 0
M  V30 51 H -5.39605 2.37149 -0.982255 0
M  V30 52 H -0.562564 -3.85097 -1.27873 0
M  V30 53 H -0.970332 -4.04735 0.473591 0
M  V30 54 H -2.64293 -5.11012 -1.45417 0
M  V30 55 H -3.34457 -4.22905 0.0100745 0
M  V30 56 H -4.30355 -3.02457 -1.86238 0
M  V30 57 H -2.61659 -2.90683 -2.6308 0
M  V30 58 H -2.86799 -0.924266 -1.34176 0
M  V30 59 H -3.82605 -2.83308 2.27075 0
M  V30 END ATOM
M  V30 BEGIN BOND
M  V30 1 1 1 2
M  V30 2 1 1 3
M  V30 3 1 3 4
M  V30 4 1 4 5
M  V30 5 1 4 6
M  V30 6 1 1 7
M  V30 7 2 7 8
M  V30 8 1 7 9
M  V30 9 1 9 10
M  V30 10 1 10 11
M  V30 11 1 11 12
M  V30 12 1 12 13
M  V30 13 1 13 14
M  V30 14 1 14 15
M  V30 15 1 15 16
M  V30 16 2 15 17 CFG=2
M  V30 17 1 10 18
M  V30 18 2 18 19
M  V30 19 1 18 20
M  V30 20 1 20 21
M  V30 21 1 21 22
M  V30 22 1 22 23
M  V30 23 1 23 24
M  V30 24 1 24 25
M  V30 25 1 25 26
M  V30 26 2 25 27
M  V30 27 1 24 20
M  V30 28 1 1 28 CFG=3
M  V30 29 1 2 29
M  V30 30 1 2 30
M  V30 31 1 3 31
M  V30 32 1 3 32
M  V30 33 1 4 33
M  V30 34 1 5 34
M  V30 35 1 5 35
M  V30 36 1 5 36
M  V30 37 1 6 37
M  V30 38 1 6 38
M  V30 39 1 6 39
M  V30 40 1 9 40
M  V30 41 1 10 41 CFG=1
M  V30 42 1 11 42
M  V30 43 1 11 43
M  V30 44 1 12 44
M  V30 45 1 12 45
M  V30 46 1 13 46
M  V30 47 1 13 47
M  V30 48 1 14 48
M  V30 49 1 16 49
M  V30 50 1 16 50
M  V30 51 1 17 51
M  V30 52 1 21 52
M  V30 53 1 21 53
M  V30 54 1 22 54
M  V30 55 1 22 55
M  V30 56 1 23 56
M  V30 57 1 23 57
M  V30 58 1 24 58 CFG=3
M  V30 59 1 26 59
M  V30 END BOND
M  V30 END CTAB
M  END
