
     RDKit          3D

  0  0  0  0  0  0  0  0  0  0999 V3000
M  V30 BEGIN CTAB
M  V30 COUNTS 33 35 0 0 0
M  V30 BEGIN ATOM
M  V30 1 N 3.33712 0.242411 -3.13533 0
M  V30 2 C 3.15741 0.154079 -1.72974 0
M  V30 3 N 1.89913 0.215515 -1.26037 0
M  V30 4 C 1.58854 0.143635 0.0555361 0
M  V30 5 C 2.66414 -0.00055855 0.918229 0
M  V30 6 N 2.14079 -0.0497611 2.14394 0
M  V30 7 C 0.795673 0.0597 2.04197 0
M  V30 8 N 0.441852 0.180956 0.740481 0
M  V30 9 C -0.855606 0.321472 0.160772 0 CFG=2
M  V30 10 O -1.88173 0.32029 1.09275 0
M  V30 11 C -3.00146 0.371092 0.256454 0 CFG=2
M  V30 12 C -4.28664 0.181474 1.02512 0
M  V30 13 O -4.4867 1.13346 1.9905 0
M  V30 14 C -2.74546 -0.800492 -0.658513 0 CFG=1
M  V30 15 O -3.34836 -0.596773 -1.89748 0
M  V30 16 C -1.23032 -0.803574 -0.772898 0 CFG=2
M  V30 17 F -0.69592 -2.01557 -0.379409 0
M  V30 18 C 3.96511 -0.0667348 0.469597 0
M  V30 19 N 5.09591 -0.213785 1.31406 0
M  V30 20 N 4.17869 0.0130018 -0.853135 0
M  V30 21 H 3.02597 -0.576362 -3.72728 0
M  V30 22 H 3.7567 1.06475 -3.61751 0
M  V30 23 H 0.125948 0.0492198 2.88705 0
M  V30 24 H -0.974106 1.26911 -0.431536 0
M  V30 25 H -2.96579 1.33664 -0.275058 0
M  V30 26 H -4.35 -0.860245 1.40028 0
M  V30 27 H -5.11258 0.29109 0.275611 0
M  V30 28 H -3.86103 0.994286 2.7221 0
M  V30 29 H -3.11636 -1.71043 -0.148378 0
M  V30 30 H -3.37827 0.39295 -2.08809 0
M  V30 31 H -0.94924 -0.537576 -1.81323 0
M  V30 32 H 5.44849 0.607825 1.85393 0
M  V30 33 H 5.6181 -1.1111 1.43958 0
M  V30 END ATOM
M  V30 BEGIN BOND
M  V30 1 1 1 2
M  V30 2 2 2 3
M  V30 3 1 3 4
M  V30 4 2 4 5
M  V30 5 1 5 6
M  V30 6 2 6 7
M  V30 7 1 7 8
M  V30 8 1 8 9
M  V30 9 1 9 10
M  V30 10 1 10 11
M  V30 11 1 11 12
M  V30 12 1 12 13
M  V30 13 1 11 14
M  V30 14 1 14 15
M  V30 15 1 14 16
M  V30 16 1 16 17
M  V30 17 1 5 18
M  V30 18 1 18 19
M  V30 19 2 18 20
M  V30 20 1 20 2
M  V30 21 1 8 4
M  V30 22 1 16 9
M  V30 23 1 1 21
M  V30 24 1 1 22
M  V30 25 1 7 23
M  V30 26 1 9 24 CFG=3
M  V30 27 1 11 25 CFG=3
M  V30 28 1 12 26
M  V30 29 1 12 27
M  V30 30 1 13 28
M  V30 31 1 14 29 CFG=1
M  V30 32 1 15 30
M  V30 33 1 16 31 CFG=3
M  V30 34 1 19 32
M  V30 35 1 19 33
M  V30 END BOND
M  V30 END CTAB
M  END
