
     RDKit          3D

  0  0  0  0  0  0  0  0  0  0999 V3000
M  V30 BEGIN CTAB
M  V30 COUNTS 63 65 0 0 0
M  V30 BEGIN ATOM
M  V30 1 N 7.64044 -0.30129 -2.46711 0
M  V30 2 C 6.97534 -0.358828 -1.20452 0
M  V30 3 C 5.97559 0.746224 -1.11839 0
M  V30 4 C 5.27044 0.710713 0.21042 0
M  V30 5 C 4.55533 -0.584662 0.386175 0
M  V30 6 C 3.8203 -0.638056 1.72927 0 CFG=2
M  V30 7 C 2.82621 0.423648 1.8496 0
M  V30 8 O 3.03191 1.3595 2.66375 0
M  V30 9 N 1.61729 0.483168 1.10243 0
M  V30 10 C 0.682374 1.58235 1.27194 0
M  V30 11 C -0.273014 1.58162 0.0756871 0
M  V30 12 C -1.15501 0.360524 0.0891652 0
M  V30 13 C -0.263444 -0.816726 0.429221 0
M  V30 14 C 1.21287 -0.517096 0.135981 0
M  V30 15 O -2.12889 0.416294 1.07885 0
M  V30 16 C -3.21993 1.2303 0.709244 0
M  V30 17 C -3.95935 0.657072 -0.459154 0 CFG=1
M  V30 18 C -3.17442 -0.339652 -1.24973 0 CFG=1
M  V30 19 C -1.73721 0.09811 -1.27375 0
M  V30 20 C -3.30078 -1.75478 -0.804988 0
M  V30 21 O -3.63306 -0.303103 -2.58446 0
M  V30 22 N -5.31902 0.253717 -0.202537 0
M  V30 23 C -6.32213 0.550116 -1.08742 0
M  V30 24 C -7.62282 0.201725 -0.910499 0
M  V30 25 F -8.60757 0.499326 -1.79223 0
M  V30 26 C -7.96987 -0.493816 0.225871 0
M  V30 27 O -9.16508 -0.838445 0.432922 0
M  V30 28 N -7.00444 -0.795905 1.10793 0
M  V30 29 C -5.73511 -0.425507 0.880145 0
M  V30 30 O -4.88813 -0.741986 1.74612 0
M  V30 31 N 4.8724 -0.399161 2.72708 0
M  V30 32 H 8.61395 -0.546036 -2.4025 0
M  V30 33 H 7.14971 -0.752648 -3.19673 0
M  V30 34 H 7.75548 -0.299907 -0.421009 0
M  V30 35 H 6.51421 -1.38533 -1.16282 0
M  V30 36 H 5.27498 0.755985 -1.97086 0
M  V30 37 H 6.56665 1.70611 -1.17825 0
M  V30 38 H 6.05319 0.886672 0.988142 0
M  V30 39 H 4.49744 1.52258 0.24097 0
M  V30 40 H 3.91203 -0.764889 -0.469209 0
M  V30 41 H 5.31147 -1.40936 0.436551 0
M  V30 42 H 3.46206 -1.65159 1.8877 0
M  V30 43 H 0.094281 1.38822 2.17945 0
M  V30 44 H 1.17732 2.57059 1.2712 0
M  V30 45 H 0.316972 1.53873 -0.881596 0
M  V30 46 H -0.781993 2.5394 0.0782372 0
M  V30 47 H -0.315591 -1.04519 1.50765 0
M  V30 48 H -0.516508 -1.71117 -0.177568 0
M  V30 49 H 1.75919 -1.4715 0.262737 0
M  V30 50 H 1.36762 -0.205095 -0.915617 0
M  V30 51 H -3.82186 1.44747 1.59807 0
M  V30 52 H -2.74013 2.23027 0.477846 0
M  V30 53 H -4.05809 1.53056 -1.18425 0
M  V30 54 H -1.68621 1.01968 -1.92403 0
M  V30 55 H -1.14522 -0.663731 -1.84407 0
M  V30 56 H -2.75145 -2.37215 -1.57801 0
M  V30 57 H -4.36441 -2.1016 -0.905327 0
M  V30 58 H -2.85546 -2.01672 0.149989 0
M  V30 59 H -4.51277 -0.781259 -2.65073 0
M  V30 60 H -6.03446 1.10069 -1.98211 0
M  V30 61 H -7.27931 -1.33068 1.97916 0
M  V30 62 H 5.56527 -1.20018 2.73396 0
M  V30 63 H 4.47041 -0.373318 3.69825 0
M  V30 END ATOM
M  V30 BEGIN BOND
M  V30 1 1 1 2
M  V30 2 1 2 3
M  V30 3 1 3 4
M  V30 4 1 4 5
M  V30 5 1 5 6
M  V30 6 1 6 7
M  V30 7 2 7 8
M  V30 8 1 7 9
M  V30 9 1 9 10
M  V30 10 1 10 11
M  V30 11 1 11 12
M  V30 12 1 12 13
M  V30 13 1 13 14
M  V30 14 1 12 15
M  V30 15 1 15 16
M  V30 16 1 16 17
M  V30 17 1 17 18
M  V30 18 1 18 19
M  V30 19 1 18 20
M  V30 20 1 18 21 CFG=3
M  V30 21 1 17 22
M  V30 22 1 22 23
M  V30 23 2 23 24
M  V30 24 1 24 25
M  V30 25 1 24 26
M  V30 26 2 26 27
M  V30 27 1 26 28
M  V30 28 1 28 29
M  V30 29 2 29 30
M  V30 30 1 6 31
M  V30 31 1 14 9
M  V30 32 1 29 22
M  V30 33 1 19 12
M  V30 34 1 1 32
M  V30 35 1 1 33
M  V30 36 1 2 34
M  V30 37 1 2 35
M  V30 38 1 3 36
M  V30 39 1 3 37
M  V30 40 1 4 38
M  V30 41 1 4 39
M  V30 42 1 5 40
M  V30 43 1 5 41
M  V30 44 1 6 42 CFG=1
M  V30 45 1 10 43
M  V30 46 1 10 44
M  V30 47 1 11 45
M  V30 48 1 11 46
M  V30 49 1 13 47
M  V30 50 1 13 48
M  V30 51 1 14 49
M  V30 52 1 14 50
M  V30 53 1 16 51
M  V30 54 1 16 52
M  V30 55 1 17 53 CFG=3
M  V30 56 1 19 54
M  V30 57 1 19 55
M  V30 58 1 20 56
M  V30 59 1 20 57
M  V30 60 1 20 58
M  V30 61 1 21 59
M  V30 62 1 23 60
M  V30 63 1 28 61
M  V30 64 1 31 62
M  V30 65 1 31 63
M  V30 END BOND
M  V30 END CTAB
M  END
