
     RDKit          3D

  0  0  0  0  0  0  0  0  0  0999 V3000
M  V30 BEGIN CTAB
M  V30 COUNTS 24 24 0 0 0
M  V30 BEGIN ATOM
M  V30 1 C -3.55397 -0.526154 -0.291474 0
M  V30 2 C -2.28204 -1.30988 -0.232332 0
M  V30 3 C -1.08231 -0.455432 -0.184726 0
M  V30 4 C 0.153699 -1.06071 -0.128065 0
M  V30 5 C 1.32763 -0.33911 -0.0808957 0
M  V30 6 C 2.59795 -1.10302 -0.0219361 0
M  V30 7 N 3.75604 -0.250646 0.024406 0
M  V30 8 C 1.25215 1.02858 -0.0911768 0
M  V30 9 C 0.00223837 1.63307 -0.148437 0
M  V30 10 N -1.12009 0.886489 -0.19324 0
M  V30 11 N -0.0634881 3.05335 -0.158549 0
M  V30 12 H -3.83842 -0.124731 0.690302 0
M  V30 13 H -3.47747 0.21838 -1.08913 0
M  V30 14 H -4.36721 -1.24403 -0.595515 0
M  V30 15 H -2.25924 -2.02446 0.61858 0
M  V30 16 H -2.218 -1.91563 -1.17504 0
M  V30 17 H 0.198013 -2.16107 -0.120501 0
M  V30 18 H 2.62484 -1.74568 -0.923598 0
M  V30 19 H 2.53662 -1.77157 0.859928 0
M  V30 20 H 3.69713 0.473864 0.740244 0
M  V30 21 H 4.1253 0.0260104 -0.891916 0
M  V30 22 H 2.17607 1.57681 -0.0539718 0
M  V30 23 H -0.351775 3.50546 -1.05909 0
M  V30 24 H 0.166332 3.63012 0.698256 0
M  V30 END ATOM
M  V30 BEGIN BOND
M  V30 1 1 1 2
M  V30 2 1 2 3
M  V30 3 2 3 4
M  V30 4 1 4 5
M  V30 5 1 5 6
M  V30 6 1 6 7
M  V30 7 2 5 8
M  V30 8 1 8 9
M  V30 9 2 9 10
M  V30 10 1 9 11
M  V30 11 1 10 3
M  V30 12 1 1 12
M  V30 13 1 1 13
M  V30 14 1 1 14
M  V30 15 1 2 15
M  V30 16 1 2 16
M  V30 17 1 4 17
M  V30 18 1 6 18
M  V30 19 1 6 19
M  V30 20 1 7 20
M  V30 21 1 7 21
M  V30 22 1 8 22
M  V30 23 1 11 23
M  V30 24 1 11 24
M  V30 END BOND
M  V30 END CTAB
M  END
