
     RDKit          3D

  0  0  0  0  0  0  0  0  0  0999 V3000
M  V30 BEGIN CTAB
M  V30 COUNTS 20 20 0 0 0
M  V30 BEGIN ATOM
M  V30 1 F 4.37791 -0.411764 -0.636843 0
M  V30 2 C 3.5047 0.471823 0.0112419 0
M  V30 3 O 2.40881 -0.270745 0.442895 0
M  V30 4 C 1.08878 -0.0699715 0.160904 0
M  V30 5 C 0.641342 0.961177 -0.63988 0
M  V30 6 C -0.704233 1.11597 -0.890822 0
M  V30 7 C -1.63712 0.257397 -0.357543 0
M  V30 8 C -1.17826 -0.786152 0.453499 0
M  V30 9 C 0.167854 -0.945723 0.707987 0
M  V30 10 N -2.09126 -1.70914 1.03597 0
M  V30 11 N -3.02143 0.425562 -0.622241 0
M  V30 12 F 4.18883 0.95762 1.12228 0
M  V30 13 H 3.28615 1.3246 -0.635474 0
M  V30 14 H 1.32709 1.6562 -1.07867 0
M  V30 15 H -1.01218 1.93161 -1.51956 0
M  V30 16 H 0.517412 -1.7543 1.33579 0
M  V30 17 H -2.97929 -1.98407 0.549035 0
M  V30 18 H -1.88589 -2.13899 1.98322 0
M  V30 19 H -3.6258 0.754792 0.159354 0
M  V30 20 H -3.37341 0.214092 -1.58115 0
M  V30 END ATOM
M  V30 BEGIN BOND
M  V30 1 1 1 2
M  V30 2 1 2 3
M  V30 3 1 3 4
M  V30 4 2 4 5
M  V30 5 1 5 6
M  V30 6 2 6 7
M  V30 7 1 7 8
M  V30 8 2 8 9
M  V30 9 1 8 10
M  V30 10 1 7 11
M  V30 11 1 2 12
M  V30 12 1 9 4
M  V30 13 1 2 13
M  V30 14 1 5 14
M  V30 15 1 6 15
M  V30 16 1 9 16
M  V30 17 1 10 17
M  V30 18 1 10 18
M  V30 19 1 11 19
M  V30 20 1 11 20
M  V30 END BOND
M  V30 END CTAB
M  END
