
     RDKit          3D

  0  0  0  0  0  0  0  0  0  0999 V3000
M  V30 BEGIN CTAB
M  V30 COUNTS 26 26 0 0 0
M  V30 BEGIN ATOM
M  V30 1 N 4.45635 1.00664 -0.768026 0
M  V30 2 O 3.11194 0.869684 -0.680241 0
M  V30 3 C 2.85814 -0.213615 0.122062 0
M  V30 4 C 1.40798 -0.501314 0.320783 0 CFG=1
M  V30 5 N 0.671391 0.562338 0.925109 0
M  V30 6 C -0.749293 0.500924 0.933359 0
M  V30 7 O -1.42949 1.43932 1.43061 0
M  V30 8 C -1.42245 -0.688977 0.345587 0 CFG=1
M  V30 9 C -2.886 -0.459105 0.115983 0
M  V30 10 O -3.07618 0.586995 -0.752251 0
M  V30 11 N -4.42914 0.733701 -0.910255 0
M  V30 12 N -0.710738 -1.00592 -0.87765 0
M  V30 13 C 0.704703 -0.89699 -0.922845 0
M  V30 14 O 1.40034 -1.11313 -1.94471 0
M  V30 15 H 4.71467 1.99196 -0.711735 0
M  V30 16 H 4.9475 0.493179 -0.00836342 0
M  V30 17 H 3.33637 -1.13032 -0.284179 0
M  V30 18 H 3.31001 -0.0537302 1.12288 0
M  V30 19 H 1.33954 -1.38419 1.01402 0
M  V30 20 H 1.12913 1.40407 1.3727 0
M  V30 21 H -1.2423 -1.53834 1.03954 0
M  V30 22 H -3.32087 -1.41968 -0.230832 0
M  V30 23 H -3.3469 -0.255639 1.10466 0
M  V30 24 H -4.62986 1.65807 -1.34387 0
M  V30 25 H -4.91711 0.726396 0.0276835 0
M  V30 26 H -1.22771 -1.31232 -1.72221 0
M  V30 END ATOM
M  V30 BEGIN BOND
M  V30 1 1 1 2
M  V30 2 1 2 3
M  V30 3 1 3 4
M  V30 4 1 4 5
M  V30 5 1 5 6
M  V30 6 2 6 7
M  V30 7 1 6 8
M  V30 8 1 8 9
M  V30 9 1 9 10
M  V30 10 1 10 11
M  V30 11 1 8 12
M  V30 12 1 12 13
M  V30 13 2 13 14
M  V30 14 1 13 4
M  V30 15 1 1 15
M  V30 16 1 1 16
M  V30 17 1 3 17
M  V30 18 1 3 18
M  V30 19 1 4 19 CFG=1
M  V30 20 1 5 20
M  V30 21 1 8 21 CFG=1
M  V30 22 1 9 22
M  V30 23 1 9 23
M  V30 24 1 11 24
M  V30 25 1 11 25
M  V30 26 1 12 26
M  V30 END BOND
M  V30 END CTAB
M  END
