
     RDKit          3D

  0  0  0  0  0  0  0  0  0  0999 V3000
M  V30 BEGIN CTAB
M  V30 COUNTS 60 63 0 0 0
M  V30 BEGIN ATOM
M  V30 1 C -3.05417 1.77206 -3.14995 0
M  V30 2 O -3.21304 1.35624 -1.80732 0
M  V30 3 C -2.19143 0.723783 -1.11666 0
M  V30 4 C -2.30674 0.317779 0.183888 0
M  V30 5 O -3.41235 0.496915 0.915841 0
M  V30 6 C -4.58738 1.08496 0.680259 0
M  V30 7 C -4.98385 2.05848 1.83098 0
M  V30 8 C -6.33726 2.48099 1.24986 0
M  V30 9 C -6.93845 1.17135 0.878289 0
M  V30 10 C -5.80292 0.142993 0.83295 0
M  V30 11 C -1.17477 -0.323968 0.759451 0
M  V30 12 C -0.031462 -0.539645 0.0924182 0
M  V30 13 C 0.0553069 -0.111291 -1.23248 0
M  V30 14 C -1.01807 0.52064 -1.84268 0
M  V30 15 C 1.19345 -1.17162 0.637985 0 CFG=2
M  V30 16 C 1.21618 -2.58386 0.140915 0
M  V30 17 C 1.68859 -3.53347 1.22633 0
M  V30 18 C 2.91655 -2.98857 1.88473 0 CFG=2
M  V30 19 N 3.39321 -3.96917 2.85958 0
M  V30 20 C 2.70273 -1.64447 2.48217 0
M  V30 21 C 1.37597 -1.02344 2.09988 0
M  V30 22 C 2.38193 -0.519022 -0.0186793 0
M  V30 23 C 3.31115 0.01047 -0.581752 0
M  V30 24 C 4.38051 0.639034 -1.26655 0
M  V30 25 C 5.67089 0.141678 -1.2527 0
M  V30 26 N 6.65858 0.768311 -1.91947 0
M  V30 27 C 6.45062 1.88196 -2.61596 0
M  V30 28 N 7.52006 2.53844 -3.33189 0
M  V30 29 N 5.20352 2.39315 -2.65073 0
M  V30 30 C 4.1825 1.80877 -2.00494 0
M  V30 31 H -3.95302 2.34586 -3.42769 0
M  V30 32 H -2.14934 2.38317 -3.19441 0
M  V30 33 H -2.94013 0.873096 -3.78252 0
M  V30 34 H -4.78405 1.67299 -0.230791 0
M  V30 35 H -5.18529 1.50852 2.75831 0
M  V30 36 H -4.29718 2.89203 1.90131 0
M  V30 37 H -6.93223 3.08996 1.94347 0
M  V30 38 H -6.10566 3.01586 0.304675 0
M  V30 39 H -7.38029 1.18746 -0.155099 0
M  V30 40 H -7.69059 0.880556 1.62941 0
M  V30 41 H -5.83088 -0.462232 -0.0646112 0
M  V30 42 H -5.6823 -0.411538 1.76862 0
M  V30 43 H -1.27449 -0.638149 1.77962 0
M  V30 44 H 0.959935 -0.253432 -1.80442 0
M  V30 45 H -0.950219 0.843155 -2.86997 0
M  V30 46 H 0.150012 -2.91323 -0.0910651 0
M  V30 47 H 1.86158 -2.71414 -0.759402 0
M  V30 48 H 0.887811 -3.59582 1.99397 0
M  V30 49 H 1.95909 -4.49806 0.741173 0
M  V30 50 H 3.76311 -2.93909 1.13528 0
M  V30 51 H 4.41702 -4.07684 2.86089 0
M  V30 52 H 2.96604 -4.90733 2.6812 0
M  V30 53 H 3.52743 -0.984288 2.20561 0
M  V30 54 H 2.72565 -1.71386 3.59542 0
M  V30 55 H 1.43223 0.0587884 2.32427 0
M  V30 56 H 0.534336 -1.48226 2.69018 0
M  V30 57 H 5.82543 -0.759683 -0.663913 0
M  V30 58 H 7.49077 2.41548 -4.36897 0
M  V30 59 H 8.25233 3.09114 -2.83537 0
M  V30 60 H 3.15305 2.1924 -2.02893 0
M  V30 END ATOM
M  V30 BEGIN BOND
M  V30 1 1 1 2
M  V30 2 1 2 3
M  V30 3 2 3 4
M  V30 4 1 4 5
M  V30 5 1 5 6
M  V30 6 1 6 7
M  V30 7 1 7 8
M  V30 8 1 8 9
M  V30 9 1 9 10
M  V30 10 1 4 11
M  V30 11 2 11 12
M  V30 12 1 12 13
M  V30 13 2 13 14
M  V30 14 1 12 15
M  V30 15 1 15 16
M  V30 16 1 16 17
M  V30 17 1 17 18
M  V30 18 1 18 19
M  V30 19 1 18 20
M  V30 20 1 20 21
M  V30 21 1 15 22 CFG=3
M  V30 22 3 22 23
M  V30 23 1 23 24
M  V30 24 2 24 25
M  V30 25 1 25 26
M  V30 26 2 26 27
M  V30 27 1 27 28
M  V30 28 1 27 29
M  V30 29 2 29 30
M  V30 30 1 14 3
M  V30 31 1 21 15
M  V30 32 1 30 24
M  V30 33 1 10 6
M  V30 34 1 1 31
M  V30 35 1 1 32
M  V30 36 1 1 33
M  V30 37 1 6 34
M  V30 38 1 7 35
M  V30 39 1 7 36
M  V30 40 1 8 37
M  V30 41 1 8 38
M  V30 42 1 9 39
M  V30 43 1 9 40
M  V30 44 1 10 41
M  V30 45 1 10 42
M  V30 46 1 11 43
M  V30 47 1 13 44
M  V30 48 1 14 45
M  V30 49 1 16 46
M  V30 50 1 16 47
M  V30 51 1 17 48
M  V30 52 1 17 49
M  V30 53 1 18 50 CFG=3
M  V30 54 1 19 51
M  V30 55 1 19 52
M  V30 56 1 20 53
M  V30 57 1 20 54
M  V30 58 1 21 55
M  V30 59 1 21 56
M  V30 60 1 25 57
M  V30 61 1 28 58
M  V30 62 1 28 59
M  V30 63 1 30 60
M  V30 END BOND
M  V30 END CTAB
M  END
