
     RDKit          3D

  0  0  0  0  0  0  0  0  0  0999 V3000
M  V30 BEGIN CTAB
M  V30 COUNTS 28 28 0 0 0
M  V30 BEGIN ATOM
M  V30 1 C -3.07725 0.708198 -1.76956 0
M  V30 2 O -1.87135 0.695655 -1.04 0
M  V30 3 C -2.01232 -0.142747 0.0541437 0 CFG=1
M  V30 4 C -1.01522 -1.27497 -0.0276322 0 CFG=1
M  V30 5 C 0.37293 -0.695126 -0.031041 0
M  V30 6 N 1.20504 -0.550249 -1.0581 0
M  V30 7 N 2.32352 0.00282574 -0.626616 0
M  V30 8 C 2.21406 0.218667 0.696297 0
M  V30 9 N 1.00187 -0.21737 1.05482 0
M  V30 10 N 3.21492 0.80292 1.53423 0
M  V30 11 C 3.51638 0.34969 -1.39525 0
M  V30 12 N -1.13515 -2.16321 1.09275 0
M  V30 13 C -1.76454 0.689064 1.29334 0
M  V30 14 H -3.88572 1.07539 -1.11559 0
M  V30 15 H -3.34721 -0.338551 -2.06185 0
M  V30 16 H -2.9877 1.33386 -2.66797 0
M  V30 17 H -3.03116 -0.581667 0.0690669 0
M  V30 18 H -1.19927 -1.85757 -0.947554 0
M  V30 19 H 3.42465 0.343267 2.43104 0
M  V30 20 H 3.71231 1.66528 1.24195 0
M  V30 21 H 4.44156 0.0919673 -0.837427 0
M  V30 22 H 3.48707 -0.0862466 -2.40494 0
M  V30 23 H 3.50106 1.46857 -1.54003 0
M  V30 24 H -0.216018 -2.42212 1.46951 0
M  V30 25 H -1.79156 -1.86362 1.82265 0
M  V30 26 H -2.70833 1.18741 1.58789 0
M  V30 27 H -1.38586 0.109875 2.1429 0
M  V30 28 H -0.986707 1.45082 1.03298 0
M  V30 END ATOM
M  V30 BEGIN BOND
M  V30 1 1 1 2
M  V30 2 1 2 3
M  V30 3 1 3 4
M  V30 4 1 4 5
M  V30 5 2 5 6
M  V30 6 1 6 7
M  V30 7 1 7 8
M  V30 8 2 8 9
M  V30 9 1 8 10
M  V30 10 1 7 11
M  V30 11 1 4 12
M  V30 12 1 3 13
M  V30 13 1 9 5
M  V30 14 1 1 14
M  V30 15 1 1 15
M  V30 16 1 1 16
M  V30 17 1 3 17 CFG=1
M  V30 18 1 4 18 CFG=3
M  V30 19 1 10 19
M  V30 20 1 10 20
M  V30 21 1 11 21
M  V30 22 1 11 22
M  V30 23 1 11 23
M  V30 24 1 12 24
M  V30 25 1 12 25
M  V30 26 1 13 26
M  V30 27 1 13 27
M  V30 28 1 13 28
M  V30 END BOND
M  V30 END CTAB
M  END
