
     RDKit          3D

  0  0  0  0  0  0  0  0  0  0999 V3000
M  V30 BEGIN CTAB
M  V30 COUNTS 25 26 0 0 0
M  V30 BEGIN ATOM
M  V30 1 N -4.30247 -0.274243 0.0655148 0
M  V30 2 C -2.92888 -0.401361 0.418244 0
M  V30 3 C -1.99294 -0.752958 -0.746342 0
M  V30 4 N -1.01396 0.0927274 -0.0917246 0
M  V30 5 C -2.12104 0.898701 0.388922 0
M  V30 6 C 0.405254 0.0770104 -0.00295538 0
M  V30 7 C 1.11233 1.02651 0.704324 0
M  V30 8 C 2.4882 1.03047 0.80371 0
M  V30 9 C 3.18398 0.0301567 0.159781 0
M  V30 10 C 2.52766 -0.937704 -0.556647 0
M  V30 11 C 1.13741 -0.907265 -0.633222 0
M  V30 12 N 4.60856 0.063627 0.283044 0
M  V30 13 H -4.65021 0.701655 0.133746 0
M  V30 14 H -4.87027 -0.924916 0.652976 0
M  V30 15 H -2.69207 -0.953595 1.33594 0
M  V30 16 H -1.74947 -1.80664 -0.835176 0
M  V30 17 H -2.34207 -0.249325 -1.67347 0
M  V30 18 H -2.43091 1.60311 -0.392349 0
M  V30 19 H -1.96709 1.33975 1.4 0
M  V30 20 H 0.54476 1.79991 1.20009 0
M  V30 21 H 3.02646 1.79689 1.37232 0
M  V30 22 H 3.11857 -1.69798 -1.04172 0
M  V30 23 H 0.681028 -1.6971 -1.2123 0
M  V30 24 H 5.03803 -0.201616 1.19049 0
M  V30 25 H 5.18912 0.344175 -0.510378 0
M  V30 END ATOM
M  V30 BEGIN BOND
M  V30 1 1 1 2
M  V30 2 1 2 3
M  V30 3 1 3 4
M  V30 4 1 4 5
M  V30 5 1 4 6
M  V30 6 2 6 7
M  V30 7 1 7 8
M  V30 8 2 8 9
M  V30 9 1 9 10
M  V30 10 2 10 11
M  V30 11 1 9 12
M  V30 12 1 5 2
M  V30 13 1 11 6
M  V30 14 1 1 13
M  V30 15 1 1 14
M  V30 16 1 2 15
M  V30 17 1 3 16
M  V30 18 1 3 17
M  V30 19 1 5 18
M  V30 20 1 5 19
M  V30 21 1 7 20
M  V30 22 1 8 21
M  V30 23 1 10 22
M  V30 24 1 11 23
M  V30 25 1 12 24
M  V30 26 1 12 25
M  V30 END BOND
M  V30 END CTAB
M  END
