
     RDKit          3D

  0  0  0  0  0  0  0  0  0  0999 V3000
M  V30 BEGIN CTAB
M  V30 COUNTS 33 34 0 0 0
M  V30 BEGIN ATOM
M  V30 1 N -1.77584 2.05616 -1.19512 0
M  V30 2 C -2.20648 0.987034 -0.405685 0
M  V30 3 C -1.51747 0.750118 0.76508 0
M  V30 4 S -0.0737828 1.77044 1.07817 0
M  V30 5 C 1.37045 0.792457 0.573615 0
M  V30 6 C 2.49957 1.38103 0.0866726 0
M  V30 7 N 2.53012 2.80134 -0.0190087 0
M  V30 8 C 3.57241 0.586437 -0.286809 0
M  V30 9 C 3.54855 -0.775324 -0.179584 0
M  V30 10 C 2.40956 -1.37116 0.308186 0
M  V30 11 C 1.35682 -0.587038 0.672045 0
M  V30 12 C 4.76296 -1.51333 -0.599515 0
M  V30 13 F 4.70204 -2.75181 -0.0266166 0
M  V30 14 F 5.90224 -0.823332 -0.299091 0
M  V30 15 F 4.70491 -1.57859 -2.02006 0
M  V30 16 C -1.92147 -0.230433 1.60601 0
M  V30 17 C -3.01805 -1.00719 1.31556 0
M  V30 18 C -3.70044 -0.757588 0.143781 0
M  V30 19 C -3.30821 0.226111 -0.712217 0
M  V30 20 C -4.86744 -1.60632 -0.245312 0
M  V30 21 F -4.31623 -2.7502 -0.807755 0
M  V30 22 F -5.59992 -1.89102 0.882285 0
M  V30 23 F -5.67838 -0.970655 -1.15434 0
M  V30 24 H -2.29352 2.95324 -1.19436 0
M  V30 25 H -0.923293 1.97314 -1.76248 0
M  V30 26 H 2.54395 3.21438 -0.971581 0
M  V30 27 H 2.5066 3.37358 0.861952 0
M  V30 28 H 4.47252 1.08749 -0.665952 0
M  V30 29 H 2.38482 -2.47637 0.376445 0
M  V30 30 H 0.472477 -1.11792 1.06393 0
M  V30 31 H -1.3811 -0.413912 2.53457 0
M  V30 32 H -3.35429 -1.81881 1.94807 0
M  V30 33 H -3.80409 0.488054 -1.6709 0
M  V30 END ATOM
M  V30 BEGIN BOND
M  V30 1 1 1 2
M  V30 2 2 2 3
M  V30 3 1 3 4
M  V30 4 1 4 5
M  V30 5 2 5 6
M  V30 6 1 6 7
M  V30 7 1 6 8
M  V30 8 2 8 9
M  V30 9 1 9 10
M  V30 10 2 10 11
M  V30 11 1 9 12
M  V30 12 1 12 13
M  V30 13 1 12 14
M  V30 14 1 12 15
M  V30 15 1 3 16
M  V30 16 2 16 17
M  V30 17 1 17 18
M  V30 18 2 18 19
M  V30 19 1 18 20
M  V30 20 1 20 21
M  V30 21 1 20 22
M  V30 22 1 20 23
M  V30 23 1 19 2
M  V30 24 1 11 5
M  V30 25 1 1 24
M  V30 26 1 1 25
M  V30 27 1 7 26
M  V30 28 1 7 27
M  V30 29 1 8 28
M  V30 30 1 10 29
M  V30 31 1 11 30
M  V30 32 1 16 31
M  V30 33 1 17 32
M  V30 34 1 19 33
M  V30 END BOND
M  V30 END CTAB
M  END
