
     RDKit          3D

  0  0  0  0  0  0  0  0  0  0999 V3000
M  V30 BEGIN CTAB
M  V30 COUNTS 34 35 0 0 0
M  V30 BEGIN ATOM
M  V30 1 N -4.62756 -1.14084 -0.35521 0
M  V30 2 C -3.79831 -1.81616 0.624595 0
M  V30 3 C -3.11559 -0.825636 1.54274 0
M  V30 4 C -2.23402 0.114935 0.784739 0
M  V30 5 C -0.896343 -0.206353 0.563091 0
M  V30 6 C -0.105211 0.677646 -0.138422 0
M  V30 7 N 1.26611 0.422601 -0.405148 0
M  V30 8 C 1.92279 -0.790309 0.0465371 0
M  V30 9 C 3.37544 -0.773149 -0.389018 0
M  V30 10 C 3.74302 -1.30114 -1.6035 0
M  V30 11 S 5.4326 -1.03451 -1.59597 0
M  V30 12 C 5.56475 -0.279808 -0.0724856 0
M  V30 13 N 4.31138 -0.271076 0.350514 0
M  V30 14 N 6.74631 0.223628 0.590549 0
M  V30 15 N -0.643298 1.82231 -0.588565 0
M  V30 16 C -1.93111 2.1554 -0.387807 0
M  V30 17 N -2.68947 1.28208 0.298419 0
M  V30 18 C -2.50704 3.44511 -0.903909 0
M  V30 19 H -4.26081 -1.40826 -1.30287 0
M  V30 20 H -5.61852 -1.49037 -0.340597 0
M  V30 21 H -4.47504 -2.41867 1.25421 0
M  V30 22 H -3.08055 -2.52187 0.1663 0
M  V30 23 H -2.61065 -1.2959 2.38315 0
M  V30 24 H -3.93727 -0.188911 1.97384 0
M  V30 25 H -0.495338 -1.13584 0.939157 0
M  V30 26 H 1.8398 1.10906 -0.938066 0
M  V30 27 H 1.85479 -0.814891 1.14915 0
M  V30 28 H 1.43164 -1.71101 -0.318081 0
M  V30 29 H 3.07848 -1.76646 -2.35448 0
M  V30 30 H 6.92928 -0.0357103 1.58086 0
M  V30 31 H 7.42877 0.839478 0.11804 0
M  V30 32 H -2.73292 3.23998 -1.98599 0
M  V30 33 H -3.42468 3.66302 -0.352868 0
M  V30 34 H -1.74142 4.23163 -0.849404 0
M  V30 END ATOM
M  V30 BEGIN BOND
M  V30 1 1 1 2
M  V30 2 1 2 3
M  V30 3 1 3 4
M  V30 4 2 4 5
M  V30 5 1 5 6
M  V30 6 1 6 7
M  V30 7 1 7 8
M  V30 8 1 8 9
M  V30 9 2 9 10
M  V30 10 1 10 11
M  V30 11 1 11 12
M  V30 12 2 12 13
M  V30 13 1 12 14
M  V30 14 2 6 15
M  V30 15 1 15 16
M  V30 16 2 16 17
M  V30 17 1 16 18
M  V30 18 1 17 4
M  V30 19 1 13 9
M  V30 20 1 1 19
M  V30 21 1 1 20
M  V30 22 1 2 21
M  V30 23 1 2 22
M  V30 24 1 3 23
M  V30 25 1 3 24
M  V30 26 1 5 25
M  V30 27 1 7 26
M  V30 28 1 8 27
M  V30 29 1 8 28
M  V30 30 1 10 29
M  V30 31 1 14 30
M  V30 32 1 14 31
M  V30 33 1 18 32
M  V30 34 1 18 33
M  V30 35 1 18 34
M  V30 END BOND
M  V30 END CTAB
M  END
