
     RDKit          3D

  0  0  0  0  0  0  0  0  0  0999 V3000
M  V30 BEGIN CTAB
M  V30 COUNTS 17 17 0 0 0
M  V30 BEGIN ATOM
M  V30 1 N -0.527226 2.97177 2.84011 0
M  V30 2 C -0.381668 2.1454 2.04285 0
M  V30 3 C -0.205035 1.10666 1.05457 0
M  V30 4 C 1.0587 0.874604 0.520264 0
M  V30 5 C 1.25948 -0.112014 -0.426855 0
M  V30 6 N 2.55467 -0.359646 -0.98333 0
M  V30 7 C 0.157624 -0.84746 -0.812365 0
M  V30 8 C -1.10841 -0.652873 -0.311491 0
M  V30 9 C -1.2859 0.352938 0.647097 0
M  V30 10 N -2.23417 -1.40505 -0.706084 0
M  V30 11 F 0.336468 -1.81587 -1.73736 0
M  V30 12 H 1.87525 1.47663 0.857708 0
M  V30 13 H 3.39303 -0.188861 -0.373302 0
M  V30 14 H 2.6843 -0.698494 -1.95942 0
M  V30 15 H -2.28237 0.514452 1.0489 0
M  V30 16 H -2.38228 -1.63472 -1.70184 0
M  V30 17 H -2.91248 -1.72746 0.000549739 0
M  V30 END ATOM
M  V30 BEGIN BOND
M  V30 1 3 1 2
M  V30 2 1 2 3
M  V30 3 2 3 4
M  V30 4 1 4 5
M  V30 5 1 5 6
M  V30 6 2 5 7
M  V30 7 1 7 8
M  V30 8 2 8 9
M  V30 9 1 8 10
M  V30 10 1 7 11
M  V30 11 1 9 3
M  V30 12 1 4 12
M  V30 13 1 6 13
M  V30 14 1 6 14
M  V30 15 1 9 15
M  V30 16 1 10 16
M  V30 17 1 10 17
M  V30 END BOND
M  V30 END CTAB
M  END
