
     RDKit          3D

  0  0  0  0  0  0  0  0  0  0999 V3000
M  V30 BEGIN CTAB
M  V30 COUNTS 82 83 0 0 0
M  V30 BEGIN ATOM
M  V30 1 C 0.00481088 -3.95373 -2.72781 0
M  V30 2 C 0.46118 -2.75141 -1.86507 0
M  V30 3 C 0.468633 -1.63128 -2.86498 0
M  V30 4 C -0.437924 -2.65698 -0.707465 0 CFG=2
M  V30 5 N -1.84992 -2.41907 -0.969959 0
M  V30 6 C -2.66344 -3.65223 -1.17185 0
M  V30 7 C -2.57952 -1.23988 -1.08984 0
M  V30 8 O -3.38041 -1.26075 -2.13886 0
M  V30 9 C -2.69001 0.0336022 -0.346151 0 CFG=1
M  V30 10 C -3.16977 -0.0314203 1.06667 0
M  V30 11 C -4.53355 -0.582129 1.25926 0
M  V30 12 C -4.81282 -1.89522 1.53341 0
M  V30 13 C -6.0903 -2.3765 1.70847 0
M  V30 14 C -7.17759 -1.53988 1.61408 0
M  V30 15 C -6.93867 -0.211383 1.33939 0
M  V30 16 C -5.6575 0.255731 1.16685 0
M  V30 17 N -1.59648 0.936621 -0.588132 0
M  V30 18 C -1.32724 2.25691 -0.336185 0
M  V30 19 O -0.992971 3.04181 -1.3181 0
M  V30 20 C -1.33589 3.0402 0.931231 0 CFG=2
M  V30 21 C -2.55956 3.9298 0.993773 0
M  V30 22 C -2.65415 4.87784 -0.105988 0
M  V30 23 O -3.41142 4.56063 -1.25373 0
M  V30 24 O -2.10748 6.00056 -0.140004 0
M  V30 25 N -0.165891 3.8767 1.10511 0
M  V30 26 C 1.14023 3.43196 1.43389 0
M  V30 27 O 1.80741 4.17637 2.23263 0
M  V30 28 C 1.80885 2.20841 0.954066 0
M  V30 29 N 2.28151 1.3631 2.00601 0
M  V30 30 C 2.79954 0.0702695 1.96431 0
M  V30 31 O 3.63231 -0.262259 2.84445 0
M  V30 32 C 2.40536 -0.957624 0.908112 0 CFG=2
M  V30 33 C 3.13666 -0.552932 -0.315054 0
M  V30 34 C 4.63778 -0.592179 0.0345027 0
M  V30 35 C 5.45955 -0.208843 -1.17881 0
M  V30 36 N 6.85342 -0.263194 -0.789901 0
M  V30 37 C 7.44632 0.720679 -0.196723 0
M  V30 38 N 6.67508 1.88426 0.0698466 0
M  V30 39 N 8.81225 0.648691 0.176171 0
M  V30 40 N 1.00393 -1.11476 0.879815 0
M  V30 41 C 0.0569396 -2.0861 0.562974 0
M  V30 42 O -0.586923 -2.67213 1.56566 0
M  V30 43 H 0.078193 -4.89869 -2.20168 0
M  V30 44 H 0.744193 -3.97069 -3.58043 0
M  V30 45 H -0.967131 -3.75336 -3.20791 0
M  V30 46 H 1.46189 -3.00541 -1.53095 0
M  V30 47 H 1.17616 -1.92803 -3.66671 0
M  V30 48 H -0.516586 -1.50988 -3.36655 0
M  V30 49 H 0.847311 -0.668272 -2.46623 0
M  V30 50 H -0.403206 -3.79622 -0.404547 0
M  V30 51 H -3.15552 -3.60151 -2.17526 0
M  V30 52 H -2.04298 -4.5609 -1.18788 0
M  V30 53 H -3.38254 -3.81581 -0.357792 0
M  V30 54 H -3.60345 0.60609 -0.797271 0
M  V30 55 H -2.5244 -0.626964 1.74335 0
M  V30 56 H -3.20047 0.971512 1.5368 0
M  V30 57 H -3.94492 -2.56412 1.60851 0
M  V30 58 H -6.26205 -3.4155 1.92193 0
M  V30 59 H -8.20311 -1.90586 1.75091 0
M  V30 60 H -7.80963 0.429255 1.26959 0
M  V30 61 H -5.50773 1.30872 0.951588 0
M  V30 62 H -0.785929 0.429735 -1.09934 0
M  V30 63 H -1.31453 2.35134 1.81743 0
M  V30 64 H -3.48315 3.29349 1.02596 0
M  V30 65 H -2.47284 4.47794 1.96679 0
M  V30 66 H -4.02187 5.24335 -1.67995 0
M  V30 67 H -0.307525 4.9343 0.974013 0
M  V30 68 H 1.22515 1.75027 0.166567 0
M  V30 69 H 2.75241 2.57212 0.428672 0
M  V30 70 H 2.22628 1.79856 2.98077 0
M  V30 71 H 2.97534 -1.88323 1.23179 0
M  V30 72 H 3.07538 -1.26746 -1.16903 0
M  V30 73 H 2.96407 0.43121 -0.725384 0
M  V30 74 H 4.88705 0.1329 0.833744 0
M  V30 75 H 4.91137 -1.59728 0.398647 0
M  V30 76 H 5.25528 -0.861152 -2.04656 0
M  V30 77 H 5.22978 0.845494 -1.43133 0
M  V30 78 H 6.53854 2.15535 1.08292 0
M  V30 79 H 6.26105 2.4469 -0.70448 0
M  V30 80 H 9.34172 1.52318 0.344306 0
M  V30 81 H 9.28616 -0.261728 0.282397 0
M  V30 82 H 0.499879 -0.211895 1.23651 0
M  V30 END ATOM
M  V30 BEGIN BOND
M  V30 1 1 1 2
M  V30 2 1 2 3
M  V30 3 1 2 4
M  V30 4 1 4 5
M  V30 5 1 5 6
M  V30 6 1 5 7
M  V30 7 2 7 8
M  V30 8 1 7 9
M  V30 9 1 9 10
M  V30 10 1 10 11
M  V30 11 2 11 12
M  V30 12 1 12 13
M  V30 13 2 13 14
M  V30 14 1 14 15
M  V30 15 2 15 16
M  V30 16 1 9 17
M  V30 17 1 17 18
M  V30 18 2 18 19
M  V30 19 1 18 20
M  V30 20 1 20 21
M  V30 21 1 21 22
M  V30 22 1 22 23
M  V30 23 2 22 24
M  V30 24 1 20 25
M  V30 25 1 25 26
M  V30 26 2 26 27
M  V30 27 1 26 28
M  V30 28 1 28 29
M  V30 29 1 29 30
M  V30 30 2 30 31
M  V30 31 1 30 32
M  V30 32 1 32 33
M  V30 33 1 33 34
M  V30 34 1 34 35
M  V30 35 1 35 36
M  V30 36 2 36 37
M  V30 37 1 37 38
M  V30 38 1 37 39
M  V30 39 1 32 40
M  V30 40 1 40 41
M  V30 41 2 41 42
M  V30 42 1 41 4
M  V30 43 1 16 11
M  V30 44 1 1 43
M  V30 45 1 1 44
M  V30 46 1 1 45
M  V30 47 1 2 46
M  V30 48 1 3 47
M  V30 49 1 3 48
M  V30 50 1 3 49
M  V30 51 1 4 50 CFG=1
M  V30 52 1 6 51
M  V30 53 1 6 52
M  V30 54 1 6 53
M  V30 55 1 9 54 CFG=3
M  V30 56 1 10 55
M  V30 57 1 10 56
M  V30 58 1 12 57
M  V30 59 1 13 58
M  V30 60 1 14 59
M  V30 61 1 15 60
M  V30 62 1 16 61
M  V30 63 1 17 62
M  V30 64 1 20 63 CFG=1
M  V30 65 1 21 64
M  V30 66 1 21 65
M  V30 67 1 23 66
M  V30 68 1 25 67
M  V30 69 1 28 68
M  V30 70 1 28 69
M  V30 71 1 29 70
M  V30 72 1 32 71 CFG=1
M  V30 73 1 33 72
M  V30 74 1 33 73
M  V30 75 1 34 74
M  V30 76 1 34 75
M  V30 77 1 35 76
M  V30 78 1 35 77
M  V30 79 1 38 78
M  V30 80 1 38 79
M  V30 81 1 39 80
M  V30 82 1 39 81
M  V30 83 1 40 82
M  V30 END BOND
M  V30 END CTAB
M  END
