
     RDKit          3D

  0  0  0  0  0  0  0  0  0  0999 V3000
M  V30 BEGIN CTAB
M  V30 COUNTS 41 43 0 0 0
M  V30 BEGIN ATOM
M  V30 1 Cl -4.64408 2.42762 1.09404 0
M  V30 2 C -5.77836 1.21239 0.475333 0
M  V30 3 C -7.12824 1.41977 0.428298 0
M  V30 4 C -7.91264 0.431525 -0.104148 0
M  V30 5 C -7.39418 -0.745011 -0.595218 0
M  V30 6 C -5.99854 -0.905342 -0.520043 0
M  V30 7 C -5.16827 0.0486762 0.0109433 0
M  V30 8 C -3.78975 -0.258445 0.328954 0
M  V30 9 O -2.833 -0.149178 -0.682444 0
M  V30 10 C -1.50656 -0.519389 -0.250429 0
M  V30 11 C -1.34862 -1.11693 0.971284 0
M  V30 12 C -0.091454 -1.46984 1.45846 0
M  V30 13 C 0.985414 -1.17569 0.642167 0
M  V30 14 C 0.865073 -0.576581 -0.581421 0
M  V30 15 C -0.392856 -0.24668 -1.04407 0
M  V30 16 C 2.09651 -0.107223 -1.28082 0
M  V30 17 N 3.18033 -0.284861 -0.726038 0
M  V30 18 N 4.51188 -0.0535001 -0.926406 0
M  V30 19 C 5.16103 0.3374 0.099324 0
M  V30 20 C 6.52351 0.674792 0.345419 0
M  V30 21 N 7.02094 1.07108 1.55159 0
M  V30 22 O 8.26577 1.27816 1.50674 0
M  V30 23 N 8.68621 1.04034 0.265557 0
M  V30 24 C 7.59583 0.652991 -0.47929 0
M  V30 25 N 7.64231 0.339989 -1.88999 0
M  V30 26 N 4.23838 0.520059 1.26785 0
M  V30 27 H -7.49704 2.39227 0.796918 0
M  V30 28 H -8.99916 0.566582 -0.153658 0
M  V30 29 H -8.0223 -1.49249 -1.00202 0
M  V30 30 H -5.62081 -1.87325 -0.908598 0
M  V30 31 H -3.46693 0.309051 1.22171 0
M  V30 32 H -3.76738 -1.38154 0.605417 0
M  V30 33 H -2.20551 -1.34523 1.58138 0
M  V30 34 H -0.00581086 -1.95913 2.42635 0
M  V30 35 H 2.00843 -1.44577 0.953551 0
M  V30 36 H -0.548438 0.231109 -2.00994 0
M  V30 37 H 2.08994 0.366332 -2.22682 0
M  V30 38 H 7.54135 -0.596639 -2.24942 0
M  V30 39 H 7.81511 1.1569 -2.49853 0
M  V30 40 H 4.04727 -0.232764 1.91407 0
M  V30 41 H 3.84463 1.45843 1.28521 0
M  V30 END ATOM
M  V30 BEGIN BOND
M  V30 1 1 1 2
M  V30 2 2 2 3
M  V30 3 1 3 4
M  V30 4 2 4 5
M  V30 5 1 5 6
M  V30 6 2 6 7
M  V30 7 1 7 8
M  V30 8 1 8 9
M  V30 9 1 9 10
M  V30 10 2 10 11
M  V30 11 1 11 12
M  V30 12 2 12 13
M  V30 13 1 13 14
M  V30 14 2 14 15
M  V30 15 1 14 16
M  V30 16 2 16 17
M  V30 17 1 17 18
M  V30 18 2 18 19
M  V30 19 1 19 20
M  V30 20 2 20 21
M  V30 21 1 21 22
M  V30 22 1 22 23
M  V30 23 2 23 24
M  V30 24 1 24 25
M  V30 25 1 19 26
M  V30 26 1 7 2
M  V30 27 1 15 10
M  V30 28 1 24 20
M  V30 29 1 3 27
M  V30 30 1 4 28
M  V30 31 1 5 29
M  V30 32 1 6 30
M  V30 33 1 8 31
M  V30 34 1 8 32
M  V30 35 1 11 33
M  V30 36 1 12 34
M  V30 37 1 13 35
M  V30 38 1 15 36
M  V30 39 1 16 37
M  V30 40 1 25 38
M  V30 41 1 25 39
M  V30 42 1 26 40
M  V30 43 1 26 41
M  V30 END BOND
M  V30 END CTAB
M  END
