
     RDKit          3D

  0  0  0  0  0  0  0  0  0  0999 V3000
M  V30 BEGIN CTAB
M  V30 COUNTS 34 35 0 0 0
M  V30 BEGIN ATOM
M  V30 1 C -5.84876 -1.56127 0.273207 0
M  V30 2 C -4.45125 -1.05217 0.582952 0
M  V30 3 O -3.95652 -1.28346 1.69844 0
M  V30 4 N -3.82015 -0.351336 -0.42825 0
M  V30 5 C -2.5219 0.205353 -0.322158 0
M  V30 6 C -1.86334 0.475293 0.85091 0
M  V30 7 C -0.577344 0.99941 0.922704 0
M  V30 8 C 0.0973812 1.27344 -0.237389 0
M  V30 9 C 1.45162 1.84526 -0.158561 0
M  V30 10 C 2.50331 0.887123 0.245205 0
M  V30 11 C 3.04442 -0.0446399 -0.596637 0
M  V30 12 N 2.59073 -0.0993506 -1.94593 0
M  V30 13 N 4.01195 -0.915176 -0.171071 0
M  V30 14 C 4.46776 -0.888914 1.08721 0
M  V30 15 N 5.48799 -1.81034 1.5292 0
M  V30 16 N 3.94838 0.0195498 1.9285 0
M  V30 17 C 2.99969 0.892552 1.55875 0
M  V30 18 C -0.526295 1.01905 -1.42796 0
M  V30 19 C -1.80464 0.497497 -1.50089 0
M  V30 20 H -6.52145 -0.820353 0.753406 0
M  V30 21 H -6.03242 -1.60561 -0.803088 0
M  V30 22 H -5.93636 -2.57003 0.698355 0
M  V30 23 H -4.28067 -0.173651 -1.37711 0
M  V30 24 H -2.33312 0.301822 1.81457 0
M  V30 25 H -0.115221 1.18902 1.90666 0
M  V30 26 H 1.45227 2.70801 0.576306 0
M  V30 27 H 1.73794 2.35953 -1.1232 0
M  V30 28 H 2.22728 -1.01352 -2.28691 0
M  V30 29 H 2.59678 0.701187 -2.60758 0
M  V30 30 H 6.43342 -1.50738 1.83724 0
M  V30 31 H 5.27097 -2.82436 1.54152 0
M  V30 32 H 2.58685 1.61465 2.22744 0
M  V30 33 H -0.0333945 1.23266 -2.37902 0
M  V30 34 H -2.28589 0.30015 -2.45428 0
M  V30 END ATOM
M  V30 BEGIN BOND
M  V30 1 1 1 2
M  V30 2 2 2 3
M  V30 3 1 2 4
M  V30 4 1 4 5
M  V30 5 2 5 6
M  V30 6 1 6 7
M  V30 7 2 7 8
M  V30 8 1 8 9
M  V30 9 1 9 10
M  V30 10 2 10 11
M  V30 11 1 11 12
M  V30 12 1 11 13
M  V30 13 2 13 14
M  V30 14 1 14 15
M  V30 15 1 14 16
M  V30 16 2 16 17
M  V30 17 1 8 18
M  V30 18 2 18 19
M  V30 19 1 19 5
M  V30 20 1 17 10
M  V30 21 1 1 20
M  V30 22 1 1 21
M  V30 23 1 1 22
M  V30 24 1 4 23
M  V30 25 1 6 24
M  V30 26 1 7 25
M  V30 27 1 9 26
M  V30 28 1 9 27
M  V30 29 1 12 28
M  V30 30 1 12 29
M  V30 31 1 15 30
M  V30 32 1 15 31
M  V30 33 1 17 32
M  V30 34 1 18 33
M  V30 35 1 19 34
M  V30 END BOND
M  V30 END CTAB
M  END
