
     RDKit          3D

  0  0  0  0  0  0  0  0  0  0999 V3000
M  V30 BEGIN CTAB
M  V30 COUNTS 28 29 0 0 0
M  V30 BEGIN ATOM
M  V30 1 N 3.62479 1.94381 -0.150781 0
M  V30 2 C 2.82948 0.819165 -0.152095 0
M  V30 3 N 3.23687 -0.478746 -0.314124 0
M  V30 4 N 2.17874 -1.22925 -0.300191 0
M  V30 5 C 1.06095 -0.50043 -0.12225 0
M  V30 6 N 1.49943 0.8038 -0.0254493 0
M  V30 7 C -0.357127 -0.985238 -0.165147 0
M  V30 8 N -0.310042 -2.30998 -0.75586 0
M  V30 9 C -1.10608 -1.01557 1.06694 0
M  V30 10 C -1.67507 0.274677 1.59593 0
M  V30 11 C -2.25106 1.15587 0.526416 0
M  V30 12 C -2.2861 0.545089 -0.847527 0
M  V30 13 C -1.02054 -0.129055 -1.25683 0
M  V30 14 H 3.92228 2.32228 -1.10577 0
M  V30 15 H 3.95438 2.45348 0.688188 0
M  V30 16 H 4.23236 -0.782591 -0.401417 0
M  V30 17 H -0.107727 -3.03758 -0.0143148 0
M  V30 18 H 0.440925 -2.30114 -1.48632 0
M  V30 19 H -1.97478 -1.74059 0.936376 0
M  V30 20 H -0.463863 -1.48066 1.88187 0
M  V30 21 H -0.909883 0.821696 2.17728 0
M  V30 22 H -2.47937 -0.0146363 2.33584 0
M  V30 23 H -1.70988 2.14353 0.497615 0
M  V30 24 H -3.29796 1.41042 0.787901 0
M  V30 25 H -2.40982 1.41335 -1.55667 0
M  V30 26 H -3.13169 -0.122637 -1.01819 0
M  V30 27 H -1.19451 -0.670269 -2.20116 0
M  V30 28 H -0.294699 0.691205 -1.53083 0
M  V30 END ATOM
M  V30 BEGIN BOND
M  V30 1 1 1 2
M  V30 2 1 2 3
M  V30 3 1 3 4
M  V30 4 2 4 5
M  V30 5 1 5 6
M  V30 6 1 5 7
M  V30 7 1 7 8
M  V30 8 1 7 9
M  V30 9 1 9 10
M  V30 10 1 10 11
M  V30 11 1 11 12
M  V30 12 1 12 13
M  V30 13 2 6 2
M  V30 14 1 13 7
M  V30 15 1 1 14
M  V30 16 1 1 15
M  V30 17 1 3 16
M  V30 18 1 8 17
M  V30 19 1 8 18
M  V30 20 1 9 19
M  V30 21 1 9 20
M  V30 22 1 10 21
M  V30 23 1 10 22
M  V30 24 1 11 23
M  V30 25 1 11 24
M  V30 26 1 12 25
M  V30 27 1 12 26
M  V30 28 1 13 27
M  V30 29 1 13 28
M  V30 END BOND
M  V30 END CTAB
M  END
