
     RDKit          3D

  0  0  0  0  0  0  0  0  0  0999 V3000
M  V30 BEGIN CTAB
M  V30 COUNTS 26 26 0 0 0
M  V30 BEGIN ATOM
M  V30 1 N -4.30253 -0.704191 -0.291039 0
M  V30 2 C -2.8678 -0.524922 -0.0663446 0
M  V30 3 C -2.51847 0.891705 0.215893 0
M  V30 4 N -1.10682 1.02358 0.441414 0
M  V30 5 C -0.112824 0.721122 -0.50754 0
M  V30 6 O -0.432215 0.311688 -1.63853 0
M  V30 7 C 1.30766 0.904005 -0.120203 0
M  V30 8 C 2.31503 0.566725 -1.16923 0
M  V30 9 C 2.56698 -0.746822 -0.507552 0
M  V30 10 C 1.77493 -0.284386 0.681157 0
M  V30 11 N 3.96155 -0.978811 -0.162758 0
M  V30 12 H -4.41737 -1.69582 -0.589356 0
M  V30 13 H -4.86045 -0.521766 0.56364 0
M  V30 14 H -2.57361 -1.22542 0.739298 0
M  V30 15 H -2.37982 -0.88684 -0.984489 0
M  V30 16 H -2.81367 1.54607 -0.636072 0
M  V30 17 H -3.1272 1.2364 1.09986 0
M  V30 18 H -0.847374 1.3817 1.41898 0
M  V30 19 H 1.51694 1.89269 0.352741 0
M  V30 20 H 3.22385 1.21031 -1.10319 0
M  V30 21 H 1.94489 0.527879 -2.21169 0
M  V30 22 H 2.10614 -1.58165 -1.07415 0
M  V30 23 H 2.33682 -0.0590559 1.59676 0
M  V30 24 H 0.983545 -1.03091 0.917612 0
M  V30 25 H 4.25857 -0.123456 0.384225 0
M  V30 26 H 4.06325 -1.84982 0.382688 0
M  V30 END ATOM
M  V30 BEGIN BOND
M  V30 1 1 1 2
M  V30 2 1 2 3
M  V30 3 1 3 4
M  V30 4 1 4 5
M  V30 5 2 5 6
M  V30 6 1 5 7
M  V30 7 1 7 8
M  V30 8 1 8 9
M  V30 9 1 9 10
M  V30 10 1 9 11
M  V30 11 1 10 7
M  V30 12 1 1 12
M  V30 13 1 1 13
M  V30 14 1 2 14
M  V30 15 1 2 15
M  V30 16 1 3 16
M  V30 17 1 3 17
M  V30 18 1 4 18
M  V30 19 1 7 19
M  V30 20 1 8 20
M  V30 21 1 8 21
M  V30 22 1 9 22
M  V30 23 1 10 23
M  V30 24 1 10 24
M  V30 25 1 11 25
M  V30 26 1 11 26
M  V30 END BOND
M  V30 END CTAB
M  END
