
     RDKit          3D

  0  0  0  0  0  0  0  0  0  0999 V3000
M  V30 BEGIN CTAB
M  V30 COUNTS 31 32 0 0 0
M  V30 BEGIN ATOM
M  V30 1 C -4.10844 1.08944 -1.1368 0
M  V30 2 C -3.38364 0.384626 -0.015157 0
M  V30 3 O -2.03454 0.701278 0.0244593 0
M  V30 4 C -0.94872 -0.119264 -0.0531985 0
M  V30 5 C -1.06159 -1.48627 -0.193055 0
M  V30 6 C 0.108882 -2.22862 -0.262282 0
M  V30 7 C 1.35101 -1.63326 -0.194862 0
M  V30 8 C 1.47521 -0.266677 -0.0549883 0
M  V30 9 C 0.303011 0.457562 0.0123837 0
M  V30 10 C 2.71986 0.328519 0.0124164 0
M  V30 11 N 2.83755 1.7381 0.15661 0
M  V30 12 C 3.87284 -0.424449 -0.0579975 0
M  V30 13 C 3.71069 -1.79304 -0.198277 0
M  V30 14 N 2.49484 -2.35898 -0.262548 0
M  V30 15 N 5.17106 0.154029 0.00798447 0
M  V30 16 C -3.97712 0.773055 1.34556 0
M  V30 17 H -3.98111 0.450233 -2.04544 0
M  V30 18 H -5.176 1.24995 -0.927623 0
M  V30 19 H -3.58494 2.05556 -1.30805 0
M  V30 20 H -3.60695 -0.69587 -0.126363 0
M  V30 21 H -2.03612 -1.97704 -0.248375 0
M  V30 22 H 0.00454012 -3.29925 -0.371907 0
M  V30 23 H 0.408331 1.53542 0.122749 0
M  V30 24 H 2.54755 2.39702 -0.62242 0
M  V30 25 H 3.22217 2.10319 1.06279 0
M  V30 26 H 4.61588 -2.40033 -0.255197 0
M  V30 27 H 5.52954 0.467022 0.92914 0
M  V30 28 H 5.79009 0.284029 -0.819753 0
M  V30 29 H -4.18606 1.8592 1.334 0
M  V30 30 H -3.20524 0.489987 2.09237 0
M  V30 31 H -4.87257 0.164821 1.57525 0
M  V30 END ATOM
M  V30 BEGIN BOND
M  V30 1 1 1 2
M  V30 2 1 2 3
M  V30 3 1 3 4
M  V30 4 2 4 5
M  V30 5 1 5 6
M  V30 6 2 6 7
M  V30 7 1 7 8
M  V30 8 2 8 9
M  V30 9 1 8 10
M  V30 10 1 10 11
M  V30 11 2 10 12
M  V30 12 1 12 13
M  V30 13 2 13 14
M  V30 14 1 12 15
M  V30 15 1 2 16
M  V30 16 1 9 4
M  V30 17 1 14 7
M  V30 18 1 1 17
M  V30 19 1 1 18
M  V30 20 1 1 19
M  V30 21 1 2 20
M  V30 22 1 5 21
M  V30 23 1 6 22
M  V30 24 1 9 23
M  V30 25 1 11 24
M  V30 26 1 11 25
M  V30 27 1 13 26
M  V30 28 1 15 27
M  V30 29 1 15 28
M  V30 30 1 16 29
M  V30 31 1 16 30
M  V30 32 1 16 31
M  V30 END BOND
M  V30 END CTAB
M  END
