
     RDKit          3D

  0  0  0  0  0  0  0  0  0  0999 V3000
M  V30 BEGIN CTAB
M  V30 COUNTS 50 53 0 0 0
M  V30 BEGIN ATOM
M  V30 1 O -5.18095 -2.37541 -1.06711 0
M  V30 2 C -4.45502 -1.43531 -0.64784 0
M  V30 3 C -3.01244 -1.64059 -0.640881 0
M  V30 4 C -2.18049 -0.630706 -0.187295 0
M  V30 5 C -0.797509 -0.844326 -0.187294 0
M  V30 6 C -0.271274 -2.04081 -0.631641 0
M  V30 7 C -1.08872 -3.04081 -1.0804 0
M  V30 8 C -2.46048 -2.82355 -1.07826 0
M  V30 9 C 1.20064 -2.19801 -0.603657 0
M  V30 10 C 1.8619 -3.33011 -1.01405 0
M  V30 11 C 3.19793 -3.06883 -0.827673 0
M  V30 12 C 3.31795 -1.79217 -0.311576 0
M  V30 13 O 2.08676 -1.33995 -0.207188 0
M  V30 14 C 4.56089 -1.11323 0.0354959 0
M  V30 15 N 4.56365 0.0980834 0.518307 0
M  V30 16 N 5.82614 0.629779 0.80791 0
M  V30 17 C 6.68784 0.901192 -0.114833 0
M  V30 18 C 8.00185 1.45287 0.165562 0
M  V30 19 N 8.91301 1.74266 -0.775848 0
M  V30 20 O 9.99547 2.22491 -0.204625 0
M  V30 21 N 9.80596 2.2534 1.0781 0
M  V30 22 C 8.57356 1.78083 1.36422 0
M  V30 23 N 7.9766 1.64489 2.64124 0
M  V30 24 N 6.28937 0.631778 -1.45051 0
M  V30 25 O -5.03259 -0.249434 -0.210835 0
M  V30 26 C -6.43911 -0.137168 -0.252627 0
M  V30 27 C -6.83471 1.18343 0.249259 0
M  V30 28 C -5.8661 2.06949 0.661907 0
M  V30 29 C -6.23909 3.30985 1.13321 0
M  V30 30 C -7.58083 3.65574 1.18851 0
M  V30 31 C -8.55493 2.77068 0.775921 0
M  V30 32 C -8.17934 1.53598 0.307029 0
M  V30 33 Cl -9.38489 0.382894 -0.22659 0
M  V30 34 H -2.60541 0.307236 0.160271 0
M  V30 35 H -0.197941 -0.0218899 0.177303 0
M  V30 36 H -0.675362 -3.97425 -1.42689 0
M  V30 37 H -3.14872 -3.5822 -1.4229 0
M  V30 38 H 1.42096 -4.22714 -1.39863 0
M  V30 39 H 4.04458 -3.71939 -1.03477 0
M  V30 40 H 5.48488 -1.64943 -0.121245 0
M  V30 41 H 7.5607 0.755349 2.96537 0
M  V30 42 H 7.96562 2.48142 3.26175 0
M  V30 43 H 5.61778 1.27635 -1.91995 0
M  V30 44 H 6.66364 -0.192379 -1.94296 0
M  V30 45 H -6.76571 -0.257535 -1.31853 0
M  V30 46 H -6.93056 -0.941706 0.334533 0
M  V30 47 H -4.79846 1.84109 0.636562 0
M  V30 48 H -5.49333 4.01781 1.46118 0
M  V30 49 H -7.84122 4.62141 1.55728 0
M  V30 50 H -9.60252 3.05721 0.825659 0
M  V30 END ATOM
M  V30 BEGIN BOND
M  V30 1 2 1 2
M  V30 2 1 2 3
M  V30 3 2 3 4
M  V30 4 1 4 5
M  V30 5 2 5 6
M  V30 6 1 6 7
M  V30 7 2 7 8
M  V30 8 1 6 9
M  V30 9 2 9 10
M  V30 10 1 10 11
M  V30 11 2 11 12
M  V30 12 1 12 13
M  V30 13 1 12 14
M  V30 14 2 14 15
M  V30 15 1 15 16
M  V30 16 2 16 17
M  V30 17 1 17 18
M  V30 18 2 18 19
M  V30 19 1 19 20
M  V30 20 1 20 21
M  V30 21 2 21 22
M  V30 22 1 22 23
M  V30 23 1 17 24
M  V30 24 1 2 25
M  V30 25 1 25 26
M  V30 26 1 26 27
M  V30 27 2 27 28
M  V30 28 1 28 29
M  V30 29 2 29 30
M  V30 30 1 30 31
M  V30 31 2 31 32
M  V30 32 1 32 33
M  V30 33 1 8 3
M  V30 34 1 13 9
M  V30 35 1 22 18
M  V30 36 1 32 27
M  V30 37 1 4 34
M  V30 38 1 5 35
M  V30 39 1 7 36
M  V30 40 1 8 37
M  V30 41 1 10 38
M  V30 42 1 11 39
M  V30 43 1 14 40
M  V30 44 1 23 41
M  V30 45 1 23 42
M  V30 46 1 24 43
M  V30 47 1 24 44
M  V30 48 1 26 45
M  V30 49 1 26 46
M  V30 50 1 28 47
M  V30 51 1 29 48
M  V30 52 1 30 49
M  V30 53 1 31 50
M  V30 END BOND
M  V30 END CTAB
M  END
