
     RDKit          3D

  0  0  0  0  0  0  0  0  0  0999 V3000
M  V30 BEGIN CTAB
M  V30 COUNTS 30 31 0 0 0
M  V30 BEGIN ATOM
M  V30 1 C -2.79235 -1.51988 -0.102601 0
M  V30 2 C -2.1808 -0.294106 0.530321 0
M  V30 3 C -3.09502 0.887694 0.181717 0
M  V30 4 N -2.43196 1.42052 -1.02179 0
M  V30 5 C -1.06223 1.48767 -0.54803 0
M  V30 6 C -0.854424 0.0746562 -0.0387444 0
M  V30 7 C 0.163169 0.231343 1.09576 0
M  V30 8 C 1.49709 0.598937 0.563693 0
M  V30 9 N 2.04565 1.80073 0.328301 0
M  V30 10 N 3.26822 1.69733 -0.152362 0
M  V30 11 C 3.5458 0.392119 -0.241243 0
M  V30 12 N 2.44636 -0.279918 0.203098 0
M  V30 13 N 2.3529 -1.6824 0.262135 0
M  V30 14 N 4.72203 -0.247387 -0.695147 0
M  V30 15 H -2.06685 -2.26571 -0.425353 0
M  V30 16 H -3.36987 -1.21101 -1.01989 0
M  V30 17 H -3.54558 -1.91249 0.61297 0
M  V30 18 H -2.12494 -0.45573 1.61457 0
M  V30 19 H -3.04001 1.65081 0.98299 0
M  V30 20 H -4.10578 0.567 -0.0746514 0
M  V30 21 H -2.44993 0.647015 -1.7379 0
M  V30 22 H -1.03866 2.18689 0.326401 0
M  V30 23 H -0.344644 1.76674 -1.33294 0
M  V30 24 H -0.481918 -0.610383 -0.820951 0
M  V30 25 H 0.177958 -0.671836 1.71895 0
M  V30 26 H -0.211961 1.10514 1.68514 0
M  V30 27 H 3.04709 -2.27919 -0.222559 0
M  V30 28 H 1.59108 -2.12371 0.789454 0
M  V30 29 H 5.60831 -0.0968473 -0.179912 0
M  V30 30 H 4.73125 -0.864004 -1.52777 0
M  V30 END ATOM
M  V30 BEGIN BOND
M  V30 1 1 1 2
M  V30 2 1 2 3
M  V30 3 1 3 4
M  V30 4 1 4 5
M  V30 5 1 5 6
M  V30 6 1 6 7
M  V30 7 1 7 8
M  V30 8 2 8 9
M  V30 9 1 9 10
M  V30 10 2 10 11
M  V30 11 1 11 12
M  V30 12 1 12 13
M  V30 13 1 11 14
M  V30 14 1 6 2
M  V30 15 1 12 8
M  V30 16 1 1 15
M  V30 17 1 1 16
M  V30 18 1 1 17
M  V30 19 1 2 18
M  V30 20 1 3 19
M  V30 21 1 3 20
M  V30 22 1 4 21
M  V30 23 1 5 22
M  V30 24 1 5 23
M  V30 25 1 6 24
M  V30 26 1 7 25
M  V30 27 1 7 26
M  V30 28 1 13 27
M  V30 29 1 13 28
M  V30 30 1 14 29
M  V30 31 1 14 30
M  V30 END BOND
M  V30 END CTAB
M  END
