
     RDKit          3D

  0  0  0  0  0  0  0  0  0  0999 V3000
M  V30 BEGIN CTAB
M  V30 COUNTS 25 25 0 0 0
M  V30 BEGIN ATOM
M  V30 1 O -4.20562 0.126403 0.733059 0
M  V30 2 C -2.81463 0.137994 0.709268 0
M  V30 3 O -2.17651 0.016606 1.77363 0
M  V30 4 C -2.12513 0.2969 -0.598737 0
M  V30 5 C -0.634048 0.289175 -0.393472 0
M  V30 6 C -0.0134116 1.52849 -0.455719 0
M  V30 7 C 1.37059 1.59479 -0.269299 0
M  V30 8 N 2.05323 2.82917 -0.320668 0
M  V30 9 C 2.02546 0.406569 -0.0340627 0
M  V30 10 C 1.41326 -0.828694 0.0287628 0
M  V30 11 C 0.0562251 -0.8777 -0.155997 0
M  V30 12 N -0.6121 -2.11706 -0.103844 0
M  V30 13 C 2.2469 -2.02331 0.290984 0
M  V30 14 F 2.17108 -2.95164 -0.727709 0
M  V30 15 F 1.83779 -2.58568 1.49798 0
M  V30 16 F 3.54319 -1.60853 0.509441 0
M  V30 17 H -4.71577 0.869807 1.22417 0
M  V30 18 H -2.45315 1.21501 -1.11657 0
M  V30 19 H -2.35714 -0.610563 -1.22535 0
M  V30 20 H -0.588413 2.42662 -0.64395 0
M  V30 21 H 2.568 3.18401 0.499851 0
M  V30 22 H 2.04206 3.38978 -1.18553 0
M  V30 23 H 3.0953 0.479226 0.108438 0
M  V30 24 H -0.511144 -2.71337 0.730048 0
M  V30 25 H -1.21602 -2.47402 -0.874731 0
M  V30 END ATOM
M  V30 BEGIN BOND
M  V30 1 1 1 2
M  V30 2 2 2 3
M  V30 3 1 2 4
M  V30 4 1 4 5
M  V30 5 2 5 6
M  V30 6 1 6 7
M  V30 7 1 7 8
M  V30 8 2 7 9
M  V30 9 1 9 10
M  V30 10 2 10 11
M  V30 11 1 11 12
M  V30 12 1 10 13
M  V30 13 1 13 14
M  V30 14 1 13 15
M  V30 15 1 13 16
M  V30 16 1 11 5
M  V30 17 1 1 17
M  V30 18 1 4 18
M  V30 19 1 4 19
M  V30 20 1 6 20
M  V30 21 1 8 21
M  V30 22 1 8 22
M  V30 23 1 9 23
M  V30 24 1 12 24
M  V30 25 1 12 25
M  V30 END BOND
M  V30 END CTAB
M  END
