
     RDKit          3D

  0  0  0  0  0  0  0  0  0  0999 V3000
M  V30 BEGIN CTAB
M  V30 COUNTS 42 44 0 0 0
M  V30 BEGIN ATOM
M  V30 1 N 6.71213 1.31388 -1.1963 0
M  V30 2 C 5.76385 0.772942 -0.198422 0
M  V30 3 C 5.12002 -0.461584 -0.763262 0
M  V30 4 C 3.86196 0.341184 -0.998627 0
M  V30 5 C 4.44178 1.48866 -0.149585 0
M  V30 6 C 2.64484 -0.145801 -0.322971 0
M  V30 7 C 1.41286 -0.366754 -0.906461 0
M  V30 8 C 0.33201 -0.775814 -0.205682 0
M  V30 9 N -0.985354 -0.944316 -0.735697 0
M  V30 10 C -2.04214 -1.31384 0.183467 0
M  V30 11 C -3.34657 -0.725163 -0.119309 0
M  V30 12 C -3.58161 0.0689722 -1.20945 0
M  V30 13 C -4.82453 0.626033 -1.41554 0
M  V30 14 C -5.86498 0.392382 -0.520985 0
M  V30 15 C -5.63689 -0.406694 0.579215 0
M  V30 16 C -4.39368 -0.95642 0.777514 0
M  V30 17 F -4.16693 -1.70986 1.88109 0
M  V30 18 C -7.2157 0.973662 -0.669429 0
M  V30 19 F -7.07564 2.34336 -0.421006 0
M  V30 20 F -7.71861 0.809513 -1.96782 0
M  V30 21 F -8.0614 0.434027 0.267404 0
M  V30 22 N 0.490748 -0.982263 1.14656 0
M  V30 23 C 1.67021 -0.781711 1.74188 0
M  V30 24 N 2.73339 -0.369037 1.01972 0
M  V30 25 N 1.72403 -1.00995 3.15714 0
M  V30 26 H 7.44496 1.86274 -0.712165 0
M  V30 27 H 6.2029 1.99953 -1.81736 0
M  V30 28 H 6.21912 0.674046 0.81091 0
M  V30 29 H 5.57013 -0.837085 -1.68824 0
M  V30 30 H 4.92769 -1.26524 -0.0135942 0
M  V30 31 H 3.6931 0.629337 -2.04254 0
M  V30 32 H 4.04699 1.44908 0.914224 0
M  V30 33 H 4.39567 2.49382 -0.597431 0
M  V30 34 H 1.3072 -0.187448 -1.96069 0
M  V30 35 H -1.17723 -0.823806 -1.7216 0
M  V30 36 H -2.10389 -2.42169 0.316453 0
M  V30 37 H -1.7002 -0.901328 1.19523 0
M  V30 38 H -2.81338 0.281887 -1.9472 0
M  V30 39 H -5.05548 1.28326 -2.24151 0
M  V30 40 H -6.4245 -0.606488 1.29197 0
M  V30 41 H 1.69283 -0.243748 3.84015 0
M  V30 42 H 1.78034 -2.00227 3.4384 0
M  V30 END ATOM
M  V30 BEGIN BOND
M  V30 1 1 1 2
M  V30 2 1 2 3
M  V30 3 1 3 4
M  V30 4 1 4 5
M  V30 5 1 4 6
M  V30 6 2 6 7
M  V30 7 1 7 8
M  V30 8 1 8 9
M  V30 9 1 9 10
M  V30 10 1 10 11
M  V30 11 2 11 12
M  V30 12 1 12 13
M  V30 13 2 13 14
M  V30 14 1 14 15
M  V30 15 2 15 16
M  V30 16 1 16 17
M  V30 17 1 14 18
M  V30 18 1 18 19
M  V30 19 1 18 20
M  V30 20 1 18 21
M  V30 21 2 8 22
M  V30 22 1 22 23
M  V30 23 2 23 24
M  V30 24 1 23 25
M  V30 25 1 5 2
M  V30 26 1 24 6
M  V30 27 1 16 11
M  V30 28 1 1 26
M  V30 29 1 1 27
M  V30 30 1 2 28
M  V30 31 1 3 29
M  V30 32 1 3 30
M  V30 33 1 4 31
M  V30 34 1 5 32
M  V30 35 1 5 33
M  V30 36 1 7 34
M  V30 37 1 9 35
M  V30 38 1 10 36
M  V30 39 1 10 37
M  V30 40 1 12 38
M  V30 41 1 13 39
M  V30 42 1 15 40
M  V30 43 1 25 41
M  V30 44 1 25 42
M  V30 END BOND
M  V30 END CTAB
M  END
