
     RDKit          3D

  0  0  0  0  0  0  0  0  0  0999 V3000
M  V30 BEGIN CTAB
M  V30 COUNTS 44 45 0 0 0
M  V30 BEGIN ATOM
M  V30 1 N -0.321229 -0.708034 -3.434 0
M  V30 2 C 0.861683 -0.471618 -2.6771 0
M  V30 3 C 0.591759 -0.671477 -1.20087 0
M  V30 4 C 1.81524 -0.428033 -0.385921 0
M  V30 5 C 3.04241 -0.198486 -0.954721 0
M  V30 6 C 4.16828 0.0253468 -0.217508 0
M  V30 7 C 4.10318 0.0275341 1.16972 0
M  V30 8 C 2.88682 -0.199506 1.77477 0
M  V30 9 C 1.7599 -0.424088 0.990609 0
M  V30 10 C 2.78952 -0.20364 3.15957 0
M  V30 11 C 3.91851 0.0208689 3.91486 0
M  V30 12 C 5.13414 0.24746 3.2839 0
M  V30 13 C 5.25539 0.256445 1.9227 0
M  V30 14 N -0.550443 0.0562714 -0.744815 0
M  V30 15 C -1.73508 -0.541562 -0.243276 0
M  V30 16 O -1.7743 -1.79776 -0.2006 0
M  V30 17 C -2.90201 0.210092 0.222449 0 CFG=2
M  V30 18 C -4.17758 -0.171955 -0.480655 0
M  V30 19 C -4.09353 0.0640979 -1.97332 0
M  V30 20 C -5.33378 0.644392 0.0392143 0
M  V30 21 N -2.73164 1.63691 0.124253 0
M  V30 22 H -0.703119 -1.60664 -3.43259 0
M  V30 23 H -0.679104 0.03099 -3.97758 0
M  V30 24 H 1.18327 0.573885 -2.89522 0
M  V30 25 H 1.6184 -1.1691 -3.06413 0
M  V30 26 H 0.358473 -1.76328 -1.08042 0
M  V30 27 H 3.09209 -0.199912 -2.05134 0
M  V30 28 H 5.11698 0.202109 -0.693256 0
M  V30 29 H 0.819049 -0.599346 1.48665 0
M  V30 30 H 1.8414 -0.380373 3.62419 0
M  V30 31 H 3.8801 0.0246128 4.99513 0
M  V30 32 H 6.02688 0.424871 3.86749 0
M  V30 33 H 6.15958 0.424133 1.37716 0
M  V30 34 H -0.523308 1.11255 -0.77871 0
M  V30 35 H -3.04965 -0.044334 1.3027 0
M  V30 36 H -4.42362 -1.24332 -0.337297 0
M  V30 37 H -4.95499 -0.405503 -2.48938 0
M  V30 38 H -3.18495 -0.346262 -2.42204 0
M  V30 39 H -4.11347 1.14853 -2.2151 0
M  V30 40 H -4.92008 1.37628 0.784547 0
M  V30 41 H -6.00288 -0.0162021 0.6188 0
M  V30 42 H -5.8681 1.18145 -0.772526 0
M  V30 43 H -1.98394 1.97687 0.801158 0
M  V30 44 H -2.39626 1.92471 -0.820085 0
M  V30 END ATOM
M  V30 BEGIN BOND
M  V30 1 1 1 2
M  V30 2 1 2 3
M  V30 3 1 3 4
M  V30 4 2 4 5
M  V30 5 1 5 6
M  V30 6 2 6 7
M  V30 7 1 7 8
M  V30 8 2 8 9
M  V30 9 1 8 10
M  V30 10 2 10 11
M  V30 11 1 11 12
M  V30 12 2 12 13
M  V30 13 1 3 14
M  V30 14 1 14 15
M  V30 15 2 15 16
M  V30 16 1 15 17
M  V30 17 1 17 18
M  V30 18 1 18 19
M  V30 19 1 18 20
M  V30 20 1 17 21
M  V30 21 1 9 4
M  V30 22 1 13 7
M  V30 23 1 1 22
M  V30 24 1 1 23
M  V30 25 1 2 24
M  V30 26 1 2 25
M  V30 27 1 3 26
M  V30 28 1 5 27
M  V30 29 1 6 28
M  V30 30 1 9 29
M  V30 31 1 10 30
M  V30 32 1 11 31
M  V30 33 1 12 32
M  V30 34 1 13 33
M  V30 35 1 14 34
M  V30 36 1 17 35 CFG=1
M  V30 37 1 18 36
M  V30 38 1 19 37
M  V30 39 1 19 38
M  V30 40 1 19 39
M  V30 41 1 20 40
M  V30 42 1 20 41
M  V30 43 1 20 42
M  V30 44 1 21 43
M  V30 45 1 21 44
M  V30 END BOND
M  V30 END CTAB
M  END
