
     RDKit          3D

  0  0  0  0  0  0  0  0  0  0999 V3000
M  V30 BEGIN CTAB
M  V30 COUNTS 61 67 0 0 0
M  V30 BEGIN ATOM
M  V30 1 C -5.27499 -0.164694 2.90958 0
M  V30 2 C -4.85267 -1.26248 2.03973 0
M  V30 3 C -3.95864 -1.0447 1.00236 0
M  V30 4 C -3.44233 0.204219 0.75837 0
M  V30 5 O -3.7734 1.159 1.47035 0
M  V30 6 N -2.55523 0.454592 -0.26071 0
M  V30 7 C -2.15357 -0.519406 -1.0651 0
M  V30 8 C -1.20387 -0.291793 -2.15156 0
M  V30 9 N 0.173737 -0.627329 -1.86707 0
M  V30 10 N 1.03432 0.205846 -1.33409 0
M  V30 11 C 2.25304 -0.383335 -1.18441 0
M  V30 12 C 2.10002 -1.66281 -1.66353 0
M  V30 13 C 2.95004 -2.727 -1.76763 0
M  V30 14 N 4.28656 -2.6493 -1.30505 0
M  V30 15 N 2.47241 -3.88897 -2.29534 0
M  V30 16 C 1.19552 -3.97898 -2.6998 0
M  V30 17 N 0.345802 -2.94666 -2.60306 0
M  V30 18 C 0.766536 -1.7954 -2.09483 0
M  V30 19 C 3.42972 0.262854 -0.59029 0
M  V30 20 C 4.58121 0.395871 -1.33005 0
M  V30 21 C 5.66351 0.997164 -0.694223 0
M  V30 22 C 5.5885 1.44434 0.625459 0
M  V30 23 S 6.63438 2.20622 1.74333 0
M  V30 24 C 5.54624 2.31272 3.08738 0
M  V30 25 N 5.79536 2.86143 4.3775 0
M  V30 26 N 4.46673 1.76084 2.58773 0
M  V30 27 C 4.44407 1.31456 1.36515 0
M  V30 28 C 3.35317 0.703225 0.71098 0
M  V30 29 C -2.65241 -1.77495 -0.846233 0
M  V30 30 C -3.54069 -2.05223 0.165233 0
M  V30 31 C -4.02575 -3.33723 0.357807 0
M  V30 32 C -4.91372 -3.59481 1.375 0
M  V30 33 C -5.31692 -2.56897 2.19962 0
M  V30 34 C -2.13888 1.82946 -0.382212 0
M  V30 35 C -1.28161 2.40006 0.543799 0
M  V30 36 C -0.912911 3.71615 0.438778 0
M  V30 37 C -1.37802 4.51273 -0.58332 0
M  V30 38 C -2.23257 3.93184 -1.50074 0
M  V30 39 C -2.61086 2.63152 -1.41657 0
M  V30 40 H -5.91785 0.60609 2.42872 0
M  V30 41 H -4.49542 0.242614 3.58334 0
M  V30 42 H -6.00553 -0.624879 3.65676 0
M  V30 43 H -1.48487 -0.906577 -3.06532 0
M  V30 44 H -1.23393 0.753145 -2.50724 0
M  V30 45 H 4.51342 -2.57804 -0.294408 0
M  V30 46 H 5.08209 -2.66241 -1.97736 0
M  V30 47 H 0.793492 -4.90614 -3.12828 0
M  V30 48 H 4.67691 0.0762255 -2.36639 0
M  V30 49 H 6.61631 1.15123 -1.18108 0
M  V30 50 H 6.26284 3.77035 4.4657 0
M  V30 51 H 5.5029 2.33911 5.20638 0
M  V30 52 H 2.3994 0.562669 1.23711 0
M  V30 53 H -2.37271 -2.60961 -1.47227 0
M  V30 54 H -3.69413 -4.11856 -0.30115 0
M  V30 55 H -5.312 -4.59808 1.54924 0
M  V30 56 H -6.01765 -2.72009 3.01846 0
M  V30 57 H -0.923007 1.7471 1.35042 0
M  V30 58 H -0.246942 4.15468 1.15995 0
M  V30 59 H -1.09891 5.56262 -0.687491 0
M  V30 60 H -2.62188 4.53969 -2.32813 0
M  V30 61 H -3.2844 2.18525 -2.14541 0
M  V30 END ATOM
M  V30 BEGIN BOND
M  V30 1 1 1 2
M  V30 2 2 2 3
M  V30 3 1 3 4
M  V30 4 2 4 5
M  V30 5 1 4 6
M  V30 6 1 6 7
M  V30 7 1 7 8
M  V30 8 1 8 9
M  V30 9 1 9 10
M  V30 10 2 10 11
M  V30 11 1 11 12
M  V30 12 2 12 13
M  V30 13 1 13 14
M  V30 14 1 13 15
M  V30 15 2 15 16
M  V30 16 1 16 17
M  V30 17 2 17 18
M  V30 18 1 11 19
M  V30 19 2 19 20
M  V30 20 1 20 21
M  V30 21 2 21 22
M  V30 22 1 22 23
M  V30 23 1 23 24
M  V30 24 1 24 25
M  V30 25 2 24 26
M  V30 26 1 26 27
M  V30 27 2 27 28
M  V30 28 2 7 29
M  V30 29 1 29 30
M  V30 30 2 30 31
M  V30 31 1 31 32
M  V30 32 2 32 33
M  V30 33 1 6 34
M  V30 34 2 34 35
M  V30 35 1 35 36
M  V30 36 2 36 37
M  V30 37 1 37 38
M  V30 38 2 38 39
M  V30 39 1 33 2
M  V30 40 1 39 34
M  V30 41 1 30 3
M  V30 42 1 18 9
M  V30 43 1 28 19
M  V30 44 1 18 12
M  V30 45 1 27 22
M  V30 46 1 1 40
M  V30 47 1 1 41
M  V30 48 1 1 42
M  V30 49 1 8 43
M  V30 50 1 8 44
M  V30 51 1 14 45
M  V30 52 1 14 46
M  V30 53 1 16 47
M  V30 54 1 20 48
M  V30 55 1 21 49
M  V30 56 1 25 50
M  V30 57 1 25 51
M  V30 58 1 28 52
M  V30 59 1 29 53
M  V30 60 1 31 54
M  V30 61 1 32 55
M  V30 62 1 33 56
M  V30 63 1 35 57
M  V30 64 1 36 58
M  V30 65 1 37 59
M  V30 66 1 38 60
M  V30 67 1 39 61
M  V30 END BOND
M  V30 END CTAB
M  END
