
     RDKit          3D

  0  0  0  0  0  0  0  0  0  0999 V3000
M  V30 BEGIN CTAB
M  V30 COUNTS 29 30 0 0 0
M  V30 BEGIN ATOM
M  V30 1 N 3.41176 0.0834653 -0.590439 0
M  V30 2 C 3.0829 0.113742 0.807564 0
M  V30 3 C 1.67373 0.567219 1.08271 0
M  V30 4 C 0.659923 -0.312157 0.451226 0
M  V30 5 C 0.977191 -1.58736 0.0438979 0
M  V30 6 C 0.0176128 -2.4037 -0.549475 0
M  V30 7 C -1.25111 -1.88659 -0.710371 0
M  V30 8 C -1.60421 -0.612918 -0.31383 0
M  V30 9 C -0.629508 0.166471 0.2694 0
M  V30 10 C -2.98799 -0.153649 -0.530151 0
M  V30 11 C -3.32389 1.2858 -0.603301 0
M  V30 12 C -3.58311 0.60907 0.695412 0
M  V30 13 N 1.56975 1.91307 0.508177 0
M  V30 14 H 3.83736 0.947694 -0.951248 0
M  V30 15 H 3.91535 -0.775738 -0.891276 0
M  V30 16 H 3.34625 -0.853572 1.27754 0
M  V30 17 H 3.77658 0.857664 1.29957 0
M  V30 18 H 1.55336 0.636887 2.18008 0
M  V30 19 H 1.99142 -1.92094 0.205093 0
M  V30 20 H 0.315469 -3.39167 -0.850207 0
M  V30 21 H -1.98004 -2.53939 -1.1739 0
M  V30 22 H -0.923017 1.16148 0.57414 0
M  V30 23 H -3.68204 -0.861757 -1.00495 0
M  V30 24 H -4.20044 1.55944 -1.2337 0
M  V30 25 H -2.54037 2.07159 -0.622286 0
M  V30 26 H -4.59398 0.302361 0.994019 0
M  V30 27 H -2.90215 0.845544 1.51208 0
M  V30 28 H 2.48191 2.3919 0.760822 0
M  V30 29 H 1.59128 1.78604 -0.54136 0
M  V30 END ATOM
M  V30 BEGIN BOND
M  V30 1 1 1 2
M  V30 2 1 2 3
M  V30 3 1 3 4
M  V30 4 2 4 5
M  V30 5 1 5 6
M  V30 6 2 6 7
M  V30 7 1 7 8
M  V30 8 2 8 9
M  V30 9 1 8 10
M  V30 10 1 10 11
M  V30 11 1 11 12
M  V30 12 1 3 13
M  V30 13 1 9 4
M  V30 14 1 12 10
M  V30 15 1 1 14
M  V30 16 1 1 15
M  V30 17 1 2 16
M  V30 18 1 2 17
M  V30 19 1 3 18
M  V30 20 1 5 19
M  V30 21 1 6 20
M  V30 22 1 7 21
M  V30 23 1 9 22
M  V30 24 1 10 23
M  V30 25 1 11 24
M  V30 26 1 11 25
M  V30 27 1 12 26
M  V30 28 1 12 27
M  V30 29 1 13 28
M  V30 30 1 13 29
M  V30 END BOND
M  V30 END CTAB
M  END
