
     RDKit          3D

  0  0  0  0  0  0  0  0  0  0999 V3000
M  V30 BEGIN CTAB
M  V30 COUNTS 25 26 0 0 0
M  V30 BEGIN ATOM
M  V30 1 N 2.0092 -1.41503 -0.752578 0
M  V30 2 N 1.60363 -0.400141 0.107408 0
M  V30 3 C 0.433094 0.257872 0.0551545 0
M  V30 4 C -0.665609 0.0277275 -0.939895 0 CFG=2
M  V30 5 C -1.06158 1.32147 -1.66403 0
M  V30 6 C -2.1501 1.47941 -0.615804 0
M  V30 7 C -2.04075 -0.0105345 -0.366117 0 CFG=2
M  V30 8 C -2.19313 -0.437629 1.01836 0
M  V30 9 O -2.69575 0.310017 1.88771 0
M  V30 10 O -1.77481 -1.70115 1.39438 0
M  V30 11 N 0.465069 1.13822 1.059 0
M  V30 12 N 1.61256 1.03089 1.71025 0
M  V30 13 C 2.37002 0.0601734 1.13601 0
M  V30 14 N 3.66164 -0.375244 1.51803 0
M  V30 15 H 1.55002 -1.5508 -1.6745 0
M  V30 16 H 2.77932 -2.06617 -0.502958 0
M  V30 17 H -0.403389 -0.766975 -1.65088 0
M  V30 18 H -1.43375 1.16237 -2.69157 0
M  V30 19 H -0.242578 2.06169 -1.55571 0
M  V30 20 H -3.12314 1.80863 -0.978558 0
M  V30 21 H -1.83433 2.11072 0.247363 0
M  V30 22 H -2.73224 -0.544247 -1.0817 0
M  V30 23 H -2.40021 -2.44533 1.67586 0
M  V30 24 H 4.25941 0.247893 2.07842 0
M  V30 25 H 4.00738 -1.30383 1.24259 0
M  V30 END ATOM
M  V30 BEGIN BOND
M  V30 1 1 1 2
M  V30 2 1 2 3
M  V30 3 1 3 4
M  V30 4 1 4 5
M  V30 5 1 5 6
M  V30 6 1 6 7
M  V30 7 1 7 8
M  V30 8 2 8 9
M  V30 9 1 8 10
M  V30 10 2 3 11
M  V30 11 1 11 12
M  V30 12 2 12 13
M  V30 13 1 13 14
M  V30 14 1 13 2
M  V30 15 1 7 4
M  V30 16 1 1 15
M  V30 17 1 1 16
M  V30 18 1 4 17 CFG=3
M  V30 19 1 5 18
M  V30 20 1 5 19
M  V30 21 1 6 20
M  V30 22 1 6 21
M  V30 23 1 7 22 CFG=3
M  V30 24 1 10 23
M  V30 25 1 14 24
M  V30 26 1 14 25
M  V30 END BOND
M  V30 END CTAB
M  END
