
     RDKit          3D

  0  0  0  0  0  0  0  0  0  0999 V3000
M  V30 BEGIN CTAB
M  V30 COUNTS 45 46 0 0 0
M  V30 BEGIN ATOM
M  V30 1 C 4.86762 -1.40127 -0.122968 0
M  V30 2 C 3.49006 -0.890983 -0.486116 0
M  V30 3 C 3.55858 -0.0981089 -1.77485 0
M  V30 4 C 2.20673 0.432357 -2.17875 0
M  V30 5 C 1.68446 1.31561 -1.12465 0
M  V30 6 O 2.49161 2.23241 -0.727924 0
M  V30 7 N 0.423917 1.26035 -0.522063 0
M  V30 8 C -0.624753 0.327103 -0.811138 0
M  V30 9 C -1.77584 0.618164 0.148983 0 CFG=2
M  V30 10 C -1.07569 1.27648 1.27926 0 CFG=1
M  V30 11 C -0.0646337 2.1555 0.53041 0
M  V30 12 C -1.92481 2.19882 2.09675 0
M  V30 13 N -2.48846 3.29155 1.35733 0
M  V30 14 C -2.40105 -0.679765 0.473756 0
M  V30 15 C -3.70931 -0.906482 0.116013 0
M  V30 16 C -4.27098 -2.12534 0.429872 0
M  V30 17 C -3.57749 -3.12116 1.08464 0
M  V30 18 C -2.264 -2.893 1.44359 0
M  V30 19 C -1.70526 -1.67099 1.12741 0
M  V30 20 N 1.29949 -0.58075 -2.59924 0
M  V30 21 H 5.01667 -1.38854 0.972283 0
M  V30 22 H 4.99692 -2.42132 -0.55089 0
M  V30 23 H 5.62984 -0.709264 -0.552503 0
M  V30 24 H 3.17174 -0.21851 0.361239 0
M  V30 25 H 2.78003 -1.71748 -0.522304 0
M  V30 26 H 4.2384 0.760982 -1.61185 0
M  V30 27 H 4.00256 -0.740836 -2.55177 0
M  V30 28 H 2.39632 1.09345 -3.07408 0
M  V30 29 H -0.976644 0.356182 -1.864 0
M  V30 30 H -0.236836 -0.683396 -0.533637 0
M  V30 31 H -2.4617 1.30021 -0.3718 0
M  V30 32 H -0.565531 0.570795 1.93055 0
M  V30 33 H -0.603145 2.96868 0.00921482 0
M  V30 34 H 0.72844 2.49537 1.19712 0
M  V30 35 H -1.25213 2.65071 2.87529 0
M  V30 36 H -2.71977 1.67703 2.66514 0
M  V30 37 H -1.82924 4.07514 1.24014 0
M  V30 38 H -3.0398 3.03297 0.535527 0
M  V30 39 H -4.30142 -0.136494 -0.409573 0
M  V30 40 H -5.31375 -2.29484 0.14011 0
M  V30 41 H -4.04202 -4.06988 1.31948 0
M  V30 42 H -1.74123 -3.68249 1.95333 0
M  V30 43 H -0.655364 -1.51197 1.42409 0
M  V30 44 H 1.40429 -1.49143 -2.10494 0
M  V30 45 H 1.23315 -0.655554 -3.62734 0
M  V30 END ATOM
M  V30 BEGIN BOND
M  V30 1 1 1 2
M  V30 2 1 2 3
M  V30 3 1 3 4
M  V30 4 1 4 5
M  V30 5 2 5 6
M  V30 6 1 5 7
M  V30 7 1 7 8
M  V30 8 1 8 9
M  V30 9 1 9 10
M  V30 10 1 10 11
M  V30 11 1 10 12
M  V30 12 1 12 13
M  V30 13 1 9 14
M  V30 14 2 14 15
M  V30 15 1 15 16
M  V30 16 2 16 17
M  V30 17 1 17 18
M  V30 18 2 18 19
M  V30 19 1 4 20
M  V30 20 1 11 7
M  V30 21 1 19 14
M  V30 22 1 1 21
M  V30 23 1 1 22
M  V30 24 1 1 23
M  V30 25 1 2 24
M  V30 26 1 2 25
M  V30 27 1 3 26
M  V30 28 1 3 27
M  V30 29 1 4 28
M  V30 30 1 8 29
M  V30 31 1 8 30
M  V30 32 1 9 31 CFG=3
M  V30 33 1 10 32 CFG=1
M  V30 34 1 11 33
M  V30 35 1 11 34
M  V30 36 1 12 35
M  V30 37 1 12 36
M  V30 38 1 13 37
M  V30 39 1 13 38
M  V30 40 1 15 39
M  V30 41 1 16 40
M  V30 42 1 17 41
M  V30 43 1 18 42
M  V30 44 1 19 43
M  V30 45 1 20 44
M  V30 46 1 20 45
M  V30 END BOND
M  V30 END CTAB
M  END
