
     RDKit          3D

  0  0  0  0  0  0  0  0  0  0999 V3000
M  V30 BEGIN CTAB
M  V30 COUNTS 35 34 0 0 0
M  V30 BEGIN ATOM
M  V30 1 C 4.28518 1.82522 0.39618 0
M  V30 2 C 3.20279 0.799019 0.401941 0
M  V30 3 C 3.00471 0.169587 -0.971529 0
M  V30 4 C 1.89838 -0.867543 -0.929071 0
M  V30 5 O 0.741694 -0.236422 -0.538157 0
M  V30 6 Si -0.602777 -1.28071 -0.44286 0 VAL=4
M  V30 7 N -0.449819 -2.6067 -1.64724 0
M  V30 8 N -0.588992 -2.05443 1.16102 0
M  V30 9 O -1.99458 -0.449281 -0.813004 0
M  V30 10 C -2.61851 0.301413 0.102596 0
M  V30 11 C -3.85023 0.915926 -0.57198 0
M  V30 12 C -1.74287 1.4766 0.508258 0
M  V30 13 C -3.10295 -0.359259 1.34649 0
M  V30 14 H 5.30863 1.39217 0.545068 0
M  V30 15 H 4.1514 2.62852 1.13793 0
M  V30 16 H 4.29453 2.31835 -0.614374 0
M  V30 17 H 3.46275 0.0237837 1.14553 0
M  V30 18 H 2.26514 1.27758 0.750876 0
M  V30 19 H 2.73149 0.982419 -1.68211 0
M  V30 20 H 3.96733 -0.253626 -1.28974 0
M  V30 21 H 2.20887 -1.59661 -0.124165 0
M  V30 22 H 1.83525 -1.44661 -1.84856 0
M  V30 23 H -0.216455 -3.50889 -1.22915 0
M  V30 24 H 0.0929148 -2.3349 -2.47229 0
M  V30 25 H -1.43446 -2.58802 1.38099 0
M  V30 26 H -0.198108 -1.47335 1.90721 0
M  V30 27 H -4.50768 1.40378 0.152175 0
M  V30 28 H -4.34488 0.0765246 -1.12223 0
M  V30 29 H -3.45669 1.5969 -1.3454 0
M  V30 30 H -1.32852 1.32189 1.54321 0
M  V30 31 H -0.86818 1.59336 -0.159476 0
M  V30 32 H -2.29496 2.42501 0.525321 0
M  V30 33 H -3.90965 0.28948 1.76461 0
M  V30 34 H -3.59813 -1.3363 1.14436 0
M  V30 35 H -2.34262 -0.424882 2.15583 0
M  V30 END ATOM
M  V30 BEGIN BOND
M  V30 1 1 1 2
M  V30 2 1 2 3
M  V30 3 1 3 4
M  V30 4 1 4 5
M  V30 5 1 5 6
M  V30 6 1 6 7
M  V30 7 1 6 8
M  V30 8 1 6 9
M  V30 9 1 9 10
M  V30 10 1 10 11
M  V30 11 1 10 12
M  V30 12 1 10 13
M  V30 13 1 1 14
M  V30 14 1 1 15
M  V30 15 1 1 16
M  V30 16 1 2 17
M  V30 17 1 2 18
M  V30 18 1 3 19
M  V30 19 1 3 20
M  V30 20 1 4 21
M  V30 21 1 4 22
M  V30 22 1 7 23
M  V30 23 1 7 24
M  V30 24 1 8 25
M  V30 25 1 8 26
M  V30 26 1 11 27
M  V30 27 1 11 28
M  V30 28 1 11 29
M  V30 29 1 12 30
M  V30 30 1 12 31
M  V30 31 1 12 32
M  V30 32 1 13 33
M  V30 33 1 13 34
M  V30 34 1 13 35
M  V30 END BOND
M  V30 END CTAB
M  END
