
     RDKit          3D

  0  0  0  0  0  0  0  0  0  0999 V3000
M  V30 BEGIN CTAB
M  V30 COUNTS 29 29 0 0 0
M  V30 BEGIN ATOM
M  V30 1 C -4.38098 1.19358 -0.0174537 0
M  V30 2 C -3.03277 0.678316 0.428616 0
M  V30 3 C -3.17856 -0.818502 0.594094 0
M  V30 4 N -2.02004 0.901278 -0.594313 0
M  V30 5 C -0.666975 0.516027 -0.413161 0
M  V30 6 C 0.222111 0.765391 -1.43565 0
M  V30 7 Cl -0.359234 1.54703 -2.91639 0
M  V30 8 N 1.51164 0.416209 -1.30136 0
M  V30 9 C 1.9314 -0.185073 -0.148255 0
M  V30 10 C 3.32425 -0.574295 0.0241448 0
M  V30 11 O 3.69535 -1.12343 1.08347 0
M  V30 12 N 4.29065 -0.346393 -0.989094 0
M  V30 13 N 5.61137 -0.705917 -0.847339 0
M  V30 14 C 1.03817 -0.4341 0.875597 0
M  V30 15 N 1.52677 -1.0698 2.07171 0
M  V30 16 N -0.252202 -0.0844813 0.740747 0
M  V30 17 H -4.3871 2.27602 -0.199731 0
M  V30 18 H -5.11759 0.87298 0.746315 0
M  V30 19 H -4.66422 0.641098 -0.951182 0
M  V30 20 H -2.73109 1.17008 1.38062 0
M  V30 21 H -4.2397 -1.09395 0.792504 0
M  V30 22 H -2.86903 -1.29909 -0.355582 0
M  V30 23 H -2.49873 -1.19329 1.38018 0
M  V30 24 H -2.3258 1.35319 -1.46197 0
M  V30 25 H 3.96697 0.112423 -1.86722 0
M  V30 26 H 5.90937 -0.837781 0.142246 0
M  V30 27 H 6.27069 -0.0691502 -1.34294 0
M  V30 28 H 1.94914 -0.509115 2.83182 0
M  V30 29 H 1.47614 -2.09925 2.21797 0
M  V30 END ATOM
M  V30 BEGIN BOND
M  V30 1 1 1 2
M  V30 2 1 2 3
M  V30 3 1 2 4
M  V30 4 1 4 5
M  V30 5 2 5 6
M  V30 6 1 6 7
M  V30 7 1 6 8
M  V30 8 2 8 9
M  V30 9 1 9 10
M  V30 10 2 10 11
M  V30 11 1 10 12
M  V30 12 1 12 13
M  V30 13 1 9 14
M  V30 14 1 14 15
M  V30 15 2 14 16
M  V30 16 1 16 5
M  V30 17 1 1 17
M  V30 18 1 1 18
M  V30 19 1 1 19
M  V30 20 1 2 20
M  V30 21 1 3 21
M  V30 22 1 3 22
M  V30 23 1 3 23
M  V30 24 1 4 24
M  V30 25 1 12 25
M  V30 26 1 13 26
M  V30 27 1 13 27
M  V30 28 1 15 28
M  V30 29 1 15 29
M  V30 END BOND
M  V30 END CTAB
M  END
