
     RDKit          3D

  0  0  0  0  0  0  0  0  0  0999 V3000
M  V30 BEGIN CTAB
M  V30 COUNTS 45 49 0 0 0
M  V30 BEGIN ATOM
M  V30 1 N -2.3095 2.4642 -3.40389 0
M  V30 2 C -2.22722 1.76129 -2.18789 0
M  V30 3 N -0.996282 1.39193 -1.72901 0
M  V30 4 C -0.843438 0.723979 -0.584825 0
M  V30 5 N -1.93939 0.41309 0.12468 0
M  V30 6 C -3.17609 0.763014 -0.299357 0
M  V30 7 N -3.30094 1.43499 -1.45481 0
M  V30 8 N -4.35372 0.450898 0.424731 0
M  V30 9 C -5.6702 0.824211 -0.0288456 0
M  V30 10 C -6.55255 -0.405313 0.0295042 0
M  V30 11 O -6.58667 -0.818462 1.35553 0
M  V30 12 C -5.35706 -1.30675 1.78181 0
M  V30 13 C -4.2551 -0.273408 1.67654 0
M  V30 14 C 0.45596 0.297428 -0.0363702 0
M  V30 15 S 0.790122 -0.555027 1.40258 0
M  V30 16 C 2.49231 -0.637343 1.28841 0
M  V30 17 C 2.75149 0.0116629 0.115046 0
M  V30 18 C 1.70636 0.495473 -0.571964 0
M  V30 19 N 1.8059 1.2141 -1.84278 0
M  V30 20 C 4.11864 0.0817627 -0.214491 0
M  V30 21 C 5.05922 -0.467496 0.60277 0
M  V30 22 C 4.76852 -1.11809 1.78325 0
M  V30 23 N 3.46287 -1.17864 2.08702 0
M  V30 24 C 6.0353 -1.59462 2.41595 0
M  V30 25 C 6.91949 -1.7569 1.1711 0
M  V30 26 C 6.55425 -0.491798 0.428427 0
M  V30 27 H -1.56415 2.38959 -4.13756 0
M  V30 28 H -3.1159 3.07615 -3.60196 0
M  V30 29 H -6.06095 1.56752 0.71428 0
M  V30 30 H -5.64485 1.27214 -1.04668 0
M  V30 31 H -6.15673 -1.20156 -0.620031 0
M  V30 32 H -7.59732 -0.107058 -0.230994 0
M  V30 33 H -5.04834 -2.16213 1.12412 0
M  V30 34 H -5.48282 -1.66804 2.80556 0
M  V30 35 H -4.29628 0.437719 2.51092 0
M  V30 36 H -3.28371 -0.847058 1.66095 0
M  V30 37 H 2.05351 0.733034 -2.7195 0
M  V30 38 H 1.62656 2.24022 -1.89018 0
M  V30 39 H 4.4331 0.575612 -1.12503 0
M  V30 40 H 5.93465 -2.60387 2.84842 0
M  V30 41 H 6.4468 -0.871124 3.12185 0
M  V30 42 H 7.97188 -1.79337 1.47796 0
M  V30 43 H 6.59269 -2.63739 0.609608 0
M  V30 44 H 7.00356 0.388432 0.927723 0
M  V30 45 H 6.83603 -0.513006 -0.630711 0
M  V30 END ATOM
M  V30 BEGIN BOND
M  V30 1 1 1 2
M  V30 2 2 2 3
M  V30 3 1 3 4
M  V30 4 2 4 5
M  V30 5 1 5 6
M  V30 6 2 6 7
M  V30 7 1 6 8
M  V30 8 1 8 9
M  V30 9 1 9 10
M  V30 10 1 10 11
M  V30 11 1 11 12
M  V30 12 1 12 13
M  V30 13 1 4 14
M  V30 14 1 14 15
M  V30 15 1 15 16
M  V30 16 2 16 17
M  V30 17 1 17 18
M  V30 18 1 18 19
M  V30 19 1 17 20
M  V30 20 2 20 21
M  V30 21 1 21 22
M  V30 22 2 22 23
M  V30 23 1 22 24
M  V30 24 1 24 25
M  V30 25 1 25 26
M  V30 26 1 7 2
M  V30 27 1 13 8
M  V30 28 2 18 14
M  V30 29 1 26 21
M  V30 30 1 23 16
M  V30 31 1 1 27
M  V30 32 1 1 28
M  V30 33 1 9 29
M  V30 34 1 9 30
M  V30 35 1 10 31
M  V30 36 1 10 32
M  V30 37 1 12 33
M  V30 38 1 12 34
M  V30 39 1 13 35
M  V30 40 1 13 36
M  V30 41 1 19 37
M  V30 42 1 19 38
M  V30 43 1 20 39
M  V30 44 1 24 40
M  V30 45 1 24 41
M  V30 46 1 25 42
M  V30 47 1 25 43
M  V30 48 1 26 44
M  V30 49 1 26 45
M  V30 END BOND
M  V30 END CTAB
M  END
