
     RDKit          3D

  0  0  0  0  0  0  0  0  0  0999 V3000
M  V30 BEGIN CTAB
M  V30 COUNTS 22 22 0 0 0
M  V30 BEGIN ATOM
M  V30 1 F -3.0751 -1.42155 0.954363 0
M  V30 2 C -2.78537 -0.628969 -0.160154 0
M  V30 3 C -1.32358 -0.296227 -0.0791723 0
M  V30 4 C -0.362995 -1.28601 -0.0860955 0
M  V30 5 C 0.982868 -0.991805 -0.0121042 0
M  V30 6 N 1.95427 -2.03654 -0.0212995 0
M  V30 7 C 1.3305 0.339922 0.0695259 0
M  V30 8 C 0.363182 1.3256 0.0759474 0
M  V30 9 C -0.98501 1.03889 0.00222572 0
M  V30 10 N -1.96969 2.06703 0.0100203 0
M  V30 11 C 2.78276 0.674695 0.150281 0
M  V30 12 F 3.42812 0.200738 -0.974259 0
M  V30 13 F 3.29211 0.0464276 1.26361 0
M  V30 14 F 2.8956 2.03936 0.273503 0
M  V30 15 F -3.04412 -1.42825 -1.26705 0
M  V30 16 H -3.4011 0.276332 -0.142207 0
M  V30 17 H -0.639871 -2.34199 -0.15087 0
M  V30 18 H 2.05695 -2.58536 -0.905782 0
M  V30 19 H 2.55466 -2.28272 0.778221 0
M  V30 20 H 0.648832 2.37901 0.141 0
M  V30 21 H -2.21792 2.63259 -0.818188 0
M  V30 22 H -2.48509 2.27882 0.898481 0
M  V30 END ATOM
M  V30 BEGIN BOND
M  V30 1 1 1 2
M  V30 2 1 2 3
M  V30 3 2 3 4
M  V30 4 1 4 5
M  V30 5 1 5 6
M  V30 6 2 5 7
M  V30 7 1 7 8
M  V30 8 2 8 9
M  V30 9 1 9 10
M  V30 10 1 7 11
M  V30 11 1 11 12
M  V30 12 1 11 13
M  V30 13 1 11 14
M  V30 14 1 2 15
M  V30 15 1 9 3
M  V30 16 1 2 16
M  V30 17 1 4 17
M  V30 18 1 6 18
M  V30 19 1 6 19
M  V30 20 1 8 20
M  V30 21 1 10 21
M  V30 22 1 10 22
M  V30 END BOND
M  V30 END CTAB
M  END
