
     RDKit          3D

  0  0  0  0  0  0  0  0  0  0999 V3000
M  V30 BEGIN CTAB
M  V30 COUNTS 25 26 0 0 0
M  V30 BEGIN ATOM
M  V30 1 N -3.74984 0.984647 -1.17271 0
M  V30 2 C -2.81803 0.0918667 -0.587164 0
M  V30 3 C -2.97872 -1.26807 -0.71029 0
M  V30 4 C -2.07653 -2.1446 -0.143558 0
M  V30 5 C -1.00211 -1.63276 0.554133 0
M  V30 6 C -0.79558 -0.277072 0.706648 0
M  V30 7 C -1.73055 0.54871 0.118116 0
M  V30 8 C 0.322109 0.316119 1.43328 0
M  V30 9 C 1.51149 0.574029 0.583339 0
M  V30 10 N 1.77288 1.70203 -0.100712 0
M  V30 11 N 2.91966 1.56063 -0.739166 0
M  V30 12 C 3.43205 0.332219 -0.483579 0
M  V30 13 N 2.54398 -0.247051 0.330534 0
M  V30 14 N 4.65503 -0.186021 -0.993904 0
M  V30 15 H -4.05953 1.83648 -0.663762 0
M  V30 16 H -4.15159 0.82357 -2.11718 0
M  V30 17 H -3.85397 -1.61531 -1.27763 0
M  V30 18 H -2.21346 -3.21411 -0.247181 0
M  V30 19 H -0.306841 -2.33507 0.990484 0
M  V30 20 H -1.63951 1.63976 0.19258 0
M  V30 21 H 0.596559 -0.290282 2.34308 0
M  V30 22 H -0.0138198 1.30177 1.85027 0
M  V30 23 H 3.39299 2.26683 -1.35755 0
M  V30 24 H 4.74027 -0.431861 -2.00927 0
M  V30 25 H 5.50305 -0.336461 -0.371763 0
M  V30 END ATOM
M  V30 BEGIN BOND
M  V30 1 1 1 2
M  V30 2 2 2 3
M  V30 3 1 3 4
M  V30 4 2 4 5
M  V30 5 1 5 6
M  V30 6 2 6 7
M  V30 7 1 6 8
M  V30 8 1 8 9
M  V30 9 2 9 10
M  V30 10 1 10 11
M  V30 11 1 11 12
M  V30 12 2 12 13
M  V30 13 1 12 14
M  V30 14 1 7 2
M  V30 15 1 13 9
M  V30 16 1 1 15
M  V30 17 1 1 16
M  V30 18 1 3 17
M  V30 19 1 4 18
M  V30 20 1 5 19
M  V30 21 1 7 20
M  V30 22 1 8 21
M  V30 23 1 8 22
M  V30 24 1 11 23
M  V30 25 1 14 24
M  V30 26 1 14 25
M  V30 END BOND
M  V30 END CTAB
M  END
