
     RDKit          3D

  0  0  0  0  0  0  0  0  0  0999 V3000
M  V30 BEGIN CTAB
M  V30 COUNTS 28 28 0 0 0
M  V30 BEGIN ATOM
M  V30 1 N 4.19945 1.07257 -0.66377 0
M  V30 2 N 3.23174 1.0485 0.342105 0
M  V30 3 C 2.37056 0.113721 0.472838 0
M  V30 4 N 1.38887 0.0875086 1.49165 0
M  V30 5 C 0.233822 -0.739402 1.42384 0
M  V30 6 C -0.748425 -0.345661 0.361114 0
M  V30 7 C -1.95069 -1.26582 0.342813 0
M  V30 8 C -2.9002 -0.494903 -0.559754 0
M  V30 9 C -2.77105 0.895039 0.0269974 0
M  V30 10 C -1.34731 0.999225 0.537021 0
M  V30 11 O -0.621614 1.9035 -0.27324 0
M  V30 12 N 2.40304 -0.960031 -0.457704 0
M  V30 13 H 5.1562 0.698106 -0.453579 0
M  V30 14 H 4.03691 1.44226 -1.6269 0
M  V30 15 H 1.53405 0.703665 2.31443 0
M  V30 16 H 0.542429 -1.7965 1.19406 0
M  V30 17 H -0.323392 -0.809646 2.38011 0
M  V30 18 H -0.28974 -0.406237 -0.65249 0
M  V30 19 H -1.63053 -2.19049 -0.178703 0
M  V30 20 H -2.37066 -1.44819 1.34801 0
M  V30 21 H -2.48829 -0.53736 -1.58692 0
M  V30 22 H -3.92718 -0.888354 -0.472129 0
M  V30 23 H -3.5207 0.960438 0.84116 0
M  V30 24 H -2.95924 1.60965 -0.772303 0
M  V30 25 H -1.28824 1.40316 1.56421 0
M  V30 26 H -0.775659 1.62338 -1.21746 0
M  V30 27 H 2.74717 -1.90582 -0.194385 0
M  V30 28 H 2.06866 -0.772319 -1.42233 0
M  V30 END ATOM
M  V30 BEGIN BOND
M  V30 1 1 1 2
M  V30 2 2 2 3 CFG=2
M  V30 3 1 3 4
M  V30 4 1 4 5
M  V30 5 1 5 6
M  V30 6 1 6 7
M  V30 7 1 7 8
M  V30 8 1 8 9
M  V30 9 1 9 10
M  V30 10 1 10 11
M  V30 11 1 3 12
M  V30 12 1 10 6
M  V30 13 1 1 13
M  V30 14 1 1 14
M  V30 15 1 4 15
M  V30 16 1 5 16
M  V30 17 1 5 17
M  V30 18 1 6 18
M  V30 19 1 7 19
M  V30 20 1 7 20
M  V30 21 1 8 21
M  V30 22 1 8 22
M  V30 23 1 9 23
M  V30 24 1 9 24
M  V30 25 1 10 25
M  V30 26 1 11 26
M  V30 27 1 12 27
M  V30 28 1 12 28
M  V30 END BOND
M  V30 END CTAB
M  END
