
     RDKit          3D

  0  0  0  0  0  0  0  0  0  0999 V3000
M  V30 BEGIN CTAB
M  V30 COUNTS 71 74 0 0 0
M  V30 BEGIN ATOM
M  V30 1 C 8.7384 -2.76373 -2.77762 0
M  V30 2 O 9.13352 -3.28154 -1.5257 0
M  V30 3 C 8.57868 -2.76107 -0.358808 0
M  V30 4 C 8.98288 -3.28697 0.866748 0
M  V30 5 C 8.46002 -2.80092 2.02692 0
M  V30 6 C 7.53014 -1.78459 1.94373 0
M  V30 7 C 7.11205 -1.24484 0.73688 0
M  V30 8 C 7.6533 -1.751 -0.42255 0
M  V30 9 C 6.12342 -0.169318 0.712275 0
M  V30 10 C 5.14474 -0.115991 1.69065 0
M  V30 11 C 4.19931 0.887324 1.69437 0
M  V30 12 C 4.18123 1.87584 0.735872 0
M  V30 13 C 5.15005 1.8344 -0.243818 0
M  V30 14 C 6.10842 0.817328 -0.247726 0
M  V30 15 C 3.14652 2.96345 0.752939 0 CFG=1
M  V30 16 O 1.89442 2.35896 1.00859 0
M  V30 17 C 0.846713 2.56361 0.13512 0
M  V30 18 C -0.378422 1.94957 0.411832 0
M  V30 19 C -1.43725 2.1394 -0.444667 0
M  V30 20 N -1.21712 2.92158 -1.51576 0
M  V30 21 C -0.0529453 3.51207 -1.78936 0
M  V30 22 N 0.0220912 4.30993 -2.96052 0
M  V30 23 N 0.976972 3.3254 -0.953386 0
M  V30 24 C -2.75963 1.53306 -0.232795 0
M  V30 25 C -3.04816 0.720751 0.840285 0
M  V30 26 C -4.31297 0.173191 0.993212 0
M  V30 27 C -5.34797 0.391005 0.112615 0
M  V30 28 C -6.68969 -0.200785 0.285001 0
M  V30 29 C -6.94947 -1.48238 -0.412422 0 CFG=2
M  V30 30 N -8.33262 -1.86469 -0.0969434 0
M  V30 31 C -9.30548 -2.0466 -1.09845 0
M  V30 32 O -8.95996 -1.87025 -2.31389 0
M  V30 33 C -10.6994 -2.42711 -0.847451 0
M  V30 34 N -10.9006 -2.58078 0.581063 0
M  V30 35 C -6.07261 -2.55752 0.076288 0
M  V30 36 O -4.70071 -2.61765 -0.0777492 0
M  V30 37 O -6.57705 -3.55146 0.705221 0
M  V30 38 C -5.04866 1.21711 -0.975362 0
M  V30 39 C -3.79141 1.75874 -1.12337 0
M  V30 40 C 3.40698 3.94673 1.88782 0
M  V30 41 F 3.37568 3.32893 3.0998 0
M  V30 42 F 4.63586 4.56512 1.74577 0
M  V30 43 F 2.4397 4.92448 1.78366 0
M  V30 44 H 9.3031 -3.21375 -3.60445 0
M  V30 45 H 7.6581 -2.99618 -2.96524 0
M  V30 46 H 8.84818 -1.65985 -2.77042 0
M  V30 47 H 9.7158 -4.08645 0.909941 0
M  V30 48 H 8.76035 -3.19626 3.00441 0
M  V30 49 H 7.1283 -1.41402 2.87768 0
M  V30 50 H 7.35981 -1.3623 -1.41052 0
M  V30 51 H 5.15712 -0.897851 2.4506 0
M  V30 52 H 3.43204 0.928009 2.46107 0
M  V30 53 H 5.16091 2.59584 -1.00842 0
M  V30 54 H 6.88031 0.76516 -1.00938 0
M  V30 55 H 3.15666 3.54727 -0.170533 0
M  V30 56 H -0.459647 1.34953 1.28045 0
M  V30 57 H -0.0701785 5.33393 -2.88645 0
M  V30 58 H 0.168403 3.86277 -3.88039 0
M  V30 59 H -2.2649 0.515798 1.56714 0
M  V30 60 H -4.52251 -0.469 1.85339 0
M  V30 61 H -7.48591 0.556717 0.029738 0
M  V30 62 H -6.83615 -0.371838 1.37547 0
M  V30 63 H -6.88147 -1.38523 -1.52037 0
M  V30 64 H -8.60529 -2.00609 0.895181 0
M  V30 65 H -10.9792 -3.37344 -1.35901 0
M  V30 66 H -11.4326 -1.66575 -1.23518 0
M  V30 67 H -10.3291 -3.38917 0.919975 0
M  V30 68 H -10.6425 -1.68034 1.02406 0
M  V30 69 H -4.06232 -2.94886 0.634138 0
M  V30 70 H -5.8522 1.39725 -1.67572 0
M  V30 71 H -3.56396 2.40536 -1.9785 0
M  V30 END ATOM
M  V30 BEGIN BOND
M  V30 1 1 1 2
M  V30 2 1 2 3
M  V30 3 2 3 4
M  V30 4 1 4 5
M  V30 5 2 5 6
M  V30 6 1 6 7
M  V30 7 2 7 8
M  V30 8 1 7 9
M  V30 9 2 9 10
M  V30 10 1 10 11
M  V30 11 2 11 12
M  V30 12 1 12 13
M  V30 13 2 13 14
M  V30 14 1 12 15
M  V30 15 1 15 16
M  V30 16 1 16 17
M  V30 17 2 17 18
M  V30 18 1 18 19
M  V30 19 2 19 20
M  V30 20 1 20 21
M  V30 21 1 21 22
M  V30 22 2 21 23
M  V30 23 1 19 24
M  V30 24 2 24 25
M  V30 25 1 25 26
M  V30 26 2 26 27
M  V30 27 1 27 28
M  V30 28 1 28 29
M  V30 29 1 29 30
M  V30 30 1 30 31
M  V30 31 2 31 32
M  V30 32 1 31 33
M  V30 33 1 33 34
M  V30 34 1 29 35
M  V30 35 1 35 36
M  V30 36 2 35 37
M  V30 37 1 27 38
M  V30 38 2 38 39
M  V30 39 1 15 40
M  V30 40 1 40 41
M  V30 41 1 40 42
M  V30 42 1 40 43
M  V30 43 1 8 3
M  V30 44 1 14 9
M  V30 45 1 23 17
M  V30 46 1 39 24
M  V30 47 1 1 44
M  V30 48 1 1 45
M  V30 49 1 1 46
M  V30 50 1 4 47
M  V30 51 1 5 48
M  V30 52 1 6 49
M  V30 53 1 8 50
M  V30 54 1 10 51
M  V30 55 1 11 52
M  V30 56 1 13 53
M  V30 57 1 14 54
M  V30 58 1 15 55 CFG=3
M  V30 59 1 18 56
M  V30 60 1 22 57
M  V30 61 1 22 58
M  V30 62 1 25 59
M  V30 63 1 26 60
M  V30 64 1 28 61
M  V30 65 1 28 62
M  V30 66 1 29 63 CFG=3
M  V30 67 1 30 64
M  V30 68 1 33 65
M  V30 69 1 33 66
M  V30 70 1 34 67
M  V30 71 1 34 68
M  V30 72 1 36 69
M  V30 73 1 38 70
M  V30 74 1 39 71
M  V30 END BOND
M  V30 END CTAB
M  END
