
     RDKit          3D

  0  0  0  0  0  0  0  0  0  0999 V3000
M  V30 BEGIN CTAB
M  V30 COUNTS 40 41 0 0 0
M  V30 BEGIN ATOM
M  V30 1 N -4.91314 -0.532128 -0.556038 0
M  V30 2 C -4.48647 0.763293 -0.845587 0
M  V30 3 C -3.01329 0.875288 -0.956778 0
M  V30 4 N -2.22324 0.571286 0.192782 0
M  V30 5 C -2.21128 -0.778979 0.526026 0
M  V30 6 C -1.14414 -1.27697 1.45628 0
M  V30 7 C 0.241381 -0.848862 1.21723 0
M  V30 8 C 0.616598 -0.667243 -0.242461 0 CFG=1
M  V30 9 C -0.0954031 0.469504 -0.88466 0
M  V30 10 C -0.972991 1.25048 0.0493313 0
M  V30 11 C 2.11088 -0.48717 -0.2432 0
M  V30 12 C 2.95198 -1.52097 -0.581169 0
M  V30 13 C 4.33134 -1.40932 -0.606157 0
M  V30 14 C 4.91026 -0.216383 -0.281248 0
M  V30 15 C 4.09109 0.85856 0.066917 0
M  V30 16 C 2.7033 0.718724 0.0843179 0
M  V30 17 N 4.74789 2.06624 0.38496 0
M  V30 18 H -5.39877 -0.715926 0.287063 0
M  V30 19 H -4.53647 -1.27458 -1.06036 0
M  V30 20 H -4.923 1.53394 -0.158097 0
M  V30 21 H -4.89715 1.06262 -1.86206 0
M  V30 22 H -2.72291 0.211642 -1.84039 0
M  V30 23 H -2.79691 1.90937 -1.35498 0
M  V30 24 H -2.26589 -1.45511 -0.355857 0
M  V30 25 H -3.17195 -0.988675 1.10453 0
M  V30 26 H -1.18813 -2.40895 1.37335 0
M  V30 27 H -1.42547 -1.09126 2.51543 0
M  V30 28 H 0.552765 0.02688 1.84254 0
M  V30 29 H 0.951749 -1.65853 1.57631 0
M  V30 30 H 0.427919 -1.65387 -0.708051 0
M  V30 31 H -0.723391 0.0764077 -1.70718 0
M  V30 32 H 0.642986 1.16115 -1.38255 0
M  V30 33 H -1.1731 2.24282 -0.443212 0
M  V30 34 H -0.555296 1.47924 1.02408 0
M  V30 35 H 2.52728 -2.47714 -0.840658 0
M  V30 36 H 4.98393 -2.25788 -0.879043 0
M  V30 37 H 5.99345 -0.106328 -0.294152 0
M  V30 38 H 2.08857 1.55452 0.35601 0
M  V30 39 H 4.65168 2.4568 1.33695 0
M  V30 40 H 5.31334 2.5375 -0.340601 0
M  V30 END ATOM
M  V30 BEGIN BOND
M  V30 1 1 1 2
M  V30 2 1 2 3
M  V30 3 1 3 4
M  V30 4 1 4 5
M  V30 5 1 5 6
M  V30 6 1 6 7
M  V30 7 1 7 8
M  V30 8 1 8 9
M  V30 9 1 9 10
M  V30 10 1 8 11
M  V30 11 2 11 12
M  V30 12 1 12 13
M  V30 13 2 13 14
M  V30 14 1 14 15
M  V30 15 2 15 16
M  V30 16 1 15 17
M  V30 17 1 10 4
M  V30 18 1 16 11
M  V30 19 1 1 18
M  V30 20 1 1 19
M  V30 21 1 2 20
M  V30 22 1 2 21
M  V30 23 1 3 22
M  V30 24 1 3 23
M  V30 25 1 5 24
M  V30 26 1 5 25
M  V30 27 1 6 26
M  V30 28 1 6 27
M  V30 29 1 7 28
M  V30 30 1 7 29
M  V30 31 1 8 30 CFG=3
M  V30 32 1 9 31
M  V30 33 1 9 32
M  V30 34 1 10 33
M  V30 35 1 10 34
M  V30 36 1 12 35
M  V30 37 1 13 36
M  V30 38 1 14 37
M  V30 39 1 16 38
M  V30 40 1 17 39
M  V30 41 1 17 40
M  V30 END BOND
M  V30 END CTAB
M  END
