
     RDKit          3D

  0  0  0  0  0  0  0  0  0  0999 V3000
M  V30 BEGIN CTAB
M  V30 COUNTS 52 53 0 0 0
M  V30 BEGIN ATOM
M  V30 1 C -0.271447 5.88915 -0.350812 0
M  V30 2 O -0.191746 4.88275 -1.33619 0
M  V30 3 C -0.186823 3.54348 -0.908321 0
M  V30 4 C -0.256162 3.21944 0.407832 0
M  V30 5 C -0.251079 1.88808 0.829687 0
M  V30 6 C -0.175385 0.867254 -0.0751988 0
M  V30 7 C -0.104953 1.20268 -1.41729 0
M  V30 8 C -0.109389 2.5136 -1.8455 0
M  V30 9 C -0.157944 -0.561981 0.338119 0
M  V30 10 N -0.633435 -0.775456 1.67835 0
M  V30 11 C -0.861378 -1.45158 -0.595859 0
M  V30 12 N -0.744321 -2.81679 -0.0320619 0
M  V30 13 C -2.22205 -1.26199 -1.04485 0
M  V30 14 C -3.41965 -1.27758 -0.195874 0
M  V30 15 C -4.68231 -1.08968 -1.13347 0
M  V30 16 C -3.6321 -0.23422 0.846232 0
M  V30 17 C 1.30462 -0.915524 0.406993 0
M  V30 18 C 1.95123 -1.80389 -0.373415 0
M  V30 19 C 3.31553 -2.08906 -0.266319 0
M  V30 20 C 4.03672 -1.42656 0.687366 0
M  V30 21 O 5.39206 -1.66187 0.846843 0
M  V30 22 C 6.07745 -2.60707 0.0161645 0
M  V30 23 C 3.41759 -0.511016 1.50575 0
M  V30 24 C 2.0523 -0.255828 1.36524 0
M  V30 25 H 0.565051 5.71776 0.37455 0
M  V30 26 H -1.20474 5.68975 0.237398 0
M  V30 27 H -0.294435 6.89745 -0.757067 0
M  V30 28 H -0.317367 4.02664 1.15106 0
M  V30 29 H -0.318201 1.75961 1.89578 0
M  V30 30 H -0.0427538 0.450129 -2.19702 0
M  V30 31 H -0.0546804 2.78328 -2.8923 0
M  V30 32 H -0.15881 -0.170413 2.36007 0
M  V30 33 H -0.474689 -1.7584 1.9889 0
M  V30 34 H -0.214815 -1.47409 -1.54821 0
M  V30 35 H -0.748485 -3.52002 -0.802853 0
M  V30 36 H -1.46311 -2.984 0.686256 0
M  V30 37 H -2.33699 -0.32274 -1.70325 0
M  V30 38 H -2.43805 -2.0562 -1.86717 0
M  V30 39 H -3.64623 -2.26055 0.275392 0
M  V30 40 H -4.65976 -1.83781 -1.92324 0
M  V30 41 H -5.55764 -1.12423 -0.461672 0
M  V30 42 H -4.55899 -0.0510733 -1.49853 0
M  V30 43 H -3.53874 -0.627104 1.90625 0
M  V30 44 H -3.10338 0.713776 0.697428 0
M  V30 45 H -4.73243 0.105564 0.865658 0
M  V30 46 H 1.44819 -2.34753 -1.13564 0
M  V30 47 H 3.79849 -2.80273 -0.90431 0
M  V30 48 H 5.94511 -2.33146 -1.06078 0
M  V30 49 H 7.14863 -2.59014 0.212527 0
M  V30 50 H 5.67566 -3.63053 0.144423 0
M  V30 51 H 3.98151 -0.000412737 2.24325 0
M  V30 52 H 1.65434 0.479114 2.04413 0
M  V30 END ATOM
M  V30 BEGIN BOND
M  V30 1 1 1 2
M  V30 2 1 2 3
M  V30 3 2 3 4
M  V30 4 1 4 5
M  V30 5 2 5 6
M  V30 6 1 6 7
M  V30 7 2 7 8
M  V30 8 1 6 9
M  V30 9 1 9 10
M  V30 10 1 9 11
M  V30 11 1 11 12
M  V30 12 1 11 13
M  V30 13 1 13 14
M  V30 14 1 14 15
M  V30 15 1 14 16
M  V30 16 1 9 17
M  V30 17 2 17 18
M  V30 18 1 18 19
M  V30 19 2 19 20
M  V30 20 1 20 21
M  V30 21 1 21 22
M  V30 22 1 20 23
M  V30 23 2 23 24
M  V30 24 1 8 3
M  V30 25 1 24 17
M  V30 26 1 1 25
M  V30 27 1 1 26
M  V30 28 1 1 27
M  V30 29 1 4 28
M  V30 30 1 5 29
M  V30 31 1 7 30
M  V30 32 1 8 31
M  V30 33 1 10 32
M  V30 34 1 10 33
M  V30 35 1 11 34
M  V30 36 1 12 35
M  V30 37 1 12 36
M  V30 38 1 13 37
M  V30 39 1 13 38
M  V30 40 1 14 39
M  V30 41 1 15 40
M  V30 42 1 15 41
M  V30 43 1 15 42
M  V30 44 1 16 43
M  V30 45 1 16 44
M  V30 46 1 16 45
M  V30 47 1 18 46
M  V30 48 1 19 47
M  V30 49 1 22 48
M  V30 50 1 22 49
M  V30 51 1 22 50
M  V30 52 1 23 51
M  V30 53 1 24 52
M  V30 END BOND
M  V30 END CTAB
M  END
