
     RDKit          3D

  0  0  0  0  0  0  0  0  0  0999 V3000
M  V30 BEGIN CTAB
M  V30 COUNTS 28 29 0 0 0
M  V30 BEGIN ATOM
M  V30 1 N 1.85262 -1.07085 1.2625 0
M  V30 2 N 1.95696 -0.149476 0.242498 0
M  V30 3 C 3.06128 0.561551 -0.0594387 0
M  V30 4 N 4.27 0.535476 0.643167 0
M  V30 5 N 2.76192 1.3287 -1.14037 0
M  V30 6 N 1.51064 1.09005 -1.48404 0
M  V30 7 C 0.995703 0.158358 -0.61352 0
M  V30 8 C -0.402123 -0.255149 -0.757241 0
M  V30 9 O -0.55369 -0.891895 -1.97739 0
M  V30 10 C -1.23386 1.03261 -0.792297 0
M  V30 11 C -2.24791 1.09673 0.29966 0
M  V30 12 C -3.10092 -0.15913 0.189116 0
M  V30 13 N -2.30505 -1.34761 0.270699 0
M  V30 14 C -0.899758 -1.12788 0.368064 0
M  V30 15 H 2.03357 -2.08313 1.12556 0
M  V30 16 H 1.59516 -0.736107 2.21116 0
M  V30 17 H 4.6204 1.46447 0.990734 0
M  V30 18 H 4.77579 -0.319954 0.813651 0
M  V30 19 H -0.549474 -0.176563 -2.65387 0
M  V30 20 H -1.71779 1.14572 -1.77654 0
M  V30 21 H -0.563573 1.92554 -0.661751 0
M  V30 22 H -2.88224 1.95793 0.128767 0
M  V30 23 H -1.77566 1.04862 1.31105 0
M  V30 24 H -3.87136 -0.0846889 0.986953 0
M  V30 25 H -3.65205 -0.0937555 -0.785447 0
M  V30 26 H -2.58141 -2.03938 -0.440295 0
M  V30 27 H -0.684504 -0.66109 1.33545 0
M  V30 28 H -0.412648 -2.14909 0.254216 0
M  V30 END ATOM
M  V30 BEGIN BOND
M  V30 1 1 1 2
M  V30 2 1 2 3
M  V30 3 1 3 4
M  V30 4 2 3 5
M  V30 5 1 5 6
M  V30 6 2 6 7
M  V30 7 1 7 8
M  V30 8 1 8 9
M  V30 9 1 8 10
M  V30 10 1 10 11
M  V30 11 1 11 12
M  V30 12 1 12 13
M  V30 13 1 13 14
M  V30 14 1 7 2
M  V30 15 1 14 8
M  V30 16 1 1 15
M  V30 17 1 1 16
M  V30 18 1 4 17
M  V30 19 1 4 18
M  V30 20 1 9 19
M  V30 21 1 10 20
M  V30 22 1 10 21
M  V30 23 1 11 22
M  V30 24 1 11 23
M  V30 25 1 12 24
M  V30 26 1 12 25
M  V30 27 1 13 26
M  V30 28 1 14 27
M  V30 29 1 14 28
M  V30 END BOND
M  V30 END CTAB
M  END
