
     RDKit          3D

  0  0  0  0  0  0  0  0  0  0999 V3000
M  V30 BEGIN CTAB
M  V30 COUNTS 23 23 0 0 0
M  V30 BEGIN ATOM
M  V30 1 N 3.60625 -2.6371 -1.84226 0
M  V30 2 N 2.34245 -2.23173 -1.85485 0
M  V30 3 C 1.05523 -1.81887 -1.86769 0
M  V30 4 O 0.112501 -2.25214 -2.55513 0
M  V30 5 C 0.651295 -0.679692 -0.937996 0
M  V30 6 S -1.11888 -0.39357 -0.945056 0
M  V30 7 C -1.40429 0.998902 0.174231 0
M  V30 8 N -1.43139 2.26174 -0.300419 0
M  V30 9 C -1.59032 3.31466 0.509267 0
M  V30 10 C -1.72811 3.08239 1.86707 0
M  V30 11 C -1.70605 1.81442 2.38596 0
M  V30 12 C -1.54066 0.753168 1.50518 0
M  V30 13 N -1.4992 -0.60741 1.95122 0
M  V30 14 H 4.0997 -2.73228 -0.923219 0
M  V30 15 H 4.21626 -2.42109 -2.64609 0
M  V30 16 H 2.08634 -3.21802 -2.75754 0
M  V30 17 H 0.930251 -0.987057 0.0982903 0
M  V30 18 H 1.2113 0.197978 -1.25557 0
M  V30 19 H -1.60745 4.31948 0.123349 0
M  V30 20 H -1.85588 3.92235 2.5376 0
M  V30 21 H -1.8054 1.55518 3.42939 0
M  V30 22 H -2.37896 -1.20017 1.92198 0
M  V30 23 H -0.644981 -1.04115 2.31036 0
M  V30 END ATOM
M  V30 BEGIN BOND
M  V30 1 1 1 2
M  V30 2 1 2 3
M  V30 3 2 3 4
M  V30 4 1 3 5
M  V30 5 1 5 6
M  V30 6 1 6 7
M  V30 7 2 7 8
M  V30 8 1 8 9
M  V30 9 2 9 10
M  V30 10 1 10 11
M  V30 11 2 11 12
M  V30 12 1 12 13
M  V30 13 1 12 7
M  V30 14 1 1 14
M  V30 15 1 1 15
M  V30 16 1 2 16
M  V30 17 1 5 17
M  V30 18 1 5 18
M  V30 19 1 9 19
M  V30 20 1 10 20
M  V30 21 1 11 21
M  V30 22 1 13 22
M  V30 23 1 13 23
M  V30 END BOND
M  V30 END CTAB
M  END
