
     RDKit          3D

  0  0  0  0  0  0  0  0  0  0999 V3000
M  V30 BEGIN CTAB
M  V30 COUNTS 26 26 0 0 0
M  V30 BEGIN ATOM
M  V30 1 C -4.09932 1.16759 -1.29014 0
M  V30 2 C -2.97724 0.50628 -0.536945 0
M  V30 3 C -3.24182 -0.55517 0.315045 0
M  V30 4 C -2.20439 -1.15283 0.996318 0
M  V30 5 O -2.36235 -2.10959 1.77951 0
M  V30 6 N -0.912143 -0.722955 0.851261 0
M  V30 7 C -0.706485 0.306034 0.0175345 0
M  V30 8 N -1.71726 0.902345 -0.657601 0
M  V30 9 S 0.976398 0.937151 -0.175064 0
M  V30 10 C 1.88797 0.0361344 -1.42637 0
M  V30 11 C 3.27051 -0.256833 -0.892553 0
M  V30 12 O 3.94079 -1.06342 -1.52865 0
M  V30 13 N 3.61865 0.452541 0.27122 0
M  V30 14 N 3.92774 1.07824 1.299 0
M  V30 15 N 0.127662 -1.36114 1.53065 0
M  V30 16 H -3.67795 2.00256 -1.86534 0
M  V30 17 H -4.84572 1.46844 -0.526072 0
M  V30 18 H -4.50624 0.371497 -1.96309 0
M  V30 19 H -4.25903 -0.910426 0.440475 0
M  V30 20 H 2.01943 0.687937 -2.34984 0
M  V30 21 H 1.40011 -0.907191 -1.71919 0
M  V30 22 H 4.87588 -0.128765 0.27427 0
M  V30 23 H 3.85989 0.577577 2.2187 0
M  V30 24 H 4.55765 1.88748 1.34944 0
M  V30 25 H 1.0881 -1.4226 1.12704 0
M  V30 26 H -0.0408579 -1.79089 2.46039 0
M  V30 END ATOM
M  V30 BEGIN BOND
M  V30 1 1 1 2
M  V30 2 2 2 3
M  V30 3 1 3 4
M  V30 4 2 4 5
M  V30 5 1 4 6
M  V30 6 1 6 7
M  V30 7 2 7 8
M  V30 8 1 7 9
M  V30 9 1 9 10
M  V30 10 1 10 11
M  V30 11 2 11 12
M  V30 12 1 11 13
M  V30 13 1 13 14
M  V30 14 1 6 15
M  V30 15 1 8 2
M  V30 16 1 1 16
M  V30 17 1 1 17
M  V30 18 1 1 18
M  V30 19 1 3 19
M  V30 20 1 10 20
M  V30 21 1 10 21
M  V30 22 1 13 22
M  V30 23 1 14 23
M  V30 24 1 14 24
M  V30 25 1 15 25
M  V30 26 1 15 26
M  V30 END BOND
M  V30 END CTAB
M  END
