
     RDKit          3D

  0  0  0  0  0  0  0  0  0  0999 V3000
M  V30 BEGIN CTAB
M  V30 COUNTS 44 47 0 0 0
M  V30 BEGIN ATOM
M  V30 1 N 8.22083 1.51083 0.483094 0
M  V30 2 N 6.89088 1.065 0.580912 0
M  V30 3 C 6.22358 0.5912 -0.571844 0
M  V30 4 O 6.82428 0.575763 -1.66489 0
M  V30 5 C 4.83555 0.118119 -0.500444 0
M  V30 6 C 4.30793 -0.648255 -1.52241 0
M  V30 7 C 3.01413 -1.08956 -1.46259 0
M  V30 8 C 2.16945 -0.807288 -0.405708 0
M  V30 9 C 2.71046 -0.0369634 0.614825 0
M  V30 10 C 4.00952 0.415157 0.569391 0
M  V30 11 N 0.833317 -1.27485 -0.362732 0
M  V30 12 C 0.406219 -2.60575 -0.715264 0
M  V30 13 C -1.02974 -2.6431 -0.34345 0
M  V30 14 O -1.72013 -3.69232 -0.34328 0
M  V30 15 C -1.39944 -1.27957 -0.00889345 0
M  V30 16 C -0.312232 -0.512331 -0.0212974 0
M  V30 17 N -0.325751 0.899206 0.283224 0
M  V30 18 C -2.76869 -0.803429 0.242657 0
M  V30 19 N -3.21902 0.305089 -0.408763 0
M  V30 20 C -4.46195 0.776993 -0.197297 0
M  V30 21 C -4.92515 1.90224 -0.872371 0
M  V30 22 C -6.19483 2.3907 -0.676952 0
M  V30 23 C -7.02071 1.73523 0.218403 0
M  V30 24 C -6.57525 0.620599 0.892464 0
M  V30 25 C -5.31042 0.148903 0.684583 0
M  V30 26 C -4.84133 -0.99274 1.35449 0
M  V30 27 O -5.62292 -1.55195 2.15403 0
M  V30 28 N -3.59385 -1.3943 1.08565 0
M  V30 29 H 8.30969 2.28522 -0.20219 0
M  V30 30 H 8.58193 1.84719 1.40122 0
M  V30 31 H 6.40581 1.08723 1.49162 0
M  V30 32 H 4.96669 -0.868435 -2.35157 0
M  V30 33 H 2.62981 -1.6762 -2.26878 0
M  V30 34 H 2.05191 0.188895 1.46008 0
M  V30 35 H 4.39313 1.01203 1.378 0
M  V30 36 H 0.979232 -3.40402 -0.169031 0
M  V30 37 H 0.520755 -2.6966 -1.81606 0
M  V30 38 H 0.0381841 1.62802 -0.367221 0
M  V30 39 H -0.710556 1.26349 1.20108 0
M  V30 40 H -4.2495 2.39916 -1.57611 0
M  V30 41 H -6.54162 3.27983 -1.21885 0
M  V30 42 H -8.03693 2.10993 0.384991 0
M  V30 43 H -7.19945 0.0840788 1.60466 0
M  V30 44 H -3.26381 -2.26245 1.60417 0
M  V30 END ATOM
M  V30 BEGIN BOND
M  V30 1 1 1 2
M  V30 2 1 2 3
M  V30 3 2 3 4
M  V30 4 1 3 5
M  V30 5 2 5 6
M  V30 6 1 6 7
M  V30 7 2 7 8
M  V30 8 1 8 9
M  V30 9 2 9 10
M  V30 10 1 8 11
M  V30 11 1 11 12
M  V30 12 1 12 13
M  V30 13 2 13 14
M  V30 14 1 13 15
M  V30 15 2 15 16
M  V30 16 1 16 17
M  V30 17 1 15 18
M  V30 18 2 18 19
M  V30 19 1 19 20
M  V30 20 2 20 21
M  V30 21 1 21 22
M  V30 22 2 22 23
M  V30 23 1 23 24
M  V30 24 2 24 25
M  V30 25 1 25 26
M  V30 26 2 26 27
M  V30 27 1 26 28
M  V30 28 1 10 5
M  V30 29 1 16 11
M  V30 30 1 28 18
M  V30 31 1 25 20
M  V30 32 1 1 29
M  V30 33 1 1 30
M  V30 34 1 2 31
M  V30 35 1 6 32
M  V30 36 1 7 33
M  V30 37 1 9 34
M  V30 38 1 10 35
M  V30 39 1 12 36
M  V30 40 1 12 37
M  V30 41 1 17 38
M  V30 42 1 17 39
M  V30 43 1 21 40
M  V30 44 1 22 41
M  V30 45 1 23 42
M  V30 46 1 24 43
M  V30 47 1 28 44
M  V30 END BOND
M  V30 END CTAB
M  END
