
     RDKit          3D

  0  0  0  0  0  0  0  0  0  0999 V3000
M  V30 BEGIN CTAB
M  V30 COUNTS 48 49 0 0 0
M  V30 BEGIN ATOM
M  V30 1 C 3.28635 -2.77601 -1.87077 0
M  V30 2 C 3.01625 -2.03385 -0.554484 0
M  V30 3 C 3.9053 -0.836496 -0.538223 0
M  V30 4 C 3.77015 0.000509978 0.688647 0
M  V30 5 C 4.59578 -0.21996 1.78921 0
M  V30 6 C 4.50659 0.533474 2.93943 0
M  V30 7 C 3.58086 1.55074 3.04489 0
M  V30 8 C 2.75739 1.7794 1.96233 0
M  V30 9 C 2.85465 1.01975 0.815639 0
M  V30 10 N 3.83186 -0.0238355 -1.7428 0
M  V30 11 C 1.57058 -1.74777 -0.488937 0
M  V30 12 O 0.926348 -2.1668 0.498923 0
M  V30 13 N 0.873888 -1.02378 -1.48532 0
M  V30 14 C -0.531578 -0.738327 -1.43017 0
M  V30 15 C -0.948172 0.0789177 -0.232565 0
M  V30 16 C -2.42028 0.327658 -0.261793 0
M  V30 17 C -3.26769 -0.561954 0.345253 0
M  V30 18 C -4.62578 -0.324344 0.313506 0
M  V30 19 C -5.16099 0.784779 -0.312341 0
M  V30 20 C -4.25815 1.64806 -0.908054 0
M  V30 21 C -2.90431 1.43529 -0.890951 0
M  V30 22 S -6.86672 1.10659 -0.366243 0
M  V30 23 O -7.62177 -0.177454 -0.32425 0
M  V30 24 O -7.23254 1.90029 -1.59568 0
M  V30 25 N -7.33004 2.05795 1.00995 0
M  V30 26 H 3.0454 -2.1156 -2.70481 0
M  V30 27 H 4.34989 -3.10437 -1.931 0
M  V30 28 H 2.64054 -3.67471 -1.9302 0
M  V30 29 H 3.3493 -2.69534 0.281584 0
M  V30 30 H 4.96059 -1.25726 -0.570412 0
M  V30 31 H 5.3259 -1.00761 1.73163 0
M  V30 32 H 5.14868 0.365384 3.80116 0
M  V30 33 H 3.50781 2.15168 3.95896 0
M  V30 34 H 2.03763 2.58788 2.07462 0
M  V30 35 H 2.1851 1.25564 0.0149435 0
M  V30 36 H 4.30451 -0.52373 -2.50135 0
M  V30 37 H 4.26755 0.892688 -1.58165 0
M  V30 38 H 1.39419 -0.65613 -2.33849 0
M  V30 39 H -1.11262 -1.70452 -1.33806 0
M  V30 40 H -0.878451 -0.186917 -2.32204 0
M  V30 41 H -0.750174 -0.41007 0.737488 0
M  V30 42 H -0.411795 1.03452 -0.274528 0
M  V30 43 H -2.92972 -1.45295 0.855545 0
M  V30 44 H -5.32872 -0.997622 0.778044 0
M  V30 45 H -4.64179 2.52175 -1.40415 0
M  V30 46 H -2.18964 2.1033 -1.35328 0
M  V30 47 H -6.47923 2.57536 1.32238 0
M  V30 48 H -8.10292 2.7058 0.733479 0
M  V30 END ATOM
M  V30 BEGIN BOND
M  V30 1 1 1 2
M  V30 2 1 2 3
M  V30 3 1 3 4
M  V30 4 2 4 5
M  V30 5 1 5 6
M  V30 6 2 6 7
M  V30 7 1 7 8
M  V30 8 2 8 9
M  V30 9 1 3 10
M  V30 10 1 2 11
M  V30 11 2 11 12
M  V30 12 1 11 13
M  V30 13 1 13 14
M  V30 14 1 14 15
M  V30 15 1 15 16
M  V30 16 2 16 17
M  V30 17 1 17 18
M  V30 18 2 18 19
M  V30 19 1 19 20
M  V30 20 2 20 21
M  V30 21 1 19 22
M  V30 22 2 22 23
M  V30 23 2 22 24
M  V30 24 1 22 25
M  V30 25 1 9 4
M  V30 26 1 21 16
M  V30 27 1 1 26
M  V30 28 1 1 27
M  V30 29 1 1 28
M  V30 30 1 2 29
M  V30 31 1 3 30
M  V30 32 1 5 31
M  V30 33 1 6 32
M  V30 34 1 7 33
M  V30 35 1 8 34
M  V30 36 1 9 35
M  V30 37 1 10 36
M  V30 38 1 10 37
M  V30 39 1 13 38
M  V30 40 1 14 39
M  V30 41 1 14 40
M  V30 42 1 15 41
M  V30 43 1 15 42
M  V30 44 1 17 43
M  V30 45 1 18 44
M  V30 46 1 20 45
M  V30 47 1 21 46
M  V30 48 1 25 47
M  V30 49 1 25 48
M  V30 END BOND
M  V30 END CTAB
M  END
