
     RDKit          3D

  0  0  0  0  0  0  0  0  0  0999 V3000
M  V30 BEGIN CTAB
M  V30 COUNTS 41 44 0 0 0
M  V30 BEGIN ATOM
M  V30 1 N -0.217911 1.58663 0.562582 0
M  V30 2 C 0.140069 0.247822 0.128112 0
M  V30 3 C 1.47585 -0.0165008 -0.0182146 0
M  V30 4 S 1.47827 -1.66001 -0.526482 0
M  V30 5 C -0.199113 -1.93682 -0.531112 0
M  V30 6 C -0.720246 -0.741867 -0.136508 0
M  V30 7 C -2.11608 -0.718184 -0.0619593 0
M  V30 8 C -2.87615 0.470441 0.33766 0
M  V30 9 C -3.26615 1.34887 -0.681035 0
M  V30 10 Cl -2.84683 1.04099 -2.35229 0
M  V30 11 C -3.99187 2.48125 -0.392749 0
M  V30 12 C -4.32971 2.73991 0.908713 0
M  V30 13 C -3.94465 1.86857 1.93192 0
M  V30 14 C -3.22131 0.742295 1.63423 0
M  V30 15 C -2.83637 -1.86558 -0.381763 0
M  V30 16 C -4.28594 -1.81978 -0.297765 0
M  V30 17 N -5.43708 -1.78489 -0.228234 0
M  V30 18 C -2.26512 -3.02896 -0.768847 0
M  V30 19 N -3.05695 -4.15373 -1.07798 0
M  V30 20 N -0.925224 -3.05004 -0.840118 0
M  V30 21 C 2.62829 0.844842 0.170708 0
M  V30 22 O 2.42342 2.05925 0.510623 0
M  V30 23 C 4.008 0.448282 0.00415403 0
M  V30 24 C 4.94825 1.40273 -0.419509 0
M  V30 25 C 6.27279 1.10172 -0.580659 0
M  V30 26 Cl 7.44703 2.30388 -1.1126 0
M  V30 27 C 6.74576 -0.175124 -0.328606 0
M  V30 28 C 5.85321 -1.13601 0.0885073 0
M  V30 29 C 4.49868 -0.794533 0.244699 0
M  V30 30 H -0.274709 1.72844 1.58879 0
M  V30 31 H -0.402754 2.36988 -0.0606817 0
M  V30 32 H -4.3118 3.18638 -1.15942 0
M  V30 33 H -4.89301 3.61791 1.13714 0
M  V30 34 H -4.25129 2.14718 2.92342 0
M  V30 35 H -2.92325 0.071592 2.40906 0
M  V30 36 H -3.98199 -4.077 -1.58792 0
M  V30 37 H -2.79181 -5.14459 -0.828039 0
M  V30 38 H 4.62076 2.41342 -0.627412 0
M  V30 39 H 7.79714 -0.391765 -0.462788 0
M  V30 40 H 6.19479 -2.14959 0.294647 0
M  V30 41 H 3.835 -1.5773 0.587734 0
M  V30 END ATOM
M  V30 BEGIN BOND
M  V30 1 1 1 2
M  V30 2 2 2 3
M  V30 3 1 3 4
M  V30 4 1 4 5
M  V30 5 2 5 6
M  V30 6 1 6 7
M  V30 7 1 7 8
M  V30 8 2 8 9
M  V30 9 1 9 10
M  V30 10 1 9 11
M  V30 11 2 11 12
M  V30 12 1 12 13
M  V30 13 2 13 14
M  V30 14 2 7 15
M  V30 15 1 15 16
M  V30 16 3 16 17
M  V30 17 1 15 18
M  V30 18 1 18 19
M  V30 19 2 18 20
M  V30 20 1 3 21
M  V30 21 2 21 22
M  V30 22 1 21 23
M  V30 23 2 23 24
M  V30 24 1 24 25
M  V30 25 1 25 26
M  V30 26 2 25 27
M  V30 27 1 27 28
M  V30 28 2 28 29
M  V30 29 1 6 2
M  V30 30 1 14 8
M  V30 31 1 29 23
M  V30 32 1 20 5
M  V30 33 1 1 30
M  V30 34 1 1 31
M  V30 35 1 11 32
M  V30 36 1 12 33
M  V30 37 1 13 34
M  V30 38 1 14 35
M  V30 39 1 19 36
M  V30 40 1 19 37
M  V30 41 1 24 38
M  V30 42 1 27 39
M  V30 43 1 28 40
M  V30 44 1 29 41
M  V30 END BOND
M  V30 END CTAB
M  END
