
     RDKit          3D

  0  0  0  0  0  0  0  0  0  0999 V3000
M  V30 BEGIN CTAB
M  V30 COUNTS 34 36 0 0 0
M  V30 BEGIN ATOM
M  V30 1 O -1.55565 1.05655 -1.26259 0
M  V30 2 C -2.18669 0.157023 -0.638762 0
M  V30 3 C -3.4072 0.450751 0.108514 0
M  V30 4 N -3.85282 1.71299 0.120436 0
M  V30 5 C -4.98129 2.00269 0.807248 0
M  V30 6 C -5.66963 1.02696 1.48652 0
M  V30 7 N -5.2019 -0.226807 1.45795 0
M  V30 8 C -4.06875 -0.554405 0.776577 0
M  V30 9 N -3.57782 -1.88615 0.750143 0
M  V30 10 O -1.70106 -1.12203 -0.673613 0
M  V30 11 C -0.550591 -1.55642 -1.33934 0
M  V30 12 C 0.69727 -0.894612 -0.855805 0
M  V30 13 N 0.731648 -0.133773 0.252825 0
M  V30 14 C 1.83237 0.477692 0.718252 0
M  V30 15 N 1.83117 1.27457 1.89413 0
M  V30 16 C 3.00032 0.306879 0.0031278 0
M  V30 17 C 3.01081 -0.465112 -1.13974 0
M  V30 18 N 1.86698 -1.0276 -1.51582 0
M  V30 19 C 4.20021 -0.613964 -1.83103 0
M  V30 20 C 5.37167 -0.0196763 -1.41904 0
M  V30 21 C 5.32933 0.746087 -0.272719 0
M  V30 22 C 4.16013 0.91341 0.437795 0
M  V30 23 H -5.364 3.02963 0.83038 0
M  V30 24 H -6.56213 1.28551 2.02306 0
M  V30 25 H -3.90912 -2.58403 0.057696 0
M  V30 26 H -2.86223 -2.18103 1.44401 0
M  V30 27 H -0.491102 -2.67111 -1.17911 0
M  V30 28 H -0.643972 -1.44471 -2.45611 0
M  V30 29 H 2.58261 1.19158 2.6066 0
M  V30 30 H 1.07148 1.95927 2.06138 0
M  V30 31 H 4.19821 -1.22091 -2.72549 0
M  V30 32 H 6.31091 -0.143457 -1.9741 0
M  V30 33 H 6.2286 1.23939 0.0982511 0
M  V30 34 H 4.16224 1.5313 1.34837 0
M  V30 END ATOM
M  V30 BEGIN BOND
M  V30 1 2 1 2
M  V30 2 1 2 3
M  V30 3 2 3 4
M  V30 4 1 4 5
M  V30 5 2 5 6
M  V30 6 1 6 7
M  V30 7 2 7 8
M  V30 8 1 8 9
M  V30 9 1 2 10
M  V30 10 1 10 11
M  V30 11 1 11 12
M  V30 12 2 12 13
M  V30 13 1 13 14
M  V30 14 1 14 15
M  V30 15 2 14 16
M  V30 16 1 16 17
M  V30 17 2 17 18
M  V30 18 1 17 19
M  V30 19 2 19 20
M  V30 20 1 20 21
M  V30 21 2 21 22
M  V30 22 1 8 3
M  V30 23 1 18 12
M  V30 24 1 22 16
M  V30 25 1 5 23
M  V30 26 1 6 24
M  V30 27 1 9 25
M  V30 28 1 9 26
M  V30 29 1 11 27
M  V30 30 1 11 28
M  V30 31 1 15 29
M  V30 32 1 15 30
M  V30 33 1 19 31
M  V30 34 1 20 32
M  V30 35 1 21 33
M  V30 36 1 22 34
M  V30 END BOND
M  V30 END CTAB
M  END
