
     RDKit          3D

  0  0  0  0  0  0  0  0  0  0999 V3000
M  V30 BEGIN CTAB
M  V30 COUNTS 45 47 0 0 0
M  V30 BEGIN ATOM
M  V30 1 C 2.64893 3.73437 1.50683 0
M  V30 2 O 3.6924 2.78719 1.58225 0
M  V30 3 C 3.44696 1.476 1.24037 0
M  V30 4 C 2.21688 1.03828 0.824437 0
M  V30 5 C 1.99498 -0.297026 0.482922 0
M  V30 6 C 3.04349 -1.16726 0.574271 0
M  V30 7 C 4.29649 -0.776635 0.986565 0
M  V30 8 O 5.36552 -1.61869 1.08862 0
M  V30 9 C 5.41255 -2.97833 0.812165 0
M  V30 10 C 4.47618 0.565851 1.31828 0
M  V30 11 C 0.661999 -0.695038 0.0453507 0
M  V30 12 N 0.36464 -1.95549 -0.299229 0
M  V30 13 C -0.836437 -2.3489 -0.70549 0
M  V30 14 N -1.12744 -3.6992 -1.06347 0
M  V30 15 C -1.91051 -1.41843 -0.799925 0
M  V30 16 C -3.16844 -1.96933 -1.31945 0
M  V30 17 N -4.27431 -1.10989 -1.49939 0
M  V30 18 C -1.60891 -0.146844 -0.447412 0
M  V30 19 N -0.330542 0.188877 -0.0346364 0
M  V30 20 C -2.582 0.924408 -0.478991 0
M  V30 21 C -2.45525 1.96698 -1.37757 0
M  V30 22 Cl -1.19484 1.95745 -2.61661 0
M  V30 23 C -3.3467 3.00768 -1.26877 0
M  V30 24 C -4.34479 3.02214 -0.293836 0
M  V30 25 Cl -5.4723 4.37719 -0.183698 0
M  V30 26 C -4.46295 1.98846 0.588984 0
M  V30 27 C -3.57601 0.941544 0.489242 0
M  V30 28 H 2.0748 3.66789 0.548725 0
M  V30 29 H 3.04501 4.77196 1.5332 0
M  V30 30 H 1.99043 3.56658 2.37514 0
M  V30 31 H 1.41153 1.75397 0.764485 0
M  V30 32 H 2.89963 -2.20926 0.315363 0
M  V30 33 H 5.60937 -3.20738 -0.274345 0
M  V30 34 H 4.57182 -3.57032 1.18593 0
M  V30 35 H 6.32747 -3.38306 1.33957 0
M  V30 36 H 5.47922 0.853768 1.6424 0
M  V30 37 H -1.23316 -3.91059 -2.07408 0
M  V30 38 H -1.22462 -4.41905 -0.321341 0
M  V30 39 H -3.44319 -2.81212 -0.595669 0
M  V30 40 H -2.93807 -2.54623 -2.28436 0
M  V30 41 H -4.16847 -0.587171 -2.39449 0
M  V30 42 H -5.16074 -1.65464 -1.53858 0
M  V30 43 H -3.27939 3.83823 -1.95092 0
M  V30 44 H -5.21544 1.93989 1.36863 0
M  V30 45 H -3.67577 0.112175 1.20853 0
M  V30 END ATOM
M  V30 BEGIN BOND
M  V30 1 1 1 2
M  V30 2 1 2 3
M  V30 3 2 3 4
M  V30 4 1 4 5
M  V30 5 2 5 6
M  V30 6 1 6 7
M  V30 7 1 7 8
M  V30 8 1 8 9
M  V30 9 2 7 10
M  V30 10 1 5 11
M  V30 11 2 11 12
M  V30 12 1 12 13
M  V30 13 1 13 14
M  V30 14 2 13 15
M  V30 15 1 15 16
M  V30 16 1 16 17
M  V30 17 1 15 18
M  V30 18 2 18 19
M  V30 19 1 18 20
M  V30 20 2 20 21
M  V30 21 1 21 22
M  V30 22 1 21 23
M  V30 23 2 23 24
M  V30 24 1 24 25
M  V30 25 1 24 26
M  V30 26 2 26 27
M  V30 27 1 10 3
M  V30 28 1 19 11
M  V30 29 1 27 20
M  V30 30 1 1 28
M  V30 31 1 1 29
M  V30 32 1 1 30
M  V30 33 1 4 31
M  V30 34 1 6 32
M  V30 35 1 9 33
M  V30 36 1 9 34
M  V30 37 1 9 35
M  V30 38 1 10 36
M  V30 39 1 14 37
M  V30 40 1 14 38
M  V30 41 1 16 39
M  V30 42 1 16 40
M  V30 43 1 17 41
M  V30 44 1 17 42
M  V30 45 1 23 43
M  V30 46 1 26 44
M  V30 47 1 27 45
M  V30 END BOND
M  V30 END CTAB
M  END
