
     RDKit          3D

  0  0  0  0  0  0  0  0  0  0999 V3000
M  V30 BEGIN CTAB
M  V30 COUNTS 44 46 0 0 0
M  V30 BEGIN ATOM
M  V30 1 C -5.05239 -1.4324 -1.24692 0
M  V30 2 O -3.85828 -0.897141 -0.703966 0
M  V30 3 C -3.82952 0.393645 -0.151194 0
M  V30 4 C -4.96093 1.1794 -0.119551 0
M  V30 5 C -4.9385 2.44634 0.421445 0
M  V30 6 C -3.74745 2.91445 0.935209 0
M  V30 7 C -2.61804 2.1246 0.901311 0
M  V30 8 C -2.62584 0.83742 0.355625 0
M  V30 9 N -1.44212 0.0435289 0.334403 0
M  V30 10 C -0.94979 -0.376974 -0.955033 0
M  V30 11 C 0.542899 -0.62042 -0.943182 0
M  V30 12 N 0.87667 -1.32004 0.257236 0
M  V30 13 C 0.640175 -0.592281 1.46432 0
M  V30 14 C -0.830836 -0.277204 1.58664 0
M  V30 15 C 2.1173 -2.02961 0.214559 0
M  V30 16 C 3.29427 -1.18974 -0.0368975 0
M  V30 17 N 3.77815 -0.909385 -1.2641 0
M  V30 18 C 4.84886 -0.14388 -1.46511 0
M  V30 19 N 5.37617 0.16503 -2.74204 0
M  V30 20 N 5.50947 0.397115 -0.399639 0
M  V30 21 C 5.05677 0.13897 0.819938 0
M  V30 22 N 3.97988 -0.632061 1.00325 0
M  V30 23 N 5.71363 0.681076 1.95186 0
M  V30 24 H -5.25905 -1.02949 -2.24376 0
M  V30 25 H -5.88346 -1.25671 -0.515613 0
M  V30 26 H -4.90929 -2.54245 -1.34059 0
M  V30 27 H -5.89003 0.800852 -0.52597 0
M  V30 28 H -5.83599 3.07837 0.45021 0
M  V30 29 H -3.73297 3.90475 1.35732 0
M  V30 30 H -1.6773 2.47251 1.2978 0
M  V30 31 H -1.17829 0.430288 -1.69145 0
M  V30 32 H -1.50295 -1.28319 -1.3142 0
M  V30 33 H 1.10949 0.309007 -1.09203 0
M  V30 34 H 0.767246 -1.28756 -1.79906 0
M  V30 35 H 0.900562 -1.24875 2.31586 0
M  V30 36 H 1.21246 0.340413 1.54088 0
M  V30 37 H -0.971724 0.574643 2.27774 0
M  V30 38 H -1.39814 -1.13062 2.03982 0
M  V30 39 H 2.2444 -2.54188 1.19349 0
M  V30 40 H 2.0557 -2.80736 -0.589343 0
M  V30 41 H 5.57262 1.15669 -2.98365 0
M  V30 42 H 5.55991 -0.60033 -3.42011 0
M  V30 43 H 5.69178 0.180584 2.88038 0
M  V30 44 H 6.24451 1.5798 1.94413 0
M  V30 END ATOM
M  V30 BEGIN BOND
M  V30 1 1 1 2
M  V30 2 1 2 3
M  V30 3 2 3 4
M  V30 4 1 4 5
M  V30 5 2 5 6
M  V30 6 1 6 7
M  V30 7 2 7 8
M  V30 8 1 8 9
M  V30 9 1 9 10
M  V30 10 1 10 11
M  V30 11 1 11 12
M  V30 12 1 12 13
M  V30 13 1 13 14
M  V30 14 1 12 15
M  V30 15 1 15 16
M  V30 16 2 16 17
M  V30 17 1 17 18
M  V30 18 1 18 19
M  V30 19 2 18 20
M  V30 20 1 20 21
M  V30 21 2 21 22
M  V30 22 1 21 23
M  V30 23 1 8 3
M  V30 24 1 14 9
M  V30 25 1 22 16
M  V30 26 1 1 24
M  V30 27 1 1 25
M  V30 28 1 1 26
M  V30 29 1 4 27
M  V30 30 1 5 28
M  V30 31 1 6 29
M  V30 32 1 7 30
M  V30 33 1 10 31
M  V30 34 1 10 32
M  V30 35 1 11 33
M  V30 36 1 11 34
M  V30 37 1 13 35
M  V30 38 1 13 36
M  V30 39 1 14 37
M  V30 40 1 14 38
M  V30 41 1 15 39
M  V30 42 1 15 40
M  V30 43 1 19 41
M  V30 44 1 19 42
M  V30 45 1 23 43
M  V30 46 1 23 44
M  V30 END BOND
M  V30 END CTAB
M  END
