
     RDKit          3D

  0  0  0  0  0  0  0  0  0  0999 V3000
M  V30 BEGIN CTAB
M  V30 COUNTS 28 28 0 0 0
M  V30 BEGIN ATOM
M  V30 1 N 4.59948 -0.164131 0.0870457 0
M  V30 2 N 3.4563 -0.800583 -0.386172 0
M  V30 3 C 2.33097 -0.184398 -0.602927 0
M  V30 4 N 1.19264 -0.876873 -1.08573 0
M  V30 5 C -0.0507205 -0.212364 -1.32696 0
M  V30 6 C -0.724384 0.266659 -0.0774439 0
M  V30 7 C -2.02442 0.948104 -0.447558 0
M  V30 8 C -3.22372 0.143135 0.0273175 0
M  V30 9 O -3.2188 -0.105444 1.37338 0
M  V30 10 C -1.97813 -0.239804 1.93915 0
M  V30 11 C -1.04007 -0.836212 0.887131 0
M  V30 12 N 2.32547 1.21028 -0.326668 0
M  V30 13 H 4.62172 0.349344 1.01485 0
M  V30 14 H 5.45869 -0.201457 -0.501267 0
M  V30 15 H 1.27953 -1.89746 -1.26654 0
M  V30 16 H 0.0401709 0.667464 -2.00649 0
M  V30 17 H -0.777972 -0.894574 -1.84296 0
M  V30 18 H -0.129536 1.02513 0.473199 0
M  V30 19 H -2.12255 1.03032 -1.54567 0
M  V30 20 H -2.12822 1.9522 0.0069634 0
M  V30 21 H -4.12417 0.756062 -0.232089 0
M  V30 22 H -3.28058 -0.797164 -0.584009 0
M  V30 23 H -1.96018 -0.831944 2.85624 0
M  V30 24 H -1.57541 0.797804 2.1241 0
M  V30 25 H -1.49776 -1.67447 0.347522 0
M  V30 26 H -0.106372 -1.09525 1.42366 0
M  V30 27 H 2.41015 1.48605 0.694413 0
M  V30 28 H 2.24787 1.95811 -1.02248 0
M  V30 END ATOM
M  V30 BEGIN BOND
M  V30 1 1 1 2
M  V30 2 2 2 3 CFG=2
M  V30 3 1 3 4
M  V30 4 1 4 5
M  V30 5 1 5 6
M  V30 6 1 6 7
M  V30 7 1 7 8
M  V30 8 1 8 9
M  V30 9 1 9 10
M  V30 10 1 10 11
M  V30 11 1 3 12
M  V30 12 1 11 6
M  V30 13 1 1 13
M  V30 14 1 1 14
M  V30 15 1 4 15
M  V30 16 1 5 16
M  V30 17 1 5 17
M  V30 18 1 6 18
M  V30 19 1 7 19
M  V30 20 1 7 20
M  V30 21 1 8 21
M  V30 22 1 8 22
M  V30 23 1 10 23
M  V30 24 1 10 24
M  V30 25 1 11 25
M  V30 26 1 11 26
M  V30 27 1 12 27
M  V30 28 1 12 28
M  V30 END BOND
M  V30 END CTAB
M  END
