
     RDKit          3D

  0  0  0  0  0  0  0  0  0  0999 V3000
M  V30 BEGIN CTAB
M  V30 COUNTS 43 45 0 0 0
M  V30 BEGIN ATOM
M  V30 1 C 7.28876 1.61601 -0.0226938 0
M  V30 2 S 5.77801 2.13717 -0.863781 0
M  V30 3 C 4.386 1.39112 0.00263045 0
M  V30 4 C 3.77152 2.04541 1.0511 0
M  V30 5 C 2.71209 1.46885 1.70459 0
M  V30 6 C 2.25958 0.230901 1.31226 0
M  V30 7 C 2.86519 -0.432874 0.265999 0
M  V30 8 C 3.94458 0.151032 -0.40213 0
M  V30 9 C 2.42604 -1.75948 -0.202991 0
M  V30 10 N 1.0999 -2.01912 0.246993 0
M  V30 11 C -0.0291698 -1.25048 -0.149098 0
M  V30 12 C -1.31329 -1.51901 0.312725 0
M  V30 13 C -2.39885 -0.769261 -0.0835909 0
M  V30 14 N -2.18321 0.241975 -0.939322 0
M  V30 15 C -0.954093 0.534178 -1.40969 0
M  V30 16 N 0.0855698 -0.219539 -1.0014 0
M  V30 17 N -0.698091 1.59887 -2.3162 0
M  V30 18 C -3.72493 -1.09619 0.433267 0
M  V30 19 C -4.78471 -1.18945 -0.673445 0
M  V30 20 C -5.73943 -0.565694 0.32457 0
M  V30 21 C -4.52859 0.0936895 0.95473 0
M  V30 22 N -6.68565 0.363903 -0.258516 0
M  V30 23 H 8.13545 2.23792 -0.372281 0
M  V30 24 H 7.56319 0.562342 -0.239247 0
M  V30 25 H 7.17417 1.69099 1.07813 0
M  V30 26 H 4.13549 3.02698 1.3571 0
M  V30 27 H 2.22475 1.98837 2.53653 0
M  V30 28 H 1.4089 -0.222075 1.84624 0
M  V30 29 H 4.43917 -0.359336 -1.23503 0
M  V30 30 H 3.10504 -2.53267 0.226766 0
M  V30 31 H 2.44626 -1.82477 -1.33094 0
M  V30 32 H 0.89675 -2.82127 0.916221 0
M  V30 33 H -1.40532 -2.35791 1.00602 0
M  V30 34 H -0.0180387 2.33671 -2.00032 0
M  V30 35 H -1.12129 1.70218 -3.24572 0
M  V30 36 H -3.7804 -1.93843 1.12197 0
M  V30 37 H -4.46581 -0.491671 -1.48961 0
M  V30 38 H -5.01239 -2.20694 -0.992777 0
M  V30 39 H -6.18157 -1.34713 0.961106 0
M  V30 40 H -4.21211 1.00417 0.421054 0
M  V30 41 H -4.57477 0.171017 2.05507 0
M  V30 42 H -7.6323 0.092979 0.0905417 0
M  V30 43 H -6.70241 0.236548 -1.29567 0
M  V30 END ATOM
M  V30 BEGIN BOND
M  V30 1 1 1 2
M  V30 2 1 2 3
M  V30 3 2 3 4
M  V30 4 1 4 5
M  V30 5 2 5 6
M  V30 6 1 6 7
M  V30 7 2 7 8
M  V30 8 1 7 9
M  V30 9 1 9 10
M  V30 10 1 10 11
M  V30 11 2 11 12
M  V30 12 1 12 13
M  V30 13 2 13 14
M  V30 14 1 14 15
M  V30 15 2 15 16
M  V30 16 1 15 17
M  V30 17 1 13 18
M  V30 18 1 18 19
M  V30 19 1 19 20
M  V30 20 1 20 21
M  V30 21 1 20 22
M  V30 22 1 8 3
M  V30 23 1 16 11
M  V30 24 1 21 18
M  V30 25 1 1 23
M  V30 26 1 1 24
M  V30 27 1 1 25
M  V30 28 1 4 26
M  V30 29 1 5 27
M  V30 30 1 6 28
M  V30 31 1 8 29
M  V30 32 1 9 30
M  V30 33 1 9 31
M  V30 34 1 10 32
M  V30 35 1 12 33
M  V30 36 1 17 34
M  V30 37 1 17 35
M  V30 38 1 18 36
M  V30 39 1 19 37
M  V30 40 1 19 38
M  V30 41 1 20 39
M  V30 42 1 21 40
M  V30 43 1 21 41
M  V30 44 1 22 42
M  V30 45 1 22 43
M  V30 END BOND
M  V30 END CTAB
M  END
