
     RDKit          3D

  0  0  0  0  0  0  0  0  0  0999 V3000
M  V30 BEGIN CTAB
M  V30 COUNTS 41 43 0 0 0
M  V30 BEGIN ATOM
M  V30 1 O -1.10109 1.19394 2.12185 0
M  V30 2 C -0.741095 0.377091 1.25087 0
M  V30 3 N -1.69674 -0.325919 0.484211 0
M  V30 4 C -1.35741 -1.23905 -0.60166 0
M  V30 5 C -2.2211 -1.1131 -1.8016 0
M  V30 6 C -3.41457 -0.234329 -1.67782 0
M  V30 7 C -3.95976 -0.106461 -0.315605 0
M  V30 8 C -3.08456 -0.15237 0.748243 0
M  V30 9 C -3.53245 -0.0341548 2.06265 0
M  V30 10 C -4.88301 0.133693 2.30966 0
M  V30 11 C -5.74592 0.177766 1.23544 0
M  V30 12 C -5.29361 0.0592845 -0.0638245 0
M  V30 13 C 0.724171 0.193664 1.07072 0
M  V30 14 S 1.28261 0.907165 -0.493169 0
M  V30 15 C 3.0414 0.627919 -0.601617 0
M  V30 16 N 3.96032 1.47433 -0.133733 0
M  V30 17 C 5.28514 1.25203 -0.221787 0
M  V30 18 N 6.26629 2.14438 0.271863 0
M  V30 19 N 5.67282 0.113811 -0.814882 0
M  V30 20 C 4.79286 -0.78381 -1.30897 0
M  V30 21 N 3.48908 -0.512796 -1.19469 0
M  V30 22 N 5.22135 -1.97777 -1.93063 0
M  V30 23 C 1.43594 0.894347 2.1982 0
M  V30 24 H -1.49203 -2.28167 -0.179521 0
M  V30 25 H -0.288881 -1.20433 -0.872746 0
M  V30 26 H -1.5734 -0.735899 -2.65013 0
M  V30 27 H -2.55693 -2.1378 -2.13762 0
M  V30 28 H -4.22497 -0.509095 -2.41812 0
M  V30 29 H -3.11444 0.803067 -2.01294 0
M  V30 30 H -2.78847 -0.0906054 2.85724 0
M  V30 31 H -5.24423 0.227092 3.32187 0
M  V30 32 H -6.82297 0.311301 1.42804 0
M  V30 33 H -5.99081 0.0971151 -0.883503 0
M  V30 34 H 0.961079 -0.888283 1.03881 0
M  V30 35 H 6.27634 2.48267 1.27293 0
M  V30 36 H 7.04373 2.52668 -0.319745 0
M  V30 37 H 5.53397 -2.77494 -1.3586 0
M  V30 38 H 5.22466 -2.06096 -2.96189 0
M  V30 39 H 2.39552 0.335695 2.37125 0
M  V30 40 H 0.829636 0.900497 3.1299 0
M  V30 41 H 1.69155 1.92982 1.874 0
M  V30 END ATOM
M  V30 BEGIN BOND
M  V30 1 2 1 2
M  V30 2 1 2 3
M  V30 3 1 3 4
M  V30 4 1 4 5
M  V30 5 1 5 6
M  V30 6 1 6 7
M  V30 7 2 7 8
M  V30 8 1 8 9
M  V30 9 2 9 10
M  V30 10 1 10 11
M  V30 11 2 11 12
M  V30 12 1 2 13
M  V30 13 1 13 14
M  V30 14 1 14 15
M  V30 15 2 15 16
M  V30 16 1 16 17
M  V30 17 1 17 18
M  V30 18 2 17 19
M  V30 19 1 19 20
M  V30 20 2 20 21
M  V30 21 1 20 22
M  V30 22 1 13 23
M  V30 23 1 8 3
M  V30 24 1 21 15
M  V30 25 1 12 7
M  V30 26 1 4 24
M  V30 27 1 4 25
M  V30 28 1 5 26
M  V30 29 1 5 27
M  V30 30 1 6 28
M  V30 31 1 6 29
M  V30 32 1 9 30
M  V30 33 1 10 31
M  V30 34 1 11 32
M  V30 35 1 12 33
M  V30 36 1 13 34
M  V30 37 1 18 35
M  V30 38 1 18 36
M  V30 39 1 22 37
M  V30 40 1 22 38
M  V30 41 1 23 39
M  V30 42 1 23 40
M  V30 43 1 23 41
M  V30 END BOND
M  V30 END CTAB
M  END
