
     RDKit          3D

  0  0  0  0  0  0  0  0  0  0999 V3000
M  V30 BEGIN CTAB
M  V30 COUNTS 29 30 0 0 0
M  V30 BEGIN ATOM
M  V30 1 C -3.0643 1.90757 0.311181 0
M  V30 2 C -2.59796 0.661897 0.985131 0
M  V30 3 C -1.4042 0.0107912 0.385681 0
M  V30 4 N -0.131789 0.34172 0.609104 0
M  V30 5 C 0.733343 -0.514983 0.0252709 0
M  V30 6 C -0.126325 -1.4337 -0.595764 0
M  V30 7 N -1.40379 -1.09666 -0.373492 0
M  V30 8 N -2.53151 -1.805 -0.901116 0
M  V30 9 N 0.289072 -2.55589 -1.34207 0
M  V30 10 C 2.16637 -0.710867 0.102182 0
M  V30 11 C 3.14161 0.0973573 -0.772794 0
M  V30 12 C 2.97448 0.450856 0.629673 0
M  V30 13 C 2.37274 1.82207 0.925085 0
M  V30 14 H -2.35977 2.27982 -0.451013 0
M  V30 15 H -3.13296 2.69938 1.13175 0
M  V30 16 H -4.10291 1.85648 -0.067133 0
M  V30 17 H -2.39906 0.779907 2.08977 0
M  V30 18 H -3.46429 -0.0943387 0.889739 0
M  V30 19 H -3.38704 -2.01552 -0.383657 0
M  V30 20 H -2.42416 -2.11056 -1.88823 0
M  V30 21 H 0.556248 -3.42099 -0.851891 0
M  V30 22 H 0.351009 -2.49978 -2.38794 0
M  V30 23 H 2.54768 -1.71553 0.458054 0
M  V30 24 H 4.02245 -0.486775 -1.18682 0
M  V30 25 H 2.70968 0.738832 -1.57324 0
M  V30 26 H 3.82282 0.197034 1.30438 0
M  V30 27 H 2.19472 2.31634 -0.0666512 0
M  V30 28 H 1.48869 1.81587 1.57482 0
M  V30 29 H 3.15917 2.48465 1.41999 0
M  V30 END ATOM
M  V30 BEGIN BOND
M  V30 1 1 1 2
M  V30 2 1 2 3
M  V30 3 2 3 4
M  V30 4 1 4 5
M  V30 5 2 5 6
M  V30 6 1 6 7
M  V30 7 1 7 8
M  V30 8 1 6 9
M  V30 9 1 5 10
M  V30 10 1 10 11
M  V30 11 1 11 12
M  V30 12 1 12 13
M  V30 13 1 7 3
M  V30 14 1 12 10
M  V30 15 1 1 14
M  V30 16 1 1 15
M  V30 17 1 1 16
M  V30 18 1 2 17
M  V30 19 1 2 18
M  V30 20 1 8 19
M  V30 21 1 8 20
M  V30 22 1 9 21
M  V30 23 1 9 22
M  V30 24 1 10 23
M  V30 25 1 11 24
M  V30 26 1 11 25
M  V30 27 1 12 26
M  V30 28 1 13 27
M  V30 29 1 13 28
M  V30 30 1 13 29
M  V30 END BOND
M  V30 END CTAB
M  END
