
     RDKit          3D

  0  0  0  0  0  0  0  0  0  0999 V3000
M  V30 BEGIN CTAB
M  V30 COUNTS 65 67 0 0 0
M  V30 BEGIN ATOM
M  V30 1 N 7.98044 2.22404 -2.44172 0
M  V30 2 C 7.11654 1.97708 -1.34189 0
M  V30 3 C 5.73596 1.51541 -1.80425 0
M  V30 4 C 4.85923 1.26801 -0.580659 0
M  V30 5 C 3.52975 0.821256 -1.09149 0
M  V30 6 C 2.5773 0.556021 0.0742264 0 CFG=1
M  V30 7 C 1.29534 0.137587 -0.469223 0
M  V30 8 O 0.689732 1.07025 -1.17719 0
M  V30 9 N 0.588445 -1.0447 -0.387107 0
M  V30 10 C 1.10738 -2.19537 0.246366 0
M  V30 11 C 0.315792 -2.65991 1.46843 0 CFG=1
M  V30 12 O 0.178945 -1.68959 2.43385 0
M  V30 13 C -0.887918 -3.43505 1.11846 0
M  V30 14 C -1.89728 -2.87052 0.204905 0 CFG=1
M  V30 15 C -1.83604 -1.37908 0.00733775 0 CFG=1
M  V30 16 C -0.782599 -1.04483 -0.999913 0
M  V30 17 N -3.14425 -0.824525 -0.306912 0
M  V30 18 C -4.16807 -1.42101 -0.942296 0
M  V30 19 N -5.18518 -0.550735 -1.02662 0
M  V30 20 C -4.80668 0.599162 -0.443558 0
M  V30 21 C -3.50388 0.455997 0.0281317 0
M  V30 22 C -2.90333 1.51515 0.671373 0
M  V30 23 O -1.7282 1.37507 1.09477 0
M  V30 24 N -3.568 2.67197 0.839794 0
M  V30 25 C -2.86168 3.74196 1.5295 0
M  V30 26 C -4.82258 2.79972 0.381001 0
M  V30 27 O -5.39313 3.91007 0.56963 0
M  V30 28 N -5.43151 1.78221 -0.249252 0
M  V30 29 C -6.7865 1.93627 -0.738454 0
M  V30 30 C -1.8814 -3.66731 -1.07731 0
M  V30 31 O -3.17229 -3.08734 0.839149 0
M  V30 32 N 3.21091 -0.222872 1.06472 0
M  V30 33 H 8.8729 1.75218 -2.40378 0
M  V30 34 H 7.94165 3.15055 -2.8595 0
M  V30 35 H 7.5599 1.2685 -0.635534 0
M  V30 36 H 6.97678 2.93499 -0.782141 0
M  V30 37 H 5.26365 2.29709 -2.40919 0
M  V30 38 H 5.83564 0.603754 -2.41518 0
M  V30 39 H 5.31625 0.474127 0.0392238 0
M  V30 40 H 4.74766 2.20977 0.00280951 0
M  V30 41 H 3.68152 -0.151911 -1.62157 0
M  V30 42 H 3.06987 1.55904 -1.76562 0
M  V30 43 H 2.44159 1.59486 0.563103 0
M  V30 44 H 0.90894 -3.06467 -0.502377 0
M  V30 45 H 2.172 -2.23282 0.487091 0
M  V30 46 H 1.02715 -3.4174 1.9527 0
M  V30 47 H 0.378325 -1.9968 3.35427 0
M  V30 48 H -0.543738 -4.4419 0.737733 0
M  V30 49 H -1.39381 -3.71436 2.09175 0
M  V30 50 H -1.57433 -0.9221 0.99751 0
M  V30 51 H -0.673412 -1.75949 -1.82575 0
M  V30 52 H -0.947358 -0.0569205 -1.48743 0
M  V30 53 H -4.15203 -2.44424 -1.31263 0
M  V30 54 H -1.7729 3.69062 1.25097 0
M  V30 55 H -2.98907 3.66756 2.63265 0
M  V30 56 H -3.24663 4.70705 1.17613 0
M  V30 57 H -6.90389 2.92885 -1.21705 0
M  V30 58 H -7.47048 1.86658 0.132894 0
M  V30 59 H -7.00826 1.15569 -1.47944 0
M  V30 60 H -2.6649 -4.49983 -1.01952 0
M  V30 61 H -0.948016 -4.26236 -1.22894 0
M  V30 62 H -2.02311 -3.08803 -1.99797 0
M  V30 63 H -3.03901 -2.86647 1.80141 0
M  V30 64 H 2.72589 -0.405136 1.93838 0
M  V30 65 H 4.00596 -0.801176 0.816986 0
M  V30 END ATOM
M  V30 BEGIN BOND
M  V30 1 1 1 2
M  V30 2 1 2 3
M  V30 3 1 3 4
M  V30 4 1 4 5
M  V30 5 1 5 6
M  V30 6 1 6 7
M  V30 7 2 7 8
M  V30 8 1 7 9
M  V30 9 1 9 10
M  V30 10 1 10 11
M  V30 11 1 11 12
M  V30 12 1 11 13
M  V30 13 1 13 14
M  V30 14 1 14 15
M  V30 15 1 15 16
M  V30 16 1 15 17
M  V30 17 1 17 18
M  V30 18 2 18 19
M  V30 19 1 19 20
M  V30 20 2 20 21
M  V30 21 1 21 22
M  V30 22 2 22 23
M  V30 23 1 22 24
M  V30 24 1 24 25
M  V30 25 1 24 26
M  V30 26 2 26 27
M  V30 27 1 26 28
M  V30 28 1 28 29
M  V30 29 1 14 30
M  V30 30 1 14 31 CFG=1
M  V30 31 1 6 32
M  V30 32 1 16 9
M  V30 33 1 21 17
M  V30 34 1 28 20
M  V30 35 1 1 33
M  V30 36 1 1 34
M  V30 37 1 2 35
M  V30 38 1 2 36
M  V30 39 1 3 37
M  V30 40 1 3 38
M  V30 41 1 4 39
M  V30 42 1 4 40
M  V30 43 1 5 41
M  V30 44 1 5 42
M  V30 45 1 6 43 CFG=1
M  V30 46 1 10 44
M  V30 47 1 10 45
M  V30 48 1 11 46 CFG=1
M  V30 49 1 12 47
M  V30 50 1 13 48
M  V30 51 1 13 49
M  V30 52 1 15 50 CFG=1
M  V30 53 1 16 51
M  V30 54 1 16 52
M  V30 55 1 18 53
M  V30 56 1 25 54
M  V30 57 1 25 55
M  V30 58 1 25 56
M  V30 59 1 29 57
M  V30 60 1 29 58
M  V30 61 1 29 59
M  V30 62 1 30 60
M  V30 63 1 30 61
M  V30 64 1 30 62
M  V30 65 1 31 63
M  V30 66 1 32 64
M  V30 67 1 32 65
M  V30 END BOND
M  V30 END CTAB
M  END
