
     RDKit          3D

  0  0  0  0  0  0  0  0  0  0999 V3000
M  V30 BEGIN CTAB
M  V30 COUNTS 34 35 0 0 0
M  V30 BEGIN ATOM
M  V30 1 C -3.14156 1.35804 -0.634367 0
M  V30 2 C -2.22466 1.32002 0.57352 0
M  V30 3 O -1.04585 0.624423 0.379548 0
M  V30 4 C -0.972524 -0.728359 0.1197 0
M  V30 5 C -2.06787 -1.55383 0.0289975 0
M  V30 6 C -1.86438 -2.88473 -0.234914 0
M  V30 7 C -0.609723 -3.42042 -0.411127 0
M  V30 8 C 0.47951 -2.54531 -0.310582 0
M  V30 9 C 0.341511 -1.20971 -0.0497312 0
M  V30 10 C 1.46302 -0.293968 0.0565872 0
M  V30 11 C 2.75359 -0.716589 -0.100353 0
M  V30 12 C 3.83757 0.147056 -0.00164174 0
M  V30 13 N 5.154 -0.329623 -0.170356 0
M  V30 14 N 3.56111 1.43465 0.258426 0
M  V30 15 C 2.30641 1.90129 0.421552 0
M  V30 16 N 1.27655 1.01073 0.314523 0
M  V30 17 N 2.07806 3.26821 0.693756 0
M  V30 18 C -2.99388 0.939576 1.80017 0
M  V30 19 H -3.28223 2.37308 -1.05481 0
M  V30 20 H -2.79234 0.704644 -1.44524 0
M  V30 21 H -4.16861 1.00547 -0.334528 0
M  V30 22 H -1.91826 2.4038 0.713898 0
M  V30 23 H -3.07568 -1.1438 0.168546 0
M  V30 24 H -2.74274 -3.52294 -0.303226 0
M  V30 25 H -0.444517 -4.46182 -0.617988 0
M  V30 26 H 1.4394 -2.99901 -0.453665 0
M  V30 27 H 2.96271 -1.74657 -0.307678 0
M  V30 28 H 5.69611 -0.10012 -1.0167 0
M  V30 29 H 5.57675 -0.915813 0.565684 0
M  V30 30 H 1.85013 3.91645 -0.0709512 0
M  V30 31 H 2.14158 3.60928 1.66196 0
M  V30 32 H -3.13931 1.81096 2.46617 0
M  V30 33 H -4.01296 0.558746 1.57336 0
M  V30 34 H -2.42092 0.186191 2.41015 0
M  V30 END ATOM
M  V30 BEGIN BOND
M  V30 1 1 1 2
M  V30 2 1 2 3
M  V30 3 1 3 4
M  V30 4 2 4 5
M  V30 5 1 5 6
M  V30 6 2 6 7
M  V30 7 1 7 8
M  V30 8 2 8 9
M  V30 9 1 9 10
M  V30 10 2 10 11
M  V30 11 1 11 12
M  V30 12 1 12 13
M  V30 13 2 12 14
M  V30 14 1 14 15
M  V30 15 2 15 16
M  V30 16 1 15 17
M  V30 17 1 2 18
M  V30 18 1 9 4
M  V30 19 1 16 10
M  V30 20 1 1 19
M  V30 21 1 1 20
M  V30 22 1 1 21
M  V30 23 1 2 22
M  V30 24 1 5 23
M  V30 25 1 6 24
M  V30 26 1 7 25
M  V30 27 1 8 26
M  V30 28 1 11 27
M  V30 29 1 13 28
M  V30 30 1 13 29
M  V30 31 1 17 30
M  V30 32 1 17 31
M  V30 33 1 18 32
M  V30 34 1 18 33
M  V30 35 1 18 34
M  V30 END BOND
M  V30 END CTAB
M  END
