
     RDKit          3D

  0  0  0  0  0  0  0  0  0  0999 V3000
M  V30 BEGIN CTAB
M  V30 COUNTS 39 39 0 0 0
M  V30 BEGIN ATOM
M  V30 1 C 0.378913 0.335215 1.29524 0 CFG=1
M  V30 2 N 0.469814 -0.750862 2.2037 0
M  V30 3 C 1.11195 0.166012 0.0231239 0
M  V30 4 C 2.59013 -0.00809731 0.0757208 0
M  V30 5 C 3.07766 -1.2002 0.831113 0
M  V30 6 N 4.53874 -1.2818 0.760371 0
M  V30 7 C 5.15576 -1.57846 -0.483191 0
M  V30 8 N 6.44586 -1.07077 -0.725547 0
M  V30 9 N 4.55571 -2.29914 -1.383 0
M  V30 10 C -1.02044 0.81512 1.09943 0
M  V30 11 O -1.95359 0.246067 1.72422 0
M  V30 12 O -1.36602 1.85171 0.270757 0
M  V30 13 C -2.64358 2.3489 0.0388918 0
M  V30 14 C -3.60678 1.40044 -0.525649 0
M  V30 15 C -4.94705 1.76585 -0.48368 0
M  V30 16 C -5.94239 0.938149 -0.997137 0
M  V30 17 C -5.62878 -0.27745 -1.56677 0
M  V30 18 C -4.29806 -0.635797 -1.60634 0
M  V30 19 C -3.29972 0.187101 -1.09516 0
M  V30 20 H 0.880507 1.20832 1.82815 0
M  V30 21 H 0.0212718 -1.63234 1.91615 0
M  V30 22 H 0.364133 -0.505163 3.19965 0
M  V30 23 H 0.660764 -0.647308 -0.614008 0
M  V30 24 H 0.941041 1.11441 -0.576762 0
M  V30 25 H 3.03615 0.0425201 -0.95633 0
M  V30 26 H 3.003 0.936604 0.559066 0
M  V30 27 H 2.85522 -1.11869 1.92761 0
M  V30 28 H 2.59344 -2.10524 0.461132 0
M  V30 29 H 5.09518 -1.12097 1.6157 0
M  V30 30 H 7.26345 -1.70163 -0.753844 0
M  V30 31 H 6.57927 -0.061135 -0.876532 0
M  V30 32 H 3.60046 -2.67791 -1.20931 0
M  V30 33 H -2.52914 3.17095 -0.729723 0
M  V30 34 H -3.10138 2.84767 0.920067 0
M  V30 35 H -5.2443 2.70968 -0.0455809 0
M  V30 36 H -6.98976 1.20806 -0.9729 0
M  V30 37 H -6.37329 -0.950322 -1.97644 0
M  V30 38 H -4.01587 -1.5811 -2.04554 0
M  V30 39 H -2.25827 -0.088391 -1.12664 0
M  V30 END ATOM
M  V30 BEGIN BOND
M  V30 1 1 1 2
M  V30 2 1 1 3
M  V30 3 1 3 4
M  V30 4 1 4 5
M  V30 5 1 5 6
M  V30 6 1 6 7
M  V30 7 1 7 8
M  V30 8 2 7 9 CFG=2
M  V30 9 1 1 10
M  V30 10 2 10 11
M  V30 11 1 10 12
M  V30 12 1 12 13
M  V30 13 1 13 14
M  V30 14 2 14 15
M  V30 15 1 15 16
M  V30 16 2 16 17
M  V30 17 1 17 18
M  V30 18 2 18 19
M  V30 19 1 19 14
M  V30 20 1 1 20 CFG=1
M  V30 21 1 2 21
M  V30 22 1 2 22
M  V30 23 1 3 23
M  V30 24 1 3 24
M  V30 25 1 4 25
M  V30 26 1 4 26
M  V30 27 1 5 27
M  V30 28 1 5 28
M  V30 29 1 6 29
M  V30 30 1 8 30
M  V30 31 1 8 31
M  V30 32 1 9 32
M  V30 33 1 13 33
M  V30 34 1 13 34
M  V30 35 1 15 35
M  V30 36 1 16 36
M  V30 37 1 17 37
M  V30 38 1 18 38
M  V30 39 1 19 39
M  V30 END BOND
M  V30 END CTAB
M  END
