
     RDKit          3D

  0  0  0  0  0  0  0  0  0  0999 V3000
M  V30 BEGIN CTAB
M  V30 COUNTS 50 52 0 0 0
M  V30 BEGIN ATOM
M  V30 1 O 1.47646 0.382036 -0.114727 0
M  V30 2 C 0.891312 -0.686582 -0.385516 0
M  V30 3 N -0.463832 -0.938178 -0.150554 0
M  V30 4 C -1.39457 -0.0392115 0.418685 0
M  V30 5 C -1.19173 1.30979 0.514929 0
M  V30 6 C -2.15486 2.10309 1.11032 0
M  V30 7 C -3.3155 1.55573 1.60744 0
M  V30 8 C -3.54052 0.203224 1.52106 0
M  V30 9 C -2.58882 -0.58241 0.932872 0
M  V30 10 S -5.00933 -0.46578 2.15495 0
M  V30 11 O -5.51751 0.360036 3.32869 0
M  V30 12 O -4.80076 -1.85556 2.70815 0
M  V30 13 N -6.27096 -0.565819 0.993382 0
M  V30 14 C -6.61982 0.722631 0.51213 0
M  V30 15 C -6.23966 0.840489 -0.933975 0
M  V30 16 C -5.63865 -0.493772 -1.26672 0
M  V30 17 C -5.97941 -1.38685 -0.124198 0
M  V30 18 C 1.73955 -1.76064 -1.00993 0
M  V30 19 C 3.14698 -1.26963 -1.14765 0
M  V30 20 S 3.83917 -0.846891 0.49792 0
M  V30 21 C 5.51015 -0.268034 0.252035 0
M  V30 22 N 6.57457 -1.07663 0.25312 0
M  V30 23 C 7.8366 -0.632376 0.067487 0
M  V30 24 N 8.94712 -1.49947 0.0728816 0
M  V30 25 C 8.01141 0.719553 -0.130196 0
M  V30 26 C 6.92308 1.59504 -0.137843 0
M  V30 27 N 5.68911 1.04979 0.0584605 0
M  V30 28 N 7.10787 2.97879 -0.340114 0
M  V30 29 H -0.833786 -1.89528 -0.430279 0
M  V30 30 H -0.297379 1.79039 0.126184 0
M  V30 31 H -1.97012 3.15312 1.17257 0
M  V30 32 H -4.04322 2.20381 2.06708 0
M  V30 33 H -2.72655 -1.66144 0.844831 0
M  V30 34 H -7.73486 0.84245 0.573431 0
M  V30 35 H -6.12466 1.50093 1.14688 0
M  V30 36 H -5.5214 1.69471 -1.11484 0
M  V30 37 H -7.12036 1.05865 -1.57863 0
M  V30 38 H -6.15875 -0.892074 -2.16827 0
M  V30 39 H -4.5686 -0.415009 -1.50011 0
M  V30 40 H -5.15463 -2.12012 0.099138 0
M  V30 41 H -6.86822 -2.01903 -0.3357 0
M  V30 42 H 1.77472 -2.65651 -0.329362 0
M  V30 43 H 1.3733 -2.05239 -2.00522 0
M  V30 44 H 3.22142 -0.380309 -1.81501 0
M  V30 45 H 3.74148 -2.06139 -1.64431 0
M  V30 46 H 9.05254 -2.20131 -0.673173 0
M  V30 47 H 9.64969 -1.42885 0.822469 0
M  V30 48 H 8.99413 1.13973 -0.284742 0
M  V30 49 H 7.25294 3.33186 -1.29841 0
M  V30 50 H 7.09487 3.61571 0.471575 0
M  V30 END ATOM
M  V30 BEGIN BOND
M  V30 1 2 1 2
M  V30 2 1 2 3
M  V30 3 1 3 4
M  V30 4 2 4 5
M  V30 5 1 5 6
M  V30 6 2 6 7
M  V30 7 1 7 8
M  V30 8 2 8 9
M  V30 9 1 8 10
M  V30 10 2 10 11
M  V30 11 2 10 12
M  V30 12 1 10 13
M  V30 13 1 13 14
M  V30 14 1 14 15
M  V30 15 1 15 16
M  V30 16 1 16 17
M  V30 17 1 2 18
M  V30 18 1 18 19
M  V30 19 1 19 20
M  V30 20 1 20 21
M  V30 21 2 21 22
M  V30 22 1 22 23
M  V30 23 1 23 24
M  V30 24 2 23 25
M  V30 25 1 25 26
M  V30 26 2 26 27
M  V30 27 1 26 28
M  V30 28 1 9 4
M  V30 29 1 17 13
M  V30 30 1 27 21
M  V30 31 1 3 29
M  V30 32 1 5 30
M  V30 33 1 6 31
M  V30 34 1 7 32
M  V30 35 1 9 33
M  V30 36 1 14 34
M  V30 37 1 14 35
M  V30 38 1 15 36
M  V30 39 1 15 37
M  V30 40 1 16 38
M  V30 41 1 16 39
M  V30 42 1 17 40
M  V30 43 1 17 41
M  V30 44 1 18 42
M  V30 45 1 18 43
M  V30 46 1 19 44
M  V30 47 1 19 45
M  V30 48 1 24 46
M  V30 49 1 24 47
M  V30 50 1 25 48
M  V30 51 1 28 49
M  V30 52 1 28 50
M  V30 END BOND
M  V30 END CTAB
M  END
