
     RDKit          3D

  0  0  0  0  0  0  0  0  0  0999 V3000
M  V30 BEGIN CTAB
M  V30 COUNTS 45 48 0 0 0
M  V30 BEGIN ATOM
M  V30 1 N 6.5795 0.672885 1.70239 0
M  V30 2 C 6.47841 -0.0733996 0.447193 0
M  V30 3 C 5.49237 -1.20353 0.595195 0
M  V30 4 C 4.73292 -0.666691 -0.585176 0
M  V30 5 C 5.52768 0.614247 -0.480492 0
M  V30 6 C 3.29644 -0.535202 -0.252722 0
M  V30 7 C 2.2883 -1.047 -1.03693 0
M  V30 8 C 0.930998 -0.915095 -0.709987 0
M  V30 9 N -0.0719117 -1.47166 -1.54349 0
M  V30 10 C -1.45475 -1.29352 -1.18875 0
M  V30 11 C -1.87943 0.149169 -1.28936 0
M  V30 12 C -3.33421 0.242155 -0.903328 0
M  V30 13 N -4.16909 -0.715541 -0.529523 0
M  V30 14 C -5.39443 -0.223894 -0.266586 0
M  V30 15 C -5.29609 1.14072 -0.499117 0
M  V30 16 N -4.01874 1.39809 -0.889147 0
M  V30 17 C -6.42488 1.89538 -0.302346 0
M  V30 18 C -7.60985 1.33035 0.108595 0
M  V30 19 C -7.7174 -0.0173766 0.341114 0
M  V30 20 C -6.58853 -0.785348 0.146329 0
M  V30 21 Cl -9.23003 -0.761211 0.86909 0
M  V30 22 N 0.688109 -0.251164 0.42702 0
M  V30 23 C 1.63911 0.265442 1.22374 0
M  V30 24 N 2.9309 0.11148 0.864702 0
M  V30 25 N 1.31547 0.960793 2.41995 0
M  V30 26 H 7.0732 0.126994 2.44207 0
M  V30 27 H 6.99986 1.6166 1.53781 0
M  V30 28 H 7.45501 -0.361344 0.0263477 0
M  V30 29 H 5.90268 -2.21061 0.373868 0
M  V30 30 H 4.94043 -1.20297 1.55085 0
M  V30 31 H 4.94804 -1.21223 -1.52131 0
M  V30 32 H 5.99073 0.886813 -1.44268 0
M  V30 33 H 4.98267 1.47226 -0.0426485 0
M  V30 34 H 2.51397 -1.57001 -1.93525 0
M  V30 35 H 0.15292 -2.00937 -2.41013 0
M  V30 36 H -1.64252 -1.59446 -0.116012 0
M  V30 37 H -2.12906 -1.91206 -1.85227 0
M  V30 38 H -1.27184 0.853521 -0.716416 0
M  V30 39 H -1.76453 0.476265 -2.36633 0
M  V30 40 H -3.64628 2.36049 -1.13649 0
M  V30 41 H -6.36866 2.95526 -0.477392 0
M  V30 42 H -8.50961 1.93221 0.265394 0
M  V30 43 H -6.66628 -1.84799 0.327742 0
M  V30 44 H 1.92 1.68784 2.84443 0
M  V30 45 H 0.408407 0.7327 2.91541 0
M  V30 END ATOM
M  V30 BEGIN BOND
M  V30 1 1 1 2
M  V30 2 1 2 3
M  V30 3 1 3 4
M  V30 4 1 4 5
M  V30 5 1 4 6
M  V30 6 2 6 7
M  V30 7 1 7 8
M  V30 8 1 8 9
M  V30 9 1 9 10
M  V30 10 1 10 11
M  V30 11 1 11 12
M  V30 12 2 12 13
M  V30 13 1 13 14
M  V30 14 2 14 15
M  V30 15 1 15 16
M  V30 16 1 15 17
M  V30 17 2 17 18
M  V30 18 1 18 19
M  V30 19 2 19 20
M  V30 20 1 19 21
M  V30 21 2 8 22
M  V30 22 1 22 23
M  V30 23 2 23 24
M  V30 24 1 23 25
M  V30 25 1 5 2
M  V30 26 1 24 6
M  V30 27 1 16 12
M  V30 28 1 20 14
M  V30 29 1 1 26
M  V30 30 1 1 27
M  V30 31 1 2 28
M  V30 32 1 3 29
M  V30 33 1 3 30
M  V30 34 1 4 31
M  V30 35 1 5 32
M  V30 36 1 5 33
M  V30 37 1 7 34
M  V30 38 1 9 35
M  V30 39 1 10 36
M  V30 40 1 10 37
M  V30 41 1 11 38
M  V30 42 1 11 39
M  V30 43 1 16 40
M  V30 44 1 17 41
M  V30 45 1 18 42
M  V30 46 1 20 43
M  V30 47 1 25 44
M  V30 48 1 25 45
M  V30 END BOND
M  V30 END CTAB
M  END
