
     RDKit          3D

  0  0  0  0  0  0  0  0  0  0999 V3000
M  V30 BEGIN CTAB
M  V30 COUNTS 32 35 0 0 0
M  V30 BEGIN ATOM
M  V30 1 N 1.32026 2.8334 0.297845 0
M  V30 2 C 1.33067 1.42142 0.133174 0
M  V30 3 C 0.146886 0.722994 0.0211119 0
M  V30 4 C -1.08458 1.33837 0.0612956 0
M  V30 5 O -1.14066 2.59468 0.206604 0
M  V30 6 C -2.2678 0.646424 -0.0499913 0
M  V30 7 C -3.48554 1.31317 -0.00345248 0
M  V30 8 C -4.6447 0.558859 -0.121405 0
M  V30 9 C -4.59505 -0.804043 -0.279333 0
M  V30 10 C -3.39231 -1.47731 -0.32702 0
M  V30 11 C -2.23348 -0.726247 -0.209455 0
M  V30 12 C -1.01612 -1.3836 -0.254907 0
M  V30 13 O -1.00834 -2.63362 -0.40073 0
M  V30 14 C 0.149227 -0.666361 -0.141126 0
M  V30 15 C 1.34403 -1.3241 -0.187201 0
M  V30 16 N 1.4028 -2.73105 -0.350036 0
M  V30 17 C 2.53034 -0.631805 -0.0757907 0
M  V30 18 C 2.54185 0.758987 0.0869714 0
M  V30 19 C 3.858 1.16995 0.168859 0
M  V30 20 O 4.28156 2.35791 0.318535 0
M  V30 21 N 4.65262 0.0845494 0.0625231 0
M  V30 22 C 3.86527 -0.996117 -0.0839842 0
M  V30 23 O 4.22052 -2.21041 -0.216689 0
M  V30 24 H 1.59329 3.25189 1.22454 0
M  V30 25 H 1.0571 3.50621 -0.444611 0
M  V30 26 H -3.52881 2.40119 0.122521 0
M  V30 27 H -5.62275 1.0172 -0.0930372 0
M  V30 28 H -5.49444 -1.4056 -0.372755 0
M  V30 29 H -3.3338 -2.55011 -0.450834 0
M  V30 30 H 1.19671 -3.3774 0.441061 0
M  V30 31 H 1.65889 -3.10882 -1.2865 0
M  V30 32 H 5.69835 0.0494048 0.0853353 0
M  V30 END ATOM
M  V30 BEGIN BOND
M  V30 1 1 1 2
M  V30 2 2 2 3
M  V30 3 1 3 4
M  V30 4 2 4 5
M  V30 5 1 4 6
M  V30 6 2 6 7
M  V30 7 1 7 8
M  V30 8 2 8 9
M  V30 9 1 9 10
M  V30 10 2 10 11
M  V30 11 1 11 12
M  V30 12 2 12 13
M  V30 13 1 12 14
M  V30 14 2 14 15
M  V30 15 1 15 16
M  V30 16 1 15 17
M  V30 17 2 17 18
M  V30 18 1 18 19
M  V30 19 2 19 20
M  V30 20 1 19 21
M  V30 21 1 21 22
M  V30 22 2 22 23
M  V30 23 1 18 2
M  V30 24 1 14 3
M  V30 25 1 22 17
M  V30 26 1 11 6
M  V30 27 1 1 24
M  V30 28 1 1 25
M  V30 29 1 7 26
M  V30 30 1 8 27
M  V30 31 1 9 28
M  V30 32 1 10 29
M  V30 33 1 16 30
M  V30 34 1 16 31
M  V30 35 1 21 32
M  V30 END BOND
M  V30 END CTAB
M  END
