
     RDKit          3D

  0  0  0  0  0  0  0  0  0  0999 V3000
M  V30 BEGIN CTAB
M  V30 COUNTS 21 21 0 0 0
M  V30 BEGIN ATOM
M  V30 1 N -3.74278 -1.48338 0.373118 0
M  V30 2 C -2.48789 -0.821259 0.348456 0
M  V30 3 N -1.319 -1.48541 0.487425 0
M  V30 4 C -0.111332 -0.875963 0.467158 0
M  V30 5 O 1.04222 -1.60767 0.614489 0
M  V30 6 C 2.32532 -1.09338 0.608771 0
M  V30 7 C 2.59773 -0.428546 -0.688037 0
M  V30 8 C 2.91051 0.857771 -0.751808 0
M  V30 9 N -0.0727706 0.452832 0.300931 0
M  V30 10 C -1.20929 1.17242 0.156476 0
M  V30 11 N -1.09406 2.57782 -0.0157993 0
M  V30 12 N -2.38536 0.520674 0.183579 0
M  V30 13 H -4.25386 -1.81386 -0.465053 0
M  V30 14 H -4.16994 -1.64258 1.30462 0
M  V30 15 H 3.08442 -1.90862 0.738911 0
M  V30 16 H 2.42142 -0.337353 1.43095 0
M  V30 17 H 2.52429 -1.06091 -1.57347 0
M  V30 18 H 3.09737 1.28131 -1.72992 0
M  V30 19 H 2.97949 1.47244 0.136358 0
M  V30 20 H -0.618279 3.03356 -0.812084 0
M  V30 21 H -1.51819 3.19009 0.710212 0
M  V30 END ATOM
M  V30 BEGIN BOND
M  V30 1 1 1 2
M  V30 2 2 2 3
M  V30 3 1 3 4
M  V30 4 1 4 5
M  V30 5 1 5 6
M  V30 6 1 6 7
M  V30 7 2 7 8 CFG=2
M  V30 8 2 4 9
M  V30 9 1 9 10
M  V30 10 1 10 11
M  V30 11 2 10 12
M  V30 12 1 12 2
M  V30 13 1 1 13
M  V30 14 1 1 14
M  V30 15 1 6 15
M  V30 16 1 6 16
M  V30 17 1 7 17
M  V30 18 1 8 18
M  V30 19 1 8 19
M  V30 20 1 11 20
M  V30 21 1 11 21
M  V30 END BOND
M  V30 END CTAB
M  END
