
     RDKit          3D

  0  0  0  0  0  0  0  0  0  0999 V3000
M  V30 BEGIN CTAB
M  V30 COUNTS 28 28 0 0 0
M  V30 BEGIN ATOM
M  V30 1 O -4.38984 -1.85753 0.497522 0
M  V30 2 C -4.64971 -0.697947 -0.193892 0
M  V30 3 O -5.71199 -0.64628 -0.891535 0
M  V30 4 C -3.73711 0.478362 -0.148503 0
M  V30 5 C -2.58017 0.118805 0.754506 0
M  V30 6 S -1.38363 1.46384 0.900229 0
M  V30 7 C -0.548375 1.77999 -0.681822 0
M  V30 8 C 0.285382 0.550933 -0.998264 0
M  V30 9 C -0.259346 -0.499539 -1.6979 0
M  V30 10 S 1.06389 -1.58293 -1.77123 0
M  V30 11 C 2.21073 -0.648961 -0.921454 0
M  V30 12 N 1.52452 0.439382 -0.62682 0
M  V30 13 N 3.54612 -1.05713 -0.660351 0
M  V30 14 C 4.43762 -0.419655 -0.0425183 0
M  V30 15 N 5.72395 -0.986028 0.124642 0
M  V30 16 N 4.17407 0.860342 0.488894 0
M  V30 17 H -4.97064 -2.67748 0.404516 0
M  V30 18 H -4.27749 1.31935 0.304864 0
M  V30 19 H -3.40448 0.66261 -1.19469 0
M  V30 20 H -2.97229 -0.0980159 1.76092 0
M  V30 21 H -2.07141 -0.778978 0.325977 0
M  V30 22 H 0.0635045 2.68102 -0.657741 0
M  V30 23 H -1.29841 1.87573 -1.48198 0
M  V30 24 H -1.28983 -0.579324 -2.09071 0
M  V30 25 H 6.30422 -0.894525 0.98938 0
M  V30 26 H 6.09691 -1.531 -0.693979 0
M  V30 27 H 3.34736 1.02402 1.10668 0
M  V30 28 H 4.76645 1.70093 0.308267 0
M  V30 END ATOM
M  V30 BEGIN BOND
M  V30 1 1 1 2
M  V30 2 2 2 3
M  V30 3 1 2 4
M  V30 4 1 4 5
M  V30 5 1 5 6
M  V30 6 1 6 7
M  V30 7 1 7 8
M  V30 8 2 8 9
M  V30 9 1 9 10
M  V30 10 1 10 11
M  V30 11 2 11 12
M  V30 12 1 11 13
M  V30 13 2 13 14 CFG=2
M  V30 14 1 14 15
M  V30 15 1 14 16
M  V30 16 1 12 8
M  V30 17 1 1 17
M  V30 18 1 4 18
M  V30 19 1 4 19
M  V30 20 1 5 20
M  V30 21 1 5 21
M  V30 22 1 7 22
M  V30 23 1 7 23
M  V30 24 1 9 24
M  V30 25 1 15 25
M  V30 26 1 15 26
M  V30 27 1 16 27
M  V30 28 1 16 28
M  V30 END BOND
M  V30 END CTAB
M  END
