
     RDKit          3D

  0  0  0  0  0  0  0  0  0  0999 V3000
M  V30 BEGIN CTAB
M  V30 COUNTS 39 42 0 0 0
M  V30 BEGIN ATOM
M  V30 1 N 6.54712 0.19444 0.606477 0
M  V30 2 C 5.26068 0.441138 0.0361327 0
M  V30 3 N 4.4805 -0.601717 -0.298749 0
M  V30 4 C 3.24375 -0.441977 -0.845921 0
M  V30 5 C 2.40904 -1.63518 -1.20029 0
M  V30 6 S 1.41955 -2.02651 0.26379 0
M  V30 7 C 0.244532 -0.795457 0.655311 0
M  V30 8 N 0.45004 0.259996 1.44784 0
M  V30 9 N -0.62822 0.963026 1.51038 0
M  V30 10 C -1.56712 0.341999 0.730142 0
M  V30 11 N -1.04626 -0.749295 0.193686 0
M  V30 12 C -1.66237 -1.71994 -0.652 0
M  V30 13 C -2.6293 -2.66603 0.0698055 0
M  V30 14 C -1.36922 -3.15744 -0.585818 0
M  V30 15 C -2.92107 0.919709 0.63891 0
M  V30 16 C -3.87707 0.576646 -0.2661 0
M  V30 17 C -5.15028 1.16445 -0.21457 0
M  V30 18 C -5.4493 2.09029 0.74289 0
M  V30 19 N -4.51609 2.43043 1.63046 0
M  V30 20 C -3.30596 1.87596 1.58777 0
M  V30 21 N 2.83125 0.822259 -1.03952 0
M  V30 22 C 3.58247 1.9022 -0.717931 0
M  V30 23 N 4.79806 1.68869 -0.179459 0
M  V30 24 N 3.15217 3.22536 -0.919139 0
M  V30 25 H 6.63619 -0.609976 1.2445 0
M  V30 26 H 7.38744 0.761681 0.425608 0
M  V30 27 H 1.7601 -1.47099 -2.05898 0
M  V30 28 H 3.12139 -2.45051 -1.41238 0
M  V30 29 H -1.94259 -1.36364 -1.65474 0
M  V30 30 H -3.6154 -2.86026 -0.386354 0
M  V30 31 H -2.65953 -2.61561 1.17687 0
M  V30 32 H -1.58118 -3.7601 -1.50207 0
M  V30 33 H -0.688812 -3.66863 0.0791567 0
M  V30 34 H -3.68866 -0.116299 -1.04978 0
M  V30 35 H -5.89376 0.862211 -0.958662 0
M  V30 36 H -6.45567 2.52752 0.750166 0
M  V30 37 H -2.57205 2.17717 2.33042 0
M  V30 38 H 2.24439 3.52983 -0.48695 0
M  V30 39 H 3.65126 3.95455 -1.46458 0
M  V30 END ATOM
M  V30 BEGIN BOND
M  V30 1 1 1 2
M  V30 2 2 2 3
M  V30 3 1 3 4
M  V30 4 1 4 5
M  V30 5 1 5 6
M  V30 6 1 6 7
M  V30 7 2 7 8
M  V30 8 1 8 9
M  V30 9 2 9 10
M  V30 10 1 10 11
M  V30 11 1 11 12
M  V30 12 1 12 13
M  V30 13 1 13 14
M  V30 14 1 10 15
M  V30 15 2 15 16
M  V30 16 1 16 17
M  V30 17 2 17 18
M  V30 18 1 18 19
M  V30 19 2 19 20
M  V30 20 2 4 21
M  V30 21 1 21 22
M  V30 22 2 22 23
M  V30 23 1 22 24
M  V30 24 1 23 2
M  V30 25 1 11 7
M  V30 26 1 14 12
M  V30 27 1 20 15
M  V30 28 1 1 25
M  V30 29 1 1 26
M  V30 30 1 5 27
M  V30 31 1 5 28
M  V30 32 1 12 29
M  V30 33 1 13 30
M  V30 34 1 13 31
M  V30 35 1 14 32
M  V30 36 1 14 33
M  V30 37 1 16 34
M  V30 38 1 17 35
M  V30 39 1 18 36
M  V30 40 1 20 37
M  V30 41 1 24 38
M  V30 42 1 24 39
M  V30 END BOND
M  V30 END CTAB
M  END
