
     RDKit          3D

  0  0  0  0  0  0  0  0  0  0999 V3000
M  V30 BEGIN CTAB
M  V30 COUNTS 31 32 0 0 0
M  V30 BEGIN ATOM
M  V30 1 C -0.555383 0.299251 2.41666 0
M  V30 2 C -0.323926 -0.304182 1.00927 0
M  V30 3 C 0.801854 0.402951 0.394114 0
M  V30 4 N 1.01194 1.72657 0.55044 0
M  V30 5 N 2.09206 2.10254 -0.0873662 0
M  V30 6 C 2.60116 1.01878 -0.671648 0
M  V30 7 N 1.8053 -0.0343091 -0.375968 0
M  V30 8 N 2.00455 -1.32267 -0.801819 0
M  V30 9 N 3.80362 0.986005 -1.46834 0
M  V30 10 C -1.62706 -0.199123 0.320047 0
M  V30 11 C -2.22393 1.15224 0.111023 0
M  V30 12 C -2.45287 0.783628 -1.3465 0
M  V30 13 C -1.77065 -0.555517 -1.10999 0
M  V30 14 C -0.0325911 -1.76251 1.26964 0
M  V30 15 H 0.440186 0.270703 2.8941 0
M  V30 16 H -1.21583 -0.411437 2.93254 0
M  V30 17 H -0.976283 1.30375 2.3487 0
M  V30 18 H 1.66953 -1.62517 -1.7346 0
M  V30 19 H 2.49039 -2.01081 -0.203311 0
M  V30 20 H 4.71186 1.34812 -1.09401 0
M  V30 21 H 3.69772 0.589348 -2.41937 0
M  V30 22 H -2.38358 -0.806954 0.924388 0
M  V30 23 H -3.2103 1.35748 0.580339 0
M  V30 24 H -1.56217 2.02328 0.199871 0
M  V30 25 H -3.51435 0.713334 -1.65819 0
M  V30 26 H -1.89205 1.38844 -2.08506 0
M  V30 27 H -2.49782 -1.35958 -1.35602 0
M  V30 28 H -0.838209 -0.710145 -1.71328 0
M  V30 29 H 0.948883 -1.86627 1.72419 0
M  V30 30 H -0.787033 -2.10017 2.03929 0
M  V30 31 H -0.215035 -2.39758 0.379314 0
M  V30 END ATOM
M  V30 BEGIN BOND
M  V30 1 1 1 2
M  V30 2 1 2 3
M  V30 3 2 3 4
M  V30 4 1 4 5
M  V30 5 2 5 6
M  V30 6 1 6 7
M  V30 7 1 7 8
M  V30 8 1 6 9
M  V30 9 1 2 10
M  V30 10 1 10 11
M  V30 11 1 11 12
M  V30 12 1 12 13
M  V30 13 1 2 14
M  V30 14 1 7 3
M  V30 15 1 13 10
M  V30 16 1 1 15
M  V30 17 1 1 16
M  V30 18 1 1 17
M  V30 19 1 8 18
M  V30 20 1 8 19
M  V30 21 1 9 20
M  V30 22 1 9 21
M  V30 23 1 10 22
M  V30 24 1 11 23
M  V30 25 1 11 24
M  V30 26 1 12 25
M  V30 27 1 12 26
M  V30 28 1 13 27
M  V30 29 1 13 28
M  V30 30 1 14 29
M  V30 31 1 14 30
M  V30 32 1 14 31
M  V30 END BOND
M  V30 END CTAB
M  END
