
     RDKit          3D

  0  0  0  0  0  0  0  0  0  0999 V3000
M  V30 BEGIN CTAB
M  V30 COUNTS 28 28 0 0 0
M  V30 BEGIN ATOM
M  V30 1 N 3.40771 0.72638 1.28504 0
M  V30 2 C 2.52202 -0.364717 1.02643 0
M  V30 3 C 1.66878 0.0481584 -0.172448 0
M  V30 4 N 0.706044 -0.968241 -0.545924 0
M  V30 5 C 0.219508 -0.579464 -1.87799 0
M  V30 6 C -0.410722 0.759563 -1.84143 0
M  V30 7 O -1.17176 0.987744 -0.68345 0
M  V30 8 C -1.56657 -0.257597 -0.244669 0 CFG=1
M  V30 9 C -0.418153 -0.971093 0.406567 0
M  V30 10 C -2.81831 -0.194726 0.595828 0
M  V30 11 N -2.74253 0.577531 1.77109 0
M  V30 12 H 3.36376 1.15094 2.16682 0
M  V30 13 H 3.49096 1.34431 0.492282 0
M  V30 14 H 3.1631 -1.25479 0.726507 0
M  V30 15 H 1.91689 -0.609358 1.90386 0
M  V30 16 H 1.11438 0.984202 0.117099 0
M  V30 17 H 2.35711 0.326282 -0.981003 0
M  V30 18 H 1.17097 -0.472648 -2.49358 0
M  V30 19 H -0.326871 -1.38882 -2.36561 0
M  V30 20 H 0.36358 1.55397 -1.96397 0
M  V30 21 H -1.11019 0.869709 -2.71196 0
M  V30 22 H -1.84274 -0.865709 -1.1559 0
M  V30 23 H -0.094008 -0.509019 1.34089 0
M  V30 24 H -0.647996 -2.0449 0.619484 0
M  V30 25 H -3.12666 -1.23601 0.818053 0
M  V30 26 H -3.60871 0.192911 -0.0940703 0
M  V30 27 H -3.66177 1.0432 1.92464 0
M  V30 28 H -1.91784 1.1522 1.9374 0
M  V30 END ATOM
M  V30 BEGIN BOND
M  V30 1 1 1 2
M  V30 2 1 2 3
M  V30 3 1 3 4
M  V30 4 1 4 5
M  V30 5 1 5 6
M  V30 6 1 6 7
M  V30 7 1 7 8
M  V30 8 1 8 9
M  V30 9 1 8 10
M  V30 10 1 10 11
M  V30 11 1 9 4
M  V30 12 1 1 12
M  V30 13 1 1 13
M  V30 14 1 2 14
M  V30 15 1 2 15
M  V30 16 1 3 16
M  V30 17 1 3 17
M  V30 18 1 5 18
M  V30 19 1 5 19
M  V30 20 1 6 20
M  V30 21 1 6 21
M  V30 22 1 8 22 CFG=3
M  V30 23 1 9 23
M  V30 24 1 9 24
M  V30 25 1 10 25
M  V30 26 1 10 26
M  V30 27 1 11 27
M  V30 28 1 11 28
M  V30 END BOND
M  V30 END CTAB
M  END
