
     RDKit          3D

  0  0  0  0  0  0  0  0  0  0999 V3000
M  V30 BEGIN CTAB
M  V30 COUNTS 42 43 0 0 0
M  V30 BEGIN ATOM
M  V30 1 N 4.6494 0.709956 -1.53964 0
M  V30 2 C 3.20918 0.56424 -1.60902 0
M  V30 3 C 2.75909 -0.0909608 -0.325995 0
M  V30 4 C 3.42685 -1.43132 -0.209224 0
M  V30 5 C 3.10774 0.774046 0.885798 0
M  V30 6 C 2.24209 0.115883 1.94088 0
M  V30 7 N 1.02273 -0.208777 1.2505 0
M  V30 8 C 1.27158 -0.187406 -0.198298 0
M  V30 9 C -0.215482 -0.500914 1.87913 0
M  V30 10 O -0.275522 -0.481069 3.1149 0
M  V30 11 C -1.37933 -0.816248 1.02605 0
M  V30 12 C -1.63527 -2.12173 0.658742 0
M  V30 13 C -2.73237 -2.4411 -0.148647 0
M  V30 14 Br -3.02531 -4.25051 -0.614851 0
M  V30 15 C -3.56201 -1.42671 -0.576632 0
M  V30 16 C -3.33054 -0.0997552 -0.223184 0
M  V30 17 C -2.24054 0.152811 0.569573 0
M  V30 18 C -1.97109 1.55468 0.960281 0
M  V30 19 S -4.38516 1.19456 -0.766538 0
M  V30 20 O -5.04323 1.8948 0.365168 0
M  V30 21 O -3.64198 2.1636 -1.65298 0
M  V30 22 N -5.64211 0.479865 -1.74231 0
M  V30 23 H 5.12258 0.429021 -2.43166 0
M  V30 24 H 5.05372 0.0616927 -0.805958 0
M  V30 25 H 3.00419 -0.159323 -2.42441 0
M  V30 26 H 2.77197 1.54875 -1.7823 0
M  V30 27 H 4.20718 -1.43623 0.595085 0
M  V30 28 H 2.63463 -2.2039 0.0153947 0
M  V30 29 H 3.87784 -1.74244 -1.17398 0
M  V30 30 H 4.17287 0.758636 1.12235 0
M  V30 31 H 2.70675 1.7887 0.689108 0
M  V30 32 H 2.08311 0.770417 2.81857 0
M  V30 33 H 2.75045 -0.836264 2.21031 0
M  V30 34 H 0.875678 -1.06818 -0.702606 0
M  V30 35 H 0.84 0.763437 -0.622965 0
M  V30 36 H -0.963179 -2.90474 1.01109 0
M  V30 37 H -4.40446 -1.65644 -1.19436 0
M  V30 38 H -1.09815 1.64228 1.64297 0
M  V30 39 H -1.89831 2.23128 0.0938403 0
M  V30 40 H -2.84673 1.91804 1.56757 0
M  V30 41 H -5.19728 -0.0895693 -2.512 0
M  V30 42 H -6.30157 -0.0805069 -1.15974 0
M  V30 END ATOM
M  V30 BEGIN BOND
M  V30 1 1 1 2
M  V30 2 1 2 3
M  V30 3 1 3 4
M  V30 4 1 3 5
M  V30 5 1 5 6
M  V30 6 1 6 7
M  V30 7 1 7 8
M  V30 8 1 7 9
M  V30 9 2 9 10
M  V30 10 1 9 11
M  V30 11 2 11 12
M  V30 12 1 12 13
M  V30 13 1 13 14
M  V30 14 2 13 15
M  V30 15 1 15 16
M  V30 16 2 16 17
M  V30 17 1 17 18
M  V30 18 1 16 19
M  V30 19 2 19 20
M  V30 20 2 19 21
M  V30 21 1 19 22
M  V30 22 1 8 3
M  V30 23 1 17 11
M  V30 24 1 1 23
M  V30 25 1 1 24
M  V30 26 1 2 25
M  V30 27 1 2 26
M  V30 28 1 4 27
M  V30 29 1 4 28
M  V30 30 1 4 29
M  V30 31 1 5 30
M  V30 32 1 5 31
M  V30 33 1 6 32
M  V30 34 1 6 33
M  V30 35 1 8 34
M  V30 36 1 8 35
M  V30 37 1 12 36
M  V30 38 1 15 37
M  V30 39 1 18 38
M  V30 40 1 18 39
M  V30 41 1 18 40
M  V30 42 1 22 41
M  V30 43 1 22 42
M  V30 END BOND
M  V30 END CTAB
M  END
