
     RDKit          3D

  0  0  0  0  0  0  0  0  0  0999 V3000
M  V30 BEGIN CTAB
M  V30 COUNTS 22 22 0 0 0
M  V30 BEGIN ATOM
M  V30 1 C -1.32055 1.19177 1.22734 0
M  V30 2 C -0.114281 0.557499 0.555892 0
M  V30 3 C 1.16185 0.972833 0.76629 0
M  V30 4 C 2.19307 0.420771 0.0599335 0
M  V30 5 N 3.52724 0.869692 0.318968 0
M  V30 6 C 1.90214 -0.563013 -0.862255 0
M  V30 7 C 0.569429 -1.00111 -1.07546 0
M  V30 8 C -0.45719 -0.412673 -0.345105 0
M  V30 9 C -1.78483 -0.951654 -0.275653 0
M  V30 10 N -2.82982 -0.770589 -1.21831 0
M  V30 11 H -1.95536 1.63052 0.378715 0
M  V30 12 H -0.962147 2.0802 1.75176 0
M  V30 13 H -1.91123 0.556144 1.837 0
M  V30 14 H 1.38475 1.69147 1.51996 0
M  V30 15 H 4.03714 1.34702 -0.410356 0
M  V30 16 H 3.9041 0.618263 1.30718 0
M  V30 17 H 2.71567 -0.988617 -1.40953 0
M  V30 18 H 0.357628 -1.72509 -1.83975 0
M  V30 19 H -2.09533 -1.21606 0.814525 0
M  V30 20 H -1.52568 -2.17129 -0.520733 0
M  V30 21 H -3.01881 -1.47017 -1.9497 0
M  V30 22 H -3.7778 -0.665911 -0.63072 0
M  V30 END ATOM
M  V30 BEGIN BOND
M  V30 1 1 1 2
M  V30 2 2 2 3
M  V30 3 1 3 4
M  V30 4 1 4 5
M  V30 5 2 4 6
M  V30 6 1 6 7
M  V30 7 2 7 8
M  V30 8 1 8 9
M  V30 9 1 9 10
M  V30 10 1 8 2
M  V30 11 1 1 11
M  V30 12 1 1 12
M  V30 13 1 1 13
M  V30 14 1 3 14
M  V30 15 1 5 15
M  V30 16 1 5 16
M  V30 17 1 6 17
M  V30 18 1 7 18
M  V30 19 1 9 19
M  V30 20 1 9 20
M  V30 21 1 10 21
M  V30 22 1 10 22
M  V30 END BOND
M  V30 END CTAB
M  END
