
     RDKit          3D

  0  0  0  0  0  0  0  0  0  0999 V3000
M  V30 BEGIN CTAB
M  V30 COUNTS 19 19 0 0 0
M  V30 BEGIN ATOM
M  V30 1 F 3.04451 -1.69783 -1.42039 0
M  V30 2 C 2.14018 -0.8667 -0.849878 0
M  V30 3 C 2.60237 0.357111 -0.384486 0
M  V30 4 C 1.67333 1.18872 0.191381 0
M  V30 5 C 0.363941 0.82006 0.295578 0
M  V30 6 C -0.107907 -0.398093 -0.165195 0
M  V30 7 C 0.807203 -1.24807 -0.746589 0
M  V30 8 C -1.48444 -0.833529 -0.0776604 0
M  V30 9 N -1.89388 -1.96766 -0.512852 0
M  V30 10 N -2.42204 0.0436505 0.520798 0
M  V30 11 N -0.599212 1.68004 0.891584 0
M  V30 12 H 3.64719 0.637905 -0.473765 0
M  V30 13 H 1.98927 2.14229 0.56322 0
M  V30 14 H 0.497433 -2.23099 -1.13322 0
M  V30 15 H -2.88443 -2.28641 -0.452346 0
M  V30 16 H -3.04845 0.686319 -0.00898223 0
M  V30 17 H -2.49253 0.0478882 1.57902 0
M  V30 18 H -1.15449 2.28975 0.255558 0
M  V30 19 H -0.678037 1.63555 1.92823 0
M  V30 END ATOM
M  V30 BEGIN BOND
M  V30 1 1 1 2
M  V30 2 2 2 3
M  V30 3 1 3 4
M  V30 4 2 4 5
M  V30 5 1 5 6
M  V30 6 2 6 7
M  V30 7 1 6 8
M  V30 8 2 8 9 CFG=2
M  V30 9 1 8 10
M  V30 10 1 5 11
M  V30 11 1 7 2
M  V30 12 1 3 12
M  V30 13 1 4 13
M  V30 14 1 7 14
M  V30 15 1 9 15
M  V30 16 1 10 16
M  V30 17 1 10 17
M  V30 18 1 11 18
M  V30 19 1 11 19
M  V30 END BOND
M  V30 END CTAB
M  END
