
     RDKit          3D

  0  0  0  0  0  0  0  0  0  0999 V3000
M  V30 BEGIN CTAB
M  V30 COUNTS 59 62 0 0 0
M  V30 BEGIN ATOM
M  V30 1 N -5.34602 -4.02817 -0.455383 0
M  V30 2 C -4.0437 -3.47174 -0.284098 0
M  V30 3 N -3.91899 -2.22831 0.286474 0
M  V30 4 C -2.72177 -1.62769 0.42333 0
M  V30 5 C -2.57106 -0.316489 1.07264 0
M  V30 6 O -3.78487 0.350291 1.32237 0
M  V30 7 C -4.33182 0.692378 0.0693833 0
M  V30 8 C -5.57413 1.46174 0.247994 0
M  V30 9 C -5.59746 2.62563 0.958427 0
M  V30 10 C -6.76217 3.37331 1.07421 0
M  V30 11 C -7.91678 2.96449 0.49156 0
M  V30 12 C -7.88934 1.77499 -0.228805 0
M  V30 13 C -6.75658 1.0302 -0.35878 0
M  V30 14 C -1.56724 -2.25586 -0.0120791 0
M  V30 15 C -1.681 -3.49571 -0.579169 0
M  V30 16 N -0.574322 -4.19212 -1.07072 0
M  V30 17 N -2.92807 -4.05777 -0.690273 0
M  V30 18 C -0.287285 -1.52586 0.171333 0
M  V30 19 C 0.403446 -1.65283 1.3584 0
M  V30 20 C 1.55189 -0.976225 1.605 0
M  V30 21 C 2.08089 -0.105178 0.639441 0
M  V30 22 C 3.36218 0.573561 0.962264 0
M  V30 23 N 4.5392 -0.0584546 0.40279 0
M  V30 24 C 5.77049 0.33037 0.944264 0
M  V30 25 C 6.79423 0.968462 0.0947217 0
M  V30 26 C 7.53337 1.98743 0.730814 0
M  V30 27 C 8.52132 2.71215 0.0563449 0
M  V30 28 C 8.792 2.4499 -1.23675 0
M  V30 29 Cl 10.0112 3.35788 -2.13376 0
M  V30 30 C 8.09924 1.45249 -1.91256 0
M  V30 31 C 7.09345 0.724288 -1.20913 0
M  V30 32 C 1.392 0.0121409 -0.513134 0
M  V30 33 C 0.203058 -0.67755 -0.804519 0
M  V30 34 H -5.8454 -3.84179 -1.34099 0
M  V30 35 H -5.79364 -4.58679 0.277845 0
M  V30 36 H -2.04376 0.401498 0.367595 0
M  V30 37 H -1.97446 -0.323894 1.99321 0
M  V30 38 H -3.58715 1.37276 -0.466282 0
M  V30 39 H -4.46282 -0.141043 -0.618221 0
M  V30 40 H -4.67828 2.97941 1.4515 0
M  V30 41 H -6.68781 4.28445 1.65436 0
M  V30 42 H -8.8222 3.55553 0.606009 0
M  V30 43 H -8.80964 1.4748 -0.68993 0
M  V30 44 H -6.68157 0.0813961 -0.915209 0
M  V30 45 H -0.359908 -4.16886 -2.11932 0
M  V30 46 H 0.0281317 -4.74727 -0.408528 0
M  V30 47 H -0.00712452 -2.35703 2.09789 0
M  V30 48 H 2.10902 -1.08361 2.54922 0
M  V30 49 H 3.33564 1.59432 0.352367 0
M  V30 50 H 3.37928 0.910313 1.97315 0
M  V30 51 H 4.44404 -0.724467 -0.317832 0
M  V30 52 H 6.25224 -0.688152 1.28999 0
M  V30 53 H 5.63065 0.840481 1.90067 0
M  V30 54 H 7.32694 2.20531 1.74229 0
M  V30 55 H 9.06842 3.48322 0.567801 0
M  V30 56 H 8.31648 1.24552 -2.94636 0
M  V30 57 H 6.55528 -0.0486575 -1.7213 0
M  V30 58 H 1.75052 0.681868 -1.27665 0
M  V30 59 H -0.338204 -0.571069 -1.70634 0
M  V30 END ATOM
M  V30 BEGIN BOND
M  V30 1 1 1 2
M  V30 2 2 2 3
M  V30 3 1 3 4
M  V30 4 1 4 5
M  V30 5 1 5 6
M  V30 6 1 6 7
M  V30 7 1 7 8
M  V30 8 2 8 9
M  V30 9 1 9 10
M  V30 10 2 10 11
M  V30 11 1 11 12
M  V30 12 2 12 13
M  V30 13 2 4 14
M  V30 14 1 14 15
M  V30 15 1 15 16
M  V30 16 2 15 17
M  V30 17 1 14 18
M  V30 18 2 18 19
M  V30 19 1 19 20
M  V30 20 2 20 21
M  V30 21 1 21 22
M  V30 22 1 22 23
M  V30 23 1 23 24
M  V30 24 1 24 25
M  V30 25 2 25 26
M  V30 26 1 26 27
M  V30 27 2 27 28
M  V30 28 1 28 29
M  V30 29 1 28 30
M  V30 30 2 30 31
M  V30 31 1 21 32
M  V30 32 2 32 33
M  V30 33 1 17 2
M  V30 34 1 33 18
M  V30 35 1 13 8
M  V30 36 1 31 25
M  V30 37 1 1 34
M  V30 38 1 1 35
M  V30 39 1 5 36
M  V30 40 1 5 37
M  V30 41 1 7 38
M  V30 42 1 7 39
M  V30 43 1 9 40
M  V30 44 1 10 41
M  V30 45 1 11 42
M  V30 46 1 12 43
M  V30 47 1 13 44
M  V30 48 1 16 45
M  V30 49 1 16 46
M  V30 50 1 19 47
M  V30 51 1 20 48
M  V30 52 1 22 49
M  V30 53 1 22 50
M  V30 54 1 23 51
M  V30 55 1 24 52
M  V30 56 1 24 53
M  V30 57 1 26 54
M  V30 58 1 27 55
M  V30 59 1 30 56
M  V30 60 1 31 57
M  V30 61 1 32 58
M  V30 62 1 33 59
M  V30 END BOND
M  V30 END CTAB
M  END
