
     RDKit          3D

  0  0  0  0  0  0  0  0  0  0999 V3000
M  V30 BEGIN CTAB
M  V30 COUNTS 51 52 0 0 0
M  V30 BEGIN ATOM
M  V30 1 N 2.14839 0.432042 3.87889 0
M  V30 2 C 2.0963 1.48754 2.89896 0
M  V30 3 C 2.80826 1.11669 1.62663 0
M  V30 4 C 4.2552 0.834707 1.97159 0
M  V30 5 C 4.91215 0.307599 0.713849 0
M  V30 6 C 4.35217 -1.09076 0.490509 0
M  V30 7 C 2.96068 -1.22987 1.03423 0
M  V30 8 C 2.15067 0.0586632 0.828909 0
M  V30 9 N 0.778314 -0.162449 1.07578 0
M  V30 10 C -0.263784 -0.107362 0.0750484 0
M  V30 11 O 0.175369 0.16382 -1.07308 0
M  V30 12 C -1.6539 -0.3387 0.365376 0
M  V30 13 C -2.63739 -0.280996 -0.785802 0
M  V30 14 C -3.98901 -0.568474 -0.0604216 0
M  V30 15 N -5.10608 -0.582668 -0.916843 0
M  V30 16 C -2.45749 -1.35916 -1.79539 0
M  V30 17 C -1.97814 -1.00055 -3.14341 0
M  V30 18 C -2.26344 0.363567 -3.65372 0
M  V30 19 C -3.26959 1.05427 -2.79277 0
M  V30 20 C -2.77848 1.07013 -1.37462 0
M  V30 21 H 2.84987 0.614255 4.60509 0
M  V30 22 H 1.24149 0.129567 4.2404 0
M  V30 23 H 2.64009 2.35619 3.3319 0
M  V30 24 H 1.06411 1.84544 2.70741 0
M  V30 25 H 2.83086 2.05859 1.00228 0
M  V30 26 H 4.7426 1.8027 2.21279 0
M  V30 27 H 4.38043 0.169298 2.83091 0
M  V30 28 H 4.63181 0.984298 -0.119388 0
M  V30 29 H 6.01304 0.296021 0.854057 0
M  V30 30 H 5.00812 -1.77248 1.08356 0
M  V30 31 H 4.44681 -1.37565 -0.55847 0
M  V30 32 H 3.01297 -1.49931 2.10565 0
M  V30 33 H 2.47875 -2.07374 0.501916 0
M  V30 34 H 2.27772 0.283726 -0.271165 0
M  V30 35 H 0.442876 -0.385298 2.03557 0
M  V30 36 H -1.96815 0.305602 1.20859 0
M  V30 37 H -1.74746 -1.38999 0.773863 0
M  V30 38 H -3.91413 -1.52962 0.488103 0
M  V30 39 H -4.13976 0.2151 0.722706 0
M  V30 40 H -5.9486 -0.080846 -0.590036 0
M  V30 41 H -5.28039 -1.46467 -1.41792 0
M  V30 42 H -3.36041 -2.01186 -1.89626 0
M  V30 43 H -1.68568 -2.0742 -1.36354 0
M  V30 44 H -2.48397 -1.70379 -3.88922 0
M  V30 45 H -0.887858 -1.29379 -3.30694 0
M  V30 46 H -2.58508 0.375959 -4.7353 0
M  V30 47 H -1.31662 0.95997 -3.64861 0
M  V30 48 H -4.24379 0.580462 -2.94275 0
M  V30 49 H -3.37279 2.11683 -3.15846 0
M  V30 50 H -3.51803 1.717 -0.81248 0
M  V30 51 H -1.849 1.67619 -1.35798 0
M  V30 END ATOM
M  V30 BEGIN BOND
M  V30 1 1 1 2
M  V30 2 1 2 3
M  V30 3 1 3 4
M  V30 4 1 4 5
M  V30 5 1 5 6
M  V30 6 1 6 7
M  V30 7 1 7 8
M  V30 8 1 8 9
M  V30 9 1 9 10
M  V30 10 2 10 11
M  V30 11 1 10 12
M  V30 12 1 12 13
M  V30 13 1 13 14
M  V30 14 1 14 15
M  V30 15 1 13 16
M  V30 16 1 16 17
M  V30 17 1 17 18
M  V30 18 1 18 19
M  V30 19 1 19 20
M  V30 20 1 8 3
M  V30 21 1 20 13
M  V30 22 1 1 21
M  V30 23 1 1 22
M  V30 24 1 2 23
M  V30 25 1 2 24
M  V30 26 1 3 25
M  V30 27 1 4 26
M  V30 28 1 4 27
M  V30 29 1 5 28
M  V30 30 1 5 29
M  V30 31 1 6 30
M  V30 32 1 6 31
M  V30 33 1 7 32
M  V30 34 1 7 33
M  V30 35 1 8 34
M  V30 36 1 9 35
M  V30 37 1 12 36
M  V30 38 1 12 37
M  V30 39 1 14 38
M  V30 40 1 14 39
M  V30 41 1 15 40
M  V30 42 1 15 41
M  V30 43 1 16 42
M  V30 44 1 16 43
M  V30 45 1 17 44
M  V30 46 1 17 45
M  V30 47 1 18 46
M  V30 48 1 18 47
M  V30 49 1 19 48
M  V30 50 1 19 49
M  V30 51 1 20 50
M  V30 52 1 20 51
M  V30 END BOND
M  V30 END CTAB
M  END
