
     RDKit          3D

  0  0  0  0  0  0  0  0  0  0999 V3000
M  V30 BEGIN CTAB
M  V30 COUNTS 30 31 0 0 0
M  V30 BEGIN ATOM
M  V30 1 N 2.86472 -0.95047 2.1048 0
M  V30 2 C 2.70005 -0.451304 0.780396 0
M  V30 3 C 3.72961 -0.60405 -0.0919024 0
M  V30 4 C 3.64495 -0.147603 -1.38762 0
M  V30 5 C 2.47217 0.468235 -1.75135 0
M  V30 6 C 1.41818 0.620039 -0.841299 0
M  V30 7 C 1.47829 0.171257 0.454702 0
M  V30 8 C 0.54143 0.413063 1.50675 0
M  V30 9 C -0.734287 0.375607 1.45896 0
M  V30 10 C -1.53614 0.0435216 0.317205 0
M  V30 11 C -2.77394 0.696379 0.162436 0
M  V30 12 N -3.04689 1.75441 1.06626 0
M  V30 13 C -3.6861 0.361271 -0.79037 0
M  V30 14 C -3.45417 -0.658563 -1.68313 0
M  V30 15 C -2.25606 -1.32085 -1.56235 0
M  V30 16 C -1.33408 -0.973654 -0.589255 0
M  V30 17 H 3.05949 -1.96068 2.21433 0
M  V30 18 H 2.77949 -0.271278 2.88005 0
M  V30 19 H 4.67264 -1.08851 0.164457 0
M  V30 20 H 4.47647 -0.274397 -2.08451 0
M  V30 21 H 2.33586 0.852831 -2.75758 0
M  V30 22 H 0.524429 1.15582 -1.15068 0
M  V30 23 H 0.995003 0.67474 2.52243 0
M  V30 24 H -1.28529 0.634873 2.42981 0
M  V30 25 H -3.07734 1.55137 2.08183 0
M  V30 26 H -3.20791 2.69852 0.687616 0
M  V30 27 H -4.64383 0.870596 -0.908856 0
M  V30 28 H -4.17346 -0.936689 -2.44996 0
M  V30 29 H -2.04878 -2.13285 -2.25782 0
M  V30 30 H -0.434488 -1.57163 -0.525336 0
M  V30 END ATOM
M  V30 BEGIN BOND
M  V30 1 1 1 2
M  V30 2 2 2 3
M  V30 3 1 3 4
M  V30 4 2 4 5
M  V30 5 1 5 6
M  V30 6 2 6 7
M  V30 7 1 7 8
M  V30 8 2 8 9
M  V30 9 1 9 10
M  V30 10 2 10 11
M  V30 11 1 11 12
M  V30 12 1 11 13
M  V30 13 2 13 14
M  V30 14 1 14 15
M  V30 15 2 15 16
M  V30 16 1 7 2
M  V30 17 1 16 10
M  V30 18 1 1 17
M  V30 19 1 1 18
M  V30 20 1 3 19
M  V30 21 1 4 20
M  V30 22 1 5 21
M  V30 23 1 6 22
M  V30 24 1 8 23
M  V30 25 1 9 24
M  V30 26 1 12 25
M  V30 27 1 12 26
M  V30 28 1 13 27
M  V30 29 1 14 28
M  V30 30 1 15 29
M  V30 31 1 16 30
M  V30 END BOND
M  V30 END CTAB
M  END
