
     RDKit          3D

  0  0  0  0  0  0  0  0  0  0999 V3000
M  V30 BEGIN CTAB
M  V30 COUNTS 58 61 0 0 0
M  V30 BEGIN ATOM
M  V30 1 N -6.14624 0.0575754 2.59218 0
M  V30 2 C -5.77409 0.757567 1.40451 0
M  V30 3 C -4.53445 0.199528 0.748061 0
M  V30 4 C -3.33272 0.263491 1.67984 0
M  V30 5 N -2.17089 0.061121 0.808698 0
M  V30 6 C -2.28412 -0.839989 -0.307539 0
M  V30 7 C -3.43312 -1.79007 -0.216169 0
M  V30 8 C -4.69614 -1.23337 0.33724 0
M  V30 9 C -5.82658 -1.4114 -0.666453 0
M  V30 10 C -0.972452 0.75246 1.08408 0
M  V30 11 O -0.91773 1.5403 2.08469 0
M  V30 12 N 0.168259 0.570678 0.249016 0
M  V30 13 C 1.42297 1.28017 0.519093 0
M  V30 14 C 2.42599 0.885222 -0.520013 0
M  V30 15 N 1.86257 1.2741 -1.82359 0
M  V30 16 C 2.68188 -0.587449 -0.577405 0
M  V30 17 C 3.45249 -0.839751 -1.88035 0
M  V30 18 C 4.74461 -0.064222 -1.87606 0
M  V30 19 C 4.52144 1.41323 -1.65648 0
M  V30 20 C 3.72824 1.61066 -0.385591 0
M  V30 21 C 4.57112 1.11917 0.766363 0
M  V30 22 C 4.84239 -0.349477 0.57132 0
M  V30 23 C 3.53737 -1.07524 0.570599 0
M  V30 24 C 5.58093 -0.588391 -0.729059 0
M  V30 25 H -6.67548 0.668833 3.25078 0
M  V30 26 H -6.57697 -0.867591 2.44862 0
M  V30 27 H -5.54361 1.81308 1.69519 0
M  V30 28 H -6.58839 0.792108 0.680237 0
M  V30 29 H -4.27347 0.799844 -0.146963 0
M  V30 30 H -3.38637 -0.582122 2.39867 0
M  V30 31 H -3.28115 1.19376 2.244 0
M  V30 32 H -2.26197 -0.309717 -1.28302 0
M  V30 33 H -1.35152 -1.47855 -0.288639 0
M  V30 34 H -3.13347 -2.72589 0.34273 0
M  V30 35 H -3.61199 -2.17112 -1.26499 0
M  V30 36 H -5.00384 -1.84655 1.23422 0
M  V30 37 H -5.50652 -2.18999 -1.38823 0
M  V30 38 H -6.76212 -1.77546 -0.174372 0
M  V30 39 H -5.97131 -0.417593 -1.15142 0
M  V30 40 H 0.0942743 -0.0733991 -0.555076 0
M  V30 41 H 1.1964 2.36476 0.362566 0
M  V30 42 H 1.76949 1.07251 1.54431 0
M  V30 43 H 1.55124 2.25084 -1.8398 0
M  V30 44 H 1.16178 0.602741 -2.16033 0
M  V30 45 H 1.78384 -1.2113 -0.635885 0
M  V30 46 H 3.73041 -1.92482 -1.83707 0
M  V30 47 H 2.82761 -0.660741 -2.75898 0
M  V30 48 H 5.24136 -0.187201 -2.83954 0
M  V30 49 H 5.52922 1.86874 -1.47968 0
M  V30 50 H 4.07014 1.92255 -2.51616 0
M  V30 51 H 3.51862 2.68108 -0.207266 0
M  V30 52 H 5.54049 1.65233 0.718908 0
M  V30 53 H 4.12285 1.2816 1.74887 0
M  V30 54 H 5.47553 -0.723464 1.41779 0
M  V30 55 H 3.62776 -2.16704 0.492614 0
M  V30 56 H 2.99776 -0.810764 1.508 0
M  V30 57 H 6.58715 -0.159117 -0.703735 0
M  V30 58 H 5.65052 -1.68828 -0.854165 0
M  V30 END ATOM
M  V30 BEGIN BOND
M  V30 1 1 1 2
M  V30 2 1 2 3
M  V30 3 1 3 4
M  V30 4 1 4 5
M  V30 5 1 5 6
M  V30 6 1 6 7
M  V30 7 1 7 8
M  V30 8 1 8 9
M  V30 9 1 5 10
M  V30 10 2 10 11
M  V30 11 1 10 12
M  V30 12 1 12 13
M  V30 13 1 13 14
M  V30 14 1 14 15
M  V30 15 1 14 16
M  V30 16 1 16 17
M  V30 17 1 17 18
M  V30 18 1 18 19
M  V30 19 1 19 20
M  V30 20 1 20 21
M  V30 21 1 21 22
M  V30 22 1 22 23
M  V30 23 1 22 24
M  V30 24 1 8 3
M  V30 25 1 20 14
M  V30 26 1 23 16
M  V30 27 1 24 18
M  V30 28 1 1 25
M  V30 29 1 1 26
M  V30 30 1 2 27
M  V30 31 1 2 28
M  V30 32 1 3 29
M  V30 33 1 4 30
M  V30 34 1 4 31
M  V30 35 1 6 32
M  V30 36 1 6 33
M  V30 37 1 7 34
M  V30 38 1 7 35
M  V30 39 1 8 36
M  V30 40 1 9 37
M  V30 41 1 9 38
M  V30 42 1 9 39
M  V30 43 1 12 40
M  V30 44 1 13 41
M  V30 45 1 13 42
M  V30 46 1 15 43
M  V30 47 1 15 44
M  V30 48 1 16 45
M  V30 49 1 17 46
M  V30 50 1 17 47
M  V30 51 1 18 48
M  V30 52 1 19 49
M  V30 53 1 19 50
M  V30 54 1 20 51
M  V30 55 1 21 52
M  V30 56 1 21 53
M  V30 57 1 22 54
M  V30 58 1 23 55
M  V30 59 1 23 56
M  V30 60 1 24 57
M  V30 61 1 24 58
M  V30 END BOND
M  V30 END CTAB
M  END
