
     RDKit          3D

  0  0  0  0  0  0  0  0  0  0999 V3000
M  V30 BEGIN CTAB
M  V30 COUNTS 40 44 0 0 0
M  V30 BEGIN ATOM
M  V30 1 N -5.20074 -1.8741 0.839982 0
M  V30 2 C -4.98248 -0.513865 0.422413 0
M  V30 3 C -6.06349 0.331046 0.220992 0
M  V30 4 C -5.84927 1.63377 -0.179176 0
M  V30 5 C -4.54508 2.04365 -0.364006 0
M  V30 6 C -3.47601 1.19684 -0.161447 0
M  V30 7 C -3.67635 -0.110585 0.239469 0
M  V30 8 C -2.58798 -0.936026 0.43471 0
M  V30 9 O -2.77937 -2.1219 0.798814 0
M  V30 10 C -1.27856 -0.500449 0.241939 0
M  V30 11 C -0.20724 -1.34569 0.443921 0
M  V30 12 C 1.08678 -0.883454 0.243905 0
M  V30 13 C 1.29017 0.420355 -0.156075 0
M  V30 14 C 0.202237 1.24165 -0.350097 0
M  V30 15 C -1.07687 0.803052 -0.157868 0
M  V30 16 C -2.18181 1.62738 -0.351985 0
M  V30 17 O -1.94163 2.81058 -0.717617 0
M  V30 18 C 2.59311 0.873779 -0.353876 0
M  V30 19 O 2.79623 2.06145 -0.719078 0
M  V30 20 C 3.69724 0.0688341 -0.165516 0
M  V30 21 C 4.97714 0.562073 -0.374138 0
M  V30 22 N 5.18259 1.91757 -0.789691 0
M  V30 23 C 6.0584 -0.248238 -0.183084 0
M  V30 24 C 5.8258 -1.55121 0.218037 0
M  V30 25 C 4.5587 -2.03653 0.423678 0
M  V30 26 C 3.46118 -1.23656 0.236495 0
M  V30 27 C 2.1624 -1.70131 0.437489 0
M  V30 28 O 1.99915 -2.89462 0.802479 0
M  V30 29 H -5.33073 -1.99785 1.87628 0
M  V30 30 H -5.22844 -2.66918 0.178721 0
M  V30 31 H -7.08449 -0.0121484 0.372365 0
M  V30 32 H -6.69034 2.29802 -0.337951 0
M  V30 33 H -4.3642 3.0624 -0.677582 0
M  V30 34 H -0.394617 -2.35936 0.75628 0
M  V30 35 H 0.371845 2.25483 -0.661472 0
M  V30 36 H 5.14713 2.66468 -0.0431754 0
M  V30 37 H 5.36029 2.19822 -1.76255 0
M  V30 38 H 7.04755 0.149258 -0.349199 0
M  V30 39 H 6.70869 -2.17248 0.36195 0
M  V30 40 H 4.41307 -3.0539 0.735166 0
M  V30 END ATOM
M  V30 BEGIN BOND
M  V30 1 1 1 2
M  V30 2 2 2 3
M  V30 3 1 3 4
M  V30 4 2 4 5
M  V30 5 1 5 6
M  V30 6 2 6 7
M  V30 7 1 7 8
M  V30 8 2 8 9
M  V30 9 1 8 10
M  V30 10 2 10 11
M  V30 11 1 11 12
M  V30 12 2 12 13
M  V30 13 1 13 14
M  V30 14 2 14 15
M  V30 15 1 15 16
M  V30 16 2 16 17
M  V30 17 1 13 18
M  V30 18 2 18 19
M  V30 19 1 18 20
M  V30 20 2 20 21
M  V30 21 1 21 22
M  V30 22 1 21 23
M  V30 23 2 23 24
M  V30 24 1 24 25
M  V30 25 2 25 26
M  V30 26 1 26 27
M  V30 27 2 27 28
M  V30 28 1 7 2
M  V30 29 1 15 10
M  V30 30 1 26 20
M  V30 31 1 16 6
M  V30 32 1 27 12
M  V30 33 1 1 29
M  V30 34 1 1 30
M  V30 35 1 3 31
M  V30 36 1 4 32
M  V30 37 1 5 33
M  V30 38 1 11 34
M  V30 39 1 14 35
M  V30 40 1 22 36
M  V30 41 1 22 37
M  V30 42 1 23 38
M  V30 43 1 24 39
M  V30 44 1 25 40
M  V30 END BOND
M  V30 END CTAB
M  END
