
     RDKit          3D

  0  0  0  0  0  0  0  0  0  0999 V3000
M  V30 BEGIN CTAB
M  V30 COUNTS 27 28 0 0 0
M  V30 BEGIN ATOM
M  V30 1 C -0.960498 -2.21141 0.177372 0
M  V30 2 C -1.45243 -0.804537 0.0144509 0
M  V30 3 C -0.491367 0.171056 -0.13045 0
M  V30 4 C 0.927752 -0.111568 -0.0946126 0
M  V30 5 C 1.60738 -0.799455 -1.07139 0
M  V30 6 C 2.98807 -1.02393 -0.963917 0
M  V30 7 Cl 3.80423 -1.9153 -2.2249 0
M  V30 8 C 3.71292 -0.562396 0.124686 0
M  V30 9 Cl 5.44033 -0.852792 0.239275 0
M  V30 10 C 3.028 0.123961 1.09612 0
M  V30 11 C 1.676 0.344764 0.994581 0
M  V30 12 C -0.961501 1.47378 -0.292595 0
M  V30 13 N -0.0227278 2.53293 -0.440965 0
M  V30 14 N -2.28443 1.71667 -0.299917 0
M  V30 15 C -3.18041 0.7309 -0.154373 0
M  V30 16 N -4.57999 1.04304 -0.1702 0
M  V30 17 N -2.7871 -0.536105 0.00397482 0
M  V30 18 H -1.84521 -2.82922 0.450849 0
M  V30 19 H -0.608534 -2.60843 -0.807202 0
M  V30 20 H -0.227666 -2.31074 0.981594 0
M  V30 21 H 1.04458 -1.15838 -1.91262 0
M  V30 22 H 3.54739 0.503627 1.96165 0
M  V30 23 H 1.14222 0.891786 1.76051 0
M  V30 24 H 0.064718 3.30702 0.258524 0
M  V30 25 H 0.606975 2.57465 -1.25412 0
M  V30 26 H -4.91879 1.96358 -0.509072 0
M  V30 27 H -5.26991 0.346489 0.150203 0
M  V30 END ATOM
M  V30 BEGIN BOND
M  V30 1 1 1 2
M  V30 2 2 2 3
M  V30 3 1 3 4
M  V30 4 2 4 5
M  V30 5 1 5 6
M  V30 6 1 6 7
M  V30 7 2 6 8
M  V30 8 1 8 9
M  V30 9 1 8 10
M  V30 10 2 10 11
M  V30 11 1 3 12
M  V30 12 1 12 13
M  V30 13 2 12 14
M  V30 14 1 14 15
M  V30 15 1 15 16
M  V30 16 2 15 17
M  V30 17 1 17 2
M  V30 18 1 11 4
M  V30 19 1 1 18
M  V30 20 1 1 19
M  V30 21 1 1 20
M  V30 22 1 5 21
M  V30 23 1 10 22
M  V30 24 1 11 23
M  V30 25 1 13 24
M  V30 26 1 13 25
M  V30 27 1 16 26
M  V30 28 1 16 27
M  V30 END BOND
M  V30 END CTAB
M  END
