
     RDKit          3D

  0  0  0  0  0  0  0  0  0  0999 V3000
M  V30 BEGIN CTAB
M  V30 COUNTS 35 36 0 0 0
M  V30 BEGIN ATOM
M  V30 1 O -0.035606 -1.08613 1.49509 0
M  V30 2 C 0.140462 0.0490427 1.99072 0
M  V30 3 N 1.22928 0.874929 1.75995 0
M  V30 4 C 2.32285 0.549911 0.926035 0
M  V30 5 C 2.62909 -0.738447 0.59053 0
M  V30 6 C 3.71501 -1.00578 -0.26211 0
M  V30 7 C 4.5009 -0.00370605 -0.784378 0
M  V30 8 C 4.14973 1.27749 -0.414013 0
M  V30 9 C 3.11465 1.57593 0.40151 0
M  V30 10 Cl 5.13782 2.59206 -1.06598 0
M  V30 11 C 5.655 -0.241029 -1.68592 0
M  V30 12 C -0.923189 0.596521 2.93736 0
M  V30 13 S -2.05604 1.59668 1.97399 0
M  V30 14 C -3.00652 0.588394 0.848555 0
M  V30 15 N -2.88683 -0.738117 0.755775 0
M  V30 16 C -3.64136 -1.42497 -0.119283 0
M  V30 17 N -3.53531 -2.83687 -0.238986 0
M  V30 18 C -4.54865 -0.762951 -0.931121 0
M  V30 19 C -4.66743 0.625923 -0.827255 0
M  V30 20 N -3.88277 1.23775 0.0661462 0
M  V30 21 N -5.58896 1.32925 -1.64692 0
M  V30 22 H 1.25267 1.83254 2.24694 0
M  V30 23 H 2.08112 -1.59413 0.964878 0
M  V30 24 H 3.94559 -2.02228 -0.519015 0
M  V30 25 H 2.83091 2.58226 0.698683 0
M  V30 26 H 6.56158 0.338754 -1.38146 0
M  V30 27 H 5.9761 -1.30999 -1.64758 0
M  V30 28 H 5.41103 -0.0337374 -2.74386 0
M  V30 29 H -1.48536 -0.220926 3.40232 0
M  V30 30 H -0.424078 1.22834 3.70028 0
M  V30 31 H -3.35754 -3.24226 -1.20394 0
M  V30 32 H -3.61753 -3.50777 0.54189 0
M  V30 33 H -5.16743 -1.28188 -1.64189 0
M  V30 34 H -6.58082 1.42434 -1.38228 0
M  V30 35 H -5.24836 1.75085 -2.5248 0
M  V30 END ATOM
M  V30 BEGIN BOND
M  V30 1 2 1 2
M  V30 2 1 2 3
M  V30 3 1 3 4
M  V30 4 2 4 5
M  V30 5 1 5 6
M  V30 6 2 6 7
M  V30 7 1 7 8
M  V30 8 2 8 9
M  V30 9 1 8 10
M  V30 10 1 7 11
M  V30 11 1 2 12
M  V30 12 1 12 13
M  V30 13 1 13 14
M  V30 14 2 14 15
M  V30 15 1 15 16
M  V30 16 1 16 17
M  V30 17 2 16 18
M  V30 18 1 18 19
M  V30 19 2 19 20
M  V30 20 1 19 21
M  V30 21 1 9 4
M  V30 22 1 20 14
M  V30 23 1 3 22
M  V30 24 1 5 23
M  V30 25 1 6 24
M  V30 26 1 9 25
M  V30 27 1 11 26
M  V30 28 1 11 27
M  V30 29 1 11 28
M  V30 30 1 12 29
M  V30 31 1 12 30
M  V30 32 1 17 31
M  V30 33 1 17 32
M  V30 34 1 18 33
M  V30 35 1 21 34
M  V30 36 1 21 35
M  V30 END BOND
M  V30 END CTAB
M  END
