
     RDKit          3D

  0  0  0  0  0  0  0  0  0  0999 V3000
M  V30 BEGIN CTAB
M  V30 COUNTS 58 60 0 0 0
M  V30 BEGIN ATOM
M  V30 1 C -3.84879 5.11312 0.264154 0
M  V30 2 O -3.72512 4.49786 1.49196 0
M  V30 3 C -3.6445 3.14507 1.35547 0
M  V30 4 C -2.45604 2.66219 0.536042 0
M  V30 5 C -2.57427 1.16585 0.548949 0
M  V30 6 N -3.44973 0.426571 1.22209 0
M  V30 7 C -3.26747 -0.866897 0.955152 0
M  V30 8 C -3.94572 -1.9846 1.39139 0
M  V30 9 N -5.01502 -1.83376 2.31182 0
M  V30 10 N -3.57336 -3.18426 0.931375 0
M  V30 11 C -2.56335 -3.33004 0.0613261 0
M  V30 12 C -2.2287 -4.6068 -0.410171 0
M  V30 13 C -1.21856 -4.75432 -1.3107 0
M  V30 14 C -0.528746 -3.65497 -1.75556 0
M  V30 15 C -0.834238 -2.37497 -1.30765 0
M  V30 16 C -1.84558 -2.23243 -0.407903 0
M  V30 17 C -2.20312 -0.970757 0.0493093 0
M  V30 18 N -1.79208 0.285917 -0.184735 0
M  V30 19 C -0.783169 0.765259 -1.07265 0
M  V30 20 C 0.498557 1.2263 -0.542028 0
M  V30 21 C 1.49752 0.535263 0.218719 0
M  V30 22 C 2.30885 -0.579924 -0.283244 0
M  V30 23 C 3.13773 -0.251372 -1.50606 0
M  V30 24 C 4.11965 0.858305 -1.29188 0
M  V30 25 C 5.11842 0.569742 -0.21396 0
M  V30 26 C 5.94925 -0.677839 -0.520165 0
M  V30 27 N 6.8668 -0.820708 0.614727 0
M  V30 28 H -2.99851 4.92964 -0.384693 0
M  V30 29 H -4.76282 4.67356 -0.222372 0
M  V30 30 H -4.03499 6.20532 0.379123 0
M  V30 31 H -4.59139 2.71271 0.914058 0
M  V30 32 H -3.61789 2.6822 2.38567 0
M  V30 33 H -1.52424 3.01821 1.00568 0
M  V30 34 H -2.58699 3.00736 -0.487494 0
M  V30 35 H -4.85572 -2.01286 3.30594 0
M  V30 36 H -5.93975 -1.54503 1.96453 0
M  V30 37 H -2.8033 -5.43253 -0.0262123 0
M  V30 38 H -1.00302 -5.75809 -1.64122 0
M  V30 39 H 0.267602 -3.80496 -2.47065 0
M  V30 40 H -0.233761 -1.60087 -1.68884 0
M  V30 41 H -1.26327 1.79833 -1.45077 0
M  V30 42 H -0.656975 0.213248 -1.99885 0
M  V30 43 H 0.324769 2.24885 -0.040119 0
M  V30 44 H 1.06647 1.61153 -1.50077 0
M  V30 45 H 1.13426 0.192516 1.25482 0
M  V30 46 H 2.26408 1.33018 0.562941 0
M  V30 47 H 1.86777 -1.55687 -0.410935 0
M  V30 48 H 3.10406 -0.760093 0.534971 0
M  V30 49 H 2.49517 -0.0938492 -2.39459 0
M  V30 50 H 3.73156 -1.17314 -1.7332 0
M  V30 51 H 4.67745 0.987603 -2.23809 0
M  V30 52 H 3.64906 1.82771 -1.05905 0
M  V30 53 H 5.86773 1.4134 -0.252086 0
M  V30 54 H 4.68354 0.492885 0.798047 0
M  V30 55 H 6.5574 -0.502857 -1.41224 0
M  V30 56 H 5.33208 -1.58425 -0.540574 0
M  V30 57 H 7.51322 -1.62346 0.451906 0
M  V30 58 H 6.3372 -1.02418 1.48277 0
M  V30 END ATOM
M  V30 BEGIN BOND
M  V30 1 1 1 2
M  V30 2 1 2 3
M  V30 3 1 3 4
M  V30 4 1 4 5
M  V30 5 2 5 6
M  V30 6 1 6 7
M  V30 7 2 7 8
M  V30 8 1 8 9
M  V30 9 1 8 10
M  V30 10 2 10 11
M  V30 11 1 11 12
M  V30 12 2 12 13
M  V30 13 1 13 14
M  V30 14 2 14 15
M  V30 15 1 15 16
M  V30 16 2 16 17
M  V30 17 1 17 18
M  V30 18 1 18 19
M  V30 19 1 19 20
M  V30 20 1 20 21
M  V30 21 1 21 22
M  V30 22 1 22 23
M  V30 23 1 23 24
M  V30 24 1 24 25
M  V30 25 1 25 26
M  V30 26 1 26 27
M  V30 27 1 18 5
M  V30 28 1 17 7
M  V30 29 1 16 11
M  V30 30 1 1 28
M  V30 31 1 1 29
M  V30 32 1 1 30
M  V30 33 1 3 31
M  V30 34 1 3 32
M  V30 35 1 4 33
M  V30 36 1 4 34
M  V30 37 1 9 35
M  V30 38 1 9 36
M  V30 39 1 12 37
M  V30 40 1 13 38
M  V30 41 1 14 39
M  V30 42 1 15 40
M  V30 43 1 19 41
M  V30 44 1 19 42
M  V30 45 1 20 43
M  V30 46 1 20 44
M  V30 47 1 21 45
M  V30 48 1 21 46
M  V30 49 1 22 47
M  V30 50 1 22 48
M  V30 51 1 23 49
M  V30 52 1 23 50
M  V30 53 1 24 51
M  V30 54 1 24 52
M  V30 55 1 25 53
M  V30 56 1 25 54
M  V30 57 1 26 55
M  V30 58 1 26 56
M  V30 59 1 27 57
M  V30 60 1 27 58
M  V30 END BOND
M  V30 END CTAB
M  END
