
     RDKit          3D

  0  0  0  0  0  0  0  0  0  0999 V3000
M  V30 BEGIN CTAB
M  V30 COUNTS 43 45 0 0 0
M  V30 BEGIN ATOM
M  V30 1 O 1.43225 1.31812 1.42991 0
M  V30 2 C 1.33772 0.153032 1.02142 0
M  V30 3 N 2.42091 -0.654049 0.735601 0
M  V30 4 C 3.80694 -0.369946 0.827772 0
M  V30 5 C 4.32511 0.87102 1.0879 0
M  V30 6 C 5.71345 1.09087 1.18295 0
M  V30 7 C 6.61373 0.0671551 1.01802 0
M  V30 8 C 6.09898 -1.18216 0.756059 0
M  V30 9 C 4.74414 -1.40222 0.662371 0
M  V30 10 S 8.33028 0.34022 1.13623 0
M  V30 11 O 8.96195 -0.918772 1.63687 0
M  V30 12 O 8.61344 1.44944 2.10566 0
M  V30 13 N 9.05833 0.745122 -0.356996 0
M  V30 14 C -0.0506216 -0.369627 0.841727 0
M  V30 15 S -0.642289 0.0550223 -0.815263 0
M  V30 16 C -2.28778 -0.561702 -1.08523 0
M  V30 17 N -2.62349 -1.75496 -1.586 0
M  V30 18 N -3.91139 -1.84776 -1.63174 0
M  V30 19 C -4.44864 -0.680431 -1.14637 0
M  V30 20 N -3.44136 0.122321 -0.805327 0
M  V30 21 N -3.54163 1.39054 -0.275758 0
M  V30 22 C -5.89916 -0.50611 -1.0844 0
M  V30 23 C -6.74209 -1.50909 -1.52985 0
M  V30 24 C -8.12277 -1.42256 -1.50367 0
M  V30 25 C -8.73062 -0.29093 -1.0141 0
M  V30 26 C -7.92679 0.714175 -0.568066 0
M  V30 27 C -6.52105 0.6183 -0.598149 0
M  V30 28 F -10.081 -0.152974 -0.965251 0
M  V30 29 H 2.17895 -1.65229 0.386385 0
M  V30 30 H 3.6845 1.72272 1.22245 0
M  V30 31 H 6.09674 2.09303 1.39199 0
M  V30 32 H 6.80877 -1.99758 0.624463 0
M  V30 33 H 4.35158 -2.38455 0.457675 0
M  V30 34 H 8.69093 0.156298 -1.15324 0
M  V30 35 H 9.01486 1.76726 -0.573637 0
M  V30 36 H -0.765176 0.0924958 1.56485 0
M  V30 37 H -0.0693815 -1.49154 0.924389 0
M  V30 38 H -3.44541 2.23011 -0.87858 0
M  V30 39 H -3.71554 1.512 0.741183 0
M  V30 40 H -6.27758 -2.41813 -1.92316 0
M  V30 41 H -8.73614 -2.22525 -1.85976 0
M  V30 42 H -8.35435 1.63483 -0.169164 0
M  V30 43 H -5.94929 1.44154 -0.232168 0
M  V30 END ATOM
M  V30 BEGIN BOND
M  V30 1 2 1 2
M  V30 2 1 2 3
M  V30 3 1 3 4
M  V30 4 2 4 5
M  V30 5 1 5 6
M  V30 6 2 6 7
M  V30 7 1 7 8
M  V30 8 2 8 9
M  V30 9 1 7 10
M  V30 10 2 10 11
M  V30 11 2 10 12
M  V30 12 1 10 13
M  V30 13 1 2 14
M  V30 14 1 14 15
M  V30 15 1 15 16
M  V30 16 2 16 17
M  V30 17 1 17 18
M  V30 18 2 18 19
M  V30 19 1 19 20
M  V30 20 1 20 21
M  V30 21 1 19 22
M  V30 22 2 22 23
M  V30 23 1 23 24
M  V30 24 2 24 25
M  V30 25 1 25 26
M  V30 26 2 26 27
M  V30 27 1 25 28
M  V30 28 1 9 4
M  V30 29 1 20 16
M  V30 30 1 27 22
M  V30 31 1 3 29
M  V30 32 1 5 30
M  V30 33 1 6 31
M  V30 34 1 8 32
M  V30 35 1 9 33
M  V30 36 1 13 34
M  V30 37 1 13 35
M  V30 38 1 14 36
M  V30 39 1 14 37
M  V30 40 1 21 38
M  V30 41 1 21 39
M  V30 42 1 23 40
M  V30 43 1 24 41
M  V30 44 1 26 42
M  V30 45 1 27 43
M  V30 END BOND
M  V30 END CTAB
M  END
