
     RDKit          3D

  0  0  0  0  0  0  0  0  0  0999 V3000
M  V30 BEGIN CTAB
M  V30 COUNTS 22 22 0 0 0
M  V30 BEGIN ATOM
M  V30 1 N -1.64065 2.8014 0.480188 0
M  V30 2 C -1.0795 1.52184 0.283082 0
M  V30 3 C -1.87573 0.390348 0.392769 0
M  V30 4 C -1.33331 -0.86345 0.201275 0
M  V30 5 C -2.13132 -2.10511 0.30498 0
M  V30 6 C 0.0273887 -0.943614 -0.102323 0
M  V30 7 C 0.809635 0.18708 -0.208983 0
M  V30 8 C 0.274314 1.44299 -0.0189271 0
M  V30 9 S 2.53003 0.0360021 -0.595718 0
M  V30 10 O 3.1522 1.39153 -0.695711 0
M  V30 11 O 2.62381 -0.720342 -1.90794 0
M  V30 12 N 3.26729 -0.914565 0.660869 0
M  V30 13 F 0.583029 -2.15323 -0.294173 0
M  V30 14 H -2.24148 3.21894 -0.246741 0
M  V30 15 H -1.4405 3.30686 1.35703 0
M  V30 16 H -2.93776 0.456231 0.629891 0
M  V30 17 H -3.17755 -1.85203 0.0033851 0
M  V30 18 H -2.17873 -2.5071 1.33784 0
M  V30 19 H -1.77523 -2.90448 -0.373904 0
M  V30 20 H 0.908658 2.31415 -0.10804 0
M  V30 21 H 3.72584 -1.76497 0.26035 0
M  V30 22 H 3.90958 -0.338464 1.23093 0
M  V30 END ATOM
M  V30 BEGIN BOND
M  V30 1 1 1 2
M  V30 2 2 2 3
M  V30 3 1 3 4
M  V30 4 1 4 5
M  V30 5 2 4 6
M  V30 6 1 6 7
M  V30 7 2 7 8
M  V30 8 1 7 9
M  V30 9 2 9 10
M  V30 10 2 9 11
M  V30 11 1 9 12
M  V30 12 1 6 13
M  V30 13 1 8 2
M  V30 14 1 1 14
M  V30 15 1 1 15
M  V30 16 1 3 16
M  V30 17 1 5 17
M  V30 18 1 5 18
M  V30 19 1 5 19
M  V30 20 1 8 20
M  V30 21 1 12 21
M  V30 22 1 12 22
M  V30 END BOND
M  V30 END CTAB
M  END
