
     RDKit          3D

  0  0  0  0  0  0  0  0  0  0999 V3000
M  V30 BEGIN CTAB
M  V30 COUNTS 18 18 0 0 0
M  V30 BEGIN ATOM
M  V30 1 C -1.88998 -1.41078 -0.331681 0
M  V30 2 C -0.671938 -0.584023 -0.132826 0
M  V30 3 N 0.541742 -1.15987 -0.0581257 0
M  V30 4 C 1.67863 -0.466473 0.12058 0
M  V30 5 N 2.95918 -1.10643 0.196564 0
M  V30 6 C 1.56578 0.90672 0.230021 0
M  V30 7 C 0.321717 1.52474 0.155896 0
M  V30 8 C -0.831543 0.783238 -0.0287437 0
M  V30 9 N -2.11482 1.39551 -0.107456 0
M  V30 10 Br 3.13121 1.9519 0.484071 0
M  V30 11 H -2.76417 -0.799811 -0.538365 0
M  V30 12 H -1.74927 -2.15098 -1.14891 0
M  V30 13 H -2.03938 -1.96596 0.638727 0
M  V30 14 H 3.70507 -0.989733 -0.496851 0
M  V30 15 H 3.18263 -1.75007 1.01159 0
M  V30 16 H 0.192534 2.59502 0.236929 0
M  V30 17 H -2.38084 2.09207 -0.835139 0
M  V30 18 H -2.83655 1.13493 0.603716 0
M  V30 END ATOM
M  V30 BEGIN BOND
M  V30 1 1 1 2
M  V30 2 2 2 3
M  V30 3 1 3 4
M  V30 4 1 4 5
M  V30 5 2 4 6
M  V30 6 1 6 7
M  V30 7 2 7 8
M  V30 8 1 8 9
M  V30 9 1 6 10
M  V30 10 1 8 2
M  V30 11 1 1 11
M  V30 12 1 1 12
M  V30 13 1 1 13
M  V30 14 1 5 14
M  V30 15 1 5 15
M  V30 16 1 7 16
M  V30 17 1 9 17
M  V30 18 1 9 18
M  V30 END BOND
M  V30 END CTAB
M  END
