
     RDKit          3D

  0  0  0  0  0  0  0  0  0  0999 V3000
M  V30 BEGIN CTAB
M  V30 COUNTS 38 40 0 0 0
M  V30 BEGIN ATOM
M  V30 1 O -0.794746 1.03541 0.0575593 0
M  V30 2 C -1.20682 -0.11311 -0.210159 0
M  V30 3 C -0.407556 -1.29106 -0.625585 0
M  V30 4 C -1.26593 -2.40929 -0.0803877 0
M  V30 5 C -2.63727 -1.93036 -0.563307 0
M  V30 6 N -2.56626 -0.517083 -0.164338 0
M  V30 7 C -3.73451 0.218318 0.185963 0
M  V30 8 C -4.64406 -0.268709 1.12171 0
M  V30 9 C -5.78564 0.405661 1.49014 0
M  V30 10 C -6.0369 1.62347 0.901065 0
M  V30 11 C -5.15435 2.13124 -0.0288692 0
M  V30 12 C -4.01401 1.44085 -0.386804 0
M  V30 13 F -3.18096 1.99352 -1.31192 0
M  V30 14 S 1.26498 -1.27948 -0.0180836 0
M  V30 15 C 2.13066 0.111646 -0.814394 0
M  V30 16 C 3.53963 0.217239 -0.375168 0
M  V30 17 N 4.57167 -0.397176 -0.974335 0
M  V30 18 C 5.85164 -0.28004 -0.549398 0
M  V30 19 N 6.91522 -0.945964 -1.21092 0
M  V30 20 N 6.05233 0.503451 0.534067 0
M  V30 21 C 5.06124 1.14305 1.17506 0
M  V30 22 N 3.80812 0.981319 0.696451 0
M  V30 23 N 5.27448 1.97157 2.31845 0
M  V30 24 H -0.382074 -1.41207 -1.72837 0
M  V30 25 H -1.31045 -2.37822 1.02971 0
M  V30 26 H -1.00832 -3.39486 -0.473827 0
M  V30 27 H -2.64451 -1.9517 -1.6602 0
M  V30 28 H -3.45531 -2.45348 -0.0774505 0
M  V30 29 H -4.41061 -1.23536 1.56551 0
M  V30 30 H -6.43088 -0.0503089 2.2235 0
M  V30 31 H -6.93412 2.16702 1.1828 0
M  V30 32 H -5.37826 3.10927 -0.486693 0
M  V30 33 H 1.59669 1.04107 -0.531799 0
M  V30 34 H 2.03553 0.0424872 -1.92705 0
M  V30 35 H 6.77436 -1.28836 -2.18039 0
M  V30 36 H 7.80599 -1.07316 -0.70692 0
M  V30 37 H 5.54993 2.95956 2.14014 0
M  V30 38 H 5.15108 1.57364 3.27342 0
M  V30 END ATOM
M  V30 BEGIN BOND
M  V30 1 2 1 2
M  V30 2 1 2 3
M  V30 3 1 3 4
M  V30 4 1 4 5
M  V30 5 1 5 6
M  V30 6 1 6 7
M  V30 7 2 7 8
M  V30 8 1 8 9
M  V30 9 2 9 10
M  V30 10 1 10 11
M  V30 11 2 11 12
M  V30 12 1 12 13
M  V30 13 1 3 14
M  V30 14 1 14 15
M  V30 15 1 15 16
M  V30 16 2 16 17
M  V30 17 1 17 18
M  V30 18 1 18 19
M  V30 19 2 18 20
M  V30 20 1 20 21
M  V30 21 2 21 22
M  V30 22 1 21 23
M  V30 23 1 6 2
M  V30 24 1 12 7
M  V30 25 1 22 16
M  V30 26 1 3 24
M  V30 27 1 4 25
M  V30 28 1 4 26
M  V30 29 1 5 27
M  V30 30 1 5 28
M  V30 31 1 8 29
M  V30 32 1 9 30
M  V30 33 1 10 31
M  V30 34 1 11 32
M  V30 35 1 15 33
M  V30 36 1 15 34
M  V30 37 1 19 35
M  V30 38 1 19 36
M  V30 39 1 23 37
M  V30 40 1 23 38
M  V30 END BOND
M  V30 END CTAB
M  END
