
     RDKit          3D

  0  0  0  0  0  0  0  0  0  0999 V3000
M  V30 BEGIN CTAB
M  V30 COUNTS 26 27 0 0 0
M  V30 BEGIN ATOM
M  V30 1 N 2.74167 0.844276 -2.4865 0
M  V30 2 C 2.20748 0.260321 -1.30667 0
M  V30 3 N 0.908443 0.346876 -0.962286 0
M  V30 4 C 0.501748 -0.240184 0.174678 0
M  V30 5 N 1.39373 -0.895821 0.93727 0
M  V30 6 C 2.69735 -0.996209 0.614334 0
M  V30 7 N 3.10073 -0.408329 -0.522751 0
M  V30 8 N 3.63061 -1.70641 1.45277 0
M  V30 9 C -0.898768 -0.207106 0.646888 0
M  V30 10 C -1.83175 -0.790164 -0.410432 0
M  V30 11 C -3.12175 -0.0472103 -0.284262 0
M  V30 12 C -2.94071 0.934781 0.845749 0
M  V30 13 C -1.44529 1.17422 0.814598 0
M  V30 14 H 3.42799 1.60922 -2.40165 0
M  V30 15 H 2.44817 0.509039 -3.40667 0
M  V30 16 H 4.31222 -1.19308 2.05148 0
M  V30 17 H 3.58098 -2.76482 1.42267 0
M  V30 18 H -1.03361 -0.747725 1.60335 0
M  V30 19 H -1.93464 -1.89351 -0.272917 0
M  V30 20 H -1.33955 -0.559438 -1.3926 0
M  V30 21 H -3.31538 0.541438 -1.22421 0
M  V30 22 H -3.99824 -0.708711 -0.133093 0
M  V30 23 H -3.16762 0.475983 1.83297 0
M  V30 24 H -3.5169 1.87025 0.687911 0
M  V30 25 H -1.24758 1.83278 -0.0550352 0
M  V30 26 H -1.1593 1.65616 1.77441 0
M  V30 END ATOM
M  V30 BEGIN BOND
M  V30 1 1 1 2
M  V30 2 2 2 3
M  V30 3 1 3 4
M  V30 4 2 4 5
M  V30 5 1 5 6
M  V30 6 2 6 7
M  V30 7 1 6 8
M  V30 8 1 4 9
M  V30 9 1 9 10
M  V30 10 1 10 11
M  V30 11 1 11 12
M  V30 12 1 12 13
M  V30 13 1 7 2
M  V30 14 1 13 9
M  V30 15 1 1 14
M  V30 16 1 1 15
M  V30 17 1 8 16
M  V30 18 1 8 17
M  V30 19 1 9 18
M  V30 20 1 10 19
M  V30 21 1 10 20
M  V30 22 1 11 21
M  V30 23 1 11 22
M  V30 24 1 12 23
M  V30 25 1 12 24
M  V30 26 1 13 25
M  V30 27 1 13 26
M  V30 END BOND
M  V30 END CTAB
M  END
