
     RDKit          3D

  0  0  0  0  0  0  0  0  0  0999 V3000
M  V30 BEGIN CTAB
M  V30 COUNTS 21 22 0 0 0
M  V30 BEGIN ATOM
M  V30 1 C -2.75943 -0.183191 -0.220126 0
M  V30 2 C -1.49481 0.584105 -0.361297 0
M  V30 3 C -1.36694 1.88473 -0.815183 0
M  V30 4 N -0.0535749 2.15594 -0.772881 0
M  V30 5 C 0.650593 1.10368 -0.319708 0
M  V30 6 N 1.967 0.925664 -0.115619 0
M  V30 7 C 2.43941 -0.253223 0.35839 0
M  V30 8 N 3.83367 -0.345364 0.539901 0
M  V30 9 N 1.58178 -1.22775 0.617394 0
M  V30 10 C 0.256666 -1.10159 0.431015 0
M  V30 11 N -0.634836 -2.1711 0.72058 0
M  V30 12 C -0.24653 0.0899323 -0.0508125 0
M  V30 13 H -3.562 0.32157 -0.823795 0
M  V30 14 H -2.60327 -1.1987 -0.660222 0
M  V30 15 H -3.02911 -0.275705 0.841437 0
M  V30 16 H -2.13634 2.56626 -1.14204 0
M  V30 17 H 0.406466 3.07075 -1.05273 0
M  V30 18 H 4.26704 0.0527832 1.38381 0
M  V30 19 H 4.41241 -0.810597 -0.172586 0
M  V30 20 H -1.30474 -2.17876 1.51473 0
M  V30 21 H -0.623453 -3.00945 0.0997497 0
M  V30 END ATOM
M  V30 BEGIN BOND
M  V30 1 1 1 2
M  V30 2 2 2 3
M  V30 3 1 3 4
M  V30 4 1 4 5
M  V30 5 2 5 6
M  V30 6 1 6 7
M  V30 7 1 7 8
M  V30 8 2 7 9
M  V30 9 1 9 10
M  V30 10 1 10 11
M  V30 11 2 10 12
M  V30 12 1 12 2
M  V30 13 1 12 5
M  V30 14 1 1 13
M  V30 15 1 1 14
M  V30 16 1 1 15
M  V30 17 1 3 16
M  V30 18 1 4 17
M  V30 19 1 8 18
M  V30 20 1 8 19
M  V30 21 1 11 20
M  V30 22 1 11 21
M  V30 END BOND
M  V30 END CTAB
M  END
