
     RDKit          3D

  0  0  0  0  0  0  0  0  0  0999 V3000
M  V30 BEGIN CTAB
M  V30 COUNTS 30 30 0 0 0
M  V30 BEGIN ATOM
M  V30 1 N 5.74283 -0.376655 0.573358 0
M  V30 2 S 4.41526 0.163755 1.5316 0
M  V30 3 O 4.7801 1.47359 2.15806 0
M  V30 4 O 4.11268 -0.801783 2.63793 0
M  V30 5 O 3.03308 0.367696 0.591308 0
M  V30 6 C 1.9542 -0.341654 1.13619 0
M  V30 7 C 0.794324 -0.114849 0.265234 0
M  V30 8 C -0.0500577 0.938771 0.497444 0
M  V30 9 C -1.14318 1.13704 -0.338487 0
M  V30 10 C -1.39897 0.291689 -1.40338 0
M  V30 11 C -2.57206 0.554044 -2.2483 0
M  V30 12 O -3.60557 1.08601 -1.52246 0
M  V30 13 S -4.17577 0.137678 -0.291391 0
M  V30 14 N -4.3762 1.03963 1.17149 0
M  V30 15 O -5.5635 -0.395596 -0.629399 0
M  V30 16 O -3.29996 -1.05161 0.00957422 0
M  V30 17 C -0.53326 -0.759396 -1.61311 0
M  V30 18 C 0.540727 -0.958094 -0.79568 0
M  V30 19 H 6.07347 -1.32548 0.855373 0
M  V30 20 H 5.48338 -0.334996 -0.438813 0
M  V30 21 H 2.2439 -1.41678 1.09711 0
M  V30 22 H 1.80627 0.0228765 2.17567 0
M  V30 23 H 0.14369 1.60673 1.33113 0
M  V30 24 H -1.79965 1.97043 -0.147132 0
M  V30 25 H -2.26389 1.34399 -2.98729 0
M  V30 26 H -2.86457 -0.317328 -2.86957 0
M  V30 27 H -3.56344 0.853831 1.77759 0
M  V30 28 H -4.36038 2.04734 0.920679 0
M  V30 29 H -0.766882 -1.40766 -2.46514 0
M  V30 30 H 1.21345 -1.79629 -0.979565 0
M  V30 END ATOM
M  V30 BEGIN BOND
M  V30 1 1 1 2
M  V30 2 2 2 3
M  V30 3 2 2 4
M  V30 4 1 2 5
M  V30 5 1 5 6
M  V30 6 1 6 7
M  V30 7 2 7 8
M  V30 8 1 8 9
M  V30 9 2 9 10
M  V30 10 1 10 11
M  V30 11 1 11 12
M  V30 12 1 12 13
M  V30 13 1 13 14
M  V30 14 2 13 15
M  V30 15 2 13 16
M  V30 16 1 10 17
M  V30 17 2 17 18
M  V30 18 1 18 7
M  V30 19 1 1 19
M  V30 20 1 1 20
M  V30 21 1 6 21
M  V30 22 1 6 22
M  V30 23 1 8 23
M  V30 24 1 9 24
M  V30 25 1 11 25
M  V30 26 1 11 26
M  V30 27 1 14 27
M  V30 28 1 14 28
M  V30 29 1 17 29
M  V30 30 1 18 30
M  V30 END BOND
M  V30 END CTAB
M  END
