
     RDKit          3D

  0  0  0  0  0  0  0  0  0  0999 V3000
M  V30 BEGIN CTAB
M  V30 COUNTS 31 31 0 0 0
M  V30 BEGIN ATOM
M  V30 1 C -2.90167 -1.42346 0.352023 0
M  V30 2 C -1.86817 -0.46982 -0.172717 0 CFG=2
M  V30 3 C -0.885743 -1.1517 -1.12187 0
M  V30 4 C 0.169833 -0.0413072 -1.22271 0
M  V30 5 C 0.187603 0.647896 0.0807353 0 CFG=2
M  V30 6 C -0.315236 2.09496 -0.118061 0
M  V30 7 N 0.552448 2.79428 -1.05509 0
M  V30 8 C 1.45999 0.756158 0.811601 0
M  V30 9 S 2.29077 -0.685664 1.28895 0
M  V30 10 N 2.70076 -1.64488 -0.0488359 0
M  V30 11 O 1.63478 -1.46398 2.39566 0
M  V30 12 O 3.62522 -0.245403 1.90082 0
M  V30 13 C -0.913246 -0.00965154 0.913977 0
M  V30 14 H -3.1323 -2.2446 -0.336055 0
M  V30 15 H -2.6586 -1.7733 1.37895 0
M  V30 16 H -3.85739 -0.837249 0.465462 0
M  V30 17 H -2.3302 0.357234 -0.724372 0
M  V30 18 H -0.47361 -2.07463 -0.716838 0
M  V30 19 H -1.34237 -1.36179 -2.09848 0
M  V30 20 H -0.238362 0.621192 -2.04839 0
M  V30 21 H 1.08789 -0.44914 -1.61722 0
M  V30 22 H -0.21481 2.63002 0.850868 0
M  V30 23 H -1.36469 2.12422 -0.404201 0
M  V30 24 H 1.17809 2.08504 -1.49949 0
M  V30 25 H -0.0766184 3.20765 -1.78302 0
M  V30 26 H 2.18222 1.40827 0.24303 0
M  V30 27 H 1.25099 1.37021 1.73986 0
M  V30 28 H 2.62063 -2.67052 0.114081 0
M  V30 29 H 3.5252 -1.35198 -0.573857 0
M  V30 30 H -0.516046 -0.90081 1.39574 0
M  V30 31 H -1.37736 0.702767 1.60947 0
M  V30 END ATOM
M  V30 BEGIN BOND
M  V30 1 1 1 2
M  V30 2 1 2 3
M  V30 3 1 3 4
M  V30 4 1 4 5
M  V30 5 1 5 6 CFG=3
M  V30 6 1 6 7
M  V30 7 1 5 8
M  V30 8 1 8 9
M  V30 9 1 9 10
M  V30 10 2 9 11
M  V30 11 2 9 12
M  V30 12 1 5 13
M  V30 13 1 13 2
M  V30 14 1 1 14
M  V30 15 1 1 15
M  V30 16 1 1 16
M  V30 17 1 2 17 CFG=3
M  V30 18 1 3 18
M  V30 19 1 3 19
M  V30 20 1 4 20
M  V30 21 1 4 21
M  V30 22 1 6 22
M  V30 23 1 6 23
M  V30 24 1 7 24
M  V30 25 1 7 25
M  V30 26 1 8 26
M  V30 27 1 8 27
M  V30 28 1 10 28
M  V30 29 1 10 29
M  V30 30 1 13 30
M  V30 31 1 13 31
M  V30 END BOND
M  V30 END CTAB
M  END
