
     RDKit          3D

  0  0  0  0  0  0  0  0  0  0999 V3000
M  V30 BEGIN CTAB
M  V30 COUNTS 30 30 0 0 0
M  V30 BEGIN ATOM
M  V30 1 N -3.76464 -0.808621 -0.012166 0
M  V30 2 C -2.83686 0.313589 -0.0842714 0
M  V30 3 C -1.55891 -0.0729054 0.636566 0 CFG=1
M  V30 4 C -0.966906 -1.28191 -0.034824 0
M  V30 5 C -0.251398 -0.932366 -1.319 0
M  V30 6 C 1.024 -0.18294 -1.10522 0
M  V30 7 N 1.47158 -0.161476 0.247434 0
M  V30 8 C 0.730751 0.633014 1.1463 0
M  V30 9 C -0.604525 1.09716 0.667032 0
M  V30 10 S 3.1315 0.36979 0.265616 0
M  V30 11 O 3.19933 1.73032 -0.393874 0
M  V30 12 O 3.58532 0.471917 1.67802 0
M  V30 13 N 4.11922 -0.717705 -0.608916 0
M  V30 14 H -4.7333 -0.472601 -0.204915 0
M  V30 15 H -3.74169 -1.177 0.962314 0
M  V30 16 H -2.65614 0.584062 -1.12627 0
M  V30 17 H -3.34127 1.16416 0.407244 0
M  V30 18 H -1.81477 -0.364545 1.6763 0
M  V30 19 H -0.308793 -1.82741 0.652278 0
M  V30 20 H -1.80934 -1.95345 -0.3036 0
M  V30 21 H -0.954131 -0.368602 -1.96595 0
M  V30 22 H -0.0555865 -1.89959 -1.84165 0
M  V30 23 H 0.907904 0.834519 -1.55242 0
M  V30 24 H 1.84611 -0.66016 -1.7166 0
M  V30 25 H 0.550639 0.0307217 2.08126 0
M  V30 26 H 1.29554 1.53552 1.50677 0
M  V30 27 H -1.00455 1.79473 1.46229 0
M  V30 28 H -0.583188 1.67821 -0.255803 0
M  V30 29 H 4.02976 -1.68927 -0.279161 0
M  V30 30 H 5.09434 -0.368046 -0.584788 0
M  V30 END ATOM
M  V30 BEGIN BOND
M  V30 1 1 1 2
M  V30 2 1 2 3
M  V30 3 1 3 4
M  V30 4 1 4 5
M  V30 5 1 5 6
M  V30 6 1 6 7
M  V30 7 1 7 8
M  V30 8 1 8 9
M  V30 9 1 7 10
M  V30 10 2 10 11
M  V30 11 2 10 12
M  V30 12 1 10 13
M  V30 13 1 9 3
M  V30 14 1 1 14
M  V30 15 1 1 15
M  V30 16 1 2 16
M  V30 17 1 2 17
M  V30 18 1 3 18 CFG=1
M  V30 19 1 4 19
M  V30 20 1 4 20
M  V30 21 1 5 21
M  V30 22 1 5 22
M  V30 23 1 6 23
M  V30 24 1 6 24
M  V30 25 1 8 25
M  V30 26 1 8 26
M  V30 27 1 9 27
M  V30 28 1 9 28
M  V30 29 1 13 29
M  V30 30 1 13 30
M  V30 END BOND
M  V30 END CTAB
M  END
