
     RDKit          3D

  0  0  0  0  0  0  0  0  0  0999 V3000
M  V30 BEGIN CTAB
M  V30 COUNTS 66 71 0 0 0
M  V30 BEGIN ATOM
M  V30 1 C 9.65885 -1.08484 3.81577 0
M  V30 2 C 9.06173 -0.88699 2.47193 0
M  V30 3 C 9.79216 -0.85672 1.30857 0
M  V30 4 C 9.27045 -0.675545 0.0474535 0
M  V30 5 C 10.1801 -0.664182 -1.13608 0
M  V30 6 C 7.87335 -0.504442 -0.0884461 0
M  V30 7 C 7.16519 -0.537526 1.07896 0
M  V30 8 N 7.73699 -0.722065 2.31531 0
M  V30 9 S 5.55713 -0.305203 0.560798 0
M  V30 10 C 5.81866 -0.172266 -1.11341 0
M  V30 11 C 7.17112 -0.314154 -1.2304 0
M  V30 12 N 7.77956 -0.254967 -2.55807 0
M  V30 13 C 4.83965 0.0611218 -2.18123 0
M  V30 14 O 5.26592 0.167154 -3.37994 0
M  V30 15 C 3.42755 0.183847 -1.99451 0
M  V30 16 C 2.70795 0.988869 -2.87105 0
M  V30 17 C 1.35339 1.08663 -2.69651 0
M  V30 18 C 0.633182 0.444679 -1.71059 0
M  V30 19 C 1.35061 -0.351335 -0.845674 0
M  V30 20 C 2.73793 -0.470597 -1.00023 0
M  V30 21 C -0.81529 0.608222 -1.59843 0
M  V30 22 C -1.6647 -0.363269 -1.13125 0
M  V30 23 C -3.05554 -0.141497 -1.05181 0
M  V30 24 C -3.62546 1.03744 -1.42955 0
M  V30 25 C -2.74617 2.02333 -1.90603 0
M  V30 26 C -1.39604 1.79653 -1.97958 0
M  V30 27 C -5.03532 1.32216 -1.34117 0
M  V30 28 O -5.59556 2.1427 -2.13699 0
M  V30 29 C -5.88364 0.690863 -0.337554 0
M  V30 30 S -5.48132 -0.374944 0.943273 0
M  V30 31 C -7.01675 -0.586846 1.64807 0
M  V30 32 C -7.82078 0.186078 0.861914 0
M  V30 33 C -7.2405 0.845532 -0.162093 0
M  V30 34 N -7.96582 1.708 -1.09288 0
M  V30 35 C -9.1864 0.19565 1.23072 0
M  V30 36 C -10.1964 0.992104 0.477697 0
M  V30 37 C -9.59532 -0.543841 2.31177 0
M  V30 38 C -8.75808 -1.31517 3.08645 0
M  V30 39 N -7.47221 -1.31258 2.72396 0
M  V30 40 C -9.20496 -2.11277 4.25343 0
M  V30 41 H 10.692 -0.645248 3.85102 0
M  V30 42 H 9.08307 -0.559317 4.59618 0
M  V30 43 H 9.7754 -2.1581 3.99004 0
M  V30 44 H 10.8705 -0.98857 1.41098 0
M  V30 45 H 9.95745 -1.45305 -1.85581 0
M  V30 46 H 11.2186 -0.768715 -0.773379 0
M  V30 47 H 10.0879 0.365973 -1.581 0
M  V30 48 H 8.07366 0.637589 -2.98109 0
M  V30 49 H 7.91707 -1.14106 -3.08529 0
M  V30 50 H 3.23027 1.52896 -3.68064 0
M  V30 51 H 0.801616 1.72885 -3.40163 0
M  V30 52 H 0.839862 -0.875828 -0.0577745 0
M  V30 53 H 3.20784 -1.12448 -0.282532 0
M  V30 54 H -1.24831 -1.30321 -0.824271 0
M  V30 55 H -3.66346 -0.965189 -0.697232 0
M  V30 56 H -3.1943 2.95522 -2.20601 0
M  V30 57 H -0.719131 2.58182 -2.356 0
M  V30 58 H -8.42831 1.34191 -1.93048 0
M  V30 59 H -8.01678 2.7319 -0.90133 0
M  V30 60 H -9.93324 2.08971 0.530557 0
M  V30 61 H -10.2921 0.635227 -0.553999 0
M  V30 62 H -11.1703 0.915149 0.972929 0
M  V30 63 H -10.6461 -0.518453 2.57171 0
M  V30 64 H -10.1193 -1.60981 4.65424 0
M  V30 65 H -9.53907 -3.10816 3.84472 0
M  V30 66 H -8.41005 -2.22226 5.0172 0
M  V30 END ATOM
M  V30 BEGIN BOND
M  V30 1 1 1 2
M  V30 2 2 2 3
M  V30 3 1 3 4
M  V30 4 1 4 5
M  V30 5 2 4 6
M  V30 6 1 6 7
M  V30 7 2 7 8
M  V30 8 1 7 9
M  V30 9 1 9 10
M  V30 10 2 10 11
M  V30 11 1 11 12
M  V30 12 1 10 13
M  V30 13 2 13 14
M  V30 14 1 13 15
M  V30 15 2 15 16
M  V30 16 1 16 17
M  V30 17 2 17 18
M  V30 18 1 18 19
M  V30 19 2 19 20
M  V30 20 1 18 21
M  V30 21 2 21 22
M  V30 22 1 22 23
M  V30 23 2 23 24
M  V30 24 1 24 25
M  V30 25 2 25 26
M  V30 26 1 24 27
M  V30 27 2 27 28
M  V30 28 1 27 29
M  V30 29 1 29 30
M  V30 30 1 30 31
M  V30 31 2 31 32
M  V30 32 1 32 33
M  V30 33 1 33 34
M  V30 34 1 32 35
M  V30 35 1 35 36
M  V30 36 2 35 37
M  V30 37 1 37 38
M  V30 38 2 38 39
M  V30 39 1 38 40
M  V30 40 1 8 2
M  V30 41 1 20 15
M  V30 42 1 26 21
M  V30 43 2 33 29
M  V30 44 1 11 6
M  V30 45 1 39 31
M  V30 46 1 1 41
M  V30 47 1 1 42
M  V30 48 1 1 43
M  V30 49 1 3 44
M  V30 50 1 5 45
M  V30 51 1 5 46
M  V30 52 1 5 47
M  V30 53 1 12 48
M  V30 54 1 12 49
M  V30 55 1 16 50
M  V30 56 1 17 51
M  V30 57 1 19 52
M  V30 58 1 20 53
M  V30 59 1 22 54
M  V30 60 1 23 55
M  V30 61 1 25 56
M  V30 62 1 26 57
M  V30 63 1 34 58
M  V30 64 1 34 59
M  V30 65 1 36 60
M  V30 66 1 36 61
M  V30 67 1 36 62
M  V30 68 1 37 63
M  V30 69 1 40 64
M  V30 70 1 40 65
M  V30 71 1 40 66
M  V30 END BOND
M  V30 END CTAB
M  END
