
     RDKit          3D

  0  0  0  0  0  0  0  0  0  0999 V3000
M  V30 BEGIN CTAB
M  V30 COUNTS 51 54 0 0 0
M  V30 BEGIN ATOM
M  V30 1 C 7.3932 0.533144 -1.47644 0
M  V30 2 O 7.55406 0.345294 -0.0854093 0
M  V30 3 C 6.47008 0.0692322 0.723346 0
M  V30 4 C 6.71658 -0.102052 2.08072 0
M  V30 5 C 5.65974 -0.374156 2.89403 0
M  V30 6 C 4.38682 -0.474543 2.37625 0
M  V30 7 C 4.10741 -0.309591 1.02783 0
M  V30 8 C 5.19452 -0.0322248 0.207332 0
M  V30 9 N 2.79638 -0.411468 0.494078 0
M  V30 10 C 1.90124 0.715671 0.621488 0
M  V30 11 C 0.487682 0.219639 0.891621 0
M  V30 12 N 0.0279193 -0.668204 -0.141616 0
M  V30 13 C 0.936291 -1.57329 -0.787744 0
M  V30 14 C 2.28615 -1.5574 -0.171343 0
M  V30 15 O 2.98591 -2.58869 -0.246022 0
M  V30 16 C -1.33184 -0.659442 -0.523608 0
M  V30 17 C -2.32868 0.0647042 0.0932509 0
M  V30 18 C -3.64741 0.0260626 -0.348334 0
M  V30 19 N -3.91866 -0.747896 -1.40492 0
M  V30 20 C -2.98054 -1.47338 -2.04053 0
M  V30 21 N -1.72229 -1.40825 -1.58415 0
M  V30 22 N -3.28056 -2.29432 -3.16402 0
M  V30 23 C -4.63346 0.839905 0.384574 0 CFG=2
M  V30 24 C -5.98076 0.168485 0.623214 0
M  V30 25 C -6.60585 1.55272 0.41092 0 CFG=1
M  V30 26 C -5.41089 1.81782 -0.51417 0
M  V30 27 N -7.8718 1.52745 -0.280634 0
M  V30 28 H 6.72035 -0.231785 -1.92775 0
M  V30 29 H 7.00909 1.54469 -1.71283 0
M  V30 30 H 8.36459 0.443116 -2.01703 0
M  V30 31 H 7.69768 -0.0290838 2.50882 0
M  V30 32 H 5.82652 -0.510121 3.94577 0
M  V30 33 H 3.5425 -0.689172 3.01681 0
M  V30 34 H 5.01519 0.103861 -0.857961 0
M  V30 35 H 2.19957 1.38459 1.43964 0
M  V30 36 H 1.88599 1.23212 -0.370503 0
M  V30 37 H -0.132376 1.13129 0.973377 0
M  V30 38 H 0.52492 -0.300694 1.8947 0
M  V30 39 H 1.00925 -1.29495 -1.86295 0
M  V30 40 H 0.552791 -2.63276 -0.737907 0
M  V30 41 H -2.06477 0.670971 0.942002 0
M  V30 42 H -3.33427 -3.34106 -2.97766 0
M  V30 43 H -3.44576 -1.96065 -4.11826 0
M  V30 44 H -4.26379 1.37604 1.2583 0
M  V30 45 H -6.28651 -0.470838 -0.242949 0
M  V30 46 H -6.12973 -0.276967 1.60343 0
M  V30 47 H -6.55634 2.16636 1.33265 0
M  V30 48 H -5.01054 2.83637 -0.447501 0
M  V30 49 H -5.63677 1.42468 -1.5132 0
M  V30 50 H -8.597 1.26493 0.416144 0
M  V30 51 H -8.08183 2.49482 -0.604857 0
M  V30 END ATOM
M  V30 BEGIN BOND
M  V30 1 1 1 2
M  V30 2 1 2 3
M  V30 3 2 3 4
M  V30 4 1 4 5
M  V30 5 2 5 6
M  V30 6 1 6 7
M  V30 7 2 7 8
M  V30 8 1 7 9
M  V30 9 1 9 10
M  V30 10 1 10 11
M  V30 11 1 11 12
M  V30 12 1 12 13
M  V30 13 1 13 14
M  V30 14 2 14 15
M  V30 15 1 12 16
M  V30 16 2 16 17
M  V30 17 1 17 18
M  V30 18 2 18 19
M  V30 19 1 19 20
M  V30 20 2 20 21
M  V30 21 1 20 22
M  V30 22 1 18 23
M  V30 23 1 23 24
M  V30 24 1 24 25
M  V30 25 1 25 26
M  V30 26 1 25 27
M  V30 27 1 8 3
M  V30 28 1 14 9
M  V30 29 1 21 16
M  V30 30 1 26 23
M  V30 31 1 1 28
M  V30 32 1 1 29
M  V30 33 1 1 30
M  V30 34 1 4 31
M  V30 35 1 5 32
M  V30 36 1 6 33
M  V30 37 1 8 34
M  V30 38 1 10 35
M  V30 39 1 10 36
M  V30 40 1 11 37
M  V30 41 1 11 38
M  V30 42 1 13 39
M  V30 43 1 13 40
M  V30 44 1 17 41
M  V30 45 1 22 42
M  V30 46 1 22 43
M  V30 47 1 23 44 CFG=1
M  V30 48 1 24 45
M  V30 49 1 24 46
M  V30 50 1 25 47 CFG=1
M  V30 51 1 26 48
M  V30 52 1 26 49
M  V30 53 1 27 50
M  V30 54 1 27 51
M  V30 END BOND
M  V30 END CTAB
M  END
