
     RDKit          3D

  0  0  0  0  0  0  0  0  0  0999 V3000
M  V30 BEGIN CTAB
M  V30 COUNTS 21 22 0 0 0
M  V30 BEGIN ATOM
M  V30 1 N 3.62509 0.140073 1.09139 0
M  V30 2 C 3.11227 -0.266631 -0.200644 0
M  V30 3 C 1.63618 -0.350848 -0.0993633 0
M  V30 4 O 0.91124 -1.39532 0.239403 0
M  V30 5 C -0.361905 -1.08485 0.216373 0
M  V30 6 C -0.42301 0.240858 -0.162414 0
M  V30 7 N 0.828867 0.705549 -0.36162 0
M  V30 8 C -1.66478 0.850934 -0.273406 0
M  V30 9 N -1.68751 2.21173 -0.664313 0
M  V30 10 C -2.84488 0.175194 -0.0171331 0
M  V30 11 C -2.76996 -1.1631 0.364556 0
M  V30 12 C -1.53399 -1.76695 0.474058 0
M  V30 13 H 2.97979 -0.196541 1.81393 0
M  V30 14 H 3.70887 1.17464 1.17689 0
M  V30 15 H 3.48052 -1.2935 -0.389126 0
M  V30 16 H 3.39142 0.428382 -1.00572 0
M  V30 17 H -2.37077 2.85871 -0.212959 0
M  V30 18 H -1.01337 2.51744 -1.39578 0
M  V30 19 H -3.78937 0.691784 -0.116695 0
M  V30 20 H -3.69811 -1.67154 0.559475 0
M  V30 21 H -1.51659 -2.80601 0.772514 0
M  V30 END ATOM
M  V30 BEGIN BOND
M  V30 1 1 1 2
M  V30 2 1 2 3
M  V30 3 1 3 4
M  V30 4 1 4 5
M  V30 5 2 5 6
M  V30 6 1 6 7
M  V30 7 1 6 8
M  V30 8 1 8 9
M  V30 9 2 8 10
M  V30 10 1 10 11
M  V30 11 2 11 12
M  V30 12 2 7 3
M  V30 13 1 12 5
M  V30 14 1 1 13
M  V30 15 1 1 14
M  V30 16 1 2 15
M  V30 17 1 2 16
M  V30 18 1 9 17
M  V30 19 1 9 18
M  V30 20 1 10 19
M  V30 21 1 11 20
M  V30 22 1 12 21
M  V30 END BOND
M  V30 END CTAB
M  END
