
     RDKit          3D

  0  0  0  0  0  0  0  0  0  0999 V3000
M  V30 BEGIN CTAB
M  V30 COUNTS 16 16 0 0 0
M  V30 BEGIN ATOM
M  V30 1 C 2.72005 0.114754 0.00860898 0
M  V30 2 N 1.25969 0.0783782 -0.00137322 0
M  V30 3 N 0.489087 1.14569 -0.141904 0
M  V30 4 C -0.827125 0.784751 -0.110025 0
M  V30 5 C -0.829899 -0.564209 0.0578983 0
M  V30 6 C 0.469879 -1.01903 0.127425 0
M  V30 7 N -1.99496 -1.37356 0.147095 0
M  V30 8 N -1.91408 1.69389 -0.233976 0
M  V30 9 H 3.09077 1.05267 0.516489 0
M  V30 10 H 3.13807 0.168894 -1.01855 0
M  V30 11 H 3.11273 -0.749806 0.561407 0
M  V30 12 H 0.816912 -2.03521 0.257383 0
M  V30 13 H -2.5296 -1.6776 -0.711111 0
M  V30 14 H -2.33738 -1.68095 1.10123 0
M  V30 15 H -1.77578 2.71904 -0.336196 0
M  V30 16 H -2.88837 1.34229 -0.224405 0
M  V30 END ATOM
M  V30 BEGIN BOND
M  V30 1 1 1 2
M  V30 2 1 2 3
M  V30 3 2 3 4
M  V30 4 1 4 5
M  V30 5 2 5 6
M  V30 6 1 5 7
M  V30 7 1 4 8
M  V30 8 1 6 2
M  V30 9 1 1 9
M  V30 10 1 1 10
M  V30 11 1 1 11
M  V30 12 1 6 12
M  V30 13 1 7 13
M  V30 14 1 7 14
M  V30 15 1 8 15
M  V30 16 1 8 16
M  V30 END BOND
M  V30 END CTAB
M  END
