
     RDKit          3D

  0  0  0  0  0  0  0  0  0  0999 V3000
M  V30 BEGIN CTAB
M  V30 COUNTS 35 36 0 0 0
M  V30 BEGIN ATOM
M  V30 1 N -3.69367 2.20791 1.53901 0
M  V30 2 C -3.52398 0.795527 1.62184 0
M  V30 3 S -4.62856 -0.0491555 2.46228 0
M  V30 4 C -2.37943 0.186041 0.955054 0
M  V30 5 C -1.07198 0.123978 1.38817 0
M  V30 6 N -0.302826 -0.530625 0.478435 0
M  V30 7 C 1.09713 -0.82152 0.51932 0
M  V30 8 O 1.88354 0.169085 -0.0512208 0
M  V30 9 C 3.20744 -0.17907 0.0249903 0
M  V30 10 C 3.8805 -0.238958 -1.32962 0
M  V30 11 O 3.78969 1.01021 -1.90869 0
M  V30 12 C 3.99879 0.846243 0.847856 0
M  V30 13 O 5.32552 0.495465 0.923049 0
M  V30 14 C -1.12106 -0.883147 -0.529976 0
M  V30 15 C -2.4194 -0.453568 -0.266831 0
M  V30 16 C -3.44971 -0.694535 -1.15428 0
M  V30 17 N -4.73563 -0.221413 -0.80386 0
M  V30 18 N -3.17559 -1.35925 -2.29132 0
M  V30 19 C -1.92619 -1.78539 -2.56858 0
M  V30 20 N -0.939554 -1.53924 -1.68974 0
M  V30 21 H -4.28807 2.55281 0.749188 0
M  V30 22 H -3.27029 2.87223 2.20035 0
M  V30 23 H -0.67412 0.518636 2.29912 0
M  V30 24 H 1.27527 -1.76916 -0.025194 0
M  V30 25 H 1.37503 -0.92193 1.60403 0
M  V30 26 H 3.36844 -1.15717 0.515482 0
M  V30 27 H 3.47022 -1.04637 -1.96709 0
M  V30 28 H 4.94809 -0.471678 -1.15996 0
M  V30 29 H 3.0003 1.52492 -1.56375 0
M  V30 30 H 3.51761 1.00465 1.84133 0
M  V30 31 H 3.95562 1.85338 0.344295 0
M  V30 32 H 5.69859 0.439785 1.81872 0
M  V30 33 H -5.45538 -0.92397 -0.527994 0
M  V30 34 H -5.035 0.774781 -0.795312 0
M  V30 35 H -1.70133 -2.32949 -3.49911 0
M  V30 END ATOM
M  V30 BEGIN BOND
M  V30 1 1 1 2
M  V30 2 2 2 3
M  V30 3 1 2 4
M  V30 4 2 4 5
M  V30 5 1 5 6
M  V30 6 1 6 7
M  V30 7 1 7 8
M  V30 8 1 8 9
M  V30 9 1 9 10
M  V30 10 1 10 11
M  V30 11 1 9 12
M  V30 12 1 12 13
M  V30 13 1 6 14
M  V30 14 2 14 15
M  V30 15 1 15 16
M  V30 16 1 16 17
M  V30 17 2 16 18
M  V30 18 1 18 19
M  V30 19 2 19 20
M  V30 20 1 15 4
M  V30 21 1 20 14
M  V30 22 1 1 21
M  V30 23 1 1 22
M  V30 24 1 5 23
M  V30 25 1 7 24
M  V30 26 1 7 25
M  V30 27 1 9 26
M  V30 28 1 10 27
M  V30 29 1 10 28
M  V30 30 1 11 29
M  V30 31 1 12 30
M  V30 32 1 12 31
M  V30 33 1 13 32
M  V30 34 1 17 33
M  V30 35 1 17 34
M  V30 36 1 19 35
M  V30 END BOND
M  V30 END CTAB
M  END
