
     RDKit          3D

  0  0  0  0  0  0  0  0  0  0999 V3000
M  V30 BEGIN CTAB
M  V30 COUNTS 42 43 0 0 0
M  V30 BEGIN ATOM
M  V30 1 C -5.21268 2.45041 -0.860152 0
M  V30 2 C -5.57257 1.12218 -0.282336 0
M  V30 3 O -4.67457 0.091116 -0.53075 0
M  V30 4 C -3.36045 0.0334801 -0.153853 0
M  V30 5 C -2.75216 1.03102 0.552066 0
M  V30 6 C -1.38774 0.98652 0.951921 0
M  V30 7 N -0.933887 2.10503 1.67502 0 CHG=1
M  V30 8 O -1.76321 2.6971 2.44371 0
M  V30 9 O 0.30363 2.59992 1.63678 0 CHG=-1
M  V30 10 C -0.690998 -0.124455 0.595122 0
M  V30 11 C -1.33692 -1.14345 -0.136032 0
M  V30 12 C -2.64437 -1.10044 -0.520769 0
M  V30 13 O -3.2495 -2.12486 -1.24269 0
M  V30 14 C -2.44998 -3.24514 -1.57917 0
M  V30 15 C 0.674629 -0.348501 1.01642 0
M  V30 16 O 1.24989 -1.42701 0.569831 0
M  V30 17 O 1.48222 0.38793 1.82281 0
M  V30 18 C 2.78123 0.0230347 2.13435 0
M  V30 19 C 3.72352 -0.09257 1.01229 0
M  V30 20 N 4.90511 -0.694843 1.22244 0
M  V30 21 C 5.83286 -0.837369 0.242046 0
M  V30 22 N 7.04456 -1.48503 0.564168 0
M  V30 23 N 5.54571 -0.349729 -0.994225 0
M  V30 24 C 4.35962 0.26194 -1.22706 0
M  V30 25 N 3.46231 0.38043 -0.20979 0
M  V30 26 N 4.09866 0.755789 -2.52877 0
M  V30 27 H -5.215 3.26891 -0.0954921 0
M  V30 28 H -5.96769 2.75976 -1.61089 0
M  V30 29 H -4.20432 2.40342 -1.30732 0
M  V30 30 H -5.70515 1.25511 0.815722 0
M  V30 31 H -6.58257 0.8109 -0.661041 0
M  V30 32 H -3.28285 1.93865 0.860294 0
M  V30 33 H -0.770577 -2.02514 -0.417423 0
M  V30 34 H -1.63172 -2.9151 -2.28211 0
M  V30 35 H -1.99524 -3.69816 -0.654101 0
M  V30 36 H -3.06277 -4.05662 -2.03126 0
M  V30 37 H 2.83756 -0.910939 2.74725 0
M  V30 38 H 3.18083 0.823377 2.82873 0
M  V30 39 H 7.03695 -2.50295 0.774873 0
M  V30 40 H 7.94279 -0.957598 0.592068 0
M  V30 41 H 3.41538 0.253258 -3.12323 0
M  V30 42 H 4.56946 1.60065 -2.90662 0
M  V30 END ATOM
M  V30 BEGIN BOND
M  V30 1 1 1 2
M  V30 2 1 2 3
M  V30 3 1 3 4
M  V30 4 2 4 5
M  V30 5 1 5 6
M  V30 6 1 6 7
M  V30 7 2 7 8
M  V30 8 1 7 9
M  V30 9 2 6 10
M  V30 10 1 10 11
M  V30 11 2 11 12
M  V30 12 1 12 13
M  V30 13 1 13 14
M  V30 14 1 10 15
M  V30 15 2 15 16
M  V30 16 1 15 17
M  V30 17 1 17 18
M  V30 18 1 18 19
M  V30 19 2 19 20
M  V30 20 1 20 21
M  V30 21 1 21 22
M  V30 22 2 21 23
M  V30 23 1 23 24
M  V30 24 2 24 25
M  V30 25 1 24 26
M  V30 26 1 12 4
M  V30 27 1 25 19
M  V30 28 1 1 27
M  V30 29 1 1 28
M  V30 30 1 1 29
M  V30 31 1 2 30
M  V30 32 1 2 31
M  V30 33 1 5 32
M  V30 34 1 11 33
M  V30 35 1 14 34
M  V30 36 1 14 35
M  V30 37 1 14 36
M  V30 38 1 18 37
M  V30 39 1 18 38
M  V30 40 1 22 39
M  V30 41 1 22 40
M  V30 42 1 26 41
M  V30 43 1 26 42
M  V30 END BOND
M  V30 END CTAB
M  END
