
     RDKit          3D

  0  0  0  0  0  0  0  0  0  0999 V3000
M  V30 BEGIN CTAB
M  V30 COUNTS 43 44 0 0 0
M  V30 BEGIN ATOM
M  V30 1 C -2.71021 2.66384 2.5017 0
M  V30 2 O -2.09721 1.57632 1.90858 0
M  V30 3 C -2.6449 0.929815 0.824039 0
M  V30 4 C -3.85578 1.43411 0.355766 0
M  V30 5 C -4.46715 0.831804 -0.735175 0
M  V30 6 C -3.89873 -0.252772 -1.36091 0
M  V30 7 C -2.71137 -0.702745 -0.857235 0
M  V30 8 C -2.04343 -0.146926 0.232537 0
M  V30 9 C -0.793875 -0.699753 0.676176 0
M  V30 10 O -0.343497 -1.72312 0.0172149 0
M  V30 11 N 0.0367632 -0.301882 1.73151 0
M  V30 12 C 1.29575 -0.990767 2.0447 0
M  V30 13 C 2.38434 -0.627724 1.11477 0
M  V30 14 C 2.85008 -1.47344 0.135515 0
M  V30 15 C 3.86336 -1.10746 -0.72221 0
M  V30 16 C 4.4632 0.130652 -0.640225 0
M  V30 17 C 4.00638 0.990982 0.338435 0
M  V30 18 C 2.99333 0.627139 1.19675 0
M  V30 19 S 5.7528 0.577421 -1.74426 0
M  V30 20 O 5.79306 2.06346 -1.95657 0
M  V30 21 O 5.58932 -0.106628 -3.07045 0
M  V30 22 N 7.25121 0.0896492 -1.04343 0
M  V30 23 S -4.6666 -1.00783 -2.7329 0
M  V30 24 O -5.39387 -0.0194054 -3.5852 0
M  V30 25 O -3.54802 -1.57133 -3.58904 0
M  V30 26 N -5.75937 -2.24342 -2.26892 0
M  V30 27 H -2.82701 3.49378 1.7643 0
M  V30 28 H -2.10967 3.08393 3.33209 0
M  V30 29 H -3.73593 2.46459 2.88406 0
M  V30 30 H -4.30049 2.29102 0.853522 0
M  V30 31 H -5.40318 1.20451 -1.11371 0
M  V30 32 H -2.24543 -1.56144 -1.33933 0
M  V30 33 H -0.187324 0.499391 2.3481 0
M  V30 34 H 1.06543 -2.06802 1.89404 0
M  V30 35 H 1.53939 -0.799057 3.08546 0
M  V30 36 H 2.4288 -2.46448 0.015045 0
M  V30 37 H 4.21337 -1.78983 -1.48553 0
M  V30 38 H 4.45063 1.96573 0.432433 0
M  V30 39 H 2.61034 1.28105 1.97878 0
M  V30 40 H 7.15032 -0.25342 -0.06584 0
M  V30 41 H 7.65227 -0.719136 -1.59317 0
M  V30 42 H -6.43578 -2.4478 -3.03738 0
M  V30 43 H -5.21133 -3.12082 -2.12632 0
M  V30 END ATOM
M  V30 BEGIN BOND
M  V30 1 1 1 2
M  V30 2 1 2 3
M  V30 3 2 3 4
M  V30 4 1 4 5
M  V30 5 2 5 6
M  V30 6 1 6 7
M  V30 7 2 7 8
M  V30 8 1 8 9
M  V30 9 2 9 10
M  V30 10 1 9 11
M  V30 11 1 11 12
M  V30 12 1 12 13
M  V30 13 2 13 14
M  V30 14 1 14 15
M  V30 15 2 15 16
M  V30 16 1 16 17
M  V30 17 2 17 18
M  V30 18 1 16 19
M  V30 19 2 19 20
M  V30 20 2 19 21
M  V30 21 1 19 22
M  V30 22 1 6 23
M  V30 23 2 23 24
M  V30 24 2 23 25
M  V30 25 1 23 26
M  V30 26 1 8 3
M  V30 27 1 18 13
M  V30 28 1 1 27
M  V30 29 1 1 28
M  V30 30 1 1 29
M  V30 31 1 4 30
M  V30 32 1 5 31
M  V30 33 1 7 32
M  V30 34 1 11 33
M  V30 35 1 12 34
M  V30 36 1 12 35
M  V30 37 1 14 36
M  V30 38 1 15 37
M  V30 39 1 17 38
M  V30 40 1 18 39
M  V30 41 1 22 40
M  V30 42 1 22 41
M  V30 43 1 26 42
M  V30 44 1 26 43
M  V30 END BOND
M  V30 END CTAB
M  END
