
     RDKit          3D

  0  0  0  0  0  0  0  0  0  0999 V3000
M  V30 BEGIN CTAB
M  V30 COUNTS 56 58 0 0 0
M  V30 BEGIN ATOM
M  V30 1 N 9.30312 1.34004 0.123141 0
M  V30 2 C 9.39089 -0.0522956 0.285922 0
M  V30 3 N 10.5514 -0.592271 0.355799 0
M  V30 4 C 8.20011 -0.875981 0.384338 0
M  V30 5 C 8.29875 -2.21864 0.586473 0
M  V30 6 C 7.19107 -2.99686 0.668571 0
M  V30 7 C 5.94968 -2.43918 0.549031 0
M  V30 8 C 5.81267 -1.05523 0.338927 0
M  V30 9 N 4.50676 -0.548326 0.257117 0
M  V30 10 C 4.09412 0.627731 -0.502392 0
M  V30 11 O 5.07758 1.1656 -1.13417 0
M  V30 12 N 2.85127 1.00601 -0.473909 0
M  V30 13 C 1.50744 1.41615 -0.443926 0
M  V30 14 C 0.814711 2.13556 -1.37366 0
M  V30 15 C -0.525116 2.51357 -1.19978 0
M  V30 16 C -1.202 2.16654 -0.0642989 0
M  V30 17 C -0.510164 1.43398 0.885582 0
M  V30 18 C 0.782577 1.06359 0.729108 0
M  V30 19 S -2.81112 2.61552 0.307248 0
M  V30 20 O -3.04225 3.97539 -0.364393 0
M  V30 21 O -2.88432 2.91653 1.78922 0
M  V30 22 N -4.07108 1.60808 -0.111948 0
M  V30 23 C -4.13063 0.299644 0.438734 0
M  V30 24 C -5.38087 -0.343479 -0.0840549 0
M  V30 25 C -5.6122 -1.69833 -0.0723766 0
M  V30 26 C -6.84238 -2.2056 -0.513925 0
M  V30 27 C -7.83391 -1.37616 -0.964331 0
M  V30 28 C -7.59772 -0.00167918 -0.979164 0
M  V30 29 C -6.39002 0.493014 -0.544525 0
M  V30 30 S -9.39726 -1.97794 -1.47192 0
M  V30 31 N -10.5196 -1.80576 -0.161961 0
M  V30 32 O -9.30964 -3.46527 -1.73896 0
M  V30 33 O -9.94267 -1.242 -2.64809 0
M  V30 34 C 6.93943 -0.289158 0.260363 0
M  V30 35 H 9.99869 1.83945 -0.49573 0
M  V30 36 H 8.56684 1.88136 0.598993 0
M  V30 37 H 11.4279 -0.0284004 0.295516 0
M  V30 38 H 9.27696 -2.701 0.688045 0
M  V30 39 H 7.29573 -4.067 0.829241 0
M  V30 40 H 5.03696 -3.03291 0.610506 0
M  V30 41 H 3.74554 -1.0432 0.776878 0
M  V30 42 H 3.19232 2.15863 -1.14999 0
M  V30 43 H 1.32366 2.42367 -2.30573 0
M  V30 44 H -1.02714 3.08124 -1.95742 0
M  V30 45 H -1.00623 1.12793 1.80721 0
M  V30 46 H 1.34337 0.486945 1.46796 0
M  V30 47 H -4.35339 1.64309 -1.1262 0
M  V30 48 H -3.30548 -0.310368 -0.0326717 0
M  V30 49 H -4.09236 0.307937 1.52621 0
M  V30 50 H -4.82956 -2.38277 0.281426 0
M  V30 51 H -7.0203 -3.26241 -0.50491 0
M  V30 52 H -8.41054 0.618248 -1.34369 0
M  V30 53 H -6.28498 1.58552 -0.584847 0
M  V30 54 H -11.0974 -0.943244 -0.268709 0
M  V30 55 H -9.95306 -1.77574 0.718363 0
M  V30 56 H 6.90393 0.800278 0.120473 0
M  V30 END ATOM
M  V30 BEGIN BOND
M  V30 1 1 1 2
M  V30 2 2 2 3 CFG=2
M  V30 3 1 2 4
M  V30 4 2 4 5
M  V30 5 1 5 6
M  V30 6 2 6 7
M  V30 7 1 7 8
M  V30 8 1 8 9
M  V30 9 1 9 10
M  V30 10 2 10 11
M  V30 11 1 10 12
M  V30 12 1 12 13
M  V30 13 2 13 14
M  V30 14 1 14 15
M  V30 15 2 15 16
M  V30 16 1 16 17
M  V30 17 2 17 18
M  V30 18 1 16 19
M  V30 19 2 19 20
M  V30 20 2 19 21
M  V30 21 1 19 22
M  V30 22 1 22 23
M  V30 23 1 23 24
M  V30 24 2 24 25
M  V30 25 1 25 26
M  V30 26 2 26 27
M  V30 27 1 27 28
M  V30 28 2 28 29
M  V30 29 1 27 30
M  V30 30 1 30 31
M  V30 31 2 30 32
M  V30 32 2 30 33
M  V30 33 2 8 34
M  V30 34 1 34 4
M  V30 35 1 18 13
M  V30 36 1 29 24
M  V30 37 1 1 35
M  V30 38 1 1 36
M  V30 39 1 3 37
M  V30 40 1 5 38
M  V30 41 1 6 39
M  V30 42 1 7 40
M  V30 43 1 9 41
M  V30 44 1 12 42
M  V30 45 1 14 43
M  V30 46 1 15 44
M  V30 47 1 17 45
M  V30 48 1 18 46
M  V30 49 1 22 47
M  V30 50 1 23 48
M  V30 51 1 23 49
M  V30 52 1 25 50
M  V30 53 1 26 51
M  V30 54 1 28 52
M  V30 55 1 29 53
M  V30 56 1 31 54
M  V30 57 1 31 55
M  V30 58 1 34 56
M  V30 END BOND
M  V30 END CTAB
M  END
