
     RDKit          3D

  0  0  0  0  0  0  0  0  0  0999 V3000
M  V30 BEGIN CTAB
M  V30 COUNTS 36 37 0 0 0
M  V30 BEGIN ATOM
M  V30 1 N 6.34558 1.96194 0.53526 0
M  V30 2 C 5.30439 1.11672 0.065698 0
M  V30 3 N 4.05591 1.36734 0.269203 0
M  V30 4 N 3.13245 0.454364 -0.246309 0
M  V30 5 C 1.94731 0.29139 0.17733 0
M  V30 6 C 1.00974 -0.67723 -0.390922 0
M  V30 7 C 1.3641 -1.49 -1.44444 0
M  V30 8 C 0.464974 -2.39887 -1.96782 0
M  V30 9 C -0.814452 -2.53036 -1.46243 0
M  V30 10 C -1.16172 -1.71485 -0.409336 0
M  V30 11 C -0.280777 -0.803692 0.125258 0
M  V30 12 O -0.590193 0.0203831 1.16954 0
M  V30 13 C -1.77283 0.132898 1.87761 0
M  V30 14 C -2.95689 0.540782 1.09596 0
M  V30 15 C -4.21155 0.263554 1.59812 0
M  V30 16 C -5.36778 0.620571 0.933914 0
M  V30 17 C -5.27862 1.27229 -0.264655 0
M  V30 18 C -4.01682 1.55232 -0.771923 0
M  V30 19 C -2.86702 1.19798 -0.112683 0
M  V30 20 N 5.73598 -0.0450461 -0.656619 0
M  V30 21 H 6.67083 2.02635 1.52218 0
M  V30 22 H 6.82095 2.56588 -0.168148 0
M  V30 23 H 1.62099 0.905278 1.0027 0
M  V30 24 H 2.35618 -1.42851 -1.87969 0
M  V30 25 H 0.726185 -3.05304 -2.80378 0
M  V30 26 H -1.5269 -3.24892 -1.87543 0
M  V30 27 H -2.15912 -1.82809 -0.0167366 0
M  V30 28 H -1.62071 0.941133 2.65025 0
M  V30 29 H -2.03876 -0.768546 2.46903 0
M  V30 30 H -4.28603 -0.258687 2.55852 0
M  V30 31 H -6.34303 0.391181 1.34981 0
M  V30 32 H -6.18722 1.55325 -0.787352 0
M  V30 33 H -3.96988 2.07216 -1.72811 0
M  V30 34 H -1.90719 1.42338 -0.521372 0
M  V30 35 H 5.83126 -0.975491 -0.221944 0
M  V30 36 H 5.97067 0.0280276 -1.67068 0
M  V30 END ATOM
M  V30 BEGIN BOND
M  V30 1 1 1 2
M  V30 2 2 2 3
M  V30 3 1 3 4
M  V30 4 2 4 5
M  V30 5 1 5 6
M  V30 6 2 6 7
M  V30 7 1 7 8
M  V30 8 2 8 9
M  V30 9 1 9 10
M  V30 10 2 10 11
M  V30 11 1 11 12
M  V30 12 1 12 13
M  V30 13 1 13 14
M  V30 14 2 14 15
M  V30 15 1 15 16
M  V30 16 2 16 17
M  V30 17 1 17 18
M  V30 18 2 18 19
M  V30 19 1 2 20
M  V30 20 1 11 6
M  V30 21 1 19 14
M  V30 22 1 1 21
M  V30 23 1 1 22
M  V30 24 1 5 23
M  V30 25 1 7 24
M  V30 26 1 8 25
M  V30 27 1 9 26
M  V30 28 1 10 27
M  V30 29 1 13 28
M  V30 30 1 13 29
M  V30 31 1 15 30
M  V30 32 1 16 31
M  V30 33 1 17 32
M  V30 34 1 18 33
M  V30 35 1 19 34
M  V30 36 1 20 35
M  V30 37 1 20 36
M  V30 END BOND
M  V30 END CTAB
M  END
