
     RDKit          3D

  0  0  0  0  0  0  0  0  0  0999 V3000
M  V30 BEGIN CTAB
M  V30 COUNTS 23 23 0 0 0
M  V30 BEGIN ATOM
M  V30 1 N 3.40268 0.333061 0.210451 0
M  V30 2 N 2.08545 0.883937 0.078403 0
M  V30 3 C 1.14078 -0.207506 0.0852118 0
M  V30 4 C -0.256008 0.125564 0.0125326 0
M  V30 5 C -1.18883 -0.890298 -0.00627721 0
M  V30 6 C -0.733802 -2.2789 0.0367312 0
M  V30 7 C -2.55024 -0.636368 -0.0651006 0
M  V30 8 C -2.98122 0.681305 -0.106115 0
M  V30 9 N -2.07065 1.67277 -0.0875413 0
M  V30 10 C -0.729242 1.40015 -0.0289655 0
M  V30 11 N 0.160164 2.49537 -0.000723908 0
M  V30 12 H 3.53836 -0.354439 -0.557068 0
M  V30 13 H 3.56088 -0.0324262 1.15523 0
M  V30 14 H 2.15127 1.27481 -0.924017 0
M  V30 15 H 1.4309 -0.850189 0.944938 0
M  V30 16 H 1.42568 -0.846365 -0.809216 0
M  V30 17 H -1.28897 -2.77294 0.891032 0
M  V30 18 H -1.05943 -2.87896 -0.863148 0
M  V30 19 H 0.324415 -2.41646 0.255412 0
M  V30 20 H -3.30018 -1.39829 -0.0811136 0
M  V30 21 H -4.04592 0.886683 -0.152574 0
M  V30 22 H 0.41397 2.96411 -0.880613 0
M  V30 23 H 0.569951 2.84537 0.892534 0
M  V30 END ATOM
M  V30 BEGIN BOND
M  V30 1 1 1 2
M  V30 2 1 2 3
M  V30 3 1 3 4
M  V30 4 2 4 5
M  V30 5 1 5 6
M  V30 6 1 5 7
M  V30 7 2 7 8
M  V30 8 1 8 9
M  V30 9 2 9 10
M  V30 10 1 10 11
M  V30 11 1 10 4
M  V30 12 1 1 12
M  V30 13 1 1 13
M  V30 14 1 2 14
M  V30 15 1 3 15
M  V30 16 1 3 16
M  V30 17 1 6 17
M  V30 18 1 6 18
M  V30 19 1 6 19
M  V30 20 1 7 20
M  V30 21 1 8 21
M  V30 22 1 11 22
M  V30 23 1 11 23
M  V30 END BOND
M  V30 END CTAB
M  END
