
     RDKit          3D

  0  0  0  0  0  0  0  0  0  0999 V3000
M  V30 BEGIN CTAB
M  V30 COUNTS 21 21 0 0 0
M  V30 BEGIN ATOM
M  V30 1 C -3.02936 -0.935644 -0.357146 0
M  V30 2 C -2.09647 0.139711 0.0714169 0
M  V30 3 O -2.61419 1.20145 0.501376 0
M  V30 4 C -0.649628 -0.0228272 -0.000867651 0
M  V30 5 C 0.143527 1.02357 0.415471 0
M  V30 6 N -0.47273 2.19974 0.890211 0
M  V30 7 C 1.53897 0.907238 0.36251 0
M  V30 8 C 2.14065 -0.237251 -0.0994644 0
M  V30 9 N 3.5787 -0.325645 -0.141437 0
M  V30 10 C 1.33667 -1.2679 -0.509423 0
M  V30 11 C -0.0589662 -1.17775 -0.466961 0
M  V30 12 H -3.23465 -1.6596 0.467803 0
M  V30 13 H -3.95249 -0.464309 -0.735258 0
M  V30 14 H -2.59379 -1.51334 -1.22478 0
M  V30 15 H -0.663485 2.32595 1.89385 0
M  V30 16 H -0.729769 2.93305 0.214015 0
M  V30 17 H 2.119 1.76166 0.702779 0
M  V30 18 H 4.00236 -1.25789 -0.251322 0
M  V30 19 H 4.13101 0.556042 -0.0590343 0
M  V30 20 H 1.77314 -2.17123 -0.873881 0
M  V30 21 H -0.668501 -2.01503 -0.799858 0
M  V30 END ATOM
M  V30 BEGIN BOND
M  V30 1 1 1 2
M  V30 2 2 2 3
M  V30 3 1 2 4
M  V30 4 2 4 5
M  V30 5 1 5 6
M  V30 6 1 5 7
M  V30 7 2 7 8
M  V30 8 1 8 9
M  V30 9 1 8 10
M  V30 10 2 10 11
M  V30 11 1 11 4
M  V30 12 1 1 12
M  V30 13 1 1 13
M  V30 14 1 1 14
M  V30 15 1 6 15
M  V30 16 1 6 16
M  V30 17 1 7 17
M  V30 18 1 9 18
M  V30 19 1 9 19
M  V30 20 1 10 20
M  V30 21 1 11 21
M  V30 END BOND
M  V30 END CTAB
M  END
