
     RDKit          3D

  0  0  0  0  0  0  0  0  0  0999 V3000
M  V30 BEGIN CTAB
M  V30 COUNTS 35 37 0 0 0
M  V30 BEGIN ATOM
M  V30 1 C 3.96201 -1.93324 -0.361706 0
M  V30 2 C 2.81643 -1.00076 -0.196198 0
M  V30 3 C 3.05011 0.301658 -0.148511 0
M  V30 4 N 4.37586 0.751343 -0.256625 0
M  V30 5 C 1.92345 1.23836 0.0153266 0
M  V30 6 O 2.13637 2.47972 0.0617527 0
M  V30 7 C 0.552025 0.778757 0.127462 0
M  V30 8 C 0.313299 -0.576229 0.0774107 0
M  V30 9 N -1.00397 -0.741035 0.200223 0
M  V30 10 C -1.96326 -1.85179 0.236034 0
M  V30 11 C -3.19711 -1.16761 -0.315055 0 CFG=2
M  V30 12 N -3.01732 -0.843849 -1.68768 0
M  V30 13 C -3.12771 0.15677 0.46135 0 CFG=1
M  V30 14 O -3.45113 -0.0892189 1.77317 0
M  V30 15 C -1.65046 0.42783 0.328669 0
M  V30 16 C -0.682069 1.40518 0.285115 0
M  V30 17 C -0.873644 2.8671 0.384054 0
M  V30 18 O -2.23738 3.10879 0.533691 0
M  V30 19 C 1.45532 -1.49306 -0.0868774 0
M  V30 20 O 1.25293 -2.73243 -0.134252 0
M  V30 21 H 4.87206 -1.37887 -0.63194 0
M  V30 22 H 3.69592 -2.69475 -1.12275 0
M  V30 23 H 4.20425 -2.46166 0.601573 0
M  V30 24 H 4.715 1.09261 -1.19128 0
M  V30 25 H 5.07325 0.7808 0.51676 0
M  V30 26 H -2.10323 -2.15667 1.28566 0
M  V30 27 H -1.63619 -2.69593 -0.399359 0
M  V30 28 H -4.12567 -1.71449 -0.0809 0
M  V30 29 H -3.57198 -0.0572643 -2.04682 0
M  V30 30 H -2.08183 -0.964711 -2.07265 0
M  V30 31 H -3.72618 0.929366 -0.0301911 0
M  V30 32 H -2.63003 -0.421087 2.24055 0
M  V30 33 H -0.502779 3.36104 -0.557316 0
M  V30 34 H -0.371033 3.32138 1.25263 0
M  V30 35 H -2.44528 3.97395 0.938683 0
M  V30 END ATOM
M  V30 BEGIN BOND
M  V30 1 1 1 2
M  V30 2 2 2 3
M  V30 3 1 3 4
M  V30 4 1 3 5
M  V30 5 2 5 6
M  V30 6 1 5 7
M  V30 7 2 7 8
M  V30 8 1 8 9
M  V30 9 1 9 10
M  V30 10 1 10 11
M  V30 11 1 11 12
M  V30 12 1 11 13
M  V30 13 1 13 14
M  V30 14 1 13 15
M  V30 15 2 15 16
M  V30 16 1 16 17
M  V30 17 1 17 18
M  V30 18 1 8 19
M  V30 19 2 19 20
M  V30 20 1 19 2
M  V30 21 1 16 7
M  V30 22 1 15 9
M  V30 23 1 1 21
M  V30 24 1 1 22
M  V30 25 1 1 23
M  V30 26 1 4 24
M  V30 27 1 4 25
M  V30 28 1 10 26
M  V30 29 1 10 27
M  V30 30 1 11 28 CFG=3
M  V30 31 1 12 29
M  V30 32 1 12 30
M  V30 33 1 13 31 CFG=3
M  V30 34 1 14 32
M  V30 35 1 17 33
M  V30 36 1 17 34
M  V30 37 1 18 35
M  V30 END BOND
M  V30 END CTAB
M  END
