
     RDKit          3D

  0  0  0  0  0  0  0  0  0  0999 V3000
M  V30 BEGIN CTAB
M  V30 COUNTS 35 36 0 0 0
M  V30 BEGIN ATOM
M  V30 1 C -0.0112473 1.34508 -0.696312 0
M  V30 2 C -0.0850577 0.746068 0.685409 0
M  V30 3 C -1.41339 0.784848 1.29672 0
M  V30 4 O -1.54547 1.44839 2.38428 0
M  V30 5 N -2.55226 0.148316 0.778579 0
M  V30 6 C -3.84187 0.254527 1.47679 0
M  V30 7 C -4.89504 -0.20898 0.498237 0
M  V30 8 O -4.76601 0.365741 -0.75223 0
M  V30 9 C -3.58688 0.0309434 -1.37858 0
M  V30 10 C -2.59177 -0.641801 -0.426744 0
M  V30 11 S 0.623169 -0.949259 0.689786 0
M  V30 12 C 2.3941 -0.813443 0.354285 0
M  V30 13 N 2.96188 0.395485 0.153791 0
M  V30 14 C 4.27735 0.562265 -0.0997747 0
M  V30 15 N 4.85134 1.84043 -0.307452 0
M  V30 16 N 5.04875 -0.532745 -0.152812 0
M  V30 17 C 4.52151 -1.74409 0.0403497 0
M  V30 18 N 3.18732 -1.88447 0.295035 0
M  V30 19 N 5.39354 -2.85883 -0.0291714 0
M  V30 20 H -0.981982 1.80564 -0.969519 0
M  V30 21 H 0.741404 2.15421 -0.789274 0
M  V30 22 H 0.289381 0.56165 -1.44604 0
M  V30 23 H 0.653297 1.33236 1.29893 0
M  V30 24 H -3.87313 -0.389208 2.36228 0
M  V30 25 H -4.02886 1.33027 1.70709 0
M  V30 26 H -5.8925 0.127232 0.899834 0
M  V30 27 H -4.96189 -1.30672 0.428311 0
M  V30 28 H -3.10171 0.972234 -1.70969 0
M  V30 29 H -3.75117 -0.590133 -2.28639 0
M  V30 30 H -3.0216 -1.63889 -0.119716 0
M  V30 31 H -1.64564 -0.75663 -0.945454 0
M  V30 32 H 4.48314 2.48502 -1.03889 0
M  V30 33 H 5.65485 2.17361 0.261492 0
M  V30 34 H 6.298 -2.85935 0.522763 0
M  V30 35 H 5.16844 -3.68978 -0.613778 0
M  V30 END ATOM
M  V30 BEGIN BOND
M  V30 1 1 1 2
M  V30 2 1 2 3
M  V30 3 2 3 4
M  V30 4 1 3 5
M  V30 5 1 5 6
M  V30 6 1 6 7
M  V30 7 1 7 8
M  V30 8 1 8 9
M  V30 9 1 9 10
M  V30 10 1 2 11
M  V30 11 1 11 12
M  V30 12 2 12 13
M  V30 13 1 13 14
M  V30 14 1 14 15
M  V30 15 2 14 16
M  V30 16 1 16 17
M  V30 17 2 17 18
M  V30 18 1 17 19
M  V30 19 1 10 5
M  V30 20 1 18 12
M  V30 21 1 1 20
M  V30 22 1 1 21
M  V30 23 1 1 22
M  V30 24 1 2 23
M  V30 25 1 6 24
M  V30 26 1 6 25
M  V30 27 1 7 26
M  V30 28 1 7 27
M  V30 29 1 9 28
M  V30 30 1 9 29
M  V30 31 1 10 30
M  V30 32 1 10 31
M  V30 33 1 15 32
M  V30 34 1 15 33
M  V30 35 1 19 34
M  V30 36 1 19 35
M  V30 END BOND
M  V30 END CTAB
M  END
