
     RDKit          3D

  0  0  0  0  0  0  0  0  0  0999 V3000
M  V30 BEGIN CTAB
M  V30 COUNTS 21 21 0 0 0
M  V30 BEGIN ATOM
M  V30 1 N -3.48619 -0.432556 -0.772596 0
M  V30 2 C -2.67787 -0.948343 0.304353 0
M  V30 3 C -1.30897 -0.38838 0.310866 0
M  V30 4 N -0.297261 -0.96805 -0.356342 0
M  V30 5 C 0.960307 -0.467948 -0.360058 0
M  V30 6 N 1.99671 -1.11808 -1.08164 0
M  V30 7 C 3.33011 -0.563854 -1.06936 0
M  V30 8 N 1.16646 0.659911 0.346763 0
M  V30 9 C 0.207946 1.27037 1.02034 0
M  V30 10 N -1.03931 0.742829 1.00268 0
M  V30 11 N 0.432029 2.45577 1.7612 0
M  V30 12 H -3.01988 0.30137 -1.33738 0
M  V30 13 H -4.46093 -0.230647 -0.519543 0
M  V30 14 H -2.60071 -2.059 0.131646 0
M  V30 15 H -3.16431 -0.784286 1.29868 0
M  V30 16 H 1.77352 -1.98862 -1.60977 0
M  V30 17 H 4.11695 -1.36979 -1.13687 0
M  V30 18 H 3.54439 -0.0547837 -0.0927809 0
M  V30 19 H 3.49498 0.130675 -1.9196 0
M  V30 20 H 0.227258 3.37726 1.33784 0
M  V30 21 H 0.804767 2.43614 2.74158 0
M  V30 END ATOM
M  V30 BEGIN BOND
M  V30 1 1 1 2
M  V30 2 1 2 3
M  V30 3 2 3 4
M  V30 4 1 4 5
M  V30 5 1 5 6
M  V30 6 1 6 7
M  V30 7 2 5 8
M  V30 8 1 8 9
M  V30 9 2 9 10
M  V30 10 1 9 11
M  V30 11 1 10 3
M  V30 12 1 1 12
M  V30 13 1 1 13
M  V30 14 1 2 14
M  V30 15 1 2 15
M  V30 16 1 6 16
M  V30 17 1 7 17
M  V30 18 1 7 18
M  V30 19 1 7 19
M  V30 20 1 11 20
M  V30 21 1 11 21
M  V30 END BOND
M  V30 END CTAB
M  END
