
     RDKit          3D

  0  0  0  0  0  0  0  0  0  0999 V3000
M  V30 BEGIN CTAB
M  V30 COUNTS 27 28 0 0 0
M  V30 BEGIN ATOM
M  V30 1 N 2.68498 -2.2419 -0.9586 0
M  V30 2 C 2.44252 -0.951934 -0.409369 0
M  V30 3 C 3.49583 -0.102088 -0.220016 0
M  V30 4 C 3.29054 1.14013 0.304868 0
M  V30 5 N 4.36559 2.02759 0.506136 0
M  V30 6 N 2.01952 1.49291 0.626371 0
M  V30 7 C 0.977868 0.672049 0.446928 0
M  V30 8 N 1.20039 -0.542344 -0.0693047 0
M  V30 9 S -0.642466 1.23167 0.900597 0
M  V30 10 C -1.93015 0.0318002 0.604934 0
M  V30 11 C -3.25101 0.637317 1.0341 0
M  V30 12 N -4.18398 -0.307692 0.43041 0
M  V30 13 C -3.68993 -0.316445 -0.952218 0
M  V30 14 C -2.16978 -0.294589 -0.823261 0
M  V30 15 H 1.98551 -2.67441 -1.58539 0
M  V30 16 H 3.56854 -2.76697 -0.73718 0
M  V30 17 H 4.50637 -0.406595 -0.485218 0
M  V30 18 H 4.64194 2.29378 1.45949 0
M  V30 19 H 4.86879 2.40468 -0.306833 0
M  V30 20 H -1.70953 -0.87696 1.20175 0
M  V30 21 H -3.37572 1.62057 0.535643 0
M  V30 22 H -3.3603 0.683475 2.1311 0
M  V30 23 H -4.01813 -1.2597 0.853134 0
M  V30 24 H -4.05718 -1.20991 -1.46414 0
M  V30 25 H -4.06248 0.640504 -1.39561 0
M  V30 26 H -1.83128 -1.34658 -1.05503 0
M  V30 27 H -1.76646 0.421642 -1.54697 0
M  V30 END ATOM
M  V30 BEGIN BOND
M  V30 1 1 1 2
M  V30 2 2 2 3
M  V30 3 1 3 4
M  V30 4 1 4 5
M  V30 5 2 4 6
M  V30 6 1 6 7
M  V30 7 2 7 8
M  V30 8 1 7 9
M  V30 9 1 9 10
M  V30 10 1 10 11
M  V30 11 1 11 12
M  V30 12 1 12 13
M  V30 13 1 13 14
M  V30 14 1 8 2
M  V30 15 1 14 10
M  V30 16 1 1 15
M  V30 17 1 1 16
M  V30 18 1 3 17
M  V30 19 1 5 18
M  V30 20 1 5 19
M  V30 21 1 10 20
M  V30 22 1 11 21
M  V30 23 1 11 22
M  V30 24 1 12 23
M  V30 25 1 13 24
M  V30 26 1 13 25
M  V30 27 1 14 26
M  V30 28 1 14 27
M  V30 END BOND
M  V30 END CTAB
M  END
