
     RDKit          3D

  0  0  0  0  0  0  0  0  0  0999 V3000
M  V30 BEGIN CTAB
M  V30 COUNTS 47 46 0 0 0
M  V30 BEGIN ATOM
M  V30 1 C 5.30383 1.78544 -0.896337 0
M  V30 2 C 4.00366 1.04856 -0.639106 0
M  V30 3 C 3.58074 1.21084 0.790698 0
M  V30 4 C 4.26531 -0.395293 -1.04437 0 CFG=2
M  V30 5 N 4.64601 -0.400394 -2.47383 0
M  V30 6 C 2.9775 -1.13968 -0.890653 0
M  V30 7 O 2.33232 -1.35214 -1.92454 0
M  V30 8 N 2.59914 -1.54312 0.413649 0
M  V30 9 C 1.36082 -2.25435 0.610352 0
M  V30 10 C 0.212877 -1.3751 0.187464 0
M  V30 11 C -1.12209 -2.10138 0.397972 0
M  V30 12 N -2.16931 -1.21814 -0.0360487 0
M  V30 13 C -2.49824 0.0427824 0.483066 0
M  V30 14 O -1.85922 0.559105 1.46171 0
M  V30 15 C -3.62341 0.800197 -0.123116 0 CFG=1
M  V30 16 N -4.10245 0.107488 -1.29876 0
M  V30 17 C -4.7499 0.830215 0.904729 0
M  V30 18 C -5.89539 1.59474 0.255729 0
M  V30 19 C -4.24373 1.56467 2.12435 0
M  V30 20 H 6.15268 1.08766 -0.833268 0
M  V30 21 H 5.27825 2.26072 -1.87629 0
M  V30 22 H 5.48632 2.5668 -0.110956 0
M  V30 23 H 3.20596 1.43044 -1.28782 0
M  V30 24 H 2.53059 0.969894 0.943076 0
M  V30 25 H 4.29007 0.746332 1.50885 0
M  V30 26 H 3.65505 2.32152 1.00997 0
M  V30 27 H 5.09929 -0.86267 -0.503721 0
M  V30 28 H 3.83634 -0.246431 -3.08191 0
M  V30 29 H 5.34152 0.354479 -2.59162 0
M  V30 30 H 3.19976 -1.34895 1.25615 0
M  V30 31 H 1.24677 -2.66486 1.61271 0
M  V30 32 H 1.40555 -3.13551 -0.0961317 0
M  V30 33 H 0.173355 -0.467163 0.821195 0
M  V30 34 H 0.226498 -1.11666 -0.872155 0
M  V30 35 H -1.19799 -2.33679 1.48817 0
M  V30 36 H -1.10597 -3.04498 -0.15831 0
M  V30 37 H -2.75534 -1.58207 -0.849034 0
M  V30 38 H -3.31865 1.83294 -0.400417 0
M  V30 39 H -4.58608 -0.773806 -1.07614 0
M  V30 40 H -3.34812 -0.0354099 -1.99316 0
M  V30 41 H -5.01309 -0.208249 1.15883 0
M  V30 42 H -5.65978 2.66553 0.320857 0
M  V30 43 H -6.87567 1.33124 0.734747 0
M  V30 44 H -5.91003 1.27665 -0.807118 0
M  V30 45 H -3.47026 2.32067 1.88445 0
M  V30 46 H -3.81035 0.866974 2.86462 0
M  V30 47 H -5.09514 2.08645 2.63147 0
M  V30 END ATOM
M  V30 BEGIN BOND
M  V30 1 1 1 2
M  V30 2 1 2 3
M  V30 3 1 2 4
M  V30 4 1 4 5
M  V30 5 1 4 6
M  V30 6 2 6 7
M  V30 7 1 6 8
M  V30 8 1 8 9
M  V30 9 1 9 10
M  V30 10 1 10 11
M  V30 11 1 11 12
M  V30 12 1 12 13
M  V30 13 2 13 14
M  V30 14 1 13 15
M  V30 15 1 15 16
M  V30 16 1 15 17
M  V30 17 1 17 18
M  V30 18 1 17 19
M  V30 19 1 1 20
M  V30 20 1 1 21
M  V30 21 1 1 22
M  V30 22 1 2 23
M  V30 23 1 3 24
M  V30 24 1 3 25
M  V30 25 1 3 26
M  V30 26 1 4 27 CFG=1
M  V30 27 1 5 28
M  V30 28 1 5 29
M  V30 29 1 8 30
M  V30 30 1 9 31
M  V30 31 1 9 32
M  V30 32 1 10 33
M  V30 33 1 10 34
M  V30 34 1 11 35
M  V30 35 1 11 36
M  V30 36 1 12 37
M  V30 37 1 15 38 CFG=3
M  V30 38 1 16 39
M  V30 39 1 16 40
M  V30 40 1 17 41
M  V30 41 1 18 42
M  V30 42 1 18 43
M  V30 43 1 18 44
M  V30 44 1 19 45
M  V30 45 1 19 46
M  V30 46 1 19 47
M  V30 END BOND
M  V30 END CTAB
M  END
