
     RDKit          3D

  0  0  0  0  0  0  0  0  0  0999 V3000
M  V30 BEGIN CTAB
M  V30 COUNTS 34 36 0 0 0
M  V30 BEGIN ATOM
M  V30 1 N 6.32976 -0.180211 -0.32863 0
M  V30 2 C 5.06635 0.460851 -0.474246 0
M  V30 3 N 4.75585 1.75701 -0.362333 0
M  V30 4 N 3.43991 1.91582 -0.579961 0
M  V30 5 N 2.91123 0.751512 -0.826685 0
M  V30 6 C 3.85678 -0.175041 -0.775695 0
M  V30 7 C 1.47782 0.540236 -1.11347 0
M  V30 8 C 0.77623 0.300294 0.134516 0
M  V30 9 O 1.50392 0.319235 1.19876 0
M  V30 10 N -0.582683 0.0549269 0.301482 0
M  V30 11 C -1.16113 -0.160427 1.52188 0
M  V30 12 C -0.489997 -0.175741 2.85804 0
M  V30 13 C -2.4915 -0.362794 1.28926 0
M  V30 14 C -2.76577 -0.279296 -0.058093 0
M  V30 15 C -1.54661 -0.0148692 -0.664443 0
M  V30 16 C -1.56104 0.114508 -2.03355 0
M  V30 17 C -2.72337 -0.00893741 -2.79157 0
M  V30 18 C -3.91332 -0.270941 -2.15891 0
M  V30 19 C -3.94237 -0.407628 -0.790315 0
M  V30 20 N -5.14758 -0.678649 -0.0902096 0
M  V30 21 H 7.17715 0.368653 -0.592573 0
M  V30 22 H 6.36097 -1.1511 0.0278107 0
M  V30 23 H 3.70938 -1.22533 -0.938611 0
M  V30 24 H 1.15774 1.43068 -1.68971 0
M  V30 25 H 1.39299 -0.37835 -1.75496 0
M  V30 26 H -0.0184992 0.828461 3.06857 0
M  V30 27 H 0.284696 -0.98111 2.9024 0
M  V30 28 H -1.23799 -0.32509 3.63302 0
M  V30 29 H -3.24394 -0.562898 2.04667 0
M  V30 30 H -0.656799 0.317174 -2.55372 0
M  V30 31 H -2.68103 0.103487 -3.88496 0
M  V30 32 H -4.82019 -0.365782 -2.76543 0
M  V30 33 H -6.01479 -0.796625 -0.654159 0
M  V30 34 H -5.20214 -0.76203 0.926922 0
M  V30 END ATOM
M  V30 BEGIN BOND
M  V30 1 1 1 2
M  V30 2 1 2 3
M  V30 3 2 3 4
M  V30 4 1 4 5
M  V30 5 1 5 6
M  V30 6 1 5 7
M  V30 7 1 7 8
M  V30 8 2 8 9
M  V30 9 1 8 10
M  V30 10 1 10 11
M  V30 11 1 11 12
M  V30 12 2 11 13
M  V30 13 1 13 14
M  V30 14 2 14 15
M  V30 15 1 15 16
M  V30 16 2 16 17
M  V30 17 1 17 18
M  V30 18 2 18 19
M  V30 19 1 19 20
M  V30 20 2 6 2
M  V30 21 1 15 10
M  V30 22 1 19 14
M  V30 23 1 1 21
M  V30 24 1 1 22
M  V30 25 1 6 23
M  V30 26 1 7 24
M  V30 27 1 7 25
M  V30 28 1 12 26
M  V30 29 1 12 27
M  V30 30 1 12 28
M  V30 31 1 13 29
M  V30 32 1 16 30
M  V30 33 1 17 31
M  V30 34 1 18 32
M  V30 35 1 20 33
M  V30 36 1 20 34
M  V30 END BOND
M  V30 END CTAB
M  END
