
     RDKit          3D

  0  0  0  0  0  0  0  0  0  0999 V3000
M  V30 BEGIN CTAB
M  V30 COUNTS 83 84 0 0 0
M  V30 BEGIN ATOM
M  V30 1 C -0.662475 0.972672 0.107955 0 CFG=1
M  V30 2 C -0.68305 2.35376 -0.449001 0
M  V30 3 C -1.85473 3.15604 0.0698869 0
M  V30 4 C -1.85838 4.53011 -0.525722 0
M  V30 5 N -0.674036 5.28966 -0.208512 0
M  V30 6 C -0.381494 5.77267 1.08287 0
M  V30 7 N -0.823484 7.08039 1.44331 0
M  V30 8 N 0.267306 5.07366 1.92581 0
M  V30 9 N -1.8382 0.213508 -0.212598 0
M  V30 10 C -2.49518 -0.548966 0.759598 0
M  V30 11 O -2.0838 -0.606634 1.92841 0
M  V30 12 C -3.75434 -1.35974 0.446561 0 CFG=2
M  V30 13 C -4.84923 -0.324879 0.597213 0
M  V30 14 C -6.21429 -0.750814 0.364689 0
M  V30 15 C -6.7744 -0.705372 -0.89231 0
M  V30 16 C -8.06925 -1.08167 -1.12403 0
M  V30 17 C -8.89512 -1.53039 -0.112456 0
M  V30 18 O -10.2085 -1.92018 -0.303939 0
M  V30 19 C -8.31676 -1.57231 1.15818 0
M  V30 20 C -7.01879 -1.19755 1.40583 0
M  V30 21 N -3.83374 -2.45204 1.36005 0
M  V30 22 C -4.66515 -3.56703 1.16967 0
M  V30 23 N -5.13178 -4.03474 -0.0942543 0
M  V30 24 N -5.05835 -4.29748 2.18743 0
M  V30 25 C 0.552113 0.208035 -0.283793 0
M  V30 26 O 0.36372 -0.904309 -0.830828 0
M  V30 27 N 1.8596 0.684542 -0.0620618 0
M  V30 28 C 3.0826 -0.0472214 -0.431661 0 CFG=1
M  V30 29 C 3.67873 0.752266 -1.56648 0
M  V30 30 C 4.92309 0.285741 -2.14144 0
M  V30 31 C 4.99816 -0.66468 -3.13607 0
M  V30 32 C 6.1922 -1.06762 -3.6954 0
M  V30 33 C 7.38342 -0.52261 -3.26965 0
M  V30 34 C 7.3268 0.431106 -2.27278 0
M  V30 35 C 6.12701 0.825254 -1.72321 0
M  V30 36 C 3.93908 -0.301032 0.707442 0
M  V30 37 O 3.68894 0.259201 1.83265 0
M  V30 38 N 5.0789 -1.15311 0.70229 0
M  V30 39 C 5.90529 -1.36808 1.85783 0
M  V30 40 C 7.03915 -2.28872 1.6708 0
M  V30 41 C 6.76436 -3.68895 1.29429 0
M  V30 42 O 6.09291 -3.91083 0.118847 0
M  V30 43 H -0.58335 1.04938 1.22946 0
M  V30 44 H -0.763852 2.38223 -1.55527 0
M  V30 45 H 0.239808 2.89571 -0.204875 0
M  V30 46 H -1.78577 3.22573 1.18281 0
M  V30 47 H -2.83088 2.68063 -0.21117 0
M  V30 48 H -1.92693 4.4395 -1.64521 0
M  V30 49 H -2.75658 5.10316 -0.180306 0
M  V30 50 H 0.0410407 5.5163 -0.952131 0
M  V30 51 H -0.147487 7.85486 1.34752 0
M  V30 52 H -1.78029 7.25069 1.78372 0
M  V30 53 H 0.635394 4.13137 1.78004 0
M  V30 54 H -2.20351 0.229333 -1.18267 0
M  V30 55 H -3.6624 -1.68918 -0.590833 0
M  V30 56 H -4.80613 0.161751 1.61012 0
M  V30 57 H -4.59193 0.519054 -0.103995 0
M  V30 58 H -6.17959 -0.357479 -1.74849 0
M  V30 59 H -8.49792 -1.04043 -2.12314 0
M  V30 60 H -10.3941 -2.88875 -0.51884 0
M  V30 61 H -8.96982 -1.92916 1.95228 0
M  V30 62 H -6.63086 -1.25639 2.4202 0
M  V30 63 H -3.24465 -2.45436 2.23507 0
M  V30 64 H -6.12275 -4.33821 -0.164926 0
M  V30 65 H -4.53998 -4.09539 -0.953833 0
M  V30 66 H -4.78768 -4.10254 3.17259 0
M  V30 67 H 2.00967 1.59529 0.383938 0
M  V30 68 H 2.72227 -1.00423 -0.863145 0
M  V30 69 H 2.92768 0.804588 -2.41745 0
M  V30 70 H 3.74542 1.83338 -1.237 0
M  V30 71 H 4.08078 -1.1263 -3.50396 0
M  V30 72 H 6.22011 -1.81471 -4.47195 0
M  V30 73 H 8.34009 -0.8369 -3.70946 0
M  V30 74 H 8.25519 0.871938 -1.92809 0
M  V30 75 H 6.14156 1.58994 -0.933251 0
M  V30 76 H 5.32367 -1.65529 -0.174547 0
M  V30 77 H 5.3272 -1.73686 2.75564 0
M  V30 78 H 6.29445 -0.348695 2.14049 0
M  V30 79 H 7.70577 -1.85641 0.863136 0
M  V30 80 H 7.70068 -2.31173 2.56948 0
M  V30 81 H 7.78083 -4.17655 1.14179 0
M  V30 82 H 6.34965 -4.29973 2.14774 0
M  V30 83 H 6.24635 -4.83718 -0.196912 0
M  V30 END ATOM
M  V30 BEGIN BOND
M  V30 1 1 1 2
M  V30 2 1 2 3
M  V30 3 1 3 4
M  V30 4 1 4 5
M  V30 5 1 5 6
M  V30 6 1 6 7
M  V30 7 2 6 8 CFG=2
M  V30 8 1 1 9
M  V30 9 1 9 10
M  V30 10 2 10 11
M  V30 11 1 10 12
M  V30 12 1 12 13
M  V30 13 1 13 14
M  V30 14 2 14 15
M  V30 15 1 15 16
M  V30 16 2 16 17
M  V30 17 1 17 18
M  V30 18 1 17 19
M  V30 19 2 19 20
M  V30 20 1 12 21
M  V30 21 1 21 22
M  V30 22 1 22 23
M  V30 23 2 22 24 CFG=2
M  V30 24 1 1 25
M  V30 25 2 25 26
M  V30 26 1 25 27
M  V30 27 1 27 28
M  V30 28 1 28 29
M  V30 29 1 29 30
M  V30 30 2 30 31
M  V30 31 1 31 32
M  V30 32 2 32 33
M  V30 33 1 33 34
M  V30 34 2 34 35
M  V30 35 1 28 36
M  V30 36 2 36 37
M  V30 37 1 36 38
M  V30 38 1 38 39
M  V30 39 1 39 40
M  V30 40 1 40 41
M  V30 41 1 41 42
M  V30 42 1 20 14
M  V30 43 1 35 30
M  V30 44 1 1 43 CFG=1
M  V30 45 1 2 44
M  V30 46 1 2 45
M  V30 47 1 3 46
M  V30 48 1 3 47
M  V30 49 1 4 48
M  V30 50 1 4 49
M  V30 51 1 5 50
M  V30 52 1 7 51
M  V30 53 1 7 52
M  V30 54 1 8 53
M  V30 55 1 9 54
M  V30 56 1 12 55 CFG=3
M  V30 57 1 13 56
M  V30 58 1 13 57
M  V30 59 1 15 58
M  V30 60 1 16 59
M  V30 61 1 18 60
M  V30 62 1 19 61
M  V30 63 1 20 62
M  V30 64 1 21 63
M  V30 65 1 23 64
M  V30 66 1 23 65
M  V30 67 1 24 66
M  V30 68 1 27 67
M  V30 69 1 28 68 CFG=3
M  V30 70 1 29 69
M  V30 71 1 29 70
M  V30 72 1 31 71
M  V30 73 1 32 72
M  V30 74 1 33 73
M  V30 75 1 34 74
M  V30 76 1 35 75
M  V30 77 1 38 76
M  V30 78 1 39 77
M  V30 79 1 39 78
M  V30 80 1 40 79
M  V30 81 1 40 80
M  V30 82 1 41 81
M  V30 83 1 41 82
M  V30 84 1 42 83
M  V30 END BOND
M  V30 END CTAB
M  END
