
     RDKit          3D

  0  0  0  0  0  0  0  0  0  0999 V3000
M  V30 BEGIN CTAB
M  V30 COUNTS 30 31 0 0 0
M  V30 BEGIN ATOM
M  V30 1 N -5.10741 0.873382 0.520798 0
M  V30 2 C -3.74833 0.502731 0.388896 0
M  V30 3 C -3.42683 -0.712665 -0.209027 0
M  V30 4 N -4.5089 -1.51616 -0.655866 0
M  V30 5 C -2.1209 -1.11235 -0.357837 0
M  V30 6 C -1.1263 -0.272829 0.103646 0
M  V30 7 C -1.42422 0.92686 0.694933 0
M  V30 8 C -2.75537 1.33981 0.849244 0
M  V30 9 C 0.302899 -0.642064 -0.0127384 0
M  V30 10 O 0.481332 -1.90103 -0.0624383 0
M  V30 11 N 1.30557 0.323491 -0.0597565 0
M  V30 12 C 2.6961 0.174739 -0.164341 0
M  V30 13 C 3.53602 1.29933 -0.193809 0
M  V30 14 C 4.89699 1.23161 -0.294027 0
M  V30 15 C 5.48322 -0.0173074 -0.371056 0
M  V30 16 C 4.72178 -1.16138 -0.347798 0
M  V30 17 C 3.32598 -1.03507 -0.243441 0
M  V30 18 H -5.64521 1.08333 -0.335365 0
M  V30 19 H -5.5673 0.937713 1.44254 0
M  V30 20 H -4.7014 -2.40363 -0.148849 0
M  V30 21 H -5.10166 -1.25117 -1.45613 0
M  V30 22 H -1.9209 -2.06014 -0.826096 0
M  V30 23 H -0.667045 1.6065 1.07398 0
M  V30 24 H -2.97638 2.28924 1.31751 0
M  V30 25 H 0.955321 1.33944 -0.0154683 0
M  V30 26 H 3.05316 2.25842 -0.132242 0
M  V30 27 H 5.52324 2.12568 -0.314445 0
M  V30 28 H 6.56567 -0.127065 -0.452319 0
M  V30 29 H 5.17302 -2.14728 -0.407755 0
M  V30 30 H 2.77784 -1.95213 -0.229296 0
M  V30 END ATOM
M  V30 BEGIN BOND
M  V30 1 1 1 2
M  V30 2 2 2 3
M  V30 3 1 3 4
M  V30 4 1 3 5
M  V30 5 2 5 6
M  V30 6 1 6 7
M  V30 7 2 7 8
M  V30 8 1 6 9
M  V30 9 2 9 10
M  V30 10 1 9 11
M  V30 11 1 11 12
M  V30 12 2 12 13
M  V30 13 1 13 14
M  V30 14 2 14 15
M  V30 15 1 15 16
M  V30 16 2 16 17
M  V30 17 1 8 2
M  V30 18 1 17 12
M  V30 19 1 1 18
M  V30 20 1 1 19
M  V30 21 1 4 20
M  V30 22 1 4 21
M  V30 23 1 5 22
M  V30 24 1 7 23
M  V30 25 1 8 24
M  V30 26 1 11 25
M  V30 27 1 13 26
M  V30 28 1 14 27
M  V30 29 1 15 28
M  V30 30 1 16 29
M  V30 31 1 17 30
M  V30 END BOND
M  V30 END CTAB
M  END
