
     RDKit          3D

  0  0  0  0  0  0  0  0  0  0999 V3000
M  V30 BEGIN CTAB
M  V30 COUNTS 19 19 0 0 0
M  V30 BEGIN ATOM
M  V30 1 N 3.43694 -0.142714 0.0288434 0
M  V30 2 C 2.0173 -0.112267 -0.0739766 0
M  V30 3 C 1.33127 0.935719 -0.630535 0
M  V30 4 F 2.04074 1.98566 -1.10159 0
M  V30 5 C -0.0375932 0.926627 -0.710874 0
M  V30 6 C -0.796633 -0.14273 -0.233346 0
M  V30 7 C -0.113015 -1.2024 0.328795 0
M  V30 8 C 1.27221 -1.18055 0.403883 0
M  V30 9 S -2.5307 -0.145532 -0.339418 0
M  V30 10 N -3.20828 0.567678 1.08062 0
M  V30 11 O -2.99306 -1.59115 -0.443956 0
M  V30 12 O -3.04616 0.574942 -1.53102 0
M  V30 13 H 4.03808 0.3786 -0.646374 0
M  V30 14 H 3.92274 -0.678857 0.771367 0
M  V30 15 H -0.597767 1.75167 -1.15029 0
M  V30 16 H -0.698065 -2.02921 0.698148 0
M  V30 17 H 1.76559 -2.01945 0.845968 0
M  V30 18 H -3.31342 1.60072 0.85961 0
M  V30 19 H -2.49018 0.523232 1.84415 0
M  V30 END ATOM
M  V30 BEGIN BOND
M  V30 1 1 1 2
M  V30 2 2 2 3
M  V30 3 1 3 4
M  V30 4 1 3 5
M  V30 5 2 5 6
M  V30 6 1 6 7
M  V30 7 2 7 8
M  V30 8 1 6 9
M  V30 9 1 9 10
M  V30 10 2 9 11
M  V30 11 2 9 12
M  V30 12 1 8 2
M  V30 13 1 1 13
M  V30 14 1 1 14
M  V30 15 1 5 15
M  V30 16 1 7 16
M  V30 17 1 8 17
M  V30 18 1 10 18
M  V30 19 1 10 19
M  V30 END BOND
M  V30 END CTAB
M  END
