
     RDKit          3D

  0  0  0  0  0  0  0  0  0  0999 V3000
M  V30 BEGIN CTAB
M  V30 COUNTS 22 22 0 0 0
M  V30 BEGIN ATOM
M  V30 1 N 3.49851 0.639019 0.412937 0
M  V30 2 C 2.80646 0.0745337 -0.72654 0
M  V30 3 C 1.38327 -0.189151 -0.336084 0
M  V30 4 O 0.898646 -1.28535 0.183482 0
M  V30 5 C -0.38825 -1.20626 0.414567 0
M  V30 6 C -0.803174 0.0455366 0.0179927 0
M  V30 7 C 0.318589 0.684335 -0.455314 0
M  V30 8 S -2.44694 0.61497 0.133225 0
M  V30 9 O -3.37558 -0.252437 -0.698205 0
M  V30 10 O -2.97006 0.537706 1.54613 0
M  V30 11 N -2.57893 2.22563 -0.458719 0
M  V30 12 C -1.23843 -2.30123 1.00793 0
M  V30 13 H 3.65026 1.67349 0.215073 0
M  V30 14 H 4.48281 0.235529 0.4127 0
M  V30 15 H 2.87373 0.716781 -1.61153 0
M  V30 16 H 3.2562 -0.922252 -0.984122 0
M  V30 17 H 0.338365 1.70012 -0.849527 0
M  V30 18 H -1.98123 2.31157 -1.30744 0
M  V30 19 H -3.55669 2.44321 -0.725145 0
M  V30 20 H -2.13719 -1.89577 1.4716 0
M  V30 21 H -1.43504 -3.00684 0.175547 0
M  V30 22 H -0.595321 -2.84315 1.74868 0
M  V30 END ATOM
M  V30 BEGIN BOND
M  V30 1 1 1 2
M  V30 2 1 2 3
M  V30 3 1 3 4
M  V30 4 1 4 5
M  V30 5 2 5 6
M  V30 6 1 6 7
M  V30 7 1 6 8
M  V30 8 2 8 9
M  V30 9 2 8 10
M  V30 10 1 8 11
M  V30 11 1 5 12
M  V30 12 2 7 3
M  V30 13 1 1 13
M  V30 14 1 1 14
M  V30 15 1 2 15
M  V30 16 1 2 16
M  V30 17 1 7 17
M  V30 18 1 11 18
M  V30 19 1 11 19
M  V30 20 1 12 20
M  V30 21 1 12 21
M  V30 22 1 12 22
M  V30 END BOND
M  V30 END CTAB
M  END
