
     RDKit          3D

  0  0  0  0  0  0  0  0  0  0999 V3000
M  V30 BEGIN CTAB
M  V30 COUNTS 28 30 0 0 0
M  V30 BEGIN ATOM
M  V30 1 N -2.98846 3.07113 0.324627 0
M  V30 2 C -2.36719 1.80552 0.212377 0
M  V30 3 N -3.04915 0.652765 0.155794 0
M  V30 4 C -2.45854 -0.541079 0.0497546 0
M  V30 5 N -3.23658 -1.74703 -0.00706777 0
M  V30 6 C -1.07107 -0.604935 -0.00551541 0
M  V30 7 C -0.350694 0.554288 0.0501175 0
M  V30 8 N -1.01805 1.71472 0.156603 0
M  V30 9 C 1.10138 0.487419 -0.00779706 0
M  V30 10 C 1.83502 1.64809 0.047565 0
M  V30 11 C 3.22133 1.62427 -0.00478929 0
M  V30 12 C 3.82902 0.394092 -0.114097 0
M  V30 13 C 3.09095 -0.766077 -0.169265 0
M  V30 14 C 1.73161 -0.733313 -0.117263 0
M  V30 15 C 1.00411 -2.00829 -0.181054 0
M  V30 16 C -0.471478 -1.93277 -0.121266 0
M  V30 17 H -3.03589 3.58648 1.21934 0
M  V30 18 H -3.41051 3.49694 -0.51749 0
M  V30 19 H -4.25676 -1.69419 -0.0712674 0
M  V30 20 H -2.75116 -2.66613 0.0178398 0
M  V30 21 H 1.33522 2.61931 0.134593 0
M  V30 22 H 3.783 2.55565 0.0406225 0
M  V30 23 H 4.91836 0.391413 -0.154101 0
M  V30 24 H 3.63523 -1.70888 -0.255906 0
M  V30 25 H 1.44878 -2.66724 0.621293 0
M  V30 26 H 1.28323 -2.50102 -1.15858 0
M  V30 27 H -0.791338 -2.50128 0.804544 0
M  V30 28 H -0.960391 -2.52986 -0.949609 0
M  V30 END ATOM
M  V30 BEGIN BOND
M  V30 1 1 1 2
M  V30 2 2 2 3
M  V30 3 1 3 4
M  V30 4 1 4 5
M  V30 5 2 4 6
M  V30 6 1 6 7
M  V30 7 2 7 8
M  V30 8 1 7 9
M  V30 9 2 9 10
M  V30 10 1 10 11
M  V30 11 2 11 12
M  V30 12 1 12 13
M  V30 13 2 13 14
M  V30 14 1 14 15
M  V30 15 1 15 16
M  V30 16 1 8 2
M  V30 17 1 14 9
M  V30 18 1 16 6
M  V30 19 1 1 17
M  V30 20 1 1 18
M  V30 21 1 5 19
M  V30 22 1 5 20
M  V30 23 1 10 21
M  V30 24 1 11 22
M  V30 25 1 12 23
M  V30 26 1 13 24
M  V30 27 1 15 25
M  V30 28 1 15 26
M  V30 29 1 16 27
M  V30 30 1 16 28
M  V30 END BOND
M  V30 END CTAB
M  END
