
     RDKit          3D

  0  0  0  0  0  0  0  0  0  0999 V3000
M  V30 BEGIN CTAB
M  V30 COUNTS 17 17 0 0 0
M  V30 BEGIN ATOM
M  V30 1 N -2.25206 2.92426 0.790997 0
M  V30 2 C -1.55788 2.02722 0.560402 0
M  V30 3 C -0.677491 0.915394 0.252563 0
M  V30 4 C 0.69351 1.01632 0.34911 0
M  V30 5 C 1.51184 -0.0482462 0.0531825 0
M  V30 6 N 2.93847 0.0370116 0.147429 0
M  V30 7 C 0.973697 -1.25378 -0.35119 0
M  V30 8 C -0.393489 -1.39458 -0.460088 0
M  V30 9 C -1.18647 -0.307771 -0.155969 0
M  V30 10 N -2.58875 -0.417644 -0.256801 0
M  V30 11 F -0.920154 -2.57794 -0.856948 0
M  V30 12 H 1.14357 1.95683 0.666006 0
M  V30 13 H 3.50435 0.597979 -0.527801 0
M  V30 14 H 3.41886 -0.485363 0.92415 0
M  V30 15 H 1.64541 -2.09774 -0.584701 0
M  V30 16 H -3.07557 -0.943468 -1.00867 0
M  V30 17 H -3.17784 0.0515232 0.458326 0
M  V30 END ATOM
M  V30 BEGIN BOND
M  V30 1 3 1 2
M  V30 2 1 2 3
M  V30 3 2 3 4
M  V30 4 1 4 5
M  V30 5 1 5 6
M  V30 6 2 5 7
M  V30 7 1 7 8
M  V30 8 2 8 9
M  V30 9 1 9 10
M  V30 10 1 8 11
M  V30 11 1 9 3
M  V30 12 1 4 12
M  V30 13 1 6 13
M  V30 14 1 6 14
M  V30 15 1 7 15
M  V30 16 1 10 16
M  V30 17 1 10 17
M  V30 END BOND
M  V30 END CTAB
M  END
