
     RDKit          3D

  0  0  0  0  0  0  0  0  0  0999 V3000
M  V30 BEGIN CTAB
M  V30 COUNTS 32 32 0 0 0
M  V30 BEGIN ATOM
M  V30 1 N 2.44533 1.78575 -1.084 0
M  V30 2 C 1.9619 0.913243 -0.0477742 0
M  V30 3 C 0.465454 0.936854 0.0906971 0
M  V30 4 N 0.0509198 -0.459051 0.28068 0
M  V30 5 C 1.25665 -1.18766 0.651443 0
M  V30 6 C 2.23892 -0.547275 -0.334661 0
M  V30 7 C 3.65706 -0.933528 -0.0397913 0
M  V30 8 C -1.21755 -1.01672 0.145937 0
M  V30 9 O -1.36175 -2.26047 0.360845 0
M  V30 10 C -2.43943 -0.264695 -0.235152 0
M  V30 11 N -3.59191 -1.13754 -0.25423 0
M  V30 12 C -2.3104 0.396533 -1.57373 0
M  V30 13 C -2.71953 0.786667 0.844565 0
M  V30 14 H 1.69259 2.03924 -1.74956 0
M  V30 15 H 2.93783 2.58704 -0.668379 0
M  V30 16 H 2.39436 1.22607 0.93306 0
M  V30 17 H 0.0565811 1.37847 -0.818276 0
M  V30 18 H 0.140648 1.49738 0.991966 0
M  V30 19 H 1.1643 -2.26318 0.504721 0
M  V30 20 H 1.53168 -0.869506 1.66113 0
M  V30 21 H 1.94439 -0.739365 -1.38228 0
M  V30 22 H 3.6764 -1.66154 0.777168 0
M  V30 23 H 4.32706 -0.0665582 0.122499 0
M  V30 24 H 4.05319 -1.46317 -0.945123 0
M  V30 25 H -3.37111 -1.92585 -0.891293 0
M  V30 26 H -3.83556 -1.42562 0.702102 0
M  V30 27 H -3.1838 0.165519 -2.18183 0
M  V30 28 H -2.23686 1.49961 -1.49701 0
M  V30 29 H -1.4238 0.00445357 -2.10942 0
M  V30 30 H -2.19286 1.70149 0.497882 0
M  V30 31 H -3.80927 0.931443 0.887452 0
M  V30 32 H -2.30142 0.371959 1.78354 0
M  V30 END ATOM
M  V30 BEGIN BOND
M  V30 1 1 1 2
M  V30 2 1 2 3
M  V30 3 1 3 4
M  V30 4 1 4 5
M  V30 5 1 5 6
M  V30 6 1 6 7
M  V30 7 1 4 8
M  V30 8 2 8 9
M  V30 9 1 8 10
M  V30 10 1 10 11
M  V30 11 1 10 12
M  V30 12 1 10 13
M  V30 13 1 6 2
M  V30 14 1 1 14
M  V30 15 1 1 15
M  V30 16 1 2 16
M  V30 17 1 3 17
M  V30 18 1 3 18
M  V30 19 1 5 19
M  V30 20 1 5 20
M  V30 21 1 6 21
M  V30 22 1 7 22
M  V30 23 1 7 23
M  V30 24 1 7 24
M  V30 25 1 11 25
M  V30 26 1 11 26
M  V30 27 1 12 27
M  V30 28 1 12 28
M  V30 29 1 12 29
M  V30 30 1 13 30
M  V30 31 1 13 31
M  V30 32 1 13 32
M  V30 END BOND
M  V30 END CTAB
M  END
