
     RDKit          3D

  0  0  0  0  0  0  0  0  0  0999 V3000
M  V30 BEGIN CTAB
M  V30 COUNTS 32 34 0 0 0
M  V30 BEGIN ATOM
M  V30 1 C -0.222131 -2.10008 -2.61433 0
M  V30 2 C 0.696341 -1.42243 -1.61191 0
M  V30 3 C 0.286318 -0.732342 -0.460152 0
M  V30 4 N 1.26896 -0.271454 0.113895 0
M  V30 5 C 2.43822 -0.160522 0.0976443 0
M  V30 6 S 2.33566 -1.25187 -1.61018 0
M  V30 7 N 3.88548 -0.00206083 0.104472 0
M  V30 8 C 4.55187 0.722335 0.8667 0
M  V30 9 N 5.98386 0.709705 0.677145 0
M  V30 10 N 3.9916 1.55414 1.89159 0
M  V30 11 C -1.13544 -0.716119 -0.100753 0
M  V30 12 C -1.80651 -1.91262 0.140263 0
M  V30 13 N -3.08254 -1.67662 0.487554 0
M  V30 14 C -3.2547 -0.312467 0.475651 0
M  V30 15 C -2.04208 0.256751 0.110152 0
M  V30 16 C -1.93185 1.61471 0.00545287 0
M  V30 17 C -3.0317 2.41602 0.255946 0
M  V30 18 C -4.22778 1.81349 0.614689 0
M  V30 19 C -4.36456 0.454146 0.73226 0
M  V30 20 H -0.291135 -3.18398 -2.35852 0
M  V30 21 H 0.274069 -2.02767 -3.60429 0
M  V30 22 H -1.21145 -1.6236 -2.61941 0
M  V30 23 H 6.61556 0.302716 1.39209 0
M  V30 24 H 6.3879 1.16485 -0.15692 0
M  V30 25 H 3.00353 1.83984 1.90989 0
M  V30 26 H 4.63422 1.86865 2.67175 0
M  V30 27 H -1.41834 -2.93478 0.0897623 0
M  V30 28 H -3.85365 -2.34518 0.719774 0
M  V30 29 H -0.992456 2.09301 -0.266078 0
M  V30 30 H -3.01199 3.48128 0.184304 0
M  V30 31 H -5.13098 2.41379 0.837886 0
M  V30 32 H -5.3443 -0.0316266 1.02369 0
M  V30 END ATOM
M  V30 BEGIN BOND
M  V30 1 1 1 2
M  V30 2 2 2 3
M  V30 3 1 3 4
M  V30 4 2 4 5
M  V30 5 1 5 6
M  V30 6 1 5 7
M  V30 7 2 7 8
M  V30 8 1 8 9
M  V30 9 1 8 10
M  V30 10 1 3 11
M  V30 11 2 11 12
M  V30 12 1 12 13
M  V30 13 1 13 14
M  V30 14 2 14 15
M  V30 15 1 15 16
M  V30 16 2 16 17
M  V30 17 1 17 18
M  V30 18 2 18 19
M  V30 19 1 6 2
M  V30 20 1 15 11
M  V30 21 1 19 14
M  V30 22 1 1 20
M  V30 23 1 1 21
M  V30 24 1 1 22
M  V30 25 1 9 23
M  V30 26 1 9 24
M  V30 27 1 10 25
M  V30 28 1 10 26
M  V30 29 1 12 27
M  V30 30 1 13 28
M  V30 31 1 16 29
M  V30 32 1 17 30
M  V30 33 1 18 31
M  V30 34 1 19 32
M  V30 END BOND
M  V30 END CTAB
M  END
