
     RDKit          3D

  0  0  0  0  0  0  0  0  0  0999 V3000
M  V30 BEGIN CTAB
M  V30 COUNTS 25 24 0 0 0
M  V30 BEGIN ATOM
M  V30 1 N 4.46368 0.0947279 -0.273071 0
M  V30 2 N 3.20496 0.660506 -0.157368 0
M  V30 3 C 1.99491 -0.0924673 -0.21265 0
M  V30 4 O 2.11451 -1.34152 -0.377107 0
M  V30 5 C 0.69682 0.587654 -0.0809211 0
M  V30 6 C -0.433096 -0.410481 -0.170276 0
M  V30 7 C -1.77949 0.203398 -0.0454348 0
M  V30 8 C -2.01483 0.926179 1.2504 0
M  V30 9 C -2.81922 -0.889636 -0.154773 0
M  V30 10 N -0.346944 -1.0301 -1.48345 0
M  V30 11 H 4.4562 -0.907552 -0.512881 0
M  V30 12 H 5.10665 0.342086 0.50456 0
M  V30 13 H 3.16936 1.70476 -0.0220589 0
M  V30 14 H 0.582969 1.29272 -0.924483 0
M  V30 15 H 0.665134 1.08109 0.894662 0
M  V30 16 H -0.314259 -1.23486 0.566701 0
M  V30 17 H -1.96721 0.905976 -0.888434 0
M  V30 18 H -2.96084 0.58956 1.75642 0
M  V30 19 H -1.20892 0.74656 1.98877 0
M  V30 20 H -2.16082 2.01528 1.06501 0
M  V30 21 H -3.72066 -0.571207 0.411187 0
M  V30 22 H -3.10933 -1.01081 -1.2108 0
M  V30 23 H -2.41785 -1.85277 0.268792 0
M  V30 24 H -1.20889 -1.50004 -1.76852 0
M  V30 25 H 0.0071626 -0.309041 -2.14306 0
M  V30 END ATOM
M  V30 BEGIN BOND
M  V30 1 1 1 2
M  V30 2 1 2 3
M  V30 3 2 3 4
M  V30 4 1 3 5
M  V30 5 1 5 6
M  V30 6 1 6 7
M  V30 7 1 7 8
M  V30 8 1 7 9
M  V30 9 1 6 10
M  V30 10 1 1 11
M  V30 11 1 1 12
M  V30 12 1 2 13
M  V30 13 1 5 14
M  V30 14 1 5 15
M  V30 15 1 6 16
M  V30 16 1 7 17
M  V30 17 1 8 18
M  V30 18 1 8 19
M  V30 19 1 8 20
M  V30 20 1 9 21
M  V30 21 1 9 22
M  V30 22 1 9 23
M  V30 23 1 10 24
M  V30 24 1 10 25
M  V30 END BOND
M  V30 END CTAB
M  END
