
     RDKit          3D

  0  0  0  0  0  0  0  0  0  0999 V3000
M  V30 BEGIN CTAB
M  V30 COUNTS 17 17 0 0 0
M  V30 BEGIN ATOM
M  V30 1 N 2.25799 -0.394837 -0.487623 0
M  V30 2 C 1.27226 -0.128536 0.477527 0
M  V30 3 C -0.148244 -0.175165 0.10511 0
M  V30 4 C -0.79881 -1.30843 -0.218505 0
M  V30 5 C -2.14957 -1.25634 -0.505225 0
M  V30 6 N -2.77302 -0.142558 -0.460365 0
M  V30 7 N -2.17369 1.06372 -0.126279 0
M  V30 8 C -0.849172 1.00408 0.145349 0
M  V30 9 N -0.116423 2.22838 0.38658 0
M  V30 10 H 2.81455 0.356767 -0.888429 0
M  V30 11 H 2.41832 -1.33871 -0.839141 0
M  V30 12 H 1.32557 -1.16015 1.09717 0
M  V30 13 H 1.51332 0.530368 1.31119 0
M  V30 14 H -0.313453 -2.31607 -0.222676 0
M  V30 15 H -2.63218 -2.27695 -0.70162 0
M  V30 16 H -0.551598 3.13461 0.208338 0
M  V30 17 H 0.904141 2.17983 0.718601 0
M  V30 END ATOM
M  V30 BEGIN BOND
M  V30 1 1 1 2
M  V30 2 1 2 3
M  V30 3 2 3 4
M  V30 4 1 4 5
M  V30 5 2 5 6
M  V30 6 1 6 7
M  V30 7 2 7 8
M  V30 8 1 8 9
M  V30 9 1 8 3
M  V30 10 1 1 10
M  V30 11 1 1 11
M  V30 12 1 2 12
M  V30 13 1 2 13
M  V30 14 1 4 14
M  V30 15 1 5 15
M  V30 16 1 9 16
M  V30 17 1 9 17
M  V30 END BOND
M  V30 END CTAB
M  END
