
     RDKit          3D

  0  0  0  0  0  0  0  0  0  0999 V3000
M  V30 BEGIN CTAB
M  V30 COUNTS 27 27 0 0 0
M  V30 BEGIN ATOM
M  V30 1 N 4.13747 -0.52578 0.714407 0
M  V30 2 C 3.18309 0.279084 0.0803212 0
M  V30 3 N 3.19218 1.68697 0.256877 0
M  V30 4 N 2.29095 -0.241571 -0.66577 0
M  V30 5 N 1.31979 0.540254 -1.31549 0
M  V30 6 S -0.0503718 -0.265079 -1.95724 0
M  V30 7 O -0.617894 0.427782 -3.18437 0
M  V30 8 O 0.524469 -1.56439 -2.5557 0
M  V30 9 C -1.24831 -0.687272 -0.792784 0
M  V30 10 C -1.93053 0.265349 -0.0850542 0
M  V30 11 C -2.8665 -0.164241 0.888183 0
M  V30 12 C -3.10176 -1.49016 1.13223 0
M  V30 13 C -2.39525 -2.4018 0.396958 0
M  V30 14 C -1.47446 -2.05923 -0.559477 0
M  V30 15 C -1.77853 1.68743 -0.311309 0
M  V30 16 O -2.39806 2.56939 0.606206 0
M  V30 17 O -1.17354 2.27507 -1.2072 0
M  V30 18 H 4.96408 -0.863929 0.167218 0
M  V30 19 H 4.0912 -0.821454 1.70591 0
M  V30 20 H 4.01896 2.21566 -0.0885673 0
M  V30 21 H 2.39167 2.17003 0.719319 0
M  V30 22 H 1.45116 1.54895 -1.40651 0
M  V30 23 H -3.40778 0.593511 1.45101 0
M  V30 24 H -3.83092 -1.78833 1.89047 0
M  V30 25 H -2.59456 -3.44975 0.602809 0
M  V30 26 H -0.92214 -2.78518 -1.1347 0
M  V30 27 H -1.77444 2.84867 1.3747 0
M  V30 END ATOM
M  V30 BEGIN BOND
M  V30 1 1 1 2
M  V30 2 1 2 3
M  V30 3 2 2 4
M  V30 4 1 4 5
M  V30 5 1 5 6
M  V30 6 2 6 7
M  V30 7 2 6 8
M  V30 8 1 6 9
M  V30 9 2 9 10
M  V30 10 1 10 11
M  V30 11 2 11 12
M  V30 12 1 12 13
M  V30 13 2 13 14
M  V30 14 1 10 15
M  V30 15 1 15 16
M  V30 16 2 15 17
M  V30 17 1 14 9
M  V30 18 1 1 18
M  V30 19 1 1 19
M  V30 20 1 3 20
M  V30 21 1 3 21
M  V30 22 1 5 22
M  V30 23 1 11 23
M  V30 24 1 12 24
M  V30 25 1 13 25
M  V30 26 1 14 26
M  V30 27 1 16 27
M  V30 END BOND
M  V30 END CTAB
M  END
