
     RDKit          3D

  0  0  0  0  0  0  0  0  0  0999 V3000
M  V30 BEGIN CTAB
M  V30 COUNTS 33 35 0 0 0
M  V30 BEGIN ATOM
M  V30 1 N -4.68216 1.65852 2.03696 0
M  V30 2 C -4.08591 0.881314 1.00536 0
M  V30 3 N -3.2487 1.3998 0.114575 0
M  V30 4 C -2.66955 0.667394 -0.879651 0
M  V30 5 C -1.75252 1.33572 -1.8306 0
M  V30 6 O -0.439044 1.49291 -1.35696 0
M  V30 7 C 0.420852 0.473688 -0.983968 0
M  V30 8 O -0.0145918 -0.702677 -1.07936 0
M  V30 9 C 1.77476 0.72911 -0.499456 0
M  V30 10 C 2.39391 1.95004 -0.338939 0
M  V30 11 N 3.64345 1.77483 0.130918 0
M  V30 12 C 3.83368 0.445199 0.274487 0
M  V30 13 C 2.67151 -0.220258 -0.11672 0
M  V30 14 C 2.68576 -1.59772 -0.0353244 0
M  V30 15 C 3.78383 -2.30024 0.407896 0
M  V30 16 C 4.9374 -1.62678 0.795492 0
M  V30 17 C 4.91964 -0.255646 0.713156 0
M  V30 18 N -3.00032 -0.6339 -0.90758 0
M  V30 19 C -3.84227 -1.20912 -0.0303895 0
M  V30 20 N -4.37724 -0.429915 0.923553 0
M  V30 21 N -4.15928 -2.61478 -0.112065 0
M  V30 22 H -4.27293 1.7692 2.98312 0
M  V30 23 H -5.5761 2.13565 1.81638 0
M  V30 24 H -2.1174 2.36835 -2.0696 0
M  V30 25 H -1.76729 0.811295 -2.82587 0
M  V30 26 H 1.95102 2.91272 -0.555268 0
M  V30 27 H 4.36252 2.50629 0.355292 0
M  V30 28 H 1.80052 -2.17093 -0.329643 0
M  V30 29 H 3.74433 -3.38979 0.45358 0
M  V30 30 H 5.76828 -2.20042 1.13319 0
M  V30 31 H 5.83736 0.252519 1.02303 0
M  V30 32 H -4.45754 -3.16402 0.698724 0
M  V30 33 H -4.06597 -3.04836 -1.06063 0
M  V30 END ATOM
M  V30 BEGIN BOND
M  V30 1 1 1 2
M  V30 2 2 2 3
M  V30 3 1 3 4
M  V30 4 1 4 5
M  V30 5 1 5 6
M  V30 6 1 6 7
M  V30 7 2 7 8
M  V30 8 1 7 9
M  V30 9 2 9 10
M  V30 10 1 10 11
M  V30 11 1 11 12
M  V30 12 2 12 13
M  V30 13 1 13 14
M  V30 14 2 14 15
M  V30 15 1 15 16
M  V30 16 2 16 17
M  V30 17 2 4 18
M  V30 18 1 18 19
M  V30 19 2 19 20
M  V30 20 1 19 21
M  V30 21 1 20 2
M  V30 22 1 13 9
M  V30 23 1 17 12
M  V30 24 1 1 22
M  V30 25 1 1 23
M  V30 26 1 5 24
M  V30 27 1 5 25
M  V30 28 1 10 26
M  V30 29 1 11 27
M  V30 30 1 14 28
M  V30 31 1 15 29
M  V30 32 1 16 30
M  V30 33 1 17 31
M  V30 34 1 21 32
M  V30 35 1 21 33
M  V30 END BOND
M  V30 END CTAB
M  END
