
     RDKit          3D

  0  0  0  0  0  0  0  0  0  0999 V3000
M  V30 BEGIN CTAB
M  V30 COUNTS 47 49 0 0 0
M  V30 BEGIN ATOM
M  V30 1 O 0.154587 -2.60436 1.03829 0
M  V30 2 C 0.26557 -1.58023 0.26159 0
M  V30 3 N -0.758513 -1.30463 -0.681856 0
M  V30 4 C -0.648699 -0.137556 -1.51083 0
M  V30 5 C -1.41164 1.03432 -1.12924 0
M  V30 6 C -2.61788 1.2755 -1.80391 0
M  V30 7 C -3.42901 2.33837 -1.55317 0
M  V30 8 C -3.08137 3.2558 -0.585622 0
M  V30 9 C -1.91218 3.05785 0.096902 0
M  V30 10 C -1.08972 1.96007 -0.173821 0
M  V30 11 C -1.85854 -2.2362 -0.779383 0
M  V30 12 C -2.9987 -1.96718 0.122349 0
M  V30 13 C -2.85048 -1.14991 1.21774 0
M  V30 14 C -3.8789 -0.863077 2.09259 0
M  V30 15 C -5.11094 -1.41932 1.86072 0
M  V30 16 C -5.27302 -2.24841 0.755552 0
M  V30 17 C -4.24024 -2.51439 -0.0921018 0
M  V30 18 C 1.49681 -0.811007 0.473036 0
M  V30 19 S 2.90593 -1.55873 -0.42487 0
M  V30 20 C 4.33498 -0.506338 -0.124014 0
M  V30 21 N 5.54385 -0.797619 -0.647693 0
M  V30 22 C 6.62574 -0.0112682 -0.435723 0
M  V30 23 N 7.87771 -0.35006 -1.00149 0
M  V30 24 N 6.50018 1.09415 0.317048 0
M  V30 25 C 5.29373 1.4226 0.864784 0
M  V30 26 N 4.26561 0.610119 0.621141 0
M  V30 27 N 5.12513 2.57387 1.65841 0
M  V30 28 H 0.43241 0.167702 -1.54705 0
M  V30 29 H -0.96973 -0.473957 -2.53694 0
M  V30 30 H -2.93681 0.568186 -2.58644 0
M  V30 31 H -4.36782 2.51061 -2.09058 0
M  V30 32 H -3.74542 4.09612 -0.400782 0
M  V30 33 H -1.60692 3.75514 0.862678 0
M  V30 34 H -0.181901 1.85368 0.396452 0
M  V30 35 H -2.26343 -2.2827 -1.82406 0
M  V30 36 H -1.52607 -3.28785 -0.555592 0
M  V30 37 H -1.90416 -0.665923 1.46697 0
M  V30 38 H -3.70788 -0.20333 2.95192 0
M  V30 39 H -5.92914 -1.2048 2.53999 0
M  V30 40 H -6.28082 -2.65581 0.632924 0
M  V30 41 H -4.3891 -3.15459 -0.936445 0
M  V30 42 H 1.48083 0.234849 0.186711 0
M  V30 43 H 1.8013 -0.827423 1.5594 0
M  V30 44 H 8.79214 -0.0400655 -0.589962 0
M  V30 45 H 7.94658 -0.933666 -1.86933 0
M  V30 46 H 4.99437 2.47324 2.67876 0
M  V30 47 H 5.13154 3.50824 1.22495 0
M  V30 END ATOM
M  V30 BEGIN BOND
M  V30 1 2 1 2
M  V30 2 1 2 3
M  V30 3 1 3 4
M  V30 4 1 4 5
M  V30 5 2 5 6
M  V30 6 1 6 7
M  V30 7 2 7 8
M  V30 8 1 8 9
M  V30 9 2 9 10
M  V30 10 1 3 11
M  V30 11 1 11 12
M  V30 12 2 12 13
M  V30 13 1 13 14
M  V30 14 2 14 15
M  V30 15 1 15 16
M  V30 16 2 16 17
M  V30 17 1 2 18
M  V30 18 1 18 19
M  V30 19 1 19 20
M  V30 20 2 20 21
M  V30 21 1 21 22
M  V30 22 1 22 23
M  V30 23 2 22 24
M  V30 24 1 24 25
M  V30 25 2 25 26
M  V30 26 1 25 27
M  V30 27 1 10 5
M  V30 28 1 17 12
M  V30 29 1 26 20
M  V30 30 1 4 28
M  V30 31 1 4 29
M  V30 32 1 6 30
M  V30 33 1 7 31
M  V30 34 1 8 32
M  V30 35 1 9 33
M  V30 36 1 10 34
M  V30 37 1 11 35
M  V30 38 1 11 36
M  V30 39 1 13 37
M  V30 40 1 14 38
M  V30 41 1 15 39
M  V30 42 1 16 40
M  V30 43 1 17 41
M  V30 44 1 18 42
M  V30 45 1 18 43
M  V30 46 1 23 44
M  V30 47 1 23 45
M  V30 48 1 27 46
M  V30 49 1 27 47
M  V30 END BOND
M  V30 END CTAB
M  END
