
     RDKit          3D

  0  0  0  0  0  0  0  0  0  0999 V3000
M  V30 BEGIN CTAB
M  V30 COUNTS 41 42 0 0 0
M  V30 BEGIN ATOM
M  V30 1 C -4.24754 -1.42472 0.344179 0
M  V30 2 C -4.88267 -0.0876424 0.222865 0
M  V30 3 C -4.09487 1.0837 -0.163128 0
M  V30 4 C -2.94462 1.5314 0.621634 0
M  V30 5 C -1.71963 0.715581 0.74027 0
M  V30 6 C -1.09614 0.448649 -0.661758 0
M  V30 7 C 0.215272 -0.243572 -0.464745 0
M  V30 8 C 1.41157 0.417913 -0.642986 0
M  V30 9 C 1.50333 1.71102 -1.36664 0
M  V30 10 C 2.58823 -0.215717 -0.252341 0
M  V30 11 C 2.51652 -1.50525 0.299716 0
M  V30 12 C 1.30157 -2.15144 0.461253 0
M  V30 13 C 0.14386 -1.53237 0.0848606 0
M  V30 14 N 3.67058 -2.06221 0.68289 0
M  V30 15 C 4.86108 -1.45102 0.562929 0
M  V30 16 N 6.08438 -2.08969 1.00516 0
M  V30 17 N 4.91846 -0.224994 0.0360662 0
M  V30 18 C 3.79003 0.419715 -0.38032 0
M  V30 19 N 3.96077 1.73461 -0.902866 0
M  V30 20 H -3.41587 -1.58056 -0.346108 0
M  V30 21 H -3.9135 -1.58288 1.37415 0
M  V30 22 H -5.03266 -2.24159 0.207861 0
M  V30 23 H -5.43946 0.183848 1.18946 0
M  V30 24 H -5.73349 -0.252474 -0.555669 0
M  V30 25 H -4.83092 1.96899 -0.173547 0
M  V30 26 H -3.77788 1.0681 -1.25893 0
M  V30 27 H -3.28696 1.75396 1.70322 0
M  V30 28 H -2.60971 2.54168 0.198727 0
M  V30 29 H -1.8691 -0.264202 1.26174 0
M  V30 30 H -0.940747 1.25565 1.30849 0
M  V30 31 H -1.82168 -0.141207 -1.24259 0
M  V30 32 H -0.958367 1.47135 -1.04474 0
M  V30 33 H 2.06038 1.62868 -2.34384 0
M  V30 34 H 1.5691 2.61355 -0.807456 0
M  V30 35 H 0.462797 1.80509 -1.86842 0
M  V30 36 H 1.27197 -3.14482 0.890226 0
M  V30 37 H -0.851636 -1.97548 0.187798 0
M  V30 38 H 6.16237 -3.11488 1.05977 0
M  V30 39 H 6.90105 -1.48438 1.27594 0
M  V30 40 H 4.27698 1.84847 -1.88631 0
M  V30 41 H 3.79713 2.56913 -0.315384 0
M  V30 END ATOM
M  V30 BEGIN BOND
M  V30 1 1 1 2
M  V30 2 1 2 3
M  V30 3 1 3 4
M  V30 4 1 4 5
M  V30 5 1 5 6
M  V30 6 1 6 7
M  V30 7 2 7 8
M  V30 8 1 8 9
M  V30 9 1 8 10
M  V30 10 2 10 11
M  V30 11 1 11 12
M  V30 12 2 12 13
M  V30 13 1 11 14
M  V30 14 2 14 15
M  V30 15 1 15 16
M  V30 16 1 15 17
M  V30 17 2 17 18
M  V30 18 1 18 19
M  V30 19 1 13 7
M  V30 20 1 18 10
M  V30 21 1 1 20
M  V30 22 1 1 21
M  V30 23 1 1 22
M  V30 24 1 2 23
M  V30 25 1 2 24
M  V30 26 1 3 25
M  V30 27 1 3 26
M  V30 28 1 4 27
M  V30 29 1 4 28
M  V30 30 1 5 29
M  V30 31 1 5 30
M  V30 32 1 6 31
M  V30 33 1 6 32
M  V30 34 1 9 33
M  V30 35 1 9 34
M  V30 36 1 9 35
M  V30 37 1 12 36
M  V30 38 1 13 37
M  V30 39 1 16 38
M  V30 40 1 16 39
M  V30 41 1 19 40
M  V30 42 1 19 41
M  V30 END BOND
M  V30 END CTAB
M  END
