
     RDKit          3D

  0  0  0  0  0  0  0  0  0  0999 V3000
M  V30 BEGIN CTAB
M  V30 COUNTS 42 44 0 0 0
M  V30 BEGIN ATOM
M  V30 1 N -5.9777 0.669305 -0.804303 0
M  V30 2 C -5.49815 -0.42081 -0.0601454 0 CFG=2
M  V30 3 C -4.49543 -0.0656934 1.00467 0
M  V30 4 C -3.44618 -0.9943 0.389329 0 CFG=1
M  V30 5 C -4.40654 -1.24049 -0.728849 0
M  V30 6 C -2.17362 -0.310763 0.0395589 0
M  V30 7 C -0.959583 -0.680565 0.632345 0
M  V30 8 C 0.21587 -0.0410984 0.307174 0
M  V30 9 N 0.179305 0.95156 -0.595462 0
M  V30 10 C -0.980505 1.33684 -1.19061 0
M  V30 11 N -2.11381 0.691961 -0.851112 0
M  V30 12 N -1.02703 2.38784 -2.15176 0
M  V30 13 N 1.45476 -0.40508 0.897162 0
M  V30 14 C 2.5341 -0.911206 0.0978273 0
M  V30 15 C 3.72153 0.021059 0.235395 0
M  V30 16 S 3.8637 1.45105 1.15394 0
M  V30 17 C 5.46668 1.86983 0.767855 0
M  V30 18 C 5.85061 0.867959 -0.0792698 0
M  V30 19 C 4.95143 -0.0887087 -0.356615 0
M  V30 20 C 5.22941 -1.268 -1.28061 0
M  V30 21 C 1.56262 -0.243001 2.33194 0
M  V30 22 H -6.76388 1.14236 -0.430582 0
M  V30 23 H -5.28686 1.14632 -1.3189 0
M  V30 24 H -6.34663 -1.05886 0.300723 0
M  V30 25 H -4.83369 -0.393507 1.99986 0
M  V30 26 H -4.22366 1.00641 0.986351 0
M  V30 27 H -3.23703 -1.86375 1.05592 0
M  V30 28 H -4.71355 -2.29918 -0.837791 0
M  V30 29 H -4.12786 -0.7892 -1.69192 0
M  V30 30 H -0.946973 -1.48213 1.35592 0
M  V30 31 H -0.955962 3.36039 -1.79283 0
M  V30 32 H -1.1284 2.17468 -3.15921 0
M  V30 33 H 2.28237 -0.9159 -0.979507 0
M  V30 34 H 2.81923 -1.90103 0.477175 0
M  V30 35 H 6.07287 2.73218 1.1035 0
M  V30 36 H 6.87714 0.874709 -0.504583 0
M  V30 37 H 4.88465 -2.18034 -0.761069 0
M  V30 38 H 4.70531 -1.13893 -2.24156 0
M  V30 39 H 6.31191 -1.35514 -1.48162 0
M  V30 40 H 1.31527 0.775515 2.65707 0
M  V30 41 H 0.793494 -0.915707 2.78373 0
M  V30 42 H 2.55077 -0.496583 2.72087 0
M  V30 END ATOM
M  V30 BEGIN BOND
M  V30 1 1 1 2
M  V30 2 1 2 3
M  V30 3 1 3 4
M  V30 4 1 4 5
M  V30 5 1 4 6
M  V30 6 2 6 7
M  V30 7 1 7 8
M  V30 8 2 8 9
M  V30 9 1 9 10
M  V30 10 2 10 11
M  V30 11 1 10 12
M  V30 12 1 8 13
M  V30 13 1 13 14
M  V30 14 1 14 15
M  V30 15 1 15 16
M  V30 16 1 16 17
M  V30 17 2 17 18
M  V30 18 1 18 19
M  V30 19 1 19 20
M  V30 20 1 13 21
M  V30 21 1 5 2
M  V30 22 1 11 6
M  V30 23 2 19 15
M  V30 24 1 1 22
M  V30 25 1 1 23
M  V30 26 1 2 24 CFG=1
M  V30 27 1 3 25
M  V30 28 1 3 26
M  V30 29 1 4 27 CFG=1
M  V30 30 1 5 28
M  V30 31 1 5 29
M  V30 32 1 7 30
M  V30 33 1 12 31
M  V30 34 1 12 32
M  V30 35 1 14 33
M  V30 36 1 14 34
M  V30 37 1 17 35
M  V30 38 1 18 36
M  V30 39 1 20 37
M  V30 40 1 20 38
M  V30 41 1 20 39
M  V30 42 1 21 40
M  V30 43 1 21 41
M  V30 44 1 21 42
M  V30 END BOND
M  V30 END CTAB
M  END
