
     RDKit          3D

  0  0  0  0  0  0  0  0  0  0999 V3000
M  V30 BEGIN CTAB
M  V30 COUNTS 24 25 0 0 0
M  V30 BEGIN ATOM
M  V30 1 N -4.2 0.883356 0.898873 0
M  V30 2 C -4.17543 -0.0360895 -0.221963 0
M  V30 3 C -3.02425 -1.04795 -0.0849493 0
M  V30 4 C -1.73692 -0.278762 -0.0438246 0
M  V30 5 S -1.56046 1.4144 -0.130197 0
M  V30 6 C 0.145017 1.49288 -0.0226377 0
M  V30 7 C 0.478811 0.161677 0.0763346 0
M  V30 8 N -0.498542 -0.696038 0.0617426 0
M  V30 9 C 1.91237 -0.230256 0.192931 0
M  V30 10 N 2.40218 -1.47755 0.297037 0
M  V30 11 N 3.7368 -1.41448 0.380633 0
M  V30 12 C 4.11008 -0.130761 0.330843 0
M  V30 13 N 2.98495 0.573137 0.216612 0
M  V30 14 N 5.44368 0.334677 0.3911 0
M  V30 15 H -3.5057 0.678195 1.62248 0
M  V30 16 H -4.25207 1.8735 0.592038 0
M  V30 17 H -3.96344 0.591374 -1.13499 0
M  V30 18 H -5.13085 -0.542774 -0.331382 0
M  V30 19 H -3.08591 -1.69828 -0.98019 0
M  V30 20 H -3.18578 -1.6303 0.841016 0
M  V30 21 H 0.822282 2.36751 -0.0287333 0
M  V30 22 H 4.36437 -2.21891 0.468148 0
M  V30 23 H 5.95304 0.579106 -0.485851 0
M  V30 24 H 5.96579 0.452335 1.28639 0
M  V30 END ATOM
M  V30 BEGIN BOND
M  V30 1 1 1 2
M  V30 2 1 2 3
M  V30 3 1 3 4
M  V30 4 1 4 5
M  V30 5 1 5 6
M  V30 6 2 6 7
M  V30 7 1 7 8
M  V30 8 1 7 9
M  V30 9 2 9 10
M  V30 10 1 10 11
M  V30 11 1 11 12
M  V30 12 2 12 13
M  V30 13 1 12 14
M  V30 14 2 8 4
M  V30 15 1 13 9
M  V30 16 1 1 15
M  V30 17 1 1 16
M  V30 18 1 2 17
M  V30 19 1 2 18
M  V30 20 1 3 19
M  V30 21 1 3 20
M  V30 22 1 6 21
M  V30 23 1 11 22
M  V30 24 1 14 23
M  V30 25 1 14 24
M  V30 END BOND
M  V30 END CTAB
M  END
