
     RDKit          3D

  0  0  0  0  0  0  0  0  0  0999 V3000
M  V30 BEGIN CTAB
M  V30 COUNTS 23 23 0 0 0
M  V30 BEGIN ATOM
M  V30 1 C 3.56766 0.785388 0.126897 0
M  V30 2 C 2.09484 0.530983 0.0827723 0
M  V30 3 N 1.71192 -0.76317 0.0958506 0
M  V30 4 C 0.412218 -1.09576 0.0590778 0
M  V30 5 C 0.0370617 -2.52701 0.0751626 0
M  V30 6 C -0.525338 -0.0695612 0.00723625 0
M  V30 7 C -1.93675 -0.466615 -0.0319333 0
M  V30 8 N -2.86551 0.619945 -0.0846937 0
M  V30 9 C -0.142871 1.24456 -0.00625757 0
M  V30 10 N -1.12454 2.25049 -0.0591646 0
M  V30 11 N 1.18651 1.51006 0.0328499 0
M  V30 12 H 4.06444 0.268539 -0.739004 0
M  V30 13 H 3.94189 0.275425 1.03876 0
M  V30 14 H 3.80085 1.86701 0.113591 0
M  V30 15 H -1.05576 -2.65779 -0.0855149 0
M  V30 16 H 0.634288 -3.01772 -0.736411 0
M  V30 17 H 0.388442 -2.94679 1.03285 0
M  V30 18 H -2.13601 -1.11709 -0.918552 0
M  V30 19 H -2.17538 -1.09051 0.871072 0
M  V30 20 H -3.77833 0.270991 0.33328 0
M  V30 21 H -3.12863 0.887551 -1.07313 0
M  V30 22 H -1.46664 2.61525 -0.961507 0
M  V30 23 H -1.50436 2.62582 0.826777 0
M  V30 END ATOM
M  V30 BEGIN BOND
M  V30 1 1 1 2
M  V30 2 2 2 3
M  V30 3 1 3 4
M  V30 4 1 4 5
M  V30 5 2 4 6
M  V30 6 1 6 7
M  V30 7 1 7 8
M  V30 8 1 6 9
M  V30 9 1 9 10
M  V30 10 2 9 11
M  V30 11 1 11 2
M  V30 12 1 1 12
M  V30 13 1 1 13
M  V30 14 1 1 14
M  V30 15 1 5 15
M  V30 16 1 5 16
M  V30 17 1 5 17
M  V30 18 1 7 18
M  V30 19 1 7 19
M  V30 20 1 8 20
M  V30 21 1 8 21
M  V30 22 1 10 22
M  V30 23 1 10 23
M  V30 END BOND
M  V30 END CTAB
M  END
