
     RDKit          3D

  0  0  0  0  0  0  0  0  0  0999 V3000
M  V30 BEGIN CTAB
M  V30 COUNTS 16 16 0 0 0
M  V30 BEGIN ATOM
M  V30 1 N -0.520197 1.8505 -0.643272 0
M  V30 2 C -0.93285 0.531816 -0.30859 0
M  V30 3 N -2.22187 0.123212 -0.117034 0
M  V30 4 C -2.1861 -1.18828 0.182134 0
M  V30 5 N -0.899331 -1.58172 0.175355 0
M  V30 6 C -0.0903926 -0.539505 -0.12573 0
M  V30 7 S 1.67168 -0.577138 -0.2504 0
M  V30 8 O 2.06753 0.391382 -1.29839 0
M  V30 9 O 2.09447 -1.95284 -0.723776 0
M  V30 10 N 2.29799 -0.22268 1.30067 0
M  V30 11 H 0.239111 2.04464 -1.30122 0
M  V30 12 H -1.00997 2.65326 -0.201376 0
M  V30 13 H -3.03577 0.750969 -0.199971 0
M  V30 14 H -3.07871 -1.76394 0.382163 0
M  V30 15 H 3.00277 0.542936 1.30181 0
M  V30 16 H 2.60165 -1.06263 1.82763 0
M  V30 END ATOM
M  V30 BEGIN BOND
M  V30 1 1 1 2
M  V30 2 1 2 3
M  V30 3 1 3 4
M  V30 4 2 4 5
M  V30 5 1 5 6
M  V30 6 1 6 7
M  V30 7 2 7 8
M  V30 8 2 7 9
M  V30 9 1 7 10
M  V30 10 2 6 2
M  V30 11 1 1 11
M  V30 12 1 1 12
M  V30 13 1 3 13
M  V30 14 1 4 14
M  V30 15 1 10 15
M  V30 16 1 10 16
M  V30 END BOND
M  V30 END CTAB
M  END
