
     RDKit          3D

  0  0  0  0  0  0  0  0  0  0999 V3000
M  V30 BEGIN CTAB
M  V30 COUNTS 23 23 0 0 0
M  V30 BEGIN ATOM
M  V30 1 N -2.22597 -2.57716 0.85403 0
M  V30 2 N -1.26395 -1.59773 0.591878 0
M  V30 3 C -1.43967 -0.649186 -0.25894 0
M  V30 4 C -0.388439 0.343092 -0.48324 0
M  V30 5 C -0.530107 1.37777 -1.38428 0
M  V30 6 C 0.482538 2.29666 -1.57082 0
M  V30 7 C 1.67376 2.23192 -0.877108 0
M  V30 8 C 1.82103 1.19905 0.0255174 0
M  V30 9 C 0.804469 0.282828 0.207816 0
M  V30 10 O 0.93365 -0.771942 1.11813 0
M  V30 11 C 2.14302 -0.87808 1.85465 0
M  V30 12 Br 3.06123 3.52163 -1.15713 0
M  V30 13 N -2.6656 -0.600098 -0.958901 0
M  V30 14 H -1.96142 -3.52765 1.19253 0
M  V30 15 H -3.24564 -2.39733 0.72192 0
M  V30 16 H -1.47067 1.43943 -1.94043 0
M  V30 17 H 0.365129 3.09993 -2.27434 0
M  V30 18 H 2.74383 1.10669 0.596556 0
M  V30 19 H 2.24568 -0.0380825 2.5687 0
M  V30 20 H 2.16691 -1.86601 2.3763 0
M  V30 21 H 3.03906 -0.830908 1.18999 0
M  V30 22 H -2.72781 -0.556137 -1.99838 0
M  V30 23 H -3.56103 -0.608679 -0.394443 0
M  V30 END ATOM
M  V30 BEGIN BOND
M  V30 1 1 1 2
M  V30 2 2 2 3
M  V30 3 1 3 4
M  V30 4 2 4 5
M  V30 5 1 5 6
M  V30 6 2 6 7
M  V30 7 1 7 8
M  V30 8 2 8 9
M  V30 9 1 9 10
M  V30 10 1 10 11
M  V30 11 1 7 12
M  V30 12 1 3 13
M  V30 13 1 9 4
M  V30 14 1 1 14
M  V30 15 1 1 15
M  V30 16 1 5 16
M  V30 17 1 6 17
M  V30 18 1 8 18
M  V30 19 1 11 19
M  V30 20 1 11 20
M  V30 21 1 11 21
M  V30 22 1 13 22
M  V30 23 1 13 23
M  V30 END BOND
M  V30 END CTAB
M  END
