
     RDKit          3D

  0  0  0  0  0  0  0  0  0  0999 V3000
M  V30 BEGIN CTAB
M  V30 COUNTS 32 34 0 0 0
M  V30 BEGIN ATOM
M  V30 1 N -4.25683 1.94925 1.36559 0
M  V30 2 C -4.18666 0.857438 0.47316 0
M  V30 3 N -5.09676 0.300637 -0.242003 0
M  V30 4 N -4.61339 -0.747192 -0.985177 0
M  V30 5 C -3.33144 -0.911266 -0.770314 0
M  V30 6 N -2.51679 -1.89884 -1.37179 0
M  V30 7 C -2.94363 0.103308 0.18455 0
M  V30 8 N -1.78603 0.327024 0.690996 0
M  V30 9 N -0.622108 -0.372435 0.426373 0
M  V30 10 C 0.64336 0.244757 0.300923 0
M  V30 11 C 1.7895 -0.444516 -0.000763245 0
M  V30 12 C 1.76011 -1.80467 -0.215959 0
M  V30 13 C 2.89969 -2.54935 -0.527611 0
M  V30 14 C 4.08814 -1.8609 -0.615722 0
M  V30 15 C 4.14416 -0.49918 -0.404741 0
M  V30 16 C 3.01742 0.230232 -0.0976352 0
M  V30 17 C 3.05946 1.59073 0.113067 0
M  V30 18 C 1.92729 2.31448 0.418028 0
M  V30 19 C 0.750675 1.61488 0.502314 0
M  V30 20 O -0.428608 2.28913 0.807618 0
M  V30 21 H -3.77978 1.88624 2.30118 0
M  V30 22 H -4.76777 2.82483 1.13044 0
M  V30 23 H -2.16684 -1.76756 -2.34562 0
M  V30 24 H -2.25067 -2.76219 -0.871623 0
M  V30 25 H -0.701914 -1.39449 0.327171 0
M  V30 26 H 0.846938 -2.38106 -0.157722 0
M  V30 27 H 2.82477 -3.61328 -0.686968 0
M  V30 28 H 5.00684 -2.36186 -0.85198 0
M  V30 29 H 5.0711 0.0592809 -0.469564 0
M  V30 30 H 4.03199 2.09713 0.0303684 0
M  V30 31 H 1.97512 3.39393 0.583423 0
M  V30 32 H -0.387322 3.28552 0.959991 0
M  V30 END ATOM
M  V30 BEGIN BOND
M  V30 1 1 1 2
M  V30 2 2 2 3
M  V30 3 1 3 4
M  V30 4 2 4 5
M  V30 5 1 5 6
M  V30 6 1 5 7
M  V30 7 2 7 8
M  V30 8 1 8 9
M  V30 9 1 9 10
M  V30 10 1 10 11
M  V30 11 2 11 12
M  V30 12 1 12 13
M  V30 13 2 13 14
M  V30 14 1 14 15
M  V30 15 2 15 16
M  V30 16 1 16 17
M  V30 17 2 17 18
M  V30 18 1 18 19
M  V30 19 1 19 20
M  V30 20 1 7 2
M  V30 21 2 19 10
M  V30 22 1 16 11
M  V30 23 1 1 21
M  V30 24 1 1 22
M  V30 25 1 6 23
M  V30 26 1 6 24
M  V30 27 1 9 25
M  V30 28 1 12 26
M  V30 29 1 13 27
M  V30 30 1 14 28
M  V30 31 1 15 29
M  V30 32 1 17 30
M  V30 33 1 18 31
M  V30 34 1 20 32
M  V30 END BOND
M  V30 END CTAB
M  END
