
     RDKit          3D

  0  0  0  0  0  0  0  0  0  0999 V3000
M  V30 BEGIN CTAB
M  V30 COUNTS 24 24 0 0 0
M  V30 BEGIN ATOM
M  V30 1 N 1.73313 0.263919 -1.30809 0
M  V30 2 C 1.2225 -0.425668 -0.155992 0
M  V30 3 N 1.83403 -0.28571 0.971456 0
M  V30 4 C 2.99584 0.534942 1.08562 0
M  V30 5 N 2.92249 1.74915 1.51642 0
M  V30 6 N 4.23768 -0.0207092 0.711926 0
M  V30 7 N 0.0637129 -1.23324 -0.309857 0
M  V30 8 C -1.24278 -0.727037 -0.125571 0
M  V30 9 C -2.33082 -1.557 -0.288213 0
M  V30 10 C -3.59198 -1.00865 -0.0951977 0
M  V30 11 C -3.76904 0.319058 0.247843 0
M  V30 12 C -2.66913 1.13981 0.40764 0
M  V30 13 C -1.42339 0.613227 0.220791 0
M  V30 14 Cl -5.40002 0.925044 0.471397 0
M  V30 15 H 2.32529 1.11866 -1.22633 0
M  V30 16 H 1.52628 -0.0708751 -2.27023 0
M  V30 17 H 2.03855 2.20342 1.80274 0
M  V30 18 H 4.77133 -0.605647 1.37158 0
M  V30 19 H 4.61335 0.161283 -0.230656 0
M  V30 20 H 0.197775 -2.23276 -0.568056 0
M  V30 21 H -2.21403 -2.61255 -0.559901 0
M  V30 22 H -4.44466 -1.68354 -0.228824 0
M  V30 23 H -2.85461 2.18061 0.678573 0
M  V30 24 H -0.54151 1.25427 0.344621 0
M  V30 END ATOM
M  V30 BEGIN BOND
M  V30 1 1 1 2
M  V30 2 2 2 3
M  V30 3 1 3 4
M  V30 4 2 4 5
M  V30 5 1 4 6
M  V30 6 1 2 7
M  V30 7 1 7 8
M  V30 8 2 8 9
M  V30 9 1 9 10
M  V30 10 2 10 11
M  V30 11 1 11 12
M  V30 12 2 12 13
M  V30 13 1 11 14
M  V30 14 1 13 8
M  V30 15 1 1 15
M  V30 16 1 1 16
M  V30 17 1 5 17
M  V30 18 1 6 18
M  V30 19 1 6 19
M  V30 20 1 7 20
M  V30 21 1 9 21
M  V30 22 1 10 22
M  V30 23 1 12 23
M  V30 24 1 13 24
M  V30 END BOND
M  V30 END CTAB
M  END
