
     RDKit          3D

  0  0  0  0  0  0  0  0  0  0999 V3000
M  V30 BEGIN CTAB
M  V30 COUNTS 22 22 0 0 0
M  V30 BEGIN ATOM
M  V30 1 N -3.2231 0.639048 -0.173753 0
M  V30 2 C -1.79068 0.904583 -0.0822378 0
M  V30 3 C -1.14405 -0.390746 0.351694 0
M  V30 4 C 0.320477 -0.202509 0.463317 0
M  V30 5 C 1.08869 -1.37179 0.500374 0
M  V30 6 C 2.45108 -1.25 0.602171 0
M  V30 7 C 3.04932 -0.00843864 0.666399 0
M  V30 8 C 2.32129 1.16242 0.632299 0
M  V30 9 C 0.940198 1.02387 0.528838 0
M  V30 10 Br 3.16719 2.86715 0.722284 0
M  V30 11 F 4.41057 0.122328 0.768266 0
M  V30 12 N -1.46801 -1.39379 -0.67274 0
M  V30 13 H -3.42181 0.18743 -1.09262 0
M  V30 14 H -3.74461 1.53765 -0.0614697 0
M  V30 15 H -1.62698 1.68742 0.687856 0
M  V30 16 H -1.43923 1.15925 -1.0803 0
M  V30 17 H -1.61002 -0.659376 1.32145 0
M  V30 18 H 0.60017 -2.34084 0.448668 0
M  V30 19 H 3.04836 -2.15403 0.63106 0
M  V30 20 H 0.367674 1.92235 0.500862 0
M  V30 21 H -1.02486 -1.09237 -1.5455 0
M  V30 22 H -1.27166 -2.34963 -0.3633 0
M  V30 END ATOM
M  V30 BEGIN BOND
M  V30 1 1 1 2
M  V30 2 1 2 3
M  V30 3 1 3 4
M  V30 4 2 4 5
M  V30 5 1 5 6
M  V30 6 2 6 7
M  V30 7 1 7 8
M  V30 8 2 8 9
M  V30 9 1 8 10
M  V30 10 1 7 11
M  V30 11 1 3 12
M  V30 12 1 9 4
M  V30 13 1 1 13
M  V30 14 1 1 14
M  V30 15 1 2 15
M  V30 16 1 2 16
M  V30 17 1 3 17
M  V30 18 1 5 18
M  V30 19 1 6 19
M  V30 20 1 9 20
M  V30 21 1 12 21
M  V30 22 1 12 22
M  V30 END BOND
M  V30 END CTAB
M  END
