
     RDKit          3D

  0  0  0  0  0  0  0  0  0  0999 V3000
M  V30 BEGIN CTAB
M  V30 COUNTS 54 59 0 0 0
M  V30 BEGIN ATOM
M  V30 1 N 3.41077 3.11609 3.48768 0
M  V30 2 C 2.74525 2.28211 2.51132 0
M  V30 3 N 3.46663 1.54878 1.66671 0
M  V30 4 C 2.84868 0.7684 0.753176 0
M  V30 5 C 1.49355 0.750158 0.717555 0
M  V30 6 C 0.728917 1.50263 1.58395 0
M  V30 7 N 1.41299 2.26568 2.47804 0
M  V30 8 C -0.728769 1.50874 1.57557 0
M  V30 9 N -1.37188 2.28108 2.46635 0
M  V30 10 C -2.72496 2.33688 2.51689 0
M  V30 11 N -3.40759 3.15202 3.45699 0
M  V30 12 N -3.41683 1.59159 1.64342 0
M  V30 13 C -2.85398 0.79332 0.721639 0
M  V30 14 C -1.47843 0.760112 0.697595 0
M  V30 15 C -3.69139 0.0146328 -0.1922 0
M  V30 16 C -3.17081 -0.816213 -1.15233 0
M  V30 17 C -4.04349 -1.5097 -1.96755 0
M  V30 18 C -5.41553 -1.41878 -1.87639 0
M  V30 19 C -6.23148 -2.13948 -2.72264 0
M  V30 20 C -7.59639 -2.01095 -2.5877 0
M  V30 21 C -8.1209 -1.17061 -1.61658 0
M  V30 22 C -7.30136 -0.464956 -0.787771 0
M  V30 23 C -5.93273 -0.573425 -0.899354 0
M  V30 24 C -5.06705 0.114307 -0.0908997 0
M  V30 25 C 3.70475 -0.0250896 -0.159935 0
M  V30 26 C 5.07899 0.0472245 -0.0613915 0
M  V30 27 C 5.90759 -0.678498 -0.896015 0
M  V30 28 C 7.28773 -0.60703 -0.798371 0
M  V30 29 C 8.13669 -1.32054 -1.61856 0
M  V30 30 C 7.61395 -2.15371 -2.59233 0
M  V30 31 C 6.23985 -2.22377 -2.68826 0
M  V30 32 C 5.38924 -1.5093 -1.86697 0
M  V30 33 C 4.01844 -1.58645 -1.97109 0
M  V30 34 C 3.17852 -0.847024 -1.12067 0
M  V30 35 H 4.39567 3.36009 3.33097 0
M  V30 36 H 2.87924 3.4484 4.32275 0
M  V30 37 H 0.998267 0.125659 -0.0135261 0
M  V30 38 H -3.16165 4.16322 3.51655 0
M  V30 39 H -4.15178 2.80058 4.10337 0
M  V30 40 H -0.985602 0.144827 -0.0122701 0
M  V30 41 H -2.08555 -0.926053 -1.2685 0
M  V30 42 H -3.62863 -2.16546 -2.7253 0
M  V30 43 H -5.83389 -2.80115 -3.48744 0
M  V30 44 H -8.288 -2.55017 -3.22172 0
M  V30 45 H -9.19198 -1.09721 -1.54261 0
M  V30 46 H -7.73448 0.181372 -0.0411694 0
M  V30 47 H -5.51738 0.768431 0.664589 0
M  V30 48 H 5.50104 0.702605 0.704675 0
M  V30 49 H 7.69103 0.0509499 -0.0294679 0
M  V30 50 H 9.21634 -1.20627 -1.47437 0
M  V30 51 H 8.27048 -2.71971 -3.24314 0
M  V30 52 H 5.80661 -2.87889 -3.45416 0
M  V30 53 H 3.60238 -2.23433 -2.7284 0
M  V30 54 H 2.10891 -0.945107 -1.24593 0
M  V30 END ATOM
M  V30 BEGIN BOND
M  V30 1 1 1 2
M  V30 2 2 2 3
M  V30 3 1 3 4
M  V30 4 2 4 5
M  V30 5 1 5 6
M  V30 6 2 6 7
M  V30 7 1 6 8
M  V30 8 2 8 9
M  V30 9 1 9 10
M  V30 10 1 10 11
M  V30 11 2 10 12
M  V30 12 1 12 13
M  V30 13 2 13 14
M  V30 14 1 13 15
M  V30 15 2 15 16
M  V30 16 1 16 17
M  V30 17 2 17 18
M  V30 18 1 18 19
M  V30 19 2 19 20
M  V30 20 1 20 21
M  V30 21 2 21 22
M  V30 22 1 22 23
M  V30 23 2 23 24
M  V30 24 1 4 25
M  V30 25 2 25 26
M  V30 26 1 26 27
M  V30 27 2 27 28
M  V30 28 1 28 29
M  V30 29 2 29 30
M  V30 30 1 30 31
M  V30 31 2 31 32
M  V30 32 1 32 33
M  V30 33 2 33 34
M  V30 34 1 7 2
M  V30 35 1 14 8
M  V30 36 1 24 15
M  V30 37 1 34 25
M  V30 38 1 23 18
M  V30 39 1 32 27
M  V30 40 1 1 35
M  V30 41 1 1 36
M  V30 42 1 5 37
M  V30 43 1 11 38
M  V30 44 1 11 39
M  V30 45 1 14 40
M  V30 46 1 16 41
M  V30 47 1 17 42
M  V30 48 1 19 43
M  V30 49 1 20 44
M  V30 50 1 21 45
M  V30 51 1 22 46
M  V30 52 1 24 47
M  V30 53 1 26 48
M  V30 54 1 28 49
M  V30 55 1 29 50
M  V30 56 1 30 51
M  V30 57 1 31 52
M  V30 58 1 33 53
M  V30 59 1 34 54
M  V30 END BOND
M  V30 END CTAB
M  END
