
     RDKit          3D

  0  0  0  0  0  0  0  0  0  0999 V3000
M  V30 BEGIN CTAB
M  V30 COUNTS 82 85 0 0 0
M  V30 BEGIN ATOM
M  V30 1 C -4.36378 1.85541 0.36349 0
M  V30 2 C -2.93859 1.51971 0.730703 0
M  V30 3 C -2.48164 2.58673 1.74265 0
M  V30 4 Si -2.62567 -0.162958 1.34474 0 VAL=4
M  V30 5 O -1.57901 -0.0433431 2.74457 0
M  V30 6 C -0.38441 -0.673349 2.53448 0
M  V30 7 C 0.188283 -0.0717884 1.27193 0 CFG=1
M  V30 8 O 1.10047 0.946888 1.57658 0
M  V30 9 C 1.95749 0.904176 0.48852 0 CFG=2
M  V30 10 C 2.34582 -0.554514 0.494028 0 CFG=2
M  V30 11 O 2.927 -1.05007 -0.609531 0
M  V30 12 C 3.72382 -2.08085 -0.453586 0
M  V30 13 C 5.00801 -2.09802 0.32062 0
M  V30 14 O 4.62097 -1.79686 1.6675 0
M  V30 15 N 5.05132 -2.86508 2.44698 0
M  V30 16 C 0.860423 -1.14849 0.525572 0 CFG=2
M  V30 17 O 0.488349 -1.24509 -0.765722 0
M  V30 18 Si -1.2382 -1.28766 -0.982565 0 VAL=4
M  V30 19 O -2.13604 -1.36947 0.384738 0
M  V30 20 C -1.61026 0.0357481 -2.20166 0
M  V30 21 C -2.97557 0.0343621 -2.78175 0
M  V30 22 C -0.608395 -0.0209483 -3.37253 0
M  V30 23 C -1.48514 -2.93089 -1.89434 0
M  V30 24 C -0.356354 -3.19848 -2.85959 0
M  V30 25 C -2.83057 -3.04564 -2.53049 0
M  V30 26 N 3.06371 1.78684 0.634354 0
M  V30 27 C 4.02677 1.72535 1.55491 0
M  V30 28 N 4.97342 2.61455 1.29009 0
M  V30 29 C 4.61191 3.28322 0.157053 0
M  V30 30 C 3.42209 2.73957 -0.222586 0
M  V30 31 N 2.80156 3.28143 -1.34425 0
M  V30 32 C 3.41866 4.30111 -1.98796 0
M  V30 33 N 4.58134 4.79705 -1.57585 0
M  V30 34 C 5.23115 4.33319 -0.509642 0
M  V30 35 N 6.54008 4.71973 -0.0836864 0
M  V30 36 C -4.2395 -0.735591 2.18253 0
M  V30 37 C -5.33692 -0.906951 1.21239 0
M  V30 38 C -4.49505 0.0754914 3.39985 0
M  V30 39 H -5.07282 1.94251 1.16957 0
M  V30 40 H -4.73813 1.28985 -0.51754 0
M  V30 41 H -4.28354 2.91855 -0.0512786 0
M  V30 42 H -2.35914 1.81567 -0.178856 0
M  V30 43 H -1.54132 3.09993 1.38153 0
M  V30 44 H -3.25643 3.30578 1.9568 0
M  V30 45 H -2.15749 2.0505 2.65547 0
M  V30 46 H 0.284848 -0.442468 3.38736 0
M  V30 47 H -0.544495 -1.76049 2.43861 0
M  V30 48 H -0.546608 0.386412 0.611644 0
M  V30 49 H 1.35151 1.1259 -0.437655 0
M  V30 50 H 2.70317 -0.830522 1.48524 0
M  V30 51 H 3.77019 -2.84218 -1.2782 0
M  V30 52 H 3.09599 -2.81543 0.323207 0
M  V30 53 H 5.6765 -1.25194 -0.0206246 0
M  V30 54 H 5.54146 -3.01757 0.293008 0
M  V30 55 H 4.04173 -3.09794 2.92461 0
M  V30 56 H 5.01205 -3.69366 1.72205 0
M  V30 57 H 0.998229 -2.1117 1.05114 0
M  V30 58 H -1.33673 1.02866 -1.73818 0
M  V30 59 H -3.71518 -0.351066 -2.04201 0
M  V30 60 H -3.02717 -0.430078 -3.766 0
M  V30 61 H -3.29342 1.11289 -2.91621 0
M  V30 62 H 0.414233 0.104635 -2.99616 0
M  V30 63 H -0.797507 -0.805391 -4.07704 0
M  V30 64 H -0.833395 0.953414 -3.92018 0
M  V30 65 H -1.43602 -3.73761 -1.11925 0
M  V30 66 H 0.483676 -2.52557 -2.67836 0
M  V30 67 H -0.00306936 -4.27217 -2.78118 0
M  V30 68 H -0.778332 -3.1462 -3.89111 0
M  V30 69 H -3.06336 -4.15919 -2.58992 0
M  V30 70 H -2.86232 -2.7268 -3.5854 0
M  V30 71 H -3.60487 -2.64943 -1.87656 0
M  V30 72 H 4.01371 1.05137 2.44625 0
M  V30 73 H 2.92423 4.68926 -2.84917 0
M  V30 74 H 7.31103 4.05169 -0.431229 0
M  V30 75 H 6.71718 5.53796 0.46626 0
M  V30 76 H -3.97508 -1.78052 2.54875 0
M  V30 77 H -4.88522 -0.955979 0.174511 0
M  V30 78 H -6.1503 -0.170383 1.28418 0
M  V30 79 H -5.84536 -1.91279 1.29528 0
M  V30 80 H -5.27181 -0.410404 4.02664 0
M  V30 81 H -4.67581 1.12192 3.197 0
M  V30 82 H -3.54239 0.056057 4.01045 0
M  V30 END ATOM
M  V30 BEGIN BOND
M  V30 1 1 1 2
M  V30 2 1 2 3
M  V30 3 1 2 4
M  V30 4 1 4 5
M  V30 5 1 5 6
M  V30 6 1 6 7
M  V30 7 1 7 8
M  V30 8 1 8 9
M  V30 9 1 9 10
M  V30 10 1 10 11
M  V30 11 1 11 12
M  V30 12 1 12 13
M  V30 13 1 13 14
M  V30 14 1 14 15
M  V30 15 1 10 16
M  V30 16 1 16 17
M  V30 17 1 17 18
M  V30 18 1 18 19
M  V30 19 1 18 20
M  V30 20 1 20 21
M  V30 21 1 20 22
M  V30 22 1 18 23
M  V30 23 1 23 24
M  V30 24 1 23 25
M  V30 25 1 9 26
M  V30 26 1 26 27
M  V30 27 2 27 28
M  V30 28 1 28 29
M  V30 29 2 29 30
M  V30 30 1 30 31
M  V30 31 2 31 32
M  V30 32 1 32 33
M  V30 33 2 33 34
M  V30 34 1 34 35
M  V30 35 1 4 36
M  V30 36 1 36 37
M  V30 37 1 36 38
M  V30 38 1 19 4
M  V30 39 1 30 26
M  V30 40 1 16 7
M  V30 41 1 34 29
M  V30 42 1 1 39
M  V30 43 1 1 40
M  V30 44 1 1 41
M  V30 45 1 2 42
M  V30 46 1 3 43
M  V30 47 1 3 44
M  V30 48 1 3 45
M  V30 49 1 6 46
M  V30 50 1 6 47
M  V30 51 1 7 48 CFG=3
M  V30 52 1 9 49 CFG=3
M  V30 53 1 10 50 CFG=1
M  V30 54 1 12 51
M  V30 55 1 12 52
M  V30 56 1 13 53
M  V30 57 1 13 54
M  V30 58 1 15 55
M  V30 59 1 15 56
M  V30 60 1 16 57 CFG=1
M  V30 61 1 20 58
M  V30 62 1 21 59
M  V30 63 1 21 60
M  V30 64 1 21 61
M  V30 65 1 22 62
M  V30 66 1 22 63
M  V30 67 1 22 64
M  V30 68 1 23 65
M  V30 69 1 24 66
M  V30 70 1 24 67
M  V30 71 1 24 68
M  V30 72 1 25 69
M  V30 73 1 25 70
M  V30 74 1 25 71
M  V30 75 1 27 72
M  V30 76 1 32 73
M  V30 77 1 35 74
M  V30 78 1 35 75
M  V30 79 1 36 76
M  V30 80 1 37 77
M  V30 81 1 37 78
M  V30 82 1 37 79
M  V30 83 1 38 80
M  V30 84 1 38 81
M  V30 85 1 38 82
M  V30 END BOND
M  V30 END CTAB
M  END
