
     RDKit          3D

  0  0  0  0  0  0  0  0  0  0999 V3000
M  V30 BEGIN CTAB
M  V30 COUNTS 17 17 0 0 0
M  V30 BEGIN ATOM
M  V30 1 C 2.75074 -0.480565 -0.214426 0
M  V30 2 C 1.27144 -0.271137 -0.0997266 0
M  V30 3 N 0.42507 -1.28501 0.0680849 0
M  V30 4 C -0.901486 -1.0576 0.167361 0
M  V30 5 N -1.81103 -2.13774 0.346851 0
M  V30 6 C -1.38955 0.235933 0.0948252 0
M  V30 7 C -0.513664 1.28736 -0.0790398 0
M  V30 8 N -0.981917 2.63129 -0.157918 0
M  V30 9 N 0.800642 0.984221 -0.17038 0
M  V30 10 H 3.25278 -0.00151876 0.649658 0
M  V30 11 H 3.15483 0.00811648 -1.12439 0
M  V30 12 H 2.97986 -1.56318 -0.182422 0
M  V30 13 H -2.2619 -2.61856 -0.441878 0
M  V30 14 H -2.0327 -2.45949 1.33072 0
M  V30 15 H -2.44679 0.448001 0.17118 0
M  V30 16 H -0.492926 3.37872 0.379758 0
M  V30 17 H -1.80341 2.90116 -0.738259 0
M  V30 END ATOM
M  V30 BEGIN BOND
M  V30 1 1 1 2
M  V30 2 2 2 3
M  V30 3 1 3 4
M  V30 4 1 4 5
M  V30 5 2 4 6
M  V30 6 1 6 7
M  V30 7 1 7 8
M  V30 8 2 7 9
M  V30 9 1 9 2
M  V30 10 1 1 10
M  V30 11 1 1 11
M  V30 12 1 1 12
M  V30 13 1 5 13
M  V30 14 1 5 14
M  V30 15 1 6 15
M  V30 16 1 8 16
M  V30 17 1 8 17
M  V30 END BOND
M  V30 END CTAB
M  END
