
     RDKit          3D

  0  0  0  0  0  0  0  0  0  0999 V3000
M  V30 BEGIN CTAB
M  V30 COUNTS 33 35 0 0 0
M  V30 BEGIN ATOM
M  V30 1 N 1.67928 -4.00333 -0.104671 0
M  V30 2 C 0.902157 -3.14189 -0.0413167 0
M  V30 3 C -0.0643098 -2.08564 0.0193337 0
M  V30 4 C -1.18267 -2.31871 0.689423 0
M  V30 5 N -1.43635 -3.55592 1.33006 0
M  V30 6 O -2.17373 -1.34436 0.79554 0
M  V30 7 C -2.01954 -0.0877978 0.197154 0
M  V30 8 C -0.880672 0.184921 -0.499891 0
M  V30 9 C 0.228115 -0.795113 -0.658754 0
M  V30 10 C 1.54155 -0.254591 -0.272085 0
M  V30 11 C 1.97452 -0.261994 1.05858 0
M  V30 12 C 3.19498 0.230406 1.43902 0
M  V30 13 C 4.05551 0.761213 0.501457 0
M  V30 14 C 3.66105 0.784497 -0.81947 0
M  V30 15 C 2.42545 0.282715 -1.18312 0
M  V30 16 Br 4.81269 1.51109 -2.1806 0
M  V30 17 F 5.27246 1.26292 0.810426 0
M  V30 18 C -0.702944 1.41543 -1.10085 0
M  V30 19 C -1.7159 2.34154 -0.964658 0
M  V30 20 C -2.86881 2.08027 -0.264863 0
M  V30 21 C -3.02407 0.84899 0.324662 0
M  V30 22 N -3.90808 3.02108 -0.121133 0
M  V30 23 H -1.92191 -4.29838 0.805598 0
M  V30 24 H -1.12425 -3.67472 2.30907 0
M  V30 25 H 0.282155 -1.01338 -1.76214 0
M  V30 26 H 1.28057 -0.685758 1.78641 0
M  V30 27 H 3.50646 0.211445 2.48585 0
M  V30 28 H 2.1041 0.298302 -2.237 0
M  V30 29 H 0.200862 1.64564 -1.6619 0
M  V30 30 H -1.60801 3.32167 -1.42599 0
M  V30 31 H -3.92427 0.596003 0.891311 0
M  V30 32 H -4.21284 3.56463 -0.951916 0
M  V30 33 H -4.35356 3.15882 0.806459 0
M  V30 END ATOM
M  V30 BEGIN BOND
M  V30 1 3 1 2
M  V30 2 1 2 3
M  V30 3 2 3 4
M  V30 4 1 4 5
M  V30 5 1 4 6
M  V30 6 1 6 7
M  V30 7 2 7 8
M  V30 8 1 8 9
M  V30 9 1 9 10
M  V30 10 2 10 11
M  V30 11 1 11 12
M  V30 12 2 12 13
M  V30 13 1 13 14
M  V30 14 2 14 15
M  V30 15 1 14 16
M  V30 16 1 13 17
M  V30 17 1 8 18
M  V30 18 2 18 19
M  V30 19 1 19 20
M  V30 20 2 20 21
M  V30 21 1 20 22
M  V30 22 1 9 3
M  V30 23 1 15 10
M  V30 24 1 21 7
M  V30 25 1 5 23
M  V30 26 1 5 24
M  V30 27 1 9 25
M  V30 28 1 11 26
M  V30 29 1 12 27
M  V30 30 1 15 28
M  V30 31 1 18 29
M  V30 32 1 19 30
M  V30 33 1 21 31
M  V30 34 1 22 32
M  V30 35 1 22 33
M  V30 END BOND
M  V30 END CTAB
M  END
