
     RDKit          3D

  0  0  0  0  0  0  0  0  0  0999 V3000
M  V30 BEGIN CTAB
M  V30 COUNTS 31 32 0 0 0
M  V30 BEGIN ATOM
M  V30 1 N 3.30642 -1.67244 -0.0272543 0
M  V30 2 C 2.41192 -0.883346 0.780016 0
M  V30 3 C 1.22425 -0.431634 -0.042622 0
M  V30 4 N 0.349557 0.360064 0.737102 0
M  V30 5 C 0.943668 1.65777 0.978156 0
M  V30 6 C 0.772728 2.38846 -0.365591 0
M  V30 7 C -0.337579 1.63043 -1.08134 0
M  V30 8 C -0.870507 0.77749 0.0467483 0 CFG=1
M  V30 9 C -1.70308 -0.345289 -0.351774 0
M  V30 10 C -1.89791 -0.939985 -1.56807 0
M  V30 11 N -2.74683 -1.96848 -1.46236 0
M  V30 12 N -3.11273 -2.05295 -0.191958 0
M  V30 13 C -2.49243 -1.07501 0.523742 0
M  V30 14 N -2.66924 -0.884423 1.91705 0
M  V30 15 H 4.26099 -1.6717 0.295991 0
M  V30 16 H 3.15609 -1.64913 -1.01012 0
M  V30 17 H 2.91796 -0.0675906 1.27727 0
M  V30 18 H 1.98648 -1.61133 1.53517 0
M  V30 19 H 1.68234 0.166619 -0.891075 0
M  V30 20 H 0.771057 -1.31432 -0.528164 0
M  V30 21 H 1.99642 1.62863 1.26503 0
M  V30 22 H 0.318674 2.20981 1.74189 0
M  V30 23 H 0.497382 3.45723 -0.190674 0
M  V30 24 H 1.70115 2.28029 -0.951231 0
M  V30 25 H -1.13147 2.34627 -1.41549 0
M  V30 26 H 0.0156057 1.08376 -1.95386 0
M  V30 27 H -1.36095 1.48 0.76314 0
M  V30 28 H -1.42568 -0.620845 -2.50674 0
M  V30 29 H -3.07911 -2.60927 -2.20545 0
M  V30 30 H -2.9672 -1.70533 2.52041 0
M  V30 31 H -2.51798 0.0362563 2.36207 0
M  V30 END ATOM
M  V30 BEGIN BOND
M  V30 1 1 1 2
M  V30 2 1 2 3
M  V30 3 1 3 4
M  V30 4 1 4 5
M  V30 5 1 5 6
M  V30 6 1 6 7
M  V30 7 1 7 8
M  V30 8 1 8 9
M  V30 9 2 9 10
M  V30 10 1 10 11
M  V30 11 1 11 12
M  V30 12 2 12 13
M  V30 13 1 13 14
M  V30 14 1 8 4
M  V30 15 1 13 9
M  V30 16 1 1 15
M  V30 17 1 1 16
M  V30 18 1 2 17
M  V30 19 1 2 18
M  V30 20 1 3 19
M  V30 21 1 3 20
M  V30 22 1 5 21
M  V30 23 1 5 22
M  V30 24 1 6 23
M  V30 25 1 6 24
M  V30 26 1 7 25
M  V30 27 1 7 26
M  V30 28 1 8 27 CFG=1
M  V30 29 1 10 28
M  V30 30 1 11 29
M  V30 31 1 14 30
M  V30 32 1 14 31
M  V30 END BOND
M  V30 END CTAB
M  END
