
     RDKit          3D

  0  0  0  0  0  0  0  0  0  0999 V3000
M  V30 BEGIN CTAB
M  V30 COUNTS 38 40 0 0 0
M  V30 BEGIN ATOM
M  V30 1 N 5.9123 1.18186 1.26916 0
M  V30 2 C 4.80906 0.77843 0.486184 0
M  V30 3 N 4.91136 0.802483 -0.943324 0
M  V30 4 N 3.71391 0.398644 1.04284 0
M  V30 5 C 2.60561 -0.00424337 0.219833 0
M  V30 6 O 2.82809 -0.604491 -0.847295 0
M  V30 7 C 1.23745 0.299893 0.671066 0
M  V30 8 C 0.0574114 -0.315544 0.223922 0
M  V30 9 C 0.191883 -1.3304 -0.857345 0
M  V30 10 C 0.578468 -2.73247 -0.307208 0
M  V30 11 C -0.724496 -2.50648 -0.919124 0
M  V30 12 N -0.937361 0.246819 0.856664 0
M  V30 13 N -0.419138 1.18298 1.68538 0
M  V30 14 C 0.895659 1.24403 1.60046 0
M  V30 15 C -2.36444 0.075969 0.738337 0
M  V30 16 C -3.003 0.981848 -0.123528 0
M  V30 17 C -4.39723 0.872717 -0.195622 0
M  V30 18 C -5.12805 -0.0581347 0.530222 0
M  V30 19 F -6.46153 -0.0851056 0.398926 0
M  V30 20 C -4.41294 -0.92967 1.37322 0
M  V30 21 C -3.06629 -0.855888 1.46579 0
M  V30 22 C -2.30672 2.02974 -0.881148 0
M  V30 23 F -1.34279 1.65424 -1.7399 0
M  V30 24 F -1.91019 3.10594 -0.0570906 0
M  V30 25 F -3.29988 2.6325 -1.68519 0
M  V30 26 H 5.81185 1.48449 2.25037 0
M  V30 27 H 6.88811 1.18042 0.866227 0
M  V30 28 H 4.31138 1.47143 -1.434 0
M  V30 29 H 5.55855 0.170423 -1.42268 0
M  V30 30 H 0.634633 -0.959588 -1.78667 0
M  V30 31 H 0.652035 -2.85181 0.782014 0
M  V30 32 H 1.44807 -3.22542 -0.823522 0
M  V30 33 H -0.839734 -2.93885 -1.97532 0
M  V30 34 H -1.64337 -2.64929 -0.344642 0
M  V30 35 H 1.59999 1.88191 2.1199 0
M  V30 36 H -4.91696 1.56476 -0.860521 0
M  V30 37 H -4.97813 -1.64751 1.95441 0
M  V30 38 H -2.49357 -1.54665 2.11751 0
M  V30 END ATOM
M  V30 BEGIN BOND
M  V30 1 1 1 2
M  V30 2 1 2 3
M  V30 3 2 2 4
M  V30 4 1 4 5
M  V30 5 2 5 6
M  V30 6 1 5 7
M  V30 7 2 7 8
M  V30 8 1 8 9
M  V30 9 1 9 10
M  V30 10 1 10 11
M  V30 11 1 8 12
M  V30 12 1 12 13
M  V30 13 2 13 14
M  V30 14 1 12 15
M  V30 15 2 15 16
M  V30 16 1 16 17
M  V30 17 2 17 18
M  V30 18 1 18 19
M  V30 19 1 18 20
M  V30 20 2 20 21
M  V30 21 1 16 22
M  V30 22 1 22 23
M  V30 23 1 22 24
M  V30 24 1 22 25
M  V30 25 1 14 7
M  V30 26 1 21 15
M  V30 27 1 11 9
M  V30 28 1 1 26
M  V30 29 1 1 27
M  V30 30 1 3 28
M  V30 31 1 3 29
M  V30 32 1 9 30
M  V30 33 1 10 31
M  V30 34 1 10 32
M  V30 35 1 11 33
M  V30 36 1 11 34
M  V30 37 1 14 35
M  V30 38 1 17 36
M  V30 39 1 20 37
M  V30 40 1 21 38
M  V30 END BOND
M  V30 END CTAB
M  END
