
     RDKit          3D

  0  0  0  0  0  0  0  0  0  0999 V3000
M  V30 BEGIN CTAB
M  V30 COUNTS 24 23 0 0 0
M  V30 BEGIN ATOM
M  V30 1 C -3.87101 0.0870891 0.0485636 0
M  V30 2 C -2.53567 0.0349618 -0.65932 0
M  V30 3 C -1.38592 0.105812 0.308193 0
M  V30 4 C -1.65299 0.226773 1.59297 0
M  V30 5 C -0.0480372 0.0246049 -0.292469 0
M  V30 6 N 1.03843 0.0778683 0.635288 0
M  V30 7 C 2.35792 -0.0466701 0.0969874 0
M  V30 8 N 2.68258 0.694975 -0.909359 0
M  V30 9 N 3.96063 0.580792 -1.43924 0
M  V30 10 N 3.29737 -0.971596 0.655561 0
M  V30 11 H -3.99465 1.04546 0.584896 0
M  V30 12 H -3.91762 -0.788448 0.739774 0
M  V30 13 H -4.63637 -0.0382302 -0.766576 0
M  V30 14 H -2.4832 -0.953993 -1.18247 0
M  V30 15 H -2.44139 0.820297 -1.42604 0
M  V30 16 H -2.68389 0.275056 1.94553 0
M  V30 17 H -0.90222 0.285846 2.36605 0
M  V30 18 H 0.00342867 -0.969187 -0.814531 0
M  V30 19 H 0.0691394 0.800012 -1.10991 0
M  V30 20 H 0.987093 0.197971 1.66409 0
M  V30 21 H 4.73931 1.08122 -0.98428 0
M  V30 22 H 4.11409 -0.00113091 -2.2775 0
M  V30 23 H 3.84685 -0.64522 1.47443 0
M  V30 24 H 3.45612 -1.92427 0.297791 0
M  V30 END ATOM
M  V30 BEGIN BOND
M  V30 1 1 1 2
M  V30 2 1 2 3
M  V30 3 2 3 4 CFG=2
M  V30 4 1 3 5
M  V30 5 1 5 6
M  V30 6 1 6 7
M  V30 7 2 7 8 CFG=2
M  V30 8 1 8 9
M  V30 9 1 7 10
M  V30 10 1 1 11
M  V30 11 1 1 12
M  V30 12 1 1 13
M  V30 13 1 2 14
M  V30 14 1 2 15
M  V30 15 1 4 16
M  V30 16 1 4 17
M  V30 17 1 5 18
M  V30 18 1 5 19
M  V30 19 1 6 20
M  V30 20 1 9 21
M  V30 21 1 9 22
M  V30 22 1 10 23
M  V30 23 1 10 24
M  V30 END BOND
M  V30 END CTAB
M  END
