
     RDKit          3D

  0  0  0  0  0  0  0  0  0  0999 V3000
M  V30 BEGIN CTAB
M  V30 COUNTS 24 25 0 0 0
M  V30 BEGIN ATOM
M  V30 1 N -3.73512 -0.217279 0.538467 0
M  V30 2 C -2.33262 -0.380108 0.387802 0
M  V30 3 C -1.69939 -1.58209 0.609155 0
M  V30 4 C -0.33933 -1.68705 0.449588 0
M  V30 5 C 0.487211 -0.62289 0.0634933 0
M  V30 6 C -0.154678 0.55313 -0.150301 0
M  V30 7 C -1.54043 0.679396 0.0074196 0
M  V30 8 N -2.19001 1.91513 -0.220393 0
M  V30 9 C 1.91617 -0.881518 -0.0752641 0
M  V30 10 N 2.44702 -2.14171 0.103117 0
M  V30 11 N 3.73946 -2.04076 -0.0791945 0
M  V30 12 N 4.05641 -0.816263 -0.357178 0
M  V30 13 N 2.92155 -0.077322 -0.357864 0
M  V30 14 C 2.87267 1.34682 -0.61942 0
M  V30 15 H -4.34637 0.10111 -0.240832 0
M  V30 16 H -4.20201 -0.414347 1.44674 0
M  V30 17 H -2.31205 -2.42801 0.910598 0
M  V30 18 H 0.116052 -2.6571 0.636431 0
M  V30 19 H 0.349774 1.4353 -0.451921 0
M  V30 20 H -2.35962 2.26921 -1.17108 0
M  V30 21 H -2.49574 2.4642 0.594841 0
M  V30 22 H 2.48346 1.91878 0.241276 0
M  V30 23 H 3.95152 1.71739 -0.694574 0
M  V30 24 H 2.36609 1.54598 -1.57091 0
M  V30 END ATOM
M  V30 BEGIN BOND
M  V30 1 1 1 2
M  V30 2 2 2 3
M  V30 3 1 3 4
M  V30 4 2 4 5
M  V30 5 1 5 6
M  V30 6 2 6 7
M  V30 7 1 7 8
M  V30 8 1 5 9
M  V30 9 2 9 10
M  V30 10 1 10 11
M  V30 11 2 11 12
M  V30 12 1 12 13
M  V30 13 1 13 14
M  V30 14 1 7 2
M  V30 15 1 13 9
M  V30 16 1 1 15
M  V30 17 1 1 16
M  V30 18 1 3 17
M  V30 19 1 4 18
M  V30 20 1 6 19
M  V30 21 1 8 20
M  V30 22 1 8 21
M  V30 23 1 14 22
M  V30 24 1 14 23
M  V30 25 1 14 24
M  V30 END BOND
M  V30 END CTAB
M  END
