
     RDKit          3D

  0  0  0  0  0  0  0  0  0  0999 V3000
M  V30 BEGIN CTAB
M  V30 COUNTS 45 47 0 0 0
M  V30 BEGIN ATOM
M  V30 1 C -6.96242 -1.35265 -0.491821 0
M  V30 2 C -6.38361 -0.250099 -1.35113 0
M  V30 3 C -4.90733 -0.165109 -1.04071 0
M  V30 4 O -4.76946 0.129712 0.329225 0
M  V30 5 C -3.51886 0.275814 0.938607 0
M  V30 6 C -3.41205 0.562663 2.27306 0
M  V30 7 C -2.16277 0.702477 2.85329 0
M  V30 8 C -1.0919 0.543662 2.04551 0
M  V30 9 C -1.14779 0.247995 0.663594 0
M  V30 10 C -2.38928 0.116658 0.128308 0
M  V30 11 C 0.0935812 0.0712968 -0.0522449 0
M  V30 12 N 1.23528 -0.047734 0.703046 0
M  V30 13 C 2.45679 -0.18785 0.16647 0
M  V30 14 C 3.58521 -0.30658 0.931904 0
M  V30 15 C 4.84984 -0.452646 0.38763 0
M  V30 16 C 4.97693 -0.479388 -0.968749 0
M  V30 17 C 3.83958 -0.360012 -1.77134 0
M  V30 18 C 2.59407 -0.215891 -1.20502 0
M  V30 19 C 1.47161 -0.098096 -1.95712 0
M  V30 20 O 1.57397 -0.121041 -3.20712 0
M  V30 21 N 0.262338 0.0419297 -1.34741 0
M  V30 22 N -0.792591 0.194427 -2.23854 0
M  V30 23 C 5.98218 -0.570736 1.27741 0
M  V30 24 O 5.80515 -0.540129 2.54034 0
M  V30 25 N 7.28471 -0.719467 0.812354 0
M  V30 26 N 8.39232 -0.834869 1.69633 0
M  V30 27 H -8.03257 -1.53081 -0.703784 0
M  V30 28 H -6.346 -2.26743 -0.636353 0
M  V30 29 H -6.8509 -1.073 0.578277 0
M  V30 30 H -6.56737 -0.521227 -2.41608 0
M  V30 31 H -6.84664 0.704798 -1.06064 0
M  V30 32 H -4.46713 -1.16424 -1.217 0
M  V30 33 H -4.40987 0.63418 -1.62959 0
M  V30 34 H -4.30855 0.683894 2.89225 0
M  V30 35 H -2.04958 0.92801 3.89941 0
M  V30 36 H -0.104447 0.657812 2.51664 0
M  V30 37 H -2.56735 -0.133992 -0.911727 0
M  V30 38 H 3.49849 -0.286707 2.03195 0
M  V30 39 H 5.95756 -0.593095 -1.43854 0
M  V30 40 H 3.95136 -0.382493 -2.85206 0
M  V30 41 H -1.14561 -0.645472 -2.73764 0
M  V30 42 H -1.22864 1.10504 -2.42249 0
M  V30 43 H 7.48973 -0.751039 -0.205357 0
M  V30 44 H 8.07335 -0.722853 2.68856 0
M  V30 45 H 9.08866 -0.079701 1.50831 0
M  V30 END ATOM
M  V30 BEGIN BOND
M  V30 1 1 1 2
M  V30 2 1 2 3
M  V30 3 1 3 4
M  V30 4 1 4 5
M  V30 5 2 5 6
M  V30 6 1 6 7
M  V30 7 2 7 8
M  V30 8 1 8 9
M  V30 9 2 9 10
M  V30 10 1 9 11
M  V30 11 2 11 12
M  V30 12 1 12 13
M  V30 13 2 13 14
M  V30 14 1 14 15
M  V30 15 2 15 16
M  V30 16 1 16 17
M  V30 17 2 17 18
M  V30 18 1 18 19
M  V30 19 2 19 20
M  V30 20 1 19 21
M  V30 21 1 21 22
M  V30 22 1 15 23
M  V30 23 2 23 24
M  V30 24 1 23 25
M  V30 25 1 25 26
M  V30 26 1 10 5
M  V30 27 1 21 11
M  V30 28 1 18 13
M  V30 29 1 1 27
M  V30 30 1 1 28
M  V30 31 1 1 29
M  V30 32 1 2 30
M  V30 33 1 2 31
M  V30 34 1 3 32
M  V30 35 1 3 33
M  V30 36 1 6 34
M  V30 37 1 7 35
M  V30 38 1 8 36
M  V30 39 1 10 37
M  V30 40 1 14 38
M  V30 41 1 16 39
M  V30 42 1 17 40
M  V30 43 1 22 41
M  V30 44 1 22 42
M  V30 45 1 25 43
M  V30 46 1 26 44
M  V30 47 1 26 45
M  V30 END BOND
M  V30 END CTAB
M  END
