
     RDKit          3D

  0  0  0  0  0  0  0  0  0  0999 V3000
M  V30 BEGIN CTAB
M  V30 COUNTS 22 22 0 0 0
M  V30 BEGIN ATOM
M  V30 1 N -3.63116 1.43594 0.238475 0
M  V30 2 C -2.36634 0.770645 0.227435 0
M  V30 3 C -1.22456 1.50895 -0.0137277 0
M  V30 4 C -0.0130851 0.847327 -0.0200981 0
M  V30 5 C 0.10615 -0.500306 0.200617 0
M  V30 6 C -1.03937 -1.22687 0.440172 0
M  V30 7 C -2.28945 -0.590813 0.454865 0
M  V30 8 O -1.06096 -2.57608 0.675247 0
M  V30 9 N 1.35321 -1.14095 0.191303 0
M  V30 10 S 2.84269 -0.451586 -0.297076 0
M  V30 11 O 2.74662 0.490586 -1.4345 0
M  V30 12 O 3.83333 -1.53311 -0.712429 0
M  V30 13 N 3.58352 0.336293 1.06139 0
M  V30 14 H -4.25872 1.46117 1.07061 0
M  V30 15 H -3.92358 1.91379 -0.637574 0
M  V30 16 H -1.31304 2.57278 -0.188612 0
M  V30 17 H 0.858422 1.42378 -0.203778 0
M  V30 18 H -3.20063 -1.11279 0.635769 0
M  V30 19 H -0.303764 -3.21475 0.709911 0
M  V30 20 H 1.41976 -2.15549 0.514047 0
M  V30 21 H 4.62154 0.397373 0.887841 0
M  V30 22 H 3.25941 1.34409 1.06767 0
M  V30 END ATOM
M  V30 BEGIN BOND
M  V30 1 1 1 2
M  V30 2 2 2 3
M  V30 3 1 3 4
M  V30 4 2 4 5
M  V30 5 1 5 6
M  V30 6 2 6 7
M  V30 7 1 6 8
M  V30 8 1 5 9
M  V30 9 1 9 10
M  V30 10 2 10 11
M  V30 11 2 10 12
M  V30 12 1 10 13
M  V30 13 1 7 2
M  V30 14 1 1 14
M  V30 15 1 1 15
M  V30 16 1 3 16
M  V30 17 1 4 17
M  V30 18 1 7 18
M  V30 19 1 8 19
M  V30 20 1 9 20
M  V30 21 1 13 21
M  V30 22 1 13 22
M  V30 END BOND
M  V30 END CTAB
M  END
