
     RDKit          3D

  0  0  0  0  0  0  0  0  0  0999 V3000
M  V30 BEGIN CTAB
M  V30 COUNTS 136 140 0 0 0
M  V30 BEGIN ATOM
M  V30 1 C 3.29294 5.05012 1.95968 0 CFG=2
M  V30 2 N 2.4636 5.5332 3.01595 0
M  V30 3 C 3.57863 6.04048 0.874084 0
M  V30 4 C 4.24897 7.23681 1.35417 0
M  V30 5 C 3.56548 8.36967 1.73929 0
M  V30 6 C 4.21272 9.49764 2.19637 0
M  V30 7 C 5.59128 9.5243 2.2824 0
M  V30 8 C 6.28233 8.39712 1.89995 0
M  V30 9 C 5.62403 7.26658 1.44144 0
M  V30 10 C 2.66763 3.79877 1.41114 0
M  V30 11 O 1.66771 3.35037 2.01527 0
M  V30 12 N 3.15023 3.14539 0.286535 0
M  V30 13 C 2.6161 1.92926 -0.332375 0 CFG=1
M  V30 14 C 2.03948 2.3526 -1.67582 0
M  V30 15 S 0.306187 1.96921 -1.87927 0
M  V30 16 S -0.953232 2.96605 -0.505213 0
M  V30 17 C -2.49826 2.05758 -0.236894 0
M  V30 18 C -3.38461 2.8399 0.706036 0 CFG=2
M  V30 19 N -4.3296 2.00287 1.38604 0
M  V30 20 C -4.35533 0.622748 1.57308 0
M  V30 21 O -4.34942 0.155567 2.78143 0
M  V30 22 C -4.39202 -0.440118 0.531598 0 CFG=1
M  V30 23 N -3.60361 -1.5405 1.01903 0
M  V30 24 C -2.32929 -1.95139 0.563592 0
M  V30 25 O -1.47107 -2.19953 1.44671 0
M  V30 26 C -2.08004 -2.06098 -0.908364 0 CFG=2
M  V30 27 C -3.0133 -2.89792 -1.65634 0
M  V30 28 C -3.22088 -4.31857 -1.39916 0
M  V30 29 C -3.71071 -4.73695 -0.0554332 0
M  V30 30 C -3.84114 -6.27155 -0.113802 0
M  V30 31 N -4.78837 -6.64778 -1.16167 0
M  V30 32 N -0.695955 -2.06965 -1.27426 0
M  V30 33 C 0.22116 -3.09965 -1.48387 0
M  V30 34 O 0.600194 -3.28999 -2.71152 0
M  V30 35 C 0.8556 -4.03321 -0.546929 0 CFG=1
M  V30 36 C 0.940939 -5.40411 -1.18941 0
M  V30 37 C 1.57415 -6.42433 -0.343634 0
M  V30 38 C 2.8274 -7.00371 -0.461904 0
M  V30 39 N 3.02497 -7.90135 0.501679 0
M  V30 40 C 1.91357 -7.94461 1.28545 0
M  V30 41 C 1.00695 -7.02312 0.758508 0
M  V30 42 C -0.197206 -6.90638 1.41108 0
M  V30 43 C -0.487782 -7.66161 2.52663 0
M  V30 44 C 0.430909 -8.5653 3.02409 0
M  V30 45 C 1.65098 -8.71318 2.39822 0
M  V30 46 N 2.11391 -3.68047 -0.00107833 0
M  V30 47 C 2.79222 -2.47771 0.12846 0
M  V30 48 O 3.18513 -2.19075 1.32851 0
M  V30 49 C 3.14362 -1.46339 -0.881018 0 CFG=2
M  V30 50 C 3.98063 -1.9861 -2.03391 0
M  V30 51 C 5.28962 -2.55709 -1.62167 0
M  V30 52 C 5.37858 -3.90492 -1.40796 0
M  V30 53 C 6.5758 -4.46448 -1.01351 0
M  V30 54 C 7.69568 -3.68513 -0.828788 0
M  V30 55 C 7.57801 -2.31048 -1.05432 0
M  V30 56 C 6.38701 -1.76633 -1.44493 0
M  V30 57 N 3.88237 -0.348867 -0.289555 0
M  V30 58 C 3.77092 1.01561 -0.5276 0
M  V30 59 O 4.81126 1.62298 -0.988239 0
M  V30 60 C -5.85381 -0.816317 0.366939 0 CFG=1
M  V30 61 C -6.51779 -1.28521 1.60919 0
M  V30 62 O -6.52032 0.310537 -0.102257 0
M  V30 63 C -4.14589 3.81645 -0.134472 0
M  V30 64 O -5.39808 3.69438 -0.257278 0
M  V30 65 N -3.50532 4.87895 -0.795125 0
M  V30 66 C -4.30822 5.79465 -1.60164 0 CFG=2
M  V30 67 C -3.64165 6.02404 -2.88178 0
M  V30 68 O -4.2502 6.87147 -3.81409 0
M  V30 69 O -2.55006 5.47671 -3.14542 0
M  V30 70 C -4.43952 7.12808 -0.855828 0 CFG=1
M  V30 71 C -5.14349 6.93054 0.452155 0
M  V30 72 O -3.19244 7.67017 -0.631436 0
M  V30 73 H 4.29407 4.79521 2.42184 0
M  V30 74 H 2.80526 6.41846 3.44663 0
M  V30 75 H 1.4437 5.56347 2.79011 0
M  V30 76 H 2.58744 6.34314 0.425729 0
M  V30 77 H 4.12602 5.54195 0.042305 0
M  V30 78 H 2.47116 8.42635 1.70021 0
M  V30 79 H 3.64193 10.3721 2.49072 0
M  V30 80 H 6.08724 10.4207 2.64375 0
M  V30 81 H 7.37027 8.38969 1.95573 0
M  V30 82 H 6.26194 6.41594 1.16026 0
M  V30 83 H 4.00644 3.55455 -0.197466 0
M  V30 84 H 1.78641 1.51484 0.234341 0
M  V30 85 H 2.15376 3.4479 -1.75647 0
M  V30 86 H 2.6727 1.93771 -2.49657 0
M  V30 87 H -2.94361 1.88028 -1.21788 0
M  V30 88 H -2.20491 1.13709 0.320387 0
M  V30 89 H -2.72385 3.43556 1.35793 0
M  V30 90 H -5.14959 2.53049 1.83278 0
M  V30 91 H -4.08157 -0.081773 -0.462821 0
M  V30 92 H -4.01823 -2.10757 1.81321 0
M  V30 93 H -2.4371 -0.997918 -1.21155 0
M  V30 94 H -2.71043 -2.8079 -2.74328 0
M  V30 95 H -4.0383 -2.41232 -1.66519 0
M  V30 96 H -2.36743 -4.98216 -1.75002 0
M  V30 97 H -4.04952 -4.63976 -2.11413 0
M  V30 98 H -4.73508 -4.36957 0.0994597 0
M  V30 99 H -3.02456 -4.53876 0.769901 0
M  V30 100 H -2.86312 -6.75343 -0.257986 0
M  V30 101 H -4.27072 -6.65902 0.830872 0
M  V30 102 H -5.31551 -7.49916 -0.927772 0
M  V30 103 H -5.47944 -5.89314 -1.34847 0
M  V30 104 H -0.231943 -1.09862 -1.43869 0
M  V30 105 H 0.127431 -4.1997 0.307423 0
M  V30 106 H -0.0472743 -5.72873 -1.58549 0
M  V30 107 H 1.58654 -5.2728 -2.09854 0
M  V30 108 H 3.54487 -6.7549 -1.23752 0
M  V30 109 H 3.86883 -8.49529 0.672779 0
M  V30 110 H -0.921379 -6.1974 1.02316 0
M  V30 111 H -1.46119 -7.53499 3.01644 0
M  V30 112 H 0.14399 -9.12468 3.90062 0
M  V30 113 H 2.36018 -9.42343 2.80059 0
M  V30 114 H 2.64722 -4.52716 0.406077 0
M  V30 115 H 2.19376 -1.12089 -1.33845 0
M  V30 116 H 4.17727 -1.12954 -2.68807 0
M  V30 117 H 3.39413 -2.72601 -2.61896 0
M  V30 118 H 4.50219 -4.57472 -1.55552 0
M  V30 119 H 6.6204 -5.55646 -0.848481 0
M  V30 120 H 8.59731 -4.157 -0.525233 0
M  V30 121 H 8.48215 -1.74722 -0.895547 0
M  V30 122 H 6.37196 -0.697873 -1.60406 0
M  V30 123 H 4.6085 -0.703551 0.419529 0
M  V30 124 H -5.91453 -1.59963 -0.42666 0
M  V30 125 H -6.01081 -2.06878 2.16964 0
M  V30 126 H -7.49824 -1.74738 1.28602 0
M  V30 127 H -6.84394 -0.410605 2.24009 0
M  V30 128 H -6.1697 0.651712 -0.947229 0
M  V30 129 H -2.49179 5.10101 -0.770314 0
M  V30 130 H -5.3278 5.37339 -1.72009 0
M  V30 131 H -5.23815 7.09937 -3.73468 0
M  V30 132 H -5.04331 7.81638 -1.48496 0
M  V30 133 H -5.23221 7.89625 0.974309 0
M  V30 134 H -6.16972 6.51119 0.319757 0
M  V30 135 H -4.56087 6.26014 1.12045 0
M  V30 136 H -3.1295 8.20694 0.211389 0
M  V30 END ATOM
M  V30 BEGIN BOND
M  V30 1 1 1 2
M  V30 2 1 1 3
M  V30 3 1 3 4
M  V30 4 2 4 5
M  V30 5 1 5 6
M  V30 6 2 6 7
M  V30 7 1 7 8
M  V30 8 2 8 9
M  V30 9 1 1 10
M  V30 10 2 10 11
M  V30 11 1 10 12
M  V30 12 1 12 13
M  V30 13 1 13 14
M  V30 14 1 14 15
M  V30 15 1 15 16
M  V30 16 1 16 17
M  V30 17 1 17 18
M  V30 18 1 18 19
M  V30 19 1 19 20
M  V30 20 2 20 21
M  V30 21 1 20 22
M  V30 22 1 22 23
M  V30 23 1 23 24
M  V30 24 2 24 25
M  V30 25 1 24 26
M  V30 26 1 26 27
M  V30 27 1 27 28
M  V30 28 1 28 29
M  V30 29 1 29 30
M  V30 30 1 30 31
M  V30 31 1 26 32
M  V30 32 1 32 33
M  V30 33 2 33 34
M  V30 34 1 33 35
M  V30 35 1 35 36
M  V30 36 1 36 37
M  V30 37 2 37 38
M  V30 38 1 38 39
M  V30 39 1 39 40
M  V30 40 2 40 41
M  V30 41 1 41 42
M  V30 42 2 42 43
M  V30 43 1 43 44
M  V30 44 2 44 45
M  V30 45 1 35 46
M  V30 46 1 46 47
M  V30 47 2 47 48
M  V30 48 1 47 49
M  V30 49 1 49 50
M  V30 50 1 50 51
M  V30 51 2 51 52
M  V30 52 1 52 53
M  V30 53 2 53 54
M  V30 54 1 54 55
M  V30 55 2 55 56
M  V30 56 1 49 57
M  V30 57 1 57 58
M  V30 58 2 58 59
M  V30 59 1 22 60
M  V30 60 1 60 61
M  V30 61 1 60 62
M  V30 62 1 18 63
M  V30 63 2 63 64
M  V30 64 1 63 65
M  V30 65 1 65 66
M  V30 66 1 66 67
M  V30 67 1 67 68
M  V30 68 2 67 69
M  V30 69 1 66 70
M  V30 70 1 70 71
M  V30 71 1 70 72
M  V30 72 1 9 4
M  V30 73 1 58 13
M  V30 74 1 41 37
M  V30 75 1 56 51
M  V30 76 1 45 40
M  V30 77 1 1 73 CFG=1
M  V30 78 1 2 74
M  V30 79 1 2 75
M  V30 80 1 3 76
M  V30 81 1 3 77
M  V30 82 1 5 78
M  V30 83 1 6 79
M  V30 84 1 7 80
M  V30 85 1 8 81
M  V30 86 1 9 82
M  V30 87 1 12 83
M  V30 88 1 13 84 CFG=1
M  V30 89 1 14 85
M  V30 90 1 14 86
M  V30 91 1 17 87
M  V30 92 1 17 88
M  V30 93 1 18 89 CFG=1
M  V30 94 1 19 90
M  V30 95 1 22 91 CFG=3
M  V30 96 1 23 92
M  V30 97 1 26 93 CFG=3
M  V30 98 1 27 94
M  V30 99 1 27 95
M  V30 100 1 28 96
M  V30 101 1 28 97
M  V30 102 1 29 98
M  V30 103 1 29 99
M  V30 104 1 30 100
M  V30 105 1 30 101
M  V30 106 1 31 102
M  V30 107 1 31 103
M  V30 108 1 32 104
M  V30 109 1 35 105 CFG=1
M  V30 110 1 36 106
M  V30 111 1 36 107
M  V30 112 1 38 108
M  V30 113 1 39 109
M  V30 114 1 42 110
M  V30 115 1 43 111
M  V30 116 1 44 112
M  V30 117 1 45 113
M  V30 118 1 46 114
M  V30 119 1 49 115 CFG=3
M  V30 120 1 50 116
M  V30 121 1 50 117
M  V30 122 1 52 118
M  V30 123 1 53 119
M  V30 124 1 54 120
M  V30 125 1 55 121
M  V30 126 1 56 122
M  V30 127 1 57 123
M  V30 128 1 60 124 CFG=3
M  V30 129 1 61 125
M  V30 130 1 61 126
M  V30 131 1 61 127
M  V30 132 1 62 128
M  V30 133 1 65 129
M  V30 134 1 66 130 CFG=3
M  V30 135 1 68 131
M  V30 136 1 70 132 CFG=3
M  V30 137 1 71 133
M  V30 138 1 71 134
M  V30 139 1 71 135
M  V30 140 1 72 136
M  V30 END BOND
M  V30 END CTAB
M  END
