
     RDKit          3D

  0  0  0  0  0  0  0  0  0  0999 V3000
M  V30 BEGIN CTAB
M  V30 COUNTS 57 56 0 0 0
M  V30 BEGIN ATOM
M  V30 1 N 3.50122 -0.269203 0.739749 0
M  V30 2 C 2.47952 0.676078 0.736153 0 CFG=1
M  V30 3 C 2.82886 2.12277 0.81236 0
M  V30 4 C 3.57965 2.57424 1.9963 0
M  V30 5 C 4.95257 2.10722 2.25211 0
M  V30 6 N 5.98868 2.49931 1.36188 0
M  V30 7 C 6.25537 2.16148 0.0288265 0
M  V30 8 N 6.80123 0.863922 -0.281482 0
M  V30 9 N 6.06454 2.95792 -0.965212 0
M  V30 10 C 1.59304 0.494886 -0.472547 0
M  V30 11 O 0.684218 1.32799 -0.69718 0
M  V30 12 N 1.7697 -0.597621 -1.35193 0
M  V30 13 C 0.981678 -0.879969 -2.51711 0
M  V30 14 C -0.424846 -1.20668 -2.30307 0
M  V30 15 O -1.13741 -1.39375 -3.32115 0
M  V30 16 N -1.00377 -1.32392 -1.03852 0
M  V30 17 C -2.42164 -1.65462 -0.846176 0 CFG=1
M  V30 18 C -2.61591 -2.83541 0.0456443 0
M  V30 19 C -1.99336 -4.0848 -0.436391 0
M  V30 20 O -2.129 -5.23602 0.343993 0
M  V30 21 O -1.34237 -4.22186 -1.49512 0
M  V30 22 C -3.16627 -0.459513 -0.376567 0
M  V30 23 O -2.5818 0.615799 -0.215708 0
M  V30 24 N -4.55092 -0.529273 -0.105422 0
M  V30 25 C -5.33187 0.597274 0.353325 0 CFG=1
M  V30 26 C -6.36269 1.00145 -0.707404 0
M  V30 27 S -7.49429 -0.338158 -1.07409 0
M  V30 28 C -5.97983 0.334237 1.65667 0
M  V30 29 O -6.77094 1.26636 2.30593 0
M  V30 30 O -5.82596 -0.774656 2.22713 0
M  V30 31 H 3.23391 -1.19997 1.05338 0
M  V30 32 H 4.01664 -0.310134 -0.134809 0
M  V30 33 H 1.7802 0.41084 1.60341 0
M  V30 34 H 1.82198 2.67552 0.854362 0
M  V30 35 H 3.26205 2.50173 -0.13018 0
M  V30 36 H 3.64793 3.7139 1.91046 0
M  V30 37 H 2.92725 2.47733 2.92862 0
M  V30 38 H 5.20607 2.45768 3.31182 0
M  V30 39 H 5.02835 0.988462 2.35972 0
M  V30 40 H 6.71992 3.19148 1.77309 0
M  V30 41 H 6.36124 0.213105 -0.959573 0
M  V30 42 H 7.67518 0.577949 0.20153 0
M  V30 43 H 6.27784 2.65533 -1.91767 0
M  V30 44 H 2.56117 -1.2849 -1.13123 0
M  V30 45 H 1.09772 0.0338356 -3.18829 0
M  V30 46 H 1.50264 -1.67439 -3.12621 0
M  V30 47 H -0.40716 -1.19251 -0.196963 0
M  V30 48 H -2.83553 -1.88313 -1.8464 0
M  V30 49 H -3.69853 -3.01749 0.268231 0
M  V30 50 H -2.17178 -2.65754 1.07109 0
M  V30 51 H -2.75725 -5.33678 1.10587 0
M  V30 52 H -5.0433 -1.4227 -0.237103 0
M  V30 53 H -4.62711 1.46709 0.409119 0
M  V30 54 H -6.85096 1.93874 -0.390307 0
M  V30 55 H -5.748 1.20376 -1.62428 0
M  V30 56 H -7.68784 -0.418257 -2.44928 0
M  V30 57 H -7.64007 1.51497 1.82659 0
M  V30 END ATOM
M  V30 BEGIN BOND
M  V30 1 1 1 2
M  V30 2 1 2 3
M  V30 3 1 3 4
M  V30 4 1 4 5
M  V30 5 1 5 6
M  V30 6 1 6 7
M  V30 7 1 7 8
M  V30 8 2 7 9 CFG=2
M  V30 9 1 2 10
M  V30 10 2 10 11
M  V30 11 1 10 12
M  V30 12 1 12 13
M  V30 13 1 13 14
M  V30 14 2 14 15
M  V30 15 1 14 16
M  V30 16 1 16 17
M  V30 17 1 17 18
M  V30 18 1 18 19
M  V30 19 1 19 20
M  V30 20 2 19 21
M  V30 21 1 17 22
M  V30 22 2 22 23
M  V30 23 1 22 24
M  V30 24 1 24 25
M  V30 25 1 25 26
M  V30 26 1 26 27
M  V30 27 1 25 28
M  V30 28 1 28 29
M  V30 29 2 28 30
M  V30 30 1 1 31
M  V30 31 1 1 32
M  V30 32 1 2 33 CFG=1
M  V30 33 1 3 34
M  V30 34 1 3 35
M  V30 35 1 4 36
M  V30 36 1 4 37
M  V30 37 1 5 38
M  V30 38 1 5 39
M  V30 39 1 6 40
M  V30 40 1 8 41
M  V30 41 1 8 42
M  V30 42 1 9 43
M  V30 43 1 12 44
M  V30 44 1 13 45
M  V30 45 1 13 46
M  V30 46 1 16 47
M  V30 47 1 17 48 CFG=3
M  V30 48 1 18 49
M  V30 49 1 18 50
M  V30 50 1 20 51
M  V30 51 1 24 52
M  V30 52 1 25 53 CFG=1
M  V30 53 1 26 54
M  V30 54 1 26 55
M  V30 55 1 27 56
M  V30 56 1 29 57
M  V30 END BOND
M  V30 END CTAB
M  END
