
     RDKit          3D

  0  0  0  0  0  0  0  0  0  0999 V3000
M  V30 BEGIN CTAB
M  V30 COUNTS 19 19 0 0 0
M  V30 BEGIN ATOM
M  V30 1 N -1.1436 -1.2181 0.789491 0
M  V30 2 C -0.558969 -0.760097 -0.4546 0
M  V30 3 C -1.20583 0.586194 -0.765689 0
M  V30 4 C -0.429785 1.50839 0.149708 0
M  V30 5 C 1.00998 1.02254 0.0360709 0
M  V30 6 C 0.900704 -0.426222 -0.327729 0
M  V30 7 N 1.61685 -1.304 0.560021 0
M  V30 8 H -0.975903 -2.22229 0.968558 0
M  V30 9 H -2.16389 -0.972516 0.819026 0
M  V30 10 H -0.761299 -1.41696 -1.30433 0
M  V30 11 H -2.26439 0.569497 -0.441675 0
M  V30 12 H -1.08889 0.864544 -1.82071 0
M  V30 13 H -0.514046 2.52679 -0.243489 0
M  V30 14 H -0.752103 1.38058 1.18751 0
M  V30 15 H 1.52785 1.19536 1.00815 0
M  V30 16 H 1.49948 1.64088 -0.756936 0
M  V30 17 H 1.35774 -0.553697 -1.34478 0
M  V30 18 H 2.6333 -1.1488 0.405189 0
M  V30 19 H 1.31282 -1.27209 1.53621 0
M  V30 END ATOM
M  V30 BEGIN BOND
M  V30 1 1 1 2
M  V30 2 1 2 3
M  V30 3 1 3 4
M  V30 4 1 4 5
M  V30 5 1 5 6
M  V30 6 1 6 7
M  V30 7 1 6 2
M  V30 8 1 1 8
M  V30 9 1 1 9
M  V30 10 1 2 10
M  V30 11 1 3 11
M  V30 12 1 3 12
M  V30 13 1 4 13
M  V30 14 1 4 14
M  V30 15 1 5 15
M  V30 16 1 5 16
M  V30 17 1 6 17
M  V30 18 1 7 18
M  V30 19 1 7 19
M  V30 END BOND
M  V30 END CTAB
M  END
