
     RDKit          3D

  0  0  0  0  0  0  0  0  0  0999 V3000
M  V30 BEGIN CTAB
M  V30 COUNTS 38 39 0 0 0
M  V30 BEGIN ATOM
M  V30 1 N 5.89705 -0.62162 1.7718 0
M  V30 2 C 5.81989 -1.17835 0.451915 0
M  V30 3 N 6.8272 -1.78599 -0.0439565 0
M  V30 4 C 4.57275 -1.0184 -0.267468 0
M  V30 5 C 4.39585 -1.51813 -1.5453 0
M  V30 6 C 3.1934 -1.3475 -2.20276 0
M  V30 7 C 2.13894 -0.680365 -1.61465 0
M  V30 8 C 2.27689 -0.172786 -0.351325 0
M  V30 9 N 1.28648 0.50604 0.368326 0
M  V30 10 C -0.088431 0.532368 0.0752235 0
M  V30 11 O -0.588677 -0.076943 -0.894043 0
M  V30 12 N -0.99323 1.27023 0.886639 0
M  V30 13 C -2.36366 1.3512 0.690955 0
M  V30 14 C -3.01069 2.49998 1.17084 0
M  V30 15 C -4.35946 2.66583 1.05383 0
M  V30 16 C -5.12452 1.70702 0.459623 0
M  V30 17 C -4.5236 0.572659 -0.0193905 0
M  V30 18 C -3.13665 0.402291 0.101517 0
M  V30 19 C -5.29078 -0.486847 -0.66442 0
M  V30 20 N -4.64643 -1.65461 -1.15374 0
M  V30 21 N -6.55657 -0.398592 -0.808493 0
M  V30 22 C 3.51104 -0.362185 0.290614 0
M  V30 23 H 6.01238 0.415685 1.87349 0
M  V30 24 H 5.8442 -1.19627 2.631 0
M  V30 25 H 6.92076 -2.22633 -0.954132 0
M  V30 26 H 5.22832 -2.03851 -1.99541 0
M  V30 27 H 3.10129 -1.76032 -3.21156 0
M  V30 28 H 1.21492 -0.557299 -2.17112 0
M  V30 29 H 1.56547 1.07671 1.23203 0
M  V30 30 H -0.579711 1.80371 1.71985 0
M  V30 31 H -2.39195 3.27094 1.64842 0
M  V30 32 H -4.82439 3.57259 1.43943 0
M  V30 33 H -6.21843 1.83102 0.359069 0
M  V30 34 H -2.71653 -0.528688 -0.280324 0
M  V30 35 H -3.82022 -1.64857 -1.78538 0
M  V30 36 H -5.00852 -2.59451 -0.874281 0
M  V30 37 H -7.19946 0.335221 -0.536424 0
M  V30 38 H 3.6351 0.0393118 1.30339 0
M  V30 END ATOM
M  V30 BEGIN BOND
M  V30 1 1 1 2
M  V30 2 2 2 3 CFG=2
M  V30 3 1 2 4
M  V30 4 2 4 5
M  V30 5 1 5 6
M  V30 6 2 6 7
M  V30 7 1 7 8
M  V30 8 1 8 9
M  V30 9 1 9 10
M  V30 10 2 10 11
M  V30 11 1 10 12
M  V30 12 1 12 13
M  V30 13 2 13 14
M  V30 14 1 14 15
M  V30 15 2 15 16
M  V30 16 1 16 17
M  V30 17 2 17 18
M  V30 18 1 17 19
M  V30 19 1 19 20
M  V30 20 2 19 21 CFG=2
M  V30 21 2 8 22
M  V30 22 1 22 4
M  V30 23 1 18 13
M  V30 24 1 1 23
M  V30 25 1 1 24
M  V30 26 1 3 25
M  V30 27 1 5 26
M  V30 28 1 6 27
M  V30 29 1 7 28
M  V30 30 1 9 29
M  V30 31 1 12 30
M  V30 32 1 14 31
M  V30 33 1 15 32
M  V30 34 1 16 33
M  V30 35 1 18 34
M  V30 36 1 20 35
M  V30 37 1 20 36
M  V30 38 1 21 37
M  V30 39 1 22 38
M  V30 END BOND
M  V30 END CTAB
M  END
