
     RDKit          3D

  0  0  0  0  0  0  0  0  0  0999 V3000
M  V30 BEGIN CTAB
M  V30 COUNTS 38 39 0 0 0
M  V30 BEGIN ATOM
M  V30 1 N -4.41119 -0.512376 0.2663 0
M  V30 2 C -3.81654 0.30014 1.2075 0
M  V30 3 C -2.46341 -0.0992276 1.70691 0
M  V30 4 N -1.50684 -0.155106 0.670823 0
M  V30 5 C -1.56422 -1.20998 -0.26078 0
M  V30 6 C -1.42469 -0.626811 -1.65889 0
M  V30 7 C -0.938544 0.790607 -1.6232 0
M  V30 8 O 0.231712 1.0132 -1.04322 0
M  V30 9 C 0.732763 -0.021664 -0.165864 0 CFG=2
M  V30 10 C -0.173759 0.169454 1.03282 0
M  V30 11 C 2.15128 0.404345 0.0550342 0
M  V30 12 C 2.51043 1.72657 -0.0425207 0
M  V30 13 C 3.84042 2.10991 -0.0712378 0
M  V30 14 C 4.871 1.16709 0.00729511 0
M  V30 15 C 4.50265 -0.163574 0.109809 0
M  V30 16 C 3.13611 -0.525628 0.129175 0
M  V30 17 N 2.84136 -1.89844 0.342102 0
M  V30 18 H -5.0432 -0.0594812 -0.368479 0
M  V30 19 H -4.64648 -1.45808 0.414381 0
M  V30 20 H -3.81013 1.36093 0.81698 0
M  V30 21 H -4.54121 0.337227 2.0895 0
M  V30 22 H -2.5697 -1.08027 2.26709 0
M  V30 23 H -2.14838 0.681318 2.44981 0
M  V30 24 H -0.714408 -1.9588 -0.144526 0
M  V30 25 H -2.44924 -1.90184 -0.194499 0
M  V30 26 H -2.45623 -0.573995 -2.07671 0
M  V30 27 H -0.844685 -1.26117 -2.34524 0
M  V30 28 H -1.74649 1.43352 -1.20561 0
M  V30 29 H -0.860996 1.09245 -2.72435 0
M  V30 30 H 0.650265 -0.916812 -0.731388 0
M  V30 31 H -0.00732186 1.10992 1.5405 0
M  V30 32 H 0.107323 -0.674449 1.81999 0
M  V30 33 H 1.75097 2.51721 -0.120719 0
M  V30 34 H 4.12828 3.14612 -0.136403 0
M  V30 35 H 5.93243 1.45399 -0.012643 0
M  V30 36 H 5.23504 -0.921557 0.190622 0
M  V30 37 H 2.31827 -2.47152 -0.309331 0
M  V30 38 H 3.19737 -2.3232 1.26387 0
M  V30 END ATOM
M  V30 BEGIN BOND
M  V30 1 1 1 2
M  V30 2 1 2 3
M  V30 3 1 3 4
M  V30 4 1 4 5
M  V30 5 1 5 6
M  V30 6 1 6 7
M  V30 7 1 7 8
M  V30 8 1 8 9
M  V30 9 1 9 10
M  V30 10 1 9 11
M  V30 11 2 11 12
M  V30 12 1 12 13
M  V30 13 2 13 14
M  V30 14 1 14 15
M  V30 15 2 15 16
M  V30 16 1 16 17
M  V30 17 1 10 4
M  V30 18 1 16 11
M  V30 19 1 1 18
M  V30 20 1 1 19
M  V30 21 1 2 20
M  V30 22 1 2 21
M  V30 23 1 3 22
M  V30 24 1 3 23
M  V30 25 1 5 24
M  V30 26 1 5 25
M  V30 27 1 6 26
M  V30 28 1 6 27
M  V30 29 1 7 28
M  V30 30 1 7 29
M  V30 31 1 9 30 CFG=3
M  V30 32 1 10 31
M  V30 33 1 10 32
M  V30 34 1 12 33
M  V30 35 1 13 34
M  V30 36 1 14 35
M  V30 37 1 15 36
M  V30 38 1 17 37
M  V30 39 1 17 38
M  V30 END BOND
M  V30 END CTAB
M  END
