
     RDKit          3D

  0  0  0  0  0  0  0  0  0  0999 V3000
M  V30 BEGIN CTAB
M  V30 COUNTS 32 32 0 0 0
M  V30 BEGIN ATOM
M  V30 1 N 5.2285 0.805885 0.610881 0
M  V30 2 N 4.1047 0.560684 -0.172656 0
M  V30 3 C 2.89408 0.204762 0.475175 0
M  V30 4 O 2.81689 0.107626 1.72666 0
M  V30 5 C 1.66942 -0.0662213 -0.31744 0
M  V30 6 C 0.51755 -0.421519 0.567028 0
M  V30 7 C -0.751444 -0.707042 -0.177235 0
M  V30 8 N -0.493549 -1.82926 -1.06674 0
M  V30 9 C -1.20686 0.442737 -1.02871 0
M  V30 10 C -1.78152 1.5038 -0.117808 0
M  V30 11 C -3.15215 1.02907 0.309361 0
M  V30 12 C -3.16145 -0.452541 0.490646 0
M  V30 13 C -1.82109 -1.03959 0.813358 0
M  V30 14 H 5.31265 0.141816 1.39364 0
M  V30 15 H 6.05838 0.820793 -0.0184521 0
M  V30 16 H 4.1243 0.629526 -1.20858 0
M  V30 17 H 1.43519 0.766173 -1.00834 0
M  V30 18 H 1.92599 -0.940319 -0.98542 0
M  V30 19 H 0.788947 -1.35447 1.11924 0
M  V30 20 H 0.412736 0.365393 1.33931 0
M  V30 21 H -1.36318 -2.36486 -1.28033 0
M  V30 22 H 0.0611914 -1.57242 -1.8897 0
M  V30 23 H -2.07932 0.0604589 -1.635 0
M  V30 24 H -0.469703 0.812486 -1.73641 0
M  V30 25 H -1.77559 2.50552 -0.548667 0
M  V30 26 H -1.16559 1.54965 0.815383 0
M  V30 27 H -3.40217 1.58325 1.25593 0
M  V30 28 H -3.85297 1.33006 -0.507905 0
M  V30 29 H -3.55539 -0.943284 -0.444007 0
M  V30 30 H -3.83327 -0.680792 1.34924 0
M  V30 31 H -1.54347 -0.701141 1.83529 0
M  V30 32 H -1.9418 -2.14623 0.83528 0
M  V30 END ATOM
M  V30 BEGIN BOND
M  V30 1 1 1 2
M  V30 2 1 2 3
M  V30 3 2 3 4
M  V30 4 1 3 5
M  V30 5 1 5 6
M  V30 6 1 6 7
M  V30 7 1 7 8
M  V30 8 1 7 9
M  V30 9 1 9 10
M  V30 10 1 10 11
M  V30 11 1 11 12
M  V30 12 1 12 13
M  V30 13 1 13 7
M  V30 14 1 1 14
M  V30 15 1 1 15
M  V30 16 1 2 16
M  V30 17 1 5 17
M  V30 18 1 5 18
M  V30 19 1 6 19
M  V30 20 1 6 20
M  V30 21 1 8 21
M  V30 22 1 8 22
M  V30 23 1 9 23
M  V30 24 1 9 24
M  V30 25 1 10 25
M  V30 26 1 10 26
M  V30 27 1 11 27
M  V30 28 1 11 28
M  V30 29 1 12 29
M  V30 30 1 12 30
M  V30 31 1 13 31
M  V30 32 1 13 32
M  V30 END BOND
M  V30 END CTAB
M  END
