
     RDKit          3D

  0  0  0  0  0  0  0  0  0  0999 V3000
M  V30 BEGIN CTAB
M  V30 COUNTS 29 29 0 0 0
M  V30 BEGIN ATOM
M  V30 1 C -1.98291 -0.16353 2.25635 0
M  V30 2 C -1.51764 -1.08565 1.19003 0
M  V30 3 N -1.15318 -0.459109 -0.0609053 0
M  V30 4 C 0.196554 -0.489211 -0.473473 0
M  V30 5 N 0.602192 -1.16638 -1.58412 0
M  V30 6 C 1.88532 -1.20742 -1.97386 0
M  V30 7 C 2.87946 -0.565801 -1.27482 0
M  V30 8 C 2.51864 0.131899 -0.145659 0
M  V30 9 C 1.16937 0.15757 0.238066 0
M  V30 10 N 0.875734 0.898817 1.39985 0
M  V30 11 N 3.50527 0.813849 0.614764 0
M  V30 12 C -2.23192 0.15056 -0.815074 0
M  V30 13 C -1.78204 0.800602 -2.09271 0
M  V30 14 H -3.00072 -0.504506 2.58951 0
M  V30 15 H -1.34614 -0.227838 3.15853 0
M  V30 16 H -2.11722 0.886566 1.93095 0
M  V30 17 H -2.29904 -1.84926 0.932061 0
M  V30 18 H -0.663777 -1.67694 1.58367 0
M  V30 19 H 2.15471 -1.7575 -2.85945 0
M  V30 20 H 3.93298 -0.597457 -1.59062 0
M  V30 21 H 1.11974 0.62241 2.36338 0
M  V30 22 H 0.362188 1.81329 1.25832 0
M  V30 23 H 4.50392 0.571283 0.469342 0
M  V30 24 H 3.24436 1.54363 1.30664 0
M  V30 25 H -2.67481 0.967779 -0.178647 0
M  V30 26 H -2.99808 -0.632788 -1.02908 0
M  V30 27 H -2.722 1.22609 -2.55641 0
M  V30 28 H -1.15419 1.69491 -1.87399 0
M  V30 29 H -1.30679 0.10414 -2.78264 0
M  V30 END ATOM
M  V30 BEGIN BOND
M  V30 1 1 1 2
M  V30 2 1 2 3
M  V30 3 1 3 4
M  V30 4 2 4 5
M  V30 5 1 5 6
M  V30 6 2 6 7
M  V30 7 1 7 8
M  V30 8 2 8 9
M  V30 9 1 9 10
M  V30 10 1 8 11
M  V30 11 1 3 12
M  V30 12 1 12 13
M  V30 13 1 9 4
M  V30 14 1 1 14
M  V30 15 1 1 15
M  V30 16 1 1 16
M  V30 17 1 2 17
M  V30 18 1 2 18
M  V30 19 1 6 19
M  V30 20 1 7 20
M  V30 21 1 10 21
M  V30 22 1 10 22
M  V30 23 1 11 23
M  V30 24 1 11 24
M  V30 25 1 12 25
M  V30 26 1 12 26
M  V30 27 1 13 27
M  V30 28 1 13 28
M  V30 29 1 13 29
M  V30 END BOND
M  V30 END CTAB
M  END
