
     RDKit          3D

  0  0  0  0  0  0  0  0  0  0999 V3000
M  V30 BEGIN CTAB
M  V30 COUNTS 48 50 0 0 0
M  V30 BEGIN ATOM
M  V30 1 C 1.46847 4.52225 0.527864 0
M  V30 2 C 1.37075 3.90798 -0.862884 0
M  V30 3 N 0.572077 2.706 -0.73459 0
M  V30 4 C 1.12855 1.50462 -0.473039 0
M  V30 5 C 2.41899 1.05416 -0.269415 0
M  V30 6 C 2.69993 -0.277494 -0.0126677 0
M  V30 7 O 3.95918 -0.756957 0.192024 0
M  V30 8 C 4.39465 -2.03316 0.456444 0
M  V30 9 C 3.8154 -2.57476 1.7403 0
M  V30 10 N 4.36458 -3.92144 1.8872 0
M  V30 11 N 1.6527 -1.11716 0.0296692 0
M  V30 12 C 0.38411 -0.706784 -0.164904 0
M  V30 13 C -0.735335 -1.62052 -0.116866 0
M  V30 14 C -1.66591 -2.37889 -0.0978217 0
M  V30 15 C -2.79281 -3.3126 -0.0970866 0
M  V30 16 C -4.04037 -2.50165 -0.384329 0
M  V30 17 C -2.92569 -4.03568 1.21827 0
M  V30 18 O -2.64356 -4.29017 -1.09217 0
M  V30 19 C 0.0796887 0.614704 -0.422237 0
M  V30 20 N -1.0474 1.30518 -0.6515 0
M  V30 21 C -0.760598 2.62717 -0.851289 0
M  V30 22 C -1.72502 3.67955 -1.12589 0
M  V30 23 N -1.50414 4.9783 -1.32786 0
M  V30 24 O -2.62272 5.59644 -1.54272 0
M  V30 25 N -3.59224 4.74338 -1.49005 0
M  V30 26 C -3.08355 3.50796 -1.22818 0
M  V30 27 N -3.86876 2.32875 -1.10152 0
M  V30 28 H 2.31343 4.09035 1.10912 0
M  V30 29 H 1.5156 5.62875 0.490655 0
M  V30 30 H 0.549389 4.26273 1.13092 0
M  V30 31 H 1.02726 4.60702 -1.62765 0
M  V30 32 H 2.42219 3.65217 -1.13829 0
M  V30 33 H 3.24149 1.75725 -0.310137 0
M  V30 34 H 5.4818 -2.17936 0.39054 0
M  V30 35 H 3.97415 -2.69672 -0.358179 0
M  V30 36 H 2.72986 -2.69602 1.72342 0
M  V30 37 H 4.10946 -1.92222 2.59032 0
M  V30 38 H 5.39652 -3.87123 1.8266 0
M  V30 39 H 4.08291 -4.28498 2.81963 0
M  V30 40 H -4.83397 -3.1358 -0.837283 0
M  V30 41 H -3.74191 -1.68465 -1.08076 0
M  V30 42 H -4.35193 -2.03405 0.562461 0
M  V30 43 H -1.94138 -4.37344 1.56871 0
M  V30 44 H -3.49488 -3.48024 1.96724 0
M  V30 45 H -3.51929 -4.9704 1.00233 0
M  V30 46 H -1.94039 -4.01829 -1.72949 0
M  V30 47 H -3.51974 1.41543 -1.45757 0
M  V30 48 H -4.80153 2.38449 -0.647321 0
M  V30 END ATOM
M  V30 BEGIN BOND
M  V30 1 1 1 2
M  V30 2 1 2 3
M  V30 3 1 3 4
M  V30 4 2 4 5
M  V30 5 1 5 6
M  V30 6 1 6 7
M  V30 7 1 7 8
M  V30 8 1 8 9
M  V30 9 1 9 10
M  V30 10 2 6 11
M  V30 11 1 11 12
M  V30 12 1 12 13
M  V30 13 3 13 14
M  V30 14 1 14 15
M  V30 15 1 15 16
M  V30 16 1 15 17
M  V30 17 1 15 18
M  V30 18 2 12 19
M  V30 19 1 19 20
M  V30 20 2 20 21
M  V30 21 1 21 22
M  V30 22 2 22 23
M  V30 23 1 23 24
M  V30 24 1 24 25
M  V30 25 2 25 26
M  V30 26 1 26 27
M  V30 27 1 21 3
M  V30 28 1 26 22
M  V30 29 1 19 4
M  V30 30 1 1 28
M  V30 31 1 1 29
M  V30 32 1 1 30
M  V30 33 1 2 31
M  V30 34 1 2 32
M  V30 35 1 5 33
M  V30 36 1 8 34
M  V30 37 1 8 35
M  V30 38 1 9 36
M  V30 39 1 9 37
M  V30 40 1 10 38
M  V30 41 1 10 39
M  V30 42 1 16 40
M  V30 43 1 16 41
M  V30 44 1 16 42
M  V30 45 1 17 43
M  V30 46 1 17 44
M  V30 47 1 17 45
M  V30 48 1 18 46
M  V30 49 1 27 47
M  V30 50 1 27 48
M  V30 END BOND
M  V30 END CTAB
M  END
