
     RDKit          3D

  0  0  0  0  0  0  0  0  0  0999 V3000
M  V30 BEGIN CTAB
M  V30 COUNTS 30 31 0 0 0
M  V30 BEGIN ATOM
M  V30 1 N -5.2418 -0.645516 -0.815989 0
M  V30 2 C -3.87261 -0.277396 -0.691057 0
M  V30 3 N -3.03143 -0.233188 -1.73401 0
M  V30 4 C -1.72667 0.126427 -1.56069 0
M  V30 5 C -1.23568 0.453797 -0.313652 0
M  V30 6 N -2.07895 0.410154 0.736029 0
M  V30 7 C -3.37995 0.0518698 0.565019 0
M  V30 8 N -4.28224 0.00210719 1.66935 0
M  V30 9 O 0.100038 0.812891 -0.191961 0
M  V30 10 C 0.587693 1.14552 1.09263 0
M  V30 11 C 2.03936 1.51279 1.08355 0
M  V30 12 C 2.89079 0.409175 0.588046 0
M  V30 13 C 3.20461 0.264682 -0.743162 0
M  V30 14 C 4.00943 -0.784053 -1.18727 0
M  V30 15 C 4.49749 -1.69023 -0.273268 0
M  V30 16 C 4.16531 -1.51808 1.0518 0
M  V30 17 N 3.3758 -0.483193 1.46076 0
M  V30 18 H -5.96796 0.103358 -0.836236 0
M  V30 19 H -5.47724 -1.64304 -0.883006 0
M  V30 20 H -1.05638 0.158428 -2.41163 0
M  V30 21 H -4.88841 0.802381 1.90104 0
M  V30 22 H -4.35878 -0.846746 2.27993 0
M  V30 23 H 0.406478 0.307224 1.76047 0
M  V30 24 H 0.0165666 2.02988 1.43097 0
M  V30 25 H 2.23028 2.44074 0.506239 0
M  V30 26 H 2.32331 1.75025 2.13505 0
M  V30 27 H 2.82161 0.980828 -1.48248 0
M  V30 28 H 4.25497 -0.891857 -2.25183 0
M  V30 29 H 5.1287 -2.52296 -0.576756 0
M  V30 30 H 4.54564 -2.22624 1.77284 0
M  V30 END ATOM
M  V30 BEGIN BOND
M  V30 1 1 1 2
M  V30 2 2 2 3
M  V30 3 1 3 4
M  V30 4 2 4 5
M  V30 5 1 5 6
M  V30 6 2 6 7
M  V30 7 1 7 8
M  V30 8 1 5 9
M  V30 9 1 9 10
M  V30 10 1 10 11
M  V30 11 1 11 12
M  V30 12 2 12 13
M  V30 13 1 13 14
M  V30 14 2 14 15
M  V30 15 1 15 16
M  V30 16 2 16 17
M  V30 17 1 7 2
M  V30 18 1 17 12
M  V30 19 1 1 18
M  V30 20 1 1 19
M  V30 21 1 4 20
M  V30 22 1 8 21
M  V30 23 1 8 22
M  V30 24 1 10 23
M  V30 25 1 10 24
M  V30 26 1 11 25
M  V30 27 1 11 26
M  V30 28 1 13 27
M  V30 29 1 14 28
M  V30 30 1 15 29
M  V30 31 1 16 30
M  V30 END BOND
M  V30 END CTAB
M  END
