
     RDKit          3D

  0  0  0  0  0  0  0  0  0  0999 V3000
M  V30 BEGIN CTAB
M  V30 COUNTS 47 50 0 0 0
M  V30 BEGIN ATOM
M  V30 1 N 4.85463 1.68163 1.51106 0
M  V30 2 C 4.49154 0.626233 0.613885 0
M  V30 3 N 3.65321 -0.362011 0.98408 0
M  V30 4 C 3.31887 -1.34694 0.135178 0
M  V30 5 S 2.22653 -2.68117 0.542773 0
M  V30 6 C 0.490216 -2.31845 0.178774 0
M  V30 7 C 0.042432 -1.22465 1.10814 0
M  V30 8 O 0.849148 -0.783729 1.95691 0
M  V30 9 N -1.26783 -0.694565 1.03201 0
M  V30 10 C -2.20914 -1.31552 0.132203 0
M  V30 11 C -3.5499 -1.63686 0.689683 0
M  V30 12 S -4.057 -0.741013 2.14428 0
M  V30 13 C -2.8555 0.519376 2.44412 0
M  V30 14 C -1.61373 0.410162 1.86198 0
M  V30 15 C -0.711515 1.41639 2.10778 0
M  V30 16 C -1.01602 2.50349 2.90507 0
M  V30 17 C -2.27455 2.60015 3.48711 0
M  V30 18 C -3.16437 1.57589 3.22415 0
M  V30 19 C -2.29641 -0.662627 -1.20079 0
M  V30 20 C -2.30018 -1.42325 -2.37931 0
M  V30 21 C -2.38533 -0.842637 -3.62245 0
M  V30 22 C -2.47121 0.521947 -3.76973 0
M  V30 23 C -2.46948 1.2884 -2.63309 0
M  V30 24 C -2.38324 0.692105 -1.38088 0
M  V30 25 N 3.85961 -1.31056 -1.11802 0
M  V30 26 C 4.69119 -0.358173 -1.53217 0
M  V30 27 C 5.03591 0.650704 -0.667478 0
M  V30 28 N 5.24393 -0.33543 -2.83768 0
M  V30 29 H 4.70961 1.53499 2.51287 0
M  V30 30 H 5.2546 2.56999 1.14657 0
M  V30 31 H -0.0674202 -3.25447 0.397278 0
M  V30 32 H 0.379482 -2.07215 -0.872163 0
M  V30 33 H -1.77293 -2.34492 -0.110016 0
M  V30 34 H -4.298 -1.41651 -0.125729 0
M  V30 35 H -3.69458 -2.74327 0.886091 0
M  V30 36 H 0.28594 1.36729 1.64269 0
M  V30 37 H -0.328239 3.30311 3.11393 0
M  V30 38 H -2.56193 3.42904 4.11754 0
M  V30 39 H -4.15172 1.68178 3.69865 0
M  V30 40 H -2.23164 -2.5117 -2.26081 0
M  V30 41 H -2.38721 -1.45076 -4.52 0
M  V30 42 H -2.53856 0.971999 -4.75722 0
M  V30 43 H -2.5357 2.36741 -2.70339 0
M  V30 44 H -2.38708 1.34392 -0.516538 0
M  V30 45 H 5.71397 1.43883 -0.985492 0
M  V30 46 H 4.86993 0.339596 -3.52573 0
M  V30 47 H 6.00968 -1.0031 -3.05612 0
M  V30 END ATOM
M  V30 BEGIN BOND
M  V30 1 1 1 2
M  V30 2 2 2 3
M  V30 3 1 3 4
M  V30 4 1 4 5
M  V30 5 1 5 6
M  V30 6 1 6 7
M  V30 7 2 7 8
M  V30 8 1 7 9
M  V30 9 1 9 10
M  V30 10 1 10 11
M  V30 11 1 11 12
M  V30 12 1 12 13
M  V30 13 2 13 14
M  V30 14 1 14 15
M  V30 15 2 15 16
M  V30 16 1 16 17
M  V30 17 2 17 18
M  V30 18 1 10 19
M  V30 19 2 19 20
M  V30 20 1 20 21
M  V30 21 2 21 22
M  V30 22 1 22 23
M  V30 23 2 23 24
M  V30 24 2 4 25
M  V30 25 1 25 26
M  V30 26 2 26 27
M  V30 27 1 26 28
M  V30 28 1 27 2
M  V30 29 1 14 9
M  V30 30 1 24 19
M  V30 31 1 18 13
M  V30 32 1 1 29
M  V30 33 1 1 30
M  V30 34 1 6 31
M  V30 35 1 6 32
M  V30 36 1 10 33
M  V30 37 1 11 34
M  V30 38 1 11 35
M  V30 39 1 15 36
M  V30 40 1 16 37
M  V30 41 1 17 38
M  V30 42 1 18 39
M  V30 43 1 20 40
M  V30 44 1 21 41
M  V30 45 1 22 42
M  V30 46 1 23 43
M  V30 47 1 24 44
M  V30 48 1 27 45
M  V30 49 1 28 46
M  V30 50 1 28 47
M  V30 END BOND
M  V30 END CTAB
M  END
