
     RDKit          3D

  0  0  0  0  0  0  0  0  0  0999 V3000
M  V30 BEGIN CTAB
M  V30 COUNTS 26 27 0 0 0
M  V30 BEGIN ATOM
M  V30 1 N -3.83984 1.31974 -0.624228 0
M  V30 2 C -2.50285 1.60863 -1.0026 0
M  V30 3 S -2.24634 2.99707 -1.82411 0
M  V30 4 C -1.39092 0.720575 -0.683364 0
M  V30 5 N -0.0900756 1.0344 -0.65344 0
M  V30 6 C 0.654299 -0.0342525 -0.319316 0
M  V30 7 N -0.217229 -1.03085 -0.139663 0
M  V30 8 C -1.48531 -0.629292 -0.348502 0
M  V30 9 C -2.66327 -1.44349 -0.240998 0
M  V30 10 S -3.17586 -2.35283 -1.49252 0
M  V30 11 N -3.41872 -1.48157 0.960287 0
M  V30 12 C 2.11022 -0.051047 -0.192353 0
M  V30 13 C 2.80296 -1.17083 0.150354 0
M  V30 14 C 4.1609 -1.12094 0.252132 0
M  V30 15 C 4.84472 0.0509822 0.0122013 0
M  V30 16 N 4.17329 1.14927 -0.32325 0
M  V30 17 C 2.84521 1.09597 -0.421646 0
M  V30 18 H -4.48623 0.819672 -1.27707 0
M  V30 19 H -4.18534 1.60473 0.30752 0
M  V30 20 H 0.277327 1.98765 -0.864568 0
M  V30 21 H -4.45455 -1.49009 0.953469 0
M  V30 22 H -2.92506 -1.5014 1.86764 0
M  V30 23 H 2.25324 -2.09144 0.337781 0
M  V30 24 H 4.71607 -2.03242 0.530359 0
M  V30 25 H 5.93481 0.0338471 0.108422 0
M  V30 26 H 2.30856 2.00792 -0.69843 0
M  V30 END ATOM
M  V30 BEGIN BOND
M  V30 1 1 1 2
M  V30 2 2 2 3
M  V30 3 1 2 4
M  V30 4 1 4 5
M  V30 5 1 5 6
M  V30 6 2 6 7
M  V30 7 1 7 8
M  V30 8 1 8 9
M  V30 9 2 9 10
M  V30 10 1 9 11
M  V30 11 1 6 12
M  V30 12 2 12 13
M  V30 13 1 13 14
M  V30 14 2 14 15
M  V30 15 1 15 16
M  V30 16 2 16 17
M  V30 17 2 8 4
M  V30 18 1 17 12
M  V30 19 1 1 18
M  V30 20 1 1 19
M  V30 21 1 5 20
M  V30 22 1 11 21
M  V30 23 1 11 22
M  V30 24 1 13 23
M  V30 25 1 14 24
M  V30 26 1 15 25
M  V30 27 1 17 26
M  V30 END BOND
M  V30 END CTAB
M  END
