
     RDKit          3D

  0  0  0  0  0  0  0  0  0  0999 V3000
M  V30 BEGIN CTAB
M  V30 COUNTS 36 37 0 0 0
M  V30 BEGIN ATOM
M  V30 1 O 1.19986 -1.59673 -0.697245 0
M  V30 2 C 1.52027 -1.04518 0.383819 0
M  V30 3 C 2.81439 -0.417062 0.47294 0
M  V30 4 C 3.29922 0.134187 1.63496 0
M  V30 5 C 4.5621 0.739482 1.68947 0
M  V30 6 C 5.35996 0.803139 0.583974 0
M  V30 7 C 4.90185 0.260202 -0.592168 0
M  V30 8 C 3.66781 -0.328924 -0.637518 0
M  V30 9 N 5.70499 0.302794 -1.78119 0
M  V30 10 Cl 6.94357 1.55569 0.631999 0
M  V30 11 N 0.63158 -1.05423 1.4512 0
M  V30 12 C -0.679969 -1.65831 1.45026 0
M  V30 13 C -1.71806 -0.919558 0.74869 0
M  V30 14 C -2.3558 0.124301 1.38902 0
M  V30 15 C -3.35606 0.867168 0.781205 0
M  V30 16 C -3.73714 0.559718 -0.514628 0
M  V30 17 C -3.09038 -0.486366 -1.14156 0
M  V30 18 C -2.09268 -1.2307 -0.541471 0
M  V30 19 S -4.9844 1.43998 -1.35563 0
M  V30 20 O -4.92862 2.86887 -0.939304 0
M  V30 21 O -4.69157 1.30904 -2.84477 0
M  V30 22 N -6.54291 0.7705 -1.1066 0
M  V30 23 H 2.74214 0.131214 2.56043 0
M  V30 24 H 4.9204 1.16958 2.62921 0
M  V30 25 H 3.33917 -0.751222 -1.5988 0
M  V30 26 H 6.72381 0.133777 -1.78997 0
M  V30 27 H 5.23601 0.515312 -2.68262 0
M  V30 28 H 0.910203 -0.585527 2.34886 0
M  V30 29 H -0.565216 -2.6571 0.946172 0
M  V30 30 H -0.963181 -1.8838 2.49473 0
M  V30 31 H -2.10922 0.422745 2.40659 0
M  V30 32 H -3.85037 1.6854 1.29411 0
M  V30 33 H -3.35244 -0.7756 -2.1729 0
M  V30 34 H -1.62462 -2.05014 -1.10352 0
M  V30 35 H -6.60013 0.107064 -0.31981 0
M  V30 36 H -7.23457 1.54027 -0.943663 0
M  V30 END ATOM
M  V30 BEGIN BOND
M  V30 1 2 1 2
M  V30 2 1 2 3
M  V30 3 2 3 4
M  V30 4 1 4 5
M  V30 5 2 5 6
M  V30 6 1 6 7
M  V30 7 2 7 8
M  V30 8 1 7 9
M  V30 9 1 6 10
M  V30 10 1 2 11
M  V30 11 1 11 12
M  V30 12 1 12 13
M  V30 13 2 13 14
M  V30 14 1 14 15
M  V30 15 2 15 16
M  V30 16 1 16 17
M  V30 17 2 17 18
M  V30 18 1 16 19
M  V30 19 2 19 20
M  V30 20 2 19 21
M  V30 21 1 19 22
M  V30 22 1 8 3
M  V30 23 1 18 13
M  V30 24 1 4 23
M  V30 25 1 5 24
M  V30 26 1 8 25
M  V30 27 1 9 26
M  V30 28 1 9 27
M  V30 29 1 11 28
M  V30 30 1 12 29
M  V30 31 1 12 30
M  V30 32 1 14 31
M  V30 33 1 15 32
M  V30 34 1 17 33
M  V30 35 1 18 34
M  V30 36 1 22 35
M  V30 37 1 22 36
M  V30 END BOND
M  V30 END CTAB
M  END
