
     RDKit          3D

  0  0  0  0  0  0  0  0  0  0999 V3000
M  V30 BEGIN CTAB
M  V30 COUNTS 30 30 0 0 0
M  V30 BEGIN ATOM
M  V30 1 C 3.47979 1.05774 -0.350166 0
M  V30 2 C 2.67335 -0.221411 -0.309843 0
M  V30 3 C 1.35363 -0.0316852 0.411059 0
M  V30 4 C 0.531627 1.01877 -0.293586 0
M  V30 5 C -0.873865 1.03568 0.188868 0
M  V30 6 C -1.52326 -0.326161 0.230885 0
M  V30 7 C -0.707395 -1.33365 0.990257 0
M  V30 8 C 0.670477 -1.37533 0.427007 0
M  V30 9 N -1.72903 -0.735264 -1.15337 0
M  V30 10 C -2.85382 -0.169427 0.840137 0
M  V30 11 S -3.21298 -0.967687 2.19959 0
M  V30 12 N -3.79396 0.677127 0.224575 0
M  V30 13 H 3.57909 1.40368 0.697752 0
M  V30 14 H 2.91524 1.81065 -0.940036 0
M  V30 15 H 4.45085 0.819898 -0.816731 0
M  V30 16 H 2.50719 -0.644683 -1.30708 0
M  V30 17 H 3.26009 -0.953889 0.311671 0
M  V30 18 H 1.58907 0.35589 1.41415 0
M  V30 19 H 0.59597 0.934219 -1.40096 0
M  V30 20 H 0.992723 2.00328 -0.0382534 0
M  V30 21 H -0.971723 1.54162 1.16726 0
M  V30 22 H -1.49011 1.64449 -0.536338 0
M  V30 23 H -1.17523 -2.32289 0.837713 0
M  V30 24 H -0.667355 -1.02854 2.03881 0
M  V30 25 H 1.33736 -2.06753 0.983742 0
M  V30 26 H 0.677951 -1.74845 -0.629525 0
M  V30 27 H -2.4304 -1.50267 -1.22274 0
M  V30 28 H -0.855848 -0.893992 -1.66804 0
M  V30 29 H -4.32257 1.40586 0.757363 0
M  V30 30 H -4.00687 0.614364 -0.799703 0
M  V30 END ATOM
M  V30 BEGIN BOND
M  V30 1 1 1 2
M  V30 2 1 2 3
M  V30 3 1 3 4
M  V30 4 1 4 5
M  V30 5 1 5 6
M  V30 6 1 6 7
M  V30 7 1 7 8
M  V30 8 1 6 9
M  V30 9 1 6 10
M  V30 10 2 10 11
M  V30 11 1 10 12
M  V30 12 1 8 3
M  V30 13 1 1 13
M  V30 14 1 1 14
M  V30 15 1 1 15
M  V30 16 1 2 16
M  V30 17 1 2 17
M  V30 18 1 3 18
M  V30 19 1 4 19
M  V30 20 1 4 20
M  V30 21 1 5 21
M  V30 22 1 5 22
M  V30 23 1 7 23
M  V30 24 1 7 24
M  V30 25 1 8 25
M  V30 26 1 8 26
M  V30 27 1 9 27
M  V30 28 1 9 28
M  V30 29 1 12 29
M  V30 30 1 12 30
M  V30 END BOND
M  V30 END CTAB
M  END
