
     RDKit          3D

  0  0  0  0  0  0  0  0  0  0999 V3000
M  V30 BEGIN CTAB
M  V30 COUNTS 138 142 0 0 0
M  V30 BEGIN ATOM
M  V30 1 C -3.8681 -1.43158 4.47174 0
M  V30 2 C -3.21571 -1.69812 3.09359 0
M  V30 3 C -2.5255 -0.431397 2.73207 0
M  V30 4 O -1.84401 -0.337104 1.56588 0
M  V30 5 C -2.37776 -0.488964 0.194832 0
M  V30 6 C -2.34956 -1.70535 -0.442706 0
M  V30 7 C -1.67712 -3.01512 -0.116927 0
M  V30 8 C -0.220387 -3.05904 0.274415 0
M  V30 9 C -0.131743 -3.63616 1.55576 0
M  V30 10 C 1.00265 -3.68367 2.31397 0
M  V30 11 C 2.08039 -3.10079 1.71415 0
M  V30 12 C 2.0748 -2.49621 0.430494 0
M  V30 13 C 3.40109 -1.78132 0.255637 0
M  V30 14 C 3.33321 -0.317758 -0.163007 0
M  V30 15 C 3.6954 -0.304752 -1.53588 0
M  V30 16 C 3.60923 0.774174 -2.35132 0
M  V30 17 C 3.12271 1.88717 -1.72236 0
M  V30 18 C 2.74667 1.95439 -0.37913 0
M  V30 19 C 2.10618 3.28916 -0.156121 0
M  V30 20 C 0.623314 3.34688 0.0733198 0
M  V30 21 C 0.420117 3.92888 1.33826 0
M  V30 22 C -0.759204 3.9704 2.02693 0
M  V30 23 C -1.79463 3.37431 1.37261 0
M  V30 24 C -1.68342 2.76601 0.0938856 0
M  V30 25 C -2.99759 2.07112 -0.166834 0
M  V30 26 C -2.93037 0.586518 -0.458261 0
M  V30 27 C -3.4637 0.40021 -1.75031 0
M  V30 28 C -3.48083 -0.776379 -2.43616 0
M  V30 29 C -2.90415 -1.79536 -1.72632 0
M  V30 30 C -4.07379 -0.947958 -3.77411 0
M  V30 31 C -3.1036 -1.0537 -4.89653 0
M  V30 32 C -5.0419 0.218645 -3.98055 0
M  V30 33 C -4.95973 -2.19066 -3.70746 0
M  V30 34 C -0.478514 2.75601 -0.571914 0
M  V30 35 O -0.326754 2.18228 -1.91675 0
M  V30 36 C -0.572195 2.81249 -3.10874 0
M  V30 37 C 0.20621 4.06096 -3.3794 0
M  V30 38 N -0.159274 4.63603 -4.67626 0
M  V30 39 C -0.907801 4.59086 3.36183 0
M  V30 40 C -1.42292 3.53872 4.31558 0
M  V30 41 C 0.375949 5.16322 3.85221 0
M  V30 42 C -1.95868 5.69222 3.35938 0
M  V30 43 C 2.8633 0.811654 0.446804 0
M  V30 44 O 2.52569 0.902235 1.85596 0
M  V30 45 C 1.44806 0.561256 2.56755 0
M  V30 46 C 1.77802 0.965158 4.04197 0
M  V30 47 C 2.99958 0.234825 4.49127 0
M  V30 48 C 4.0154 0.750793 -3.77094 0
M  V30 49 C 4.66111 2.10228 -4.07503 0
M  V30 50 C 2.87925 0.457248 -4.69747 0
M  V30 51 C 5.127 -0.268373 -3.89997 0
M  V30 52 C 0.914128 -2.48229 -0.316634 0
M  V30 53 O 0.849402 -1.93023 -1.66543 0
M  V30 54 C 1.15813 -2.5919 -2.83862 0
M  V30 55 C 0.323967 -3.82491 -2.99127 0
M  V30 56 N 0.629825 -4.55107 -4.20939 0
M  V30 57 C 1.06416 -4.28166 3.65647 0
M  V30 58 C 2.35887 -5.05398 3.77018 0
M  V30 59 C 1.0434 -3.22521 4.74086 0
M  V30 60 C -0.0681947 -5.25854 3.80594 0
M  V30 61 H -3.13329 -0.878686 5.10376 0
M  V30 62 H -4.17609 -2.356 4.95643 0
M  V30 63 H -4.66922 -0.702223 4.25646 0
M  V30 64 H -2.53366 -2.55094 3.24412 0
M  V30 65 H -4.01402 -1.89048 2.34646 0
M  V30 66 H -3.25639 0.446906 2.77323 0
M  V30 67 H -1.81286 -0.176518 3.56081 0
M  V30 68 H -2.26161 -3.54442 0.690256 0
M  V30 69 H -1.9021 -3.77951 -0.936686 0
M  V30 70 H -1.00441 -4.11514 2.04129 0
M  V30 71 H 3.01067 -3.14325 2.32417 0
M  V30 72 H 4.01472 -1.94118 1.16916 0
M  V30 73 H 4.10547 -2.37478 -0.42425 0
M  V30 74 H 4.08334 -1.22032 -2.03394 0
M  V30 75 H 3.05776 2.78964 -2.38225 0
M  V30 76 H 2.33288 3.95397 -1.0135 0
M  V30 77 H 2.66616 3.90036 0.606275 0
M  V30 78 H 1.25485 4.4315 1.88677 0
M  V30 79 H -2.75438 3.4023 1.91957 0
M  V30 80 H -3.57746 2.66213 -0.950231 0
M  V30 81 H -3.77153 2.25149 0.651197 0
M  V30 82 H -3.91469 1.27582 -2.29843 0
M  V30 83 H -2.90377 -2.78532 -2.27257 0
M  V30 84 H -3.58189 -1.73441 -5.65805 0
M  V30 85 H -2.16076 -1.52294 -4.60846 0
M  V30 86 H -2.95882 -0.0988437 -5.44854 0
M  V30 87 H -5.84074 -0.133365 -4.68637 0
M  V30 88 H -4.5827 1.08441 -4.45702 0
M  V30 89 H -5.57239 0.433258 -3.02442 0
M  V30 90 H -4.40582 -3.11309 -3.90537 0
M  V30 91 H -5.43174 -2.15443 -2.70831 0
M  V30 92 H -5.7957 -2.01384 -4.44676 0
M  V30 93 H -0.319657 2.09928 -3.91703 0
M  V30 94 H -1.68004 2.9948 -3.25232 0
M  V30 95 H 1.27052 3.82086 -3.46412 0
M  V30 96 H -0.0443477 4.8303 -2.63343 0
M  V30 97 H -0.210173 3.89797 -5.40275 0
M  V30 98 H 0.503869 5.36765 -4.98049 0
M  V30 99 H -2.24461 2.9574 3.8871 0
M  V30 100 H -1.7804 3.9888 5.27026 0
M  V30 101 H -0.625147 2.83339 4.58467 0
M  V30 102 H 1.12624 4.36412 3.90837 0
M  V30 103 H 0.746872 5.944 3.14487 0
M  V30 104 H 0.201651 5.62814 4.8586 0
M  V30 105 H -1.73448 6.41604 2.55088 0
M  V30 106 H -2.96706 5.27696 3.14698 0
M  V30 107 H -2.00543 6.17223 4.34563 0
M  V30 108 H 1.27463 -0.514169 2.65458 0
M  V30 109 H 0.490324 1.0831 2.33116 0
M  V30 110 H 0.900846 0.747816 4.6539 0
M  V30 111 H 2.01888 2.0438 3.95054 0
M  V30 112 H 3.89208 0.92726 4.52558 0
M  V30 113 H 3.32744 -0.576966 3.8073 0
M  V30 114 H 2.90095 -0.167528 5.53804 0
M  V30 115 H 5.11385 2.4646 -3.12832 0
M  V30 116 H 3.8743 2.78824 -4.41791 0
M  V30 117 H 5.4442 1.99728 -4.86848 0
M  V30 118 H 1.94286 0.158285 -4.20018 0
M  V30 119 H 2.65071 1.39583 -5.25152 0
M  V30 120 H 3.17758 -0.373644 -5.39674 0
M  V30 121 H 5.80248 -0.0456563 -4.75317 0
M  V30 122 H 4.71554 -1.30378 -3.96099 0
M  V30 123 H 5.75898 -0.260999 -2.97989 0
M  V30 124 H 0.844369 -1.89211 -3.67417 0
M  V30 125 H 2.22676 -2.77768 -2.96359 0
M  V30 126 H 0.348382 -4.46254 -2.10166 0
M  V30 127 H -0.736528 -3.49402 -3.10267 0
M  V30 128 H -0.265486 -4.89268 -4.61522 0
M  V30 129 H 1.18603 -5.4298 -3.99266 0
M  V30 130 H 3.21126 -4.44465 4.12775 0
M  V30 131 H 2.2261 -5.97355 4.40073 0
M  V30 132 H 2.61788 -5.45248 2.76028 0
M  V30 133 H 0.297619 -2.45731 4.44592 0
M  V30 134 H 0.762668 -3.73267 5.68351 0
M  V30 135 H 2.06218 -2.8452 4.84487 0
M  V30 136 H -0.0876443 -5.86287 2.87176 0
M  V30 137 H -1.03799 -4.73871 3.96861 0
M  V30 138 H 0.171021 -5.96775 4.62891 0
M  V30 END ATOM
M  V30 BEGIN BOND
M  V30 1 1 1 2
M  V30 2 1 2 3
M  V30 3 1 3 4
M  V30 4 1 4 5
M  V30 5 2 5 6
M  V30 6 1 6 7
M  V30 7 1 7 8
M  V30 8 2 8 9
M  V30 9 1 9 10
M  V30 10 2 10 11
M  V30 11 1 11 12
M  V30 12 1 12 13
M  V30 13 1 13 14
M  V30 14 2 14 15
M  V30 15 1 15 16
M  V30 16 2 16 17
M  V30 17 1 17 18
M  V30 18 1 18 19
M  V30 19 1 19 20
M  V30 20 2 20 21
M  V30 21 1 21 22
M  V30 22 2 22 23
M  V30 23 1 23 24
M  V30 24 1 24 25
M  V30 25 1 25 26
M  V30 26 2 26 27
M  V30 27 1 27 28
M  V30 28 2 28 29
M  V30 29 1 28 30
M  V30 30 1 30 31
M  V30 31 1 30 32
M  V30 32 1 30 33
M  V30 33 2 24 34
M  V30 34 1 34 35
M  V30 35 1 35 36
M  V30 36 1 36 37
M  V30 37 1 37 38
M  V30 38 1 22 39
M  V30 39 1 39 40
M  V30 40 1 39 41
M  V30 41 1 39 42
M  V30 42 2 18 43
M  V30 43 1 43 44
M  V30 44 1 44 45
M  V30 45 1 45 46
M  V30 46 1 46 47
M  V30 47 1 16 48
M  V30 48 1 48 49
M  V30 49 1 48 50
M  V30 50 1 48 51
M  V30 51 2 12 52
M  V30 52 1 52 53
M  V30 53 1 53 54
M  V30 54 1 54 55
M  V30 55 1 55 56
M  V30 56 1 10 57
M  V30 57 1 57 58
M  V30 58 1 57 59
M  V30 59 1 57 60
M  V30 60 1 26 5
M  V30 61 1 29 6
M  V30 62 1 52 8
M  V30 63 1 43 14
M  V30 64 1 34 20
M  V30 65 1 1 61
M  V30 66 1 1 62
M  V30 67 1 1 63
M  V30 68 1 2 64
M  V30 69 1 2 65
M  V30 70 1 3 66
M  V30 71 1 3 67
M  V30 72 1 7 68
M  V30 73 1 7 69
M  V30 74 1 9 70
M  V30 75 1 11 71
M  V30 76 1 13 72
M  V30 77 1 13 73
M  V30 78 1 15 74
M  V30 79 1 17 75
M  V30 80 1 19 76
M  V30 81 1 19 77
M  V30 82 1 21 78
M  V30 83 1 23 79
M  V30 84 1 25 80
M  V30 85 1 25 81
M  V30 86 1 27 82
M  V30 87 1 29 83
M  V30 88 1 31 84
M  V30 89 1 31 85
M  V30 90 1 31 86
M  V30 91 1 32 87
M  V30 92 1 32 88
M  V30 93 1 32 89
M  V30 94 1 33 90
M  V30 95 1 33 91
M  V30 96 1 33 92
M  V30 97 1 36 93
M  V30 98 1 36 94
M  V30 99 1 37 95
M  V30 100 1 37 96
M  V30 101 1 38 97
M  V30 102 1 38 98
M  V30 103 1 40 99
M  V30 104 1 40 100
M  V30 105 1 40 101
M  V30 106 1 41 102
M  V30 107 1 41 103
M  V30 108 1 41 104
M  V30 109 1 42 105
M  V30 110 1 42 106
M  V30 111 1 42 107
M  V30 112 1 45 108
M  V30 113 1 45 109
M  V30 114 1 46 110
M  V30 115 1 46 111
M  V30 116 1 47 112
M  V30 117 1 47 113
M  V30 118 1 47 114
M  V30 119 1 49 115
M  V30 120 1 49 116
M  V30 121 1 49 117
M  V30 122 1 50 118
M  V30 123 1 50 119
M  V30 124 1 50 120
M  V30 125 1 51 121
M  V30 126 1 51 122
M  V30 127 1 51 123
M  V30 128 1 54 124
M  V30 129 1 54 125
M  V30 130 1 55 126
M  V30 131 1 55 127
M  V30 132 1 56 128
M  V30 133 1 56 129
M  V30 134 1 58 130
M  V30 135 1 58 131
M  V30 136 1 58 132
M  V30 137 1 59 133
M  V30 138 1 59 134
M  V30 139 1 59 135
M  V30 140 1 60 136
M  V30 141 1 60 137
M  V30 142 1 60 138
M  V30 END BOND
M  V30 END CTAB
M  END
