
     RDKit          3D

  0  0  0  0  0  0  0  0  0  0999 V3000
M  V30 BEGIN CTAB
M  V30 COUNTS 45 47 0 0 0
M  V30 BEGIN ATOM
M  V30 1 N -6.53731 -0.886751 0.525422 0
M  V30 2 C -5.52593 0.0668434 0.863852 0
M  V30 3 C -4.22073 -0.53857 1.3968 0
M  V30 4 C -3.49887 0.552654 0.646747 0
M  V30 5 C -4.68895 0.566919 -0.321805 0
M  V30 6 C -2.21822 0.187212 0.0325993 0
M  V30 7 C -1.08763 0.959341 0.21426 0
M  V30 8 C 0.138329 0.64932 -0.347109 0
M  V30 9 N 0.219814 -0.459865 -1.104 0
M  V30 10 C -0.870022 -1.2157 -1.28683 0
M  V30 11 N -2.0541 -0.904287 -0.736691 0
M  V30 12 N -0.757191 -2.36681 -2.08055 0
M  V30 13 N 1.26056 1.49723 -0.129944 0
M  V30 14 C 2.56801 1.19016 -0.640898 0
M  V30 15 C 3.27562 0.0908394 -0.0155782 0
M  V30 16 C 2.75598 -0.594582 1.04494 0
M  V30 17 C 3.39931 -1.63128 1.68439 0
M  V30 18 C 4.64165 -2.01929 1.24883 0
M  V30 19 C 5.18689 -1.35951 0.19857 0
M  V30 20 C 4.53423 -0.303902 -0.454575 0
M  V30 21 C 5.18716 0.359157 -1.57939 0
M  V30 22 F 4.50147 0.28229 -2.777 0
M  V30 23 F 5.57069 1.65934 -1.29935 0
M  V30 24 F 6.39186 -0.303077 -1.83753 0
M  V30 25 C 1.0676 2.71206 0.635227 0
M  V30 26 H -6.96435 -0.573046 -0.391455 0
M  V30 27 H -7.32376 -0.777229 1.22195 0
M  V30 28 H -5.86925 0.955122 1.46225 0
M  V30 29 H -4.12175 -0.481606 2.50107 0
M  V30 30 H -4.08968 -1.54557 0.954897 0
M  V30 31 H -3.41728 1.47921 1.23759 0
M  V30 32 H -4.61803 -0.252937 -1.05613 0
M  V30 33 H -4.96154 1.55908 -0.691396 0
M  V30 34 H -1.17018 1.86083 0.834066 0
M  V30 35 H -0.759653 -3.32052 -1.67068 0
M  V30 36 H -0.668444 -2.25849 -3.11055 0
M  V30 37 H 3.1962 2.12696 -0.736316 0
M  V30 38 H 2.39284 0.923705 -1.73278 0
M  V30 39 H 1.79549 -0.326227 1.43803 0
M  V30 40 H 2.95703 -2.1486 2.51793 0
M  V30 41 H 5.19337 -2.83739 1.7235 0
M  V30 42 H 6.16851 -1.65028 -0.161334 0
M  V30 43 H 0.217172 3.31732 0.263746 0
M  V30 44 H 1.96687 3.36555 0.581075 0
M  V30 45 H 0.836211 2.39438 1.67423 0
M  V30 END ATOM
M  V30 BEGIN BOND
M  V30 1 1 1 2
M  V30 2 1 2 3
M  V30 3 1 3 4
M  V30 4 1 4 5
M  V30 5 1 4 6
M  V30 6 2 6 7
M  V30 7 1 7 8
M  V30 8 2 8 9
M  V30 9 1 9 10
M  V30 10 2 10 11
M  V30 11 1 10 12
M  V30 12 1 8 13
M  V30 13 1 13 14
M  V30 14 1 14 15
M  V30 15 2 15 16
M  V30 16 1 16 17
M  V30 17 2 17 18
M  V30 18 1 18 19
M  V30 19 2 19 20
M  V30 20 1 20 21
M  V30 21 1 21 22
M  V30 22 1 21 23
M  V30 23 1 21 24
M  V30 24 1 13 25
M  V30 25 1 5 2
M  V30 26 1 11 6
M  V30 27 1 20 15
M  V30 28 1 1 26
M  V30 29 1 1 27
M  V30 30 1 2 28
M  V30 31 1 3 29
M  V30 32 1 3 30
M  V30 33 1 4 31
M  V30 34 1 5 32
M  V30 35 1 5 33
M  V30 36 1 7 34
M  V30 37 1 12 35
M  V30 38 1 12 36
M  V30 39 1 14 37
M  V30 40 1 14 38
M  V30 41 1 16 39
M  V30 42 1 17 40
M  V30 43 1 18 41
M  V30 44 1 19 42
M  V30 45 1 25 43
M  V30 46 1 25 44
M  V30 47 1 25 45
M  V30 END BOND
M  V30 END CTAB
M  END
