
     RDKit          3D

  0  0  0  0  0  0  0  0  0  0999 V3000
M  V30 BEGIN CTAB
M  V30 COUNTS 21 21 0 0 0
M  V30 BEGIN ATOM
M  V30 1 C -2.74622 0.424024 0.772802 0
M  V30 2 C -2.01842 0.0658312 -0.499839 0
M  V30 3 C -0.558571 0.0871873 -0.257997 0
M  V30 4 N 0.426522 -0.431209 -1.00952 0
M  V30 5 N 1.59632 -0.196328 -0.444763 0
M  V30 6 C 1.33682 0.485327 0.687156 0
M  V30 7 N 0.0153799 0.66192 0.806375 0
M  V30 8 N 2.27221 0.963466 1.63619 0
M  V30 9 C 2.92337 -0.5518 -0.869663 0
M  V30 10 N -2.34389 -1.29962 -0.919975 0
M  V30 11 H -2.01532 0.667033 1.59631 0
M  V30 12 H -3.36557 -0.398007 1.16515 0
M  V30 13 H -3.30678 1.36261 0.601882 0
M  V30 14 H -2.26078 0.777358 -1.32369 0
M  V30 15 H 2.51645 0.345137 2.43185 0
M  V30 16 H 2.67924 1.9004 1.51187 0
M  V30 17 H 3.49268 0.369864 -1.1399 0
M  V30 18 H 2.90014 -1.20061 -1.77997 0
M  V30 19 H 3.49841 -1.11414 -0.105998 0
M  V30 20 H -1.69358 -1.52916 -1.68985 0
M  V30 21 H -3.3484 -1.38927 -1.16841 0
M  V30 END ATOM
M  V30 BEGIN BOND
M  V30 1 1 1 2
M  V30 2 1 2 3
M  V30 3 2 3 4
M  V30 4 1 4 5
M  V30 5 1 5 6
M  V30 6 2 6 7
M  V30 7 1 6 8
M  V30 8 1 5 9
M  V30 9 1 2 10
M  V30 10 1 7 3
M  V30 11 1 1 11
M  V30 12 1 1 12
M  V30 13 1 1 13
M  V30 14 1 2 14
M  V30 15 1 8 15
M  V30 16 1 8 16
M  V30 17 1 9 17
M  V30 18 1 9 18
M  V30 19 1 9 19
M  V30 20 1 10 20
M  V30 21 1 10 21
M  V30 END BOND
M  V30 END CTAB
M  END
