
     RDKit          3D

  0  0  0  0  0  0  0  0  0  0999 V3000
M  V30 BEGIN CTAB
M  V30 COUNTS 38 39 0 0 0
M  V30 BEGIN ATOM
M  V30 1 N -6.60691 1.68802 0.239256 0
M  V30 2 S -5.31002 1.58219 -0.895218 0
M  V30 3 O -5.81429 1.04843 -2.20483 0
M  V30 4 O -4.76983 2.96757 -1.10267 0
M  V30 5 C -4.01746 0.543753 -0.300119 0
M  V30 6 C -3.96437 -0.799486 -0.56321 0
M  V30 7 C -2.90998 -1.56667 -0.0577923 0
M  V30 8 C -1.90611 -0.987026 0.713241 0
M  V30 9 S -0.629471 -2.06525 1.29742 0
M  V30 10 S 0.717117 -0.891978 2.4447 0
M  V30 11 C 1.94613 -0.31194 1.32207 0
M  V30 12 C 3.07374 -1.09139 1.13616 0
M  V30 13 C 4.09798 -0.715771 0.271809 0
M  V30 14 C 3.96255 0.464349 -0.40246 0
M  V30 15 C 2.85016 1.27302 -0.24441 0
M  V30 16 C 1.85403 0.870392 0.619692 0
M  V30 17 S 5.24999 0.963401 -1.51043 0
M  V30 18 N 6.39901 1.85518 -0.607129 0
M  V30 19 O 5.87728 -0.214316 -2.16196 0
M  V30 20 O 4.69328 1.89834 -2.56687 0
M  V30 21 N 3.24174 -2.3401 1.83905 0 CHG=1
M  V30 22 O 4.48996 -2.78207 2.19115 0 CHG=-1
M  V30 23 O 2.2401 -3.00976 2.12037 0
M  V30 24 C -1.97908 0.345734 0.961212 0
M  V30 25 C -3.01809 1.11017 0.465017 0
M  V30 26 N -2.88659 -2.95205 -0.348561 0 CHG=1
M  V30 27 O -2.27821 -3.83712 0.493708 0 CHG=-1
M  V30 28 O -3.42326 -3.37365 -1.37927 0
M  V30 29 H -6.48566 1.04627 1.03555 0
M  V30 30 H -7.54427 1.61944 -0.214148 0
M  V30 31 H -4.7521 -1.25493 -1.16785 0
M  V30 32 H 4.97747 -1.36444 0.152562 0
M  V30 33 H 2.7827 2.20294 -0.79931 0
M  V30 34 H 0.977855 1.48224 0.759383 0
M  V30 35 H 7.14797 1.23742 -0.207978 0
M  V30 36 H 5.97341 2.39481 0.190811 0
M  V30 37 H -1.19732 0.789667 1.55966 0
M  V30 38 H -3.05945 2.17462 0.674277 0
M  V30 END ATOM
M  V30 BEGIN BOND
M  V30 1 1 1 2
M  V30 2 2 2 3
M  V30 3 2 2 4
M  V30 4 1 2 5
M  V30 5 2 5 6
M  V30 6 1 6 7
M  V30 7 2 7 8
M  V30 8 1 8 9
M  V30 9 1 9 10
M  V30 10 1 10 11
M  V30 11 2 11 12
M  V30 12 1 12 13
M  V30 13 2 13 14
M  V30 14 1 14 15
M  V30 15 2 15 16
M  V30 16 1 14 17
M  V30 17 1 17 18
M  V30 18 2 17 19
M  V30 19 2 17 20
M  V30 20 1 12 21
M  V30 21 1 21 22
M  V30 22 2 21 23
M  V30 23 1 8 24
M  V30 24 2 24 25
M  V30 25 1 7 26
M  V30 26 1 26 27
M  V30 27 2 26 28
M  V30 28 1 25 5
M  V30 29 1 16 11
M  V30 30 1 1 29
M  V30 31 1 1 30
M  V30 32 1 6 31
M  V30 33 1 13 32
M  V30 34 1 15 33
M  V30 35 1 16 34
M  V30 36 1 18 35
M  V30 37 1 18 36
M  V30 38 1 24 37
M  V30 39 1 25 38
M  V30 END BOND
M  V30 END CTAB
M  END
