
     RDKit          3D

  0  0  0  0  0  0  0  0  0  0999 V3000
M  V30 BEGIN CTAB
M  V30 COUNTS 28 29 0 0 0
M  V30 BEGIN ATOM
M  V30 1 N -3.60519 1.97048 1.01093 0
M  V30 2 C -3.92162 0.57848 0.6758 0
M  V30 3 C -2.81385 0.0708721 -0.179157 0
M  V30 4 N -2.75071 0.13311 -1.52563 0
M  V30 5 N -1.61917 -0.419639 -1.91142 0
M  V30 6 N -0.919861 -0.850926 -0.87337 0
M  V30 7 C -1.64955 -0.55363 0.21742 0
M  V30 8 C 0.386119 -1.51784 -0.906243 0
M  V30 9 C 1.43526 -0.451856 -0.827122 0
M  V30 10 C 1.34965 0.39315 0.448372 0
M  V30 11 C 2.88393 0.407482 0.426918 0
M  V30 12 C 2.79297 -0.934604 -0.29921 0
M  V30 13 N 3.37496 0.299281 1.7828 0
M  V30 14 H -2.57367 1.95091 1.26351 0
M  V30 15 H -3.67045 2.57271 0.165621 0
M  V30 16 H -4.89842 0.513437 0.152574 0
M  V30 17 H -4.01591 0.0297782 1.62768 0
M  V30 18 H -1.38484 -0.762674 1.26207 0
M  V30 19 H 0.48821 -2.24483 -0.0824443 0
M  V30 20 H 0.486466 -2.01326 -1.89193 0
M  V30 21 H 1.53861 0.167895 -1.71607 0
M  V30 22 H 0.988502 -0.241786 1.26198 0
M  V30 23 H 0.890925 1.37524 0.321834 0
M  V30 24 H 3.32428 1.1973 -0.193691 0
M  V30 25 H 3.53411 -1.08484 -1.08708 0
M  V30 26 H 2.64164 -1.77305 0.402613 0
M  V30 27 H 3.37952 1.2648 2.17687 0
M  V30 28 H 4.32811 -0.0759939 1.84929 0
M  V30 END ATOM
M  V30 BEGIN BOND
M  V30 1 1 1 2
M  V30 2 1 2 3
M  V30 3 1 3 4
M  V30 4 2 4 5
M  V30 5 1 5 6
M  V30 6 1 6 7
M  V30 7 1 6 8
M  V30 8 1 8 9
M  V30 9 1 9 10
M  V30 10 1 10 11
M  V30 11 1 11 12
M  V30 12 1 11 13
M  V30 13 2 7 3
M  V30 14 1 12 9
M  V30 15 1 1 14
M  V30 16 1 1 15
M  V30 17 1 2 16
M  V30 18 1 2 17
M  V30 19 1 7 18
M  V30 20 1 8 19
M  V30 21 1 8 20
M  V30 22 1 9 21
M  V30 23 1 10 22
M  V30 24 1 10 23
M  V30 25 1 11 24
M  V30 26 1 12 25
M  V30 27 1 12 26
M  V30 28 1 13 27
M  V30 29 1 13 28
M  V30 END BOND
M  V30 END CTAB
M  END
