
     RDKit          3D

  0  0  0  0  0  0  0  0  0  0999 V3000
M  V30 BEGIN CTAB
M  V30 COUNTS 31 32 0 0 0
M  V30 BEGIN ATOM
M  V30 1 N 3.86413 -0.308224 1.25584 0
M  V30 2 C 2.64104 0.354412 0.752943 0
M  V30 3 C 1.79292 -0.587368 0.0253687 0
M  V30 4 N 0.529492 -0.338998 -0.508158 0
M  V30 5 C -0.0682195 -1.42693 -1.31154 0
M  V30 6 C -1.38863 -1.83727 -0.709153 0 CFG=1
M  V30 7 N -1.11556 -2.60813 0.503285 0
M  V30 8 C -2.29003 -0.697852 -0.403617 0
M  V30 9 C -1.63845 0.618932 -0.252406 0
M  V30 10 C -0.25737 0.798861 -0.320813 0
M  V30 11 C 0.278937 2.06201 -0.183181 0
M  V30 12 C -0.570526 3.12916 0.0235069 0
M  V30 13 C -1.93887 2.971 0.0948698 0
M  V30 14 C -2.46515 1.70502 -0.044969 0
M  V30 15 H 4.54933 -0.446162 0.509846 0
M  V30 16 H 3.6305 -1.18242 1.74889 0
M  V30 17 H 2.23436 0.935903 1.55662 0
M  V30 18 H 3.11873 1.04146 -0.0315052 0
M  V30 19 H 1.72216 -1.49911 0.764072 0
M  V30 20 H 2.40244 -1.11384 -0.799206 0
M  V30 21 H 0.612199 -2.27737 -1.26904 0
M  V30 22 H -0.187869 -1.10259 -2.34925 0
M  V30 23 H -1.88402 -2.51855 -1.41782 0
M  V30 24 H -1.6557 -2.27126 1.32344 0
M  V30 25 H -1.12492 -3.61782 0.327564 0
M  V30 26 H -2.87478 -0.899974 0.516962 0
M  V30 27 H -3.08104 -0.56526 -1.20602 0
M  V30 28 H 1.33422 2.17204 -0.25841 0
M  V30 29 H -0.0931485 4.11267 0.131312 0
M  V30 30 H -2.55733 3.83491 0.259657 0
M  V30 31 H -3.51883 1.56276 0.00883973 0
M  V30 END ATOM
M  V30 BEGIN BOND
M  V30 1 1 1 2
M  V30 2 1 2 3
M  V30 3 1 3 4
M  V30 4 1 4 5
M  V30 5 1 5 6
M  V30 6 1 6 7
M  V30 7 1 6 8
M  V30 8 1 8 9
M  V30 9 2 9 10
M  V30 10 1 10 11
M  V30 11 2 11 12
M  V30 12 1 12 13
M  V30 13 2 13 14
M  V30 14 1 10 4
M  V30 15 1 14 9
M  V30 16 1 1 15
M  V30 17 1 1 16
M  V30 18 1 2 17
M  V30 19 1 2 18
M  V30 20 1 3 19
M  V30 21 1 3 20
M  V30 22 1 5 21
M  V30 23 1 5 22
M  V30 24 1 6 23 CFG=3
M  V30 25 1 7 24
M  V30 26 1 7 25
M  V30 27 1 8 26
M  V30 28 1 8 27
M  V30 29 1 11 28
M  V30 30 1 12 29
M  V30 31 1 13 30
M  V30 32 1 14 31
M  V30 END BOND
M  V30 END CTAB
M  END
