
     RDKit          3D

  0  0  0  0  0  0  0  0  0  0999 V3000
M  V30 BEGIN CTAB
M  V30 COUNTS 33 34 0 0 0
M  V30 BEGIN ATOM
M  V30 1 N -6.46731 -0.854424 0.354772 0
M  V30 2 C -5.05083 -0.715564 0.289401 0
M  V30 3 C -4.43361 0.224274 -0.497534 0
M  V30 4 C -3.04309 0.318351 -0.525294 0
M  V30 5 C -2.24807 -0.508253 0.218484 0
M  V30 6 C -2.87578 -1.44954 1.00611 0
M  V30 7 C -4.25854 -1.55765 1.04613 0
M  V30 8 C -0.797781 -0.401336 0.193384 0
M  V30 9 O -0.176827 -1.39983 0.629027 0
M  V30 10 N -0.118643 0.719154 -0.275137 0
M  V30 11 C 1.26019 0.949585 -0.360518 0
M  V30 12 C 1.71996 2.22654 -0.646871 0
M  V30 13 C 3.02942 2.54201 -0.761421 0
M  V30 14 C 3.9733 1.55787 -0.588244 0
M  V30 15 C 3.59753 0.266964 -0.302156 0
M  V30 16 C 2.22802 -0.00705911 -0.194358 0
M  V30 17 S 4.79964 -0.985984 -0.081683 0
M  V30 18 O 6.0374 -0.540349 -0.822885 0
M  V30 19 O 4.2953 -2.29499 -0.557264 0
M  V30 20 N 5.20662 -1.00633 1.6024 0
M  V30 21 H -6.93779 -1.26525 1.19013 0
M  V30 22 H -7.07588 -0.549456 -0.430609 0
M  V30 23 H -5.00502 0.899143 -1.10156 0
M  V30 24 H -2.58782 1.08267 -1.17384 0
M  V30 25 H -2.30901 -2.13721 1.62099 0
M  V30 26 H -4.74546 -2.29924 1.66696 0
M  V30 27 H -0.749518 1.51841 -0.619493 0
M  V30 28 H 0.970287 3.00795 -0.783026 0
M  V30 29 H 3.2894 3.57055 -0.988057 0
M  V30 30 H 5.03221 1.82212 -0.682662 0
M  V30 31 H 1.98976 -1.03386 0.0226373 0
M  V30 32 H 5.99718 -1.67728 1.74992 0
M  V30 33 H 5.45477 -0.0220109 1.86649 0
M  V30 END ATOM
M  V30 BEGIN BOND
M  V30 1 1 1 2
M  V30 2 2 2 3
M  V30 3 1 3 4
M  V30 4 2 4 5
M  V30 5 1 5 6
M  V30 6 2 6 7
M  V30 7 1 5 8
M  V30 8 2 8 9
M  V30 9 1 8 10
M  V30 10 1 10 11
M  V30 11 2 11 12
M  V30 12 1 12 13
M  V30 13 2 13 14
M  V30 14 1 14 15
M  V30 15 2 15 16
M  V30 16 1 15 17
M  V30 17 2 17 18
M  V30 18 2 17 19
M  V30 19 1 17 20
M  V30 20 1 7 2
M  V30 21 1 16 11
M  V30 22 1 1 21
M  V30 23 1 1 22
M  V30 24 1 3 23
M  V30 25 1 4 24
M  V30 26 1 6 25
M  V30 27 1 7 26
M  V30 28 1 10 27
M  V30 29 1 12 28
M  V30 30 1 13 29
M  V30 31 1 14 30
M  V30 32 1 16 31
M  V30 33 1 20 32
M  V30 34 1 20 33
M  V30 END BOND
M  V30 END CTAB
M  END
