
     RDKit          3D

  0  0  0  0  0  0  0  0  0  0999 V3000
M  V30 BEGIN CTAB
M  V30 COUNTS 25 25 0 0 0
M  V30 BEGIN ATOM
M  V30 1 N -1.23637 1.7103 2.06255 0
M  V30 2 N -0.0528539 1.29938 1.43909 0
M  V30 3 C -0.317444 0.70202 0.158772 0
M  V30 4 C 0.920084 0.381436 -0.607591 0
M  V30 5 C 1.53358 1.12657 -1.59386 0
M  V30 6 N 2.62542 0.481656 -2.0271 0
M  V30 7 N 2.74906 -0.654296 -1.36323 0
M  V30 8 C 1.71245 -0.748059 -0.478346 0
M  V30 9 N 1.49947 -1.81945 0.409167 0
M  V30 10 C -1.2088 -0.495493 0.242239 0
M  V30 11 C -1.49864 -1.09836 1.36578 0
M  V30 12 C -1.79652 -1.07907 -1.02108 0
M  V30 13 H -1.7715 2.24987 1.32946 0
M  V30 14 H -1.00232 2.31899 2.85498 0
M  V30 15 H 0.534205 2.14408 1.26202 0
M  V30 16 H -0.929408 1.45777 -0.422575 0
M  V30 17 H 1.18686 2.07979 -1.95827 0
M  V30 18 H 3.3129 0.780341 -2.77255 0
M  V30 19 H 1.61525 -1.67678 1.4205 0
M  V30 20 H 1.22876 -2.74227 0.0459282 0
M  V30 21 H -2.15201 -1.96011 1.35363 0
M  V30 22 H -1.11126 -0.7886 2.3238 0
M  V30 23 H -1.39426 -2.09618 -1.17112 0
M  V30 24 H -2.90946 -1.12447 -0.955375 0
M  V30 25 H -1.53719 -0.449064 -1.89681 0
M  V30 END ATOM
M  V30 BEGIN BOND
M  V30 1 1 1 2
M  V30 2 1 2 3
M  V30 3 1 3 4
M  V30 4 2 4 5
M  V30 5 1 5 6
M  V30 6 1 6 7
M  V30 7 2 7 8
M  V30 8 1 8 9
M  V30 9 1 3 10
M  V30 10 2 10 11 CFG=2
M  V30 11 1 10 12
M  V30 12 1 8 4
M  V30 13 1 1 13
M  V30 14 1 1 14
M  V30 15 1 2 15
M  V30 16 1 3 16
M  V30 17 1 5 17
M  V30 18 1 6 18
M  V30 19 1 9 19
M  V30 20 1 9 20
M  V30 21 1 11 21
M  V30 22 1 11 22
M  V30 23 1 12 23
M  V30 24 1 12 24
M  V30 25 1 12 25
M  V30 END BOND
M  V30 END CTAB
M  END
