
     RDKit          3D

  0  0  0  0  0  0  0  0  0  0999 V3000
M  V30 BEGIN CTAB
M  V30 COUNTS 35 37 0 0 0
M  V30 BEGIN ATOM
M  V30 1 N 5.09257 1.54462 -0.373952 0
M  V30 2 C 3.67492 1.74479 -0.172034 0
M  V30 3 C 2.86014 0.972917 -1.20638 0
M  V30 4 C 2.83112 -0.182716 -0.22765 0
M  V30 5 C 3.05394 0.851008 0.881774 0
M  V30 6 C 1.56228 -0.906994 -0.125764 0
M  V30 7 C 0.38262 -0.205766 -0.00311711 0
M  V30 8 C -0.84602 -0.822474 0.0972564 0
M  V30 9 N -2.02141 -0.0351649 0.221271 0
M  V30 10 C -3.32329 -0.634347 0.328787 0
M  V30 11 C -4.40531 0.354801 0.448376 0
M  V30 12 N -5.7296 0.122935 0.565929 0
M  V30 13 O -6.38522 1.2382 0.648699 0
M  V30 14 C -5.58584 2.27087 0.595579 0
M  V30 15 C -4.30303 1.72447 0.466305 0
M  V30 16 N -0.868555 -2.16733 0.0720026 0
M  V30 17 C 0.28115 -2.89197 -0.0483669 0
M  V30 18 N 1.46997 -2.2606 -0.144781 0
M  V30 19 N 0.264989 -4.29918 -0.075473 0
M  V30 20 H 5.63418 1.86482 0.446742 0
M  V30 21 H 5.29193 0.563379 -0.665525 0
M  V30 22 H 3.4304 2.80798 -0.0935583 0
M  V30 23 H 1.85594 1.44038 -1.31082 0
M  V30 24 H 3.40148 0.78254 -2.15142 0
M  V30 25 H 3.69465 -0.877281 -0.321001 0
M  V30 26 H 3.75256 0.493975 1.66814 0
M  V30 27 H 2.08605 1.21467 1.23153 0
M  V30 28 H 0.412537 0.876978 0.016132 0
M  V30 29 H -1.9239 1.00257 0.23336 0
M  V30 30 H -3.39808 -1.32995 1.20528 0
M  V30 31 H -3.55303 -1.285 -0.559222 0
M  V30 32 H -5.80975 3.33076 0.637415 0
M  V30 33 H -3.40004 2.34322 0.395352 0
M  V30 34 H -0.276317 -4.79948 -0.797135 0
M  V30 35 H 0.795972 -4.84761 0.62828 0
M  V30 END ATOM
M  V30 BEGIN BOND
M  V30 1 1 1 2
M  V30 2 1 2 3
M  V30 3 1 3 4
M  V30 4 1 4 5
M  V30 5 1 4 6
M  V30 6 2 6 7
M  V30 7 1 7 8
M  V30 8 1 8 9
M  V30 9 1 9 10
M  V30 10 1 10 11
M  V30 11 2 11 12
M  V30 12 1 12 13
M  V30 13 1 13 14
M  V30 14 2 14 15
M  V30 15 2 8 16
M  V30 16 1 16 17
M  V30 17 2 17 18
M  V30 18 1 17 19
M  V30 19 1 5 2
M  V30 20 1 18 6
M  V30 21 1 15 11
M  V30 22 1 1 20
M  V30 23 1 1 21
M  V30 24 1 2 22
M  V30 25 1 3 23
M  V30 26 1 3 24
M  V30 27 1 4 25
M  V30 28 1 5 26
M  V30 29 1 5 27
M  V30 30 1 7 28
M  V30 31 1 9 29
M  V30 32 1 10 30
M  V30 33 1 10 31
M  V30 34 1 14 32
M  V30 35 1 15 33
M  V30 36 1 19 34
M  V30 37 1 19 35
M  V30 END BOND
M  V30 END CTAB
M  END
