
     RDKit          3D

  0  0  0  0  0  0  0  0  0  0999 V3000
M  V30 BEGIN CTAB
M  V30 COUNTS 42 44 0 0 0
M  V30 BEGIN ATOM
M  V30 1 N 5.54023 0.737917 -0.428679 0
M  V30 2 C 4.19854 0.324345 -0.208645 0 CFG=2
M  V30 3 C 4.0706 -1.18922 0.00296665 0
M  V30 4 C 2.73796 -1.38963 0.67009 0
M  V30 5 N 1.69063 -0.622142 0.0471507 0
M  V30 6 C 1.87862 0.259636 -1.06449 0
M  V30 7 C 3.28719 0.621598 -1.37895 0 CFG=1
M  V30 8 O 3.37516 1.96187 -1.71276 0
M  V30 9 C 0.374131 -0.761918 0.589839 0
M  V30 10 C -0.720434 -0.0985175 0.0664834 0
M  V30 11 C -2.00267 -0.233269 0.594902 0
M  V30 12 N -2.12242 -1.051 1.65208 0
M  V30 13 C -1.08281 -1.71173 2.18745 0
M  V30 14 N 0.118806 -1.55968 1.66003 0
M  V30 15 N -1.23721 -2.57099 3.3063 0
M  V30 16 N -3.1043 0.469453 0.0244202 0
M  V30 17 C -4.45673 0.3464 0.557887 0
M  V30 18 C -5.28727 1.35138 -0.180145 0
M  V30 19 C -4.59376 1.39331 -1.5362 0
M  V30 20 C -3.12767 1.36884 -1.0947 0
M  V30 21 H 6.06589 0.168909 -1.11188 0
M  V30 22 H 6.05814 0.691293 0.470673 0
M  V30 23 H 3.78702 0.799175 0.68753 0
M  V30 24 H 4.87799 -1.58956 0.620842 0
M  V30 25 H 4.00054 -1.67888 -1.00646 0
M  V30 26 H 2.44756 -2.46053 0.720297 0
M  V30 27 H 2.85043 -0.967488 1.71131 0
M  V30 28 H 1.46046 -0.203232 -2.01047 0
M  V30 29 H 1.29295 1.21334 -0.952693 0
M  V30 30 H 3.68148 0.0633771 -2.27612 0
M  V30 31 H 2.9642 2.15602 -2.58854 0
M  V30 32 H -0.61696 0.547385 -0.772161 0
M  V30 33 H -1.24466 -3.59585 3.26623 0
M  V30 34 H -1.35251 -2.11855 4.2464 0
M  V30 35 H -4.4397 0.501869 1.64918 0
M  V30 36 H -4.77802 -0.695833 0.312071 0
M  V30 37 H -6.31441 0.985605 -0.235363 0
M  V30 38 H -5.19521 2.32981 0.347124 0
M  V30 39 H -4.84845 0.436133 -2.04487 0
M  V30 40 H -4.84027 2.28467 -2.11599 0
M  V30 41 H -2.47497 1.07109 -1.9266 0
M  V30 42 H -2.9181 2.4146 -0.745544 0
M  V30 END ATOM
M  V30 BEGIN BOND
M  V30 1 1 1 2
M  V30 2 1 2 3
M  V30 3 1 3 4
M  V30 4 1 4 5
M  V30 5 1 5 6
M  V30 6 1 6 7
M  V30 7 1 7 8
M  V30 8 1 5 9
M  V30 9 2 9 10
M  V30 10 1 10 11
M  V30 11 2 11 12
M  V30 12 1 12 13
M  V30 13 2 13 14
M  V30 14 1 13 15
M  V30 15 1 11 16
M  V30 16 1 16 17
M  V30 17 1 17 18
M  V30 18 1 18 19
M  V30 19 1 19 20
M  V30 20 1 7 2
M  V30 21 1 14 9
M  V30 22 1 20 16
M  V30 23 1 1 21
M  V30 24 1 1 22
M  V30 25 1 2 23 CFG=1
M  V30 26 1 3 24
M  V30 27 1 3 25
M  V30 28 1 4 26
M  V30 29 1 4 27
M  V30 30 1 6 28
M  V30 31 1 6 29
M  V30 32 1 7 30 CFG=3
M  V30 33 1 8 31
M  V30 34 1 10 32
M  V30 35 1 15 33
M  V30 36 1 15 34
M  V30 37 1 17 35
M  V30 38 1 17 36
M  V30 39 1 18 37
M  V30 40 1 18 38
M  V30 41 1 19 39
M  V30 42 1 19 40
M  V30 43 1 20 41
M  V30 44 1 20 42
M  V30 END BOND
M  V30 END CTAB
M  END
