
     RDKit          3D

  0  0  0  0  0  0  0  0  0  0999 V3000
M  V30 BEGIN CTAB
M  V30 COUNTS 36 36 0 0 0
M  V30 BEGIN ATOM
M  V30 1 C -4.28266 -0.219163 -1.91487 0
M  V30 2 C -3.27232 -1.15349 -1.32392 0
M  V30 3 N -2.52155 -0.580657 -0.226396 0
M  V30 4 C -3.30643 -0.287142 0.963525 0
M  V30 5 C -2.54241 0.299279 2.05458 0
M  V30 6 C -2.84364 1.49946 2.5284 0
M  V30 7 C -1.1355 -0.360005 -0.311623 0
M  V30 8 N -0.365304 -1.12407 0.519086 0
M  V30 9 C 0.974906 -1.03677 0.543471 0
M  V30 10 N 1.76329 -1.83641 1.41277 0
M  V30 11 C 1.5446 -0.122353 -0.326335 0
M  V30 12 N 0.803301 0.636516 -1.14965 0
M  V30 13 C -0.556849 0.538307 -1.16437 0
M  V30 14 Cl -1.48507 1.55728 -2.24758 0
M  V30 15 C 3.01287 -0.0207033 -0.30265 0
M  V30 16 O 3.71644 -0.713829 0.46106 0
M  V30 17 N 3.63798 0.918207 -1.20121 0
M  V30 18 C 5.03722 1.0654 -1.22898 0
M  V30 19 N 5.838 0.285022 -0.368432 0
M  V30 20 N 5.58356 1.8975 -2.02519 0
M  V30 21 H -5.29169 -0.70622 -1.85014 0
M  V30 22 H -4.09955 0.0161067 -2.99044 0
M  V30 23 H -4.37511 0.748568 -1.38716 0
M  V30 24 H -3.76087 -2.0922 -0.954192 0
M  V30 25 H -2.57021 -1.46659 -2.1536 0
M  V30 26 H -3.82859 -1.21913 1.32519 0
M  V30 27 H -4.1059 0.41432 0.635341 0
M  V30 28 H -1.71638 -0.231571 2.50492 0
M  V30 29 H -3.66971 2.08725 2.12055 0
M  V30 30 H -2.29087 1.96205 3.34175 0
M  V30 31 H 2.30313 -2.65847 1.07673 0
M  V30 32 H 1.80964 -1.60188 2.41871 0
M  V30 33 H 3.06463 1.50573 -1.84829 0
M  V30 34 H 5.90686 0.466909 0.670117 0
M  V30 35 H 6.4186 -0.530435 -0.711258 0
M  V30 36 H 6.60561 2.06319 -2.10443 0
M  V30 END ATOM
M  V30 BEGIN BOND
M  V30 1 1 1 2
M  V30 2 1 2 3
M  V30 3 1 3 4
M  V30 4 1 4 5
M  V30 5 2 5 6 CFG=2
M  V30 6 1 3 7
M  V30 7 2 7 8
M  V30 8 1 8 9
M  V30 9 1 9 10
M  V30 10 2 9 11
M  V30 11 1 11 12
M  V30 12 2 12 13
M  V30 13 1 13 14
M  V30 14 1 11 15
M  V30 15 2 15 16
M  V30 16 1 15 17
M  V30 17 1 17 18
M  V30 18 1 18 19
M  V30 19 2 18 20 CFG=2
M  V30 20 1 13 7
M  V30 21 1 1 21
M  V30 22 1 1 22
M  V30 23 1 1 23
M  V30 24 1 2 24
M  V30 25 1 2 25
M  V30 26 1 4 26
M  V30 27 1 4 27
M  V30 28 1 5 28
M  V30 29 1 6 29
M  V30 30 1 6 30
M  V30 31 1 10 31
M  V30 32 1 10 32
M  V30 33 1 17 33
M  V30 34 1 19 34
M  V30 35 1 19 35
M  V30 36 1 20 36
M  V30 END BOND
M  V30 END CTAB
M  END
