
     RDKit          3D

  0  0  0  0  0  0  0  0  0  0999 V3000
M  V30 BEGIN CTAB
M  V30 COUNTS 25 26 0 0 0
M  V30 BEGIN ATOM
M  V30 1 N -4.16509 -1.08583 0.0699883 0
M  V30 2 N -2.82978 -1.36147 0.259284 0
M  V30 3 C -1.79127 -0.391443 0.1829 0
M  V30 4 C -0.47115 -0.738665 0.3842 0
M  V30 5 C 0.159596 -1.92546 0.67315 0
M  V30 6 N 1.49112 -1.6956 0.76667 0
M  V30 7 N 1.72329 -0.420771 0.549836 0
M  V30 8 C 3.04612 0.163086 0.575638 0
M  V30 9 C 3.59636 0.0736693 -0.834968 0
M  V30 10 Cl 3.68579 -1.62348 -1.37171 0
M  V30 11 C 0.546103 0.204628 0.310694 0
M  V30 12 N 0.252234 1.48513 0.0387061 0
M  V30 13 C -1.04827 1.8391 -0.16185 0
M  V30 14 N -1.3508 3.19592 -0.449155 0
M  V30 15 N -2.02976 0.90503 -0.0864101 0
M  V30 16 H -4.59938 -0.862617 0.998478 0
M  V30 17 H -4.64988 -1.93028 -0.308849 0
M  V30 18 H -2.55872 -2.34529 0.472872 0
M  V30 19 H -0.381313 -2.86008 0.793987 0
M  V30 20 H 3.71966 -0.431281 1.23255 0
M  V30 21 H 3.03505 1.23599 0.842124 0
M  V30 22 H 2.92918 0.61145 -1.53388 0
M  V30 23 H 4.5964 0.533589 -0.825977 0
M  V30 24 H -1.12217 3.90551 0.272567 0
M  V30 25 H -1.78332 3.51916 -1.33005 0
M  V30 END ATOM
M  V30 BEGIN BOND
M  V30 1 1 1 2
M  V30 2 1 2 3
M  V30 3 2 3 4
M  V30 4 1 4 5
M  V30 5 2 5 6
M  V30 6 1 6 7
M  V30 7 1 7 8
M  V30 8 1 8 9
M  V30 9 1 9 10
M  V30 10 1 7 11
M  V30 11 2 11 12
M  V30 12 1 12 13
M  V30 13 1 13 14
M  V30 14 2 13 15
M  V30 15 1 15 3
M  V30 16 1 11 4
M  V30 17 1 1 16
M  V30 18 1 1 17
M  V30 19 1 2 18
M  V30 20 1 5 19
M  V30 21 1 8 20
M  V30 22 1 8 21
M  V30 23 1 9 22
M  V30 24 1 9 23
M  V30 25 1 14 24
M  V30 26 1 14 25
M  V30 END BOND
M  V30 END CTAB
M  END
