
     RDKit          3D

  0  0  0  0  0  0  0  0  0  0999 V3000
M  V30 BEGIN CTAB
M  V30 COUNTS 17 17 0 0 0
M  V30 BEGIN ATOM
M  V30 1 N -3.20065 0.146733 -0.0317444 0
M  V30 2 C -1.80116 -0.027957 0.00823543 0
M  V30 3 C -0.967681 0.711948 -0.819677 0
M  V30 4 C 0.396734 0.504901 -0.743614 0
M  V30 5 C 0.896321 -0.429674 0.150928 0
M  V30 6 N 0.0859169 -1.1504 0.957235 0
M  V30 7 C -1.23896 -0.948003 0.882014 0
M  V30 8 C 2.33783 -0.605152 0.187626 0
M  V30 9 S 3.02563 -2.0797 0.190615 0
M  V30 10 N 3.16009 0.541474 0.221585 0
M  V30 11 H -3.79341 -0.554998 -0.516276 0
M  V30 12 H -3.60978 0.984002 0.430483 0
M  V30 13 H -1.37035 1.4362 -1.51139 0
M  V30 14 H 1.07946 1.06787 -1.37828 0
M  V30 15 H -1.93074 -1.50196 1.50848 0
M  V30 16 H 3.16554 1.22461 -0.550798 0
M  V30 17 H 3.76519 0.680113 1.05308 0
M  V30 END ATOM
M  V30 BEGIN BOND
M  V30 1 1 1 2
M  V30 2 2 2 3
M  V30 3 1 3 4
M  V30 4 2 4 5
M  V30 5 1 5 6
M  V30 6 2 6 7
M  V30 7 1 5 8
M  V30 8 2 8 9
M  V30 9 1 8 10
M  V30 10 1 7 2
M  V30 11 1 1 11
M  V30 12 1 1 12
M  V30 13 1 3 13
M  V30 14 1 4 14
M  V30 15 1 7 15
M  V30 16 1 10 16
M  V30 17 1 10 17
M  V30 END BOND
M  V30 END CTAB
M  END
