
     RDKit          3D

  0  0  0  0  0  0  0  0  0  0999 V3000
M  V30 BEGIN CTAB
M  V30 COUNTS 21 20 0 0 0
M  V30 BEGIN ATOM
M  V30 1 C 2.97441 0.207637 0.142815 0
M  V30 2 C 1.66162 -0.392857 -0.285794 0
M  V30 3 C 0.480789 0.49994 0.0810841 0
M  V30 4 C -0.73429 -0.235836 -0.410072 0
M  V30 5 C -1.99896 0.469992 -0.148548 0
M  V30 6 N -2.72191 0.789129 -1.16889 0
M  V30 7 N -2.47405 0.820258 1.12601 0
M  V30 8 N -0.73923 -1.53249 0.2857 0
M  V30 9 H 3.28933 0.92452 -0.644539 0
M  V30 10 H 2.87612 0.66893 1.13757 0
M  V30 11 H 3.72674 -0.620769 0.11833 0
M  V30 12 H 1.71042 -0.528019 -1.3894 0
M  V30 13 H 1.50073 -1.39553 0.164412 0
M  V30 14 H 0.50149 0.612071 1.18104 0
M  V30 15 H 0.600763 1.49429 -0.383481 0
M  V30 16 H -0.615563 -0.409054 -1.48991 0
M  V30 17 H -2.42116 0.556073 -2.13559 0
M  V30 18 H -2.90985 0.0922534 1.71293 0
M  V30 19 H -2.40571 1.77777 1.50195 0
M  V30 20 H -0.832673 -2.31005 -0.399108 0
M  V30 21 H -1.46902 -1.48826 1.00351 0
M  V30 END ATOM
M  V30 BEGIN BOND
M  V30 1 1 1 2
M  V30 2 1 2 3
M  V30 3 1 3 4
M  V30 4 1 4 5
M  V30 5 2 5 6 CFG=2
M  V30 6 1 5 7
M  V30 7 1 4 8
M  V30 8 1 1 9
M  V30 9 1 1 10
M  V30 10 1 1 11
M  V30 11 1 2 12
M  V30 12 1 2 13
M  V30 13 1 3 14
M  V30 14 1 3 15
M  V30 15 1 4 16
M  V30 16 1 6 17
M  V30 17 1 7 18
M  V30 18 1 7 19
M  V30 19 1 8 20
M  V30 20 1 8 21
M  V30 END BOND
M  V30 END CTAB
M  END
