
     RDKit          3D

  0  0  0  0  0  0  0  0  0  0999 V3000
M  V30 BEGIN CTAB
M  V30 COUNTS 42 44 0 0 0
M  V30 BEGIN ATOM
M  V30 1 N -7.57091 -1.41751 -2.24597 0
M  V30 2 C -6.84891 -0.909814 -1.13086 0
M  V30 3 N -5.53808 -1.10251 -0.992087 0
M  V30 4 C -4.82985 -0.630012 0.0588156 0
M  V30 5 S -3.07129 -0.891934 0.240386 0
M  V30 6 C -2.22318 0.460925 -0.564203 0
M  V30 7 C -0.746741 0.366806 -0.486895 0
M  V30 8 C -0.115887 -0.313288 -1.50729 0
M  V30 9 C 1.25691 -0.433281 -1.4884 0
M  V30 10 C 2.04801 0.0943395 -0.494896 0
M  V30 11 C 1.40072 0.766967 0.51016 0
M  V30 12 C 0.00298871 0.902816 0.513653 0
M  V30 13 C 3.49524 -0.0738151 -0.553409 0
M  V30 14 O 3.94767 -0.461937 -1.65037 0
M  V30 15 N 4.31063 0.183393 0.546859 0
M  V30 16 C 5.71038 0.0670384 0.635005 0
M  V30 17 C 6.54963 -0.333868 -0.375458 0
M  V30 18 C 7.92319 -0.433942 -0.243025 0
M  V30 19 C 8.48059 -0.116386 0.961253 0
M  V30 20 C 7.66816 0.286484 1.98686 0
M  V30 21 C 6.31075 0.388819 1.86704 0
M  V30 22 F 5.55594 0.798877 2.93425 0
M  V30 23 N -5.49957 0.0600435 0.989217 0
M  V30 24 C -6.83369 0.288683 0.903027 0
M  V30 25 C -7.54786 -0.200296 -0.177911 0
M  V30 26 N -7.53917 1.02409 1.89822 0
M  V30 27 H -8.58906 -1.34052 -2.3304 0
M  V30 28 H -7.054 -1.89626 -3.02773 0
M  V30 29 H -2.56885 1.40914 -0.101192 0
M  V30 30 H -2.5222 0.487809 -1.62972 0
M  V30 31 H -0.674957 -0.762812 -2.33552 0
M  V30 32 H 1.71477 -0.976846 -2.31106 0
M  V30 33 H 1.96624 1.2111 1.32349 0
M  V30 34 H -0.501665 1.43678 1.31331 0
M  V30 35 H 3.8086 0.506902 1.43864 0
M  V30 36 H 6.15562 -0.593495 -1.33915 0
M  V30 37 H 8.49684 -0.756923 -1.09101 0
M  V30 38 H 9.55971 -0.19767 1.0568 0
M  V30 39 H 8.12651 0.538718 2.94862 0
M  V30 40 H -8.62109 -0.0144296 -0.244038 0
M  V30 41 H -7.42506 0.748579 2.89786 0
M  V30 42 H -8.16709 1.82923 1.6659 0
M  V30 END ATOM
M  V30 BEGIN BOND
M  V30 1 1 1 2
M  V30 2 2 2 3
M  V30 3 1 3 4
M  V30 4 1 4 5
M  V30 5 1 5 6
M  V30 6 1 6 7
M  V30 7 2 7 8
M  V30 8 1 8 9
M  V30 9 2 9 10
M  V30 10 1 10 11
M  V30 11 2 11 12
M  V30 12 1 10 13
M  V30 13 2 13 14
M  V30 14 1 13 15
M  V30 15 1 15 16
M  V30 16 2 16 17
M  V30 17 1 17 18
M  V30 18 2 18 19
M  V30 19 1 19 20
M  V30 20 2 20 21
M  V30 21 1 21 22
M  V30 22 2 4 23
M  V30 23 1 23 24
M  V30 24 2 24 25
M  V30 25 1 24 26
M  V30 26 1 25 2
M  V30 27 1 12 7
M  V30 28 1 21 16
M  V30 29 1 1 27
M  V30 30 1 1 28
M  V30 31 1 6 29
M  V30 32 1 6 30
M  V30 33 1 8 31
M  V30 34 1 9 32
M  V30 35 1 11 33
M  V30 36 1 12 34
M  V30 37 1 15 35
M  V30 38 1 17 36
M  V30 39 1 18 37
M  V30 40 1 19 38
M  V30 41 1 20 39
M  V30 42 1 25 40
M  V30 43 1 26 41
M  V30 44 1 26 42
M  V30 END BOND
M  V30 END CTAB
M  END
