
     RDKit          3D

  0  0  0  0  0  0  0  0  0  0999 V3000
M  V30 BEGIN CTAB
M  V30 COUNTS 31 30 0 0 0
M  V30 BEGIN ATOM
M  V30 1 C 1.60234 0.741614 -0.157517 0 CFG=1
M  V30 2 N 2.29039 1.20554 -1.3142 0
M  V30 3 C 0.599709 -0.356305 -0.476356 0
M  V30 4 C -0.412775 0.201513 -1.44632 0
M  V30 5 C -1.40888 -0.905437 -1.75831 0
M  V30 6 N -2.03942 -1.31587 -0.540789 0
M  V30 7 C -2.9224 -0.49326 0.178699 0
M  V30 8 N -3.14408 -0.690885 1.55765 0
M  V30 9 N -3.54755 0.461855 -0.418692 0
M  V30 10 N -4.41929 1.27718 0.282316 0 CHG=1
M  V30 11 O -3.99251 1.98516 1.38413 0 CHG=-1
M  V30 12 O -5.62129 1.37814 -0.0879613 0
M  V30 13 C 2.53584 0.212522 0.851337 0
M  V30 14 O 2.16983 -0.24022 1.9651 0
M  V30 15 O 3.90791 0.201174 0.581326 0
M  V30 16 C 4.78391 -0.318262 1.5805 0
M  V30 17 H 1.03724 1.56693 0.286981 0
M  V30 18 H 2.13759 2.18396 -1.56525 0
M  V30 19 H 2.42039 0.530829 -2.06995 0
M  V30 20 H 0.106975 -0.613083 0.46757 0
M  V30 21 H 1.11875 -1.2486 -0.885323 0
M  V30 22 H -0.922521 1.05469 -0.964663 0
M  V30 23 H 0.128273 0.561881 -2.33368 0
M  V30 24 H -0.898159 -1.75706 -2.21502 0
M  V30 25 H -2.16466 -0.508894 -2.48017 0
M  V30 26 H -1.84139 -2.27119 -0.152238 0
M  V30 27 H -2.73214 -0.0439797 2.25923 0
M  V30 28 H -3.72506 -1.4852 1.88735 0
M  V30 29 H 4.66708 0.318541 2.50291 0
M  V30 30 H 5.82191 -0.29528 1.2401 0
M  V30 31 H 4.464 -1.33801 1.84124 0
M  V30 END ATOM
M  V30 BEGIN BOND
M  V30 1 1 1 2
M  V30 2 1 1 3
M  V30 3 1 3 4
M  V30 4 1 4 5
M  V30 5 1 5 6
M  V30 6 1 6 7
M  V30 7 1 7 8
M  V30 8 2 7 9
M  V30 9 1 9 10
M  V30 10 1 10 11
M  V30 11 2 10 12
M  V30 12 1 1 13
M  V30 13 2 13 14
M  V30 14 1 13 15
M  V30 15 1 15 16
M  V30 16 1 1 17 CFG=1
M  V30 17 1 2 18
M  V30 18 1 2 19
M  V30 19 1 3 20
M  V30 20 1 3 21
M  V30 21 1 4 22
M  V30 22 1 4 23
M  V30 23 1 5 24
M  V30 24 1 5 25
M  V30 25 1 6 26
M  V30 26 1 8 27
M  V30 27 1 8 28
M  V30 28 1 16 29
M  V30 29 1 16 30
M  V30 30 1 16 31
M  V30 END BOND
M  V30 END CTAB
M  END
