
     RDKit          3D

  0  0  0  0  0  0  0  0  0  0999 V3000
M  V30 BEGIN CTAB
M  V30 COUNTS 66 71 0 0 0
M  V30 BEGIN ATOM
M  V30 1 N 9.38581 0.86002 3.36538 0
M  V30 2 C 8.88374 0.319863 2.15716 0
M  V30 3 N 9.70467 -0.220701 1.23864 0
M  V30 4 C 9.21935 -0.734062 0.0885681 0
M  V30 5 N 7.90835 -0.739418 -0.210207 0
M  V30 6 C 7.03169 -0.205024 0.683536 0
M  V30 7 C 7.53522 0.327136 1.87582 0
M  V30 8 N 6.47436 0.772538 2.54821 0
M  V30 9 C 5.36783 0.533996 1.82035 0
M  V30 10 N 5.6933 -0.0702286 0.663631 0
M  V30 11 C 4.7963 -0.485341 -0.37713 0 CFG=2
M  V30 12 O 3.72457 0.41012 -0.520666 0
M  V30 13 C 2.7467 -0.236266 -1.22965 0 CFG=2
M  V30 14 C 1.36743 0.215555 -0.791572 0
M  V30 15 O 1.23318 1.58456 -1.00025 0
M  V30 16 P -0.295397 2.11147 -0.519636 0
M  V30 17 O -1.0179 3.01646 -1.75136 0
M  V30 18 O -0.17768 3.02245 0.685344 0
M  V30 19 O -1.20837 0.779138 -0.079796 0
M  V30 20 C -2.48804 0.81169 -0.575016 0 CFG=1
M  V30 21 C -2.8847 -0.413527 -1.33011 0 CFG=2
M  V30 22 C -2.73433 -0.222983 -2.83683 0
M  V30 23 O -3.41922 0.949268 -3.15226 0
M  V30 24 O -4.26223 -0.520478 -1.03102 0
M  V30 25 C -4.25906 -0.437362 0.341711 0 CFG=1
M  V30 26 C -3.44434 0.812165 0.601268 0 CFG=1
M  V30 27 O -2.74889 0.578215 1.8075 0
M  V30 28 N -5.57848 -0.292321 0.905391 0
M  V30 29 C -5.82618 -0.32136 2.22705 0
M  V30 30 N -7.1549 -0.159078 2.44359 0
M  V30 31 C -7.75711 -0.0261013 1.25751 0
M  V30 32 C -6.75858 -0.111738 0.309913 0
M  V30 33 N -7.06324 -0.0121045 -0.989481 0
M  V30 34 C -8.35469 0.171844 -1.34569 0
M  V30 35 N -9.34382 0.257508 -0.425078 0
M  V30 36 C -9.08822 0.163421 0.89199 0
M  V30 37 N -10.0976 0.248132 1.89014 0
M  V30 38 C 2.94181 -1.70818 -1.07883 0 CFG=1
M  V30 39 O 3.52156 -2.22656 -2.25737 0
M  V30 40 C 4.06222 -1.765 -0.0321639 0 CFG=1
M  V30 41 O 4.86889 -2.8817 -0.221632 0
M  V30 42 H 9.87152 1.7755 3.34556 0
M  V30 43 H 9.27764 0.364075 4.25343 0
M  V30 44 H 9.93554 -1.15205 -0.603805 0
M  V30 45 H 4.32512 0.773575 2.07836 0
M  V30 46 H 5.25981 -0.597508 -1.35481 0
M  V30 47 H 2.86146 0.0448711 -2.30821 0
M  V30 48 H 0.626745 -0.315503 -1.44788 0
M  V30 49 H 1.18566 -0.0562402 0.268407 0
M  V30 50 H -0.541444 2.81362 -2.59517 0
M  V30 51 H -2.71135 1.70471 -1.181 0
M  V30 52 H -2.4025 -1.34513 -0.978722 0
M  V30 53 H -1.66935 -0.165855 -3.07773 0
M  V30 54 H -3.19939 -1.05839 -3.39094 0
M  V30 55 H -3.01189 1.44042 -3.90783 0
M  V30 56 H -3.72902 -1.32906 0.732797 0
M  V30 57 H -4.0611 1.71337 0.659876 0
M  V30 58 H -2.16854 -0.213409 1.62472 0
M  V30 59 H -5.13732 -0.449091 3.05692 0
M  V30 60 H -8.63476 0.256767 -2.39639 0
M  V30 61 H -10.9156 0.877138 1.74667 0
M  V30 62 H -10.0689 -0.294785 2.78046 0
M  V30 63 H 2.06065 -2.26936 -0.774536 0
M  V30 64 H 3.9645 -1.47561 -2.75017 0
M  V30 65 H 3.63347 -1.72655 0.99831 0
M  V30 66 H 4.74501 -3.47151 0.588435 0
M  V30 END ATOM
M  V30 BEGIN BOND
M  V30 1 1 1 2
M  V30 2 2 2 3
M  V30 3 1 3 4
M  V30 4 2 4 5
M  V30 5 1 5 6
M  V30 6 2 6 7
M  V30 7 1 7 8
M  V30 8 2 8 9
M  V30 9 1 9 10
M  V30 10 1 10 11
M  V30 11 1 11 12
M  V30 12 1 12 13
M  V30 13 1 13 14
M  V30 14 1 14 15
M  V30 15 1 15 16
M  V30 16 1 16 17
M  V30 17 2 16 18
M  V30 18 1 16 19
M  V30 19 1 19 20
M  V30 20 1 20 21
M  V30 21 1 21 22
M  V30 22 1 22 23
M  V30 23 1 21 24
M  V30 24 1 24 25
M  V30 25 1 25 26
M  V30 26 1 26 27
M  V30 27 1 25 28
M  V30 28 1 28 29
M  V30 29 2 29 30
M  V30 30 1 30 31
M  V30 31 2 31 32
M  V30 32 1 32 33
M  V30 33 2 33 34
M  V30 34 1 34 35
M  V30 35 2 35 36
M  V30 36 1 36 37
M  V30 37 1 13 38
M  V30 38 1 38 39
M  V30 39 1 38 40
M  V30 40 1 40 41
M  V30 41 1 7 2
M  V30 42 1 40 11
M  V30 43 1 10 6
M  V30 44 1 26 20
M  V30 45 1 32 28
M  V30 46 1 36 31
M  V30 47 1 1 42
M  V30 48 1 1 43
M  V30 49 1 4 44
M  V30 50 1 9 45
M  V30 51 1 11 46 CFG=3
M  V30 52 1 13 47 CFG=3
M  V30 53 1 14 48
M  V30 54 1 14 49
M  V30 55 1 17 50
M  V30 56 1 20 51 CFG=3
M  V30 57 1 21 52 CFG=1
M  V30 58 1 22 53
M  V30 59 1 22 54
M  V30 60 1 23 55
M  V30 61 1 25 56 CFG=1
M  V30 62 1 26 57 CFG=1
M  V30 63 1 27 58
M  V30 64 1 29 59
M  V30 65 1 34 60
M  V30 66 1 37 61
M  V30 67 1 37 62
M  V30 68 1 38 63 CFG=1
M  V30 69 1 39 64
M  V30 70 1 40 65 CFG=1
M  V30 71 1 41 66
M  V30 END BOND
M  V30 END CTAB
M  END
