
     RDKit          3D

  0  0  0  0  0  0  0  0  0  0999 V3000
M  V30 BEGIN CTAB
M  V30 COUNTS 25 25 0 0 0
M  V30 BEGIN ATOM
M  V30 1 O -1.35426 -0.688496 -1.77987 0
M  V30 2 C -1.60444 -0.977268 -0.454994 0
M  V30 3 C -1.05481 0.0864381 0.406178 0
M  V30 4 C 0.374225 0.335516 0.39204 0
M  V30 5 N 0.872274 1.36207 1.14863 0
M  V30 6 N 2.16037 1.42436 0.991342 0
M  V30 7 C 2.55836 0.465009 0.143126 0
M  V30 8 N 1.41558 -0.200116 -0.214261 0
M  V30 9 N 1.3979 -1.27675 -1.07402 0
M  V30 10 N 3.85701 0.154133 -0.334627 0
M  V30 11 C -1.71851 1.39683 -0.120333 0
M  V30 12 C -1.59032 -0.0971499 1.82041 0
M  V30 13 H -2.04047 -0.095821 -2.18324 0
M  V30 14 H -1.31755 -2.01093 -0.175422 0
M  V30 15 H -2.72354 -0.951265 -0.337839 0
M  V30 16 H 1.22309 -2.22745 -0.679922 0
M  V30 17 H 1.5466 -1.24051 -2.11296 0
M  V30 18 H 4.66829 -0.110384 0.263611 0
M  V30 19 H 4.0399 0.18537 -1.37933 0
M  V30 20 H -2.8147 1.27078 -0.170322 0
M  V30 21 H -1.37373 2.19181 0.563599 0
M  V30 22 H -1.25003 1.51437 -1.1371 0
M  V30 23 H -0.867713 0.264959 2.56743 0
M  V30 24 H -1.82504 -1.18957 1.96931 0
M  V30 25 H -2.57849 0.414052 1.88856 0
M  V30 END ATOM
M  V30 BEGIN BOND
M  V30 1 1 1 2
M  V30 2 1 2 3
M  V30 3 1 3 4
M  V30 4 2 4 5
M  V30 5 1 5 6
M  V30 6 2 6 7
M  V30 7 1 7 8
M  V30 8 1 8 9
M  V30 9 1 7 10
M  V30 10 1 3 11
M  V30 11 1 3 12
M  V30 12 1 8 4
M  V30 13 1 1 13
M  V30 14 1 2 14
M  V30 15 1 2 15
M  V30 16 1 9 16
M  V30 17 1 9 17
M  V30 18 1 10 18
M  V30 19 1 10 19
M  V30 20 1 11 20
M  V30 21 1 11 21
M  V30 22 1 11 22
M  V30 23 1 12 23
M  V30 24 1 12 24
M  V30 25 1 12 25
M  V30 END BOND
M  V30 END CTAB
M  END
