
     RDKit          3D

  0  0  0  0  0  0  0  0  0  0999 V3000
M  V30 BEGIN CTAB
M  V30 COUNTS 22 22 0 0 0
M  V30 BEGIN ATOM
M  V30 1 C 4.3399 0.223266 0.308972 0
M  V30 2 C 3.4519 0.103791 -0.504103 0
M  V30 3 C 2.36145 -0.0401791 -1.46767 0
M  V30 4 S 1.60893 -1.67121 -1.17933 0
M  V30 5 C 0.808986 -1.72273 0.447613 0
M  V30 6 C -0.330952 -0.774844 0.401737 0
M  V30 7 N -1.52342 -1.23753 0.00749586 0
M  V30 8 C -2.60686 -0.4297 -0.0589768 0
M  V30 9 N -3.83255 -0.971149 -0.479949 0
M  V30 10 N -2.42669 0.853488 0.288775 0
M  V30 11 C -1.25227 1.36914 0.691232 0
M  V30 12 N -0.202401 0.518826 0.739695 0
M  V30 13 N -1.10096 2.74596 1.05416 0
M  V30 14 H 5.11264 0.339868 1.01715 0
M  V30 15 H 1.55741 0.715531 -1.31064 0
M  V30 16 H 2.75253 0.0607418 -2.48373 0
M  V30 17 H 1.52672 -1.46849 1.27023 0
M  V30 18 H 0.413153 -2.75074 0.573847 0
M  V30 19 H -4.36591 -1.59608 0.149086 0
M  V30 20 H -4.22183 -0.759527 -1.41462 0
M  V30 21 H -0.188037 3.21185 0.911414 0
M  V30 22 H -1.88173 3.27971 1.45333 0
M  V30 END ATOM
M  V30 BEGIN BOND
M  V30 1 3 1 2
M  V30 2 1 2 3
M  V30 3 1 3 4
M  V30 4 1 4 5
M  V30 5 1 5 6
M  V30 6 2 6 7
M  V30 7 1 7 8
M  V30 8 1 8 9
M  V30 9 2 8 10
M  V30 10 1 10 11
M  V30 11 2 11 12
M  V30 12 1 11 13
M  V30 13 1 12 6
M  V30 14 1 1 14
M  V30 15 1 3 15
M  V30 16 1 3 16
M  V30 17 1 5 17
M  V30 18 1 5 18
M  V30 19 1 9 19
M  V30 20 1 9 20
M  V30 21 1 13 21
M  V30 22 1 13 22
M  V30 END BOND
M  V30 END CTAB
M  END
