
     RDKit          3D

  0  0  0  0  0  0  0  0  0  0999 V3000
M  V30 BEGIN CTAB
M  V30 COUNTS 27 28 0 0 0
M  V30 BEGIN ATOM
M  V30 1 N -2.78628 1.88432 0.652735 0
M  V30 2 C -2.04691 0.867691 -0.0204822 0 CFG=2
M  V30 3 C -2.64407 -0.492311 0.200562 0
M  V30 4 C -1.80155 -1.62432 -0.227765 0
M  V30 5 C -0.488299 -1.3268 -0.819257 0
M  V30 6 C 0.132334 -0.0223856 -0.500501 0 CFG=1
M  V30 7 C -0.62935 0.764419 0.564806 0
M  V30 8 C 1.56881 -0.140549 -0.081082 0
M  V30 9 O 2.03553 -0.836517 0.931137 0
M  V30 10 N 3.32061 -0.726926 1.01954 0
M  V30 11 C 3.7712 0.0854844 0.0195179 0
M  V30 12 N 2.64724 0.432365 -0.647561 0
M  V30 13 N 5.10597 0.476897 -0.258407 0
M  V30 14 H -3.60535 2.18637 0.12346 0
M  V30 15 H -2.15917 2.71391 0.771118 0
M  V30 16 H -1.96297 1.05236 -1.09999 0
M  V30 17 H -3.65377 -0.485862 -0.305902 0
M  V30 18 H -2.90525 -0.545664 1.29911 0
M  V30 19 H -1.69036 -2.33001 0.648048 0
M  V30 20 H -2.39389 -2.23183 -0.975331 0
M  V30 21 H 0.239849 -2.13149 -0.500296 0
M  V30 22 H -0.518004 -1.43997 -1.94386 0
M  V30 23 H 0.120075 0.654287 -1.40424 0
M  V30 24 H -0.180546 1.75676 0.63182 0
M  V30 25 H -0.660074 0.216522 1.53025 0
M  V30 26 H 5.35629 1.46799 -0.220312 0
M  V30 27 H 5.82793 -0.224736 -0.498514 0
M  V30 END ATOM
M  V30 BEGIN BOND
M  V30 1 1 1 2
M  V30 2 1 2 3
M  V30 3 1 3 4
M  V30 4 1 4 5
M  V30 5 1 5 6
M  V30 6 1 6 7
M  V30 7 1 6 8
M  V30 8 1 8 9
M  V30 9 1 9 10
M  V30 10 2 10 11
M  V30 11 1 11 12
M  V30 12 1 11 13
M  V30 13 1 7 2
M  V30 14 2 12 8
M  V30 15 1 1 14
M  V30 16 1 1 15
M  V30 17 1 2 16 CFG=3
M  V30 18 1 3 17
M  V30 19 1 3 18
M  V30 20 1 4 19
M  V30 21 1 4 20
M  V30 22 1 5 21
M  V30 23 1 5 22
M  V30 24 1 6 23 CFG=3
M  V30 25 1 7 24
M  V30 26 1 7 25
M  V30 27 1 13 26
M  V30 28 1 13 27
M  V30 END BOND
M  V30 END CTAB
M  END
