
     RDKit          3D

  0  0  0  0  0  0  0  0  0  0999 V3000
M  V30 BEGIN CTAB
M  V30 COUNTS 61 65 0 0 0
M  V30 BEGIN ATOM
M  V30 1 C -8.22112 4.12401 -0.174358 0
M  V30 2 C -6.74481 4.52762 -0.286441 0
M  V30 3 O -6.00626 3.33667 -0.279621 0
M  V30 4 C -4.6279 3.26104 -0.363842 0
M  V30 5 O -4.00102 4.34401 -0.452602 0
M  V30 6 C -3.89456 2.01285 -0.354106 0
M  V30 7 N -4.344 0.752051 -0.268597 0
M  V30 8 N -3.35035 -0.115759 -0.292595 0
M  V30 9 C -2.19808 0.583685 -0.397447 0
M  V30 10 C -2.5235 1.90071 -0.436224 0
M  V30 11 C -0.818021 0.0606457 -0.461577 0
M  V30 12 O -0.73287 -1.18002 -0.41091 0
M  V30 13 N 0.269178 0.917728 -0.569463 0
M  V30 14 C 1.64129 0.625662 -0.643501 0
M  V30 15 C 2.16917 -0.646304 -0.619513 0
M  V30 16 C 3.54814 -0.878173 -0.696568 0
M  V30 17 C 4.44618 0.145711 -0.798871 0
M  V30 18 C 3.91798 1.41967 -0.823482 0
M  V30 19 C 2.57785 1.67158 -0.750278 0
M  V30 20 F 2.0957 2.92912 -0.777066 0
M  V30 21 C 5.88486 0.00624149 -0.854426 0
M  V30 22 C 6.58088 0.239271 -2.05389 0
M  V30 23 C 7.94416 0.0939987 -2.15636 0
M  V30 24 C 8.64954 -0.294758 -1.0384 0
M  V30 25 C 7.98463 -0.525386 0.139242 0
M  V30 26 C 6.59678 -0.377043 0.243755 0
M  V30 27 S 5.83608 -0.657518 1.77241 0
M  V30 28 N 4.95256 0.735902 2.3125 0
M  V30 29 O 5.00996 -1.89287 1.84095 0
M  V30 30 O 6.96071 -0.887075 2.79901 0
M  V30 31 C -3.41169 -1.54 -0.22439 0
M  V30 32 C -3.33402 -2.22116 0.968945 0
M  V30 33 C -3.3952 -3.60654 1.01891 0
M  V30 34 C -3.53604 -4.35258 -0.124376 0
M  V30 35 O -3.56483 -5.60397 0.207989 0
M  V30 36 N -3.45174 -5.70523 1.48682 0
M  V30 37 C -3.34127 -4.49915 2.06372 0
M  V30 38 N -3.19878 -4.18354 3.44661 0
M  V30 39 C -3.61324 -3.64772 -1.32472 0
M  V30 40 C -3.55295 -2.27287 -1.37905 0
M  V30 41 H -8.48377 3.60327 -1.11564 0
M  V30 42 H -8.34911 3.38967 0.655229 0
M  V30 43 H -8.86396 4.98626 0.0142796 0
M  V30 44 H -6.54016 5.18221 0.580331 0
M  V30 45 H -6.65454 5.12004 -1.1995 0
M  V30 46 H -1.83568 2.7306 -0.51743 0
M  V30 47 H 0.0246286 1.96099 -0.601089 0
M  V30 48 H 1.5026 -1.50695 -0.53829 0
M  V30 49 H 3.86736 -1.88665 -0.69373 0
M  V30 50 H 4.60171 2.27228 -0.905496 0
M  V30 51 H 5.98884 0.540805 -2.89978 0
M  V30 52 H 8.47774 0.278432 -3.09751 0
M  V30 53 H 9.73032 -0.410753 -1.11806 0
M  V30 54 H 8.58471 -0.832486 1.00202 0
M  V30 55 H 5.52752 1.29146 2.99166 0
M  V30 56 H 4.09694 0.44588 2.85302 0
M  V30 57 H -3.22348 -1.69539 1.89698 0
M  V30 58 H -3.73398 -3.38172 3.85459 0
M  V30 59 H -2.58359 -4.71287 4.08362 0
M  V30 60 H -3.72343 -4.24041 -2.21459 0
M  V30 61 H -3.61406 -1.73519 -2.31882 0
M  V30 END ATOM
M  V30 BEGIN BOND
M  V30 1 1 1 2
M  V30 2 1 2 3
M  V30 3 1 3 4
M  V30 4 2 4 5
M  V30 5 1 4 6
M  V30 6 2 6 7
M  V30 7 1 7 8
M  V30 8 1 8 9
M  V30 9 2 9 10
M  V30 10 1 9 11
M  V30 11 2 11 12
M  V30 12 1 11 13
M  V30 13 1 13 14
M  V30 14 2 14 15
M  V30 15 1 15 16
M  V30 16 2 16 17
M  V30 17 1 17 18
M  V30 18 2 18 19
M  V30 19 1 19 20
M  V30 20 1 17 21
M  V30 21 2 21 22
M  V30 22 1 22 23
M  V30 23 2 23 24
M  V30 24 1 24 25
M  V30 25 2 25 26
M  V30 26 1 26 27
M  V30 27 1 27 28
M  V30 28 2 27 29
M  V30 29 2 27 30
M  V30 30 1 8 31
M  V30 31 2 31 32
M  V30 32 1 32 33
M  V30 33 2 33 34
M  V30 34 1 34 35
M  V30 35 1 35 36
M  V30 36 2 36 37
M  V30 37 1 37 38
M  V30 38 1 34 39
M  V30 39 2 39 40
M  V30 40 1 10 6
M  V30 41 1 19 14
M  V30 42 1 26 21
M  V30 43 1 40 31
M  V30 44 1 37 33
M  V30 45 1 1 41
M  V30 46 1 1 42
M  V30 47 1 1 43
M  V30 48 1 2 44
M  V30 49 1 2 45
M  V30 50 1 10 46
M  V30 51 1 13 47
M  V30 52 1 15 48
M  V30 53 1 16 49
M  V30 54 1 18 50
M  V30 55 1 22 51
M  V30 56 1 23 52
M  V30 57 1 24 53
M  V30 58 1 25 54
M  V30 59 1 28 55
M  V30 60 1 28 56
M  V30 61 1 32 57
M  V30 62 1 38 58
M  V30 63 1 38 59
M  V30 64 1 39 60
M  V30 65 1 40 61
M  V30 END BOND
M  V30 END CTAB
M  END
