
     RDKit          3D

  0  0  0  0  0  0  0  0  0  0999 V3000
M  V30 BEGIN CTAB
M  V30 COUNTS 85 86 0 0 0
M  V30 BEGIN ATOM
M  V30 1 N -2.25011 4.83527 -2.19534 0
M  V30 2 C -2.23057 5.20252 -0.83566 0
M  V30 3 C -0.836131 5.3495 -0.316362 0
M  V30 4 C -0.0303671 4.08227 -0.421402 0
M  V30 5 C -0.650831 2.94996 0.352206 0
M  V30 6 C 0.216542 1.67844 0.213873 0 CFG=2
M  V30 7 N -0.367856 0.594841 0.944485 0
M  V30 8 C -1.62062 0.0109266 0.894625 0
M  V30 9 O -2.11058 -0.290092 2.06209 0
M  V30 10 C -2.53 -0.354358 -0.173134 0 CFG=1
M  V30 11 C -3.80928 0.442555 -0.121971 0
M  V30 12 C -4.62928 0.32974 1.07429 0
M  V30 13 C -5.51098 -0.754275 1.18041 0
M  V30 14 C -6.34047 -0.895123 2.24014 0
M  V30 15 C -6.34063 0.0344152 3.25567 0
M  V30 16 O -7.21026 -0.13295 4.34269 0
M  V30 17 C -5.4749 1.09985 3.1527 0
M  V30 18 C -4.63026 1.25562 2.08705 0
M  V30 19 N -2.0611 -0.243758 -1.52391 0
M  V30 20 C -1.94895 -1.23492 -2.51 0
M  V30 21 O -2.5553 -1.06802 -3.64933 0
M  V30 22 C -1.21242 -2.51322 -2.46886 0 CFG=2
M  V30 23 C -2.09839 -3.70889 -2.76847 0
M  V30 24 C -3.2118 -3.89797 -1.85391 0
M  V30 25 O -4.49121 -3.54283 -2.24148 0
M  V30 26 O -3.07655 -4.37679 -0.703773 0
M  V30 27 N -0.446005 -2.76456 -1.2975 0
M  V30 28 C 0.962917 -2.58386 -1.29357 0
M  V30 29 O 1.66388 -3.39779 -0.600457 0
M  V30 30 C 1.51406 -1.47698 -2.08421 0
M  V30 31 N 2.91507 -1.21691 -1.91107 0
M  V30 32 C 3.58524 -0.108123 -1.3851 0
M  V30 33 O 4.37503 0.545963 -2.20216 0
M  V30 34 C 3.53714 0.44562 -0.0120874 0 CFG=2
M  V30 35 C 3.27836 -0.586333 1.06448 0
M  V30 36 C 4.30906 -1.65156 1.11439 0
M  V30 37 C 5.7062 -1.21313 1.36932 0
M  V30 38 N 6.53911 -2.42857 1.39242 0
M  V30 39 C 7.93563 -2.32845 1.59132 0
M  V30 40 N 8.84815 -3.28706 1.05145 0
M  V30 41 N 8.43819 -1.36663 2.27023 0
M  V30 42 N 2.83526 1.67631 0.141208 0
M  V30 43 C 1.59396 2.01402 0.67555 0
M  V30 44 O 1.55685 2.74058 1.74965 0
M  V30 45 H -1.78126 5.34694 -2.85453 0
M  V30 46 H -2.47416 3.8994 -2.36553 0
M  V30 47 H -2.86058 4.56608 -0.210401 0
M  V30 48 H -2.69662 6.22671 -0.78707 0
M  V30 49 H -0.311302 6.12101 -0.926772 0
M  V30 50 H -0.843108 5.74412 0.735651 0
M  V30 51 H -0.0833317 3.77682 -1.50642 0
M  V30 52 H 1.03357 4.22604 -0.196306 0
M  V30 53 H -1.65567 2.71181 -0.00335466 0
M  V30 54 H -0.718197 3.23806 1.41433 0
M  V30 55 H 0.177722 1.44355 -0.85526 0
M  V30 56 H 0.305557 0.161503 1.67741 0
M  V30 57 H -2.80778 -1.44689 -0.00585784 0
M  V30 58 H -3.62151 1.49575 -0.436622 0
M  V30 59 H -4.44049 0.0284437 -0.972893 0
M  V30 60 H -5.52778 -1.50389 0.390657 0
M  V30 61 H -7.03433 -1.74256 2.33032 0
M  V30 62 H -7.16972 0.579843 5.05878 0
M  V30 63 H -5.4667 1.84582 3.95414 0
M  V30 64 H -3.95236 2.09174 2.00849 0
M  V30 65 H -1.77974 0.735226 -1.83181 0
M  V30 66 H -0.539832 -2.46945 -3.39063 0
M  V30 67 H -2.40741 -3.6357 -3.83922 0
M  V30 68 H -1.40725 -4.59877 -2.73842 0
M  V30 69 H -5.20529 -4.27758 -2.36216 0
M  V30 70 H -0.974752 -3.09937 -0.433333 0
M  V30 71 H 1.26741 -1.61934 -3.17862 0
M  V30 72 H 0.954831 -0.561241 -1.81416 0
M  V30 73 H 3.53721 -2.01743 -2.26294 0
M  V30 74 H 4.66442 0.661086 0.214022 0
M  V30 75 H 2.27337 -0.987793 1.05301 0
M  V30 76 H 3.37074 -0.00622916 2.02899 0
M  V30 77 H 4.30299 -2.3072 0.19365 0
M  V30 78 H 4.05184 -2.38109 1.93885 0
M  V30 79 H 6.15802 -0.623987 0.517963 0
M  V30 80 H 5.81372 -0.700632 2.33492 0
M  V30 81 H 6.14673 -3.38071 1.26859 0
M  V30 82 H 9.206 -4.02924 1.67311 0
M  V30 83 H 9.15074 -3.25434 0.0730113 0
M  V30 84 H 7.81127 -0.6545 2.67751 0
M  V30 85 H 3.3972 2.53277 -0.221598 0
M  V30 END ATOM
M  V30 BEGIN BOND
M  V30 1 1 1 2
M  V30 2 1 2 3
M  V30 3 1 3 4
M  V30 4 1 4 5
M  V30 5 1 5 6
M  V30 6 1 6 7
M  V30 7 1 7 8
M  V30 8 2 8 9
M  V30 9 1 8 10
M  V30 10 1 10 11
M  V30 11 1 11 12
M  V30 12 2 12 13
M  V30 13 1 13 14
M  V30 14 2 14 15
M  V30 15 1 15 16
M  V30 16 1 15 17
M  V30 17 2 17 18
M  V30 18 1 10 19
M  V30 19 1 19 20
M  V30 20 2 20 21
M  V30 21 1 20 22
M  V30 22 1 22 23
M  V30 23 1 23 24
M  V30 24 1 24 25
M  V30 25 2 24 26
M  V30 26 1 22 27
M  V30 27 1 27 28
M  V30 28 2 28 29
M  V30 29 1 28 30
M  V30 30 1 30 31
M  V30 31 1 31 32
M  V30 32 2 32 33
M  V30 33 1 32 34
M  V30 34 1 34 35
M  V30 35 1 35 36
M  V30 36 1 36 37
M  V30 37 1 37 38
M  V30 38 1 38 39
M  V30 39 1 39 40
M  V30 40 2 39 41 CFG=2
M  V30 41 1 34 42
M  V30 42 1 42 43
M  V30 43 2 43 44
M  V30 44 1 43 6
M  V30 45 1 18 12
M  V30 46 1 1 45
M  V30 47 1 1 46
M  V30 48 1 2 47
M  V30 49 1 2 48
M  V30 50 1 3 49
M  V30 51 1 3 50
M  V30 52 1 4 51
M  V30 53 1 4 52
M  V30 54 1 5 53
M  V30 55 1 5 54
M  V30 56 1 6 55 CFG=3
M  V30 57 1 7 56
M  V30 58 1 10 57 CFG=1
M  V30 59 1 11 58
M  V30 60 1 11 59
M  V30 61 1 13 60
M  V30 62 1 14 61
M  V30 63 1 16 62
M  V30 64 1 17 63
M  V30 65 1 18 64
M  V30 66 1 19 65
M  V30 67 1 22 66 CFG=3
M  V30 68 1 23 67
M  V30 69 1 23 68
M  V30 70 1 25 69
M  V30 71 1 27 70
M  V30 72 1 30 71
M  V30 73 1 30 72
M  V30 74 1 31 73
M  V30 75 1 34 74 CFG=1
M  V30 76 1 35 75
M  V30 77 1 35 76
M  V30 78 1 36 77
M  V30 79 1 36 78
M  V30 80 1 37 79
M  V30 81 1 37 80
M  V30 82 1 38 81
M  V30 83 1 40 82
M  V30 84 1 40 83
M  V30 85 1 41 84
M  V30 86 1 42 85
M  V30 END BOND
M  V30 END CTAB
M  END
