
     RDKit          3D

  0  0  0  0  0  0  0  0  0  0999 V3000
M  V30 BEGIN CTAB
M  V30 COUNTS 57 57 0 0 0
M  V30 BEGIN ATOM
M  V30 1 N 7.03054 -0.293492 0.909252 0
M  V30 2 C 6.50192 -0.789918 -0.34102 0
M  V30 3 C 5.48504 -1.87477 -0.0570241 0
M  V30 4 C 4.35083 -1.38513 0.760422 0
M  V30 5 C 4.37732 -1.43498 2.13093 0
M  V30 6 C 3.277 -0.95742 2.83814 0
M  V30 7 O 3.33524 -1.02194 4.22063 0
M  V30 8 C 2.17859 -0.443914 2.21355 0
M  V30 9 O 1.06474 0.041147 2.87055 0
M  V30 10 C 2.16148 -0.397729 0.822301 0
M  V30 11 S 0.794647 0.245323 -0.100947 0
M  V30 12 C -0.55108 0.825329 0.9223 0
M  V30 13 C -1.64273 1.34404 -0.00260107 0 CFG=2
M  V30 14 N -2.04731 0.23283 -0.836639 0
M  V30 15 C -3.3983 -0.215988 -0.925479 0
M  V30 16 O -4.25126 0.379509 -0.255111 0
M  V30 17 C -3.7324 -1.34845 -1.7918 0
M  V30 18 C -5.14006 -1.79146 -1.62062 0
M  V30 19 C -5.3887 -2.30178 -0.229715 0 CFG=2
M  V30 20 N -4.4837 -3.42586 -0.0244326 0
M  V30 21 C -6.8128 -2.78324 -0.121101 0
M  V30 22 O -7.04034 -4.12299 0.138501 0
M  V30 23 O -7.73206 -1.96296 -0.26796 0
M  V30 24 C -0.986433 2.35216 -0.908682 0
M  V30 25 O -0.889062 2.11625 -2.13951 0
M  V30 26 N -0.47424 3.57195 -0.384182 0
M  V30 27 C 0.144829 4.50417 -1.29227 0
M  V30 28 C 0.620594 5.70768 -0.60454 0
M  V30 29 O 1.24088 6.69979 -1.35015 0
M  V30 30 O 0.496271 5.89095 0.632444 0
M  V30 31 C 3.24651 -0.868465 0.118026 0
M  V30 32 H 7.70034 0.461277 0.813137 0
M  V30 33 H 7.22612 -1.0167 1.59029 0
M  V30 34 H 6.07536 0.00276842 -0.963715 0
M  V30 35 H 7.33213 -1.26351 -0.901239 0
M  V30 36 H 5.96369 -2.7322 0.451027 0
M  V30 37 H 5.05993 -2.26938 -1.00069 0
M  V30 38 H 5.24726 -1.84293 2.66621 0
M  V30 39 H 2.58783 -0.700628 4.81309 0
M  V30 40 H 0.971938 0.0553669 3.87324 0
M  V30 41 H -1.01647 0.0153689 1.5505 0
M  V30 42 H -0.226587 1.68472 1.56483 0
M  V30 43 H -2.48512 1.79341 0.545693 0
M  V30 44 H -1.30061 -0.243785 -1.38657 0
M  V30 45 H -3.64507 -0.949295 -2.85434 0
M  V30 46 H -3.00405 -2.1917 -1.69162 0
M  V30 47 H -5.35717 -2.61605 -2.35354 0
M  V30 48 H -5.85827 -0.95589 -1.86678 0
M  V30 49 H -5.21489 -1.57358 0.55246 0
M  V30 50 H -4.26263 -3.86272 -0.94671 0
M  V30 51 H -3.60484 -3.0317 0.381609 0
M  V30 52 H -7.79462 -4.48608 0.675993 0
M  V30 53 H -0.537746 3.79791 0.623687 0
M  V30 54 H 1.04827 4.01072 -1.74797 0
M  V30 55 H -0.553177 4.78316 -2.10092 0
M  V30 56 H 0.670235 7.47698 -1.68575 0
M  V30 57 H 3.2422 -0.836175 -0.980054 0
M  V30 END ATOM
M  V30 BEGIN BOND
M  V30 1 1 1 2
M  V30 2 1 2 3
M  V30 3 1 3 4
M  V30 4 2 4 5
M  V30 5 1 5 6
M  V30 6 1 6 7
M  V30 7 2 6 8
M  V30 8 1 8 9
M  V30 9 1 8 10
M  V30 10 1 10 11
M  V30 11 1 11 12
M  V30 12 1 12 13
M  V30 13 1 13 14
M  V30 14 1 14 15
M  V30 15 2 15 16
M  V30 16 1 15 17
M  V30 17 1 17 18
M  V30 18 1 18 19
M  V30 19 1 19 20
M  V30 20 1 19 21
M  V30 21 1 21 22
M  V30 22 2 21 23
M  V30 23 1 13 24
M  V30 24 2 24 25
M  V30 25 1 24 26
M  V30 26 1 26 27
M  V30 27 1 27 28
M  V30 28 1 28 29
M  V30 29 2 28 30
M  V30 30 2 10 31
M  V30 31 1 31 4
M  V30 32 1 1 32
M  V30 33 1 1 33
M  V30 34 1 2 34
M  V30 35 1 2 35
M  V30 36 1 3 36
M  V30 37 1 3 37
M  V30 38 1 5 38
M  V30 39 1 7 39
M  V30 40 1 9 40
M  V30 41 1 12 41
M  V30 42 1 12 42
M  V30 43 1 13 43 CFG=1
M  V30 44 1 14 44
M  V30 45 1 17 45
M  V30 46 1 17 46
M  V30 47 1 18 47
M  V30 48 1 18 48
M  V30 49 1 19 49 CFG=1
M  V30 50 1 20 50
M  V30 51 1 20 51
M  V30 52 1 22 52
M  V30 53 1 26 53
M  V30 54 1 27 54
M  V30 55 1 27 55
M  V30 56 1 29 56
M  V30 57 1 31 57
M  V30 END BOND
M  V30 END CTAB
M  END
