
     RDKit          3D

  0  0  0  0  0  0  0  0  0  0999 V3000
M  V30 BEGIN CTAB
M  V30 COUNTS 45 48 0 0 0
M  V30 BEGIN ATOM
M  V30 1 N -3.83119 -5.07272 0.951759 0
M  V30 2 S -2.84043 -5.0341 -0.470394 0
M  V30 3 O -3.67025 -4.54666 -1.62294 0
M  V30 4 O -2.44045 -6.47074 -0.7528 0
M  V30 5 C -1.45837 -4.01287 -0.248289 0
M  V30 6 C -0.270145 -4.50055 0.24501 0
M  V30 7 C 0.850171 -3.72108 0.43573 0
M  V30 8 C 0.751385 -2.37941 0.106639 0
M  V30 9 C -0.411887 -1.83117 -0.391973 0
M  V30 10 C -1.5131 -2.66446 -0.564584 0
M  V30 11 C -0.19469 -0.411433 -0.6359 0
M  V30 12 N -1.06981 0.385808 -1.09622 0
M  V30 13 N -0.922292 1.7371 -1.34758 0
M  V30 14 C -1.58741 2.661 -0.471362 0
M  V30 15 C -1.49088 4.0315 -0.653568 0
M  V30 16 C -2.13533 4.90241 0.196264 0
M  V30 17 C -2.89478 4.4509 1.25181 0
M  V30 18 C -3.00461 3.10207 1.45144 0
M  V30 19 C -2.35211 2.23253 0.590525 0
M  V30 20 C 1.16761 -0.0963458 -0.263914 0
M  V30 21 C 1.72998 -1.27261 0.178896 0
M  V30 22 C 3.04151 -1.24484 0.597986 0
M  V30 23 C 3.77549 -0.0767384 0.577304 0
M  V30 24 C 3.24064 1.11747 0.139441 0
M  V30 25 C 1.914 1.07774 -0.2819 0
M  V30 26 S 4.16325 2.5993 0.110398 0
M  V30 27 O 5.16607 2.66537 1.22434 0
M  V30 28 O 3.25229 3.80526 0.294106 0
M  V30 29 N 4.98592 2.82438 -1.37869 0
M  V30 30 H -4.54582 -5.80555 0.877158 0
M  V30 31 H -4.16017 -4.14238 1.23922 0
M  V30 32 H -0.237581 -5.55578 0.489198 0
M  V30 33 H 1.76435 -4.12091 0.820716 0
M  V30 34 H -2.4277 -2.20686 -0.962494 0
M  V30 35 H -0.364406 2.13834 -2.12566 0
M  V30 36 H -0.891413 4.38095 -1.48651 0
M  V30 37 H -2.05832 5.97577 0.0516251 0
M  V30 38 H -3.40727 5.13281 1.92804 0
M  V30 39 H -3.59423 2.70782 2.27255 0
M  V30 40 H -2.4438 1.16608 0.754982 0
M  V30 41 H 3.46492 -2.18983 0.944535 0
M  V30 42 H 4.80234 -0.0614675 0.906847 0
M  V30 43 H 1.50329 2.00942 -0.621351 0
M  V30 44 H 4.64435 3.60843 -1.9394 0
M  V30 45 H 6.00087 2.70603 -1.32098 0
M  V30 END ATOM
M  V30 BEGIN BOND
M  V30 1 1 1 2
M  V30 2 2 2 3
M  V30 3 2 2 4
M  V30 4 1 2 5
M  V30 5 2 5 6
M  V30 6 1 6 7
M  V30 7 2 7 8
M  V30 8 1 8 9
M  V30 9 2 9 10
M  V30 10 1 9 11
M  V30 11 2 11 12 CFG=2
M  V30 12 1 12 13
M  V30 13 1 13 14
M  V30 14 2 14 15
M  V30 15 1 15 16
M  V30 16 2 16 17
M  V30 17 1 17 18
M  V30 18 2 18 19
M  V30 19 1 11 20
M  V30 20 2 20 21
M  V30 21 1 21 22
M  V30 22 2 22 23
M  V30 23 1 23 24
M  V30 24 2 24 25
M  V30 25 1 24 26
M  V30 26 2 26 27
M  V30 27 2 26 28
M  V30 28 1 26 29
M  V30 29 1 10 5
M  V30 30 1 19 14
M  V30 31 1 25 20
M  V30 32 1 21 8
M  V30 33 1 1 30
M  V30 34 1 1 31
M  V30 35 1 6 32
M  V30 36 1 7 33
M  V30 37 1 10 34
M  V30 38 1 13 35
M  V30 39 1 15 36
M  V30 40 1 16 37
M  V30 41 1 17 38
M  V30 42 1 18 39
M  V30 43 1 19 40
M  V30 44 1 22 41
M  V30 45 1 23 42
M  V30 46 1 25 43
M  V30 47 1 29 44
M  V30 48 1 29 45
M  V30 END BOND
M  V30 END CTAB
M  END
