
     RDKit          3D

  0  0  0  0  0  0  0  0  0  0999 V3000
M  V30 BEGIN CTAB
M  V30 COUNTS 30 31 0 0 0
M  V30 BEGIN ATOM
M  V30 1 N 3.34801 1.01037 -0.230409 0
M  V30 2 C 3.86778 -0.221706 0.16372 0
M  V30 3 C 3.03611 -1.33862 -0.432801 0 CFG=1
M  V30 4 C 1.65626 -1.19011 0.0580865 0
M  V30 5 O 1.10473 -1.97105 0.951787 0
M  V30 6 N -0.121769 -1.57928 1.17249 0
M  V30 7 C -0.402024 -0.503893 0.404583 0
M  V30 8 N 0.740438 -0.273677 -0.295003 0
M  V30 9 N -1.61153 0.209224 0.350901 0
M  V30 10 C -1.76849 1.34007 -0.517462 0
M  V30 11 C -2.94257 1.0579 -1.43048 0
M  V30 12 O -3.82666 0.166396 -0.877078 0
M  V30 13 C -3.98549 0.25716 0.481602 0
M  V30 14 C -2.71547 -0.19187 1.17447 0
M  V30 15 N 3.02845 -1.20342 -1.88126 0
M  V30 16 H 3.75875 1.52104 -0.953659 0
M  V30 17 H 2.6837 1.44931 0.343388 0
M  V30 18 H 3.8327 -0.280237 1.27003 0
M  V30 19 H 4.92038 -0.328908 -0.17606 0
M  V30 20 H 3.46013 -2.30989 -0.163662 0
M  V30 21 H -0.861613 1.54697 -1.12806 0
M  V30 22 H -2.04156 2.21467 0.109623 0
M  V30 23 H -2.50008 0.596282 -2.35662 0
M  V30 24 H -3.41807 2.03238 -1.70959 0
M  V30 25 H -4.7842 -0.45307 0.777324 0
M  V30 26 H -4.30101 1.27144 0.820589 0
M  V30 27 H -2.64197 0.176936 2.21532 0
M  V30 28 H -2.72738 -1.31918 1.18018 0
M  V30 29 H 2.07293 -1.50823 -2.21589 0
M  V30 30 H 3.13952 -0.176993 -2.08965 0
M  V30 END ATOM
M  V30 BEGIN BOND
M  V30 1 1 1 2
M  V30 2 1 2 3
M  V30 3 1 3 4
M  V30 4 1 4 5
M  V30 5 1 5 6
M  V30 6 2 6 7
M  V30 7 1 7 8
M  V30 8 1 7 9
M  V30 9 1 9 10
M  V30 10 1 10 11
M  V30 11 1 11 12
M  V30 12 1 12 13
M  V30 13 1 13 14
M  V30 14 1 3 15
M  V30 15 2 8 4
M  V30 16 1 14 9
M  V30 17 1 1 16
M  V30 18 1 1 17
M  V30 19 1 2 18
M  V30 20 1 2 19
M  V30 21 1 3 20 CFG=3
M  V30 22 1 10 21
M  V30 23 1 10 22
M  V30 24 1 11 23
M  V30 25 1 11 24
M  V30 26 1 13 25
M  V30 27 1 13 26
M  V30 28 1 14 27
M  V30 29 1 14 28
M  V30 30 1 15 29
M  V30 31 1 15 30
M  V30 END BOND
M  V30 END CTAB
M  END
