
     RDKit          3D

  0  0  0  0  0  0  0  0  0  0999 V3000
M  V30 BEGIN CTAB
M  V30 COUNTS 46 48 0 0 0
M  V30 BEGIN ATOM
M  V30 1 O 1.1437 -0.854444 0.788319 0
M  V30 2 C 0.809155 -0.599993 -0.395384 0
M  V30 3 C 1.61142 -1.15793 -1.49001 0
M  V30 4 C 2.85204 -1.88262 -1.07545 0
M  V30 5 C 3.86361 -1.07662 -0.369828 0
M  V30 6 C 3.79798 0.278113 -0.197552 0
M  V30 7 C 4.78467 0.984775 0.499871 0
M  V30 8 C 5.86782 0.332637 1.04203 0
M  V30 9 C 5.94254 -1.0308 0.873082 0
M  V30 10 C 4.97364 -1.72096 0.18915 0
M  V30 11 N 3.41085 -2.55692 -2.23657 0
M  V30 12 N -0.334655 0.219212 -0.613958 0
M  V30 13 C -1.11797 0.764063 0.453183 0
M  V30 14 C -1.09516 2.2587 0.334617 0
M  V30 15 C -2.23106 2.97309 0.97217 0
M  V30 16 C -2.89352 2.07464 2.02018 0
M  V30 17 C -3.44062 0.921595 1.2238 0
M  V30 18 C -2.51688 0.255992 0.417486 0
M  V30 19 C -2.93218 -0.799567 -0.339506 0
M  V30 20 C -4.26829 -1.1668 -0.272065 0
M  V30 21 C -5.1879 -0.512385 0.524007 0
M  V30 22 C -4.76839 0.570861 1.30263 0
M  V30 23 N -6.55225 -0.903582 0.579565 0
M  V30 24 H 1.01399 -1.79168 -2.18211 0
M  V30 25 H 1.96891 -0.313348 -2.15604 0
M  V30 26 H 2.53526 -2.75577 -0.402398 0
M  V30 27 H 2.97035 0.851727 -0.615946 0
M  V30 28 H 4.7101 2.05584 0.62313 0
M  V30 29 H 6.64268 0.886697 1.58961 0
M  V30 30 H 6.78584 -1.5464 1.29367 0
M  V30 31 H 5.03455 -2.79506 0.0572723 0
M  V30 32 H 3.42756 -1.90507 -3.07053 0
M  V30 33 H 2.73479 -3.30812 -2.49911 0
M  V30 34 H -0.620742 0.436348 -1.58947 0
M  V30 35 H -0.726652 0.470847 1.46196 0
M  V30 36 H -1.00552 2.58383 -0.743623 0
M  V30 37 H -0.136093 2.63738 0.797219 0
M  V30 38 H -3.00611 3.30941 0.251145 0
M  V30 39 H -1.85724 3.85706 1.51251 0
M  V30 40 H -3.69217 2.5866 2.55886 0
M  V30 41 H -2.08075 1.68042 2.66303 0
M  V30 42 H -2.21196 -1.31135 -0.962348 0
M  V30 43 H -4.57272 -1.99896 -0.875202 0
M  V30 44 H -5.46294 1.11111 1.94188 0
M  V30 45 H -7.2135 -0.76206 -0.222346 0
M  V30 46 H -6.95616 -1.35051 1.42483 0
M  V30 END ATOM
M  V30 BEGIN BOND
M  V30 1 2 1 2
M  V30 2 1 2 3
M  V30 3 1 3 4
M  V30 4 1 4 5
M  V30 5 2 5 6
M  V30 6 1 6 7
M  V30 7 2 7 8
M  V30 8 1 8 9
M  V30 9 2 9 10
M  V30 10 1 4 11
M  V30 11 1 2 12
M  V30 12 1 12 13
M  V30 13 1 13 14
M  V30 14 1 14 15
M  V30 15 1 15 16
M  V30 16 1 16 17
M  V30 17 2 17 18
M  V30 18 1 18 19
M  V30 19 2 19 20
M  V30 20 1 20 21
M  V30 21 2 21 22
M  V30 22 1 21 23
M  V30 23 1 10 5
M  V30 24 1 18 13
M  V30 25 1 22 17
M  V30 26 1 3 24
M  V30 27 1 3 25
M  V30 28 1 4 26
M  V30 29 1 6 27
M  V30 30 1 7 28
M  V30 31 1 8 29
M  V30 32 1 9 30
M  V30 33 1 10 31
M  V30 34 1 11 32
M  V30 35 1 11 33
M  V30 36 1 12 34
M  V30 37 1 13 35
M  V30 38 1 14 36
M  V30 39 1 14 37
M  V30 40 1 15 38
M  V30 41 1 15 39
M  V30 42 1 16 40
M  V30 43 1 16 41
M  V30 44 1 19 42
M  V30 45 1 20 43
M  V30 46 1 22 44
M  V30 47 1 23 45
M  V30 48 1 23 46
M  V30 END BOND
M  V30 END CTAB
M  END
