
     RDKit          3D

  0  0  0  0  0  0  0  0  0  0999 V3000
M  V30 BEGIN CTAB
M  V30 COUNTS 33 32 0 0 0
M  V30 BEGIN ATOM
M  V30 1 O 6.04287 0.365632 -0.819346 0
M  V30 2 C 5.0614 -0.379479 -0.196937 0
M  V30 3 O 5.33071 -1.46859 0.341591 0
M  V30 4 C 3.67564 0.12878 -0.174573 0
M  V30 5 C 2.7851 -0.955572 -0.734365 0
M  V30 6 C 1.34251 -0.590385 -0.780675 0
M  V30 7 C 0.769195 -0.288957 0.5794 0
M  V30 8 C -0.669008 0.0791454 0.54226 0
M  V30 9 C -0.976163 1.30026 -0.265711 0
M  V30 10 C -2.4711 1.53567 -0.217508 0
M  V30 11 N -3.24247 0.455694 -0.742978 0
M  V30 12 C -4.0642 -0.247574 -0.0502147 0
M  V30 13 N -4.80326 -1.30405 -0.606685 0
M  V30 14 N -4.2213 0.063511 1.32399 0
M  V30 15 H 5.77189 0.89491 -1.64994 0
M  V30 16 H 3.59971 1.07538 -0.704527 0
M  V30 17 H 3.42955 0.320872 0.910757 0
M  V30 18 H 3.17572 -1.15005 -1.77372 0
M  V30 19 H 3.00864 -1.88928 -0.184288 0
M  V30 20 H 1.21658 0.249006 -1.49309 0
M  V30 21 H 0.776446 -1.44693 -1.20795 0
M  V30 22 H 1.38358 0.465505 1.08696 0
M  V30 23 H 0.850919 -1.24079 1.17632 0
M  V30 24 H -0.988245 0.295161 1.60014 0
M  V30 25 H -1.33272 -0.742824 0.206476 0
M  V30 26 H -0.672332 1.19009 -1.33069 0
M  V30 27 H -0.499076 2.22667 0.105814 0
M  V30 28 H -2.80545 1.72701 0.838094 0
M  V30 29 H -2.75056 2.47732 -0.762712 0
M  V30 30 H -5.77288 -1.52168 -0.297114 0
M  V30 31 H -4.42156 -1.92093 -1.3567 0
M  V30 32 H -4.61016 0.954335 1.6776 0
M  V30 33 H -3.91997 -0.657862 2.01368 0
M  V30 END ATOM
M  V30 BEGIN BOND
M  V30 1 1 1 2
M  V30 2 2 2 3
M  V30 3 1 2 4
M  V30 4 1 4 5
M  V30 5 1 5 6
M  V30 6 1 6 7
M  V30 7 1 7 8
M  V30 8 1 8 9
M  V30 9 1 9 10
M  V30 10 1 10 11
M  V30 11 2 11 12 CFG=2
M  V30 12 1 12 13
M  V30 13 1 12 14
M  V30 14 1 1 15
M  V30 15 1 4 16
M  V30 16 1 4 17
M  V30 17 1 5 18
M  V30 18 1 5 19
M  V30 19 1 6 20
M  V30 20 1 6 21
M  V30 21 1 7 22
M  V30 22 1 7 23
M  V30 23 1 8 24
M  V30 24 1 8 25
M  V30 25 1 9 26
M  V30 26 1 9 27
M  V30 27 1 10 28
M  V30 28 1 10 29
M  V30 29 1 13 30
M  V30 30 1 13 31
M  V30 31 1 14 32
M  V30 32 1 14 33
M  V30 END BOND
M  V30 END CTAB
M  END
