
     RDKit          3D

  0  0  0  0  0  0  0  0  0  0999 V3000
M  V30 BEGIN CTAB
M  V30 COUNTS 22 22 0 0 0
M  V30 BEGIN ATOM
M  V30 1 N -0.945034 -1.24436 0.655644 0
M  V30 2 C -0.960432 0.000437377 -0.0274814 0 CFG=1
M  V30 3 C -2.31914 0.672862 0.138539 0
M  V30 4 N -3.34927 -0.190451 -0.413041 0
M  V30 5 C 0.0968229 0.938416 0.515851 0
M  V30 6 C 1.44543 0.366192 0.368526 0
M  V30 7 C 2.29265 0.516626 -0.705438 0
M  V30 8 N 3.42728 -0.158097 -0.457356 0
M  V30 9 C 3.31888 -0.732383 0.748322 0
M  V30 10 N 2.09371 -0.400607 1.24413 0
M  V30 11 H -0.694492 -2.05962 0.131386 0
M  V30 12 H -1.61322 -1.39246 1.37968 0
M  V30 13 H -0.833212 -0.192485 -1.1081 0
M  V30 14 H -2.33423 1.67776 -0.306772 0
M  V30 15 H -2.54465 0.79238 1.22092 0
M  V30 16 H -3.09955 -1.19135 -0.351646 0
M  V30 17 H -4.27852 0.0180285 -0.00966575 0
M  V30 18 H -0.176622 1.15942 1.56107 0
M  V30 19 H 0.00949114 1.90871 -0.0335066 0
M  V30 20 H 2.12389 1.07187 -1.61784 0
M  V30 21 H 4.24387 -0.223625 -1.08731 0
M  V30 22 H 4.09636 -1.33727 1.19263 0
M  V30 END ATOM
M  V30 BEGIN BOND
M  V30 1 1 1 2
M  V30 2 1 2 3
M  V30 3 1 3 4
M  V30 4 1 2 5
M  V30 5 1 5 6
M  V30 6 2 6 7
M  V30 7 1 7 8
M  V30 8 1 8 9
M  V30 9 2 9 10
M  V30 10 1 10 6
M  V30 11 1 1 11
M  V30 12 1 1 12
M  V30 13 1 2 13 CFG=3
M  V30 14 1 3 14
M  V30 15 1 3 15
M  V30 16 1 4 16
M  V30 17 1 4 17
M  V30 18 1 5 18
M  V30 19 1 5 19
M  V30 20 1 7 20
M  V30 21 1 8 21
M  V30 22 1 9 22
M  V30 END BOND
M  V30 END CTAB
M  END
