
     RDKit          3D

  0  0  0  0  0  0  0  0  0  0999 V3000
M  V30 BEGIN CTAB
M  V30 COUNTS 29 29 0 0 0
M  V30 BEGIN ATOM
M  V30 1 O -2.29964 -2.11206 1.33504 0
M  V30 2 C -2.2785 -1.94846 -0.0322374 0
M  V30 3 C -1.48582 -0.74776 -0.482324 0
M  V30 4 C -0.0812153 -0.903267 -0.0207256 0
M  V30 5 N 0.722731 0.285255 -0.139064 0
M  V30 6 C 0.163829 1.61813 -0.178738 0
M  V30 7 C -1.26338 1.6705 -0.60514 0
M  V30 8 C -2.07573 0.54788 0.00380496 0
M  V30 9 O -3.38841 0.69298 -0.460517 0
M  V30 10 C 2.1354 0.152476 -0.221369 0
M  V30 11 N 2.68116 -0.967544 -0.559909 0
M  V30 12 N 4.0565 -1.14463 -0.653764 0
M  V30 13 N 3.01159 1.22101 0.0579361 0
M  V30 14 H -1.8893 -1.38248 1.84546 0
M  V30 15 H -1.76732 -2.84574 -0.460284 0
M  V30 16 H -3.30787 -1.96843 -0.46866 0
M  V30 17 H -1.53287 -0.731425 -1.59319 0
M  V30 18 H 0.395815 -1.70259 -0.654236 0
M  V30 19 H -0.0208663 -1.30333 1.02342 0
M  V30 20 H 0.306173 2.04785 0.854552 0
M  V30 21 H 0.808362 2.21023 -0.884533 0
M  V30 22 H -1.32095 1.5744 -1.70901 0
M  V30 23 H -1.70668 2.63658 -0.266552 0
M  V30 24 H -2.0162 0.654581 1.10599 0
M  V30 25 H -3.64819 1.64004 -0.257177 0
M  V30 26 H 4.49289 -1.35636 -1.56458 0
M  V30 27 H 4.64319 -1.06382 0.191941 0
M  V30 28 H 3.25033 1.47256 1.02508 0
M  V30 29 H 3.41498 1.75342 -0.724106 0
M  V30 END ATOM
M  V30 BEGIN BOND
M  V30 1 1 1 2
M  V30 2 1 2 3
M  V30 3 1 3 4
M  V30 4 1 4 5
M  V30 5 1 5 6
M  V30 6 1 6 7
M  V30 7 1 7 8
M  V30 8 1 8 9
M  V30 9 1 5 10
M  V30 10 2 10 11 CFG=2
M  V30 11 1 11 12
M  V30 12 1 10 13
M  V30 13 1 8 3
M  V30 14 1 1 14
M  V30 15 1 2 15
M  V30 16 1 2 16
M  V30 17 1 3 17
M  V30 18 1 4 18
M  V30 19 1 4 19
M  V30 20 1 6 20
M  V30 21 1 6 21
M  V30 22 1 7 22
M  V30 23 1 7 23
M  V30 24 1 8 24
M  V30 25 1 9 25
M  V30 26 1 12 26
M  V30 27 1 12 27
M  V30 28 1 13 28
M  V30 29 1 13 29
M  V30 END BOND
M  V30 END CTAB
M  END
