
     RDKit          3D

  0  0  0  0  0  0  0  0  0  0999 V3000
M  V30 BEGIN CTAB
M  V30 COUNTS 31 33 0 0 0
M  V30 BEGIN ATOM
M  V30 1 N 4.25127 -0.620219 -1.66517 0
M  V30 2 C 3.22056 -0.280857 -0.740058 0
M  V30 3 C 1.90977 -0.583492 -1.1019 0
M  V30 4 C 0.850435 -0.270792 -0.225284 0
M  V30 5 N 1.25406 0.305547 0.897672 0
M  V30 6 C 2.48713 0.609651 1.27801 0
M  V30 7 N 2.77032 1.24227 2.54395 0
M  V30 8 N 3.48688 0.306237 0.434687 0 CHG=1
M  V30 9 O 4.79231 0.591196 0.760603 0 CHG=-1
M  V30 10 C -0.478799 -0.574527 -0.656778 0
M  V30 11 C -1.59449 0.0397033 -0.139738 0
M  V30 12 C -1.55056 0.993761 0.847313 0
M  V30 13 C -2.67406 1.62647 1.36592 0
M  V30 14 C -3.89607 1.30494 0.889803 0
M  V30 15 C -3.99534 0.356324 -0.0996273 0
M  V30 16 C -2.8766 -0.266365 -0.608373 0
M  V30 17 C -3.01904 -1.19944 -1.60747 0
M  V30 18 C -1.93746 -1.83752 -2.15561 0
M  V30 19 C -0.701686 -1.51297 -1.67094 0
M  V30 20 H 4.18964 -1.55213 -2.12668 0
M  V30 21 H 5.04288 -0.0131981 -1.90475 0
M  V30 22 H 1.73634 -1.04046 -2.05334 0
M  V30 23 H 2.54385 0.704622 3.40951 0
M  V30 24 H 3.17762 2.18341 2.51521 0
M  V30 25 H -0.605549 1.30456 1.25576 0
M  V30 26 H -2.60612 2.37767 2.14785 0
M  V30 27 H -4.81392 1.76363 1.25384 0
M  V30 28 H -4.96404 0.0612868 -0.518798 0
M  V30 29 H -4.01946 -1.43444 -1.96959 0
M  V30 30 H -2.11778 -2.55937 -2.93754 0
M  V30 31 H 0.137906 -2.02549 -2.09225 0
M  V30 END ATOM
M  V30 BEGIN BOND
M  V30 1 1 1 2
M  V30 2 2 2 3
M  V30 3 1 3 4
M  V30 4 2 4 5
M  V30 5 1 5 6
M  V30 6 1 6 7
M  V30 7 2 6 8
M  V30 8 1 8 9
M  V30 9 1 4 10
M  V30 10 1 10 11
M  V30 11 2 11 12
M  V30 12 1 12 13
M  V30 13 2 13 14
M  V30 14 1 14 15
M  V30 15 2 15 16
M  V30 16 1 16 17
M  V30 17 2 17 18
M  V30 18 1 18 19
M  V30 19 1 8 2
M  V30 20 2 19 10
M  V30 21 1 16 11
M  V30 22 1 1 20
M  V30 23 1 1 21
M  V30 24 1 3 22
M  V30 25 1 7 23
M  V30 26 1 7 24
M  V30 27 1 12 25
M  V30 28 1 13 26
M  V30 29 1 14 27
M  V30 30 1 15 28
M  V30 31 1 17 29
M  V30 32 1 18 30
M  V30 33 1 19 31
M  V30 END BOND
M  V30 END CTAB
M  END
