
     RDKit          3D

  0  0  0  0  0  0  0  0  0  0999 V3000
M  V30 BEGIN CTAB
M  V30 COUNTS 45 46 0 0 0
M  V30 BEGIN ATOM
M  V30 1 C 3.00985 -3.38102 -0.746361 0
M  V30 2 C 2.45445 -2.1103 -0.0558338 0
M  V30 3 C 2.93355 -0.896056 -0.775157 0
M  V30 4 C 2.53094 0.409811 -0.234704 0
M  V30 5 N 3.45504 1.08542 0.542388 0
M  V30 6 C 3.26346 2.30591 1.0168 0
M  V30 7 N 4.24254 2.96721 1.81548 0
M  V30 8 N 2.08704 2.89643 0.703536 0
M  V30 9 C 1.14595 2.30939 -0.0385606 0
M  V30 10 N -0.0875182 2.92404 -0.372358 0
M  V30 11 C 1.34946 1.01096 -0.540126 0
M  V30 12 C 0.248972 0.407948 -1.24584 0
M  V30 13 C -0.97673 0.0518156 -0.537671 0
M  V30 14 C -2.201 0.544678 -1.05572 0
M  V30 15 C -3.41789 0.287982 -0.486338 0
M  V30 16 O -4.61218 0.796902 -1.03322 0
M  V30 17 C -4.50877 1.5888 -2.19216 0
M  V30 18 C -3.52214 -0.471694 0.633932 0
M  V30 19 O -4.73493 -0.755646 1.23463 0
M  V30 20 C -2.36013 -0.971075 1.17502 0
M  V30 21 O -2.45091 -1.74835 2.31406 0
M  V30 22 C -1.27565 -2.27673 2.87949 0
M  V30 23 C -1.11196 -0.700717 0.582291 0
M  V30 24 H 2.18044 -3.92348 -1.24915 0
M  V30 25 H 3.42925 -4.05619 0.00259485 0
M  V30 26 H 3.76461 -3.12364 -1.48718 0
M  V30 27 H 1.37376 -2.27627 -0.0431891 0
M  V30 28 H 2.80653 -2.11603 1.02201 0
M  V30 29 H 2.55871 -1.0224 -1.84365 0
M  V30 30 H 4.04897 -0.965155 -0.893862 0
M  V30 31 H 4.18006 2.89359 2.85281 0
M  V30 32 H 5.02656 3.52397 1.42222 0
M  V30 33 H -0.349074 3.32939 -1.27055 0
M  V30 34 H -0.802013 2.9565 0.408434 0
M  V30 35 H 0.644549 -0.502775 -1.82458 0
M  V30 36 H -0.00660328 1.1031 -2.11151 0
M  V30 37 H -2.15236 1.15866 -1.95121 0
M  V30 38 H -3.74481 2.4185 -2.09168 0
M  V30 39 H -5.4598 2.10058 -2.43138 0
M  V30 40 H -4.22283 0.9828 -3.09465 0
M  V30 41 H -5.59842 -0.390585 0.825559 0
M  V30 42 H -0.658092 -1.49203 3.35951 0
M  V30 43 H -1.56991 -3.01583 3.68517 0
M  V30 44 H -0.690881 -2.76787 2.07384 0
M  V30 45 H -0.220092 -1.09052 1.05686 0
M  V30 END ATOM
M  V30 BEGIN BOND
M  V30 1 1 1 2
M  V30 2 1 2 3
M  V30 3 1 3 4
M  V30 4 2 4 5
M  V30 5 1 5 6
M  V30 6 1 6 7
M  V30 7 2 6 8
M  V30 8 1 8 9
M  V30 9 1 9 10
M  V30 10 2 9 11
M  V30 11 1 11 12
M  V30 12 1 12 13
M  V30 13 2 13 14
M  V30 14 1 14 15
M  V30 15 1 15 16
M  V30 16 1 16 17
M  V30 17 2 15 18
M  V30 18 1 18 19
M  V30 19 1 18 20
M  V30 20 1 20 21
M  V30 21 1 21 22
M  V30 22 2 20 23
M  V30 23 1 11 4
M  V30 24 1 23 13
M  V30 25 1 1 24
M  V30 26 1 1 25
M  V30 27 1 1 26
M  V30 28 1 2 27
M  V30 29 1 2 28
M  V30 30 1 3 29
M  V30 31 1 3 30
M  V30 32 1 7 31
M  V30 33 1 7 32
M  V30 34 1 10 33
M  V30 35 1 10 34
M  V30 36 1 12 35
M  V30 37 1 12 36
M  V30 38 1 14 37
M  V30 39 1 17 38
M  V30 40 1 17 39
M  V30 41 1 17 40
M  V30 42 1 19 41
M  V30 43 1 22 42
M  V30 44 1 22 43
M  V30 45 1 22 44
M  V30 46 1 23 45
M  V30 END BOND
M  V30 END CTAB
M  END
