
     RDKit          3D

  0  0  0  0  0  0  0  0  0  0999 V3000
M  V30 BEGIN CTAB
M  V30 COUNTS 41 42 0 0 0
M  V30 BEGIN ATOM
M  V30 1 C 7.22586 -0.565982 0.277244 0
M  V30 2 C 5.85385 -0.852124 -0.270481 0
M  V30 3 C 4.79439 -0.120902 0.558629 0
M  V30 4 C 3.42223 -0.414737 0.000793859 0
M  V30 5 O 2.46991 0.271887 0.784597 0
M  V30 6 C 1.11172 0.168034 0.478277 0
M  V30 7 C 0.705373 -0.612388 -0.598679 0
M  V30 8 C -0.64772 -0.692462 -0.873114 0
M  V30 9 C -1.62311 -0.0456343 -0.144545 0
M  V30 10 C -1.17568 0.715846 0.912672 0
M  V30 11 C 0.180839 0.83161 1.23445 0
M  V30 12 C -3.03725 -0.203017 -0.527224 0
M  V30 13 C -3.84943 -0.865216 0.498879 0
M  V30 14 C -4.73549 -0.291688 1.28484 0
M  V30 15 N -5.49 -0.996409 2.26158 0
M  V30 16 S -5.01381 1.46062 1.12102 0
M  V30 17 C -4.38498 1.89632 -0.489907 0
M  V30 18 C -3.54196 1.06418 -1.05509 0
M  V30 19 C -3.06361 1.48147 -2.37795 0
M  V30 20 N -2.67295 1.79298 -3.42541 0
M  V30 21 N -4.78253 3.08981 -1.12526 0
M  V30 22 C -3.69424 -2.31217 0.705187 0
M  V30 23 N -3.55516 -3.44702 0.877547 0
M  V30 24 H 7.96856 -1.04709 -0.385874 0
M  V30 25 H 7.42719 0.521862 0.322599 0
M  V30 26 H 7.32421 -1.0565 1.26666 0
M  V30 27 H 5.69125 -1.96014 -0.186425 0
M  V30 28 H 5.80608 -0.551589 -1.32147 0
M  V30 29 H 4.8865 -0.441416 1.61007 0
M  V30 30 H 5.05411 0.945177 0.508789 0
M  V30 31 H 3.27054 -1.51895 0.0486672 0
M  V30 32 H 3.37959 -0.139185 -1.05747 0
M  V30 33 H 1.46568 -1.11853 -1.16914 0
M  V30 34 H -0.906865 -1.31644 -1.72598 0
M  V30 35 H -1.87839 1.24535 1.5217 0
M  V30 36 H 0.484869 1.44079 2.07345 0
M  V30 37 H -3.04326 -0.910635 -1.42739 0
M  V30 38 H -6.45529 -0.690714 2.53841 0
M  V30 39 H -5.07918 -1.83571 2.71517 0
M  V30 40 H -4.19486 3.56777 -1.83196 0
M  V30 41 H -5.697 3.51292 -0.882087 0
M  V30 END ATOM
M  V30 BEGIN BOND
M  V30 1 1 1 2
M  V30 2 1 2 3
M  V30 3 1 3 4
M  V30 4 1 4 5
M  V30 5 1 5 6
M  V30 6 2 6 7
M  V30 7 1 7 8
M  V30 8 2 8 9
M  V30 9 1 9 10
M  V30 10 2 10 11
M  V30 11 1 9 12
M  V30 12 1 12 13
M  V30 13 2 13 14
M  V30 14 1 14 15
M  V30 15 1 14 16
M  V30 16 1 16 17
M  V30 17 2 17 18
M  V30 18 1 18 19
M  V30 19 3 19 20
M  V30 20 1 17 21
M  V30 21 1 13 22
M  V30 22 3 22 23
M  V30 23 1 11 6
M  V30 24 1 18 12
M  V30 25 1 1 24
M  V30 26 1 1 25
M  V30 27 1 1 26
M  V30 28 1 2 27
M  V30 29 1 2 28
M  V30 30 1 3 29
M  V30 31 1 3 30
M  V30 32 1 4 31
M  V30 33 1 4 32
M  V30 34 1 7 33
M  V30 35 1 8 34
M  V30 36 1 10 35
M  V30 37 1 11 36
M  V30 38 1 12 37
M  V30 39 1 15 38
M  V30 40 1 15 39
M  V30 41 1 21 40
M  V30 42 1 21 41
M  V30 END BOND
M  V30 END CTAB
M  END
