
     RDKit          3D

  0  0  0  0  0  0  0  0  0  0999 V3000
M  V30 BEGIN CTAB
M  V30 COUNTS 41 42 0 0 0
M  V30 BEGIN ATOM
M  V30 1 O 0.742954 -1.54418 1.25296 0
M  V30 2 C 0.498843 -0.632914 0.442366 0
M  V30 3 C -0.955318 -0.293716 0.19563 0
M  V30 4 S -2.02047 -1.35159 1.19078 0
M  V30 5 C -3.73022 -0.93537 0.885141 0
M  V30 6 N -4.09219 0.0361277 0.0253335 0
M  V30 7 C -5.36756 0.376725 -0.229744 0
M  V30 8 N -5.68199 1.42785 -1.16315 0
M  V30 9 C -6.38413 -0.295212 0.416091 0
M  V30 10 C -6.00233 -1.2968 1.30218 0
M  V30 11 N -4.71185 -1.59851 1.52164 0
M  V30 12 N -7.05483 -1.98213 1.96151 0
M  V30 13 C -1.16419 1.14292 0.548113 0
M  V30 14 N 1.49469 0.0646516 -0.225835 0
M  V30 15 C 2.90192 -0.0903216 -0.143053 0
M  V30 16 C 3.55459 -0.999247 0.649098 0
M  V30 17 C 4.95596 -1.08103 0.666229 0
M  V30 18 C 5.74424 -0.263161 -0.102029 0
M  V30 19 C 5.09974 0.652945 -0.900973 0
M  V30 20 C 3.72969 0.737113 -0.921519 0
M  V30 21 C 3.06481 1.74057 -1.79834 0
M  V30 22 C 7.22858 -0.368804 -0.0667541 0
M  V30 23 H -1.13683 -0.533791 -0.868242 0
M  V30 24 H -5.16919 1.55424 -2.05293 0
M  V30 25 H -6.44738 2.09474 -0.956204 0
M  V30 26 H -7.42911 -0.0651935 0.251248 0
M  V30 27 H -6.93249 -2.19473 2.97266 0
M  V30 28 H -7.92427 -2.2694 1.46825 0
M  V30 29 H -1.86156 1.23034 1.42337 0
M  V30 30 H -0.219585 1.63873 0.875151 0
M  V30 31 H -1.54668 1.73746 -0.318061 0
M  V30 32 H 1.13322 0.830648 -0.900885 0
M  V30 33 H 2.99687 -1.66869 1.27439 0
M  V30 34 H 5.44103 -1.81085 1.30386 0
M  V30 35 H 5.72947 1.30422 -1.51282 0
M  V30 36 H 2.48273 2.41096 -1.14031 0
M  V30 37 H 2.3876 1.14863 -2.47781 0
M  V30 38 H 3.82156 2.26421 -2.40882 0
M  V30 39 H 7.60817 -0.20543 0.973618 0
M  V30 40 H 7.63974 0.438169 -0.710238 0
M  V30 41 H 7.57576 -1.35019 -0.468752 0
M  V30 END ATOM
M  V30 BEGIN BOND
M  V30 1 2 1 2
M  V30 2 1 2 3
M  V30 3 1 3 4
M  V30 4 1 4 5
M  V30 5 2 5 6
M  V30 6 1 6 7
M  V30 7 1 7 8
M  V30 8 2 7 9
M  V30 9 1 9 10
M  V30 10 2 10 11
M  V30 11 1 10 12
M  V30 12 1 3 13
M  V30 13 1 2 14
M  V30 14 1 14 15
M  V30 15 2 15 16
M  V30 16 1 16 17
M  V30 17 2 17 18
M  V30 18 1 18 19
M  V30 19 2 19 20
M  V30 20 1 20 21
M  V30 21 1 18 22
M  V30 22 1 11 5
M  V30 23 1 20 15
M  V30 24 1 3 23
M  V30 25 1 8 24
M  V30 26 1 8 25
M  V30 27 1 9 26
M  V30 28 1 12 27
M  V30 29 1 12 28
M  V30 30 1 13 29
M  V30 31 1 13 30
M  V30 32 1 13 31
M  V30 33 1 14 32
M  V30 34 1 16 33
M  V30 35 1 17 34
M  V30 36 1 19 35
M  V30 37 1 21 36
M  V30 38 1 21 37
M  V30 39 1 21 38
M  V30 40 1 22 39
M  V30 41 1 22 40
M  V30 42 1 22 41
M  V30 END BOND
M  V30 END CTAB
M  END
