
     RDKit          3D

  0  0  0  0  0  0  0  0  0  0999 V3000
M  V30 BEGIN CTAB
M  V30 COUNTS 43 45 0 0 0
M  V30 BEGIN ATOM
M  V30 1 Cl -4.00792 -4.41585 -1.51581 0
M  V30 2 C -4.55971 -3.09544 -0.474776 0
M  V30 3 C -3.997 -1.75524 -0.931372 0
M  V30 4 O -4.45135 -0.752776 -0.0952613 0
M  V30 5 C -3.40745 0.0948103 0.208134 0
M  V30 6 C -2.18595 -0.450223 -0.194815 0
M  V30 7 C -2.47125 -1.73689 -0.831464 0
M  V30 8 C -1.06729 0.347388 0.0802461 0
M  V30 9 C 0.178727 -0.107168 -0.279365 0
M  V30 10 C 0.334467 -1.4162 -0.84403 0
M  V30 11 N 0.500702 -2.51111 -1.28544 0
M  V30 12 C 1.30646 0.64885 -0.0344281 0
M  V30 13 N 1.087 1.86369 0.588794 0
M  V30 14 C -0.0834489 2.34731 0.957408 0
M  V30 15 C -1.22397 1.59453 0.712245 0
M  V30 16 C -2.46482 2.05603 1.07494 0
M  V30 17 N -3.51426 1.29471 0.813129 0
M  V30 18 N -2.57651 3.31621 1.70924 0
M  V30 19 N -0.224214 3.60988 1.59391 0
M  V30 20 N 2.64422 0.370717 -0.392396 0
M  V30 21 C 3.64598 0.870476 0.57498 0
M  V30 22 C 4.45194 -0.161747 1.23764 0
M  V30 23 C 3.07389 -0.21026 -1.61451 0
M  V30 24 C 3.86851 -1.50678 -1.47639 0
M  V30 25 H -5.66373 -3.05622 -0.448605 0
M  V30 26 H -4.23128 -3.31604 0.571161 0
M  V30 27 H -4.36225 -1.6036 -1.96674 0
M  V30 28 H -2.22947 -2.6197 -0.2381 0
M  V30 29 H -2.1645 -1.7702 -1.90412 0
M  V30 30 H -2.53539 3.43952 2.75345 0
M  V30 31 H -2.71168 4.17787 1.14137 0
M  V30 32 H -0.1858 3.70103 2.6188 0
M  V30 33 H -0.360308 4.4459 1.00577 0
M  V30 34 H 3.19387 1.57268 1.27371 0
M  V30 35 H 4.35274 1.4956 -0.0522041 0
M  V30 36 H 5.26066 -0.635901 0.703804 0
M  V30 37 H 4.91213 0.228262 2.19863 0
M  V30 38 H 3.75705 -0.965037 1.62692 0
M  V30 39 H 3.745 0.543335 -2.18604 0
M  V30 40 H 2.28169 -0.402199 -2.34997 0
M  V30 41 H 4.96171 -1.32576 -1.54698 0
M  V30 42 H 3.56149 -2.23979 -2.26251 0
M  V30 43 H 3.56131 -1.96464 -0.518941 0
M  V30 END ATOM
M  V30 BEGIN BOND
M  V30 1 1 1 2
M  V30 2 1 2 3
M  V30 3 1 3 4
M  V30 4 1 4 5
M  V30 5 2 5 6
M  V30 6 1 6 7
M  V30 7 1 6 8
M  V30 8 2 8 9
M  V30 9 1 9 10
M  V30 10 3 10 11
M  V30 11 1 9 12
M  V30 12 2 12 13
M  V30 13 1 13 14
M  V30 14 2 14 15
M  V30 15 1 15 16
M  V30 16 2 16 17
M  V30 17 1 16 18
M  V30 18 1 14 19
M  V30 19 1 12 20
M  V30 20 1 20 21
M  V30 21 1 21 22
M  V30 22 1 20 23
M  V30 23 1 23 24
M  V30 24 1 7 3
M  V30 25 1 15 8
M  V30 26 1 17 5
M  V30 27 1 2 25
M  V30 28 1 2 26
M  V30 29 1 3 27
M  V30 30 1 7 28
M  V30 31 1 7 29
M  V30 32 1 18 30
M  V30 33 1 18 31
M  V30 34 1 19 32
M  V30 35 1 19 33
M  V30 36 1 21 34
M  V30 37 1 21 35
M  V30 38 1 22 36
M  V30 39 1 22 37
M  V30 40 1 22 38
M  V30 41 1 23 39
M  V30 42 1 23 40
M  V30 43 1 24 41
M  V30 44 1 24 42
M  V30 45 1 24 43
M  V30 END BOND
M  V30 END CTAB
M  END
