
     RDKit          3D

  0  0  0  0  0  0  0  0  0  0999 V3000
M  V30 BEGIN CTAB
M  V30 COUNTS 24 24 0 0 0
M  V30 BEGIN ATOM
M  V30 1 C -1.33102 2.15687 -1.43874 0
M  V30 2 C -1.55427 0.916413 -0.635208 0
M  V30 3 C -2.85744 0.504038 -0.402615 0
M  V30 4 C -3.05514 -0.641779 0.339805 0
M  V30 5 C -1.98828 -1.3559 0.835923 0
M  V30 6 C -0.691644 -0.928377 0.593259 0
M  V30 7 C -0.463445 0.223276 -0.152104 0
M  V30 8 N 0.869602 0.654521 -0.396066 0
M  V30 9 C 1.9592 -0.0859414 0.117526 0
M  V30 10 N 2.27822 -1.21125 -0.411058 0
M  V30 11 N 3.36187 -1.97534 0.0790586 0
M  V30 12 N 2.72131 0.383424 1.21464 0
M  V30 13 Cl -2.28748 -2.80918 1.77621 0
M  V30 14 H -0.515287 2.02829 -2.18322 0
M  V30 15 H -1.15536 3.03763 -0.784239 0
M  V30 16 H -2.24706 2.37135 -2.02712 0
M  V30 17 H -3.71739 1.04378 -0.779109 0
M  V30 18 H -4.05987 -1.00865 0.551101 0
M  V30 19 H 0.116979 -1.5212 1.00294 0
M  V30 20 H 1.03157 1.51889 -0.95539 0
M  V30 21 H 3.34911 -2.37634 1.03486 0
M  V30 22 H 4.16756 -2.11449 -0.562602 0
M  V30 23 H 3.43186 1.13948 0.993148 0
M  V30 24 H 2.6364 0.0504806 2.189 0
M  V30 END ATOM
M  V30 BEGIN BOND
M  V30 1 1 1 2
M  V30 2 2 2 3
M  V30 3 1 3 4
M  V30 4 2 4 5
M  V30 5 1 5 6
M  V30 6 2 6 7
M  V30 7 1 7 8
M  V30 8 1 8 9
M  V30 9 2 9 10
M  V30 10 1 10 11
M  V30 11 1 9 12
M  V30 12 1 5 13
M  V30 13 1 7 2
M  V30 14 1 1 14
M  V30 15 1 1 15
M  V30 16 1 1 16
M  V30 17 1 3 17
M  V30 18 1 4 18
M  V30 19 1 6 19
M  V30 20 1 8 20
M  V30 21 1 11 21
M  V30 22 1 11 22
M  V30 23 1 12 23
M  V30 24 1 12 24
M  V30 END BOND
M  V30 END CTAB
M  END
