
     RDKit          3D

  0  0  0  0  0  0  0  0  0  0999 V3000
M  V30 BEGIN CTAB
M  V30 COUNTS 19 19 0 0 0
M  V30 BEGIN ATOM
M  V30 1 C -2.60661 0.144647 0.452651 0
M  V30 2 C -1.78411 0.222883 -0.818163 0
M  V30 3 N -0.502346 -0.397611 -0.703391 0
M  V30 4 N -0.146495 -1.65835 -0.952048 0
M  V30 5 C 1.17169 -1.82331 -0.712125 0
M  V30 6 C 1.67484 -0.611389 -0.292004 0
M  V30 7 N 3.02394 -0.342743 0.0662457 0
M  V30 8 C 0.607711 0.259388 -0.296234 0
M  V30 9 N 0.711045 1.63093 0.0794017 0
M  V30 10 H -3.48422 0.809209 0.303164 0
M  V30 11 H -1.97224 0.460232 1.29622 0
M  V30 12 H -3.01257 -0.880656 0.567163 0
M  V30 13 H -2.35847 -0.230304 -1.67716 0
M  V30 14 H -1.65254 1.28776 -1.09729 0
M  V30 15 H 1.76503 -2.73275 -0.819355 0
M  V30 16 H 3.80754 -0.934368 -0.22906 0
M  V30 17 H 3.26163 0.496675 0.66265 0
M  V30 18 H 0.843632 2.39473 -0.598309 0
M  V30 19 H 0.652542 1.90502 1.08999 0
M  V30 END ATOM
M  V30 BEGIN BOND
M  V30 1 1 1 2
M  V30 2 1 2 3
M  V30 3 1 3 4
M  V30 4 2 4 5
M  V30 5 1 5 6
M  V30 6 1 6 7
M  V30 7 2 6 8
M  V30 8 1 8 9
M  V30 9 1 8 3
M  V30 10 1 1 10
M  V30 11 1 1 11
M  V30 12 1 1 12
M  V30 13 1 2 13
M  V30 14 1 2 14
M  V30 15 1 5 15
M  V30 16 1 7 16
M  V30 17 1 7 17
M  V30 18 1 9 18
M  V30 19 1 9 19
M  V30 END BOND
M  V30 END CTAB
M  END
