
     RDKit          3D

  0  0  0  0  0  0  0  0  0  0999 V3000
M  V30 BEGIN CTAB
M  V30 COUNTS 36 37 0 0 0
M  V30 BEGIN ATOM
M  V30 1 N -3.8785 1.17305 -0.543549 0
M  V30 2 C -3.34156 1.48198 0.728085 0
M  V30 3 C -2.8567 0.219321 1.4046 0
M  V30 4 N -1.84876 -0.471726 0.689268 0
M  V30 5 C -2.23578 -1.07638 -0.53857 0
M  V30 6 C -1.28488 -2.26127 -0.743269 0
M  V30 7 C 0.0922321 -1.65473 -0.948015 0
M  V30 8 C 0.461682 -0.844858 0.273203 0 CFG=2
M  V30 9 C -0.598016 0.215311 0.57063 0
M  V30 10 C 1.761 -0.188182 0.106556 0
M  V30 11 C 2.82649 -0.502133 0.946571 0
M  V30 12 C 4.05675 0.112666 0.796149 0
M  V30 13 C 4.22659 1.05708 -0.209865 0
M  V30 14 N 3.17146 1.34402 -1.01504 0
M  V30 15 C 1.98673 0.754639 -0.872797 0
M  V30 16 N 5.47332 1.69625 -0.384865 0
M  V30 17 H -3.56624 1.66562 -1.34623 0
M  V30 18 H -4.68125 0.596082 -0.575002 0
M  V30 19 H -4.11538 1.96388 1.3569 0
M  V30 20 H -2.48403 2.18053 0.64306 0
M  V30 21 H -3.72356 -0.465556 1.53882 0
M  V30 22 H -2.44961 0.473181 2.41384 0
M  V30 23 H -1.99456 -0.383558 -1.39647 0
M  V30 24 H -3.27116 -1.44045 -0.564261 0
M  V30 25 H -1.58473 -2.89229 -1.58432 0
M  V30 26 H -1.22932 -2.82357 0.232363 0
M  V30 27 H 0.103771 -0.997428 -1.82423 0
M  V30 28 H 0.830125 -2.46316 -1.04506 0
M  V30 29 H 0.507868 -1.54237 1.1312 0
M  V30 30 H -0.567172 0.910308 -0.304216 0
M  V30 31 H -0.324692 0.687191 1.51714 0
M  V30 32 H 2.65566 -1.24963 1.72711 0
M  V30 33 H 4.89184 -0.132078 1.45421 0
M  V30 34 H 1.14644 1.00522 -1.53671 0
M  V30 35 H 6.01711 1.97388 0.446788 0
M  V30 36 H 5.82681 1.87915 -1.32414 0
M  V30 END ATOM
M  V30 BEGIN BOND
M  V30 1 1 1 2
M  V30 2 1 2 3
M  V30 3 1 3 4
M  V30 4 1 4 5
M  V30 5 1 5 6
M  V30 6 1 6 7
M  V30 7 1 7 8
M  V30 8 1 8 9
M  V30 9 1 8 10
M  V30 10 2 10 11
M  V30 11 1 11 12
M  V30 12 2 12 13
M  V30 13 1 13 14
M  V30 14 2 14 15
M  V30 15 1 13 16
M  V30 16 1 9 4
M  V30 17 1 15 10
M  V30 18 1 1 17
M  V30 19 1 1 18
M  V30 20 1 2 19
M  V30 21 1 2 20
M  V30 22 1 3 21
M  V30 23 1 3 22
M  V30 24 1 5 23
M  V30 25 1 5 24
M  V30 26 1 6 25
M  V30 27 1 6 26
M  V30 28 1 7 27
M  V30 29 1 7 28
M  V30 30 1 8 29 CFG=1
M  V30 31 1 9 30
M  V30 32 1 9 31
M  V30 33 1 11 32
M  V30 34 1 12 33
M  V30 35 1 15 34
M  V30 36 1 16 35
M  V30 37 1 16 36
M  V30 END BOND
M  V30 END CTAB
M  END
