
     RDKit          3D

  0  0  0  0  0  0  0  0  0  0999 V3000
M  V30 BEGIN CTAB
M  V30 COUNTS 27 28 0 0 0
M  V30 BEGIN ATOM
M  V30 1 F 6.17395 0.204512 1.30598 0
M  V30 2 C 4.91193 0.0331799 0.855735 0
M  V30 3 C 4.33741 -1.22732 0.872406 0
M  V30 4 C 3.04995 -1.37386 0.407785 0
M  V30 5 C 2.33929 -0.292233 -0.0665747 0
M  V30 6 C 2.90299 0.975943 -0.0888224 0
M  V30 7 C 4.19559 1.1197 0.37829 0
M  V30 8 C 0.979656 -0.483016 -0.550479 0
M  V30 9 O 0.454594 -1.6206 -0.53794 0
M  V30 10 O 0.212755 0.565922 -1.04019 0
M  V30 11 N -1.07491 0.319179 -1.48609 0
M  V30 12 C -2.02969 0.315412 -0.617208 0
M  V30 13 C -3.42458 0.0583819 -1.03156 0
M  V30 14 N -3.87807 -0.188979 -2.2628 0
M  V30 15 O -5.15666 -0.356387 -2.18612 0
M  V30 16 N -5.58332 -0.235765 -0.979046 0
M  V30 17 C -4.50851 0.0314449 -0.196792 0
M  V30 18 N -4.47363 0.245427 1.20302 0
M  V30 19 N -1.72172 0.561676 0.7429 0
M  V30 20 H 4.86653 -2.10216 1.23862 0
M  V30 21 H 2.59452 -2.3653 0.419548 0
M  V30 22 H 2.31164 1.79195 -0.467801 0
M  V30 23 H 4.65754 2.11322 0.368631 0
M  V30 24 H -4.60011 -0.594975 1.81118 0
M  V30 25 H -4.32895 1.19467 1.56662 0
M  V30 26 H -1.83516 1.50489 1.16025 0
M  V30 27 H -1.373 -0.194921 1.36332 0
M  V30 END ATOM
M  V30 BEGIN BOND
M  V30 1 1 1 2
M  V30 2 2 2 3
M  V30 3 1 3 4
M  V30 4 2 4 5
M  V30 5 1 5 6
M  V30 6 2 6 7
M  V30 7 1 5 8
M  V30 8 2 8 9
M  V30 9 1 8 10
M  V30 10 1 10 11
M  V30 11 2 11 12
M  V30 12 1 12 13
M  V30 13 2 13 14
M  V30 14 1 14 15
M  V30 15 1 15 16
M  V30 16 2 16 17
M  V30 17 1 17 18
M  V30 18 1 12 19
M  V30 19 1 7 2
M  V30 20 1 17 13
M  V30 21 1 3 20
M  V30 22 1 4 21
M  V30 23 1 6 22
M  V30 24 1 7 23
M  V30 25 1 18 24
M  V30 26 1 18 25
M  V30 27 1 19 26
M  V30 28 1 19 27
M  V30 END BOND
M  V30 END CTAB
M  END
