
     RDKit          3D

  0  0  0  0  0  0  0  0  0  0999 V3000
M  V30 BEGIN CTAB
M  V30 COUNTS 25 26 0 0 0
M  V30 BEGIN ATOM
M  V30 1 N 3.63476 1.02902 -1.06306 0
M  V30 2 C 3.25427 0.597134 0.263212 0
M  V30 3 C 1.90452 -0.0200771 0.16404 0
M  V30 4 C 1.73647 -1.36123 -0.0823595 0
M  V30 5 C 0.469976 -1.92455 -0.172489 0
M  V30 6 C -0.647947 -1.12481 -0.0119407 0
M  V30 7 C -0.475443 0.214079 0.233991 0
M  V30 8 C 0.789509 0.755854 0.320147 0
M  V30 9 C -1.60181 1.03143 0.397904 0
M  V30 10 C -2.85973 0.494317 0.312539 0
M  V30 11 C -3.04408 -0.869998 0.0620321 0
M  V30 12 C -1.92975 -1.65979 -0.0966439 0
M  V30 13 N -3.98174 1.34353 0.482312 0
M  V30 14 H 3.47495 0.30452 -1.79418 0
M  V30 15 H 4.61333 1.38739 -1.03532 0
M  V30 16 H 3.16275 1.52441 0.883584 0
M  V30 17 H 3.99621 -0.0402115 0.743148 0
M  V30 18 H 2.64272 -1.96489 -0.204237 0
M  V30 19 H 0.359805 -2.97916 -0.3665 0
M  V30 20 H 0.847139 1.83206 0.518742 0
M  V30 21 H -1.45953 2.08293 0.590965 0
M  V30 22 H -4.06196 -1.21555 0.00944918 0
M  V30 23 H -2.06036 -2.72883 -0.293084 0
M  V30 24 H -4.40231 1.80054 -0.335201 0
M  V30 25 H -4.36176 1.49188 1.42464 0
M  V30 END ATOM
M  V30 BEGIN BOND
M  V30 1 1 1 2
M  V30 2 1 2 3
M  V30 3 2 3 4
M  V30 4 1 4 5
M  V30 5 2 5 6
M  V30 6 1 6 7
M  V30 7 2 7 8
M  V30 8 1 7 9
M  V30 9 2 9 10
M  V30 10 1 10 11
M  V30 11 2 11 12
M  V30 12 1 10 13
M  V30 13 1 8 3
M  V30 14 1 12 6
M  V30 15 1 1 14
M  V30 16 1 1 15
M  V30 17 1 2 16
M  V30 18 1 2 17
M  V30 19 1 4 18
M  V30 20 1 5 19
M  V30 21 1 8 20
M  V30 22 1 9 21
M  V30 23 1 11 22
M  V30 24 1 12 23
M  V30 25 1 13 24
M  V30 26 1 13 25
M  V30 END BOND
M  V30 END CTAB
M  END
