
     RDKit          3D

  0  0  0  0  0  0  0  0  0  0999 V3000
M  V30 BEGIN CTAB
M  V30 COUNTS 100 103 0 0 0
M  V30 BEGIN ATOM
M  V30 1 N 1.46782 7.09105 -0.828992 0
M  V30 2 C 0.175956 6.70583 -0.382328 0
M  V30 3 N -0.204947 7.00432 0.814303 0
M  V30 4 N -0.66036 5.99586 -1.28605 0
M  V30 5 C -1.51476 4.91147 -0.860223 0
M  V30 6 C -0.710978 3.69724 -0.428588 0
M  V30 7 C -1.69847 2.63198 -0.00380072 0
M  V30 8 C -0.954444 1.36377 0.443882 0 CFG=1
M  V30 9 N -0.109165 1.76316 1.56605 0
M  V30 10 C 1.03753 1.02809 1.95715 0
M  V30 11 O 1.46019 1.1782 3.13086 0
M  V30 12 C 1.77288 0.0920807 1.07299 0 CFG=1
M  V30 13 C 2.8958 0.797455 0.334503 0
M  V30 14 C 3.89624 1.39666 1.29647 0
M  V30 15 C 4.98982 2.07802 0.508428 0
M  V30 16 N 4.46264 3.1431 -0.329761 0
M  V30 17 C 5.29848 3.91754 -1.16715 0
M  V30 18 N 6.68928 3.92525 -0.903817 0
M  V30 19 N 4.79736 4.58324 -2.12841 0
M  V30 20 N 2.36627 -0.932595 1.88173 0
M  V30 21 C 2.52409 -2.28595 1.52264 0
M  V30 22 O 3.13191 -3.07681 2.33001 0
M  V30 23 C 2.04975 -2.91845 0.275028 0 CFG=1
M  V30 24 C 3.10886 -3.10371 -0.772549 0
M  V30 25 C 4.24641 -3.93389 -0.374697 0
M  V30 26 C 5.34352 -3.33266 0.196113 0
M  V30 27 C 6.45381 -4.06124 0.593772 0
M  V30 28 C 6.41569 -5.41873 0.39409 0
M  V30 29 O 7.50771 -6.19728 0.77694 0
M  V30 30 C 5.32978 -6.0437 -0.174907 0
M  V30 31 C 4.24854 -5.28999 -0.556319 0
M  V30 32 N 1.37532 -4.18491 0.506587 0
M  V30 33 C -0.0446892 -4.31025 0.355638 0
M  V30 34 O -0.545055 -5.45013 0.242558 0
M  V30 35 C -0.90629 -3.069 0.33601 0
M  V30 36 N -1.10975 -2.60218 -0.989593 0
M  V30 37 C -1.74977 -1.45006 -1.45308 0
M  V30 38 O -1.13344 -0.817829 -2.40282 0
M  V30 39 C -3.01949 -0.859511 -1.01761 0 CFG=1
M  V30 40 C -4.05785 -1.98245 -1.11393 0
M  V30 41 C -5.4179 -1.58899 -0.721085 0
M  V30 42 C -5.9466 -1.75567 0.538388 0
M  V30 43 C -7.23902 -1.37103 0.85841 0
M  V30 44 C -7.74086 -1.55225 2.13044 0
M  V30 45 C -9.02887 -1.16845 2.44433 0
M  V30 46 C -9.87219 -0.590774 1.51486 0
M  V30 47 C -9.35772 -0.415461 0.247355 0
M  V30 48 C -8.06295 -0.796875 -0.0832155 0
M  V30 49 C -7.5572 -0.618335 -1.35339 0
M  V30 50 C -6.27174 -1.00263 -1.66548 0
M  V30 51 N -3.01081 -0.195012 0.249231 0
M  V30 52 C -1.92177 0.372501 0.942035 0
M  V30 53 O -1.76343 -0.02765 2.14817 0
M  V30 54 H 1.64808 7.65372 -1.67616 0
M  V30 55 H 2.29928 6.78949 -0.269184 0
M  V30 56 H 0.380562 7.51947 1.49204 0
M  V30 57 H -0.632669 6.29315 -2.28547 0
M  V30 58 H -2.17453 5.26992 -0.0585933 0
M  V30 59 H -2.14851 4.59501 -1.69993 0
M  V30 60 H -0.0522287 3.33449 -1.22348 0
M  V30 61 H -0.0649829 4.00724 0.415912 0
M  V30 62 H -2.29239 3.04865 0.826079 0
M  V30 63 H -2.39414 2.37369 -0.823075 0
M  V30 64 H -0.326613 1.00201 -0.401876 0
M  V30 65 H -0.387398 2.6253 2.08219 0
M  V30 66 H 1.06414 -0.263744 0.326253 0
M  V30 67 H 2.43253 1.54523 -0.311666 0
M  V30 68 H 3.44215 0.0342632 -0.246375 0
M  V30 69 H 4.36749 0.560174 1.85187 0
M  V30 70 H 3.42671 2.1442 1.94597 0
M  V30 71 H 5.80957 2.43922 1.17355 0
M  V30 72 H 5.46266 1.34047 -0.204531 0
M  V30 73 H 3.43079 3.31013 -0.280977 0
M  V30 74 H 7.18482 3.00983 -0.892373 0
M  V30 75 H 7.22523 4.79546 -0.724174 0
M  V30 76 H 3.77899 4.56109 -2.30096 0
M  V30 77 H 2.71781 -0.636439 2.84082 0
M  V30 78 H 1.31528 -2.1941 -0.172134 0
M  V30 79 H 2.59372 -3.63293 -1.63223 0
M  V30 80 H 3.42482 -2.13207 -1.23617 0
M  V30 81 H 5.35487 -2.24449 0.347577 0
M  V30 82 H 7.30867 -3.57588 1.04075 0
M  V30 83 H 8.32986 -5.76669 1.20176 0
M  V30 84 H 5.34269 -7.14069 -0.316689 0
M  V30 85 H 3.37788 -5.74232 -1.00613 0
M  V30 86 H 1.96034 -4.99666 0.786568 0
M  V30 87 H -1.81454 -3.35307 0.89896 0
M  V30 88 H -0.386905 -2.26946 0.934964 0
M  V30 89 H -0.703847 -3.23036 -1.76357 0
M  V30 90 H -3.34303 -0.13507 -1.84225 0
M  V30 91 H -4.02797 -2.43737 -2.13376 0
M  V30 92 H -3.69123 -2.80213 -0.443497 0
M  V30 93 H -5.30126 -2.21317 1.30442 0
M  V30 94 H -7.06612 -2.00961 2.85685 0
M  V30 95 H -9.38622 -1.32955 3.46167 0
M  V30 96 H -10.8841 -0.288994 1.75925 0
M  V30 97 H -9.98752 0.0343853 -0.509378 0
M  V30 98 H -8.21154 -0.168148 -2.08112 0
M  V30 99 H -5.85902 -0.868522 -2.66286 0
M  V30 100 H -3.97734 -0.127536 0.71387 0
M  V30 END ATOM
M  V30 BEGIN BOND
M  V30 1 1 1 2
M  V30 2 2 2 3 CFG=2
M  V30 3 1 2 4
M  V30 4 1 4 5
M  V30 5 1 5 6
M  V30 6 1 6 7
M  V30 7 1 7 8
M  V30 8 1 8 9
M  V30 9 1 9 10
M  V30 10 2 10 11
M  V30 11 1 10 12
M  V30 12 1 12 13
M  V30 13 1 13 14
M  V30 14 1 14 15
M  V30 15 1 15 16
M  V30 16 1 16 17
M  V30 17 1 17 18
M  V30 18 2 17 19 CFG=2
M  V30 19 1 12 20
M  V30 20 1 20 21
M  V30 21 2 21 22
M  V30 22 1 21 23
M  V30 23 1 23 24
M  V30 24 1 24 25
M  V30 25 2 25 26
M  V30 26 1 26 27
M  V30 27 2 27 28
M  V30 28 1 28 29
M  V30 29 1 28 30
M  V30 30 2 30 31
M  V30 31 1 23 32
M  V30 32 1 32 33
M  V30 33 2 33 34
M  V30 34 1 33 35
M  V30 35 1 35 36
M  V30 36 1 36 37
M  V30 37 2 37 38
M  V30 38 1 37 39
M  V30 39 1 39 40
M  V30 40 1 40 41
M  V30 41 2 41 42
M  V30 42 1 42 43
M  V30 43 2 43 44
M  V30 44 1 44 45
M  V30 45 2 45 46
M  V30 46 1 46 47
M  V30 47 2 47 48
M  V30 48 1 48 49
M  V30 49 2 49 50
M  V30 50 1 39 51
M  V30 51 1 51 52
M  V30 52 2 52 53
M  V30 53 1 52 8
M  V30 54 1 31 25
M  V30 55 1 50 41
M  V30 56 1 48 43
M  V30 57 1 1 54
M  V30 58 1 1 55
M  V30 59 1 3 56
M  V30 60 1 4 57
M  V30 61 1 5 58
M  V30 62 1 5 59
M  V30 63 1 6 60
M  V30 64 1 6 61
M  V30 65 1 7 62
M  V30 66 1 7 63
M  V30 67 1 8 64 CFG=3
M  V30 68 1 9 65
M  V30 69 1 12 66 CFG=3
M  V30 70 1 13 67
M  V30 71 1 13 68
M  V30 72 1 14 69
M  V30 73 1 14 70
M  V30 74 1 15 71
M  V30 75 1 15 72
M  V30 76 1 16 73
M  V30 77 1 18 74
M  V30 78 1 18 75
M  V30 79 1 19 76
M  V30 80 1 20 77
M  V30 81 1 23 78 CFG=3
M  V30 82 1 24 79
M  V30 83 1 24 80
M  V30 84 1 26 81
M  V30 85 1 27 82
M  V30 86 1 29 83
M  V30 87 1 30 84
M  V30 88 1 31 85
M  V30 89 1 32 86
M  V30 90 1 35 87
M  V30 91 1 35 88
M  V30 92 1 36 89
M  V30 93 1 39 90 CFG=3
M  V30 94 1 40 91
M  V30 95 1 40 92
M  V30 96 1 42 93
M  V30 97 1 44 94
M  V30 98 1 45 95
M  V30 99 1 46 96
M  V30 100 1 47 97
M  V30 101 1 49 98
M  V30 102 1 50 99
M  V30 103 1 51 100
M  V30 END BOND
M  V30 END CTAB
M  END
