
     RDKit          3D

  0  0  0  0  0  0  0  0  0  0999 V3000
M  V30 BEGIN CTAB
M  V30 COUNTS 49 51 0 0 0
M  V30 BEGIN ATOM
M  V30 1 C -2.79928 1.10569 -2.66429 0
M  V30 2 C -2.49415 1.51567 -1.24088 0
M  V30 3 C -2.91197 2.94183 -0.960796 0
M  V30 4 C -1.01953 1.45816 -1.07423 0
M  V30 5 O -0.187758 2.12502 -1.7103 0
M  V30 6 N -0.704241 0.502874 -0.0570486 0
M  V30 7 C 0.667997 0.190549 0.356597 0
M  V30 8 C 1.21812 -0.92444 -0.481693 0
M  V30 9 C 2.56572 -1.41878 -0.235053 0
M  V30 10 N 3.6971 -0.593039 -0.309475 0
M  V30 11 C 4.94907 -1.35384 -0.488214 0
M  V30 12 C 5.9817 -0.295916 -0.837487 0
M  V30 13 O 6.13515 0.607989 0.175536 0
M  V30 14 C 4.98147 1.289 0.551604 0
M  V30 15 C 3.93351 0.257132 0.850026 0
M  V30 16 C -1.9212 -0.0130374 0.419247 0
M  V30 17 C -2.9832 0.562424 -0.242856 0
M  V30 18 C -4.30048 0.207828 0.0795176 0
M  V30 19 C -4.53172 -0.722497 1.06529 0
M  V30 20 N -5.83204 -1.12952 1.45189 0
M  V30 21 C -3.45603 -1.29097 1.72082 0
M  V30 22 N -3.70332 -2.24308 2.73187 0
M  V30 23 C -2.15198 -0.954286 1.41654 0
M  V30 24 H -3.78552 1.46972 -2.99398 0
M  V30 25 H -2.68526 0.00178366 -2.70831 0
M  V30 26 H -1.97965 1.52443 -3.28721 0
M  V30 27 H -2.49626 3.5775 -1.77377 0
M  V30 28 H -4.01092 3.01829 -0.970727 0
M  V30 29 H -2.4289 3.23214 -0.0170215 0
M  V30 30 H 0.737115 -0.0476987 1.41223 0
M  V30 31 H 1.28533 1.10121 0.0649789 0
M  V30 32 H 0.493683 -1.78995 -0.306523 0
M  V30 33 H 1.01095 -0.721739 -1.59 0
M  V30 34 H 2.74668 -2.3062 -0.910928 0
M  V30 35 H 2.57473 -1.90668 0.791933 0
M  V30 36 H 4.83231 -2.12788 -1.22165 0
M  V30 37 H 5.20058 -1.75855 0.505473 0
M  V30 38 H 6.95394 -0.775443 -1.01874 0
M  V30 39 H 5.63458 0.151411 -1.79425 0
M  V30 40 H 5.24349 1.76038 1.54227 0
M  V30 41 H 4.6891 2.10041 -0.11027 0
M  V30 42 H 3.05553 0.555137 1.35642 0
M  V30 43 H 4.45737 -0.459649 1.57451 0
M  V30 44 H -5.12815 0.661109 -0.443949 0
M  V30 45 H -6.37665 -0.458671 2.0348 0
M  V30 46 H -6.26299 -2.02114 1.1977 0
M  V30 47 H -4.06732 -1.9533 3.65663 0
M  V30 48 H -3.52532 -3.25721 2.56921 0
M  V30 49 H -1.3014 -1.39417 1.92457 0
M  V30 END ATOM
M  V30 BEGIN BOND
M  V30 1 1 1 2
M  V30 2 1 2 3
M  V30 3 1 2 4
M  V30 4 2 4 5
M  V30 5 1 4 6
M  V30 6 1 6 7
M  V30 7 1 7 8
M  V30 8 1 8 9
M  V30 9 1 9 10
M  V30 10 1 10 11
M  V30 11 1 11 12
M  V30 12 1 12 13
M  V30 13 1 13 14
M  V30 14 1 14 15
M  V30 15 1 6 16
M  V30 16 2 16 17
M  V30 17 1 17 18
M  V30 18 2 18 19
M  V30 19 1 19 20
M  V30 20 1 19 21
M  V30 21 1 21 22
M  V30 22 2 21 23
M  V30 23 1 17 2
M  V30 24 1 15 10
M  V30 25 1 23 16
M  V30 26 1 1 24
M  V30 27 1 1 25
M  V30 28 1 1 26
M  V30 29 1 3 27
M  V30 30 1 3 28
M  V30 31 1 3 29
M  V30 32 1 7 30
M  V30 33 1 7 31
M  V30 34 1 8 32
M  V30 35 1 8 33
M  V30 36 1 9 34
M  V30 37 1 9 35
M  V30 38 1 11 36
M  V30 39 1 11 37
M  V30 40 1 12 38
M  V30 41 1 12 39
M  V30 42 1 14 40
M  V30 43 1 14 41
M  V30 44 1 15 42
M  V30 45 1 15 43
M  V30 46 1 18 44
M  V30 47 1 20 45
M  V30 48 1 20 46
M  V30 49 1 22 47
M  V30 50 1 22 48
M  V30 51 1 23 49
M  V30 END BOND
M  V30 END CTAB
M  END
