
     RDKit          3D

  0  0  0  0  0  0  0  0  0  0999 V3000
M  V30 BEGIN CTAB
M  V30 COUNTS 31 33 0 0 0
M  V30 BEGIN ATOM
M  V30 1 N -5.00187 -0.901042 -2.31675 0
M  V30 2 C -4.26069 -0.29081 -1.28501 0
M  V30 3 C -4.91035 0.0545442 -0.107513 0
M  V30 4 C -4.18731 0.65417 0.909238 0
M  V30 5 N -4.90014 0.991471 2.10278 0
M  V30 6 N -2.87534 0.907527 0.780049 0
M  V30 7 C -2.27398 0.561848 -0.371397 0
M  V30 8 N -2.93531 -0.0194127 -1.37896 0
M  V30 9 S -0.523388 0.889479 -0.56861 0
M  V30 10 C 0.405724 -0.545876 0.0311689 0
M  V30 11 C 1.85415 -0.294298 -0.12334 0
M  V30 12 C 2.54549 -0.634846 -1.2658 0
M  V30 13 C 3.91653 -0.374162 -1.35993 0
M  V30 14 C 4.61266 0.220441 -0.335343 0
M  V30 15 C 3.91677 0.559427 0.805835 0
M  V30 16 C 2.55863 0.301674 0.900173 0
M  V30 17 O 4.8581 1.1344 1.65989 0
M  V30 18 C 6.14334 0.700505 1.25217 0
M  V30 19 O 5.9528 0.591048 -0.158711 0
M  V30 20 H -5.05584 -0.498916 -3.27711 0
M  V30 21 H -5.51499 -1.78786 -2.11043 0
M  V30 22 H -5.95383 -0.144923 2.72234e-05 0
M  V30 23 H -4.73561 0.477212 2.99243 0
M  V30 24 H -5.58861 1.75793 2.07903 0
M  V30 25 H 0.114507 -1.47831 -0.536221 0
M  V30 26 H 0.119375 -0.758869 1.08376 0
M  V30 27 H 1.99877 -1.10515 -2.07816 0
M  V30 28 H 4.43579 -0.653274 -2.27227 0
M  V30 29 H 2.03538 0.577836 1.80756 0
M  V30 30 H 6.93785 1.42415 1.51123 0
M  V30 31 H 6.3114 -0.307907 1.63022 0
M  V30 END ATOM
M  V30 BEGIN BOND
M  V30 1 1 1 2
M  V30 2 2 2 3
M  V30 3 1 3 4
M  V30 4 1 4 5
M  V30 5 2 4 6
M  V30 6 1 6 7
M  V30 7 2 7 8
M  V30 8 1 7 9
M  V30 9 1 9 10
M  V30 10 1 10 11
M  V30 11 2 11 12
M  V30 12 1 12 13
M  V30 13 2 13 14
M  V30 14 1 14 15
M  V30 15 2 15 16
M  V30 16 1 15 17
M  V30 17 1 17 18
M  V30 18 1 18 19
M  V30 19 1 8 2
M  V30 20 1 16 11
M  V30 21 1 19 14
M  V30 22 1 1 20
M  V30 23 1 1 21
M  V30 24 1 3 22
M  V30 25 1 5 23
M  V30 26 1 5 24
M  V30 27 1 10 25
M  V30 28 1 10 26
M  V30 29 1 12 27
M  V30 30 1 13 28
M  V30 31 1 16 29
M  V30 32 1 18 30
M  V30 33 1 18 31
M  V30 END BOND
M  V30 END CTAB
M  END
