
     RDKit          3D

  0  0  0  0  0  0  0  0  0  0999 V3000
M  V30 BEGIN CTAB
M  V30 COUNTS 26 26 0 0 0
M  V30 BEGIN ATOM
M  V30 1 C -1.59657 -1.81325 0.554667 0
M  V30 2 C -1.52037 -0.932772 -0.682986 0
M  V30 3 C -0.700997 0.301247 -0.425334 0
M  V30 4 C 0.675307 0.0312108 -0.0746804 0
M  V30 5 C 1.32146 -0.99647 -0.808558 0
M  V30 6 C 2.6566 -1.20548 -0.650477 0
M  V30 7 C 3.4242 -0.430232 0.224599 0
M  V30 8 N 2.78718 0.504599 0.884531 0
M  V30 9 C 1.48455 0.761672 0.781685 0
M  V30 10 N 0.896144 1.7286 1.65087 0
M  V30 11 N -1.36975 1.35399 0.281847 0
M  V30 12 N -2.58951 1.69901 -0.404976 0
M  V30 13 H -2.38033 -1.41305 1.22836 0
M  V30 14 H -0.632759 -1.93684 1.04973 0
M  V30 15 H -1.95121 -2.80788 0.228759 0
M  V30 16 H -2.59622 -0.701548 -0.946871 0
M  V30 17 H -1.1038 -1.52428 -1.49992 0
M  V30 18 H -0.646019 0.772017 -1.51548 0
M  V30 19 H 0.746652 -1.60621 -1.48079 0
M  V30 20 H 3.1785 -1.9805 -1.2043 0
M  V30 21 H 4.48632 -0.625724 0.318779 0
M  V30 22 H 0.34838 1.34412 2.4767 0
M  V30 23 H 0.942217 2.7603 1.57027 0
M  V30 24 H -0.793648 2.24223 0.0201231 0
M  V30 25 H -2.28565 1.77012 -1.42005 0
M  V30 26 H -2.78068 2.70513 -0.156499 0
M  V30 END ATOM
M  V30 BEGIN BOND
M  V30 1 1 1 2
M  V30 2 1 2 3
M  V30 3 1 3 4
M  V30 4 2 4 5
M  V30 5 1 5 6
M  V30 6 2 6 7
M  V30 7 1 7 8
M  V30 8 2 8 9
M  V30 9 1 9 10
M  V30 10 1 3 11
M  V30 11 1 11 12
M  V30 12 1 9 4
M  V30 13 1 1 13
M  V30 14 1 1 14
M  V30 15 1 1 15
M  V30 16 1 2 16
M  V30 17 1 2 17
M  V30 18 1 3 18
M  V30 19 1 5 19
M  V30 20 1 6 20
M  V30 21 1 7 21
M  V30 22 1 10 22
M  V30 23 1 10 23
M  V30 24 1 11 24
M  V30 25 1 12 25
M  V30 26 1 12 26
M  V30 END BOND
M  V30 END CTAB
M  END
