
     RDKit          3D

  0  0  0  0  0  0  0  0  0  0999 V3000
M  V30 BEGIN CTAB
M  V30 COUNTS 18 18 0 0 0
M  V30 BEGIN ATOM
M  V30 1 N -2.94636 -3.20785 -0.207841 0
M  V30 2 C -2.16695 -2.34864 -0.14604 0
M  V30 3 C -1.21248 -1.26964 -0.0831596 0
M  V30 4 C 0.136153 -1.50538 0.117342 0
M  V30 5 C 1.06077 -0.491568 0.18025 0
M  V30 6 N 2.4182 -0.819206 0.38779 0
M  V30 7 C 0.665061 0.812627 0.04308 0
M  V30 8 C -0.673794 1.08165 -0.158186 0
M  V30 9 C -1.58529 0.0492855 -0.21811 0
M  V30 10 N -1.09538 2.42901 -0.301645 0
M  V30 11 O 1.59548 1.874 0.103764 0
M  V30 12 H 0.437441 -2.54612 0.224798 0
M  V30 13 H 2.75326 -1.19187 1.30194 0
M  V30 14 H 3.15639 -0.70777 -0.355789 0
M  V30 15 H -2.65542 0.239533 -0.377421 0
M  V30 16 H -1.8926 2.8574 0.207158 0
M  V30 17 H -0.566522 3.03394 -0.966396 0
M  V30 18 H 2.57204 1.71059 0.248465 0
M  V30 END ATOM
M  V30 BEGIN BOND
M  V30 1 3 1 2
M  V30 2 1 2 3
M  V30 3 2 3 4
M  V30 4 1 4 5
M  V30 5 1 5 6
M  V30 6 2 5 7
M  V30 7 1 7 8
M  V30 8 2 8 9
M  V30 9 1 8 10
M  V30 10 1 7 11
M  V30 11 1 9 3
M  V30 12 1 4 12
M  V30 13 1 6 13
M  V30 14 1 6 14
M  V30 15 1 9 15
M  V30 16 1 10 16
M  V30 17 1 10 17
M  V30 18 1 11 18
M  V30 END BOND
M  V30 END CTAB
M  END
