
     RDKit          3D

  0  0  0  0  0  0  0  0  0  0999 V3000
M  V30 BEGIN CTAB
M  V30 COUNTS 40 41 0 0 0
M  V30 BEGIN ATOM
M  V30 1 C -4.21209 -2.61204 1.01557 0
M  V30 2 O -3.03474 -2.11597 0.461024 0
M  V30 3 C -2.90463 -0.774477 0.165095 0
M  V30 4 C -3.93243 0.0860065 0.412502 0
M  V30 5 C -3.85228 1.42413 0.136713 0
M  V30 6 O -4.91163 2.26832 0.39918 0
M  V30 7 C -6.12896 1.86973 0.951455 0
M  V30 8 C -2.68988 1.90305 -0.407824 0
M  V30 9 C -1.62371 1.03505 -0.668961 0
M  V30 10 C -1.69796 -0.30021 -0.396188 0
M  V30 11 N -0.682542 -1.23631 -0.623071 0
M  V30 12 C 0.576977 -0.971574 -1.15755 0
M  V30 13 O 0.995772 0.125312 -1.51573 0
M  V30 14 C 1.53447 -2.13403 -1.32073 0
M  V30 15 S 3.11508 -1.62509 -1.99739 0
M  V30 16 C 4.04492 -0.577266 -0.906324 0
M  V30 17 N 3.95446 0.765833 -0.892663 0
M  V30 18 C 4.66057 1.55246 -0.0611389 0
M  V30 19 N 4.5738 2.96051 -0.0398878 0
M  V30 20 C 5.54103 0.973238 0.845824 0
M  V30 21 C 5.64421 -0.402969 0.84358 0
M  V30 22 N 4.91441 -1.12359 -0.00813401 0
M  V30 23 N 6.5341 -1.05802 1.75523 0
M  V30 24 Cl -2.53818 3.60713 -0.777324 0
M  V30 25 H -4.02229 -3.6518 1.36583 0
M  V30 26 H -5.07182 -2.66661 0.319894 0
M  V30 27 H -4.53902 -2.04338 1.92054 0
M  V30 28 H -4.84552 -0.336367 0.848057 0
M  V30 29 H -6.47096 0.875115 0.625001 0
M  V30 30 H -6.90831 2.62588 0.710684 0
M  V30 31 H -6.0891 1.84061 2.07492 0
M  V30 32 H -0.753578 1.48565 -1.09388 0
M  V30 33 H -0.868632 -2.25851 -0.369581 0
M  V30 34 H 1.68387 -2.59626 -0.343949 0
M  V30 35 H 1.0725 -2.82349 -2.07005 0
M  V30 36 H 3.65339 3.41865 0.0381311 0
M  V30 37 H 5.43658 3.5223 -0.102804 0
M  V30 38 H 6.11792 1.58754 1.52383 0
M  V30 39 H 6.3828 -2.0535 2.01835 0
M  V30 40 H 7.3414 -0.56503 2.17103 0
M  V30 END ATOM
M  V30 BEGIN BOND
M  V30 1 1 1 2
M  V30 2 1 2 3
M  V30 3 2 3 4
M  V30 4 1 4 5
M  V30 5 1 5 6
M  V30 6 1 6 7
M  V30 7 2 5 8
M  V30 8 1 8 9
M  V30 9 2 9 10
M  V30 10 1 10 11
M  V30 11 1 11 12
M  V30 12 2 12 13
M  V30 13 1 12 14
M  V30 14 1 14 15
M  V30 15 1 15 16
M  V30 16 2 16 17
M  V30 17 1 17 18
M  V30 18 1 18 19
M  V30 19 2 18 20
M  V30 20 1 20 21
M  V30 21 2 21 22
M  V30 22 1 21 23
M  V30 23 1 8 24
M  V30 24 1 10 3
M  V30 25 1 22 16
M  V30 26 1 1 25
M  V30 27 1 1 26
M  V30 28 1 1 27
M  V30 29 1 4 28
M  V30 30 1 7 29
M  V30 31 1 7 30
M  V30 32 1 7 31
M  V30 33 1 9 32
M  V30 34 1 11 33
M  V30 35 1 14 34
M  V30 36 1 14 35
M  V30 37 1 19 36
M  V30 38 1 19 37
M  V30 39 1 20 38
M  V30 40 1 23 39
M  V30 41 1 23 40
M  V30 END BOND
M  V30 END CTAB
M  END
