
     RDKit          3D

  0  0  0  0  0  0  0  0  0  0999 V3000
M  V30 BEGIN CTAB
M  V30 COUNTS 27 26 0 0 0
M  V30 BEGIN ATOM
M  V30 1 N 3.76604 -0.0918195 0.0113484 0
M  V30 2 C 2.81489 -1.10995 0.0482285 0
M  V30 3 C 1.45845 -0.76607 -0.517037 0
M  V30 4 C 0.78882 0.364995 0.17947 0
M  V30 5 C -0.528346 0.663309 -0.424971 0
M  V30 6 C -1.46761 -0.482424 -0.371492 0
M  V30 7 C -2.78856 -0.207276 -0.962151 0
M  V30 8 O -2.92959 0.316239 -2.09366 0
M  V30 9 O -3.94974 -0.520225 -0.281724 0
M  V30 10 N -1.64898 -1.07588 0.9128 0
M  V30 11 C -1.05678 1.94782 0.145321 0
M  V30 12 Cl -1.26199 1.86634 1.91013 0
M  V30 13 H 3.72465 0.658578 0.698511 0
M  V30 14 H 4.31421 0.05591 -0.830307 0
M  V30 15 H 3.18784 -1.98482 -0.537397 0
M  V30 16 H 2.67511 -1.50049 1.09337 0
M  V30 17 H 0.834261 -1.69074 -0.326742 0
M  V30 18 H 1.49335 -0.597098 -1.59444 0
M  V30 19 H 1.40809 1.3038 0.106217 0
M  V30 20 H 0.729453 0.181706 1.28445 0
M  V30 21 H -0.340739 0.877962 -1.51944 0
M  V30 22 H -1.00398 -1.29366 -1.01844 0
M  V30 23 H -4.32149 0.0367741 0.467179 0
M  V30 24 H -1.01031 -0.802383 1.65584 0
M  V30 25 H -2.6332 -1.18724 1.17922 0
M  V30 26 H -1.97268 2.31118 -0.369317 0
M  V30 27 H -0.281182 2.72547 -0.0387352 0
M  V30 END ATOM
M  V30 BEGIN BOND
M  V30 1 1 1 2
M  V30 2 1 2 3
M  V30 3 1 3 4
M  V30 4 1 4 5
M  V30 5 1 5 6
M  V30 6 1 6 7
M  V30 7 2 7 8
M  V30 8 1 7 9
M  V30 9 1 6 10
M  V30 10 1 5 11
M  V30 11 1 11 12
M  V30 12 1 1 13
M  V30 13 1 1 14
M  V30 14 1 2 15
M  V30 15 1 2 16
M  V30 16 1 3 17
M  V30 17 1 3 18
M  V30 18 1 4 19
M  V30 19 1 4 20
M  V30 20 1 5 21
M  V30 21 1 6 22
M  V30 22 1 9 23
M  V30 23 1 10 24
M  V30 24 1 10 25
M  V30 25 1 11 26
M  V30 26 1 11 27
M  V30 END BOND
M  V30 END CTAB
M  END
