
     RDKit          3D

  0  0  0  0  0  0  0  0  0  0999 V3000
M  V30 BEGIN CTAB
M  V30 COUNTS 35 36 0 0 0
M  V30 BEGIN ATOM
M  V30 1 C -3.54765 2.21802 -1.6485 0
M  V30 2 O -4.04274 1.18637 -0.812098 0
M  V30 3 C -3.13252 0.255105 -0.337986 0
M  V30 4 C -1.77518 0.304373 -0.653973 0
M  V30 5 C -0.897979 -0.637069 -0.165783 0
M  V30 6 C 0.51046 -0.543394 -0.523955 0
M  V30 7 N 1.38653 -1.39142 -0.10195 0
M  V30 8 N 2.73658 -1.32301 -0.430068 0
M  V30 9 C 3.4818 -0.295644 -0.18353 0
M  V30 10 C 4.89058 -0.260758 -0.541701 0
M  V30 11 N 5.60929 -1.22254 -1.14775 0
M  V30 12 O 6.82088 -0.784409 -1.27942 0
M  V30 13 N 6.94184 0.412696 -0.79414 0
M  V30 14 C 5.75107 0.789108 -0.315988 0
M  V30 15 N 5.45219 2.04132 0.304335 0
M  V30 16 N 2.87355 0.80451 0.453104 0
M  V30 17 C -1.36657 -1.64275 0.646657 0
M  V30 18 C -2.72751 -1.69708 0.96699 0
M  V30 19 C -3.60454 -0.749676 0.474522 0
M  V30 20 O -4.95825 -0.774335 0.772251 0
M  V30 21 C -5.4337 -1.82631 1.61905 0
M  V30 22 H -2.72535 2.78259 -1.16198 0
M  V30 23 H -4.32911 2.95107 -1.91869 0
M  V30 24 H -3.08098 1.76647 -2.57219 0
M  V30 25 H -1.42384 1.10292 -1.29478 0
M  V30 26 H 0.875443 0.248385 -1.16282 0
M  V30 27 H 5.6886 2.91855 -0.238089 0
M  V30 28 H 5.0255 2.12209 1.23723 0
M  V30 29 H 2.61454 0.763557 1.45655 0
M  V30 30 H 2.67836 1.66959 -0.078781 0
M  V30 31 H -0.655714 -2.36157 1.01091 0
M  V30 32 H -3.07413 -2.48874 1.60192 0
M  V30 33 H -6.48581 -1.69912 1.88195 0
M  V30 34 H -4.85513 -1.84673 2.57498 0
M  V30 35 H -5.22051 -2.79216 1.11256 0
M  V30 END ATOM
M  V30 BEGIN BOND
M  V30 1 1 1 2
M  V30 2 1 2 3
M  V30 3 2 3 4
M  V30 4 1 4 5
M  V30 5 1 5 6
M  V30 6 2 6 7
M  V30 7 1 7 8
M  V30 8 2 8 9
M  V30 9 1 9 10
M  V30 10 2 10 11
M  V30 11 1 11 12
M  V30 12 1 12 13
M  V30 13 2 13 14
M  V30 14 1 14 15
M  V30 15 1 9 16
M  V30 16 2 5 17
M  V30 17 1 17 18
M  V30 18 2 18 19
M  V30 19 1 19 20
M  V30 20 1 20 21
M  V30 21 1 19 3
M  V30 22 1 14 10
M  V30 23 1 1 22
M  V30 24 1 1 23
M  V30 25 1 1 24
M  V30 26 1 4 25
M  V30 27 1 6 26
M  V30 28 1 15 27
M  V30 29 1 15 28
M  V30 30 1 16 29
M  V30 31 1 16 30
M  V30 32 1 17 31
M  V30 33 1 18 32
M  V30 34 1 21 33
M  V30 35 1 21 34
M  V30 36 1 21 35
M  V30 END BOND
M  V30 END CTAB
M  END
