
     RDKit          3D

  0  0  0  0  0  0  0  0  0  0999 V3000
M  V30 BEGIN CTAB
M  V30 COUNTS 22 22 0 0 0
M  V30 BEGIN ATOM
M  V30 1 N -1.59041 1.78611 -0.0383693 0
M  V30 2 C -1.48024 0.39023 0.330203 0
M  V30 3 C -0.306529 -0.270469 -0.397237 0
M  V30 4 C 0.994447 0.373287 -0.0800189 0
M  V30 5 C 1.43839 0.380792 1.37362 0
M  V30 6 C 2.19714 -0.355449 0.314581 0
M  V30 7 N -0.575243 -0.0633823 -1.82612 0
M  V30 8 C -0.377092 -1.73201 -0.134547 0
M  V30 9 H -2.34139 1.95678 -0.753173 0
M  V30 10 H -1.81335 2.30376 0.859857 0
M  V30 11 H -1.43567 0.232366 1.40853 0
M  V30 12 H -2.39352 -0.117813 -0.055857 0
M  V30 13 H 1.17045 1.33251 -0.651059 0
M  V30 14 H 1.7867 1.33575 1.75797 0
M  V30 15 H 0.923173 -0.263208 2.09297 0
M  V30 16 H 3.19855 0.100004 0.090331 0
M  V30 17 H 2.26316 -1.46718 0.334082 0
M  V30 18 H -0.620924 0.979238 -2.01654 0
M  V30 19 H 0.277016 -0.432903 -2.33197 0
M  V30 20 H -0.259831 -2.31513 -1.08731 0
M  V30 21 H 0.348056 -2.12661 0.574541 0
M  V30 22 H -1.40288 -2.02667 0.23551 0
M  V30 END ATOM
M  V30 BEGIN BOND
M  V30 1 1 1 2
M  V30 2 1 2 3
M  V30 3 1 3 4
M  V30 4 1 4 5
M  V30 5 1 5 6
M  V30 6 1 3 7
M  V30 7 1 3 8
M  V30 8 1 6 4
M  V30 9 1 1 9
M  V30 10 1 1 10
M  V30 11 1 2 11
M  V30 12 1 2 12
M  V30 13 1 4 13
M  V30 14 1 5 14
M  V30 15 1 5 15
M  V30 16 1 6 16
M  V30 17 1 6 17
M  V30 18 1 7 18
M  V30 19 1 7 19
M  V30 20 1 8 20
M  V30 21 1 8 21
M  V30 22 1 8 22
M  V30 END BOND
M  V30 END CTAB
M  END
