
     RDKit          3D

  0  0  0  0  0  0  0  0  0  0999 V3000
M  V30 BEGIN CTAB
M  V30 COUNTS 28 29 0 0 0
M  V30 BEGIN ATOM
M  V30 1 N -3.17639 -1.89166 1.07832 0
M  V30 2 C -2.35094 -0.888088 0.518523 0
M  V30 3 C -1.28199 -1.13624 -0.203501 0
M  V30 4 C -0.982141 -2.54983 -0.403559 0
M  V30 5 N -0.733111 -3.6709 -0.545685 0
M  V30 6 C -0.37889 -0.184589 -0.815537 0
M  V30 7 C 0.962525 -0.248756 -0.165527 0
M  V30 8 C 1.14586 0.126847 1.15349 0
M  V30 9 C 2.39076 0.0629293 1.74249 0
M  V30 10 C 3.50823 -0.377689 1.04461 0
M  V30 11 Br 5.23409 -0.47054 1.84758 0
M  V30 12 C 3.334 -0.753479 -0.269202 0
M  V30 13 C 2.09505 -0.685723 -0.84212 0
M  V30 14 C -0.819981 1.19612 -0.944395 0
M  V30 15 C -0.0600246 2.03259 -1.86824 0
M  V30 16 N 0.54013 2.69436 -2.60473 0
M  V30 17 C -1.81218 1.7935 -0.34043 0
M  V30 18 N -2.1475 3.17759 -0.557534 0
M  V30 19 S -2.76672 0.808907 0.795744 0
M  V30 20 H -3.35731 -2.81662 0.662792 0
M  V30 21 H -3.6552 -1.69332 1.9989 0
M  V30 22 H -0.208216 -0.550768 -1.87564 0
M  V30 23 H 0.279885 0.470005 1.69992 0
M  V30 24 H 2.51753 0.360056 2.77425 0
M  V30 25 H 4.21361 -1.09766 -0.810091 0
M  V30 26 H 2.01008 -0.993898 -1.88256 0
M  V30 27 H -2.04357 3.79049 0.29409 0
M  V30 28 H -2.45761 3.49636 -1.48196 0
M  V30 END ATOM
M  V30 BEGIN BOND
M  V30 1 1 1 2
M  V30 2 2 2 3
M  V30 3 1 3 4
M  V30 4 3 4 5
M  V30 5 1 3 6
M  V30 6 1 6 7
M  V30 7 2 7 8
M  V30 8 1 8 9
M  V30 9 2 9 10
M  V30 10 1 10 11
M  V30 11 1 10 12
M  V30 12 2 12 13
M  V30 13 1 6 14
M  V30 14 1 14 15
M  V30 15 3 15 16
M  V30 16 2 14 17
M  V30 17 1 17 18
M  V30 18 1 17 19
M  V30 19 1 19 2
M  V30 20 1 13 7
M  V30 21 1 1 20
M  V30 22 1 1 21
M  V30 23 1 6 22
M  V30 24 1 8 23
M  V30 25 1 9 24
M  V30 26 1 12 25
M  V30 27 1 13 26
M  V30 28 1 18 27
M  V30 29 1 18 28
M  V30 END BOND
M  V30 END CTAB
M  END
