
     RDKit          3D

  0  0  0  0  0  0  0  0  0  0999 V3000
M  V30 BEGIN CTAB
M  V30 COUNTS 51 54 0 0 0
M  V30 BEGIN ATOM
M  V30 1 C -8.87541 -0.0762895 -1.26953 0
M  V30 2 C -8.24672 -1.02592 -0.260758 0 CFG=2
M  V30 3 N -9.15712 -1.40195 0.781659 0
M  V30 4 C -7.0146 -0.391144 0.330328 0
M  V30 5 N -6.98524 0.536683 1.3025 0
M  V30 6 C -5.69677 0.859339 1.56248 0
M  V30 7 C -4.89091 0.112634 0.729406 0
M  V30 8 N -5.73681 -0.632172 -0.000755797 0
M  V30 9 C -3.43507 0.15357 0.683391 0
M  V30 10 C -2.72623 -0.64057 -0.193552 0
M  V30 11 C -1.33895 -0.609225 -0.245525 0
M  V30 12 C -0.614534 0.225703 0.586548 0
M  V30 13 C -1.29037 1.01891 1.4605 0
M  V30 14 C -2.69176 0.973287 1.49834 0
M  V30 15 C 0.826728 0.216118 0.488248 0
M  V30 16 N 1.46439 -0.596256 -0.403526 0
M  V30 17 C 2.79602 -0.64275 -0.533915 0
M  V30 18 C 3.55864 0.161717 0.263763 0
M  V30 19 C 2.94829 0.991385 1.17202 0
M  V30 20 C 1.57264 1.03463 1.3017 0
M  V30 21 C 5.01285 0.155441 0.168044 0
M  V30 22 C 5.90548 0.89842 0.893145 0
M  V30 23 N 7.14849 0.612859 0.517207 0
M  V30 24 C 7.03742 -0.319453 -0.454538 0
M  V30 25 N 5.73966 -0.60063 -0.670091 0
M  V30 26 C 8.19221 -0.924025 -1.15992 0 CFG=2
M  V30 27 C 9.44745 -0.107421 -0.932686 0
M  V30 28 N 7.88047 -0.941235 -2.58589 0
M  V30 29 H -9.05111 0.872289 -0.759437 0
M  V30 30 H -9.77631 -0.543412 -1.66949 0
M  V30 31 H -8.08893 0.0871775 -2.05339 0
M  V30 32 H -7.90539 -1.92754 -0.792177 0
M  V30 33 H -8.74571 -1.33675 1.74498 0
M  V30 34 H -9.53398 -2.35557 0.581747 0
M  V30 35 H -5.37692 1.57704 2.29633 0
M  V30 36 H -5.43063 -1.31837 -0.739781 0
M  V30 37 H -3.29815 -1.29095 -0.841235 0
M  V30 38 H -0.78234 -1.22968 -0.93085 0
M  V30 39 H -0.773451 1.6857 2.12878 0
M  V30 40 H -3.22264 1.60284 2.19164 0
M  V30 41 H 3.23312 -1.32434 -1.27613 0
M  V30 42 H 3.55848 1.62759 1.80243 0
M  V30 43 H 1.17292 1.71579 2.04117 0
M  V30 44 H 5.63607 1.60735 1.65375 0
M  V30 45 H 5.34898 -1.28545 -1.36492 0
M  V30 46 H 8.35255 -1.95626 -0.847869 0
M  V30 47 H 9.40486 0.747754 -1.62248 0
M  V30 48 H 9.52451 0.25558 0.113148 0
M  V30 49 H 10.3622 -0.681073 -1.13999 0
M  V30 50 H 7.32919 -0.0621788 -2.76908 0
M  V30 51 H 7.23245 -1.7312 -2.77574 0
M  V30 END ATOM
M  V30 BEGIN BOND
M  V30 1 1 1 2
M  V30 2 1 2 3
M  V30 3 1 2 4
M  V30 4 2 4 5
M  V30 5 1 5 6
M  V30 6 2 6 7
M  V30 7 1 7 8
M  V30 8 1 7 9
M  V30 9 2 9 10
M  V30 10 1 10 11
M  V30 11 2 11 12
M  V30 12 1 12 13
M  V30 13 2 13 14
M  V30 14 1 12 15
M  V30 15 2 15 16
M  V30 16 1 16 17
M  V30 17 2 17 18
M  V30 18 1 18 19
M  V30 19 2 19 20
M  V30 20 1 18 21
M  V30 21 2 21 22
M  V30 22 1 22 23
M  V30 23 2 23 24
M  V30 24 1 24 25
M  V30 25 1 24 26
M  V30 26 1 26 27
M  V30 27 1 26 28
M  V30 28 1 8 4
M  V30 29 1 14 9
M  V30 30 1 20 15
M  V30 31 1 25 21
M  V30 32 1 1 29
M  V30 33 1 1 30
M  V30 34 1 1 31
M  V30 35 1 2 32 CFG=3
M  V30 36 1 3 33
M  V30 37 1 3 34
M  V30 38 1 6 35
M  V30 39 1 8 36
M  V30 40 1 10 37
M  V30 41 1 11 38
M  V30 42 1 13 39
M  V30 43 1 14 40
M  V30 44 1 17 41
M  V30 45 1 19 42
M  V30 46 1 20 43
M  V30 47 1 22 44
M  V30 48 1 25 45
M  V30 49 1 26 46 CFG=1
M  V30 50 1 27 47
M  V30 51 1 27 48
M  V30 52 1 27 49
M  V30 53 1 28 50
M  V30 54 1 28 51
M  V30 END BOND
M  V30 END CTAB
M  END
