
     RDKit          3D

  0  0  0  0  0  0  0  0  0  0999 V3000
M  V30 BEGIN CTAB
M  V30 COUNTS 39 41 0 0 0
M  V30 BEGIN ATOM
M  V30 1 N -5.89162 2.13269 1.40844 0
M  V30 2 C -5.36669 0.93069 0.80553 0
M  V30 3 S -6.19496 -0.463712 0.271025 0
M  V30 4 C -4.85874 -1.3634 -0.288458 0
M  V30 5 C -3.81417 -0.505715 -0.0210817 0
M  V30 6 N -4.11069 0.630776 0.52603 0
M  V30 7 C -2.40584 -0.881013 -0.352106 0
M  V30 8 C -1.97983 -2.05405 -0.930595 0
M  V30 9 C -0.610036 -1.97147 -1.05047 0
M  V30 10 N -0.178469 -0.782878 -0.563339 0
M  V30 11 C -1.26133 -0.140961 -0.149283 0
M  V30 12 C -1.28733 1.22556 0.470663 0
M  V30 13 C 1.15508 -0.306288 -0.501151 0
M  V30 14 C 1.5722 0.78281 -1.23415 0
M  V30 15 C 2.87391 1.24152 -1.16827 0
M  V30 16 C 3.77183 0.592529 -0.350051 0
M  V30 17 C 3.39357 -0.491253 0.391623 0
M  V30 18 C 2.0846 -0.925998 0.304135 0
M  V30 19 S 5.43326 1.16598 -0.256371 0
M  V30 20 O 5.83576 1.78217 -1.55028 0
M  V30 21 O 6.36243 0.0636812 0.0899433 0
M  V30 22 N 5.52227 2.34186 1.02263 0
M  V30 23 C 0.298614 -3.00865 -1.62301 0
M  V30 24 H -6.72749 2.10291 1.9794 0
M  V30 25 H -5.38987 3.01862 1.23946 0
M  V30 26 H -4.7981 -2.36645 -0.748263 0
M  V30 27 H -2.59844 -2.89384 -1.23878 0
M  V30 28 H -1.719 1.1105 1.47403 0
M  V30 29 H -0.246112 1.6168 0.56421 0
M  V30 30 H -1.93618 1.89098 -0.116164 0
M  V30 31 H 0.882121 1.321 -1.89451 0
M  V30 32 H 3.18086 2.11119 -1.76227 0
M  V30 33 H 4.12474 -0.967811 1.01632 0
M  V30 34 H 1.76707 -1.78071 0.882639 0
M  V30 35 H 6.48833 2.63368 1.2098 0
M  V30 36 H 5.03851 2.02645 1.86961 0
M  V30 37 H -0.214925 -3.67458 -2.3321 0
M  V30 38 H 1.17086 -2.5019 -2.08399 0
M  V30 39 H 0.633776 -3.64172 -0.765383 0
M  V30 END ATOM
M  V30 BEGIN BOND
M  V30 1 1 1 2
M  V30 2 1 2 3
M  V30 3 1 3 4
M  V30 4 2 4 5
M  V30 5 1 5 6
M  V30 6 1 5 7
M  V30 7 1 7 8
M  V30 8 2 8 9
M  V30 9 1 9 10
M  V30 10 1 10 11
M  V30 11 1 11 12
M  V30 12 1 10 13
M  V30 13 2 13 14
M  V30 14 1 14 15
M  V30 15 2 15 16
M  V30 16 1 16 17
M  V30 17 2 17 18
M  V30 18 1 16 19
M  V30 19 2 19 20
M  V30 20 2 19 21
M  V30 21 1 19 22
M  V30 22 1 9 23
M  V30 23 2 6 2
M  V30 24 2 11 7
M  V30 25 1 18 13
M  V30 26 1 1 24
M  V30 27 1 1 25
M  V30 28 1 4 26
M  V30 29 1 8 27
M  V30 30 1 12 28
M  V30 31 1 12 29
M  V30 32 1 12 30
M  V30 33 1 14 31
M  V30 34 1 15 32
M  V30 35 1 17 33
M  V30 36 1 18 34
M  V30 37 1 22 35
M  V30 38 1 22 36
M  V30 39 1 23 37
M  V30 40 1 23 38
M  V30 41 1 23 39
M  V30 END BOND
M  V30 END CTAB
M  END
