
     RDKit          3D

  0  0  0  0  0  0  0  0  0  0999 V3000
M  V30 BEGIN CTAB
M  V30 COUNTS 30 31 0 0 0
M  V30 BEGIN ATOM
M  V30 1 N 0.0566058 5.83349 0.500006 0
M  V30 2 N 0.262602 4.67527 1.07419 0
M  V30 3 C 0.474005 3.48679 1.66345 0
M  V30 4 O 0.911142 3.17504 2.78679 0
M  V30 5 C 0.129258 2.26378 0.827432 0
M  V30 6 N -0.363231 2.41421 -0.417598 0
M  V30 7 C -0.659393 1.36488 -1.20336 0
M  V30 8 Cl -1.33113 1.56839 -2.82268 0
M  V30 9 C -0.441005 0.0759228 -0.693624 0
M  V30 10 N -0.67089 -1.04018 -1.52067 0
M  V30 11 C -0.494103 -2.40855 -1.21036 0
M  V30 12 C -0.462696 -2.95151 0.0521365 0
M  V30 13 C -0.17811 -4.33353 0.242055 0
M  V30 14 C 0.0600052 -5.11249 -0.839423 0
M  V30 15 C 0.0371256 -4.62017 -2.11358 0
M  V30 16 C -0.235195 -3.30024 -2.2625 0
M  V30 17 N 0.0536181 -0.0369418 0.567857 0
M  V30 18 C 0.348492 1.0392 1.35309 0
M  V30 19 N 0.888256 0.807066 2.652 0
M  V30 20 H -0.395454 5.86306 -0.462602 0
M  V30 21 H 0.675297 6.61208 0.669201 0
M  V30 22 H 0.645707 5.33448 2.21483 0
M  V30 23 H -1.01901 -0.813063 -2.50191 0
M  V30 24 H -0.673723 -2.35335 0.915145 0
M  V30 25 H -0.167334 -4.70914 1.24579 0
M  V30 26 H 0.303927 -6.17506 -0.681561 0
M  V30 27 H 0.219693 -5.31908 -2.93197 0
M  V30 28 H -0.261556 -2.89205 -3.26284 0
M  V30 29 H 0.434626 1.0198 3.50947 0
M  V30 30 H 1.85247 0.349629 2.65123 0
M  V30 END ATOM
M  V30 BEGIN BOND
M  V30 1 1 1 2
M  V30 2 1 2 3
M  V30 3 2 3 4
M  V30 4 1 3 5
M  V30 5 2 5 6
M  V30 6 1 6 7
M  V30 7 1 7 8
M  V30 8 2 7 9
M  V30 9 1 9 10
M  V30 10 1 10 11
M  V30 11 2 11 12
M  V30 12 1 12 13
M  V30 13 2 13 14
M  V30 14 1 14 15
M  V30 15 2 15 16
M  V30 16 1 9 17
M  V30 17 2 17 18
M  V30 18 1 18 19
M  V30 19 1 18 5
M  V30 20 1 16 11
M  V30 21 1 1 20
M  V30 22 1 1 21
M  V30 23 1 2 22
M  V30 24 1 10 23
M  V30 25 1 12 24
M  V30 26 1 13 25
M  V30 27 1 14 26
M  V30 28 1 15 27
M  V30 29 1 16 28
M  V30 30 1 19 29
M  V30 31 1 19 30
M  V30 END BOND
M  V30 END CTAB
M  END
