
     RDKit          3D

  0  0  0  0  0  0  0  0  0  0999 V3000
M  V30 BEGIN CTAB
M  V30 COUNTS 43 45 0 0 0
M  V30 BEGIN ATOM
M  V30 1 N -5.66618 2.24298 1.33776 0
M  V30 2 C -4.65117 1.43439 0.762413 0
M  V30 3 C -4.05819 0.396229 1.44768 0
M  V30 4 C -3.0648 -0.381842 0.856184 0
M  V30 5 C -2.62175 -0.166091 -0.425554 0
M  V30 6 C -3.21988 0.886574 -1.12597 0
M  V30 7 C -4.19489 1.64276 -0.531646 0
M  V30 8 N -1.62269 -0.95873 -1.03086 0
M  V30 9 C -1.21532 -2.20076 -0.420789 0
M  V30 10 C 0.185509 -1.95438 0.158964 0
M  V30 11 N 0.888111 -1.12031 -0.772373 0
M  V30 12 C 0.46912 -1.06421 -2.15708 0
M  V30 13 C -0.96677 -0.536742 -2.2804 0
M  V30 14 C 1.99833 -0.345231 -0.34119 0
M  V30 15 C 1.96492 1.03214 -0.453826 0
M  V30 16 C 3.0307 1.80434 -0.0407764 0
M  V30 17 C 4.15328 1.20694 0.494502 0
M  V30 18 C 4.17887 -0.165586 0.603122 0
M  V30 19 C 3.09856 -0.940086 0.183873 0
M  V30 20 N 3.20586 -2.34907 0.329736 0
M  V30 21 C 5.33833 2.01349 0.957205 0
M  V30 22 H -6.33753 1.80383 1.99041 0
M  V30 23 H -5.74964 3.2508 1.12165 0
M  V30 24 H -4.38133 0.195895 2.45987 0
M  V30 25 H -2.63385 -1.18102 1.45327 0
M  V30 26 H -2.88943 1.07644 -2.13496 0
M  V30 27 H -4.68082 2.4773 -1.06176 0
M  V30 28 H -1.02781 -2.92644 -1.26032 0
M  V30 29 H -1.8805 -2.60796 0.331605 0
M  V30 30 H 0.0258419 -1.38669 1.1153 0
M  V30 31 H 0.674819 -2.89157 0.429877 0
M  V30 32 H 0.497754 -2.0494 -2.62426 0
M  V30 33 H 1.13012 -0.390686 -2.72742 0
M  V30 34 H -1.4209 -1.02051 -3.14118 0
M  V30 35 H -0.937502 0.551144 -2.38527 0
M  V30 36 H 1.08 1.52094 -0.876688 0
M  V30 37 H 3.00638 2.8808 -0.128082 0
M  V30 38 H 5.05411 -0.622941 1.02071 0
M  V30 39 H 3.4958 -2.78318 1.24452 0
M  V30 40 H 3.0046 -3.01607 -0.452655 0
M  V30 41 H 5.93726 2.2159 0.0482081 0
M  V30 42 H 4.91915 2.96902 1.33225 0
M  V30 43 H 5.88353 1.4576 1.73831 0
M  V30 END ATOM
M  V30 BEGIN BOND
M  V30 1 1 1 2
M  V30 2 2 2 3
M  V30 3 1 3 4
M  V30 4 2 4 5
M  V30 5 1 5 6
M  V30 6 2 6 7
M  V30 7 1 5 8
M  V30 8 1 8 9
M  V30 9 1 9 10
M  V30 10 1 10 11
M  V30 11 1 11 12
M  V30 12 1 12 13
M  V30 13 1 11 14
M  V30 14 2 14 15
M  V30 15 1 15 16
M  V30 16 2 16 17
M  V30 17 1 17 18
M  V30 18 2 18 19
M  V30 19 1 19 20
M  V30 20 1 17 21
M  V30 21 1 7 2
M  V30 22 1 13 8
M  V30 23 1 19 14
M  V30 24 1 1 22
M  V30 25 1 1 23
M  V30 26 1 3 24
M  V30 27 1 4 25
M  V30 28 1 6 26
M  V30 29 1 7 27
M  V30 30 1 9 28
M  V30 31 1 9 29
M  V30 32 1 10 30
M  V30 33 1 10 31
M  V30 34 1 12 32
M  V30 35 1 12 33
M  V30 36 1 13 34
M  V30 37 1 13 35
M  V30 38 1 15 36
M  V30 39 1 16 37
M  V30 40 1 18 38
M  V30 41 1 20 39
M  V30 42 1 20 40
M  V30 43 1 21 41
M  V30 44 1 21 42
M  V30 45 1 21 43
M  V30 END BOND
M  V30 END CTAB
M  END
