
     RDKit          3D

  0  0  0  0  0  0  0  0  0  0999 V3000
M  V30 BEGIN CTAB
M  V30 COUNTS 33 34 0 0 0
M  V30 BEGIN ATOM
M  V30 1 N 5.30646 -1.43049 -0.121495 0
M  V30 2 C 4.51803 -0.4181 0.574797 0
M  V30 3 C 4.50599 0.882773 -0.196262 0
M  V30 4 C 3.70238 1.93412 0.516658 0
M  V30 5 C 2.28362 1.58736 0.687249 0
M  V30 6 O 1.58814 2.34004 1.41791 0
M  V30 7 O 1.63025 0.512081 0.121138 0
M  V30 8 C 0.309856 0.191381 0.280394 0
M  V30 9 C -0.65931 0.752089 -0.549237 0
M  V30 10 C -2.01851 0.435548 -0.400679 0
M  V30 11 C -2.45126 -0.436642 0.564919 0
M  V30 12 C -1.4576 -0.987083 1.38759 0
M  V30 13 C -0.152543 -0.677965 1.2383 0
M  V30 14 N -3.7265 -0.670276 0.630896 0
M  V30 15 C -4.55985 -0.0847477 -0.204475 0
M  V30 16 S -3.48977 0.866561 -1.15724 0
M  V30 17 S -6.3155 -0.23244 -0.323657 0
M  V30 18 N -6.79126 -1.4864 -1.3771 0
M  V30 19 O -6.8146 1.10499 -0.791764 0
M  V30 20 O -6.91527 -0.467821 1.03914 0
M  V30 21 H 6.08095 -1.71383 0.512155 0
M  V30 22 H 4.73266 -2.255 -0.392309 0
M  V30 23 H 4.94561 -0.250055 1.60714 0
M  V30 24 H 3.51972 -0.854757 0.731918 0
M  V30 25 H 3.95434 0.68593 -1.16298 0
M  V30 26 H 5.52241 1.20998 -0.433577 0
M  V30 27 H 3.83655 2.93581 0.0462319 0
M  V30 28 H 4.18583 2.04965 1.53114 0
M  V30 29 H -0.425879 1.43476 -1.32404 0
M  V30 30 H -1.70853 -1.68595 2.17869 0
M  V30 31 H 0.636338 -1.1087 1.88289 0
M  V30 32 H -6.09459 -2.23805 -1.49917 0
M  V30 33 H -7.67817 -1.92476 -0.99473 0
M  V30 END ATOM
M  V30 BEGIN BOND
M  V30 1 1 1 2
M  V30 2 1 2 3
M  V30 3 1 3 4
M  V30 4 1 4 5
M  V30 5 2 5 6
M  V30 6 1 5 7
M  V30 7 1 7 8
M  V30 8 2 8 9
M  V30 9 1 9 10
M  V30 10 2 10 11
M  V30 11 1 11 12
M  V30 12 2 12 13
M  V30 13 1 11 14
M  V30 14 2 14 15
M  V30 15 1 15 16
M  V30 16 1 15 17
M  V30 17 1 17 18
M  V30 18 2 17 19
M  V30 19 2 17 20
M  V30 20 1 13 8
M  V30 21 1 16 10
M  V30 22 1 1 21
M  V30 23 1 1 22
M  V30 24 1 2 23
M  V30 25 1 2 24
M  V30 26 1 3 25
M  V30 27 1 3 26
M  V30 28 1 4 27
M  V30 29 1 4 28
M  V30 30 1 9 29
M  V30 31 1 12 30
M  V30 32 1 13 31
M  V30 33 1 18 32
M  V30 34 1 18 33
M  V30 END BOND
M  V30 END CTAB
M  END
