
     RDKit          3D

  0  0  0  0  0  0  0  0  0  0999 V3000
M  V30 BEGIN CTAB
M  V30 COUNTS 48 50 0 0 0
M  V30 BEGIN ATOM
M  V30 1 C 6.51523 -1.30714 1.7016 0
M  V30 2 C 5.99155 -0.443247 0.608765 0
M  V30 3 C 4.68231 -0.0252026 0.568808 0
M  V30 4 C 4.25109 0.763107 -0.450035 0
M  V30 5 S 2.5463 1.32223 -0.524969 0
M  V30 6 C 1.65782 0.655872 0.916233 0
M  V30 7 C 0.236996 1.09853 0.889855 0
M  V30 8 C -0.161637 2.27682 1.50098 0
M  V30 9 C -1.4638 2.70215 1.4883 0
M  V30 10 C -2.41468 1.9402 0.849694 0
M  V30 11 C -2.07553 0.760106 0.225534 0
M  V30 12 C -0.752724 0.375746 0.266406 0
M  V30 13 N -3.07275 -0.0505278 -0.451001 0
M  V30 14 C -3.34368 0.172114 -1.82516 0
M  V30 15 N -2.59962 1.21085 -2.48682 0
M  V30 16 N -4.21777 -0.520515 -2.46616 0
M  V30 17 C -4.95326 -1.54216 -1.82597 0
M  V30 18 N -5.93138 -2.33855 -2.48588 0
M  V30 19 N -4.72463 -1.75967 -0.586745 0
M  V30 20 C -3.78838 -1.07269 0.247405 0
M  V30 21 C -4.59218 -0.347733 1.33926 0
M  V30 22 C -2.87806 -2.08131 0.912903 0
M  V30 23 C 5.11416 1.15378 -1.45355 0
M  V30 24 C 6.43225 0.738399 -1.4218 0
M  V30 25 C 6.85642 -0.0617908 -0.381333 0
M  V30 26 H 5.69684 -1.59427 2.39737 0
M  V30 27 H 6.91029 -2.25285 1.24114 0
M  V30 28 H 7.33498 -0.771236 2.19155 0
M  V30 29 H 4.01077 -0.339321 1.36531 0
M  V30 30 H 2.16328 0.874438 1.86501 0
M  V30 31 H 1.64515 -0.454458 0.780499 0
M  V30 32 H 0.591442 2.86887 2.00005 0
M  V30 33 H -1.76871 3.64179 1.97828 0
M  V30 34 H -3.44513 2.26954 0.835417 0
M  V30 35 H -0.460175 -0.563992 -0.226108 0
M  V30 36 H -2.23125 1.99919 -1.97255 0
M  V30 37 H -2.46119 1.11321 -3.50347 0
M  V30 38 H -5.91793 -3.39153 -2.388 0
M  V30 39 H -6.68966 -1.95648 -3.08091 0
M  V30 40 H -3.92707 0.0418349 2.13125 0
M  V30 41 H -5.35722 -1.02533 1.76069 0
M  V30 42 H -5.11084 0.531176 0.894817 0
M  V30 43 H -1.99438 -2.32914 0.325729 0
M  V30 44 H -2.63852 -1.71935 1.95108 0
M  V30 45 H -3.4728 -3.00853 1.0518 0
M  V30 46 H 4.79333 1.78189 -2.27587 0
M  V30 47 H 7.11743 1.04335 -2.21044 0
M  V30 48 H 7.89734 -0.378174 -0.374271 0
M  V30 END ATOM
M  V30 BEGIN BOND
M  V30 1 1 1 2
M  V30 2 2 2 3
M  V30 3 1 3 4
M  V30 4 1 4 5
M  V30 5 1 5 6
M  V30 6 1 6 7
M  V30 7 2 7 8
M  V30 8 1 8 9
M  V30 9 2 9 10
M  V30 10 1 10 11
M  V30 11 2 11 12
M  V30 12 1 11 13
M  V30 13 1 13 14
M  V30 14 1 14 15
M  V30 15 2 14 16
M  V30 16 1 16 17
M  V30 17 1 17 18
M  V30 18 2 17 19
M  V30 19 1 19 20
M  V30 20 1 20 21
M  V30 21 1 20 22
M  V30 22 2 4 23
M  V30 23 1 23 24
M  V30 24 2 24 25
M  V30 25 1 25 2
M  V30 26 1 12 7
M  V30 27 1 20 13
M  V30 28 1 1 26
M  V30 29 1 1 27
M  V30 30 1 1 28
M  V30 31 1 3 29
M  V30 32 1 6 30
M  V30 33 1 6 31
M  V30 34 1 8 32
M  V30 35 1 9 33
M  V30 36 1 10 34
M  V30 37 1 12 35
M  V30 38 1 15 36
M  V30 39 1 15 37
M  V30 40 1 18 38
M  V30 41 1 18 39
M  V30 42 1 21 40
M  V30 43 1 21 41
M  V30 44 1 21 42
M  V30 45 1 22 43
M  V30 46 1 22 44
M  V30 47 1 22 45
M  V30 48 1 23 46
M  V30 49 1 24 47
M  V30 50 1 25 48
M  V30 END BOND
M  V30 END CTAB
M  END
