
     RDKit          3D

  0  0  0  0  0  0  0  0  0  0999 V3000
M  V30 BEGIN CTAB
M  V30 COUNTS 41 43 0 0 0
M  V30 BEGIN ATOM
M  V30 1 N 0.32456 -4.71856 -1.84951 0
M  V30 2 C -0.0321184 -3.50575 -1.21553 0
M  V30 3 N -1.25722 -3.04687 -0.868565 0
M  V30 4 N -1.17326 -1.86789 -0.294586 0
M  V30 5 C -2.2683 -1.10181 0.191278 0
M  V30 6 S -2.34886 -0.78866 1.78637 0
M  V30 7 N -3.28946 -0.603297 -0.666554 0
M  V30 8 C -4.38167 0.158201 -0.197787 0
M  V30 9 C -4.25159 1.52989 -0.147547 0
M  V30 10 F -3.12919 2.17999 -0.525341 0
M  V30 11 C -5.3057 2.29585 0.307101 0
M  V30 12 C -6.48662 1.70719 0.71151 0
M  V30 13 C -6.61989 0.338939 0.662725 0
M  V30 14 C -5.56233 -0.426251 0.206827 0
M  V30 15 F -5.71363 -1.76777 0.166801 0
M  V30 16 C 0.14436 -1.51805 -0.251261 0
M  V30 17 N 0.648224 -0.332789 0.298493 0
M  V30 18 C 1.98901 0.0811455 0.347107 0
M  V30 19 C 2.35919 1.16898 1.16446 0
M  V30 20 C 3.63668 1.63765 1.25348 0
M  V30 21 C 4.6419 1.04503 0.524151 0
M  V30 22 C 4.33341 -0.0112082 -0.281756 0
M  V30 23 C 3.02605 -0.474464 -0.359515 0
M  V30 24 S 6.26798 1.62371 0.622905 0
M  V30 25 N 6.53754 2.84838 -0.5767 0
M  V30 26 O 7.2578 0.523483 0.340692 0
M  V30 27 O 6.56757 2.17528 1.98383 0
M  V30 28 N 0.799673 -2.52518 -0.812995 0
M  V30 29 H 1.19345 -4.79553 -2.40684 0
M  V30 30 H -0.282381 -5.5529 -1.76486 0
M  V30 31 H -3.2227 -0.812819 -1.68473 0
M  V30 32 H -5.21658 3.36334 0.350779 0
M  V30 33 H -7.33395 2.29522 1.07496 0
M  V30 34 H -7.54271 -0.0993399 0.980314 0
M  V30 35 H -0.0487704 0.368738 0.742006 0
M  V30 36 H 1.59558 1.66213 1.75486 0
M  V30 37 H 3.89508 2.4712 1.88573 0
M  V30 38 H 5.12995 -0.466226 -0.84757 0
M  V30 39 H 2.85739 -1.30465 -1.02363 0
M  V30 40 H 6.19549 2.51679 -1.50296 0
M  V30 41 H 6.06604 3.72887 -0.257661 0
M  V30 END ATOM
M  V30 BEGIN BOND
M  V30 1 1 1 2
M  V30 2 2 2 3
M  V30 3 1 3 4
M  V30 4 1 4 5
M  V30 5 2 5 6
M  V30 6 1 5 7
M  V30 7 1 7 8
M  V30 8 2 8 9
M  V30 9 1 9 10
M  V30 10 1 9 11
M  V30 11 2 11 12
M  V30 12 1 12 13
M  V30 13 2 13 14
M  V30 14 1 14 15
M  V30 15 1 4 16
M  V30 16 1 16 17
M  V30 17 1 17 18
M  V30 18 2 18 19
M  V30 19 1 19 20
M  V30 20 2 20 21
M  V30 21 1 21 22
M  V30 22 2 22 23
M  V30 23 1 21 24
M  V30 24 1 24 25
M  V30 25 2 24 26
M  V30 26 2 24 27
M  V30 27 2 16 28
M  V30 28 1 28 2
M  V30 29 1 14 8
M  V30 30 1 23 18
M  V30 31 1 1 29
M  V30 32 1 1 30
M  V30 33 1 7 31
M  V30 34 1 11 32
M  V30 35 1 12 33
M  V30 36 1 13 34
M  V30 37 1 17 35
M  V30 38 1 19 36
M  V30 39 1 20 37
M  V30 40 1 22 38
M  V30 41 1 23 39
M  V30 42 1 25 40
M  V30 43 1 25 41
M  V30 END BOND
M  V30 END CTAB
M  END
