
     RDKit          3D

  0  0  0  0  0  0  0  0  0  0999 V3000
M  V30 BEGIN CTAB
M  V30 COUNTS 32 33 0 0 0
M  V30 BEGIN ATOM
M  V30 1 N 4.66947 0.0513624 -0.650328 0
M  V30 2 C 3.46239 -0.171568 0.0529739 0
M  V30 3 N 3.22748 -0.977196 1.09871 0
M  V30 4 N 1.95178 -0.893962 1.46204 0
M  V30 5 C 1.2926 -0.0185924 0.657177 0
M  V30 6 C 2.25316 0.427194 -0.222626 0
M  V30 7 C -0.141745 0.353076 0.722059 0 CFG=2
M  V30 8 C -0.820943 -0.617058 1.65521 0
M  V30 9 O -0.620977 -1.94061 1.36303 0
M  V30 10 C -0.76166 -2.29756 0.0467703 0
M  V30 11 C -2.01395 -1.65324 -0.468234 0
M  V30 12 C -1.92398 -0.241936 -0.835345 0
M  V30 13 N -0.75249 0.501687 -0.543474 0
M  V30 14 S -1.24412 2.17253 -0.78055 0
M  V30 15 O -1.81264 2.39359 -2.1242 0
M  V30 16 O -0.0402952 3.02543 -0.558946 0
M  V30 17 N -2.40382 2.55558 0.449836 0
M  V30 18 H 4.70142 0.311279 -1.6433 0
M  V30 19 H 5.60635 -0.0450971 -0.162473 0
M  V30 20 H 1.58874 -1.45215 2.26342 0
M  V30 21 H 2.08086 1.1394 -1.01222 0
M  V30 22 H -0.166771 1.34107 1.25337 0
M  V30 23 H -1.90733 -0.354774 1.78711 0
M  V30 24 H -0.370529 -0.434746 2.66338 0
M  V30 25 H -0.968813 -3.40986 0.047395 0
M  V30 26 H 0.0644871 -2.03982 -0.617006 0
M  V30 27 H -2.84817 -1.85333 0.269205 0
M  V30 28 H -2.32689 -2.26445 -1.36738 0
M  V30 29 H -2.79302 0.305591 -0.360442 0
M  V30 30 H -2.1184 -0.10035 -1.94156 0
M  V30 31 H -1.93064 2.79443 1.34945 0
M  V30 32 H -2.93154 3.39407 0.105282 0
M  V30 END ATOM
M  V30 BEGIN BOND
M  V30 1 1 1 2
M  V30 2 2 2 3
M  V30 3 1 3 4
M  V30 4 1 4 5
M  V30 5 2 5 6
M  V30 6 1 5 7
M  V30 7 1 7 8
M  V30 8 1 8 9
M  V30 9 1 9 10
M  V30 10 1 10 11
M  V30 11 1 11 12
M  V30 12 1 12 13
M  V30 13 1 13 14
M  V30 14 2 14 15
M  V30 15 2 14 16
M  V30 16 1 14 17
M  V30 17 1 6 2
M  V30 18 1 13 7
M  V30 19 1 1 18
M  V30 20 1 1 19
M  V30 21 1 4 20
M  V30 22 1 6 21
M  V30 23 1 7 22 CFG=1
M  V30 24 1 8 23
M  V30 25 1 8 24
M  V30 26 1 10 25
M  V30 27 1 10 26
M  V30 28 1 11 27
M  V30 29 1 11 28
M  V30 30 1 12 29
M  V30 31 1 12 30
M  V30 32 1 17 31
M  V30 33 1 17 32
M  V30 END BOND
M  V30 END CTAB
M  END
