
     RDKit          3D

  0  0  0  0  0  0  0  0  0  0999 V3000
M  V30 BEGIN CTAB
M  V30 COUNTS 51 54 0 0 0
M  V30 BEGIN ATOM
M  V30 1 C -6.30118 2.0585 -1.11761 0
M  V30 2 C -6.31887 1.46629 0.256005 0
M  V30 3 C -6.10842 -0.00124228 0.268624 0
M  V30 4 C -7.19546 -0.840139 0.366743 0
M  V30 5 C -7.03203 -2.20139 0.364652 0
M  V30 6 C -5.75511 -2.68865 0.260614 0
M  V30 7 C -4.64545 -1.82922 0.159254 0
M  V30 8 C -4.7818 -0.46902 0.160856 0
M  V30 9 N -3.71415 0.415761 0.0676949 0
M  V30 10 C -2.33983 0.1565 0.146457 0
M  V30 11 N -1.4605 1.2009 0.0200454 0
M  V30 12 C -0.124414 1.09282 0.133896 0
M  V30 13 C 0.736818 2.31428 -0.0732862 0
M  V30 14 S 1.64855 2.22304 -1.56756 0
M  V30 15 C 3.17375 1.37348 -1.56983 0
M  V30 16 N 3.86593 1.07361 -2.68075 0
M  V30 17 N 4.99513 0.515884 -2.34543 0
M  V30 18 C 5.08916 0.42712 -0.984282 0
M  V30 19 N 3.95818 0.961408 -0.530966 0
M  V30 20 N 3.58368 1.15196 0.775354 0
M  V30 21 C 6.21206 -0.124656 -0.241684 0
M  V30 22 C 6.31852 -0.204387 1.10449 0
M  V30 23 C 7.42924 -0.748418 1.73857 0
M  V30 24 C 8.48193 -1.23646 1.00337 0
M  V30 25 C 8.39082 -1.16391 -0.363774 0
M  V30 26 C 7.29246 -0.625078 -0.979535 0
M  V30 27 Cl 7.2491 -0.562165 -2.72332 0
M  V30 28 N 0.37073 -0.105224 0.383426 0
M  V30 29 C -0.45853 -1.16017 0.511827 0
M  V30 30 N -1.76754 -1.02249 0.396109 0
M  V30 31 N 0.0572158 -2.45547 0.762251 0
M  V30 32 H -7.3205 2.4248 -1.4199 0
M  V30 33 H -5.95786 1.35128 -1.88264 0
M  V30 34 H -5.62395 2.94448 -1.1394 0
M  V30 35 H -7.34106 1.66855 0.698806 0
M  V30 36 H -5.61032 1.96539 0.971975 0
M  V30 37 H -8.1954 -0.440439 0.446798 0
M  V30 38 H -7.90791 -2.82502 0.445845 0
M  V30 39 H -5.62085 -3.76231 0.257283 0
M  V30 40 H -3.66099 -2.30273 0.0651165 0
M  V30 41 H -3.96952 1.44565 -0.0870945 0
M  V30 42 H 1.32518 2.52389 0.846998 0
M  V30 43 H 0.0204612 3.17913 -0.138834 0
M  V30 44 H 3.70138 2.11586 1.20408 0
M  V30 45 H 3.18331 0.427548 1.41849 0
M  V30 46 H 5.54216 0.151741 1.75208 0
M  V30 47 H 7.49055 -0.797046 2.81725 0
M  V30 48 H 9.36406 -1.66608 1.4803 0
M  V30 49 H 9.24607 -1.56062 -0.945716 0
M  V30 50 H 0.104973 -2.79764 1.73131 0
M  V30 51 H 0.380213 -3.03991 -0.040347 0
M  V30 END ATOM
M  V30 BEGIN BOND
M  V30 1 1 1 2
M  V30 2 1 2 3
M  V30 3 2 3 4
M  V30 4 1 4 5
M  V30 5 2 5 6
M  V30 6 1 6 7
M  V30 7 2 7 8
M  V30 8 1 8 9
M  V30 9 1 9 10
M  V30 10 2 10 11
M  V30 11 1 11 12
M  V30 12 1 12 13
M  V30 13 1 13 14
M  V30 14 1 14 15
M  V30 15 2 15 16
M  V30 16 1 16 17
M  V30 17 2 17 18
M  V30 18 1 18 19
M  V30 19 1 19 20
M  V30 20 1 18 21
M  V30 21 2 21 22
M  V30 22 1 22 23
M  V30 23 2 23 24
M  V30 24 1 24 25
M  V30 25 2 25 26
M  V30 26 1 26 27
M  V30 27 2 12 28
M  V30 28 1 28 29
M  V30 29 2 29 30
M  V30 30 1 29 31
M  V30 31 1 8 3
M  V30 32 1 30 10
M  V30 33 1 19 15
M  V30 34 1 26 21
M  V30 35 1 1 32
M  V30 36 1 1 33
M  V30 37 1 1 34
M  V30 38 1 2 35
M  V30 39 1 2 36
M  V30 40 1 4 37
M  V30 41 1 5 38
M  V30 42 1 6 39
M  V30 43 1 7 40
M  V30 44 1 9 41
M  V30 45 1 13 42
M  V30 46 1 13 43
M  V30 47 1 20 44
M  V30 48 1 20 45
M  V30 49 1 22 46
M  V30 50 1 23 47
M  V30 51 1 24 48
M  V30 52 1 25 49
M  V30 53 1 31 50
M  V30 54 1 31 51
M  V30 END BOND
M  V30 END CTAB
M  END
