
     RDKit          3D

  0  0  0  0  0  0  0  0  0  0999 V3000
M  V30 BEGIN CTAB
M  V30 COUNTS 23 22 0 0 0
M  V30 BEGIN ATOM
M  V30 1 N 3.62922 1.555 -0.989641 0
M  V30 2 C 2.92173 0.368079 -0.58262 0
M  V30 3 N 3.19492 -0.0696462 0.599532 0
M  V30 4 S 1.75876 -0.420762 -1.66675 0
M  V30 5 C 1.05464 -1.84089 -0.822833 0
M  V30 6 C 0.199259 -1.43967 0.342851 0
M  V30 7 C -0.964645 -0.564584 -0.0716033 0
M  V30 8 S -1.90567 -0.159858 1.43956 0
M  V30 9 C -3.31106 0.871762 1.04158 0
M  V30 10 N -3.56089 1.26121 -0.300436 0
M  V30 11 N -4.08073 1.24893 1.97823 0
M  V30 12 H 4.66211 1.53821 -1.13875 0
M  V30 13 H 3.1148 2.44028 -1.13867 0
M  V30 14 H 3.86898 0.36938 1.24607 0
M  V30 15 H 1.91273 -2.43139 -0.395884 0
M  V30 16 H 0.538739 -2.54179 -1.51331 0
M  V30 17 H -0.258194 -2.33139 0.844469 0
M  V30 18 H 0.830554 -0.950671 1.10875 0
M  V30 19 H -0.657091 0.359063 -0.583235 0
M  V30 20 H -1.65151 -1.10667 -0.752447 0
M  V30 21 H -4.33245 1.93587 -0.510612 0
M  V30 22 H -3.01118 0.910682 -1.11083 0
M  V30 23 H -3.95303 0.998856 2.97658 0
M  V30 END ATOM
M  V30 BEGIN BOND
M  V30 1 1 1 2
M  V30 2 2 2 3 CFG=2
M  V30 3 1 2 4
M  V30 4 1 4 5
M  V30 5 1 5 6
M  V30 6 1 6 7
M  V30 7 1 7 8
M  V30 8 1 8 9
M  V30 9 1 9 10
M  V30 10 2 9 11 CFG=2
M  V30 11 1 1 12
M  V30 12 1 1 13
M  V30 13 1 3 14
M  V30 14 1 5 15
M  V30 15 1 5 16
M  V30 16 1 6 17
M  V30 17 1 6 18
M  V30 18 1 7 19
M  V30 19 1 7 20
M  V30 20 1 10 21
M  V30 21 1 10 22
M  V30 22 1 11 23
M  V30 END BOND
M  V30 END CTAB
M  END
