
     RDKit          3D

  0  0  0  0  0  0  0  0  0  0999 V3000
M  V30 BEGIN CTAB
M  V30 COUNTS 26 26 0 0 0
M  V30 BEGIN ATOM
M  V30 1 N 3.60787 1.59343 -0.757305 0
M  V30 2 N 2.31928 1.29617 -0.335082 0
M  V30 3 C 1.84958 0.0834954 -0.342987 0
M  V30 4 N 0.508095 -0.18059 0.103219 0
M  V30 5 C -0.172747 -1.28851 -0.507314 0
M  V30 6 C -1.66243 -1.21136 -0.442492 0
M  V30 7 C -2.18057 0.0592225 0.17404 0
M  V30 8 C -1.44884 0.315677 1.46113 0
M  V30 9 C -0.0255141 0.67975 1.11047 0
M  V30 10 O -1.99541 1.15616 -0.697132 0
M  V30 11 C -3.61535 -0.087369 0.422554 0
M  V30 12 N -4.76626 -0.221915 0.610955 0
M  V30 13 N 2.7038 -0.93983 -0.80166 0
M  V30 14 H 3.86642 2.5844 -0.931822 0
M  V30 15 H 4.33544 0.868373 -0.909599 0
M  V30 16 H 0.182627 -2.21355 0.0115354 0
M  V30 17 H 0.116847 -1.29572 -1.58468 0
M  V30 18 H -2.06081 -2.05618 0.174515 0
M  V30 19 H -2.13318 -1.31444 -1.44073 0
M  V30 20 H -1.45747 -0.627902 2.05149 0
M  V30 21 H -1.90409 1.16533 2.01697 0
M  V30 22 H -0.0238169 1.72203 0.684905 0
M  V30 23 H 0.612315 0.696975 2.04006 0
M  V30 24 H -2.68781 1.84111 -0.450977 0
M  V30 25 H 2.51282 -1.40807 -1.69877 0
M  V30 26 H 3.5192 -1.21668 -0.235631 0
M  V30 END ATOM
M  V30 BEGIN BOND
M  V30 1 1 1 2
M  V30 2 2 2 3 CFG=2
M  V30 3 1 3 4
M  V30 4 1 4 5
M  V30 5 1 5 6
M  V30 6 1 6 7
M  V30 7 1 7 8
M  V30 8 1 8 9
M  V30 9 1 7 10
M  V30 10 1 7 11
M  V30 11 3 11 12
M  V30 12 1 3 13
M  V30 13 1 9 4
M  V30 14 1 1 14
M  V30 15 1 1 15
M  V30 16 1 5 16
M  V30 17 1 5 17
M  V30 18 1 6 18
M  V30 19 1 6 19
M  V30 20 1 8 20
M  V30 21 1 8 21
M  V30 22 1 9 22
M  V30 23 1 9 23
M  V30 24 1 10 24
M  V30 25 1 13 25
M  V30 26 1 13 26
M  V30 END BOND
M  V30 END CTAB
M  END
