
     RDKit          3D

  0  0  0  0  0  0  0  0  0  0999 V3000
M  V30 BEGIN CTAB
M  V30 COUNTS 38 40 0 0 0
M  V30 BEGIN ATOM
M  V30 1 C 0.762978 -0.64961 -1.8831 0
M  V30 2 C 1.18603 -0.965513 -0.495466 0 CFG=1
M  V30 3 O 0.776137 -2.23946 -0.0722113 0
M  V30 4 C 2.69915 -0.961547 -0.421861 0 CFG=2
M  V30 5 O 3.22232 -2.13788 0.0613644 0
M  V30 6 C 2.96005 0.144573 0.57632 0 CFG=1
M  V30 7 C 4.21341 0.918734 0.237611 0
M  V30 8 O 4.28596 2.0054 1.10152 0
M  V30 9 O 1.85641 0.991143 0.405842 0
M  V30 10 C 0.797758 0.062706 0.521502 0 CFG=1
M  V30 11 N -0.446068 0.710655 0.268929 0
M  V30 12 C -0.644408 2.02799 0.142276 0
M  V30 13 C -1.95817 2.27366 -0.0932831 0
M  V30 14 C -2.62544 1.07148 -0.11851 0
M  V30 15 C -1.64284 0.112163 0.112852 0
M  V30 16 N -2.03588 -1.1662 0.138549 0
M  V30 17 C -3.30877 -1.56138 -0.0446379 0
M  V30 18 N -3.67238 -2.95103 -0.00619933 0
M  V30 19 N -4.2402 -0.60789 -0.26709 0
M  V30 20 C -3.93776 0.693334 -0.309455 0
M  V30 21 N -4.89176 1.72355 -0.541115 0
M  V30 22 H 0.194235 0.291727 -1.99062 0
M  V30 23 H 0.16449 -1.52349 -2.2686 0
M  V30 24 H 1.63643 -0.578644 -2.56163 0
M  V30 25 H 0.782859 -2.1891 0.929363 0
M  V30 26 H 3.14993 -0.663909 -1.40695 0
M  V30 27 H 3.89403 -1.93611 0.731157 0
M  V30 28 H 3.04851 -0.248256 1.58851 0
M  V30 29 H 5.11535 0.305594 0.390749 0
M  V30 30 H 4.18065 1.31542 -0.801894 0
M  V30 31 H 3.97652 2.82135 0.667132 0
M  V30 32 H 0.89733 -0.379336 1.52749 0
M  V30 33 H 0.138524 2.78378 0.218459 0
M  V30 34 H -2.48133 3.22487 -0.247812 0
M  V30 35 H -3.74744 -3.43216 -0.924887 0
M  V30 36 H -3.8554 -3.47472 0.851653 0
M  V30 37 H -4.81497 2.25544 -1.44702 0
M  V30 38 H -5.63625 1.93267 0.172644 0
M  V30 END ATOM
M  V30 BEGIN BOND
M  V30 1 1 1 2
M  V30 2 1 2 3 CFG=1
M  V30 3 1 2 4
M  V30 4 1 4 5
M  V30 5 1 4 6
M  V30 6 1 6 7
M  V30 7 1 7 8
M  V30 8 1 6 9
M  V30 9 1 9 10
M  V30 10 1 10 11
M  V30 11 1 11 12
M  V30 12 2 12 13
M  V30 13 1 13 14
M  V30 14 2 14 15
M  V30 15 1 15 16
M  V30 16 2 16 17
M  V30 17 1 17 18
M  V30 18 1 17 19
M  V30 19 2 19 20
M  V30 20 1 20 21
M  V30 21 1 10 2
M  V30 22 1 15 11
M  V30 23 1 20 14
M  V30 24 1 1 22
M  V30 25 1 1 23
M  V30 26 1 1 24
M  V30 27 1 3 25
M  V30 28 1 4 26 CFG=3
M  V30 29 1 5 27
M  V30 30 1 6 28 CFG=1
M  V30 31 1 7 29
M  V30 32 1 7 30
M  V30 33 1 8 31
M  V30 34 1 10 32 CFG=1
M  V30 35 1 12 33
M  V30 36 1 13 34
M  V30 37 1 18 35
M  V30 38 1 18 36
M  V30 39 1 21 37
M  V30 40 1 21 38
M  V30 END BOND
M  V30 END CTAB
M  END
