
     RDKit          3D

  0  0  0  0  0  0  0  0  0  0999 V3000
M  V30 BEGIN CTAB
M  V30 COUNTS 14 14 0 0 0
M  V30 BEGIN ATOM
M  V30 1 N -1.86315 -0.961792 -0.0295537 0
M  V30 2 C -0.509338 -0.610273 0.00564616 0
M  V30 3 N 0.479074 -1.51377 0.0747168 0
M  V30 4 N 1.76319 -1.21384 0.109357 0
M  V30 5 C 2.08646 0.0906891 0.0721245 0
M  V30 6 O 3.28448 0.490635 0.0999481 0
M  V30 7 N 1.13568 1.03929 0.00271129 0
M  V30 8 C -0.168519 0.719808 -0.0319124 0
M  V30 9 N -1.09365 1.777 -0.104467 0
M  V30 10 H -2.28307 -1.46203 -0.845739 0
M  V30 11 H -2.50392 -0.73758 0.757777 0
M  V30 12 H 2.52663 -1.93738 0.163674 0
M  V30 13 H -1.58241 2.0981 0.739105 0
M  V30 14 H -1.27147 2.22114 -1.01339 0
M  V30 END ATOM
M  V30 BEGIN BOND
M  V30 1 1 1 2
M  V30 2 2 2 3
M  V30 3 1 3 4
M  V30 4 1 4 5
M  V30 5 2 5 6
M  V30 6 1 5 7
M  V30 7 2 7 8
M  V30 8 1 8 9
M  V30 9 1 8 2
M  V30 10 1 1 10
M  V30 11 1 1 11
M  V30 12 1 4 12
M  V30 13 1 9 13
M  V30 14 1 9 14
M  V30 END BOND
M  V30 END CTAB
M  END
