
     RDKit          3D

  0  0  0  0  0  0  0  0  0  0999 V3000
M  V30 BEGIN CTAB
M  V30 COUNTS 37 40 0 0 0
M  V30 BEGIN ATOM
M  V30 1 N 6.4635 0.850797 -0.0272875 0
M  V30 2 C 5.10984 0.475479 -0.172753 0
M  V30 3 N 4.44419 0.696433 -1.34497 0
M  V30 4 C 3.15937 0.328382 -1.45097 0
M  V30 5 N 2.43902 0.544031 -2.65587 0
M  V30 6 C 2.5715 -0.268348 -0.336851 0
M  V30 7 C 1.2508 -0.647315 -0.44409 0
M  V30 8 C 0.652606 -1.23803 0.644802 0
M  V30 9 C 1.37897 -1.43819 1.81275 0
M  V30 10 N 2.65567 -1.07106 1.91429 0
M  V30 11 C 3.25117 -0.484856 0.835354 0
M  V30 12 N 4.53475 -0.0988805 0.891627 0
M  V30 13 C -0.714228 -1.6413 0.562886 0
M  V30 14 S -1.12445 -3.08098 -0.0512593 0
M  V30 15 C -1.81399 -0.77962 1.04243 0
M  V30 16 C -2.6349 -0.147554 0.14071 0
M  V30 17 C -2.43843 -0.313173 -1.24112 0
M  V30 18 C -3.28264 0.337155 -2.12365 0
M  V30 19 C -4.29982 1.13465 -1.6382 0
M  V30 20 C -4.48892 1.29444 -0.265944 0
M  V30 21 C -3.65082 0.648796 0.608118 0
M  V30 22 C -3.88315 0.842111 1.97134 0
M  V30 23 C -3.03579 0.189103 2.83946 0
M  V30 24 C -2.02426 -0.603701 2.3851 0
M  V30 25 H 7.20604 0.184466 -0.275518 0
M  V30 26 H 6.69872 1.78795 0.325907 0
M  V30 27 H 2.12618 1.53906 -2.85643 0
M  V30 28 H 2.20479 -0.205033 -3.34093 0
M  V30 29 H 0.720332 -0.470043 -1.38146 0
M  V30 30 H 0.833418 -1.91642 2.64093 0
M  V30 31 H -1.63655 -0.941615 -1.58451 0
M  V30 32 H -3.11055 0.193382 -3.18982 0
M  V30 33 H -4.96756 1.64923 -2.31518 0
M  V30 34 H -5.28656 1.91976 0.109731 0
M  V30 35 H -4.69524 1.47822 2.29353 0
M  V30 36 H -3.2394 0.357395 3.90829 0
M  V30 37 H -1.37362 -1.10471 3.11232 0
M  V30 END ATOM
M  V30 BEGIN BOND
M  V30 1 1 1 2
M  V30 2 2 2 3
M  V30 3 1 3 4
M  V30 4 1 4 5
M  V30 5 2 4 6
M  V30 6 1 6 7
M  V30 7 2 7 8
M  V30 8 1 8 9
M  V30 9 2 9 10
M  V30 10 1 10 11
M  V30 11 2 11 12
M  V30 12 1 8 13
M  V30 13 2 13 14
M  V30 14 1 13 15
M  V30 15 1 15 16
M  V30 16 2 16 17
M  V30 17 1 17 18
M  V30 18 2 18 19
M  V30 19 1 19 20
M  V30 20 2 20 21
M  V30 21 1 21 22
M  V30 22 2 22 23
M  V30 23 1 23 24
M  V30 24 1 12 2
M  V30 25 2 24 15
M  V30 26 1 11 6
M  V30 27 1 21 16
M  V30 28 1 1 25
M  V30 29 1 1 26
M  V30 30 1 5 27
M  V30 31 1 5 28
M  V30 32 1 7 29
M  V30 33 1 9 30
M  V30 34 1 17 31
M  V30 35 1 18 32
M  V30 36 1 19 33
M  V30 37 1 20 34
M  V30 38 1 22 35
M  V30 39 1 23 36
M  V30 40 1 24 37
M  V30 END BOND
M  V30 END CTAB
M  END
