
     RDKit          3D

  0  0  0  0  0  0  0  0  0  0999 V3000
M  V30 BEGIN CTAB
M  V30 COUNTS 37 39 0 0 0
M  V30 BEGIN ATOM
M  V30 1 C -1.86688 -1.2012 1.38169 0
M  V30 2 C -2.15378 -0.59571 0.0200218 0
M  V30 3 C -2.20677 -1.76838 -0.949268 0
M  V30 4 N -3.48613 -0.059088 0.0807031 0
M  V30 5 C -3.83976 1.14789 -0.166299 0
M  V30 6 N -5.21531 1.49186 -0.0517324 0
M  V30 7 N -2.84213 2.08492 -0.542659 0
M  V30 8 C -1.60948 1.71859 -0.630991 0
M  V30 9 N -0.650917 2.70089 -1.01287 0
M  V30 10 N -1.19755 0.386147 -0.361458 0
M  V30 11 C 0.209141 0.0957831 -0.493901 0
M  V30 12 C 1.08739 0.22273 0.551058 0
M  V30 13 C 2.44145 -0.0536779 0.434818 0
M  V30 14 C 2.93209 -0.47475 -0.781386 0
M  V30 15 C 4.29471 -0.757259 -0.914289 0
M  V30 16 C 5.15073 -0.618817 0.158026 0
M  V30 17 C 4.67375 -0.198196 1.38162 0
M  V30 18 C 3.32351 0.0748773 1.48818 0
M  V30 19 C 2.0705 -0.61116 -1.84995 0
M  V30 20 C 0.708183 -0.326462 -1.70884 0
M  V30 21 H -1.37868 -0.488506 2.06495 0
M  V30 22 H -1.2655 -2.11265 1.31586 0
M  V30 23 H -2.82993 -1.49169 1.87863 0
M  V30 24 H -2.29133 -1.41228 -1.998 0
M  V30 25 H -1.36696 -2.46634 -0.798722 0
M  V30 26 H -3.17239 -2.30119 -0.734 0
M  V30 27 H -5.67748 2.00863 -0.852045 0
M  V30 28 H -5.79693 1.25904 0.787544 0
M  V30 29 H -0.301979 3.44544 -0.35352 0
M  V30 30 H -0.23374 2.74273 -1.97479 0
M  V30 31 H 0.725507 0.546643 1.49687 0
M  V30 32 H 4.70425 -1.08689 -1.84954 0
M  V30 33 H 6.20931 -0.827996 0.0924163 0
M  V30 34 H 5.35336 -0.0868392 2.23821 0
M  V30 35 H 2.91562 0.406462 2.43174 0
M  V30 36 H 2.48492 -0.940814 -2.78204 0
M  V30 37 H 0.0992268 -0.45276 -2.57343 0
M  V30 END ATOM
M  V30 BEGIN BOND
M  V30 1 1 1 2
M  V30 2 1 2 3
M  V30 3 1 2 4
M  V30 4 2 4 5
M  V30 5 1 5 6
M  V30 6 1 5 7
M  V30 7 2 7 8
M  V30 8 1 8 9
M  V30 9 1 8 10
M  V30 10 1 10 11
M  V30 11 2 11 12
M  V30 12 1 12 13
M  V30 13 2 13 14
M  V30 14 1 14 15
M  V30 15 2 15 16
M  V30 16 1 16 17
M  V30 17 2 17 18
M  V30 18 1 14 19
M  V30 19 2 19 20
M  V30 20 1 10 2
M  V30 21 1 20 11
M  V30 22 1 18 13
M  V30 23 1 1 21
M  V30 24 1 1 22
M  V30 25 1 1 23
M  V30 26 1 3 24
M  V30 27 1 3 25
M  V30 28 1 3 26
M  V30 29 1 6 27
M  V30 30 1 6 28
M  V30 31 1 9 29
M  V30 32 1 9 30
M  V30 33 1 12 31
M  V30 34 1 15 32
M  V30 35 1 16 33
M  V30 36 1 17 34
M  V30 37 1 18 35
M  V30 38 1 19 36
M  V30 39 1 20 37
M  V30 END BOND
M  V30 END CTAB
M  END
