
     RDKit          3D

  0  0  0  0  0  0  0  0  0  0999 V3000
M  V30 BEGIN CTAB
M  V30 COUNTS 41 44 0 0 0
M  V30 BEGIN ATOM
M  V30 1 N -5.8251 -2.36452 -0.430163 0
M  V30 2 C -5.64615 -1.01956 -0.0204241 0
M  V30 3 C -6.53786 -0.0118262 -0.308823 0
M  V30 4 C -6.29777 1.27909 0.120488 0
M  V30 5 N -7.20259 2.32545 -0.160375 0
M  V30 6 N -5.18222 1.58479 0.834207 0
M  V30 7 C -4.32292 0.591829 1.10783 0
M  V30 8 N -4.55495 -0.677925 0.687683 0
M  V30 9 S -2.86555 0.902726 2.05157 0
M  V30 10 C -1.48133 1.36025 0.969859 0
M  V30 11 C -1.03742 0.283663 0.0884028 0
M  V30 12 O -1.86282 -0.46352 -0.537672 0
M  V30 13 C 0.397836 0.0179131 -0.105872 0
M  V30 14 C 0.794467 -1.03273 -0.930384 0
M  V30 15 C 2.11828 -1.32208 -1.10357 0
M  V30 16 C 3.12743 -0.599003 -0.479853 0
M  V30 17 C 2.7326 0.429158 0.323946 0
M  V30 18 C 1.37608 0.738361 0.512023 0
M  V30 19 C 3.96175 1.05441 0.877375 0
M  V30 20 C 5.04847 0.245923 0.311277 0
M  V30 21 C 4.5765 -0.749603 -0.515785 0
M  V30 22 C 5.45802 -1.60508 -1.13629 0
M  V30 23 C 6.82834 -1.49956 -0.956714 0
M  V30 24 C 7.2812 -0.497388 -0.125763 0
M  V30 25 C 6.41192 0.366393 0.502771 0
M  V30 26 H -4.99788 -3.01141 -0.434728 0
M  V30 27 H -6.75568 -2.70264 -0.719358 0
M  V30 28 H -7.42991 -0.236669 -0.874593 0
M  V30 29 H -6.92495 3.17865 -0.684119 0
M  V30 30 H -8.18326 2.24468 0.168908 0
M  V30 31 H -0.671255 1.72508 1.62058 0
M  V30 32 H -1.77869 2.21939 0.304598 0
M  V30 33 H 0.0317713 -1.59649 -1.41575 0
M  V30 34 H 2.4528 -2.14703 -1.75044 0
M  V30 35 H 1.164 1.58501 1.16868 0
M  V30 36 H 4.02536 2.09335 0.487202 0
M  V30 37 H 3.95999 1.08757 1.98616 0
M  V30 38 H 5.10411 -2.38899 -1.78661 0
M  V30 39 H 7.55503 -2.14488 -1.42133 0
M  V30 40 H 8.3526 -0.38515 0.0393498 0
M  V30 41 H 6.79976 1.14239 1.14646 0
M  V30 END ATOM
M  V30 BEGIN BOND
M  V30 1 1 1 2
M  V30 2 2 2 3
M  V30 3 1 3 4
M  V30 4 1 4 5
M  V30 5 2 4 6
M  V30 6 1 6 7
M  V30 7 2 7 8
M  V30 8 1 7 9
M  V30 9 1 9 10
M  V30 10 1 10 11
M  V30 11 2 11 12
M  V30 12 1 11 13
M  V30 13 2 13 14
M  V30 14 1 14 15
M  V30 15 2 15 16
M  V30 16 1 16 17
M  V30 17 2 17 18
M  V30 18 1 17 19
M  V30 19 1 19 20
M  V30 20 2 20 21
M  V30 21 1 21 22
M  V30 22 2 22 23
M  V30 23 1 23 24
M  V30 24 2 24 25
M  V30 25 1 8 2
M  V30 26 1 18 13
M  V30 27 1 25 20
M  V30 28 1 21 16
M  V30 29 1 1 26
M  V30 30 1 1 27
M  V30 31 1 3 28
M  V30 32 1 5 29
M  V30 33 1 5 30
M  V30 34 1 10 31
M  V30 35 1 10 32
M  V30 36 1 14 33
M  V30 37 1 15 34
M  V30 38 1 18 35
M  V30 39 1 19 36
M  V30 40 1 19 37
M  V30 41 1 22 38
M  V30 42 1 23 39
M  V30 43 1 24 40
M  V30 44 1 25 41
M  V30 END BOND
M  V30 END CTAB
M  END
