
     RDKit          3D

  0  0  0  0  0  0  0  0  0  0999 V3000
M  V30 BEGIN CTAB
M  V30 COUNTS 22 22 0 0 0
M  V30 BEGIN ATOM
M  V30 1 C -1.54437 -2.07049 0.393942 0
M  V30 2 C -0.627676 -0.921362 0.192975 0
M  V30 3 C 0.726369 -1.10595 -0.00739035 0
M  V30 4 C 1.58875 -0.0390911 -0.195687 0
M  V30 5 C 1.01979 1.21511 -0.171785 0
M  V30 6 C -0.328266 1.43497 0.0258489 0
M  V30 7 N -0.860032 2.76131 0.0402913 0
M  V30 8 C -1.16329 0.3537 0.210647 0
M  V30 9 N -2.56012 0.580801 0.415474 0
M  V30 10 C 3.0237 -0.247573 -0.4074 0
M  V30 11 O 3.56506 -1.51361 -0.426481 0
M  V30 12 O 3.77928 0.741805 -0.575152 0
M  V30 13 H -1.0281 -2.88406 0.950951 0
M  V30 14 H -1.84652 -2.52072 -0.587236 0
M  V30 15 H -2.44163 -1.79088 0.960881 0
M  V30 16 H 1.15905 -2.11763 -0.0225956 0
M  V30 17 H 1.68156 2.06219 -0.317758 0
M  V30 18 H -1.86057 2.90902 0.246413 0
M  V30 19 H -0.273261 3.58272 -0.1498 0
M  V30 20 H -3.28343 0.171809 -0.182235 0
M  V30 21 H -2.82449 1.19683 1.22007 0
M  V30 22 H 4.0982 -1.7989 -1.25267 0
M  V30 END ATOM
M  V30 BEGIN BOND
M  V30 1 1 1 2
M  V30 2 2 2 3
M  V30 3 1 3 4
M  V30 4 2 4 5
M  V30 5 1 5 6
M  V30 6 1 6 7
M  V30 7 2 6 8
M  V30 8 1 8 9
M  V30 9 1 4 10
M  V30 10 1 10 11
M  V30 11 2 10 12
M  V30 12 1 8 2
M  V30 13 1 1 13
M  V30 14 1 1 14
M  V30 15 1 1 15
M  V30 16 1 3 16
M  V30 17 1 5 17
M  V30 18 1 7 18
M  V30 19 1 7 19
M  V30 20 1 9 20
M  V30 21 1 9 21
M  V30 22 1 11 22
M  V30 END BOND
M  V30 END CTAB
M  END
