
     RDKit          3D

  0  0  0  0  0  0  0  0  0  0999 V3000
M  V30 BEGIN CTAB
M  V30 COUNTS 18 19 0 0 0
M  V30 BEGIN ATOM
M  V30 1 N 3.49736 0.423444 -0.175133 0
M  V30 2 C 2.13549 0.146613 0.0522759 0
M  V30 3 C 1.68506 -0.792884 0.954235 0
M  V30 4 C 0.362133 -1.07152 1.18461 0
M  V30 5 Br -0.0922094 -2.41032 2.47576 0
M  V30 6 C -0.631255 -0.372411 0.471983 0
M  V30 7 C -0.176623 0.55703 -0.42004 0
M  V30 8 C 1.16934 0.833883 -0.647969 0
M  V30 9 S -1.65234 1.16333 -1.05724 0
M  V30 10 C -2.74555 0.187193 -0.139614 0
M  V30 11 N -1.91235 -0.534241 0.58979 0
M  V30 12 N -4.17297 0.17679 -0.174015 0
M  V30 13 H 4.01966 -0.0658126 -0.916091 0
M  V30 14 H 3.97982 1.12431 0.406151 0
M  V30 15 H 2.48879 -1.31968 1.49296 0
M  V30 16 H 1.41661 1.59763 -1.38494 0
M  V30 17 H -4.68139 -0.271702 -0.948508 0
M  V30 18 H -4.68958 0.628346 0.593844 0
M  V30 END ATOM
M  V30 BEGIN BOND
M  V30 1 1 1 2
M  V30 2 2 2 3
M  V30 3 1 3 4
M  V30 4 1 4 5
M  V30 5 2 4 6
M  V30 6 1 6 7
M  V30 7 2 7 8
M  V30 8 1 7 9
M  V30 9 1 9 10
M  V30 10 2 10 11
M  V30 11 1 10 12
M  V30 12 1 8 2
M  V30 13 1 11 6
M  V30 14 1 1 13
M  V30 15 1 1 14
M  V30 16 1 3 15
M  V30 17 1 8 16
M  V30 18 1 12 17
M  V30 19 1 12 18
M  V30 END BOND
M  V30 END CTAB
M  END
