
     RDKit          3D

  0  0  0  0  0  0  0  0  0  0999 V3000
M  V30 BEGIN CTAB
M  V30 COUNTS 30 30 0 0 0
M  V30 BEGIN ATOM
M  V30 1 C 4.53853 0.341819 -0.469168 0
M  V30 2 C 3.04473 0.601321 -0.357459 0
M  V30 3 C 2.37329 -0.710795 -0.0448431 0
M  V30 4 C 0.925385 -0.626563 0.0933574 0
M  V30 5 C 0.270697 -0.115589 1.19781 0
M  V30 6 N 1.01536 0.363026 2.28048 0
M  V30 7 N -1.06706 -0.0723879 1.24589 0
M  V30 8 C -1.83222 -0.520326 0.230302 0
M  V30 9 N -1.23035 -1.01754 -0.845575 0
M  V30 10 C 0.125187 -1.07931 -0.934009 0
M  V30 11 O 0.586435 -1.56966 -1.99981 0
M  V30 12 C -3.31252 -0.441856 0.350671 0
M  V30 13 N -3.94767 -1.67382 -0.0789266 0
M  V30 14 C -3.80187 0.676898 -0.553491 0
M  V30 15 H 4.75392 -0.523146 -1.14187 0
M  V30 16 H 4.97744 0.0575554 0.52378 0
M  V30 17 H 5.09813 1.23629 -0.797718 0
M  V30 18 H 2.90688 1.35935 0.442274 0
M  V30 19 H 2.71556 0.951215 -1.35319 0
M  V30 20 H 2.61621 -1.40651 -0.872043 0
M  V30 21 H 2.88651 -1.12421 0.848249 0
M  V30 22 H 1.32988 -0.306331 3.01399 0
M  V30 23 H 1.25038 1.36314 2.35274 0
M  V30 24 H -1.81879 -1.36694 -1.63721 0
M  V30 25 H -3.61713 -0.235066 1.37921 0
M  V30 26 H -4.84244 -1.77131 0.450847 0
M  V30 27 H -4.17957 -1.59751 -1.07722 0
M  V30 28 H -3.90088 0.22634 -1.57118 0
M  V30 29 H -4.80218 0.982251 -0.169898 0
M  V30 30 H -3.06186 1.4838 -0.505989 0
M  V30 END ATOM
M  V30 BEGIN BOND
M  V30 1 1 1 2
M  V30 2 1 2 3
M  V30 3 1 3 4
M  V30 4 2 4 5
M  V30 5 1 5 6
M  V30 6 1 5 7
M  V30 7 2 7 8
M  V30 8 1 8 9
M  V30 9 1 9 10
M  V30 10 2 10 11
M  V30 11 1 8 12
M  V30 12 1 12 13
M  V30 13 1 12 14
M  V30 14 1 10 4
M  V30 15 1 1 15
M  V30 16 1 1 16
M  V30 17 1 1 17
M  V30 18 1 2 18
M  V30 19 1 2 19
M  V30 20 1 3 20
M  V30 21 1 3 21
M  V30 22 1 6 22
M  V30 23 1 6 23
M  V30 24 1 9 24
M  V30 25 1 12 25
M  V30 26 1 13 26
M  V30 27 1 13 27
M  V30 28 1 14 28
M  V30 29 1 14 29
M  V30 30 1 14 30
M  V30 END BOND
M  V30 END CTAB
M  END
