
     RDKit          3D

  0  0  0  0  0  0  0  0  0  0999 V3000
M  V30 BEGIN CTAB
M  V30 COUNTS 26 26 0 0 0
M  V30 BEGIN ATOM
M  V30 1 N -3.66919 0.946254 0.541181 0
M  V30 2 C -2.44422 1.08684 -0.227964 0
M  V30 3 C -2.2232 -0.191752 -1.01323 0
M  V30 4 S -0.74446 -0.157444 -2.01062 0
M  V30 5 C 0.762363 -0.115383 -1.10417 0
M  V30 6 C 1.35861 1.06441 -0.724316 0
M  V30 7 C 2.53418 1.13289 -0.0206617 0
M  V30 8 C 3.16887 -0.0356373 0.335965 0
M  V30 9 C 2.60979 -1.23369 -0.0210686 0
M  V30 10 C 1.41399 -1.2848 -0.736972 0
M  V30 11 N 4.39416 0.021408 1.07003 0
M  V30 12 C -2.26709 -1.38861 -0.0692121 0
M  V30 13 H -4.52724 0.909345 -0.0721457 0
M  V30 14 H -3.77495 1.73714 1.23415 0
M  V30 15 H -2.63501 1.89869 -0.962483 0
M  V30 16 H -1.63901 1.30563 0.482914 0
M  V30 17 H -3.09683 -0.307066 -1.68462 0
M  V30 18 H 0.888814 1.99553 -0.986762 0
M  V30 19 H 2.99972 2.06342 0.276289 0
M  V30 20 H 3.13829 -2.14194 0.276321 0
M  V30 21 H 1.0359 -2.26006 -0.9824 0
M  V30 22 H 4.70205 -0.833506 1.59035 0
M  V30 23 H 4.98037 0.859498 1.10775 0
M  V30 24 H -1.78753 -1.18434 0.901107 0
M  V30 25 H -3.34657 -1.65134 0.123097 0
M  V30 26 H -1.83181 -2.23548 -0.610938 0
M  V30 END ATOM
M  V30 BEGIN BOND
M  V30 1 1 1 2
M  V30 2 1 2 3
M  V30 3 1 3 4
M  V30 4 1 4 5
M  V30 5 2 5 6
M  V30 6 1 6 7
M  V30 7 2 7 8
M  V30 8 1 8 9
M  V30 9 2 9 10
M  V30 10 1 8 11
M  V30 11 1 3 12
M  V30 12 1 10 5
M  V30 13 1 1 13
M  V30 14 1 1 14
M  V30 15 1 2 15
M  V30 16 1 2 16
M  V30 17 1 3 17
M  V30 18 1 6 18
M  V30 19 1 7 19
M  V30 20 1 9 20
M  V30 21 1 10 21
M  V30 22 1 11 22
M  V30 23 1 11 23
M  V30 24 1 12 24
M  V30 25 1 12 25
M  V30 26 1 12 26
M  V30 END BOND
M  V30 END CTAB
M  END
