
     RDKit          3D

  0  0  0  0  0  0  0  0  0  0999 V3000
M  V30 BEGIN CTAB
M  V30 COUNTS 49 53 0 0 0
M  V30 BEGIN ATOM
M  V30 1 N 5.46731 -1.50452 0.363469 0
M  V30 2 C 5.26981 -0.211832 -0.173116 0
M  V30 3 N 4.19563 0.510123 0.18337 0
M  V30 4 C 3.94583 1.74262 -0.287155 0
M  V30 5 C 2.7269 2.42717 0.185506 0
M  V30 6 S 1.28905 2.09939 -0.842502 0
M  V30 7 C 0.786753 0.388275 -0.763551 0
M  V30 8 N 1.25229 -0.552716 -1.58313 0
M  V30 9 N 0.713745 -1.69235 -1.27682 0
M  V30 10 C -0.139722 -1.49831 -0.213448 0
M  V30 11 N -0.0965328 -0.212312 0.101692 0
M  V30 12 C -0.779647 0.532875 1.10421 0
M  V30 13 C -2.02782 1.21045 0.656149 0
M  V30 14 C -2.07933 2.6005 0.484883 0
M  V30 15 C -3.20186 3.25987 0.0569718 0
M  V30 16 C -4.34736 2.54079 -0.223858 0
M  V30 17 C -4.35873 1.17455 -0.0745286 0
M  V30 18 C -3.19322 0.556028 0.361995 0
M  V30 19 O -5.62923 0.722512 -0.424315 0
M  V30 20 C -6.51524 1.83709 -0.395903 0
M  V30 21 O -5.61476 2.90524 -0.66436 0
M  V30 22 C -0.884832 -2.64108 0.327781 0
M  V30 23 C -1.5276 -2.71233 1.5208 0
M  V30 24 C -2.25459 -3.82513 1.93414 0
M  V30 25 C -2.36035 -4.93645 1.13437 0
M  V30 26 C -1.71214 -4.87263 -0.0747624 0
M  V30 27 C -0.998211 -3.77911 -0.48021 0
M  V30 28 N 4.81181 2.28378 -1.15832 0
M  V30 29 C 5.89789 1.58793 -1.53651 0
M  V30 30 N 6.12623 0.355305 -1.0513 0
M  V30 31 N 6.82691 2.16986 -2.47229 0
M  V30 32 H 5.12555 -1.70991 1.31812 0
M  V30 33 H 5.948 -2.22591 -0.200487 0
M  V30 34 H 2.51027 2.07075 1.212 0
M  V30 35 H 2.87187 3.53739 0.204366 0
M  V30 36 H -0.853615 0.033777 2.07427 0
M  V30 37 H -0.0977232 1.43316 1.40452 0
M  V30 38 H -1.20786 3.17756 0.706639 0
M  V30 39 H -3.25382 4.32481 -0.0784869 0
M  V30 40 H -3.24859 -0.507614 0.460497 0
M  V30 41 H -6.97197 1.9718 0.602189 0
M  V30 42 H -7.27246 1.71865 -1.19577 0
M  V30 43 H -1.48249 -1.89467 2.19881 0
M  V30 44 H -2.74665 -3.83128 2.89024 0
M  V30 45 H -2.92359 -5.81699 1.43791 0
M  V30 46 H -1.78766 -5.73321 -0.710902 0
M  V30 47 H -0.501001 -3.76125 -1.4418 0
M  V30 48 H 6.48135 2.49302 -3.37765 0
M  V30 49 H 7.82139 2.2543 -2.2237 0
M  V30 END ATOM
M  V30 BEGIN BOND
M  V30 1 1 1 2
M  V30 2 2 2 3
M  V30 3 1 3 4
M  V30 4 1 4 5
M  V30 5 1 5 6
M  V30 6 1 6 7
M  V30 7 2 7 8
M  V30 8 1 8 9
M  V30 9 2 9 10
M  V30 10 1 10 11
M  V30 11 1 11 12
M  V30 12 1 12 13
M  V30 13 2 13 14
M  V30 14 1 14 15
M  V30 15 2 15 16
M  V30 16 1 16 17
M  V30 17 2 17 18
M  V30 18 1 17 19
M  V30 19 1 19 20
M  V30 20 1 20 21
M  V30 21 1 10 22
M  V30 22 2 22 23
M  V30 23 1 23 24
M  V30 24 2 24 25
M  V30 25 1 25 26
M  V30 26 2 26 27
M  V30 27 2 4 28
M  V30 28 1 28 29
M  V30 29 2 29 30
M  V30 30 1 29 31
M  V30 31 1 30 2
M  V30 32 1 11 7
M  V30 33 1 18 13
M  V30 34 1 27 22
M  V30 35 1 21 16
M  V30 36 1 1 32
M  V30 37 1 1 33
M  V30 38 1 5 34
M  V30 39 1 5 35
M  V30 40 1 12 36
M  V30 41 1 12 37
M  V30 42 1 14 38
M  V30 43 1 15 39
M  V30 44 1 18 40
M  V30 45 1 20 41
M  V30 46 1 20 42
M  V30 47 1 23 43
M  V30 48 1 24 44
M  V30 49 1 25 45
M  V30 50 1 26 46
M  V30 51 1 27 47
M  V30 52 1 31 48
M  V30 53 1 31 49
M  V30 END BOND
M  V30 END CTAB
M  END
