
     RDKit          3D

  0  0  0  0  0  0  0  0  0  0999 V3000
M  V30 BEGIN CTAB
M  V30 COUNTS 31 32 0 0 0
M  V30 BEGIN ATOM
M  V30 1 N -1.1686 2.39005 -0.757402 0
M  V30 2 C -1.44994 1.0914 -1.28041 0
M  V30 3 C -1.00645 -0.0454787 -0.383779 0
M  V30 4 C -1.37239 -1.34202 -1.07243 0
M  V30 5 C -2.57461 -1.9023 -0.336982 0
M  V30 6 C -3.09939 -0.70237 0.419877 0
M  V30 7 C -1.79744 -0.0273652 0.878452 0
M  V30 8 C 0.459973 0.0771593 -0.180934 0
M  V30 9 N 1.2667 -0.744292 0.547723 0
M  V30 10 N 2.5171 -0.310375 0.491811 0
M  V30 11 C 2.55346 0.799038 -0.271441 0
M  V30 12 N 1.28783 1.01688 -0.671077 0
M  V30 13 N 3.71406 1.59422 -0.594567 0
M  V30 14 C 3.68456 -0.912058 1.13893 0
M  V30 15 H -0.407472 2.9128 -1.24274 0
M  V30 16 H -0.991545 2.44986 0.251885 0
M  V30 17 H -0.83545 0.981848 -2.22265 0
M  V30 18 H -2.50598 0.969632 -1.60164 0
M  V30 19 H -0.532286 -2.05607 -0.920994 0
M  V30 20 H -1.59421 -1.19471 -2.14275 0
M  V30 21 H -3.29276 -2.27906 -1.07785 0
M  V30 22 H -2.27889 -2.68959 0.386333 0
M  V30 23 H -3.6794 -0.0218317 -0.234467 0
M  V30 24 H -3.69578 -0.949298 1.29927 0
M  V30 25 H -1.35704 -0.608516 1.69683 0
M  V30 26 H -2.09096 0.997443 1.17047 0
M  V30 27 H 4.19737 1.43262 -1.51565 0
M  V30 28 H 4.01208 2.28774 0.103455 0
M  V30 29 H 4.03367 -1.79682 0.53202 0
M  V30 30 H 3.49002 -1.22367 2.16664 0
M  V30 31 H 4.51377 -0.194857 1.14573 0
M  V30 END ATOM
M  V30 BEGIN BOND
M  V30 1 1 1 2
M  V30 2 1 2 3
M  V30 3 1 3 4
M  V30 4 1 4 5
M  V30 5 1 5 6
M  V30 6 1 6 7
M  V30 7 1 3 8
M  V30 8 2 8 9
M  V30 9 1 9 10
M  V30 10 1 10 11
M  V30 11 2 11 12
M  V30 12 1 11 13
M  V30 13 1 10 14
M  V30 14 1 7 3
M  V30 15 1 12 8
M  V30 16 1 1 15
M  V30 17 1 1 16
M  V30 18 1 2 17
M  V30 19 1 2 18
M  V30 20 1 4 19
M  V30 21 1 4 20
M  V30 22 1 5 21
M  V30 23 1 5 22
M  V30 24 1 6 23
M  V30 25 1 6 24
M  V30 26 1 7 25
M  V30 27 1 7 26
M  V30 28 1 13 27
M  V30 29 1 13 28
M  V30 30 1 14 29
M  V30 31 1 14 30
M  V30 32 1 14 31
M  V30 END BOND
M  V30 END CTAB
M  END
