
     RDKit          3D

  0  0  0  0  0  0  0  0  0  0999 V3000
M  V30 BEGIN CTAB
M  V30 COUNTS 30 30 0 0 0
M  V30 BEGIN ATOM
M  V30 1 C 2.66946 0.0631559 0.953035 0
M  V30 2 C 1.54873 0.591541 0.132127 0
M  V30 3 C 0.215873 -0.102713 0.452209 0
M  V30 4 C 0.467646 -1.54943 0.142196 0
M  V30 5 C -0.761571 -2.38827 0.045515 0
M  V30 6 C -1.60432 -1.76096 -1.07484 0
M  V30 7 C -1.95556 -0.408208 -0.574576 0
M  V30 8 N -0.83768 0.453021 -0.304996 0
M  V30 9 S -1.56569 1.85788 0.358463 0
M  V30 10 O -2.2665 1.50612 1.65586 0
M  V30 11 O -2.68628 2.22799 -0.60652 0
M  V30 12 N -0.571329 3.1877 0.553719 0
M  V30 13 N 1.75732 0.366321 -1.30769 0
M  V30 14 H 3.41574 -0.398657 0.241811 0
M  V30 15 H 2.37793 -0.662684 1.73088 0
M  V30 16 H 3.23261 0.86797 1.46975 0
M  V30 17 H 1.50523 1.66887 0.26577 0
M  V30 18 H 0.0506867 -0.035254 1.55735 0
M  V30 19 H 0.990329 -1.62693 -0.856996 0
M  V30 20 H 1.15049 -2.03821 0.857853 0
M  V30 21 H -1.36069 -2.40215 0.970135 0
M  V30 22 H -0.477293 -3.38904 -0.293966 0
M  V30 23 H -0.973813 -1.70198 -1.98634 0
M  V30 24 H -2.52283 -2.32324 -1.2619 0
M  V30 25 H -2.602 -0.535121 0.333752 0
M  V30 26 H -2.57697 0.114223 -1.35733 0
M  V30 27 H -0.697276 3.72481 1.45219 0
M  V30 28 H -0.466465 3.79949 -0.275058 0
M  V30 29 H 2.48902 -0.346836 -1.48167 0
M  V30 30 H 2.0552 1.24058 -1.79074 0
M  V30 END ATOM
M  V30 BEGIN BOND
M  V30 1 1 1 2
M  V30 2 1 2 3
M  V30 3 1 3 4
M  V30 4 1 4 5
M  V30 5 1 5 6
M  V30 6 1 6 7
M  V30 7 1 7 8
M  V30 8 1 8 9
M  V30 9 2 9 10
M  V30 10 2 9 11
M  V30 11 1 9 12
M  V30 12 1 2 13
M  V30 13 1 8 3
M  V30 14 1 1 14
M  V30 15 1 1 15
M  V30 16 1 1 16
M  V30 17 1 2 17
M  V30 18 1 3 18
M  V30 19 1 4 19
M  V30 20 1 4 20
M  V30 21 1 5 21
M  V30 22 1 5 22
M  V30 23 1 6 23
M  V30 24 1 6 24
M  V30 25 1 7 25
M  V30 26 1 7 26
M  V30 27 1 12 27
M  V30 28 1 12 28
M  V30 29 1 13 29
M  V30 30 1 13 30
M  V30 END BOND
M  V30 END CTAB
M  END
