
     RDKit          3D

  0  0  0  0  0  0  0  0  0  0999 V3000
M  V30 BEGIN CTAB
M  V30 COUNTS 56 59 0 0 0
M  V30 BEGIN ATOM
M  V30 1 C -3.41527 3.43365 -0.814858 0
M  V30 2 C -3.18566 2.20978 -1.68392 0 CFG=1
M  V30 3 N -1.77946 1.88047 -1.78744 0
M  V30 4 C -1.05081 1.52362 -0.632091 0
M  V30 5 N -1.64646 1.48323 0.563934 0
M  V30 6 C -0.999499 1.14783 1.697 0
M  V30 7 N -1.6655 1.11482 2.95892 0
M  V30 8 N 0.305342 0.845434 1.5833 0
M  V30 9 C 0.960362 0.867355 0.412616 0
M  V30 10 N 0.274653 1.20756 -0.689839 0
M  V30 11 C 2.37709 0.530569 0.325818 0
M  V30 12 C 3.09493 0.174253 1.42722 0
M  V30 13 C 4.45511 -0.161145 1.41302 0
M  V30 14 F 5.07567 -0.476151 2.59056 0
M  V30 15 C 5.09222 -0.123564 0.195853 0
M  V30 16 C 6.52075 -0.499358 0.108805 0
M  V30 17 C 6.70005 -1.98516 0.029011 0
M  V30 18 N 6.19922 -2.73106 1.12256 0
M  V30 19 C 8.14589 -2.34348 -0.180271 0
M  V30 20 O 8.86456 -1.74531 -1.19587 0
M  V30 21 O 8.72177 -3.17876 0.550034 0
M  V30 22 C 4.38892 0.239807 -0.967113 0
M  V30 23 C 3.05696 0.557144 -0.881306 0
M  V30 24 C -3.88358 1.01502 -1.19183 0
M  V30 25 C -4.85934 1.12432 -0.232221 0
M  V30 26 C -5.52051 -0.0110525 0.237522 0
M  V30 27 C -5.20881 -1.25046 -0.248945 0
M  V30 28 C -5.87608 -2.3608 0.229707 0
M  V30 29 C -6.86001 -2.28676 1.19127 0
M  V30 30 C -7.17549 -1.02108 1.68524 0
M  V30 31 C -6.49521 0.0818178 1.19299 0
M  V30 32 C -4.22514 -1.33735 -1.21299 0
M  V30 33 C -3.55852 -0.219822 -1.69055 0
M  V30 34 H -3.51096 3.20567 0.25684 0
M  V30 35 H -4.40118 3.88625 -1.12655 0
M  V30 36 H -2.63016 4.19708 -0.988324 0
M  V30 37 H -3.58063 2.41073 -2.72498 0
M  V30 38 H -1.32077 1.91456 -2.73877 0
M  V30 39 H -2.69544 1.04999 3.03188 0
M  V30 40 H -1.05687 1.15985 3.80894 0
M  V30 41 H 2.60011 0.141976 2.38659 0
M  V30 42 H 7.02552 -0.163711 1.05882 0
M  V30 43 H 7.04225 0.0355231 -0.717663 0
M  V30 44 H 6.17419 -2.31185 -0.916622 0
M  V30 45 H 6.92909 -3.16383 1.73048 0
M  V30 46 H 5.4296 -3.3923 0.885966 0
M  V30 47 H 9.30895 -0.829687 -1.10496 0
M  V30 48 H 4.94282 0.251818 -1.89043 0
M  V30 49 H 2.51255 0.840494 -1.79186 0
M  V30 50 H -5.16417 2.05465 0.197797 0
M  V30 51 H -5.61837 -3.33309 -0.164727 0
M  V30 52 H -7.39595 -3.11862 1.58473 0
M  V30 53 H -7.94209 -0.936279 2.4383 0
M  V30 54 H -6.73674 1.07177 1.57431 0
M  V30 55 H -3.94922 -2.30794 -1.62449 0
M  V30 56 H -2.79066 -0.368431 -2.4555 0
M  V30 END ATOM
M  V30 BEGIN BOND
M  V30 1 1 1 2
M  V30 2 1 2 3
M  V30 3 1 3 4
M  V30 4 2 4 5
M  V30 5 1 5 6
M  V30 6 1 6 7
M  V30 7 2 6 8
M  V30 8 1 8 9
M  V30 9 2 9 10
M  V30 10 1 9 11
M  V30 11 2 11 12
M  V30 12 1 12 13
M  V30 13 1 13 14
M  V30 14 2 13 15
M  V30 15 1 15 16
M  V30 16 1 16 17
M  V30 17 1 17 18
M  V30 18 1 17 19
M  V30 19 1 19 20
M  V30 20 2 19 21
M  V30 21 1 15 22
M  V30 22 2 22 23
M  V30 23 1 2 24
M  V30 24 2 24 25
M  V30 25 1 25 26
M  V30 26 2 26 27
M  V30 27 1 27 28
M  V30 28 2 28 29
M  V30 29 1 29 30
M  V30 30 2 30 31
M  V30 31 1 27 32
M  V30 32 2 32 33
M  V30 33 1 10 4
M  V30 34 1 23 11
M  V30 35 1 33 24
M  V30 36 1 31 26
M  V30 37 1 1 34
M  V30 38 1 1 35
M  V30 39 1 1 36
M  V30 40 1 2 37 CFG=3
M  V30 41 1 3 38
M  V30 42 1 7 39
M  V30 43 1 7 40
M  V30 44 1 12 41
M  V30 45 1 16 42
M  V30 46 1 16 43
M  V30 47 1 17 44
M  V30 48 1 18 45
M  V30 49 1 18 46
M  V30 50 1 20 47
M  V30 51 1 22 48
M  V30 52 1 23 49
M  V30 53 1 25 50
M  V30 54 1 28 51
M  V30 55 1 29 52
M  V30 56 1 30 53
M  V30 57 1 31 54
M  V30 58 1 32 55
M  V30 59 1 33 56
M  V30 END BOND
M  V30 END CTAB
M  END
