
     RDKit          3D

  0  0  0  0  0  0  0  0  0  0999 V3000
M  V30 BEGIN CTAB
M  V30 COUNTS 41 41 0 0 0
M  V30 BEGIN ATOM
M  V30 1 N -3.75784 -0.885947 1.54454 0
M  V30 2 C -2.36508 -1.10897 1.42861 0
M  V30 3 C -1.74504 -0.54548 0.109788 0
M  V30 4 C -1.95996 0.939675 0.10527 0
M  V30 5 C -1.42663 1.61682 -1.10826 0
M  V30 6 C -3.39233 1.38382 0.276413 0
M  V30 7 N -0.341298 -0.82873 0.257402 0
M  V30 8 C 0.687073 -0.814429 -0.680681 0
M  V30 9 O 0.538767 -0.555803 -1.88606 0
M  V30 10 C 2.11285 -1.12494 -0.282149 0
M  V30 11 C 3.05074 -1.05083 -1.44632 0
M  V30 12 C 4.21615 -0.18735 -1.01051 0
M  V30 13 C 3.6941 0.677128 0.090295 0
M  V30 14 C 2.62573 -0.153607 0.723105 0
M  V30 15 N 3.20108 1.94797 -0.407747 0
M  V30 16 C -2.37972 -1.21084 -1.05687 0
M  V30 17 H -4.31914 -1.54081 0.989961 0
M  V30 18 H -4.01514 -0.790986 2.53704 0
M  V30 19 H -1.78823 -0.701542 2.29067 0
M  V30 20 H -2.18332 -2.21602 1.4527 0
M  V30 21 H -1.36168 1.38382 0.973525 0
M  V30 22 H -0.350061 1.90238 -1.00163 0
M  V30 23 H -2.02552 2.60204 -1.18814 0
M  V30 24 H -1.68435 1.11833 -2.05216 0
M  V30 25 H -4.11114 0.790361 -0.307772 0
M  V30 26 H -3.68173 1.60112 1.31699 0
M  V30 27 H -3.45603 2.41366 -0.21766 0
M  V30 28 H -0.0519483 -1.08796 1.27691 0
M  V30 29 H 2.08248 -2.1735 0.0892293 0
M  V30 30 H 2.54498 -0.553424 -2.30962 0
M  V30 31 H 3.40199 -2.05826 -1.77943 0
M  V30 32 H 4.52224 0.482524 -1.85773 0
M  V30 33 H 5.05544 -0.820578 -0.663142 0
M  V30 34 H 4.48092 0.917667 0.858518 0
M  V30 35 H 1.85138 0.52052 1.13746 0
M  V30 36 H 3.05778 -0.722427 1.58108 0
M  V30 37 H 4.04707 2.49357 -0.715388 0
M  V30 38 H 2.80415 2.46837 0.431205 0
M  V30 39 H -1.89439 -0.891663 -1.98782 0
M  V30 40 H -2.25035 -2.31769 -1.01039 0
M  V30 41 H -3.43399 -0.918003 -1.12471 0
M  V30 END ATOM
M  V30 BEGIN BOND
M  V30 1 1 1 2
M  V30 2 1 2 3
M  V30 3 1 3 4
M  V30 4 1 4 5
M  V30 5 1 4 6
M  V30 6 1 3 7
M  V30 7 1 7 8
M  V30 8 2 8 9
M  V30 9 1 8 10
M  V30 10 1 10 11
M  V30 11 1 11 12
M  V30 12 1 12 13
M  V30 13 1 13 14
M  V30 14 1 13 15
M  V30 15 1 3 16
M  V30 16 1 14 10
M  V30 17 1 1 17
M  V30 18 1 1 18
M  V30 19 1 2 19
M  V30 20 1 2 20
M  V30 21 1 4 21
M  V30 22 1 5 22
M  V30 23 1 5 23
M  V30 24 1 5 24
M  V30 25 1 6 25
M  V30 26 1 6 26
M  V30 27 1 6 27
M  V30 28 1 7 28
M  V30 29 1 10 29
M  V30 30 1 11 30
M  V30 31 1 11 31
M  V30 32 1 12 32
M  V30 33 1 12 33
M  V30 34 1 13 34
M  V30 35 1 14 35
M  V30 36 1 14 36
M  V30 37 1 15 37
M  V30 38 1 15 38
M  V30 39 1 16 39
M  V30 40 1 16 40
M  V30 41 1 16 41
M  V30 END BOND
M  V30 END CTAB
M  END
