
     RDKit          3D

  0  0  0  0  0  0  0  0  0  0999 V3000
M  V30 BEGIN CTAB
M  V30 COUNTS 28 29 0 0 0
M  V30 BEGIN ATOM
M  V30 1 N 3.77801 -0.080865 -2.63972 0
M  V30 2 C 3.11033 -0.230302 -1.40157 0
M  V30 3 C 1.82065 -0.746433 -1.3947 0
M  V30 4 C 1.1272 -0.911803 -0.215287 0
M  V30 5 S -0.521384 -1.57993 -0.293834 0
M  V30 6 C -1.67229 -0.189112 -0.470614 0
M  V30 7 C -3.10755 -0.659432 -0.546327 0
M  V30 8 C -3.84919 0.439952 0.19849 0
M  V30 9 C -2.92065 0.684404 1.36764 0
M  V30 10 C -1.56692 0.707093 0.735543 0
M  V30 11 N 1.71961 -0.563928 0.943037 0
M  V30 12 C 2.97809 -0.0570048 0.97065 0
M  V30 13 N 3.62447 0.0892085 -0.211882 0
M  V30 14 N 3.5663 0.296502 2.20565 0
M  V30 15 H 4.14294 -0.930708 -3.10993 0
M  V30 16 H 3.92274 0.832249 -3.10336 0
M  V30 17 H 1.32941 -1.03068 -2.31106 0
M  V30 18 H -1.38371 0.406507 -1.36758 0
M  V30 19 H -3.27503 -1.63722 -0.0811243 0
M  V30 20 H -3.50241 -0.682791 -1.57699 0
M  V30 21 H -4.84578 0.100041 0.495347 0
M  V30 22 H -3.85503 1.36174 -0.412104 0
M  V30 23 H -2.97935 -0.162704 2.10373 0
M  V30 24 H -3.17778 1.65112 1.8839 0
M  V30 25 H -0.766478 0.319171 1.43053 0
M  V30 26 H -1.25513 1.72965 0.460727 0
M  V30 27 H 3.4294 1.24002 2.58773 0
M  V30 28 H 4.12952 -0.394745 2.71609 0
M  V30 END ATOM
M  V30 BEGIN BOND
M  V30 1 1 1 2
M  V30 2 2 2 3
M  V30 3 1 3 4
M  V30 4 1 4 5
M  V30 5 1 5 6
M  V30 6 1 6 7
M  V30 7 1 7 8
M  V30 8 1 8 9
M  V30 9 1 9 10
M  V30 10 2 4 11
M  V30 11 1 11 12
M  V30 12 2 12 13
M  V30 13 1 12 14
M  V30 14 1 13 2
M  V30 15 1 10 6
M  V30 16 1 1 15
M  V30 17 1 1 16
M  V30 18 1 3 17
M  V30 19 1 6 18
M  V30 20 1 7 19
M  V30 21 1 7 20
M  V30 22 1 8 21
M  V30 23 1 8 22
M  V30 24 1 9 23
M  V30 25 1 9 24
M  V30 26 1 10 25
M  V30 27 1 10 26
M  V30 28 1 14 27
M  V30 29 1 14 28
M  V30 END BOND
M  V30 END CTAB
M  END
