
     RDKit          3D

  0  0  0  0  0  0  0  0  0  0999 V3000
M  V30 BEGIN CTAB
M  V30 COUNTS 29 30 0 0 0
M  V30 BEGIN ATOM
M  V30 1 N 5.98834 -1.00329 0.261558 0
M  V30 2 N 4.85972 -0.170748 0.268234 0
M  V30 3 C 3.57433 -0.782518 0.149132 0
M  V30 4 O 3.48506 -2.01811 0.0434754 0
M  V30 5 C 2.40013 0.0927288 0.158002 0
M  V30 6 N 2.36113 1.42374 0.27406 0
M  V30 7 N 1.12007 1.82779 0.240293 0
M  V30 8 N 0.290717 0.775629 0.10027 0
M  V30 9 C 1.07322 -0.295334 0.0488005 0
M  V30 10 N 0.712347 -1.65621 -0.0931134 0
M  V30 11 C -1.13021 0.867646 0.0227503 0
M  V30 12 C -1.6882 2.12354 -0.244021 0
M  V30 13 C -3.04623 2.32015 -0.339574 0
M  V30 14 C -3.91978 1.2675 -0.173532 0
M  V30 15 C -3.39509 0.0263778 0.0883399 0
M  V30 16 C -2.01199 -0.153167 0.182286 0
M  V30 17 C -4.34044 -1.10288 0.257484 0
M  V30 18 F -3.59623 -2.24737 0.47999 0
M  V30 19 F -5.17318 -1.24221 -0.837154 0
M  V30 20 F -5.05815 -0.873494 1.41697 0
M  V30 21 H 5.80285 -1.82106 -0.366817 0
M  V30 22 H 6.76453 -0.41611 -0.147801 0
M  V30 23 H 4.95002 0.853357 0.354067 0
M  V30 24 H 0.649968 -2.20114 -0.95257 0
M  V30 25 H 0.481846 -2.16243 0.813098 0
M  V30 26 H -1.0125 2.95868 -0.376114 0
M  V30 27 H -3.48288 3.29118 -0.546159 0
M  V30 28 H -4.9948 1.4482 -0.25432 0
M  V30 29 H -1.66459 -1.13045 0.390837 0
M  V30 END ATOM
M  V30 BEGIN BOND
M  V30 1 1 1 2
M  V30 2 1 2 3
M  V30 3 2 3 4
M  V30 4 1 3 5
M  V30 5 1 5 6
M  V30 6 2 6 7
M  V30 7 1 7 8
M  V30 8 1 8 9
M  V30 9 1 9 10
M  V30 10 1 8 11
M  V30 11 2 11 12
M  V30 12 1 12 13
M  V30 13 2 13 14
M  V30 14 1 14 15
M  V30 15 2 15 16
M  V30 16 1 15 17
M  V30 17 1 17 18
M  V30 18 1 17 19
M  V30 19 1 17 20
M  V30 20 2 9 5
M  V30 21 1 16 11
M  V30 22 1 1 21
M  V30 23 1 1 22
M  V30 24 1 2 23
M  V30 25 1 10 24
M  V30 26 1 10 25
M  V30 27 1 12 26
M  V30 28 1 13 27
M  V30 29 1 14 28
M  V30 30 1 16 29
M  V30 END BOND
M  V30 END CTAB
M  END
