
     RDKit          3D

  0  0  0  0  0  0  0  0  0  0999 V3000
M  V30 BEGIN CTAB
M  V30 COUNTS 32 33 0 0 0
M  V30 BEGIN ATOM
M  V30 1 N 4.15115 0.670466 1.96377 0
M  V30 2 C 3.20869 0.296459 0.964864 0
M  V30 3 N 3.53567 -0.0478928 -0.281543 0
M  V30 4 N 2.45981 -0.339336 -0.966267 0
M  V30 5 C 1.37869 -0.194557 -0.183717 0
M  V30 6 C 1.84219 0.208256 1.04218 0
M  V30 7 C -0.000146312 -0.455703 -0.654066 0 CFG=1
M  V30 8 C -0.397977 -1.78329 -0.0412316 0
M  V30 9 O -1.39216 -2.39768 -0.789391 0
M  V30 10 C -2.65342 -2.24181 -0.243344 0
M  V30 11 C -2.84849 -0.885486 0.391783 0
M  V30 12 C -2.28048 0.14413 -0.515158 0
M  V30 13 N -0.943398 0.566391 -0.268259 0
M  V30 14 S -0.737044 2.00861 -1.20162 0
M  V30 15 O -1.69932 3.06621 -0.73857 0
M  V30 16 O -0.985017 1.78578 -2.65399 0
M  V30 17 N 0.853268 2.59623 -0.89116 0
M  V30 18 H 3.94555 0.434657 2.94799 0
M  V30 19 H 5.04004 1.17083 1.75527 0
M  V30 20 H 2.4903 -0.640366 -1.98618 0
M  V30 21 H 1.22619 0.412068 1.89489 0
M  V30 22 H -0.00373695 -0.50238 -1.74977 0
M  V30 23 H -0.655005 -1.65532 1.02065 0
M  V30 24 H 0.475164 -2.48118 -0.0624946 0
M  V30 25 H -2.82409 -3.08431 0.456264 0
M  V30 26 H -3.40593 -2.33439 -1.05207 0
M  V30 27 H -3.9467 -0.724247 0.449019 0
M  V30 28 H -2.48189 -0.840154 1.43655 0
M  V30 29 H -2.35593 -0.232707 -1.55847 0
M  V30 30 H -2.9289 1.06445 -0.443963 0
M  V30 31 H 0.805546 3.10862 0.0262531 0
M  V30 32 H 1.12736 3.30763 -1.60465 0
M  V30 END ATOM
M  V30 BEGIN BOND
M  V30 1 1 1 2
M  V30 2 2 2 3
M  V30 3 1 3 4
M  V30 4 1 4 5
M  V30 5 2 5 6
M  V30 6 1 5 7
M  V30 7 1 7 8
M  V30 8 1 8 9
M  V30 9 1 9 10
M  V30 10 1 10 11
M  V30 11 1 11 12
M  V30 12 1 12 13
M  V30 13 1 13 14
M  V30 14 2 14 15
M  V30 15 2 14 16
M  V30 16 1 14 17
M  V30 17 1 6 2
M  V30 18 1 13 7
M  V30 19 1 1 18
M  V30 20 1 1 19
M  V30 21 1 4 20
M  V30 22 1 6 21
M  V30 23 1 7 22 CFG=3
M  V30 24 1 8 23
M  V30 25 1 8 24
M  V30 26 1 10 25
M  V30 27 1 10 26
M  V30 28 1 11 27
M  V30 29 1 11 28
M  V30 30 1 12 29
M  V30 31 1 12 30
M  V30 32 1 17 31
M  V30 33 1 17 32
M  V30 END BOND
M  V30 END CTAB
M  END
