
     RDKit          3D

  0  0  0  0  0  0  0  0  0  0999 V3000
M  V30 BEGIN CTAB
M  V30 COUNTS 24 24 0 0 0
M  V30 BEGIN ATOM
M  V30 1 C -1.08442 -1.72107 -0.176109 0
M  V30 2 C -0.614954 -0.328203 0.106209 0
M  V30 3 C 0.855368 -0.193911 -0.23578 0
M  V30 4 C 1.38365 -0.836048 -1.33324 0
M  V30 5 S 3.0336 -0.34285 -1.24825 0
M  V30 6 C 2.92473 0.635442 0.168064 0
M  V30 7 N 1.66216 0.523732 0.473943 0
M  V30 8 N 3.92925 1.38571 0.865327 0
M  V30 9 C -1.33113 0.741969 -0.68404 0
M  V30 10 C -2.79293 0.69398 -0.31725 0
M  V30 11 N -0.832484 -0.0622034 1.5134 0
M  V30 12 H -0.533262 -2.38978 0.492354 0
M  V30 13 H -1.02277 -2.01287 -1.24181 0
M  V30 14 H -2.18033 -1.78341 0.120933 0
M  V30 15 H 0.861573 -1.48941 -2.06914 0
M  V30 16 H 4.82526 0.921685 1.13778 0
M  V30 17 H 3.77687 2.36321 1.1096 0
M  V30 18 H -0.932287 1.72816 -0.325362 0
M  V30 19 H -1.14007 0.677993 -1.78013 0
M  V30 20 H -3.39504 0.27143 -1.1188 0
M  V30 21 H -3.18669 1.73776 -0.157359 0
M  V30 22 H -2.95564 0.124274 0.599318 0
M  V30 23 H 0.040496 0.226474 1.99499 0
M  V30 24 H -1.29098 -0.872072 1.98783 0
M  V30 END ATOM
M  V30 BEGIN BOND
M  V30 1 1 1 2
M  V30 2 1 2 3
M  V30 3 2 3 4
M  V30 4 1 4 5
M  V30 5 1 5 6
M  V30 6 2 6 7
M  V30 7 1 6 8
M  V30 8 1 2 9
M  V30 9 1 9 10
M  V30 10 1 2 11
M  V30 11 1 7 3
M  V30 12 1 1 12
M  V30 13 1 1 13
M  V30 14 1 1 14
M  V30 15 1 4 15
M  V30 16 1 8 16
M  V30 17 1 8 17
M  V30 18 1 9 18
M  V30 19 1 9 19
M  V30 20 1 10 20
M  V30 21 1 10 21
M  V30 22 1 10 22
M  V30 23 1 11 23
M  V30 24 1 11 24
M  V30 END BOND
M  V30 END CTAB
M  END
