
     RDKit          3D

  0  0  0  0  0  0  0  0  0  0999 V3000
M  V30 BEGIN CTAB
M  V30 COUNTS 128 133 0 0 0
M  V30 BEGIN ATOM
M  V30 1 N 7.31569 2.37179 2.18937 0
M  V30 2 C 7.00968 1.89052 0.90659 0 CFG=1
M  V30 3 C 7.95799 0.787219 0.486067 0
M  V30 4 C 9.36262 1.25413 0.45191 0
M  V30 5 C 10.1973 1.1774 1.55386 0
M  V30 6 C 11.517 1.62285 1.48002 0
M  V30 7 C 12.0065 2.14175 0.31961 0
M  V30 8 C 11.2014 2.23482 -0.804222 0
M  V30 9 C 9.9204 1.79475 -0.707711 0
M  V30 10 C 5.59156 1.4242 0.81712 0
M  V30 11 O 4.89191 1.51247 1.85851 0
M  V30 12 N 5.13292 0.922643 -0.40282 0
M  V30 13 C 3.7682 0.420283 -0.645645 0 CFG=1
M  V30 14 C 3.09548 1.34734 -1.64337 0
M  V30 15 C 2.57482 2.58461 -0.943293 0
M  V30 16 C 1.35596 2.30665 -0.130255 0
M  V30 17 C 0.158866 3.17338 -0.464476 0
M  V30 18 N -0.840171 3.01666 0.576099 0
M  V30 19 C -2.20689 3.2901 0.47723 0
M  V30 20 O -2.80624 3.54013 1.58637 0
M  V30 21 C -3.01388 3.3206 -0.737439 0 CFG=1
M  V30 22 C -2.73792 4.65206 -1.44374 0
M  V30 23 C -3.09373 5.84312 -0.632915 0
M  V30 24 C -4.55007 5.94296 -0.252212 0
M  V30 25 N -4.80111 7.1425 0.53004 0
M  V30 26 C -4.70004 8.41522 -0.052319 0
M  V30 27 N -4.40814 9.5362 0.77235 0
M  V30 28 N -4.85475 8.657 -1.30765 0
M  V30 29 N -2.88027 2.21182 -1.62677 0
M  V30 30 C -2.59804 0.879148 -1.3858 0
M  V30 31 O -1.58734 0.373607 -2.00572 0
M  V30 32 C -3.28471 -0.106248 -0.504896 0 CFG=2
M  V30 33 C -4.71559 0.33362 -0.229004 0
M  V30 34 C -5.48344 -0.581742 0.606924 0
M  V30 35 C -5.82475 -0.473449 1.93443 0
M  V30 36 N -6.54988 -1.55425 2.31255 0
M  V30 37 C -6.6763 -2.36512 1.21966 0
M  V30 38 C -6.03141 -1.78329 0.176266 0
M  V30 39 C -6.0036 -2.41122 -1.06865 0
M  V30 40 C -6.62915 -3.62162 -1.24518 0
M  V30 41 C -7.28225 -4.20991 -0.189042 0
M  V30 42 C -7.30483 -3.58213 1.04038 0
M  V30 43 N -2.57005 -0.247565 0.748456 0
M  V30 44 C -1.48602 -1.0466 1.07106 0
M  V30 45 O -0.420515 -0.4398 1.46653 0
M  V30 46 C -1.342 -2.51647 1.04111 0 CFG=1
M  V30 47 C -2.16064 -3.19289 -0.0495821 0
M  V30 48 C -1.89971 -4.69937 0.105546 0
M  V30 49 C -2.66099 -5.47969 -0.95017 0
M  V30 50 C -2.16482 -6.90153 -0.887936 0
M  V30 51 C -2.22314 -7.45913 0.523897 0
M  V30 52 C -3.14375 -6.53273 1.29433 0
M  V30 53 C -2.4472 -5.18778 1.43656 0
M  V30 54 N 0.0318494 -2.94891 1.05367 0
M  V30 55 C 1.20074 -2.38903 0.58098 0
M  V30 56 O 2.08803 -2.09602 1.48935 0
M  V30 57 C 1.63361 -2.05783 -0.795506 0 CFG=2
M  V30 58 C 1.39354 -3.18462 -1.79487 0
M  V30 59 C 2.4825 -4.19878 -1.51996 0
M  V30 60 C 3.46552 -3.44806 -0.658099 0
M  V30 61 N 3.10721 -2.067 -0.896246 0
M  V30 62 C 3.88149 -0.951279 -1.20036 0
M  V30 63 O 4.83729 -1.06049 -2.07037 0
M  V30 64 H 7.57721 3.32254 2.31529 0
M  V30 65 H 7.37014 1.71611 2.91812 0
M  V30 66 H 7.19626 2.73415 0.18232 0
M  V30 67 H 7.70073 0.336072 -0.483051 0
M  V30 68 H 7.87749 -0.0354266 1.25346 0
M  V30 69 H 9.81365 0.766626 2.4787 0
M  V30 70 H 12.1222 1.53891 2.37297 0
M  V30 71 H 13.0224 2.49719 0.219333 0
M  V30 72 H 11.6184 2.65193 -1.71658 0
M  V30 73 H 9.25889 1.85461 -1.57434 0
M  V30 74 H 5.79005 0.887524 -1.22698 0
M  V30 75 H 3.20553 0.43057 0.275701 0
M  V30 76 H 2.25745 0.869447 -2.14509 0
M  V30 77 H 3.85498 1.59463 -2.41007 0
M  V30 78 H 3.36107 2.99956 -0.252794 0
M  V30 79 H 2.32724 3.35357 -1.72299 0
M  V30 80 H 1.02993 1.25033 -0.325786 0
M  V30 81 H 1.57423 2.34707 0.971371 0
M  V30 82 H 0.528146 4.21653 -0.543035 0
M  V30 83 H -0.208054 2.89618 -1.46526 0
M  V30 84 H -0.498631 2.65152 1.52244 0
M  V30 85 H -4.108 3.38407 -0.495687 0
M  V30 86 H -3.42449 4.63713 -2.33125 0
M  V30 87 H -1.71975 4.70513 -1.85753 0
M  V30 88 H -2.91796 6.74151 -1.29986 0
M  V30 89 H -2.42586 6.01965 0.232592 0
M  V30 90 H -4.86112 5.0526 0.281464 0
M  V30 91 H -5.17597 6.07482 -1.1803 0
M  V30 92 H -5.05574 7.03902 1.52613 0
M  V30 93 H -5.1011 9.73573 1.55308 0
M  V30 94 H -3.57054 10.1508 0.647715 0
M  V30 95 H -5.06789 7.92932 -1.99798 0
M  V30 96 H -3.02425 2.47267 -2.6633 0
M  V30 97 H -3.37908 -1.0489 -1.07844 0
M  V30 98 H -4.65672 1.29848 0.332959 0
M  V30 99 H -5.1896 0.469892 -1.23288 0
M  V30 100 H -5.58845 0.312829 2.62269 0
M  V30 101 H -6.96073 -1.79396 3.2207 0
M  V30 102 H -5.47358 -1.92302 -1.90063 0
M  V30 103 H -6.58663 -4.08897 -2.23397 0
M  V30 104 H -7.77561 -5.17862 -0.354176 0
M  V30 105 H -7.82624 -4.06332 1.86014 0
M  V30 106 H -2.96902 0.390849 1.51551 0
M  V30 107 H -1.83572 -2.9229 1.99417 0
M  V30 108 H -1.8623 -2.8606 -1.05269 0
M  V30 109 H -3.21238 -3.06345 0.215173 0
M  V30 110 H -0.853033 -4.97006 0.0476588 0
M  V30 111 H -3.74249 -5.36111 -0.898739 0
M  V30 112 H -2.37359 -5.09473 -1.97388 0
M  V30 113 H -1.11569 -6.89715 -1.27952 0
M  V30 114 H -2.74187 -7.57595 -1.54202 0
M  V30 115 H -2.61719 -8.50332 0.520006 0
M  V30 116 H -1.2431 -7.48332 1.00908 0
M  V30 117 H -3.35876 -6.88766 2.31657 0
M  V30 118 H -4.12346 -6.45037 0.780915 0
M  V30 119 H -1.64748 -5.34076 2.18546 0
M  V30 120 H -3.17709 -4.43937 1.80318 0
M  V30 121 H 0.155701 -3.90955 1.54413 0
M  V30 122 H 1.19404 -1.15155 -1.21047 0
M  V30 123 H 0.434278 -3.65026 -1.61694 0
M  V30 124 H 1.44137 -2.83745 -2.82481 0
M  V30 125 H 2.09119 -5.07013 -0.922814 0
M  V30 126 H 2.96934 -4.58534 -2.41762 0
M  V30 127 H 3.41603 -3.78327 0.371309 0
M  V30 128 H 4.48453 -3.68607 -1.02857 0
M  V30 END ATOM
M  V30 BEGIN BOND
M  V30 1 1 1 2
M  V30 2 1 2 3
M  V30 3 1 3 4
M  V30 4 2 4 5
M  V30 5 1 5 6
M  V30 6 2 6 7
M  V30 7 1 7 8
M  V30 8 2 8 9
M  V30 9 1 2 10
M  V30 10 2 10 11
M  V30 11 1 10 12
M  V30 12 1 12 13
M  V30 13 1 13 14
M  V30 14 1 14 15
M  V30 15 1 15 16
M  V30 16 1 16 17
M  V30 17 1 17 18
M  V30 18 1 18 19
M  V30 19 2 19 20
M  V30 20 1 19 21
M  V30 21 1 21 22
M  V30 22 1 22 23
M  V30 23 1 23 24
M  V30 24 1 24 25
M  V30 25 1 25 26
M  V30 26 1 26 27
M  V30 27 2 26 28 CFG=2
M  V30 28 1 21 29
M  V30 29 1 29 30
M  V30 30 2 30 31
M  V30 31 1 30 32
M  V30 32 1 32 33
M  V30 33 1 33 34
M  V30 34 2 34 35
M  V30 35 1 35 36
M  V30 36 1 36 37
M  V30 37 2 37 38
M  V30 38 1 38 39
M  V30 39 2 39 40
M  V30 40 1 40 41
M  V30 41 2 41 42
M  V30 42 1 32 43
M  V30 43 1 43 44
M  V30 44 2 44 45
M  V30 45 1 44 46
M  V30 46 1 46 47
M  V30 47 1 47 48
M  V30 48 1 48 49
M  V30 49 1 49 50
M  V30 50 1 50 51
M  V30 51 1 51 52
M  V30 52 1 52 53
M  V30 53 1 46 54
M  V30 54 1 54 55
M  V30 55 2 55 56
M  V30 56 1 55 57
M  V30 57 1 57 58
M  V30 58 1 58 59
M  V30 59 1 59 60
M  V30 60 1 60 61
M  V30 61 1 61 62
M  V30 62 2 62 63
M  V30 63 1 9 4
M  V30 64 1 62 13
M  V30 65 1 38 34
M  V30 66 1 53 48
M  V30 67 1 61 57
M  V30 68 1 42 37
M  V30 69 1 1 64
M  V30 70 1 1 65
M  V30 71 1 2 66 CFG=3
M  V30 72 1 3 67
M  V30 73 1 3 68
M  V30 74 1 5 69
M  V30 75 1 6 70
M  V30 76 1 7 71
M  V30 77 1 8 72
M  V30 78 1 9 73
M  V30 79 1 12 74
M  V30 80 1 13 75 CFG=1
M  V30 81 1 14 76
M  V30 82 1 14 77
M  V30 83 1 15 78
M  V30 84 1 15 79
M  V30 85 1 16 80
M  V30 86 1 16 81
M  V30 87 1 17 82
M  V30 88 1 17 83
M  V30 89 1 18 84
M  V30 90 1 21 85 CFG=1
M  V30 91 1 22 86
M  V30 92 1 22 87
M  V30 93 1 23 88
M  V30 94 1 23 89
M  V30 95 1 24 90
M  V30 96 1 24 91
M  V30 97 1 25 92
M  V30 98 1 27 93
M  V30 99 1 27 94
M  V30 100 1 28 95
M  V30 101 1 29 96
M  V30 102 1 32 97 CFG=3
M  V30 103 1 33 98
M  V30 104 1 33 99
M  V30 105 1 35 100
M  V30 106 1 36 101
M  V30 107 1 39 102
M  V30 108 1 40 103
M  V30 109 1 41 104
M  V30 110 1 42 105
M  V30 111 1 43 106
M  V30 112 1 46 107 CFG=1
M  V30 113 1 47 108
M  V30 114 1 47 109
M  V30 115 1 48 110
M  V30 116 1 49 111
M  V30 117 1 49 112
M  V30 118 1 50 113
M  V30 119 1 50 114
M  V30 120 1 51 115
M  V30 121 1 51 116
M  V30 122 1 52 117
M  V30 123 1 52 118
M  V30 124 1 53 119
M  V30 125 1 53 120
M  V30 126 1 54 121
M  V30 127 1 57 122 CFG=3
M  V30 128 1 58 123
M  V30 129 1 58 124
M  V30 130 1 59 125
M  V30 131 1 59 126
M  V30 132 1 60 127
M  V30 133 1 60 128
M  V30 END BOND
M  V30 END CTAB
M  END
