
     RDKit          3D

  0  0  0  0  0  0  0  0  0  0999 V3000
M  V30 BEGIN CTAB
M  V30 COUNTS 29 29 0 0 0
M  V30 BEGIN ATOM
M  V30 1 C 4.14485 0.0335263 0.488919 0
M  V30 2 C 3.00909 0.377228 -0.429995 0
M  V30 3 C 1.66537 0.0459643 0.168645 0
M  V30 4 S 0.382001 0.504213 -1.02933 0
M  V30 5 C -1.20149 0.0921813 -0.274197 0
M  V30 6 C -1.78662 -1.14637 -0.437966 0
M  V30 7 C -2.99791 -1.42377 0.155073 0
M  V30 8 N -3.62953 -2.69339 0.00571974 0
M  V30 9 C -3.58104 -0.414135 0.906556 0
M  V30 10 C -2.99788 0.824746 1.0716 0
M  V30 11 C -1.78822 1.10123 0.479143 0
M  V30 12 C -1.13528 2.43254 0.641199 0
M  V30 13 N 3.14132 -0.38019 -1.65346 0
M  V30 14 H 3.94383 0.390906 1.52993 0
M  V30 15 H 4.43743 -1.02526 0.467073 0
M  V30 16 H 5.02976 0.633669 0.14644 0
M  V30 17 H 3.05216 1.45517 -0.640305 0
M  V30 18 H 1.46688 0.580644 1.11588 0
M  V30 19 H 1.56892 -1.04999 0.341257 0
M  V30 20 H -1.2779 -1.90998 -1.04578 0
M  V30 21 H -4.20167 -3.06717 0.779215 0
M  V30 22 H -3.54954 -3.28124 -0.851783 0
M  V30 23 H -4.53188 -0.615325 1.37882 0
M  V30 24 H -3.4656 1.61288 1.66553 0
M  V30 25 H -0.064114 2.35005 0.339145 0
M  V30 26 H -1.64939 3.17741 0.00366064 0
M  V30 27 H -1.25304 2.71643 1.69966 0
M  V30 28 H 3.37311 -1.36954 -1.4142 0
M  V30 29 H 3.8964 0.0475766 -2.26733 0
M  V30 END ATOM
M  V30 BEGIN BOND
M  V30 1 1 1 2
M  V30 2 1 2 3
M  V30 3 1 3 4
M  V30 4 1 4 5
M  V30 5 2 5 6
M  V30 6 1 6 7
M  V30 7 1 7 8
M  V30 8 2 7 9
M  V30 9 1 9 10
M  V30 10 2 10 11
M  V30 11 1 11 12
M  V30 12 1 2 13
M  V30 13 1 11 5
M  V30 14 1 1 14
M  V30 15 1 1 15
M  V30 16 1 1 16
M  V30 17 1 2 17
M  V30 18 1 3 18
M  V30 19 1 3 19
M  V30 20 1 6 20
M  V30 21 1 8 21
M  V30 22 1 8 22
M  V30 23 1 9 23
M  V30 24 1 10 24
M  V30 25 1 12 25
M  V30 26 1 12 26
M  V30 27 1 12 27
M  V30 28 1 13 28
M  V30 29 1 13 29
M  V30 END BOND
M  V30 END CTAB
M  END
