
     RDKit          3D

  0  0  0  0  0  0  0  0  0  0999 V3000
M  V30 BEGIN CTAB
M  V30 COUNTS 52 54 0 0 0
M  V30 BEGIN ATOM
M  V30 1 C -2.86932 1.97277 1.25519 0
M  V30 2 C -3.99049 0.96826 1.00104 0
M  V30 3 C -4.64674 0.747214 2.35574 0
M  V30 4 N -4.91199 1.60942 0.124617 0
M  V30 5 C -5.28761 1.21849 -1.02767 0
M  V30 6 N -6.23228 2.02218 -1.74798 0
M  V30 7 N -4.76751 0.00919187 -1.55896 0
M  V30 8 C -3.92285 -0.656873 -0.843986 0
M  V30 9 N -3.36772 -1.89438 -1.34698 0
M  V30 10 N -3.49216 -0.247992 0.438144 0
M  V30 11 C -2.55169 -1.08359 1.14706 0
M  V30 12 C -2.93523 -2.09592 1.99631 0
M  V30 13 C -2.01552 -2.87702 2.6581 0
M  V30 14 C -0.669925 -2.69324 2.5101 0
M  V30 15 Cl 0.515463 -3.68 3.34626 0
M  V30 16 C -0.240341 -1.66796 1.64945 0
M  V30 17 O 1.09492 -1.50182 1.52033 0
M  V30 18 C 1.87279 -0.641994 0.76927 0
M  V30 19 C 1.76183 -0.826314 -0.73173 0
M  V30 20 O 2.5504 0.0510364 -1.43124 0
M  V30 21 C 3.87596 0.271518 -1.54004 0
M  V30 22 C 4.24963 1.33425 -2.38327 0
M  V30 23 C 5.56413 1.64714 -2.57074 0
M  V30 24 C 6.58042 0.958317 -1.96068 0
M  V30 25 C 6.22944 -0.0845734 -1.13292 0
M  V30 26 C 4.88989 -0.411295 -0.935993 0
M  V30 27 S 8.24709 1.3676 -2.20847 0
M  V30 28 F 8.86035 0.499588 -3.52254 0
M  V30 29 O 8.36889 2.83069 -2.60562 0
M  V30 30 O 9.10269 1.08645 -1.00974 0
M  V30 31 C -1.16913 -0.898047 0.998422 0
M  V30 32 H -2.53276 2.46091 0.330755 0
M  V30 33 H -2.01784 1.53732 1.7761 0
M  V30 34 H -3.30221 2.76082 1.91024 0
M  V30 35 H -3.87426 0.771136 3.13818 0
M  V30 36 H -5.30349 -0.120585 2.38546 0
M  V30 37 H -5.2864 1.6515 2.52684 0
M  V30 38 H -6.33442 3.02209 -1.48398 0
M  V30 39 H -6.82749 1.66636 -2.52495 0
M  V30 40 H -3.67757 -2.82704 -1.06995 0
M  V30 41 H -2.59873 -1.80065 -2.03968 0
M  V30 42 H -4.00764 -2.26662 2.13421 0
M  V30 43 H -2.3397 -3.67832 3.33077 0
M  V30 44 H 1.59196 0.440018 1.02501 0
M  V30 45 H 2.93415 -0.698899 1.04782 0
M  V30 46 H 0.709406 -0.785173 -1.02443 0
M  V30 47 H 2.04871 -1.91369 -0.979063 0
M  V30 48 H 3.49333 1.92496 -2.90059 0
M  V30 49 H 5.8463 2.47052 -3.22459 0
M  V30 50 H 7.02677 -0.63488 -0.646197 0
M  V30 51 H 4.67109 -1.24786 -0.293081 0
M  V30 52 H -0.912594 -0.0650033 0.331608 0
M  V30 END ATOM
M  V30 BEGIN BOND
M  V30 1 1 1 2
M  V30 2 1 2 3
M  V30 3 1 2 4
M  V30 4 2 4 5
M  V30 5 1 5 6
M  V30 6 1 5 7
M  V30 7 2 7 8
M  V30 8 1 8 9
M  V30 9 1 8 10
M  V30 10 1 10 11
M  V30 11 2 11 12
M  V30 12 1 12 13
M  V30 13 2 13 14
M  V30 14 1 14 15
M  V30 15 1 14 16
M  V30 16 1 16 17
M  V30 17 1 17 18
M  V30 18 1 18 19
M  V30 19 1 19 20
M  V30 20 1 20 21
M  V30 21 2 21 22
M  V30 22 1 22 23
M  V30 23 2 23 24
M  V30 24 1 24 25
M  V30 25 2 25 26
M  V30 26 1 24 27
M  V30 27 1 27 28
M  V30 28 2 27 29
M  V30 29 2 27 30
M  V30 30 2 16 31
M  V30 31 1 10 2
M  V30 32 1 31 11
M  V30 33 1 26 21
M  V30 34 1 1 32
M  V30 35 1 1 33
M  V30 36 1 1 34
M  V30 37 1 3 35
M  V30 38 1 3 36
M  V30 39 1 3 37
M  V30 40 1 6 38
M  V30 41 1 6 39
M  V30 42 1 9 40
M  V30 43 1 9 41
M  V30 44 1 12 42
M  V30 45 1 13 43
M  V30 46 1 18 44
M  V30 47 1 18 45
M  V30 48 1 19 46
M  V30 49 1 19 47
M  V30 50 1 22 48
M  V30 51 1 23 49
M  V30 52 1 25 50
M  V30 53 1 26 51
M  V30 54 1 31 52
M  V30 END BOND
M  V30 END CTAB
M  END
