
     RDKit          3D

  0  0  0  0  0  0  0  0  0  0999 V3000
M  V30 BEGIN CTAB
M  V30 COUNTS 28 27 0 0 0
M  V30 BEGIN ATOM
M  V30 1 N 2.90017 -1.30055 -0.241733 0
M  V30 2 C 3.04152 -0.288437 0.775875 0
M  V30 3 C 1.889 0.680379 0.838492 0
M  V30 4 S 0.318344 0.130798 1.15628 0
M  V30 5 S -0.632673 -1.03198 -0.212227 0
M  V30 6 O -1.09191 -2.13914 0.650511 0
M  V30 7 O 0.144885 -1.71931 -1.29899 0
M  V30 8 C -1.8101 -0.03138 -0.976623 0
M  V30 9 C -2.86405 0.615829 -0.161872 0
M  V30 10 N -3.67439 1.3924 -1.15112 0
M  V30 11 C -3.7314 -0.228773 0.64115 0
M  V30 12 O -5.0631 -0.374573 0.281148 0
M  V30 13 O -3.33787 -0.838829 1.65017 0
M  V30 14 C 4.32951 0.422213 0.491855 0
M  V30 15 O 5.13935 0.0754733 -0.57915 0
M  V30 16 O 4.73445 1.36783 1.21534 0
M  V30 17 H 3.50515 -1.11805 -1.04846 0
M  V30 18 H 2.99622 -2.26486 0.0968299 0
M  V30 19 H 3.20188 -0.791012 1.7516 0
M  V30 20 H 1.94549 1.2628 -0.13401 0
M  V30 21 H 2.21024 1.46326 1.59406 0
M  V30 22 H -1.23756 0.820799 -1.46021 0
M  V30 23 H -2.27066 -0.535697 -1.88517 0
M  V30 24 H -2.40238 1.41471 0.473709 0
M  V30 25 H -3.73416 0.844292 -2.04628 0
M  V30 26 H -4.64919 1.42876 -0.779149 0
M  V30 27 H -5.82356 -0.0116993 0.873391 0
M  V30 28 H 5.96679 -0.494123 -0.515403 0
M  V30 END ATOM
M  V30 BEGIN BOND
M  V30 1 1 1 2
M  V30 2 1 2 3
M  V30 3 1 3 4
M  V30 4 1 4 5
M  V30 5 2 5 6
M  V30 6 2 5 7
M  V30 7 1 5 8
M  V30 8 1 8 9
M  V30 9 1 9 10
M  V30 10 1 9 11
M  V30 11 1 11 12
M  V30 12 2 11 13
M  V30 13 1 2 14
M  V30 14 1 14 15
M  V30 15 2 14 16
M  V30 16 1 1 17
M  V30 17 1 1 18
M  V30 18 1 2 19
M  V30 19 1 3 20
M  V30 20 1 3 21
M  V30 21 1 8 22
M  V30 22 1 8 23
M  V30 23 1 9 24
M  V30 24 1 10 25
M  V30 25 1 10 26
M  V30 26 1 12 27
M  V30 27 1 15 28
M  V30 END BOND
M  V30 END CTAB
M  END
