
     RDKit          3D

  0  0  0  0  0  0  0  0  0  0999 V3000
M  V30 BEGIN CTAB
M  V30 COUNTS 32 31 0 0 0
M  V30 BEGIN ATOM
M  V30 1 C -4.19196 0.0564289 0.268073 0 CFG=2
M  V30 2 N -4.50229 0.983844 -0.788924 0
M  V30 3 C -2.80062 -0.51466 0.165317 0
M  V30 4 O -1.82754 0.481911 0.220857 0
M  V30 5 P -0.281868 -0.161497 0.109585 0
M  V30 6 O -0.225459 -1.61848 -0.708517 0
M  V30 7 O 0.18209 -0.437469 1.54305 0
M  V30 8 O 0.786263 0.982458 -0.519002 0
M  V30 9 C 2.0629 0.45695 -0.691051 0
M  V30 10 C 3.03304 1.44648 -1.24553 0
M  V30 11 N 4.30954 0.772307 -1.37246 0
M  V30 12 C 5.05782 0.362535 -0.239336 0
M  V30 13 N 5.66601 -0.920212 -0.162414 0
M  V30 14 N 5.22741 1.13973 0.792369 0
M  V30 15 C -5.20451 -1.02215 0.273707 0
M  V30 16 O -6.23916 -1.01223 -0.641671 0
M  V30 17 O -5.17447 -1.98222 1.09552 0
M  V30 18 H -4.30863 0.59494 1.24758 0
M  V30 19 H -5.53782 1.12221 -0.785048 0
M  V30 20 H -4.20348 0.572212 -1.70104 0
M  V30 21 H -2.66934 -1.26579 0.948553 0
M  V30 22 H -2.71779 -1.03053 -0.818421 0
M  V30 23 H -1.03529 -2.14188 -0.496594 0
M  V30 24 H 2.05418 -0.478583 -1.28675 0
M  V30 25 H 2.42602 0.167643 0.322769 0
M  V30 26 H 2.71318 1.91544 -2.19209 0
M  V30 27 H 3.20702 2.29353 -0.537065 0
M  V30 28 H 4.69749 0.578563 -2.31793 0
M  V30 29 H 5.42465 -1.62207 0.570606 0
M  V30 30 H 6.39275 -1.20137 -0.860339 0
M  V30 31 H 4.83347 2.09786 0.856662 0
M  V30 32 H -7.15361 -0.615894 -0.450254 0
M  V30 END ATOM
M  V30 BEGIN BOND
M  V30 1 1 1 2
M  V30 2 1 1 3
M  V30 3 1 3 4
M  V30 4 1 4 5
M  V30 5 1 5 6
M  V30 6 2 5 7
M  V30 7 1 5 8
M  V30 8 1 8 9
M  V30 9 1 9 10
M  V30 10 1 10 11
M  V30 11 1 11 12
M  V30 12 1 12 13
M  V30 13 2 12 14 CFG=2
M  V30 14 1 1 15
M  V30 15 1 15 16
M  V30 16 2 15 17
M  V30 17 1 1 18 CFG=1
M  V30 18 1 2 19
M  V30 19 1 2 20
M  V30 20 1 3 21
M  V30 21 1 3 22
M  V30 22 1 6 23
M  V30 23 1 9 24
M  V30 24 1 9 25
M  V30 25 1 10 26
M  V30 26 1 10 27
M  V30 27 1 11 28
M  V30 28 1 13 29
M  V30 29 1 13 30
M  V30 30 1 14 31
M  V30 31 1 16 32
M  V30 END BOND
M  V30 END CTAB
M  END
