
     RDKit          3D

  0  0  0  0  0  0  0  0  0  0999 V3000
M  V30 BEGIN CTAB
M  V30 COUNTS 33 34 0 0 0
M  V30 BEGIN ATOM
M  V30 1 N 4.57824 0.754765 1.56871 0
M  V30 2 C 3.87691 0.158598 0.487104 0
M  V30 3 N 4.51887 -0.435187 -0.538296 0
M  V30 4 C 3.83245 -0.992924 -1.55138 0
M  V30 5 C 2.45377 -0.979074 -1.58028 0
M  V30 6 C 1.75511 -0.382233 -0.551686 0
M  V30 7 C 2.50643 0.177151 0.466832 0
M  V30 8 C 0.29463 -0.369865 -0.586401 0
M  V30 9 C -0.340414 -1.06966 0.595426 0
M  V30 10 C -1.85516 -1.02902 0.35319 0
M  V30 11 N -2.23164 0.373363 0.498688 0
M  V30 12 C -1.72706 1.08169 -0.653241 0
M  V30 13 C -0.221816 1.05054 -0.63084 0
M  V30 14 S -3.91915 0.563044 0.71873 0
M  V30 15 O -4.30675 -0.196517 1.9586 0
M  V30 16 O -4.18826 2.01653 0.980263 0
M  V30 17 N -4.83983 -0.00865148 -0.60614 0
M  V30 18 H 5.49594 0.386451 1.8965 0
M  V30 19 H 4.19386 1.58465 2.0712 0
M  V30 20 H 4.40458 -1.46344 -2.36152 0
M  V30 21 H 1.95509 -1.44549 -2.42456 0
M  V30 22 H 1.92008 0.643471 1.26892 0
M  V30 23 H -0.0788943 -0.875028 -1.49422 0
M  V30 24 H -0.16569 -0.443045 1.49358 0
M  V30 25 H 0.0326915 -2.08436 0.719516 0
M  V30 26 H -2.08993 -1.3829 -0.679249 0
M  V30 27 H -2.3932 -1.63739 1.07787 0
M  V30 28 H -2.1582 0.713772 -1.59143 0
M  V30 29 H -2.01845 2.16383 -0.538452 0
M  V30 30 H 0.120102 1.49558 -1.59689 0
M  V30 31 H 0.119458 1.65042 0.228886 0
M  V30 32 H -4.35802 -0.774629 -1.11858 0
M  V30 33 H -5.16575 0.755586 -1.21038 0
M  V30 END ATOM
M  V30 BEGIN BOND
M  V30 1 1 1 2
M  V30 2 2 2 3
M  V30 3 1 3 4
M  V30 4 2 4 5
M  V30 5 1 5 6
M  V30 6 2 6 7
M  V30 7 1 6 8
M  V30 8 1 8 9
M  V30 9 1 9 10
M  V30 10 1 10 11
M  V30 11 1 11 12
M  V30 12 1 12 13
M  V30 13 1 11 14
M  V30 14 2 14 15
M  V30 15 2 14 16
M  V30 16 1 14 17
M  V30 17 1 7 2
M  V30 18 1 13 8
M  V30 19 1 1 18
M  V30 20 1 1 19
M  V30 21 1 4 20
M  V30 22 1 5 21
M  V30 23 1 7 22
M  V30 24 1 8 23
M  V30 25 1 9 24
M  V30 26 1 9 25
M  V30 27 1 10 26
M  V30 28 1 10 27
M  V30 29 1 12 28
M  V30 30 1 12 29
M  V30 31 1 13 30
M  V30 32 1 13 31
M  V30 33 1 17 32
M  V30 34 1 17 33
M  V30 END BOND
M  V30 END CTAB
M  END
