
     RDKit          3D

  0  0  0  0  0  0  0  0  0  0999 V3000
M  V30 BEGIN CTAB
M  V30 COUNTS 23 22 0 0 0
M  V30 BEGIN ATOM
M  V30 1 C -0.573798 -3.01103 -0.115645 0
M  V30 2 C 0.0582274 -1.66719 -0.0482227 0
M  V30 3 C -0.760773 -0.498813 -0.316136 0
M  V30 4 N -0.339241 0.695334 -0.289679 0
M  V30 5 N -1.21341 1.7446 -0.563373 0
M  V30 6 C -2.33362 2.03539 0.243605 0
M  V30 7 N -2.63599 1.26627 1.39252 0
M  V30 8 S -3.30442 3.27747 -0.144638 0
M  V30 9 N 1.30586 -1.62009 0.24649 0
M  V30 10 N 1.92978 -0.371141 0.317877 0
M  V30 11 C 2.80097 0.114401 -0.675722 0
M  V30 12 N 3.4026 1.37432 -0.558584 0
M  V30 13 S 3.11755 -0.791039 -1.97682 0
M  V30 14 H -1.35537 -3.00085 -0.913172 0
M  V30 15 H 0.193206 -3.81306 -0.302853 0
M  V30 16 H -1.0333 -3.29802 0.869326 0
M  V30 17 H -1.8192 -0.676624 -0.55767 0
M  V30 18 H -0.99638 2.31674 -1.41025 0
M  V30 19 H -2.25348 1.60394 2.32 0
M  V30 20 H -3.19876 0.402868 1.40175 0
M  V30 21 H 1.74512 0.250114 1.16299 0
M  V30 22 H 4.43962 1.42715 -0.470434 0
M  V30 23 H 2.82481 2.23925 -0.559691 0
M  V30 END ATOM
M  V30 BEGIN BOND
M  V30 1 1 1 2
M  V30 2 1 2 3
M  V30 3 2 3 4 CFG=2
M  V30 4 1 4 5
M  V30 5 1 5 6
M  V30 6 1 6 7
M  V30 7 2 6 8
M  V30 8 2 2 9 CFG=2
M  V30 9 1 9 10
M  V30 10 1 10 11
M  V30 11 1 11 12
M  V30 12 2 11 13
M  V30 13 1 1 14
M  V30 14 1 1 15
M  V30 15 1 1 16
M  V30 16 1 3 17
M  V30 17 1 5 18
M  V30 18 1 7 19
M  V30 19 1 7 20
M  V30 20 1 10 21
M  V30 21 1 12 22
M  V30 22 1 12 23
M  V30 END BOND
M  V30 END CTAB
M  END
