
     RDKit          3D

  0  0  0  0  0  0  0  0  0  0999 V3000
M  V30 BEGIN CTAB
M  V30 COUNTS 33 32 0 0 0
M  V30 BEGIN ATOM
M  V30 1 C -1.34754 1.07785 1.40765 0
M  V30 2 C -0.987206 0.593365 0.0190958 0
M  V30 3 C 0.396178 -0.0183285 0.0375598 0
M  V30 4 C 1.43258 0.992168 0.479596 0
M  V30 5 C 2.7991 0.352441 0.488176 0
M  V30 6 C 3.22901 -0.162972 -0.846519 0
M  V30 7 N 4.56655 -0.745969 -0.658545 0
M  V30 8 C -2.0398 -0.372543 -0.41823 0
M  V30 9 C -3.37089 0.347716 -0.429103 0
M  V30 10 C -2.08078 -1.57743 0.508951 0
M  V30 11 N -1.76484 -0.884605 -1.74549 0
M  V30 12 H -0.63135 0.600408 2.1388 0
M  V30 13 H -2.34967 0.732911 1.73037 0
M  V30 14 H -1.30624 2.17902 1.48092 0
M  V30 15 H -0.991668 1.48629 -0.639776 0
M  V30 16 H 0.405875 -0.855189 0.776206 0
M  V30 17 H 0.66066 -0.467936 -0.935146 0
M  V30 18 H 1.21625 1.30158 1.52902 0
M  V30 19 H 1.40319 1.91271 -0.122279 0
M  V30 20 H 3.57934 1.05213 0.848009 0
M  V30 21 H 2.78728 -0.508317 1.19183 0
M  V30 22 H 2.60949 -0.958498 -1.26475 0
M  V30 23 H 3.28477 0.719109 -1.5446 0
M  V30 24 H 5.24863 0.0228966 -0.64564 0
M  V30 25 H 4.58878 -1.21936 0.273788 0
M  V30 26 H -4.02814 -0.0640984 -1.23084 0
M  V30 27 H -3.17498 1.42746 -0.586652 0
M  V30 28 H -3.92181 0.252958 0.523371 0
M  V30 29 H -1.13309 -2.13409 0.378782 0
M  V30 30 H -2.90806 -2.25307 0.193086 0
M  V30 31 H -2.28336 -1.29893 1.55686 0
M  V30 32 H -2.60407 -1.32083 -2.14231 0
M  V30 33 H -1.28419 -0.208853 -2.3522 0
M  V30 END ATOM
M  V30 BEGIN BOND
M  V30 1 1 1 2
M  V30 2 1 2 3
M  V30 3 1 3 4
M  V30 4 1 4 5
M  V30 5 1 5 6
M  V30 6 1 6 7
M  V30 7 1 2 8
M  V30 8 1 8 9
M  V30 9 1 8 10
M  V30 10 1 8 11
M  V30 11 1 1 12
M  V30 12 1 1 13
M  V30 13 1 1 14
M  V30 14 1 2 15
M  V30 15 1 3 16
M  V30 16 1 3 17
M  V30 17 1 4 18
M  V30 18 1 4 19
M  V30 19 1 5 20
M  V30 20 1 5 21
M  V30 21 1 6 22
M  V30 22 1 6 23
M  V30 23 1 7 24
M  V30 24 1 7 25
M  V30 25 1 9 26
M  V30 26 1 9 27
M  V30 27 1 9 28
M  V30 28 1 10 29
M  V30 29 1 10 30
M  V30 30 1 10 31
M  V30 31 1 11 32
M  V30 32 1 11 33
M  V30 END BOND
M  V30 END CTAB
M  END
