
     RDKit          3D

  0  0  0  0  0  0  0  0  0  0999 V3000
M  V30 BEGIN CTAB
M  V30 COUNTS 32 32 0 0 0
M  V30 BEGIN ATOM
M  V30 1 C 4.24743 0.112341 0.338912 0
M  V30 2 O 3.35759 0.249728 -0.776287 0
M  V30 3 C 1.96565 0.197257 -0.544547 0
M  V30 4 C 1.34199 -1.0224 -0.592616 0
M  V30 5 N 2.13515 -2.17207 -0.87565 0
M  V30 6 C -0.0135306 -1.06967 -0.365244 0
M  V30 7 C -0.776192 0.0678912 -0.0885936 0
M  V30 8 C -0.150554 1.28566 -0.0413225 0
M  V30 9 C 1.22769 1.33761 -0.27287 0
M  V30 10 N 1.87063 2.60028 -0.223308 0
M  V30 11 C -2.21365 -0.0871241 0.168374 0
M  V30 12 C -2.30052 -0.952424 1.4472 0
M  V30 13 C -2.93169 -0.897917 -0.916468 0
M  V30 14 C -2.97531 1.16037 0.361718 0
M  V30 15 H 4.97527 0.93111 0.289766 0
M  V30 16 H 3.67594 0.116482 1.28631 0
M  V30 17 H 4.71357 -0.903796 0.292596 0
M  V30 18 H 2.53079 -2.69773 -0.0606773 0
M  V30 19 H 2.31588 -2.48501 -1.83735 0
M  V30 20 H -0.489324 -2.03318 -0.399234 0
M  V30 21 H -0.634167 2.22397 0.165052 0
M  V30 22 H 1.3595 3.46784 0.0282467 0
M  V30 23 H 2.88515 2.7047 -0.447762 0
M  V30 24 H -2.01142 -0.320591 2.32048 0
M  V30 25 H -3.34001 -1.32243 1.54923 0
M  V30 26 H -1.5683 -1.78011 1.28251 0
M  V30 27 H -3.97644 -1.03752 -0.53402 0
M  V30 28 H -2.97735 -0.277286 -1.84068 0
M  V30 29 H -2.46805 -1.87859 -1.04986 0
M  V30 30 H -2.56942 2.08968 -0.0346099 0
M  V30 31 H -3.18888 1.29224 1.4621 0
M  V30 32 H -4.01743 1.10067 -0.0913881 0
M  V30 END ATOM
M  V30 BEGIN BOND
M  V30 1 1 1 2
M  V30 2 1 2 3
M  V30 3 2 3 4
M  V30 4 1 4 5
M  V30 5 1 4 6
M  V30 6 2 6 7
M  V30 7 1 7 8
M  V30 8 2 8 9
M  V30 9 1 9 10
M  V30 10 1 7 11
M  V30 11 1 11 12
M  V30 12 1 11 13
M  V30 13 1 11 14
M  V30 14 1 9 3
M  V30 15 1 1 15
M  V30 16 1 1 16
M  V30 17 1 1 17
M  V30 18 1 5 18
M  V30 19 1 5 19
M  V30 20 1 6 20
M  V30 21 1 8 21
M  V30 22 1 10 22
M  V30 23 1 10 23
M  V30 24 1 12 24
M  V30 25 1 12 25
M  V30 26 1 12 26
M  V30 27 1 13 27
M  V30 28 1 13 28
M  V30 29 1 13 29
M  V30 30 1 14 30
M  V30 31 1 14 31
M  V30 32 1 14 32
M  V30 END BOND
M  V30 END CTAB
M  END
