
     RDKit          3D

  0  0  0  0  0  0  0  0  0  0999 V3000
M  V30 BEGIN CTAB
M  V30 COUNTS 58 60 0 0 0
M  V30 BEGIN ATOM
M  V30 1 C -4.45058 -1.85282 0.365683 0 CFG=2
M  V30 2 C -5.71946 -1.06172 0.363227 0
M  V30 3 C -6.92565 -1.81374 0.853774 0
M  V30 4 C -8.13064 -0.923969 0.866894 0
M  V30 5 O -9.11492 -1.0891 -0.0685176 0
M  V30 6 O -8.19752 -0.0444559 1.74644 0
M  V30 7 N -3.35797 -0.999831 -0.127604 0
M  V30 8 C -2.33286 -0.515766 0.689259 0
M  V30 9 O -2.37127 -0.846957 1.92036 0
M  V30 10 C -1.27977 0.323023 0.158707 0
M  V30 11 C -1.03695 0.357055 -1.18814 0
M  V30 12 C -0.0179907 1.18695 -1.67393 0
M  V30 13 C 0.735932 1.96484 -0.802385 0
M  V30 14 C 0.492114 1.93102 0.545167 0
M  V30 15 C -0.521466 1.10138 0.999632 0
M  V30 16 N 1.74568 2.79525 -1.35282 0
M  V30 17 C 1.41858 4.20083 -1.54538 0
M  V30 18 C 2.19814 5.08427 -0.702164 0
M  V30 19 C 2.83188 5.82532 -0.0221789 0
M  V30 20 C 2.99873 2.23961 -1.73669 0
M  V30 21 C 3.69325 1.42906 -0.751333 0
M  V30 22 C 4.1014 0.147086 -1.14366 0
M  V30 23 C 4.76295 -0.646478 -0.230755 0
M  V30 24 C 5.02176 -0.196448 1.04435 0
M  V30 25 N 4.62595 1.05326 1.43276 0
M  V30 26 C 3.97509 1.82297 0.51978 0
M  V30 27 N 5.66389 -1.00556 1.88638 0
M  V30 28 C 6.04997 -2.2317 1.50214 0
M  V30 29 N 6.73002 -3.088 2.40036 0
M  V30 30 N 5.7974 -2.67915 0.247269 0
M  V30 31 C 5.1603 -1.92755 -0.651453 0
M  V30 32 N 4.87267 -2.34255 -1.9794 0
M  V30 33 C -4.49329 -3.10079 -0.380145 0
M  V30 34 O -5.34669 -4.14557 -0.123228 0
M  V30 35 O -3.68408 -3.28137 -1.36152 0
M  V30 36 H -4.19298 -2.05966 1.4334 0
M  V30 37 H -5.5748 -0.106665 0.954317 0
M  V30 38 H -5.91418 -0.666179 -0.681299 0
M  V30 39 H -6.74929 -2.24533 1.85632 0
M  V30 40 H -7.13612 -2.68415 0.171859 0
M  V30 41 H -9.47365 -0.253729 -0.535847 0
M  V30 42 H -3.37989 -0.763921 -1.13513 0
M  V30 43 H -1.59366 -0.230333 -1.90536 0
M  V30 44 H 0.189595 1.2252 -2.73374 0
M  V30 45 H 1.04903 2.52467 1.24425 0
M  V30 46 H -0.705375 1.08306 2.0754 0
M  V30 47 H 0.343659 4.4002 -1.37052 0
M  V30 48 H 1.63657 4.41328 -2.61901 0
M  V30 49 H 3.42041 6.48425 0.584192 0
M  V30 50 H 2.90296 1.70931 -2.72624 0
M  V30 51 H 3.67863 3.11462 -1.99003 0
M  V30 52 H 3.90083 -0.203767 -2.13526 0
M  V30 53 H 3.64947 2.83008 0.819292 0
M  V30 54 H 7.63066 -2.80058 2.81517 0
M  V30 55 H 6.32332 -4.00299 2.64285 0
M  V30 56 H 4.17659 -3.0653 -2.22862 0
M  V30 57 H 5.39589 -1.88924 -2.762 0
M  V30 58 H -5.47225 -4.48121 0.810319 0
M  V30 END ATOM
M  V30 BEGIN BOND
M  V30 1 1 1 2
M  V30 2 1 2 3
M  V30 3 1 3 4
M  V30 4 1 4 5
M  V30 5 2 4 6
M  V30 6 1 1 7
M  V30 7 1 7 8
M  V30 8 2 8 9
M  V30 9 1 8 10
M  V30 10 2 10 11
M  V30 11 1 11 12
M  V30 12 2 12 13
M  V30 13 1 13 14
M  V30 14 2 14 15
M  V30 15 1 13 16
M  V30 16 1 16 17
M  V30 17 1 17 18
M  V30 18 3 18 19
M  V30 19 1 16 20
M  V30 20 1 20 21
M  V30 21 2 21 22
M  V30 22 1 22 23
M  V30 23 2 23 24
M  V30 24 1 24 25
M  V30 25 2 25 26
M  V30 26 1 24 27
M  V30 27 2 27 28
M  V30 28 1 28 29
M  V30 29 1 28 30
M  V30 30 2 30 31
M  V30 31 1 31 32
M  V30 32 1 1 33
M  V30 33 1 33 34
M  V30 34 2 33 35
M  V30 35 1 15 10
M  V30 36 1 26 21
M  V30 37 1 31 23
M  V30 38 1 1 36 CFG=1
M  V30 39 1 2 37
M  V30 40 1 2 38
M  V30 41 1 3 39
M  V30 42 1 3 40
M  V30 43 1 5 41
M  V30 44 1 7 42
M  V30 45 1 11 43
M  V30 46 1 12 44
M  V30 47 1 14 45
M  V30 48 1 15 46
M  V30 49 1 17 47
M  V30 50 1 17 48
M  V30 51 1 19 49
M  V30 52 1 20 50
M  V30 53 1 20 51
M  V30 54 1 22 52
M  V30 55 1 26 53
M  V30 56 1 29 54
M  V30 57 1 29 55
M  V30 58 1 32 56
M  V30 59 1 32 57
M  V30 60 1 34 58
M  V30 END BOND
M  V30 END CTAB
M  END
