
     RDKit          3D

  0  0  0  0  0  0  0  0  0  0999 V3000
M  V30 BEGIN CTAB
M  V30 COUNTS 30 31 0 0 0
M  V30 BEGIN ATOM
M  V30 1 N 3.23368 1.596 -0.490295 0
M  V30 2 C 2.23762 0.670527 -1.00591 0
M  V30 3 C 2.49689 -0.742916 -0.570489 0
M  V30 4 C 2.13873 -0.978841 0.873114 0
M  V30 5 C 0.684642 -0.659391 1.14419 0
M  V30 6 N 0.110947 0.169649 0.11581 0
M  V30 7 C 0.871624 1.17331 -0.600512 0
M  V30 8 C -1.28161 0.0101039 -0.232242 0
M  V30 9 N -1.59975 -0.328805 -1.49092 0
M  V30 10 C -2.88062 -0.488046 -1.85994 0
M  V30 11 C -3.92729 -0.314901 -0.979214 0
M  V30 12 C -3.61188 0.030273 0.304431 0
M  V30 13 C -2.27879 0.193295 0.677923 0
M  V30 14 N -1.97726 0.546857 1.99718 0
M  V30 15 H 2.84079 2.45475 -0.0966938 0
M  V30 16 H 3.98427 1.1433 0.0383202 0
M  V30 17 H 2.37236 0.685516 -2.12563 0
M  V30 18 H 3.58141 -0.942345 -0.687328 0
M  V30 19 H 1.95667 -1.43185 -1.25855 0
M  V30 20 H 2.38576 -2.02964 1.10682 0
M  V30 21 H 2.81518 -0.345953 1.48772 0
M  V30 22 H 0.649548 -0.168186 2.15187 0
M  V30 23 H 0.137645 -1.63087 1.18592 0
M  V30 24 H 0.342646 1.46548 -1.52982 0
M  V30 25 H 0.945703 2.10227 0.025024 0
M  V30 26 H -3.14956 -0.764136 -2.88333 0
M  V30 27 H -4.95852 -0.452531 -1.31307 0
M  V30 28 H -4.39238 0.177901 1.03337 0
M  V30 29 H -1.86822 -0.18106 2.72704 0
M  V30 30 H -1.86023 1.54398 2.2552 0
M  V30 END ATOM
M  V30 BEGIN BOND
M  V30 1 1 1 2
M  V30 2 1 2 3
M  V30 3 1 3 4
M  V30 4 1 4 5
M  V30 5 1 5 6
M  V30 6 1 6 7
M  V30 7 1 6 8
M  V30 8 2 8 9
M  V30 9 1 9 10
M  V30 10 2 10 11
M  V30 11 1 11 12
M  V30 12 2 12 13
M  V30 13 1 13 14
M  V30 14 1 7 2
M  V30 15 1 13 8
M  V30 16 1 1 15
M  V30 17 1 1 16
M  V30 18 1 2 17
M  V30 19 1 3 18
M  V30 20 1 3 19
M  V30 21 1 4 20
M  V30 22 1 4 21
M  V30 23 1 5 22
M  V30 24 1 5 23
M  V30 25 1 7 24
M  V30 26 1 7 25
M  V30 27 1 10 26
M  V30 28 1 11 27
M  V30 29 1 12 28
M  V30 30 1 14 29
M  V30 31 1 14 30
M  V30 END BOND
M  V30 END CTAB
M  END
