
     RDKit          3D

  0  0  0  0  0  0  0  0  0  0999 V3000
M  V30 BEGIN CTAB
M  V30 COUNTS 20 19 0 0 0
M  V30 BEGIN ATOM
M  V30 1 N 3.71523 0.530277 -0.622479 0
M  V30 2 N 2.35948 0.35222 -0.399267 0
M  V30 3 C 1.863 -0.664379 0.198325 0
M  V30 4 S 0.11089 -0.810748 0.44137 0
M  V30 5 C -0.673017 0.657216 -0.281292 0
M  V30 6 C -2.12818 0.545182 -0.0844697 0
M  V30 7 C -2.7914 1.44806 0.598232 0
M  V30 8 Cl -4.52817 1.30667 0.828364 0
M  V30 9 C -2.86243 -0.615835 -0.671669 0
M  V30 10 N 2.67944 -1.70999 0.689011 0
M  V30 11 H 4.34191 0.646297 0.213595 0
M  V30 12 H 4.12222 0.552019 -1.57344 0
M  V30 13 H -0.250147 1.53347 0.249228 0
M  V30 14 H -0.393349 0.781894 -1.34758 0
M  V30 15 H -2.24593 2.28396 1.01803 0
M  V30 16 H -2.62109 -0.701038 -1.75215 0
M  V30 17 H -2.67651 -1.54981 -0.108822 0
M  V30 18 H -3.96507 -0.434351 -0.616362 0
M  V30 19 H 2.81658 -2.55484 0.130015 0
M  V30 20 H 3.12654 -1.59628 1.61553 0
M  V30 END ATOM
M  V30 BEGIN BOND
M  V30 1 1 1 2
M  V30 2 2 2 3 CFG=2
M  V30 3 1 3 4
M  V30 4 1 4 5
M  V30 5 1 5 6
M  V30 6 2 6 7 CFG=2
M  V30 7 1 7 8
M  V30 8 1 6 9
M  V30 9 1 3 10
M  V30 10 1 1 11
M  V30 11 1 1 12
M  V30 12 1 5 13
M  V30 13 1 5 14
M  V30 14 1 7 15
M  V30 15 1 9 16
M  V30 16 1 9 17
M  V30 17 1 9 18
M  V30 18 1 10 19
M  V30 19 1 10 20
M  V30 END BOND
M  V30 END CTAB
M  END
