
     RDKit          3D

  0  0  0  0  0  0  0  0  0  0999 V3000
M  V30 BEGIN CTAB
M  V30 COUNTS 38 39 0 0 0
M  V30 BEGIN ATOM
M  V30 1 C -4.93358 0.0837488 0.278482 0
M  V30 2 C -3.45458 0.0674659 0.202264 0
M  V30 3 C -2.74704 1.23458 0.397765 0
M  V30 4 C -1.36775 1.24541 0.331794 0
M  V30 5 N -0.651883 2.48275 0.540727 0
M  V30 6 C -0.714663 0.0651887 0.0665202 0
M  V30 7 C -1.37425 -1.11572 -0.134073 0
M  V30 8 C -0.702871 -2.42839 -0.426448 0
M  V30 9 C -2.75221 -1.09531 -0.0619997 0
M  V30 10 C 0.721827 0.0550252 -0.00646445 0
M  V30 11 C 1.45649 -0.181345 1.13235 0
M  V30 12 N 0.826402 -0.421349 2.4083 0
M  V30 13 C 2.84177 -0.186128 1.03622 0
M  V30 14 C 3.47329 0.0390811 -0.16465 0
M  V30 15 C 4.95375 0.0174053 -0.183241 0
M  V30 16 C 2.68676 0.27079 -1.27524 0
M  V30 17 C 1.31013 0.282527 -1.21522 0
M  V30 18 C 0.584601 0.546302 -2.49429 0
M  V30 19 H -5.2945 0.910403 0.936032 0
M  V30 20 H -5.32244 -0.859738 0.730222 0
M  V30 21 H -5.40262 0.222057 -0.716156 0
M  V30 22 H -3.26857 2.15915 0.606054 0
M  V30 23 H -1.1336 3.33847 0.191295 0
M  V30 24 H 0.255492 2.55354 0.990793 0
M  V30 25 H 0.31864 -2.49018 -0.0823484 0
M  V30 26 H -0.831485 -2.66081 -1.52212 0
M  V30 27 H -1.24342 -3.27213 0.0745512 0
M  V30 28 H -3.31797 -2.00896 -0.214455 0
M  V30 29 H 0.436342 -1.31538 2.72414 0
M  V30 30 H 0.775869 0.389796 3.03867 0
M  V30 31 H 3.39988 -0.374284 1.94514 0
M  V30 32 H 5.30771 1.07107 -0.0640955 0
M  V30 33 H 5.24587 -0.268478 -1.23364 0
M  V30 34 H 5.38402 -0.673983 0.549625 0
M  V30 35 H 3.19409 0.448728 -2.22484 0
M  V30 36 H -0.398035 0.0901933 -2.55899 0
M  V30 37 H 1.16455 0.12715 -3.35441 0
M  V30 38 H 0.573977 1.65135 -2.71566 0
M  V30 END ATOM
M  V30 BEGIN BOND
M  V30 1 1 1 2
M  V30 2 2 2 3
M  V30 3 1 3 4
M  V30 4 1 4 5
M  V30 5 2 4 6
M  V30 6 1 6 7
M  V30 7 1 7 8
M  V30 8 2 7 9
M  V30 9 1 6 10
M  V30 10 2 10 11
M  V30 11 1 11 12
M  V30 12 1 11 13
M  V30 13 2 13 14
M  V30 14 1 14 15
M  V30 15 1 14 16
M  V30 16 2 16 17
M  V30 17 1 17 18
M  V30 18 1 9 2
M  V30 19 1 17 10
M  V30 20 1 1 19
M  V30 21 1 1 20
M  V30 22 1 1 21
M  V30 23 1 3 22
M  V30 24 1 5 23
M  V30 25 1 5 24
M  V30 26 1 8 25
M  V30 27 1 8 26
M  V30 28 1 8 27
M  V30 29 1 9 28
M  V30 30 1 12 29
M  V30 31 1 12 30
M  V30 32 1 13 31
M  V30 33 1 15 32
M  V30 34 1 15 33
M  V30 35 1 15 34
M  V30 36 1 16 35
M  V30 37 1 18 36
M  V30 38 1 18 37
M  V30 39 1 18 38
M  V30 END BOND
M  V30 END CTAB
M  END
