
     RDKit          3D

  0  0  0  0  0  0  0  0  0  0999 V3000
M  V30 BEGIN CTAB
M  V30 COUNTS 23 23 0 0 0
M  V30 BEGIN ATOM
M  V30 1 N -3.73929 -0.0559807 0.354938 0
M  V30 2 C -2.31229 -0.0211372 0.558461 0
M  V30 3 C -1.53969 -0.125798 -0.737165 0
M  V30 4 O -1.84333 -1.31842 -1.37685 0
M  V30 5 C -0.0945692 -0.0386117 -0.402268 0
M  V30 6 C 0.577789 -1.1055 0.157979 0
M  V30 7 C 1.92298 -0.96869 0.449471 0
M  V30 8 Cl 2.77718 -2.34248 1.16792 0
M  V30 9 C 2.59351 0.225854 0.183473 0
M  V30 10 N 3.97276 0.316975 0.500317 0
M  V30 11 C 1.92742 1.29449 -0.375817 0
M  V30 12 Cl 2.8036 2.7756 -0.69425 0
M  V30 13 C 0.583902 1.12775 -0.655955 0
M  V30 14 H -4.01931 -0.227688 -0.621153 0
M  V30 15 H -4.24948 0.709623 0.832468 0
M  V30 16 H -2.08059 0.946752 1.05267 0
M  V30 17 H -1.94488 -0.812917 1.24231 0
M  V30 18 H -1.8186 0.70513 -1.39742 0
M  V30 19 H -2.64323 -1.6957 -0.958175 0
M  V30 20 H 0.0780952 -2.04704 0.374936 0
M  V30 21 H 4.35861 1.15537 0.974698 0
M  V30 22 H 4.62316 -0.451902 0.264512 0
M  V30 23 H 0.0662415 1.95432 -1.08918 0
M  V30 END ATOM
M  V30 BEGIN BOND
M  V30 1 1 1 2
M  V30 2 1 2 3
M  V30 3 1 3 4
M  V30 4 1 3 5
M  V30 5 2 5 6
M  V30 6 1 6 7
M  V30 7 1 7 8
M  V30 8 2 7 9
M  V30 9 1 9 10
M  V30 10 1 9 11
M  V30 11 1 11 12
M  V30 12 2 11 13
M  V30 13 1 13 5
M  V30 14 1 1 14
M  V30 15 1 1 15
M  V30 16 1 2 16
M  V30 17 1 2 17
M  V30 18 1 3 18
M  V30 19 1 4 19
M  V30 20 1 6 20
M  V30 21 1 10 21
M  V30 22 1 10 22
M  V30 23 1 13 23
M  V30 END BOND
M  V30 END CTAB
M  END
