
     RDKit          3D

  0  0  0  0  0  0  0  0  0  0999 V3000
M  V30 BEGIN CTAB
M  V30 COUNTS 37 39 0 0 0
M  V30 BEGIN ATOM
M  V30 1 C -6.31153 0.814901 -0.811655 0
M  V30 2 O -5.4062 0.0755896 -0.024046 0
M  V30 3 C -4.03802 0.228297 -0.248647 0
M  V30 4 C -3.19012 -0.513755 0.544299 0
M  V30 5 C -1.80968 -0.395206 0.357267 0
M  V30 6 C -1.31083 0.4506 -0.605102 0
M  V30 7 C -2.19768 1.17797 -1.38004 0
M  V30 8 C -3.56041 1.07873 -1.21512 0
M  V30 9 C 0.131577 0.6435 -0.883899 0
M  V30 10 N 0.990454 -0.32703 -0.283375 0
M  V30 11 C 0.874364 -1.69456 -0.637355 0
M  V30 12 N 0.0367539 -2.26334 -1.52209 0
M  V30 13 O 0.2064 -3.54563 -1.59768 0
M  V30 14 N 1.15595 -3.84049 -0.766012 0
M  V30 15 C 1.62489 -2.75473 -0.130798 0
M  V30 16 N 2.6556 -2.66771 0.84619 0
M  V30 17 N 1.94985 0.0398588 0.651518 0
M  V30 18 N 2.57241 1.14318 0.627646 0
M  V30 19 C 3.55149 1.49825 1.59582 0
M  V30 20 N 3.40808 2.05008 2.81388 0
M  V30 21 O 4.55953 2.21884 3.39209 0
M  V30 22 N 5.47371 1.78709 2.57711 0
M  V30 23 C 4.908 1.32346 1.43564 0
M  V30 24 N 5.58914 0.774675 0.316989 0
M  V30 25 H -6.20104 0.539331 -1.88148 0
M  V30 26 H -6.08939 1.92052 -0.763414 0
M  V30 27 H -7.34417 0.698119 -0.464656 0
M  V30 28 H -3.56092 -1.18867 1.31099 0
M  V30 29 H -1.13007 -0.958187 0.961909 0
M  V30 30 H -1.83297 1.85317 -2.14679 0
M  V30 31 H -4.26179 1.64244 -1.81512 0
M  V30 32 H 0.404157 1.68059 -0.526174 0
M  V30 33 H 0.306032 0.705727 -1.99865 0
M  V30 34 H 3.67611 -2.56033 0.591015 0
M  V30 35 H 2.46953 -2.70436 1.87679 0
M  V30 36 H 5.88136 1.3175 -0.518494 0
M  V30 37 H 5.81942 -0.248428 0.321451 0
M  V30 END ATOM
M  V30 BEGIN BOND
M  V30 1 1 1 2
M  V30 2 1 2 3
M  V30 3 2 3 4
M  V30 4 1 4 5
M  V30 5 2 5 6
M  V30 6 1 6 7
M  V30 7 2 7 8
M  V30 8 1 6 9
M  V30 9 1 9 10
M  V30 10 1 10 11
M  V30 11 2 11 12
M  V30 12 1 12 13
M  V30 13 1 13 14
M  V30 14 2 14 15
M  V30 15 1 15 16
M  V30 16 1 10 17
M  V30 17 2 17 18
M  V30 18 1 18 19
M  V30 19 2 19 20
M  V30 20 1 20 21
M  V30 21 1 21 22
M  V30 22 2 22 23
M  V30 23 1 23 24
M  V30 24 1 8 3
M  V30 25 1 15 11
M  V30 26 1 23 19
M  V30 27 1 1 25
M  V30 28 1 1 26
M  V30 29 1 1 27
M  V30 30 1 4 28
M  V30 31 1 5 29
M  V30 32 1 7 30
M  V30 33 1 8 31
M  V30 34 1 9 32
M  V30 35 1 9 33
M  V30 36 1 16 34
M  V30 37 1 16 35
M  V30 38 1 24 36
M  V30 39 1 24 37
M  V30 END BOND
M  V30 END CTAB
M  END
