
     RDKit          3D

  0  0  0  0  0  0  0  0  0  0999 V3000
M  V30 BEGIN CTAB
M  V30 COUNTS 41 42 0 0 0
M  V30 BEGIN ATOM
M  V30 1 C -1.72898 -2.50483 -0.486854 0
M  V30 2 C -0.259604 -2.21631 -0.468905 0
M  V30 3 C 0.121987 -0.94979 0.21442 0
M  V30 4 C 1.64248 -0.816733 0.181143 0
M  V30 5 O 2.24869 -1.76381 -0.344967 0
M  V30 6 N 2.24838 0.32768 0.728077 0
M  V30 7 C 3.6169 0.628126 0.787406 0
M  V30 8 C 4.62744 -0.103241 0.222694 0
M  V30 9 C 5.97732 0.232864 0.314145 0
M  V30 10 C 6.33772 1.35669 1.00465 0
M  V30 11 C 5.36639 2.13015 1.59288 0
M  V30 12 C 4.04685 1.77401 1.4858 0
M  V30 13 F 7.6322 1.72616 1.12209 0
M  V30 14 S -0.557867 0.557228 -0.409278 0
M  V30 15 C -2.26853 0.833099 -0.263328 0
M  V30 16 N -2.81459 1.39899 0.826566 0
M  V30 17 C -4.14661 1.63226 0.911322 0
M  V30 18 N -4.69186 2.23221 2.07823 0
M  V30 19 C -4.98153 1.29309 -0.124872 0
M  V30 20 C -4.42208 0.712548 -1.24351 0
M  V30 21 N -3.09695 0.508435 -1.26463 0
M  V30 22 N -5.18768 0.325954 -2.36571 0
M  V30 23 C 0.252239 -2.28706 -1.89412 0
M  V30 24 H -1.89573 -3.59955 -0.236468 0
M  V30 25 H -2.12387 -2.30821 -1.48536 0
M  V30 26 H -2.19195 -1.88493 0.301047 0
M  V30 27 H 0.228642 -3.05488 0.108672 0
M  V30 28 H -0.102998 -1.08731 1.30771 0
M  V30 29 H 1.58014 1.05056 1.14535 0
M  V30 30 H 4.42628 -0.98826 -0.333132 0
M  V30 31 H 6.73485 -0.382691 -0.153355 0
M  V30 32 H 5.62779 3.03974 2.15515 0
M  V30 33 H 3.31895 2.41065 1.9634 0
M  V30 34 H -5.6305 2.00543 2.46177 0
M  V30 35 H -4.09611 2.93869 2.56031 0
M  V30 36 H -6.04258 1.46949 -0.0784212 0
M  V30 37 H -5.01125 0.763387 -3.28332 0
M  V30 38 H -5.92363 -0.391229 -2.27883 0
M  V30 39 H 0.97895 -3.11579 -1.95038 0
M  V30 40 H -0.58561 -2.53669 -2.5809 0
M  V30 41 H 0.746302 -1.35612 -2.22648 0
M  V30 END ATOM
M  V30 BEGIN BOND
M  V30 1 1 1 2
M  V30 2 1 2 3
M  V30 3 1 3 4
M  V30 4 2 4 5
M  V30 5 1 4 6
M  V30 6 1 6 7
M  V30 7 2 7 8
M  V30 8 1 8 9
M  V30 9 2 9 10
M  V30 10 1 10 11
M  V30 11 2 11 12
M  V30 12 1 10 13
M  V30 13 1 3 14
M  V30 14 1 14 15
M  V30 15 2 15 16
M  V30 16 1 16 17
M  V30 17 1 17 18
M  V30 18 2 17 19
M  V30 19 1 19 20
M  V30 20 2 20 21
M  V30 21 1 20 22
M  V30 22 1 2 23
M  V30 23 1 12 7
M  V30 24 1 21 15
M  V30 25 1 1 24
M  V30 26 1 1 25
M  V30 27 1 1 26
M  V30 28 1 2 27
M  V30 29 1 3 28
M  V30 30 1 6 29
M  V30 31 1 8 30
M  V30 32 1 9 31
M  V30 33 1 11 32
M  V30 34 1 12 33
M  V30 35 1 18 34
M  V30 36 1 18 35
M  V30 37 1 19 36
M  V30 38 1 22 37
M  V30 39 1 22 38
M  V30 40 1 23 39
M  V30 41 1 23 40
M  V30 42 1 23 41
M  V30 END BOND
M  V30 END CTAB
M  END
