
     RDKit          3D

  0  0  0  0  0  0  0  0  0  0999 V3000
M  V30 BEGIN CTAB
M  V30 COUNTS 15 14 0 0 0
M  V30 BEGIN ATOM
M  V30 1 N 1.97153 0.565238 -0.644604 0
M  V30 2 C 0.932842 -0.449774 -0.453158 0
M  V30 3 C -0.404241 0.236676 -0.221255 0
M  V30 4 N -0.273892 1.04449 0.9448 0
M  V30 5 C -1.43575 -0.854852 0.012593 0
M  V30 6 Br -3.1811 -0.0904537 0.319783 0
M  V30 7 H 1.99391 1.1633 0.204146 0
M  V30 8 H 2.8675 0.073253 -0.840499 0
M  V30 9 H 0.896727 -1.13664 -1.29888 0
M  V30 10 H 1.16038 -0.985009 0.515041 0
M  V30 11 H -0.740098 0.790674 -1.11935 0
M  V30 12 H -0.646964 0.617924 1.80965 0
M  V30 13 H -0.515726 2.03907 0.821193 0
M  V30 14 H -1.10091 -1.50686 0.839898 0
M  V30 15 H -1.5242 -1.50703 -0.889359 0
M  V30 END ATOM
M  V30 BEGIN BOND
M  V30 1 1 1 2
M  V30 2 1 2 3
M  V30 3 1 3 4
M  V30 4 1 3 5
M  V30 5 1 5 6
M  V30 6 1 1 7
M  V30 7 1 1 8
M  V30 8 1 2 9
M  V30 9 1 2 10
M  V30 10 1 3 11
M  V30 11 1 4 12
M  V30 12 1 4 13
M  V30 13 1 5 14
M  V30 14 1 5 15
M  V30 END BOND
M  V30 END CTAB
M  END
