
     RDKit          3D

  0  0  0  0  0  0  0  0  0  0999 V3000
M  V30 BEGIN CTAB
M  V30 COUNTS 24 24 0 0 0
M  V30 BEGIN ATOM
M  V30 1 C -3.37486 0.281965 -0.295907 0
M  V30 2 C -1.93461 -0.242532 -0.349118 0
M  V30 3 C -1.05504 0.903241 0.0342307 0
M  V30 4 C 0.384855 0.566525 0.034269 0
M  V30 5 N 0.885929 -0.630961 -0.272058 0
M  V30 6 C 2.21528 -0.863073 -0.249696 0
M  V30 7 N 2.77525 -2.12818 -0.57127 0
M  V30 8 C 3.08654 0.148172 0.0948503 0
M  V30 9 C 2.57584 1.38182 0.410788 0
M  V30 10 O 3.34619 2.34376 0.734658 0
M  V30 11 N 1.24688 1.54333 0.368431 0
M  V30 12 N -1.79842 -1.38384 0.512544 0
M  V30 13 H -3.49826 0.854416 0.660678 0
M  V30 14 H -4.10401 -0.536553 -0.262915 0
M  V30 15 H -3.54784 1.00969 -1.11706 0
M  V30 16 H -1.70963 -0.489132 -1.42361 0
M  V30 17 H -1.34325 1.35756 1.00691 0
M  V30 18 H -1.19951 1.70263 -0.733833 0
M  V30 19 H 3.02941 -2.83789 0.168516 0
M  V30 20 H 2.96483 -2.42259 -1.55508 0
M  V30 21 H 4.15687 0.0187382 0.129136 0
M  V30 22 H 0.890017 2.50151 0.616476 0
M  V30 23 H -2.68672 -1.91737 0.652484 0
M  V30 24 H -1.30574 -1.16123 1.40657 0
M  V30 END ATOM
M  V30 BEGIN BOND
M  V30 1 1 1 2
M  V30 2 1 2 3
M  V30 3 1 3 4
M  V30 4 2 4 5
M  V30 5 1 5 6
M  V30 6 1 6 7
M  V30 7 2 6 8
M  V30 8 1 8 9
M  V30 9 2 9 10
M  V30 10 1 9 11
M  V30 11 1 2 12
M  V30 12 1 11 4
M  V30 13 1 1 13
M  V30 14 1 1 14
M  V30 15 1 1 15
M  V30 16 1 2 16
M  V30 17 1 3 17
M  V30 18 1 3 18
M  V30 19 1 7 19
M  V30 20 1 7 20
M  V30 21 1 8 21
M  V30 22 1 11 22
M  V30 23 1 12 23
M  V30 24 1 12 24
M  V30 END BOND
M  V30 END CTAB
M  END
