
     RDKit          3D

  0  0  0  0  0  0  0  0  0  0999 V3000
M  V30 BEGIN CTAB
M  V30 COUNTS 27 28 0 0 0
M  V30 BEGIN ATOM
M  V30 1 N 2.90366 -1.81318 0.500171 0
M  V30 2 C 3.18278 -0.47122 0.91863 0
M  V30 3 C 2.15923 0.504212 0.463867 0
M  V30 4 N 2.37955 1.79893 0.792373 0
M  V30 5 C 1.51117 2.77218 0.429046 0
M  V30 6 C 0.411418 2.40371 -0.276234 0
M  V30 7 C 0.148735 1.09448 -0.631634 0
M  V30 8 C 1.03919 0.144744 -0.252279 0
M  V30 9 C -1.02115 0.837378 -1.4176 0
M  V30 10 O -1.14121 1.46945 -2.54277 0
M  V30 11 N -2.09469 -0.0350418 -1.12719 0
M  V30 12 N -3.12579 -0.283774 -1.93381 0
M  V30 13 C -4.00408 -1.1244 -1.3777 0
M  V30 14 C -3.5327 -1.45363 -0.132701 0
M  V30 15 C -2.33378 -0.74728 -0.0175212 0
M  V30 16 N -1.55139 -0.825664 1.1847 0
M  V30 17 H 3.67129 -2.14599 -0.158303 0
M  V30 18 H 2.9598 -2.44946 1.32551 0
M  V30 19 H 3.30727 -0.383143 2.02636 0
M  V30 20 H 4.15939 -0.130259 0.488732 0
M  V30 21 H 1.75464 3.78464 0.727542 0
M  V30 22 H -0.285321 3.19135 -0.56635 0
M  V30 23 H 0.922146 -0.889722 -0.492683 0
M  V30 24 H -4.92617 -1.49544 -1.806 0
M  V30 25 H -3.94587 -2.0974 0.618288 0
M  V30 26 H -1.52476 0.0129529 1.80616 0
M  V30 27 H -1.02336 -1.66844 1.45138 0
M  V30 END ATOM
M  V30 BEGIN BOND
M  V30 1 1 1 2
M  V30 2 1 2 3
M  V30 3 2 3 4
M  V30 4 1 4 5
M  V30 5 2 5 6
M  V30 6 1 6 7
M  V30 7 2 7 8
M  V30 8 1 7 9
M  V30 9 2 9 10
M  V30 10 1 9 11
M  V30 11 1 11 12
M  V30 12 2 12 13
M  V30 13 1 13 14
M  V30 14 2 14 15
M  V30 15 1 15 16
M  V30 16 1 8 3
M  V30 17 1 15 11
M  V30 18 1 1 17
M  V30 19 1 1 18
M  V30 20 1 2 19
M  V30 21 1 2 20
M  V30 22 1 5 21
M  V30 23 1 6 22
M  V30 24 1 8 23
M  V30 25 1 13 24
M  V30 26 1 14 25
M  V30 27 1 16 26
M  V30 28 1 16 27
M  V30 END BOND
M  V30 END CTAB
M  END
