
     RDKit          3D

  0  0  0  0  0  0  0  0  0  0999 V3000
M  V30 BEGIN CTAB
M  V30 COUNTS 34 34 0 0 0
M  V30 BEGIN ATOM
M  V30 1 N 5.09014 0.46466 0.380859 0
M  V30 2 C 3.65897 0.705182 0.456116 0
M  V30 3 C 2.95811 -0.421644 -0.245882 0
M  V30 4 C 1.48314 -0.281259 -0.228288 0
M  V30 5 C 0.853353 0.92027 -0.00546775 0
M  V30 6 C -0.531248 0.989619 0.0012372 0
M  V30 7 C -1.33137 -0.10338 -0.207512 0
M  V30 8 C -0.721281 -1.30706 -0.430751 0
M  V30 9 C 0.656064 -1.39071 -0.440252 0
M  V30 10 C -2.79848 0.0972519 -0.176329 0
M  V30 11 C -3.5746 -1.14162 -0.527475 0
M  V30 12 C -3.25874 0.685078 1.14548 0
M  V30 13 C -3.13916 1.13593 -1.23628 0
M  V30 14 N 3.26365 -1.63487 0.52946 0
M  V30 15 H 5.43279 0.893291 -0.508018 0
M  V30 16 H 5.56422 1.00983 1.1502 0
M  V30 17 H 3.3214 0.703719 1.51772 0
M  V30 18 H 3.48633 1.69122 0.0297073 0
M  V30 19 H 3.29147 -0.537868 -1.2984 0
M  V30 20 H 1.4631 1.82273 0.165367 0
M  V30 21 H -0.973188 1.95013 0.178378 0
M  V30 22 H -1.31833 -2.17827 -0.595029 0
M  V30 23 H 1.10797 -2.37321 -0.622562 0
M  V30 24 H -3.75946 -1.81838 0.313696 0
M  V30 25 H -4.58809 -0.785685 -0.866346 0
M  V30 26 H -3.10024 -1.61092 -1.40199 0
M  V30 27 H -4.36939 0.647347 1.13829 0
M  V30 28 H -3.00752 1.77647 1.20336 0
M  V30 29 H -2.81315 0.116506 1.97468 0
M  V30 30 H -2.79917 0.755633 -2.20925 0
M  V30 31 H -4.26503 1.1996 -1.22505 0
M  V30 32 H -2.6688 2.07897 -0.949162 0
M  V30 33 H 3.07893 -2.48521 -0.0195434 0
M  V30 34 H 4.30762 -1.57336 0.707723 0
M  V30 END ATOM
M  V30 BEGIN BOND
M  V30 1 1 1 2
M  V30 2 1 2 3
M  V30 3 1 3 4
M  V30 4 2 4 5
M  V30 5 1 5 6
M  V30 6 2 6 7
M  V30 7 1 7 8
M  V30 8 2 8 9
M  V30 9 1 7 10
M  V30 10 1 10 11
M  V30 11 1 10 12
M  V30 12 1 10 13
M  V30 13 1 3 14
M  V30 14 1 9 4
M  V30 15 1 1 15
M  V30 16 1 1 16
M  V30 17 1 2 17
M  V30 18 1 2 18
M  V30 19 1 3 19
M  V30 20 1 5 20
M  V30 21 1 6 21
M  V30 22 1 8 22
M  V30 23 1 9 23
M  V30 24 1 11 24
M  V30 25 1 11 25
M  V30 26 1 11 26
M  V30 27 1 12 27
M  V30 28 1 12 28
M  V30 29 1 12 29
M  V30 30 1 13 30
M  V30 31 1 13 31
M  V30 32 1 13 32
M  V30 33 1 14 33
M  V30 34 1 14 34
M  V30 END BOND
M  V30 END CTAB
M  END
