
     RDKit          3D

  0  0  0  0  0  0  0  0  0  0999 V3000
M  V30 BEGIN CTAB
M  V30 COUNTS 31 32 0 0 0
M  V30 BEGIN ATOM
M  V30 1 C 4.4878 1.04748 1.16613 0
M  V30 2 C 3.32203 1.06341 0.186705 0
M  V30 3 C 2.20117 0.168155 0.679546 0 CFG=2
M  V30 4 C 2.61697 -1.27722 0.845517 0
M  V30 5 C 1.6465 -0.8082 -0.25306 0 CFG=1
M  V30 6 N 0.340019 -1.38991 -0.139842 0
M  V30 7 C -0.873595 -0.692767 -0.15789 0
M  V30 8 C -0.873807 0.670815 -0.310245 0
M  V30 9 C -2.07628 1.37559 -0.32876 0
M  V30 10 C -3.2455 0.681309 -0.192641 0
M  V30 11 C -3.29152 -0.689694 -0.0371757 0
M  V30 12 C -2.06833 -1.34581 -0.025117 0
M  V30 13 N -4.53665 -1.3627 0.10034 0
M  V30 14 N -4.4894 1.41042 -0.211806 0
M  V30 15 H 4.07593 0.850974 2.17613 0
M  V30 16 H 4.98047 2.01788 1.15258 0
M  V30 17 H 5.21389 0.253336 0.948211 0
M  V30 18 H 2.9705 2.09287 0.00763415 0
M  V30 19 H 3.74454 0.685697 -0.78239 0
M  V30 20 H 1.61412 0.634803 1.49716 0
M  V30 21 H 2.21366 -1.83952 1.68693 0
M  V30 22 H 3.62423 -1.58984 0.528622 0
M  V30 23 H 2.05108 -0.823576 -1.29725 0
M  V30 24 H 0.327316 -2.44815 -0.033959 0
M  V30 25 H 0.0304772 1.26225 -0.42233 0
M  V30 26 H -2.08923 2.44608 -0.447705 0
M  V30 27 H -2.09247 -2.42217 0.0963383 0
M  V30 28 H -5.36103 -0.929447 0.525198 0
M  V30 29 H -4.60804 -2.34327 -0.249591 0
M  V30 30 H -5.23294 1.10803 0.459877 0
M  V30 31 H -4.6219 2.1932 -0.866353 0
M  V30 END ATOM
M  V30 BEGIN BOND
M  V30 1 1 1 2
M  V30 2 1 2 3
M  V30 3 1 3 4
M  V30 4 1 4 5
M  V30 5 1 5 6
M  V30 6 1 6 7
M  V30 7 2 7 8
M  V30 8 1 8 9
M  V30 9 2 9 10
M  V30 10 1 10 11
M  V30 11 2 11 12
M  V30 12 1 11 13
M  V30 13 1 10 14
M  V30 14 1 5 3
M  V30 15 1 12 7
M  V30 16 1 1 15
M  V30 17 1 1 16
M  V30 18 1 1 17
M  V30 19 1 2 18
M  V30 20 1 2 19
M  V30 21 1 3 20 CFG=1
M  V30 22 1 4 21
M  V30 23 1 4 22
M  V30 24 1 5 23 CFG=3
M  V30 25 1 6 24
M  V30 26 1 8 25
M  V30 27 1 9 26
M  V30 28 1 12 27
M  V30 29 1 13 28
M  V30 30 1 13 29
M  V30 31 1 14 30
M  V30 32 1 14 31
M  V30 END BOND
M  V30 END CTAB
M  END
