
     RDKit          3D

  0  0  0  0  0  0  0  0  0  0999 V3000
M  V30 BEGIN CTAB
M  V30 COUNTS 22 22 0 0 0
M  V30 BEGIN ATOM
M  V30 1 N -0.726361 2.03483 1.03373 0
M  V30 2 C -1.37949 0.883488 0.534345 0
M  V30 3 C -0.534311 -0.173228 -0.0264669 0
M  V30 4 C -1.09147 -1.34777 -0.543319 0
M  V30 5 C -2.52556 -1.73051 -0.622828 0
M  V30 6 N -0.040212 -2.07524 -0.962523 0
M  V30 7 N 1.08605 -1.42847 -0.736066 0
M  V30 8 C 0.821585 -0.224039 -0.146767 0
M  V30 9 S 1.99342 0.968781 0.33441 0
M  V30 10 O 1.87788 2.25594 -0.430771 0
M  V30 11 O 2.03613 1.18144 1.82721 0
M  V30 12 N 3.58998 0.362264 -0.0632362 0
M  V30 13 H -0.870805 2.21889 2.05054 0
M  V30 14 H -0.816356 2.8863 0.438058 0
M  V30 15 H -2.10419 0.429708 1.27368 0
M  V30 16 H -2.05758 1.22573 -0.304402 0
M  V30 17 H -3.10033 -1.34596 0.270383 0
M  V30 18 H -3.00711 -1.31303 -1.54148 0
M  V30 19 H -2.63385 -2.83337 -0.575785 0
M  V30 20 H 2.06095 -1.73811 -0.951914 0
M  V30 21 H 3.77939 0.420231 -1.07013 0
M  V30 22 H 3.64224 -0.657866 0.213327 0
M  V30 END ATOM
M  V30 BEGIN BOND
M  V30 1 1 1 2
M  V30 2 1 2 3
M  V30 3 1 3 4
M  V30 4 1 4 5
M  V30 5 2 4 6
M  V30 6 1 6 7
M  V30 7 1 7 8
M  V30 8 1 8 9
M  V30 9 2 9 10
M  V30 10 2 9 11
M  V30 11 1 9 12
M  V30 12 2 8 3
M  V30 13 1 1 13
M  V30 14 1 1 14
M  V30 15 1 2 15
M  V30 16 1 2 16
M  V30 17 1 5 17
M  V30 18 1 5 18
M  V30 19 1 5 19
M  V30 20 1 7 20
M  V30 21 1 12 21
M  V30 22 1 12 22
M  V30 END BOND
M  V30 END CTAB
M  END
