
     RDKit          3D

  0  0  0  0  0  0  0  0  0  0999 V3000
M  V30 BEGIN CTAB
M  V30 COUNTS 32 31 0 0 0
M  V30 BEGIN ATOM
M  V30 1 C -3.31455 -1.05064 0.895627 0
M  V30 2 C -2.30444 -0.0243631 0.371764 0
M  V30 3 C -2.95668 0.583945 -0.874332 0
M  V30 4 N -2.07229 0.963573 1.37366 0
M  V30 5 C -1.07731 -0.810197 -0.024545 0
M  V30 6 C 0.00595624 0.0432554 -0.54725 0
M  V30 7 O -0.155379 1.23721 -0.592799 0
M  V30 8 C 1.26196 -0.551368 -1.00306 0
M  V30 9 C 2.48679 0.0107213 -0.317908 0
M  V30 10 C 2.42544 -0.226285 1.18253 0
M  V30 11 C 2.71091 1.4709 -0.539208 0
M  V30 12 N 3.63998 -0.708204 -0.812632 0
M  V30 13 H -3.08962 -1.17655 1.98851 0
M  V30 14 H -3.18026 -2.01844 0.381711 0
M  V30 15 H -4.35813 -0.701321 0.756458 0
M  V30 16 H -4.05366 0.632886 -0.668208 0
M  V30 17 H -2.78082 -0.0714604 -1.74358 0
M  V30 18 H -2.55856 1.61491 -1.00367 0
M  V30 19 H -2.85875 1.03173 2.07585 0
M  V30 20 H -2.06797 1.92226 0.909436 0
M  V30 21 H -1.41188 -1.50978 -0.841379 0
M  V30 22 H -0.733859 -1.45951 0.811829 0
M  V30 23 H 1.30887 -1.65537 -0.910023 0
M  V30 24 H 1.4034 -0.337762 -2.10562 0
M  V30 25 H 2.23429 0.719951 1.74342 0
M  V30 26 H 3.36358 -0.646773 1.59723 0
M  V30 27 H 1.62359 -0.970759 1.43204 0
M  V30 28 H 2.27949 2.07865 0.315437 0
M  V30 29 H 3.79469 1.71718 -0.531704 0
M  V30 30 H 2.32588 1.86431 -1.50484 0
M  V30 31 H 4.51336 -0.287486 -0.3794 0
M  V30 32 H 3.59598 -1.68519 -0.459866 0
M  V30 END ATOM
M  V30 BEGIN BOND
M  V30 1 1 1 2
M  V30 2 1 2 3
M  V30 3 1 2 4
M  V30 4 1 2 5
M  V30 5 1 5 6
M  V30 6 2 6 7
M  V30 7 1 6 8
M  V30 8 1 8 9
M  V30 9 1 9 10
M  V30 10 1 9 11
M  V30 11 1 9 12
M  V30 12 1 1 13
M  V30 13 1 1 14
M  V30 14 1 1 15
M  V30 15 1 3 16
M  V30 16 1 3 17
M  V30 17 1 3 18
M  V30 18 1 4 19
M  V30 19 1 4 20
M  V30 20 1 5 21
M  V30 21 1 5 22
M  V30 22 1 8 23
M  V30 23 1 8 24
M  V30 24 1 10 25
M  V30 25 1 10 26
M  V30 26 1 10 27
M  V30 27 1 11 28
M  V30 28 1 11 29
M  V30 29 1 11 30
M  V30 30 1 12 31
M  V30 31 1 12 32
M  V30 END BOND
M  V30 END CTAB
M  END
