
     RDKit          3D

  0  0  0  0  0  0  0  0  0  0999 V3000
M  V30 BEGIN CTAB
M  V30 COUNTS 27 28 0 0 0
M  V30 BEGIN ATOM
M  V30 1 N -4.00255 -0.752136 0.0342912 0
M  V30 2 C -2.76761 -0.0635817 0.0593969 0
M  V30 3 C -2.71739 1.29947 0.0287389 0
M  V30 4 C -1.51697 1.97115 0.0530675 0
M  V30 5 C -0.354402 1.23175 0.109608 0
M  V30 6 C 0.876572 1.89074 0.135264 0
M  V30 7 O 0.866832 3.27431 0.102125 0
M  V30 8 C 2.02742 1.16625 0.191056 0
M  V30 9 C 2.03976 -0.226987 0.22453 0
M  V30 10 C 0.80798 -0.852355 0.19805 0
M  V30 11 C -0.379793 -0.124716 0.140944 0
M  V30 12 C -1.57961 -0.795585 0.11662 0
M  V30 13 N -1.66161 -2.21171 0.147505 0
M  V30 14 S 3.51105 -1.1641 0.29614 0
M  V30 15 O 4.05232 -1.51267 -1.26453 0
M  V30 16 O 3.27803 -2.46821 1.02022 0
M  V30 17 O 4.5693 -0.429733 1.07656 0
M  V30 18 H -4.72873 -0.497998 0.7277 0
M  V30 19 H -4.20633 -1.49979 -0.651187 0
M  V30 20 H -3.62712 1.88545 -0.0156764 0
M  V30 21 H -1.44449 3.04826 0.0299387 0
M  V30 22 H 1.68958 3.83679 0.116247 0
M  V30 23 H 2.98615 1.65831 0.211526 0
M  V30 24 H 0.696036 -1.92628 0.219787 0
M  V30 25 H -1.07301 -2.78319 0.777471 0
M  V30 26 H -2.3282 -2.69985 -0.475869 0
M  V30 27 H 4.98677 -1.25361 -1.40365 0
M  V30 END ATOM
M  V30 BEGIN BOND
M  V30 1 1 1 2
M  V30 2 2 2 3
M  V30 3 1 3 4
M  V30 4 2 4 5
M  V30 5 1 5 6
M  V30 6 1 6 7
M  V30 7 2 6 8
M  V30 8 1 8 9
M  V30 9 2 9 10
M  V30 10 1 10 11
M  V30 11 2 11 12
M  V30 12 1 12 13
M  V30 13 1 9 14
M  V30 14 1 14 15
M  V30 15 2 14 16
M  V30 16 2 14 17
M  V30 17 1 12 2
M  V30 18 1 11 5
M  V30 19 1 1 18
M  V30 20 1 1 19
M  V30 21 1 3 20
M  V30 22 1 4 21
M  V30 23 1 7 22
M  V30 24 1 8 23
M  V30 25 1 10 24
M  V30 26 1 13 25
M  V30 27 1 13 26
M  V30 28 1 15 27
M  V30 END BOND
M  V30 END CTAB
M  END
