
     RDKit          3D

  0  0  0  0  0  0  0  0  0  0999 V3000
M  V30 BEGIN CTAB
M  V30 COUNTS 47 49 0 0 0
M  V30 BEGIN ATOM
M  V30 1 C 5.91516 1.55646 -0.624267 0
M  V30 2 C 5.08514 0.953494 0.515023 0
M  V30 3 O 3.88219 0.59977 -0.0257233 0
M  V30 4 C 2.96453 0.0126907 0.796549 0
M  V30 5 C 1.65379 0.878316 0.815651 0
M  V30 6 C 1.36996 0.196999 -0.491137 0
M  V30 7 C 2.11446 -0.98695 0.063272 0
M  V30 8 C 2.80849 -1.72283 -1.05209 0
M  V30 9 C 1.24219 -1.84607 0.932553 0
M  V30 10 N 2.03683 0.893498 -1.58261 0
M  V30 11 C -0.0481125 -0.0887032 -0.754189 0
M  V30 12 O -0.453606 -0.757453 -1.8139 0
M  V30 13 N -1.73043 -0.869508 -1.80083 0
M  V30 14 C -2.20918 -0.257445 -0.705317 0
M  V30 15 N -1.14795 0.23227 -0.0466796 0
M  V30 16 C -3.64704 -0.211818 -0.406707 0
M  V30 17 N -4.35522 -1.27288 -1.11977 0
M  V30 18 C -3.96217 -0.387711 1.06005 0
M  V30 19 C -5.45692 -0.0446686 1.06232 0
M  V30 20 C -5.52654 1.14542 0.14767 0
M  V30 21 C -4.2893 1.10856 -0.725077 0
M  V30 22 H 5.97294 0.732933 -1.37331 0
M  V30 23 H 6.90146 1.87099 -0.300199 0
M  V30 24 H 5.30375 2.34597 -1.09924 0
M  V30 25 H 4.98095 1.73328 1.3182 0
M  V30 26 H 5.62418 0.0631584 0.862851 0
M  V30 27 H 3.26538 -0.223975 1.82601 0
M  V30 28 H 1.9552 1.92211 0.779588 0
M  V30 29 H 1.07564 0.54325 1.68965 0
M  V30 30 H 2.07029 -2.22537 -1.69435 0
M  V30 31 H 3.34286 -0.990423 -1.66021 0
M  V30 32 H 3.53363 -2.42497 -0.594749 0
M  V30 33 H 0.96656 -2.75127 0.349683 0
M  V30 34 H 0.375622 -1.33776 1.36333 0
M  V30 35 H 1.86931 -2.20691 1.79113 0
M  V30 36 H 2.00364 1.92433 -1.44375 0
M  V30 37 H 1.68849 0.634382 -2.51428 0
M  V30 38 H -3.97991 -2.17302 -0.696973 0
M  V30 39 H -4.0071 -1.30555 -2.1245 0
M  V30 40 H -3.76623 -1.39858 1.4085 0
M  V30 41 H -3.47172 0.413259 1.62379 0
M  V30 42 H -6.06657 -0.863532 0.625867 0
M  V30 43 H -5.80781 0.190575 2.07839 0
M  V30 44 H -5.50995 2.10266 0.714807 0
M  V30 45 H -6.43979 1.13338 -0.491564 0
M  V30 46 H -4.53415 1.21112 -1.79312 0
M  V30 47 H -3.59295 1.94851 -0.475874 0
M  V30 END ATOM
M  V30 BEGIN BOND
M  V30 1 1 1 2
M  V30 2 1 2 3
M  V30 3 1 3 4
M  V30 4 1 4 5
M  V30 5 1 5 6
M  V30 6 1 6 7
M  V30 7 1 7 8
M  V30 8 1 7 9
M  V30 9 1 6 10
M  V30 10 1 6 11
M  V30 11 1 11 12
M  V30 12 1 12 13
M  V30 13 2 13 14
M  V30 14 1 14 15
M  V30 15 1 14 16
M  V30 16 1 16 17
M  V30 17 1 16 18
M  V30 18 1 18 19
M  V30 19 1 19 20
M  V30 20 1 20 21
M  V30 21 1 7 4
M  V30 22 2 15 11
M  V30 23 1 21 16
M  V30 24 1 1 22
M  V30 25 1 1 23
M  V30 26 1 1 24
M  V30 27 1 2 25
M  V30 28 1 2 26
M  V30 29 1 4 27
M  V30 30 1 5 28
M  V30 31 1 5 29
M  V30 32 1 8 30
M  V30 33 1 8 31
M  V30 34 1 8 32
M  V30 35 1 9 33
M  V30 36 1 9 34
M  V30 37 1 9 35
M  V30 38 1 10 36
M  V30 39 1 10 37
M  V30 40 1 17 38
M  V30 41 1 17 39
M  V30 42 1 18 40
M  V30 43 1 18 41
M  V30 44 1 19 42
M  V30 45 1 19 43
M  V30 46 1 20 44
M  V30 47 1 20 45
M  V30 48 1 21 46
M  V30 49 1 21 47
M  V30 END BOND
M  V30 END CTAB
M  END
