
     RDKit          3D

  0  0  0  0  0  0  0  0  0  0999 V3000
M  V30 BEGIN CTAB
M  V30 COUNTS 33 32 0 0 0
M  V30 BEGIN ATOM
M  V30 1 C 2.81946 1.97336 0.352156 0
M  V30 2 C 1.63482 1.28432 -0.362015 0
M  V30 3 C 1.13254 0.255633 0.584762 0
M  V30 4 C -0.0205526 -0.573441 0.148553 0
M  V30 5 C 0.320646 -1.26996 -1.14417 0
M  V30 6 N -0.751515 -2.09942 -1.63493 0
M  V30 7 C -0.186705 -1.77927 1.14453 0
M  V30 8 N 0.925092 -2.62614 1.2058 0
M  V30 9 C -1.31557 0.106041 0.220158 0
M  V30 10 C -1.60717 1.3364 -0.519208 0
M  V30 11 C -3.108 1.64879 -0.208553 0
M  V30 12 H 3.69394 1.29024 0.357644 0
M  V30 13 H 3.03414 2.92547 -0.136553 0
M  V30 14 H 2.55319 2.1981 1.40988 0
M  V30 15 H 0.980851 2.07947 -0.67206 0
M  V30 16 H 2.11632 0.84779 -1.27292 0
M  V30 17 H 2.02314 -0.308841 0.948277 0
M  V30 18 H 0.84649 0.847933 1.52771 0
M  V30 19 H 1.18458 -1.9285 -0.955521 0
M  V30 20 H 0.665628 -0.539454 -1.91512 0
M  V30 21 H -0.510628 -3.117 -1.65136 0
M  V30 22 H -0.919281 -1.83103 -2.63112 0
M  V30 23 H -1.08457 -2.36507 0.814858 0
M  V30 24 H -0.43151 -1.3857 2.14624 0
M  V30 25 H 1.80074 -2.22702 0.909592 0
M  V30 26 H 0.978172 -3.16134 2.10251 0
M  V30 27 H -1.56605 0.32791 1.31681 0
M  V30 28 H -2.1695 -0.61927 -0.0276594 0
M  V30 29 H -1.13247 2.26006 -0.104558 0
M  V30 30 H -1.55982 1.27152 -1.61686 0
M  V30 31 H -3.28807 1.50444 0.877565 0
M  V30 32 H -3.7414 0.963412 -0.781409 0
M  V30 33 H -3.31692 2.71058 -0.433039 0
M  V30 END ATOM
M  V30 BEGIN BOND
M  V30 1 1 1 2
M  V30 2 1 2 3
M  V30 3 1 3 4
M  V30 4 1 4 5
M  V30 5 1 5 6
M  V30 6 1 4 7
M  V30 7 1 7 8
M  V30 8 1 4 9
M  V30 9 1 9 10
M  V30 10 1 10 11
M  V30 11 1 1 12
M  V30 12 1 1 13
M  V30 13 1 1 14
M  V30 14 1 2 15
M  V30 15 1 2 16
M  V30 16 1 3 17
M  V30 17 1 3 18
M  V30 18 1 5 19
M  V30 19 1 5 20
M  V30 20 1 6 21
M  V30 21 1 6 22
M  V30 22 1 7 23
M  V30 23 1 7 24
M  V30 24 1 8 25
M  V30 25 1 8 26
M  V30 26 1 9 27
M  V30 27 1 9 28
M  V30 28 1 10 29
M  V30 29 1 10 30
M  V30 30 1 11 31
M  V30 31 1 11 32
M  V30 32 1 11 33
M  V30 END BOND
M  V30 END CTAB
M  END
