
     RDKit          3D

  0  0  0  0  0  0  0  0  0  0999 V3000
M  V30 BEGIN CTAB
M  V30 COUNTS 44 45 0 0 0
M  V30 BEGIN ATOM
M  V30 1 N -5.15681 -0.704608 1.47733 0
M  V30 2 P -3.76398 0.323412 1.53313 0
M  V30 3 N -4.2784 2.00901 1.6347 0
M  V30 4 O -2.9547 0.0444132 2.79114 0
M  V30 5 N -2.79115 0.119917 0.100617 0
M  V30 6 C -3.39415 -0.694333 -0.925891 0
M  V30 7 C -3.4967 0.102243 -2.21271 0
M  V30 8 C -2.11496 0.0671863 -2.85771 0
M  V30 9 C -1.36086 1.26592 -2.37802 0
M  V30 10 C -0.61927 1.04692 -1.09906 0 CFG=2
M  V30 11 N 0.332378 -0.0329595 -1.14662 0
M  V30 12 C 1.71661 0.120878 -0.922759 0
M  V30 13 O 2.16468 1.26066 -0.668339 0
M  V30 14 O 2.60683 -0.924091 -0.968765 0
M  V30 15 C 3.97917 -0.874558 -0.761856 0
M  V30 16 C 4.40928 -0.389037 0.553283 0
M  V30 17 C 4.8994 0.891445 0.726694 0
M  V30 18 C 5.30217 1.3549 1.95951 0
M  V30 19 C 5.23305 0.559061 3.07619 0
M  V30 20 C 4.74107 -0.726327 2.90332 0
M  V30 21 C 4.33835 -1.19137 1.67157 0
M  V30 22 C -1.52518 0.74825 0.0554008 0
M  V30 23 O -1.09377 1.11457 1.17728 0
M  V30 24 H -5.95119 -0.18857 1.16684 0
M  V30 25 H -5.25813 -1.22905 2.31397 0
M  V30 26 H -3.50686 2.603 2.03324 0
M  V30 27 H -4.36377 2.3369 0.632013 0
M  V30 28 H -4.39057 -1.05832 -0.664052 0
M  V30 29 H -2.71415 -1.56444 -1.11311 0
M  V30 30 H -3.77602 1.16169 -1.98947 0
M  V30 31 H -4.24888 -0.315449 -2.89393 0
M  V30 32 H -1.61698 -0.899561 -2.63426 0
M  V30 33 H -2.19913 0.105009 -3.97989 0
M  V30 34 H -2.10974 2.07989 -2.17728 0
M  V30 35 H -0.652382 1.68466 -3.11411 0
M  V30 36 H -0.113365 2.02728 -0.856456 0
M  V30 37 H -0.0280952 -0.984087 -1.3571 0
M  V30 38 H 4.47901 -0.228872 -1.54395 0
M  V30 39 H 4.41063 -1.89488 -0.949163 0
M  V30 40 H 4.98417 1.5862 -0.126603 0
M  V30 41 H 5.6801 2.36063 2.05818 0
M  V30 42 H 5.54927 0.910701 4.06778 0
M  V30 43 H 4.68995 -1.34613 3.78713 0
M  V30 44 H 3.96306 -2.215 1.62177 0
M  V30 END ATOM
M  V30 BEGIN BOND
M  V30 1 1 1 2
M  V30 2 1 2 3
M  V30 3 2 2 4
M  V30 4 1 2 5
M  V30 5 1 5 6
M  V30 6 1 6 7
M  V30 7 1 7 8
M  V30 8 1 8 9
M  V30 9 1 9 10
M  V30 10 1 10 11
M  V30 11 1 11 12
M  V30 12 2 12 13
M  V30 13 1 12 14
M  V30 14 1 14 15
M  V30 15 1 15 16
M  V30 16 2 16 17
M  V30 17 1 17 18
M  V30 18 2 18 19
M  V30 19 1 19 20
M  V30 20 2 20 21
M  V30 21 1 10 22
M  V30 22 2 22 23
M  V30 23 1 22 5
M  V30 24 1 21 16
M  V30 25 1 1 24
M  V30 26 1 1 25
M  V30 27 1 3 26
M  V30 28 1 3 27
M  V30 29 1 6 28
M  V30 30 1 6 29
M  V30 31 1 7 30
M  V30 32 1 7 31
M  V30 33 1 8 32
M  V30 34 1 8 33
M  V30 35 1 9 34
M  V30 36 1 9 35
M  V30 37 1 10 36 CFG=1
M  V30 38 1 11 37
M  V30 39 1 15 38
M  V30 40 1 15 39
M  V30 41 1 17 40
M  V30 42 1 18 41
M  V30 43 1 19 42
M  V30 44 1 20 43
M  V30 45 1 21 44
M  V30 END BOND
M  V30 END CTAB
M  END
