
     RDKit          3D

  0  0  0  0  0  0  0  0  0  0999 V3000
M  V30 BEGIN CTAB
M  V30 COUNTS 49 51 0 0 0
M  V30 BEGIN ATOM
M  V30 1 C 8.53456 -1.06734 1.17054 0
M  V30 2 O 7.24464 -1.56914 0.977612 0
M  V30 3 C 6.16637 -0.714236 0.804192 0
M  V30 4 C 6.37695 0.657785 0.823398 0
M  V30 5 C 5.33468 1.53718 0.655265 0
M  V30 6 C 4.05707 1.04092 0.464161 0
M  V30 7 C 3.80172 -0.319733 0.437984 0
M  V30 8 O 2.52262 -0.832823 0.246807 0
M  V30 9 C 1.47465 0.0731554 0.0775298 0
M  V30 10 C 0.16928 -0.598581 -0.116115 0
M  V30 11 C 0.146217 -1.97702 -0.106892 0
M  V30 12 C -1.05309 -2.66797 -0.284053 0
M  V30 13 C -2.21795 -1.94375 -0.469034 0
M  V30 14 C -2.22261 -0.565683 -0.482494 0
M  V30 15 C -1.01081 0.0675629 -0.302891 0
M  V30 16 N -3.4536 0.192046 -0.677869 0
M  V30 17 C -3.82872 0.527519 -1.99972 0
M  V30 18 N -2.95845 0.0922124 -3.0728 0
M  V30 19 N -4.89596 1.19137 -2.25309 0
M  V30 20 C -5.74024 1.61249 -1.19741 0
M  V30 21 N -6.94309 2.35635 -1.42981 0
M  V30 22 N -5.41036 1.31509 -0.00600598 0
M  V30 23 C -4.25759 0.584996 0.425247 0
M  V30 24 C -3.51504 1.43405 1.43587 0
M  V30 25 C -4.79158 -0.687992 1.10285 0
M  V30 26 C 4.8813 -1.15905 0.611452 0
M  V30 27 H 8.92071 -0.533358 0.277162 0
M  V30 28 H 8.50157 -0.327168 1.99932 0
M  V30 29 H 9.23397 -1.88613 1.44521 0
M  V30 30 H 7.38084 1.04671 0.973566 0
M  V30 31 H 5.49404 2.62255 0.669359 0
M  V30 32 H 3.20835 1.69738 0.327831 0
M  V30 33 H 1.73791 0.752257 -0.754018 0
M  V30 34 H 1.46151 0.728476 0.996549 0
M  V30 35 H 1.05603 -2.57758 0.0379018 0
M  V30 36 H -1.04869 -3.74443 -0.273404 0
M  V30 37 H -3.14013 -2.47082 -0.6053 0
M  V30 38 H -0.97939 1.14456 -0.308051 0
M  V30 39 H -2.4799 0.826711 -3.6339 0
M  V30 40 H -2.84871 -0.914789 -3.2364 0
M  V30 41 H -6.91221 3.36616 -1.16687 0
M  V30 42 H -7.80095 1.95246 -1.82895 0
M  V30 43 H -3.12964 0.748081 2.21963 0
M  V30 44 H -2.76504 2.08836 0.995069 0
M  V30 45 H -4.24897 2.10281 1.97332 0
M  V30 46 H -3.98423 -1.19787 1.6599 0
M  V30 47 H -5.17233 -1.34978 0.303689 0
M  V30 48 H -5.64254 -0.410964 1.74846 0
M  V30 49 H 4.74683 -2.24304 0.601165 0
M  V30 END ATOM
M  V30 BEGIN BOND
M  V30 1 1 1 2
M  V30 2 1 2 3
M  V30 3 2 3 4
M  V30 4 1 4 5
M  V30 5 2 5 6
M  V30 6 1 6 7
M  V30 7 1 7 8
M  V30 8 1 8 9
M  V30 9 1 9 10
M  V30 10 2 10 11
M  V30 11 1 11 12
M  V30 12 2 12 13
M  V30 13 1 13 14
M  V30 14 2 14 15
M  V30 15 1 14 16
M  V30 16 1 16 17
M  V30 17 1 17 18
M  V30 18 2 17 19
M  V30 19 1 19 20
M  V30 20 1 20 21
M  V30 21 2 20 22
M  V30 22 1 22 23
M  V30 23 1 23 24
M  V30 24 1 23 25
M  V30 25 2 7 26
M  V30 26 1 26 3
M  V30 27 1 15 10
M  V30 28 1 23 16
M  V30 29 1 1 27
M  V30 30 1 1 28
M  V30 31 1 1 29
M  V30 32 1 4 30
M  V30 33 1 5 31
M  V30 34 1 6 32
M  V30 35 1 9 33
M  V30 36 1 9 34
M  V30 37 1 11 35
M  V30 38 1 12 36
M  V30 39 1 13 37
M  V30 40 1 15 38
M  V30 41 1 18 39
M  V30 42 1 18 40
M  V30 43 1 21 41
M  V30 44 1 21 42
M  V30 45 1 24 43
M  V30 46 1 24 44
M  V30 47 1 24 45
M  V30 48 1 25 46
M  V30 49 1 25 47
M  V30 50 1 25 48
M  V30 51 1 26 49
M  V30 END BOND
M  V30 END CTAB
M  END
