
     RDKit          3D

  0  0  0  0  0  0  0  0  0  0999 V3000
M  V30 BEGIN CTAB
M  V30 COUNTS 43 43 0 0 0
M  V30 BEGIN ATOM
M  V30 1 C 3.9788 1.14037 -1.31903 0
M  V30 2 C 3.80938 -0.233586 -0.741 0 CFG=2
M  V30 3 C 2.29569 -0.431183 -0.516572 0
M  V30 4 C 1.79472 0.615115 0.430462 0
M  V30 5 C 0.329068 0.451194 0.690776 0
M  V30 6 C -0.431578 0.58115 -0.582962 0
M  V30 7 N -1.85272 0.453149 -0.422554 0
M  V30 8 C -2.46014 -0.735199 -0.509035 0
M  V30 9 O -1.81589 -1.80648 -0.736207 0
M  V30 10 N -3.80281 -0.809633 -0.351121 0
M  V30 11 C -4.50618 -2.09062 -0.438263 0
M  V30 12 C -4.56254 0.267808 -0.108649 0
M  V30 13 N -5.98222 0.183625 0.057569 0
M  V30 14 C -3.95263 1.50634 -0.0156152 0
M  V30 15 N -4.70664 2.66778 0.237636 0
M  V30 16 C -2.58149 1.54635 -0.181802 0
M  V30 17 O -2.02864 2.6866 -0.0950632 0
M  V30 18 O 4.41276 -0.394326 0.509755 0
M  V30 19 C 5.30461 -1.4088 0.787749 0
M  V30 20 C 5.88916 -1.49444 2.1411 0
M  V30 21 O 5.5755 -2.21112 -0.126911 0
M  V30 22 H 4.85341 1.23202 -1.987 0
M  V30 23 H 4.01461 1.88293 -0.503563 0
M  V30 24 H 3.08742 1.36887 -1.92864 0
M  V30 25 H 4.09718 -0.975633 -1.48965 0
M  V30 26 H 2.10405 -1.42094 -0.0632838 0
M  V30 27 H 1.82659 -0.414579 -1.52142 0
M  V30 28 H 2.39141 0.50337 1.36639 0
M  V30 29 H 1.97361 1.6528 0.0546563 0
M  V30 30 H 0.0484252 1.23457 1.43515 0
M  V30 31 H 0.170931 -0.519485 1.20496 0
M  V30 32 H -0.220912 1.58842 -1.00306 0
M  V30 33 H -0.127731 -0.226063 -1.28445 0
M  V30 34 H -5.49931 -1.91691 -0.89816 0
M  V30 35 H -4.6029 -2.52687 0.567367 0
M  V30 36 H -3.93856 -2.74583 -1.10653 0
M  V30 37 H -6.39025 0.540042 0.947393 0
M  V30 38 H -6.60657 -0.209079 -0.656235 0
M  V30 39 H -4.58539 3.17117 1.12878 0
M  V30 40 H -5.37716 3.01419 -0.464006 0
M  V30 41 H 6.53554 -0.609226 2.37673 0
M  V30 42 H 6.45473 -2.44083 2.19981 0
M  V30 43 H 5.08468 -1.57213 2.91447 0
M  V30 END ATOM
M  V30 BEGIN BOND
M  V30 1 1 1 2
M  V30 2 1 2 3
M  V30 3 1 3 4
M  V30 4 1 4 5
M  V30 5 1 5 6
M  V30 6 1 6 7
M  V30 7 1 7 8
M  V30 8 2 8 9
M  V30 9 1 8 10
M  V30 10 1 10 11
M  V30 11 1 10 12
M  V30 12 1 12 13
M  V30 13 2 12 14
M  V30 14 1 14 15
M  V30 15 1 14 16
M  V30 16 2 16 17
M  V30 17 1 2 18
M  V30 18 1 18 19
M  V30 19 1 19 20
M  V30 20 2 19 21
M  V30 21 1 16 7
M  V30 22 1 1 22
M  V30 23 1 1 23
M  V30 24 1 1 24
M  V30 25 1 2 25 CFG=3
M  V30 26 1 3 26
M  V30 27 1 3 27
M  V30 28 1 4 28
M  V30 29 1 4 29
M  V30 30 1 5 30
M  V30 31 1 5 31
M  V30 32 1 6 32
M  V30 33 1 6 33
M  V30 34 1 11 34
M  V30 35 1 11 35
M  V30 36 1 11 36
M  V30 37 1 13 37
M  V30 38 1 13 38
M  V30 39 1 15 39
M  V30 40 1 15 40
M  V30 41 1 20 41
M  V30 42 1 20 42
M  V30 43 1 20 43
M  V30 END BOND
M  V30 END CTAB
M  END
