
     RDKit          3D

  0  0  0  0  0  0  0  0  0  0999 V3000
M  V30 BEGIN CTAB
M  V30 COUNTS 45 49 0 0 0
M  V30 BEGIN ATOM
M  V30 1 N -7.16756 0.778096 0.284258 0
M  V30 2 C -6.02787 0.892404 0.444099 0
M  V30 3 C -4.59613 1.059 0.658728 0
M  V30 4 C -4.19368 2.0901 1.51526 0
M  V30 5 N -5.14378 2.91523 2.12995 0
M  V30 6 N -2.86633 2.19699 1.67699 0
M  V30 7 C -1.98401 1.36121 1.05145 0
M  V30 8 C -2.34879 0.344257 0.208529 0
M  V30 9 C -3.7323 0.212646 0.0234545 0
M  V30 10 C -4.33208 -0.82307 -0.844819 0
M  V30 11 C -4.77662 -1.99623 -0.289683 0
M  V30 12 S -5.39431 -2.84829 -1.62906 0
M  V30 13 C -5.07691 -1.70557 -2.85314 0
M  V30 14 C -4.48909 -0.677171 -2.16845 0
M  V30 15 C -1.3503 -0.391313 -0.326189 0
M  V30 16 N -1.54757 -1.50939 -1.24121 0
M  V30 17 C -0.0740221 -0.0610201 0.016182 0
M  V30 18 S -0.286408 1.26486 1.07395 0
M  V30 19 C 1.20036 -0.690268 -0.413309 0
M  V30 20 O 1.13458 -1.63547 -1.17439 0
M  V30 21 N 2.37832 -0.135042 0.100608 0
M  V30 22 C 3.71456 -0.538584 -0.14148 0
M  V30 23 C 4.01392 -1.6172 -0.916322 0
M  V30 24 C 5.33745 -2.0086 -1.13702 0
M  V30 25 C 6.3302 -1.28887 -0.560634 0
M  V30 26 C 6.04299 -0.190367 0.22924 0
M  V30 27 C 4.74678 0.217807 0.463567 0
M  V30 28 C 4.50433 1.31418 1.25312 0
M  V30 29 C 5.56469 2.00467 1.81074 0
M  V30 30 C 6.84082 1.57289 1.55862 0
M  V30 31 N 7.06293 0.490442 0.777909 0
M  V30 32 H -6.14578 2.62843 2.11756 0
M  V30 33 H -4.81906 3.80757 2.59064 0
M  V30 34 H -4.73724 -2.30083 0.771857 0
M  V30 35 H -5.2865 -1.76247 -3.93719 0
M  V30 36 H -4.17182 0.224257 -2.74064 0
M  V30 37 H -1.43058 -1.253 -2.26255 0
M  V30 38 H -1.77099 -2.45683 -0.935002 0
M  V30 39 H 2.22133 0.69175 0.757704 0
M  V30 40 H 3.24045 -2.20477 -1.38217 0
M  V30 41 H 5.51159 -2.889 -1.77219 0
M  V30 42 H 7.36454 -1.55424 -0.703517 0
M  V30 43 H 3.5096 1.66668 1.45905 0
M  V30 44 H 5.3843 2.88737 2.44748 0
M  V30 45 H 7.64596 2.13217 2.00801 0
M  V30 END ATOM
M  V30 BEGIN BOND
M  V30 1 3 1 2
M  V30 2 1 2 3
M  V30 3 2 3 4
M  V30 4 1 4 5
M  V30 5 1 4 6
M  V30 6 2 6 7
M  V30 7 1 7 8
M  V30 8 2 8 9
M  V30 9 1 9 10
M  V30 10 2 10 11
M  V30 11 1 11 12
M  V30 12 1 12 13
M  V30 13 2 13 14
M  V30 14 1 8 15
M  V30 15 1 15 16
M  V30 16 2 15 17
M  V30 17 1 17 18
M  V30 18 1 17 19
M  V30 19 2 19 20
M  V30 20 1 19 21
M  V30 21 1 21 22
M  V30 22 2 22 23
M  V30 23 1 23 24
M  V30 24 2 24 25
M  V30 25 1 25 26
M  V30 26 2 26 27
M  V30 27 1 27 28
M  V30 28 2 28 29
M  V30 29 1 29 30
M  V30 30 2 30 31
M  V30 31 1 9 3
M  V30 32 1 14 10
M  V30 33 1 27 22
M  V30 34 1 18 7
M  V30 35 1 31 26
M  V30 36 1 5 32
M  V30 37 1 5 33
M  V30 38 1 11 34
M  V30 39 1 13 35
M  V30 40 1 14 36
M  V30 41 1 16 37
M  V30 42 1 16 38
M  V30 43 1 21 39
M  V30 44 1 23 40
M  V30 45 1 24 41
M  V30 46 1 25 42
M  V30 47 1 28 43
M  V30 48 1 29 44
M  V30 49 1 30 45
M  V30 END BOND
M  V30 END CTAB
M  END
