
     RDKit          3D

  0  0  0  0  0  0  0  0  0  0999 V3000
M  V30 BEGIN CTAB
M  V30 COUNTS 81 81 0 0 0
M  V30 BEGIN ATOM
M  V30 1 C 9.79012 0.181879 0.806503 0
M  V30 2 C 9.41561 -0.183622 -0.622905 0
M  V30 3 C 7.95299 -0.704377 -0.518331 0
M  V30 4 C 7.52275 -1.08447 -1.87944 0
M  V30 5 C 6.16723 -1.57864 -2.13008 0
M  V30 6 C 5.65684 -2.79757 -1.48634 0
M  V30 7 C 5.49513 -2.84637 -0.0199658 0
M  V30 8 C 4.52894 -1.79388 0.523389 0
M  V30 9 C 3.17746 -2.00528 -0.0739593 0
M  V30 10 C 2.20774 -0.980471 0.46599 0
M  V30 11 C 2.66663 0.385809 0.113967 0
M  V30 12 C 1.71173 1.43917 0.59368 0
M  V30 13 C 0.404505 1.2822 -0.0658152 0
M  V30 14 O 0.277796 0.518084 -1.04957 0
M  V30 15 N -0.694888 2.02226 0.446415 0
M  V30 16 C -0.660643 2.92439 1.54836 0
M  V30 17 C -0.993319 4.30984 0.975704 0
M  V30 18 C -2.40165 4.22418 0.467211 0
M  V30 19 C -2.47084 3.17186 -0.626141 0
M  V30 20 C -2.00168 1.83183 -0.233497 0
M  V30 21 C -2.77672 0.945604 0.635781 0
M  V30 22 N -4.06462 0.492911 0.329555 0
M  V30 23 C -5.24455 1.21203 0.204302 0
M  V30 24 O -5.42055 2.43551 0.352143 0
M  V30 25 C -6.50271 0.453798 -0.157765 0 CFG=2
M  V30 26 N -7.59535 1.34185 -0.387151 0
M  V30 27 C -6.74539 -0.486155 0.999763 0
M  V30 28 C -7.95795 -1.3441 0.835104 0
M  V30 29 C -7.79052 -2.19597 -0.40051 0
M  V30 30 C -9.03276 -3.06946 -0.548892 0
M  V30 31 N -10.2245 -2.25843 -0.684602 0
M  V30 32 H 10.7361 0.741762 0.869045 0
M  V30 33 H 8.9271 0.699395 1.24411 0
M  V30 34 H 9.92093 -0.762579 1.36837 0
M  V30 35 H 9.48014 0.659678 -1.31133 0
M  V30 36 H 10.0176 -1.04477 -0.946872 0
M  V30 37 H 8.05744 -1.53524 0.211286 0
M  V30 38 H 7.37687 0.152418 -0.143234 0
M  V30 39 H 8.30567 -1.81325 -2.28935 0
M  V30 40 H 7.73268 -0.168598 -2.53843 0
M  V30 41 H 6.09157 -1.75564 -3.2629 0
M  V30 42 H 5.46156 -0.69923 -2.00868 0
M  V30 43 H 6.28322 -3.71578 -1.76036 0
M  V30 44 H 4.64149 -3.09263 -1.92389 0
M  V30 45 H 6.35724 -2.9052 0.616069 0
M  V30 46 H 4.92258 -3.82745 0.182091 0
M  V30 47 H 4.49677 -1.93014 1.62348 0
M  V30 48 H 4.97575 -0.818963 0.330449 0
M  V30 49 H 2.79596 -3.00152 0.263631 0
M  V30 50 H 3.16219 -1.91743 -1.17476 0
M  V30 51 H 2.33418 -1.05986 1.59962 0
M  V30 52 H 1.18412 -1.25448 0.188093 0
M  V30 53 H 3.62421 0.574304 0.667983 0
M  V30 54 H 2.92798 0.511433 -0.956184 0
M  V30 55 H 1.61933 1.37254 1.71713 0
M  V30 56 H 2.1373 2.47036 0.439999 0
M  V30 57 H 0.319399 2.95498 2.06396 0
M  V30 58 H -1.4172 2.74801 2.33741 0
M  V30 59 H -0.262477 4.54474 0.189861 0
M  V30 60 H -0.901662 5.02774 1.81315 0
M  V30 61 H -3.07615 4.01505 1.31308 0
M  V30 62 H -2.64007 5.19889 -0.00471556 0
M  V30 63 H -1.64933 3.55071 -1.36341 0
M  V30 64 H -3.35622 3.21284 -1.24686 0
M  V30 65 H -1.81807 1.26243 -1.2048 0
M  V30 66 H -2.73142 1.32451 1.73848 0
M  V30 67 H -2.12043 0.00445985 0.767917 0
M  V30 68 H -4.19245 -0.585057 0.153821 0
M  V30 69 H -6.23287 -0.141371 -1.04573 0
M  V30 70 H -7.40742 1.81613 -1.32425 0
M  V30 71 H -7.52627 2.13268 0.314193 0
M  V30 72 H -6.93522 0.150103 1.91385 0
M  V30 73 H -5.8322 -1.05678 1.25492 0
M  V30 74 H -8.83081 -0.656718 0.735747 0
M  V30 75 H -8.12897 -1.98008 1.72438 0
M  V30 76 H -6.90714 -2.83766 -0.222834 0
M  V30 77 H -7.67073 -1.54532 -1.28451 0
M  V30 78 H -8.91392 -3.66934 -1.45099 0
M  V30 79 H -9.09258 -3.72413 0.363311 0
M  V30 80 H -9.92395 -1.29693 -0.963824 0
M  V30 81 H -10.7186 -2.17347 0.228857 0
M  V30 END ATOM
M  V30 BEGIN BOND
M  V30 1 1 1 2
M  V30 2 1 2 3
M  V30 3 1 3 4
M  V30 4 1 4 5
M  V30 5 1 5 6
M  V30 6 1 6 7
M  V30 7 1 7 8
M  V30 8 1 8 9
M  V30 9 1 9 10
M  V30 10 1 10 11
M  V30 11 1 11 12
M  V30 12 1 12 13
M  V30 13 2 13 14
M  V30 14 1 13 15
M  V30 15 1 15 16
M  V30 16 1 16 17
M  V30 17 1 17 18
M  V30 18 1 18 19
M  V30 19 1 19 20
M  V30 20 1 20 21
M  V30 21 1 21 22
M  V30 22 1 22 23
M  V30 23 2 23 24
M  V30 24 1 23 25
M  V30 25 1 25 26
M  V30 26 1 25 27
M  V30 27 1 27 28
M  V30 28 1 28 29
M  V30 29 1 29 30
M  V30 30 1 30 31
M  V30 31 1 20 15
M  V30 32 1 1 32
M  V30 33 1 1 33
M  V30 34 1 1 34
M  V30 35 1 2 35
M  V30 36 1 2 36
M  V30 37 1 3 37
M  V30 38 1 3 38
M  V30 39 1 4 39
M  V30 40 1 4 40
M  V30 41 1 5 41
M  V30 42 1 5 42
M  V30 43 1 6 43
M  V30 44 1 6 44
M  V30 45 1 7 45
M  V30 46 1 7 46
M  V30 47 1 8 47
M  V30 48 1 8 48
M  V30 49 1 9 49
M  V30 50 1 9 50
M  V30 51 1 10 51
M  V30 52 1 10 52
M  V30 53 1 11 53
M  V30 54 1 11 54
M  V30 55 1 12 55
M  V30 56 1 12 56
M  V30 57 1 16 57
M  V30 58 1 16 58
M  V30 59 1 17 59
M  V30 60 1 17 60
M  V30 61 1 18 61
M  V30 62 1 18 62
M  V30 63 1 19 63
M  V30 64 1 19 64
M  V30 65 1 20 65
M  V30 66 1 21 66
M  V30 67 1 21 67
M  V30 68 1 22 68
M  V30 69 1 25 69 CFG=3
M  V30 70 1 26 70
M  V30 71 1 26 71
M  V30 72 1 27 72
M  V30 73 1 27 73
M  V30 74 1 28 74
M  V30 75 1 28 75
M  V30 76 1 29 76
M  V30 77 1 29 77
M  V30 78 1 30 78
M  V30 79 1 30 79
M  V30 80 1 31 80
M  V30 81 1 31 81
M  V30 END BOND
M  V30 END CTAB
M  END
