
     RDKit          3D

  0  0  0  0  0  0  0  0  0  0999 V3000
M  V30 BEGIN CTAB
M  V30 COUNTS 50 53 0 0 0
M  V30 BEGIN ATOM
M  V30 1 N 10.6955 1.99806 0.294367 0
M  V30 2 C 9.33943 1.56134 0.32442 0
M  V30 3 C 8.30732 2.44124 0.594562 0
M  V30 4 C 7.00745 1.99926 0.618384 0
M  V30 5 C 6.66582 0.684708 0.379912 0
M  V30 6 C 7.7059 -0.179359 0.112331 0
M  V30 7 C 9.01564 0.232071 0.081515 0
M  V30 8 N 5.32613 0.283431 0.416984 0
M  V30 9 N 4.33891 0.880901 -0.0948163 0
M  V30 10 C 3.00421 0.39568 -0.00658523 0
M  V30 11 C 2.20368 0.216795 -1.12687 0
M  V30 12 C 0.911405 -0.260028 -0.966968 0
M  V30 13 C 0.376119 -0.569253 0.269488 0
M  V30 14 C 1.17981 -0.387061 1.36747 0
M  V30 15 C 2.4866 0.0925763 1.23285 0
M  V30 16 C -0.983898 -1.0706 0.428519 0
M  V30 17 C -1.57499 -1.85402 -0.540896 0
M  V30 18 C -2.85959 -2.33891 -0.413301 0
M  V30 19 C -3.62172 -2.05367 0.713887 0
M  V30 20 C -3.01747 -1.26404 1.68374 0
M  V30 21 C -1.73496 -0.785081 1.54677 0
M  V30 22 N -4.92517 -2.54817 0.836038 0
M  V30 23 N -6.04312 -2.2771 0.619013 0
M  V30 24 C -6.85751 -1.27576 0.0888086 0
M  V30 25 C -7.46919 -1.49303 -1.14397 0
M  V30 26 C -8.28697 -0.549604 -1.72706 0
M  V30 27 C -8.54066 0.66078 -1.11639 0
M  V30 28 N -9.39327 1.62305 -1.74183 0
M  V30 29 C -7.94524 0.89561 0.103178 0
M  V30 30 C -7.12797 -0.0511212 0.6832 0
M  V30 31 H 11.0745 2.52704 -0.511703 0
M  V30 32 H 11.3248 1.78813 1.08963 0
M  V30 33 H 8.59097 3.46486 0.778315 0
M  V30 34 H 6.22985 2.7498 0.839486 0
M  V30 35 H 7.45853 -1.23154 -0.0812833 0
M  V30 36 H 9.81499 -0.471969 -0.132597 0
M  V30 37 H 2.61074 0.454001 -2.0953 0
M  V30 38 H 0.264177 -0.409251 -1.81969 0
M  V30 39 H 0.828612 -0.605359 2.34386 0
M  V30 40 H 3.12936 0.239352 2.08948 0
M  V30 41 H -0.972958 -2.07057 -1.41528 0
M  V30 42 H -3.31845 -2.95257 -1.17413 0
M  V30 43 H -3.62106 -1.05049 2.55364 0
M  V30 44 H -1.28638 -0.168459 2.32184 0
M  V30 45 H -7.28161 -2.43819 -1.63921 0
M  V30 46 H -8.76758 -0.723369 -2.69915 0
M  V30 47 H -9.27285 2.65307 -1.67325 0
M  V30 48 H -10.1871 1.26596 -2.3027 0
M  V30 49 H -8.14975 1.84678 0.572844 0
M  V30 50 H -6.65092 0.124056 1.65254 0
M  V30 END ATOM
M  V30 BEGIN BOND
M  V30 1 1 1 2
M  V30 2 2 2 3
M  V30 3 1 3 4
M  V30 4 2 4 5
M  V30 5 1 5 6
M  V30 6 2 6 7
M  V30 7 1 5 8
M  V30 8 2 8 9
M  V30 9 1 9 10
M  V30 10 2 10 11
M  V30 11 1 11 12
M  V30 12 2 12 13
M  V30 13 1 13 14
M  V30 14 2 14 15
M  V30 15 1 13 16
M  V30 16 2 16 17
M  V30 17 1 17 18
M  V30 18 2 18 19
M  V30 19 1 19 20
M  V30 20 2 20 21
M  V30 21 1 19 22
M  V30 22 2 22 23
M  V30 23 1 23 24
M  V30 24 2 24 25
M  V30 25 1 25 26
M  V30 26 2 26 27
M  V30 27 1 27 28
M  V30 28 1 27 29
M  V30 29 2 29 30
M  V30 30 1 7 2
M  V30 31 1 15 10
M  V30 32 1 21 16
M  V30 33 1 30 24
M  V30 34 1 1 31
M  V30 35 1 1 32
M  V30 36 1 3 33
M  V30 37 1 4 34
M  V30 38 1 6 35
M  V30 39 1 7 36
M  V30 40 1 11 37
M  V30 41 1 12 38
M  V30 42 1 14 39
M  V30 43 1 15 40
M  V30 44 1 17 41
M  V30 45 1 18 42
M  V30 46 1 20 43
M  V30 47 1 21 44
M  V30 48 1 25 45
M  V30 49 1 26 46
M  V30 50 1 28 47
M  V30 51 1 28 48
M  V30 52 1 29 49
M  V30 53 1 30 50
M  V30 END BOND
M  V30 END CTAB
M  END
