
     RDKit          3D

  0  0  0  0  0  0  0  0  0  0999 V3000
M  V30 BEGIN CTAB
M  V30 COUNTS 31 30 0 0 0
M  V30 BEGIN ATOM
M  V30 1 C 2.95739 1.19255 0.62806 0
M  V30 2 C 1.90588 1.6536 -0.347427 0
M  V30 3 O 1.13731 0.592696 -0.835399 0
M  V30 4 C 0.530471 -0.0117532 0.252949 0
M  V30 5 C -0.341842 -1.15979 -0.0763806 0
M  V30 6 C -1.44173 -0.630378 -0.986889 0
M  V30 7 C -2.19989 0.410152 -0.277566 0
M  V30 8 O -2.74227 0.171054 0.835959 0
M  V30 9 O -2.32779 1.67052 -0.827123 0
M  V30 10 C -3.06996 2.62823 -0.0941682 0
M  V30 11 C 0.33963 -2.28059 -0.805495 0
M  V30 12 N 1.44274 -2.82772 -0.0327497 0
M  V30 13 N -0.900522 -1.6736 1.16414 0
M  V30 14 H 2.61091 1.27523 1.70142 0
M  V30 15 H 3.86818 1.85645 0.597809 0
M  V30 16 H 3.28892 0.180816 0.368091 0
M  V30 17 H 2.43784 2.17237 -1.19769 0
M  V30 18 H 1.23144 2.44063 0.0844837 0
M  V30 19 H 1.36967 -0.286953 0.954713 0
M  V30 20 H -0.0683783 0.758708 0.7787 0
M  V30 21 H -2.16997 -1.43058 -1.2568 0
M  V30 22 H -1.0464 -0.262787 -1.93567 0
M  V30 23 H -2.45477 2.85654 0.82621 0
M  V30 24 H -3.99746 2.08731 0.225433 0
M  V30 25 H -3.25119 3.48951 -0.729898 0
M  V30 26 H -0.382159 -3.11659 -0.97183 0
M  V30 27 H 0.714111 -1.99875 -1.79825 0
M  V30 28 H 2.32485 -2.4033 -0.391316 0
M  V30 29 H 1.44809 -3.87035 -0.111593 0
M  V30 30 H -0.356577 -2.53359 1.43431 0
M  V30 31 H -0.8565 -0.949626 1.92783 0
M  V30 END ATOM
M  V30 BEGIN BOND
M  V30 1 1 1 2
M  V30 2 1 2 3
M  V30 3 1 3 4
M  V30 4 1 4 5
M  V30 5 1 5 6
M  V30 6 1 6 7
M  V30 7 2 7 8
M  V30 8 1 7 9
M  V30 9 1 9 10
M  V30 10 1 5 11
M  V30 11 1 11 12
M  V30 12 1 5 13
M  V30 13 1 1 14
M  V30 14 1 1 15
M  V30 15 1 1 16
M  V30 16 1 2 17
M  V30 17 1 2 18
M  V30 18 1 4 19
M  V30 19 1 4 20
M  V30 20 1 6 21
M  V30 21 1 6 22
M  V30 22 1 10 23
M  V30 23 1 10 24
M  V30 24 1 10 25
M  V30 25 1 11 26
M  V30 26 1 11 27
M  V30 27 1 12 28
M  V30 28 1 12 29
M  V30 29 1 13 30
M  V30 30 1 13 31
M  V30 END BOND
M  V30 END CTAB
M  END
