
     RDKit          3D

  0  0  0  0  0  0  0  0  0  0999 V3000
M  V30 BEGIN CTAB
M  V30 COUNTS 36 37 0 0 0
M  V30 BEGIN ATOM
M  V30 1 C 5.40766 1.69309 1.03252 0
M  V30 2 O 4.2893 1.13346 1.64617 0
M  V30 3 C 3.19247 0.627771 0.980371 0
M  V30 4 C 3.05472 0.607993 -0.388093 0
M  V30 5 C 1.92777 0.0850988 -0.981765 0
M  V30 6 C 0.871836 -0.448901 -0.244416 0
M  V30 7 C 1.00846 -0.429019 1.11866 0
M  V30 8 C 2.1461 0.0991528 1.70213 0
M  V30 9 C -0.316787 -0.982019 -0.950329 0
M  V30 10 C -0.369601 -2.46531 -0.788432 0
M  V30 11 N -0.440322 -2.97354 0.530367 0
M  V30 12 C -1.55901 -0.259651 -0.704413 0
M  V30 13 C -1.58841 1.1187 -0.768133 0
M  V30 14 C -2.77138 1.79204 -0.552191 0
M  V30 15 C -3.9495 1.11903 -0.26897 0
M  V30 16 N -5.16962 1.81243 -0.0459386 0
M  V30 17 C -3.9238 -0.255082 -0.204933 0
M  V30 18 C -2.71956 -0.938514 -0.425097 0
M  V30 19 H 5.82377 2.4669 1.71567 0
M  V30 20 H 6.23711 0.974288 0.852469 0
M  V30 21 H 5.10899 2.22321 0.103429 0
M  V30 22 H 3.87294 1.02281 -0.989689 0
M  V30 23 H 1.85388 0.086883 -2.08233 0
M  V30 24 H 0.205752 -0.826836 1.73789 0
M  V30 25 H 2.23742 0.105792 2.79978 0
M  V30 26 H -0.111345 -0.830844 -2.06997 0
M  V30 27 H 0.523257 -2.9561 -1.28195 0
M  V30 28 H -1.235 -2.91807 -1.36458 0
M  V30 29 H -0.0908289 -3.93052 0.613082 0
M  V30 30 H -1.17488 -2.6656 1.15352 0
M  V30 31 H -0.69942 1.71559 -0.986366 0
M  V30 32 H -2.78994 2.87439 -0.603179 0
M  V30 33 H -5.81279 1.47656 0.712559 0
M  V30 34 H -5.3753 2.63486 -0.653066 0
M  V30 35 H -4.84441 -0.778017 0.0162306 0
M  V30 36 H -2.81955 -2.01203 -0.361019 0
M  V30 END ATOM
M  V30 BEGIN BOND
M  V30 1 1 1 2
M  V30 2 1 2 3
M  V30 3 2 3 4
M  V30 4 1 4 5
M  V30 5 2 5 6
M  V30 6 1 6 7
M  V30 7 2 7 8
M  V30 8 1 6 9
M  V30 9 1 9 10
M  V30 10 1 10 11
M  V30 11 1 9 12
M  V30 12 2 12 13
M  V30 13 1 13 14
M  V30 14 2 14 15
M  V30 15 1 15 16
M  V30 16 1 15 17
M  V30 17 2 17 18
M  V30 18 1 8 3
M  V30 19 1 18 12
M  V30 20 1 1 19
M  V30 21 1 1 20
M  V30 22 1 1 21
M  V30 23 1 4 22
M  V30 24 1 5 23
M  V30 25 1 7 24
M  V30 26 1 8 25
M  V30 27 1 9 26
M  V30 28 1 10 27
M  V30 29 1 10 28
M  V30 30 1 11 29
M  V30 31 1 11 30
M  V30 32 1 13 31
M  V30 33 1 14 32
M  V30 34 1 16 33
M  V30 35 1 16 34
M  V30 36 1 17 35
M  V30 37 1 18 36
M  V30 END BOND
M  V30 END CTAB
M  END
