
     RDKit          3D

  0  0  0  0  0  0  0  0  0  0999 V3000
M  V30 BEGIN CTAB
M  V30 COUNTS 47 50 0 0 0
M  V30 BEGIN ATOM
M  V30 1 N -6.37328 -1.68713 -1.46146 0
M  V30 2 C -6.4065 -0.315991 -0.984233 0 CFG=2
M  V30 3 C -5.2187 0.435099 -1.59618 0
M  V30 4 C -4.40119 -0.152437 -0.448091 0 CFG=2
M  V30 5 C -5.71044 -0.147668 0.35275 0
M  V30 6 C -3.35646 0.720081 0.0889018 0
M  V30 7 N -3.50409 2.01547 0.389337 0
M  V30 8 C -2.4988 2.77591 0.885095 0
M  V30 9 N -1.30452 2.20766 1.08356 0
M  V30 10 C -1.0532 0.90537 0.811505 0
M  V30 11 C -2.08973 0.165721 0.312349 0
M  V30 12 N 0.250178 0.423076 1.0722 0
M  V30 13 C 1.2124 1.25018 1.76879 0
M  V30 14 C 2.60908 1.16913 1.20878 0
M  V30 15 C 2.92545 -0.297069 1.02872 0
M  V30 16 C 1.98004 -0.783172 -0.0596837 0
M  V30 17 C 0.613718 -0.906517 0.632997 0
M  V30 18 C 4.31908 -0.54917 0.67126 0
M  V30 19 C 5.08012 -1.34859 1.495 0
M  V30 20 C 6.40513 -1.64327 1.23983 0
M  V30 21 N 6.9551 -1.12055 0.140724 0
M  V30 22 C 6.21143 -0.328432 -0.681067 0
M  V30 23 N 4.92534 -0.0526139 -0.41767 0
M  V30 24 N 6.88413 0.180107 -1.82379 0
M  V30 25 H -5.75749 -1.82324 -2.28088 0
M  V30 26 H -6.07905 -2.36499 -0.73145 0
M  V30 27 H -7.37344 0.202436 -1.0849 0
M  V30 28 H -4.93538 0.0580701 -2.59647 0
M  V30 29 H -5.36965 1.50842 -1.49878 0
M  V30 30 H -4.10795 -1.1999 -0.640262 0
M  V30 31 H -5.80587 -0.997293 1.04359 0
M  V30 32 H -5.95151 0.843897 0.783379 0
M  V30 33 H -2.65027 3.83181 1.12096 0
M  V30 34 H -1.93257 -0.876242 0.0867933 0
M  V30 35 H 0.878 2.32011 1.66676 0
M  V30 36 H 1.18987 1.01657 2.85563 0
M  V30 37 H 3.28207 1.64015 1.94944 0
M  V30 38 H 2.62286 1.68316 0.22029 0
M  V30 39 H 2.66551 -0.816569 1.96802 0
M  V30 40 H 2.29098 -1.74085 -0.491833 0
M  V30 41 H 1.8721 0.0325211 -0.796838 0
M  V30 42 H 0.793496 -1.57194 1.50148 0
M  V30 43 H -0.0336878 -1.35207 -0.116322 0
M  V30 44 H 4.65948 -1.79133 2.40178 0
M  V30 45 H 7.01262 -2.26475 1.87174 0
M  V30 46 H 7.90995 0.358978 -1.81911 0
M  V30 47 H 6.36564 0.387853 -2.69932 0
M  V30 END ATOM
M  V30 BEGIN BOND
M  V30 1 1 1 2
M  V30 2 1 2 3
M  V30 3 1 3 4
M  V30 4 1 4 5
M  V30 5 1 4 6
M  V30 6 2 6 7
M  V30 7 1 7 8
M  V30 8 2 8 9
M  V30 9 1 9 10
M  V30 10 2 10 11
M  V30 11 1 10 12
M  V30 12 1 12 13
M  V30 13 1 13 14
M  V30 14 1 14 15
M  V30 15 1 15 16
M  V30 16 1 16 17
M  V30 17 1 15 18
M  V30 18 2 18 19
M  V30 19 1 19 20
M  V30 20 2 20 21
M  V30 21 1 21 22
M  V30 22 2 22 23
M  V30 23 1 22 24
M  V30 24 1 5 2
M  V30 25 1 11 6
M  V30 26 1 17 12
M  V30 27 1 23 18
M  V30 28 1 1 25
M  V30 29 1 1 26
M  V30 30 1 2 27 CFG=1
M  V30 31 1 3 28
M  V30 32 1 3 29
M  V30 33 1 4 30 CFG=3
M  V30 34 1 5 31
M  V30 35 1 5 32
M  V30 36 1 8 33
M  V30 37 1 11 34
M  V30 38 1 13 35
M  V30 39 1 13 36
M  V30 40 1 14 37
M  V30 41 1 14 38
M  V30 42 1 15 39
M  V30 43 1 16 40
M  V30 44 1 16 41
M  V30 45 1 17 42
M  V30 46 1 17 43
M  V30 47 1 19 44
M  V30 48 1 20 45
M  V30 49 1 24 46
M  V30 50 1 24 47
M  V30 END BOND
M  V30 END CTAB
M  END
