
     RDKit          3D

  0  0  0  0  0  0  0  0  0  0999 V3000
M  V30 BEGIN CTAB
M  V30 COUNTS 55 57 0 0 0
M  V30 BEGIN ATOM
M  V30 1 C -2.74994 2.64236 0.0365908 0
M  V30 2 N -2.02906 1.626 0.810949 0
M  V30 3 C -2.77551 0.963317 1.84069 0
M  V30 4 C -3.85589 0.157655 1.2106 0
M  V30 5 N -5.10966 0.592048 1.01864 0
M  V30 6 C -6.03506 -0.214045 0.440297 0
M  V30 7 C -5.70431 -1.4984 0.0374322 0
M  V30 8 N -4.4456 -1.94064 0.228072 0
M  V30 9 C -3.54058 -1.1303 0.802772 0
M  V30 10 N -6.64755 -2.2594 -0.530114 0
M  V30 11 C -7.91501 -1.78064 -0.711523 0
M  V30 12 N -8.93476 -2.57204 -1.31403 0
M  V30 13 N -8.22662 -0.535566 -0.317907 0
M  V30 14 C -7.29952 0.276315 0.265933 0
M  V30 15 N -7.65731 1.58684 0.676296 0
M  V30 16 C -0.657188 1.37175 0.498412 0
M  V30 17 C -0.0368572 2.13817 -0.464946 0
M  V30 18 C 1.28562 1.95006 -0.824049 0
M  V30 19 C 2.01993 0.964269 -0.205463 0
M  V30 20 C 1.39519 0.20589 0.75175 0
M  V30 21 C 0.0679435 0.399581 1.10791 0
M  V30 22 C 3.41183 0.709303 -0.511017 0
M  V30 23 O 4.02291 1.63541 -1.15138 0
M  V30 24 N 4.09683 -0.467757 -0.146698 0
M  V30 25 C 5.51859 -0.638539 -0.49687 0
M  V30 26 C 6.27051 -1.19932 0.662338 0
M  V30 27 C 7.72913 -1.3591 0.388572 0
M  V30 28 C 8.37001 -0.036437 0.040474 0
M  V30 29 O 9.15537 0.161552 -1.05036 0
M  V30 30 O 8.11257 0.913805 0.866966 0
M  V30 31 C 5.52135 -1.62788 -1.62196 0
M  V30 32 O 6.705 -1.90682 -2.27161 0
M  V30 33 O 4.48581 -2.21722 -2.00771 0
M  V30 34 H -2.58499 2.41075 -1.02247 0
M  V30 35 H -2.2652 3.62228 0.293746 0
M  V30 36 H -3.80865 2.66177 0.269212 0
M  V30 37 H -3.30693 1.71038 2.49424 0
M  V30 38 H -2.15365 0.365547 2.51497 0
M  V30 39 H -2.51121 -1.4805 0.963963 0
M  V30 40 H -9.19034 -2.43691 -2.31198 0
M  V30 41 H -9.47594 -3.31811 -0.798015 0
M  V30 42 H -7.30613 2.03384 1.54192 0
M  V30 43 H -8.30882 2.12671 0.0706608 0
M  V30 44 H -0.619966 2.90599 -0.94597 0
M  V30 45 H 1.73056 2.57802 -1.58555 0
M  V30 46 H 1.90989 -0.602581 1.28656 0
M  V30 47 H -0.382982 -0.219618 1.87285 0
M  V30 48 H 3.60112 -1.21391 0.37027 0
M  V30 49 H 5.88485 0.319091 -0.891385 0
M  V30 50 H 6.13566 -0.597257 1.59537 0
M  V30 51 H 5.89707 -2.22948 0.941434 0
M  V30 52 H 8.25434 -1.71009 1.36005 0
M  V30 53 H 7.93209 -2.07439 -0.393476 0
M  V30 54 H 9.10804 1.05797 -1.53101 0
M  V30 55 H 6.913 -2.81971 -2.69545 0
M  V30 END ATOM
M  V30 BEGIN BOND
M  V30 1 1 1 2
M  V30 2 1 2 3
M  V30 3 1 3 4
M  V30 4 2 4 5
M  V30 5 1 5 6
M  V30 6 2 6 7
M  V30 7 1 7 8
M  V30 8 2 8 9
M  V30 9 1 7 10
M  V30 10 2 10 11
M  V30 11 1 11 12
M  V30 12 1 11 13
M  V30 13 2 13 14
M  V30 14 1 14 15
M  V30 15 1 2 16
M  V30 16 2 16 17
M  V30 17 1 17 18
M  V30 18 2 18 19
M  V30 19 1 19 20
M  V30 20 2 20 21
M  V30 21 1 19 22
M  V30 22 2 22 23
M  V30 23 1 22 24
M  V30 24 1 24 25
M  V30 25 1 25 26
M  V30 26 1 26 27
M  V30 27 1 27 28
M  V30 28 1 28 29
M  V30 29 2 28 30
M  V30 30 1 25 31
M  V30 31 1 31 32
M  V30 32 2 31 33
M  V30 33 1 9 4
M  V30 34 1 21 16
M  V30 35 1 14 6
M  V30 36 1 1 34
M  V30 37 1 1 35
M  V30 38 1 1 36
M  V30 39 1 3 37
M  V30 40 1 3 38
M  V30 41 1 9 39
M  V30 42 1 12 40
M  V30 43 1 12 41
M  V30 44 1 15 42
M  V30 45 1 15 43
M  V30 46 1 17 44
M  V30 47 1 18 45
M  V30 48 1 20 46
M  V30 49 1 21 47
M  V30 50 1 24 48
M  V30 51 1 25 49
M  V30 52 1 26 50
M  V30 53 1 26 51
M  V30 54 1 27 52
M  V30 55 1 27 53
M  V30 56 1 29 54
M  V30 57 1 32 55
M  V30 END BOND
M  V30 END CTAB
M  END
