
     RDKit          3D

  0  0  0  0  0  0  0  0  0  0999 V3000
M  V30 BEGIN CTAB
M  V30 COUNTS 25 24 0 0 0
M  V30 BEGIN ATOM
M  V30 1 C -0.50884 -1.70376 0.884268 0
M  V30 2 C -0.854189 -0.766931 -0.250055 0 CFG=2
M  V30 3 C 0.315653 -0.0136358 -0.73903 0 CFG=1
M  V30 4 C 1.02443 0.848767 0.176266 0
M  V30 5 O 0.531441 1.78666 0.854708 0
M  V30 6 N 2.42105 0.648446 0.35524 0
M  V30 7 N 3.17916 1.4561 1.23609 0
M  V30 8 N 1.26102 -0.953891 -1.30552 0
M  V30 9 C -2.04661 0.0350828 0.175297 0
M  V30 10 C -2.50042 1.019 -0.874172 0
M  V30 11 H -0.457187 -2.76672 0.565591 0
M  V30 12 H -1.26837 -1.67322 1.70207 0
M  V30 13 H 0.460473 -1.47224 1.35392 0
M  V30 14 H -1.21264 -1.42125 -1.07713 0
M  V30 15 H -0.0118251 0.626205 -1.61504 0
M  V30 16 H 2.91592 -0.11047 -0.169696 0
M  V30 17 H 4.14747 1.48262 0.880873 0
M  V30 18 H 2.79236 2.4272 1.16862 0
M  V30 19 H 1.61019 -1.65006 -0.626812 0
M  V30 20 H 0.987634 -1.31911 -2.22268 0
M  V30 21 H -1.9545 0.473751 1.17836 0
M  V30 22 H -2.88049 -0.700474 0.258075 0
M  V30 23 H -1.78371 1.8431 -1.03339 0
M  V30 24 H -2.69519 0.474739 -1.80582 0
M  V30 25 H -3.47284 1.4301 -0.531456 0
M  V30 END ATOM
M  V30 BEGIN BOND
M  V30 1 1 1 2
M  V30 2 1 2 3
M  V30 3 1 3 4
M  V30 4 2 4 5
M  V30 5 1 4 6
M  V30 6 1 6 7
M  V30 7 1 3 8
M  V30 8 1 2 9
M  V30 9 1 9 10
M  V30 10 1 1 11
M  V30 11 1 1 12
M  V30 12 1 1 13
M  V30 13 1 2 14 CFG=3
M  V30 14 1 3 15 CFG=3
M  V30 15 1 6 16
M  V30 16 1 7 17
M  V30 17 1 7 18
M  V30 18 1 8 19
M  V30 19 1 8 20
M  V30 20 1 9 21
M  V30 21 1 9 22
M  V30 22 1 10 23
M  V30 23 1 10 24
M  V30 24 1 10 25
M  V30 END BOND
M  V30 END CTAB
M  END
