
     RDKit          3D

  0  0  0  0  0  0  0  0  0  0999 V3000
M  V30 BEGIN CTAB
M  V30 COUNTS 84 85 0 0 0
M  V30 BEGIN ATOM
M  V30 1 C 1.68636 -0.840063 -0.426922 0 CFG=2
M  V30 2 C 2.23417 0.0939687 -1.42618 0
M  V30 3 C 3.68694 0.309611 -1.51948 0
M  V30 4 C 4.39717 0.858532 -0.337331 0
M  V30 5 N 5.8183 1.04313 -0.581582 0
M  V30 6 C 6.71697 -0.0333798 -0.76594 0
M  V30 7 N 6.45078 -1.30758 -0.227387 0
M  V30 8 N 7.79176 0.173442 -1.44183 0
M  V30 9 N 1.97032 -0.513414 0.942339 0
M  V30 10 C 1.41094 0.55645 1.68054 0
M  V30 11 O 2.14073 1.15086 2.50684 0
M  V30 12 C 0.00509104 1.03194 1.54796 0 CFG=2
M  V30 13 C -0.0136689 2.50105 1.82864 0
M  V30 14 C 0.838652 3.243 0.863871 0
M  V30 15 C 0.846057 4.74233 1.12248 0
M  V30 16 C 1.72783 5.4568 0.115141 0
M  V30 17 N 1.75985 6.87406 0.32839 0
M  V30 18 N -0.884127 0.277515 2.40336 0
M  V30 19 C -2.06635 -0.374932 2.15052 0
M  V30 20 O -2.29945 -1.41112 2.89048 0
M  V30 21 C -3.1543 -0.136751 1.18977 0 CFG=1
M  V30 22 C -2.84619 0.616326 -0.0403182 0
M  V30 23 C -4.10411 0.73355 -0.835787 0
M  V30 24 C -4.49776 -0.15357 -1.80471 0
M  V30 25 C -5.6851 0.0565319 -2.47457 0
M  V30 26 C -6.49979 1.1383 -2.20242 0
M  V30 27 C -6.10923 2.02813 -1.23331 0
M  V30 28 C -4.92311 1.82649 -0.557647 0
M  V30 29 N -3.82494 -1.37983 0.798572 0
M  V30 30 C -3.24527 -2.64659 0.701051 0
M  V30 31 O -3.96446 -3.64097 1.04682 0
M  V30 32 C -1.88436 -2.9941 0.241453 0 CFG=2
M  V30 33 C -1.85426 -3.36753 -1.24823 0
M  V30 34 C -2.71231 -4.52198 -1.5441 0
M  V30 35 O -3.9597 -4.33186 -2.10963 0
M  V30 36 O -2.34556 -5.6937 -1.29709 0
M  V30 37 N -1.43028 -4.20008 0.929216 0
M  V30 38 C -0.0633933 -4.48201 1.19994 0
M  V30 39 O 0.337504 -5.66266 1.36434 0
M  V30 40 C 0.977264 -3.41435 1.30705 0
M  V30 41 N 1.82793 -3.34476 0.149233 0
M  V30 42 C 1.98487 -2.27185 -0.732256 0
M  V30 43 O 2.41466 -2.4955 -1.89786 0
M  V30 44 H 0.552051 -0.784017 -0.537548 0
M  V30 45 H 1.75038 1.10328 -1.21519 0
M  V30 46 H 1.82031 -0.193513 -2.4514 0
M  V30 47 H 4.2388 -0.588595 -1.92635 0
M  V30 48 H 3.84439 1.06889 -2.35006 0
M  V30 49 H 3.96837 1.84478 -0.084688 0
M  V30 50 H 4.3711 0.200136 0.576102 0
M  V30 51 H 6.186 2.00899 -0.621003 0
M  V30 52 H 6.39806 -2.12576 -0.854429 0
M  V30 53 H 6.30998 -1.41993 0.785935 0
M  V30 54 H 8.4957 -0.576078 -1.61497 0
M  V30 55 H 2.66685 -1.16946 1.41842 0
M  V30 56 H -0.244978 0.915662 0.460552 0
M  V30 57 H 0.358474 2.6605 2.85726 0
M  V30 58 H -1.0396 2.93503 1.78946 0
M  V30 59 H 1.8761 2.86723 0.818819 0
M  V30 60 H 0.46468 3.14809 -0.198046 0
M  V30 61 H -0.16667 5.16142 1.06677 0
M  V30 62 H 1.30809 4.92525 2.12922 0
M  V30 63 H 1.47501 5.18326 -0.918866 0
M  V30 64 H 2.77901 5.08434 0.289555 0
M  V30 65 H 2.17144 7.05611 1.26813 0
M  V30 66 H 0.780479 7.23097 0.338339 0
M  V30 67 H -0.515576 0.245552 3.41613 0
M  V30 68 H -3.89255 0.510497 1.7705 0
M  V30 69 H -2.48434 1.64638 0.0959831 0
M  V30 70 H -2.13049 0.108487 -0.724491 0
M  V30 71 H -3.86369 -0.994569 -2.01559 0
M  V30 72 H -6.02831 -0.634811 -3.25598 0
M  V30 73 H -7.4434 1.31499 -2.7271 0
M  V30 74 H -6.74119 2.86775 -1.02153 0
M  V30 75 H -4.65985 2.56076 0.199791 0
M  V30 76 H -4.86034 -1.26412 0.577634 0
M  V30 77 H -1.16078 -2.1801 0.349221 0
M  V30 78 H -0.774705 -3.64736 -1.44689 0
M  V30 79 H -2.01971 -2.48424 -1.88956 0
M  V30 80 H -4.7419 -4.80896 -1.67595 0
M  V30 81 H -2.17473 -4.86858 1.22345 0
M  V30 82 H 1.63391 -3.68117 2.18539 0
M  V30 83 H 0.440455 -2.49665 1.55009 0
M  V30 84 H 2.39676 -4.22387 -0.0422263 0
M  V30 END ATOM
M  V30 BEGIN BOND
M  V30 1 1 1 2
M  V30 2 1 2 3
M  V30 3 1 3 4
M  V30 4 1 4 5
M  V30 5 1 5 6
M  V30 6 1 6 7
M  V30 7 2 6 8 CFG=2
M  V30 8 1 1 9
M  V30 9 1 9 10
M  V30 10 2 10 11
M  V30 11 1 10 12
M  V30 12 1 12 13
M  V30 13 1 13 14
M  V30 14 1 14 15
M  V30 15 1 15 16
M  V30 16 1 16 17
M  V30 17 1 12 18
M  V30 18 1 18 19
M  V30 19 2 19 20
M  V30 20 1 19 21
M  V30 21 1 21 22
M  V30 22 1 22 23
M  V30 23 2 23 24
M  V30 24 1 24 25
M  V30 25 2 25 26
M  V30 26 1 26 27
M  V30 27 2 27 28
M  V30 28 1 21 29
M  V30 29 1 29 30
M  V30 30 2 30 31
M  V30 31 1 30 32
M  V30 32 1 32 33
M  V30 33 1 33 34
M  V30 34 1 34 35
M  V30 35 2 34 36
M  V30 36 1 32 37
M  V30 37 1 37 38
M  V30 38 2 38 39
M  V30 39 1 38 40
M  V30 40 1 40 41
M  V30 41 1 41 42
M  V30 42 2 42 43
M  V30 43 1 42 1
M  V30 44 1 28 23
M  V30 45 1 1 44 CFG=1
M  V30 46 1 2 45
M  V30 47 1 2 46
M  V30 48 1 3 47
M  V30 49 1 3 48
M  V30 50 1 4 49
M  V30 51 1 4 50
M  V30 52 1 5 51
M  V30 53 1 7 52
M  V30 54 1 7 53
M  V30 55 1 8 54
M  V30 56 1 9 55
M  V30 57 1 12 56 CFG=3
M  V30 58 1 13 57
M  V30 59 1 13 58
M  V30 60 1 14 59
M  V30 61 1 14 60
M  V30 62 1 15 61
M  V30 63 1 15 62
M  V30 64 1 16 63
M  V30 65 1 16 64
M  V30 66 1 17 65
M  V30 67 1 17 66
M  V30 68 1 18 67
M  V30 69 1 21 68 CFG=1
M  V30 70 1 22 69
M  V30 71 1 22 70
M  V30 72 1 24 71
M  V30 73 1 25 72
M  V30 74 1 26 73
M  V30 75 1 27 74
M  V30 76 1 28 75
M  V30 77 1 29 76
M  V30 78 1 32 77 CFG=3
M  V30 79 1 33 78
M  V30 80 1 33 79
M  V30 81 1 35 80
M  V30 82 1 37 81
M  V30 83 1 40 82
M  V30 84 1 40 83
M  V30 85 1 41 84
M  V30 END BOND
M  V30 END CTAB
M  END
