
     RDKit          3D

  0  0  0  0  0  0  0  0  0  0999 V3000
M  V30 BEGIN CTAB
M  V30 COUNTS 20 19 0 0 0
M  V30 BEGIN ATOM
M  V30 1 N 2.66142 -0.840763 1.17094 0
M  V30 2 C 2.84656 -0.311124 -0.164896 0
M  V30 3 C 2.13428 1.01144 -0.325968 0
M  V30 4 C 0.699793 0.836521 -0.0908506 0
M  V30 5 C -0.483577 0.712499 0.0970573 0
M  V30 6 C -1.92644 0.570944 0.302352 0
M  V30 7 C -2.46305 -0.355392 -0.753481 0
M  V30 8 N -3.90561 -0.484742 -0.532453 0
M  V30 9 H 3.47991 -1.48316 1.38978 0
M  V30 10 H 2.74956 -0.0529591 1.86359 0
M  V30 11 H 3.9485 -0.0848245 -0.257189 0
M  V30 12 H 2.61532 -1.04197 -0.935477 0
M  V30 13 H 2.35703 1.48545 -1.30161 0
M  V30 14 H 2.59124 1.70455 0.440307 0
M  V30 15 H -2.14502 0.122482 1.29468 0
M  V30 16 H -2.45901 1.53217 0.207727 0
M  V30 17 H -2.03172 -1.37331 -0.548397 0
M  V30 18 H -2.22057 -0.0422927 -1.77482 0
M  V30 19 H -4.27423 0.220264 0.117785 0
M  V30 20 H -4.17439 -1.41705 -0.199081 0
M  V30 END ATOM
M  V30 BEGIN BOND
M  V30 1 1 1 2
M  V30 2 1 2 3
M  V30 3 1 3 4
M  V30 4 3 4 5
M  V30 5 1 5 6
M  V30 6 1 6 7
M  V30 7 1 7 8
M  V30 8 1 1 9
M  V30 9 1 1 10
M  V30 10 1 2 11
M  V30 11 1 2 12
M  V30 12 1 3 13
M  V30 13 1 3 14
M  V30 14 1 6 15
M  V30 15 1 6 16
M  V30 16 1 7 17
M  V30 17 1 7 18
M  V30 18 1 8 19
M  V30 19 1 8 20
M  V30 END BOND
M  V30 END CTAB
M  END
