
     RDKit          3D

  0  0  0  0  0  0  0  0  0  0999 V3000
M  V30 BEGIN CTAB
M  V30 COUNTS 37 39 0 0 0
M  V30 BEGIN ATOM
M  V30 1 N 4.733 0.453102 2.43131 0
M  V30 2 C 3.60917 0.147841 1.62019 0
M  V30 3 C 3.62746 -0.982455 0.805965 0
M  V30 4 C 2.53623 -1.28214 0.0159812 0
M  V30 5 C 1.42637 -0.496813 0.00703262 0
M  V30 6 C 1.4372 0.617371 0.824753 0
M  V30 7 N 2.49661 0.915646 1.59704 0
M  V30 8 C 0.272135 -0.846081 -0.851965 0 CFG=2
M  V30 9 C 0.389823 -0.0331726 -2.11047 0
M  V30 10 C -0.941409 0.330298 -2.73435 0
M  V30 11 C -1.85984 0.92557 -1.72265 0
M  V30 12 C -1.8477 0.371386 -0.446713 0
M  V30 13 N -0.98366 -0.721729 -0.17721 0
M  V30 14 S -1.45355 -1.89275 0.983786 0
M  V30 15 O -1.32527 -3.27945 0.323543 0
M  V30 16 O -2.89257 -1.81903 1.37869 0
M  V30 17 N -0.371668 -1.95145 2.32538 0
M  V30 18 C -2.6794 0.909935 0.502029 0
M  V30 19 C -3.52125 1.9694 0.245204 0
M  V30 20 C -3.53377 2.5163 -1.01427 0
M  V30 21 C -2.6932 1.98211 -1.99522 0
M  V30 22 H 5.35903 -0.324809 2.71483 0
M  V30 23 H 4.92937 1.42089 2.7354 0
M  V30 24 H 4.51603 -1.60394 0.818407 0
M  V30 25 H 2.63186 -2.19239 -0.597328 0
M  V30 26 H 0.557781 1.25938 0.831997 0
M  V30 27 H 0.433151 -1.91625 -1.18156 0
M  V30 28 H 0.873035 0.937025 -1.83916 0
M  V30 29 H 1.03824 -0.51561 -2.84027 0
M  V30 30 H -1.38687 -0.617039 -3.10408 0
M  V30 31 H -0.845666 1.00884 -3.57833 0
M  V30 32 H -0.467321 -2.82537 2.85226 0
M  V30 33 H -0.330845 -1.08409 2.86764 0
M  V30 34 H -2.6692 0.493129 1.48602 0
M  V30 35 H -4.16486 2.36536 1.02765 0
M  V30 36 H -4.19021 3.34499 -1.22107 0
M  V30 37 H -2.70823 2.416 -2.98046 0
M  V30 END ATOM
M  V30 BEGIN BOND
M  V30 1 1 1 2
M  V30 2 2 2 3
M  V30 3 1 3 4
M  V30 4 2 4 5
M  V30 5 1 5 6
M  V30 6 2 6 7
M  V30 7 1 5 8
M  V30 8 1 8 9
M  V30 9 1 9 10
M  V30 10 1 10 11
M  V30 11 2 11 12
M  V30 12 1 12 13
M  V30 13 1 13 14
M  V30 14 2 14 15
M  V30 15 2 14 16
M  V30 16 1 14 17
M  V30 17 1 12 18
M  V30 18 2 18 19
M  V30 19 1 19 20
M  V30 20 2 20 21
M  V30 21 1 7 2
M  V30 22 1 13 8
M  V30 23 1 21 11
M  V30 24 1 1 22
M  V30 25 1 1 23
M  V30 26 1 3 24
M  V30 27 1 4 25
M  V30 28 1 6 26
M  V30 29 1 8 27 CFG=3
M  V30 30 1 9 28
M  V30 31 1 9 29
M  V30 32 1 10 30
M  V30 33 1 10 31
M  V30 34 1 17 32
M  V30 35 1 17 33
M  V30 36 1 18 34
M  V30 37 1 19 35
M  V30 38 1 20 36
M  V30 39 1 21 37
M  V30 END BOND
M  V30 END CTAB
M  END
