
     RDKit          3D

  0  0  0  0  0  0  0  0  0  0999 V3000
M  V30 BEGIN CTAB
M  V30 COUNTS 28 29 0 0 0
M  V30 BEGIN ATOM
M  V30 1 N 4.28389 1.64708 -0.637853 0
M  V30 2 C 3.36686 0.577241 -0.77002 0
M  V30 3 N 3.55062 -0.604621 -1.40425 0
M  V30 4 N 2.4482 -1.34021 -1.30262 0
M  V30 5 C 1.51693 -0.671405 -0.606238 0
M  V30 6 C 2.07006 0.53267 -0.262094 0
M  V30 7 C 0.174545 -1.14206 -0.281337 0 CFG=1
M  V30 8 C -0.10865 -1.18254 1.19582 0
M  V30 9 C -1.60116 -1.05886 1.26215 0
M  V30 10 N -2.06801 -0.656461 -0.0256018 0
M  V30 11 C -0.926943 -0.243252 -0.802117 0
M  V30 12 S -3.30532 0.526459 0.0306162 0
M  V30 13 O -3.73452 0.84094 -1.37412 0
M  V30 14 O -4.47148 -0.0611032 0.772866 0
M  V30 15 N -2.80264 1.99127 0.770998 0
M  V30 16 H 5.25054 1.44553 -0.322224 0
M  V30 17 H 3.99128 2.60995 -0.853023 0
M  V30 18 H 2.36371 -2.28894 -1.71709 0
M  V30 19 H 1.62893 1.34432 0.301949 0
M  V30 20 H -0.0158749 -2.15863 -0.68465 0
M  V30 21 H 0.399198 -0.383232 1.75761 0
M  V30 22 H 0.206829 -2.16868 1.63056 0
M  V30 23 H -1.95281 -0.405234 2.08394 0
M  V30 24 H -2.04232 -2.06995 1.48238 0
M  V30 25 H -1.13067 -0.549165 -1.85725 0
M  V30 26 H -0.675905 0.816289 -0.712554 0
M  V30 27 H -2.89648 1.92168 1.82097 0
M  V30 28 H -3.51882 2.7309 0.503172 0
M  V30 END ATOM
M  V30 BEGIN BOND
M  V30 1 1 1 2
M  V30 2 2 2 3
M  V30 3 1 3 4
M  V30 4 1 4 5
M  V30 5 2 5 6
M  V30 6 1 5 7
M  V30 7 1 7 8
M  V30 8 1 8 9
M  V30 9 1 9 10
M  V30 10 1 10 11
M  V30 11 1 10 12
M  V30 12 2 12 13
M  V30 13 2 12 14
M  V30 14 1 12 15
M  V30 15 1 6 2
M  V30 16 1 11 7
M  V30 17 1 1 16
M  V30 18 1 1 17
M  V30 19 1 4 18
M  V30 20 1 6 19
M  V30 21 1 7 20 CFG=3
M  V30 22 1 8 21
M  V30 23 1 8 22
M  V30 24 1 9 23
M  V30 25 1 9 24
M  V30 26 1 11 25
M  V30 27 1 11 26
M  V30 28 1 15 27
M  V30 29 1 15 28
M  V30 END BOND
M  V30 END CTAB
M  END
