
     RDKit          3D

  0  0  0  0  0  0  0  0  0  0999 V3000
M  V30 BEGIN CTAB
M  V30 COUNTS 52 53 0 0 0
M  V30 BEGIN ATOM
M  V30 1 N -5.2685 2.41723 -0.0275689 0
M  V30 2 C -3.90542 1.96766 0.105097 0
M  V30 3 C -3.89794 0.448018 0.165118 0
M  V30 4 C -4.705 0.025292 1.34627 0
M  V30 5 C -5.23971 -1.37968 1.27715 0
M  V30 6 O -5.90962 -1.55381 0.0605826 0
M  V30 7 C -4.93155 -1.47883 -0.943638 0
M  V30 8 C -4.54402 -0.0419177 -1.0993 0
M  V30 9 C -2.484 -0.0338256 0.208344 0
M  V30 10 O -2.09187 -0.75854 -0.737022 0
M  V30 11 N -1.61146 0.298846 1.25445 0
M  V30 12 C -0.257986 -0.140777 1.31217 0
M  V30 13 C 0.534739 0.380767 0.173278 0
M  V30 14 C 1.95883 -0.055736 0.206451 0
M  V30 15 C 2.44118 -1.07934 0.978963 0
M  V30 16 C 3.80034 -1.40998 0.935865 0
M  V30 17 C 4.66892 -0.724376 0.128645 0
M  V30 18 C 4.19168 0.298816 -0.644753 0
M  V30 19 C 2.83743 0.628921 -0.602376 0
M  V30 20 C 6.13117 -1.06083 0.0654556 0
M  V30 21 C 6.93663 0.140501 0.568789 0
M  V30 22 C 6.55957 -1.29033 -1.3684 0
M  V30 23 N 0.498957 1.83947 0.234055 0
M  V30 24 H -5.44013 3.32126 0.476984 0
M  V30 25 H -5.54268 2.59379 -1.01869 0
M  V30 26 H -3.3512 2.23857 -0.822694 0
M  V30 27 H -3.45082 2.41911 1.0019 0
M  V30 28 H -5.61014 0.700144 1.37592 0
M  V30 29 H -4.19114 0.195183 2.3135 0
M  V30 30 H -4.43306 -2.1335 1.38885 0
M  V30 31 H -5.98773 -1.48355 2.09366 0
M  V30 32 H -4.11056 -2.13158 -0.61486 0
M  V30 33 H -5.3412 -1.85802 -1.90859 0
M  V30 34 H -3.80495 0.116468 -1.92633 0
M  V30 35 H -5.4608 0.567835 -1.27733 0
M  V30 36 H -1.97675 0.902687 2.03342 0
M  V30 37 H -0.250929 -1.27804 1.28325 0
M  V30 38 H 0.209658 0.0938572 2.30112 0
M  V30 39 H 0.100809 0.0716531 -0.787841 0
M  V30 40 H 1.75712 -1.61401 1.6101 0
M  V30 41 H 4.1891 -2.21581 1.54183 0
M  V30 42 H 4.86656 0.856735 -1.29387 0
M  V30 43 H 2.48339 1.44682 -1.22726 0
M  V30 44 H 6.3818 -1.89418 0.727964 0
M  V30 45 H 7.97208 0.0242286 0.238689 0
M  V30 46 H 6.94101 0.183687 1.6762 0
M  V30 47 H 6.50337 1.09533 0.208391 0
M  V30 48 H 7.40396 -1.99574 -1.45514 0
M  V30 49 H 5.68056 -1.67874 -1.93428 0
M  V30 50 H 6.78472 -0.293161 -1.82667 0
M  V30 51 H 0.618132 2.18101 -0.738619 0
M  V30 52 H 1.34744 2.13041 0.758325 0
M  V30 END ATOM
M  V30 BEGIN BOND
M  V30 1 1 1 2
M  V30 2 1 2 3
M  V30 3 1 3 4
M  V30 4 1 4 5
M  V30 5 1 5 6
M  V30 6 1 6 7
M  V30 7 1 7 8
M  V30 8 1 3 9
M  V30 9 2 9 10
M  V30 10 1 9 11
M  V30 11 1 11 12
M  V30 12 1 12 13
M  V30 13 1 13 14
M  V30 14 2 14 15
M  V30 15 1 15 16
M  V30 16 2 16 17
M  V30 17 1 17 18
M  V30 18 2 18 19
M  V30 19 1 17 20
M  V30 20 1 20 21
M  V30 21 1 20 22
M  V30 22 1 13 23
M  V30 23 1 8 3
M  V30 24 1 19 14
M  V30 25 1 1 24
M  V30 26 1 1 25
M  V30 27 1 2 26
M  V30 28 1 2 27
M  V30 29 1 4 28
M  V30 30 1 4 29
M  V30 31 1 5 30
M  V30 32 1 5 31
M  V30 33 1 7 32
M  V30 34 1 7 33
M  V30 35 1 8 34
M  V30 36 1 8 35
M  V30 37 1 11 36
M  V30 38 1 12 37
M  V30 39 1 12 38
M  V30 40 1 13 39
M  V30 41 1 15 40
M  V30 42 1 16 41
M  V30 43 1 18 42
M  V30 44 1 19 43
M  V30 45 1 20 44
M  V30 46 1 21 45
M  V30 47 1 21 46
M  V30 48 1 21 47
M  V30 49 1 22 48
M  V30 50 1 22 49
M  V30 51 1 22 50
M  V30 52 1 23 51
M  V30 53 1 23 52
M  V30 END BOND
M  V30 END CTAB
M  END
