
     RDKit          3D

  0  0  0  0  0  0  0  0  0  0999 V3000
M  V30 BEGIN CTAB
M  V30 COUNTS 53 55 0 0 0
M  V30 BEGIN ATOM
M  V30 1 O -0.491013 0.572692 1.81209 0
M  V30 2 C -0.217553 1.09635 0.933523 0
M  V30 3 N 1.17529 1.14495 0.550837 0
M  V30 4 C 2.17457 0.499068 1.34014 0 CFG=2
M  V30 5 C 3.07951 1.55079 1.89888 0
M  V30 6 O 2.92424 2.77439 1.66917 0
M  V30 7 O 4.14869 1.17384 2.71341 0
M  V30 8 C 3.02155 -0.481787 0.570691 0
M  V30 9 C 3.71775 0.263174 -0.536978 0
M  V30 10 C 4.59441 -0.688094 -1.35299 0
M  V30 11 N 5.58954 -1.28694 -0.495058 0
M  V30 12 C 6.81076 -1.32415 -0.884836 0
M  V30 13 N 7.79698 -1.91042 -0.0495032 0
M  V30 14 N 7.17983 -0.787038 -2.13651 0
M  V30 15 O -1.18246 1.72949 0.156576 0
M  V30 16 C -2.52319 1.66346 0.549589 0
M  V30 17 C -3.14286 0.309426 0.586924 0
M  V30 18 C -3.17707 -0.4101 -0.689035 0
M  V30 19 C -2.20028 -0.885585 -1.51317 0
M  V30 20 C -2.51795 -1.55263 -2.70557 0
M  V30 21 C -3.83137 -1.72846 -3.0461 0
M  V30 22 C -4.81535 -1.25625 -2.22757 0
M  V30 23 C -4.4919 -0.600757 -1.05547 0
M  V30 24 C -5.35592 -0.0197189 -0.0307004 0
M  V30 25 C -4.58772 0.529423 0.967631 0
M  V30 26 C -5.15944 1.14235 2.06059 0
M  V30 27 C -6.52379 1.23529 2.20698 0
M  V30 28 C -7.31954 0.687199 1.20984 0
M  V30 29 C -6.73455 0.0772711 0.122608 0
M  V30 30 H 1.37714 1.68121 -0.331651 0
M  V30 31 H 1.68205 0.0141067 2.20667 0
M  V30 32 H 3.96609 0.769755 3.62958 0
M  V30 33 H 2.45163 -1.32649 0.172416 0
M  V30 34 H 3.80031 -0.85327 1.28768 0
M  V30 35 H 2.93399 0.620434 -1.23749 0
M  V30 36 H 4.35338 1.05496 -0.141543 0
M  V30 37 H 5.07369 -0.0472098 -2.13874 0
M  V30 38 H 3.92428 -1.43838 -1.8063 0
M  V30 39 H 8.56944 -1.33364 0.390189 0
M  V30 40 H 7.73354 -2.93864 0.117561 0
M  V30 41 H 7.83086 0.0142864 -2.2521 0
M  V30 42 H 6.79013 -1.19991 -3.02399 0
M  V30 43 H -2.53997 2.03856 1.61954 0
M  V30 44 H -3.16238 2.40425 0.0133705 0
M  V30 45 H -2.70699 -0.324624 1.40982 0
M  V30 46 H -1.14777 -0.797293 -1.32967 0
M  V30 47 H -1.74466 -1.93025 -3.36028 0
M  V30 48 H -4.10168 -2.24579 -3.97154 0
M  V30 49 H -5.85582 -1.37895 -2.46776 0
M  V30 50 H -4.4834 1.55495 2.81239 0
M  V30 51 H -6.91447 1.71886 3.07019 0
M  V30 52 H -8.39222 0.762412 1.32866 0
M  V30 53 H -7.37834 -0.336595 -0.630966 0
M  V30 END ATOM
M  V30 BEGIN BOND
M  V30 1 2 1 2
M  V30 2 1 2 3
M  V30 3 1 3 4
M  V30 4 1 4 5
M  V30 5 2 5 6
M  V30 6 1 5 7
M  V30 7 1 4 8
M  V30 8 1 8 9
M  V30 9 1 9 10
M  V30 10 1 10 11
M  V30 11 2 11 12 CFG=2
M  V30 12 1 12 13
M  V30 13 1 12 14
M  V30 14 1 2 15
M  V30 15 1 15 16
M  V30 16 1 16 17
M  V30 17 1 17 18
M  V30 18 2 18 19
M  V30 19 1 19 20
M  V30 20 2 20 21
M  V30 21 1 21 22
M  V30 22 2 22 23
M  V30 23 1 23 24
M  V30 24 2 24 25
M  V30 25 1 25 26
M  V30 26 2 26 27
M  V30 27 1 27 28
M  V30 28 2 28 29
M  V30 29 1 25 17
M  V30 30 1 23 18
M  V30 31 1 29 24
M  V30 32 1 3 30
M  V30 33 1 4 31 CFG=1
M  V30 34 1 7 32
M  V30 35 1 8 33
M  V30 36 1 8 34
M  V30 37 1 9 35
M  V30 38 1 9 36
M  V30 39 1 10 37
M  V30 40 1 10 38
M  V30 41 1 13 39
M  V30 42 1 13 40
M  V30 43 1 14 41
M  V30 44 1 14 42
M  V30 45 1 16 43
M  V30 46 1 16 44
M  V30 47 1 17 45
M  V30 48 1 19 46
M  V30 49 1 20 47
M  V30 50 1 21 48
M  V30 51 1 22 49
M  V30 52 1 26 50
M  V30 53 1 27 51
M  V30 54 1 28 52
M  V30 55 1 29 53
M  V30 END BOND
M  V30 END CTAB
M  END
