
     RDKit          3D

  0  0  0  0  0  0  0  0  0  0999 V3000
M  V30 BEGIN CTAB
M  V30 COUNTS 78 79 0 0 0
M  V30 BEGIN ATOM
M  V30 1 C 5.53677 -0.0671044 -2.19258 0
M  V30 2 C 5.42434 -0.916415 -0.929226 0
M  V30 3 C 6.04715 -2.26914 -1.3123 0
M  V30 4 C 3.99863 -1.19843 -0.559773 0
M  V30 5 C 3.3305 -0.101286 0.198178 0
M  V30 6 C 2.1718 0.476552 -0.563326 0
M  V30 7 C 1.10011 -0.515952 -0.87859 0
M  V30 8 C 0.481479 -1.14971 0.339198 0
M  V30 9 C -0.159407 -0.151044 1.2532 0
M  V30 10 C -1.27105 0.632693 0.584742 0
M  V30 11 C -2.36198 -0.288516 0.10561 0
M  V30 12 C -3.45877 0.504855 -0.565401 0
M  V30 13 C -4.13116 1.50952 0.282049 0
M  V30 14 C -5.32727 0.999182 1.04327 0
M  V30 15 C -4.97696 0.291701 2.31238 0
M  V30 16 C -6.07477 2.27177 1.49446 0
M  V30 17 N -6.20933 0.30477 0.186696 0
M  V30 18 N -7.08453 1.14859 -0.515498 0
M  V30 19 C -5.67772 -0.693433 -0.66092 0
M  V30 20 C -6.72743 -0.894509 -1.77436 0
M  V30 21 C -5.61443 -2.06613 0.0262859 0
M  V30 22 C -4.39261 -0.390279 -1.33438 0
M  V30 23 C 4.21733 1.00431 0.630529 0
M  V30 24 C 5.63117 0.682101 0.862767 0
M  V30 25 C 6.46556 1.92774 0.530896 0
M  V30 26 C 5.8648 0.441518 2.36067 0
M  V30 27 N 6.18239 -0.4072 0.158211 0
M  V30 28 N 6.7071 -1.42205 0.931044 0
M  V30 29 H 6.52565 -0.208474 -2.63634 0
M  V30 30 H 4.79549 -0.504379 -2.90671 0
M  V30 31 H 5.25817 0.971266 -2.03774 0
M  V30 32 H 7.0529 -2.02388 -1.70579 0
M  V30 33 H 6.07283 -2.95691 -0.444551 0
M  V30 34 H 5.41431 -2.68602 -2.12397 0
M  V30 35 H 3.99666 -2.17384 -0.00545192 0
M  V30 36 H 3.46699 -1.43791 -1.52769 0
M  V30 37 H 2.89102 -0.569317 1.12805 0
M  V30 38 H 2.53747 0.907617 -1.49562 0
M  V30 39 H 1.7172 1.29277 0.0272999 0
M  V30 40 H 0.293295 0.025625 -1.41537 0
M  V30 41 H 1.43054 -1.32511 -1.56131 0
M  V30 42 H -0.249675 -1.90722 -0.0323314 0
M  V30 43 H 1.21776 -1.72041 0.940731 0
M  V30 44 H -0.610507 -0.692359 2.09615 0
M  V30 45 H 0.614234 0.558368 1.58806 0
M  V30 46 H -1.59855 1.37398 1.34049 0
M  V30 47 H -0.910532 1.22308 -0.285129 0
M  V30 48 H -2.72421 -0.923003 0.935107 0
M  V30 49 H -1.9035 -0.917555 -0.697369 0
M  V30 50 H -2.90259 1.10015 -1.35922 0
M  V30 51 H -3.46496 2.00027 0.990163 0
M  V30 52 H -4.52905 2.34007 -0.374932 0
M  V30 53 H -4.10147 0.800334 2.76963 0
M  V30 54 H -5.82353 0.430066 3.03656 0
M  V30 55 H -4.75163 -0.774228 2.20534 0
M  V30 56 H -7.04831 1.98449 1.94425 0
M  V30 57 H -6.14459 3.00557 0.691005 0
M  V30 58 H -5.39875 2.71755 2.2794 0
M  V30 59 H -7.86163 1.50813 0.0823971 0
M  V30 60 H -6.55886 1.9269 -0.996825 0
M  V30 61 H -6.31643 -1.64914 -2.47 0
M  V30 62 H -6.76294 0.0692026 -2.35123 0
M  V30 63 H -7.69332 -1.1578 -1.33507 0
M  V30 64 H -6.31962 -2.04613 0.908292 0
M  V30 65 H -5.96374 -2.8734 -0.617154 0
M  V30 66 H -4.58054 -2.31554 0.335307 0
M  V30 67 H -3.84475 -1.3679 -1.46825 0
M  V30 68 H -4.55563 -0.0243171 -2.37472 0
M  V30 69 H 4.12193 1.84814 -0.114515 0
M  V30 70 H 3.79375 1.44588 1.5792 0
M  V30 71 H 7.22643 2.12783 1.28445 0
M  V30 72 H 5.81638 2.82598 0.451167 0
M  V30 73 H 6.94042 1.81325 -0.472793 0
M  V30 74 H 6.90717 0.0514607 2.51964 0
M  V30 75 H 5.09302 -0.189063 2.80443 0
M  V30 76 H 5.87535 1.45746 2.83898 0
M  V30 77 H 7.72645 -1.34968 1.0932 0
M  V30 78 H 6.14216 -1.67597 1.74958 0
M  V30 END ATOM
M  V30 BEGIN BOND
M  V30 1 1 1 2
M  V30 2 1 2 3
M  V30 3 1 2 4
M  V30 4 1 4 5
M  V30 5 1 5 6
M  V30 6 1 6 7
M  V30 7 1 7 8
M  V30 8 1 8 9
M  V30 9 1 9 10
M  V30 10 1 10 11
M  V30 11 1 11 12
M  V30 12 1 12 13
M  V30 13 1 13 14
M  V30 14 1 14 15
M  V30 15 1 14 16
M  V30 16 1 14 17
M  V30 17 1 17 18
M  V30 18 1 17 19
M  V30 19 1 19 20
M  V30 20 1 19 21
M  V30 21 1 19 22
M  V30 22 1 5 23
M  V30 23 1 23 24
M  V30 24 1 24 25
M  V30 25 1 24 26
M  V30 26 1 24 27
M  V30 27 1 27 28
M  V30 28 1 27 2
M  V30 29 1 22 12
M  V30 30 1 1 29
M  V30 31 1 1 30
M  V30 32 1 1 31
M  V30 33 1 3 32
M  V30 34 1 3 33
M  V30 35 1 3 34
M  V30 36 1 4 35
M  V30 37 1 4 36
M  V30 38 1 5 37
M  V30 39 1 6 38
M  V30 40 1 6 39
M  V30 41 1 7 40
M  V30 42 1 7 41
M  V30 43 1 8 42
M  V30 44 1 8 43
M  V30 45 1 9 44
M  V30 46 1 9 45
M  V30 47 1 10 46
M  V30 48 1 10 47
M  V30 49 1 11 48
M  V30 50 1 11 49
M  V30 51 1 12 50
M  V30 52 1 13 51
M  V30 53 1 13 52
M  V30 54 1 15 53
M  V30 55 1 15 54
M  V30 56 1 15 55
M  V30 57 1 16 56
M  V30 58 1 16 57
M  V30 59 1 16 58
M  V30 60 1 18 59
M  V30 61 1 18 60
M  V30 62 1 20 61
M  V30 63 1 20 62
M  V30 64 1 20 63
M  V30 65 1 21 64
M  V30 66 1 21 65
M  V30 67 1 21 66
M  V30 68 1 22 67
M  V30 69 1 22 68
M  V30 70 1 23 69
M  V30 71 1 23 70
M  V30 72 1 25 71
M  V30 73 1 25 72
M  V30 74 1 25 73
M  V30 75 1 26 74
M  V30 76 1 26 75
M  V30 77 1 26 76
M  V30 78 1 28 77
M  V30 79 1 28 78
M  V30 END BOND
M  V30 END CTAB
M  END
