
     RDKit          3D

  0  0  0  0  0  0  0  0  0  0999 V3000
M  V30 BEGIN CTAB
M  V30 COUNTS 31 33 0 0 0
M  V30 BEGIN ATOM
M  V30 1 N -2.18812 1.68004 -1.26436 0
M  V30 2 C -1.89472 1.03946 0.0071679 0
M  V30 3 C -3.09511 0.280425 0.444602 0
M  V30 4 C -2.8912 -1.18081 0.635225 0
M  V30 5 C -1.91127 -1.80464 -0.307632 0
M  V30 6 C -0.602804 -1.11277 -0.176247 0
M  V30 7 C -0.649609 0.265966 -0.0259088 0
M  V30 8 C 0.579071 0.901532 0.09593 0
M  V30 9 N 0.627758 2.32021 0.254701 0
M  V30 10 C 1.77673 0.198821 0.0686318 0
M  V30 11 C 2.99405 0.873964 0.194346 0
M  V30 12 C 4.15528 0.139298 0.16197 0
M  V30 13 C 4.11369 -1.22414 0.00960803 0
M  V30 14 C 2.91875 -1.90018 -0.115269 0
M  V30 15 C 1.75445 -1.15562 -0.0819263 0
M  V30 16 N 0.564495 -1.78369 -0.201311 0
M  V30 17 H -1.9873 2.68449 -1.26102 0
M  V30 18 H -1.87126 1.14839 -2.081 0
M  V30 19 H -1.73042 1.88339 0.740075 0
M  V30 20 H -3.95294 0.401877 -0.281638 0
M  V30 21 H -3.51705 0.683752 1.41255 0
M  V30 22 H -2.5851 -1.40447 1.66837 0
M  V30 23 H -3.8689 -1.72649 0.488868 0
M  V30 24 H -1.73956 -2.85454 0.0453553 0
M  V30 25 H -2.23119 -1.85997 -1.34466 0
M  V30 26 H 0.281141 2.92918 -0.516404 0
M  V30 27 H 0.997703 2.77821 1.11488 0
M  V30 28 H 2.97593 1.93551 0.310855 0
M  V30 29 H 5.12488 0.636011 0.257561 0
M  V30 30 H 5.02097 -1.81241 -0.0172378 0
M  V30 31 H 2.83166 -2.9608 -0.236079 0
M  V30 END ATOM
M  V30 BEGIN BOND
M  V30 1 1 1 2
M  V30 2 1 2 3
M  V30 3 1 3 4
M  V30 4 1 4 5
M  V30 5 1 5 6
M  V30 6 2 6 7
M  V30 7 1 7 8
M  V30 8 1 8 9
M  V30 9 2 8 10
M  V30 10 1 10 11
M  V30 11 2 11 12
M  V30 12 1 12 13
M  V30 13 2 13 14
M  V30 14 1 14 15
M  V30 15 2 15 16
M  V30 16 1 7 2
M  V30 17 1 15 10
M  V30 18 1 16 6
M  V30 19 1 1 17
M  V30 20 1 1 18
M  V30 21 1 2 19
M  V30 22 1 3 20
M  V30 23 1 3 21
M  V30 24 1 4 22
M  V30 25 1 4 23
M  V30 26 1 5 24
M  V30 27 1 5 25
M  V30 28 1 9 26
M  V30 29 1 9 27
M  V30 30 1 11 28
M  V30 31 1 12 29
M  V30 32 1 13 30
M  V30 33 1 14 31
M  V30 END BOND
M  V30 END CTAB
M  END
