
     RDKit          3D

  0  0  0  0  0  0  0  0  0  0999 V3000
M  V30 BEGIN CTAB
M  V30 COUNTS 47 50 0 0 0
M  V30 BEGIN ATOM
M  V30 1 N -5.96525 3.01274 -1.65325 0
M  V30 2 C -5.18324 2.00738 -1.03028 0
M  V30 3 C -3.83409 2.06 -0.916571 0
M  V30 4 C -3.02476 1.08972 -0.309746 0
M  V30 5 N -1.62911 1.26177 -0.230149 0
M  V30 6 C -0.630623 0.30584 -0.0356038 0
M  V30 7 N 0.684103 0.678756 0.0274194 0
M  V30 8 C 1.68214 -0.169108 0.190842 0
M  V30 9 N 3.05653 0.124722 0.26642 0
M  V30 10 C 3.68464 1.38351 0.177442 0
M  V30 11 C 5.0243 1.50211 0.576007 0
M  V30 12 C 5.71693 2.68806 0.509191 0
M  V30 13 N 7.07165 2.76654 0.922269 0
M  V30 14 C 5.11935 3.8328 0.0408184 0
M  V30 15 C 3.80849 3.75258 -0.358114 0
M  V30 16 C 3.1051 2.53295 -0.286803 0
M  V30 17 N 1.34112 -1.49108 0.299713 0
M  V30 18 C 0.0806719 -1.92643 0.24724 0
M  V30 19 N -0.871723 -0.987571 0.0780337 0
M  V30 20 C -0.262221 -3.33041 0.364306 0
M  V30 21 C 0.712105 -4.278 0.536804 0
M  V30 22 C 0.352901 -5.61478 0.645579 0
M  V30 23 C -0.953113 -6.01004 0.584616 0
M  V30 24 C -1.92359 -5.06694 0.412873 0
M  V30 25 C -1.57595 -3.71611 0.301762 0
M  V30 26 C -3.70393 0.0114004 0.199216 0
M  V30 27 C -5.10613 -0.105589 0.11415 0
M  V30 28 C -5.81917 0.892162 -0.497666 0
M  V30 29 H -6.51473 2.80212 -2.49508 0
M  V30 30 H -5.97515 3.95854 -1.24995 0
M  V30 31 H -3.32009 2.91983 -1.32641 0
M  V30 32 H -1.32974 2.30427 -0.335254 0
M  V30 33 H 3.75147 -0.697167 0.404889 0
M  V30 34 H 5.54121 0.630606 0.953734 0
M  V30 35 H 7.72695 1.96382 0.841558 0
M  V30 36 H 7.43395 3.6543 1.32197 0
M  V30 37 H 5.62348 4.78511 -0.0292285 0
M  V30 38 H 3.29784 4.64011 -0.736365 0
M  V30 39 H 2.08622 2.52371 -0.62044 0
M  V30 40 H 1.77126 -4.02052 0.592687 0
M  V30 41 H 1.15822 -6.3363 0.781846 0
M  V30 42 H -1.20015 -7.06458 0.673247 0
M  V30 43 H -2.95385 -5.33794 0.360608 0
M  V30 44 H -2.37157 -2.98064 0.164727 0
M  V30 45 H -3.1862 -0.789144 0.700751 0
M  V30 46 H -5.60329 -0.973659 0.52851 0
M  V30 47 H -6.89298 0.810542 -0.567112 0
M  V30 END ATOM
M  V30 BEGIN BOND
M  V30 1 1 1 2
M  V30 2 2 2 3
M  V30 3 1 3 4
M  V30 4 1 4 5
M  V30 5 1 5 6
M  V30 6 2 6 7
M  V30 7 1 7 8
M  V30 8 1 8 9
M  V30 9 1 9 10
M  V30 10 2 10 11
M  V30 11 1 11 12
M  V30 12 1 12 13
M  V30 13 2 12 14
M  V30 14 1 14 15
M  V30 15 2 15 16
M  V30 16 2 8 17
M  V30 17 1 17 18
M  V30 18 2 18 19
M  V30 19 1 18 20
M  V30 20 2 20 21
M  V30 21 1 21 22
M  V30 22 2 22 23
M  V30 23 1 23 24
M  V30 24 2 24 25
M  V30 25 2 4 26
M  V30 26 1 26 27
M  V30 27 2 27 28
M  V30 28 1 28 2
M  V30 29 1 19 6
M  V30 30 1 25 20
M  V30 31 1 16 10
M  V30 32 1 1 29
M  V30 33 1 1 30
M  V30 34 1 3 31
M  V30 35 1 5 32
M  V30 36 1 9 33
M  V30 37 1 11 34
M  V30 38 1 13 35
M  V30 39 1 13 36
M  V30 40 1 14 37
M  V30 41 1 15 38
M  V30 42 1 16 39
M  V30 43 1 21 40
M  V30 44 1 22 41
M  V30 45 1 23 42
M  V30 46 1 24 43
M  V30 47 1 25 44
M  V30 48 1 26 45
M  V30 49 1 27 46
M  V30 50 1 28 47
M  V30 END BOND
M  V30 END CTAB
M  END
