
     RDKit          3D

  0  0  0  0  0  0  0  0  0  0999 V3000
M  V30 BEGIN CTAB
M  V30 COUNTS 43 45 0 0 0
M  V30 BEGIN ATOM
M  V30 1 C 5.3669 0.135298 0.60458 0 CFG=1
M  V30 2 N 5.45183 -1.06062 1.40892 0
M  V30 3 C 4.36263 1.064 1.24319 0
M  V30 4 S 2.74863 0.242173 1.31282 0
M  V30 5 C 2.07802 -0.02734 -0.348875 0
M  V30 6 C 0.739209 -0.722154 -0.254055 0 CFG=1
M  V30 7 O -0.207202 -0.00113242 0.461204 0
M  V30 8 C -1.43102 -0.414978 -0.0636749 0 CFG=2
M  V30 9 C -1.16174 -0.240596 -1.54466 0 CFG=2
M  V30 10 O -2.11072 -0.868095 -2.33727 0
M  V30 11 C 0.200923 -0.919691 -1.63823 0 CFG=2
M  V30 12 O -0.0577159 -2.27932 -1.86028 0
M  V30 13 N -2.56006 0.29667 0.418242 0
M  V30 14 C -2.63506 1.573 0.813843 0
M  V30 15 N -3.90613 1.83867 1.19837 0
M  V30 16 C -4.64387 0.720721 1.0451 0
M  V30 17 C -3.7958 -0.251025 0.553624 0
M  V30 18 N -4.33868 -1.46032 0.327309 0
M  V30 19 C -5.63057 -1.75216 0.552596 0
M  V30 20 N -6.4398 -0.781121 1.03444 0
M  V30 21 C -5.99451 0.466812 1.29566 0
M  V30 22 N -6.86506 1.43944 1.7934 0
M  V30 23 C 6.67078 0.778856 0.415741 0
M  V30 24 O 6.79329 1.93696 -0.33526 0
M  V30 25 O 7.7133 0.300545 0.927549 0
M  V30 26 H 4.96689 -0.169424 -0.382559 0
M  V30 27 H 6.37828 -1.21924 1.83492 0
M  V30 28 H 4.99828 -1.88712 0.99876 0
M  V30 29 H 4.6743 1.2584 2.29181 0
M  V30 30 H 4.30999 2.03494 0.739731 0
M  V30 31 H 2.76128 -0.74944 -0.861582 0
M  V30 32 H 2.00793 0.917114 -0.921215 0
M  V30 33 H 0.934062 -1.71162 0.229142 0
M  V30 34 H -1.53664 -1.50808 0.105929 0
M  V30 35 H -1.06691 0.83101 -1.80168 0
M  V30 36 H -2.55092 -0.228706 -2.94633 0
M  V30 37 H 0.834735 -0.473918 -2.42399 0
M  V30 38 H -1.00697 -2.51396 -1.66227 0
M  V30 39 H -1.85587 2.32337 0.848002 0
M  V30 40 H -5.9785 -2.74986 0.341742 0
M  V30 41 H -7.66865 1.77876 1.23347 0
M  V30 42 H -6.71876 1.83941 2.73878 0
M  V30 43 H 6.16989 2.21378 -1.07562 0
M  V30 END ATOM
M  V30 BEGIN BOND
M  V30 1 1 1 2
M  V30 2 1 1 3
M  V30 3 1 3 4
M  V30 4 1 4 5
M  V30 5 1 5 6
M  V30 6 1 6 7
M  V30 7 1 7 8
M  V30 8 1 8 9
M  V30 9 1 9 10
M  V30 10 1 9 11
M  V30 11 1 11 12
M  V30 12 1 8 13
M  V30 13 1 13 14
M  V30 14 2 14 15
M  V30 15 1 15 16
M  V30 16 2 16 17
M  V30 17 1 17 18
M  V30 18 2 18 19
M  V30 19 1 19 20
M  V30 20 2 20 21
M  V30 21 1 21 22
M  V30 22 1 1 23
M  V30 23 1 23 24
M  V30 24 2 23 25
M  V30 25 1 11 6
M  V30 26 1 17 13
M  V30 27 1 21 16
M  V30 28 1 1 26 CFG=3
M  V30 29 1 2 27
M  V30 30 1 2 28
M  V30 31 1 3 29
M  V30 32 1 3 30
M  V30 33 1 5 31
M  V30 34 1 5 32
M  V30 35 1 6 33 CFG=1
M  V30 36 1 8 34 CFG=3
M  V30 37 1 9 35 CFG=3
M  V30 38 1 10 36
M  V30 39 1 11 37 CFG=3
M  V30 40 1 12 38
M  V30 41 1 14 39
M  V30 42 1 19 40
M  V30 43 1 22 41
M  V30 44 1 22 42
M  V30 45 1 24 43
M  V30 END BOND
M  V30 END CTAB
M  END
