
     RDKit          3D

  0  0  0  0  0  0  0  0  0  0999 V3000
M  V30 BEGIN CTAB
M  V30 COUNTS 24 25 0 0 0
M  V30 BEGIN ATOM
M  V30 1 N 3.5304 0.878368 -0.585172 0
M  V30 2 C 2.8226 0.231973 0.451752 0
M  V30 3 S 3.56298 -0.261831 1.82144 0
M  V30 4 C 1.38422 -0.0243218 0.340972 0
M  V30 5 C 0.517252 1.02111 0.0552119 0
M  V30 6 C -0.821715 0.703377 -0.0335088 0
M  V30 7 C -2.01465 1.5719 -0.323787 0
M  V30 8 C -3.01224 0.553506 -0.844401 0
M  V30 9 C -2.70874 -0.65718 0.00915521 0
M  V30 10 C -1.24473 -0.594208 0.156979 0
M  V30 11 N -0.368599 -1.5773 0.432356 0
M  V30 12 C 0.95057 -1.3201 0.529929 0
M  V30 13 N 1.85535 -2.39342 0.824914 0
M  V30 14 H 4.47779 0.556778 -0.845488 0
M  V30 15 H 3.10563 1.67502 -1.08839 0
M  V30 16 H 0.869334 2.03437 -0.0911164 0
M  V30 17 H -1.81115 2.30411 -1.11602 0
M  V30 18 H -2.41537 2.01625 0.603349 0
M  V30 19 H -4.05118 0.856555 -0.723686 0
M  V30 20 H -2.75694 0.26492 -1.90169 0
M  V30 21 H -3.04522 -1.60913 -0.470214 0
M  V30 22 H -3.2237 -0.61392 0.991844 0
M  V30 23 H 2.21149 -3.00836 0.0369537 0
M  V30 24 H 2.18663 -2.60846 1.76862 0
M  V30 END ATOM
M  V30 BEGIN BOND
M  V30 1 1 1 2
M  V30 2 2 2 3
M  V30 3 1 2 4
M  V30 4 2 4 5
M  V30 5 1 5 6
M  V30 6 1 6 7
M  V30 7 1 7 8
M  V30 8 1 8 9
M  V30 9 1 9 10
M  V30 10 1 10 11
M  V30 11 2 11 12
M  V30 12 1 12 13
M  V30 13 1 12 4
M  V30 14 2 10 6
M  V30 15 1 1 14
M  V30 16 1 1 15
M  V30 17 1 5 16
M  V30 18 1 7 17
M  V30 19 1 7 18
M  V30 20 1 8 19
M  V30 21 1 8 20
M  V30 22 1 9 21
M  V30 23 1 9 22
M  V30 24 1 13 23
M  V30 25 1 13 24
M  V30 END BOND
M  V30 END CTAB
M  END
