
     RDKit          3D

  0  0  0  0  0  0  0  0  0  0999 V3000
M  V30 BEGIN CTAB
M  V30 COUNTS 36 35 0 0 0
M  V30 BEGIN ATOM
M  V30 1 C -2.26904 -1.62723 0.080752 0 CFG=2
M  V30 2 O -2.8902 -1.95329 -1.16014 0
M  V30 3 C -3.35161 -1.59284 1.09929 0
M  V30 4 O -2.93097 -1.31642 2.39007 0
M  V30 5 C -1.51931 -0.380014 -0.164552 0 CFG=1
M  V30 6 O -2.31777 0.71777 -0.562972 0
M  V30 7 C -0.482285 0.0271779 0.818467 0 CFG=2
M  V30 8 O -0.973281 0.656146 1.96611 0
M  V30 9 C 0.53119 0.870133 0.197052 0
M  V30 10 C 1.59024 0.412136 -0.653274 0
M  V30 11 N 1.91672 -0.736997 -0.923716 0
M  V30 12 N 1.52933 -1.97913 -0.620813 0
M  V30 13 C 2.35542 -2.78828 0.236768 0
M  V30 14 N 3.56007 -2.23265 0.732646 0
M  V30 15 S 1.87169 -4.29978 0.598005 0
M  V30 16 N 0.418292 2.17719 0.374026 0
M  V30 17 N 1.31907 3.06799 -0.167392 0
M  V30 18 C 1.06884 3.63468 -1.43965 0
M  V30 19 N 1.98801 4.54989 -2.00307 0
M  V30 20 S -0.261748 3.26386 -2.29106 0
M  V30 21 H -1.57313 -2.4315 0.295686 0
M  V30 22 H -2.2157 -1.88883 -1.89059 0
M  V30 23 H -3.84295 -2.60864 1.15906 0
M  V30 24 H -4.20367 -0.918388 0.802945 0
M  V30 25 H -3.46964 -1.76615 3.08484 0
M  V30 26 H -0.946017 -0.573957 -1.14152 0
M  V30 27 H -2.30985 1.4341 0.0989052 0
M  V30 28 H 0.0688781 -0.905719 1.18823 0
M  V30 29 H -0.385077 1.35857 2.29674 0
M  V30 30 H 2.22842 1.23126 -1.15784 0
M  V30 31 H 0.64655 -2.43164 -0.974979 0
M  V30 32 H 3.56488 -1.31099 1.2181 0
M  V30 33 H 4.45257 -2.74719 0.613013 0
M  V30 34 H 2.18482 3.33594 0.340106 0
M  V30 35 H 2.34054 4.37488 -2.96082 0
M  V30 36 H 2.30674 5.37792 -1.47842 0
M  V30 END ATOM
M  V30 BEGIN BOND
M  V30 1 1 1 2
M  V30 2 1 1 3
M  V30 3 1 3 4
M  V30 4 1 1 5
M  V30 5 1 5 6
M  V30 6 1 5 7
M  V30 7 1 7 8
M  V30 8 1 7 9
M  V30 9 1 9 10
M  V30 10 2 10 11 CFG=2
M  V30 11 1 11 12
M  V30 12 1 12 13
M  V30 13 1 13 14
M  V30 14 2 13 15
M  V30 15 2 9 16 CFG=2
M  V30 16 1 16 17
M  V30 17 1 17 18
M  V30 18 1 18 19
M  V30 19 2 18 20
M  V30 20 1 1 21 CFG=1
M  V30 21 1 2 22
M  V30 22 1 3 23
M  V30 23 1 3 24
M  V30 24 1 4 25
M  V30 25 1 5 26 CFG=3
M  V30 26 1 6 27
M  V30 27 1 7 28 CFG=1
M  V30 28 1 8 29
M  V30 29 1 10 30
M  V30 30 1 12 31
M  V30 31 1 14 32
M  V30 32 1 14 33
M  V30 33 1 17 34
M  V30 34 1 19 35
M  V30 35 1 19 36
M  V30 END BOND
M  V30 END CTAB
M  END
