
     RDKit          3D

  0  0  0  0  0  0  0  0  0  0999 V3000
M  V30 BEGIN CTAB
M  V30 COUNTS 47 47 0 0 0
M  V30 BEGIN ATOM
M  V30 1 N 5.58058 -0.740987 -0.0760472 0
M  V30 2 C 5.11311 0.541705 -0.560354 0
M  V30 3 C 3.82709 0.971327 0.0980179 0
M  V30 4 C 2.70659 -0.0173734 -0.146129 0
M  V30 5 C 2.40844 -0.18697 -1.59202 0
M  V30 6 C 1.42127 0.911846 -1.9784 0
M  V30 7 C 0.0876923 0.378021 -1.39608 0
M  V30 8 N 0.234509 0.204728 0.0306083 0
M  V30 9 C 1.53016 0.298515 0.68178 0
M  V30 10 C -0.902164 -0.0569762 0.824524 0
M  V30 11 O -0.631504 -0.220086 2.08552 0
M  V30 12 C -2.29581 -0.161373 0.423481 0
M  V30 13 C -3.09783 -0.729853 1.61995 0
M  V30 14 N -4.50073 -0.849806 1.25792 0
M  V30 15 C -2.9829 1.16318 0.14362 0
M  V30 16 C -2.98864 2.07603 1.34153 0
M  V30 17 C -2.6064 -1.06574 -0.724867 0
M  V30 18 C -2.20044 -2.50333 -0.494656 0
M  V30 19 H 5.32711 -1.53241 -0.673271 0
M  V30 20 H 5.41333 -0.894032 0.925769 0
M  V30 21 H 5.88901 1.28934 -0.23587 0
M  V30 22 H 5.09443 0.559376 -1.64723 0
M  V30 23 H 4.00421 0.979029 1.19645 0
M  V30 24 H 3.59135 1.98962 -0.222368 0
M  V30 25 H 3.1166 -1.00703 0.211219 0
M  V30 26 H 3.29249 -0.186494 -2.24357 0
M  V30 27 H 1.9072 -1.17783 -1.73362 0
M  V30 28 H 1.30058 1.02308 -3.05172 0
M  V30 29 H 1.608 1.85176 -1.4344 0
M  V30 30 H 0.0111527 -0.634401 -1.88979 0
M  V30 31 H -0.646645 1.10197 -1.71455 0
M  V30 32 H 1.49522 -0.315434 1.61007 0
M  V30 33 H 1.64069 1.35924 1.05577 0
M  V30 34 H -2.66761 -1.70135 1.91102 0
M  V30 35 H -3.03251 0.0204816 2.41925 0
M  V30 36 H -4.89683 -1.77522 1.56754 0
M  V30 37 H -5.09024 -0.122864 1.7349 0
M  V30 38 H -2.70772 1.65271 -0.77805 0
M  V30 39 H -4.07238 0.87357 0.0066333 0
M  V30 40 H -3.90341 2.03804 1.93118 0
M  V30 41 H -2.85932 3.12187 0.942567 0
M  V30 42 H -2.06722 1.86887 1.92567 0
M  V30 43 H -3.74895 -1.08606 -0.767933 0
M  V30 44 H -2.33153 -0.671162 -1.71829 0
M  V30 45 H -2.16283 -2.98563 -1.51141 0
M  V30 46 H -2.99952 -3.04928 0.0515388 0
M  V30 47 H -1.20769 -2.60263 -0.0238731 0
M  V30 END ATOM
M  V30 BEGIN BOND
M  V30 1 1 1 2
M  V30 2 1 2 3
M  V30 3 1 3 4
M  V30 4 1 4 5
M  V30 5 1 5 6
M  V30 6 1 6 7
M  V30 7 1 7 8
M  V30 8 1 8 9
M  V30 9 1 8 10
M  V30 10 2 10 11
M  V30 11 1 10 12
M  V30 12 1 12 13
M  V30 13 1 13 14
M  V30 14 1 12 15
M  V30 15 1 15 16
M  V30 16 1 12 17
M  V30 17 1 17 18
M  V30 18 1 9 4
M  V30 19 1 1 19
M  V30 20 1 1 20
M  V30 21 1 2 21
M  V30 22 1 2 22
M  V30 23 1 3 23
M  V30 24 1 3 24
M  V30 25 1 4 25
M  V30 26 1 5 26
M  V30 27 1 5 27
M  V30 28 1 6 28
M  V30 29 1 6 29
M  V30 30 1 7 30
M  V30 31 1 7 31
M  V30 32 1 9 32
M  V30 33 1 9 33
M  V30 34 1 13 34
M  V30 35 1 13 35
M  V30 36 1 14 36
M  V30 37 1 14 37
M  V30 38 1 15 38
M  V30 39 1 15 39
M  V30 40 1 16 40
M  V30 41 1 16 41
M  V30 42 1 16 42
M  V30 43 1 17 43
M  V30 44 1 17 44
M  V30 45 1 18 45
M  V30 46 1 18 46
M  V30 47 1 18 47
M  V30 END BOND
M  V30 END CTAB
M  END
