
     RDKit          3D

  0  0  0  0  0  0  0  0  0  0999 V3000
M  V30 BEGIN CTAB
M  V30 COUNTS 18 17 0 0 0
M  V30 BEGIN ATOM
M  V30 1 H -1.99156 -0.63536 -1.16841 0 MASS=2
M  V30 2 C -1.76351 0.268533 -0.547716 0
M  V30 3 H -1.61172 1.165 -1.1573 0 MASS=2
M  V30 4 N -2.82013 0.541946 0.399519 0
M  V30 5 C -0.498225 -0.0529366 0.220622 0
M  V30 6 C 0.592936 -0.335478 -0.795848 0
M  V30 7 C 1.85217 -0.655236 -0.0148896 0
M  V30 8 H 2.71309 -0.869371 -0.686739 0 MASS=2
M  V30 9 H 1.71159 -1.53389 0.64649 0 MASS=2
M  V30 10 N 2.21789 0.455859 0.813371 0
M  V30 11 H -3.21253 -0.377984 0.701474 0
M  V30 12 H -2.37076 1.05572 1.20655 0
M  V30 13 H -0.166824 0.744279 0.88145 0
M  V30 14 H -0.689783 -1.02435 0.745125 0
M  V30 15 H 0.304623 -1.19087 -1.43715 0
M  V30 16 H 0.731986 0.572454 -1.38551 0
M  V30 17 H 3.24035 0.524444 0.996236 0
M  V30 18 H 1.76042 1.34724 0.58272 0
M  V30 END ATOM
M  V30 BEGIN BOND
M  V30 1 1 1 2
M  V30 2 1 2 3
M  V30 3 1 2 4
M  V30 4 1 2 5
M  V30 5 1 5 6
M  V30 6 1 6 7
M  V30 7 1 7 8
M  V30 8 1 7 9
M  V30 9 1 7 10
M  V30 10 1 4 11
M  V30 11 1 4 12
M  V30 12 1 5 13
M  V30 13 1 5 14
M  V30 14 1 6 15
M  V30 15 1 6 16
M  V30 16 1 10 17
M  V30 17 1 10 18
M  V30 END BOND
M  V30 END CTAB
M  END
