
     RDKit          3D

  0  0  0  0  0  0  0  0  0  0999 V3000
M  V30 BEGIN CTAB
M  V30 COUNTS 35 36 0 0 0
M  V30 BEGIN ATOM
M  V30 1 C 1.81815 -1.68098 -1.103 0
M  V30 2 C 2.13155 -0.70027 0.00202655 0
M  V30 3 C 2.08813 -1.36725 1.36522 0
M  V30 4 N 3.44453 -0.186152 -0.194794 0
M  V30 5 C 3.75131 1.04503 -0.324146 0
M  V30 6 N 5.09845 1.4849 -0.51944 0
M  V30 7 N 2.71624 2.0088 -0.272484 0
M  V30 8 C 1.45464 1.69334 -0.0975824 0
M  V30 9 N 0.562042 2.8128 -0.0746222 0
M  V30 10 N 1.09595 0.355442 0.0451717 0
M  V30 11 O -0.131694 -0.0776592 0.222115 0
M  V30 12 C -1.18899 0.745633 0.200263 0
M  V30 13 C -2.48807 -0.00646755 0.422301 0
M  V30 14 C -3.66747 0.723124 0.426737 0
M  V30 15 C -4.88021 0.109477 0.621592 0
M  V30 16 C -4.94442 -1.24448 0.816287 0
M  V30 17 Cl -6.48904 -2.06133 1.06935 0
M  V30 18 C -3.75723 -1.96387 0.809732 0
M  V30 19 C -2.53154 -1.35819 0.614822 0
M  V30 20 H 1.80789 -1.13998 -2.05449 0
M  V30 21 H 0.904681 -2.27621 -0.904788 0
M  V30 22 H 2.65706 -2.40424 -1.13333 0
M  V30 23 H 3.10198 -1.69536 1.70051 0
M  V30 24 H 1.4117 -2.24306 1.37917 0
M  V30 25 H 1.7386 -0.644419 2.15198 0
M  V30 26 H 5.92518 1.00183 -0.121013 0
M  V30 27 H 5.25895 2.34452 -1.0983 0
M  V30 28 H 0.165754 3.15518 -0.966872 0
M  V30 29 H 0.29268 3.30175 0.804985 0
M  V30 30 H -1.35244 1.31685 -0.745193 0
M  V30 31 H -1.15776 1.42078 1.10579 0
M  V30 32 H -3.59198 1.80242 0.269353 0
M  V30 33 H -5.78021 0.692634 0.621301 0
M  V30 34 H -3.84628 -3.03353 0.967 0
M  V30 35 H -1.61812 -1.93107 0.612471 0
M  V30 END ATOM
M  V30 BEGIN BOND
M  V30 1 1 1 2
M  V30 2 1 2 3
M  V30 3 1 2 4
M  V30 4 2 4 5
M  V30 5 1 5 6
M  V30 6 1 5 7
M  V30 7 2 7 8
M  V30 8 1 8 9
M  V30 9 1 8 10
M  V30 10 1 10 11
M  V30 11 1 11 12
M  V30 12 1 12 13
M  V30 13 2 13 14
M  V30 14 1 14 15
M  V30 15 2 15 16
M  V30 16 1 16 17
M  V30 17 1 16 18
M  V30 18 2 18 19
M  V30 19 1 10 2
M  V30 20 1 19 13
M  V30 21 1 1 20
M  V30 22 1 1 21
M  V30 23 1 1 22
M  V30 24 1 3 23
M  V30 25 1 3 24
M  V30 26 1 3 25
M  V30 27 1 6 26
M  V30 28 1 6 27
M  V30 29 1 9 28
M  V30 30 1 9 29
M  V30 31 1 12 30
M  V30 32 1 12 31
M  V30 33 1 14 32
M  V30 34 1 15 33
M  V30 35 1 18 34
M  V30 36 1 19 35
M  V30 END BOND
M  V30 END CTAB
M  END
