
     RDKit          3D

  0  0  0  0  0  0  0  0  0  0999 V3000
M  V30 BEGIN CTAB
M  V30 COUNTS 22 22 0 0 0
M  V30 BEGIN ATOM
M  V30 1 N -3.57764 -0.516288 -1.10623 0
M  V30 2 C -2.87553 0.0616303 -0.019163 0
M  V30 3 N -3.51156 0.680371 0.900951 0
M  V30 4 C -1.42716 -0.033415 0.0766882 0
M  V30 5 C -0.674793 -0.69413 -0.893061 0
M  V30 6 C 0.695067 -0.785137 -0.804336 0
M  V30 7 C 1.38271 -0.225562 0.249564 0
M  V30 8 C 0.664477 0.437441 1.22913 0
M  V30 9 C -0.709445 0.515036 1.11732 0
M  V30 10 S 3.11893 -0.317816 0.400468 0
M  V30 11 N 3.79118 1.06177 -0.397963 0
M  V30 12 O 3.6122 -1.58007 -0.226506 0
M  V30 13 O 3.52398 -0.333191 1.84973 0
M  V30 14 H -3.17895 -0.59502 -2.06855 0
M  V30 15 H -4.55848 -0.90714 -1.00797 0
M  V30 16 H -4.53808 0.808335 0.934051 0
M  V30 17 H -1.22959 -1.13432 -1.72454 0
M  V30 18 H 1.26581 -1.29886 -1.56083 0
M  V30 19 H 1.2075 0.875307 2.05467 0
M  V30 20 H -1.2794 1.03196 1.8793 0
M  V30 21 H 3.45968 1.90645 0.131732 0
M  V30 22 H 4.83911 1.04264 -0.263205 0
M  V30 END ATOM
M  V30 BEGIN BOND
M  V30 1 1 1 2
M  V30 2 2 2 3 CFG=2
M  V30 3 1 2 4
M  V30 4 2 4 5
M  V30 5 1 5 6
M  V30 6 2 6 7
M  V30 7 1 7 8
M  V30 8 2 8 9
M  V30 9 1 7 10
M  V30 10 1 10 11
M  V30 11 2 10 12
M  V30 12 2 10 13
M  V30 13 1 9 4
M  V30 14 1 1 14
M  V30 15 1 1 15
M  V30 16 1 3 16
M  V30 17 1 5 17
M  V30 18 1 6 18
M  V30 19 1 8 19
M  V30 20 1 9 20
M  V30 21 1 11 21
M  V30 22 1 11 22
M  V30 END BOND
M  V30 END CTAB
M  END
