
     RDKit          3D

  0  0  0  0  0  0  0  0  0  0999 V3000
M  V30 BEGIN CTAB
M  V30 COUNTS 22 22 0 0 0
M  V30 BEGIN ATOM
M  V30 1 O -3.87591 0.716842 0.690879 0
M  V30 2 C -2.51293 0.392971 0.758455 0
M  V30 3 O -2.04241 0.0556275 1.87749 0
M  V30 4 C -1.72416 0.469156 -0.48458 0
M  V30 5 C -0.299594 0.095387 -0.283566 0
M  V30 6 C 0.0622972 -1.22955 -0.160947 0
M  V30 7 N -0.884007 -2.29796 -0.226597 0
M  V30 8 C 1.40429 -1.54341 0.0287626 0
M  V30 9 C 2.39328 -0.582254 0.100216 0
M  V30 10 C 2.02442 0.745742 -0.0235402 0
M  V30 11 C 0.696479 1.07329 -0.212667 0
M  V30 12 F 0.337651 2.35845 -0.334115 0
M  V30 13 N 3.05466 1.70589 0.0533908 0
M  V30 14 H -4.2044 1.48435 0.0905074 0
M  V30 15 H -1.81224 1.52217 -0.869773 0
M  V30 16 H -2.18939 -0.159198 -1.29892 0
M  V30 17 H -1.76952 -2.33405 0.287792 0
M  V30 18 H -0.677286 -3.12955 -0.850837 0
M  V30 19 H 1.71416 -2.58756 0.126994 0
M  V30 20 H 3.44682 -0.865499 0.25243 0
M  V30 21 H 3.76802 1.75234 -0.686202 0
M  V30 22 H 3.08979 2.35682 0.850514 0
M  V30 END ATOM
M  V30 BEGIN BOND
M  V30 1 1 1 2
M  V30 2 2 2 3
M  V30 3 1 2 4
M  V30 4 1 4 5
M  V30 5 2 5 6
M  V30 6 1 6 7
M  V30 7 1 6 8
M  V30 8 2 8 9
M  V30 9 1 9 10
M  V30 10 2 10 11
M  V30 11 1 11 12
M  V30 12 1 10 13
M  V30 13 1 11 5
M  V30 14 1 1 14
M  V30 15 1 4 15
M  V30 16 1 4 16
M  V30 17 1 7 17
M  V30 18 1 7 18
M  V30 19 1 8 19
M  V30 20 1 9 20
M  V30 21 1 13 21
M  V30 22 1 13 22
M  V30 END BOND
M  V30 END CTAB
M  END
