
     RDKit          3D

  0  0  0  0  0  0  0  0  0  0999 V3000
M  V30 BEGIN CTAB
M  V30 COUNTS 38 40 0 0 0
M  V30 BEGIN ATOM
M  V30 1 N 4.5766 -0.272037 1.63457 0
M  V30 2 C 3.83742 0.0302267 0.45351 0
M  V30 3 C 4.5238 0.415902 -0.667962 0
M  V30 4 C 3.85774 0.719916 -1.83751 0
M  V30 5 C 2.47568 0.627062 -1.85535 0
M  V30 6 C 1.76494 0.243359 -0.746203 0
M  V30 7 C 2.45991 -0.0501291 0.395144 0
M  V30 8 C 0.275495 0.153267 -0.79866 0 CFG=1
M  V30 9 C -0.115053 -1.24839 -0.511466 0
M  V30 10 C -1.31696 -1.4602 0.282215 0
M  V30 11 C -1.69866 -2.74364 0.680908 0
M  V30 12 C -2.82341 -2.87231 1.42736 0
M  V30 13 C -3.60047 -1.80117 1.80738 0
M  V30 14 C -3.24948 -0.521848 1.42931 0
M  V30 15 C -2.09752 -0.380679 0.662756 0
M  V30 16 N -1.73494 0.934168 0.266137 0
M  V30 17 C -0.281465 1.18157 0.146708 0
M  V30 18 S -2.87798 2.14523 -0.095211 0
M  V30 19 O -4.29616 1.74445 -0.0702204 0
M  V30 20 O -2.6044 3.43848 0.608533 0
M  V30 21 N -2.59519 2.47884 -1.81261 0
M  V30 22 H 5.34606 -0.967088 1.60423 0
M  V30 23 H 4.33492 0.208172 2.51139 0
M  V30 24 H 5.61643 0.494927 -0.672558 0
M  V30 25 H 4.36953 1.02593 -2.73512 0
M  V30 26 H 1.96669 0.869012 -2.78105 0
M  V30 27 H 1.90391 -0.354332 1.27628 0
M  V30 28 H -0.0572603 0.437577 -1.82485 0
M  V30 29 H -0.226448 -1.77262 -1.49958 0
M  V30 30 H 0.731607 -1.7978 0.00271258 0
M  V30 31 H -1.05031 -3.54409 0.353219 0
M  V30 32 H -3.11584 -3.87293 1.73456 0
M  V30 33 H -4.49366 -1.90803 2.40086 0
M  V30 34 H -3.82549 0.35087 1.71559 0
M  V30 35 H 0.204528 1.06643 1.13416 0
M  V30 36 H -0.0732593 2.17991 -0.245648 0
M  V30 37 H -2.87362 1.5907 -2.28812 0
M  V30 38 H -3.23768 3.23129 -2.0854 0
M  V30 END ATOM
M  V30 BEGIN BOND
M  V30 1 1 1 2
M  V30 2 2 2 3
M  V30 3 1 3 4
M  V30 4 2 4 5
M  V30 5 1 5 6
M  V30 6 2 6 7
M  V30 7 1 6 8
M  V30 8 1 8 9
M  V30 9 1 9 10
M  V30 10 2 10 11
M  V30 11 1 11 12
M  V30 12 2 12 13
M  V30 13 1 13 14
M  V30 14 2 14 15
M  V30 15 1 15 16
M  V30 16 1 16 17
M  V30 17 1 16 18
M  V30 18 2 18 19
M  V30 19 2 18 20
M  V30 20 1 18 21
M  V30 21 1 7 2
M  V30 22 1 17 8
M  V30 23 1 15 10
M  V30 24 1 1 22
M  V30 25 1 1 23
M  V30 26 1 3 24
M  V30 27 1 4 25
M  V30 28 1 5 26
M  V30 29 1 7 27
M  V30 30 1 8 28 CFG=3
M  V30 31 1 9 29
M  V30 32 1 9 30
M  V30 33 1 11 31
M  V30 34 1 12 32
M  V30 35 1 13 33
M  V30 36 1 14 34
M  V30 37 1 17 35
M  V30 38 1 17 36
M  V30 39 1 21 37
M  V30 40 1 21 38
M  V30 END BOND
M  V30 END CTAB
M  END
