
     RDKit          3D

  0  0  0  0  0  0  0  0  0  0999 V3000
M  V30 BEGIN CTAB
M  V30 COUNTS 25 25 0 0 0
M  V30 BEGIN ATOM
M  V30 1 N 4.16446 0.108757 -0.216638 0
M  V30 2 S 2.93952 0.498642 -1.36669 0
M  V30 3 O 2.90455 -0.57487 -2.41754 0
M  V30 4 O 3.18124 1.84616 -1.94478 0
M  V30 5 C 1.37303 0.520176 -0.560888 0
M  V30 6 C 0.589561 -0.603167 -0.478931 0
M  V30 7 C -0.646232 -0.577053 0.16111 0
M  V30 8 C -1.04444 0.607188 0.702119 0
M  V30 9 C -0.233784 1.73584 0.607428 0
M  V30 10 C 0.979004 1.72557 -0.0167324 0
M  V30 11 C -2.29071 0.731539 1.39789 0
M  V30 12 O -2.70129 1.97542 1.85562 0
M  V30 13 O -3.04022 -0.218316 1.62121 0
M  V30 14 S -1.5429 -2.05108 0.177707 0
M  V30 15 N -3.05106 -1.98923 -0.619275 0
M  V30 16 O -1.73837 -2.63662 1.55899 0
M  V30 17 O -0.75244 -3.14223 -0.560318 0
M  V30 18 H 3.7914 -0.560998 0.509515 0
M  V30 19 H 4.55386 0.959513 0.258666 0
M  V30 20 H 0.947355 -1.52211 -0.922925 0
M  V30 21 H -0.59041 2.64637 1.04899 0
M  V30 22 H 1.58657 2.61609 -0.0750537 0
M  V30 23 H -2.77795 2.7636 1.23014 0
M  V30 24 H -3.71368 -2.73133 -0.310103 0
M  V30 25 H -2.88704 -2.12786 -1.63951 0
M  V30 END ATOM
M  V30 BEGIN BOND
M  V30 1 1 1 2
M  V30 2 2 2 3
M  V30 3 2 2 4
M  V30 4 1 2 5
M  V30 5 2 5 6
M  V30 6 1 6 7
M  V30 7 2 7 8
M  V30 8 1 8 9
M  V30 9 2 9 10
M  V30 10 1 8 11
M  V30 11 1 11 12
M  V30 12 2 11 13
M  V30 13 1 7 14
M  V30 14 1 14 15
M  V30 15 2 14 16
M  V30 16 2 14 17
M  V30 17 1 10 5
M  V30 18 1 1 18
M  V30 19 1 1 19
M  V30 20 1 6 20
M  V30 21 1 9 21
M  V30 22 1 10 22
M  V30 23 1 12 23
M  V30 24 1 15 24
M  V30 25 1 15 25
M  V30 END BOND
M  V30 END CTAB
M  END
