
     RDKit          3D

  0  0  0  0  0  0  0  0  0  0999 V3000
M  V30 BEGIN CTAB
M  V30 COUNTS 56 59 0 0 0
M  V30 BEGIN ATOM
M  V30 1 C -3.20176 1.86015 -0.746054 0
M  V30 2 C -3.40026 1.45428 0.722516 0
M  V30 3 N -2.96067 0.130471 0.943058 0
M  V30 4 C -1.67177 -0.17575 1.28584 0
M  V30 5 N -1.57144 -1.50136 1.43206 0
M  V30 6 N -2.74408 -1.98553 1.19025 0
M  V30 7 C -3.65568 -1.01579 0.878761 0
M  V30 8 C -5.046 -1.29043 0.565825 0 CFG=2
M  V30 9 C -5.61092 -0.974367 -0.778466 0
M  V30 10 C -6.62577 -0.0691916 -0.096324 0 CFG=2
M  V30 11 C -6.13391 -0.557343 1.27119 0
M  V30 12 N -8.00673 -0.336108 -0.378838 0
M  V30 13 C -0.58077 0.796527 1.47467 0
M  V30 14 N 0.725556 0.195488 1.36698 0
M  V30 15 C 1.7617 1.17709 1.62311 0
M  V30 16 C 2.89325 1.18338 0.656314 0
M  V30 17 N 3.32609 -0.133341 0.265894 0
M  V30 18 C 2.32583 -1.18434 0.288803 0
M  V30 19 C 0.998443 -0.425339 0.110943 0
M  V30 20 C 4.63915 -0.420212 -0.129861 0
M  V30 21 C 5.58199 0.566536 -0.261964 0
M  V30 22 C 6.87597 0.298472 -0.64634 0
M  V30 23 C 7.84494 1.44544 -0.765862 0
M  V30 24 N 7.23206 -0.952176 -0.899502 0
M  V30 25 C 6.32512 -1.93585 -0.77679 0
M  V30 26 N 5.06115 -1.68164 -0.40226 0
M  V30 27 N 6.7056 -3.29609 -1.05035 0
M  V30 28 H -4.18746 1.79222 -1.26846 0
M  V30 29 H -2.54239 1.11472 -1.23438 0
M  V30 30 H -2.85199 2.89111 -0.850367 0
M  V30 31 H -2.69434 2.157 1.27126 0
M  V30 32 H -4.38018 1.75521 1.07026 0
M  V30 33 H -5.26014 -2.40153 0.723359 0
M  V30 34 H -4.9866 -0.542778 -1.54754 0
M  V30 35 H -6.21487 -1.79753 -1.27568 0
M  V30 36 H -6.38138 1.028 -0.173741 0
M  V30 37 H -6.96667 -1.19035 1.71024 0
M  V30 38 H -5.89226 0.203297 2.00313 0
M  V30 39 H -8.53978 0.491354 -0.704416 0
M  V30 40 H -8.15387 -1.12321 -1.03968 0
M  V30 41 H -0.629441 1.60331 0.69597 0
M  V30 42 H -0.654436 1.22901 2.49961 0
M  V30 43 H 2.15987 1.03903 2.65826 0
M  V30 44 H 1.27694 2.19367 1.57168 0
M  V30 45 H 3.76492 1.65453 1.18491 0
M  V30 46 H 2.71107 1.83331 -0.228216 0
M  V30 47 H 2.44222 -1.92438 -0.498992 0
M  V30 48 H 2.29623 -1.62121 1.31146 0
M  V30 49 H 0.271361 -1.12084 -0.281299 0
M  V30 50 H 1.16104 0.377032 -0.638598 0
M  V30 51 H 5.33249 1.58582 -0.0692356 0
M  V30 52 H 7.44767 2.08769 -1.56302 0
M  V30 53 H 8.852 1.07458 -0.961033 0
M  V30 54 H 7.82053 2.0201 0.180448 0
M  V30 55 H 7.48867 -3.46829 -1.69278 0
M  V30 56 H 6.22371 -4.11383 -0.626944 0
M  V30 END ATOM
M  V30 BEGIN BOND
M  V30 1 1 1 2
M  V30 2 1 2 3
M  V30 3 1 3 4
M  V30 4 2 4 5
M  V30 5 1 5 6
M  V30 6 2 6 7
M  V30 7 1 7 8
M  V30 8 1 8 9
M  V30 9 1 9 10
M  V30 10 1 10 11
M  V30 11 1 10 12
M  V30 12 1 4 13
M  V30 13 1 13 14
M  V30 14 1 14 15
M  V30 15 1 15 16
M  V30 16 1 16 17
M  V30 17 1 17 18
M  V30 18 1 18 19
M  V30 19 1 17 20
M  V30 20 2 20 21
M  V30 21 1 21 22
M  V30 22 1 22 23
M  V30 23 2 22 24
M  V30 24 1 24 25
M  V30 25 2 25 26
M  V30 26 1 25 27
M  V30 27 1 7 3
M  V30 28 1 11 8
M  V30 29 1 19 14
M  V30 30 1 26 20
M  V30 31 1 1 28
M  V30 32 1 1 29
M  V30 33 1 1 30
M  V30 34 1 2 31
M  V30 35 1 2 32
M  V30 36 1 8 33 CFG=1
M  V30 37 1 9 34
M  V30 38 1 9 35
M  V30 39 1 10 36 CFG=1
M  V30 40 1 11 37
M  V30 41 1 11 38
M  V30 42 1 12 39
M  V30 43 1 12 40
M  V30 44 1 13 41
M  V30 45 1 13 42
M  V30 46 1 15 43
M  V30 47 1 15 44
M  V30 48 1 16 45
M  V30 49 1 16 46
M  V30 50 1 18 47
M  V30 51 1 18 48
M  V30 52 1 19 49
M  V30 53 1 19 50
M  V30 54 1 21 51
M  V30 55 1 23 52
M  V30 56 1 23 53
M  V30 57 1 23 54
M  V30 58 1 27 55
M  V30 59 1 27 56
M  V30 END BOND
M  V30 END CTAB
M  END
