
     RDKit          3D

  0  0  0  0  0  0  0  0  0  0999 V3000
M  V30 BEGIN CTAB
M  V30 COUNTS 24 24 0 0 0
M  V30 BEGIN ATOM
M  V30 1 N 4.59752 -0.493398 0.202201 0
M  V30 2 C 3.1819 -0.494329 0.186293 0
M  V30 3 S 2.39335 -1.68411 0.963152 0
M  V30 4 C 2.46911 0.571922 -0.526431 0
M  V30 5 C 1.00972 0.448887 -0.462375 0
M  V30 6 C 0.262364 -0.249488 -1.38905 0
M  V30 7 C -1.122 -0.350952 -1.30522 0
M  V30 8 C -1.78024 0.260624 -0.268929 0
M  V30 9 C -1.05622 0.959277 0.662156 0
M  V30 10 C 0.335788 1.05563 0.569296 0
M  V30 11 S -3.53367 0.182339 -0.0868707 0
M  V30 12 O -4.16954 0.0400347 -1.4371 0
M  V30 13 O -4.03489 1.4014 0.606969 0
M  V30 14 N -3.87316 -1.21041 0.871412 0
M  V30 15 H 5.07714 -0.445941 1.12939 0
M  V30 16 H 5.18566 -0.5377 -0.664895 0
M  V30 17 H 2.78627 0.537527 -1.60408 0
M  V30 18 H 2.74669 1.58476 -0.164179 0
M  V30 19 H 0.775257 -0.728392 -2.20007 0
M  V30 20 H -1.70164 -0.892624 -2.02398 0
M  V30 21 H -1.59227 1.44021 1.4802 0
M  V30 22 H 0.826634 1.62466 1.34457 0
M  V30 23 H -4.68526 -0.974301 1.48055 0
M  V30 24 H -4.09851 -2.04562 0.268417 0
M  V30 END ATOM
M  V30 BEGIN BOND
M  V30 1 1 1 2
M  V30 2 2 2 3
M  V30 3 1 2 4
M  V30 4 1 4 5
M  V30 5 2 5 6
M  V30 6 1 6 7
M  V30 7 2 7 8
M  V30 8 1 8 9
M  V30 9 2 9 10
M  V30 10 1 8 11
M  V30 11 2 11 12
M  V30 12 2 11 13
M  V30 13 1 11 14
M  V30 14 1 10 5
M  V30 15 1 1 15
M  V30 16 1 1 16
M  V30 17 1 4 17
M  V30 18 1 4 18
M  V30 19 1 6 19
M  V30 20 1 7 20
M  V30 21 1 9 21
M  V30 22 1 10 22
M  V30 23 1 14 23
M  V30 24 1 14 24
M  V30 END BOND
M  V30 END CTAB
M  END
