
     RDKit          3D

  0  0  0  0  0  0  0  0  0  0999 V3000
M  V30 BEGIN CTAB
M  V30 COUNTS 66 71 0 0 0
M  V30 BEGIN ATOM
M  V30 1 N -10.084 -0.762222 1.12029 0
M  V30 2 C -9.10641 -0.641542 0.106859 0
M  V30 3 N -9.50365 -0.381054 -1.16151 0
M  V30 4 C -8.55568 -0.268635 -2.11397 0
M  V30 5 N -7.27139 -0.409501 -1.81519 0
M  V30 6 C -6.80474 -0.669125 -0.576873 0
M  V30 7 C -7.77365 -0.789518 0.426287 0
M  V30 8 N -7.14238 -1.0425 1.57082 0
M  V30 9 C -5.81167 -1.08178 1.30377 0
M  V30 10 N -5.61226 -0.854178 -0.00340907 0
M  V30 11 C -4.34765 -0.805541 -0.722339 0 CFG=1
M  V30 12 O -3.53919 0.218027 -0.251912 0
M  V30 13 C -2.25682 -0.230693 -0.544585 0 CFG=1
M  V30 14 C -1.18409 0.620848 0.0972135 0
M  V30 15 O -1.24974 1.94285 -0.332773 0
M  V30 16 P -0.0204354 2.81035 0.438704 0
M  V30 17 O -0.508865 4.4545 0.382745 0
M  V30 18 O 0.0718546 2.47475 1.90276 0
M  V30 19 O 1.37496 2.66878 -0.404929 0
M  V30 20 C 2.37056 1.89917 0.136265 0 CFG=2
M  V30 21 C 3.62463 2.62509 0.480942 0 CFG=1
M  V30 22 C 3.92219 2.55483 1.98628 0
M  V30 23 O 5.10945 3.25182 2.25891 0
M  V30 24 O 4.69402 2.03893 -0.151574 0
M  V30 25 C 4.28996 0.978048 -0.905718 0 CFG=2
M  V30 26 C 2.80991 0.763238 -0.718501 0 CFG=2
M  V30 27 O 2.11228 0.756583 -1.9405 0
M  V30 28 N 5.04955 -0.224228 -0.744541 0
M  V30 29 C 4.62276 -1.46581 -1.00545 0
M  V30 30 N 5.60063 -2.34062 -0.73866 0
M  V30 31 C 6.70002 -1.67695 -0.292177 0
M  V30 32 C 6.31936 -0.331868 -0.306675 0
M  V30 33 N 7.19082 0.623633 0.0848058 0
M  V30 34 C 8.40632 0.248832 0.479333 0
M  V30 35 N 8.80335 -1.04731 0.503955 0
M  V30 36 C 7.95958 -2.02454 0.120041 0
M  V30 37 N 8.31928 -3.39462 0.125678 0
M  V30 38 C -2.31294 -1.61317 0.0982566 0 CFG=2
M  V30 39 O -1.25073 -2.41144 -0.240132 0
M  V30 40 C -3.61793 -2.11382 -0.53753 0 CFG=2
M  V30 41 O -3.28605 -2.60103 -1.80024 0
M  V30 42 H -10.448 0.0832434 1.58771 0
M  V30 43 H -10.4367 -1.69249 1.39562 0
M  V30 44 H -8.87055 -0.0585208 -3.14118 0
M  V30 45 H -5.04909 -1.27168 2.06016 0
M  V30 46 H -4.51589 -0.58476 -1.80575 0
M  V30 47 H -2.1674 -0.339483 -1.62437 0
M  V30 48 H -0.21833 0.145792 -0.164935 0
M  V30 49 H -1.28715 0.527786 1.19324 0
M  V30 50 H -0.604387 4.66489 -0.579166 0
M  V30 51 H 1.96421 1.47661 1.09076 0
M  V30 52 H 3.54802 3.73382 0.276426 0
M  V30 53 H 3.09105 3.03858 2.50488 0
M  V30 54 H 4.10664 1.50302 2.30124 0
M  V30 55 H 5.23343 3.32346 3.23422 0
M  V30 56 H 4.41575 1.28175 -1.98748 0
M  V30 57 H 2.60757 -0.250461 -0.266278 0
M  V30 58 H 2.70409 0.96489 -2.69105 0
M  V30 59 H 3.65109 -1.73067 -1.37153 0
M  V30 60 H 9.145 0.976828 0.804373 0
M  V30 61 H 8.28691 -3.95662 1.0018 0
M  V30 62 H 8.62506 -3.87296 -0.747662 0
M  V30 63 H -2.49453 -1.50737 1.17578 0
M  V30 64 H -1.58822 -3.34165 -0.320706 0
M  V30 65 H -4.15464 -2.82259 0.0930483 0
M  V30 66 H -3.65513 -2.03999 -2.52693 0
M  V30 END ATOM
M  V30 BEGIN BOND
M  V30 1 1 1 2
M  V30 2 2 2 3
M  V30 3 1 3 4
M  V30 4 2 4 5
M  V30 5 1 5 6
M  V30 6 2 6 7
M  V30 7 1 7 8
M  V30 8 2 8 9
M  V30 9 1 9 10
M  V30 10 1 10 11
M  V30 11 1 11 12
M  V30 12 1 12 13
M  V30 13 1 13 14
M  V30 14 1 14 15
M  V30 15 1 15 16
M  V30 16 1 16 17
M  V30 17 2 16 18
M  V30 18 1 16 19
M  V30 19 1 19 20
M  V30 20 1 20 21
M  V30 21 1 21 22
M  V30 22 1 22 23
M  V30 23 1 21 24
M  V30 24 1 24 25
M  V30 25 1 25 26
M  V30 26 1 26 27
M  V30 27 1 25 28
M  V30 28 1 28 29
M  V30 29 2 29 30
M  V30 30 1 30 31
M  V30 31 2 31 32
M  V30 32 1 32 33
M  V30 33 2 33 34
M  V30 34 1 34 35
M  V30 35 2 35 36
M  V30 36 1 36 37
M  V30 37 1 13 38
M  V30 38 1 38 39
M  V30 39 1 38 40
M  V30 40 1 40 41
M  V30 41 1 7 2
M  V30 42 1 40 11
M  V30 43 1 10 6
M  V30 44 1 26 20
M  V30 45 1 32 28
M  V30 46 1 36 31
M  V30 47 1 1 42
M  V30 48 1 1 43
M  V30 49 1 4 44
M  V30 50 1 9 45
M  V30 51 1 11 46 CFG=3
M  V30 52 1 13 47 CFG=3
M  V30 53 1 14 48
M  V30 54 1 14 49
M  V30 55 1 17 50
M  V30 56 1 20 51 CFG=1
M  V30 57 1 21 52 CFG=3
M  V30 58 1 22 53
M  V30 59 1 22 54
M  V30 60 1 23 55
M  V30 61 1 25 56 CFG=3
M  V30 62 1 26 57 CFG=1
M  V30 63 1 27 58
M  V30 64 1 29 59
M  V30 65 1 34 60
M  V30 66 1 37 61
M  V30 67 1 37 62
M  V30 68 1 38 63 CFG=1
M  V30 69 1 39 64
M  V30 70 1 40 65 CFG=1
M  V30 71 1 41 66
M  V30 END BOND
M  V30 END CTAB
M  END
