
     RDKit          3D

  0  0  0  0  0  0  0  0  0  0999 V3000
M  V30 BEGIN CTAB
M  V30 COUNTS 52 54 0 0 0
M  V30 BEGIN ATOM
M  V30 1 O -3.74542 -0.0256706 3.10537 0
M  V30 2 C -4.09537 -0.914075 2.09631 0
M  V30 3 C -3.92089 -0.200695 0.761398 0 CFG=1
M  V30 4 O -2.61327 0.176331 0.642847 0
M  V30 5 C -2.21144 0.510217 -0.63232 0
M  V30 6 O -1.35733 1.57202 -0.557766 0
M  V30 7 C -0.0947205 1.36516 -1.0165 0
M  V30 8 C 0.681888 0.291552 -0.326842 0
M  V30 9 O 1.92981 0.196236 -0.892169 0
M  V30 10 C 2.8861 0.387983 0.0742096 0
M  V30 11 C 2.24499 -0.138578 1.31485 0
M  V30 12 C 0.865037 0.527886 1.14836 0
M  V30 13 O 1.053 1.85024 1.48167 0
M  V30 14 O 2.85135 0.270768 2.48793 0
M  V30 15 N 4.15989 -0.176307 -0.231171 0
M  V30 16 C 5.19163 0.0650287 0.598639 0
M  V30 17 C 6.46189 -0.46237 0.348437 0
M  V30 18 C 6.6159 -1.23547 -0.775805 0
M  V30 19 N 5.5668 -1.47518 -1.61087 0
M  V30 20 C 4.36711 -0.940999 -1.31889 0
M  V30 21 O 3.35272 -1.13088 -2.06172 0
M  V30 22 N 7.90454 -1.77656 -1.03903 0
M  V30 23 C -3.35936 0.859001 -1.55217 0 CFG=1
M  V30 24 C -4.38722 -0.238806 -1.62339 0 CFG=2
M  V30 25 C -4.28432 -1.11567 -0.388037 0 CFG=2
M  V30 26 O -5.47244 -1.79135 -0.122788 0
M  V30 27 O -4.20854 -1.07479 -2.72625 0
M  V30 28 N -3.92804 2.1499 -1.28447 0
M  V30 29 H -3.9336 0.891319 2.76694 0
M  V30 30 H -5.18224 -1.15731 2.22383 0
M  V30 31 H -3.54917 -1.85711 2.14182 0
M  V30 32 H -4.57992 0.681727 0.758567 0
M  V30 33 H -1.74411 -0.417835 -1.07463 0
M  V30 34 H 0.468113 2.33349 -0.8954 0
M  V30 35 H -0.0638395 1.15499 -2.10551 0
M  V30 36 H 0.170195 -0.692757 -0.431866 0
M  V30 37 H 2.9949 1.50137 0.208751 0
M  V30 38 H 2.063 -1.20924 1.32387 0
M  V30 39 H 0.117466 0.00748045 1.77349 0
M  V30 40 H 0.227333 2.32464 1.74089 0
M  V30 41 H 2.80575 1.25133 2.59708 0
M  V30 42 H 5.06408 0.674652 1.48242 0
M  V30 43 H 7.27855 -0.258938 1.02452 0
M  V30 44 H 8.24074 -2.01354 -2.01329 0
M  V30 45 H 8.58134 -1.96499 -0.270452 0
M  V30 46 H -2.90711 0.923565 -2.58591 0
M  V30 47 H -5.43742 0.167677 -1.6508 0
M  V30 48 H -3.49364 -1.87099 -0.558569 0
M  V30 49 H -6.21668 -1.37314 -0.589053 0
M  V30 50 H -5.06226 -1.48333 -3.01954 0
M  V30 51 H -3.35909 2.70518 -0.621475 0
M  V30 52 H -4.93671 2.15686 -1.0995 0
M  V30 END ATOM
M  V30 BEGIN BOND
M  V30 1 1 1 2
M  V30 2 1 2 3
M  V30 3 1 3 4
M  V30 4 1 4 5
M  V30 5 1 5 6
M  V30 6 1 6 7
M  V30 7 1 7 8
M  V30 8 1 8 9
M  V30 9 1 9 10
M  V30 10 1 10 11
M  V30 11 1 11 12
M  V30 12 1 12 13
M  V30 13 1 11 14
M  V30 14 1 10 15
M  V30 15 1 15 16
M  V30 16 2 16 17
M  V30 17 1 17 18
M  V30 18 2 18 19
M  V30 19 1 19 20
M  V30 20 2 20 21
M  V30 21 1 18 22
M  V30 22 1 5 23
M  V30 23 1 23 24
M  V30 24 1 24 25
M  V30 25 1 25 26
M  V30 26 1 24 27
M  V30 27 1 23 28
M  V30 28 1 25 3
M  V30 29 1 12 8
M  V30 30 1 20 15
M  V30 31 1 1 29
M  V30 32 1 2 30
M  V30 33 1 2 31
M  V30 34 1 3 32 CFG=1
M  V30 35 1 5 33
M  V30 36 1 7 34
M  V30 37 1 7 35
M  V30 38 1 8 36
M  V30 39 1 10 37
M  V30 40 1 11 38
M  V30 41 1 12 39
M  V30 42 1 13 40
M  V30 43 1 14 41
M  V30 44 1 16 42
M  V30 45 1 17 43
M  V30 46 1 22 44
M  V30 47 1 22 45
M  V30 48 1 23 46 CFG=3
M  V30 49 1 24 47 CFG=3
M  V30 50 1 25 48 CFG=3
M  V30 51 1 26 49
M  V30 52 1 27 50
M  V30 53 1 28 51
M  V30 54 1 28 52
M  V30 END BOND
M  V30 END CTAB
M  END
