
     RDKit          3D

  0  0  0  0  0  0  0  0  0  0999 V3000
M  V30 BEGIN CTAB
M  V30 COUNTS 39 40 0 0 0
M  V30 BEGIN ATOM
M  V30 1 C -2.33578 1.84073 0.435548 0
M  V30 2 C -3.15684 0.586874 0.646866 0
M  V30 3 C -2.43891 -0.645583 0.141205 0
M  V30 4 C -2.12811 -0.592318 -1.31198 0
M  V30 5 C -0.974037 -1.43038 -1.74052 0
M  V30 6 C 0.130545 -1.52104 -0.730356 0
M  V30 7 N -0.0722966 -0.460539 0.238516 0
M  V30 8 C -1.22899 -0.855705 1.02314 0
M  V30 9 S 1.26067 -0.315949 1.31982 0
M  V30 10 O 1.39038 -1.65995 2.02176 0
M  V30 11 O 0.88796 0.671133 2.39008 0
M  V30 12 C 2.7325 0.0777654 0.526675 0
M  V30 13 C 3.8336 -0.743012 0.588694 0
M  V30 14 C 5.01036 -0.419184 -0.0506593 0
M  V30 15 Cl 6.41588 -1.46159 0.0254388 0
M  V30 16 C 5.10786 0.747663 -0.773436 0
M  V30 17 N 4.03379 1.54607 -0.832627 0
M  V30 18 C 2.87164 1.23205 -0.204613 0
M  V30 19 N 1.77432 2.1201 -0.307625 0
M  V30 20 N -4.46162 0.717951 0.00878546 0
M  V30 21 H -2.3588 2.19096 -0.614613 0
M  V30 22 H -2.84025 2.6372 1.05837 0
M  V30 23 H -1.34195 1.71298 0.857754 0
M  V30 24 H -3.35049 0.518451 1.73665 0
M  V30 25 H -3.14134 -1.50408 0.352754 0
M  V30 26 H -3.03745 -0.981063 -1.85942 0
M  V30 27 H -1.98116 0.433222 -1.70495 0
M  V30 28 H -1.32756 -2.45597 -2.05037 0
M  V30 29 H -0.531029 -0.998222 -2.66997 0
M  V30 30 H 0.00108769 -2.47764 -0.175231 0
M  V30 31 H 1.13812 -1.52749 -1.1634 0
M  V30 32 H -1.30314 -0.242739 1.96472 0
M  V30 33 H -1.1292 -1.93975 1.267 0
M  V30 34 H 3.75114 -1.67584 1.16823 0
M  V30 35 H 6.03581 1.02686 -1.2916 0
M  V30 36 H 0.924374 1.95511 -0.863909 0
M  V30 37 H 1.83226 3.01558 0.224312 0
M  V30 38 H -5.16997 1.07785 0.687408 0
M  V30 39 H -4.82339 -0.200506 -0.338436 0
M  V30 END ATOM
M  V30 BEGIN BOND
M  V30 1 1 1 2
M  V30 2 1 2 3
M  V30 3 1 3 4
M  V30 4 1 4 5
M  V30 5 1 5 6
M  V30 6 1 6 7
M  V30 7 1 7 8
M  V30 8 1 7 9
M  V30 9 2 9 10
M  V30 10 2 9 11
M  V30 11 1 9 12
M  V30 12 2 12 13
M  V30 13 1 13 14
M  V30 14 1 14 15
M  V30 15 2 14 16
M  V30 16 1 16 17
M  V30 17 2 17 18
M  V30 18 1 18 19
M  V30 19 1 2 20
M  V30 20 1 8 3
M  V30 21 1 18 12
M  V30 22 1 1 21
M  V30 23 1 1 22
M  V30 24 1 1 23
M  V30 25 1 2 24
M  V30 26 1 3 25
M  V30 27 1 4 26
M  V30 28 1 4 27
M  V30 29 1 5 28
M  V30 30 1 5 29
M  V30 31 1 6 30
M  V30 32 1 6 31
M  V30 33 1 8 32
M  V30 34 1 8 33
M  V30 35 1 13 34
M  V30 36 1 16 35
M  V30 37 1 19 36
M  V30 38 1 19 37
M  V30 39 1 20 38
M  V30 40 1 20 39
M  V30 END BOND
M  V30 END CTAB
M  END
