
     RDKit          3D

  0  0  0  0  0  0  0  0  0  0999 V3000
M  V30 BEGIN CTAB
M  V30 COUNTS 24 24 0 0 0
M  V30 BEGIN ATOM
M  V30 1 N 5.35668 -0.727953 -0.210546 0
M  V30 2 N 4.00497 -0.514085 -0.357916 0
M  V30 3 C 3.36391 0.624066 0.138985 0
M  V30 4 O 4.08372 1.49975 0.74802 0
M  V30 5 C 1.91774 0.929179 0.0319151 0
M  V30 6 S 1.01823 -0.535694 0.552958 0
M  V30 7 C -0.753716 -0.363898 0.447834 0
M  V30 8 C -1.41622 -0.760159 -0.720202 0
M  V30 9 C -2.7765 -0.653483 -0.857587 0
M  V30 10 C -3.57974 -0.138679 0.167881 0
M  V30 11 C -2.91156 0.245221 1.31004 0
M  V30 12 C -1.54401 0.136256 1.44779 0
M  V30 13 Cl -3.89999 0.892367 2.6307 0
M  V30 14 N -4.99186 -0.0287385 0.0256388 0
M  V30 15 H 5.83203 -0.392347 -1.06855 0
M  V30 16 H 5.74545 -0.193501 0.612445 0
M  V30 17 H 3.47278 -1.26965 -0.879722 0
M  V30 18 H 1.63746 1.0966 -1.04874 0
M  V30 19 H 1.691 1.8225 0.64848 0
M  V30 20 H -0.799957 -1.1532 -1.51134 0
M  V30 21 H -3.30416 -0.948244 -1.74518 0
M  V30 22 H -1.04994 0.440161 2.35433 0
M  V30 23 H -5.45642 0.809924 -0.367794 0
M  V30 24 H -5.6399 -0.816392 0.324909 0
M  V30 END ATOM
M  V30 BEGIN BOND
M  V30 1 1 1 2
M  V30 2 1 2 3
M  V30 3 2 3 4
M  V30 4 1 3 5
M  V30 5 1 5 6
M  V30 6 1 6 7
M  V30 7 2 7 8
M  V30 8 1 8 9
M  V30 9 2 9 10
M  V30 10 1 10 11
M  V30 11 2 11 12
M  V30 12 1 11 13
M  V30 13 1 10 14
M  V30 14 1 12 7
M  V30 15 1 1 15
M  V30 16 1 1 16
M  V30 17 1 2 17
M  V30 18 1 5 18
M  V30 19 1 5 19
M  V30 20 1 8 20
M  V30 21 1 9 21
M  V30 22 1 12 22
M  V30 23 1 14 23
M  V30 24 1 14 24
M  V30 END BOND
M  V30 END CTAB
M  END
