
     RDKit          3D

  0  0  0  0  0  0  0  0  0  0999 V3000
M  V30 BEGIN CTAB
M  V30 COUNTS 41 42 0 0 0
M  V30 BEGIN ATOM
M  V30 1 O -1.5288 -0.369946 0.220176 0
M  V30 2 C -1.65613 0.813291 0.552566 0
M  V30 3 N -2.9337 1.39867 0.612636 0
M  V30 4 C -4.11235 0.702242 0.284538 0
M  V30 5 C -4.18951 -0.363279 -0.566979 0
M  V30 6 C -5.38896 -1.01965 -0.820354 0
M  V30 7 C -6.56374 -0.633312 -0.229752 0
M  V30 8 C -6.48683 0.451257 0.636038 0
M  V30 9 C -5.31917 1.09993 0.891196 0
M  V30 10 N -7.79704 -1.29328 -0.478073 0
M  V30 11 N -0.554901 1.64857 0.889533 0
M  V30 12 C 0.77493 1.12787 0.841068 0
M  V30 13 C 1.12075 0.736398 -0.55868 0
M  V30 14 C 2.51156 0.189206 -0.655069 0
M  V30 15 C 3.53851 1.06697 -0.903863 0
M  V30 16 C 4.83849 0.621946 -1.00315 0
M  V30 17 C 5.13992 -0.714577 -0.855252 0
M  V30 18 C 4.10211 -1.58509 -0.606118 0
M  V30 19 C 2.7787 -1.1541 -0.501987 0
M  V30 20 S 6.76616 -1.34669 -0.969 0
M  V30 21 O 6.7875 -2.7348 -1.51875 0
M  V30 22 O 7.52638 -0.431266 -1.89814 0
M  V30 23 N 7.47329 -1.32128 0.603907 0
M  V30 24 H -3.05238 2.42101 0.917004 0
M  V30 25 H -3.30591 -0.742791 -1.11367 0
M  V30 26 H -5.41153 -1.87472 -1.51191 0
M  V30 27 H -7.43853 0.75027 1.10256 0
M  V30 28 H -5.30443 1.94972 1.58021 0
M  V30 29 H -7.97326 -2.20797 -0.0518609 0
M  V30 30 H -8.49406 -0.84469 -1.08078 0
M  V30 31 H -0.737615 2.63251 1.168 0
M  V30 32 H 1.47574 1.97271 1.1293 0
M  V30 33 H 0.907462 0.283761 1.56294 0
M  V30 34 H 0.403473 0.0668569 -0.999196 0
M  V30 35 H 1.06118 1.69152 -1.1621 0
M  V30 36 H 3.3706 2.14516 -1.03249 0
M  V30 37 H 5.65981 1.32181 -1.20183 0
M  V30 38 H 4.33494 -2.63775 -0.489063 0
M  V30 39 H 1.97146 -1.85239 -0.305264 0
M  V30 40 H 7.20406 -0.471959 1.14756 0
M  V30 41 H 8.50182 -1.49212 0.589519 0
M  V30 END ATOM
M  V30 BEGIN BOND
M  V30 1 2 1 2
M  V30 2 1 2 3
M  V30 3 1 3 4
M  V30 4 2 4 5
M  V30 5 1 5 6
M  V30 6 2 6 7
M  V30 7 1 7 8
M  V30 8 2 8 9
M  V30 9 1 7 10
M  V30 10 1 2 11
M  V30 11 1 11 12
M  V30 12 1 12 13
M  V30 13 1 13 14
M  V30 14 2 14 15
M  V30 15 1 15 16
M  V30 16 2 16 17
M  V30 17 1 17 18
M  V30 18 2 18 19
M  V30 19 1 17 20
M  V30 20 2 20 21
M  V30 21 2 20 22
M  V30 22 1 20 23
M  V30 23 1 9 4
M  V30 24 1 19 14
M  V30 25 1 3 24
M  V30 26 1 5 25
M  V30 27 1 6 26
M  V30 28 1 8 27
M  V30 29 1 9 28
M  V30 30 1 10 29
M  V30 31 1 10 30
M  V30 32 1 11 31
M  V30 33 1 12 32
M  V30 34 1 12 33
M  V30 35 1 13 34
M  V30 36 1 13 35
M  V30 37 1 15 36
M  V30 38 1 16 37
M  V30 39 1 18 38
M  V30 40 1 19 39
M  V30 41 1 23 40
M  V30 42 1 23 41
M  V30 END BOND
M  V30 END CTAB
M  END
