
     RDKit          3D

  0  0  0  0  0  0  0  0  0  0999 V3000
M  V30 BEGIN CTAB
M  V30 COUNTS 22 22 0 0 0
M  V30 BEGIN ATOM
M  V30 1 O 1.72737 2.94922 0.0901666 0
M  V30 2 C 2.05273 1.55942 0.0521633 0
M  V30 3 O 3.24924 1.35521 0.0854645 0
M  V30 4 C 0.923887 0.672614 -0.0173276 0
M  V30 5 C -0.380513 1.20392 -0.0427666 0
M  V30 6 C -1.52342 0.460751 -0.107672 0
M  V30 7 N -2.80312 1.12293 -0.127655 0
M  V30 8 C -1.42054 -0.898686 -0.152121 0
M  V30 9 C -0.185652 -1.45804 -0.130025 0
M  V30 10 C 1.01068 -0.707149 -0.0630374 0
M  V30 11 C 2.23226 -1.45607 -0.0480618 0
M  V30 12 O 2.14574 -2.73724 -0.0961782 0
M  V30 13 O 3.50686 -1.00985 0.0108642 0
M  V30 14 N -2.63056 -1.63608 -0.21909 0
M  V30 15 H 1.25054 3.26616 0.940807 0
M  V30 16 H -0.465941 2.29799 -0.00708886 0
M  V30 17 H -2.85415 2.09626 -0.482327 0
M  V30 18 H -3.64197 0.623888 0.207958 0
M  V30 19 H -0.109891 -2.54808 -0.165895 0
M  V30 20 H 4.09756 -1.33474 0.787423 0
M  V30 21 H -3.18179 -1.63961 -1.09886 0
M  V30 22 H -2.99933 -2.18282 0.58326 0
M  V30 END ATOM
M  V30 BEGIN BOND
M  V30 1 1 1 2
M  V30 2 2 2 3
M  V30 3 1 2 4
M  V30 4 2 4 5
M  V30 5 1 5 6
M  V30 6 1 6 7
M  V30 7 2 6 8
M  V30 8 1 8 9
M  V30 9 2 9 10
M  V30 10 1 10 11
M  V30 11 2 11 12
M  V30 12 1 11 13
M  V30 13 1 8 14
M  V30 14 1 10 4
M  V30 15 1 1 15
M  V30 16 1 5 16
M  V30 17 1 7 17
M  V30 18 1 7 18
M  V30 19 1 9 19
M  V30 20 1 13 20
M  V30 21 1 14 21
M  V30 22 1 14 22
M  V30 END BOND
M  V30 END CTAB
M  END
