
     RDKit          3D

  0  0  0  0  0  0  0  0  0  0999 V3000
M  V30 BEGIN CTAB
M  V30 COUNTS 28 29 0 0 0
M  V30 BEGIN ATOM
M  V30 1 N 6.63857 1.1848 -1.12249 0
M  V30 2 C 5.33373 0.712623 -0.779974 0
M  V30 3 N 4.8899 0.206105 0.365921 0
M  V30 4 N 3.68675 -0.159162 0.473082 0
M  V30 5 C 2.85877 -0.0395005 -0.557314 0
M  V30 6 C 1.41029 -0.398743 -0.667935 0
M  V30 7 C 0.630332 0.819882 -0.255476 0
M  V30 8 C -0.861136 0.597758 -0.321138 0
M  V30 9 C -1.26723 -0.538885 0.603112 0
M  V30 10 C -2.75618 -0.705981 0.491308 0
M  V30 11 N -3.39388 -1.4927 -0.369141 0
M  V30 12 N -4.6564 -1.54145 -0.356945 0
M  V30 13 C -5.34017 -0.807604 0.514177 0
M  V30 14 N -6.76359 -0.747141 0.659188 0
M  V30 15 S -4.0644 -0.0169374 1.34493 0
M  V30 16 S 3.9169 0.645751 -1.73482 0
M  V30 17 H 6.79754 2.06128 -1.65549 0
M  V30 18 H 7.46715 0.632647 -0.828907 0
M  V30 19 H 1.256 -1.26543 -0.0310595 0
M  V30 20 H 1.25353 -0.641592 -1.75306 0
M  V30 21 H 0.854288 1.62738 -1.00583 0
M  V30 22 H 0.981243 1.18301 0.709782 0
M  V30 23 H -1.11844 0.385464 -1.36793 0
M  V30 24 H -1.418 1.50851 -0.0312605 0
M  V30 25 H -0.7405 -1.45537 0.315343 0
M  V30 26 H -1.04655 -0.314506 1.65181 0
M  V30 27 H -7.30753 -0.594911 -0.206626 0
M  V30 28 H -7.24099 -0.845284 1.55266 0
M  V30 END ATOM
M  V30 BEGIN BOND
M  V30 1 1 1 2
M  V30 2 2 2 3
M  V30 3 1 3 4
M  V30 4 2 4 5
M  V30 5 1 5 6
M  V30 6 1 6 7
M  V30 7 1 7 8
M  V30 8 1 8 9
M  V30 9 1 9 10
M  V30 10 2 10 11
M  V30 11 1 11 12
M  V30 12 2 12 13
M  V30 13 1 13 14
M  V30 14 1 13 15
M  V30 15 1 5 16
M  V30 16 1 16 2
M  V30 17 1 15 10
M  V30 18 1 1 17
M  V30 19 1 1 18
M  V30 20 1 6 19
M  V30 21 1 6 20
M  V30 22 1 7 21
M  V30 23 1 7 22
M  V30 24 1 8 23
M  V30 25 1 8 24
M  V30 26 1 9 25
M  V30 27 1 9 26
M  V30 28 1 14 27
M  V30 29 1 14 28
M  V30 END BOND
M  V30 END CTAB
M  END
