
     RDKit          3D

  0  0  0  0  0  0  0  0  0  0999 V3000
M  V30 BEGIN CTAB
M  V30 COUNTS 58 59 0 0 0
M  V30 BEGIN ATOM
M  V30 1 C 6.83155 1.63413 1.23785 0
M  V30 2 C 6.88791 0.251415 0.634948 0
M  V30 3 O 5.6596 -0.357296 0.541558 0
M  V30 4 C 4.73771 0.306718 -0.225824 0
M  V30 5 C 3.45184 0.540172 0.543147 0
M  V30 6 C 3.00972 -0.814058 0.0374323 0
M  V30 7 C 3.90735 -0.579945 -1.15049 0
M  V30 8 C 4.73725 -1.83052 -1.44181 0
M  V30 9 C 3.34908 0.088581 -2.34666 0
M  V30 10 N 3.4993 -1.93695 0.824579 0
M  V30 11 C 1.55606 -0.830959 -0.196205 0
M  V30 12 O 0.909705 -1.88795 0.146575 0
M  V30 13 N 0.782002 0.197106 -0.760043 0
M  V30 14 C -0.634999 0.168531 -0.980227 0
M  V30 15 C -1.38662 0.00915545 0.312318 0
M  V30 16 C -2.85915 -0.0178114 0.0946703 0
M  V30 17 C -3.47674 -0.305267 -1.08251 0
M  V30 18 C -4.84527 -0.315742 -1.2278 0
M  V30 19 C -5.64059 -0.0239693 -0.141154 0
M  V30 20 C -5.04117 0.270753 1.06323 0
M  V30 21 C -3.66413 0.275542 1.18685 0
M  V30 22 C -7.12775 -0.0219195 -0.246486 0
M  V30 23 C -7.75624 -1.03256 0.675115 0
M  V30 24 C -7.59562 1.3884 0.110321 0
M  V30 25 N -1.12873 1.23743 1.08332 0
M  V30 26 H 7.75195 1.87885 1.81482 0
M  V30 27 H 5.97733 1.78879 1.8943 0
M  V30 28 H 6.72299 2.34811 0.369846 0
M  V30 29 H 7.51726 -0.365384 1.31124 0
M  V30 30 H 7.412 0.254114 -0.351845 0
M  V30 31 H 5.06673 1.25601 -0.690104 0
M  V30 32 H 2.88993 1.39624 0.16965 0
M  V30 33 H 3.59915 0.529619 1.66435 0
M  V30 34 H 4.08131 -2.71688 -1.59615 0
M  V30 35 H 5.3801 -2.0779 -0.561597 0
M  V30 36 H 5.41797 -1.66906 -2.30048 0
M  V30 37 H 3.33599 1.20858 -2.28897 0
M  V30 38 H 2.38954 -0.334592 -2.70674 0
M  V30 39 H 4.0663 -0.112176 -3.19834 0
M  V30 40 H 3.51821 -1.66965 1.83279 0
M  V30 41 H 2.86672 -2.76522 0.745836 0
M  V30 42 H 1.29731 1.084 -1.04423 0
M  V30 43 H -0.991835 1.10982 -1.43813 0
M  V30 44 H -0.827424 -0.666978 -1.68874 0
M  V30 45 H -1.15085 -0.882825 0.887113 0
M  V30 46 H -2.8446 -0.534059 -1.93415 0
M  V30 47 H -5.32595 -0.549382 -2.18315 0
M  V30 48 H -5.68657 0.502357 1.92478 0
M  V30 49 H -3.24407 0.514437 2.15808 0
M  V30 50 H -7.4262 -0.280634 -1.28287 0
M  V30 51 H -8.7638 -1.3126 0.270472 0
M  V30 52 H -7.16356 -1.94891 0.740491 0
M  V30 53 H -7.89711 -0.58325 1.69033 0
M  V30 54 H -7.83944 1.39905 1.18627 0
M  V30 55 H -8.45534 1.65795 -0.52148 0
M  V30 56 H -6.78886 2.13308 -0.0738509 0
M  V30 57 H -1.27415 1.03669 2.07685 0
M  V30 58 H -1.77311 1.95883 0.689336 0
M  V30 END ATOM
M  V30 BEGIN BOND
M  V30 1 1 1 2
M  V30 2 1 2 3
M  V30 3 1 3 4
M  V30 4 1 4 5
M  V30 5 1 5 6
M  V30 6 1 6 7
M  V30 7 1 7 8
M  V30 8 1 7 9
M  V30 9 1 6 10
M  V30 10 1 6 11
M  V30 11 2 11 12
M  V30 12 1 11 13
M  V30 13 1 13 14
M  V30 14 1 14 15
M  V30 15 1 15 16
M  V30 16 2 16 17
M  V30 17 1 17 18
M  V30 18 2 18 19
M  V30 19 1 19 20
M  V30 20 2 20 21
M  V30 21 1 19 22
M  V30 22 1 22 23
M  V30 23 1 22 24
M  V30 24 1 15 25
M  V30 25 1 7 4
M  V30 26 1 21 16
M  V30 27 1 1 26
M  V30 28 1 1 27
M  V30 29 1 1 28
M  V30 30 1 2 29
M  V30 31 1 2 30
M  V30 32 1 4 31
M  V30 33 1 5 32
M  V30 34 1 5 33
M  V30 35 1 8 34
M  V30 36 1 8 35
M  V30 37 1 8 36
M  V30 38 1 9 37
M  V30 39 1 9 38
M  V30 40 1 9 39
M  V30 41 1 10 40
M  V30 42 1 10 41
M  V30 43 1 13 42
M  V30 44 1 14 43
M  V30 45 1 14 44
M  V30 46 1 15 45
M  V30 47 1 17 46
M  V30 48 1 18 47
M  V30 49 1 20 48
M  V30 50 1 21 49
M  V30 51 1 22 50
M  V30 52 1 23 51
M  V30 53 1 23 52
M  V30 54 1 23 53
M  V30 55 1 24 54
M  V30 56 1 24 55
M  V30 57 1 24 56
M  V30 58 1 25 57
M  V30 59 1 25 58
M  V30 END BOND
M  V30 END CTAB
M  END
