
     RDKit          3D

  0  0  0  0  0  0  0  0  0  0999 V3000
M  V30 BEGIN CTAB
M  V30 COUNTS 28 28 0 0 0
M  V30 BEGIN ATOM
M  V30 1 C 3.47338 -1.0556 0.447791 0
M  V30 2 N 3.07278 0.189954 -0.118919 0
M  V30 3 N 1.70851 0.467174 -0.0139577 0
M  V30 4 C 0.675564 -0.446846 -0.219978 0
M  V30 5 O 1.01291 -1.62839 -0.525255 0
M  V30 6 C -0.71725 -0.0630225 -0.0940257 0
M  V30 7 C -1.14386 1.21047 0.196787 0
M  V30 8 C -2.49372 1.56342 0.291505 0
M  V30 9 C -3.42628 0.590404 0.0829844 0
M  V30 10 C -3.05237 -0.70114 -0.211206 0
M  V30 11 C -1.69556 -1.03342 -0.300962 0
M  V30 12 N -1.28123 -2.34877 -0.596739 0
M  V30 13 N -4.81929 0.841503 0.151029 0
M  V30 14 C 3.891 1.25989 0.398516 0
M  V30 15 H 2.93537 -1.30192 1.40733 0
M  V30 16 H 4.55466 -0.96575 0.737024 0
M  V30 17 H 3.43847 -1.90442 -0.276109 0
M  V30 18 H 1.46987 1.46511 0.248812 0
M  V30 19 H -0.427405 1.99425 0.365596 0
M  V30 20 H -2.8029 2.57435 0.522161 0
M  V30 21 H -3.78466 -1.50157 -0.384993 0
M  V30 22 H -1.37462 -2.70169 -1.57226 0
M  V30 23 H -0.88238 -3.00603 0.108133 0
M  V30 24 H -5.21257 1.36996 0.94067 0
M  V30 25 H -5.46544 0.493548 -0.597076 0
M  V30 26 H 4.94743 0.981333 0.252326 0
M  V30 27 H 3.74181 1.428 1.48513 0
M  V30 28 H 3.65777 2.2292 -0.115735 0
M  V30 END ATOM
M  V30 BEGIN BOND
M  V30 1 1 1 2
M  V30 2 1 2 3
M  V30 3 1 3 4
M  V30 4 2 4 5
M  V30 5 1 4 6
M  V30 6 2 6 7
M  V30 7 1 7 8
M  V30 8 2 8 9
M  V30 9 1 9 10
M  V30 10 2 10 11
M  V30 11 1 11 12
M  V30 12 1 9 13
M  V30 13 1 2 14
M  V30 14 1 11 6
M  V30 15 1 1 15
M  V30 16 1 1 16
M  V30 17 1 1 17
M  V30 18 1 3 18
M  V30 19 1 7 19
M  V30 20 1 8 20
M  V30 21 1 10 21
M  V30 22 1 12 22
M  V30 23 1 12 23
M  V30 24 1 13 24
M  V30 25 1 13 25
M  V30 26 1 14 26
M  V30 27 1 14 27
M  V30 28 1 14 28
M  V30 END BOND
M  V30 END CTAB
M  END
