
     RDKit          3D

  0  0  0  0  0  0  0  0  0  0999 V3000
M  V30 BEGIN CTAB
M  V30 COUNTS 28 29 0 0 0
M  V30 BEGIN ATOM
M  V30 1 N 4.80268 0.602847 0.325735 0
M  V30 2 C 3.75012 -0.18242 -0.215431 0
M  V30 3 S 4.11789 -1.63634 -0.846936 0
M  V30 4 C 2.39502 0.349276 -0.179683 0
M  V30 5 C 1.99949 1.63844 -0.51692 0
M  V30 6 N 0.673129 1.71703 -0.346461 0
M  V30 7 N 0.190798 0.561036 0.0787073 0
M  V30 8 C 1.22817 -0.287192 0.18661 0
M  V30 9 N 1.09885 -1.62839 0.616724 0
M  V30 10 C -1.18533 0.342978 0.347163 0
M  V30 11 C -2.01421 0.901457 -0.813706 0
M  V30 12 C -3.46133 0.678822 -0.413713 0
M  V30 13 S -3.36851 -0.913801 0.372922 0
M  V30 14 O -4.00744 -1.98828 -0.409279 0
M  V30 15 O -3.9001 -0.769997 1.75701 0
M  V30 16 C -1.5771 -1.10526 0.431515 0
M  V30 17 H 5.47596 1.03062 -0.341045 0
M  V30 18 H 4.84681 0.710418 1.36298 0
M  V30 19 H 2.69292 2.39685 -0.851163 0
M  V30 20 H 1.03982 -1.92458 1.61721 0
M  V30 21 H 1.05517 -2.41728 -0.092311 0
M  V30 22 H -1.56462 0.838727 1.26589 0
M  V30 23 H -1.84687 1.96666 -0.940289 0
M  V30 24 H -1.83933 0.29269 -1.71514 0
M  V30 25 H -4.11802 0.615366 -1.30121 0
M  V30 26 H -3.82054 1.46826 0.247095 0
M  V30 27 H -1.29762 -1.70632 -0.430356 0
M  V30 28 H -1.36582 -1.55161 1.41398 0
M  V30 END ATOM
M  V30 BEGIN BOND
M  V30 1 1 1 2
M  V30 2 2 2 3
M  V30 3 1 2 4
M  V30 4 1 4 5
M  V30 5 2 5 6
M  V30 6 1 6 7
M  V30 7 1 7 8
M  V30 8 1 8 9
M  V30 9 1 7 10
M  V30 10 1 10 11
M  V30 11 1 11 12
M  V30 12 1 12 13
M  V30 13 2 13 14
M  V30 14 2 13 15
M  V30 15 1 13 16
M  V30 16 2 8 4
M  V30 17 1 16 10
M  V30 18 1 1 17
M  V30 19 1 1 18
M  V30 20 1 5 19
M  V30 21 1 9 20
M  V30 22 1 9 21
M  V30 23 1 10 22
M  V30 24 1 11 23
M  V30 25 1 11 24
M  V30 26 1 12 25
M  V30 27 1 12 26
M  V30 28 1 16 27
M  V30 29 1 16 28
M  V30 END BOND
M  V30 END CTAB
M  END
