
     RDKit          3D

  0  0  0  0  0  0  0  0  0  0999 V3000
M  V30 BEGIN CTAB
M  V30 COUNTS 23 23 0 0 0
M  V30 BEGIN ATOM
M  V30 1 O 3.68615 0.761624 -0.877292 0
M  V30 2 C 2.98159 -0.421515 -0.614671 0
M  V30 3 C 1.7661 -0.0382862 0.180807 0 CFG=2
M  V30 4 C 0.860865 -1.18908 0.571061 0
M  V30 5 C -0.287281 -0.214548 0.387348 0 CFG=1
M  V30 6 C 0.592019 0.466876 -0.656843 0
M  V30 7 N -1.49142 -0.802523 -0.141543 0
M  V30 8 C -2.53131 -0.0504025 -0.233785 0
M  V30 9 N -3.77018 -0.572979 -0.754108 0
M  V30 10 N -2.54623 1.31007 0.15534 0
M  V30 11 H 3.45867 1.43714 -0.235981 0
M  V30 12 H 3.6389 -1.06567 -0.00172829 0
M  V30 13 H 2.74114 -0.86027 -1.59189 0
M  V30 14 H 1.95139 0.690327 0.988884 0
M  V30 15 H 0.926834 -1.9774 -0.204616 0
M  V30 16 H 1.0193 -1.52742 1.61199 0
M  V30 17 H -0.401397 0.435861 1.2603 0
M  V30 18 H 0.473547 -0.0614861 -1.62315 0
M  V30 19 H 0.480931 1.55678 -0.688 0
M  V30 20 H -4.18495 -0.107484 -1.58629 0
M  V30 21 H -4.25397 -1.37882 -0.339041 0
M  V30 22 H -2.26172 2.06033 -0.50509 0
M  V30 23 H -2.84898 1.54888 1.12078 0
M  V30 END ATOM
M  V30 BEGIN BOND
M  V30 1 1 1 2
M  V30 2 1 2 3
M  V30 3 1 3 4
M  V30 4 1 4 5
M  V30 5 1 5 6
M  V30 6 1 5 7
M  V30 7 2 7 8 CFG=2
M  V30 8 1 8 9
M  V30 9 1 8 10
M  V30 10 1 6 3
M  V30 11 1 1 11
M  V30 12 1 2 12
M  V30 13 1 2 13
M  V30 14 1 3 14 CFG=1
M  V30 15 1 4 15
M  V30 16 1 4 16
M  V30 17 1 5 17 CFG=1
M  V30 18 1 6 18
M  V30 19 1 6 19
M  V30 20 1 9 20
M  V30 21 1 9 21
M  V30 22 1 10 22
M  V30 23 1 10 23
M  V30 END BOND
M  V30 END CTAB
M  END
