
     RDKit          3D

  0  0  0  0  0  0  0  0  0  0999 V3000
M  V30 BEGIN CTAB
M  V30 COUNTS 23 24 0 0 0
M  V30 BEGIN ATOM
M  V30 1 N 2.07128 -2.55986 1.08684 0
M  V30 2 N 2.52832 -1.25619 0.971533 0
M  V30 3 C 1.61703 -0.265283 0.48119 0
M  V30 4 N 0.354854 -0.571759 0.138788 0
M  V30 5 C -0.534039 0.331542 -0.326786 0
M  V30 6 C -0.118784 1.63872 -0.45606 0
M  V30 7 C 1.17476 1.96091 -0.106778 0
M  V30 8 N 2.00005 1.01726 0.346533 0
M  V30 9 N 1.57423 3.30938 -0.249378 0
M  V30 10 C -1.90729 -0.00738923 -0.698136 0
M  V30 11 C -2.32726 -1.37818 -1.048 0
M  V30 12 C -2.58758 -0.928343 0.353655 0
M  V30 13 H 1.70347 -2.85757 0.160764 0
M  V30 14 H 1.25266 -2.54554 1.73745 0
M  V30 15 H 3.50041 -1.0418 1.23954 0
M  V30 16 H -0.817119 2.40392 -0.83296 0
M  V30 17 H 1.39172 3.96606 0.533668 0
M  V30 18 H 2.03696 3.6284 -1.11564 0
M  V30 19 H -2.53475 0.824978 -1.06594 0
M  V30 20 H -1.58856 -2.18689 -1.21684 0
M  V30 21 H -3.22396 -1.47193 -1.69402 0
M  V30 22 H -3.60547 -0.610305 0.647598 0
M  V30 23 H -1.96094 -1.40014 1.11297 0
M  V30 END ATOM
M  V30 BEGIN BOND
M  V30 1 1 1 2
M  V30 2 1 2 3
M  V30 3 2 3 4
M  V30 4 1 4 5
M  V30 5 2 5 6
M  V30 6 1 6 7
M  V30 7 2 7 8
M  V30 8 1 7 9
M  V30 9 1 5 10
M  V30 10 1 10 11
M  V30 11 1 11 12
M  V30 12 1 8 3
M  V30 13 1 12 10
M  V30 14 1 1 13
M  V30 15 1 1 14
M  V30 16 1 2 15
M  V30 17 1 6 16
M  V30 18 1 9 17
M  V30 19 1 9 18
M  V30 20 1 10 19
M  V30 21 1 11 20
M  V30 22 1 11 21
M  V30 23 1 12 22
M  V30 24 1 12 23
M  V30 END BOND
M  V30 END CTAB
M  END
