
     RDKit          3D

  0  0  0  0  0  0  0  0  0  0999 V3000
M  V30 BEGIN CTAB
M  V30 COUNTS 22 23 0 0 0
M  V30 BEGIN ATOM
M  V30 1 N 3.1517 0.869249 0.242952 0
M  V30 2 C 3.04462 -0.442326 -0.329645 0
M  V30 3 N 4.32828 -1.01377 -0.609102 0
M  V30 4 N 1.97474 -1.05662 -0.57486 0
M  V30 5 C 0.640018 -0.678133 -0.378849 0
M  V30 6 N -0.452527 -1.45224 -0.693671 0
M  V30 7 C -1.57747 -0.79663 -0.380846 0
M  V30 8 C -2.91377 -1.13655 -0.499789 0
M  V30 9 C -3.87816 -0.244694 -0.0869892 0
M  V30 10 C -3.49942 0.960226 0.432824 0
M  V30 11 C -2.1688 1.28998 0.547433 0
M  V30 12 C -1.19513 0.414622 0.141659 0
M  V30 13 N 0.168443 0.461378 0.131439 0
M  V30 14 H 3.47518 1.00428 1.21327 0
M  V30 15 H 2.89717 1.68752 -0.337116 0
M  V30 16 H 4.5462 -1.25263 -1.57943 0
M  V30 17 H 4.99306 -1.17045 0.152238 0
M  V30 18 H -3.14394 -2.11168 -0.922199 0
M  V30 19 H -4.91967 -0.5215 -0.184898 0
M  V30 20 H -4.28923 1.64427 0.750574 0
M  V30 21 H -1.85831 2.25076 0.961725 0
M  V30 22 H 0.677021 1.29494 0.485501 0
M  V30 END ATOM
M  V30 BEGIN BOND
M  V30 1 1 1 2
M  V30 2 1 2 3
M  V30 3 2 2 4
M  V30 4 1 4 5
M  V30 5 2 5 6
M  V30 6 1 6 7
M  V30 7 2 7 8
M  V30 8 1 8 9
M  V30 9 2 9 10
M  V30 10 1 10 11
M  V30 11 2 11 12
M  V30 12 1 12 13
M  V30 13 1 13 5
M  V30 14 1 12 7
M  V30 15 1 1 14
M  V30 16 1 1 15
M  V30 17 1 3 16
M  V30 18 1 3 17
M  V30 19 1 8 18
M  V30 20 1 9 19
M  V30 21 1 10 20
M  V30 22 1 11 21
M  V30 23 1 13 22
M  V30 END BOND
M  V30 END CTAB
M  END
