
     RDKit          3D

  0  0  0  0  0  0  0  0  0  0999 V3000
M  V30 BEGIN CTAB
M  V30 COUNTS 51 53 0 0 0
M  V30 BEGIN ATOM
M  V30 1 C -7.90415 1.96307 0.169835 0
M  V30 2 O -6.55237 1.67992 -0.200581 0
M  V30 3 C -5.70488 1.09148 0.722596 0
M  V30 4 O -6.16466 0.828863 1.85779 0
M  V30 5 C -4.30585 0.7827 0.383446 0
M  V30 6 C -3.4575 0.197948 1.29551 0
M  V30 7 C -2.15782 -0.101304 1.0147 0
M  V30 8 C -1.62779 0.186141 -0.251612 0
M  V30 9 C -2.45341 0.768432 -1.17498 0
M  V30 10 C -3.78617 1.0646 -0.857595 0
M  V30 11 C -0.176932 -0.150485 -0.508865 0
M  V30 12 C 0.0320775 -0.196453 -2.00602 0
M  V30 13 C -0.796365 -1.18888 -2.67816 0
M  V30 14 C -1.48095 -1.99286 -3.25388 0
M  V30 15 C 0.60299 0.985906 0.0311681 0
M  V30 16 C 2.05726 0.954772 -0.0838496 0
M  V30 17 N 2.87751 0.438287 0.845343 0
M  V30 18 C 4.22781 0.425526 0.719553 0
M  V30 19 C 4.81966 0.961558 -0.406198 0
M  V30 20 N 4.03551 1.48124 -1.34574 0
M  V30 21 C 2.69757 1.48797 -1.20942 0
M  V30 22 N 6.16534 0.927122 -0.488628 0
M  V30 23 C 6.91434 0.389351 0.490602 0
M  V30 24 N 8.35095 0.372757 0.362738 0
M  V30 25 N 6.31908 -0.128466 1.58073 0
M  V30 26 C 4.98463 -0.131945 1.73685 0
M  V30 27 N 4.31907 -0.665446 2.86584 0
M  V30 28 C 0.0200546 -1.45741 0.121887 0
M  V30 29 O 0.824021 -1.67071 1.02531 0
M  V30 30 O -0.749767 -2.5157 -0.329963 0
M  V30 31 C -0.684186 -3.81612 0.163695 0
M  V30 32 H -7.88214 2.92982 0.721056 0
M  V30 33 H -8.56079 2.04486 -0.720057 0
M  V30 34 H -8.27216 1.13406 0.820139 0
M  V30 35 H -3.83105 -0.0422532 2.29378 0
M  V30 36 H -1.47944 -0.568221 1.74214 0
M  V30 37 H -2.0765 1.01932 -2.17467 0
M  V30 38 H -4.38474 1.52363 -1.63172 0
M  V30 39 H 1.13351 -0.401161 -2.22704 0
M  V30 40 H -0.133597 0.775717 -2.5063 0
M  V30 41 H -2.08809 -2.69 -3.76547 0
M  V30 42 H 0.156632 1.92648 -0.414385 0
M  V30 43 H 0.338337 1.09634 1.12744 0
M  V30 44 H 2.03576 1.90464 -1.95905 0
M  V30 45 H 8.80114 1.11494 -0.213854 0
M  V30 46 H 8.9057 -0.376249 0.846448 0
M  V30 47 H 3.4548 -0.294108 3.27533 0
M  V30 48 H 4.76535 -1.51756 3.31007 0
M  V30 49 H -1.57903 -3.98112 0.803811 0
M  V30 50 H 0.211714 -4.03005 0.768466 0
M  V30 51 H -0.760492 -4.54095 -0.688249 0
M  V30 END ATOM
M  V30 BEGIN BOND
M  V30 1 1 1 2
M  V30 2 1 2 3
M  V30 3 2 3 4
M  V30 4 1 3 5
M  V30 5 2 5 6
M  V30 6 1 6 7
M  V30 7 2 7 8
M  V30 8 1 8 9
M  V30 9 2 9 10
M  V30 10 1 8 11
M  V30 11 1 11 12
M  V30 12 1 12 13
M  V30 13 3 13 14
M  V30 14 1 11 15
M  V30 15 1 15 16
M  V30 16 2 16 17
M  V30 17 1 17 18
M  V30 18 2 18 19
M  V30 19 1 19 20
M  V30 20 2 20 21
M  V30 21 1 19 22
M  V30 22 2 22 23
M  V30 23 1 23 24
M  V30 24 1 23 25
M  V30 25 2 25 26
M  V30 26 1 26 27
M  V30 27 1 11 28
M  V30 28 2 28 29
M  V30 29 1 28 30
M  V30 30 1 30 31
M  V30 31 1 10 5
M  V30 32 1 21 16
M  V30 33 1 26 18
M  V30 34 1 1 32
M  V30 35 1 1 33
M  V30 36 1 1 34
M  V30 37 1 6 35
M  V30 38 1 7 36
M  V30 39 1 9 37
M  V30 40 1 10 38
M  V30 41 1 12 39
M  V30 42 1 12 40
M  V30 43 1 14 41
M  V30 44 1 15 42
M  V30 45 1 15 43
M  V30 46 1 21 44
M  V30 47 1 24 45
M  V30 48 1 24 46
M  V30 49 1 27 47
M  V30 50 1 27 48
M  V30 51 1 31 49
M  V30 52 1 31 50
M  V30 53 1 31 51
M  V30 END BOND
M  V30 END CTAB
M  END
