
     RDKit          3D

  0  0  0  0  0  0  0  0  0  0999 V3000
M  V30 BEGIN CTAB
M  V30 COUNTS 53 54 0 0 0
M  V30 BEGIN ATOM
M  V30 1 C 1.68086 -0.59148 0.296006 0 CFG=1
M  V30 2 N 1.34495 -1.63051 1.22958 0
M  V30 3 C 3.13723 -0.707344 -0.151317 0
M  V30 4 C 4.09931 -0.596216 0.996335 0
M  V30 5 C 4.0246 0.700038 1.74798 0
M  V30 6 N 4.35634 1.77799 0.835475 0
M  V30 7 C 5.68151 1.91362 0.361011 0
M  V30 8 N 6.56705 2.71463 1.14385 0
M  V30 9 N 6.08326 1.35086 -0.718309 0
M  V30 10 C 0.770916 -0.468191 -0.835808 0
M  V30 11 O 0.968045 0.592683 -1.56196 0
M  V30 12 N -0.268106 -1.33042 -1.23199 0
M  V30 13 C -0.780187 -2.58189 -0.738213 0
M  V30 14 C -0.84097 -3.40673 -2.04927 0
M  V30 15 C -1.43875 -2.36591 -2.97357 0
M  V30 16 C -1.14129 -1.03809 -2.38802 0 CFG=1
M  V30 17 C -2.39129 -0.359365 -1.87325 0
M  V30 18 O -3.31228 -0.13797 -2.70255 0
M  V30 19 N -2.53306 0.0127646 -0.54009 0
M  V30 20 C -3.63577 0.651491 0.0629577 0
M  V30 21 C -4.61821 1.35797 -0.588467 0
M  V30 22 C -5.69576 1.94546 0.0464772 0
M  V30 23 C -5.81254 1.82991 1.41165 0
M  V30 24 C -4.84653 1.12741 2.11664 0
M  V30 25 C -3.79196 0.5563 1.46444 0
M  V30 26 N -6.8982 2.41529 2.09752 0 CHG=1
M  V30 27 O -7.84511 3.10497 1.39955 0 CHG=-1
M  V30 28 O -6.9938 2.30637 3.3192 0
M  V30 29 H 1.66366 0.365252 0.900273 0
M  V30 30 H 1.98216 -1.53415 2.07792 0
M  V30 31 H 0.389098 -1.50717 1.63786 0
M  V30 32 H 3.32081 -1.68046 -0.650843 0
M  V30 33 H 3.37975 0.0725634 -0.894677 0
M  V30 34 H 3.95157 -1.48225 1.65608 0
M  V30 35 H 5.12725 -0.736582 0.539151 0
M  V30 36 H 4.8378 0.639758 2.53563 0
M  V30 37 H 3.07778 0.847406 2.27243 0
M  V30 38 H 3.59816 2.44032 0.544124 0
M  V30 39 H 7.32522 2.33441 1.72343 0
M  V30 40 H 6.42706 3.75615 1.11992 0
M  V30 41 H 7.05468 1.47996 -1.02042 0
M  V30 42 H -1.84515 -2.48975 -0.422601 0
M  V30 43 H -0.168315 -3.12024 -0.0249107 0
M  V30 44 H -1.45267 -4.29953 -1.92593 0
M  V30 45 H 0.194672 -3.66396 -2.37562 0
M  V30 46 H -2.51875 -2.60254 -3.0687 0
M  V30 47 H -0.953688 -2.41915 -3.98773 0
M  V30 48 H -0.60826 -0.349622 -3.10251 0
M  V30 49 H -1.70696 -0.200407 0.0981401 0
M  V30 50 H -4.54184 1.47867 -1.66999 0
M  V30 51 H -6.45572 2.50017 -0.519339 0
M  V30 52 H -4.93752 1.03467 3.20076 0
M  V30 53 H -3.01105 -0.00713372 1.99307 0
M  V30 END ATOM
M  V30 BEGIN BOND
M  V30 1 1 1 2
M  V30 2 1 1 3
M  V30 3 1 3 4
M  V30 4 1 4 5
M  V30 5 1 5 6
M  V30 6 1 6 7
M  V30 7 1 7 8
M  V30 8 2 7 9 CFG=2
M  V30 9 1 1 10
M  V30 10 2 10 11
M  V30 11 1 10 12
M  V30 12 1 12 13
M  V30 13 1 13 14
M  V30 14 1 14 15
M  V30 15 1 15 16
M  V30 16 1 16 17
M  V30 17 2 17 18
M  V30 18 1 17 19
M  V30 19 1 19 20
M  V30 20 2 20 21
M  V30 21 1 21 22
M  V30 22 2 22 23
M  V30 23 1 23 24
M  V30 24 2 24 25
M  V30 25 1 23 26
M  V30 26 1 26 27
M  V30 27 2 26 28
M  V30 28 1 16 12
M  V30 29 1 25 20
M  V30 30 1 1 29 CFG=1
M  V30 31 1 2 30
M  V30 32 1 2 31
M  V30 33 1 3 32
M  V30 34 1 3 33
M  V30 35 1 4 34
M  V30 36 1 4 35
M  V30 37 1 5 36
M  V30 38 1 5 37
M  V30 39 1 6 38
M  V30 40 1 8 39
M  V30 41 1 8 40
M  V30 42 1 9 41
M  V30 43 1 13 42
M  V30 44 1 13 43
M  V30 45 1 14 44
M  V30 46 1 14 45
M  V30 47 1 15 46
M  V30 48 1 15 47
M  V30 49 1 16 48 CFG=3
M  V30 50 1 19 49
M  V30 51 1 21 50
M  V30 52 1 22 51
M  V30 53 1 24 52
M  V30 54 1 25 53
M  V30 END BOND
M  V30 END CTAB
M  END
