
     RDKit          3D

  0  0  0  0  0  0  0  0  0  0999 V3000
M  V30 BEGIN CTAB
M  V30 COUNTS 24 23 0 0 0
M  V30 BEGIN ATOM
M  V30 1 C 2.82613 0.372805 0.0482759 0
M  V30 2 C 1.41387 -0.00287142 0.526635 0
M  V30 3 N 1.47769 -1.42847 0.752711 0
M  V30 4 C 0.401116 0.28928 -0.526378 0
M  V30 5 C -1.01443 -0.012123 -0.196698 0
M  V30 6 C -1.51819 0.753944 1.01177 0
M  V30 7 C -1.86409 0.362308 -1.41395 0
M  V30 8 N -1.17113 -1.41907 0.0631232 0
M  V30 9 H 3.52487 0.380285 0.908384 0
M  V30 10 H 2.81086 1.37253 -0.389684 0
M  V30 11 H 3.16019 -0.356755 -0.717384 0
M  V30 12 H 1.19466 0.468551 1.49943 0
M  V30 13 H 1.32314 -1.93899 -0.132315 0
M  V30 14 H 0.890215 -1.69012 1.55332 0
M  V30 15 H 0.465945 1.37512 -0.810395 0
M  V30 16 H 0.62583 -0.261235 -1.48658 0
M  V30 17 H -2.61322 0.790488 0.964334 0
M  V30 18 H -1.05941 1.76641 1.06768 0
M  V30 19 H -1.23269 0.183973 1.91849 0
M  V30 20 H -2.61057 -0.448183 -1.62575 0
M  V30 21 H -1.2429 0.496791 -2.31338 0
M  V30 22 H -2.39341 1.32054 -1.23399 0
M  V30 23 H -1.94372 -1.79375 -0.520357 0
M  V30 24 H -1.45077 -1.57166 1.05272 0
M  V30 END ATOM
M  V30 BEGIN BOND
M  V30 1 1 1 2
M  V30 2 1 2 3
M  V30 3 1 2 4
M  V30 4 1 4 5
M  V30 5 1 5 6
M  V30 6 1 5 7
M  V30 7 1 5 8
M  V30 8 1 1 9
M  V30 9 1 1 10
M  V30 10 1 1 11
M  V30 11 1 2 12
M  V30 12 1 3 13
M  V30 13 1 3 14
M  V30 14 1 4 15
M  V30 15 1 4 16
M  V30 16 1 6 17
M  V30 17 1 6 18
M  V30 18 1 6 19
M  V30 19 1 7 20
M  V30 20 1 7 21
M  V30 21 1 7 22
M  V30 22 1 8 23
M  V30 23 1 8 24
M  V30 END BOND
M  V30 END CTAB
M  END
