
     RDKit          3D

  0  0  0  0  0  0  0  0  0  0999 V3000
M  V30 BEGIN CTAB
M  V30 COUNTS 33 35 0 0 0
M  V30 BEGIN ATOM
M  V30 1 N 3.12726 2.95893 1.22193 0
M  V30 2 C 2.93613 1.64975 0.667974 0
M  V30 3 N 1.73698 1.0394 0.657251 0
M  V30 4 C 1.55153 -0.188265 0.139149 0
M  V30 5 C 2.64849 -0.859352 -0.411304 0
M  V30 6 C 2.14171 -2.06016 -0.845512 0
M  V30 7 I 3.33568 -3.54146 -1.78683 0
M  V30 8 N 0.82309 -2.12019 -0.578801 0
M  V30 9 N 0.476468 -0.98834 0.0142951 0
M  V30 10 C -0.846895 -0.678035 0.450807 0 CFG=1
M  V30 11 C -1.14369 0.799529 0.497778 0
M  V30 12 C -2.64147 0.808694 0.180352 0 CFG=2
M  V30 13 O -3.36517 1.4604 1.17549 0
M  V30 14 C -2.97861 -0.660979 0.124902 0 CFG=1
M  V30 15 C -4.18685 -0.93114 -0.747048 0
M  V30 16 O -5.2864 -0.348578 -0.103239 0
M  V30 17 O -1.81687 -1.20601 -0.432893 0
M  V30 18 C 3.87628 -0.242404 -0.403961 0
M  V30 19 N 4.96584 -0.955972 -0.972141 0
M  V30 20 N 3.9741 0.972852 0.128028 0
M  V30 21 H 3.37816 3.14223 2.19721 0
M  V30 22 H 2.99656 3.76174 0.568646 0
M  V30 23 H -1.10638 -1.10079 1.44771 0
M  V30 24 H -0.954484 1.22323 1.50639 0
M  V30 25 H -0.648403 1.37158 -0.305418 0
M  V30 26 H -2.83717 1.2317 -0.829261 0
M  V30 27 H -4.16275 1.86528 0.71392 0
M  V30 28 H -3.14482 -1.11006 1.11112 0
M  V30 29 H -4.35346 -2.01425 -0.776232 0
M  V30 30 H -4.04975 -0.520248 -1.76841 0
M  V30 31 H -5.16342 -0.320888 0.881457 0
M  V30 32 H 5.32527 -1.79753 -0.492941 0
M  V30 33 H 5.39305 -0.64066 -1.84936 0
M  V30 END ATOM
M  V30 BEGIN BOND
M  V30 1 1 1 2
M  V30 2 2 2 3
M  V30 3 1 3 4
M  V30 4 2 4 5
M  V30 5 1 5 6
M  V30 6 1 6 7
M  V30 7 2 6 8
M  V30 8 1 8 9
M  V30 9 1 9 10
M  V30 10 1 10 11
M  V30 11 1 11 12
M  V30 12 1 12 13
M  V30 13 1 12 14
M  V30 14 1 14 15
M  V30 15 1 15 16
M  V30 16 1 14 17
M  V30 17 1 5 18
M  V30 18 1 18 19
M  V30 19 2 18 20
M  V30 20 1 20 2
M  V30 21 1 9 4
M  V30 22 1 17 10
M  V30 23 1 1 21
M  V30 24 1 1 22
M  V30 25 1 10 23 CFG=1
M  V30 26 1 11 24
M  V30 27 1 11 25
M  V30 28 1 12 26 CFG=3
M  V30 29 1 13 27
M  V30 30 1 14 28 CFG=1
M  V30 31 1 15 29
M  V30 32 1 15 30
M  V30 33 1 16 31
M  V30 34 1 19 32
M  V30 35 1 19 33
M  V30 END BOND
M  V30 END CTAB
M  END
