
     RDKit          3D

  0  0  0  0  0  0  0  0  0  0999 V3000
M  V30 BEGIN CTAB
M  V30 COUNTS 48 48 0 0 0
M  V30 BEGIN ATOM
M  V30 1 C 3.75378 -0.070957 1.06093 0
M  V30 2 C 3.23109 0.0145157 -0.337971 0 CFG=1
M  V30 3 N 4.38174 0.0919703 -1.2329 0
M  V30 4 C 2.47874 -1.25502 -0.700765 0
M  V30 5 N 1.361 -1.46833 0.169615 0
M  V30 6 C 0.25968 -2.15228 -0.524288 0
M  V30 7 C -0.791515 -2.45718 0.477897 0
M  V30 8 N -2.11319 -2.49338 0.0408656 0
M  V30 9 C -2.62349 -1.49568 -0.789516 0
M  V30 10 C -2.95077 -0.184915 -0.106281 0 CFG=1
M  V30 11 C -4.37712 0.256943 -0.371384 0
M  V30 12 N -2.84279 -0.310488 1.35568 0
M  V30 13 C -2.05241 0.932177 -0.610685 0
M  V30 14 N -1.44342 1.66446 0.486992 0
M  V30 15 C -0.698475 2.76438 -0.0605602 0
M  V30 16 C 0.776922 2.70677 0.338918 0
M  V30 17 N 1.25167 1.34208 0.277853 0
M  V30 18 C 2.40354 1.24589 -0.571751 0
M  V30 19 H 2.98136 -0.196338 1.82851 0
M  V30 20 H 4.44098 -0.942068 1.11072 0
M  V30 21 H 4.39007 0.829232 1.23904 0
M  V30 22 H 5.07076 -0.665697 -1.02556 0
M  V30 23 H 4.82475 1.02222 -1.08132 0
M  V30 24 H 3.20724 -2.09464 -0.506279 0
M  V30 25 H 2.22031 -1.26066 -1.76493 0
M  V30 26 H 1.58265 -2.00397 1.02889 0
M  V30 27 H -0.0275197 -1.51221 -1.35148 0
M  V30 28 H 0.736199 -3.07154 -0.972657 0
M  V30 29 H -0.692369 -1.75782 1.35836 0
M  V30 30 H -0.536979 -3.46721 0.921508 0
M  V30 31 H -2.75 -3.18787 0.426105 0
M  V30 32 H -3.60134 -1.87099 -1.21989 0
M  V30 33 H -2.01955 -1.23482 -1.68806 0
M  V30 34 H -4.47896 0.545413 -1.43204 0
M  V30 35 H -5.0875 -0.570879 -0.112651 0
M  V30 36 H -4.55482 1.14987 0.257828 0
M  V30 37 H -3.33971 0.515443 1.7616 0
M  V30 38 H -3.40528 -1.15142 1.61418 0
M  V30 39 H -1.24466 0.553751 -1.25519 0
M  V30 40 H -2.61072 1.68164 -1.21068 0
M  V30 41 H -2.16479 2.05857 1.12172 0
M  V30 42 H -1.0798 3.76385 0.294863 0
M  V30 43 H -0.719043 2.79647 -1.16835 0
M  V30 44 H 0.860261 3.13995 1.37079 0
M  V30 45 H 1.36091 3.35235 -0.35847 0
M  V30 46 H 1.4786 1.0616 1.25905 0
M  V30 47 H 3.04719 2.12108 -0.374831 0
M  V30 48 H 2.10678 1.26573 -1.63291 0
M  V30 END ATOM
M  V30 BEGIN BOND
M  V30 1 1 1 2
M  V30 2 1 2 3 CFG=3
M  V30 3 1 2 4
M  V30 4 1 4 5
M  V30 5 1 5 6
M  V30 6 1 6 7
M  V30 7 1 7 8
M  V30 8 1 8 9
M  V30 9 1 9 10
M  V30 10 1 10 11
M  V30 11 1 10 12 CFG=1
M  V30 12 1 10 13
M  V30 13 1 13 14
M  V30 14 1 14 15
M  V30 15 1 15 16
M  V30 16 1 16 17
M  V30 17 1 17 18
M  V30 18 1 18 2
M  V30 19 1 1 19
M  V30 20 1 1 20
M  V30 21 1 1 21
M  V30 22 1 3 22
M  V30 23 1 3 23
M  V30 24 1 4 24
M  V30 25 1 4 25
M  V30 26 1 5 26
M  V30 27 1 6 27
M  V30 28 1 6 28
M  V30 29 1 7 29
M  V30 30 1 7 30
M  V30 31 1 8 31
M  V30 32 1 9 32
M  V30 33 1 9 33
M  V30 34 1 11 34
M  V30 35 1 11 35
M  V30 36 1 11 36
M  V30 37 1 12 37
M  V30 38 1 12 38
M  V30 39 1 13 39
M  V30 40 1 13 40
M  V30 41 1 14 41
M  V30 42 1 15 42
M  V30 43 1 15 43
M  V30 44 1 16 44
M  V30 45 1 16 45
M  V30 46 1 17 46
M  V30 47 1 18 47
M  V30 48 1 18 48
M  V30 END BOND
M  V30 END CTAB
M  END
