
     RDKit          3D

  0  0  0  0  0  0  0  0  0  0999 V3000
M  V30 BEGIN CTAB
M  V30 COUNTS 29 29 0 0 0
M  V30 BEGIN ATOM
M  V30 1 N 4.19579 -1.15038 -0.345131 0
M  V30 2 C 3.13174 -0.231156 -0.0782919 0
M  V30 3 N 1.96979 -0.628327 0.31328 0
M  V30 4 C 0.942538 0.33862 0.565203 0
M  V30 5 C -0.294255 0.103816 -0.314486 0
M  V30 6 O 0.0764521 0.193529 -1.66534 0
M  V30 7 C -1.20485 1.30092 -0.0571611 0
M  V30 8 C -2.50013 0.956278 -0.778021 0
M  V30 9 C -3.18414 -0.0744843 0.0875915 0
M  V30 10 C -2.29704 -1.17838 0.530598 0
M  V30 11 C -0.925252 -1.19646 -0.0254437 0
M  V30 12 N 3.40898 1.14588 -0.263414 0
M  V30 13 H 4.7917 -1.55014 0.415064 0
M  V30 14 H 4.346 -1.40095 -1.33807 0
M  V30 15 H 0.549388 0.262585 1.61948 0
M  V30 16 H 1.3058 1.3799 0.447986 0
M  V30 17 H 0.0525343 -0.687808 -2.11783 0
M  V30 18 H -0.712357 2.18504 -0.500025 0
M  V30 19 H -1.3351 1.36302 1.03324 0
M  V30 20 H -3.11196 1.87196 -0.820478 0
M  V30 21 H -2.28548 0.584222 -1.78619 0
M  V30 22 H -3.59358 0.495516 0.973414 0
M  V30 23 H -4.09119 -0.410885 -0.466512 0
M  V30 24 H -2.79892 -2.14526 0.227463 0
M  V30 25 H -2.29377 -1.21966 1.65209 0
M  V30 26 H -0.268405 -1.75223 0.699794 0
M  V30 27 H -0.893945 -1.84265 -0.952561 0
M  V30 28 H 3.33674 1.80105 0.53687 0
M  V30 29 H 3.68291 1.48645 -1.20289 0
M  V30 END ATOM
M  V30 BEGIN BOND
M  V30 1 1 1 2
M  V30 2 2 2 3 CFG=2
M  V30 3 1 3 4
M  V30 4 1 4 5
M  V30 5 1 5 6
M  V30 6 1 5 7
M  V30 7 1 7 8
M  V30 8 1 8 9
M  V30 9 1 9 10
M  V30 10 1 10 11
M  V30 11 1 2 12
M  V30 12 1 11 5
M  V30 13 1 1 13
M  V30 14 1 1 14
M  V30 15 1 4 15
M  V30 16 1 4 16
M  V30 17 1 6 17
M  V30 18 1 7 18
M  V30 19 1 7 19
M  V30 20 1 8 20
M  V30 21 1 8 21
M  V30 22 1 9 22
M  V30 23 1 9 23
M  V30 24 1 10 24
M  V30 25 1 10 25
M  V30 26 1 11 26
M  V30 27 1 11 27
M  V30 28 1 12 28
M  V30 29 1 12 29
M  V30 END BOND
M  V30 END CTAB
M  END
