
     RDKit          3D

  0  0  0  0  0  0  0  0  0  0999 V3000
M  V30 BEGIN CTAB
M  V30 COUNTS 33 33 0 0 0
M  V30 BEGIN ATOM
M  V30 1 N -2.48939 2.70248 -0.225917 0
M  V30 2 C -2.02332 1.56006 0.533109 0
M  V30 3 C -2.65464 0.303406 -0.00492385 0
M  V30 4 C -2.21452 -0.859011 0.885663 0
M  V30 5 C -0.679646 -0.924417 0.948079 0
M  V30 6 N -0.179289 0.0812319 0.115596 0
M  V30 7 C -0.505196 1.40667 0.465073 0
M  V30 8 C 0.632819 -0.183828 -0.97978 0
M  V30 9 C 2.01478 -0.69025 -0.763576 0
M  V30 10 S 3.02667 0.404879 0.17835 0
M  V30 11 O 3.0746 1.77107 -0.386993 0
M  V30 12 O 2.4782 0.508868 1.59378 0
M  V30 13 N 4.60833 -0.29206 0.357067 0
M  V30 14 C -0.292254 -2.32746 0.671535 0
M  V30 15 H -1.69323 3.30017 -0.537065 0
M  V30 16 H -3.10716 2.44683 -1.01472 0
M  V30 17 H -2.36497 1.64181 1.60613 0
M  V30 18 H -3.74243 0.344967 0.0650984 0
M  V30 19 H -2.36093 0.121378 -1.0615 0
M  V30 20 H -2.5879 -1.76932 0.354025 0
M  V30 21 H -2.67396 -0.753123 1.86995 0
M  V30 22 H -0.44813 -0.659676 2.02563 0
M  V30 23 H -0.179212 2.0892 -0.363626 0
M  V30 24 H -0.120727 1.77876 1.42425 0
M  V30 25 H 0.743106 0.784792 -1.55726 0
M  V30 26 H 0.0588287 -0.827883 -1.71088 0
M  V30 27 H 2.09475 -1.69617 -0.310153 0
M  V30 28 H 2.48826 -0.741078 -1.79515 0
M  V30 29 H 5.25193 -0.0010686 -0.401794 0
M  V30 30 H 4.54362 -1.29867 0.537601 0
M  V30 31 H -0.153555 -2.52633 -0.396767 0
M  V30 32 H 0.585461 -2.69678 1.23521 0
M  V30 33 H -1.13088 -2.99944 1.02914 0
M  V30 END ATOM
M  V30 BEGIN BOND
M  V30 1 1 1 2
M  V30 2 1 2 3
M  V30 3 1 3 4
M  V30 4 1 4 5
M  V30 5 1 5 6
M  V30 6 1 6 7
M  V30 7 1 6 8
M  V30 8 1 8 9
M  V30 9 1 9 10
M  V30 10 2 10 11
M  V30 11 2 10 12
M  V30 12 1 10 13
M  V30 13 1 5 14
M  V30 14 1 7 2
M  V30 15 1 1 15
M  V30 16 1 1 16
M  V30 17 1 2 17
M  V30 18 1 3 18
M  V30 19 1 3 19
M  V30 20 1 4 20
M  V30 21 1 4 21
M  V30 22 1 5 22
M  V30 23 1 7 23
M  V30 24 1 7 24
M  V30 25 1 8 25
M  V30 26 1 8 26
M  V30 27 1 9 27
M  V30 28 1 9 28
M  V30 29 1 13 29
M  V30 30 1 13 30
M  V30 31 1 14 31
M  V30 32 1 14 32
M  V30 33 1 14 33
M  V30 END BOND
M  V30 END CTAB
M  END
