
     RDKit          3D

  0  0  0  0  0  0  0  0  0  0999 V3000
M  V30 BEGIN CTAB
M  V30 COUNTS 38 39 0 0 0
M  V30 BEGIN ATOM
M  V30 1 C -2.05188 -2.61887 -0.474608 0
M  V30 2 C -2.30424 -1.42234 -1.37047 0
M  V30 3 N -1.6456 -0.259982 -0.811499 0
M  V30 4 C -2.41822 0.535285 0.121459 0
M  V30 5 C -2.12225 0.761039 1.38721 0
M  V30 6 C -3.17608 1.63002 2.00171 0
M  V30 7 C -3.74891 2.31968 0.785594 0
M  V30 8 C -3.67809 1.21744 -0.247166 0
M  V30 9 C -0.323931 0.075523 -1.14681 0
M  V30 10 O 0.149316 1.1205 -0.617247 0
M  V30 11 C 0.468088 -0.734272 -2.05855 0
M  V30 12 S 1.57308 -1.92546 -1.25106 0
M  V30 13 C 2.87596 -1.0176 -0.428997 0
M  V30 14 N 2.98172 0.312843 -0.444067 0
M  V30 15 C 3.94555 1.0334 0.151682 0
M  V30 16 N 3.95081 2.4399 0.0661664 0
M  V30 17 N 4.87721 0.31635 0.817983 0
M  V30 18 C 4.85408 -1.02528 0.889117 0
M  V30 19 N 3.84307 -1.68081 0.257891 0
M  V30 20 N 5.8744 -1.69781 1.6087 0
M  V30 21 H -1.4134 -2.33998 0.385456 0
M  V30 22 H -1.51983 -3.41293 -1.04184 0
M  V30 23 H -3.03532 -2.98793 -0.116167 0
M  V30 24 H -3.42385 -1.22895 -1.43307 0
M  V30 25 H -2.00102 -1.65405 -2.38447 0
M  V30 26 H -1.24782 0.368883 1.88664 0
M  V30 27 H -2.75481 2.33817 2.72003 0
M  V30 28 H -3.93631 0.940717 2.41514 0
M  V30 29 H -4.79117 2.66575 0.951171 0
M  V30 30 H -3.0727 3.13942 0.444229 0
M  V30 31 H -3.64824 1.62339 -1.28241 0
M  V30 32 H -4.54382 0.539408 -0.0832906 0
M  V30 33 H 1.1179 -0.0472439 -2.69178 0
M  V30 34 H -0.112799 -1.30456 -2.80993 0
M  V30 35 H 3.86935 2.89642 -0.851837 0
M  V30 36 H 4.03669 3.00753 0.920719 0
M  V30 37 H 6.65558 -2.15886 1.08114 0
M  V30 38 H 5.8975 -1.76473 2.65321 0
M  V30 END ATOM
M  V30 BEGIN BOND
M  V30 1 1 1 2
M  V30 2 1 2 3
M  V30 3 1 3 4
M  V30 4 2 4 5
M  V30 5 1 5 6
M  V30 6 1 6 7
M  V30 7 1 7 8
M  V30 8 1 3 9
M  V30 9 2 9 10
M  V30 10 1 9 11
M  V30 11 1 11 12
M  V30 12 1 12 13
M  V30 13 2 13 14
M  V30 14 1 14 15
M  V30 15 1 15 16
M  V30 16 2 15 17
M  V30 17 1 17 18
M  V30 18 2 18 19
M  V30 19 1 18 20
M  V30 20 1 8 4
M  V30 21 1 19 13
M  V30 22 1 1 21
M  V30 23 1 1 22
M  V30 24 1 1 23
M  V30 25 1 2 24
M  V30 26 1 2 25
M  V30 27 1 5 26
M  V30 28 1 6 27
M  V30 29 1 6 28
M  V30 30 1 7 29
M  V30 31 1 7 30
M  V30 32 1 8 31
M  V30 33 1 8 32
M  V30 34 1 11 33
M  V30 35 1 11 34
M  V30 36 1 16 35
M  V30 37 1 16 36
M  V30 38 1 20 37
M  V30 39 1 20 38
M  V30 END BOND
M  V30 END CTAB
M  END
