
     RDKit          3D

  0  0  0  0  0  0  0  0  0  0999 V3000
M  V30 BEGIN CTAB
M  V30 COUNTS 28 29 0 0 0
M  V30 BEGIN ATOM
M  V30 1 N -5.16835 0.546423 -0.00763977 0
M  V30 2 C -3.76337 0.622379 0.00192228 0
M  V30 3 C -3.02215 0.861431 1.14753 0
M  V30 4 C -1.6567 0.932408 1.11632 0
M  V30 5 C -0.988445 0.76496 -0.0708257 0
M  V30 6 O 0.401437 0.832259 -0.142517 0
M  V30 7 C 1.25491 -0.235304 0.00441119 0
M  V30 8 C 2.61136 0.0239157 -0.0892338 0
M  V30 9 C 3.541 -0.977965 0.0446558 0
M  V30 10 N 4.92071 -0.685561 -0.0527396 0
M  V30 11 N 3.08746 -2.22298 0.270315 0
M  V30 12 C 1.78 -2.53738 0.371459 0
M  V30 13 C 0.842725 -1.52157 0.235586 0
M  V30 14 N 3.06281 1.33874 -0.325736 0 CHG=1
M  V30 15 O 3.63755 2.0778 0.665465 0 CHG=-1
M  V30 16 O 2.93751 1.83392 -1.45279 0
M  V30 17 C -1.70169 0.528181 -1.21175 0
M  V30 18 C -3.06953 0.458603 -1.17213 0
M  V30 19 H -5.62198 -0.160923 -0.620346 0
M  V30 20 H -5.75931 1.16831 0.57227 0
M  V30 21 H -3.60441 0.987476 2.07117 0
M  V30 22 H -1.08398 1.12193 2.02286 0
M  V30 23 H 5.38463 -0.206487 0.770454 0
M  V30 24 H 5.51581 -0.899448 -0.860151 0
M  V30 25 H 1.45834 -3.56755 0.556774 0
M  V30 26 H -0.204286 -1.74415 0.311405 0
M  V30 27 H -1.18966 0.392229 -2.1571 0
M  V30 28 H -3.60238 0.26835 -2.10074 0
M  V30 END ATOM
M  V30 BEGIN BOND
M  V30 1 1 1 2
M  V30 2 2 2 3
M  V30 3 1 3 4
M  V30 4 2 4 5
M  V30 5 1 5 6
M  V30 6 1 6 7
M  V30 7 2 7 8
M  V30 8 1 8 9
M  V30 9 1 9 10
M  V30 10 2 9 11
M  V30 11 1 11 12
M  V30 12 2 12 13
M  V30 13 1 8 14
M  V30 14 1 14 15
M  V30 15 2 14 16
M  V30 16 1 5 17
M  V30 17 2 17 18
M  V30 18 1 18 2
M  V30 19 1 13 7
M  V30 20 1 1 19
M  V30 21 1 1 20
M  V30 22 1 3 21
M  V30 23 1 4 22
M  V30 24 1 10 23
M  V30 25 1 10 24
M  V30 26 1 12 25
M  V30 27 1 13 26
M  V30 28 1 17 27
M  V30 29 1 18 28
M  V30 END BOND
M  V30 END CTAB
M  END
