
     RDKit          3D

  0  0  0  0  0  0  0  0  0  0999 V3000
M  V30 BEGIN CTAB
M  V30 COUNTS 45 46 0 0 0
M  V30 BEGIN ATOM
M  V30 1 N 0.146723 4.04471 1.59963 0
M  V30 2 C -0.0410852 2.93896 0.640743 0
M  V30 3 C 0.205817 1.61338 1.33382 0
M  V30 4 N 0.0563752 0.468165 0.474449 0
M  V30 5 C 1.13084 -0.0703804 -0.307812 0
M  V30 6 O 0.905657 -1.09046 -1.05599 0
M  V30 7 C 2.5015 0.436725 -0.34305 0
M  V30 8 C 3.15153 0.197781 0.999586 0
M  V30 9 C 4.3197 -0.706106 0.78057 0
M  V30 10 C 3.95153 -1.47443 -0.465105 0
M  V30 11 C 3.36196 -0.362065 -1.32111 0
M  V30 12 N 5.13027 -2.05294 -1.05629 0
M  V30 13 C -1.22023 -0.205864 0.410872 0
M  V30 14 C -2.13424 0.259993 -0.668119 0
M  V30 15 C -3.43074 -0.507918 -0.661054 0
M  V30 16 C -4.51897 -0.0878431 0.0762703 0
M  V30 17 C -5.7128 -0.799214 0.0798051 0
M  V30 18 C -5.85222 -1.95516 -0.656869 0
M  V30 19 C -4.7698 -2.38098 -1.39575 0
M  V30 20 C -3.58114 -1.66684 -1.39524 0
M  V30 21 H -0.409571 4.88135 1.27128 0
M  V30 22 H -0.330211 3.72531 2.48089 0
M  V30 23 H -1.04107 3.07355 0.244027 0
M  V30 24 H 0.754072 3.08027 -0.118103 0
M  V30 25 H 1.14207 1.65361 1.90362 0
M  V30 26 H -0.58886 1.5833 2.15199 0
M  V30 27 H 2.58606 1.48827 -0.673951 0
M  V30 28 H 3.43268 1.1522 1.49905 0
M  V30 29 H 2.4553 -0.34381 1.70635 0
M  V30 30 H 5.21447 -0.067157 0.541028 0
M  V30 31 H 4.51773 -1.37244 1.64238 0
M  V30 32 H 3.1584 -2.21339 -0.247995 0
M  V30 33 H 2.73449 -0.850689 -2.09484 0
M  V30 34 H 4.17212 0.256943 -1.75482 0
M  V30 35 H 5.85524 -2.21274 -0.32105 0
M  V30 36 H 4.89931 -2.98695 -1.48977 0
M  V30 37 H -0.984521 -1.30784 0.319875 0
M  V30 38 H -1.77783 -0.139891 1.36998 0
M  V30 39 H -2.37899 1.33088 -0.546419 0
M  V30 40 H -1.61642 0.149127 -1.65212 0
M  V30 41 H -4.40453 0.831561 0.660761 0
M  V30 42 H -6.55101 -0.444697 0.668989 0
M  V30 43 H -6.79915 -2.51881 -0.653684 0
M  V30 44 H -4.88266 -3.29139 -1.97468 0
M  V30 45 H -2.7578 -2.05605 -2.00215 0
M  V30 END ATOM
M  V30 BEGIN BOND
M  V30 1 1 1 2
M  V30 2 1 2 3
M  V30 3 1 3 4
M  V30 4 1 4 5
M  V30 5 2 5 6
M  V30 6 1 5 7
M  V30 7 1 7 8
M  V30 8 1 8 9
M  V30 9 1 9 10
M  V30 10 1 10 11
M  V30 11 1 10 12
M  V30 12 1 4 13
M  V30 13 1 13 14
M  V30 14 1 14 15
M  V30 15 2 15 16
M  V30 16 1 16 17
M  V30 17 2 17 18
M  V30 18 1 18 19
M  V30 19 2 19 20
M  V30 20 1 11 7
M  V30 21 1 20 15
M  V30 22 1 1 21
M  V30 23 1 1 22
M  V30 24 1 2 23
M  V30 25 1 2 24
M  V30 26 1 3 25
M  V30 27 1 3 26
M  V30 28 1 7 27
M  V30 29 1 8 28
M  V30 30 1 8 29
M  V30 31 1 9 30
M  V30 32 1 9 31
M  V30 33 1 10 32
M  V30 34 1 11 33
M  V30 35 1 11 34
M  V30 36 1 12 35
M  V30 37 1 12 36
M  V30 38 1 13 37
M  V30 39 1 13 38
M  V30 40 1 14 39
M  V30 41 1 14 40
M  V30 42 1 16 41
M  V30 43 1 17 42
M  V30 44 1 18 43
M  V30 45 1 19 44
M  V30 46 1 20 45
M  V30 END BOND
M  V30 END CTAB
M  END
