
     RDKit          3D

  0  0  0  0  0  0  0  0  0  0999 V3000
M  V30 BEGIN CTAB
M  V30 COUNTS 25 25 0 0 0
M  V30 BEGIN ATOM
M  V30 1 O 4.31904 0.173418 -0.0674078 0
M  V30 2 C 2.97705 -0.118854 -0.0422671 0
M  V30 3 O 2.46547 -0.773103 -1.01696 0
M  V30 4 C 2.1317 0.325419 1.11197 0
M  V30 5 C 0.735528 -0.140137 0.839012 0
M  V30 6 C 0.20061 -1.25395 1.45352 0
M  V30 7 C -1.11395 -1.6167 1.12577 0
M  V30 8 C -1.86709 -0.891318 0.215086 0
M  V30 9 C -1.31546 0.214709 -0.386102 0
M  V30 10 C -0.019206 0.578378 -0.0674471 0
M  V30 11 N 0.564069 1.71806 -0.673902 0
M  V30 12 C -2.08406 1.01566 -1.3617 0
M  V30 13 N -3.2115 -1.32688 -0.0686678 0
M  V30 14 H 4.90967 0.00860683 -0.892747 0
M  V30 15 H 2.18792 1.44347 1.13974 0
M  V30 16 H 2.55432 -0.144362 2.00857 0
M  V30 17 H 0.791178 -1.80366 2.15576 0
M  V30 18 H -1.55833 -2.47748 1.58474 0
M  V30 19 H 0.780648 1.80548 -1.67346 0
M  V30 20 H 0.793601 2.53352 -0.0579775 0
M  V30 21 H -2.90014 0.411799 -1.82851 0
M  V30 22 H -2.50566 1.94965 -0.943844 0
M  V30 23 H -1.42351 1.34356 -2.20361 0
M  V30 24 H -4.02876 -0.739154 0.220843 0
M  V30 25 H -3.38315 -2.23614 -0.570419 0
M  V30 END ATOM
M  V30 BEGIN BOND
M  V30 1 1 1 2
M  V30 2 2 2 3
M  V30 3 1 2 4
M  V30 4 1 4 5
M  V30 5 2 5 6
M  V30 6 1 6 7
M  V30 7 2 7 8
M  V30 8 1 8 9
M  V30 9 2 9 10
M  V30 10 1 10 11
M  V30 11 1 9 12
M  V30 12 1 8 13
M  V30 13 1 10 5
M  V30 14 1 1 14
M  V30 15 1 4 15
M  V30 16 1 4 16
M  V30 17 1 6 17
M  V30 18 1 7 18
M  V30 19 1 11 19
M  V30 20 1 11 20
M  V30 21 1 12 21
M  V30 22 1 12 22
M  V30 23 1 12 23
M  V30 24 1 13 24
M  V30 25 1 13 25
M  V30 END BOND
M  V30 END CTAB
M  END
