
     RDKit          3D

  0  0  0  0  0  0  0  0  0  0999 V3000
M  V30 BEGIN CTAB
M  V30 COUNTS 66 69 0 0 0
M  V30 BEGIN ATOM
M  V30 1 C -9.56468 1.30903 -2.67673 0
M  V30 2 C -8.07253 1.2089 -2.46269 0
M  V30 3 O -7.73979 1.20653 -1.08582 0
M  V30 4 C -6.39908 1.15301 -0.688544 0
M  V30 5 O -5.55048 1.11227 -1.59835 0
M  V30 6 C -6.13983 1.15276 0.761464 0 CFG=1
M  V30 7 N -7.39786 1.30479 1.51559 0
M  V30 8 C -5.42733 -0.0481857 1.30009 0
M  V30 9 C -4.09355 -0.196757 0.710618 0
M  V30 10 C -3.73813 -0.923717 -0.383583 0
M  V30 11 C -2.45177 -0.993851 -0.865562 0
M  V30 12 C -1.44009 -0.296335 -0.220807 0
M  V30 13 C -1.78049 0.442362 0.886483 0
M  V30 14 C -3.06324 0.493268 1.33949 0
M  V30 15 C -0.0757512 -0.302986 -0.708348 0
M  V30 16 N 0.2013 -0.888896 -1.9168 0
M  V30 17 C 1.44172 -0.940999 -2.42299 0
M  V30 18 N 1.66599 -1.57382 -3.70087 0
M  V30 19 N 2.46879 -0.407799 -1.7429 0
M  V30 20 C 2.31436 0.190219 -0.550595 0
M  V30 21 O 3.27044 0.703968 0.117879 0
M  V30 22 C 4.28319 1.22204 0.772594 0 CFG=2
M  V30 23 C 4.71645 0.4669 1.99112 0
M  V30 24 C 5.26876 -0.780293 1.88963 0
M  V30 25 C 5.65147 -1.4953 3.02923 0
M  V30 26 C 5.47707 -0.953289 4.27436 0
M  V30 27 Cl 5.9711 -1.87966 5.71134 0
M  V30 28 C 4.92846 0.289638 4.41577 0
M  V30 29 C 4.55316 0.984641 3.25773 0
M  V30 30 N 5.46965 -1.39565 0.624097 0
M  V30 31 C 4.95257 -2.53328 0.155812 0
M  V30 32 C 5.44003 -2.74434 -1.10597 0
M  V30 33 C 6.27471 -1.70398 -1.40664 0
M  V30 34 C 7.06204 -1.41235 -2.61533 0
M  V30 35 N 6.25449 -0.907644 -0.309634 0
M  V30 36 C 4.05817 2.72087 1.10112 0
M  V30 37 F 5.1177 3.2468 1.7592 0
M  V30 38 F 4.04541 3.31457 -0.177442 0
M  V30 39 F 2.83079 2.96115 1.62277 0
M  V30 40 C 0.985671 0.22172 -0.0553923 0
M  V30 41 H -9.85266 0.594767 -3.45532 0
M  V30 42 H -9.77754 2.36199 -2.94181 0
M  V30 43 H -10.0605 1.14487 -1.69359 0
M  V30 44 H -7.72284 0.240372 -2.87262 0
M  V30 45 H -7.55048 2.01348 -3.02412 0
M  V30 46 H -5.55748 2.10144 1.0025 0
M  V30 47 H -7.18078 1.86169 2.36922 0
M  V30 48 H -7.69066 0.330536 1.79685 0
M  V30 49 H -6.06824 -0.94821 1.13864 0
M  V30 50 H -5.30426 0.121225 2.40876 0
M  V30 51 H -4.53328 -1.48034 -0.890681 0
M  V30 52 H -2.17688 -1.57157 -1.73382 0
M  V30 53 H -0.994439 1.00472 1.40456 0
M  V30 54 H -3.27066 1.10282 2.23087 0
M  V30 55 H 1.06787 -2.37874 -3.97091 0
M  V30 56 H 2.40058 -1.23466 -4.32419 0
M  V30 57 H 5.20257 1.28748 0.112912 0
M  V30 58 H 6.08935 -2.48934 2.89968 0
M  V30 59 H 4.78836 0.72281 5.37765 0
M  V30 60 H 4.11974 1.93475 3.43689 0
M  V30 61 H 4.26904 -3.17724 0.677206 0
M  V30 62 H 5.25309 -3.55094 -1.80353 0
M  V30 63 H 7.90655 -2.14765 -2.76606 0
M  V30 64 H 7.57631 -0.432989 -2.52186 0
M  V30 65 H 6.47321 -1.43604 -3.55829 0
M  V30 66 H 0.825145 0.698469 0.917252 0
M  V30 END ATOM
M  V30 BEGIN BOND
M  V30 1 1 1 2
M  V30 2 1 2 3
M  V30 3 1 3 4
M  V30 4 2 4 5
M  V30 5 1 4 6
M  V30 6 1 6 7
M  V30 7 1 6 8
M  V30 8 1 8 9
M  V30 9 2 9 10
M  V30 10 1 10 11
M  V30 11 2 11 12
M  V30 12 1 12 13
M  V30 13 2 13 14
M  V30 14 1 12 15
M  V30 15 2 15 16
M  V30 16 1 16 17
M  V30 17 1 17 18
M  V30 18 2 17 19
M  V30 19 1 19 20
M  V30 20 1 20 21
M  V30 21 1 21 22
M  V30 22 1 22 23
M  V30 23 1 23 24
M  V30 24 2 24 25
M  V30 25 1 25 26
M  V30 26 1 26 27
M  V30 27 2 26 28
M  V30 28 1 28 29
M  V30 29 1 24 30
M  V30 30 1 30 31
M  V30 31 2 31 32
M  V30 32 1 32 33
M  V30 33 1 33 34
M  V30 34 2 33 35
M  V30 35 1 22 36
M  V30 36 1 36 37
M  V30 37 1 36 38
M  V30 38 1 36 39
M  V30 39 2 20 40
M  V30 40 1 14 9
M  V30 41 1 40 15
M  V30 42 2 29 23
M  V30 43 1 35 30
M  V30 44 1 1 41
M  V30 45 1 1 42
M  V30 46 1 1 43
M  V30 47 1 2 44
M  V30 48 1 2 45
M  V30 49 1 6 46 CFG=3
M  V30 50 1 7 47
M  V30 51 1 7 48
M  V30 52 1 8 49
M  V30 53 1 8 50
M  V30 54 1 10 51
M  V30 55 1 11 52
M  V30 56 1 13 53
M  V30 57 1 14 54
M  V30 58 1 18 55
M  V30 59 1 18 56
M  V30 60 1 22 57 CFG=3
M  V30 61 1 25 58
M  V30 62 1 28 59
M  V30 63 1 29 60
M  V30 64 1 31 61
M  V30 65 1 32 62
M  V30 66 1 34 63
M  V30 67 1 34 64
M  V30 68 1 34 65
M  V30 69 1 40 66
M  V30 END BOND
M  V30 END CTAB
M  END
