
     RDKit          3D

  0  0  0  0  0  0  0  0  0  0999 V3000
M  V30 BEGIN CTAB
M  V30 COUNTS 52 54 0 0 0
M  V30 BEGIN ATOM
M  V30 1 C -6.86169 -1.08297 -1.38376 0
M  V30 2 O -5.76345 -0.546611 -0.713226 0
M  V30 3 C -5.56021 0.777041 -0.381509 0
M  V30 4 C -4.4162 1.11469 0.277975 0
M  V30 5 C -4.19651 2.44954 0.620073 0
M  V30 6 C -5.1195 3.42574 0.299846 0
M  V30 7 C -6.28182 3.10047 -0.367237 0
M  V30 8 C -6.47417 1.77226 -0.694086 0
M  V30 9 C -3.41001 0.148004 0.643428 0
M  V30 10 C -3.76929 -1.04491 1.22823 0
M  V30 11 C -2.79429 -1.94925 1.56455 0
M  V30 12 C -1.43291 -1.6825 1.32394 0
M  V30 13 N -0.458425 -2.64064 1.69092 0
M  V30 14 C 0.793889 -2.43196 1.49248 0
M  V30 15 N 1.77067 -3.40912 1.86766 0
M  V30 16 N 1.2288 -1.21862 0.896651 0
M  V30 17 C 2.66379 -1.02851 0.714607 0
M  V30 18 C 3.05867 -1.04161 -0.722068 0
M  V30 19 N 4.47297 -0.847662 -0.857575 0
M  V30 20 C 5.16744 0.310316 -0.445383 0
M  V30 21 O 4.55641 1.26768 0.073859 0
M  V30 22 C 6.64434 0.408874 -0.624816 0
M  V30 23 C 7.10023 1.74226 -0.124912 0
M  V30 24 N 8.5161 1.95355 -0.245659 0
M  V30 25 C 0.352352 -0.182164 0.468386 0
M  V30 26 C -1.06236 -0.506659 0.745962 0
M  V30 27 C -2.07512 0.404016 0.410152 0
M  V30 28 H -6.62352 -1.45737 -2.40313 0
M  V30 29 H -7.76806 -0.456353 -1.3778 0
M  V30 30 H -7.15501 -2.01181 -0.808771 0
M  V30 31 H -3.27581 2.70424 1.14926 0
M  V30 32 H -4.93591 4.47598 0.57383 0
M  V30 33 H -7.00469 3.87927 -0.615734 0
M  V30 34 H -7.38914 1.53297 -1.21618 0
M  V30 35 H -4.82291 -1.29305 1.43442 0
M  V30 36 H -3.05244 -2.91093 2.03319 0
M  V30 37 H 2.22752 -3.45043 2.78334 0
M  V30 38 H 2.02232 -4.12014 1.146 0
M  V30 39 H 3.24232 -1.83157 1.22196 0
M  V30 40 H 2.96476 -0.0852381 1.19452 0
M  V30 41 H 2.81115 -2.0589 -1.13222 0
M  V30 42 H 2.47617 -0.281025 -1.29449 0
M  V30 43 H 5.03605 -1.62957 -1.2988 0
M  V30 44 H 6.85714 0.240301 -1.69331 0
M  V30 45 H 7.15738 -0.434184 -0.0746576 0
M  V30 46 H 6.59177 2.51495 -0.740817 0
M  V30 47 H 6.75709 1.88197 0.907102 0
M  V30 48 H 9.09284 1.36899 0.386418 0
M  V30 49 H 8.84026 2.01591 -1.21548 0
M  V30 50 H 0.436169 0.0211758 -0.623361 0
M  V30 51 H 0.592342 0.798746 0.977652 0
M  V30 52 H -1.72747 1.32481 -0.0481174 0
M  V30 END ATOM
M  V30 BEGIN BOND
M  V30 1 1 1 2
M  V30 2 1 2 3
M  V30 3 2 3 4
M  V30 4 1 4 5
M  V30 5 2 5 6
M  V30 6 1 6 7
M  V30 7 2 7 8
M  V30 8 1 4 9
M  V30 9 2 9 10
M  V30 10 1 10 11
M  V30 11 2 11 12
M  V30 12 1 12 13
M  V30 13 2 13 14
M  V30 14 1 14 15
M  V30 15 1 14 16
M  V30 16 1 16 17
M  V30 17 1 17 18
M  V30 18 1 18 19
M  V30 19 1 19 20
M  V30 20 2 20 21
M  V30 21 1 20 22
M  V30 22 1 22 23
M  V30 23 1 23 24
M  V30 24 1 16 25
M  V30 25 1 25 26
M  V30 26 2 26 27
M  V30 27 1 8 3
M  V30 28 1 27 9
M  V30 29 1 26 12
M  V30 30 1 1 28
M  V30 31 1 1 29
M  V30 32 1 1 30
M  V30 33 1 5 31
M  V30 34 1 6 32
M  V30 35 1 7 33
M  V30 36 1 8 34
M  V30 37 1 10 35
M  V30 38 1 11 36
M  V30 39 1 15 37
M  V30 40 1 15 38
M  V30 41 1 17 39
M  V30 42 1 17 40
M  V30 43 1 18 41
M  V30 44 1 18 42
M  V30 45 1 19 43
M  V30 46 1 22 44
M  V30 47 1 22 45
M  V30 48 1 23 46
M  V30 49 1 23 47
M  V30 50 1 24 48
M  V30 51 1 24 49
M  V30 52 1 25 50
M  V30 53 1 25 51
M  V30 54 1 27 52
M  V30 END BOND
M  V30 END CTAB
M  END
