
     RDKit          3D

  0  0  0  0  0  0  0  0  0  0999 V3000
M  V30 BEGIN CTAB
M  V30 COUNTS 24 24 0 0 0
M  V30 BEGIN ATOM
M  V30 1 C -5.39837 -1.05403 -0.44939 0
M  V30 2 C -4.03659 -0.521103 -0.33086 0
M  V30 3 C -2.91721 -0.0784894 -0.254 0
M  V30 4 C -1.56176 0.463984 -0.182382 0
M  V30 5 N -0.573552 -0.569208 -0.339313 0
M  V30 6 C 0.79782 -0.235737 -0.298401 0
M  V30 7 C 1.23928 1.06745 -0.110221 0
M  V30 8 C 2.58602 1.36475 -0.0744777 0
M  V30 9 N 3.00568 2.70172 0.118761 0
M  V30 10 N 3.48938 0.380739 -0.223702 0
M  V30 11 C 3.07052 -0.901104 -0.40888 0
M  V30 12 N 1.75475 -1.17834 -0.441864 0
M  V30 13 N 3.99623 -1.96864 -0.57044 0
M  V30 14 H -5.78432 -1.1692 0.587188 0
M  V30 15 H -6.04303 -0.372705 -1.06315 0
M  V30 16 H -5.4118 -2.07036 -0.900134 0
M  V30 17 H -1.38377 1.03559 0.752622 0
M  V30 18 H -1.45442 1.15436 -1.05495 0
M  V30 19 H -0.852938 -1.55238 -0.481631 0
M  V30 20 H 0.466764 1.82631 0.00529084 0
M  V30 21 H 3.391 3.07728 1.00955 0
M  V30 22 H 2.92724 3.37256 -0.688222 0
M  V30 23 H 4.76138 -1.95664 -1.27907 0
M  V30 24 H 3.93171 -2.81682 0.0340401 0
M  V30 END ATOM
M  V30 BEGIN BOND
M  V30 1 1 1 2
M  V30 2 3 2 3
M  V30 3 1 3 4
M  V30 4 1 4 5
M  V30 5 1 5 6
M  V30 6 2 6 7
M  V30 7 1 7 8
M  V30 8 1 8 9
M  V30 9 2 8 10
M  V30 10 1 10 11
M  V30 11 2 11 12
M  V30 12 1 11 13
M  V30 13 1 12 6
M  V30 14 1 1 14
M  V30 15 1 1 15
M  V30 16 1 1 16
M  V30 17 1 4 17
M  V30 18 1 4 18
M  V30 19 1 5 19
M  V30 20 1 7 20
M  V30 21 1 9 21
M  V30 22 1 9 22
M  V30 23 1 13 23
M  V30 24 1 13 24
M  V30 END BOND
M  V30 END CTAB
M  END
