
     RDKit          3D

  0  0  0  0  0  0  0  0  0  0999 V3000
M  V30 BEGIN CTAB
M  V30 COUNTS 33 34 0 0 0
M  V30 BEGIN ATOM
M  V30 1 N -3.71285 1.52274 0.0606907 0
M  V30 2 C -2.63483 0.567557 0.296803 0
M  V30 3 C -1.42267 1.37296 0.695859 0
M  V30 4 C -0.268011 0.39352 0.799902 0
M  V30 5 N 0.0174937 -0.0833951 -0.496216 0
M  V30 6 C -1.02954 -0.4907 -1.33515 0
M  V30 7 C -2.41344 -0.328547 -0.862771 0
M  V30 8 C -2.96445 -1.71435 -0.493566 0
M  V30 9 C 1.18084 0.406743 -1.14079 0
M  V30 10 C 2.43789 0.0714491 -0.393608 0
M  V30 11 C 2.61003 -0.789089 0.658062 0
M  V30 12 N 3.79609 -0.920035 1.15161 0
M  V30 13 C 4.80614 -0.229305 0.637421 0
M  V30 14 S 4.03253 0.656194 -0.616331 0
M  V30 15 N 6.17912 -0.236497 1.0403 0
M  V30 16 H -4.60817 1.00433 0.093477 0
M  V30 17 H -3.72671 2.25999 0.784737 0
M  V30 18 H -2.94891 -0.00337576 1.21552 0
M  V30 19 H -1.19495 2.19314 0.0106744 0
M  V30 20 H -1.60238 1.79804 1.69851 0
M  V30 21 H -0.540893 -0.422381 1.47143 0
M  V30 22 H 0.644331 0.926748 1.19189 0
M  V30 23 H -0.824678 -1.55903 -1.65105 0
M  V30 24 H -0.933629 0.0759036 -2.31137 0
M  V30 25 H -3.10046 0.0164493 -1.69193 0
M  V30 26 H -4.0761 -1.72269 -0.534749 0
M  V30 27 H -2.57686 -1.96373 0.51251 0
M  V30 28 H -2.56643 -2.46711 -1.20071 0
M  V30 29 H 1.22897 -0.0315585 -2.15823 0
M  V30 30 H 1.1977 1.52215 -1.25616 0
M  V30 31 H 1.73608 -1.34826 1.05582 0
M  V30 32 H 6.89719 -0.173219 0.298296 0
M  V30 33 H 6.38152 -0.304648 2.05232 0
M  V30 END ATOM
M  V30 BEGIN BOND
M  V30 1 1 1 2
M  V30 2 1 2 3
M  V30 3 1 3 4
M  V30 4 1 4 5
M  V30 5 1 5 6
M  V30 6 1 6 7
M  V30 7 1 7 8
M  V30 8 1 5 9
M  V30 9 1 9 10
M  V30 10 2 10 11
M  V30 11 1 11 12
M  V30 12 2 12 13
M  V30 13 1 13 14
M  V30 14 1 13 15
M  V30 15 1 7 2
M  V30 16 1 14 10
M  V30 17 1 1 16
M  V30 18 1 1 17
M  V30 19 1 2 18
M  V30 20 1 3 19
M  V30 21 1 3 20
M  V30 22 1 4 21
M  V30 23 1 4 22
M  V30 24 1 6 23
M  V30 25 1 6 24
M  V30 26 1 7 25
M  V30 27 1 8 26
M  V30 28 1 8 27
M  V30 29 1 8 28
M  V30 30 1 9 29
M  V30 31 1 9 30
M  V30 32 1 11 31
M  V30 33 1 15 32
M  V30 34 1 15 33
M  V30 END BOND
M  V30 END CTAB
M  END
