
     RDKit          3D

  0  0  0  0  0  0  0  0  0  0999 V3000
M  V30 BEGIN CTAB
M  V30 COUNTS 25 26 0 0 0
M  V30 BEGIN ATOM
M  V30 1 N 3.98954 -0.89439 0.315113 0
M  V30 2 C 2.67382 -1.43974 0.529063 0
M  V30 3 C 1.64497 -0.428034 0.128545 0
M  V30 4 C 1.98971 0.815022 -0.361896 0
M  V30 5 C 1.03079 1.74846 -0.731405 0
M  V30 6 C -0.316556 1.4522 -0.61579 0
M  V30 7 C -0.62804 0.205105 -0.123721 0
M  V30 8 C 0.300695 -0.721911 0.243222 0
M  V30 9 C -2.05407 -0.152772 0.0161152 0
M  V30 10 C -2.5925 -1.32438 0.478272 0
M  V30 11 N -3.89632 -1.41365 0.512185 0
M  V30 12 C -4.62663 -0.387964 0.106341 0
M  V30 13 S -3.44606 0.757834 -0.34496 0
M  V30 14 N -1.32014 2.38822 -0.986355 0
M  V30 15 H 4.66988 -1.58281 0.757879 0
M  V30 16 H 4.14232 -0.00479978 0.871637 0
M  V30 17 H 2.57264 -2.32429 -0.122861 0
M  V30 18 H 2.57923 -1.72912 1.5924 0
M  V30 19 H 3.03184 1.07015 -0.461575 0
M  V30 20 H 1.30481 2.72792 -1.11784 0
M  V30 21 H 0.0630285 -1.70937 0.632875 0
M  V30 22 H -1.96707 -2.18594 0.819186 0
M  V30 23 H -5.73211 -0.358156 0.0934305 0
M  V30 24 H -1.58304 2.49852 -1.9907 0
M  V30 25 H -1.83073 2.99389 -0.304279 0
M  V30 END ATOM
M  V30 BEGIN BOND
M  V30 1 1 1 2
M  V30 2 1 2 3
M  V30 3 2 3 4
M  V30 4 1 4 5
M  V30 5 2 5 6
M  V30 6 1 6 7
M  V30 7 2 7 8
M  V30 8 1 7 9
M  V30 9 2 9 10
M  V30 10 1 10 11
M  V30 11 2 11 12
M  V30 12 1 12 13
M  V30 13 1 6 14
M  V30 14 1 8 3
M  V30 15 1 13 9
M  V30 16 1 1 15
M  V30 17 1 1 16
M  V30 18 1 2 17
M  V30 19 1 2 18
M  V30 20 1 4 19
M  V30 21 1 5 20
M  V30 22 1 8 21
M  V30 23 1 10 22
M  V30 24 1 12 23
M  V30 25 1 14 24
M  V30 26 1 14 25
M  V30 END BOND
M  V30 END CTAB
M  END
