
     RDKit          3D

  0  0  0  0  0  0  0  0  0  0999 V3000
M  V30 BEGIN CTAB
M  V30 COUNTS 21 21 0 0 0
M  V30 BEGIN ATOM
M  V30 1 N 4.51553 0.423443 0.0742651 0
M  V30 2 N 3.18555 -0.0675788 0.0908902 0
M  V30 3 C 2.08839 0.799424 -0.013592 0
M  V30 4 O 2.30103 2.03885 -0.124119 0
M  V30 5 C 0.717406 0.348292 -0.00156991 0
M  V30 6 C -0.348949 1.23477 -0.106511 0
M  V30 7 N -1.58675 0.716379 -0.0854351 0
M  V30 8 C -1.85211 -0.575251 0.0280983 0
M  V30 9 N -0.829492 -1.42923 0.129092 0
M  V30 10 C 0.431468 -0.988277 0.115666 0
M  V30 11 C -3.23419 -1.12114 0.0485799 0
M  V30 12 N -4.21507 -0.0540224 -0.0714449 0
M  V30 13 H 4.9888 0.208428 -0.819088 0
M  V30 14 H 4.54973 1.43093 0.337577 0
M  V30 15 H 3.11949 -1.09646 0.185058 0
M  V30 16 H -0.129299 2.27053 -0.197402 0
M  V30 17 H 1.24652 -1.73012 0.201817 0
M  V30 18 H -3.43902 -1.66462 0.992454 0
M  V30 19 H -3.38949 -1.78909 -0.822235 0
M  V30 20 H -3.92816 0.551699 -0.85094 0
M  V30 21 H -4.1914 0.493057 0.830721 0
M  V30 END ATOM
M  V30 BEGIN BOND
M  V30 1 1 1 2
M  V30 2 1 2 3
M  V30 3 2 3 4
M  V30 4 1 3 5
M  V30 5 2 5 6
M  V30 6 1 6 7
M  V30 7 2 7 8
M  V30 8 1 8 9
M  V30 9 2 9 10
M  V30 10 1 8 11
M  V30 11 1 11 12
M  V30 12 1 10 5
M  V30 13 1 1 13
M  V30 14 1 1 14
M  V30 15 1 2 15
M  V30 16 1 6 16
M  V30 17 1 10 17
M  V30 18 1 11 18
M  V30 19 1 11 19
M  V30 20 1 12 20
M  V30 21 1 12 21
M  V30 END BOND
M  V30 END CTAB
M  END
