
     RDKit          3D

  0  0  0  0  0  0  0  0  0  0999 V3000
M  V30 BEGIN CTAB
M  V30 COUNTS 41 43 0 0 0
M  V30 BEGIN ATOM
M  V30 1 C -1.37805 0.754294 -2.53221 0
M  V30 2 C -1.98028 1.09194 -1.1815 0
M  V30 3 C -3.45727 1.06103 -1.17882 0
M  V30 4 C -3.98954 0.936435 0.255694 0
M  V30 5 C -3.61298 -0.456011 0.6746 0
M  V30 6 C -2.26984 -0.776212 0.410544 0
M  V30 7 N -1.42885 0.214425 -0.143586 0
M  V30 8 C -0.116656 0.388832 0.321007 0
M  V30 9 O 0.643532 1.18009 -0.380316 0
M  V30 10 C 0.540721 -0.176572 1.49075 0
M  V30 11 S 1.95303 -1.21239 1.14444 0
M  V30 12 C 3.37115 -0.325317 0.539711 0
M  V30 13 N 4.50133 -1.01908 0.217131 0
M  V30 14 C 5.62672 -0.449035 -0.231221 0
M  V30 15 N 6.78604 -1.19982 -0.558103 0
M  V30 16 N 5.61461 0.906675 -0.363816 0
M  V30 17 C 4.54417 1.63471 -0.0655565 0
M  V30 18 N 3.44766 0.998721 0.379605 0
M  V30 19 N 4.60526 3.03643 -0.228459 0
M  V30 20 C -1.83797 -2.04161 0.719104 0
M  V30 21 C -2.66072 -2.98133 1.26782 0
M  V30 22 C -3.98174 -2.6522 1.52457 0
M  V30 23 C -4.45837 -1.36635 1.2201 0
M  V30 24 H -2.08526 1.06865 -3.31221 0
M  V30 25 H -1.07374 -0.310764 -2.60833 0
M  V30 26 H -0.466398 1.37373 -2.64518 0
M  V30 27 H -1.66687 2.13238 -0.906679 0
M  V30 28 H -3.84136 0.13047 -1.69239 0
M  V30 29 H -3.92069 1.9369 -1.68638 0
M  V30 30 H -5.07027 1.10643 0.295142 0
M  V30 31 H -3.42861 1.69507 0.843021 0
M  V30 32 H 0.89929 0.67475 2.17848 0
M  V30 33 H -0.174606 -0.720671 2.12552 0
M  V30 34 H 7.5965 -0.741085 -0.996975 0
M  V30 35 H 6.79852 -2.20817 -0.34772 0
M  V30 36 H 4.13642 3.47777 -1.02479 0
M  V30 37 H 5.12366 3.60538 0.459035 0
M  V30 38 H -0.813906 -2.27933 0.50225 0
M  V30 39 H -2.34552 -3.98591 1.52097 0
M  V30 40 H -4.64065 -3.39095 1.95948 0
M  V30 41 H -5.48845 -1.11229 1.42056 0
M  V30 END ATOM
M  V30 BEGIN BOND
M  V30 1 1 1 2
M  V30 2 1 2 3
M  V30 3 1 3 4
M  V30 4 1 4 5
M  V30 5 2 5 6
M  V30 6 1 6 7
M  V30 7 1 7 8
M  V30 8 2 8 9
M  V30 9 1 8 10
M  V30 10 1 10 11
M  V30 11 1 11 12
M  V30 12 2 12 13
M  V30 13 1 13 14
M  V30 14 1 14 15
M  V30 15 2 14 16
M  V30 16 1 16 17
M  V30 17 2 17 18
M  V30 18 1 17 19
M  V30 19 1 6 20
M  V30 20 2 20 21
M  V30 21 1 21 22
M  V30 22 2 22 23
M  V30 23 1 7 2
M  V30 24 1 18 12
M  V30 25 1 23 5
M  V30 26 1 1 24
M  V30 27 1 1 25
M  V30 28 1 1 26
M  V30 29 1 2 27
M  V30 30 1 3 28
M  V30 31 1 3 29
M  V30 32 1 4 30
M  V30 33 1 4 31
M  V30 34 1 10 32
M  V30 35 1 10 33
M  V30 36 1 15 34
M  V30 37 1 15 35
M  V30 38 1 19 36
M  V30 39 1 19 37
M  V30 40 1 20 38
M  V30 41 1 21 39
M  V30 42 1 22 40
M  V30 43 1 23 41
M  V30 END BOND
M  V30 END CTAB
M  END
