
     RDKit          3D

  0  0  0  0  0  0  0  0  0  0999 V3000
M  V30 BEGIN CTAB
M  V30 COUNTS 27 29 0 0 0
M  V30 BEGIN ATOM
M  V30 1 N -5.00291 0.931782 -0.010702 0
M  V30 2 C -3.6083 0.654954 -0.0803146 0
M  V30 3 N -2.74487 1.5401 -0.598515 0
M  V30 4 C -1.40092 1.27084 -0.664505 0
M  V30 5 C -0.838655 0.108264 -0.220049 0
M  V30 6 C 0.503165 -0.0235457 -0.346652 0
M  V30 7 C 1.1727 1.03539 -0.91501 0
M  V30 8 C 2.66467 0.898288 -1.05901 0
M  V30 9 C 3.31199 0.455403 0.213465 0
M  V30 10 C 2.43565 -0.477144 1.02205 0
M  V30 11 C 1.47854 -1.13185 0.0192665 0
M  V30 12 S -0.048457 2.15541 -1.24904 0
M  V30 13 C -1.76555 -0.806685 0.320489 0
M  V30 14 N -1.35765 -2.06776 0.832883 0
M  V30 15 N -3.06976 -0.486996 0.35826 0
M  V30 16 H -5.4822 1.11971 0.89311 0
M  V30 17 H -5.55366 0.946698 -0.878356 0
M  V30 18 H 3.0657 1.91613 -1.32969 0
M  V30 19 H 2.86663 0.261618 -1.9259 0
M  V30 20 H 3.57632 1.35457 0.827969 0
M  V30 21 H 4.23169 -0.112123 -0.0457108 0
M  V30 22 H 1.81834 0.100823 1.75021 0
M  V30 23 H 3.03418 -1.23587 1.56413 0
M  V30 24 H 1.02672 -2.0253 0.396466 0
M  V30 25 H 2.10269 -1.31208 -0.891357 0
M  V30 26 H -1.21346 -2.85263 0.150443 0
M  V30 27 H -1.20258 -2.218 1.86607 0
M  V30 END ATOM
M  V30 BEGIN BOND
M  V30 1 1 1 2
M  V30 2 2 2 3
M  V30 3 1 3 4
M  V30 4 2 4 5
M  V30 5 1 5 6
M  V30 6 2 6 7
M  V30 7 1 7 8
M  V30 8 1 8 9
M  V30 9 1 9 10
M  V30 10 1 10 11
M  V30 11 1 7 12
M  V30 12 1 5 13
M  V30 13 1 13 14
M  V30 14 2 13 15
M  V30 15 1 15 2
M  V30 16 1 12 4
M  V30 17 1 11 6
M  V30 18 1 1 16
M  V30 19 1 1 17
M  V30 20 1 8 18
M  V30 21 1 8 19
M  V30 22 1 9 20
M  V30 23 1 9 21
M  V30 24 1 10 22
M  V30 25 1 10 23
M  V30 26 1 11 24
M  V30 27 1 11 25
M  V30 28 1 14 26
M  V30 29 1 14 27
M  V30 END BOND
M  V30 END CTAB
M  END
