
     RDKit          3D

  0  0  0  0  0  0  0  0  0  0999 V3000
M  V30 BEGIN CTAB
M  V30 COUNTS 55 59 0 0 0
M  V30 BEGIN ATOM
M  V30 1 N 6.41366 -1.97155 0.433249 0
M  V30 2 C 5.13714 -2.23858 -0.148876 0
M  V30 3 N 4.57871 -1.41409 -1.03618 0
M  V30 4 C 3.35736 -1.64776 -1.60676 0
M  V30 5 C 2.90225 -0.627827 -2.57056 0
M  V30 6 S 1.97195 0.720599 -1.85446 0
M  V30 7 C 0.410647 0.148634 -1.22782 0
M  V30 8 N 0.0175408 -1.13835 -1.30667 0
M  V30 9 C -1.1975 -1.53616 -0.810346 0
M  V30 10 S -2.01812 -3.03147 -0.730399 0
M  V30 11 C -3.438 -2.53901 0.0466696 0
M  V30 12 C -3.24537 -1.19906 0.233312 0
M  V30 13 C -2.07468 -0.672908 -0.214205 0
M  V30 14 C -1.64431 0.670051 -0.141577 0
M  V30 15 O -2.33919 1.57887 0.376521 0
M  V30 16 N -0.438967 1.01212 -0.644706 0
M  V30 17 C 0.00190871 2.37161 -0.571137 0
M  V30 18 C -0.186825 3.26696 -1.60155 0
M  V30 19 C 0.259277 4.5747 -1.48081 0
M  V30 20 C 0.899112 4.99177 -0.321477 0
M  V30 21 C 1.09072 4.09972 0.71313 0
M  V30 22 C 0.630466 2.80282 0.553196 0
M  V30 23 C 0.846063 1.86033 1.67561 0
M  V30 24 C 1.39718 6.37553 -0.134684 0
M  V30 25 C -4.42553 -0.536025 0.933706 0
M  V30 26 C -4.69001 -1.46191 2.13375 0
M  V30 27 C -5.40076 -2.65727 1.56511 0
M  V30 28 C -4.64711 -3.29282 0.459157 0
M  V30 29 N 2.69388 -2.74963 -1.26083 0
M  V30 30 C 3.24601 -3.5946 -0.363586 0
M  V30 31 N 4.46743 -3.3378 0.191395 0
M  V30 32 N 2.61474 -4.78314 0.0603893 0
M  V30 33 H 6.4698 -1.3468 1.25705 0
M  V30 34 H 7.28781 -2.3845 0.0560317 0
M  V30 35 H 2.31344 -1.09465 -3.41244 0
M  V30 36 H 3.79164 -0.184276 -3.08948 0
M  V30 37 H -0.680474 2.97855 -2.51787 0
M  V30 38 H 0.106132 5.25477 -2.28506 0
M  V30 39 H 1.58831 4.42123 1.61673 0
M  V30 40 H 0.803004 0.80052 1.35958 0
M  V30 41 H 0.0664062 2.10081 2.44492 0
M  V30 42 H 1.87393 2.03373 2.0484 0
M  V30 43 H 2.4943 6.38417 0.122395 0
M  V30 44 H 1.29988 6.96134 -1.06594 0
M  V30 45 H 0.831348 6.8085 0.719715 0
M  V30 46 H -5.31819 -0.570402 0.305128 0
M  V30 47 H -4.23625 0.477079 1.24139 0
M  V30 48 H -5.29381 -0.959477 2.9006 0
M  V30 49 H -3.7126 -1.81837 2.53597 0
M  V30 50 H -5.62927 -3.37307 2.40763 0
M  V30 51 H -6.40575 -2.29868 1.22751 0
M  V30 52 H -5.29031 -3.50102 -0.446642 0
M  V30 53 H -4.31713 -4.29629 0.798069 0
M  V30 54 H 2.40059 -5.52173 -0.624943 0
M  V30 55 H 2.36752 -4.91517 1.05268 0
M  V30 END ATOM
M  V30 BEGIN BOND
M  V30 1 1 1 2
M  V30 2 2 2 3
M  V30 3 1 3 4
M  V30 4 1 4 5
M  V30 5 1 5 6
M  V30 6 1 6 7
M  V30 7 2 7 8
M  V30 8 1 8 9
M  V30 9 1 9 10
M  V30 10 1 10 11
M  V30 11 2 11 12
M  V30 12 1 12 13
M  V30 13 1 13 14
M  V30 14 2 14 15
M  V30 15 1 14 16
M  V30 16 1 16 17
M  V30 17 2 17 18
M  V30 18 1 18 19
M  V30 19 2 19 20
M  V30 20 1 20 21
M  V30 21 2 21 22
M  V30 22 1 22 23
M  V30 23 1 20 24
M  V30 24 1 12 25
M  V30 25 1 25 26
M  V30 26 1 26 27
M  V30 27 1 27 28
M  V30 28 2 4 29
M  V30 29 1 29 30
M  V30 30 2 30 31
M  V30 31 1 30 32
M  V30 32 1 31 2
M  V30 33 1 16 7
M  V30 34 1 22 17
M  V30 35 2 13 9
M  V30 36 1 28 11
M  V30 37 1 1 33
M  V30 38 1 1 34
M  V30 39 1 5 35
M  V30 40 1 5 36
M  V30 41 1 18 37
M  V30 42 1 19 38
M  V30 43 1 21 39
M  V30 44 1 23 40
M  V30 45 1 23 41
M  V30 46 1 23 42
M  V30 47 1 24 43
M  V30 48 1 24 44
M  V30 49 1 24 45
M  V30 50 1 25 46
M  V30 51 1 25 47
M  V30 52 1 26 48
M  V30 53 1 26 49
M  V30 54 1 27 50
M  V30 55 1 27 51
M  V30 56 1 28 52
M  V30 57 1 28 53
M  V30 58 1 32 54
M  V30 59 1 32 55
M  V30 END BOND
M  V30 END CTAB
M  END
