
     RDKit          3D

  0  0  0  0  0  0  0  0  0  0999 V3000
M  V30 BEGIN CTAB
M  V30 COUNTS 30 32 0 0 0
M  V30 BEGIN ATOM
M  V30 1 N 5.84766 0.800053 0.646738 0
M  V30 2 C 4.44658 0.568448 0.509543 0
M  V30 3 C 3.57379 1.63629 0.345069 0
M  V30 4 C 2.22513 1.45278 0.206718 0
M  V30 5 C 1.67647 0.187193 0.225179 0
M  V30 6 C 2.54577 -0.876117 0.389274 0
M  V30 7 C 3.91836 -0.689383 0.53044 0
M  V30 8 N 0.279737 -0.00411972 0.0746103 0
M  V30 9 C -0.329695 -1.08827 -0.621595 0
M  V30 10 O 0.25334 -2.0532 -1.2066 0
M  V30 11 C -1.77746 -0.937415 -0.571161 0
M  V30 12 C -2.06088 0.211195 0.138901 0
M  V30 13 C -3.39326 0.549902 0.306641 0
M  V30 14 C -4.4176 -0.199793 -0.19673 0
M  V30 15 N -5.797 0.130791 -0.0392536 0
M  V30 16 C -4.12833 -1.34676 -0.905053 0
M  V30 17 C -2.78934 -1.71455 -1.09116 0
M  V30 18 C -0.793007 0.801135 0.546222 0
M  V30 19 O -0.640199 1.85463 1.21065 0
M  V30 20 H 6.42646 0.96466 -0.206474 0
M  V30 21 H 6.27449 0.801372 1.59172 0
M  V30 22 H 4.02563 2.62323 0.334581 0
M  V30 23 H 1.5716 2.29775 0.0794449 0
M  V30 24 H 2.20432 -1.87907 0.41111 0
M  V30 25 H 4.5894 -1.51978 0.655302 0
M  V30 26 H -3.65206 1.44587 0.8574 0
M  V30 27 H -6.467 -0.36339 0.569551 0
M  V30 28 H -6.13843 0.944632 -0.595482 0
M  V30 29 H -4.89568 -1.99399 -1.33715 0
M  V30 30 H -2.57881 -2.60407 -1.64398 0
M  V30 END ATOM
M  V30 BEGIN BOND
M  V30 1 1 1 2
M  V30 2 2 2 3
M  V30 3 1 3 4
M  V30 4 2 4 5
M  V30 5 1 5 6
M  V30 6 2 6 7
M  V30 7 1 5 8
M  V30 8 1 8 9
M  V30 9 2 9 10
M  V30 10 1 9 11
M  V30 11 2 11 12
M  V30 12 1 12 13
M  V30 13 2 13 14
M  V30 14 1 14 15
M  V30 15 1 14 16
M  V30 16 2 16 17
M  V30 17 1 12 18
M  V30 18 2 18 19
M  V30 19 1 7 2
M  V30 20 1 18 8
M  V30 21 1 17 11
M  V30 22 1 1 20
M  V30 23 1 1 21
M  V30 24 1 3 22
M  V30 25 1 4 23
M  V30 26 1 6 24
M  V30 27 1 7 25
M  V30 28 1 13 26
M  V30 29 1 15 27
M  V30 30 1 15 28
M  V30 31 1 16 29
M  V30 32 1 17 30
M  V30 END BOND
M  V30 END CTAB
M  END
