
     RDKit          3D

  0  0  0  0  0  0  0  0  0  0999 V3000
M  V30 BEGIN CTAB
M  V30 COUNTS 21 21 0 0 0
M  V30 BEGIN ATOM
M  V30 1 C -1.21821 2.55389 -0.0948203 0
M  V30 2 N -0.27129 1.4294 -0.0135635 0
M  V30 3 N 1.04247 1.5297 0.0564849 0
M  V30 4 C 1.56902 0.292082 0.117414 0
M  V30 5 C 3.01891 -0.0251115 0.20575 0
M  V30 6 C 0.542857 -0.630038 0.0843916 0
M  V30 7 N 0.638182 -2.0519 0.126193 0
M  V30 8 C -0.616467 0.124982 0.000893916 0
M  V30 9 N -1.91741 -0.403235 -0.0574479 0
M  V30 10 N -2.1403 -1.77659 -0.0345362 0
M  V30 11 H -2.15052 2.20605 0.368485 0
M  V30 12 H -0.792003 3.45727 0.399533 0
M  V30 13 H -1.39324 2.71158 -1.18462 0
M  V30 14 H 3.29521 -0.342436 1.22173 0
M  V30 15 H 3.63803 0.844039 -0.0871283 0
M  V30 16 H 3.2639 -0.848485 -0.50058 0
M  V30 17 H 1.11118 -2.51262 -0.686138 0
M  V30 18 H 0.276952 -2.63367 0.890916 0
M  V30 19 H -2.73547 0.232623 -0.118972 0
M  V30 20 H -2.09965 -2.10907 -1.02613 0
M  V30 21 H -3.06214 -2.04845 0.332144 0
M  V30 END ATOM
M  V30 BEGIN BOND
M  V30 1 1 1 2
M  V30 2 1 2 3
M  V30 3 2 3 4
M  V30 4 1 4 5
M  V30 5 1 4 6
M  V30 6 1 6 7
M  V30 7 2 6 8
M  V30 8 1 8 9
M  V30 9 1 9 10
M  V30 10 1 8 2
M  V30 11 1 1 11
M  V30 12 1 1 12
M  V30 13 1 1 13
M  V30 14 1 5 14
M  V30 15 1 5 15
M  V30 16 1 5 16
M  V30 17 1 7 17
M  V30 18 1 7 18
M  V30 19 1 9 19
M  V30 20 1 10 20
M  V30 21 1 10 21
M  V30 END BOND
M  V30 END CTAB
M  END
