
     RDKit          3D

  0  0  0  0  0  0  0  0  0  0999 V3000
M  V30 BEGIN CTAB
M  V30 COUNTS 34 34 0 0 0
M  V30 BEGIN ATOM
M  V30 1 N 2.49079 1.47075 1.72965 0
M  V30 2 C 1.68443 2.06817 0.722015 0
M  V30 3 C 1.49729 1.18746 -0.446895 0
M  V30 4 N 0.860024 -0.0911514 -0.239292 0
M  V30 5 C 1.24504 -0.852469 -1.47585 0
M  V30 6 C 1.63334 -2.24951 -1.15887 0
M  V30 7 O 0.587433 -3.07501 -0.803114 0
M  V30 8 C -0.122333 -2.39261 0.198741 0
M  V30 9 C -1.08038 -1.45871 -0.549671 0
M  V30 10 C -0.602819 -0.0044705 -0.430738 0 CFG=1
M  V30 11 C -1.37124 0.614459 0.650104 0
M  V30 12 C -2.85009 0.672627 0.264575 0
M  V30 13 N -3.61663 1.29596 1.35686 0
M  V30 14 H 3.4663 1.6762 1.62978 0
M  V30 15 H 2.28129 0.542067 2.00049 0
M  V30 16 H 2.31856 2.94633 0.333054 0
M  V30 17 H 0.845957 2.55141 1.18668 0
M  V30 18 H 2.52244 1.05047 -0.921192 0
M  V30 19 H 0.939416 1.78009 -1.24805 0
M  V30 20 H 0.469945 -0.812267 -2.24377 0
M  V30 21 H 2.14381 -0.365896 -1.93816 0
M  V30 22 H 2.38847 -2.29565 -0.341027 0
M  V30 23 H 2.09901 -2.68967 -2.05642 0
M  V30 24 H 0.586707 -1.85467 0.85234 0
M  V30 25 H -0.70075 -3.14657 0.81466 0
M  V30 26 H -1.19945 -1.72942 -1.61024 0
M  V30 27 H -2.06077 -1.61235 -0.0662202 0
M  V30 28 H -0.733921 0.460025 -1.40897 0
M  V30 29 H -1.13294 1.65674 0.928118 0
M  V30 30 H -1.35889 -0.0226209 1.58086 0
M  V30 31 H -3.29934 -0.254046 -0.0688735 0
M  V30 32 H -2.93952 1.41119 -0.599995 0
M  V30 33 H -3.91412 2.26497 1.12007 0
M  V30 34 H -3.07705 1.25816 2.23934 0
M  V30 END ATOM
M  V30 BEGIN BOND
M  V30 1 1 1 2
M  V30 2 1 2 3
M  V30 3 1 3 4
M  V30 4 1 4 5
M  V30 5 1 5 6
M  V30 6 1 6 7
M  V30 7 1 7 8
M  V30 8 1 8 9
M  V30 9 1 9 10
M  V30 10 1 10 11
M  V30 11 1 11 12
M  V30 12 1 12 13
M  V30 13 1 10 4
M  V30 14 1 1 14
M  V30 15 1 1 15
M  V30 16 1 2 16
M  V30 17 1 2 17
M  V30 18 1 3 18
M  V30 19 1 3 19
M  V30 20 1 5 20
M  V30 21 1 5 21
M  V30 22 1 6 22
M  V30 23 1 6 23
M  V30 24 1 8 24
M  V30 25 1 8 25
M  V30 26 1 9 26
M  V30 27 1 9 27
M  V30 28 1 10 28 CFG=3
M  V30 29 1 11 29
M  V30 30 1 11 30
M  V30 31 1 12 31
M  V30 32 1 12 32
M  V30 33 1 13 33
M  V30 34 1 13 34
M  V30 END BOND
M  V30 END CTAB
M  END
