
     RDKit          3D

  0  0  0  0  0  0  0  0  0  0999 V3000
M  V30 BEGIN CTAB
M  V30 COUNTS 32 34 0 0 0
M  V30 BEGIN ATOM
M  V30 1 N 5.10448 0.383192 -1.90807 0
M  V30 2 C 4.8081 0.205561 -0.516527 0
M  V30 3 N 5.77782 0.137572 0.304622 0
M  V30 4 C 3.43107 0.11224 -0.11082 0
M  V30 5 C 2.42212 0.195269 -1.06715 0
M  V30 6 C 1.08773 0.112326 -0.735913 0
M  V30 7 C 0.752836 -0.059995 0.601686 0
M  V30 8 C 1.7481 -0.142306 1.54844 0
M  V30 9 C 3.08355 -0.0588106 1.21291 0
M  V30 10 C -0.627535 -0.107698 0.628836 0
M  V30 11 C -1.13216 0.0299798 -0.645633 0
M  V30 12 N -0.0549176 0.161635 -1.44869 0
M  V30 13 C -2.49839 0.0137556 -0.875326 0
M  V30 14 C -3.42424 -0.141043 0.159759 0
M  V30 15 C -2.90867 -0.277274 1.42515 0
M  V30 16 C -1.53247 -0.26122 1.6589 0
M  V30 17 C -4.8536 -0.152372 -0.127271 0
M  V30 18 N -5.33156 -0.0063963 -1.46375 0
M  V30 19 N -5.73196 -0.291079 0.787466 0
M  V30 20 H 4.85931 1.28882 -2.36126 0
M  V30 21 H 5.55527 -0.416369 -2.39414 0
M  V30 22 H 5.75055 0.0130645 1.32806 0
M  V30 23 H 2.68581 0.331675 -2.12635 0
M  V30 24 H 1.48015 -0.275738 2.58191 0
M  V30 25 H 3.86996 -0.123936 1.96167 0
M  V30 26 H -0.129037 0.284744 -2.48781 0
M  V30 27 H -2.87994 0.122616 -1.87842 0
M  V30 28 H -3.59726 -0.398807 2.24799 0
M  V30 29 H -1.14575 -0.36991 2.66197 0
M  V30 30 H -6.20359 0.512388 -1.63758 0
M  V30 31 H -4.81865 -0.414533 -2.28545 0
M  V30 32 H -5.5471 -0.407355 1.79974 0
M  V30 END ATOM
M  V30 BEGIN BOND
M  V30 1 1 1 2
M  V30 2 2 2 3 CFG=2
M  V30 3 1 2 4
M  V30 4 2 4 5
M  V30 5 1 5 6
M  V30 6 2 6 7
M  V30 7 1 7 8
M  V30 8 2 8 9
M  V30 9 1 7 10
M  V30 10 2 10 11
M  V30 11 1 11 12
M  V30 12 1 11 13
M  V30 13 2 13 14
M  V30 14 1 14 15
M  V30 15 2 15 16
M  V30 16 1 14 17
M  V30 17 1 17 18
M  V30 18 2 17 19 CFG=2
M  V30 19 1 9 4
M  V30 20 1 16 10
M  V30 21 1 12 6
M  V30 22 1 1 20
M  V30 23 1 1 21
M  V30 24 1 3 22
M  V30 25 1 5 23
M  V30 26 1 8 24
M  V30 27 1 9 25
M  V30 28 1 12 26
M  V30 29 1 13 27
M  V30 30 1 15 28
M  V30 31 1 16 29
M  V30 32 1 18 30
M  V30 33 1 18 31
M  V30 34 1 19 32
M  V30 END BOND
M  V30 END CTAB
M  END
