
     RDKit          3D

  0  0  0  0  0  0  0  0  0  0999 V3000
M  V30 BEGIN CTAB
M  V30 COUNTS 58 60 0 0 0
M  V30 BEGIN ATOM
M  V30 1 C -8.00561 -0.503644 1.83777 0
M  V30 2 N -7.15301 0.148793 0.85692 0
M  V30 3 C -7.68517 1.46844 0.639215 0
M  V30 4 C -7.11973 -0.669288 -0.310422 0
M  V30 5 C -6.2799 -0.139522 -1.42754 0
M  V30 6 C -4.83493 0.0398771 -1.05781 0
M  V30 7 C -4.19401 -1.26409 -0.634494 0
M  V30 8 C -2.74531 -1.07552 -0.263303 0
M  V30 9 C -1.92852 -0.539601 -1.40406 0
M  V30 10 N -0.539394 -0.357731 -1.06854 0
M  V30 11 C -0.0347834 0.493165 -0.0653706 0
M  V30 12 O -0.816692 1.17552 0.622338 0
M  V30 13 C 1.39598 0.576055 0.168303 0
M  V30 14 N 2.28925 -0.136302 -0.54198 0
M  V30 15 C 3.59037 -0.0431401 -0.309504 0
M  V30 16 C 4.05972 0.796008 0.676997 0
M  V30 17 N 3.20753 1.51298 1.3965 0
M  V30 18 C 1.87891 1.42938 1.17202 0
M  V30 19 N 0.946601 2.18134 1.92284 0
M  V30 20 N 5.40349 0.84169 0.860493 0
M  V30 21 C 6.27204 0.124364 0.14223 0
M  V30 22 N 5.77324 -0.680674 -0.80895 0
M  V30 23 C 4.46445 -0.805425 -1.0776 0
M  V30 24 N 3.97517 -1.66523 -2.0892 0
M  V30 25 C 7.72867 0.206155 0.377342 0
M  V30 26 C 8.25091 1.02667 1.34824 0
M  V30 27 C 9.62893 1.07807 1.54155 0
M  V30 28 C 10.4729 0.309744 0.763696 0
M  V30 29 C 9.95802 -0.514819 -0.211009 0
M  V30 30 C 8.5977 -0.547448 -0.381549 0
M  V30 31 H -8.09926 0.0778506 2.75911 0
M  V30 32 H -9.03098 -0.530038 1.36393 0
M  V30 33 H -7.71015 -1.55987 2.00149 0
M  V30 34 H -7.78381 1.73928 -0.425575 0
M  V30 35 H -7.06436 2.18148 1.22209 0
M  V30 36 H -8.72461 1.57464 1.06795 0
M  V30 37 H -6.75861 -1.66746 -0.0339641 0
M  V30 38 H -8.15184 -0.790654 -0.689541 0
M  V30 39 H -6.31221 -0.888615 -2.25154 0
M  V30 40 H -6.65628 0.804094 -1.85797 0
M  V30 41 H -4.67084 0.836935 -0.304398 0
M  V30 42 H -4.29864 0.376442 -1.98168 0
M  V30 43 H -4.72257 -1.63515 0.265716 0
M  V30 44 H -4.24111 -1.98688 -1.44859 0
M  V30 45 H -2.35866 -2.09456 -0.0135049 0
M  V30 46 H -2.60048 -0.456287 0.619801 0
M  V30 47 H -2.2874 0.492967 -1.70485 0
M  V30 48 H -2.03162 -1.22287 -2.27227 0
M  V30 49 H 0.15464 -0.926514 -1.64121 0
M  V30 50 H 0.454376 1.74179 2.71314 0
M  V30 51 H 0.761265 3.16371 1.67994 0
M  V30 52 H 4.37501 -2.62047 -2.17277 0
M  V30 53 H 3.24324 -1.36865 -2.73344 0
M  V30 54 H 7.57216 1.61853 1.94463 0
M  V30 55 H 10.0303 1.72012 2.30057 0
M  V30 56 H 11.5604 0.342784 0.907834 0
M  V30 57 H 10.6055 -1.13309 -0.840059 0
M  V30 58 H 8.18969 -1.19732 -1.14998 0
M  V30 END ATOM
M  V30 BEGIN BOND
M  V30 1 1 1 2
M  V30 2 1 2 3
M  V30 3 1 2 4
M  V30 4 1 4 5
M  V30 5 1 5 6
M  V30 6 1 6 7
M  V30 7 1 7 8
M  V30 8 1 8 9
M  V30 9 1 9 10
M  V30 10 1 10 11
M  V30 11 2 11 12
M  V30 12 1 11 13
M  V30 13 2 13 14
M  V30 14 1 14 15
M  V30 15 2 15 16
M  V30 16 1 16 17
M  V30 17 2 17 18
M  V30 18 1 18 19
M  V30 19 1 16 20
M  V30 20 2 20 21
M  V30 21 1 21 22
M  V30 22 2 22 23
M  V30 23 1 23 24
M  V30 24 1 21 25
M  V30 25 2 25 26
M  V30 26 1 26 27
M  V30 27 2 27 28
M  V30 28 1 28 29
M  V30 29 2 29 30
M  V30 30 1 18 13
M  V30 31 1 30 25
M  V30 32 1 23 15
M  V30 33 1 1 31
M  V30 34 1 1 32
M  V30 35 1 1 33
M  V30 36 1 3 34
M  V30 37 1 3 35
M  V30 38 1 3 36
M  V30 39 1 4 37
M  V30 40 1 4 38
M  V30 41 1 5 39
M  V30 42 1 5 40
M  V30 43 1 6 41
M  V30 44 1 6 42
M  V30 45 1 7 43
M  V30 46 1 7 44
M  V30 47 1 8 45
M  V30 48 1 8 46
M  V30 49 1 9 47
M  V30 50 1 9 48
M  V30 51 1 10 49
M  V30 52 1 19 50
M  V30 53 1 19 51
M  V30 54 1 24 52
M  V30 55 1 24 53
M  V30 56 1 26 54
M  V30 57 1 27 55
M  V30 58 1 28 56
M  V30 59 1 29 57
M  V30 60 1 30 58
M  V30 END BOND
M  V30 END CTAB
M  END
