
     RDKit          3D

  0  0  0  0  0  0  0  0  0  0999 V3000
M  V30 BEGIN CTAB
M  V30 COUNTS 62 66 0 0 0
M  V30 BEGIN ATOM
M  V30 1 N 9.44801 0.571903 3.24592 0
M  V30 2 C 8.35983 0.351409 2.34417 0
M  V30 3 N 7.71107 -0.818133 2.3038 0
M  V30 4 C 6.68186 -1.01384 1.44488 0
M  V30 5 O 6.13578 -2.16696 1.49171 0
M  V30 6 N 6.26373 -0.06348 0.602747 0
M  V30 7 C 6.89856 1.11584 0.625551 0
M  V30 8 C 7.95996 1.35878 1.4916 0
M  V30 9 C 5.17869 -0.290357 -0.293084 0 CFG=1
M  V30 10 C 3.869 -0.596499 0.414739 0
M  V30 11 C 2.83372 -0.279049 -0.651341 0 CFG=2
M  V30 12 O 2.47485 -1.4233 -1.35343 0
M  V30 13 P 0.826955 -1.68482 -1.41637 0
M  V30 14 O 0.334588 -1.49931 -3.04389 0
M  V30 15 O 0.447485 -3.09164 -1.01389 0
M  V30 16 O -0.0513561 -0.631472 -0.430089 0
M  V30 17 C -1.37322 -0.553225 -0.832611 0
M  V30 18 C -2.18143 0.379872 0.0298686 0 CFG=1
M  V30 19 O -3.49502 0.462368 -0.364226 0
M  V30 20 C -4.30665 0.40517 0.743897 0 CFG=2
M  V30 21 C -3.59288 -0.61609 1.61189 0
M  V30 22 C -2.14512 -0.133181 1.44604 0 CFG=2
M  V30 23 O -2.01338 0.9607 2.29585 0
M  V30 24 N -5.62921 -0.0214684 0.412034 0
M  V30 25 C -6.18576 -1.21525 0.678495 0
M  V30 26 N -7.46214 -1.24778 0.206171 0
M  V30 27 C -7.72376 -0.0689254 -0.365445 0
M  V30 28 C -6.56588 0.683345 -0.22642 0
M  V30 29 N -6.59734 1.927 -0.736476 0
M  V30 30 C -7.66876 2.45358 -1.35479 0
M  V30 31 N -8.76811 1.68421 -1.46468 0
M  V30 32 C -8.84689 0.428342 -0.991673 0
M  V30 33 N -10.0483 -0.313817 -1.15151 0
M  V30 34 C 3.62591 0.595083 -1.59972 0 CFG=1
M  V30 35 C 2.87452 1.90053 -1.85631 0
M  V30 36 O 1.6584 1.57494 -2.44875 0
M  V30 37 O 4.84896 0.845846 -1.0095 0
M  V30 38 H 10.394 0.675748 2.84527 0
M  V30 39 H 9.29646 0.625795 4.26076 0
M  V30 40 H 6.60879 1.92851 -0.0318556 0
M  V30 41 H 8.48577 2.28308 1.53559 0
M  V30 42 H 5.41382 -1.15963 -0.956589 0
M  V30 43 H 3.74855 0.0314512 1.3017 0
M  V30 44 H 3.83599 -1.67408 0.598221 0
M  V30 45 H 1.96608 0.252959 -0.262246 0
M  V30 46 H 0.162537 -2.36025 -3.46812 0
M  V30 47 H -1.86474 -1.56065 -0.746021 0
M  V30 48 H -1.3813 -0.282642 -1.90448 0
M  V30 49 H -1.74958 1.41404 -0.0446832 0
M  V30 50 H -4.28856 1.3595 1.32634 0
M  V30 51 H -3.68515 -1.64898 1.16855 0
M  V30 52 H -3.92347 -0.580535 2.65197 0
M  V30 53 H -1.41953 -0.925565 1.61667 0
M  V30 54 H -2.28877 0.720513 3.20234 0
M  V30 55 H -5.7427 -2.0598 1.18523 0
M  V30 56 H -7.64857 3.47924 -1.75792 0
M  V30 57 H -10.217 -1.0004 -1.89305 0
M  V30 58 H -10.8118 -0.143666 -0.460738 0
M  V30 59 H 3.83282 0.0843916 -2.56744 0
M  V30 60 H 2.72355 2.41889 -0.894244 0
M  V30 61 H 3.47971 2.56279 -2.50689 0
M  V30 62 H 1.29631 2.31011 -2.98353 0
M  V30 END ATOM
M  V30 BEGIN BOND
M  V30 1 1 1 2
M  V30 2 2 2 3
M  V30 3 1 3 4
M  V30 4 2 4 5
M  V30 5 1 4 6
M  V30 6 1 6 7
M  V30 7 2 7 8
M  V30 8 1 6 9
M  V30 9 1 9 10
M  V30 10 1 10 11
M  V30 11 1 11 12
M  V30 12 1 12 13
M  V30 13 1 13 14
M  V30 14 2 13 15
M  V30 15 1 13 16
M  V30 16 1 16 17
M  V30 17 1 17 18
M  V30 18 1 18 19
M  V30 19 1 19 20
M  V30 20 1 20 21
M  V30 21 1 21 22
M  V30 22 1 22 23
M  V30 23 1 20 24
M  V30 24 1 24 25
M  V30 25 2 25 26
M  V30 26 1 26 27
M  V30 27 2 27 28
M  V30 28 1 28 29
M  V30 29 2 29 30
M  V30 30 1 30 31
M  V30 31 2 31 32
M  V30 32 1 32 33
M  V30 33 1 11 34
M  V30 34 1 34 35
M  V30 35 1 35 36
M  V30 36 1 34 37
M  V30 37 1 8 2
M  V30 38 1 37 9
M  V30 39 1 22 18
M  V30 40 1 28 24
M  V30 41 1 32 27
M  V30 42 1 1 38
M  V30 43 1 1 39
M  V30 44 1 7 40
M  V30 45 1 8 41
M  V30 46 1 9 42 CFG=3
M  V30 47 1 10 43
M  V30 48 1 10 44
M  V30 49 1 11 45 CFG=1
M  V30 50 1 14 46
M  V30 51 1 17 47
M  V30 52 1 17 48
M  V30 53 1 18 49 CFG=1
M  V30 54 1 20 50 CFG=1
M  V30 55 1 21 51
M  V30 56 1 21 52
M  V30 57 1 22 53 CFG=3
M  V30 58 1 23 54
M  V30 59 1 25 55
M  V30 60 1 30 56
M  V30 61 1 33 57
M  V30 62 1 33 58
M  V30 63 1 34 59 CFG=3
M  V30 64 1 35 60
M  V30 65 1 35 61
M  V30 66 1 36 62
M  V30 END BOND
M  V30 END CTAB
M  END
