
     RDKit          3D

  0  0  0  0  0  0  0  0  0  0999 V3000
M  V30 BEGIN CTAB
M  V30 COUNTS 37 40 0 0 0
M  V30 BEGIN ATOM
M  V30 1 N 6.52945 -0.375025 0.965053 0
M  V30 2 C 5.19962 -0.269924 0.423721 0
M  V30 3 N 4.52425 0.886736 0.486653 0
M  V30 4 C 3.26928 0.992697 -0.0220571 0
M  V30 5 N 2.55487 2.22317 0.0399204 0
M  V30 6 C 2.64553 -0.078863 -0.61885 0
M  V30 7 C 1.38302 -0.25884 -1.21756 0
M  V30 8 C 0.373319 0.80588 -1.37851 0
M  V30 9 S -1.1513 0.241511 -2.08629 0
M  V30 10 C -2.11145 -0.639043 -0.905124 0
M  V30 11 C -2.901 0.110369 -0.0143543 0
M  V30 12 C -2.90537 1.49581 -0.104646 0
M  V30 13 C -3.67297 2.26389 0.758667 0
M  V30 14 C -4.43137 1.61834 1.70845 0
M  V30 15 C -4.43359 0.254143 1.80516 0
M  V30 16 C -3.66397 -0.504913 0.938827 0
M  V30 17 C -3.63976 -1.88902 1.00534 0
M  V30 18 C -2.8764 -2.64085 0.145647 0
M  V30 19 C -2.10696 -2.0045 -0.817048 0
M  V30 20 C 1.41585 -1.57217 -1.60773 0
M  V30 21 O 2.58011 -2.13043 -1.27633 0
M  V30 22 C 3.3441 -1.25944 -0.679447 0
M  V30 23 N 4.603 -1.31932 -0.154987 0
M  V30 24 H 7.00648 -1.2758 1.03002 0
M  V30 25 H 7.02223 0.478726 1.29927 0
M  V30 26 H 2.57345 2.91961 -0.726356 0
M  V30 27 H 1.98707 2.42856 0.900018 0
M  V30 28 H 0.767717 1.63049 -2.04906 0
M  V30 29 H 0.216225 1.34715 -0.39843 0
M  V30 30 H -2.30348 1.98342 -0.856648 0
M  V30 31 H -3.68717 3.35086 0.700643 0
M  V30 32 H -5.04185 2.20475 2.39665 0
M  V30 33 H -5.0398 -0.23306 2.5624 0
M  V30 34 H -4.24929 -2.35618 1.76539 0
M  V30 35 H -2.86738 -3.70153 0.208117 0
M  V30 36 H -1.53711 -2.63109 -1.47018 0
M  V30 37 H 0.62464 -2.0961 -2.11424 0
M  V30 END ATOM
M  V30 BEGIN BOND
M  V30 1 1 1 2
M  V30 2 2 2 3
M  V30 3 1 3 4
M  V30 4 1 4 5
M  V30 5 2 4 6
M  V30 6 1 6 7
M  V30 7 1 7 8
M  V30 8 1 8 9
M  V30 9 1 9 10
M  V30 10 1 10 11
M  V30 11 2 11 12
M  V30 12 1 12 13
M  V30 13 2 13 14
M  V30 14 1 14 15
M  V30 15 2 15 16
M  V30 16 1 16 17
M  V30 17 2 17 18
M  V30 18 1 18 19
M  V30 19 2 7 20
M  V30 20 1 20 21
M  V30 21 1 21 22
M  V30 22 2 22 23
M  V30 23 1 23 2
M  V30 24 1 22 6
M  V30 25 2 19 10
M  V30 26 1 16 11
M  V30 27 1 1 24
M  V30 28 1 1 25
M  V30 29 1 5 26
M  V30 30 1 5 27
M  V30 31 1 8 28
M  V30 32 1 8 29
M  V30 33 1 12 30
M  V30 34 1 13 31
M  V30 35 1 14 32
M  V30 36 1 15 33
M  V30 37 1 17 34
M  V30 38 1 18 35
M  V30 39 1 19 36
M  V30 40 1 20 37
M  V30 END BOND
M  V30 END CTAB
M  END
