
     RDKit          3D

  0  0  0  0  0  0  0  0  0  0999 V3000
M  V30 BEGIN CTAB
M  V30 COUNTS 25 26 0 0 0
M  V30 BEGIN ATOM
M  V30 1 N 3.8322 -1.20243 -1.26982 0
M  V30 2 C 2.79786 -0.473689 -0.604325 0
M  V30 3 N 1.46906 -0.560181 -0.831324 0
M  V30 4 N 0.813512 0.265766 -0.024364 0
M  V30 5 C 1.71369 0.901814 0.740331 0
M  V30 6 N 2.9253 0.439165 0.374416 0
M  V30 7 N 1.41876 1.87453 1.73937 0
M  V30 8 C -0.62084 0.482605 0.0587644 0
M  V30 9 C -1.23012 0.0456976 -1.22541 0
M  V30 10 C -2.72937 -0.0422908 -1.01819 0
M  V30 11 S -2.73352 -0.947078 0.540372 0
M  V30 12 O -2.66364 -2.41377 0.255071 0
M  V30 13 O -3.8862 -0.574433 1.38821 0
M  V30 14 C -1.18317 -0.330484 1.17436 0
M  V30 15 H 4.00004 -1.00817 -2.27279 0
M  V30 16 H 4.36728 -1.89755 -0.702913 0
M  V30 17 H 1.086 1.6175 2.69612 0
M  V30 18 H 1.5384 2.87306 1.50934 0
M  V30 19 H -0.789264 1.57917 0.16628 0
M  V30 20 H -0.905222 -0.995637 -1.50738 0
M  V30 21 H -0.966847 0.76904 -2.00792 0
M  V30 22 H -3.17426 0.960373 -0.865059 0
M  V30 23 H -3.1902 -0.619 -1.81679 0
M  V30 24 H -1.38982 0.378627 2.02852 0
M  V30 25 H -0.499612 -1.12264 1.47515 0
M  V30 END ATOM
M  V30 BEGIN BOND
M  V30 1 1 1 2
M  V30 2 2 2 3
M  V30 3 1 3 4
M  V30 4 1 4 5
M  V30 5 2 5 6
M  V30 6 1 5 7
M  V30 7 1 4 8
M  V30 8 1 8 9
M  V30 9 1 9 10
M  V30 10 1 10 11
M  V30 11 2 11 12
M  V30 12 2 11 13
M  V30 13 1 11 14
M  V30 14 1 6 2
M  V30 15 1 14 8
M  V30 16 1 1 15
M  V30 17 1 1 16
M  V30 18 1 7 17
M  V30 19 1 7 18
M  V30 20 1 8 19
M  V30 21 1 9 20
M  V30 22 1 9 21
M  V30 23 1 10 22
M  V30 24 1 10 23
M  V30 25 1 14 24
M  V30 26 1 14 25
M  V30 END BOND
M  V30 END CTAB
M  END
