
     RDKit          3D

  0  0  0  0  0  0  0  0  0  0999 V3000
M  V30 BEGIN CTAB
M  V30 COUNTS 26 26 0 0 0
M  V30 BEGIN ATOM
M  V30 1 O 4.07064 1.02307 0.562627 0
M  V30 2 C 3.43267 0.0109443 0.249561 0
M  V30 3 C 1.95266 0.327411 0.309768 0
M  V30 4 C 1.09793 -0.864247 -0.0611487 0 CFG=1
M  V30 5 C -0.317051 -0.437102 0.0331845 0
M  V30 6 C -1.12955 -0.797062 1.0851 0
M  V30 7 C -2.46327 -0.379656 1.14962 0
M  V30 8 C -2.96566 0.409327 0.132464 0
M  V30 9 C -2.14673 0.770959 -0.925822 0
M  V30 10 C -0.838085 0.349806 -0.970027 0
M  V30 11 N -4.31319 0.822266 0.212161 0
M  V30 12 N 1.39218 -1.32305 -1.4046 0
M  V30 13 H 4.13652 1.7297 0.743633 0
M  V30 14 H 3.70403 -0.833138 0.916702 0
M  V30 15 H 3.73211 -0.255612 -0.797624 0
M  V30 16 H 1.74474 1.15785 -0.369346 0
M  V30 17 H 1.72218 0.59633 1.3594 0
M  V30 18 H 1.30859 -1.67015 0.652481 0
M  V30 19 H -0.703252 -1.4149 1.86306 0
M  V30 20 H -3.08915 -0.671672 1.9842 0
M  V30 21 H -2.52959 1.37975 -1.71338 0
M  V30 22 H -0.236389 0.647124 -1.79971 0
M  V30 23 H -5.06133 0.109985 0.127952 0
M  V30 24 H -4.55249 1.82054 0.352505 0
M  V30 25 H 1.43045 -0.510925 -2.03899 0
M  V30 26 H 0.621044 -1.99753 -1.65378 0
M  V30 END ATOM
M  V30 BEGIN BOND
M  V30 1 1 1 2
M  V30 2 1 2 3
M  V30 3 1 3 4
M  V30 4 1 4 5
M  V30 5 2 5 6
M  V30 6 1 6 7
M  V30 7 2 7 8
M  V30 8 1 8 9
M  V30 9 2 9 10
M  V30 10 1 8 11
M  V30 11 1 4 12
M  V30 12 1 10 5
M  V30 13 1 1 13
M  V30 14 1 2 14
M  V30 15 1 2 15
M  V30 16 1 3 16
M  V30 17 1 3 17
M  V30 18 1 4 18 CFG=1
M  V30 19 1 6 19
M  V30 20 1 7 20
M  V30 21 1 9 21
M  V30 22 1 10 22
M  V30 23 1 11 23
M  V30 24 1 11 24
M  V30 25 1 12 25
M  V30 26 1 12 26
M  V30 END BOND
M  V30 END CTAB
M  END
