
     RDKit          3D

  0  0  0  0  0  0  0  0  0  0999 V3000
M  V30 BEGIN CTAB
M  V30 COUNTS 29 29 0 0 0
M  V30 BEGIN ATOM
M  V30 1 N -2.92061 -0.392396 1.17342 0
M  V30 2 C -1.45635 -0.55468 1.2076 0
M  V30 3 C -0.939869 0.23147 0.0393122 0
M  V30 4 N -1.4818 -0.292855 -1.18595 0
M  V30 5 C -1.42898 1.69948 0.146569 0
M  V30 6 O -0.709491 2.29594 -0.85746 0
M  V30 7 C 0.554679 1.73305 -0.869441 0
M  V30 8 C 0.524285 0.50234 0.0204057 0
M  V30 9 C 1.42873 -0.567411 -0.415264 0
M  V30 10 C 1.30492 -1.76822 0.484043 0
M  V30 11 C 2.8943 -0.171663 -0.41434 0
M  V30 12 H -3.19211 -0.463034 0.161887 0
M  V30 13 H -3.31186 -1.2104 1.70318 0
M  V30 14 H -1.31598 -1.63661 0.947637 0
M  V30 15 H -1.03823 -0.267876 2.16536 0
M  V30 16 H -0.778065 -0.3566 -1.95576 0
M  V30 17 H -2.30466 0.287037 -1.51818 0
M  V30 18 H -1.07776 2.02565 1.15154 0
M  V30 19 H -2.50776 1.7437 0.0177036 0
M  V30 20 H 1.27936 2.4854 -0.533209 0
M  V30 21 H 0.768151 1.46422 -1.93146 0
M  V30 22 H 0.79494 0.884621 1.04241 0
M  V30 23 H 1.13981 -0.906038 -1.44512 0
M  V30 24 H 0.993761 -1.54179 1.51213 0
M  V30 25 H 2.32181 -2.27382 0.559655 0
M  V30 26 H 0.656951 -2.56079 0.0505423 0
M  V30 27 H 3.43738 -1.00867 -0.911045 0
M  V30 28 H 3.27907 -0.138066 0.625659 0
M  V30 29 H 3.08538 0.758012 -0.971822 0
M  V30 END ATOM
M  V30 BEGIN BOND
M  V30 1 1 1 2
M  V30 2 1 2 3
M  V30 3 1 3 4
M  V30 4 1 3 5
M  V30 5 1 5 6
M  V30 6 1 6 7
M  V30 7 1 7 8
M  V30 8 1 8 9
M  V30 9 1 9 10
M  V30 10 1 9 11
M  V30 11 1 8 3
M  V30 12 1 1 12
M  V30 13 1 1 13
M  V30 14 1 2 14
M  V30 15 1 2 15
M  V30 16 1 4 16
M  V30 17 1 4 17
M  V30 18 1 5 18
M  V30 19 1 5 19
M  V30 20 1 7 20
M  V30 21 1 7 21
M  V30 22 1 8 22
M  V30 23 1 9 23
M  V30 24 1 10 24
M  V30 25 1 10 25
M  V30 26 1 10 26
M  V30 27 1 11 27
M  V30 28 1 11 28
M  V30 29 1 11 29
M  V30 END BOND
M  V30 END CTAB
M  END
