
     RDKit          3D

  0  0  0  0  0  0  0  0  0  0999 V3000
M  V30 BEGIN CTAB
M  V30 COUNTS 28 29 0 0 0
M  V30 BEGIN ATOM
M  V30 1 N 5.61451 -0.604921 -0.0252811 0
M  V30 2 C 4.19716 -0.595187 -0.0514305 0
M  V30 3 C 3.49143 -1.74605 -0.306303 0
M  V30 4 C 2.10963 -1.74217 -0.332965 0
M  V30 5 C 1.39421 -0.583907 -0.104802 0
M  V30 6 N -0.0191484 -0.611654 -0.138703 0
M  V30 7 N -0.791378 0.29344 0.197761 0
M  V30 8 C -2.21209 0.247602 0.156756 0
M  V30 9 C -2.84728 1.00091 -0.808093 0
M  V30 10 O -2.10432 1.75643 -1.68145 0
M  V30 11 C -4.22728 1.02863 -0.936329 0
M  V30 12 C -4.99727 0.280088 -0.0733615 0
M  V30 13 C -4.35451 -0.486274 0.907982 0
M  V30 14 C -2.98151 -0.487143 1.0029 0
M  V30 15 C 2.13392 0.559795 0.14925 0
M  V30 16 N 1.40718 1.74594 0.383055 0
M  V30 17 N 3.49867 0.532189 0.170608 0
M  V30 18 H 6.17136 -1.45444 0.171339 0
M  V30 19 H 6.15668 0.278972 -0.210868 0
M  V30 20 H 3.99789 -2.70385 -0.49668 0
M  V30 21 H 1.53673 -2.65589 -0.535572 0
M  V30 22 H -1.09261 1.78756 -1.65038 0
M  V30 23 H -4.73162 1.6226 -1.69735 0
M  V30 24 H -6.07969 0.284483 -0.152725 0
M  V30 25 H -5.01212 -1.04865 1.55091 0
M  V30 26 H -2.52369 -1.08864 1.76992 0
M  V30 27 H 0.898738 2.22531 -0.382389 0
M  V30 28 H 1.3664 2.16483 1.33025 0
M  V30 END ATOM
M  V30 BEGIN BOND
M  V30 1 1 1 2
M  V30 2 2 2 3
M  V30 3 1 3 4
M  V30 4 2 4 5
M  V30 5 1 5 6
M  V30 6 2 6 7
M  V30 7 1 7 8
M  V30 8 2 8 9
M  V30 9 1 9 10
M  V30 10 1 9 11
M  V30 11 2 11 12
M  V30 12 1 12 13
M  V30 13 2 13 14
M  V30 14 1 5 15
M  V30 15 1 15 16
M  V30 16 2 15 17
M  V30 17 1 17 2
M  V30 18 1 14 8
M  V30 19 1 1 18
M  V30 20 1 1 19
M  V30 21 1 3 20
M  V30 22 1 4 21
M  V30 23 1 10 22
M  V30 24 1 11 23
M  V30 25 1 12 24
M  V30 26 1 13 25
M  V30 27 1 14 26
M  V30 28 1 16 27
M  V30 29 1 16 28
M  V30 END BOND
M  V30 END CTAB
M  END
