
     RDKit          3D

  0  0  0  0  0  0  0  0  0  0999 V3000
M  V30 BEGIN CTAB
M  V30 COUNTS 41 43 0 0 0
M  V30 BEGIN ATOM
M  V30 1 N 5.75396 0.430246 -0.666294 0
M  V30 2 C 4.47559 0.674482 -0.0856601 0
M  V30 3 C 3.6736 -0.572005 -0.0407646 0
M  V30 4 O 4.19119 -1.64245 -0.497866 0
M  V30 5 N 2.37492 -0.57534 0.492306 0
M  V30 6 C 1.80274 0.639777 1.00654 0
M  V30 7 C 0.348974 0.796354 0.656242 0
M  V30 8 C -0.420425 -0.467429 0.646634 0 CFG=2
M  V30 9 C 0.280276 -1.5533 -0.175129 0 CFG=2
M  V30 10 C 1.62472 -1.79578 0.52072 0
M  V30 11 C 0.452397 -1.01794 -1.5595 0
M  V30 12 O -0.368472 -2.7624 -0.116478 0
M  V30 13 N -1.81568 -0.345394 0.361395 0
M  V30 14 C -2.7478 -1.32445 0.58534 0
M  V30 15 N -3.9432 -0.868278 0.206649 0
M  V30 16 C -3.78379 0.365844 -0.246666 0
M  V30 17 C -2.45207 0.733091 -0.165157 0
M  V30 18 N -2.03492 1.95596 -0.569236 0
M  V30 19 C -2.96117 2.79928 -1.05205 0
M  V30 20 N -4.26622 2.4606 -1.14023 0
M  V30 21 C -4.71663 1.26931 -0.753953 0
M  V30 22 N -6.08791 0.902058 -0.843039 0
M  V30 23 H 5.82477 -0.43076 -1.18743 0
M  V30 24 H 6.08566 1.2317 -1.20304 0
M  V30 25 H 4.58334 1.06674 0.960179 0
M  V30 26 H 3.92662 1.43208 -0.718855 0
M  V30 27 H 1.91941 0.614279 2.1095 0
M  V30 28 H 2.41959 1.48353 0.645849 0
M  V30 29 H 0.369877 1.20721 -0.386955 0
M  V30 30 H -0.115731 1.56219 1.29318 0
M  V30 31 H -0.370223 -0.880634 1.70153 0
M  V30 32 H 2.14742 -2.63358 0.0262609 0
M  V30 33 H 1.38306 -2.05508 1.56664 0
M  V30 34 H 0.460495 -1.84096 -2.31968 0
M  V30 35 H 1.34627 -0.379405 -1.67267 0
M  V30 36 H -0.413361 -0.365751 -1.85705 0
M  V30 37 H -0.537049 -3.1407 -0.996909 0
M  V30 38 H -2.49753 -2.28964 1.00423 0
M  V30 39 H -2.70165 3.7928 -1.39407 0
M  V30 40 H -6.37518 0.0982446 -1.42201 0
M  V30 41 H -6.83584 1.4255 -0.333919 0
M  V30 END ATOM
M  V30 BEGIN BOND
M  V30 1 1 1 2
M  V30 2 1 2 3
M  V30 3 2 3 4
M  V30 4 1 3 5
M  V30 5 1 5 6
M  V30 6 1 6 7
M  V30 7 1 7 8
M  V30 8 1 8 9
M  V30 9 1 9 10
M  V30 10 1 9 11
M  V30 11 1 9 12 CFG=3
M  V30 12 1 8 13
M  V30 13 1 13 14
M  V30 14 2 14 15
M  V30 15 1 15 16
M  V30 16 2 16 17
M  V30 17 1 17 18
M  V30 18 2 18 19
M  V30 19 1 19 20
M  V30 20 2 20 21
M  V30 21 1 21 22
M  V30 22 1 10 5
M  V30 23 1 17 13
M  V30 24 1 21 16
M  V30 25 1 1 23
M  V30 26 1 1 24
M  V30 27 1 2 25
M  V30 28 1 2 26
M  V30 29 1 6 27
M  V30 30 1 6 28
M  V30 31 1 7 29
M  V30 32 1 7 30
M  V30 33 1 8 31 CFG=1
M  V30 34 1 10 32
M  V30 35 1 10 33
M  V30 36 1 11 34
M  V30 37 1 11 35
M  V30 38 1 11 36
M  V30 39 1 12 37
M  V30 40 1 14 38
M  V30 41 1 19 39
M  V30 42 1 22 40
M  V30 43 1 22 41
M  V30 END BOND
M  V30 END CTAB
M  END
