
     RDKit          3D

  0  0  0  0  0  0  0  0  0  0999 V3000
M  V30 BEGIN CTAB
M  V30 COUNTS 153 154 0 0 0
M  V30 BEGIN ATOM
M  V30 1 C 11.6028 0.381678 0.776946 0
M  V30 2 C 10.5072 1.40112 0.475781 0
M  V30 3 C 11.3045 2.73189 0.310106 0
M  V30 4 C 9.58925 1.63493 1.63796 0
M  V30 5 C 8.50958 2.59686 1.40336 0 CFG=2
M  V30 6 N 7.73326 2.85008 2.61641 0
M  V30 7 C 7.58545 4.08808 3.25691 0
M  V30 8 O 8.14531 5.10737 2.79381 0
M  V30 9 C 6.76341 4.2358 4.49864 0 CFG=2
M  V30 10 C 7.51846 4.79053 5.65859 0
M  V30 11 N 6.25981 2.91033 4.85571 0
M  V30 12 C 7.53523 2.33574 0.32668 0
M  V30 13 O 6.65211 3.27059 0.199241 0
M  V30 14 N 7.40765 1.26713 -0.546802 0
M  V30 15 C 6.37197 1.19783 -1.58686 0 CFG=1
M  V30 16 C 6.75365 0.49091 -2.80961 0
M  V30 17 C 7.16966 -0.925874 -2.72005 0
M  V30 18 C 6.19768 -1.90596 -2.18087 0
M  V30 19 C 7.50116 -1.38846 -4.1506 0
M  V30 20 C 5.01462 1.07645 -1.06563 0
M  V30 21 O 4.83325 1.13992 0.18655 0
M  V30 22 N 3.8181 0.896042 -1.84372 0
M  V30 23 C 2.52711 0.859299 -1.26613 0 CFG=1
M  V30 24 C 1.40412 1.49878 -1.97927 0
M  V30 25 C 1.00693 1.01339 -3.31343 0
M  V30 26 C 1.98339 1.07154 -4.42266 0
M  V30 27 C -0.203531 1.86306 -3.74785 0
M  V30 28 C 2.12785 -0.480782 -0.71251 0
M  V30 29 O 2.87117 -1.44576 -0.873411 0
M  V30 30 N 0.901222 -0.513262 -0.0291483 0
M  V30 31 C 0.342268 -1.73787 0.609776 0 CFG=1
M  V30 32 C 0.263564 -1.63624 2.05788 0
M  V30 33 C -0.163897 -2.84321 2.81838 0
M  V30 34 C 0.89121 -3.92433 2.53629 0
M  V30 35 N 0.603336 -5.15293 3.25315 0
M  V30 36 C 1.53908 -6.22509 3.05573 0
M  V30 37 N 2.93183 -6.0144 3.08084 0
M  V30 38 N 1.083 -7.4114 2.84849 0
M  V30 39 C -0.863628 -2.10605 -0.174707 0
M  V30 40 O -0.732365 -2.24225 -1.44952 0
M  V30 41 N -2.15298 -2.31415 0.329462 0
M  V30 42 C -3.21952 -2.69967 -0.632308 0 CFG=1
M  V30 43 C -4.19699 -3.49286 0.156245 0 CFG=1
M  V30 44 C -4.60838 -2.77625 1.43738 0
M  V30 45 O -5.27401 -3.95891 -0.523972 0
M  V30 46 C -3.79859 -1.47968 -1.23282 0
M  V30 47 O -3.45464 -0.378216 -0.652793 0
M  V30 48 N -4.64902 -1.36353 -2.33777 0
M  V30 49 C -5.23613 -2.43108 -3.1722 0
M  V30 50 C -5.22306 -1.86321 -4.58374 0
M  V30 51 C -5.09987 -0.381375 -4.44493 0
M  V30 52 C -5.08495 -0.133097 -2.93985 0 CFG=1
M  V30 53 C -6.327 0.44828 -2.46871 0
M  V30 54 O -6.78879 1.40636 -3.21449 0
M  V30 55 N -7.10291 0.145401 -1.34451 0
M  V30 56 C -8.33504 0.879222 -1.09562 0 CFG=1
M  V30 57 C -9.49326 -0.0309665 -0.870198 0
M  V30 58 C -9.37778 -0.957588 0.251389 0
M  V30 59 C -9.81388 -0.657149 1.51407 0
M  V30 60 C -9.7159 -1.51645 2.57052 0
M  V30 61 C -9.14426 -2.78156 2.38436 0
M  V30 62 O -9.07282 -3.60263 3.48038 0
M  V30 63 C -8.70297 -3.10217 1.13113 0
M  V30 64 C -8.81287 -2.2107 0.075296 0
M  V30 65 C -8.19633 1.97191 -0.122197 0
M  V30 66 O -7.13524 2.13526 0.498249 0
M  V30 67 N -9.28625 2.85017 0.102626 0
M  V30 68 C -9.26892 3.9718 1.01585 0 CFG=1
M  V30 69 C -9.28805 5.28024 0.220445 0
M  V30 70 O -9.27697 6.33509 1.11567 0
M  V30 71 C -10.4565 3.90277 1.89675 0
M  V30 72 O -10.6214 4.89956 2.86826 0
M  V30 73 O -11.2817 2.97099 1.76227 0
M  V30 74 H 12.4158 0.823226 1.38979 0
M  V30 75 H 12.0872 0.110711 -0.210086 0
M  V30 76 H 11.2356 -0.530728 1.24978 0
M  V30 77 H 10.0562 1.14432 -0.467461 0
M  V30 78 H 10.6057 3.46077 -0.120354 0
M  V30 79 H 12.1536 2.60685 -0.361958 0
M  V30 80 H 11.7076 3.03894 1.29257 0
M  V30 81 H 10.1543 1.89308 2.56611 0
M  V30 82 H 9.13404 0.624619 1.88638 0
M  V30 83 H 9.01369 3.61093 1.21172 0
M  V30 84 H 7.23168 2.01217 3.05 0
M  V30 85 H 5.88016 4.89042 4.28377 0
M  V30 86 H 7.01424 5.65678 6.13809 0
M  V30 87 H 7.61794 4.0136 6.47304 0
M  V30 88 H 8.53726 5.10676 5.3882 0
M  V30 89 H 5.28849 2.97261 5.24363 0
M  V30 90 H 6.8736 2.41841 5.51739 0
M  V30 91 H 8.02125 0.436359 -0.49611 0
M  V30 92 H 6.35462 2.33659 -1.90183 0
M  V30 93 H 5.92391 0.573194 -3.55043 0
M  V30 94 H 7.60444 1.02427 -3.34191 0
M  V30 95 H 8.13725 -1.05016 -2.18086 0
M  V30 96 H 5.3644 -2.15696 -2.90707 0
M  V30 97 H 6.76409 -2.88584 -2.12099 0
M  V30 98 H 5.83249 -1.7345 -1.15813 0
M  V30 99 H 6.55128 -1.20821 -4.73762 0
M  V30 100 H 8.29009 -0.790938 -4.6136 0
M  V30 101 H 7.65802 -2.46453 -4.1769 0
M  V30 102 H 3.99075 0.786922 -2.84676 0
M  V30 103 H 2.64084 1.45697 -0.281221 0
M  V30 104 H 1.7151 2.59464 -2.13648 0
M  V30 105 H 0.505855 1.56059 -1.3493 0
M  V30 106 H 0.59488 -0.0327455 -3.29715 0
M  V30 107 H 1.40264 1.14278 -5.39703 0
M  V30 108 H 2.51128 0.095815 -4.52554 0
M  V30 109 H 2.63178 1.95542 -4.4311 0
M  V30 110 H -0.828828 2.1201 -2.85722 0
M  V30 111 H 0.143783 2.81178 -4.20683 0
M  V30 112 H -0.807176 1.25922 -4.42725 0
M  V30 113 H 0.256062 0.31063 0.111045 0
M  V30 114 H 1.12602 -2.51246 0.343431 0
M  V30 115 H -0.333014 -0.732006 2.36868 0
M  V30 116 H 1.31872 -1.4093 2.43393 0
M  V30 117 H -1.1578 -3.225 2.71579 0
M  V30 118 H 0.0176932 -2.59723 3.91595 0
M  V30 119 H 1.88862 -3.57388 2.85031 0
M  V30 120 H 0.844422 -4.13513 1.44565 0
M  V30 121 H -0.201501 -5.31648 3.87744 0
M  V30 122 H 3.52985 -6.20353 3.92618 0
M  V30 123 H 3.48129 -5.64377 2.25092 0
M  V30 124 H 0.0741902 -7.64537 2.81479 0
M  V30 125 H -2.41941 -2.19168 1.29911 0
M  V30 126 H -2.79382 -3.27021 -1.45263 0
M  V30 127 H -3.62894 -4.40004 0.523805 0
M  V30 128 H -4.49457 -1.67884 1.36231 0
M  V30 129 H -3.95774 -3.11127 2.29168 0
M  V30 130 H -5.64708 -3.00422 1.69685 0
M  V30 131 H -5.96655 -4.38177 0.0383483 0
M  V30 132 H -4.53312 -3.27931 -3.17093 0
M  V30 133 H -6.23495 -2.71924 -2.85428 0
M  V30 134 H -6.19327 -2.14687 -5.04401 0
M  V30 135 H -4.42694 -2.29443 -5.20797 0
M  V30 136 H -5.97402 0.148063 -4.89982 0
M  V30 137 H -4.20353 0.0176344 -4.9577 0
M  V30 138 H -4.21044 0.585381 -2.80148 0
M  V30 139 H -6.81451 -0.588918 -0.686917 0
M  V30 140 H -8.5628 1.42587 -2.07926 0
M  V30 141 H -9.79769 -0.556065 -1.81173 0
M  V30 142 H -10.3799 0.644276 -0.658669 0
M  V30 143 H -10.2555 0.315362 1.66647 0
M  V30 144 H -10.074 -1.24408 3.55609 0
M  V30 145 H -8.27643 -3.61962 4.11495 0
M  V30 146 H -8.26307 -4.08819 1.0081 0
M  V30 147 H -8.44423 -2.52748 -0.884167 0
M  V30 148 H -10.1802 2.66499 -0.447654 0
M  V30 149 H -8.33103 3.94829 1.59182 0
M  V30 150 H -10.2316 5.28838 -0.37339 0
M  V30 151 H -8.42524 5.3527 -0.450453 0
M  V30 152 H -8.46738 6.40267 1.64546 0
M  V30 153 H -11.4562 5.4866 2.78395 0
M  V30 END ATOM
M  V30 BEGIN BOND
M  V30 1 1 1 2
M  V30 2 1 2 3
M  V30 3 1 2 4
M  V30 4 1 4 5
M  V30 5 1 5 6
M  V30 6 1 6 7
M  V30 7 2 7 8
M  V30 8 1 7 9
M  V30 9 1 9 10
M  V30 10 1 9 11
M  V30 11 1 5 12
M  V30 12 2 12 13
M  V30 13 1 12 14
M  V30 14 1 14 15
M  V30 15 1 15 16
M  V30 16 1 16 17
M  V30 17 1 17 18
M  V30 18 1 17 19
M  V30 19 1 15 20
M  V30 20 2 20 21
M  V30 21 1 20 22
M  V30 22 1 22 23
M  V30 23 1 23 24
M  V30 24 1 24 25
M  V30 25 1 25 26
M  V30 26 1 25 27
M  V30 27 1 23 28
M  V30 28 2 28 29
M  V30 29 1 28 30
M  V30 30 1 30 31
M  V30 31 1 31 32
M  V30 32 1 32 33
M  V30 33 1 33 34
M  V30 34 1 34 35
M  V30 35 1 35 36
M  V30 36 1 36 37
M  V30 37 2 36 38 CFG=2
M  V30 38 1 31 39
M  V30 39 2 39 40
M  V30 40 1 39 41
M  V30 41 1 41 42
M  V30 42 1 42 43
M  V30 43 1 43 44
M  V30 44 1 43 45
M  V30 45 1 42 46
M  V30 46 2 46 47
M  V30 47 1 46 48
M  V30 48 1 48 49
M  V30 49 1 49 50
M  V30 50 1 50 51
M  V30 51 1 51 52
M  V30 52 1 52 53
M  V30 53 2 53 54
M  V30 54 1 53 55
M  V30 55 1 55 56
M  V30 56 1 56 57
M  V30 57 1 57 58
M  V30 58 2 58 59
M  V30 59 1 59 60
M  V30 60 2 60 61
M  V30 61 1 61 62
M  V30 62 1 61 63
M  V30 63 2 63 64
M  V30 64 1 56 65
M  V30 65 2 65 66
M  V30 66 1 65 67
M  V30 67 1 67 68
M  V30 68 1 68 69
M  V30 69 1 69 70
M  V30 70 1 68 71
M  V30 71 1 71 72
M  V30 72 2 71 73
M  V30 73 1 52 48
M  V30 74 1 64 58
M  V30 75 1 1 74
M  V30 76 1 1 75
M  V30 77 1 1 76
M  V30 78 1 2 77
M  V30 79 1 3 78
M  V30 80 1 3 79
M  V30 81 1 3 80
M  V30 82 1 4 81
M  V30 83 1 4 82
M  V30 84 1 5 83 CFG=3
M  V30 85 1 6 84
M  V30 86 1 9 85 CFG=3
M  V30 87 1 10 86
M  V30 88 1 10 87
M  V30 89 1 10 88
M  V30 90 1 11 89
M  V30 91 1 11 90
M  V30 92 1 14 91
M  V30 93 1 15 92 CFG=3
M  V30 94 1 16 93
M  V30 95 1 16 94
M  V30 96 1 17 95
M  V30 97 1 18 96
M  V30 98 1 18 97
M  V30 99 1 18 98
M  V30 100 1 19 99
M  V30 101 1 19 100
M  V30 102 1 19 101
M  V30 103 1 22 102
M  V30 104 1 23 103 CFG=1
M  V30 105 1 24 104
M  V30 106 1 24 105
M  V30 107 1 25 106
M  V30 108 1 26 107
M  V30 109 1 26 108
M  V30 110 1 26 109
M  V30 111 1 27 110
M  V30 112 1 27 111
M  V30 113 1 27 112
M  V30 114 1 30 113
M  V30 115 1 31 114 CFG=1
M  V30 116 1 32 115
M  V30 117 1 32 116
M  V30 118 1 33 117
M  V30 119 1 33 118
M  V30 120 1 34 119
M  V30 121 1 34 120
M  V30 122 1 35 121
M  V30 123 1 37 122
M  V30 124 1 37 123
M  V30 125 1 38 124
M  V30 126 1 41 125
M  V30 127 1 42 126 CFG=3
M  V30 128 1 43 127 CFG=1
M  V30 129 1 44 128
M  V30 130 1 44 129
M  V30 131 1 44 130
M  V30 132 1 45 131
M  V30 133 1 49 132
M  V30 134 1 49 133
M  V30 135 1 50 134
M  V30 136 1 50 135
M  V30 137 1 51 136
M  V30 138 1 51 137
M  V30 139 1 52 138 CFG=3
M  V30 140 1 55 139
M  V30 141 1 56 140 CFG=3
M  V30 142 1 57 141
M  V30 143 1 57 142
M  V30 144 1 59 143
M  V30 145 1 60 144
M  V30 146 1 62 145
M  V30 147 1 63 146
M  V30 148 1 64 147
M  V30 149 1 67 148
M  V30 150 1 68 149 CFG=1
M  V30 151 1 69 150
M  V30 152 1 69 151
M  V30 153 1 70 152
M  V30 154 1 72 153
M  V30 END BOND
M  V30 END CTAB
M  END
