
     RDKit          3D

  0  0  0  0  0  0  0  0  0  0999 V3000
M  V30 BEGIN CTAB
M  V30 COUNTS 45 47 0 0 0
M  V30 BEGIN ATOM
M  V30 1 C -2.23057 0.682662 1.73647 0
M  V30 2 C -2.94253 0.939248 0.401087 0
M  V30 3 C -2.52202 2.31335 -0.0451339 0
M  V30 4 N -4.35138 0.971236 0.703347 0
M  V30 5 C -5.24336 0.196585 0.2383 0
M  V30 6 N -6.58062 0.381152 0.652923 0
M  V30 7 N -4.84612 -0.812984 -0.677067 0
M  V30 8 C -3.61187 -0.957135 -1.04196 0
M  V30 9 N -3.34138 -1.99909 -1.95839 0
M  V30 10 N -2.60032 -0.0983024 -0.536547 0
M  V30 11 C -1.25547 -0.256047 -0.951972 0
M  V30 12 C -0.386278 -1.072 -0.276003 0
M  V30 13 C 0.948196 -1.20543 -0.719036 0
M  V30 14 S 2.03515 -2.28646 0.122556 0
M  V30 15 C 3.7709 -2.1613 -0.254727 0
M  V30 16 C 4.42998 -0.931887 0.316576 0
M  V30 17 C 4.86475 -0.942533 1.63134 0
M  V30 18 C 5.48962 0.127987 2.19803 0
M  V30 19 C 5.71106 1.27989 1.45753 0
M  V30 20 Cl 6.52149 2.64759 2.21847 0
M  V30 21 C 5.2895 1.30668 0.161765 0
M  V30 22 C 4.6499 0.199717 -0.405224 0
M  V30 23 C 1.33362 -0.500238 -1.83306 0
M  V30 24 C 0.461961 0.333223 -2.53012 0
M  V30 25 C -0.832355 0.438404 -2.0672 0
M  V30 26 H -1.15718 0.865749 1.67626 0
M  V30 27 H -2.69374 1.3359 2.50795 0
M  V30 28 H -2.47426 -0.360883 2.02983 0
M  V30 29 H -1.45684 2.49972 0.260619 0
M  V30 30 H -2.72648 2.53827 -1.08854 0
M  V30 31 H -3.11111 3.0537 0.57186 0
M  V30 32 H -7.21305 0.969132 0.0869451 0
M  V30 33 H -6.93666 -0.0629232 1.51383 0
M  V30 34 H -3.61524 -1.90322 -2.94861 0
M  V30 35 H -2.86784 -2.86377 -1.64405 0
M  V30 36 H -0.691912 -1.62004 0.590979 0
M  V30 37 H 3.98423 -2.15405 -1.35762 0
M  V30 38 H 4.30811 -3.04836 0.147339 0
M  V30 39 H 4.69594 -1.83064 2.20785 0
M  V30 40 H 5.83716 0.12392 3.24332 0
M  V30 41 H 5.44757 2.19867 -0.45111 0
M  V30 42 H 4.34787 0.288008 -1.44942 0
M  V30 43 H 2.32703 -0.5877 -2.22308 0
M  V30 44 H 0.778251 0.885276 -3.40762 0
M  V30 45 H -1.54371 1.07891 -2.58359 0
M  V30 END ATOM
M  V30 BEGIN BOND
M  V30 1 1 1 2
M  V30 2 1 2 3
M  V30 3 1 2 4
M  V30 4 2 4 5
M  V30 5 1 5 6
M  V30 6 1 5 7
M  V30 7 2 7 8
M  V30 8 1 8 9
M  V30 9 1 8 10
M  V30 10 1 10 11
M  V30 11 2 11 12
M  V30 12 1 12 13
M  V30 13 1 13 14
M  V30 14 1 14 15
M  V30 15 1 15 16
M  V30 16 2 16 17
M  V30 17 1 17 18
M  V30 18 2 18 19
M  V30 19 1 19 20
M  V30 20 1 19 21
M  V30 21 2 21 22
M  V30 22 2 13 23
M  V30 23 1 23 24
M  V30 24 2 24 25
M  V30 25 1 10 2
M  V30 26 1 25 11
M  V30 27 1 22 16
M  V30 28 1 1 26
M  V30 29 1 1 27
M  V30 30 1 1 28
M  V30 31 1 3 29
M  V30 32 1 3 30
M  V30 33 1 3 31
M  V30 34 1 6 32
M  V30 35 1 6 33
M  V30 36 1 9 34
M  V30 37 1 9 35
M  V30 38 1 12 36
M  V30 39 1 15 37
M  V30 40 1 15 38
M  V30 41 1 17 39
M  V30 42 1 18 40
M  V30 43 1 21 41
M  V30 44 1 22 42
M  V30 45 1 23 43
M  V30 46 1 24 44
M  V30 47 1 25 45
M  V30 END BOND
M  V30 END CTAB
M  END
