
     RDKit          3D

  0  0  0  0  0  0  0  0  0  0999 V3000
M  V30 BEGIN CTAB
M  V30 COUNTS 21 22 0 0 0
M  V30 BEGIN ATOM
M  V30 1 N 3.21912 1.28423 -0.298876 0
M  V30 2 C 2.06029 0.456192 -0.1053 0
M  V30 3 C 2.23803 -0.882664 0.210395 0
M  V30 4 C 1.12901 -1.681 0.397043 0
M  V30 5 C -0.110274 -1.0791 0.253605 0
M  V30 6 C -0.249472 0.255496 -0.0610314 0
M  V30 7 N 0.839647 1.00404 -0.23598 0
M  V30 8 C -1.47689 0.875417 -0.208708 0
M  V30 9 N -1.58355 2.25278 -0.533365 0
M  V30 10 C -2.60185 0.0933318 -0.0259176 0
M  V30 11 C -2.49903 -1.26016 0.293125 0
M  V30 12 C -1.26046 -1.84818 0.4333 0
M  V30 13 H 4.17242 0.891662 -0.174682 0
M  V30 14 H 3.12202 2.26846 -0.560783 0
M  V30 15 H 3.23131 -1.27278 0.303621 0
M  V30 16 H 1.20795 -2.73388 0.645245 0
M  V30 17 H -2.41925 2.78793 -0.22995 0
M  V30 18 H -0.844065 2.71985 -1.06296 0
M  V30 19 H -3.55629 0.566531 -0.138663 0
M  V30 20 H -3.43028 -1.80445 0.420141 0
M  V30 21 H -1.18839 -2.8937 0.679737 0
M  V30 END ATOM
M  V30 BEGIN BOND
M  V30 1 1 1 2
M  V30 2 2 2 3
M  V30 3 1 3 4
M  V30 4 2 4 5
M  V30 5 1 5 6
M  V30 6 2 6 7
M  V30 7 1 6 8
M  V30 8 1 8 9
M  V30 9 2 8 10
M  V30 10 1 10 11
M  V30 11 2 11 12
M  V30 12 1 7 2
M  V30 13 1 12 5
M  V30 14 1 1 13
M  V30 15 1 1 14
M  V30 16 1 3 15
M  V30 17 1 4 16
M  V30 18 1 9 17
M  V30 19 1 9 18
M  V30 20 1 10 19
M  V30 21 1 11 20
M  V30 22 1 12 21
M  V30 END BOND
M  V30 END CTAB
M  END
