
     RDKit          3D

  0  0  0  0  0  0  0  0  0  0999 V3000
M  V30 BEGIN CTAB
M  V30 COUNTS 21 21 0 0 0
M  V30 BEGIN ATOM
M  V30 1 C -1.99117 1.68511 1.41103 0
M  V30 2 C -1.16358 0.71683 0.650734 0
M  V30 3 C -1.73196 -0.368256 0.017618 0
M  V30 4 C -0.932456 -1.24878 -0.680597 0
M  V30 5 N -1.5403 -2.37564 -1.33552 0
M  V30 6 N 0.39329 -1.06279 -0.751797 0
M  V30 7 C 0.965617 0.00921812 -0.127892 0
M  V30 8 C 0.199694 0.910238 0.578939 0
M  V30 9 C 2.39948 0.159604 -0.23837 0
M  V30 10 N 3.00652 1.12406 0.309455 0
M  V30 11 N 3.17864 -0.770428 -0.966277 0
M  V30 12 H -2.06967 2.60772 0.800414 0
M  V30 13 H -3.03132 1.30709 1.52977 0
M  V30 14 H -1.48516 1.84975 2.37776 0
M  V30 15 H -2.80895 -0.480265 0.101243 0
M  V30 16 H -1.15671 -3.3401 -1.24205 0
M  V30 17 H -2.38599 -2.19162 -1.91232 0
M  V30 18 H 0.613055 1.77261 1.08772 0
M  V30 19 H 2.60227 1.88918 0.873641 0
M  V30 20 H 3.77967 -0.416612 -1.73004 0
M  V30 21 H 3.15903 -1.77691 -0.753468 0
M  V30 END ATOM
M  V30 BEGIN BOND
M  V30 1 1 1 2
M  V30 2 2 2 3
M  V30 3 1 3 4
M  V30 4 1 4 5
M  V30 5 2 4 6
M  V30 6 1 6 7
M  V30 7 2 7 8
M  V30 8 1 7 9
M  V30 9 2 9 10 CFG=2
M  V30 10 1 9 11
M  V30 11 1 8 2
M  V30 12 1 1 12
M  V30 13 1 1 13
M  V30 14 1 1 14
M  V30 15 1 3 15
M  V30 16 1 5 16
M  V30 17 1 5 17
M  V30 18 1 8 18
M  V30 19 1 10 19
M  V30 20 1 11 20
M  V30 21 1 11 21
M  V30 END BOND
M  V30 END CTAB
M  END
