
     RDKit          3D

  0  0  0  0  0  0  0  0  0  0999 V3000
M  V30 BEGIN CTAB
M  V30 COUNTS 47 48 0 0 0
M  V30 BEGIN ATOM
M  V30 1 C -1.3333 -2.92799 1.59764 0
M  V30 2 C -1.11782 -1.41808 1.40812 0
M  V30 3 C 0.360851 -1.1886 1.62372 0
M  V30 4 N 1.0823 -1.00459 0.389629 0
M  V30 5 C 0.646985 -1.46017 -0.910428 0
M  V30 6 C -0.822567 -1.70056 -1.00523 0
M  V30 7 N -1.56024 -1.07568 0.0996655 0
M  V30 8 C -2.64089 -0.191918 -0.186196 0
M  V30 9 N -2.9869 0.0708384 -1.47874 0
M  V30 10 C -3.99356 0.893061 -1.81949 0
M  V30 11 C -4.76 1.53943 -0.872676 0
M  V30 12 C -4.44294 1.30095 0.447982 0
M  V30 13 C -3.38924 0.439911 0.779698 0
M  V30 14 N -5.21432 1.95219 1.43638 0
M  V30 15 N -5.83166 2.41492 -1.23275 0
M  V30 16 C 2.32263 -0.319463 0.458761 0
M  V30 17 O 2.80474 0.125454 1.54796 0
M  V30 18 O 3.11238 -0.0800544 -0.66796 0
M  V30 19 C 4.33681 0.589187 -0.641436 0
M  V30 20 C 5.35454 -0.0958748 0.232561 0
M  V30 21 C 4.82905 0.66328 -2.09392 0
M  V30 22 C 4.22434 2.02275 -0.169419 0
M  V30 23 H -0.672501 -3.46909 0.868277 0
M  V30 24 H -2.39634 -3.18776 1.48039 0
M  V30 25 H -0.970834 -3.14618 2.62423 0
M  V30 26 H -1.63496 -0.945568 2.24661 0
M  V30 27 H 0.54901 -0.298389 2.26875 0
M  V30 28 H 0.851278 -2.04848 2.14909 0
M  V30 29 H 1.02577 -0.78706 -1.71857 0
M  V30 30 H 1.17318 -2.43797 -1.08535 0
M  V30 31 H -1.1807 -1.24267 -1.94734 0
M  V30 32 H -1.08368 -2.77921 -1.05469 0
M  V30 33 H -4.2378 1.0763 -2.86581 0
M  V30 34 H -3.172 0.278632 1.81633 0
M  V30 35 H -5.22746 3.00599 1.40787 0
M  V30 36 H -5.7439 1.41782 2.1576 0
M  V30 37 H -6.82218 2.16735 -1.15363 0
M  V30 38 H -5.60834 3.37219 -1.60206 0
M  V30 39 H 5.20616 -1.20008 0.254624 0
M  V30 40 H 6.36515 0.142373 -0.202376 0
M  V30 41 H 5.25018 0.304739 1.25611 0
M  V30 42 H 5.48371 1.53216 -2.23258 0
M  V30 43 H 5.26156 -0.283593 -2.43118 0
M  V30 44 H 3.91184 0.838518 -2.70587 0
M  V30 45 H 4.18294 2.11429 0.926858 0
M  V30 46 H 5.14854 2.53983 -0.504888 0
M  V30 47 H 3.36019 2.48688 -0.687917 0
M  V30 END ATOM
M  V30 BEGIN BOND
M  V30 1 1 1 2
M  V30 2 1 2 3
M  V30 3 1 3 4
M  V30 4 1 4 5
M  V30 5 1 5 6
M  V30 6 1 6 7
M  V30 7 1 7 8
M  V30 8 2 8 9
M  V30 9 1 9 10
M  V30 10 2 10 11
M  V30 11 1 11 12
M  V30 12 2 12 13
M  V30 13 1 12 14
M  V30 14 1 11 15
M  V30 15 1 4 16
M  V30 16 2 16 17
M  V30 17 1 16 18
M  V30 18 1 18 19
M  V30 19 1 19 20
M  V30 20 1 19 21
M  V30 21 1 19 22
M  V30 22 1 7 2
M  V30 23 1 13 8
M  V30 24 1 1 23
M  V30 25 1 1 24
M  V30 26 1 1 25
M  V30 27 1 2 26
M  V30 28 1 3 27
M  V30 29 1 3 28
M  V30 30 1 5 29
M  V30 31 1 5 30
M  V30 32 1 6 31
M  V30 33 1 6 32
M  V30 34 1 10 33
M  V30 35 1 13 34
M  V30 36 1 14 35
M  V30 37 1 14 36
M  V30 38 1 15 37
M  V30 39 1 15 38
M  V30 40 1 20 39
M  V30 41 1 20 40
M  V30 42 1 20 41
M  V30 43 1 21 42
M  V30 44 1 21 43
M  V30 45 1 21 44
M  V30 46 1 22 45
M  V30 47 1 22 46
M  V30 48 1 22 47
M  V30 END BOND
M  V30 END CTAB
M  END
