
     RDKit          3D

  0  0  0  0  0  0  0  0  0  0999 V3000
M  V30 BEGIN CTAB
M  V30 COUNTS 48 51 0 0 0
M  V30 BEGIN ATOM
M  V30 1 N -5.30981 1.52535 -0.217764 0
M  V30 2 C -4.87159 1.28926 1.11395 0
M  V30 3 C -3.9796 0.083125 1.30311 0
M  V30 4 C -4.59493 -1.21151 0.913124 0
M  V30 5 C -4.63783 -1.4189 -0.555281 0
M  V30 6 C -3.42615 -0.938384 -1.28481 0
M  V30 7 C -2.38265 -0.29662 -0.481317 0
M  V30 8 N -2.66193 0.232978 0.791036 0
M  V30 9 C -1.69035 -0.17312 1.78647 0
M  V30 10 C -0.29069 -0.00863218 1.37622 0
M  V30 11 N 0.15011 0.747234 0.388559 0
M  V30 12 C 1.41817 0.881446 0.0324866 0
M  V30 13 N 1.68209 1.75121 -1.06246 0
M  V30 14 C 2.43501 0.191839 0.717899 0
M  V30 15 C 1.99185 -0.592563 1.74089 0
M  V30 16 N 0.664531 -0.692333 2.06405 0
M  V30 17 S 3.42867 -1.27691 2.35917 0
M  V30 18 C 4.55417 -0.561997 1.31821 0
M  V30 19 C 3.76716 0.218853 0.484208 0
M  V30 20 C 4.62718 0.948238 -0.539062 0
M  V30 21 C 5.40992 -0.14734 -1.24651 0
M  V30 22 C 6.39655 -0.809763 -0.326309 0
M  V30 23 C 6.0562 -0.589479 1.13028 0
M  V30 24 H -6.2716 1.95615 -0.172971 0
M  V30 25 H -4.7215 2.2649 -0.703854 0
M  V30 26 H -4.33132 2.19225 1.46537 0
M  V30 27 H -5.72519 1.16868 1.83963 0
M  V30 28 H -3.87942 0.0255475 2.43464 0
M  V30 29 H -4.04574 -2.02653 1.4456 0
M  V30 30 H -5.64849 -1.21605 1.29429 0
M  V30 31 H -5.58065 -0.940659 -0.942479 0
M  V30 32 H -4.83509 -2.52237 -0.717797 0
M  V30 33 H -3.01833 -1.83381 -1.84807 0
M  V30 34 H -3.78177 -0.275248 -2.12746 0
M  V30 35 H -1.92989 0.525698 -1.10709 0
M  V30 36 H -1.53264 -1.0357 -0.368053 0
M  V30 37 H -1.89429 -1.23677 2.10182 0
M  V30 38 H -1.90118 0.4431 2.69521 0
M  V30 39 H 1.6467 1.35394 -2.03484 0
M  V30 40 H 1.90066 2.74327 -0.885673 0
M  V30 41 H 4.07659 1.48574 -1.28136 0
M  V30 42 H 5.37016 1.58901 -0.0234077 0
M  V30 43 H 5.99553 0.351536 -2.05046 0
M  V30 44 H 4.70901 -0.826624 -1.72994 0
M  V30 45 H 6.36279 -1.90265 -0.515002 0
M  V30 46 H 7.43472 -0.484552 -0.526049 0
M  V30 47 H 6.41845 0.411058 1.42371 0
M  V30 48 H 6.44641 -1.36191 1.79347 0
M  V30 END ATOM
M  V30 BEGIN BOND
M  V30 1 1 1 2
M  V30 2 1 2 3
M  V30 3 1 3 4
M  V30 4 1 4 5
M  V30 5 1 5 6
M  V30 6 1 6 7
M  V30 7 1 7 8
M  V30 8 1 8 9
M  V30 9 1 9 10
M  V30 10 2 10 11
M  V30 11 1 11 12
M  V30 12 1 12 13
M  V30 13 2 12 14
M  V30 14 1 14 15
M  V30 15 2 15 16
M  V30 16 1 15 17
M  V30 17 1 17 18
M  V30 18 2 18 19
M  V30 19 1 19 20
M  V30 20 1 20 21
M  V30 21 1 21 22
M  V30 22 1 22 23
M  V30 23 1 8 3
M  V30 24 1 16 10
M  V30 25 1 23 18
M  V30 26 1 19 14
M  V30 27 1 1 24
M  V30 28 1 1 25
M  V30 29 1 2 26
M  V30 30 1 2 27
M  V30 31 1 3 28
M  V30 32 1 4 29
M  V30 33 1 4 30
M  V30 34 1 5 31
M  V30 35 1 5 32
M  V30 36 1 6 33
M  V30 37 1 6 34
M  V30 38 1 7 35
M  V30 39 1 7 36
M  V30 40 1 9 37
M  V30 41 1 9 38
M  V30 42 1 13 39
M  V30 43 1 13 40
M  V30 44 1 20 41
M  V30 45 1 20 42
M  V30 46 1 21 43
M  V30 47 1 21 44
M  V30 48 1 22 45
M  V30 49 1 22 46
M  V30 50 1 23 47
M  V30 51 1 23 48
M  V30 END BOND
M  V30 END CTAB
M  END
