
     RDKit          3D

  0  0  0  0  0  0  0  0  0  0999 V3000
M  V30 BEGIN CTAB
M  V30 COUNTS 41 43 0 0 0
M  V30 BEGIN ATOM
M  V30 1 C 5.28173 3.01976 -0.479229 0
M  V30 2 O 4.19756 2.48394 -1.19064 0
M  V30 3 C 3.5032 1.36073 -0.700631 0
M  V30 4 C 3.87916 0.765001 0.489969 0
M  V30 5 C 3.15701 -0.339135 0.922633 0
M  V30 6 C 2.08448 -0.811407 0.153504 0
M  V30 7 O 1.38748 -1.91063 0.609282 0
M  V30 8 C 1.67566 -2.60223 1.80656 0
M  V30 9 C 1.72107 -0.218724 -1.0171 0
M  V30 10 C 0.582151 -0.707452 -1.80842 0
M  V30 11 C -0.71867 -0.252571 -1.28838 0
M  V30 12 C -1.54486 -1.03881 -0.532174 0
M  V30 13 C -2.76943 -0.599231 -0.0395589 0
M  V30 14 C -3.14722 0.687954 -0.339153 0
M  V30 15 C -2.33345 1.50577 -1.10131 0
M  V30 16 C -1.13454 1.05564 -1.57532 0
M  V30 17 N -4.30308 1.21614 0.0818807 0
M  V30 18 C -5.10336 0.419037 0.829395 0
M  V30 19 N -6.33236 1.02801 1.25832 0
M  V30 20 N -4.77819 -0.832459 1.14397 0
M  V30 21 C -3.6162 -1.36692 0.722006 0
M  V30 22 N -3.23914 -2.69439 1.04399 0
M  V30 23 C 2.44966 0.899644 -1.46016 0
M  V30 24 H 5.42559 4.06076 -0.836845 0
M  V30 25 H 6.18112 2.39294 -0.565855 0
M  V30 26 H 4.92743 3.1308 0.586078 0
M  V30 27 H 4.71128 1.15483 1.05871 0
M  V30 28 H 3.41687 -0.837196 1.84704 0
M  V30 29 H 2.44521 -3.353 1.59539 0
M  V30 30 H 0.761041 -3.1862 2.1106 0
M  V30 31 H 1.91724 -1.94882 2.65249 0
M  V30 32 H 0.583554 -1.81658 -1.83388 0
M  V30 33 H 0.703416 -0.316122 -2.846 0
M  V30 34 H -1.28674 -2.05383 -0.287931 0
M  V30 35 H -2.62259 2.53503 -1.34828 0
M  V30 36 H -0.471705 1.66872 -2.17407 0
M  V30 37 H -6.32608 1.69637 2.05139 0
M  V30 38 H -7.23613 0.813784 0.787287 0
M  V30 39 H -3.0484 -3.41671 0.323455 0
M  V30 40 H -3.14801 -2.96407 2.06811 0
M  V30 41 H 2.16826 1.37159 -2.38333 0
M  V30 END ATOM
M  V30 BEGIN BOND
M  V30 1 1 1 2
M  V30 2 1 2 3
M  V30 3 2 3 4
M  V30 4 1 4 5
M  V30 5 2 5 6
M  V30 6 1 6 7
M  V30 7 1 7 8
M  V30 8 1 6 9
M  V30 9 1 9 10
M  V30 10 1 10 11
M  V30 11 2 11 12
M  V30 12 1 12 13
M  V30 13 2 13 14
M  V30 14 1 14 15
M  V30 15 2 15 16
M  V30 16 1 14 17
M  V30 17 2 17 18
M  V30 18 1 18 19
M  V30 19 1 18 20
M  V30 20 2 20 21
M  V30 21 1 21 22
M  V30 22 2 9 23
M  V30 23 1 23 3
M  V30 24 1 16 11
M  V30 25 1 21 13
M  V30 26 1 1 24
M  V30 27 1 1 25
M  V30 28 1 1 26
M  V30 29 1 4 27
M  V30 30 1 5 28
M  V30 31 1 8 29
M  V30 32 1 8 30
M  V30 33 1 8 31
M  V30 34 1 10 32
M  V30 35 1 10 33
M  V30 36 1 12 34
M  V30 37 1 15 35
M  V30 38 1 16 36
M  V30 39 1 19 37
M  V30 40 1 19 38
M  V30 41 1 22 39
M  V30 42 1 22 40
M  V30 43 1 23 41
M  V30 END BOND
M  V30 END CTAB
M  END
