
     RDKit          3D

  0  0  0  0  0  0  0  0  0  0999 V3000
M  V30 BEGIN CTAB
M  V30 COUNTS 38 39 0 0 0
M  V30 BEGIN ATOM
M  V30 1 O 0.530907 0.982866 1.81186 0
M  V30 2 C 0.409886 -0.262458 1.86698 0
M  V30 3 C -0.645475 -0.848567 2.78074 0
M  V30 4 S -1.80705 -1.8714 1.80249 0
M  V30 5 C -2.73048 -0.836924 0.677111 0
M  V30 6 N -3.89497 -0.269533 1.02693 0
M  V30 7 C -4.58825 0.509326 0.172663 0
M  V30 8 N -5.82938 1.11158 0.549788 0
M  V30 9 C -4.13606 0.760404 -1.09847 0
M  V30 10 C -2.92488 0.17258 -1.46709 0
M  V30 11 N -2.2833 -0.587491 -0.582184 0
M  V30 12 N -2.42029 0.406256 -2.77285 0
M  V30 13 C -1.42885 0.280779 3.36122 0
M  V30 14 N 1.22093 -1.1092 1.11065 0
M  V30 15 C 2.23491 -0.702889 0.218187 0
M  V30 16 C 2.43868 0.557706 -0.274844 0
M  V30 17 C 3.50248 0.844588 -1.14814 0
M  V30 18 C 4.39498 -0.114017 -1.55772 0
M  V30 19 C 4.19496 -1.38453 -1.0658 0
M  V30 20 C 3.1637 -1.67717 -0.214885 0
M  V30 21 F 5.08698 -2.33466 -1.47952 0
M  V30 22 C 5.51434 0.209831 -2.48352 0
M  V30 23 H -0.194468 -1.43702 3.59543 0
M  V30 24 H -6.66069 1.04461 -0.0826387 0
M  V30 25 H -5.93259 1.61507 1.43432 0
M  V30 26 H -4.6454 1.36929 -1.81518 0
M  V30 27 H -1.76185 -0.28363 -3.19183 0
M  V30 28 H -2.67533 1.23224 -3.331 0
M  V30 29 H -0.80429 1.06058 3.84158 0
M  V30 30 H -2.14978 -0.0537939 4.13283 0
M  V30 31 H -2.02192 0.820699 2.57304 0
M  V30 32 H 1.02486 -2.15961 1.24308 0
M  V30 33 H 1.76774 1.36223 -0.00742642 0
M  V30 34 H 3.62349 1.86966 -1.51536 0
M  V30 35 H 3.0246 -2.6788 0.158748 0
M  V30 36 H 5.56224 -0.612195 -3.24369 0
M  V30 37 H 6.49648 0.193999 -1.9793 0
M  V30 38 H 5.34312 1.13098 -3.04622 0
M  V30 END ATOM
M  V30 BEGIN BOND
M  V30 1 2 1 2
M  V30 2 1 2 3
M  V30 3 1 3 4
M  V30 4 1 4 5
M  V30 5 2 5 6
M  V30 6 1 6 7
M  V30 7 1 7 8
M  V30 8 2 7 9
M  V30 9 1 9 10
M  V30 10 2 10 11
M  V30 11 1 10 12
M  V30 12 1 3 13
M  V30 13 1 2 14
M  V30 14 1 14 15
M  V30 15 2 15 16
M  V30 16 1 16 17
M  V30 17 2 17 18
M  V30 18 1 18 19
M  V30 19 2 19 20
M  V30 20 1 19 21
M  V30 21 1 18 22
M  V30 22 1 11 5
M  V30 23 1 20 15
M  V30 24 1 3 23
M  V30 25 1 8 24
M  V30 26 1 8 25
M  V30 27 1 9 26
M  V30 28 1 12 27
M  V30 29 1 12 28
M  V30 30 1 13 29
M  V30 31 1 13 30
M  V30 32 1 13 31
M  V30 33 1 14 32
M  V30 34 1 16 33
M  V30 35 1 17 34
M  V30 36 1 20 35
M  V30 37 1 22 36
M  V30 38 1 22 37
M  V30 39 1 22 38
M  V30 END BOND
M  V30 END CTAB
M  END
