
     RDKit          3D

  0  0  0  0  0  0  0  0  0  0999 V3000
M  V30 BEGIN CTAB
M  V30 COUNTS 29 28 0 0 0
M  V30 BEGIN ATOM
M  V30 1 N 3.81406 -1.5515 1.07413 0
M  V30 2 C 3.3577 -0.427425 0.312395 0
M  V30 3 C 2.21048 -0.748669 -0.610437 0
M  V30 4 S 0.747611 -1.35636 0.253699 0
M  V30 5 C 0.00205003 -0.0831518 1.29654 0
M  V30 6 S -0.685826 1.27205 0.295401 0
M  V30 7 C -2.10226 0.72038 -0.674962 0
M  V30 8 C -3.28373 0.368606 0.219417 0
M  V30 9 N -3.62179 1.58959 0.958565 0
M  V30 10 C -4.41004 0.0586912 -0.685231 0
M  V30 11 O -4.36647 -1.08152 -1.48338 0
M  V30 12 O -5.39356 0.827209 -0.723866 0
M  V30 13 C 4.47786 0.0663396 -0.526364 0
M  V30 14 O 4.36183 1.16677 -1.36964 0
M  V30 15 O 5.60918 -0.512848 -0.502326 0
M  V30 16 H 3.4188 -2.46037 0.788785 0
M  V30 17 H 3.87329 -1.39658 2.09317 0
M  V30 18 H 3.06622 0.381194 1.02046 0
M  V30 19 H 1.96952 0.182519 -1.16671 0
M  V30 20 H 2.49306 -1.50675 -1.36355 0
M  V30 21 H 0.696497 0.263104 2.06257 0
M  V30 22 H -0.865501 -0.562218 1.80123 0
M  V30 23 H -2.42317 1.57691 -1.30094 0
M  V30 24 H -1.85897 -0.112342 -1.33849 0
M  V30 25 H -3.07236 -0.435691 0.929675 0
M  V30 26 H -4.52842 1.4226 1.45411 0
M  V30 27 H -3.77388 2.36421 0.288075 0
M  V30 28 H -4.70944 -1.98898 -1.15578 0
M  V30 29 H 4.99724 1.96424 -1.33067 0
M  V30 END ATOM
M  V30 BEGIN BOND
M  V30 1 1 1 2
M  V30 2 1 2 3
M  V30 3 1 3 4
M  V30 4 1 4 5
M  V30 5 1 5 6
M  V30 6 1 6 7
M  V30 7 1 7 8
M  V30 8 1 8 9
M  V30 9 1 8 10
M  V30 10 1 10 11
M  V30 11 2 10 12
M  V30 12 1 2 13
M  V30 13 1 13 14
M  V30 14 2 13 15
M  V30 15 1 1 16
M  V30 16 1 1 17
M  V30 17 1 2 18
M  V30 18 1 3 19
M  V30 19 1 3 20
M  V30 20 1 5 21
M  V30 21 1 5 22
M  V30 22 1 7 23
M  V30 23 1 7 24
M  V30 24 1 8 25
M  V30 25 1 9 26
M  V30 26 1 9 27
M  V30 27 1 11 28
M  V30 28 1 14 29
M  V30 END BOND
M  V30 END CTAB
M  END
