
     RDKit          3D

  0  0  0  0  0  0  0  0  0  0999 V3000
M  V30 BEGIN CTAB
M  V30 COUNTS 23 24 0 0 0
M  V30 BEGIN ATOM
M  V30 1 C 4.23094 0.943528 -0.177159 0
M  V30 2 C 3.01073 0.0515266 -0.284688 0
M  V30 3 C 3.1669 -1.26072 -0.637029 0
M  V30 4 S 1.55543 -1.84061 -0.625491 0
M  V30 5 C 0.74708 -0.410301 -0.177943 0
M  V30 6 C 1.76954 0.489362 -0.0487912 0
M  V30 7 C -0.692405 -0.244898 0.00777157 0
M  V30 8 N -1.25472 0.921998 0.363252 0
M  V30 9 C -2.60763 1.02946 0.52548 0
M  V30 10 N -3.21633 2.24733 0.898668 0
M  V30 11 N -3.39561 -0.0329437 0.331205 0
M  V30 12 C -2.84987 -1.20424 -0.0237558 0
M  V30 13 N -1.51778 -1.28859 -0.177978 0
M  V30 14 N -3.59441 -2.37824 -0.25095 0
M  V30 15 H 4.77081 0.729501 0.767603 0
M  V30 16 H 3.95303 2.00675 -0.266402 0
M  V30 17 H 4.93583 0.726085 -0.998756 0
M  V30 18 H 4.09973 -1.80392 -0.869277 0
M  V30 19 H 1.50225 1.5263 0.24395 0
M  V30 20 H -3.37686 2.48946 1.89687 0
M  V30 21 H -3.50824 2.91122 0.168701 0
M  V30 22 H -4.01735 -2.54615 -1.17166 0
M  V30 23 H -3.71104 -3.06191 0.506383 0
M  V30 END ATOM
M  V30 BEGIN BOND
M  V30 1 1 1 2
M  V30 2 2 2 3
M  V30 3 1 3 4
M  V30 4 1 4 5
M  V30 5 2 5 6
M  V30 6 1 5 7
M  V30 7 2 7 8
M  V30 8 1 8 9
M  V30 9 1 9 10
M  V30 10 2 9 11
M  V30 11 1 11 12
M  V30 12 2 12 13
M  V30 13 1 12 14
M  V30 14 1 6 2
M  V30 15 1 13 7
M  V30 16 1 1 15
M  V30 17 1 1 16
M  V30 18 1 1 17
M  V30 19 1 3 18
M  V30 20 1 6 19
M  V30 21 1 10 20
M  V30 22 1 10 21
M  V30 23 1 14 22
M  V30 24 1 14 23
M  V30 END BOND
M  V30 END CTAB
M  END
