
     RDKit          3D

  0  0  0  0  0  0  0  0  0  0999 V3000
M  V30 BEGIN CTAB
M  V30 COUNTS 74 77 0 0 0
M  V30 BEGIN ATOM
M  V30 1 C -10.2997 2.60399 -0.498087 0
M  V30 2 C -10.4421 1.10766 -0.507934 0
M  V30 3 N -9.16168 0.436517 -0.514423 0
M  V30 4 C -9.05529 -0.973307 -0.524042 0
M  V30 5 O -10.0987 -1.66776 -0.527391 0
M  V30 6 C -7.73851 -1.65586 -0.530267 0
M  V30 7 O -6.68869 -0.77691 -0.526734 0
M  V30 8 C -5.82908 -1.07683 0.496591 0
M  V30 9 C -6.77802 -1.55862 1.58764 0
M  V30 10 O -6.13096 -2.24084 2.5879 0
M  V30 11 C -7.67721 -2.47515 0.744998 0
M  V30 12 O -6.9581 -3.62609 0.494752 0
M  V30 13 N -5.10325 0.0789428 0.975142 0
M  V30 14 C -5.52578 1.18303 1.57524 0
M  V30 15 N -4.47722 1.9839 1.83718 0
M  V30 16 C -3.34878 1.38935 1.39883 0
M  V30 17 C -3.76057 0.190864 0.858771 0
M  V30 18 N -2.79681 -0.595145 0.346918 0
M  V30 19 C -1.49937 -0.262894 0.345452 0
M  V30 20 N -0.559249 -1.15446 -0.208469 0
M  V30 21 C 0.859834 -0.942103 -0.288208 0
M  V30 22 C 1.27135 0.221999 -1.13549 0
M  V30 23 C 2.77074 0.349023 -1.15118 0
M  V30 24 C 3.51817 -0.300833 -2.10375 0
M  V30 25 C 4.89296 -0.219899 -2.16687 0
M  V30 26 C 5.5202 0.572128 -1.19624 0
M  V30 27 C 6.98438 0.677387 -1.23944 0
M  V30 28 C 7.66715 -0.39223 -0.414382 0
M  V30 29 C 9.1483 -0.232817 -0.498247 0
M  V30 30 O 9.64255 0.702084 -1.19922 0
M  V30 31 N 9.95844 -1.14601 0.219684 0
M  V30 32 C 11.3901 -1.06201 0.194603 0
M  V30 33 C 11.9402 0.238331 0.725769 0
M  V30 34 N 13.3979 0.152971 0.629735 0
M  V30 35 C 4.76933 1.22376 -0.240858 0
M  V30 36 C 3.40828 1.12294 -0.205814 0
M  V30 37 N -1.1264 0.904967 0.875284 0
M  V30 38 C -2.00977 1.74946 1.40584 0
M  V30 39 N -1.65322 2.99825 1.97818 0
M  V30 40 H -11.188 3.11577 -0.920022 0
M  V30 41 H -9.37553 2.93509 -1.04498 0
M  V30 42 H -10.1909 2.97438 0.551188 0
M  V30 43 H -11.0172 0.754516 -1.41215 0
M  V30 44 H -10.9967 0.755459 0.397486 0
M  V30 45 H -8.29474 1.01011 -0.511917 0
M  V30 46 H -7.62297 -2.34137 -1.4009 0
M  V30 47 H -5.17184 -1.91637 0.261975 0
M  V30 48 H -7.38704 -0.700118 1.95042 0
M  V30 49 H -5.15484 -2.24471 2.35034 0
M  V30 50 H -8.64802 -2.63698 1.2091 0
M  V30 51 H -7.09353 -3.99303 -0.418728 0
M  V30 52 H -6.57135 1.37945 1.80592 0
M  V30 53 H -0.904174 -2.07818 -0.613024 0
M  V30 54 H 1.39486 -1.83864 -0.669708 0
M  V30 55 H 1.30203 -0.76826 0.74044 0
M  V30 56 H 0.968713 0.0894582 -2.19744 0
M  V30 57 H 0.802961 1.15237 -0.785264 0
M  V30 58 H 3.00202 -0.915327 -2.85339 0
M  V30 59 H 5.49381 -0.726067 -2.91097 0
M  V30 60 H 7.30498 1.67023 -0.878214 0
M  V30 61 H 7.33279 0.561198 -2.2785 0
M  V30 62 H 7.31263 -0.319243 0.635787 0
M  V30 63 H 7.39733 -1.39948 -0.775753 0
M  V30 64 H 9.51126 -1.89778 0.780609 0
M  V30 65 H 11.8324 -1.90791 0.76042 0
M  V30 66 H 11.713 -1.23023 -0.867517 0
M  V30 67 H 11.7119 0.294252 1.81039 0
M  V30 68 H 11.5668 1.13341 0.237455 0
M  V30 69 H 13.6878 0.169311 -0.371397 0
M  V30 70 H 13.8452 0.99202 1.08742 0
M  V30 71 H 5.25224 1.8468 0.523887 0
M  V30 72 H 2.78092 1.6152 0.52337 0
M  V30 73 H -2.22885 3.45767 2.70616 0
M  V30 74 H -0.789451 3.47924 1.66703 0
M  V30 END ATOM
M  V30 BEGIN BOND
M  V30 1 1 1 2
M  V30 2 1 2 3
M  V30 3 1 3 4
M  V30 4 2 4 5
M  V30 5 1 4 6
M  V30 6 1 6 7
M  V30 7 1 7 8
M  V30 8 1 8 9
M  V30 9 1 9 10
M  V30 10 1 9 11
M  V30 11 1 11 12
M  V30 12 1 8 13
M  V30 13 1 13 14
M  V30 14 2 14 15
M  V30 15 1 15 16
M  V30 16 2 16 17
M  V30 17 1 17 18
M  V30 18 2 18 19
M  V30 19 1 19 20
M  V30 20 1 20 21
M  V30 21 1 21 22
M  V30 22 1 22 23
M  V30 23 2 23 24
M  V30 24 1 24 25
M  V30 25 2 25 26
M  V30 26 1 26 27
M  V30 27 1 27 28
M  V30 28 1 28 29
M  V30 29 2 29 30
M  V30 30 1 29 31
M  V30 31 1 31 32
M  V30 32 1 32 33
M  V30 33 1 33 34
M  V30 34 1 26 35
M  V30 35 2 35 36
M  V30 36 1 19 37
M  V30 37 2 37 38
M  V30 38 1 38 39
M  V30 39 1 11 6
M  V30 40 1 17 13
M  V30 41 1 36 23
M  V30 42 1 38 16
M  V30 43 1 1 40
M  V30 44 1 1 41
M  V30 45 1 1 42
M  V30 46 1 2 43
M  V30 47 1 2 44
M  V30 48 1 3 45
M  V30 49 1 6 46
M  V30 50 1 8 47
M  V30 51 1 9 48
M  V30 52 1 10 49
M  V30 53 1 11 50
M  V30 54 1 12 51
M  V30 55 1 14 52
M  V30 56 1 20 53
M  V30 57 1 21 54
M  V30 58 1 21 55
M  V30 59 1 22 56
M  V30 60 1 22 57
M  V30 61 1 24 58
M  V30 62 1 25 59
M  V30 63 1 27 60
M  V30 64 1 27 61
M  V30 65 1 28 62
M  V30 66 1 28 63
M  V30 67 1 31 64
M  V30 68 1 32 65
M  V30 69 1 32 66
M  V30 70 1 33 67
M  V30 71 1 33 68
M  V30 72 1 34 69
M  V30 73 1 34 70
M  V30 74 1 35 71
M  V30 75 1 36 72
M  V30 76 1 39 73
M  V30 77 1 39 74
M  V30 END BOND
M  V30 END CTAB
M  END
