
     RDKit          3D

  0  0  0  0  0  0  0  0  0  0999 V3000
M  V30 BEGIN CTAB
M  V30 COUNTS 59 59 0 0 0
M  V30 BEGIN ATOM
M  V30 1 C 3.48991 0.94962 2.63561 0 CFG=1
M  V30 2 C 4.91361 0.79398 3.10926 0
M  V30 3 C 3.32635 2.05315 1.62419 0
M  V30 4 C 3.76751 3.35239 2.29116 0
M  V30 5 C 2.9977 -0.355753 2.09397 0 CFG=2
M  V30 6 N 3.77462 -0.839348 0.981055 0
M  V30 7 C 1.5505 -0.277537 1.78434 0
M  V30 8 O 0.770585 0.219108 2.62667 0
M  V30 9 N 1.0755 -0.764132 0.553875 0
M  V30 10 C -0.356837 -0.718637 0.190477 0 CFG=1
M  V30 11 C -0.49664 0.0646703 -1.06989 0
M  V30 12 C 0.0348142 1.47181 -0.838122 0
M  V30 13 C -0.0907435 2.35174 -2.05411 0
M  V30 14 N -1.44349 2.51302 -2.47997 0
M  V30 15 C -1.76156 3.32464 -3.58467 0
M  V30 16 N -2.95093 4.09152 -3.58454 0
M  V30 17 N -0.982392 3.38154 -4.59812 0
M  V30 18 C -0.923211 -2.05975 0.193753 0
M  V30 19 O -0.133044 -3.02343 0.453875 0
M  V30 20 N -2.29178 -2.41761 -0.0591407 0
M  V30 21 C -3.33678 -1.51468 -0.404935 0
M  V30 22 C -4.62776 -2.2647 -0.111973 0
M  V30 23 C -4.25297 -3.71673 -0.232257 0
M  V30 24 C -2.79592 -3.75542 0.0493124 0 CFG=1
M  V30 25 C -2.07195 -4.70407 -0.84533 0
M  V30 26 O -2.15988 -6.04399 -0.593998 0
M  V30 27 O -1.37705 -4.33424 -1.82449 0
M  V30 28 H 2.85968 1.22498 3.53321 0
M  V30 29 H 5.12717 1.58445 3.87047 0
M  V30 30 H 5.08211 -0.226098 3.51845 0
M  V30 31 H 5.58103 0.917272 2.21516 0
M  V30 32 H 3.89204 1.86354 0.708042 0
M  V30 33 H 2.24324 2.12287 1.3673 0
M  V30 34 H 3.38394 4.21512 1.7163 0
M  V30 35 H 3.2692 3.37284 3.28925 0
M  V30 36 H 4.862 3.30517 2.36963 0
M  V30 37 H 3.07385 -1.14223 2.91003 0
M  V30 38 H 3.56078 -0.267133 0.108693 0
M  V30 39 H 3.53505 -1.83311 0.777385 0
M  V30 40 H 1.75078 -1.16865 -0.125154 0
M  V30 41 H -0.861703 -0.158856 1.03215 0
M  V30 42 H -1.48975 0.0906612 -1.52667 0
M  V30 43 H 0.233046 -0.390261 -1.80163 0
M  V30 44 H -0.426773 1.96187 0.0341574 0
M  V30 45 H 1.12823 1.38718 -0.619205 0
M  V30 46 H 0.578614 2.05418 -2.87208 0
M  V30 47 H 0.254318 3.37223 -1.71307 0
M  V30 48 H -2.19366 2.01242 -1.95532 0
M  V30 49 H -3.7927 3.8021 -4.10975 0
M  V30 50 H -2.9612 4.97344 -3.03373 0
M  V30 51 H -1.17394 3.96628 -5.43946 0
M  V30 52 H -3.38629 -1.25255 -1.48371 0
M  V30 53 H -3.29657 -0.604969 0.244708 0
M  V30 54 H -5.0226 -2.06431 0.904899 0
M  V30 55 H -5.42079 -1.98355 -0.856568 0
M  V30 56 H -4.45984 -4.02236 -1.29811 0
M  V30 57 H -4.85207 -4.3486 0.469015 0
M  V30 58 H -2.67249 -4.07727 1.12175 0
M  V30 59 H -2.05288 -6.46381 0.337864 0
M  V30 END ATOM
M  V30 BEGIN BOND
M  V30 1 1 1 2
M  V30 2 1 1 3
M  V30 3 1 3 4
M  V30 4 1 1 5
M  V30 5 1 5 6
M  V30 6 1 5 7
M  V30 7 2 7 8
M  V30 8 1 7 9
M  V30 9 1 9 10
M  V30 10 1 10 11
M  V30 11 1 11 12
M  V30 12 1 12 13
M  V30 13 1 13 14
M  V30 14 1 14 15
M  V30 15 1 15 16
M  V30 16 2 15 17 CFG=2
M  V30 17 1 10 18
M  V30 18 2 18 19
M  V30 19 1 18 20
M  V30 20 1 20 21
M  V30 21 1 21 22
M  V30 22 1 22 23
M  V30 23 1 23 24
M  V30 24 1 24 25
M  V30 25 1 25 26
M  V30 26 2 25 27
M  V30 27 1 24 20
M  V30 28 1 1 28 CFG=1
M  V30 29 1 2 29
M  V30 30 1 2 30
M  V30 31 1 2 31
M  V30 32 1 3 32
M  V30 33 1 3 33
M  V30 34 1 4 34
M  V30 35 1 4 35
M  V30 36 1 4 36
M  V30 37 1 5 37 CFG=1
M  V30 38 1 6 38
M  V30 39 1 6 39
M  V30 40 1 9 40
M  V30 41 1 10 41 CFG=1
M  V30 42 1 11 42
M  V30 43 1 11 43
M  V30 44 1 12 44
M  V30 45 1 12 45
M  V30 46 1 13 46
M  V30 47 1 13 47
M  V30 48 1 14 48
M  V30 49 1 16 49
M  V30 50 1 16 50
M  V30 51 1 17 51
M  V30 52 1 21 52
M  V30 53 1 21 53
M  V30 54 1 22 54
M  V30 55 1 22 55
M  V30 56 1 23 56
M  V30 57 1 23 57
M  V30 58 1 24 58 CFG=1
M  V30 59 1 26 59
M  V30 END BOND
M  V30 END CTAB
M  END
