
     RDKit          3D

  0  0  0  0  0  0  0  0  0  0999 V3000
M  V30 BEGIN CTAB
M  V30 COUNTS 72 77 0 0 0
M  V30 BEGIN ATOM
M  V30 1 O -4.90686 2.61602 1.67761 0
M  V30 2 C -4.73637 1.61638 0.886722 0
M  V30 3 C -5.91913 0.910279 0.412812 0
M  V30 4 S -5.99011 -0.469342 -0.580138 0
M  V30 5 C -7.67566 -0.687768 -0.646129 0
M  V30 6 C -8.14763 0.339028 0.121875 0
M  V30 7 C -7.23805 1.16935 0.672171 0
M  V30 8 N -7.5651 2.31238 1.51924 0
M  V30 9 C -9.55265 0.396983 0.241064 0
M  V30 10 C -10.2292 1.45671 1.03423 0
M  V30 11 C -10.32 -0.537002 -0.391232 0
M  V30 12 C -9.81065 -1.56932 -1.1653 0
M  V30 13 N -8.47763 -1.60726 -1.26605 0
M  V30 14 C -10.6692 -2.56994 -1.84164 0
M  V30 15 C -11.8019 -0.473501 -0.257894 0
M  V30 16 C -3.38912 1.28826 0.54751 0
M  V30 17 C -2.33817 1.51711 1.457 0
M  V30 18 C -1.02542 1.23756 1.16282 0
M  V30 19 C -0.678588 0.710348 -0.0604164 0
M  V30 20 C -1.69172 0.481045 -0.960127 0
M  V30 21 C -3.03555 0.765897 -0.663617 0
M  V30 22 C 0.712016 0.406726 -0.406524 0
M  V30 23 C 1.62414 0.00870071 0.546826 0
M  V30 24 C 2.95074 -0.278549 0.212946 0
M  V30 25 C 3.37643 -0.169359 -1.07577 0
M  V30 26 C 2.41387 0.238726 -2.01676 0
M  V30 27 C 1.11841 0.522901 -1.71496 0
M  V30 28 C 4.72805 -0.406378 -1.5436 0
M  V30 29 O 4.881 -0.787508 -2.7342 0
M  V30 30 C 5.8858 -0.207286 -0.665383 0
M  V30 31 S 5.97981 0.383742 0.929582 0
M  V30 32 C 7.6665 0.336516 1.16261 0
M  V30 33 C 8.12131 -0.147485 -0.0312748 0
M  V30 34 C 7.21205 -0.430122 -0.977711 0
M  V30 35 N 7.52067 -0.954304 -2.30276 0
M  V30 36 C 9.52288 -0.290955 -0.116358 0
M  V30 37 C 10.1745 -0.806786 -1.34924 0
M  V30 38 C 10.3027 0.0458567 0.946381 0
M  V30 39 C 9.81541 0.532297 2.13914 0
M  V30 40 N 8.48731 0.665681 2.21285 0
M  V30 41 C 10.7592 0.867412 3.23229 0
M  V30 42 C 11.7893 -0.122548 0.816117 0
M  V30 43 H -7.57932 2.10493 2.54041 0
M  V30 44 H -7.76321 3.24093 1.13352 0
M  V30 45 H -11.3256 1.39396 0.908225 0
M  V30 46 H -9.9626 2.4568 0.581988 0
M  V30 47 H -9.93308 1.43001 2.09784 0
M  V30 48 H -11.1969 -3.21891 -1.08646 0
M  V30 49 H -10.0326 -3.22244 -2.44726 0
M  V30 50 H -11.4067 -2.09489 -2.52203 0
M  V30 51 H -12.2489 0.354889 -0.835107 0
M  V30 52 H -12.2577 -1.4227 -0.660141 0
M  V30 53 H -12.1423 -0.44791 0.800194 0
M  V30 54 H -2.60724 1.92689 2.40726 0
M  V30 55 H -0.227385 1.42024 1.87068 0
M  V30 56 H -1.44216 0.0662733 -1.93409 0
M  V30 57 H -3.77735 0.573386 -1.42827 0
M  V30 58 H 1.31788 -0.0886408 1.58731 0
M  V30 59 H 3.63542 -0.611037 0.998194 0
M  V30 60 H 2.78165 0.317344 -3.051 0
M  V30 61 H 0.471383 0.828037 -2.52995 0
M  V30 62 H 7.53673 -1.97447 -2.46592 0
M  V30 63 H 7.72161 -0.300843 -3.07054 0
M  V30 64 H 9.85157 -1.83869 -1.60494 0
M  V30 65 H 9.9545 -0.075239 -2.16755 0
M  V30 66 H 11.2569 -0.820315 -1.23296 0
M  V30 67 H 11.3588 -0.0224512 3.54326 0
M  V30 68 H 11.452 1.69529 2.90719 0
M  V30 69 H 10.2375 1.23652 4.12483 0
M  V30 70 H 12.303 0.195928 1.73337 0
M  V30 71 H 11.9902 -1.2029 0.643344 0
M  V30 72 H 12.1906 0.515947 -0.00611308 0
M  V30 END ATOM
M  V30 BEGIN BOND
M  V30 1 2 1 2
M  V30 2 1 2 3
M  V30 3 1 3 4
M  V30 4 1 4 5
M  V30 5 2 5 6
M  V30 6 1 6 7
M  V30 7 1 7 8
M  V30 8 1 6 9
M  V30 9 1 9 10
M  V30 10 2 9 11
M  V30 11 1 11 12
M  V30 12 2 12 13
M  V30 13 1 12 14
M  V30 14 1 11 15
M  V30 15 1 2 16
M  V30 16 2 16 17
M  V30 17 1 17 18
M  V30 18 2 18 19
M  V30 19 1 19 20
M  V30 20 2 20 21
M  V30 21 1 19 22
M  V30 22 2 22 23
M  V30 23 1 23 24
M  V30 24 2 24 25
M  V30 25 1 25 26
M  V30 26 2 26 27
M  V30 27 1 25 28
M  V30 28 2 28 29
M  V30 29 1 28 30
M  V30 30 1 30 31
M  V30 31 1 31 32
M  V30 32 2 32 33
M  V30 33 1 33 34
M  V30 34 1 34 35
M  V30 35 1 33 36
M  V30 36 1 36 37
M  V30 37 2 36 38
M  V30 38 1 38 39
M  V30 39 2 39 40
M  V30 40 1 39 41
M  V30 41 1 38 42
M  V30 42 2 7 3
M  V30 43 1 21 16
M  V30 44 1 27 22
M  V30 45 2 34 30
M  V30 46 1 13 5
M  V30 47 1 40 32
M  V30 48 1 8 43
M  V30 49 1 8 44
M  V30 50 1 10 45
M  V30 51 1 10 46
M  V30 52 1 10 47
M  V30 53 1 14 48
M  V30 54 1 14 49
M  V30 55 1 14 50
M  V30 56 1 15 51
M  V30 57 1 15 52
M  V30 58 1 15 53
M  V30 59 1 17 54
M  V30 60 1 18 55
M  V30 61 1 20 56
M  V30 62 1 21 57
M  V30 63 1 23 58
M  V30 64 1 24 59
M  V30 65 1 26 60
M  V30 66 1 27 61
M  V30 67 1 35 62
M  V30 68 1 35 63
M  V30 69 1 37 64
M  V30 70 1 37 65
M  V30 71 1 37 66
M  V30 72 1 41 67
M  V30 73 1 41 68
M  V30 74 1 41 69
M  V30 75 1 42 70
M  V30 76 1 42 71
M  V30 77 1 42 72
M  V30 END BOND
M  V30 END CTAB
M  END
