
     RDKit          3D

  0  0  0  0  0  0  0  0  0  0999 V3000
M  V30 BEGIN CTAB
M  V30 COUNTS 23 23 0 0 0
M  V30 BEGIN ATOM
M  V30 1 F 2.09555 -2.53816 2.59331 0
M  V30 2 C 2.28833 -1.87722 1.38226 0
M  V30 3 O 1.54362 -0.713838 1.28731 0
M  V30 4 C 0.561839 -0.348343 0.41187 0
M  V30 5 C 0.1614 -1.19265 -0.583222 0
M  V30 6 C -0.844425 -0.858788 -1.50616 0
M  V30 7 N -1.22982 -1.76749 -2.52563 0
M  V30 8 C -1.41329 0.383315 -1.35164 0
M  V30 9 C -1.04322 1.27079 -0.363157 0
M  V30 10 C -0.0569672 0.902702 0.515665 0
M  V30 11 C 0.400957 1.785 1.60012 0
M  V30 12 F 1.7492 2.04749 1.44022 0
M  V30 13 F -0.244911 3.0005 1.6024 0
M  V30 14 F 0.247808 1.19745 2.84833 0
M  V30 15 N -1.6838 2.56056 -0.2591 0
M  V30 16 F 3.65148 -1.61239 1.3096 0
M  V30 17 H 1.99438 -2.58769 0.593638 0
M  V30 18 H 0.604259 -2.17036 -0.710439 0
M  V30 19 H -0.518448 -2.38827 -2.94453 0
M  V30 20 H -2.20764 -1.8401 -2.87679 0
M  V30 21 H -2.19697 0.682523 -2.04563 0
M  V30 22 H -1.42708 3.36058 -0.867616 0
M  V30 23 H -2.43225 2.70439 0.449183 0
M  V30 END ATOM
M  V30 BEGIN BOND
M  V30 1 1 1 2
M  V30 2 1 2 3
M  V30 3 1 3 4
M  V30 4 2 4 5
M  V30 5 1 5 6
M  V30 6 1 6 7
M  V30 7 2 6 8
M  V30 8 1 8 9
M  V30 9 2 9 10
M  V30 10 1 10 11
M  V30 11 1 11 12
M  V30 12 1 11 13
M  V30 13 1 11 14
M  V30 14 1 9 15
M  V30 15 1 2 16
M  V30 16 1 10 4
M  V30 17 1 2 17
M  V30 18 1 5 18
M  V30 19 1 7 19
M  V30 20 1 7 20
M  V30 21 1 8 21
M  V30 22 1 15 22
M  V30 23 1 15 23
M  V30 END BOND
M  V30 END CTAB
M  END
