
     RDKit          3D

  0  0  0  0  0  0  0  0  0  0999 V3000
M  V30 BEGIN CTAB
M  V30 COUNTS 28 30 0 0 0
M  V30 BEGIN ATOM
M  V30 1 N -4.92729 0.36993 -0.28002 0
M  V30 2 C -3.61374 -0.158108 -0.133424 0
M  V30 3 C -2.53623 0.712446 -0.263348 0
M  V30 4 C -1.24331 0.239471 -0.128034 0
M  V30 5 C -1.04315 -1.09819 0.135552 0
M  V30 6 C -2.11334 -1.96895 0.265768 0
M  V30 7 C -3.40281 -1.49543 0.130467 0
M  V30 8 C 0.235008 -1.58777 0.273546 0
M  V30 9 O 0.511032 -2.78493 0.512785 0
M  V30 10 C 1.31676 -0.713588 0.143072 0
M  V30 11 C 2.62234 -1.15033 0.271877 0
M  V30 12 C 3.7129 -0.315773 0.149315 0
M  V30 13 C 3.47207 1.01645 -0.114635 0
M  V30 14 N 4.58223 1.8817 -0.242409 0
M  V30 15 C 2.1612 1.48346 -0.24943 0
M  V30 16 C 1.08062 0.624378 -0.121815 0
M  V30 17 N -0.193226 1.07275 -0.251751 0
M  V30 18 H -5.65887 -0.0842947 -0.851465 0
M  V30 19 H -5.18976 1.2616 0.205268 0
M  V30 20 H -2.65609 1.75203 -0.466976 0
M  V30 21 H -1.92681 -3.01251 0.472445 0
M  V30 22 H -4.28075 -2.14664 0.225188 0
M  V30 23 H 2.79527 -2.19829 0.478948 0
M  V30 24 H 4.73227 -0.713737 0.260819 0
M  V30 25 H 5.00519 2.30914 0.599548 0
M  V30 26 H 4.97622 2.0921 -1.16826 0
M  V30 27 H 1.96035 2.52179 -0.455606 0
M  V30 28 H -0.378096 2.09129 -0.453558 0
M  V30 END ATOM
M  V30 BEGIN BOND
M  V30 1 1 1 2
M  V30 2 2 2 3
M  V30 3 1 3 4
M  V30 4 2 4 5
M  V30 5 1 5 6
M  V30 6 2 6 7
M  V30 7 1 5 8
M  V30 8 2 8 9
M  V30 9 1 8 10
M  V30 10 2 10 11
M  V30 11 1 11 12
M  V30 12 2 12 13
M  V30 13 1 13 14
M  V30 14 1 13 15
M  V30 15 2 15 16
M  V30 16 1 16 17
M  V30 17 1 7 2
M  V30 18 1 16 10
M  V30 19 1 17 4
M  V30 20 1 1 18
M  V30 21 1 1 19
M  V30 22 1 3 20
M  V30 23 1 6 21
M  V30 24 1 7 22
M  V30 25 1 11 23
M  V30 26 1 12 24
M  V30 27 1 14 25
M  V30 28 1 14 26
M  V30 29 1 15 27
M  V30 30 1 17 28
M  V30 END BOND
M  V30 END CTAB
M  END
