
     RDKit          3D

  0  0  0  0  0  0  0  0  0  0999 V3000
M  V30 BEGIN CTAB
M  V30 COUNTS 32 33 0 0 0
M  V30 BEGIN ATOM
M  V30 1 N 5.95467 0.280182 -1.24665 0
M  V30 2 S 5.33963 -0.309216 0.271284 0
M  V30 3 O 5.78769 -1.7406 0.47399 0
M  V30 4 O 5.87794 0.594697 1.34033 0
M  V30 5 C 3.58738 -0.213803 0.186887 0
M  V30 6 C 2.83244 -1.28825 -0.293878 0
M  V30 7 C 1.44817 -1.17967 -0.348177 0
M  V30 8 C 0.787172 -0.0407832 0.0584994 0
M  V30 9 C 1.5288 1.03199 0.537669 0
M  V30 10 C 2.89975 0.909419 0.585501 0
M  V30 11 C -0.665492 0.0497433 -0.0078191 0
M  V30 12 C -1.40143 -0.596529 -0.981872 0
M  V30 13 C -2.78598 -0.489186 -1.0164 0
M  V30 14 C -3.48327 0.257895 -0.092004 0
M  V30 15 C -2.75185 0.906192 0.884134 0
M  V30 16 C -1.37728 0.795454 0.912774 0
M  V30 17 S -5.22912 0.363074 -0.176173 0
M  V30 18 N -5.98181 -0.887601 0.736783 0
M  V30 19 O -5.63666 0.179372 -1.61102 0
M  V30 20 O -5.68102 1.72728 0.312165 0
M  V30 21 H 5.80285 1.32571 -1.24957 0
M  V30 22 H 5.37728 -0.121512 -2.03424 0
M  V30 23 H 3.34802 -2.18591 -0.614815 0
M  V30 24 H 0.920603 -2.04196 -0.728729 0
M  V30 25 H 1.00033 1.92137 0.854171 0
M  V30 26 H 3.46717 1.74455 0.957651 0
M  V30 27 H -0.854299 -1.19102 -1.7187 0
M  V30 28 H -3.36285 -0.995394 -1.77995 0
M  V30 29 H -3.31992 1.48805 1.60029 0
M  V30 30 H -0.815022 1.3033 1.6765 0
M  V30 31 H -7.00647 -0.621863 0.81176 0
M  V30 32 H -5.60742 -0.974989 1.69959 0
M  V30 END ATOM
M  V30 BEGIN BOND
M  V30 1 1 1 2
M  V30 2 2 2 3
M  V30 3 2 2 4
M  V30 4 1 2 5
M  V30 5 2 5 6
M  V30 6 1 6 7
M  V30 7 2 7 8
M  V30 8 1 8 9
M  V30 9 2 9 10
M  V30 10 1 8 11
M  V30 11 2 11 12
M  V30 12 1 12 13
M  V30 13 2 13 14
M  V30 14 1 14 15
M  V30 15 2 15 16
M  V30 16 1 14 17
M  V30 17 1 17 18
M  V30 18 2 17 19
M  V30 19 2 17 20
M  V30 20 1 10 5
M  V30 21 1 16 11
M  V30 22 1 1 21
M  V30 23 1 1 22
M  V30 24 1 6 23
M  V30 25 1 7 24
M  V30 26 1 9 25
M  V30 27 1 10 26
M  V30 28 1 12 27
M  V30 29 1 13 28
M  V30 30 1 15 29
M  V30 31 1 16 30
M  V30 32 1 18 31
M  V30 33 1 18 32
M  V30 END BOND
M  V30 END CTAB
M  END
