
     RDKit          3D

  0  0  0  0  0  0  0  0  0  0999 V3000
M  V30 BEGIN CTAB
M  V30 COUNTS 53 55 0 0 0
M  V30 BEGIN ATOM
M  V30 1 N 7.84686 -0.179739 0.195259 0
M  V30 2 C 6.85856 -0.299454 -0.802633 0
M  V30 3 C 5.52567 0.132409 -0.237299 0
M  V30 4 C 4.43985 0.0355508 -1.22193 0
M  V30 5 O 4.71807 -0.37881 -2.38406 0
M  V30 6 N 3.09551 0.379026 -0.948561 0
M  V30 7 C 2.01294 0.293004 -1.89608 0
M  V30 8 C 0.819797 -0.438506 -1.33999 0
M  V30 9 C 0.413311 0.0282353 0.026788 0
M  V30 10 C 1.67433 -0.0519945 0.90653 0
M  V30 11 C 2.76028 0.854145 0.373771 0
M  V30 12 O -0.0575877 1.27268 0.119504 0
M  V30 13 C -1.40444 1.4814 0.345302 0
M  V30 14 C -2.31292 0.519024 -0.28384 0 CFG=1
M  V30 15 C -1.91122 -0.929056 0.00740506 0 CFG=1
M  V30 16 C -0.524269 -0.969064 0.622864 0
M  V30 17 C -2.83585 -1.61543 0.979623 0
M  V30 18 O -1.82404 -1.69957 -1.14712 0
M  V30 19 N -3.71481 0.639407 -0.0814964 0
M  V30 20 C -4.52406 -0.246525 -0.73373 0
M  V30 21 C -5.88081 -0.196414 -0.594667 0
M  V30 22 C -6.40388 0.78271 0.229306 0
M  V30 23 N -5.57638 1.63896 0.85615 0
M  V30 24 C -4.23982 1.57441 0.706917 0
M  V30 25 O -3.57542 2.44406 1.35548 0
M  V30 26 N -7.80398 0.924956 0.445617 0
M  V30 27 H 8.80796 -0.179332 -0.0974026 0
M  V30 28 H 7.66474 -0.617896 1.08726 0
M  V30 29 H 6.83369 -1.34042 -1.18027 0
M  V30 30 H 7.14889 0.377088 -1.65089 0
M  V30 31 H 5.34376 -0.486504 0.668586 0
M  V30 32 H 5.66314 1.18082 0.122347 0
M  V30 33 H 1.72178 1.34459 -2.14276 0
M  V30 34 H 2.31944 -0.257265 -2.82042 0
M  V30 35 H 0.016134 -0.364058 -2.09137 0
M  V30 36 H 1.09045 -1.51205 -1.26271 0
M  V30 37 H 2.05263 -1.07462 0.977107 0
M  V30 38 H 1.36247 0.372944 1.89311 0
M  V30 39 H 3.60758 0.789082 1.05438 0
M  V30 40 H 2.41427 1.90674 0.338872 0
M  V30 41 H -1.47701 1.36989 1.46446 0
M  V30 42 H -1.59123 2.50764 -0.014523 0
M  V30 43 H -2.17617 0.610811 -1.40814 0
M  V30 44 H -0.0823857 -1.98081 0.512797 0
M  V30 45 H -0.585622 -0.772566 1.71688 0
M  V30 46 H -2.25645 -2.23658 1.72873 0
M  V30 47 H -3.4865 -2.38938 0.474695 0
M  V30 48 H -3.42167 -0.917331 1.60457 0
M  V30 49 H -1.14807 -2.40219 -1.09058 0
M  V30 50 H -4.14232 -1.01642 -1.38242 0
M  V30 51 H -6.57606 -0.868776 -1.08366 0
M  V30 52 H -8.17661 1.19709 1.37861 0
M  V30 53 H -8.50253 0.764069 -0.312813 0
M  V30 END ATOM
M  V30 BEGIN BOND
M  V30 1 1 1 2
M  V30 2 1 2 3
M  V30 3 1 3 4
M  V30 4 2 4 5
M  V30 5 1 4 6
M  V30 6 1 6 7
M  V30 7 1 7 8
M  V30 8 1 8 9
M  V30 9 1 9 10
M  V30 10 1 10 11
M  V30 11 1 9 12
M  V30 12 1 12 13
M  V30 13 1 13 14
M  V30 14 1 14 15
M  V30 15 1 15 16
M  V30 16 1 15 17
M  V30 17 1 15 18 CFG=3
M  V30 18 1 14 19
M  V30 19 1 19 20
M  V30 20 2 20 21
M  V30 21 1 21 22
M  V30 22 2 22 23
M  V30 23 1 23 24
M  V30 24 2 24 25
M  V30 25 1 22 26
M  V30 26 1 11 6
M  V30 27 1 24 19
M  V30 28 1 16 9
M  V30 29 1 1 27
M  V30 30 1 1 28
M  V30 31 1 2 29
M  V30 32 1 2 30
M  V30 33 1 3 31
M  V30 34 1 3 32
M  V30 35 1 7 33
M  V30 36 1 7 34
M  V30 37 1 8 35
M  V30 38 1 8 36
M  V30 39 1 10 37
M  V30 40 1 10 38
M  V30 41 1 11 39
M  V30 42 1 11 40
M  V30 43 1 13 41
M  V30 44 1 13 42
M  V30 45 1 14 43 CFG=3
M  V30 46 1 16 44
M  V30 47 1 16 45
M  V30 48 1 17 46
M  V30 49 1 17 47
M  V30 50 1 17 48
M  V30 51 1 18 49
M  V30 52 1 20 50
M  V30 53 1 21 51
M  V30 54 1 26 52
M  V30 55 1 26 53
M  V30 END BOND
M  V30 END CTAB
M  END
