
     RDKit          3D

  0  0  0  0  0  0  0  0  0  0999 V3000
M  V30 BEGIN CTAB
M  V30 COUNTS 131 130 0 0 0
M  V30 BEGIN ATOM
M  V30 1 C 15.1645 2.58386 -0.938486 0
M  V30 2 C 15.1336 1.54172 0.15421 0
M  V30 3 C 14.3354 0.318116 -0.208595 0
M  V30 4 C 12.8961 0.603073 -0.507269 0
M  V30 5 C 12.2714 1.2248 0.699086 0
M  V30 6 C 10.8201 1.51632 0.590801 0
M  V30 7 C 9.9673 0.271433 0.338545 0
M  V30 8 C 10.1892 -0.759554 1.3621 0
M  V30 9 C 9.43382 -2.01384 1.25798 0
M  V30 10 C 8.0019 -2.08052 1.50157 0
M  V30 11 C 7.01244 -1.28587 0.745976 0
M  V30 12 C 6.95199 -1.50783 -0.730069 0
M  V30 13 C 6.02376 -0.592502 -1.41458 0
M  V30 14 C 4.57181 -0.622059 -1.23606 0
M  V30 15 C 3.94338 -0.51118 0.110179 0
M  V30 16 C 2.48517 -0.365433 -0.0614561 0
M  V30 17 O 2.03015 0.0390927 -1.14385 0
M  V30 18 N 1.50696 -0.680995 1.00587 0
M  V30 19 C 0.164075 -0.510335 0.695765 0 CFG=1
M  V30 20 C -0.582659 -1.66732 0.0546151 0
M  V30 21 C -0.633057 -2.92695 0.795742 0
M  V30 22 C 0.646053 -3.65879 1.05529 0
M  V30 23 C 1.29134 -4.00993 -0.275896 0
M  V30 24 N 2.50817 -4.73916 -0.00144997 0
M  V30 25 C -0.788038 0.107519 1.70243 0
M  V30 26 O -0.552718 0.030572 2.89601 0
M  V30 27 N -1.86905 0.727185 1.11837 0
M  V30 28 C -3.07173 1.42686 1.30516 0 CFG=1
M  V30 29 C -2.91514 2.90017 1.33196 0 CFG=1
M  V30 30 C -2.03193 3.47196 0.259895 0
M  V30 31 O -4.09396 3.61501 1.51232 0
M  V30 32 C -4.00705 0.896755 0.209231 0
M  V30 33 O -4.17787 -0.352998 0.257872 0
M  V30 34 N -4.57533 1.67303 -0.738809 0
M  V30 35 C -5.39144 1.6452 -1.88514 0 CFG=1
M  V30 36 C -4.61778 0.882063 -3.01363 0 CFG=1
M  V30 37 C -4.57405 -0.594936 -2.79403 0
M  V30 38 O -5.45925 1.05801 -4.13213 0
M  V30 39 C -6.69832 0.964813 -1.81707 0
M  V30 40 O -7.01949 0.138409 -2.717 0
M  V30 41 N -7.5756 1.21759 -0.761502 0
M  V30 42 C -8.93769 0.57822 -0.752841 0 CFG=1
M  V30 43 C -8.91585 -0.848976 -0.565396 0
M  V30 44 C -8.46629 -1.61604 0.57613 0
M  V30 45 C -9.20095 -1.67373 1.85785 0
M  V30 46 C -10.5634 -2.36905 1.7066 0
M  V30 47 N -11.497 -1.77384 0.835322 0
M  V30 48 C -9.64017 1.49733 0.196066 0
M  V30 49 O -9.00896 1.63596 1.27535 0
M  V30 50 N -10.7966 2.11061 -0.114943 0
M  V30 51 C -11.9817 2.74818 -0.419847 0 CFG=1
M  V30 52 C -12.8247 2.08363 -1.4921 0
M  V30 53 O -13.2104 0.800495 -1.03567 0
M  V30 54 C -12.8326 3.00822 0.816433 0
M  V30 55 O -14.0385 3.61274 0.724962 0
M  V30 56 O -12.4094 2.65481 1.93052 0
M  V30 57 H 15.9441 3.31685 -0.679098 0
M  V30 58 H 15.3735 2.04477 -1.90468 0
M  V30 59 H 14.2011 3.12675 -1.02588 0
M  V30 60 H 14.7737 1.96038 1.13048 0
M  V30 61 H 16.1929 1.18514 0.328407 0
M  V30 62 H 14.8576 -0.221161 -1.03831 0
M  V30 63 H 14.3849 -0.375925 0.668911 0
M  V30 64 H 12.8023 1.22913 -1.40858 0
M  V30 65 H 12.3861 -0.380102 -0.73825 0
M  V30 66 H 12.5256 0.609691 1.57414 0
M  V30 67 H 12.7831 2.21086 0.837294 0
M  V30 68 H 10.6739 2.14516 -0.340349 0
M  V30 69 H 10.4263 2.02951 1.47398 0
M  V30 70 H 10.2783 -0.0704722 -0.696306 0
M  V30 71 H 8.95673 0.661814 0.228501 0
M  V30 72 H 9.94609 -0.329539 2.40743 0
M  V30 73 H 11.3075 -1.00749 1.39314 0
M  V30 74 H 9.89261 -2.87007 1.88815 0
M  V30 75 H 9.6788 -2.4217 0.198148 0
M  V30 76 H 7.64859 -3.19301 1.475 0
M  V30 77 H 7.79332 -1.85827 2.60978 0
M  V30 78 H 6.01123 -1.62365 1.21454 0
M  V30 79 H 7.06767 -0.203975 0.95418 0
M  V30 80 H 7.97503 -1.50925 -1.23466 0
M  V30 81 H 6.65515 -2.58838 -0.860553 0
M  V30 82 H 6.32469 0.476873 -1.0634 0
M  V30 83 H 6.23421 -0.612094 -2.53115 0
M  V30 84 H 4.12825 0.225796 -1.85441 0
M  V30 85 H 4.19624 -1.58527 -1.72788 0
M  V30 86 H 4.02971 -1.51926 0.636667 0
M  V30 87 H 4.33883 0.315888 0.694068 0
M  V30 88 H 1.90337 -0.981333 1.88808 0
M  V30 89 H 0.163811 0.256389 -0.199734 0
M  V30 90 H -0.181012 -1.74622 -0.973766 0
M  V30 91 H -1.62745 -1.29525 -0.0672206 0
M  V30 92 H -1.18099 -2.8063 1.77506 0
M  V30 93 H -1.30733 -3.63685 0.209734 0
M  V30 94 H 1.34027 -3.22374 1.75113 0
M  V30 95 H 0.348387 -4.65653 1.48901 0
M  V30 96 H 1.58608 -3.09536 -0.866224 0
M  V30 97 H 0.570574 -4.66778 -0.824038 0
M  V30 98 H 2.37169 -5.76531 0.0520676 0
M  V30 99 H 2.95798 -4.43754 0.885663 0
M  V30 100 H -1.7378 0.722706 -0.0658829 0
M  V30 101 H -3.49024 1.1532 2.29965 0
M  V30 102 H -2.34382 3.15907 2.31548 0
M  V30 103 H -2.45511 4.40464 -0.147373 0
M  V30 104 H -1.00807 3.68557 0.625296 0
M  V30 105 H -1.89158 2.7393 -0.575099 0
M  V30 106 H -3.92739 4.52444 1.9229 0
M  V30 107 H -4.28869 2.7842 -0.571327 0
M  V30 108 H -5.45997 2.67579 -2.35441 0
M  V30 109 H -3.68282 1.37378 -3.20592 0
M  V30 110 H -4.81701 -1.15643 -3.76484 0
M  V30 111 H -3.54461 -0.925112 -2.5055 0
M  V30 112 H -5.31026 -1.00748 -2.06768 0
M  V30 113 H -5.22588 0.437023 -4.85184 0
M  V30 114 H -7.32662 1.82842 0.0172399 0
M  V30 115 H -9.27265 0.753964 -1.82461 0
M  V30 116 H -8.23827 -1.25163 -1.45248 0
M  V30 117 H -9.89238 -1.31412 -0.944065 0
M  V30 118 H -8.40899 -2.71887 0.226049 0
M  V30 119 H -7.34124 -1.45353 0.787465 0
M  V30 120 H -9.386 -0.784068 2.42282 0
M  V30 121 H -8.61338 -2.36277 2.58868 0
M  V30 122 H -10.3731 -3.42453 1.32985 0
M  V30 123 H -11.0362 -2.43784 2.73174 0
M  V30 124 H -11.7752 -2.36003 0.00998739 0
M  V30 125 H -12.382 -1.4486 1.34706 0
M  V30 126 H -10.6638 2.91017 0.977732 0
M  V30 127 H -11.7822 3.8176 -0.769375 0
M  V30 128 H -12.2275 2.04544 -2.41775 0
M  V30 129 H -13.7557 2.66343 -1.58131 0
M  V30 130 H -13.2266 0.87301 -0.0202947 0
M  V30 131 H -14.2382 4.55815 0.505593 0
M  V30 END ATOM
M  V30 BEGIN BOND
M  V30 1 1 1 2
M  V30 2 1 2 3
M  V30 3 1 3 4
M  V30 4 1 4 5
M  V30 5 1 5 6
M  V30 6 1 6 7
M  V30 7 1 7 8
M  V30 8 1 8 9
M  V30 9 1 9 10
M  V30 10 1 10 11
M  V30 11 1 11 12
M  V30 12 1 12 13
M  V30 13 1 13 14
M  V30 14 1 14 15
M  V30 15 1 15 16
M  V30 16 2 16 17
M  V30 17 1 16 18
M  V30 18 1 18 19
M  V30 19 1 19 20
M  V30 20 1 20 21
M  V30 21 1 21 22
M  V30 22 1 22 23
M  V30 23 1 23 24
M  V30 24 1 19 25
M  V30 25 2 25 26
M  V30 26 1 25 27
M  V30 27 1 27 28
M  V30 28 1 28 29
M  V30 29 1 29 30
M  V30 30 1 29 31
M  V30 31 1 28 32
M  V30 32 2 32 33
M  V30 33 1 32 34
M  V30 34 1 34 35
M  V30 35 1 35 36
M  V30 36 1 36 37
M  V30 37 1 36 38
M  V30 38 1 35 39
M  V30 39 2 39 40
M  V30 40 1 39 41
M  V30 41 1 41 42
M  V30 42 1 42 43
M  V30 43 1 43 44
M  V30 44 1 44 45
M  V30 45 1 45 46
M  V30 46 1 46 47
M  V30 47 1 42 48
M  V30 48 2 48 49
M  V30 49 1 48 50
M  V30 50 1 50 51
M  V30 51 1 51 52
M  V30 52 1 52 53
M  V30 53 1 51 54
M  V30 54 1 54 55
M  V30 55 2 54 56
M  V30 56 1 1 57
M  V30 57 1 1 58
M  V30 58 1 1 59
M  V30 59 1 2 60
M  V30 60 1 2 61
M  V30 61 1 3 62
M  V30 62 1 3 63
M  V30 63 1 4 64
M  V30 64 1 4 65
M  V30 65 1 5 66
M  V30 66 1 5 67
M  V30 67 1 6 68
M  V30 68 1 6 69
M  V30 69 1 7 70
M  V30 70 1 7 71
M  V30 71 1 8 72
M  V30 72 1 8 73
M  V30 73 1 9 74
M  V30 74 1 9 75
M  V30 75 1 10 76
M  V30 76 1 10 77
M  V30 77 1 11 78
M  V30 78 1 11 79
M  V30 79 1 12 80
M  V30 80 1 12 81
M  V30 81 1 13 82
M  V30 82 1 13 83
M  V30 83 1 14 84
M  V30 84 1 14 85
M  V30 85 1 15 86
M  V30 86 1 15 87
M  V30 87 1 18 88
M  V30 88 1 19 89 CFG=3
M  V30 89 1 20 90
M  V30 90 1 20 91
M  V30 91 1 21 92
M  V30 92 1 21 93
M  V30 93 1 22 94
M  V30 94 1 22 95
M  V30 95 1 23 96
M  V30 96 1 23 97
M  V30 97 1 24 98
M  V30 98 1 24 99
M  V30 99 1 27 100
M  V30 100 1 28 101 CFG=1
M  V30 101 1 29 102 CFG=1
M  V30 102 1 30 103
M  V30 103 1 30 104
M  V30 104 1 30 105
M  V30 105 1 31 106
M  V30 106 1 34 107
M  V30 107 1 35 108 CFG=3
M  V30 108 1 36 109 CFG=3
M  V30 109 1 37 110
M  V30 110 1 37 111
M  V30 111 1 37 112
M  V30 112 1 38 113
M  V30 113 1 41 114
M  V30 114 1 42 115 CFG=3
M  V30 115 1 43 116
M  V30 116 1 43 117
M  V30 117 1 44 118
M  V30 118 1 44 119
M  V30 119 1 45 120
M  V30 120 1 45 121
M  V30 121 1 46 122
M  V30 122 1 46 123
M  V30 123 1 47 124
M  V30 124 1 47 125
M  V30 125 1 50 126
M  V30 126 1 51 127 CFG=3
M  V30 127 1 52 128
M  V30 128 1 52 129
M  V30 129 1 53 130
M  V30 130 1 55 131
M  V30 END BOND
M  V30 END CTAB
M  END
