
     RDKit          3D

  0  0  0  0  0  0  0  0  0  0999 V3000
M  V30 BEGIN CTAB
M  V30 COUNTS 37 39 0 0 0
M  V30 BEGIN ATOM
M  V30 1 N 3.99066 0.0731662 -1.93809 0
M  V30 2 C 3.56114 0.195805 -0.577882 0
M  V30 3 N 2.54676 -0.543849 -0.209346 0
M  V30 4 N 1.96845 -1.36728 -1.10926 0
M  V30 5 C 0.742929 -1.58887 -1.21812 0
M  V30 6 C -0.280251 -1.01083 -0.408298 0
M  V30 7 C -0.152539 -0.127109 0.619171 0
M  V30 8 C -1.26179 0.366427 1.33988 0
M  V30 9 C -2.52554 -0.0531344 1.00177 0
M  V30 10 C -2.69083 -0.945312 -0.0310059 0
M  V30 11 C -1.59689 -1.40687 -0.712055 0
M  V30 12 N -4.0084 -1.19213 -0.158484 0
M  V30 13 C -4.57972 -2.08169 -1.13769 0
M  V30 14 C -4.62765 -0.470747 0.770254 0
M  V30 15 O -5.88359 -0.44999 0.951026 0
M  V30 16 N -3.73199 0.234433 1.49139 0
M  V30 17 C -4.01093 1.12673 2.57959 0
M  V30 18 C 4.2304 1.09689 0.320265 0
M  V30 19 N 3.98609 1.3545 1.61291 0
M  V30 20 O 4.84328 2.23928 2.01911 0
M  V30 21 N 5.65889 2.60016 1.07675 0
M  V30 22 C 5.29942 1.89708 -0.0109593 0
M  V30 23 N 5.92801 1.9803 -1.27583 0
M  V30 24 H 3.47331 0.612559 -2.65758 0
M  V30 25 H 4.80354 -0.55472 -2.12978 0
M  V30 26 H 0.479417 -2.31157 -2.03836 0
M  V30 27 H 0.789542 0.227904 0.921123 0
M  V30 28 H -1.10554 1.05375 2.13192 0
M  V30 29 H -1.74375 -2.09937 -1.51138 0
M  V30 30 H -5.03226 -2.98925 -0.690782 0
M  V30 31 H -5.40902 -1.58005 -1.69817 0
M  V30 32 H -3.83032 -2.41115 -1.86943 0
M  V30 33 H -3.19539 1.86794 2.69022 0
M  V30 34 H -4.08475 0.569871 3.54247 0
M  V30 35 H -4.94111 1.67799 2.33194 0
M  V30 36 H 5.43844 2.21184 -2.16372 0
M  V30 37 H 6.952 1.79729 -1.32275 0
M  V30 END ATOM
M  V30 BEGIN BOND
M  V30 1 1 1 2
M  V30 2 2 2 3
M  V30 3 1 3 4
M  V30 4 2 4 5
M  V30 5 1 5 6
M  V30 6 2 6 7
M  V30 7 1 7 8
M  V30 8 2 8 9
M  V30 9 1 9 10
M  V30 10 2 10 11
M  V30 11 1 10 12
M  V30 12 1 12 13
M  V30 13 1 12 14
M  V30 14 2 14 15
M  V30 15 1 14 16
M  V30 16 1 16 17
M  V30 17 1 2 18
M  V30 18 2 18 19
M  V30 19 1 19 20
M  V30 20 1 20 21
M  V30 21 2 21 22
M  V30 22 1 22 23
M  V30 23 1 11 6
M  V30 24 1 22 18
M  V30 25 1 16 9
M  V30 26 1 1 24
M  V30 27 1 1 25
M  V30 28 1 5 26
M  V30 29 1 7 27
M  V30 30 1 8 28
M  V30 31 1 11 29
M  V30 32 1 13 30
M  V30 33 1 13 31
M  V30 34 1 13 32
M  V30 35 1 17 33
M  V30 36 1 17 34
M  V30 37 1 17 35
M  V30 38 1 23 36
M  V30 39 1 23 37
M  V30 END BOND
M  V30 END CTAB
M  END
