
     RDKit          3D

  0  0  0  0  0  0  0  0  0  0999 V3000
M  V30 BEGIN CTAB
M  V30 COUNTS 57 62 0 0 0
M  V30 BEGIN ATOM
M  V30 1 O 1.07084 -2.52127 -1.82056 0
M  V30 2 C 1.16025 -1.31321 -1.57113 0
M  V30 3 C -0.0301274 -0.662381 -0.951626 0
M  V30 4 C -1.21999 -1.3031 -0.679523 0
M  V30 5 N -1.48789 -2.66858 -0.97528 0
M  V30 6 N -2.07667 -0.439898 -0.0931525 0
M  V30 7 C -1.45406 0.751066 0.0179356 0
M  V30 8 C -0.163359 0.632129 -0.517554 0
M  V30 9 N 0.679255 1.67554 -0.525061 0
M  V30 10 C 0.28572 2.84361 -0.0161028 0
M  V30 11 C 1.13837 3.92976 -0.0104237 0
M  V30 12 C 0.730353 5.14319 0.521539 0
M  V30 13 C -0.534319 5.27034 1.04897 0
M  V30 14 C -1.37178 4.18291 1.03649 0
M  V30 15 C -0.984288 2.95723 0.508852 0
M  V30 16 N -1.84223 1.92287 0.524809 0
M  V30 17 C -3.40429 -0.791053 0.309346 0
M  V30 18 C -4.3725 -1.04441 -0.636572 0
M  V30 19 C -5.66412 -1.38736 -0.321469 0
M  V30 20 C -6.02999 -1.4878 0.997245 0
M  V30 21 C -5.06958 -1.23674 1.96371 0
M  V30 22 C -3.75529 -0.888302 1.62636 0
M  V30 23 S -7.68472 -1.93247 1.38941 0
M  V30 24 O -8.53984 -1.58681 0.177979 0
M  V30 25 O -8.21987 -1.18914 2.55317 0
M  V30 26 N -7.77067 -3.64529 1.5877 0
M  V30 27 N 2.32109 -0.526901 -1.84027 0
M  V30 28 C 3.36404 0.172572 -2.08362 0
M  V30 29 C 4.47741 0.0766591 -1.08555 0
M  V30 30 C 4.49868 0.992337 -0.0620591 0
M  V30 31 C 5.53689 0.937018 0.862853 0
M  V30 32 C 6.52541 -0.0195168 0.753841 0
M  V30 33 C 6.47821 -0.915715 -0.271751 0
M  V30 34 C 5.43828 -0.888659 -1.22905 0
M  V30 35 O 7.58188 -1.74368 -0.130152 0
M  V30 36 C 8.05912 -1.61732 1.21655 0
M  V30 37 O 7.6615 -0.280298 1.54433 0
M  V30 38 H -1.87491 -3.29247 -0.224859 0
M  V30 39 H -1.31721 -3.07598 -1.90078 0
M  V30 40 H 2.14552 3.84513 -0.424445 0
M  V30 41 H 1.43089 5.99228 0.514934 0
M  V30 42 H -0.821173 6.23197 1.45649 0
M  V30 43 H -2.3771 4.31296 1.46355 0
M  V30 44 H -4.16172 -0.98564 -1.71546 0
M  V30 45 H -6.40967 -1.5836 -1.09358 0
M  V30 46 H -5.35685 -1.31746 3.00067 0
M  V30 47 H -3.02458 -0.700745 2.39539 0
M  V30 48 H -7.96102 -4.14464 0.670919 0
M  V30 49 H -6.88704 -4.03842 2.01224 0
M  V30 50 H 2.91089 -1.70563 -2.26739 0
M  V30 51 H 3.84524 0.0291257 -3.12883 0
M  V30 52 H 3.12493 1.31873 -2.14219 0
M  V30 53 H 3.70073 1.74833 0.0109037 0
M  V30 54 H 5.55784 1.64628 1.65639 0
M  V30 55 H 5.45643 -1.61542 -2.00537 0
M  V30 56 H 9.14432 -1.7103 1.28472 0
M  V30 57 H 7.54277 -2.35182 1.84611 0
M  V30 END ATOM
M  V30 BEGIN BOND
M  V30 1 2 1 2
M  V30 2 1 2 3
M  V30 3 2 3 4
M  V30 4 1 4 5
M  V30 5 1 4 6
M  V30 6 1 6 7
M  V30 7 2 7 8
M  V30 8 1 8 9
M  V30 9 2 9 10
M  V30 10 1 10 11
M  V30 11 2 11 12
M  V30 12 1 12 13
M  V30 13 2 13 14
M  V30 14 1 14 15
M  V30 15 2 15 16
M  V30 16 1 6 17
M  V30 17 2 17 18
M  V30 18 1 18 19
M  V30 19 2 19 20
M  V30 20 1 20 21
M  V30 21 2 21 22
M  V30 22 1 20 23
M  V30 23 2 23 24
M  V30 24 2 23 25
M  V30 25 1 23 26
M  V30 26 1 2 27
M  V30 27 1 27 28
M  V30 28 1 28 29
M  V30 29 2 29 30
M  V30 30 1 30 31
M  V30 31 2 31 32
M  V30 32 1 32 33
M  V30 33 2 33 34
M  V30 34 1 33 35
M  V30 35 1 35 36
M  V30 36 1 36 37
M  V30 37 1 8 3
M  V30 38 1 15 10
M  V30 39 1 22 17
M  V30 40 1 34 29
M  V30 41 1 16 7
M  V30 42 1 37 32
M  V30 43 1 5 38
M  V30 44 1 5 39
M  V30 45 1 11 40
M  V30 46 1 12 41
M  V30 47 1 13 42
M  V30 48 1 14 43
M  V30 49 1 18 44
M  V30 50 1 19 45
M  V30 51 1 21 46
M  V30 52 1 22 47
M  V30 53 1 26 48
M  V30 54 1 26 49
M  V30 55 1 27 50
M  V30 56 1 28 51
M  V30 57 1 28 52
M  V30 58 1 30 53
M  V30 59 1 31 54
M  V30 60 1 34 55
M  V30 61 1 36 56
M  V30 62 1 36 57
M  V30 END BOND
M  V30 END CTAB
M  END
