
     RDKit          3D

  0  0  0  0  0  0  0  0  0  0999 V3000
M  V30 BEGIN CTAB
M  V30 COUNTS 16 15 0 0 0
M  V30 BEGIN ATOM
M  V30 1 N 2.34152 0.0729328 0.917425 0
M  V30 2 C 1.46764 -0.722496 0.0335304 0
M  V30 3 C 0.756847 0.214646 -0.813405 0
M  V30 4 C -0.547125 0.358704 -0.878771 0
M  V30 5 C -1.43211 -0.452582 -0.064447 0
M  V30 6 N -2.21117 0.443113 0.794936 0
M  V30 7 H 1.67922 0.566448 1.56501 0
M  V30 8 H 2.72951 0.814652 0.290047 0
M  V30 9 H 0.945766 -1.42142 0.645418 0
M  V30 10 H 2.19559 -1.27662 -0.620151 0
M  V30 11 H 1.40924 0.85191 -1.45102 0
M  V30 12 H -0.949155 1.09472 -1.55255 0
M  V30 13 H -2.18144 -0.910131 -0.788412 0
M  V30 14 H -1.03388 -1.30153 0.471658 0
M  V30 15 H -3.224 0.239825 0.762339 0
M  V30 16 H -1.94645 1.42783 0.688399 0
M  V30 END ATOM
M  V30 BEGIN BOND
M  V30 1 1 1 2
M  V30 2 1 2 3
M  V30 3 2 3 4
M  V30 4 1 4 5
M  V30 5 1 5 6
M  V30 6 1 1 7
M  V30 7 1 1 8
M  V30 8 1 2 9
M  V30 9 1 2 10
M  V30 10 1 3 11
M  V30 11 1 4 12
M  V30 12 1 5 13
M  V30 13 1 5 14
M  V30 14 1 6 15
M  V30 15 1 6 16
M  V30 END BOND
M  V30 END CTAB
M  END
