
     RDKit          3D

  0  0  0  0  0  0  0  0  0  0999 V3000
M  V30 BEGIN CTAB
M  V30 COUNTS 40 42 0 0 0
M  V30 BEGIN ATOM
M  V30 1 N -2.18603 4.10348 0.876278 0
M  V30 2 C -2.20855 2.71622 0.509946 0
M  V30 3 C -0.824555 2.23112 0.0824285 0
M  V30 4 N -0.796954 0.8901 -0.281466 0
M  V30 5 C -1.47841 0.5036 -1.46407 0
M  V30 6 C -2.24552 -0.776899 -1.35519 0
M  V30 7 C -1.59725 -1.76814 -0.474453 0
M  V30 8 C -0.539365 -1.44166 0.314342 0
M  V30 9 C 0.0212941 -0.0461454 0.330744 0 CFG=1
M  V30 10 C 1.44554 -0.0883629 -0.0722074 0
M  V30 11 C 1.92433 -1.12927 -0.880191 0
M  V30 12 C 3.26463 -1.20368 -1.24485 0
M  V30 13 N 4.12538 -0.278895 -0.828676 0
M  V30 14 C 3.72519 0.747653 -0.0478438 0
M  V30 15 C 2.38966 0.83489 0.323903 0
M  V30 16 N 4.6882 1.69355 0.369882 0
M  V30 17 C 0.0181772 -2.42496 1.11691 0
M  V30 18 C -0.481759 -3.69479 1.11786 0
M  V30 19 C -1.55188 -4.00314 0.312892 0
M  V30 20 C -2.11486 -3.05359 -0.483354 0
M  V30 21 H -2.38883 4.67588 0.0184023 0
M  V30 22 H -1.32902 4.3851 1.34623 0
M  V30 23 H -2.55036 2.06085 1.33801 0
M  V30 24 H -2.95535 2.59205 -0.295615 0
M  V30 25 H -0.492764 2.86325 -0.776068 0
M  V30 26 H -0.161379 2.41606 0.948566 0
M  V30 27 H -0.811188 0.423279 -2.34531 0
M  V30 28 H -2.21441 1.31931 -1.70669 0
M  V30 29 H -3.22874 -0.534294 -0.904173 0
M  V30 30 H -2.35566 -1.20959 -2.37409 0
M  V30 31 H 0.0403239 0.198337 1.44619 0
M  V30 32 H 1.21995 -1.85695 -1.20745 0
M  V30 33 H 3.58496 -2.02235 -1.86924 0
M  V30 34 H 2.10761 1.66925 0.95337 0
M  V30 35 H 5.65732 1.66652 0.00520922 0
M  V30 36 H 4.42394 2.44657 1.06508 0
M  V30 37 H 0.873911 -2.15515 1.74733 0
M  V30 38 H -0.0521047 -4.45697 1.74005 0
M  V30 39 H -1.9869 -5.0052 0.282421 0
M  V30 40 H -2.95855 -3.28705 -1.12565 0
M  V30 END ATOM
M  V30 BEGIN BOND
M  V30 1 1 1 2
M  V30 2 1 2 3
M  V30 3 1 3 4
M  V30 4 1 4 5
M  V30 5 1 5 6
M  V30 6 1 6 7
M  V30 7 2 7 8
M  V30 8 1 8 9
M  V30 9 1 9 10
M  V30 10 2 10 11
M  V30 11 1 11 12
M  V30 12 2 12 13
M  V30 13 1 13 14
M  V30 14 2 14 15
M  V30 15 1 14 16
M  V30 16 1 8 17
M  V30 17 2 17 18
M  V30 18 1 18 19
M  V30 19 2 19 20
M  V30 20 1 9 4
M  V30 21 1 15 10
M  V30 22 1 20 7
M  V30 23 1 1 21
M  V30 24 1 1 22
M  V30 25 1 2 23
M  V30 26 1 2 24
M  V30 27 1 3 25
M  V30 28 1 3 26
M  V30 29 1 5 27
M  V30 30 1 5 28
M  V30 31 1 6 29
M  V30 32 1 6 30
M  V30 33 1 9 31 CFG=1
M  V30 34 1 11 32
M  V30 35 1 12 33
M  V30 36 1 15 34
M  V30 37 1 16 35
M  V30 38 1 16 36
M  V30 39 1 17 37
M  V30 40 1 18 38
M  V30 41 1 19 39
M  V30 42 1 20 40
M  V30 END BOND
M  V30 END CTAB
M  END
