
     RDKit          3D

  0  0  0  0  0  0  0  0  0  0999 V3000
M  V30 BEGIN CTAB
M  V30 COUNTS 48 49 0 0 0
M  V30 BEGIN ATOM
M  V30 1 O -3.67844 -0.275432 -1.8504 0
M  V30 2 C -3.03589 -0.119435 -0.791851 0
M  V30 3 N -1.67812 0.277919 -0.741431 0
M  V30 4 C -0.982147 0.443859 0.507301 0
M  V30 5 C 0.506667 0.400508 0.383275 0
M  V30 6 N 1.03968 1.00342 -0.779379 0
M  V30 7 C 0.0580954 1.61586 -1.64259 0
M  V30 8 C -0.964141 0.525429 -1.96985 0
M  V30 9 S 2.39766 2.01207 -0.48279 0
M  V30 10 O 2.11309 3.10553 0.488982 0
M  V30 11 O 2.9372 2.61439 -1.74253 0
M  V30 12 C 3.66814 1.01135 0.201946 0
M  V30 13 C 3.77286 0.84078 1.56711 0
M  V30 14 C 4.76598 0.0573499 2.11557 0
M  V30 15 C 5.69144 -0.584303 1.31299 0
M  V30 16 C 5.56102 -0.394718 -0.0474796 0
M  V30 17 C 4.58934 0.37452 -0.624649 0
M  V30 18 N 6.49609 -1.0392 -0.914126 0
M  V30 19 N 6.71227 -1.39046 1.89052 0
M  V30 20 O -3.74922 -0.365804 0.394615 0
M  V30 21 C -5.09685 -0.761179 0.374552 0
M  V30 22 C -5.99608 0.259953 -0.297516 0
M  V30 23 C -5.3183 -2.08486 -0.314563 0
M  V30 24 C -5.53946 -0.861374 1.83911 0
M  V30 25 H -1.34806 1.33504 1.0708 0
M  V30 26 H -1.27991 -0.436784 1.14993 0
M  V30 27 H 0.841985 -0.668477 0.42566 0
M  V30 28 H 0.931694 0.891869 1.28471 0
M  V30 29 H -0.481407 2.44695 -1.15143 0
M  V30 30 H 0.53258 1.92315 -2.57726 0
M  V30 31 H -0.388054 -0.38446 -2.22214 0
M  V30 32 H -1.64747 0.846655 -2.7823 0
M  V30 33 H 3.08074 1.31448 2.26286 0
M  V30 34 H 4.82399 -0.0583822 3.18764 0
M  V30 35 H 4.50183 0.512351 -1.69548 0
M  V30 36 H 6.63458 -0.760435 -1.89895 0
M  V30 37 H 7.08742 -1.83774 -0.567313 0
M  V30 38 H 7.0656 -1.14823 2.84846 0
M  V30 39 H 7.14383 -2.21018 1.43826 0
M  V30 40 H -5.49644 1.25374 -0.383211 0
M  V30 41 H -6.32487 -0.0835106 -1.31326 0
M  V30 42 H -6.92339 0.400833 0.284905 0
M  V30 43 H -6.18764 -2.59845 0.183349 0
M  V30 44 H -5.50979 -1.9834 -1.39461 0
M  V30 45 H -4.44651 -2.74602 -0.183869 0
M  V30 46 H -4.83104 -1.57013 2.33871 0
M  V30 47 H -5.48493 0.133536 2.28839 0
M  V30 48 H -6.56562 -1.23859 1.82416 0
M  V30 END ATOM
M  V30 BEGIN BOND
M  V30 1 2 1 2
M  V30 2 1 2 3
M  V30 3 1 3 4
M  V30 4 1 4 5
M  V30 5 1 5 6
M  V30 6 1 6 7
M  V30 7 1 7 8
M  V30 8 1 6 9
M  V30 9 2 9 10
M  V30 10 2 9 11
M  V30 11 1 9 12
M  V30 12 2 12 13
M  V30 13 1 13 14
M  V30 14 2 14 15
M  V30 15 1 15 16
M  V30 16 2 16 17
M  V30 17 1 16 18
M  V30 18 1 15 19
M  V30 19 1 2 20
M  V30 20 1 20 21
M  V30 21 1 21 22
M  V30 22 1 21 23
M  V30 23 1 21 24
M  V30 24 1 8 3
M  V30 25 1 17 12
M  V30 26 1 4 25
M  V30 27 1 4 26
M  V30 28 1 5 27
M  V30 29 1 5 28
M  V30 30 1 7 29
M  V30 31 1 7 30
M  V30 32 1 8 31
M  V30 33 1 8 32
M  V30 34 1 13 33
M  V30 35 1 14 34
M  V30 36 1 17 35
M  V30 37 1 18 36
M  V30 38 1 18 37
M  V30 39 1 19 38
M  V30 40 1 19 39
M  V30 41 1 22 40
M  V30 42 1 22 41
M  V30 43 1 22 42
M  V30 44 1 23 43
M  V30 45 1 23 44
M  V30 46 1 23 45
M  V30 47 1 24 46
M  V30 48 1 24 47
M  V30 49 1 24 48
M  V30 END BOND
M  V30 END CTAB
M  END
