
     RDKit          3D

  0  0  0  0  0  0  0  0  0  0999 V3000
M  V30 BEGIN CTAB
M  V30 COUNTS 24 26 0 0 0
M  V30 BEGIN ATOM
M  V30 1 N 3.79846 0.899819 -0.362844 0
M  V30 2 C 2.61599 0.156301 -0.190692 0
M  V30 3 C 2.68309 -1.20949 -0.0181239 0
M  V30 4 C 1.56479 -1.98368 0.153886 0
M  V30 5 C 0.328915 -1.37786 0.154725 0
M  V30 6 C 0.246042 -0.0152618 -0.0164207 0
M  V30 7 C 1.37505 0.755767 -0.188707 0
M  V30 8 C -1.10222 0.2893 0.0306429 0
M  V30 9 C -2.07023 1.38617 -0.0492994 0
M  V30 10 N -3.26862 0.911943 0.0890027 0
M  V30 11 C -3.23537 -0.491547 0.268628 0
M  V30 12 N -4.22403 -1.32588 0.440106 0
M  V30 13 C -1.83067 -0.881503 0.229004 0
M  V30 14 N -0.929615 -1.88761 0.301485 0
M  V30 15 N -1.67926 2.73536 -0.249106 0
M  V30 16 H 4.51817 1.01385 0.407458 0
M  V30 17 H 4.03621 1.38346 -1.26123 0
M  V30 18 H 3.65358 -1.71581 -0.0148224 0
M  V30 19 H 1.61939 -3.0648 0.290389 0
M  V30 20 H 1.33934 1.82153 -0.324435 0
M  V30 21 H -5.21438 -1.00016 0.46146 0
M  V30 22 H -1.17239 -2.88678 0.446456 0
M  V30 23 H -1.31867 3.26578 0.568301 0
M  V30 24 H -1.73358 3.2211 -1.16586 0
M  V30 END ATOM
M  V30 BEGIN BOND
M  V30 1 1 1 2
M  V30 2 2 2 3
M  V30 3 1 3 4
M  V30 4 2 4 5
M  V30 5 1 5 6
M  V30 6 2 6 7
M  V30 7 1 6 8
M  V30 8 1 8 9
M  V30 9 2 9 10
M  V30 10 1 10 11
M  V30 11 2 11 12 CFG=2
M  V30 12 1 11 13
M  V30 13 1 13 14
M  V30 14 1 9 15
M  V30 15 1 7 2
M  V30 16 2 13 8
M  V30 17 1 14 5
M  V30 18 1 1 16
M  V30 19 1 1 17
M  V30 20 1 3 18
M  V30 21 1 4 19
M  V30 22 1 7 20
M  V30 23 1 12 21
M  V30 24 1 14 22
M  V30 25 1 15 23
M  V30 26 1 15 24
M  V30 END BOND
M  V30 END CTAB
M  END
