
     RDKit          3D

  0  0  0  0  0  0  0  0  0  0999 V3000
M  V30 BEGIN CTAB
M  V30 COUNTS 24 25 0 0 0
M  V30 BEGIN ATOM
M  V30 1 N 5.24243 0.118701 0.191442 0
M  V30 2 C 4.14689 -0.808362 0.305188 0
M  V30 3 C 2.87254 -0.0532424 0.139024 0
M  V30 4 O 2.72031 1.23059 -0.0750812 0
M  V30 5 N 1.4683 1.55734 -0.170771 0
M  V30 6 C 0.696261 0.468343 -0.0197565 0
M  V30 7 C 1.57824 -0.574115 0.179846 0
M  V30 8 C -0.760387 0.380912 -0.0549758 0
M  V30 9 N -1.49646 -0.73192 0.101136 0
M  V30 10 N -2.75848 -0.398666 0.00403585 0
M  V30 11 C -2.85127 0.915161 -0.212936 0
M  V30 12 N -1.58773 1.42898 -0.253641 0
M  V30 13 N -4.04721 1.66658 -0.375882 0
M  V30 14 C -3.94017 -1.2668 0.1052 0
M  V30 15 H 4.90018 1.09737 0.226531 0
M  V30 16 H 5.67373 -0.0229568 -0.752454 0
M  V30 17 H 4.19891 -1.60567 -0.450318 0
M  V30 18 H 4.16135 -1.26528 1.32948 0
M  V30 19 H 1.38345 -1.61294 0.34229 0
M  V30 20 H -4.89739 1.5462 0.215529 0
M  V30 21 H -4.07182 2.38072 -1.13416 0
M  V30 22 H -4.6547 -1.03431 -0.732515 0
M  V30 23 H -4.41367 -1.11253 1.0942 0
M  V30 24 H -3.56329 -2.30409 -0.00140673 0
M  V30 END ATOM
M  V30 BEGIN BOND
M  V30 1 1 1 2
M  V30 2 1 2 3
M  V30 3 1 3 4
M  V30 4 1 4 5
M  V30 5 2 5 6
M  V30 6 1 6 7
M  V30 7 1 6 8
M  V30 8 2 8 9
M  V30 9 1 9 10
M  V30 10 1 10 11
M  V30 11 2 11 12
M  V30 12 1 11 13
M  V30 13 1 10 14
M  V30 14 2 7 3
M  V30 15 1 12 8
M  V30 16 1 1 15
M  V30 17 1 1 16
M  V30 18 1 2 17
M  V30 19 1 2 18
M  V30 20 1 7 19
M  V30 21 1 13 20
M  V30 22 1 13 21
M  V30 23 1 14 22
M  V30 24 1 14 23
M  V30 25 1 14 24
M  V30 END BOND
M  V30 END CTAB
M  END
