
     RDKit          3D

  0  0  0  0  0  0  0  0  0  0999 V3000
M  V30 BEGIN CTAB
M  V30 COUNTS 22 21 0 0 0
M  V30 BEGIN ATOM
M  V30 1 C -2.56462 1.27087 -0.342401 0
M  V30 2 C -1.19946 0.852619 0.214624 0
M  V30 3 C -1.03238 -0.575664 -0.21282 0
M  V30 4 C 0.221985 -1.25121 0.22955 0 CFG=2
M  V30 5 C 1.39071 -0.531297 -0.300161 0
M  V30 6 O 2.00951 -0.976162 -1.28845 0
M  V30 7 N 1.80829 0.666801 0.32184 0
M  V30 8 N 2.91994 1.34678 -0.185309 0
M  V30 9 N 0.222436 -2.59376 -0.403719 0
M  V30 10 H -3.24565 0.433772 -0.121689 0
M  V30 11 H -2.87757 2.20928 0.0805476 0
M  V30 12 H -2.45267 1.34829 -1.4247 0
M  V30 13 H -1.14069 1.02419 1.29321 0
M  V30 14 H -0.483554 1.51504 -0.33901 0
M  V30 15 H -1.92559 -1.1683 0.136622 0
M  V30 16 H -1.13553 -0.57414 -1.33531 0
M  V30 17 H 0.294513 -1.3705 1.32321 0
M  V30 18 H 1.29386 1.05408 1.16853 0
M  V30 19 H 3.64799 0.667403 -0.524172 0
M  V30 20 H 3.32039 2.01733 0.500235 0
M  V30 21 H -0.274516 -2.51715 -1.327 0
M  V30 22 H 1.20261 -2.84824 -0.610952 0
M  V30 END ATOM
M  V30 BEGIN BOND
M  V30 1 1 1 2
M  V30 2 1 2 3
M  V30 3 1 3 4
M  V30 4 1 4 5
M  V30 5 2 5 6
M  V30 6 1 5 7
M  V30 7 1 7 8
M  V30 8 1 4 9
M  V30 9 1 1 10
M  V30 10 1 1 11
M  V30 11 1 1 12
M  V30 12 1 2 13
M  V30 13 1 2 14
M  V30 14 1 3 15
M  V30 15 1 3 16
M  V30 16 1 4 17 CFG=1
M  V30 17 1 7 18
M  V30 18 1 8 19
M  V30 19 1 8 20
M  V30 20 1 9 21
M  V30 21 1 9 22
M  V30 END BOND
M  V30 END CTAB
M  END
