
     RDKit          3D

  0  0  0  0  0  0  0  0  0  0999 V3000
M  V30 BEGIN CTAB
M  V30 COUNTS 66 67 0 0 0
M  V30 BEGIN ATOM
M  V30 1 N -5.52434 -1.1899 -2.48967 0
M  V30 2 C -5.54981 -2.21922 -1.49608 0
M  V30 3 C -4.95827 -1.67525 -0.195833 0
M  V30 4 C -3.54912 -1.24556 -0.434994 0
M  V30 5 N -2.82779 -0.721203 0.636797 0
M  V30 6 C -1.48244 -0.426457 0.329542 0
M  V30 7 C -0.677978 0.131787 1.44805 0
M  V30 8 C 0.743579 0.449396 1.03557 0
M  V30 9 C 1.50683 -0.720869 0.542108 0
M  V30 10 N 2.93589 -0.369608 0.206102 0
M  V30 11 C 3.4397 -1.59007 -0.312594 0
M  V30 12 C 4.88152 -1.78967 -0.486595 0
M  V30 13 C 5.68142 -1.71728 0.796894 0
M  V30 14 N 5.2669 -2.71855 1.75132 0
M  V30 15 C 2.90909 0.77574 -0.633431 0
M  V30 16 C 4.16085 1.33514 -1.13679 0
M  V30 17 C 5.07314 1.9072 -0.24838 0
M  V30 18 C 6.25601 2.48604 -0.653996 0
M  V30 19 C 6.56369 2.50693 -1.99804 0
M  V30 20 C 5.68795 1.95223 -2.90248 0
M  V30 21 C 4.51885 1.38241 -2.47943 0
M  V30 22 C -3.41851 -0.25152 1.79856 0
M  V30 23 C -4.29891 0.911625 1.56984 0
M  V30 24 C -4.0785 1.74713 0.506542 0
M  V30 25 C -4.88748 2.8584 0.250322 0
M  V30 26 C -5.94098 3.13049 1.08737 0
M  V30 27 C -6.16971 2.29863 2.15682 0
M  V30 28 C -5.36796 1.20679 2.40074 0
M  V30 29 H -4.68996 -1.18602 -3.08987 0
M  V30 30 H -6.4199 -1.08372 -3.02138 0
M  V30 31 H -6.60243 -2.52825 -1.34976 0
M  V30 32 H -4.96665 -3.08684 -1.8111 0
M  V30 33 H -5.64659 -0.918431 0.157583 0
M  V30 34 H -4.95013 -2.54498 0.513749 0
M  V30 35 H -3.04253 -2.11005 -0.954832 0
M  V30 36 H -3.61158 -0.466452 -1.25887 0
M  V30 37 H -0.93258 -1.36046 -0.0373827 0
M  V30 38 H -1.42187 0.248379 -0.542396 0
M  V30 39 H -0.665122 -0.637842 2.271 0
M  V30 40 H -1.10948 1.08819 1.82172 0
M  V30 41 H 1.3186 0.91907 1.86138 0
M  V30 42 H 0.630592 1.25159 0.254073 0
M  V30 43 H 1.62146 -1.5089 1.31368 0
M  V30 44 H 1.04506 -1.16656 -0.341736 0
M  V30 45 H 2.95262 -1.72421 -1.32898 0
M  V30 46 H 3.03224 -2.46505 0.284075 0
M  V30 47 H 5.01028 -2.87706 -0.818033 0
M  V30 48 H 5.42097 -1.22285 -1.23422 0
M  V30 49 H 6.7363 -1.93961 0.523587 0
M  V30 50 H 5.66109 -0.753253 1.29927 0
M  V30 51 H 4.24687 -2.74167 1.90357 0
M  V30 52 H 5.69246 -3.65205 1.56978 0
M  V30 53 H 2.23003 0.661625 -1.50946 0
M  V30 54 H 2.49698 1.61548 0.0385941 0
M  V30 55 H 4.83878 1.8959 0.82322 0
M  V30 56 H 6.94095 2.91983 0.0597739 0
M  V30 57 H 7.5006 2.96351 -2.33279 0
M  V30 58 H 5.89194 1.9484 -3.9781 0
M  V30 59 H 3.82932 0.946669 -3.18325 0
M  V30 60 H -4.12274 -1.0338 2.24133 0
M  V30 61 H -2.71664 -0.0766904 2.65503 0
M  V30 62 H -3.27195 1.61836 -0.204487 0
M  V30 63 H -4.70247 3.50104 -0.586052 0
M  V30 64 H -6.56073 3.99559 0.875232 0
M  V30 65 H -7.01102 2.50817 2.83248 0
M  V30 66 H -5.5464 0.558166 3.23532 0
M  V30 END ATOM
M  V30 BEGIN BOND
M  V30 1 1 1 2
M  V30 2 1 2 3
M  V30 3 1 3 4
M  V30 4 1 4 5
M  V30 5 1 5 6
M  V30 6 1 6 7
M  V30 7 1 7 8
M  V30 8 1 8 9
M  V30 9 1 9 10
M  V30 10 1 10 11
M  V30 11 1 11 12
M  V30 12 1 12 13
M  V30 13 1 13 14
M  V30 14 1 10 15
M  V30 15 1 15 16
M  V30 16 2 16 17
M  V30 17 1 17 18
M  V30 18 2 18 19
M  V30 19 1 19 20
M  V30 20 2 20 21
M  V30 21 1 5 22
M  V30 22 1 22 23
M  V30 23 2 23 24
M  V30 24 1 24 25
M  V30 25 2 25 26
M  V30 26 1 26 27
M  V30 27 2 27 28
M  V30 28 1 21 16
M  V30 29 1 28 23
M  V30 30 1 1 29
M  V30 31 1 1 30
M  V30 32 1 2 31
M  V30 33 1 2 32
M  V30 34 1 3 33
M  V30 35 1 3 34
M  V30 36 1 4 35
M  V30 37 1 4 36
M  V30 38 1 6 37
M  V30 39 1 6 38
M  V30 40 1 7 39
M  V30 41 1 7 40
M  V30 42 1 8 41
M  V30 43 1 8 42
M  V30 44 1 9 43
M  V30 45 1 9 44
M  V30 46 1 11 45
M  V30 47 1 11 46
M  V30 48 1 12 47
M  V30 49 1 12 48
M  V30 50 1 13 49
M  V30 51 1 13 50
M  V30 52 1 14 51
M  V30 53 1 14 52
M  V30 54 1 15 53
M  V30 55 1 15 54
M  V30 56 1 17 55
M  V30 57 1 18 56
M  V30 58 1 19 57
M  V30 59 1 20 58
M  V30 60 1 21 59
M  V30 61 1 22 60
M  V30 62 1 22 61
M  V30 63 1 24 62
M  V30 64 1 25 63
M  V30 65 1 26 64
M  V30 66 1 27 65
M  V30 67 1 28 66
M  V30 END BOND
M  V30 END CTAB
M  END
