
     RDKit          3D

  0  0  0  0  0  0  0  0  0  0999 V3000
M  V30 BEGIN CTAB
M  V30 COUNTS 16 16 0 0 0
M  V30 BEGIN ATOM
M  V30 1 F -1.60424 -2.17266 0.464265 0
M  V30 2 C -0.82259 -1.09121 0.230087 0
M  V30 3 C 0.550506 -1.24134 0.140772 0
M  V30 4 C 1.39757 -0.172941 -0.0967378 0
M  V30 5 N 2.80605 -0.364206 -0.182502 0
M  V30 6 C 0.814209 1.07282 -0.244497 0
M  V30 7 C -0.552571 1.22295 -0.155703 0
M  V30 8 C -1.39044 0.154168 0.081111 0
M  V30 9 N -2.78988 0.319251 0.170257 0
M  V30 10 F -1.11826 2.43426 -0.299515 0
M  V30 11 F 1.62877 2.13066 -0.477689 0
M  V30 12 H 1.03047 -2.21573 0.254398 0
M  V30 13 H 3.27572 -0.636995 -1.06914 0
M  V30 14 H 3.35186 -0.212035 0.713246 0
M  V30 15 H -3.16326 0.595116 1.12415 0
M  V30 16 H -3.41393 0.177894 -0.652506 0
M  V30 END ATOM
M  V30 BEGIN BOND
M  V30 1 1 1 2
M  V30 2 2 2 3
M  V30 3 1 3 4
M  V30 4 1 4 5
M  V30 5 2 4 6
M  V30 6 1 6 7
M  V30 7 2 7 8
M  V30 8 1 8 9
M  V30 9 1 7 10
M  V30 10 1 6 11
M  V30 11 1 8 2
M  V30 12 1 3 12
M  V30 13 1 5 13
M  V30 14 1 5 14
M  V30 15 1 9 15
M  V30 16 1 9 16
M  V30 END BOND
M  V30 END CTAB
M  END
