
     RDKit          3D

  0  0  0  0  0  0  0  0  0  0999 V3000
M  V30 BEGIN CTAB
M  V30 COUNTS 23 23 0 0 0
M  V30 BEGIN ATOM
M  V30 1 N 4.55326 -0.585597 0.669274 0
M  V30 2 C 3.13726 -0.595364 0.442058 0
M  V30 3 N 2.39027 -1.6048 -0.0401976 0
M  V30 4 O 1.16429 -1.21161 -0.092002 0
M  V30 5 C 1.02379 0.00927636 0.326349 0
M  V30 6 N 2.26221 0.410095 0.666626 0
M  V30 7 C -0.16698 0.871304 0.449279 0
M  V30 8 C -1.43265 0.206808 0.00942807 0
M  V30 9 N -1.6728 -0.974866 0.814966 0
M  V30 10 C -1.46978 -0.182221 -1.42363 0
M  V30 11 C -2.58015 1.16672 0.276785 0
M  V30 12 H 5.09125 -1.38517 1.04685 0
M  V30 13 H 5.07983 0.284007 0.43979 0
M  V30 14 H -0.0486761 1.84986 -0.068282 0
M  V30 15 H -0.28099 1.11235 1.53348 0
M  V30 16 H -1.22985 -1.80826 0.375924 0
M  V30 17 H -2.70319 -1.08189 0.945712 0
M  V30 18 H -1.14298 -1.22313 -1.61673 0
M  V30 19 H -2.53171 -0.126514 -1.76811 0
M  V30 20 H -0.921884 0.548082 -2.08288 0
M  V30 21 H -2.59216 1.48241 1.34437 0
M  V30 22 H -2.37507 2.08428 -0.339861 0
M  V30 23 H -3.5533 0.754228 -0.0537108 0
M  V30 END ATOM
M  V30 BEGIN BOND
M  V30 1 1 1 2
M  V30 2 2 2 3
M  V30 3 1 3 4
M  V30 4 1 4 5
M  V30 5 2 5 6
M  V30 6 1 5 7
M  V30 7 1 7 8
M  V30 8 1 8 9
M  V30 9 1 8 10
M  V30 10 1 8 11
M  V30 11 1 6 2
M  V30 12 1 1 12
M  V30 13 1 1 13
M  V30 14 1 7 14
M  V30 15 1 7 15
M  V30 16 1 9 16
M  V30 17 1 9 17
M  V30 18 1 10 18
M  V30 19 1 10 19
M  V30 20 1 10 20
M  V30 21 1 11 21
M  V30 22 1 11 22
M  V30 23 1 11 23
M  V30 END BOND
M  V30 END CTAB
M  END
