
     RDKit          3D

  0  0  0  0  0  0  0  0  0  0999 V3000
M  V30 BEGIN CTAB
M  V30 COUNTS 52 55 0 0 0
M  V30 BEGIN ATOM
M  V30 1 N -7.9934 -1.10911 1.69334 0
M  V30 2 C -6.78562 -0.680301 1.0589 0
M  V30 3 N -5.5825 -1.16211 1.45309 0
M  V30 4 C -4.47557 -0.736482 0.834845 0
M  V30 5 N -3.19644 -1.20847 1.2036 0
M  V30 6 C -4.57806 0.177949 -0.184525 0
M  V30 7 C -3.47782 0.656203 -0.862882 0
M  V30 8 O -2.20857 0.177688 -0.478731 0
M  V30 9 C -1.04077 0.65042 -1.16317 0
M  V30 10 C 0.157536 -0.0125269 -0.553525 0
M  V30 11 C 1.44479 0.425623 -1.22435 0
M  V30 12 C 2.5685 0.573922 -0.231483 0
M  V30 13 N 2.51528 -0.484446 0.762302 0
M  V30 14 C 1.30061 -0.435538 1.55406 0
M  V30 15 C 0.284512 0.47449 0.897417 0
M  V30 16 S 3.84229 -0.374277 1.84952 0
M  V30 17 O 3.65144 -1.45175 2.90365 0
M  V30 18 O 3.76768 0.966151 2.5181 0
M  V30 19 C 5.36689 -0.546671 1.06234 0
M  V30 20 C 6.29356 0.489383 1.129 0
M  V30 21 C 7.50466 0.322946 0.489621 0
M  V30 22 C 7.81748 -0.839444 -0.210373 0
M  V30 23 C 6.86721 -1.83868 -0.248531 0
M  V30 24 C 5.64309 -1.7165 0.37572 0
M  V30 25 Cl 4.4234 -2.96998 0.340524 0
M  V30 26 C -3.55977 1.58056 -1.89839 0
M  V30 27 C -4.79337 2.0301 -2.25266 0
M  V30 28 C -5.92863 1.58752 -1.60989 0
M  V30 29 C -5.81365 0.67108 -0.587618 0
M  V30 30 N -6.89629 0.210821 0.0666582 0
M  V30 31 H -8.80388 -0.465151 1.7455 0
M  V30 32 H -8.03108 -2.06468 2.09091 0
M  V30 33 H -2.64548 -0.841006 1.99659 0
M  V30 34 H -2.77774 -1.97931 0.639538 0
M  V30 35 H -1.01262 1.75021 -1.02784 0
M  V30 36 H -1.12588 0.45984 -2.2392 0
M  V30 37 H 0.0234452 -1.09629 -0.523283 0
M  V30 38 H 1.33106 1.37108 -1.78305 0
M  V30 39 H 1.73276 -0.40059 -1.91558 0
M  V30 40 H 2.59295 1.54222 0.27771 0
M  V30 41 H 3.51287 0.462913 -0.784281 0
M  V30 42 H 0.814212 -1.4466 1.61188 0
M  V30 43 H 1.48291 -0.0721459 2.5839 0
M  V30 44 H 0.638188 1.52547 0.859011 0
M  V30 45 H -0.669839 0.455145 1.4161 0
M  V30 46 H 6.06988 1.40073 1.66781 0
M  V30 47 H 8.26897 1.10724 0.510987 0
M  V30 48 H 8.76784 -0.97224 -0.713124 0
M  V30 49 H 7.07888 -2.75814 -0.785718 0
M  V30 50 H -2.63014 1.88213 -2.35593 0
M  V30 51 H -4.83317 2.76054 -3.07412 0
M  V30 52 H -6.90256 1.95007 -1.89808 0
M  V30 END ATOM
M  V30 BEGIN BOND
M  V30 1 1 1 2
M  V30 2 2 2 3
M  V30 3 1 3 4
M  V30 4 1 4 5
M  V30 5 2 4 6
M  V30 6 1 6 7
M  V30 7 1 7 8
M  V30 8 1 8 9
M  V30 9 1 9 10
M  V30 10 1 10 11
M  V30 11 1 11 12
M  V30 12 1 12 13
M  V30 13 1 13 14
M  V30 14 1 14 15
M  V30 15 1 13 16
M  V30 16 2 16 17
M  V30 17 2 16 18
M  V30 18 1 16 19
M  V30 19 2 19 20
M  V30 20 1 20 21
M  V30 21 2 21 22
M  V30 22 1 22 23
M  V30 23 2 23 24
M  V30 24 1 24 25
M  V30 25 2 7 26
M  V30 26 1 26 27
M  V30 27 2 27 28
M  V30 28 1 28 29
M  V30 29 2 29 30
M  V30 30 1 30 2
M  V30 31 1 29 6
M  V30 32 1 15 10
M  V30 33 1 24 19
M  V30 34 1 1 31
M  V30 35 1 1 32
M  V30 36 1 5 33
M  V30 37 1 5 34
M  V30 38 1 9 35
M  V30 39 1 9 36
M  V30 40 1 10 37
M  V30 41 1 11 38
M  V30 42 1 11 39
M  V30 43 1 12 40
M  V30 44 1 12 41
M  V30 45 1 14 42
M  V30 46 1 14 43
M  V30 47 1 15 44
M  V30 48 1 15 45
M  V30 49 1 20 46
M  V30 50 1 21 47
M  V30 51 1 22 48
M  V30 52 1 23 49
M  V30 53 1 26 50
M  V30 54 1 27 51
M  V30 55 1 28 52
M  V30 END BOND
M  V30 END CTAB
M  END
