
     RDKit          3D

  0  0  0  0  0  0  0  0  0  0999 V3000
M  V30 BEGIN CTAB
M  V30 COUNTS 20 20 0 0 0
M  V30 BEGIN ATOM
M  V30 1 C 3.12629 -0.348047 -0.643753 0
M  V30 2 O 2.04154 -1.23419 -0.454286 0
M  V30 3 C 0.802617 -0.636569 -0.143205 0
M  V30 4 C 0.649893 0.713276 -0.0297877 0
M  V30 5 C -0.566188 1.26072 0.27325 0
M  V30 6 N -0.77475 2.66482 0.402315 0
M  V30 7 C -1.64626 0.405313 0.463471 0
M  V30 8 C -1.48907 -0.958484 0.348238 0
M  V30 9 C -0.256895 -1.47458 0.0434615 0
M  V30 10 N -2.56782 -1.84888 0.53609 0
M  V30 11 Cl -3.19817 1.10621 0.850344 0
M  V30 12 H 3.94477 -0.956756 -1.10408 0
M  V30 13 H 2.79262 0.402503 -1.40377 0
M  V30 14 H 3.43826 0.124587 0.30874 0
M  V30 15 H 1.48809 1.38088 -0.177193 0
M  V30 16 H -0.198057 3.32932 -0.135122 0
M  V30 17 H -1.51836 3.00632 1.04774 0
M  V30 18 H -0.112372 -2.56438 -0.0528365 0
M  V30 19 H -3.12669 -2.17269 -0.286663 0
M  V30 20 H -2.82943 -2.19936 1.48207 0
M  V30 END ATOM
M  V30 BEGIN BOND
M  V30 1 1 1 2
M  V30 2 1 2 3
M  V30 3 2 3 4
M  V30 4 1 4 5
M  V30 5 1 5 6
M  V30 6 2 5 7
M  V30 7 1 7 8
M  V30 8 2 8 9
M  V30 9 1 8 10
M  V30 10 1 7 11
M  V30 11 1 9 3
M  V30 12 1 1 12
M  V30 13 1 1 13
M  V30 14 1 1 14
M  V30 15 1 4 15
M  V30 16 1 6 16
M  V30 17 1 6 17
M  V30 18 1 9 18
M  V30 19 1 10 19
M  V30 20 1 10 20
M  V30 END BOND
M  V30 END CTAB
M  END
