
     RDKit          3D

  0  0  0  0  0  0  0  0  0  0999 V3000
M  V30 BEGIN CTAB
M  V30 COUNTS 28 28 0 0 0
M  V30 BEGIN ATOM
M  V30 1 N -4.14478 1.37352 0.291339 0
M  V30 2 C -3.1748 0.35456 0.105169 0
M  V30 3 C -3.49649 -0.971675 -0.034422 0
M  V30 4 C -2.4837 -1.88123 -0.210134 0
M  V30 5 C -1.16252 -1.44038 -0.242472 0
M  V30 6 C -0.826827 -0.122205 -0.104895 0
M  V30 7 C -1.8563 0.78031 0.071114 0
M  V30 8 C 0.595773 0.292507 -0.149581 0
M  V30 9 C 1.56052 -0.837355 -0.0404661 0
M  V30 10 S 3.25079 -0.372358 -0.0875906 0
M  V30 11 O 3.48975 0.310194 -1.42695 0
M  V30 12 O 4.10246 -1.62226 -0.0508 0
M  V30 13 C 3.77275 0.707685 1.1811 0
M  V30 14 N 0.798743 1.19092 0.970712 0
M  V30 15 H -4.09047 2.21149 -0.315693 0
M  V30 16 H -4.87275 1.25866 1.01738 0
M  V30 17 H -4.52374 -1.28516 -0.00572577 0
M  V30 18 H -2.69059 -2.95497 -0.32662 0
M  V30 19 H -0.415453 -2.19996 -0.379828 0
M  V30 20 H -1.59039 1.82027 0.179697 0
M  V30 21 H 0.759602 0.916385 -1.05965 0
M  V30 22 H 1.3552 -1.49535 -0.94225 0
M  V30 23 H 1.37602 -1.47742 0.844834 0
M  V30 24 H 3.2582 0.546387 2.13967 0
M  V30 25 H 3.8141 1.76896 0.856983 0
M  V30 26 H 4.85641 0.464577 1.41209 0
M  V30 27 H 1.44204 1.96181 0.798142 0
M  V30 28 H 0.896448 0.702106 1.88016 0
M  V30 END ATOM
M  V30 BEGIN BOND
M  V30 1 1 1 2
M  V30 2 2 2 3
M  V30 3 1 3 4
M  V30 4 2 4 5
M  V30 5 1 5 6
M  V30 6 2 6 7
M  V30 7 1 6 8
M  V30 8 1 8 9
M  V30 9 1 9 10
M  V30 10 2 10 11
M  V30 11 2 10 12
M  V30 12 1 10 13
M  V30 13 1 8 14
M  V30 14 1 7 2
M  V30 15 1 1 15
M  V30 16 1 1 16
M  V30 17 1 3 17
M  V30 18 1 4 18
M  V30 19 1 5 19
M  V30 20 1 7 20
M  V30 21 1 8 21
M  V30 22 1 9 22
M  V30 23 1 9 23
M  V30 24 1 13 24
M  V30 25 1 13 25
M  V30 26 1 13 26
M  V30 27 1 14 27
M  V30 28 1 14 28
M  V30 END BOND
M  V30 END CTAB
M  END
