
     RDKit          3D

  0  0  0  0  0  0  0  0  0  0999 V3000
M  V30 BEGIN CTAB
M  V30 COUNTS 22 22 0 0 0
M  V30 BEGIN ATOM
M  V30 1 N -2.77821 -1.3549 0.255032 0
M  V30 2 C -2.35407 -0.156831 -0.576158 0
M  V30 3 C -0.882053 -0.153546 -0.395001 0
M  V30 4 C -0.15593 -1.33662 -0.545271 0
M  V30 5 C 1.23014 -1.30412 -0.285053 0
M  V30 6 C 1.80345 -0.12051 0.113196 0
M  V30 7 C 1.02762 1.04887 0.237701 0
M  V30 8 C -0.323179 1.03684 -0.0198294 0
M  V30 9 N -1.12899 2.1777 0.0148631 0
M  V30 10 C 3.25208 -0.0810548 0.451777 0
M  V30 11 H -3.04725 -0.838804 1.22494 0
M  V30 12 H -1.92384 -1.8484 0.5983 0
M  V30 13 H -2.88843 0.683057 -0.211771 0
M  V30 14 H -2.65659 -0.517704 -1.62629 0
M  V30 15 H -0.560064 -2.23466 -0.953151 0
M  V30 16 H 1.8575 -2.20543 -0.394413 0
M  V30 17 H 1.45692 1.96149 0.564791 0
M  V30 18 H -1.92905 2.46288 0.571066 0
M  V30 19 H -0.818489 2.93432 -0.697954 0
M  V30 20 H 3.63484 -1.11365 0.597294 0
M  V30 21 H 3.79434 0.48057 -0.322995 0
M  V30 22 H 3.38929 0.480509 1.39893 0
M  V30 END ATOM
M  V30 BEGIN BOND
M  V30 1 1 1 2
M  V30 2 1 2 3
M  V30 3 2 3 4
M  V30 4 1 4 5
M  V30 5 2 5 6
M  V30 6 1 6 7
M  V30 7 2 7 8
M  V30 8 1 8 9
M  V30 9 1 6 10
M  V30 10 1 8 3
M  V30 11 1 1 11
M  V30 12 1 1 12
M  V30 13 1 2 13
M  V30 14 1 2 14
M  V30 15 1 4 15
M  V30 16 1 5 16
M  V30 17 1 7 17
M  V30 18 1 9 18
M  V30 19 1 9 19
M  V30 20 1 10 20
M  V30 21 1 10 21
M  V30 22 1 10 22
M  V30 END BOND
M  V30 END CTAB
M  END
