
     RDKit          3D

  0  0  0  0  0  0  0  0  0  0999 V3000
M  V30 BEGIN CTAB
M  V30 COUNTS 51 52 0 0 0
M  V30 BEGIN ATOM
M  V30 1 C 5.51389 0.900326 1.37392 0
M  V30 2 C 4.96462 -0.495201 1.37768 0
M  V30 3 C 4.49327 -1.0012 0.0526679 0
M  V30 4 N 3.43623 -0.186 -0.513254 0
M  V30 5 C 3.78429 0.798208 -1.35605 0
M  V30 6 O 5.0056 0.996953 -1.6694 0
M  V30 7 N 2.8089 1.56565 -1.85912 0
M  V30 8 C 1.48391 1.38701 -1.55153 0
M  V30 9 O 0.637978 2.16792 -2.08405 0
M  V30 10 C 1.10443 0.388759 -0.695291 0
M  V30 11 C 2.15126 -0.387727 -0.192554 0
M  V30 12 N 1.80273 -1.43291 0.703774 0
M  V30 13 C -0.273812 0.105962 -0.330318 0
M  V30 14 O -0.441245 -0.90065 0.433105 0
M  V30 15 C -1.46769 0.831323 -0.733466 0
M  V30 16 N -2.4121 -0.0348838 -1.39236 0
M  V30 17 C -3.38218 0.819427 -2.13628 0
M  V30 18 C -4.12053 1.70858 -1.18407 0
M  V30 19 C -4.97924 0.837778 -0.309611 0
M  V30 20 C -4.16807 -0.245736 0.357892 0
M  V30 21 C -3.1812 -0.90436 -0.531201 0
M  V30 22 S -5.36503 -1.48699 0.858181 0
M  V30 23 O -5.99241 -2.04257 -0.361459 0
M  V30 24 O -4.66232 -2.55379 1.62425 0
M  V30 25 N -6.56466 -0.749217 1.83331 0
M  V30 26 C 6.11118 -1.39813 1.84512 0
M  V30 27 H 5.78212 1.11162 2.45614 0
M  V30 28 H 6.4727 1.01313 0.839618 0
M  V30 29 H 4.757 1.66198 1.10608 0
M  V30 30 H 4.18379 -0.559001 2.15473 0
M  V30 31 H 5.3427 -1.01841 -0.672503 0
M  V30 32 H 4.16419 -2.05181 0.156627 0
M  V30 33 H 3.06148 2.33629 -2.51613 0
M  V30 34 H 1.65492 -1.22839 1.73552 0
M  V30 35 H 1.67366 -2.41366 0.425822 0
M  V30 36 H -1.37128 1.80866 -1.19039 0
M  V30 37 H -2.01306 1.04291 0.284631 0
M  V30 38 H -2.75936 1.41427 -2.82534 0
M  V30 39 H -4.0089 0.147499 -2.72027 0
M  V30 40 H -3.38482 2.2391 -0.560507 0
M  V30 41 H -4.74116 2.38703 -1.79272 0
M  V30 42 H -5.40131 1.49089 0.497483 0
M  V30 43 H -5.81908 0.390688 -0.894755 0
M  V30 44 H -3.68001 0.167262 1.24672 0
M  V30 45 H -2.56062 -1.62397 -0.0301135 0
M  V30 46 H -3.80569 -1.52361 -1.27937 0
M  V30 47 H -6.28943 -0.682708 2.81778 0
M  V30 48 H -6.82319 0.153955 1.39143 0
M  V30 49 H 6.43142 -1.105 2.86261 0
M  V30 50 H 6.99728 -1.2482 1.17354 0
M  V30 51 H 5.84883 -2.47474 1.77347 0
M  V30 END ATOM
M  V30 BEGIN BOND
M  V30 1 1 1 2
M  V30 2 1 2 3
M  V30 3 1 3 4
M  V30 4 1 4 5
M  V30 5 2 5 6
M  V30 6 1 5 7
M  V30 7 1 7 8
M  V30 8 2 8 9
M  V30 9 1 8 10
M  V30 10 2 10 11
M  V30 11 1 11 12
M  V30 12 1 10 13
M  V30 13 2 13 14
M  V30 14 1 13 15
M  V30 15 1 15 16
M  V30 16 1 16 17
M  V30 17 1 17 18
M  V30 18 1 18 19
M  V30 19 1 19 20
M  V30 20 1 20 21
M  V30 21 1 20 22
M  V30 22 2 22 23
M  V30 23 2 22 24
M  V30 24 1 22 25
M  V30 25 1 2 26
M  V30 26 1 11 4
M  V30 27 1 21 16
M  V30 28 1 1 27
M  V30 29 1 1 28
M  V30 30 1 1 29
M  V30 31 1 2 30
M  V30 32 1 3 31
M  V30 33 1 3 32
M  V30 34 1 7 33
M  V30 35 1 12 34
M  V30 36 1 12 35
M  V30 37 1 15 36
M  V30 38 1 15 37
M  V30 39 1 17 38
M  V30 40 1 17 39
M  V30 41 1 18 40
M  V30 42 1 18 41
M  V30 43 1 19 42
M  V30 44 1 19 43
M  V30 45 1 20 44
M  V30 46 1 21 45
M  V30 47 1 21 46
M  V30 48 1 25 47
M  V30 49 1 25 48
M  V30 50 1 26 49
M  V30 51 1 26 50
M  V30 52 1 26 51
M  V30 END BOND
M  V30 END CTAB
M  END
