
     RDKit          3D

  0  0  0  0  0  0  0  0  0  0999 V3000
M  V30 BEGIN CTAB
M  V30 COUNTS 56 60 0 0 0
M  V30 BEGIN ATOM
M  V30 1 N 9.68291 0.985183 -0.85208 0
M  V30 2 N 8.47166 0.293894 -0.774931 0
M  V30 3 C 7.26701 1.01474 -0.6995 0
M  V30 4 O 7.27647 2.2599 -0.70117 0
M  V30 5 C 5.98783 0.284495 -0.61811 0
M  V30 6 C 5.84732 -1.08813 -0.608682 0
M  V30 7 C 4.4945 -1.33495 -0.522801 0
M  V30 8 C 3.85554 -0.126054 -0.482733 0
M  V30 9 O 4.79437 0.791856 -0.542618 0
M  V30 10 C 2.41228 0.139643 -0.391302 0
M  V30 11 S 1.68508 1.67575 -0.346346 0
M  V30 12 C 0.0451427 1.20257 -0.241603 0
M  V30 13 C 0.12045 -0.166042 -0.245291 0
M  V30 14 C 1.34882 -0.710227 -0.322925 0
M  V30 15 N 1.62055 -2.14478 -0.337687 0
M  V30 16 C -1.11199 -0.834751 -0.166024 0
M  V30 17 C -1.35365 -2.25464 -0.146835 0
M  V30 18 C -2.29673 -2.52507 1.04596 0
M  V30 19 C -1.56346 -2.3755 2.34638 0
M  V30 20 C -2.77076 -3.97821 0.969324 0
M  V30 21 O -3.39639 -1.71821 1.05748 0
M  V30 22 C -3.53168 -0.867571 -0.0354053 0
M  V30 23 C -2.27562 -0.0540902 -0.0919621 0
M  V30 24 C -2.33198 1.28721 -0.0882176 0
M  V30 25 N -1.11694 1.91632 -0.16707 0
M  V30 26 N -3.52059 2.03409 0.0130253 0
M  V30 27 C -4.33645 2.10774 1.19957 0
M  V30 28 C -4.38 3.59157 1.57515 0
M  V30 29 O -4.63758 4.41928 0.517641 0
M  V30 30 C -4.99999 3.8246 -0.661789 0
M  V30 31 C -3.98109 2.79346 -1.13128 0
M  V30 32 H 9.61622 1.95688 -0.536258 0
M  V30 33 H 10.4334 0.511939 -0.277313 0
M  V30 34 H 8.45665 -0.752022 -0.772873 0
M  V30 35 H 6.65176 -1.79813 -0.659424 0
M  V30 36 H 4.10103 -2.3387 -0.497529 0
M  V30 37 H 1.82841 -2.68744 0.500493 0
M  V30 38 H 1.58699 -2.58469 -1.28095 0
M  V30 39 H -2.04032 -2.45027 -1.04048 0
M  V30 40 H -0.599544 -2.99078 -0.236665 0
M  V30 41 H -1.57314 -1.31643 2.63231 0
M  V30 42 H -2.16189 -2.92376 3.12076 0
M  V30 43 H -0.525021 -2.76574 2.30847 0
M  V30 44 H -3.17752 -4.13671 -0.0516108 0
M  V30 45 H -3.55471 -4.10658 1.73864 0
M  V30 46 H -1.88771 -4.61863 1.12429 0
M  V30 47 H -3.72278 -1.40789 -0.991834 0
M  V30 48 H -4.41311 -0.245639 0.133934 0
M  V30 49 H -3.88817 1.57899 2.04705 0
M  V30 50 H -5.37249 1.73434 1.05029 0
M  V30 51 H -3.37098 3.79343 2.03914 0
M  V30 52 H -5.10366 3.73494 2.40373 0
M  V30 53 H -5.97556 3.31907 -0.634142 0
M  V30 54 H -5.02356 4.60681 -1.44426 0
M  V30 55 H -4.5018 2.14712 -1.86535 0
M  V30 56 H -3.08757 3.29581 -1.59147 0
M  V30 END ATOM
M  V30 BEGIN BOND
M  V30 1 1 1 2
M  V30 2 1 2 3
M  V30 3 2 3 4
M  V30 4 1 3 5
M  V30 5 2 5 6
M  V30 6 1 6 7
M  V30 7 2 7 8
M  V30 8 1 8 9
M  V30 9 1 8 10
M  V30 10 1 10 11
M  V30 11 1 11 12
M  V30 12 2 12 13
M  V30 13 1 13 14
M  V30 14 1 14 15
M  V30 15 1 13 16
M  V30 16 1 16 17
M  V30 17 1 17 18
M  V30 18 1 18 19
M  V30 19 1 18 20
M  V30 20 1 18 21
M  V30 21 1 21 22
M  V30 22 1 22 23
M  V30 23 1 23 24
M  V30 24 2 24 25
M  V30 25 1 24 26
M  V30 26 1 26 27
M  V30 27 1 27 28
M  V30 28 1 28 29
M  V30 29 1 29 30
M  V30 30 1 30 31
M  V30 31 1 9 5
M  V30 32 2 14 10
M  V30 33 2 23 16
M  V30 34 1 31 26
M  V30 35 1 25 12
M  V30 36 1 1 32
M  V30 37 1 1 33
M  V30 38 1 2 34
M  V30 39 1 6 35
M  V30 40 1 7 36
M  V30 41 1 15 37
M  V30 42 1 15 38
M  V30 43 1 17 39
M  V30 44 1 17 40
M  V30 45 1 19 41
M  V30 46 1 19 42
M  V30 47 1 19 43
M  V30 48 1 20 44
M  V30 49 1 20 45
M  V30 50 1 20 46
M  V30 51 1 22 47
M  V30 52 1 22 48
M  V30 53 1 27 49
M  V30 54 1 27 50
M  V30 55 1 28 51
M  V30 56 1 28 52
M  V30 57 1 30 53
M  V30 58 1 30 54
M  V30 59 1 31 55
M  V30 60 1 31 56
M  V30 END BOND
M  V30 END CTAB
M  END
