
     RDKit          3D

  0  0  0  0  0  0  0  0  0  0999 V3000
M  V30 BEGIN CTAB
M  V30 COUNTS 51 54 0 0 0
M  V30 BEGIN ATOM
M  V30 1 N 8.82787 2.22 1.16071 0
M  V30 2 C 7.79454 1.51578 0.463535 0
M  V30 3 C 6.63521 2.20682 0.104085 0
M  V30 4 C 5.59628 1.60145 -0.567576 0
M  V30 5 C 5.74281 0.269832 -0.877292 0
M  V30 6 C 6.88122 -0.426337 -0.529351 0
M  V30 7 C 7.91771 0.192871 0.145086 0
M  V30 8 S 4.42023 -0.549323 -1.7462 0
M  V30 9 C 3.27274 -1.24247 -0.567373 0
M  V30 10 C 3.47409 -1.10669 0.784265 0
M  V30 11 C 2.60266 -1.63284 1.70645 0
M  V30 12 C 1.50617 -2.30939 1.26865 0
M  V30 13 C 1.26674 -2.46849 -0.0786958 0
M  V30 14 C 2.15638 -1.93111 -0.994463 0
M  V30 15 S -0.162069 -3.34919 -0.5486 0
M  V30 16 O 0.104533 -3.98131 -1.88642 0
M  V30 17 O -0.495958 -4.43875 0.426422 0
M  V30 18 C -1.47173 -2.21625 -0.708014 0
M  V30 19 C -1.68137 -1.62715 -1.93359 0
M  V30 20 C -2.69695 -0.722682 -2.13352 0
M  V30 21 C -3.52344 -0.393311 -1.09928 0
M  V30 22 C -3.33447 -0.970019 0.139946 0
M  V30 23 C -2.31071 -1.87546 0.322911 0
M  V30 24 S -4.40051 -0.568446 1.54264 0
M  V30 25 C -5.63852 0.615454 1.06015 0
M  V30 26 C -6.86894 0.180915 0.563758 0
M  V30 27 C -7.84947 1.07299 0.181125 0
M  V30 28 C -7.61172 2.4483 0.290536 0
M  V30 29 C -6.40451 2.90308 0.777862 0
M  V30 30 C -5.45641 1.97699 1.14717 0
M  V30 31 N -8.60141 3.38844 -0.0952524 0
M  V30 32 H 9.77419 2.29246 0.724806 0
M  V30 33 H 8.58468 2.63713 2.09054 0
M  V30 34 H 6.55454 3.25926 0.365732 0
M  V30 35 H 4.73024 2.19293 -0.814614 0
M  V30 36 H 6.94483 -1.47038 -0.796805 0
M  V30 37 H 8.81275 -0.330708 0.425423 0
M  V30 38 H 4.34464 -0.569004 1.19127 0
M  V30 39 H 2.7552 -1.52954 2.77716 0
M  V30 40 H 0.812487 -2.72817 2.00782 0
M  V30 41 H 1.94502 -2.07033 -2.04888 0
M  V30 42 H -1.05382 -1.85531 -2.78344 0
M  V30 43 H -2.87648 -0.246421 -3.09999 0
M  V30 44 H -4.34464 0.3096 -1.17724 0
M  V30 45 H -2.11894 -2.36027 1.28485 0
M  V30 46 H -7.01488 -0.888765 0.494242 0
M  V30 47 H -8.79934 0.724118 -0.202218 0
M  V30 48 H -6.2644 3.96756 0.844991 0
M  V30 49 H -4.51935 2.33882 1.52554 0
M  V30 50 H -8.67796 4.2976 0.418593 0
M  V30 51 H -9.27977 3.24571 -0.871308 0
M  V30 END ATOM
M  V30 BEGIN BOND
M  V30 1 1 1 2
M  V30 2 2 2 3
M  V30 3 1 3 4
M  V30 4 2 4 5
M  V30 5 1 5 6
M  V30 6 2 6 7
M  V30 7 1 5 8
M  V30 8 1 8 9
M  V30 9 2 9 10
M  V30 10 1 10 11
M  V30 11 2 11 12
M  V30 12 1 12 13
M  V30 13 2 13 14
M  V30 14 1 13 15
M  V30 15 2 15 16
M  V30 16 2 15 17
M  V30 17 1 15 18
M  V30 18 2 18 19
M  V30 19 1 19 20
M  V30 20 2 20 21
M  V30 21 1 21 22
M  V30 22 2 22 23
M  V30 23 1 22 24
M  V30 24 1 24 25
M  V30 25 2 25 26
M  V30 26 1 26 27
M  V30 27 2 27 28
M  V30 28 1 28 29
M  V30 29 2 29 30
M  V30 30 1 28 31
M  V30 31 1 7 2
M  V30 32 1 14 9
M  V30 33 1 23 18
M  V30 34 1 30 25
M  V30 35 1 1 32
M  V30 36 1 1 33
M  V30 37 1 3 34
M  V30 38 1 4 35
M  V30 39 1 6 36
M  V30 40 1 7 37
M  V30 41 1 10 38
M  V30 42 1 11 39
M  V30 43 1 12 40
M  V30 44 1 14 41
M  V30 45 1 19 42
M  V30 46 1 20 43
M  V30 47 1 21 44
M  V30 48 1 23 45
M  V30 49 1 26 46
M  V30 50 1 27 47
M  V30 51 1 29 48
M  V30 52 1 30 49
M  V30 53 1 31 50
M  V30 54 1 31 51
M  V30 END BOND
M  V30 END CTAB
M  END
