
     RDKit          3D

  0  0  0  0  0  0  0  0  0  0999 V3000
M  V30 BEGIN CTAB
M  V30 COUNTS 25 26 0 0 0
M  V30 BEGIN ATOM
M  V30 1 C -1.62616 2.11769 -0.122282 0
M  V30 2 C -1.92172 0.68434 0.038242 0
M  V30 3 C -3.24404 0.28186 0.141145 0
M  V30 4 C -3.5134 -1.05038 0.290114 0
M  V30 5 N -2.56759 -1.97764 0.340919 0
M  V30 6 C -1.25195 -1.61949 0.242864 0
M  V30 7 C -0.932368 -0.301197 0.0929829 0
M  V30 8 C 0.455003 0.134953 -0.0164308 0
M  V30 9 N 0.88744 1.41365 -0.167586 0
M  V30 10 C 2.21964 1.48147 -0.236688 0
M  V30 11 N 2.67438 0.22694 -0.129404 0
M  V30 12 C 1.6046 -0.606905 0.00592085 0
M  V30 13 N 1.78394 -2.03115 0.143435 0
M  V30 14 N 3.9993 -0.186447 -0.148885 0
M  V30 15 H -1.20603 2.40113 -1.10436 0
M  V30 16 H -2.63146 2.67189 -0.13034 0
M  V30 17 H -1.12357 2.57412 0.754506 0
M  V30 18 H -4.03979 1.00037 0.104703 0
M  V30 19 H -4.55288 -1.40526 0.374952 0
M  V30 20 H -0.505737 -2.42608 0.290629 0
M  V30 21 H 2.77942 2.40833 -0.357735 0
M  V30 22 H 1.67381 -2.6712 -0.68386 0
M  V30 23 H 2.02336 -2.43321 1.06233 0
M  V30 24 H 4.50552 -0.406974 -1.0285 0
M  V30 25 H 4.51031 -0.280812 0.750532 0
M  V30 END ATOM
M  V30 BEGIN BOND
M  V30 1 1 1 2
M  V30 2 2 2 3
M  V30 3 1 3 4
M  V30 4 2 4 5
M  V30 5 1 5 6
M  V30 6 2 6 7
M  V30 7 1 7 8
M  V30 8 1 8 9
M  V30 9 2 9 10
M  V30 10 1 10 11
M  V30 11 1 11 12
M  V30 12 1 12 13
M  V30 13 1 11 14
M  V30 14 1 7 2
M  V30 15 2 12 8
M  V30 16 1 1 15
M  V30 17 1 1 16
M  V30 18 1 1 17
M  V30 19 1 3 18
M  V30 20 1 4 19
M  V30 21 1 6 20
M  V30 22 1 10 21
M  V30 23 1 13 22
M  V30 24 1 13 23
M  V30 25 1 14 24
M  V30 26 1 14 25
M  V30 END BOND
M  V30 END CTAB
M  END
