
     RDKit          3D

  0  0  0  0  0  0  0  0  0  0999 V3000
M  V30 BEGIN CTAB
M  V30 COUNTS 37 39 0 0 0
M  V30 BEGIN ATOM
M  V30 1 N -3.21137 -0.842552 -1.51488 0
M  V30 2 C -3.14413 -0.0590583 -0.320847 0
M  V30 3 N -4.31636 0.128498 0.306811 0
M  V30 4 C -4.36231 0.853045 1.43527 0
M  V30 5 C -3.19929 1.41786 1.9686 0
M  V30 6 C -2.00415 1.21912 1.31734 0
M  V30 7 C -1.98891 0.472529 0.163848 0
M  V30 8 C -0.71828 0.246421 -0.548958 0 CFG=1
M  V30 9 C 0.0958511 1.44223 -0.784966 0
M  V30 10 C 1.24193 1.00415 -1.73392 0
M  V30 11 N 2.14193 0.207932 -0.854078 0
M  V30 12 C 1.47282 -0.850258 -0.196903 0
M  V30 13 C 0.105009 -0.855714 0.0114241 0
M  V30 14 C -0.531722 -1.90279 0.696825 0
M  V30 15 C 0.249679 -2.92793 1.1543 0
M  V30 16 C 1.61033 -2.94909 0.958784 0
M  V30 17 C 2.22439 -1.9029 0.277912 0
M  V30 18 S 3.78772 0.620542 -0.710269 0
M  V30 19 O 4.55764 -0.143551 0.311264 0
M  V30 20 O 4.48908 0.661028 -2.03736 0
M  V30 21 N 3.79364 2.27057 -0.0565198 0
M  V30 22 H -2.86951 -0.516239 -2.43447 0
M  V30 23 H -3.62694 -1.78686 -1.44139 0
M  V30 24 H -5.27827 1.03205 1.97574 0
M  V30 25 H -3.23626 1.99856 2.87258 0
M  V30 26 H -1.0754 1.65716 1.72223 0
M  V30 27 H -1.01151 -0.144668 -1.58284 0
M  V30 28 H 0.615252 1.76707 0.13621 0
M  V30 29 H -0.381874 2.27497 -1.30184 0
M  V30 30 H 0.853681 0.294952 -2.47978 0
M  V30 31 H 1.78053 1.86507 -2.1351 0
M  V30 32 H -1.60536 -1.86409 0.841724 0
M  V30 33 H -0.270133 -3.73315 1.68575 0
M  V30 34 H 2.22527 -3.76311 1.32148 0
M  V30 35 H 3.28046 -1.90702 0.0895685 0
M  V30 36 H 4.79322 2.56762 -0.0539099 0
M  V30 37 H 3.51335 2.14759 0.940359 0
M  V30 END ATOM
M  V30 BEGIN BOND
M  V30 1 1 1 2
M  V30 2 2 2 3
M  V30 3 1 3 4
M  V30 4 2 4 5
M  V30 5 1 5 6
M  V30 6 2 6 7
M  V30 7 1 7 8
M  V30 8 1 8 9
M  V30 9 1 9 10
M  V30 10 1 10 11
M  V30 11 1 11 12
M  V30 12 2 12 13
M  V30 13 1 13 14
M  V30 14 2 14 15
M  V30 15 1 15 16
M  V30 16 2 16 17
M  V30 17 1 11 18
M  V30 18 2 18 19
M  V30 19 2 18 20
M  V30 20 1 18 21
M  V30 21 1 7 2
M  V30 22 1 13 8
M  V30 23 1 17 12
M  V30 24 1 1 22
M  V30 25 1 1 23
M  V30 26 1 4 24
M  V30 27 1 5 25
M  V30 28 1 6 26
M  V30 29 1 8 27 CFG=3
M  V30 30 1 9 28
M  V30 31 1 9 29
M  V30 32 1 10 30
M  V30 33 1 10 31
M  V30 34 1 14 32
M  V30 35 1 15 33
M  V30 36 1 16 34
M  V30 37 1 17 35
M  V30 38 1 21 36
M  V30 39 1 21 37
M  V30 END BOND
M  V30 END CTAB
M  END
