
     RDKit          3D

  0  0  0  0  0  0  0  0  0  0999 V3000
M  V30 BEGIN CTAB
M  V30 COUNTS 42 44 0 0 0
M  V30 BEGIN ATOM
M  V30 1 N 5.285 1.99116 -0.683282 0
M  V30 2 C 4.44197 1.02484 -0.0810065 0
M  V30 3 N 4.80875 0.331445 1.01997 0
M  V30 4 C 4.01728 -0.589783 1.60259 0
M  V30 5 N 4.43845 -1.30148 2.76336 0
M  V30 6 N 2.81248 -0.809063 1.04172 0
M  V30 7 C 2.35815 -0.170361 -0.0525953 0
M  V30 8 C 3.19679 0.763605 -0.618332 0
M  V30 9 N 1.08414 -0.466634 -0.566899 0
M  V30 10 C 0.240479 -1.45818 0.0661611 0
M  V30 11 C -1.05722 -0.705799 0.372508 0
M  V30 12 C -1.73389 -0.366019 -0.895797 0
M  V30 13 C -0.837788 -0.0948964 -2.05653 0
M  V30 14 C 0.585676 0.197046 -1.72231 0
M  V30 15 C -2.65026 0.811584 -0.696842 0
M  V30 16 C -3.74439 0.628795 0.293733 0
M  V30 17 C -3.57179 0.342399 1.71447 0
M  V30 18 C -3.95111 1.75445 1.27158 0
M  V30 19 C -2.62791 -1.53386 -1.2332 0
M  V30 20 O -2.46548 -2.15503 -2.31408 0
M  V30 21 O -3.64216 -1.96751 -0.394402 0
M  V30 22 H 5.12842 2.23794 -1.67512 0
M  V30 23 H 6.04527 2.44804 -0.152958 0
M  V30 24 H 4.70908 -2.29868 2.68492 0
M  V30 25 H 4.48321 -0.850567 3.69064 0
M  V30 26 H 2.88943 1.30747 -1.49541 0
M  V30 27 H 0.0341782 -2.23313 -0.703203 0
M  V30 28 H 0.697635 -1.87662 0.979038 0
M  V30 29 H -0.746309 0.214374 0.871979 0
M  V30 30 H -1.65063 -1.40707 0.983475 0
M  V30 31 H -1.22691 0.759773 -2.64945 0
M  V30 32 H -0.853428 -0.970514 -2.73811 0
M  V30 33 H 1.24804 -0.0789332 -2.57929 0
M  V30 34 H 0.75926 1.3036 -1.5819 0
M  V30 35 H -3.11689 1.13623 -1.6647 0
M  V30 36 H -2.02628 1.68029 -0.37774 0
M  V30 37 H -4.70594 0.237575 -0.169224 0
M  V30 38 H -2.63737 0.300797 2.27625 0
M  V30 39 H -4.42597 -0.187516 2.23497 0
M  V30 40 H -4.95138 2.12513 1.51037 0
M  V30 41 H -3.16528 2.54514 1.34492 0
M  V30 42 H -3.47528 -2.62003 0.379737 0
M  V30 END ATOM
M  V30 BEGIN BOND
M  V30 1 1 1 2
M  V30 2 2 2 3
M  V30 3 1 3 4
M  V30 4 1 4 5
M  V30 5 2 4 6
M  V30 6 1 6 7
M  V30 7 2 7 8
M  V30 8 1 7 9
M  V30 9 1 9 10
M  V30 10 1 10 11
M  V30 11 1 11 12
M  V30 12 1 12 13
M  V30 13 1 13 14
M  V30 14 1 12 15
M  V30 15 1 15 16
M  V30 16 1 16 17
M  V30 17 1 17 18
M  V30 18 1 12 19
M  V30 19 2 19 20
M  V30 20 1 19 21
M  V30 21 1 8 2
M  V30 22 1 14 9
M  V30 23 1 18 16
M  V30 24 1 1 22
M  V30 25 1 1 23
M  V30 26 1 5 24
M  V30 27 1 5 25
M  V30 28 1 8 26
M  V30 29 1 10 27
M  V30 30 1 10 28
M  V30 31 1 11 29
M  V30 32 1 11 30
M  V30 33 1 13 31
M  V30 34 1 13 32
M  V30 35 1 14 33
M  V30 36 1 14 34
M  V30 37 1 15 35
M  V30 38 1 15 36
M  V30 39 1 16 37
M  V30 40 1 17 38
M  V30 41 1 17 39
M  V30 42 1 18 40
M  V30 43 1 18 41
M  V30 44 1 21 42
M  V30 END BOND
M  V30 END CTAB
M  END
