
     RDKit          3D

  0  0  0  0  0  0  0  0  0  0999 V3000
M  V30 BEGIN CTAB
M  V30 COUNTS 30 32 0 0 0
M  V30 BEGIN ATOM
M  V30 1 N 5.55545 1.09404 -0.321513 0
M  V30 2 C 4.25345 0.529952 -0.232705 0
M  V30 3 C 3.15744 1.3276 -0.00669804 0
M  V30 4 C 1.87891 0.801005 0.0837966 0
M  V30 5 C 1.63526 -0.533458 -0.0455776 0
M  V30 6 C 2.76536 -1.33245 -0.27589 0
M  V30 7 C 4.02937 -0.823884 -0.366781 0
M  V30 8 N 2.30832 -2.58104 -0.370196 0
M  V30 9 C 0.980819 -2.58541 -0.212069 0
M  V30 10 N 0.551055 -1.31359 -0.00896906 0
M  V30 11 C -0.791365 -0.935839 0.195324 0
M  V30 12 O -1.69247 -1.86343 0.189196 0
M  V30 13 C -1.32095 0.406488 0.420736 0
M  V30 14 N -2.78711 0.397316 0.578289 0
M  V30 15 N -3.46753 0.262203 1.70246 0
M  V30 16 N -4.77497 0.300637 1.46818 0
M  V30 17 C -4.9797 0.46644 0.148139 0
M  V30 18 C -3.71476 0.525873 -0.401504 0
M  V30 19 N -6.24333 0.556199 -0.499807 0
M  V30 20 H 5.72142 2.03697 0.117176 0
M  V30 21 H 6.36294 0.654105 -0.784615 0
M  V30 22 H 3.25802 2.41373 0.110311 0
M  V30 23 H 1.05878 1.45538 0.258823 0
M  V30 24 H 4.89211 -1.47426 -0.547399 0
M  V30 25 H 0.364025 -3.45978 -0.242689 0
M  V30 26 H -1.13351 1.01676 -0.484949 0
M  V30 27 H -0.917114 0.838794 1.36031 0
M  V30 28 H -3.51001 0.655492 -1.45427 0
M  V30 29 H -6.35603 0.174105 -1.46336 0
M  V30 30 H -7.08388 0.990073 -0.0621593 0
M  V30 END ATOM
M  V30 BEGIN BOND
M  V30 1 1 1 2
M  V30 2 2 2 3
M  V30 3 1 3 4
M  V30 4 2 4 5
M  V30 5 1 5 6
M  V30 6 2 6 7
M  V30 7 1 6 8
M  V30 8 2 8 9
M  V30 9 1 9 10
M  V30 10 1 10 11
M  V30 11 2 11 12
M  V30 12 1 11 13
M  V30 13 1 13 14
M  V30 14 1 14 15
M  V30 15 2 15 16
M  V30 16 1 16 17
M  V30 17 2 17 18
M  V30 18 1 17 19
M  V30 19 1 7 2
M  V30 20 1 18 14
M  V30 21 1 10 5
M  V30 22 1 1 20
M  V30 23 1 1 21
M  V30 24 1 3 22
M  V30 25 1 4 23
M  V30 26 1 7 24
M  V30 27 1 9 25
M  V30 28 1 13 26
M  V30 29 1 13 27
M  V30 30 1 18 28
M  V30 31 1 19 29
M  V30 32 1 19 30
M  V30 END BOND
M  V30 END CTAB
M  END
