
     RDKit          3D

  0  0  0  0  0  0  0  0  0  0999 V3000
M  V30 BEGIN CTAB
M  V30 COUNTS 20 19 0 0 0
M  V30 BEGIN ATOM
M  V30 1 N -2.7215 1.16949 0.00331814 0
M  V30 2 S -2.14735 -0.12887 1.00318 0
M  V30 3 O -3.36143 -0.904417 1.4252 0
M  V30 4 O -1.41665 0.481828 2.15056 0
M  V30 5 O -1.1024 -1.13216 0.156373 0
M  V30 6 C -0.673275 -0.571874 -1.03364 0
M  V30 7 C 0.704265 -1.08381 -1.37193 0
M  V30 8 O 1.55591 -1.16564 -0.299449 0
M  V30 9 S 1.92664 0.250873 0.448184 0
M  V30 10 N 3.64162 0.535465 0.448273 0
M  V30 11 O 1.51007 0.134241 1.89664 0
M  V30 12 O 1.30012 1.46433 -0.138682 0
M  V30 13 H -3.57889 0.841328 -0.488941 0
M  V30 14 H -3.02193 1.93093 0.659176 0
M  V30 15 H -1.36101 -0.960034 -1.8271 0
M  V30 16 H -0.759938 0.52413 -1.07431 0
M  V30 17 H 0.557584 -2.13248 -1.73587 0
M  V30 18 H 1.11028 -0.525828 -2.23842 0
M  V30 19 H 4.07793 -0.186992 1.07457 0
M  V30 20 H 3.75996 1.45949 0.942844 0
M  V30 END ATOM
M  V30 BEGIN BOND
M  V30 1 1 1 2
M  V30 2 2 2 3
M  V30 3 2 2 4
M  V30 4 1 2 5
M  V30 5 1 5 6
M  V30 6 1 6 7
M  V30 7 1 7 8
M  V30 8 1 8 9
M  V30 9 1 9 10
M  V30 10 2 9 11
M  V30 11 2 9 12
M  V30 12 1 1 13
M  V30 13 1 1 14
M  V30 14 1 6 15
M  V30 15 1 6 16
M  V30 16 1 7 17
M  V30 17 1 7 18
M  V30 18 1 10 19
M  V30 19 1 10 20
M  V30 END BOND
M  V30 END CTAB
M  END
