
     RDKit          3D

  0  0  0  0  0  0  0  0  0  0999 V3000
M  V30 BEGIN CTAB
M  V30 COUNTS 38 40 0 0 0
M  V30 BEGIN ATOM
M  V30 1 C 4.3336 -2.02345 0.10366 0
M  V30 2 C 2.97284 -1.49174 0.0694356 0
M  V30 3 C 1.83792 -2.30923 -0.0498564 0
M  V30 4 C 0.564561 -1.84763 -0.084653 0
M  V30 5 C 0.31478 -0.520372 -0.00263756 0
M  V30 6 N -1.01691 -0.0357428 -0.0389248 0
M  V30 7 C -2.0835 -1.00155 -0.165287 0
M  V30 8 C -3.39856 -0.347774 -0.215432 0
M  V30 9 C -4.46419 -1.04455 0.344707 0
M  V30 10 C -5.71069 -0.479608 0.317802 0
M  V30 11 C -5.89405 0.770425 -0.262956 0
M  V30 12 C -4.83788 1.46257 -0.818982 0
M  V30 13 C -3.57542 0.878101 -0.785756 0
M  V30 14 C 1.37202 0.343821 0.115869 0
M  V30 15 C 2.66766 -0.138803 0.150348 0
M  V30 16 C 3.66698 0.768399 0.268897 0
M  V30 17 N 5.01286 0.430946 0.316697 0
M  V30 18 N 3.37468 2.10115 0.34907 0
M  V30 19 C 2.13159 2.55606 0.3154 0
M  V30 20 N 1.89202 3.96077 0.403557 0
M  V30 21 N 1.12979 1.66468 0.197859 0
M  V30 22 H 4.85413 -2.01134 1.07014 0
M  V30 23 H 4.95059 -1.87348 -0.801601 0
M  V30 24 H 4.1996 -3.15786 0.0085858 0
M  V30 25 H 2.01903 -3.37319 -0.116612 0
M  V30 26 H -0.257068 -2.57152 -0.180498 0
M  V30 27 H -1.26086 0.972232 0.0238007 0
M  V30 28 H -1.91199 -1.67061 -1.04486 0
M  V30 29 H -2.05632 -1.63443 0.768686 0
M  V30 30 H -4.30149 -2.02038 0.794109 0
M  V30 31 H -6.55834 -1.01179 0.752453 0
M  V30 32 H -6.8767 1.19585 -0.27423 0
M  V30 33 H -4.98808 2.43921 -1.2713 0
M  V30 34 H -2.75334 1.44117 -1.23497 0
M  V30 35 H 5.58956 0.367242 -0.54837 0
M  V30 36 H 5.47502 0.243672 1.23212 0
M  V30 37 H 0.981964 4.32271 0.763153 0
M  V30 38 H 2.60421 4.64606 0.117341 0
M  V30 END ATOM
M  V30 BEGIN BOND
M  V30 1 1 1 2
M  V30 2 2 2 3
M  V30 3 1 3 4
M  V30 4 2 4 5
M  V30 5 1 5 6
M  V30 6 1 6 7
M  V30 7 1 7 8
M  V30 8 2 8 9
M  V30 9 1 9 10
M  V30 10 2 10 11
M  V30 11 1 11 12
M  V30 12 2 12 13
M  V30 13 1 5 14
M  V30 14 2 14 15
M  V30 15 1 15 16
M  V30 16 1 16 17
M  V30 17 2 16 18
M  V30 18 1 18 19
M  V30 19 1 19 20
M  V30 20 2 19 21
M  V30 21 1 15 2
M  V30 22 1 13 8
M  V30 23 1 21 14
M  V30 24 1 1 22
M  V30 25 1 1 23
M  V30 26 1 1 24
M  V30 27 1 3 25
M  V30 28 1 4 26
M  V30 29 1 6 27
M  V30 30 1 7 28
M  V30 31 1 7 29
M  V30 32 1 9 30
M  V30 33 1 10 31
M  V30 34 1 11 32
M  V30 35 1 12 33
M  V30 36 1 13 34
M  V30 37 1 17 35
M  V30 38 1 17 36
M  V30 39 1 20 37
M  V30 40 1 20 38
M  V30 END BOND
M  V30 END CTAB
M  END
