
     RDKit          3D

  0  0  0  0  0  0  0  0  0  0999 V3000
M  V30 BEGIN CTAB
M  V30 COUNTS 46 47 0 0 0
M  V30 BEGIN ATOM
M  V30 1 N -4.8981 -2.89299 1.30072 0
M  V30 2 C -4.89725 -1.71874 0.469763 0
M  V30 3 C -5.81298 -1.57122 -0.543663 0
M  V30 4 C -5.77988 -0.434297 -1.31046 0
M  V30 5 C -4.85035 0.556778 -1.08393 0
M  V30 6 C -3.90682 0.43407 -0.0605736 0
M  V30 7 C -3.97588 -0.714041 0.678213 0
M  V30 8 N -2.95093 1.45952 0.180965 0
M  V30 9 C -1.55745 1.26715 -0.0649591 0
M  V30 10 O -0.734494 2.19325 0.114497 0
M  V30 11 N -1.03852 0.0240309 -0.519526 0
M  V30 12 C 0.351985 -0.183273 -0.770233 0
M  V30 13 C 1.21621 0.001226 0.440295 0
M  V30 14 C 2.6553 -0.240926 0.126907 0
M  V30 15 C 3.48234 0.765069 -0.340674 0
M  V30 16 C 4.80274 0.49056 -0.613047 0
M  V30 17 C 5.32677 -0.766983 -0.431914 0
M  V30 18 C 4.48822 -1.7757 0.0397698 0
M  V30 19 C 3.16039 -1.49941 0.313502 0
M  V30 20 S 6.99464 -1.13917 -0.785725 0
M  V30 21 O 7.42716 -0.305319 -1.93837 0
M  V30 22 O 7.14231 -2.6197 -1.07435 0
M  V30 23 N 8.0068 -0.80503 0.587334 0
M  V30 24 C -3.41574 2.68871 0.686964 0
M  V30 25 O -4.64744 2.84287 0.895923 0
M  V30 26 C -2.51841 3.80419 0.984536 0
M  V30 27 H -4.11224 -3.56124 1.19935 0
M  V30 28 H -5.64169 -3.07689 1.97443 0
M  V30 29 H -6.54815 -2.36938 -0.714488 0
M  V30 30 H -6.49105 -0.289614 -2.12004 0
M  V30 31 H -4.79707 1.46611 -1.66788 0
M  V30 32 H -3.27472 -0.88398 1.49431 0
M  V30 33 H -1.71475 -0.784394 -0.681823 0
M  V30 34 H 0.691404 0.502467 -1.60277 0
M  V30 35 H 0.510725 -1.21139 -1.21869 0
M  V30 36 H 1.13567 1.02063 0.844123 0
M  V30 37 H 0.932057 -0.707808 1.24489 0
M  V30 38 H 3.05969 1.76475 -0.483045 0
M  V30 39 H 5.43629 1.30339 -0.981737 0
M  V30 40 H 4.90112 -2.74732 0.179237 0
M  V30 41 H 2.51757 -2.31188 0.683901 0
M  V30 42 H 7.45632 -0.317279 1.33657 0
M  V30 43 H 8.75897 -0.141894 0.298597 0
M  V30 44 H -1.76046 3.57218 1.77117 0
M  V30 45 H -1.99618 4.24381 0.107565 0
M  V30 46 H -3.13412 4.66911 1.39612 0
M  V30 END ATOM
M  V30 BEGIN BOND
M  V30 1 1 1 2
M  V30 2 2 2 3
M  V30 3 1 3 4
M  V30 4 2 4 5
M  V30 5 1 5 6
M  V30 6 2 6 7
M  V30 7 1 6 8
M  V30 8 1 8 9
M  V30 9 2 9 10
M  V30 10 1 9 11
M  V30 11 1 11 12
M  V30 12 1 12 13
M  V30 13 1 13 14
M  V30 14 2 14 15
M  V30 15 1 15 16
M  V30 16 2 16 17
M  V30 17 1 17 18
M  V30 18 2 18 19
M  V30 19 1 17 20
M  V30 20 2 20 21
M  V30 21 2 20 22
M  V30 22 1 20 23
M  V30 23 1 8 24
M  V30 24 2 24 25
M  V30 25 1 24 26
M  V30 26 1 7 2
M  V30 27 1 19 14
M  V30 28 1 1 27
M  V30 29 1 1 28
M  V30 30 1 3 29
M  V30 31 1 4 30
M  V30 32 1 5 31
M  V30 33 1 7 32
M  V30 34 1 11 33
M  V30 35 1 12 34
M  V30 36 1 12 35
M  V30 37 1 13 36
M  V30 38 1 13 37
M  V30 39 1 15 38
M  V30 40 1 16 39
M  V30 41 1 18 40
M  V30 42 1 19 41
M  V30 43 1 23 42
M  V30 44 1 23 43
M  V30 45 1 26 44
M  V30 46 1 26 45
M  V30 47 1 26 46
M  V30 END BOND
M  V30 END CTAB
M  END
