
     RDKit          3D

  0  0  0  0  0  0  0  0  0  0999 V3000
M  V30 BEGIN CTAB
M  V30 COUNTS 30 30 0 0 0
M  V30 BEGIN ATOM
M  V30 1 C 3.35015 1.93283 0.0794988 0
M  V30 2 C 2.52621 0.725708 -0.373775 0
M  V30 3 N 2.45362 -0.162908 0.742543 0
M  V30 4 S 1.55614 -1.56 0.401098 0
M  V30 5 O 1.57081 -2.53845 1.55214 0
M  V30 6 O 2.17085 -2.2928 -0.786772 0
M  V30 7 C -0.0971941 -1.19867 0.0441088 0
M  V30 8 C -0.650031 0.040069 0.273987 0
M  V30 9 C -2.00415 0.281935 0.0140699 0
M  V30 10 C -2.74833 -0.768451 -0.476292 0
M  V30 11 Cl -4.43489 -0.487581 -0.80603 0
M  V30 12 C -2.18823 -2.01309 -0.704974 0
M  V30 13 C -0.863842 -2.26415 -0.455606 0
M  V30 14 N -0.274602 -3.5468 -0.688379 0
M  V30 15 S -2.75171 1.83374 0.287651 0
M  V30 16 N -1.60237 2.95971 0.89774 0
M  V30 17 O -3.81305 1.65366 1.36579 0
M  V30 18 O -3.47001 2.3392 -0.921122 0
M  V30 19 H 4.13535 1.53499 0.752541 0
M  V30 20 H 3.79842 2.44702 -0.79358 0
M  V30 21 H 2.6552 2.60748 0.590574 0
M  V30 22 H 1.5749 0.976529 -0.810765 0
M  V30 23 H 3.17483 0.252548 -1.18086 0
M  V30 24 H 2.12655 0.264047 1.61674 0
M  V30 25 H -0.104227 0.8824 0.68171 0
M  V30 26 H -2.80645 -2.81226 -1.09033 0
M  V30 27 H 0.0670209 -3.84399 -1.61911 0
M  V30 28 H -0.1615 -4.25461 0.089369 0
M  V30 29 H -1.85401 3.3317 1.82878 0
M  V30 30 H -1.33544 3.6802 0.203527 0
M  V30 END ATOM
M  V30 BEGIN BOND
M  V30 1 1 1 2
M  V30 2 1 2 3
M  V30 3 1 3 4
M  V30 4 2 4 5
M  V30 5 2 4 6
M  V30 6 1 4 7
M  V30 7 2 7 8
M  V30 8 1 8 9
M  V30 9 2 9 10
M  V30 10 1 10 11
M  V30 11 1 10 12
M  V30 12 2 12 13
M  V30 13 1 13 14
M  V30 14 1 9 15
M  V30 15 1 15 16
M  V30 16 2 15 17
M  V30 17 2 15 18
M  V30 18 1 13 7
M  V30 19 1 1 19
M  V30 20 1 1 20
M  V30 21 1 1 21
M  V30 22 1 2 22
M  V30 23 1 2 23
M  V30 24 1 3 24
M  V30 25 1 8 25
M  V30 26 1 12 26
M  V30 27 1 14 27
M  V30 28 1 14 28
M  V30 29 1 16 29
M  V30 30 1 16 30
M  V30 END BOND
M  V30 END CTAB
M  END
