
     RDKit          3D

  0  0  0  0  0  0  0  0  0  0999 V3000
M  V30 BEGIN CTAB
M  V30 COUNTS 80 82 0 0 0
M  V30 BEGIN ATOM
M  V30 1 C 7.87898 3.54136 -0.698292 0
M  V30 2 C 6.61382 2.74569 -0.844421 0
M  V30 3 N 6.79813 1.54566 -1.60832 0
M  V30 4 C 5.64832 0.725911 -1.72479 0
M  V30 5 C 5.21512 -0.0241354 -0.554904 0
M  V30 6 C 5.87351 -0.0542721 0.592757 0
M  V30 7 C 5.23194 -0.893527 1.65556 0
M  V30 8 C 3.73918 -0.545336 1.67556 0
M  V30 9 N 3.65654 0.890568 1.88741 0
M  V30 10 C 3.13859 -1.00923 0.405858 0
M  V30 11 O 1.93167 -0.423755 0.0824946 0
M  V30 12 C 0.879891 -1.28093 -0.0616163 0 CFG=2
M  V30 13 C 0.164681 -1.15537 -1.39473 0 CFG=1
M  V30 14 N 1.07064 -1.28223 -2.51725 0
M  V30 15 C -0.710522 -2.4154 -1.44826 0
M  V30 16 C -1.74649 -2.31865 -0.361572 0 CFG=1
M  V30 17 N -1.77501 -3.66555 0.25886 0
M  V30 18 C -2.19107 -4.66575 -0.709541 0
M  V30 19 C -3.6285 -4.46972 -1.0793 0
M  V30 20 C -1.54431 -1.30832 0.672152 0 CFG=2
M  V30 21 O -2.1988 -0.118923 0.355728 0
M  V30 22 C -3.06616 0.328294 1.3066 0 CFG=1
M  V30 23 O -2.665 1.55748 1.85823 0
M  V30 24 C -2.74986 2.58527 0.931114 0
M  V30 25 C -4.17049 2.76896 0.392232 0 CFG=2
M  V30 26 C -4.23763 3.96149 -0.493388 0
M  V30 27 O -5.05989 2.97764 1.46636 0
M  V30 28 C -4.48568 1.46083 -0.33005 0 CFG=2
M  V30 29 N -5.71177 1.50374 -1.04968 0
M  V30 30 C -6.88737 1.70479 -0.246732 0
M  V30 31 C -4.46435 0.411071 0.75988 0 CFG=1
M  V30 32 O -4.85291 -0.8148 0.269706 0
M  V30 33 C -0.128564 -0.942596 0.994049 0 CFG=1
M  V30 34 O 0.273946 -1.6443 2.15287 0
M  V30 35 O 4.01143 -0.761882 -0.667865 0
M  V30 36 H 8.739 2.8739 -0.921572 0
M  V30 37 H 7.98329 3.90193 0.332048 0
M  V30 38 H 7.92552 4.41473 -1.37449 0
M  V30 39 H 6.19871 2.55815 0.153069 0
M  V30 40 H 5.89397 3.40985 -1.43261 0
M  V30 41 H 7.3749 1.65334 -2.44466 0
M  V30 42 H 5.71324 0.0130326 -2.59356 0
M  V30 43 H 4.80582 1.40977 -2.03715 0
M  V30 44 H 6.77436 0.445988 0.743752 0
M  V30 45 H 5.69672 -0.762949 2.63177 0
M  V30 46 H 5.31708 -1.94684 1.31749 0
M  V30 47 H 3.34709 -1.05009 2.58254 0
M  V30 48 H 4.57255 1.29646 2.20322 0
M  V30 49 H 2.98793 1.08458 2.68675 0
M  V30 50 H 3.04525 -2.13514 0.475235 0
M  V30 51 H 1.17739 -2.35702 0.117302 0
M  V30 52 H -0.459357 -0.271691 -1.40493 0
M  V30 53 H 1.4682 -2.26452 -2.56967 0
M  V30 54 H 0.495595 -1.17181 -3.37902 0
M  V30 55 H -0.0926593 -3.3137 -1.34784 0
M  V30 56 H -1.18736 -2.38639 -2.44765 0
M  V30 57 H -2.72679 -2.25618 -0.873741 0
M  V30 58 H -0.8112 -3.87811 0.61105 0
M  V30 59 H -2.10929 -5.64383 -0.168128 0
M  V30 60 H -1.51117 -4.74839 -1.57371 0
M  V30 61 H -4.14799 -3.98809 -0.226858 0
M  V30 62 H -3.77812 -3.91929 -2.02991 0
M  V30 63 H -4.09193 -5.48338 -1.23131 0
M  V30 64 H -1.99489 -1.65307 1.6493 0
M  V30 65 H -3.11068 -0.357717 2.18955 0
M  V30 66 H -2.52119 3.52938 1.46667 0
M  V30 67 H -2.09063 2.4709 0.0656849 0
M  V30 68 H -3.312 4.56968 -0.440659 0
M  V30 69 H -5.07289 4.67122 -0.221338 0
M  V30 70 H -4.4747 3.63738 -1.53566 0
M  V30 71 H -4.59204 3.02527 2.33551 0
M  V30 72 H -3.6595 1.26343 -1.02137 0
M  V30 73 H -5.76337 0.687755 -1.67038 0
M  V30 74 H -7.77336 1.46487 -0.905307 0
M  V30 75 H -7.02822 2.77157 0.0119687 0
M  V30 76 H -6.98222 1.01609 0.616529 0
M  V30 77 H -5.17336 0.690724 1.58526 0
M  V30 78 H -5.46319 -1.25106 0.88498 0
M  V30 79 H -0.0233836 0.129829 1.24611 0
M  V30 80 H 0.582863 -1.06465 2.86603 0
M  V30 END ATOM
M  V30 BEGIN BOND
M  V30 1 1 1 2
M  V30 2 1 2 3
M  V30 3 1 3 4
M  V30 4 1 4 5
M  V30 5 2 5 6
M  V30 6 1 6 7
M  V30 7 1 7 8
M  V30 8 1 8 9
M  V30 9 1 8 10
M  V30 10 1 10 11
M  V30 11 1 11 12
M  V30 12 1 12 13
M  V30 13 1 13 14
M  V30 14 1 13 15
M  V30 15 1 15 16
M  V30 16 1 16 17
M  V30 17 1 17 18
M  V30 18 1 18 19
M  V30 19 1 16 20
M  V30 20 1 20 21
M  V30 21 1 21 22
M  V30 22 1 22 23
M  V30 23 1 23 24
M  V30 24 1 24 25
M  V30 25 1 25 26
M  V30 26 1 25 27 CFG=1
M  V30 27 1 25 28
M  V30 28 1 28 29
M  V30 29 1 29 30
M  V30 30 1 28 31
M  V30 31 1 31 32
M  V30 32 1 20 33
M  V30 33 1 33 34
M  V30 34 1 10 35
M  V30 35 1 35 5
M  V30 36 1 33 12
M  V30 37 1 31 22
M  V30 38 1 1 36
M  V30 39 1 1 37
M  V30 40 1 1 38
M  V30 41 1 2 39
M  V30 42 1 2 40
M  V30 43 1 3 41
M  V30 44 1 4 42
M  V30 45 1 4 43
M  V30 46 1 6 44
M  V30 47 1 7 45
M  V30 48 1 7 46
M  V30 49 1 8 47
M  V30 50 1 9 48
M  V30 51 1 9 49
M  V30 52 1 10 50
M  V30 53 1 12 51 CFG=1
M  V30 54 1 13 52 CFG=1
M  V30 55 1 14 53
M  V30 56 1 14 54
M  V30 57 1 15 55
M  V30 58 1 15 56
M  V30 59 1 16 57 CFG=3
M  V30 60 1 17 58
M  V30 61 1 18 59
M  V30 62 1 18 60
M  V30 63 1 19 61
M  V30 64 1 19 62
M  V30 65 1 19 63
M  V30 66 1 20 64 CFG=1
M  V30 67 1 22 65 CFG=1
M  V30 68 1 24 66
M  V30 69 1 24 67
M  V30 70 1 26 68
M  V30 71 1 26 69
M  V30 72 1 26 70
M  V30 73 1 27 71
M  V30 74 1 28 72 CFG=3
M  V30 75 1 29 73
M  V30 76 1 30 74
M  V30 77 1 30 75
M  V30 78 1 30 76
M  V30 79 1 31 77 CFG=1
M  V30 80 1 32 78
M  V30 81 1 33 79 CFG=1
M  V30 82 1 34 80
M  V30 END BOND
M  V30 END CTAB
M  END
