
     RDKit          3D

  0  0  0  0  0  0  0  0  0  0999 V3000
M  V30 BEGIN CTAB
M  V30 COUNTS 46 48 0 0 0
M  V30 BEGIN ATOM
M  V30 1 N 2.95112 2.55898 1.436 0
M  V30 2 C 2.55679 1.61707 0.432599 0
M  V30 3 C 3.76887 0.900233 -0.0341832 0
M  V30 4 C 4.16251 0.842226 -1.34824 0
M  V30 5 C 5.29419 0.156961 -1.70526 0
M  V30 6 C 6.02024 -0.465506 -0.729774 0
M  V30 7 C 5.64764 -0.424366 0.602429 0
M  V30 8 C 4.51994 0.258881 0.95598 0
M  V30 9 C 1.60226 0.631163 1.0533 0
M  V30 10 C 1.15577 -0.357251 0.0618902 0
M  V30 11 O 2.01331 -1.03834 -0.568258 0
M  V30 12 N -0.232403 -0.520077 -0.16254 0
M  V30 13 C -1.31945 0.162206 0.470141 0
M  V30 14 C -2.48117 -0.855861 0.470521 0 CFG=2
M  V30 15 C -1.99029 -1.97824 -0.326355 0 CFG=1
M  V30 16 C -0.830824 -1.42691 -1.10694 0
M  V30 17 N -1.44691 -3.03827 0.551493 0
M  V30 18 C -3.73725 -0.219421 0.103595 0
M  V30 19 C -4.73414 -0.832401 -0.609465 0
M  V30 20 C -5.92026 -0.15171 -0.926603 0
M  V30 21 C -6.08694 1.14861 -0.517577 0
M  V30 22 C -5.08566 1.76996 0.200827 0
M  V30 23 C -3.91214 1.10427 0.517739 0
M  V30 24 H 2.84075 3.4776 1.16271 0
M  V30 25 H 2.85679 2.2647 2.33841 0
M  V30 26 H 2.07773 2.17426 -0.396545 0
M  V30 27 H 3.56216 1.34713 -2.09466 0
M  V30 28 H 5.61443 0.106558 -2.75222 0
M  V30 29 H 6.93099 -1.01872 -0.99027 0
M  V30 30 H 6.26352 -0.936008 1.31725 0
M  V30 31 H 4.21488 0.300977 1.99182 0
M  V30 32 H 2.08661 0.146081 1.93495 0
M  V30 33 H 0.738957 1.24275 1.43244 0
M  V30 34 H -1.59439 1.01698 -0.203757 0
M  V30 35 H -1.14035 0.535954 1.47669 0
M  V30 36 H -2.57207 -1.187 1.55577 0
M  V30 37 H -2.71768 -2.51632 -0.96081 0
M  V30 38 H -1.19007 -0.823329 -1.96264 0
M  V30 39 H -0.122505 -2.22284 -1.43269 0
M  V30 40 H -0.84702 -3.62911 -0.083797 0
M  V30 41 H -2.22869 -3.66728 0.842362 0
M  V30 42 H -4.59054 -1.84334 -0.917884 0
M  V30 43 H -6.67489 -0.708366 -1.50022 0
M  V30 44 H -6.99967 1.67001 -0.76142 0
M  V30 45 H -5.28225 2.80584 0.496187 0
M  V30 46 H -3.14187 1.62127 1.0853 0
M  V30 END ATOM
M  V30 BEGIN BOND
M  V30 1 1 1 2
M  V30 2 1 2 3
M  V30 3 2 3 4
M  V30 4 1 4 5
M  V30 5 2 5 6
M  V30 6 1 6 7
M  V30 7 2 7 8
M  V30 8 1 2 9
M  V30 9 1 9 10
M  V30 10 2 10 11
M  V30 11 1 10 12
M  V30 12 1 12 13
M  V30 13 1 13 14
M  V30 14 1 14 15
M  V30 15 1 15 16
M  V30 16 1 15 17
M  V30 17 1 14 18
M  V30 18 2 18 19
M  V30 19 1 19 20
M  V30 20 2 20 21
M  V30 21 1 21 22
M  V30 22 2 22 23
M  V30 23 1 8 3
M  V30 24 1 16 12
M  V30 25 1 23 18
M  V30 26 1 1 24
M  V30 27 1 1 25
M  V30 28 1 2 26
M  V30 29 1 4 27
M  V30 30 1 5 28
M  V30 31 1 6 29
M  V30 32 1 7 30
M  V30 33 1 8 31
M  V30 34 1 9 32
M  V30 35 1 9 33
M  V30 36 1 13 34
M  V30 37 1 13 35
M  V30 38 1 14 36 CFG=1
M  V30 39 1 15 37 CFG=3
M  V30 40 1 16 38
M  V30 41 1 16 39
M  V30 42 1 17 40
M  V30 43 1 17 41
M  V30 44 1 19 42
M  V30 45 1 20 43
M  V30 46 1 21 44
M  V30 47 1 22 45
M  V30 48 1 23 46
M  V30 END BOND
M  V30 END CTAB
M  END
