
     RDKit          3D

  0  0  0  0  0  0  0  0  0  0999 V3000
M  V30 BEGIN CTAB
M  V30 COUNTS 19 18 0 0 0
M  V30 BEGIN ATOM
M  V30 1 N 2.64347 -0.616244 0.288095 0
M  V30 2 C 1.4176 -0.280556 -0.326656 0
M  V30 3 C 0.58213 0.570681 0.575167 0
M  V30 4 C -0.741987 0.951596 -0.0498199 0 CFG=2
M  V30 5 C -1.59527 -0.233953 -0.402025 0
M  V30 6 N -1.9193 -1.05827 0.715626 0
M  V30 7 O -0.519909 1.65159 -1.25344 0
M  V30 8 H 2.68505 -1.51399 0.646749 0
M  V30 9 H 3.21946 0.117382 0.561655 0
M  V30 10 H 1.5978 0.245904 -1.30817 0
M  V30 11 H 0.925369 -1.23702 -0.595665 0
M  V30 12 H 0.434705 0.0509537 1.53188 0
M  V30 13 H 1.12995 1.52519 0.745638 0
M  V30 14 H -1.33673 1.61238 0.611205 0
M  V30 15 H -1.10312 -0.792311 -1.22726 0
M  V30 16 H -2.55154 0.176732 -0.805299 0
M  V30 17 H -1.25009 -1.08514 1.4872 0
M  V30 18 H -2.24199 -1.99204 0.454441 0
M  V30 19 H -1.37558 1.90712 -1.64931 0
M  V30 END ATOM
M  V30 BEGIN BOND
M  V30 1 1 1 2
M  V30 2 1 2 3
M  V30 3 1 3 4
M  V30 4 1 4 5
M  V30 5 1 5 6
M  V30 6 1 4 7
M  V30 7 1 1 8
M  V30 8 1 1 9
M  V30 9 1 2 10
M  V30 10 1 2 11
M  V30 11 1 3 12
M  V30 12 1 3 13
M  V30 13 1 4 14 CFG=1
M  V30 14 1 5 15
M  V30 15 1 5 16
M  V30 16 1 6 17
M  V30 17 1 6 18
M  V30 18 1 7 19
M  V30 END BOND
M  V30 END CTAB
M  END
