
     RDKit          3D

  0  0  0  0  0  0  0  0  0  0999 V3000
M  V30 BEGIN CTAB
M  V30 COUNTS 33 35 0 0 0
M  V30 BEGIN ATOM
M  V30 1 N 5.36161 0.688965 0.190591 0
M  V30 2 C 4.7075 -0.43395 -0.439302 0
M  V30 3 C 3.33713 -0.564653 0.185078 0
M  V30 4 O 2.62122 -1.66881 -0.395056 0
M  V30 5 C 1.26407 -1.31556 -0.419172 0
M  V30 6 C 1.15027 0.0491519 -0.343015 0
M  V30 7 C 2.51741 0.619912 -0.269378 0
M  V30 8 C -0.124174 0.619524 -0.350914 0
M  V30 9 C -1.26208 -0.149481 -0.432921 0
M  V30 10 C -1.16211 -1.52121 -0.510287 0
M  V30 11 C 0.100708 -2.07562 -0.501655 0
M  V30 12 F 0.232985 -3.43269 -0.576941 0
M  V30 13 C -2.56146 0.501638 -0.442875 0
M  V30 14 C -2.80475 1.5793 -1.27076 0
M  V30 15 N -4.00908 2.1829 -1.28707 0
M  V30 16 C -5.04142 1.79332 -0.518512 0
M  V30 17 C -4.81066 0.707154 0.322099 0
M  V30 18 C -3.58589 0.0616282 0.366145 0
M  V30 19 N -3.44692 -1.03424 1.26129 0
M  V30 20 H 6.38379 0.493747 0.248593 0
M  V30 21 H 5.17417 1.54718 -0.403899 0
M  V30 22 H 5.25838 -1.36907 -0.260646 0
M  V30 23 H 4.61278 -0.283894 -1.52993 0
M  V30 24 H 3.40849 -0.639223 1.26771 0
M  V30 25 H 2.58164 1.47314 0.430364 0
M  V30 26 H 2.79423 0.917336 -1.31251 0
M  V30 27 H -0.140246 1.70208 -0.287967 0
M  V30 28 H -2.05852 -2.15986 -0.580646 0
M  V30 29 H -2.03378 1.98125 -1.9405 0
M  V30 30 H -6.01168 2.29197 -0.542436 0
M  V30 31 H -5.6088 0.354774 0.960461 0
M  V30 32 H -2.93861 -0.982444 2.15814 0
M  V30 33 H -3.90621 -1.93426 0.950531 0
M  V30 END ATOM
M  V30 BEGIN BOND
M  V30 1 1 1 2
M  V30 2 1 2 3
M  V30 3 1 3 4
M  V30 4 1 4 5
M  V30 5 2 5 6
M  V30 6 1 6 7
M  V30 7 1 6 8
M  V30 8 2 8 9
M  V30 9 1 9 10
M  V30 10 2 10 11
M  V30 11 1 11 12
M  V30 12 1 9 13
M  V30 13 2 13 14
M  V30 14 1 14 15
M  V30 15 2 15 16
M  V30 16 1 16 17
M  V30 17 2 17 18
M  V30 18 1 18 19
M  V30 19 1 7 3
M  V30 20 1 18 13
M  V30 21 1 11 5
M  V30 22 1 1 20
M  V30 23 1 1 21
M  V30 24 1 2 22
M  V30 25 1 2 23
M  V30 26 1 3 24
M  V30 27 1 7 25
M  V30 28 1 7 26
M  V30 29 1 8 27
M  V30 30 1 10 28
M  V30 31 1 14 29
M  V30 32 1 16 30
M  V30 33 1 17 31
M  V30 34 1 19 32
M  V30 35 1 19 33
M  V30 END BOND
M  V30 END CTAB
M  END
