
     RDKit          3D

  0  0  0  0  0  0  0  0  0  0999 V3000
M  V30 BEGIN CTAB
M  V30 COUNTS 40 42 0 0 0
M  V30 BEGIN ATOM
M  V30 1 N 6.98765 -0.585821 0.082973 0
M  V30 2 C 5.56473 -0.426958 0.0685615 0
M  V30 3 C 4.81195 -0.824914 1.14846 0
M  V30 4 C 3.4214 -0.669657 1.13435 0
M  V30 5 C 2.78548 -0.121802 0.0524376 0
M  V30 6 C 3.54277 0.275482 -1.02722 0
M  V30 7 C 4.92965 0.12523 -1.02377 0
M  V30 8 N 1.38861 0.0276619 0.0676158 0
M  V30 9 C 0.719898 0.448919 -1.15424 0
M  V30 10 C -0.718987 -0.0145569 -1.15039 0
M  V30 11 N -1.37112 0.318366 0.105798 0
M  V30 12 C -0.585032 0.706258 1.23368 0
M  V30 13 C 0.637159 -0.229836 1.27267 0
M  V30 14 C -2.77866 0.24258 0.162371 0
M  V30 15 C -3.5142 -0.240244 -0.926246 0
M  V30 16 C -4.88143 -0.33199 -0.928636 0
M  V30 17 C -5.61148 0.0668481 0.193459 0
M  V30 18 N -7.02721 -0.0257927 0.197021 0
M  V30 19 C -4.88975 0.541027 1.26254 0
M  V30 20 C -3.50131 0.637996 1.27433 0
M  V30 21 H 7.35261 -1.47885 -0.351281 0
M  V30 22 H 7.6412 0.107107 0.483154 0
M  V30 23 H 5.28253 -1.26771 2.03375 0
M  V30 24 H 2.88164 -1.01503 2.03359 0
M  V30 25 H 3.08963 0.720585 -1.92084 0
M  V30 26 H 5.53895 0.431865 -1.86309 0
M  V30 27 H 0.838288 1.52981 -1.33072 0
M  V30 28 H 1.21983 -0.0807849 -1.99023 0
M  V30 29 H -0.768248 -1.09525 -1.29423 0
M  V30 30 H -1.23514 0.536018 -1.96268 0
M  V30 31 H -1.07472 0.714321 2.20051 0
M  V30 32 H -0.173257 1.74502 1.08044 0
M  V30 33 H 1.18582 0.0181662 2.20496 0
M  V30 34 H 0.262112 -1.27519 1.31388 0
M  V30 35 H -2.95363 -0.547914 -1.79118 0
M  V30 36 H -5.41922 -0.710123 -1.78757 0
M  V30 37 H -7.50115 -0.532049 -0.57089 0
M  V30 38 H -7.57733 0.403662 0.951641 0
M  V30 39 H -5.47085 0.850117 2.13471 0
M  V30 40 H -3.02918 1.02743 2.16533 0
M  V30 END ATOM
M  V30 BEGIN BOND
M  V30 1 1 1 2
M  V30 2 2 2 3
M  V30 3 1 3 4
M  V30 4 2 4 5
M  V30 5 1 5 6
M  V30 6 2 6 7
M  V30 7 1 5 8
M  V30 8 1 8 9
M  V30 9 1 9 10
M  V30 10 1 10 11
M  V30 11 1 11 12
M  V30 12 1 12 13
M  V30 13 1 11 14
M  V30 14 2 14 15
M  V30 15 1 15 16
M  V30 16 2 16 17
M  V30 17 1 17 18
M  V30 18 1 17 19
M  V30 19 2 19 20
M  V30 20 1 7 2
M  V30 21 1 13 8
M  V30 22 1 20 14
M  V30 23 1 1 21
M  V30 24 1 1 22
M  V30 25 1 3 23
M  V30 26 1 4 24
M  V30 27 1 6 25
M  V30 28 1 7 26
M  V30 29 1 9 27
M  V30 30 1 9 28
M  V30 31 1 10 29
M  V30 32 1 10 30
M  V30 33 1 12 31
M  V30 34 1 12 32
M  V30 35 1 13 33
M  V30 36 1 13 34
M  V30 37 1 15 35
M  V30 38 1 16 36
M  V30 39 1 18 37
M  V30 40 1 18 38
M  V30 41 1 19 39
M  V30 42 1 20 40
M  V30 END BOND
M  V30 END CTAB
M  END
