
     RDKit          3D

  0  0  0  0  0  0  0  0  0  0999 V3000
M  V30 BEGIN CTAB
M  V30 COUNTS 18 18 0 0 0
M  V30 BEGIN ATOM
M  V30 1 C 2.90727 0.0302523 -0.254399 0
M  V30 2 N 1.52168 -0.261799 -0.0304086 0
M  V30 3 N 1.06503 -1.416 0.422203 0
M  V30 4 C -0.260672 -1.62999 0.613083 0
M  V30 5 C -1.18969 -0.655207 0.344144 0
M  V30 6 N -2.5779 -0.814945 0.520966 0
M  V30 7 C -0.724808 0.555611 -0.12945 0
M  V30 8 N -1.61257 1.62491 -0.435782 0
M  V30 9 C 0.621856 0.70338 -0.298428 0
M  V30 10 O 1.02453 1.83489 -0.738261 0
M  V30 11 H 3.11408 -0.12617 -1.34483 0
M  V30 12 H 3.59465 -0.637822 0.294167 0
M  V30 13 H 3.09241 1.10388 -0.0681171 0
M  V30 14 H -0.612585 -2.57998 0.983553 0
M  V30 15 H -3.11952 -1.33947 -0.190817 0
M  V30 16 H -3.0169 -0.39935 1.36426 0
M  V30 17 H -2.21344 1.57228 -1.28138 0
M  V30 18 H -1.61343 2.43552 0.229493 0
M  V30 END ATOM
M  V30 BEGIN BOND
M  V30 1 1 1 2
M  V30 2 1 2 3
M  V30 3 2 3 4
M  V30 4 1 4 5
M  V30 5 1 5 6
M  V30 6 2 5 7
M  V30 7 1 7 8
M  V30 8 1 7 9
M  V30 9 2 9 10
M  V30 10 1 9 2
M  V30 11 1 1 11
M  V30 12 1 1 12
M  V30 13 1 1 13
M  V30 14 1 4 14
M  V30 15 1 6 15
M  V30 16 1 6 16
M  V30 17 1 8 17
M  V30 18 1 8 18
M  V30 END BOND
M  V30 END CTAB
M  END
