
     RDKit          3D

  0  0  0  0  0  0  0  0  0  0999 V3000
M  V30 BEGIN CTAB
M  V30 COUNTS 47 48 0 0 0
M  V30 BEGIN ATOM
M  V30 1 N 6.05365 1.82388 1.12995 0
M  V30 2 C 7.16376 0.910118 1.17253 0
M  V30 3 C 6.71347 -0.533527 1.20379 0
M  V30 4 C 5.90529 -0.816664 -0.0436261 0
M  V30 5 S 6.4435 -1.37665 -1.56229 0
M  V30 6 C 4.93755 -1.41953 -2.36549 0
M  V30 7 C 4.08208 -0.98395 -1.37814 0
M  V30 8 N 4.60755 -0.692256 -0.229307 0
M  V30 9 C 2.62013 -0.860279 -1.63898 0
M  V30 10 O 2.1277 -1.14652 -2.75571 0
M  V30 11 N 1.71411 -0.41241 -0.635808 0
M  V30 12 C 0.300882 -0.283107 -0.857211 0
M  V30 13 C -0.337948 0.214384 0.420055 0
M  V30 14 C -1.80867 0.374674 0.270524 0
M  V30 15 C -2.35779 1.62863 0.0742335 0
M  V30 16 C -3.72305 1.81377 -0.0688722 0
M  V30 17 C -4.58978 0.742326 -0.0198762 0
M  V30 18 C -4.05216 -0.511495 0.175379 0
M  V30 19 C -2.67488 -0.69381 0.319222 0
M  V30 20 C -6.07006 0.893699 -0.169283 0
M  V30 21 C -6.8005 0.420648 1.06663 0
M  V30 22 C -6.56488 0.142921 -1.40996 0
M  V30 23 N -0.015556 -0.675442 1.5201 0
M  V30 24 H 5.33569 1.56002 1.83231 0
M  V30 25 H 5.64553 1.81706 0.164613 0
M  V30 26 H 7.72548 1.10383 2.10661 0
M  V30 27 H 7.85155 1.08395 0.327815 0
M  V30 28 H 6.07147 -0.721761 2.06169 0
M  V30 29 H 7.60878 -1.16476 1.12959 0
M  V30 30 H 4.66939 -1.71055 -3.39796 0
M  V30 31 H 2.16042 -0.176467 0.302501 0
M  V30 32 H -0.135395 -1.27292 -1.14968 0
M  V30 33 H 0.14995 0.435491 -1.6731 0
M  V30 34 H 0.0961521 1.20587 0.648171 0
M  V30 35 H -1.68144 2.47004 0.0353667 0
M  V30 36 H -4.1469 2.80067 -0.222627 0
M  V30 37 H -4.74024 -1.35797 0.213787 0
M  V30 38 H -2.28915 -1.68091 0.469611 0
M  V30 39 H -6.33993 1.9591 -0.318728 0
M  V30 40 H -6.09857 0.0917858 1.86661 0
M  V30 41 H -7.53541 -0.376292 0.796576 0
M  V30 42 H -7.40253 1.24655 1.53857 0
M  V30 43 H -5.70956 0.01646 -2.10579 0
M  V30 44 H -7.01762 -0.833689 -1.13415 0
M  V30 45 H -7.35837 0.732444 -1.91388 0
M  V30 46 H 0.293621 -0.128192 2.37485 0
M  V30 47 H -0.827308 -1.2472 1.82937 0
M  V30 END ATOM
M  V30 BEGIN BOND
M  V30 1 1 1 2
M  V30 2 1 2 3
M  V30 3 1 3 4
M  V30 4 1 4 5
M  V30 5 1 5 6
M  V30 6 2 6 7
M  V30 7 1 7 8
M  V30 8 1 7 9
M  V30 9 2 9 10
M  V30 10 1 9 11
M  V30 11 1 11 12
M  V30 12 1 12 13
M  V30 13 1 13 14
M  V30 14 2 14 15
M  V30 15 1 15 16
M  V30 16 2 16 17
M  V30 17 1 17 18
M  V30 18 2 18 19
M  V30 19 1 17 20
M  V30 20 1 20 21
M  V30 21 1 20 22
M  V30 22 1 13 23
M  V30 23 2 8 4
M  V30 24 1 19 14
M  V30 25 1 1 24
M  V30 26 1 1 25
M  V30 27 1 2 26
M  V30 28 1 2 27
M  V30 29 1 3 28
M  V30 30 1 3 29
M  V30 31 1 6 30
M  V30 32 1 11 31
M  V30 33 1 12 32
M  V30 34 1 12 33
M  V30 35 1 13 34
M  V30 36 1 15 35
M  V30 37 1 16 36
M  V30 38 1 18 37
M  V30 39 1 19 38
M  V30 40 1 20 39
M  V30 41 1 21 40
M  V30 42 1 21 41
M  V30 43 1 21 42
M  V30 44 1 22 43
M  V30 45 1 22 44
M  V30 46 1 22 45
M  V30 47 1 23 46
M  V30 48 1 23 47
M  V30 END BOND
M  V30 END CTAB
M  END
