
     RDKit          3D

  0  0  0  0  0  0  0  0  0  0999 V3000
M  V30 BEGIN CTAB
M  V30 COUNTS 22 22 0 0 0
M  V30 BEGIN ATOM
M  V30 1 N 0.0368011 1.12767 1.10613 0
M  V30 2 C -0.868621 0.310476 0.37305 0
M  V30 3 N -0.39573 -0.739687 -0.207099 0
M  V30 4 O 0.934355 -1.07611 -0.132284 0
M  V30 5 C 1.92048 -0.357807 -0.890545 0
M  V30 6 C 3.26153 -0.891766 -0.651328 0
M  V30 7 C 4.23285 -0.142552 -0.150242 0
M  V30 8 C -2.26809 0.666177 0.295496 0
M  V30 9 N -2.86844 1.71363 0.845687 0
M  V30 10 O -4.14114 1.72168 0.569514 0
M  V30 11 N -4.39103 0.678908 -0.165631 0
M  V30 12 C -3.25772 -0.0315289 -0.378238 0
M  V30 13 N -3.09515 -1.21872 -1.11634 0
M  V30 14 H 0.368222 0.795402 2.03396 0
M  V30 15 H 0.320059 2.02748 0.662686 0
M  V30 16 H 1.89486 0.721569 -0.663732 0
M  V30 17 H 1.59065 -0.462994 -1.95752 0
M  V30 18 H 3.48196 -1.92173 -0.883894 0
M  V30 19 H 4.08632 0.909017 0.110247 0
M  V30 20 H 5.23037 -0.526939 0.0313606 0
M  V30 21 H -2.85467 -2.09727 -0.63767 0
M  V30 22 H -3.21787 -1.20491 -2.13832 0
M  V30 END ATOM
M  V30 BEGIN BOND
M  V30 1 1 1 2
M  V30 2 2 2 3
M  V30 3 1 3 4
M  V30 4 1 4 5
M  V30 5 1 5 6
M  V30 6 2 6 7 CFG=2
M  V30 7 1 2 8
M  V30 8 2 8 9
M  V30 9 1 9 10
M  V30 10 1 10 11
M  V30 11 2 11 12
M  V30 12 1 12 13
M  V30 13 1 12 8
M  V30 14 1 1 14
M  V30 15 1 1 15
M  V30 16 1 5 16
M  V30 17 1 5 17
M  V30 18 1 6 18
M  V30 19 1 7 19
M  V30 20 1 7 20
M  V30 21 1 13 21
M  V30 22 1 13 22
M  V30 END BOND
M  V30 END CTAB
M  END
