
     RDKit          3D

  0  0  0  0  0  0  0  0  0  0999 V3000
M  V30 BEGIN CTAB
M  V30 COUNTS 58 60 0 0 0
M  V30 BEGIN ATOM
M  V30 1 C -7.7368 -3.38887 1.33815 0
M  V30 2 O -7.33158 -2.01483 1.3301 0
M  V30 3 C -6.03077 -1.73704 0.938697 0
M  V30 4 O -5.2815 -2.68582 0.617635 0
M  V30 5 C -5.53508 -0.331274 0.900764 0 CFG=1
M  V30 6 N -4.16234 -0.258271 0.469877 0
M  V30 7 C -3.22456 0.290736 1.36149 0
M  V30 8 O -3.54577 0.711587 2.51307 0
M  V30 9 C -1.82542 0.389411 0.966228 0
M  V30 10 C -0.880579 0.894842 1.86855 0
M  V30 11 C 0.444009 1.00313 1.52298 0
M  V30 12 C 0.919061 0.626323 0.283994 0
M  V30 13 C -0.0118198 0.129602 -0.601871 0
M  V30 14 C -1.3438 0.0162299 -0.266206 0
M  V30 15 N 2.29909 0.7554 -0.0363345 0
M  V30 16 C 3.20529 1.28802 0.940742 0
M  V30 17 C 4.61342 1.32886 0.402774 0
M  V30 18 C 5.09863 2.42718 -0.270987 0
M  V30 19 N 6.35931 2.42792 -0.738558 0
M  V30 20 C 7.15666 1.35812 -0.553766 0
M  V30 21 C 6.70036 0.229887 0.122445 0
M  V30 22 N 5.43552 0.273597 0.572469 0
M  V30 23 C 7.51846 -0.864967 0.310412 0
M  V30 24 N 7.0684 -2.01045 0.99532 0
M  V30 25 N 8.76873 -0.837784 -0.166492 0
M  V30 26 C 9.2095 0.265927 -0.826923 0
M  V30 27 N 8.42351 1.33199 -1.01362 0
M  V30 28 N 10.5461 0.220873 -1.3054 0
M  V30 29 C 2.71038 0.328067 -1.36497 0
M  V30 30 C -6.37232 0.546737 0.00575004 0
M  V30 31 C -6.35433 -0.0284809 -1.38927 0
M  V30 32 C -7.17493 0.834414 -2.273 0
M  V30 33 O -6.92824 2.05878 -2.34161 0
M  V30 34 O -8.21235 0.297369 -3.02267 0
M  V30 35 H -7.72755 -3.77492 0.290014 0
M  V30 36 H -8.74904 -3.50873 1.75679 0
M  V30 37 H -6.9977 -3.94711 1.94996 0
M  V30 38 H -5.65152 0.0417343 1.95481 0
M  V30 39 H -3.87089 -0.597135 -0.450439 0
M  V30 40 H -1.24291 1.19415 2.84623 0
M  V30 41 H 1.1527 1.39783 2.24114 0
M  V30 42 H 0.361488 -0.171355 -1.58731 0
M  V30 43 H -1.99178 -0.378434 -1.01534 0
M  V30 44 H 2.95024 2.28406 1.29428 0
M  V30 45 H 3.22423 0.605499 1.80958 0
M  V30 46 H 4.45979 3.29 -0.421757 0
M  V30 47 H 7.05357 -2.01535 2.02905 0
M  V30 48 H 6.75116 -2.84908 0.480213 0
M  V30 49 H 11.323 -0.100449 -0.66365 0
M  V30 50 H 10.7654 0.50247 -2.27825 0
M  V30 51 H 2.15989 0.933477 -2.11389 0
M  V30 52 H 3.79154 0.332379 -1.51452 0
M  V30 53 H 2.31896 -0.719852 -1.4852 0
M  V30 54 H -5.89238 1.55176 0.0134899 0
M  V30 55 H -7.40341 0.628029 0.40183 0
M  V30 56 H -5.29492 -0.0803269 -1.73948 0
M  V30 57 H -6.82402 -1.04195 -1.35454 0
M  V30 58 H -9.19006 0.546084 -2.89931 0
M  V30 END ATOM
M  V30 BEGIN BOND
M  V30 1 1 1 2
M  V30 2 1 2 3
M  V30 3 2 3 4
M  V30 4 1 3 5
M  V30 5 1 5 6
M  V30 6 1 6 7
M  V30 7 2 7 8
M  V30 8 1 7 9
M  V30 9 2 9 10
M  V30 10 1 10 11
M  V30 11 2 11 12
M  V30 12 1 12 13
M  V30 13 2 13 14
M  V30 14 1 12 15
M  V30 15 1 15 16
M  V30 16 1 16 17
M  V30 17 2 17 18
M  V30 18 1 18 19
M  V30 19 2 19 20
M  V30 20 1 20 21
M  V30 21 2 21 22
M  V30 22 1 21 23
M  V30 23 1 23 24
M  V30 24 2 23 25
M  V30 25 1 25 26
M  V30 26 2 26 27
M  V30 27 1 26 28
M  V30 28 1 15 29
M  V30 29 1 5 30
M  V30 30 1 30 31
M  V30 31 1 31 32
M  V30 32 2 32 33
M  V30 33 1 32 34
M  V30 34 1 14 9
M  V30 35 1 22 17
M  V30 36 1 27 20
M  V30 37 1 1 35
M  V30 38 1 1 36
M  V30 39 1 1 37
M  V30 40 1 5 38 CFG=1
M  V30 41 1 6 39
M  V30 42 1 10 40
M  V30 43 1 11 41
M  V30 44 1 13 42
M  V30 45 1 14 43
M  V30 46 1 16 44
M  V30 47 1 16 45
M  V30 48 1 18 46
M  V30 49 1 24 47
M  V30 50 1 24 48
M  V30 51 1 28 49
M  V30 52 1 28 50
M  V30 53 1 29 51
M  V30 54 1 29 52
M  V30 55 1 29 53
M  V30 56 1 30 54
M  V30 57 1 30 55
M  V30 58 1 31 56
M  V30 59 1 31 57
M  V30 60 1 34 58
M  V30 END BOND
M  V30 END CTAB
M  END
