
     RDKit          3D

  0  0  0  0  0  0  0  0  0  0999 V3000
M  V30 BEGIN CTAB
M  V30 COUNTS 16 16 0 0 0
M  V30 BEGIN ATOM
M  V30 1 N -2.86677 0.846872 0.711808 0
M  V30 2 N -1.49644 0.698326 0.794601 0
M  V30 3 C -0.755406 0.08976 -0.0309831 0
M  V30 4 C 0.672329 0.00681392 0.173597 0
M  V30 5 C 1.43159 0.531184 1.21896 0
M  V30 6 O 2.69269 0.234442 1.03148 0
M  V30 7 C 2.83979 -0.454872 -0.0690108 0
M  V30 8 C 1.61216 -0.626336 -0.644895 0
M  V30 9 Br 4.55302 -1.07321 -0.678262 0
M  V30 10 N -1.31488 -0.51727 -1.16489 0
M  V30 11 H -3.38368 0.426282 -0.0709358 0
M  V30 12 H -3.36312 1.37963 1.43701 0
M  V30 13 H 0.980152 1.08886 2.02983 0
M  V30 14 H 1.42802 -1.15217 -1.55521 0
M  V30 15 H -0.824172 -0.429152 -2.0743 0
M  V30 16 H -2.20529 -1.04916 -1.1088 0
M  V30 END ATOM
M  V30 BEGIN BOND
M  V30 1 1 1 2
M  V30 2 2 2 3 CFG=2
M  V30 3 1 3 4
M  V30 4 2 4 5
M  V30 5 1 5 6
M  V30 6 1 6 7
M  V30 7 2 7 8
M  V30 8 1 7 9
M  V30 9 1 3 10
M  V30 10 1 8 4
M  V30 11 1 1 11
M  V30 12 1 1 12
M  V30 13 1 5 13
M  V30 14 1 8 14
M  V30 15 1 10 15
M  V30 16 1 10 16
M  V30 END BOND
M  V30 END CTAB
M  END
