
     RDKit          3D

  0  0  0  0  0  0  0  0  0  0999 V3000
M  V30 BEGIN CTAB
M  V30 COUNTS 19 18 0 0 0
M  V30 BEGIN ATOM
M  V30 1 C 3.88469 0.314575 0.00166686 0
M  V30 2 C 2.54656 -0.375491 0.0910296 0
M  V30 3 S 1.25253 0.881308 -0.0674308 0
M  V30 4 C -0.366224 0.164802 0.0255351 0
M  V30 5 N -1.39248 0.913372 -0.0685687 0
M  V30 6 C -2.72999 0.497809 -0.0142079 0
M  V30 7 N -3.06889 -0.609667 0.567099 0
M  V30 8 N -3.7383 1.30311 -0.606693 0
M  V30 9 N -0.495617 -1.22454 0.202444 0
M  V30 10 H 4.25163 0.41333 -1.03129 0
M  V30 11 H 4.61204 -0.283206 0.564421 0
M  V30 12 H 3.84374 1.31343 0.514111 0
M  V30 13 H 2.41652 -0.889096 1.0632 0
M  V30 14 H 2.42396 -1.10765 -0.729862 0
M  V30 15 H -4.05764 -0.936528 0.618417 0
M  V30 16 H -4.67958 1.32183 -0.157738 0
M  V30 17 H -3.60594 1.87595 -1.45648 0
M  V30 18 H -0.0625695 -1.73443 1.01587 0
M  V30 19 H -1.03444 -1.8389 -0.469477 0
M  V30 END ATOM
M  V30 BEGIN BOND
M  V30 1 1 1 2
M  V30 2 1 2 3
M  V30 3 1 3 4
M  V30 4 2 4 5 CFG=2
M  V30 5 1 5 6
M  V30 6 2 6 7 CFG=2
M  V30 7 1 6 8
M  V30 8 1 4 9
M  V30 9 1 1 10
M  V30 10 1 1 11
M  V30 11 1 1 12
M  V30 12 1 2 13
M  V30 13 1 2 14
M  V30 14 1 7 15
M  V30 15 1 8 16
M  V30 16 1 8 17
M  V30 17 1 9 18
M  V30 18 1 9 19
M  V30 END BOND
M  V30 END CTAB
M  END
