
     RDKit          3D

  0  0  0  0  0  0  0  0  0  0999 V3000
M  V30 BEGIN CTAB
M  V30 COUNTS 57 59 0 0 0
M  V30 BEGIN ATOM
M  V30 1 C 2.66078 -2.0556 -0.676303 0
M  V30 2 N 2.29297 -0.761604 -1.25979 0
M  V30 3 C 3.27808 0.0764829 -1.86946 0
M  V30 4 C 4.32406 0.499214 -0.895637 0
M  V30 5 N 5.46926 -0.199049 -0.8065 0
M  V30 6 C 6.45936 0.111128 0.0393283 0
M  V30 7 C 7.62184 -0.648147 0.0862768 0
M  V30 8 N 7.79939 -1.77555 -0.759343 0
M  V30 9 N 8.60533 -0.319767 0.94214 0
M  V30 10 C 8.42502 0.756902 1.74123 0
M  V30 11 N 9.46108 1.10663 2.64668 0
M  V30 12 N 7.29547 1.50099 1.70113 0
M  V30 13 C 6.28468 1.21135 0.861643 0
M  V30 14 N 5.14747 1.9295 0.793924 0
M  V30 15 C 4.1694 1.57628 -0.080866 0
M  V30 16 C 0.93759 -0.376992 -1.19795 0
M  V30 17 C 0.0206708 -1.26671 -0.614604 0
M  V30 18 C -1.30733 -0.933551 -0.530652 0
M  V30 19 C -1.77401 0.262769 -1.00744 0
M  V30 20 C -0.89133 1.16664 -1.59097 0
M  V30 21 C 0.434827 0.808704 -1.66287 0
M  V30 22 C -3.17223 0.656107 -0.942703 0
M  V30 23 O -3.54441 1.7872 -1.37799 0
M  V30 24 N -4.16773 -0.173481 -0.407743 0
M  V30 25 C -5.5596 0.214779 -0.342486 0
M  V30 26 C -6.35264 -0.735022 -1.1781 0
M  V30 27 O -6.19996 -2.04829 -0.685895 0
M  V30 28 C -6.03576 0.314232 1.07866 0
M  V30 29 C -7.45843 0.709885 1.22227 0
M  V30 30 C -7.77774 0.762873 2.71116 0
M  V30 31 O -7.57032 -0.494817 3.29742 0
M  V30 32 H 2.41003 -2.0845 0.414872 0
M  V30 33 H 2.04528 -2.85071 -1.15083 0
M  V30 34 H 3.72345 -2.25776 -0.866392 0
M  V30 35 H 2.88033 0.951486 -2.37879 0
M  V30 36 H 3.78049 -0.53863 -2.66193 0
M  V30 37 H 8.71888 -2.0434 -1.18119 0
M  V30 38 H 6.9901 -2.3944 -0.995251 0
M  V30 39 H 9.66487 0.495031 3.48019 0
M  V30 40 H 10.0094 1.96788 2.47497 0
M  V30 41 H 3.28942 2.17479 -0.0966539 0
M  V30 42 H 0.345248 -2.22095 -0.225065 0
M  V30 43 H -1.99968 -1.62037 -0.0826812 0
M  V30 44 H -1.21105 2.11497 -1.97825 0
M  V30 45 H 1.0989 1.54345 -2.12408 0
M  V30 46 H -3.92425 -1.10804 -0.0371528 0
M  V30 47 H -5.63763 1.22986 -0.78385 0
M  V30 48 H -7.39274 -0.458815 -1.34004 0
M  V30 49 H -5.86959 -0.762462 -2.18928 0
M  V30 50 H -6.38758 -2.72821 -1.35007 0
M  V30 51 H -5.36614 0.982279 1.65532 0
M  V30 52 H -5.91974 -0.704757 1.52557 0
M  V30 53 H -7.70268 1.70772 0.822336 0
M  V30 54 H -8.14795 -0.0121484 0.763047 0
M  V30 55 H -7.18954 1.51527 3.24163 0
M  V30 56 H -8.8516 1.02695 2.8744 0
M  V30 57 H -8.232 -1.13264 2.95461 0
M  V30 END ATOM
M  V30 BEGIN BOND
M  V30 1 1 1 2
M  V30 2 1 2 3
M  V30 3 1 3 4
M  V30 4 2 4 5
M  V30 5 1 5 6
M  V30 6 2 6 7
M  V30 7 1 7 8
M  V30 8 1 7 9
M  V30 9 2 9 10
M  V30 10 1 10 11
M  V30 11 1 10 12
M  V30 12 2 12 13
M  V30 13 1 13 14
M  V30 14 2 14 15
M  V30 15 1 2 16
M  V30 16 2 16 17
M  V30 17 1 17 18
M  V30 18 2 18 19
M  V30 19 1 19 20
M  V30 20 2 20 21
M  V30 21 1 19 22
M  V30 22 2 22 23
M  V30 23 1 22 24
M  V30 24 1 24 25
M  V30 25 1 25 26
M  V30 26 1 26 27
M  V30 27 1 25 28
M  V30 28 1 28 29
M  V30 29 1 29 30
M  V30 30 1 30 31
M  V30 31 1 15 4
M  V30 32 1 21 16
M  V30 33 1 13 6
M  V30 34 1 1 32
M  V30 35 1 1 33
M  V30 36 1 1 34
M  V30 37 1 3 35
M  V30 38 1 3 36
M  V30 39 1 8 37
M  V30 40 1 8 38
M  V30 41 1 11 39
M  V30 42 1 11 40
M  V30 43 1 15 41
M  V30 44 1 17 42
M  V30 45 1 18 43
M  V30 46 1 20 44
M  V30 47 1 21 45
M  V30 48 1 24 46
M  V30 49 1 25 47
M  V30 50 1 26 48
M  V30 51 1 26 49
M  V30 52 1 27 50
M  V30 53 1 28 51
M  V30 54 1 28 52
M  V30 55 1 29 53
M  V30 56 1 29 54
M  V30 57 1 30 55
M  V30 58 1 30 56
M  V30 59 1 31 57
M  V30 END BOND
M  V30 END CTAB
M  END
