
     RDKit          3D

  0  0  0  0  0  0  0  0  0  0999 V3000
M  V30 BEGIN CTAB
M  V30 COUNTS 31 33 0 0 0
M  V30 BEGIN ATOM
M  V30 1 N -1.40086 3.07051 0.0173112 0
M  V30 2 C -1.52529 1.65756 -0.0217152 0
M  V30 3 C -2.77871 1.05737 -0.066956 0
M  V30 4 C -2.87756 -0.316363 -0.103785 0
M  V30 5 C -4.21103 -0.934664 -0.149801 0
M  V30 6 Cl -4.54968 -1.56605 1.50424 0
M  V30 7 C -1.7313 -1.05712 -0.0947705 0
M  V30 8 N -1.81878 -2.45917 -0.12963 0
M  V30 9 C -0.45918 -0.495995 -0.0501335 0
M  V30 10 C -0.37596 0.885919 -0.0134468 0
M  V30 11 C 0.957786 1.47086 0.0333451 0
M  V30 12 O 1.02622 2.73554 0.0668013 0
M  V30 13 C 2.18981 0.690068 0.0433937 0
M  V30 14 C 2.07248 -0.702385 0.00604794 0
M  V30 15 C 3.24149 -1.42697 0.0160087 0
M  V30 16 C 4.48914 -0.843784 0.0604209 0
M  V30 17 C 4.60838 0.53121 0.097381 0
M  V30 18 C 3.43966 1.27434 0.0878443 0
M  V30 19 C 0.75021 -1.31197 -0.0411867 0
M  V30 20 O 0.638194 -2.56029 -0.0749202 0
M  V30 21 H -1.385 3.53877 0.943105 0
M  V30 22 H -1.32467 3.65241 -0.819739 0
M  V30 23 H -3.62275 1.7289 -0.071639 0
M  V30 24 H -4.2906 -1.81694 -0.811914 0
M  V30 25 H -5.02378 -0.221657 -0.373061 0
M  V30 26 H -1.89179 -3.0867 0.694647 0
M  V30 27 H -1.81094 -2.93776 -1.05265 0
M  V30 28 H 3.16424 -2.49578 -0.0126294 0
M  V30 29 H 5.41099 -1.40976 0.0680139 0
M  V30 30 H 5.58296 1.00261 0.133129 0
M  V30 31 H 3.50634 2.34729 0.116298 0
M  V30 END ATOM
M  V30 BEGIN BOND
M  V30 1 1 1 2
M  V30 2 2 2 3
M  V30 3 1 3 4
M  V30 4 1 4 5
M  V30 5 1 5 6
M  V30 6 2 4 7
M  V30 7 1 7 8
M  V30 8 1 7 9
M  V30 9 2 9 10
M  V30 10 1 10 11
M  V30 11 2 11 12
M  V30 12 1 11 13
M  V30 13 2 13 14
M  V30 14 1 14 15
M  V30 15 2 15 16
M  V30 16 1 16 17
M  V30 17 2 17 18
M  V30 18 1 14 19
M  V30 19 2 19 20
M  V30 20 1 10 2
M  V30 21 1 18 13
M  V30 22 1 19 9
M  V30 23 1 1 21
M  V30 24 1 1 22
M  V30 25 1 3 23
M  V30 26 1 5 24
M  V30 27 1 5 25
M  V30 28 1 8 26
M  V30 29 1 8 27
M  V30 30 1 15 28
M  V30 31 1 16 29
M  V30 32 1 17 30
M  V30 33 1 18 31
M  V30 END BOND
M  V30 END CTAB
M  END
