
     RDKit          3D

  0  0  0  0  0  0  0  0  0  0999 V3000
M  V30 BEGIN CTAB
M  V30 COUNTS 43 44 0 0 0
M  V30 BEGIN ATOM
M  V30 1 C -3.2293 3.5151 0.842165 0
M  V30 2 C -3.24337 2.98928 -0.553658 0
M  V30 3 O -3.152 1.57751 -0.584236 0
M  V30 4 C -2.03155 0.884868 -0.0534868 0
M  V30 5 O -1.18775 1.64725 0.414907 0
M  V30 6 C -2.07937 -0.552013 -0.155885 0
M  V30 7 C -3.11534 -1.30051 -0.714622 0
M  V30 8 C -4.35122 -0.704784 -1.29367 0
M  V30 9 N -2.83061 -2.58965 -0.650547 0
M  V30 10 C -1.61711 -2.78554 -0.0605892 0
M  V30 11 C -1.14242 -1.51191 0.250746 0
M  V30 12 C 0.12392 -1.23922 0.902736 0
M  V30 13 O 0.479209 -0.03638 1.17902 0
M  V30 14 C 1.14868 -2.21953 1.33022 0
M  V30 15 S 2.38101 -2.28424 -0.00375159 0
M  V30 16 C 3.28256 -0.770414 -0.160837 0
M  V30 17 N 4.43004 -0.654681 0.568169 0
M  V30 18 C 5.15208 0.475908 0.488508 0
M  V30 19 N 6.34444 0.571948 1.25723 0
M  V30 20 C 4.72734 1.49834 -0.323331 0
M  V30 21 C 3.5789 1.3835 -1.05254 0
M  V30 22 N 2.87921 0.243056 -0.952859 0
M  V30 23 N 3.19892 2.47824 -1.8697 0
M  V30 24 C -0.990753 -4.09626 0.184878 0
M  V30 25 H -4.05117 4.25633 0.944243 0
M  V30 26 H -3.39693 2.66609 1.54151 0
M  V30 27 H -2.29599 4.06796 1.06573 0
M  V30 28 H -2.35174 3.43928 -1.08723 0
M  V30 29 H -4.11045 3.31733 -1.14788 0
M  V30 30 H -4.8672 -0.148022 -0.494965 0
M  V30 31 H -5.05357 -1.52503 -1.60248 0
M  V30 32 H -4.11666 -0.0493424 -2.13461 0
M  V30 33 H -3.42672 -3.38601 -0.992898 0
M  V30 34 H 1.74902 -1.79083 2.21561 0
M  V30 35 H 0.811045 -3.16487 1.6971 0
M  V30 36 H 6.36296 0.542029 2.30024 0
M  V30 37 H 7.24634 0.678462 0.715343 0
M  V30 38 H 5.32868 2.3935 -0.366953 0
M  V30 39 H 3.54632 2.4976 -2.85622 0
M  V30 40 H 2.58236 3.2319 -1.46229 0
M  V30 41 H 0.000129988 -4.24514 -0.269688 0
M  V30 42 H -1.62775 -4.86616 -0.368286 0
M  V30 43 H -1.08422 -4.43494 1.23913 0
M  V30 END ATOM
M  V30 BEGIN BOND
M  V30 1 1 1 2
M  V30 2 1 2 3
M  V30 3 1 3 4
M  V30 4 2 4 5
M  V30 5 1 4 6
M  V30 6 2 6 7
M  V30 7 1 7 8
M  V30 8 1 7 9
M  V30 9 1 9 10
M  V30 10 2 10 11
M  V30 11 1 11 12
M  V30 12 2 12 13
M  V30 13 1 12 14
M  V30 14 1 14 15
M  V30 15 1 15 16
M  V30 16 2 16 17
M  V30 17 1 17 18
M  V30 18 1 18 19
M  V30 19 2 18 20
M  V30 20 1 20 21
M  V30 21 2 21 22
M  V30 22 1 21 23
M  V30 23 1 10 24
M  V30 24 1 11 6
M  V30 25 1 22 16
M  V30 26 1 1 25
M  V30 27 1 1 26
M  V30 28 1 1 27
M  V30 29 1 2 28
M  V30 30 1 2 29
M  V30 31 1 8 30
M  V30 32 1 8 31
M  V30 33 1 8 32
M  V30 34 1 9 33
M  V30 35 1 14 34
M  V30 36 1 14 35
M  V30 37 1 19 36
M  V30 38 1 19 37
M  V30 39 1 20 38
M  V30 40 1 23 39
M  V30 41 1 23 40
M  V30 42 1 24 41
M  V30 43 1 24 42
M  V30 44 1 24 43
M  V30 END BOND
M  V30 END CTAB
M  END
