
     RDKit          3D

  0  0  0  0  0  0  0  0  0  0999 V3000
M  V30 BEGIN CTAB
M  V30 COUNTS 38 38 0 0 0
M  V30 BEGIN ATOM
M  V30 1 N -2.24155 -1.92298 -1.14194 0
M  V30 2 C -2.12269 -1.30799 0.159761 0
M  V30 3 C -1.6913 0.134013 0.135629 0
M  V30 4 C -0.317311 0.438999 -0.283193 0
M  V30 5 C -0.106903 1.9349 -0.261963 0
M  V30 6 N -0.250334 2.57469 1.00199 0
M  V30 7 C 0.0946753 -0.0800294 -1.62507 0
M  V30 8 C 1.04474 -1.2376 -1.60903 0
M  V30 9 C 2.39276 -0.863265 -1.02875 0
M  V30 10 C 2.12799 0.0207923 0.147393 0
M  V30 11 C 0.727903 -0.0962446 0.708529 0
M  V30 12 C 3.12963 -0.366138 1.23278 0
M  V30 13 O -2.67773 0.786337 -0.649567 0
M  V30 14 C -1.96945 0.650189 1.54277 0
M  V30 15 H -3.21984 -2.01463 -1.466 0
M  V30 16 H -1.81 -2.88347 -1.0861 0
M  V30 17 H -3.1554 -1.31053 0.594165 0
M  V30 18 H -1.52123 -1.93344 0.844628 0
M  V30 19 H 0.870071 2.20667 -0.724711 0
M  V30 20 H -0.929288 2.34151 -0.952007 0
M  V30 21 H -0.833371 3.42012 1.01368 0
M  V30 22 H 0.695334 2.71641 1.44355 0
M  V30 23 H 0.692911 0.745294 -2.12965 0
M  V30 24 H -0.703904 -0.285396 -2.33497 0
M  V30 25 H 1.23011 -1.51218 -2.67051 0
M  V30 26 H 0.729725 -2.13425 -1.09076 0
M  V30 27 H 3.04903 -0.341149 -1.74027 0
M  V30 28 H 2.93618 -1.80459 -0.740817 0
M  V30 29 H 2.36417 1.05599 -0.132 0
M  V30 30 H 0.771639 0.562115 1.63041 0
M  V30 31 H 0.496433 -1.11801 1.01377 0
M  V30 32 H 3.20082 -1.46562 1.29125 0
M  V30 33 H 2.77038 0.019236 2.21796 0
M  V30 34 H 4.11421 0.0947927 1.05167 0
M  V30 35 H -3.5197 0.840653 -0.123587 0
M  V30 36 H -2.77488 -0.0333037 1.98829 0
M  V30 37 H -2.47444 1.63499 1.55717 0
M  V30 38 H -1.11939 0.5331 2.2155 0
M  V30 END ATOM
M  V30 BEGIN BOND
M  V30 1 1 1 2
M  V30 2 1 2 3
M  V30 3 1 3 4
M  V30 4 1 4 5
M  V30 5 1 5 6
M  V30 6 1 4 7
M  V30 7 1 7 8
M  V30 8 1 8 9
M  V30 9 1 9 10
M  V30 10 1 10 11
M  V30 11 1 10 12
M  V30 12 1 3 13
M  V30 13 1 3 14
M  V30 14 1 11 4
M  V30 15 1 1 15
M  V30 16 1 1 16
M  V30 17 1 2 17
M  V30 18 1 2 18
M  V30 19 1 5 19
M  V30 20 1 5 20
M  V30 21 1 6 21
M  V30 22 1 6 22
M  V30 23 1 7 23
M  V30 24 1 7 24
M  V30 25 1 8 25
M  V30 26 1 8 26
M  V30 27 1 9 27
M  V30 28 1 9 28
M  V30 29 1 10 29
M  V30 30 1 11 30
M  V30 31 1 11 31
M  V30 32 1 12 32
M  V30 33 1 12 33
M  V30 34 1 12 34
M  V30 35 1 13 35
M  V30 36 1 14 36
M  V30 37 1 14 37
M  V30 38 1 14 38
M  V30 END BOND
M  V30 END CTAB
M  END
