
     RDKit          3D

  0  0  0  0  0  0  0  0  0  0999 V3000
M  V30 BEGIN CTAB
M  V30 COUNTS 16 16 0 0 0
M  V30 BEGIN ATOM
M  V30 1 N 2.39486 -1.00709 -0.0111628 0
M  V30 2 C 1.16464 -0.285952 0.00847317 0
M  V30 3 C 1.20316 1.0972 0.112898 0
M  V30 4 C 0.0361644 1.82438 0.134744 0
M  V30 5 F 0.0641941 3.19129 0.237664 0
M  V30 6 C -1.15355 1.13721 0.0502716 0
M  V30 7 C -1.1853 -0.252732 -0.0544748 0
M  V30 8 N -2.43174 -0.905511 -0.137971 0
M  V30 9 C -0.0010099 -0.979038 -0.0757718 0
M  V30 10 F -0.10077 -2.32578 -0.179209 0
M  V30 11 H 3.24696 -0.589138 0.442487 0
M  V30 12 H 2.5058 -1.94195 -0.455937 0
M  V30 13 H 2.1429 1.60087 0.176692 0
M  V30 14 H -2.09346 1.70637 0.0666291 0
M  V30 15 H -3.21268 -0.547894 0.44422 0
M  V30 16 H -2.58017 -1.72224 -0.759553 0
M  V30 END ATOM
M  V30 BEGIN BOND
M  V30 1 1 1 2
M  V30 2 2 2 3
M  V30 3 1 3 4
M  V30 4 1 4 5
M  V30 5 2 4 6
M  V30 6 1 6 7
M  V30 7 1 7 8
M  V30 8 2 7 9
M  V30 9 1 9 10
M  V30 10 1 9 2
M  V30 11 1 1 11
M  V30 12 1 1 12
M  V30 13 1 3 13
M  V30 14 1 6 14
M  V30 15 1 8 15
M  V30 16 1 8 16
M  V30 END BOND
M  V30 END CTAB
M  END
