
     RDKit          3D

  0  0  0  0  0  0  0  0  0  0999 V3000
M  V30 BEGIN CTAB
M  V30 COUNTS 31 33 0 0 0
M  V30 BEGIN ATOM
M  V30 1 N -5.89048 0.379468 0.462179 0
M  V30 2 C -4.47318 0.300684 0.330627 0
M  V30 3 C -3.86711 0.518326 -0.892954 0
M  V30 4 C -2.47679 0.448184 -1.05522 0
M  V30 5 C -1.70297 0.155535 0.0323662 0
M  V30 6 C -2.31879 -0.0617818 1.25786 0
M  V30 7 C -3.67886 0.00614383 1.4198 0
M  V30 8 F -4.30011 -0.202224 2.60569 0
M  V30 9 C -0.270775 0.0664592 -0.0566926 0
M  V30 10 C 0.364888 0.275639 -1.25136 0
M  V30 11 C 1.7451 0.191951 -1.34717 0
M  V30 12 O 2.345 0.382294 -2.44179 0
M  V30 13 C 2.44388 -0.108154 -0.198648 0
M  V30 14 C 3.82263 -0.191157 -0.297137 0
M  V30 15 N 4.4526 0.0318572 -1.554 0
M  V30 16 C 4.52275 -0.490834 0.848934 0
M  V30 17 F 5.86867 -0.575883 0.771478 0
M  V30 18 C 3.86695 -0.697391 2.03848 0
M  V30 19 Br 4.90103 -1.10829 3.58377 0
M  V30 20 C 2.48096 -0.612364 2.1301 0
M  V30 21 F 1.83612 -0.81639 3.30406 0
M  V30 22 C 1.76087 -0.310888 0.982707 0
M  V30 23 O 0.461933 -0.215631 0.996268 0
M  V30 24 H -6.42923 -0.128644 1.19394 0
M  V30 25 H -6.39861 0.986765 -0.224365 0
M  V30 26 H -4.46285 0.749963 -1.75965 0
M  V30 27 H -2.09427 0.632252 -2.04442 0
M  V30 28 H -1.72504 -0.29814 2.14718 0
M  V30 29 H -0.131046 0.51463 -2.18725 0
M  V30 30 H 4.50809 -0.787515 -2.19965 0
M  V30 31 H 4.83866 0.965134 -1.81633 0
M  V30 END ATOM
M  V30 BEGIN BOND
M  V30 1 1 1 2
M  V30 2 2 2 3
M  V30 3 1 3 4
M  V30 4 2 4 5
M  V30 5 1 5 6
M  V30 6 2 6 7
M  V30 7 1 7 8
M  V30 8 1 5 9
M  V30 9 2 9 10
M  V30 10 1 10 11
M  V30 11 2 11 12
M  V30 12 1 11 13
M  V30 13 2 13 14
M  V30 14 1 14 15
M  V30 15 1 14 16
M  V30 16 1 16 17
M  V30 17 2 16 18
M  V30 18 1 18 19
M  V30 19 1 18 20
M  V30 20 1 20 21
M  V30 21 2 20 22
M  V30 22 1 22 23
M  V30 23 1 7 2
M  V30 24 1 23 9
M  V30 25 1 22 13
M  V30 26 1 1 24
M  V30 27 1 1 25
M  V30 28 1 3 26
M  V30 29 1 4 27
M  V30 30 1 6 28
M  V30 31 1 10 29
M  V30 32 1 15 30
M  V30 33 1 15 31
M  V30 END BOND
M  V30 END CTAB
M  END
