
     RDKit          3D

  0  0  0  0  0  0  0  0  0  0999 V3000
M  V30 BEGIN CTAB
M  V30 COUNTS 19 19 0 0 0
M  V30 BEGIN ATOM
M  V30 1 C 2.77799 -0.825687 -0.259393 0
M  V30 2 C 1.40301 -0.248711 -0.127858 0
M  V30 3 C 0.304583 -1.08212 -0.0802766 0
M  V30 4 C -0.978847 -0.568276 0.0414122 0
M  V30 5 N -2.09356 -1.46276 0.0875569 0
M  V30 6 C -1.20433 0.79089 0.119168 0
M  V30 7 N -2.52479 1.30613 0.243791 0
M  V30 8 C -0.092835 1.61355 0.0700969 0
M  V30 9 C 1.18705 1.11323 -0.0507201 0
M  V30 10 Br 2.7214 2.24306 -0.118736 0
M  V30 11 H 3.07576 -1.16978 0.773985 0
M  V30 12 H 3.45123 0.0209615 -0.501876 0
M  V30 13 H 2.82061 -1.65114 -0.983968 0
M  V30 14 H 0.483382 -2.16363 -0.142112 0
M  V30 15 H -2.46406 -1.85334 0.986863 0
M  V30 16 H -2.59667 -1.77292 -0.778103 0
M  V30 17 H -2.73912 2.11698 0.879527 0
M  V30 18 H -3.29821 0.892761 -0.28852 0
M  V30 19 H -0.232572 2.7008 0.129161 0
M  V30 END ATOM
M  V30 BEGIN BOND
M  V30 1 1 1 2
M  V30 2 2 2 3
M  V30 3 1 3 4
M  V30 4 1 4 5
M  V30 5 2 4 6
M  V30 6 1 6 7
M  V30 7 1 6 8
M  V30 8 2 8 9
M  V30 9 1 9 10
M  V30 10 1 9 2
M  V30 11 1 1 11
M  V30 12 1 1 12
M  V30 13 1 1 13
M  V30 14 1 3 14
M  V30 15 1 5 15
M  V30 16 1 5 16
M  V30 17 1 7 17
M  V30 18 1 7 18
M  V30 19 1 8 19
M  V30 END BOND
M  V30 END CTAB
M  END
