
     RDKit          3D

  0  0  0  0  0  0  0  0  0  0999 V3000
M  V30 BEGIN CTAB
M  V30 COUNTS 48 49 0 0 0
M  V30 BEGIN ATOM
M  V30 1 C -3.99509 -0.971034 1.42847 0
M  V30 2 C -3.9292 -0.167896 0.173402 0
M  V30 3 C -2.50916 0.260999 -0.211073 0
M  V30 4 C -1.66223 -0.907056 -0.415565 0
M  V30 5 O -2.27751 -2.02752 -0.5143 0
M  V30 6 N -0.248014 -0.954604 -0.520385 0
M  V30 7 C 0.449696 -2.23619 -0.734386 0
M  V30 8 C 1.89449 -1.9519 -0.38683 0 CFG=2
M  V30 9 C 2.03277 -0.516319 -0.862294 0 CFG=1
M  V30 10 C 0.73955 0.0912957 -0.443198 0
M  V30 11 C 3.20967 0.131475 -0.266052 0
M  V30 12 C 4.18427 0.640975 -1.08444 0
M  V30 13 C 5.30219 1.25581 -0.542808 0
M  V30 14 C 5.45933 1.36868 0.820694 0
M  V30 15 C 4.48917 0.861959 1.6576 0
M  V30 16 C 3.37926 0.251028 1.09544 0
M  V30 17 N 2.78232 -2.84008 -1.10924 0
M  V30 18 C -2.04822 1.27884 0.760678 0
M  V30 19 N -1.98781 0.842355 2.13845 0
M  V30 20 C -2.666 0.923541 -1.57363 0
M  V30 21 C -3.56676 2.10907 -1.57759 0
M  V30 22 H -4.30529 -0.296062 2.27373 0
M  V30 23 H -3.05142 -1.4306 1.68839 0
M  V30 24 H -4.82995 -1.72278 1.36442 0
M  V30 25 H -4.56967 0.733918 0.291223 0
M  V30 26 H -4.37356 -0.790904 -0.649133 0
M  V30 27 H 0.380246 -2.56382 -1.77238 0
M  V30 28 H -0.00583664 -2.95459 -0.0487688 0
M  V30 29 H 2.07318 -1.98347 0.706739 0
M  V30 30 H 2.11903 -0.492437 -1.96504 0
M  V30 31 H 0.819848 0.406253 0.625264 0
M  V30 32 H 0.449784 0.940073 -1.09584 0
M  V30 33 H 4.1021 0.574223 -2.17319 0
M  V30 34 H 6.07315 1.65847 -1.20791 0
M  V30 35 H 6.35776 1.86166 1.20089 0
M  V30 36 H 4.60797 0.948269 2.73652 0
M  V30 37 H 2.62464 -0.143278 1.73844 0
M  V30 38 H 2.28452 -3.6872 -1.45058 0
M  V30 39 H 3.61375 -3.08731 -0.522816 0
M  V30 40 H -1.12705 1.77073 0.454608 0
M  V30 41 H -2.86294 2.07776 0.771921 0
M  V30 42 H -2.26196 1.5781 2.79666 0
M  V30 43 H -1.07837 0.391246 2.37703 0
M  V30 44 H -3.08063 0.181722 -2.3036 0
M  V30 45 H -1.69519 1.23451 -1.99131 0
M  V30 46 H -4.61272 1.92872 -1.32926 0
M  V30 47 H -3.09621 2.95674 -1.03226 0
M  V30 48 H -3.58788 2.46663 -2.65403 0
M  V30 END ATOM
M  V30 BEGIN BOND
M  V30 1 1 1 2
M  V30 2 1 2 3
M  V30 3 1 3 4
M  V30 4 2 4 5
M  V30 5 1 4 6
M  V30 6 1 6 7
M  V30 7 1 7 8
M  V30 8 1 8 9
M  V30 9 1 9 10
M  V30 10 1 9 11
M  V30 11 2 11 12
M  V30 12 1 12 13
M  V30 13 2 13 14
M  V30 14 1 14 15
M  V30 15 2 15 16
M  V30 16 1 8 17
M  V30 17 1 3 18
M  V30 18 1 18 19
M  V30 19 1 3 20
M  V30 20 1 20 21
M  V30 21 1 10 6
M  V30 22 1 16 11
M  V30 23 1 1 22
M  V30 24 1 1 23
M  V30 25 1 1 24
M  V30 26 1 2 25
M  V30 27 1 2 26
M  V30 28 1 7 27
M  V30 29 1 7 28
M  V30 30 1 8 29 CFG=1
M  V30 31 1 9 30 CFG=3
M  V30 32 1 10 31
M  V30 33 1 10 32
M  V30 34 1 12 33
M  V30 35 1 13 34
M  V30 36 1 14 35
M  V30 37 1 15 36
M  V30 38 1 16 37
M  V30 39 1 17 38
M  V30 40 1 17 39
M  V30 41 1 18 40
M  V30 42 1 18 41
M  V30 43 1 19 42
M  V30 44 1 19 43
M  V30 45 1 20 44
M  V30 46 1 20 45
M  V30 47 1 21 46
M  V30 48 1 21 47
M  V30 49 1 21 48
M  V30 END BOND
M  V30 END CTAB
M  END
