
     RDKit          3D

  0  0  0  0  0  0  0  0  0  0999 V3000
M  V30 BEGIN CTAB
M  V30 COUNTS 25 24 0 0 0
M  V30 BEGIN ATOM
M  V30 1 N -3.02892 -0.720111 -0.505062 0
M  V30 2 C -2.13916 -1.43031 0.351669 0
M  V30 3 C -1.2456 -0.474631 1.10564 0
M  V30 4 N -0.425842 0.350627 0.26663 0
M  V30 5 C 0.844982 -0.0925576 -0.144882 0
M  V30 6 O 1.23406 -1.24477 0.253972 0
M  V30 7 O 1.70499 0.619016 -0.945623 0
M  V30 8 C 2.95194 0.0442168 -1.27713 0
M  V30 9 C 3.78021 -0.243639 -0.0357942 0
M  V30 10 C -0.894929 1.61103 -0.134257 0
M  V30 11 S 0.0454419 2.55638 -1.10052 0
M  V30 12 N -2.15292 2.15844 0.247098 0
M  V30 13 H -3.13477 -1.20375 -1.42716 0
M  V30 14 H -3.91576 -0.431792 -0.0800066 0
M  V30 15 H -2.76997 -2.02568 1.05647 0
M  V30 16 H -1.518 -2.18472 -0.175462 0
M  V30 17 H -0.631478 -1.11123 1.80427 0
M  V30 18 H -1.87989 0.15811 1.7953 0
M  V30 19 H 2.86382 -0.898794 -1.8402 0
M  V30 20 H 3.52138 0.745416 -1.93501 0
M  V30 21 H 3.7758 -1.3121 0.231101 0
M  V30 22 H 3.4017 0.309134 0.848345 0
M  V30 23 H 4.84004 0.105807 -0.172709 0
M  V30 24 H -2.35795 2.22738 1.26973 0
M  V30 25 H -2.86918 2.48852 -0.40775 0
M  V30 END ATOM
M  V30 BEGIN BOND
M  V30 1 1 1 2
M  V30 2 1 2 3
M  V30 3 1 3 4
M  V30 4 1 4 5
M  V30 5 2 5 6
M  V30 6 1 5 7
M  V30 7 1 7 8
M  V30 8 1 8 9
M  V30 9 1 4 10
M  V30 10 2 10 11
M  V30 11 1 10 12
M  V30 12 1 1 13
M  V30 13 1 1 14
M  V30 14 1 2 15
M  V30 15 1 2 16
M  V30 16 1 3 17
M  V30 17 1 3 18
M  V30 18 1 8 19
M  V30 19 1 8 20
M  V30 20 1 9 21
M  V30 21 1 9 22
M  V30 22 1 9 23
M  V30 23 1 12 24
M  V30 24 1 12 25
M  V30 END BOND
M  V30 END CTAB
M  END
