
     RDKit          3D

  0  0  0  0  0  0  0  0  0  0999 V3000
M  V30 BEGIN CTAB
M  V30 COUNTS 22 22 0 0 0
M  V30 BEGIN ATOM
M  V30 1 N 2.83156 -1.86937 0.273869 0
M  V30 2 C 1.64759 -1.08524 0.144332 0
M  V30 3 C 1.74506 0.272144 -0.0287386 0
M  V30 4 C 0.610582 1.03584 -0.153878 0
M  V30 5 N 0.716899 2.44286 -0.333639 0
M  V30 6 C -0.691545 0.503288 -0.115461 0
M  V30 7 C -0.765461 -0.860568 0.0578542 0
M  V30 8 C 0.401328 -1.63514 0.185702 0
M  V30 9 C -2.08985 -1.52821 0.0824034 0
M  V30 10 F -2.80414 -1.40954 -1.0877 0
M  V30 11 F -1.81931 -2.91493 0.166923 0
M  V30 12 F -2.8248 -1.25104 1.21958 0
M  V30 13 C -1.81744 1.39644 -0.239572 0
M  V30 14 O -3.03144 1.14343 -0.226614 0
M  V30 15 O -1.53592 2.7754 -0.401986 0
M  V30 16 H 3.77352 -1.44893 0.312001 0
M  V30 17 H 2.73222 -2.90076 0.331256 0
M  V30 18 H 2.72883 0.761475 -0.0689747 0
M  V30 19 H 0.747149 3.04736 0.50145 0
M  V30 20 H 0.759833 2.80467 -1.30178 0
M  V30 21 H 0.303753 -2.7064 0.322228 0
M  V30 22 H -1.61844 3.4272 0.360747 0
M  V30 END ATOM
M  V30 BEGIN BOND
M  V30 1 1 1 2
M  V30 2 2 2 3
M  V30 3 1 3 4
M  V30 4 1 4 5
M  V30 5 2 4 6
M  V30 6 1 6 7
M  V30 7 2 7 8
M  V30 8 1 7 9
M  V30 9 1 9 10
M  V30 10 1 9 11
M  V30 11 1 9 12
M  V30 12 1 6 13
M  V30 13 2 13 14
M  V30 14 1 13 15
M  V30 15 1 8 2
M  V30 16 1 1 16
M  V30 17 1 1 17
M  V30 18 1 3 18
M  V30 19 1 5 19
M  V30 20 1 5 20
M  V30 21 1 8 21
M  V30 22 1 15 22
M  V30 END BOND
M  V30 END CTAB
M  END
