
     RDKit          3D

  0  0  0  0  0  0  0  0  0  0999 V3000
M  V30 BEGIN CTAB
M  V30 COUNTS 174 178 0 0 0
M  V30 BEGIN ATOM
M  V30 1 C 5.06748 -0.534637 2.85097 0
M  V30 2 C 5.3394 0.724986 2.07115 0
M  V30 3 C 6.83365 1.0397 2.08551 0
M  V30 4 C 4.92389 0.619208 0.642668 0
M  V30 5 C 3.46117 0.33043 0.438681 0 CFG=1
M  V30 6 N 2.54986 1.30844 0.956206 0
M  V30 7 C 2.6053 2.69663 1.03964 0
M  V30 8 O 2.52049 3.18868 2.22459 0
M  V30 9 C 2.74357 3.70313 -0.042922 0 CFG=2
M  V30 10 C 3.19286 5.00707 0.556667 0
M  V30 11 C 4.51703 4.97723 1.22289 0
M  V30 12 C 5.66285 4.65185 0.275533 0
M  V30 13 N 6.9284 4.64475 0.977391 0
M  V30 14 N 1.49257 3.80248 -0.761843 0
M  V30 15 C 0.934641 4.85516 -1.4787 0
M  V30 16 O 0.746318 4.68646 -2.7546 0
M  V30 17 C 0.493687 6.19143 -1.03693 0 CFG=2
M  V30 18 N -0.80083 6.04306 -0.406111 0
M  V30 19 C -2.07957 6.32698 -0.850584 0
M  V30 20 O -2.73992 7.1957 -0.142889 0
M  V30 21 C -2.82906 5.82424 -1.9785 0 CFG=2
M  V30 22 C -4.25614 6.30796 -2.08361 0
M  V30 23 C -4.76534 5.3916 -3.21359 0
M  V30 24 C -3.5946 4.47736 -3.51038 0
M  V30 25 N -3.03784 4.39814 -2.11799 0
M  V30 26 C -2.79734 3.3331 -1.27366 0
M  V30 27 O -1.81522 2.58017 -1.66551 0
M  V30 28 C -3.42323 2.86192 -0.0155935 0 CFG=2
M  V30 29 C -3.57278 3.88961 1.04244 0
M  V30 30 C -4.23817 3.32197 2.22864 0
M  V30 31 C -5.6367 3.22572 2.23419 0
M  V30 32 C -6.35118 2.75338 3.30024 0
M  V30 33 C -5.69956 2.34696 4.4313 0
M  V30 34 C -4.3274 2.42443 4.46933 0
M  V30 35 C -3.61057 2.90972 3.37144 0
M  V30 36 N -2.75474 1.66614 0.447965 0
M  V30 37 C -2.55121 0.444729 -0.183488 0
M  V30 38 O -1.31241 0.0690855 -0.294412 0
M  V30 39 C -3.52932 -0.520198 -0.7584 0 CFG=2
M  V30 40 C -4.27229 -0.0328765 -1.94073 0
M  V30 41 C -5.23368 -0.963675 -2.60964 0
M  V30 42 C -5.83195 -0.205505 -3.84229 0
M  V30 43 C -6.46656 -1.32217 -1.81741 0
M  V30 44 N -4.41979 -0.984849 0.282415 0
M  V30 45 C -4.23304 -2.01963 1.19887 0
M  V30 46 O -5.083 -1.99263 2.19487 0
M  V30 47 C -3.26196 -3.12618 1.2496 0 CFG=1
M  V30 48 C -3.98551 -4.3271 1.89233 0
M  V30 49 C -5.1839 -4.73279 1.0684 0
M  V30 50 C -5.88711 -5.91212 1.71122 0
M  V30 51 N -7.03172 -6.27488 0.894132 0
M  V30 52 N -2.77601 -3.61124 -0.0124205 0
M  V30 53 C -1.48122 -4.02303 -0.382182 0
M  V30 54 O -0.929202 -3.33235 -1.32431 0
M  V30 55 C -0.673758 -5.13337 0.155215 0 CFG=1
M  V30 56 N -0.209524 -4.97723 1.4978 0
M  V30 57 C 1.1154 -4.99825 1.97587 0
M  V30 58 O 1.37612 -5.84441 2.92513 0
M  V30 59 C 2.24238 -4.15749 1.51468 0 CFG=1
M  V30 60 C 3.44825 -4.39267 2.45504 0
M  V30 61 C 3.89142 -5.7841 1.98097 0
M  V30 62 C 3.1912 -6.02587 0.654517 0
M  V30 63 N 2.87799 -4.64107 0.293519 0
M  V30 64 C 3.09083 -3.84823 -0.86535 0
M  V30 65 O 2.63376 -4.34846 -1.951 0
M  V30 66 C 3.77551 -2.5404 -0.906582 0 CFG=1
M  V30 67 C 5.01359 -2.61457 -1.7745 0
M  V30 68 C 6.01053 -3.59583 -1.28799 0
M  V30 69 C 6.0538 -4.90517 -1.70125 0
M  V30 70 C 7.00605 -5.79192 -1.21474 0
M  V30 71 C 7.94516 -5.4007 -0.300844 0
M  V30 72 C 7.92785 -4.09383 0.133188 0
M  V30 73 C 6.98401 -3.22754 -0.353413 0
M  V30 74 N 2.9927 -1.44479 -1.37032 0
M  V30 75 C 3.15319 -0.103097 -0.942037 0
M  V30 76 O 3.02057 0.813255 -1.82679 0
M  V30 77 C -1.32387 -6.48176 -0.12223 0
M  V30 78 C -1.46861 -6.69867 -1.61558 0
M  V30 79 C -0.63599 -7.63932 0.496433 0
M  V30 80 C 0.489786 7.19901 -2.16013 0
M  V30 81 C 0.0207369 8.51087 -1.57377 0
M  V30 82 C 1.92997 7.40863 -2.5848 0
M  V30 83 H 5.78568 -0.581232 3.68308 0
M  V30 84 H 5.25372 -1.41294 2.21428 0
M  V30 85 H 4.06091 -0.472358 3.27635 0
M  V30 86 H 4.82948 1.55336 2.57141 0
M  V30 87 H 7.18079 1.43736 1.11203 0
M  V30 88 H 7.06002 1.82357 2.85488 0
M  V30 89 H 7.43318 0.137554 2.32399 0
M  V30 90 H 5.29938 1.47636 0.0923398 0
M  V30 91 H 5.47787 -0.268803 0.222193 0
M  V30 92 H 3.33966 -0.651577 1.0475 0
M  V30 93 H 1.64807 0.844294 1.35647 0
M  V30 94 H 3.57825 3.41299 -0.742267 0
M  V30 95 H 3.32026 5.70687 -0.328553 0
M  V30 96 H 2.41959 5.38211 1.27046 0
M  V30 97 H 4.73451 6.0084 1.60066 0
M  V30 98 H 4.63674 4.28884 2.06848 0
M  V30 99 H 5.49495 3.77322 -0.350071 0
M  V30 100 H 5.71616 5.54211 -0.413688 0
M  V30 101 H 7.66724 4.52936 0.219799 0
M  V30 102 H 7.0731 5.6128 1.34293 0
M  V30 103 H 0.912269 2.89619 -0.745666 0
M  V30 104 H 1.16342 6.62945 -0.268789 0
M  V30 105 H -0.71949 5.63918 0.586817 0
M  V30 106 H -2.36286 6.24361 -2.93665 0
M  V30 107 H -4.81553 6.09722 -1.17508 0
M  V30 108 H -4.29047 7.36161 -2.41045 0
M  V30 109 H -4.95748 5.96431 -4.13869 0
M  V30 110 H -5.60481 4.77075 -2.88601 0
M  V30 111 H -3.80549 3.55531 -3.9849 0
M  V30 112 H -2.81361 5.00439 -4.11166 0
M  V30 113 H -4.49738 2.53306 -0.201187 0
M  V30 114 H -4.25421 4.69411 0.673665 0
M  V30 115 H -2.58228 4.28893 1.38859 0
M  V30 116 H -6.13982 3.55974 1.30938 0
M  V30 117 H -7.41789 2.69864 3.25598 0
M  V30 118 H -6.21462 1.96312 5.30899 0
M  V30 119 H -3.79481 2.1066 5.36048 0
M  V30 120 H -2.53374 2.97202 3.43122 0
M  V30 121 H -2.34257 1.77141 1.43932 0
M  V30 122 H -2.92889 -1.3884 -1.17233 0
M  V30 123 H -3.49701 0.200339 -2.72853 0
M  V30 124 H -4.86877 0.886157 -1.71898 0
M  V30 125 H -4.77206 -1.87963 -3.00257 0
M  V30 126 H -6.51763 0.538479 -3.38387 0
M  V30 127 H -6.33269 -0.957533 -4.45146 0
M  V30 128 H -5.02817 0.347085 -4.33876 0
M  V30 129 H -6.88283 -0.377689 -1.39858 0
M  V30 130 H -7.28208 -1.68865 -2.51527 0
M  V30 131 H -6.33302 -2.07347 -1.04883 0
M  V30 132 H -5.32403 -0.406912 0.331969 0
M  V30 133 H -2.46002 -2.88199 1.98304 0
M  V30 134 H -3.30174 -5.1554 2.01291 0
M  V30 135 H -4.35996 -4.04926 2.90238 0
M  V30 136 H -4.87082 -5.10163 0.0538175 0
M  V30 137 H -5.91279 -3.93388 0.920649 0
M  V30 138 H -6.28147 -5.59807 2.70892 0
M  V30 139 H -5.19375 -6.78108 1.79084 0
M  V30 140 H -7.26393 -5.51279 0.229839 0
M  V30 141 H -6.84208 -7.14971 0.338204 0
M  V30 142 H -3.56547 -3.64009 -0.752604 0
M  V30 143 H 0.28247 -5.20407 -0.467999 0
M  V30 144 H -0.960803 -4.82766 2.24145 0
M  V30 145 H 2.00927 -3.07498 1.47625 0
M  V30 146 H 3.05146 -4.40919 3.46984 0
M  V30 147 H 4.20401 -3.63329 2.25461 0
M  V30 148 H 5.00357 -5.7056 1.83981 0
M  V30 149 H 3.71526 -6.55926 2.7239 0
M  V30 150 H 3.81144 -6.55412 -0.0648291 0
M  V30 151 H 2.26876 -6.61254 0.775251 0
M  V30 152 H 4.16817 -2.25656 0.10809 0
M  V30 153 H 5.51697 -1.6258 -1.7836 0
M  V30 154 H 4.7696 -2.91075 -2.81817 0
M  V30 155 H 5.33302 -5.24523 -2.41918 0
M  V30 156 H 7.01918 -6.81553 -1.55407 0
M  V30 157 H 8.68409 -6.10762 0.0714153 0
M  V30 158 H 8.6831 -3.7974 0.860665 0
M  V30 159 H 7.01238 -2.216 0.0169978 0
M  V30 160 H 2.23953 -1.63118 -2.08948 0
M  V30 161 H -2.35367 -6.43 0.279336 0
M  V30 162 H -0.465277 -6.71213 -2.05788 0
M  V30 163 H -2.03674 -5.84802 -2.06087 0
M  V30 164 H -1.99358 -7.64711 -1.76451 0
M  V30 165 H -1.24015 -8.55307 0.232603 0
M  V30 166 H 0.335234 -7.79221 -0.0190434 0
M  V30 167 H -0.576499 -7.60957 1.58455 0
M  V30 168 H -0.0534723 6.88657 -3.04855 0
M  V30 169 H -1.01837 8.71379 -1.93265 0
M  V30 170 H 0.637538 9.36374 -1.86172 0
M  V30 171 H -0.0485087 8.48564 -0.468149 0
M  V30 172 H 1.91333 8.07474 -3.45714 0
M  V30 173 H 2.42529 7.96573 -1.75449 0
M  V30 174 H 2.45227 6.45414 -2.78241 0
M  V30 END ATOM
M  V30 BEGIN BOND
M  V30 1 1 1 2
M  V30 2 1 2 3
M  V30 3 1 2 4
M  V30 4 1 4 5
M  V30 5 1 5 6
M  V30 6 1 6 7
M  V30 7 2 7 8
M  V30 8 1 7 9
M  V30 9 1 9 10
M  V30 10 1 10 11
M  V30 11 1 11 12
M  V30 12 1 12 13
M  V30 13 1 9 14
M  V30 14 1 14 15
M  V30 15 2 15 16
M  V30 16 1 15 17
M  V30 17 1 17 18
M  V30 18 1 18 19
M  V30 19 2 19 20
M  V30 20 1 19 21
M  V30 21 1 21 22
M  V30 22 1 22 23
M  V30 23 1 23 24
M  V30 24 1 24 25
M  V30 25 1 25 26
M  V30 26 2 26 27
M  V30 27 1 26 28
M  V30 28 1 28 29
M  V30 29 1 29 30
M  V30 30 2 30 31
M  V30 31 1 31 32
M  V30 32 2 32 33
M  V30 33 1 33 34
M  V30 34 2 34 35
M  V30 35 1 28 36
M  V30 36 1 36 37
M  V30 37 2 37 38
M  V30 38 1 37 39
M  V30 39 1 39 40
M  V30 40 1 40 41
M  V30 41 1 41 42
M  V30 42 1 41 43
M  V30 43 1 39 44
M  V30 44 1 44 45
M  V30 45 2 45 46
M  V30 46 1 45 47
M  V30 47 1 47 48
M  V30 48 1 48 49
M  V30 49 1 49 50
M  V30 50 1 50 51
M  V30 51 1 47 52
M  V30 52 1 52 53
M  V30 53 2 53 54
M  V30 54 1 53 55
M  V30 55 1 55 56
M  V30 56 1 56 57
M  V30 57 2 57 58
M  V30 58 1 57 59
M  V30 59 1 59 60
M  V30 60 1 60 61
M  V30 61 1 61 62
M  V30 62 1 62 63
M  V30 63 1 63 64
M  V30 64 2 64 65
M  V30 65 1 64 66
M  V30 66 1 66 67
M  V30 67 1 67 68
M  V30 68 2 68 69
M  V30 69 1 69 70
M  V30 70 2 70 71
M  V30 71 1 71 72
M  V30 72 2 72 73
M  V30 73 1 66 74
M  V30 74 1 74 75
M  V30 75 2 75 76
M  V30 76 1 55 77
M  V30 77 1 77 78
M  V30 78 1 77 79
M  V30 79 1 17 80
M  V30 80 1 80 81
M  V30 81 1 80 82
M  V30 82 1 75 5
M  V30 83 1 25 21
M  V30 84 1 35 30
M  V30 85 1 63 59
M  V30 86 1 73 68
M  V30 87 1 1 83
M  V30 88 1 1 84
M  V30 89 1 1 85
M  V30 90 1 2 86
M  V30 91 1 3 87
M  V30 92 1 3 88
M  V30 93 1 3 89
M  V30 94 1 4 90
M  V30 95 1 4 91
M  V30 96 1 5 92 CFG=1
M  V30 97 1 6 93
M  V30 98 1 9 94 CFG=3
M  V30 99 1 10 95
M  V30 100 1 10 96
M  V30 101 1 11 97
M  V30 102 1 11 98
M  V30 103 1 12 99
M  V30 104 1 12 100
M  V30 105 1 13 101
M  V30 106 1 13 102
M  V30 107 1 14 103
M  V30 108 1 17 104 CFG=1
M  V30 109 1 18 105
M  V30 110 1 21 106 CFG=3
M  V30 111 1 22 107
M  V30 112 1 22 108
M  V30 113 1 23 109
M  V30 114 1 23 110
M  V30 115 1 24 111
M  V30 116 1 24 112
M  V30 117 1 28 113 CFG=3
M  V30 118 1 29 114
M  V30 119 1 29 115
M  V30 120 1 31 116
M  V30 121 1 32 117
M  V30 122 1 33 118
M  V30 123 1 34 119
M  V30 124 1 35 120
M  V30 125 1 36 121
M  V30 126 1 39 122 CFG=3
M  V30 127 1 40 123
M  V30 128 1 40 124
M  V30 129 1 41 125
M  V30 130 1 42 126
M  V30 131 1 42 127
M  V30 132 1 42 128
M  V30 133 1 43 129
M  V30 134 1 43 130
M  V30 135 1 43 131
M  V30 136 1 44 132
M  V30 137 1 47 133 CFG=1
M  V30 138 1 48 134
M  V30 139 1 48 135
M  V30 140 1 49 136
M  V30 141 1 49 137
M  V30 142 1 50 138
M  V30 143 1 50 139
M  V30 144 1 51 140
M  V30 145 1 51 141
M  V30 146 1 52 142
M  V30 147 1 55 143 CFG=3
M  V30 148 1 56 144
M  V30 149 1 59 145 CFG=3
M  V30 150 1 60 146
M  V30 151 1 60 147
M  V30 152 1 61 148
M  V30 153 1 61 149
M  V30 154 1 62 150
M  V30 155 1 62 151
M  V30 156 1 66 152 CFG=1
M  V30 157 1 67 153
M  V30 158 1 67 154
M  V30 159 1 69 155
M  V30 160 1 70 156
M  V30 161 1 71 157
M  V30 162 1 72 158
M  V30 163 1 73 159
M  V30 164 1 74 160
M  V30 165 1 77 161
M  V30 166 1 78 162
M  V30 167 1 78 163
M  V30 168 1 78 164
M  V30 169 1 79 165
M  V30 170 1 79 166
M  V30 171 1 79 167
M  V30 172 1 80 168
M  V30 173 1 81 169
M  V30 174 1 81 170
M  V30 175 1 81 171
M  V30 176 1 82 172
M  V30 177 1 82 173
M  V30 178 1 82 174
M  V30 END BOND
M  V30 END CTAB
M  END
