
     RDKit          3D

  0  0  0  0  0  0  0  0  0  0999 V3000
M  V30 BEGIN CTAB
M  V30 COUNTS 28 29 0 0 0
M  V30 BEGIN ATOM
M  V30 1 N 4.48798 0.340308 1.23376 0
M  V30 2 C 3.18114 0.164638 0.674458 0
M  V30 3 C 2.56016 -1.05976 0.627542 0
M  V30 4 C 1.28856 -1.17263 0.0721834 0
M  V30 5 C 0.606437 -0.0913942 -0.444749 0
M  V30 6 C 1.2387 1.13384 -0.392885 0
M  V30 7 C 2.49924 1.25225 0.156401 0
M  V30 8 C -0.724739 -0.174753 -1.03337 0
M  V30 9 C -1.46289 -1.43624 -0.822877 0
M  V30 10 C -2.19246 -1.47224 0.526575 0
M  V30 11 N -3.20004 -0.431381 0.474298 0
M  V30 12 C -2.88295 0.708375 -0.0385293 0
M  V30 13 N -1.56718 0.916719 -0.535669 0
M  V30 14 N -3.87593 1.72783 -0.0877745 0
M  V30 15 H 4.8838 -0.346636 1.90978 0
M  V30 16 H 5.03194 1.17733 0.943717 0
M  V30 17 H 3.07496 -1.9224 1.02662 0
M  V30 18 H 0.857333 -2.14053 0.0623044 0
M  V30 19 H 0.786705 2.05128 -0.774266 0
M  V30 20 H 2.97744 2.23645 0.184606 0
M  V30 21 H -0.662835 0.00722863 -2.14627 0
M  V30 22 H -0.914317 -2.36607 -0.910703 0
M  V30 23 H -2.2969 -1.49322 -1.58405 0
M  V30 24 H -2.62483 -2.48372 0.652983 0
M  V30 25 H -1.41757 -1.27146 1.29262 0
M  V30 26 H -1.23101 1.91603 -0.524328 0
M  V30 27 H -3.61936 2.65323 0.318676 0
M  V30 28 H -4.80137 1.57694 -0.498309 0
M  V30 END ATOM
M  V30 BEGIN BOND
M  V30 1 1 1 2
M  V30 2 2 2 3
M  V30 3 1 3 4
M  V30 4 2 4 5
M  V30 5 1 5 6
M  V30 6 2 6 7
M  V30 7 1 5 8
M  V30 8 1 8 9
M  V30 9 1 9 10
M  V30 10 1 10 11
M  V30 11 2 11 12
M  V30 12 1 12 13
M  V30 13 1 12 14
M  V30 14 1 7 2
M  V30 15 1 13 8
M  V30 16 1 1 15
M  V30 17 1 1 16
M  V30 18 1 3 17
M  V30 19 1 4 18
M  V30 20 1 6 19
M  V30 21 1 7 20
M  V30 22 1 8 21
M  V30 23 1 9 22
M  V30 24 1 9 23
M  V30 25 1 10 24
M  V30 26 1 10 25
M  V30 27 1 13 26
M  V30 28 1 14 27
M  V30 29 1 14 28
M  V30 END BOND
M  V30 END CTAB
M  END
