
     RDKit          3D

  0  0  0  0  0  0  0  0  0  0999 V3000
M  V30 BEGIN CTAB
M  V30 COUNTS 46 47 0 0 0
M  V30 BEGIN ATOM
M  V30 1 C 7.83597 -0.343197 1.1721 0
M  V30 2 C 7.30242 0.96916 0.693157 0
M  V30 3 O 5.94503 0.966202 0.37545 0
M  V30 4 C 5.35263 0.177839 -0.581345 0
M  V30 5 O 6.107 -0.592602 -1.20756 0
M  V30 6 C 3.8847 0.224263 -0.873086 0
M  V30 7 C 3.37011 -0.596054 -1.84497 0
M  V30 8 N 4.08134 -1.54608 -2.66856 0
M  V30 9 S 1.70492 -0.225429 -1.84462 0
M  V30 10 C 1.68952 0.953033 -0.622926 0
M  V30 11 C 2.99181 1.03019 -0.241634 0
M  V30 12 C 3.43434 1.98592 0.85316 0
M  V30 13 S 0.294602 1.90655 0.0458299 0
M  V30 14 S -0.464544 0.73076 1.64621 0
M  V30 15 C -1.73554 -0.341326 0.914323 0
M  V30 16 S -1.57341 -1.8913 0.231572 0
M  V30 17 C -3.19835 -2.16482 -0.19943 0
M  V30 18 C -3.84058 -1.02843 0.202854 0
M  V30 19 C -3.06386 -0.0743208 0.787805 0
M  V30 20 C -3.6316 1.24524 1.28984 0
M  V30 21 C -5.31663 -0.885325 -0.00928256 0
M  V30 22 O -5.96037 -1.79549 -0.549376 0
M  V30 23 O -6.0115 0.2382 0.376865 0
M  V30 24 C -7.37534 0.440931 0.213269 0
M  V30 25 C -7.86051 0.408399 -1.2022 0
M  V30 26 N -3.78521 -3.32669 -0.844181 0
M  V30 27 H 8.89111 -0.145271 1.52607 0
M  V30 28 H 7.93332 -1.08539 0.370961 0
M  V30 29 H 7.31154 -0.735228 2.06745 0
M  V30 30 H 7.44108 1.71774 1.52789 0
M  V30 31 H 7.95931 1.32739 -0.120657 0
M  V30 32 H 4.90029 -1.29553 -3.23882 0
M  V30 33 H 3.72958 -2.51408 -2.6655 0
M  V30 34 H 2.59884 2.58757 1.20597 0
M  V30 35 H 4.17991 2.65555 0.340622 0
M  V30 36 H 3.92604 1.44736 1.66617 0
M  V30 37 H -2.87488 1.84466 1.7894 0
M  V30 38 H -4.08172 1.82076 0.477121 0
M  V30 39 H -4.41486 1.03 2.07241 0
M  V30 40 H -7.64065 1.41929 0.646815 0
M  V30 41 H -7.91523 -0.347147 0.776954 0
M  V30 42 H -8.10593 -0.616049 -1.55776 0
M  V30 43 H -8.82037 0.974866 -1.23449 0
M  V30 44 H -7.17923 0.944024 -1.9053 0
M  V30 45 H -4.38748 -3.95057 -0.26431 0
M  V30 46 H -3.62761 -3.54556 -1.83041 0
M  V30 END ATOM
M  V30 BEGIN BOND
M  V30 1 1 1 2
M  V30 2 1 2 3
M  V30 3 1 3 4
M  V30 4 2 4 5
M  V30 5 1 4 6
M  V30 6 2 6 7
M  V30 7 1 7 8
M  V30 8 1 7 9
M  V30 9 1 9 10
M  V30 10 2 10 11
M  V30 11 1 11 12
M  V30 12 1 10 13
M  V30 13 1 13 14
M  V30 14 1 14 15
M  V30 15 1 15 16
M  V30 16 1 16 17
M  V30 17 2 17 18
M  V30 18 1 18 19
M  V30 19 1 19 20
M  V30 20 1 18 21
M  V30 21 2 21 22
M  V30 22 1 21 23
M  V30 23 1 23 24
M  V30 24 1 24 25
M  V30 25 1 17 26
M  V30 26 1 11 6
M  V30 27 2 19 15
M  V30 28 1 1 27
M  V30 29 1 1 28
M  V30 30 1 1 29
M  V30 31 1 2 30
M  V30 32 1 2 31
M  V30 33 1 8 32
M  V30 34 1 8 33
M  V30 35 1 12 34
M  V30 36 1 12 35
M  V30 37 1 12 36
M  V30 38 1 20 37
M  V30 39 1 20 38
M  V30 40 1 20 39
M  V30 41 1 24 40
M  V30 42 1 24 41
M  V30 43 1 25 42
M  V30 44 1 25 43
M  V30 45 1 25 44
M  V30 46 1 26 45
M  V30 47 1 26 46
M  V30 END BOND
M  V30 END CTAB
M  END
