
     RDKit          3D

  0  0  0  0  0  0  0  0  0  0999 V3000
M  V30 BEGIN CTAB
M  V30 COUNTS 36 37 0 0 0
M  V30 BEGIN ATOM
M  V30 1 C -5.13352 1.15163 -0.55556 0
M  V30 2 C -5.02165 0.181167 0.583548 0
M  V30 3 O -4.00576 -0.753699 0.475962 0
M  V30 4 C -2.65322 -0.540438 0.385322 0
M  V30 5 C -1.769 -1.62152 0.278546 0
M  V30 6 C -0.412805 -1.41644 0.187714 0
M  V30 7 C 0.147064 -0.135567 0.197045 0
M  V30 8 C -0.726877 0.908742 0.301701 0
M  V30 9 C -2.10275 0.711249 0.394325 0
M  V30 10 C 1.59407 0.0376298 0.0982553 0
M  V30 11 N 2.40933 -1.04554 -0.00363358 0
M  V30 12 C 3.73873 -0.910387 -0.0953489 0
M  V30 13 C 4.61286 -2.06082 -0.204164 0
M  V30 14 N 5.2984 -2.99154 -0.301472 0
M  V30 15 C 4.36114 0.319925 -0.0926075 0
M  V30 16 N 5.78066 0.427838 -0.191961 0
M  V30 17 C 3.58497 1.44846 0.00820762 0
M  V30 18 N 4.16864 2.74268 0.016276 0
M  V30 19 C 2.20647 1.26435 0.101588 0
M  V30 20 C -2.34391 -2.99542 0.266706 0
M  V30 21 F -3.21371 -3.17768 -0.794121 0
M  V30 22 F -2.98497 -3.27322 1.47187 0
M  V30 23 F -1.3137 -3.90808 0.151878 0
M  V30 24 H -4.30922 1.04086 -1.30517 0
M  V30 25 H -6.1175 1.10371 -1.08022 0
M  V30 26 H -5.03159 2.21619 -0.19343 0
M  V30 27 H -5.99369 -0.394461 0.59968 0
M  V30 28 H -4.9854 0.764994 1.53139 0
M  V30 29 H 0.290664 -2.23949 0.104222 0
M  V30 30 H -0.334599 1.93885 0.313438 0
M  V30 31 H -2.7336 1.57629 0.477086 0
M  V30 32 H 6.4316 0.128347 0.541032 0
M  V30 33 H 6.19325 0.836178 -1.06185 0
M  V30 34 H 5.01275 3.01338 -0.534069 0
M  V30 35 H 3.73649 3.48538 0.607406 0
M  V30 36 H 1.62038 2.16644 0.179678 0
M  V30 END ATOM
M  V30 BEGIN BOND
M  V30 1 1 1 2
M  V30 2 1 2 3
M  V30 3 1 3 4
M  V30 4 2 4 5
M  V30 5 1 5 6
M  V30 6 2 6 7
M  V30 7 1 7 8
M  V30 8 2 8 9
M  V30 9 1 7 10
M  V30 10 2 10 11
M  V30 11 1 11 12
M  V30 12 1 12 13
M  V30 13 3 13 14
M  V30 14 2 12 15
M  V30 15 1 15 16
M  V30 16 1 15 17
M  V30 17 1 17 18
M  V30 18 2 17 19
M  V30 19 1 5 20
M  V30 20 1 20 21
M  V30 21 1 20 22
M  V30 22 1 20 23
M  V30 23 1 9 4
M  V30 24 1 19 10
M  V30 25 1 1 24
M  V30 26 1 1 25
M  V30 27 1 1 26
M  V30 28 1 2 27
M  V30 29 1 2 28
M  V30 30 1 6 29
M  V30 31 1 8 30
M  V30 32 1 9 31
M  V30 33 1 16 32
M  V30 34 1 16 33
M  V30 35 1 18 34
M  V30 36 1 18 35
M  V30 37 1 19 36
M  V30 END BOND
M  V30 END CTAB
M  END
