
     RDKit          3D

  0  0  0  0  0  0  0  0  0  0999 V3000
M  V30 BEGIN CTAB
M  V30 COUNTS 40 42 0 0 0
M  V30 BEGIN ATOM
M  V30 1 C -2.6916 3.39237 0.655215 0
M  V30 2 N -2.39875 1.97833 0.416459 0
M  V30 3 C -3.36598 1.05903 0.314864 0
M  V30 4 O -4.55729 1.45292 0.432765 0
M  V30 5 N -3.13288 -0.243368 0.0966706 0
M  V30 6 C -4.24503 -1.1791 -0.000807047 0
M  V30 7 C -1.884 -0.703011 -0.0343955 0
M  V30 8 C -0.856336 0.2197 0.0648717 0
M  V30 9 C -1.12656 1.55038 0.289371 0
M  V30 10 O -0.234634 2.42654 0.387837 0
M  V30 11 C 0.444028 -0.220219 -0.0645266 0
M  V30 12 C 0.684148 -1.57424 -0.289943 0
M  V30 13 C 2.06862 -2.02239 -0.420426 0
M  V30 14 N 2.2615 -3.4184 -0.647222 0
M  V30 15 C -0.349155 -2.46525 -0.383985 0
M  V30 16 N -0.070317 -3.83219 -0.614894 0
M  V30 17 N -1.63777 -2.02909 -0.255927 0
M  V30 18 C 1.60219 0.659102 0.0204 0
M  V30 19 C 2.14713 1.29837 -1.08596 0
M  V30 20 Cl 1.40493 1.07638 -2.65847 0
M  V30 21 C 3.25661 2.108 -0.979681 0
M  V30 22 C 3.87836 2.3212 0.23407 0
M  V30 23 F 4.97763 3.12393 0.336721 0
M  V30 24 C 3.34832 1.69315 1.3411 0
M  V30 25 C 2.23971 0.883976 1.23536 0
M  V30 26 H -3.78307 3.49203 0.805808 0
M  V30 27 H -2.17379 3.73075 1.57601 0
M  V30 28 H -2.41714 4.01193 -0.225528 0
M  V30 29 H -3.87035 -2.2142 -0.0172978 0
M  V30 30 H -4.94819 -0.928948 -0.797896 0
M  V30 31 H -4.80756 -1.07269 0.963404 0
M  V30 32 H 2.69097 -1.75189 0.488987 0
M  V30 33 H 2.61553 -1.47639 -1.24829 0
M  V30 34 H 2.39704 -3.97414 0.227765 0
M  V30 35 H 3.08163 -3.54461 -1.27993 0
M  V30 36 H -0.00317181 -4.18478 -1.5917 0
M  V30 37 H 0.0726999 -4.52976 0.143543 0
M  V30 38 H 3.68353 2.60855 -1.84588 0
M  V30 39 H 3.84731 1.87119 2.28232 0
M  V30 40 H 1.85169 0.406825 2.1292 0
M  V30 END ATOM
M  V30 BEGIN BOND
M  V30 1 1 1 2
M  V30 2 1 2 3
M  V30 3 2 3 4
M  V30 4 1 3 5
M  V30 5 1 5 6
M  V30 6 1 5 7
M  V30 7 2 7 8
M  V30 8 1 8 9
M  V30 9 2 9 10
M  V30 10 1 8 11
M  V30 11 2 11 12
M  V30 12 1 12 13
M  V30 13 1 13 14
M  V30 14 1 12 15
M  V30 15 1 15 16
M  V30 16 2 15 17
M  V30 17 1 11 18
M  V30 18 2 18 19
M  V30 19 1 19 20
M  V30 20 1 19 21
M  V30 21 2 21 22
M  V30 22 1 22 23
M  V30 23 1 22 24
M  V30 24 2 24 25
M  V30 25 1 9 2
M  V30 26 1 25 18
M  V30 27 1 17 7
M  V30 28 1 1 26
M  V30 29 1 1 27
M  V30 30 1 1 28
M  V30 31 1 6 29
M  V30 32 1 6 30
M  V30 33 1 6 31
M  V30 34 1 13 32
M  V30 35 1 13 33
M  V30 36 1 14 34
M  V30 37 1 14 35
M  V30 38 1 16 36
M  V30 39 1 16 37
M  V30 40 1 21 38
M  V30 41 1 24 39
M  V30 42 1 25 40
M  V30 END BOND
M  V30 END CTAB
M  END
