
     RDKit          3D

  0  0  0  0  0  0  0  0  0  0999 V3000
M  V30 BEGIN CTAB
M  V30 COUNTS 36 37 0 0 0
M  V30 BEGIN ATOM
M  V30 1 C 5.78011 -0.0243256 1.53481 0
M  V30 2 C 4.46389 0.136077 0.881464 0
M  V30 3 C 3.99284 -0.803833 -0.00757044 0
M  V30 4 C 2.75956 -0.677934 -0.635731 0
M  V30 5 C 1.99105 0.409562 -0.363832 0
M  V30 6 C 2.44361 1.36568 0.525004 0
M  V30 7 C 3.65584 1.22387 1.13039 0
M  V30 8 C 0.676099 0.585274 -0.993989 0
M  V30 9 O 0.0201089 1.63767 -0.740854 0
M  V30 10 C 0.0802754 -0.405357 -1.90762 0
M  V30 11 S -1.50574 0.193867 -2.50513 0
M  V30 12 C -2.71317 0.246444 -1.19509 0
M  V30 13 N -3.49819 -0.805915 -0.899598 0
M  V30 14 C -4.43365 -0.828909 0.0624897 0
M  V30 15 N -5.23251 -1.9701 0.328336 0
M  V30 16 C -4.60671 0.328294 0.81595 0
M  V30 17 C -3.8025 1.42258 0.52129 0
M  V30 18 N -2.8932 1.355 -0.458452 0
M  V30 19 N -4.01089 2.57961 1.31115 0
M  V30 20 C -0.107801 -1.70766 -1.12692 0
M  V30 21 H 6.0975 0.952343 1.93279 0
M  V30 22 H 6.55829 -0.394488 0.853119 0
M  V30 23 H 5.65737 -0.791783 2.32968 0
M  V30 24 H 4.59884 -1.65275 -0.216017 0
M  V30 25 H 2.49793 -1.45824 -1.30786 0
M  V30 26 H 1.80534 2.2154 0.715449 0
M  V30 27 H 4.01748 1.97562 1.83261 0
M  V30 28 H 0.775752 -0.651338 -2.75109 0
M  V30 29 H -5.47783 -2.59844 -0.447344 0
M  V30 30 H -5.55945 -2.16294 1.28288 0
M  V30 31 H -5.35002 0.340308 1.59541 0
M  V30 32 H -3.57637 2.68998 2.24221 0
M  V30 33 H -4.61468 3.33594 0.946944 0
M  V30 34 H 0.295774 -1.56443 -0.112366 0
M  V30 35 H 0.406795 -2.56491 -1.63303 0
M  V30 36 H -1.19177 -1.93015 -0.987446 0
M  V30 END ATOM
M  V30 BEGIN BOND
M  V30 1 1 1 2
M  V30 2 2 2 3
M  V30 3 1 3 4
M  V30 4 2 4 5
M  V30 5 1 5 6
M  V30 6 2 6 7
M  V30 7 1 5 8
M  V30 8 2 8 9
M  V30 9 1 8 10
M  V30 10 1 10 11
M  V30 11 1 11 12
M  V30 12 2 12 13
M  V30 13 1 13 14
M  V30 14 1 14 15
M  V30 15 2 14 16
M  V30 16 1 16 17
M  V30 17 2 17 18
M  V30 18 1 17 19
M  V30 19 1 10 20
M  V30 20 1 7 2
M  V30 21 1 18 12
M  V30 22 1 1 21
M  V30 23 1 1 22
M  V30 24 1 1 23
M  V30 25 1 3 24
M  V30 26 1 4 25
M  V30 27 1 6 26
M  V30 28 1 7 27
M  V30 29 1 10 28
M  V30 30 1 15 29
M  V30 31 1 15 30
M  V30 32 1 16 31
M  V30 33 1 19 32
M  V30 34 1 19 33
M  V30 35 1 20 34
M  V30 36 1 20 35
M  V30 37 1 20 36
M  V30 END BOND
M  V30 END CTAB
M  END
