
     RDKit          3D

  0  0  0  0  0  0  0  0  0  0999 V3000
M  V30 BEGIN CTAB
M  V30 COUNTS 43 44 0 0 0
M  V30 BEGIN ATOM
M  V30 1 N -4.44052 1.78656 -1.5529 0
M  V30 2 C -5.30278 1.1783 -0.575477 0
M  V30 3 C -4.78468 -0.1605 -0.182306 0
M  V30 4 C -5.15453 -1.32508 -0.808181 0
M  V30 5 C -4.66994 -2.57004 -0.445823 0
M  V30 6 C -3.77098 -2.63711 0.596609 0
M  V30 7 C -3.38089 -1.46088 1.24821 0
M  V30 8 C -3.87942 -0.257082 0.863048 0
M  V30 9 C -2.40372 -1.64705 2.35854 0
M  V30 10 N -1.05028 -1.69691 1.85833 0
M  V30 11 C -0.299514 -0.558126 1.48003 0
M  V30 12 O -0.735011 0.593227 1.54958 0
M  V30 13 C 1.08903 -0.73698 0.968302 0
M  V30 14 O 1.50448 -1.92967 0.896395 0
M  V30 15 N 1.80279 0.410684 0.616052 0
M  V30 16 C 3.10181 0.4766 0.113718 0
M  V30 17 C 3.87014 -0.618112 -0.124562 0
M  V30 18 C 5.17044 -0.487889 -0.63933 0
M  V30 19 C 5.7322 0.725686 -0.926472 0
M  V30 20 C 4.95629 1.83678 -0.685979 0
M  V30 21 C 3.68602 1.72667 -0.184122 0
M  V30 22 N 2.88166 2.88185 0.0654563 0
M  V30 23 C 7.12105 0.840811 -1.47662 0
M  V30 24 H -4.51514 2.82746 -1.48395 0
M  V30 25 H -4.76216 1.48624 -2.49762 0
M  V30 26 H -5.40653 1.76477 0.361368 0
M  V30 27 H -6.30145 0.9859 -1.06067 0
M  V30 28 H -5.8618 -1.27332 -1.62826 0
M  V30 29 H -4.97555 -3.48871 -0.955025 0
M  V30 30 H -3.37194 -3.5818 0.909443 0
M  V30 31 H -3.58344 0.65065 1.36936 0
M  V30 32 H -2.54058 -0.818274 3.09085 0
M  V30 33 H -2.6314 -2.60479 2.87296 0
M  V30 34 H -0.598327 -2.63127 1.7695 0
M  V30 35 H 1.25983 1.33174 0.761408 0
M  V30 36 H 3.54578 -1.63048 0.0594598 0
M  V30 37 H 5.73644 -1.39003 -0.810164 0
M  V30 38 H 5.3969 2.81143 -0.912224 0
M  V30 39 H 2.74317 3.21925 1.02924 0
M  V30 40 H 2.45975 3.34152 -0.780202 0
M  V30 41 H 7.33973 1.90925 -1.56762 0
M  V30 42 H 7.81061 0.398676 -0.698623 0
M  V30 43 H 7.21243 0.320054 -2.43925 0
M  V30 END ATOM
M  V30 BEGIN BOND
M  V30 1 1 1 2
M  V30 2 1 2 3
M  V30 3 2 3 4
M  V30 4 1 4 5
M  V30 5 2 5 6
M  V30 6 1 6 7
M  V30 7 2 7 8
M  V30 8 1 7 9
M  V30 9 1 9 10
M  V30 10 1 10 11
M  V30 11 2 11 12
M  V30 12 1 11 13
M  V30 13 2 13 14
M  V30 14 1 13 15
M  V30 15 1 15 16
M  V30 16 2 16 17
M  V30 17 1 17 18
M  V30 18 2 18 19
M  V30 19 1 19 20
M  V30 20 2 20 21
M  V30 21 1 21 22
M  V30 22 1 19 23
M  V30 23 1 8 3
M  V30 24 1 21 16
M  V30 25 1 1 24
M  V30 26 1 1 25
M  V30 27 1 2 26
M  V30 28 1 2 27
M  V30 29 1 4 28
M  V30 30 1 5 29
M  V30 31 1 6 30
M  V30 32 1 8 31
M  V30 33 1 9 32
M  V30 34 1 9 33
M  V30 35 1 10 34
M  V30 36 1 15 35
M  V30 37 1 17 36
M  V30 38 1 18 37
M  V30 39 1 20 38
M  V30 40 1 22 39
M  V30 41 1 22 40
M  V30 42 1 23 41
M  V30 43 1 23 42
M  V30 44 1 23 43
M  V30 END BOND
M  V30 END CTAB
M  END
