
     RDKit          3D

  0  0  0  0  0  0  0  0  0  0999 V3000
M  V30 BEGIN CTAB
M  V30 COUNTS 30 31 0 0 0
M  V30 BEGIN ATOM
M  V30 1 C -4.92962 0.242465 0.0459669 0
M  V30 2 C -3.46636 -0.00612839 0.363787 0
M  V30 3 C -2.69098 0.307627 -0.897117 0
M  V30 4 C -1.22165 0.096426 -0.701411 0
M  V30 5 C -0.627873 -1.12069 -0.954816 0
M  V30 6 C 0.711457 -1.36477 -0.791575 0
M  V30 7 N 1.35397 -2.60544 -1.04336 0
M  V30 8 C 1.49642 -0.298757 -0.340702 0
M  V30 9 C 0.914548 0.926908 -0.0826968 0
M  V30 10 N -0.427068 1.09083 -0.269888 0
M  V30 11 C 1.65245 2.00851 0.364498 0
M  V30 12 C 3.0079 1.83749 0.552031 0
M  V30 13 C 3.59886 0.622286 0.298693 0
M  V30 14 C 2.84079 -0.433608 -0.14449 0
M  V30 15 N 4.99172 0.408524 0.480237 0
M  V30 16 H -5.26036 -0.600719 -0.605548 0
M  V30 17 H -4.99216 1.1827 -0.576589 0
M  V30 18 H -5.55242 0.360069 0.938565 0
M  V30 19 H -3.28545 -1.069 0.606183 0
M  V30 20 H -3.08863 0.688262 1.14554 0
M  V30 21 H -2.91995 1.33892 -1.18393 0
M  V30 22 H -3.08846 -0.365785 -1.68572 0
M  V30 23 H -1.25388 -1.92693 -1.30149 0
M  V30 24 H 1.17153 -3.11466 -1.94552 0
M  V30 25 H 2.00797 -3.05947 -0.385479 0
M  V30 26 H 1.16438 2.94692 0.554565 0
M  V30 27 H 3.60018 2.67326 0.901465 0
M  V30 28 H 3.27138 -1.41441 -0.357105 0
M  V30 29 H 5.69033 0.81738 -0.178394 0
M  V30 30 H 5.33099 -0.16821 1.28663 0
M  V30 END ATOM
M  V30 BEGIN BOND
M  V30 1 1 1 2
M  V30 2 1 2 3
M  V30 3 1 3 4
M  V30 4 2 4 5
M  V30 5 1 5 6
M  V30 6 1 6 7
M  V30 7 2 6 8
M  V30 8 1 8 9
M  V30 9 2 9 10
M  V30 10 1 9 11
M  V30 11 2 11 12
M  V30 12 1 12 13
M  V30 13 2 13 14
M  V30 14 1 13 15
M  V30 15 1 10 4
M  V30 16 1 14 8
M  V30 17 1 1 16
M  V30 18 1 1 17
M  V30 19 1 1 18
M  V30 20 1 2 19
M  V30 21 1 2 20
M  V30 22 1 3 21
M  V30 23 1 3 22
M  V30 24 1 5 23
M  V30 25 1 7 24
M  V30 26 1 7 25
M  V30 27 1 11 26
M  V30 28 1 12 27
M  V30 29 1 14 28
M  V30 30 1 15 29
M  V30 31 1 15 30
M  V30 END BOND
M  V30 END CTAB
M  END
