
     RDKit          3D

  0  0  0  0  0  0  0  0  0  0999 V3000
M  V30 BEGIN CTAB
M  V30 COUNTS 54 58 0 0 0
M  V30 BEGIN ATOM
M  V30 1 C -8.35249 0.104779 -1.11416 0
M  V30 2 C -7.23491 -0.570034 -0.284465 0 CFG=2
M  V30 3 N -7.33376 -0.0251282 1.01196 0
M  V30 4 C -5.96314 -0.468598 -0.992715 0
M  V30 5 O -5.97338 -1.09108 -2.1437 0
M  V30 6 N -4.78761 0.160826 -0.649475 0
M  V30 7 C -4.48347 0.928444 0.512606 0
M  V30 8 C -3.46437 0.0873018 1.30105 0
M  V30 9 N -2.29248 -0.00338942 0.496206 0
M  V30 10 C -2.43218 -0.537297 -0.856505 0
M  V30 11 C -3.62907 0.040346 -1.58659 0
M  V30 12 C -1.03379 0.41745 0.978529 0
M  V30 13 C -0.968244 1.26971 2.05012 0
M  V30 14 N 0.242099 1.65237 2.50962 0
M  V30 15 C 1.34996 1.20208 1.92211 0
M  V30 16 C 2.56069 1.61592 2.42061 0
M  V30 17 C 3.72321 1.14929 1.8114 0
M  V30 18 C 3.70536 0.296153 0.737527 0
M  V30 19 N 2.4967 -0.0818233 0.284146 0
M  V30 20 C 1.35149 0.349225 0.848242 0
M  V30 21 C 0.109875 -0.0478897 0.371493 0
M  V30 22 C 4.93954 -0.170722 0.126661 0
M  V30 23 C 6.20134 0.177043 0.541062 0
M  V30 24 C 7.3455 -0.315056 -0.0999023 0
M  V30 25 C 7.23144 -1.17041 -1.17483 0
M  V30 26 O 8.4619 -1.47148 -1.57686 0
M  V30 27 C 9.34443 -0.865023 -0.829654 0
M  V30 28 N 10.7626 -0.973895 -0.993162 0
M  V30 29 N 8.6672 -0.145317 0.0892136 0
M  V30 30 C 5.96622 -1.51941 -1.59074 0
M  V30 31 C 4.84298 -1.03164 -0.955616 0
M  V30 32 H -8.22856 1.19491 -0.939457 0
M  V30 33 H -9.29454 -0.19691 -0.626798 0
M  V30 34 H -8.28166 -0.180268 -2.15533 0
M  V30 35 H -7.52838 -1.66545 -0.312605 0
M  V30 36 H -7.62232 0.947367 1.09898 0
M  V30 37 H -6.82363 -0.478553 1.75435 0
M  V30 38 H -3.95948 1.87015 0.171464 0
M  V30 39 H -5.26092 1.22036 1.18136 0
M  V30 40 H -3.94667 -0.908225 1.42936 0
M  V30 41 H -3.36269 0.517235 2.28031 0
M  V30 42 H -1.53929 -0.202844 -1.44209 0
M  V30 43 H -2.42924 -1.63384 -0.849443 0
M  V30 44 H -3.36843 1.04095 -1.94476 0
M  V30 45 H -3.88918 -0.635623 -2.41177 0
M  V30 46 H -1.82298 1.68492 2.57893 0
M  V30 47 H 2.58909 2.28798 3.26629 0
M  V30 48 H 4.6451 1.50317 2.23979 0
M  V30 49 H 0.130425 -0.726374 -0.476294 0
M  V30 50 H 6.32633 0.832534 1.36413 0
M  V30 51 H 11.2736 -1.86012 -1.05058 0
M  V30 52 H 11.305 -0.0693721 -1.05738 0
M  V30 53 H 5.886 -2.18273 -2.4245 0
M  V30 54 H 3.84879 -1.32201 -1.30273 0
M  V30 END ATOM
M  V30 BEGIN BOND
M  V30 1 1 1 2
M  V30 2 1 2 3
M  V30 3 1 2 4
M  V30 4 2 4 5
M  V30 5 1 4 6
M  V30 6 1 6 7
M  V30 7 1 7 8
M  V30 8 1 8 9
M  V30 9 1 9 10
M  V30 10 1 10 11
M  V30 11 1 9 12
M  V30 12 2 12 13
M  V30 13 1 13 14
M  V30 14 2 14 15
M  V30 15 1 15 16
M  V30 16 2 16 17
M  V30 17 1 17 18
M  V30 18 2 18 19
M  V30 19 1 19 20
M  V30 20 2 20 21
M  V30 21 1 18 22
M  V30 22 2 22 23
M  V30 23 1 23 24
M  V30 24 2 24 25
M  V30 25 1 25 26
M  V30 26 1 26 27
M  V30 27 1 27 28
M  V30 28 2 27 29
M  V30 29 1 25 30
M  V30 30 2 30 31
M  V30 31 1 11 6
M  V30 32 1 21 12
M  V30 33 1 31 22
M  V30 34 1 20 15
M  V30 35 1 29 24
M  V30 36 1 1 32
M  V30 37 1 1 33
M  V30 38 1 1 34
M  V30 39 1 2 35 CFG=1
M  V30 40 1 3 36
M  V30 41 1 3 37
M  V30 42 1 7 38
M  V30 43 1 7 39
M  V30 44 1 8 40
M  V30 45 1 8 41
M  V30 46 1 10 42
M  V30 47 1 10 43
M  V30 48 1 11 44
M  V30 49 1 11 45
M  V30 50 1 13 46
M  V30 51 1 16 47
M  V30 52 1 17 48
M  V30 53 1 21 49
M  V30 54 1 23 50
M  V30 55 1 28 51
M  V30 56 1 28 52
M  V30 57 1 30 53
M  V30 58 1 31 54
M  V30 END BOND
M  V30 END CTAB
M  END
