
     RDKit          3D

  0  0  0  0  0  0  0  0  0  0999 V3000
M  V30 BEGIN CTAB
M  V30 COUNTS 26 27 0 0 0
M  V30 BEGIN ATOM
M  V30 1 N -2.13578 1.47408 1.21219 0
M  V30 2 C -2.18171 0.174487 0.676547 0
M  V30 3 C -1.41131 -0.333332 -0.36506 0
M  V30 4 C -0.374219 0.339857 -1.161 0
M  V30 5 C 0.909503 0.522153 -0.470266 0
M  V30 6 C 1.83157 -0.529851 -0.51754 0
M  V30 7 C 3.05339 -0.42339 0.103467 0
M  V30 8 C 3.43054 0.696172 0.790356 0
M  V30 9 C 2.49708 1.73884 0.827594 0
M  V30 10 C 1.27161 1.65946 0.217082 0
M  V30 11 C -1.79847 -1.65019 -0.55044 0
M  V30 12 N -1.30735 -2.59247 -1.50109 0
M  V30 13 N -2.76719 -1.90508 0.356765 0
M  V30 14 N -2.99494 -0.826747 1.08311 0
M  V30 15 H -2.00051 1.63498 2.22984 0
M  V30 16 H -2.23764 2.3002 0.591746 0
M  V30 17 H -0.72528 1.37232 -1.45937 0
M  V30 18 H -0.194002 -0.213888 -2.10156 0
M  V30 19 H 1.6015 -1.44333 -1.04331 0
M  V30 20 H 3.78995 -1.24175 0.0759723 0
M  V30 21 H 4.36908 0.82979 1.29114 0
M  V30 22 H 2.77455 2.62756 1.36242 0
M  V30 23 H 0.54452 2.46395 0.235913 0
M  V30 24 H -0.329913 -2.58352 -1.8391 0
M  V30 25 H -1.91734 -3.34507 -1.90665 0
M  V30 26 H -3.69764 -0.745241 1.86125 0
M  V30 END ATOM
M  V30 BEGIN BOND
M  V30 1 1 1 2
M  V30 2 2 2 3
M  V30 3 1 3 4
M  V30 4 1 4 5
M  V30 5 2 5 6
M  V30 6 1 6 7
M  V30 7 2 7 8
M  V30 8 1 8 9
M  V30 9 2 9 10
M  V30 10 1 3 11
M  V30 11 1 11 12
M  V30 12 2 11 13
M  V30 13 1 13 14
M  V30 14 1 14 2
M  V30 15 1 10 5
M  V30 16 1 1 15
M  V30 17 1 1 16
M  V30 18 1 4 17
M  V30 19 1 4 18
M  V30 20 1 6 19
M  V30 21 1 7 20
M  V30 22 1 8 21
M  V30 23 1 9 22
M  V30 24 1 10 23
M  V30 25 1 12 24
M  V30 26 1 12 25
M  V30 27 1 14 26
M  V30 END BOND
M  V30 END CTAB
M  END
