
     RDKit          3D

  0  0  0  0  0  0  0  0  0  0999 V3000
M  V30 BEGIN CTAB
M  V30 COUNTS 132 133 0 0 0
M  V30 BEGIN ATOM
M  V30 1 C -8.23678 3.25351 -0.136751 0
M  V30 2 C -8.57611 1.98482 0.589797 0
M  V30 3 C -9.91366 1.50316 0.138238 0
M  V30 4 C -7.5327 0.900611 0.37554 0
M  V30 5 C -7.89063 -0.355539 1.11234 0 CFG=2
M  V30 6 N -8.00543 -0.23356 2.53037 0
M  V30 7 C -9.12944 -0.581802 3.31209 0
M  V30 8 O -10.1251 -1.05817 2.71786 0
M  V30 9 C -9.14088 -0.392147 4.77383 0 CFG=1
M  V30 10 N -7.88118 0.195471 5.23773 0
M  V30 11 C -10.2494 0.545477 5.24009 0
M  V30 12 C -11.6012 0.0808551 4.90176 0
M  V30 13 O -12.3065 -0.846213 5.65027 0
M  V30 14 O -12.1436 0.553235 3.87069 0
M  V30 15 C -7.16715 -1.54897 0.656596 0
M  V30 16 O -7.34361 -2.68481 1.1815 0
M  V30 17 N -6.23287 -1.47797 -0.403637 0
M  V30 18 C -5.52641 -2.6326 -0.912256 0
M  V30 19 C -4.53038 -2.33014 -1.95992 0
M  V30 20 O -4.00293 -3.3706 -2.49552 0
M  V30 21 N -4.14647 -1.05491 -2.37083 0
M  V30 22 C -3.17297 -0.790619 -3.40275 0 CFG=1
M  V30 23 C -3.27047 0.538081 -4.04553 0
M  V30 24 C -3.0996 1.68845 -3.08522 0
M  V30 25 C -3.19485 2.98051 -3.81514 0
M  V30 26 O -3.45803 2.99428 -5.17168 0
M  V30 27 O -3.03107 4.07312 -3.17567 0
M  V30 28 C -1.83572 -1.11789 -2.82485 0
M  V30 29 O -1.72218 -1.83534 -1.82954 0
M  V30 30 N -0.653391 -0.5933 -3.44149 0
M  V30 31 C 0.651381 -0.955221 -2.93121 0 CFG=1
M  V30 32 C 1.67685 -0.713742 -3.9779 0
M  V30 33 C 1.49853 -1.45584 -5.25531 0
M  V30 34 C 1.52112 -2.91249 -5.16657 0
M  V30 35 O 1.34011 -3.63968 -6.33616 0
M  V30 36 O 1.69342 -3.53353 -4.10152 0
M  V30 37 C 0.980025 -0.217938 -1.65707 0
M  V30 38 O 0.166418 0.600206 -1.22003 0
M  V30 39 N 2.18773 -0.472737 -0.997926 0
M  V30 40 C 2.6785 0.134476 0.223622 0 CFG=1
M  V30 41 C 2.5728 -0.771325 1.39182 0
M  V30 42 C 3.31217 -2.04062 1.3274 0
M  V30 43 C 4.23703 -2.5202 0.433713 0
M  V30 44 N 4.61565 -3.76851 0.765837 0
M  V30 45 C 3.93828 -4.07669 1.86867 0
M  V30 46 N 3.14946 -3.07364 2.23474 0
M  V30 47 C 3.96367 0.763672 -0.0292237 0
M  V30 48 O 4.37205 0.712701 -1.26267 0
M  V30 49 N 4.85617 1.42844 0.851186 0
M  V30 50 C 6.10305 1.96913 0.252925 0 CFG=1
M  V30 51 C 6.10394 3.46825 0.451389 0
M  V30 52 C 4.9103 4.09376 -0.166483 0
M  V30 53 C 3.77169 4.29235 0.623788 0
M  V30 54 C 2.62774 4.87473 0.0780013 0
M  V30 55 C 2.5792 5.26755 -1.2343 0
M  V30 56 C 3.70045 5.07267 -2.01444 0
M  V30 57 C 4.83809 4.49352 -1.47055 0
M  V30 58 C 7.23327 1.41583 1.0505 0
M  V30 59 O 7.14871 1.5096 2.28413 0
M  V30 60 N 8.33119 0.815914 0.439168 0
M  V30 61 C 9.51947 0.265775 1.05613 0 CFG=1
M  V30 62 C 9.04219 -1.02109 1.73889 0
M  V30 63 C 10.1207 -1.78038 2.42147 0
M  V30 64 C 9.51506 -2.91509 3.21215 0
M  V30 65 C 8.71106 -3.81433 2.35528 0
M  V30 66 N 8.13645 -4.91325 3.15366 0
M  V30 67 C 10.6526 0.176232 0.208201 0
M  V30 68 O 11.8959 -0.318634 0.540437 0
M  V30 69 O 10.5811 0.589275 -1.02141 0
M  V30 70 H -7.26515 3.68462 0.184698 0
M  V30 71 H -8.99641 4.03728 0.0644351 0
M  V30 72 H -8.17914 3.12221 -1.2312 0
M  V30 73 H -8.63947 2.21629 1.68029 0
M  V30 74 H -10.4269 2.31786 -0.434298 0
M  V30 75 H -9.85169 0.657128 -0.584286 0
M  V30 76 H -10.5698 1.29047 1.01047 0
M  V30 77 H -6.51448 1.25442 0.529076 0
M  V30 78 H -7.60533 0.661924 -0.725338 0
M  V30 79 H -8.97593 -0.571925 0.72657 0
M  V30 80 H -7.16075 0.16895 3.05019 0
M  V30 81 H -9.27212 -1.33218 5.35739 0
M  V30 82 H -7.68436 1.12054 4.81832 0
M  V30 83 H -7.08517 -0.451208 5.19943 0
M  V30 84 H -10.1541 0.672547 6.31685 0
M  V30 85 H -10.0495 1.51924 4.72653 0
M  V30 86 H -12.2753 -0.870278 6.66599 0
M  V30 87 H -6.05585 -0.559614 -0.83656 0
M  V30 88 H -4.99309 -3.13664 -0.0329924 0
M  V30 89 H -6.22312 -3.41111 -1.26791 0
M  V30 90 H -4.56394 -0.205399 -1.92239 0
M  V30 91 H -3.27898 -1.58042 -4.22811 0
M  V30 92 H -4.29569 0.614075 -4.49259 0
M  V30 93 H -2.52042 0.6377 -4.83671 0
M  V30 94 H -2.14649 1.63446 -2.56421 0
M  V30 95 H -3.90127 1.72099 -2.31926 0
M  V30 96 H -2.70498 3.35186 -5.7666 0
M  V30 97 H -0.694866 0.0633238 -4.26524 0
M  V30 98 H 0.544147 -2.00341 -2.57504 0
M  V30 99 H 2.70264 -0.990272 -3.57546 0
M  V30 100 H 1.78623 0.375903 -4.22711 0
M  V30 101 H 0.50193 -1.12737 -5.69957 0
M  V30 102 H 2.25572 -1.06963 -6.00012 0
M  V30 103 H 0.400315 -3.79803 -6.66073 0
M  V30 104 H 2.81697 -1.1904 -1.44426 0
M  V30 105 H 1.93484 0.988969 0.423096 0
M  V30 106 H 2.91043 -0.223443 2.32603 0
M  V30 107 H 1.47639 -0.948076 1.61337 0
M  V30 108 H 4.6369 -2.00745 -0.413388 0
M  V30 109 H 5.30558 -4.32574 0.227774 0
M  V30 110 H 4.0655 -5.06056 2.35179 0
M  V30 111 H 4.62605 1.50747 1.84696 0
M  V30 112 H 6.12458 1.67579 -0.795501 0
M  V30 113 H 7.05124 3.82691 -0.00725738 0
M  V30 114 H 6.16229 3.67007 1.53405 0
M  V30 115 H 3.82198 3.97755 1.66249 0
M  V30 116 H 1.78504 5.00268 0.745952 0
M  V30 117 H 1.67932 5.71863 -1.64994 0
M  V30 118 H 3.63891 5.38621 -3.03709 0
M  V30 119 H 5.7005 4.35327 -2.1243 0
M  V30 120 H 8.30411 0.75115 -0.627321 0
M  V30 121 H 9.71468 0.975329 1.9482 0
M  V30 122 H 8.16569 -0.788975 2.34456 0
M  V30 123 H 8.65786 -1.68629 0.907168 0
M  V30 124 H 10.8295 -2.18215 1.65581 0
M  V30 125 H 10.6532 -1.08157 3.13159 0
M  V30 126 H 8.83329 -2.50874 4.02454 0
M  V30 127 H 10.3044 -3.45525 3.797 0
M  V30 128 H 9.30401 -4.1929 1.51576 0
M  V30 129 H 7.80062 -3.24388 1.99073 0
M  V30 130 H 7.92776 -4.5266 4.10555 0
M  V30 131 H 7.25751 -5.21935 2.67818 0
M  V30 132 H 12.5911 -0.623105 -0.154304 0
M  V30 END ATOM
M  V30 BEGIN BOND
M  V30 1 1 1 2
M  V30 2 1 2 3
M  V30 3 1 2 4
M  V30 4 1 4 5
M  V30 5 1 5 6
M  V30 6 1 6 7
M  V30 7 2 7 8
M  V30 8 1 7 9
M  V30 9 1 9 10
M  V30 10 1 9 11
M  V30 11 1 11 12
M  V30 12 1 12 13
M  V30 13 2 12 14
M  V30 14 1 5 15
M  V30 15 2 15 16
M  V30 16 1 15 17
M  V30 17 1 17 18
M  V30 18 1 18 19
M  V30 19 2 19 20
M  V30 20 1 19 21
M  V30 21 1 21 22
M  V30 22 1 22 23
M  V30 23 1 23 24
M  V30 24 1 24 25
M  V30 25 1 25 26
M  V30 26 2 25 27
M  V30 27 1 22 28
M  V30 28 2 28 29
M  V30 29 1 28 30
M  V30 30 1 30 31
M  V30 31 1 31 32
M  V30 32 1 32 33
M  V30 33 1 33 34
M  V30 34 1 34 35
M  V30 35 2 34 36
M  V30 36 1 31 37
M  V30 37 2 37 38
M  V30 38 1 37 39
M  V30 39 1 39 40
M  V30 40 1 40 41
M  V30 41 1 41 42
M  V30 42 2 42 43
M  V30 43 1 43 44
M  V30 44 1 44 45
M  V30 45 2 45 46
M  V30 46 1 40 47
M  V30 47 2 47 48
M  V30 48 1 47 49
M  V30 49 1 49 50
M  V30 50 1 50 51
M  V30 51 1 51 52
M  V30 52 2 52 53
M  V30 53 1 53 54
M  V30 54 2 54 55
M  V30 55 1 55 56
M  V30 56 2 56 57
M  V30 57 1 50 58
M  V30 58 2 58 59
M  V30 59 1 58 60
M  V30 60 1 60 61
M  V30 61 1 61 62
M  V30 62 1 62 63
M  V30 63 1 63 64
M  V30 64 1 64 65
M  V30 65 1 65 66
M  V30 66 1 61 67
M  V30 67 1 67 68
M  V30 68 2 67 69
M  V30 69 1 46 42
M  V30 70 1 57 52
M  V30 71 1 1 70
M  V30 72 1 1 71
M  V30 73 1 1 72
M  V30 74 1 2 73
M  V30 75 1 3 74
M  V30 76 1 3 75
M  V30 77 1 3 76
M  V30 78 1 4 77
M  V30 79 1 4 78
M  V30 80 1 5 79 CFG=3
M  V30 81 1 6 80
M  V30 82 1 9 81 CFG=1
M  V30 83 1 10 82
M  V30 84 1 10 83
M  V30 85 1 11 84
M  V30 86 1 11 85
M  V30 87 1 13 86
M  V30 88 1 17 87
M  V30 89 1 18 88
M  V30 90 1 18 89
M  V30 91 1 21 90
M  V30 92 1 22 91 CFG=3
M  V30 93 1 23 92
M  V30 94 1 23 93
M  V30 95 1 24 94
M  V30 96 1 24 95
M  V30 97 1 26 96
M  V30 98 1 30 97
M  V30 99 1 31 98 CFG=1
M  V30 100 1 32 99
M  V30 101 1 32 100
M  V30 102 1 33 101
M  V30 103 1 33 102
M  V30 104 1 35 103
M  V30 105 1 39 104
M  V30 106 1 40 105 CFG=1
M  V30 107 1 41 106
M  V30 108 1 41 107
M  V30 109 1 43 108
M  V30 110 1 44 109
M  V30 111 1 45 110
M  V30 112 1 49 111
M  V30 113 1 50 112 CFG=3
M  V30 114 1 51 113
M  V30 115 1 51 114
M  V30 116 1 53 115
M  V30 117 1 54 116
M  V30 118 1 55 117
M  V30 119 1 56 118
M  V30 120 1 57 119
M  V30 121 1 60 120
M  V30 122 1 61 121 CFG=1
M  V30 123 1 62 122
M  V30 124 1 62 123
M  V30 125 1 63 124
M  V30 126 1 63 125
M  V30 127 1 64 126
M  V30 128 1 64 127
M  V30 129 1 65 128
M  V30 130 1 65 129
M  V30 131 1 66 130
M  V30 132 1 66 131
M  V30 133 1 68 132
M  V30 END BOND
M  V30 END CTAB
M  END
