
     RDKit          3D

  0  0  0  0  0  0  0  0  0  0999 V3000
M  V30 BEGIN CTAB
M  V30 COUNTS 40 42 0 0 0
M  V30 BEGIN ATOM
M  V30 1 C 8.17228 0.0716948 1.13793 0
M  V30 2 O 6.7784 0.055816 0.88042 0
M  V30 3 C 6.23982 -0.0651122 -0.390781 0
M  V30 4 O 7.04065 -0.164777 -1.3533 0
M  V30 5 C 4.79396 -0.0746373 -0.586939 0
M  V30 6 C 4.23328 -0.193724 -1.84119 0
M  V30 7 C 2.87342 -0.204362 -2.04288 0
M  V30 8 C 1.97225 -0.0931065 -0.968637 0
M  V30 9 C 0.538672 -0.109304 -1.23231 0
M  V30 10 C -0.32575 -0.00897624 -0.266794 0
M  V30 11 C -1.75 -0.0263949 -0.542293 0
M  V30 12 C -2.62249 0.0858449 0.544348 0
M  V30 13 C -3.98857 0.0766901 0.357139 0
M  V30 14 C -4.54405 -0.0417785 -0.891059 0
M  V30 15 C -3.70343 -0.152646 -1.96585 0
M  V30 16 C -2.32649 -0.143293 -1.77587 0
M  V30 17 N -5.88923 -0.0444221 -1.01035 0
M  V30 18 C -6.71726 0.064225 0.0425831 0
M  V30 19 N -8.12898 0.0592231 -0.105468 0
M  V30 20 N -6.14669 0.180487 1.26925 0
M  V30 21 C -4.82498 0.189663 1.45368 0
M  V30 22 N -4.21852 0.310728 2.73201 0
M  V30 23 C 2.524 0.0252195 0.277241 0
M  V30 24 C 3.91641 0.0344831 0.467096 0
M  V30 25 H 8.50277 1.04236 1.58138 0
M  V30 26 H 8.72019 -0.0203886 0.176346 0
M  V30 27 H 8.49075 -0.794059 1.75449 0
M  V30 28 H 4.94524 -0.279746 -2.67082 0
M  V30 29 H 2.4525 -0.298766 -3.03553 0
M  V30 30 H 0.188679 -0.206679 -2.25092 0
M  V30 31 H -0.010084 0.0894154 0.759776 0
M  V30 32 H -2.21717 0.180388 1.53778 0
M  V30 33 H -4.12474 -0.247241 -2.9609 0
M  V30 34 H -1.71206 -0.23352 -2.65544 0
M  V30 35 H -8.65096 -0.767107 0.24746 0
M  V30 36 H -8.67384 0.827286 -0.543338 0
M  V30 37 H -4.00244 1.21904 3.15917 0
M  V30 38 H -3.99695 -0.58869 3.22994 0
M  V30 39 H 1.88291 0.115719 1.15733 0
M  V30 40 H 4.3085 0.13044 1.47369 0
M  V30 END ATOM
M  V30 BEGIN BOND
M  V30 1 1 1 2
M  V30 2 1 2 3
M  V30 3 2 3 4
M  V30 4 1 3 5
M  V30 5 2 5 6
M  V30 6 1 6 7
M  V30 7 2 7 8
M  V30 8 1 8 9
M  V30 9 2 9 10 CFG=2
M  V30 10 1 10 11
M  V30 11 2 11 12
M  V30 12 1 12 13
M  V30 13 2 13 14
M  V30 14 1 14 15
M  V30 15 2 15 16
M  V30 16 1 14 17
M  V30 17 2 17 18
M  V30 18 1 18 19
M  V30 19 1 18 20
M  V30 20 2 20 21
M  V30 21 1 21 22
M  V30 22 1 8 23
M  V30 23 2 23 24
M  V30 24 1 24 5
M  V30 25 1 16 11
M  V30 26 1 21 13
M  V30 27 1 1 25
M  V30 28 1 1 26
M  V30 29 1 1 27
M  V30 30 1 6 28
M  V30 31 1 7 29
M  V30 32 1 9 30
M  V30 33 1 10 31
M  V30 34 1 12 32
M  V30 35 1 15 33
M  V30 36 1 16 34
M  V30 37 1 19 35
M  V30 38 1 19 36
M  V30 39 1 22 37
M  V30 40 1 22 38
M  V30 41 1 23 39
M  V30 42 1 24 40
M  V30 END BOND
M  V30 END CTAB
M  END
