
     RDKit          3D

  0  0  0  0  0  0  0  0  0  0999 V3000
M  V30 BEGIN CTAB
M  V30 COUNTS 31 32 0 0 0
M  V30 BEGIN ATOM
M  V30 1 C -3.26099 2.17641 -0.200893 0
M  V30 2 O -3.31217 0.82869 0.191226 0
M  V30 3 C -2.15638 0.059736 0.232592 0
M  V30 4 C -0.94039 0.619404 -0.114092 0
M  V30 5 C 0.204871 -0.157458 -0.0688464 0
M  V30 6 C 0.0896047 -1.46995 0.323087 0
M  V30 7 C -1.1166 -2.03298 0.669224 0
M  V30 8 C -2.2521 -1.25876 0.623228 0
M  V30 9 O -3.49443 -1.76188 0.957844 0
M  V30 10 C -3.64824 -3.10876 1.3655 0
M  V30 11 C 1.51259 0.37277 -0.421239 0
M  V30 12 N 1.73633 1.63706 -0.816116 0
M  V30 13 C 2.97476 2.08335 -1.13389 0
M  V30 14 N 3.20569 3.4247 -1.55184 0
M  V30 15 N 3.98472 1.20243 -1.03812 0
M  V30 16 C 3.82166 -0.0642345 -0.651905 0
M  V30 17 N 2.56555 -0.450587 -0.348498 0
M  V30 18 N 4.91167 -0.975035 -0.559927 0
M  V30 19 H -2.43853 2.74415 0.279135 0
M  V30 20 H -4.2093 2.67637 0.128874 0
M  V30 21 H -3.26011 2.29802 -1.31964 0
M  V30 22 H -0.863803 1.65219 -0.420323 0
M  V30 23 H 0.967609 -2.13241 0.376842 0
M  V30 24 H -1.18783 -3.08401 0.979842 0
M  V30 25 H -4.71638 -3.43193 1.26383 0
M  V30 26 H -3.27131 -3.27247 2.40137 0
M  V30 27 H -3.08003 -3.78644 0.684343 0
M  V30 28 H 3.53122 4.08701 -0.813638 0
M  V30 29 H 3.07308 3.76436 -2.51102 0
M  V30 30 H 5.58586 -1.12856 -1.34045 0
M  V30 31 H 5.04339 -1.51117 0.321812 0
M  V30 END ATOM
M  V30 BEGIN BOND
M  V30 1 1 1 2
M  V30 2 1 2 3
M  V30 3 2 3 4
M  V30 4 1 4 5
M  V30 5 2 5 6
M  V30 6 1 6 7
M  V30 7 2 7 8
M  V30 8 1 8 9
M  V30 9 1 9 10
M  V30 10 1 5 11
M  V30 11 2 11 12
M  V30 12 1 12 13
M  V30 13 1 13 14
M  V30 14 2 13 15
M  V30 15 1 15 16
M  V30 16 2 16 17
M  V30 17 1 16 18
M  V30 18 1 8 3
M  V30 19 1 17 11
M  V30 20 1 1 19
M  V30 21 1 1 20
M  V30 22 1 1 21
M  V30 23 1 4 22
M  V30 24 1 6 23
M  V30 25 1 7 24
M  V30 26 1 10 25
M  V30 27 1 10 26
M  V30 28 1 10 27
M  V30 29 1 14 28
M  V30 30 1 14 29
M  V30 31 1 18 30
M  V30 32 1 18 31
M  V30 END BOND
M  V30 END CTAB
M  END
