
     RDKit          3D

  0  0  0  0  0  0  0  0  0  0999 V3000
M  V30 BEGIN CTAB
M  V30 COUNTS 172 179 0 0 0
M  V30 BEGIN ATOM
M  V30 1 N -10.4565 0.70404 -2.74932 0
M  V30 2 C -10.9112 1.89817 -2.1694 0
M  V30 3 C -9.85965 2.65785 -1.42417 0
M  V30 4 N -9.18398 2.04907 -0.379342 0
M  V30 5 C -9.73817 1.7159 0.827834 0
M  V30 6 C -10.7279 0.591208 0.9279 0
M  V30 7 N -11.0981 0.462191 2.35749 0
M  V30 8 C -7.94376 1.45853 -0.690671 0
M  V30 9 C -7.22342 0.774469 0.422094 0
M  V30 10 N -5.94804 0.222277 -0.051305 0
M  V30 11 C -5.29287 -0.491435 0.99993 0
M  V30 12 C -3.95939 -1.02347 0.535384 0 CFG=1
M  V30 13 O -4.16364 -1.84226 -0.536364 0
M  V30 14 C -2.98046 -2.45549 -1.03033 0 CFG=2
M  V30 15 O -2.72406 -3.51326 -0.290165 0
M  V30 16 C -1.55299 -4.10886 -0.0990653 0 CFG=2
M  V30 17 C -1.3235 -5.47392 -0.690405 0 CFG=1
M  V30 18 C -1.74226 -5.68817 -2.09254 0
M  V30 19 O -3.11033 -5.58966 -2.32676 0
M  V30 20 O 0.0771432 -5.67056 -0.654867 0
M  V30 21 C 0.636989 -5.35484 0.570599 0 CFG=2
M  V30 22 O 1.69854 -6.226 0.805235 0
M  V30 23 C 2.94663 -5.68582 0.554029 0 CFG=2
M  V30 24 C 3.94186 -6.78377 0.191553 0 CFG=1
M  V30 25 C 3.44563 -7.69106 -0.884114 0
M  V30 26 O 2.19732 -8.24306 -0.640671 0
M  V30 27 O 5.19848 -6.27937 -0.0720619 0
M  V30 28 C 5.37307 -4.98834 0.333118 0 CFG=2
M  V30 29 O 6.658 -4.49386 0.0577667 0
M  V30 30 C 6.62669 -3.13736 -0.0964543 0 CFG=2
M  V30 31 C 6.68556 -2.61185 -1.49238 0 CFG=1
M  V30 32 C 6.08965 -3.45796 -2.55435 0
M  V30 33 O 6.64344 -4.73175 -2.66332 0
M  V30 34 O 6.05657 -1.36554 -1.52128 0
M  V30 35 C 6.33244 -0.628315 -0.372082 0 CFG=2
M  V30 36 O 6.24754 0.719406 -0.714965 0
M  V30 37 C 5.69737 1.45656 0.329817 0 CFG=2
M  V30 38 C 4.34916 2.02253 0.0553011 0 CFG=1
M  V30 39 C 3.23703 1.01517 -0.0394725 0
M  V30 40 O 2.99533 0.308933 1.11081 0
M  V30 41 O 4.07783 2.97741 1.04234 0
M  V30 42 C 4.66758 4.17362 0.622893 0 CFG=2
M  V30 43 O 3.89104 4.68836 -0.382163 0
M  V30 44 C 3.1644 5.81599 -0.0273121 0 CFG=2
M  V30 45 C 2.20105 5.59884 1.08776 0 CFG=1
M  V30 46 C 2.10395 6.82351 2.00432 0
M  V30 47 O 3.37907 7.24835 2.36924 0
M  V30 48 O 0.951431 5.14041 0.703125 0
M  V30 49 C 0.373161 5.93085 -0.254212 0 CFG=2
M  V30 50 O -0.989976 5.71903 -0.401128 0
M  V30 51 C -1.42862 4.50401 0.118803 0 CFG=2
M  V30 52 C -2.53477 4.00902 -0.81292 0 CFG=1
M  V30 53 C -2.18181 4.22723 -2.26347 0
M  V30 54 O -3.22286 3.78501 -3.04174 0
M  V30 55 O -2.75756 2.68712 -0.532101 0
M  V30 56 C -2.53211 2.32934 0.773723 0 CFG=2
M  V30 57 O -3.07336 1.12312 1.13231 0
M  V30 58 C -3.11316 0.193234 0.138075 0 CFG=1
M  V30 59 C -1.74243 -0.421033 -0.189449 0 CFG=2
M  V30 60 O -0.873151 0.539451 -0.727024 0
M  V30 61 C -2.02504 -1.38377 -1.3165 0 CFG=1
M  V30 62 O -0.872867 -1.76233 -1.99161 0
M  V30 63 C -2.97749 3.44303 1.73893 0 CFG=2
M  V30 64 O -4.31084 3.72973 1.59187 0
M  V30 65 C -2.08091 4.64459 1.47374 0 CFG=1
M  V30 66 O -1.21458 4.73491 2.52957 0
M  V30 67 C 1.15788 5.72611 -1.53493 0 CFG=2
M  V30 68 O 1.42994 4.36621 -1.76214 0
M  V30 69 C 2.53158 6.3616 -1.2805 0 CFG=1
M  V30 70 O 2.43569 7.74831 -1.26946 0
M  V30 71 C 6.11386 3.92853 0.190735 0 CFG=2
M  V30 72 O 6.27043 4.06882 -1.18841 0
M  V30 73 C 6.6147 2.59989 0.707245 0 CFG=1
M  V30 74 O 6.77798 2.72301 2.08491 0
M  V30 75 C 7.67342 -0.947474 0.237019 0 CFG=2
M  V30 76 O 8.72324 -0.539896 -0.554581 0
M  V30 77 C 7.74723 -2.40109 0.645812 0 CFG=1
M  V30 78 O 7.74524 -2.60701 1.99697 0
M  V30 79 C 4.97427 -4.87478 1.76911 0 CFG=2
M  V30 80 O 5.53168 -5.88803 2.54292 0
M  V30 81 C 3.446 -5.03462 1.83244 0 CFG=1
M  V30 82 O 2.83528 -3.81473 2.0358 0
M  V30 83 C -0.350863 -5.38391 1.71815 0 CFG=2
M  V30 84 O -0.764095 -6.64794 2.07187 0
M  V30 85 C -1.45364 -4.41355 1.41847 0 CFG=1
M  V30 86 O -1.35174 -3.29187 2.18701 0
M  V30 87 H -10.3021 -0.0390944 -2.1348 0
M  V30 88 H -10.7765 0.499654 -3.65845 0
M  V30 89 H -11.8251 1.77403 -1.61952 0
M  V30 90 H -11.235 2.52516 -3.0877 0
M  V30 91 H -9.13116 3.01833 -2.23275 0
M  V30 92 H -10.314 3.66357 -1.10948 0
M  V30 93 H -10.236 2.65134 1.30919 0
M  V30 94 H -8.91761 1.52049 1.59766 0
M  V30 95 H -10.3281 -0.36447 0.579058 0
M  V30 96 H -11.6557 0.821769 0.378437 0
M  V30 97 H -11.9093 -0.187159 2.47485 0
M  V30 98 H -10.2797 0.143065 2.88553 0
M  V30 99 H -8.11337 0.718662 -1.51255 0
M  V30 100 H -7.25446 2.26088 -1.10278 0
M  V30 101 H -6.9484 1.50876 1.23449 0
M  V30 102 H -7.81973 -0.0120815 0.877737 0
M  V30 103 H -5.42313 1.01243 -0.433051 0
M  V30 104 H -5.95475 -1.28432 1.39967 0
M  V30 105 H -5.12266 0.246264 1.83655 0
M  V30 106 H -3.48786 -1.5411 1.40583 0
M  V30 107 H -3.35487 -2.80554 -2.06075 0
M  V30 108 H -0.643927 -3.49816 -0.283375 0
M  V30 109 H -1.85558 -6.23395 -0.0724461 0
M  V30 110 H -1.15916 -5.07806 -2.83228 0
M  V30 111 H -1.46501 -6.74561 -2.35365 0
M  V30 112 H -3.19466 -5.32797 -3.2961 0
M  V30 113 H 1.06004 -4.32899 0.562611 0
M  V30 114 H 2.83191 -4.98785 -0.288018 0
M  V30 115 H 4.03384 -7.40163 1.13144 0
M  V30 116 H 3.48007 -7.19935 -1.89155 0
M  V30 117 H 4.15708 -8.54756 -0.941598 0
M  V30 118 H 1.96716 -8.90262 -1.32333 0
M  V30 119 H 4.70463 -4.2874 -0.249203 0
M  V30 120 H 5.69066 -2.78796 0.437081 0
M  V30 121 H 7.75382 -2.44544 -1.76135 0
M  V30 122 H 6.33848 -2.95715 -3.53697 0
M  V30 123 H 4.9793 -3.48938 -2.54094 0
M  V30 124 H 7.51341 -4.80079 -2.23315 0
M  V30 125 H 5.58261 -0.774759 0.433164 0
M  V30 126 H 5.61578 0.801977 1.22778 0
M  V30 127 H 4.3472 2.55913 -0.940723 0
M  V30 128 H 3.39811 0.393378 -0.933673 0
M  V30 129 H 2.30437 1.60939 -0.257361 0
M  V30 130 H 2.99326 -0.66752 0.856707 0
M  V30 131 H 4.73944 4.83266 1.51569 0
M  V30 132 H 3.91749 6.57131 0.327196 0
M  V30 133 H 2.59899 4.79889 1.76843 0
M  V30 134 H 1.52747 6.54138 2.9217 0
M  V30 135 H 1.59957 7.67126 1.54909 0
M  V30 136 H 3.55856 8.17356 2.09397 0
M  V30 137 H 0.484291 7.0047 -1.71073e-05 0
M  V30 138 H -0.550485 3.84418 0.126929 0
M  V30 139 H -3.42743 4.64544 -0.600709 0
M  V30 140 H -1.95285 5.2791 -2.4488 0
M  V30 141 H -1.30393 3.55731 -2.4757 0
M  V30 142 H -3.98843 4.39507 -3.10313 0
M  V30 143 H -1.42322 2.23335 0.975103 0
M  V30 144 H -3.50618 0.526454 -0.837283 0
M  V30 145 H -1.34304 -0.866451 0.716832 0
M  V30 146 H -0.0537408 0.61562 -0.151074 0
M  V30 147 H -2.5403 -0.71387 -2.08595 0
M  V30 148 H -0.0697022 -1.44009 -1.50598 0
M  V30 149 H -2.82595 3.0229 2.75433 0
M  V30 150 H -4.7381 3.06561 0.9742 0
M  V30 151 H -2.69841 5.58618 1.47924 0
M  V30 152 H -1.16632 5.6151 2.97707 0
M  V30 153 H 0.719876 6.21483 -2.40267 0
M  V30 154 H 1.60932 3.90491 -0.928625 0
M  V30 155 H 3.15761 6.08178 -2.15032 0
M  V30 156 H 3.17613 8.18056 -1.76926 0
M  V30 157 H 6.80503 4.69896 0.638748 0
M  V30 158 H 7.14811 4.40806 -1.45523 0
M  V30 159 H 7.60733 2.43138 0.231636 0
M  V30 160 H 7.68197 2.57058 2.39945 0
M  V30 161 H 7.7294 -0.358277 1.18446 0
M  V30 162 H 9.56958 -0.752622 -0.123859 0
M  V30 163 H 8.69612 -2.7985 0.188921 0
M  V30 164 H 7.96675 -3.55011 2.16802 0
M  V30 165 H 5.17546 -3.88035 2.20783 0
M  V30 166 H 5.81269 -5.48188 3.4152 0
M  V30 167 H 3.16253 -5.70683 2.66677 0
M  V30 168 H 2.31927 -3.79605 2.90175 0
M  V30 169 H 0.220437 -4.99201 2.60067 0
M  V30 170 H -0.325475 -7.37632 1.52571 0
M  V30 171 H -2.41365 -4.95031 1.67833 0
M  V30 172 H -0.860487 -3.53684 3.02175 0
M  V30 END ATOM
M  V30 BEGIN BOND
M  V30 1 1 1 2
M  V30 2 1 2 3
M  V30 3 1 3 4
M  V30 4 1 4 5
M  V30 5 1 5 6
M  V30 6 1 6 7
M  V30 7 1 4 8
M  V30 8 1 8 9
M  V30 9 1 9 10
M  V30 10 1 10 11
M  V30 11 1 11 12
M  V30 12 1 12 13
M  V30 13 1 13 14
M  V30 14 1 14 15
M  V30 15 1 15 16
M  V30 16 1 16 17
M  V30 17 1 17 18
M  V30 18 1 18 19
M  V30 19 1 17 20
M  V30 20 1 20 21
M  V30 21 1 21 22
M  V30 22 1 22 23
M  V30 23 1 23 24
M  V30 24 1 24 25
M  V30 25 1 25 26
M  V30 26 1 24 27
M  V30 27 1 27 28
M  V30 28 1 28 29
M  V30 29 1 29 30
M  V30 30 1 30 31
M  V30 31 1 31 32
M  V30 32 1 32 33
M  V30 33 1 31 34
M  V30 34 1 34 35
M  V30 35 1 35 36
M  V30 36 1 36 37
M  V30 37 1 37 38
M  V30 38 1 38 39
M  V30 39 1 39 40
M  V30 40 1 38 41
M  V30 41 1 41 42
M  V30 42 1 42 43
M  V30 43 1 43 44
M  V30 44 1 44 45
M  V30 45 1 45 46
M  V30 46 1 46 47
M  V30 47 1 45 48
M  V30 48 1 48 49
M  V30 49 1 49 50
M  V30 50 1 50 51
M  V30 51 1 51 52
M  V30 52 1 52 53
M  V30 53 1 53 54
M  V30 54 1 52 55
M  V30 55 1 55 56
M  V30 56 1 56 57
M  V30 57 1 57 58
M  V30 58 1 58 59
M  V30 59 1 59 60
M  V30 60 1 59 61
M  V30 61 1 61 62
M  V30 62 1 56 63
M  V30 63 1 63 64
M  V30 64 1 63 65
M  V30 65 1 65 66
M  V30 66 1 49 67
M  V30 67 1 67 68
M  V30 68 1 67 69
M  V30 69 1 69 70
M  V30 70 1 42 71
M  V30 71 1 71 72
M  V30 72 1 71 73
M  V30 73 1 73 74
M  V30 74 1 35 75
M  V30 75 1 75 76
M  V30 76 1 75 77
M  V30 77 1 77 78
M  V30 78 1 28 79
M  V30 79 1 79 80
M  V30 80 1 79 81
M  V30 81 1 81 82
M  V30 82 1 21 83
M  V30 83 1 83 84
M  V30 84 1 83 85
M  V30 85 1 85 86
M  V30 86 1 58 12
M  V30 87 1 61 14
M  V30 88 1 85 16
M  V30 89 1 81 23
M  V30 90 1 77 30
M  V30 91 1 73 37
M  V30 92 1 69 44
M  V30 93 1 65 51
M  V30 94 1 1 87
M  V30 95 1 1 88
M  V30 96 1 2 89
M  V30 97 1 2 90
M  V30 98 1 3 91
M  V30 99 1 3 92
M  V30 100 1 5 93
M  V30 101 1 5 94
M  V30 102 1 6 95
M  V30 103 1 6 96
M  V30 104 1 7 97
M  V30 105 1 7 98
M  V30 106 1 8 99
M  V30 107 1 8 100
M  V30 108 1 9 101
M  V30 109 1 9 102
M  V30 110 1 10 103
M  V30 111 1 11 104
M  V30 112 1 11 105
M  V30 113 1 12 106 CFG=1
M  V30 114 1 14 107 CFG=3
M  V30 115 1 16 108 CFG=3
M  V30 116 1 17 109 CFG=1
M  V30 117 1 18 110
M  V30 118 1 18 111
M  V30 119 1 19 112
M  V30 120 1 21 113 CFG=3
M  V30 121 1 23 114 CFG=3
M  V30 122 1 24 115 CFG=1
M  V30 123 1 25 116
M  V30 124 1 25 117
M  V30 125 1 26 118
M  V30 126 1 28 119 CFG=3
M  V30 127 1 30 120 CFG=1
M  V30 128 1 31 121 CFG=3
M  V30 129 1 32 122
M  V30 130 1 32 123
M  V30 131 1 33 124
M  V30 132 1 35 125 CFG=1
M  V30 133 1 37 126 CFG=1
M  V30 134 1 38 127 CFG=3
M  V30 135 1 39 128
M  V30 136 1 39 129
M  V30 137 1 40 130
M  V30 138 1 42 131 CFG=1
M  V30 139 1 44 132 CFG=1
M  V30 140 1 45 133 CFG=1
M  V30 141 1 46 134
M  V30 142 1 46 135
M  V30 143 1 47 136
M  V30 144 1 49 137 CFG=1
M  V30 145 1 51 138 CFG=1
M  V30 146 1 52 139 CFG=1
M  V30 147 1 53 140
M  V30 148 1 53 141
M  V30 149 1 54 142
M  V30 150 1 56 143 CFG=3
M  V30 151 1 58 144 CFG=3
M  V30 152 1 59 145 CFG=1
M  V30 153 1 60 146
M  V30 154 1 61 147 CFG=3
M  V30 155 1 62 148
M  V30 156 1 63 149 CFG=1
M  V30 157 1 64 150
M  V30 158 1 65 151 CFG=3
M  V30 159 1 66 152
M  V30 160 1 67 153 CFG=3
M  V30 161 1 68 154
M  V30 162 1 69 155 CFG=3
M  V30 163 1 70 156
M  V30 164 1 71 157 CFG=1
M  V30 165 1 72 158
M  V30 166 1 73 159 CFG=3
M  V30 167 1 74 160
M  V30 168 1 75 161 CFG=1
M  V30 169 1 76 162
M  V30 170 1 77 163 CFG=3
M  V30 171 1 78 164
M  V30 172 1 79 165 CFG=1
M  V30 173 1 80 166
M  V30 174 1 81 167 CFG=1
M  V30 175 1 82 168
M  V30 176 1 83 169 CFG=1
M  V30 177 1 84 170
M  V30 178 1 85 171 CFG=1
M  V30 179 1 86 172
M  V30 END BOND
M  V30 END CTAB
M  END
