
     RDKit          3D

  0  0  0  0  0  0  0  0  0  0999 V3000
M  V30 BEGIN CTAB
M  V30 COUNTS 30 31 0 0 0
M  V30 BEGIN ATOM
M  V30 1 C -1.18003 2.53301 0.179251 0
M  V30 2 C -1.08773 1.46613 1.23766 0
M  V30 3 C -1.34239 0.108835 0.69702 0
M  V30 4 C -0.328583 -0.522773 0.0318256 0
M  V30 5 C -0.618172 -1.79003 -0.472499 0
M  V30 6 N 0.425667 -2.45519 -1.16865 0
M  V30 7 N -1.83702 -2.32622 -0.293602 0
M  V30 8 C -2.82883 -1.70263 0.360805 0
M  V30 9 N -4.11455 -2.31503 0.530998 0
M  V30 10 N -2.56938 -0.482175 0.853133 0
M  V30 11 C 1.01211 0.00249655 -0.181338 0
M  V30 12 C 1.91742 -0.00173275 0.89159 0
M  V30 13 C 3.20702 0.453211 0.779995 0
M  V30 14 C 3.61563 0.929888 -0.440179 0
M  V30 15 Cl 5.2488 1.51158 -0.607744 0
M  V30 16 C 2.76046 0.954175 -1.52675 0
M  V30 17 C 1.47976 0.491177 -1.3742 0
M  V30 18 H -0.220868 2.82834 -0.269067 0
M  V30 19 H -1.84481 2.19111 -0.66279 0
M  V30 20 H -1.59277 3.46692 0.662163 0
M  V30 21 H -1.82286 1.68925 2.05188 0
M  V30 22 H -0.0695931 1.52242 1.67823 0
M  V30 23 H 1.19559 -2.96263 -0.727608 0
M  V30 24 H 0.373328 -2.40158 -2.21671 0
M  V30 25 H -4.51569 -2.56239 1.46536 0
M  V30 26 H -4.6719 -2.5219 -0.309388 0
M  V30 27 H 1.6095 -0.376554 1.86668 0
M  V30 28 H 3.8813 0.431225 1.64952 0
M  V30 29 H 3.1399 1.34045 -2.46131 0
M  V30 30 H 0.778698 0.500639 -2.22428 0
M  V30 END ATOM
M  V30 BEGIN BOND
M  V30 1 1 1 2
M  V30 2 1 2 3
M  V30 3 2 3 4
M  V30 4 1 4 5
M  V30 5 1 5 6
M  V30 6 2 5 7
M  V30 7 1 7 8
M  V30 8 1 8 9
M  V30 9 2 8 10
M  V30 10 1 4 11
M  V30 11 2 11 12
M  V30 12 1 12 13
M  V30 13 2 13 14
M  V30 14 1 14 15
M  V30 15 1 14 16
M  V30 16 2 16 17
M  V30 17 1 10 3
M  V30 18 1 17 11
M  V30 19 1 1 18
M  V30 20 1 1 19
M  V30 21 1 1 20
M  V30 22 1 2 21
M  V30 23 1 2 22
M  V30 24 1 6 23
M  V30 25 1 6 24
M  V30 26 1 9 25
M  V30 27 1 9 26
M  V30 28 1 12 27
M  V30 29 1 13 28
M  V30 30 1 16 29
M  V30 31 1 17 30
M  V30 END BOND
M  V30 END CTAB
M  END
