
     RDKit          3D

  0  0  0  0  0  0  0  0  0  0999 V3000
M  V30 BEGIN CTAB
M  V30 COUNTS 31 33 0 0 0
M  V30 BEGIN ATOM
M  V30 1 N -4.33606 -2.32275 0.936925 0
M  V30 2 C -3.66998 -1.13317 0.562429 0
M  V30 3 N -2.5927 -0.698083 1.24622 0
M  V30 4 C -1.93326 0.423148 0.92438 0
M  V30 5 N -2.3792 1.1278 -0.124951 0
M  V30 6 C -3.45991 0.755016 -0.866082 0
M  V30 7 N -4.07209 -0.387088 -0.479627 0
M  V30 8 N -3.90834 1.51863 -1.96893 0
M  V30 9 C -0.765337 0.841046 1.71228 0
M  V30 10 N 0.481216 0.324076 1.2379 0
M  V30 11 C 0.961078 -0.851387 1.6841 0
M  V30 12 N 2.12384 -1.38222 1.2729 0
M  V30 13 C 2.90774 -0.747787 0.356654 0
M  V30 14 C 2.45032 0.459876 -0.124817 0
M  V30 15 C 1.23696 0.970814 0.331962 0
M  V30 16 O 0.835319 2.06081 -0.10986 0
M  V30 17 C 3.20622 1.1519 -1.06003 0
M  V30 18 C 4.39942 0.614816 -1.48691 0
M  V30 19 C 4.83793 -0.592125 -0.993659 0
M  V30 20 C 4.09446 -1.26906 -0.076217 0
M  V30 21 H -4.12571 -2.74506 1.85728 0
M  V30 22 H -5.02611 -2.78301 0.319912 0
M  V30 23 H -3.67908 2.52017 -2.02418 0
M  V30 24 H -4.46223 1.07548 -2.71452 0
M  V30 25 H -0.851603 0.541338 2.79434 0
M  V30 26 H -0.658991 1.96161 1.75253 0
M  V30 27 H 0.372938 -1.39123 2.41265 0
M  V30 28 H 2.82277 2.09689 -1.42026 0
M  V30 29 H 5.01878 1.11918 -2.21283 0
M  V30 30 H 5.77822 -1.03041 -1.32038 0
M  V30 31 H 4.39339 -2.22921 0.348506 0
M  V30 END ATOM
M  V30 BEGIN BOND
M  V30 1 1 1 2
M  V30 2 2 2 3
M  V30 3 1 3 4
M  V30 4 2 4 5
M  V30 5 1 5 6
M  V30 6 2 6 7
M  V30 7 1 6 8
M  V30 8 1 4 9
M  V30 9 1 9 10
M  V30 10 1 10 11
M  V30 11 2 11 12
M  V30 12 1 12 13
M  V30 13 2 13 14
M  V30 14 1 14 15
M  V30 15 2 15 16
M  V30 16 1 14 17
M  V30 17 2 17 18
M  V30 18 1 18 19
M  V30 19 2 19 20
M  V30 20 1 7 2
M  V30 21 1 15 10
M  V30 22 1 20 13
M  V30 23 1 1 21
M  V30 24 1 1 22
M  V30 25 1 8 23
M  V30 26 1 8 24
M  V30 27 1 9 25
M  V30 28 1 9 26
M  V30 29 1 11 27
M  V30 30 1 17 28
M  V30 31 1 18 29
M  V30 32 1 19 30
M  V30 33 1 20 31
M  V30 END BOND
M  V30 END CTAB
M  END
