
     RDKit          3D

  0  0  0  0  0  0  0  0  0  0999 V3000
M  V30 BEGIN CTAB
M  V30 COUNTS 38 40 0 0 0
M  V30 BEGIN ATOM
M  V30 1 C 5.69105 1.10319 -0.940304 0
M  V30 2 C 5.18362 0.343091 0.231313 0
M  V30 3 O 6.00099 -0.0508144 1.09792 0
M  V30 4 C 3.7643 0.0683849 0.357946 0
M  V30 5 N 2.89303 0.488964 -0.566965 0
M  V30 6 C 1.57031 0.248111 -0.474738 0
M  V30 7 C 1.10593 -0.451809 0.604792 0
M  V30 8 N 1.95203 -0.899908 1.5705 0
M  V30 9 C 3.27689 -0.63454 1.43706 0
M  V30 10 N 4.22451 -1.0658 2.39851 0
M  V30 11 N -0.220601 -0.683228 0.680092 0
M  V30 12 C -1.05421 -0.24591 -0.264217 0
M  V30 13 N -0.610832 0.440325 -1.32551 0
M  V30 14 C 0.702163 0.689911 -1.43498 0
M  V30 15 N 1.13806 1.42263 -2.57718 0
M  V30 16 N -2.46411 -0.476235 -0.210684 0
M  V30 17 C -2.9698 -1.21601 0.92654 0
M  V30 18 C -4.46131 -1.27948 0.862354 0
M  V30 19 C -5.00338 0.117102 0.693728 0
M  V30 20 C -4.5764 0.692827 -0.637594 0
M  V30 21 C -3.38019 -0.0186752 -1.20885 0
M  V30 22 H 6.06864 2.1004 -0.613285 0
M  V30 23 H 6.48083 0.541456 -1.48552 0
M  V30 24 H 4.86172 1.26374 -1.66789 0
M  V30 25 H 4.46777 -0.453778 3.19844 0
M  V30 26 H 4.67969 -1.99138 2.31051 0
M  V30 27 H 1.03273 1.00573 -3.50734 0
M  V30 28 H 1.5494 2.35356 -2.45068 0
M  V30 29 H -2.48917 -2.21466 0.953405 0
M  V30 30 H -2.70142 -0.607735 1.83458 0
M  V30 31 H -4.87182 -1.67834 1.8252 0
M  V30 32 H -4.80663 -1.88033 -0.0017363 0
M  V30 33 H -4.60452 0.763061 1.4998 0
M  V30 34 H -6.10699 0.0582084 0.799426 0
M  V30 35 H -4.35481 1.77022 -0.565145 0
M  V30 36 H -5.42814 0.501983 -1.35023 0
M  V30 37 H -2.84201 0.713705 -1.86055 0
M  V30 38 H -3.69729 -0.837957 -1.91842 0
M  V30 END ATOM
M  V30 BEGIN BOND
M  V30 1 1 1 2
M  V30 2 2 2 3
M  V30 3 1 2 4
M  V30 4 2 4 5
M  V30 5 1 5 6
M  V30 6 2 6 7
M  V30 7 1 7 8
M  V30 8 2 8 9
M  V30 9 1 9 10
M  V30 10 1 7 11
M  V30 11 2 11 12
M  V30 12 1 12 13
M  V30 13 2 13 14
M  V30 14 1 14 15
M  V30 15 1 12 16
M  V30 16 1 16 17
M  V30 17 1 17 18
M  V30 18 1 18 19
M  V30 19 1 19 20
M  V30 20 1 20 21
M  V30 21 1 9 4
M  V30 22 1 21 16
M  V30 23 1 14 6
M  V30 24 1 1 22
M  V30 25 1 1 23
M  V30 26 1 1 24
M  V30 27 1 10 25
M  V30 28 1 10 26
M  V30 29 1 15 27
M  V30 30 1 15 28
M  V30 31 1 17 29
M  V30 32 1 17 30
M  V30 33 1 18 31
M  V30 34 1 18 32
M  V30 35 1 19 33
M  V30 36 1 19 34
M  V30 37 1 20 35
M  V30 38 1 20 36
M  V30 39 1 21 37
M  V30 40 1 21 38
M  V30 END BOND
M  V30 END CTAB
M  END
