
     RDKit          3D

  0  0  0  0  0  0  0  0  0  0999 V3000
M  V30 BEGIN CTAB
M  V30 COUNTS 76 76 0 0 0
M  V30 BEGIN ATOM
M  V30 1 N 8.43698 -0.690897 0.552377 0
M  V30 2 C 7.07424 -0.436241 0.0159264 0
M  V30 3 C 6.83093 1.02116 0.169601 0
M  V30 4 C 5.57916 1.5806 -0.339503 0
M  V30 5 C 4.27648 1.23967 0.202368 0
M  V30 6 C 3.75399 -0.159525 0.16158 0 CFG=1
M  V30 7 C 2.38693 -0.11006 0.742421 0
M  V30 8 O 2.36904 0.368305 1.94285 0
M  V30 9 N 1.15655 -0.484207 0.220469 0
M  V30 10 C 1.00147 -1.02682 -1.09809 0
M  V30 11 C 1.02058 -2.54948 -1.1323 0
M  V30 12 C 0.782444 -2.97056 -2.55275 0
M  V30 13 C -0.647027 -3.37175 -2.81411 0
M  V30 14 O -1.50198 -3.00549 -1.78311 0
M  V30 15 C -2.75362 -3.51083 -2.02707 0
M  V30 16 C -3.87582 -2.70314 -1.43387 0 CFG=2
M  V30 17 C -3.62134 -2.21222 -0.0509289 0 CFG=1
M  V30 18 C -3.31935 -0.724988 -0.114643 0 CFG=2
M  V30 19 C -3.03824 -0.142754 1.24724 0
M  V30 20 N -2.16345 0.992117 1.0851 0
M  V30 21 C -0.79675 0.902231 0.64589 0
M  V30 22 C -0.0746237 -0.323189 1.06062 0
M  V30 23 C -2.69201 2.27322 1.38232 0
M  V30 24 O -1.94134 3.27178 1.24146 0
M  V30 25 C -4.08632 2.47343 1.84944 0
M  V30 26 C -4.39609 3.92977 2.09505 0
M  V30 27 C -4.22108 4.74324 0.82756 0
M  V30 28 C -3.56074 4.53949 3.16977 0
M  V30 29 O -4.2978 -0.0365817 -0.815653 0
M  V30 30 O -4.76591 -2.33904 0.752097 0
M  V30 31 O -5.035 -3.512 -1.37642 0
M  V30 32 N 3.90118 -0.675396 -1.13706 0
M  V30 33 H 8.55979 -0.0713869 1.38232 0
M  V30 34 H 9.09623 -0.340326 -0.196842 0
M  V30 35 H 6.38157 -1.04971 0.588932 0
M  V30 36 H 7.05354 -0.694882 -1.05649 0
M  V30 37 H 7.74088 1.59955 -0.237941 0
M  V30 38 H 6.9051 1.29026 1.2809 0
M  V30 39 H 5.60735 1.39818 -1.48396 0
M  V30 40 H 5.70971 2.74506 -0.365281 0
M  V30 41 H 3.49832 1.84464 -0.40205 0
M  V30 42 H 4.15313 1.66461 1.2569 0
M  V30 43 H 4.37486 -0.811533 0.857443 0
M  V30 44 H -0.0924841 -0.789945 -1.38146 0
M  V30 45 H 1.59938 -0.606894 -1.89282 0
M  V30 46 H 1.96059 -2.91687 -0.692107 0
M  V30 47 H 0.208216 -2.93565 -0.464499 0
M  V30 48 H 1.41797 -3.8575 -2.75454 0
M  V30 49 H 1.10485 -2.18838 -3.2901 0
M  V30 50 H -0.763107 -4.4693 -2.96894 0
M  V30 51 H -0.992884 -2.88461 -3.74847 0
M  V30 52 H -2.95626 -3.5711 -3.13189 0
M  V30 53 H -2.82099 -4.55848 -1.62459 0
M  V30 54 H -4.15614 -1.84587 -2.07912 0
M  V30 55 H -2.8048 -2.71936 0.479671 0
M  V30 56 H -2.38312 -0.62499 -0.704216 0
M  V30 57 H -3.95361 0.167671 1.78387 0
M  V30 58 H -2.58832 -0.94923 1.85873 0
M  V30 59 H -0.234598 1.81352 0.932094 0
M  V30 60 H -0.829274 0.915574 -0.48088 0
M  V30 61 H -0.622697 -1.25459 0.989592 0
M  V30 62 H 0.294553 -0.217693 2.0965 0
M  V30 63 H -4.77943 2.11147 1.0644 0
M  V30 64 H -4.32508 1.9195 2.76762 0
M  V30 65 H -5.47158 4.05521 2.38225 0
M  V30 66 H -4.01386 4.02862 0.00522998 0
M  V30 67 H -5.11448 5.34 0.569031 0
M  V30 68 H -3.30581 5.37109 0.91468 0
M  V30 69 H -4.15602 5.33128 3.67679 0
M  V30 70 H -2.65776 5.05461 2.77645 0
M  V30 71 H -3.3002 3.7763 3.92531 0
M  V30 72 H -3.9655 0.378695 -1.65338 0
M  V30 73 H -4.547 -2.2595 1.7142 0
M  V30 74 H -5.12125 -3.91111 -2.27641 0
M  V30 75 H 4.32601 -1.6134 -1.22773 0
M  V30 76 H 4.18274 -0.0133632 -1.87782 0
M  V30 END ATOM
M  V30 BEGIN BOND
M  V30 1 1 1 2
M  V30 2 1 2 3
M  V30 3 1 3 4
M  V30 4 1 4 5
M  V30 5 1 5 6
M  V30 6 1 6 7
M  V30 7 2 7 8
M  V30 8 1 7 9
M  V30 9 1 9 10
M  V30 10 1 10 11
M  V30 11 1 11 12
M  V30 12 1 12 13
M  V30 13 1 13 14
M  V30 14 1 14 15
M  V30 15 1 15 16
M  V30 16 1 16 17
M  V30 17 1 17 18
M  V30 18 1 18 19
M  V30 19 1 19 20
M  V30 20 1 20 21
M  V30 21 1 21 22
M  V30 22 1 20 23
M  V30 23 2 23 24
M  V30 24 1 23 25
M  V30 25 1 25 26
M  V30 26 1 26 27
M  V30 27 1 26 28
M  V30 28 1 18 29
M  V30 29 1 17 30
M  V30 30 1 16 31
M  V30 31 1 6 32
M  V30 32 1 22 9
M  V30 33 1 1 33
M  V30 34 1 1 34
M  V30 35 1 2 35
M  V30 36 1 2 36
M  V30 37 1 3 37
M  V30 38 1 3 38
M  V30 39 1 4 39
M  V30 40 1 4 40
M  V30 41 1 5 41
M  V30 42 1 5 42
M  V30 43 1 6 43 CFG=1
M  V30 44 1 10 44
M  V30 45 1 10 45
M  V30 46 1 11 46
M  V30 47 1 11 47
M  V30 48 1 12 48
M  V30 49 1 12 49
M  V30 50 1 13 50
M  V30 51 1 13 51
M  V30 52 1 15 52
M  V30 53 1 15 53
M  V30 54 1 16 54 CFG=3
M  V30 55 1 17 55 CFG=1
M  V30 56 1 18 56 CFG=3
M  V30 57 1 19 57
M  V30 58 1 19 58
M  V30 59 1 21 59
M  V30 60 1 21 60
M  V30 61 1 22 61
M  V30 62 1 22 62
M  V30 63 1 25 63
M  V30 64 1 25 64
M  V30 65 1 26 65
M  V30 66 1 27 66
M  V30 67 1 27 67
M  V30 68 1 27 68
M  V30 69 1 28 69
M  V30 70 1 28 70
M  V30 71 1 28 71
M  V30 72 1 29 72
M  V30 73 1 30 73
M  V30 74 1 31 74
M  V30 75 1 32 75
M  V30 76 1 32 76
M  V30 END BOND
M  V30 END CTAB
M  END
