
     RDKit          3D

  0  0  0  0  0  0  0  0  0  0999 V3000
M  V30 BEGIN CTAB
M  V30 COUNTS 43 45 0 0 0
M  V30 BEGIN ATOM
M  V30 1 C -3.39899 2.10908 0.417942 0
M  V30 2 C -3.75965 0.639063 0.37759 0
M  V30 3 C -3.58384 0.0617213 1.79017 0
M  V30 4 N -5.13094 0.495918 -0.00102439 0
M  V30 5 C -5.61699 -0.197015 -0.95414 0
M  V30 6 N -7.01827 -0.242235 -1.21217 0
M  V30 7 N -4.72785 -0.939796 -1.77417 0
M  V30 8 C -3.46979 -0.888925 -1.52941 0
M  V30 9 N -2.54696 -1.6453 -2.36195 0
M  V30 10 N -2.91321 -0.122456 -0.472435 0
M  V30 11 C -1.4712 -0.142777 -0.292101 0
M  V30 12 C -0.681284 0.78182 -0.939114 0
M  V30 13 C 0.700857 0.797475 -0.794264 0
M  V30 14 C 1.26471 -0.149425 0.0246216 0
M  V30 15 C 0.504169 -1.09261 0.6898 0
M  V30 16 C -0.863383 -1.07358 0.518965 0
M  V30 17 C 2.71102 -0.126075 0.170622 0
M  V30 18 C 3.91194 -0.123026 0.286152 0
M  V30 19 C 5.34215 -0.110273 0.429492 0
M  V30 20 C 6.07004 0.936136 -0.13977 0
M  V30 21 C 7.44757 1.00135 -0.0343999 0
M  V30 22 C 8.09655 -0.00259576 0.654212 0
M  V30 23 C 7.38493 -1.05677 1.22999 0
M  V30 24 C 6.00413 -1.10818 1.11575 0
M  V30 25 H -4.35043 2.66687 0.648274 0
M  V30 26 H -3.02514 2.49032 -0.534079 0
M  V30 27 H -2.72642 2.28915 1.28262 0
M  V30 28 H -2.55445 0.286635 2.09952 0
M  V30 29 H -3.74131 -1.02557 1.76642 0
M  V30 30 H -4.28696 0.608377 2.43782 0
M  V30 31 H -7.61675 -0.81721 -0.610928 0
M  V30 32 H -7.42362 0.296555 -1.9934 0
M  V30 33 H -2.01664 -2.39716 -1.89924 0
M  V30 34 H -2.41486 -1.45813 -3.35769 0
M  V30 35 H -1.09089 1.53951 -1.58965 0
M  V30 36 H 1.34141 1.5117 -1.29061 0
M  V30 37 H 1.03097 -1.79281 1.30785 0
M  V30 38 H -1.46473 -1.82115 1.04634 0
M  V30 39 H 5.55422 1.72811 -0.683399 0
M  V30 40 H 8.01747 1.79172 -0.462244 0
M  V30 41 H 9.16122 0.0517689 0.733205 0
M  V30 42 H 7.90937 -1.83467 1.76584 0
M  V30 43 H 5.44183 -1.91554 1.55489 0
M  V30 END ATOM
M  V30 BEGIN BOND
M  V30 1 1 1 2
M  V30 2 1 2 3
M  V30 3 1 2 4
M  V30 4 2 4 5
M  V30 5 1 5 6
M  V30 6 1 5 7
M  V30 7 2 7 8
M  V30 8 1 8 9
M  V30 9 1 8 10
M  V30 10 1 10 11
M  V30 11 2 11 12
M  V30 12 1 12 13
M  V30 13 2 13 14
M  V30 14 1 14 15
M  V30 15 2 15 16
M  V30 16 1 14 17
M  V30 17 3 17 18
M  V30 18 1 18 19
M  V30 19 2 19 20
M  V30 20 1 20 21
M  V30 21 2 21 22
M  V30 22 1 22 23
M  V30 23 2 23 24
M  V30 24 1 10 2
M  V30 25 1 16 11
M  V30 26 1 24 19
M  V30 27 1 1 25
M  V30 28 1 1 26
M  V30 29 1 1 27
M  V30 30 1 3 28
M  V30 31 1 3 29
M  V30 32 1 3 30
M  V30 33 1 6 31
M  V30 34 1 6 32
M  V30 35 1 9 33
M  V30 36 1 9 34
M  V30 37 1 12 35
M  V30 38 1 13 36
M  V30 39 1 15 37
M  V30 40 1 16 38
M  V30 41 1 20 39
M  V30 42 1 21 40
M  V30 43 1 22 41
M  V30 44 1 23 42
M  V30 45 1 24 43
M  V30 END BOND
M  V30 END CTAB
M  END
