
     RDKit          3D

  0  0  0  0  0  0  0  0  0  0999 V3000
M  V30 BEGIN CTAB
M  V30 COUNTS 21 22 0 0 0
M  V30 BEGIN ATOM
M  V30 1 N -2.45678 1.78698 -0.261975 0
M  V30 2 C -1.39216 0.859331 -0.15533 0
M  V30 3 C -0.101632 1.31025 0.0305518 0
M  V30 4 C 0.949809 0.400857 0.13612 0
M  V30 5 C 0.734164 -0.954686 0.0590624 0
M  V30 6 C -0.586971 -1.35525 -0.129037 0
M  V30 7 C -1.64358 -0.494129 -0.237021 0
M  V30 8 N -2.97183 -0.964848 -0.428579 0
M  V30 9 N 1.73315 -1.84905 0.158281 0
M  V30 10 C 3.00102 -1.44551 0.339478 0
M  V30 11 C 3.26239 -0.0917285 0.422483 0
M  V30 12 C 2.23947 0.826354 0.320975 0
M  V30 13 H -3.38927 1.66445 0.196301 0
M  V30 14 H -2.35827 2.67864 -0.828843 0
M  V30 15 H 0.165599 2.35576 0.10326 0
M  V30 16 H -0.783881 -2.40699 -0.192727 0
M  V30 17 H -3.19167 -1.92117 -0.76205 0
M  V30 18 H -3.77544 -0.326841 -0.227465 0
M  V30 19 H 3.82164 -2.17594 0.42113 0
M  V30 20 H 4.30621 0.221528 0.570979 0
M  V30 21 H 2.43802 1.88199 0.385017 0
M  V30 END ATOM
M  V30 BEGIN BOND
M  V30 1 1 1 2
M  V30 2 2 2 3
M  V30 3 1 3 4
M  V30 4 2 4 5
M  V30 5 1 5 6
M  V30 6 2 6 7
M  V30 7 1 7 8
M  V30 8 1 5 9
M  V30 9 2 9 10
M  V30 10 1 10 11
M  V30 11 2 11 12
M  V30 12 1 7 2
M  V30 13 1 12 4
M  V30 14 1 1 13
M  V30 15 1 1 14
M  V30 16 1 3 15
M  V30 17 1 6 16
M  V30 18 1 8 17
M  V30 19 1 8 18
M  V30 20 1 10 19
M  V30 21 1 11 20
M  V30 22 1 12 21
M  V30 END BOND
M  V30 END CTAB
M  END
