
     RDKit          3D

  0  0  0  0  0  0  0  0  0  0999 V3000
M  V30 BEGIN CTAB
M  V30 COUNTS 50 52 0 0 0
M  V30 BEGIN ATOM
M  V30 1 C -7.45105 0.749784 -1.76189 0
M  V30 2 C -6.15599 0.0671657 -1.36134 0
M  V30 3 C -5.24303 1.11251 -0.847452 0
M  V30 4 N -5.467 2.4142 -0.737246 0
M  V30 5 C -4.37125 2.99167 -0.22315 0
M  V30 6 C -3.46934 1.98683 -0.0244463 0
M  V30 7 N -4.00685 0.813512 -0.411601 0
M  V30 8 C -3.30801 -0.414655 -0.324075 0
M  V30 9 C -3.4548 -1.17671 0.949804 0
M  V30 10 C -2.6242 -2.43057 0.792932 0
M  V30 11 N -1.25597 -2.02268 0.545676 0
M  V30 12 C -0.451554 -1.28535 1.42913 0
M  V30 13 O -0.84009 -0.893316 2.5568 0
M  V30 14 C 0.905887 -0.934094 1.06179 0
M  V30 15 C 1.58837 -1.65901 0.145186 0
M  V30 16 C 2.89776 -1.30126 -0.207325 0
M  V30 17 C 3.53078 -0.216248 0.356079 0
M  V30 18 C 2.8387 0.513223 1.28148 0
M  V30 19 C 1.53817 0.174032 1.64438 0
M  V30 20 C 4.89151 0.104304 -0.0514663 0
M  V30 21 C 5.59397 1.1705 0.462547 0
M  V30 22 C 6.89608 1.41268 0.0205892 0
M  V30 23 N 7.58374 2.52199 0.576479 0
M  V30 24 N 7.45594 0.612585 -0.896684 0
M  V30 25 C 6.77088 -0.450914 -1.41703 0
M  V30 26 N 5.54035 -0.648902 -0.974534 0
M  V30 27 N 7.39566 -1.27472 -2.38508 0
M  V30 28 H -8.18087 -0.056233 -2.01705 0
M  V30 29 H -7.84952 1.22562 -0.83349 0
M  V30 30 H -7.31109 1.47831 -2.58035 0
M  V30 31 H -6.4287 -0.688993 -0.623941 0
M  V30 32 H -5.7544 -0.37574 -2.31916 0
M  V30 33 H -4.24647 4.06026 -0.0125328 0
M  V30 34 H -2.47452 2.16445 0.389734 0
M  V30 35 H -2.22699 -0.23482 -0.485745 0
M  V30 36 H -3.61392 -1.11072 -1.15403 0
M  V30 37 H -4.49394 -1.562 1.10564 0
M  V30 38 H -3.0718 -0.665243 1.84504 0
M  V30 39 H -2.98454 -3.05765 -0.0574711 0
M  V30 40 H -2.68985 -3.01158 1.75775 0
M  V30 41 H -0.817681 -2.2991 -0.392938 0
M  V30 42 H 1.13272 -2.52086 -0.315955 0
M  V30 43 H 3.42266 -1.90588 -0.950504 0
M  V30 44 H 3.261 1.36107 1.75731 0
M  V30 45 H 0.968344 0.728693 2.36935 0
M  V30 46 H 5.12716 1.80458 1.20083 0
M  V30 47 H 7.34945 2.8353 1.54311 0
M  V30 48 H 8.315 3.03893 0.0593235 0
M  V30 49 H 7.45728 -2.28846 -2.22347 0
M  V30 50 H 7.78202 -0.85648 -3.23946 0
M  V30 END ATOM
M  V30 BEGIN BOND
M  V30 1 1 1 2
M  V30 2 1 2 3
M  V30 3 2 3 4
M  V30 4 1 4 5
M  V30 5 2 5 6
M  V30 6 1 6 7
M  V30 7 1 7 8
M  V30 8 1 8 9
M  V30 9 1 9 10
M  V30 10 1 10 11
M  V30 11 1 11 12
M  V30 12 2 12 13
M  V30 13 1 12 14
M  V30 14 2 14 15
M  V30 15 1 15 16
M  V30 16 2 16 17
M  V30 17 1 17 18
M  V30 18 2 18 19
M  V30 19 1 17 20
M  V30 20 2 20 21
M  V30 21 1 21 22
M  V30 22 1 22 23
M  V30 23 2 22 24
M  V30 24 1 24 25
M  V30 25 2 25 26
M  V30 26 1 25 27
M  V30 27 1 7 3
M  V30 28 1 19 14
M  V30 29 1 26 20
M  V30 30 1 1 28
M  V30 31 1 1 29
M  V30 32 1 1 30
M  V30 33 1 2 31
M  V30 34 1 2 32
M  V30 35 1 5 33
M  V30 36 1 6 34
M  V30 37 1 8 35
M  V30 38 1 8 36
M  V30 39 1 9 37
M  V30 40 1 9 38
M  V30 41 1 10 39
M  V30 42 1 10 40
M  V30 43 1 11 41
M  V30 44 1 15 42
M  V30 45 1 16 43
M  V30 46 1 18 44
M  V30 47 1 19 45
M  V30 48 1 21 46
M  V30 49 1 23 47
M  V30 50 1 23 48
M  V30 51 1 27 49
M  V30 52 1 27 50
M  V30 END BOND
M  V30 END CTAB
M  END
