
     RDKit          3D

  0  0  0  0  0  0  0  0  0  0999 V3000
M  V30 BEGIN CTAB
M  V30 COUNTS 22 23 0 0 0
M  V30 BEGIN ATOM
M  V30 1 O 4.28695 0.493703 0.189742 0
M  V30 2 C 3.04316 0.518038 0.087489 0
M  V30 3 C 2.38252 1.67708 -0.286873 0
M  V30 4 C 1.01297 1.61152 -0.373678 0
M  V30 5 C 0.320814 0.451169 -0.102786 0
M  V30 6 C 1.01248 -0.707799 0.273931 0
M  V30 7 N 2.35753 -0.623743 0.353698 0
M  V30 8 C 0.324681 -1.87011 0.545722 0
M  V30 9 C -1.05042 -1.93696 0.458868 0
M  V30 10 C -1.76034 -0.80422 0.0880729 0
M  V30 11 C -1.05381 0.367906 -0.185025 0
M  V30 12 N -1.79012 1.51138 -0.560824 0
M  V30 13 N -3.16758 -0.840335 -0.00983624 0
M  V30 14 H 2.96539 2.56216 -0.489285 0
M  V30 15 H 0.473336 2.4944 -0.661641 0
M  V30 16 H 2.884 -1.47981 0.633162 0
M  V30 17 H 0.893042 -2.76281 0.83862 0
M  V30 18 H -1.5958 -2.84369 0.670221 0
M  V30 19 H -2.72581 1.67349 -0.129802 0
M  V30 20 H -1.46109 2.21476 -1.24753 0
M  V30 21 H -3.72837 -1.15217 0.7953 0
M  V30 22 H -3.62354 -0.553952 -0.887544 0
M  V30 END ATOM
M  V30 BEGIN BOND
M  V30 1 2 1 2
M  V30 2 1 2 3
M  V30 3 2 3 4
M  V30 4 1 4 5
M  V30 5 2 5 6
M  V30 6 1 6 7
M  V30 7 1 6 8
M  V30 8 2 8 9
M  V30 9 1 9 10
M  V30 10 2 10 11
M  V30 11 1 11 12
M  V30 12 1 10 13
M  V30 13 1 7 2
M  V30 14 1 11 5
M  V30 15 1 3 14
M  V30 16 1 4 15
M  V30 17 1 7 16
M  V30 18 1 8 17
M  V30 19 1 9 18
M  V30 20 1 12 19
M  V30 21 1 12 20
M  V30 22 1 13 21
M  V30 23 1 13 22
M  V30 END BOND
M  V30 END CTAB
M  END
