
     RDKit          3D

  0  0  0  0  0  0  0  0  0  0999 V3000
M  V30 BEGIN CTAB
M  V30 COUNTS 21 20 0 0 0
M  V30 BEGIN ATOM
M  V30 1 C -2.33674 -0.211881 0.737473 0
M  V30 2 N -1.03817 -0.790652 0.410079 0
M  V30 3 N -1.27563 -1.69356 -0.653531 0
M  V30 4 P -0.0311339 0.491652 -0.182597 0
M  V30 5 S -0.576488 0.87185 -1.79459 0
M  V30 6 N -0.299193 1.93121 0.796614 0
M  V30 7 N 0.0289587 3.01004 0.280506 0 CHG=1
M  V30 8 N 0.159126 4.19278 -0.0239654 0 CHG=-1
M  V30 9 N 1.63077 0.149403 -0.229792 0
M  V30 10 C 2.1953 -0.435322 0.937212 0
M  V30 11 N 2.1215 -0.406979 -1.37647 0
M  V30 12 H -3.17394 -0.770149 0.274903 0
M  V30 13 H -2.42819 0.835312 0.354724 0
M  V30 14 H -2.39035 -0.174355 1.83726 0
M  V30 15 H -1.92726 -1.24433 -1.32991 0
M  V30 16 H -1.79983 -2.51233 -0.256518 0
M  V30 17 H 3.24418 -0.0466432 1.06683 0
M  V30 18 H 2.27952 -1.54537 0.883187 0
M  V30 19 H 1.67052 -0.190146 1.8757 0
M  V30 20 H 2.2504 -1.42923 -1.36735 0
M  V30 21 H 1.69665 -0.0312976 -2.23976 0
M  V30 END ATOM
M  V30 BEGIN BOND
M  V30 1 1 1 2
M  V30 2 1 2 3
M  V30 3 1 2 4
M  V30 4 2 4 5
M  V30 5 1 4 6
M  V30 6 2 6 7 CFG=2
M  V30 7 2 7 8
M  V30 8 1 4 9
M  V30 9 1 9 10
M  V30 10 1 9 11
M  V30 11 1 1 12
M  V30 12 1 1 13
M  V30 13 1 1 14
M  V30 14 1 3 15
M  V30 15 1 3 16
M  V30 16 1 10 17
M  V30 17 1 10 18
M  V30 18 1 10 19
M  V30 19 1 11 20
M  V30 20 1 11 21
M  V30 END BOND
M  V30 END CTAB
M  END
