
     RDKit          3D

  0  0  0  0  0  0  0  0  0  0999 V3000
M  V30 BEGIN CTAB
M  V30 COUNTS 29 30 0 0 0
M  V30 BEGIN ATOM
M  V30 1 N -1.23879 -1.75081 1.10975 0
M  V30 2 C -1.04457 -0.375036 0.731717 0
M  V30 3 C 0.39656 -0.198984 0.448309 0
M  V30 4 C 0.9547 0.016416 -0.782899 0
M  V30 5 C 2.32598 0.144076 -0.933499 0
M  V30 6 C 2.96827 0.376557 -2.24288 0
M  V30 7 C 3.17087 0.0551027 0.172929 0
M  V30 8 N 2.60944 -0.15358 1.35032 0
M  V30 9 C 1.29714 -0.27813 1.51354 0
M  V30 10 N 0.791036 -0.497045 2.80539 0
M  V30 11 C -1.91947 0.0564045 -0.409776 0
M  V30 12 C -1.80021 1.48333 -0.847205 0
M  V30 13 S -3.56899 1.73359 -1.01408 0
M  V30 14 C -3.35245 0.187214 -0.188117 0
M  V30 15 H -1.68433 -1.88301 2.02176 0
M  V30 16 H -1.63091 -2.35027 0.390338 0
M  V30 17 H -1.29318 0.254984 1.59952 0
M  V30 18 H 0.342292 0.0784589 -1.66277 0
M  V30 19 H 2.39631 1.18113 -2.74564 0
M  V30 20 H 3.99787 0.73448 -2.08029 0
M  V30 21 H 2.94829 -0.585193 -2.80322 0
M  V30 22 H 4.23446 0.153392 0.0611188 0
M  V30 23 H 0.80435 -1.46933 3.18289 0
M  V30 24 H 0.399835 0.243816 3.41987 0
M  V30 25 H -1.68347 -0.596999 -1.30534 0
M  V30 26 H -1.32715 1.65364 -1.85144 0
M  V30 27 H -1.40395 2.18276 -0.0746058 0
M  V30 28 H -3.74803 0.223754 0.846818 0
M  V30 29 H -3.94191 -0.620708 -0.712492 0
M  V30 END ATOM
M  V30 BEGIN BOND
M  V30 1 1 1 2
M  V30 2 1 2 3
M  V30 3 2 3 4
M  V30 4 1 4 5
M  V30 5 1 5 6
M  V30 6 2 5 7
M  V30 7 1 7 8
M  V30 8 2 8 9
M  V30 9 1 9 10
M  V30 10 1 2 11
M  V30 11 1 11 12
M  V30 12 1 12 13
M  V30 13 1 13 14
M  V30 14 1 9 3
M  V30 15 1 14 11
M  V30 16 1 1 15
M  V30 17 1 1 16
M  V30 18 1 2 17
M  V30 19 1 4 18
M  V30 20 1 6 19
M  V30 21 1 6 20
M  V30 22 1 6 21
M  V30 23 1 7 22
M  V30 24 1 10 23
M  V30 25 1 10 24
M  V30 26 1 11 25
M  V30 27 1 12 26
M  V30 28 1 12 27
M  V30 29 1 14 28
M  V30 30 1 14 29
M  V30 END BOND
M  V30 END CTAB
M  END
