
     RDKit          3D

  0  0  0  0  0  0  0  0  0  0999 V3000
M  V30 BEGIN CTAB
M  V30 COUNTS 24 25 0 0 0
M  V30 BEGIN ATOM
M  V30 1 N -2.9324 2.42999 0.0190843 0
M  V30 2 C -2.26956 1.16484 0.0352816 0
M  V30 3 C -2.94058 -0.0284378 0.0945892 0
M  V30 4 C -2.28261 -1.24 0.109318 0
M  V30 5 C -0.897783 -1.27438 0.0633338 0
M  V30 6 C -0.198645 -0.102084 0.00370553 0
M  V30 7 C -0.897262 1.12033 -0.00997288 0
M  V30 8 C 1.24366 -0.119968 -0.0448812 0
M  V30 9 O 2.00503 -1.16811 -0.0388825 0
M  V30 10 N 3.26098 -0.841824 -0.0916029 0
M  V30 11 C 3.35446 0.510938 -0.135999 0
M  V30 12 N 2.07441 0.944401 -0.105605 0
M  V30 13 N 4.54557 1.28207 -0.200067 0
M  V30 14 C -0.253956 -2.59476 0.0819316 0
M  V30 15 H -3.87609 2.52357 -0.406878 0
M  V30 16 H -2.50786 3.29353 0.424394 0
M  V30 17 H -4.02479 -0.00395675 0.130669 0
M  V30 18 H -2.8404 -2.18343 0.157145 0
M  V30 19 H -0.327914 2.04298 -0.057545 0
M  V30 20 H 5.09881 1.42168 0.67128 0
M  V30 21 H 4.90972 1.7239 -1.06937 0
M  V30 22 H 0.37354 -2.65875 0.994477 0
M  V30 23 H -0.991288 -3.42562 0.168604 0
M  V30 24 H 0.374967 -2.8169 -0.793013 0
M  V30 END ATOM
M  V30 BEGIN BOND
M  V30 1 1 1 2
M  V30 2 2 2 3
M  V30 3 1 3 4
M  V30 4 2 4 5
M  V30 5 1 5 6
M  V30 6 2 6 7
M  V30 7 1 6 8
M  V30 8 1 8 9
M  V30 9 1 9 10
M  V30 10 2 10 11
M  V30 11 1 11 12
M  V30 12 1 11 13
M  V30 13 1 5 14
M  V30 14 1 7 2
M  V30 15 2 12 8
M  V30 16 1 1 15
M  V30 17 1 1 16
M  V30 18 1 3 17
M  V30 19 1 4 18
M  V30 20 1 7 19
M  V30 21 1 13 20
M  V30 22 1 13 21
M  V30 23 1 14 22
M  V30 24 1 14 23
M  V30 25 1 14 24
M  V30 END BOND
M  V30 END CTAB
M  END
