
     RDKit          3D

  0  0  0  0  0  0  0  0  0  0999 V3000
M  V30 BEGIN CTAB
M  V30 COUNTS 124 124 0 0 0
M  V30 BEGIN ATOM
M  V30 1 C -0.26071 -3.20756 -2.32443 0
M  V30 2 C -0.73671 -2.12544 -1.32412 0
M  V30 3 C -2.02839 -2.52642 -0.706103 0
M  V30 4 C -0.757231 -0.796353 -1.95896 0
M  V30 5 C -1.18896 0.37345 -1.11466 0 CFG=2
M  V30 6 N -0.288389 0.387362 0.0168214 0
M  V30 7 C 0.972881 0.964251 0.0311195 0
M  V30 8 O 1.42013 1.53217 -0.994436 0
M  V30 9 C 1.82744 0.92245 1.24239 0 CFG=2
M  V30 10 C 1.23886 1.72624 2.37532 0
M  V30 11 O -0.0264338 1.33986 2.75042 0
M  V30 12 N 3.17796 1.41137 0.925119 0
M  V30 13 C 4.27256 0.524884 0.847546 0
M  V30 14 O 4.02768 -0.712507 1.06572 0
M  V30 15 C 5.62803 0.9664 0.532261 0 CFG=1
M  V30 16 N 6.54691 -0.155902 0.436076 0
M  V30 17 C 7.78163 -0.268927 1.11379 0
M  V30 18 O 8.21074 0.630187 1.87647 0
M  V30 19 C 8.59603 -1.47727 0.925231 0 CFG=2
M  V30 20 C 7.80449 -2.68756 1.43671 0
M  V30 21 N 9.86124 -1.48123 1.60474 0
M  V30 22 C 11.0668 -1.89531 1.01467 0
M  V30 23 O 11.0475 -2.2929 -0.179035 0
M  V30 24 C 12.3451 -1.88207 1.75004 0 CFG=1
M  V30 25 N 13.3364 -2.72988 1.06686 0
M  V30 26 C 12.9844 -0.505145 1.75988 0
M  V30 27 C 12.138 0.55622 2.39727 0
M  V30 28 C 12.8695 1.86478 2.36118 0
M  V30 29 O 12.3001 2.99913 2.89407 0
M  V30 30 O 14.0026 1.91813 1.84209 0
M  V30 31 C 5.6923 1.83333 -0.708669 0
M  V30 32 C 7.1526 2.20319 -0.894063 0
M  V30 33 C 5.21199 1.17063 -1.95053 0
M  V30 34 C -2.59372 0.518398 -0.84255 0
M  V30 35 O -2.98385 0.578176 0.376649 0
M  V30 36 N -3.59515 0.602109 -1.82735 0
M  V30 37 C -5.02365 0.735984 -1.60329 0 CFG=1
M  V30 38 C -5.50678 2.01988 -2.29482 0
M  V30 39 C -4.86837 3.25488 -1.76845 0
M  V30 40 C -5.11674 3.55582 -0.329498 0
M  V30 41 C -4.36942 4.85621 -0.0125226 0
M  V30 42 N -4.87298 5.91303 -0.854995 0
M  V30 43 C -5.7616 -0.406752 -2.15981 0
M  V30 44 O -5.07668 -1.20973 -2.88893 0
M  V30 45 N -7.11298 -0.691274 -1.96846 0
M  V30 46 C -7.82847 -1.82802 -2.58907 0
M  V30 47 C -9.24909 -1.40979 -2.75746 0
M  V30 48 C -9.30018 -0.0207143 -2.13695 0
M  V30 49 C -8.12819 -0.0668415 -1.16341 0 CFG=1
M  V30 50 C -8.47363 -0.944619 0.0183789 0
M  V30 51 O -7.74945 -1.93233 0.223124 0
M  V30 52 N -9.56766 -0.637536 0.829703 0
M  V30 53 C -10.0589 -1.32673 1.98408 0 CFG=1
M  V30 54 C -10.5532 -2.71133 1.78855 0
M  V30 55 C -11.6885 -2.69978 0.748304 0
M  V30 56 O -9.6422 -3.62541 1.34116 0
M  V30 57 C -8.9867 -1.36934 3.02953 0
M  V30 58 O -9.15074 -2.00804 4.23222 0
M  V30 59 O -7.90255 -0.800284 2.79284 0
M  V30 60 H -0.270783 -4.15283 -1.73835 0
M  V30 61 H 0.794301 -2.96277 -2.52972 0
M  V30 62 H -0.910323 -3.2335 -3.21538 0
M  V30 63 H 0.0392023 -2.20689 -0.504716 0
M  V30 64 H -2.08561 -3.65139 -0.566032 0
M  V30 65 H -2.12941 -2.128 0.335467 0
M  V30 66 H -2.91172 -2.21224 -1.27945 0
M  V30 67 H -1.43492 -0.783157 -2.86515 0
M  V30 68 H 0.25078 -0.550566 -2.36803 0
M  V30 69 H -0.847336 1.28115 -1.72978 0
M  V30 70 H -0.654995 -0.0881917 0.875483 0
M  V30 71 H 1.96622 -0.131455 1.58519 0
M  V30 72 H 1.92095 1.78273 3.23439 0
M  V30 73 H 1.15623 2.77805 1.99014 0
M  V30 74 H -0.154092 1.33765 3.7475 0
M  V30 75 H 3.28667 2.42544 0.764993 0
M  V30 76 H 6.00355 1.61546 1.35054 0
M  V30 77 H 6.25338 -0.935339 -0.191693 0
M  V30 78 H 8.72199 -1.66122 -0.157413 0
M  V30 79 H 6.73676 -2.4486 1.24026 0
M  V30 80 H 8.03113 -2.77553 2.50706 0
M  V30 81 H 8.10238 -3.56865 0.849505 0
M  V30 82 H 9.87669 -1.15896 2.59674 0
M  V30 83 H 12.2515 -2.24778 2.77043 0
M  V30 84 H 13.2231 -3.72188 1.3209 0
M  V30 85 H 13.3413 -2.53032 0.0460715 0
M  V30 86 H 13.1963 -0.166224 0.719733 0
M  V30 87 H 13.9642 -0.519042 2.26939 0
M  V30 88 H 11.1585 0.707884 1.88264 0
M  V30 89 H 11.9653 0.309066 3.45791 0
M  V30 90 H 12.5614 3.89942 2.46908 0
M  V30 91 H 5.17329 2.77913 -0.462451 0
M  V30 92 H 7.75483 1.28074 -1.09283 0
M  V30 93 H 7.20965 2.79926 -1.84626 0
M  V30 94 H 7.55147 2.81283 -0.0672669 0
M  V30 95 H 6.02165 0.705112 -2.55742 0
M  V30 96 H 4.43014 0.406146 -1.79003 0
M  V30 97 H 4.73961 1.96446 -2.59968 0
M  V30 98 H -3.2503 0.561263 -2.83717 0
M  V30 99 H -5.21662 0.847976 -0.53441 0
M  V30 100 H -5.23909 1.96772 -3.38489 0
M  V30 101 H -6.60415 2.0738 -2.28243 0
M  V30 102 H -3.76762 3.22263 -1.96881 0
M  V30 103 H -5.26294 4.12066 -2.35457 0
M  V30 104 H -4.75657 2.79571 0.357364 0
M  V30 105 H -6.1953 3.80372 -0.184477 0
M  V30 106 H -3.29229 4.7139 -0.226332 0
M  V30 107 H -4.48212 5.10302 1.0748 0
M  V30 108 H -5.86684 5.75593 -1.1415 0
M  V30 109 H -4.84008 6.83232 -0.366653 0
M  V30 110 H -7.64878 -2.77152 -2.08573 0
M  V30 111 H -7.41231 -1.95439 -3.62964 0
M  V30 112 H -9.56245 -1.33555 -3.83269 0
M  V30 113 H -9.97413 -2.0849 -2.26817 0
M  V30 114 H -10.268 0.0699904 -1.63371 0
M  V30 115 H -9.10157 0.764616 -2.86859 0
M  V30 116 H -7.8891 0.907815 -0.749072 0
M  V30 117 H -10.1032 0.258111 0.51577 0
M  V30 118 H -10.8682 -0.704627 2.49175 0
M  V30 119 H -11.0362 -3.12591 2.71247 0
M  V30 120 H -12.6722 -2.68218 1.22716 0
M  V30 121 H -11.5654 -1.85242 0.047857 0
M  V30 122 H -11.6614 -3.65648 0.147726 0
M  V30 123 H -8.95229 -3.86036 2.01854 0
M  V30 124 H -9.85986 -1.74641 4.89859 0
M  V30 END ATOM
M  V30 BEGIN BOND
M  V30 1 1 1 2
M  V30 2 1 2 3
M  V30 3 1 2 4
M  V30 4 1 4 5
M  V30 5 1 5 6
M  V30 6 1 6 7
M  V30 7 2 7 8
M  V30 8 1 7 9
M  V30 9 1 9 10
M  V30 10 1 10 11
M  V30 11 1 9 12
M  V30 12 1 12 13
M  V30 13 2 13 14
M  V30 14 1 13 15
M  V30 15 1 15 16
M  V30 16 1 16 17
M  V30 17 2 17 18
M  V30 18 1 17 19
M  V30 19 1 19 20
M  V30 20 1 19 21
M  V30 21 1 21 22
M  V30 22 2 22 23
M  V30 23 1 22 24
M  V30 24 1 24 25
M  V30 25 1 24 26
M  V30 26 1 26 27
M  V30 27 1 27 28
M  V30 28 1 28 29
M  V30 29 2 28 30
M  V30 30 1 15 31
M  V30 31 1 31 32
M  V30 32 1 31 33
M  V30 33 1 5 34
M  V30 34 2 34 35
M  V30 35 1 34 36
M  V30 36 1 36 37
M  V30 37 1 37 38
M  V30 38 1 38 39
M  V30 39 1 39 40
M  V30 40 1 40 41
M  V30 41 1 41 42
M  V30 42 1 37 43
M  V30 43 2 43 44
M  V30 44 1 43 45
M  V30 45 1 45 46
M  V30 46 1 46 47
M  V30 47 1 47 48
M  V30 48 1 48 49
M  V30 49 1 49 50
M  V30 50 2 50 51
M  V30 51 1 50 52
M  V30 52 1 52 53
M  V30 53 1 53 54
M  V30 54 1 54 55
M  V30 55 1 54 56
M  V30 56 1 53 57
M  V30 57 1 57 58
M  V30 58 2 57 59
M  V30 59 1 49 45
M  V30 60 1 1 60
M  V30 61 1 1 61
M  V30 62 1 1 62
M  V30 63 1 2 63
M  V30 64 1 3 64
M  V30 65 1 3 65
M  V30 66 1 3 66
M  V30 67 1 4 67
M  V30 68 1 4 68
M  V30 69 1 5 69 CFG=3
M  V30 70 1 6 70
M  V30 71 1 9 71 CFG=1
M  V30 72 1 10 72
M  V30 73 1 10 73
M  V30 74 1 11 74
M  V30 75 1 12 75
M  V30 76 1 15 76 CFG=1
M  V30 77 1 16 77
M  V30 78 1 19 78 CFG=3
M  V30 79 1 20 79
M  V30 80 1 20 80
M  V30 81 1 20 81
M  V30 82 1 21 82
M  V30 83 1 24 83 CFG=1
M  V30 84 1 25 84
M  V30 85 1 25 85
M  V30 86 1 26 86
M  V30 87 1 26 87
M  V30 88 1 27 88
M  V30 89 1 27 89
M  V30 90 1 29 90
M  V30 91 1 31 91
M  V30 92 1 32 92
M  V30 93 1 32 93
M  V30 94 1 32 94
M  V30 95 1 33 95
M  V30 96 1 33 96
M  V30 97 1 33 97
M  V30 98 1 36 98
M  V30 99 1 37 99 CFG=1
M  V30 100 1 38 100
M  V30 101 1 38 101
M  V30 102 1 39 102
M  V30 103 1 39 103
M  V30 104 1 40 104
M  V30 105 1 40 105
M  V30 106 1 41 106
M  V30 107 1 41 107
M  V30 108 1 42 108
M  V30 109 1 42 109
M  V30 110 1 46 110
M  V30 111 1 46 111
M  V30 112 1 47 112
M  V30 113 1 47 113
M  V30 114 1 48 114
M  V30 115 1 48 115
M  V30 116 1 49 116 CFG=1
M  V30 117 1 52 117
M  V30 118 1 53 118 CFG=1
M  V30 119 1 54 119
M  V30 120 1 55 120
M  V30 121 1 55 121
M  V30 122 1 55 122
M  V30 123 1 56 123
M  V30 124 1 58 124
M  V30 END BOND
M  V30 END CTAB
M  END
