
     RDKit          3D

  0  0  0  0  0  0  0  0  0  0999 V3000
M  V30 BEGIN CTAB
M  V30 COUNTS 34 35 0 0 0
M  V30 BEGIN ATOM
M  V30 1 N -3.11425 -1.94225 -0.52981 0
M  V30 2 C -2.59838 -1.51084 0.730141 0
M  V30 3 C -1.6058 -0.402811 0.661445 0
M  V30 4 C -0.378056 -0.750863 -0.147466 0
M  V30 5 N 0.546241 0.367926 0.0186436 0
M  V30 6 C 0.102291 1.69281 0.320875 0
M  V30 7 C -1.32941 1.98203 0.0245245 0
M  V30 8 C -2.27302 0.845608 0.190219 0
M  V30 9 N -3.07758 0.602051 -0.995366 0
M  V30 10 C 1.93847 0.120451 -0.132244 0
M  V30 11 C 2.42207 -1.11457 -0.549024 0
M  V30 12 C 3.75378 -1.4026 -0.704567 0
M  V30 13 C 4.68501 -0.419314 -0.435828 0
M  V30 14 C 4.25179 0.821888 -0.0195023 0
M  V30 15 C 2.88495 1.08657 0.130366 0
M  V30 16 H -4.10723 -2.29199 -0.384592 0
M  V30 17 H -2.57965 -2.7813 -0.861802 0
M  V30 18 H -2.13879 -2.40133 1.23649 0
M  V30 19 H -3.44513 -1.21419 1.37994 0
M  V30 20 H -1.24649 -0.21488 1.70438 0
M  V30 21 H -0.580808 -0.9953 -1.18931 0
M  V30 22 H 0.081512 -1.6342 0.374885 0
M  V30 23 H 0.249808 1.84679 1.42772 0
M  V30 24 H 0.719364 2.47174 -0.210372 0
M  V30 25 H -1.39363 2.33227 -1.04835 0
M  V30 26 H -1.6571 2.87041 0.623705 0
M  V30 27 H -3.01953 1.12707 0.990098 0
M  V30 28 H -2.43314 0.658607 -1.82674 0
M  V30 29 H -3.77494 1.3994 -1.07576 0
M  V30 30 H 1.72835 -1.90378 -0.768976 0
M  V30 31 H 4.12431 -2.36709 -1.02969 0
M  V30 32 H 5.75315 -0.577065 -0.537307 0
M  V30 33 H 4.93383 1.63082 0.205576 0
M  V30 34 H 2.57799 2.06794 0.459963 0
M  V30 END ATOM
M  V30 BEGIN BOND
M  V30 1 1 1 2
M  V30 2 1 2 3
M  V30 3 1 3 4
M  V30 4 1 4 5
M  V30 5 1 5 6
M  V30 6 1 6 7
M  V30 7 1 7 8
M  V30 8 1 8 9
M  V30 9 1 5 10
M  V30 10 2 10 11
M  V30 11 1 11 12
M  V30 12 2 12 13
M  V30 13 1 13 14
M  V30 14 2 14 15
M  V30 15 1 8 3
M  V30 16 1 15 10
M  V30 17 1 1 16
M  V30 18 1 1 17
M  V30 19 1 2 18
M  V30 20 1 2 19
M  V30 21 1 3 20
M  V30 22 1 4 21
M  V30 23 1 4 22
M  V30 24 1 6 23
M  V30 25 1 6 24
M  V30 26 1 7 25
M  V30 27 1 7 26
M  V30 28 1 8 27
M  V30 29 1 9 28
M  V30 30 1 9 29
M  V30 31 1 11 30
M  V30 32 1 12 31
M  V30 33 1 13 32
M  V30 34 1 14 33
M  V30 35 1 15 34
M  V30 END BOND
M  V30 END CTAB
M  END
