
     RDKit          3D

  0  0  0  0  0  0  0  0  0  0999 V3000
M  V30 BEGIN CTAB
M  V30 COUNTS 28 28 0 0 0
M  V30 BEGIN ATOM
M  V30 1 N 2.56087 0.157162 0.851636 0
M  V30 2 C 1.68861 -0.806008 0.226756 0
M  V30 3 C 0.573691 -0.00900555 -0.450555 0
M  V30 4 N 1.25864 0.857783 -1.42312 0
M  V30 5 C -0.275419 -0.952964 -1.21676 0
M  V30 6 C -1.41702 -1.5432 -0.485377 0
M  V30 7 C -2.14205 -0.593415 0.42501 0
M  V30 8 C -1.15695 0.0781831 1.34034 0
M  V30 9 C -0.117008 0.815267 0.565127 0
M  V30 10 C -0.755616 2.06959 0.00144211 0
M  V30 11 H 2.99904 -0.247275 1.70667 0
M  V30 12 H 3.28622 0.439259 0.134189 0
M  V30 13 H 1.18247 -1.46455 0.968078 0
M  V30 14 H 2.23385 -1.36407 -0.539461 0
M  V30 15 H 1.87454 0.193248 -1.97462 0
M  V30 16 H 1.90279 1.52008 -0.967332 0
M  V30 17 H -0.651335 -0.422336 -2.13034 0
M  V30 18 H 0.382934 -1.79224 -1.57186 0
M  V30 19 H -1.10176 -2.4533 0.0712851 0
M  V30 20 H -2.17455 -1.88352 -1.25169 0
M  V30 21 H -2.71325 0.125218 -0.191431 0
M  V30 22 H -2.84275 -1.19013 1.03703 0
M  V30 23 H -0.679742 -0.706167 1.96066 0
M  V30 24 H -1.71958 0.826225 1.94665 0
M  V30 25 H 0.65512 1.16922 1.30932 0
M  V30 26 H -0.0760371 2.6754 -0.597798 0
M  V30 27 H -1.64743 1.8302 -0.612889 0
M  V30 28 H -1.12826 2.67136 0.869022 0
M  V30 END ATOM
M  V30 BEGIN BOND
M  V30 1 1 1 2
M  V30 2 1 2 3
M  V30 3 1 3 4
M  V30 4 1 3 5
M  V30 5 1 5 6
M  V30 6 1 6 7
M  V30 7 1 7 8
M  V30 8 1 8 9
M  V30 9 1 9 10
M  V30 10 1 9 3
M  V30 11 1 1 11
M  V30 12 1 1 12
M  V30 13 1 2 13
M  V30 14 1 2 14
M  V30 15 1 4 15
M  V30 16 1 4 16
M  V30 17 1 5 17
M  V30 18 1 5 18
M  V30 19 1 6 19
M  V30 20 1 6 20
M  V30 21 1 7 21
M  V30 22 1 7 22
M  V30 23 1 8 23
M  V30 24 1 8 24
M  V30 25 1 9 25
M  V30 26 1 10 26
M  V30 27 1 10 27
M  V30 28 1 10 28
M  V30 END BOND
M  V30 END CTAB
M  END
