
     RDKit          3D

  0  0  0  0  0  0  0  0  0  0999 V3000
M  V30 BEGIN CTAB
M  V30 COUNTS 43 44 0 0 0
M  V30 BEGIN ATOM
M  V30 1 N -3.07307 -2.81047 0.175341 0
M  V30 2 C -2.90107 -1.43623 0.671734 0
M  V30 3 C -2.39754 -0.612826 -0.458016 0
M  V30 4 N -2.13477 0.774208 -0.168159 0
M  V30 5 C -0.872188 1.32562 -0.0556944 0
M  V30 6 S -0.975373 3.05339 0.119452 0
M  V30 7 N 0.433809 0.855628 0.0134045 0
M  V30 8 C 0.947712 -0.441765 0.0661049 0
M  V30 9 C 1.86256 -0.810741 -0.946785 0
M  V30 10 C 2.50307 -2.02402 -0.903908 0
M  V30 11 C 2.27316 -2.91271 0.124079 0
M  V30 12 C 1.39263 -2.58945 1.12508 0
M  V30 13 C 0.773299 -1.37392 1.05037 0
M  V30 14 N 2.93699 -4.16968 0.167662 0
M  V30 15 C 1.5408 1.83289 -0.12692 0
M  V30 16 C 2.62099 1.72523 0.708519 0
M  V30 17 C 3.71539 2.59392 0.5804 0
M  V30 18 C 3.64745 3.55232 -0.420601 0
M  V30 19 C 2.56873 3.67261 -1.26872 0
M  V30 20 C 1.49492 2.76988 -1.094 0
M  V30 21 C -3.3065 1.60801 -0.131124 0
M  V30 22 O -3.24578 2.83234 0.100247 0
M  V30 23 C -4.67321 1.09252 -0.359751 0
M  V30 24 H -3.86728 -3.27595 0.682631 0
M  V30 25 H -3.2633 -2.80837 -0.851509 0
M  V30 26 H -3.92273 -1.0729 1.02604 0
M  V30 27 H -2.19953 -1.47448 1.50173 0
M  V30 28 H -3.13078 -0.680847 -1.32587 0
M  V30 29 H -1.4656 -1.04615 -0.921088 0
M  V30 30 H 2.05454 -0.133022 -1.75401 0
M  V30 31 H 3.20771 -2.27424 -1.71126 0
M  V30 32 H 1.23383 -3.30693 1.91706 0
M  V30 33 H 0.0900453 -1.11942 1.84632 0
M  V30 34 H 3.40876 -4.58716 -0.666674 0
M  V30 35 H 2.97007 -4.71672 1.05082 0
M  V30 36 H 2.67315 0.991096 1.47539 0
M  V30 37 H 4.57707 2.5281 1.22681 0
M  V30 38 H 4.49503 4.24582 -0.539535 0
M  V30 39 H 2.52118 4.42065 -2.04628 0
M  V30 40 H 0.670089 2.84253 -1.77524 0
M  V30 41 H -5.30599 1.85629 -0.89911 0
M  V30 42 H -5.11332 0.965385 0.67261 0
M  V30 43 H -4.76494 0.139553 -0.844369 0
M  V30 END ATOM
M  V30 BEGIN BOND
M  V30 1 1 1 2
M  V30 2 1 2 3
M  V30 3 1 3 4
M  V30 4 1 4 5
M  V30 5 2 5 6
M  V30 6 1 5 7
M  V30 7 1 7 8
M  V30 8 2 8 9
M  V30 9 1 9 10
M  V30 10 2 10 11
M  V30 11 1 11 12
M  V30 12 2 12 13
M  V30 13 1 11 14
M  V30 14 1 7 15
M  V30 15 2 15 16
M  V30 16 1 16 17
M  V30 17 2 17 18
M  V30 18 1 18 19
M  V30 19 2 19 20
M  V30 20 1 4 21
M  V30 21 2 21 22
M  V30 22 1 21 23
M  V30 23 1 13 8
M  V30 24 1 20 15
M  V30 25 1 1 24
M  V30 26 1 1 25
M  V30 27 1 2 26
M  V30 28 1 2 27
M  V30 29 1 3 28
M  V30 30 1 3 29
M  V30 31 1 9 30
M  V30 32 1 10 31
M  V30 33 1 12 32
M  V30 34 1 13 33
M  V30 35 1 14 34
M  V30 36 1 14 35
M  V30 37 1 16 36
M  V30 38 1 17 37
M  V30 39 1 18 38
M  V30 40 1 19 39
M  V30 41 1 20 40
M  V30 42 1 23 41
M  V30 43 1 23 42
M  V30 44 1 23 43
M  V30 END BOND
M  V30 END CTAB
M  END
