
     RDKit          3D

  0  0  0  0  0  0  0  0  0  0999 V3000
M  V30 BEGIN CTAB
M  V30 COUNTS 20 19 0 0 0
M  V30 BEGIN ATOM
M  V30 1 N -3.58542 1.13927 1.1563 0
M  V30 2 N -2.87455 0.446045 0.159741 0
M  V30 3 C -1.56194 -0.022351 0.346682 0
M  V30 4 O -0.985721 0.173067 1.43036 0
M  V30 5 C -0.880576 -0.738755 -0.738281 0
M  V30 6 C 0.527991 -1.13386 -0.469923 0
M  V30 7 C 1.45305 -0.0107417 -0.217903 0
M  V30 8 O 1.03673 1.16777 -0.29759 0
M  V30 9 N 2.80087 -0.288523 0.110958 0
M  V30 10 N 3.72905 0.750295 0.362057 0
M  V30 11 H -4.29809 1.7537 0.716609 0
M  V30 12 H -2.87069 1.71181 1.67481 0
M  V30 13 H -3.343 0.27343 -0.755599 0
M  V30 14 H -1.47615 -1.67364 -0.91129 0
M  V30 15 H -0.887421 -0.164106 -1.69368 0
M  V30 16 H 0.883174 -1.68122 -1.38895 0
M  V30 17 H 0.607719 -1.80662 0.42768 0
M  V30 18 H 3.15574 -1.26699 0.179412 0
M  V30 19 H 4.58812 0.565416 -0.204394 0
M  V30 20 H 3.98111 0.805993 1.35321 0
M  V30 END ATOM
M  V30 BEGIN BOND
M  V30 1 1 1 2
M  V30 2 1 2 3
M  V30 3 2 3 4
M  V30 4 1 3 5
M  V30 5 1 5 6
M  V30 6 1 6 7
M  V30 7 2 7 8
M  V30 8 1 7 9
M  V30 9 1 9 10
M  V30 10 1 1 11
M  V30 11 1 1 12
M  V30 12 1 2 13
M  V30 13 1 5 14
M  V30 14 1 5 15
M  V30 15 1 6 16
M  V30 16 1 6 17
M  V30 17 1 9 18
M  V30 18 1 10 19
M  V30 19 1 10 20
M  V30 END BOND
M  V30 END CTAB
M  END
