
     RDKit          3D

  0  0  0  0  0  0  0  0  0  0999 V3000
M  V30 BEGIN CTAB
M  V30 COUNTS 44 46 0 0 0
M  V30 BEGIN ATOM
M  V30 1 N -5.82401 3.53803 -0.26113 0
M  V30 2 C -4.72533 2.6344 -0.152011 0
M  V30 3 C -3.682 2.83838 0.726012 0
M  V30 4 C -2.6501 1.92787 0.783996 0
M  V30 5 C -2.62705 0.789169 -0.0313684 0
M  V30 6 C -3.65805 0.61072 -0.8824 0
M  V30 7 C -4.7317 1.52851 -0.962797 0
M  V30 8 N -1.47624 -0.0291415 0.0918314 0
M  V30 9 C -0.198234 0.630447 -0.114359 0
M  V30 10 S -0.22454 2.26457 -0.455386 0
M  V30 11 N 1.05498 0.00500039 -0.0582693 0
M  V30 12 C 2.28079 0.72651 -0.271861 0
M  V30 13 O 2.19503 1.95237 -0.514264 0
M  V30 14 C 3.58589 0.115746 -0.221203 0
M  V30 15 C 3.76629 -1.22253 0.0400787 0
M  V30 16 C 5.06905 -1.74788 0.0740168 0
M  V30 17 C 6.16578 -0.945063 -0.149835 0
M  V30 18 C 5.99396 0.396096 -0.412165 0
M  V30 19 C 4.7017 0.912975 -0.444978 0
M  V30 20 N 4.51051 2.28412 -0.712313 0
M  V30 21 C -1.46603 -1.41796 0.280937 0
M  V30 22 C -0.678396 -1.88319 1.34275 0
M  V30 23 C -0.548719 -3.22086 1.60893 0
M  V30 24 C -1.20802 -4.13934 0.815831 0
M  V30 25 C -1.98123 -3.71102 -0.224267 0
M  V30 26 C -2.09447 -2.34921 -0.471938 0
M  V30 27 H -5.73136 4.55869 -0.361012 0
M  V30 28 H -6.79363 3.12598 -0.237142 0
M  V30 29 H -3.69446 3.71741 1.35779 0
M  V30 30 H -1.88449 2.11595 1.49527 0
M  V30 31 H -3.68311 -0.238491 -1.54446 0
M  V30 32 H -5.51716 1.30747 -1.67235 0
M  V30 33 H 1.19254 -1.00322 0.107204 0
M  V30 34 H 2.92977 -1.89159 0.222605 0
M  V30 35 H 5.16598 -2.81622 0.285209 0
M  V30 36 H 7.14637 -1.37927 -0.116428 0
M  V30 37 H 6.85677 1.03974 -0.590715 0
M  V30 38 H 4.34428 2.58764 -1.6906 0
M  V30 39 H 4.53134 2.99495 0.0388099 0
M  V30 40 H -0.149088 -1.20983 2.00561 0
M  V30 41 H 0.0618009 -3.60412 2.43288 0
M  V30 42 H -1.126 -5.2191 1.00172 0
M  V30 43 H -2.48413 -4.45627 -0.825588 0
M  V30 44 H -2.71528 -2.11844 -1.33263 0
M  V30 END ATOM
M  V30 BEGIN BOND
M  V30 1 1 1 2
M  V30 2 2 2 3
M  V30 3 1 3 4
M  V30 4 2 4 5
M  V30 5 1 5 6
M  V30 6 2 6 7
M  V30 7 1 5 8
M  V30 8 1 8 9
M  V30 9 2 9 10
M  V30 10 1 9 11
M  V30 11 1 11 12
M  V30 12 2 12 13
M  V30 13 1 12 14
M  V30 14 2 14 15
M  V30 15 1 15 16
M  V30 16 2 16 17
M  V30 17 1 17 18
M  V30 18 2 18 19
M  V30 19 1 19 20
M  V30 20 1 8 21
M  V30 21 2 21 22
M  V30 22 1 22 23
M  V30 23 2 23 24
M  V30 24 1 24 25
M  V30 25 2 25 26
M  V30 26 1 7 2
M  V30 27 1 19 14
M  V30 28 1 26 21
M  V30 29 1 1 27
M  V30 30 1 1 28
M  V30 31 1 3 29
M  V30 32 1 4 30
M  V30 33 1 6 31
M  V30 34 1 7 32
M  V30 35 1 11 33
M  V30 36 1 15 34
M  V30 37 1 16 35
M  V30 38 1 17 36
M  V30 39 1 18 37
M  V30 40 1 20 38
M  V30 41 1 20 39
M  V30 42 1 22 40
M  V30 43 1 23 41
M  V30 44 1 24 42
M  V30 45 1 25 43
M  V30 46 1 26 44
M  V30 END BOND
M  V30 END CTAB
M  END
