
     RDKit          3D

  0  0  0  0  0  0  0  0  0  0999 V3000
M  V30 BEGIN CTAB
M  V30 COUNTS 34 35 0 0 0
M  V30 BEGIN ATOM
M  V30 1 C -4.30695 0.260672 1.1361 0
M  V30 2 C -2.87887 0.464177 0.784627 0
M  V30 3 C -2.09396 -0.687545 0.189438 0
M  V30 4 C -2.50097 -1.32536 -1.03161 0
M  V30 5 C -0.641923 -0.482836 0.483669 0
M  V30 6 C 0.276756 0.0476913 -0.410578 0
M  V30 7 C -0.161417 0.656173 -1.63697 0
M  V30 8 C 1.62049 0.0569026 -0.0513227 0
M  V30 9 C 2.56774 0.572748 -0.858385 0
M  V30 10 N 2.29933 1.17025 -2.09534 0
M  V30 11 N 3.8812 0.592751 -0.502977 0
M  V30 12 C 4.31463 0.111094 0.652868 0
M  V30 13 N 5.69394 0.136553 0.976987 0
M  V30 14 N 3.40676 -0.403728 1.49256 0
M  V30 15 C 2.06955 -0.44116 1.17118 0
M  V30 16 N 1.17093 -0.940131 2.0177 0
M  V30 17 C -0.10181 -0.954389 1.68221 0
M  V30 18 H -4.59044 1.02564 1.93312 0
M  V30 19 H -4.52348 -0.761979 1.53702 0
M  V30 20 H -5.03425 0.502191 0.311787 0
M  V30 21 H -2.73997 1.40443 0.152893 0
M  V30 22 H -2.35713 0.82356 1.74024 0
M  V30 23 H -2.3827 -1.49716 0.993146 0
M  V30 24 H -3.12036 -0.773681 -1.74815 0
M  V30 25 H -1.57853 -1.6461 -1.6121 0
M  V30 26 H -3.04701 -2.32153 -0.922869 0
M  V30 27 H 0.0300836 0.166662 -2.58858 0
M  V30 28 H -1.29748 0.698567 -1.70035 0
M  V30 29 H -0.0489088 1.80259 -1.6267 0
M  V30 30 H 2.26884 0.628131 -2.96258 0
M  V30 31 H 2.14695 2.20119 -2.14257 0
M  V30 32 H 6.13863 0.977615 1.46549 0
M  V30 33 H 6.31807 -0.679822 0.739188 0
M  V30 34 H -0.797726 -1.38417 2.43086 0
M  V30 END ATOM
M  V30 BEGIN BOND
M  V30 1 1 1 2
M  V30 2 1 2 3
M  V30 3 1 3 4
M  V30 4 1 3 5
M  V30 5 2 5 6
M  V30 6 1 6 7
M  V30 7 1 6 8
M  V30 8 2 8 9
M  V30 9 1 9 10
M  V30 10 1 9 11
M  V30 11 2 11 12
M  V30 12 1 12 13
M  V30 13 1 12 14
M  V30 14 2 14 15
M  V30 15 1 15 16
M  V30 16 2 16 17
M  V30 17 1 17 5
M  V30 18 1 15 8
M  V30 19 1 1 18
M  V30 20 1 1 19
M  V30 21 1 1 20
M  V30 22 1 2 21
M  V30 23 1 2 22
M  V30 24 1 3 23
M  V30 25 1 4 24
M  V30 26 1 4 25
M  V30 27 1 4 26
M  V30 28 1 7 27
M  V30 29 1 7 28
M  V30 30 1 7 29
M  V30 31 1 10 30
M  V30 32 1 10 31
M  V30 33 1 13 32
M  V30 34 1 13 33
M  V30 35 1 17 34
M  V30 END BOND
M  V30 END CTAB
M  END
