
     RDKit          3D

  0  0  0  0  0  0  0  0  0  0999 V3000
M  V30 BEGIN CTAB
M  V30 COUNTS 27 27 0 0 0
M  V30 BEGIN ATOM
M  V30 1 N 3.95756 0.788351 -1.54074 0
M  V30 2 N 3.18863 0.389706 -0.458281 0
M  V30 3 C 1.79643 0.242727 -0.593917 0
M  V30 4 O 1.25552 0.476827 -1.7082 0
M  V30 5 C 1.02145 -0.186628 0.59751 0
M  V30 6 C -0.440065 -0.326816 0.366293 0
M  V30 7 N -1.01945 -0.75188 1.65366 0
M  V30 8 C -0.836164 -1.34778 -0.63862 0
M  V30 9 C -2.21265 -0.939583 -1.18068 0
M  V30 10 O -3.0145 -0.46908 -0.136088 0
M  V30 11 C -2.60136 0.773144 0.315742 0
M  V30 12 C -1.12539 0.990582 0.0514472 0
M  V30 13 H 3.8158 1.82647 -1.66147 0
M  V30 14 H 4.9737 0.602177 -1.37961 0
M  V30 15 H 3.65231 0.204624 0.440308 0
M  V30 16 H 1.17329 0.596637 1.36977 0
M  V30 17 H 1.39779 -1.13094 1.03439 0
M  V30 18 H -0.966556 0.0951299 2.26533 0
M  V30 19 H -0.484128 -1.55469 2.05311 0
M  V30 20 H -0.150569 -1.52242 -1.46039 0
M  V30 21 H -0.950621 -2.34346 -0.11851 0
M  V30 22 H -2.08021 -0.118289 -1.90982 0
M  V30 23 H -2.7065 -1.80638 -1.64477 0
M  V30 24 H -3.21672 1.61023 -0.0600118 0
M  V30 25 H -2.72528 0.774557 1.42421 0
M  V30 26 H -0.742257 1.80883 0.700715 0
M  V30 27 H -0.960072 1.31796 -0.991659 0
M  V30 END ATOM
M  V30 BEGIN BOND
M  V30 1 1 1 2
M  V30 2 1 2 3
M  V30 3 2 3 4
M  V30 4 1 3 5
M  V30 5 1 5 6
M  V30 6 1 6 7
M  V30 7 1 6 8
M  V30 8 1 8 9
M  V30 9 1 9 10
M  V30 10 1 10 11
M  V30 11 1 11 12
M  V30 12 1 12 6
M  V30 13 1 1 13
M  V30 14 1 1 14
M  V30 15 1 2 15
M  V30 16 1 5 16
M  V30 17 1 5 17
M  V30 18 1 7 18
M  V30 19 1 7 19
M  V30 20 1 8 20
M  V30 21 1 8 21
M  V30 22 1 9 22
M  V30 23 1 9 23
M  V30 24 1 11 24
M  V30 25 1 11 25
M  V30 26 1 12 26
M  V30 27 1 12 27
M  V30 END BOND
M  V30 END CTAB
M  END
