
     RDKit          3D

  0  0  0  0  0  0  0  0  0  0999 V3000
M  V30 BEGIN CTAB
M  V30 COUNTS 58 58 0 0 0
M  V30 BEGIN ATOM
M  V30 1 C -3.66592 -0.401662 -1.82242 0
M  V30 2 O -4.04947 0.360556 -2.97655 0
M  V30 3 C -4.92154 -1.17397 -1.5012 0
M  V30 4 O -5.1784 -1.91689 -2.69463 0
M  V30 5 C -3.24103 0.613156 -0.827052 0 CFG=1
M  V30 6 N -4.32031 1.48885 -0.496769 0
M  V30 7 C -2.31224 0.227591 0.245591 0 CFG=2
M  V30 8 O -1.29058 -0.633305 -0.175355 0
M  V30 9 C -0.0238428 -0.132029 -0.080182 0 CFG=1
M  V30 10 O 0.732375 -0.850291 0.846123 0
M  V30 11 C 1.95532 -0.305326 1.10342 0 CFG=2
M  V30 12 C 1.93769 0.949332 1.92024 0
M  V30 13 O 1.37116 0.793631 3.17406 0
M  V30 14 C 2.77929 -0.0377616 -0.137794 0 CFG=1
M  V30 15 N 4.11583 -0.621616 -0.0252951 0
M  V30 16 C 5.28947 0.174332 -0.119755 0
M  V30 17 O 5.23591 1.42031 -0.305067 0
M  V30 18 C 6.63091 -0.42885 -0.00402106 0
M  V30 19 C 7.73326 0.582156 -0.136392 0
M  V30 20 C 2.09628 -0.573012 -1.35927 0 CFG=2
M  V30 21 O 2.7285 0.0211113 -2.47444 0
M  V30 22 C 0.656087 -0.174937 -1.41985 0 CFG=1
M  V30 23 O 0.0365314 -0.999928 -2.3413 0
M  V30 24 C -2.89506 -0.210682 1.54482 0
M  V30 25 O -3.43256 -1.46523 1.61395 0
M  V30 26 C -3.88065 0.746668 2.13794 0
M  V30 27 N -4.09398 0.403293 3.56191 0
M  V30 28 H -2.8443 -1.02875 -2.14253 0
M  V30 29 H -4.34048 -0.239544 -3.68454 0
M  V30 30 H -4.80407 -1.96231 -0.749697 0
M  V30 31 H -5.79561 -0.540204 -1.35903 0
M  V30 32 H -4.43385 -2.56699 -2.79063 0
M  V30 33 H -2.57568 1.33084 -1.50172 0
M  V30 34 H -5.16488 1.37627 -1.06064 0
M  V30 35 H -4.07957 2.48332 -0.406586 0
M  V30 36 H -1.69526 1.1641 0.557285 0
M  V30 37 H -0.0749992 0.900298 0.323899 0
M  V30 38 H 2.53091 -1.06716 1.70185 0
M  V30 39 H 1.46669 1.76429 1.33499 0
M  V30 40 H 3.01376 1.27299 2.04038 0
M  V30 41 H 1.59805 1.59871 3.70183 0
M  V30 42 H 2.93033 1.04955 -0.293887 0
M  V30 43 H 4.24222 -1.6536 0.129582 0
M  V30 44 H 6.69828 -0.862534 1.0238 0
M  V30 45 H 6.7376 -1.25537 -0.716043 0
M  V30 46 H 7.41299 1.39769 -0.80736 0
M  V30 47 H 8.62329 0.105583 -0.614729 0
M  V30 48 H 8.08498 0.959425 0.841682 0
M  V30 49 H 2.25318 -1.6695 -1.49439 0
M  V30 50 H 2.22518 -0.185221 -3.29995 0
M  V30 51 H 0.619839 0.868854 -1.82607 0
M  V30 52 H -0.0283973 -1.89921 -1.91689 0
M  V30 53 H -2.02009 -0.256284 2.30626 0
M  V30 54 H -2.81068 -2.16543 1.8947 0
M  V30 55 H -4.92641 0.612357 1.71727 0
M  V30 56 H -3.63273 1.79481 2.08876 0
M  V30 57 H -4.46242 1.20769 4.08773 0
M  V30 58 H -4.74091 -0.390172 3.66396 0
M  V30 END ATOM
M  V30 BEGIN BOND
M  V30 1 1 1 2
M  V30 2 1 1 3
M  V30 3 1 3 4
M  V30 4 1 1 5
M  V30 5 1 5 6
M  V30 6 1 5 7
M  V30 7 1 7 8
M  V30 8 1 8 9
M  V30 9 1 9 10
M  V30 10 1 10 11
M  V30 11 1 11 12
M  V30 12 1 12 13
M  V30 13 1 11 14
M  V30 14 1 14 15
M  V30 15 1 15 16
M  V30 16 2 16 17
M  V30 17 1 16 18
M  V30 18 1 18 19
M  V30 19 1 14 20
M  V30 20 1 20 21
M  V30 21 1 20 22
M  V30 22 1 22 23
M  V30 23 1 7 24
M  V30 24 1 24 25
M  V30 25 1 24 26
M  V30 26 1 26 27
M  V30 27 1 22 9
M  V30 28 1 1 28
M  V30 29 1 2 29
M  V30 30 1 3 30
M  V30 31 1 3 31
M  V30 32 1 4 32
M  V30 33 1 5 33 CFG=3
M  V30 34 1 6 34
M  V30 35 1 6 35
M  V30 36 1 7 36 CFG=1
M  V30 37 1 9 37 CFG=1
M  V30 38 1 11 38 CFG=1
M  V30 39 1 12 39
M  V30 40 1 12 40
M  V30 41 1 13 41
M  V30 42 1 14 42 CFG=3
M  V30 43 1 15 43
M  V30 44 1 18 44
M  V30 45 1 18 45
M  V30 46 1 19 46
M  V30 47 1 19 47
M  V30 48 1 19 48
M  V30 49 1 20 49 CFG=3
M  V30 50 1 21 50
M  V30 51 1 22 51 CFG=3
M  V30 52 1 23 52
M  V30 53 1 24 53
M  V30 54 1 25 54
M  V30 55 1 26 55
M  V30 56 1 26 56
M  V30 57 1 27 57
M  V30 58 1 27 58
M  V30 END BOND
M  V30 END CTAB
M  END
