
     RDKit          3D

  0  0  0  0  0  0  0  0  0  0999 V3000
M  V30 BEGIN CTAB
M  V30 COUNTS 38 38 0 0 0
M  V30 BEGIN ATOM
M  V30 1 C 5.65716 0.507832 0.932741 0
M  V30 2 C 5.088 0.34524 -0.45453 0
M  V30 3 C 3.6006 0.628904 -0.468433 0
M  V30 4 C 2.87236 -0.31563 0.448545 0
M  V30 5 C 1.41195 0.0191779 0.386916 0
M  V30 6 O 1.12973 1.19286 0.685536 0
M  V30 7 N 0.469851 -0.958821 0.0128316 0
M  V30 8 C -0.911608 -0.79671 -0.0840576 0
M  V30 9 C -1.65838 -1.79876 -0.724949 0
M  V30 10 C -3.02732 -1.73878 -0.85782 0
M  V30 11 C -3.70197 -0.651358 -0.342302 0
M  V30 12 C -3.00163 0.345538 0.29027 0
M  V30 13 C -1.60466 0.27937 0.423411 0
M  V30 14 S -3.88629 1.7162 0.93589 0
M  V30 15 O -4.80808 1.30107 2.04841 0
M  V30 16 O -2.88896 2.68109 1.55718 0
M  V30 17 N -4.74589 2.55171 -0.311245 0
M  V30 18 C -5.16627 -0.579449 -0.480409 0
M  V30 19 N 3.14009 -1.67614 0.0959646 0
M  V30 20 H 6.76672 0.323013 0.832697 0
M  V30 21 H 5.28686 -0.277233 1.61076 0
M  V30 22 H 5.46675 1.53715 1.29408 0
M  V30 23 H 5.3053 -0.690967 -0.784384 0
M  V30 24 H 5.5857 1.06816 -1.12836 0
M  V30 25 H 3.22079 0.630879 -1.49703 0
M  V30 26 H 3.46897 1.65083 -0.0527263 0
M  V30 27 H 3.25557 -0.146008 1.47648 0
M  V30 28 H 0.868791 -1.93485 -0.215493 0
M  V30 29 H -1.09439 -2.64369 -1.12262 0
M  V30 30 H -3.5869 -2.52046 -1.35492 0
M  V30 31 H -1.13863 1.08622 0.932899 0
M  V30 32 H -4.36109 2.36909 -1.25253 0
M  V30 33 H -5.76532 2.44794 -0.234422 0
M  V30 34 H -5.65168 -0.439841 0.520616 0
M  V30 35 H -5.52623 0.219798 -1.13307 0
M  V30 36 H -5.57021 -1.54369 -0.86453 0
M  V30 37 H 2.6565 -2.28588 0.795988 0
M  V30 38 H 2.84382 -1.90381 -0.872077 0
M  V30 END ATOM
M  V30 BEGIN BOND
M  V30 1 1 1 2
M  V30 2 1 2 3
M  V30 3 1 3 4
M  V30 4 1 4 5
M  V30 5 2 5 6
M  V30 6 1 5 7
M  V30 7 1 7 8
M  V30 8 2 8 9
M  V30 9 1 9 10
M  V30 10 2 10 11
M  V30 11 1 11 12
M  V30 12 2 12 13
M  V30 13 1 12 14
M  V30 14 2 14 15
M  V30 15 2 14 16
M  V30 16 1 14 17
M  V30 17 1 11 18
M  V30 18 1 4 19
M  V30 19 1 13 8
M  V30 20 1 1 20
M  V30 21 1 1 21
M  V30 22 1 1 22
M  V30 23 1 2 23
M  V30 24 1 2 24
M  V30 25 1 3 25
M  V30 26 1 3 26
M  V30 27 1 4 27
M  V30 28 1 7 28
M  V30 29 1 9 29
M  V30 30 1 10 30
M  V30 31 1 13 31
M  V30 32 1 17 32
M  V30 33 1 17 33
M  V30 34 1 18 34
M  V30 35 1 18 35
M  V30 36 1 18 36
M  V30 37 1 19 37
M  V30 38 1 19 38
M  V30 END BOND
M  V30 END CTAB
M  END
