
     RDKit          3D

  0  0  0  0  0  0  0  0  0  0999 V3000
M  V30 BEGIN CTAB
M  V30 COUNTS 34 34 0 0 0
M  V30 BEGIN ATOM
M  V30 1 N 5.3785 -0.21229 1.12264 0
M  V30 2 N 4.10708 0.293878 0.959338 0
M  V30 3 C 3.22604 -0.217397 0.159894 0
M  V30 4 N 1.93563 0.354825 0.0407055 0
M  V30 5 C 0.877301 -0.427617 -0.502422 0
M  V30 6 C -0.438576 0.285313 -0.577435 0
M  V30 7 O -0.368204 1.42977 -1.376 0
M  V30 8 C -0.862186 0.700793 0.78875 0
M  V30 9 C -2.05091 1.63377 0.718073 0
M  V30 10 C -3.19955 1.07569 -0.0518566 0
M  V30 11 C -3.46231 -0.381823 0.207975 0
M  V30 12 C -2.37517 -1.28399 -0.270814 0
M  V30 13 C -1.42814 -0.646232 -1.2443 0
M  V30 14 N 3.62387 -1.36678 -0.577948 0
M  V30 15 H 6.07599 -0.0822037 0.350671 0
M  V30 16 H 5.6997 -0.722828 1.97243 0
M  V30 17 H 1.79488 1.33438 0.353956 0
M  V30 18 H 1.16489 -0.674439 -1.56712 0
M  V30 19 H 0.763731 -1.35913 0.0543211 0
M  V30 20 H 0.195829 2.12951 -1.01214 0
M  V30 21 H -1.08188 -0.140812 1.47266 0
M  V30 22 H -0.0362954 1.27185 1.24935 0
M  V30 23 H -2.37476 1.79423 1.78644 0
M  V30 24 H -1.72163 2.56961 0.25259 0
M  V30 25 H -4.12254 1.62491 0.292614 0
M  V30 26 H -3.09826 1.32634 -1.12189 0
M  V30 27 H -3.62896 -0.510196 1.28664 0
M  V30 28 H -4.45297 -0.612638 -0.280329 0
M  V30 29 H -1.83032 -1.80596 0.563001 0
M  V30 30 H -2.87643 -2.12903 -0.82969 0
M  V30 31 H -0.89209 -1.49186 -1.76602 0
M  V30 32 H -2.02803 -0.156238 -2.02593 0
M  V30 33 H 4.18221 -1.3087 -1.44596 0
M  V30 34 H 3.30357 -2.2947 -0.169685 0
M  V30 END ATOM
M  V30 BEGIN BOND
M  V30 1 1 1 2
M  V30 2 2 2 3 CFG=2
M  V30 3 1 3 4
M  V30 4 1 4 5
M  V30 5 1 5 6
M  V30 6 1 6 7
M  V30 7 1 6 8
M  V30 8 1 8 9
M  V30 9 1 9 10
M  V30 10 1 10 11
M  V30 11 1 11 12
M  V30 12 1 12 13
M  V30 13 1 3 14
M  V30 14 1 13 6
M  V30 15 1 1 15
M  V30 16 1 1 16
M  V30 17 1 4 17
M  V30 18 1 5 18
M  V30 19 1 5 19
M  V30 20 1 7 20
M  V30 21 1 8 21
M  V30 22 1 8 22
M  V30 23 1 9 23
M  V30 24 1 9 24
M  V30 25 1 10 25
M  V30 26 1 10 26
M  V30 27 1 11 27
M  V30 28 1 11 28
M  V30 29 1 12 29
M  V30 30 1 12 30
M  V30 31 1 13 31
M  V30 32 1 13 32
M  V30 33 1 14 33
M  V30 34 1 14 34
M  V30 END BOND
M  V30 END CTAB
M  END
