
     RDKit          3D

  0  0  0  0  0  0  0  0  0  0999 V3000
M  V30 BEGIN CTAB
M  V30 COUNTS 34 34 0 0 0
M  V30 BEGIN ATOM
M  V30 1 N -3.88437 -1.89315 0.273829 0
M  V30 2 C -2.5998 -1.43217 -0.268167 0
M  V30 3 C -2.69331 0.0737095 -0.325957 0
M  V30 4 C -1.49388 0.73805 -0.84643 0
M  V30 5 O -1.63034 1.34311 -1.97319 0
M  V30 6 N -0.218146 0.795954 -0.271976 0
M  V30 7 C 0.868283 1.49194 -0.935563 0
M  V30 8 C 2.10911 0.622097 -0.994026 0
M  V30 9 N 2.2797 -0.252204 0.0697095 0
M  V30 10 C 1.1816 -0.874095 0.669509 0
M  V30 11 C 0.128865 0.201274 0.991706 0
M  V30 12 S 3.81973 -0.72038 0.514102 0
M  V30 13 O 3.77353 -1.73846 1.60166 0
M  V30 14 O 4.52769 -1.32079 -0.684328 0
M  V30 15 N 4.74057 0.657675 1.00414 0
M  V30 16 C -3.13674 0.634648 1.01641 0
M  V30 17 H -3.86667 -1.92143 1.31124 0
M  V30 18 H -4.63214 -1.26907 -0.097711 0
M  V30 19 H -1.77814 -1.83091 0.312155 0
M  V30 20 H -2.55017 -1.87205 -1.3022 0
M  V30 21 H -3.57119 0.283015 -1.01369 0
M  V30 22 H 0.555815 1.81608 -1.96236 0
M  V30 23 H 1.10894 2.37826 -0.29151 0
M  V30 24 H 2.1174 0.096245 -1.97878 0
M  V30 25 H 2.98593 1.33042 -1.04399 0
M  V30 26 H 1.51172 -1.33953 1.6387 0
M  V30 27 H 0.732947 -1.68979 0.0750094 0
M  V30 28 H -0.688027 -0.179177 1.59155 0
M  V30 29 H 0.719582 0.978681 1.56339 0
M  V30 30 H 5.01646 1.20876 0.166925 0
M  V30 31 H 4.16811 1.22943 1.64554 0
M  V30 32 H -2.40708 1.46124 1.25932 0
M  V30 33 H -4.11635 1.10404 0.965836 0
M  V30 34 H -3.07962 -0.111425 1.82695 0
M  V30 END ATOM
M  V30 BEGIN BOND
M  V30 1 1 1 2
M  V30 2 1 2 3
M  V30 3 1 3 4
M  V30 4 2 4 5
M  V30 5 1 4 6
M  V30 6 1 6 7
M  V30 7 1 7 8
M  V30 8 1 8 9
M  V30 9 1 9 10
M  V30 10 1 10 11
M  V30 11 1 9 12
M  V30 12 2 12 13
M  V30 13 2 12 14
M  V30 14 1 12 15
M  V30 15 1 3 16
M  V30 16 1 11 6
M  V30 17 1 1 17
M  V30 18 1 1 18
M  V30 19 1 2 19
M  V30 20 1 2 20
M  V30 21 1 3 21
M  V30 22 1 7 22
M  V30 23 1 7 23
M  V30 24 1 8 24
M  V30 25 1 8 25
M  V30 26 1 10 26
M  V30 27 1 10 27
M  V30 28 1 11 28
M  V30 29 1 11 29
M  V30 30 1 15 30
M  V30 31 1 15 31
M  V30 32 1 16 32
M  V30 33 1 16 33
M  V30 34 1 16 34
M  V30 END BOND
M  V30 END CTAB
M  END
