
     RDKit          3D

  0  0  0  0  0  0  0  0  0  0999 V3000
M  V30 BEGIN CTAB
M  V30 COUNTS 23 23 0 0 0
M  V30 BEGIN ATOM
M  V30 1 C 3.43179 -0.366219 0.642569 0
M  V30 2 C 1.98717 -0.250942 0.316161 0
M  V30 3 C 1.47426 0.99873 0.0341114 0
M  V30 4 C 0.146832 1.21749 -0.281325 0
M  V30 5 N -0.402293 2.47593 -0.572372 0
M  V30 6 C -0.667926 0.0874111 -0.301129 0
M  V30 7 C -0.144798 -1.15699 -0.0176049 0
M  V30 8 N 1.16566 -1.32137 0.286704 0
M  V30 9 C -1.07912 -2.32568 -0.0578138 0
M  V30 10 C -2.06832 0.225376 -0.621149 0
M  V30 11 S -2.67665 0.154346 -2.12952 0
M  V30 12 N -3.00821 0.440722 0.447614 0
M  V30 13 H 3.66769 0.188394 1.59376 0
M  V30 14 H 4.01411 0.150265 -0.148488 0
M  V30 15 H 3.69984 -1.43713 0.749296 0
M  V30 16 H 2.13128 1.85362 0.0578253 0
M  V30 17 H -1.24641 2.88196 -0.129877 0
M  V30 18 H 0.0749245 3.06055 -1.29655 0
M  V30 19 H -1.85453 -2.20561 -0.842883 0
M  V30 20 H -0.45211 -3.19163 -0.388601 0
M  V30 21 H -1.50737 -2.47995 0.942353 0
M  V30 22 H -2.92009 -0.126991 1.31952 0
M  V30 23 H -3.76572 1.12771 0.397398 0
M  V30 END ATOM
M  V30 BEGIN BOND
M  V30 1 1 1 2
M  V30 2 2 2 3
M  V30 3 1 3 4
M  V30 4 1 4 5
M  V30 5 2 4 6
M  V30 6 1 6 7
M  V30 7 2 7 8
M  V30 8 1 7 9
M  V30 9 1 6 10
M  V30 10 2 10 11
M  V30 11 1 10 12
M  V30 12 1 8 2
M  V30 13 1 1 13
M  V30 14 1 1 14
M  V30 15 1 1 15
M  V30 16 1 3 16
M  V30 17 1 5 17
M  V30 18 1 5 18
M  V30 19 1 9 19
M  V30 20 1 9 20
M  V30 21 1 9 21
M  V30 22 1 12 22
M  V30 23 1 12 23
M  V30 END BOND
M  V30 END CTAB
M  END
