
     RDKit          3D

  0  0  0  0  0  0  0  0  0  0999 V3000
M  V30 BEGIN CTAB
M  V30 COUNTS 37 38 0 0 0
M  V30 BEGIN ATOM
M  V30 1 C 3.41107 -1.03352 1.83128 0
M  V30 2 C 3.01935 -0.454333 0.519724 0
M  V30 3 C 1.7044 -0.366918 0.117055 0
M  V30 4 C 1.37388 0.182073 -1.11949 0
M  V30 5 N 0.0372999 0.298769 -1.58684 0
M  V30 6 C -1.08962 0.0193322 -0.754875 0
M  V30 7 C -1.44868 -1.33355 -0.642113 0
M  V30 8 N -0.69602 -2.31578 -1.31825 0
M  V30 9 C -2.54122 -1.62597 0.141468 0
M  V30 10 C -3.25086 -0.63885 0.786028 0
M  V30 11 C -2.85528 0.669876 0.64035 0
M  V30 12 C -1.75037 1.03327 -0.144868 0
M  V30 13 S -1.28975 2.69201 -0.333799 0
M  V30 14 N 0.273649 3.07639 0.209651 0
M  V30 15 O -1.4056 3.13662 -1.78212 0
M  V30 16 O -2.32968 3.53904 0.393702 0
M  V30 17 C -4.39382 -0.93473 1.60748 0
M  V30 18 O -4.84547 -2.2489 1.79453 0
M  V30 19 O -5.0478 -0.0395176 2.19982 0
M  V30 20 C 2.41871 0.61947 -1.89144 0
M  V30 21 C 3.74642 0.54694 -1.51876 0
M  V30 22 C 4.05635 -0.00195032 -0.285788 0
M  V30 23 H 4.16641 -0.389273 2.31714 0
M  V30 24 H 3.87514 -2.03568 1.64073 0
M  V30 25 H 2.52354 -1.18528 2.48435 0
M  V30 26 H 0.902128 -0.726611 0.761154 0
M  V30 27 H -0.104091 0.599463 -2.57398 0
M  V30 28 H -0.423049 -3.17825 -0.827982 0
M  V30 29 H -0.426277 -2.15785 -2.30148 0
M  V30 30 H -2.84167 -2.66407 0.246632 0
M  V30 31 H -3.39328 1.48838 1.13708 0
M  V30 32 H 0.582645 2.4381 0.994924 0
M  V30 33 H 0.335942 4.08282 0.550254 0
M  V30 34 H -4.16342 -3.01284 1.76636 0
M  V30 35 H 2.24439 1.06614 -2.8821 0
M  V30 36 H 4.53501 0.913929 -2.1808 0
M  V30 37 H 5.0896 -0.0587309 0.0049671 0
M  V30 END ATOM
M  V30 BEGIN BOND
M  V30 1 1 1 2
M  V30 2 2 2 3
M  V30 3 1 3 4
M  V30 4 1 4 5
M  V30 5 1 5 6
M  V30 6 2 6 7
M  V30 7 1 7 8
M  V30 8 1 7 9
M  V30 9 2 9 10
M  V30 10 1 10 11
M  V30 11 2 11 12
M  V30 12 1 12 13
M  V30 13 1 13 14
M  V30 14 2 13 15
M  V30 15 2 13 16
M  V30 16 1 10 17
M  V30 17 1 17 18
M  V30 18 2 17 19
M  V30 19 2 4 20
M  V30 20 1 20 21
M  V30 21 2 21 22
M  V30 22 1 22 2
M  V30 23 1 12 6
M  V30 24 1 1 23
M  V30 25 1 1 24
M  V30 26 1 1 25
M  V30 27 1 3 26
M  V30 28 1 5 27
M  V30 29 1 8 28
M  V30 30 1 8 29
M  V30 31 1 9 30
M  V30 32 1 11 31
M  V30 33 1 14 32
M  V30 34 1 14 33
M  V30 35 1 18 34
M  V30 36 1 20 35
M  V30 37 1 21 36
M  V30 38 1 22 37
M  V30 END BOND
M  V30 END CTAB
M  END
