
     RDKit          3D

  0  0  0  0  0  0  0  0  0  0999 V3000
M  V30 BEGIN CTAB
M  V30 COUNTS 37 38 0 0 0
M  V30 BEGIN ATOM
M  V30 1 N -3.26183 -2.88756 0.143704 0
M  V30 2 C -2.46827 -1.94663 -0.632489 0
M  V30 3 C -1.68505 -1.05223 0.297899 0
M  V30 4 N -0.877121 -0.0665438 -0.370327 0
M  V30 5 C -1.77575 0.92019 -0.901465 0
M  V30 6 C -2.2044 1.75873 0.317539 0
M  V30 7 C -1.37079 3.02033 0.283316 0
M  V30 8 O -0.245824 2.7423 -0.410953 0
M  V30 9 C 0.639313 1.84846 0.0224756 0
M  V30 10 C 0.242823 0.432478 0.341672 0 CFG=2
M  V30 11 C 1.50858 -0.365646 0.133552 0
M  V30 12 C 1.52616 -1.68936 -0.122303 0
M  V30 13 C 2.71113 -2.40777 -0.29295 0
M  V30 14 N 3.88485 -1.77095 -0.202 0
M  V30 15 C 3.9476 -0.451703 0.0503756 0
M  V30 16 C 2.74727 0.254642 0.2199 0
M  V30 17 N 5.179 0.232242 0.144941 0
M  V30 18 H -3.69789 -3.60905 -0.40801 0
M  V30 19 H -3.95916 -2.36978 0.679324 0
M  V30 20 H -3.19426 -1.34385 -1.19197 0
M  V30 21 H -1.78439 -2.51034 -1.31898 0
M  V30 22 H -2.53161 -0.547334 0.885901 0
M  V30 23 H -1.16916 -1.6013 1.11255 0
M  V30 24 H -2.64592 0.482007 -1.36335 0
M  V30 25 H -1.27407 1.56914 -1.66427 0
M  V30 26 H -1.89661 1.2721 1.2806 0
M  V30 27 H -3.27379 1.91902 0.348437 0
M  V30 28 H -1.9608 3.76225 -0.306419 0
M  V30 29 H -1.21802 3.41515 1.30435 0
M  V30 30 H 1.16724 2.26986 0.90712 0
M  V30 31 H 1.4365 1.83286 -0.791211 0
M  V30 32 H 0.026369 0.350415 1.42195 0
M  V30 33 H 0.646998 -2.26517 -0.216543 0
M  V30 34 H 2.70359 -3.46305 -0.495406 0
M  V30 35 H 2.87389 1.30536 0.43626 0
M  V30 36 H 5.88072 -0.0636152 0.837889 0
M  V30 37 H 5.37268 1.02433 -0.481112 0
M  V30 END ATOM
M  V30 BEGIN BOND
M  V30 1 1 1 2
M  V30 2 1 2 3
M  V30 3 1 3 4
M  V30 4 1 4 5
M  V30 5 1 5 6
M  V30 6 1 6 7
M  V30 7 1 7 8
M  V30 8 1 8 9
M  V30 9 1 9 10
M  V30 10 1 10 11
M  V30 11 2 11 12
M  V30 12 1 12 13
M  V30 13 2 13 14
M  V30 14 1 14 15
M  V30 15 2 15 16
M  V30 16 1 15 17
M  V30 17 1 10 4
M  V30 18 1 16 11
M  V30 19 1 1 18
M  V30 20 1 1 19
M  V30 21 1 2 20
M  V30 22 1 2 21
M  V30 23 1 3 22
M  V30 24 1 3 23
M  V30 25 1 5 24
M  V30 26 1 5 25
M  V30 27 1 6 26
M  V30 28 1 6 27
M  V30 29 1 7 28
M  V30 30 1 7 29
M  V30 31 1 9 30
M  V30 32 1 9 31
M  V30 33 1 10 32 CFG=1
M  V30 34 1 12 33
M  V30 35 1 13 34
M  V30 36 1 16 35
M  V30 37 1 17 36
M  V30 38 1 17 37
M  V30 END BOND
M  V30 END CTAB
M  END
