
     RDKit          3D

  0  0  0  0  0  0  0  0  0  0999 V3000
M  V30 BEGIN CTAB
M  V30 COUNTS 100 105 0 0 0
M  V30 BEGIN ATOM
M  V30 1 C 4.79874 0.571153 -4.07989 0
M  V30 2 C 5.29905 -0.747383 -3.53081 0
M  V30 3 C 4.95134 -0.948879 -2.10021 0
M  V30 4 C 5.88895 -0.883454 -1.15774 0
M  V30 5 O 7.20727 -0.616135 -1.59613 0
M  V30 6 C 5.63525 -1.06548 0.240533 0
M  V30 7 O 6.52309 -1.00275 1.11926 0
M  V30 8 C 4.25555 -1.34306 0.690836 0
M  V30 9 C 3.99891 -1.51495 1.95766 0
M  V30 10 N 5.06271 -1.43092 2.89404 0
M  V30 11 C 5.11198 -0.248387 3.7207 0
M  V30 12 C 4.11125 0.715429 3.64452 0
M  V30 13 C 4.10772 1.85573 4.40766 0
M  V30 14 C 5.12594 2.08931 5.29997 0
M  V30 15 C 6.1243 1.12126 5.37102 0
M  V30 16 C 6.12964 -0.0183711 4.61005 0
M  V30 17 S 5.15739 3.52835 6.29423 0
M  V30 18 O 3.71818 3.97127 6.4929 0
M  V30 19 O 5.71917 3.24136 7.65243 0
M  V30 20 N 5.97053 4.82662 5.49976 0
M  V30 21 C 3.20976 -1.41414 -0.348778 0
M  V30 22 C 3.57627 -1.21762 -1.70157 0
M  V30 23 C 2.56779 -1.27007 -2.63677 0
M  V30 24 C 1.26911 -1.50566 -2.25071 0
M  V30 25 C 0.22822 -1.55318 -3.31755 0
M  V30 26 C 0.909679 -1.69688 -0.95046 0
M  V30 27 C 1.92477 -1.64687 0.0209077 0
M  V30 28 O 1.52161 -1.8449 1.31638 0
M  V30 29 C -0.489984 -1.92479 -0.605852 0
M  V30 30 C -0.986371 -3.19456 -0.637378 0
M  V30 31 C -0.142414 -4.35683 -1.01589 0
M  V30 32 C -2.31901 -3.38753 -0.305582 0
M  V30 33 C -3.11362 -2.31938 0.0447337 0
M  V30 34 C -2.57873 -1.02215 0.0715013 0
M  V30 35 C -1.25767 -0.824529 -0.256853 0
M  V30 36 O -0.612187 0.377668 -0.2729 0
M  V30 37 C -3.40587 0.0888837 0.467059 0
M  V30 38 C -2.96121 1.32349 0.507746 0
M  V30 39 N -3.89023 2.35701 0.925221 0
M  V30 40 C -4.44379 3.31057 0.0762282 0
M  V30 41 C -5.33554 4.23341 0.560261 0
M  V30 42 C -5.90673 5.21079 -0.243499 0
M  V30 43 C -5.53867 5.22201 -1.57262 0
M  V30 44 C -4.65707 4.32456 -2.09484 0
M  V30 45 C -4.10251 3.35339 -1.2517 0
M  V30 46 S -6.29055 6.48506 -2.5551 0
M  V30 47 O -6.70705 7.65109 -1.67038 0
M  V30 48 O -5.36295 7.00067 -3.60411 0
M  V30 49 N -7.74095 5.81654 -3.21069 0
M  V30 50 C -4.79177 -0.214244 0.82496 0
M  V30 51 O -5.57056 0.677699 1.17587 0
M  V30 52 C -5.31423 -1.59667 0.780232 0
M  V30 53 C -4.53205 -2.57617 0.415772 0
M  V30 54 C -5.01182 -3.96674 0.388971 0
M  V30 55 C -5.05235 -4.46723 -1.08138 0
M  V30 56 C -6.38757 -4.19324 0.95961 0
M  V30 57 O -6.6417 -1.79137 1.13452 0
M  V30 58 C 5.06198 -1.91299 -4.42318 0
M  V30 59 H 5.55321 1.34468 -4.19569 0
M  V30 60 H 4.37453 0.379802 -5.10736 0
M  V30 61 H 4.00384 0.958088 -3.40793 0
M  V30 62 H 6.42439 -0.609196 -3.55206 0
M  V30 63 H 7.98291 -0.535357 -0.96202 0
M  V30 64 H 3.06551 -1.71523 2.36672 0
M  V30 65 H 5.77889 -2.15033 3.0343 0
M  V30 66 H 3.29709 0.525199 2.92846 0
M  V30 67 H 3.31968 2.5799 4.32489 0
M  V30 68 H 6.91851 1.35227 6.09963 0
M  V30 69 H 6.92857 -0.728877 4.7099 0
M  V30 70 H 5.34236 5.26262 4.76815 0
M  V30 71 H 6.21654 5.54413 6.24512 0
M  V30 72 H 2.81885 -1.10936 -3.67846 0
M  V30 73 H 0.502971 -0.907641 -4.17615 0
M  V30 74 H 0.268618 -2.61158 -3.70705 0
M  V30 75 H -0.780924 -1.38679 -2.93342 0
M  V30 76 H 0.578361 -2.01672 1.60143 0
M  V30 77 H -0.235261 -5.19354 -0.294854 0
M  V30 78 H -0.422014 -4.75883 -2.01517 0
M  V30 79 H 0.911799 -4.01062 -1.00614 0
M  V30 80 H -2.69522 -4.40707 -0.311065 0
M  V30 81 H 0.343306 0.529658 -0.506596 0
M  V30 82 H -1.97401 1.58661 0.2507 0
M  V30 83 H -4.11578 2.35943 1.94323 0
M  V30 84 H -5.65353 4.25513 1.61434 0
M  V30 85 H -6.60454 5.91994 0.174201 0
M  V30 86 H -4.39911 4.36914 -3.13598 0
M  V30 87 H -3.40422 2.66411 -1.72215 0
M  V30 88 H -8.59251 6.36926 -2.96128 0
M  V30 89 H -7.62731 5.86866 -4.26387 0
M  V30 90 H -4.29421 -4.61263 0.903429 0
M  V30 91 H -4.50391 -3.79643 -1.74761 0
M  V30 92 H -4.64183 -5.48069 -1.16299 0
M  V30 93 H -6.11885 -4.51181 -1.35746 0
M  V30 94 H -6.48525 -3.91651 2.02243 0
M  V30 95 H -7.20138 -3.86614 0.300541 0
M  V30 96 H -6.55856 -5.34218 1.01262 0
M  V30 97 H -7.37326 -1.12246 0.893962 0
M  V30 98 H 4.54322 -2.76301 -3.91419 0
M  V30 99 H 5.98714 -2.3815 -4.84699 0
M  V30 100 H 4.50043 -1.56993 -5.32057 0
M  V30 END ATOM
M  V30 BEGIN BOND
M  V30 1 1 1 2
M  V30 2 1 2 3
M  V30 3 2 3 4
M  V30 4 1 4 5
M  V30 5 1 4 6
M  V30 6 2 6 7
M  V30 7 1 6 8
M  V30 8 2 8 9
M  V30 9 1 9 10
M  V30 10 1 10 11
M  V30 11 2 11 12
M  V30 12 1 12 13
M  V30 13 2 13 14
M  V30 14 1 14 15
M  V30 15 2 15 16
M  V30 16 1 14 17
M  V30 17 2 17 18
M  V30 18 2 17 19
M  V30 19 1 17 20
M  V30 20 1 8 21
M  V30 21 2 21 22
M  V30 22 1 22 23
M  V30 23 2 23 24
M  V30 24 1 24 25
M  V30 25 1 24 26
M  V30 26 2 26 27
M  V30 27 1 27 28
M  V30 28 1 26 29
M  V30 29 2 29 30
M  V30 30 1 30 31
M  V30 31 1 30 32
M  V30 32 2 32 33
M  V30 33 1 33 34
M  V30 34 2 34 35
M  V30 35 1 35 36
M  V30 36 1 34 37
M  V30 37 2 37 38
M  V30 38 1 38 39
M  V30 39 1 39 40
M  V30 40 2 40 41
M  V30 41 1 41 42
M  V30 42 2 42 43
M  V30 43 1 43 44
M  V30 44 2 44 45
M  V30 45 1 43 46
M  V30 46 2 46 47
M  V30 47 2 46 48
M  V30 48 1 46 49
M  V30 49 1 37 50
M  V30 50 2 50 51
M  V30 51 1 50 52
M  V30 52 2 52 53
M  V30 53 1 53 54
M  V30 54 1 54 55
M  V30 55 1 54 56
M  V30 56 1 52 57
M  V30 57 1 2 58
M  V30 58 1 22 3
M  V30 59 1 35 29
M  V30 60 1 45 40
M  V30 61 1 16 11
M  V30 62 1 27 21
M  V30 63 1 53 33
M  V30 64 1 1 59
M  V30 65 1 1 60
M  V30 66 1 1 61
M  V30 67 1 2 62
M  V30 68 1 5 63
M  V30 69 1 9 64
M  V30 70 1 10 65
M  V30 71 1 12 66
M  V30 72 1 13 67
M  V30 73 1 15 68
M  V30 74 1 16 69
M  V30 75 1 20 70
M  V30 76 1 20 71
M  V30 77 1 23 72
M  V30 78 1 25 73
M  V30 79 1 25 74
M  V30 80 1 25 75
M  V30 81 1 28 76
M  V30 82 1 31 77
M  V30 83 1 31 78
M  V30 84 1 31 79
M  V30 85 1 32 80
M  V30 86 1 36 81
M  V30 87 1 38 82
M  V30 88 1 39 83
M  V30 89 1 41 84
M  V30 90 1 42 85
M  V30 91 1 44 86
M  V30 92 1 45 87
M  V30 93 1 49 88
M  V30 94 1 49 89
M  V30 95 1 54 90
M  V30 96 1 55 91
M  V30 97 1 55 92
M  V30 98 1 55 93
M  V30 99 1 56 94
M  V30 100 1 56 95
M  V30 101 1 56 96
M  V30 102 1 57 97
M  V30 103 1 58 98
M  V30 104 1 58 99
M  V30 105 1 58 100
M  V30 END BOND
M  V30 END CTAB
M  END
