
     RDKit          3D

  0  0  0  0  0  0  0  0  0  0999 V3000
M  V30 BEGIN CTAB
M  V30 COUNTS 33 34 0 0 0
M  V30 BEGIN ATOM
M  V30 1 O 0.138516 -1.74253 -1.05579 0
M  V30 2 C 0.0146151 -1.79234 0.182137 0
M  V30 3 O -1.34079 -1.80341 0.612411 0
M  V30 4 N -2.34894 -1.76046 -0.314764 0
M  V30 5 C -3.07619 -0.694938 -0.343985 0
M  V30 6 C -2.8505 0.422673 0.560422 0
M  V30 7 N -1.88607 0.489401 1.51395 0
M  V30 8 O -1.99258 1.62977 2.1183 0
M  V30 9 N -2.97475 2.33242 1.62372 0
M  V30 10 C -3.53516 1.60344 0.642841 0
M  V30 11 N -4.64189 1.93436 -0.199452 0
M  V30 12 N -4.14855 -0.577691 -1.28484 0
M  V30 13 C 1.09707 -1.83829 1.18176 0
M  V30 14 C 2.48741 -1.79908 0.698653 0
M  V30 15 C 2.85727 -0.580891 -0.0603073 0
M  V30 16 C 3.18825 0.593921 0.625361 0
M  V30 17 C 3.5671 1.72272 -0.046124 0
M  V30 18 C 3.63921 1.75302 -1.41694 0
M  V30 19 C 3.32063 0.615252 -2.11235 0
M  V30 20 C 2.93869 -0.522746 -1.42603 0
M  V30 21 H -4.57214 1.98067 -1.24098 0
M  V30 22 H -5.54319 2.13043 0.309909 0
M  V30 23 H -5.11682 -0.631147 -0.895687 0
M  V30 24 H -4.01657 -0.446747 -2.29864 0
M  V30 25 H 0.908173 -2.69822 1.8947 0
M  V30 26 H 0.944367 -0.936534 1.86245 0
M  V30 27 H 2.78435 -2.71716 0.117067 0
M  V30 28 H 3.15295 -1.80773 1.61675 0
M  V30 29 H 3.13647 0.583193 1.68587 0
M  V30 30 H 3.82038 2.62569 0.50235 0
M  V30 31 H 3.94575 2.67398 -1.91535 0
M  V30 32 H 3.3835 0.658137 -3.19685 0
M  V30 33 H 2.71943 -1.39915 -2.04242 0
M  V30 END ATOM
M  V30 BEGIN BOND
M  V30 1 2 1 2
M  V30 2 1 2 3
M  V30 3 1 3 4
M  V30 4 2 4 5
M  V30 5 1 5 6
M  V30 6 2 6 7
M  V30 7 1 7 8
M  V30 8 1 8 9
M  V30 9 2 9 10
M  V30 10 1 10 11
M  V30 11 1 5 12
M  V30 12 1 2 13
M  V30 13 1 13 14
M  V30 14 1 14 15
M  V30 15 2 15 16
M  V30 16 1 16 17
M  V30 17 2 17 18
M  V30 18 1 18 19
M  V30 19 2 19 20
M  V30 20 1 10 6
M  V30 21 1 20 15
M  V30 22 1 11 21
M  V30 23 1 11 22
M  V30 24 1 12 23
M  V30 25 1 12 24
M  V30 26 1 13 25
M  V30 27 1 13 26
M  V30 28 1 14 27
M  V30 29 1 14 28
M  V30 30 1 16 29
M  V30 31 1 17 30
M  V30 32 1 18 31
M  V30 33 1 19 32
M  V30 34 1 20 33
M  V30 END BOND
M  V30 END CTAB
M  END
