
     RDKit          3D

  0  0  0  0  0  0  0  0  0  0999 V3000
M  V30 BEGIN CTAB
M  V30 COUNTS 35 36 0 0 0
M  V30 BEGIN ATOM
M  V30 1 N -3.06182 -0.605141 2.13905 0
M  V30 2 C -2.82106 0.0738887 0.912398 0
M  V30 3 C -1.4216 -0.246803 0.433922 0
M  V30 4 N -1.17788 0.439152 -0.795754 0
M  V30 5 C -1.96966 -0.0743712 -1.89765 0
M  V30 6 C -1.62503 -1.53606 -2.17 0
M  V30 7 O -0.268227 -1.7314 -1.8894 0
M  V30 8 C 0.474855 -0.585125 -2.16608 0
M  V30 9 C 0.211069 0.520927 -1.19144 0 CFG=2
M  V30 10 C 1.17168 0.730087 -0.130835 0
M  V30 11 C 1.0249 1.8245 0.719967 0
M  V30 12 C 1.87497 2.08626 1.74482 0
M  V30 13 C 2.93778 1.25417 1.98047 0
M  V30 14 C 3.13058 0.161504 1.17406 0
M  V30 15 C 2.23841 -0.0916046 0.118226 0
M  V30 16 N 4.23709 -0.69851 1.42585 0
M  V30 17 H -3.1035 -1.58904 2.12907 0
M  V30 18 H -3.60909 -0.0849989 2.77935 0
M  V30 19 H -2.99829 1.13583 1.07778 0
M  V30 20 H -3.59041 -0.279151 0.183271 0
M  V30 21 H -1.44496 -1.36202 0.2382 0
M  V30 22 H -0.705411 -0.0756505 1.23975 0
M  V30 23 H -3.03163 0.0371245 -1.72851 0
M  V30 24 H -1.66275 0.486508 -2.80338 0
M  V30 25 H -2.25208 -2.14381 -1.48747 0
M  V30 26 H -1.85121 -1.82267 -3.19619 0
M  V30 27 H 0.180131 -0.278478 -3.20898 0
M  V30 28 H 1.53574 -0.855108 -2.14266 0
M  V30 29 H 0.218625 1.46556 -1.85162 0
M  V30 30 H 0.191454 2.52076 0.574379 0
M  V30 31 H 1.74069 2.94098 2.39109 0
M  V30 32 H 3.64705 1.43225 2.79904 0
M  V30 33 H 2.4666 -0.961685 -0.444923 0
M  V30 34 H 4.10956 -1.73491 1.44303 0
M  V30 35 H 5.20343 -0.352966 1.60116 0
M  V30 END ATOM
M  V30 BEGIN BOND
M  V30 1 1 1 2
M  V30 2 1 2 3
M  V30 3 1 3 4
M  V30 4 1 4 5
M  V30 5 1 5 6
M  V30 6 1 6 7
M  V30 7 1 7 8
M  V30 8 1 8 9
M  V30 9 1 9 10
M  V30 10 2 10 11
M  V30 11 1 11 12
M  V30 12 2 12 13
M  V30 13 1 13 14
M  V30 14 2 14 15
M  V30 15 1 14 16
M  V30 16 1 9 4
M  V30 17 1 15 10
M  V30 18 1 1 17
M  V30 19 1 1 18
M  V30 20 1 2 19
M  V30 21 1 2 20
M  V30 22 1 3 21
M  V30 23 1 3 22
M  V30 24 1 5 23
M  V30 25 1 5 24
M  V30 26 1 6 25
M  V30 27 1 6 26
M  V30 28 1 8 27
M  V30 29 1 8 28
M  V30 30 1 9 29 CFG=3
M  V30 31 1 11 30
M  V30 32 1 12 31
M  V30 33 1 13 32
M  V30 34 1 15 33
M  V30 35 1 16 34
M  V30 36 1 16 35
M  V30 END BOND
M  V30 END CTAB
M  END
