
     RDKit          3D

  0  0  0  0  0  0  0  0  0  0999 V3000
M  V30 BEGIN CTAB
M  V30 COUNTS 40 41 0 0 0
M  V30 BEGIN ATOM
M  V30 1 C 5.51301 -0.73786 -0.458585 0
M  V30 2 C 4.29538 0.123744 -0.544137 0
M  V30 3 C 4.41386 1.432 -0.921815 0
M  V30 4 C 3.28135 2.21312 -0.991266 0
M  V30 5 C 2.01944 1.75365 -0.700144 0
M  V30 6 C 1.89546 0.399244 -0.307516 0
M  V30 7 C 3.02962 -0.375053 -0.241237 0
M  V30 8 N 0.594412 -0.0531249 -0.00968272 0
M  V30 9 C 0.113972 -1.28167 0.489599 0
M  V30 10 S 1.07819 -2.52426 0.776113 0
M  V30 11 N -1.28078 -1.40076 0.702272 0
M  V30 12 C -2.15517 -0.260932 0.544425 0
M  V30 13 C -2.05959 0.843089 1.35798 0
M  V30 14 C -2.92212 1.91921 1.20479 0
M  V30 15 C -3.87797 1.84053 0.206421 0
M  V30 16 C -4.01763 0.750463 -0.641506 0
M  V30 17 C -3.1191 -0.299533 -0.436102 0
M  V30 18 N -5.02762 0.714396 -1.64363 0
M  V30 19 C -1.90156 -2.58352 1.0986 0
M  V30 20 O -3.19407 -2.49891 1.25134 0
M  V30 21 C -1.28591 -3.89165 1.36141 0
M  V30 22 N 0.891149 2.62329 -0.790274 0
M  V30 23 H 5.26871 -1.77704 -0.687039 0
M  V30 24 H 5.92116 -0.710035 0.559749 0
M  V30 25 H 6.30447 -0.322695 -1.12642 0
M  V30 26 H 5.37891 1.85252 -1.16119 0
M  V30 27 H 3.34813 3.27486 -1.29016 0
M  V30 28 H 3.0333 -1.41421 0.0353284 0
M  V30 29 H -0.158922 0.700385 -0.248894 0
M  V30 30 H -1.28622 0.838373 2.11561 0
M  V30 31 H -2.83173 2.78305 1.85031 0
M  V30 32 H -4.57892 2.67035 0.0512622 0
M  V30 33 H -3.2032 -1.17359 -1.08745 0
M  V30 34 H -4.92392 0.372461 -2.59932 0
M  V30 35 H -5.97021 1.08175 -1.34794 0
M  V30 36 H -0.794655 -4.30542 0.47977 0
M  V30 37 H -2.13596 -4.62753 1.58807 0
M  V30 38 H -0.611519 -3.85221 2.2102 0
M  V30 39 H 0.907916 3.52722 -0.289555 0
M  V30 40 H 0.0483351 2.37629 -1.3427 0
M  V30 END ATOM
M  V30 BEGIN BOND
M  V30 1 1 1 2
M  V30 2 2 2 3
M  V30 3 1 3 4
M  V30 4 2 4 5
M  V30 5 1 5 6
M  V30 6 2 6 7
M  V30 7 1 6 8
M  V30 8 1 8 9
M  V30 9 2 9 10
M  V30 10 1 9 11
M  V30 11 1 11 12
M  V30 12 2 12 13
M  V30 13 1 13 14
M  V30 14 2 14 15
M  V30 15 1 15 16
M  V30 16 2 16 17
M  V30 17 1 16 18
M  V30 18 1 11 19
M  V30 19 2 19 20
M  V30 20 1 19 21
M  V30 21 1 5 22
M  V30 22 1 7 2
M  V30 23 1 17 12
M  V30 24 1 1 23
M  V30 25 1 1 24
M  V30 26 1 1 25
M  V30 27 1 3 26
M  V30 28 1 4 27
M  V30 29 1 7 28
M  V30 30 1 8 29
M  V30 31 1 13 30
M  V30 32 1 14 31
M  V30 33 1 15 32
M  V30 34 1 17 33
M  V30 35 1 18 34
M  V30 36 1 18 35
M  V30 37 1 21 36
M  V30 38 1 21 37
M  V30 39 1 21 38
M  V30 40 1 22 39
M  V30 41 1 22 40
M  V30 END BOND
M  V30 END CTAB
M  END
