
     RDKit          3D

  0  0  0  0  0  0  0  0  0  0999 V3000
M  V30 BEGIN CTAB
M  V30 COUNTS 36 37 0 0 0
M  V30 BEGIN ATOM
M  V30 1 N 6.22177 2.13609 0.52345 0
M  V30 2 C 5.14023 1.23803 0.308562 0
M  V30 3 N 3.87202 1.48454 0.625143 0
M  V30 4 C 2.86529 0.605838 0.406405 0
M  V30 5 S 1.18413 1.00772 0.858918 0
M  V30 6 C 0.149604 -0.412201 0.408 0
M  V30 7 C -1.30179 -0.134868 0.768243 0
M  V30 8 C -1.73769 1.08079 0.0072037 0
M  V30 9 C -3.16401 1.46435 0.289255 0
M  V30 10 C -4.11144 0.607121 -0.492527 0
M  V30 11 C -4.54448 -0.633856 0.211854 0
M  V30 12 C -3.46599 -1.32444 0.97856 0
M  V30 13 C -2.13201 -1.30987 0.292447 0
M  V30 14 N 3.20572 -0.569573 -0.163863 0
M  V30 15 C 4.46728 -0.870023 -0.502946 0
M  V30 16 N 5.43163 0.0350367 -0.265704 0
M  V30 17 N 4.8113 -2.11138 -1.10265 0
M  V30 18 H 6.72932 2.15548 1.43325 0
M  V30 19 H 6.51175 2.78991 -0.250013 0
M  V30 20 H 0.503303 -1.32441 0.950091 0
M  V30 21 H 0.258849 -0.650321 -0.670076 0
M  V30 22 H -1.37024 0.0124443 1.865 0
M  V30 23 H -1.6265 0.892491 -1.06964 0
M  V30 24 H -1.05214 1.92511 0.263755 0
M  V30 25 H -3.29559 2.51995 -0.0186833 0
M  V30 26 H -3.31239 1.38943 1.38554 0
M  V30 27 H -3.67931 0.382443 -1.49209 0
M  V30 28 H -5.03874 1.21041 -0.703286 0
M  V30 29 H -5.3686 -0.400547 0.938228 0
M  V30 30 H -4.90669 -1.35875 -0.570382 0
M  V30 31 H -3.39857 -0.887866 2.0173 0
M  V30 32 H -3.79258 -2.39141 1.14864 0
M  V30 33 H -2.28557 -1.17113 -0.799509 0
M  V30 34 H -1.63609 -2.27583 0.499683 0
M  V30 35 H 4.81238 -2.17617 -2.15617 0
M  V30 36 H 5.05584 -2.93453 -0.50587 0
M  V30 END ATOM
M  V30 BEGIN BOND
M  V30 1 1 1 2
M  V30 2 2 2 3
M  V30 3 1 3 4
M  V30 4 1 4 5
M  V30 5 1 5 6
M  V30 6 1 6 7
M  V30 7 1 7 8
M  V30 8 1 8 9
M  V30 9 1 9 10
M  V30 10 1 10 11
M  V30 11 1 11 12
M  V30 12 1 12 13
M  V30 13 2 4 14
M  V30 14 1 14 15
M  V30 15 2 15 16
M  V30 16 1 15 17
M  V30 17 1 16 2
M  V30 18 1 13 7
M  V30 19 1 1 18
M  V30 20 1 1 19
M  V30 21 1 6 20
M  V30 22 1 6 21
M  V30 23 1 7 22
M  V30 24 1 8 23
M  V30 25 1 8 24
M  V30 26 1 9 25
M  V30 27 1 9 26
M  V30 28 1 10 27
M  V30 29 1 10 28
M  V30 30 1 11 29
M  V30 31 1 11 30
M  V30 32 1 12 31
M  V30 33 1 12 32
M  V30 34 1 13 33
M  V30 35 1 13 34
M  V30 36 1 17 35
M  V30 37 1 17 36
M  V30 END BOND
M  V30 END CTAB
M  END
