
     RDKit          3D

  0  0  0  0  0  0  0  0  0  0999 V3000
M  V30 BEGIN CTAB
M  V30 COUNTS 34 35 0 0 0
M  V30 BEGIN ATOM
M  V30 1 N 3.39478 1.92542 -1.69519 0
M  V30 2 C 3.1775 0.821743 -0.837082 0
M  V30 3 N 2.07554 0.0519203 -0.890644 0
M  V30 4 C 1.843 -1.01152 -0.106772 0
M  V30 5 S 0.408165 -2.04728 -0.162084 0
M  V30 6 C -0.894745 -1.56767 -1.24542 0
M  V30 7 C -1.83849 -0.545513 -0.706708 0
M  V30 8 C -1.30788 0.763673 -0.283201 0
M  V30 9 C -2.33925 1.44834 0.644865 0
M  V30 10 C -3.74514 1.00613 0.324268 0
M  V30 11 C -3.94033 -0.483621 0.530159 0
M  V30 12 C -2.57972 -1.16518 0.49535 0
M  V30 13 N 2.81103 -1.31912 0.811202 0
M  V30 14 C 3.94698 -0.618179 0.950675 0
M  V30 15 C 4.13118 0.475505 0.10789 0
M  V30 16 N 4.92627 -0.970135 1.9194 0
M  V30 17 H 3.24371 2.88041 -1.36681 0
M  V30 18 H 3.70276 1.74883 -2.6631 0
M  V30 19 H -1.53721 -2.49134 -1.44612 0
M  V30 20 H -0.505488 -1.25321 -2.25972 0
M  V30 21 H -2.66399 -0.41568 -1.4819 0
M  V30 22 H -1.13779 1.49499 -1.09865 0
M  V30 23 H -0.397165 0.724342 0.328499 0
M  V30 24 H -2.0825 1.14615 1.69642 0
M  V30 25 H -2.26274 2.53129 0.580839 0
M  V30 26 H -3.99379 1.3261 -0.696523 0
M  V30 27 H -4.39945 1.57401 1.0319 0
M  V30 28 H -4.51386 -0.916625 -0.337656 0
M  V30 29 H -4.42095 -0.757051 1.4623 0
M  V30 30 H -2.68358 -2.23025 0.256347 0
M  V30 31 H -1.98946 -0.993237 1.41355 0
M  V30 32 H 5.03519 1.05437 0.194508 0
M  V30 33 H 5.9194 -0.97111 1.66409 0
M  V30 34 H 4.61801 -1.21649 2.86532 0
M  V30 END ATOM
M  V30 BEGIN BOND
M  V30 1 1 1 2
M  V30 2 2 2 3
M  V30 3 1 3 4
M  V30 4 1 4 5
M  V30 5 1 5 6
M  V30 6 1 6 7
M  V30 7 1 7 8
M  V30 8 1 8 9
M  V30 9 1 9 10
M  V30 10 1 10 11
M  V30 11 1 11 12
M  V30 12 2 4 13
M  V30 13 1 13 14
M  V30 14 2 14 15
M  V30 15 1 14 16
M  V30 16 1 15 2
M  V30 17 1 12 7
M  V30 18 1 1 17
M  V30 19 1 1 18
M  V30 20 1 6 19
M  V30 21 1 6 20
M  V30 22 1 7 21
M  V30 23 1 8 22
M  V30 24 1 8 23
M  V30 25 1 9 24
M  V30 26 1 9 25
M  V30 27 1 10 26
M  V30 28 1 10 27
M  V30 29 1 11 28
M  V30 30 1 11 29
M  V30 31 1 12 30
M  V30 32 1 12 31
M  V30 33 1 15 32
M  V30 34 1 16 33
M  V30 35 1 16 34
M  V30 END BOND
M  V30 END CTAB
M  END
