
     RDKit          3D

  0  0  0  0  0  0  0  0  0  0999 V3000
M  V30 BEGIN CTAB
M  V30 COUNTS 23 24 0 0 0
M  V30 BEGIN ATOM
M  V30 1 N 4.72772 -1.25779 0.0141416 0
M  V30 2 C 3.6368 -0.855575 -0.00383216 0
M  V30 3 C 2.26758 -0.377897 -0.0256645 0
M  V30 4 C 2.10757 0.916689 -0.198124 0
M  V30 5 N 3.25218 1.78295 -0.353465 0
M  V30 6 O 0.811807 1.39933 -0.222976 0
M  V30 7 C -0.319459 0.608346 -0.078387 0
M  V30 8 C -0.161208 -0.759983 0.104238 0
M  V30 9 C 1.17601 -1.35301 0.142904 0
M  V30 10 C -1.26985 -1.5755 0.251462 0
M  V30 11 C -2.53926 -1.04461 0.219154 0
M  V30 12 C -2.74534 0.330841 0.037084 0
M  V30 13 C -1.60069 1.08789 -0.103276 0
M  V30 14 N -4.0443 0.883048 0.00280912 0
M  V30 15 H 3.41552 2.31955 -1.2227 0
M  V30 16 H 3.95936 1.90089 0.406451 0
M  V30 17 H 1.30146 -2.19119 -0.586659 0
M  V30 18 H 1.33175 -1.83446 1.15045 0
M  V30 19 H -1.12853 -2.63519 0.392306 0
M  V30 20 H -3.43088 -1.66509 0.332697 0
M  V30 21 H -1.72378 2.15622 -0.245866 0
M  V30 22 H -4.49669 1.16046 0.88166 0
M  V30 23 H -4.52779 1.00408 -0.894403 0
M  V30 END ATOM
M  V30 BEGIN BOND
M  V30 1 3 1 2
M  V30 2 1 2 3
M  V30 3 2 3 4
M  V30 4 1 4 5
M  V30 5 1 4 6
M  V30 6 1 6 7
M  V30 7 2 7 8
M  V30 8 1 8 9
M  V30 9 1 8 10
M  V30 10 2 10 11
M  V30 11 1 11 12
M  V30 12 2 12 13
M  V30 13 1 12 14
M  V30 14 1 9 3
M  V30 15 1 13 7
M  V30 16 1 5 15
M  V30 17 1 5 16
M  V30 18 1 9 17
M  V30 19 1 9 18
M  V30 20 1 10 19
M  V30 21 1 11 20
M  V30 22 1 13 21
M  V30 23 1 14 22
M  V30 24 1 14 23
M  V30 END BOND
M  V30 END CTAB
M  END
