
     RDKit          3D

  0  0  0  0  0  0  0  0  0  0999 V3000
M  V30 BEGIN CTAB
M  V30 COUNTS 64 63 0 0 0
M  V30 BEGIN ATOM
M  V30 1 C 5.50729 0.464435 -2.88403 0 CFG=2
M  V30 2 C 6.86146 -0.195895 -2.75424 0
M  V30 3 N 5.6134 1.8321 -2.48982 0
M  V30 4 C 4.53484 -0.330859 -2.12183 0
M  V30 5 O 4.38545 -1.52877 -2.44159 0
M  V30 6 N 3.76028 0.202423 -1.03853 0
M  V30 7 C 2.82918 -0.608039 -0.32709 0 CFG=1
M  V30 8 C 2.79192 -0.418305 1.12339 0
M  V30 9 C 3.98665 -0.660523 1.95387 0
M  V30 10 C 5.12374 0.25748 1.65002 0
M  V30 11 C 6.29705 -0.0504413 2.61026 0
M  V30 12 N 7.34551 0.894786 2.25275 0
M  V30 13 C 1.43288 -0.403311 -0.917206 0
M  V30 14 O 1.35746 0.420255 -1.84654 0
M  V30 15 N 0.296409 -1.07132 -0.472151 0
M  V30 16 C -1.02623 -0.866891 -1.02712 0 CFG=1
M  V30 17 C -1.25828 -2.10495 -1.9179 0
M  V30 18 C -2.08158 -0.722145 -0.0362284 0
M  V30 19 O -2.04697 -1.41786 1.01376 0
M  V30 20 N -3.17149 0.169124 -0.171323 0
M  V30 21 C -4.2274 0.326817 0.771825 0 CFG=1
M  V30 22 C -4.11724 1.6506 1.50387 0
M  V30 23 C -5.57435 0.222377 0.175181 0
M  V30 24 O -5.71189 0.00460964 -1.06288 0
M  V30 25 N -6.77018 0.354024 0.919708 0
M  V30 26 C -8.08382 0.255902 0.331493 0 CFG=1
M  V30 27 C -8.87487 -0.916702 0.849324 0
M  V30 28 C -8.85517 1.48851 0.608959 0
M  V30 29 O -10.1455 1.61117 0.115494 0
M  V30 30 O -8.33602 2.41398 1.28919 0
M  V30 31 H 5.22076 0.424032 -3.94724 0
M  V30 32 H 7.01114 -0.642725 -1.75359 0
M  V30 33 H 7.01955 -0.979117 -3.53203 0
M  V30 34 H 7.62938 0.610793 -2.88774 0
M  V30 35 H 4.70886 2.33851 -2.48572 0
M  V30 36 H 6.19239 1.99611 -1.66158 0
M  V30 37 H 3.88756 1.19319 -0.778049 0
M  V30 38 H 3.07835 -1.68882 -0.558809 0
M  V30 39 H 1.90023 -0.930111 1.60761 0
M  V30 40 H 2.513 0.685458 1.32061 0
M  V30 41 H 4.32336 -1.74914 1.89132 0
M  V30 42 H 3.6991 -0.578173 3.05866 0
M  V30 43 H 4.77774 1.29653 1.79534 0
M  V30 44 H 5.56893 0.164058 0.651496 0
M  V30 45 H 5.97545 0.0709996 3.65525 0
M  V30 46 H 6.64277 -1.08219 2.37645 0
M  V30 47 H 6.92433 1.83108 1.98079 0
M  V30 48 H 7.81478 0.561321 1.35612 0
M  V30 49 H 0.378013 -1.76439 0.303401 0
M  V30 50 H -1.01625 -0.0225771 -1.72782 0
M  V30 51 H -0.286461 -2.50023 -2.29434 0
M  V30 52 H -1.86698 -1.8799 -2.78966 0
M  V30 53 H -1.66478 -2.88989 -1.25348 0
M  V30 54 H -3.19948 0.763394 -1.03668 0
M  V30 55 H -4.12349 -0.464161 1.54381 0
M  V30 56 H -3.6648 2.37869 0.797226 0
M  V30 57 H -5.08909 1.99914 1.88783 0
M  V30 58 H -3.43691 1.58764 2.37599 0
M  V30 59 H -6.69307 0.530295 1.93609 0
M  V30 60 H -8.00934 0.0935487 -0.779478 0
M  V30 61 H -8.47459 -1.89684 0.441375 0
M  V30 62 H -8.7594 -0.939765 1.94936 0
M  V30 63 H -9.93334 -0.794319 0.54668 0
M  V30 64 H -10.8903 1.00497 0.456507 0
M  V30 END ATOM
M  V30 BEGIN BOND
M  V30 1 1 1 2
M  V30 2 1 1 3
M  V30 3 1 1 4
M  V30 4 2 4 5
M  V30 5 1 4 6
M  V30 6 1 6 7
M  V30 7 1 7 8
M  V30 8 1 8 9
M  V30 9 1 9 10
M  V30 10 1 10 11
M  V30 11 1 11 12
M  V30 12 1 7 13
M  V30 13 2 13 14
M  V30 14 1 13 15
M  V30 15 1 15 16
M  V30 16 1 16 17
M  V30 17 1 16 18
M  V30 18 2 18 19
M  V30 19 1 18 20
M  V30 20 1 20 21
M  V30 21 1 21 22
M  V30 22 1 21 23
M  V30 23 2 23 24
M  V30 24 1 23 25
M  V30 25 1 25 26
M  V30 26 1 26 27
M  V30 27 1 26 28
M  V30 28 1 28 29
M  V30 29 2 28 30
M  V30 30 1 1 31 CFG=3
M  V30 31 1 2 32
M  V30 32 1 2 33
M  V30 33 1 2 34
M  V30 34 1 3 35
M  V30 35 1 3 36
M  V30 36 1 6 37
M  V30 37 1 7 38 CFG=1
M  V30 38 1 8 39
M  V30 39 1 8 40
M  V30 40 1 9 41
M  V30 41 1 9 42
M  V30 42 1 10 43
M  V30 43 1 10 44
M  V30 44 1 11 45
M  V30 45 1 11 46
M  V30 46 1 12 47
M  V30 47 1 12 48
M  V30 48 1 15 49
M  V30 49 1 16 50 CFG=3
M  V30 50 1 17 51
M  V30 51 1 17 52
M  V30 52 1 17 53
M  V30 53 1 20 54
M  V30 54 1 21 55 CFG=1
M  V30 55 1 22 56
M  V30 56 1 22 57
M  V30 57 1 22 58
M  V30 58 1 25 59
M  V30 59 1 26 60 CFG=3
M  V30 60 1 27 61
M  V30 61 1 27 62
M  V30 62 1 27 63
M  V30 63 1 29 64
M  V30 END BOND
M  V30 END CTAB
M  END
