
     RDKit          3D

  0  0  0  0  0  0  0  0  0  0999 V3000
M  V30 BEGIN CTAB
M  V30 COUNTS 32 33 0 0 0
M  V30 BEGIN ATOM
M  V30 1 N 4.50904 2.32842 0.909898 0
M  V30 2 C 3.69472 1.26311 0.487454 0
M  V30 3 N 4.1438 0.084775 0.0550346 0
M  V30 4 N 3.094 -0.658366 -0.252121 0
M  V30 5 C 1.95052 0.016278 -0.0274384 0
M  V30 6 C 2.31675 1.25471 0.448689 0
M  V30 7 C 0.546197 -0.484717 -0.252564 0 CFG=1
M  V30 8 O 0.521224 -1.76818 0.273319 0
M  V30 9 C -0.194999 -2.65444 -0.523111 0
M  V30 10 C -1.66326 -2.49808 -0.105596 0
M  V30 11 C -2.05182 -1.0827 -0.47848 0
M  V30 12 N -1.72383 -0.114212 0.506768 0
M  V30 13 C -0.419584 0.454141 0.394959 0
M  V30 14 S -2.97888 1.02749 0.644205 0
M  V30 15 O -2.77651 1.99293 1.77694 0
M  V30 16 O -4.26113 0.277445 0.941874 0
M  V30 17 N -3.23032 1.8861 -0.832653 0
M  V30 18 H 5.4773 2.41927 0.589825 0
M  V30 19 H 4.11463 3.03438 1.55987 0
M  V30 20 H 3.10143 -1.63471 -0.619849 0
M  V30 21 H 1.64606 2.06382 0.736257 0
M  V30 22 H 0.379244 -0.456219 -1.34967 0
M  V30 23 H -0.105582 -2.43713 -1.59456 0
M  V30 24 H 0.182669 -3.66118 -0.344583 0
M  V30 25 H -2.3042 -3.2611 -0.559281 0
M  V30 26 H -1.71891 -2.61693 0.9918 0
M  V30 27 H -3.16256 -1.10936 -0.642117 0
M  V30 28 H -1.62525 -0.805263 -1.4638 0
M  V30 29 H -0.51047 1.34686 -0.292165 0
M  V30 30 H -0.0278778 0.868552 1.34443 0
M  V30 31 H -2.68497 2.76586 -0.829195 0
M  V30 32 H -4.23743 2.15844 -0.92147 0
M  V30 END ATOM
M  V30 BEGIN BOND
M  V30 1 1 1 2
M  V30 2 2 2 3
M  V30 3 1 3 4
M  V30 4 1 4 5
M  V30 5 2 5 6
M  V30 6 1 5 7
M  V30 7 1 7 8
M  V30 8 1 8 9
M  V30 9 1 9 10
M  V30 10 1 10 11
M  V30 11 1 11 12
M  V30 12 1 12 13
M  V30 13 1 12 14
M  V30 14 2 14 15
M  V30 15 2 14 16
M  V30 16 1 14 17
M  V30 17 1 6 2
M  V30 18 1 13 7
M  V30 19 1 1 18
M  V30 20 1 1 19
M  V30 21 1 4 20
M  V30 22 1 6 21
M  V30 23 1 7 22 CFG=3
M  V30 24 1 9 23
M  V30 25 1 9 24
M  V30 26 1 10 25
M  V30 27 1 10 26
M  V30 28 1 11 27
M  V30 29 1 11 28
M  V30 30 1 13 29
M  V30 31 1 13 30
M  V30 32 1 17 31
M  V30 33 1 17 32
M  V30 END BOND
M  V30 END CTAB
M  END
