
     RDKit          3D

  0  0  0  0  0  0  0  0  0  0999 V3000
M  V30 BEGIN CTAB
M  V30 COUNTS 33 35 0 0 0
M  V30 BEGIN ATOM
M  V30 1 N 6.8737 0.434668 0.267588 0
M  V30 2 C 5.49067 0.204959 0.113723 0
M  V30 3 C 4.97821 -1.01874 -0.273868 0
M  V30 4 C 3.63389 -1.2194 -0.416553 0
M  V30 5 C 2.7112 -0.18138 -0.172834 0
M  V30 6 C 3.22259 1.02719 0.209587 0
M  V30 7 C 4.57643 1.23557 0.355328 0
M  V30 8 N 1.36901 -0.516078 -0.369744 0
M  V30 9 C 0.242926 0.174909 0.161845 0
M  V30 10 S 0.149258 1.54245 1.18012 0
M  V30 11 C -1.54236 1.66286 1.30934 0
M  V30 12 C -1.94996 0.600304 0.52939 0
M  V30 13 N -1.04149 -0.118919 -0.0265122 0
M  V30 14 C -3.4138 0.326594 0.366212 0
M  V30 15 S -4.73315 1.1587 1.03078 0
M  V30 16 C -5.99539 0.218216 0.360228 0
M  V30 17 N -5.32688 -0.685611 -0.339247 0
M  V30 18 C -4.0298 -0.661588 -0.359135 0
M  V30 19 C -3.21581 -1.67515 -1.14536 0
M  V30 20 N -7.42477 0.352216 0.502862 0
M  V30 21 H 7.28266 0.461922 1.21479 0
M  V30 22 H 7.48158 0.575783 -0.554897 0
M  V30 23 H 5.70391 -1.80279 -0.455977 0
M  V30 24 H 3.30763 -2.20024 -0.721994 0
M  V30 25 H 2.56229 1.84842 0.392557 0
M  V30 26 H 4.93752 2.19554 0.656727 0
M  V30 27 H 1.1361 -1.35103 -0.965851 0
M  V30 28 H -2.18227 2.37954 1.8569 0
M  V30 29 H -2.60135 -2.28554 -0.451309 0
M  V30 30 H -2.54919 -1.14054 -1.8706 0
M  V30 31 H -3.84352 -2.34212 -1.74169 0
M  V30 32 H -7.80529 1.27184 0.780525 0
M  V30 33 H -8.00452 -0.472552 0.322333 0
M  V30 END ATOM
M  V30 BEGIN BOND
M  V30 1 1 1 2
M  V30 2 2 2 3
M  V30 3 1 3 4
M  V30 4 2 4 5
M  V30 5 1 5 6
M  V30 6 2 6 7
M  V30 7 1 5 8
M  V30 8 1 8 9
M  V30 9 1 9 10
M  V30 10 1 10 11
M  V30 11 2 11 12
M  V30 12 1 12 13
M  V30 13 1 12 14
M  V30 14 1 14 15
M  V30 15 1 15 16
M  V30 16 2 16 17
M  V30 17 1 17 18
M  V30 18 1 18 19
M  V30 19 1 16 20
M  V30 20 1 7 2
M  V30 21 2 13 9
M  V30 22 2 18 14
M  V30 23 1 1 21
M  V30 24 1 1 22
M  V30 25 1 3 23
M  V30 26 1 4 24
M  V30 27 1 6 25
M  V30 28 1 7 26
M  V30 29 1 8 27
M  V30 30 1 11 28
M  V30 31 1 19 29
M  V30 32 1 19 30
M  V30 33 1 19 31
M  V30 34 1 20 32
M  V30 35 1 20 33
M  V30 END BOND
M  V30 END CTAB
M  END
