
     RDKit          3D

  0  0  0  0  0  0  0  0  0  0999 V3000
M  V30 BEGIN CTAB
M  V30 COUNTS 38 38 0 0 0
M  V30 BEGIN ATOM
M  V30 1 C -5.109 -1.0297 -0.0286533 0
M  V30 2 C -3.94558 -0.0938134 -0.276653 0
M  V30 3 C -2.82191 -0.53325 0.634891 0 CFG=2
M  V30 4 C -1.61499 0.332845 0.467379 0
M  V30 5 O -1.70933 1.58095 0.600257 0
M  V30 6 N -0.387465 -0.261778 0.162677 0
M  V30 7 C 0.857997 0.350161 -0.0414049 0
M  V30 8 C 1.08013 1.68555 -0.223505 0
M  V30 9 C 2.36936 2.21565 -0.403909 0
M  V30 10 C 3.45096 1.35641 -0.397497 0
M  V30 11 C 3.25563 0.00849436 -0.21683 0
M  V30 12 C 1.98377 -0.493664 -0.0410993 0
M  V30 13 S 4.65621 -1.04504 -0.217263 0
M  V30 14 O 5.61926 -0.735525 0.880446 0
M  V30 15 O 5.38714 -1.03949 -1.52402 0
M  V30 16 N 4.10396 -2.66779 0.0340907 0
M  V30 17 C 4.80187 1.92388 -0.586983 0
M  V30 18 N -2.43991 -1.88866 0.433504 0
M  V30 19 C -4.3999 1.28435 0.160793 0
M  V30 20 H -5.10237 -1.26861 1.04903 0
M  V30 21 H -6.03894 -0.522257 -0.349839 0
M  V30 22 H -5.02152 -1.97145 -0.590526 0
M  V30 23 H -3.65153 -0.106892 -1.34332 0
M  V30 24 H -3.17567 -0.375935 1.6764 0
M  V30 25 H -0.434275 -1.3401 0.0744315 0
M  V30 26 H 0.238648 2.3581 -0.240151 0
M  V30 27 H 2.49851 3.26628 -0.542672 0
M  V30 28 H 1.87304 -1.566 0.099143 0
M  V30 29 H 3.39659 -2.73141 0.793886 0
M  V30 30 H 3.83301 -3.13139 -0.848517 0
M  V30 31 H 4.98625 2.57207 0.320806 0
M  V30 32 H 4.84634 2.62956 -1.44606 0
M  V30 33 H 5.59603 1.19225 -0.597943 0
M  V30 34 H -2.65632 -2.48304 1.25047 0
M  V30 35 H -2.66395 -2.29378 -0.48097 0
M  V30 36 H -3.90096 2.0972 -0.402964 0
M  V30 37 H -4.274 1.36145 1.25513 0
M  V30 38 H -5.48707 1.36435 -0.0822955 0
M  V30 END ATOM
M  V30 BEGIN BOND
M  V30 1 1 1 2
M  V30 2 1 2 3
M  V30 3 1 3 4
M  V30 4 2 4 5
M  V30 5 1 4 6
M  V30 6 1 6 7
M  V30 7 2 7 8
M  V30 8 1 8 9
M  V30 9 2 9 10
M  V30 10 1 10 11
M  V30 11 2 11 12
M  V30 12 1 11 13
M  V30 13 2 13 14
M  V30 14 2 13 15
M  V30 15 1 13 16
M  V30 16 1 10 17
M  V30 17 1 3 18
M  V30 18 1 2 19
M  V30 19 1 12 7
M  V30 20 1 1 20
M  V30 21 1 1 21
M  V30 22 1 1 22
M  V30 23 1 2 23
M  V30 24 1 3 24 CFG=1
M  V30 25 1 6 25
M  V30 26 1 8 26
M  V30 27 1 9 27
M  V30 28 1 12 28
M  V30 29 1 16 29
M  V30 30 1 16 30
M  V30 31 1 17 31
M  V30 32 1 17 32
M  V30 33 1 17 33
M  V30 34 1 18 34
M  V30 35 1 18 35
M  V30 36 1 19 36
M  V30 37 1 19 37
M  V30 38 1 19 38
M  V30 END BOND
M  V30 END CTAB
M  END
