
     RDKit          3D

  0  0  0  0  0  0  0  0  0  0999 V3000
M  V30 BEGIN CTAB
M  V30 COUNTS 25 25 0 0 0
M  V30 BEGIN ATOM
M  V30 1 N 3.62084 -1.39461 -0.484462 0
M  V30 2 P 3.41357 -0.181452 0.736053 0
M  V30 3 O 4.82212 0.79475 0.774929 0
M  V30 4 O 3.35979 -0.849596 2.11516 0
M  V30 5 N 2.0199 0.820181 0.528926 0
M  V30 6 C 0.700267 0.367181 0.270621 0
M  V30 7 C -0.100523 -0.281346 1.18055 0
M  V30 8 C -1.38992 -0.682225 0.887505 0
M  V30 9 C -1.92418 -0.432267 -0.366375 0
M  V30 10 C -1.13446 0.218472 -1.29153 0
M  V30 11 C 0.151648 0.608414 -0.976594 0
M  V30 12 S -3.57474 -0.930186 -0.730768 0
M  V30 13 N -4.64539 0.356246 -0.299599 0
M  V30 14 O -3.66229 -1.11756 -2.23254 0
M  V30 15 O -3.96847 -2.18588 -0.0513316 0
M  V30 16 H 4.65827 -1.56613 -0.579334 0
M  V30 17 H 3.16951 -1.17474 -1.3983 0
M  V30 18 H 4.60386 1.70794 1.13835 0
M  V30 19 H 2.15463 1.87888 0.602936 0
M  V30 20 H 0.322407 -0.470923 2.15662 0
M  V30 21 H -2.02167 -1.19021 1.59505 0
M  V30 22 H -1.56834 0.40492 -2.26528 0
M  V30 23 H 0.731631 1.11612 -1.74769 0
M  V30 24 H -4.20224 1.07833 0.302264 0
M  V30 25 H -5.53623 0.0148446 0.134832 0
M  V30 END ATOM
M  V30 BEGIN BOND
M  V30 1 1 1 2
M  V30 2 1 2 3
M  V30 3 2 2 4
M  V30 4 1 2 5
M  V30 5 1 5 6
M  V30 6 2 6 7
M  V30 7 1 7 8
M  V30 8 2 8 9
M  V30 9 1 9 10
M  V30 10 2 10 11
M  V30 11 1 9 12
M  V30 12 1 12 13
M  V30 13 2 12 14
M  V30 14 2 12 15
M  V30 15 1 11 6
M  V30 16 1 1 16
M  V30 17 1 1 17
M  V30 18 1 3 18
M  V30 19 1 5 19
M  V30 20 1 7 20
M  V30 21 1 8 21
M  V30 22 1 10 22
M  V30 23 1 11 23
M  V30 24 1 13 24
M  V30 25 1 13 25
M  V30 END BOND
M  V30 END CTAB
M  END
