
     RDKit          3D

  0  0  0  0  0  0  0  0  0  0999 V3000
M  V30 BEGIN CTAB
M  V30 COUNTS 24 25 0 0 0
M  V30 BEGIN ATOM
M  V30 1 N 4.66833 0.714787 0.827723 0
M  V30 2 C 3.63863 0.0777072 0.106318 0
M  V30 3 N 3.716 -0.766916 -0.939655 0
M  V30 4 O 2.51026 -1.10273 -1.27878 0
M  V30 5 C 1.63187 -0.520384 -0.506405 0
M  V30 6 N 2.32941 0.220431 0.363513 0
M  V30 7 C 0.132944 -0.645051 -0.566938 0 CFG=1
M  V30 8 C -0.448089 0.397686 0.32608 0
M  V30 9 C -1.92713 0.388839 0.362244 0
M  V30 10 C -2.72087 -0.335047 1.2383 0
M  V30 11 N -4.02508 -0.0938394 0.973521 0
M  V30 12 C -4.06378 0.770345 -0.0552677 0
M  V30 13 N -2.79411 1.05749 -0.419291 0
M  V30 14 N -0.33403 -0.546385 -1.93463 0
M  V30 15 H 5.09036 0.291704 1.67171 0
M  V30 16 H 5.01682 1.6348 0.507382 0
M  V30 17 H -0.113288 -1.65703 -0.196295 0
M  V30 18 H -0.00771248 0.253421 1.33899 0
M  V30 19 H -0.0520969 1.39655 -0.0134753 0
M  V30 20 H -2.33586 -0.9894 2.01114 0
M  V30 21 H -4.81982 -0.522511 1.49792 0
M  V30 22 H -4.98838 1.14154 -0.481469 0
M  V30 23 H 0.0337484 0.283858 -2.43588 0
M  V30 24 H -0.138133 -1.44988 -2.39676 0
M  V30 END ATOM
M  V30 BEGIN BOND
M  V30 1 1 1 2
M  V30 2 2 2 3
M  V30 3 1 3 4
M  V30 4 1 4 5
M  V30 5 2 5 6
M  V30 6 1 5 7
M  V30 7 1 7 8
M  V30 8 1 8 9
M  V30 9 2 9 10
M  V30 10 1 10 11
M  V30 11 1 11 12
M  V30 12 2 12 13
M  V30 13 1 7 14
M  V30 14 1 6 2
M  V30 15 1 13 9
M  V30 16 1 1 15
M  V30 17 1 1 16
M  V30 18 1 7 17 CFG=1
M  V30 19 1 8 18
M  V30 20 1 8 19
M  V30 21 1 10 20
M  V30 22 1 11 21
M  V30 23 1 12 22
M  V30 24 1 14 23
M  V30 25 1 14 24
M  V30 END BOND
M  V30 END CTAB
M  END
