
     RDKit          3D

  0  0  0  0  0  0  0  0  0  0999 V3000
M  V30 BEGIN CTAB
M  V30 COUNTS 22 22 0 0 0
M  V30 BEGIN ATOM
M  V30 1 O -3.49718 -0.0985014 1.59945 0
M  V30 2 C -2.26784 -0.126999 1.43798 0
M  V30 3 C -1.89143 -0.122603 -0.0385042 0 CFG=1
M  V30 4 C -0.401007 -0.0344073 -0.158069 0
M  V30 5 N 0.340691 1.0574 -0.415097 0
M  V30 6 N 1.63228 0.772959 -0.450709 0
M  V30 7 C 1.74354 -0.541804 -0.210581 0
M  V30 8 N 0.501947 -1.03021 -0.0327474 0
M  V30 9 N 2.93203 -1.31652 -0.14667 0
M  V30 10 C 2.73516 1.71396 -0.704267 0
M  V30 11 N -2.42108 -1.2435 -0.743661 0
M  V30 12 H -4.11028 0.218247 1.88959 0
M  V30 13 H -1.73461 -0.98083 1.94615 0
M  V30 14 H -1.81242 0.787872 1.87103 0
M  V30 15 H -2.31042 0.820808 -0.45256 0
M  V30 16 H 3.39615 -1.59417 -1.03639 0
M  V30 17 H 3.38043 -1.63227 0.739108 0
M  V30 18 H 2.31395 2.5958 -1.20699 0
M  V30 19 H 3.45238 1.24981 -1.4057 0
M  V30 20 H 3.16775 2.01714 0.250889 0
M  V30 21 H -3.35306 -0.979901 -1.18476 0
M  V30 22 H -1.79697 -1.53229 -1.54748 0
M  V30 END ATOM
M  V30 BEGIN BOND
M  V30 1 1 1 2
M  V30 2 1 2 3
M  V30 3 1 3 4
M  V30 4 2 4 5
M  V30 5 1 5 6
M  V30 6 1 6 7
M  V30 7 2 7 8
M  V30 8 1 7 9
M  V30 9 1 6 10
M  V30 10 1 3 11
M  V30 11 1 8 4
M  V30 12 1 1 12
M  V30 13 1 2 13
M  V30 14 1 2 14
M  V30 15 1 3 15 CFG=3
M  V30 16 1 9 16
M  V30 17 1 9 17
M  V30 18 1 10 18
M  V30 19 1 10 19
M  V30 20 1 10 20
M  V30 21 1 11 21
M  V30 22 1 11 22
M  V30 END BOND
M  V30 END CTAB
M  END
