
     RDKit          3D

  0  0  0  0  0  0  0  0  0  0999 V3000
M  V30 BEGIN CTAB
M  V30 COUNTS 53 56 0 0 0
M  V30 BEGIN ATOM
M  V30 1 N -2.74897 -2.4977 1.84201 0
M  V30 2 C -2.24749 -1.98884 0.569247 0 CFG=1
M  V30 3 C -2.69313 -2.83894 -0.579527 0
M  V30 4 C -2.39158 -2.14563 -1.88296 0
M  V30 5 C -1.52432 -0.896473 -1.65101 0
M  V30 6 N -2.32159 -0.0388531 -0.824552 0
M  V30 7 C -2.81922 -0.602538 0.416241 0
M  V30 8 C -2.66533 1.29036 -1.11712 0
M  V30 9 C -1.68726 2.29089 -1.08802 0
M  V30 10 N -0.404832 1.90288 -0.681727 0
M  V30 11 C 0.74899 2.71545 -0.674631 0
M  V30 12 O 0.750445 3.89083 -1.0408 0
M  V30 13 C 2.04853 2.14561 -0.203562 0
M  V30 14 N 2.10714 0.873553 0.207459 0
M  V30 15 C 3.26666 0.297282 0.650671 0
M  V30 16 C 4.35279 1.10874 0.643029 0
M  V30 17 C 4.32124 2.45369 0.215393 0
M  V30 18 C 3.13204 2.98454 -0.220149 0
M  V30 19 N 3.02785 4.34342 -0.669081 0
M  V30 20 C 3.22624 -1.11319 1.07218 0
M  V30 21 C 2.00345 -1.79493 0.897087 0
M  V30 22 C 1.86216 -3.10428 1.26553 0
M  V30 23 C 2.93676 -3.76718 1.81806 0
M  V30 24 C 4.13451 -3.12433 1.99763 0
M  V30 25 C 4.24224 -1.80926 1.61682 0
M  V30 26 F 5.44178 -1.23789 1.83037 0
M  V30 27 C -2.07837 3.58121 -1.4226 0
M  V30 28 N -3.35646 3.8376 -1.75837 0
M  V30 29 C -4.32561 2.90858 -1.798 0
M  V30 30 C -3.94014 1.62664 -1.46676 0
M  V30 31 H -2.83703 -1.76328 2.57153 0
M  V30 32 H -3.6348 -2.9992 1.68455 0
M  V30 33 H -1.13789 -1.93304 0.627738 0
M  V30 34 H -3.78122 -3.07897 -0.495802 0
M  V30 35 H -2.18859 -3.84284 -0.552563 0
M  V30 36 H -1.83006 -2.82458 -2.52573 0
M  V30 37 H -3.36507 -1.85277 -2.33798 0
M  V30 38 H -0.596433 -1.2678 -1.18241 0
M  V30 39 H -1.35201 -0.487197 -2.6693 0
M  V30 40 H -3.92626 -0.691532 0.394435 0
M  V30 41 H -2.49171 -0.0125911 1.29978 0
M  V30 42 H -0.237605 0.915129 -0.321826 0
M  V30 43 H 5.29552 0.741108 0.964394 0
M  V30 44 H 5.22267 3.04866 0.233752 0
M  V30 45 H 2.70282 5.08037 -0.00486973 0
M  V30 46 H 3.26101 4.64169 -1.63295 0
M  V30 47 H 1.15254 -1.25181 0.452879 0
M  V30 48 H 0.910234 -3.64151 1.13044 0
M  V30 49 H 2.87666 -4.82254 2.1315 0
M  V30 50 H 5.00512 -3.64347 2.43882 0
M  V30 51 H -1.37116 4.38017 -1.41188 0
M  V30 52 H -5.35975 3.15885 -2.07768 0
M  V30 53 H -4.71549 0.855888 -1.49324 0
M  V30 END ATOM
M  V30 BEGIN BOND
M  V30 1 1 1 2
M  V30 2 1 2 3
M  V30 3 1 3 4
M  V30 4 1 4 5
M  V30 5 1 5 6
M  V30 6 1 6 7
M  V30 7 1 6 8
M  V30 8 1 8 9
M  V30 9 1 9 10
M  V30 10 1 10 11
M  V30 11 2 11 12
M  V30 12 1 11 13
M  V30 13 2 13 14
M  V30 14 1 14 15
M  V30 15 2 15 16
M  V30 16 1 16 17
M  V30 17 2 17 18
M  V30 18 1 18 19
M  V30 19 1 15 20
M  V30 20 2 20 21
M  V30 21 1 21 22
M  V30 22 2 22 23
M  V30 23 1 23 24
M  V30 24 2 24 25
M  V30 25 1 25 26
M  V30 26 2 9 27
M  V30 27 1 27 28
M  V30 28 2 28 29
M  V30 29 1 29 30
M  V30 30 1 7 2
M  V30 31 2 30 8
M  V30 32 1 18 13
M  V30 33 1 25 20
M  V30 34 1 1 31
M  V30 35 1 1 32
M  V30 36 1 2 33 CFG=1
M  V30 37 1 3 34
M  V30 38 1 3 35
M  V30 39 1 4 36
M  V30 40 1 4 37
M  V30 41 1 5 38
M  V30 42 1 5 39
M  V30 43 1 7 40
M  V30 44 1 7 41
M  V30 45 1 10 42
M  V30 46 1 16 43
M  V30 47 1 17 44
M  V30 48 1 19 45
M  V30 49 1 19 46
M  V30 50 1 21 47
M  V30 51 1 22 48
M  V30 52 1 23 49
M  V30 53 1 24 50
M  V30 54 1 27 51
M  V30 55 1 29 52
M  V30 56 1 30 53
M  V30 END BOND
M  V30 END CTAB
M  END
