
     RDKit          3D

  0  0  0  0  0  0  0  0  0  0999 V3000
M  V30 BEGIN CTAB
M  V30 COUNTS 19 19 0 0 0
M  V30 BEGIN ATOM
M  V30 1 F 4.01068 -0.579322 0.7527 0
M  V30 2 C 2.82615 -0.224736 0.128091 0
M  V30 3 C 1.7178 -0.625682 1.05102 0
M  V30 4 C 0.419088 -0.271274 0.445836 0
M  V30 5 N -0.560387 -1.16313 0.229765 0
M  V30 6 C -1.76491 -0.857201 -0.301162 0
M  V30 7 N -2.75453 -1.87871 -0.468113 0
M  V30 8 N -2.00632 0.423143 -0.63673 0
M  V30 9 C -1.04163 1.34872 -0.433278 0
M  V30 10 N 0.149421 1.00398 0.0980094 0
M  V30 11 N -1.24383 2.71046 -0.76326 0
M  V30 12 F 1.80698 -2.00778 1.18708 0
M  V30 13 F 1.86626 -0.0831449 2.31471 0
M  V30 14 F 2.74857 1.11594 -0.138077 0
M  V30 15 H 2.76108 -0.81297 -0.799056 0
M  V30 16 H -3.13483 -2.20351 -1.36328 0
M  V30 17 H -3.13927 -2.3526 0.391479 0
M  V30 18 H -1.16645 3.09235 -1.7244 0
M  V30 19 H -1.49387 3.36547 0.0286577 0
M  V30 END ATOM
M  V30 BEGIN BOND
M  V30 1 1 1 2
M  V30 2 1 2 3
M  V30 3 1 3 4
M  V30 4 2 4 5
M  V30 5 1 5 6
M  V30 6 1 6 7
M  V30 7 2 6 8
M  V30 8 1 8 9
M  V30 9 2 9 10
M  V30 10 1 9 11
M  V30 11 1 3 12
M  V30 12 1 3 13
M  V30 13 1 2 14
M  V30 14 1 10 4
M  V30 15 1 2 15
M  V30 16 1 7 16
M  V30 17 1 7 17
M  V30 18 1 11 18
M  V30 19 1 11 19
M  V30 END BOND
M  V30 END CTAB
M  END
