
     RDKit          3D

  0  0  0  0  0  0  0  0  0  0999 V3000
M  V30 BEGIN CTAB
M  V30 COUNTS 50 53 0 0 0
M  V30 BEGIN ATOM
M  V30 1 N -1.72343 -0.856495 -0.00363865 0
M  V30 2 C -1.47515 0.182883 -0.832802 0 CFG=2
M  V30 3 C -0.11785 0.760129 -0.847752 0
M  V30 4 O 0.0315053 1.81908 -1.54161 0
M  V30 5 N 0.98982 0.233905 -0.166384 0
M  V30 6 C 2.3035 0.859751 -0.192042 0
M  V30 7 C 3.20785 -0.348362 -0.279898 0 CFG=2
M  V30 8 C 2.54429 -1.30009 0.678655 0 CFG=1
M  V30 9 C 1.06788 -0.942457 0.633564 0
M  V30 10 N 2.7697 -2.6781 0.28475 0
M  V30 11 C 4.61129 -0.071289 -0.0111245 0
M  V30 12 C 5.59233 -0.368176 -0.960914 0
M  V30 13 C 6.9217 -0.103531 -0.706305 0
M  V30 14 C 7.34223 0.458578 0.480526 0
M  V30 15 C 6.37111 0.751969 1.41969 0
M  V30 16 C 5.04303 0.489326 1.16909 0
M  V30 17 C -2.42936 1.33796 -0.59983 0
M  V30 18 C -3.82999 0.960633 -0.813631 0
M  V30 19 C -4.49815 1.13984 -2.02579 0
M  V30 20 N -5.71668 0.641084 -1.84404 0
M  V30 21 C -5.87372 0.158806 -0.607172 0
M  V30 22 C -4.67343 0.359296 0.0589434 0
M  V30 23 C -4.60129 -0.0484493 1.36203 0
M  V30 24 C -5.67438 -0.634519 1.9829 0
M  V30 25 C -6.85412 -0.834892 1.33216 0
M  V30 26 C -6.94275 -0.431017 0.0281016 0
M  V30 27 H -1.98145 -1.74993 -0.315967 0
M  V30 28 H -1.57897 -0.746656 0.947775 0
M  V30 29 H -1.70267 -0.15551 -1.88853 0
M  V30 30 H 2.44466 1.41487 0.757505 0
M  V30 31 H 2.43618 1.53635 -1.06085 0
M  V30 32 H 3.08977 -0.782181 -1.29356 0
M  V30 33 H 2.88419 -1.20117 1.7129 0
M  V30 34 H 0.686053 -0.732753 1.67446 0
M  V30 35 H 0.556281 -1.83884 0.208519 0
M  V30 36 H 2.66086 -2.73807 -0.763683 0
M  V30 37 H 3.75082 -2.93258 0.5131 0
M  V30 38 H 5.28223 -0.81609 -1.91292 0
M  V30 39 H 7.70092 -0.330354 -1.44021 0
M  V30 40 H 8.38526 0.671551 0.692443 0
M  V30 41 H 6.66383 1.20255 2.38176 0
M  V30 42 H 4.26042 0.717041 1.9054 0
M  V30 43 H -2.29548 1.70896 0.442561 0
M  V30 44 H -2.13638 2.11856 -1.34322 0
M  V30 45 H -4.10954 1.58872 -2.92318 0
M  V30 46 H -6.48694 0.613024 -2.56346 0
M  V30 47 H -3.69977 0.0914599 1.9525 0
M  V30 48 H -5.59577 -0.951404 3.01873 0
M  V30 49 H -7.72882 -1.30332 1.80815 0
M  V30 50 H -7.8716 -0.580949 -0.50772 0
M  V30 END ATOM
M  V30 BEGIN BOND
M  V30 1 1 1 2
M  V30 2 1 2 3
M  V30 3 2 3 4
M  V30 4 1 3 5
M  V30 5 1 5 6
M  V30 6 1 6 7
M  V30 7 1 7 8
M  V30 8 1 8 9
M  V30 9 1 8 10
M  V30 10 1 7 11
M  V30 11 2 11 12
M  V30 12 1 12 13
M  V30 13 2 13 14
M  V30 14 1 14 15
M  V30 15 2 15 16
M  V30 16 1 2 17
M  V30 17 1 17 18
M  V30 18 2 18 19
M  V30 19 1 19 20
M  V30 20 1 20 21
M  V30 21 2 21 22
M  V30 22 1 22 23
M  V30 23 2 23 24
M  V30 24 1 24 25
M  V30 25 2 25 26
M  V30 26 1 9 5
M  V30 27 1 16 11
M  V30 28 1 22 18
M  V30 29 1 26 21
M  V30 30 1 1 27
M  V30 31 1 1 28
M  V30 32 1 2 29 CFG=3
M  V30 33 1 6 30
M  V30 34 1 6 31
M  V30 35 1 7 32 CFG=3
M  V30 36 1 8 33 CFG=1
M  V30 37 1 9 34
M  V30 38 1 9 35
M  V30 39 1 10 36
M  V30 40 1 10 37
M  V30 41 1 12 38
M  V30 42 1 13 39
M  V30 43 1 14 40
M  V30 44 1 15 41
M  V30 45 1 16 42
M  V30 46 1 17 43
M  V30 47 1 17 44
M  V30 48 1 19 45
M  V30 49 1 20 46
M  V30 50 1 23 47
M  V30 51 1 24 48
M  V30 52 1 25 49
M  V30 53 1 26 50
M  V30 END BOND
M  V30 END CTAB
M  END
