
     RDKit          3D

  0  0  0  0  0  0  0  0  0  0999 V3000
M  V30 BEGIN CTAB
M  V30 COUNTS 47 48 0 0 0
M  V30 BEGIN ATOM
M  V30 1 N -6.53851 -0.741583 1.41733 0
M  V30 2 C -5.69507 0.408463 1.40111 0
M  V30 3 C -4.23008 0.125835 1.48389 0
M  V30 4 C -3.68232 -0.710837 0.387161 0
M  V30 5 C -3.86218 -0.112595 -0.984939 0
M  V30 6 C -2.76298 -0.599403 -1.93992 0
M  V30 7 C -1.44869 0.0228166 -1.47891 0
M  V30 8 N -1.52725 0.252852 -0.0532601 0
M  V30 9 C -2.19425 -0.876968 0.609377 0
M  V30 10 C -0.165694 0.39777 0.457062 0
M  V30 11 C 0.392245 1.67285 -0.0822251 0
M  V30 12 O 1.67735 2.00026 0.278182 0
M  V30 13 C 2.87735 1.41649 0.0378661 0
M  V30 14 C 3.06755 0.276846 -0.714142 0
M  V30 15 C 4.32589 -0.267808 -0.915395 0
M  V30 16 C 5.44241 0.301614 -0.377022 0
M  V30 17 C 5.27351 1.44498 0.37955 0
M  V30 18 C 4.04062 1.99021 0.585379 0
M  V30 19 S 7.04256 -0.362825 -0.614023 0
M  V30 20 O 7.04359 -1.03031 -1.96493 0
M  V30 21 O 8.00876 0.789294 -0.662296 0
M  V30 22 N 7.42894 -1.49028 0.634378 0
M  V30 23 H -6.15812 -1.57145 0.924592 0
M  V30 24 H -7.49586 -0.472945 1.10331 0
M  V30 25 H -5.88667 1.11102 0.561027 0
M  V30 26 H -5.94773 1.00944 2.32541 0
M  V30 27 H -3.69285 1.08837 1.52868 0
M  V30 28 H -3.97592 -0.398613 2.45003 0
M  V30 29 H -4.15196 -1.73297 0.448057 0
M  V30 30 H -3.88046 0.976549 -0.988933 0
M  V30 31 H -4.81384 -0.517312 -1.40231 0
M  V30 32 H -2.69824 -1.6926 -1.97557 0
M  V30 33 H -3.02117 -0.20509 -2.94105 0
M  V30 34 H -0.627416 -0.663751 -1.70891 0
M  V30 35 H -1.37005 0.996393 -1.9897 0
M  V30 36 H -2.00226 -0.753011 1.6882 0
M  V30 37 H -1.82271 -1.84413 0.216863 0
M  V30 38 H 0.474764 -0.450713 0.222207 0
M  V30 39 H -0.201876 0.504925 1.58641 0
M  V30 40 H 0.3763 1.65466 -1.21991 0
M  V30 41 H -0.26429 2.54395 0.185853 0
M  V30 42 H 2.20921 -0.219866 -1.19449 0
M  V30 43 H 4.41522 -1.17107 -1.51893 0
M  V30 44 H 6.18257 1.89687 0.809713 0
M  V30 45 H 3.92135 2.88568 1.17966 0
M  V30 46 H 7.74269 -0.965078 1.48878 0
M  V30 47 H 8.17558 -2.15372 0.336808 0
M  V30 END ATOM
M  V30 BEGIN BOND
M  V30 1 1 1 2
M  V30 2 1 2 3
M  V30 3 1 3 4
M  V30 4 1 4 5
M  V30 5 1 5 6
M  V30 6 1 6 7
M  V30 7 1 7 8
M  V30 8 1 8 9
M  V30 9 1 8 10
M  V30 10 1 10 11
M  V30 11 1 11 12
M  V30 12 1 12 13
M  V30 13 2 13 14
M  V30 14 1 14 15
M  V30 15 2 15 16
M  V30 16 1 16 17
M  V30 17 2 17 18
M  V30 18 1 16 19
M  V30 19 2 19 20
M  V30 20 2 19 21
M  V30 21 1 19 22
M  V30 22 1 9 4
M  V30 23 1 18 13
M  V30 24 1 1 23
M  V30 25 1 1 24
M  V30 26 1 2 25
M  V30 27 1 2 26
M  V30 28 1 3 27
M  V30 29 1 3 28
M  V30 30 1 4 29
M  V30 31 1 5 30
M  V30 32 1 5 31
M  V30 33 1 6 32
M  V30 34 1 6 33
M  V30 35 1 7 34
M  V30 36 1 7 35
M  V30 37 1 9 36
M  V30 38 1 9 37
M  V30 39 1 10 38
M  V30 40 1 10 39
M  V30 41 1 11 40
M  V30 42 1 11 41
M  V30 43 1 14 42
M  V30 44 1 15 43
M  V30 45 1 17 44
M  V30 46 1 18 45
M  V30 47 1 22 46
M  V30 48 1 22 47
M  V30 END BOND
M  V30 END CTAB
M  END
