
     RDKit          3D

  0  0  0  0  0  0  0  0  0  0999 V3000
M  V30 BEGIN CTAB
M  V30 COUNTS 36 35 0 0 0
M  V30 BEGIN ATOM
M  V30 1 N -4.08491 0.380438 1.1856 0
M  V30 2 C -4.35194 0.17544 -0.18853 0
M  V30 3 N -5.51267 -0.28317 -0.520642 0
M  V30 4 C -3.36502 0.462788 -1.24045 0
M  V30 5 C -2.15737 -0.428698 -1.25044 0
M  V30 6 C -1.32841 -0.410187 -0.0149243 0
M  V30 7 C -0.11677 -1.31889 -0.121446 0
M  V30 8 C 0.787321 -0.921925 -1.2525 0
M  V30 9 C 1.31106 0.466117 -1.10689 0
M  V30 10 C 2.10913 0.677228 0.143146 0
M  V30 11 C 3.31383 -0.216082 0.22413 0
M  V30 12 C 4.05385 0.052029 1.48422 0
M  V30 13 N 4.58285 1.33939 1.75822 0
M  V30 14 N 4.24106 -0.869263 2.36888 0
M  V30 15 H -3.37319 1.09732 1.49268 0
M  V30 16 H -4.55254 -0.140207 1.96019 0
M  V30 17 H -6.25103 -0.504696 0.183746 0
M  V30 18 H -3.04198 1.53755 -1.20085 0
M  V30 19 H -3.84665 0.356522 -2.25417 0
M  V30 20 H -2.44913 -1.46768 -1.55322 0
M  V30 21 H -1.51066 -0.0461201 -2.09245 0
M  V30 22 H -1.07668 0.60373 0.340976 0
M  V30 23 H -1.93908 -0.882068 0.812436 0
M  V30 24 H -0.461913 -2.34918 -0.237131 0
M  V30 25 H 0.44858 -1.21268 0.817807 0
M  V30 26 H 1.64786 -1.62086 -1.26116 0
M  V30 27 H 0.295203 -1.07077 -2.25037 0
M  V30 28 H 1.8511 0.795448 -2.01265 0
M  V30 29 H 0.425337 1.16359 -1.03387 0
M  V30 30 H 1.5146 0.513806 1.06391 0
M  V30 31 H 2.48396 1.72377 0.217593 0
M  V30 32 H 3.9916 -0.0425974 -0.627026 0
M  V30 33 H 2.95097 -1.28041 0.257124 0
M  V30 34 H 5.57158 1.49979 2.04117 0
M  V30 35 H 3.9841 2.19988 1.68459 0
M  V30 36 H 3.85597 -1.82885 2.18232 0
M  V30 END ATOM
M  V30 BEGIN BOND
M  V30 1 1 1 2
M  V30 2 2 2 3 CFG=2
M  V30 3 1 2 4
M  V30 4 1 4 5
M  V30 5 1 5 6
M  V30 6 1 6 7
M  V30 7 1 7 8
M  V30 8 1 8 9
M  V30 9 1 9 10
M  V30 10 1 10 11
M  V30 11 1 11 12
M  V30 12 1 12 13
M  V30 13 2 12 14 CFG=2
M  V30 14 1 1 15
M  V30 15 1 1 16
M  V30 16 1 3 17
M  V30 17 1 4 18
M  V30 18 1 4 19
M  V30 19 1 5 20
M  V30 20 1 5 21
M  V30 21 1 6 22
M  V30 22 1 6 23
M  V30 23 1 7 24
M  V30 24 1 7 25
M  V30 25 1 8 26
M  V30 26 1 8 27
M  V30 27 1 9 28
M  V30 28 1 9 29
M  V30 29 1 10 30
M  V30 30 1 10 31
M  V30 31 1 11 32
M  V30 32 1 11 33
M  V30 33 1 13 34
M  V30 34 1 13 35
M  V30 35 1 14 36
M  V30 END BOND
M  V30 END CTAB
M  END
