
     RDKit          3D

  0  0  0  0  0  0  0  0  0  0999 V3000
M  V30 BEGIN CTAB
M  V30 COUNTS 22 22 0 0 0
M  V30 BEGIN ATOM
M  V30 1 N 3.39076 -0.00691085 0.644978 0
M  V30 2 C 2.18386 0.398554 -0.00188729 0
M  V30 3 C 1.16997 -0.699471 0.186746 0
M  V30 4 C -0.154831 -0.365773 -0.466647 0 CFG=2
M  V30 5 C -0.830902 0.873961 0.0382802 0
M  V30 6 C -2.07337 0.0883513 0.367563 0 CFG=2
M  V30 7 C -1.30566 -1.175 0.129432 0
M  V30 8 N -3.148 0.333112 -0.569626 0
M  V30 9 H 3.47921 0.380054 1.53911 0
M  V30 10 H 4.13381 -0.115745 -0.00112319 0
M  V30 11 H 1.80852 1.33246 0.475485 0
M  V30 12 H 2.36749 0.56566 -1.07269 0
M  V30 13 H 1.56923 -1.60058 -0.316568 0
M  V30 14 H 1.04162 -0.937358 1.25208 0
M  V30 15 H -0.0880936 -0.436949 -1.55912 0
M  V30 16 H -0.97602 1.60063 -0.791124 0
M  V30 17 H -0.358742 1.31639 0.924975 0
M  V30 18 H -2.42801 0.24515 1.40445 0
M  V30 19 H -1.78989 -1.87307 -0.576084 0
M  V30 20 H -1.02056 -1.65286 1.10963 0
M  V30 21 H -4.05235 0.546331 -0.0772209 0
M  V30 22 H -2.91804 1.18308 -1.12995 0
M  V30 END ATOM
M  V30 BEGIN BOND
M  V30 1 1 1 2
M  V30 2 1 2 3
M  V30 3 1 3 4
M  V30 4 1 4 5
M  V30 5 1 5 6
M  V30 6 1 6 7
M  V30 7 1 6 8
M  V30 8 1 7 4
M  V30 9 1 1 9
M  V30 10 1 1 10
M  V30 11 1 2 11
M  V30 12 1 2 12
M  V30 13 1 3 13
M  V30 14 1 3 14
M  V30 15 1 4 15 CFG=3
M  V30 16 1 5 16
M  V30 17 1 5 17
M  V30 18 1 6 18 CFG=1
M  V30 19 1 7 19
M  V30 20 1 7 20
M  V30 21 1 8 21
M  V30 22 1 8 22
M  V30 END BOND
M  V30 END CTAB
M  END
