
     RDKit          3D

  0  0  0  0  0  0  0  0  0  0999 V3000
M  V30 BEGIN CTAB
M  V30 COUNTS 25 25 0 0 0
M  V30 BEGIN ATOM
M  V30 1 N -3.88533 -0.410267 0.337312 0
M  V30 2 C -2.45048 -0.421362 0.544819 0
M  V30 3 C -1.68217 -0.0125796 -0.666762 0
M  V30 4 C -0.235593 -0.0578815 -0.335819 0
M  V30 5 C 0.215257 -0.5653 0.857596 0
M  V30 6 C 1.57492 -0.598737 1.14501 0
M  V30 7 C 2.51137 -0.124025 0.241848 0
M  V30 8 C 2.05193 0.384173 -0.954512 0
M  V30 9 C 0.706482 0.416438 -1.23716 0
M  V30 10 F 2.93952 0.860879 -1.86969 0
M  V30 11 C 3.97169 -0.165558 0.563016 0
M  V30 12 N -2.07519 1.26247 -1.21655 0
M  V30 13 H -4.32535 -0.680005 1.24903 0
M  V30 14 H -4.22224 0.565235 0.134594 0
M  V30 15 H -2.1963 -1.50488 0.735054 0
M  V30 16 H -2.1968 0.176859 1.43772 0
M  V30 17 H -1.87024 -0.758711 -1.48484 0
M  V30 18 H -0.458686 -0.95532 1.61743 0
M  V30 19 H 1.88517 -1.01157 2.10697 0
M  V30 20 H 0.321263 0.809273 -2.16667 0
M  V30 21 H 4.26344 -1.21924 0.651284 0
M  V30 22 H 4.52031 0.269666 -0.29009 0
M  V30 23 H 4.10203 0.38831 1.50373 0
M  V30 24 H -1.78622 1.28164 -2.22139 0
M  V30 25 H -1.67881 2.0705 -0.681931 0
M  V30 END ATOM
M  V30 BEGIN BOND
M  V30 1 1 1 2
M  V30 2 1 2 3
M  V30 3 1 3 4
M  V30 4 2 4 5
M  V30 5 1 5 6
M  V30 6 2 6 7
M  V30 7 1 7 8
M  V30 8 2 8 9
M  V30 9 1 8 10
M  V30 10 1 7 11
M  V30 11 1 3 12
M  V30 12 1 9 4
M  V30 13 1 1 13
M  V30 14 1 1 14
M  V30 15 1 2 15
M  V30 16 1 2 16
M  V30 17 1 3 17
M  V30 18 1 5 18
M  V30 19 1 6 19
M  V30 20 1 9 20
M  V30 21 1 11 21
M  V30 22 1 11 22
M  V30 23 1 11 23
M  V30 24 1 12 24
M  V30 25 1 12 25
M  V30 END BOND
M  V30 END CTAB
M  END
