
     RDKit          3D

  0  0  0  0  0  0  0  0  0  0999 V3000
M  V30 BEGIN CTAB
M  V30 COUNTS 29 29 0 0 0
M  V30 BEGIN ATOM
M  V30 1 N -2.7201 -1.85043 1.94995 0
M  V30 2 C -3.15508 -0.832223 1.01922 0
M  V30 3 C -2.0013 -0.182092 0.370105 0
M  V30 4 C -0.688499 -0.504686 0.619945 0
M  V30 5 C 0.375003 0.144348 -0.0246773 0
M  V30 6 C 0.129089 1.14242 -0.943885 0
M  V30 7 C -1.18236 1.46774 -1.19631 0
M  V30 8 C -2.22882 0.82011 -0.553644 0
M  V30 9 N -3.5664 1.1967 -0.852778 0
M  V30 10 O 1.61948 -0.277957 0.320558 0
M  V30 11 C 2.86481 0.120278 -0.0976306 0
M  V30 12 C 3.53096 -1.04417 -0.813991 0
M  V30 13 C 3.76292 0.650255 0.992681 0
M  V30 14 H -2.37469 -1.37973 2.81702 0
M  V30 15 H -3.57395 -2.45397 2.14668 0
M  V30 16 H -3.75413 -0.0969241 1.62711 0
M  V30 17 H -3.88211 -1.25132 0.279171 0
M  V30 18 H -0.50651 -1.29476 1.34807 0
M  V30 19 H 0.953722 1.64139 -1.43974 0
M  V30 20 H -1.36223 2.25289 -1.91993 0
M  V30 21 H -4.35973 0.836839 -0.277367 0
M  V30 22 H -3.76645 1.83648 -1.65067 0
M  V30 23 H 2.76472 0.931147 -0.848034 0
M  V30 24 H 4.49991 -1.29388 -0.318797 0
M  V30 25 H 2.89688 -1.96349 -0.758711 0
M  V30 26 H 3.68679 -0.842959 -1.89056 0
M  V30 27 H 4.28122 1.58137 0.697512 0
M  V30 28 H 3.21411 0.764079 1.97146 0
M  V30 29 H 4.54274 -0.117463 1.17792 0
M  V30 END ATOM
M  V30 BEGIN BOND
M  V30 1 1 1 2
M  V30 2 1 2 3
M  V30 3 2 3 4
M  V30 4 1 4 5
M  V30 5 2 5 6
M  V30 6 1 6 7
M  V30 7 2 7 8
M  V30 8 1 8 9
M  V30 9 1 5 10
M  V30 10 1 10 11
M  V30 11 1 11 12
M  V30 12 1 11 13
M  V30 13 1 8 3
M  V30 14 1 1 14
M  V30 15 1 1 15
M  V30 16 1 2 16
M  V30 17 1 2 17
M  V30 18 1 4 18
M  V30 19 1 6 19
M  V30 20 1 7 20
M  V30 21 1 9 21
M  V30 22 1 9 22
M  V30 23 1 11 23
M  V30 24 1 12 24
M  V30 25 1 12 25
M  V30 26 1 12 26
M  V30 27 1 13 27
M  V30 28 1 13 28
M  V30 29 1 13 29
M  V30 END BOND
M  V30 END CTAB
M  END
