
     RDKit          3D

  0  0  0  0  0  0  0  0  0  0999 V3000
M  V30 BEGIN CTAB
M  V30 COUNTS 25 25 0 0 0
M  V30 BEGIN ATOM
M  V30 1 C -1.76192 -1.36947 -1.20285 0
M  V30 2 C -1.36001 -0.82625 0.140943 0
M  V30 3 C -2.22483 0.416046 0.384222 0
M  V30 4 F -1.99824 1.34869 -0.607264 0
M  V30 5 F -3.56322 0.0739809 0.354198 0
M  V30 6 C -1.9319 1.04529 1.71422 0
M  V30 7 C 0.0627354 -0.45035 0.182993 0
M  V30 8 N 0.932896 -0.907495 1.09321 0
M  V30 9 C 2.23526 -0.554162 1.11994 0
M  V30 10 N 3.12065 -1.07698 2.12041 0
M  V30 11 N 2.6698 0.29843 0.183103 0
M  V30 12 C 1.82457 0.768528 -0.734573 0
M  V30 13 N 0.543987 0.40334 -0.737992 0
M  V30 14 N 2.32361 1.67402 -1.71546 0
M  V30 15 H -2.72719 -1.92433 -1.0529 0
M  V30 16 H -1.96524 -0.553048 -1.89502 0
M  V30 17 H -1.02796 -2.09997 -1.5675 0
M  V30 18 H -1.56164 -1.52647 0.967711 0
M  V30 19 H -2.87636 1.28377 2.26559 0
M  V30 20 H -1.41744 2.03942 1.58393 0
M  V30 21 H -1.25105 0.446612 2.35071 0
M  V30 22 H 2.84385 -1.31698 3.0884 0
M  V30 23 H 4.10946 -1.2205 1.83984 0
M  V30 24 H 1.6766 2.1083 -2.40517 0
M  V30 25 H 3.32357 1.91957 -1.76764 0
M  V30 END ATOM
M  V30 BEGIN BOND
M  V30 1 1 1 2
M  V30 2 1 2 3
M  V30 3 1 3 4
M  V30 4 1 3 5
M  V30 5 1 3 6
M  V30 6 1 2 7
M  V30 7 2 7 8
M  V30 8 1 8 9
M  V30 9 1 9 10
M  V30 10 2 9 11
M  V30 11 1 11 12
M  V30 12 2 12 13
M  V30 13 1 12 14
M  V30 14 1 13 7
M  V30 15 1 1 15
M  V30 16 1 1 16
M  V30 17 1 1 17
M  V30 18 1 2 18
M  V30 19 1 6 19
M  V30 20 1 6 20
M  V30 21 1 6 21
M  V30 22 1 10 22
M  V30 23 1 10 23
M  V30 24 1 14 24
M  V30 25 1 14 25
M  V30 END BOND
M  V30 END CTAB
M  END
