
     RDKit          3D

  0  0  0  0  0  0  0  0  0  0999 V3000
M  V30 BEGIN CTAB
M  V30 COUNTS 47 48 0 0 0
M  V30 BEGIN ATOM
M  V30 1 C 7.74772 0.565168 -0.212407 0
M  V30 2 C 7.21514 -0.817808 0.170519 0
M  V30 3 C 6.68731 -0.732713 1.56717 0
M  V30 4 O 5.66592 0.165956 1.7369 0
M  V30 5 C 4.40211 0.187123 1.23046 0
M  V30 6 C 3.87438 -0.787225 0.419019 0
M  V30 7 C 2.56827 -0.661727 -0.0480238 0
M  V30 8 C 1.78877 0.407059 0.278454 0
M  V30 9 C 2.32766 1.36559 1.08627 0
M  V30 10 C 3.5869 1.28716 1.56182 0
M  V30 11 C 0.416584 0.564723 -0.196101 0
M  V30 12 O -0.209269 1.58221 0.16122 0
M  V30 13 C -0.118146 -0.492469 -1.05967 0
M  V30 14 C -1.51721 -0.34443 -1.51763 0
M  V30 15 C -2.55294 -0.295 -0.485638 0
M  V30 16 O -2.93489 0.789141 0.0250964 0
M  V30 17 O -3.18886 -1.44877 0.00351921 0
M  V30 18 C -4.18537 -1.35328 0.996355 0
M  V30 19 C -5.36395 -0.568439 0.597681 0
M  V30 20 N -6.23564 -0.0718651 1.48482 0
M  V30 21 C -7.31902 0.63816 1.11065 0
M  V30 22 N -8.22286 1.15035 2.07208 0
M  V30 23 N -7.54316 0.862101 -0.191667 0
M  V30 24 C -6.68497 0.375631 -1.10303 0
M  V30 25 N -5.60008 -0.337062 -0.701656 0
M  V30 26 N -6.9233 0.612559 -2.47628 0
M  V30 27 H 7.68459 0.748473 -1.29119 0
M  V30 28 H 7.12022 1.30943 0.317449 0
M  V30 29 H 8.78884 0.703628 0.188509 0
M  V30 30 H 6.4821 -1.07674 -0.58357 0
M  V30 31 H 8.05575 -1.54775 0.129297 0
M  V30 32 H 7.55847 -0.436039 2.22657 0
M  V30 33 H 6.34759 -1.75599 1.90298 0
M  V30 34 H 4.46046 -1.66153 0.160096 0
M  V30 35 H 2.18645 -1.43965 -0.680444 0
M  V30 36 H 1.73475 2.24415 1.37516 0
M  V30 37 H 3.97676 2.06819 2.19957 0
M  V30 38 H 0.524573 -0.491441 -1.98979 0
M  V30 39 H 0.0570074 -1.51844 -0.630851 0
M  V30 40 H -1.62146 0.562586 -2.1818 0
M  V30 41 H -1.72176 -1.19984 -2.22736 0
M  V30 42 H -4.53184 -2.37176 1.27265 0
M  V30 43 H -3.72364 -0.916413 1.93147 0
M  V30 44 H -9.16987 0.772907 2.26166 0
M  V30 45 H -7.91175 1.97417 2.63573 0
M  V30 46 H -6.1397 0.462524 -3.17349 0
M  V30 47 H -7.83863 0.927389 -2.81876 0
M  V30 END ATOM
M  V30 BEGIN BOND
M  V30 1 1 1 2
M  V30 2 1 2 3
M  V30 3 1 3 4
M  V30 4 1 4 5
M  V30 5 2 5 6
M  V30 6 1 6 7
M  V30 7 2 7 8
M  V30 8 1 8 9
M  V30 9 2 9 10
M  V30 10 1 8 11
M  V30 11 2 11 12
M  V30 12 1 11 13
M  V30 13 1 13 14
M  V30 14 1 14 15
M  V30 15 2 15 16
M  V30 16 1 15 17
M  V30 17 1 17 18
M  V30 18 1 18 19
M  V30 19 2 19 20
M  V30 20 1 20 21
M  V30 21 1 21 22
M  V30 22 2 21 23
M  V30 23 1 23 24
M  V30 24 2 24 25
M  V30 25 1 24 26
M  V30 26 1 10 5
M  V30 27 1 25 19
M  V30 28 1 1 27
M  V30 29 1 1 28
M  V30 30 1 1 29
M  V30 31 1 2 30
M  V30 32 1 2 31
M  V30 33 1 3 32
M  V30 34 1 3 33
M  V30 35 1 6 34
M  V30 36 1 7 35
M  V30 37 1 9 36
M  V30 38 1 10 37
M  V30 39 1 13 38
M  V30 40 1 13 39
M  V30 41 1 14 40
M  V30 42 1 14 41
M  V30 43 1 18 42
M  V30 44 1 18 43
M  V30 45 1 22 44
M  V30 46 1 22 45
M  V30 47 1 26 46
M  V30 48 1 26 47
M  V30 END BOND
M  V30 END CTAB
M  END
