
     RDKit          3D

  0  0  0  0  0  0  0  0  0  0999 V3000
M  V30 BEGIN CTAB
M  V30 COUNTS 27 26 0 0 0
M  V30 BEGIN ATOM
M  V30 1 N 5.006 1.16478 1.21187 0
M  V30 2 N 5.0595 0.0277941 0.411319 0
M  V30 3 C 4.019 -0.559534 -0.051089 0
M  V30 4 S 2.41356 0.0818634 0.328465 0
M  V30 5 C 1.17463 -0.969651 -0.470675 0
M  V30 6 C -0.178173 -0.502081 -0.202288 0
M  V30 7 C -1.3133 -0.128287 0.0097608 0
M  V30 8 C -2.68578 0.330934 0.278595 0
M  V30 9 C -3.12506 1.21642 -0.873764 0
M  V30 10 C -2.64086 1.13237 1.55813 0
M  V30 11 C -3.63223 -0.835518 0.412814 0
M  V30 12 N 4.15136 -1.70782 -0.856022 0
M  V30 13 H 4.68796 1.0644 2.20218 0
M  V30 14 H 5.27427 2.08776 0.837184 0
M  V30 15 H 1.35873 -0.924814 -1.57203 0
M  V30 16 H 1.33542 -2.01315 -0.104363 0
M  V30 17 H -3.12081 0.617151 -1.80469 0
M  V30 18 H -2.40465 2.06811 -0.929365 0
M  V30 19 H -4.15937 1.55588 -0.711317 0
M  V30 20 H -3.66949 1.12254 1.98146 0
M  V30 21 H -2.29549 2.16944 1.31347 0
M  V30 22 H -1.9413 0.660222 2.27649 0
M  V30 23 H -3.73154 -1.12885 1.4631 0
M  V30 24 H -4.65533 -0.486842 0.0860415 0
M  V30 25 H -3.32446 -1.6913 -0.250123 0
M  V30 26 H 4.70945 -1.73579 -1.74514 0
M  V30 27 H 3.68796 -2.61601 -0.602435 0
M  V30 END ATOM
M  V30 BEGIN BOND
M  V30 1 1 1 2
M  V30 2 2 2 3 CFG=2
M  V30 3 1 3 4
M  V30 4 1 4 5
M  V30 5 1 5 6
M  V30 6 3 6 7
M  V30 7 1 7 8
M  V30 8 1 8 9
M  V30 9 1 8 10
M  V30 10 1 8 11
M  V30 11 1 3 12
M  V30 12 1 1 13
M  V30 13 1 1 14
M  V30 14 1 5 15
M  V30 15 1 5 16
M  V30 16 1 9 17
M  V30 17 1 9 18
M  V30 18 1 9 19
M  V30 19 1 10 20
M  V30 20 1 10 21
M  V30 21 1 10 22
M  V30 22 1 11 23
M  V30 23 1 11 24
M  V30 24 1 11 25
M  V30 25 1 12 26
M  V30 26 1 12 27
M  V30 END BOND
M  V30 END CTAB
M  END
