
     RDKit          3D

  0  0  0  0  0  0  0  0  0  0999 V3000
M  V30 BEGIN CTAB
M  V30 COUNTS 48 51 0 0 0
M  V30 BEGIN ATOM
M  V30 1 N 6.60829 3.56483 0.0405227 0
M  V30 2 N 5.23891 3.30801 -0.0471403 0
M  V30 3 C 4.83022 1.94277 0.00648307 0
M  V30 4 O 5.63682 1.00988 0.125249 0
M  V30 5 C 3.38297 1.67702 -0.0865218 0
M  V30 6 S 2.13776 2.81225 -0.251061 0
M  V30 7 C 0.798359 1.73443 -0.285663 0
M  V30 8 C 1.37764 0.508114 -0.165996 0
M  V30 9 C 2.73698 0.481381 -0.0613548 0
M  V30 10 N 3.5365 -0.733672 0.0772312 0
M  V30 11 C 0.449066 -0.565335 -0.169315 0
M  V30 12 C 0.975262 -1.94165 -0.040395 0
M  V30 13 C -0.115008 -2.98032 -0.0765861 0
M  V30 14 C -0.597655 -3.31385 1.31145 0
M  V30 15 C 0.415875 -4.24777 -0.714177 0
M  V30 16 O -1.20437 -2.56499 -0.828984 0
M  V30 17 C -1.84979 -1.47968 -0.301615 0
M  V30 18 C -0.879546 -0.336192 -0.283077 0
M  V30 19 C -1.44196 0.944271 -0.403363 0
M  V30 20 N -0.549824 1.94329 -0.39902 0
M  V30 21 N -2.83412 1.16527 -0.495263 0
M  V30 22 C -3.7831 0.913086 0.55632 0
M  V30 23 C -4.95494 1.82979 0.305438 0
M  V30 24 C -4.82863 2.23691 -1.13533 0
M  V30 25 C -3.52279 1.6788 -1.65416 0
M  V30 26 H 7.02729 3.17776 -0.852839 0
M  V30 27 H 6.97987 2.94214 0.815132 0
M  V30 28 H 4.57909 4.09536 -0.145782 0
M  V30 29 H 3.71121 -1.02233 1.06262 0
M  V30 30 H 3.88577 -1.24304 -0.745544 0
M  V30 31 H 1.5276 -2.10252 0.910669 0
M  V30 32 H 1.65061 -2.14052 -0.901094 0
M  V30 33 H -1.68451 -3.5937 1.30697 0
M  V30 34 H -0.506519 -2.41737 1.9657 0
M  V30 35 H -0.0402427 -4.18009 1.75029 0
M  V30 36 H -0.46129 -4.89451 -0.96009 0
M  V30 37 H 1.0461 -4.76971 0.0238653 0
M  V30 38 H 1.00141 -4.01236 -1.62007 0
M  V30 39 H -2.68888 -1.23076 -0.998011 0
M  V30 40 H -2.20023 -1.70087 0.720896 0
M  V30 41 H -3.27075 1.15364 1.52534 0
M  V30 42 H -4.04315 -0.138406 0.570771 0
M  V30 43 H -4.87462 2.67678 1.0148 0
M  V30 44 H -5.87546 1.23617 0.509748 0
M  V30 45 H -4.84506 3.34558 -1.16546 0
M  V30 46 H -5.70622 1.86979 -1.67406 0
M  V30 47 H -3.7932 0.871793 -2.37545 0
M  V30 48 H -2.98174 2.49056 -2.15634 0
M  V30 END ATOM
M  V30 BEGIN BOND
M  V30 1 1 1 2
M  V30 2 1 2 3
M  V30 3 2 3 4
M  V30 4 1 3 5
M  V30 5 1 5 6
M  V30 6 1 6 7
M  V30 7 2 7 8
M  V30 8 1 8 9
M  V30 9 1 9 10
M  V30 10 1 8 11
M  V30 11 1 11 12
M  V30 12 1 12 13
M  V30 13 1 13 14
M  V30 14 1 13 15
M  V30 15 1 13 16
M  V30 16 1 16 17
M  V30 17 1 17 18
M  V30 18 1 18 19
M  V30 19 2 19 20
M  V30 20 1 19 21
M  V30 21 1 21 22
M  V30 22 1 22 23
M  V30 23 1 23 24
M  V30 24 1 24 25
M  V30 25 2 9 5
M  V30 26 2 18 11
M  V30 27 1 25 21
M  V30 28 1 20 7
M  V30 29 1 1 26
M  V30 30 1 1 27
M  V30 31 1 2 28
M  V30 32 1 10 29
M  V30 33 1 10 30
M  V30 34 1 12 31
M  V30 35 1 12 32
M  V30 36 1 14 33
M  V30 37 1 14 34
M  V30 38 1 14 35
M  V30 39 1 15 36
M  V30 40 1 15 37
M  V30 41 1 15 38
M  V30 42 1 17 39
M  V30 43 1 17 40
M  V30 44 1 22 41
M  V30 45 1 22 42
M  V30 46 1 23 43
M  V30 47 1 23 44
M  V30 48 1 24 45
M  V30 49 1 24 46
M  V30 50 1 25 47
M  V30 51 1 25 48
M  V30 END BOND
M  V30 END CTAB
M  END
