
     RDKit          3D

  0  0  0  0  0  0  0  0  0  0999 V3000
M  V30 BEGIN CTAB
M  V30 COUNTS 26 28 0 0 0
M  V30 BEGIN ATOM
M  V30 1 N -5.02704 -0.528516 -0.0819399 0
M  V30 2 C -3.71143 -0.0281473 -0.138297 0
M  V30 3 C -2.64039 -0.896149 -0.0339578 0
M  V30 4 C -1.33163 -0.450296 -0.0839067 0
M  V30 5 C -1.04853 0.894671 -0.241773 0
M  V30 6 O 0.26338 1.35507 -0.293427 0
M  V30 7 C 1.31715 0.476484 -0.187869 0
M  V30 8 C 2.6312 0.878898 -0.232689 0
M  V30 9 C 3.69549 0.00228806 -0.127343 0
M  V30 10 N 5.02901 0.513541 -0.18494 0
M  V30 11 C 3.43153 -1.34158 0.0304337 0
M  V30 12 C 2.12299 -1.75949 0.077089 0
M  V30 13 C 1.05333 -0.867034 -0.0301329 0
M  V30 14 O -0.260602 -1.32527 0.0212629 0
M  V30 15 C -2.12185 1.77817 -0.347947 0
M  V30 16 C -3.41363 1.30731 -0.295017 0
M  V30 17 H -5.49589 -0.869457 -0.932553 0
M  V30 18 H -5.52362 -0.552955 0.819692 0
M  V30 19 H -2.8686 -1.94644 0.0893197 0
M  V30 20 H 2.83926 1.93381 -0.356545 0
M  V30 21 H 5.42936 1.00723 0.645745 0
M  V30 22 H 5.64185 0.427424 -1.01168 0
M  V30 23 H 4.22319 -2.03991 0.114253 0
M  V30 24 H 1.90892 -2.80991 0.200409 0
M  V30 25 H -1.90083 2.82966 -0.471348 0
M  V30 26 H -4.2426 2.0106 -0.379477 0
M  V30 END ATOM
M  V30 BEGIN BOND
M  V30 1 1 1 2
M  V30 2 2 2 3
M  V30 3 1 3 4
M  V30 4 2 4 5
M  V30 5 1 5 6
M  V30 6 1 6 7
M  V30 7 2 7 8
M  V30 8 1 8 9
M  V30 9 1 9 10
M  V30 10 2 9 11
M  V30 11 1 11 12
M  V30 12 2 12 13
M  V30 13 1 13 14
M  V30 14 1 5 15
M  V30 15 2 15 16
M  V30 16 1 16 2
M  V30 17 1 14 4
M  V30 18 1 13 7
M  V30 19 1 1 17
M  V30 20 1 1 18
M  V30 21 1 3 19
M  V30 22 1 8 20
M  V30 23 1 10 21
M  V30 24 1 10 22
M  V30 25 1 11 23
M  V30 26 1 12 24
M  V30 27 1 15 25
M  V30 28 1 16 26
M  V30 END BOND
M  V30 END CTAB
M  END
