
     RDKit          3D

  0  0  0  0  0  0  0  0  0  0999 V3000
M  V30 BEGIN CTAB
M  V30 COUNTS 20 20 0 0 0
M  V30 BEGIN ATOM
M  V30 1 N 2.17451 2.239 1.71758 0
M  V30 2 C 1.67462 1.87712 0.738619 0
M  V30 3 C 1.00795 1.41758 -0.506316 0
M  V30 4 C 0.18101 0.223352 -0.202217 0
M  V30 5 C 0.781384 -1.02556 -0.0312653 0
M  V30 6 N 2.19561 -1.13479 -0.158835 0
M  V30 7 C -0.0271818 -2.09887 0.252602 0
M  V30 8 C -1.39091 -1.94584 0.36585 0
M  V30 9 C -1.97015 -0.70126 0.193795 0
M  V30 10 C -1.18577 0.39999 -0.0932809 0
M  V30 11 N -1.75268 1.71116 -0.279402 0
M  V30 12 Br -3.86295 -0.418991 0.339967 0
M  V30 13 H 1.83994 1.19216 -1.20765 0
M  V30 14 H 0.338502 2.21746 -0.872929 0
M  V30 15 H 2.89471 -0.878475 0.543111 0
M  V30 16 H 2.55383 -1.51742 -1.07038 0
M  V30 17 H 0.464315 -3.07731 0.383071 0
M  V30 18 H -2.02016 -2.78585 0.586821 0
M  V30 19 H -2.13153 1.914 -1.22745 0
M  V30 20 H -1.76505 2.39256 0.528315 0
M  V30 END ATOM
M  V30 BEGIN BOND
M  V30 1 3 1 2
M  V30 2 1 2 3
M  V30 3 1 3 4
M  V30 4 2 4 5
M  V30 5 1 5 6
M  V30 6 1 5 7
M  V30 7 2 7 8
M  V30 8 1 8 9
M  V30 9 2 9 10
M  V30 10 1 10 11
M  V30 11 1 9 12
M  V30 12 1 10 4
M  V30 13 1 3 13
M  V30 14 1 3 14
M  V30 15 1 6 15
M  V30 16 1 6 16
M  V30 17 1 7 17
M  V30 18 1 8 18
M  V30 19 1 11 19
M  V30 20 1 11 20
M  V30 END BOND
M  V30 END CTAB
M  END
