
     RDKit          3D

  0  0  0  0  0  0  0  0  0  0999 V3000
M  V30 BEGIN CTAB
M  V30 COUNTS 30 31 0 0 0
M  V30 BEGIN ATOM
M  V30 1 N 4.71081 1.67777 0.0971286 0
M  V30 2 N 3.35878 1.39518 0.101338 0
M  V30 3 C 2.8497 0.22006 -0.0279334 0
M  V30 4 N 1.4603 0.0625411 -0.00748209 0
M  V30 5 C 0.793189 -1.22058 0.166848 0
M  V30 6 C -0.633878 -1.04304 -0.202091 0
M  V30 7 C -0.741769 0.392426 -0.563686 0
M  V30 8 C 0.489037 1.10281 -0.150464 0
M  V30 9 C -1.54262 -0.222818 0.608502 0
M  V30 10 N -2.92689 -0.117675 0.452961 0
M  V30 11 C -3.75013 -1.24662 0.61486 0
M  V30 12 C -3.4109 0.943122 -0.356294 0
M  V30 13 N 3.76271 -0.854886 -0.186652 0
M  V30 14 H 5.2256 1.95096 -0.775056 0
M  V30 15 H 5.24666 1.61887 0.992748 0
M  V30 16 H 1.27323 -1.90753 -0.561182 0
M  V30 17 H 0.973597 -1.56219 1.19462 0
M  V30 18 H -1.08247 -1.82965 -0.825983 0
M  V30 19 H -1.25669 0.588454 -1.50621 0
M  V30 20 H 0.309366 1.59125 0.841357 0
M  V30 21 H 0.752617 1.87308 -0.890045 0
M  V30 22 H -1.17245 0.0200458 1.64372 0
M  V30 23 H -4.35154 -1.39617 -0.330859 0
M  V30 24 H -4.5378 -1.07555 1.40293 0
M  V30 25 H -3.2175 -2.15447 0.888581 0
M  V30 26 H -4.2491 1.48959 0.150922 0
M  V30 27 H -3.86636 0.536754 -1.30664 0
M  V30 28 H -2.64939 1.71841 -0.557936 0
M  V30 29 H 3.5958 -1.72167 0.362451 0
M  V30 30 H 4.58807 -0.82847 -0.818642 0
M  V30 END ATOM
M  V30 BEGIN BOND
M  V30 1 1 1 2
M  V30 2 2 2 3 CFG=2
M  V30 3 1 3 4
M  V30 4 1 4 5
M  V30 5 1 5 6
M  V30 6 1 6 7
M  V30 7 1 7 8
M  V30 8 1 7 9
M  V30 9 1 9 10
M  V30 10 1 10 11
M  V30 11 1 10 12
M  V30 12 1 3 13
M  V30 13 1 8 4
M  V30 14 1 9 6
M  V30 15 1 1 14
M  V30 16 1 1 15
M  V30 17 1 5 16
M  V30 18 1 5 17
M  V30 19 1 6 18
M  V30 20 1 7 19
M  V30 21 1 8 20
M  V30 22 1 8 21
M  V30 23 1 9 22
M  V30 24 1 11 23
M  V30 25 1 11 24
M  V30 26 1 11 25
M  V30 27 1 12 26
M  V30 28 1 12 27
M  V30 29 1 12 28
M  V30 30 1 13 29
M  V30 31 1 13 30
M  V30 END BOND
M  V30 END CTAB
M  END
