
     RDKit          3D

  0  0  0  0  0  0  0  0  0  0999 V3000
M  V30 BEGIN CTAB
M  V30 COUNTS 42 44 0 0 0
M  V30 BEGIN ATOM
M  V30 1 C 5.88526 -1.92849 -0.379967 0
M  V30 2 O 5.23316 -0.743332 -0.000106544 0
M  V30 3 C 3.85264 -0.6236 0.052437 0
M  V30 4 C 2.99413 -1.64523 -0.259689 0
M  V30 5 C 1.59312 -1.47413 -0.190759 0
M  V30 6 C 1.06225 -0.309566 0.181655 0
M  V30 7 C 1.94075 0.731435 0.499474 0
M  V30 8 C 3.30249 0.577535 0.436208 0
M  V30 9 N -0.324056 0.0293632 0.31368 0
M  V30 10 C -1.3228 -0.73859 0.936641 0
M  V30 11 C -2.13936 -0.212064 1.93289 0
M  V30 12 C -3.20277 -0.878261 2.50584 0
M  V30 13 C -3.48577 -2.14142 2.07992 0
M  V30 14 N -4.57835 -2.82495 2.66994 0
M  V30 15 C -2.69864 -2.6913 1.09925 0
M  V30 16 C -1.6513 -2.01526 0.542928 0
M  V30 17 C -0.71275 1.21039 -0.429799 0
M  V30 18 C -0.239261 1.26084 -1.76834 0
M  V30 19 C -0.515888 2.32907 -2.58112 0
M  V30 20 C -1.26999 3.39589 -2.1159 0
M  V30 21 N -1.57106 4.5174 -2.94185 0
M  V30 22 C -1.72087 3.34924 -0.842207 0
M  V30 23 C -1.43802 2.25401 -0.00583288 0
M  V30 24 H 5.32276 -2.50116 -1.14619 0
M  V30 25 H 6.07588 -2.51939 0.54144 0
M  V30 26 H 6.8771 -1.6815 -0.819539 0
M  V30 27 H 3.37014 -2.59474 -0.562443 0
M  V30 28 H 0.961232 -2.29233 -0.44895 0
M  V30 29 H 1.54139 1.69407 0.806557 0
M  V30 30 H 3.98712 1.39635 0.686268 0
M  V30 31 H -1.96204 0.772016 2.38377 0
M  V30 32 H -3.82087 -0.4189 3.2897 0
M  V30 33 H -4.51168 -3.25542 3.60759 0
M  V30 34 H -5.46612 -2.894 2.14654 0
M  V30 35 H -2.9734 -3.70482 0.80053 0
M  V30 36 H -1.10738 -2.52429 -0.251178 0
M  V30 37 H 0.350586 0.43144 -2.13961 0
M  V30 38 H -0.153576 2.35872 -3.59238 0
M  V30 39 H -1.7547 5.45785 -2.53604 0
M  V30 40 H -1.61633 4.42997 -3.97444 0
M  V30 41 H -2.30739 4.14694 -0.43372 0
M  V30 42 H -1.80565 2.27021 0.999679 0
M  V30 END ATOM
M  V30 BEGIN BOND
M  V30 1 1 1 2
M  V30 2 1 2 3
M  V30 3 2 3 4
M  V30 4 1 4 5
M  V30 5 2 5 6
M  V30 6 1 6 7
M  V30 7 2 7 8
M  V30 8 1 6 9
M  V30 9 1 9 10
M  V30 10 2 10 11
M  V30 11 1 11 12
M  V30 12 2 12 13
M  V30 13 1 13 14
M  V30 14 1 13 15
M  V30 15 2 15 16
M  V30 16 1 9 17
M  V30 17 2 17 18
M  V30 18 1 18 19
M  V30 19 2 19 20
M  V30 20 1 20 21
M  V30 21 1 20 22
M  V30 22 2 22 23
M  V30 23 1 8 3
M  V30 24 1 16 10
M  V30 25 1 23 17
M  V30 26 1 1 24
M  V30 27 1 1 25
M  V30 28 1 1 26
M  V30 29 1 4 27
M  V30 30 1 5 28
M  V30 31 1 7 29
M  V30 32 1 8 30
M  V30 33 1 11 31
M  V30 34 1 12 32
M  V30 35 1 14 33
M  V30 36 1 14 34
M  V30 37 1 15 35
M  V30 38 1 16 36
M  V30 39 1 18 37
M  V30 40 1 19 38
M  V30 41 1 21 39
M  V30 42 1 21 40
M  V30 43 1 22 41
M  V30 44 1 23 42
M  V30 END BOND
M  V30 END CTAB
M  END
