
     RDKit          3D

  0  0  0  0  0  0  0  0  0  0999 V3000
M  V30 BEGIN CTAB
M  V30 COUNTS 34 35 0 0 0
M  V30 BEGIN ATOM
M  V30 1 C -3.15863 3.02675 -0.377613 0
M  V30 2 C -3.03173 1.56108 -0.10906 0
M  V30 3 C -4.1372 0.82978 0.257441 0
M  V30 4 C -4.06098 -0.516145 0.511893 0
M  V30 5 C -2.81115 -1.1483 0.38973 0
M  V30 6 C -2.77649 -2.58263 0.722294 0
M  V30 7 C -1.70193 -0.468306 0.0307578 0
M  V30 8 C -1.82443 0.927305 -0.223319 0
M  V30 9 C -0.389306 -1.04607 -0.183723 0
M  V30 10 C 0.00350273 -2.3325 -0.292728 0
M  V30 11 C 1.39875 -2.36787 -0.503136 0
M  V30 12 C 1.77864 -1.05242 -0.510004 0
M  V30 13 O 0.734201 -0.335603 -0.325783 0
M  V30 14 C 3.17257 -0.623147 -0.702969 0
M  V30 15 O 4.05846 -1.48208 -0.868777 0
M  V30 16 N 3.52791 0.745295 -0.704138 0
M  V30 17 C 4.63315 1.19754 -0.237895 0
M  V30 18 N 5.59395 0.316343 0.324837 0
M  V30 19 N 4.91302 2.57452 -0.275772 0
M  V30 20 H -2.3027 3.41563 -0.941552 0
M  V30 21 H -4.1348 3.15372 -0.921982 0
M  V30 22 H -3.27635 3.56514 0.585515 0
M  V30 23 H -5.0765 1.36889 0.336381 0
M  V30 24 H -4.93641 -1.07628 0.797777 0
M  V30 25 H -3.71173 -2.79932 1.347 0
M  V30 26 H -1.96861 -2.80716 1.46201 0
M  V30 27 H -2.85638 -3.26625 -0.119937 0
M  V30 28 H -0.936289 1.4757 -0.510519 0
M  V30 29 H -0.566776 -3.25383 -0.26375 0
M  V30 30 H 1.99223 -3.24669 -0.625493 0
M  V30 31 H 5.448 0.0146405 1.31066 0
M  V30 32 H 6.4076 -0.00961229 -0.232334 0
M  V30 33 H 5.63231 3.02364 -0.881541 0
M  V30 34 H 4.36409 3.21823 0.348853 0
M  V30 END ATOM
M  V30 BEGIN BOND
M  V30 1 1 1 2
M  V30 2 2 2 3
M  V30 3 1 3 4
M  V30 4 2 4 5
M  V30 5 1 5 6
M  V30 6 1 5 7
M  V30 7 2 7 8
M  V30 8 1 7 9
M  V30 9 2 9 10
M  V30 10 1 10 11
M  V30 11 2 11 12
M  V30 12 1 12 13
M  V30 13 1 12 14
M  V30 14 2 14 15
M  V30 15 1 14 16
M  V30 16 2 16 17
M  V30 17 1 17 18
M  V30 18 1 17 19
M  V30 19 1 8 2
M  V30 20 1 13 9
M  V30 21 1 1 20
M  V30 22 1 1 21
M  V30 23 1 1 22
M  V30 24 1 3 23
M  V30 25 1 4 24
M  V30 26 1 6 25
M  V30 27 1 6 26
M  V30 28 1 6 27
M  V30 29 1 8 28
M  V30 30 1 10 29
M  V30 31 1 11 30
M  V30 32 1 18 31
M  V30 33 1 18 32
M  V30 34 1 19 33
M  V30 35 1 19 34
M  V30 END BOND
M  V30 END CTAB
M  END
