
     RDKit          3D

  0  0  0  0  0  0  0  0  0  0999 V3000
M  V30 BEGIN CTAB
M  V30 COUNTS 25 26 0 0 0
M  V30 BEGIN ATOM
M  V30 1 C 3.59765 -1.38319 -0.0551423 0
M  V30 2 C 2.31992 -0.62479 -0.12046 0
M  V30 3 N 1.15785 -1.28244 0.00691348 0
M  V30 4 C -0.00090899 -0.578111 -0.0545734 0
M  V30 5 C 0.0414971 0.785889 -0.244936 0
M  V30 6 C 1.25229 1.46826 -0.377256 0
M  V30 7 C 2.41726 0.734467 -0.311876 0
M  V30 8 C -1.14484 1.49136 -0.305706 0
M  V30 9 N -1.05387 2.89602 -0.503225 0
M  V30 10 C -2.36298 0.846183 -0.178286 0
M  V30 11 C -2.42808 -0.521382 0.0132852 0
M  V30 12 N -3.66011 -1.22536 0.14927 0
M  V30 13 C -1.22611 -1.19491 0.0691368 0
M  V30 14 O -1.26482 -2.57318 0.261376 0
M  V30 15 H 4.18041 -1.17099 -0.953413 0
M  V30 16 H 4.19784 -1.06432 0.834345 0
M  V30 17 H 3.40436 -2.47097 0.0601223 0
M  V30 18 H 1.26197 2.53519 -0.525443 0
M  V30 19 H 3.37254 1.24038 -0.411764 0
M  V30 20 H -1.39762 3.49664 0.278569 0
M  V30 21 H -0.675363 3.34639 -1.3574 0
M  V30 22 H -3.29094 1.39617 -0.225536 0
M  V30 23 H -4.3531 -1.32096 -0.619041 0
M  V30 24 H -3.91505 -1.6892 1.07215 0
M  V30 25 H -0.429797 -3.13716 0.313501 0
M  V30 END ATOM
M  V30 BEGIN BOND
M  V30 1 1 1 2
M  V30 2 2 2 3
M  V30 3 1 3 4
M  V30 4 2 4 5
M  V30 5 1 5 6
M  V30 6 2 6 7
M  V30 7 1 5 8
M  V30 8 1 8 9
M  V30 9 2 8 10
M  V30 10 1 10 11
M  V30 11 1 11 12
M  V30 12 2 11 13
M  V30 13 1 13 14
M  V30 14 1 7 2
M  V30 15 1 13 4
M  V30 16 1 1 15
M  V30 17 1 1 16
M  V30 18 1 1 17
M  V30 19 1 6 18
M  V30 20 1 7 19
M  V30 21 1 9 20
M  V30 22 1 9 21
M  V30 23 1 10 22
M  V30 24 1 12 23
M  V30 25 1 12 24
M  V30 26 1 14 25
M  V30 END BOND
M  V30 END CTAB
M  END
