
     RDKit          3D

  0  0  0  0  0  0  0  0  0  0999 V3000
M  V30 BEGIN CTAB
M  V30 COUNTS 64 67 0 0 0
M  V30 BEGIN ATOM
M  V30 1 C 6.86325 4.21535 -3.22255 0
M  V30 2 C 5.39036 3.88897 -3.16235 0
M  V30 3 O 4.58236 4.60445 -3.77563 0
M  V30 4 N 5.01129 2.79069 -2.41433 0
M  V30 5 C 3.68744 2.32013 -2.24567 0
M  V30 6 C 2.65855 2.60994 -3.09244 0
M  V30 7 C 1.38404 2.13843 -2.85577 0
M  V30 8 C 1.08526 1.34015 -1.73767 0
M  V30 9 C -0.277203 0.89345 -1.54768 0
M  V30 10 O -1.13132 1.25226 -2.45365 0
M  V30 11 N -0.817192 0.121778 -0.520796 0
M  V30 12 C -2.1868 -0.262833 -0.414111 0
M  V30 13 C -2.45472 -1.42474 0.293985 0
M  V30 14 C -3.74181 -1.90606 0.497139 0
M  V30 15 C -4.80691 -1.21093 -0.0199331 0
M  V30 16 C -4.54528 -0.0558857 -0.724311 0
M  V30 17 C -3.24296 0.426442 -0.926723 0
M  V30 18 C -6.18456 -1.63076 0.166463 0
M  V30 19 C -6.89001 -2.21322 -0.900606 0
M  V30 20 C -8.17805 -2.64796 -0.776905 0
M  V30 21 C -8.81736 -2.51702 0.428559 0
M  V30 22 C -8.1441 -1.9538 1.47113 0
M  V30 23 C -6.82029 -1.49695 1.37195 0
M  V30 24 S -6.01965 -0.76122 2.72143 0
M  V30 25 N -5.4851 0.84365 2.36187 0
M  V30 26 O -4.95354 -1.57939 3.32309 0
M  V30 27 O -7.08328 -0.595836 3.81496 0
M  V30 28 C 2.10046 1.03736 -0.879102 0
M  V30 29 O 1.90872 0.241412 0.270728 0
M  V30 30 C 2.94009 -0.0585483 1.11957 0
M  V30 31 C 3.16919 0.76574 2.20303 0
M  V30 32 C 4.2081 0.459484 3.0534 0
M  V30 33 C 4.99059 -0.648962 2.81074 0
M  V30 34 C 4.76735 -1.47698 1.72989 0
M  V30 35 C 3.73273 -1.18632 0.869443 0
M  V30 36 C 5.62871 -2.65733 1.50099 0
M  V30 37 N 6.69204 -2.96754 2.38857 0
M  V30 38 N 5.38395 -3.3957 0.474434 0
M  V30 39 C 3.36783 1.52425 -1.14153 0
M  V30 40 H 7.48297 3.35395 -2.9316 0
M  V30 41 H 7.06649 4.57861 -4.24377 0
M  V30 42 H 7.04992 5.03092 -2.5259 0
M  V30 43 H 5.8017 2.23798 -1.91145 0
M  V30 44 H 2.8248 3.20699 -3.98517 0
M  V30 45 H 0.592676 2.38597 -3.54294 0
M  V30 46 H -0.161153 -0.20759 0.254956 0
M  V30 47 H -1.62205 -1.97586 0.703739 0
M  V30 48 H -3.88092 -2.83845 1.05112 0
M  V30 49 H -5.37907 0.484562 -1.12697 0
M  V30 50 H -3.1398 1.35242 -1.47399 0
M  V30 51 H -6.34515 -2.29429 -1.82606 0
M  V30 52 H -8.6843 -3.08615 -1.61353 0
M  V30 53 H -9.82986 -2.85107 0.551193 0
M  V30 54 H -8.63701 -1.84051 2.43907 0
M  V30 55 H -5.26785 1.33281 3.2645 0
M  V30 56 H -6.26123 1.31334 1.8212 0
M  V30 57 H 2.5556 1.64225 2.39706 0
M  V30 58 H 4.36118 1.12304 3.89359 0
M  V30 59 H 5.79596 -0.84994 3.50526 0
M  V30 60 H 3.5248 -1.81795 0.00434535 0
M  V30 61 H 6.58286 -3.20157 3.38682 0
M  V30 62 H 7.66873 -2.96123 2.01104 0
M  V30 63 H 5.96751 -4.22187 0.29216 0
M  V30 64 H 4.16104 1.27768 -0.454268 0
M  V30 END ATOM
M  V30 BEGIN BOND
M  V30 1 1 1 2
M  V30 2 2 2 3
M  V30 3 1 2 4
M  V30 4 1 4 5
M  V30 5 2 5 6
M  V30 6 1 6 7
M  V30 7 2 7 8
M  V30 8 1 8 9
M  V30 9 2 9 10
M  V30 10 1 9 11
M  V30 11 1 11 12
M  V30 12 2 12 13
M  V30 13 1 13 14
M  V30 14 2 14 15
M  V30 15 1 15 16
M  V30 16 2 16 17
M  V30 17 1 15 18
M  V30 18 2 18 19
M  V30 19 1 19 20
M  V30 20 2 20 21
M  V30 21 1 21 22
M  V30 22 2 22 23
M  V30 23 1 23 24
M  V30 24 1 24 25
M  V30 25 2 24 26
M  V30 26 2 24 27
M  V30 27 1 8 28
M  V30 28 1 28 29
M  V30 29 1 29 30
M  V30 30 2 30 31
M  V30 31 1 31 32
M  V30 32 2 32 33
M  V30 33 1 33 34
M  V30 34 2 34 35
M  V30 35 1 34 36
M  V30 36 1 36 37
M  V30 37 2 36 38 CFG=2
M  V30 38 2 28 39
M  V30 39 1 39 5
M  V30 40 1 17 12
M  V30 41 1 23 18
M  V30 42 1 35 30
M  V30 43 1 1 40
M  V30 44 1 1 41
M  V30 45 1 1 42
M  V30 46 1 4 43
M  V30 47 1 6 44
M  V30 48 1 7 45
M  V30 49 1 11 46
M  V30 50 1 13 47
M  V30 51 1 14 48
M  V30 52 1 16 49
M  V30 53 1 17 50
M  V30 54 1 19 51
M  V30 55 1 20 52
M  V30 56 1 21 53
M  V30 57 1 22 54
M  V30 58 1 25 55
M  V30 59 1 25 56
M  V30 60 1 31 57
M  V30 61 1 32 58
M  V30 62 1 33 59
M  V30 63 1 35 60
M  V30 64 1 37 61
M  V30 65 1 37 62
M  V30 66 1 38 63
M  V30 67 1 39 64
M  V30 END BOND
M  V30 END CTAB
M  END
