
     RDKit          3D

  0  0  0  0  0  0  0  0  0  0999 V3000
M  V30 BEGIN CTAB
M  V30 COUNTS 25 25 0 0 0
M  V30 BEGIN ATOM
M  V30 1 C 3.21944 0.417695 0.983554 0
M  V30 2 C 2.52892 -0.520411 0.0264879 0 CFG=1
M  V30 3 C 1.05882 -0.313008 0.186272 0
M  V30 4 C 0.468705 0.788839 -0.402219 0
M  V30 5 C -0.888313 1.01463 -0.276732 0
M  V30 6 C -1.68389 0.144131 0.4394 0
M  V30 7 C -1.07413 -0.950227 1.01919 0
M  V30 8 C 0.282628 -1.18677 0.900639 0
M  V30 9 S -3.40823 0.413293 0.610223 0
M  V30 10 O -3.62811 1.89395 0.593264 0
M  V30 11 O -3.79479 -0.104082 1.9694 0
M  V30 12 N -4.28594 -0.335347 -0.64709 0
M  V30 13 N 2.85724 -0.291106 -1.3383 0
M  V30 14 H 2.93509 0.134281 2.01666 0
M  V30 15 H 4.30488 0.358907 0.8648 0
M  V30 16 H 2.83621 1.46429 0.837651 0
M  V30 17 H 2.81146 -1.54251 0.298478 0
M  V30 18 H 1.09983 1.45574 -0.955169 0
M  V30 19 H -1.34822 1.88599 -0.743458 0
M  V30 20 H -1.66113 -1.645 1.58119 0
M  V30 21 H 0.772541 -2.04102 1.35044 0
M  V30 22 H -4.96567 0.352566 -1.03873 0
M  V30 23 H -4.85176 -1.15839 -0.320594 0
M  V30 24 H 2.85758 0.677337 -1.65638 0
M  V30 25 H 3.55683 -0.913782 -1.74761 0
M  V30 END ATOM
M  V30 BEGIN BOND
M  V30 1 1 1 2
M  V30 2 1 2 3
M  V30 3 2 3 4
M  V30 4 1 4 5
M  V30 5 2 5 6
M  V30 6 1 6 7
M  V30 7 2 7 8
M  V30 8 1 6 9
M  V30 9 2 9 10
M  V30 10 2 9 11
M  V30 11 1 9 12
M  V30 12 1 2 13
M  V30 13 1 8 3
M  V30 14 1 1 14
M  V30 15 1 1 15
M  V30 16 1 1 16
M  V30 17 1 2 17 CFG=1
M  V30 18 1 4 18
M  V30 19 1 5 19
M  V30 20 1 7 20
M  V30 21 1 8 21
M  V30 22 1 12 22
M  V30 23 1 12 23
M  V30 24 1 13 24
M  V30 25 1 13 25
M  V30 END BOND
M  V30 END CTAB
M  END
