
     RDKit          3D

  0  0  0  0  0  0  0  0  0  0999 V3000
M  V30 BEGIN CTAB
M  V30 COUNTS 23 23 0 0 0
M  V30 BEGIN ATOM
M  V30 1 C -0.821916 2.46564 -0.158816 0
M  V30 2 C -0.00989246 1.22989 -0.0532717 0
M  V30 3 C 1.37927 1.29666 -0.0239455 0
M  V30 4 C 2.14094 0.153124 0.0737179 0
M  V30 5 O 3.53458 0.202264 0.104371 0
M  V30 6 C 1.52473 -1.08946 0.14456 0
M  V30 7 C 0.150557 -1.18062 0.117291 0
M  V30 8 C -0.603427 -0.0128374 0.0181447 0
M  V30 9 S -2.36319 -0.133752 -0.0161534 0
M  V30 10 O -2.90424 0.543273 1.21849 0
M  V30 11 O -2.93819 0.53958 -1.20335 0
M  V30 12 N -2.82861 -1.79382 0.0858308 0
M  V30 13 N 2.35006 -2.25933 0.245598 0
M  V30 14 H -1.35524 2.42538 -1.13417 0
M  V30 15 H -1.56352 2.52909 0.651549 0
M  V30 16 H -0.133573 3.34208 -0.166004 0
M  V30 17 H 1.84426 2.28336 -0.0807862 0
M  V30 18 H 3.97227 1.11225 0.0521444 0
M  V30 19 H -0.354005 -2.1366 0.171041 0
M  V30 20 H -3.87175 -1.83614 0.0484033 0
M  V30 21 H -2.41197 -2.35397 -0.690674 0
M  V30 22 H 2.45709 -2.66327 1.18618 0
M  V30 23 H 2.80576 -2.66279 -0.590152 0
M  V30 END ATOM
M  V30 BEGIN BOND
M  V30 1 1 1 2
M  V30 2 2 2 3
M  V30 3 1 3 4
M  V30 4 1 4 5
M  V30 5 2 4 6
M  V30 6 1 6 7
M  V30 7 2 7 8
M  V30 8 1 8 9
M  V30 9 2 9 10
M  V30 10 2 9 11
M  V30 11 1 9 12
M  V30 12 1 6 13
M  V30 13 1 8 2
M  V30 14 1 1 14
M  V30 15 1 1 15
M  V30 16 1 1 16
M  V30 17 1 3 17
M  V30 18 1 5 18
M  V30 19 1 7 19
M  V30 20 1 12 20
M  V30 21 1 12 21
M  V30 22 1 13 22
M  V30 23 1 13 23
M  V30 END BOND
M  V30 END CTAB
M  END
