
     RDKit          3D

  0  0  0  0  0  0  0  0  0  0999 V3000
M  V30 BEGIN CTAB
M  V30 COUNTS 64 63 0 0 0
M  V30 BEGIN ATOM
M  V30 1 N -3.8806 -6.47698 1.72559 0
M  V30 2 C -4.02075 -5.68335 0.494846 0
M  V30 3 C -3.29877 -4.40192 0.640368 0
M  V30 4 O -2.71373 -4.17724 1.74013 0
M  V30 5 N -3.24101 -3.43479 -0.39595 0
M  V30 6 C -2.49664 -2.19957 -0.165381 0
M  V30 7 C -1.3206 -2.04947 -1.03648 0
M  V30 8 O -1.26923 -2.48638 -2.21735 0
M  V30 9 N -0.172643 -1.38496 -0.531577 0
M  V30 10 C 0.98272 -1.2505 -1.35472 0
M  V30 11 C 2.11423 -0.578294 -0.700494 0
M  V30 12 O 3.17391 -0.484019 -1.41607 0
M  V30 13 N 2.16426 -0.0437272 0.583591 0
M  V30 14 C 3.38357 0.588353 1.12594 0
M  V30 15 C 3.27726 2.03666 0.618935 0
M  V30 16 O 2.06886 2.44322 0.716901 0
M  V30 17 N 4.38317 2.66322 0.1576 0
M  V30 18 C 5.48457 3.28742 -0.301929 0
M  V30 19 C 6.79691 2.8233 0.250125 0
M  V30 20 O 6.84243 1.87309 1.04429 0
M  V30 21 O 7.9553 3.4485 -0.122435 0
M  V30 22 C 5.54094 2.94303 -1.84466 0
M  V30 23 O 6.59686 3.53965 -2.44522 0
M  V30 24 C 3.30691 0.514414 2.61115 0
M  V30 25 C 4.41912 1.04953 3.37179 0
M  V30 26 O 5.36004 0.288556 3.74037 0
M  V30 27 O 4.50897 2.37706 3.72368 0
M  V30 28 C -3.4624 -1.07056 -0.151083 0
M  V30 29 C -4.24944 -0.909063 -1.41965 0
M  V30 30 C -5.24564 0.198452 -1.37837 0
M  V30 31 N -4.73425 1.50927 -1.1538 0
M  V30 32 C -5.72508 2.56304 -1.09578 0
M  V30 33 N -5.50318 3.65449 -0.475699 0
M  V30 34 N -6.98797 2.40962 -1.72957 0
M  V30 35 H -3.61215 -5.85677 2.52815 0
M  V30 36 H -3.01912 -7.08297 1.56962 0
M  V30 37 H -3.6142 -6.24289 -0.360092 0
M  V30 38 H -5.13112 -5.51094 0.421466 0
M  V30 39 H -3.70457 -3.57324 -1.31089 0
M  V30 40 H -2.09926 -2.27056 0.891744 0
M  V30 41 H -0.233515 -1.00848 0.456214 0
M  V30 42 H 0.766059 -0.633674 -2.27543 0
M  V30 43 H 1.38774 -2.20437 -1.76402 0
M  V30 44 H 1.34409 -0.0690319 1.20292 0
M  V30 45 H 4.30073 0.22156 0.726687 0
M  V30 46 H 3.60524 3.71762 -0.238818 0
M  V30 47 H 5.50398 4.40144 -0.260933 0
M  V30 48 H 8.75084 2.9953 -0.550371 0
M  V30 49 H 4.54134 3.14523 -2.21762 0
M  V30 50 H 5.7001 1.82613 -1.89933 0
M  V30 51 H 6.66895 4.4738 -2.19658 0
M  V30 52 H 3.12852 -0.55849 2.88414 0
M  V30 53 H 2.33821 1.01266 2.91891 0
M  V30 54 H 3.93106 3.05943 3.24337 0
M  V30 55 H -4.21493 -1.30888 0.652696 0
M  V30 56 H -2.96833 -0.132109 0.148819 0
M  V30 57 H -3.49615 -0.666096 -2.22576 0
M  V30 58 H -4.79259 -1.83913 -1.69242 0
M  V30 59 H -6.0944 -0.0401218 -0.672687 0
M  V30 60 H -5.76833 0.227614 -2.38211 0
M  V30 61 H -3.7497 1.78883 -1.03125 0
M  V30 62 H -4.61206 3.8374 0.0130909 0
M  V30 63 H -7.80451 2.93046 -1.36954 0
M  V30 64 H -7.08998 1.78022 -2.54095 0
M  V30 END ATOM
M  V30 BEGIN BOND
M  V30 1 1 1 2
M  V30 2 1 2 3
M  V30 3 2 3 4
M  V30 4 1 3 5
M  V30 5 1 5 6
M  V30 6 1 6 7
M  V30 7 2 7 8
M  V30 8 1 7 9
M  V30 9 1 9 10
M  V30 10 1 10 11
M  V30 11 2 11 12
M  V30 12 1 11 13
M  V30 13 1 13 14
M  V30 14 1 14 15
M  V30 15 2 15 16
M  V30 16 1 15 17
M  V30 17 1 17 18
M  V30 18 1 18 19
M  V30 19 2 19 20
M  V30 20 1 19 21
M  V30 21 1 18 22
M  V30 22 1 22 23
M  V30 23 1 14 24
M  V30 24 1 24 25
M  V30 25 2 25 26
M  V30 26 1 25 27
M  V30 27 1 6 28
M  V30 28 1 28 29
M  V30 29 1 29 30
M  V30 30 1 30 31
M  V30 31 1 31 32
M  V30 32 2 32 33 CFG=2
M  V30 33 1 32 34
M  V30 34 1 1 35
M  V30 35 1 1 36
M  V30 36 1 2 37
M  V30 37 1 2 38
M  V30 38 1 5 39
M  V30 39 1 6 40
M  V30 40 1 9 41
M  V30 41 1 10 42
M  V30 42 1 10 43
M  V30 43 1 13 44
M  V30 44 1 14 45
M  V30 45 1 17 46
M  V30 46 1 18 47
M  V30 47 1 21 48
M  V30 48 1 22 49
M  V30 49 1 22 50
M  V30 50 1 23 51
M  V30 51 1 24 52
M  V30 52 1 24 53
M  V30 53 1 27 54
M  V30 54 1 28 55
M  V30 55 1 28 56
M  V30 56 1 29 57
M  V30 57 1 29 58
M  V30 58 1 30 59
M  V30 59 1 30 60
M  V30 60 1 31 61
M  V30 61 1 33 62
M  V30 62 1 34 63
M  V30 63 1 34 64
M  V30 END BOND
M  V30 END CTAB
M  END
