
     RDKit          3D

  0  0  0  0  0  0  0  0  0  0999 V3000
M  V30 BEGIN CTAB
M  V30 COUNTS 25 25 0 0 0
M  V30 BEGIN ATOM
M  V30 1 O -3.55388 1.40606 0.485486 0
M  V30 2 C -3.07529 0.13828 0.146789 0
M  V30 3 O -3.42668 -0.394156 -0.92907 0
M  V30 4 C -2.14152 -0.516329 1.11363 0
M  V30 5 C -0.759618 -0.398903 0.537461 0
M  V30 6 C 0.0242822 0.626855 1.09241 0
M  V30 7 C 1.29945 0.840858 0.589424 0
M  V30 8 N 2.17218 1.85287 1.08823 0
M  V30 9 C 1.73607 0.0357778 -0.43395 0
M  V30 10 C 0.95623 -0.970564 -0.967335 0
M  V30 11 C -0.337787 -1.19794 -0.463695 0
M  V30 12 N -1.13196 -2.22325 -0.978754 0
M  V30 13 C 3.09724 0.289854 -0.982835 0
M  V30 14 F 4.1099 0.127098 -0.0591454 0
M  V30 15 F 3.30406 -0.510807 -2.08224 0
M  V30 16 F 3.19333 1.62123 -1.41601 0
M  V30 17 H -3.90267 2.02165 -0.262316 0
M  V30 18 H -2.22906 -0.0399735 2.0923 0
M  V30 19 H -2.45215 -1.57612 1.17235 0
M  V30 20 H -0.323938 1.25699 1.89942 0
M  V30 21 H 2.98303 1.61227 1.71911 0
M  V30 22 H 2.0439 2.85718 0.846633 0
M  V30 23 H 1.29741 -1.60698 -1.7666 0
M  V30 24 H -1.71743 -2.88365 -0.423496 0
M  V30 25 H -1.1651 -2.36831 -2.0178 0
M  V30 END ATOM
M  V30 BEGIN BOND
M  V30 1 1 1 2
M  V30 2 2 2 3
M  V30 3 1 2 4
M  V30 4 1 4 5
M  V30 5 2 5 6
M  V30 6 1 6 7
M  V30 7 1 7 8
M  V30 8 2 7 9
M  V30 9 1 9 10
M  V30 10 2 10 11
M  V30 11 1 11 12
M  V30 12 1 9 13
M  V30 13 1 13 14
M  V30 14 1 13 15
M  V30 15 1 13 16
M  V30 16 1 11 5
M  V30 17 1 1 17
M  V30 18 1 4 18
M  V30 19 1 4 19
M  V30 20 1 6 20
M  V30 21 1 8 21
M  V30 22 1 8 22
M  V30 23 1 10 23
M  V30 24 1 12 24
M  V30 25 1 12 25
M  V30 END BOND
M  V30 END CTAB
M  END
