
     RDKit          3D

  0  0  0  0  0  0  0  0  0  0999 V3000
M  V30 BEGIN CTAB
M  V30 COUNTS 30 31 0 0 0
M  V30 BEGIN ATOM
M  V30 1 N -6.08102 -0.00469211 1.00298 0
M  V30 2 C -4.68524 -0.0363204 0.729457 0
M  V30 3 C -4.17545 -1.09609 0.0353691 0
M  V30 4 C -2.83194 -1.14715 -0.239591 0
M  V30 5 C -1.9211 -0.138821 0.165204 0
M  V30 6 C -2.47654 0.904681 0.858433 0
M  V30 7 C -3.8471 0.965548 1.1439 0
M  V30 8 C -0.527746 -0.297806 -0.180051 0
M  V30 9 O -0.25471 -1.36253 -0.833523 0
M  V30 10 C 0.504439 0.633472 0.158782 0
M  V30 11 O 0.253693 1.70995 0.814795 0
M  V30 12 C 1.93132 0.507702 -0.173749 0
M  V30 13 C 2.82294 1.51534 0.234072 0
M  V30 14 C 4.16205 1.49107 -0.0248728 0
M  V30 15 C 4.68891 0.429584 -0.722929 0
M  V30 16 N 6.08316 0.408394 -0.990221 0
M  V30 17 C 3.84151 -0.572698 -1.13581 0
M  V30 18 C 2.45671 -0.544812 -0.866452 0
M  V30 19 H -6.64118 0.828096 0.794989 0
M  V30 20 H -6.50677 -0.87985 1.42923 0
M  V30 21 H -4.84168 -1.87958 -0.286775 0
M  V30 22 H -2.46563 -2.01273 -0.797332 0
M  V30 23 H -1.86362 1.70954 1.20245 0
M  V30 24 H -4.21206 1.81334 1.69133 0
M  V30 25 H 2.46307 2.38881 0.794989 0
M  V30 26 H 4.82669 2.27871 0.299828 0
M  V30 27 H 6.75682 0.800681 -0.310489 0
M  V30 28 H 6.42711 -0.00718436 -1.88076 0
M  V30 29 H 4.24093 -1.41299 -1.68517 0
M  V30 30 H 1.87241 -1.37166 -1.22808 0
M  V30 END ATOM
M  V30 BEGIN BOND
M  V30 1 1 1 2
M  V30 2 2 2 3
M  V30 3 1 3 4
M  V30 4 2 4 5
M  V30 5 1 5 6
M  V30 6 2 6 7
M  V30 7 1 5 8
M  V30 8 2 8 9
M  V30 9 1 8 10
M  V30 10 2 10 11
M  V30 11 1 10 12
M  V30 12 2 12 13
M  V30 13 1 13 14
M  V30 14 2 14 15
M  V30 15 1 15 16
M  V30 16 1 15 17
M  V30 17 2 17 18
M  V30 18 1 7 2
M  V30 19 1 18 12
M  V30 20 1 1 19
M  V30 21 1 1 20
M  V30 22 1 3 21
M  V30 23 1 4 22
M  V30 24 1 6 23
M  V30 25 1 7 24
M  V30 26 1 13 25
M  V30 27 1 14 26
M  V30 28 1 16 27
M  V30 29 1 16 28
M  V30 30 1 17 29
M  V30 31 1 18 30
M  V30 END BOND
M  V30 END CTAB
M  END
