
     RDKit          3D

  0  0  0  0  0  0  0  0  0  0999 V3000
M  V30 BEGIN CTAB
M  V30 COUNTS 42 44 0 0 0
M  V30 BEGIN ATOM
M  V30 1 N -6.30672 1.15497 -0.369322 0
M  V30 2 C -4.90559 0.862282 -0.320845 0
M  V30 3 C -4.39013 -0.0740812 0.549204 0
M  V30 4 C -3.02595 -0.358983 0.596339 0
M  V30 5 C -2.15884 0.301958 -0.239698 0
M  V30 6 C -2.69584 1.22975 -1.09701 0
M  V30 7 C -4.04061 1.51829 -1.15135 0
M  V30 8 C -0.694692 0.0561112 -0.253081 0
M  V30 9 C -0.0408146 0.134179 1.10378 0
M  V30 10 C 0.791119 -1.05552 0.669932 0
M  V30 11 C -0.278778 -1.37268 -0.228679 0
M  V30 12 C -0.0875864 -2.07277 -1.48781 0
M  V30 13 O -1.09323 -2.15422 -2.42346 0
M  V30 14 O 1.00939 -2.6215 -1.74529 0
M  V30 15 C 2.13546 -0.625835 0.321548 0
M  V30 16 C 2.55862 -0.0649162 -0.83147 0
M  V30 17 C 3.86576 0.306509 -1.01957 0
M  V30 18 C 4.8409 0.139771 -0.0607268 0
M  V30 19 N 6.18915 0.534562 -0.284395 0
M  V30 20 C 4.42771 -0.431871 1.12385 0
M  V30 21 C 3.1161 -0.802084 1.30688 0
M  V30 22 C 0.683168 1.35618 1.41082 0
M  V30 23 O 1.30498 1.49398 2.63415 0
M  V30 24 O 0.762883 2.29731 0.595699 0
M  V30 25 H -6.75923 1.41945 -1.27938 0
M  V30 26 H -6.86696 1.10493 0.490476 0
M  V30 27 H -5.09664 -0.586678 1.20367 0
M  V30 28 H -2.67091 -1.09974 1.29554 0
M  V30 29 H -2.06366 1.79194 -1.7891 0
M  V30 30 H -4.43678 2.26898 -1.85192 0
M  V30 31 H -0.202535 0.726439 -0.97093 0
M  V30 32 H -0.742741 -0.18547 1.93411 0
M  V30 33 H 0.845008 -1.82484 1.52389 0
M  V30 34 H -1.09791 -1.94141 0.325121 0
M  V30 35 H -1.24847 -2.97908 -3.01178 0
M  V30 36 H 1.89783 0.101086 -1.63024 0
M  V30 37 H 4.20073 0.763655 -1.96423 0
M  V30 38 H 6.45972 0.838303 -1.24203 0
M  V30 39 H 6.85488 0.511761 0.490328 0
M  V30 40 H 5.18672 -0.56803 1.88573 0
M  V30 41 H 2.85509 -1.25312 2.28058 0
M  V30 42 H 0.919401 1.16043 3.51069 0
M  V30 END ATOM
M  V30 BEGIN BOND
M  V30 1 1 1 2
M  V30 2 2 2 3
M  V30 3 1 3 4
M  V30 4 2 4 5
M  V30 5 1 5 6
M  V30 6 2 6 7
M  V30 7 1 5 8
M  V30 8 1 8 9
M  V30 9 1 9 10
M  V30 10 1 10 11
M  V30 11 1 11 12
M  V30 12 1 12 13
M  V30 13 2 12 14
M  V30 14 1 10 15
M  V30 15 2 15 16
M  V30 16 1 16 17
M  V30 17 2 17 18
M  V30 18 1 18 19
M  V30 19 1 18 20
M  V30 20 2 20 21
M  V30 21 1 9 22
M  V30 22 1 22 23
M  V30 23 2 22 24
M  V30 24 1 7 2
M  V30 25 1 11 8
M  V30 26 1 21 15
M  V30 27 1 1 25
M  V30 28 1 1 26
M  V30 29 1 3 27
M  V30 30 1 4 28
M  V30 31 1 6 29
M  V30 32 1 7 30
M  V30 33 1 8 31
M  V30 34 1 9 32
M  V30 35 1 10 33
M  V30 36 1 11 34
M  V30 37 1 13 35
M  V30 38 1 16 36
M  V30 39 1 17 37
M  V30 40 1 19 38
M  V30 41 1 19 39
M  V30 42 1 20 40
M  V30 43 1 21 41
M  V30 44 1 23 42
M  V30 END BOND
M  V30 END CTAB
M  END
