
     RDKit          3D

  0  0  0  0  0  0  0  0  0  0999 V3000
M  V30 BEGIN CTAB
M  V30 COUNTS 24 24 0 0 0
M  V30 BEGIN ATOM
M  V30 1 N -2.05469 2.64583 1.68432 0
M  V30 2 C -1.71767 2.13601 0.703788 0
M  V30 3 C -1.3011 1.47093 -0.528268 0
M  V30 4 C -0.204181 0.468918 -0.284511 0
M  V30 5 C -0.437485 -0.790527 0.22772 0
M  V30 6 O -1.62316 -1.25483 0.532239 0
M  V30 7 C -2.92361 -1.27122 0.675629 0
M  V30 8 F -3.36262 -1.56226 2.0014 0
M  V30 9 F -3.58192 -2.24533 -0.148982 0
M  V30 10 C 0.72387 -1.58286 0.410519 0
M  V30 11 C 1.96946 -1.14234 0.105895 0
M  V30 12 C 2.15872 0.137836 -0.410489 0
M  V30 13 C 1.05903 0.924209 -0.597021 0
M  V30 14 N 1.28096 2.24486 -1.13257 0
M  V30 15 N 3.12873 -1.96274 0.30033 0
M  V30 16 H -2.16338 0.990267 -0.979728 0
M  V30 17 H -0.958616 2.25654 -1.24662 0
M  V30 18 H -3.4878 -0.331419 0.406642 0
M  V30 19 H 0.550103 -2.58432 0.818563 0
M  V30 20 H 3.16784 0.454278 -0.641576 0
M  V30 21 H 1.68216 2.98972 -0.532651 0
M  V30 22 H 1.04988 2.48801 -2.11889 0
M  V30 23 H 3.55442 -2.43231 -0.506882 0
M  V30 24 H 3.49109 -2.04726 1.26115 0
M  V30 END ATOM
M  V30 BEGIN BOND
M  V30 1 3 1 2
M  V30 2 1 2 3
M  V30 3 1 3 4
M  V30 4 2 4 5
M  V30 5 1 5 6
M  V30 6 1 6 7
M  V30 7 1 7 8
M  V30 8 1 7 9
M  V30 9 1 5 10
M  V30 10 2 10 11
M  V30 11 1 11 12
M  V30 12 2 12 13
M  V30 13 1 13 14
M  V30 14 1 11 15
M  V30 15 1 13 4
M  V30 16 1 3 16
M  V30 17 1 3 17
M  V30 18 1 7 18
M  V30 19 1 10 19
M  V30 20 1 12 20
M  V30 21 1 14 21
M  V30 22 1 14 22
M  V30 23 1 15 23
M  V30 24 1 15 24
M  V30 END BOND
M  V30 END CTAB
M  END
