
     RDKit          3D

  0  0  0  0  0  0  0  0  0  0999 V3000
M  V30 BEGIN CTAB
M  V30 COUNTS 50 52 0 0 0
M  V30 BEGIN ATOM
M  V30 1 C 7.5852 0.140276 -0.672279 0
M  V30 2 N 6.17227 0.0409944 -0.487956 0
M  V30 3 C 5.41717 1.00993 -1.22773 0
M  V30 4 C 3.96803 0.821734 -0.967749 0
M  V30 5 C 3.31309 1.4751 0.0577756 0
M  V30 6 C 1.97822 1.30704 0.304075 0
M  V30 7 C 1.21601 0.458545 -0.480519 0
M  V30 8 C 1.8624 -0.197247 -1.50614 0
M  V30 9 C 3.20854 -0.0261939 -1.75258 0
M  V30 10 C -0.235725 0.252281 -0.241461 0
M  V30 11 N -0.468281 -0.842333 0.674459 0
M  V30 12 C -1.77229 -1.24718 1.07062 0
M  V30 13 C -2.8974 -0.60155 0.589907 0
M  V30 14 C -4.16977 -0.979615 0.962452 0
M  V30 15 N -4.29166 -2.01733 1.8261 0
M  V30 16 C -3.20789 -2.65667 2.30356 0
M  V30 17 N -1.9828 -2.2639 1.92109 0
M  V30 18 N -3.42368 -3.73387 3.20427 0
M  V30 19 C -5.36618 -0.278018 0.438862 0
M  V30 20 C -5.30245 1.24287 0.570766 0
M  V30 21 C -5.71504 1.31433 -0.887927 0
M  V30 22 C -5.39463 -0.166358 -1.07243 0
M  V30 23 N -4.91186 2.17512 -1.71156 0
M  V30 24 C 5.75033 -0.136631 0.865919 0
M  V30 25 H 8.15674 -0.0393906 0.285274 0
M  V30 26 H 7.93266 1.11824 -1.04425 0
M  V30 27 H 7.92534 -0.688057 -1.34888 0
M  V30 28 H 5.57413 0.801034 -2.30742 0
M  V30 29 H 5.67923 2.05177 -1.025 0
M  V30 30 H 3.89512 2.1547 0.695655 0
M  V30 31 H 1.44345 1.81234 1.10678 0
M  V30 32 H 1.27869 -0.8639 -2.12772 0
M  V30 33 H 3.7103 -0.543283 -2.5586 0
M  V30 34 H -0.731802 1.17179 0.120471 0
M  V30 35 H -0.727534 -0.0186476 -1.19996 0
M  V30 36 H 0.365966 -1.34401 1.04988 0
M  V30 37 H -2.76567 0.218237 -0.0940452 0
M  V30 38 H -3.36175 -4.72241 2.85564 0
M  V30 39 H -3.63912 -3.49209 4.19505 0
M  V30 40 H -6.31789 -0.688873 0.823284 0
M  V30 41 H -4.29929 1.61986 0.802549 0
M  V30 42 H -6.05325 1.66529 1.27799 0
M  V30 43 H -6.79666 1.54778 -0.984432 0
M  V30 44 H -6.24106 -0.678938 -1.56395 0
M  V30 45 H -4.39335 -0.357864 -1.51359 0
M  V30 46 H -4.89099 3.13303 -1.33947 0
M  V30 47 H -3.9701 1.77201 -1.90687 0
M  V30 48 H 4.74201 -0.645402 0.850814 0
M  V30 49 H 5.7232 0.802187 1.46164 0
M  V30 50 H 6.43003 -0.876729 1.33638 0
M  V30 END ATOM
M  V30 BEGIN BOND
M  V30 1 1 1 2
M  V30 2 1 2 3
M  V30 3 1 3 4
M  V30 4 2 4 5
M  V30 5 1 5 6
M  V30 6 2 6 7
M  V30 7 1 7 8
M  V30 8 2 8 9
M  V30 9 1 7 10
M  V30 10 1 10 11
M  V30 11 1 11 12
M  V30 12 2 12 13
M  V30 13 1 13 14
M  V30 14 2 14 15
M  V30 15 1 15 16
M  V30 16 2 16 17
M  V30 17 1 16 18
M  V30 18 1 14 19
M  V30 19 1 19 20
M  V30 20 1 20 21
M  V30 21 1 21 22
M  V30 22 1 21 23
M  V30 23 1 2 24
M  V30 24 1 9 4
M  V30 25 1 17 12
M  V30 26 1 22 19
M  V30 27 1 1 25
M  V30 28 1 1 26
M  V30 29 1 1 27
M  V30 30 1 3 28
M  V30 31 1 3 29
M  V30 32 1 5 30
M  V30 33 1 6 31
M  V30 34 1 8 32
M  V30 35 1 9 33
M  V30 36 1 10 34
M  V30 37 1 10 35
M  V30 38 1 11 36
M  V30 39 1 13 37
M  V30 40 1 18 38
M  V30 41 1 18 39
M  V30 42 1 19 40
M  V30 43 1 20 41
M  V30 44 1 20 42
M  V30 45 1 21 43
M  V30 46 1 22 44
M  V30 47 1 22 45
M  V30 48 1 23 46
M  V30 49 1 23 47
M  V30 50 1 24 48
M  V30 51 1 24 49
M  V30 52 1 24 50
M  V30 END BOND
M  V30 END CTAB
M  END
