
     RDKit          3D

  0  0  0  0  0  0  0  0  0  0999 V3000
M  V30 BEGIN CTAB
M  V30 COUNTS 13 12 0 0 0
M  V30 BEGIN ATOM
M  V30 1 C 1.21492 -0.782528 0.313051 0
M  V30 2 N 0.386787 0.33477 -0.127961 0
M  V30 3 N 0.993898 1.53925 -0.483529 0
M  V30 4 C -1.01979 0.223566 -0.202999 0
M  V30 5 N -1.68817 -0.979837 0.14738 0
M  V30 6 S -1.90035 1.49961 -0.70153 0
M  V30 7 H 2.12678 -0.339372 0.767386 0
M  V30 8 H 0.70916 -1.38212 1.10752 0
M  V30 9 H 1.54445 -1.41384 -0.534121 0
M  V30 10 H 0.456045 2.0371 -1.23215 0
M  V30 11 H 1.06288 2.16812 0.360152 0
M  V30 12 H -1.4028 -1.52903 0.988941 0
M  V30 13 H -2.48381 -1.37569 -0.402136 0
M  V30 END ATOM
M  V30 BEGIN BOND
M  V30 1 1 1 2
M  V30 2 1 2 3
M  V30 3 1 2 4
M  V30 4 1 4 5
M  V30 5 2 4 6
M  V30 6 1 1 7
M  V30 7 1 1 8
M  V30 8 1 1 9
M  V30 9 1 3 10
M  V30 10 1 3 11
M  V30 11 1 5 12
M  V30 12 1 5 13
M  V30 END BOND
M  V30 END CTAB
M  END
