
     RDKit          3D

  0  0  0  0  0  0  0  0  0  0999 V3000
M  V30 BEGIN CTAB
M  V30 COUNTS 18 17 0 0 0
M  V30 BEGIN ATOM
M  V30 1 C -0.585087 -0.593402 0.252218 0 CFG=1
M  V30 2 C -1.78264 0.282426 0.551629 0
M  V30 3 N -0.746247 -1.2278 -1.02928 0
M  V30 4 C 0.64004 0.25977 0.339906 0 CFG=1
M  V30 5 C 1.91457 -0.502615 0.0595327 0
M  V30 6 N 0.469227 1.37756 -0.569408 0
M  V30 7 H -0.539273 -1.37373 1.01777 0
M  V30 8 H -2.50673 -0.279563 1.17505 0
M  V30 9 H -2.24309 0.679658 -0.371283 0
M  V30 10 H -1.45421 1.14578 1.20004 0
M  V30 11 H -0.425628 -0.653034 -1.82429 0
M  V30 12 H -1.7514 -1.50115 -1.1095 0
M  V30 13 H 0.708958 0.642156 1.37941 0
M  V30 14 H 2.7538 0.215913 0.29365 0
M  V30 15 H 1.97954 -1.30504 0.83058 0
M  V30 16 H 1.97493 -0.907017 -0.954693 0
M  V30 17 H 1.30971 1.4873 -1.20086 0
M  V30 18 H 0.283532 2.25279 -0.0404611 0
M  V30 END ATOM
M  V30 BEGIN BOND
M  V30 1 1 1 2
M  V30 2 1 1 3
M  V30 3 1 1 4
M  V30 4 1 4 5
M  V30 5 1 4 6
M  V30 6 1 1 7 CFG=1
M  V30 7 1 2 8
M  V30 8 1 2 9
M  V30 9 1 2 10
M  V30 10 1 3 11
M  V30 11 1 3 12
M  V30 12 1 4 13 CFG=1
M  V30 13 1 5 14
M  V30 14 1 5 15
M  V30 15 1 5 16
M  V30 16 1 6 17
M  V30 17 1 6 18
M  V30 END BOND
M  V30 END CTAB
M  END
