
     RDKit          3D

  0  0  0  0  0  0  0  0  0  0999 V3000
M  V30 BEGIN CTAB
M  V30 COUNTS 28 30 0 0 0
M  V30 BEGIN ATOM
M  V30 1 N 5.77694 0.73108 -0.171007 0
M  V30 2 C 4.37469 0.487598 -0.150823 0
M  V30 3 C 3.86592 -0.811739 -0.25228 0
M  V30 4 C 2.5073 -1.01826 -0.230092 0
M  V30 5 C 1.60897 0.0179355 -0.110071 0
M  V30 6 C 2.14573 1.2982 -0.0111626 0
M  V30 7 C 3.49604 1.53132 -0.0307188 0
M  V30 8 C 0.166188 -0.19264 -0.0857195 0
M  V30 9 O -0.493051 -1.32631 -0.167752 0
M  V30 10 C -1.78062 -1.07946 -0.106981 0
M  V30 11 C -1.93833 0.278939 0.0197284 0
M  V30 12 N -0.721276 0.80983 0.0309093 0
M  V30 13 C -3.19504 0.836527 0.107472 0
M  V30 14 C -4.34433 0.0777585 0.0737928 0
M  V30 15 C -4.17941 -1.30312 -0.0551481 0
M  V30 16 C -2.92403 -1.86813 -0.143521 0
M  V30 17 Cl -2.74473 -3.59978 -0.30438 0
M  V30 18 N -5.63683 0.658609 0.16469 0
M  V30 19 H 6.36229 0.67924 -1.01602 0
M  V30 20 H 6.21947 0.977673 0.747938 0
M  V30 21 H 4.58974 -1.6144 -0.346083 0
M  V30 22 H 2.13505 -2.02411 -0.309286 0
M  V30 23 H 1.44688 2.12975 0.0844868 0
M  V30 24 H 3.88247 2.5259 0.0470244 0
M  V30 25 H -3.29784 1.90722 0.206703 0
M  V30 26 H -5.07686 -1.89952 -0.081797 0
M  V30 27 H -6.46495 0.308429 -0.359404 0
M  V30 28 H -5.78038 1.48145 0.786133 0
M  V30 END ATOM
M  V30 BEGIN BOND
M  V30 1 1 1 2
M  V30 2 2 2 3
M  V30 3 1 3 4
M  V30 4 2 4 5
M  V30 5 1 5 6
M  V30 6 2 6 7
M  V30 7 1 5 8
M  V30 8 1 8 9
M  V30 9 1 9 10
M  V30 10 2 10 11
M  V30 11 1 11 12
M  V30 12 1 11 13
M  V30 13 2 13 14
M  V30 14 1 14 15
M  V30 15 2 15 16
M  V30 16 1 16 17
M  V30 17 1 14 18
M  V30 18 1 7 2
M  V30 19 2 12 8
M  V30 20 1 16 10
M  V30 21 1 1 19
M  V30 22 1 1 20
M  V30 23 1 3 21
M  V30 24 1 4 22
M  V30 25 1 6 23
M  V30 26 1 7 24
M  V30 27 1 13 25
M  V30 28 1 15 26
M  V30 29 1 18 27
M  V30 30 1 18 28
M  V30 END BOND
M  V30 END CTAB
M  END
