
     RDKit          3D

  0  0  0  0  0  0  0  0  0  0999 V3000
M  V30 BEGIN CTAB
M  V30 COUNTS 21 20 0 0 0
M  V30 BEGIN ATOM
M  V30 1 C -1.21585 0.743175 0.108828 0 CFG=2
M  V30 2 N -2.04374 1.20315 -1.01313 0
M  V30 3 C 0.0640502 0.167105 -0.388016 0
M  V30 4 C 0.947277 -0.305656 0.730073 0
M  V30 5 C 2.26571 -0.852546 0.167268 0
M  V30 6 N 2.89204 0.228378 -0.546873 0
M  V30 7 C -2.05164 -0.208653 0.850489 0
M  V30 8 O -3.27563 -0.694738 0.331917 0
M  V30 9 O -1.74902 -0.655812 1.98121 0
M  V30 10 H -0.989019 1.62312 0.733938 0
M  V30 11 H -2.17966 0.440463 -1.70983 0
M  V30 12 H -1.68243 2.08403 -1.40422 0
M  V30 13 H -0.165251 -0.760463 -0.996405 0
M  V30 14 H 0.602074 0.859026 -1.08162 0
M  V30 15 H 1.17297 0.474622 1.47839 0
M  V30 16 H 0.428681 -1.13419 1.28534 0
M  V30 17 H 2.92029 -1.12233 1.01244 0
M  V30 18 H 2.08008 -1.74481 -0.435602 0
M  V30 19 H 2.61934 0.198409 -1.53824 0
M  V30 20 H 2.62655 1.13459 -0.123521 0
M  V30 21 H -3.26682 -1.67686 0.0792631 0
M  V30 END ATOM
M  V30 BEGIN BOND
M  V30 1 1 1 2
M  V30 2 1 1 3
M  V30 3 1 3 4
M  V30 4 1 4 5
M  V30 5 1 5 6
M  V30 6 1 1 7
M  V30 7 1 7 8
M  V30 8 2 7 9
M  V30 9 1 1 10 CFG=1
M  V30 10 1 2 11
M  V30 11 1 2 12
M  V30 12 1 3 13
M  V30 13 1 3 14
M  V30 14 1 4 15
M  V30 15 1 4 16
M  V30 16 1 5 17
M  V30 17 1 5 18
M  V30 18 1 6 19
M  V30 19 1 6 20
M  V30 20 1 8 21
M  V30 END BOND
M  V30 END CTAB
M  END
