
     RDKit          3D

  0  0  0  0  0  0  0  0  0  0999 V3000
M  V30 BEGIN CTAB
M  V30 COUNTS 47 50 0 0 0
M  V30 BEGIN ATOM
M  V30 1 N 6.80092 -0.804733 -0.968597 0
M  V30 2 C 5.67429 -0.622333 -0.726118 0
M  V30 3 C 4.27353 -0.366994 -0.408225 0
M  V30 4 C 3.47389 0.445998 -1.20487 0
M  V30 5 N 4.12159 1.04692 -2.32816 0
M  V30 6 N 2.19986 0.632848 -0.882713 0
M  V30 7 C 1.60328 0.0583902 0.215546 0
M  V30 8 C 2.38137 -0.741509 1.00297 0
M  V30 9 C 3.71828 -0.963419 0.703234 0
M  V30 10 N 4.46713 -1.79085 1.57934 0
M  V30 11 C 1.53639 -1.29072 2.10909 0
M  V30 12 C 0.269079 -0.538157 1.97267 0
M  V30 13 O -0.696459 -0.565594 2.81594 0
M  V30 14 N 0.307265 0.184657 0.796759 0
M  V30 15 C -0.68573 0.997101 0.205204 0
M  V30 16 C -0.360535 2.3828 0.123657 0
M  V30 17 C -1.17703 3.3035 -0.443801 0
M  V30 18 C -2.37363 2.85118 -0.962171 0
M  V30 19 C -2.69214 1.51687 -0.88907 0
M  V30 20 C -1.86164 0.534816 -0.299164 0
M  V30 21 N -2.31078 -0.801057 -0.255758 0
M  V30 22 C -3.81022 -0.932801 -0.201518 0
M  V30 23 C -4.10086 -2.03074 0.786085 0
M  V30 24 O -3.71271 -3.24193 0.252384 0
M  V30 25 C -2.75422 -3.09361 -0.749527 0
M  V30 26 C -1.66025 -2.05277 -0.302787 0
M  V30 27 C -0.832593 4.74695 -0.462118 0
M  V30 28 F -1.71612 5.38503 -1.30513 0
M  V30 29 F -1.13233 5.30483 0.805924 0
M  V30 30 F 0.46221 5.00691 -0.757473 0
M  V30 31 H 4.09519 2.04955 -2.54853 0
M  V30 32 H 4.65944 0.436424 -2.97041 0
M  V30 33 H 5.23435 -1.39744 2.15543 0
M  V30 34 H 4.24304 -2.7968 1.62816 0
M  V30 35 H 1.99421 -1.25156 3.09874 0
M  V30 36 H 1.27179 -2.3626 1.80493 0
M  V30 37 H 0.598462 2.70424 0.551444 0
M  V30 38 H -3.04436 3.5197 -1.42963 0
M  V30 39 H -3.62811 1.14432 -1.31298 0
M  V30 40 H -4.14473 -1.1466 -1.19876 0
M  V30 41 H -4.26039 0.0116263 0.144975 0
M  V30 42 H -5.20843 -2.0128 0.949876 0
M  V30 43 H -3.6253 -1.79598 1.72811 0
M  V30 44 H -2.18425 -4.05577 -0.776783 0
M  V30 45 H -3.12663 -2.87874 -1.73453 0
M  V30 46 H -1.41975 -2.51874 0.709968 0
M  V30 47 H -0.866379 -2.2104 -1.02161 0
M  V30 END ATOM
M  V30 BEGIN BOND
M  V30 1 3 1 2
M  V30 2 1 2 3
M  V30 3 2 3 4
M  V30 4 1 4 5
M  V30 5 1 4 6
M  V30 6 2 6 7
M  V30 7 1 7 8
M  V30 8 2 8 9
M  V30 9 1 9 10
M  V30 10 1 8 11
M  V30 11 1 11 12
M  V30 12 2 12 13
M  V30 13 1 12 14
M  V30 14 1 14 15
M  V30 15 2 15 16
M  V30 16 1 16 17
M  V30 17 2 17 18
M  V30 18 1 18 19
M  V30 19 2 19 20
M  V30 20 1 20 21
M  V30 21 1 21 22
M  V30 22 1 22 23
M  V30 23 1 23 24
M  V30 24 1 24 25
M  V30 25 1 25 26
M  V30 26 1 17 27
M  V30 27 1 27 28
M  V30 28 1 27 29
M  V30 29 1 27 30
M  V30 30 1 9 3
M  V30 31 1 20 15
M  V30 32 1 26 21
M  V30 33 1 14 7
M  V30 34 1 5 31
M  V30 35 1 5 32
M  V30 36 1 10 33
M  V30 37 1 10 34
M  V30 38 1 11 35
M  V30 39 1 11 36
M  V30 40 1 16 37
M  V30 41 1 18 38
M  V30 42 1 19 39
M  V30 43 1 22 40
M  V30 44 1 22 41
M  V30 45 1 23 42
M  V30 46 1 23 43
M  V30 47 1 25 44
M  V30 48 1 25 45
M  V30 49 1 26 46
M  V30 50 1 26 47
M  V30 END BOND
M  V30 END CTAB
M  END
