
     RDKit          3D

  0  0  0  0  0  0  0  0  0  0999 V3000
M  V30 BEGIN CTAB
M  V30 COUNTS 26 27 0 0 0
M  V30 BEGIN ATOM
M  V30 1 N 4.89626 0.597526 0.0849683 0
M  V30 2 C 3.49907 0.37108 0.0871046 0
M  V30 3 C 2.92875 -0.795219 -0.426212 0
M  V30 4 C 1.53543 -0.929867 -0.397256 0
M  V30 5 C 0.72198 0.05346 0.12222 0
M  V30 6 C 1.319 1.20421 0.626825 0
M  V30 7 Cl 0.31687 2.48844 1.28106 0
M  V30 8 C 2.68992 1.35975 0.609276 0
M  V30 9 C -0.723105 -0.10313 0.158989 0
M  V30 10 C -1.40746 0.0715286 1.33709 0
M  V30 11 C -2.78981 -0.0894447 1.39079 0
M  V30 12 C -3.48263 -0.428287 0.249935 0
M  V30 13 N -4.88503 -0.597314 0.243445 0
M  V30 14 C -2.81291 -0.610985 -0.951433 0
M  V30 15 C -1.44884 -0.448032 -0.987321 0
M  V30 16 Cl -0.590737 -0.652145 -2.49985 0
M  V30 17 H 5.29695 1.23591 -0.615403 0
M  V30 18 H 5.50539 0.132895 0.767283 0
M  V30 19 H 3.53751 -1.57254 -0.832376 0
M  V30 20 H 1.06215 -1.82627 -0.781047 0
M  V30 21 H 3.13983 2.27918 1.01358 0
M  V30 22 H -0.870375 0.33114 2.23415 0
M  V30 23 H -3.28764 0.0529405 2.34016 0
M  V30 24 H -5.34799 -1.51349 0.172752 0
M  V30 25 H -5.47789 0.263901 0.315017 0
M  V30 26 H -3.32471 -0.875233 -1.86235 0
M  V30 END ATOM
M  V30 BEGIN BOND
M  V30 1 1 1 2
M  V30 2 2 2 3
M  V30 3 1 3 4
M  V30 4 2 4 5
M  V30 5 1 5 6
M  V30 6 1 6 7
M  V30 7 2 6 8
M  V30 8 1 5 9
M  V30 9 2 9 10
M  V30 10 1 10 11
M  V30 11 2 11 12
M  V30 12 1 12 13
M  V30 13 1 12 14
M  V30 14 2 14 15
M  V30 15 1 15 16
M  V30 16 1 8 2
M  V30 17 1 15 9
M  V30 18 1 1 17
M  V30 19 1 1 18
M  V30 20 1 3 19
M  V30 21 1 4 20
M  V30 22 1 8 21
M  V30 23 1 10 22
M  V30 24 1 11 23
M  V30 25 1 13 24
M  V30 26 1 13 25
M  V30 27 1 14 26
M  V30 END BOND
M  V30 END CTAB
M  END
