
     RDKit          3D

  0  0  0  0  0  0  0  0  0  0999 V3000
M  V30 BEGIN CTAB
M  V30 COUNTS 31 33 0 0 0
M  V30 BEGIN ATOM
M  V30 1 N 6.03124 -0.560582 -0.0772787 0
M  V30 2 C 4.62883 -0.30313 -0.0836282 0
M  V30 3 C 4.13107 0.975024 -0.208663 0
M  V30 4 C 2.74927 1.19344 -0.211276 0
M  V30 5 C 1.85616 0.163208 -0.0917767 0
M  V30 6 C 2.36043 -1.11233 0.0328946 0
M  V30 7 C 3.7368 -1.3468 0.0372453 0
M  V30 8 C 0.393716 0.376587 -0.0927119 0
M  V30 9 C -0.172051 1.62498 -0.213693 0
M  V30 10 C -1.51865 1.81859 -0.214258 0
M  V30 11 O -2.06578 2.94945 -0.323348 0
M  V30 12 C -2.33983 0.71631 -0.0883414 0
M  V30 13 C -3.71543 0.834421 -0.0806788 0
M  V30 14 C -4.50165 -0.286604 0.0466664 0
M  V30 15 N -5.92152 -0.167141 0.0548287 0
M  V30 16 C -3.92149 -1.53119 0.167045 0
M  V30 17 C -2.55037 -1.63484 0.15795 0
M  V30 18 C -1.72176 -0.51075 0.029676 0
M  V30 19 O -0.419342 -0.642447 0.0244725 0
M  V30 20 H 6.70295 -0.030831 0.51315 0
M  V30 21 H 6.37853 -1.32566 -0.706501 0
M  V30 22 H 4.83528 1.78309 -0.302445 0
M  V30 23 H 2.43769 2.21843 -0.31281 0
M  V30 24 H 1.67934 -1.91962 0.126254 0
M  V30 25 H 4.13735 -2.36253 0.136547 0
M  V30 26 H 0.460652 2.49798 -0.313164 0
M  V30 27 H -4.11555 1.83567 -0.178487 0
M  V30 28 H -6.54585 -0.835437 -0.437668 0
M  V30 29 H -6.40029 0.617822 0.570094 0
M  V30 30 H -4.53551 -2.44051 0.269996 0
M  V30 31 H -2.07422 -2.5946 0.250372 0
M  V30 END ATOM
M  V30 BEGIN BOND
M  V30 1 1 1 2
M  V30 2 2 2 3
M  V30 3 1 3 4
M  V30 4 2 4 5
M  V30 5 1 5 6
M  V30 6 2 6 7
M  V30 7 1 5 8
M  V30 8 2 8 9
M  V30 9 1 9 10
M  V30 10 2 10 11
M  V30 11 1 10 12
M  V30 12 2 12 13
M  V30 13 1 13 14
M  V30 14 1 14 15
M  V30 15 2 14 16
M  V30 16 1 16 17
M  V30 17 2 17 18
M  V30 18 1 18 19
M  V30 19 1 7 2
M  V30 20 1 19 8
M  V30 21 1 18 12
M  V30 22 1 1 20
M  V30 23 1 1 21
M  V30 24 1 3 22
M  V30 25 1 4 23
M  V30 26 1 6 24
M  V30 27 1 7 25
M  V30 28 1 9 26
M  V30 29 1 13 27
M  V30 30 1 15 28
M  V30 31 1 15 29
M  V30 32 1 16 30
M  V30 33 1 17 31
M  V30 END BOND
M  V30 END CTAB
M  END
