
     RDKit          3D

  0  0  0  0  0  0  0  0  0  0999 V3000
M  V30 BEGIN CTAB
M  V30 COUNTS 24 24 0 0 0
M  V30 BEGIN ATOM
M  V30 1 N -2.78131 -0.0517575 -1.20567 0
M  V30 2 C -2.52748 0.116766 0.172861 0
M  V30 3 C -1.08693 -0.112368 0.531368 0 CFG=1
M  V30 4 C -0.624436 -1.51483 0.182272 0
M  V30 5 C 0.883156 -1.29366 0.248909 0
M  V30 6 N 1.0037 -0.0712838 -0.413232 0
M  V30 7 C -0.144638 0.722776 -0.311499 0
M  V30 8 S 2.4764 0.597213 -0.717601 0
M  V30 9 O 2.3303 1.8927 -1.46412 0
M  V30 10 O 3.30104 -0.323569 -1.58705 0
M  V30 11 N 3.33479 0.935334 0.751049 0
M  V30 12 H -3.61168 -0.600537 -1.36561 0
M  V30 13 H -2.59388 0.747927 -1.74799 0
M  V30 14 H -2.77187 1.1601 0.466207 0
M  V30 15 H -3.1644 -0.533521 0.805991 0
M  V30 16 H -0.852948 0.077219 1.57732 0
M  V30 17 H -0.973015 -2.27562 0.869958 0
M  V30 18 H -0.857245 -1.69539 -0.88417 0
M  V30 19 H 1.44366 -2.13443 -0.181874 0
M  V30 20 H 1.11153 -1.14653 1.34186 0
M  V30 21 H 0.00483131 1.72614 0.111377 0
M  V30 22 H -0.589965 0.892305 -1.33564 0
M  V30 23 H 2.64019 1.21751 1.50474 0
M  V30 24 H 4.05019 1.66752 0.632904 0
M  V30 END ATOM
M  V30 BEGIN BOND
M  V30 1 1 1 2
M  V30 2 1 2 3
M  V30 3 1 3 4
M  V30 4 1 4 5
M  V30 5 1 5 6
M  V30 6 1 6 7
M  V30 7 1 6 8
M  V30 8 2 8 9
M  V30 9 2 8 10
M  V30 10 1 8 11
M  V30 11 1 7 3
M  V30 12 1 1 12
M  V30 13 1 1 13
M  V30 14 1 2 14
M  V30 15 1 2 15
M  V30 16 1 3 16 CFG=1
M  V30 17 1 4 17
M  V30 18 1 4 18
M  V30 19 1 5 19
M  V30 20 1 5 20
M  V30 21 1 7 21
M  V30 22 1 7 22
M  V30 23 1 11 23
M  V30 24 1 11 24
M  V30 END BOND
M  V30 END CTAB
M  END
