
     RDKit          3D

  0  0  0  0  0  0  0  0  0  0999 V3000
M  V30 BEGIN CTAB
M  V30 COUNTS 30 31 0 0 0
M  V30 BEGIN ATOM
M  V30 1 C -0.960757 3.20884 0.030338 0
M  V30 2 N -1.0048 1.75237 0.0642535 0
M  V30 3 C -2.1545 0.935007 0.179711 0
M  V30 4 O -3.33726 1.39218 0.271678 0
M  V30 5 C -1.71902 -0.46739 0.171339 0
M  V30 6 C -2.15698 -1.21809 1.41092 0
M  V30 7 C -2.34197 -1.11298 -1.07305 0
M  V30 8 C -0.251525 -0.412746 0.044424 0
M  V30 9 C 0.130269 0.901945 -0.015469 0
M  V30 10 C 1.50036 1.16158 -0.138258 0
M  V30 11 C 2.44135 0.160965 -0.19822 0
M  V30 12 N 3.83677 0.426081 -0.323266 0
M  V30 13 C 2.03304 -1.15368 -0.136055 0
M  V30 14 N 2.96609 -2.22902 -0.193785 0
M  V30 15 C 0.699577 -1.44812 -0.0156902 0
M  V30 16 H -0.20321 3.52189 0.771521 0
M  V30 17 H -1.97081 3.58275 0.329262 0
M  V30 18 H -0.748438 3.55527 -0.997051 0
M  V30 19 H -2.93512 -0.688714 1.98528 0
M  V30 20 H -1.29929 -1.41948 2.08907 0
M  V30 21 H -2.5163 -2.21307 1.07509 0
M  V30 22 H -2.51029 -0.352128 -1.85483 0
M  V30 23 H -1.642 -1.90235 -1.37987 0
M  V30 24 H -3.32368 -1.50088 -0.743526 0
M  V30 25 H 1.84536 2.18108 -0.188905 0
M  V30 26 H 4.28663 0.218973 -1.24959 0
M  V30 27 H 4.40085 0.810734 0.466537 0
M  V30 28 H 2.77575 -3.04527 -0.798462 0
M  V30 29 H 3.83512 -2.17782 0.379102 0
M  V30 30 H 0.324778 -2.46792 0.0375021 0
M  V30 END ATOM
M  V30 BEGIN BOND
M  V30 1 1 1 2
M  V30 2 1 2 3
M  V30 3 2 3 4
M  V30 4 1 3 5
M  V30 5 1 5 6
M  V30 6 1 5 7
M  V30 7 1 5 8
M  V30 8 2 8 9
M  V30 9 1 9 10
M  V30 10 2 10 11
M  V30 11 1 11 12
M  V30 12 1 11 13
M  V30 13 1 13 14
M  V30 14 2 13 15
M  V30 15 1 9 2
M  V30 16 1 15 8
M  V30 17 1 1 16
M  V30 18 1 1 17
M  V30 19 1 1 18
M  V30 20 1 6 19
M  V30 21 1 6 20
M  V30 22 1 6 21
M  V30 23 1 7 22
M  V30 24 1 7 23
M  V30 25 1 7 24
M  V30 26 1 10 25
M  V30 27 1 12 26
M  V30 28 1 12 27
M  V30 29 1 14 28
M  V30 30 1 14 29
M  V30 31 1 15 30
M  V30 END BOND
M  V30 END CTAB
M  END
