
     RDKit          3D

  0  0  0  0  0  0  0  0  0  0999 V3000
M  V30 BEGIN CTAB
M  V30 COUNTS 24 24 0 0 0
M  V30 BEGIN ATOM
M  V30 1 C -3.55679 1.88427 0.293092 0
M  V30 2 C -2.39694 0.963372 0.0656489 0
M  V30 3 C -2.43388 -0.430393 0.0196575 0
M  V30 4 C -1.16507 -0.901733 -0.209104 0
M  V30 5 N -0.373762 0.190449 -0.299927 0
M  V30 6 N -1.10628 1.28361 -0.137143 0
M  V30 7 C 1.05271 0.205275 -0.536762 0
M  V30 8 C 1.78823 0.157016 0.808415 0
M  V30 9 C 3.23463 0.171372 0.585683 0
M  V30 10 S 4.14357 1.35535 1.1948 0
M  V30 11 N 3.85287 -0.850182 -0.164543 0
M  V30 12 N -0.790808 -2.26838 -0.322509 0
M  V30 13 H -3.91334 1.70923 1.31513 0
M  V30 14 H -3.16344 2.91777 0.187 0
M  V30 15 H -4.33098 1.75473 -0.482262 0
M  V30 16 H -3.35925 -0.99692 0.152446 0
M  V30 17 H 1.34457 1.171 -1.02472 0
M  V30 18 H 1.37595 -0.598778 -1.19748 0
M  V30 19 H 1.49123 1.05646 1.36867 0
M  V30 20 H 1.42878 -0.779685 1.30323 0
M  V30 21 H 4.43274 -1.6082 0.220494 0
M  V30 22 H 3.70737 -0.834115 -1.20831 0
M  V30 23 H -0.0191772 -2.5157 -0.982772 0
M  V30 24 H -1.24294 -3.03582 0.215759 0
M  V30 END ATOM
M  V30 BEGIN BOND
M  V30 1 1 1 2
M  V30 2 1 2 3
M  V30 3 2 3 4
M  V30 4 1 4 5
M  V30 5 1 5 6
M  V30 6 1 5 7
M  V30 7 1 7 8
M  V30 8 1 8 9
M  V30 9 2 9 10
M  V30 10 1 9 11
M  V30 11 1 4 12
M  V30 12 2 6 2
M  V30 13 1 1 13
M  V30 14 1 1 14
M  V30 15 1 1 15
M  V30 16 1 3 16
M  V30 17 1 7 17
M  V30 18 1 7 18
M  V30 19 1 8 19
M  V30 20 1 8 20
M  V30 21 1 11 21
M  V30 22 1 11 22
M  V30 23 1 12 23
M  V30 24 1 12 24
M  V30 END BOND
M  V30 END CTAB
M  END
