
     RDKit          3D

  0  0  0  0  0  0  0  0  0  0999 V3000
M  V30 BEGIN CTAB
M  V30 COUNTS 58 62 0 0 0
M  V30 BEGIN ATOM
M  V30 1 C 8.61952 -1.95427 1.10388 0
M  V30 2 O 7.51427 -1.11226 0.941645 0
M  V30 3 C 6.52671 -1.31577 0.0150651 0
M  V30 4 C 5.46923 -0.382783 -0.0360157 0
M  V30 5 O 5.56396 0.681554 0.882669 0
M  V30 6 C 6.47003 1.75221 0.417721 0
M  V30 7 C 4.45807 -0.49801 -0.89902 0
M  V30 8 N 3.33225 0.305928 -1.06505 0
M  V30 9 S 2.63167 1.63917 -0.321463 0
M  V30 10 O 3.28226 2.20629 0.863437 0
M  V30 11 O 2.36176 2.69236 -1.37886 0
M  V30 12 C 0.985946 1.14183 0.256018 0
M  V30 13 C 0.861152 0.636175 1.52544 0
M  V30 14 C -0.411118 0.259956 1.94428 0
M  V30 15 C -1.48754 0.390297 1.12299 0
M  V30 16 N -2.77615 -0.0100437 1.60658 0
M  V30 17 C -3.94216 0.0924599 0.814165 0
M  V30 18 C -4.48322 -0.917138 0.0617788 0
M  V30 19 C -3.95245 -2.18082 0.0335484 0
M  V30 20 N -2.79673 -2.45996 0.8262 0
M  V30 21 N -4.50482 -3.17156 -0.712864 0
M  V30 22 C -5.59335 -2.96347 -1.4561 0
M  V30 23 N -6.16332 -4.02483 -2.23966 0
M  V30 24 N -6.13413 -1.73462 -1.44604 0
M  V30 25 C -5.6207 -0.722609 -0.72173 0
M  V30 26 N -6.18592 0.499188 -0.721522 0
M  V30 27 C -5.69465 1.52629 0.00134351 0
M  V30 28 C -6.34546 2.74984 -0.0611557 0
M  V30 29 C -5.86566 3.83238 0.672266 0
M  V30 30 Cl -6.69466 5.38148 0.589368 0
M  V30 31 C -4.74657 3.63871 1.44134 0
M  V30 32 C -4.10655 2.42216 1.4982 0
M  V30 33 C -4.56719 1.33281 0.776735 0
M  V30 34 C -1.34146 0.897966 -0.142246 0
M  V30 35 C -0.0766902 1.28794 -0.600464 0
M  V30 36 N 4.54309 -1.60905 -1.74731 0
M  V30 37 C 5.51706 -2.48475 -1.71815 0
M  V30 38 N 6.5271 -2.3428 -0.824431 0
M  V30 39 H 9.46733 -1.39147 1.57206 0
M  V30 40 H 8.951 -2.43038 0.166342 0
M  V30 41 H 8.31368 -2.77718 1.78461 0
M  V30 42 H 6.16664 2.62697 1.02227 0
M  V30 43 H 7.49814 1.42253 0.567215 0
M  V30 44 H 6.18783 1.93145 -0.638778 0
M  V30 45 H 2.69002 0.000628212 -1.94352 0
M  V30 46 H 1.73004 0.540262 2.16404 0
M  V30 47 H -0.488735 -0.135156 2.94507 0
M  V30 48 H -2.88616 -0.379758 2.57448 0
M  V30 49 H -2.77058 -2.5857 1.83857 0
M  V30 50 H -1.87907 -2.55742 0.303704 0
M  V30 51 H -6.2449 -5.00661 -1.91156 0
M  V30 52 H -6.5139 -3.79917 -3.18768 0
M  V30 53 H -7.22208 2.93005 -0.653717 0
M  V30 54 H -4.35412 4.45338 2.01672 0
M  V30 55 H -3.22699 2.31563 2.1185 0
M  V30 56 H -2.17067 1.01207 -0.810834 0
M  V30 57 H 0.0473148 1.69069 -1.6006 0
M  V30 58 H 5.53161 -3.34306 -2.41271 0
M  V30 END ATOM
M  V30 BEGIN BOND
M  V30 1 1 1 2
M  V30 2 1 2 3
M  V30 3 2 3 4
M  V30 4 1 4 5
M  V30 5 1 5 6
M  V30 6 1 4 7
M  V30 7 1 7 8
M  V30 8 1 8 9
M  V30 9 2 9 10
M  V30 10 2 9 11
M  V30 11 1 9 12
M  V30 12 2 12 13
M  V30 13 1 13 14
M  V30 14 2 14 15
M  V30 15 1 15 16
M  V30 16 1 16 17
M  V30 17 1 17 18
M  V30 18 2 18 19
M  V30 19 1 19 20
M  V30 20 1 19 21
M  V30 21 2 21 22
M  V30 22 1 22 23
M  V30 23 1 22 24
M  V30 24 2 24 25
M  V30 25 1 25 26
M  V30 26 2 26 27
M  V30 27 1 27 28
M  V30 28 2 28 29
M  V30 29 1 29 30
M  V30 30 1 29 31
M  V30 31 2 31 32
M  V30 32 1 32 33
M  V30 33 1 15 34
M  V30 34 2 34 35
M  V30 35 2 7 36
M  V30 36 1 36 37
M  V30 37 2 37 38
M  V30 38 1 38 3
M  V30 39 1 35 12
M  V30 40 2 33 17
M  V30 41 1 25 18
M  V30 42 1 33 27
M  V30 43 1 1 39
M  V30 44 1 1 40
M  V30 45 1 1 41
M  V30 46 1 6 42
M  V30 47 1 6 43
M  V30 48 1 6 44
M  V30 49 1 8 45
M  V30 50 1 13 46
M  V30 51 1 14 47
M  V30 52 1 16 48
M  V30 53 1 20 49
M  V30 54 1 20 50
M  V30 55 1 23 51
M  V30 56 1 23 52
M  V30 57 1 28 53
M  V30 58 1 31 54
M  V30 59 1 32 55
M  V30 60 1 34 56
M  V30 61 1 35 57
M  V30 62 1 37 58
M  V30 END BOND
M  V30 END CTAB
M  END
