
     RDKit          3D

  0  0  0  0  0  0  0  0  0  0999 V3000
M  V30 BEGIN CTAB
M  V30 COUNTS 27 28 0 0 0
M  V30 BEGIN ATOM
M  V30 1 N -5.12862 0.234348 -0.941126 0
M  V30 2 C -3.87836 -0.018788 -0.329238 0
M  V30 3 C -2.69935 0.338976 -0.919944 0
M  V30 4 F -2.75734 0.955513 -2.13246 0
M  V30 5 C -1.4717 0.102689 -0.343072 0
M  V30 6 F -0.290754 0.445671 -0.903087 0
M  V30 7 C -1.44784 -0.523335 0.88475 0
M  V30 8 S 0.0503888 -0.896252 1.75283 0
M  V30 9 C 1.51467 -0.401809 0.914893 0
M  V30 10 C 2.15424 -1.24914 0.0361621 0
M  V30 11 F 1.67014 -2.48965 -0.206818 0
M  V30 12 C 3.30985 -0.860816 -0.62543 0
M  V30 13 F 3.94538 -1.69965 -1.49713 0
M  V30 14 C 3.86921 0.394426 -0.430708 0
M  V30 15 N 5.05054 0.807976 -1.09894 0
M  V30 16 C 3.22196 1.24525 0.455342 0
M  V30 17 F 3.75291 2.47875 0.660441 0
M  V30 18 C 2.06567 0.845151 1.11178 0
M  V30 19 F 1.49207 1.73 1.96013 0
M  V30 20 C -2.63745 -0.904197 1.51969 0
M  V30 21 F -2.61002 -1.51878 2.72545 0
M  V30 22 C -3.85871 -0.643627 0.895933 0
M  V30 23 F -5.03778 -1.00678 1.49734 0
M  V30 24 H -5.83917 0.86084 -0.483413 0
M  V30 25 H -5.41523 -0.178619 -1.86745 0
M  V30 26 H 5.6781 1.47566 -0.606993 0
M  V30 27 H 5.2972 0.476204 -2.02894 0
M  V30 END ATOM
M  V30 BEGIN BOND
M  V30 1 1 1 2
M  V30 2 2 2 3
M  V30 3 1 3 4
M  V30 4 1 3 5
M  V30 5 1 5 6
M  V30 6 2 5 7
M  V30 7 1 7 8
M  V30 8 1 8 9
M  V30 9 2 9 10
M  V30 10 1 10 11
M  V30 11 1 10 12
M  V30 12 1 12 13
M  V30 13 2 12 14
M  V30 14 1 14 15
M  V30 15 1 14 16
M  V30 16 1 16 17
M  V30 17 2 16 18
M  V30 18 1 18 19
M  V30 19 1 7 20
M  V30 20 1 20 21
M  V30 21 2 20 22
M  V30 22 1 22 23
M  V30 23 1 22 2
M  V30 24 1 18 9
M  V30 25 1 1 24
M  V30 26 1 1 25
M  V30 27 1 15 26
M  V30 28 1 15 27
M  V30 END BOND
M  V30 END CTAB
M  END
