
     RDKit          3D

  0  0  0  0  0  0  0  0  0  0999 V3000
M  V30 BEGIN CTAB
M  V30 COUNTS 52 53 0 0 0
M  V30 BEGIN ATOM
M  V30 1 C -1.86959 0.682629 -3.076 0
M  V30 2 C -0.674904 0.84045 -2.116 0
M  V30 3 C -0.634543 -0.299128 -1.13297 0
M  V30 4 C -1.86681 -0.363929 -0.264485 0
M  V30 5 C -2.08159 -1.4994 0.488853 0
M  V30 6 C -3.18693 -1.64704 1.30015 0
M  V30 7 C -4.14319 -0.644438 1.39256 0
M  V30 8 C -3.92063 0.479095 0.641696 0
M  V30 9 C -2.80271 0.639682 -0.183045 0
M  V30 10 C -5.36746 -0.788762 2.25217 0
M  V30 11 C -6.58938 -0.945179 1.32748 0
M  V30 12 C -5.54446 0.347187 3.20651 0
M  V30 13 N 0.576082 -0.543351 -0.570567 0
M  V30 14 C 1.78889 -0.787982 -0.00710314 0
M  V30 15 O 2.30794 -0.320719 1.0139 0
M  V30 16 C 2.66814 -1.82235 -0.759097 0
M  V30 17 S 4.11134 -2.21189 0.187291 0
M  V30 18 C 5.26835 -0.899424 0.352547 0
M  V30 19 N 6.23372 -0.771022 -0.60062 0
M  V30 20 C 7.19203 0.186107 -0.529921 0
M  V30 21 N 8.178 0.281808 -1.5343 0
M  V30 22 N 7.17398 1.02319 0.518954 0
M  V30 23 C 6.24361 0.919847 1.46218 0
M  V30 24 N 5.2973 -0.036177 1.37757 0
M  V30 25 N 6.24182 1.80074 2.57158 0
M  V30 26 C 0.5667 0.772361 -2.97265 0
M  V30 27 H -1.5248 0.44583 -4.10995 0
M  V30 28 H -2.49175 -0.210044 -2.78993 0
M  V30 29 H -2.44181 1.61369 -3.13845 0
M  V30 30 H -0.78325 1.8359 -1.63272 0
M  V30 31 H -0.805793 -1.22613 -1.88707 0
M  V30 32 H -1.32729 -2.29287 0.415229 0
M  V30 33 H -3.33039 -2.54478 1.87516 0
M  V30 34 H -4.65201 1.28964 0.689451 0
M  V30 35 H -2.6587 1.54168 -0.748057 0
M  V30 36 H -5.35823 -1.73698 2.83082 0
M  V30 37 H -6.1809 -1.39064 0.381193 0
M  V30 38 H -7.34493 -1.57536 1.78507 0
M  V30 39 H -6.95197 0.0746392 1.02553 0
M  V30 40 H -5.08159 1.28544 2.87001 0
M  V30 41 H -6.63268 0.446588 3.41292 0
M  V30 42 H -5.09417 0.0672302 4.20251 0
M  V30 43 H 0.298111 0.375775 0.429281 0
M  V30 44 H 2.06524 -2.73203 -0.920974 0
M  V30 45 H 2.9202 -1.28659 -1.70734 0
M  V30 46 H 7.98808 0.826256 -2.39035 0
M  V30 47 H 9.0857 -0.199023 -1.40266 0
M  V30 48 H 6.43749 2.81489 2.42792 0
M  V30 49 H 6.05733 1.46737 3.51583 0
M  V30 50 H 0.6126 -0.245609 -3.41742 0
M  V30 51 H 1.44318 0.833603 -2.29644 0
M  V30 52 H 0.586643 1.53135 -3.76624 0
M  V30 END ATOM
M  V30 BEGIN BOND
M  V30 1 1 1 2
M  V30 2 1 2 3
M  V30 3 1 3 4
M  V30 4 2 4 5
M  V30 5 1 5 6
M  V30 6 2 6 7
M  V30 7 1 7 8
M  V30 8 2 8 9
M  V30 9 1 7 10
M  V30 10 1 10 11
M  V30 11 1 10 12
M  V30 12 1 3 13
M  V30 13 1 13 14
M  V30 14 2 14 15
M  V30 15 1 14 16
M  V30 16 1 16 17
M  V30 17 1 17 18
M  V30 18 2 18 19
M  V30 19 1 19 20
M  V30 20 1 20 21
M  V30 21 2 20 22
M  V30 22 1 22 23
M  V30 23 2 23 24
M  V30 24 1 23 25
M  V30 25 1 2 26
M  V30 26 1 9 4
M  V30 27 1 24 18
M  V30 28 1 1 27
M  V30 29 1 1 28
M  V30 30 1 1 29
M  V30 31 1 2 30
M  V30 32 1 3 31
M  V30 33 1 5 32
M  V30 34 1 6 33
M  V30 35 1 8 34
M  V30 36 1 9 35
M  V30 37 1 10 36
M  V30 38 1 11 37
M  V30 39 1 11 38
M  V30 40 1 11 39
M  V30 41 1 12 40
M  V30 42 1 12 41
M  V30 43 1 12 42
M  V30 44 1 13 43
M  V30 45 1 16 44
M  V30 46 1 16 45
M  V30 47 1 21 46
M  V30 48 1 21 47
M  V30 49 1 25 48
M  V30 50 1 25 49
M  V30 51 1 26 50
M  V30 52 1 26 51
M  V30 53 1 26 52
M  V30 END BOND
M  V30 END CTAB
M  END
