
     RDKit          3D

  0  0  0  0  0  0  0  0  0  0999 V3000
M  V30 BEGIN CTAB
M  V30 COUNTS 67 70 0 0 0
M  V30 BEGIN ATOM
M  V30 1 C 6.82802 3.50021 -0.58128 0
M  V30 2 N 6.06256 2.31793 -0.282073 0
M  V30 3 C 6.67293 1.02681 -0.439283 0
M  V30 4 C 4.73361 2.43442 0.158962 0
M  V30 5 O 4.23249 3.58386 0.286644 0
M  V30 6 C 3.92371 1.23998 0.471945 0
M  V30 7 C 2.63024 1.26957 0.905463 0
M  V30 8 C 2.24006 -0.0686657 1.08286 0
M  V30 9 C 3.30354 -0.840665 0.75124 0
M  V30 10 O 4.29601 0.00227117 0.389255 0
M  V30 11 C 3.52436 -2.2661 0.739589 0
M  V30 12 C 4.87296 -2.69706 0.896564 0
M  V30 13 C 5.24261 -3.99317 0.910296 0
M  V30 14 C 4.27907 -4.93715 0.767766 0
M  V30 15 C 2.94343 -4.54475 0.609534 0
M  V30 16 C 2.54303 -3.20407 0.589242 0
M  V30 17 C 1.12792 -2.87737 0.320669 0
M  V30 18 O 0.947198 -2.33924 -0.966024 0
M  V30 19 C 0.077354 -1.48164 -1.51057 0
M  V30 20 C -0.950305 -0.813187 -0.844067 0
M  V30 21 C -1.82113 0.0545221 -1.44351 0
M  V30 22 N -1.66294 0.273274 -2.7863 0
M  V30 23 C -0.678257 -0.355949 -3.46513 0
M  V30 24 N -0.483699 -0.15419 -4.85669 0
M  V30 25 N 0.158249 -1.19915 -2.8526 0
M  V30 26 C -2.88892 0.747436 -0.732264 0
M  V30 27 C -3.74474 1.61143 -1.42926 0
M  V30 28 C -4.75739 2.29114 -0.811633 0
M  V30 29 C -4.99156 2.15606 0.561579 0
M  V30 30 C -6.05585 2.88401 1.2486 0
M  V30 31 C -7.39439 2.23492 1.28895 0 CFG=2
M  V30 32 N -8.26738 3.17117 2.03041 0
M  V30 33 C -7.45734 0.952405 1.99446 0
M  V30 34 O -6.82086 -0.153892 1.41237 0
M  V30 35 O -8.06253 0.827341 3.09229 0
M  V30 36 C -4.15353 1.3089 1.24824 0
M  V30 37 C -3.11676 0.614156 0.610215 0
M  V30 38 C 0.25176 -4.16421 0.353346 0
M  V30 39 F 0.559025 -5.06571 -0.59187 0
M  V30 40 F -1.08963 -3.80422 0.151382 0
M  V30 41 F 0.292487 -4.63898 1.64376 0
M  V30 42 H 6.28389 4.01808 -1.42348 0
M  V30 43 H 6.86981 4.20334 0.285741 0
M  V30 44 H 7.83426 3.29702 -0.953582 0
M  V30 45 H 7.71245 1.13403 -0.861497 0
M  V30 46 H 6.10705 0.445202 -1.20123 0
M  V30 47 H 6.7092 0.424834 0.491072 0
M  V30 48 H 2.03423 2.15358 1.07508 0
M  V30 49 H 1.26893 -0.315285 1.43481 0
M  V30 50 H 5.63657 -1.9249 1.01543 0
M  V30 51 H 6.3049 -4.22019 1.0363 0
M  V30 52 H 4.56956 -5.98343 0.779943 0
M  V30 53 H 2.27391 -5.38399 0.533158 0
M  V30 54 H 0.649632 -2.26645 1.07013 0
M  V30 55 H -1.06844 -0.971503 0.219674 0
M  V30 56 H -0.869108 -0.852279 -5.51432 0
M  V30 57 H 0.0300577 0.668263 -5.21598 0
M  V30 58 H -3.57822 1.72686 -2.4883 0
M  V30 59 H -5.43249 2.96553 -1.33263 0
M  V30 60 H -6.21767 3.89855 0.772563 0
M  V30 61 H -5.77974 3.14523 2.31231 0
M  V30 62 H -7.7804 2.15553 0.234962 0
M  V30 63 H -7.92692 3.15006 3.01723 0
M  V30 64 H -9.22385 2.75692 2.01913 0
M  V30 65 H -6.95783 -0.263883 0.410765 0
M  V30 66 H -4.30278 1.174 2.32953 0
M  V30 67 H -2.49244 -0.0375663 1.20944 0
M  V30 END ATOM
M  V30 BEGIN BOND
M  V30 1 1 1 2
M  V30 2 1 2 3
M  V30 3 1 2 4
M  V30 4 2 4 5
M  V30 5 1 4 6
M  V30 6 2 6 7
M  V30 7 1 7 8
M  V30 8 2 8 9
M  V30 9 1 9 10
M  V30 10 1 9 11
M  V30 11 2 11 12
M  V30 12 1 12 13
M  V30 13 2 13 14
M  V30 14 1 14 15
M  V30 15 2 15 16
M  V30 16 1 16 17
M  V30 17 1 17 18
M  V30 18 1 18 19
M  V30 19 2 19 20
M  V30 20 1 20 21
M  V30 21 2 21 22
M  V30 22 1 22 23
M  V30 23 1 23 24
M  V30 24 2 23 25
M  V30 25 1 21 26
M  V30 26 2 26 27
M  V30 27 1 27 28
M  V30 28 2 28 29
M  V30 29 1 29 30
M  V30 30 1 30 31
M  V30 31 1 31 32
M  V30 32 1 31 33
M  V30 33 1 33 34
M  V30 34 2 33 35
M  V30 35 1 29 36
M  V30 36 2 36 37
M  V30 37 1 17 38
M  V30 38 1 38 39
M  V30 39 1 38 40
M  V30 40 1 38 41
M  V30 41 1 10 6
M  V30 42 1 16 11
M  V30 43 1 25 19
M  V30 44 1 37 26
M  V30 45 1 1 42
M  V30 46 1 1 43
M  V30 47 1 1 44
M  V30 48 1 3 45
M  V30 49 1 3 46
M  V30 50 1 3 47
M  V30 51 1 7 48
M  V30 52 1 8 49
M  V30 53 1 12 50
M  V30 54 1 13 51
M  V30 55 1 14 52
M  V30 56 1 15 53
M  V30 57 1 17 54
M  V30 58 1 20 55
M  V30 59 1 24 56
M  V30 60 1 24 57
M  V30 61 1 27 58
M  V30 62 1 28 59
M  V30 63 1 30 60
M  V30 64 1 30 61
M  V30 65 1 31 62 CFG=3
M  V30 66 1 32 63
M  V30 67 1 32 64
M  V30 68 1 34 65
M  V30 69 1 36 66
M  V30 70 1 37 67
M  V30 END BOND
M  V30 END CTAB
M  END
