
     RDKit          3D

  0  0  0  0  0  0  0  0  0  0999 V3000
M  V30 BEGIN CTAB
M  V30 COUNTS 36 37 0 0 0
M  V30 BEGIN ATOM
M  V30 1 N -6.44037 1.15067 0.0663877 0
M  V30 2 C -5.10805 1.18805 -0.437238 0
M  V30 3 N -4.75068 2.11163 -1.27095 0
M  V30 4 C -4.17134 0.159265 0.0155126 0
M  V30 5 C -4.59659 -0.81164 0.909772 0
M  V30 6 C -3.74542 -1.80864 1.36871 0
M  V30 7 C -2.44278 -1.84087 0.928729 0
M  V30 8 C -1.97747 -0.898813 0.0422318 0
M  V30 9 C -0.56695 -0.949001 -0.422548 0
M  V30 10 O 0.231985 -0.183504 0.454785 0
M  V30 11 C 1.58842 -0.0179261 0.31513 0
M  V30 12 C 2.18072 0.997481 -0.405631 0
M  V30 13 Br 1.03009 2.26492 -1.27212 0
M  V30 14 C 3.55654 1.11857 -0.514492 0
M  V30 15 C 4.40142 0.203978 0.110513 0
M  V30 16 C 3.78755 -0.803192 0.825888 0
M  V30 17 C 2.42705 -0.922023 0.932899 0
M  V30 18 Br 1.65892 -2.36184 1.95365 0
M  V30 19 C 5.8446 0.309511 0.0113365 0
M  V30 20 N 6.46375 1.34438 -0.723646 0
M  V30 21 N 6.5781 -0.558928 0.606102 0
M  V30 22 C -2.86112 0.0778149 -0.389533 0
M  V30 23 H -7.1868 0.535428 -0.31307 0
M  V30 24 H -6.68068 1.77483 0.859581 0
M  V30 25 H -3.82179 2.20917 -1.67674 0
M  V30 26 H -5.62132 -0.786588 1.25613 0
M  V30 27 H -4.1248 -2.54248 2.0653 0
M  V30 28 H -1.7954 -2.61866 1.29269 0
M  V30 29 H -0.545665 -0.537247 -1.44959 0
M  V30 30 H -0.239068 -2.00426 -0.485735 0
M  V30 31 H 3.98576 1.92679 -1.08743 0
M  V30 32 H 4.39346 -1.55113 1.3385 0
M  V30 33 H 6.06438 1.74339 -1.61635 0
M  V30 34 H 7.3744 1.7912 -0.426696 0
M  V30 35 H 7.60338 -0.520692 0.561341 0
M  V30 36 H -2.49424 0.810351 -1.08067 0
M  V30 END ATOM
M  V30 BEGIN BOND
M  V30 1 1 1 2
M  V30 2 2 2 3 CFG=2
M  V30 3 1 2 4
M  V30 4 2 4 5
M  V30 5 1 5 6
M  V30 6 2 6 7
M  V30 7 1 7 8
M  V30 8 1 8 9
M  V30 9 1 9 10
M  V30 10 1 10 11
M  V30 11 2 11 12
M  V30 12 1 12 13
M  V30 13 1 12 14
M  V30 14 2 14 15
M  V30 15 1 15 16
M  V30 16 2 16 17
M  V30 17 1 17 18
M  V30 18 1 15 19
M  V30 19 1 19 20
M  V30 20 2 19 21 CFG=2
M  V30 21 2 8 22
M  V30 22 1 22 4
M  V30 23 1 17 11
M  V30 24 1 1 23
M  V30 25 1 1 24
M  V30 26 1 3 25
M  V30 27 1 5 26
M  V30 28 1 6 27
M  V30 29 1 7 28
M  V30 30 1 9 29
M  V30 31 1 9 30
M  V30 32 1 14 31
M  V30 33 1 16 32
M  V30 34 1 20 33
M  V30 35 1 20 34
M  V30 36 1 21 35
M  V30 37 1 22 36
M  V30 END BOND
M  V30 END CTAB
M  END
