
     RDKit          3D

  0  0  0  0  0  0  0  0  0  0999 V3000
M  V30 BEGIN CTAB
M  V30 COUNTS 33 32 0 0 0
M  V30 BEGIN ATOM
M  V30 1 C 4.73748 0.0990765 0.702322 0
M  V30 2 C 4.34405 -0.12132 -0.718422 0
M  V30 3 O 3.02801 0.288059 -1.01869 0
M  V30 4 C 1.90061 -0.228257 -0.404177 0
M  V30 5 O 2.09937 -1.10731 0.462889 0
M  V30 6 C 0.548694 0.196729 -0.717102 0
M  V30 7 C -0.552114 -0.452389 0.0543883 0
M  V30 8 C -1.82337 0.199292 -0.510734 0
M  V30 9 C -3.08413 -0.271543 0.093114 0
M  V30 10 C -4.21083 0.506388 -0.611365 0
M  V30 11 N -1.67522 1.6246 -0.324112 0
M  V30 12 N -0.595157 -1.87291 -0.0694689 0
M  V30 13 C -0.552067 -0.0596986 1.52865 0
M  V30 14 H 5.18641 -0.827159 1.16192 0
M  V30 15 H 5.50396 0.895917 0.84208 0
M  V30 16 H 3.89124 0.37206 1.36163 0
M  V30 17 H 4.55485 -1.16068 -0.99352 0
M  V30 18 H 5.01961 0.511547 -1.35972 0
M  V30 19 H 0.34434 -0.0251266 -1.80241 0
M  V30 20 H 0.405461 1.31219 -0.632521 0
M  V30 21 H -1.80895 -0.00596527 -1.59012 0
M  V30 22 H -3.18369 0.0248339 1.16745 0
M  V30 23 H -3.35317 -1.31662 -0.0255751 0
M  V30 24 H -5.14485 0.377528 -0.0155443 0
M  V30 25 H -4.29073 0.0746255 -1.61573 0
M  V30 26 H -3.88708 1.55796 -0.661101 0
M  V30 27 H -2.23199 2.00959 0.453888 0
M  V30 28 H -1.76143 2.16672 -1.21232 0
M  V30 29 H -1.56178 -2.21419 0.118568 0
M  V30 30 H -0.0216573 -2.31552 0.696256 0
M  V30 31 H -0.781316 1.02329 1.64614 0
M  V30 32 H -1.4259 -0.603173 1.98084 0
M  V30 33 H 0.381324 -0.333983 2.01249 0
M  V30 END ATOM
M  V30 BEGIN BOND
M  V30 1 1 1 2
M  V30 2 1 2 3
M  V30 3 1 3 4
M  V30 4 2 4 5
M  V30 5 1 4 6
M  V30 6 1 6 7
M  V30 7 1 7 8
M  V30 8 1 8 9
M  V30 9 1 9 10
M  V30 10 1 8 11
M  V30 11 1 7 12
M  V30 12 1 7 13
M  V30 13 1 1 14
M  V30 14 1 1 15
M  V30 15 1 1 16
M  V30 16 1 2 17
M  V30 17 1 2 18
M  V30 18 1 6 19
M  V30 19 1 6 20
M  V30 20 1 8 21
M  V30 21 1 9 22
M  V30 22 1 9 23
M  V30 23 1 10 24
M  V30 24 1 10 25
M  V30 25 1 10 26
M  V30 26 1 11 27
M  V30 27 1 11 28
M  V30 28 1 12 29
M  V30 29 1 12 30
M  V30 30 1 13 31
M  V30 31 1 13 32
M  V30 32 1 13 33
M  V30 END BOND
M  V30 END CTAB
M  END
