
     RDKit          3D

  0  0  0  0  0  0  0  0  0  0999 V3000
M  V30 BEGIN CTAB
M  V30 COUNTS 40 43 0 0 0
M  V30 BEGIN ATOM
M  V30 1 N 5.76762 2.68878 0.371724 0
M  V30 2 C 6.20326 1.36407 0.179591 0
M  V30 3 N 7.43664 1.09913 0.0159627 0
M  V30 4 C 5.24103 0.253696 0.162469 0
M  V30 5 C 3.89486 0.515567 0.335619 0
M  V30 6 C 2.94618 -0.510679 0.323095 0
M  V30 7 C 3.35597 -1.8096 0.135188 0
M  V30 8 N 2.27046 -2.58991 0.160403 0
M  V30 9 C 1.17983 -1.81921 0.359391 0
M  V30 10 N 1.61195 -0.56496 0.455203 0
M  V30 11 C -0.177444 -2.2823 0.452998 0
M  V30 12 O -0.431192 -3.47885 0.744104 0
M  V30 13 C -1.29796 -1.38453 0.212862 0
M  V30 14 N -2.61844 -1.71502 0.358923 0
M  V30 15 C -3.38406 -0.672398 0.0492731 0
M  V30 16 C -2.55345 0.359428 -0.305286 0
M  V30 17 N -1.27583 -0.103333 -0.196684 0
M  V30 18 C -3.11043 1.55481 -0.672456 0
M  V30 19 C -4.49143 1.74628 -0.694712 0
M  V30 20 C -5.34998 0.726339 -0.34382 0
M  V30 21 C -4.77317 -0.472656 0.0242798 0
M  V30 22 C -6.80085 0.870743 -0.352259 0
M  V30 23 N -7.59274 -0.242866 0.011111 0
M  V30 24 N -7.41163 1.94518 -0.672414 0
M  V30 25 C 4.72029 -2.04712 -0.0371027 0
M  V30 26 C 5.64953 -1.04844 -0.0256875 0
M  V30 27 H 5.88484 3.37902 -0.384193 0
M  V30 28 H 5.33398 2.96705 1.26369 0
M  V30 29 H 8.12738 1.87735 0.0253261 0
M  V30 30 H 3.52953 1.53713 0.488182 0
M  V30 31 H 2.29484 -3.6262 0.0417677 0
M  V30 32 H -0.451928 0.512868 -0.421998 0
M  V30 33 H -2.46465 2.37228 -0.952249 0
M  V30 34 H -4.91701 2.70043 -0.987944 0
M  V30 35 H -5.40509 -1.2956 0.305758 0
M  V30 36 H -8.42435 -0.503756 -0.540992 0
M  V30 37 H -7.33568 -0.805159 0.840389 0
M  V30 38 H -6.91476 2.809 -0.95469 0
M  V30 39 H 5.03182 -3.06676 -0.183462 0
M  V30 40 H 6.70205 -1.23982 -0.159812 0
M  V30 END ATOM
M  V30 BEGIN BOND
M  V30 1 1 1 2
M  V30 2 2 2 3 CFG=2
M  V30 3 1 2 4
M  V30 4 2 4 5
M  V30 5 1 5 6
M  V30 6 2 6 7
M  V30 7 1 7 8
M  V30 8 1 8 9
M  V30 9 2 9 10
M  V30 10 1 9 11
M  V30 11 2 11 12
M  V30 12 1 11 13
M  V30 13 2 13 14
M  V30 14 1 14 15
M  V30 15 2 15 16
M  V30 16 1 16 17
M  V30 17 1 16 18
M  V30 18 2 18 19
M  V30 19 1 19 20
M  V30 20 2 20 21
M  V30 21 1 20 22
M  V30 22 1 22 23
M  V30 23 2 22 24 CFG=2
M  V30 24 1 7 25
M  V30 25 2 25 26
M  V30 26 1 26 4
M  V30 27 1 10 6
M  V30 28 1 17 13
M  V30 29 1 21 15
M  V30 30 1 1 27
M  V30 31 1 1 28
M  V30 32 1 3 29
M  V30 33 1 5 30
M  V30 34 1 8 31
M  V30 35 1 17 32
M  V30 36 1 18 33
M  V30 37 1 19 34
M  V30 38 1 21 35
M  V30 39 1 23 36
M  V30 40 1 23 37
M  V30 41 1 24 38
M  V30 42 1 25 39
M  V30 43 1 26 40
M  V30 END BOND
M  V30 END CTAB
M  END
