
     RDKit          3D

  0  0  0  0  0  0  0  0  0  0999 V3000
M  V30 BEGIN CTAB
M  V30 COUNTS 32 33 0 0 0
M  V30 BEGIN ATOM
M  V30 1 N 2.61462 1.74499 -0.0486982 0
M  V30 2 C 2.36855 0.341096 0.228172 0
M  V30 3 C 1.03654 -0.114146 -0.388652 0
M  V30 4 N 1.12483 0.0929687 -1.80536 0
M  V30 5 C 0.898244 -1.58264 -0.0815685 0
M  V30 6 C -0.541535 -1.98788 0.108061 0
M  V30 7 C -1.34123 -0.884802 0.744987 0
M  V30 8 C -0.351657 -0.0736311 1.59899 0
M  V30 9 C -0.0309365 0.668875 0.291288 0
M  V30 10 C -1.42269 0.341763 -0.121244 0
M  V30 11 C -1.71257 0.154089 -1.55657 0
M  V30 12 C -2.40081 1.33182 0.504876 0
M  V30 13 H 3.64905 1.88344 0.00121843 0
M  V30 14 H 2.21723 2.0583 -0.956524 0
M  V30 15 H 3.18649 -0.270768 -0.209952 0
M  V30 16 H 2.34398 0.191669 1.33176 0
M  V30 17 H 0.984512 -0.837592 -2.30555 0
M  V30 18 H 2.09975 0.385165 -2.11708 0
M  V30 19 H 1.54305 -1.86847 0.767829 0
M  V30 20 H 1.28694 -2.16963 -0.961136 0
M  V30 21 H -1.00352 -2.40141 -0.804737 0
M  V30 22 H -0.530596 -2.83543 0.846882 0
M  V30 23 H -2.25731 -1.17937 1.27488 0
M  V30 24 H -0.85412 0.64482 2.27547 0
M  V30 25 H 0.472909 -0.653949 2.00936 0
M  V30 26 H 0.12978 1.73844 0.408876 0
M  V30 27 H -1.31637 1.05351 -2.11184 0
M  V30 28 H -1.39521 -0.793436 -1.99906 0
M  V30 29 H -2.82796 0.226797 -1.69774 0
M  V30 30 H -3.12199 1.71424 -0.246016 0
M  V30 31 H -1.85947 2.20239 0.956438 0
M  V30 32 H -2.9885 0.87879 1.31412 0
M  V30 END ATOM
M  V30 BEGIN BOND
M  V30 1 1 1 2
M  V30 2 1 2 3
M  V30 3 1 3 4
M  V30 4 1 3 5
M  V30 5 1 5 6
M  V30 6 1 6 7
M  V30 7 1 7 8
M  V30 8 1 8 9
M  V30 9 1 9 10
M  V30 10 1 10 11
M  V30 11 1 10 12
M  V30 12 1 9 3
M  V30 13 1 10 7
M  V30 14 1 1 13
M  V30 15 1 1 14
M  V30 16 1 2 15
M  V30 17 1 2 16
M  V30 18 1 4 17
M  V30 19 1 4 18
M  V30 20 1 5 19
M  V30 21 1 5 20
M  V30 22 1 6 21
M  V30 23 1 6 22
M  V30 24 1 7 23
M  V30 25 1 8 24
M  V30 26 1 8 25
M  V30 27 1 9 26
M  V30 28 1 11 27
M  V30 29 1 11 28
M  V30 30 1 11 29
M  V30 31 1 12 30
M  V30 32 1 12 31
M  V30 33 1 12 32
M  V30 END BOND
M  V30 END CTAB
M  END
