
     RDKit          3D

  0  0  0  0  0  0  0  0  0  0999 V3000
M  V30 BEGIN CTAB
M  V30 COUNTS 24 24 0 0 0
M  V30 BEGIN ATOM
M  V30 1 C 3.90765 0.523446 0.0955767 0
M  V30 2 C 3.33424 -0.815907 -0.276311 0
M  V30 3 O 1.94762 -0.815778 0.0310446 0
M  V30 4 C 1.04386 0.0662302 -0.526937 0
M  V30 5 O 1.48317 0.905968 -1.34638 0
M  V30 6 C -0.379276 0.0596008 -0.205679 0
M  V30 7 C -1.26978 0.947339 -0.771616 0
M  V30 8 C -2.60883 0.90057 -0.434524 0
M  V30 9 N -3.47253 1.84845 -1.05812 0
M  V30 10 N -3.08681 -0.000285122 0.446102 0
M  V30 11 C -2.24849 -0.900916 1.0347 0
M  V30 12 C -0.913672 -0.849643 0.694669 0
M  V30 13 N -2.72798 -1.86186 1.96732 0
M  V30 14 H 4.82254 0.367209 0.718813 0
M  V30 15 H 4.22421 1.10224 -0.788148 0
M  V30 16 H 3.14842 1.14655 0.640642 0
M  V30 17 H 3.51739 -1.07887 -1.34577 0
M  V30 18 H 3.78379 -1.6067 0.389535 0
M  V30 19 H -0.881322 1.66148 -1.47182 0
M  V30 20 H -4.15253 1.50129 -1.75162 0
M  V30 21 H -3.44426 2.85238 -0.845997 0
M  V30 22 H -0.213359 -1.54467 1.13708 0
M  V30 23 H -3.70686 -2.18158 1.89507 0
M  V30 24 H -2.1072 -2.22653 2.69601 0
M  V30 END ATOM
M  V30 BEGIN BOND
M  V30 1 1 1 2
M  V30 2 1 2 3
M  V30 3 1 3 4
M  V30 4 2 4 5
M  V30 5 1 4 6
M  V30 6 2 6 7
M  V30 7 1 7 8
M  V30 8 1 8 9
M  V30 9 2 8 10
M  V30 10 1 10 11
M  V30 11 2 11 12
M  V30 12 1 11 13
M  V30 13 1 12 6
M  V30 14 1 1 14
M  V30 15 1 1 15
M  V30 16 1 1 16
M  V30 17 1 2 17
M  V30 18 1 2 18
M  V30 19 1 7 19
M  V30 20 1 9 20
M  V30 21 1 9 21
M  V30 22 1 12 22
M  V30 23 1 13 23
M  V30 24 1 13 24
M  V30 END BOND
M  V30 END CTAB
M  END
