
     RDKit          3D

  0  0  0  0  0  0  0  0  0  0999 V3000
M  V30 BEGIN CTAB
M  V30 COUNTS 55 58 0 0 0
M  V30 BEGIN ATOM
M  V30 1 C 4.61485 -1.5285 4.83644 0
M  V30 2 C 3.99321 -0.985224 3.61164 0
M  V30 3 N 4.62879 -0.502237 2.53125 0
M  V30 4 N 3.73047 -0.108399 1.64014 0
M  V30 5 C 2.50025 -0.332546 2.13485 0
M  V30 6 C 2.63754 -0.885518 3.37798 0
M  V30 7 C 1.25606 -0.031918 1.45064 0
M  V30 8 O 1.25176 0.486234 0.286572 0
M  V30 9 N 0.0368959 -0.326486 2.10373 0
M  V30 10 C -1.18276 -0.0531249 1.48097 0
M  V30 11 N -1.20258 0.491993 0.256269 0
M  V30 12 C -2.338 0.776774 -0.392793 0
M  V30 13 C -3.58821 0.52324 0.166445 0
M  V30 14 C -3.58922 -0.0325241 1.41752 0
M  V30 15 C -2.39291 -0.324142 2.08116 0
M  V30 16 C -4.77865 0.881682 -0.5611 0
M  V30 17 C -5.13279 2.23581 -0.707276 0
M  V30 18 C -6.28024 2.60403 -1.37384 0
M  V30 19 C -7.11155 1.64802 -1.91544 0
M  V30 20 C -6.74747 0.334784 -1.762 0
M  V30 21 C -5.59188 -0.0717898 -1.09304 0
M  V30 22 S -5.21101 -1.75109 -0.986272 0
M  V30 23 N -3.65598 -2.10391 -1.67726 0
M  V30 24 O -5.36132 -2.37519 0.33957 0
M  V30 25 O -6.20984 -2.49518 -1.89278 0
M  V30 26 C 4.01224 0.457574 0.370793 0
M  V30 27 C 4.05172 1.82333 0.243748 0
M  V30 28 C 4.32683 2.36887 -0.995913 0
M  V30 29 C 4.55386 1.53926 -2.06946 0
M  V30 30 C 4.51866 0.151039 -1.96293 0
M  V30 31 C 4.24475 -0.377694 -0.728099 0
M  V30 32 C 4.76699 -0.663779 -3.13361 0
M  V30 33 N 5.04457 -0.0559603 -4.3824 0
M  V30 34 N 4.74151 -1.93842 -3.06701 0
M  V30 35 H 4.87414 -2.58413 4.6999 0
M  V30 36 H 3.89945 -1.4869 5.70231 0
M  V30 37 H 5.46025 -0.874986 5.10619 0
M  V30 38 H 1.86137 -1.20059 4.08016 0
M  V30 39 H 0.0058277 -0.753093 3.0619 0
M  V30 40 H -2.32335 1.21609 -1.37952 0
M  V30 41 H -4.53904 -0.223902 1.89758 0
M  V30 42 H -2.44929 -0.768818 3.0797 0
M  V30 43 H -4.4827 2.98766 -0.283538 0
M  V30 44 H -6.57182 3.6504 -1.4975 0
M  V30 45 H -8.00943 1.95805 -2.43547 0
M  V30 46 H -7.41614 -0.417562 -2.1968 0
M  V30 47 H -3.72287 -2.20203 -2.7108 0
M  V30 48 H -3.19785 -2.89957 -1.21211 0
M  V30 49 H 3.87013 2.45714 1.10123 0
M  V30 50 H 4.36188 3.43944 -1.11428 0
M  V30 51 H 4.76929 1.94443 -3.04107 0
M  V30 52 H 4.2012 -1.44378 -0.57056 0
M  V30 53 H 5.94336 0.452622 -4.51023 0
M  V30 54 H 4.37429 -0.105471 -5.1718 0
M  V30 55 H 4.55475 -2.52401 -2.23378 0
M  V30 END ATOM
M  V30 BEGIN BOND
M  V30 1 1 1 2
M  V30 2 2 2 3
M  V30 3 1 3 4
M  V30 4 1 4 5
M  V30 5 2 5 6
M  V30 6 1 5 7
M  V30 7 2 7 8
M  V30 8 1 7 9
M  V30 9 1 9 10
M  V30 10 2 10 11
M  V30 11 1 11 12
M  V30 12 2 12 13
M  V30 13 1 13 14
M  V30 14 2 14 15
M  V30 15 1 13 16
M  V30 16 2 16 17
M  V30 17 1 17 18
M  V30 18 2 18 19
M  V30 19 1 19 20
M  V30 20 2 20 21
M  V30 21 1 21 22
M  V30 22 1 22 23
M  V30 23 2 22 24
M  V30 24 2 22 25
M  V30 25 1 4 26
M  V30 26 2 26 27
M  V30 27 1 27 28
M  V30 28 2 28 29
M  V30 29 1 29 30
M  V30 30 2 30 31
M  V30 31 1 30 32
M  V30 32 1 32 33
M  V30 33 2 32 34 CFG=2
M  V30 34 1 6 2
M  V30 35 1 15 10
M  V30 36 1 21 16
M  V30 37 1 31 26
M  V30 38 1 1 35
M  V30 39 1 1 36
M  V30 40 1 1 37
M  V30 41 1 6 38
M  V30 42 1 9 39
M  V30 43 1 12 40
M  V30 44 1 14 41
M  V30 45 1 15 42
M  V30 46 1 17 43
M  V30 47 1 18 44
M  V30 48 1 19 45
M  V30 49 1 20 46
M  V30 50 1 23 47
M  V30 51 1 23 48
M  V30 52 1 27 49
M  V30 53 1 28 50
M  V30 54 1 29 51
M  V30 55 1 31 52
M  V30 56 1 33 53
M  V30 57 1 33 54
M  V30 58 1 34 55
M  V30 END BOND
M  V30 END CTAB
M  END
