
     RDKit          3D

  0  0  0  0  0  0  0  0  0  0999 V3000
M  V30 BEGIN CTAB
M  V30 COUNTS 43 45 0 0 0
M  V30 BEGIN ATOM
M  V30 1 N -6.14727 -2.10262 -0.296564 0
M  V30 2 C -4.89169 -1.38737 -0.367406 0
M  V30 3 C -4.266 -1.18189 0.995633 0
M  V30 4 C -2.93858 -1.60881 0.403238 0
M  V30 5 C -3.70511 -2.23023 -0.74571 0
M  V30 6 C -2.11204 -0.424101 0.016637 0
M  V30 7 C -0.806735 -0.286841 0.434086 0
M  V30 8 C -0.0420094 0.809324 0.0762468 0
M  V30 9 N -0.66659 1.71288 -0.698325 0
M  V30 10 C -1.93142 1.5886 -1.10802 0
M  V30 11 N -2.64878 0.528027 -0.753179 0
M  V30 12 N -2.4969 2.59898 -1.92339 0
M  V30 13 N 1.30612 0.958332 0.503201 0
M  V30 14 C 2.1324 2.09523 0.145444 0
M  V30 15 C 3.20203 2.0642 1.22062 0
M  V30 16 C 3.44908 0.554558 1.32807 0 CFG=1
M  V30 17 C 2.02424 0.0334143 1.32567 0
M  V30 18 N 4.17047 0.177687 0.135541 0
M  V30 19 C 5.4332 -0.444015 0.224256 0
M  V30 20 O 6.0073 -0.708466 1.30744 0
M  V30 21 C 6.14348 -0.816383 -1.02308 0
M  V30 22 H -6.44784 -2.14691 0.7027 0
M  V30 23 H -6.91791 -1.62346 -0.829428 0
M  V30 24 H -5.03471 -0.463529 -0.966606 0
M  V30 25 H -4.26008 -0.1356 1.36201 0
M  V30 26 H -4.63114 -1.93233 1.7168 0
M  V30 27 H -2.37394 -2.32004 1.03771 0
M  V30 28 H -3.94315 -3.30541 -0.551173 0
M  V30 29 H -3.2779 -2.03001 -1.74335 0
M  V30 30 H -0.342955 -1.03879 1.05725 0
M  V30 31 H -2.57486 2.43729 -2.93796 0
M  V30 32 H -2.83918 3.50354 -1.53874 0
M  V30 33 H 1.58217 3.05451 0.214621 0
M  V30 34 H 2.53972 2.00655 -0.87157 0
M  V30 35 H 4.12115 2.58405 0.907302 0
M  V30 36 H 2.75284 2.46457 2.14609 0
M  V30 37 H 3.9838 0.305682 2.25336 0
M  V30 38 H 1.64828 0.113891 2.36793 0
M  V30 39 H 1.98938 -1.01057 0.951631 0
M  V30 40 H 3.75197 0.368062 -0.790753 0
M  V30 41 H 7.21475 -0.474793 -0.95907 0
M  V30 42 H 5.6524 -0.361708 -1.89389 0
M  V30 43 H 6.19201 -1.92548 -1.05982 0
M  V30 END ATOM
M  V30 BEGIN BOND
M  V30 1 1 1 2
M  V30 2 1 2 3
M  V30 3 1 3 4
M  V30 4 1 4 5
M  V30 5 1 4 6
M  V30 6 2 6 7
M  V30 7 1 7 8
M  V30 8 2 8 9
M  V30 9 1 9 10
M  V30 10 2 10 11
M  V30 11 1 10 12
M  V30 12 1 8 13
M  V30 13 1 13 14
M  V30 14 1 14 15
M  V30 15 1 15 16
M  V30 16 1 16 17
M  V30 17 1 16 18
M  V30 18 1 18 19
M  V30 19 2 19 20
M  V30 20 1 19 21
M  V30 21 1 5 2
M  V30 22 1 11 6
M  V30 23 1 17 13
M  V30 24 1 1 22
M  V30 25 1 1 23
M  V30 26 1 2 24
M  V30 27 1 3 25
M  V30 28 1 3 26
M  V30 29 1 4 27
M  V30 30 1 5 28
M  V30 31 1 5 29
M  V30 32 1 7 30
M  V30 33 1 12 31
M  V30 34 1 12 32
M  V30 35 1 14 33
M  V30 36 1 14 34
M  V30 37 1 15 35
M  V30 38 1 15 36
M  V30 39 1 16 37 CFG=1
M  V30 40 1 17 38
M  V30 41 1 17 39
M  V30 42 1 18 40
M  V30 43 1 21 41
M  V30 44 1 21 42
M  V30 45 1 21 43
M  V30 END BOND
M  V30 END CTAB
M  END
