
     RDKit          3D

  0  0  0  0  0  0  0  0  0  0999 V3000
M  V30 BEGIN CTAB
M  V30 COUNTS 21 21 0 0 0
M  V30 BEGIN ATOM
M  V30 1 N 3.03589 -0.306628 -0.653435 0
M  V30 2 C 2.37262 -0.102301 0.62384 0
M  V30 3 C 0.923274 0.0358632 0.347716 0
M  V30 4 C 0.0866353 -1.06223 0.330873 0
M  V30 5 C -1.25152 -0.905889 0.0724461 0
M  V30 6 N -2.11432 -2.04214 0.0555669 0
M  V30 7 C -1.83841 0.328243 -0.181958 0
M  V30 8 C -0.996336 1.42946 -0.16452 0
M  V30 9 C 0.348117 1.26534 0.0959722 0
M  V30 10 O -1.56774 2.65858 -0.415548 0
M  V30 11 O -3.20201 0.460101 -0.441975 0
M  V30 12 H 2.79706 0.486399 -1.2663 0
M  V30 13 H 4.04472 -0.49827 -0.565762 0
M  V30 14 H 2.72713 0.871003 1.01388 0
M  V30 15 H 2.62189 -0.960012 1.26149 0
M  V30 16 H 0.544878 -2.02617 0.529545 0
M  V30 17 H -2.30606 -2.52224 0.960721 0
M  V30 18 H -2.50776 -2.33159 -0.86539 0
M  V30 19 H 0.995115 2.13637 0.106348 0
M  V30 20 H -0.967383 3.47925 -0.407447 0
M  V30 21 H -3.74579 -0.393144 -0.436064 0
M  V30 END ATOM
M  V30 BEGIN BOND
M  V30 1 1 1 2
M  V30 2 1 2 3
M  V30 3 2 3 4
M  V30 4 1 4 5
M  V30 5 1 5 6
M  V30 6 2 5 7
M  V30 7 1 7 8
M  V30 8 2 8 9
M  V30 9 1 8 10
M  V30 10 1 7 11
M  V30 11 1 9 3
M  V30 12 1 1 12
M  V30 13 1 1 13
M  V30 14 1 2 14
M  V30 15 1 2 15
M  V30 16 1 4 16
M  V30 17 1 6 17
M  V30 18 1 6 18
M  V30 19 1 9 19
M  V30 20 1 10 20
M  V30 21 1 11 21
M  V30 END BOND
M  V30 END CTAB
M  END
