
     RDKit          3D

  0  0  0  0  0  0  0  0  0  0999 V3000
M  V30 BEGIN CTAB
M  V30 COUNTS 61 64 0 0 0
M  V30 BEGIN ATOM
M  V30 1 C 3.66808 2.04004 1.31233 0
M  V30 2 C 2.88314 0.830727 1.84357 0
M  V30 3 C 3.55747 -0.374259 1.35214 0
M  V30 4 C 3.51703 -0.870266 0.0773515 0
M  V30 5 C 2.75791 -0.253291 -0.988844 0
M  V30 6 C 1.31633 -0.44152 -1.05443 0
M  V30 7 C 0.484685 0.657652 -1.01082 0
M  V30 8 C -0.884711 0.587441 -1.06559 0
M  V30 9 O -1.69811 1.73349 -1.01829 0
M  V30 10 C -1.03067 2.97668 -0.911453 0
M  V30 11 C -1.97594 4.109 -0.871302 0
M  V30 12 C -3.34347 3.85393 -0.900698 0
M  V30 13 C -4.17178 4.95547 -0.862654 0
M  V30 14 C -3.68505 6.24546 -0.798836 0
M  V30 15 C -2.31799 6.44736 -0.771881 0
M  V30 16 C -1.45588 5.37394 -0.808209 0
M  V30 17 C -1.46944 -0.684792 -1.17271 0
M  V30 18 O -2.85526 -0.694777 -1.22274 0
M  V30 19 C -3.6673 -1.83567 -1.31552 0
M  V30 20 C -3.55057 -2.77351 -0.187222 0
M  V30 21 C -3.14233 -2.33052 1.04384 0
M  V30 22 C -3.04003 -3.23386 2.08454 0
M  V30 23 C -3.33056 -4.5735 1.94782 0
M  V30 24 C -3.74005 -5.02044 0.714923 0
M  V30 25 C -3.84333 -4.12384 -0.324888 0
M  V30 26 C -0.669857 -1.79792 -1.21883 0
M  V30 27 C 0.693392 -1.6666 -1.15985 0
M  V30 28 C 4.24076 -2.0359 -0.246303 0
M  V30 29 N 4.23645 -2.56869 -1.56359 0
M  V30 30 N 4.94083 -2.60057 0.743868 0
M  V30 31 C 4.99805 -2.13791 2.00113 0
M  V30 32 N 5.74756 -2.76077 3.02235 0
M  V30 33 N 4.31121 -1.04194 2.28041 0
M  V30 34 H 3.00212 2.65423 0.651826 0
M  V30 35 H 4.52195 1.71958 0.681899 0
M  V30 36 H 4.01691 2.69835 2.13506 0
M  V30 37 H 1.84494 0.971176 1.59435 0
M  V30 38 H 2.9349 0.858522 2.96526 0
M  V30 39 H 2.96441 0.859284 -0.938166 0
M  V30 40 H 3.18129 -0.531961 -1.99308 0
M  V30 41 H 0.938283 1.66814 -0.927143 0
M  V30 42 H -0.3355 2.99285 -0.0488927 0
M  V30 43 H -0.406081 3.13452 -1.83808 0
M  V30 44 H -3.74395 2.84002 -0.95155 0
M  V30 45 H -5.23785 4.7609 -0.884547 0
M  V30 46 H -4.37077 7.10022 -0.76988 0
M  V30 47 H -1.92415 7.4741 -0.721512 0
M  V30 48 H -0.386914 5.58764 -0.784174 0
M  V30 49 H -3.37799 -2.41539 -2.23166 0
M  V30 50 H -4.73482 -1.58483 -1.47273 0
M  V30 51 H -2.9057 -1.29122 1.19313 0
M  V30 52 H -2.71054 -2.83813 3.05001 0
M  V30 53 H -3.24334 -5.25418 2.77315 0
M  V30 54 H -3.9662 -6.07582 0.615434 0
M  V30 55 H -4.16266 -4.4553 -1.29702 0
M  V30 56 H -1.15306 -2.77788 -1.31164 0
M  V30 57 H 1.27462 -2.56919 -1.19672 0
M  V30 58 H 3.82867 -3.51046 -1.70299 0
M  V30 59 H 4.62388 -2.02765 -2.32936 0
M  V30 60 H 5.3745 -2.80777 3.98191 0
M  V30 61 H 6.67252 -3.17041 2.80751 0
M  V30 END ATOM
M  V30 BEGIN BOND
M  V30 1 1 1 2
M  V30 2 1 2 3
M  V30 3 2 3 4
M  V30 4 1 4 5
M  V30 5 1 5 6
M  V30 6 2 6 7
M  V30 7 1 7 8
M  V30 8 1 8 9
M  V30 9 1 9 10
M  V30 10 1 10 11
M  V30 11 2 11 12
M  V30 12 1 12 13
M  V30 13 2 13 14
M  V30 14 1 14 15
M  V30 15 2 15 16
M  V30 16 2 8 17
M  V30 17 1 17 18
M  V30 18 1 18 19
M  V30 19 1 19 20
M  V30 20 2 20 21
M  V30 21 1 21 22
M  V30 22 2 22 23
M  V30 23 1 23 24
M  V30 24 2 24 25
M  V30 25 1 17 26
M  V30 26 2 26 27
M  V30 27 1 4 28
M  V30 28 1 28 29
M  V30 29 2 28 30
M  V30 30 1 30 31
M  V30 31 1 31 32
M  V30 32 2 31 33
M  V30 33 1 33 3
M  V30 34 1 27 6
M  V30 35 1 16 11
M  V30 36 1 25 20
M  V30 37 1 1 34
M  V30 38 1 1 35
M  V30 39 1 1 36
M  V30 40 1 2 37
M  V30 41 1 2 38
M  V30 42 1 5 39
M  V30 43 1 5 40
M  V30 44 1 7 41
M  V30 45 1 10 42
M  V30 46 1 10 43
M  V30 47 1 12 44
M  V30 48 1 13 45
M  V30 49 1 14 46
M  V30 50 1 15 47
M  V30 51 1 16 48
M  V30 52 1 19 49
M  V30 53 1 19 50
M  V30 54 1 21 51
M  V30 55 1 22 52
M  V30 56 1 23 53
M  V30 57 1 24 54
M  V30 58 1 25 55
M  V30 59 1 26 56
M  V30 60 1 27 57
M  V30 61 1 29 58
M  V30 62 1 29 59
M  V30 63 1 32 60
M  V30 64 1 32 61
M  V30 END BOND
M  V30 END CTAB
M  END
