
     RDKit          3D

  0  0  0  0  0  0  0  0  0  0999 V3000
M  V30 BEGIN CTAB
M  V30 COUNTS 38 40 0 0 0
M  V30 BEGIN ATOM
M  V30 1 N -4.49281 -0.671912 -3.96022 0
M  V30 2 C -3.68723 -0.546493 -3.14112 0
M  V30 3 C -2.67851 -0.376628 -2.08774 0
M  V30 4 C -1.50483 0.0316517 -2.43473 0
M  V30 5 C -0.321232 0.299203 -1.64321 0
M  V30 6 C -0.281633 1.20778 -0.610456 0
M  V30 7 C 0.862612 1.4153 0.133868 0
M  V30 8 C 2.03323 0.728314 -0.110277 0
M  V30 9 C 2.01118 -0.18699 -1.144 0
M  V30 10 C 0.873928 -0.395542 -1.88592 0
M  V30 11 C 3.23882 0.956017 0.68716 0
M  V30 12 C 4.48959 0.813077 0.132389 0
M  V30 13 C 5.64905 1.01989 0.858291 0
M  V30 14 C 5.57542 1.3798 2.17549 0
M  V30 15 C 4.32409 1.52686 2.74514 0
M  V30 16 C 3.16812 1.31849 2.01359 0
M  V30 17 C -3.06904 -0.764055 -0.763618 0
M  V30 18 N -4.39252 -1.07667 -0.564866 0
M  V30 19 C -4.82616 -1.48212 0.639417 0
M  V30 20 N -6.20622 -1.78892 0.776423 0
M  V30 21 N -3.96976 -1.59499 1.69541 0
M  V30 22 C -2.66723 -1.29487 1.52808 0
M  V30 23 N -2.28046 -0.895232 0.311175 0
M  V30 24 N -1.78603 -1.41457 2.62868 0
M  V30 25 H -1.40043 0.204775 -3.55 0
M  V30 26 H -1.19395 1.79118 -0.387686 0
M  V30 27 H 0.875513 2.13514 0.944497 0
M  V30 28 H 2.93532 -0.733276 -1.34178 0
M  V30 29 H 0.870968 -1.11616 -2.69342 0
M  V30 30 H 4.58219 0.527417 -0.913907 0
M  V30 31 H 6.59824 0.889045 0.355792 0
M  V30 32 H 6.48965 1.54314 2.74894 0
M  V30 33 H 4.3169 1.81387 3.79425 0
M  V30 34 H 2.22614 1.4543 2.53454 0
M  V30 35 H -6.47725 -2.659 1.27283 0
M  V30 36 H -6.9267 -1.15567 0.388091 0
M  V30 37 H -0.777773 -1.64656 2.56274 0
M  V30 38 H -2.18117 -1.25559 3.60312 0
M  V30 END ATOM
M  V30 BEGIN BOND
M  V30 1 3 1 2
M  V30 2 1 2 3
M  V30 3 2 3 4 CFG=2
M  V30 4 1 4 5
M  V30 5 2 5 6
M  V30 6 1 6 7
M  V30 7 2 7 8
M  V30 8 1 8 9
M  V30 9 2 9 10
M  V30 10 1 8 11
M  V30 11 2 11 12
M  V30 12 1 12 13
M  V30 13 2 13 14
M  V30 14 1 14 15
M  V30 15 2 15 16
M  V30 16 1 3 17
M  V30 17 2 17 18
M  V30 18 1 18 19
M  V30 19 1 19 20
M  V30 20 2 19 21
M  V30 21 1 21 22
M  V30 22 2 22 23
M  V30 23 1 22 24
M  V30 24 1 10 5
M  V30 25 1 16 11
M  V30 26 1 23 17
M  V30 27 1 4 25
M  V30 28 1 6 26
M  V30 29 1 7 27
M  V30 30 1 9 28
M  V30 31 1 10 29
M  V30 32 1 12 30
M  V30 33 1 13 31
M  V30 34 1 14 32
M  V30 35 1 15 33
M  V30 36 1 16 34
M  V30 37 1 20 35
M  V30 38 1 20 36
M  V30 39 1 24 37
M  V30 40 1 24 38
M  V30 END BOND
M  V30 END CTAB
M  END
