
     RDKit          3D

  0  0  0  0  0  0  0  0  0  0999 V3000
M  V30 BEGIN CTAB
M  V30 COUNTS 58 60 0 0 0
M  V30 BEGIN ATOM
M  V30 1 C 6.94937 1.32672 1.45872 0
M  V30 2 C 6.12972 0.0843886 1.11428 0
M  V30 3 C 5.9406 0.106011 -0.385601 0
M  V30 4 C 5.16201 -1.04347 -0.927097 0
M  V30 5 N 3.80099 -1.13521 -0.343401 0
M  V30 6 C 3.44239 -1.87036 0.802131 0
M  V30 7 O 4.18578 -2.56393 1.53668 0
M  V30 8 C 1.98706 -1.69683 1.03565 0
M  V30 9 C 1.55907 -0.792319 -0.0276525 0
M  V30 10 C 2.63561 -0.483923 -0.832412 0
M  V30 11 N 2.53038 0.352467 -1.91109 0
M  V30 12 C 1.37437 0.923791 -2.2517 0
M  V30 13 N 1.27041 1.80775 -3.37336 0
M  V30 14 C 0.263025 0.643577 -1.47049 0
M  V30 15 C 0.345394 -0.214039 -0.357204 0
M  V30 16 C -0.792277 -0.445381 0.374533 0
M  V30 17 C -0.772223 -1.33052 1.53154 0
M  V30 18 N -0.809314 -2.04214 2.47533 0
M  V30 19 C -1.98588 0.153962 0.023854 0
M  V30 20 N -2.05358 0.949765 -1.01025 0
M  V30 21 C -0.948205 1.21104 -1.77384 0
M  V30 22 N -1.04326 2.07976 -2.89727 0
M  V30 23 N -3.16321 -0.174445 0.869314 0
M  V30 24 C -3.66411 -1.46336 0.647294 0
M  V30 25 C -4.93336 -1.71737 -0.0435773 0
M  V30 26 C -5.01227 -1.12402 -1.43971 0
M  V30 27 C -3.58513 0.836088 1.75202 0
M  V30 28 C -4.81193 1.61572 1.61716 0
M  V30 29 C -6.14338 0.965052 1.72887 0
M  V30 30 H 7.62697 1.155 2.32598 0
M  V30 31 H 6.30741 2.1955 1.69798 0
M  V30 32 H 7.58504 1.57086 0.584526 0
M  V30 33 H 5.13049 0.178323 1.6281 0
M  V30 34 H 6.68612 -0.808822 1.40101 0
M  V30 35 H 6.95493 0.0977145 -0.86217 0
M  V30 36 H 5.50625 1.09171 -0.652599 0
M  V30 37 H 5.0397 -1.03403 -2.01547 0
M  V30 38 H 5.73184 -1.97123 -0.669301 0
M  V30 39 H 1.92674 -1.2481 2.05099 0
M  V30 40 H 1.57735 -2.72736 0.958507 0
M  V30 41 H 1.0453 1.52946 -4.33512 0
M  V30 42 H 1.44323 2.81655 -3.175 0
M  V30 43 H -1.27776 1.72131 -3.84224 0
M  V30 44 H -0.875768 3.11106 -2.7794 0
M  V30 45 H -3.75085 -1.9954 1.65523 0
M  V30 46 H -2.87703 -2.13939 0.145565 0
M  V30 47 H -4.90256 -2.86241 -0.286344 0
M  V30 48 H -5.87775 -1.6272 0.452781 0
M  V30 49 H -5.92588 -1.57507 -1.89934 0
M  V30 50 H -5.19913 -0.0321786 -1.41147 0
M  V30 51 H -4.17078 -1.41777 -2.06912 0
M  V30 52 H -3.66609 0.343864 2.81331 0
M  V30 53 H -2.74016 1.62077 1.89333 0
M  V30 54 H -4.8412 2.48237 2.37472 0
M  V30 55 H -4.75351 2.22852 0.641112 0
M  V30 56 H -6.85842 1.58143 2.32934 0
M  V30 57 H -6.60814 0.768871 0.730459 0
M  V30 58 H -6.09441 -0.0131266 2.27373 0
M  V30 END ATOM
M  V30 BEGIN BOND
M  V30 1 1 1 2
M  V30 2 1 2 3
M  V30 3 1 3 4
M  V30 4 1 4 5
M  V30 5 1 5 6
M  V30 6 2 6 7
M  V30 7 1 6 8
M  V30 8 1 8 9
M  V30 9 2 9 10
M  V30 10 1 10 11
M  V30 11 2 11 12
M  V30 12 1 12 13
M  V30 13 1 12 14
M  V30 14 2 14 15
M  V30 15 1 15 16
M  V30 16 1 16 17
M  V30 17 3 17 18
M  V30 18 2 16 19
M  V30 19 1 19 20
M  V30 20 2 20 21
M  V30 21 1 21 22
M  V30 22 1 19 23
M  V30 23 1 23 24
M  V30 24 1 24 25
M  V30 25 1 25 26
M  V30 26 1 23 27
M  V30 27 1 27 28
M  V30 28 1 28 29
M  V30 29 1 10 5
M  V30 30 1 21 14
M  V30 31 1 15 9
M  V30 32 1 1 30
M  V30 33 1 1 31
M  V30 34 1 1 32
M  V30 35 1 2 33
M  V30 36 1 2 34
M  V30 37 1 3 35
M  V30 38 1 3 36
M  V30 39 1 4 37
M  V30 40 1 4 38
M  V30 41 1 8 39
M  V30 42 1 8 40
M  V30 43 1 13 41
M  V30 44 1 13 42
M  V30 45 1 22 43
M  V30 46 1 22 44
M  V30 47 1 24 45
M  V30 48 1 24 46
M  V30 49 1 25 47
M  V30 50 1 25 48
M  V30 51 1 26 49
M  V30 52 1 26 50
M  V30 53 1 26 51
M  V30 54 1 27 52
M  V30 55 1 27 53
M  V30 56 1 28 54
M  V30 57 1 28 55
M  V30 58 1 29 56
M  V30 59 1 29 57
M  V30 60 1 29 58
M  V30 END BOND
M  V30 END CTAB
M  END
