
     RDKit          3D

  0  0  0  0  0  0  0  0  0  0999 V3000
M  V30 BEGIN CTAB
M  V30 COUNTS 50 52 0 0 0
M  V30 BEGIN ATOM
M  V30 1 C 6.37582 -1.55308 0.0528089 0
M  V30 2 O 6.28116 -0.137459 0.21483 0
M  V30 3 C 5.10266 0.539754 -0.0126626 0
M  V30 4 C 5.11124 1.90597 0.170532 0
M  V30 5 C 3.93592 2.59043 -0.0551351 0
M  V30 6 C 2.79568 1.91752 -0.451074 0
M  V30 7 C 2.77101 0.552991 -0.638372 0
M  V30 8 C 3.94474 -0.134341 -0.413515 0
M  V30 9 C 1.51685 -0.08963 -1.06369 0
M  V30 10 C 0.622823 -0.552846 0.0325276 0
M  V30 11 C 1.40369 -1.57785 0.865596 0
M  V30 12 O 0.500852 -1.97331 1.8789 0
M  V30 13 C 0.0975812 0.47064 0.955106 0
M  V30 14 C -1.16183 1.15878 0.515812 0
M  V30 15 N -2.06695 0.357719 -0.245721 0
M  V30 16 C -1.47855 -0.463733 -1.30174 0
M  V30 17 C -0.480479 -1.36894 -0.638801 0
M  V30 18 C -3.47338 0.290763 -0.0780438 0
M  V30 19 C -4.14033 1.08681 0.824445 0
M  V30 20 C -5.5235 1.00105 0.974449 0
M  V30 21 N -6.18778 1.83453 1.91372 0
M  V30 22 N -6.20782 0.119611 0.216761 0
M  V30 23 C -5.5163 -0.638636 -0.652563 0
M  V30 24 N -4.19235 -0.569194 -0.808612 0
M  V30 25 N -6.28493 -1.5647 -1.44034 0
M  V30 26 H 5.90153 -2.00045 0.947409 0
M  V30 27 H 7.42794 -1.87472 -0.00844229 0
M  V30 28 H 5.83797 -1.89169 -0.866598 0
M  V30 29 H 6.02714 2.41801 0.484794 0
M  V30 30 H 3.95015 3.65916 0.0901954 0
M  V30 31 H 1.88919 2.47404 -0.621338 0
M  V30 32 H 3.94162 -1.20835 -0.556507 0
M  V30 33 H 1.7232 -1.00024 -1.70317 0
M  V30 34 H 0.908708 0.564824 -1.73231 0
M  V30 35 H 2.23247 -1.07483 1.40375 0
M  V30 36 H 1.73082 -2.43806 0.250148 0
M  V30 37 H 0.350816 -2.9442 1.83388 0
M  V30 38 H 0.850613 1.22863 1.21971 0
M  V30 39 H -0.149172 -0.0353021 1.93655 0
M  V30 40 H -0.84982 2.0782 -0.0450346 0
M  V30 41 H -1.68782 1.5205 1.4201 0
M  V30 42 H -1.06638 0.191914 -2.07009 0
M  V30 43 H -2.23691 -1.10862 -1.79563 0
M  V30 44 H 0.0483765 -2.00617 -1.39438 0
M  V30 45 H -1.00542 -1.96053 0.125422 0
M  V30 46 H -3.65745 1.8053 1.45176 0
M  V30 47 H -6.71905 2.67982 1.67572 0
M  V30 48 H -6.10943 1.5332 2.92677 0
M  V30 49 H -5.7916 -2.38925 -1.83416 0
M  V30 50 H -7.29333 -1.42401 -1.61456 0
M  V30 END ATOM
M  V30 BEGIN BOND
M  V30 1 1 1 2
M  V30 2 1 2 3
M  V30 3 2 3 4
M  V30 4 1 4 5
M  V30 5 2 5 6
M  V30 6 1 6 7
M  V30 7 2 7 8
M  V30 8 1 7 9
M  V30 9 1 9 10
M  V30 10 1 10 11
M  V30 11 1 11 12
M  V30 12 1 10 13
M  V30 13 1 13 14
M  V30 14 1 14 15
M  V30 15 1 15 16
M  V30 16 1 16 17
M  V30 17 1 15 18
M  V30 18 2 18 19
M  V30 19 1 19 20
M  V30 20 1 20 21
M  V30 21 2 20 22
M  V30 22 1 22 23
M  V30 23 2 23 24
M  V30 24 1 23 25
M  V30 25 1 8 3
M  V30 26 1 17 10
M  V30 27 1 24 18
M  V30 28 1 1 26
M  V30 29 1 1 27
M  V30 30 1 1 28
M  V30 31 1 4 29
M  V30 32 1 5 30
M  V30 33 1 6 31
M  V30 34 1 8 32
M  V30 35 1 9 33
M  V30 36 1 9 34
M  V30 37 1 11 35
M  V30 38 1 11 36
M  V30 39 1 12 37
M  V30 40 1 13 38
M  V30 41 1 13 39
M  V30 42 1 14 40
M  V30 43 1 14 41
M  V30 44 1 16 42
M  V30 45 1 16 43
M  V30 46 1 17 44
M  V30 47 1 17 45
M  V30 48 1 19 46
M  V30 49 1 21 47
M  V30 50 1 21 48
M  V30 51 1 25 49
M  V30 52 1 25 50
M  V30 END BOND
M  V30 END CTAB
M  END
