
     RDKit          3D

  0  0  0  0  0  0  0  0  0  0999 V3000
M  V30 BEGIN CTAB
M  V30 COUNTS 98 107 0 0 0
M  V30 BEGIN ATOM
M  V30 1 N 13.5973 4.89948 -0.604923 0
M  V30 2 C 13.0158 3.64717 -0.321147 0
M  V30 3 C 12.4875 2.88349 -1.33458 0
M  V30 4 C 11.9139 1.65455 -1.0794 0
M  V30 5 C 11.859 1.1703 0.189865 0
M  V30 6 C 12.3771 1.90703 1.22494 0
M  V30 7 C 12.9578 3.15368 0.959754 0
M  V30 8 O 11.2973 -0.0581834 0.52072 0
M  V30 9 C 9.96084 -0.214475 0.834526 0
M  V30 10 C 9.56366 -0.0541466 2.14758 0
M  V30 11 C 8.2289 -0.200783 2.51767 0
M  V30 12 C 7.26925 -0.512227 1.57237 0
M  V30 13 C 7.65592 -0.67661 0.246963 0
M  V30 14 C 8.99544 -0.524111 -0.09442 0
M  V30 15 N 6.72008 -0.980165 -0.66782 0
M  V30 16 C 5.40461 -1.13537 -0.357912 0
M  V30 17 C 5.02065 -0.972527 0.958645 0
M  V30 18 N 5.9705 -0.664702 1.88438 0
M  V30 19 C 3.64375 -1.12279 1.42578 0
M  V30 20 C 2.60225 -0.369561 0.940944 0
M  V30 21 C 1.30531 -0.545176 1.4161 0
M  V30 22 C 0.991842 -1.46473 2.38031 0
M  V30 23 C 2.06143 -2.22543 2.86729 0
M  V30 24 C 3.34185 -2.05592 2.40195 0
M  V30 25 C -0.356064 -1.70481 2.87972 0
M  V30 26 O -0.441055 -2.1529 4.0801 0
M  V30 27 C -1.57329 -1.47772 2.13049 0
M  V30 28 C -1.62597 -1.51145 0.756979 0
M  V30 29 C -2.77714 -1.28044 0.0440134 0
M  V30 30 C -3.97067 -0.995974 0.689174 0
M  V30 31 C -3.94101 -0.9572 2.06533 0
M  V30 32 C -2.78017 -1.19059 2.76927 0
M  V30 33 C -5.18548 -0.757096 -0.100908 0
M  V30 34 N -5.70529 0.49907 -0.169319 0
M  V30 35 C -6.80937 0.70651 -0.923702 0
M  V30 36 C -7.38086 1.95171 -1.04073 0
M  V30 37 C -8.51576 2.1723 -1.82215 0
M  V30 38 C -9.07118 1.10437 -2.49079 0
M  V30 39 C -8.50829 -0.133947 -2.3781 0
M  V30 40 C -7.37894 -0.351145 -1.60054 0
M  V30 41 N -6.87382 -1.60082 -1.54011 0
M  V30 42 C -5.75762 -1.80808 -0.777044 0
M  V30 43 C -5.20282 -3.14051 -0.685656 0
M  V30 44 C -5.25865 -3.83296 0.492536 0
M  V30 45 C -4.7232 -5.12092 0.574729 0
M  V30 46 C -4.13729 -5.6962 -0.533092 0
M  V30 47 C -4.08374 -4.99505 -1.7167 0
M  V30 48 C -4.61884 -3.71827 -1.78408 0
M  V30 49 O -9.10992 3.4087 -1.95727 0
M  V30 50 C -10.1464 3.86264 -1.14888 0
M  V30 51 C -11.4738 3.61715 -1.51813 0
M  V30 52 C -12.5236 4.05027 -0.744824 0
M  V30 53 C -12.2717 4.74484 0.425688 0
M  V30 54 C -10.9801 4.98663 0.789661 0
M  V30 55 C -9.91904 4.55501 0.0182977 0
M  V30 56 N -13.4117 5.16044 1.17138 0
M  V30 57 C 4.41237 -1.45703 -1.36103 0
M  V30 58 C 3.69359 -2.62458 -1.24038 0
M  V30 59 C 2.72808 -2.96727 -2.19277 0
M  V30 60 C 2.49533 -2.13268 -3.25623 0
M  V30 61 C 3.2137 -0.968437 -3.37456 0
M  V30 62 C 4.17934 -0.620639 -2.42681 0
M  V30 63 H 13.1921 5.75393 -0.182082 0
M  V30 64 H 14.42 4.99223 -1.22451 0
M  V30 65 H 12.5365 3.28007 -2.33993 0
M  V30 66 H 11.5165 1.09291 -1.89051 0
M  V30 67 H 12.3623 1.57443 2.25518 0
M  V30 68 H 13.3569 3.71021 1.79584 0
M  V30 69 H 10.2661 0.189349 2.93548 0
M  V30 70 H 7.90143 -0.0772658 3.53573 0
M  V30 71 H 9.30661 -0.651956 -1.13631 0
M  V30 72 H 2.7681 0.374603 0.184149 0
M  V30 73 H 0.489139 0.0759157 1.02474 0
M  V30 74 H 1.83254 -2.9587 3.63106 0
M  V30 75 H 4.15768 -2.6556 2.79262 0
M  V30 76 H -0.720623 -1.74399 0.190026 0
M  V30 77 H -2.7731 -1.31279 -1.05235 0
M  V30 78 H -4.86691 -0.735054 2.61749 0
M  V30 79 H -2.78624 -1.15469 3.85214 0
M  V30 80 H -6.97212 2.81043 -0.530113 0
M  V30 81 H -9.96146 1.2942 -3.10222 0
M  V30 82 H -8.96366 -0.954021 -2.91286 0
M  V30 83 H -5.70943 -3.42696 1.37596 0
M  V30 84 H -4.79176 -5.62397 1.5223 0
M  V30 85 H -3.73063 -6.70282 -0.426245 0
M  V30 86 H -3.63099 -5.42935 -2.58616 0
M  V30 87 H -4.59205 -3.14315 -2.69714 0
M  V30 88 H -11.6259 3.06454 -2.45285 0
M  V30 89 H -13.5408 3.84202 -1.06278 0
M  V30 90 H -10.7996 5.54053 1.71985 0
M  V30 91 H -8.90197 4.73653 0.290151 0
M  V30 92 H -13.5671 4.93428 2.17694 0
M  V30 93 H -14.1396 5.72995 0.676791 0
M  V30 94 H 3.81863 -3.33051 -0.432009 0
M  V30 95 H 2.16407 -3.87653 -2.10402 0
M  V30 96 H 1.7533 -2.40378 -3.97948 0
M  V30 97 H 3.06781 -0.282226 -4.18739 0
M  V30 98 H 4.71287 0.30551 -2.57169 0
M  V30 END ATOM
M  V30 BEGIN BOND
M  V30 1 1 1 2
M  V30 2 2 2 3
M  V30 3 1 3 4
M  V30 4 2 4 5
M  V30 5 1 5 6
M  V30 6 2 6 7
M  V30 7 1 5 8
M  V30 8 1 8 9
M  V30 9 2 9 10
M  V30 10 1 10 11
M  V30 11 2 11 12
M  V30 12 1 12 13
M  V30 13 2 13 14
M  V30 14 1 13 15
M  V30 15 2 15 16
M  V30 16 1 16 17
M  V30 17 2 17 18
M  V30 18 1 17 19
M  V30 19 2 19 20
M  V30 20 1 20 21
M  V30 21 2 21 22
M  V30 22 1 22 23
M  V30 23 2 23 24
M  V30 24 1 22 25
M  V30 25 2 25 26
M  V30 26 1 25 27
M  V30 27 2 27 28
M  V30 28 1 28 29
M  V30 29 2 29 30
M  V30 30 1 30 31
M  V30 31 2 31 32
M  V30 32 1 30 33
M  V30 33 2 33 34
M  V30 34 1 34 35
M  V30 35 2 35 36
M  V30 36 1 36 37
M  V30 37 2 37 38
M  V30 38 1 38 39
M  V30 39 2 39 40
M  V30 40 1 40 41
M  V30 41 2 41 42
M  V30 42 1 42 43
M  V30 43 2 43 44
M  V30 44 1 44 45
M  V30 45 2 45 46
M  V30 46 1 46 47
M  V30 47 2 47 48
M  V30 48 1 37 49
M  V30 49 1 49 50
M  V30 50 2 50 51
M  V30 51 1 51 52
M  V30 52 2 52 53
M  V30 53 1 53 54
M  V30 54 2 54 55
M  V30 55 1 53 56
M  V30 56 1 16 57
M  V30 57 2 57 58
M  V30 58 1 58 59
M  V30 59 2 59 60
M  V30 60 1 60 61
M  V30 61 2 61 62
M  V30 62 1 7 2
M  V30 63 1 14 9
M  V30 64 1 24 19
M  V30 65 1 32 27
M  V30 66 1 42 33
M  V30 67 1 48 43
M  V30 68 1 55 50
M  V30 69 1 62 57
M  V30 70 1 18 12
M  V30 71 1 40 35
M  V30 72 1 1 63
M  V30 73 1 1 64
M  V30 74 1 3 65
M  V30 75 1 4 66
M  V30 76 1 6 67
M  V30 77 1 7 68
M  V30 78 1 10 69
M  V30 79 1 11 70
M  V30 80 1 14 71
M  V30 81 1 20 72
M  V30 82 1 21 73
M  V30 83 1 23 74
M  V30 84 1 24 75
M  V30 85 1 28 76
M  V30 86 1 29 77
M  V30 87 1 31 78
M  V30 88 1 32 79
M  V30 89 1 36 80
M  V30 90 1 38 81
M  V30 91 1 39 82
M  V30 92 1 44 83
M  V30 93 1 45 84
M  V30 94 1 46 85
M  V30 95 1 47 86
M  V30 96 1 48 87
M  V30 97 1 51 88
M  V30 98 1 52 89
M  V30 99 1 54 90
M  V30 100 1 55 91
M  V30 101 1 56 92
M  V30 102 1 56 93
M  V30 103 1 58 94
M  V30 104 1 59 95
M  V30 105 1 60 96
M  V30 106 1 61 97
M  V30 107 1 62 98
M  V30 END BOND
M  V30 END CTAB
M  END
