
     RDKit          3D

  0  0  0  0  0  0  0  0  0  0999 V3000
M  V30 BEGIN CTAB
M  V30 COUNTS 40 42 0 0 0
M  V30 BEGIN ATOM
M  V30 1 C 0.715637 0.370234 0.703177 0 CFG=2
M  V30 2 C -0.551101 0.454299 1.50065 0
M  V30 3 O -1.1824 -0.802835 1.35249 0
M  V30 4 C -1.69432 -0.926498 0.0585929 0 CFG=2
M  V30 5 O -0.776036 -0.517707 -0.910094 0
M  V30 6 C 0.466852 -0.675755 -0.368399 0 CFG=1
M  V30 7 C 1.60334 -0.551945 -1.34261 0 CFG=2
M  V30 8 N 1.42925 -1.33557 -2.53142 0
M  V30 9 C 2.84821 -0.927538 -0.562438 0 CFG=2
M  V30 10 N 2.70056 -2.3191 -0.159867 0
M  V30 11 C 2.92669 -0.0172796 0.641363 0 CFG=1
M  V30 12 O 3.15027 1.27764 0.17327 0
M  V30 13 C 4.3845 1.76322 0.606479 0
M  V30 14 O 1.80322 -0.0692735 1.43477 0
M  V30 15 C -2.9484 -0.147704 0.00754614 0
M  V30 16 C -3.27093 0.699974 -1.02375 0
M  V30 17 C -4.45807 1.37266 -0.970603 0
M  V30 18 C -5.34741 1.23215 0.0827835 0
M  V30 19 C -5.01929 0.381276 1.11388 0
M  V30 20 C -3.83045 -0.29133 1.05901 0
M  V30 21 H 0.941187 1.32216 0.240988 0
M  V30 22 H -0.411151 0.712545 2.5459 0
M  V30 23 H -1.22136 1.16628 0.946937 0
M  V30 24 H -1.86861 -2.01384 -0.120218 0
M  V30 25 H 0.567959 -1.67068 0.136876 0
M  V30 26 H 1.7031 0.548249 -1.57141 0
M  V30 27 H 0.407099 -1.25998 -2.80599 0
M  V30 28 H 1.97103 -0.85091 -3.29824 0
M  V30 29 H 3.77004 -0.776382 -1.15451 0
M  V30 30 H 3.60452 -2.85227 -0.327629 0
M  V30 31 H 2.52922 -2.41354 0.872444 0
M  V30 32 H 3.79869 -0.368544 1.26187 0
M  V30 33 H 4.49367 2.78511 0.201486 0
M  V30 34 H 5.1515 1.07782 0.177442 0
M  V30 35 H 4.43378 1.73186 1.71453 0
M  V30 36 H -2.55978 0.795482 -1.83957 0
M  V30 37 H -4.68574 2.03702 -1.80237 0
M  V30 38 H -6.28805 1.78506 0.0935973 0
M  V30 39 H -5.68429 0.234948 1.96642 0
M  V30 40 H -3.60296 -0.959303 1.89662 0
M  V30 END ATOM
M  V30 BEGIN BOND
M  V30 1 1 1 2
M  V30 2 1 2 3
M  V30 3 1 3 4
M  V30 4 1 4 5
M  V30 5 1 5 6
M  V30 6 1 6 7
M  V30 7 1 7 8
M  V30 8 1 7 9
M  V30 9 1 9 10
M  V30 10 1 9 11
M  V30 11 1 11 12
M  V30 12 1 12 13
M  V30 13 1 11 14
M  V30 14 1 4 15
M  V30 15 2 15 16
M  V30 16 1 16 17
M  V30 17 2 17 18
M  V30 18 1 18 19
M  V30 19 2 19 20
M  V30 20 1 6 1
M  V30 21 1 20 15
M  V30 22 1 14 1
M  V30 23 1 1 21 CFG=3
M  V30 24 1 2 22
M  V30 25 1 2 23
M  V30 26 1 4 24 CFG=3
M  V30 27 1 6 25 CFG=1
M  V30 28 1 7 26 CFG=3
M  V30 29 1 8 27
M  V30 30 1 8 28
M  V30 31 1 9 29 CFG=3
M  V30 32 1 10 30
M  V30 33 1 10 31
M  V30 34 1 11 32 CFG=1
M  V30 35 1 13 33
M  V30 36 1 13 34
M  V30 37 1 13 35
M  V30 38 1 16 36
M  V30 39 1 17 37
M  V30 40 1 18 38
M  V30 41 1 19 39
M  V30 42 1 20 40
M  V30 END BOND
M  V30 END CTAB
M  END
