
     RDKit          3D

  0  0  0  0  0  0  0  0  0  0999 V3000
M  V30 BEGIN CTAB
M  V30 COUNTS 35 37 0 0 0
M  V30 BEGIN ATOM
M  V30 1 N -1.73359 2.61049 1.94476 0
M  V30 2 C -2.61642 1.80978 1.18793 0
M  V30 3 C -3.95956 2.24248 1.12503 0
M  V30 4 C -4.86999 1.55712 0.38464 0
M  V30 5 C -4.50901 0.434799 -0.316668 0
M  V30 6 C -3.1967 0.0410974 -0.234039 0
M  V30 7 C -2.20903 0.697862 0.509473 0
M  V30 8 N -1.0288 0.0329382 0.344528 0
M  V30 9 C -1.26125 -1.00398 -0.477244 0
M  V30 10 C -2.61331 -1.02201 -0.854277 0
M  V30 11 C -0.336826 -2.02812 -0.963755 0
M  V30 12 C 0.190077 0.287014 0.982929 0
M  V30 13 O 0.39175 1.10466 1.95103 0
M  V30 14 C 1.48029 -0.351065 0.639488 0
M  V30 15 C 1.98676 -1.43337 1.31187 0
M  V30 16 C 3.19848 -1.70821 0.688242 0
M  V30 17 C 3.35712 -0.781582 -0.321731 0
M  V30 18 O 2.29714 0.0176041 -0.314934 0
M  V30 19 S 4.72536 -0.669629 -1.43266 0
M  V30 20 O 4.27361 -0.883623 -2.84911 0
M  V30 21 O 5.70375 -1.73576 -1.09671 0
M  V30 22 N 5.47864 0.859872 -1.25471 0
M  V30 23 H -1.70301 2.51548 2.98191 0
M  V30 24 H -1.10575 3.34107 1.52052 0
M  V30 25 H -4.22775 3.13738 1.68993 0
M  V30 26 H -5.90062 1.93594 0.369775 0
M  V30 27 H -5.27094 -0.0711798 -0.888223 0
M  V30 28 H -3.09886 -1.74703 -1.51319 0
M  V30 29 H -0.19914 -2.84747 -0.207176 0
M  V30 30 H -0.848043 -2.62834 -1.81474 0
M  V30 31 H 0.572266 -1.69263 -1.45985 0
M  V30 32 H 1.61593 -2.00413 2.13388 0
M  V30 33 H 3.90865 -2.48654 0.91785 0
M  V30 34 H 6.51004 0.83068 -1.41313 0
M  V30 35 H 4.99871 1.63841 -1.71521 0
M  V30 END ATOM
M  V30 BEGIN BOND
M  V30 1 1 1 2
M  V30 2 2 2 3
M  V30 3 1 3 4
M  V30 4 2 4 5
M  V30 5 1 5 6
M  V30 6 2 6 7
M  V30 7 1 7 8
M  V30 8 1 8 9
M  V30 9 2 9 10
M  V30 10 1 9 11
M  V30 11 1 8 12
M  V30 12 2 12 13
M  V30 13 1 12 14
M  V30 14 2 14 15
M  V30 15 1 15 16
M  V30 16 2 16 17
M  V30 17 1 17 18
M  V30 18 1 17 19
M  V30 19 2 19 20
M  V30 20 2 19 21
M  V30 21 1 19 22
M  V30 22 1 7 2
M  V30 23 1 18 14
M  V30 24 1 10 6
M  V30 25 1 1 23
M  V30 26 1 1 24
M  V30 27 1 3 25
M  V30 28 1 4 26
M  V30 29 1 5 27
M  V30 30 1 10 28
M  V30 31 1 11 29
M  V30 32 1 11 30
M  V30 33 1 11 31
M  V30 34 1 15 32
M  V30 35 1 16 33
M  V30 36 1 22 34
M  V30 37 1 22 35
M  V30 END BOND
M  V30 END CTAB
M  END
