
     RDKit          3D

  0  0  0  0  0  0  0  0  0  0999 V3000
M  V30 BEGIN CTAB
M  V30 COUNTS 21 21 0 0 0
M  V30 BEGIN ATOM
M  V30 1 N 3.71457 0.865586 0.590276 0
M  V30 2 N 2.36468 1.13863 0.385985 0
M  V30 3 C 1.43278 0.0971714 0.210644 0
M  V30 4 C 1.82475 -1.21888 0.235444 0
M  V30 5 C 0.905559 -2.22588 0.0630766 0
M  V30 6 C -0.417105 -1.89325 -0.13524 0
M  V30 7 C -0.811721 -0.582639 -0.160604 0
M  V30 8 N 0.131965 0.372093 0.0141498 0
M  V30 9 C -2.20723 -0.213847 -0.369326 0
M  V30 10 O -3.05106 -1.13229 -0.527323 0
M  V30 11 N -2.56205 1.16252 -0.386672 0
M  V30 12 N -3.89187 1.54374 -0.584749 0
M  V30 13 H 3.86393 0.42567 1.52508 0
M  V30 14 H 4.28121 1.7411 0.584199 0
M  V30 15 H 2.05542 2.13527 0.365229 0
M  V30 16 H 2.86485 -1.504 0.390729 0
M  V30 17 H 1.21438 -3.28278 0.0820599 0
M  V30 18 H -1.17837 -2.65252 -0.275899 0
M  V30 19 H -1.85509 1.91453 -0.254788 0
M  V30 20 H -4.56292 0.838029 -0.256682 0
M  V30 21 H -4.11667 2.47176 -0.1893 0
M  V30 END ATOM
M  V30 BEGIN BOND
M  V30 1 1 1 2
M  V30 2 1 2 3
M  V30 3 2 3 4
M  V30 4 1 4 5
M  V30 5 2 5 6
M  V30 6 1 6 7
M  V30 7 2 7 8
M  V30 8 1 7 9
M  V30 9 2 9 10
M  V30 10 1 9 11
M  V30 11 1 11 12
M  V30 12 1 8 3
M  V30 13 1 1 13
M  V30 14 1 1 14
M  V30 15 1 2 15
M  V30 16 1 4 16
M  V30 17 1 5 17
M  V30 18 1 6 18
M  V30 19 1 11 19
M  V30 20 1 12 20
M  V30 21 1 12 21
M  V30 END BOND
M  V30 END CTAB
M  END
