
     RDKit          3D

  0  0  0  0  0  0  0  0  0  0999 V3000
M  V30 BEGIN CTAB
M  V30 COUNTS 22 22 0 0 0
M  V30 BEGIN ATOM
M  V30 1 N 2.83189 -0.886672 -0.272067 0
M  V30 2 C 2.20917 0.240215 -0.870868 0
M  V30 3 C 1.085 0.849414 -0.116968 0
M  V30 4 C -0.117838 0.0447516 0.104771 0
M  V30 5 C -1.31663 0.752071 0.258341 0
M  V30 6 N -1.29389 2.16127 0.191896 0
M  V30 7 C -2.53215 0.151617 0.470216 0
M  V30 8 C -2.5933 -1.20299 0.539061 0
M  V30 9 C -1.43859 -1.93819 0.392395 0
M  V30 10 C -0.195957 -1.31034 0.175117 0
M  V30 11 H 3.09619 -1.66912 -0.895973 0
M  V30 12 H 3.43046 -0.69748 0.537137 0
M  V30 13 H 1.91484 -0.0484124 -1.91216 0
M  V30 14 H 2.99529 1.04322 -1.02015 0
M  V30 15 H 0.806495 1.83667 -0.586682 0
M  V30 16 H 1.47488 1.18017 0.915933 0
M  V30 17 H -1.48828 2.77124 1.00801 0
M  V30 18 H -1.07446 2.61434 -0.715108 0
M  V30 19 H -3.4496 0.707668 0.582707 0
M  V30 20 H -3.56209 -1.69041 0.71578 0
M  V30 21 H -1.47251 -3.00389 0.444555 0
M  V30 22 H 0.691113 -1.90516 0.0540542 0
M  V30 END ATOM
M  V30 BEGIN BOND
M  V30 1 1 1 2
M  V30 2 1 2 3
M  V30 3 1 3 4
M  V30 4 2 4 5
M  V30 5 1 5 6
M  V30 6 1 5 7
M  V30 7 2 7 8
M  V30 8 1 8 9
M  V30 9 2 9 10
M  V30 10 1 10 4
M  V30 11 1 1 11
M  V30 12 1 1 12
M  V30 13 1 2 13
M  V30 14 1 2 14
M  V30 15 1 3 15
M  V30 16 1 3 16
M  V30 17 1 6 17
M  V30 18 1 6 18
M  V30 19 1 7 19
M  V30 20 1 8 20
M  V30 21 1 9 21
M  V30 22 1 10 22
M  V30 END BOND
M  V30 END CTAB
M  END
