
     RDKit          3D

  0  0  0  0  0  0  0  0  0  0999 V3000
M  V30 BEGIN CTAB
M  V30 COUNTS 18 18 0 0 0
M  V30 BEGIN ATOM
M  V30 1 N -3.42934 0.499578 0.474211 0
M  V30 2 C -1.99026 0.273106 0.628862 0
M  V30 3 C -1.28768 0.0377274 -0.703284 0
M  V30 4 C 0.139905 -0.216077 -0.427028 0
M  V30 5 N 0.746265 -1.43703 -0.342351 0
M  V30 6 N 2.01833 -1.28488 -0.101313 0
M  V30 7 C 2.30825 0.0535077 -0.0185119 0
M  V30 8 N 1.1287 0.673129 -0.222369 0
M  V30 9 N 3.59426 0.592066 0.233267 0
M  V30 10 F -1.43947 1.25418 -1.41124 0
M  V30 11 F -1.84802 -0.93057 -1.45897 0
M  V30 12 H -3.86671 -0.483438 0.558939 0
M  V30 13 H -3.54366 0.730664 -0.571969 0
M  V30 14 H -1.78918 -0.557678 1.30214 0
M  V30 15 H -1.63582 1.23751 1.08554 0
M  V30 16 H 2.75955 -2.01965 0.0428125 0
M  V30 17 H 3.70617 1.582 0.479363 0
M  V30 18 H 4.4287 -0.00414094 0.190389 0
M  V30 END ATOM
M  V30 BEGIN BOND
M  V30 1 1 1 2
M  V30 2 1 2 3
M  V30 3 1 3 4
M  V30 4 2 4 5
M  V30 5 1 5 6
M  V30 6 1 6 7
M  V30 7 2 7 8
M  V30 8 1 7 9
M  V30 9 1 3 10
M  V30 10 1 3 11
M  V30 11 1 8 4
M  V30 12 1 1 12
M  V30 13 1 1 13
M  V30 14 1 2 14
M  V30 15 1 2 15
M  V30 16 1 6 16
M  V30 17 1 9 17
M  V30 18 1 9 18
M  V30 END BOND
M  V30 END CTAB
M  END
