
     RDKit          3D

  0  0  0  0  0  0  0  0  0  0999 V3000
M  V30 BEGIN CTAB
M  V30 COUNTS 17 17 0 0 0
M  V30 BEGIN ATOM
M  V30 1 N -2.26439 -1.43746 0.0168635 0
M  V30 2 C -1.13569 -0.572682 -0.0124805 0
M  V30 3 C -1.31188 0.736443 0.0339702 0
M  V30 4 C -0.126283 1.6 0.00184866 0
M  V30 5 N -0.246177 2.87988 0.044731 0
M  V30 6 C 1.22159 1.03099 -0.0796295 0
M  V30 7 C 1.3268 -0.288538 -0.122958 0
M  V30 8 N 2.62217 -0.866488 -0.202161 0
M  V30 9 C 0.18312 -1.18785 -0.0938947 0
M  V30 10 O 0.315962 -2.45223 -0.136956 0
M  V30 11 H -2.85746 -1.54269 -0.823373 0
M  V30 12 H -2.45266 -1.94371 0.908889 0
M  V30 13 H -2.2937 1.18864 0.0944149 0
M  V30 14 H -1.20562 3.29957 0.103151 0
M  V30 15 H 2.06923 1.70375 -0.100985 0
M  V30 16 H 3.13177 -0.910245 -1.10854 0
M  V30 17 H 3.02321 -1.23736 0.688328 0
M  V30 END ATOM
M  V30 BEGIN BOND
M  V30 1 1 1 2
M  V30 2 2 2 3
M  V30 3 1 3 4
M  V30 4 2 4 5 CFG=2
M  V30 5 1 4 6
M  V30 6 2 6 7
M  V30 7 1 7 8
M  V30 8 1 7 9
M  V30 9 2 9 10
M  V30 10 1 9 2
M  V30 11 1 1 11
M  V30 12 1 1 12
M  V30 13 1 3 13
M  V30 14 1 5 14
M  V30 15 1 6 15
M  V30 16 1 8 16
M  V30 17 1 8 17
M  V30 END BOND
M  V30 END CTAB
M  END
