
     RDKit          3D

  0  0  0  0  0  0  0  0  0  0999 V3000
M  V30 BEGIN CTAB
M  V30 COUNTS 28 29 0 0 0
M  V30 BEGIN ATOM
M  V30 1 C 4.74682 0.505261 0.0158869 0
M  V30 2 C 3.26922 0.32363 -0.0157484 0
M  V30 3 C 2.49207 1.41971 0.325476 0
M  V30 4 C 1.12279 1.26182 0.299513 0
M  V30 5 C 0.504133 0.0774703 -0.046363 0
M  V30 6 C 1.28384 -1.00651 -0.384427 0
M  V30 7 C 2.65887 -0.858045 -0.361162 0
M  V30 8 C -0.955856 0.0253136 -0.0549597 0
M  V30 9 N -1.6829 0.999663 -0.677889 0
M  V30 10 C -3.0052 1.03963 -0.729553 0
M  V30 11 N -3.70108 2.10353 -1.40774 0
M  V30 12 N -3.70213 0.058651 -0.131264 0
M  V30 13 C -3.04814 -0.931151 0.500184 0
M  V30 14 N -3.76414 -1.97965 1.14024 0
M  V30 15 C -1.65636 -0.973546 0.555145 0
M  V30 16 C -1.00436 -2.03569 1.25186 0
M  V30 17 N -0.48539 -2.89213 1.83896 0
M  V30 18 H 5.05022 1.22871 -0.796523 0
M  V30 19 H 4.99403 1.05445 0.967854 0
M  V30 20 H 5.28788 -0.441059 -0.0757998 0
M  V30 21 H 2.96064 2.35553 0.599083 0
M  V30 22 H 0.515857 2.11385 0.564808 0
M  V30 23 H 0.861832 -1.95847 -0.672943 0
M  V30 24 H 3.2691 -1.70535 -0.625087 0
M  V30 25 H -3.40177 3.09794 -1.30296 0
M  V30 26 H -4.51518 1.84697 -2.00791 0
M  V30 27 H -3.77794 -2.96882 0.811506 0
M  V30 28 H -4.31684 -1.76173 1.9959 0
M  V30 END ATOM
M  V30 BEGIN BOND
M  V30 1 1 1 2
M  V30 2 2 2 3
M  V30 3 1 3 4
M  V30 4 2 4 5
M  V30 5 1 5 6
M  V30 6 2 6 7
M  V30 7 1 5 8
M  V30 8 2 8 9
M  V30 9 1 9 10
M  V30 10 1 10 11
M  V30 11 2 10 12
M  V30 12 1 12 13
M  V30 13 1 13 14
M  V30 14 2 13 15
M  V30 15 1 15 16
M  V30 16 3 16 17
M  V30 17 1 7 2
M  V30 18 1 15 8
M  V30 19 1 1 18
M  V30 20 1 1 19
M  V30 21 1 1 20
M  V30 22 1 3 21
M  V30 23 1 4 22
M  V30 24 1 6 23
M  V30 25 1 7 24
M  V30 26 1 11 25
M  V30 27 1 11 26
M  V30 28 1 14 27
M  V30 29 1 14 28
M  V30 END BOND
M  V30 END CTAB
M  END
