
     RDKit          3D

  0  0  0  0  0  0  0  0  0  0999 V3000
M  V30 BEGIN CTAB
M  V30 COUNTS 21 22 0 0 0
M  V30 BEGIN ATOM
M  V30 1 N -1.58254 2.34638 -0.00565067 0
M  V30 2 C -0.449915 1.49851 -0.061437 0
M  V30 3 C 0.818073 2.01646 -0.224519 0
M  V30 4 C 1.92142 1.18091 -0.278208 0
M  V30 5 F 3.17741 1.63072 -0.43541 0
M  V30 6 C 1.70769 -0.180627 -0.163322 0
M  V30 7 C 0.436128 -0.720561 0.00162688 0
M  V30 8 C -0.639258 0.132003 0.0513354 0
M  V30 9 C -1.90286 -0.382825 0.213772 0
M  V30 10 C -2.042 -1.74675 0.321325 0
M  V30 11 C -0.963457 -2.59679 0.271125 0
M  V30 12 N 0.25591 -2.05101 0.111016 0
M  V30 13 N 2.78336 -1.09525 -0.208796 0
M  V30 14 H -1.7362 2.88075 0.87015 0
M  V30 15 H -2.25721 2.45913 -0.784653 0
M  V30 16 H 0.975871 3.08944 -0.313983 0
M  V30 17 H -2.75035 0.287143 0.253075 0
M  V30 18 H -3.0225 -2.19106 0.450452 0
M  V30 19 H -1.08671 -3.68732 0.35833 0
M  V30 20 H 3.28863 -1.294 -1.08777 0
M  V30 21 H 3.06852 -1.57525 0.661538 0
M  V30 END ATOM
M  V30 BEGIN BOND
M  V30 1 1 1 2
M  V30 2 2 2 3
M  V30 3 1 3 4
M  V30 4 1 4 5
M  V30 5 2 4 6
M  V30 6 1 6 7
M  V30 7 2 7 8
M  V30 8 1 8 9
M  V30 9 2 9 10
M  V30 10 1 10 11
M  V30 11 2 11 12
M  V30 12 1 6 13
M  V30 13 1 8 2
M  V30 14 1 12 7
M  V30 15 1 1 14
M  V30 16 1 1 15
M  V30 17 1 3 16
M  V30 18 1 9 17
M  V30 19 1 10 18
M  V30 20 1 11 19
M  V30 21 1 13 20
M  V30 22 1 13 21
M  V30 END BOND
M  V30 END CTAB
M  END
