
     RDKit          3D

  0  0  0  0  0  0  0  0  0  0999 V3000
M  V30 BEGIN CTAB
M  V30 COUNTS 31 32 0 0 0
M  V30 BEGIN ATOM
M  V30 1 N 3.1645 1.81572 -0.154877 0
M  V30 2 C 2.66767 0.50651 -0.405591 0
M  V30 3 C 2.76078 -0.383552 0.821032 0
M  V30 4 C 1.86902 -1.51371 0.400857 0
M  V30 5 C 0.653519 -0.823348 -0.163338 0
M  V30 6 C 1.19315 0.443309 -0.749724 0
M  V30 7 C -0.338474 -0.48196 0.913915 0
M  V30 8 C -1.53921 0.185039 0.453746 0
M  V30 9 C -1.75594 1.53052 0.645202 0
M  V30 10 N -2.90559 2.12248 0.199613 0
M  V30 11 C -3.87486 1.44536 -0.438217 0
M  V30 12 C -3.68905 0.0972921 -0.64587 0
M  V30 13 C -2.53331 -0.505097 -0.19967 0
M  V30 14 N -2.35503 -1.88073 -0.415571 0
M  V30 15 H 2.51901 2.59605 -0.346295 0
M  V30 16 H 4.11988 1.95317 -0.557163 0
M  V30 17 H 3.24501 0.043093 -1.21721 0
M  V30 18 H 2.34779 0.0836256 1.72525 0
M  V30 19 H 3.80687 -0.6813 0.98947 0
M  V30 20 H 1.5521 -2.15857 1.2441 0
M  V30 21 H 2.36903 -2.10493 -0.399148 0
M  V30 22 H 0.239482 -1.51617 -0.922408 0
M  V30 23 H 0.748599 1.36106 -0.281872 0
M  V30 24 H 1.02417 0.443851 -1.84667 0
M  V30 25 H 0.144464 0.086407 1.73929 0
M  V30 26 H -0.617532 -1.46872 1.3959 0
M  V30 27 H -0.995195 2.10196 1.15633 0
M  V30 28 H -4.79056 1.95252 -0.785557 0
M  V30 29 H -4.4543 -0.466082 -1.15681 0
M  V30 30 H -2.01992 -2.21807 -1.33191 0
M  V30 31 H -2.5561 -2.56573 0.333201 0
M  V30 END ATOM
M  V30 BEGIN BOND
M  V30 1 1 1 2
M  V30 2 1 2 3
M  V30 3 1 3 4
M  V30 4 1 4 5
M  V30 5 1 5 6
M  V30 6 1 5 7
M  V30 7 1 7 8
M  V30 8 2 8 9
M  V30 9 1 9 10
M  V30 10 2 10 11
M  V30 11 1 11 12
M  V30 12 2 12 13
M  V30 13 1 13 14
M  V30 14 1 6 2
M  V30 15 1 13 8
M  V30 16 1 1 15
M  V30 17 1 1 16
M  V30 18 1 2 17
M  V30 19 1 3 18
M  V30 20 1 3 19
M  V30 21 1 4 20
M  V30 22 1 4 21
M  V30 23 1 5 22
M  V30 24 1 6 23
M  V30 25 1 6 24
M  V30 26 1 7 25
M  V30 27 1 7 26
M  V30 28 1 9 27
M  V30 29 1 11 28
M  V30 30 1 12 29
M  V30 31 1 14 30
M  V30 32 1 14 31
M  V30 END BOND
M  V30 END CTAB
M  END
