
     RDKit          3D

  0  0  0  0  0  0  0  0  0  0999 V3000
M  V30 BEGIN CTAB
M  V30 COUNTS 33 33 0 0 0
M  V30 BEGIN ATOM
M  V30 1 C -0.769292 2.36649 1.59284 0
M  V30 2 C -1.49552 1.17225 0.95076 0 CFG=2
M  V30 3 C -0.478612 0.0250865 0.838889 0
M  V30 4 O 0.552175 0.489516 0.0405199 0
M  V30 5 C 1.68418 -0.171605 -0.343245 0
M  V30 6 N 1.99199 -1.43224 0.00740527 0
M  V30 7 C 3.13977 -2.02722 -0.413427 0
M  V30 8 N 3.41635 -3.37388 -0.00829277 0
M  V30 9 N 4.00946 -1.36889 -1.19921 0
M  V30 10 C 3.77214 -0.0918665 -1.59799 0
M  V30 11 N 4.66783 0.62085 -2.42191 0
M  V30 12 C 2.58496 0.493048 -1.14988 0
M  V30 13 O -1.92418 1.4684 -0.30951 0
M  V30 14 C -3.26237 1.36016 -0.560424 0
M  V30 15 P -3.95127 -0.287543 -0.332401 0
M  V30 16 O -3.17527 -1.4347 -1.29518 0
M  V30 17 O -3.97401 -0.808274 1.25217 0
M  V30 18 O -5.39961 -0.233081 -0.814163 0
M  V30 19 H -0.372055 2.01146 2.58005 0
M  V30 20 H -1.45191 3.18293 1.80472 0
M  V30 21 H 0.119675 2.65746 0.996273 0
M  V30 22 H -2.24885 0.870267 1.6751 0
M  V30 23 H -0.971974 -0.898541 0.501277 0
M  V30 24 H -0.0888686 -0.212568 1.87117 0
M  V30 25 H 2.79004 -4.1497 -0.289973 0
M  V30 26 H 4.24836 -3.58771 0.572718 0
M  V30 27 H 4.63927 0.489915 -3.44054 0
M  V30 28 H 5.3451 1.26807 -1.99912 0
M  V30 29 H 2.36777 1.51916 -1.4548 0
M  V30 30 H -3.39621 1.59786 -1.65722 0
M  V30 31 H -3.88364 2.11578 -0.0395352 0
M  V30 32 H -3.7432 -2.21645 -1.46952 0
M  V30 33 H -4.74222 -1.41444 1.42644 0
M  V30 END ATOM
M  V30 BEGIN BOND
M  V30 1 1 1 2
M  V30 2 1 2 3
M  V30 3 1 3 4
M  V30 4 1 4 5
M  V30 5 2 5 6
M  V30 6 1 6 7
M  V30 7 1 7 8
M  V30 8 2 7 9
M  V30 9 1 9 10
M  V30 10 1 10 11
M  V30 11 2 10 12
M  V30 12 1 2 13
M  V30 13 1 13 14
M  V30 14 1 14 15
M  V30 15 1 15 16
M  V30 16 1 15 17
M  V30 17 2 15 18
M  V30 18 1 12 5
M  V30 19 1 1 19
M  V30 20 1 1 20
M  V30 21 1 1 21
M  V30 22 1 2 22 CFG=1
M  V30 23 1 3 23
M  V30 24 1 3 24
M  V30 25 1 8 25
M  V30 26 1 8 26
M  V30 27 1 11 27
M  V30 28 1 11 28
M  V30 29 1 12 29
M  V30 30 1 14 30
M  V30 31 1 14 31
M  V30 32 1 16 32
M  V30 33 1 17 33
M  V30 END BOND
M  V30 END CTAB
M  END
