
     RDKit          3D

  0  0  0  0  0  0  0  0  0  0999 V3000
M  V30 BEGIN CTAB
M  V30 COUNTS 26 28 0 0 0
M  V30 BEGIN ATOM
M  V30 1 N 4.83739 1.15506 0.193675 0
M  V30 2 N 4.37857 -0.153107 0.12255 0
M  V30 3 C 2.97033 -0.448645 0.0439398 0
M  V30 4 N 2.58468 -1.73202 -0.0227269 0
M  V30 5 N 1.30673 -2.03356 -0.0953076 0
M  V30 6 C 0.371038 -1.07473 -0.104166 0
M  V30 7 C 0.76492 0.235669 -0.0360878 0
M  V30 8 N 2.0686 0.545153 0.0380248 0
M  V30 9 C -0.475416 1.02233 -0.0659903 0
M  V30 10 N -0.534523 2.29169 -0.0211437 0
M  V30 11 N -1.67247 3.05331 -0.0470811 0
M  V30 12 C -1.62316 0.150174 -0.153739 0
M  V30 13 C -1.07388 -1.14239 -0.175951 0
M  V30 14 C -1.91482 -2.21884 -0.256667 0
M  V30 15 C -3.26339 -2.06903 -0.315662 0
M  V30 16 C -3.78146 -0.781389 -0.292142 0
M  V30 17 C -2.97437 0.329914 -0.21174 0
M  V30 18 H 5.15962 1.39409 1.17158 0
M  V30 19 H 5.69182 1.28207 -0.42575 0
M  V30 20 H 5.07672 -0.925573 0.126995 0
M  V30 21 H -1.92641 3.54312 -0.938132 0
M  V30 22 H -2.28054 3.15309 0.789318 0
M  V30 23 H -1.50131 -3.21187 -0.274145 0
M  V30 24 H -3.8914 -2.94139 -0.378473 0
M  V30 25 H -4.86741 -0.714652 -0.34172 0
M  V30 26 H -3.42985 1.29152 -0.197437 0
M  V30 END ATOM
M  V30 BEGIN BOND
M  V30 1 1 1 2
M  V30 2 1 2 3
M  V30 3 2 3 4
M  V30 4 1 4 5
M  V30 5 2 5 6
M  V30 6 1 6 7
M  V30 7 2 7 8
M  V30 8 1 7 9
M  V30 9 2 9 10
M  V30 10 1 10 11
M  V30 11 1 9 12
M  V30 12 2 12 13
M  V30 13 1 13 14
M  V30 14 2 14 15
M  V30 15 1 15 16
M  V30 16 2 16 17
M  V30 17 1 8 3
M  V30 18 1 17 12
M  V30 19 1 13 6
M  V30 20 1 1 18
M  V30 21 1 1 19
M  V30 22 1 2 20
M  V30 23 1 11 21
M  V30 24 1 11 22
M  V30 25 1 14 23
M  V30 26 1 15 24
M  V30 27 1 16 25
M  V30 28 1 17 26
M  V30 END BOND
M  V30 END CTAB
M  END
