
     RDKit          3D

  0  0  0  0  0  0  0  0  0  0999 V3000
M  V30 BEGIN CTAB
M  V30 COUNTS 49 50 0 0 0
M  V30 BEGIN ATOM
M  V30 1 C -6.32895 1.25122 1.89115 0
M  V30 2 C -4.84519 1.16407 1.70892 0
M  V30 3 N -4.39023 0.927333 0.404629 0
M  V30 4 C -2.97437 0.894205 0.315416 0
M  V30 5 C -2.40455 -0.304867 1.00787 0
M  V30 6 C -0.878487 -0.31984 0.878094 0
M  V30 7 N -0.553823 -0.381427 -0.517227 0
M  V30 8 C 0.823762 -0.372737 -0.942117 0
M  V30 9 C 1.79783 -0.303022 0.00925597 0
M  V30 10 C 3.11767 -0.293956 -0.391469 0
M  V30 11 N 3.3759 -0.354248 -1.69727 0
M  V30 12 C 2.43885 -0.423745 -2.66008 0
M  V30 13 N 1.1389 -0.431755 -2.24785 0
M  V30 14 N 2.75199 -0.48692 -4.03882 0
M  V30 15 C 4.15928 -0.217369 0.655595 0
M  V30 16 C 5.32813 -1.17401 0.46066 0
M  V30 17 C 6.23495 -0.0427359 0.907526 0
M  V30 18 C 5.16323 0.919835 0.439228 0
M  V30 19 N 7.46819 0.00494626 0.144817 0
M  V30 20 C -5.09477 -0.0126796 -0.381749 0
M  V30 21 C -4.56518 -0.226127 -1.75405 0
M  V30 22 H -6.5174 1.18056 3.00324 0
M  V30 23 H -6.91196 0.461553 1.4352 0
M  V30 24 H -6.74179 2.23459 1.59355 0
M  V30 25 H -4.40059 2.10131 2.10373 0
M  V30 26 H -4.45657 0.352398 2.39218 0
M  V30 27 H -2.53428 1.78064 0.873494 0
M  V30 28 H -2.58119 1.04861 -0.712389 0
M  V30 29 H -2.75748 -1.26843 0.623054 0
M  V30 30 H -2.57186 -0.206887 2.11188 0
M  V30 31 H -0.489681 -1.20951 1.43976 0
M  V30 32 H -0.492041 0.571564 1.39659 0
M  V30 33 H -1.31732 -0.436132 -1.2207 0
M  V30 34 H 1.56798 -0.25367 1.07803 0
M  V30 35 H 3.18383 0.315338 -4.49768 0
M  V30 36 H 2.53706 -1.3508 -4.56212 0
M  V30 37 H 3.76609 -0.170712 1.67335 0
M  V30 38 H 5.45983 -1.36834 -0.604285 0
M  V30 39 H 5.32333 -2.04376 1.14438 0
M  V30 40 H 6.36813 -0.0746169 2.01566 0
M  V30 41 H 5.32925 1.15599 -0.632088 0
M  V30 42 H 4.97958 1.77905 1.09334 0
M  V30 43 H 7.98138 0.887562 0.333637 0
M  V30 44 H 8.06242 -0.775842 0.483077 0
M  V30 45 H -6.1666 0.287059 -0.450097 0
M  V30 46 H -5.05219 -1.00673 0.13117 0
M  V30 47 H -3.84185 -1.06882 -1.80035 0
M  V30 48 H -4.07871 0.648188 -2.21229 0
M  V30 49 H -5.4105 -0.499852 -2.42583 0
M  V30 END ATOM
M  V30 BEGIN BOND
M  V30 1 1 1 2
M  V30 2 1 2 3
M  V30 3 1 3 4
M  V30 4 1 4 5
M  V30 5 1 5 6
M  V30 6 1 6 7
M  V30 7 1 7 8
M  V30 8 2 8 9
M  V30 9 1 9 10
M  V30 10 2 10 11
M  V30 11 1 11 12
M  V30 12 2 12 13
M  V30 13 1 12 14
M  V30 14 1 10 15
M  V30 15 1 15 16
M  V30 16 1 16 17
M  V30 17 1 17 18
M  V30 18 1 17 19
M  V30 19 1 3 20
M  V30 20 1 20 21
M  V30 21 1 13 8
M  V30 22 1 18 15
M  V30 23 1 1 22
M  V30 24 1 1 23
M  V30 25 1 1 24
M  V30 26 1 2 25
M  V30 27 1 2 26
M  V30 28 1 4 27
M  V30 29 1 4 28
M  V30 30 1 5 29
M  V30 31 1 5 30
M  V30 32 1 6 31
M  V30 33 1 6 32
M  V30 34 1 7 33
M  V30 35 1 9 34
M  V30 36 1 14 35
M  V30 37 1 14 36
M  V30 38 1 15 37
M  V30 39 1 16 38
M  V30 40 1 16 39
M  V30 41 1 17 40
M  V30 42 1 18 41
M  V30 43 1 18 42
M  V30 44 1 19 43
M  V30 45 1 19 44
M  V30 46 1 20 45
M  V30 47 1 20 46
M  V30 48 1 21 47
M  V30 49 1 21 48
M  V30 50 1 21 49
M  V30 END BOND
M  V30 END CTAB
M  END
