
     RDKit          3D

  0  0  0  0  0  0  0  0  0  0999 V3000
M  V30 BEGIN CTAB
M  V30 COUNTS 40 43 0 0 0
M  V30 BEGIN ATOM
M  V30 1 Cl 6.42238 -3.70775 -1.14986 0
M  V30 2 C 5.43247 -2.35617 -0.571043 0
M  V30 3 C 5.80406 -1.62436 0.528563 0
M  V30 4 C 5.02209 -0.581018 0.961456 0
M  V30 5 C 3.84247 -0.228418 0.316498 0
M  V30 6 C 3.473 -0.949857 -0.771745 0
M  V30 7 C 4.26306 -2.0158 -1.22119 0
M  V30 8 C 3.08581 0.91437 0.873294 0
M  V30 9 N 3.71252 2.02498 1.19052 0
M  V30 10 C 3.04709 3.0271 1.72617 0
M  V30 11 S 1.45772 2.41142 1.80159 0
M  V30 12 C 1.74696 0.863046 1.12303 0
M  V30 13 S 0.521776 -0.412503 0.815505 0
M  V30 14 S -0.460684 -0.127171 -1.05444 0
M  V30 15 C -1.93062 0.882578 -0.854506 0
M  V30 16 S -2.03451 2.60211 -0.843921 0
M  V30 17 C -3.7231 2.76322 -0.649643 0
M  V30 18 N -4.11189 1.50792 -0.604838 0
M  V30 19 C -3.2493 0.534274 -0.70398 0
M  V30 20 C -3.73929 -0.879239 -0.697011 0
M  V30 21 C -3.16406 -1.86841 0.0451149 0
M  V30 22 C -3.66138 -3.18106 0.0152228 0
M  V30 23 C -4.74682 -3.45122 -0.782148 0
M  V30 24 C -5.35602 -2.47235 -1.54783 0
M  V30 25 C -4.83437 -1.21669 -1.48285 0
M  V30 26 Cl -5.40031 -5.08866 -0.847015 0
M  V30 27 N -4.48405 3.96732 -0.561929 0
M  V30 28 N 3.56869 4.31531 2.13709 0
M  V30 29 H 6.7248 -1.85465 1.07829 0
M  V30 30 H 5.32577 0.000588642 1.84051 0
M  V30 31 H 2.58453 -0.714101 -1.3004 0
M  V30 32 H 3.95061 -2.57762 -2.0865 0
M  V30 33 H -2.32723 -1.68103 0.672706 0
M  V30 34 H -3.20385 -3.97457 0.607366 0
M  V30 35 H -6.22456 -2.73728 -2.17075 0
M  V30 36 H -5.28071 -0.422621 -2.06545 0
M  V30 37 H -4.45291 4.62707 -1.34457 0
M  V30 38 H -5.0466 4.15511 0.274182 0
M  V30 39 H 4.39299 4.38616 2.74821 0
M  V30 40 H 3.05347 5.13995 1.77161 0
M  V30 END ATOM
M  V30 BEGIN BOND
M  V30 1 1 1 2
M  V30 2 2 2 3
M  V30 3 1 3 4
M  V30 4 2 4 5
M  V30 5 1 5 6
M  V30 6 2 6 7
M  V30 7 1 5 8
M  V30 8 1 8 9
M  V30 9 2 9 10
M  V30 10 1 10 11
M  V30 11 1 11 12
M  V30 12 1 12 13
M  V30 13 1 13 14
M  V30 14 1 14 15
M  V30 15 1 15 16
M  V30 16 1 16 17
M  V30 17 2 17 18
M  V30 18 1 18 19
M  V30 19 1 19 20
M  V30 20 2 20 21
M  V30 21 1 21 22
M  V30 22 2 22 23
M  V30 23 1 23 24
M  V30 24 2 24 25
M  V30 25 1 23 26
M  V30 26 1 17 27
M  V30 27 1 10 28
M  V30 28 1 7 2
M  V30 29 2 12 8
M  V30 30 2 19 15
M  V30 31 1 25 20
M  V30 32 1 3 29
M  V30 33 1 4 30
M  V30 34 1 6 31
M  V30 35 1 7 32
M  V30 36 1 21 33
M  V30 37 1 22 34
M  V30 38 1 24 35
M  V30 39 1 25 36
M  V30 40 1 27 37
M  V30 41 1 27 38
M  V30 42 1 28 39
M  V30 43 1 28 40
M  V30 END BOND
M  V30 END CTAB
M  END
