
     RDKit          3D

  0  0  0  0  0  0  0  0  0  0999 V3000
M  V30 BEGIN CTAB
M  V30 COUNTS 59 60 0 0 0
M  V30 BEGIN ATOM
M  V30 1 N 2.61898 -0.550693 2.31642 0
M  V30 2 C 1.70665 -1.09108 1.34369 0
M  V30 3 N 1.70047 -0.651016 0.133865 0
M  V30 4 C 2.63064 0.392384 -0.209725 0
M  V30 5 C 3.97211 -0.20457 -0.546418 0
M  V30 6 C 4.95429 0.891181 -0.908686 0
M  V30 7 C 6.30381 0.264455 -1.24528 0 CFG=2
M  V30 8 C 7.21277 1.38266 -1.58834 0
M  V30 9 O 7.73783 1.40994 -2.72876 0
M  V30 10 O 7.4492 2.36557 -0.623578 0
M  V30 11 N 6.18543 -0.640145 -2.35641 0
M  V30 12 N 0.83513 -2.11471 1.79036 0
M  V30 13 S -0.650952 -1.70746 2.56707 0
M  V30 14 O -1.33899 -2.98171 3.04415 0
M  V30 15 O -0.28389 -0.974244 3.8207 0
M  V30 16 C -1.66757 -0.809578 1.51201 0
M  V30 17 C -1.77371 0.563844 1.51854 0
M  V30 18 C -1.03899 1.38151 2.51027 0
M  V30 19 C -2.6004 1.20193 0.604488 0
M  V30 20 C -2.68519 2.67499 0.644021 0
M  V30 21 C -3.3351 0.49384 -0.328627 0
M  V30 22 C -3.23427 -0.88718 -0.340548 0
M  V30 23 C -2.41391 -1.52852 0.564917 0
M  V30 24 C -2.32943 -3.00195 0.522627 0
M  V30 25 C -4.11553 -1.43163 -1.42992 0
M  V30 26 C -5.09883 -0.268401 -1.58237 0
M  V30 27 O -4.22365 0.833833 -1.34382 0
M  V30 28 C -5.73273 -0.229332 -2.92883 0
M  V30 29 C -6.09172 -0.298836 -0.450051 0
M  V30 30 H 2.51988 0.426434 2.6652 0
M  V30 31 H 3.38807 -1.17983 2.66054 0
M  V30 32 H 2.24703 0.992064 -1.06482 0
M  V30 33 H 2.77155 1.07116 0.661391 0
M  V30 34 H 4.33322 -0.834032 0.269263 0
M  V30 35 H 3.89904 -0.860681 -1.44915 0
M  V30 36 H 5.13547 1.57653 -0.0635184 0
M  V30 37 H 4.59743 1.46045 -1.78735 0
M  V30 38 H 6.63978 -0.261002 -0.315118 0
M  V30 39 H 8.39279 2.41254 -0.219179 0
M  V30 40 H 6.24139 -0.131913 -3.25713 0
M  V30 41 H 6.94747 -1.37994 -2.30446 0
M  V30 42 H 1.10779 -3.1269 1.64129 0
M  V30 43 H -1.42917 1.18106 3.55602 0
M  V30 44 H -1.25284 2.46775 2.37946 0
M  V30 45 H 0.0404833 1.17479 2.57734 0
M  V30 46 H -1.72239 3.14691 0.416615 0
M  V30 47 H -3.41726 3.05228 -0.0988789 0
M  V30 48 H -3.07972 3.01123 1.64245 0
M  V30 49 H -2.95851 -3.50939 1.26909 0
M  V30 50 H -2.65588 -3.38328 -0.46667 0
M  V30 51 H -1.25442 -3.29087 0.604915 0
M  V30 52 H -3.56876 -1.64146 -2.3481 0
M  V30 53 H -4.71832 -2.29205 -1.04987 0
M  V30 54 H -5.3652 0.600602 -3.57058 0
M  V30 55 H -5.66372 -1.21388 -3.4471 0
M  V30 56 H -6.82765 -0.0441516 -2.7857 0
M  V30 57 H -7.05093 -0.751166 -0.75018 0
M  V30 58 H -5.65735 -0.829658 0.4293 0
M  V30 59 H -6.33175 0.729757 -0.0768401 0
M  V30 END ATOM
M  V30 BEGIN BOND
M  V30 1 1 1 2
M  V30 2 2 2 3
M  V30 3 1 3 4
M  V30 4 1 4 5
M  V30 5 1 5 6
M  V30 6 1 6 7
M  V30 7 1 7 8
M  V30 8 2 8 9
M  V30 9 1 8 10
M  V30 10 1 7 11
M  V30 11 1 2 12
M  V30 12 1 12 13
M  V30 13 2 13 14
M  V30 14 2 13 15
M  V30 15 1 13 16
M  V30 16 2 16 17
M  V30 17 1 17 18
M  V30 18 1 17 19
M  V30 19 1 19 20
M  V30 20 2 19 21
M  V30 21 1 21 22
M  V30 22 2 22 23
M  V30 23 1 23 24
M  V30 24 1 22 25
M  V30 25 1 25 26
M  V30 26 1 26 27
M  V30 27 1 26 28
M  V30 28 1 26 29
M  V30 29 1 23 16
M  V30 30 1 27 21
M  V30 31 1 1 30
M  V30 32 1 1 31
M  V30 33 1 4 32
M  V30 34 1 4 33
M  V30 35 1 5 34
M  V30 36 1 5 35
M  V30 37 1 6 36
M  V30 38 1 6 37
M  V30 39 1 7 38 CFG=1
M  V30 40 1 10 39
M  V30 41 1 11 40
M  V30 42 1 11 41
M  V30 43 1 12 42
M  V30 44 1 18 43
M  V30 45 1 18 44
M  V30 46 1 18 45
M  V30 47 1 20 46
M  V30 48 1 20 47
M  V30 49 1 20 48
M  V30 50 1 24 49
M  V30 51 1 24 50
M  V30 52 1 24 51
M  V30 53 1 25 52
M  V30 54 1 25 53
M  V30 55 1 28 54
M  V30 56 1 28 55
M  V30 57 1 28 56
M  V30 58 1 29 57
M  V30 59 1 29 58
M  V30 60 1 29 59
M  V30 END BOND
M  V30 END CTAB
M  END
