
     RDKit          3D

  0  0  0  0  0  0  0  0  0  0999 V3000
M  V30 BEGIN CTAB
M  V30 COUNTS 19 19 0 0 0
M  V30 BEGIN ATOM
M  V30 1 N 3.04934 0.779074 -0.418675 0
M  V30 2 N 2.49611 0.0636125 0.670247 0
M  V30 3 C 1.35807 -0.523326 0.599098 0
M  V30 4 C 0.58994 -0.457322 -0.656068 0
M  V30 5 N -0.701706 0.165615 -0.48568 0
M  V30 6 C -1.79989 -0.541046 -0.172301 0
M  V30 7 C -2.88307 0.300891 -0.0729396 0
M  V30 8 C -2.39483 1.55941 -0.340963 0
M  V30 9 N -1.08693 1.40358 -0.578255 0
M  V30 10 N 0.792342 -1.24782 1.6947 0
M  V30 11 H 3.09697 1.82207 -0.425632 0
M  V30 12 H 3.43436 0.298821 -1.26305 0
M  V30 13 H 0.442355 -1.48572 -1.07862 0
M  V30 14 H 1.19892 0.0653936 -1.444 0
M  V30 15 H -1.89347 -1.61877 -0.00690829 0
M  V30 16 H -3.91876 0.0495211 0.166035 0
M  V30 17 H -2.98218 2.49006 -0.351683 0
M  V30 18 H 0.253816 -0.829525 2.4581 0
M  V30 19 H 0.948617 -2.29451 1.7066 0
M  V30 END ATOM
M  V30 BEGIN BOND
M  V30 1 1 1 2
M  V30 2 2 2 3
M  V30 3 1 3 4
M  V30 4 1 4 5
M  V30 5 1 5 6
M  V30 6 2 6 7
M  V30 7 1 7 8
M  V30 8 2 8 9
M  V30 9 1 3 10
M  V30 10 1 9 5
M  V30 11 1 1 11
M  V30 12 1 1 12
M  V30 13 1 4 13
M  V30 14 1 4 14
M  V30 15 1 6 15
M  V30 16 1 7 16
M  V30 17 1 8 17
M  V30 18 1 10 18
M  V30 19 1 10 19
M  V30 END BOND
M  V30 END CTAB
M  END
