
     RDKit          3D

  0  0  0  0  0  0  0  0  0  0999 V3000
M  V30 BEGIN CTAB
M  V30 COUNTS 40 43 0 0 0
M  V30 BEGIN ATOM
M  V30 1 N 6.36085 -0.369188 -2.18457 0
M  V30 2 C 5.15016 -0.206111 -1.44942 0
M  V30 3 N 4.5631 -1.23994 -0.839074 0
M  V30 4 C 3.4025 -1.08931 -0.132565 0
M  V30 5 N 2.86607 -2.25077 0.425828 0
M  V30 6 C 2.77916 0.145287 -0.0142934 0
M  V30 7 C 1.59696 0.296902 0.687497 0
M  V30 8 C 1.08045 -0.726822 1.55377 0
M  V30 9 C -0.178167 -1.05405 1.57633 0
M  V30 10 C -1.30164 -0.580456 0.822822 0
M  V30 11 C -2.53938 -0.62725 1.42341 0
M  V30 12 C -3.70155 -0.31577 0.770942 0
M  V30 13 C -4.93118 -0.38236 1.44676 0
M  V30 14 C -6.09796 -0.0700171 0.800926 0
M  V30 15 C -6.02262 0.307605 -0.520811 0
M  V30 16 C -4.83365 0.381471 -1.20666 0
M  V30 17 C -3.65342 0.0649903 -0.551366 0
M  V30 18 C -2.44202 0.128467 -1.20532 0
M  V30 19 C -1.30505 -0.194848 -0.505818 0
M  V30 20 C 1.00069 1.57207 0.751465 0
M  V30 21 C 1.64211 2.5925 0.105109 0
M  V30 22 C 2.81939 2.43725 -0.590098 0
M  V30 23 C 3.42321 1.1804 -0.663163 0
M  V30 24 N 4.56123 0.993829 -1.34745 0
M  V30 25 H 7.29122 -0.428333 -1.70261 0
M  V30 26 H 6.34534 -0.433225 -3.22129 0
M  V30 27 H 2.01134 -2.71052 0.0582 0
M  V30 28 H 3.33691 -2.68885 1.24249 0
M  V30 29 H 1.79034 -1.2277 2.27419 0
M  V30 30 H -0.430053 -1.86 2.3168 0
M  V30 31 H -2.62355 -0.921735 2.46139 0
M  V30 32 H -4.9207 -0.689694 2.49632 0
M  V30 33 H -7.02782 -0.132744 1.35442 0
M  V30 34 H -6.97495 0.549525 -1.00345 0
M  V30 35 H -4.81337 0.685185 -2.25505 0
M  V30 36 H -2.40748 0.432763 -2.26164 0
M  V30 37 H -0.369292 -0.174738 -1.08947 0
M  V30 38 H 0.0827972 1.75604 1.30809 0
M  V30 39 H 1.18262 3.57091 0.154192 0
M  V30 40 H 3.28741 3.27925 -1.08411 0
M  V30 END ATOM
M  V30 BEGIN BOND
M  V30 1 1 1 2
M  V30 2 2 2 3
M  V30 3 1 3 4
M  V30 4 1 4 5
M  V30 5 2 4 6
M  V30 6 1 6 7
M  V30 7 1 7 8
M  V30 8 2 8 9
M  V30 9 1 9 10
M  V30 10 2 10 11
M  V30 11 1 11 12
M  V30 12 2 12 13
M  V30 13 1 13 14
M  V30 14 2 14 15
M  V30 15 1 15 16
M  V30 16 2 16 17
M  V30 17 1 17 18
M  V30 18 2 18 19
M  V30 19 2 7 20
M  V30 20 1 20 21
M  V30 21 2 21 22
M  V30 22 1 22 23
M  V30 23 2 23 24
M  V30 24 1 24 2
M  V30 25 1 23 6
M  V30 26 1 19 10
M  V30 27 1 17 12
M  V30 28 1 1 25
M  V30 29 1 1 26
M  V30 30 1 5 27
M  V30 31 1 5 28
M  V30 32 1 8 29
M  V30 33 1 9 30
M  V30 34 1 11 31
M  V30 35 1 13 32
M  V30 36 1 14 33
M  V30 37 1 15 34
M  V30 38 1 16 35
M  V30 39 1 18 36
M  V30 40 1 19 37
M  V30 41 1 20 38
M  V30 42 1 21 39
M  V30 43 1 22 40
M  V30 END BOND
M  V30 END CTAB
M  END
