
     RDKit          3D

  0  0  0  0  0  0  0  0  0  0999 V3000
M  V30 BEGIN CTAB
M  V30 COUNTS 19 19 0 0 0
M  V30 BEGIN ATOM
M  V30 1 O 4.12585 -0.151524 -0.0481394 0
M  V30 2 C 2.78431 -0.041778 0.265908 0
M  V30 3 O 2.49036 0.277808 1.44223 0
M  V30 4 C 1.72842 -0.282034 -0.710948 0
M  V30 5 C 0.362998 -0.107996 -0.157764 0
M  V30 6 N -0.29477 1.0651 -0.172543 0
M  V30 7 C -1.55209 1.19968 0.343465 0
M  V30 8 N -2.21764 2.45386 0.311166 0
M  V30 9 N -2.10298 0.0940411 0.87027 0
M  V30 10 C -1.4998 -1.10607 0.915934 0
M  V30 11 N -0.254557 -1.17197 0.387481 0
M  V30 12 N -2.13543 -2.24124 1.4875 0
M  V30 13 H 4.55836 0.403511 -0.764738 0
M  V30 14 H 1.76572 -1.31594 -1.14451 0
M  V30 15 H 1.85392 0.402053 -1.59094 0
M  V30 16 H -3.0601 2.64138 -0.266328 0
M  V30 17 H -1.84081 3.22364 0.896658 0
M  V30 18 H -3.09974 -2.5419 1.23951 0
M  V30 19 H -1.61203 -2.80062 2.18891 0
M  V30 END ATOM
M  V30 BEGIN BOND
M  V30 1 1 1 2
M  V30 2 2 2 3
M  V30 3 1 2 4
M  V30 4 1 4 5
M  V30 5 2 5 6
M  V30 6 1 6 7
M  V30 7 1 7 8
M  V30 8 2 7 9
M  V30 9 1 9 10
M  V30 10 2 10 11
M  V30 11 1 10 12
M  V30 12 1 11 5
M  V30 13 1 1 13
M  V30 14 1 4 14
M  V30 15 1 4 15
M  V30 16 1 8 16
M  V30 17 1 8 17
M  V30 18 1 12 18
M  V30 19 1 12 19
M  V30 END BOND
M  V30 END CTAB
M  END
