
     RDKit          3D

  0  0  0  0  0  0  0  0  0  0999 V3000
M  V30 BEGIN CTAB
M  V30 COUNTS 17 16 0 0 0
M  V30 BEGIN ATOM
M  V30 1 N -2.73184 -0.870278 -1.49498 0
M  V30 2 N -2.40403 -0.871946 -0.149924 0
M  V30 3 C -1.37892 -0.214375 0.282323 0
M  V30 4 S -0.406686 0.687203 -0.889709 0
M  V30 5 C 1.02902 1.45854 -0.189465 0
M  V30 6 C 2.16354 0.616372 0.161703 0
M  V30 7 C 2.34598 -0.647537 -0.0362401 0
M  V30 8 Cl 1.24257 -1.75881 -0.81946 0
M  V30 9 Cl 3.87621 -1.38824 0.533744 0
M  V30 10 N -1.10986 -0.265363 1.6762 0
M  V30 11 H -2.5117 -0.052766 -2.07541 0
M  V30 12 H -3.19604 -1.69276 -1.90496 0
M  V30 13 H 1.41303 2.27209 -0.875767 0
M  V30 14 H 0.69815 2.04607 0.713807 0
M  V30 15 H 2.99378 1.16297 0.681353 0
M  V30 16 H -0.974459 -1.13747 2.22071 0
M  V30 17 H -1.04874 0.656317 2.16609 0
M  V30 END ATOM
M  V30 BEGIN BOND
M  V30 1 1 1 2
M  V30 2 2 2 3
M  V30 3 1 3 4
M  V30 4 1 4 5
M  V30 5 1 5 6
M  V30 6 2 6 7 CFG=2
M  V30 7 1 7 8
M  V30 8 1 7 9
M  V30 9 1 3 10
M  V30 10 1 1 11
M  V30 11 1 1 12
M  V30 12 1 5 13
M  V30 13 1 5 14
M  V30 14 1 6 15
M  V30 15 1 10 16
M  V30 16 1 10 17
M  V30 END BOND
M  V30 END CTAB
M  END
