
     RDKit          3D

  0  0  0  0  0  0  0  0  0  0999 V3000
M  V30 BEGIN CTAB
M  V30 COUNTS 30 30 0 0 0
M  V30 BEGIN ATOM
M  V30 1 N 3.01223 -0.546887 1.06168 0
M  V30 2 C 2.61973 -0.883648 -0.238357 0
M  V30 3 C 1.16251 -1.17287 -0.411991 0
M  V30 4 C 0.287318 0.00329791 -0.0416561 0 CFG=1
M  V30 5 C 0.698107 1.15487 -0.97027 0
M  V30 6 C -0.19829 2.31981 -0.902943 0
M  V30 7 C -1.56367 2.12759 -0.401806 0
M  V30 8 C -1.84185 0.837478 0.298075 0
M  V30 9 N -1.08892 -0.212889 -0.30018 0
M  V30 10 S -1.72675 -1.72249 0.0379737 0
M  V30 11 O -3.22237 -1.67206 -0.262462 0
M  V30 12 O -1.17838 -2.84791 -0.7551 0
M  V30 13 N -1.61651 -2.15578 1.71913 0
M  V30 14 H 3.98479 -0.550046 1.23665 0
M  V30 15 H 2.35699 -0.24775 1.68731 0
M  V30 16 H 3.16612 -1.82947 -0.506336 0
M  V30 17 H 2.98754 -0.138554 -1.00331 0
M  V30 18 H 0.991643 -1.38239 -1.48817 0
M  V30 19 H 0.929923 -2.05514 0.237634 0
M  V30 20 H 0.521432 0.30845 0.99383 0
M  V30 21 H 1.74727 1.46361 -0.768077 0
M  V30 22 H 0.715857 0.689876 -1.98997 0
M  V30 23 H -0.246903 2.78725 -1.93162 0
M  V30 24 H 0.298701 3.12272 -0.281841 0
M  V30 25 H -1.87039 2.95164 0.309301 0
M  V30 26 H -2.32279 2.21199 -1.23574 0
M  V30 27 H -1.67684 0.915954 1.40096 0
M  V30 28 H -2.93049 0.567228 0.193803 0
M  V30 29 H -1.53988 -1.30639 2.31026 0
M  V30 30 H -2.45614 -2.7375 2.00321 0
M  V30 END ATOM
M  V30 BEGIN BOND
M  V30 1 1 1 2
M  V30 2 1 2 3
M  V30 3 1 3 4
M  V30 4 1 4 5
M  V30 5 1 5 6
M  V30 6 1 6 7
M  V30 7 1 7 8
M  V30 8 1 8 9
M  V30 9 1 9 10
M  V30 10 2 10 11
M  V30 11 2 10 12
M  V30 12 1 10 13
M  V30 13 1 9 4
M  V30 14 1 1 14
M  V30 15 1 1 15
M  V30 16 1 2 16
M  V30 17 1 2 17
M  V30 18 1 3 18
M  V30 19 1 3 19
M  V30 20 1 4 20 CFG=1
M  V30 21 1 5 21
M  V30 22 1 5 22
M  V30 23 1 6 23
M  V30 24 1 6 24
M  V30 25 1 7 25
M  V30 26 1 7 26
M  V30 27 1 8 27
M  V30 28 1 8 28
M  V30 29 1 13 29
M  V30 30 1 13 30
M  V30 END BOND
M  V30 END CTAB
M  END
