
     RDKit          3D

  0  0  0  0  0  0  0  0  0  0999 V3000
M  V30 BEGIN CTAB
M  V30 COUNTS 26 26 0 0 0
M  V30 BEGIN ATOM
M  V30 1 C -2.81258 1.89923 -0.267142 0
M  V30 2 C -2.23095 0.534186 -0.292016 0
M  V30 3 C -2.92559 -0.487553 -0.899625 0
M  V30 4 C -2.38959 -1.75061 -0.919389 0
M  V30 5 C -1.16292 -1.99899 -0.335491 0
M  V30 6 C -0.440101 -0.982638 0.286056 0
M  V30 7 C -1.00459 0.267164 0.287591 0
M  V30 8 N -0.328084 1.34803 0.893845 0
M  V30 9 S 1.12677 -1.33505 1.03191 0
M  V30 10 C 2.51312 -1.16596 -0.0807816 0
M  V30 11 C 2.7537 0.277225 -0.525883 0
M  V30 12 N 3.88705 0.349743 -1.42655 0
M  V30 13 H -3.9177 1.81424 -0.343685 0
M  V30 14 H -2.41011 2.4315 -1.15554 0
M  V30 15 H -2.53679 2.36904 0.69708 0
M  V30 16 H -3.88644 -0.234855 -1.34255 0
M  V30 17 H -2.97095 -2.51673 -1.40798 0
M  V30 18 H -0.769468 -2.98712 -0.364224 0
M  V30 19 H -0.0599748 1.25058 1.89699 0
M  V30 20 H -0.11898 2.2076 0.318647 0
M  V30 21 H 3.43519 -1.48587 0.44767 0
M  V30 22 H 2.42066 -1.81827 -0.9757 0
M  V30 23 H 3.01215 0.896695 0.355499 0
M  V30 24 H 1.87844 0.608157 -1.08083 0
M  V30 25 H 4.37602 -0.572902 -1.41667 0
M  V30 26 H 4.56172 1.08313 -1.16682 0
M  V30 END ATOM
M  V30 BEGIN BOND
M  V30 1 1 1 2
M  V30 2 2 2 3
M  V30 3 1 3 4
M  V30 4 2 4 5
M  V30 5 1 5 6
M  V30 6 2 6 7
M  V30 7 1 7 8
M  V30 8 1 6 9
M  V30 9 1 9 10
M  V30 10 1 10 11
M  V30 11 1 11 12
M  V30 12 1 7 2
M  V30 13 1 1 13
M  V30 14 1 1 14
M  V30 15 1 1 15
M  V30 16 1 3 16
M  V30 17 1 4 17
M  V30 18 1 5 18
M  V30 19 1 8 19
M  V30 20 1 8 20
M  V30 21 1 10 21
M  V30 22 1 10 22
M  V30 23 1 11 23
M  V30 24 1 11 24
M  V30 25 1 12 25
M  V30 26 1 12 26
M  V30 END BOND
M  V30 END CTAB
M  END
