
     RDKit          3D

  0  0  0  0  0  0  0  0  0  0999 V3000
M  V30 BEGIN CTAB
M  V30 COUNTS 36 37 0 0 0
M  V30 BEGIN ATOM
M  V30 1 O -1.34942 -2.67256 3.11588 0
M  V30 2 C -0.650031 -2.02457 2.0957 0
M  V30 3 N -1.38288 -0.986825 1.66624 0
M  V30 4 C -1.29522 0.0196356 0.731959 0
M  V30 5 O -0.313255 0.16282 -0.0295717 0
M  V30 6 C -2.35264 1.0459 0.522874 0
M  V30 7 C -3.49797 1.06213 1.2511 0
M  V30 8 C -4.48357 2.04994 1.02887 0
M  V30 9 C -4.31729 3.0108 0.0835197 0
M  V30 10 C -3.16 2.99954 -0.656783 0
M  V30 11 C -2.18644 2.03591 -0.447829 0
M  V30 12 N -1.00102 2.05305 -1.23105 0
M  V30 13 N 0.530582 -2.6768 1.89767 0
M  V30 14 C 1.69016 -2.6939 1.1584 0
M  V30 15 O 2.55773 -3.68846 1.46549 0
M  V30 16 C 2.25504 -1.90364 0.0984543 0
M  V30 17 C 3.06191 -0.840012 0.442184 0
M  V30 18 C 3.63751 -0.0872515 -0.553701 0
M  V30 19 C 3.44944 -0.341165 -1.87542 0
M  V30 20 C 2.63942 -1.40892 -2.21715 0
M  V30 21 C 2.04256 -2.1898 -1.24932 0
M  V30 22 N 4.07231 0.473841 -2.86557 0
M  V30 23 H -2.36371 -0.901493 2.22879 0
M  V30 24 H -3.71113 0.343509 2.01568 0
M  V30 25 H -5.38222 2.02522 1.6329 0
M  V30 26 H -5.06284 3.76359 -0.0894328 0
M  V30 27 H -2.96927 3.7489 -1.43361 0
M  V30 28 H -0.168045 2.55097 -0.869299 0
M  V30 29 H -0.935751 1.58585 -2.15302 0
M  V30 30 H 0.628203 -3.59264 2.63426 0
M  V30 31 H 3.25127 -0.585746 1.48811 0
M  V30 32 H 4.27861 0.757723 -0.299809 0
M  V30 33 H 2.47664 -1.62819 -3.26151 0
M  V30 34 H 1.40324 -3.03244 -1.49677 0
M  V30 35 H 3.54491 0.814441 -3.7025 0
M  V30 36 H 5.0632 0.750632 -2.7832 0
M  V30 END ATOM
M  V30 BEGIN BOND
M  V30 1 2 1 2
M  V30 2 1 2 3
M  V30 3 1 3 4
M  V30 4 2 4 5
M  V30 5 1 4 6
M  V30 6 2 6 7
M  V30 7 1 7 8
M  V30 8 2 8 9
M  V30 9 1 9 10
M  V30 10 2 10 11
M  V30 11 1 11 12
M  V30 12 1 2 13
M  V30 13 1 13 14
M  V30 14 2 14 15
M  V30 15 1 14 16
M  V30 16 2 16 17
M  V30 17 1 17 18
M  V30 18 2 18 19
M  V30 19 1 19 20
M  V30 20 2 20 21
M  V30 21 1 19 22
M  V30 22 1 11 6
M  V30 23 1 21 16
M  V30 24 1 3 23
M  V30 25 1 7 24
M  V30 26 1 8 25
M  V30 27 1 9 26
M  V30 28 1 10 27
M  V30 29 1 12 28
M  V30 30 1 12 29
M  V30 31 1 13 30
M  V30 32 1 17 31
M  V30 33 1 18 32
M  V30 34 1 20 33
M  V30 35 1 21 34
M  V30 36 1 22 35
M  V30 37 1 22 36
M  V30 END BOND
M  V30 END CTAB
M  END
