
     RDKit          3D

  0  0  0  0  0  0  0  0  0  0999 V3000
M  V30 BEGIN CTAB
M  V30 COUNTS 29 30 0 0 0
M  V30 BEGIN ATOM
M  V30 1 N -5.08567 1.31892 0.112918 0
M  V30 2 C -3.68287 1.09109 0.0588789 0
M  V30 3 N -2.78348 2.09166 0.0979766 0
M  V30 4 C -1.45951 1.866 0.0462809 0
M  V30 5 C -1.03518 0.570054 -0.0489928 0
M  V30 6 N -1.93833 -0.441836 -0.088713 0
M  V30 7 C -3.26754 -0.223288 -0.0373262 0
M  V30 8 N -4.19746 -1.3052 -0.0808172 0
M  V30 9 O 0.299527 0.279223 -0.105188 0
M  V30 10 C 0.814235 -1.03414 -0.204105 0
M  V30 11 C 2.31492 -1.0246 -0.245641 0
M  V30 12 C 2.88997 -0.399705 1.01783 0
M  V30 13 C 4.3147 -0.173861 0.499774 0
M  V30 14 C 3.97691 0.326239 -0.89347 0
M  V30 15 O 2.84056 -0.327861 -1.30076 0
M  V30 16 H -5.72458 0.810362 0.762718 0
M  V30 17 H -5.5521 2.03256 -0.520397 0
M  V30 18 H -0.722723 2.64686 0.0758142 0
M  V30 19 H -3.96207 -2.20721 -0.547852 0
M  V30 20 H -5.1161 -1.19389 0.35599 0
M  V30 21 H 0.503216 -1.67816 0.631035 0
M  V30 22 H 0.44548 -1.486 -1.14396 0
M  V30 23 H 2.68433 -2.07052 -0.262348 0
M  V30 24 H 2.37122 0.547189 1.16844 0
M  V30 25 H 2.87256 -1.08176 1.86974 0
M  V30 26 H 4.86167 0.551077 1.09903 0
M  V30 27 H 4.78555 -1.15354 0.395214 0
M  V30 28 H 4.82093 0.249092 -1.59151 0
M  V30 29 H 3.73183 1.42122 -0.761583 0
M  V30 END ATOM
M  V30 BEGIN BOND
M  V30 1 1 1 2
M  V30 2 2 2 3
M  V30 3 1 3 4
M  V30 4 2 4 5
M  V30 5 1 5 6
M  V30 6 2 6 7
M  V30 7 1 7 8
M  V30 8 1 5 9
M  V30 9 1 9 10
M  V30 10 1 10 11
M  V30 11 1 11 12
M  V30 12 1 12 13
M  V30 13 1 13 14
M  V30 14 1 14 15
M  V30 15 1 7 2
M  V30 16 1 15 11
M  V30 17 1 1 16
M  V30 18 1 1 17
M  V30 19 1 4 18
M  V30 20 1 8 19
M  V30 21 1 8 20
M  V30 22 1 10 21
M  V30 23 1 10 22
M  V30 24 1 11 23
M  V30 25 1 12 24
M  V30 26 1 12 25
M  V30 27 1 13 26
M  V30 28 1 13 27
M  V30 29 1 14 28
M  V30 30 1 14 29
M  V30 END BOND
M  V30 END CTAB
M  END
