
     RDKit          3D

  0  0  0  0  0  0  0  0  0  0999 V3000
M  V30 BEGIN CTAB
M  V30 COUNTS 31 31 0 0 0
M  V30 BEGIN ATOM
M  V30 1 C -2.25922 1.72872 -0.97784 0
M  V30 2 C -1.41103 1.40903 0.207416 0
M  V30 3 N -0.72227 0.126713 0.101229 0
M  V30 4 C 0.691234 0.148169 -0.0887262 0
M  V30 5 C 1.50597 0.452678 1.0111 0
M  V30 6 C 2.87323 0.477303 0.889975 0
M  V30 7 N 3.71764 0.782836 2.0132 0
M  V30 8 N 3.40984 0.200741 -0.309955 0
M  V30 9 C 2.616 -0.0878616 -1.34416 0
M  V30 10 N 1.25997 -0.122449 -1.27112 0
M  V30 11 N 3.21483 -0.396223 -2.62607 0
M  V30 12 C -1.36569 -1.14601 0.174805 0
M  V30 13 C -2.57691 -1.30219 -0.708574 0
M  V30 14 C -1.74279 -1.54485 1.58705 0
M  V30 15 H -1.79635 1.33288 -1.92659 0
M  V30 16 H -2.35462 2.85409 -1.09507 0
M  V30 17 H -3.30119 1.37791 -0.879425 0
M  V30 18 H -2.075 1.41586 1.12338 0
M  V30 19 H -0.696001 2.21706 0.373152 0
M  V30 20 H 1.08622 0.662743 1.98032 0
M  V30 21 H 3.7515 0.131639 2.84248 0
M  V30 22 H 4.30655 1.64459 2.02578 0
M  V30 23 H 3.40341 -1.41571 -2.76882 0
M  V30 24 H 3.41361 0.373235 -3.27308 0
M  V30 25 H -0.639763 -1.95067 -0.195037 0
M  V30 26 H -3.50845 -0.900569 -0.208933 0
M  V30 27 H -2.78502 -2.41691 -0.740133 0
M  V30 28 H -2.44566 -0.950279 -1.73283 0
M  V30 29 H -0.91578 -1.41368 2.31941 0
M  V30 30 H -2.69286 -1.03531 1.91616 0
M  V30 31 H -1.96143 -2.65349 1.58092 0
M  V30 END ATOM
M  V30 BEGIN BOND
M  V30 1 1 1 2
M  V30 2 1 2 3
M  V30 3 1 3 4
M  V30 4 2 4 5
M  V30 5 1 5 6
M  V30 6 1 6 7
M  V30 7 2 6 8
M  V30 8 1 8 9
M  V30 9 2 9 10
M  V30 10 1 9 11
M  V30 11 1 3 12
M  V30 12 1 12 13
M  V30 13 1 12 14
M  V30 14 1 10 4
M  V30 15 1 1 15
M  V30 16 1 1 16
M  V30 17 1 1 17
M  V30 18 1 2 18
M  V30 19 1 2 19
M  V30 20 1 5 20
M  V30 21 1 7 21
M  V30 22 1 7 22
M  V30 23 1 11 23
M  V30 24 1 11 24
M  V30 25 1 12 25
M  V30 26 1 13 26
M  V30 27 1 13 27
M  V30 28 1 13 28
M  V30 29 1 14 29
M  V30 30 1 14 30
M  V30 31 1 14 31
M  V30 END BOND
M  V30 END CTAB
M  END
