
     RDKit          3D

  0  0  0  0  0  0  0  0  0  0999 V3000
M  V30 BEGIN CTAB
M  V30 COUNTS 26 27 0 0 0
M  V30 BEGIN ATOM
M  V30 1 N -3.43665 -1.02215 1.22302 0
M  V30 2 C -2.78883 -0.970596 -0.0307313 0
M  V30 3 S -3.59597 -1.03217 -1.45019 0
M  V30 4 C -1.31637 -0.855872 -0.127323 0
M  V30 5 C -0.561098 -2.00824 -0.238567 0
M  V30 6 C 0.792364 -1.89927 -0.327173 0
M  V30 7 C 1.44839 -0.680892 -0.310747 0
M  V30 8 C 0.656533 0.449203 -0.198092 0
M  V30 9 C -0.701825 0.369326 -0.107663 0
M  V30 10 C -1.53291 1.47845 0.00664072 0
M  V30 11 C -0.912309 2.70939 0.0261596 0
M  V30 12 C 0.456474 2.81754 -0.0635563 0
M  V30 13 C 1.26268 1.70995 -0.176051 0
M  V30 14 C 2.89445 -0.585231 -0.406474 0
M  V30 15 S 3.6094 -0.0465614 -1.76888 0
M  V30 16 N 3.67888 -0.964481 0.69545 0
M  V30 17 H -3.50406 -1.89565 1.78471 0
M  V30 18 H -3.86414 -0.163351 1.60691 0
M  V30 19 H -1.07184 -2.97406 -0.252247 0
M  V30 20 H 1.39467 -2.81156 -0.415547 0
M  V30 21 H -2.61459 1.38175 0.0769763 0
M  V30 22 H -1.51939 3.60167 0.113833 0
M  V30 23 H 0.960433 3.78976 -0.0491289 0
M  V30 24 H 2.33406 1.81099 -0.24542 0
M  V30 25 H 4.27362 -1.80007 0.635476 0
M  V30 26 H 3.65804 -0.407887 1.5591 0
M  V30 END ATOM
M  V30 BEGIN BOND
M  V30 1 1 1 2
M  V30 2 2 2 3
M  V30 3 1 2 4
M  V30 4 2 4 5
M  V30 5 1 5 6
M  V30 6 2 6 7
M  V30 7 1 7 8
M  V30 8 2 8 9
M  V30 9 1 9 10
M  V30 10 2 10 11
M  V30 11 1 11 12
M  V30 12 2 12 13
M  V30 13 1 7 14
M  V30 14 2 14 15
M  V30 15 1 14 16
M  V30 16 1 9 4
M  V30 17 1 13 8
M  V30 18 1 1 17
M  V30 19 1 1 18
M  V30 20 1 5 19
M  V30 21 1 6 20
M  V30 22 1 10 21
M  V30 23 1 11 22
M  V30 24 1 12 23
M  V30 25 1 13 24
M  V30 26 1 16 25
M  V30 27 1 16 26
M  V30 END BOND
M  V30 END CTAB
M  END
