
     RDKit          3D

  0  0  0  0  0  0  0  0  0  0999 V3000
M  V30 BEGIN CTAB
M  V30 COUNTS 30 31 0 0 0
M  V30 BEGIN ATOM
M  V30 1 N -2.17073 3.91032 -0.286187 0
M  V30 2 C -2.32598 2.76217 -0.269656 0
M  V30 3 C -2.50421 1.35576 -0.227985 0
M  V30 4 C -1.39256 0.540155 -0.121164 0
M  V30 5 N -0.116329 1.10354 -0.0378058 0
M  V30 6 C 1.13697 0.454444 0.0566287 0
M  V30 7 C 2.2533 1.18889 0.497575 0
M  V30 8 C 3.50493 0.631593 0.597799 0
M  V30 9 C 3.74148 -0.684278 0.2712 0
M  V30 10 C 2.6675 -1.4208 -0.161905 0
M  V30 11 C 1.38623 -0.855413 -0.266289 0
M  V30 12 C 5.09176 -1.30207 0.375283 0
M  V30 13 N -1.65005 -0.775135 -0.0887467 0
M  V30 14 C -2.88702 -1.28328 -0.1538 0
M  V30 15 N -3.93919 -0.47754 -0.256174 0
M  V30 16 C -3.80222 0.867278 -0.297943 0
M  V30 17 N -4.92401 1.72725 -0.407135 0
M  V30 18 N -3.08233 -2.68271 -0.113945 0
M  V30 19 H -0.0940762 2.1781 -0.0525105 0
M  V30 20 H 2.05434 2.22833 0.754686 0
M  V30 21 H 4.3441 1.24551 0.946888 0
M  V30 22 H 2.81506 -2.45946 -0.427857 0
M  V30 23 H 0.578845 -1.4864 -0.627945 0
M  V30 24 H 5.85419 -0.49716 0.342613 0
M  V30 25 H 5.26924 -2.06279 -0.402887 0
M  V30 26 H 5.21308 -1.78686 1.38673 0
M  V30 27 H -5.61406 1.7311 0.368857 0
M  V30 28 H -5.08483 2.34455 -1.21596 0
M  V30 29 H -3.09587 -3.2956 -0.975154 0
M  V30 30 H -3.22755 -3.1995 0.792782 0
M  V30 END ATOM
M  V30 BEGIN BOND
M  V30 1 3 1 2
M  V30 2 1 2 3
M  V30 3 2 3 4
M  V30 4 1 4 5
M  V30 5 1 5 6
M  V30 6 2 6 7
M  V30 7 1 7 8
M  V30 8 2 8 9
M  V30 9 1 9 10
M  V30 10 2 10 11
M  V30 11 1 9 12
M  V30 12 1 4 13
M  V30 13 2 13 14
M  V30 14 1 14 15
M  V30 15 2 15 16
M  V30 16 1 16 17
M  V30 17 1 14 18
M  V30 18 1 16 3
M  V30 19 1 11 6
M  V30 20 1 5 19
M  V30 21 1 7 20
M  V30 22 1 8 21
M  V30 23 1 10 22
M  V30 24 1 11 23
M  V30 25 1 12 24
M  V30 26 1 12 25
M  V30 27 1 12 26
M  V30 28 1 17 27
M  V30 29 1 17 28
M  V30 30 1 18 29
M  V30 31 1 18 30
M  V30 END BOND
M  V30 END CTAB
M  END
