
     RDKit          3D

  0  0  0  0  0  0  0  0  0  0999 V3000
M  V30 BEGIN CTAB
M  V30 COUNTS 59 63 0 0 0
M  V30 BEGIN ATOM
M  V30 1 Cl 9.87569 1.42768 -1.70351 0
M  V30 2 C 8.37586 0.788555 -1.09748 0
M  V30 3 C 7.3007 0.692949 -1.9437 0
M  V30 4 C 6.06088 0.190731 -1.53348 0
M  V30 5 C 5.91265 -0.217523 -0.248433 0
M  V30 6 C 6.97902 -0.134487 0.628848 0
M  V30 7 C 8.17752 0.361572 0.193379 0
M  V30 8 C 4.68094 -0.701046 0.291995 0
M  V30 9 O 4.7346 -1.53598 1.22994 0
M  V30 10 C 3.36358 -0.241729 -0.216798 0
M  V30 11 S 3.03386 0.926369 -1.3873 0
M  V30 12 C 1.3043 0.876072 -1.30339 0
M  V30 13 C 1.04025 -0.0504109 -0.369234 0
M  V30 14 C 2.1431 -0.652183 0.216314 0
M  V30 15 N 2.10191 -1.67883 1.25687 0
M  V30 16 C -0.417224 -0.374909 -0.0330965 0
M  V30 17 C -0.612653 -0.360209 1.42635 0
M  V30 18 C -0.950923 -1.50179 2.23676 0
M  V30 19 C -1.18983 -2.8466 1.63899 0
M  V30 20 C -1.25536 -2.82956 0.14693 0
M  V30 21 C -0.562223 -1.77792 -0.566892 0
M  V30 22 C -1.34186 0.542966 -0.754648 0
M  V30 23 C -1.01805 1.43102 -1.62465 0
M  V30 24 N 0.343845 1.66966 -1.98727 0
M  V30 25 N -1.94387 2.20633 -2.40875 0
M  V30 26 C -2.75524 0.547588 -0.239684 0
M  V30 27 O -3.16902 -0.363393 0.513905 0
M  V30 28 N -3.72066 1.52064 -0.510753 0
M  V30 29 C -5.06637 1.39174 0.0461729 0
M  V30 30 C -5.73623 2.56542 0.412629 0
M  V30 31 C -7.01235 2.55852 0.905766 0
M  V30 32 C -7.67751 1.36403 1.05439 0
M  V30 33 C -7.02948 0.209006 0.698105 0
M  V30 34 C -5.72669 0.21473 0.193382 0
M  V30 35 H 7.37786 1.01102 -2.98425 0
M  V30 36 H 5.25614 0.123982 -2.28725 0
M  V30 37 H 6.86643 -0.466145 1.67937 0
M  V30 38 H 9.03103 0.432581 0.878109 0
M  V30 39 H 2.01088 -2.64825 0.918191 0
M  V30 40 H 2.1701 -1.41267 2.27498 0
M  V30 41 H -1.30267 0.540239 1.64806 0
M  V30 42 H 0.365838 0.0809153 1.8572 0
M  V30 43 H -1.89099 -1.25821 2.84451 0
M  V30 44 H -0.223328 -1.65976 3.10337 0
M  V30 45 H -0.366141 -3.5412 1.92335 0
M  V30 46 H -2.11722 -3.30993 2.02524 0
M  V30 47 H -2.31989 -2.91562 -0.237461 0
M  V30 48 H -0.831493 -3.82533 -0.253806 0
M  V30 49 H 0.491895 -2.15121 -0.785619 0
M  V30 50 H -0.973866 -1.72667 -1.63558 0
M  V30 51 H 0.640418 2.35786 -2.68765 0
M  V30 52 H -2.60897 1.71808 -3.01594 0
M  V30 53 H -1.91185 3.23074 -2.35753 0
M  V30 54 H -3.62084 2.39672 -1.0561 0
M  V30 55 H -5.20454 3.5126 0.292886 0
M  V30 56 H -7.52299 3.47151 1.1855 0
M  V30 57 H -8.69033 1.30191 1.44045 0
M  V30 58 H -7.53884 -0.748906 0.80791 0
M  V30 59 H -5.32982 -0.733276 -0.069469 0
M  V30 END ATOM
M  V30 BEGIN BOND
M  V30 1 1 1 2
M  V30 2 2 2 3
M  V30 3 1 3 4
M  V30 4 2 4 5
M  V30 5 1 5 6
M  V30 6 2 6 7
M  V30 7 1 5 8
M  V30 8 2 8 9
M  V30 9 1 8 10
M  V30 10 1 10 11
M  V30 11 1 11 12
M  V30 12 2 12 13
M  V30 13 1 13 14
M  V30 14 1 14 15
M  V30 15 1 13 16
M  V30 16 1 16 17
M  V30 17 1 17 18
M  V30 18 1 18 19
M  V30 19 1 19 20
M  V30 20 1 20 21
M  V30 21 1 16 22
M  V30 22 2 22 23
M  V30 23 1 23 24
M  V30 24 1 23 25
M  V30 25 1 22 26
M  V30 26 2 26 27
M  V30 27 1 26 28
M  V30 28 1 28 29
M  V30 29 2 29 30
M  V30 30 1 30 31
M  V30 31 2 31 32
M  V30 32 1 32 33
M  V30 33 2 33 34
M  V30 34 1 7 2
M  V30 35 2 14 10
M  V30 36 1 21 16
M  V30 37 1 34 29
M  V30 38 1 24 12
M  V30 39 1 3 35
M  V30 40 1 4 36
M  V30 41 1 6 37
M  V30 42 1 7 38
M  V30 43 1 15 39
M  V30 44 1 15 40
M  V30 45 1 17 41
M  V30 46 1 17 42
M  V30 47 1 18 43
M  V30 48 1 18 44
M  V30 49 1 19 45
M  V30 50 1 19 46
M  V30 51 1 20 47
M  V30 52 1 20 48
M  V30 53 1 21 49
M  V30 54 1 21 50
M  V30 55 1 24 51
M  V30 56 1 25 52
M  V30 57 1 25 53
M  V30 58 1 28 54
M  V30 59 1 30 55
M  V30 60 1 31 56
M  V30 61 1 32 57
M  V30 62 1 33 58
M  V30 63 1 34 59
M  V30 END BOND
M  V30 END CTAB
M  END
