
     RDKit          3D

  0  0  0  0  0  0  0  0  0  0999 V3000
M  V30 BEGIN CTAB
M  V30 COUNTS 41 43 0 0 0
M  V30 BEGIN ATOM
M  V30 1 C -5.4872 -1.49776 -1.15912 0
M  V30 2 S -5.11598 0.0923263 -0.55514 0
M  V30 3 O -6.35608 0.54125 0.248539 0
M  V30 4 O -4.9671 1.13002 -1.63105 0
M  V30 5 C -3.79609 0.186058 0.573186 0
M  V30 6 C -3.96311 0.831486 1.81241 0
M  V30 7 C -2.9139 1.01462 2.67892 0
M  V30 8 C -1.69789 0.55766 2.31739 0
M  V30 9 Cl -0.350526 0.722068 3.42805 0
M  V30 10 C -1.44688 -0.102657 1.08325 0
M  V30 11 C -2.52411 -0.253575 0.276976 0
M  V30 12 N -0.0759806 -0.412675 0.870025 0
M  V30 13 N 0.557885 -1.15817 1.82927 0
M  V30 14 C 1.84778 -1.27575 1.5751 0
M  V30 15 C 2.1363 -0.609356 0.419729 0
M  V30 16 C 3.33244 -0.204637 -0.241144 0
M  V30 17 O 3.29292 1.08208 -0.603959 0
M  V30 18 N 4.52529 -0.777481 -0.617138 0
M  V30 19 C 5.71013 -0.485155 -0.229938 0
M  V30 20 N 5.98877 0.537417 0.707581 0
M  V30 21 N 6.80656 -1.13931 -0.84561 0
M  V30 22 C 0.823566 -0.0698138 -0.00308406 0
M  V30 23 C 0.833046 0.474053 -1.35154 0
M  V30 24 C 0.767805 1.69205 -2.11238 0
M  V30 25 C -0.531296 1.25657 -1.59747 0
M  V30 26 H -5.15631 -2.28028 -0.496143 0
M  V30 27 H -6.6126 -1.62809 -1.29076 0
M  V30 28 H -5.07252 -1.59144 -2.20849 0
M  V30 29 H -4.93243 1.22633 2.09877 0
M  V30 30 H -3.12016 1.53921 3.62063 0
M  V30 31 H -2.40523 -0.788022 -0.666588 0
M  V30 32 H 2.59252 -1.81204 2.18068 0
M  V30 33 H 6.52318 0.282782 1.58495 0
M  V30 34 H 5.71419 1.53344 0.622477 0
M  V30 35 H 7.22542 -0.837203 -1.7452 0
M  V30 36 H 7.22536 -1.99803 -0.387155 0
M  V30 37 H 0.760364 -0.466893 -2.11253 0
M  V30 38 H 1.20912 2.67358 -1.8587 0
M  V30 39 H 0.837728 1.57817 -3.26082 0
M  V30 40 H -1.28858 0.769792 -2.22152 0
M  V30 41 H -0.896399 1.86414 -0.732462 0
M  V30 END ATOM
M  V30 BEGIN BOND
M  V30 1 1 1 2
M  V30 2 2 2 3
M  V30 3 2 2 4
M  V30 4 1 2 5
M  V30 5 2 5 6
M  V30 6 1 6 7
M  V30 7 2 7 8
M  V30 8 1 8 9
M  V30 9 1 8 10
M  V30 10 2 10 11
M  V30 11 1 10 12
M  V30 12 1 12 13
M  V30 13 2 13 14
M  V30 14 1 14 15
M  V30 15 1 15 16
M  V30 16 2 16 17
M  V30 17 1 16 18
M  V30 18 2 18 19
M  V30 19 1 19 20
M  V30 20 1 19 21
M  V30 21 2 15 22
M  V30 22 1 22 23
M  V30 23 1 23 24
M  V30 24 1 24 25
M  V30 25 1 11 5
M  V30 26 1 22 12
M  V30 27 1 25 23
M  V30 28 1 1 26
M  V30 29 1 1 27
M  V30 30 1 1 28
M  V30 31 1 6 29
M  V30 32 1 7 30
M  V30 33 1 11 31
M  V30 34 1 14 32
M  V30 35 1 20 33
M  V30 36 1 20 34
M  V30 37 1 21 35
M  V30 38 1 21 36
M  V30 39 1 23 37
M  V30 40 1 24 38
M  V30 41 1 24 39
M  V30 42 1 25 40
M  V30 43 1 25 41
M  V30 END BOND
M  V30 END CTAB
M  END
