
     RDKit          3D

  0  0  0  0  0  0  0  0  0  0999 V3000
M  V30 BEGIN CTAB
M  V30 COUNTS 37 39 0 0 0
M  V30 BEGIN ATOM
M  V30 1 N -0.389025 -2.52319 0.864529 0
M  V30 2 C 0.20388 -1.43131 0.154633 0
M  V30 3 N 1.47507 -1.06013 0.0470946 0
M  V30 4 N 1.54308 0.0113366 -0.715481 0
M  V30 5 C 2.75434 0.689096 -1.04771 0
M  V30 6 O 2.6443 1.71872 -1.79169 0
M  V30 7 C 4.03945 0.238543 -0.567483 0
M  V30 8 C 4.36095 -1.07874 -0.423513 0
M  V30 9 C 5.62225 -1.41897 0.0574172 0
M  V30 10 C 6.52141 -0.434082 0.378221 0
M  V30 11 C 6.18449 0.89092 0.227612 0
M  V30 12 C 4.95471 1.24751 -0.241335 0
M  V30 13 C 0.298404 0.362151 -1.12408 0
M  V30 14 N -0.0663206 1.45739 -1.95613 0
M  V30 15 C -0.610524 -0.551521 -0.580854 0
M  V30 16 N -1.94141 -0.549918 -0.747188 0
M  V30 17 N -3.0613 -0.566095 -0.911586 0
M  V30 18 C -4.22329 -0.023649 -0.302532 0
M  V30 19 C -4.19735 0.728776 0.845815 0
M  V30 20 C -5.37362 1.23875 1.40908 0
M  V30 21 C -6.60062 0.989198 0.809186 0
M  V30 22 C -6.62932 0.231998 -0.346694 0
M  V30 23 C -5.44487 -0.263064 -0.886494 0
M  V30 24 H -0.383022 -2.61215 1.90039 0
M  V30 25 H -0.858911 -3.28262 0.316699 0
M  V30 26 H 3.71728 -1.90629 -0.661485 0
M  V30 27 H 5.9097 -2.4567 0.184229 0
M  V30 28 H 7.52407 -0.667638 0.759624 0
M  V30 29 H 6.9226 1.65342 0.49176 0
M  V30 30 H 4.69501 2.28973 -0.358844 0
M  V30 31 H -0.194835 2.41355 -1.51788 0
M  V30 32 H -0.208696 1.33543 -2.98649 0
M  V30 33 H -3.23363 0.930096 1.32318 0
M  V30 34 H -5.36681 1.83145 2.31043 0
M  V30 35 H -7.51352 1.37645 1.23417 0
M  V30 36 H -7.59743 0.052727 -0.793415 0
M  V30 37 H -5.47649 -0.861191 -1.80327 0
M  V30 END ATOM
M  V30 BEGIN BOND
M  V30 1 1 1 2
M  V30 2 2 2 3
M  V30 3 1 3 4
M  V30 4 1 4 5
M  V30 5 2 5 6
M  V30 6 1 5 7
M  V30 7 2 7 8
M  V30 8 1 8 9
M  V30 9 2 9 10
M  V30 10 1 10 11
M  V30 11 2 11 12
M  V30 12 1 4 13
M  V30 13 1 13 14
M  V30 14 2 13 15
M  V30 15 1 15 16
M  V30 16 2 16 17
M  V30 17 1 17 18
M  V30 18 2 18 19
M  V30 19 1 19 20
M  V30 20 2 20 21
M  V30 21 1 21 22
M  V30 22 2 22 23
M  V30 23 1 15 2
M  V30 24 1 23 18
M  V30 25 1 12 7
M  V30 26 1 1 24
M  V30 27 1 1 25
M  V30 28 1 8 26
M  V30 29 1 9 27
M  V30 30 1 10 28
M  V30 31 1 11 29
M  V30 32 1 12 30
M  V30 33 1 14 31
M  V30 34 1 14 32
M  V30 35 1 19 33
M  V30 36 1 20 34
M  V30 37 1 21 35
M  V30 38 1 22 36
M  V30 39 1 23 37
M  V30 END BOND
M  V30 END CTAB
M  END
