
     RDKit          3D

  0  0  0  0  0  0  0  0  0  0999 V3000
M  V30 BEGIN CTAB
M  V30 COUNTS 45 47 0 0 0
M  V30 BEGIN ATOM
M  V30 1 O 1.03249 -1.86594 -2.80719 0
M  V30 2 C 0.669352 -0.714204 -2.49237 0
M  V30 3 N -0.410949 -0.432649 -1.62319 0
M  V30 4 C -1.18011 -1.47833 -1.06948 0
M  V30 5 C -1.05734 -2.80363 -1.27976 0
M  V30 6 C -2.05235 -3.41208 -0.488497 0
M  V30 7 N -2.68112 -2.40287 0.120869 0
M  V30 8 N -2.20064 -1.23242 -0.189764 0
M  V30 9 C -2.65315 0.0276868 0.294678 0
M  V30 10 C -1.86272 0.780383 1.16277 0
M  V30 11 C -2.27475 1.99772 1.64754 0
M  V30 12 C -3.50067 2.533 1.2917 0
M  V30 13 C -4.29083 1.79763 0.434109 0
M  V30 14 C -3.87059 0.560766 -0.0559784 0
M  V30 15 C -3.92613 3.86757 1.83682 0
M  V30 16 C -2.28355 -4.85987 -0.408854 0
M  V30 17 C 1.43591 0.452809 -3.08389 0
M  V30 18 S 1.87727 1.66035 -1.84401 0
M  V30 19 C 3.04868 1.0652 -0.653245 0
M  V30 20 N 3.50006 -0.212226 -0.720399 0
M  V30 21 C 4.39266 -0.604505 0.208622 0
M  V30 22 N 4.88896 -1.95061 0.170375 0
M  V30 23 C 4.8337 0.26454 1.19495 0
M  V30 24 C 4.3471 1.56717 1.23116 0
M  V30 25 N 3.45735 1.93716 0.29577 0
M  V30 26 N 4.74706 2.52064 2.20179 0
M  V30 27 H -0.620773 0.583153 -1.42195 0
M  V30 28 H -0.386059 -3.40946 -1.89363 0
M  V30 29 H -0.909645 0.320531 1.41682 0
M  V30 30 H -1.62633 2.55293 2.32419 0
M  V30 31 H -5.25601 2.20566 0.151323 0
M  V30 32 H -4.52701 0.000136626 -0.740787 0
M  V30 33 H -4.68755 3.72605 2.65247 0
M  V30 34 H -3.01202 4.3627 2.21529 0
M  V30 35 H -4.38679 4.50082 1.05403 0
M  V30 36 H -2.48188 -5.33041 -1.39567 0
M  V30 37 H -3.18544 -5.07671 0.206714 0
M  V30 38 H -1.42935 -5.33555 0.111674 0
M  V30 39 H 2.25195 0.0393303 -3.67832 0
M  V30 40 H 0.755722 0.963759 -3.82143 0
M  V30 41 H 4.99785 -2.50021 -0.709207 0
M  V30 42 H 5.15808 -2.40991 1.07211 0
M  V30 43 H 5.54543 -0.0312806 1.94366 0
M  V30 44 H 4.2094 2.65152 3.08975 0
M  V30 45 H 5.60472 3.12364 2.0484 0
M  V30 END ATOM
M  V30 BEGIN BOND
M  V30 1 2 1 2
M  V30 2 1 2 3
M  V30 3 1 3 4
M  V30 4 2 4 5
M  V30 5 1 5 6
M  V30 6 2 6 7
M  V30 7 1 7 8
M  V30 8 1 8 9
M  V30 9 2 9 10
M  V30 10 1 10 11
M  V30 11 2 11 12
M  V30 12 1 12 13
M  V30 13 2 13 14
M  V30 14 1 12 15
M  V30 15 1 6 16
M  V30 16 1 2 17
M  V30 17 1 17 18
M  V30 18 1 18 19
M  V30 19 2 19 20
M  V30 20 1 20 21
M  V30 21 1 21 22
M  V30 22 2 21 23
M  V30 23 1 23 24
M  V30 24 2 24 25
M  V30 25 1 24 26
M  V30 26 1 8 4
M  V30 27 1 14 9
M  V30 28 1 25 19
M  V30 29 1 3 27
M  V30 30 1 5 28
M  V30 31 1 10 29
M  V30 32 1 11 30
M  V30 33 1 13 31
M  V30 34 1 14 32
M  V30 35 1 15 33
M  V30 36 1 15 34
M  V30 37 1 15 35
M  V30 38 1 16 36
M  V30 39 1 16 37
M  V30 40 1 16 38
M  V30 41 1 17 39
M  V30 42 1 17 40
M  V30 43 1 22 41
M  V30 44 1 22 42
M  V30 45 1 23 43
M  V30 46 1 26 44
M  V30 47 1 26 45
M  V30 END BOND
M  V30 END CTAB
M  END
