
     RDKit          3D

  0  0  0  0  0  0  0  0  0  0999 V3000
M  V30 BEGIN CTAB
M  V30 COUNTS 59 62 0 0 0
M  V30 BEGIN ATOM
M  V30 1 C -0.932948 -3.45881 1.70554 0
M  V30 2 C 0.391528 -2.80435 1.44766 0
M  V30 3 C 0.874962 -2.18082 2.72467 0
M  V30 4 C 0.329381 -1.81488 0.308867 0
M  V30 5 C -0.0905899 -2.52243 -0.95808 0
M  V30 6 C -0.69921 -0.788744 0.663651 0
M  V30 7 N -0.634522 0.147431 1.63557 0
M  V30 8 O -1.7068 0.853011 1.63618 0
M  V30 9 C -2.52948 0.435571 0.684911 0
M  V30 10 N -1.89762 -0.583885 0.0862 0
M  V30 11 N -3.81204 0.94677 0.3533 0
M  V30 12 C -3.98957 1.83792 -0.76446 0
M  V30 13 C -5.2974 1.69242 -1.4762 0
M  V30 14 C -6.44398 1.4341 -0.518767 0
M  V30 15 N -6.52851 2.51859 0.429543 0
M  V30 16 C -6.07599 0.179498 0.254954 0
M  V30 17 C -4.95419 0.557922 1.18851 0
M  V30 18 C 1.63204 -1.15566 0.0540293 0
M  V30 19 C 2.86333 -1.68466 0.345829 0
M  V30 20 C 4.04084 -0.996216 0.0905446 0
M  V30 21 C 4.04189 0.264408 -0.473842 0
M  V30 22 C 2.80765 0.801813 -0.770284 0
M  V30 23 C 1.6377 0.119688 -0.517518 0
M  V30 24 C 5.28816 0.973156 -0.734896 0
M  V30 25 C 6.40717 0.802338 0.0761681 0
M  V30 26 N 7.55327 1.45529 -0.146627 0
M  V30 27 C 7.64721 2.30953 -1.1852 0
M  V30 28 N 8.89144 3.00656 -1.41269 0
M  V30 29 N 6.58766 2.47794 -1.96251 0
M  V30 30 C 5.41657 1.8446 -1.77694 0
M  V30 31 H -1.79589 -2.80926 1.42767 0
M  V30 32 H -0.98127 -4.41977 1.1429 0
M  V30 33 H -0.977656 -3.71747 2.79584 0
M  V30 34 H 1.11382 -3.62919 1.18305 0
M  V30 35 H 0.0843102 -2.09154 3.50283 0
M  V30 36 H 1.39801 -1.20683 2.54444 0
M  V30 37 H 1.63921 -2.8441 3.17016 0
M  V30 38 H -1.08961 -2.99192 -0.836341 0
M  V30 39 H -0.0702329 -1.76544 -1.77464 0
M  V30 40 H 0.672188 -3.29674 -1.18723 0
M  V30 41 H -3.1864 1.64226 -1.52931 0
M  V30 42 H -3.86961 2.89536 -0.45525 0
M  V30 43 H -5.53311 2.67394 -1.97741 0
M  V30 44 H -5.29961 0.944397 -2.2837 0
M  V30 45 H -7.37063 1.29606 -1.11255 0
M  V30 46 H -7.06517 2.14947 1.25264 0
M  V30 47 H -6.9699 3.36323 0.0569811 0
M  V30 48 H -5.66306 -0.564708 -0.464084 0
M  V30 49 H -6.9559 -0.227485 0.79803 0
M  V30 50 H -4.65436 -0.310356 1.84164 0
M  V30 51 H -5.21263 1.36999 1.89155 0
M  V30 52 H 2.89596 -2.67207 0.791025 0
M  V30 53 H 5.01083 -1.45152 0.335484 0
M  V30 54 H 2.81573 1.78777 -1.21348 0
M  V30 55 H 0.678172 0.554641 -0.755405 0
M  V30 56 H 6.34905 0.121938 0.914674 0
M  V30 57 H 9.27016 3.01375 -2.36797 0
M  V30 58 H 9.3191 3.45572 -0.582861 0
M  V30 59 H 4.63056 2.06177 -2.46795 0
M  V30 END ATOM
M  V30 BEGIN BOND
M  V30 1 1 1 2
M  V30 2 1 2 3
M  V30 3 1 2 4
M  V30 4 1 4 5
M  V30 5 1 4 6
M  V30 6 2 6 7
M  V30 7 1 7 8
M  V30 8 1 8 9
M  V30 9 2 9 10
M  V30 10 1 9 11
M  V30 11 1 11 12
M  V30 12 1 12 13
M  V30 13 1 13 14
M  V30 14 1 14 15
M  V30 15 1 14 16
M  V30 16 1 16 17
M  V30 17 1 4 18
M  V30 18 2 18 19
M  V30 19 1 19 20
M  V30 20 2 20 21
M  V30 21 1 21 22
M  V30 22 2 22 23
M  V30 23 1 21 24
M  V30 24 2 24 25
M  V30 25 1 25 26
M  V30 26 2 26 27
M  V30 27 1 27 28
M  V30 28 1 27 29
M  V30 29 2 29 30
M  V30 30 1 10 6
M  V30 31 1 17 11
M  V30 32 1 23 18
M  V30 33 1 30 24
M  V30 34 1 1 31
M  V30 35 1 1 32
M  V30 36 1 1 33
M  V30 37 1 2 34
M  V30 38 1 3 35
M  V30 39 1 3 36
M  V30 40 1 3 37
M  V30 41 1 5 38
M  V30 42 1 5 39
M  V30 43 1 5 40
M  V30 44 1 12 41
M  V30 45 1 12 42
M  V30 46 1 13 43
M  V30 47 1 13 44
M  V30 48 1 14 45
M  V30 49 1 15 46
M  V30 50 1 15 47
M  V30 51 1 16 48
M  V30 52 1 16 49
M  V30 53 1 17 50
M  V30 54 1 17 51
M  V30 55 1 19 52
M  V30 56 1 20 53
M  V30 57 1 22 54
M  V30 58 1 23 55
M  V30 59 1 25 56
M  V30 60 1 28 57
M  V30 61 1 28 58
M  V30 62 1 30 59
M  V30 END BOND
M  V30 END CTAB
M  END
