
     RDKit          3D

  0  0  0  0  0  0  0  0  0  0999 V3000
M  V30 BEGIN CTAB
M  V30 COUNTS 21 20 0 0 0
M  V30 BEGIN ATOM
M  V30 1 N 1.15195 1.51674 -0.521428 0
M  V30 2 C 1.20766 0.114429 -0.491903 0
M  V30 3 C 2.47197 -0.551055 -0.851474 0
M  V30 4 C 3.5839 -0.124376 0.003318 0
M  V30 5 N 4.45695 0.189119 0.67479 0
M  V30 6 C 0.0954398 -0.583009 -0.114581 0
M  V30 7 C 0.297776 -1.9959 -0.135416 0
M  V30 8 N 0.433237 -3.15899 -0.144481 0
M  V30 9 C -1.05793 0.13186 0.306952 0
M  V30 10 N -2.04864 -1.31391 0.143503 0
M  V30 11 C -2.05298 0.748475 0.670621 0
M  V30 12 C -3.33971 0.302623 1.08472 0
M  V30 13 N -4.38942 -0.0872748 1.44094 0
M  V30 14 C -1.93349 2.23445 0.69299 0
M  V30 15 N -1.84801 3.38691 0.73223 0
M  V30 16 H 1.72586 2.08919 0.118657 0
M  V30 17 H 0.537175 2.01897 -1.19352 0
M  V30 18 H 2.33913 -1.64885 -0.799128 0
M  V30 19 H 2.71083 -0.257722 -1.89435 0
M  V30 20 H -2.38407 -1.31131 -0.740594 0
M  V30 21 H -1.95764 -1.70034 1.01815 0
M  V30 END ATOM
M  V30 BEGIN BOND
M  V30 1 1 1 2
M  V30 2 1 2 3
M  V30 3 1 3 4
M  V30 4 3 4 5
M  V30 5 2 2 6
M  V30 6 1 6 7
M  V30 7 3 7 8
M  V30 8 1 6 9
M  V30 9 1 9 10
M  V30 10 2 9 11
M  V30 11 1 11 12
M  V30 12 3 12 13
M  V30 13 1 11 14
M  V30 14 3 14 15
M  V30 15 1 1 16
M  V30 16 1 1 17
M  V30 17 1 3 18
M  V30 18 1 3 19
M  V30 19 1 10 20
M  V30 20 1 10 21
M  V30 END BOND
M  V30 END CTAB
M  END
