
     RDKit          3D

  0  0  0  0  0  0  0  0  0  0999 V3000
M  V30 BEGIN CTAB
M  V30 COUNTS 50 52 0 0 0
M  V30 BEGIN ATOM
M  V30 1 O 2.41931 -0.961712 1.99357 0
M  V30 2 C 2.01311 -0.690646 0.844595 0
M  V30 3 N 0.658483 -0.851273 0.530068 0
M  V30 4 C -0.288441 -1.3268 1.50847 0
M  V30 5 C -1.59077 -0.575004 1.48914 0
M  V30 6 C -2.08121 -0.320394 0.082905 0
M  V30 7 C -0.98985 0.368944 -0.674028 0
M  V30 8 C 0.186898 -0.538115 -0.796272 0
M  V30 9 C -3.27106 0.578291 0.0777592 0
M  V30 10 C -3.63377 1.67908 0.83333 0
M  V30 11 C -4.82465 2.30943 0.581219 0
M  V30 12 C -5.69146 1.88452 -0.411659 0
M  V30 13 C -5.34331 0.799455 -1.16296 0
M  V30 14 C -4.14384 0.165452 -0.908208 0
M  V30 15 C -3.58025 -1.02886 -1.60889 0 CFG=2
M  V30 16 C -2.61511 -1.54615 -0.575809 0 CFG=2
M  V30 17 O -3.39765 -2.22453 0.387938 0
M  V30 18 N -2.98655 -0.719089 -2.86571 0
M  V30 19 C 3.01362 -0.203951 -0.13932 0
M  V30 20 C 4.39801 -0.125023 0.470719 0
M  V30 21 C 5.4244 0.361724 -0.499699 0
M  V30 22 S 6.99689 0.419202 0.300353 0
M  V30 23 O 8.06726 0.933296 -0.624409 0
M  V30 24 O 7.4109 -0.913341 0.834627 0
M  V30 25 N 6.87201 1.50588 1.64232 0
M  V30 26 H -0.543794 -2.39354 1.23727 0
M  V30 27 H 0.140444 -1.38447 2.52518 0
M  V30 28 H -1.42667 0.405054 1.96883 0
M  V30 29 H -2.33174 -1.1195 2.09478 0
M  V30 30 H -1.31559 0.826135 -1.62596 0
M  V30 31 H -0.662315 1.23798 -0.0322047 0
M  V30 32 H -0.0275872 -1.49403 -1.30098 0
M  V30 33 H 0.950617 -0.0222722 -1.41116 0
M  V30 34 H -2.94494 1.99028 1.59814 0
M  V30 35 H -5.07948 3.17508 1.19654 0
M  V30 36 H -6.6304 2.42723 -0.56857 0
M  V30 37 H -6.01601 0.447859 -1.9534 0
M  V30 38 H -4.36681 -1.80883 -1.75279 0
M  V30 39 H -1.8836 -2.25438 -0.944954 0
M  V30 40 H -4.31533 -1.81871 0.427378 0
M  V30 41 H -3.09637 0.275537 -3.15217 0
M  V30 42 H -2.04011 -1.09845 -3.017 0
M  V30 43 H 2.7092 0.856161 -0.378991 0
M  V30 44 H 3.00037 -0.740251 -1.09016 0
M  V30 45 H 4.41983 0.553245 1.34766 0
M  V30 46 H 4.6952 -1.13229 0.809432 0
M  V30 47 H 5.50745 -0.360386 -1.35951 0
M  V30 48 H 5.21812 1.34528 -0.925532 0
M  V30 49 H 6.99061 1.01044 2.55315 0
M  V30 50 H 6.02595 2.09644 1.60102 0
M  V30 END ATOM
M  V30 BEGIN BOND
M  V30 1 2 1 2
M  V30 2 1 2 3
M  V30 3 1 3 4
M  V30 4 1 4 5
M  V30 5 1 5 6
M  V30 6 1 6 7
M  V30 7 1 7 8
M  V30 8 1 6 9
M  V30 9 2 9 10
M  V30 10 1 10 11
M  V30 11 2 11 12
M  V30 12 1 12 13
M  V30 13 2 13 14
M  V30 14 1 14 15
M  V30 15 1 15 16
M  V30 16 1 16 17
M  V30 17 1 15 18
M  V30 18 1 2 19
M  V30 19 1 19 20
M  V30 20 1 20 21
M  V30 21 1 21 22
M  V30 22 2 22 23
M  V30 23 2 22 24
M  V30 24 1 22 25
M  V30 25 1 8 3
M  V30 26 1 14 9
M  V30 27 1 16 6
M  V30 28 1 4 26
M  V30 29 1 4 27
M  V30 30 1 5 28
M  V30 31 1 5 29
M  V30 32 1 7 30
M  V30 33 1 7 31
M  V30 34 1 8 32
M  V30 35 1 8 33
M  V30 36 1 10 34
M  V30 37 1 11 35
M  V30 38 1 12 36
M  V30 39 1 13 37
M  V30 40 1 15 38 CFG=3
M  V30 41 1 16 39 CFG=3
M  V30 42 1 17 40
M  V30 43 1 18 41
M  V30 44 1 18 42
M  V30 45 1 19 43
M  V30 46 1 19 44
M  V30 47 1 20 45
M  V30 48 1 20 46
M  V30 49 1 21 47
M  V30 50 1 21 48
M  V30 51 1 25 49
M  V30 52 1 25 50
M  V30 END BOND
M  V30 END CTAB
M  END
