
     RDKit          3D

  0  0  0  0  0  0  0  0  0  0999 V3000
M  V30 BEGIN CTAB
M  V30 COUNTS 60 63 0 0 0
M  V30 BEGIN ATOM
M  V30 1 C -9.03436 -2.04385 -1.74809 0
M  V30 2 O -8.1232 -1.3117 -2.52611 0
M  V30 3 C -7.00232 -0.774234 -1.91724 0
M  V30 4 C -6.06832 -0.0373893 -2.65639 0
M  V30 5 C -4.96518 0.484548 -2.02786 0
M  V30 6 C -4.72893 0.317599 -0.690408 0
M  V30 7 C -3.5123 0.880636 0.00744012 0
M  V30 8 O -2.58391 -0.103621 -0.00273968 0
M  V30 9 C -1.36869 0.0975381 0.549393 0
M  V30 10 C -1.28801 0.379744 1.98089 0
M  V30 11 C -0.00599124 0.590456 2.50635 0
M  V30 12 C 0.0648146 0.845695 3.8578 0
M  V30 13 N 1.34696 1.06003 4.4158 0
M  V30 14 N -1.06207 0.884681 4.61371 0
M  V30 15 C -2.28632 0.681219 4.09844 0
M  V30 16 N -3.46831 0.723877 4.89531 0
M  V30 17 N -2.3663 0.431294 2.78054 0
M  V30 18 C 1.17609 0.53884 1.65255 0
M  V30 19 C 1.70761 -0.689604 1.3272 0
M  V30 20 C 2.82382 -0.754794 0.521532 0
M  V30 21 C 3.42434 0.375956 0.0321229 0
M  V30 22 N 4.56672 0.279036 -0.784964 0
M  V30 23 C 5.17683 -0.979514 -1.08303 0
M  V30 24 C 6.36233 -0.799939 -1.96388 0
M  V30 25 C 7.51441 -0.230652 -1.42216 0
M  V30 26 C 8.65137 -0.0346986 -2.16818 0
M  V30 27 C 8.66311 -0.408994 -3.49105 0
M  V30 28 Cl 10.1131 -0.157765 -4.43742 0
M  V30 29 C 7.53126 -0.977411 -4.05487 0
M  V30 30 C 6.4077 -1.16048 -3.28262 0
M  V30 31 C 2.88501 1.61888 0.362831 0
M  V30 32 C 1.77284 1.68902 1.16482 0
M  V30 33 C -5.65008 -0.405999 0.0273092 0
M  V30 34 C -6.78105 -0.953689 -0.56354 0
M  V30 35 H -8.5576 -2.94785 -1.34128 0
M  V30 36 H -9.91854 -2.38498 -2.33624 0
M  V30 37 H -9.39112 -1.42091 -0.881924 0
M  V30 38 H -6.26755 0.0840965 -3.69784 0
M  V30 39 H -4.22885 1.06109 -2.59415 0
M  V30 40 H -3.87717 1.2645 0.949803 0
M  V30 41 H -3.23525 1.77332 -0.614891 0
M  V30 42 H -0.788205 -0.867042 0.399638 0
M  V30 43 H -0.7681 0.83538 -0.0417165 0
M  V30 44 H 1.65171 0.507064 5.23286 0
M  V30 45 H 2 1.76617 4.02451 0
M  V30 46 H -3.72629 -0.0251975 5.57564 0
M  V30 47 H -4.14464 1.51529 4.83849 0
M  V30 48 H 1.30065 -1.63094 1.66604 0
M  V30 49 H 3.26782 -1.70613 0.243401 0
M  V30 50 H 4.97854 1.1516 -1.18302 0
M  V30 51 H 5.54537 -1.51223 -0.177121 0
M  V30 52 H 4.48146 -1.69287 -1.59193 0
M  V30 53 H 7.52994 0.0707919 -0.382976 0
M  V30 54 H 9.52837 0.411172 -1.71719 0
M  V30 55 H 7.5011 -1.28266 -5.08491 0
M  V30 56 H 5.51623 -1.61285 -3.73441 0
M  V30 57 H 3.38158 2.49198 -0.0392408 0
M  V30 58 H 1.34303 2.64706 1.4299 0
M  V30 59 H -5.50474 -0.562972 1.0902 0
M  V30 60 H -7.51071 -1.52419 -0.00513517 0
M  V30 END ATOM
M  V30 BEGIN BOND
M  V30 1 1 1 2
M  V30 2 1 2 3
M  V30 3 2 3 4
M  V30 4 1 4 5
M  V30 5 2 5 6
M  V30 6 1 6 7
M  V30 7 1 7 8
M  V30 8 1 8 9
M  V30 9 1 9 10
M  V30 10 1 10 11
M  V30 11 2 11 12
M  V30 12 1 12 13
M  V30 13 1 12 14
M  V30 14 2 14 15
M  V30 15 1 15 16
M  V30 16 1 15 17
M  V30 17 1 11 18
M  V30 18 2 18 19
M  V30 19 1 19 20
M  V30 20 2 20 21
M  V30 21 1 21 22
M  V30 22 1 22 23
M  V30 23 1 23 24
M  V30 24 2 24 25
M  V30 25 1 25 26
M  V30 26 2 26 27
M  V30 27 1 27 28
M  V30 28 1 27 29
M  V30 29 2 29 30
M  V30 30 1 21 31
M  V30 31 2 31 32
M  V30 32 1 6 33
M  V30 33 2 33 34
M  V30 34 1 34 3
M  V30 35 2 17 10
M  V30 36 1 32 18
M  V30 37 1 30 24
M  V30 38 1 1 35
M  V30 39 1 1 36
M  V30 40 1 1 37
M  V30 41 1 4 38
M  V30 42 1 5 39
M  V30 43 1 7 40
M  V30 44 1 7 41
M  V30 45 1 9 42
M  V30 46 1 9 43
M  V30 47 1 13 44
M  V30 48 1 13 45
M  V30 49 1 16 46
M  V30 50 1 16 47
M  V30 51 1 19 48
M  V30 52 1 20 49
M  V30 53 1 22 50
M  V30 54 1 23 51
M  V30 55 1 23 52
M  V30 56 1 25 53
M  V30 57 1 26 54
M  V30 58 1 29 55
M  V30 59 1 30 56
M  V30 60 1 31 57
M  V30 61 1 32 58
M  V30 62 1 33 59
M  V30 63 1 34 60
M  V30 END BOND
M  V30 END CTAB
M  END
