
     RDKit          3D

  0  0  0  0  0  0  0  0  0  0999 V3000
M  V30 BEGIN CTAB
M  V30 COUNTS 38 39 0 0 0
M  V30 BEGIN ATOM
M  V30 1 N -1.18827 -2.7767 0.258867 0
M  V30 2 C -1.55822 -2.21964 -1.01142 0
M  V30 3 C -1.62996 -0.782564 -1.19507 0
M  V30 4 N -0.653157 0.181882 -1.1107 0
M  V30 5 C -1.37775 1.46575 -1.37269 0
M  V30 6 C -2.20939 1.90559 -0.21604 0
M  V30 7 C -1.5061 2.40506 0.98499 0
M  V30 8 O -1.09479 1.46039 1.91597 0
M  V30 9 C -0.803262 0.197251 1.27895 0
M  V30 10 C 0.0832896 0.489106 0.102286 0 CFG=1
M  V30 11 C 1.42106 -0.121712 0.0780761 0
M  V30 12 C 1.76036 -0.989773 -0.905592 0
M  V30 13 C 3.06138 -1.44267 -1.05942 0
M  V30 14 C 4.04958 -1.02598 -0.219877 0
M  V30 15 C 3.70891 -0.132967 0.796548 0
M  V30 16 C 2.40216 0.313816 0.942066 0
M  V30 17 N 2.13524 1.18246 2.04011 0
M  V30 18 H -1.98632 -2.67755 0.937151 0
M  V30 19 H -1.04843 -3.83094 0.209597 0
M  V30 20 H -2.60712 -2.64465 -1.18032 0
M  V30 21 H -0.996132 -2.77379 -1.82128 0
M  V30 22 H -1.96612 -0.671185 -2.32072 0
M  V30 23 H -2.64798 -0.470805 -0.746475 0
M  V30 24 H -1.97944 1.36944 -2.2892 0
M  V30 25 H -0.621469 2.24052 -1.57372 0
M  V30 26 H -2.806 2.79528 -0.622109 0
M  V30 27 H -3.01335 1.21975 0.108357 0
M  V30 28 H -2.26225 3.03951 1.54617 0
M  V30 29 H -0.729382 3.1544 0.718325 0
M  V30 30 H -0.398342 -0.452159 2.04683 0
M  V30 31 H -1.82841 -0.131257 1.05135 0
M  V30 32 H 0.283675 1.56498 0.08737 0
M  V30 33 H 1.08361 -1.37606 -1.66966 0
M  V30 34 H 3.31028 -2.14486 -1.86965 0
M  V30 35 H 5.07123 -1.38091 -0.345108 0
M  V30 36 H 4.50622 0.177552 1.44921 0
M  V30 37 H 2.1919 2.20178 2.05543 0
M  V30 38 H 1.84272 0.68167 2.9214 0
M  V30 END ATOM
M  V30 BEGIN BOND
M  V30 1 1 1 2
M  V30 2 1 2 3
M  V30 3 1 3 4
M  V30 4 1 4 5
M  V30 5 1 5 6
M  V30 6 1 6 7
M  V30 7 1 7 8
M  V30 8 1 8 9
M  V30 9 1 9 10
M  V30 10 1 10 11
M  V30 11 2 11 12
M  V30 12 1 12 13
M  V30 13 2 13 14
M  V30 14 1 14 15
M  V30 15 2 15 16
M  V30 16 1 16 17
M  V30 17 1 10 4
M  V30 18 1 16 11
M  V30 19 1 1 18
M  V30 20 1 1 19
M  V30 21 1 2 20
M  V30 22 1 2 21
M  V30 23 1 3 22
M  V30 24 1 3 23
M  V30 25 1 5 24
M  V30 26 1 5 25
M  V30 27 1 6 26
M  V30 28 1 6 27
M  V30 29 1 7 28
M  V30 30 1 7 29
M  V30 31 1 9 30
M  V30 32 1 9 31
M  V30 33 1 10 32 CFG=3
M  V30 34 1 12 33
M  V30 35 1 13 34
M  V30 36 1 14 35
M  V30 37 1 15 36
M  V30 38 1 17 37
M  V30 39 1 17 38
M  V30 END BOND
M  V30 END CTAB
M  END
