
     RDKit          3D

  0  0  0  0  0  0  0  0  0  0999 V3000
M  V30 BEGIN CTAB
M  V30 COUNTS 146 149 0 0 0
M  V30 BEGIN ATOM
M  V30 1 C -2.75018 -1.56854 3.73352 0
M  V30 2 C -1.36906 -1.02216 3.4437 0
M  V30 3 C -0.7595 -1.52531 2.21197 0
M  V30 4 C -1.30873 -1.28482 0.888627 0
M  V30 5 C -1.40487 0.0388821 0.285229 0 CFG=2
M  V30 6 N -0.14331 0.742481 0.152 0
M  V30 7 C 0.661863 0.759975 -1.00674 0
M  V30 8 O 0.282799 0.119417 -2.01358 0
M  V30 9 C 1.93401 1.50606 -1.06387 0 CFG=2
M  V30 10 C 1.85712 2.80598 -1.82343 0
M  V30 11 C 0.929609 3.80301 -1.33898 0
M  V30 12 C -0.369393 3.94544 -1.7596 0
M  V30 13 C -1.22045 4.918 -1.28441 0
M  V30 14 C -0.767105 5.80961 -0.332822 0
M  V30 15 O -1.61444 6.80263 0.162063 0
M  V30 16 C 0.543616 5.6871 0.11058 0
M  V30 17 C 1.37756 4.70911 -0.376678 0
M  V30 18 N 2.83266 0.642388 -1.87097 0
M  V30 19 C 4.03775 0.121243 -1.33581 0
M  V30 20 O 4.3229 0.40883 -0.143579 0
M  V30 21 C 4.87961 -0.724043 -2.21592 0 CFG=1
M  V30 22 N 6.07934 -1.16588 -1.49994 0
M  V30 23 C 7.34504 -0.615561 -1.77937 0
M  V30 24 O 7.50186 0.297832 -2.64847 0
M  V30 25 C 8.55024 -1.06929 -1.06943 0 CFG=2
M  V30 26 C 8.44294 -2.29048 -0.238747 0
M  V30 27 C 8.11004 -3.55069 -1.00018 0
M  V30 28 C 8.0087 -4.71705 -0.041178 0
M  V30 29 N 9.26062 -4.9213 0.627089 0
M  V30 30 C 9.36278 -5.95981 1.58349 0
M  V30 31 N 9.89137 -7.20557 1.17792 0
M  V30 32 N 8.97397 -5.74117 2.7852 0
M  V30 33 N 9.40026 -0.0200157 -0.580385 0
M  V30 34 C 10.6203 0.331592 -1.16064 0
M  V30 35 O 10.9514 -0.347802 -2.20669 0
M  V30 36 C 11.5714 1.35854 -0.756759 0 CFG=1
M  V30 37 N 12.1459 2.08174 -1.85942 0
M  V30 38 C 11.2022 2.23711 0.384532 0
M  V30 39 C 11.0526 1.47334 1.64591 0
M  V30 40 O 10.5468 2.16886 2.75892 0
M  V30 41 O 11.3457 0.259094 1.77996 0
M  V30 42 C 4.12851 -1.86124 -2.84629 0
M  V30 43 C 3.53958 -2.79508 -1.81949 0
M  V30 44 C 5.06186 -2.57806 -3.79244 0
M  V30 45 C -2.5147 0.907843 0.663993 0
M  V30 46 O -2.18875 2.14162 0.81039 0
M  V30 47 N -3.83841 0.522884 0.859741 0
M  V30 48 C -5.01692 1.21069 1.17417 0 CFG=1
M  V30 49 C -5.30135 1.65042 2.55738 0
M  V30 50 C -4.4121 2.5741 3.22591 0
M  V30 51 C -3.40376 2.3308 4.10251 0
M  V30 52 N -2.84297 3.51273 4.44369 0
M  V30 53 C -3.49955 4.46384 3.78531 0
M  V30 54 N -4.45983 3.91925 3.03659 0
M  V30 55 C -5.35087 2.34466 0.211687 0
M  V30 56 O -4.50217 3.10948 -0.273136 0
M  V30 57 N -6.72577 2.55985 -0.171483 0
M  V30 58 C -7.13266 3.66115 -1.01972 0
M  V30 59 C -8.48016 4.04699 -0.480389 0
M  V30 60 C -8.91545 2.91239 0.400297 0
M  V30 61 C -7.90086 1.78855 0.13359 0 CFG=1
M  V30 62 C -8.38665 0.982986 -1.03641 0
M  V30 63 O -7.80433 1.15737 -2.13187 0
M  V30 64 N -9.46017 0.0763193 -0.863395 0
M  V30 65 C -9.99971 -0.730553 -1.91292 0 CFG=1
M  V30 66 C -9.61898 -2.17787 -1.84384 0
M  V30 67 C -10.0078 -2.90544 -0.651434 0
M  V30 68 C -11.2037 -3.57226 -0.516639 0
M  V30 69 C -11.5675 -4.27012 0.614648 0
M  V30 70 C -10.7049 -4.31906 1.68519 0
M  V30 71 C -9.4993 -3.66385 1.58836 0
M  V30 72 C -9.15323 -2.96291 0.429775 0
M  V30 73 C -11.4523 -0.509388 -2.10104 0
M  V30 74 O -12.1725 -1.17665 -3.05425 0
M  V30 75 O -12.0296 0.33393 -1.33874 0
M  V30 76 H -2.67272 -2.60926 4.17861 0
M  V30 77 H -3.38996 -1.69149 2.86423 0
M  V30 78 H -3.18685 -0.972113 4.55944 0
M  V30 79 H -0.732932 -1.42225 4.2955 0
M  V30 80 H -1.30887 0.0749489 3.5923 0
M  V30 81 H -0.718571 -2.66427 2.33089 0
M  V30 82 H 0.339184 -1.27195 2.25457 0
M  V30 83 H -0.676774 -1.92374 0.175315 0
M  V30 84 H -2.31043 -1.83409 0.784682 0
M  V30 85 H -1.64345 -0.156045 -0.861154 0
M  V30 86 H 0.200925 1.27996 0.975848 0
M  V30 87 H 2.42926 1.60338 -0.0824534 0
M  V30 88 H 2.89186 3.23829 -1.79662 0
M  V30 89 H 1.7106 2.53754 -2.90447 0
M  V30 90 H -0.736304 3.2646 -2.49439 0
M  V30 91 H -2.25235 4.98913 -1.65549 0
M  V30 92 H -1.61243 7.68633 -0.338102 0
M  V30 93 H 0.907359 6.37659 0.853529 0
M  V30 94 H 2.40273 4.66495 0.0145145 0
M  V30 95 H 2.50491 0.459552 -2.84037 0
M  V30 96 H 5.22831 -0.0505427 -3.05419 0
M  V30 97 H 5.92877 -1.8811 -0.766824 0
M  V30 98 H 9.19637 -1.47247 -1.99065 0
M  V30 99 H 7.70198 -2.14233 0.59966 0
M  V30 100 H 9.40469 -2.48453 0.313461 0
M  V30 101 H 8.97947 -3.76562 -1.71346 0
M  V30 102 H 7.24753 -3.46527 -1.64052 0
M  V30 103 H 7.7046 -5.61918 -0.641195 0
M  V30 104 H 7.19149 -4.56127 0.686815 0
M  V30 105 H 10.1004 -4.34731 0.4405 0
M  V30 106 H 9.88022 -7.51851 0.165853 0
M  V30 107 H 10.3073 -7.84318 1.89047 0
M  V30 108 H 8.58995 -4.83405 3.07684 0
M  V30 109 H 9.04789 0.52358 0.258316 0
M  V30 110 H 12.506 0.736984 -0.379732 0
M  V30 111 H 13.0347 2.52138 -1.53081 0
M  V30 112 H 12.2844 1.41277 -2.64618 0
M  V30 113 H 11.9795 3.04541 0.536748 0
M  V30 114 H 10.2502 2.76046 0.11095 0
M  V30 115 H 10.9148 1.92075 3.68671 0
M  V30 116 H 3.29318 -1.40761 -3.42619 0
M  V30 117 H 3.94391 -2.60768 -0.798515 0
M  V30 118 H 3.8773 -3.82888 -2.09201 0
M  V30 119 H 2.43985 -2.77656 -1.85657 0
M  V30 120 H 5.85127 -1.93215 -4.20612 0
M  V30 121 H 5.50635 -3.45984 -3.29219 0
M  V30 122 H 4.48598 -2.95831 -4.67051 0
M  V30 123 H -3.96056 -0.564201 0.741241 0
M  V30 124 H -5.88751 0.487964 0.925044 0
M  V30 125 H -6.3604 2.06795 2.55484 0
M  V30 126 H -5.45136 0.688857 3.15917 0
M  V30 127 H -3.0466 1.40995 4.51395 0
M  V30 128 H -3.31754 5.54687 3.81988 0
M  V30 129 H -5.1284 4.44646 2.41346 0
M  V30 130 H -7.09716 3.46558 -2.08892 0
M  V30 131 H -6.47347 4.55607 -0.858404 0
M  V30 132 H -9.16489 4.17977 -1.37065 0
M  V30 133 H -8.45869 5.01474 0.0580104 0
M  V30 134 H -8.81574 3.27127 1.45996 0
M  V30 135 H -9.9479 2.59467 0.262108 0
M  V30 136 H -7.85342 1.18714 1.03604 0
M  V30 137 H -9.88849 -0.0153508 0.0822451 0
M  V30 138 H -9.50374 -0.354994 -2.86276 0
M  V30 139 H -8.52768 -2.28539 -2.02368 0
M  V30 140 H -10.0929 -2.66288 -2.74656 0
M  V30 141 H -11.8752 -3.52945 -1.36236 0
M  V30 142 H -12.5372 -4.79035 0.676341 0
M  V30 143 H -10.9324 -4.85809 2.61324 0
M  V30 144 H -8.82369 -3.71271 2.45225 0
M  V30 145 H -8.19858 -2.47661 0.423236 0
M  V30 146 H -13.1771 -1.24635 -2.98273 0
M  V30 END ATOM
M  V30 BEGIN BOND
M  V30 1 1 1 2
M  V30 2 1 2 3
M  V30 3 1 3 4
M  V30 4 1 4 5
M  V30 5 1 5 6
M  V30 6 1 6 7
M  V30 7 2 7 8
M  V30 8 1 7 9
M  V30 9 1 9 10
M  V30 10 1 10 11
M  V30 11 2 11 12
M  V30 12 1 12 13
M  V30 13 2 13 14
M  V30 14 1 14 15
M  V30 15 1 14 16
M  V30 16 2 16 17
M  V30 17 1 9 18
M  V30 18 1 18 19
M  V30 19 2 19 20
M  V30 20 1 19 21
M  V30 21 1 21 22
M  V30 22 1 22 23
M  V30 23 2 23 24
M  V30 24 1 23 25
M  V30 25 1 25 26
M  V30 26 1 26 27
M  V30 27 1 27 28
M  V30 28 1 28 29
M  V30 29 1 29 30
M  V30 30 1 30 31
M  V30 31 2 30 32 CFG=2
M  V30 32 1 25 33
M  V30 33 1 33 34
M  V30 34 2 34 35
M  V30 35 1 34 36
M  V30 36 1 36 37
M  V30 37 1 36 38
M  V30 38 1 38 39
M  V30 39 1 39 40
M  V30 40 2 39 41
M  V30 41 1 21 42
M  V30 42 1 42 43
M  V30 43 1 42 44
M  V30 44 1 5 45
M  V30 45 2 45 46
M  V30 46 1 45 47
M  V30 47 1 47 48
M  V30 48 1 48 49
M  V30 49 1 49 50
M  V30 50 2 50 51
M  V30 51 1 51 52
M  V30 52 2 52 53
M  V30 53 1 53 54
M  V30 54 1 48 55
M  V30 55 2 55 56
M  V30 56 1 55 57
M  V30 57 1 57 58
M  V30 58 1 58 59
M  V30 59 1 59 60
M  V30 60 1 60 61
M  V30 61 1 61 62
M  V30 62 2 62 63
M  V30 63 1 62 64
M  V30 64 1 64 65
M  V30 65 1 65 66
M  V30 66 1 66 67
M  V30 67 2 67 68
M  V30 68 1 68 69
M  V30 69 2 69 70
M  V30 70 1 70 71
M  V30 71 2 71 72
M  V30 72 1 65 73
M  V30 73 1 73 74
M  V30 74 2 73 75
M  V30 75 1 17 11
M  V30 76 1 54 50
M  V30 77 1 61 57
M  V30 78 1 72 67
M  V30 79 1 1 76
M  V30 80 1 1 77
M  V30 81 1 1 78
M  V30 82 1 2 79
M  V30 83 1 2 80
M  V30 84 1 3 81
M  V30 85 1 3 82
M  V30 86 1 4 83
M  V30 87 1 4 84
M  V30 88 1 5 85 CFG=3
M  V30 89 1 6 86
M  V30 90 1 9 87 CFG=1
M  V30 91 1 10 88
M  V30 92 1 10 89
M  V30 93 1 12 90
M  V30 94 1 13 91
M  V30 95 1 15 92
M  V30 96 1 16 93
M  V30 97 1 17 94
M  V30 98 1 18 95
M  V30 99 1 21 96 CFG=3
M  V30 100 1 22 97
M  V30 101 1 25 98 CFG=3
M  V30 102 1 26 99
M  V30 103 1 26 100
M  V30 104 1 27 101
M  V30 105 1 27 102
M  V30 106 1 28 103
M  V30 107 1 28 104
M  V30 108 1 29 105
M  V30 109 1 31 106
M  V30 110 1 31 107
M  V30 111 1 32 108
M  V30 112 1 33 109
M  V30 113 1 36 110 CFG=1
M  V30 114 1 37 111
M  V30 115 1 37 112
M  V30 116 1 38 113
M  V30 117 1 38 114
M  V30 118 1 40 115
M  V30 119 1 42 116
M  V30 120 1 43 117
M  V30 121 1 43 118
M  V30 122 1 43 119
M  V30 123 1 44 120
M  V30 124 1 44 121
M  V30 125 1 44 122
M  V30 126 1 47 123
M  V30 127 1 48 124 CFG=3
M  V30 128 1 49 125
M  V30 129 1 49 126
M  V30 130 1 51 127
M  V30 131 1 53 128
M  V30 132 1 54 129
M  V30 133 1 58 130
M  V30 134 1 58 131
M  V30 135 1 59 132
M  V30 136 1 59 133
M  V30 137 1 60 134
M  V30 138 1 60 135
M  V30 139 1 61 136 CFG=1
M  V30 140 1 64 137
M  V30 141 1 65 138 CFG=3
M  V30 142 1 66 139
M  V30 143 1 66 140
M  V30 144 1 68 141
M  V30 145 1 69 142
M  V30 146 1 70 143
M  V30 147 1 71 144
M  V30 148 1 72 145
M  V30 149 1 74 146
M  V30 END BOND
M  V30 END CTAB
M  END
