
     RDKit          3D

  0  0  0  0  0  0  0  0  0  0999 V3000
M  V30 BEGIN CTAB
M  V30 COUNTS 33 33 0 0 0
M  V30 BEGIN ATOM
M  V30 1 N 4.45679 0.478251 0.760174 0
M  V30 2 C 3.88888 0.130343 -0.522514 0
M  V30 3 C 2.67273 -0.752222 -0.394417 0
M  V30 4 C 1.63022 -0.00406111 0.410613 0
M  V30 5 C 0.371013 -0.820289 0.588302 0
M  V30 6 C -0.59836 0.017939 1.4027 0
M  V30 7 C -1.39843 0.9048 0.46773 0
M  V30 8 N -2.24269 0.0787301 -0.287979 0
M  V30 9 C -1.75416 -1.20621 -0.638167 0
M  V30 10 C -0.253874 -1.16986 -0.747369 0
M  V30 11 S -3.89971 0.247972 -0.0901176 0
M  V30 12 O -4.22499 0.0825649 1.39003 0
M  V30 13 O -4.71837 -0.751061 -0.819053 0
M  V30 14 N -4.46077 1.82652 -0.522725 0
M  V30 15 H 3.85617 1.13213 1.30796 0
M  V30 16 H 5.34092 1.00905 0.557708 0
M  V30 17 H 4.69797 -0.405971 -1.08911 0
M  V30 18 H 3.6269 1.09155 -1.02363 0
M  V30 19 H 2.99757 -1.67346 0.131346 0
M  V30 20 H 2.3271 -0.992026 -1.41116 0
M  V30 21 H 1.45595 0.964631 -0.0740937 0
M  V30 22 H 2.0616 0.160254 1.41959 0
M  V30 23 H 0.636534 -1.75822 1.08844 0
M  V30 24 H -1.25528 -0.697998 1.94422 0
M  V30 25 H -0.0748817 0.695419 2.11039 0
M  V30 26 H -1.99915 1.57755 1.11052 0
M  V30 27 H -0.64191 1.47021 -0.143565 0
M  V30 28 H -2.18759 -1.5872 -1.57161 0
M  V30 29 H -2.00294 -1.91626 0.182867 0
M  V30 30 H 0.0763125 -0.43572 -1.52699 0
M  V30 31 H 0.083655 -2.17858 -1.05668 0
M  V30 32 H -3.84169 2.54665 -0.122262 0
M  V30 33 H -4.62552 1.93457 -1.53234 0
M  V30 END ATOM
M  V30 BEGIN BOND
M  V30 1 1 1 2
M  V30 2 1 2 3
M  V30 3 1 3 4
M  V30 4 1 4 5
M  V30 5 1 5 6
M  V30 6 1 6 7
M  V30 7 1 7 8
M  V30 8 1 8 9
M  V30 9 1 9 10
M  V30 10 1 8 11
M  V30 11 2 11 12
M  V30 12 2 11 13
M  V30 13 1 11 14
M  V30 14 1 10 5
M  V30 15 1 1 15
M  V30 16 1 1 16
M  V30 17 1 2 17
M  V30 18 1 2 18
M  V30 19 1 3 19
M  V30 20 1 3 20
M  V30 21 1 4 21
M  V30 22 1 4 22
M  V30 23 1 5 23
M  V30 24 1 6 24
M  V30 25 1 6 25
M  V30 26 1 7 26
M  V30 27 1 7 27
M  V30 28 1 9 28
M  V30 29 1 9 29
M  V30 30 1 10 30
M  V30 31 1 10 31
M  V30 32 1 14 32
M  V30 33 1 14 33
M  V30 END BOND
M  V30 END CTAB
M  END
