
     RDKit          3D

  0  0  0  0  0  0  0  0  0  0999 V3000
M  V30 BEGIN CTAB
M  V30 COUNTS 39 42 0 0 0
M  V30 BEGIN ATOM
M  V30 1 N 1.80127 -2.07484 2.78271 0
M  V30 2 C 1.10432 -1.34416 1.78388 0
M  V30 3 N -0.259139 -1.29881 1.7406 0
M  V30 4 C -0.895704 -0.601589 0.787144 0
M  V30 5 C -0.147156 0.0806016 -0.165191 0
M  V30 6 N 1.19735 0.0245367 -0.106854 0
M  V30 7 C 1.84876 -0.672358 0.845935 0
M  V30 8 C 3.29954 -0.691438 0.851585 0
M  V30 9 O 3.91004 -1.35204 1.75477 0
M  V30 10 N 4.09499 -0.0187603 -0.088322 0
M  V30 11 C 5.54025 -0.0451552 -0.0725457 0
M  V30 12 C 6.23817 -0.118288 -1.41499 0
M  V30 13 C 6.34154 1.10961 -0.495805 0
M  V30 14 C -0.818969 0.787536 -1.13161 0
M  V30 15 N -0.119219 1.504 -2.13055 0
M  V30 16 N -2.15733 0.810125 -1.14388 0
M  V30 17 C -2.90201 0.150536 -0.222817 0
M  V30 18 N -2.25551 -0.537447 0.717802 0
M  V30 19 C -4.35722 0.223647 -0.303304 0
M  V30 20 C -5.14345 -0.432533 0.613635 0
M  V30 21 C -6.53282 -0.385544 0.56821 0
M  V30 22 C -7.17122 0.334254 -0.416618 0
M  V30 23 C -6.38292 0.993179 -1.33738 0
M  V30 24 C -4.99362 0.944906 -1.29018 0
M  V30 25 H 2.14229 -1.67841 3.6696 0
M  V30 26 H 2.00248 -3.10822 2.63675 0
M  V30 27 H 3.62942 0.532017 -0.841933 0
M  V30 28 H 5.95727 -0.657977 0.767381 0
M  V30 29 H 7.16511 -0.728762 -1.49932 0
M  V30 30 H 5.64991 -0.042701 -2.33012 0
M  V30 31 H 5.90346 2.02013 -0.946293 0
M  V30 32 H 7.32278 1.28276 0.00437962 0
M  V30 33 H 0.510137 0.960816 -2.76175 0
M  V30 34 H -0.241375 2.53358 -2.216 0
M  V30 35 H -4.63403 -0.997932 1.3871 0
M  V30 36 H -7.13448 -0.914562 1.30699 0
M  V30 37 H -8.25188 0.387844 -0.475482 0
M  V30 38 H -6.86706 1.55625 -2.10799 0
M  V30 39 H -4.39398 1.4652 -2.0169 0
M  V30 END ATOM
M  V30 BEGIN BOND
M  V30 1 1 1 2
M  V30 2 2 2 3
M  V30 3 1 3 4
M  V30 4 2 4 5
M  V30 5 1 5 6
M  V30 6 2 6 7
M  V30 7 1 7 8
M  V30 8 2 8 9
M  V30 9 1 8 10
M  V30 10 1 10 11
M  V30 11 1 11 12
M  V30 12 1 12 13
M  V30 13 1 5 14
M  V30 14 1 14 15
M  V30 15 2 14 16
M  V30 16 1 16 17
M  V30 17 2 17 18
M  V30 18 1 17 19
M  V30 19 2 19 20
M  V30 20 1 20 21
M  V30 21 2 21 22
M  V30 22 1 22 23
M  V30 23 2 23 24
M  V30 24 1 7 2
M  V30 25 1 13 11
M  V30 26 1 24 19
M  V30 27 1 18 4
M  V30 28 1 1 25
M  V30 29 1 1 26
M  V30 30 1 10 27
M  V30 31 1 11 28
M  V30 32 1 12 29
M  V30 33 1 12 30
M  V30 34 1 13 31
M  V30 35 1 13 32
M  V30 36 1 15 33
M  V30 37 1 15 34
M  V30 38 1 20 35
M  V30 39 1 21 36
M  V30 40 1 22 37
M  V30 41 1 23 38
M  V30 42 1 24 39
M  V30 END BOND
M  V30 END CTAB
M  END
