
     RDKit          3D

  0  0  0  0  0  0  0  0  0  0999 V3000
M  V30 BEGIN CTAB
M  V30 COUNTS 53 57 0 0 0
M  V30 BEGIN ATOM
M  V30 1 N -7.03534 1.12772 1.07996 0
M  V30 2 C -6.38034 0.178243 0.255185 0
M  V30 3 N -5.06858 -0.0105873 0.459242 0
M  V30 4 C -4.40426 -0.889839 -0.286582 0
M  V30 5 C -2.97244 -1.11349 -0.0828978 0
M  V30 6 S -1.92696 -0.0315606 -1.08273 0
M  V30 7 C -0.214132 -0.455352 -0.695246 0
M  V30 8 N 0.416458 -1.40462 -1.40043 0
M  V30 9 C 1.70627 -1.77398 -1.10077 0
M  V30 10 S 2.75877 -2.92656 -1.78669 0
M  V30 11 C 4.115 -2.68656 -0.771138 0
M  V30 12 C 3.70719 -1.70529 0.0823088 0
M  V30 13 C 2.43629 -1.22305 -0.0896057 0
M  V30 14 C 1.74941 -0.226115 0.636704 0
M  V30 15 O 2.30582 0.363816 1.59778 0
M  V30 16 N 0.474779 0.097931 0.294228 0
M  V30 17 C -0.128029 1.16387 1.07316 0
M  V30 18 C 0.210747 2.53904 0.665522 0
M  V30 19 C -0.142573 3.00037 -0.702895 0
M  V30 20 C 0.124495 4.50806 -0.512433 0
M  V30 21 C -0.358343 4.68337 0.902879 0
M  V30 22 O -0.403664 3.44943 1.53139 0
M  V30 23 C 4.72139 -1.24378 1.13927 0
M  V30 24 C 6.07909 -1.36771 0.488764 0
M  V30 25 C 6.36419 -2.8682 0.333264 0
M  V30 26 C 5.47464 -3.34955 -0.735637 0
M  V30 27 N -5.04541 -1.57739 -1.23138 0
M  V30 28 C -6.35203 -1.39496 -1.44078 0
M  V30 29 N -7.04078 -0.513256 -0.69991 0
M  V30 30 N -6.99456 -2.16512 -2.47547 0
M  V30 31 H -7.26658 0.871641 2.05166 0
M  V30 32 H -7.27659 2.06005 0.713167 0
M  V30 33 H -2.74188 -0.898687 0.982156 0
M  V30 34 H -2.75081 -2.18669 -0.238251 0
M  V30 35 H -1.24679 1.05028 1.09887 0
M  V30 36 H 0.198585 1.03431 2.12862 0
M  V30 37 H 1.31519 2.72446 0.830588 0
M  V30 38 H -1.22774 2.94272 -0.900913 0
M  V30 39 H 0.514787 2.55567 -1.43762 0
M  V30 40 H 1.18983 4.74643 -0.657197 0
M  V30 41 H -0.466903 5.11061 -1.19748 0
M  V30 42 H 0.342038 5.36661 1.41955 0
M  V30 43 H -1.35031 5.19219 0.894677 0
M  V30 44 H 4.68843 -1.90175 2.02062 0
M  V30 45 H 4.56135 -0.209021 1.42006 0
M  V30 46 H 6.13448 -0.834055 -0.459291 0
M  V30 47 H 6.82372 -1.00954 1.23532 0
M  V30 48 H 6.18411 -3.33388 1.32081 0
M  V30 49 H 7.42323 -2.94091 0.0261228 0
M  V30 50 H 5.96937 -3.16847 -1.72111 0
M  V30 51 H 5.27074 -4.44302 -0.603619 0
M  V30 52 H -6.9343 -1.91245 -3.47085 0
M  V30 53 H -7.53106 -3.00141 -2.16948 0
M  V30 END ATOM
M  V30 BEGIN BOND
M  V30 1 1 1 2
M  V30 2 2 2 3
M  V30 3 1 3 4
M  V30 4 1 4 5
M  V30 5 1 5 6
M  V30 6 1 6 7
M  V30 7 2 7 8
M  V30 8 1 8 9
M  V30 9 1 9 10
M  V30 10 1 10 11
M  V30 11 2 11 12
M  V30 12 1 12 13
M  V30 13 1 13 14
M  V30 14 2 14 15
M  V30 15 1 14 16
M  V30 16 1 16 17
M  V30 17 1 17 18
M  V30 18 1 18 19
M  V30 19 1 19 20
M  V30 20 1 20 21
M  V30 21 1 21 22
M  V30 22 1 12 23
M  V30 23 1 23 24
M  V30 24 1 24 25
M  V30 25 1 25 26
M  V30 26 2 4 27
M  V30 27 1 27 28
M  V30 28 2 28 29
M  V30 29 1 28 30
M  V30 30 1 29 2
M  V30 31 1 16 7
M  V30 32 1 22 18
M  V30 33 2 13 9
M  V30 34 1 26 11
M  V30 35 1 1 31
M  V30 36 1 1 32
M  V30 37 1 5 33
M  V30 38 1 5 34
M  V30 39 1 17 35
M  V30 40 1 17 36
M  V30 41 1 18 37
M  V30 42 1 19 38
M  V30 43 1 19 39
M  V30 44 1 20 40
M  V30 45 1 20 41
M  V30 46 1 21 42
M  V30 47 1 21 43
M  V30 48 1 23 44
M  V30 49 1 23 45
M  V30 50 1 24 46
M  V30 51 1 24 47
M  V30 52 1 25 48
M  V30 53 1 25 49
M  V30 54 1 26 50
M  V30 55 1 26 51
M  V30 56 1 30 52
M  V30 57 1 30 53
M  V30 END BOND
M  V30 END CTAB
M  END
