
     RDKit          3D

  0  0  0  0  0  0  0  0  0  0999 V3000
M  V30 BEGIN CTAB
M  V30 COUNTS 27 28 0 0 0
M  V30 BEGIN ATOM
M  V30 1 N 3.93465 -0.3617 -0.287363 0
M  V30 2 C 2.55343 -0.658415 -0.152644 0
M  V30 3 C 2.08089 -1.93479 0.0230169 0
M  V30 4 C 0.72222 -2.14438 0.146456 0
M  V30 5 C -0.19 -1.10044 0.0986645 0
M  V30 6 C 0.273598 0.192014 -0.0781481 0
M  V30 7 C 1.64312 0.379088 -0.199857 0
M  V30 8 C -0.598561 1.28475 -0.133802 0
M  V30 9 C -1.94944 1.01308 -0.00347446 0
M  V30 10 C -2.42425 -0.268127 0.172976 0
M  V30 11 C -1.55675 -1.33847 0.226431 0
M  V30 12 N -1.97565 -2.68176 0.405537 0
M  V30 13 O -3.78388 -0.486848 0.298121 0
M  V30 14 S -0.00146493 2.89642 -0.358197 0
M  V30 15 O 0.678074 2.97998 -1.71481 0
M  V30 16 O 0.89662 3.35419 0.740343 0
M  V30 17 O -1.34249 3.93718 -0.364959 0
M  V30 18 H 4.52998 -0.631967 -1.08037 0
M  V30 19 H 4.37729 0.179415 0.492749 0
M  V30 20 H 2.79204 -2.74233 0.0595818 0
M  V30 21 H 0.316972 -3.15565 0.287943 0
M  V30 22 H 1.97765 1.41231 -0.33772 0
M  V30 23 H -2.6628 1.82138 -0.039521 0
M  V30 24 H -2.4042 -2.96563 1.3138 0
M  V30 25 H -1.84253 -3.35277 -0.381439 0
M  V30 26 H -4.46174 0.264072 0.265746 0
M  V30 27 H -1.58276 4.1094 0.600939 0
M  V30 END ATOM
M  V30 BEGIN BOND
M  V30 1 1 1 2
M  V30 2 2 2 3
M  V30 3 1 3 4
M  V30 4 2 4 5
M  V30 5 1 5 6
M  V30 6 2 6 7
M  V30 7 1 6 8
M  V30 8 2 8 9
M  V30 9 1 9 10
M  V30 10 2 10 11
M  V30 11 1 11 12
M  V30 12 1 10 13
M  V30 13 1 8 14
M  V30 14 2 14 15
M  V30 15 2 14 16
M  V30 16 1 14 17
M  V30 17 1 7 2
M  V30 18 1 11 5
M  V30 19 1 1 18
M  V30 20 1 1 19
M  V30 21 1 3 20
M  V30 22 1 4 21
M  V30 23 1 7 22
M  V30 24 1 9 23
M  V30 25 1 12 24
M  V30 26 1 12 25
M  V30 27 1 13 26
M  V30 28 1 17 27
M  V30 END BOND
M  V30 END CTAB
M  END
