
     RDKit          3D

  0  0  0  0  0  0  0  0  0  0999 V3000
M  V30 BEGIN CTAB
M  V30 COUNTS 27 28 0 0 0
M  V30 BEGIN ATOM
M  V30 1 N 4.86832 0.95487 0.413857 0
M  V30 2 C 3.79787 1.02134 -0.553709 0
M  V30 3 C 2.66926 0.137852 -0.151807 0
M  V30 4 O 2.64671 -0.578308 0.923023 0
M  V30 5 N 1.55106 -1.22735 0.994366 0
M  V30 6 C 0.778764 -0.953525 -0.0723585 0
M  V30 7 N 1.50851 -0.0800991 -0.793551 0
M  V30 8 C -0.580336 -1.50395 -0.372122 0
M  V30 9 C -1.65296 -0.558608 0.0309198 0
M  V30 10 C -1.86155 0.639231 -0.619949 0
M  V30 11 C -2.86248 1.50452 -0.23161 0
M  V30 12 C -3.69883 1.21389 0.821942 0
M  V30 13 C -3.492 0.0176953 1.47344 0
M  V30 14 C -2.49572 -0.8414 1.08525 0
M  V30 15 F -2.35704 -2.0156 1.78945 0
M  V30 16 F -4.69322 2.04561 1.22764 0
M  V30 17 N -0.688845 -1.90826 -1.74606 0
M  V30 18 H 5.01021 1.82872 0.947158 0
M  V30 19 H 4.84645 0.0901753 0.983499 0
M  V30 20 H 3.42461 2.06353 -0.54937 0
M  V30 21 H 4.21904 0.750731 -1.5426 0
M  V30 22 H -0.686031 -2.42384 0.242012 0
M  V30 23 H -1.22833 0.908665 -1.45335 0
M  V30 24 H -3.04203 2.45725 -0.735227 0
M  V30 25 H -4.1483 -0.211083 2.30129 0
M  V30 26 H -0.151207 -1.32358 -2.40473 0
M  V30 27 H -1.68192 -2.00848 -2.00741 0
M  V30 END ATOM
M  V30 BEGIN BOND
M  V30 1 1 1 2
M  V30 2 1 2 3
M  V30 3 1 3 4
M  V30 4 1 4 5
M  V30 5 2 5 6
M  V30 6 1 6 7
M  V30 7 1 6 8
M  V30 8 1 8 9
M  V30 9 2 9 10
M  V30 10 1 10 11
M  V30 11 2 11 12
M  V30 12 1 12 13
M  V30 13 2 13 14
M  V30 14 1 14 15
M  V30 15 1 12 16
M  V30 16 1 8 17
M  V30 17 2 7 3
M  V30 18 1 14 9
M  V30 19 1 1 18
M  V30 20 1 1 19
M  V30 21 1 2 20
M  V30 22 1 2 21
M  V30 23 1 8 22
M  V30 24 1 10 23
M  V30 25 1 11 24
M  V30 26 1 13 25
M  V30 27 1 17 26
M  V30 28 1 17 27
M  V30 END BOND
M  V30 END CTAB
M  END
