
     RDKit          3D

  0  0  0  0  0  0  0  0  0  0999 V3000
M  V30 BEGIN CTAB
M  V30 COUNTS 37 38 0 0 0
M  V30 BEGIN ATOM
M  V30 1 N 4.6642 -0.859444 -1.95429 0
M  V30 2 C 4.09011 -0.219439 -0.84075 0
M  V30 3 C 2.73238 0.0741193 -0.822959 0
M  V30 4 C 2.15523 0.696584 0.251465 0
M  V30 5 C 2.95288 1.03005 1.32556 0
M  V30 6 C 4.31661 0.747711 1.33452 0
M  V30 7 C 4.90213 0.115757 0.243529 0
M  V30 8 N 6.28797 -0.172064 0.250711 0
M  V30 9 S 0.438915 1.05226 0.240927 0
M  V30 10 O 0.230806 2.28629 1.05693 0
M  V30 11 O -0.00149377 1.2674 -1.19249 0
M  V30 12 N -0.480401 -0.229338 0.895296 0
M  V30 13 C -1.73994 -0.28822 0.738565 0
M  V30 14 C -2.45871 -1.46548 1.35802 0
M  V30 15 C -3.81569 -1.62379 0.664222 0
M  V30 16 C -4.69117 -0.435895 0.898104 0
M  V30 17 C -4.75859 0.527481 -0.24693 0
M  V30 18 C -3.44566 0.712991 -0.958287 0
M  V30 19 N -2.34844 0.752102 0.00497455 0
M  V30 20 H 4.9695 -1.86075 -1.83697 0
M  V30 21 H 4.79178 -0.377851 -2.87138 0
M  V30 22 H 2.11501 -0.19596 -1.67995 0
M  V30 23 H 2.47815 1.51963 2.16126 0
M  V30 24 H 4.94677 1.01111 2.183 0
M  V30 25 H 6.697 -0.616762 1.08984 0
M  V30 26 H 6.85062 0.0707731 -0.583242 0
M  V30 27 H -1.86909 -2.38716 1.18416 0
M  V30 28 H -2.57435 -1.28351 2.42338 0
M  V30 29 H -4.29687 -2.509 1.13526 0
M  V30 30 H -3.68703 -1.74646 -0.423108 0
M  V30 31 H -4.40202 0.113317 1.81819 0
M  V30 32 H -5.73686 -0.789904 1.08532 0
M  V30 33 H -5.5712 0.285265 -0.939835 0
M  V30 34 H -5.02149 1.53792 0.185056 0
M  V30 35 H -3.42396 1.66213 -1.54888 0
M  V30 36 H -3.34019 -0.101836 -1.69201 0
M  V30 37 H -1.95692 1.69996 0.18199 0
M  V30 END ATOM
M  V30 BEGIN BOND
M  V30 1 1 1 2
M  V30 2 2 2 3
M  V30 3 1 3 4
M  V30 4 2 4 5
M  V30 5 1 5 6
M  V30 6 2 6 7
M  V30 7 1 7 8
M  V30 8 1 4 9
M  V30 9 2 9 10
M  V30 10 2 9 11
M  V30 11 1 9 12
M  V30 12 2 12 13 CFG=2
M  V30 13 1 13 14
M  V30 14 1 14 15
M  V30 15 1 15 16
M  V30 16 1 16 17
M  V30 17 1 17 18
M  V30 18 1 18 19
M  V30 19 1 7 2
M  V30 20 1 19 13
M  V30 21 1 1 20
M  V30 22 1 1 21
M  V30 23 1 3 22
M  V30 24 1 5 23
M  V30 25 1 6 24
M  V30 26 1 8 25
M  V30 27 1 8 26
M  V30 28 1 14 27
M  V30 29 1 14 28
M  V30 30 1 15 29
M  V30 31 1 15 30
M  V30 32 1 16 31
M  V30 33 1 16 32
M  V30 34 1 17 33
M  V30 35 1 17 34
M  V30 36 1 18 35
M  V30 37 1 18 36
M  V30 38 1 19 37
M  V30 END BOND
M  V30 END CTAB
M  END
