
     RDKit          3D

  0  0  0  0  0  0  0  0  0  0999 V3000
M  V30 BEGIN CTAB
M  V30 COUNTS 27 28 0 0 0
M  V30 BEGIN ATOM
M  V30 1 C 3.30022 1.10935 -0.496331 0
M  V30 2 C 2.87615 -0.338221 -0.282788 0
M  V30 3 C 1.8759 -0.539499 0.813543 0
M  V30 4 N 0.852256 -0.718289 -0.200033 0
M  V30 5 C 1.84146 -0.782422 -1.26578 0
M  V30 6 C -0.568235 -0.810798 -0.263356 0
M  V30 7 N -1.20868 -1.8982 -0.746762 0
M  V30 8 C -2.54729 -1.98251 -0.805185 0
M  V30 9 C -3.29136 -0.921803 -0.355885 0
M  V30 10 C -2.71271 0.232533 0.155632 0
M  V30 11 C -1.33509 0.258743 0.189415 0
M  V30 12 N -0.714093 1.4287 0.708401 0
M  V30 13 N -3.5339 1.30151 0.607266 0
M  V30 14 H 3.32969 1.59597 0.499791 0
M  V30 15 H 2.58512 1.63708 -1.18922 0
M  V30 16 H 4.29511 1.08483 -0.989729 0
M  V30 17 H 3.7065 -1.05454 -0.225943 0
M  V30 18 H 1.98126 -1.48243 1.38324 0
M  V30 19 H 1.77215 0.371302 1.42393 0
M  V30 20 H 1.93054 -1.81631 -1.65349 0
M  V30 21 H 1.60454 -0.0229526 -2.05899 0
M  V30 22 H -3.05146 -2.85672 -1.19362 0
M  V30 23 H -4.36868 -0.952381 -0.38667 0
M  V30 24 H -0.706819 1.61059 1.72213 0
M  V30 25 H -0.265985 2.09384 0.00979249 0
M  V30 26 H -4.08781 1.29712 1.47425 0
M  V30 27 H -3.55877 2.15552 -0.0159696 0
M  V30 END ATOM
M  V30 BEGIN BOND
M  V30 1 1 1 2
M  V30 2 1 2 3
M  V30 3 1 3 4
M  V30 4 1 4 5
M  V30 5 1 4 6
M  V30 6 2 6 7
M  V30 7 1 7 8
M  V30 8 2 8 9
M  V30 9 1 9 10
M  V30 10 2 10 11
M  V30 11 1 11 12
M  V30 12 1 10 13
M  V30 13 1 5 2
M  V30 14 1 11 6
M  V30 15 1 1 14
M  V30 16 1 1 15
M  V30 17 1 1 16
M  V30 18 1 2 17
M  V30 19 1 3 18
M  V30 20 1 3 19
M  V30 21 1 5 20
M  V30 22 1 5 21
M  V30 23 1 8 22
M  V30 24 1 9 23
M  V30 25 1 12 24
M  V30 26 1 12 25
M  V30 27 1 13 26
M  V30 28 1 13 27
M  V30 END BOND
M  V30 END CTAB
M  END
