
     RDKit          3D

  0  0  0  0  0  0  0  0  0  0999 V3000
M  V30 BEGIN CTAB
M  V30 COUNTS 27 27 0 0 0
M  V30 BEGIN ATOM
M  V30 1 N -3.88453 -0.918267 -0.541229 0
M  V30 2 C -3.29415 0.366501 -0.257494 0
M  V30 3 C -1.81398 0.396825 -0.440789 0
M  V30 4 C -1.10675 -0.600128 0.468963 0
M  V30 5 C 0.362297 -0.551804 0.269069 0
M  V30 6 N 1.27609 0.206838 0.896704 0
M  V30 7 N 2.48262 -0.0397813 0.437047 0
M  V30 8 C 2.37936 -0.983212 -0.519106 0
M  V30 9 N 1.07592 -1.29318 -0.617419 0
M  V30 10 N 3.48441 -1.50065 -1.24101 0
M  V30 11 C 3.70977 0.602473 0.891286 0
M  V30 12 C -1.33534 1.79977 -0.0967227 0
M  V30 13 H -3.21006 -1.63796 -0.840907 0
M  V30 14 H -4.56246 -1.23378 0.184051 0
M  V30 15 H -3.73761 1.09174 -0.969441 0
M  V30 16 H -3.5304 0.730473 0.762504 0
M  V30 17 H -1.49952 0.20665 -1.4861 0
M  V30 18 H -1.28673 -0.296078 1.53983 0
M  V30 19 H -1.53442 -1.60437 0.349123 0
M  V30 20 H 3.82892 -1.05269 -2.11562 0
M  V30 21 H 3.99921 -2.35122 -0.927517 0
M  V30 22 H 3.58667 0.967769 1.92727 0
M  V30 23 H 3.89473 1.44105 0.189165 0
M  V30 24 H 4.50304 -0.176496 0.850258 0
M  V30 25 H -1.9599 2.51569 -0.674834 0
M  V30 26 H -0.261219 1.93506 -0.274092 0
M  V30 27 H -1.56599 1.97876 0.987533 0
M  V30 END ATOM
M  V30 BEGIN BOND
M  V30 1 1 1 2
M  V30 2 1 2 3
M  V30 3 1 3 4
M  V30 4 1 4 5
M  V30 5 2 5 6
M  V30 6 1 6 7
M  V30 7 1 7 8
M  V30 8 2 8 9
M  V30 9 1 8 10
M  V30 10 1 7 11
M  V30 11 1 3 12
M  V30 12 1 9 5
M  V30 13 1 1 13
M  V30 14 1 1 14
M  V30 15 1 2 15
M  V30 16 1 2 16
M  V30 17 1 3 17
M  V30 18 1 4 18
M  V30 19 1 4 19
M  V30 20 1 10 20
M  V30 21 1 10 21
M  V30 22 1 11 22
M  V30 23 1 11 23
M  V30 24 1 11 24
M  V30 25 1 12 25
M  V30 26 1 12 26
M  V30 27 1 12 27
M  V30 END BOND
M  V30 END CTAB
M  END
