
     RDKit          3D

  0  0  0  0  0  0  0  0  0  0999 V3000
M  V30 BEGIN CTAB
M  V30 COUNTS 17 17 0 0 0
M  V30 BEGIN ATOM
M  V30 1 N 1.20333 -1.84797 0.531599 0
M  V30 2 C 1.35141 -0.500776 0.167588 0
M  V30 3 N 2.52106 -0.00917914 0.0366609 0
M  V30 4 O 2.67127 1.30026 -0.317141 0
M  V30 5 C 0.180865 0.316147 -0.0553138 0
M  V30 6 C -1.15722 -0.0230996 0.0341486 0
M  V30 7 N -1.60902 -1.32221 0.384641 0
M  V30 8 N -1.93435 1.03744 -0.253941 0
M  V30 9 C -1.08125 2.04177 -0.524062 0
M  V30 10 N 0.189573 1.61094 -0.405407 0
M  V30 11 H 0.989251 -2.57278 -0.171285 0
M  V30 12 H 1.31133 -2.11568 1.52279 0
M  V30 13 H 3.33281 1.66766 -0.957418 0
M  V30 14 H -1.60754 -2.10996 -0.293326 0
M  V30 15 H -1.96333 -1.53638 1.34705 0
M  V30 16 H -2.97774 1.02935 -0.25352 0
M  V30 17 H -1.42044 3.03448 -0.793059 0
M  V30 END ATOM
M  V30 BEGIN BOND
M  V30 1 1 1 2
M  V30 2 2 2 3 CFG=2
M  V30 3 1 3 4
M  V30 4 1 2 5
M  V30 5 2 5 6
M  V30 6 1 6 7
M  V30 7 1 6 8
M  V30 8 1 8 9
M  V30 9 2 9 10
M  V30 10 1 10 5
M  V30 11 1 1 11
M  V30 12 1 1 12
M  V30 13 1 4 13
M  V30 14 1 7 14
M  V30 15 1 7 15
M  V30 16 1 8 16
M  V30 17 1 9 17
M  V30 END BOND
M  V30 END CTAB
M  END
