
     RDKit          3D

  0  0  0  0  0  0  0  0  0  0999 V3000
M  V30 BEGIN CTAB
M  V30 COUNTS 45 45 0 0 0
M  V30 BEGIN ATOM
M  V30 1 C 3.84356 1.24671 -3.57826 0
M  V30 2 S 4.73567 -0.282594 -3.12473 0
M  V30 3 C 4.4514 -0.637707 -1.35156 0
M  V30 4 C 3.00992 -0.966074 -1.13469 0
M  V30 5 C 2.6808 -1.27436 0.297919 0 CFG=1
M  V30 6 C 1.25422 -1.59294 0.477084 0
M  V30 7 O 0.962731 -2.70994 0.957274 0
M  V30 8 N 0.25911 -0.696479 0.130236 0
M  V30 9 C -1.16365 -0.870271 0.248168 0
M  V30 10 C -1.78197 0.0521383 1.27855 0
M  V30 11 C -3.28391 -0.18366 1.35369 0
M  V30 12 C -3.74432 0.505109 2.64579 0
M  V30 13 C -3.46298 1.98532 2.56438 0
M  V30 14 C -2.03377 2.28745 2.19955 0
M  V30 15 C -1.58721 1.50619 0.962672 0
M  V30 16 C -1.91384 -0.891237 -1.02431 0
M  V30 17 N -1.82682 0.264422 -1.84268 0
M  V30 18 N 3.54148 -2.3857 0.731635 0
M  V30 19 H 3.86224 1.88063 -2.64735 0
M  V30 20 H 2.80639 0.962546 -3.79875 0
M  V30 21 H 4.34943 1.801 -4.3787 0
M  V30 22 H 4.74941 0.252762 -0.761479 0
M  V30 23 H 5.14259 -1.44398 -1.08053 0
M  V30 24 H 2.76478 -1.89215 -1.72185 0
M  V30 25 H 2.38917 -0.115224 -1.47666 0
M  V30 26 H 3.00997 -0.40795 0.90697 0
M  V30 27 H 0.55114 0.236785 -0.272292 0
M  V30 28 H -1.28809 -1.90514 0.698988 0
M  V30 29 H -1.3849 -0.222382 2.27779 0
M  V30 30 H -3.5372 -1.24383 1.40536 0
M  V30 31 H -3.80909 0.371516 0.538185 0
M  V30 32 H -3.32137 0.0430817 3.53743 0
M  V30 33 H -4.85559 0.390649 2.6472 0
M  V30 34 H -3.62298 2.4083 3.58513 0
M  V30 35 H -4.12056 2.4911 1.85358 0
M  V30 36 H -1.99006 3.36278 1.92109 0
M  V30 37 H -1.33191 2.11412 3.02514 0
M  V30 38 H -2.2934 1.82592 0.164702 0
M  V30 39 H -0.561188 1.79939 0.750294 0
M  V30 40 H -1.69397 -1.78629 -1.64156 0
M  V30 41 H -3.00666 -1.00541 -0.753641 0
M  V30 42 H -0.94506 0.30534 -2.40041 0
M  V30 43 H -2.61412 0.373943 -2.50111 0
M  V30 44 H 3.78242 -2.93142 -0.12146 0
M  V30 45 H 3.02819 -3.02247 1.37028 0
M  V30 END ATOM
M  V30 BEGIN BOND
M  V30 1 1 1 2
M  V30 2 1 2 3
M  V30 3 1 3 4
M  V30 4 1 4 5
M  V30 5 1 5 6
M  V30 6 2 6 7
M  V30 7 1 6 8
M  V30 8 1 8 9
M  V30 9 1 9 10
M  V30 10 1 10 11
M  V30 11 1 11 12
M  V30 12 1 12 13
M  V30 13 1 13 14
M  V30 14 1 14 15
M  V30 15 1 9 16
M  V30 16 1 16 17
M  V30 17 1 5 18
M  V30 18 1 15 10
M  V30 19 1 1 19
M  V30 20 1 1 20
M  V30 21 1 1 21
M  V30 22 1 3 22
M  V30 23 1 3 23
M  V30 24 1 4 24
M  V30 25 1 4 25
M  V30 26 1 5 26 CFG=1
M  V30 27 1 8 27
M  V30 28 1 9 28
M  V30 29 1 10 29
M  V30 30 1 11 30
M  V30 31 1 11 31
M  V30 32 1 12 32
M  V30 33 1 12 33
M  V30 34 1 13 34
M  V30 35 1 13 35
M  V30 36 1 14 36
M  V30 37 1 14 37
M  V30 38 1 15 38
M  V30 39 1 15 39
M  V30 40 1 16 40
M  V30 41 1 16 41
M  V30 42 1 17 42
M  V30 43 1 17 43
M  V30 44 1 18 44
M  V30 45 1 18 45
M  V30 END BOND
M  V30 END CTAB
M  END
