
     RDKit          3D

  0  0  0  0  0  0  0  0  0  0999 V3000
M  V30 BEGIN CTAB
M  V30 COUNTS 43 46 0 0 0
M  V30 BEGIN ATOM
M  V30 1 C -3.64807 -4.82053 -0.878782 0
M  V30 2 O -2.61208 -3.86647 -0.7292 0
M  V30 3 C -2.94482 -2.53512 -0.48528 0
M  V30 4 O -4.16477 -2.24469 -0.409365 0
M  V30 5 C -1.90394 -1.53889 -0.328283 0
M  V30 6 C -0.541549 -1.72624 -0.388652 0
M  V30 7 N 0.162763 -2.93041 -0.61729 0
M  V30 8 N 0.0807512 -0.533232 -0.188289 0
M  V30 9 C -0.8999 0.38157 -0.00579238 0
M  V30 10 C -2.14512 -0.203652 -0.085471 0
M  V30 11 N -3.29769 0.514945 0.065447 0
M  V30 12 C -3.24546 1.83414 0.29958 0
M  V30 13 C -4.41465 2.56458 0.452958 0
M  V30 14 C -4.35101 3.92176 0.693653 0
M  V30 15 C -3.11947 4.53791 0.779113 0
M  V30 16 C -1.96819 3.7866 0.622374 0
M  V30 17 C -1.99916 2.42002 0.379355 0
M  V30 18 N -0.860404 1.72013 0.232047 0
M  V30 19 C 1.49141 -0.290624 -0.172948 0
M  V30 20 C 2.33778 -1.11971 0.534734 0
M  V30 21 C 3.7086 -0.900545 0.561563 0
M  V30 22 C 4.27362 0.157503 -0.120876 0
M  V30 23 C 3.41631 0.979692 -0.825082 0
M  V30 24 C 2.04693 0.765972 -0.85562 0
M  V30 25 S 6.00775 0.434872 -0.0870434 0
M  V30 26 O 6.75371 -0.878761 0.0524508 0
M  V30 27 O 6.39997 1.05973 -1.41276 0
M  V30 28 N 6.48352 1.44886 1.19662 0
M  V30 29 H -3.9708 -4.94215 -1.92481 0
M  V30 30 H -4.46527 -4.51738 -0.204297 0
M  V30 31 H -3.22809 -5.79468 -0.543581 0
M  V30 32 H -0.0070241 -3.75791 -0.0238598 0
M  V30 33 H 0.850845 -2.97968 -1.38348 0
M  V30 34 H -5.39783 2.10606 0.390686 0
M  V30 35 H -5.26143 4.47592 0.810477 0
M  V30 36 H -3.02162 5.61154 0.968575 0
M  V30 37 H -0.967907 4.23861 0.683144 0
M  V30 38 H 1.88912 -1.95854 1.0757 0
M  V30 39 H 4.3545 -1.56307 1.123 0
M  V30 40 H 3.85188 1.82346 -1.37133 0
M  V30 41 H 1.37721 1.41446 -1.41017 0
M  V30 42 H 7.22845 1.01388 1.8112 0
M  V30 43 H 5.72114 1.89006 1.71959 0
M  V30 END ATOM
M  V30 BEGIN BOND
M  V30 1 1 1 2
M  V30 2 1 2 3
M  V30 3 2 3 4
M  V30 4 1 3 5
M  V30 5 2 5 6
M  V30 6 1 6 7
M  V30 7 1 6 8
M  V30 8 1 8 9
M  V30 9 2 9 10
M  V30 10 1 10 11
M  V30 11 2 11 12
M  V30 12 1 12 13
M  V30 13 2 13 14
M  V30 14 1 14 15
M  V30 15 2 15 16
M  V30 16 1 16 17
M  V30 17 2 17 18
M  V30 18 1 8 19
M  V30 19 2 19 20
M  V30 20 1 20 21
M  V30 21 2 21 22
M  V30 22 1 22 23
M  V30 23 2 23 24
M  V30 24 1 22 25
M  V30 25 2 25 26
M  V30 26 2 25 27
M  V30 27 1 25 28
M  V30 28 1 10 5
M  V30 29 1 17 12
M  V30 30 1 24 19
M  V30 31 1 18 9
M  V30 32 1 1 29
M  V30 33 1 1 30
M  V30 34 1 1 31
M  V30 35 1 7 32
M  V30 36 1 7 33
M  V30 37 1 13 34
M  V30 38 1 14 35
M  V30 39 1 15 36
M  V30 40 1 16 37
M  V30 41 1 20 38
M  V30 42 1 21 39
M  V30 43 1 23 40
M  V30 44 1 24 41
M  V30 45 1 28 42
M  V30 46 1 28 43
M  V30 END BOND
M  V30 END CTAB
M  END
