
     RDKit          3D

  0  0  0  0  0  0  0  0  0  0999 V3000
M  V30 BEGIN CTAB
M  V30 COUNTS 41 44 0 0 0
M  V30 BEGIN ATOM
M  V30 1 N 7.01332 0.631879 0.205969 0
M  V30 2 C 5.88575 1.52911 0.175727 0
M  V30 3 C 4.59404 0.840196 0.430714 0
M  V30 4 N 3.97345 0.623967 1.60449 0
M  V30 5 N 2.83204 -0.0348524 1.37105 0
M  V30 6 N 2.68136 -0.258771 0.0857211 0
M  V30 7 C 3.75296 0.269899 -0.518338 0
M  V30 8 C 1.54378 -0.952659 -0.488147 0
M  V30 9 C 0.697562 0.0729511 -1.19057 0
M  V30 10 C -0.681007 -0.52578 -1.48881 0
M  V30 11 N -1.35121 -0.648956 -0.214116 0
M  V30 12 C -0.507955 -0.913735 0.948324 0
M  V30 13 C 0.751897 -1.65439 0.561125 0
M  V30 14 C -2.75516 -0.526033 -0.0544171 0
M  V30 15 N -3.55346 -1.48918 0.431265 0
M  V30 16 C -4.90077 -1.31166 0.561754 0
M  V30 17 N -5.73012 -2.32875 1.07263 0
M  V30 18 N -5.43753 -0.143777 0.194354 0
M  V30 19 C -4.71811 0.865607 -0.297389 0
M  V30 20 C -3.34006 0.664508 -0.423391 0
M  V30 21 N -2.84562 1.79874 -0.929729 0
M  V30 22 C -3.85623 2.6485 -1.10576 0
M  V30 23 N -5.01543 2.10448 -0.727166 0
M  V30 24 H 7.80073 1.13892 -0.300066 0
M  V30 25 H 6.81577 -0.267628 -0.283221 0
M  V30 26 H 5.878 2.07784 -0.79531 0
M  V30 27 H 6.07194 2.33058 0.948878 0
M  V30 28 H 3.92369 0.249243 -1.57553 0
M  V30 29 H 1.95001 -1.71875 -1.18933 0
M  V30 30 H 1.16826 0.484331 -2.09217 0
M  V30 31 H 0.508461 0.891869 -0.453875 0
M  V30 32 H -0.601077 -1.47771 -2.03549 0
M  V30 33 H -1.17839 0.203923 -2.16646 0
M  V30 34 H -0.298993 0.0450464 1.45065 0
M  V30 35 H -1.04916 -1.54915 1.67959 0
M  V30 36 H 1.36066 -1.75805 1.47008 0
M  V30 37 H 0.437205 -2.67093 0.22402 0
M  V30 38 H -5.9578 -3.1409 0.463835 0
M  V30 39 H -6.11861 -2.29361 2.03095 0
M  V30 40 H -3.78018 3.65618 -1.50214 0
M  V30 41 H -5.964 2.53752 -0.753051 0
M  V30 END ATOM
M  V30 BEGIN BOND
M  V30 1 1 1 2
M  V30 2 1 2 3
M  V30 3 1 3 4
M  V30 4 2 4 5
M  V30 5 1 5 6
M  V30 6 1 6 7
M  V30 7 1 6 8
M  V30 8 1 8 9
M  V30 9 1 9 10
M  V30 10 1 10 11
M  V30 11 1 11 12
M  V30 12 1 12 13
M  V30 13 1 11 14
M  V30 14 2 14 15
M  V30 15 1 15 16
M  V30 16 1 16 17
M  V30 17 2 16 18
M  V30 18 1 18 19
M  V30 19 2 19 20
M  V30 20 1 20 21
M  V30 21 2 21 22
M  V30 22 1 22 23
M  V30 23 2 7 3
M  V30 24 1 13 8
M  V30 25 1 20 14
M  V30 26 1 23 19
M  V30 27 1 1 24
M  V30 28 1 1 25
M  V30 29 1 2 26
M  V30 30 1 2 27
M  V30 31 1 7 28
M  V30 32 1 8 29
M  V30 33 1 9 30
M  V30 34 1 9 31
M  V30 35 1 10 32
M  V30 36 1 10 33
M  V30 37 1 12 34
M  V30 38 1 12 35
M  V30 39 1 13 36
M  V30 40 1 13 37
M  V30 41 1 17 38
M  V30 42 1 17 39
M  V30 43 1 22 40
M  V30 44 1 23 41
M  V30 END BOND
M  V30 END CTAB
M  END
