
     RDKit          3D

  0  0  0  0  0  0  0  0  0  0999 V3000
M  V30 BEGIN CTAB
M  V30 COUNTS 45 47 0 0 0
M  V30 BEGIN ATOM
M  V30 1 N -3.1764 3.47151 -1.44436 0
M  V30 2 C -3.23487 2.23314 -0.753978 0
M  V30 3 N -2.10039 1.55538 -0.507327 0
M  V30 4 C -2.13476 0.363711 0.154541 0
M  V30 5 N -0.949712 -0.357202 0.421203 0
M  V30 6 C 0.359664 0.116012 0.0118405 0
M  V30 7 C 1.40299 -0.883256 0.448681 0
M  V30 8 C 2.76902 -0.466797 0.0644081 0
M  V30 9 C 3.29969 -0.840394 -1.14649 0
M  V30 10 C 4.59287 -0.421402 -1.46118 0
M  V30 11 C 5.33374 0.346236 -0.59528 0
M  V30 12 C 4.75868 0.699122 0.613864 0
M  V30 13 C 3.48922 0.29824 0.943456 0
M  V30 14 S 6.93404 0.851905 -1.01007 0
M  V30 15 O 7.06154 1.00867 -2.50727 0
M  V30 16 O 7.31561 2.14947 -0.370452 0
M  V30 17 N 8.06891 -0.346149 -0.458013 0
M  V30 18 C -3.34731 -0.098415 0.546006 0
M  V30 19 C -4.52974 0.626912 0.278557 0
M  V30 20 N -4.44302 1.78185 -0.368902 0
M  V30 21 C -5.78025 -0.00245741 0.767941 0
M  V30 22 C -5.83738 -1.39816 0.210506 0
M  V30 23 C -4.58455 -2.1546 0.483147 0
M  V30 24 C -3.55816 -1.35642 1.26314 0
M  V30 25 H -3.19004 4.35893 -0.863801 0
M  V30 26 H -3.12203 3.49199 -2.49005 0
M  V30 27 H -0.988399 -1.25725 0.925218 0
M  V30 28 H 0.54249 1.0666 0.563237 0
M  V30 29 H 0.411616 0.327228 -1.07311 0
M  V30 30 H 1.15767 -1.87969 0.00922164 0
M  V30 31 H 1.30317 -0.987797 1.55965 0
M  V30 32 H 2.75327 -1.44401 -1.85938 0
M  V30 33 H 5.04654 -0.695581 -2.40674 0
M  V30 34 H 5.36898 1.31227 1.28911 0
M  V30 35 H 3.06983 0.586445 1.88646 0
M  V30 36 H 7.69459 -0.673436 0.471935 0
M  V30 37 H 9.03086 0.0475709 -0.371018 0
M  V30 38 H -6.66287 0.578963 0.438 0
M  V30 39 H -5.72327 -0.0824837 1.87629 0
M  V30 40 H -6.69514 -1.97245 0.65261 0
M  V30 41 H -6.07599 -1.32061 -0.874566 0
M  V30 42 H -4.78687 -3.11594 1.01873 0
M  V30 43 H -4.10599 -2.38455 -0.511617 0
M  V30 44 H -2.70556 -1.98366 1.45572 0
M  V30 45 H -4.03229 -1.14944 2.26747 0
M  V30 END ATOM
M  V30 BEGIN BOND
M  V30 1 1 1 2
M  V30 2 2 2 3
M  V30 3 1 3 4
M  V30 4 1 4 5
M  V30 5 1 5 6
M  V30 6 1 6 7
M  V30 7 1 7 8
M  V30 8 2 8 9
M  V30 9 1 9 10
M  V30 10 2 10 11
M  V30 11 1 11 12
M  V30 12 2 12 13
M  V30 13 1 11 14
M  V30 14 2 14 15
M  V30 15 2 14 16
M  V30 16 1 14 17
M  V30 17 2 4 18
M  V30 18 1 18 19
M  V30 19 2 19 20
M  V30 20 1 19 21
M  V30 21 1 21 22
M  V30 22 1 22 23
M  V30 23 1 23 24
M  V30 24 1 20 2
M  V30 25 1 13 8
M  V30 26 1 24 18
M  V30 27 1 1 25
M  V30 28 1 1 26
M  V30 29 1 5 27
M  V30 30 1 6 28
M  V30 31 1 6 29
M  V30 32 1 7 30
M  V30 33 1 7 31
M  V30 34 1 9 32
M  V30 35 1 10 33
M  V30 36 1 12 34
M  V30 37 1 13 35
M  V30 38 1 17 36
M  V30 39 1 17 37
M  V30 40 1 21 38
M  V30 41 1 21 39
M  V30 42 1 22 40
M  V30 43 1 22 41
M  V30 44 1 23 42
M  V30 45 1 23 43
M  V30 46 1 24 44
M  V30 47 1 24 45
M  V30 END BOND
M  V30 END CTAB
M  END
