
     RDKit          3D

  0  0  0  0  0  0  0  0  0  0999 V3000
M  V30 BEGIN CTAB
M  V30 COUNTS 72 77 0 0 0
M  V30 BEGIN ATOM
M  V30 1 N -8.16955 2.25543 -2.57685 0
M  V30 2 C -8.10019 1.61098 -1.31883 0
M  V30 3 N -6.93786 1.21709 -0.750266 0
M  V30 4 C -6.92025 0.610988 0.441411 0
M  V30 5 C -8.1303 0.390514 1.09252 0
M  V30 6 N -7.87693 -0.215879 2.24269 0
M  V30 7 C -6.53939 -0.374491 2.31614 0
M  V30 8 N -5.94981 0.124897 1.22617 0
M  V30 9 C -4.54053 0.128212 0.96761 0 CFG=2
M  V30 10 O -4.16052 1.07444 0.00729489 0
M  V30 11 C -2.83004 0.784263 -0.16786 0 CFG=2
M  V30 12 C -2.21981 1.5004 -1.34984 0
M  V30 13 O -2.84743 1.17003 -2.53498 0
M  V30 14 C -2.74178 -0.720202 -0.316974 0 CFG=1
M  V30 15 O -1.61277 -1.14947 0.333386 0
M  V30 16 P -0.582551 -2.0512 -0.648089 0
M  V30 17 O -0.583919 -1.38694 -2.18515 0
M  V30 18 O -1.20345 -3.44529 -0.763931 0
M  V30 19 O 0.941247 -2.23066 0.00225448 0
M  V30 20 C 1.9105 -1.48629 -0.664495 0
M  V30 21 C 3.28036 -1.68185 -0.0371998 0 CFG=1
M  V30 22 O 4.25738 -0.962075 -0.671 0
M  V30 23 C 5.01358 -0.314056 0.303373 0 CFG=2
M  V30 24 C 3.93712 0.0946488 1.28963 0 CFG=2
M  V30 25 O 4.46314 0.417249 2.53278 0
M  V30 26 C 3.19663 -1.22868 1.39018 0 CFG=2
M  V30 27 O 3.89514 -2.02273 2.26926 0
M  V30 28 P 2.98384 -2.5297 3.58601 0
M  V30 29 O 3.28993 -4.14292 3.99687 0
M  V30 30 O 1.33647 -2.24333 3.37908 0
M  V30 31 O 3.42413 -1.69142 4.78794 0
M  V30 32 N 5.71704 0.834624 -0.22478 0
M  V30 33 C 5.42327 2.12664 -0.00470905 0
M  V30 34 N 6.32715 2.86668 -0.682958 0
M  V30 35 C 7.18778 2.05174 -1.3284 0
M  V30 36 C 6.78823 0.75978 -1.02835 0
M  V30 37 N 7.48286 -0.278645 -1.54921 0
M  V30 38 C 8.5365 -0.00640768 -2.33968 0
M  V30 39 N 8.93016 1.24403 -2.6353 0
M  V30 40 C 8.27132 2.32694 -2.14131 0
M  V30 41 N 8.68393 3.64696 -2.45113 0
M  V30 42 C -4.01845 -1.16291 0.409403 0 CFG=1
M  V30 43 O -3.7287 -2.00575 1.46156 0
M  V30 44 C -9.31259 0.789517 0.517435 0
M  V30 45 O -10.404 0.572408 1.14064 0
M  V30 46 N -9.27624 1.39406 -0.680823 0
M  V30 47 H -8.14731 3.28222 -2.63841 0
M  V30 48 H -8.24253 1.68147 -3.4293 0
M  V30 49 H -6.02207 -0.832637 3.12681 0
M  V30 50 H -3.93543 0.378104 1.88257 0
M  V30 51 H -2.2676 1.0867 0.736972 0
M  V30 52 H -1.13325 1.33539 -1.35021 0
M  V30 53 H -2.37693 2.58738 -1.17666 0
M  V30 54 H -2.21894 1.25556 -3.29077 0
M  V30 55 H -2.76659 -1.04837 -1.37407 0
M  V30 56 H -0.675716 -2.02165 -2.91292 0
M  V30 57 H 1.97786 -1.91818 -1.69287 0
M  V30 58 H 1.65859 -0.430781 -0.775211 0
M  V30 59 H 3.51934 -2.75575 -0.144499 0
M  V30 60 H 5.6833 -1.01571 0.843056 0
M  V30 61 H 3.29359 0.892754 0.865956 0
M  V30 62 H 4.12137 1.31883 2.79161 0
M  V30 63 H 2.15707 -1.08709 1.74281 0
M  V30 64 H 4.19869 -4.38891 3.73571 0
M  V30 65 H 0.92544 -3.10427 3.0882 0
M  V30 66 H 4.62709 2.55525 0.592478 0
M  V30 67 H 9.07339 -0.879159 -2.74227 0
M  V30 68 H 8.01803 4.43962 -2.37824 0
M  V30 69 H 9.65542 3.84515 -2.75541 0
M  V30 70 H -4.71572 -1.59897 -0.31259 0
M  V30 71 H -2.79831 -1.93269 1.78488 0
M  V30 72 H -10.1995 1.69409 -1.10725 0
M  V30 END ATOM
M  V30 BEGIN BOND
M  V30 1 1 1 2
M  V30 2 2 2 3
M  V30 3 1 3 4
M  V30 4 2 4 5
M  V30 5 1 5 6
M  V30 6 2 6 7
M  V30 7 1 7 8
M  V30 8 1 8 9
M  V30 9 1 9 10
M  V30 10 1 10 11
M  V30 11 1 11 12
M  V30 12 1 12 13
M  V30 13 1 11 14
M  V30 14 1 14 15
M  V30 15 1 15 16
M  V30 16 1 16 17
M  V30 17 2 16 18
M  V30 18 1 16 19
M  V30 19 1 19 20
M  V30 20 1 20 21
M  V30 21 1 21 22
M  V30 22 1 22 23
M  V30 23 1 23 24
M  V30 24 1 24 25
M  V30 25 1 24 26
M  V30 26 1 26 27
M  V30 27 1 27 28
M  V30 28 1 28 29
M  V30 29 1 28 30
M  V30 30 2 28 31
M  V30 31 1 23 32
M  V30 32 1 32 33
M  V30 33 2 33 34
M  V30 34 1 34 35
M  V30 35 2 35 36
M  V30 36 1 36 37
M  V30 37 2 37 38
M  V30 38 1 38 39
M  V30 39 2 39 40
M  V30 40 1 40 41
M  V30 41 1 14 42
M  V30 42 1 42 43
M  V30 43 1 5 44
M  V30 44 2 44 45
M  V30 45 1 44 46
M  V30 46 1 46 2
M  V30 47 1 8 4
M  V30 48 1 42 9
M  V30 49 1 26 21
M  V30 50 1 36 32
M  V30 51 1 40 35
M  V30 52 1 1 47
M  V30 53 1 1 48
M  V30 54 1 7 49
M  V30 55 1 9 50 CFG=1
M  V30 56 1 11 51 CFG=1
M  V30 57 1 12 52
M  V30 58 1 12 53
M  V30 59 1 13 54
M  V30 60 1 14 55 CFG=3
M  V30 61 1 17 56
M  V30 62 1 20 57
M  V30 63 1 20 58
M  V30 64 1 21 59 CFG=1
M  V30 65 1 23 60 CFG=1
M  V30 66 1 24 61 CFG=3
M  V30 67 1 25 62
M  V30 68 1 26 63 CFG=1
M  V30 69 1 29 64
M  V30 70 1 30 65
M  V30 71 1 33 66
M  V30 72 1 38 67
M  V30 73 1 41 68
M  V30 74 1 41 69
M  V30 75 1 42 70 CFG=3
M  V30 76 1 43 71
M  V30 77 1 46 72
M  V30 END BOND
M  V30 END CTAB
M  END
