
     RDKit          3D

  0  0  0  0  0  0  0  0  0  0999 V3000
M  V30 BEGIN CTAB
M  V30 COUNTS 130 133 0 0 0
M  V30 BEGIN ATOM
M  V30 1 C -9.91839 -0.958003 -2.21701 0 CFG=1
M  V30 2 N -9.0655 -1.56447 -3.26557 0
M  V30 3 C -10.667 -2.10054 -1.63453 0
M  V30 4 C -11.6143 -1.70694 -0.548332 0
M  V30 5 C -12.3445 -2.94277 -0.0283806 0
M  V30 6 N -13.2633 -2.58479 1.00915 0
M  V30 7 C -12.9232 -2.14761 2.30335 0
M  V30 8 N -13.9107 -2.21089 3.3377 0
M  V30 9 N -11.7811 -1.69155 2.64386 0
M  V30 10 C -9.0369 -0.241634 -1.252 0
M  V30 11 O -9.49468 0.763942 -0.670922 0
M  V30 12 N -7.72277 -0.670907 -0.988909 0
M  V30 13 C -6.78344 -0.00779428 -0.0783096 0 CFG=1
M  V30 14 C -6.76668 -0.785803 1.23711 0
M  V30 15 C -5.82515 -0.0856671 2.18613 0
M  V30 16 C -8.15109 -0.633403 1.86296 0
M  V30 17 C -5.44909 0.0286602 -0.665837 0
M  V30 18 O -5.30363 -0.723552 -1.71875 0
M  V30 19 N -4.30937 0.741107 -0.281701 0
M  V30 20 C -3.04143 0.620471 -1.01198 0 CFG=1
M  V30 21 C -2.75252 1.76819 -1.90727 0
M  V30 22 C -2.63808 3.09109 -1.30976 0
M  V30 23 C -1.39189 3.54416 -0.911334 0
M  V30 24 C -1.18508 4.78332 -0.358572 0
M  V30 25 C -2.29827 5.59396 -0.205355 0
M  V30 26 O -2.10343 6.86496 0.357398 0
M  V30 27 C -3.54076 5.16367 -0.591941 0
M  V30 28 C -3.72284 3.91885 -1.14399 0
M  V30 29 C -1.94132 0.192255 -0.136329 0
M  V30 30 O -2.15551 0.07506 1.09165 0
M  V30 31 N -0.640022 -0.106126 -0.59093 0
M  V30 32 C 0.407777 -0.53188 0.29482 0 CFG=1
M  V30 33 C 0.667579 -2.0288 0.171588 0
M  V30 34 C 1.07234 -2.38437 -1.2278 0
M  V30 35 C -0.479248 -2.82332 0.71544 0
M  V30 36 C 1.69676 0.153243 0.126636 0
M  V30 37 O 1.74041 1.08364 -0.751422 0
M  V30 38 N 2.83807 -0.175338 0.875038 0
M  V30 39 C 4.09492 0.598106 0.607452 0 CFG=1
M  V30 40 C 4.57969 0.927964 1.9782 0
M  V30 41 C 5.79487 1.73528 2.10257 0
M  V30 42 C 6.39718 2.07449 3.34834 0
M  V30 43 N 7.47009 2.83381 3.12995 0
M  V30 44 C 7.59037 2.9992 1.79569 0
M  V30 45 N 6.58858 2.3397 1.22078 0
M  V30 46 C 4.92947 -0.450512 -0.08832 0
M  V30 47 O 4.95062 -1.58925 0.433254 0
M  V30 48 N 5.6561 -0.210712 -1.27005 0
M  V30 49 C 5.77315 1.0276 -2.03141 0
M  V30 50 C 5.79782 0.577333 -3.45469 0
M  V30 51 C 6.35714 -0.805422 -3.44538 0
M  V30 52 C 6.42015 -1.19443 -1.99882 0 CFG=1
M  V30 53 C 7.81995 -1.23605 -1.53673 0
M  V30 54 O 8.66956 -1.78879 -2.34771 0
M  V30 55 N 8.33743 -0.757813 -0.34268 0
M  V30 56 C 9.78122 -0.882742 -0.0733003 0 CFG=1
M  V30 57 C 10.2657 0.358402 0.613144 0
M  V30 58 C 11.7022 0.319069 0.891671 0
M  V30 59 C 12.6172 0.718204 -0.0954308 0
M  V30 60 C 13.9713 0.720425 0.19485 0
M  V30 61 C 14.4471 0.339211 1.43166 0
M  V30 62 C 13.5472 -0.054521 2.40635 0
M  V30 63 C 12.2034 -0.0544479 2.11298 0
M  V30 64 C 9.9885 -2.10858 0.761622 0
M  V30 65 O 11.2624 -2.59332 1.00449 0
M  V30 66 O 9.01346 -2.71385 1.24478 0
M  V30 67 H -10.5776 -0.249695 -2.70521 0
M  V30 68 H -9.6008 -2.2846 -3.79807 0
M  V30 69 H -8.75206 -0.791351 -3.90586 0
M  V30 70 H -11.1687 -2.62747 -2.49453 0
M  V30 71 H -9.91762 -2.85335 -1.24189 0
M  V30 72 H -12.3976 -1.02028 -0.91573 0
M  V30 73 H -11.0704 -1.19608 0.243498 0
M  V30 74 H -12.9023 -3.3744 -0.877527 0
M  V30 75 H -11.6232 -3.73784 0.278187 0
M  V30 76 H -14.316 -2.65085 0.807752 0
M  V30 77 H -14.2258 -1.28229 3.72887 0
M  V30 78 H -14.2621 -3.12332 3.65765 0
M  V30 79 H -11.4875 -1.36172 3.57328 0
M  V30 80 H -7.37686 -1.52112 -1.47169 0
M  V30 81 H -7.15859 0.980098 0.151877 0
M  V30 82 H -6.4815 -1.83892 1.07097 0
M  V30 83 H -5.97496 1.00708 2.10069 0
M  V30 84 H -4.78299 -0.361065 2.02919 0
M  V30 85 H -6.13932 -0.299969 3.25992 0
M  V30 86 H -8.92216 -1.21879 1.35513 0
M  V30 87 H -8.08299 -0.944792 2.95055 0
M  V30 88 H -8.3547 0.453764 1.91293 0
M  V30 89 H -4.31261 1.38409 0.517629 0
M  V30 90 H -3.20393 -0.260047 -1.72288 0
M  V30 91 H -3.56354 1.83632 -2.68444 0
M  V30 92 H -1.83924 1.48247 -2.5046 0
M  V30 93 H -0.484674 2.92423 -1.01343 0
M  V30 94 H -0.222437 5.17167 -0.0357418 0
M  V30 95 H -2.88026 7.47279 0.478046 0
M  V30 96 H -4.42584 5.80174 -0.47502 0
M  V30 97 H -4.73819 3.60942 -1.44341 0
M  V30 98 H -0.440386 -0.00795373 -1.60756 0
M  V30 99 H 0.0995606 -0.401438 1.37809 0
M  V30 100 H 1.54017 -2.23117 0.863295 0
M  V30 101 H 1.05632 -3.4853 -1.36611 0
M  V30 102 H 0.403812 -1.87484 -1.94762 0
M  V30 103 H 2.09171 -2.02447 -1.42655 0
M  V30 104 H -0.744096 -2.37004 1.69484 0
M  V30 105 H -1.35578 -2.8602 0.0520738 0
M  V30 106 H -0.150869 -3.87193 0.978234 0
M  V30 107 H 2.87819 -0.896812 1.59014 0
M  V30 108 H 3.89051 1.45925 -0.00345949 0
M  V30 109 H 3.78039 1.47178 2.57221 0
M  V30 110 H 4.6794 -0.0429565 2.56071 0
M  V30 111 H 5.99754 1.73268 4.2882 0
M  V30 112 H 8.09513 3.21662 3.88623 0
M  V30 113 H 8.40067 3.58999 1.36617 0
M  V30 114 H 6.68939 1.60311 -1.77168 0
M  V30 115 H 4.85569 1.65908 -1.88886 0
M  V30 116 H 6.51519 1.21719 -4.06003 0
M  V30 117 H 4.78067 0.62225 -3.93108 0
M  V30 118 H 5.63593 -1.45884 -3.99966 0
M  V30 119 H 7.35934 -0.85952 -3.93594 0
M  V30 120 H 5.96853 -2.21924 -1.89589 0
M  V30 121 H 7.76063 -0.315134 0.377197 0
M  V30 122 H 10.2854 -1.03637 -1.01326 0
M  V30 123 H 9.74293 0.449778 1.61834 0
M  V30 124 H 10.0248 1.26808 0.00516641 0
M  V30 125 H 12.2145 1.01377 -1.06029 0
M  V30 126 H 14.6775 1.03156 -0.579255 0
M  V30 127 H 15.5033 0.355159 1.61374 0
M  V30 128 H 13.8857 -0.367064 3.40929 0
M  V30 129 H 11.4912 -0.370998 2.88336 0
M  V30 130 H 11.4049 -3.53053 1.29636 0
M  V30 END ATOM
M  V30 BEGIN BOND
M  V30 1 1 1 2
M  V30 2 1 1 3
M  V30 3 1 3 4
M  V30 4 1 4 5
M  V30 5 1 5 6
M  V30 6 1 6 7
M  V30 7 1 7 8
M  V30 8 2 7 9 CFG=2
M  V30 9 1 1 10
M  V30 10 2 10 11
M  V30 11 1 10 12
M  V30 12 1 12 13
M  V30 13 1 13 14
M  V30 14 1 14 15
M  V30 15 1 14 16
M  V30 16 1 13 17
M  V30 17 2 17 18
M  V30 18 1 17 19
M  V30 19 1 19 20
M  V30 20 1 20 21
M  V30 21 1 21 22
M  V30 22 2 22 23
M  V30 23 1 23 24
M  V30 24 2 24 25
M  V30 25 1 25 26
M  V30 26 1 25 27
M  V30 27 2 27 28
M  V30 28 1 20 29
M  V30 29 2 29 30
M  V30 30 1 29 31
M  V30 31 1 31 32
M  V30 32 1 32 33
M  V30 33 1 33 34
M  V30 34 1 33 35
M  V30 35 1 32 36
M  V30 36 2 36 37
M  V30 37 1 36 38
M  V30 38 1 38 39
M  V30 39 1 39 40
M  V30 40 1 40 41
M  V30 41 2 41 42
M  V30 42 1 42 43
M  V30 43 1 43 44
M  V30 44 2 44 45
M  V30 45 1 39 46
M  V30 46 2 46 47
M  V30 47 1 46 48
M  V30 48 1 48 49
M  V30 49 1 49 50
M  V30 50 1 50 51
M  V30 51 1 51 52
M  V30 52 1 52 53
M  V30 53 2 53 54
M  V30 54 1 53 55
M  V30 55 1 55 56
M  V30 56 1 56 57
M  V30 57 1 57 58
M  V30 58 2 58 59
M  V30 59 1 59 60
M  V30 60 2 60 61
M  V30 61 1 61 62
M  V30 62 2 62 63
M  V30 63 1 56 64
M  V30 64 1 64 65
M  V30 65 2 64 66
M  V30 66 1 28 22
M  V30 67 1 45 41
M  V30 68 1 52 48
M  V30 69 1 63 58
M  V30 70 1 1 67 CFG=3
M  V30 71 1 2 68
M  V30 72 1 2 69
M  V30 73 1 3 70
M  V30 74 1 3 71
M  V30 75 1 4 72
M  V30 76 1 4 73
M  V30 77 1 5 74
M  V30 78 1 5 75
M  V30 79 1 6 76
M  V30 80 1 8 77
M  V30 81 1 8 78
M  V30 82 1 9 79
M  V30 83 1 12 80
M  V30 84 1 13 81 CFG=1
M  V30 85 1 14 82
M  V30 86 1 15 83
M  V30 87 1 15 84
M  V30 88 1 15 85
M  V30 89 1 16 86
M  V30 90 1 16 87
M  V30 91 1 16 88
M  V30 92 1 19 89
M  V30 93 1 20 90 CFG=3
M  V30 94 1 21 91
M  V30 95 1 21 92
M  V30 96 1 23 93
M  V30 97 1 24 94
M  V30 98 1 26 95
M  V30 99 1 27 96
M  V30 100 1 28 97
M  V30 101 1 31 98
M  V30 102 1 32 99 CFG=1
M  V30 103 1 33 100
M  V30 104 1 34 101
M  V30 105 1 34 102
M  V30 106 1 34 103
M  V30 107 1 35 104
M  V30 108 1 35 105
M  V30 109 1 35 106
M  V30 110 1 38 107
M  V30 111 1 39 108 CFG=3
M  V30 112 1 40 109
M  V30 113 1 40 110
M  V30 114 1 42 111
M  V30 115 1 43 112
M  V30 116 1 44 113
M  V30 117 1 49 114
M  V30 118 1 49 115
M  V30 119 1 50 116
M  V30 120 1 50 117
M  V30 121 1 51 118
M  V30 122 1 51 119
M  V30 123 1 52 120 CFG=3
M  V30 124 1 55 121
M  V30 125 1 56 122 CFG=3
M  V30 126 1 57 123
M  V30 127 1 57 124
M  V30 128 1 59 125
M  V30 129 1 60 126
M  V30 130 1 61 127
M  V30 131 1 62 128
M  V30 132 1 63 129
M  V30 133 1 65 130
M  V30 END BOND
M  V30 END CTAB
M  END
