
     RDKit          3D

  0  0  0  0  0  0  0  0  0  0999 V3000
M  V30 BEGIN CTAB
M  V30 COUNTS 37 38 0 0 0
M  V30 BEGIN ATOM
M  V30 1 N 4.90005 -0.709873 -1.18987 0
M  V30 2 C 3.84822 -0.999402 -0.26216 0
M  V30 3 C 2.57912 -0.268062 -0.636527 0
M  V30 4 N 1.5368 -0.565342 0.276322 0
M  V30 5 C 1.66911 -0.0696012 1.59537 0
M  V30 6 C 1.503 1.43398 1.65724 0
M  V30 7 O 0.234091 1.71241 2.11453 0
M  V30 8 C -0.757421 0.949994 1.55263 0
M  V30 9 C -0.59536 0.684403 0.0814953 0 CFG=1
M  V30 10 C 0.208169 -0.517186 -0.262809 0
M  V30 11 C -1.97589 0.471053 -0.450796 0
M  V30 12 C -2.52795 1.26717 -1.43085 0
M  V30 13 C -3.80193 1.07543 -1.92147 0
M  V30 14 N -4.56832 0.0746549 -1.44335 0
M  V30 15 C -4.07069 -0.736079 -0.477952 0
M  V30 16 C -2.79552 -0.554691 0.0218056 0
M  V30 17 N -4.87297 -1.78893 0.0282965 0
M  V30 18 H 5.1394 0.243945 -1.2924 0
M  V30 19 H 5.634 -1.37539 -1.2234 0
M  V30 20 H 3.62826 -2.08417 -0.360327 0
M  V30 21 H 4.16978 -0.785633 0.756895 0
M  V30 22 H 2.2619 -0.521094 -1.67645 0
M  V30 23 H 2.85459 0.821919 -0.656125 0
M  V30 24 H 2.67982 -0.298585 1.97864 0
M  V30 25 H 0.972526 -0.587187 2.29308 0
M  V30 26 H 1.6998 1.88151 0.649918 0
M  V30 27 H 2.23132 1.90159 2.3495 0
M  V30 28 H -0.954426 0.00297932 2.05791 0
M  V30 29 H -1.70821 1.55307 1.67531 0
M  V30 30 H -0.190977 1.56245 -0.467996 0
M  V30 31 H -0.311651 -1.44914 0.0569706 0
M  V30 32 H 0.310032 -0.544692 -1.37262 0
M  V30 33 H -1.9453 2.06991 -1.83199 0
M  V30 34 H -4.23549 1.71325 -2.69996 0
M  V30 35 H -2.41225 -1.20364 0.786364 0
M  V30 36 H -4.61127 -2.26324 0.917409 0
M  V30 37 H -5.72438 -2.09777 -0.473096 0
M  V30 END ATOM
M  V30 BEGIN BOND
M  V30 1 1 1 2
M  V30 2 1 2 3
M  V30 3 1 3 4
M  V30 4 1 4 5
M  V30 5 1 5 6
M  V30 6 1 6 7
M  V30 7 1 7 8
M  V30 8 1 8 9
M  V30 9 1 9 10
M  V30 10 1 9 11
M  V30 11 2 11 12
M  V30 12 1 12 13
M  V30 13 2 13 14
M  V30 14 1 14 15
M  V30 15 2 15 16
M  V30 16 1 15 17
M  V30 17 1 10 4
M  V30 18 1 16 11
M  V30 19 1 1 18
M  V30 20 1 1 19
M  V30 21 1 2 20
M  V30 22 1 2 21
M  V30 23 1 3 22
M  V30 24 1 3 23
M  V30 25 1 5 24
M  V30 26 1 5 25
M  V30 27 1 6 26
M  V30 28 1 6 27
M  V30 29 1 8 28
M  V30 30 1 8 29
M  V30 31 1 9 30 CFG=3
M  V30 32 1 10 31
M  V30 33 1 10 32
M  V30 34 1 12 33
M  V30 35 1 13 34
M  V30 36 1 16 35
M  V30 37 1 17 36
M  V30 38 1 17 37
M  V30 END BOND
M  V30 END CTAB
M  END
