
     RDKit          3D

  0  0  0  0  0  0  0  0  0  0999 V3000
M  V30 BEGIN CTAB
M  V30 COUNTS 45 46 0 0 0
M  V30 BEGIN ATOM
M  V30 1 O 2.97837 -1.12845 -1.54688 0
M  V30 2 C 3.61463 -0.93337 -0.485632 0
M  V30 3 C 4.78983 -0.037523 -0.547487 0
M  V30 4 N 5.44283 0.113485 0.727662 0
M  V30 5 C 5.79776 -0.496459 -1.58414 0
M  V30 6 C 4.27154 1.34189 -0.973431 0
M  V30 7 N 3.16076 -1.58446 0.690314 0
M  V30 8 C 2.02552 -2.4478 0.742387 0
M  V30 9 C 0.738645 -1.77004 0.335586 0
M  V30 10 C 0.424633 -0.589696 1.24232 0
M  V30 11 C -0.848867 0.02133 0.7806 0
M  V30 12 C -0.980609 1.03547 -0.157014 0
M  V30 13 C -2.31716 1.33651 -0.323262 0
M  V30 14 N -2.97301 0.501901 0.514385 0
M  V30 15 N -2.11084 -0.268433 1.16076 0
M  V30 16 C -4.38373 0.495845 0.641871 0
M  V30 17 C -5.11074 1.65711 0.780636 0
M  V30 18 C -6.48412 1.6331 0.90359 0
M  V30 19 C -7.16968 0.438636 0.890753 0
M  V30 20 C -6.44527 -0.72491 0.752084 0
M  V30 21 C -5.06014 -0.699981 0.628122 0
M  V30 22 N -2.89802 2.31122 -1.18519 0
M  V30 23 H 4.79782 0.536206 1.40127 0
M  V30 24 H 5.90668 -0.757909 1.02231 0
M  V30 25 H 5.87781 -1.59183 -1.62553 0
M  V30 26 H 6.78826 -0.11713 -1.25611 0
M  V30 27 H 5.55036 -0.0488994 -2.5815 0
M  V30 28 H 3.30052 1.5401 -0.469473 0
M  V30 29 H 4.97183 2.13109 -0.620582 0
M  V30 30 H 4.13542 1.31811 -2.05612 0
M  V30 31 H 3.72961 -1.38973 1.56232 0
M  V30 32 H 2.14716 -3.32668 0.056231 0
M  V30 33 H 1.88347 -2.80317 1.78149 0
M  V30 34 H 0.687282 -1.50245 -0.717981 0
M  V30 35 H -0.0793376 -2.51653 0.527985 0
M  V30 36 H 1.20688 0.170909 1.13444 0
M  V30 37 H 0.327597 -0.977658 2.27812 0
M  V30 38 H -0.174682 1.52936 -0.688793 0
M  V30 39 H -4.55933 2.58793 0.789083 0
M  V30 40 H -7.00932 2.56475 1.00966 0
M  V30 41 H -8.24852 0.381541 0.984933 0
M  V30 42 H -6.96157 -1.69372 0.738072 0
M  V30 43 H -4.50521 -1.61726 0.520267 0
M  V30 44 H -2.37754 3.17561 -1.45163 0
M  V30 45 H -3.85751 2.20199 -1.58124 0
M  V30 END ATOM
M  V30 BEGIN BOND
M  V30 1 2 1 2
M  V30 2 1 2 3
M  V30 3 1 3 4
M  V30 4 1 3 5
M  V30 5 1 3 6
M  V30 6 1 2 7
M  V30 7 1 7 8
M  V30 8 1 8 9
M  V30 9 1 9 10
M  V30 10 1 10 11
M  V30 11 1 11 12
M  V30 12 2 12 13
M  V30 13 1 13 14
M  V30 14 1 14 15
M  V30 15 1 14 16
M  V30 16 2 16 17
M  V30 17 1 17 18
M  V30 18 2 18 19
M  V30 19 1 19 20
M  V30 20 2 20 21
M  V30 21 1 13 22
M  V30 22 2 15 11
M  V30 23 1 21 16
M  V30 24 1 4 23
M  V30 25 1 4 24
M  V30 26 1 5 25
M  V30 27 1 5 26
M  V30 28 1 5 27
M  V30 29 1 6 28
M  V30 30 1 6 29
M  V30 31 1 6 30
M  V30 32 1 7 31
M  V30 33 1 8 32
M  V30 34 1 8 33
M  V30 35 1 9 34
M  V30 36 1 9 35
M  V30 37 1 10 36
M  V30 38 1 10 37
M  V30 39 1 12 38
M  V30 40 1 17 39
M  V30 41 1 18 40
M  V30 42 1 19 41
M  V30 43 1 20 42
M  V30 44 1 21 43
M  V30 45 1 22 44
M  V30 46 1 22 45
M  V30 END BOND
M  V30 END CTAB
M  END
