
     RDKit          3D

  0  0  0  0  0  0  0  0  0  0999 V3000
M  V30 BEGIN CTAB
M  V30 COUNTS 20 19 0 0 0
M  V30 BEGIN ATOM
M  V30 1 C -2.74539 1.23066 1.36097 0
M  V30 2 C -2.06723 1.16278 0.22432 0
M  V30 3 C -1.14663 0.033877 -0.0407067 0
M  V30 4 O 0.181878 0.454026 -0.215987 0
M  V30 5 N 1.23318 0.123859 0.551717 0
M  V30 6 C 2.34843 -0.238741 0.0209309 0
M  V30 7 N 2.457 -0.286532 -1.39129 0
M  V30 8 N 3.47896 -0.593993 0.823352 0
M  V30 9 C -1.66282 -0.781782 -1.19587 0
M  V30 10 H -3.40501 2.07416 1.50821 0
M  V30 11 H -2.64076 0.463594 2.11821 0
M  V30 12 H -2.18027 1.94618 -0.537952 0
M  V30 13 H -1.16049 -0.621774 0.851958 0
M  V30 14 H 3.07606 0.292302 -1.96372 0
M  V30 15 H 1.8329 -0.991715 -1.88274 0
M  V30 16 H 4.02169 -1.46581 0.672724 0
M  V30 17 H 3.77509 0.0343418 1.58477 0
M  V30 18 H -1.91881 -1.80902 -0.928563 0
M  V30 19 H -0.901424 -0.72087 -2.01152 0
M  V30 20 H -2.57636 -0.305545 -1.6073 0
M  V30 END ATOM
M  V30 BEGIN BOND
M  V30 1 2 1 2 CFG=2
M  V30 2 1 2 3
M  V30 3 1 3 4
M  V30 4 1 4 5
M  V30 5 2 5 6 CFG=2
M  V30 6 1 6 7
M  V30 7 1 6 8
M  V30 8 1 3 9
M  V30 9 1 1 10
M  V30 10 1 1 11
M  V30 11 1 2 12
M  V30 12 1 3 13
M  V30 13 1 7 14
M  V30 14 1 7 15
M  V30 15 1 8 16
M  V30 16 1 8 17
M  V30 17 1 9 18
M  V30 18 1 9 19
M  V30 19 1 9 20
M  V30 END BOND
M  V30 END CTAB
M  END
