
     RDKit          3D

  0  0  0  0  0  0  0  0  0  0999 V3000
M  V30 BEGIN CTAB
M  V30 COUNTS 66 69 0 0 0
M  V30 BEGIN ATOM
M  V30 1 C -3.17029 -2.57683 -1.60438 0 CFG=2
M  V30 2 C -4.25405 -1.55714 -1.3902 0
M  V30 3 C -4.23255 -1.0156 0.0104894 0
M  V30 4 N -5.25184 -0.0176289 0.246938 0
M  V30 5 C -6.62934 -0.252627 0.141279 0
M  V30 6 O -7.0362 -1.42179 -0.162961 0
M  V30 7 C -7.6198 0.774954 0.372236 0
M  V30 8 C -7.61714 2.00343 -0.215324 0
M  V30 9 C -8.56912 2.95015 0.204313 0
M  V30 10 C -9.48843 2.65832 1.17771 0
M  V30 11 C -9.47764 1.39792 1.76191 0
M  V30 12 C -8.56343 0.479372 1.36644 0
M  V30 13 C -6.76542 2.35627 -1.33213 0
M  V30 14 O -6.79511 3.69312 -1.81138 0
M  V30 15 O -5.98169 1.61805 -1.95039 0
M  V30 16 N -1.87545 -1.93054 -1.35573 0
M  V30 17 C -0.95688 -2.51116 -0.454113 0
M  V30 18 O -1.24796 -3.58239 0.13479 0
M  V30 19 C 0.327554 -1.9009 -0.186502 0
M  V30 20 C 0.596163 -0.607187 -0.539947 0
M  V30 21 C 1.82619 -0.00744988 -0.30281 0
M  V30 22 C 2.83538 -0.718877 0.311294 0
M  V30 23 N 4.09943 -0.112741 0.557664 0
M  V30 24 C 5.15262 -0.935858 1.10674 0
M  V30 25 C 6.38784 -0.134099 1.27351 0
M  V30 26 N 7.17012 0.169705 0.217197 0
M  V30 27 C 8.29872 0.887104 0.325269 0
M  V30 28 C 9.09146 1.19353 -0.760311 0
M  V30 29 N 8.70672 0.740626 -2.03937 0
M  V30 30 N 10.2028 1.91543 -0.565006 0
M  V30 31 C 10.5777 2.35557 0.657762 0
M  V30 32 N 11.7678 3.11644 0.788173 0
M  V30 33 N 9.78597 2.0427 1.69918 0
M  V30 34 C 8.65455 1.32544 1.60203 0
M  V30 35 N 7.88585 1.03143 2.66648 0
M  V30 36 C 6.74275 0.300564 2.53074 0
M  V30 37 C 2.5575 -2.01787 0.663907 0
M  V30 38 C 1.34371 -2.62785 0.436268 0
M  V30 39 C -3.22027 -3.07745 -3.00596 0
M  V30 40 O -4.33476 -3.72584 -3.48437 0
M  V30 41 O -2.23878 -2.90694 -3.75601 0
M  V30 42 H -3.27469 -3.39347 -0.891408 0
M  V30 43 H -4.03501 -0.727307 -2.11618 0
M  V30 44 H -5.24141 -1.97214 -1.69575 0
M  V30 45 H -4.36159 -1.88202 0.708395 0
M  V30 46 H -3.23743 -0.56366 0.171805 0
M  V30 47 H -4.94812 0.965915 0.543724 0
M  V30 48 H -8.60167 3.93401 -0.228298 0
M  V30 49 H -10.2307 3.35467 1.52375 0
M  V30 50 H -10.2079 1.15731 2.53518 0
M  V30 51 H -8.54256 -0.511382 1.81239 0
M  V30 52 H -7.63191 4.01001 -2.31884 0
M  V30 53 H -1.65966 -1.05171 -1.85342 0
M  V30 54 H -0.161102 -0.000537919 -1.02356 0
M  V30 55 H 1.99958 1.01455 -0.596193 0
M  V30 56 H 4.29604 0.88529 0.362171 0
M  V30 57 H 4.85472 -1.4529 2.03666 0
M  V30 58 H 5.3849 -1.70477 0.313458 0
M  V30 59 H 8.39977 1.4231 -2.75057 0
M  V30 60 H 8.72699 -0.263844 -2.27664 0
M  V30 61 H 11.6839 4.10583 1.08418 0
M  V30 62 H 12.6912 2.72311 0.601111 0
M  V30 63 H 6.15159 0.0863714 3.4179 0
M  V30 64 H 3.35625 -2.56922 1.14734 0
M  V30 65 H 1.11762 -3.64773 0.71101 0
M  V30 66 H -5.21343 -3.29081 -3.67233 0
M  V30 END ATOM
M  V30 BEGIN BOND
M  V30 1 1 1 2
M  V30 2 1 2 3
M  V30 3 1 3 4
M  V30 4 1 4 5
M  V30 5 2 5 6
M  V30 6 1 5 7
M  V30 7 2 7 8
M  V30 8 1 8 9
M  V30 9 2 9 10
M  V30 10 1 10 11
M  V30 11 2 11 12
M  V30 12 1 8 13
M  V30 13 1 13 14
M  V30 14 2 13 15
M  V30 15 1 1 16
M  V30 16 1 16 17
M  V30 17 2 17 18
M  V30 18 1 17 19
M  V30 19 2 19 20
M  V30 20 1 20 21
M  V30 21 2 21 22
M  V30 22 1 22 23
M  V30 23 1 23 24
M  V30 24 1 24 25
M  V30 25 2 25 26
M  V30 26 1 26 27
M  V30 27 2 27 28
M  V30 28 1 28 29
M  V30 29 1 28 30
M  V30 30 2 30 31
M  V30 31 1 31 32
M  V30 32 1 31 33
M  V30 33 2 33 34
M  V30 34 1 34 35
M  V30 35 2 35 36
M  V30 36 1 22 37
M  V30 37 2 37 38
M  V30 38 1 1 39
M  V30 39 1 39 40
M  V30 40 2 39 41
M  V30 41 1 12 7
M  V30 42 1 38 19
M  V30 43 1 36 25
M  V30 44 1 34 27
M  V30 45 1 1 42 CFG=1
M  V30 46 1 2 43
M  V30 47 1 2 44
M  V30 48 1 3 45
M  V30 49 1 3 46
M  V30 50 1 4 47
M  V30 51 1 9 48
M  V30 52 1 10 49
M  V30 53 1 11 50
M  V30 54 1 12 51
M  V30 55 1 14 52
M  V30 56 1 16 53
M  V30 57 1 20 54
M  V30 58 1 21 55
M  V30 59 1 23 56
M  V30 60 1 24 57
M  V30 61 1 24 58
M  V30 62 1 29 59
M  V30 63 1 29 60
M  V30 64 1 32 61
M  V30 65 1 32 62
M  V30 66 1 36 63
M  V30 67 1 37 64
M  V30 68 1 38 65
M  V30 69 1 40 66
M  V30 END BOND
M  V30 END CTAB
M  END
