
     RDKit          3D

  0  0  0  0  0  0  0  0  0  0999 V3000
M  V30 BEGIN CTAB
M  V30 COUNTS 44 47 0 0 0
M  V30 BEGIN ATOM
M  V30 1 N 6.59121 -2.08731 -0.960502 0
M  V30 2 C 5.25052 -1.68221 -0.766893 0
M  V30 3 C 4.18506 -2.55659 -0.807556 0
M  V30 4 C 2.86806 -2.1232 -0.611603 0
M  V30 5 C 2.59405 -0.808811 -0.371764 0
M  V30 6 C 3.68753 0.0516638 -0.336032 0
M  V30 7 C 4.97343 -0.344386 -0.522951 0
M  V30 8 C 1.26146 -0.258678 -0.155328 0
M  V30 9 C 0.139541 -1.08289 -0.1824 0
M  V30 10 C -1.10396 -0.535981 0.0250347 0
M  V30 11 N -1.16517 0.785966 0.245793 0
M  V30 12 C -0.101709 1.60496 0.277588 0
M  V30 13 N 1.1052 1.05414 0.0730048 0
M  V30 14 C -0.308186 3.01249 0.52613 0
M  V30 15 C -1.56482 3.50822 0.726585 0
M  V30 16 C -1.75329 4.8756 0.96688 0
M  V30 17 C -0.667054 5.72467 1.00132 0
M  V30 18 C 0.59045 5.21093 0.797856 0
M  V30 19 C 0.770654 3.85869 0.560813 0
M  V30 20 C -2.34627 -1.32387 0.0153376 0
M  V30 21 C -2.37652 -2.67823 -0.201907 0
M  V30 22 C -3.58905 -3.33713 -0.19347 0
M  V30 23 C -4.7988 -2.71314 0.0232176 0
M  V30 24 C -4.74299 -1.35275 0.239007 0
M  V30 25 C -3.55053 -0.685428 0.23385 0
M  V30 26 N -6.03735 -3.42871 0.0249238 0
M  V30 27 H 6.8829 -3.07467 -0.848732 0
M  V30 28 H 7.30775 -1.38514 -1.2212 0
M  V30 29 H 4.39638 -3.60688 -0.998473 0
M  V30 30 H 2.07285 -2.8488 -0.653827 0
M  V30 31 H 3.49491 1.11688 -0.144463 0
M  V30 32 H 5.7984 0.374726 -0.484617 0
M  V30 33 H 0.220927 -2.12493 -0.359572 0
M  V30 34 H -2.44946 2.87232 0.707572 0
M  V30 35 H -2.75004 5.2421 1.12153 0
M  V30 36 H -0.79276 6.79649 1.18757 0
M  V30 37 H 1.42584 5.86806 0.825019 0
M  V30 38 H 1.80118 3.52983 0.409056 0
M  V30 39 H -1.44011 -3.22834 -0.380534 0
M  V30 40 H -3.60678 -4.41744 -0.367374 0
M  V30 41 H -5.6974 -0.843009 0.412793 0
M  V30 42 H -3.56494 0.405403 0.412513 0
M  V30 43 H -6.924 -2.92486 -0.230396 0
M  V30 44 H -6.08713 -4.43976 0.273001 0
M  V30 END ATOM
M  V30 BEGIN BOND
M  V30 1 1 1 2
M  V30 2 2 2 3
M  V30 3 1 3 4
M  V30 4 2 4 5
M  V30 5 1 5 6
M  V30 6 2 6 7
M  V30 7 1 5 8
M  V30 8 2 8 9
M  V30 9 1 9 10
M  V30 10 2 10 11
M  V30 11 1 11 12
M  V30 12 2 12 13
M  V30 13 1 12 14
M  V30 14 2 14 15
M  V30 15 1 15 16
M  V30 16 2 16 17
M  V30 17 1 17 18
M  V30 18 2 18 19
M  V30 19 1 10 20
M  V30 20 2 20 21
M  V30 21 1 21 22
M  V30 22 2 22 23
M  V30 23 1 23 24
M  V30 24 2 24 25
M  V30 25 1 23 26
M  V30 26 1 7 2
M  V30 27 1 13 8
M  V30 28 1 19 14
M  V30 29 1 25 20
M  V30 30 1 1 27
M  V30 31 1 1 28
M  V30 32 1 3 29
M  V30 33 1 4 30
M  V30 34 1 6 31
M  V30 35 1 7 32
M  V30 36 1 9 33
M  V30 37 1 15 34
M  V30 38 1 16 35
M  V30 39 1 17 36
M  V30 40 1 18 37
M  V30 41 1 19 38
M  V30 42 1 21 39
M  V30 43 1 22 40
M  V30 44 1 24 41
M  V30 45 1 25 42
M  V30 46 1 26 43
M  V30 47 1 26 44
M  V30 END BOND
M  V30 END CTAB
M  END
