
     RDKit          3D

  0  0  0  0  0  0  0  0  0  0999 V3000
M  V30 BEGIN CTAB
M  V30 COUNTS 24 25 0 0 0
M  V30 BEGIN ATOM
M  V30 1 N -4.03256 0.427072 -1.02957 0
M  V30 2 C -2.65931 0.287813 -0.690449 0
M  V30 3 N -1.65148 0.78663 -1.42637 0
M  V30 4 C -0.338871 0.635309 -1.07232 0
M  V30 5 C 0.0502346 -0.0367644 0.060414 0
M  V30 6 C -0.992891 -0.564656 0.84112 0
M  V30 7 C -2.30369 -0.389803 0.448654 0
M  V30 8 N -3.35815 -0.933073 1.25365 0
M  V30 9 O 1.3477 -0.225602 0.474742 0
M  V30 10 C 2.46227 0.245607 -0.2073 0
M  V30 11 C 3.58426 -0.770814 -0.315354 0
M  V30 12 O 4.51803 0.255835 -0.0821572 0
M  V30 13 C 3.52745 0.899412 0.658992 0
M  V30 14 H -4.3701 1.38297 -1.31414 0
M  V30 15 H -4.72708 -0.3325 -1.01988 0
M  V30 16 H 0.44763 1.0549 -1.69632 0
M  V30 17 H -0.710882 -1.09757 1.73715 0
M  V30 18 H -3.56039 -1.95019 1.09866 0
M  V30 19 H -3.85103 -0.330595 1.92015 0
M  V30 20 H 2.33329 0.804418 -1.13393 0
M  V30 21 H 3.50119 -1.49131 0.507623 0
M  V30 22 H 3.69832 -1.24636 -1.30469 0
M  V30 23 H 3.53232 0.582996 1.70697 0
M  V30 24 H 3.55375 2.00628 0.584345 0
M  V30 END ATOM
M  V30 BEGIN BOND
M  V30 1 1 1 2
M  V30 2 2 2 3
M  V30 3 1 3 4
M  V30 4 2 4 5
M  V30 5 1 5 6
M  V30 6 2 6 7
M  V30 7 1 7 8
M  V30 8 1 5 9
M  V30 9 1 9 10
M  V30 10 1 10 11
M  V30 11 1 11 12
M  V30 12 1 12 13
M  V30 13 1 7 2
M  V30 14 1 13 10
M  V30 15 1 1 14
M  V30 16 1 1 15
M  V30 17 1 4 16
M  V30 18 1 6 17
M  V30 19 1 8 18
M  V30 20 1 8 19
M  V30 21 1 10 20
M  V30 22 1 11 21
M  V30 23 1 11 22
M  V30 24 1 13 23
M  V30 25 1 13 24
M  V30 END BOND
M  V30 END CTAB
M  END
