
     RDKit          3D

  0  0  0  0  0  0  0  0  0  0999 V3000
M  V30 BEGIN CTAB
M  V30 COUNTS 27 27 0 0 0
M  V30 BEGIN ATOM
M  V30 1 N -2.27996 1.46007 -1.41005 0
M  V30 2 C -2.61554 0.846097 -0.141248 0
M  V30 3 C -1.95836 -0.513089 -0.0660266 0
M  V30 4 C -0.482483 -0.421761 -0.169084 0
M  V30 5 C 0.155067 -1.12695 -1.168 0
M  V30 6 C 1.52779 -1.02995 -1.24836 0
M  V30 7 C 2.28148 -0.27701 -0.395693 0
M  V30 8 C 1.5836 0.412777 0.592474 0
M  V30 9 N 0.245844 0.334855 0.692076 0
M  V30 10 C 2.41457 1.23797 1.52621 0
M  V30 11 N 3.69849 -0.1922 -0.498261 0
M  V30 12 C -2.2553 -1.16645 1.28139 0
M  V30 13 H -3.07672 2.06879 -1.68799 0
M  V30 14 H -2.08939 0.767418 -2.15624 0
M  V30 15 H -2.17336 1.45843 0.670752 0
M  V30 16 H -3.70157 0.763468 -0.0698581 0
M  V30 17 H -2.33509 -1.1798 -0.86407 0
M  V30 18 H -0.430657 -1.73367 -1.8583 0
M  V30 19 H 2.01715 -1.58386 -2.0313 0
M  V30 20 H 3.17088 1.83065 0.970251 0
M  V30 21 H 2.97691 0.515283 2.18408 0
M  V30 22 H 1.79097 1.85462 2.18549 0
M  V30 23 H 4.1742 -0.282943 -1.44298 0
M  V30 24 H 4.33719 -0.0430664 0.302352 0
M  V30 25 H -2.08411 -2.25789 1.17474 0
M  V30 26 H -1.56715 -0.737843 2.06276 0
M  V30 27 H -3.32445 -1.00394 1.56489 0
M  V30 END ATOM
M  V30 BEGIN BOND
M  V30 1 1 1 2
M  V30 2 1 2 3
M  V30 3 1 3 4
M  V30 4 2 4 5
M  V30 5 1 5 6
M  V30 6 2 6 7
M  V30 7 1 7 8
M  V30 8 2 8 9
M  V30 9 1 8 10
M  V30 10 1 7 11
M  V30 11 1 3 12
M  V30 12 1 9 4
M  V30 13 1 1 13
M  V30 14 1 1 14
M  V30 15 1 2 15
M  V30 16 1 2 16
M  V30 17 1 3 17
M  V30 18 1 5 18
M  V30 19 1 6 19
M  V30 20 1 10 20
M  V30 21 1 10 21
M  V30 22 1 10 22
M  V30 23 1 11 23
M  V30 24 1 11 24
M  V30 25 1 12 25
M  V30 26 1 12 26
M  V30 27 1 12 27
M  V30 END BOND
M  V30 END CTAB
M  END
