
     RDKit          3D

  0  0  0  0  0  0  0  0  0  0999 V3000
M  V30 BEGIN CTAB
M  V30 COUNTS 30 30 0 0 0
M  V30 BEGIN ATOM
M  V30 1 N -3.39463 2.23176 -0.0196892 0
M  V30 2 C -2.70208 1.11048 -0.632427 0
M  V30 3 C -1.37655 0.828789 0.0640522 0
M  V30 4 N -0.77219 -0.267727 -0.595911 0
M  V30 5 C -1.43085 -1.54137 -0.426576 0
M  V30 6 C -0.313327 -2.57313 -0.635317 0
M  V30 7 C 0.830201 -1.82576 0.0513665 0
M  V30 8 C 0.624446 -0.436573 -0.493627 0
M  V30 9 C 1.32942 0.639949 0.28673 0
M  V30 10 S 3.07515 0.319152 0.344121 0
M  V30 11 O 3.37809 -0.971939 1.0897 0
M  V30 12 O 3.64366 0.228478 -1.0472 0
M  V30 13 N 3.90102 1.55391 1.23046 0
M  V30 14 H -4.34715 1.98852 0.304585 0
M  V30 15 H -2.81568 2.64275 0.7566 0
M  V30 16 H -3.378 0.257439 -0.616109 0
M  V30 17 H -2.41439 1.31705 -1.69703 0
M  V30 18 H -0.778938 1.73056 0.178515 0
M  V30 19 H -1.65645 0.470044 1.10073 0
M  V30 20 H -1.78281 -1.7209 0.620304 0
M  V30 21 H -2.23437 -1.70232 -1.16231 0
M  V30 22 H -0.102462 -2.61263 -1.70075 0
M  V30 23 H -0.548385 -3.53088 -0.1537 0
M  V30 24 H 0.711313 -1.87531 1.15228 0
M  V30 25 H 1.80936 -2.23655 -0.282246 0
M  V30 26 H 1.12446 -0.435061 -1.51016 0
M  V30 27 H 0.984902 0.688041 1.3555 0
M  V30 28 H 1.19267 1.59229 -0.248187 0
M  V30 29 H 3.32527 1.78292 2.06769 0
M  V30 30 H 4.11828 2.34799 0.618604 0
M  V30 END ATOM
M  V30 BEGIN BOND
M  V30 1 1 1 2
M  V30 2 1 2 3
M  V30 3 1 3 4
M  V30 4 1 4 5
M  V30 5 1 5 6
M  V30 6 1 6 7
M  V30 7 1 7 8
M  V30 8 1 8 9
M  V30 9 1 9 10
M  V30 10 2 10 11
M  V30 11 2 10 12
M  V30 12 1 10 13
M  V30 13 1 8 4
M  V30 14 1 1 14
M  V30 15 1 1 15
M  V30 16 1 2 16
M  V30 17 1 2 17
M  V30 18 1 3 18
M  V30 19 1 3 19
M  V30 20 1 5 20
M  V30 21 1 5 21
M  V30 22 1 6 22
M  V30 23 1 6 23
M  V30 24 1 7 24
M  V30 25 1 7 25
M  V30 26 1 8 26
M  V30 27 1 9 27
M  V30 28 1 9 28
M  V30 29 1 13 29
M  V30 30 1 13 30
M  V30 END BOND
M  V30 END CTAB
M  END
