
     RDKit          3D

  0  0  0  0  0  0  0  0  0  0999 V3000
M  V30 BEGIN CTAB
M  V30 COUNTS 20 20 0 0 0
M  V30 BEGIN ATOM
M  V30 1 F 3.53853 0.374331 -0.341303 0
M  V30 2 C 2.57669 -0.460246 0.197591 0
M  V30 3 O 1.44584 -0.543009 -0.587754 0
M  V30 4 C 0.177706 -0.152602 -0.30276 0
M  V30 5 C -0.26086 1.12085 -0.595311 0
M  V30 6 N 0.576781 2.08971 -1.20502 0
M  V30 7 C -1.56794 1.50915 -0.296712 0
M  V30 8 C -2.43562 0.617042 0.296546 0
M  V30 9 C -2.01355 -0.660142 0.595829 0
M  V30 10 C -0.696568 -1.03642 0.289828 0
M  V30 11 N -0.22423 -2.3316 0.578687 0
M  V30 12 F -2.83718 -1.57125 1.18106 0
M  V30 13 F 3.14884 -1.67466 0.501956 0
M  V30 14 H 2.28976 0.00971879 1.18224 0
M  V30 15 H 1.47093 2.41321 -0.742383 0
M  V30 16 H 0.297365 2.4949 -2.1428 0
M  V30 17 H -1.93424 2.49987 -0.516013 0
M  V30 18 H -3.44928 0.904935 0.532667 0
M  V30 19 H -0.283881 -3.07327 -0.130071 0
M  V30 20 H 0.180895 -2.53052 1.50372 0
M  V30 END ATOM
M  V30 BEGIN BOND
M  V30 1 1 1 2
M  V30 2 1 2 3
M  V30 3 1 3 4
M  V30 4 2 4 5
M  V30 5 1 5 6
M  V30 6 1 5 7
M  V30 7 2 7 8
M  V30 8 1 8 9
M  V30 9 2 9 10
M  V30 10 1 10 11
M  V30 11 1 9 12
M  V30 12 1 2 13
M  V30 13 1 10 4
M  V30 14 1 2 14
M  V30 15 1 6 15
M  V30 16 1 6 16
M  V30 17 1 7 17
M  V30 18 1 8 18
M  V30 19 1 11 19
M  V30 20 1 11 20
M  V30 END BOND
M  V30 END CTAB
M  END
