
     RDKit          3D

  0  0  0  0  0  0  0  0  0  0999 V3000
M  V30 BEGIN CTAB
M  V30 COUNTS 28 28 0 0 0
M  V30 BEGIN ATOM
M  V30 1 C -3.70686 0.473391 0.315522 0
M  V30 2 C -2.51145 0.190868 -0.54427 0
M  V30 3 C -1.23689 0.183159 0.283467 0 CFG=2
M  V30 4 C -0.0957848 -0.109799 -0.649339 0
M  V30 5 C 1.24014 0.079108 -0.106112 0
M  V30 6 C 1.52804 0.674357 1.09898 0
M  V30 7 C 2.81882 0.837619 1.56672 0
M  V30 8 Cl 3.08082 1.59903 3.10414 0
M  V30 9 C 3.82835 0.367915 0.754203 0
M  V30 10 N 3.56296 -0.219381 -0.433057 0
M  V30 11 C 2.30248 -0.373777 -0.878821 0
M  V30 12 N 2.05379 -0.999038 -2.12842 0
M  V30 13 O -0.184206 -1.37917 -1.21464 0
M  V30 14 N -1.31478 -0.759301 1.37185 0
M  V30 15 H -4.32715 1.23743 -0.145773 0
M  V30 16 H -3.36185 0.84911 1.28195 0
M  V30 17 H -4.34905 -0.441297 0.398437 0
M  V30 18 H -2.6032 -0.696643 -1.18424 0
M  V30 19 H -2.40292 1.07127 -1.24757 0
M  V30 20 H -1.17049 1.1898 0.736341 0
M  V30 21 H -0.160508 0.588284 -1.54562 0
M  V30 22 H 0.725607 1.03799 1.71387 0
M  V30 23 H 4.85435 0.4838 1.09986 0
M  V30 24 H 1.84098 -0.458487 -3.00035 0
M  V30 25 H 2.08238 -2.05038 -2.18546 0
M  V30 26 H -0.742695 -1.43019 -2.0055 0
M  V30 27 H -1.0902 -0.362054 2.30355 0
M  V30 28 H -0.66069 -1.58363 1.24029 0
M  V30 END ATOM
M  V30 BEGIN BOND
M  V30 1 1 1 2
M  V30 2 1 2 3
M  V30 3 1 3 4
M  V30 4 1 4 5
M  V30 5 2 5 6
M  V30 6 1 6 7
M  V30 7 1 7 8
M  V30 8 2 7 9
M  V30 9 1 9 10
M  V30 10 2 10 11
M  V30 11 1 11 12
M  V30 12 1 4 13
M  V30 13 1 3 14
M  V30 14 1 11 5
M  V30 15 1 1 15
M  V30 16 1 1 16
M  V30 17 1 1 17
M  V30 18 1 2 18
M  V30 19 1 2 19
M  V30 20 1 3 20 CFG=1
M  V30 21 1 4 21
M  V30 22 1 6 22
M  V30 23 1 9 23
M  V30 24 1 12 24
M  V30 25 1 12 25
M  V30 26 1 13 26
M  V30 27 1 14 27
M  V30 28 1 14 28
M  V30 END BOND
M  V30 END CTAB
M  END
