
     RDKit          3D

  0  0  0  0  0  0  0  0  0  0999 V3000
M  V30 BEGIN CTAB
M  V30 COUNTS 62 66 0 0 0
M  V30 BEGIN ATOM
M  V30 1 N -8.91931 1.52705 -1.31548 0
M  V30 2 C -8.38135 0.776097 -0.24085 0
M  V30 3 N -7.04146 0.76822 -0.0362746 0
M  V30 4 C -6.52663 0.0580672 0.980886 0
M  V30 5 C -7.39579 -0.6451 1.78827 0
M  V30 6 N -6.64349 -1.25335 2.70457 0
M  V30 7 C -5.33832 -0.932542 2.46785 0
M  V30 8 N -5.26202 -0.122245 1.40342 0
M  V30 9 C -4.02456 0.412003 0.873509 0 CFG=1
M  V30 10 C -2.92212 -0.587579 1.13059 0
M  V30 11 C -2.08581 -0.448728 -0.121932 0 CFG=2
M  V30 12 O -0.972431 0.357093 0.0842345 0
M  V30 13 P 0.420264 -0.520163 -0.211506 0
M  V30 14 O 0.156635 -1.59372 -1.51124 0
M  V30 15 O 0.809167 -1.3991 0.976146 0
M  V30 16 O 1.7331 0.430295 -0.602736 0
M  V30 17 C 2.73998 0.397163 0.336953 0
M  V30 18 C 3.90855 1.27036 -0.0555461 0 CFG=1
M  V30 19 O 4.92501 1.24989 0.872646 0
M  V30 20 C 6.10151 1.58521 0.25394 0 CFG=2
M  V30 21 C 5.87225 1.56258 -1.242 0
M  V30 22 C 4.58566 0.764113 -1.31213 0 CFG=2
M  V30 23 O 3.9019 1.12929 -2.46523 0
M  V30 24 N 7.13891 0.614383 0.547895 0
M  V30 25 C 8.32374 0.606998 -0.0880835 0
M  V30 26 N 9.28462 -0.29172 0.183603 0
M  V30 27 C 9.10473 -1.24022 1.11783 0
M  V30 28 N 10.1148 -2.2056 1.42158 0
M  V30 29 N 7.91596 -1.24503 1.76673 0
M  V30 30 C 6.96308 -0.33941 1.48462 0
M  V30 31 O 5.8453 -0.349161 2.09946 0
M  V30 32 C -3.03612 0.142986 -1.12182 0 CFG=1
M  V30 33 C -3.46814 -0.932538 -2.12843 0
M  V30 34 O -4.37684 -0.409127 -3.04096 0
M  V30 35 O -4.1631 0.563358 -0.475387 0
M  V30 36 C -8.75642 -0.634922 1.57763 0
M  V30 37 O -9.50964 -1.27665 2.32027 0
M  V30 38 N -9.22677 0.0911372 0.545802 0
M  V30 39 H -9.39909 1.02085 -2.10391 0
M  V30 40 H -8.87493 2.56793 -1.38624 0
M  V30 41 H -4.54375 -1.32592 3.1051 0
M  V30 42 H -3.80224 1.3536 1.4163 0
M  V30 43 H -2.35097 -0.350474 2.05452 0
M  V30 44 H -3.32227 -1.62801 1.22694 0
M  V30 45 H -1.73832 -1.45432 -0.426792 0
M  V30 46 H -0.0317544 -1.06479 -2.3492 0
M  V30 47 H 3.08443 -0.65448 0.494857 0
M  V30 48 H 2.32589 0.740363 1.30486 0
M  V30 49 H 3.51788 2.27697 -0.281473 0
M  V30 50 H 6.38978 2.60685 0.604044 0
M  V30 51 H 6.68831 1.09692 -1.80577 0
M  V30 52 H 5.65676 2.60217 -1.5636 0
M  V30 53 H 4.77223 -0.327524 -1.26285 0
M  V30 54 H 3.58979 0.278912 -2.90551 0
M  V30 55 H 8.46623 1.3866 -0.852562 0
M  V30 56 H 10.6148 -2.10208 2.32363 0
M  V30 57 H 10.3744 -2.99566 0.799001 0
M  V30 58 H -2.49127 0.94098 -1.66437 0
M  V30 59 H -2.58486 -1.39912 -2.61752 0
M  V30 60 H -3.98423 -1.7476 -1.58064 0
M  V30 61 H -3.88408 0.217224 -3.62878 0
M  V30 62 H -10.2676 0.0812319 0.408142 0
M  V30 END ATOM
M  V30 BEGIN BOND
M  V30 1 1 1 2
M  V30 2 2 2 3
M  V30 3 1 3 4
M  V30 4 2 4 5
M  V30 5 1 5 6
M  V30 6 2 6 7
M  V30 7 1 7 8
M  V30 8 1 8 9
M  V30 9 1 9 10
M  V30 10 1 10 11
M  V30 11 1 11 12
M  V30 12 1 12 13
M  V30 13 1 13 14
M  V30 14 2 13 15
M  V30 15 1 13 16
M  V30 16 1 16 17
M  V30 17 1 17 18
M  V30 18 1 18 19
M  V30 19 1 19 20
M  V30 20 1 20 21
M  V30 21 1 21 22
M  V30 22 1 22 23
M  V30 23 1 20 24
M  V30 24 1 24 25
M  V30 25 2 25 26
M  V30 26 1 26 27
M  V30 27 1 27 28
M  V30 28 2 27 29
M  V30 29 1 29 30
M  V30 30 2 30 31
M  V30 31 1 11 32
M  V30 32 1 32 33
M  V30 33 1 33 34
M  V30 34 1 32 35
M  V30 35 1 5 36
M  V30 36 2 36 37
M  V30 37 1 36 38
M  V30 38 1 38 2
M  V30 39 1 8 4
M  V30 40 1 35 9
M  V30 41 1 22 18
M  V30 42 1 30 24
M  V30 43 1 1 39
M  V30 44 1 1 40
M  V30 45 1 7 41
M  V30 46 1 9 42 CFG=1
M  V30 47 1 10 43
M  V30 48 1 10 44
M  V30 49 1 11 45 CFG=3
M  V30 50 1 14 46
M  V30 51 1 17 47
M  V30 52 1 17 48
M  V30 53 1 18 49 CFG=3
M  V30 54 1 20 50 CFG=1
M  V30 55 1 21 51
M  V30 56 1 21 52
M  V30 57 1 22 53 CFG=1
M  V30 58 1 23 54
M  V30 59 1 25 55
M  V30 60 1 28 56
M  V30 61 1 28 57
M  V30 62 1 32 58 CFG=3
M  V30 63 1 33 59
M  V30 64 1 33 60
M  V30 65 1 34 61
M  V30 66 1 38 62
M  V30 END BOND
M  V30 END CTAB
M  END
