
     RDKit          3D

  0  0  0  0  0  0  0  0  0  0999 V3000
M  V30 BEGIN CTAB
M  V30 COUNTS 38 39 0 0 0
M  V30 BEGIN ATOM
M  V30 1 N -3.36992 2.26574 1.18274 0
M  V30 2 C -2.90127 2.00188 -0.169314 0
M  V30 3 C -3.1325 0.533756 -0.433431 0
M  V30 4 C -2.69291 0.106565 -1.80591 0
M  V30 5 C -1.36967 -0.66537 -1.57945 0
M  V30 6 N -0.972125 -0.373337 -0.259397 0
M  V30 7 C -2.27558 -0.273542 0.493272 0
M  V30 8 C 0.235938 -0.212693 0.433983 0
M  V30 9 O 0.128512 0.10734 1.70259 0
M  V30 10 C 1.59552 -0.339935 -0.00993715 0
M  V30 11 C 1.97394 -0.74744 -1.25617 0
M  V30 12 C 3.32389 -0.880722 -1.63381 0
M  V30 13 F 3.62794 -1.29047 -2.89145 0
M  V30 14 C 4.27383 -0.5841 -0.693967 0
M  V30 15 C 3.95823 -0.169688 0.577734 0
M  V30 16 C 2.62836 -0.0567299 0.891722 0
M  V30 17 N 2.34142 0.381466 2.23169 0
M  V30 18 N 4.97088 0.134552 1.54463 0 CHG=1
M  V30 19 O 6.0618 -0.45215 1.41764 0
M  V30 20 O 4.72102 1.02886 2.5449 0 CHG=-1
M  V30 21 C -1.62808 -2.1556 -1.74494 0
M  V30 22 H -4.18421 2.90559 1.19495 0
M  V30 23 H -2.63259 2.69209 1.78549 0
M  V30 24 H -1.80831 2.24194 -0.173237 0
M  V30 25 H -3.36736 2.66319 -0.911018 0
M  V30 26 H -4.18594 0.307793 -0.215567 0
M  V30 27 H -2.52735 0.969334 -2.4811 0
M  V30 28 H -3.38477 -0.615392 -2.25797 0
M  V30 29 H -0.732031 -0.299493 -2.40544 0
M  V30 30 H -2.65492 -1.2995 0.662479 0
M  V30 31 H -2.13648 0.277253 1.41793 0
M  V30 32 H 1.24004 -0.998769 -1.99434 0
M  V30 33 H 5.33008 -0.671784 -0.93816 0
M  V30 34 H 2.24557 -0.37317 2.94725 0
M  V30 35 H 2.24459 1.39855 2.4254 0
M  V30 36 H -2.38972 -2.28401 -2.5179 0
M  V30 37 H -0.669839 -2.6311 -2.07041 0
M  V30 38 H -1.886 -2.6409 -0.780231 0
M  V30 END ATOM
M  V30 BEGIN BOND
M  V30 1 1 1 2
M  V30 2 1 2 3
M  V30 3 1 3 4
M  V30 4 1 4 5
M  V30 5 1 5 6
M  V30 6 1 6 7
M  V30 7 1 6 8
M  V30 8 2 8 9
M  V30 9 1 8 10
M  V30 10 2 10 11
M  V30 11 1 11 12
M  V30 12 1 12 13
M  V30 13 2 12 14
M  V30 14 1 14 15
M  V30 15 2 15 16
M  V30 16 1 16 17
M  V30 17 1 15 18
M  V30 18 2 18 19
M  V30 19 1 18 20
M  V30 20 1 5 21
M  V30 21 1 7 3
M  V30 22 1 16 10
M  V30 23 1 1 22
M  V30 24 1 1 23
M  V30 25 1 2 24
M  V30 26 1 2 25
M  V30 27 1 3 26
M  V30 28 1 4 27
M  V30 29 1 4 28
M  V30 30 1 5 29
M  V30 31 1 7 30
M  V30 32 1 7 31
M  V30 33 1 11 32
M  V30 34 1 14 33
M  V30 35 1 17 34
M  V30 36 1 17 35
M  V30 37 1 21 36
M  V30 38 1 21 37
M  V30 39 1 21 38
M  V30 END BOND
M  V30 END CTAB
M  END
