
     RDKit          3D

  0  0  0  0  0  0  0  0  0  0999 V3000
M  V30 BEGIN CTAB
M  V30 COUNTS 40 41 0 0 0
M  V30 BEGIN ATOM
M  V30 1 C -6.00171 1.54443 -1.07314 0
M  V30 2 N -5.0996 0.425744 -0.991842 0
M  V30 3 C -3.85322 0.59011 -0.316798 0
M  V30 4 C -2.97175 -0.456243 -0.22777 0
M  V30 5 C -1.74538 -0.307631 0.432476 0
M  V30 6 C -1.36254 0.874097 1.01786 0
M  V30 7 C -2.2951 1.91909 0.90294 0
M  V30 8 C -3.49728 1.77674 0.256988 0
M  V30 9 N -0.142881 1.10649 1.692 0
M  V30 10 C 0.961356 0.27578 1.82778 0
M  V30 11 O 1.01723 -0.859584 1.33406 0
M  V30 12 C 2.14405 0.746662 2.59621 0
M  V30 13 S 3.45528 -0.486379 2.63687 0
M  V30 14 C 4.1642 -0.776854 1.03442 0
M  V30 15 N 5.15546 -1.67777 0.932638 0
M  V30 16 C 5.75947 -1.97388 -0.220769 0
M  V30 17 N 6.80834 -2.91554 -0.377682 0
M  V30 18 C 5.3261 -1.30517 -1.36216 0
M  V30 19 C 4.30955 -0.375169 -1.28384 0
M  V30 20 N 3.75169 -0.136033 -0.0708619 0
M  V30 21 N 3.87404 0.301779 -2.45607 0
M  V30 22 C -5.44792 -0.851426 -1.58441 0
M  V30 23 H -5.66445 2.32808 -1.78223 0
M  V30 24 H -6.16236 1.93701 -0.0544315 0
M  V30 25 H -6.9917 1.18131 -1.47802 0
M  V30 26 H -3.23396 -1.41995 -0.680737 0
M  V30 27 H -1.10166 -1.17431 0.468172 0
M  V30 28 H -2.07816 2.88194 1.33288 0
M  V30 29 H -4.20355 2.60594 0.18241 0
M  V30 30 H -0.0622699 2.06538 2.16975 0
M  V30 31 H 2.45064 1.6999 2.16222 0
M  V30 32 H 1.8073 0.925347 3.63692 0
M  V30 33 H 6.83407 -3.62744 -1.13685 0
M  V30 34 H 7.60399 -2.90883 0.294105 0
M  V30 35 H 5.78045 -1.50433 -2.33172 0
M  V30 36 H 3.9608 1.34864 -2.46973 0
M  V30 37 H 3.48862 -0.252974 -3.25311 0
M  V30 38 H -5.78963 -1.53345 -0.760689 0
M  V30 39 H -4.63176 -1.28851 -2.1803 0
M  V30 40 H -6.31574 -0.702997 -2.27326 0
M  V30 END ATOM
M  V30 BEGIN BOND
M  V30 1 1 1 2
M  V30 2 1 2 3
M  V30 3 2 3 4
M  V30 4 1 4 5
M  V30 5 2 5 6
M  V30 6 1 6 7
M  V30 7 2 7 8
M  V30 8 1 6 9
M  V30 9 1 9 10
M  V30 10 2 10 11
M  V30 11 1 10 12
M  V30 12 1 12 13
M  V30 13 1 13 14
M  V30 14 2 14 15
M  V30 15 1 15 16
M  V30 16 1 16 17
M  V30 17 2 16 18
M  V30 18 1 18 19
M  V30 19 2 19 20
M  V30 20 1 19 21
M  V30 21 1 2 22
M  V30 22 1 8 3
M  V30 23 1 20 14
M  V30 24 1 1 23
M  V30 25 1 1 24
M  V30 26 1 1 25
M  V30 27 1 4 26
M  V30 28 1 5 27
M  V30 29 1 7 28
M  V30 30 1 8 29
M  V30 31 1 9 30
M  V30 32 1 12 31
M  V30 33 1 12 32
M  V30 34 1 17 33
M  V30 35 1 17 34
M  V30 36 1 18 35
M  V30 37 1 21 36
M  V30 38 1 21 37
M  V30 39 1 22 38
M  V30 40 1 22 39
M  V30 41 1 22 40
M  V30 END BOND
M  V30 END CTAB
M  END
