
     RDKit          3D

  0  0  0  0  0  0  0  0  0  0999 V3000
M  V30 BEGIN CTAB
M  V30 COUNTS 54 56 0 0 0
M  V30 BEGIN ATOM
M  V30 1 C -3.10869 3.68956 -0.156111 0
M  V30 2 C -2.34016 2.44968 0.245628 0
M  V30 3 C -3.24862 1.26044 0.0461302 0
M  V30 4 N -4.50798 1.31003 -0.425782 0
M  V30 5 C -5.03908 0.0781017 -0.476739 0
M  V30 6 C -6.26976 -0.374447 -0.878174 0
M  V30 7 N -7.21672 0.56344 -1.33857 0
M  V30 8 N -6.49559 -1.69725 -0.805028 0
M  V30 9 C -5.51968 -2.51455 -0.347335 0
M  V30 10 N -4.32176 -2.07979 0.0440605 0
M  V30 11 C -4.05873 -0.758106 -0.0150753 0
M  V30 12 N -2.95756 -0.0217736 0.305519 0
M  V30 13 C -1.7201 -0.501385 0.825992 0 CFG=2
M  V30 14 O -0.658072 0.297159 0.42805 0
M  V30 15 C 0.498843 -0.442167 0.777931 0 CFG=2
M  V30 16 C 1.69033 0.140232 0.0983843 0
M  V30 17 N 2.90914 -0.444055 0.38804 0
M  V30 18 C 3.33142 -1.69767 -0.0359141 0
M  V30 19 C 3.91912 0.380878 1.0205 0
M  V30 20 C 4.34088 1.38626 0.0456458 0
M  V30 21 C 5.54979 1.54789 -0.409182 0
M  V30 22 C 6.67408 0.72061 0.00916692 0
M  V30 23 N 7.19672 0.0596382 -1.20239 0
M  V30 24 C 0.165995 -1.81499 0.313757 0 CFG=1
M  V30 25 O 0.727785 -2.81734 1.1245 0
M  V30 26 C -1.34696 -1.89417 0.473257 0 CFG=1
M  V30 27 O -1.6196 -2.72001 1.54853 0
M  V30 28 H -3.88422 3.87155 0.598367 0
M  V30 29 H -2.41248 4.54766 -0.22567 0
M  V30 30 H -3.54014 3.52172 -1.14157 0
M  V30 31 H -2.0211 2.54441 1.30209 0
M  V30 32 H -1.47548 2.41952 -0.463748 0
M  V30 33 H -7.81561 1.04259 -0.631341 0
M  V30 34 H -7.34851 0.802633 -2.34559 0
M  V30 35 H -5.79934 -3.58054 -0.324517 0
M  V30 36 H -1.78555 -0.367388 1.94844 0
M  V30 37 H 0.606614 -0.473969 1.88999 0
M  V30 38 H 1.51648 0.0416994 -1.03689 0
M  V30 39 H 1.6812 1.26799 0.208995 0
M  V30 40 H 3.4988 -2.3542 0.87383 0
M  V30 41 H 2.73238 -2.19727 -0.813302 0
M  V30 42 H 4.37628 -1.69405 -0.489879 0
M  V30 43 H 4.66874 -0.291358 1.41403 0
M  V30 44 H 3.47044 0.902709 1.89937 0
M  V30 45 H 3.57871 2.08461 -0.355674 0
M  V30 46 H 5.76172 2.33658 -1.14309 0
M  V30 47 H 6.49861 -0.0774205 0.713743 0
M  V30 48 H 7.53454 1.38124 0.324993 0
M  V30 49 H 8.02565 -0.519759 -0.98742 0
M  V30 50 H 7.51292 0.800292 -1.8809 0
M  V30 51 H 0.413573 -1.9894 -0.761978 0
M  V30 52 H 0.903847 -3.63917 0.594828 0
M  V30 53 H -1.79326 -2.25971 -0.472409 0
M  V30 54 H -1.47983 -2.22716 2.3987 0
M  V30 END ATOM
M  V30 BEGIN BOND
M  V30 1 1 1 2
M  V30 2 1 2 3
M  V30 3 2 3 4
M  V30 4 1 4 5
M  V30 5 2 5 6
M  V30 6 1 6 7
M  V30 7 1 6 8
M  V30 8 2 8 9
M  V30 9 1 9 10
M  V30 10 2 10 11
M  V30 11 1 11 12
M  V30 12 1 12 13
M  V30 13 1 13 14
M  V30 14 1 14 15
M  V30 15 1 15 16
M  V30 16 1 16 17
M  V30 17 1 17 18
M  V30 18 1 17 19
M  V30 19 1 19 20
M  V30 20 2 20 21
M  V30 21 1 21 22
M  V30 22 1 22 23
M  V30 23 1 15 24
M  V30 24 1 24 25
M  V30 25 1 24 26
M  V30 26 1 26 27
M  V30 27 1 12 3
M  V30 28 1 26 13
M  V30 29 1 11 5
M  V30 30 1 1 28
M  V30 31 1 1 29
M  V30 32 1 1 30
M  V30 33 1 2 31
M  V30 34 1 2 32
M  V30 35 1 7 33
M  V30 36 1 7 34
M  V30 37 1 9 35
M  V30 38 1 13 36 CFG=1
M  V30 39 1 15 37 CFG=1
M  V30 40 1 16 38
M  V30 41 1 16 39
M  V30 42 1 18 40
M  V30 43 1 18 41
M  V30 44 1 18 42
M  V30 45 1 19 43
M  V30 46 1 19 44
M  V30 47 1 20 45
M  V30 48 1 21 46
M  V30 49 1 22 47
M  V30 50 1 22 48
M  V30 51 1 23 49
M  V30 52 1 23 50
M  V30 53 1 24 51 CFG=3
M  V30 54 1 25 52
M  V30 55 1 26 53 CFG=3
M  V30 56 1 27 54
M  V30 END BOND
M  V30 END CTAB
M  END
