
     RDKit          3D

  0  0  0  0  0  0  0  0  0  0999 V3000
M  V30 BEGIN CTAB
M  V30 COUNTS 20 20 0 0 0
M  V30 BEGIN ATOM
M  V30 1 N 3.40293 1.00078 0.276353 0
M  V30 2 C 2.98813 -0.384196 0.2064 0
M  V30 3 C 1.49962 -0.391697 0.101098 0
M  V30 4 N 0.753853 -0.429742 1.22226 0
M  V30 5 C -0.590254 -0.437521 1.1622 0
M  V30 6 C -1.24534 -0.406625 -0.0542061 0
M  V30 7 C -0.479175 -0.36768 -1.20129 0
M  V30 8 N 0.852153 -0.362164 -1.06697 0
M  V30 9 C -2.71996 -0.414287 -0.149812 0
M  V30 10 N -3.29087 0.917434 -0.146163 0
M  V30 11 H 4.13754 1.23457 -0.427014 0
M  V30 12 H 2.60021 1.66918 0.251975 0
M  V30 13 H 3.41592 -0.917657 -0.646401 0
M  V30 14 H 3.24634 -0.872054 1.17244 0
M  V30 15 H -1.19841 -0.46836 2.07023 0
M  V30 16 H -0.955192 -0.342492 -2.1781 0
M  V30 17 H -2.9969 -0.881196 -1.12179 0
M  V30 18 H -3.18527 -1.01203 0.651208 0
M  V30 19 H -3.28619 1.35622 0.792262 0
M  V30 20 H -2.94915 1.50951 -0.914684 0
M  V30 END ATOM
M  V30 BEGIN BOND
M  V30 1 1 1 2
M  V30 2 1 2 3
M  V30 3 2 3 4
M  V30 4 1 4 5
M  V30 5 2 5 6
M  V30 6 1 6 7
M  V30 7 2 7 8
M  V30 8 1 6 9
M  V30 9 1 9 10
M  V30 10 1 8 3
M  V30 11 1 1 11
M  V30 12 1 1 12
M  V30 13 1 2 13
M  V30 14 1 2 14
M  V30 15 1 5 15
M  V30 16 1 7 16
M  V30 17 1 9 17
M  V30 18 1 9 18
M  V30 19 1 10 19
M  V30 20 1 10 20
M  V30 END BOND
M  V30 END CTAB
M  END
