
     RDKit          3D

  0  0  0  0  0  0  0  0  0  0999 V3000
M  V30 BEGIN CTAB
M  V30 COUNTS 38 39 0 0 0
M  V30 BEGIN ATOM
M  V30 1 C -1.01807 -4.14669 0.754539 0
M  V30 2 O -0.843365 -2.76117 0.618265 0
M  V30 3 C -1.91207 -1.93795 0.209718 0
M  V30 4 C -3.12584 -2.52417 -0.0511051 0
M  V30 5 C -4.15938 -1.71969 -0.447443 0
M  V30 6 C -3.95825 -0.368872 -0.570017 0
M  V30 7 C -2.7205 0.255499 -0.305703 0
M  V30 8 C -1.6891 -0.561742 0.0882012 0
M  V30 9 O -0.405282 -0.123822 0.380892 0
M  V30 10 C 0.531958 -0.194413 -0.708122 0
M  V30 11 C 1.86407 0.301948 -0.264531 0
M  V30 12 C 2.10085 0.750914 1.0166 0
M  V30 13 C 3.37427 1.20062 1.35802 0
M  V30 14 C 4.41747 1.21325 0.452008 0
M  V30 15 C 4.17061 0.762513 -0.82587 0
M  V30 16 C 2.89476 0.308426 -1.1797 0
M  V30 17 N 5.72226 1.67252 0.796801 0
M  V30 18 C -2.66548 1.68435 -0.381564 0
M  V30 19 O -3.70626 2.29326 -0.82955 0
M  V30 20 N -1.59704 2.51426 -0.025539 0
M  V30 21 N -1.71152 3.94439 -0.186905 0
M  V30 22 H 0.00984784 -4.58668 0.897781 0
M  V30 23 H -1.63311 -4.40774 1.65756 0
M  V30 24 H -1.43467 -4.61031 -0.154985 0
M  V30 25 H -3.2427 -3.60765 0.0612653 0
M  V30 26 H -5.114 -2.17603 -0.654626 0
M  V30 27 H -4.77725 0.275898 -0.88545 0
M  V30 28 H 0.623287 -1.23891 -1.01458 0
M  V30 29 H 0.172425 0.492988 -1.49098 0
M  V30 30 H 1.2938 0.746157 1.73425 0
M  V30 31 H 3.56377 1.55572 2.36932 0
M  V30 32 H 4.98673 0.770358 -1.54147 0
M  V30 33 H 2.75549 -0.0322093 -2.18841 0
M  V30 34 H 6.53743 1.27363 0.299525 0
M  V30 35 H 5.87757 2.40274 1.53985 0
M  V30 36 H -0.694799 2.24031 0.378677 0
M  V30 37 H -1.9154 4.05856 -1.21183 0
M  V30 38 H -2.57251 4.27974 0.305116 0
M  V30 END ATOM
M  V30 BEGIN BOND
M  V30 1 1 1 2
M  V30 2 1 2 3
M  V30 3 2 3 4
M  V30 4 1 4 5
M  V30 5 2 5 6
M  V30 6 1 6 7
M  V30 7 2 7 8
M  V30 8 1 8 9
M  V30 9 1 9 10
M  V30 10 1 10 11
M  V30 11 2 11 12
M  V30 12 1 12 13
M  V30 13 2 13 14
M  V30 14 1 14 15
M  V30 15 2 15 16
M  V30 16 1 14 17
M  V30 17 1 7 18
M  V30 18 2 18 19
M  V30 19 1 18 20
M  V30 20 1 20 21
M  V30 21 1 8 3
M  V30 22 1 16 11
M  V30 23 1 1 22
M  V30 24 1 1 23
M  V30 25 1 1 24
M  V30 26 1 4 25
M  V30 27 1 5 26
M  V30 28 1 6 27
M  V30 29 1 10 28
M  V30 30 1 10 29
M  V30 31 1 12 30
M  V30 32 1 13 31
M  V30 33 1 15 32
M  V30 34 1 16 33
M  V30 35 1 17 34
M  V30 36 1 17 35
M  V30 37 1 20 36
M  V30 38 1 21 37
M  V30 39 1 21 38
M  V30 END BOND
M  V30 END CTAB
M  END
