
     RDKit          3D

  0  0  0  0  0  0  0  0  0  0999 V3000
M  V30 BEGIN CTAB
M  V30 COUNTS 34 35 0 0 0
M  V30 BEGIN ATOM
M  V30 1 N -4.37811 1.32553 -0.508487 0
M  V30 2 C -3.22713 0.5184 -0.382456 0
M  V30 3 C -2.55362 0.0391218 -1.48265 0
M  V30 4 C -1.44013 -0.741796 -1.36816 0
M  V30 5 C -0.990585 -1.04984 -0.102612 0
M  V30 6 C -1.66481 -0.569935 1.01653 0
M  V30 7 C -2.78946 0.218738 0.890217 0
M  V30 8 N -3.47221 0.704855 2.05661 0
M  V30 9 S 0.444866 -2.0561 0.112625 0
M  V30 10 O 0.475648 -3.10378 -0.96322 0
M  V30 11 O 0.254799 -2.76443 1.44638 0
M  V30 12 N 1.78697 -1.08616 0.175099 0
M  V30 13 C 1.92447 -0.134483 1.1832 0
M  V30 14 C 2.84312 0.98393 0.855674 0
M  V30 15 C 2.94527 1.35194 -0.578967 0
M  V30 16 C 2.57443 0.287832 -1.54929 0
M  V30 17 C 2.71747 -1.08996 -0.886836 0
M  V30 18 H -5.30701 0.83831 -0.633714 0
M  V30 19 H -4.381 2.35116 -0.487665 0
M  V30 20 H -2.89358 0.271749 -2.49544 0
M  V30 21 H -0.88507 -1.13647 -2.21886 0
M  V30 22 H -1.30966 -0.813233 2.02417 0
M  V30 23 H -3.41037 1.67945 2.37902 0
M  V30 24 H -4.06982 0.0432685 2.62074 0
M  V30 25 H 2.22785 -0.611334 2.15679 0
M  V30 26 H 0.912549 0.317228 1.40319 0
M  V30 27 H 3.87546 0.681728 1.19568 0
M  V30 28 H 2.59041 1.88229 1.48611 0
M  V30 29 H 2.25262 2.22601 -0.761306 0
M  V30 30 H 3.95573 1.74635 -0.854607 0
M  V30 31 H 1.47649 0.371324 -1.78059 0
M  V30 32 H 3.18071 0.357261 -2.44852 0
M  V30 33 H 3.78612 -1.137 -0.534779 0
M  V30 34 H 2.54759 -1.90196 -1.58794 0
M  V30 END ATOM
M  V30 BEGIN BOND
M  V30 1 1 1 2
M  V30 2 2 2 3
M  V30 3 1 3 4
M  V30 4 2 4 5
M  V30 5 1 5 6
M  V30 6 2 6 7
M  V30 7 1 7 8
M  V30 8 1 5 9
M  V30 9 2 9 10
M  V30 10 2 9 11
M  V30 11 1 9 12
M  V30 12 1 12 13
M  V30 13 1 13 14
M  V30 14 1 14 15
M  V30 15 1 15 16
M  V30 16 1 16 17
M  V30 17 1 7 2
M  V30 18 1 17 12
M  V30 19 1 1 18
M  V30 20 1 1 19
M  V30 21 1 3 20
M  V30 22 1 4 21
M  V30 23 1 6 22
M  V30 24 1 8 23
M  V30 25 1 8 24
M  V30 26 1 13 25
M  V30 27 1 13 26
M  V30 28 1 14 27
M  V30 29 1 14 28
M  V30 30 1 15 29
M  V30 31 1 15 30
M  V30 32 1 16 31
M  V30 33 1 16 32
M  V30 34 1 17 33
M  V30 35 1 17 34
M  V30 END BOND
M  V30 END CTAB
M  END
