
     RDKit          3D

  0  0  0  0  0  0  0  0  0  0999 V3000
M  V30 BEGIN CTAB
M  V30 COUNTS 29 29 0 0 0
M  V30 BEGIN ATOM
M  V30 1 N -4.49075 0.595856 0.168244 0
M  V30 2 C -3.26554 0.258192 -0.559346 0
M  V30 3 C -2.15375 0.109475 0.43528 0
M  V30 4 N -0.908975 -0.227694 -0.16002 0
M  V30 5 C -0.288908 0.764875 -0.96953 0
M  V30 6 C 1.17343 0.566519 -1.14297 0
M  V30 7 N 1.70956 -0.69362 -0.775155 0
M  V30 8 C 1.07059 -1.40299 0.279797 0
M  V30 9 C 0.0573215 -0.492792 0.9229 0
M  V30 10 S 3.38311 -0.509034 -0.38076 0
M  V30 11 O 4.15799 0.0182007 -1.53904 0
M  V30 12 O 3.87879 -1.89633 0.00133821 0
M  V30 13 N 3.59052 0.565142 0.96982 0
M  V30 14 H -4.22208 0.975395 1.1013 0
M  V30 15 H -5.00148 -0.304038 0.37569 0
M  V30 16 H -3.00498 1.12004 -1.20983 0
M  V30 17 H -3.451 -0.644309 -1.15714 0
M  V30 18 H -2.43624 -0.764605 1.09401 0
M  V30 19 H -2.11037 0.994232 1.10179 0
M  V30 20 H -0.447088 1.78435 -0.528021 0
M  V30 21 H -0.775496 0.721187 -1.98332 0
M  V30 22 H 1.46179 0.730774 -2.2245 0
M  V30 23 H 1.76152 1.35661 -0.595475 0
M  V30 24 H 0.467445 -2.26085 -0.137693 0
M  V30 25 H 1.72303 -1.80462 1.06244 0
M  V30 26 H 0.513184 0.47981 1.24874 0
M  V30 27 H -0.476496 -0.921412 1.76526 0
M  V30 28 H 4.61913 0.82158 0.951447 0
M  V30 29 H 3.46575 0.0600515 1.88472 0
M  V30 END ATOM
M  V30 BEGIN BOND
M  V30 1 1 1 2
M  V30 2 1 2 3
M  V30 3 1 3 4
M  V30 4 1 4 5
M  V30 5 1 5 6
M  V30 6 1 6 7
M  V30 7 1 7 8
M  V30 8 1 8 9
M  V30 9 1 7 10
M  V30 10 2 10 11
M  V30 11 2 10 12
M  V30 12 1 10 13
M  V30 13 1 9 4
M  V30 14 1 1 14
M  V30 15 1 1 15
M  V30 16 1 2 16
M  V30 17 1 2 17
M  V30 18 1 3 18
M  V30 19 1 3 19
M  V30 20 1 5 20
M  V30 21 1 5 21
M  V30 22 1 6 22
M  V30 23 1 6 23
M  V30 24 1 8 24
M  V30 25 1 8 25
M  V30 26 1 9 26
M  V30 27 1 9 27
M  V30 28 1 13 28
M  V30 29 1 13 29
M  V30 END BOND
M  V30 END CTAB
M  END
