
     RDKit          3D

  0  0  0  0  0  0  0  0  0  0999 V3000
M  V30 BEGIN CTAB
M  V30 COUNTS 24 25 0 0 0
M  V30 BEGIN ATOM
M  V30 1 N 3.51286 -0.707862 0.493184 0
M  V30 2 C 2.93467 0.0941953 -0.519737 0
M  V30 3 N 1.79334 -0.208689 -1.04515 0
M  V30 4 N 1.12163 -1.34271 -0.607392 0
M  V30 5 C -0.0981847 -1.31297 -0.185234 0
M  V30 6 C -0.879575 -2.47488 0.295933 0
M  V30 7 O -0.429196 -3.64143 0.346274 0
M  V30 8 N -2.16702 -2.01988 0.665895 0
M  V30 9 C -2.22699 -0.617025 0.436574 0
M  V30 10 C -0.999097 -0.17372 -0.0728253 0
M  V30 11 C -0.817819 1.16157 -0.37462 0
M  V30 12 C -1.8483 2.08178 -0.177705 0
M  V30 13 F -1.61248 3.36951 -0.490124 0
M  V30 14 C -3.04859 1.6484 0.32025 0
M  V30 15 C -3.23912 0.318886 0.624251 0
M  V30 16 N 3.64383 1.25688 -0.954911 0
M  V30 17 H 2.9898 -1.55316 0.824239 0
M  V30 18 H 4.42024 -0.492519 0.91231 0
M  V30 19 H -2.97079 -2.58684 1.04873 0
M  V30 20 H 0.125484 1.50807 -0.767005 0
M  V30 21 H -3.84944 2.36103 0.473732 0
M  V30 22 H -4.18671 -0.0553139 1.02308 0
M  V30 23 H 3.82907 2.07952 -0.340345 0
M  V30 24 H 4.00239 1.30715 -1.9294 0
M  V30 END ATOM
M  V30 BEGIN BOND
M  V30 1 1 1 2
M  V30 2 2 2 3
M  V30 3 1 3 4
M  V30 4 2 4 5
M  V30 5 1 5 6
M  V30 6 2 6 7
M  V30 7 1 6 8
M  V30 8 1 8 9
M  V30 9 2 9 10
M  V30 10 1 10 11
M  V30 11 2 11 12
M  V30 12 1 12 13
M  V30 13 1 12 14
M  V30 14 2 14 15
M  V30 15 1 2 16
M  V30 16 1 5 10
M  V30 17 1 15 9
M  V30 18 1 1 17
M  V30 19 1 1 18
M  V30 20 1 8 19
M  V30 21 1 11 20
M  V30 22 1 14 21
M  V30 23 1 15 22
M  V30 24 1 16 23
M  V30 25 1 16 24
M  V30 END BOND
M  V30 END CTAB
M  END
