
     RDKit          3D

  0  0  0  0  0  0  0  0  0  0999 V3000
M  V30 BEGIN CTAB
M  V30 COUNTS 27 29 0 0 0
M  V30 BEGIN ATOM
M  V30 1 N -1.12657 -1.78897 0.0436114 0
M  V30 2 C -2.20724 -0.876473 0.0902295 0
M  V30 3 C -2.02177 0.518212 -0.0011307 0
M  V30 4 C -3.17459 1.25583 0.0265812 0
M  V30 5 S -2.62726 2.85832 -0.120598 0
M  V30 6 C -0.957031 2.58087 -0.213729 0
M  V30 7 C -0.861388 1.20478 -0.124537 0
M  V30 8 C 0.52447 0.638803 -0.112855 0
M  V30 9 C 1.00554 0.104043 1.05755 0
M  V30 10 C 2.29912 -0.428971 1.09133 0
M  V30 11 Cl 2.97175 -1.12436 2.54782 0
M  V30 12 C 3.07604 -0.412133 -0.0477293 0
M  V30 13 N 4.39969 -0.959615 -0.00603194 0
M  V30 14 C 2.5874 0.126257 -1.2201 0
M  V30 15 C 1.30326 0.653268 -1.24634 0
M  V30 16 N -4.4169 0.693879 0.136435 0
M  V30 17 C -4.56944 -0.646088 0.224162 0
M  V30 18 N -3.45982 -1.3587 0.196352 0
M  V30 19 H -0.578895 -1.83262 -0.843688 0
M  V30 20 H -0.856203 -2.40966 0.834554 0
M  V30 21 H -0.113085 3.29442 -0.320482 0
M  V30 22 H 0.41595 0.0765637 1.97252 0
M  V30 23 H 5.15992 -0.42496 -0.442846 0
M  V30 24 H 4.62024 -1.87226 0.446654 0
M  V30 25 H 3.21341 0.131626 -2.10969 0
M  V30 26 H 0.946733 1.06545 -2.16832 0
M  V30 27 H -5.55332 -1.0675 0.31028 0
M  V30 END ATOM
M  V30 BEGIN BOND
M  V30 1 1 1 2
M  V30 2 2 2 3
M  V30 3 1 3 4
M  V30 4 1 4 5
M  V30 5 1 5 6
M  V30 6 2 6 7
M  V30 7 1 7 8
M  V30 8 2 8 9
M  V30 9 1 9 10
M  V30 10 1 10 11
M  V30 11 2 10 12
M  V30 12 1 12 13
M  V30 13 1 12 14
M  V30 14 2 14 15
M  V30 15 2 4 16
M  V30 16 1 16 17
M  V30 17 2 17 18
M  V30 18 1 18 2
M  V30 19 1 7 3
M  V30 20 1 15 8
M  V30 21 1 1 19
M  V30 22 1 1 20
M  V30 23 1 6 21
M  V30 24 1 9 22
M  V30 25 1 13 23
M  V30 26 1 13 24
M  V30 27 1 14 25
M  V30 28 1 15 26
M  V30 29 1 17 27
M  V30 END BOND
M  V30 END CTAB
M  END
