
     RDKit          3D

  0  0  0  0  0  0  0  0  0  0999 V3000
M  V30 BEGIN CTAB
M  V30 COUNTS 26 27 0 0 0
M  V30 BEGIN ATOM
M  V30 1 Cl -3.45112 2.58387 -1.57933 0
M  V30 2 C -2.67839 1.27844 -0.702751 0
M  V30 3 C -1.31238 1.10931 -0.777146 0
M  V30 4 C -0.739355 0.0742198 -0.0776472 0
M  V30 5 C -1.5141 -0.776037 0.682551 0
M  V30 6 C -2.88593 -0.606356 0.757526 0
M  V30 7 C -3.45907 0.430624 0.0560893 0
M  V30 8 N -4.86133 0.651613 0.0981073 0
M  V30 9 Br -3.9909 -1.77422 1.81075 0
M  V30 10 C 0.707629 -0.0993465 -0.157894 0
M  V30 11 C 1.39794 0.239886 -1.31898 0
M  V30 12 C 2.7618 0.0797199 -1.40955 0
M  V30 13 Cl 3.63509 0.505045 -2.86546 0
M  V30 14 C 3.50559 -0.42531 -0.349132 0
M  V30 15 C 2.79826 -0.752635 0.787577 0
M  V30 16 C 1.42442 -0.594668 0.887288 0
M  V30 17 Br 3.7734 -1.44739 2.26758 0
M  V30 18 N 4.91091 -0.591296 -0.430296 0
M  V30 19 H -0.736187 1.79187 -1.38166 0
M  V30 20 H -1.05774 -1.59271 1.23787 0
M  V30 21 H -5.27097 1.60092 0.00370789 0
M  V30 22 H -5.50622 -0.148829 0.223371 0
M  V30 23 H 0.817425 0.631215 -2.14195 0
M  V30 24 H 0.923486 -0.874861 1.81847 0
M  V30 25 H 5.32896 -1.46972 -0.107221 0
M  V30 26 H 5.47879 0.176664 -0.81505 0
M  V30 END ATOM
M  V30 BEGIN BOND
M  V30 1 1 1 2
M  V30 2 2 2 3
M  V30 3 1 3 4
M  V30 4 2 4 5
M  V30 5 1 5 6
M  V30 6 2 6 7
M  V30 7 1 7 8
M  V30 8 1 6 9
M  V30 9 1 4 10
M  V30 10 2 10 11
M  V30 11 1 11 12
M  V30 12 1 12 13
M  V30 13 2 12 14
M  V30 14 1 14 15
M  V30 15 2 15 16
M  V30 16 1 15 17
M  V30 17 1 14 18
M  V30 18 1 7 2
M  V30 19 1 16 10
M  V30 20 1 3 19
M  V30 21 1 5 20
M  V30 22 1 8 21
M  V30 23 1 8 22
M  V30 24 1 11 23
M  V30 25 1 16 24
M  V30 26 1 18 25
M  V30 27 1 18 26
M  V30 END BOND
M  V30 END CTAB
M  END
