
     RDKit          3D

  0  0  0  0  0  0  0  0  0  0999 V3000
M  V30 BEGIN CTAB
M  V30 COUNTS 52 54 0 0 0
M  V30 BEGIN ATOM
M  V30 1 N 8.31388 0.161574 -1.57898 0
M  V30 2 C 6.9652 0.411035 -1.94938 0
M  V30 3 N 6.71686 1.25453 -2.8802 0
M  V30 4 C 5.90311 -0.313183 -1.24402 0
M  V30 5 C 6.20833 -1.21179 -0.2466 0
M  V30 6 C 5.2381 -1.90356 0.430729 0
M  V30 7 C 3.92798 -1.69663 0.107238 0
M  V30 8 C 3.57209 -0.815014 -0.875427 0
M  V30 9 C 4.566 -0.129556 -1.54371 0
M  V30 10 C 2.17805 -0.608206 -1.17879 0
M  V30 11 C 1.2191 -0.287718 -0.347285 0
M  V30 12 C 1.64734 -0.115183 1.07064 0
M  V30 13 C 0.638092 0.895567 1.70272 0
M  V30 14 C -0.538075 0.0837734 2.11805 0
M  V30 15 C -1.74771 0.162497 1.23161 0
M  V30 16 C -1.43653 -0.042363 -0.180299 0
M  V30 17 C -2.50531 -0.131884 -0.936884 0
M  V30 18 C -3.91329 -0.0652578 -0.675109 0
M  V30 19 C -4.61072 -0.0223576 0.476792 0
M  V30 20 C -6.01897 0.0358895 0.490687 0
M  V30 21 C -6.72098 0.0493452 -0.675762 0
M  V30 22 C -6.04081 0.00606521 -1.86655 0
M  V30 23 C -4.67978 -0.049033 -1.86459 0
M  V30 24 C -6.70016 0.10012 1.75991 0
M  V30 25 N -5.97067 0.144092 2.9739 0
M  V30 26 N -7.96996 0.128797 1.82931 0
M  V30 27 C -0.137134 -0.135666 -0.903055 0
M  V30 28 O -0.199117 -0.0776947 -2.15519 0
M  V30 29 H 8.55151 0.00543718 -0.572622 0
M  V30 30 H 9.10165 0.127872 -2.27112 0
M  V30 31 H 7.43444 1.78788 -3.4032 0
M  V30 32 H 7.24514 -1.40137 0.033036 0
M  V30 33 H 5.48764 -2.62212 1.2262 0
M  V30 34 H 3.18676 -2.28329 0.662465 0
M  V30 35 H 4.32502 0.587156 -2.34131 0
M  V30 36 H 1.87184 -0.728039 -2.2324 0
M  V30 37 H 2.62913 0.362805 1.17803 0
M  V30 38 H 1.50784 -1.04468 1.61561 0
M  V30 39 H 0.430707 1.68971 0.986319 0
M  V30 40 H 1.12863 1.2919 2.58947 0
M  V30 41 H -0.269955 -1.01989 2.20751 0
M  V30 42 H -0.874364 0.362721 3.16474 0
M  V30 43 H -2.29135 1.09561 1.43644 0
M  V30 44 H -2.339 -0.763652 1.57487 0
M  V30 45 H -2.21638 -0.322701 -2.01822 0
M  V30 46 H -4.15427 -0.0324152 1.44838 0
M  V30 47 H -7.81711 0.0893193 -0.692349 0
M  V30 48 H -6.60286 0.0139374 -2.8061 0
M  V30 49 H -4.19004 -0.0759127 -2.85759 0
M  V30 50 H -5.38466 0.985488 3.23665 0
M  V30 51 H -5.98903 -0.652555 3.64356 0
M  V30 52 H -8.6762 0.113363 1.10187 0
M  V30 END ATOM
M  V30 BEGIN BOND
M  V30 1 1 1 2
M  V30 2 2 2 3 CFG=2
M  V30 3 1 2 4
M  V30 4 2 4 5
M  V30 5 1 5 6
M  V30 6 2 6 7
M  V30 7 1 7 8
M  V30 8 2 8 9
M  V30 9 1 8 10
M  V30 10 2 10 11
M  V30 11 1 11 12
M  V30 12 1 12 13
M  V30 13 1 13 14
M  V30 14 1 14 15
M  V30 15 1 15 16
M  V30 16 2 16 17
M  V30 17 1 17 18
M  V30 18 2 18 19
M  V30 19 1 19 20
M  V30 20 2 20 21
M  V30 21 1 21 22
M  V30 22 2 22 23
M  V30 23 1 20 24
M  V30 24 1 24 25
M  V30 25 2 24 26 CFG=2
M  V30 26 1 16 27
M  V30 27 2 27 28
M  V30 28 1 9 4
M  V30 29 1 27 11
M  V30 30 1 23 18
M  V30 31 1 1 29
M  V30 32 1 1 30
M  V30 33 1 3 31
M  V30 34 1 5 32
M  V30 35 1 6 33
M  V30 36 1 7 34
M  V30 37 1 9 35
M  V30 38 1 10 36
M  V30 39 1 12 37
M  V30 40 1 12 38
M  V30 41 1 13 39
M  V30 42 1 13 40
M  V30 43 1 14 41
M  V30 44 1 14 42
M  V30 45 1 15 43
M  V30 46 1 15 44
M  V30 47 1 17 45
M  V30 48 1 19 46
M  V30 49 1 21 47
M  V30 50 1 22 48
M  V30 51 1 23 49
M  V30 52 1 25 50
M  V30 53 1 25 51
M  V30 54 1 26 52
M  V30 END BOND
M  V30 END CTAB
M  END
