
     RDKit          3D

  0  0  0  0  0  0  0  0  0  0999 V3000
M  V30 BEGIN CTAB
M  V30 COUNTS 32 33 0 0 0
M  V30 BEGIN ATOM
M  V30 1 N 4.81025 -0.0827503 0.577873 0
M  V30 2 C 4.17228 0.0230991 -0.687342 0
M  V30 3 N 4.28821 -0.95447 -1.5024 0
M  V30 4 C 3.45495 1.24059 -1.00111 0
M  V30 5 C 2.22941 1.60931 -0.270773 0
M  V30 6 N 1.0672 0.833986 -0.34615 0
M  V30 7 C 0.717463 -0.465694 0.0167448 0
M  V30 8 O 1.57815 -1.21962 0.538231 0
M  V30 9 C -0.641551 -1.03138 -0.183128 0
M  V30 10 C -0.973966 -2.17587 -0.87486 0
M  V30 11 N -2.30683 -2.32223 -0.909914 0
M  V30 12 C -2.86912 -1.29663 -0.252622 0
M  V30 13 C -1.82938 -0.470529 0.214882 0
M  V30 14 C -2.14802 0.645425 0.947617 0
M  V30 15 O -1.3036 1.41773 1.40078 0
M  V30 16 N -3.44047 0.907642 1.18729 0
M  V30 17 C -4.43617 0.114856 0.73566 0
M  V30 18 N -5.80829 0.410549 1.00287 0
M  V30 19 N -4.15327 -0.983025 0.0185549 0
M  V30 20 H 4.54107 -0.823309 1.23363 0
M  V30 21 H 5.56196 0.596769 0.850084 0
M  V30 22 H 4.81496 -1.83242 -1.31711 0
M  V30 23 H 3.1956 1.29978 -2.11189 0
M  V30 24 H 4.22715 2.09149 -0.934882 0
M  V30 25 H 1.97771 2.70922 -0.432001 0
M  V30 26 H 2.52362 1.62334 0.848974 0
M  V30 27 H 0.212839 1.34725 -0.849768 0
M  V30 28 H -0.283763 -2.86911 -1.33061 0
M  V30 29 H -2.83386 -3.10645 -1.37203 0
M  V30 30 H -3.74896 1.74612 1.74073 0
M  V30 31 H -6.34014 -0.24988 1.60197 0
M  V30 32 H -6.25544 1.26622 0.607253 0
M  V30 END ATOM
M  V30 BEGIN BOND
M  V30 1 1 1 2
M  V30 2 2 2 3 CFG=2
M  V30 3 1 2 4
M  V30 4 1 4 5
M  V30 5 1 5 6
M  V30 6 1 6 7
M  V30 7 2 7 8
M  V30 8 1 7 9
M  V30 9 2 9 10
M  V30 10 1 10 11
M  V30 11 1 11 12
M  V30 12 2 12 13
M  V30 13 1 13 14
M  V30 14 2 14 15
M  V30 15 1 14 16
M  V30 16 1 16 17
M  V30 17 1 17 18
M  V30 18 2 17 19
M  V30 19 1 13 9
M  V30 20 1 19 12
M  V30 21 1 1 20
M  V30 22 1 1 21
M  V30 23 1 3 22
M  V30 24 1 4 23
M  V30 25 1 4 24
M  V30 26 1 5 25
M  V30 27 1 5 26
M  V30 28 1 6 27
M  V30 29 1 10 28
M  V30 30 1 11 29
M  V30 31 1 16 30
M  V30 32 1 18 31
M  V30 33 1 18 32
M  V30 END BOND
M  V30 END CTAB
M  END
