
     RDKit          3D

  0  0  0  0  0  0  0  0  0  0999 V3000
M  V30 BEGIN CTAB
M  V30 COUNTS 30 31 0 0 0
M  V30 BEGIN ATOM
M  V30 1 N 3.85948 -2.00308 0.223058 0
M  V30 2 C 2.84422 -1.0447 -0.0468662 0
M  V30 3 C 1.70278 -1.42706 -0.717565 0
M  V30 4 C 0.729237 -0.451596 -0.96218 0
M  V30 5 C 0.922495 0.842866 -0.538952 0
M  V30 6 N -0.0153329 1.87711 -0.741289 0
M  V30 7 C -1.28235 1.66901 -1.3828 0
M  V30 8 C -2.14767 0.78669 -0.561535 0
M  V30 9 C -3.2524 0.161122 -1.12767 0
M  V30 10 C -4.07724 -0.656902 -0.38474 0
M  V30 11 C -3.84238 -0.890811 0.954214 0
M  V30 12 C -2.74688 -0.27087 1.51707 0
M  V30 13 C -1.90302 0.560911 0.774095 0
M  V30 14 N 2.07003 1.16004 0.118251 0
M  V30 15 C 3.00984 0.254077 0.363212 0
M  V30 16 N 4.19436 0.677848 1.06582 0
M  V30 17 H 3.9581 -2.86624 -0.352477 0
M  V30 18 H 4.52675 -1.85585 1.00774 0
M  V30 19 H 1.51471 -2.42197 -1.0625 0
M  V30 20 H -0.174314 -0.724336 -1.49257 0
M  V30 21 H 0.194629 2.86723 -0.416072 0
M  V30 22 H -1.09498 1.19763 -2.38798 0
M  V30 23 H -1.82608 2.59809 -1.59449 0
M  V30 24 H -3.43306 0.351942 -2.19378 0
M  V30 25 H -4.94023 -1.13761 -0.853403 0
M  V30 26 H -4.50224 -1.53686 1.52069 0
M  V30 27 H -2.5263 -0.429298 2.57115 0
M  V30 28 H -1.05621 1.03222 1.24058 0
M  V30 29 H 4.21317 0.771143 2.10662 0
M  V30 30 H 5.08088 0.909256 0.571699 0
M  V30 END ATOM
M  V30 BEGIN BOND
M  V30 1 1 1 2
M  V30 2 2 2 3
M  V30 3 1 3 4
M  V30 4 2 4 5
M  V30 5 1 5 6
M  V30 6 1 6 7
M  V30 7 1 7 8
M  V30 8 2 8 9
M  V30 9 1 9 10
M  V30 10 2 10 11
M  V30 11 1 11 12
M  V30 12 2 12 13
M  V30 13 1 5 14
M  V30 14 2 14 15
M  V30 15 1 15 16
M  V30 16 1 15 2
M  V30 17 1 13 8
M  V30 18 1 1 17
M  V30 19 1 1 18
M  V30 20 1 3 19
M  V30 21 1 4 20
M  V30 22 1 6 21
M  V30 23 1 7 22
M  V30 24 1 7 23
M  V30 25 1 9 24
M  V30 26 1 10 25
M  V30 27 1 11 26
M  V30 28 1 12 27
M  V30 29 1 13 28
M  V30 30 1 16 29
M  V30 31 1 16 30
M  V30 END BOND
M  V30 END CTAB
M  END
