
     RDKit          3D

  0  0  0  0  0  0  0  0  0  0999 V3000
M  V30 BEGIN CTAB
M  V30 COUNTS 22 22 0 0 0
M  V30 BEGIN ATOM
M  V30 1 F 3.04689 -0.150975 -1.71523 0
M  V30 2 C 2.82049 -0.943742 -0.582803 0
M  V30 3 C 2.63823 -0.0139739 0.586579 0
M  V30 4 N 1.54829 0.899891 0.462721 0
M  V30 5 C 0.184814 0.515619 0.344963 0
M  V30 6 C -0.825531 1.44729 0.221516 0
M  V30 7 C -2.14923 1.07522 0.110634 0
M  V30 8 N -3.19157 2.02807 -0.0164539 0
M  V30 9 N -2.43028 -0.234905 0.126399 0
M  V30 10 C -1.46724 -1.19434 0.246347 0
M  V30 11 N -0.190516 -0.772454 0.351282 0
M  V30 12 N -1.81385 -2.56823 0.258054 0
M  V30 13 H 1.95955 -1.57559 -0.807463 0
M  V30 14 H 3.74117 -1.5588 -0.42717 0
M  V30 15 H 2.45985 -0.62713 1.49915 0
M  V30 16 H 3.5602 0.546629 0.77694 0
M  V30 17 H 1.73222 1.9504 0.454088 0
M  V30 18 H -0.604692 2.52053 0.207728 0
M  V30 19 H -3.06662 3.01392 0.33032 0
M  V30 20 H -4.10685 1.7909 -0.451694 0
M  V30 21 H -1.12751 -3.2503 0.626626 0
M  V30 22 H -2.71783 -2.89804 -0.0860087 0
M  V30 END ATOM
M  V30 BEGIN BOND
M  V30 1 1 1 2
M  V30 2 1 2 3
M  V30 3 1 3 4
M  V30 4 1 4 5
M  V30 5 2 5 6
M  V30 6 1 6 7
M  V30 7 1 7 8
M  V30 8 2 7 9
M  V30 9 1 9 10
M  V30 10 2 10 11
M  V30 11 1 10 12
M  V30 12 1 11 5
M  V30 13 1 2 13
M  V30 14 1 2 14
M  V30 15 1 3 15
M  V30 16 1 3 16
M  V30 17 1 4 17
M  V30 18 1 6 18
M  V30 19 1 8 19
M  V30 20 1 8 20
M  V30 21 1 12 21
M  V30 22 1 12 22
M  V30 END BOND
M  V30 END CTAB
M  END
