
     RDKit          3D

  0  0  0  0  0  0  0  0  0  0999 V3000
M  V30 BEGIN CTAB
M  V30 COUNTS 51 53 0 0 0
M  V30 BEGIN ATOM
M  V30 1 C 1.23119 -2.76565 1.06045 0
M  V30 2 C 1.94806 -1.88809 0.0976717 0
M  V30 3 C 3.28568 -1.69575 0.251241 0
M  V30 4 C 3.95498 -0.881866 -0.640259 0
M  V30 5 C 3.23396 -0.294396 -1.65562 0
M  V30 6 N 3.90321 0.544378 -2.58071 0
M  V30 7 C 1.86051 -0.529445 -1.76263 0
M  V30 8 O 1.1988 0.00769531 -2.69177 0
M  V30 9 N 1.21145 -1.32628 -0.88788 0
M  V30 10 C -0.195309 -1.53807 -1.03665 0
M  V30 11 C -0.978037 -0.533494 -0.288866 0
M  V30 12 O -0.362115 0.345259 0.357798 0
M  V30 13 N -2.39743 -0.527867 -0.276548 0
M  V30 14 C -3.08844 0.443378 0.446047 0
M  V30 15 C -4.53018 0.480548 0.481862 0
M  V30 16 C -5.25866 -0.45971 -0.209682 0
M  V30 17 C -6.65874 -0.430508 -0.179983 0
M  V30 18 C -7.27227 0.55695 0.55424 0
M  V30 19 N -8.71162 0.632196 0.618266 0
M  V30 20 N -6.52367 1.43901 1.2026 0
M  V30 21 C -5.18487 1.47126 1.21873 0
M  V30 22 C -4.35328 2.4397 1.93056 0
M  V30 23 S 5.65788 -0.579328 -0.522637 0
M  V30 24 O 6.4086 -1.06845 -1.74292 0
M  V30 25 O 6.21899 -1.33631 0.648303 0
M  V30 26 C 6.00855 1.15452 -0.306977 0
M  V30 27 C 7.33915 1.53124 0.322783 0
M  V30 28 C 6.08972 1.70257 1.08918 0
M  V30 29 H 0.766931 -3.64929 0.561196 0
M  V30 30 H 0.389176 -2.19965 1.53622 0
M  V30 31 H 1.91883 -3.1504 1.84237 0
M  V30 32 H 3.88801 -2.13922 1.03565 0
M  V30 33 H 4.55516 0.214927 -3.30747 0
M  V30 34 H 3.73155 1.58271 -2.5341 0
M  V30 35 H -0.425029 -1.54001 -2.12121 0
M  V30 36 H -0.455356 -2.57663 -0.68019 0
M  V30 37 H -2.85767 -1.27567 -0.827174 0
M  V30 38 H -2.74799 0.354006 1.5275 0
M  V30 39 H -2.74496 1.49682 0.19237 0
M  V30 40 H -4.81215 -1.26536 -0.808411 0
M  V30 41 H -7.22407 -1.17924 -0.730743 0
M  V30 42 H -9.1533 1.55185 0.420537 0
M  V30 43 H -9.30183 -0.171115 0.846774 0
M  V30 44 H -3.47737 2.02714 2.43847 0
M  V30 45 H -4.99444 2.87583 2.75551 0
M  V30 46 H -4.09917 3.34033 1.30216 0
M  V30 47 H 5.66025 1.83174 -1.11417 0
M  V30 48 H 7.822 2.48371 -0.0252821 0
M  V30 49 H 8.06129 0.744207 0.584293 0
M  V30 50 H 5.67459 2.72443 1.20664 0
M  V30 51 H 5.78944 1.02541 1.90801 0
M  V30 END ATOM
M  V30 BEGIN BOND
M  V30 1 1 1 2
M  V30 2 2 2 3
M  V30 3 1 3 4
M  V30 4 2 4 5
M  V30 5 1 5 6
M  V30 6 1 5 7
M  V30 7 2 7 8
M  V30 8 1 7 9
M  V30 9 1 9 10
M  V30 10 1 10 11
M  V30 11 2 11 12
M  V30 12 1 11 13
M  V30 13 1 13 14
M  V30 14 1 14 15
M  V30 15 2 15 16
M  V30 16 1 16 17
M  V30 17 2 17 18
M  V30 18 1 18 19
M  V30 19 1 18 20
M  V30 20 2 20 21
M  V30 21 1 21 22
M  V30 22 1 4 23
M  V30 23 2 23 24
M  V30 24 2 23 25
M  V30 25 1 23 26
M  V30 26 1 26 27
M  V30 27 1 27 28
M  V30 28 1 9 2
M  V30 29 1 21 15
M  V30 30 1 28 26
M  V30 31 1 1 29
M  V30 32 1 1 30
M  V30 33 1 1 31
M  V30 34 1 3 32
M  V30 35 1 6 33
M  V30 36 1 6 34
M  V30 37 1 10 35
M  V30 38 1 10 36
M  V30 39 1 13 37
M  V30 40 1 14 38
M  V30 41 1 14 39
M  V30 42 1 16 40
M  V30 43 1 17 41
M  V30 44 1 19 42
M  V30 45 1 19 43
M  V30 46 1 22 44
M  V30 47 1 22 45
M  V30 48 1 22 46
M  V30 49 1 26 47
M  V30 50 1 27 48
M  V30 51 1 27 49
M  V30 52 1 28 50
M  V30 53 1 28 51
M  V30 END BOND
M  V30 END CTAB
M  END
