
     RDKit          3D

  0  0  0  0  0  0  0  0  0  0999 V3000
M  V30 BEGIN CTAB
M  V30 COUNTS 25 25 0 0 0
M  V30 BEGIN ATOM
M  V30 1 N 3.43722 2.38932 0.139559 0
M  V30 2 C 2.56967 1.2582 0.162272 0
M  V30 3 C 1.20436 1.4006 -0.0476422 0
M  V30 4 C 0.347794 0.321286 -0.0300274 0
M  V30 5 N 0.881091 -0.883944 0.198838 0
M  V30 6 C 2.21226 -1.07132 0.409697 0
M  V30 7 N 3.02821 0.00788394 0.386397 0
M  V30 8 N 2.74066 -2.3705 0.649889 0
M  V30 9 N -1.02151 0.509352 -0.263226 0
M  V30 10 C -2.07965 -0.430306 -0.266218 0
M  V30 11 C -2.47768 -1.03582 1.02689 0
M  V30 12 F -3.5413 -1.91345 0.733322 0
M  V30 13 F -1.52998 -1.7849 1.63159 0
M  V30 14 C -3.2951 0.211079 -0.948844 0
M  V30 15 H 3.43789 3.13537 0.858025 0
M  V30 16 H 4.1113 2.46772 -0.649888 0
M  V30 17 H 0.845567 2.40881 -0.226829 0
M  V30 18 H 2.96471 -2.74966 1.58952 0
M  V30 19 H 2.92319 -3.0024 -0.160484 0
M  V30 20 H -1.31333 1.52278 -0.468017 0
M  V30 21 H -1.80069 -1.28094 -0.953886 0
M  V30 22 H -2.93323 -0.276222 1.69908 0
M  V30 23 H -3.25949 0.0508444 -2.05154 0
M  V30 24 H -4.23394 -0.186207 -0.54057 0
M  V30 25 H -3.21801 1.30244 -0.793545 0
M  V30 END ATOM
M  V30 BEGIN BOND
M  V30 1 1 1 2
M  V30 2 2 2 3
M  V30 3 1 3 4
M  V30 4 2 4 5
M  V30 5 1 5 6
M  V30 6 2 6 7
M  V30 7 1 6 8
M  V30 8 1 4 9
M  V30 9 1 9 10
M  V30 10 1 10 11
M  V30 11 1 11 12
M  V30 12 1 11 13
M  V30 13 1 10 14
M  V30 14 1 7 2
M  V30 15 1 1 15
M  V30 16 1 1 16
M  V30 17 1 3 17
M  V30 18 1 8 18
M  V30 19 1 8 19
M  V30 20 1 9 20
M  V30 21 1 10 21
M  V30 22 1 11 22
M  V30 23 1 14 23
M  V30 24 1 14 24
M  V30 25 1 14 25
M  V30 END BOND
M  V30 END CTAB
M  END
