
     RDKit          3D

  0  0  0  0  0  0  0  0  0  0999 V3000
M  V30 BEGIN CTAB
M  V30 COUNTS 26 27 0 0 0
M  V30 BEGIN ATOM
M  V30 1 N -3.42972 -1.99738 0.326788 0
M  V30 2 C -2.62037 -0.856416 0.0818072 0
M  V30 3 N -3.15756 0.353934 -0.167531 0
M  V30 4 C -2.36256 1.42955 -0.398713 0
M  V30 5 N -2.98834 2.68082 -0.655951 0
M  V30 6 N -1.02493 1.2967 -0.380988 0
M  V30 7 C -0.412911 0.122231 -0.13972 0
M  V30 8 C -1.22545 -0.963066 0.0936096 0
M  V30 9 N 0.978086 -0.0279601 -0.119169 0
M  V30 10 C 1.97632 1.03104 -0.356726 0
M  V30 11 C 3.3076 0.424674 -0.051925 0
M  V30 12 C 2.9385 -0.724068 0.865358 0
M  V30 13 C 1.69641 -1.25963 0.141166 0
M  V30 14 H -4.43167 -1.86946 0.580343 0
M  V30 15 H -3.05888 -2.95204 0.26224 0
M  V30 16 H -2.5369 3.42171 -1.25999 0
M  V30 17 H -3.92205 2.93086 -0.262957 0
M  V30 18 H -0.825979 -1.94618 0.296212 0
M  V30 19 H 1.80283 1.88057 0.337268 0
M  V30 20 H 1.95317 1.3982 -1.38131 0
M  V30 21 H 3.76177 -0.0567306 -0.96622 0
M  V30 22 H 4.02266 1.12558 0.417184 0
M  V30 23 H 2.60146 -0.293258 1.82969 0
M  V30 24 H 3.71464 -1.47886 0.960658 0
M  V30 25 H 1.15605 -1.97467 0.759004 0
M  V30 26 H 2.08785 -1.69615 -0.810127 0
M  V30 END ATOM
M  V30 BEGIN BOND
M  V30 1 1 1 2
M  V30 2 2 2 3
M  V30 3 1 3 4
M  V30 4 1 4 5
M  V30 5 2 4 6
M  V30 6 1 6 7
M  V30 7 2 7 8
M  V30 8 1 7 9
M  V30 9 1 9 10
M  V30 10 1 10 11
M  V30 11 1 11 12
M  V30 12 1 12 13
M  V30 13 1 8 2
M  V30 14 1 13 9
M  V30 15 1 1 14
M  V30 16 1 1 15
M  V30 17 1 5 16
M  V30 18 1 5 17
M  V30 19 1 8 18
M  V30 20 1 10 19
M  V30 21 1 10 20
M  V30 22 1 11 21
M  V30 23 1 11 22
M  V30 24 1 12 23
M  V30 25 1 12 24
M  V30 26 1 13 25
M  V30 27 1 13 26
M  V30 END BOND
M  V30 END CTAB
M  END
