
     RDKit          3D

  0  0  0  0  0  0  0  0  0  0999 V3000
M  V30 BEGIN CTAB
M  V30 COUNTS 31 33 0 0 0
M  V30 BEGIN ATOM
M  V30 1 N -2.24902 3.34128 0.272284 0
M  V30 2 C -1.25947 2.72103 0.23864 0
M  V30 3 C -0.049689 1.95427 0.220119 0
M  V30 4 C 1.19102 2.55615 0.290867 0
M  V30 5 N 1.23091 3.98346 0.384013 0
M  V30 6 N 2.30372 1.84434 0.273522 0
M  V30 7 C 2.19751 0.488972 0.183108 0
M  V30 8 C 0.972594 -0.161457 0.109537 0
M  V30 9 C -0.177328 0.574619 0.127798 0
M  V30 10 C -1.48832 -0.0337395 0.0513535 0
M  V30 11 C -2.1389 -0.233751 -1.15074 0
M  V30 12 C -3.39858 -0.788333 -1.21496 0
M  V30 13 C -4.03089 -1.15571 -0.0416701 0
M  V30 14 C -3.39649 -0.963881 1.1745 0
M  V30 15 C -2.14152 -0.40924 1.20845 0
M  V30 16 C 0.997386 -1.53306 0.0176499 0
M  V30 17 O -0.0792411 -2.18497 -0.0534607 0
M  V30 18 N 2.12278 -2.26935 -0.00414799 0
M  V30 19 C 3.29261 -1.61613 0.0686394 0
M  V30 20 N 3.30111 -0.276091 0.158891 0
M  V30 21 N 4.51753 -2.33159 0.0503828 0
M  V30 22 H 2.12621 4.48747 0.260939 0
M  V30 23 H 0.377114 4.55166 0.574819 0
M  V30 24 H -1.68126 0.0386641 -2.08683 0
M  V30 25 H -3.9262 -0.953815 -2.14516 0
M  V30 26 H -5.02181 -1.59417 -0.0594948 0
M  V30 27 H -3.94091 -1.27138 2.06661 0
M  V30 28 H -1.67893 -0.277037 2.19783 0
M  V30 29 H 2.10239 -3.31242 -0.0748935 0
M  V30 30 H 4.87232 -2.77151 -0.820976 0
M  V30 31 H 5.05336 -2.40427 0.935955 0
M  V30 END ATOM
M  V30 BEGIN BOND
M  V30 1 3 1 2
M  V30 2 1 2 3
M  V30 3 2 3 4
M  V30 4 1 4 5
M  V30 5 1 4 6
M  V30 6 2 6 7
M  V30 7 1 7 8
M  V30 8 2 8 9
M  V30 9 1 9 10
M  V30 10 2 10 11
M  V30 11 1 11 12
M  V30 12 2 12 13
M  V30 13 1 13 14
M  V30 14 2 14 15
M  V30 15 1 8 16
M  V30 16 2 16 17
M  V30 17 1 16 18
M  V30 18 1 18 19
M  V30 19 2 19 20
M  V30 20 1 19 21
M  V30 21 1 9 3
M  V30 22 1 15 10
M  V30 23 1 20 7
M  V30 24 1 5 22
M  V30 25 1 5 23
M  V30 26 1 11 24
M  V30 27 1 12 25
M  V30 28 1 13 26
M  V30 29 1 14 27
M  V30 30 1 15 28
M  V30 31 1 18 29
M  V30 32 1 21 30
M  V30 33 1 21 31
M  V30 END BOND
M  V30 END CTAB
M  END
