
     RDKit          3D

  0  0  0  0  0  0  0  0  0  0999 V3000
M  V30 BEGIN CTAB
M  V30 COUNTS 28 28 0 0 0
M  V30 BEGIN ATOM
M  V30 1 N -1.46844 -1.65345 1.56651 0
M  V30 2 C -2.04221 -1.0995 0.36089 0
M  V30 3 C -1.38545 0.22309 0.0568734 0
M  V30 4 C 0.0615532 0.145999 -0.154731 0
M  V30 5 C 0.913425 -0.0288063 0.91055 0
M  V30 6 C 2.29878 -0.0996742 0.763752 0
M  V30 7 C 2.85783 0.00747373 -0.486532 0
M  V30 8 C 2.03135 0.182328 -1.56696 0
M  V30 9 C 0.658521 0.250089 -1.40131 0
M  V30 10 N 4.27845 -0.0696943 -0.597845 0
M  V30 11 C -2.10192 0.75805 -1.19255 0
M  V30 12 C -1.71124 1.24286 1.14534 0
M  V30 13 H -0.613715 -2.19906 1.31529 0
M  V30 14 H -2.15889 -2.22285 2.11195 0
M  V30 15 H -1.95384 -1.82033 -0.467137 0
M  V30 16 H -3.13311 -0.930445 0.509893 0
M  V30 17 H 0.570356 -0.12104 1.95488 0
M  V30 18 H 2.94674 -0.241333 1.64013 0
M  V30 19 H 2.50005 0.264196 -2.54441 0
M  V30 20 H 0.0538755 0.387752 -2.28217 0
M  V30 21 H 4.69195 -1.0198 -0.689156 0
M  V30 22 H 4.86731 0.787848 -0.589216 0
M  V30 23 H -3.12325 1.03779 -0.858663 0
M  V30 24 H -1.56835 1.63097 -1.60475 0
M  V30 25 H -2.15727 -0.0282722 -1.97498 0
M  V30 26 H -1.49316 2.24323 0.693178 0
M  V30 27 H -1.04108 1.15869 2.00788 0
M  V30 28 H -2.77824 1.21389 1.37329 0
M  V30 END ATOM
M  V30 BEGIN BOND
M  V30 1 1 1 2
M  V30 2 1 2 3
M  V30 3 1 3 4
M  V30 4 2 4 5
M  V30 5 1 5 6
M  V30 6 2 6 7
M  V30 7 1 7 8
M  V30 8 2 8 9
M  V30 9 1 7 10
M  V30 10 1 3 11
M  V30 11 1 3 12
M  V30 12 1 9 4
M  V30 13 1 1 13
M  V30 14 1 1 14
M  V30 15 1 2 15
M  V30 16 1 2 16
M  V30 17 1 5 17
M  V30 18 1 6 18
M  V30 19 1 8 19
M  V30 20 1 9 20
M  V30 21 1 10 21
M  V30 22 1 10 22
M  V30 23 1 11 23
M  V30 24 1 11 24
M  V30 25 1 11 25
M  V30 26 1 12 26
M  V30 27 1 12 27
M  V30 28 1 12 28
M  V30 END BOND
M  V30 END CTAB
M  END
