
     RDKit          3D

  0  0  0  0  0  0  0  0  0  0999 V3000
M  V30 BEGIN CTAB
M  V30 COUNTS 19 19 0 0 0
M  V30 BEGIN ATOM
M  V30 1 N 2.66896 1.61653 -0.150026 0
M  V30 2 C 1.57579 0.701308 -0.110232 0
M  V30 3 C 1.78535 -0.654565 -0.2588 0
M  V30 4 C 0.731593 -1.54822 -0.221515 0
M  V30 5 C -0.568985 -1.12719 -0.0352266 0
M  V30 6 C -0.782749 0.22879 0.113828 0
M  V30 7 C 0.273506 1.1205 0.0760777 0
M  V30 8 Br -0.000368617 3.00826 0.28086 0
M  V30 9 C -2.17449 0.720822 0.316984 0
M  V30 10 N -1.64966 -2.04449 0.00294758 0
M  V30 11 H 3.24323 1.79337 -1.00294 0
M  V30 12 H 2.9254 2.14833 0.708664 0
M  V30 13 H 2.81841 -0.994347 -0.407269 0
M  V30 14 H 0.906114 -2.59722 -0.337868 0
M  V30 15 H -2.82712 0.0420179 -0.283692 0
M  V30 16 H -2.30057 1.7509 -0.0735254 0
M  V30 17 H -2.51309 0.624177 1.36138 0
M  V30 18 H -2.34009 -2.0553 0.788207 0
M  V30 19 H -1.77123 -2.73368 -0.767854 0
M  V30 END ATOM
M  V30 BEGIN BOND
M  V30 1 1 1 2
M  V30 2 2 2 3
M  V30 3 1 3 4
M  V30 4 2 4 5
M  V30 5 1 5 6
M  V30 6 2 6 7
M  V30 7 1 7 8
M  V30 8 1 6 9
M  V30 9 1 5 10
M  V30 10 1 7 2
M  V30 11 1 1 11
M  V30 12 1 1 12
M  V30 13 1 3 13
M  V30 14 1 4 14
M  V30 15 1 9 15
M  V30 16 1 9 16
M  V30 17 1 9 17
M  V30 18 1 10 18
M  V30 19 1 10 19
M  V30 END BOND
M  V30 END CTAB
M  END
