
     RDKit          3D

  0  0  0  0  0  0  0  0  0  0999 V3000
M  V30 BEGIN CTAB
M  V30 COUNTS 39 40 0 0 0
M  V30 BEGIN ATOM
M  V30 1 N -3.4216 -0.750035 -1.97209 0
M  V30 2 C -3.2107 -1.40811 -0.696211 0
M  V30 3 C -1.88861 -0.928914 -0.0642781 0
M  V30 4 C -1.62104 -1.56761 1.24053 0
M  V30 5 N -1.55974 -3.01574 1.06641 0
M  V30 6 C -0.892139 -0.334433 -0.910083 0
M  V30 7 C -1.79786 0.592822 -0.186895 0
M  V30 8 S -1.40654 1.52258 1.21308 0
M  V30 9 O -2.67757 1.67152 2.0467 0
M  V30 10 O -0.359127 1.01276 2.11544 0
M  V30 11 C -0.866395 3.15966 0.699359 0
M  V30 12 C 0.523551 -0.0833314 -0.72098 0
M  V30 13 C 1.03084 1.08394 -1.29759 0
M  V30 14 C 2.34218 1.46767 -1.2355 0
M  V30 15 C 3.20903 0.647295 -0.561296 0
M  V30 16 C 2.73977 -0.507722 0.0160323 0
M  V30 17 C 1.40494 -0.883432 -0.0563387 0
M  V30 18 O 4.53963 1.02807 -0.492816 0
M  V30 19 C 5.42896 0.175965 0.205033 0
M  V30 20 H -4.44568 -0.772068 -2.17439 0
M  V30 21 H -2.86598 -1.2308 -2.71141 0
M  V30 22 H -3.26845 -2.4901 -0.735614 0
M  V30 23 H -4.00614 -1.03997 -0.0140251 0
M  V30 24 H -0.717489 -1.29829 1.77151 0
M  V30 25 H -2.513 -1.41236 1.92277 0
M  V30 26 H -1.01684 -3.47319 1.85456 0
M  V30 27 H -1.08121 -3.29728 0.19666 0
M  V30 28 H -1.12595 -0.397738 -2.04185 0
M  V30 29 H -2.58873 1.08771 -0.827068 0
M  V30 30 H -1.15994 3.27819 -0.348522 0
M  V30 31 H 0.211137 3.23381 0.823953 0
M  V30 32 H -1.43019 3.90017 1.31584 0
M  V30 33 H 0.344638 1.75319 -1.84342 0
M  V30 34 H 2.7167 2.36407 -1.6816 0
M  V30 35 H 3.41364 -1.17466 0.557326 0
M  V30 36 H 1.09166 -1.83068 0.415654 0
M  V30 37 H 6.44989 0.599514 0.266958 0
M  V30 38 H 5.04865 0.157451 1.26855 0
M  V30 39 H 5.42569 -0.839933 -0.211961 0
M  V30 END ATOM
M  V30 BEGIN BOND
M  V30 1 1 1 2
M  V30 2 1 2 3
M  V30 3 1 3 4
M  V30 4 1 4 5
M  V30 5 1 3 6
M  V30 6 1 6 7
M  V30 7 1 7 8
M  V30 8 2 8 9
M  V30 9 2 8 10
M  V30 10 1 8 11
M  V30 11 1 6 12
M  V30 12 2 12 13
M  V30 13 1 13 14
M  V30 14 2 14 15
M  V30 15 1 15 16
M  V30 16 2 16 17
M  V30 17 1 15 18
M  V30 18 1 18 19
M  V30 19 1 7 3
M  V30 20 1 17 12
M  V30 21 1 1 20
M  V30 22 1 1 21
M  V30 23 1 2 22
M  V30 24 1 2 23
M  V30 25 1 4 24
M  V30 26 1 4 25
M  V30 27 1 5 26
M  V30 28 1 5 27
M  V30 29 1 6 28
M  V30 30 1 7 29
M  V30 31 1 11 30
M  V30 32 1 11 31
M  V30 33 1 11 32
M  V30 34 1 13 33
M  V30 35 1 14 34
M  V30 36 1 16 35
M  V30 37 1 17 36
M  V30 38 1 19 37
M  V30 39 1 19 38
M  V30 40 1 19 39
M  V30 END BOND
M  V30 END CTAB
M  END
