
     RDKit          3D

  0  0  0  0  0  0  0  0  0  0999 V3000
M  V30 BEGIN CTAB
M  V30 COUNTS 64 63 0 0 0
M  V30 BEGIN ATOM
M  V30 1 C -4.87193 1.6988 0.364849 0
M  V30 2 C -4.32004 0.788134 1.42907 0
M  V30 3 C -5.35595 -0.29284 1.72486 0
M  V30 4 C -4.03086 1.58016 2.66386 0
M  V30 5 O -3.13308 0.217237 0.933137 0
M  V30 6 C -3.12838 -0.562625 -0.223661 0
M  V30 7 O -4.2451 -0.71599 -0.782501 0
M  V30 8 N -1.91256 -1.15342 -0.740613 0
M  V30 9 C -2.04276 -1.9301 -1.93265 0
M  V30 10 C -1.88215 -1.10459 -3.16316 0
M  V30 11 C -2.02559 -1.92407 -4.43176 0
M  V30 12 N -3.31067 -2.55798 -4.53654 0
M  V30 13 C -0.713686 -0.916782 -0.00868967 0
M  V30 14 C 0.0700438 0.290815 -0.37028 0
M  V30 15 N 1.23998 0.332355 0.502933 0
M  V30 16 C 1.17748 1.03698 1.7506 0
M  V30 17 C 1.47604 2.49372 1.67258 0
M  V30 18 C 2.85601 2.77045 1.14671 0
M  V30 19 N 3.0206 4.22202 1.11992 0
M  V30 20 C 2.41787 -0.315785 0.0697717 0
M  V30 21 O 2.49626 -0.900857 -1.05169 0
M  V30 22 O 3.56365 -0.362171 0.832637 0
M  V30 23 C 4.75772 -1.00209 0.434462 0
M  V30 24 C 5.33464 -0.440698 -0.825708 0
M  V30 25 C 4.60001 -2.50016 0.315919 0
M  V30 26 C 5.76584 -0.763936 1.55961 0
M  V30 27 H -4.17461 1.82392 -0.490161 0
M  V30 28 H -5.80902 1.2808 -0.0604519 0
M  V30 29 H -5.11723 2.70705 0.770888 0
M  V30 30 H -4.88836 -1.26429 1.90526 0
M  V30 31 H -5.94619 0.0380692 2.59873 0
M  V30 32 H -6.07649 -0.356865 0.873399 0
M  V30 33 H -2.96015 1.70694 2.87985 0
M  V30 34 H -4.49367 1.04906 3.54521 0
M  V30 35 H -4.53587 2.58006 2.65383 0
M  V30 36 H -1.32779 -2.77656 -1.99267 0
M  V30 37 H -3.049 -2.41441 -1.92688 0
M  V30 38 H -2.63614 -0.286817 -3.22688 0
M  V30 39 H -0.868803 -0.657652 -3.18432 0
M  V30 40 H -1.24277 -2.72107 -4.47377 0
M  V30 41 H -1.87655 -1.29754 -5.33412 0
M  V30 42 H -3.28433 -3.58483 -4.59976 0
M  V30 43 H -4.03943 -2.16282 -3.92506 0
M  V30 44 H -0.999858 -0.817501 1.0745 0
M  V30 45 H -0.0152279 -1.79792 -0.130233 0
M  V30 46 H 0.40049 0.30034 -1.42582 0
M  V30 47 H -0.574424 1.18872 -0.155131 0
M  V30 48 H 1.9301 0.61238 2.48718 0
M  V30 49 H 0.202435 0.83444 2.29203 0
M  V30 50 H 0.771069 2.97026 0.951526 0
M  V30 51 H 1.32296 3.02213 2.63736 0
M  V30 52 H 3.59822 2.31222 1.82462 0
M  V30 53 H 2.96893 2.33942 0.133112 0
M  V30 54 H 3.97072 4.43142 0.793284 0
M  V30 55 H 2.76445 4.58111 2.0453 0
M  V30 56 H 4.81616 0.46888 -1.18744 0
M  V30 57 H 6.40408 -0.166927 -0.708938 0
M  V30 58 H 5.30578 -1.23209 -1.62197 0
M  V30 59 H 3.94005 -2.88602 1.13995 0
M  V30 60 H 5.59819 -2.95169 0.490655 0
M  V30 61 H 4.25325 -2.81582 -0.672426 0
M  V30 62 H 5.59316 0.295819 1.88357 0
M  V30 63 H 6.79341 -0.956942 1.23784 0
M  V30 64 H 5.47909 -1.38185 2.44428 0
M  V30 END ATOM
M  V30 BEGIN BOND
M  V30 1 1 1 2
M  V30 2 1 2 3
M  V30 3 1 2 4
M  V30 4 1 2 5
M  V30 5 1 5 6
M  V30 6 2 6 7
M  V30 7 1 6 8
M  V30 8 1 8 9
M  V30 9 1 9 10
M  V30 10 1 10 11
M  V30 11 1 11 12
M  V30 12 1 8 13
M  V30 13 1 13 14
M  V30 14 1 14 15
M  V30 15 1 15 16
M  V30 16 1 16 17
M  V30 17 1 17 18
M  V30 18 1 18 19
M  V30 19 1 15 20
M  V30 20 2 20 21
M  V30 21 1 20 22
M  V30 22 1 22 23
M  V30 23 1 23 24
M  V30 24 1 23 25
M  V30 25 1 23 26
M  V30 26 1 1 27
M  V30 27 1 1 28
M  V30 28 1 1 29
M  V30 29 1 3 30
M  V30 30 1 3 31
M  V30 31 1 3 32
M  V30 32 1 4 33
M  V30 33 1 4 34
M  V30 34 1 4 35
M  V30 35 1 9 36
M  V30 36 1 9 37
M  V30 37 1 10 38
M  V30 38 1 10 39
M  V30 39 1 11 40
M  V30 40 1 11 41
M  V30 41 1 12 42
M  V30 42 1 12 43
M  V30 43 1 13 44
M  V30 44 1 13 45
M  V30 45 1 14 46
M  V30 46 1 14 47
M  V30 47 1 16 48
M  V30 48 1 16 49
M  V30 49 1 17 50
M  V30 50 1 17 51
M  V30 51 1 18 52
M  V30 52 1 18 53
M  V30 53 1 19 54
M  V30 54 1 19 55
M  V30 55 1 24 56
M  V30 56 1 24 57
M  V30 57 1 24 58
M  V30 58 1 25 59
M  V30 59 1 25 60
M  V30 60 1 25 61
M  V30 61 1 26 62
M  V30 62 1 26 63
M  V30 63 1 26 64
M  V30 END BOND
M  V30 END CTAB
M  END
