
     RDKit          3D

  0  0  0  0  0  0  0  0  0  0999 V3000
M  V30 BEGIN CTAB
M  V30 COUNTS 18 18 0 0 0
M  V30 BEGIN ATOM
M  V30 1 C -1.48138 -1.94987 0.302313 0
M  V30 2 C -0.314956 -1.02887 0.120242 0
M  V30 3 N 0.933672 -1.48982 -0.0444895 0
M  V30 4 C 2.0056 -0.694562 -0.210736 0
M  V30 5 S 3.65225 -1.38865 -0.426194 0
M  V30 6 N 1.79806 0.634589 -0.209465 0
M  V30 7 C 0.566674 1.14938 -0.0482635 0
M  V30 8 N 0.319491 2.55553 -0.0430672 0
M  V30 9 C -0.542819 0.335208 0.123621 0
M  V30 10 N -1.84694 0.85994 0.294766 0
M  V30 11 H -1.17543 -2.90384 -0.219236 0
M  V30 12 H -1.67931 -2.17627 1.35859 0
M  V30 13 H -2.31782 -1.53639 -0.257778 0
M  V30 14 H 4.31039 -0.593298 -1.3584 0
M  V30 15 H 0.319856 3.10614 -0.931864 0
M  V30 16 H 0.136079 3.03676 0.864855 0
M  V30 17 H -2.07314 1.60181 0.980333 0
M  V30 18 H -2.61027 0.482192 -0.295229 0
M  V30 END ATOM
M  V30 BEGIN BOND
M  V30 1 1 1 2
M  V30 2 2 2 3
M  V30 3 1 3 4
M  V30 4 1 4 5
M  V30 5 2 4 6
M  V30 6 1 6 7
M  V30 7 1 7 8
M  V30 8 2 7 9
M  V30 9 1 9 10
M  V30 10 1 9 2
M  V30 11 1 1 11
M  V30 12 1 1 12
M  V30 13 1 1 13
M  V30 14 1 5 14
M  V30 15 1 8 15
M  V30 16 1 8 16
M  V30 17 1 10 17
M  V30 18 1 10 18
M  V30 END BOND
M  V30 END CTAB
M  END
