
     RDKit          3D

  0  0  0  0  0  0  0  0  0  0999 V3000
M  V30 BEGIN CTAB
M  V30 COUNTS 50 53 0 0 0
M  V30 BEGIN ATOM
M  V30 1 N 0.720479 2.64626 -0.836298 0
M  V30 2 C -0.0488658 1.44142 -0.694841 0
M  V30 3 C -1.33317 1.54311 -0.910692 0
M  V30 4 C -1.90226 2.86057 -1.27432 0
M  V30 5 N -2.36501 3.88093 -1.55654 0
M  V30 6 C -2.24354 0.380042 -0.83962 0
M  V30 7 C -3.50807 0.746592 -0.139419 0
M  V30 8 C -3.48873 1.34648 1.10758 0
M  V30 9 C -4.66495 1.6547 1.75814 0
M  V30 10 C -5.8933 1.37946 1.19608 0
M  V30 11 Cl -7.38508 1.77379 2.02983 0
M  V30 12 C -5.93007 0.782404 -0.0461695 0
M  V30 13 C -4.73044 0.473516 -0.699514 0
M  V30 14 Cl -4.80703 -0.252188 -2.30039 0
M  V30 15 C -1.59524 -0.81586 -0.378123 0
M  V30 16 C -0.289638 -0.883528 -0.165431 0
M  V30 17 C 0.219477 -2.22752 0.311936 0
M  V30 18 C -0.32582 -3.26246 -0.616303 0
M  V30 19 C -1.80856 -3.35242 -0.45458 0
M  V30 20 C -2.36187 -2.03819 -0.0691179 0
M  V30 21 O -3.45864 -2.01563 0.506528 0
M  V30 22 N 0.556415 0.223105 -0.30956 0
M  V30 23 C 1.95071 0.115141 -0.0776693 0
M  V30 24 C 2.83891 -0.214653 -1.08535 0
M  V30 25 C 4.18581 -0.316485 -0.850396 0
M  V30 26 C 4.65486 -0.085035 0.412951 0
M  V30 27 C 3.7942 0.241793 1.42153 0
M  V30 28 C 2.44353 0.345295 1.19204 0
M  V30 29 S 6.36686 -0.200735 0.772341 0
M  V30 30 N 7.12233 1.33716 0.53675 0
M  V30 31 O 6.95544 -1.25312 -0.118862 0
M  V30 32 O 6.53494 -0.621726 2.22072 0
M  V30 33 H 1.02625 2.91614 -1.79473 0
M  V30 34 H 0.946735 3.20643 0.0107944 0
M  V30 35 H -2.56537 0.192194 -1.91988 0
M  V30 36 H -2.51343 1.54992 1.52242 0
M  V30 37 H -4.64441 2.11924 2.72377 0
M  V30 38 H -6.88102 0.567557 -0.484973 0
M  V30 39 H -0.179996 -2.32165 1.35171 0
M  V30 40 H 1.3318 -2.21608 0.324813 0
M  V30 41 H 0.195992 -4.22155 -0.405473 0
M  V30 42 H -0.0846966 -2.92165 -1.66292 0
M  V30 43 H -2.31592 -3.7628 -1.36163 0
M  V30 44 H -2.04154 -4.0567 0.39342 0
M  V30 45 H 2.41484 -0.387253 -2.06531 0
M  V30 46 H 4.88433 -0.572777 -1.62931 0
M  V30 47 H 4.19688 0.420895 2.41937 0
M  V30 48 H 1.77439 0.60275 1.99105 0
M  V30 49 H 6.40625 2.02789 0.246875 0
M  V30 50 H 7.8452 1.22526 -0.194363 0
M  V30 END ATOM
M  V30 BEGIN BOND
M  V30 1 1 1 2
M  V30 2 2 2 3
M  V30 3 1 3 4
M  V30 4 3 4 5
M  V30 5 1 3 6
M  V30 6 1 6 7
M  V30 7 2 7 8
M  V30 8 1 8 9
M  V30 9 2 9 10
M  V30 10 1 10 11
M  V30 11 1 10 12
M  V30 12 2 12 13
M  V30 13 1 13 14
M  V30 14 1 6 15
M  V30 15 2 15 16
M  V30 16 1 16 17
M  V30 17 1 17 18
M  V30 18 1 18 19
M  V30 19 1 19 20
M  V30 20 2 20 21
M  V30 21 1 16 22
M  V30 22 1 22 23
M  V30 23 2 23 24
M  V30 24 1 24 25
M  V30 25 2 25 26
M  V30 26 1 26 27
M  V30 27 2 27 28
M  V30 28 1 26 29
M  V30 29 1 29 30
M  V30 30 2 29 31
M  V30 31 2 29 32
M  V30 32 1 22 2
M  V30 33 1 28 23
M  V30 34 1 13 7
M  V30 35 1 20 15
M  V30 36 1 1 33
M  V30 37 1 1 34
M  V30 38 1 6 35
M  V30 39 1 8 36
M  V30 40 1 9 37
M  V30 41 1 12 38
M  V30 42 1 17 39
M  V30 43 1 17 40
M  V30 44 1 18 41
M  V30 45 1 18 42
M  V30 46 1 19 43
M  V30 47 1 19 44
M  V30 48 1 24 45
M  V30 49 1 25 46
M  V30 50 1 27 47
M  V30 51 1 28 48
M  V30 52 1 30 49
M  V30 53 1 30 50
M  V30 END BOND
M  V30 END CTAB
M  END
