
     RDKit          3D

  0  0  0  0  0  0  0  0  0  0999 V3000
M  V30 BEGIN CTAB
M  V30 COUNTS 36 38 0 0 0
M  V30 BEGIN ATOM
M  V30 1 C -4.4988 0.206743 1.89254 0
M  V30 2 C -3.69929 -0.169673 0.686359 0
M  V30 3 C -3.97497 -1.37372 0.0501632 0
M  V30 4 C -3.25629 -1.75154 -1.0652 0
M  V30 5 C -2.26009 -0.943676 -1.56095 0
M  V30 6 C -1.97526 0.257891 -0.937115 0
M  V30 7 C -0.925164 1.16575 -1.41517 0
M  V30 8 N 0.361756 0.903968 -0.823401 0
M  V30 9 C 0.826514 1.45877 0.310076 0
M  V30 10 C 2.09001 0.976333 0.571834 0
M  V30 11 C 2.97373 1.29817 1.68874 0
M  V30 12 N 3.19602 0.429109 2.78532 0
M  V30 13 S 3.75341 2.73274 1.68633 0
M  V30 14 C 2.40509 0.0935368 -0.442917 0
M  V30 15 C 1.30552 0.073653 -1.29356 0
M  V30 16 N 1.38216 -0.728846 -2.37292 0
M  V30 17 C 2.47604 -1.47381 -2.6099 0
M  V30 18 N 3.53289 -1.445 -1.77857 0
M  V30 19 C 3.53469 -0.669208 -0.678357 0
M  V30 20 N 4.65587 -0.633752 0.210507 0
M  V30 21 C -2.69715 0.637787 0.18354 0
M  V30 22 H -5.4959 0.599548 1.55769 0
M  V30 23 H -4.01157 0.995318 2.47173 0
M  V30 24 H -4.62348 -0.665846 2.57231 0
M  V30 25 H -4.76041 -1.9816 0.463988 0
M  V30 26 H -3.48951 -2.69347 -1.54294 0
M  V30 27 H -1.66915 -1.19254 -2.42932 0
M  V30 28 H -1.26005 2.2064 -1.22223 0
M  V30 29 H -0.896855 1.07083 -2.53274 0
M  V30 30 H 0.307016 2.17387 0.934392 0
M  V30 31 H 2.36233 0.0261376 3.25829 0
M  V30 32 H 4.17189 0.200216 3.1089 0
M  V30 33 H 2.55663 -2.13037 -3.4796 0
M  V30 34 H 5.19957 0.254823 0.269196 0
M  V30 35 H 4.90841 -1.48418 0.777519 0
M  V30 36 H -2.50563 1.57564 0.705465 0
M  V30 END ATOM
M  V30 BEGIN BOND
M  V30 1 1 1 2
M  V30 2 2 2 3
M  V30 3 1 3 4
M  V30 4 2 4 5
M  V30 5 1 5 6
M  V30 6 1 6 7
M  V30 7 1 7 8
M  V30 8 1 8 9
M  V30 9 2 9 10
M  V30 10 1 10 11
M  V30 11 1 11 12
M  V30 12 2 11 13
M  V30 13 1 10 14
M  V30 14 2 14 15
M  V30 15 1 15 16
M  V30 16 2 16 17
M  V30 17 1 17 18
M  V30 18 2 18 19
M  V30 19 1 19 20
M  V30 20 2 6 21
M  V30 21 1 21 2
M  V30 22 1 15 8
M  V30 23 1 19 14
M  V30 24 1 1 22
M  V30 25 1 1 23
M  V30 26 1 1 24
M  V30 27 1 3 25
M  V30 28 1 4 26
M  V30 29 1 5 27
M  V30 30 1 7 28
M  V30 31 1 7 29
M  V30 32 1 9 30
M  V30 33 1 12 31
M  V30 34 1 12 32
M  V30 35 1 17 33
M  V30 36 1 20 34
M  V30 37 1 20 35
M  V30 38 1 21 36
M  V30 END BOND
M  V30 END CTAB
M  END
