
     RDKit          3D

  0  0  0  0  0  0  0  0  0  0999 V3000
M  V30 BEGIN CTAB
M  V30 COUNTS 47 49 0 0 0
M  V30 BEGIN ATOM
M  V30 1 N -3.33154 -0.728177 2.66143 0
M  V30 2 C -2.80455 -0.850056 1.31955 0
M  V30 3 C -3.92222 -1.11685 0.359176 0
M  V30 4 C -4.60613 0.0915828 -0.157043 0
M  V30 5 C -4.14665 1.3862 0.379677 0
M  V30 6 O -2.87879 1.50317 0.802203 0
M  V30 7 C -2.09651 0.404822 0.881495 0
M  V30 8 C -1.37699 0.183847 -0.409263 0
M  V30 9 C -0.681338 1.44324 -0.824604 0
M  V30 10 C 0.849059 1.3202 -0.649051 0
M  V30 11 N 1.37909 0.242565 -1.33884 0
M  V30 12 C 0.511432 -0.880071 -1.55903 0
M  V30 13 C -0.439144 -1.00625 -0.374291 0
M  V30 14 S 2.99472 0.00316054 -1.60455 0
M  V30 15 O 3.30524 -1.18119 -2.49389 0
M  V30 16 O 3.56181 1.24641 -2.30209 0
M  V30 17 C 3.8956 -0.183836 -0.132421 0
M  V30 18 C 4.34735 -1.4629 0.191689 0
M  V30 19 C 5.02592 -1.70247 1.35642 0
M  V30 20 Cl 5.58076 -3.33095 1.73128 0
M  V30 21 C 5.25496 -0.647929 2.20724 0
M  V30 22 N 4.81928 0.569487 1.88645 0
M  V30 23 C 4.14072 0.849202 0.736164 0
M  V30 24 N 3.76978 2.19322 0.490801 0
M  V30 25 H -3.81429 -1.65467 2.86566 0
M  V30 26 H -4.06883 0.0134145 2.71545 0
M  V30 27 H -2.08566 -1.68702 1.30027 0
M  V30 28 H -3.48357 -1.73703 -0.476784 0
M  V30 29 H -4.6323 -1.83178 0.87005 0
M  V30 30 H -5.70703 -0.0171841 0.0668241 0
M  V30 31 H -4.55929 0.0751829 -1.28539 0
M  V30 32 H -4.83581 1.71926 1.21158 0
M  V30 33 H -4.32149 2.16205 -0.42528 0
M  V30 34 H -1.30321 0.598157 1.66338 0
M  V30 35 H -2.13887 -0.045779 -1.18796 0
M  V30 36 H -0.82907 1.67199 -1.8974 0
M  V30 37 H -0.981626 2.32261 -0.215423 0
M  V30 38 H 1.24524 2.28389 -1.02594 0
M  V30 39 H 0.990317 1.19596 0.443671 0
M  V30 40 H -0.0601929 -0.841964 -2.48584 0
M  V30 41 H 1.14163 -1.7972 -1.5494 0
M  V30 42 H -1.05308 -1.91741 -0.5386 0
M  V30 43 H 0.117804 -1.08258 0.56255 0
M  V30 44 H 4.15163 -2.27092 -0.497924 0
M  V30 45 H 5.79309 -0.846959 3.12868 0
M  V30 46 H 4.15456 2.65865 -0.361214 0
M  V30 47 H 3.12815 2.68288 1.15839 0
M  V30 END ATOM
M  V30 BEGIN BOND
M  V30 1 1 1 2
M  V30 2 1 2 3
M  V30 3 1 3 4
M  V30 4 1 4 5
M  V30 5 1 5 6
M  V30 6 1 6 7
M  V30 7 1 7 8
M  V30 8 1 8 9
M  V30 9 1 9 10
M  V30 10 1 10 11
M  V30 11 1 11 12
M  V30 12 1 12 13
M  V30 13 1 11 14
M  V30 14 2 14 15
M  V30 15 2 14 16
M  V30 16 1 14 17
M  V30 17 2 17 18
M  V30 18 1 18 19
M  V30 19 1 19 20
M  V30 20 2 19 21
M  V30 21 1 21 22
M  V30 22 2 22 23
M  V30 23 1 23 24
M  V30 24 1 7 2
M  V30 25 1 13 8
M  V30 26 1 23 17
M  V30 27 1 1 25
M  V30 28 1 1 26
M  V30 29 1 2 27
M  V30 30 1 3 28
M  V30 31 1 3 29
M  V30 32 1 4 30
M  V30 33 1 4 31
M  V30 34 1 5 32
M  V30 35 1 5 33
M  V30 36 1 7 34
M  V30 37 1 8 35
M  V30 38 1 9 36
M  V30 39 1 9 37
M  V30 40 1 10 38
M  V30 41 1 10 39
M  V30 42 1 12 40
M  V30 43 1 12 41
M  V30 44 1 13 42
M  V30 45 1 13 43
M  V30 46 1 18 44
M  V30 47 1 21 45
M  V30 48 1 24 46
M  V30 49 1 24 47
M  V30 END BOND
M  V30 END CTAB
M  END
