
     RDKit          3D

  0  0  0  0  0  0  0  0  0  0999 V3000
M  V30 BEGIN CTAB
M  V30 COUNTS 26 26 0 0 0
M  V30 BEGIN ATOM
M  V30 1 N -4.8582 0.250157 -0.0744459 0
M  V30 2 C -3.58471 -0.437958 -0.0745844 0
M  V30 3 C -2.40629 0.476481 0.036329 0
M  V30 4 C -1.15669 -0.395597 0.0244077 0
M  V30 5 N 0.0139569 0.459771 0.1319 0
M  V30 6 C 1.29908 -0.196546 0.147952 0
M  V30 7 N 1.54437 -1.50436 0.0756872 0
M  V30 8 N 2.84715 -1.70689 0.122433 0
M  V30 9 C 3.51369 -0.547323 0.227108 0
M  V30 10 C 2.51949 0.438146 0.244597 0
M  V30 11 N 2.76513 1.8118 0.342587 0 CHG=1
M  V30 12 O 2.62143 2.54238 -0.645783 0
M  V30 13 O 3.16485 2.34809 1.5326 0 CHG=-1
M  V30 14 N 4.91521 -0.347389 0.303847 0
M  V30 15 H -5.5919 -0.377136 0.321953 0
M  V30 16 H -5.16653 0.500566 -1.03938 0
M  V30 17 H -3.49083 -0.964042 -1.06372 0
M  V30 18 H -3.51437 -1.21369 0.716603 0
M  V30 19 H -2.38247 1.02295 1.0122 0
M  V30 20 H -2.42245 1.19968 -0.778939 0
M  V30 21 H -1.21392 -1.11248 0.864879 0
M  V30 22 H -1.03603 -0.933221 -0.943984 0
M  V30 23 H -0.0295446 1.49737 0.196539 0
M  V30 24 H 0.799152 -2.24827 -0.00593326 0
M  V30 25 H 5.38083 0.369981 -0.269793 0
M  V30 26 H 5.46958 -0.93248 0.945343 0
M  V30 END ATOM
M  V30 BEGIN BOND
M  V30 1 1 1 2
M  V30 2 1 2 3
M  V30 3 1 3 4
M  V30 4 1 4 5
M  V30 5 1 5 6
M  V30 6 1 6 7
M  V30 7 1 7 8
M  V30 8 2 8 9
M  V30 9 1 9 10
M  V30 10 1 10 11
M  V30 11 2 11 12
M  V30 12 1 11 13
M  V30 13 1 9 14
M  V30 14 2 10 6
M  V30 15 1 1 15
M  V30 16 1 1 16
M  V30 17 1 2 17
M  V30 18 1 2 18
M  V30 19 1 3 19
M  V30 20 1 3 20
M  V30 21 1 4 21
M  V30 22 1 4 22
M  V30 23 1 5 23
M  V30 24 1 7 24
M  V30 25 1 14 25
M  V30 26 1 14 26
M  V30 END BOND
M  V30 END CTAB
M  END
