
     RDKit          3D

  0  0  0  0  0  0  0  0  0  0999 V3000
M  V30 BEGIN CTAB
M  V30 COUNTS 44 44 0 0 0
M  V30 BEGIN ATOM
M  V30 1 C -4.36293 1.73967 0.342576 0
M  V30 2 C -3.12447 1.30653 -0.430839 0
M  V30 3 C -2.99973 -0.192607 -0.380724 0
M  V30 4 C -1.80993 -0.678913 -1.10682 0
M  V30 5 N -0.533147 -0.176616 -0.783678 0
M  V30 6 C 0.216639 -0.115449 0.374327 0
M  V30 7 O -0.174416 -0.540298 1.47918 0
M  V30 8 C 1.58218 0.483875 0.405449 0
M  V30 9 C 1.70557 1.80482 0.799195 0
M  V30 10 C 2.96834 2.39772 0.778627 0
M  V30 11 Br 3.13064 4.20848 1.31385 0
M  V30 12 C 4.01854 1.62059 0.364131 0
M  V30 13 C 3.91922 0.307375 -0.0295775 0
M  V30 14 C 2.65849 -0.269779 -0.00575419 0
M  V30 15 C 2.45801 -1.691 -0.397982 0
M  V30 16 S 5.32199 -0.64552 -0.519067 0
M  V30 17 O 5.57716 -1.73274 0.482463 0
M  V30 18 O 5.20098 -1.14925 -1.89925 0
M  V30 19 N 6.69112 0.414417 -0.448411 0
M  V30 20 C -3.34214 -0.762147 0.939818 0
M  V30 21 C -3.22961 -2.28291 0.970772 0
M  V30 22 N -4.1442 -0.597264 -1.33154 0
M  V30 23 H -5.1636 1.03427 0.0388912 0
M  V30 24 H -4.18926 1.7351 1.42909 0
M  V30 25 H -4.59543 2.774 0.0362232 0
M  V30 26 H -2.20802 1.82309 -0.0486307 0
M  V30 27 H -3.26267 1.62851 -1.48258 0
M  V30 28 H -2.01267 -0.58615 -2.23936 0
M  V30 29 H -1.73215 -1.82668 -1.03309 0
M  V30 30 H -0.0290184 0.264665 -1.66929 0
M  V30 31 H 0.816092 2.34158 1.11136 0
M  V30 32 H 5.01274 2.06996 0.340428 0
M  V30 33 H 1.36418 -1.8832 -0.572545 0
M  V30 34 H 2.97582 -1.94844 -1.32746 0
M  V30 35 H 2.80783 -2.28446 0.497876 0
M  V30 36 H 6.39143 1.30524 -0.949576 0
M  V30 37 H 6.76933 0.71079 0.55361 0
M  V30 38 H -2.87265 -0.363263 1.82845 0
M  V30 39 H -4.46303 -0.579476 1.13584 0
M  V30 40 H -3.85776 -2.70115 1.78152 0
M  V30 41 H -3.52244 -2.76587 0.0345009 0
M  V30 42 H -2.191 -2.58239 1.17383 0
M  V30 43 H -3.91218 -1.58441 -1.54839 0
M  V30 44 H -3.85386 -0.0306894 -2.18466 0
M  V30 END ATOM
M  V30 BEGIN BOND
M  V30 1 1 1 2
M  V30 2 1 2 3
M  V30 3 1 3 4
M  V30 4 1 4 5
M  V30 5 1 5 6
M  V30 6 2 6 7
M  V30 7 1 6 8
M  V30 8 2 8 9
M  V30 9 1 9 10
M  V30 10 1 10 11
M  V30 11 2 10 12
M  V30 12 1 12 13
M  V30 13 2 13 14
M  V30 14 1 14 15
M  V30 15 1 13 16
M  V30 16 2 16 17
M  V30 17 2 16 18
M  V30 18 1 16 19
M  V30 19 1 3 20
M  V30 20 1 20 21
M  V30 21 1 3 22
M  V30 22 1 14 8
M  V30 23 1 1 23
M  V30 24 1 1 24
M  V30 25 1 1 25
M  V30 26 1 2 26
M  V30 27 1 2 27
M  V30 28 1 4 28
M  V30 29 1 4 29
M  V30 30 1 5 30
M  V30 31 1 9 31
M  V30 32 1 12 32
M  V30 33 1 15 33
M  V30 34 1 15 34
M  V30 35 1 15 35
M  V30 36 1 19 36
M  V30 37 1 19 37
M  V30 38 1 20 38
M  V30 39 1 20 39
M  V30 40 1 21 40
M  V30 41 1 21 41
M  V30 42 1 21 42
M  V30 43 1 22 43
M  V30 44 1 22 44
M  V30 END BOND
M  V30 END CTAB
M  END
