
     RDKit          3D

  0  0  0  0  0  0  0  0  0  0999 V3000
M  V30 BEGIN CTAB
M  V30 COUNTS 120 125 0 0 0
M  V30 BEGIN ATOM
M  V30 1 N 2.80822 -3.83028 0.446466 0
M  V30 2 C 3.77164 -4.04875 1.44064 0
M  V30 3 C 3.92926 -3.19064 2.61557 0
M  V30 4 C 4.29812 -1.79952 2.62639 0
M  V30 5 C 3.71204 -0.565722 2.27486 0
M  V30 6 C 3.10689 -0.00493077 1.06664 0
M  V30 7 C 1.87436 -0.483714 0.528409 0
M  V30 8 O 1.78143 -0.780727 -0.71308 0
M  V30 9 N 0.646857 -0.685936 1.23372 0
M  V30 10 C -0.549877 -1.15632 0.666684 0
M  V30 11 C -1.57655 -0.0576163 0.384991 0
M  V30 12 O -1.36526 1.07266 0.829731 0
M  V30 13 N -2.70559 -0.38919 -0.357515 0
M  V30 14 C -3.838 0.419916 -0.739207 0
M  V30 15 C -5.03962 -0.018838 -0.0678335 0
M  V30 16 O -4.88602 -0.90127 0.905057 0
M  V30 17 N -6.38271 0.325239 -0.261322 0
M  V30 18 C -7.45671 -0.232642 0.568285 0
M  V30 19 C -7.6119 -1.71311 0.29114 0
M  V30 20 O -6.87992 -2.21963 -0.574094 0
M  V30 21 O -8.50607 -2.51629 0.938633 0
M  V30 22 C -8.75581 0.463421 0.42964 0
M  V30 23 C -8.65144 1.88183 0.795062 0
M  V30 24 C -8.61783 2.90688 -0.149479 0
M  V30 25 N -8.5167 4.08225 0.477868 0
M  V30 26 C -8.48235 3.87676 1.80389 0
M  V30 27 C -8.56538 2.5094 2.01481 0
M  V30 28 C -8.56304 1.96625 3.2802 0
M  V30 29 C -8.47602 2.81573 4.34085 0
M  V30 30 C -8.39085 4.20179 4.17204 0
M  V30 31 C -8.3952 4.71238 2.89644 0
M  V30 32 C -3.81252 0.858755 -2.13654 0
M  V30 33 C -3.70371 -0.120488 -3.205 0
M  V30 34 C -2.44903 -0.489397 -3.765 0
M  V30 35 N -2.67841 -1.43942 -4.68467 0
M  V30 36 C -3.98177 -1.68813 -4.74245 0
M  V30 37 C -4.62811 -0.87561 -3.82961 0
M  V30 38 C -5.98797 -0.985617 -3.76555 0
M  V30 39 C -6.72377 -1.85207 -4.54729 0
M  V30 40 C -6.05158 -2.66071 -5.45473 0
M  V30 41 C -4.6922 -2.57866 -5.55162 0
M  V30 42 C -1.321 -2.1969 1.36257 0
M  V30 43 C -0.770688 -3.49903 1.62156 0
M  V30 44 C -0.895277 -4.51912 0.685139 0
M  V30 45 C -0.400454 -5.77375 0.957895 0
M  V30 46 C 0.221255 -6.04735 2.15039 0
M  V30 47 C 0.355541 -5.05746 3.08351 0
M  V30 48 C -0.147009 -3.79191 2.79928 0
M  V30 49 N 4.1548 0.061419 0.00219727 0
M  V30 50 C 5.01733 1.10334 -0.224969 0
M  V30 51 O 4.95029 2.12157 0.523672 0
M  V30 52 C 6.03426 1.11207 -1.29146 0
M  V30 53 N 6.99389 2.22211 -1.10071 0
M  V30 54 C 8.363 1.88504 -0.974711 0
M  V30 55 O 8.68055 0.659201 -1.03254 0
M  V30 56 C 9.45314 2.84329 -0.78276 0
M  V30 57 C 9.3559 3.68397 0.4504 0
M  V30 58 C 10.5598 4.59119 0.445568 0
M  V30 59 N 11.5474 4.64315 -0.459928 0
M  V30 60 C 12.4276 5.58288 -0.118467 0
M  V30 61 N 12.0255 6.16564 1.02476 0
M  V30 62 C 10.8644 5.55903 1.38965 0
M  V30 63 N 10.7554 2.17873 -0.74637 0
M  V30 64 C 5.45172 1.2415 -2.69065 0
M  V30 65 S 4.36237 -0.0982243 -3.14443 0
M  V30 66 H 2.48122 -4.74773 0.0287842 0
M  V30 67 H 3.17208 -3.30241 -0.402745 0
M  V30 68 H 3.64726 -5.15118 1.7688 0
M  V30 69 H 4.76769 -4.14525 0.869264 0
M  V30 70 H 4.63043 -3.79953 3.32553 0
M  V30 71 H 2.94458 -3.33402 3.25471 0
M  V30 72 H 4.72201 -1.67054 3.76278 0
M  V30 73 H 5.42755 -1.82061 2.18803 0
M  V30 74 H 2.94173 -0.340055 3.16847 0
M  V30 75 H 4.49486 0.260872 2.67485 0
M  V30 76 H 2.99018 1.12114 1.28759 0
M  V30 77 H 0.666657 -0.457054 2.2549 0
M  V30 78 H -0.308002 -1.50223 -0.382878 0
M  V30 79 H -2.80235 -1.3986 -0.764664 0
M  V30 80 H -3.57439 1.42614 -0.151715 0
M  V30 81 H -6.69975 0.999391 -1.00547 0
M  V30 82 H -7.07028 -0.220785 1.60893 0
M  V30 83 H -8.33575 -2.90177 1.87059 0
M  V30 84 H -9.46839 -0.00469321 1.17561 0
M  V30 85 H -9.17679 0.339085 -0.592855 0
M  V30 86 H -8.66476 2.78367 -1.2293 0
M  V30 87 H -8.47058 5.02205 0.0284036 0
M  V30 88 H -8.62712 0.881399 3.39899 0
M  V30 89 H -8.47621 2.37399 5.33463 0
M  V30 90 H -8.32759 4.84312 5.01036 0
M  V30 91 H -8.33437 5.77948 2.75437 0
M  V30 92 H -4.70084 1.54994 -2.28938 0
M  V30 93 H -2.94243 1.58287 -2.25586 0
M  V30 94 H -1.47922 -0.100628 -3.51937 0
M  V30 95 H -1.95718 -1.93805 -5.2928 0
M  V30 96 H -6.54352 -0.35567 -3.07687 0
M  V30 97 H -7.79408 -1.92263 -4.47952 0
M  V30 98 H -6.59456 -3.35047 -6.07998 0
M  V30 99 H -4.19664 -3.22432 -6.27744 0
M  V30 100 H -1.69272 -1.6984 2.3415 0
M  V30 101 H -2.30503 -2.33087 0.82428 0
M  V30 102 H -1.39421 -4.29081 -0.261192 0
M  V30 103 H -0.490157 -6.57249 0.24065 0
M  V30 104 H 0.622997 -7.05079 2.37719 0
M  V30 105 H 0.836012 -5.23164 4.02297 0
M  V30 106 H -0.0419439 -3.01728 3.53701 0
M  V30 107 H 4.18036 -0.799357 -0.582005 0
M  V30 108 H 6.64096 0.187895 -1.31708 0
M  V30 109 H 6.59192 3.16829 -1.07223 0
M  V30 110 H 9.52737 3.55102 -1.65121 0
M  V30 111 H 9.52515 3.02923 1.35911 0
M  V30 112 H 8.41874 4.25424 0.555183 0
M  V30 113 H 13.3477 5.87511 -0.644496 0
M  V30 114 H 12.4756 6.92932 1.56501 0
M  V30 115 H 10.3153 5.81284 2.25902 0
M  V30 116 H 10.8093 1.53243 0.0747326 0
M  V30 117 H 10.8532 1.66663 -1.65355 0
M  V30 118 H 6.33671 1.22756 -3.38927 0
M  V30 119 H 4.97543 2.2421 -2.82976 0
M  V30 120 H 5.0794 -1.23836 -3.59336 0
M  V30 END ATOM
M  V30 BEGIN BOND
M  V30 1 1 1 2
M  V30 2 1 2 3
M  V30 3 1 3 4
M  V30 4 1 4 5
M  V30 5 1 5 6
M  V30 6 1 6 7
M  V30 7 2 7 8
M  V30 8 1 7 9
M  V30 9 1 9 10
M  V30 10 1 10 11
M  V30 11 2 11 12
M  V30 12 1 11 13
M  V30 13 1 13 14
M  V30 14 1 14 15
M  V30 15 2 15 16
M  V30 16 1 15 17
M  V30 17 1 17 18
M  V30 18 1 18 19
M  V30 19 2 19 20
M  V30 20 1 19 21
M  V30 21 1 18 22
M  V30 22 1 22 23
M  V30 23 2 23 24
M  V30 24 1 24 25
M  V30 25 1 25 26
M  V30 26 2 26 27
M  V30 27 1 27 28
M  V30 28 2 28 29
M  V30 29 1 29 30
M  V30 30 2 30 31
M  V30 31 1 14 32
M  V30 32 1 32 33
M  V30 33 2 33 34
M  V30 34 1 34 35
M  V30 35 1 35 36
M  V30 36 2 36 37
M  V30 37 1 37 38
M  V30 38 2 38 39
M  V30 39 1 39 40
M  V30 40 2 40 41
M  V30 41 1 10 42
M  V30 42 1 42 43
M  V30 43 2 43 44
M  V30 44 1 44 45
M  V30 45 2 45 46
M  V30 46 1 46 47
M  V30 47 2 47 48
M  V30 48 1 6 49
M  V30 49 1 49 50
M  V30 50 2 50 51
M  V30 51 1 50 52
M  V30 52 1 52 53
M  V30 53 1 53 54
M  V30 54 2 54 55
M  V30 55 1 54 56
M  V30 56 1 56 57
M  V30 57 1 57 58
M  V30 58 1 58 59
M  V30 59 2 59 60
M  V30 60 1 60 61
M  V30 61 1 61 62
M  V30 62 1 56 63
M  V30 63 1 52 64
M  V30 64 1 64 65
M  V30 65 1 27 23
M  V30 66 1 37 33
M  V30 67 1 48 43
M  V30 68 2 62 58
M  V30 69 1 31 26
M  V30 70 1 41 36
M  V30 71 1 1 66
M  V30 72 1 1 67
M  V30 73 1 2 68
M  V30 74 1 2 69
M  V30 75 1 3 70
M  V30 76 1 3 71
M  V30 77 1 4 72
M  V30 78 1 4 73
M  V30 79 1 5 74
M  V30 80 1 5 75
M  V30 81 1 6 76
M  V30 82 1 9 77
M  V30 83 1 10 78
M  V30 84 1 13 79
M  V30 85 1 14 80
M  V30 86 1 17 81
M  V30 87 1 18 82
M  V30 88 1 21 83
M  V30 89 1 22 84
M  V30 90 1 22 85
M  V30 91 1 24 86
M  V30 92 1 25 87
M  V30 93 1 28 88
M  V30 94 1 29 89
M  V30 95 1 30 90
M  V30 96 1 31 91
M  V30 97 1 32 92
M  V30 98 1 32 93
M  V30 99 1 34 94
M  V30 100 1 35 95
M  V30 101 1 38 96
M  V30 102 1 39 97
M  V30 103 1 40 98
M  V30 104 1 41 99
M  V30 105 1 42 100
M  V30 106 1 42 101
M  V30 107 1 44 102
M  V30 108 1 45 103
M  V30 109 1 46 104
M  V30 110 1 47 105
M  V30 111 1 48 106
M  V30 112 1 49 107
M  V30 113 1 52 108
M  V30 114 1 53 109
M  V30 115 1 56 110
M  V30 116 1 57 111
M  V30 117 1 57 112
M  V30 118 1 60 113
M  V30 119 1 61 114
M  V30 120 1 62 115
M  V30 121 1 63 116
M  V30 122 1 63 117
M  V30 123 1 64 118
M  V30 124 1 64 119
M  V30 125 1 65 120
M  V30 END BOND
M  V30 END CTAB
M  END
