
     RDKit          3D

  0  0  0  0  0  0  0  0  0  0999 V3000
M  V30 BEGIN CTAB
M  V30 COUNTS 29 29 0 0 0
M  V30 BEGIN ATOM
M  V30 1 O -1.74204 3.13994 0.624813 0
M  V30 2 C -2.09415 2.15743 -0.301796 0
M  V30 3 C -1.58785 0.848574 0.238579 0
M  V30 4 O -1.87258 -0.229317 -0.593233 0
M  V30 5 C -1.39694 -1.36307 0.0551139 0
M  V30 6 C -2.07793 -2.62566 -0.40435 0
M  V30 7 C 0.103969 -1.44486 -0.123829 0
M  V30 8 N 0.654724 -0.14979 0.123128 0
M  V30 9 C -0.150823 0.95241 0.619727 0
M  V30 10 C 2.04125 0.0787684 -0.123073 0
M  V30 11 N 2.76956 0.631359 0.780152 0
M  V30 12 N 4.11631 0.840975 0.511421 0
M  V30 13 N 2.53647 -0.33463 -1.39274 0
M  V30 14 H -1.80309 2.7234 1.52546 0
M  V30 15 H -1.62044 2.37802 -1.28196 0
M  V30 16 H -3.21157 2.17794 -0.358554 0
M  V30 17 H -2.16764 0.654876 1.1885 0
M  V30 18 H -1.59921 -1.24974 1.1408 0
M  V30 19 H -2.20247 -2.65792 -1.50485 0
M  V30 20 H -1.41259 -3.47285 -0.126072 0
M  V30 21 H -3.03208 -2.79897 0.136424 0
M  V30 22 H 0.376011 -1.87148 -1.11382 0
M  V30 23 H 0.466057 -2.15279 0.676287 0
M  V30 24 H 0.264111 1.91799 0.224596 0
M  V30 25 H -0.00404002 0.984064 1.73063 0
M  V30 26 H 4.78824 0.0725706 0.669287 0
M  V30 27 H 4.41332 1.76645 0.15814 0
M  V30 28 H 2.04203 -0.0509216 -2.24683 0
M  V30 29 H 3.40339 -0.922755 -1.38608 0
M  V30 END ATOM
M  V30 BEGIN BOND
M  V30 1 1 1 2
M  V30 2 1 2 3
M  V30 3 1 3 4
M  V30 4 1 4 5
M  V30 5 1 5 6
M  V30 6 1 5 7
M  V30 7 1 7 8
M  V30 8 1 8 9
M  V30 9 1 8 10
M  V30 10 2 10 11 CFG=2
M  V30 11 1 11 12
M  V30 12 1 10 13
M  V30 13 1 9 3
M  V30 14 1 1 14
M  V30 15 1 2 15
M  V30 16 1 2 16
M  V30 17 1 3 17
M  V30 18 1 5 18
M  V30 19 1 6 19
M  V30 20 1 6 20
M  V30 21 1 6 21
M  V30 22 1 7 22
M  V30 23 1 7 23
M  V30 24 1 9 24
M  V30 25 1 9 25
M  V30 26 1 12 26
M  V30 27 1 12 27
M  V30 28 1 13 28
M  V30 29 1 13 29
M  V30 END BOND
M  V30 END CTAB
M  END
