
     RDKit          3D

  0  0  0  0  0  0  0  0  0  0999 V3000
M  V30 BEGIN CTAB
M  V30 COUNTS 23 23 0 0 0
M  V30 BEGIN ATOM
M  V30 1 N -3.84566 -0.0322913 -0.149931 0
M  V30 2 C -2.44489 -0.10515 -0.591264 0
M  V30 3 C -1.54909 0.126508 0.60222 0
M  V30 4 O -1.75836 -0.827865 1.59673 0
M  V30 5 C -0.113064 0.0665642 0.247245 0
M  V30 6 C 0.835527 0.0082846 1.24804 0
M  V30 7 C 2.1935 -0.0503445 1.00138 0
M  V30 8 C 2.66066 -0.0524327 -0.307677 0
M  V30 9 N 4.02555 -0.110133 -0.635984 0
M  V30 10 C 1.7084 0.0059811 -1.30656 0
M  V30 11 C 0.351505 0.0644848 -1.05499 0
M  V30 12 H -3.86431 0.569679 0.700387 0
M  V30 13 H -4.45144 0.364411 -0.896568 0
M  V30 14 H -2.28189 -1.12985 -0.97763 0
M  V30 15 H -2.27975 0.636465 -1.37101 0
M  V30 16 H -1.80431 1.11023 1.04688 0
M  V30 17 H -1.52769 -0.405749 2.46114 0
M  V30 18 H 0.459065 0.0104261 2.27946 0
M  V30 19 H 2.93016 -0.0960042 1.80465 0
M  V30 20 H 4.42904 0.553806 -1.31529 0
M  V30 21 H 4.63166 -0.820816 -0.196054 0
M  V30 22 H 2.07212 0.00446063 -2.33317 0
M  V30 23 H -0.376731 0.109327 -1.85202 0
M  V30 END ATOM
M  V30 BEGIN BOND
M  V30 1 1 1 2
M  V30 2 1 2 3
M  V30 3 1 3 4
M  V30 4 1 3 5
M  V30 5 2 5 6
M  V30 6 1 6 7
M  V30 7 2 7 8
M  V30 8 1 8 9
M  V30 9 1 8 10
M  V30 10 2 10 11
M  V30 11 1 11 5
M  V30 12 1 1 12
M  V30 13 1 1 13
M  V30 14 1 2 14
M  V30 15 1 2 15
M  V30 16 1 3 16
M  V30 17 1 4 17
M  V30 18 1 6 18
M  V30 19 1 7 19
M  V30 20 1 9 20
M  V30 21 1 9 21
M  V30 22 1 10 22
M  V30 23 1 11 23
M  V30 END BOND
M  V30 END CTAB
M  END
