
     RDKit          3D

  0  0  0  0  0  0  0  0  0  0999 V3000
M  V30 BEGIN CTAB
M  V30 COUNTS 24 24 0 0 0
M  V30 BEGIN ATOM
M  V30 1 C 2.90711 -1.66992 -0.572106 0
M  V30 2 C 1.96205 -0.552602 -0.36527 0
M  V30 3 C 2.35149 0.770429 -0.497523 0
M  V30 4 N 1.5021 1.78945 -0.310233 0
M  V30 5 C 0.202733 1.59563 0.0221321 0
M  V30 6 C -0.232608 0.292935 0.16525 0
M  V30 7 C 0.635415 -0.762618 -0.026231 0
M  V30 8 C -1.65441 0.0782555 0.518416 0
M  V30 9 N -2.56323 0.462143 -0.529055 0
M  V30 10 C -1.96595 -1.35404 0.846094 0
M  V30 11 N -0.679375 2.70823 0.226186 0
M  V30 12 H 3.89899 -1.48495 -0.11013 0
M  V30 13 H 2.49783 -2.55856 -0.0320669 0
M  V30 14 H 3.02991 -1.96092 -1.63321 0
M  V30 15 H 3.36012 0.996796 -0.756266 0
M  V30 16 H 0.267126 -1.79206 0.095558 0
M  V30 17 H -1.85666 0.692553 1.41807 0
M  V30 18 H -2.24905 0.249956 -1.48575 0
M  V30 19 H -3.1055 1.30803 -0.376921 0
M  V30 20 H -2.93933 -1.3353 1.41406 0
M  V30 21 H -2.16695 -1.91772 -0.0868756 0
M  V30 22 H -1.20791 -1.8206 1.50196 0
M  V30 23 H -1.42758 2.72466 0.946878 0
M  V30 24 H -0.566313 3.54024 -0.372958 0
M  V30 END ATOM
M  V30 BEGIN BOND
M  V30 1 1 1 2
M  V30 2 2 2 3
M  V30 3 1 3 4
M  V30 4 2 4 5
M  V30 5 1 5 6
M  V30 6 2 6 7
M  V30 7 1 6 8
M  V30 8 1 8 9
M  V30 9 1 8 10
M  V30 10 1 5 11
M  V30 11 1 7 2
M  V30 12 1 1 12
M  V30 13 1 1 13
M  V30 14 1 1 14
M  V30 15 1 3 15
M  V30 16 1 7 16
M  V30 17 1 8 17
M  V30 18 1 9 18
M  V30 19 1 9 19
M  V30 20 1 10 20
M  V30 21 1 10 21
M  V30 22 1 10 22
M  V30 23 1 11 23
M  V30 24 1 11 24
M  V30 END BOND
M  V30 END CTAB
M  END
