
     RDKit          3D

  0  0  0  0  0  0  0  0  0  0999 V3000
M  V30 BEGIN CTAB
M  V30 COUNTS 29 28 0 0 0
M  V30 BEGIN ATOM
M  V30 1 N -0.270472 -1.69141 -1.48245 0
M  V30 2 C 0.548523 -0.673623 -0.874441 0
M  V30 3 C -0.118197 -0.150388 0.376272 0
M  V30 4 C -1.48868 0.458023 0.0347657 0
M  V30 5 C -1.35533 1.60789 -0.94179 0
M  V30 6 C -2.48303 -0.520278 -0.4517 0
M  V30 7 N 0.610652 0.918864 0.981601 0
M  V30 8 S 2.22074 0.659686 1.37925 0
M  V30 9 O 2.59851 -0.694782 1.83361 0
M  V30 10 O 2.57246 1.60599 2.52545 0
M  V30 11 N 3.31018 1.12474 0.0886342 0
M  V30 12 C -0.371464 -1.32716 1.28297 0
M  V30 13 H -0.365536 -1.56796 -2.51491 0
M  V30 14 H 0.0772124 -2.66226 -1.32051 0
M  V30 15 H 0.909247 0.0941229 -1.55423 0
M  V30 16 H 1.47165 -1.21067 -0.508353 0
M  V30 17 H -1.89397 0.918191 0.985046 0
M  V30 18 H -2.37798 1.73261 -1.40815 0
M  V30 19 H -1.1892 2.54198 -0.383377 0
M  V30 20 H -0.607483 1.43497 -1.72888 0
M  V30 21 H -2.59345 -0.568386 -1.55428 0
M  V30 22 H -3.50726 -0.18191 -0.106459 0
M  V30 23 H -2.37781 -1.52865 -0.00344104 0
M  V30 24 H 0.53055 1.75058 0.357652 0
M  V30 25 H 3.45688 2.15905 0.0888797 0
M  V30 26 H 4.23341 0.703979 0.33729 0
M  V30 27 H -0.456161 -2.28607 0.70239 0
M  V30 28 H -1.39967 -1.20952 1.7403 0
M  V30 29 H 0.315683 -1.43761 2.11887 0
M  V30 END ATOM
M  V30 BEGIN BOND
M  V30 1 1 1 2
M  V30 2 1 2 3
M  V30 3 1 3 4
M  V30 4 1 4 5
M  V30 5 1 4 6
M  V30 6 1 3 7
M  V30 7 1 7 8
M  V30 8 2 8 9
M  V30 9 2 8 10
M  V30 10 1 8 11
M  V30 11 1 3 12
M  V30 12 1 1 13
M  V30 13 1 1 14
M  V30 14 1 2 15
M  V30 15 1 2 16
M  V30 16 1 4 17
M  V30 17 1 5 18
M  V30 18 1 5 19
M  V30 19 1 5 20
M  V30 20 1 6 21
M  V30 21 1 6 22
M  V30 22 1 6 23
M  V30 23 1 7 24
M  V30 24 1 11 25
M  V30 25 1 11 26
M  V30 26 1 12 27
M  V30 27 1 12 28
M  V30 28 1 12 29
M  V30 END BOND
M  V30 END CTAB
M  END
