
     RDKit          3D

  0  0  0  0  0  0  0  0  0  0999 V3000
M  V30 BEGIN CTAB
M  V30 COUNTS 29 31 0 0 0
M  V30 BEGIN ATOM
M  V30 1 N -5.61525 -1.04059 0.14348 0
M  V30 2 C -4.24248 -0.649396 0.126982 0
M  V30 3 N -3.29614 -1.59213 0.22628 0
M  V30 4 C -2.00528 -1.23657 0.211886 0
M  V30 5 C -1.6725 0.0742973 0.0968933 0
M  V30 6 N -0.3937 0.502181 0.076003 0
M  V30 7 C 0.619495 -0.386665 0.171441 0
M  V30 8 C 1.9961 0.0718909 0.136925 0
M  V30 9 C 2.91678 -0.35 1.06346 0
M  V30 10 C 4.24172 0.103757 0.99295 0
M  V30 11 C 4.64481 0.973019 0.0046476 0
M  V30 12 C 3.72712 1.40364 -0.931453 0
M  V30 13 C 2.4349 0.954282 -0.854073 0
M  V30 14 C 0.281936 -1.70892 0.286681 0
M  V30 15 S 1.54378 -2.96544 0.397426 0
M  V30 16 N -1.00412 -2.13659 0.307788 0
M  V30 17 C -2.65759 1.03797 -0.00486062 0
M  V30 18 N -2.27608 2.41881 -0.12558 0
M  V30 19 N -3.92858 0.652627 0.0125253 0
M  V30 20 H -5.8951 -2.0389 0.115376 0
M  V30 21 H -6.38001 -0.328532 0.184528 0
M  V30 22 H 2.62906 -1.02742 1.86076 0
M  V30 23 H 4.94824 -0.258133 1.75379 0
M  V30 24 H 5.67262 1.28462 0.00334691 0
M  V30 25 H 4.03397 2.09502 -1.7227 0
M  V30 26 H 1.66608 1.26218 -1.56844 0
M  V30 27 H 2.28987 -2.93445 -0.8123 0
M  V30 28 H -2.81443 3.14239 0.36005 0
M  V30 29 H -1.46521 2.67709 -0.697968 0
M  V30 END ATOM
M  V30 BEGIN BOND
M  V30 1 1 1 2
M  V30 2 2 2 3
M  V30 3 1 3 4
M  V30 4 2 4 5
M  V30 5 1 5 6
M  V30 6 2 6 7
M  V30 7 1 7 8
M  V30 8 2 8 9
M  V30 9 1 9 10
M  V30 10 2 10 11
M  V30 11 1 11 12
M  V30 12 2 12 13
M  V30 13 1 7 14
M  V30 14 1 14 15
M  V30 15 2 14 16
M  V30 16 1 5 17
M  V30 17 1 17 18
M  V30 18 2 17 19
M  V30 19 1 19 2
M  V30 20 1 16 4
M  V30 21 1 13 8
M  V30 22 1 1 20
M  V30 23 1 1 21
M  V30 24 1 9 22
M  V30 25 1 10 23
M  V30 26 1 11 24
M  V30 27 1 12 25
M  V30 28 1 13 26
M  V30 29 1 15 27
M  V30 30 1 18 28
M  V30 31 1 18 29
M  V30 END BOND
M  V30 END CTAB
M  END
