
     RDKit          3D

  0  0  0  0  0  0  0  0  0  0999 V3000
M  V30 BEGIN CTAB
M  V30 COUNTS 23 24 0 0 0
M  V30 BEGIN ATOM
M  V30 1 N -1.25969 1.79035 -0.610358 0
M  V30 2 N -1.44875 0.452253 -0.230975 0
M  V30 3 C -2.71101 -0.0788508 -0.15881 0
M  V30 4 N -3.9432 0.578913 -0.432847 0
M  V30 5 C -2.55317 -1.38044 0.232807 0
M  V30 6 N -1.23714 -1.59083 0.381354 0
M  V30 7 C -0.539308 -0.449277 0.0931265 0
M  V30 8 C 0.906732 -0.341017 0.156935 0
M  V30 9 C 1.6127 0.793597 -0.128747 0
M  V30 10 C 3.01825 0.834674 -0.047938 0
M  V30 11 C 3.70985 -0.290874 0.327397 0
M  V30 12 C 3.04227 -1.4457 0.621533 0
M  V30 13 C 1.67696 -1.44816 0.532075 0
M  V30 14 H -1.05476 2.53094 0.0830774 0
M  V30 15 H -1.32326 2.06376 -1.60847 0
M  V30 16 H -4.62051 0.652879 0.373464 0
M  V30 17 H -4.19987 0.976445 -1.35675 0
M  V30 18 H -3.30164 -2.14591 0.407549 0
M  V30 19 H 1.13786 1.69757 -0.424869 0
M  V30 20 H 3.53364 1.75914 -0.28466 0
M  V30 21 H 4.80207 -0.264134 0.39171 0
M  V30 22 H 3.60845 -2.33844 0.920403 0
M  V30 23 H 1.14354 -2.35688 0.762992 0
M  V30 END ATOM
M  V30 BEGIN BOND
M  V30 1 1 1 2
M  V30 2 1 2 3
M  V30 3 1 3 4
M  V30 4 2 3 5
M  V30 5 1 5 6
M  V30 6 2 6 7
M  V30 7 1 7 8
M  V30 8 2 8 9
M  V30 9 1 9 10
M  V30 10 2 10 11
M  V30 11 1 11 12
M  V30 12 2 12 13
M  V30 13 1 7 2
M  V30 14 1 13 8
M  V30 15 1 1 14
M  V30 16 1 1 15
M  V30 17 1 4 16
M  V30 18 1 4 17
M  V30 19 1 5 18
M  V30 20 1 9 19
M  V30 21 1 10 20
M  V30 22 1 11 21
M  V30 23 1 12 22
M  V30 24 1 13 23
M  V30 END BOND
M  V30 END CTAB
M  END
