
     RDKit          3D

  0  0  0  0  0  0  0  0  0  0999 V3000
M  V30 BEGIN CTAB
M  V30 COUNTS 39 41 0 0 0
M  V30 BEGIN ATOM
M  V30 1 C -2.98432 -2.71815 0.131449 0
M  V30 2 C -2.62589 -1.8638 -1.03329 0
M  V30 3 C -2.69584 -0.416236 -0.783729 0
M  V30 4 C -3.7122 0.391044 -1.24275 0
M  V30 5 N -3.70753 1.69822 -0.977974 0
M  V30 6 C -2.73187 2.29855 -0.261748 0
M  V30 7 N -1.74737 1.50693 0.180936 0
M  V30 8 C -1.68186 0.17345 -0.0461697 0
M  V30 9 N -0.601983 -0.58794 0.473112 0
M  V30 10 C 0.429415 0.119846 1.23133 0 CFG=1
M  V30 11 C 1.38174 -0.896781 1.74565 0
M  V30 12 C 2.58275 -0.766591 0.892374 0
M  V30 13 C 2.4555 0.311112 0.0650338 0
M  V30 14 C 1.15359 1.01401 0.273293 0 CFG=2
M  V30 15 N 1.45484 2.29472 0.843952 0
M  V30 16 C 3.45147 0.66297 -0.844756 0
M  V30 17 C 4.58389 -0.0908035 -0.909376 0
M  V30 18 C 4.71489 -1.18227 -0.07291 0
M  V30 19 C 3.7432 -1.53048 0.818852 0
M  V30 20 N -2.76297 3.70344 0.00117654 0
M  V30 21 H -4.05435 -3.03643 0.145435 0
M  V30 22 H -2.39884 -3.67138 0.0537831 0
M  V30 23 H -2.72944 -2.2795 1.11227 0
M  V30 24 H -1.5945 -2.10798 -1.35468 0
M  V30 25 H -3.28146 -2.12911 -1.8981 0
M  V30 26 H -4.49876 -0.0541433 -1.81219 0
M  V30 27 H -0.564583 -1.60884 0.309876 0
M  V30 28 H -0.0295367 0.687626 2.07692 0
M  V30 29 H 1.01409 -1.94178 1.65698 0
M  V30 30 H 1.65455 -0.67515 2.81674 0
M  V30 31 H 0.621092 1.13015 -0.712242 0
M  V30 32 H 0.74883 2.67871 1.48034 0
M  V30 33 H 1.8454 2.93178 0.14521 0
M  V30 34 H 3.32751 1.52749 -1.49524 0
M  V30 35 H 5.35895 0.183169 -1.61694 0
M  V30 36 H 5.60873 -1.79421 -0.110746 0
M  V30 37 H 3.82024 -2.3727 1.47957 0
M  V30 38 H -2.80813 4.39689 -0.784322 0
M  V30 39 H -2.73924 4.01419 0.995314 0
M  V30 END ATOM
M  V30 BEGIN BOND
M  V30 1 1 1 2
M  V30 2 1 2 3
M  V30 3 2 3 4
M  V30 4 1 4 5
M  V30 5 2 5 6
M  V30 6 1 6 7
M  V30 7 2 7 8
M  V30 8 1 8 9
M  V30 9 1 9 10
M  V30 10 1 10 11
M  V30 11 1 11 12
M  V30 12 2 12 13
M  V30 13 1 13 14
M  V30 14 1 14 15
M  V30 15 1 13 16
M  V30 16 2 16 17
M  V30 17 1 17 18
M  V30 18 2 18 19
M  V30 19 1 6 20
M  V30 20 1 8 3
M  V30 21 1 14 10
M  V30 22 1 19 12
M  V30 23 1 1 21
M  V30 24 1 1 22
M  V30 25 1 1 23
M  V30 26 1 2 24
M  V30 27 1 2 25
M  V30 28 1 4 26
M  V30 29 1 9 27
M  V30 30 1 10 28 CFG=1
M  V30 31 1 11 29
M  V30 32 1 11 30
M  V30 33 1 14 31 CFG=3
M  V30 34 1 15 32
M  V30 35 1 15 33
M  V30 36 1 16 34
M  V30 37 1 17 35
M  V30 38 1 18 36
M  V30 39 1 19 37
M  V30 40 1 20 38
M  V30 41 1 20 39
M  V30 END BOND
M  V30 END CTAB
M  END
