
     RDKit          3D

  0  0  0  0  0  0  0  0  0  0999 V3000
M  V30 BEGIN CTAB
M  V30 COUNTS 24 24 0 0 0
M  V30 BEGIN ATOM
M  V30 1 N 3.79386 -0.567311 -0.750454 0
M  V30 2 C 2.79472 0.286536 -0.178169 0
M  V30 3 S 2.9904 1.82748 0.5766 0
M  V30 4 C 1.35557 2.13405 0.959621 0
M  V30 5 C 0.735427 1.01095 0.475951 0
M  V30 6 N 1.49197 0.107826 -0.0876218 0
M  V30 7 C -0.780153 0.900938 0.631049 0
M  V30 8 C -1.2581 -0.401417 0.0364417 0
M  V30 9 N -0.653999 -1.53182 0.686823 0
M  V30 10 C -0.925266 -0.400558 -1.44472 0
M  V30 11 C -2.75517 -0.509349 0.241402 0
M  V30 12 H 4.50729 -0.976729 -0.142095 0
M  V30 13 H 3.7723 -0.749197 -1.7553 0
M  V30 14 H 0.891055 3.00274 1.46509 0
M  V30 15 H -1.05539 0.897828 1.70446 0
M  V30 16 H -1.28141 1.76576 0.169081 0
M  V30 17 H -0.686242 -2.34466 0.0572363 0
M  V30 18 H -1.0959 -1.65259 1.60362 0
M  V30 19 H -1.86164 -0.471666 -2.00618 0
M  V30 20 H -0.455759 0.574031 -1.74325 0
M  V30 21 H -0.229043 -1.23608 -1.64589 0
M  V30 22 H -2.9073 -0.516538 1.35955 0
M  V30 23 H -3.1118 -1.49271 -0.11199 0
M  V30 24 H -3.27543 0.342492 -0.213188 0
M  V30 END ATOM
M  V30 BEGIN BOND
M  V30 1 1 1 2
M  V30 2 1 2 3
M  V30 3 1 3 4
M  V30 4 2 4 5
M  V30 5 1 5 6
M  V30 6 1 5 7
M  V30 7 1 7 8
M  V30 8 1 8 9
M  V30 9 1 8 10
M  V30 10 1 8 11
M  V30 11 2 6 2
M  V30 12 1 1 12
M  V30 13 1 1 13
M  V30 14 1 4 14
M  V30 15 1 7 15
M  V30 16 1 7 16
M  V30 17 1 9 17
M  V30 18 1 9 18
M  V30 19 1 10 19
M  V30 20 1 10 20
M  V30 21 1 10 21
M  V30 22 1 11 22
M  V30 23 1 11 23
M  V30 24 1 11 24
M  V30 END BOND
M  V30 END CTAB
M  END
