
     RDKit          3D

  0  0  0  0  0  0  0  0  0  0999 V3000
M  V30 BEGIN CTAB
M  V30 COUNTS 53 56 0 0 0
M  V30 BEGIN ATOM
M  V30 1 N -5.5573 1.0897 -2.82828 0
M  V30 2 C -6.00139 0.489947 -1.60895 0
M  V30 3 C -5.29912 -0.795871 -1.22113 0
M  V30 4 C -5.35194 -0.291179 0.226669 0
M  V30 5 C -5.43881 1.10324 -0.330648 0
M  V30 6 C -4.15592 -0.590272 1.01737 0
M  V30 7 C -2.88755 -0.214495 0.636361 0
M  V30 8 C -1.79778 -0.520057 1.41356 0
M  V30 9 N -2.03506 -1.1924 2.54262 0
M  V30 10 C -3.25263 -1.5808 2.95679 0
M  V30 11 N -4.29196 -1.26309 2.1696 0
M  V30 12 N -3.435 -2.2885 4.15911 0
M  V30 13 N -0.461265 -0.152133 1.06533 0
M  V30 14 C 0.614188 -0.54557 1.9547 0
M  V30 15 C 1.94903 -0.665892 1.21336 0
M  V30 16 N 2.21049 0.666525 0.709095 0
M  V30 17 C 1.12743 1.32195 0.0705009 0
M  V30 18 O 1.27181 2.51622 -0.307649 0
M  V30 19 C -0.178747 0.601112 -0.152851 0
M  V30 20 C 3.50824 1.24529 0.874669 0
M  V30 21 C 4.44347 0.971488 -0.23995 0
M  V30 22 C 4.56243 1.81295 -1.32273 0
M  V30 23 C 5.43005 1.56667 -2.36738 0
M  V30 24 C 6.21171 0.432852 -2.32981 0
M  V30 25 C 6.12311 -0.429296 -1.27109 0
M  V30 26 C 5.25525 -0.162399 -0.247705 0
M  V30 27 C 6.96159 -1.64051 -1.23402 0
M  V30 28 H -4.60235 1.48535 -2.67698 0
M  V30 29 H -6.18884 1.90354 -3.02622 0
M  V30 30 H -7.10897 0.330586 -1.56782 0
M  V30 31 H -5.92507 -1.72173 -1.36106 0
M  V30 32 H -4.26742 -0.906144 -1.59776 0
M  V30 33 H -6.29219 -0.628781 0.677056 0
M  V30 34 H -6.19025 1.70189 0.223424 0
M  V30 35 H -4.47817 1.59146 -0.540391 0
M  V30 36 H -2.71412 0.331679 -0.285302 0
M  V30 37 H -4.03359 -3.1264 4.17463 0
M  V30 38 H -2.97193 -1.9713 5.02427 0
M  V30 39 H 0.761501 0.32587 2.65742 0
M  V30 40 H 0.387461 -1.44375 2.5427 0
M  V30 41 H 2.68232 -0.99142 1.96091 0
M  V30 42 H 1.87569 -1.39772 0.373092 0
M  V30 43 H -0.981823 1.38609 -0.227836 0
M  V30 44 H -0.112181 -0.037468 -1.04219 0
M  V30 45 H 3.45477 2.36154 1.0443 0
M  V30 46 H 4.02559 0.86861 1.80578 0
M  V30 47 H 3.95781 2.70546 -1.36672 0
M  V30 48 H 5.53176 2.21763 -3.21884 0
M  V30 49 H 6.90299 0.216425 -3.14059 0
M  V30 50 H 5.15699 -0.825679 0.613484 0
M  V30 51 H 7.16553 -1.87359 -0.167788 0
M  V30 52 H 6.47758 -2.50418 -1.74154 0
M  V30 53 H 7.9626 -1.48345 -1.70302 0
M  V30 END ATOM
M  V30 BEGIN BOND
M  V30 1 1 1 2
M  V30 2 1 2 3
M  V30 3 1 3 4
M  V30 4 1 4 5
M  V30 5 1 4 6
M  V30 6 2 6 7
M  V30 7 1 7 8
M  V30 8 2 8 9
M  V30 9 1 9 10
M  V30 10 2 10 11
M  V30 11 1 10 12
M  V30 12 1 8 13
M  V30 13 1 13 14
M  V30 14 1 14 15
M  V30 15 1 15 16
M  V30 16 1 16 17
M  V30 17 2 17 18
M  V30 18 1 17 19
M  V30 19 1 16 20
M  V30 20 1 20 21
M  V30 21 2 21 22
M  V30 22 1 22 23
M  V30 23 2 23 24
M  V30 24 1 24 25
M  V30 25 2 25 26
M  V30 26 1 25 27
M  V30 27 1 5 2
M  V30 28 1 11 6
M  V30 29 1 19 13
M  V30 30 1 26 21
M  V30 31 1 1 28
M  V30 32 1 1 29
M  V30 33 1 2 30
M  V30 34 1 3 31
M  V30 35 1 3 32
M  V30 36 1 4 33
M  V30 37 1 5 34
M  V30 38 1 5 35
M  V30 39 1 7 36
M  V30 40 1 12 37
M  V30 41 1 12 38
M  V30 42 1 14 39
M  V30 43 1 14 40
M  V30 44 1 15 41
M  V30 45 1 15 42
M  V30 46 1 19 43
M  V30 47 1 19 44
M  V30 48 1 20 45
M  V30 49 1 20 46
M  V30 50 1 22 47
M  V30 51 1 23 48
M  V30 52 1 24 49
M  V30 53 1 26 50
M  V30 54 1 27 51
M  V30 55 1 27 52
M  V30 56 1 27 53
M  V30 END BOND
M  V30 END CTAB
M  END
