
     RDKit          3D

  0  0  0  0  0  0  0  0  0  0999 V3000
M  V30 BEGIN CTAB
M  V30 COUNTS 20 21 0 0 0
M  V30 BEGIN ATOM
M  V30 1 N -2.39096 -2.1465 0.0331103 0
M  V30 2 C -2.08554 -0.768629 -0.0237163 0
M  V30 3 C -0.649282 -0.443576 0.00215333 0
M  V30 4 N 0.340498 -1.32852 0.0728042 0
M  V30 5 C 1.63575 -0.932705 0.0912581 0
M  V30 6 N 2.7185 -1.85215 0.166239 0
M  V30 7 N 1.96435 0.37715 0.0383391 0
M  V30 8 C 1.01133 1.32478 -0.0342422 0
M  V30 9 C -0.300184 0.897068 -0.0516445 0
M  V30 10 N -1.03602 2.01544 -0.126098 0
M  V30 11 C -0.219914 3.07597 -0.153101 0
M  V30 12 N 1.05791 2.66825 -0.0968812 0
M  V30 13 H -2.82941 -2.49465 0.888417 0
M  V30 14 H -1.77373 -2.78759 -0.469973 0
M  V30 15 H -2.51881 -0.261665 -0.926052 0
M  V30 16 H -2.54654 -0.259881 0.866699 0
M  V30 17 H 2.84809 -2.5917 -0.558269 0
M  V30 18 H 3.41674 -1.8215 0.941148 0
M  V30 19 H -0.5744 4.09379 -0.211786 0
M  V30 20 H 1.93162 3.23662 -0.0987808 0
M  V30 END ATOM
M  V30 BEGIN BOND
M  V30 1 1 1 2
M  V30 2 1 2 3
M  V30 3 2 3 4
M  V30 4 1 4 5
M  V30 5 1 5 6
M  V30 6 2 5 7
M  V30 7 1 7 8
M  V30 8 2 8 9
M  V30 9 1 9 10
M  V30 10 2 10 11
M  V30 11 1 11 12
M  V30 12 1 9 3
M  V30 13 1 12 8
M  V30 14 1 1 13
M  V30 15 1 1 14
M  V30 16 1 2 15
M  V30 17 1 2 16
M  V30 18 1 6 17
M  V30 19 1 6 18
M  V30 20 1 11 19
M  V30 21 1 12 20
M  V30 END BOND
M  V30 END CTAB
M  END
