
     RDKit          3D

  0  0  0  0  0  0  0  0  0  0999 V3000
M  V30 BEGIN CTAB
M  V30 COUNTS 39 42 0 0 0
M  V30 BEGIN ATOM
M  V30 1 N -6.41566 0.262721 1.42942 0
M  V30 2 C -5.13901 -0.0553797 0.895343 0
M  V30 3 N -4.73877 -1.32974 0.689056 0
M  V30 4 C -3.52721 -1.6237 0.182465 0
M  V30 5 N -3.19449 -2.98114 0.00122125 0
M  V30 6 C -2.6625 -0.598059 -0.138239 0
M  V30 7 C -1.40351 -0.813789 -0.661579 0
M  V30 8 C -0.547438 0.233158 -0.97785 0
M  V30 9 C -0.97717 1.51649 -0.759466 0
M  V30 10 C -2.22213 1.785 -0.240075 0
M  V30 11 C -3.05099 0.720629 0.0646986 0
M  V30 12 N -4.2821 0.922148 0.576248 0
M  V30 13 N 0.623343 -0.213776 -1.47483 0
M  V30 14 C 1.78166 0.579656 -1.91423 0
M  V30 15 C 2.75903 0.8151 -0.843443 0
M  V30 16 C 2.68943 1.94971 -0.0721646 0
M  V30 17 C 3.56626 2.23564 0.947132 0
M  V30 18 C 4.57111 1.36726 1.23435 0
M  V30 19 C 4.68599 0.213249 0.490356 0
M  V30 20 C 3.80022 -0.0609737 -0.528473 0
M  V30 21 N 5.73327 -0.698458 0.784753 0 CHG=1
M  V30 22 O 5.89814 -1.86537 0.077474 0 CHG=-1
M  V30 23 O 6.54873 -0.474834 1.70141 0
M  V30 24 C 0.522976 -1.54744 -1.47984 0
M  V30 25 C -0.727982 -1.94162 -0.978644 0
M  V30 26 H -7.01104 -0.415465 1.94864 0
M  V30 27 H -6.79097 1.22729 1.30173 0
M  V30 28 H -3.40865 -3.45638 -0.908185 0
M  V30 29 H -2.73305 -3.57605 0.729336 0
M  V30 30 H -0.300784 2.32392 -1.01425 0
M  V30 31 H -2.55884 2.78418 -0.0690246 0
M  V30 32 H 2.32761 0.00159186 -2.71805 0
M  V30 33 H 1.45763 1.51389 -2.42282 0
M  V30 34 H 1.91351 2.69096 -0.245832 0
M  V30 35 H 3.4713 3.14419 1.52871 0
M  V30 36 H 5.29784 1.55458 2.04257 0
M  V30 37 H 3.85462 -0.961274 -1.14138 0
M  V30 38 H 1.25036 -2.27293 -1.80441 0
M  V30 39 H -1.06072 -2.95499 -0.876796 0
M  V30 END ATOM
M  V30 BEGIN BOND
M  V30 1 1 1 2
M  V30 2 2 2 3
M  V30 3 1 3 4
M  V30 4 1 4 5
M  V30 5 2 4 6
M  V30 6 1 6 7
M  V30 7 2 7 8
M  V30 8 1 8 9
M  V30 9 2 9 10
M  V30 10 1 10 11
M  V30 11 2 11 12
M  V30 12 1 8 13
M  V30 13 1 13 14
M  V30 14 1 14 15
M  V30 15 2 15 16
M  V30 16 1 16 17
M  V30 17 2 17 18
M  V30 18 1 18 19
M  V30 19 2 19 20
M  V30 20 1 19 21
M  V30 21 1 21 22
M  V30 22 2 21 23
M  V30 23 1 13 24
M  V30 24 2 24 25
M  V30 25 1 12 2
M  V30 26 1 20 15
M  V30 27 1 11 6
M  V30 28 1 25 7
M  V30 29 1 1 26
M  V30 30 1 1 27
M  V30 31 1 5 28
M  V30 32 1 5 29
M  V30 33 1 9 30
M  V30 34 1 10 31
M  V30 35 1 14 32
M  V30 36 1 14 33
M  V30 37 1 16 34
M  V30 38 1 17 35
M  V30 39 1 18 36
M  V30 40 1 20 37
M  V30 41 1 24 38
M  V30 42 1 25 39
M  V30 END BOND
M  V30 END CTAB
M  END
