
     RDKit          3D

  0  0  0  0  0  0  0  0  0  0999 V3000
M  V30 BEGIN CTAB
M  V30 COUNTS 52 54 0 0 0
M  V30 BEGIN ATOM
M  V30 1 C -5.41233 0.55382 1.41573 0
M  V30 2 C -5.39883 0.848129 -0.0957418 0
M  V30 3 C -4.94962 2.30229 -0.298976 0
M  V30 4 N -6.75514 0.763846 -0.543311 0
M  V30 5 C -7.2053 -0.0126489 -1.44113 0
M  V30 6 N -8.60349 -0.014383 -1.81718 0
M  V30 7 N -6.29931 -0.899026 -2.0868 0
M  V30 8 C -5.04557 -0.920155 -1.77323 0
M  V30 9 N -4.24352 -1.84165 -2.48166 0
M  V30 10 N -4.51544 -0.0561426 -0.767711 0
M  V30 11 C -3.11631 -0.129867 -0.471919 0
M  V30 12 C -2.17419 0.635185 -1.11984 0
M  V30 13 C -0.829599 0.55532 -0.826211 0
M  V30 14 C -0.398476 -0.321544 0.153044 0
M  V30 15 O 0.92333 -0.447954 0.491527 0
M  V30 16 C 1.9856 0.246697 -0.0641904 0
M  V30 17 C 3.2647 -0.208756 0.609613 0
M  V30 18 O 3.13158 -1.08163 1.49472 0
M  V30 19 N 4.44221 0.391203 0.171948 0
M  V30 20 C 5.72392 0.0948439 0.670796 0
M  V30 21 C 5.98966 -1.01979 1.39545 0
M  V30 22 C 7.25568 -1.26305 1.88175 0
M  V30 23 C 8.27252 -0.380902 1.64083 0
M  V30 24 C 8.00022 0.746757 0.906003 0
M  V30 25 C 6.75691 1.01189 0.413409 0
M  V30 26 S 9.8604 -0.731025 2.27723 0
M  V30 27 F 9.96362 -0.0475773 3.80773 0
M  V30 28 O 10.8996 -0.0833409 1.40616 0
M  V30 29 O 10.061 -2.21762 2.32057 0
M  V30 30 C -1.33255 -1.0984 0.814475 0
M  V30 31 Cl -0.810521 -2.2151 2.05733 0
M  V30 32 C -2.68106 -1.00042 0.501402 0
M  V30 33 H -6.11538 1.22723 1.93256 0
M  V30 34 H -5.79241 -0.478875 1.54865 0
M  V30 35 H -4.40739 0.712573 1.84144 0
M  V30 36 H -3.92011 2.45815 0.0272658 0
M  V30 37 H -5.07448 2.4953 -1.38755 0
M  V30 38 H -5.70049 2.92836 0.21842 0
M  V30 39 H -9.27367 -0.20517 -1.04359 0
M  V30 40 H -8.94236 0.156848 -2.77031 0
M  V30 41 H -3.57189 -1.50057 -3.18621 0
M  V30 42 H -4.31877 -2.8549 -2.30522 0
M  V30 43 H -2.48862 1.31926 -1.88035 0
M  V30 44 H -0.0768444 1.14752 -1.32406 0
M  V30 45 H 2.07845 0.180794 -1.15625 0
M  V30 46 H 1.86444 1.32502 0.191264 0
M  V30 47 H 4.3421 1.12989 -0.604456 0
M  V30 48 H 5.26125 -1.79134 1.63214 0
M  V30 49 H 7.43597 -2.15515 2.45359 0
M  V30 50 H 8.80945 1.45583 0.709864 0
M  V30 51 H 6.52147 1.90811 -0.175802 0
M  V30 52 H -3.39036 -1.61788 1.03228 0
M  V30 END ATOM
M  V30 BEGIN BOND
M  V30 1 1 1 2
M  V30 2 1 2 3
M  V30 3 1 2 4
M  V30 4 2 4 5
M  V30 5 1 5 6
M  V30 6 1 5 7
M  V30 7 2 7 8
M  V30 8 1 8 9
M  V30 9 1 8 10
M  V30 10 1 10 11
M  V30 11 2 11 12
M  V30 12 1 12 13
M  V30 13 2 13 14
M  V30 14 1 14 15
M  V30 15 1 15 16
M  V30 16 1 16 17
M  V30 17 2 17 18
M  V30 18 1 17 19
M  V30 19 1 19 20
M  V30 20 2 20 21
M  V30 21 1 21 22
M  V30 22 2 22 23
M  V30 23 1 23 24
M  V30 24 2 24 25
M  V30 25 1 23 26
M  V30 26 1 26 27
M  V30 27 2 26 28
M  V30 28 2 26 29
M  V30 29 1 14 30
M  V30 30 1 30 31
M  V30 31 2 30 32
M  V30 32 1 10 2
M  V30 33 1 32 11
M  V30 34 1 25 20
M  V30 35 1 1 33
M  V30 36 1 1 34
M  V30 37 1 1 35
M  V30 38 1 3 36
M  V30 39 1 3 37
M  V30 40 1 3 38
M  V30 41 1 6 39
M  V30 42 1 6 40
M  V30 43 1 9 41
M  V30 44 1 9 42
M  V30 45 1 12 43
M  V30 46 1 13 44
M  V30 47 1 16 45
M  V30 48 1 16 46
M  V30 49 1 19 47
M  V30 50 1 21 48
M  V30 51 1 22 49
M  V30 52 1 24 50
M  V30 53 1 25 51
M  V30 54 1 32 52
M  V30 END BOND
M  V30 END CTAB
M  END
