
     RDKit          3D

  0  0  0  0  0  0  0  0  0  0999 V3000
M  V30 BEGIN CTAB
M  V30 COUNTS 45 47 0 0 0
M  V30 BEGIN ATOM
M  V30 1 C -3.29691 -2.88644 1.03014 0
M  V30 2 O -3.70017 -1.55065 1.00569 0
M  V30 3 C -2.88458 -0.531638 0.552864 0
M  V30 4 C -1.60166 -0.790709 0.091067 0
M  V30 5 C -0.783247 0.214776 -0.360264 0
M  V30 6 C 0.596813 0.00486031 -0.866997 0
M  V30 7 C 1.18892 -1.29228 -0.361168 0
M  V30 8 C 2.58859 -1.42923 -0.874944 0
M  V30 9 C 2.75586 -2.10051 -2.09152 0
M  V30 10 S 4.41492 -1.99005 -2.40549 0
M  V30 11 C 4.89241 -1.11389 -1.02649 0
M  V30 12 N 6.115 -0.664748 -0.593163 0
M  V30 13 C 6.23194 0.00266358 0.563687 0
M  V30 14 N 7.47353 0.477548 1.03626 0
M  V30 15 N 5.10567 0.192466 1.24412 0
M  V30 16 C 3.87864 -0.220142 0.876819 0
M  V30 17 N 2.76598 0.0202728 1.71565 0
M  V30 18 C 3.72586 -0.922532 -0.337076 0
M  V30 19 C -1.27736 1.49542 -0.340547 0
M  V30 20 Br -0.166462 2.93243 -0.96139 0
M  V30 21 C -2.57329 1.77083 0.123895 0
M  V30 22 O -2.99466 3.08598 0.11334 0
M  V30 23 C -3.62122 3.65704 -1.01655 0
M  V30 24 C -3.38808 0.759415 0.574619 0
M  V30 25 O -4.66537 1.00639 1.03785 0
M  V30 26 C -5.84971 0.971881 0.313945 0
M  V30 27 H -2.80833 -3.16081 0.0769216 0
M  V30 28 H -2.58252 -3.03561 1.86437 0
M  V30 29 H -4.16645 -3.55527 1.19421 0
M  V30 30 H -1.23944 -1.81224 0.0888861 0
M  V30 31 H 1.24778 0.831054 -0.59481 0
M  V30 32 H 0.541848 -0.0126445 -1.99713 0
M  V30 33 H 1.02269 -1.36584 0.684854 0
M  V30 34 H 0.537484 -2.0987 -0.822095 0
M  V30 35 H 1.99065 -2.58909 -2.71016 0
M  V30 36 H 7.49109 1.13884 1.84561 0
M  V30 37 H 8.3325 0.152478 0.560796 0
M  V30 38 H 2.16888 0.850808 1.71194 0
M  V30 39 H 2.54202 -0.74617 2.4173 0
M  V30 40 H -2.86053 4.06152 -1.73217 0
M  V30 41 H -4.19904 2.88371 -1.52403 0
M  V30 42 H -4.2215 4.51673 -0.634125 0
M  V30 43 H -5.96334 0.0460347 -0.300422 0
M  V30 44 H -6.08504 1.89249 -0.25384 0
M  V30 45 H -6.68017 0.90356 1.07954 0
M  V30 END ATOM
M  V30 BEGIN BOND
M  V30 1 1 1 2
M  V30 2 1 2 3
M  V30 3 2 3 4
M  V30 4 1 4 5
M  V30 5 1 5 6
M  V30 6 1 6 7
M  V30 7 1 7 8
M  V30 8 2 8 9
M  V30 9 1 9 10
M  V30 10 1 10 11
M  V30 11 2 11 12
M  V30 12 1 12 13
M  V30 13 1 13 14
M  V30 14 2 13 15
M  V30 15 1 15 16
M  V30 16 1 16 17
M  V30 17 2 16 18
M  V30 18 2 5 19
M  V30 19 1 19 20
M  V30 20 1 19 21
M  V30 21 1 21 22
M  V30 22 1 22 23
M  V30 23 2 21 24
M  V30 24 1 24 25
M  V30 25 1 25 26
M  V30 26 1 24 3
M  V30 27 1 18 8
M  V30 28 1 18 11
M  V30 29 1 1 27
M  V30 30 1 1 28
M  V30 31 1 1 29
M  V30 32 1 4 30
M  V30 33 1 6 31
M  V30 34 1 6 32
M  V30 35 1 7 33
M  V30 36 1 7 34
M  V30 37 1 9 35
M  V30 38 1 14 36
M  V30 39 1 14 37
M  V30 40 1 17 38
M  V30 41 1 17 39
M  V30 42 1 23 40
M  V30 43 1 23 41
M  V30 44 1 23 42
M  V30 45 1 26 43
M  V30 46 1 26 44
M  V30 47 1 26 45
M  V30 END BOND
M  V30 END CTAB
M  END
