
     RDKit          3D

  0  0  0  0  0  0  0  0  0  0999 V3000
M  V30 BEGIN CTAB
M  V30 COUNTS 40 42 0 0 0
M  V30 BEGIN ATOM
M  V30 1 N -2.15443 -2.52331 -0.37805 0
M  V30 2 C -2.36416 -1.86389 0.90565 0
M  V30 3 C -2.00108 -0.412257 0.887133 0
M  V30 4 C -0.594443 -0.127696 0.501124 0
M  V30 5 O -0.23784 0.974732 -0.117934 0
M  V30 6 N 1.03946 0.983392 -0.340906 0
M  V30 7 C 1.5616 -0.148368 0.133881 0
M  V30 8 N 0.520504 -0.850308 0.669891 0
M  V30 9 C 2.96898 -0.636618 0.153086 0
M  V30 10 N 2.98872 -2.03638 0.465791 0
M  V30 11 C 3.6578 -0.324674 -1.15302 0
M  V30 12 C 4.50214 0.882638 -0.888685 0
M  V30 13 C 4.19053 1.34684 0.501092 0
M  V30 14 C 3.78828 0.0717331 1.21883 0
M  V30 15 C -2.95495 0.439409 0.192209 0
M  V30 16 C -3.005 0.623529 -1.19003 0
M  V30 17 C -3.94847 1.40287 -1.82874 0
M  V30 18 C -4.90876 2.03887 -1.05779 0
M  V30 19 C -4.89823 1.87933 0.344103 0
M  V30 20 C -3.94868 1.11252 0.922139 0
M  V30 21 F -5.84387 2.82434 -1.67406 0
M  V30 22 H -2.82819 -3.28616 -0.582495 0
M  V30 23 H -1.17874 -2.80448 -0.507257 0
M  V30 24 H -1.69694 -2.3891 1.64749 0
M  V30 25 H -3.40962 -1.94349 1.15761 0
M  V30 26 H -2.01694 -0.0884595 1.98933 0
M  V30 27 H 3.01402 -2.67173 -0.290841 0
M  V30 28 H 2.28949 -2.24031 1.22135 0
M  V30 29 H 4.25243 -1.18452 -1.49115 0
M  V30 30 H 2.91739 -0.0653921 -1.9643 0
M  V30 31 H 4.26263 1.71204 -1.63105 0
M  V30 32 H 5.56306 0.642721 -1.03981 0
M  V30 33 H 3.34364 2.02998 0.543177 0
M  V30 34 H 5.09417 1.81184 0.935968 0
M  V30 35 H 3.22258 0.314322 2.11785 0
M  V30 36 H 4.67857 -0.561773 1.45351 0
M  V30 37 H -2.21433 0.115246 -1.77242 0
M  V30 38 H -3.99296 1.54089 -2.90108 0
M  V30 39 H -5.71338 2.40143 0.845216 0
M  V30 40 H -3.94498 1.01025 2.00321 0
M  V30 END ATOM
M  V30 BEGIN BOND
M  V30 1 1 1 2
M  V30 2 1 2 3
M  V30 3 1 3 4
M  V30 4 1 4 5
M  V30 5 1 5 6
M  V30 6 2 6 7
M  V30 7 1 7 8
M  V30 8 1 7 9
M  V30 9 1 9 10
M  V30 10 1 9 11
M  V30 11 1 11 12
M  V30 12 1 12 13
M  V30 13 1 13 14
M  V30 14 1 3 15
M  V30 15 2 15 16
M  V30 16 1 16 17
M  V30 17 2 17 18
M  V30 18 1 18 19
M  V30 19 2 19 20
M  V30 20 1 18 21
M  V30 21 2 8 4
M  V30 22 1 14 9
M  V30 23 1 20 15
M  V30 24 1 1 22
M  V30 25 1 1 23
M  V30 26 1 2 24
M  V30 27 1 2 25
M  V30 28 1 3 26
M  V30 29 1 10 27
M  V30 30 1 10 28
M  V30 31 1 11 29
M  V30 32 1 11 30
M  V30 33 1 12 31
M  V30 34 1 12 32
M  V30 35 1 13 33
M  V30 36 1 13 34
M  V30 37 1 14 35
M  V30 38 1 14 36
M  V30 39 1 16 37
M  V30 40 1 17 38
M  V30 41 1 19 39
M  V30 42 1 20 40
M  V30 END BOND
M  V30 END CTAB
M  END
