
     RDKit          3D

  0  0  0  0  0  0  0  0  0  0999 V3000
M  V30 BEGIN CTAB
M  V30 COUNTS 61 65 0 0 0
M  V30 BEGIN ATOM
M  V30 1 N -1.90916 2.94449 -0.308652 0
M  V30 2 C -1.79167 1.79003 -0.108306 0
M  V30 3 C -1.70198 0.369099 0.14091 0
M  V30 4 C -2.9056 -0.350344 0.279675 0
M  V30 5 N -2.83552 -1.67007 0.515548 0
M  V30 6 C -1.66157 -2.31917 0.621957 0
M  V30 7 C -0.455003 -1.66089 0.494076 0
M  V30 8 C -0.505297 -0.292373 0.24948 0
M  V30 9 C 0.691875 0.42392 0.111432 0
M  V30 10 C 1.04527 1.81427 -0.138745 0
M  V30 11 C 2.55621 1.80346 -0.152972 0
M  V30 12 O 3.22689 2.85395 -0.34975 0
M  V30 13 N 3.02253 0.509392 0.0756468 0
M  V30 14 C 1.84875 -0.316281 0.234271 0
M  V30 15 N 1.86377 -1.65069 0.472921 0
M  V30 16 C 0.740517 -2.3584 0.608882 0
M  V30 17 N 0.756423 -3.76286 0.859144 0
M  V30 18 C 4.37673 0.118381 0.134606 0
M  V30 19 C 4.79185 -0.762557 1.12383 0
M  V30 20 C 6.11503 -1.17234 1.21478 0
M  V30 21 C 7.05017 -0.706404 0.314408 0
M  V30 22 C 6.65893 0.171868 -0.679188 0
M  V30 23 C 5.34112 0.560452 -0.74507 0
M  V30 24 C 7.68894 0.667339 -1.6465 0
M  V30 25 C 8.33737 1.93924 -1.14248 0
M  V30 26 N -1.62511 -3.72291 0.873683 0
M  V30 27 N -4.13899 0.332965 0.160691 0
M  V30 28 C -4.6341 1.00651 -1.0028 0
M  V30 29 C -6.01551 0.431996 -1.26198 0
M  V30 30 C -5.9043 -1.03759 -1.68718 0
M  V30 31 O -6.87619 0.58264 -0.224165 0
M  V30 32 C -6.40261 0.732387 1.02984 0
M  V30 33 C -5.00593 0.358294 1.32704 0
M  V30 34 C -6.6545 2.17102 1.50004 0
M  V30 35 H 0.822139 2.52169 0.686018 0
M  V30 36 H 0.806753 2.19387 -1.15651 0
M  V30 37 H 0.775481 -4.13532 1.82051 0
M  V30 38 H 0.752499 -4.40004 0.0513 0
M  V30 39 H 4.04182 -1.1148 1.81854 0
M  V30 40 H 6.40253 -1.86399 2.00455 0
M  V30 41 H 8.09716 -1.01242 0.362818 0
M  V30 42 H 5.04355 1.247 -1.52568 0
M  V30 43 H 8.4103 -0.124333 -1.84159 0
M  V30 44 H 7.15309 0.893856 -2.58843 0
M  V30 45 H 7.61814 2.76931 -1.11315 0
M  V30 46 H 8.70848 1.80229 -0.0907192 0
M  V30 47 H 9.2153 2.15309 -1.76629 0
M  V30 48 H -1.62486 -4.41817 0.0782617 0
M  V30 49 H -1.60253 -4.06809 1.87823 0
M  V30 50 H -4.01056 0.78226 -1.87291 0
M  V30 51 H -4.74794 2.10271 -0.884149 0
M  V30 52 H -6.42082 0.970189 -2.14508 0
M  V30 53 H -5.66029 -1.69934 -0.854011 0
M  V30 54 H -6.93664 -1.31798 -2.03705 0
M  V30 55 H -5.16684 -1.1169 -2.52228 0
M  V30 56 H -7.06398 0.114055 1.71093 0
M  V30 57 H -4.55423 1.0923 2.03036 0
M  V30 58 H -4.89752 -0.645962 1.82027 0
M  V30 59 H -6.26119 2.90959 0.792707 0
M  V30 60 H -6.22824 2.30627 2.51888 0
M  V30 61 H -7.76094 2.26003 1.60609 0
M  V30 END ATOM
M  V30 BEGIN BOND
M  V30 1 3 1 2
M  V30 2 1 2 3
M  V30 3 2 3 4
M  V30 4 1 4 5
M  V30 5 2 5 6
M  V30 6 1 6 7
M  V30 7 2 7 8
M  V30 8 1 8 9
M  V30 9 1 9 10
M  V30 10 1 10 11
M  V30 11 2 11 12
M  V30 12 1 11 13
M  V30 13 1 13 14
M  V30 14 1 14 15
M  V30 15 2 15 16
M  V30 16 1 16 17
M  V30 17 1 13 18
M  V30 18 2 18 19
M  V30 19 1 19 20
M  V30 20 2 20 21
M  V30 21 1 21 22
M  V30 22 2 22 23
M  V30 23 1 22 24
M  V30 24 1 24 25
M  V30 25 1 6 26
M  V30 26 1 4 27
M  V30 27 1 27 28
M  V30 28 1 28 29
M  V30 29 1 29 30
M  V30 30 1 29 31
M  V30 31 1 31 32
M  V30 32 1 32 33
M  V30 33 1 32 34
M  V30 34 1 8 3
M  V30 35 2 14 9
M  V30 36 1 23 18
M  V30 37 1 33 27
M  V30 38 1 16 7
M  V30 39 1 10 35
M  V30 40 1 10 36
M  V30 41 1 17 37
M  V30 42 1 17 38
M  V30 43 1 19 39
M  V30 44 1 20 40
M  V30 45 1 21 41
M  V30 46 1 23 42
M  V30 47 1 24 43
M  V30 48 1 24 44
M  V30 49 1 25 45
M  V30 50 1 25 46
M  V30 51 1 25 47
M  V30 52 1 26 48
M  V30 53 1 26 49
M  V30 54 1 28 50
M  V30 55 1 28 51
M  V30 56 1 29 52
M  V30 57 1 30 53
M  V30 58 1 30 54
M  V30 59 1 30 55
M  V30 60 1 32 56
M  V30 61 1 33 57
M  V30 62 1 33 58
M  V30 63 1 34 59
M  V30 64 1 34 60
M  V30 65 1 34 61
M  V30 END BOND
M  V30 END CTAB
M  END
