
     RDKit          3D

  0  0  0  0  0  0  0  0  0  0999 V3000
M  V30 BEGIN CTAB
M  V30 COUNTS 28 28 0 0 0
M  V30 BEGIN ATOM
M  V30 1 C -0.61589 3.08808 1.12091 0
M  V30 2 C -0.327577 1.72338 0.597994 0
M  V30 3 C 0.953343 1.23387 0.478664 0
M  V30 4 C 1.22193 -0.0483125 -0.0127679 0
M  V30 5 C 0.198549 -0.882047 -0.401562 0
M  V30 6 C 0.433217 -2.23488 -0.921903 0
M  V30 7 C -1.09589 -0.387719 -0.281159 0
M  V30 8 C -1.34213 0.879361 0.205479 0
M  V30 9 S -2.39912 -1.44761 -0.773672 0
M  V30 10 N -3.87289 -0.560291 -0.528881 0
M  V30 11 O -2.49891 -2.66696 0.0944574 0
M  V30 12 O -2.29167 -1.74674 -2.21849 0
M  V30 13 S 2.8585 -0.614685 -0.14886 0
M  V30 14 N 3.90047 0.663344 0.437707 0
M  V30 15 O 3.16563 -0.88105 -1.61125 0
M  V30 16 O 3.15978 -1.79954 0.716874 0
M  V30 17 H 0.340149 3.58547 1.35107 0
M  V30 18 H -1.13349 3.72518 0.374316 0
M  V30 19 H -1.27165 3.05592 2.01564 0
M  V30 20 H 1.756 1.88675 0.783261 0
M  V30 21 H 1.4843 -2.50208 -0.923869 0
M  V30 22 H 0.0997835 -2.28679 -1.99961 0
M  V30 23 H -0.135764 -3.03278 -0.409412 0
M  V30 24 H -2.37388 1.2487 0.291654 0
M  V30 25 H -3.87239 -0.140966 0.418448 0
M  V30 26 H -4.7092 -1.17084 -0.650513 0
M  V30 27 H 4.85187 0.290546 0.655165 0
M  V30 28 H 3.51696 1.02271 1.34033 0
M  V30 END ATOM
M  V30 BEGIN BOND
M  V30 1 1 1 2
M  V30 2 2 2 3
M  V30 3 1 3 4
M  V30 4 2 4 5
M  V30 5 1 5 6
M  V30 6 1 5 7
M  V30 7 2 7 8
M  V30 8 1 7 9
M  V30 9 1 9 10
M  V30 10 2 9 11
M  V30 11 2 9 12
M  V30 12 1 4 13
M  V30 13 1 13 14
M  V30 14 2 13 15
M  V30 15 2 13 16
M  V30 16 1 8 2
M  V30 17 1 1 17
M  V30 18 1 1 18
M  V30 19 1 1 19
M  V30 20 1 3 20
M  V30 21 1 6 21
M  V30 22 1 6 22
M  V30 23 1 6 23
M  V30 24 1 8 24
M  V30 25 1 10 25
M  V30 26 1 10 26
M  V30 27 1 14 27
M  V30 28 1 14 28
M  V30 END BOND
M  V30 END CTAB
M  END
