
     RDKit          3D

  0  0  0  0  0  0  0  0  0  0999 V3000
M  V30 BEGIN CTAB
M  V30 COUNTS 26 26 0 0 0
M  V30 BEGIN ATOM
M  V30 1 C 1.76997 3.15478 0.640783 0
M  V30 2 O 2.0418 1.80571 0.404842 0
M  V30 3 C 1.02712 0.874775 0.157746 0
M  V30 4 C -0.30902 1.21901 0.12912 0
M  V30 5 C -1.32055 0.311049 -0.113405 0
M  V30 6 C -2.7305 0.756935 -0.127999 0
M  V30 7 S -3.11928 2.22475 -0.7247 0
M  V30 8 N -3.76065 -0.0654923 0.367317 0
M  V30 9 C -1.00559 -1.01279 -0.341523 0
M  V30 10 C 0.326945 -1.36784 -0.315194 0
M  V30 11 C 1.33266 -0.451554 -0.0715043 0
M  V30 12 O 2.68426 -0.812433 -0.0449475 0
M  V30 13 C 3.1269 -2.1314 -0.263216 0
M  V30 14 N -2.02387 -1.97406 -0.594602 0
M  V30 15 H 1.521 3.67812 -0.30029 0
M  V30 16 H 0.912163 3.2279 1.36336 0
M  V30 17 H 2.66793 3.58742 1.14985 0
M  V30 18 H -0.547938 2.26775 0.31058 0
M  V30 19 H -3.64684 -0.418556 1.35756 0
M  V30 20 H -4.60957 -0.354623 -0.139296 0
M  V30 21 H 0.565136 -2.39654 -0.492896 0
M  V30 22 H 4.16139 -2.05073 -0.680827 0
M  V30 23 H 2.52256 -2.68601 -1.00015 0
M  V30 24 H 3.24155 -2.70296 0.695013 0
M  V30 25 H -2.53661 -2.40368 0.202389 0
M  V30 26 H -2.29096 -2.27954 -1.568 0
M  V30 END ATOM
M  V30 BEGIN BOND
M  V30 1 1 1 2
M  V30 2 1 2 3
M  V30 3 2 3 4
M  V30 4 1 4 5
M  V30 5 1 5 6
M  V30 6 2 6 7
M  V30 7 1 6 8
M  V30 8 2 5 9
M  V30 9 1 9 10
M  V30 10 2 10 11
M  V30 11 1 11 12
M  V30 12 1 12 13
M  V30 13 1 9 14
M  V30 14 1 11 3
M  V30 15 1 1 15
M  V30 16 1 1 16
M  V30 17 1 1 17
M  V30 18 1 4 18
M  V30 19 1 8 19
M  V30 20 1 8 20
M  V30 21 1 10 21
M  V30 22 1 13 22
M  V30 23 1 13 23
M  V30 24 1 13 24
M  V30 25 1 14 25
M  V30 26 1 14 26
M  V30 END BOND
M  V30 END CTAB
M  END
