
     RDKit          3D

  0  0  0  0  0  0  0  0  0  0999 V3000
M  V30 BEGIN CTAB
M  V30 COUNTS 39 40 0 0 0
M  V30 BEGIN ATOM
M  V30 1 N 5.04348 -0.925615 0.468062 0
M  V30 2 C 3.6397 -0.574593 0.347267 0
M  V30 3 C 3.46239 0.811216 -0.212709 0
M  V30 4 C 4.09977 1.901 0.638104 0
M  V30 5 C 4.61893 1.57029 -0.74651 0
M  V30 6 C 2.93923 -1.62732 -0.449331 0
M  V30 7 N 1.53698 -1.37571 -0.633996 0
M  V30 8 C 0.570488 -1.26064 0.389467 0
M  V30 9 O 0.964137 -1.39257 1.59296 0
M  V30 10 C -0.830018 -1.00347 0.149489 0
M  V30 11 C -1.35797 -0.841609 -1.10664 0
M  V30 12 C -2.70125 -0.595357 -1.33134 0
M  V30 13 C -3.54153 -0.509472 -0.248725 0
M  V30 14 C -3.04475 -0.666819 1.02386 0
M  V30 15 C -1.72088 -0.907437 1.20806 0
M  V30 16 C -4.995 -0.246214 -0.433979 0
M  V30 17 S -5.2378 1.5135 -0.408955 0
M  V30 18 O -6.70837 1.77478 -0.518966 0
M  V30 19 O -4.51014 2.19995 -1.51109 0
M  V30 20 N -4.67723 2.07232 1.14413 0
M  V30 21 H 5.17331 -1.70355 1.15729 0
M  V30 22 H 5.46141 -1.16099 -0.443763 0
M  V30 23 H 3.23102 -0.574297 1.37588 0
M  V30 24 H 2.47471 1.00176 -0.658565 0
M  V30 25 H 4.71739 1.6236 1.49561 0
M  V30 26 H 3.53878 2.85227 0.775541 0
M  V30 27 H 5.63047 1.15597 -0.769822 0
M  V30 28 H 4.39165 2.32065 -1.53577 0
M  V30 29 H 3.4406 -1.8576 -1.41003 0
M  V30 30 H 2.99427 -2.56903 0.177458 0
M  V30 31 H 1.20349 -1.26674 -1.64014 0
M  V30 32 H -0.741235 -0.89964 -1.99064 0
M  V30 33 H -3.08133 -0.474388 -2.31527 0
M  V30 34 H -3.75287 -0.590414 1.86404 0
M  V30 35 H -1.34059 -1.02935 2.20855 0
M  V30 36 H -5.55638 -0.663838 0.426607 0
M  V30 37 H -5.37889 -0.702004 -1.37807 0
M  V30 38 H -5.1845 1.53183 1.87964 0
M  V30 39 H -4.77148 3.0895 1.21906 0
M  V30 END ATOM
M  V30 BEGIN BOND
M  V30 1 1 1 2
M  V30 2 1 2 3
M  V30 3 1 3 4
M  V30 4 1 4 5
M  V30 5 1 2 6
M  V30 6 1 6 7
M  V30 7 1 7 8
M  V30 8 2 8 9
M  V30 9 1 8 10
M  V30 10 2 10 11
M  V30 11 1 11 12
M  V30 12 2 12 13
M  V30 13 1 13 14
M  V30 14 2 14 15
M  V30 15 1 13 16
M  V30 16 1 16 17
M  V30 17 2 17 18
M  V30 18 2 17 19
M  V30 19 1 17 20
M  V30 20 1 5 3
M  V30 21 1 15 10
M  V30 22 1 1 21
M  V30 23 1 1 22
M  V30 24 1 2 23
M  V30 25 1 3 24
M  V30 26 1 4 25
M  V30 27 1 4 26
M  V30 28 1 5 27
M  V30 29 1 5 28
M  V30 30 1 6 29
M  V30 31 1 6 30
M  V30 32 1 7 31
M  V30 33 1 11 32
M  V30 34 1 12 33
M  V30 35 1 14 34
M  V30 36 1 15 35
M  V30 37 1 16 36
M  V30 38 1 16 37
M  V30 39 1 20 38
M  V30 40 1 20 39
M  V30 END BOND
M  V30 END CTAB
M  END
