
     RDKit          3D

  0  0  0  0  0  0  0  0  0  0999 V3000
M  V30 BEGIN CTAB
M  V30 COUNTS 19 18 0 0 0
M  V30 BEGIN ATOM
M  V30 1 O 2.60633 -1.04395 -0.223596 0
M  V30 2 C 1.53785 -0.400058 -0.468556 0
M  V30 3 C 0.802854 -0.126813 0.817564 0
M  V30 4 C -0.479339 0.643217 0.611274 0 CFG=2
M  V30 5 C -1.43493 -0.108277 -0.277833 0
M  V30 6 N -1.74029 -1.35721 0.325225 0
M  V30 7 N -0.139082 1.88477 -0.064225 0
M  V30 8 H 3.35906 -1.03082 -0.303754 0
M  V30 9 H 1.76344 0.590847 -0.924593 0
M  V30 10 H 0.845154 -0.985911 -1.13659 0
M  V30 11 H 1.46804 0.393747 1.54584 0
M  V30 12 H 0.552827 -1.11694 1.28666 0
M  V30 13 H -0.956158 0.871544 1.58209 0
M  V30 14 H -1.02472 -0.245097 -1.2855 0
M  V30 15 H -2.38929 0.44445 -0.409636 0
M  V30 16 H -1.4542 -1.48128 1.30006 0
M  V30 17 H -2.61354 -1.80797 0.0353367 0
M  V30 18 H 0.286409 2.53418 0.631131 0
M  V30 19 H -0.990415 2.34157 -0.474508 0
M  V30 END ATOM
M  V30 BEGIN BOND
M  V30 1 1 1 2
M  V30 2 1 2 3
M  V30 3 1 3 4
M  V30 4 1 4 5
M  V30 5 1 5 6
M  V30 6 1 4 7
M  V30 7 1 1 8
M  V30 8 1 2 9
M  V30 9 1 2 10
M  V30 10 1 3 11
M  V30 11 1 3 12
M  V30 12 1 4 13 CFG=1
M  V30 13 1 5 14
M  V30 14 1 5 15
M  V30 15 1 6 16
M  V30 16 1 6 17
M  V30 17 1 7 18
M  V30 18 1 7 19
M  V30 END BOND
M  V30 END CTAB
M  END
