
     RDKit          3D

  0  0  0  0  0  0  0  0  0  0999 V3000
M  V30 BEGIN CTAB
M  V30 COUNTS 43 45 0 0 0
M  V30 BEGIN ATOM
M  V30 1 C 4.47097 -0.148577 -1.74587 0
M  V30 2 O 3.6546 -0.719697 -0.746462 0
M  V30 3 C 3.44554 0.331486 0.182909 0
M  V30 4 C 2.57594 -0.259603 1.25731 0
M  V30 5 C 1.26014 -0.763629 0.766132 0
M  V30 6 N 1.15601 -2.00431 0.261286 0
M  V30 7 C -0.10593 -2.23544 -0.056148 0
M  V30 8 C -0.777125 -3.32956 -0.597801 0
M  V30 9 N 0.0157096 -4.46828 -0.903569 0
M  V30 10 N -2.08468 -3.31532 -0.818431 0
M  V30 11 C -2.77941 -2.20574 -0.506692 0
M  V30 12 C -4.15312 -2.1763 -0.722038 0
M  V30 13 C -4.88503 -1.059 -0.403762 0
M  V30 14 C -4.29329 0.053487 0.131158 0
M  V30 15 C -2.89958 0.0394662 0.355549 0
M  V30 16 C -2.16973 -1.06144 0.0432225 0
M  V30 17 C -0.804254 -1.07969 0.271217 0
M  V30 18 N 0.0236288 -0.158026 0.780172 0
M  V30 19 C -0.129257 1.14956 1.27332 0
M  V30 20 C 0.025324 2.24307 0.231631 0
M  V30 21 C -0.154658 3.60876 0.859498 0
M  V30 22 N -0.00146923 4.63018 -0.159048 0
M  V30 23 H 5.41582 0.190958 -1.26723 0
M  V30 24 H 3.89639 0.756811 -2.0958 0
M  V30 25 H 4.61014 -0.849515 -2.57019 0
M  V30 26 H 4.421 0.609517 0.64609 0
M  V30 27 H 2.9839 1.18076 -0.330435 0
M  V30 28 H 3.19114 -1.1283 1.66449 0
M  V30 29 H 2.4902 0.399989 2.14642 0
M  V30 30 H -0.27891 -5.42438 -0.546632 0
M  V30 31 H 0.899901 -4.39752 -1.48109 0
M  V30 32 H -4.62029 -3.06952 -1.15029 0
M  V30 33 H -5.96402 -1.05914 -0.581358 0
M  V30 34 H -4.80598 0.959309 0.40265 0
M  V30 35 H -2.50406 0.907328 0.762605 0
M  V30 36 H -0.891344 1.35802 2.04254 0
M  V30 37 H 0.788183 1.38746 1.9359 0
M  V30 38 H -0.79006 2.13557 -0.545029 0
M  V30 39 H 0.94908 2.19818 -0.308285 0
M  V30 40 H 0.628055 3.71144 1.63611 0
M  V30 41 H -1.16673 3.66649 1.27649 0
M  V30 42 H -0.879395 5.19281 -0.28907 0
M  V30 43 H 0.23664 4.20233 -1.10147 0
M  V30 END ATOM
M  V30 BEGIN BOND
M  V30 1 1 1 2
M  V30 2 1 2 3
M  V30 3 1 3 4
M  V30 4 1 4 5
M  V30 5 2 5 6
M  V30 6 1 6 7
M  V30 7 2 7 8
M  V30 8 1 8 9
M  V30 9 1 8 10
M  V30 10 2 10 11
M  V30 11 1 11 12
M  V30 12 2 12 13
M  V30 13 1 13 14
M  V30 14 2 14 15
M  V30 15 1 15 16
M  V30 16 2 16 17
M  V30 17 1 17 18
M  V30 18 1 18 19
M  V30 19 1 19 20
M  V30 20 1 20 21
M  V30 21 1 21 22
M  V30 22 1 18 5
M  V30 23 1 17 7
M  V30 24 1 16 11
M  V30 25 1 1 23
M  V30 26 1 1 24
M  V30 27 1 1 25
M  V30 28 1 3 26
M  V30 29 1 3 27
M  V30 30 1 4 28
M  V30 31 1 4 29
M  V30 32 1 9 30
M  V30 33 1 9 31
M  V30 34 1 12 32
M  V30 35 1 13 33
M  V30 36 1 14 34
M  V30 37 1 15 35
M  V30 38 1 19 36
M  V30 39 1 19 37
M  V30 40 1 20 38
M  V30 41 1 20 39
M  V30 42 1 21 40
M  V30 43 1 21 41
M  V30 44 1 22 42
M  V30 45 1 22 43
M  V30 END BOND
M  V30 END CTAB
M  END
