
     RDKit          3D

  0  0  0  0  0  0  0  0  0  0999 V3000
M  V30 BEGIN CTAB
M  V30 COUNTS 68 73 0 0 0
M  V30 BEGIN ATOM
M  V30 1 Cl 11.0425 -0.0325704 -3.28014 0
M  V30 2 C 10.0156 -0.123817 -2.00263 0
M  V30 3 C 10.2788 0.559839 -0.833407 0
M  V30 4 C 9.45032 0.521586 0.276595 0
M  V30 5 C 8.29822 -0.256547 0.177275 0
M  V30 6 C 8.01734 -0.945677 -0.978824 0
M  V30 7 C 8.851 -0.894971 -2.06801 0
M  V30 8 N 6.86328 -1.59202 -0.775897 0
M  V30 9 C 6.421 -1.32235 0.474492 0
M  V30 10 N 7.3148 -0.503995 1.03786 0
M  V30 11 C 5.177 -1.84253 1.09339 0
M  V30 12 C 4.06358 -0.873631 0.789813 0
M  V30 13 C 2.81249 -1.37663 1.39878 0
M  V30 14 O 2.85505 -2.46793 2.04657 0
M  V30 15 N 1.59987 -0.661237 1.26334 0
M  V30 16 C 0.373163 -1.13359 1.84787 0
M  V30 17 C -0.631803 -1.29001 0.72701 0
M  V30 18 C -0.813481 0.0319929 0.0176321 0
M  V30 19 C 0.510948 0.534141 -0.520449 0
M  V30 20 C 1.58794 0.571438 0.522419 0
M  V30 21 O -1.34068 1.01422 0.810017 0
M  V30 22 C -2.60069 0.721667 1.32557 0
M  V30 23 C -3.62086 0.374427 0.268704 0 CFG=2
M  V30 24 C -3.01426 0.622425 -1.07225 0 CFG=2
M  V30 25 C -1.7176 -0.158693 -1.17634 0
M  V30 26 C -2.84842 2.08583 -1.30309 0
M  V30 27 O -3.80705 0.136485 -2.11893 0
M  V30 28 N -4.87154 1.064 0.477431 0
M  V30 29 C -5.07344 2.2841 0.977158 0
M  V30 30 N -6.40005 2.49488 0.977363 0
M  V30 31 C -7.0369 1.43751 0.490152 0
M  V30 32 C -6.06982 0.520759 0.169081 0
M  V30 33 N -6.4381 -0.671773 -0.357462 0
M  V30 34 C -7.74698 -0.894709 -0.538937 0
M  V30 35 N -8.15693 -2.16012 -1.09925 0
M  V30 36 N -8.70789 0.00552934 -0.224309 0
M  V30 37 C -8.40399 1.20401 0.300408 0
M  V30 38 N -9.38808 2.17165 0.641958 0
M  V30 39 H 11.1799 1.17611 -0.738176 0
M  V30 40 H 9.65408 1.05353 1.18788 0
M  V30 41 H 8.58744 -1.45725 -2.96157 0
M  V30 42 H 6.36775 -2.20816 -1.45592 0
M  V30 43 H 4.97106 -2.85619 0.753592 0
M  V30 44 H 5.31435 -1.89654 2.20158 0
M  V30 45 H 4.26056 0.12119 1.24451 0
M  V30 46 H 3.92278 -0.789274 -0.308056 0
M  V30 47 H -0.0188263 -0.293037 2.491 0
M  V30 48 H 0.48272 -2.04971 2.43005 0
M  V30 49 H -0.336456 -2.05946 0.0114262 0
M  V30 50 H -1.59432 -1.5979 1.16808 0
M  V30 51 H 0.379938 1.56753 -0.898944 0
M  V30 52 H 0.802626 -0.0842782 -1.37537 0
M  V30 53 H 2.5543 0.73541 -0.0189403 0
M  V30 54 H 1.41744 1.39261 1.2474 0
M  V30 55 H -2.93232 1.63471 1.85846 0
M  V30 56 H -2.54626 -0.0640753 2.11656 0
M  V30 57 H -3.82074 -0.73668 0.338712 0
M  V30 58 H -1.24377 0.103181 -2.12987 0
M  V30 59 H -2.02625 -1.23842 -1.25882 0
M  V30 60 H -2.03921 2.33281 -2.0209 0
M  V30 61 H -3.78113 2.52843 -1.76301 0
M  V30 62 H -2.67856 2.67541 -0.383058 0
M  V30 63 H -3.26103 0.0049624 -2.92498 0
M  V30 64 H -4.30527 3.00363 1.32996 0
M  V30 65 H -7.47752 -2.81207 -1.54149 0
M  V30 66 H -9.14907 -2.44218 -1.06881 0
M  V30 67 H -9.80843 2.25774 1.58347 0
M  V30 68 H -9.72016 2.8443 -0.0837737 0
M  V30 END ATOM
M  V30 BEGIN BOND
M  V30 1 1 1 2
M  V30 2 2 2 3
M  V30 3 1 3 4
M  V30 4 2 4 5
M  V30 5 1 5 6
M  V30 6 2 6 7
M  V30 7 1 6 8
M  V30 8 1 8 9
M  V30 9 2 9 10
M  V30 10 1 9 11
M  V30 11 1 11 12
M  V30 12 1 12 13
M  V30 13 2 13 14
M  V30 14 1 13 15
M  V30 15 1 15 16
M  V30 16 1 16 17
M  V30 17 1 17 18
M  V30 18 1 18 19
M  V30 19 1 19 20
M  V30 20 1 18 21
M  V30 21 1 21 22
M  V30 22 1 22 23
M  V30 23 1 23 24
M  V30 24 1 24 25
M  V30 25 1 24 26
M  V30 26 1 24 27 CFG=3
M  V30 27 1 23 28
M  V30 28 1 28 29
M  V30 29 2 29 30
M  V30 30 1 30 31
M  V30 31 2 31 32
M  V30 32 1 32 33
M  V30 33 2 33 34
M  V30 34 1 34 35
M  V30 35 1 34 36
M  V30 36 2 36 37
M  V30 37 1 37 38
M  V30 38 1 7 2
M  V30 39 1 20 15
M  V30 40 1 32 28
M  V30 41 1 10 5
M  V30 42 1 25 18
M  V30 43 1 37 31
M  V30 44 1 3 39
M  V30 45 1 4 40
M  V30 46 1 7 41
M  V30 47 1 8 42
M  V30 48 1 11 43
M  V30 49 1 11 44
M  V30 50 1 12 45
M  V30 51 1 12 46
M  V30 52 1 16 47
M  V30 53 1 16 48
M  V30 54 1 17 49
M  V30 55 1 17 50
M  V30 56 1 19 51
M  V30 57 1 19 52
M  V30 58 1 20 53
M  V30 59 1 20 54
M  V30 60 1 22 55
M  V30 61 1 22 56
M  V30 62 1 23 57 CFG=3
M  V30 63 1 25 58
M  V30 64 1 25 59
M  V30 65 1 26 60
M  V30 66 1 26 61
M  V30 67 1 26 62
M  V30 68 1 27 63
M  V30 69 1 29 64
M  V30 70 1 35 65
M  V30 71 1 35 66
M  V30 72 1 38 67
M  V30 73 1 38 68
M  V30 END BOND
M  V30 END CTAB
M  END
