
     RDKit          3D

  0  0  0  0  0  0  0  0  0  0999 V3000
M  V30 BEGIN CTAB
M  V30 COUNTS 52 53 0 0 0
M  V30 BEGIN ATOM
M  V30 1 N 6.2611 1.49585 2.59981 0
M  V30 2 C 5.17997 1.2027 1.64554 0
M  V30 3 C 4.20583 0.327952 2.40059 0
M  V30 4 N 3.10164 -0.0191078 1.56195 0
M  V30 5 C 3.23898 -0.743307 0.349474 0
M  V30 6 O 4.32674 -1.14968 -0.105577 0
M  V30 7 C 2.01526 -1.05165 -0.452267 0
M  V30 8 C 2.34115 -1.82662 -1.69904 0
M  V30 9 C 1.10307 -2.04844 -2.50118 0
M  V30 10 C -0.153928 -1.4998 -1.85425 0
M  V30 11 N 0.0248243 -0.158095 -1.39769 0
M  V30 12 C 1.34209 0.243684 -0.923102 0
M  V30 13 C -1.02474 0.79681 -1.38424 0
M  V30 14 O -0.812657 1.99011 -0.981951 0
M  V30 15 C -2.39664 0.496156 -1.81703 0
M  V30 16 C -3.14712 -0.438631 -0.903946 0
M  V30 17 C -3.29008 0.0721083 0.460126 0
M  V30 18 C -2.52333 -0.423698 1.48196 0
M  V30 19 C -2.65129 0.0553989 2.78579 0
M  V30 20 C -3.56946 1.04611 3.03887 0
M  V30 21 C -4.33863 1.54437 2.01692 0
M  V30 22 C -4.19789 1.05895 0.737431 0
M  V30 23 N -4.50139 -0.6501 -1.42939 0
M  V30 24 C -3.13247 1.75406 -2.12256 0
M  V30 25 H 5.83209 2.07932 3.37615 0
M  V30 26 H 6.47615 0.55779 3.05228 0
M  V30 27 H 5.59879 0.742635 0.745782 0
M  V30 28 H 4.6156 2.14323 1.39609 0
M  V30 29 H 4.72024 -0.56951 2.81207 0
M  V30 30 H 3.87345 0.925366 3.27922 0
M  V30 31 H 2.13279 0.29081 1.88032 0
M  V30 32 H 1.27737 -1.62246 0.120364 0
M  V30 33 H 3.12633 -1.28442 -2.279 0
M  V30 34 H 2.78761 -2.80941 -1.44745 0
M  V30 35 H 0.939486 -3.11778 -2.66269 0
M  V30 36 H 1.23211 -1.51771 -3.48224 0
M  V30 37 H -0.967679 -1.58788 -2.61509 0
M  V30 38 H -0.406532 -2.20594 -1.03823 0
M  V30 39 H 1.25478 0.976092 -0.117006 0
M  V30 40 H 1.9075 0.614549 -1.80131 0
M  V30 41 H -2.30814 -0.060678 -2.79548 0
M  V30 42 H -2.66304 -1.43114 -0.958168 0
M  V30 43 H -1.78531 -1.20587 1.33142 0
M  V30 44 H -2.05064 -0.332961 3.58681 0
M  V30 45 H -3.66457 1.41915 4.07098 0
M  V30 46 H -5.05327 2.31882 2.22621 0
M  V30 47 H -4.82944 1.47883 -0.061057 0
M  V30 48 H -5.01085 -1.36658 -0.903044 0
M  V30 49 H -4.51074 -0.802891 -2.44476 0
M  V30 50 H -2.68077 2.20038 -3.04516 0
M  V30 51 H -4.19771 1.55647 -2.39654 0
M  V30 52 H -3.04665 2.53268 -1.33671 0
M  V30 END ATOM
M  V30 BEGIN BOND
M  V30 1 1 1 2
M  V30 2 1 2 3
M  V30 3 1 3 4
M  V30 4 1 4 5
M  V30 5 2 5 6
M  V30 6 1 5 7
M  V30 7 1 7 8
M  V30 8 1 8 9
M  V30 9 1 9 10
M  V30 10 1 10 11
M  V30 11 1 11 12
M  V30 12 1 11 13
M  V30 13 2 13 14
M  V30 14 1 13 15
M  V30 15 1 15 16
M  V30 16 1 16 17
M  V30 17 2 17 18
M  V30 18 1 18 19
M  V30 19 2 19 20
M  V30 20 1 20 21
M  V30 21 2 21 22
M  V30 22 1 16 23
M  V30 23 1 15 24
M  V30 24 1 12 7
M  V30 25 1 22 17
M  V30 26 1 1 25
M  V30 27 1 1 26
M  V30 28 1 2 27
M  V30 29 1 2 28
M  V30 30 1 3 29
M  V30 31 1 3 30
M  V30 32 1 4 31
M  V30 33 1 7 32
M  V30 34 1 8 33
M  V30 35 1 8 34
M  V30 36 1 9 35
M  V30 37 1 9 36
M  V30 38 1 10 37
M  V30 39 1 10 38
M  V30 40 1 12 39
M  V30 41 1 12 40
M  V30 42 1 15 41
M  V30 43 1 16 42
M  V30 44 1 18 43
M  V30 45 1 19 44
M  V30 46 1 20 45
M  V30 47 1 21 46
M  V30 48 1 22 47
M  V30 49 1 23 48
M  V30 50 1 23 49
M  V30 51 1 24 50
M  V30 52 1 24 51
M  V30 53 1 24 52
M  V30 END BOND
M  V30 END CTAB
M  END
