
     RDKit          3D

  0  0  0  0  0  0  0  0  0  0999 V3000
M  V30 BEGIN CTAB
M  V30 COUNTS 34 34 0 0 0
M  V30 BEGIN ATOM
M  V30 1 F 2.6952 -1.1208 -3.50713 0
M  V30 2 C 2.76848 -0.661668 -2.23279 0
M  V30 3 C 1.61431 -0.446397 -1.46926 0
M  V30 4 C 1.65409 0.0152176 -0.184567 0
M  V30 5 C 0.441894 0.233162 0.59503 0
M  V30 6 O 0.555175 0.663948 1.78384 0
M  V30 7 N -0.863788 -0.00800625 0.103216 0
M  V30 8 C -1.97989 0.241865 0.957938 0
M  V30 9 C -3.30824 -0.0465487 0.334735 0
M  V30 10 N -4.33412 0.253538 1.31656 0
M  V30 11 C -3.57428 0.8482 -0.860884 0
M  V30 12 C -3.44958 -1.51175 -0.0304662 0
M  V30 13 C 2.87607 0.278145 0.378921 0
M  V30 14 C 4.04244 0.0834511 -0.329047 0
M  V30 15 C 3.97418 -0.383874 -1.62586 0
M  V30 16 N 5.29381 0.376243 0.31167 0 CHG=1
M  V30 17 O 6.3352 -0.218594 -0.0319863 0
M  V30 18 O 5.38322 1.3122 1.31445 0 CHG=-1
M  V30 19 N 2.95133 0.758408 1.712 0
M  V30 20 H 0.695721 -0.675133 -1.97893 0
M  V30 21 H -0.954904 -0.362104 -0.875615 0
M  V30 22 H -1.86008 -0.360167 1.87029 0
M  V30 23 H -1.99123 1.31808 1.27519 0
M  V30 24 H -3.96401 1.00458 1.93986 0
M  V30 25 H -4.53374 -0.568194 1.92645 0
M  V30 26 H -4.36237 0.404487 -1.50779 0
M  V30 27 H -2.67293 1.06385 -1.43901 0
M  V30 28 H -3.97443 1.84052 -0.506276 0
M  V30 29 H -3.51118 -1.62949 -1.12623 0
M  V30 30 H -2.52187 -2.02372 0.312272 0
M  V30 31 H -4.30034 -1.99184 0.474953 0
M  V30 32 H 4.91183 -0.534341 -2.17686 0
M  V30 33 H 2.89177 1.76715 1.95916 0
M  V30 34 H 3.07228 0.079567 2.49252 0
M  V30 END ATOM
M  V30 BEGIN BOND
M  V30 1 1 1 2
M  V30 2 2 2 3
M  V30 3 1 3 4
M  V30 4 1 4 5
M  V30 5 2 5 6
M  V30 6 1 5 7
M  V30 7 1 7 8
M  V30 8 1 8 9
M  V30 9 1 9 10
M  V30 10 1 9 11
M  V30 11 1 9 12
M  V30 12 2 4 13
M  V30 13 1 13 14
M  V30 14 2 14 15
M  V30 15 1 14 16
M  V30 16 2 16 17
M  V30 17 1 16 18
M  V30 18 1 13 19
M  V30 19 1 15 2
M  V30 20 1 3 20
M  V30 21 1 7 21
M  V30 22 1 8 22
M  V30 23 1 8 23
M  V30 24 1 10 24
M  V30 25 1 10 25
M  V30 26 1 11 26
M  V30 27 1 11 27
M  V30 28 1 11 28
M  V30 29 1 12 29
M  V30 30 1 12 30
M  V30 31 1 12 31
M  V30 32 1 15 32
M  V30 33 1 19 33
M  V30 34 1 19 34
M  V30 END BOND
M  V30 END CTAB
M  END
