
     RDKit          3D

  0  0  0  0  0  0  0  0  0  0999 V3000
M  V30 BEGIN CTAB
M  V30 COUNTS 31 32 0 0 0
M  V30 BEGIN ATOM
M  V30 1 C 1.02614 1.43253 -1.55883 0
M  V30 2 N 0.869371 0.514188 -0.480186 0
M  V30 3 C -0.462875 0.21259 -0.00822335 0
M  V30 4 C -0.760831 0.328207 1.33782 0
M  V30 5 C -2.00296 0.0435543 1.78789 0
M  V30 6 C -3.01864 -0.367046 0.961099 0
M  V30 7 C -2.7222 -0.482849 -0.374728 0
M  V30 8 C -1.4642 -0.197756 -0.853174 0
M  V30 9 N -3.78426 -0.912063 -1.2305 0
M  V30 10 N -4.32619 -0.654611 1.47372 0
M  V30 11 C 1.95231 -0.142233 0.187792 0
M  V30 12 C 2.86584 -0.965605 -0.665402 0
M  V30 13 C 4.01376 -0.49917 0.204826 0
M  V30 14 C 3.14773 0.710242 0.559988 0
M  V30 15 H 1.76214 1.0398 -2.28866 0
M  V30 16 H 1.33441 2.43139 -1.15911 0
M  V30 17 H 0.0767222 1.61236 -2.07889 0
M  V30 18 H 0.0132022 0.643938 1.98529 0
M  V30 19 H -2.25802 0.128152 2.85053 0
M  V30 20 H -1.27838 -0.301413 -1.90339 0
M  V30 21 H -4.23852 -1.82986 -1.00841 0
M  V30 22 H -4.07252 -0.315837 -2.03493 0
M  V30 23 H -5.06563 -1.002 0.836668 0
M  V30 24 H -4.54448 -0.51993 2.47108 0
M  V30 25 H 1.64063 -0.743096 1.06538 0
M  V30 26 H 2.95206 -0.593722 -1.7109 0
M  V30 27 H 2.73383 -2.06715 -0.611542 0
M  V30 28 H 4.94603 -0.243294 -0.326177 0
M  V30 29 H 4.19006 -1.1742 1.08803 0
M  V30 30 H 3.15233 0.97103 1.6386 0
M  V30 31 H 3.32314 1.54102 -0.15566 0
M  V30 END ATOM
M  V30 BEGIN BOND
M  V30 1 1 1 2
M  V30 2 1 2 3
M  V30 3 2 3 4
M  V30 4 1 4 5
M  V30 5 2 5 6
M  V30 6 1 6 7
M  V30 7 2 7 8
M  V30 8 1 7 9
M  V30 9 1 6 10
M  V30 10 1 2 11
M  V30 11 1 11 12
M  V30 12 1 12 13
M  V30 13 1 13 14
M  V30 14 1 8 3
M  V30 15 1 14 11
M  V30 16 1 1 15
M  V30 17 1 1 16
M  V30 18 1 1 17
M  V30 19 1 4 18
M  V30 20 1 5 19
M  V30 21 1 8 20
M  V30 22 1 9 21
M  V30 23 1 9 22
M  V30 24 1 10 23
M  V30 25 1 10 24
M  V30 26 1 11 25
M  V30 27 1 12 26
M  V30 28 1 12 27
M  V30 29 1 13 28
M  V30 30 1 13 29
M  V30 31 1 14 30
M  V30 32 1 14 31
M  V30 END BOND
M  V30 END CTAB
M  END
