
     RDKit          3D

  0  0  0  0  0  0  0  0  0  0999 V3000
M  V30 BEGIN CTAB
M  V30 COUNTS 32 33 0 0 0
M  V30 BEGIN ATOM
M  V30 1 N 5.12077 1.63262 0.171014 0
M  V30 2 C 3.94074 0.865247 0.0286959 0
M  V30 3 C 3.44412 0.21797 1.1534 0
M  V30 4 C 2.30185 -0.534486 1.05084 0
M  V30 5 C 1.64506 -0.65942 -0.132069 0
M  V30 6 C 2.16059 -0.00270352 -1.24405 0
M  V30 7 C 3.30851 0.764929 -1.1828 0
M  V30 8 S 0.164068 -1.62877 -0.287793 0
M  V30 9 O 0.30523 -2.35134 -1.5521 0
M  V30 10 O 0.295958 -2.65853 0.836272 0
M  V30 11 C -1.1719 -0.654737 0.0265431 0
M  V30 12 C -2.47558 -1.08137 -0.0451194 0
M  V30 13 C -3.50211 -0.164478 0.256004 0
M  V30 14 C -3.25139 1.13853 0.617854 0
M  V30 15 N -4.31393 2.02433 0.911502 0
M  V30 16 C -1.94736 1.56371 0.688686 0
M  V30 17 C -0.946044 0.679905 0.398172 0
M  V30 18 C -2.75569 -2.45514 -0.436983 0
M  V30 19 F -4.17665 -2.57504 -0.416443 0
M  V30 20 F -2.395 -3.43196 0.447561 0
M  V30 21 F -2.50309 -2.75796 -1.76415 0
M  V30 22 H 5.03157 2.66753 0.129946 0
M  V30 23 H 6.03133 1.13517 0.311052 0
M  V30 24 H 3.96874 0.318449 2.09577 0
M  V30 25 H 1.89725 -1.0488 1.91956 0
M  V30 26 H 1.63825 -0.102019 -2.18495 0
M  V30 27 H 3.71851 1.28004 -2.04095 0
M  V30 28 H -4.52515 -0.5397 0.18858 0
M  V30 29 H -5.26028 1.90455 0.444132 0
M  V30 30 H -4.14324 2.79071 1.5932 0
M  V30 31 H -1.68958 2.59638 0.973024 0
M  V30 32 H 0.0844347 1.06642 0.468748 0
M  V30 END ATOM
M  V30 BEGIN BOND
M  V30 1 1 1 2
M  V30 2 2 2 3
M  V30 3 1 3 4
M  V30 4 2 4 5
M  V30 5 1 5 6
M  V30 6 2 6 7
M  V30 7 1 5 8
M  V30 8 2 8 9
M  V30 9 2 8 10
M  V30 10 1 8 11
M  V30 11 2 11 12
M  V30 12 1 12 13
M  V30 13 2 13 14
M  V30 14 1 14 15
M  V30 15 1 14 16
M  V30 16 2 16 17
M  V30 17 1 12 18
M  V30 18 1 18 19
M  V30 19 1 18 20
M  V30 20 1 18 21
M  V30 21 1 7 2
M  V30 22 1 17 11
M  V30 23 1 1 22
M  V30 24 1 1 23
M  V30 25 1 3 24
M  V30 26 1 4 25
M  V30 27 1 6 26
M  V30 28 1 7 27
M  V30 29 1 13 28
M  V30 30 1 15 29
M  V30 31 1 15 30
M  V30 32 1 16 31
M  V30 33 1 17 32
M  V30 END BOND
M  V30 END CTAB
M  END
