
     RDKit          3D

  0  0  0  0  0  0  0  0  0  0999 V3000
M  V30 BEGIN CTAB
M  V30 COUNTS 24 24 0 0 0
M  V30 BEGIN ATOM
M  V30 1 N -4.33314 0.11908 -1.32025 0
M  V30 2 N -3.02203 -0.348643 -1.20846 0
M  V30 3 C -2.37417 -0.373767 -0.0931317 0
M  V30 4 N -1.03828 -0.850161 0.0216397 0
M  V30 5 C 0.0252623 0.1125 -0.0225613 0
M  V30 6 C 1.36416 -0.511012 0.107201 0
M  V30 7 O 1.72728 -1.75013 0.250494 0
M  V30 8 C 3.04592 -1.86003 0.327355 0
M  V30 9 C 3.6065 -0.604045 0.228422 0
M  V30 10 C 2.53421 0.251723 0.0884937 0
M  V30 11 C 2.63861 1.71215 -0.0538324 0
M  V30 12 N -3.04841 0.102886 1.06464 0
M  V30 13 H -4.90253 -0.22128 -2.12483 0
M  V30 14 H -4.78663 0.78183 -0.66203 0
M  V30 15 H -0.897264 -1.87317 0.132038 0
M  V30 16 H -0.144575 0.901379 0.754738 0
M  V30 17 H -0.0200145 0.630046 -1.02528 0
M  V30 18 H 3.64254 -2.75026 0.447045 0
M  V30 19 H 4.6483 -0.332147 0.252908 0
M  V30 20 H 1.77163 2.19084 0.490372 0
M  V30 21 H 3.54657 2.11822 0.43991 0
M  V30 22 H 2.61254 1.97234 -1.13321 0
M  V30 23 H -4.08532 0.0913902 1.16659 0
M  V30 24 H -2.51116 0.490257 1.87174 0
M  V30 END ATOM
M  V30 BEGIN BOND
M  V30 1 1 1 2
M  V30 2 2 2 3
M  V30 3 1 3 4
M  V30 4 1 4 5
M  V30 5 1 5 6
M  V30 6 1 6 7
M  V30 7 1 7 8
M  V30 8 2 8 9
M  V30 9 1 9 10
M  V30 10 1 10 11
M  V30 11 1 3 12
M  V30 12 2 10 6
M  V30 13 1 1 13
M  V30 14 1 1 14
M  V30 15 1 4 15
M  V30 16 1 5 16
M  V30 17 1 5 17
M  V30 18 1 8 18
M  V30 19 1 9 19
M  V30 20 1 11 20
M  V30 21 1 11 21
M  V30 22 1 11 22
M  V30 23 1 12 23
M  V30 24 1 12 24
M  V30 END BOND
M  V30 END CTAB
M  END
