
     RDKit          3D

  0  0  0  0  0  0  0  0  0  0999 V3000
M  V30 BEGIN CTAB
M  V30 COUNTS 143 146 0 0 0
M  V30 BEGIN ATOM
M  V30 1 C 5.53893 -0.459194 2.46059 0 CFG=1
M  V30 2 C 6.18329 -1.63347 1.80739 0
M  V30 3 C 5.89203 -0.313068 3.88397 0
M  V30 4 C 5.22111 0.874874 4.54721 0
M  V30 5 C 5.74882 0.846832 1.62814 0 CFG=2
M  V30 6 N 5.07834 0.508316 0.380474 0
M  V30 7 C 3.71357 0.476602 0.178417 0
M  V30 8 O 2.91298 0.738535 1.09937 0
M  V30 9 C 3.14695 0.115512 -1.16794 0 CFG=2
M  V30 10 C 2.55068 1.35241 -1.78089 0
M  V30 11 C 1.95384 1.1842 -3.10903 0
M  V30 12 C 0.613357 1.13795 -3.42838 0
M  V30 13 N 0.503031 0.990129 -4.7463 0
M  V30 14 C 1.73685 0.938126 -5.30873 0
M  V30 15 C 2.64248 1.05831 -4.29669 0
M  V30 16 C 3.98714 1.03435 -4.64608 0
M  V30 17 C 4.35137 0.895021 -5.96263 0
M  V30 18 C 3.43236 0.772337 -6.99047 0
M  V30 19 C 2.09735 0.794326 -6.6504 0
M  V30 20 N 2.0543 -0.854573 -0.95811 0
M  V30 21 C 1.98655 -2.04544 -1.69469 0
M  V30 22 O 2.9957 -2.11316 -2.56772 0
M  V30 23 C 1.16443 -3.17608 -1.75664 0 CFG=2
M  V30 24 C 0.865689 -3.79394 -3.12761 0
M  V30 25 C 0.244205 -5.11313 -2.61434 0
M  V30 26 C -0.0871629 -4.86815 -1.12911 0
M  V30 27 N -0.127253 -3.3888 -1.15817 0
M  V30 28 C -1.13134 -2.48627 -0.86384 0
M  V30 29 O -0.92995 -1.28763 -1.33564 0
M  V30 30 C -2.38897 -2.56499 -0.132237 0 CFG=2
M  V30 31 C -2.84167 -3.92675 0.145956 0
M  V30 32 C -4.16265 -3.98399 0.915713 0
M  V30 33 C -4.42096 -5.49356 1.0727 0
M  V30 34 N -5.63083 -5.78278 1.77501 0
M  V30 35 C -5.76589 -5.4886 3.14581 0
M  V30 36 N -5.24512 -6.35979 4.14247 0
M  V30 37 N -6.3635 -4.42294 3.52578 0
M  V30 38 N -3.41204 -1.70063 -0.707447 0
M  V30 39 C -3.94572 -0.567039 -0.0719751 0
M  V30 40 O -3.44933 -0.311358 1.09106 0
M  V30 41 C -4.96157 0.355092 -0.523377 0 CFG=2
M  V30 42 C -5.70929 0.0433408 -1.79976 0
M  V30 43 C -6.49216 -1.21583 -1.61589 0
M  V30 44 C -7.28048 -1.7296 -2.75322 0
M  V30 45 C -8.39048 -0.888041 -3.26642 0
M  V30 46 N -7.95858 0.368488 -3.7759 0
M  V30 47 N -4.71722 1.75548 -0.345798 0
M  V30 48 C -5.62935 2.54761 0.392612 0
M  V30 49 O -6.65695 1.95958 0.877499 0
M  V30 50 C -5.5241 3.98473 0.663179 0
M  V30 51 N -6.62372 4.49867 1.41842 0
M  V30 52 C -7.9662 4.4986 1.01173 0
M  V30 53 O -8.27645 4.02916 -0.109517 0
M  V30 54 C -9.07656 5.02905 1.84442 0 CFG=2
M  V30 55 C -9.26876 4.16547 3.09522 0
M  V30 56 C -10.7344 4.35579 3.48228 0
M  V30 57 C -11.3524 4.52874 2.13531 0
M  V30 58 O -12.6105 4.35991 1.95644 0
M  V30 59 N -10.3514 4.88294 1.19048 0
M  V30 60 C 7.16185 1.12419 1.47037 0
M  V30 61 O 7.59504 0.974187 0.25545 0
M  V30 62 N 8.13837 1.51594 2.3606 0
M  V30 63 C 9.5666 1.74211 2.03784 0 CFG=1
M  V30 64 C 9.78755 3.1828 1.90942 0
M  V30 65 C 11.1272 3.7317 1.60192 0
M  V30 66 C 11.7327 3.21993 0.318665 0
M  V30 67 C 12.0854 3.83442 2.75123 0
M  V30 68 C 10.4217 0.920184 2.87471 0
M  V30 69 O 11.7912 0.784695 2.82172 0
M  V30 70 O 9.89533 0.194959 3.8095 0
M  V30 71 H 4.42382 -0.637813 2.39819 0
M  V30 72 H 6.22324 -1.45339 0.705882 0
M  V30 73 H 5.6883 -2.59538 2.04574 0
M  V30 74 H 7.22705 -1.70929 2.14572 0
M  V30 75 H 6.97339 -0.382272 4.10722 0
M  V30 76 H 5.4612 -1.21703 4.422 0
M  V30 77 H 5.65837 1.81174 4.124 0
M  V30 78 H 5.29181 0.832898 5.65343 0
M  V30 79 H 4.13639 0.832161 4.28326 0
M  V30 80 H 5.1298 1.56345 2.15891 0
M  V30 81 H 5.72845 0.281013 -0.408011 0
M  V30 82 H 3.8771 -0.316151 -1.83819 0
M  V30 83 H 3.28948 2.17799 -1.86348 0
M  V30 84 H 1.75277 1.77202 -1.09682 0
M  V30 85 H -0.193176 1.21527 -2.6846 0
M  V30 86 H -0.383941 0.921452 -5.32166 0
M  V30 87 H 4.70157 1.13091 -3.82159 0
M  V30 88 H 5.42539 0.88299 -6.19878 0
M  V30 89 H 3.79626 0.668245 -7.98245 0
M  V30 90 H 1.35448 0.701863 -7.42915 0
M  V30 91 H 1.36187 -0.637545 -0.221996 0
M  V30 92 H 1.78677 -4.07692 -1.28333 0
M  V30 93 H 0.132711 -3.21145 -3.67994 0
M  V30 94 H 1.79309 -4.05105 -3.66902 0
M  V30 95 H -0.629819 -5.4095 -3.19946 0
M  V30 96 H 1.03918 -5.90532 -2.60672 0
M  V30 97 H 0.80513 -5.11251 -0.488351 0
M  V30 98 H -0.905497 -5.40728 -0.783705 0
M  V30 99 H -2.21141 -2.0765 0.894053 0
M  V30 100 H -2.12879 -4.45379 0.829947 0
M  V30 101 H -2.99918 -4.53629 -0.748002 0
M  V30 102 H -3.99684 -3.49181 1.88453 0
M  V30 103 H -5.01234 -3.59034 0.331508 0
M  V30 104 H -4.38031 -5.94665 0.0518092 0
M  V30 105 H -3.57761 -5.97692 1.62783 0
M  V30 106 H -6.42786 -6.22076 1.27482 0
M  V30 107 H -4.20184 -6.34445 4.34415 0
M  V30 108 H -5.8415 -7.016 4.69282 0
M  V30 109 H -6.78735 -3.70023 2.93768 0
M  V30 110 H -3.72147 -1.95515 -1.6599 0
M  V30 111 H -5.82125 0.170856 0.295891 0
M  V30 112 H -6.27621 0.893338 -2.15202 0
M  V30 113 H -4.89684 -0.211628 -2.54635 0
M  V30 114 H -7.26162 -1.06162 -0.765864 0
M  V30 115 H -5.89088 -2.05326 -1.20749 0
M  V30 116 H -7.72288 -2.71685 -2.40742 0
M  V30 117 H -6.60199 -2.04215 -3.59485 0
M  V30 118 H -9.23099 -0.784796 -2.53214 0
M  V30 119 H -8.89094 -1.4196 -4.14255 0
M  V30 120 H -8.76328 0.955613 -4.13498 0
M  V30 121 H -7.29165 0.247282 -4.5646 0
M  V30 122 H -3.87218 2.27706 -0.729715 0
M  V30 123 H -5.5331 4.53974 -0.323171 0
M  V30 124 H -4.57474 4.25695 1.1724 0
M  V30 125 H -6.4302 4.9198 2.37054 0
M  V30 126 H -8.88851 6.04793 2.21861 0
M  V30 127 H -8.60421 4.45705 3.91273 0
M  V30 128 H -9.12551 3.12933 2.77281 0
M  V30 129 H -10.8058 5.28787 4.08652 0
M  V30 130 H -11.1266 3.45988 4.00473 0
M  V30 131 H -10.551 5.00643 0.172486 0
M  V30 132 H 7.9208 1.68789 3.3594 0
M  V30 133 H 9.62626 1.32733 0.976906 0
M  V30 134 H 9.05897 3.63126 1.15648 0
M  V30 135 H 9.45519 3.69498 2.86552 0
M  V30 136 H 10.9129 4.83216 1.33795 0
M  V30 137 H 11.4109 3.77599 -0.58334 0
M  V30 138 H 11.394 2.15716 0.133774 0
M  V30 139 H 12.8485 3.26915 0.322531 0
M  V30 140 H 13.0649 3.34415 2.56048 0
M  V30 141 H 11.6042 3.47951 3.7132 0
M  V30 142 H 12.3571 4.89856 3.02681 0
M  V30 143 H 12.4125 0.845628 3.61223 0
M  V30 END ATOM
M  V30 BEGIN BOND
M  V30 1 1 1 2
M  V30 2 1 1 3
M  V30 3 1 3 4
M  V30 4 1 1 5
M  V30 5 1 5 6
M  V30 6 1 6 7
M  V30 7 2 7 8
M  V30 8 1 7 9
M  V30 9 1 9 10
M  V30 10 1 10 11
M  V30 11 2 11 12
M  V30 12 1 12 13
M  V30 13 1 13 14
M  V30 14 2 14 15
M  V30 15 1 15 16
M  V30 16 2 16 17
M  V30 17 1 17 18
M  V30 18 2 18 19
M  V30 19 1 9 20
M  V30 20 1 20 21
M  V30 21 2 21 22
M  V30 22 1 21 23
M  V30 23 1 23 24
M  V30 24 1 24 25
M  V30 25 1 25 26
M  V30 26 1 26 27
M  V30 27 1 27 28
M  V30 28 2 28 29
M  V30 29 1 28 30
M  V30 30 1 30 31
M  V30 31 1 31 32
M  V30 32 1 32 33
M  V30 33 1 33 34
M  V30 34 1 34 35
M  V30 35 1 35 36
M  V30 36 2 35 37 CFG=2
M  V30 37 1 30 38
M  V30 38 1 38 39
M  V30 39 2 39 40
M  V30 40 1 39 41
M  V30 41 1 41 42
M  V30 42 1 42 43
M  V30 43 1 43 44
M  V30 44 1 44 45
M  V30 45 1 45 46
M  V30 46 1 41 47
M  V30 47 1 47 48
M  V30 48 2 48 49
M  V30 49 1 48 50
M  V30 50 1 50 51
M  V30 51 1 51 52
M  V30 52 2 52 53
M  V30 53 1 52 54
M  V30 54 1 54 55
M  V30 55 1 55 56
M  V30 56 1 56 57
M  V30 57 2 57 58
M  V30 58 1 57 59
M  V30 59 1 5 60
M  V30 60 2 60 61
M  V30 61 1 60 62
M  V30 62 1 62 63
M  V30 63 1 63 64
M  V30 64 1 64 65
M  V30 65 1 65 66
M  V30 66 1 65 67
M  V30 67 1 63 68
M  V30 68 1 68 69
M  V30 69 2 68 70
M  V30 70 1 15 11
M  V30 71 1 27 23
M  V30 72 1 59 54
M  V30 73 1 19 14
M  V30 74 1 1 71 CFG=1
M  V30 75 1 2 72
M  V30 76 1 2 73
M  V30 77 1 2 74
M  V30 78 1 3 75
M  V30 79 1 3 76
M  V30 80 1 4 77
M  V30 81 1 4 78
M  V30 82 1 4 79
M  V30 83 1 5 80 CFG=1
M  V30 84 1 6 81
M  V30 85 1 9 82 CFG=3
M  V30 86 1 10 83
M  V30 87 1 10 84
M  V30 88 1 12 85
M  V30 89 1 13 86
M  V30 90 1 16 87
M  V30 91 1 17 88
M  V30 92 1 18 89
M  V30 93 1 19 90
M  V30 94 1 20 91
M  V30 95 1 23 92 CFG=1
M  V30 96 1 24 93
M  V30 97 1 24 94
M  V30 98 1 25 95
M  V30 99 1 25 96
M  V30 100 1 26 97
M  V30 101 1 26 98
M  V30 102 1 30 99 CFG=1
M  V30 103 1 31 100
M  V30 104 1 31 101
M  V30 105 1 32 102
M  V30 106 1 32 103
M  V30 107 1 33 104
M  V30 108 1 33 105
M  V30 109 1 34 106
M  V30 110 1 36 107
M  V30 111 1 36 108
M  V30 112 1 37 109
M  V30 113 1 38 110
M  V30 114 1 41 111 CFG=1
M  V30 115 1 42 112
M  V30 116 1 42 113
M  V30 117 1 43 114
M  V30 118 1 43 115
M  V30 119 1 44 116
M  V30 120 1 44 117
M  V30 121 1 45 118
M  V30 122 1 45 119
M  V30 123 1 46 120
M  V30 124 1 46 121
M  V30 125 1 47 122
M  V30 126 1 50 123
M  V30 127 1 50 124
M  V30 128 1 51 125
M  V30 129 1 54 126 CFG=1
M  V30 130 1 55 127
M  V30 131 1 55 128
M  V30 132 1 56 129
M  V30 133 1 56 130
M  V30 134 1 59 131
M  V30 135 1 62 132
M  V30 136 1 63 133 CFG=3
M  V30 137 1 64 134
M  V30 138 1 64 135
M  V30 139 1 65 136
M  V30 140 1 66 137
M  V30 141 1 66 138
M  V30 142 1 66 139
M  V30 143 1 67 140
M  V30 144 1 67 141
M  V30 145 1 67 142
M  V30 146 1 69 143
M  V30 END BOND
M  V30 END CTAB
M  END
