
     RDKit          3D

  0  0  0  0  0  0  0  0  0  0999 V3000
M  V30 BEGIN CTAB
M  V30 COUNTS 15 15 0 0 0
M  V30 BEGIN ATOM
M  V30 1 N -2.85871 -0.348018 0.213169 0
M  V30 2 C -1.4439 -0.257293 0.145671 0
M  V30 3 N -0.626799 -1.22611 0.604146 0
M  V30 4 C 0.700647 -1.15597 0.548087 0
M  V30 5 C 1.30974 -0.0292519 -0.01083 0
M  V30 6 N 2.71371 0.0714609 -0.0830371 0
M  V30 7 C 0.476072 0.970742 -0.484219 0
M  V30 8 O 1.01385 1.98169 -0.985559 0
M  V30 9 N -0.874111 0.835097 -0.395874 0
M  V30 10 H -3.49471 -0.246452 -0.608026 0
M  V30 11 H -3.31537 -0.527486 1.13336 0
M  V30 12 H 1.3666 -1.93065 0.914472 0
M  V30 13 H 3.3202 -0.753213 -0.274352 0
M  V30 14 H 3.18115 0.986921 0.0555812 0
M  V30 15 H -1.46839 1.62854 -0.772586 0
M  V30 END ATOM
M  V30 BEGIN BOND
M  V30 1 1 1 2
M  V30 2 2 2 3
M  V30 3 1 3 4
M  V30 4 2 4 5
M  V30 5 1 5 6
M  V30 6 1 5 7
M  V30 7 2 7 8
M  V30 8 1 7 9
M  V30 9 1 9 2
M  V30 10 1 1 10
M  V30 11 1 1 11
M  V30 12 1 4 12
M  V30 13 1 6 13
M  V30 14 1 6 14
M  V30 15 1 9 15
M  V30 END BOND
M  V30 END CTAB
M  END
