
     RDKit          3D

  0  0  0  0  0  0  0  0  0  0999 V3000
M  V30 BEGIN CTAB
M  V30 COUNTS 25 25 0 0 0
M  V30 BEGIN ATOM
M  V30 1 C 1.37776 -0.531142 1.40604 0
M  V30 2 C 1.11956 -0.106935 -0.00257955 0
M  V30 3 C 2.388 -0.513505 -0.79897 0
M  V30 4 O 2.28832 -1.75416 -1.13182 0
M  V30 5 N 3.37515 0.351094 -1.05338 0
M  V30 6 N 4.35972 1.21335 -1.30716 0
M  V30 7 S -0.221612 -0.873411 -0.792465 0
M  V30 8 C -1.86894 -0.548252 -0.350447 0
M  V30 9 N -2.87085 -1.23271 -1.01447 0
M  V30 10 C -4.15907 -1.02881 -0.744875 0
M  V30 11 C -4.57124 -0.124767 0.211196 0
M  V30 12 N -3.62424 0.545451 0.863048 0
M  V30 13 C -2.28551 0.33906 0.588639 0
M  V30 14 N -1.3293 1.09775 1.30952 0
M  V30 15 H 0.594625 -1.26886 1.75528 0
M  V30 16 H 1.49069 0.310951 2.11665 0
M  V30 17 H 2.3401 -1.11361 1.53042 0
M  V30 18 H 1.16972 1.01611 -0.104635 0
M  V30 19 H 4.1194 -0.595541 -1.70915 0
M  V30 20 H 4.26038 2.13434 -0.793628 0
M  V30 21 H 4.59508 1.44938 -2.29767 0
M  V30 22 H -4.95214 -1.56225 -1.26505 0
M  V30 23 H -5.6079 0.0544897 0.441063 0
M  V30 24 H -1.20224 0.922712 2.31494 0
M  V30 25 H -0.785467 1.81926 0.8295 0
M  V30 END ATOM
M  V30 BEGIN BOND
M  V30 1 1 1 2
M  V30 2 1 2 3
M  V30 3 2 3 4
M  V30 4 1 3 5
M  V30 5 1 5 6
M  V30 6 1 2 7
M  V30 7 1 7 8
M  V30 8 2 8 9
M  V30 9 1 9 10
M  V30 10 2 10 11
M  V30 11 1 11 12
M  V30 12 2 12 13
M  V30 13 1 13 14
M  V30 14 1 13 8
M  V30 15 1 1 15
M  V30 16 1 1 16
M  V30 17 1 1 17
M  V30 18 1 2 18
M  V30 19 1 5 19
M  V30 20 1 6 20
M  V30 21 1 6 21
M  V30 22 1 10 22
M  V30 23 1 11 23
M  V30 24 1 14 24
M  V30 25 1 14 25
M  V30 END BOND
M  V30 END CTAB
M  END
