
     RDKit          3D

  0  0  0  0  0  0  0  0  0  0999 V3000
M  V30 BEGIN CTAB
M  V30 COUNTS 49 50 0 0 0
M  V30 BEGIN ATOM
M  V30 1 N -6.96105 2.83077 -0.613435 0
M  V30 2 C -5.54408 2.83878 -0.643274 0
M  V30 3 N -4.95265 3.97025 -0.74999 0
M  V30 4 C -4.81486 1.58443 -0.553469 0
M  V30 5 C -5.55683 0.400186 -0.439259 0
M  V30 6 C -4.94133 -0.813255 -0.350122 0
M  V30 7 Cl -5.89686 -2.27324 -0.208488 0
M  V30 8 C -3.53517 -0.898061 -0.371525 0
M  V30 9 O -3.00393 -2.15867 -0.279527 0
M  V30 10 C -1.71366 -2.60778 -0.247201 0
M  V30 11 C -0.991717 -2.12615 0.985835 0
M  V30 12 C 0.415303 -2.69182 0.894761 0
M  V30 13 C 1.2535 -2.26492 2.107 0
M  V30 14 C 2.60509 -2.89072 1.88287 0
M  V30 15 O 3.1743 -2.43232 0.716485 0
M  V30 16 C 3.60713 -1.18839 0.409049 0
M  V30 17 C 4.12162 -0.973531 -0.888643 0
M  V30 18 Cl 4.14535 -2.34196 -1.9815 0
M  V30 19 C 4.59221 0.224321 -1.32523 0
M  V30 20 C 4.58959 1.32084 -0.496064 0
M  V30 21 C 4.10184 1.17146 0.777281 0
M  V30 22 C 3.62003 -0.0750022 1.21152 0
M  V30 23 C 5.08964 2.59921 -0.958178 0
M  V30 24 N 5.07337 3.70719 -0.0817007 0
M  V30 25 N 5.54462 2.74504 -2.14097 0
M  V30 26 C -2.82176 0.250542 -0.483095 0
M  V30 27 C -3.44388 1.48635 -0.573518 0
M  V30 28 H -7.4854 3.29925 -1.36563 0
M  V30 29 H -7.46148 2.36081 0.153368 0
M  V30 30 H -3.92529 4.0483 -0.777661 0
M  V30 31 H -6.6512 0.480197 -0.423778 0
M  V30 32 H -1.18197 -2.17584 -1.15647 0
M  V30 33 H -1.62366 -3.7129 -0.367404 0
M  V30 34 H -1.44385 -2.55308 1.91027 0
M  V30 35 H -0.891882 -1.05485 1.10571 0
M  V30 36 H 0.379483 -3.79529 0.926466 0
M  V30 37 H 0.956107 -2.37582 0.00328207 0
M  V30 38 H 1.33286 -1.17858 2.13106 0
M  V30 39 H 0.809462 -2.69093 3.03936 0
M  V30 40 H 3.26876 -2.73272 2.7854 0
M  V30 41 H 2.39719 -4.00931 1.83081 0
M  V30 42 H 4.98978 0.387561 -2.33014 0
M  V30 43 H 4.06019 1.97244 1.4959 0
M  V30 44 H 3.26997 -0.176681 2.23448 0
M  V30 45 H 4.77894 4.63 -0.453332 0
M  V30 46 H 5.34222 3.63492 0.911462 0
M  V30 47 H 5.91525 3.60664 -2.54785 0
M  V30 48 H -1.74058 0.243628 -0.526129 0
M  V30 49 H -2.85073 2.39871 -0.661956 0
M  V30 END ATOM
M  V30 BEGIN BOND
M  V30 1 1 1 2
M  V30 2 2 2 3 CFG=2
M  V30 3 1 2 4
M  V30 4 2 4 5
M  V30 5 1 5 6
M  V30 6 1 6 7
M  V30 7 2 6 8
M  V30 8 1 8 9
M  V30 9 1 9 10
M  V30 10 1 10 11
M  V30 11 1 11 12
M  V30 12 1 12 13
M  V30 13 1 13 14
M  V30 14 1 14 15
M  V30 15 1 15 16
M  V30 16 2 16 17
M  V30 17 1 17 18
M  V30 18 1 17 19
M  V30 19 2 19 20
M  V30 20 1 20 21
M  V30 21 2 21 22
M  V30 22 1 20 23
M  V30 23 1 23 24
M  V30 24 2 23 25 CFG=2
M  V30 25 1 8 26
M  V30 26 2 26 27
M  V30 27 1 27 4
M  V30 28 1 22 16
M  V30 29 1 1 28
M  V30 30 1 1 29
M  V30 31 1 3 30
M  V30 32 1 5 31
M  V30 33 1 10 32
M  V30 34 1 10 33
M  V30 35 1 11 34
M  V30 36 1 11 35
M  V30 37 1 12 36
M  V30 38 1 12 37
M  V30 39 1 13 38
M  V30 40 1 13 39
M  V30 41 1 14 40
M  V30 42 1 14 41
M  V30 43 1 19 42
M  V30 44 1 21 43
M  V30 45 1 22 44
M  V30 46 1 24 45
M  V30 47 1 24 46
M  V30 48 1 25 47
M  V30 49 1 26 48
M  V30 50 1 27 49
M  V30 END BOND
M  V30 END CTAB
M  END
