
     RDKit          3D

  0  0  0  0  0  0  0  0  0  0999 V3000
M  V30 BEGIN CTAB
M  V30 COUNTS 26 26 0 0 0
M  V30 BEGIN ATOM
M  V30 1 N -0.995987 -1.81708 -1.22222 0
M  V30 2 C -1.78962 -0.747435 -0.735642 0
M  V30 3 C -1.08693 0.535999 -0.414005 0
M  V30 4 N -0.0681731 0.445309 0.584615 0
M  V30 5 C 1.21269 -0.133013 0.439695 0
M  V30 6 C 1.83153 -0.359165 -0.767521 0
M  V30 7 C 3.09361 -0.956693 -0.840337 0
M  V30 8 N 3.71562 -1.31649 0.28153 0
M  V30 9 C 3.17092 -1.12444 1.48006 0
M  V30 10 C 1.9187 -0.532496 1.56201 0
M  V30 11 C -2.17364 1.50257 0.0773339 0
M  V30 12 N -1.60574 2.78529 0.41952 0
M  V30 13 H -1.24219 -2.18563 -2.14574 0
M  V30 14 H -1.04612 -2.61622 -0.543052 0
M  V30 15 H -2.41154 -1.01813 0.152102 0
M  V30 16 H -2.5574 -0.531431 -1.5388 0
M  V30 17 H -0.704458 1.006 -1.36647 0
M  V30 18 H -0.257679 0.850083 1.56214 0
M  V30 19 H 1.35506 -0.0649145 -1.67043 0
M  V30 20 H 3.52624 -1.10764 -1.82065 0
M  V30 21 H 3.71142 -1.43251 2.37866 0
M  V30 22 H 1.52905 -0.403311 2.56556 0
M  V30 23 H -2.54519 1.05365 1.0339 0
M  V30 24 H -3.01909 1.55295 -0.610343 0
M  V30 25 H -2.26804 3.30123 1.03165 0
M  V30 26 H -1.29304 3.31352 -0.416273 0
M  V30 END ATOM
M  V30 BEGIN BOND
M  V30 1 1 1 2
M  V30 2 1 2 3
M  V30 3 1 3 4
M  V30 4 1 4 5
M  V30 5 2 5 6
M  V30 6 1 6 7
M  V30 7 2 7 8
M  V30 8 1 8 9
M  V30 9 2 9 10
M  V30 10 1 3 11
M  V30 11 1 11 12
M  V30 12 1 10 5
M  V30 13 1 1 13
M  V30 14 1 1 14
M  V30 15 1 2 15
M  V30 16 1 2 16
M  V30 17 1 3 17
M  V30 18 1 4 18
M  V30 19 1 6 19
M  V30 20 1 7 20
M  V30 21 1 9 21
M  V30 22 1 10 22
M  V30 23 1 11 23
M  V30 24 1 11 24
M  V30 25 1 12 25
M  V30 26 1 12 26
M  V30 END BOND
M  V30 END CTAB
M  END
