
     RDKit          3D

  0  0  0  0  0  0  0  0  0  0999 V3000
M  V30 BEGIN CTAB
M  V30 COUNTS 34 35 0 0 0
M  V30 BEGIN ATOM
M  V30 1 N -0.422078 3.79769 0.550793 0
M  V30 2 C -0.152471 2.40177 0.719898 0
M  V30 3 C -0.692284 1.6976 -0.470244 0
M  V30 4 C -0.494908 0.203049 -0.461504 0 CFG=1
M  V30 5 C 0.913798 -0.182024 -0.40687 0
M  V30 6 C 1.79121 0.371043 -1.31504 0
M  V30 7 C 3.11968 0.0163286 -1.25904 0
M  V30 8 C 3.63781 -0.868907 -0.340619 0
M  V30 9 C 2.74863 -1.42906 0.579037 0
M  V30 10 C 1.42839 -1.0677 0.512536 0
M  V30 11 C 0.512732 -1.71622 1.52768 0
M  V30 12 C -0.884832 -1.72167 0.944943 0
M  V30 13 N -1.3383 -0.44667 0.498361 0
M  V30 14 S -2.946 -0.714549 -0.108889 0
M  V30 15 O -3.66492 0.535002 -0.446659 0
M  V30 16 O -3.65816 -1.49807 0.979276 0
M  V30 17 N -2.94041 -1.73699 -1.49163 0
M  V30 18 H -1.29296 4.02005 0.125971 0
M  V30 19 H 0.00918206 4.42872 1.16856 0
M  V30 20 H -0.656227 2.1113 1.66724 0
M  V30 21 H 0.947378 2.32386 0.836001 0
M  V30 22 H -0.157419 2.11807 -1.37028 0
M  V30 23 H -1.74502 1.9847 -0.605003 0
M  V30 24 H -0.870526 -0.143641 -1.47298 0
M  V30 25 H 1.50322 1.07642 -2.08162 0
M  V30 26 H 3.83356 0.449221 -1.9774 0
M  V30 27 H 4.67175 -1.15239 -0.287946 0
M  V30 28 H 3.13848 -2.13185 1.31415 0
M  V30 29 H 0.568599 -1.22842 2.50273 0
M  V30 30 H 0.828477 -2.77149 1.64903 0
M  V30 31 H -1.0184 -2.51521 0.189719 0
M  V30 32 H -1.55993 -2.01981 1.80021 0
M  V30 33 H -2.25984 -1.44373 -2.21287 0
M  V30 34 H -2.89822 -2.74643 -1.25752 0
M  V30 END ATOM
M  V30 BEGIN BOND
M  V30 1 1 1 2
M  V30 2 1 2 3
M  V30 3 1 3 4
M  V30 4 1 4 5
M  V30 5 2 5 6
M  V30 6 1 6 7
M  V30 7 2 7 8
M  V30 8 1 8 9
M  V30 9 2 9 10
M  V30 10 1 10 11
M  V30 11 1 11 12
M  V30 12 1 12 13
M  V30 13 1 13 14
M  V30 14 2 14 15
M  V30 15 2 14 16
M  V30 16 1 14 17
M  V30 17 1 13 4
M  V30 18 1 10 5
M  V30 19 1 1 18
M  V30 20 1 1 19
M  V30 21 1 2 20
M  V30 22 1 2 21
M  V30 23 1 3 22
M  V30 24 1 3 23
M  V30 25 1 4 24 CFG=3
M  V30 26 1 6 25
M  V30 27 1 7 26
M  V30 28 1 8 27
M  V30 29 1 9 28
M  V30 30 1 11 29
M  V30 31 1 11 30
M  V30 32 1 12 31
M  V30 33 1 12 32
M  V30 34 1 17 33
M  V30 35 1 17 34
M  V30 END BOND
M  V30 END CTAB
M  END
