
     RDKit          3D

  0  0  0  0  0  0  0  0  0  0999 V3000
M  V30 BEGIN CTAB
M  V30 COUNTS 22 23 0 0 0
M  V30 BEGIN ATOM
M  V30 1 N -1.13564 -2.19123 -0.284278 0
M  V30 2 C 0.028694 -1.37942 -0.164942 0
M  V30 3 C 1.25694 -2.04251 -0.218997 0
M  V30 4 C 2.40242 -1.28197 -0.106088 0
M  V30 5 C 2.32121 0.0862273 0.0543407 0
M  V30 6 Br 3.9155 1.12043 0.208618 0
M  V30 7 C 1.0862 0.711946 0.103836 0
M  V30 8 C 0.962129 2.07662 0.262998 0
M  V30 9 C -0.265364 2.70668 0.313155 0
M  V30 10 C -1.41352 1.94674 0.200257 0
M  V30 11 C -1.32907 0.586042 0.0407796 0
M  V30 12 N -2.49226 -0.223549 -0.0782888 0
M  V30 13 C -0.0913727 -0.030752 -0.00760058 0
M  V30 14 H -1.55565 -2.41772 -1.18952 0
M  V30 15 H -1.54397 -2.54789 0.607215 0
M  V30 16 H 1.28151 -3.1201 -0.346152 0
M  V30 17 H 3.3444 -1.81189 -0.150082 0
M  V30 18 H 1.86303 2.68857 0.353441 0
M  V30 19 H -0.342476 3.79602 0.440657 0
M  V30 20 H -2.40091 2.4043 0.234779 0
M  V30 21 H -2.98803 -0.636608 0.745472 0
M  V30 22 H -2.90376 -0.439941 -1.0196 0
M  V30 END ATOM
M  V30 BEGIN BOND
M  V30 1 1 1 2
M  V30 2 2 2 3
M  V30 3 1 3 4
M  V30 4 2 4 5
M  V30 5 1 5 6
M  V30 6 1 5 7
M  V30 7 2 7 8
M  V30 8 1 8 9
M  V30 9 2 9 10
M  V30 10 1 10 11
M  V30 11 1 11 12
M  V30 12 2 11 13
M  V30 13 1 13 2
M  V30 14 1 13 7
M  V30 15 1 1 14
M  V30 16 1 1 15
M  V30 17 1 3 16
M  V30 18 1 4 17
M  V30 19 1 8 18
M  V30 20 1 9 19
M  V30 21 1 10 20
M  V30 22 1 12 21
M  V30 23 1 12 22
M  V30 END BOND
M  V30 END CTAB
M  END
