
     RDKit          3D

  0  0  0  0  0  0  0  0  0  0999 V3000
M  V30 BEGIN CTAB
M  V30 COUNTS 26 26 0 0 0
M  V30 BEGIN ATOM
M  V30 1 C -0.961091 -1.08357 1.62306 0
M  V30 2 C -1.37972 -0.45553 0.316406 0 CFG=2
M  V30 3 C -0.462348 -0.785753 -0.815721 0 CFG=1
M  V30 4 C 0.930328 -0.351606 -0.620892 0
M  V30 5 N 1.50408 0.485697 0.227553 0
M  V30 6 C 2.81047 0.511767 -0.0342735 0
M  V30 7 N 3.01519 -0.317325 -1.0473 0
M  V30 8 O 1.89286 -0.821228 -1.38409 0
M  V30 9 N 3.85553 1.25049 0.593731 0
M  V30 10 N -0.460954 -2.22633 -0.983187 0
M  V30 11 C -1.6071 1.02339 0.501097 0
M  V30 12 C -2.02942 1.69302 -0.78876 0
M  V30 13 H 0.00457002 -1.62479 1.54661 0
M  V30 14 H -1.70546 -1.8171 2.00042 0
M  V30 15 H -0.888094 -0.304408 2.43393 0
M  V30 16 H -2.37249 -0.883684 0.0519364 0
M  V30 17 H -0.895742 -0.3494 -1.73884 0
M  V30 18 H 4.37847 2.0164 0.108981 0
M  V30 19 H 4.12354 1.03554 1.5702 0
M  V30 20 H 0.215616 -2.70161 -0.345375 0
M  V30 21 H -0.293075 -2.5005 -1.96254 0
M  V30 22 H -0.759594 1.56523 0.899652 0
M  V30 23 H -2.45656 1.13059 1.21623 0
M  V30 24 H -2.82659 2.46244 -0.604391 0
M  V30 25 H -1.16106 2.13834 -1.3318 0
M  V30 26 H -2.47137 0.909934 -1.43265 0
M  V30 END ATOM
M  V30 BEGIN BOND
M  V30 1 1 1 2
M  V30 2 1 2 3
M  V30 3 1 3 4
M  V30 4 2 4 5
M  V30 5 1 5 6
M  V30 6 2 6 7
M  V30 7 1 7 8
M  V30 8 1 6 9
M  V30 9 1 3 10
M  V30 10 1 2 11
M  V30 11 1 11 12
M  V30 12 1 8 4
M  V30 13 1 1 13
M  V30 14 1 1 14
M  V30 15 1 1 15
M  V30 16 1 2 16 CFG=3
M  V30 17 1 3 17 CFG=3
M  V30 18 1 9 18
M  V30 19 1 9 19
M  V30 20 1 10 20
M  V30 21 1 10 21
M  V30 22 1 11 22
M  V30 23 1 11 23
M  V30 24 1 12 24
M  V30 25 1 12 25
M  V30 26 1 12 26
M  V30 END BOND
M  V30 END CTAB
M  END
