
     RDKit          3D

  0  0  0  0  0  0  0  0  0  0999 V3000
M  V30 BEGIN CTAB
M  V30 COUNTS 33 34 0 0 0
M  V30 BEGIN ATOM
M  V30 1 F -4.369 -0.684903 1.54942 0
M  V30 2 C -3.94401 -0.361432 0.2632 0
M  V30 3 F -5.01322 -0.370699 -0.607552 0
M  V30 4 C -3.31813 1.02492 0.37626 0
M  V30 5 C -2.00938 0.821263 1.10964 0
M  V30 6 C -1.02748 0.30466 0.0612583 0
M  V30 7 C -1.72994 -0.649103 -0.871256 0
M  V30 8 C -2.87589 -1.3456 -0.126273 0
M  V30 9 C -0.510137 1.54388 -0.647167 0
M  V30 10 S 0.663096 1.04508 -1.90904 0
M  V30 11 C 2.0836 0.341604 -1.03604 0
M  V30 12 N 3.0905 1.14269 -0.666453 0
M  V30 13 C 4.17591 0.694816 -0.0162478 0
M  V30 14 N 5.19511 1.61924 0.338225 0
M  V30 15 N 4.22526 -0.617779 0.260876 0
M  V30 16 C 3.21002 -1.45104 -0.107156 0
M  V30 17 N 2.13851 -0.966101 -0.757049 0
M  V30 18 N 3.34017 -2.81843 0.222895 0
M  V30 19 H -3.99783 1.71028 0.932638 0
M  V30 20 H -3.15206 1.40229 -0.653884 0
M  V30 21 H -1.61467 1.77459 1.54131 0
M  V30 22 H -2.10588 0.0657477 1.91272 0
M  V30 23 H -0.199277 -0.235565 0.569249 0
M  V30 24 H -2.07974 -0.179214 -1.80555 0
M  V30 25 H -1.04247 -1.4853 -1.16773 0
M  V30 26 H -2.38997 -1.80433 0.770361 0
M  V30 27 H -3.31353 -2.11524 -0.753653 0
M  V30 28 H -1.30732 2.15368 -1.07231 0
M  V30 29 H -0.0110162 2.15355 0.140705 0
M  V30 30 H 5.21159 2.01067 1.32573 0
M  V30 31 H 5.90362 1.9026 -0.352162 0
M  V30 32 H 3.46482 -3.51982 -0.513353 0
M  V30 33 H 3.30873 -3.10698 1.21403 0
M  V30 END ATOM
M  V30 BEGIN BOND
M  V30 1 1 1 2
M  V30 2 1 2 3
M  V30 3 1 2 4
M  V30 4 1 4 5
M  V30 5 1 5 6
M  V30 6 1 6 7
M  V30 7 1 7 8
M  V30 8 1 6 9
M  V30 9 1 9 10
M  V30 10 1 10 11
M  V30 11 2 11 12
M  V30 12 1 12 13
M  V30 13 1 13 14
M  V30 14 2 13 15
M  V30 15 1 15 16
M  V30 16 2 16 17
M  V30 17 1 16 18
M  V30 18 1 8 2
M  V30 19 1 17 11
M  V30 20 1 4 19
M  V30 21 1 4 20
M  V30 22 1 5 21
M  V30 23 1 5 22
M  V30 24 1 6 23
M  V30 25 1 7 24
M  V30 26 1 7 25
M  V30 27 1 8 26
M  V30 28 1 8 27
M  V30 29 1 9 28
M  V30 30 1 9 29
M  V30 31 1 14 30
M  V30 32 1 14 31
M  V30 33 1 18 32
M  V30 34 1 18 33
M  V30 END BOND
M  V30 END CTAB
M  END
