
     RDKit          3D

  0  0  0  0  0  0  0  0  0  0999 V3000
M  V30 BEGIN CTAB
M  V30 COUNTS 32 32 0 0 0
M  V30 BEGIN ATOM
M  V30 1 N 4.24253 0.763349 1.35211 0
M  V30 2 C 3.96694 -0.583687 0.882536 0
M  V30 3 C 4.02771 -0.567115 -0.627343 0
M  V30 4 C 2.99758 0.398538 -1.14574 0
M  V30 5 N 1.67415 -0.0496495 -0.712396 0
M  V30 6 C 0.565223 0.725062 -1.09132 0
M  V30 7 O 0.738321 1.75895 -1.77817 0
M  V30 8 C -0.78017 0.341063 -0.696234 0
M  V30 9 C -1.00028 -0.721408 0.147028 0
M  V30 10 C -2.33164 -1.0142 0.466922 0
M  V30 11 C -3.38515 -0.288461 -0.0260771 0
M  V30 12 C -3.15905 0.771325 -0.867569 0
M  V30 13 C -1.87242 1.07535 -1.19319 0
M  V30 14 S -5.01172 -0.715656 0.418931 0
M  V30 15 O -5.93358 -0.338668 -0.688524 0
M  V30 16 O -5.09375 -2.19302 0.685175 0
M  V30 17 N -5.39213 0.187211 1.8662 0
M  V30 18 H 4.76526 1.33014 0.653124 0
M  V30 19 H 4.74067 0.750566 2.29085 0
M  V30 20 H 3.01786 -0.998969 1.2482 0
M  V30 21 H 4.79652 -1.22168 1.30164 0
M  V30 22 H 3.83868 -1.57582 -1.05241 0
M  V30 23 H 5.01615 -0.20192 -0.982171 0
M  V30 24 H 3.19375 1.38509 -0.646421 0
M  V30 25 H 3.06523 0.476671 -2.23925 0
M  V30 26 H 1.57673 -0.911351 -0.151349 0
M  V30 27 H -0.204633 -1.32114 0.561648 0
M  V30 28 H -2.49461 -1.85484 1.13327 0
M  V30 29 H -3.98322 1.37325 -1.27985 0
M  V30 30 H -1.68071 1.91207 -1.85848 0
M  V30 31 H -4.52856 0.104929 2.4777 0
M  V30 32 H -5.37171 1.20401 1.55118 0
M  V30 END ATOM
M  V30 BEGIN BOND
M  V30 1 1 1 2
M  V30 2 1 2 3
M  V30 3 1 3 4
M  V30 4 1 4 5
M  V30 5 1 5 6
M  V30 6 2 6 7
M  V30 7 1 6 8
M  V30 8 2 8 9
M  V30 9 1 9 10
M  V30 10 2 10 11
M  V30 11 1 11 12
M  V30 12 2 12 13
M  V30 13 1 11 14
M  V30 14 2 14 15
M  V30 15 2 14 16
M  V30 16 1 14 17
M  V30 17 1 13 8
M  V30 18 1 1 18
M  V30 19 1 1 19
M  V30 20 1 2 20
M  V30 21 1 2 21
M  V30 22 1 3 22
M  V30 23 1 3 23
M  V30 24 1 4 24
M  V30 25 1 4 25
M  V30 26 1 5 26
M  V30 27 1 9 27
M  V30 28 1 10 28
M  V30 29 1 12 29
M  V30 30 1 13 30
M  V30 31 1 17 31
M  V30 32 1 17 32
M  V30 END BOND
M  V30 END CTAB
M  END
