
     RDKit          3D

  0  0  0  0  0  0  0  0  0  0999 V3000
M  V30 BEGIN CTAB
M  V30 COUNTS 54 55 0 0 0
M  V30 BEGIN ATOM
M  V30 1 C 7.57933 -0.0770908 2.01677 0
M  V30 2 C 6.69178 -0.405627 0.822491 0
M  V30 3 N 7.23812 -0.986955 -0.112205 0
M  V30 4 N 6.93424 -1.47056 -1.31453 0
M  V30 5 C 7.37133 -0.747763 -2.48214 0
M  V30 6 N 7.41512 0.652997 -2.44608 0
M  V30 7 N 7.70817 -1.41028 -3.5218 0
M  V30 8 C 5.30849 -0.0172348 0.915017 0
M  V30 9 C 4.81026 0.672782 2.02096 0
M  V30 10 C 3.50524 1.05816 2.16675 0
M  V30 11 C 2.56011 0.762327 1.16034 0
M  V30 12 N 1.22579 1.20741 1.33842 0
M  V30 13 C 0.121708 0.441734 0.819882 0
M  V30 14 O 0.376227 -0.62662 0.222463 0
M  V30 15 N -1.15779 0.962798 1.03117 0
M  V30 16 C -2.36158 0.390988 0.623313 0
M  V30 17 C -2.51546 -0.813607 -0.010856 0
M  V30 18 C -3.75838 -1.31704 -0.380845 0
M  V30 19 C -4.93256 -0.636441 -0.134323 0
M  V30 20 C -4.80187 0.570047 0.498166 0
M  V30 21 C -3.57308 1.06446 0.862149 0
M  V30 22 C -6.19675 -1.24292 -0.548923 0
M  V30 23 C -6.11941 -2.60327 -1.24601 0
M  V30 24 N -7.30508 -0.758809 -0.389317 0
M  V30 25 N -7.87215 0.330816 0.124804 0
M  V30 26 C -8.45599 1.31285 -0.70392 0
M  V30 27 N -8.96011 2.49715 -0.125064 0
M  V30 28 N -8.52648 1.12465 -1.96709 0
M  V30 29 C 3.04029 0.0892374 0.0765252 0
M  V30 30 C 4.38894 -0.301184 -0.0577843 0
M  V30 31 H 7.47657 1.01941 2.15138 0
M  V30 32 H 8.60534 -0.410062 1.86894 0
M  V30 33 H 7.06863 -0.597015 2.8675 0
M  V30 34 H 6.38965 -2.35666 -1.52813 0
M  V30 35 H 6.84711 1.16948 -1.74184 0
M  V30 36 H 8.01586 1.17989 -3.12349 0
M  V30 37 H 7.67081 -2.4527 -3.53394 0
M  V30 38 H 5.55944 0.895948 2.79692 0
M  V30 39 H 3.14644 1.59265 3.0367 0
M  V30 40 H 1.02403 2.11364 1.85695 0
M  V30 41 H -1.22204 1.88816 1.55669 0
M  V30 42 H -1.66006 -1.41619 -0.242916 0
M  V30 43 H -3.82247 -2.27981 -0.881859 0
M  V30 44 H -5.66885 1.15314 0.719854 0
M  V30 45 H -3.49364 2.02386 1.36248 0
M  V30 46 H -7.14636 -2.96415 -1.37907 0
M  V30 47 H -5.56577 -3.29797 -0.573389 0
M  V30 48 H -5.60357 -2.51434 -2.20862 0
M  V30 49 H -7.89125 0.462265 1.18282 0
M  V30 50 H -8.73628 3.42297 -0.510977 0
M  V30 51 H -9.57869 2.36533 0.727711 0
M  V30 52 H -8.16049 0.256607 -2.41002 0
M  V30 53 H 2.37602 -0.149031 -0.744045 0
M  V30 54 H 4.63112 -0.828433 -0.960589 0
M  V30 END ATOM
M  V30 BEGIN BOND
M  V30 1 1 1 2
M  V30 2 2 2 3 CFG=2
M  V30 3 1 3 4
M  V30 4 1 4 5
M  V30 5 1 5 6
M  V30 6 2 5 7 CFG=2
M  V30 7 1 2 8
M  V30 8 2 8 9
M  V30 9 1 9 10
M  V30 10 2 10 11
M  V30 11 1 11 12
M  V30 12 1 12 13
M  V30 13 2 13 14
M  V30 14 1 13 15
M  V30 15 1 15 16
M  V30 16 2 16 17
M  V30 17 1 17 18
M  V30 18 2 18 19
M  V30 19 1 19 20
M  V30 20 2 20 21
M  V30 21 1 19 22
M  V30 22 1 22 23
M  V30 23 2 22 24 CFG=2
M  V30 24 1 24 25
M  V30 25 1 25 26
M  V30 26 1 26 27
M  V30 27 2 26 28 CFG=2
M  V30 28 1 11 29
M  V30 29 2 29 30
M  V30 30 1 30 8
M  V30 31 1 21 16
M  V30 32 1 1 31
M  V30 33 1 1 32
M  V30 34 1 1 33
M  V30 35 1 4 34
M  V30 36 1 6 35
M  V30 37 1 6 36
M  V30 38 1 7 37
M  V30 39 1 9 38
M  V30 40 1 10 39
M  V30 41 1 12 40
M  V30 42 1 15 41
M  V30 43 1 17 42
M  V30 44 1 18 43
M  V30 45 1 20 44
M  V30 46 1 21 45
M  V30 47 1 23 46
M  V30 48 1 23 47
M  V30 49 1 23 48
M  V30 50 1 25 49
M  V30 51 1 27 50
M  V30 52 1 27 51
M  V30 53 1 28 52
M  V30 54 1 29 53
M  V30 55 1 30 54
M  V30 END BOND
M  V30 END CTAB
M  END
