
     RDKit          3D

  0  0  0  0  0  0  0  0  0  0999 V3000
M  V30 BEGIN CTAB
M  V30 COUNTS 53 54 0 0 0
M  V30 BEGIN ATOM
M  V30 1 C -1.59816 -4.22249 -2.34942 0
M  V30 2 O -0.629574 -3.21541 -2.48152 0
M  V30 3 C -0.697135 -2.10828 -1.66612 0
M  V30 4 C -1.67863 -1.96141 -0.73334 0
M  V30 5 C -1.77164 -0.867902 0.0927001 0
M  V30 6 C -2.82287 -0.674791 1.10218 0
M  V30 7 C -3.90197 0.247449 0.726235 0
M  V30 8 C -4.95063 -0.0318337 -0.11953 0
M  V30 9 N -5.04101 -1.33756 -0.696746 0
M  V30 10 N -5.88302 0.910106 -0.393891 0
M  V30 11 C -5.85415 2.15089 0.124812 0
M  V30 12 N -6.85917 3.11987 -0.18899 0
M  V30 13 N -4.83205 2.4312 0.952719 0
M  V30 14 C -3.87585 1.5438 1.26548 0
M  V30 15 C -0.789566 0.122982 -0.0622893 0
M  V30 16 C 0.226273 0.0451689 -0.97478 0
M  V30 17 O 1.20267 0.961035 -1.17897 0
M  V30 18 C 1.441 2.14139 -0.539961 0
M  V30 19 C 1.79905 2.02829 0.897434 0
M  V30 20 C 3.05488 1.18765 1.07712 0
M  V30 21 C 4.22925 1.7808 0.367029 0
M  V30 22 C 5.4614 0.938102 0.595777 0
M  V30 23 C 5.27842 -0.44871 0.0922151 0
M  V30 24 C 6.51549 -1.22938 0.330979 0
M  V30 25 O 6.5587 -2.55109 -0.0639801 0
M  V30 26 O 7.48596 -0.68527 0.878676 0
M  V30 27 C 0.235076 -1.117 -1.77778 0
M  V30 28 Br 1.61931 -1.29287 -3.07249 0
M  V30 29 H -1.57706 -4.92838 -3.23007 0
M  V30 30 H -2.64346 -3.82533 -2.34735 0
M  V30 31 H -1.48671 -4.83559 -1.44672 0
M  V30 32 H -2.40249 -2.74009 -0.637888 0
M  V30 33 H -2.35676 -0.336983 2.05491 0
M  V30 34 H -3.26244 -1.69509 1.29472 0
M  V30 35 H -5.11291 -1.41253 -1.72546 0
M  V30 36 H -5.03467 -2.18425 -0.102231 0
M  V30 37 H -7.85233 2.88995 -0.392764 0
M  V30 38 H -6.57279 4.11264 -0.21308 0
M  V30 39 H -3.05187 1.78795 1.94062 0
M  V30 40 H -0.886192 0.976918 0.567484 0
M  V30 41 H 0.547484 2.86374 -0.61807 0
M  V30 42 H 2.23163 2.73167 -1.08483 0
M  V30 43 H 2.01222 3.07415 1.27113 0
M  V30 44 H 1.0257 1.60943 1.51448 0
M  V30 45 H 2.79798 0.176497 0.739261 0
M  V30 46 H 3.2262 1.12331 2.17211 0
M  V30 47 H 3.99059 1.84976 -0.727685 0
M  V30 48 H 4.48108 2.80005 0.752639 0
M  V30 49 H 5.60548 0.903014 1.7088 0
M  V30 50 H 6.30039 1.472 0.104172 0
M  V30 51 H 5.00658 -0.445521 -0.989834 0
M  V30 52 H 4.43048 -0.961323 0.602251 0
M  V30 53 H 6.66185 -2.87074 -1.01493 0
M  V30 END ATOM
M  V30 BEGIN BOND
M  V30 1 1 1 2
M  V30 2 1 2 3
M  V30 3 2 3 4
M  V30 4 1 4 5
M  V30 5 1 5 6
M  V30 6 1 6 7
M  V30 7 2 7 8
M  V30 8 1 8 9
M  V30 9 1 8 10
M  V30 10 2 10 11
M  V30 11 1 11 12
M  V30 12 1 11 13
M  V30 13 2 13 14
M  V30 14 2 5 15
M  V30 15 1 15 16
M  V30 16 1 16 17
M  V30 17 1 17 18
M  V30 18 1 18 19
M  V30 19 1 19 20
M  V30 20 1 20 21
M  V30 21 1 21 22
M  V30 22 1 22 23
M  V30 23 1 23 24
M  V30 24 1 24 25
M  V30 25 2 24 26
M  V30 26 2 16 27
M  V30 27 1 27 28
M  V30 28 1 27 3
M  V30 29 1 14 7
M  V30 30 1 1 29
M  V30 31 1 1 30
M  V30 32 1 1 31
M  V30 33 1 4 32
M  V30 34 1 6 33
M  V30 35 1 6 34
M  V30 36 1 9 35
M  V30 37 1 9 36
M  V30 38 1 12 37
M  V30 39 1 12 38
M  V30 40 1 14 39
M  V30 41 1 15 40
M  V30 42 1 18 41
M  V30 43 1 18 42
M  V30 44 1 19 43
M  V30 45 1 19 44
M  V30 46 1 20 45
M  V30 47 1 20 46
M  V30 48 1 21 47
M  V30 49 1 21 48
M  V30 50 1 22 49
M  V30 51 1 22 50
M  V30 52 1 23 51
M  V30 53 1 23 52
M  V30 54 1 25 53
M  V30 END BOND
M  V30 END CTAB
M  END
