
     RDKit          3D

  0  0  0  0  0  0  0  0  0  0999 V3000
M  V30 BEGIN CTAB
M  V30 COUNTS 43 44 0 0 0
M  V30 BEGIN ATOM
M  V30 1 C -4.37779 0.10124 -1.72091 0
M  V30 2 C -4.19509 0.341666 -0.253437 0
M  V30 3 C -5.06089 -0.623658 0.541738 0
M  V30 4 C -4.72108 1.74711 0.0489524 0
M  V30 5 O -2.87966 0.299025 0.186814 0
M  V30 6 C -2.03 -0.78639 0.0864517 0
M  V30 7 O -2.51159 -1.81367 -0.454141 0
M  V30 8 N -0.71776 -0.68331 0.578713 0
M  V30 9 C 0.169743 -1.81435 0.474698 0
M  V30 10 C 1.54896 -1.49518 1.03775 0
M  V30 11 N 1.97939 -0.164671 0.690011 0
M  V30 12 C 1.09152 0.966111 0.73048 0
M  V30 13 C -0.266592 0.541885 1.18114 0
M  V30 14 C 3.32851 0.116323 0.278992 0
M  V30 15 C 3.7946 -0.506453 -0.849319 0
M  V30 16 N 2.99209 -1.38968 -1.59104 0
M  V30 17 C 5.10405 -0.233169 -1.24472 0
M  V30 18 Cl 5.75091 -1.00001 -2.67688 0
M  V30 19 N 5.81999 0.614156 -0.503809 0
M  V30 20 C 5.36082 1.22577 0.605027 0
M  V30 21 N 6.18057 2.12407 1.35478 0
M  V30 22 N 4.09333 0.957937 0.983291 0
M  V30 23 H -4.36075 -0.976003 -1.99078 0
M  V30 24 H -5.4059 0.456733 -1.99276 0
M  V30 25 H -3.67964 0.708242 -2.30315 0
M  V30 26 H -5.44974 -1.41251 -0.154407 0
M  V30 27 H -4.50344 -1.07094 1.38837 0
M  V30 28 H -5.94642 -0.130467 0.970347 0
M  V30 29 H -4.29612 2.4757 -0.683636 0
M  V30 30 H -4.27862 2.01887 1.03582 0
M  V30 31 H -5.8126 1.78159 0.0736 0
M  V30 32 H -0.21019 -2.68049 1.09076 0
M  V30 33 H 0.239615 -2.19473 -0.557202 0
M  V30 34 H 1.40556 -1.48756 2.15773 0
M  V30 35 H 2.24588 -2.27295 0.722583 0
M  V30 36 H 0.974559 1.41046 -0.295745 0
M  V30 37 H 1.48927 1.71863 1.44159 0
M  V30 38 H -0.232588 0.348962 2.29202 0
M  V30 39 H -1.01981 1.35001 1.06111 0
M  V30 40 H 2.19272 -1.06946 -2.20234 0
M  V30 41 H 3.20583 -2.42093 -1.52809 0
M  V30 42 H 6.9008 2.66372 0.835655 0
M  V30 43 H 6.08753 2.25837 2.38465 0
M  V30 END ATOM
M  V30 BEGIN BOND
M  V30 1 1 1 2
M  V30 2 1 2 3
M  V30 3 1 2 4
M  V30 4 1 2 5
M  V30 5 1 5 6
M  V30 6 2 6 7
M  V30 7 1 6 8
M  V30 8 1 8 9
M  V30 9 1 9 10
M  V30 10 1 10 11
M  V30 11 1 11 12
M  V30 12 1 12 13
M  V30 13 1 11 14
M  V30 14 2 14 15
M  V30 15 1 15 16
M  V30 16 1 15 17
M  V30 17 1 17 18
M  V30 18 2 17 19
M  V30 19 1 19 20
M  V30 20 1 20 21
M  V30 21 2 20 22
M  V30 22 1 13 8
M  V30 23 1 22 14
M  V30 24 1 1 23
M  V30 25 1 1 24
M  V30 26 1 1 25
M  V30 27 1 3 26
M  V30 28 1 3 27
M  V30 29 1 3 28
M  V30 30 1 4 29
M  V30 31 1 4 30
M  V30 32 1 4 31
M  V30 33 1 9 32
M  V30 34 1 9 33
M  V30 35 1 10 34
M  V30 36 1 10 35
M  V30 37 1 12 36
M  V30 38 1 12 37
M  V30 39 1 13 38
M  V30 40 1 13 39
M  V30 41 1 16 40
M  V30 42 1 16 41
M  V30 43 1 21 42
M  V30 44 1 21 43
M  V30 END BOND
M  V30 END CTAB
M  END
