
     RDKit          3D

  0  0  0  0  0  0  0  0  0  0999 V3000
M  V30 BEGIN CTAB
M  V30 COUNTS 53 55 0 0 0
M  V30 BEGIN ATOM
M  V30 1 C 8.45607 0.58389 -1.66593 0
M  V30 2 C 7.49601 -0.196444 -2.56024 0
M  V30 3 O 6.42203 -0.722513 -1.80288 0
M  V30 4 C 5.52375 0.0322096 -1.08608 0
M  V30 5 O 5.64561 1.27919 -1.09181 0
M  V30 6 C 4.42767 -0.558718 -0.31363 0
M  V30 7 S 3.23514 0.238098 0.61355 0
M  V30 8 C 2.38102 -1.13213 1.17347 0
M  V30 9 N 3.05508 -2.12443 0.619632 0
M  V30 10 C 4.08084 -1.87726 -0.127643 0
M  V30 11 C 4.88998 -2.98406 -0.786535 0
M  V30 12 N 1.22346 -1.16856 2.03036 0
M  V30 13 C 0.701898 0.0621166 2.46709 0
M  V30 14 O 1.2282 1.13197 2.10942 0
M  V30 15 C -0.474625 0.0826019 3.35277 0
M  V30 16 S -0.918398 1.80295 3.68596 0
M  V30 17 C -1.48433 2.50312 2.1497 0
M  V30 18 N -0.822842 3.12312 1.16495 0
M  V30 19 N -1.63978 3.4741 0.218443 0
M  V30 20 C -2.90939 3.07754 0.57131 0
M  V30 21 N -2.7841 2.4922 1.74854 0
M  V30 22 C -3.8772 1.94653 2.53032 0
M  V30 23 C -4.04991 3.37413 -0.300708 0
M  V30 24 S -4.28667 2.37785 -1.7253 0
M  V30 25 C -4.75788 0.714248 -1.54948 0
M  V30 26 N -4.9057 -0.00915663 -2.69701 0
M  V30 27 C -5.27409 -1.28745 -2.6886 0
M  V30 28 N -5.42776 -2.04115 -3.89107 0
M  V30 29 C -5.52216 -1.93395 -1.51146 0
M  V30 30 C -5.37914 -1.22021 -0.327488 0
M  V30 31 N -4.99793 0.0881543 -0.412578 0
M  V30 32 N -5.61415 -1.79635 0.939328 0
M  V30 33 H 9.51079 0.344897 -1.9347 0
M  V30 34 H 8.22452 1.66726 -1.71673 0
M  V30 35 H 8.31791 0.27889 -0.603129 0
M  V30 36 H 7.19964 0.423461 -3.40569 0
M  V30 37 H 8.05028 -1.07998 -2.97239 0
M  V30 38 H 4.39332 -3.95304 -0.72773 0
M  V30 39 H 5.87295 -3.01675 -0.280345 0
M  V30 40 H 5.01701 -2.7349 -1.87891 0
M  V30 41 H 0.801007 -2.05579 2.31439 0
M  V30 42 H -0.201863 -0.469095 4.28157 0
M  V30 43 H -1.31013 -0.489311 2.89596 0
M  V30 44 H -4.83386 2.47509 2.36484 0
M  V30 45 H -3.62038 2.15258 3.60046 0
M  V30 46 H -3.94591 0.847246 2.44156 0
M  V30 47 H -5.01191 3.46138 0.312868 0
M  V30 48 H -3.92134 4.44972 -0.645848 0
M  V30 49 H -4.92959 -2.93652 -3.9952 0
M  V30 50 H -6.03272 -1.70281 -4.66285 0
M  V30 51 H -5.82502 -2.97616 -1.45695 0
M  V30 52 H -6.54272 -1.72226 1.38237 0
M  V30 53 H -4.85269 -2.29557 1.42663 0
M  V30 END ATOM
M  V30 BEGIN BOND
M  V30 1 1 1 2
M  V30 2 1 2 3
M  V30 3 1 3 4
M  V30 4 2 4 5
M  V30 5 1 4 6
M  V30 6 1 6 7
M  V30 7 1 7 8
M  V30 8 2 8 9
M  V30 9 1 9 10
M  V30 10 1 10 11
M  V30 11 1 8 12
M  V30 12 1 12 13
M  V30 13 2 13 14
M  V30 14 1 13 15
M  V30 15 1 15 16
M  V30 16 1 16 17
M  V30 17 2 17 18
M  V30 18 1 18 19
M  V30 19 2 19 20
M  V30 20 1 20 21
M  V30 21 1 21 22
M  V30 22 1 20 23
M  V30 23 1 23 24
M  V30 24 1 24 25
M  V30 25 2 25 26
M  V30 26 1 26 27
M  V30 27 1 27 28
M  V30 28 2 27 29
M  V30 29 1 29 30
M  V30 30 2 30 31
M  V30 31 1 30 32
M  V30 32 2 10 6
M  V30 33 1 21 17
M  V30 34 1 31 25
M  V30 35 1 1 33
M  V30 36 1 1 34
M  V30 37 1 1 35
M  V30 38 1 2 36
M  V30 39 1 2 37
M  V30 40 1 11 38
M  V30 41 1 11 39
M  V30 42 1 11 40
M  V30 43 1 12 41
M  V30 44 1 15 42
M  V30 45 1 15 43
M  V30 46 1 22 44
M  V30 47 1 22 45
M  V30 48 1 22 46
M  V30 49 1 23 47
M  V30 50 1 23 48
M  V30 51 1 28 49
M  V30 52 1 28 50
M  V30 53 1 29 51
M  V30 54 1 32 52
M  V30 55 1 32 53
M  V30 END BOND
M  V30 END CTAB
M  END
