
     RDKit          3D

  0  0  0  0  0  0  0  0  0  0999 V3000
M  V30 BEGIN CTAB
M  V30 COUNTS 30 31 0 0 0
M  V30 BEGIN ATOM
M  V30 1 N 5.31877 -0.525028 -0.145402 0
M  V30 2 C 3.93408 -0.48153 0.15042 0
M  V30 3 N 3.23481 -1.43764 0.744171 0
M  V30 4 N 1.93549 -1.38564 1.01295 0
M  V30 5 C 1.27726 -0.251155 0.642518 0
M  V30 6 C 1.94366 0.770016 0.0267584 0
M  V30 7 O 1.28882 1.79792 -0.294411 0
M  V30 8 N 3.25966 0.643777 -0.211518 0
M  V30 9 N 3.89337 1.70305 -0.837497 0
M  V30 10 C -0.194595 -0.149476 0.911244 0
M  V30 11 C -0.870514 -0.417533 -0.412361 0
M  V30 12 C -2.34168 -0.323236 -0.211922 0
M  V30 13 C -2.97331 0.892601 -0.403788 0
M  V30 14 C -4.32218 1.00502 -0.225713 0
M  V30 15 C -5.03597 -0.116132 0.148057 0
M  V30 16 C -4.42613 -1.34163 0.345596 0
M  V30 17 C -3.05485 -1.45611 0.164342 0
M  V30 18 H 5.6362 -0.615969 -1.12479 0
M  V30 19 H 6.03325 -0.467617 0.603615 0
M  V30 20 H 3.90528 1.75785 -1.8661 0
M  V30 21 H 4.35225 2.43577 -0.2767 0
M  V30 22 H -0.459094 -0.893611 1.68436 0
M  V30 23 H -0.412303 0.838075 1.30831 0
M  V30 24 H -0.552368 -1.40182 -0.79725 0
M  V30 25 H -0.551042 0.405891 -1.10194 0
M  V30 26 H -2.35144 1.72809 -0.695426 0
M  V30 27 H -4.83521 1.94893 -0.37252 0
M  V30 28 H -6.11088 -0.0237257 0.28842 0
M  V30 29 H -4.98007 -2.24005 0.645125 0
M  V30 30 H -2.54124 -2.3991 0.309535 0
M  V30 END ATOM
M  V30 BEGIN BOND
M  V30 1 1 1 2
M  V30 2 2 2 3
M  V30 3 1 3 4
M  V30 4 2 4 5
M  V30 5 1 5 6
M  V30 6 2 6 7
M  V30 7 1 6 8
M  V30 8 1 8 9
M  V30 9 1 5 10
M  V30 10 1 10 11
M  V30 11 1 11 12
M  V30 12 2 12 13
M  V30 13 1 13 14
M  V30 14 2 14 15
M  V30 15 1 15 16
M  V30 16 2 16 17
M  V30 17 1 8 2
M  V30 18 1 17 12
M  V30 19 1 1 18
M  V30 20 1 1 19
M  V30 21 1 9 20
M  V30 22 1 9 21
M  V30 23 1 10 22
M  V30 24 1 10 23
M  V30 25 1 11 24
M  V30 26 1 11 25
M  V30 27 1 13 26
M  V30 28 1 14 27
M  V30 29 1 15 28
M  V30 30 1 16 29
M  V30 31 1 17 30
M  V30 END BOND
M  V30 END CTAB
M  END
