
     RDKit          3D

  0  0  0  0  0  0  0  0  0  0999 V3000
M  V30 BEGIN CTAB
M  V30 COUNTS 36 36 0 0 0
M  V30 BEGIN ATOM
M  V30 1 C -3.89006 -1.34669 -0.555927 0
M  V30 2 C -3.43883 -0.462146 0.56981 0
M  V30 3 C -2.90694 0.852371 0.130546 0
M  V30 4 C -1.7078 0.778222 -0.779602 0
M  V30 5 C -0.538793 0.0885688 -0.199763 0
M  V30 6 O -0.17283 -1.00064 -0.764165 0
M  V30 7 N 0.189426 0.549541 0.918638 0
M  V30 8 C 1.32375 -0.221209 1.39689 0
M  V30 9 C 2.51375 -0.0402857 0.53177 0
M  V30 10 N 2.41873 0.723728 -0.571798 0
M  V30 11 C 3.50268 0.90278 -1.37566 0
M  V30 12 C 4.67923 0.281444 -1.02009 0
M  V30 13 C 4.73216 -0.498953 0.128584 0
M  V30 14 N 3.64992 -0.657292 0.900457 0
M  V30 15 N 5.93712 -1.1488 0.514765 0
M  V30 16 N -2.07014 0.180313 -2.05942 0
M  V30 17 C -2.64554 1.7356 1.31124 0
M  V30 18 H -3.08431 -1.97807 -0.982447 0
M  V30 19 H -4.44188 -0.768355 -1.32031 0
M  V30 20 H -4.64857 -2.05433 -0.122839 0
M  V30 21 H -4.34034 -0.257518 1.2013 0
M  V30 22 H -2.72283 -1.00073 1.21884 0
M  V30 23 H -3.73965 1.35973 -0.449855 0
M  V30 24 H -1.38992 1.82069 -0.980453 0
M  V30 25 H -0.0131265 1.41525 1.43569 0
M  V30 26 H 0.999258 -1.29719 1.30433 0
M  V30 27 H 1.50715 -0.0173918 2.44765 0
M  V30 28 H 3.47528 1.50389 -2.26771 0
M  V30 29 H 5.56849 0.395628 -1.63035 0
M  V30 30 H 6.1671 -1.18593 1.53313 0
M  V30 31 H 6.58829 -1.58246 -0.176538 0
M  V30 32 H -2.06633 0.929994 -2.78206 0
M  V30 33 H -1.51683 -0.649925 -2.30592 0
M  V30 34 H -2.02002 2.58202 0.976996 0
M  V30 35 H -2.23805 1.1813 2.18539 0
M  V30 36 H -3.65954 2.133 1.63889 0
M  V30 END ATOM
M  V30 BEGIN BOND
M  V30 1 1 1 2
M  V30 2 1 2 3
M  V30 3 1 3 4
M  V30 4 1 4 5
M  V30 5 2 5 6
M  V30 6 1 5 7
M  V30 7 1 7 8
M  V30 8 1 8 9
M  V30 9 2 9 10
M  V30 10 1 10 11
M  V30 11 2 11 12
M  V30 12 1 12 13
M  V30 13 2 13 14
M  V30 14 1 13 15
M  V30 15 1 4 16
M  V30 16 1 3 17
M  V30 17 1 14 9
M  V30 18 1 1 18
M  V30 19 1 1 19
M  V30 20 1 1 20
M  V30 21 1 2 21
M  V30 22 1 2 22
M  V30 23 1 3 23
M  V30 24 1 4 24
M  V30 25 1 7 25
M  V30 26 1 8 26
M  V30 27 1 8 27
M  V30 28 1 11 28
M  V30 29 1 12 29
M  V30 30 1 15 30
M  V30 31 1 15 31
M  V30 32 1 16 32
M  V30 33 1 16 33
M  V30 34 1 17 34
M  V30 35 1 17 35
M  V30 36 1 17 36
M  V30 END BOND
M  V30 END CTAB
M  END
