
     RDKit          3D

  0  0  0  0  0  0  0  0  0  0999 V3000
M  V30 BEGIN CTAB
M  V30 COUNTS 36 38 0 0 0
M  V30 BEGIN ATOM
M  V30 1 C 4.53677 -2.63978 -0.846335 0
M  V30 2 O 3.583 -2.48005 0.170575 0
M  V30 3 C 2.76131 -1.34974 0.136433 0
M  V30 4 C 2.84387 -0.394652 -0.842685 0
M  V30 5 C 1.99816 0.70077 -0.81432 0
M  V30 6 C 1.06942 0.845878 0.189277 0
M  V30 7 C 1.00497 -0.125371 1.16105 0
M  V30 8 C 1.82626 -1.22931 1.17039 0
M  V30 9 C 0.140344 2.00832 0.253196 0
M  V30 10 N 0.56174 3.23324 0.349322 0
M  V30 11 C -0.305269 4.22974 0.3996 0
M  V30 12 S -1.80278 3.41591 0.307581 0
M  V30 13 C -1.2217 1.81346 0.208117 0
M  V30 14 C -1.94792 0.535352 0.105103 0
M  V30 15 C -1.79408 -0.291165 -0.968488 0
M  V30 16 C -2.50226 -1.47675 -1.00477 0
M  V30 17 C -3.36114 -1.85498 0.00803938 0
M  V30 18 C -3.51036 -1.01485 1.08726 0
M  V30 19 C -2.79553 0.190359 1.13262 0
M  V30 20 N -4.09262 -3.07314 -0.0216912 0
M  V30 21 N -0.0205993 5.63241 0.505023 0
M  V30 22 H 5.33834 -3.34807 -0.485843 0
M  V30 23 H 4.12625 -3.06231 -1.78795 0
M  V30 24 H 5.08813 -1.68618 -1.02086 0
M  V30 25 H 3.57039 -0.492814 -1.64332 0
M  V30 26 H 2.0763 1.45413 -1.60206 0
M  V30 27 H 0.274475 -0.0424121 1.97865 0
M  V30 28 H 1.77352 -2.00542 1.94782 0
M  V30 29 H -1.13728 -0.0472186 -1.78764 0
M  V30 30 H -2.39421 -2.14412 -1.84493 0
M  V30 31 H -4.18351 -1.31132 1.88079 0
M  V30 32 H -2.94438 0.81747 1.99829 0
M  V30 33 H -5.12111 -3.04461 0.108792 0
M  V30 34 H -3.64652 -4.00415 -0.169142 0
M  V30 35 H 0.837421 5.8976 1.02369 0
M  V30 36 H -0.6294 6.34377 0.0913653 0
M  V30 END ATOM
M  V30 BEGIN BOND
M  V30 1 1 1 2
M  V30 2 1 2 3
M  V30 3 2 3 4
M  V30 4 1 4 5
M  V30 5 2 5 6
M  V30 6 1 6 7
M  V30 7 2 7 8
M  V30 8 1 6 9
M  V30 9 1 9 10
M  V30 10 2 10 11
M  V30 11 1 11 12
M  V30 12 1 12 13
M  V30 13 1 13 14
M  V30 14 2 14 15
M  V30 15 1 15 16
M  V30 16 2 16 17
M  V30 17 1 17 18
M  V30 18 2 18 19
M  V30 19 1 17 20
M  V30 20 1 11 21
M  V30 21 1 8 3
M  V30 22 2 13 9
M  V30 23 1 19 14
M  V30 24 1 1 22
M  V30 25 1 1 23
M  V30 26 1 1 24
M  V30 27 1 4 25
M  V30 28 1 5 26
M  V30 29 1 7 27
M  V30 30 1 8 28
M  V30 31 1 15 29
M  V30 32 1 16 30
M  V30 33 1 18 31
M  V30 34 1 19 32
M  V30 35 1 20 33
M  V30 36 1 20 34
M  V30 37 1 21 35
M  V30 38 1 21 36
M  V30 END BOND
M  V30 END CTAB
M  END
