
     RDKit          3D

  0  0  0  0  0  0  0  0  0  0999 V3000
M  V30 BEGIN CTAB
M  V30 COUNTS 21 21 0 0 0
M  V30 BEGIN ATOM
M  V30 1 C 3.805 0.139051 -1.01823 0
M  V30 2 O 2.40598 0.280976 -1.00711 0
M  V30 3 C 1.58401 -0.163347 -0.000307423 0
M  V30 4 O 2.11941 -0.736261 0.978442 0
M  V30 5 C 0.140228 -0.0106349 -0.000691256 0
M  V30 6 C -0.551092 0.605144 -1.02949 0
M  V30 7 C -1.92573 0.724944 -0.981381 0
M  V30 8 C -2.65516 0.238804 0.0861231 0
M  V30 9 N -1.96362 -0.356304 1.0757 0
M  V30 10 C -0.610466 -0.485637 1.04996 0
M  V30 11 N 0.0798926 -1.1303 2.13371 0
M  V30 12 N -4.07316 0.366613 0.127691 0
M  V30 13 H 4.10514 -0.8234 -0.569781 0
M  V30 14 H 4.32394 0.936732 -0.429099 0
M  V30 15 H 4.20075 0.213432 -2.04758 0
M  V30 16 H 0.0423083 0.977414 -1.8539 0
M  V30 17 H -2.43694 1.21962 -1.81668 0
M  V30 18 H 0.322965 -0.660564 3.0156 0
M  V30 19 H 0.334846 -2.13769 1.98151 0
M  V30 20 H -4.65178 -0.365985 0.593994 0
M  V30 21 H -4.59652 1.16739 -0.288482 0
M  V30 END ATOM
M  V30 BEGIN BOND
M  V30 1 1 1 2
M  V30 2 1 2 3
M  V30 3 2 3 4
M  V30 4 1 3 5
M  V30 5 2 5 6
M  V30 6 1 6 7
M  V30 7 2 7 8
M  V30 8 1 8 9
M  V30 9 2 9 10
M  V30 10 1 10 11
M  V30 11 1 8 12
M  V30 12 1 10 5
M  V30 13 1 1 13
M  V30 14 1 1 14
M  V30 15 1 1 15
M  V30 16 1 6 16
M  V30 17 1 7 17
M  V30 18 1 11 18
M  V30 19 1 11 19
M  V30 20 1 12 20
M  V30 21 1 12 21
M  V30 END BOND
M  V30 END CTAB
M  END
