
     RDKit          3D

  0  0  0  0  0  0  0  0  0  0999 V3000
M  V30 BEGIN CTAB
M  V30 COUNTS 28 28 0 0 0
M  V30 BEGIN ATOM
M  V30 1 N 4.2546 0.34846 0.0329089 0
M  V30 2 N 2.92473 0.372608 -0.386131 0
M  V30 3 C 1.95153 0.0327608 0.388588 0
M  V30 4 N 0.607407 0.0712919 -0.0776834 0
M  V30 5 C 0.278763 0.975852 -1.12814 0
M  V30 6 C -1.12486 1.45207 -1.15409 0
M  V30 7 C -2.08599 0.6622 -0.337092 0
M  V30 8 C -1.62023 -0.76173 -0.176811 0
M  V30 9 C -0.331227 -0.830631 0.5683 0
M  V30 10 C -2.65636 -1.62297 0.47512 0
M  V30 11 O -2.31931 1.27885 0.889462 0
M  V30 12 N 2.27445 -0.37401 1.70285 0
M  V30 13 H 4.74804 1.23236 0.253416 0
M  V30 14 H 4.76384 -0.55459 0.128278 0
M  V30 15 H 0.479758 0.439956 -2.1026 0
M  V30 16 H 1.00643 1.83811 -1.12464 0
M  V30 17 H -1.12592 2.50481 -0.742338 0
M  V30 18 H -1.5146 1.58626 -2.20598 0
M  V30 19 H -3.05858 0.620678 -0.878 0
M  V30 20 H -1.44722 -1.1624 -1.1999 0
M  V30 21 H 0.109259 -1.86154 0.433112 0
M  V30 22 H -0.423661 -0.608278 1.64649 0
M  V30 23 H -2.8812 -1.33124 1.51503 0
M  V30 24 H -3.57214 -1.58757 -0.182116 0
M  V30 25 H -2.29579 -2.67483 0.426098 0
M  V30 26 H -1.72466 0.962635 1.60795 0
M  V30 27 H 2.47398 -1.35535 1.94012 0
M  V30 28 H 2.30896 0.346251 2.44468 0
M  V30 END ATOM
M  V30 BEGIN BOND
M  V30 1 1 1 2
M  V30 2 2 2 3 CFG=2
M  V30 3 1 3 4
M  V30 4 1 4 5
M  V30 5 1 5 6
M  V30 6 1 6 7
M  V30 7 1 7 8
M  V30 8 1 8 9
M  V30 9 1 8 10
M  V30 10 1 7 11
M  V30 11 1 3 12
M  V30 12 1 9 4
M  V30 13 1 1 13
M  V30 14 1 1 14
M  V30 15 1 5 15
M  V30 16 1 5 16
M  V30 17 1 6 17
M  V30 18 1 6 18
M  V30 19 1 7 19
M  V30 20 1 8 20
M  V30 21 1 9 21
M  V30 22 1 9 22
M  V30 23 1 10 23
M  V30 24 1 10 24
M  V30 25 1 10 25
M  V30 26 1 11 26
M  V30 27 1 12 27
M  V30 28 1 12 28
M  V30 END BOND
M  V30 END CTAB
M  END
