
     RDKit          3D

  0  0  0  0  0  0  0  0  0  0999 V3000
M  V30 BEGIN CTAB
M  V30 COUNTS 26 28 0 0 0
M  V30 BEGIN ATOM
M  V30 1 N -4.99056 -0.466171 0.381515 0
M  V30 2 C -3.71316 0.0540072 0.0387311 0
M  V30 3 C -2.77043 -0.792936 -0.50189 0
M  V30 4 C -1.54318 -0.26768 -0.825253 0
M  V30 5 C -1.23163 1.05056 -0.630283 0
M  V30 6 S 0.407029 1.69229 -1.07043 0
M  V30 7 C 1.60692 0.45117 -0.553891 0
M  V30 8 C 2.79264 0.820149 0.0285874 0
M  V30 9 C 3.71751 -0.120461 0.43185 0
M  V30 10 N 4.94392 0.272297 1.03477 0
M  V30 11 C 3.37581 -1.43576 0.213735 0
M  V30 12 C 2.19198 -1.82626 -0.368802 0
M  V30 13 C 1.26732 -0.863731 -0.771144 0
M  V30 14 S -0.277576 -1.3078 -1.53396 0
M  V30 15 C -2.18161 1.88445 -0.0901499 0
M  V30 16 C -3.42787 1.40107 0.249835 0
M  V30 17 H -5.29588 -0.688507 1.34578 0
M  V30 18 H -5.65618 -0.630848 -0.397575 0
M  V30 19 H -2.99994 -1.86073 -0.668008 0
M  V30 20 H 3.03486 1.86661 0.187942 0
M  V30 21 H 5.02164 0.642755 2.00778 0
M  V30 22 H 5.80425 0.174225 0.447105 0
M  V30 23 H 4.09023 -2.20115 0.52368 0
M  V30 24 H 1.91349 -2.85658 -0.54484 0
M  V30 25 H -1.90862 2.92819 0.0545447 0
M  V30 26 H -4.17097 2.08085 0.678762 0
M  V30 END ATOM
M  V30 BEGIN BOND
M  V30 1 1 1 2
M  V30 2 2 2 3
M  V30 3 1 3 4
M  V30 4 2 4 5
M  V30 5 1 5 6
M  V30 6 1 6 7
M  V30 7 2 7 8
M  V30 8 1 8 9
M  V30 9 1 9 10
M  V30 10 2 9 11
M  V30 11 1 11 12
M  V30 12 2 12 13
M  V30 13 1 13 14
M  V30 14 1 5 15
M  V30 15 2 15 16
M  V30 16 1 16 2
M  V30 17 1 14 4
M  V30 18 1 13 7
M  V30 19 1 1 17
M  V30 20 1 1 18
M  V30 21 1 3 19
M  V30 22 1 8 20
M  V30 23 1 10 21
M  V30 24 1 10 22
M  V30 25 1 11 23
M  V30 26 1 12 24
M  V30 27 1 15 25
M  V30 28 1 16 26
M  V30 END BOND
M  V30 END CTAB
M  END
