
     RDKit          3D

  0  0  0  0  0  0  0  0  0  0999 V3000
M  V30 BEGIN CTAB
M  V30 COUNTS 31 32 0 0 0
M  V30 BEGIN ATOM
M  V30 1 N -0.612813 -1.72157 -0.606187 0
M  V30 2 C -0.761552 -0.338767 -0.225951 0
M  V30 3 C -2.20046 -0.121262 0.162238 0
M  V30 4 C -3.20056 -0.409014 -0.936284 0
M  V30 5 C -4.0285 0.720353 -0.304727 0
M  V30 6 C -2.66542 1.337 0.0345492 0
M  V30 7 C 0.164209 0.016683 0.92974 0
M  V30 8 C 1.5781 -0.195883 0.575883 0
M  V30 9 C 2.1849 -1.40787 0.802692 0
M  V30 10 C 3.50361 -1.58131 0.464346 0
M  V30 11 N 4.23078 -0.597647 -0.0868544 0
M  V30 12 C 3.67675 0.597762 -0.323945 0
M  V30 13 C 2.35113 0.794321 0.00866578 0
M  V30 14 N 4.41115 1.66461 -0.905401 0
M  V30 15 H -1.32326 -2.35209 -0.181948 0
M  V30 16 H -0.600806 -1.81571 -1.6558 0
M  V30 17 H -0.507743 0.288112 -1.08468 0
M  V30 18 H -2.48449 -0.483473 1.17089 0
M  V30 19 H -2.79599 -0.0524995 -1.8991 0
M  V30 20 H -3.68292 -1.38513 -0.914449 0
M  V30 21 H -4.49319 0.363005 0.627267 0
M  V30 22 H -4.63537 1.29078 -1.00111 0
M  V30 23 H -2.64233 1.90212 0.964782 0
M  V30 24 H -2.26071 1.83301 -0.872212 0
M  V30 25 H -0.135655 -0.584209 1.82919 0
M  V30 26 H 0.00227265 1.07453 1.22017 0
M  V30 27 H 1.6087 -2.22772 1.25309 0
M  V30 28 H 4.01452 -2.52325 0.628788 0
M  V30 29 H 1.92424 1.7665 -0.191282 0
M  V30 30 H 4.37551 2.61387 -0.500454 0
M  V30 31 H 5.00592 1.53474 -1.7503 0
M  V30 END ATOM
M  V30 BEGIN BOND
M  V30 1 1 1 2
M  V30 2 1 2 3
M  V30 3 1 3 4
M  V30 4 1 4 5
M  V30 5 1 5 6
M  V30 6 1 2 7
M  V30 7 1 7 8
M  V30 8 2 8 9
M  V30 9 1 9 10
M  V30 10 2 10 11
M  V30 11 1 11 12
M  V30 12 2 12 13
M  V30 13 1 12 14
M  V30 14 1 6 3
M  V30 15 1 13 8
M  V30 16 1 1 15
M  V30 17 1 1 16
M  V30 18 1 2 17
M  V30 19 1 3 18
M  V30 20 1 4 19
M  V30 21 1 4 20
M  V30 22 1 5 21
M  V30 23 1 5 22
M  V30 24 1 6 23
M  V30 25 1 6 24
M  V30 26 1 7 25
M  V30 27 1 7 26
M  V30 28 1 9 27
M  V30 29 1 10 28
M  V30 30 1 13 29
M  V30 31 1 14 30
M  V30 32 1 14 31
M  V30 END BOND
M  V30 END CTAB
M  END
