
     RDKit          3D

  0  0  0  0  0  0  0  0  0  0999 V3000
M  V30 BEGIN CTAB
M  V30 COUNTS 18 18 0 0 0
M  V30 BEGIN ATOM
M  V30 1 N -2.3319 -1.27854 -0.083576 0
M  V30 2 C -1.02153 -0.725721 -0.0398213 0
M  V30 3 C 0.0873807 -1.54926 -0.0150472 0
M  V30 4 C 1.36809 -1.07978 0.0268813 0
M  V30 5 F 2.46833 -1.89596 0.0523348 0
M  V30 6 C 1.62249 0.282377 0.0470086 0
M  V30 7 N 2.96017 0.785049 0.091278 0
M  V30 8 C 0.526647 1.11796 0.02265 0
M  V30 9 C -0.779537 0.633268 -0.0201361 0
M  V30 10 N -1.88594 1.50631 -0.0457781 0 CHG=1
M  V30 11 O -3.073 1.08266 0.462395 0 CHG=-1
M  V30 12 O -1.7918 2.63957 -0.519527 0
M  V30 13 H -2.90262 -1.35268 0.798638 0
M  V30 14 H -2.79241 -1.63047 -0.949611 0
M  V30 15 H -0.0898142 -2.62894 -0.0303309 0
M  V30 16 H 3.59912 0.510339 -0.674242 0
M  V30 17 H 3.33096 1.40575 0.838578 0
M  V30 18 H 0.705356 2.17807 0.0383059 0
M  V30 END ATOM
M  V30 BEGIN BOND
M  V30 1 1 1 2
M  V30 2 2 2 3
M  V30 3 1 3 4
M  V30 4 1 4 5
M  V30 5 2 4 6
M  V30 6 1 6 7
M  V30 7 1 6 8
M  V30 8 2 8 9
M  V30 9 1 9 10
M  V30 10 1 10 11
M  V30 11 2 10 12
M  V30 12 1 9 2
M  V30 13 1 1 13
M  V30 14 1 1 14
M  V30 15 1 3 15
M  V30 16 1 7 16
M  V30 17 1 7 17
M  V30 18 1 8 18
M  V30 END BOND
M  V30 END CTAB
M  END
