
     RDKit          3D

  0  0  0  0  0  0  0  0  0  0999 V3000
M  V30 BEGIN CTAB
M  V30 COUNTS 35 36 0 0 0
M  V30 BEGIN ATOM
M  V30 1 C -2.8737 -2.74269 -0.265945 0
M  V30 2 C -2.98847 -1.74362 0.861609 0
M  V30 3 O -1.87139 -0.870996 0.877694 0
M  V30 4 C -1.58611 -0.0665815 -0.215579 0
M  V30 5 O -2.35241 -0.150413 -1.19791 0
M  V30 6 C -0.433911 0.863129 -0.254979 0
M  V30 7 C -0.489751 1.70921 -1.54054 0
M  V30 8 C -1.11955 2.84692 -0.766213 0
M  V30 9 C -0.60678 2.14172 0.493546 0
M  V30 10 N -0.576626 4.14301 -0.993338 0
M  V30 11 C 0.835727 0.131348 -0.0966988 0
M  V30 12 C 1.86469 0.504507 0.730274 0
M  V30 13 C 3.04509 -0.218723 0.842969 0
M  V30 14 C 3.23498 -1.35913 0.117628 0
M  V30 15 C 2.20523 -1.74883 -0.721668 0
M  V30 16 C 1.04551 -1.04032 -0.833932 0
M  V30 17 N 4.41652 -2.14249 0.187304 0
M  V30 18 H -3.44909 -2.35698 -1.14561 0
M  V30 19 H -3.3115 -3.68909 0.0598614 0
M  V30 20 H -1.82955 -2.85604 -0.620454 0
M  V30 21 H -2.9888 -2.30378 1.80706 0
M  V30 22 H -3.94089 -1.1919 0.720769 0
M  V30 23 H 0.485823 1.90725 -1.98884 0
M  V30 24 H -1.17999 1.28829 -2.30166 0
M  V30 25 H -2.22608 2.8595 -0.788116 0
M  V30 26 H -1.39784 2.06881 1.27938 0
M  V30 27 H 0.298654 2.62728 0.88762 0
M  V30 28 H -0.273594 4.32626 -1.97388 0
M  V30 29 H 0.124691 4.44672 -0.282135 0
M  V30 30 H 1.7908 1.37997 1.32851 0
M  V30 31 H 3.83251 0.114825 1.51058 0
M  V30 32 H 2.31676 -2.64829 -1.31439 0
M  V30 33 H 0.255948 -1.37427 -1.503 0
M  V30 34 H 4.41792 -3.16982 0.0364201 0
M  V30 35 H 5.32519 -1.68475 0.396835 0
M  V30 END ATOM
M  V30 BEGIN BOND
M  V30 1 1 1 2
M  V30 2 1 2 3
M  V30 3 1 3 4
M  V30 4 2 4 5
M  V30 5 1 4 6
M  V30 6 1 6 7
M  V30 7 1 7 8
M  V30 8 1 8 9
M  V30 9 1 8 10
M  V30 10 1 6 11
M  V30 11 2 11 12
M  V30 12 1 12 13
M  V30 13 2 13 14
M  V30 14 1 14 15
M  V30 15 2 15 16
M  V30 16 1 14 17
M  V30 17 1 9 6
M  V30 18 1 16 11
M  V30 19 1 1 18
M  V30 20 1 1 19
M  V30 21 1 1 20
M  V30 22 1 2 21
M  V30 23 1 2 22
M  V30 24 1 7 23
M  V30 25 1 7 24
M  V30 26 1 8 25
M  V30 27 1 9 26
M  V30 28 1 9 27
M  V30 29 1 10 28
M  V30 30 1 10 29
M  V30 31 1 12 30
M  V30 32 1 13 31
M  V30 33 1 15 32
M  V30 34 1 16 33
M  V30 35 1 17 34
M  V30 36 1 17 35
M  V30 END BOND
M  V30 END CTAB
M  END
