
     RDKit          3D

  0  0  0  0  0  0  0  0  0  0999 V3000
M  V30 BEGIN CTAB
M  V30 COUNTS 38 40 0 0 0
M  V30 BEGIN ATOM
M  V30 1 N 3.09046 2.30734 0.59736 0
M  V30 2 C 3.6968 1.03665 0.63016 0
M  V30 3 C 4.63759 0.86019 1.64256 0
M  V30 4 C 5.31684 -0.30778 1.76575 0
M  V30 5 C 5.05412 -1.31408 0.863093 0
M  V30 6 C 4.12713 -1.12966 -0.128206 0
M  V30 7 C 3.40597 0.0680286 -0.280752 0
M  V30 8 S 2.27157 0.232002 -1.60194 0
M  V30 9 C 0.664655 -0.471601 -1.36278 0
M  V30 10 C -0.386806 0.257171 -0.930614 0
M  V30 11 C -0.284511 1.67085 -0.741478 0
M  V30 12 N -0.235414 2.81399 -0.605448 0
M  V30 13 C -1.63957 -0.370463 -0.727086 0
M  V30 14 C -2.71958 0.427656 -0.232457 0
M  V30 15 C -3.13615 0.321787 1.08351 0
M  V30 16 C -4.16129 1.12021 1.52029 0
M  V30 17 C -4.79361 2.02438 0.705966 0
M  V30 18 Cl -6.10834 3.0505 1.22508 0
M  V30 19 C -4.3746 2.13777 -0.636743 0
M  V30 20 C -3.34264 1.32672 -1.06315 0
M  V30 21 C -1.83648 -1.70497 -0.955411 0
M  V30 22 C -3.09416 -2.37702 -0.766576 0
M  V30 23 N -4.12664 -2.90269 -0.604146 0
M  V30 24 C -0.715344 -2.40529 -1.40294 0
M  V30 25 N -0.885312 -3.80428 -1.64751 0
M  V30 26 N 0.467955 -1.81877 -1.59485 0
M  V30 27 H 2.32623 2.56081 1.27327 0
M  V30 28 H 3.37821 3.02099 -0.0885966 0
M  V30 29 H 4.83138 1.65847 2.34213 0
M  V30 30 H 6.05612 -0.454447 2.55072 0
M  V30 31 H 5.62353 -2.23114 1.00137 0
M  V30 32 H 3.93093 -1.92056 -0.822985 0
M  V30 33 H -2.6697 -0.385829 1.78934 0
M  V30 34 H -4.48546 1.03418 2.56455 0
M  V30 35 H -4.85131 2.84135 -1.30168 0
M  V30 36 H -3.06193 1.46645 -2.12346 0
M  V30 37 H -1.82336 -4.13971 -1.99161 0
M  V30 38 H -0.147272 -4.4992 -1.50497 0
M  V30 END ATOM
M  V30 BEGIN BOND
M  V30 1 1 1 2
M  V30 2 2 2 3
M  V30 3 1 3 4
M  V30 4 2 4 5
M  V30 5 1 5 6
M  V30 6 2 6 7
M  V30 7 1 7 8
M  V30 8 1 8 9
M  V30 9 2 9 10
M  V30 10 1 10 11
M  V30 11 3 11 12
M  V30 12 1 10 13
M  V30 13 1 13 14
M  V30 14 2 14 15
M  V30 15 1 15 16
M  V30 16 2 16 17
M  V30 17 1 17 18
M  V30 18 1 17 19
M  V30 19 2 19 20
M  V30 20 2 13 21
M  V30 21 1 21 22
M  V30 22 3 22 23
M  V30 23 1 21 24
M  V30 24 1 24 25
M  V30 25 2 24 26
M  V30 26 1 7 2
M  V30 27 1 26 9
M  V30 28 1 20 14
M  V30 29 1 1 27
M  V30 30 1 1 28
M  V30 31 1 3 29
M  V30 32 1 4 30
M  V30 33 1 5 31
M  V30 34 1 6 32
M  V30 35 1 15 33
M  V30 36 1 16 34
M  V30 37 1 19 35
M  V30 38 1 20 36
M  V30 39 1 25 37
M  V30 40 1 25 38
M  V30 END BOND
M  V30 END CTAB
M  END
