
     RDKit          3D

  0  0  0  0  0  0  0  0  0  0999 V3000
M  V30 BEGIN CTAB
M  V30 COUNTS 30 30 0 0 0
M  V30 BEGIN ATOM
M  V30 1 C 2.40533 -1.13221 -0.425618 0
M  V30 2 C 2.38469 -0.401648 0.891931 0
M  V30 3 N 1.82555 0.920738 0.719743 0
M  V30 4 C 0.474381 1.07352 0.230943 0
M  V30 5 N -0.0354079 2.30634 0.0742345 0
M  V30 6 C -1.30486 2.52137 -0.382903 0
M  V30 7 N -1.8127 3.8314 -0.537112 0
M  V30 8 N -2.01785 1.41565 -0.668402 0
M  V30 9 C -1.56127 0.160165 -0.531598 0
M  V30 10 N -0.290986 0.012795 -0.0725707 0
M  V30 11 C -2.40749 -1.01971 -0.867351 0
M  V30 12 N -3.71489 -0.769224 -0.29402 0
M  V30 13 C -1.80542 -2.30341 -0.409075 0
M  V30 14 C 3.778 -0.264562 1.44927 0
M  V30 15 H 3.29869 -1.7741 -0.44668 0
M  V30 16 H 2.35739 -0.437415 -1.29267 0
M  V30 17 H 1.52444 -1.78429 -0.492008 0
M  V30 18 H 1.74411 -0.985821 1.58731 0
M  V30 19 H 2.39926 1.74207 0.948314 0
M  V30 20 H -1.39359 4.46158 -1.23844 0
M  V30 21 H -2.59747 4.1658 0.0428544 0
M  V30 22 H -2.52917 -0.999541 -1.98127 0
M  V30 23 H -4.40863 -1.39314 -0.757231 0
M  V30 24 H -3.73008 -0.797203 0.729497 0
M  V30 25 H -1.72355 -3.00648 -1.2861 0
M  V30 26 H -0.800194 -2.13616 -0.00873477 0
M  V30 27 H -2.47626 -2.79741 0.3318 0
M  V30 28 H 4.14157 -1.21445 1.88451 0
M  V30 29 H 3.84505 0.541199 2.20974 0
M  V30 30 H 4.43136 0.0641304 0.591641 0
M  V30 END ATOM
M  V30 BEGIN BOND
M  V30 1 1 1 2
M  V30 2 1 2 3
M  V30 3 1 3 4
M  V30 4 2 4 5
M  V30 5 1 5 6
M  V30 6 1 6 7
M  V30 7 2 6 8
M  V30 8 1 8 9
M  V30 9 2 9 10
M  V30 10 1 9 11
M  V30 11 1 11 12
M  V30 12 1 11 13
M  V30 13 1 2 14
M  V30 14 1 10 4
M  V30 15 1 1 15
M  V30 16 1 1 16
M  V30 17 1 1 17
M  V30 18 1 2 18
M  V30 19 1 3 19
M  V30 20 1 7 20
M  V30 21 1 7 21
M  V30 22 1 11 22
M  V30 23 1 12 23
M  V30 24 1 12 24
M  V30 25 1 13 25
M  V30 26 1 13 26
M  V30 27 1 13 27
M  V30 28 1 14 28
M  V30 29 1 14 29
M  V30 30 1 14 30
M  V30 END BOND
M  V30 END CTAB
M  END
