
     RDKit          3D

  0  0  0  0  0  0  0  0  0  0999 V3000
M  V30 BEGIN CTAB
M  V30 COUNTS 26 26 0 0 0
M  V30 BEGIN ATOM
M  V30 1 N -3.98032 0.842387 -0.359742 0
M  V30 2 C -2.54263 0.90285 -0.405025 0
M  V30 3 C -1.92229 -0.287849 0.334763 0
M  V30 4 C -0.45217 -0.217966 0.283433 0
M  V30 5 C 0.251071 0.276354 1.37036 0
M  V30 6 C 1.62807 0.346518 1.33367 0
M  V30 7 C 2.3628 -0.0607129 0.241763 0
M  V30 8 C 1.66377 -0.552863 -0.840569 0
M  V30 9 C 0.288113 -0.624543 -0.807748 0
M  V30 10 C 3.85996 0.0247508 0.223991 0
M  V30 11 O 4.34412 -0.446191 -0.983278 0
M  V30 12 N -2.44137 -1.54544 -0.158426 0
M  V30 13 H -4.42507 1.33418 -1.15812 0
M  V30 14 H -4.38385 1.04809 0.562036 0
M  V30 15 H -2.19628 0.966766 -1.44561 0
M  V30 16 H -2.24307 1.80486 0.205043 0
M  V30 17 H -2.2425 -0.204826 1.39137 0
M  V30 18 H -0.290486 0.606481 2.24746 0
M  V30 19 H 2.1759 0.735498 2.18981 0
M  V30 20 H 2.2534 -0.874774 -1.70504 0
M  V30 21 H -0.248298 -1.01192 -1.66173 0
M  V30 22 H 4.12212 1.09975 0.289799 0
M  V30 23 H 4.30909 -0.475469 1.09767 0
M  V30 24 H 4.48565 0.304132 -1.62142 0
M  V30 25 H -2.1682 -1.70438 -1.13414 0
M  V30 26 H -2.20753 -2.28568 0.509685 0
M  V30 END ATOM
M  V30 BEGIN BOND
M  V30 1 1 1 2
M  V30 2 1 2 3
M  V30 3 1 3 4
M  V30 4 2 4 5
M  V30 5 1 5 6
M  V30 6 2 6 7
M  V30 7 1 7 8
M  V30 8 2 8 9
M  V30 9 1 7 10
M  V30 10 1 10 11
M  V30 11 1 3 12
M  V30 12 1 9 4
M  V30 13 1 1 13
M  V30 14 1 1 14
M  V30 15 1 2 15
M  V30 16 1 2 16
M  V30 17 1 3 17
M  V30 18 1 5 18
M  V30 19 1 6 19
M  V30 20 1 8 20
M  V30 21 1 9 21
M  V30 22 1 10 22
M  V30 23 1 10 23
M  V30 24 1 11 24
M  V30 25 1 12 25
M  V30 26 1 12 26
M  V30 END BOND
M  V30 END CTAB
M  END
