
     RDKit          3D

  0  0  0  0  0  0  0  0  0  0999 V3000
M  V30 BEGIN CTAB
M  V30 COUNTS 85 86 0 0 0
M  V30 BEGIN ATOM
M  V30 1 C 0.332723 0.736365 -1.4319 0 CFG=1
M  V30 2 C 0.914818 2.13425 -1.49215 0
M  V30 3 C 1.17829 2.80562 -0.21728 0
M  V30 4 C 1.86583 4.13659 -0.467517 0
M  V30 5 N 1.08073 5.27543 -0.0724324 0
M  V30 6 C 1.654 6.5658 -0.110857 0
M  V30 7 N 0.84854 7.68345 0.284262 0
M  V30 8 N 2.82884 6.72897 -0.484287 0
M  V30 9 N 1.43258 -0.0526601 -0.945763 0
M  V30 10 C 2.06429 -0.603409 0.10656 0
M  V30 11 O 1.61109 -1.09423 1.08443 0
M  V30 12 C 3.61378 -0.469456 -0.0794939 0 CFG=2
M  V30 13 C 4.0559 -1.48046 -0.941833 0
M  V30 14 C 5.00333 -2.46384 -0.424338 0
M  V30 15 C 4.78075 -3.12183 0.736062 0
M  V30 16 C 5.43132 -4.28608 1.03659 0
M  V30 17 C 6.28244 -4.84876 0.13575 0
M  V30 18 O 6.92858 -6.04147 0.379792 0
M  V30 19 C 6.49118 -4.19649 -1.06819 0
M  V30 20 C 5.87401 -3.00754 -1.31554 0
M  V30 21 N 4.14462 -0.18418 1.2081 0
M  V30 22 C 5.45592 0.379706 1.27981 0
M  V30 23 N 5.78906 1.21469 0.125537 0
M  V30 24 N 6.35992 0.114829 2.08246 0
M  V30 25 C -0.63258 0.58348 -0.209671 0
M  V30 26 O -0.275538 0.790736 0.948957 0
M  V30 27 N -1.88586 0.0874714 -0.478992 0
M  V30 28 C -2.71325 -0.570817 0.590052 0 CFG=1
M  V30 29 C -3.37279 0.271002 1.44483 0
M  V30 30 C -4.16434 -0.217386 2.58832 0
M  V30 31 C -5.47917 -0.488003 2.42756 0
M  V30 32 C -6.31163 -0.644931 3.55347 0
M  V30 33 C -5.77339 -0.461425 4.78778 0
M  V30 34 C -4.45637 -0.185087 4.96313 0
M  V30 35 C -3.61925 -0.0811679 3.84037 0
M  V30 36 C -3.49777 -1.47048 -0.31827 0
M  V30 37 O -3.33975 -2.66073 -0.369947 0
M  V30 38 N -4.41534 -0.795878 -1.15799 0
M  V30 39 C -5.2032 -1.48315 -2.15551 0
M  V30 40 C -4.27039 -1.62007 -3.37565 0
M  V30 41 C -5.6026 -2.86941 -1.74311 0
M  V30 42 C -6.35519 -0.701446 -2.58726 0
M  V30 43 O -7.34595 -1.2941 -3.36638 0
M  V30 44 O -6.44121 0.505526 -2.24207 0
M  V30 45 H -0.179654 0.462886 -2.25917 0
M  V30 46 H 2.02203 1.87406 -1.90453 0
M  V30 47 H 0.510669 2.68925 -2.27624 0
M  V30 48 H 1.73538 2.27526 0.508048 0
M  V30 49 H 0.134502 3.13218 0.155491 0
M  V30 50 H 1.95945 4.33351 -1.59565 0
M  V30 51 H 2.85953 4.19501 -0.0337734 0
M  V30 52 H 0.101594 5.15887 0.197688 0
M  V30 53 H 1.18559 8.3563 0.955046 0
M  V30 54 H -0.0751039 7.77539 -0.191261 0
M  V30 55 H 3.52772 6.12279 -0.825416 0
M  V30 56 H 1.5082 -0.99576 -1.8021 0
M  V30 57 H 3.658 0.604735 -0.557546 0
M  V30 58 H 3.191 -2.16606 -1.33217 0
M  V30 59 H 4.43737 -1.0264 -1.92137 0
M  V30 60 H 4.01236 -2.8124 1.46152 0
M  V30 61 H 5.33933 -4.71525 2.05293 0
M  V30 62 H 6.94886 -6.46133 1.30609 0
M  V30 63 H 7.11845 -4.6969 -1.79517 0
M  V30 64 H 6.09209 -2.52125 -2.25305 0
M  V30 65 H 3.63674 -0.372085 2.06659 0
M  V30 66 H 6.51425 0.742788 -0.476942 0
M  V30 67 H 5.36313 2.08695 -0.0607804 0
M  V30 68 H 6.34285 -0.583998 2.81211 0
M  V30 69 H -2.39481 0.353275 -1.37571 0
M  V30 70 H -1.8869 -1.23041 1.10217 0
M  V30 71 H -4.09208 0.93068 0.806779 0
M  V30 72 H -2.64146 1.08357 1.82825 0
M  V30 73 H -5.977 -0.576786 1.47422 0
M  V30 74 H -7.35781 -0.837602 3.42078 0
M  V30 75 H -6.41662 -0.536588 5.65631 0
M  V30 76 H -4.09002 0.0535238 5.94865 0
M  V30 77 H -2.57533 0.0860364 3.95711 0
M  V30 78 H -4.55784 0.261188 -1.12972 0
M  V30 79 H -4.78698 -2.28466 -4.087 0
M  V30 80 H -4.20589 -0.62861 -3.90359 0
M  V30 81 H -3.27689 -1.97358 -3.16034 0
M  V30 82 H -5.7405 -2.96708 -0.649596 0
M  V30 83 H -6.60176 -3.09274 -2.18965 0
M  V30 84 H -4.85946 -3.61085 -2.12388 0
M  V30 85 H -7.34995 -1.10734 -4.35252 0
M  V30 END ATOM
M  V30 BEGIN BOND
M  V30 1 1 1 2
M  V30 2 1 2 3
M  V30 3 1 3 4
M  V30 4 1 4 5
M  V30 5 1 5 6
M  V30 6 1 6 7
M  V30 7 2 6 8 CFG=2
M  V30 8 1 1 9
M  V30 9 1 9 10
M  V30 10 2 10 11
M  V30 11 1 10 12
M  V30 12 1 12 13
M  V30 13 1 13 14
M  V30 14 2 14 15
M  V30 15 1 15 16
M  V30 16 2 16 17
M  V30 17 1 17 18
M  V30 18 1 17 19
M  V30 19 2 19 20
M  V30 20 1 12 21
M  V30 21 1 21 22
M  V30 22 1 22 23
M  V30 23 2 22 24 CFG=2
M  V30 24 1 1 25
M  V30 25 2 25 26
M  V30 26 1 25 27
M  V30 27 1 27 28
M  V30 28 1 28 29
M  V30 29 1 29 30
M  V30 30 2 30 31
M  V30 31 1 31 32
M  V30 32 2 32 33
M  V30 33 1 33 34
M  V30 34 2 34 35
M  V30 35 1 28 36
M  V30 36 2 36 37
M  V30 37 1 36 38
M  V30 38 1 38 39
M  V30 39 1 39 40
M  V30 40 1 39 41
M  V30 41 1 39 42
M  V30 42 1 42 43
M  V30 43 2 42 44
M  V30 44 1 20 14
M  V30 45 1 35 30
M  V30 46 1 1 45 CFG=3
M  V30 47 1 2 46
M  V30 48 1 2 47
M  V30 49 1 3 48
M  V30 50 1 3 49
M  V30 51 1 4 50
M  V30 52 1 4 51
M  V30 53 1 5 52
M  V30 54 1 7 53
M  V30 55 1 7 54
M  V30 56 1 8 55
M  V30 57 1 9 56
M  V30 58 1 12 57 CFG=3
M  V30 59 1 13 58
M  V30 60 1 13 59
M  V30 61 1 15 60
M  V30 62 1 16 61
M  V30 63 1 18 62
M  V30 64 1 19 63
M  V30 65 1 20 64
M  V30 66 1 21 65
M  V30 67 1 23 66
M  V30 68 1 23 67
M  V30 69 1 24 68
M  V30 70 1 27 69
M  V30 71 1 28 70 CFG=1
M  V30 72 1 29 71
M  V30 73 1 29 72
M  V30 74 1 31 73
M  V30 75 1 32 74
M  V30 76 1 33 75
M  V30 77 1 34 76
M  V30 78 1 35 77
M  V30 79 1 38 78
M  V30 80 1 40 79
M  V30 81 1 40 80
M  V30 82 1 40 81
M  V30 83 1 41 82
M  V30 84 1 41 83
M  V30 85 1 41 84
M  V30 86 1 43 85
M  V30 END BOND
M  V30 END CTAB
M  END
