
     RDKit          3D

  0  0  0  0  0  0  0  0  0  0999 V3000
M  V30 BEGIN CTAB
M  V30 COUNTS 34 36 0 0 0
M  V30 BEGIN ATOM
M  V30 1 N 5.57089 -1.53584 0.362336 0
M  V30 2 C 4.67279 -0.466118 0.158429 0
M  V30 3 C 3.32343 -0.732685 0.145063 0
M  V30 4 C 2.42191 0.281257 -0.0497176 0
M  V30 5 N 2.92287 1.53121 -0.224235 0
M  V30 6 C 4.23102 1.82028 -0.216097 0
M  V30 7 N 4.74498 3.12312 -0.39834 0
M  V30 8 N 5.09656 0.812735 -0.0237335 0
M  V30 9 C 0.974444 0.0650371 -0.0728507 0
M  V30 10 C 0.407391 -1.17146 0.093457 0
M  V30 11 C -0.96236 -1.3076 0.0639199 0
M  V30 12 C -1.79115 -0.206698 -0.132934 0
M  V30 13 C -1.205 1.02797 -0.298405 0
M  V30 14 C 0.170052 1.17655 -0.270545 0
M  V30 15 C -3.23936 -0.369795 -0.159631 0
M  V30 16 C -4.08907 0.649695 0.28181 0
M  V30 17 C -5.46072 0.505694 0.261759 0
M  V30 18 C -6.04895 -0.654242 -0.196549 0
M  V30 19 C -5.21619 -1.65868 -0.631422 0
M  V30 20 C -3.84684 -1.5193 -0.613122 0
M  V30 21 H 5.89228 -1.76038 1.3152 0
M  V30 22 H 5.90097 -2.08716 -0.442693 0
M  V30 23 H 2.98648 -1.72792 0.286493 0
M  V30 24 H 5.37971 3.36388 -1.17946 0
M  V30 25 H 4.47813 3.8651 0.272542 0
M  V30 26 H 1.00467 -2.04688 0.247529 0
M  V30 27 H -1.4464 -2.2657 0.191014 0
M  V30 28 H -1.79856 1.91555 -0.454665 0
M  V30 29 H 0.635513 2.14059 -0.399344 0
M  V30 30 H -3.58526 1.54183 0.632967 0
M  V30 31 H -6.0939 1.33314 0.618506 0
M  V30 32 H -7.12633 -0.748387 -0.204468 0
M  V30 33 H -5.69179 -2.57297 -0.99235 0
M  V30 34 H -3.21221 -2.32181 -0.959795 0
M  V30 END ATOM
M  V30 BEGIN BOND
M  V30 1 1 1 2
M  V30 2 2 2 3
M  V30 3 1 3 4
M  V30 4 2 4 5
M  V30 5 1 5 6
M  V30 6 1 6 7
M  V30 7 2 6 8
M  V30 8 1 4 9
M  V30 9 2 9 10
M  V30 10 1 10 11
M  V30 11 2 11 12
M  V30 12 1 12 13
M  V30 13 2 13 14
M  V30 14 1 12 15
M  V30 15 2 15 16
M  V30 16 1 16 17
M  V30 17 2 17 18
M  V30 18 1 18 19
M  V30 19 2 19 20
M  V30 20 1 8 2
M  V30 21 1 14 9
M  V30 22 1 20 15
M  V30 23 1 1 21
M  V30 24 1 1 22
M  V30 25 1 3 23
M  V30 26 1 7 24
M  V30 27 1 7 25
M  V30 28 1 10 26
M  V30 29 1 11 27
M  V30 30 1 13 28
M  V30 31 1 14 29
M  V30 32 1 16 30
M  V30 33 1 17 31
M  V30 34 1 18 32
M  V30 35 1 19 33
M  V30 36 1 20 34
M  V30 END BOND
M  V30 END CTAB
M  END
