
     RDKit          3D

  0  0  0  0  0  0  0  0  0  0999 V3000
M  V30 BEGIN CTAB
M  V30 COUNTS 38 39 0 0 0
M  V30 BEGIN ATOM
M  V30 1 N -3.51249 2.51891 -0.475835 0
M  V30 2 C -2.73277 1.74233 0.44787 0
M  V30 3 C -1.778 0.795556 -0.268787 0
M  V30 4 N -1.03028 0.0547854 0.669967 0
M  V30 5 C -1.78547 -0.95129 1.38258 0
M  V30 6 C -2.15334 -2.12223 0.51961 0
M  V30 7 C -1.09429 -3.14332 0.323898 0
M  V30 8 O 0.0479253 -2.78766 -0.298237 0
M  V30 9 C 0.161926 -1.50178 -0.78005 0
M  V30 10 C 0.21677 -0.475922 0.324971 0 CFG=1
M  V30 11 C 1.36399 0.410654 0.159518 0
M  V30 12 C 1.36303 1.77396 0.0563928 0
M  V30 13 C 2.52741 2.50217 -0.129037 0
M  V30 14 C 3.753 1.88089 -0.217902 0
M  V30 15 C 3.7762 0.503137 -0.115015 0
M  V30 16 C 2.60931 -0.20878 0.0686174 0
M  V30 17 N 5.04149 -0.120625 -0.20966 0
M  V30 18 H -4.36353 2.05544 -0.807695 0
M  V30 19 H -3.75999 3.41261 -0.00947731 0
M  V30 20 H -3.31187 1.26972 1.22786 0
M  V30 21 H -2.04595 2.48394 0.962025 0
M  V30 22 H -2.51325 0.12735 -0.84853 0
M  V30 23 H -1.23953 1.29534 -1.0657 0
M  V30 24 H -2.68926 -0.523826 1.84229 0
M  V30 25 H -1.09653 -1.35541 2.16997 0
M  V30 26 H -3.01743 -2.62913 1.01853 0
M  V30 27 H -2.53315 -1.85454 -0.490678 0
M  V30 28 H -1.56836 -3.95249 -0.309848 0
M  V30 29 H -0.899667 -3.68943 1.29343 0
M  V30 30 H -0.641269 -1.2368 -1.50146 0
M  V30 31 H 1.11453 -1.47884 -1.37475 0
M  V30 32 H 0.515873 -1.1101 1.24498 0
M  V30 33 H 0.434473 2.29562 0.133356 0
M  V30 34 H 2.44332 3.58134 -0.203729 0
M  V30 35 H 4.6617 2.44017 -0.360611 0
M  V30 36 H 2.72369 -1.2857 0.138555 0
M  V30 37 H 5.23393 -0.737728 -1.01734 0
M  V30 38 H 5.77784 0.0216894 0.502263 0
M  V30 END ATOM
M  V30 BEGIN BOND
M  V30 1 1 1 2
M  V30 2 1 2 3
M  V30 3 1 3 4
M  V30 4 1 4 5
M  V30 5 1 5 6
M  V30 6 1 6 7
M  V30 7 1 7 8
M  V30 8 1 8 9
M  V30 9 1 9 10
M  V30 10 1 10 11
M  V30 11 2 11 12
M  V30 12 1 12 13
M  V30 13 2 13 14
M  V30 14 1 14 15
M  V30 15 2 15 16
M  V30 16 1 15 17
M  V30 17 1 10 4
M  V30 18 1 16 11
M  V30 19 1 1 18
M  V30 20 1 1 19
M  V30 21 1 2 20
M  V30 22 1 2 21
M  V30 23 1 3 22
M  V30 24 1 3 23
M  V30 25 1 5 24
M  V30 26 1 5 25
M  V30 27 1 6 26
M  V30 28 1 6 27
M  V30 29 1 7 28
M  V30 30 1 7 29
M  V30 31 1 9 30
M  V30 32 1 9 31
M  V30 33 1 10 32 CFG=1
M  V30 34 1 12 33
M  V30 35 1 13 34
M  V30 36 1 14 35
M  V30 37 1 16 36
M  V30 38 1 17 37
M  V30 39 1 17 38
M  V30 END BOND
M  V30 END CTAB
M  END
