
     RDKit          3D

  0  0  0  0  0  0  0  0  0  0999 V3000
M  V30 BEGIN CTAB
M  V30 COUNTS 26 27 0 0 0
M  V30 BEGIN ATOM
M  V30 1 C 3.21173 -1.88712 0.316578 0
M  V30 2 C 2.88186 -0.433362 0.225003 0
M  V30 3 C 1.42388 -0.182698 0.0897693 0
M  V30 4 N 0.408003 -1.05795 0.041366 0
M  V30 5 C -0.760345 -0.406053 -0.0866668 0
M  V30 6 N -0.453098 0.891745 -0.11713 0
M  V30 7 C 0.891054 1.08329 -0.0108961 0
M  V30 8 N 1.58147 2.33465 -0.00663207 0
M  V30 9 N -1.36057 1.91838 -0.239972 0
M  V30 10 C -2.07996 -1.07726 -0.170447 0
M  V30 11 C -3.24484 -0.517573 0.628098 0
M  V30 12 C -3.21569 -0.494635 -0.899583 0
M  V30 13 H 2.51254 -2.45586 0.971673 0
M  V30 14 H 4.22251 -1.98797 0.8046 0
M  V30 15 H 3.28814 -2.31826 -0.701129 0
M  V30 16 H 3.36645 -0.0428431 -0.712702 0
M  V30 17 H 3.33657 0.130631 1.05365 0
M  V30 18 H 2.33906 2.53337 -0.685208 0
M  V30 19 H 1.33382 3.06966 0.680608 0
M  V30 20 H -1.77655 2.34971 0.606135 0
M  V30 21 H -1.62745 2.26113 -1.1782 0
M  V30 22 H -2.07014 -2.20123 -0.137955 0
M  V30 23 H -3.01596 0.387126 1.19112 0
M  V30 24 H -3.99789 -1.21745 1.06589 0
M  V30 25 H -3.93991 -1.18926 -1.41822 0
M  V30 26 H -3.25469 0.509821 -1.30974 0
M  V30 END ATOM
M  V30 BEGIN BOND
M  V30 1 1 1 2
M  V30 2 1 2 3
M  V30 3 1 3 4
M  V30 4 2 4 5
M  V30 5 1 5 6
M  V30 6 1 6 7
M  V30 7 1 7 8
M  V30 8 1 6 9
M  V30 9 1 5 10
M  V30 10 1 10 11
M  V30 11 1 11 12
M  V30 12 2 7 3
M  V30 13 1 12 10
M  V30 14 1 1 13
M  V30 15 1 1 14
M  V30 16 1 1 15
M  V30 17 1 2 16
M  V30 18 1 2 17
M  V30 19 1 8 18
M  V30 20 1 8 19
M  V30 21 1 9 20
M  V30 22 1 9 21
M  V30 23 1 10 22
M  V30 24 1 11 23
M  V30 25 1 11 24
M  V30 26 1 12 25
M  V30 27 1 12 26
M  V30 END BOND
M  V30 END CTAB
M  END
