
     RDKit          3D

  0  0  0  0  0  0  0  0  0  0999 V3000
M  V30 BEGIN CTAB
M  V30 COUNTS 28 29 0 0 0
M  V30 BEGIN ATOM
M  V30 1 N 4.28263 -0.553787 -0.947055 0
M  V30 2 C 2.87961 -0.382362 -0.764483 0
M  V30 3 C 1.98023 -0.557954 -1.80058 0
M  V30 4 C 0.625677 -0.388642 -1.60891 0
M  V30 5 C 0.0976247 -0.0349521 -0.372167 0
M  V30 6 C 0.995677 0.139198 0.65762 0
M  V30 7 C 2.34899 -0.031838 0.458555 0
M  V30 8 N 3.25371 0.15579 1.54523 0
M  V30 9 N -1.30433 0.136768 -0.188087 0
M  V30 10 C -2.35819 -0.0110797 -1.16669 0
M  V30 11 C -3.61537 -0.194505 -0.349802 0
M  V30 12 C -3.34482 0.76705 0.813886 0
M  V30 13 C -1.89559 0.505255 1.08351 0
M  V30 14 H 4.92275 -0.993417 -0.253033 0
M  V30 15 H 4.70525 -0.216751 -1.83794 0
M  V30 16 H 2.36585 -0.832762 -2.77052 0
M  V30 17 H -0.0890123 -0.523241 -2.41232 0
M  V30 18 H 0.578696 0.418276 1.63333 0
M  V30 19 H 2.95896 0.654256 2.41259 0
M  V30 20 H 4.23555 -0.195157 1.51414 0
M  V30 21 H -2.49462 0.914195 -1.76179 0
M  V30 22 H -2.16806 -0.859888 -1.85594 0
M  V30 23 H -4.52446 0.104414 -0.89369 0
M  V30 24 H -3.70382 -1.21549 0.0470185 0
M  V30 25 H -3.99159 0.501402 1.6774 0
M  V30 26 H -3.53038 1.77354 0.420404 0
M  V30 27 H -1.84515 -0.42689 1.71835 0
M  V30 28 H -1.36577 1.34857 1.56421 0
M  V30 END ATOM
M  V30 BEGIN BOND
M  V30 1 1 1 2
M  V30 2 2 2 3
M  V30 3 1 3 4
M  V30 4 2 4 5
M  V30 5 1 5 6
M  V30 6 2 6 7
M  V30 7 1 7 8
M  V30 8 1 5 9
M  V30 9 1 9 10
M  V30 10 1 10 11
M  V30 11 1 11 12
M  V30 12 1 12 13
M  V30 13 1 7 2
M  V30 14 1 13 9
M  V30 15 1 1 14
M  V30 16 1 1 15
M  V30 17 1 3 16
M  V30 18 1 4 17
M  V30 19 1 6 18
M  V30 20 1 8 19
M  V30 21 1 8 20
M  V30 22 1 10 21
M  V30 23 1 10 22
M  V30 24 1 11 23
M  V30 25 1 11 24
M  V30 26 1 12 25
M  V30 27 1 12 26
M  V30 28 1 13 27
M  V30 29 1 13 28
M  V30 END BOND
M  V30 END CTAB
M  END
