
     RDKit          3D

  0  0  0  0  0  0  0  0  0  0999 V3000
M  V30 BEGIN CTAB
M  V30 COUNTS 30 30 0 0 0
M  V30 BEGIN ATOM
M  V30 1 N 3.58111 0.29742 -1.4709 0
M  V30 2 C 3.82945 0.557933 -0.112804 0
M  V30 3 S 5.35343 0.47435 0.437933 0
M  V30 4 N 2.79392 0.892561 0.798457 0
M  V30 5 N 1.49015 0.959951 0.308235 0
M  V30 6 C 0.788147 -0.129196 0.325885 0
M  V30 7 C -0.564062 -0.0984836 -0.172751 0
M  V30 8 N -1.08142 0.970714 -0.628185 0
M  V30 9 N -0.438254 2.17754 -0.696711 0
M  V30 10 C -0.783947 3.18773 0.241027 0
M  V30 11 N -0.123995 4.43395 0.175023 0
M  V30 12 S -1.91696 2.89514 1.35739 0
M  V30 13 C -1.35018 -1.34429 -0.146386 0
M  V30 14 C -0.843663 -2.50854 0.329072 0
M  V30 15 C -1.60605 -3.68843 0.347538 0
M  V30 16 C -2.88229 -3.60395 -0.137184 0
M  V30 17 C -3.40345 -2.42481 -0.621688 0
M  V30 18 C -2.64035 -1.27903 -0.631354 0
M  V30 19 H 3.16841 0.995192 -2.14759 0
M  V30 20 H 3.80033 -0.637562 -1.90019 0
M  V30 21 H 2.9871 1.08489 1.80718 0
M  V30 22 H 1.23122 -1.04648 0.716277 0
M  V30 23 H 0.307294 2.37346 -1.4434 0
M  V30 24 H 0.906006 4.5071 -0.0588345 0
M  V30 25 H -0.593766 5.35459 0.348369 0
M  V30 26 H 0.151769 -2.59493 0.712282 0
M  V30 27 H -1.19958 -4.615 0.727157 0
M  V30 28 H -3.49906 -4.49374 -0.138455 0
M  V30 29 H -4.41339 -2.36804 -1.00275 0
M  V30 30 H -3.04792 -0.330058 -1.01699 0
M  V30 END ATOM
M  V30 BEGIN BOND
M  V30 1 1 1 2
M  V30 2 2 2 3
M  V30 3 1 2 4
M  V30 4 1 4 5
M  V30 5 2 5 6 CFG=2
M  V30 6 1 6 7
M  V30 7 2 7 8 CFG=2
M  V30 8 1 8 9
M  V30 9 1 9 10
M  V30 10 1 10 11
M  V30 11 2 10 12
M  V30 12 1 7 13
M  V30 13 2 13 14
M  V30 14 1 14 15
M  V30 15 2 15 16
M  V30 16 1 16 17
M  V30 17 2 17 18
M  V30 18 1 18 13
M  V30 19 1 1 19
M  V30 20 1 1 20
M  V30 21 1 4 21
M  V30 22 1 6 22
M  V30 23 1 9 23
M  V30 24 1 11 24
M  V30 25 1 11 25
M  V30 26 1 14 26
M  V30 27 1 15 27
M  V30 28 1 16 28
M  V30 29 1 17 29
M  V30 30 1 18 30
M  V30 END BOND
M  V30 END CTAB
M  END
