
     RDKit          3D

  0  0  0  0  0  0  0  0  0  0999 V3000
M  V30 BEGIN CTAB
M  V30 COUNTS 34 35 0 0 0
M  V30 BEGIN ATOM
M  V30 1 N 4.80863 1.10042 0.000383774 0
M  V30 2 C 4.10765 -0.0843701 0.477806 0
M  V30 3 C 2.63676 0.237859 0.470913 0
M  V30 4 C 2.15151 0.593465 -0.9324 0
M  V30 5 C 0.642195 0.404277 -0.72024 0
M  V30 6 N 0.529331 -0.787678 0.0543059 0
M  V30 7 C 1.78109 -0.968382 0.763396 0
M  V30 8 C -0.540043 -0.816599 0.99829 0
M  V30 9 C -1.88026 -0.673631 0.414223 0
M  V30 10 C -2.59722 -1.77989 -0.0206116 0
M  V30 11 C -3.85642 -1.66006 -0.570175 0
M  V30 12 C -4.45994 -0.428539 -0.711695 0
M  V30 13 C -3.76939 0.687091 -0.287663 0
M  V30 14 C -2.49314 0.55315 0.268063 0
M  V30 15 N -4.33125 1.98406 -0.403763 0
M  V30 16 H 4.83594 1.84905 0.736493 0
M  V30 17 H 5.79754 0.851137 -0.188491 0
M  V30 18 H 4.30476 -0.921456 -0.192126 0
M  V30 19 H 4.39135 -0.324948 1.5105 0
M  V30 20 H 2.39165 1.04768 1.17104 0
M  V30 21 H 2.39982 1.61494 -1.2094 0
M  V30 22 H 2.5516 -0.176769 -1.6145 0
M  V30 23 H 0.324688 1.29875 -0.14235 0
M  V30 24 H 0.191321 0.356933 -1.72239 0
M  V30 25 H 2.27528 -1.88008 0.322072 0
M  V30 26 H 1.64089 -1.09529 1.85183 0
M  V30 27 H -0.336857 0.00508383 1.74635 0
M  V30 28 H -0.431809 -1.75676 1.59234 0
M  V30 29 H -2.15863 -2.76658 0.072726 0
M  V30 30 H -4.41879 -2.51936 -0.910352 0
M  V30 31 H -5.44886 -0.313925 -1.14118 0
M  V30 32 H -1.95069 1.42453 0.60109 0
M  V30 33 H -4.5525 2.59509 0.406421 0
M  V30 34 H -4.53622 2.35081 -1.35402 0
M  V30 END ATOM
M  V30 BEGIN BOND
M  V30 1 1 1 2
M  V30 2 1 2 3
M  V30 3 1 3 4
M  V30 4 1 4 5
M  V30 5 1 5 6
M  V30 6 1 6 7
M  V30 7 1 6 8
M  V30 8 1 8 9
M  V30 9 2 9 10
M  V30 10 1 10 11
M  V30 11 2 11 12
M  V30 12 1 12 13
M  V30 13 2 13 14
M  V30 14 1 13 15
M  V30 15 1 7 3
M  V30 16 1 14 9
M  V30 17 1 1 16
M  V30 18 1 1 17
M  V30 19 1 2 18
M  V30 20 1 2 19
M  V30 21 1 3 20
M  V30 22 1 4 21
M  V30 23 1 4 22
M  V30 24 1 5 23
M  V30 25 1 5 24
M  V30 26 1 7 25
M  V30 27 1 7 26
M  V30 28 1 8 27
M  V30 29 1 8 28
M  V30 30 1 10 29
M  V30 31 1 11 30
M  V30 32 1 12 31
M  V30 33 1 14 32
M  V30 34 1 15 33
M  V30 35 1 15 34
M  V30 END BOND
M  V30 END CTAB
M  END
