
     RDKit          3D

  0  0  0  0  0  0  0  0  0  0999 V3000
M  V30 BEGIN CTAB
M  V30 COUNTS 27 28 0 0 0
M  V30 BEGIN ATOM
M  V30 1 F 4.50261 0.225015 -1.00311 0
M  V30 2 C 3.54502 0.266787 -0.021025 0
M  V30 3 C 3.14827 -1.09964 0.479634 0
M  V30 4 C 1.92165 -1.39013 -0.359742 0
M  V30 5 N 1.24334 -0.11737 -0.352245 0
M  V30 6 C 2.26429 0.880233 -0.58628 0
M  V30 7 C -0.151979 0.136505 -0.155931 0
M  V30 8 C -0.619897 1.43164 -0.199265 0
M  V30 9 C -1.98317 1.67891 -0.00677431 0
M  V30 10 C -2.86308 0.642871 0.22553 0
M  V30 11 C -2.34331 -0.643789 0.259904 0
M  V30 12 N -1.02719 -0.845898 0.0707722 0
M  V30 13 N -3.25066 -1.72416 0.500547 0
M  V30 14 N -4.23638 0.874967 0.420982 0
M  V30 15 H 3.87323 0.935421 0.818067 0
M  V30 16 H 2.88788 -1.02296 1.55026 0
M  V30 17 H 3.94786 -1.85155 0.292345 0
M  V30 18 H 2.28349 -1.55753 -1.40179 0
M  V30 19 H 1.3206 -2.21819 0.0257294 0
M  V30 20 H 2.05276 1.85773 -0.141173 0
M  V30 21 H 2.36997 0.948064 -1.70749 0
M  V30 22 H 0.0730883 2.24341 -0.382286 0
M  V30 23 H -2.30416 2.7084 -0.0492377 0
M  V30 24 H -3.36015 -2.46619 -0.224108 0
M  V30 25 H -3.81691 -1.81382 1.37101 0
M  V30 26 H -4.54628 1.55844 1.12304 0
M  V30 27 H -4.93088 0.362829 -0.136461 0
M  V30 END ATOM
M  V30 BEGIN BOND
M  V30 1 1 1 2
M  V30 2 1 2 3
M  V30 3 1 3 4
M  V30 4 1 4 5
M  V30 5 1 5 6
M  V30 6 1 5 7
M  V30 7 2 7 8
M  V30 8 1 8 9
M  V30 9 2 9 10
M  V30 10 1 10 11
M  V30 11 2 11 12
M  V30 12 1 11 13
M  V30 13 1 10 14
M  V30 14 1 6 2
M  V30 15 1 12 7
M  V30 16 1 2 15
M  V30 17 1 3 16
M  V30 18 1 3 17
M  V30 19 1 4 18
M  V30 20 1 4 19
M  V30 21 1 6 20
M  V30 22 1 6 21
M  V30 23 1 8 22
M  V30 24 1 9 23
M  V30 25 1 13 24
M  V30 26 1 13 25
M  V30 27 1 14 26
M  V30 28 1 14 27
M  V30 END BOND
M  V30 END CTAB
M  END
