
     RDKit          3D

  0  0  0  0  0  0  0  0  0  0999 V3000
M  V30 BEGIN CTAB
M  V30 COUNTS 36 38 0 0 0
M  V30 BEGIN ATOM
M  V30 1 N -7.03102 2.97552 -0.925383 0
M  V30 2 C -5.81749 2.40578 -0.459234 0
M  V30 3 N -4.96142 1.70529 -1.24089 0
M  V30 4 C -3.95596 1.24654 -0.487172 0
M  V30 5 N -4.18578 1.67689 0.785823 0
M  V30 6 N -5.32665 2.38024 0.785281 0
M  V30 7 S -2.70382 0.114634 -1.10183 0
M  V30 8 C -1.7429 -0.426363 0.290189 0
M  V30 9 C -0.860774 -1.58789 0.0409268 0
M  V30 10 C -1.33813 -2.8627 0.0510893 0
M  V30 11 C -0.44702 -3.97412 0.070988 0
M  V30 12 C 0.896796 -3.71655 0.0652073 0
M  V30 13 C 1.32954 -2.39043 0.0542664 0
M  V30 14 C 0.473136 -1.35504 0.0460471 0
M  V30 15 C 0.946489 0.0873857 -0.00878728 0
M  V30 16 S 2.46711 0.407753 0.458306 0
M  V30 17 C 4.08125 0.445179 0.0561383 0
M  V30 18 N 5.01832 -0.446349 -0.28265 0
M  V30 19 N 6.20097 0.122991 -0.355982 0
M  V30 20 C 6.10441 1.41185 -0.071259 0
M  V30 21 N 4.82072 1.65805 0.183861 0
M  V30 22 N 7.09842 2.47404 0.00174932 0
M  V30 23 H -7.87208 2.34247 -1.01842 0
M  V30 24 H -7.09301 3.95853 -1.18505 0
M  V30 25 H -3.57466 1.44854 1.59442 0
M  V30 26 H -1.30748 0.288896 0.982766 0
M  V30 27 H -2.61689 -0.896134 1.0027 0
M  V30 28 H -2.41373 -3.06585 0.108441 0
M  V30 29 H -0.866295 -4.97363 0.110303 0
M  V30 30 H 1.58276 -4.5576 0.0508671 0
M  V30 31 H 2.42559 -2.26436 0.0273253 0
M  V30 32 H 0.802507 0.269652 -1.2278 0
M  V30 33 H 0.150642 0.809368 0.315639 0
M  V30 34 H 4.86652 -1.47021 -0.482151 0
M  V30 35 H 7.95834 2.43612 -0.51911 0
M  V30 36 H 6.89161 3.3215 0.629061 0
M  V30 END ATOM
M  V30 BEGIN BOND
M  V30 1 1 1 2
M  V30 2 1 2 3
M  V30 3 2 3 4
M  V30 4 1 4 5
M  V30 5 1 5 6
M  V30 6 1 4 7
M  V30 7 1 7 8
M  V30 8 1 8 9
M  V30 9 2 9 10
M  V30 10 1 10 11
M  V30 11 2 11 12
M  V30 12 1 12 13
M  V30 13 2 13 14
M  V30 14 1 14 15
M  V30 15 1 15 16
M  V30 16 1 16 17
M  V30 17 1 17 18
M  V30 18 1 18 19
M  V30 19 2 19 20
M  V30 20 1 20 21
M  V30 21 1 20 22
M  V30 22 2 6 2
M  V30 23 1 14 9
M  V30 24 2 21 17
M  V30 25 1 1 23
M  V30 26 1 1 24
M  V30 27 1 5 25
M  V30 28 1 8 26
M  V30 29 1 8 27
M  V30 30 1 10 28
M  V30 31 1 11 29
M  V30 32 1 12 30
M  V30 33 1 13 31
M  V30 34 1 15 32
M  V30 35 1 15 33
M  V30 36 1 18 34
M  V30 37 1 22 35
M  V30 38 1 22 36
M  V30 END BOND
M  V30 END CTAB
M  END
