
     RDKit          3D

  0  0  0  0  0  0  0  0  0  0999 V3000
M  V30 BEGIN CTAB
M  V30 COUNTS 58 60 0 0 0
M  V30 BEGIN ATOM
M  V30 1 C 9.6507 -1.11005 0.90711 0
M  V30 2 C 9.15292 0.0515638 0.0739345 0
M  V30 3 N 7.786 -0.0993843 -0.32436 0
M  V30 4 C 6.73041 0.398739 0.49051 0
M  V30 5 O 7.01022 0.982961 1.5808 0
M  V30 6 C 5.30758 0.275129 0.138929 0
M  V30 7 S 4.72272 1.70799 -0.842321 0
M  V30 8 C 2.98379 1.41425 -1.1918 0
M  V30 9 N 2.55157 0.755822 -2.27501 0
M  V30 10 N 1.24857 0.714299 -2.23186 0
M  V30 11 C 0.83757 1.34361 -1.1245 0
M  V30 12 N 1.92345 1.77843 -0.479185 0
M  V30 13 N 1.9956 2.4929 0.730531 0
M  V30 14 S -0.834571 1.5566 -0.614347 0
M  V30 15 C -1.31525 0.133817 0.419735 0
M  V30 16 C -2.75219 0.377836 0.822536 0
M  V30 17 N -3.04708 1.04799 1.93902 0
M  V30 18 C -4.35038 1.24351 2.26165 0
M  V30 19 N -4.62308 1.96107 3.45714 0
M  V30 20 N -5.31269 0.763834 1.45939 0
M  V30 21 C -5.06416 0.0944438 0.344073 0
M  V30 22 N -3.74612 -0.0798209 0.056935 0
M  V30 23 N -6.00089 -0.442091 -0.551971 0
M  V30 24 C -7.39663 -0.411141 -0.502739 0
M  V30 25 C -8.13585 0.181181 0.480863 0
M  V30 26 C -9.54099 0.191833 0.496117 0
M  V30 27 C -10.2366 -0.415293 -0.514433 0
M  V30 28 C -9.52524 -1.02243 -1.52269 0
M  V30 29 C -8.15127 -1.02333 -1.52191 0
M  V30 30 C -7.4369 -1.68649 -2.62339 0
M  V30 31 C 7.46213 -0.755961 -1.55297 0
M  V30 32 C 7.28556 -2.24211 -1.30102 0
M  V30 33 H 10.2379 -1.83415 0.292143 0
M  V30 34 H 10.2575 -0.77962 1.77307 0
M  V30 35 H 8.79137 -1.67852 1.30732 0
M  V30 36 H 9.24983 0.959605 0.702508 0
M  V30 37 H 9.85582 0.169451 -0.768306 0
M  V30 38 H 5.1037 -0.619159 -0.507786 0
M  V30 39 H 4.67704 0.148349 1.04826 0
M  V30 40 H 2.38011 3.4618 0.698023 0
M  V30 41 H 1.69419 2.12179 1.6432 0
M  V30 42 H -0.664244 0.00656734 1.28278 0
M  V30 43 H -1.33145 -0.795267 -0.202904 0
M  V30 44 H -4.05918 1.80802 4.3347 0
M  V30 45 H -5.38345 2.67168 3.54311 0
M  V30 46 H -5.59915 -0.953385 -1.40356 0
M  V30 47 H -7.6603 0.674511 1.30213 0
M  V30 48 H -10.0957 0.668891 1.28829 0
M  V30 49 H -11.3218 -0.413983 -0.51446 0
M  V30 50 H -10.1084 -1.49256 -2.30524 0
M  V30 51 H -6.83487 -2.55902 -2.28327 0
M  V30 52 H -8.13609 -1.98219 -3.42692 0
M  V30 53 H -6.6945 -0.999163 -3.12547 0
M  V30 54 H 6.53133 -0.298564 -1.95024 0
M  V30 55 H 8.25707 -0.645272 -2.31423 0
M  V30 56 H 8.22363 -2.79788 -1.54002 0
M  V30 57 H 7.03456 -2.42045 -0.236859 0
M  V30 58 H 6.41632 -2.6012 -1.8881 0
M  V30 END ATOM
M  V30 BEGIN BOND
M  V30 1 1 1 2
M  V30 2 1 2 3
M  V30 3 1 3 4
M  V30 4 2 4 5
M  V30 5 1 4 6
M  V30 6 1 6 7
M  V30 7 1 7 8
M  V30 8 2 8 9
M  V30 9 1 9 10
M  V30 10 2 10 11
M  V30 11 1 11 12
M  V30 12 1 12 13
M  V30 13 1 11 14
M  V30 14 1 14 15
M  V30 15 1 15 16
M  V30 16 2 16 17
M  V30 17 1 17 18
M  V30 18 1 18 19
M  V30 19 2 18 20
M  V30 20 1 20 21
M  V30 21 2 21 22
M  V30 22 1 21 23
M  V30 23 1 23 24
M  V30 24 2 24 25
M  V30 25 1 25 26
M  V30 26 2 26 27
M  V30 27 1 27 28
M  V30 28 2 28 29
M  V30 29 1 29 30
M  V30 30 1 3 31
M  V30 31 1 31 32
M  V30 32 1 12 8
M  V30 33 1 22 16
M  V30 34 1 29 24
M  V30 35 1 1 33
M  V30 36 1 1 34
M  V30 37 1 1 35
M  V30 38 1 2 36
M  V30 39 1 2 37
M  V30 40 1 6 38
M  V30 41 1 6 39
M  V30 42 1 13 40
M  V30 43 1 13 41
M  V30 44 1 15 42
M  V30 45 1 15 43
M  V30 46 1 19 44
M  V30 47 1 19 45
M  V30 48 1 23 46
M  V30 49 1 25 47
M  V30 50 1 26 48
M  V30 51 1 27 49
M  V30 52 1 28 50
M  V30 53 1 30 51
M  V30 54 1 30 52
M  V30 55 1 30 53
M  V30 56 1 31 54
M  V30 57 1 31 55
M  V30 58 1 32 56
M  V30 59 1 32 57
M  V30 60 1 32 58
M  V30 END BOND
M  V30 END CTAB
M  END
