
     RDKit          3D

  0  0  0  0  0  0  0  0  0  0999 V3000
M  V30 BEGIN CTAB
M  V30 COUNTS 28 29 0 0 0
M  V30 BEGIN ATOM
M  V30 1 C -3.94198 -0.0775431 0.668868 0
M  V30 2 C -2.66927 0.237718 -0.0511403 0
M  V30 3 O -2.75975 1.16141 -1.08083 0
M  V30 4 C -1.48965 0.578656 0.862463 0
M  V30 5 N -0.648685 -0.101101 -0.124427 0
M  V30 6 C -1.79262 -0.960861 -0.382124 0
M  V30 7 C 0.699504 0.0372824 -0.605234 0
M  V30 8 N 0.963415 0.292607 -1.89482 0
M  V30 9 C 2.23231 0.418176 -2.32295 0
M  V30 10 C 3.31923 0.295858 -1.48564 0
M  V30 11 C 3.08045 0.0331231 -0.152694 0
M  V30 12 C 1.7546 -0.0910702 0.257955 0
M  V30 13 N 1.48038 -0.359218 1.61298 0
M  V30 14 N 4.08597 -0.115776 0.809015 0
M  V30 15 H -3.98626 0.351492 1.6895 0
M  V30 16 H -4.80948 0.294064 0.108591 0
M  V30 17 H -4.02314 -1.17713 0.758551 0
M  V30 18 H -3.39606 0.818667 -1.78064 0
M  V30 19 H -1.28912 1.65606 0.957463 0
M  V30 20 H -1.45981 -0.0133958 1.80135 0
M  V30 21 H -1.88265 -1.33372 -1.41621 0
M  V30 22 H -1.91528 -1.72156 0.42172 0
M  V30 23 H 2.40353 0.625112 -3.37583 0
M  V30 24 H 4.34685 0.396515 -1.82697 0
M  V30 25 H 1.30936 -1.32471 1.9246 0
M  V30 26 H 1.45126 0.413378 2.29222 0
M  V30 27 H 3.96268 -0.749341 1.62089 0
M  V30 28 H 4.97422 0.41531 0.713351 0
M  V30 END ATOM
M  V30 BEGIN BOND
M  V30 1 1 1 2
M  V30 2 1 2 3
M  V30 3 1 2 4
M  V30 4 1 4 5
M  V30 5 1 5 6
M  V30 6 1 5 7
M  V30 7 2 7 8
M  V30 8 1 8 9
M  V30 9 2 9 10
M  V30 10 1 10 11
M  V30 11 2 11 12
M  V30 12 1 12 13
M  V30 13 1 11 14
M  V30 14 1 6 2
M  V30 15 1 12 7
M  V30 16 1 1 15
M  V30 17 1 1 16
M  V30 18 1 1 17
M  V30 19 1 3 18
M  V30 20 1 4 19
M  V30 21 1 4 20
M  V30 22 1 6 21
M  V30 23 1 6 22
M  V30 24 1 9 23
M  V30 25 1 10 24
M  V30 26 1 13 25
M  V30 27 1 13 26
M  V30 28 1 14 27
M  V30 29 1 14 28
M  V30 END BOND
M  V30 END CTAB
M  END
