
     RDKit          3D

  0  0  0  0  0  0  0  0  0  0999 V3000
M  V30 BEGIN CTAB
M  V30 COUNTS 46 47 0 0 0
M  V30 BEGIN ATOM
M  V30 1 N 7.42618 2.59879 -0.0976113 0
M  V30 2 C 6.47157 1.57662 -0.31214 0
M  V30 3 C 6.71048 0.464648 0.705212 0
M  V30 4 S 5.59372 -0.903495 0.408777 0
M  V30 5 C 3.89396 -0.273589 0.0940477 0
M  V30 6 C 3.01875 -1.47714 0.0394194 0
M  V30 7 N 3.52558 -2.68037 0.314231 0
M  V30 8 C 2.85713 -3.83398 0.319029 0
M  V30 9 C 1.518 -3.75499 0.0118301 0
M  V30 10 C 0.962206 -2.49807 -0.28412 0
M  V30 11 C 1.67573 -1.33196 -0.280634 0
M  V30 12 S 0.969285 0.251022 -0.624416 0
M  V30 13 S -0.738808 0.114054 -1.93701 0
M  V30 14 C -2.15237 -0.339748 -0.941659 0
M  V30 15 C -2.46759 -1.7514 -0.906671 0
M  V30 16 C -3.41171 -2.14979 -0.0114306 0
M  V30 17 C -4.06681 -1.29155 0.835542 0
M  V30 18 N -3.75349 0.0286269 0.752912 0
M  V30 19 C -2.81453 0.480168 -0.120176 0
M  V30 20 C -2.49363 1.9657 -0.0805804 0
M  V30 21 S -4.11882 2.76265 -0.403093 0
M  V30 22 C -5.48403 1.9512 0.355862 0
M  V30 23 C -6.86195 2.35309 -0.119443 0
M  V30 24 N -6.98889 1.94875 -1.55029 0
M  V30 25 H 7.57518 2.85151 0.885408 0
M  V30 26 H 8.33156 2.33297 -0.583892 0
M  V30 27 H 6.3938 1.19524 -1.30865 0
M  V30 28 H 5.45731 2.01293 -0.0512334 0
M  V30 29 H 7.75307 0.065806 0.445301 0
M  V30 30 H 6.65214 0.814427 1.73733 0
M  V30 31 H 3.88826 0.190682 -0.959002 0
M  V30 32 H 3.58076 0.476654 0.805961 0
M  V30 33 H 3.33452 -4.7812 0.552538 0
M  V30 34 H 0.875514 -4.66106 0.0163653 0
M  V30 35 H -0.0502138 -2.55173 -0.549617 0
M  V30 36 H -1.97757 -2.37765 -1.64162 0
M  V30 37 H -3.67596 -3.20987 0.0464147 0
M  V30 38 H -4.7746 -1.60633 1.57198 0
M  V30 39 H -2.18396 2.24231 0.967717 0
M  V30 40 H -1.7245 2.23598 -0.761314 0
M  V30 41 H -5.50019 0.876762 -0.0819443 0
M  V30 42 H -5.40006 1.84136 1.43438 0
M  V30 43 H -7.55183 1.64 0.400729 0
M  V30 44 H -7.04782 3.38223 -0.048895 0
M  V30 45 H -5.98249 1.89719 -1.92624 0
M  V30 46 H -7.24288 0.92255 -1.50124 0
M  V30 END ATOM
M  V30 BEGIN BOND
M  V30 1 1 1 2
M  V30 2 1 2 3
M  V30 3 1 3 4
M  V30 4 1 4 5
M  V30 5 1 5 6
M  V30 6 2 6 7
M  V30 7 1 7 8
M  V30 8 2 8 9
M  V30 9 1 9 10
M  V30 10 2 10 11
M  V30 11 1 11 12
M  V30 12 1 12 13
M  V30 13 1 13 14
M  V30 14 2 14 15
M  V30 15 1 15 16
M  V30 16 2 16 17
M  V30 17 1 17 18
M  V30 18 2 18 19
M  V30 19 1 19 20
M  V30 20 1 20 21
M  V30 21 1 21 22
M  V30 22 1 22 23
M  V30 23 1 23 24
M  V30 24 1 11 6
M  V30 25 1 19 14
M  V30 26 1 1 25
M  V30 27 1 1 26
M  V30 28 1 2 27
M  V30 29 1 2 28
M  V30 30 1 3 29
M  V30 31 1 3 30
M  V30 32 1 5 31
M  V30 33 1 5 32
M  V30 34 1 8 33
M  V30 35 1 9 34
M  V30 36 1 10 35
M  V30 37 1 15 36
M  V30 38 1 16 37
M  V30 39 1 17 38
M  V30 40 1 20 39
M  V30 41 1 20 40
M  V30 42 1 22 41
M  V30 43 1 22 42
M  V30 44 1 23 43
M  V30 45 1 23 44
M  V30 46 1 24 45
M  V30 47 1 24 46
M  V30 END BOND
M  V30 END CTAB
M  END
