
     RDKit          3D

  0  0  0  0  0  0  0  0  0  0999 V3000
M  V30 BEGIN CTAB
M  V30 COUNTS 34 36 0 0 0
M  V30 BEGIN ATOM
M  V30 1 N 3.51664 -2.92596 0.517123 0
M  V30 2 C 3.17943 -1.56032 0.383806 0
M  V30 3 N 1.9304 -1.15413 0.0189374 0
M  V30 4 C 1.66669 0.162134 -0.0921887 0
M  V30 5 C 2.66018 1.0801 0.163643 0
M  V30 6 N 2.14291 2.29717 -0.0165211 0
M  V30 7 C 0.850724 2.13862 -0.377956 0
M  V30 8 N 0.54743 0.829242 -0.427544 0
M  V30 9 C -0.753636 0.326914 -0.781996 0 CFG=2
M  V30 10 O -1.7162 1.25421 -0.344556 0
M  V30 11 C -2.93589 0.593207 -0.416181 0 CFG=2
M  V30 12 C -3.88773 1.2606 0.536438 0
M  V30 13 O -5.14484 0.664752 0.535402 0
M  V30 14 C -2.66456 -0.839934 -0.0693803 0 CFG=1
M  V30 15 O -3.21776 -1.63945 -1.07183 0
M  V30 16 C -1.14789 -0.916438 -0.0593583 0 CFG=1
M  V30 17 O -0.822664 -2.07089 -0.808546 0
M  V30 18 C 3.94502 0.677097 0.538555 0
M  V30 19 N 4.93005 1.65413 0.790346 0
M  V30 20 N 4.14887 -0.648458 0.632993 0
M  V30 21 H 3.91916 -3.42283 -0.294803 0
M  V30 22 H 3.37258 -3.44009 1.40066 0
M  V30 23 H 0.199817 2.99182 -0.585867 0
M  V30 24 H -0.856794 0.167016 -1.87495 0
M  V30 25 H -3.33595 0.735929 -1.44081 0
M  V30 26 H -4.03354 2.30412 0.187786 0
M  V30 27 H -3.49511 1.32565 1.57192 0
M  V30 28 H -5.35079 0.231284 -0.338395 0
M  V30 29 H -3.09086 -1.08611 0.923503 0
M  V30 30 H -3.29255 -1.16109 -1.93892 0
M  V30 31 H -0.730277 -0.994502 0.956825 0
M  V30 32 H -1.11377 -2.85489 -0.278084 0
M  V30 33 H 5.50704 2.00465 0.012738 0
M  V30 34 H 5.07386 2.01647 1.74349 0
M  V30 END ATOM
M  V30 BEGIN BOND
M  V30 1 1 1 2
M  V30 2 2 2 3
M  V30 3 1 3 4
M  V30 4 2 4 5
M  V30 5 1 5 6
M  V30 6 2 6 7
M  V30 7 1 7 8
M  V30 8 1 8 9
M  V30 9 1 9 10
M  V30 10 1 10 11
M  V30 11 1 11 12
M  V30 12 1 12 13
M  V30 13 1 11 14
M  V30 14 1 14 15
M  V30 15 1 14 16
M  V30 16 1 16 17
M  V30 17 1 5 18
M  V30 18 1 18 19
M  V30 19 2 18 20
M  V30 20 1 20 2
M  V30 21 1 8 4
M  V30 22 1 16 9
M  V30 23 1 1 21
M  V30 24 1 1 22
M  V30 25 1 7 23
M  V30 26 1 9 24 CFG=3
M  V30 27 1 11 25 CFG=3
M  V30 28 1 12 26
M  V30 29 1 12 27
M  V30 30 1 13 28
M  V30 31 1 14 29 CFG=1
M  V30 32 1 15 30
M  V30 33 1 16 31 CFG=1
M  V30 34 1 17 32
M  V30 35 1 19 33
M  V30 36 1 19 34
M  V30 END BOND
M  V30 END CTAB
M  END
