
     RDKit          3D

  0  0  0  0  0  0  0  0  0  0999 V3000
M  V30 BEGIN CTAB
M  V30 COUNTS 39 40 0 0 0
M  V30 BEGIN ATOM
M  V30 1 F 7.47619 -0.884219 -0.415191 0
M  V30 2 C 6.16506 -0.614787 -0.214748 0
M  V30 3 C 5.83641 0.340522 0.715983 0
M  V30 4 C 4.50013 0.612108 0.91726 0
M  V30 5 C 3.50542 -0.0385096 0.221296 0
M  V30 6 C 3.83434 -0.992189 -0.707804 0
M  V30 7 C 5.17289 -1.27926 -0.924322 0
M  V30 8 N 2.80443 -1.66268 -1.42525 0
M  V30 9 C 2.06509 0.26076 0.444714 0
M  V30 10 O 1.19084 -0.33096 -0.186717 0
M  V30 11 O 1.72717 1.18893 1.34807 0
M  V30 12 C 0.6087 1.76153 1.85116 0
M  V30 13 C -0.300147 2.55696 0.989832 0
M  V30 14 O -0.951576 2.03234 -0.0677624 0
M  V30 15 C -1.92473 1.08856 -0.16237 0
M  V30 16 C -2.38163 0.753552 -1.43186 0
M  V30 17 C -3.36168 -0.192165 -1.55834 0
M  V30 18 C -3.91777 -0.830238 -0.470172 0
M  V30 19 C -3.46574 -0.498283 0.783634 0
M  V30 20 C -2.46734 0.464097 0.928045 0
M  V30 21 S -5.16289 -2.03472 -0.600816 0
M  V30 22 O -5.09035 -2.78968 -1.89769 0
M  V30 23 O -5.01467 -2.99692 0.552563 0
M  V30 24 N -6.69998 -1.25399 -0.540652 0
M  V30 25 H 6.63547 0.833314 1.24545 0
M  V30 26 H 4.20548 1.36038 1.64439 0
M  V30 27 H 5.4728 -2.01393 -1.63768 0
M  V30 28 H 2.25224 -2.45953 -1.03021 0
M  V30 29 H 2.62101 -1.30376 -2.40572 0
M  V30 30 H 0.977307 2.48702 2.67019 0
M  V30 31 H 0.057366 1.00387 2.47841 0
M  V30 32 H -1.11329 2.98789 1.6906 0
M  V30 33 H 0.250822 3.52015 0.682682 0
M  V30 34 H -1.95386 1.24772 -2.30709 0
M  V30 35 H -3.75047 -0.486284 -2.5351 0
M  V30 36 H -3.8563 -0.958856 1.68992 0
M  V30 37 H -2.16321 0.688049 1.93013 0
M  V30 38 H -6.6563 -0.359972 -0.0273499 0
M  V30 39 H -7.12727 -1.20682 -1.47867 0
M  V30 END ATOM
M  V30 BEGIN BOND
M  V30 1 1 1 2
M  V30 2 2 2 3
M  V30 3 1 3 4
M  V30 4 2 4 5
M  V30 5 1 5 6
M  V30 6 2 6 7
M  V30 7 1 6 8
M  V30 8 1 5 9
M  V30 9 2 9 10
M  V30 10 1 9 11
M  V30 11 1 11 12
M  V30 12 1 12 13
M  V30 13 1 13 14
M  V30 14 1 14 15
M  V30 15 2 15 16
M  V30 16 1 16 17
M  V30 17 2 17 18
M  V30 18 1 18 19
M  V30 19 2 19 20
M  V30 20 1 18 21
M  V30 21 2 21 22
M  V30 22 2 21 23
M  V30 23 1 21 24
M  V30 24 1 7 2
M  V30 25 1 20 15
M  V30 26 1 3 25
M  V30 27 1 4 26
M  V30 28 1 7 27
M  V30 29 1 8 28
M  V30 30 1 8 29
M  V30 31 1 12 30
M  V30 32 1 12 31
M  V30 33 1 13 32
M  V30 34 1 13 33
M  V30 35 1 16 34
M  V30 36 1 17 35
M  V30 37 1 19 36
M  V30 38 1 20 37
M  V30 39 1 24 38
M  V30 40 1 24 39
M  V30 END BOND
M  V30 END CTAB
M  END
