
     RDKit          3D

  0  0  0  0  0  0  0  0  0  0999 V3000
M  V30 BEGIN CTAB
M  V30 COUNTS 27 28 0 0 0
M  V30 BEGIN ATOM
M  V30 1 N 2.76303 2.16671 0.864977 0
M  V30 2 C 2.64916 0.833535 0.399223 0
M  V30 3 C 3.78821 0.0687199 0.294774 0
M  V30 4 C 3.68186 -1.22851 -0.157792 0
M  V30 5 C 2.42848 -1.74611 -0.501981 0
M  V30 6 C 1.27687 -0.994443 -0.403667 0
M  V30 7 O 0.0460492 -1.55664 -0.759876 0
M  V30 8 C -1.13684 -0.821502 -0.67139 0
M  V30 9 C -1.88367 -0.826128 0.484891 0
M  V30 10 C -3.05136 -0.106967 0.587572 0
M  V30 11 N -3.78925 -0.140941 1.79896 0
M  V30 12 C -3.49101 0.645101 -0.503611 0
M  V30 13 C -2.756 0.664337 -1.67607 0
M  V30 14 C -1.59543 -0.0707585 -1.73042 0
M  V30 15 C 1.40417 0.301455 0.0512778 0
M  V30 16 H 2.39056 2.45388 1.79463 0
M  V30 17 H 3.22349 2.8993 0.289735 0
M  V30 18 H 4.74084 0.498081 0.568519 0
M  V30 19 H 4.56925 -1.83633 -0.243215 0
M  V30 20 H 2.35829 -2.75339 -0.851717 0
M  V30 21 H -1.52533 -1.42438 1.33971 0
M  V30 22 H -3.66106 0.59273 2.50837 0
M  V30 23 H -4.46326 -0.907167 1.9762 0
M  V30 24 H -4.40568 1.21401 -0.43628 0
M  V30 25 H -3.08881 1.25149 -2.54396 0
M  V30 26 H -0.986583 -0.0766706 -2.65037 0
M  V30 27 H 0.514031 0.900586 0.133393 0
M  V30 END ATOM
M  V30 BEGIN BOND
M  V30 1 1 1 2
M  V30 2 2 2 3
M  V30 3 1 3 4
M  V30 4 2 4 5
M  V30 5 1 5 6
M  V30 6 1 6 7
M  V30 7 1 7 8
M  V30 8 2 8 9
M  V30 9 1 9 10
M  V30 10 1 10 11
M  V30 11 2 10 12
M  V30 12 1 12 13
M  V30 13 2 13 14
M  V30 14 2 6 15
M  V30 15 1 15 2
M  V30 16 1 14 8
M  V30 17 1 1 16
M  V30 18 1 1 17
M  V30 19 1 3 18
M  V30 20 1 4 19
M  V30 21 1 5 20
M  V30 22 1 9 21
M  V30 23 1 11 22
M  V30 24 1 11 23
M  V30 25 1 12 24
M  V30 26 1 13 25
M  V30 27 1 14 26
M  V30 28 1 15 27
M  V30 END BOND
M  V30 END CTAB
M  END
