
     RDKit          3D

  0  0  0  0  0  0  0  0  0  0999 V3000
M  V30 BEGIN CTAB
M  V30 COUNTS 27 27 0 0 0
M  V30 BEGIN ATOM
M  V30 1 N 4.76239 -0.67712 1.15129 0
M  V30 2 C 3.72831 -0.537607 0.631451 0
M  V30 3 C 2.45152 -0.345074 0.00198325 0
M  V30 4 C 2.02178 -1.05653 -1.10071 0
M  V30 5 N 2.73587 -2.0745 -1.79331 0
M  V30 6 N 0.790535 -0.575517 -1.36877 0
M  V30 7 N 0.469666 0.375208 -0.491418 0
M  V30 8 C 1.4698 0.555632 0.381773 0
M  V30 9 N 1.52802 1.47084 1.47088 0
M  V30 10 C -0.796119 1.08183 -0.523491 0
M  V30 11 C -1.81375 0.336847 0.329444 0
M  V30 12 O -1.41657 0.229774 1.65072 0
M  V30 13 C -3.1087 1.14761 0.328285 0
M  V30 14 C -2.09206 -1.02824 -0.26221 0
M  V30 15 H 3.77473 -2.05403 -1.88876 0
M  V30 16 H 2.24348 -2.88255 -2.23309 0
M  V30 17 H 0.948526 2.33798 1.47901 0
M  V30 18 H 2.14713 1.30796 2.29245 0
M  V30 19 H -0.704788 2.13011 -0.239144 0
M  V30 20 H -1.21222 1.06745 -1.56273 0
M  V30 21 H -1.36542 -0.727753 1.91533 0
M  V30 22 H -2.94077 2.00585 0.981182 0
M  V30 23 H -3.93355 0.521264 0.720573 0
M  V30 24 H -3.28493 1.42726 -0.735517 0
M  V30 25 H -2.2531 -0.900892 -1.35314 0
M  V30 26 H -2.95122 -1.47682 0.256487 0
M  V30 27 H -1.19856 -1.65898 -0.0385558 0
M  V30 END ATOM
M  V30 BEGIN BOND
M  V30 1 3 1 2
M  V30 2 1 2 3
M  V30 3 1 3 4
M  V30 4 1 4 5
M  V30 5 2 4 6
M  V30 6 1 6 7
M  V30 7 1 7 8
M  V30 8 1 8 9
M  V30 9 1 7 10
M  V30 10 1 10 11
M  V30 11 1 11 12
M  V30 12 1 11 13
M  V30 13 1 11 14
M  V30 14 2 8 3
M  V30 15 1 5 15
M  V30 16 1 5 16
M  V30 17 1 9 17
M  V30 18 1 9 18
M  V30 19 1 10 19
M  V30 20 1 10 20
M  V30 21 1 12 21
M  V30 22 1 13 22
M  V30 23 1 13 23
M  V30 24 1 13 24
M  V30 25 1 14 25
M  V30 26 1 14 26
M  V30 27 1 14 27
M  V30 END BOND
M  V30 END CTAB
M  END
