
     RDKit          3D

  0  0  0  0  0  0  0  0  0  0999 V3000
M  V30 BEGIN CTAB
M  V30 COUNTS 22 23 0 0 0
M  V30 BEGIN ATOM
M  V30 1 N 3.95959 -0.210813 -0.923348 0
M  V30 2 C 2.66371 0.0377822 -0.387111 0
M  V30 3 N 2.47336 0.491107 0.847103 0
M  V30 4 N 1.16191 0.592474 1.02042 0
M  V30 5 C 0.495729 0.204993 -0.0986044 0
M  V30 6 N 1.45523 -0.140607 -0.972462 0
M  V30 7 C -0.989666 0.188723 -0.240848 0
M  V30 8 N -1.5489 0.77006 -1.40277 0
M  V30 9 C -1.56454 -1.23077 -0.0928703 0
M  V30 10 C -2.67163 -0.583198 0.732135 0
M  V30 11 C -1.66451 0.501159 1.08296 0
M  V30 12 H 4.37909 -1.14116 -0.741579 0
M  V30 13 H 4.51845 0.463827 -1.47494 0
M  V30 14 H 3.23099 0.725308 1.53866 0
M  V30 15 H -0.931985 1.278 -2.03732 0
M  V30 16 H -2.47292 1.21041 -1.21231 0
M  V30 17 H -0.940738 -1.87815 0.554993 0
M  V30 18 H -1.95904 -1.66499 -1.01734 0
M  V30 19 H -3.49779 -0.148075 0.11976 0
M  V30 20 H -2.98758 -1.14281 1.61267 0
M  V30 21 H -2.0611 1.5189 1.15789 0
M  V30 22 H -1.04766 0.157821 1.93491 0
M  V30 END ATOM
M  V30 BEGIN BOND
M  V30 1 1 1 2
M  V30 2 1 2 3
M  V30 3 1 3 4
M  V30 4 2 4 5
M  V30 5 1 5 6
M  V30 6 1 5 7
M  V30 7 1 7 8
M  V30 8 1 7 9
M  V30 9 1 9 10
M  V30 10 1 10 11
M  V30 11 2 6 2
M  V30 12 1 11 7
M  V30 13 1 1 12
M  V30 14 1 1 13
M  V30 15 1 3 14
M  V30 16 1 8 15
M  V30 17 1 8 16
M  V30 18 1 9 17
M  V30 19 1 9 18
M  V30 20 1 10 19
M  V30 21 1 10 20
M  V30 22 1 11 21
M  V30 23 1 11 22
M  V30 END BOND
M  V30 END CTAB
M  END
