
     RDKit          3D

  0  0  0  0  0  0  0  0  0  0999 V3000
M  V30 BEGIN CTAB
M  V30 COUNTS 17 17 0 0 0
M  V30 BEGIN ATOM
M  V30 1 C -2.28533 -1.24544 0.0129311 0
M  V30 2 C -0.939341 -0.584223 0.0124075 0
M  V30 3 C -0.855371 0.788265 -0.110346 0
M  V30 4 C 0.410364 1.33921 -0.104303 0
M  V30 5 N 0.514218 2.7512 -0.229808 0
M  V30 6 N 1.48643 0.540446 0.0176475 0
M  V30 7 C 1.39974 -0.796441 0.136998 0
M  V30 8 N 2.59671 -1.56116 0.261244 0
M  V30 9 N 0.175295 -1.32921 0.131133 0
M  V30 10 H -3.03099 -0.517277 0.358448 0
M  V30 11 H -2.58095 -1.55563 -1.0056 0
M  V30 12 H -2.27657 -2.1572 0.649772 0
M  V30 13 H -1.72923 1.42298 -0.208088 0
M  V30 14 H -0.0442535 3.35757 0.416316 0
M  V30 15 H 1.11332 3.2239 -0.926883 0
M  V30 16 H 2.89342 -2.12439 -0.561192 0
M  V30 17 H 3.15253 -1.55261 1.14932 0
M  V30 END ATOM
M  V30 BEGIN BOND
M  V30 1 1 1 2
M  V30 2 2 2 3
M  V30 3 1 3 4
M  V30 4 1 4 5
M  V30 5 2 4 6
M  V30 6 1 6 7
M  V30 7 1 7 8
M  V30 8 2 7 9
M  V30 9 1 9 2
M  V30 10 1 1 10
M  V30 11 1 1 11
M  V30 12 1 1 12
M  V30 13 1 3 13
M  V30 14 1 5 14
M  V30 15 1 5 15
M  V30 16 1 8 16
M  V30 17 1 8 17
M  V30 END BOND
M  V30 END CTAB
M  END
