
     RDKit          3D

  0  0  0  0  0  0  0  0  0  0999 V3000
M  V30 BEGIN CTAB
M  V30 COUNTS 90 93 0 0 0
M  V30 BEGIN ATOM
M  V30 1 C 1.46979 0.792918 -0.149512 0 CFG=2
M  V30 2 O 2.79472 0.603796 0.10936 0
M  V30 3 C 3.46614 -0.171164 -0.849332 0 CFG=1
M  V30 4 O 4.51165 0.540118 -1.44408 0
M  V30 5 C 5.8302 0.200298 -1.33516 0
M  V30 6 C 6.88719 1.21396 -1.30632 0
M  V30 7 N 8.21213 0.762306 -1.11409 0
M  V30 8 C 8.55953 0.28803 0.18323 0
M  V30 9 C 9.99858 -0.184753 0.16491 0
M  V30 10 O 10.2814 -0.640661 1.47161 0
M  V30 11 C 6.10479 -1.10675 -1.25356 0
M  V30 12 C 4.94525 -2.07572 -1.28355 0
M  V30 13 C 3.94772 -1.4671 -0.287864 0 CFG=1
M  V30 14 N 4.63353 -1.21171 0.966833 0
M  V30 15 C 1.1087 2.24845 -0.357143 0 CFG=1
M  V30 16 N 1.90627 2.85744 -1.38207 0
M  V30 17 C -0.333701 2.28724 -0.81204 0
M  V30 18 C -1.15127 1.8483 0.425062 0 CFG=1
M  V30 19 N -2.5025 2.22939 0.181904 0
M  V30 20 C -3.10474 3.31124 0.873817 0
M  V30 21 O -2.41521 3.93506 1.71663 0
M  V30 22 C -4.501 3.75411 0.663238 0
M  V30 23 O -4.81258 4.8663 1.44563 0
M  V30 24 C -5.51624 2.6773 1.05791 0
M  V30 25 C -6.66797 3.07075 0.128121 0
M  V30 26 N -5.94588 3.22609 -1.1183 0
M  V30 27 C -4.8396 4.06511 -0.759628 0
M  V30 28 C -0.880523 0.395309 0.579998 0 CFG=2
M  V30 29 O -1.61735 -0.278499 1.51796 0
M  V30 30 C -2.222 -1.42587 1.01038 0 CFG=1
M  V30 31 O -1.87773 -2.58588 1.69959 0
M  V30 32 C -2.1463 -3.65039 0.862709 0
M  V30 33 C -3.4911 -3.6483 0.218092 0 CFG=2
M  V30 34 C -4.07993 -5.0407 0.384997 0
M  V30 35 O -3.2709 -3.50045 -1.16928 0
M  V30 36 C -4.41787 -2.56182 0.640972 0 CFG=2
M  V30 37 N -5.29262 -2.1477 -0.439312 0
M  V30 38 C -6.16867 -3.17333 -0.910022 0
M  V30 39 C -3.72035 -1.31409 1.12383 0 CFG=1
M  V30 40 O -3.99826 -1.09994 2.47817 0
M  V30 41 C 0.608139 0.287692 0.971207 0 CFG=1
M  V30 42 O 0.947063 -1.04117 1.19749 0
M  V30 43 H 1.20131 0.266311 -1.07258 0
M  V30 44 H 2.66911 -0.441673 -1.60552 0
M  V30 45 H 6.86796 1.76063 -2.29482 0
M  V30 46 H 6.68249 2.00994 -0.554909 0
M  V30 47 H 8.60121 0.189414 -1.89556 0
M  V30 48 H 7.94744 -0.46902 0.646372 0
M  V30 49 H 8.51819 1.18057 0.870804 0
M  V30 50 H 10.7132 0.605824 -0.0789043 0
M  V30 51 H 10.1162 -1.06339 -0.501114 0
M  V30 52 H 9.5269 -1.14312 1.84079 0
M  V30 53 H 7.08246 -1.51422 -1.18705 0
M  V30 54 H 5.25698 -3.0807 -1.00858 0
M  V30 55 H 4.48914 -1.96897 -2.28323 0
M  V30 56 H 3.17314 -2.24372 -0.15749 0
M  V30 57 H 5.57157 -1.65062 1.00393 0
M  V30 58 H 4.05673 -1.36605 1.79684 0
M  V30 59 H 1.15075 2.79082 0.621656 0
M  V30 60 H 2.74011 3.3705 -0.96823 0
M  V30 61 H 1.32857 3.57977 -1.85415 0
M  V30 62 H -0.505497 1.4819 -1.55621 0
M  V30 63 H -0.653129 3.26148 -1.18155 0
M  V30 64 H -0.762592 2.46785 1.26313 0
M  V30 65 H -3.13219 1.7376 -0.51802 0
M  V30 66 H -4.31164 5.63486 1.0697 0
M  V30 67 H -5.77986 2.76886 2.11851 0
M  V30 68 H -5.07307 1.72524 0.761805 0
M  V30 69 H -7.0291 4.05054 0.502933 0
M  V30 70 H -7.45676 2.31751 0.0998831 0
M  V30 71 H -5.57433 2.28024 -1.37778 0
M  V30 72 H -5.06536 5.15509 -0.932908 0
M  V30 73 H -3.95632 3.8145 -1.3989 0
M  V30 74 H -0.947107 -0.126637 -0.399981 0
M  V30 75 H -1.93106 -1.47686 -0.0598231 0
M  V30 76 H -1.98753 -4.57148 1.50004 0
M  V30 77 H -1.30815 -3.69392 0.123325 0
M  V30 78 H -5.12558 -5.04906 0.68401 0
M  V30 79 H -3.8892 -5.68159 -0.526364 0
M  V30 80 H -3.52805 -5.59519 1.19873 0
M  V30 81 H -3.49554 -2.60031 -1.48532 0
M  V30 82 H -5.07597 -2.95132 1.44468 0
M  V30 83 H -5.81542 -1.28471 -0.198103 0
M  V30 84 H -6.87389 -2.67623 -1.62556 0
M  V30 85 H -5.66892 -3.95948 -1.48148 0
M  V30 86 H -6.82961 -3.56055 -0.0988915 0
M  V30 87 H -4.022 -0.40675 0.579691 0
M  V30 88 H -4.5744 -0.321681 2.60805 0
M  V30 89 H 0.783245 0.864464 1.91345 0
M  V30 90 H 0.657051 -1.55187 0.391047 0
M  V30 END ATOM
M  V30 BEGIN BOND
M  V30 1 1 1 2
M  V30 2 1 2 3
M  V30 3 1 3 4
M  V30 4 1 4 5
M  V30 5 1 5 6
M  V30 6 1 6 7
M  V30 7 1 7 8
M  V30 8 1 8 9
M  V30 9 1 9 10
M  V30 10 2 5 11
M  V30 11 1 11 12
M  V30 12 1 12 13
M  V30 13 1 13 14
M  V30 14 1 1 15
M  V30 15 1 15 16
M  V30 16 1 15 17
M  V30 17 1 17 18
M  V30 18 1 18 19
M  V30 19 1 19 20
M  V30 20 2 20 21
M  V30 21 1 20 22
M  V30 22 1 22 23
M  V30 23 1 22 24
M  V30 24 1 24 25
M  V30 25 1 25 26
M  V30 26 1 26 27
M  V30 27 1 18 28
M  V30 28 1 28 29
M  V30 29 1 29 30
M  V30 30 1 30 31
M  V30 31 1 31 32
M  V30 32 1 32 33
M  V30 33 1 33 34
M  V30 34 1 33 35 CFG=3
M  V30 35 1 33 36
M  V30 36 1 36 37
M  V30 37 1 37 38
M  V30 38 1 36 39
M  V30 39 1 39 40
M  V30 40 1 28 41
M  V30 41 1 41 42
M  V30 42 1 41 1
M  V30 43 1 13 3
M  V30 44 1 27 22
M  V30 45 1 39 30
M  V30 46 1 1 43 CFG=3
M  V30 47 1 3 44 CFG=3
M  V30 48 1 6 45
M  V30 49 1 6 46
M  V30 50 1 7 47
M  V30 51 1 8 48
M  V30 52 1 8 49
M  V30 53 1 9 50
M  V30 54 1 9 51
M  V30 55 1 10 52
M  V30 56 1 11 53
M  V30 57 1 12 54
M  V30 58 1 12 55
M  V30 59 1 13 56 CFG=1
M  V30 60 1 14 57
M  V30 61 1 14 58
M  V30 62 1 15 59 CFG=1
M  V30 63 1 16 60
M  V30 64 1 16 61
M  V30 65 1 17 62
M  V30 66 1 17 63
M  V30 67 1 18 64 CFG=1
M  V30 68 1 19 65
M  V30 69 1 23 66
M  V30 70 1 24 67
M  V30 71 1 24 68
M  V30 72 1 25 69
M  V30 73 1 25 70
M  V30 74 1 26 71
M  V30 75 1 27 72
M  V30 76 1 27 73
M  V30 77 1 28 74 CFG=3
M  V30 78 1 30 75 CFG=3
M  V30 79 1 32 76
M  V30 80 1 32 77
M  V30 81 1 34 78
M  V30 82 1 34 79
M  V30 83 1 34 80
M  V30 84 1 35 81
M  V30 85 1 36 82 CFG=1
M  V30 86 1 37 83
M  V30 87 1 38 84
M  V30 88 1 38 85
M  V30 89 1 38 86
M  V30 90 1 39 87 CFG=3
M  V30 91 1 40 88
M  V30 92 1 41 89 CFG=1
M  V30 93 1 42 90
M  V30 END BOND
M  V30 END CTAB
M  END
