
     RDKit          3D

  0  0  0  0  0  0  0  0  0  0999 V3000
M  V30 BEGIN CTAB
M  V30 COUNTS 16 17 0 0 0
M  V30 BEGIN ATOM
M  V30 1 N -2.53645 -0.597172 0.648384 0
M  V30 2 C -1.80094 0.548438 0.28611 0
M  V30 3 N -2.27135 1.80773 0.162489 0
M  V30 4 O -1.28172 2.54068 -0.180704 0
M  V30 5 N -0.169252 1.83937 -0.294453 0
M  V30 6 C -0.455769 0.560066 -0.00475821 0
M  V30 7 C 0.472848 -0.586033 0.000275202 0
M  V30 8 N 0.19363 -1.86776 0.288826 0
M  V30 9 O 1.29023 -2.55392 0.175751 0
M  V30 10 N 2.2865 -1.81199 -0.170487 0
M  V30 11 C 1.82045 -0.560971 -0.293544 0
M  V30 12 N 2.51956 0.626968 -0.655517 0
M  V30 13 H -2.64547 -0.840472 1.64406 0
M  V30 14 H -2.96176 -1.18628 -0.0824011 0
M  V30 15 H 3.08873 1.07113 0.104049 0
M  V30 16 H 2.45077 1.01023 -1.62808 0
M  V30 END ATOM
M  V30 BEGIN BOND
M  V30 1 1 1 2
M  V30 2 2 2 3
M  V30 3 1 3 4
M  V30 4 1 4 5
M  V30 5 2 5 6
M  V30 6 1 6 7
M  V30 7 2 7 8
M  V30 8 1 8 9
M  V30 9 1 9 10
M  V30 10 2 10 11
M  V30 11 1 11 12
M  V30 12 1 6 2
M  V30 13 1 11 7
M  V30 14 1 1 13
M  V30 15 1 1 14
M  V30 16 1 12 15
M  V30 17 1 12 16
M  V30 END BOND
M  V30 END CTAB
M  END
