
     RDKit          3D

  0  0  0  0  0  0  0  0  0  0999 V3000
M  V30 BEGIN CTAB
M  V30 COUNTS 32 32 0 0 0
M  V30 BEGIN ATOM
M  V30 1 N -4.56755 -2.35633 -0.624068 0
M  V30 2 C -3.97407 -1.10566 -0.278794 0
M  V30 3 C -2.47776 -1.13647 -0.349704 0
M  V30 4 O -1.97479 -2.21143 -0.688273 0
M  V30 5 N -1.75313 0.0140586 -0.0394974 0
M  V30 6 C -0.350488 0.206096 -0.0406702 0
M  V30 7 C 0.572744 -0.765731 -0.367982 0
M  V30 8 C 1.95446 -0.517152 -0.352136 0
M  V30 9 C 2.35005 0.746922 0.00662331 0
M  V30 10 C 1.47459 1.74669 0.340233 0
M  V30 11 C 0.130495 1.47226 0.315146 0
M  V30 12 C -0.79718 2.56492 0.678875 0
M  V30 13 C 1.97592 3.12111 0.727313 0
M  V30 14 S 3.05971 -1.80147 -0.780008 0
M  V30 15 O 2.42059 -2.65394 -1.84032 0
M  V30 16 O 4.32363 -1.22514 -1.38964 0
M  V30 17 N 3.51499 -2.71296 0.604635 0
M  V30 18 H -4.53436 -3.0344 0.170254 0
M  V30 19 H -5.49873 -2.28183 -1.06998 0
M  V30 20 H -4.29457 -0.353873 -1.02692 0
M  V30 21 H -4.28792 -0.711282 0.713646 0
M  V30 22 H -2.34989 0.874906 0.23938 0
M  V30 23 H 0.259813 -1.7565 -0.649105 0
M  V30 24 H 3.4029 0.956747 0.0247517 0
M  V30 25 H -1.50341 2.23569 1.49755 0
M  V30 26 H -0.271442 3.4326 1.07805 0
M  V30 27 H -1.37634 2.848 -0.243544 0
M  V30 28 H 1.46357 3.88679 0.10509 0
M  V30 29 H 3.05863 3.16974 0.413148 0
M  V30 30 H 1.88961 3.29258 1.80615 0
M  V30 31 H 3.78038 -3.66432 0.279404 0
M  V30 32 H 4.37951 -2.28062 1.00306 0
M  V30 END ATOM
M  V30 BEGIN BOND
M  V30 1 1 1 2
M  V30 2 1 2 3
M  V30 3 2 3 4
M  V30 4 1 3 5
M  V30 5 1 5 6
M  V30 6 2 6 7
M  V30 7 1 7 8
M  V30 8 2 8 9
M  V30 9 1 9 10
M  V30 10 2 10 11
M  V30 11 1 11 12
M  V30 12 1 10 13
M  V30 13 1 8 14
M  V30 14 2 14 15
M  V30 15 2 14 16
M  V30 16 1 14 17
M  V30 17 1 11 6
M  V30 18 1 1 18
M  V30 19 1 1 19
M  V30 20 1 2 20
M  V30 21 1 2 21
M  V30 22 1 5 22
M  V30 23 1 7 23
M  V30 24 1 9 24
M  V30 25 1 12 25
M  V30 26 1 12 26
M  V30 27 1 12 27
M  V30 28 1 13 28
M  V30 29 1 13 29
M  V30 30 1 13 30
M  V30 31 1 17 31
M  V30 32 1 17 32
M  V30 END BOND
M  V30 END CTAB
M  END
