
     RDKit          3D

  0  0  0  0  0  0  0  0  0  0999 V3000
M  V30 BEGIN CTAB
M  V30 COUNTS 49 50 0 0 0
M  V30 BEGIN ATOM
M  V30 1 N 2.88902 -3.67505 1.11964 0
M  V30 2 C 2.15265 -2.53347 0.656351 0
M  V30 3 C 2.24925 -1.35093 1.63063 0
M  V30 4 N 1.51784 -0.273738 1.1237 0
M  V30 5 S 2.25398 1.10062 0.534849 0
M  V30 6 O 1.16399 2.12348 0.165311 0
M  V30 7 O 3.02197 1.81407 1.65036 0
M  V30 8 C 3.32829 0.984648 -0.828558 0
M  V30 9 C 4.56096 0.168629 -0.653074 0
M  V30 10 C 5.3489 0.22329 -1.96086 0
M  V30 11 N 5.7202 1.56708 -2.30748 0
M  V30 12 C 0.411341 0.0561727 1.96806 0
M  V30 13 C -0.879286 0.162299 1.23774 0
M  V30 14 C -1.01467 -0.0623223 -0.111025 0
M  V30 15 C -2.2471 0.05634 -0.718653 0
M  V30 16 C -3.39077 0.399039 -0.0272585 0
M  V30 17 C -3.25671 0.62497 1.32728 0
M  V30 18 C -2.01191 0.505736 1.94419 0
M  V30 19 C -4.68407 0.515803 -0.709358 0
M  V30 20 C -5.66407 1.38856 -0.309225 0
M  V30 21 C -6.8651 1.44194 -1.0079 0
M  V30 22 C -7.09493 0.632673 -2.10043 0
M  V30 23 C -6.12312 -0.245768 -2.5123 0
M  V30 24 C -4.94246 -0.280819 -1.8051 0
M  V30 25 H 2.31516 -4.32464 1.67238 0
M  V30 26 H 3.78396 -3.42716 1.59407 0
M  V30 27 H 2.45409 -2.25197 -0.360046 0
M  V30 28 H 1.06621 -2.83863 0.591062 0
M  V30 29 H 1.76447 -1.73621 2.56944 0
M  V30 30 H 3.33211 -1.16793 1.7895 0
M  V30 31 H 2.80907 0.699455 -1.7785 0
M  V30 32 H 3.69029 2.03866 -1.05336 0
M  V30 33 H 4.41083 -0.892053 -0.452488 0
M  V30 34 H 5.18665 0.596576 0.170808 0
M  V30 35 H 4.67838 -0.160469 -2.75022 0
M  V30 36 H 6.26756 -0.389281 -1.87244 0
M  V30 37 H 5.68145 2.19514 -1.49798 0
M  V30 38 H 5.30023 1.91628 -3.17824 0
M  V30 39 H 0.278664 -0.719107 2.77267 0
M  V30 40 H 0.624357 1.00027 2.50372 0
M  V30 41 H -0.11513 -0.336645 -0.679805 0
M  V30 42 H -2.34891 -0.123056 -1.78966 0
M  V30 43 H -4.14172 0.899532 1.91364 0
M  V30 44 H -1.91062 0.684226 3.0098 0
M  V30 45 H -5.48645 2.03627 0.561339 0
M  V30 46 H -7.61134 2.15331 -0.648587 0
M  V30 47 H -8.04572 0.681034 -2.64639 0
M  V30 48 H -6.24886 -0.907875 -3.36667 0
M  V30 49 H -4.17891 -0.968977 -2.12655 0
M  V30 END ATOM
M  V30 BEGIN BOND
M  V30 1 1 1 2
M  V30 2 1 2 3
M  V30 3 1 3 4
M  V30 4 1 4 5
M  V30 5 2 5 6
M  V30 6 2 5 7
M  V30 7 1 5 8
M  V30 8 1 8 9
M  V30 9 1 9 10
M  V30 10 1 10 11
M  V30 11 1 4 12
M  V30 12 1 12 13
M  V30 13 2 13 14
M  V30 14 1 14 15
M  V30 15 2 15 16
M  V30 16 1 16 17
M  V30 17 2 17 18
M  V30 18 1 16 19
M  V30 19 2 19 20
M  V30 20 1 20 21
M  V30 21 2 21 22
M  V30 22 1 22 23
M  V30 23 2 23 24
M  V30 24 1 18 13
M  V30 25 1 24 19
M  V30 26 1 1 25
M  V30 27 1 1 26
M  V30 28 1 2 27
M  V30 29 1 2 28
M  V30 30 1 3 29
M  V30 31 1 3 30
M  V30 32 1 8 31
M  V30 33 1 8 32
M  V30 34 1 9 33
M  V30 35 1 9 34
M  V30 36 1 10 35
M  V30 37 1 10 36
M  V30 38 1 11 37
M  V30 39 1 11 38
M  V30 40 1 12 39
M  V30 41 1 12 40
M  V30 42 1 14 41
M  V30 43 1 15 42
M  V30 44 1 17 43
M  V30 45 1 18 44
M  V30 46 1 20 45
M  V30 47 1 21 46
M  V30 48 1 22 47
M  V30 49 1 23 48
M  V30 50 1 24 49
M  V30 END BOND
M  V30 END CTAB
M  END
