
     RDKit          3D

  0  0  0  0  0  0  0  0  0  0999 V3000
M  V30 BEGIN CTAB
M  V30 COUNTS 27 27 0 0 0
M  V30 BEGIN ATOM
M  V30 1 N -3.68571 0.885209 0.531866 0
M  V30 2 C -2.67507 0.417742 -0.364303 0
M  V30 3 C -1.32737 0.404441 0.319344 0
M  V30 4 N -0.261394 -0.0599511 -0.538237 0
M  V30 5 C -0.395159 -1.45716 -0.84828 0
M  V30 6 C 0.619773 -2.15204 0.0494787 0
M  V30 7 C 1.76949 -1.14415 -0.0907918 0
M  V30 8 C 0.972067 0.127391 0.181255 0 CFG=1
M  V30 9 S 1.85462 1.57613 -0.218449 0
M  V30 10 O 2.13748 1.67167 -1.68145 0
M  V30 11 O 1.08399 2.76491 0.239588 0
M  V30 12 N 3.34886 1.55329 0.675555 0
M  V30 13 H -3.35041 1.54046 1.19208 0
M  V30 14 H -4.59416 0.999253 0.204422 0
M  V30 15 H -2.96849 -0.626797 -0.645504 0
M  V30 16 H -2.6972 1.07672 -1.26081 0
M  V30 17 H -1.12378 1.43461 0.64254 0
M  V30 18 H -1.43966 -0.283052 1.1983 0
M  V30 19 H -0.0370959 -1.64789 -1.89704 0
M  V30 20 H -1.36967 -1.88754 -0.646561 0
M  V30 21 H 0.887236 -3.15137 -0.264932 0
M  V30 22 H 0.274666 -2.05035 1.09715 0
M  V30 23 H 2.06595 -1.13014 -1.15182 0
M  V30 24 H 2.57065 -1.31763 0.616229 0
M  V30 25 H 0.778401 0.131285 1.29259 0
M  V30 26 H 3.39226 0.750072 1.34055 0
M  V30 27 H 4.16973 1.5749 0.0272446 0
M  V30 END ATOM
M  V30 BEGIN BOND
M  V30 1 1 1 2
M  V30 2 1 2 3
M  V30 3 1 3 4
M  V30 4 1 4 5
M  V30 5 1 5 6
M  V30 6 1 6 7
M  V30 7 1 7 8
M  V30 8 1 8 9
M  V30 9 2 9 10
M  V30 10 2 9 11
M  V30 11 1 9 12
M  V30 12 1 8 4
M  V30 13 1 1 13
M  V30 14 1 1 14
M  V30 15 1 2 15
M  V30 16 1 2 16
M  V30 17 1 3 17
M  V30 18 1 3 18
M  V30 19 1 5 19
M  V30 20 1 5 20
M  V30 21 1 6 21
M  V30 22 1 6 22
M  V30 23 1 7 23
M  V30 24 1 7 24
M  V30 25 1 8 25 CFG=1
M  V30 26 1 12 26
M  V30 27 1 12 27
M  V30 END BOND
M  V30 END CTAB
M  END
