
     RDKit          3D

  0  0  0  0  0  0  0  0  0  0999 V3000
M  V30 BEGIN CTAB
M  V30 COUNTS 57 60 0 0 0
M  V30 BEGIN ATOM
M  V30 1 N 8.14359 -0.677942 -2.82815 0
M  V30 2 C 6.99936 -0.934134 -2.05742 0
M  V30 3 N 6.72274 -2.14189 -1.71673 0
M  V30 4 C 6.10011 0.126739 -1.62177 0
M  V30 5 C 6.41014 1.43228 -1.99688 0
M  V30 6 C 5.57466 2.43293 -1.59394 0
M  V30 7 C 4.47189 2.14647 -0.845872 0
M  V30 8 C 4.13192 0.862307 -0.454373 0
M  V30 9 O 2.99824 0.630172 0.306301 0
M  V30 10 C 3.04821 0.641986 1.69081 0
M  V30 11 C 1.90362 0.407793 2.46532 0
M  V30 12 N 0.694498 0.15875 1.82228 0
M  V30 13 C -0.558825 -0.0973963 2.38121 0
M  V30 14 O -0.778842 -0.142348 3.61381 0
M  V30 15 C -1.7509 -0.341675 1.54599 0
M  V30 16 C -1.78417 -0.0589581 0.202313 0
M  V30 17 C -2.91302 -0.302875 -0.566058 0
M  V30 18 C -4.06812 -0.847835 -0.00551542 0
M  V30 19 C -4.02945 -1.12911 1.33754 0
M  V30 20 C -2.90019 -0.880864 2.08831 0
M  V30 21 C -5.23399 -1.12613 -0.863842 0
M  V30 22 C -5.19472 -2.2489 -1.70125 0
M  V30 23 C -6.25895 -2.56875 -2.50059 0
M  V30 24 C -7.41242 -1.78841 -2.5058 0
M  V30 25 C -7.42588 -0.693193 -1.67662 0
M  V30 26 C -6.3441 -0.347628 -0.849145 0
M  V30 27 S -6.43772 1.08139 0.150357 0
M  V30 28 N -7.97461 1.84362 -0.172133 0
M  V30 29 O -6.38483 0.818092 1.60578 0
M  V30 30 O -5.38473 2.07748 -0.284728 0
M  V30 31 C 2.07303 0.444122 3.82995 0
M  V30 32 C 3.30332 0.697472 4.4449 0
M  V30 33 C 4.41302 0.924492 3.66573 0
M  V30 34 C 4.25141 0.88977 2.2991 0
M  V30 35 C 4.99053 -0.138639 -0.872173 0
M  V30 36 H 9.12469 -0.858265 -2.49717 0
M  V30 37 H 8.02853 -0.283479 -3.79267 0
M  V30 38 H 7.34064 -2.92098 -2.00932 0
M  V30 39 H 7.29723 1.6367 -2.59513 0
M  V30 40 H 5.79255 3.46493 -1.87297 0
M  V30 41 H 3.83826 2.97146 -0.549135 0
M  V30 42 H 0.737665 0.161663 0.757416 0
M  V30 43 H -0.923779 0.367384 -0.290042 0
M  V30 44 H -2.93549 -0.0781308 -1.62813 0
M  V30 45 H -4.90925 -1.56835 1.78779 0
M  V30 46 H -2.89838 -1.11658 3.16474 0
M  V30 47 H -4.31658 -2.85183 -1.70402 0
M  V30 48 H -6.20553 -3.43801 -3.13694 0
M  V30 49 H -8.26059 -2.02867 -3.13113 0
M  V30 50 H -8.30721 -0.0424688 -1.63862 0
M  V30 51 H -8.01372 2.16189 -1.15302 0
M  V30 52 H -8.75964 1.24048 0.124463 0
M  V30 53 H 1.27209 0.280411 4.53173 0
M  V30 54 H 3.39534 0.717561 5.51937 0
M  V30 55 H 5.39382 1.12641 4.10897 0
M  V30 56 H 5.15501 1.07467 1.70501 0
M  V30 57 H 4.75954 -1.166 -0.585352 0
M  V30 END ATOM
M  V30 BEGIN BOND
M  V30 1 1 1 2
M  V30 2 2 2 3 CFG=2
M  V30 3 1 2 4
M  V30 4 2 4 5
M  V30 5 1 5 6
M  V30 6 2 6 7
M  V30 7 1 7 8
M  V30 8 1 8 9
M  V30 9 1 9 10
M  V30 10 1 10 11
M  V30 11 1 11 12
M  V30 12 1 12 13
M  V30 13 2 13 14
M  V30 14 1 13 15
M  V30 15 2 15 16
M  V30 16 1 16 17
M  V30 17 2 17 18
M  V30 18 1 18 19
M  V30 19 2 19 20
M  V30 20 1 18 21
M  V30 21 2 21 22
M  V30 22 1 22 23
M  V30 23 2 23 24
M  V30 24 1 24 25
M  V30 25 2 25 26
M  V30 26 1 26 27
M  V30 27 1 27 28
M  V30 28 2 27 29
M  V30 29 2 27 30
M  V30 30 2 11 31
M  V30 31 1 31 32
M  V30 32 2 32 33
M  V30 33 1 33 34
M  V30 34 2 8 35
M  V30 35 1 35 4
M  V30 36 2 34 10
M  V30 37 1 20 15
M  V30 38 1 26 21
M  V30 39 1 1 36
M  V30 40 1 1 37
M  V30 41 1 3 38
M  V30 42 1 5 39
M  V30 43 1 6 40
M  V30 44 1 7 41
M  V30 45 1 12 42
M  V30 46 1 16 43
M  V30 47 1 17 44
M  V30 48 1 19 45
M  V30 49 1 20 46
M  V30 50 1 22 47
M  V30 51 1 23 48
M  V30 52 1 24 49
M  V30 53 1 25 50
M  V30 54 1 28 51
M  V30 55 1 28 52
M  V30 56 1 31 53
M  V30 57 1 32 54
M  V30 58 1 33 55
M  V30 59 1 34 56
M  V30 60 1 35 57
M  V30 END BOND
M  V30 END CTAB
M  END
