
     RDKit          3D

  0  0  0  0  0  0  0  0  0  0999 V3000
M  V30 BEGIN CTAB
M  V30 COUNTS 69 72 0 0 0
M  V30 BEGIN ATOM
M  V30 1 C 2.35028 -0.403782 0.716719 0 CFG=2
M  V30 2 C 2.93065 0.824648 0.10366 0
M  V30 3 C 4.4065 0.90733 0.000184998 0
M  V30 4 C 5.02402 -0.183011 -0.820551 0
M  V30 5 N 6.45094 -0.0837995 -0.986694 0
M  V30 6 C 7.40071 -0.0852801 0.0515111 0
M  V30 7 O 6.98947 -0.18056 1.24923 0
M  V30 8 C 8.85208 0.0185515 -0.177598 0
M  V30 9 C 9.43023 -0.00576085 -1.42277 0
M  V30 10 C 10.8187 0.10218 -1.57004 0
M  V30 11 C 11.6582 0.235895 -0.486702 0
M  V30 12 C 11.076 0.260151 0.763746 0
M  V30 13 C 9.71133 0.154274 0.911645 0
M  V30 14 C 13.1093 0.347573 -0.660343 0
M  V30 15 O 13.611 0.314414 -1.95212 0
M  V30 16 O 13.9076 0.469191 0.274225 0
M  V30 17 N 0.873008 -0.29304 0.697642 0
M  V30 18 C 0.0860746 -1.2634 0.0337317 0
M  V30 19 O 0.660534 -2.22101 -0.539903 0
M  V30 20 C -1.36656 -1.20801 -0.0191352 0
M  V30 21 C -2.09004 -0.230417 0.640458 0
M  V30 22 C -3.46755 -0.184291 0.581298 0
M  V30 23 C -4.19946 -1.11362 -0.141072 0
M  V30 24 N -5.61554 -1.03888 -0.183782 0
M  V30 25 C -6.29783 -0.0108167 0.531269 0
M  V30 26 C -7.76137 -0.133829 0.339863 0
M  V30 27 N -8.55742 0.971965 0.244277 0
M  V30 28 C -9.88842 0.88953 0.0735483 0
M  V30 29 C -10.6914 2.01371 -0.022978 0
M  V30 30 N -10.0401 3.2693 0.0674473 0
M  V30 31 N -12.0198 1.89061 -0.193783 0
M  V30 32 C -12.6344 0.690547 -0.279309 0
M  V30 33 N -14.0422 0.600018 -0.459603 0
M  V30 34 N -11.8498 -0.401217 -0.184978 0
M  V30 35 C -10.5143 -0.334895 -0.0135176 0
M  V30 36 N -9.74696 -1.43576 0.0784657 0
M  V30 37 C -8.39568 -1.35111 0.251852 0
M  V30 38 C -3.47211 -2.08805 -0.798106 0
M  V30 39 C -2.09546 -2.13813 -0.741848 0
M  V30 40 C 2.71962 -0.603017 2.13431 0
M  V30 41 O 4.00966 -0.764634 2.603 0
M  V30 42 O 1.81233 -0.632549 3.0025 0
M  V30 43 H 2.61176 -1.33422 0.164602 0
M  V30 44 H 2.60964 1.70171 0.74414 0
M  V30 45 H 2.4688 1.05036 -0.902762 0
M  V30 46 H 4.65272 1.88745 -0.46322 0
M  V30 47 H 4.81749 0.957925 1.03138 0
M  V30 48 H 4.75925 -1.20156 -0.440606 0
M  V30 49 H 4.53899 -0.137894 -1.82789 0
M  V30 50 H 6.86149 0.0015701 -1.97196 0
M  V30 51 H 8.81662 -0.110095 -2.29503 0
M  V30 52 H 11.2645 0.081438 -2.56263 0
M  V30 53 H 11.7351 0.365188 1.61534 0
M  V30 54 H 9.24347 0.173635 1.90955 0
M  V30 55 H 13.5329 -0.466907 -2.57268 0
M  V30 56 H 0.480777 0.530548 1.1966 0
M  V30 57 H -1.54154 0.508158 1.21258 0
M  V30 58 H -4.03791 0.578786 1.09581 0
M  V30 59 H -6.14675 -1.73204 -0.737358 0
M  V30 60 H -5.99897 0.983232 0.0993391 0
M  V30 61 H -6.05256 0.00982624 1.61273 0
M  V30 62 H -9.81736 3.74317 0.962282 0
M  V30 63 H -9.76843 3.74535 -0.815845 0
M  V30 64 H -14.5425 0.962458 -1.29894 0
M  V30 65 H -14.6108 0.149474 0.280399 0
M  V30 66 H -7.78686 -2.24053 0.327317 0
M  V30 67 H -4.04231 -2.82431 -1.36988 0
M  V30 68 H -1.56368 -2.91754 -1.27073 0
M  V30 69 H 4.37451 -0.0361663 3.20784 0
M  V30 END ATOM
M  V30 BEGIN BOND
M  V30 1 1 1 2
M  V30 2 1 2 3
M  V30 3 1 3 4
M  V30 4 1 4 5
M  V30 5 1 5 6
M  V30 6 2 6 7
M  V30 7 1 6 8
M  V30 8 2 8 9
M  V30 9 1 9 10
M  V30 10 2 10 11
M  V30 11 1 11 12
M  V30 12 2 12 13
M  V30 13 1 11 14
M  V30 14 1 14 15
M  V30 15 2 14 16
M  V30 16 1 1 17
M  V30 17 1 17 18
M  V30 18 2 18 19
M  V30 19 1 18 20
M  V30 20 2 20 21
M  V30 21 1 21 22
M  V30 22 2 22 23
M  V30 23 1 23 24
M  V30 24 1 24 25
M  V30 25 1 25 26
M  V30 26 2 26 27
M  V30 27 1 27 28
M  V30 28 2 28 29
M  V30 29 1 29 30
M  V30 30 1 29 31
M  V30 31 2 31 32
M  V30 32 1 32 33
M  V30 33 1 32 34
M  V30 34 2 34 35
M  V30 35 1 35 36
M  V30 36 2 36 37
M  V30 37 1 23 38
M  V30 38 2 38 39
M  V30 39 1 1 40
M  V30 40 1 40 41
M  V30 41 2 40 42
M  V30 42 1 13 8
M  V30 43 1 39 20
M  V30 44 1 37 26
M  V30 45 1 35 28
M  V30 46 1 1 43 CFG=3
M  V30 47 1 2 44
M  V30 48 1 2 45
M  V30 49 1 3 46
M  V30 50 1 3 47
M  V30 51 1 4 48
M  V30 52 1 4 49
M  V30 53 1 5 50
M  V30 54 1 9 51
M  V30 55 1 10 52
M  V30 56 1 12 53
M  V30 57 1 13 54
M  V30 58 1 15 55
M  V30 59 1 17 56
M  V30 60 1 21 57
M  V30 61 1 22 58
M  V30 62 1 24 59
M  V30 63 1 25 60
M  V30 64 1 25 61
M  V30 65 1 30 62
M  V30 66 1 30 63
M  V30 67 1 33 64
M  V30 68 1 33 65
M  V30 69 1 37 66
M  V30 70 1 38 67
M  V30 71 1 39 68
M  V30 72 1 41 69
M  V30 END BOND
M  V30 END CTAB
M  END
