
     RDKit          3D

  0  0  0  0  0  0  0  0  0  0999 V3000
M  V30 BEGIN CTAB
M  V30 COUNTS 19 18 0 0 0
M  V30 BEGIN ATOM
M  V30 1 N -2.40007 1.88458 -0.206137 0
M  V30 2 C -1.81561 0.592975 -0.162169 0
M  V30 3 N -0.568959 0.398237 -0.325716 0
M  V30 4 C 0.0752019 -0.886623 -0.291196 0
M  V30 5 C 1.2531 -0.870069 0.661196 0
M  V30 6 S 2.46368 0.332564 0.172276 0
M  V30 7 O 3.62384 0.215365 1.138 0
M  V30 8 O 1.95454 1.72028 0.260486 0
M  V30 9 O 2.99055 -0.0788229 -1.36301 0
M  V30 10 N -2.66769 -0.517338 0.0745794 0
M  V30 11 H -3.16401 2.15388 0.471523 0
M  V30 12 H -2.08421 2.57489 -0.901617 0
M  V30 13 H -0.622108 -1.67485 0.0579709 0
M  V30 14 H 0.400647 -1.14089 -1.31555 0
M  V30 15 H 0.861657 -0.669239 1.67349 0
M  V30 16 H 1.71498 -1.86273 0.662749 0
M  V30 17 H 3.93458 -0.347763 -1.38429 0
M  V30 18 H -3.0026 -1.11803 -0.683637 0
M  V30 19 H -2.9475 -0.706411 1.06213 0
M  V30 END ATOM
M  V30 BEGIN BOND
M  V30 1 1 1 2
M  V30 2 2 2 3 CFG=2
M  V30 3 1 3 4
M  V30 4 1 4 5
M  V30 5 1 5 6
M  V30 6 2 6 7
M  V30 7 2 6 8
M  V30 8 1 6 9
M  V30 9 1 2 10
M  V30 10 1 1 11
M  V30 11 1 1 12
M  V30 12 1 4 13
M  V30 13 1 4 14
M  V30 14 1 5 15
M  V30 15 1 5 16
M  V30 16 1 9 17
M  V30 17 1 10 18
M  V30 18 1 10 19
M  V30 END BOND
M  V30 END CTAB
M  END
