
     RDKit          3D

  0  0  0  0  0  0  0  0  0  0999 V3000
M  V30 BEGIN CTAB
M  V30 COUNTS 40 42 0 0 0
M  V30 BEGIN ATOM
M  V30 1 N -2.34365 3.00329 -0.114164 0
M  V30 2 C -3.25192 1.89844 0.00599473 0
M  V30 3 C -2.91263 0.713615 -0.821444 0
M  V30 4 N -1.65964 0.0723157 -0.579946 0
M  V30 5 C -0.386101 0.646147 -0.954868 0
M  V30 6 C 0.695097 -0.0228999 -0.152128 0 CFG=1
M  V30 7 C 0.651726 -1.50354 -0.59014 0
M  V30 8 C -0.557235 -2.03532 0.0886377 0
M  V30 9 C -1.66853 -1.22785 0.0828124 0
M  V30 10 C -2.7825 -1.70935 0.729464 0
M  V30 11 C -2.78899 -2.9504 1.36017 0
M  V30 12 C -1.63724 -3.7004 1.32233 0
M  V30 13 C -0.50041 -3.26087 0.687757 0
M  V30 14 C 2.04183 0.470545 -0.361827 0
M  V30 15 C 2.56597 0.730639 -1.60873 0
M  V30 16 C 3.85062 1.19561 -1.77385 0
M  V30 17 N 4.61592 1.40266 -0.696066 0
M  V30 18 C 4.17004 1.16802 0.571859 0
M  V30 19 C 2.87501 0.699987 0.721576 0
M  V30 20 N 5.03518 1.40836 1.66165 0
M  V30 21 H -1.61464 2.98764 0.644333 0
M  V30 22 H -2.89082 3.90151 0.0150651 0
M  V30 23 H -3.36921 1.6452 1.08917 0
M  V30 24 H -4.27556 2.2922 -0.268644 0
M  V30 25 H -3.75843 -0.0192243 -0.883282 0
M  V30 26 H -2.84607 1.07127 -1.90758 0
M  V30 27 H -0.371354 1.72343 -0.915075 0
M  V30 28 H -0.261755 0.383107 -2.04553 0
M  V30 29 H 0.41348 -0.0380882 0.925521 0
M  V30 30 H 0.554929 -1.49738 -1.68221 0
M  V30 31 H 1.58171 -1.94232 -0.246448 0
M  V30 32 H -3.70496 -1.10945 0.768912 0
M  V30 33 H -3.68818 -3.31009 1.87225 0
M  V30 34 H -1.6023 -4.67188 1.80519 0
M  V30 35 H 0.411797 -3.87684 0.668996 0
M  V30 36 H 1.95459 0.569829 -2.50691 0
M  V30 37 H 4.2498 1.39764 -2.74196 0
M  V30 38 H 2.50251 0.504736 1.71274 0
M  V30 39 H 5.37697 0.620154 2.23197 0
M  V30 40 H 5.32493 2.36955 1.88442 0
M  V30 END ATOM
M  V30 BEGIN BOND
M  V30 1 1 1 2
M  V30 2 1 2 3
M  V30 3 1 3 4
M  V30 4 1 4 5
M  V30 5 1 5 6
M  V30 6 1 6 7
M  V30 7 1 7 8
M  V30 8 2 8 9
M  V30 9 1 9 10
M  V30 10 2 10 11
M  V30 11 1 11 12
M  V30 12 2 12 13
M  V30 13 1 6 14
M  V30 14 2 14 15
M  V30 15 1 15 16
M  V30 16 2 16 17
M  V30 17 1 17 18
M  V30 18 2 18 19
M  V30 19 1 18 20
M  V30 20 1 9 4
M  V30 21 1 19 14
M  V30 22 1 13 8
M  V30 23 1 1 21
M  V30 24 1 1 22
M  V30 25 1 2 23
M  V30 26 1 2 24
M  V30 27 1 3 25
M  V30 28 1 3 26
M  V30 29 1 5 27
M  V30 30 1 5 28
M  V30 31 1 6 29 CFG=1
M  V30 32 1 7 30
M  V30 33 1 7 31
M  V30 34 1 10 32
M  V30 35 1 11 33
M  V30 36 1 12 34
M  V30 37 1 13 35
M  V30 38 1 15 36
M  V30 39 1 16 37
M  V30 40 1 19 38
M  V30 41 1 20 39
M  V30 42 1 20 40
M  V30 END BOND
M  V30 END CTAB
M  END
