
     RDKit          3D

  0  0  0  0  0  0  0  0  0  0999 V3000
M  V30 BEGIN CTAB
M  V30 COUNTS 28 29 0 0 0
M  V30 BEGIN ATOM
M  V30 1 N -1.13722 2.22381 0.0180511 0
M  V30 2 C -1.84398 1.13007 -0.474758 0
M  V30 3 C -1.0497 0.15397 -1.26389 0 CFG=2
M  V30 4 C -2.04511 -0.947785 -1.71002 0
M  V30 5 C -2.18635 -1.81808 -0.457156 0
M  V30 6 C -1.03704 -1.3963 0.469072 0
M  V30 7 C -0.11062 -0.726774 -0.481773 0 CFG=2
M  V30 8 C 1.08365 -0.120968 0.0507226 0
M  V30 9 N 1.30008 0.693857 1.08616 0
M  V30 10 N 2.5823 0.997359 1.1929 0
M  V30 11 C 3.2483 0.379599 0.215201 0
M  V30 12 N 2.33247 -0.303265 -0.482056 0
M  V30 13 N 4.62997 0.378894 -0.106444 0
M  V30 14 H -0.575222 2.7269 -0.611724 0
M  V30 15 H -1.55657 2.68345 0.772609 0
M  V30 16 H -2.41531 0.675637 0.361371 0
M  V30 17 H -2.65141 1.518 -1.16738 0
M  V30 18 H -0.565327 0.625474 -2.12578 0
M  V30 19 H -1.50611 -1.50114 -2.50635 0
M  V30 20 H -2.99881 -0.512573 -2.02585 0
M  V30 21 H -3.16032 -1.7188 0.016614 0
M  V30 22 H -1.9465 -2.87468 -0.763482 0
M  V30 23 H -0.533855 -2.30485 0.897952 0
M  V30 24 H -1.37587 -0.799561 1.31121 0
M  V30 25 H 0.177894 -1.53387 -1.23494 0
M  V30 26 H 3.01012 1.61492 1.91643 0
M  V30 27 H 5.37458 0.412415 0.628841 0
M  V30 28 H 4.95598 0.344284 -1.10536 0
M  V30 END ATOM
M  V30 BEGIN BOND
M  V30 1 1 1 2
M  V30 2 1 2 3
M  V30 3 1 3 4
M  V30 4 1 4 5
M  V30 5 1 5 6
M  V30 6 1 6 7
M  V30 7 1 7 8
M  V30 8 2 8 9
M  V30 9 1 9 10
M  V30 10 1 10 11
M  V30 11 2 11 12
M  V30 12 1 11 13
M  V30 13 1 7 3
M  V30 14 1 12 8
M  V30 15 1 1 14
M  V30 16 1 1 15
M  V30 17 1 2 16
M  V30 18 1 2 17
M  V30 19 1 3 18 CFG=3
M  V30 20 1 4 19
M  V30 21 1 4 20
M  V30 22 1 5 21
M  V30 23 1 5 22
M  V30 24 1 6 23
M  V30 25 1 6 24
M  V30 26 1 7 25 CFG=3
M  V30 27 1 10 26
M  V30 28 1 13 27
M  V30 29 1 13 28
M  V30 END BOND
M  V30 END CTAB
M  END
