
     RDKit          3D

  0  0  0  0  0  0  0  0  0  0999 V3000
M  V30 BEGIN CTAB
M  V30 COUNTS 17 17 0 0 0
M  V30 BEGIN ATOM
M  V30 1 N 3.66475 0.45032 1.64771 0
M  V30 2 C 3.09906 0.300864 0.663058 0
M  V30 3 C 2.37128 0.134422 -0.593413 0
M  V30 4 C 0.918132 0.0699001 -0.332754 0
M  V30 5 N 0.135406 1.16101 -0.313373 0
M  V30 6 C -1.20718 1.05866 -0.0679502 0
M  V30 7 N -2.01078 2.2225 -0.0527395 0
M  V30 8 N -1.75995 -0.142229 0.157652 0
M  V30 9 C -0.987934 -1.23659 0.140491 0
M  V30 10 N 0.321787 -1.11202 -0.101581 0
M  V30 11 N -1.61253 -2.48807 0.384056 0
M  V30 12 H 2.6577 0.913622 -1.30981 0
M  V30 13 H 2.64626 -0.843139 -1.07817 0
M  V30 14 H -1.60673 3.10855 0.298925 0
M  V30 15 H -2.99202 2.21911 -0.382068 0
M  V30 16 H -1.263 -3.04751 1.19123 0
M  V30 17 H -2.37427 -2.7694 -0.251271 0
M  V30 END ATOM
M  V30 BEGIN BOND
M  V30 1 3 1 2
M  V30 2 1 2 3
M  V30 3 1 3 4
M  V30 4 2 4 5
M  V30 5 1 5 6
M  V30 6 1 6 7
M  V30 7 2 6 8
M  V30 8 1 8 9
M  V30 9 2 9 10
M  V30 10 1 9 11
M  V30 11 1 10 4
M  V30 12 1 3 12
M  V30 13 1 3 13
M  V30 14 1 7 14
M  V30 15 1 7 15
M  V30 16 1 11 16
M  V30 17 1 11 17
M  V30 END BOND
M  V30 END CTAB
M  END
