
     RDKit          3D

  0  0  0  0  0  0  0  0  0  0999 V3000
M  V30 BEGIN CTAB
M  V30 COUNTS 24 25 0 0 0
M  V30 BEGIN ATOM
M  V30 1 C -3.56015 -0.868736 -0.292482 0
M  V30 2 C -2.3058 -0.0923316 -0.108751 0
M  V30 3 C -2.36007 1.25822 0.133727 0
M  V30 4 C -1.21372 2.02413 0.311824 0
M  V30 5 Br -1.35296 3.90234 0.646871 0
M  V30 6 C 0.0219539 1.41019 0.243352 0
M  V30 7 C 0.123617 0.0308676 -0.0026969 0
M  V30 8 C -1.04907 -0.66942 -0.16983 0
M  V30 9 Cl -0.957371 -2.39086 -0.478157 0
M  V30 10 C 1.36248 -0.565175 -0.0678284 0
M  V30 11 N 1.50367 -1.94736 -0.31299 0
M  V30 12 C 2.47807 0.209795 0.110839 0
M  V30 13 C 2.39287 1.58016 0.355829 0
M  V30 14 N 1.16118 2.10471 0.408275 0
M  V30 15 N 3.75448 -0.372391 0.0495175 0
M  V30 16 H -3.87102 -1.18834 0.745533 0
M  V30 17 H -4.34869 -0.302187 -0.80637 0
M  V30 18 H -3.31231 -1.83655 -0.808908 0
M  V30 19 H -3.33624 1.74949 0.188979 0
M  V30 20 H 1.51679 -2.60444 0.521796 0
M  V30 21 H 1.59879 -2.35778 -1.26881 0
M  V30 22 H 3.29086 2.18124 0.495523 0
M  V30 23 H 4.54053 0.00705461 -0.490016 0
M  V30 24 H 3.9221 -1.26264 0.594775 0
M  V30 END ATOM
M  V30 BEGIN BOND
M  V30 1 1 1 2
M  V30 2 2 2 3
M  V30 3 1 3 4
M  V30 4 1 4 5
M  V30 5 2 4 6
M  V30 6 1 6 7
M  V30 7 2 7 8
M  V30 8 1 8 9
M  V30 9 1 7 10
M  V30 10 1 10 11
M  V30 11 2 10 12
M  V30 12 1 12 13
M  V30 13 2 13 14
M  V30 14 1 12 15
M  V30 15 1 8 2
M  V30 16 1 14 6
M  V30 17 1 1 16
M  V30 18 1 1 17
M  V30 19 1 1 18
M  V30 20 1 3 19
M  V30 21 1 11 20
M  V30 22 1 11 21
M  V30 23 1 13 22
M  V30 24 1 15 23
M  V30 25 1 15 24
M  V30 END BOND
M  V30 END CTAB
M  END
