
     RDKit          3D

  0  0  0  0  0  0  0  0  0  0999 V3000
M  V30 BEGIN CTAB
M  V30 COUNTS 19 19 0 0 0
M  V30 BEGIN ATOM
M  V30 1 N -3.57935 0.133658 -0.333453 0
M  V30 2 N -2.21493 0.253771 -0.155934 0
M  V30 3 C -1.37056 -0.693118 -0.327312 0
M  V30 4 C 0.0524623 -0.501258 -0.123837 0
M  V30 5 C 0.97376 -1.51331 -0.305005 0
M  V30 6 C 2.32528 -1.33902 -0.113932 0
M  V30 7 Br 3.54093 -2.77172 -0.379773 0
M  V30 8 C 2.79084 -0.105764 0.274962 0
M  V30 9 C 1.89974 0.921664 0.46356 0
M  V30 10 C 0.5572 0.736486 0.270446 0
M  V30 11 N -0.402878 1.77216 0.454033 0
M  V30 12 Br 2.46445 2.67144 1.00514 0
M  V30 13 H -3.94119 -0.205455 -1.26655 0
M  V30 14 H -4.29061 0.355972 0.395642 0
M  V30 15 H -1.72314 -1.65995 -0.630893 0
M  V30 16 H 0.574083 -2.49306 -0.617136 0
M  V30 17 H 3.84458 0.101324 0.443536 0
M  V30 18 H -0.902147 1.96437 1.32456 0
M  V30 19 H -0.598531 2.37181 -0.378057 0
M  V30 END ATOM
M  V30 BEGIN BOND
M  V30 1 1 1 2
M  V30 2 2 2 3 CFG=2
M  V30 3 1 3 4
M  V30 4 2 4 5
M  V30 5 1 5 6
M  V30 6 1 6 7
M  V30 7 2 6 8
M  V30 8 1 8 9
M  V30 9 2 9 10
M  V30 10 1 10 11
M  V30 11 1 9 12
M  V30 12 1 10 4
M  V30 13 1 1 13
M  V30 14 1 1 14
M  V30 15 1 3 15
M  V30 16 1 5 16
M  V30 17 1 8 17
M  V30 18 1 11 18
M  V30 19 1 11 19
M  V30 END BOND
M  V30 END CTAB
M  END
