
     RDKit          3D

  0  0  0  0  0  0  0  0  0  0999 V3000
M  V30 BEGIN CTAB
M  V30 COUNTS 35 35 0 0 0
M  V30 BEGIN ATOM
M  V30 1 C 4.72035 0.587037 -0.632139 0
M  V30 2 C 4.38147 -0.876167 -0.740522 0
M  V30 3 C 3.15007 -1.15756 0.0593476 0
M  V30 4 C 1.97639 -0.338618 -0.457151 0
M  V30 5 O 2.13833 0.423337 -1.42097 0
M  V30 6 N 0.752309 -0.504761 0.211102 0
M  V30 7 C -0.475718 0.138959 -0.0699299 0
M  V30 8 C -0.621272 1.21449 -0.906028 0
M  V30 9 C -1.86476 1.81361 -1.17064 0
M  V30 10 C -3.01078 1.33232 -0.586338 0
M  V30 11 C -2.87499 0.251536 0.256244 0
M  V30 12 C -1.6631 -0.337658 0.518098 0
M  V30 13 S -4.32192 -0.383003 1.01592 0
M  V30 14 O -5.0341 0.634531 1.81822 0
M  V30 15 O -5.21211 -0.888837 -0.0842588 0
M  V30 16 N -3.93241 -1.7318 2.02936 0
M  V30 17 C -4.34595 1.91137 -0.819082 0
M  V30 18 N 5.46965 -1.61932 -0.0985954 0
M  V30 19 H 4.10431 1.03063 0.17505 0
M  V30 20 H 5.7964 0.723716 -0.355679 0
M  V30 21 H 4.48298 1.1494 -1.56195 0
M  V30 22 H 4.29589 -1.21831 -1.7906 0
M  V30 23 H 3.28103 -0.977757 1.12548 0
M  V30 24 H 2.8206 -2.21458 -0.0762126 0
M  V30 25 H 0.714459 -1.19616 1.04416 0
M  V30 26 H 0.228454 1.65158 -1.39095 0
M  V30 27 H -1.94815 2.66197 -1.83602 0
M  V30 28 H -1.58277 -1.19396 1.18941 0
M  V30 29 H -3.87563 -1.41819 3.0442 0
M  V30 30 H -4.65905 -2.4736 1.95759 0
M  V30 31 H -5.05286 1.23945 -1.31712 0
M  V30 32 H -4.77773 2.3862 0.103174 0
M  V30 33 H -4.20162 2.77887 -1.52868 0
M  V30 34 H 5.09998 -2.39164 0.500823 0
M  V30 35 H 6.04225 -1.00706 0.521934 0
M  V30 END ATOM
M  V30 BEGIN BOND
M  V30 1 1 1 2
M  V30 2 1 2 3
M  V30 3 1 3 4
M  V30 4 2 4 5
M  V30 5 1 4 6
M  V30 6 1 6 7
M  V30 7 2 7 8
M  V30 8 1 8 9
M  V30 9 2 9 10
M  V30 10 1 10 11
M  V30 11 2 11 12
M  V30 12 1 11 13
M  V30 13 2 13 14
M  V30 14 2 13 15
M  V30 15 1 13 16
M  V30 16 1 10 17
M  V30 17 1 2 18
M  V30 18 1 12 7
M  V30 19 1 1 19
M  V30 20 1 1 20
M  V30 21 1 1 21
M  V30 22 1 2 22
M  V30 23 1 3 23
M  V30 24 1 3 24
M  V30 25 1 6 25
M  V30 26 1 8 26
M  V30 27 1 9 27
M  V30 28 1 12 28
M  V30 29 1 16 29
M  V30 30 1 16 30
M  V30 31 1 17 31
M  V30 32 1 17 32
M  V30 33 1 17 33
M  V30 34 1 18 34
M  V30 35 1 18 35
M  V30 END BOND
M  V30 END CTAB
M  END
