
     RDKit          3D

  0  0  0  0  0  0  0  0  0  0999 V3000
M  V30 BEGIN CTAB
M  V30 COUNTS 20 20 0 0 0
M  V30 BEGIN ATOM
M  V30 1 N 2.68836 -0.070351 -0.712571 0
M  V30 2 C 1.58108 0.551153 -0.0815828 0
M  V30 3 C 0.454017 -0.438566 0.0800487 0 CFG=2
M  V30 4 O 0.00984577 -0.949713 -1.13238 0
M  V30 5 C -1.29487 -1.34119 -0.876256 0
M  V30 6 C -1.83738 -0.0527886 -0.241423 0
M  V30 7 C -0.719466 0.176266 0.775538 0 CFG=2
M  V30 8 N -0.560501 1.54288 1.13126 0
M  V30 9 H 2.56127 -0.905783 -1.17676 0
M  V30 10 H 3.58993 0.150212 -0.395363 0
M  V30 11 H 1.85634 0.906622 0.924381 0
M  V30 12 H 1.25702 1.4208 -0.679116 0
M  V30 13 H 0.846281 -1.31363 0.664574 0
M  V30 14 H -1.26351 -2.08063 -0.0534586 0
M  V30 15 H -1.8645 -1.64432 -1.74382 0
M  V30 16 H -1.85228 0.705019 -1.02554 0
M  V30 17 H -2.7953 -0.222532 0.27073 0
M  V30 18 H -0.986773 -0.423566 1.66549 0
M  V30 19 H -0.74673 1.75444 2.13395 0
M  V30 20 H -0.922844 2.23567 0.472296 0
M  V30 END ATOM
M  V30 BEGIN BOND
M  V30 1 1 1 2
M  V30 2 1 2 3
M  V30 3 1 3 4
M  V30 4 1 4 5
M  V30 5 1 5 6
M  V30 6 1 6 7
M  V30 7 1 7 8
M  V30 8 1 7 3
M  V30 9 1 1 9
M  V30 10 1 1 10
M  V30 11 1 2 11
M  V30 12 1 2 12
M  V30 13 1 3 13 CFG=1
M  V30 14 1 5 14
M  V30 15 1 5 15
M  V30 16 1 6 16
M  V30 17 1 6 17
M  V30 18 1 7 18 CFG=1
M  V30 19 1 8 19
M  V30 20 1 8 20
M  V30 END BOND
M  V30 END CTAB
M  END
