
     RDKit          3D

  0  0  0  0  0  0  0  0  0  0999 V3000
M  V30 BEGIN CTAB
M  V30 COUNTS 41 43 0 0 0
M  V30 BEGIN ATOM
M  V30 1 N 6.98348 -0.998023 0.123035 0
M  V30 2 C 5.61479 -0.510008 0.132119 0
M  V30 3 C 4.81614 -0.939041 1.33656 0
M  V30 4 C 3.70856 -1.36458 0.40659 0
M  V30 5 C 4.70281 -1.34803 -0.726571 0
M  V30 6 C 2.6618 -0.32305 0.178896 0
M  V30 7 C 1.31854 -0.631476 0.264837 0
M  V30 8 C 0.34613 0.324624 0.0560007 0
M  V30 9 N -1.03758 0.0530568 0.133861 0
M  V30 10 C -2.00412 1.09546 -0.0948716 0
M  V30 11 C -3.40068 0.536563 0.0490205 0
M  V30 12 S -3.85669 -1.06968 0.423921 0
M  V30 13 C -5.55118 -0.863264 0.394758 0
M  V30 14 C -5.65804 0.472606 0.0882376 0
M  V30 15 N -4.55978 1.13666 -0.0766206 0
M  V30 16 C -7.01906 1.13739 -0.0501092 0
M  V30 17 C -6.66294 -1.85091 0.634274 0
M  V30 18 N 0.767648 1.58618 -0.238652 0
M  V30 19 C 2.06411 1.91505 -0.32877 0
M  V30 20 N 2.97282 0.948436 -0.116806 0
M  V30 21 N 2.46622 3.26065 -0.642524 0
M  V30 22 H 7.26633 -1.42282 1.01272 0
M  V30 23 H 7.58373 -0.235487 -0.2237 0
M  V30 24 H 5.5226 0.574564 -0.0913146 0
M  V30 25 H 5.25538 -1.83464 1.83984 0
M  V30 26 H 4.55762 -0.126902 2.04406 0
M  V30 27 H 3.28982 -2.36591 0.643121 0
M  V30 28 H 5.16344 -2.34766 -0.905175 0
M  V30 29 H 4.3508 -0.835505 -1.64769 0
M  V30 30 H 1.01568 -1.64686 0.501585 0
M  V30 31 H -1.34471 -0.911486 0.358922 0
M  V30 32 H -1.93729 1.92078 0.631804 0
M  V30 33 H -1.96633 1.50922 -1.12684 0
M  V30 34 H -6.96372 2.20356 0.214961 0
M  V30 35 H -7.3342 0.986982 -1.10079 0
M  V30 36 H -7.72377 0.663319 0.648647 0
M  V30 37 H -6.14868 -2.79039 0.961722 0
M  V30 38 H -7.27568 -1.41396 1.4506 0
M  V30 39 H -7.24398 -2.01512 -0.280876 0
M  V30 40 H 1.99372 3.83319 -1.36352 0
M  V30 41 H 3.26624 3.68652 -0.127699 0
M  V30 END ATOM
M  V30 BEGIN BOND
M  V30 1 1 1 2
M  V30 2 1 2 3
M  V30 3 1 3 4
M  V30 4 1 4 5
M  V30 5 1 4 6
M  V30 6 2 6 7
M  V30 7 1 7 8
M  V30 8 1 8 9
M  V30 9 1 9 10
M  V30 10 1 10 11
M  V30 11 1 11 12
M  V30 12 1 12 13
M  V30 13 2 13 14
M  V30 14 1 14 15
M  V30 15 1 14 16
M  V30 16 1 13 17
M  V30 17 2 8 18
M  V30 18 1 18 19
M  V30 19 2 19 20
M  V30 20 1 19 21
M  V30 21 1 5 2
M  V30 22 1 20 6
M  V30 23 2 15 11
M  V30 24 1 1 22
M  V30 25 1 1 23
M  V30 26 1 2 24
M  V30 27 1 3 25
M  V30 28 1 3 26
M  V30 29 1 4 27
M  V30 30 1 5 28
M  V30 31 1 5 29
M  V30 32 1 7 30
M  V30 33 1 9 31
M  V30 34 1 10 32
M  V30 35 1 10 33
M  V30 36 1 16 34
M  V30 37 1 16 35
M  V30 38 1 16 36
M  V30 39 1 17 37
M  V30 40 1 17 38
M  V30 41 1 17 39
M  V30 42 1 21 40
M  V30 43 1 21 41
M  V30 END BOND
M  V30 END CTAB
M  END
