
     RDKit          3D

  0  0  0  0  0  0  0  0  0  0999 V3000
M  V30 BEGIN CTAB
M  V30 COUNTS 20 20 0 0 0
M  V30 BEGIN ATOM
M  V30 1 C 2.83706 -0.674544 0.182977 0
M  V30 2 C 1.88426 -0.385264 -0.945889 0
M  V30 3 C 0.492763 -0.158372 -0.469656 0
M  V30 4 C 0.00829554 1.08644 -0.124595 0
M  V30 5 C -1.26585 1.30874 0.313689 0
M  V30 6 N -1.71167 2.61435 0.655845 0
M  V30 7 N -2.0876 0.237584 0.409605 0
M  V30 8 C -1.63893 -0.998929 0.0771722 0
M  V30 9 N -2.56694 -2.06129 0.208133 0
M  V30 10 N -0.362956 -1.19107 -0.357053 0
M  V30 11 H 3.07678 0.285078 0.675497 0
M  V30 12 H 3.74176 -1.17512 -0.220185 0
M  V30 13 H 2.33923 -1.40415 0.856235 0
M  V30 14 H 2.28279 0.528073 -1.4652 0
M  V30 15 H 1.89116 -1.23442 -1.66962 0
M  V30 16 H 0.680086 1.9183 -0.209736 0
M  V30 17 H -2.47807 2.73695 1.33746 0
M  V30 18 H -1.29218 3.47261 0.242013 0
M  V30 19 H -3.41481 -2.08727 -0.399964 0
M  V30 20 H -2.41518 -2.81769 0.903272 0
M  V30 END ATOM
M  V30 BEGIN BOND
M  V30 1 1 1 2
M  V30 2 1 2 3
M  V30 3 2 3 4
M  V30 4 1 4 5
M  V30 5 1 5 6
M  V30 6 2 5 7
M  V30 7 1 7 8
M  V30 8 1 8 9
M  V30 9 2 8 10
M  V30 10 1 10 3
M  V30 11 1 1 11
M  V30 12 1 1 12
M  V30 13 1 1 13
M  V30 14 1 2 14
M  V30 15 1 2 15
M  V30 16 1 4 16
M  V30 17 1 6 17
M  V30 18 1 6 18
M  V30 19 1 9 19
M  V30 20 1 9 20
M  V30 END BOND
M  V30 END CTAB
M  END
