
     RDKit          3D

  0  0  0  0  0  0  0  0  0  0999 V3000
M  V30 BEGIN CTAB
M  V30 COUNTS 14 13 0 0 0
M  V30 BEGIN ATOM
M  V30 1 N 2.31683 -0.366375 0.996721 0
M  V30 2 S 1.20445 -0.449782 -0.318811 0
M  V30 3 O 2.04342 -0.486409 -1.58634 0
M  V30 4 O 0.452094 -1.7345 -0.268985 0
M  V30 5 N 0.18785 0.929316 -0.40637 0
M  V30 6 S -1.25832 0.762145 0.487457 0
M  V30 7 N -2.54171 0.0828368 -0.450658 0
M  V30 8 O -1.70884 2.16139 0.877489 0
M  V30 9 O -1.06275 0.0215138 1.7838 0
M  V30 10 H 2.70299 -1.34184 1.11644 0
M  V30 11 H 3.11687 0.260361 0.717123 0
M  V30 12 H -0.0821196 1.04838 -1.41905 0
M  V30 13 H -2.14661 -0.474837 -1.22496 0
M  V30 14 H -3.22416 -0.412201 0.146052 0
M  V30 END ATOM
M  V30 BEGIN BOND
M  V30 1 1 1 2
M  V30 2 2 2 3
M  V30 3 2 2 4
M  V30 4 1 2 5
M  V30 5 1 5 6
M  V30 6 1 6 7
M  V30 7 2 6 8
M  V30 8 2 6 9
M  V30 9 1 1 10
M  V30 10 1 1 11
M  V30 11 1 5 12
M  V30 12 1 7 13
M  V30 13 1 7 14
M  V30 END BOND
M  V30 END CTAB
M  END
