
     RDKit          3D

  0  0  0  0  0  0  0  0  0  0999 V3000
M  V30 BEGIN CTAB
M  V30 COUNTS 19 19 0 0 0
M  V30 BEGIN ATOM
M  V30 1 N 2.91985 1.04396 0.0456645 0
M  V30 2 C 1.67691 0.349099 -0.0481166 0
M  V30 3 C 1.61715 -0.966597 -0.454783 0
M  V30 4 C 0.448519 -1.65732 -0.554676 0
M  V30 5 C -0.730893 -0.984771 -0.225941 0
M  V30 6 C -0.716794 0.3275 0.184211 0
M  V30 7 C 0.482829 0.992011 0.272792 0
M  V30 8 I 0.52453 2.99204 0.895955 0
M  V30 9 C -1.9921 0.997537 0.521749 0
M  V30 10 F -1.98211 1.53071 1.79812 0
M  V30 11 F -2.16262 2.01165 -0.432526 0
M  V30 12 N -1.99188 -1.63198 -0.302947 0
M  V30 13 H 3.54588 1.02455 0.867168 0
M  V30 14 H 3.20732 1.60816 -0.778416 0
M  V30 15 H 2.56049 -1.47346 -0.707963 0
M  V30 16 H 0.373064 -2.69076 -0.871235 0
M  V30 17 H -2.84939 0.317296 0.394057 0
M  V30 18 H -2.67838 -1.50899 -1.07165 0
M  V30 19 H -2.25237 -2.28065 0.468538 0
M  V30 END ATOM
M  V30 BEGIN BOND
M  V30 1 1 1 2
M  V30 2 2 2 3
M  V30 3 1 3 4
M  V30 4 2 4 5
M  V30 5 1 5 6
M  V30 6 2 6 7
M  V30 7 1 7 8
M  V30 8 1 6 9
M  V30 9 1 9 10
M  V30 10 1 9 11
M  V30 11 1 5 12
M  V30 12 1 7 2
M  V30 13 1 1 13
M  V30 14 1 1 14
M  V30 15 1 3 15
M  V30 16 1 4 16
M  V30 17 1 9 17
M  V30 18 1 12 18
M  V30 19 1 12 19
M  V30 END BOND
M  V30 END CTAB
M  END
