
     RDKit          3D

  0  0  0  0  0  0  0  0  0  0999 V3000
M  V30 BEGIN CTAB
M  V30 COUNTS 30 31 0 0 0
M  V30 BEGIN ATOM
M  V30 1 C -3.91631 0.057917 1.08864 0
M  V30 2 C -3.36854 0.305143 -0.2792 0
M  V30 3 C -2.8562 -0.929575 -0.999607 0
M  V30 4 C -1.44895 -0.410371 -0.92096 0
M  V30 5 C -1.98692 0.893673 -0.341603 0
M  V30 6 N -0.574841 -1.13187 -0.0296913 0
M  V30 7 C 0.77705 -0.752408 0.141969 0
M  V30 8 C 1.64892 -1.39527 0.968989 0
M  V30 9 C 2.95274 -0.970771 1.08727 0
M  V30 10 C 3.41211 0.108096 0.378919 0
M  V30 11 C 2.51173 0.74792 -0.455733 0
M  V30 12 N 1.2505 0.314151 -0.551467 0
M  V30 13 N 2.9519 1.87363 -1.20869 0
M  V30 14 N 4.76173 0.515403 0.52723 0
M  V30 15 H -4.62185 0.858974 1.33581 0
M  V30 16 H -3.10649 -0.0538745 1.84962 0
M  V30 17 H -4.41177 -0.957536 1.06267 0
M  V30 18 H -4.07262 0.867503 -0.897519 0
M  V30 19 H -3.21232 -1.00016 -2.03569 0
M  V30 20 H -3.02822 -1.86553 -0.432094 0
M  V30 21 H -0.976598 -0.193477 -1.91713 0
M  V30 22 H -1.54191 1.14114 0.656561 0
M  V30 23 H -1.88165 1.77046 -1.00965 0
M  V30 24 H -0.926066 -1.94645 0.50355 0
M  V30 25 H 1.30368 -2.25156 1.53806 0
M  V30 26 H 3.60172 -1.52907 1.76725 0
M  V30 27 H 3.07341 1.82424 -2.24705 0
M  V30 28 H 3.16294 2.76829 -0.751158 0
M  V30 29 H 4.98732 1.34233 1.09611 0
M  V30 30 H 5.53553 -0.000953109 0.0746083 0
M  V30 END ATOM
M  V30 BEGIN BOND
M  V30 1 1 1 2
M  V30 2 1 2 3
M  V30 3 1 3 4
M  V30 4 1 4 5
M  V30 5 1 4 6
M  V30 6 1 6 7
M  V30 7 2 7 8
M  V30 8 1 8 9
M  V30 9 2 9 10
M  V30 10 1 10 11
M  V30 11 2 11 12
M  V30 12 1 11 13
M  V30 13 1 10 14
M  V30 14 1 5 2
M  V30 15 1 12 7
M  V30 16 1 1 15
M  V30 17 1 1 16
M  V30 18 1 1 17
M  V30 19 1 2 18
M  V30 20 1 3 19
M  V30 21 1 3 20
M  V30 22 1 4 21
M  V30 23 1 5 22
M  V30 24 1 5 23
M  V30 25 1 6 24
M  V30 26 1 8 25
M  V30 27 1 9 26
M  V30 28 1 13 27
M  V30 29 1 13 28
M  V30 30 1 14 29
M  V30 31 1 14 30
M  V30 END BOND
M  V30 END CTAB
M  END
