
     RDKit          3D

  0  0  0  0  0  0  0  0  0  0999 V3000
M  V30 BEGIN CTAB
M  V30 COUNTS 35 37 0 0 0
M  V30 BEGIN ATOM
M  V30 1 N -4.84239 -1.92704 -1.2081 0
M  V30 2 C -3.66294 -1.25665 -0.792255 0
M  V30 3 C -2.42786 -1.77484 -1.10634 0
M  V30 4 N -1.33083 -1.11434 -0.696854 0
M  V30 5 C -1.4026 0.0314016 0.00671882 0
M  V30 6 C -2.63498 0.590211 0.34577 0
M  V30 7 C -3.76737 -0.0919916 -0.0771746 0
M  V30 8 N -5.05754 0.424609 0.235762 0
M  V30 9 C -2.72271 1.76508 1.06718 0
M  V30 10 C -1.59413 2.42032 1.47355 0
M  V30 11 C -0.364328 1.87828 1.14479 0
M  V30 12 C -0.263643 0.699219 0.420854 0
M  V30 13 O 0.95837 0.142297 0.0829272 0
M  V30 14 C 2.12665 0.820728 0.503681 0
M  V30 15 C 3.35722 0.0980572 0.0639833 0
M  V30 16 C 3.29122 -1.0677 -0.652648 0
M  V30 17 C 4.42393 -1.73062 -1.05596 0
M  V30 18 C 5.67023 -1.21455 -0.734339 0
M  V30 19 C 5.73761 -0.0398807 -0.0122232 0
M  V30 20 C 4.5946 0.607085 0.381246 0
M  V30 21 H -5.49521 -2.36289 -0.497049 0
M  V30 22 H -5.12552 -2.02599 -2.20831 0
M  V30 23 H -2.34775 -2.71134 -1.68135 0
M  V30 24 H -5.74073 -0.144078 0.787739 0
M  V30 25 H -5.36826 1.36138 -0.061435 0
M  V30 26 H -3.73128 2.11507 1.27872 0
M  V30 27 H -1.69508 3.33475 2.03494 0
M  V30 28 H 0.549536 2.37235 1.45144 0
M  V30 29 H 2.11268 0.9345 1.61494 0
M  V30 30 H 2.12674 1.80541 0.01277 0
M  V30 31 H 2.30086 -1.47393 -0.905849 0
M  V30 32 H 4.36875 -2.66428 -1.62993 0
M  V30 33 H 6.57368 -1.72221 -1.04306 0
M  V30 34 H 6.71831 0.380205 0.249456 0
M  V30 35 H 4.66476 1.54139 0.955666 0
M  V30 END ATOM
M  V30 BEGIN BOND
M  V30 1 1 1 2
M  V30 2 2 2 3
M  V30 3 1 3 4
M  V30 4 2 4 5
M  V30 5 1 5 6
M  V30 6 2 6 7
M  V30 7 1 7 8
M  V30 8 1 6 9
M  V30 9 2 9 10
M  V30 10 1 10 11
M  V30 11 2 11 12
M  V30 12 1 12 13
M  V30 13 1 13 14
M  V30 14 1 14 15
M  V30 15 2 15 16
M  V30 16 1 16 17
M  V30 17 2 17 18
M  V30 18 1 18 19
M  V30 19 2 19 20
M  V30 20 1 7 2
M  V30 21 1 20 15
M  V30 22 1 12 5
M  V30 23 1 1 21
M  V30 24 1 1 22
M  V30 25 1 3 23
M  V30 26 1 8 24
M  V30 27 1 8 25
M  V30 28 1 9 26
M  V30 29 1 10 27
M  V30 30 1 11 28
M  V30 31 1 14 29
M  V30 32 1 14 30
M  V30 33 1 16 31
M  V30 34 1 17 32
M  V30 35 1 18 33
M  V30 36 1 19 34
M  V30 37 1 20 35
M  V30 END BOND
M  V30 END CTAB
M  END
