
     RDKit          3D

  0  0  0  0  0  0  0  0  0  0999 V3000
M  V30 BEGIN CTAB
M  V30 COUNTS 38 40 0 0 0
M  V30 BEGIN ATOM
M  V30 1 F 5.1013 -2.42132 -0.992123 0
M  V30 2 C 3.9988 -1.66913 -0.763394 0
M  V30 3 C 3.23543 -1.14899 -1.78397 0
M  V30 4 C 2.11961 -0.387691 -1.50396 0
M  V30 5 C 1.72257 -0.116124 -0.210131 0
M  V30 6 C 2.49998 -0.645845 0.79538 0
M  V30 7 C 3.62477 -1.41326 0.529017 0
M  V30 8 N 0.564265 0.675413 0.07085 0
M  V30 9 C 0.776502 2.07451 0.196681 0
M  V30 10 N -0.155143 2.9268 0.44605 0
M  V30 11 C -1.48171 2.42426 0.604457 0
M  V30 12 N -1.68652 1.18207 0.495525 0
M  V30 13 C -0.74102 0.141175 0.22242 0
M  V30 14 C -1.14308 -0.460844 -1.12118 0
M  V30 15 C -2.6464 -0.75052 -1.11711 0
M  V30 16 C -3.11641 -1.21049 0.23738 0
M  V30 17 C -2.01533 -1.82667 1.05944 0
M  V30 18 C -0.852948 -0.914603 1.29425 0
M  V30 19 N -2.53109 3.35127 0.881474 0
M  V30 20 N 2.1118 2.62067 0.0418823 0
M  V30 21 H 3.53578 -1.35445 -2.79524 0
M  V30 22 H 1.50545 0.0307911 -2.30488 0
M  V30 23 H 2.25106 -0.475457 1.82742 0
M  V30 24 H 4.20616 -1.80936 1.37399 0
M  V30 25 H -0.558932 -1.37654 -1.30955 0
M  V30 26 H -0.889418 0.277333 -1.90802 0
M  V30 27 H -3.14028 0.205281 -1.38577 0
M  V30 28 H -2.79769 -1.54857 -1.86334 0
M  V30 29 H -3.86254 -2.04143 0.0602056 0
M  V30 30 H -3.68652 -0.438816 0.790292 0
M  V30 31 H -1.70488 -2.76209 0.508239 0
M  V30 32 H -2.48529 -2.18488 2.0049 0
M  V30 33 H 0.0529481 -1.54766 1.38364 0
M  V30 34 H -1.05681 -0.366408 2.25953 0
M  V30 35 H -2.45547 4.34344 0.62484 0
M  V30 36 H -3.39213 3.02449 1.3518 0
M  V30 37 H 2.41438 2.93668 -0.902489 0
M  V30 38 H 2.67881 2.65696 0.901497 0
M  V30 END ATOM
M  V30 BEGIN BOND
M  V30 1 1 1 2
M  V30 2 2 2 3
M  V30 3 1 3 4
M  V30 4 2 4 5
M  V30 5 1 5 6
M  V30 6 2 6 7
M  V30 7 1 5 8
M  V30 8 1 8 9
M  V30 9 2 9 10
M  V30 10 1 10 11
M  V30 11 2 11 12
M  V30 12 1 12 13
M  V30 13 1 13 14
M  V30 14 1 14 15
M  V30 15 1 15 16
M  V30 16 1 16 17
M  V30 17 1 17 18
M  V30 18 1 11 19
M  V30 19 1 9 20
M  V30 20 1 7 2
M  V30 21 1 13 8
M  V30 22 1 18 13
M  V30 23 1 3 21
M  V30 24 1 4 22
M  V30 25 1 6 23
M  V30 26 1 7 24
M  V30 27 1 14 25
M  V30 28 1 14 26
M  V30 29 1 15 27
M  V30 30 1 15 28
M  V30 31 1 16 29
M  V30 32 1 16 30
M  V30 33 1 17 31
M  V30 34 1 17 32
M  V30 35 1 18 33
M  V30 36 1 18 34
M  V30 37 1 19 35
M  V30 38 1 19 36
M  V30 39 1 20 37
M  V30 40 1 20 38
M  V30 END BOND
M  V30 END CTAB
M  END
