
     RDKit          3D

  0  0  0  0  0  0  0  0  0  0999 V3000
M  V30 BEGIN CTAB
M  V30 COUNTS 28 29 0 0 0
M  V30 BEGIN ATOM
M  V30 1 Cl -4.97296 2.87931 0.225235 0
M  V30 2 C -3.56597 1.81929 0.151852 0
M  V30 3 C -2.45942 2.16649 -0.588895 0
M  V30 4 C -1.37661 1.314 -0.624138 0
M  V30 5 C -1.3431 0.114874 0.0531174 0
M  V30 6 C -2.45465 -0.225303 0.79224 0
M  V30 7 C -3.54136 0.621819 0.832488 0
M  V30 8 C -0.15206 -0.777649 -0.0118308 0
M  V30 9 N 1.05295 -0.306958 0.112056 0
M  V30 10 C 2.09335 -1.10245 0.0531564 0
M  V30 11 S 1.35553 -2.63262 -0.194089 0
M  V30 12 C -0.276784 -2.13023 -0.204585 0
M  V30 13 C -1.4701 -2.99936 -0.382891 0
M  V30 14 N 3.50277 -0.790371 0.165148 0
M  V30 15 C 3.87236 0.409787 0.348864 0
M  V30 16 N 2.92474 1.45099 0.446232 0
M  V30 17 N 5.25655 0.705983 0.457438 0
M  V30 18 H -2.44784 3.09414 -1.13113 0
M  V30 19 H -0.532856 1.63795 -1.2232 0
M  V30 20 H -2.48059 -1.16156 1.34645 0
M  V30 21 H -4.41436 0.356261 1.41204 0
M  V30 22 H -1.26984 -3.84809 -1.06381 0
M  V30 23 H -2.33789 -2.4474 -0.782817 0
M  V30 24 H -1.71703 -3.44998 0.604686 0
M  V30 25 H 2.35908 1.58818 1.3194 0
M  V30 26 H 2.79476 2.08769 -0.371566 0
M  V30 27 H 5.81682 0.34195 1.27175 0
M  V30 28 H 5.78452 1.28325 -0.240269 0
M  V30 END ATOM
M  V30 BEGIN BOND
M  V30 1 1 1 2
M  V30 2 2 2 3
M  V30 3 1 3 4
M  V30 4 2 4 5
M  V30 5 1 5 6
M  V30 6 2 6 7
M  V30 7 1 5 8
M  V30 8 1 8 9
M  V30 9 2 9 10
M  V30 10 1 10 11
M  V30 11 1 11 12
M  V30 12 1 12 13
M  V30 13 1 10 14
M  V30 14 2 14 15 CFG=2
M  V30 15 1 15 16
M  V30 16 1 15 17
M  V30 17 1 7 2
M  V30 18 2 12 8
M  V30 19 1 3 18
M  V30 20 1 4 19
M  V30 21 1 6 20
M  V30 22 1 7 21
M  V30 23 1 13 22
M  V30 24 1 13 23
M  V30 25 1 13 24
M  V30 26 1 16 25
M  V30 27 1 16 26
M  V30 28 1 17 27
M  V30 29 1 17 28
M  V30 END BOND
M  V30 END CTAB
M  END
