
     RDKit          3D

  0  0  0  0  0  0  0  0  0  0999 V3000
M  V30 BEGIN CTAB
M  V30 COUNTS 17 17 0 0 0
M  V30 BEGIN ATOM
M  V30 1 N -2.76439 1.16053 -0.456836 0
M  V30 2 C -1.70811 0.337926 0.00081446 0
M  V30 3 C -1.92427 -0.748475 0.836475 0
M  V30 4 C -0.790803 -1.44395 1.18885 0
M  V30 5 N 0.436452 -1.11247 0.767167 0
M  V30 6 C 0.609222 -0.0542447 -0.0414025 0
M  V30 7 N -0.465308 0.650705 -0.409261 0
M  V30 8 C 1.9151 0.351182 -0.5291 0
M  V30 9 N 1.99591 1.37222 -1.29693 0
M  V30 10 N 3.04064 -0.402492 -0.132415 0
M  V30 11 H -2.99382 2.02881 0.0280637 0
M  V30 12 H -3.30176 0.87192 -1.2888 0
M  V30 13 H -2.92291 -0.986627 1.15622 0
M  V30 14 H -0.935944 -2.3105 1.85149 0
M  V30 15 H 2.90506 1.71474 -1.6811 0
M  V30 16 H 3.05643 -1.40772 -0.382209 0
M  V30 17 H 3.84849 -0.0215525 0.388979 0
M  V30 END ATOM
M  V30 BEGIN BOND
M  V30 1 1 1 2
M  V30 2 2 2 3
M  V30 3 1 3 4
M  V30 4 2 4 5
M  V30 5 1 5 6
M  V30 6 2 6 7
M  V30 7 1 6 8
M  V30 8 2 8 9 CFG=2
M  V30 9 1 8 10
M  V30 10 1 7 2
M  V30 11 1 1 11
M  V30 12 1 1 12
M  V30 13 1 3 13
M  V30 14 1 4 14
M  V30 15 1 9 15
M  V30 16 1 10 16
M  V30 17 1 10 17
M  V30 END BOND
M  V30 END CTAB
M  END
