
     RDKit          3D

  0  0  0  0  0  0  0  0  0  0999 V3000
M  V30 BEGIN CTAB
M  V30 COUNTS 28 29 0 0 0
M  V30 BEGIN ATOM
M  V30 1 N 2.8295 -0.317847 1.9072 0
M  V30 2 C 2.55888 0.429225 0.710961 0
M  V30 3 N 3.41102 1.2719 0.100547 0
M  V30 4 N 2.87667 1.69161 -1.01551 0
M  V30 5 C 1.64407 1.12406 -1.1699 0
M  V30 6 C 1.43598 0.317453 -0.0651988 0
M  V30 7 C 0.210839 -0.409862 0.354096 0 CFG=2
M  V30 8 C 0.232152 -1.68338 -0.558476 0
M  V30 9 C -1.14183 -2.19003 -0.253483 0
M  V30 10 C -1.91842 -0.936649 -0.0343118 0
M  V30 11 N -0.951314 0.188868 -0.305961 0
M  V30 12 S -1.68268 1.52977 0.4245 0
M  V30 13 O -1.59558 2.78395 -0.399716 0
M  V30 14 O -1.10721 1.78615 1.8073 0
M  V30 15 N -3.35565 1.16722 0.69413 0
M  V30 16 H 2.13802 -1.06322 2.20469 0
M  V30 17 H 3.68717 -0.134997 2.43444 0
M  V30 18 H 3.29913 2.34597 -1.69263 0
M  V30 19 H 0.934443 1.25162 -1.95555 0
M  V30 20 H 0.0896584 -0.612701 1.37507 0
M  V30 21 H 0.424732 -1.36425 -1.5634 0
M  V30 22 H 1.02879 -2.36338 -0.162691 0
M  V30 23 H -1.05775 -2.80061 0.674377 0
M  V30 24 H -1.59389 -2.77117 -1.04937 0
M  V30 25 H -2.04696 -0.835019 1.08805 0
M  V30 26 H -2.83964 -0.811085 -0.579759 0
M  V30 27 H -3.52539 0.444151 1.35948 0
M  V30 28 H -3.98473 1.96226 0.554081 0
M  V30 END ATOM
M  V30 BEGIN BOND
M  V30 1 1 1 2
M  V30 2 2 2 3
M  V30 3 1 3 4
M  V30 4 1 4 5
M  V30 5 2 5 6
M  V30 6 1 6 7
M  V30 7 1 7 8
M  V30 8 1 8 9
M  V30 9 1 9 10
M  V30 10 1 10 11
M  V30 11 1 11 12
M  V30 12 2 12 13
M  V30 13 2 12 14
M  V30 14 1 12 15
M  V30 15 1 6 2
M  V30 16 1 11 7
M  V30 17 1 1 16
M  V30 18 1 1 17
M  V30 19 1 4 18
M  V30 20 1 5 19
M  V30 21 1 7 20 CFG=1
M  V30 22 1 8 21
M  V30 23 1 8 22
M  V30 24 1 9 23
M  V30 25 1 9 24
M  V30 26 1 10 25
M  V30 27 1 10 26
M  V30 28 1 15 27
M  V30 29 1 15 28
M  V30 END BOND
M  V30 END CTAB
M  END
