
     RDKit          3D

  0  0  0  0  0  0  0  0  0  0999 V3000
M  V30 BEGIN CTAB
M  V30 COUNTS 101 100 0 0 0
M  V30 BEGIN ATOM
M  V30 1 C 1.28974 0.98873 -1.77305 0 CFG=1
M  V30 2 C 2.04365 1.59098 -2.97576 0
M  V30 3 C 0.703186 -0.319704 -2.19865 0
M  V30 4 C -0.2735 -0.147619 -3.3555 0
M  V30 5 C 2.21661 0.912118 -0.621945 0 CFG=2
M  V30 6 N 3.3917 0.102246 -0.851172 0
M  V30 7 C 4.71947 0.481465 -0.541632 0
M  V30 8 O 4.93532 1.57752 -0.0231517 0
M  V30 9 C 5.88214 -0.433816 -0.838345 0 CFG=2
M  V30 10 C 5.59178 -1.76127 -0.264973 0
M  V30 11 C 6.57209 -2.84964 -0.462318 0
M  V30 12 C 6.84054 -3.17381 -1.91286 0
M  V30 13 C 7.82319 -2.69626 0.349734 0
M  V30 14 N 7.05208 0.245074 -0.345057 0
M  V30 15 C 7.32373 0.607518 0.977006 0
M  V30 16 O 6.57295 0.381112 1.96587 0
M  V30 17 C 8.60908 1.32638 1.27469 0 CFG=1
M  V30 18 N 9.33095 1.66856 0.0889726 0
M  V30 19 C 8.41119 2.51695 2.15639 0
M  V30 20 O 7.70327 2.16727 3.33171 0
M  V30 21 C 1.60552 0.482836 0.660909 0
M  V30 22 O 2.25268 0.00488254 1.61111 0
M  V30 23 N 0.183272 0.625027 0.820839 0
M  V30 24 C -0.442756 0.242162 2.05851 0
M  V30 25 C -1.90314 0.363973 2.1059 0
M  V30 26 O -2.52558 0.0891839 3.20135 0
M  V30 27 N -2.689 0.760659 1.02327 0
M  V30 28 C -4.15379 0.864283 1.12709 0 CFG=1
M  V30 29 C -4.71066 1.99253 0.327968 0
M  V30 30 C -4.15252 3.31354 0.763185 0
M  V30 31 C -4.46024 3.58574 2.21245 0
M  V30 32 N -5.87764 3.60941 2.4923 0
M  V30 33 C -6.29099 3.81457 3.82054 0
M  V30 34 N -7.04716 4.9478 4.19658 0
M  V30 35 N -5.9717 2.95248 4.71185 0
M  V30 36 C -4.70056 -0.43244 0.574753 0
M  V30 37 O -3.88571 -1.29025 0.1971 0
M  V30 38 N -6.07933 -0.613915 0.513116 0
M  V30 39 C -6.65226 -1.88161 -0.0135233 0 CFG=1
M  V30 40 C -6.30305 -1.9485 -1.42952 0
M  V30 41 C -6.68541 -3.04648 -2.32665 0
M  V30 42 C -6.18212 -4.41392 -2.05383 0
M  V30 43 C -6.12331 -2.6705 -3.7298 0
M  V30 44 C -6.33782 -2.90099 0.947467 0
M  V30 45 O -6.76422 -4.20604 0.924713 0
M  V30 46 O -5.58538 -2.61913 1.96704 0
M  V30 47 H 0.484404 1.72566 -1.55816 0
M  V30 48 H 1.38197 2.26945 -3.56031 0
M  V30 49 H 2.86121 2.20375 -2.55191 0
M  V30 50 H 2.48563 0.806611 -3.60757 0
M  V30 51 H 0.161179 -0.827875 -1.37895 0
M  V30 52 H 1.46813 -1.03851 -2.56354 0
M  V30 53 H -1.25064 0.256071 -3.00844 0
M  V30 54 H -0.481436 -1.16527 -3.76632 0
M  V30 55 H 0.16381 0.443931 -4.18021 0
M  V30 56 H 2.59391 1.95982 -0.391058 0
M  V30 57 H 3.21768 -0.82705 -1.28626 0
M  V30 58 H 5.87853 -0.444733 -1.97599 0
M  V30 59 H 5.42359 -1.59828 0.84925 0
M  V30 60 H 4.5674 -2.10382 -0.600715 0
M  V30 61 H 6.09694 -3.80976 -0.0607931 0
M  V30 62 H 7.04784 -2.26319 -2.51494 0
M  V30 63 H 5.98921 -3.71632 -2.3459 0
M  V30 64 H 7.76408 -3.7929 -1.95631 0
M  V30 65 H 7.56449 -2.45578 1.40025 0
M  V30 66 H 8.56809 -1.99177 -0.0917009 0
M  V30 67 H 8.36418 -3.69365 0.438657 0
M  V30 68 H 7.78479 0.488332 -1.08117 0
M  V30 69 H 9.26642 0.611369 1.85678 0
M  V30 70 H 9.70988 0.889843 -0.460759 0
M  V30 71 H 8.83651 2.3586 -0.517829 0
M  V30 72 H 9.40862 2.86506 2.49262 0
M  V30 73 H 7.85675 3.32934 1.62202 0
M  V30 74 H 8.12221 1.32165 3.68166 0
M  V30 75 H -0.392346 1.00314 0.0504782 0
M  V30 76 H -0.212322 -0.835333 2.28196 0
M  V30 77 H 0.0506695 0.869692 2.86384 0
M  V30 78 H -2.26862 0.993414 0.105189 0
M  V30 79 H -4.40754 0.913235 2.19987 0
M  V30 80 H -4.59483 1.8335 -0.767149 0
M  V30 81 H -5.82705 2.03172 0.487165 0
M  V30 82 H -4.5217 4.11141 0.0941094 0
M  V30 83 H -3.03765 3.28628 0.668716 0
M  V30 84 H -4.01347 2.79673 2.84802 0
M  V30 85 H -3.98712 4.56481 2.51864 0
M  V30 86 H -6.55481 3.47867 1.72663 0
M  V30 87 H -7.36029 5.07481 5.17259 0
M  V30 88 H -7.31413 5.68651 3.51582 0
M  V30 89 H -5.40479 2.08998 4.47369 0
M  V30 90 H -6.7169 0.141705 0.837112 0
M  V30 91 H -7.79279 -1.66207 0.0761956 0
M  V30 92 H -6.70529 -0.948278 -1.87935 0
M  V30 93 H -5.1827 -1.76966 -1.61357 0
M  V30 94 H -7.80902 -3.06827 -2.53274 0
M  V30 95 H -6.93489 -5.1368 -1.66884 0
M  V30 96 H -5.29266 -4.40475 -1.42223 0
M  V30 97 H -5.84296 -4.9277 -3.02592 0
M  V30 98 H -6.46581 -1.63936 -3.90702 0
M  V30 99 H -6.59749 -3.35724 -4.44235 0
M  V30 100 H -5.01792 -2.77249 -3.67889 0
M  V30 101 H -6.38721 -4.96337 1.45097 0
M  V30 END ATOM
M  V30 BEGIN BOND
M  V30 1 1 1 2
M  V30 2 1 1 3
M  V30 3 1 3 4
M  V30 4 1 1 5
M  V30 5 1 5 6
M  V30 6 1 6 7
M  V30 7 2 7 8
M  V30 8 1 7 9
M  V30 9 1 9 10
M  V30 10 1 10 11
M  V30 11 1 11 12
M  V30 12 1 11 13
M  V30 13 1 9 14
M  V30 14 1 14 15
M  V30 15 2 15 16
M  V30 16 1 15 17
M  V30 17 1 17 18
M  V30 18 1 17 19
M  V30 19 1 19 20
M  V30 20 1 5 21
M  V30 21 2 21 22
M  V30 22 1 21 23
M  V30 23 1 23 24
M  V30 24 1 24 25
M  V30 25 2 25 26
M  V30 26 1 25 27
M  V30 27 1 27 28
M  V30 28 1 28 29
M  V30 29 1 29 30
M  V30 30 1 30 31
M  V30 31 1 31 32
M  V30 32 1 32 33
M  V30 33 1 33 34
M  V30 34 2 33 35 CFG=2
M  V30 35 1 28 36
M  V30 36 2 36 37
M  V30 37 1 36 38
M  V30 38 1 38 39
M  V30 39 1 39 40
M  V30 40 1 40 41
M  V30 41 1 41 42
M  V30 42 1 41 43
M  V30 43 1 39 44
M  V30 44 1 44 45
M  V30 45 2 44 46
M  V30 46 1 1 47 CFG=1
M  V30 47 1 2 48
M  V30 48 1 2 49
M  V30 49 1 2 50
M  V30 50 1 3 51
M  V30 51 1 3 52
M  V30 52 1 4 53
M  V30 53 1 4 54
M  V30 54 1 4 55
M  V30 55 1 5 56 CFG=1
M  V30 56 1 6 57
M  V30 57 1 9 58 CFG=3
M  V30 58 1 10 59
M  V30 59 1 10 60
M  V30 60 1 11 61
M  V30 61 1 12 62
M  V30 62 1 12 63
M  V30 63 1 12 64
M  V30 64 1 13 65
M  V30 65 1 13 66
M  V30 66 1 13 67
M  V30 67 1 14 68
M  V30 68 1 17 69 CFG=1
M  V30 69 1 18 70
M  V30 70 1 18 71
M  V30 71 1 19 72
M  V30 72 1 19 73
M  V30 73 1 20 74
M  V30 74 1 23 75
M  V30 75 1 24 76
M  V30 76 1 24 77
M  V30 77 1 27 78
M  V30 78 1 28 79 CFG=1
M  V30 79 1 29 80
M  V30 80 1 29 81
M  V30 81 1 30 82
M  V30 82 1 30 83
M  V30 83 1 31 84
M  V30 84 1 31 85
M  V30 85 1 32 86
M  V30 86 1 34 87
M  V30 87 1 34 88
M  V30 88 1 35 89
M  V30 89 1 38 90
M  V30 90 1 39 91 CFG=3
M  V30 91 1 40 92
M  V30 92 1 40 93
M  V30 93 1 41 94
M  V30 94 1 42 95
M  V30 95 1 42 96
M  V30 96 1 42 97
M  V30 97 1 43 98
M  V30 98 1 43 99
M  V30 99 1 43 100
M  V30 100 1 45 101
M  V30 END BOND
M  V30 END CTAB
M  END
