
     RDKit          3D

  0  0  0  0  0  0  0  0  0  0999 V3000
M  V30 BEGIN CTAB
M  V30 COUNTS 26 27 0 0 0
M  V30 BEGIN ATOM
M  V30 1 N -0.403723 1.13374 -1.05986 0
M  V30 2 C -1.45975 0.389536 -0.478702 0
M  V30 3 C -2.33843 1.27862 0.42661 0
M  V30 4 C -3.16493 0.2501 1.14873 0
M  V30 5 C -2.43137 -1.06764 1.04673 0
M  V30 6 C -1.07411 -0.652861 0.534788 0
M  V30 7 S -0.0523988 -1.97418 -0.0159483 0
M  V30 8 C 1.60719 -1.40211 -0.318573 0
M  V30 9 N 2.64896 -2.16066 -0.787322 0
M  V30 10 N 3.72041 -1.40323 -0.85905 0
M  V30 11 C 3.42785 -0.157316 -0.451444 0
M  V30 12 N 2.14361 -0.18668 -0.131163 0
M  V30 13 N 4.28741 0.978733 -0.367489 0
M  V30 14 H -0.134537 0.67114 -1.9652 0
M  V30 15 H -0.654125 2.13679 -1.23734 0
M  V30 16 H -2.10389 -0.134469 -1.21981 0
M  V30 17 H -2.91237 2.00369 -0.149527 0
M  V30 18 H -1.59384 1.7712 1.11872 0
M  V30 19 H -4.15488 0.210246 0.650651 0
M  V30 20 H -3.36046 0.532217 2.20306 0
M  V30 21 H -2.92635 -1.73579 0.300726 0
M  V30 22 H -2.38166 -1.53509 2.05002 0
M  V30 23 H -0.594868 -0.0962622 1.39165 0
M  V30 24 H 4.67355 -1.68696 -1.17843 0
M  V30 25 H 4.40533 1.51685 0.536306 0
M  V30 26 H 4.82737 1.32038 -1.18812 0
M  V30 END ATOM
M  V30 BEGIN BOND
M  V30 1 1 1 2
M  V30 2 1 2 3
M  V30 3 1 3 4
M  V30 4 1 4 5
M  V30 5 1 5 6
M  V30 6 1 6 7
M  V30 7 1 7 8
M  V30 8 2 8 9
M  V30 9 1 9 10
M  V30 10 1 10 11
M  V30 11 2 11 12
M  V30 12 1 11 13
M  V30 13 1 6 2
M  V30 14 1 12 8
M  V30 15 1 1 14
M  V30 16 1 1 15
M  V30 17 1 2 16
M  V30 18 1 3 17
M  V30 19 1 3 18
M  V30 20 1 4 19
M  V30 21 1 4 20
M  V30 22 1 5 21
M  V30 23 1 5 22
M  V30 24 1 6 23
M  V30 25 1 10 24
M  V30 26 1 13 25
M  V30 27 1 13 26
M  V30 END BOND
M  V30 END CTAB
M  END
