
     RDKit          3D

  0  0  0  0  0  0  0  0  0  0999 V3000
M  V30 BEGIN CTAB
M  V30 COUNTS 21 21 0 0 0
M  V30 BEGIN ATOM
M  V30 1 C 3.41289 -0.117246 0.200303 0
M  V30 2 O 2.37631 -1.04246 -0.0474293 0
M  V30 3 C 1.05804 -0.626143 -0.0503006 0
M  V30 4 C 0.773603 0.700496 0.191434 0
M  V30 5 C -0.533428 1.16791 0.199295 0
M  V30 6 N -0.853378 2.52931 0.445537 0
M  V30 7 C -1.56782 0.266335 -0.0436302 0
M  V30 8 C -1.28116 -1.06472 -0.286082 0
M  V30 9 C 0.0366797 -1.52278 -0.291421 0
M  V30 10 N -2.36795 -1.94228 -0.527655 0
M  V30 11 O -2.87053 0.692508 -0.0435742 0
M  V30 12 H 3.21053 0.433677 1.16182 0
M  V30 13 H 3.43439 0.603997 -0.640798 0
M  V30 14 H 4.39769 -0.577655 0.264273 0
M  V30 15 H 1.58907 1.3924 0.379232 0
M  V30 16 H -0.88221 2.94918 1.39484 0
M  V30 17 H -1.07315 3.15076 -0.363943 0
M  V30 18 H 0.252909 -2.54493 -0.477863 0
M  V30 19 H -2.80759 -2.42545 0.261924 0
M  V30 20 H -2.68115 -2.06387 -1.50649 0
M  V30 21 H -3.62373 0.0409513 -0.219476 0
M  V30 END ATOM
M  V30 BEGIN BOND
M  V30 1 1 1 2
M  V30 2 1 2 3
M  V30 3 2 3 4
M  V30 4 1 4 5
M  V30 5 1 5 6
M  V30 6 2 5 7
M  V30 7 1 7 8
M  V30 8 2 8 9
M  V30 9 1 8 10
M  V30 10 1 7 11
M  V30 11 1 9 3
M  V30 12 1 1 12
M  V30 13 1 1 13
M  V30 14 1 1 14
M  V30 15 1 4 15
M  V30 16 1 6 16
M  V30 17 1 6 17
M  V30 18 1 9 18
M  V30 19 1 10 19
M  V30 20 1 10 20
M  V30 21 1 11 21
M  V30 END BOND
M  V30 END CTAB
M  END
