
     RDKit          3D

  0  0  0  0  0  0  0  0  0  0999 V3000
M  V30 BEGIN CTAB
M  V30 COUNTS 51 52 0 0 0
M  V30 BEGIN ATOM
M  V30 1 N -9.0019 0.985794 -1.64437 0
M  V30 2 C -8.21109 -0.11073 -1.18609 0
M  V30 3 C -6.81825 0.228812 -0.839231 0
M  V30 4 C -5.71079 0.440836 -0.481702 0
M  V30 5 C -4.37835 0.616642 0.0985225 0
M  V30 6 C -3.34429 -0.215604 -0.268404 0
M  V30 7 N -2.20209 -0.123382 0.508809 0
M  V30 8 C -1.08014 -0.910465 0.212257 0 CFG=1
M  V30 9 C -1.09344 -1.62235 -1.11338 0
M  V30 10 C 0.435551 -1.94131 -1.25227 0 CFG=1
M  V30 11 C 0.976864 -0.956185 -0.264231 0 CFG=2
M  V30 12 O 0.0149093 0.0151917 -0.093768 0
M  V30 13 C 2.3709 -0.525681 -0.53599 0
M  V30 14 O 2.67724 0.338873 0.579875 0
M  V30 15 P 4.0143 -0.360697 1.36967 0
M  V30 16 O 3.54736 -0.282651 2.87886 0
M  V30 17 O 5.43372 0.375998 1.15291 0
M  V30 18 P 6.55241 -0.475953 0.230942 0
M  V30 19 O 5.93245 -1.04061 -1.0126 0
M  V30 20 O 7.75173 0.627946 -0.314849 0
M  V30 21 P 6.86339 2.063 -0.617195 0
M  V30 22 O 5.88255 1.82429 -1.74706 0
M  V30 23 O 7.96084 3.27247 -0.989775 0
M  V30 24 O 6.06107 2.4701 0.799331 0
M  V30 25 O 7.29992 -1.72171 1.05393 0
M  V30 26 O 4.03308 -2.03667 1.01328 0
M  V30 27 O 0.646635 -3.22827 -0.723969 0
M  V30 28 C -2.11493 0.729934 1.55648 0
M  V30 29 O -1.01549 0.748333 2.24676 0
M  V30 30 N -3.10473 1.527 1.88299 0
M  V30 31 C -4.25087 1.48076 1.1622 0
M  V30 32 N -5.33661 2.37997 1.35337 0
M  V30 33 H -9.88493 1.09284 -1.05067 0
M  V30 34 H -8.49128 1.90157 -1.51366 0
M  V30 35 H -8.20588 -1.00393 -1.80996 0
M  V30 36 H -8.72752 -0.407157 -0.178932 0
M  V30 37 H -3.36601 -0.854506 -1.11253 0
M  V30 38 H -0.659227 -1.57228 0.986617 0
M  V30 39 H -1.25767 -0.929937 -1.97347 0
M  V30 40 H -1.65002 -2.5428 -1.13636 0
M  V30 41 H 0.776905 -1.86289 -2.27258 0
M  V30 42 H 0.987669 -1.48163 0.790033 0
M  V30 43 H 3.06174 -1.27102 -0.760999 0
M  V30 44 H 2.30165 0.211037 -1.4127 0
M  V30 45 H 7.53707 4.00755 -1.5058 0
M  V30 46 H 6.7317 2.73807 1.46943 0
M  V30 47 H 8.0417 -2.07336 0.487702 0
M  V30 48 H 3.45991 -2.53488 1.65605 0
M  V30 49 H -0.0300874 -3.43327 -0.0466869 0
M  V30 50 H -5.3039 3.29718 0.824812 0
M  V30 51 H -6.11377 2.14575 1.97005 0
M  V30 END ATOM
M  V30 BEGIN BOND
M  V30 1 1 1 2
M  V30 2 1 2 3
M  V30 3 3 3 4
M  V30 4 1 4 5
M  V30 5 2 5 6
M  V30 6 1 6 7
M  V30 7 1 7 8
M  V30 8 1 8 9
M  V30 9 1 9 10
M  V30 10 1 10 11
M  V30 11 1 11 12
M  V30 12 1 11 13
M  V30 13 1 13 14
M  V30 14 1 14 15
M  V30 15 2 15 16
M  V30 16 1 15 17
M  V30 17 1 17 18
M  V30 18 2 18 19
M  V30 19 1 18 20
M  V30 20 1 20 21
M  V30 21 2 21 22
M  V30 22 1 21 23
M  V30 23 1 21 24
M  V30 24 1 18 25
M  V30 25 1 15 26
M  V30 26 1 10 27
M  V30 27 1 7 28
M  V30 28 2 28 29
M  V30 29 1 28 30
M  V30 30 2 30 31
M  V30 31 1 31 32
M  V30 32 1 31 5
M  V30 33 1 12 8
M  V30 34 1 1 33
M  V30 35 1 1 34
M  V30 36 1 2 35
M  V30 37 1 2 36
M  V30 38 1 6 37
M  V30 39 1 8 38 CFG=1
M  V30 40 1 9 39
M  V30 41 1 9 40
M  V30 42 1 10 41 CFG=3
M  V30 43 1 11 42 CFG=1
M  V30 44 1 13 43
M  V30 45 1 13 44
M  V30 46 1 23 45
M  V30 47 1 24 46
M  V30 48 1 25 47
M  V30 49 1 26 48
M  V30 50 1 27 49
M  V30 51 1 32 50
M  V30 52 1 32 51
M  V30 END BOND
M  V30 END CTAB
M  END
