
     RDKit          3D

  0  0  0  0  0  0  0  0  0  0999 V3000
M  V30 BEGIN CTAB
M  V30 COUNTS 21 21 0 0 0
M  V30 BEGIN ATOM
M  V30 1 O -1.89391 3.45328 -0.606625 0 CHG=-1
M  V30 2 N -2.24965 2.15431 -0.41623 0 CHG=1
M  V30 3 O -3.46676 1.8823 -0.404332 0
M  V30 4 C -1.29109 1.12186 -0.234548 0
M  V30 5 C -1.70648 -0.181267 -0.0448978 0
M  V30 6 C -0.803237 -1.21647 0.135867 0
M  V30 7 N -1.24674 -2.56742 0.332233 0
M  V30 8 C 0.533309 -0.888383 0.118189 0
M  V30 9 C 1.01227 0.398734 -0.0674587 0
M  V30 10 C 0.0569686 1.40666 -0.245306 0
M  V30 11 C 2.43029 0.6936 -0.0780802 0
M  V30 12 O 3.28058 -0.201474 0.079856 0
M  V30 13 O 2.86748 1.98495 -0.265367 0
M  V30 14 N 1.48656 -1.9468 0.303826 0
M  V30 15 H -2.75002 -0.455139 -0.0283722 0
M  V30 16 H -1.05525 -3.09319 1.22097 0
M  V30 17 H -1.77181 -2.99819 -0.461079 0
M  V30 18 H 0.39443 2.42285 -0.39288 0
M  V30 19 H 2.47601 2.71725 0.33411 0
M  V30 20 H 2.06574 -2.26917 -0.502144 0
M  V30 21 H 1.63131 -2.41829 1.22227 0
M  V30 END ATOM
M  V30 BEGIN BOND
M  V30 1 1 1 2
M  V30 2 2 2 3
M  V30 3 1 2 4
M  V30 4 2 4 5
M  V30 5 1 5 6
M  V30 6 1 6 7
M  V30 7 2 6 8
M  V30 8 1 8 9
M  V30 9 2 9 10
M  V30 10 1 9 11
M  V30 11 2 11 12
M  V30 12 1 11 13
M  V30 13 1 8 14
M  V30 14 1 10 4
M  V30 15 1 5 15
M  V30 16 1 7 16
M  V30 17 1 7 17
M  V30 18 1 10 18
M  V30 19 1 13 19
M  V30 20 1 14 20
M  V30 21 1 14 21
M  V30 END BOND
M  V30 END CTAB
M  END
