
     RDKit          3D

  0  0  0  0  0  0  0  0  0  0999 V3000
M  V30 BEGIN CTAB
M  V30 COUNTS 38 39 0 0 0
M  V30 BEGIN ATOM
M  V30 1 S 0.388181 -0.447977 1.70674 0
M  V30 2 C 0.18801 -0.0250407 0.153851 0
M  V30 3 N 1.31009 0.264292 -0.665763 0
M  V30 4 C 2.67674 0.265966 -0.408649 0
M  V30 5 C 3.32259 -0.0262936 0.760187 0
M  V30 6 C 4.70479 -0.00241738 0.940726 0
M  V30 7 C 5.31937 -0.336095 2.25156 0
M  V30 8 C 5.48667 0.340358 -0.134057 0
M  V30 9 C 4.89945 0.645709 -1.33843 0
M  V30 10 C 3.53562 0.610836 -1.47611 0
M  V30 11 N 2.94048 0.933777 -2.74492 0
M  V30 12 N -1.08658 0.0781484 -0.46108 0
M  V30 13 C -2.3718 -0.131227 0.0408009 0
M  V30 14 C -2.71328 -0.505964 1.31643 0
M  V30 15 C -4.01907 -0.700408 1.76084 0
M  V30 16 C -5.04147 -0.506093 0.868223 0
M  V30 17 C -4.73792 -0.129208 -0.422403 0
M  V30 18 C -3.45456 0.0600689 -0.852627 0
M  V30 19 N -3.22053 0.446305 -2.19021 0
M  V30 20 C -6.43756 -0.710589 1.3311 0
M  V30 21 H 1.01483 0.528465 -1.66827 0
M  V30 22 H 2.76404 -0.297249 1.6211 0
M  V30 23 H 5.35922 0.535958 2.93424 0
M  V30 24 H 4.73741 -1.1532 2.75349 0
M  V30 25 H 6.34463 -0.770276 2.10665 0
M  V30 26 H 6.55831 0.362443 -0.00684458 0
M  V30 27 H 5.50382 0.923536 -2.21524 0
M  V30 28 H 2.71559 0.139604 -3.36607 0
M  V30 29 H 2.7756 1.92677 -2.95671 0
M  V30 30 H -1.01602 0.372709 -1.50187 0
M  V30 31 H -1.97081 -0.676776 2.07091 0
M  V30 32 H -4.20511 -1.0014 2.80246 0
M  V30 33 H -5.57868 0.0148051 -1.09996 0
M  V30 34 H -3.32068 1.43673 -2.53738 0
M  V30 35 H -2.92822 -0.244604 -2.92727 0
M  V30 36 H -6.58882 -0.261752 2.32986 0
M  V30 37 H -6.71816 -1.77308 1.38173 0
M  V30 38 H -7.13617 -0.18682 0.621996 0
M  V30 END ATOM
M  V30 BEGIN BOND
M  V30 1 2 1 2
M  V30 2 1 2 3
M  V30 3 1 3 4
M  V30 4 2 4 5
M  V30 5 1 5 6
M  V30 6 1 6 7
M  V30 7 2 6 8
M  V30 8 1 8 9
M  V30 9 2 9 10
M  V30 10 1 10 11
M  V30 11 1 2 12
M  V30 12 1 12 13
M  V30 13 2 13 14
M  V30 14 1 14 15
M  V30 15 2 15 16
M  V30 16 1 16 17
M  V30 17 2 17 18
M  V30 18 1 18 19
M  V30 19 1 16 20
M  V30 20 1 10 4
M  V30 21 1 18 13
M  V30 22 1 3 21
M  V30 23 1 5 22
M  V30 24 1 7 23
M  V30 25 1 7 24
M  V30 26 1 7 25
M  V30 27 1 8 26
M  V30 28 1 9 27
M  V30 29 1 11 28
M  V30 30 1 11 29
M  V30 31 1 12 30
M  V30 32 1 14 31
M  V30 33 1 15 32
M  V30 34 1 17 33
M  V30 35 1 19 34
M  V30 36 1 19 35
M  V30 37 1 20 36
M  V30 38 1 20 37
M  V30 39 1 20 38
M  V30 END BOND
M  V30 END CTAB
M  END
