
     RDKit          3D

  0  0  0  0  0  0  0  0  0  0999 V3000
M  V30 BEGIN CTAB
M  V30 COUNTS 89 93 0 0 0
M  V30 BEGIN ATOM
M  V30 1 C -6.87708 -3.45609 2.04798 0
M  V30 2 O -7.26521 -2.14162 1.64848 0
M  V30 3 C -8.50421 -1.61369 1.90246 0
M  V30 4 O -9.33543 -2.32055 2.51518 0
M  V30 5 C -8.9041 -0.271769 1.49602 0
M  V30 6 C -8.09209 0.620139 0.813224 0
M  V30 7 N -6.75797 0.33828 0.419631 0
M  V30 8 N -5.90163 1.25267 0.162793 0
M  V30 9 C -4.58452 0.823467 -0.225214 0
M  V30 10 C -3.70468 0.131587 0.587441 0
M  V30 11 N -3.94783 -0.267515 1.92976 0
M  V30 12 N -2.56416 -0.0995854 -0.124953 0
M  V30 13 N -2.7597 0.434209 -1.3135 0
M  V30 14 C -3.96475 1.00233 -1.4198 0
M  V30 15 C -4.54876 1.70335 -2.5992 0
M  V30 16 C -4.89449 3.13125 -2.29146 0
M  V30 17 C -3.50741 1.69219 -3.69538 0
M  V30 18 C -5.82117 1.00534 -3.0305 0
M  V30 19 C -1.42304 -0.789891 0.377122 0
M  V30 20 C -0.137297 -0.51757 -0.00678558 0
M  V30 21 C 0.942055 -1.20744 0.501443 0
M  V30 22 N 0.688572 -2.17393 1.40243 0
M  V30 23 C -0.570357 -2.45967 1.79551 0
M  V30 24 O -0.733107 -3.47268 2.72879 0
M  V30 25 N -1.60426 -1.77043 1.28311 0
M  V30 26 N 2.28235 -0.924046 0.102099 0
M  V30 27 N 2.65591 0.00673559 -0.751048 0
M  V30 28 C 3.99262 0.0332875 -0.925297 0
M  V30 29 C 4.50734 -0.954903 -0.123469 0
M  V30 30 N 5.80874 -1.38726 0.0872284 0
M  V30 31 N 6.89297 -0.809223 0.0294141 0
M  V30 32 C 8.16041 -1.34725 0.263888 0
M  V30 33 C 9.08854 -0.859559 1.15745 0
M  V30 34 C 10.1779 -1.6967 1.05277 0
M  V30 35 N 9.89826 -2.6405 0.131445 0
M  V30 36 N 8.672 -2.42723 -0.34729 0
M  V30 37 C 8.03824 -3.26542 -1.37046 0
M  V30 38 C 8.97455 0.299608 2.04476 0
M  V30 39 O 9.92613 0.593881 2.79305 0
M  V30 40 O 7.83845 1.08864 2.08426 0
M  V30 41 C 7.72728 2.20893 2.94112 0
M  V30 42 C 3.39427 -1.53345 0.506867 0
M  V30 43 N 3.42664 -2.60138 1.43337 0
M  V30 44 C 4.7627 0.975816 -1.81225 0
M  V30 45 C 3.70941 1.86079 -2.50337 0
M  V30 46 C 5.51212 0.262683 -2.89997 0
M  V30 47 C 5.61173 1.94126 -1.01605 0
M  V30 48 N -8.81677 1.74928 0.620158 0
M  V30 49 C -8.35024 2.94325 -0.0565604 0
M  V30 50 N -10.0032 1.56084 1.15312 0
M  V30 51 C -10.1055 0.343055 1.69983 0
M  V30 52 H -7.76358 -4.11685 2.08034 0
M  V30 53 H -6.09765 -3.87951 1.39548 0
M  V30 54 H -6.52232 -3.38084 3.11355 0
M  V30 55 H -4.87391 -0.607502 2.22579 0
M  V30 56 H -3.18642 -0.220072 2.635 0
M  V30 57 H -5.98905 3.26883 -2.11245 0
M  V30 58 H -4.66589 3.74828 -3.18473 0
M  V30 59 H -4.30208 3.52877 -1.45681 0
M  V30 60 H -2.96026 0.734627 -3.61066 0
M  V30 61 H -2.77307 2.50791 -3.4371 0
M  V30 62 H -3.94634 1.85826 -4.69636 0
M  V30 63 H -5.82575 -0.059454 -2.68937 0
M  V30 64 H -5.9441 1.0481 -4.12997 0
M  V30 65 H -6.71795 1.503 -2.6026 0
M  V30 66 H 0.053155 0.261321 -0.731738 0
M  V30 67 H -1.57926 -3.43774 3.28772 0
M  V30 68 H 11.0915 -1.5702 1.64337 0
M  V30 69 H 7.3087 -2.6761 -1.96185 0
M  V30 70 H 8.85711 -3.55679 -2.06481 0
M  V30 71 H 7.59712 -4.15927 -0.919228 0
M  V30 72 H 6.96041 2.04715 3.73503 0
M  V30 73 H 8.6776 2.43815 3.46772 0
M  V30 74 H 7.4179 3.07012 2.30699 0
M  V30 75 H 3.73109 -3.57636 1.19414 0
M  V30 76 H 3.13934 -2.47619 2.4448 0
M  V30 77 H 3.07966 1.17469 -3.10537 0
M  V30 78 H 3.11522 2.33468 -1.70023 0
M  V30 79 H 4.25678 2.59281 -3.13379 0
M  V30 80 H 6.56371 0.613995 -2.99606 0
M  V30 81 H 5.4717 -0.846286 -2.72696 0
M  V30 82 H 5.0593 0.416657 -3.91051 0
M  V30 83 H 5.35356 3.02017 -1.24575 0
M  V30 84 H 5.48947 1.86455 0.0711135 0
M  V30 85 H 6.67337 1.86262 -1.35662 0
M  V30 86 H -8.21304 2.70939 -1.14547 0
M  V30 87 H -9.1304 3.72115 0.00662642 0
M  V30 88 H -7.44116 3.33849 0.414266 0
M  V30 89 H -10.9747 -0.0940472 2.21484 0
M  V30 END ATOM
M  V30 BEGIN BOND
M  V30 1 1 1 2
M  V30 2 1 2 3
M  V30 3 2 3 4
M  V30 4 1 3 5
M  V30 5 2 5 6
M  V30 6 1 6 7
M  V30 7 2 7 8 CFG=2
M  V30 8 1 8 9
M  V30 9 2 9 10
M  V30 10 1 10 11
M  V30 11 1 10 12
M  V30 12 1 12 13
M  V30 13 2 13 14
M  V30 14 1 14 15
M  V30 15 1 15 16
M  V30 16 1 15 17
M  V30 17 1 15 18
M  V30 18 1 12 19
M  V30 19 2 19 20
M  V30 20 1 20 21
M  V30 21 2 21 22
M  V30 22 1 22 23
M  V30 23 1 23 24
M  V30 24 2 23 25
M  V30 25 1 21 26
M  V30 26 1 26 27
M  V30 27 2 27 28
M  V30 28 1 28 29
M  V30 29 1 29 30
M  V30 30 2 30 31 CFG=2
M  V30 31 1 31 32
M  V30 32 2 32 33
M  V30 33 1 33 34
M  V30 34 2 34 35
M  V30 35 1 35 36
M  V30 36 1 36 37
M  V30 37 1 33 38
M  V30 38 2 38 39
M  V30 39 1 38 40
M  V30 40 1 40 41
M  V30 41 2 29 42
M  V30 42 1 42 43
M  V30 43 1 28 44
M  V30 44 1 44 45
M  V30 45 1 44 46
M  V30 46 1 44 47
M  V30 47 1 6 48
M  V30 48 1 48 49
M  V30 49 1 48 50
M  V30 50 2 50 51
M  V30 51 1 51 5
M  V30 52 1 14 9
M  V30 53 1 25 19
M  V30 54 1 42 26
M  V30 55 1 36 32
M  V30 56 1 1 52
M  V30 57 1 1 53
M  V30 58 1 1 54
M  V30 59 1 11 55
M  V30 60 1 11 56
M  V30 61 1 16 57
M  V30 62 1 16 58
M  V30 63 1 16 59
M  V30 64 1 17 60
M  V30 65 1 17 61
M  V30 66 1 17 62
M  V30 67 1 18 63
M  V30 68 1 18 64
M  V30 69 1 18 65
M  V30 70 1 20 66
M  V30 71 1 24 67
M  V30 72 1 34 68
M  V30 73 1 37 69
M  V30 74 1 37 70
M  V30 75 1 37 71
M  V30 76 1 41 72
M  V30 77 1 41 73
M  V30 78 1 41 74
M  V30 79 1 43 75
M  V30 80 1 43 76
M  V30 81 1 45 77
M  V30 82 1 45 78
M  V30 83 1 45 79
M  V30 84 1 46 80
M  V30 85 1 46 81
M  V30 86 1 46 82
M  V30 87 1 47 83
M  V30 88 1 47 84
M  V30 89 1 47 85
M  V30 90 1 49 86
M  V30 91 1 49 87
M  V30 92 1 49 88
M  V30 93 1 51 89
M  V30 END BOND
M  V30 END CTAB
M  END
