
     RDKit          3D

  0  0  0  0  0  0  0  0  0  0999 V3000
M  V30 BEGIN CTAB
M  V30 COUNTS 27 27 0 0 0
M  V30 BEGIN ATOM
M  V30 1 N -3.11327 -1.24937 1.17094 0
M  V30 2 N -1.88239 -0.694787 0.837977 0
M  V30 3 C -1.73947 -0.0673683 -0.263618 0
M  V30 4 N -0.462928 0.51693 -0.626201 0
M  V30 5 C 0.681339 -0.18195 -0.239335 0
M  V30 6 C 0.960556 -1.47227 -0.648728 0
M  V30 7 C 2.09476 -2.15918 -0.262584 0
M  V30 8 C 3.01033 -1.55675 0.569648 0
M  V30 9 C 2.76009 -0.275685 0.992636 0
M  V30 10 C 1.6081 0.410069 0.595072 0
M  V30 11 C 1.33147 1.78852 1.04571 0
M  V30 12 C -0.548184 1.74651 -1.34065 0
M  V30 13 N -2.84445 0.0565249 -1.13851 0
M  V30 14 H -3.97309 -1.12104 0.572518 0
M  V30 15 H -3.23922 -1.82348 2.03866 0
M  V30 16 H 0.241916 -1.97169 -1.3139 0
M  V30 17 H 2.26724 -3.18777 -0.619631 0
M  V30 18 H 3.91503 -2.02772 0.912267 0
M  V30 19 H 3.45505 0.254853 1.65729 0
M  V30 20 H 1.51606 2.54263 0.238031 0
M  V30 21 H 0.34309 1.90747 1.51803 0
M  V30 22 H 2.08003 2.03533 1.83006 0
M  V30 23 H 0.348794 2.02466 -1.8979 0
M  V30 24 H -0.856075 2.54005 -0.596859 0
M  V30 25 H -1.38774 1.73882 -2.08068 0
M  V30 26 H -3.62777 0.719733 -0.924805 0
M  V30 27 H -2.93925 -0.493028 -2.02544 0
M  V30 END ATOM
M  V30 BEGIN BOND
M  V30 1 1 1 2
M  V30 2 2 2 3 CFG=2
M  V30 3 1 3 4
M  V30 4 1 4 5
M  V30 5 2 5 6
M  V30 6 1 6 7
M  V30 7 2 7 8
M  V30 8 1 8 9
M  V30 9 2 9 10
M  V30 10 1 10 11
M  V30 11 1 4 12
M  V30 12 1 3 13
M  V30 13 1 10 5
M  V30 14 1 1 14
M  V30 15 1 1 15
M  V30 16 1 6 16
M  V30 17 1 7 17
M  V30 18 1 8 18
M  V30 19 1 9 19
M  V30 20 1 11 20
M  V30 21 1 11 21
M  V30 22 1 11 22
M  V30 23 1 12 23
M  V30 24 1 12 24
M  V30 25 1 12 25
M  V30 26 1 13 26
M  V30 27 1 13 27
M  V30 END BOND
M  V30 END CTAB
M  END
