
     RDKit          3D

  0  0  0  0  0  0  0  0  0  0999 V3000
M  V30 BEGIN CTAB
M  V30 COUNTS 30 30 0 0 0
M  V30 BEGIN ATOM
M  V30 1 N 2.14189 -1.81777 -0.0230194 0
M  V30 2 C 2.26243 -0.467341 0.405329 0
M  V30 3 C 1.55564 0.557664 -0.451208 0
M  V30 4 N 0.192967 0.345272 -0.501755 0
M  V30 5 C -0.21728 -0.861212 -1.14186 0
M  V30 6 C -1.62833 -0.737337 -1.70816 0
M  V30 7 C -2.50106 -0.630917 -0.467122 0
M  V30 8 C -2.107 0.56011 0.316111 0
M  V30 9 C -0.653694 0.792906 0.541059 0
M  V30 10 N -2.80176 0.469581 1.61349 0
M  V30 11 C 2.09488 1.90046 -0.2696 0
M  V30 12 O 1.38961 2.91564 -0.235536 0
M  V30 13 O 3.46292 2.04485 -0.129356 0
M  V30 14 H 3.05453 -2.13476 -0.401177 0
M  V30 15 H 1.74514 -2.44889 0.703477 0
M  V30 16 H 1.91077 -0.353415 1.46311 0
M  V30 17 H 3.33016 -0.151709 0.438198 0
M  V30 18 H 1.94181 0.275789 -1.52195 0
M  V30 19 H 0.516079 -1.17402 -1.89163 0
M  V30 20 H -0.307762 -1.65814 -0.378711 0
M  V30 21 H -1.69623 0.164354 -2.32823 0
M  V30 22 H -1.84599 -1.66193 -2.24893 0
M  V30 23 H -3.54309 -0.548777 -0.825425 0
M  V30 24 H -2.36809 -1.53214 0.153648 0
M  V30 25 H -2.5784 1.45875 -0.174618 0
M  V30 26 H -0.51565 1.87027 0.723856 0
M  V30 27 H -0.352837 0.275285 1.47839 0
M  V30 28 H -3.82353 0.531851 1.45028 0
M  V30 29 H -2.5921 -0.44746 2.06149 0
M  V30 30 H 3.93398 2.46303 0.641531 0
M  V30 END ATOM
M  V30 BEGIN BOND
M  V30 1 1 1 2
M  V30 2 1 2 3
M  V30 3 1 3 4
M  V30 4 1 4 5
M  V30 5 1 5 6
M  V30 6 1 6 7
M  V30 7 1 7 8
M  V30 8 1 8 9
M  V30 9 1 8 10
M  V30 10 1 3 11
M  V30 11 2 11 12
M  V30 12 1 11 13
M  V30 13 1 9 4
M  V30 14 1 1 14
M  V30 15 1 1 15
M  V30 16 1 2 16
M  V30 17 1 2 17
M  V30 18 1 3 18
M  V30 19 1 5 19
M  V30 20 1 5 20
M  V30 21 1 6 21
M  V30 22 1 6 22
M  V30 23 1 7 23
M  V30 24 1 7 24
M  V30 25 1 8 25
M  V30 26 1 9 26
M  V30 27 1 9 27
M  V30 28 1 10 28
M  V30 29 1 10 29
M  V30 30 1 13 30
M  V30 END BOND
M  V30 END CTAB
M  END
