
     RDKit          3D

  0  0  0  0  0  0  0  0  0  0999 V3000
M  V30 BEGIN CTAB
M  V30 COUNTS 42 44 0 0 0
M  V30 BEGIN ATOM
M  V30 1 N -5.91211 0.44435 -0.0629183 0
M  V30 2 C -4.66599 0.947458 0.459221 0
M  V30 3 C -3.88022 -0.0401853 1.33574 0
M  V30 4 C -2.64464 0.588909 0.775156 0
M  V30 5 C -3.49693 0.873546 -0.498556 0
M  V30 6 C -1.50102 -0.298201 0.467509 0
M  V30 7 C -0.554033 0.211735 -0.391623 0
M  V30 8 C 0.551442 -0.523216 -0.767443 0
M  V30 9 N 0.703656 -1.74564 -0.289893 0
M  V30 10 C -0.234518 -2.25364 0.565045 0
M  V30 11 N -1.31474 -1.53224 0.929742 0
M  V30 12 N 0.0292078 -3.55636 1.03574 0
M  V30 13 N 1.52596 0.0256724 -1.66973 0
M  V30 14 C 1.9438 1.38803 -1.45316 0
M  V30 15 C 3.40985 1.51915 -1.105 0
M  V30 16 N 3.70628 0.780237 0.0880406 0
M  V30 17 C 3.64533 1.22908 1.35229 0
M  V30 18 C 4.0169 0.180781 2.20054 0
M  V30 19 C 4.28923 -0.872449 1.35361 0
M  V30 20 N 4.0906 -0.471894 0.0949345 0
M  V30 21 C 2.00709 -0.766358 -2.77878 0
M  V30 22 H -6.49073 1.30988 -0.28799 0
M  V30 23 H -5.797 -0.0456963 -0.97803 0
M  V30 24 H -4.71232 1.92359 0.979707 0
M  V30 25 H -4.08359 0.108643 2.40768 0
M  V30 26 H -4.02384 -1.09196 1.05777 0
M  V30 27 H -2.3897 1.53144 1.29483 0
M  V30 28 H -3.46689 -0.0276395 -1.12814 0
M  V30 29 H -3.21339 1.81383 -0.998772 0
M  V30 30 H -0.647551 1.20594 -0.801246 0
M  V30 31 H 0.269922 -3.69224 2.03016 0
M  V30 32 H -0.0156904 -4.36388 0.40256 0
M  V30 33 H 1.35181 1.7864 -0.58488 0
M  V30 34 H 1.66057 2.05484 -2.29567 0
M  V30 35 H 3.58969 2.61769 -0.975162 0
M  V30 36 H 3.96282 1.1227 -2.0048 0
M  V30 37 H 3.37406 2.19632 1.72987 0
M  V30 38 H 4.06779 0.215371 3.25979 0
M  V30 39 H 4.60512 -1.86599 1.60044 0
M  V30 40 H 2.30903 -0.102373 -3.62684 0
M  V30 41 H 1.15122 -1.3768 -3.16545 0
M  V30 42 H 2.78354 -1.44883 -2.43648 0
M  V30 END ATOM
M  V30 BEGIN BOND
M  V30 1 1 1 2
M  V30 2 1 2 3
M  V30 3 1 3 4
M  V30 4 1 4 5
M  V30 5 1 4 6
M  V30 6 2 6 7
M  V30 7 1 7 8
M  V30 8 2 8 9
M  V30 9 1 9 10
M  V30 10 2 10 11
M  V30 11 1 10 12
M  V30 12 1 8 13
M  V30 13 1 13 14
M  V30 14 1 14 15
M  V30 15 1 15 16
M  V30 16 1 16 17
M  V30 17 2 17 18
M  V30 18 1 18 19
M  V30 19 2 19 20
M  V30 20 1 13 21
M  V30 21 1 5 2
M  V30 22 1 11 6
M  V30 23 1 20 16
M  V30 24 1 1 22
M  V30 25 1 1 23
M  V30 26 1 2 24
M  V30 27 1 3 25
M  V30 28 1 3 26
M  V30 29 1 4 27
M  V30 30 1 5 28
M  V30 31 1 5 29
M  V30 32 1 7 30
M  V30 33 1 12 31
M  V30 34 1 12 32
M  V30 35 1 14 33
M  V30 36 1 14 34
M  V30 37 1 15 35
M  V30 38 1 15 36
M  V30 39 1 17 37
M  V30 40 1 18 38
M  V30 41 1 19 39
M  V30 42 1 21 40
M  V30 43 1 21 41
M  V30 44 1 21 42
M  V30 END BOND
M  V30 END CTAB
M  END
