
     RDKit          3D

  0  0  0  0  0  0  0  0  0  0999 V3000
M  V30 BEGIN CTAB
M  V30 COUNTS 43 45 0 0 0
M  V30 BEGIN ATOM
M  V30 1 O -2.95934 0.545201 -3.42208 0
M  V30 2 C -3.25703 -0.032572 -2.35935 0
M  V30 3 C -2.32201 -0.91468 -1.6029 0
M  V30 4 N -2.36738 -0.452481 -0.222848 0
M  V30 5 C -1.20622 -0.155311 0.547938 0
M  V30 6 C -0.478796 1.05847 0.0292665 0
M  V30 7 O -1.00267 1.65964 -0.906146 0
M  V30 8 C 0.782134 1.56808 0.550673 0
M  V30 9 C 1.99456 0.831885 0.168551 0
M  V30 10 C 3.20392 1.35047 0.629603 0
M  V30 11 C 4.41432 0.764681 0.328401 0
M  V30 12 C 4.46619 -0.374878 -0.453279 0
M  V30 13 C 3.26593 -0.890394 -0.911435 0
M  V30 14 C 2.04175 -0.295303 -0.60566 0
M  V30 15 S 6.00052 -1.13088 -0.843523 0
M  V30 16 O 5.91756 -1.74874 -2.19451 0
M  V30 17 O 7.11545 -0.133186 -0.852987 0
M  V30 18 N 6.36695 -2.29917 0.387991 0
M  V30 19 N 1.00303 2.95209 0.0937745 0
M  V30 20 C -3.65367 -0.300648 0.354723 0
M  V30 21 C -4.75145 -0.0083982 -0.436454 0
M  V30 22 O -4.52074 0.122746 -1.80849 0
M  V30 23 C -6.03233 0.149972 0.0882163 0
M  V30 24 C -6.23298 0.0128013 1.4469 0
M  V30 25 C -5.15704 -0.278725 2.25162 0
M  V30 26 C -3.88364 -0.433429 1.70995 0
M  V30 27 H -2.73092 -1.94631 -1.67436 0
M  V30 28 H -1.3045 -0.907892 -2.01166 0
M  V30 29 H -0.566779 -1.05706 0.580075 0
M  V30 30 H -1.47042 0.0419868 1.61209 0
M  V30 31 H 0.717484 1.62043 1.66672 0
M  V30 32 H 3.26142 2.24011 1.25092 0
M  V30 33 H 5.36497 1.1748 0.691943 0
M  V30 34 H 3.29898 -1.7708 -1.5165 0
M  V30 35 H 1.11813 -0.703137 -0.978978 0
M  V30 36 H 7.38128 -2.347 0.586463 0
M  V30 37 H 5.98465 -3.24788 0.139961 0
M  V30 38 H 2.01434 3.12632 -0.0771961 0
M  V30 39 H 0.68653 3.62618 0.826273 0
M  V30 40 H -6.85538 0.377329 -0.566303 0
M  V30 41 H -7.24657 0.14145 1.83451 0
M  V30 42 H -5.34368 -0.380244 3.30969 0
M  V30 43 H -3.05655 -0.671212 2.35839 0
M  V30 END ATOM
M  V30 BEGIN BOND
M  V30 1 2 1 2
M  V30 2 1 2 3
M  V30 3 1 3 4
M  V30 4 1 4 5
M  V30 5 1 5 6
M  V30 6 2 6 7
M  V30 7 1 6 8
M  V30 8 1 8 9
M  V30 9 2 9 10
M  V30 10 1 10 11
M  V30 11 2 11 12
M  V30 12 1 12 13
M  V30 13 2 13 14
M  V30 14 1 12 15
M  V30 15 2 15 16
M  V30 16 2 15 17
M  V30 17 1 15 18
M  V30 18 1 8 19
M  V30 19 1 4 20
M  V30 20 2 20 21
M  V30 21 1 21 22
M  V30 22 1 21 23
M  V30 23 2 23 24
M  V30 24 1 24 25
M  V30 25 2 25 26
M  V30 26 1 22 2
M  V30 27 1 14 9
M  V30 28 1 26 20
M  V30 29 1 3 27
M  V30 30 1 3 28
M  V30 31 1 5 29
M  V30 32 1 5 30
M  V30 33 1 8 31
M  V30 34 1 10 32
M  V30 35 1 11 33
M  V30 36 1 13 34
M  V30 37 1 14 35
M  V30 38 1 18 36
M  V30 39 1 18 37
M  V30 40 1 19 38
M  V30 41 1 19 39
M  V30 42 1 23 40
M  V30 43 1 24 41
M  V30 44 1 25 42
M  V30 45 1 26 43
M  V30 END BOND
M  V30 END CTAB
M  END
