
     RDKit          3D

  0  0  0  0  0  0  0  0  0  0999 V3000
M  V30 BEGIN CTAB
M  V30 COUNTS 35 36 0 0 0
M  V30 BEGIN ATOM
M  V30 1 C -4.04854 -0.994411 -0.415052 0
M  V30 2 C -3.12592 -0.986079 0.776975 0
M  V30 3 N -1.9736 -0.164379 0.657692 0
M  V30 4 C -0.659513 -0.680029 0.538556 0
M  V30 5 C -0.359232 -2.02799 0.627617 0
M  V30 6 C 0.941801 -2.48929 0.502342 0
M  V30 7 C 1.94817 -1.57983 0.285615 0
M  V30 8 C 1.70254 -0.232039 0.189489 0
M  V30 9 C 0.413443 0.192472 0.315769 0
M  V30 10 C 2.7166 0.690546 -0.0229066 0
M  V30 11 N 2.44509 2.0825 -0.122895 0
M  V30 12 C 3.99406 0.197516 -0.135921 0
M  V30 13 C 4.25551 -1.14583 -0.0421864 0
M  V30 14 N 3.22119 -1.98239 0.16474 0
M  V30 15 N 5.08992 1.07311 -0.346316 0
M  V30 16 C -2.17081 1.27588 0.649563 0
M  V30 17 C -2.80662 1.809 -0.588557 0
M  V30 18 H -4.79879 -1.81638 -0.214797 0
M  V30 19 H -3.51864 -1.29196 -1.33875 0
M  V30 20 H -4.66875 -0.082139 -0.514544 0
M  V30 21 H -3.74796 -0.589933 1.63594 0
M  V30 22 H -2.86439 -2.02198 1.0018 0
M  V30 23 H -1.16228 -2.76691 0.801216 0
M  V30 24 H 1.12823 -3.54726 0.578419 0
M  V30 25 H 0.248884 1.26712 0.220274 0
M  V30 26 H 2.75393 2.7132 0.6479 0
M  V30 27 H 1.95759 2.51786 -0.914852 0
M  V30 28 H 5.23862 -1.53947 -0.125695 0
M  V30 29 H 5.97341 1.0161 0.178867 0
M  V30 30 H 4.98917 1.81047 -1.07216 0
M  V30 31 H -1.32152 1.86913 1.00117 0
M  V30 32 H -2.95545 1.48765 1.4802 0
M  V30 33 H -2.18264 2.66572 -0.971272 0
M  V30 34 H -3.84361 2.1768 -0.453282 0
M  V30 35 H -2.80991 1.09325 -1.45608 0
M  V30 END ATOM
M  V30 BEGIN BOND
M  V30 1 1 1 2
M  V30 2 1 2 3
M  V30 3 1 3 4
M  V30 4 2 4 5
M  V30 5 1 5 6
M  V30 6 2 6 7
M  V30 7 1 7 8
M  V30 8 2 8 9
M  V30 9 1 8 10
M  V30 10 1 10 11
M  V30 11 2 10 12
M  V30 12 1 12 13
M  V30 13 2 13 14
M  V30 14 1 12 15
M  V30 15 1 3 16
M  V30 16 1 16 17
M  V30 17 1 9 4
M  V30 18 1 14 7
M  V30 19 1 1 18
M  V30 20 1 1 19
M  V30 21 1 1 20
M  V30 22 1 2 21
M  V30 23 1 2 22
M  V30 24 1 5 23
M  V30 25 1 6 24
M  V30 26 1 9 25
M  V30 27 1 11 26
M  V30 28 1 11 27
M  V30 29 1 13 28
M  V30 30 1 15 29
M  V30 31 1 15 30
M  V30 32 1 16 31
M  V30 33 1 16 32
M  V30 34 1 17 33
M  V30 35 1 17 34
M  V30 36 1 17 35
M  V30 END BOND
M  V30 END CTAB
M  END
