
     RDKit          3D

  0  0  0  0  0  0  0  0  0  0999 V3000
M  V30 BEGIN CTAB
M  V30 COUNTS 124 127 0 0 0
M  V30 BEGIN ATOM
M  V30 1 C 3.21453 -4.57387 -1.85627 0
M  V30 2 C 3.54395 -3.55792 -0.79592 0
M  V30 3 C 3.99568 -2.22836 -1.39029 0 CFG=2
M  V30 4 C 5.20799 -2.47832 -2.18118 0
M  V30 5 C 3.88606 -1.06639 -0.488022 0 CFG=2
M  V30 6 N 2.59487 -0.585937 -0.143179 0
M  V30 7 C 1.28672 -0.9969 -0.279243 0
M  V30 8 O 0.944099 -2.04576 -0.861327 0
M  V30 9 C 0.138076 -0.192023 0.283009 0 CFG=2
M  V30 10 C 0.29845 0.201032 1.70224 0
M  V30 11 C 0.44316 -0.900617 2.68221 0
M  V30 12 C 1.66377 -1.34853 3.13476 0
M  V30 13 C 1.7457 -2.38504 4.04781 0
M  V30 14 C 0.629821 -3.01688 4.54847 0
M  V30 15 O 0.740226 -4.06649 5.47801 0
M  V30 16 C -0.599614 -2.58294 4.10815 0
M  V30 17 C -0.684667 -1.55159 3.19905 0
M  V30 18 N -1.07069 -0.918753 -0.00850126 0
M  V30 19 C -2.2505 -0.36844 -0.57169 0
M  V30 20 O -2.26524 0.841899 -0.821541 0
M  V30 21 C -3.44021 -1.20546 -0.862995 0 CFG=2
M  V30 22 C -3.22862 -1.96089 -2.18618 0
M  V30 23 C -3.98668 -1.1982 -3.23586 0
M  V30 24 C -4.54826 0.0215646 -2.49066 0
M  V30 25 N -4.63913 -0.486618 -1.16359 0
M  V30 26 C -5.72319 -0.358565 -0.274073 0
M  V30 27 O -5.74069 -0.932874 0.862371 0
M  V30 28 C -6.96675 0.451609 -0.539931 0 CFG=2
M  V30 29 C -6.65632 1.73393 0.30054 0
M  V30 30 C -7.70273 2.75953 0.240047 0
M  V30 31 C -7.98951 3.36149 -1.093 0
M  V30 32 N -9.0795 4.32763 -1.02279 0
M  V30 33 C -8.94599 5.54912 -0.32333 0
M  V30 34 N -9.37894 5.65105 1.02761 0
M  V30 35 N -8.43391 6.56131 -0.915758 0
M  V30 36 N -8.06758 -0.192763 -0.0407552 0
M  V30 37 C -9.1709 -0.834899 0.455818 0
M  V30 38 O -10.356 -0.642807 0.124596 0
M  V30 39 C -9.05081 -1.92135 1.52892 0 CFG=1
M  V30 40 N -10.3052 -1.86514 2.28101 0
M  V30 41 C -9.10691 -3.25651 0.80658 0
M  V30 42 C -8.07045 -3.47426 -0.18464 0
M  V30 43 O -6.99126 -4.30997 0.0543082 0
M  V30 44 O -8.07472 -2.92407 -1.33377 0
M  V30 45 C 4.8568 0.032515 -0.598999 0
M  V30 46 O 4.37898 1.19466 -0.703577 0
M  V30 47 N 6.22826 -0.180654 -0.580303 0
M  V30 48 C 7.31041 0.766837 -0.684477 0 CFG=1
M  V30 49 C 7.04646 1.81845 -1.71214 0
M  V30 50 C 6.88756 1.3274 -3.10584 0
M  V30 51 C 7.99528 1.09012 -3.94954 0
M  V30 52 N 7.49004 0.717159 -5.12465 0
M  V30 53 C 6.15503 0.705085 -5.0729 0
M  V30 54 N 5.79564 1.07785 -3.84028 0
M  V30 55 C 7.56036 1.37457 0.630169 0
M  V30 56 O 6.63656 1.08855 1.51369 0
M  V30 57 N 8.57945 2.19587 1.11685 0
M  V30 58 C 8.39576 2.77574 2.52603 0
M  V30 59 C 9.70178 2.41925 3.13628 0
M  V30 60 C 10.7023 2.39501 2.02221 0
M  V30 61 C 9.83212 2.74895 0.770011 0 CFG=1
M  V30 62 C 10.6007 2.31784 -0.382993 0
M  V30 63 O 11.5207 3.23753 -0.943905 0
M  V30 64 O 10.5373 1.22906 -0.933535 0
M  V30 65 H 4.1302 -5.00172 -2.31466 0
M  V30 66 H 2.56194 -5.32491 -1.39886 0
M  V30 67 H 2.60779 -4.03238 -2.63668 0
M  V30 68 H 2.82204 -3.55118 -0.0160148 0
M  V30 69 H 4.50697 -3.91761 -0.25463 0
M  V30 70 H 3.18241 -1.97611 -2.21462 0
M  V30 71 H 5.99223 -3.08795 -1.64559 0
M  V30 72 H 4.89017 -3.07252 -3.09845 0
M  V30 73 H 5.67613 -1.57532 -2.58169 0
M  V30 74 H 4.1564 -1.6451 0.55169 0
M  V30 75 H 2.68184 0.393075 0.385028 0
M  V30 76 H 0.0284584 0.786088 -0.293186 0
M  V30 77 H 1.21154 0.858625 1.84805 0
M  V30 78 H -0.541128 0.847141 2.05198 0
M  V30 79 H 2.57254 -0.883215 2.78462 0
M  V30 80 H 2.74251 -2.71251 4.38461 0
M  V30 81 H 0.806836 -4.99839 5.09439 0
M  V30 82 H -1.47453 -3.05113 4.47651 0
M  V30 83 H -1.6385 -1.18774 2.83167 0
M  V30 84 H -1.07544 -1.93793 0.216956 0
M  V30 85 H -3.58931 -1.96422 -0.0636202 0
M  V30 86 H -2.13863 -2.03059 -2.38747 0
M  V30 87 H -3.67088 -2.98105 -2.1029 0
M  V30 88 H -3.34474 -0.923207 -4.06926 0
M  V30 89 H -4.89842 -1.76795 -3.58331 0
M  V30 90 H -5.54276 0.293719 -2.92587 0
M  V30 91 H -3.8029 0.808324 -2.63266 0
M  V30 92 H -6.96317 0.739876 -1.59059 0
M  V30 93 H -5.70187 2.08685 -0.105595 0
M  V30 94 H -6.48104 1.35639 1.30732 0
M  V30 95 H -7.39264 3.59043 0.920312 0
M  V30 96 H -8.65675 2.39296 0.711044 0
M  V30 97 H -7.11372 3.88271 -1.53716 0
M  V30 98 H -8.27458 2.58727 -1.81615 0
M  V30 99 H -9.99754 4.1483 -1.49157 0
M  V30 100 H -8.83612 6.18815 1.76663 0
M  V30 101 H -10.2402 5.21488 1.38486 0
M  V30 102 H -8.12116 6.47789 -1.90036 0
M  V30 103 H -8.86105 0.543433 -0.84679 0
M  V30 104 H -8.23213 -1.77686 2.19795 0
M  V30 105 H -11.063 -2.3244 1.72342 0
M  V30 106 H -10.5472 -0.867591 2.42409 0
M  V30 107 H -10.0912 -3.30486 0.292604 0
M  V30 108 H -9.02523 -4.06172 1.57142 0
M  V30 109 H -6.53471 -4.42229 0.947458 0
M  V30 110 H 6.54 -1.22445 -0.409834 0
M  V30 111 H 8.18859 0.1276 -1.04967 0
M  V30 112 H 7.89309 2.55619 -1.76926 0
M  V30 113 H 6.19055 2.48649 -1.40849 0
M  V30 114 H 9.0237 1.20999 -3.63528 0
M  V30 115 H 5.50438 0.432014 -5.91261 0
M  V30 116 H 4.82253 1.1603 -3.51314 0
M  V30 117 H 8.29656 3.85619 2.29678 0
M  V30 118 H 7.51925 2.33216 2.98423 0
M  V30 119 H 10.0192 3.21154 3.87373 0
M  V30 120 H 9.6009 1.43817 3.66393 0
M  V30 121 H 11.5476 3.07275 2.11495 0
M  V30 122 H 11.0859 1.36293 1.90876 0
M  V30 123 H 9.81059 3.88576 0.832671 0
M  V30 124 H 11.2181 3.91391 -1.64089 0
M  V30 END ATOM
M  V30 BEGIN BOND
M  V30 1 1 1 2
M  V30 2 1 2 3
M  V30 3 1 3 4
M  V30 4 1 3 5
M  V30 5 1 5 6
M  V30 6 1 6 7
M  V30 7 2 7 8
M  V30 8 1 7 9
M  V30 9 1 9 10
M  V30 10 1 10 11
M  V30 11 2 11 12
M  V30 12 1 12 13
M  V30 13 2 13 14
M  V30 14 1 14 15
M  V30 15 1 14 16
M  V30 16 2 16 17
M  V30 17 1 9 18
M  V30 18 1 18 19
M  V30 19 2 19 20
M  V30 20 1 19 21
M  V30 21 1 21 22
M  V30 22 1 22 23
M  V30 23 1 23 24
M  V30 24 1 24 25
M  V30 25 1 25 26
M  V30 26 2 26 27
M  V30 27 1 26 28
M  V30 28 1 28 29
M  V30 29 1 29 30
M  V30 30 1 30 31
M  V30 31 1 31 32
M  V30 32 1 32 33
M  V30 33 1 33 34
M  V30 34 2 33 35 CFG=2
M  V30 35 1 28 36
M  V30 36 1 36 37
M  V30 37 2 37 38
M  V30 38 1 37 39
M  V30 39 1 39 40
M  V30 40 1 39 41
M  V30 41 1 41 42
M  V30 42 1 42 43
M  V30 43 2 42 44
M  V30 44 1 5 45
M  V30 45 2 45 46
M  V30 46 1 45 47
M  V30 47 1 47 48
M  V30 48 1 48 49
M  V30 49 1 49 50
M  V30 50 2 50 51
M  V30 51 1 51 52
M  V30 52 2 52 53
M  V30 53 1 53 54
M  V30 54 1 48 55
M  V30 55 2 55 56
M  V30 56 1 55 57
M  V30 57 1 57 58
M  V30 58 1 58 59
M  V30 59 1 59 60
M  V30 60 1 60 61
M  V30 61 1 61 62
M  V30 62 1 62 63
M  V30 63 2 62 64
M  V30 64 1 17 11
M  V30 65 1 25 21
M  V30 66 1 54 50
M  V30 67 1 61 57
M  V30 68 1 1 65
M  V30 69 1 1 66
M  V30 70 1 1 67
M  V30 71 1 2 68
M  V30 72 1 2 69
M  V30 73 1 3 70 CFG=3
M  V30 74 1 4 71
M  V30 75 1 4 72
M  V30 76 1 4 73
M  V30 77 1 5 74 CFG=1
M  V30 78 1 6 75
M  V30 79 1 9 76 CFG=3
M  V30 80 1 10 77
M  V30 81 1 10 78
M  V30 82 1 12 79
M  V30 83 1 13 80
M  V30 84 1 15 81
M  V30 85 1 16 82
M  V30 86 1 17 83
M  V30 87 1 18 84
M  V30 88 1 21 85 CFG=1
M  V30 89 1 22 86
M  V30 90 1 22 87
M  V30 91 1 23 88
M  V30 92 1 23 89
M  V30 93 1 24 90
M  V30 94 1 24 91
M  V30 95 1 28 92 CFG=3
M  V30 96 1 29 93
M  V30 97 1 29 94
M  V30 98 1 30 95
M  V30 99 1 30 96
M  V30 100 1 31 97
M  V30 101 1 31 98
M  V30 102 1 32 99
M  V30 103 1 34 100
M  V30 104 1 34 101
M  V30 105 1 35 102
M  V30 106 1 36 103
M  V30 107 1 39 104 CFG=1
M  V30 108 1 40 105
M  V30 109 1 40 106
M  V30 110 1 41 107
M  V30 111 1 41 108
M  V30 112 1 43 109
M  V30 113 1 47 110
M  V30 114 1 48 111 CFG=3
M  V30 115 1 49 112
M  V30 116 1 49 113
M  V30 117 1 51 114
M  V30 118 1 53 115
M  V30 119 1 54 116
M  V30 120 1 58 117
M  V30 121 1 58 118
M  V30 122 1 59 119
M  V30 123 1 59 120
M  V30 124 1 60 121
M  V30 125 1 60 122
M  V30 126 1 61 123 CFG=3
M  V30 127 1 63 124
M  V30 END BOND
M  V30 END CTAB
M  END
