
     RDKit          3D

  0  0  0  0  0  0  0  0  0  0999 V3000
M  V30 BEGIN CTAB
M  V30 COUNTS 26 26 0 0 0
M  V30 BEGIN ATOM
M  V30 1 N -3.46002 0.621323 -0.318552 0
M  V30 2 C -2.12569 1.08051 -0.187098 0
M  V30 3 C -1.23421 0.0260131 0.398317 0 CFG=1
M  V30 4 N -1.20543 -1.15801 -0.433104 0
M  V30 5 C -0.111774 -1.98407 0.0351158 0
M  V30 6 C 1.16873 -1.35146 -0.466666 0
M  V30 7 N 0.951284 0.0608642 -0.589906 0
M  V30 8 C 0.168225 0.586293 0.511665 0
M  V30 9 S 2.43028 0.925838 -0.694517 0
M  V30 10 O 3.22184 0.446037 -1.88273 0
M  V30 11 O 2.10309 2.38587 -0.829612 0
M  V30 12 N 3.39947 0.718369 0.727213 0
M  V30 13 H -4.02985 1.18331 -0.913477 0
M  V30 14 H -3.91949 0.300882 0.525461 0
M  V30 15 H -1.74633 1.38461 -1.17547 0
M  V30 16 H -2.12815 1.9488 0.5303 0
M  V30 17 H -1.5857 -0.291336 1.3982 0
M  V30 18 H -2.10136 -1.65269 -0.474218 0
M  V30 19 H -0.251361 -3.00017 -0.420516 0
M  V30 20 H -0.11803 -2.07273 1.14826 0
M  V30 21 H 1.37075 -1.7621 -1.47395 0
M  V30 22 H 2.03756 -1.6056 0.167654 0
M  V30 23 H 0.143832 1.69105 0.402442 0
M  V30 24 H 0.627409 0.300551 1.50138 0
M  V30 25 H 3.26632 -0.249731 1.12226 0
M  V30 26 H 3.12862 1.46759 1.39154 0
M  V30 END ATOM
M  V30 BEGIN BOND
M  V30 1 1 1 2
M  V30 2 1 2 3
M  V30 3 1 3 4
M  V30 4 1 4 5
M  V30 5 1 5 6
M  V30 6 1 6 7
M  V30 7 1 7 8
M  V30 8 1 7 9
M  V30 9 2 9 10
M  V30 10 2 9 11
M  V30 11 1 9 12
M  V30 12 1 8 3
M  V30 13 1 1 13
M  V30 14 1 1 14
M  V30 15 1 2 15
M  V30 16 1 2 16
M  V30 17 1 3 17 CFG=1
M  V30 18 1 4 18
M  V30 19 1 5 19
M  V30 20 1 5 20
M  V30 21 1 6 21
M  V30 22 1 6 22
M  V30 23 1 8 23
M  V30 24 1 8 24
M  V30 25 1 12 25
M  V30 26 1 12 26
M  V30 END BOND
M  V30 END CTAB
M  END
