
     RDKit          3D

  0  0  0  0  0  0  0  0  0  0999 V3000
M  V30 BEGIN CTAB
M  V30 COUNTS 31 32 0 0 0
M  V30 BEGIN ATOM
M  V30 1 C -1.45785 2.18394 -0.953789 0
M  V30 2 C -1.50847 1.54199 0.403962 0
M  V30 3 C -1.54886 0.0785424 0.388345 0
M  V30 4 N -2.73596 -0.564411 0.567162 0
M  V30 5 C -2.85264 -1.9002 0.554643 0
M  V30 6 N -4.13021 -2.53974 0.761076 0
M  V30 7 N -1.7501 -2.63327 0.357205 0
M  V30 8 C -0.541363 -2.06012 0.173862 0
M  V30 9 C -0.430454 -0.667849 0.188907 0
M  V30 10 C 0.859207 -0.0256386 0.00173506 0
M  V30 11 C 1.40819 0.193656 -1.24894 0
M  V30 12 C 2.63981 0.814591 -1.43589 0
M  V30 13 C 3.37168 1.2423 -0.349481 0
M  V30 14 C 2.82445 1.02391 0.892515 0
M  V30 15 C 1.6083 0.411235 1.09514 0
M  V30 16 O 4.60333 1.86275 -0.527431 0
M  V30 17 N 0.65128 -2.77947 -0.032673 0
M  V30 18 H -2.24463 2.97546 -1.03427 0
M  V30 19 H -1.75826 1.39843 -1.69637 0
M  V30 20 H -0.48269 2.63852 -1.19124 0
M  V30 21 H -0.694157 1.92172 1.06512 0
M  V30 22 H -2.44605 1.90274 0.920583 0
M  V30 23 H -4.84581 -2.64743 0.021945 0
M  V30 24 H -4.36506 -2.92217 1.69865 0
M  V30 25 H 0.881846 -0.119162 -2.14067 0
M  V30 26 H 3.0665 0.983298 -2.41593 0
M  V30 27 H 3.41707 1.37079 1.74625 0
M  V30 28 H 1.18376 0.244291 2.06692 0
M  V30 29 H 5.09612 2.15635 0.324055 0
M  V30 30 H 1.28565 -2.9434 0.764241 0
M  V30 31 H 0.895364 -3.14164 -0.965632 0
M  V30 END ATOM
M  V30 BEGIN BOND
M  V30 1 1 1 2
M  V30 2 1 2 3
M  V30 3 2 3 4
M  V30 4 1 4 5
M  V30 5 1 5 6
M  V30 6 2 5 7
M  V30 7 1 7 8
M  V30 8 2 8 9
M  V30 9 1 9 10
M  V30 10 2 10 11
M  V30 11 1 11 12
M  V30 12 2 12 13
M  V30 13 1 13 14
M  V30 14 2 14 15
M  V30 15 1 13 16
M  V30 16 1 8 17
M  V30 17 1 9 3
M  V30 18 1 15 10
M  V30 19 1 1 18
M  V30 20 1 1 19
M  V30 21 1 1 20
M  V30 22 1 2 21
M  V30 23 1 2 22
M  V30 24 1 6 23
M  V30 25 1 6 24
M  V30 26 1 11 25
M  V30 27 1 12 26
M  V30 28 1 14 27
M  V30 29 1 15 28
M  V30 30 1 16 29
M  V30 31 1 17 30
M  V30 32 1 17 31
M  V30 END BOND
M  V30 END CTAB
M  END
