
     RDKit          3D

  0  0  0  0  0  0  0  0  0  0999 V3000
M  V30 BEGIN CTAB
M  V30 COUNTS 53 55 0 0 0
M  V30 BEGIN ATOM
M  V30 1 C 5.47348 1.98425 -1.81589 0
M  V30 2 C 5.34852 0.618395 -2.41292 0
M  V30 3 C 4.07963 -0.0240534 -1.83121 0
M  V30 4 C 4.26337 -0.0853932 -0.341534 0
M  V30 5 O 3.19565 -0.640933 0.283912 0
M  V30 6 C 1.87227 -0.286127 0.423765 0
M  V30 7 C 1.32162 0.860174 -0.0819583 0
M  V30 8 C -0.0367721 1.17369 0.0851588 0
M  V30 9 C -0.860193 0.327303 0.770677 0
M  V30 10 C -0.310633 -0.812996 1.27436 0
M  V30 11 C 1.00841 -1.14481 1.12703 0
M  V30 12 O 1.56842 -2.30109 1.63709 0
M  V30 13 C 0.80533 -3.24615 2.3635 0
M  V30 14 C 1.65689 -4.39945 2.79797 0
M  V30 15 C -2.27584 0.640938 0.958419 0
M  V30 16 C -2.51478 2.01426 1.38637 0
M  V30 17 C -3.40171 2.78254 0.832162 0
M  V30 18 N -3.52126 4.12224 1.36836 0
M  V30 19 O -4.22619 2.40418 -0.222108 0
M  V30 20 C -4.04016 1.08031 -0.678575 0
M  V30 21 C -3.13418 0.227537 -0.145018 0
M  V30 22 C -3.02644 -1.07151 -0.67032 0
M  V30 23 C -3.82764 -1.45065 -1.6997 0
M  V30 24 C -4.77233 -0.609584 -2.28005 0
M  V30 25 C -4.85678 0.654199 -1.74733 0
M  V30 26 N -5.59285 -1.03955 -3.35484 0
M  V30 27 C -1.72103 2.57712 2.50122 0
M  V30 28 N -1.08356 2.99918 3.38181 0
M  V30 29 H 6.09031 1.88662 -0.879834 0
M  V30 30 H 4.47226 2.32063 -1.48491 0
M  V30 31 H 5.92169 2.72315 -2.51233 0
M  V30 32 H 5.30785 0.604355 -3.50923 0
M  V30 33 H 6.2032 -0.0258736 -2.09681 0
M  V30 34 H 3.99554 -1.06525 -2.25428 0
M  V30 35 H 3.24535 0.584145 -2.16287 0
M  V30 36 H 5.16066 -0.752052 -0.128845 0
M  V30 37 H 4.57815 0.910684 0.0712516 0
M  V30 38 H 1.934 1.57278 -0.614799 0
M  V30 39 H -0.363437 2.10663 -0.358095 0
M  V30 40 H -0.910607 -1.5504 1.84232 0
M  V30 41 H 0.407682 -2.75842 3.2936 0
M  V30 42 H -0.056123 -3.6303 1.7577 0
M  V30 43 H 1.96225 -4.29878 3.85912 0
M  V30 44 H 2.60082 -4.42368 2.19761 0
M  V30 45 H 1.15967 -5.38358 2.7032 0
M  V30 46 H -2.59934 -0.0319106 1.84418 0
M  V30 47 H -2.6526 4.62021 1.58098 0
M  V30 48 H -4.43863 4.54516 1.5248 0
M  V30 49 H -2.28288 -1.74989 -0.218951 0
M  V30 50 H -3.74109 -2.47433 -2.11201 0
M  V30 51 H -5.5797 1.34776 -2.16682 0
M  V30 52 H -6.18076 -1.8869 -3.19192 0
M  V30 53 H -5.62554 -0.544767 -4.28331 0
M  V30 END ATOM
M  V30 BEGIN BOND
M  V30 1 1 1 2
M  V30 2 1 2 3
M  V30 3 1 3 4
M  V30 4 1 4 5
M  V30 5 1 5 6
M  V30 6 2 6 7
M  V30 7 1 7 8
M  V30 8 2 8 9
M  V30 9 1 9 10
M  V30 10 2 10 11
M  V30 11 1 11 12
M  V30 12 1 12 13
M  V30 13 1 13 14
M  V30 14 1 9 15
M  V30 15 1 15 16
M  V30 16 2 16 17
M  V30 17 1 17 18
M  V30 18 1 17 19
M  V30 19 1 19 20
M  V30 20 2 20 21
M  V30 21 1 21 22
M  V30 22 2 22 23
M  V30 23 1 23 24
M  V30 24 2 24 25
M  V30 25 1 24 26
M  V30 26 1 16 27
M  V30 27 3 27 28
M  V30 28 1 11 6
M  V30 29 1 21 15
M  V30 30 1 25 20
M  V30 31 1 1 29
M  V30 32 1 1 30
M  V30 33 1 1 31
M  V30 34 1 2 32
M  V30 35 1 2 33
M  V30 36 1 3 34
M  V30 37 1 3 35
M  V30 38 1 4 36
M  V30 39 1 4 37
M  V30 40 1 7 38
M  V30 41 1 8 39
M  V30 42 1 10 40
M  V30 43 1 13 41
M  V30 44 1 13 42
M  V30 45 1 14 43
M  V30 46 1 14 44
M  V30 47 1 14 45
M  V30 48 1 15 46
M  V30 49 1 18 47
M  V30 50 1 18 48
M  V30 51 1 22 49
M  V30 52 1 23 50
M  V30 53 1 25 51
M  V30 54 1 26 52
M  V30 55 1 26 53
M  V30 END BOND
M  V30 END CTAB
M  END
