
     RDKit          3D

  0  0  0  0  0  0  0  0  0  0999 V3000
M  V30 BEGIN CTAB
M  V30 COUNTS 55 57 0 0 0
M  V30 BEGIN ATOM
M  V30 1 O -3.97655 1.01242 2.13745 0
M  V30 2 C -4.53124 1.43947 1.08172 0
M  V30 3 C -5.64173 0.733206 0.47468 0
M  V30 4 C -6.11719 -0.438642 1.09909 0
M  V30 5 N -5.46435 -0.836074 2.29708 0
M  V30 6 N -7.13276 -1.15586 0.605571 0
M  V30 7 C -7.6141 -2.36032 1.25619 0
M  V30 8 C -7.73214 -0.752149 -0.531184 0
M  V30 9 O -8.68837 -1.41963 -1.00204 0
M  V30 10 N -7.33322 0.353953 -1.18152 0
M  V30 11 C -6.29752 1.08125 -0.674523 0
M  V30 12 O -5.95947 2.09226 -1.30365 0
M  V30 13 C -8.00603 0.749303 -2.39695 0
M  V30 14 C -3.99194 2.67743 0.512052 0
M  V30 15 S -2.87267 2.27281 -0.856997 0
M  V30 16 C -1.42234 1.44213 -0.176885 0
M  V30 17 N -1.16453 1.15954 1.09727 0
M  V30 18 N -0.0931178 0.570528 1.40611 0
M  V30 19 C 0.777151 0.232129 0.458942 0
M  V30 20 S -0.0309973 0.813188 -0.943601 0
M  V30 21 S 2.36325 -0.594751 0.632515 0
M  V30 22 C 3.04394 -0.771548 -1.05439 0
M  V30 23 C 4.36272 -1.40737 -0.920417 0
M  V30 24 O 4.45968 -2.67315 -1.09911 0
M  V30 25 C 5.57842 -0.7001 -0.596982 0
M  V30 26 C 6.80091 -1.37257 -0.506119 0
M  V30 27 N 6.79434 -2.76421 -0.750925 0
M  V30 28 N 7.95162 -0.769889 -0.203746 0
M  V30 29 C 9.21157 -1.51087 -0.117737 0
M  V30 30 C 7.94922 0.556046 0.028411 0
M  V30 31 O 9.03355 1.10096 0.30918 0
M  V30 32 N 6.80719 1.25262 -0.0448876 0
M  V30 33 C 5.62892 0.643168 -0.352604 0
M  V30 34 O 4.58098 1.36314 -0.404023 0
M  V30 35 C 6.80208 2.67286 0.200915 0
M  V30 36 H -5.76537 -0.506637 3.24175 0
M  V30 37 H -4.63889 -1.48784 2.27863 0
M  V30 38 H -7.12679 -3.21291 0.701803 0
M  V30 39 H -7.20896 -2.40153 2.29288 0
M  V30 40 H -8.70424 -2.43802 1.20741 0
M  V30 41 H -7.80496 1.83701 -2.53218 0
M  V30 42 H -9.09033 0.529799 -2.38445 0
M  V30 43 H -7.4833 0.237733 -3.24918 0
M  V30 44 H -4.73848 3.40849 0.160526 0
M  V30 45 H -3.36897 3.23646 1.28076 0
M  V30 46 H 3.00746 0.147613 -1.63957 0
M  V30 47 H 2.36586 -1.48205 -1.64176 0
M  V30 48 H 7.05013 -3.14905 -1.67571 0
M  V30 49 H 6.52629 -3.40783 0.0159074 0
M  V30 50 H 9.56631 -1.6148 -1.16617 0
M  V30 51 H 9.01397 -2.52055 0.283336 0
M  V30 52 H 9.95171 -0.974387 0.497398 0
M  V30 53 H 5.8618 3.11818 -0.220449 0
M  V30 54 H 6.81039 2.83803 1.28159 0
M  V30 55 H 7.70109 3.15104 -0.253806 0
M  V30 END ATOM
M  V30 BEGIN BOND
M  V30 1 2 1 2
M  V30 2 1 2 3
M  V30 3 2 3 4
M  V30 4 1 4 5
M  V30 5 1 4 6
M  V30 6 1 6 7
M  V30 7 1 6 8
M  V30 8 2 8 9
M  V30 9 1 8 10
M  V30 10 1 10 11
M  V30 11 2 11 12
M  V30 12 1 10 13
M  V30 13 1 2 14
M  V30 14 1 14 15
M  V30 15 1 15 16
M  V30 16 2 16 17
M  V30 17 1 17 18
M  V30 18 2 18 19
M  V30 19 1 19 20
M  V30 20 1 19 21
M  V30 21 1 21 22
M  V30 22 1 22 23
M  V30 23 2 23 24
M  V30 24 1 23 25
M  V30 25 2 25 26
M  V30 26 1 26 27
M  V30 27 1 26 28
M  V30 28 1 28 29
M  V30 29 1 28 30
M  V30 30 2 30 31
M  V30 31 1 30 32
M  V30 32 1 32 33
M  V30 33 2 33 34
M  V30 34 1 32 35
M  V30 35 1 11 3
M  V30 36 1 20 16
M  V30 37 1 33 25
M  V30 38 1 5 36
M  V30 39 1 5 37
M  V30 40 1 7 38
M  V30 41 1 7 39
M  V30 42 1 7 40
M  V30 43 1 13 41
M  V30 44 1 13 42
M  V30 45 1 13 43
M  V30 46 1 14 44
M  V30 47 1 14 45
M  V30 48 1 22 46
M  V30 49 1 22 47
M  V30 50 1 27 48
M  V30 51 1 27 49
M  V30 52 1 29 50
M  V30 53 1 29 51
M  V30 54 1 29 52
M  V30 55 1 35 53
M  V30 56 1 35 54
M  V30 57 1 35 55
M  V30 END BOND
M  V30 END CTAB
M  END
