
     RDKit          3D

  0  0  0  0  0  0  0  0  0  0999 V3000
M  V30 BEGIN CTAB
M  V30 COUNTS 31 33 0 0 0
M  V30 BEGIN ATOM
M  V30 1 C -5.04401 0.0549119 -0.0572493 0
M  V30 2 C -3.58035 0.0375763 -0.280792 0
M  V30 3 C -3.05998 0.0270192 -1.55791 0
M  V30 4 N -3.99763 0.0336589 -2.63489 0
M  V30 5 N -1.73678 0.0112236 -1.79172 0
M  V30 6 C -0.856745 0.00506774 -0.76096 0
M  V30 7 N 0.471892 -0.0107378 -0.980639 0
M  V30 8 C 1.35543 -0.0170257 0.0247424 0
M  V30 9 N 0.863328 -0.00683656 1.28812 0
M  V30 10 C -0.452242 0.0090124 1.5599 0
M  V30 11 N -0.975434 0.0197561 2.88016 0
M  V30 12 C -1.36603 0.0155443 0.528017 0
M  V30 13 N -2.69453 0.0313066 0.736582 0
M  V30 14 C 2.79975 -0.0342245 -0.219609 0
M  V30 15 C 3.654 -0.0399234 0.854552 0
M  V30 16 C 5.04107 -0.0562043 0.682545 0
M  V30 17 C 5.56575 -0.0668156 -0.596427 0
M  V30 18 C 4.71417 -0.0611357 -1.66803 0
M  V30 19 C 3.33258 -0.0448843 -1.48716 0
M  V30 20 H -5.59184 0.617673 -0.853177 0
M  V30 21 H -5.33034 0.534077 0.897927 0
M  V30 22 H -5.45628 -0.990133 -0.0850027 0
M  V30 23 H -4.74106 -0.71648 -2.68978 0
M  V30 24 H -3.98655 0.756971 -3.38731 0
M  V30 25 H -1.13599 -0.803746 3.46673 0
M  V30 26 H -1.21213 0.976138 3.26869 0
M  V30 27 H 3.3022 -0.0322091 1.87582 0
M  V30 28 H 5.68359 -0.0602927 1.54456 0
M  V30 29 H 6.6468 -0.0795425 -0.740937 0
M  V30 30 H 5.13891 -0.0695583 -2.65788 0
M  V30 31 H 2.64846 -0.0401875 -2.31071 0
M  V30 END ATOM
M  V30 BEGIN BOND
M  V30 1 1 1 2
M  V30 2 2 2 3
M  V30 3 1 3 4
M  V30 4 1 3 5
M  V30 5 2 5 6
M  V30 6 1 6 7
M  V30 7 2 7 8
M  V30 8 1 8 9
M  V30 9 2 9 10
M  V30 10 1 10 11
M  V30 11 1 10 12
M  V30 12 2 12 13
M  V30 13 1 8 14
M  V30 14 2 14 15
M  V30 15 1 15 16
M  V30 16 2 16 17
M  V30 17 1 17 18
M  V30 18 2 18 19
M  V30 19 1 13 2
M  V30 20 1 19 14
M  V30 21 1 12 6
M  V30 22 1 1 20
M  V30 23 1 1 21
M  V30 24 1 1 22
M  V30 25 1 4 23
M  V30 26 1 4 24
M  V30 27 1 11 25
M  V30 28 1 11 26
M  V30 29 1 15 27
M  V30 30 1 16 28
M  V30 31 1 17 29
M  V30 32 1 18 30
M  V30 33 1 19 31
M  V30 END BOND
M  V30 END CTAB
M  END
