
     RDKit          3D

  0  0  0  0  0  0  0  0  0  0999 V3000
M  V30 BEGIN CTAB
M  V30 COUNTS 20 20 0 0 0
M  V30 BEGIN ATOM
M  V30 1 N -2.39814 -2.26811 -0.599514 0
M  V30 2 N -2.43268 -1.18083 0.223974 0
M  V30 3 C -1.34976 -0.245005 0.317174 0
M  V30 4 C -0.0938331 -0.722626 0.409097 0
M  V30 5 C 1.00011 0.1411 0.481581 0
M  V30 6 O 2.20948 -0.300347 0.570351 0
M  V30 7 C 3.44946 -0.641949 0.661105 0
M  V30 8 N 0.685641 1.4674 0.449795 0
M  V30 9 C -0.542586 1.96827 0.360425 0
M  V30 10 N -1.5755 1.10028 0.294125 0
M  V30 11 N -0.796693 3.3734 0.305717 0
M  V30 12 H -1.65134 -2.91733 -0.588078 0
M  V30 13 H -3.18963 -2.42063 -1.23283 0
M  V30 14 H -3.27125 -1.01665 0.820662 0
M  V30 15 H 0.12528 -1.78515 0.436551 0
M  V30 16 H 3.95996 -0.749253 -0.350094 0
M  V30 17 H 3.57253 -1.65716 1.18921 0
M  V30 18 H 4.14052 0.0395278 1.25502 0
M  V30 19 H -1.64996 3.72123 -0.197481 0
M  V30 20 H -0.19161 4.09383 0.747949 0
M  V30 END ATOM
M  V30 BEGIN BOND
M  V30 1 1 1 2
M  V30 2 1 2 3
M  V30 3 2 3 4
M  V30 4 1 4 5
M  V30 5 1 5 6
M  V30 6 1 6 7
M  V30 7 2 5 8
M  V30 8 1 8 9
M  V30 9 2 9 10
M  V30 10 1 9 11
M  V30 11 1 10 3
M  V30 12 1 1 12
M  V30 13 1 1 13
M  V30 14 1 2 14
M  V30 15 1 4 15
M  V30 16 1 7 16
M  V30 17 1 7 17
M  V30 18 1 7 18
M  V30 19 1 11 19
M  V30 20 1 11 20
M  V30 END BOND
M  V30 END CTAB
M  END
