
     RDKit          3D

  0  0  0  0  0  0  0  0  0  0999 V3000
M  V30 BEGIN CTAB
M  V30 COUNTS 46 47 0 0 0
M  V30 BEGIN ATOM
M  V30 1 C 5.57295 -0.997647 1.7051 0
M  V30 2 C 4.23503 -0.348893 1.83009 0
M  V30 3 N 3.60018 -0.104106 0.5619 0
M  V30 4 C 2.32871 0.500868 0.435059 0
M  V30 5 O 1.72066 0.842456 1.47388 0
M  V30 6 C 1.68786 0.746514 -0.875415 0 CFG=2
M  V30 7 C 2.56752 1.71801 -1.63708 0
M  V30 8 C 1.64444 2.82185 -2.04718 0 CFG=2
M  V30 9 C 0.567794 2.78582 -0.982181 0
M  V30 10 N 0.400734 1.36893 -0.754732 0
M  V30 11 C -0.821669 0.708396 -0.463422 0
M  V30 12 O -1.88349 1.37442 -0.385237 0
M  V30 13 C -0.905733 -0.75445 -0.243507 0
M  V30 14 N -2.28039 -1.11885 0.0301412 0
M  V30 15 N -3.18811 -1.46034 -0.853804 0
M  V30 16 C -4.36918 -1.74059 -0.274441 0
M  V30 17 C -4.15249 -1.55109 1.07498 0
M  V30 18 C -2.83761 -1.15927 1.27133 0
M  V30 19 C -2.15813 -0.846088 2.5401 0
M  V30 20 N -5.10563 -1.72403 2.10309 0
M  V30 21 C -5.65566 -2.16362 -0.887537 0
M  V30 22 N 1.11447 2.53665 -3.35331 0
M  V30 23 H 5.50228 -2.07978 1.60034 0
M  V30 24 H 6.21527 -0.778496 2.59338 0
M  V30 25 H 6.14933 -0.624208 0.823712 0
M  V30 26 H 3.60067 -1.001 2.4805 0
M  V30 27 H 4.37314 0.62313 2.37516 0
M  V30 28 H 4.10797 -0.389353 -0.303774 0
M  V30 29 H 1.64421 -0.244509 -1.40347 0
M  V30 30 H 3.36431 2.14955 -0.985424 0
M  V30 31 H 3.08622 1.23263 -2.49233 0
M  V30 32 H 2.15502 3.80675 -2.04299 0
M  V30 33 H -0.367611 3.26889 -1.33533 0
M  V30 34 H 0.9734 3.27031 -0.0703035 0
M  V30 35 H -0.629412 -1.22595 -1.22605 0
M  V30 36 H -0.233649 -1.09804 0.56757 0
M  V30 37 H -1.96356 0.245376 2.65533 0
M  V30 38 H -1.16044 -1.33354 2.54176 0
M  V30 39 H -2.72251 -1.26972 3.39805 0
M  V30 40 H -5.45399 -0.917304 2.65377 0
M  V30 41 H -5.4857 -2.66626 2.33746 0
M  V30 42 H -5.69522 -1.92185 -1.97143 0
M  V30 43 H -5.83741 -3.2527 -0.797012 0
M  V30 44 H -6.50937 -1.61129 -0.428701 0
M  V30 45 H 1.02275 1.50497 -3.49367 0
M  V30 46 H 1.7821 2.87743 -4.08746 0
M  V30 END ATOM
M  V30 BEGIN BOND
M  V30 1 1 1 2
M  V30 2 1 2 3
M  V30 3 1 3 4
M  V30 4 2 4 5
M  V30 5 1 4 6
M  V30 6 1 6 7
M  V30 7 1 7 8
M  V30 8 1 8 9
M  V30 9 1 9 10
M  V30 10 1 10 11
M  V30 11 2 11 12
M  V30 12 1 11 13
M  V30 13 1 13 14
M  V30 14 1 14 15
M  V30 15 2 15 16
M  V30 16 1 16 17
M  V30 17 2 17 18
M  V30 18 1 18 19
M  V30 19 1 17 20
M  V30 20 1 16 21
M  V30 21 1 8 22
M  V30 22 1 10 6
M  V30 23 1 18 14
M  V30 24 1 1 23
M  V30 25 1 1 24
M  V30 26 1 1 25
M  V30 27 1 2 26
M  V30 28 1 2 27
M  V30 29 1 3 28
M  V30 30 1 6 29 CFG=3
M  V30 31 1 7 30
M  V30 32 1 7 31
M  V30 33 1 8 32 CFG=3
M  V30 34 1 9 33
M  V30 35 1 9 34
M  V30 36 1 13 35
M  V30 37 1 13 36
M  V30 38 1 19 37
M  V30 39 1 19 38
M  V30 40 1 19 39
M  V30 41 1 20 40
M  V30 42 1 20 41
M  V30 43 1 21 42
M  V30 44 1 21 43
M  V30 45 1 21 44
M  V30 46 1 22 45
M  V30 47 1 22 46
M  V30 END BOND
M  V30 END CTAB
M  END
