
     RDKit          3D

  0  0  0  0  0  0  0  0  0  0999 V3000
M  V30 BEGIN CTAB
M  V30 COUNTS 21 21 0 0 0
M  V30 BEGIN ATOM
M  V30 1 C 3.10766 -1.02446 -0.464519 0
M  V30 2 C 1.86866 -0.388824 0.0282505 0
M  V30 3 C 0.733709 -0.417126 -0.779345 0
M  V30 4 C -0.412161 0.189577 -0.284754 0
M  V30 5 C -0.39602 0.788953 0.961828 0
M  V30 6 N -1.60095 1.38849 1.40266 0
M  V30 7 N 0.734114 0.798786 1.72816 0
M  V30 8 C 1.85626 0.216594 1.26845 0
M  V30 9 S -1.86399 0.190113 -1.24209 0
M  V30 10 N -3.11026 -0.634579 -0.341248 0
M  V30 11 O -2.36295 1.55342 -1.5464 0
M  V30 12 O -1.6383 -0.560114 -2.5209 0
M  V30 13 H 3.23992 -0.701951 -1.53952 0
M  V30 14 H 4.008 -0.684187 0.0621574 0
M  V30 15 H 2.98556 -2.12305 -0.498689 0
M  V30 16 H 0.726217 -0.887203 -1.7536 0
M  V30 17 H -2.16059 2.08145 0.860561 0
M  V30 18 H -1.96724 1.12367 2.3422 0
M  V30 19 H 2.77642 0.196254 1.83398 0
M  V30 20 H -2.69894 -1.13606 0.479049 0
M  V30 21 H -3.82512 0.0302543 0.00375727 0
M  V30 END ATOM
M  V30 BEGIN BOND
M  V30 1 1 1 2
M  V30 2 2 2 3
M  V30 3 1 3 4
M  V30 4 2 4 5
M  V30 5 1 5 6
M  V30 6 1 5 7
M  V30 7 2 7 8
M  V30 8 1 4 9
M  V30 9 1 9 10
M  V30 10 2 9 11
M  V30 11 2 9 12
M  V30 12 1 8 2
M  V30 13 1 1 13
M  V30 14 1 1 14
M  V30 15 1 1 15
M  V30 16 1 3 16
M  V30 17 1 6 17
M  V30 18 1 6 18
M  V30 19 1 8 19
M  V30 20 1 10 20
M  V30 21 1 10 21
M  V30 END BOND
M  V30 END CTAB
M  END
