
     RDKit          3D

  0  0  0  0  0  0  0  0  0  0999 V3000
M  V30 BEGIN CTAB
M  V30 COUNTS 48 51 0 0 0
M  V30 BEGIN ATOM
M  V30 1 C 9.2093 0.690449 -1.10026 0
M  V30 2 O 7.96939 0.229081 -1.61086 0
M  V30 3 C 6.80753 0.244909 -0.832405 0
M  V30 4 C 6.77109 0.698417 0.454248 0
M  V30 5 C 5.59753 0.686352 1.16616 0
M  V30 6 C 4.40852 0.22942 0.649297 0
M  V30 7 C 4.43864 -0.230218 -0.6543 0
M  V30 8 C 5.61091 -0.220554 -1.37157 0
M  V30 9 C 3.15235 0.199504 1.44562 0
M  V30 10 C 3.15731 0.567446 2.76048 0
M  V30 11 S 1.51256 0.307351 3.18764 0
M  V30 12 C 0.944084 -0.243879 1.67414 0
M  V30 13 N 2.03135 -0.201776 0.926061 0
M  V30 14 C -0.417758 -0.671408 1.37073 0
M  V30 15 C -1.17824 -0.324003 0.314782 0
M  V30 16 N -0.750562 0.545552 -0.703166 0
M  V30 17 N -2.45397 -0.936985 0.377127 0
M  V30 18 C -2.22946 -2.14132 1.21018 0
M  V30 19 C -1.21671 -1.59302 2.15189 0
M  V30 20 O -1.10984 -1.88479 3.34161 0
M  V30 21 C -3.70345 -0.546968 -0.173696 0
M  V30 22 C -4.78114 -1.40519 -0.0952536 0
M  V30 23 C -6.0421 -1.10572 -0.585046 0
M  V30 24 C -6.25985 0.120792 -1.19351 0
M  V30 25 C -5.21277 1.00995 -1.2958 0
M  V30 26 C -3.95461 0.659412 -0.78381 0
M  V30 27 S -7.80701 0.579046 -1.83366 0
M  V30 28 O -8.5197 -0.693158 -2.2706 0
M  V30 29 O -7.61463 1.44727 -3.02965 0
M  V30 30 N -8.78368 1.39451 -0.691691 0
M  V30 31 H 9.35581 1.79298 -1.29063 0
M  V30 32 H 9.35698 0.449239 -0.0319642 0
M  V30 33 H 10.0558 0.206328 -1.64108 0
M  V30 34 H 7.66732 1.06711 0.911663 0
M  V30 35 H 5.57804 1.05757 2.2058 0
M  V30 36 H 3.52261 -0.597893 -1.0993 0
M  V30 37 H 5.63627 -0.577778 -2.38877 0
M  V30 38 H 3.98768 0.937304 3.39308 0
M  V30 39 H -0.314099 1.46414 -0.420833 0
M  V30 40 H -0.818854 0.378979 -1.72701 0
M  V30 41 H -3.16942 -2.353 1.73878 0
M  V30 42 H -1.847 -2.9705 0.614846 0
M  V30 43 H -4.64736 -2.3876 0.378646 0
M  V30 44 H -6.86876 -1.79049 -0.514214 0
M  V30 45 H -5.34966 1.98191 -1.76827 0
M  V30 46 H -3.16612 1.36381 -0.873375 0
M  V30 47 H -9.70289 1.62716 -1.12764 0
M  V30 48 H -8.85144 0.940276 0.232561 0
M  V30 END ATOM
M  V30 BEGIN BOND
M  V30 1 1 1 2
M  V30 2 1 2 3
M  V30 3 2 3 4
M  V30 4 1 4 5
M  V30 5 2 5 6
M  V30 6 1 6 7
M  V30 7 2 7 8
M  V30 8 1 6 9
M  V30 9 2 9 10
M  V30 10 1 10 11
M  V30 11 1 11 12
M  V30 12 2 12 13
M  V30 13 1 12 14
M  V30 14 2 14 15
M  V30 15 1 15 16
M  V30 16 1 15 17
M  V30 17 1 17 18
M  V30 18 1 18 19
M  V30 19 2 19 20
M  V30 20 1 17 21
M  V30 21 2 21 22
M  V30 22 1 22 23
M  V30 23 2 23 24
M  V30 24 1 24 25
M  V30 25 2 25 26
M  V30 26 1 24 27
M  V30 27 2 27 28
M  V30 28 2 27 29
M  V30 29 1 27 30
M  V30 30 1 8 3
M  V30 31 1 13 9
M  V30 32 1 19 14
M  V30 33 1 26 21
M  V30 34 1 1 31
M  V30 35 1 1 32
M  V30 36 1 1 33
M  V30 37 1 4 34
M  V30 38 1 5 35
M  V30 39 1 7 36
M  V30 40 1 8 37
M  V30 41 1 10 38
M  V30 42 1 16 39
M  V30 43 1 16 40
M  V30 44 1 18 41
M  V30 45 1 18 42
M  V30 46 1 22 43
M  V30 47 1 23 44
M  V30 48 1 25 45
M  V30 49 1 26 46
M  V30 50 1 30 47
M  V30 51 1 30 48
M  V30 END BOND
M  V30 END CTAB
M  END
