
     RDKit          3D

  0  0  0  0  0  0  0  0  0  0999 V3000
M  V30 BEGIN CTAB
M  V30 COUNTS 49 50 0 0 0
M  V30 BEGIN ATOM
M  V30 1 N 7.75507 1.81374 -0.0748113 0
M  V30 2 C 6.71957 0.962805 -0.687639 0
M  V30 3 C 6.63937 -0.264872 0.155067 0
M  V30 4 O 5.73595 -1.23342 -0.207209 0
M  V30 5 C 4.37531 -1.24517 -0.283808 0
M  V30 6 C 3.62587 -0.155903 0.0592676 0
M  V30 7 C 2.21991 -0.232254 -0.0468122 0
M  V30 8 C 1.57984 -1.35449 -0.478603 0
M  V30 9 C 2.38221 -2.46091 -0.824041 0
M  V30 10 C 3.74355 -2.42685 -0.735932 0
M  V30 11 N 0.189069 -1.44254 -0.577394 0
M  V30 12 C -0.795146 -0.540529 -0.170533 0
M  V30 13 O -0.55486 0.548216 0.379754 0
M  V30 14 C -2.21719 -0.895043 -0.405116 0
M  V30 15 C -3.22128 0.00753765 0.216379 0
M  V30 16 C -3.08804 0.00663185 1.71278 0
M  V30 17 N -4.10269 0.907206 2.26611 0
M  V30 18 C -3.08395 1.44093 -0.268726 0
M  V30 19 C -4.42624 1.98944 -0.63355 0
M  V30 20 C -4.90266 1.22896 -1.86034 0
M  V30 21 C -4.95567 -0.247843 -1.59043 0
M  V30 22 C -4.60441 -0.51669 -0.161846 0
M  V30 23 H 8.49462 1.17151 0.27536 0
M  V30 24 H 7.34595 2.39717 0.689464 0
M  V30 25 H 7.03246 0.734507 -1.73547 0
M  V30 26 H 5.83257 1.56907 -0.736426 0
M  V30 27 H 6.33338 0.0980183 1.19259 0
M  V30 28 H 7.67424 -0.672191 0.290289 0
M  V30 29 H 4.07463 0.749463 0.423028 0
M  V30 30 H 1.70236 0.685816 0.241817 0
M  V30 31 H 1.92806 -3.38369 -1.17494 0
M  V30 32 H 4.38485 -3.26604 -0.996015 0
M  V30 33 H -0.175133 -2.34736 -1.04116 0
M  V30 34 H -2.41457 -1.03506 -1.50754 0
M  V30 35 H -2.33184 -1.94521 -0.00320555 0
M  V30 36 H -3.31363 -1.01772 2.13229 0
M  V30 37 H -2.11778 0.322534 2.08845 0
M  V30 38 H -3.72074 1.32463 3.16633 0
M  V30 39 H -4.98161 0.399993 2.45634 0
M  V30 40 H -2.44942 1.46767 -1.17853 0
M  V30 41 H -2.54959 2.01867 0.500874 0
M  V30 42 H -4.35821 3.07094 -0.920255 0
M  V30 43 H -5.18053 1.94042 0.160463 0
M  V30 44 H -5.87153 1.61272 -2.24107 0
M  V30 45 H -4.15377 1.39432 -2.67456 0
M  V30 46 H -5.97312 -0.664768 -1.7797 0
M  V30 47 H -4.2747 -0.828688 -2.23848 0
M  V30 48 H -5.40077 -0.0608942 0.477209 0
M  V30 49 H -4.54976 -1.6248 0.0273924 0
M  V30 END ATOM
M  V30 BEGIN BOND
M  V30 1 1 1 2
M  V30 2 1 2 3
M  V30 3 1 3 4
M  V30 4 1 4 5
M  V30 5 2 5 6
M  V30 6 1 6 7
M  V30 7 2 7 8
M  V30 8 1 8 9
M  V30 9 2 9 10
M  V30 10 1 8 11
M  V30 11 1 11 12
M  V30 12 2 12 13
M  V30 13 1 12 14
M  V30 14 1 14 15
M  V30 15 1 15 16
M  V30 16 1 16 17
M  V30 17 1 15 18
M  V30 18 1 18 19
M  V30 19 1 19 20
M  V30 20 1 20 21
M  V30 21 1 21 22
M  V30 22 1 10 5
M  V30 23 1 22 15
M  V30 24 1 1 23
M  V30 25 1 1 24
M  V30 26 1 2 25
M  V30 27 1 2 26
M  V30 28 1 3 27
M  V30 29 1 3 28
M  V30 30 1 6 29
M  V30 31 1 7 30
M  V30 32 1 9 31
M  V30 33 1 10 32
M  V30 34 1 11 33
M  V30 35 1 14 34
M  V30 36 1 14 35
M  V30 37 1 16 36
M  V30 38 1 16 37
M  V30 39 1 17 38
M  V30 40 1 17 39
M  V30 41 1 18 40
M  V30 42 1 18 41
M  V30 43 1 19 42
M  V30 44 1 19 43
M  V30 45 1 20 44
M  V30 46 1 20 45
M  V30 47 1 21 46
M  V30 48 1 21 47
M  V30 49 1 22 48
M  V30 50 1 22 49
M  V30 END BOND
M  V30 END CTAB
M  END
