
     RDKit          3D

  0  0  0  0  0  0  0  0  0  0999 V3000
M  V30 BEGIN CTAB
M  V30 COUNTS 43 42 0 0 0
M  V30 BEGIN ATOM
M  V30 1 C 4.5023 0.108654 1.62687 0
M  V30 2 C 3.88855 0.718405 0.411589 0
M  V30 3 C 2.98984 -0.179774 -0.371222 0
M  V30 4 C 1.79487 -0.689729 0.43332 0
M  V30 5 C 1.01531 -1.53964 -0.452547 0
M  V30 6 O 1.25608 -2.81074 -0.307605 0
M  V30 7 N 0.0650182 -1.23209 -1.42629 0
M  V30 8 C -0.432904 0.0627802 -1.69204 0
M  V30 9 C -1.70298 0.487833 -1.07962 0
M  V30 10 C -1.73609 0.588987 0.406502 0
M  V30 11 C -3.15829 0.972342 0.871815 0
M  V30 12 C -3.58623 2.28532 0.303294 0
M  V30 13 C -4.14404 -0.0914572 0.514545 0
M  V30 14 N -0.985758 1.83291 0.747715 0
M  V30 15 C -0.425623 -2.39299 -2.2186 0
M  V30 16 N 2.33855 -1.54571 1.52199 0
M  V30 17 H 5.44668 0.694838 1.83586 0
M  V30 18 H 4.85011 -0.926386 1.46897 0
M  V30 19 H 3.90013 0.239642 2.5554 0
M  V30 20 H 4.72222 1.00377 -0.275349 0
M  V30 21 H 3.40504 1.67818 0.693937 0
M  V30 22 H 2.60618 0.352845 -1.24166 0
M  V30 23 H 3.60591 -1.06359 -0.670944 0
M  V30 24 H 1.32266 0.124475 0.936663 0
M  V30 25 H -0.465859 0.164838 -2.82264 0
M  V30 26 H 0.346168 0.816987 -1.38077 0
M  V30 27 H -2.60237 -0.0409707 -1.49192 0
M  V30 28 H -1.87561 1.55391 -1.4493 0
M  V30 29 H -1.41308 -0.259338 0.982481 0
M  V30 30 H -3.08287 1.06461 1.97173 0
M  V30 31 H -4.25481 2.81737 1.01804 0
M  V30 32 H -2.72885 2.92358 -0.0178589 0
M  V30 33 H -4.16764 2.09023 -0.638626 0
M  V30 34 H -4.83249 -0.239869 1.36722 0
M  V30 35 H -3.58225 -1.03578 0.34935 0
M  V30 36 H -4.72762 0.202866 -0.388854 0
M  V30 37 H -0.457309 2.13261 -0.0795485 0
M  V30 38 H -0.380004 1.69259 1.56075 0
M  V30 39 H 0.439073 -2.90202 -2.68693 0
M  V30 40 H -0.840182 -3.08752 -1.46015 0
M  V30 41 H -1.22661 -2.09925 -2.88678 0
M  V30 42 H 1.68293 -1.57606 2.3142 0
M  V30 43 H 2.63184 -2.45903 1.14702 0
M  V30 END ATOM
M  V30 BEGIN BOND
M  V30 1 1 1 2
M  V30 2 1 2 3
M  V30 3 1 3 4
M  V30 4 1 4 5
M  V30 5 2 5 6
M  V30 6 1 5 7
M  V30 7 1 7 8
M  V30 8 1 8 9
M  V30 9 1 9 10
M  V30 10 1 10 11
M  V30 11 1 11 12
M  V30 12 1 11 13
M  V30 13 1 10 14
M  V30 14 1 7 15
M  V30 15 1 4 16
M  V30 16 1 1 17
M  V30 17 1 1 18
M  V30 18 1 1 19
M  V30 19 1 2 20
M  V30 20 1 2 21
M  V30 21 1 3 22
M  V30 22 1 3 23
M  V30 23 1 4 24
M  V30 24 1 8 25
M  V30 25 1 8 26
M  V30 26 1 9 27
M  V30 27 1 9 28
M  V30 28 1 10 29
M  V30 29 1 11 30
M  V30 30 1 12 31
M  V30 31 1 12 32
M  V30 32 1 12 33
M  V30 33 1 13 34
M  V30 34 1 13 35
M  V30 35 1 13 36
M  V30 36 1 14 37
M  V30 37 1 14 38
M  V30 38 1 15 39
M  V30 39 1 15 40
M  V30 40 1 15 41
M  V30 41 1 16 42
M  V30 42 1 16 43
M  V30 END BOND
M  V30 END CTAB
M  END
