
     RDKit          3D

  0  0  0  0  0  0  0  0  0  0999 V3000
M  V30 BEGIN CTAB
M  V30 COUNTS 20 20 0 0 0
M  V30 BEGIN ATOM
M  V30 1 O 2.83593 1.08509 -0.0849642 0
M  V30 2 C 2.4001 -0.223309 0.0215342 0
M  V30 3 C 1.19813 -0.441079 -0.877532 0
M  V30 4 C 0.330153 0.0204135 0.285033 0
M  V30 5 C 1.44747 -0.417896 1.20821 0
M  V30 6 N -0.909319 -0.677034 0.425559 0
M  V30 7 C -1.96993 -0.131013 -0.0842346 0
M  V30 8 N -3.20427 -0.80961 0.0469101 0
M  V30 9 N -1.94546 1.11658 -0.767246 0
M  V30 10 H 2.48868 1.67751 0.637938 0
M  V30 11 H 3.15169 -1.00978 0.0272833 0
M  V30 12 H 1.12696 0.285088 -1.72017 0
M  V30 13 H 1.01205 -1.47987 -1.17024 0
M  V30 14 H 0.191278 1.11524 0.317837 0
M  V30 15 H 1.6439 0.269377 2.04866 0
M  V30 16 H 1.40023 -1.47458 1.52646 0
M  V30 17 H -3.77152 -1.09381 -0.770148 0
M  V30 18 H -3.54942 -1.02824 0.998781 0
M  V30 19 H -1.17796 1.38759 -1.42984 0
M  V30 20 H -2.69868 1.82934 -0.639832 0
M  V30 END ATOM
M  V30 BEGIN BOND
M  V30 1 1 1 2
M  V30 2 1 2 3
M  V30 3 1 3 4
M  V30 4 1 4 5
M  V30 5 1 4 6
M  V30 6 2 6 7 CFG=2
M  V30 7 1 7 8
M  V30 8 1 7 9
M  V30 9 1 5 2
M  V30 10 1 1 10
M  V30 11 1 2 11
M  V30 12 1 3 12
M  V30 13 1 3 13
M  V30 14 1 4 14
M  V30 15 1 5 15
M  V30 16 1 5 16
M  V30 17 1 8 17
M  V30 18 1 8 18
M  V30 19 1 9 19
M  V30 20 1 9 20
M  V30 END BOND
M  V30 END CTAB
M  END
