
     RDKit          3D

  0  0  0  0  0  0  0  0  0  0999 V3000
M  V30 BEGIN CTAB
M  V30 COUNTS 46 47 0 0 0
M  V30 BEGIN ATOM
M  V30 1 C -6.99797 -0.908675 -1.97179 0
M  V30 2 C -6.47121 -0.611564 -0.588644 0
M  V30 3 C -4.96012 -0.568784 -0.621239 0
M  V30 4 C -4.42367 -0.271126 0.763169 0
M  V30 5 C -2.90964 -0.242481 0.660088 0
M  V30 6 C -2.25685 0.0436289 1.96877 0
M  V30 7 O -0.881883 0.0863238 1.96019 0
M  V30 8 C 0.0372158 0.871552 1.36486 0
M  V30 9 C 1.40301 0.580781 1.5804 0
M  V30 10 C 2.42521 1.30467 1.03381 0
M  V30 11 C 3.83421 0.981241 1.27379 0
M  V30 12 C 4.37766 0.0276812 0.265343 0
M  V30 13 C 5.68581 -0.369944 0.358444 0
M  V30 14 N 6.47311 0.140127 1.40979 0
M  V30 15 N 6.19054 -1.24341 -0.562005 0
M  V30 16 C 5.45199 -1.73512 -1.56583 0
M  V30 17 N 6.00656 -2.65184 -2.52006 0
M  V30 18 N 4.1689 -1.341 -1.65169 0
M  V30 19 C 3.6194 -0.479683 -0.768629 0
M  V30 20 C 2.07144 2.37069 0.233078 0
M  V30 21 C 0.779142 2.711 -0.0194137 0
M  V30 22 C -0.234134 1.94114 0.562221 0
M  V30 23 H -7.63044 -0.0672821 -2.31854 0
M  V30 24 H -7.63982 -1.82655 -1.99452 0
M  V30 25 H -6.17326 -1.01345 -2.71581 0
M  V30 26 H -6.76535 -1.43188 0.0855424 0
M  V30 27 H -6.85229 0.365381 -0.239429 0
M  V30 28 H -4.55772 -1.57054 -0.90305 0
M  V30 29 H -4.56989 0.225675 -1.28937 0
M  V30 30 H -4.75695 -1.05189 1.48853 0
M  V30 31 H -4.82668 0.720602 1.06742 0
M  V30 32 H -2.65146 0.512643 -0.0848689 0
M  V30 33 H -2.5992 -1.26123 0.317035 0
M  V30 34 H -2.64405 -0.743442 2.69246 0
M  V30 35 H -2.6136 1.00869 2.41833 0
M  V30 36 H 1.67324 -0.271231 2.22041 0
M  V30 37 H 4.03533 0.580984 2.29501 0
M  V30 38 H 4.44689 1.91995 1.15681 0
M  V30 39 H 6.21229 -0.037603 2.39181 0
M  V30 40 H 7.31622 0.695183 1.19534 0
M  V30 41 H 5.43955 -3.39379 -2.98012 0
M  V30 42 H 7.01416 -2.59817 -2.78389 0
M  V30 43 H 2.58708 -0.156458 -0.829551 0
M  V30 44 H 2.87227 2.95777 -0.210541 0
M  V30 45 H 0.556139 3.55466 -0.653265 0
M  V30 46 H -1.26116 2.24677 0.357442 0
M  V30 END ATOM
M  V30 BEGIN BOND
M  V30 1 1 1 2
M  V30 2 1 2 3
M  V30 3 1 3 4
M  V30 4 1 4 5
M  V30 5 1 5 6
M  V30 6 1 6 7
M  V30 7 1 7 8
M  V30 8 2 8 9
M  V30 9 1 9 10
M  V30 10 1 10 11
M  V30 11 1 11 12
M  V30 12 2 12 13
M  V30 13 1 13 14
M  V30 14 1 13 15
M  V30 15 2 15 16
M  V30 16 1 16 17
M  V30 17 1 16 18
M  V30 18 2 18 19
M  V30 19 2 10 20
M  V30 20 1 20 21
M  V30 21 2 21 22
M  V30 22 1 22 8
M  V30 23 1 19 12
M  V30 24 1 1 23
M  V30 25 1 1 24
M  V30 26 1 1 25
M  V30 27 1 2 26
M  V30 28 1 2 27
M  V30 29 1 3 28
M  V30 30 1 3 29
M  V30 31 1 4 30
M  V30 32 1 4 31
M  V30 33 1 5 32
M  V30 34 1 5 33
M  V30 35 1 6 34
M  V30 36 1 6 35
M  V30 37 1 9 36
M  V30 38 1 11 37
M  V30 39 1 11 38
M  V30 40 1 14 39
M  V30 41 1 14 40
M  V30 42 1 17 41
M  V30 43 1 17 42
M  V30 44 1 19 43
M  V30 45 1 20 44
M  V30 46 1 21 45
M  V30 47 1 22 46
M  V30 END BOND
M  V30 END CTAB
M  END
