
     RDKit          3D

  0  0  0  0  0  0  0  0  0  0999 V3000
M  V30 BEGIN CTAB
M  V30 COUNTS 95 95 0 0 0
M  V30 BEGIN ATOM
M  V30 1 C 8.80978 3.60012 1.10208 0 CFG=1
M  V30 2 N 9.39934 4.77035 1.75404 0
M  V30 3 C 7.33571 3.55356 1.3 0
M  V30 4 C 6.63969 2.39273 0.676658 0
M  V30 5 C 5.16665 2.42014 0.947783 0
M  V30 6 O 4.72719 3.37778 1.62384 0
M  V30 7 N 4.31111 1.40902 0.461752 0
M  V30 8 C 2.90587 1.42574 0.713977 0 CFG=1
M  V30 9 C 2.07486 1.57986 -0.568629 0
M  V30 10 S 0.451299 0.870818 -0.231857 0
M  V30 11 S -0.678433 0.858929 -2.01023 0
M  V30 12 C -1.78104 2.28065 -2.13738 0
M  V30 13 C -3.20183 1.81667 -2.12382 0 CFG=2
M  V30 14 N -3.96304 2.36442 -1.0286 0
M  V30 15 C -5.09745 3.19311 -1.19297 0
M  V30 16 O -5.47738 3.47574 -2.37294 0
M  V30 17 C -5.81178 3.70892 0.00230058 0
M  V30 18 C -6.97939 4.53452 -0.475562 0
M  V30 19 C -7.7636 5.1072 0.700875 0 CFG=2
M  V30 20 N -6.83492 5.94331 1.45066 0
M  V30 21 C -8.26401 3.98848 1.5252 0
M  V30 22 O -9.16051 3.09857 0.964288 0
M  V30 23 O -7.88887 3.84961 2.69614 0
M  V30 24 C -3.23056 0.338291 -2.20117 0
M  V30 25 O -2.82106 -0.130317 -3.32592 0
M  V30 26 N -3.64011 -0.566738 -1.22143 0
M  V30 27 C -3.13668 -0.719926 0.121974 0
M  V30 28 C -2.27621 -1.94278 0.262262 0
M  V30 29 O -1.5484 -1.98874 1.29868 0
M  V30 30 N -2.23475 -3.00022 -0.658981 0
M  V30 31 C -3.37611 -3.69471 -1.21632 0
M  V30 32 C -3.08031 -5.18846 -1.22551 0
M  V30 33 C -2.58732 -5.67845 0.104436 0
M  V30 34 N -1.17118 -5.58852 0.273176 0
M  V30 35 C -0.537069 -6.80273 0.710734 0
M  V30 36 C 0.802232 -6.95158 0.0412329 0
M  V30 37 C 1.32052 -5.64482 -0.522679 0
M  V30 38 C 2.04823 -4.8187 0.515321 0
M  V30 39 N 3.23797 -4.27847 -0.0831438 0
M  V30 40 C 3.70054 -2.95323 0.0154536 0
M  V30 41 O 4.9563 -2.78194 0.19127 0
M  V30 42 C 2.88136 -1.74346 -0.0636259 0
M  V30 43 N 2.82887 -1.09426 1.23023 0
M  V30 44 C 2.43543 0.238391 1.47191 0
M  V30 45 O 1.6132 0.460804 2.40943 0
M  V30 46 C 9.24807 3.57485 -0.307314 0
M  V30 47 O 9.99704 4.65749 -0.792434 0
M  V30 48 O 8.99853 2.64975 -1.11149 0
M  V30 49 H 9.24393 2.69403 1.60156 0
M  V30 50 H 10.417 4.59138 1.92826 0
M  V30 51 H 8.89662 5.02992 2.61177 0
M  V30 52 H 6.92813 4.53962 0.933701 0
M  V30 53 H 7.15381 3.60202 2.40995 0
M  V30 54 H 6.71221 2.43762 -0.432846 0
M  V30 55 H 7.04968 1.46026 1.06422 0
M  V30 56 H 4.72696 0.637064 -0.0935047 0
M  V30 57 H 2.65435 2.35166 1.30876 0
M  V30 58 H 1.90187 2.67271 -0.787603 0
M  V30 59 H 2.57831 1.16833 -1.44545 0
M  V30 60 H -1.50419 2.80752 -3.0842 0
M  V30 61 H -1.57793 2.98627 -1.27904 0
M  V30 62 H -3.6796 2.25617 -3.05289 0
M  V30 63 H -3.65291 2.1358 -0.0664667 0
M  V30 64 H -5.12573 4.34621 0.631562 0
M  V30 65 H -6.1438 2.84519 0.617553 0
M  V30 66 H -6.56883 5.3647 -1.08536 0
M  V30 67 H -7.63038 3.85563 -1.07672 0
M  V30 68 H -8.59384 5.6889 0.284851 0
M  V30 69 H -6.54029 5.48555 2.34621 0
M  V30 70 H -6.02325 6.21859 0.861544 0
M  V30 71 H -9.72164 3.29724 0.170919 0
M  V30 72 H -4.42313 -1.24957 -1.47759 0
M  V30 73 H -2.56184 0.129284 0.505451 0
M  V30 74 H -4.00677 -0.907632 0.800064 0
M  V30 75 H -1.27941 -3.32859 -0.982662 0
M  V30 76 H -3.442 -3.39595 -2.28932 0
M  V30 77 H -4.30934 -3.51147 -0.663769 0
M  V30 78 H -4.00498 -5.71853 -1.54557 0
M  V30 79 H -2.3001 -5.35519 -1.98782 0
M  V30 80 H -2.94211 -6.73889 0.226234 0
M  V30 81 H -3.12207 -5.11831 0.925504 0
M  V30 82 H -0.947559 -4.84331 0.985612 0
M  V30 83 H -0.435564 -6.84444 1.8205 0
M  V30 84 H -1.17217 -7.64813 0.414845 0
M  V30 85 H 0.697925 -7.6465 -0.815365 0
M  V30 86 H 1.54006 -7.41742 0.736393 0
M  V30 87 H 0.487672 -5.09517 -0.971831 0
M  V30 88 H 2.03074 -5.90841 -1.3435 0
M  V30 89 H 1.4205 -4.08452 1.01689 0
M  V30 90 H 2.39757 -5.56228 1.29007 0
M  V30 91 H 3.81329 -4.96657 -0.654834 0
M  V30 92 H 3.23246 -1.06479 -0.864977 0
M  V30 93 H 1.84331 -2.04917 -0.389518 0
M  V30 94 H 3.1111 -1.68172 2.06003 0
M  V30 95 H 9.52412 5.5631 -0.855322 0
M  V30 END ATOM
M  V30 BEGIN BOND
M  V30 1 1 1 2
M  V30 2 1 1 3
M  V30 3 1 3 4
M  V30 4 1 4 5
M  V30 5 2 5 6
M  V30 6 1 5 7
M  V30 7 1 7 8
M  V30 8 1 8 9
M  V30 9 1 9 10
M  V30 10 1 10 11
M  V30 11 1 11 12
M  V30 12 1 12 13
M  V30 13 1 13 14
M  V30 14 1 14 15
M  V30 15 2 15 16
M  V30 16 1 15 17
M  V30 17 1 17 18
M  V30 18 1 18 19
M  V30 19 1 19 20
M  V30 20 1 19 21
M  V30 21 1 21 22
M  V30 22 2 21 23
M  V30 23 1 13 24
M  V30 24 2 24 25
M  V30 25 1 24 26
M  V30 26 1 26 27
M  V30 27 1 27 28
M  V30 28 2 28 29
M  V30 29 1 28 30
M  V30 30 1 30 31
M  V30 31 1 31 32
M  V30 32 1 32 33
M  V30 33 1 33 34
M  V30 34 1 34 35
M  V30 35 1 35 36
M  V30 36 1 36 37
M  V30 37 1 37 38
M  V30 38 1 38 39
M  V30 39 1 39 40
M  V30 40 2 40 41
M  V30 41 1 40 42
M  V30 42 1 42 43
M  V30 43 1 43 44
M  V30 44 2 44 45
M  V30 45 1 1 46
M  V30 46 1 46 47
M  V30 47 2 46 48
M  V30 48 1 44 8
M  V30 49 1 1 49 CFG=1
M  V30 50 1 2 50
M  V30 51 1 2 51
M  V30 52 1 3 52
M  V30 53 1 3 53
M  V30 54 1 4 54
M  V30 55 1 4 55
M  V30 56 1 7 56
M  V30 57 1 8 57 CFG=1
M  V30 58 1 9 58
M  V30 59 1 9 59
M  V30 60 1 12 60
M  V30 61 1 12 61
M  V30 62 1 13 62 CFG=3
M  V30 63 1 14 63
M  V30 64 1 17 64
M  V30 65 1 17 65
M  V30 66 1 18 66
M  V30 67 1 18 67
M  V30 68 1 19 68 CFG=3
M  V30 69 1 20 69
M  V30 70 1 20 70
M  V30 71 1 22 71
M  V30 72 1 26 72
M  V30 73 1 27 73
M  V30 74 1 27 74
M  V30 75 1 30 75
M  V30 76 1 31 76
M  V30 77 1 31 77
M  V30 78 1 32 78
M  V30 79 1 32 79
M  V30 80 1 33 80
M  V30 81 1 33 81
M  V30 82 1 34 82
M  V30 83 1 35 83
M  V30 84 1 35 84
M  V30 85 1 36 85
M  V30 86 1 36 86
M  V30 87 1 37 87
M  V30 88 1 37 88
M  V30 89 1 38 89
M  V30 90 1 38 90
M  V30 91 1 39 91
M  V30 92 1 42 92
M  V30 93 1 42 93
M  V30 94 1 43 94
M  V30 95 1 47 95
M  V30 END BOND
M  V30 END CTAB
M  END
