
     RDKit          3D

  0  0  0  0  0  0  0  0  0  0999 V3000
M  V30 BEGIN CTAB
M  V30 COUNTS 26 27 0 0 0
M  V30 BEGIN ATOM
M  V30 1 N 5.69107 -1.05545 0.88972 0
M  V30 2 C 4.50159 -0.446064 0.367419 0
M  V30 3 N 3.38697 -0.912425 0.786152 0
M  V30 4 C 2.18319 -0.316702 0.275946 0
M  V30 5 O 2.07237 0.664675 -0.582052 0
M  V30 6 N 0.833315 0.949038 -0.819369 0
M  V30 7 C 0.0809112 0.121134 -0.0876331 0
M  V30 8 N 0.916271 -0.663154 0.591063 0
M  V30 9 C -1.38118 0.134861 -0.085958 0
M  V30 10 C -2.10313 1.01924 -0.853378 0
M  V30 11 C -3.47577 1.02747 -0.8477 0
M  V30 12 C -4.15583 0.130441 -0.0560524 0
M  V30 13 C -3.45235 -0.765648 0.721788 0
M  V30 14 C -2.07456 -0.757977 0.702145 0
M  V30 15 N -5.59016 0.139948 -0.0509064 0 CHG=1
M  V30 16 O -6.20515 0.94759 -0.752261 0
M  V30 17 O -6.23764 -0.757087 0.740535 0 CHG=-1
M  V30 18 N 4.61998 0.617306 -0.564618 0
M  V30 19 H 6.00704 -1.92422 0.432664 0
M  V30 20 H 6.23287 -0.680866 1.67728 0
M  V30 21 H -1.58949 1.73403 -1.48395 0
M  V30 22 H -4.0746 1.71223 -1.44153 0
M  V30 23 H -4.00552 -1.47527 1.34818 0
M  V30 24 H -1.51779 -1.45462 1.30676 0
M  V30 25 H 4.34784 1.58821 -0.328877 0
M  V30 26 H 4.98974 0.423319 -1.51309 0
M  V30 END ATOM
M  V30 BEGIN BOND
M  V30 1 1 1 2
M  V30 2 2 2 3 CFG=2
M  V30 3 1 3 4
M  V30 4 1 4 5
M  V30 5 1 5 6
M  V30 6 2 6 7
M  V30 7 1 7 8
M  V30 8 1 7 9
M  V30 9 2 9 10
M  V30 10 1 10 11
M  V30 11 2 11 12
M  V30 12 1 12 13
M  V30 13 2 13 14
M  V30 14 1 12 15
M  V30 15 2 15 16
M  V30 16 1 15 17
M  V30 17 1 2 18
M  V30 18 2 8 4
M  V30 19 1 14 9
M  V30 20 1 1 19
M  V30 21 1 1 20
M  V30 22 1 10 21
M  V30 23 1 11 22
M  V30 24 1 13 23
M  V30 25 1 14 24
M  V30 26 1 18 25
M  V30 27 1 18 26
M  V30 END BOND
M  V30 END CTAB
M  END
