
     RDKit          3D

  0  0  0  0  0  0  0  0  0  0999 V3000
M  V30 BEGIN CTAB
M  V30 COUNTS 31 32 0 0 0
M  V30 BEGIN ATOM
M  V30 1 N 0.763668 -3.50323 1.63872 0
M  V30 2 C 1.01734 -2.48287 1.12169 0
M  V30 3 C 1.31291 -1.20826 0.498299 0
M  V30 4 C 2.24009 -1.26715 -0.418444 0
M  V30 5 N 2.90986 -2.48125 -0.782255 0
M  V30 6 S 2.78772 0.174167 -1.31743 0
M  V30 7 C 1.9685 1.51487 -0.526124 0
M  V30 8 C 1.08559 1.27988 0.390001 0
M  V30 9 C 0.627188 -0.0343946 0.911059 0
M  V30 10 C -0.831007 0.0198153 0.889966 0
M  V30 11 C -1.45196 0.525821 2.03755 0
M  V30 12 C -2.82509 0.622719 2.15629 0
M  V30 13 C -3.62582 0.212591 1.12119 0
M  V30 14 C -3.00735 -0.279982 0.00397721 0
M  V30 15 C -1.61175 -0.385855 -0.135519 0
M  V30 16 C -0.995861 -0.895583 -1.35683 0
M  V30 17 C 0.478929 2.50419 0.96825 0
M  V30 18 N -0.00598588 3.44642 1.43181 0
M  V30 19 N 2.3317 2.84187 -0.949361 0
M  V30 20 H 3.84901 -2.64328 -0.377091 0
M  V30 21 H 2.50854 -3.18878 -1.41697 0
M  V30 22 H 0.897258 0.0853402 2.03856 0
M  V30 23 H -0.89026 0.875974 2.90635 0
M  V30 24 H -3.2826 1.01925 3.05791 0
M  V30 25 H -4.69049 0.288294 1.21561 0
M  V30 26 H -3.58936 -0.62462 -0.857005 0
M  V30 27 H -0.312082 -0.172421 -1.85178 0
M  V30 28 H -1.84621 -0.910815 -2.1317 0
M  V30 29 H -0.685254 -1.93637 -1.37563 0
M  V30 30 H 3.00867 3.42294 -0.42572 0
M  V30 31 H 1.86412 3.18072 -1.82442 0
M  V30 END ATOM
M  V30 BEGIN BOND
M  V30 1 3 1 2
M  V30 2 1 2 3
M  V30 3 2 3 4
M  V30 4 1 4 5
M  V30 5 1 4 6
M  V30 6 1 6 7
M  V30 7 2 7 8
M  V30 8 1 8 9
M  V30 9 1 9 10
M  V30 10 2 10 11
M  V30 11 1 11 12
M  V30 12 2 12 13
M  V30 13 1 13 14
M  V30 14 2 14 15
M  V30 15 1 15 16
M  V30 16 1 8 17
M  V30 17 3 17 18
M  V30 18 1 7 19
M  V30 19 1 9 3
M  V30 20 1 15 10
M  V30 21 1 5 20
M  V30 22 1 5 21
M  V30 23 1 9 22
M  V30 24 1 11 23
M  V30 25 1 12 24
M  V30 26 1 13 25
M  V30 27 1 14 26
M  V30 28 1 16 27
M  V30 29 1 16 28
M  V30 30 1 16 29
M  V30 31 1 19 30
M  V30 32 1 19 31
M  V30 END BOND
M  V30 END CTAB
M  END
