
     RDKit          3D

  0  0  0  0  0  0  0  0  0  0999 V3000
M  V30 BEGIN CTAB
M  V30 COUNTS 55 57 0 0 0
M  V30 BEGIN ATOM
M  V30 1 C -5.47091 -1.66382 0.682519 0
M  V30 2 C -5.79302 -0.821872 -0.519683 0
M  V30 3 N -5.64857 0.547994 -0.285569 0
M  V30 4 C -6.52517 1.25805 0.540682 0
M  V30 5 C -6.38689 0.899821 1.99538 0
M  V30 6 C -4.97003 1.31182 -1.28569 0
M  V30 7 C -3.49506 0.898187 -1.27256 0
M  V30 8 C -2.85994 1.17091 0.0476108 0
M  V30 9 N -1.48601 0.795967 0.0371623 0
M  V30 10 C -0.953835 -0.497923 -0.170755 0
M  V30 11 O -1.73347 -1.45459 -0.366193 0
M  V30 12 C 0.488344 -0.736746 -0.160351 0
M  V30 13 N 1.31873 0.328434 0.0399504 0
M  V30 14 C 2.64389 0.232694 0.069907 0
M  V30 15 C 3.21529 -1.01343 -0.11229 0
M  V30 16 N 2.4154 -2.09357 -0.314594 0
M  V30 17 C 1.07068 -1.96836 -0.339851 0
M  V30 18 N 0.225915 -3.10318 -0.549393 0
M  V30 19 N 4.54059 -1.09285 -0.0772185 0
M  V30 20 C 5.35854 -0.0556371 0.12105 0
M  V30 21 N 4.78314 1.16237 0.29734 0
M  V30 22 C 3.46041 1.34405 0.279057 0
M  V30 23 N 2.84493 2.60708 0.460024 0
M  V30 24 C 6.8122 -0.189582 0.157006 0
M  V30 25 C 7.67032 0.859033 0.366241 0
M  V30 26 C 9.03537 0.721632 0.403319 0
M  V30 27 C 9.59808 -0.542156 0.221173 0
M  V30 28 C 8.75126 -1.60268 0.0105564 0
M  V30 29 C 7.37232 -1.42568 -0.0212334 0
M  V30 30 H -4.51682 -1.38362 1.18951 0
M  V30 31 H -6.25462 -1.70021 1.45228 0
M  V30 32 H -5.28431 -2.73071 0.356844 0
M  V30 33 H -6.87112 -1.09416 -0.788223 0
M  V30 34 H -5.16578 -1.1805 -1.38067 0
M  V30 35 H -6.32301 2.37238 0.452351 0
M  V30 36 H -7.59797 1.17748 0.225196 0
M  V30 37 H -5.41302 0.476784 2.28278 0
M  V30 38 H -6.4829 1.82725 2.63343 0
M  V30 39 H -7.21709 0.237685 2.35409 0
M  V30 40 H -5.34364 1.03591 -2.30531 0
M  V30 41 H -5.08762 2.39047 -1.19771 0
M  V30 42 H -3.40776 -0.170809 -1.51142 0
M  V30 43 H -2.93149 1.46528 -2.04899 0
M  V30 44 H -2.92083 2.27475 0.255558 0
M  V30 45 H -3.40543 0.700459 0.898793 0
M  V30 46 H -0.737648 1.54983 0.199662 0
M  V30 47 H -0.00770201 -3.38368 -1.52611 0
M  V30 48 H -0.177428 -3.67615 0.218089 0
M  V30 49 H 2.21854 2.9861 -0.271481 0
M  V30 50 H 3.01338 3.15671 1.3138 0
M  V30 51 H 7.26271 1.8556 0.511375 0
M  V30 52 H 9.7352 1.52952 0.566294 0
M  V30 53 H 10.6731 -0.668415 0.247936 0
M  V30 54 H 9.17495 -2.59538 -0.134803 0
M  V30 55 H 6.78578 -2.32852 -0.194174 0
M  V30 END ATOM
M  V30 BEGIN BOND
M  V30 1 1 1 2
M  V30 2 1 2 3
M  V30 3 1 3 4
M  V30 4 1 4 5
M  V30 5 1 3 6
M  V30 6 1 6 7
M  V30 7 1 7 8
M  V30 8 1 8 9
M  V30 9 1 9 10
M  V30 10 2 10 11
M  V30 11 1 10 12
M  V30 12 2 12 13
M  V30 13 1 13 14
M  V30 14 2 14 15
M  V30 15 1 15 16
M  V30 16 2 16 17
M  V30 17 1 17 18
M  V30 18 1 15 19
M  V30 19 2 19 20
M  V30 20 1 20 21
M  V30 21 2 21 22
M  V30 22 1 22 23
M  V30 23 1 20 24
M  V30 24 2 24 25
M  V30 25 1 25 26
M  V30 26 2 26 27
M  V30 27 1 27 28
M  V30 28 2 28 29
M  V30 29 1 17 12
M  V30 30 1 29 24
M  V30 31 1 22 14
M  V30 32 1 1 30
M  V30 33 1 1 31
M  V30 34 1 1 32
M  V30 35 1 2 33
M  V30 36 1 2 34
M  V30 37 1 4 35
M  V30 38 1 4 36
M  V30 39 1 5 37
M  V30 40 1 5 38
M  V30 41 1 5 39
M  V30 42 1 6 40
M  V30 43 1 6 41
M  V30 44 1 7 42
M  V30 45 1 7 43
M  V30 46 1 8 44
M  V30 47 1 8 45
M  V30 48 1 9 46
M  V30 49 1 18 47
M  V30 50 1 18 48
M  V30 51 1 23 49
M  V30 52 1 23 50
M  V30 53 1 25 51
M  V30 54 1 26 52
M  V30 55 1 27 53
M  V30 56 1 28 54
M  V30 57 1 29 55
M  V30 END BOND
M  V30 END CTAB
M  END
