
     RDKit          3D

  0  0  0  0  0  0  0  0  0  0999 V3000
M  V30 BEGIN CTAB
M  V30 COUNTS 55 59 0 0 0
M  V30 BEGIN ATOM
M  V30 1 N -2.68206 2.45855 -1.08292 0
M  V30 2 C -2.3065 1.45967 -0.641604 0
M  V30 3 C -1.91956 0.223526 -0.0637826 0
M  V30 4 C -2.97263 -0.682451 0.225913 0
M  V30 5 N -2.71637 -1.81655 0.882688 0
M  V30 6 C -1.49995 -2.16136 1.29628 0
M  V30 7 C -0.429329 -1.32725 1.04658 0
M  V30 8 C -0.670683 -0.115131 0.344766 0
M  V30 9 C 0.399784 0.6919 0.112035 0
M  V30 10 C 0.583704 1.92576 -0.620919 0
M  V30 11 O 0.0520514 2.45707 -1.5508 0
M  V30 12 C 1.78606 2.55372 0.0892158 0
M  V30 13 N 2.59348 1.28752 0.174065 0
M  V30 14 C 1.67075 0.301278 0.58956 0
M  V30 15 N 1.84292 -0.844579 1.25238 0
M  V30 16 C 0.825641 -1.67754 1.49495 0
M  V30 17 N 1.02897 -2.8911 2.19674 0
M  V30 18 C 3.9447 1.18323 -0.108437 0
M  V30 19 C 4.76345 2.26591 -0.390578 0
M  V30 20 C 6.11073 2.15613 -0.683281 0
M  V30 21 C 6.68706 0.904157 -0.698564 0
M  V30 22 C 5.91684 -0.197493 -0.425346 0
M  V30 23 C 4.55767 -0.0627098 -0.132908 0
M  V30 24 O 8.0314 0.737714 -0.986033 0
M  V30 25 C 8.59062 -0.585448 -1.00035 0
M  V30 26 N -1.28637 -3.3859 1.99472 0
M  V30 27 N -4.29336 -0.331166 -0.157771 0
M  V30 28 C -5.07313 0.523941 0.712307 0
M  V30 29 C -6.56124 0.123201 0.6033 0
M  V30 30 C -6.98552 0.550195 -0.779732 0
M  V30 31 C -5.97675 0.275703 -1.83879 0
M  V30 32 C -4.94637 -0.73932 -1.3815 0
M  V30 33 H 2.33538 3.22147 -0.541744 0
M  V30 34 H 1.54569 2.95386 1.05552 0
M  V30 35 H 0.96124 -3.01518 3.23177 0
M  V30 36 H 1.27243 -3.74468 1.64944 0
M  V30 37 H 4.35532 3.26584 -0.390188 0
M  V30 38 H 6.74409 3.00704 -0.903878 0
M  V30 39 H 6.37898 -1.19468 -0.43868 0
M  V30 40 H 4.04747 -0.992287 0.060848 0
M  V30 41 H 8.06116 -1.16494 -1.81612 0
M  V30 42 H 8.46177 -1.07344 -0.0272006 0
M  V30 43 H 9.63444 -0.536187 -1.32357 0
M  V30 44 H -1.04759 -4.23226 1.46542 0
M  V30 45 H -1.37525 -3.42051 3.0235 0
M  V30 46 H -4.9763 1.59064 0.542931 0
M  V30 47 H -4.77158 0.279992 1.76608 0
M  V30 48 H -7.11748 0.686435 1.35984 0
M  V30 49 H -6.68317 -0.9643 0.769829 0
M  V30 50 H -7.98687 0.0976175 -1.00189 0
M  V30 51 H -7.20804 1.66131 -0.68934 0
M  V30 52 H -5.50277 1.22939 -2.14614 0
M  V30 53 H -6.50211 -0.144036 -2.74208 0
M  V30 54 H -5.47789 -1.68406 -1.18142 0
M  V30 55 H -4.21493 -0.952033 -2.1951 0
M  V30 END ATOM
M  V30 BEGIN BOND
M  V30 1 3 1 2
M  V30 2 1 2 3
M  V30 3 2 3 4
M  V30 4 1 4 5
M  V30 5 2 5 6
M  V30 6 1 6 7
M  V30 7 2 7 8
M  V30 8 1 8 9
M  V30 9 1 9 10
M  V30 10 2 10 11
M  V30 11 1 10 12
M  V30 12 1 12 13
M  V30 13 1 13 14
M  V30 14 1 14 15
M  V30 15 2 15 16
M  V30 16 1 16 17
M  V30 17 1 13 18
M  V30 18 2 18 19
M  V30 19 1 19 20
M  V30 20 2 20 21
M  V30 21 1 21 22
M  V30 22 2 22 23
M  V30 23 1 21 24
M  V30 24 1 24 25
M  V30 25 1 6 26
M  V30 26 1 4 27
M  V30 27 1 27 28
M  V30 28 1 28 29
M  V30 29 1 29 30
M  V30 30 1 30 31
M  V30 31 1 31 32
M  V30 32 1 8 3
M  V30 33 2 14 9
M  V30 34 1 23 18
M  V30 35 1 32 27
M  V30 36 1 16 7
M  V30 37 1 12 33
M  V30 38 1 12 34
M  V30 39 1 17 35
M  V30 40 1 17 36
M  V30 41 1 19 37
M  V30 42 1 20 38
M  V30 43 1 22 39
M  V30 44 1 23 40
M  V30 45 1 25 41
M  V30 46 1 25 42
M  V30 47 1 25 43
M  V30 48 1 26 44
M  V30 49 1 26 45
M  V30 50 1 28 46
M  V30 51 1 28 47
M  V30 52 1 29 48
M  V30 53 1 29 49
M  V30 54 1 30 50
M  V30 55 1 30 51
M  V30 56 1 31 52
M  V30 57 1 31 53
M  V30 58 1 32 54
M  V30 59 1 32 55
M  V30 END BOND
M  V30 END CTAB
M  END
