
     RDKit          3D

  0  0  0  0  0  0  0  0  0  0999 V3000
M  V30 BEGIN CTAB
M  V30 COUNTS 24 24 0 0 0
M  V30 BEGIN ATOM
M  V30 1 N 4.43445 -0.550941 0.521036 0
M  V30 2 C 3.1019 -0.0629775 0.383789 0
M  V30 3 N 2.73836 1.13945 -0.0606691 0
M  V30 4 C 1.48898 1.44933 -0.143805 0
M  V30 5 C 0.570526 0.523853 0.231651 0
M  V30 6 S 1.56548 -0.780281 0.701506 0
M  V30 7 C -0.910333 0.674966 0.17183 0
M  V30 8 C -1.6131 -0.501241 0.784994 0
M  V30 9 N -3.04712 -0.226891 0.63763 0
M  V30 10 C -1.27826 -1.82845 0.208839 0
M  V30 11 F -1.20169 1.76321 0.980502 0
M  V30 12 C -1.32531 0.970399 -1.23572 0
M  V30 13 H 4.8238 -1.10175 -0.262527 0
M  V30 14 H 4.99923 -0.363639 1.35463 0
M  V30 15 H 1.18031 2.46338 -0.499719 0
M  V30 16 H -1.42805 -0.469027 1.89343 0
M  V30 17 H -3.15656 0.816339 0.793143 0
M  V30 18 H -3.22407 -0.334639 -0.411099 0
M  V30 19 H -2.18274 -2.43967 -0.0391633 0
M  V30 20 H -0.636004 -1.77091 -0.696513 0
M  V30 21 H -0.752087 -2.43316 1.01472 0
M  V30 22 H -2.29667 1.48975 -1.30406 0
M  V30 23 H -1.32381 -0.0171229 -1.79377 0
M  V30 24 H -0.527212 1.59 -1.7311 0
M  V30 END ATOM
M  V30 BEGIN BOND
M  V30 1 1 1 2
M  V30 2 2 2 3
M  V30 3 1 3 4
M  V30 4 2 4 5
M  V30 5 1 5 6
M  V30 6 1 5 7
M  V30 7 1 7 8
M  V30 8 1 8 9
M  V30 9 1 8 10
M  V30 10 1 7 11
M  V30 11 1 7 12
M  V30 12 1 6 2
M  V30 13 1 1 13
M  V30 14 1 1 14
M  V30 15 1 4 15
M  V30 16 1 8 16
M  V30 17 1 9 17
M  V30 18 1 9 18
M  V30 19 1 10 19
M  V30 20 1 10 20
M  V30 21 1 10 21
M  V30 22 1 12 22
M  V30 23 1 12 23
M  V30 24 1 12 24
M  V30 END BOND
M  V30 END CTAB
M  END
