
     RDKit          3D

  0  0  0  0  0  0  0  0  0  0999 V3000
M  V30 BEGIN CTAB
M  V30 COUNTS 28 28 0 0 0
M  V30 BEGIN ATOM
M  V30 1 N 3.60427 -0.242695 0.552809 0
M  V30 2 C 2.16506 -0.274809 0.793302 0
M  V30 3 C 1.48894 0.251017 -0.425663 0
M  V30 4 C -0.00598652 0.27591 -0.319306 0
M  V30 5 C -0.598021 -1.09559 -0.0877044 0
M  V30 6 C -2.06744 -0.952808 -0.474069 0
M  V30 7 C -2.74374 0.0660933 0.370856 0
M  V30 8 C -1.99101 1.32816 0.581351 0
M  V30 9 C -0.514255 1.14353 0.796697 0
M  V30 10 F -3.93276 0.417964 -0.289575 0
M  V30 11 F -3.15142 -0.534007 1.55333 0
M  V30 12 N 1.8205 -0.565018 -1.59458 0
M  V30 13 H 4.08311 0.349444 1.26246 0
M  V30 14 H 3.83021 0.0259873 -0.430575 0
M  V30 15 H 1.90115 -1.32219 0.977691 0
M  V30 16 H 1.88545 0.375203 1.65302 0
M  V30 17 H 1.8227 1.28612 -0.64167 0
M  V30 18 H -0.40287 0.711646 -1.27055 0
M  V30 19 H -0.58661 -1.32588 0.998953 0
M  V30 20 H -0.100418 -1.88986 -0.635678 0
M  V30 21 H -2.08711 -0.600573 -1.54036 0
M  V30 22 H -2.58755 -1.92099 -0.370946 0
M  V30 23 H -2.10312 1.95985 -0.346573 0
M  V30 24 H -2.43909 1.85479 1.45834 0
M  V30 25 H -0.0307382 2.12275 0.84871 0
M  V30 26 H -0.375759 0.63716 1.77093 0
M  V30 27 H 1.02771 -0.545554 -2.2715 0
M  V30 28 H 2.08879 -1.53565 -1.32137 0
M  V30 END ATOM
M  V30 BEGIN BOND
M  V30 1 1 1 2
M  V30 2 1 2 3
M  V30 3 1 3 4
M  V30 4 1 4 5
M  V30 5 1 5 6
M  V30 6 1 6 7
M  V30 7 1 7 8
M  V30 8 1 8 9
M  V30 9 1 7 10
M  V30 10 1 7 11
M  V30 11 1 3 12
M  V30 12 1 9 4
M  V30 13 1 1 13
M  V30 14 1 1 14
M  V30 15 1 2 15
M  V30 16 1 2 16
M  V30 17 1 3 17
M  V30 18 1 4 18
M  V30 19 1 5 19
M  V30 20 1 5 20
M  V30 21 1 6 21
M  V30 22 1 6 22
M  V30 23 1 8 23
M  V30 24 1 8 24
M  V30 25 1 9 25
M  V30 26 1 9 26
M  V30 27 1 12 27
M  V30 28 1 12 28
M  V30 END BOND
M  V30 END CTAB
M  END
