
     RDKit          3D

  0  0  0  0  0  0  0  0  0  0999 V3000
M  V30 BEGIN CTAB
M  V30 COUNTS 31 33 0 0 0
M  V30 BEGIN ATOM
M  V30 1 N -5.35406 2.22604 0.00743717 0
M  V30 2 C -4.23291 1.36524 -0.0435987 0
M  V30 3 N -2.97765 1.83466 0.0758664 0
M  V30 4 C -1.88538 1.05032 0.0328346 0
M  V30 5 C -0.611436 1.59509 0.162501 0
M  V30 6 C 0.447294 0.721463 0.106821 0
M  V30 7 C 0.281925 -0.637096 -0.068707 0
M  V30 8 O 1.38245 -1.47926 -0.118458 0
M  V30 9 C 2.65539 -0.950996 0.00912968 0
M  V30 10 C 3.2743 -0.812171 1.2244 0
M  V30 11 C 4.54058 -0.288979 1.37386 0
M  V30 12 Cl 5.24065 -0.154586 2.96966 0
M  V30 13 C 5.20802 0.111477 0.234211 0
M  V30 14 C 4.63155 -0.00631624 -1.01024 0
M  V30 15 Cl 5.53033 0.518955 -2.40829 0
M  V30 16 C 3.36473 -0.533666 -1.12131 0
M  V30 17 C -0.997184 -1.15525 -0.195347 0
M  V30 18 C -2.0928 -0.301921 -0.143977 0
M  V30 19 C -3.36577 -0.817606 -0.270012 0
M  V30 20 N -3.56717 -2.21853 -0.452529 0
M  V30 21 N -4.40369 0.0238703 -0.217274 0
M  V30 22 H -5.78633 2.53277 -0.882375 0
M  V30 23 H -5.76601 2.56634 0.894163 0
M  V30 24 H -0.462597 2.64503 0.29919 0
M  V30 25 H 1.48924 1.066 0.200424 0
M  V30 26 H 2.73594 -1.13036 2.09662 0
M  V30 27 H 6.2169 0.529248 0.344199 0
M  V30 28 H 2.87616 -0.64359 -2.07742 0
M  V30 29 H -1.12598 -2.22614 -0.33363 0
M  V30 30 H -3.22119 -2.62257 -1.36167 0
M  V30 31 H -4.02531 -2.80746 0.262417 0
M  V30 END ATOM
M  V30 BEGIN BOND
M  V30 1 1 1 2
M  V30 2 2 2 3
M  V30 3 1 3 4
M  V30 4 2 4 5
M  V30 5 1 5 6
M  V30 6 2 6 7
M  V30 7 1 7 8
M  V30 8 1 8 9
M  V30 9 2 9 10
M  V30 10 1 10 11
M  V30 11 1 11 12
M  V30 12 2 11 13
M  V30 13 1 13 14
M  V30 14 1 14 15
M  V30 15 2 14 16
M  V30 16 1 7 17
M  V30 17 2 17 18
M  V30 18 1 18 19
M  V30 19 1 19 20
M  V30 20 2 19 21
M  V30 21 1 21 2
M  V30 22 1 18 4
M  V30 23 1 16 9
M  V30 24 1 1 22
M  V30 25 1 1 23
M  V30 26 1 5 24
M  V30 27 1 6 25
M  V30 28 1 10 26
M  V30 29 1 13 27
M  V30 30 1 16 28
M  V30 31 1 17 29
M  V30 32 1 20 30
M  V30 33 1 20 31
M  V30 END BOND
M  V30 END CTAB
M  END
