
     RDKit          3D

  0  0  0  0  0  0  0  0  0  0999 V3000
M  V30 BEGIN CTAB
M  V30 COUNTS 30 29 0 0 0
M  V30 BEGIN ATOM
M  V30 1 C 0.427032 -0.0365186 1.37613 0
M  V30 2 C 0.257591 0.162547 -0.111625 0
M  V30 3 C -1.07436 -0.334486 -0.532448 0
M  V30 4 C -2.2773 0.2787 0.0498813 0
M  V30 5 O -2.26851 1.662 -0.258846 0
M  V30 6 C -2.6242 -0.0100361 1.45699 0
M  V30 7 C -3.47125 -0.246971 -0.790465 0
M  V30 8 N 1.32384 -0.596217 -0.738147 0
M  V30 9 C 2.66022 -0.269257 -0.432655 0
M  V30 10 N 3.58888 -1.17037 -0.296583 0
M  V30 11 N 4.91327 -0.859837 0.00526618 0
M  V30 12 N 3.08573 1.08878 -0.250634 0
M  V30 13 H -0.116637 0.667467 2.00285 0
M  V30 14 H 1.50889 0.0883384 1.67578 0
M  V30 15 H 0.197023 -1.07994 1.68131 0
M  V30 16 H 0.449847 1.21973 -0.404498 0
M  V30 17 H -1.13321 -0.198308 -1.65656 0
M  V30 18 H -1.14264 -1.46049 -0.434362 0
M  V30 19 H -3.11213 2.04773 0.115605 0
M  V30 20 H -3.73626 -0.194631 1.59823 0
M  V30 21 H -2.47814 0.947721 2.04256 0
M  V30 22 H -2.14309 -0.858823 1.93459 0
M  V30 23 H -4.34138 0.415755 -0.636359 0
M  V30 24 H -3.75386 -1.24286 -0.387897 0
M  V30 25 H -3.17506 -0.346112 -1.84676 0
M  V30 26 H 1.10325 -1.3626 -1.3966 0
M  V30 27 H 5.19312 -0.617085 0.977361 0
M  V30 28 H 5.68173 -0.853512 -0.711131 0
M  V30 29 H 3.48503 1.44002 0.641169 0
M  V30 30 H 2.97259 1.71928 -1.07346 0
M  V30 END ATOM
M  V30 BEGIN BOND
M  V30 1 1 1 2
M  V30 2 1 2 3
M  V30 3 1 3 4
M  V30 4 1 4 5
M  V30 5 1 4 6
M  V30 6 1 4 7
M  V30 7 1 2 8
M  V30 8 1 8 9
M  V30 9 2 9 10 CFG=2
M  V30 10 1 10 11
M  V30 11 1 9 12
M  V30 12 1 1 13
M  V30 13 1 1 14
M  V30 14 1 1 15
M  V30 15 1 2 16
M  V30 16 1 3 17
M  V30 17 1 3 18
M  V30 18 1 5 19
M  V30 19 1 6 20
M  V30 20 1 6 21
M  V30 21 1 6 22
M  V30 22 1 7 23
M  V30 23 1 7 24
M  V30 24 1 7 25
M  V30 25 1 8 26
M  V30 26 1 11 27
M  V30 27 1 11 28
M  V30 28 1 12 29
M  V30 29 1 12 30
M  V30 END BOND
M  V30 END CTAB
M  END
