
     RDKit          3D

  0  0  0  0  0  0  0  0  0  0999 V3000
M  V30 BEGIN CTAB
M  V30 COUNTS 20 20 0 0 0
M  V30 BEGIN ATOM
M  V30 1 N 5.1747 -0.383953 0.216398 0
M  V30 2 C 4.02733 -0.419621 0.0736011 0
M  V30 3 C 2.60353 -0.447332 -0.0951272 0
M  V30 4 C 1.91069 0.429938 -0.917884 0
M  V30 5 C 0.536391 0.411482 -1.06347 0
M  V30 6 C -0.173504 -0.533819 -0.34739 0
M  V30 7 C 0.462476 -1.44491 0.495646 0
M  V30 8 C 1.82254 -1.36554 0.58783 0
M  V30 9 F -0.230044 -2.37208 1.1965 0
M  V30 10 N -1.57864 -0.580955 -0.41633 0
M  V30 11 C -2.33408 0.399405 -0.0818605 0
M  V30 12 N -1.73843 1.60098 0.382768 0
M  V30 13 N -3.72773 0.194117 -0.19655 0
M  V30 14 H 2.46346 1.15394 -1.4686 0
M  V30 15 H -0.00786954 1.08966 -1.70436 0
M  V30 16 H 2.36543 -2.06981 1.24381 0
M  V30 17 H -1.90212 2.4489 -0.190105 0
M  V30 18 H -1.17368 1.65216 1.24319 0
M  V30 19 H -4.21826 0.23534 -1.11533 0
M  V30 20 H -4.28218 0.00209524 0.652962 0
M  V30 END ATOM
M  V30 BEGIN BOND
M  V30 1 3 1 2
M  V30 2 1 2 3
M  V30 3 2 3 4
M  V30 4 1 4 5
M  V30 5 2 5 6
M  V30 6 1 6 7
M  V30 7 2 7 8
M  V30 8 1 7 9
M  V30 9 1 6 10
M  V30 10 2 10 11 CFG=2
M  V30 11 1 11 12
M  V30 12 1 11 13
M  V30 13 1 8 3
M  V30 14 1 4 14
M  V30 15 1 5 15
M  V30 16 1 8 16
M  V30 17 1 12 17
M  V30 18 1 12 18
M  V30 19 1 13 19
M  V30 20 1 13 20
M  V30 END BOND
M  V30 END CTAB
M  END
