
     RDKit          3D

  0  0  0  0  0  0  0  0  0  0999 V3000
M  V30 BEGIN CTAB
M  V30 COUNTS 23 23 0 0 0
M  V30 BEGIN ATOM
M  V30 1 F -1.10704 3.6199 0.878875 0
M  V30 2 C -1.43666 2.43249 0.291154 0
M  V30 3 O -0.887434 1.31132 0.968415 0
M  V30 4 C -0.371556 0.194765 0.379341 0
M  V30 5 C -1.29729 -0.817787 0.0855923 0
M  V30 6 N -2.67801 -0.641543 0.409679 0
M  V30 7 C -0.938526 -2.00605 -0.510461 0
M  V30 8 C 0.386168 -2.2014 -0.828438 0
M  V30 9 C 1.31087 -1.22379 -0.5492 0
M  V30 10 C 0.93999 -0.0147147 0.0591167 0
M  V30 11 C 1.9872 0.950104 0.339582 0
M  V30 12 O 3.1846 0.654854 0.0113796 0
M  V30 13 O 1.79882 2.175 0.940501 0
M  V30 14 N 2.68178 -1.44094 -0.885216 0
M  V30 15 F -2.84752 2.36808 0.371059 0
M  V30 16 H -1.15643 2.46383 -0.77919 0
M  V30 17 H -3.38234 -0.770029 -0.350093 0
M  V30 18 H -3.01566 -0.392798 1.36009 0
M  V30 19 H -1.65663 -2.78186 -0.734108 0
M  V30 20 H 0.715225 -3.13977 -1.30778 0
M  V30 21 H 1.38036 2.31686 1.84985 0
M  V30 22 H 3.10986 -1.08356 -1.76259 0
M  V30 23 H 3.28023 -1.97298 -0.237553 0
M  V30 END ATOM
M  V30 BEGIN BOND
M  V30 1 1 1 2
M  V30 2 1 2 3
M  V30 3 1 3 4
M  V30 4 2 4 5
M  V30 5 1 5 6
M  V30 6 1 5 7
M  V30 7 2 7 8
M  V30 8 1 8 9
M  V30 9 2 9 10
M  V30 10 1 10 11
M  V30 11 2 11 12
M  V30 12 1 11 13
M  V30 13 1 9 14
M  V30 14 1 2 15
M  V30 15 1 10 4
M  V30 16 1 2 16
M  V30 17 1 6 17
M  V30 18 1 6 18
M  V30 19 1 7 19
M  V30 20 1 8 20
M  V30 21 1 13 21
M  V30 22 1 14 22
M  V30 23 1 14 23
M  V30 END BOND
M  V30 END CTAB
M  END
