
     RDKit          3D

  0  0  0  0  0  0  0  0  0  0999 V3000
M  V30 BEGIN CTAB
M  V30 COUNTS 41 43 0 0 0
M  V30 BEGIN ATOM
M  V30 1 C 6.0651 1.8762 0.148555 0
M  V30 2 C 4.75239 1.16913 0.146883 0
M  V30 3 C 4.5365 0.161844 1.07503 0
M  V30 4 C 3.31208 -0.470176 1.04201 0
M  V30 5 C 2.33279 -0.122908 0.127295 0
M  V30 6 C 2.57692 0.892709 -0.793559 0
M  V30 7 C 3.78334 1.52361 -0.769546 0
M  V30 8 C 1.05248 -0.830416 0.142297 0
M  V30 9 C 0.941416 -2.05744 -0.491498 0
M  V30 10 C 2.07505 -2.64052 -1.16545 0
M  V30 11 N 2.99295 -3.10021 -1.71668 0
M  V30 12 C -0.261809 -2.7313 -0.478993 0
M  V30 13 N -0.334702 -3.98627 -1.14022 0
M  V30 14 N -1.33739 -2.19737 0.15143 0
M  V30 15 C -1.27516 -1.01054 0.77898 0
M  V30 16 S -2.71096 -0.368119 1.58415 0
M  V30 17 C -3.7143 0.635607 0.499783 0
M  V30 18 C -3.51564 1.98592 0.38474 0
M  V30 19 C -4.31192 2.71146 -0.458519 0
M  V30 20 C -5.32454 2.10729 -1.20609 0
M  V30 21 C -5.4854 0.744703 -1.05576 0
M  V30 22 C -4.70018 -0.0151493 -0.214813 0
M  V30 23 N -4.92799 -1.42682 -0.110772 0
M  V30 24 C -0.072427 -0.337855 0.765889 0
M  V30 25 C 0.0230225 0.916144 1.41958 0
M  V30 26 N 0.102478 1.93485 1.95507 0
M  V30 27 H 6.44848 1.92332 1.20869 0
M  V30 28 H 6.77387 1.30177 -0.448865 0
M  V30 29 H 5.94914 2.92696 -0.191744 0
M  V30 30 H 5.32783 -0.0795251 1.77462 0
M  V30 31 H 3.15208 -1.26528 1.77959 0
M  V30 32 H 1.76521 1.1043 -1.47434 0
M  V30 33 H 3.94494 2.32188 -1.50611 0
M  V30 34 H 0.507242 -4.61522 -1.23762 0
M  V30 35 H -1.21574 -4.35932 -1.56466 0
M  V30 36 H -2.74254 2.45424 0.954647 0
M  V30 37 H -4.19406 3.79827 -0.585921 0
M  V30 38 H -5.92339 2.71305 -1.8542 0
M  V30 39 H -6.26424 0.248553 -1.62033 0
M  V30 40 H -4.36836 -2.13938 -0.594472 0
M  V30 41 H -5.73453 -1.69801 0.516623 0
M  V30 END ATOM
M  V30 BEGIN BOND
M  V30 1 1 1 2
M  V30 2 2 2 3
M  V30 3 1 3 4
M  V30 4 2 4 5
M  V30 5 1 5 6
M  V30 6 2 6 7
M  V30 7 1 5 8
M  V30 8 2 8 9
M  V30 9 1 9 10
M  V30 10 3 10 11
M  V30 11 1 9 12
M  V30 12 1 12 13
M  V30 13 2 12 14
M  V30 14 1 14 15
M  V30 15 1 15 16
M  V30 16 1 16 17
M  V30 17 2 17 18
M  V30 18 1 18 19
M  V30 19 2 19 20
M  V30 20 1 20 21
M  V30 21 2 21 22
M  V30 22 1 22 23
M  V30 23 2 15 24
M  V30 24 1 24 25
M  V30 25 3 25 26
M  V30 26 1 7 2
M  V30 27 1 24 8
M  V30 28 1 22 17
M  V30 29 1 1 27
M  V30 30 1 1 28
M  V30 31 1 1 29
M  V30 32 1 3 30
M  V30 33 1 4 31
M  V30 34 1 6 32
M  V30 35 1 7 33
M  V30 36 1 13 34
M  V30 37 1 13 35
M  V30 38 1 18 36
M  V30 39 1 19 37
M  V30 40 1 20 38
M  V30 41 1 21 39
M  V30 42 1 23 40
M  V30 43 1 23 41
M  V30 END BOND
M  V30 END CTAB
M  END
