
     RDKit          3D

  0  0  0  0  0  0  0  0  0  0999 V3000
M  V30 BEGIN CTAB
M  V30 COUNTS 38 40 0 0 0
M  V30 BEGIN ATOM
M  V30 1 C 0.127722 -2.83285 0.877877 0
M  V30 2 C 0.970864 -1.66143 0.526471 0
M  V30 3 C 2.36229 -1.77916 0.572317 0
M  V30 4 C 3.14257 -0.674863 0.240949 0
M  V30 5 C 2.55042 0.499271 -0.121518 0
M  V30 6 C 1.17588 0.576171 -0.154787 0
M  V30 7 C 0.355892 -0.486635 0.163638 0
M  V30 8 N -1.05305 -0.426111 0.135106 0
M  V30 9 C -1.7676 0.770489 -0.235075 0
M  V30 10 C -3.2333 0.548832 -0.177937 0
M  V30 11 C -3.85603 0.0864603 -1.32308 0
M  V30 12 C -5.20292 -0.155697 -1.39274 0
M  V30 13 C -5.97366 0.0708663 -0.272903 0
M  V30 14 C -5.35533 0.533506 0.875376 0
M  V30 15 C -4.00324 0.773636 0.935892 0
M  V30 16 C 3.35566 1.578 -0.444916 0
M  V30 17 N 2.69614 2.78449 -0.817731 0
M  V30 18 N 4.69541 1.46566 -0.401091 0
M  V30 19 C 5.28964 0.291816 -0.0386931 0
M  V30 20 N 6.69388 0.191738 0.00184701 0
M  V30 21 N 4.48311 -0.736225 0.269228 0
M  V30 22 H 0.771493 -3.7371 1.01826 0
M  V30 23 H -0.555177 -3.07305 0.0471203 0
M  V30 24 H -0.398679 -2.68866 1.84274 0
M  V30 25 H 2.85687 -2.69612 0.85562 0
M  V30 26 H 0.697711 1.49332 -0.438026 0
M  V30 27 H -1.59866 -1.27123 0.389051 0
M  V30 28 H -1.5486 1.59123 0.497165 0
M  V30 29 H -1.52917 1.11733 -1.25274 0
M  V30 30 H -3.28371 -0.109327 -2.24212 0
M  V30 31 H -5.70591 -0.516307 -2.27687 0
M  V30 32 H -7.0492 -0.116801 -0.310406 0
M  V30 33 H -5.95562 0.711236 1.75158 0
M  V30 34 H -3.53369 1.13663 1.84494 0
M  V30 35 H 1.96807 2.78446 -1.56662 0
M  V30 36 H 2.99239 3.64606 -0.294802 0
M  V30 37 H 7.24203 0.131352 -0.866565 0
M  V30 38 H 7.17551 0.179001 0.911133 0
M  V30 END ATOM
M  V30 BEGIN BOND
M  V30 1 1 1 2
M  V30 2 2 2 3
M  V30 3 1 3 4
M  V30 4 2 4 5
M  V30 5 1 5 6
M  V30 6 2 6 7
M  V30 7 1 7 8
M  V30 8 1 8 9
M  V30 9 1 9 10
M  V30 10 2 10 11
M  V30 11 1 11 12
M  V30 12 2 12 13
M  V30 13 1 13 14
M  V30 14 2 14 15
M  V30 15 1 5 16
M  V30 16 1 16 17
M  V30 17 2 16 18
M  V30 18 1 18 19
M  V30 19 1 19 20
M  V30 20 2 19 21
M  V30 21 1 7 2
M  V30 22 1 15 10
M  V30 23 1 21 4
M  V30 24 1 1 22
M  V30 25 1 1 23
M  V30 26 1 1 24
M  V30 27 1 3 25
M  V30 28 1 6 26
M  V30 29 1 8 27
M  V30 30 1 9 28
M  V30 31 1 9 29
M  V30 32 1 11 30
M  V30 33 1 12 31
M  V30 34 1 13 32
M  V30 35 1 14 33
M  V30 36 1 15 34
M  V30 37 1 17 35
M  V30 38 1 17 36
M  V30 39 1 20 37
M  V30 40 1 20 38
M  V30 END BOND
M  V30 END CTAB
M  END
