
     RDKit          3D

  0  0  0  0  0  0  0  0  0  0999 V3000
M  V30 BEGIN CTAB
M  V30 COUNTS 37 37 0 0 0
M  V30 BEGIN ATOM
M  V30 1 C 5.82617 0.260528 0.798692 0
M  V30 2 C 5.33707 -1.14485 0.538974 0
M  V30 3 C 3.83113 -1.19989 0.500936 0
M  V30 4 C 3.2628 -0.314732 -0.589631 0
M  V30 5 C 1.75361 -0.378156 -0.62203 0
M  V30 6 C 1.13037 0.0673515 0.662541 0
M  V30 7 O -0.267489 0.00811035 0.646193 0
M  V30 8 C -1.08439 0.714022 -0.181157 0
M  V30 9 O -0.606275 1.50601 -1.02123 0
M  V30 10 C -2.53536 0.569524 -0.114098 0
M  V30 11 C -3.37548 1.27866 -0.946383 0
M  V30 12 C -4.73606 1.17224 -0.91546 0
M  V30 13 N -5.56705 1.91952 -1.78891 0
M  V30 14 C -5.28901 0.301891 0.00589244 0
M  V30 15 C -4.49035 -0.431848 0.862585 0
M  V30 16 N -5.10892 -1.31205 1.79052 0
M  V30 17 C -3.1274 -0.292494 0.795631 0
M  V30 18 H 5.75551 0.894609 -0.109635 0
M  V30 19 H 5.30115 0.668622 1.66238 0
M  V30 20 H 6.91421 0.192296 1.04382 0
M  V30 21 H 5.65563 -1.76392 1.41052 0
M  V30 22 H 5.81343 -1.53397 -0.371479 0
M  V30 23 H 3.4814 -0.879508 1.50247 0
M  V30 24 H 3.47162 -2.23107 0.340762 0
M  V30 25 H 3.64405 -0.56015 -1.57727 0
M  V30 26 H 3.55525 0.73119 -0.352515 0
M  V30 27 H 1.44766 -1.4406 -0.837225 0
M  V30 28 H 1.39213 0.256842 -1.44394 0
M  V30 29 H 1.47143 1.09623 0.923518 0
M  V30 30 H 1.47361 -0.570375 1.52079 0
M  V30 31 H -2.93827 1.95662 -1.66369 0
M  V30 32 H -6.5927 1.98858 -1.60948 0
M  V30 33 H -5.18538 2.40537 -2.60953 0
M  V30 34 H -6.36918 0.219146 0.0285304 0
M  V30 35 H -4.73917 -1.4558 2.74794 0
M  V30 36 H -5.96827 -1.81644 1.45798 0
M  V30 37 H -2.53749 -0.881503 1.48014 0
M  V30 END ATOM
M  V30 BEGIN BOND
M  V30 1 1 1 2
M  V30 2 1 2 3
M  V30 3 1 3 4
M  V30 4 1 4 5
M  V30 5 1 5 6
M  V30 6 1 6 7
M  V30 7 1 7 8
M  V30 8 2 8 9
M  V30 9 1 8 10
M  V30 10 2 10 11
M  V30 11 1 11 12
M  V30 12 1 12 13
M  V30 13 2 12 14
M  V30 14 1 14 15
M  V30 15 1 15 16
M  V30 16 2 15 17
M  V30 17 1 17 10
M  V30 18 1 1 18
M  V30 19 1 1 19
M  V30 20 1 1 20
M  V30 21 1 2 21
M  V30 22 1 2 22
M  V30 23 1 3 23
M  V30 24 1 3 24
M  V30 25 1 4 25
M  V30 26 1 4 26
M  V30 27 1 5 27
M  V30 28 1 5 28
M  V30 29 1 6 29
M  V30 30 1 6 30
M  V30 31 1 11 31
M  V30 32 1 13 32
M  V30 33 1 13 33
M  V30 34 1 14 34
M  V30 35 1 16 35
M  V30 36 1 16 36
M  V30 37 1 17 37
M  V30 END BOND
M  V30 END CTAB
M  END
