
     RDKit          3D

  0  0  0  0  0  0  0  0  0  0999 V3000
M  V30 BEGIN CTAB
M  V30 COUNTS 36 37 0 0 0
M  V30 BEGIN ATOM
M  V30 1 C -0.0447247 0.398449 -2.83828 0
M  V30 2 C -0.515637 -0.311536 -1.61842 0
M  V30 3 C -0.0253232 0.222663 -0.319431 0
M  V30 4 C 1.45641 0.159896 -0.292233 0
M  V30 5 O 1.97545 -0.825684 0.312114 0
M  V30 6 N 2.2183 1.15463 -0.915043 0
M  V30 7 C 3.65406 1.01138 -0.859899 0
M  V30 8 N 4.63518 1.76831 -1.30317 0
M  V30 9 N 5.83961 1.42603 -1.14307 0
M  V30 10 C 6.13771 0.296047 -0.52434 0
M  V30 11 S 4.5538 -0.294784 -0.157137 0
M  V30 12 C 7.41992 -0.373542 -0.189071 0
M  V30 13 F 7.13054 -1.58193 0.451517 0
M  V30 14 F 8.1459 0.430477 0.660725 0
M  V30 15 F 8.16818 -0.692147 -1.29096 0
M  V30 16 S -0.600858 -0.683569 1.13269 0
M  V30 17 C -2.36278 -0.558196 1.38354 0
M  V30 18 N -3.20013 0.103416 0.56686 0
M  V30 19 C -4.53024 0.216458 0.762331 0
M  V30 20 N -5.387 0.916456 -0.124825 0
M  V30 21 C -5.02923 -0.411518 1.9033 0
M  V30 22 C -4.19678 -1.10746 2.77724 0
M  V30 23 N -2.89059 -1.16342 2.4968 0
M  V30 24 N -4.77628 -1.70639 3.91917 0
M  V30 25 H -0.504876 -0.0719685 -3.7579 0
M  V30 26 H 1.03869 0.386168 -3.01649 0
M  V30 27 H -0.367557 1.47493 -2.89048 0
M  V30 28 H -1.64744 -0.188317 -1.61613 0
M  V30 29 H -0.259169 -1.39313 -1.72215 0
M  V30 30 H -0.37912 1.28949 -0.263023 0
M  V30 31 H 1.83443 1.97231 -1.41334 0
M  V30 32 H -6.3531 0.57045 -0.278399 0
M  V30 33 H -5.085 1.76566 -0.631138 0
M  V30 34 H -6.07889 -0.349792 2.09972 0
M  V30 35 H -4.46684 -1.41715 4.86455 0
M  V30 36 H -5.5066 -2.43031 3.83437 0
M  V30 END ATOM
M  V30 BEGIN BOND
M  V30 1 1 1 2
M  V30 2 1 2 3
M  V30 3 1 3 4
M  V30 4 2 4 5
M  V30 5 1 4 6
M  V30 6 1 6 7
M  V30 7 2 7 8
M  V30 8 1 8 9
M  V30 9 2 9 10
M  V30 10 1 10 11
M  V30 11 1 10 12
M  V30 12 1 12 13
M  V30 13 1 12 14
M  V30 14 1 12 15
M  V30 15 1 3 16
M  V30 16 1 16 17
M  V30 17 2 17 18
M  V30 18 1 18 19
M  V30 19 1 19 20
M  V30 20 2 19 21
M  V30 21 1 21 22
M  V30 22 2 22 23
M  V30 23 1 22 24
M  V30 24 1 11 7
M  V30 25 1 23 17
M  V30 26 1 1 25
M  V30 27 1 1 26
M  V30 28 1 1 27
M  V30 29 1 2 28
M  V30 30 1 2 29
M  V30 31 1 3 30
M  V30 32 1 6 31
M  V30 33 1 20 32
M  V30 34 1 20 33
M  V30 35 1 21 34
M  V30 36 1 24 35
M  V30 37 1 24 36
M  V30 END BOND
M  V30 END CTAB
M  END
