
     RDKit          3D

  0  0  0  0  0  0  0  0  0  0999 V3000
M  V30 BEGIN CTAB
M  V30 COUNTS 19 19 0 0 0
M  V30 BEGIN ATOM
M  V30 1 N -2.61202 -0.484387 -1.00415 0
M  V30 2 C -2.16858 0.282462 0.131613 0
M  V30 3 N -1.01338 0.323333 0.436311 0
M  V30 4 C 0.301687 0.0663901 0.365725 0
M  V30 5 C 1.18821 1.09187 -0.0651594 0
M  V30 6 C 2.54139 0.895588 -0.149276 0
M  V30 7 C 3.08278 -0.332951 0.188026 0
M  V30 8 C 2.27343 -1.37264 0.61259 0
M  V30 9 C 0.934298 -1.13513 0.6842 0
M  V30 10 F 4.40608 -0.544587 0.101975 0
M  V30 11 N -3.21744 0.981074 0.875772 0
M  V30 12 H -2.49591 -0.203862 -1.98879 0
M  V30 13 H -3.09822 -1.39778 -0.795714 0
M  V30 14 H 0.764474 2.04456 -0.322516 0
M  V30 15 H 3.23418 1.67178 -0.45994 0
M  V30 16 H 2.71316 -2.34773 0.878315 0
M  V30 17 H 0.26605 -1.95 1.00191 0
M  V30 18 H -3.98499 1.45844 0.424203 0
M  V30 19 H -3.11518 0.953577 1.90354 0
M  V30 END ATOM
M  V30 BEGIN BOND
M  V30 1 1 1 2
M  V30 2 2 2 3 CFG=2
M  V30 3 1 3 4
M  V30 4 2 4 5
M  V30 5 1 5 6
M  V30 6 2 6 7
M  V30 7 1 7 8
M  V30 8 2 8 9
M  V30 9 1 7 10
M  V30 10 1 2 11
M  V30 11 1 9 4
M  V30 12 1 1 12
M  V30 13 1 1 13
M  V30 14 1 5 14
M  V30 15 1 6 15
M  V30 16 1 8 16
M  V30 17 1 9 17
M  V30 18 1 11 18
M  V30 19 1 11 19
M  V30 END BOND
M  V30 END CTAB
M  END
