
     RDKit          3D

  0  0  0  0  0  0  0  0  0  0999 V3000
M  V30 BEGIN CTAB
M  V30 COUNTS 23 24 0 0 0
M  V30 BEGIN ATOM
M  V30 1 N -2.18605 2.8041 0.494605 0
M  V30 2 C -1.63503 1.51501 0.286739 0
M  V30 3 C -2.51112 0.458273 0.17391 0
M  V30 4 C -2.01545 -0.823169 -0.0304743 0
M  V30 5 N -2.93341 -1.88677 -0.142459 0
M  V30 6 C -0.645714 -0.993208 -0.114145 0
M  V30 7 C 0.242013 0.0474918 -0.00411123 0
M  V30 8 C -0.265508 1.31257 0.198456 0
M  V30 9 C 1.69654 -0.119052 -0.0909754 0
M  V30 10 C 2.42122 -1.26384 -0.28586 0
M  V30 11 C 3.75103 -1.1602 -0.328752 0
M  V30 12 C 4.29193 0.088551 -0.173928 0
M  V30 13 S 2.91235 1.07085 0.0261651 0
M  V30 14 H -1.65728 3.57299 0.9667 0
M  V30 15 H -3.16233 3.02745 0.173016 0
M  V30 16 H -3.57799 0.597361 0.240034 0
M  V30 17 H -3.31615 -2.15684 -1.05598 0
M  V30 18 H -3.21771 -2.3935 0.709275 0
M  V30 19 H -0.259377 -1.97799 -0.271456 0
M  V30 20 H 0.408421 2.14988 0.28872 0
M  V30 21 H 1.87898 -2.22566 -0.399669 0
M  V30 22 H 4.43163 -2.0261 -0.481903 0
M  V30 23 H 5.34901 0.381796 -0.177914 0
M  V30 END ATOM
M  V30 BEGIN BOND
M  V30 1 1 1 2
M  V30 2 2 2 3
M  V30 3 1 3 4
M  V30 4 1 4 5
M  V30 5 2 4 6
M  V30 6 1 6 7
M  V30 7 2 7 8
M  V30 8 1 7 9
M  V30 9 2 9 10
M  V30 10 1 10 11
M  V30 11 2 11 12
M  V30 12 1 12 13
M  V30 13 1 8 2
M  V30 14 1 13 9
M  V30 15 1 1 14
M  V30 16 1 1 15
M  V30 17 1 3 16
M  V30 18 1 5 17
M  V30 19 1 5 18
M  V30 20 1 6 19
M  V30 21 1 8 20
M  V30 22 1 10 21
M  V30 23 1 11 22
M  V30 24 1 12 23
M  V30 END BOND
M  V30 END CTAB
M  END
