
     RDKit          3D

  0  0  0  0  0  0  0  0  0  0999 V3000
M  V30 BEGIN CTAB
M  V30 COUNTS 31 32 0 0 0
M  V30 BEGIN ATOM
M  V30 1 N 6.18269 -1.06847 1.3691 0
M  V30 2 N 4.81329 -0.88856 1.19792 0
M  V30 3 C 4.33354 -0.208787 0.0837763 0
M  V30 4 O 5.07142 0.272392 -0.812174 0
M  V30 5 C 2.88864 -0.0219604 -0.0916743 0
M  V30 6 S 1.62762 -0.545306 0.928612 0
M  V30 7 C 0.291707 0.0433957 0.0553959 0
M  V30 8 C 0.873364 0.643247 -1.02797 0
M  V30 9 C 2.21683 0.609266 -1.10376 0
M  V30 10 N 2.92881 1.2236 -2.22483 0
M  V30 11 C -1.12374 -0.0606445 0.374391 0
M  V30 12 C -1.56621 -0.697827 1.50799 0
M  V30 13 C -2.90132 -0.801104 1.81768 0
M  V30 14 C -3.85014 -0.263991 0.993893 0
M  V30 15 C -3.44237 0.382616 -0.152361 0
M  V30 16 C -2.0852 0.476537 -0.44826 0
M  V30 17 O -5.21062 -0.338334 1.25665 0
M  V30 18 C -6.13838 0.236504 0.366258 0
M  V30 19 H 6.53102 -1.9938 1.09565 0
M  V30 20 H 6.73199 -0.268577 0.967152 0
M  V30 21 H 4.1746 -1.26984 1.91319 0
M  V30 22 H 0.224138 1.13275 -1.80004 0
M  V30 23 H 3.65345 1.94026 -2.07346 0
M  V30 24 H 2.71253 0.943527 -3.20565 0
M  V30 25 H -0.801353 -1.12945 2.16975 0
M  V30 26 H -3.20361 -1.30655 2.71206 0
M  V30 27 H -4.16374 0.828286 -0.842476 0
M  V30 28 H -1.75217 0.980846 -1.34376 0
M  V30 29 H -7.1427 0.0158671 0.745089 0
M  V30 30 H -5.90793 1.3246 0.318557 0
M  V30 31 H -5.96614 -0.190489 -0.656128 0
M  V30 END ATOM
M  V30 BEGIN BOND
M  V30 1 1 1 2
M  V30 2 1 2 3
M  V30 3 2 3 4
M  V30 4 1 3 5
M  V30 5 1 5 6
M  V30 6 1 6 7
M  V30 7 2 7 8
M  V30 8 1 8 9
M  V30 9 1 9 10
M  V30 10 1 7 11
M  V30 11 2 11 12
M  V30 12 1 12 13
M  V30 13 2 13 14
M  V30 14 1 14 15
M  V30 15 2 15 16
M  V30 16 1 14 17
M  V30 17 1 17 18
M  V30 18 2 9 5
M  V30 19 1 16 11
M  V30 20 1 1 19
M  V30 21 1 1 20
M  V30 22 1 2 21
M  V30 23 1 8 22
M  V30 24 1 10 23
M  V30 25 1 10 24
M  V30 26 1 12 25
M  V30 27 1 13 26
M  V30 28 1 15 27
M  V30 29 1 16 28
M  V30 30 1 18 29
M  V30 31 1 18 30
M  V30 32 1 18 31
M  V30 END BOND
M  V30 END CTAB
M  END
