
     RDKit          3D

  0  0  0  0  0  0  0  0  0  0999 V3000
M  V30 BEGIN CTAB
M  V30 COUNTS 22 21 0 0 0
M  V30 BEGIN ATOM
M  V30 1 F -2.19441 -1.22326 -1.65736 0
M  V30 2 C -2.05347 0.0119684 -1.07775 0
M  V30 3 C -1.47771 -0.0803129 0.317991 0
M  V30 4 C -0.130142 -0.72474 0.263089 0
M  V30 5 N 0.856323 0.0530223 -0.426043 0
M  V30 6 C 2.08882 0.0308848 -0.0548135 0
M  V30 7 N 2.52974 -0.755806 1.04354 0
M  V30 8 N 3.08058 0.793967 -0.724316 0
M  V30 9 O -2.32335 -0.968982 1.02398 0
M  V30 10 C -1.51588 1.22157 1.04545 0
M  V30 11 F -3.2767 0.639524 -1.0948 0
M  V30 12 H -1.31977 0.58083 -1.71114 0
M  V30 13 H 0.226368 -0.844714 1.32815 0
M  V30 14 H -0.259096 -1.74674 -0.141496 0
M  V30 15 H 2.95593 -1.70052 0.94975 0
M  V30 16 H 2.40445 -0.331203 1.99166 0
M  V30 17 H 3.29885 1.74012 -0.299754 0
M  V30 18 H 3.58255 0.478917 -1.57856 0
M  V30 19 H -1.96129 -1.88802 0.980403 0
M  V30 20 H -0.456032 1.55692 1.22518 0
M  V30 21 H -2.09546 2.01154 0.525541 0
M  V30 22 H -1.9603 1.14504 2.07421 0
M  V30 END ATOM
M  V30 BEGIN BOND
M  V30 1 1 1 2
M  V30 2 1 2 3
M  V30 3 1 3 4
M  V30 4 1 4 5
M  V30 5 2 5 6 CFG=2
M  V30 6 1 6 7
M  V30 7 1 6 8
M  V30 8 1 3 9
M  V30 9 1 3 10
M  V30 10 1 2 11
M  V30 11 1 2 12
M  V30 12 1 4 13
M  V30 13 1 4 14
M  V30 14 1 7 15
M  V30 15 1 7 16
M  V30 16 1 8 17
M  V30 17 1 8 18
M  V30 18 1 9 19
M  V30 19 1 10 20
M  V30 20 1 10 21
M  V30 21 1 10 22
M  V30 END BOND
M  V30 END CTAB
M  END
