
     RDKit          3D

  0  0  0  0  0  0  0  0  0  0999 V3000
M  V30 BEGIN CTAB
M  V30 COUNTS 50 53 0 0 0
M  V30 BEGIN ATOM
M  V30 1 O 4.75109 2.06665 -1.37441 0
M  V30 2 C 5.58262 1.48766 -0.444801 0
M  V30 3 O 6.6108 2.0983 -0.0750394 0
M  V30 4 C 5.26537 0.156492 0.112769 0
M  V30 5 O 4.06915 -0.369613 -0.425712 0
M  V30 6 C 3.65283 -1.61765 0.0127953 0
M  V30 7 C 4.38532 -2.34626 0.960123 0
M  V30 8 C 3.9169 -3.58197 1.35448 0
M  V30 9 C 2.75054 -4.09499 0.829468 0
M  V30 10 C 2.03118 -3.35893 -0.112932 0
M  V30 11 C 2.48751 -2.12292 -0.516026 0
M  V30 12 C 1.75753 -1.32754 -1.50085 0
M  V30 13 O 2.03802 -1.48336 -2.71231 0
M  V30 14 N 0.754558 -0.396731 -1.13441 0
M  V30 15 C 0.404379 -0.188723 0.235182 0
M  V30 16 C -1.02005 0.158559 0.477548 0
M  V30 17 C -1.66224 0.996851 -0.563337 0
M  V30 18 C -0.724425 1.47786 -1.63493 0
M  V30 19 C 0.0855612 0.345437 -2.17763 0
M  V30 20 O -2.76892 0.29437 -1.09297 0
M  V30 21 C -3.87135 0.430842 -0.284378 0
M  V30 22 C -3.7036 1.59267 0.4331 0
M  V30 23 C -2.38956 2.21265 0.0313441 0
M  V30 24 C -4.69071 1.94785 1.3219 0
M  V30 25 N -4.54468 3.13464 2.07092 0
M  V30 26 N -5.80136 1.16952 1.48505 0
M  V30 27 C -5.9627 0.0352378 0.783213 0
M  V30 28 N -5.00244 -0.311787 -0.0825843 0
M  V30 29 N -7.13079 -0.774005 0.961525 0
M  V30 30 H 4.66752 3.06785 -1.53056 0
M  V30 31 H 6.09941 -0.56411 -0.131477 0
M  V30 32 H 5.22298 0.189301 1.23978 0
M  V30 33 H 5.29579 -1.90598 1.34655 0
M  V30 34 H 4.5195 -4.11007 2.0919 0
M  V30 35 H 2.39125 -5.0733 1.14986 0
M  V30 36 H 1.11534 -3.76546 -0.522993 0
M  V30 37 H 1.0745 0.586037 0.696831 0
M  V30 38 H 0.624777 -1.12428 0.82876 0
M  V30 39 H -1.06252 0.73435 1.44779 0
M  V30 40 H -1.62193 -0.768433 0.693899 0
M  V30 41 H -1.34729 1.88593 -2.45913 0
M  V30 42 H -0.052671 2.25127 -1.18774 0
M  V30 43 H -0.576702 -0.360151 -2.71589 0
M  V30 44 H 0.862132 0.789306 -2.85248 0
M  V30 45 H -2.53936 2.98505 -0.744377 0
M  V30 46 H -1.82173 2.57262 0.89143 0
M  V30 47 H -3.92684 3.1476 2.89426 0
M  V30 48 H -5.06023 3.97888 1.78437 0
M  V30 49 H -7.08496 -1.81209 0.966157 0
M  V30 50 H -8.04953 -0.335425 1.09009 0
M  V30 END ATOM
M  V30 BEGIN BOND
M  V30 1 1 1 2
M  V30 2 2 2 3
M  V30 3 1 2 4
M  V30 4 1 4 5
M  V30 5 1 5 6
M  V30 6 2 6 7
M  V30 7 1 7 8
M  V30 8 2 8 9
M  V30 9 1 9 10
M  V30 10 2 10 11
M  V30 11 1 11 12
M  V30 12 2 12 13
M  V30 13 1 12 14
M  V30 14 1 14 15
M  V30 15 1 15 16
M  V30 16 1 16 17
M  V30 17 1 17 18
M  V30 18 1 18 19
M  V30 19 1 17 20
M  V30 20 1 20 21
M  V30 21 2 21 22
M  V30 22 1 22 23
M  V30 23 1 22 24
M  V30 24 1 24 25
M  V30 25 2 24 26
M  V30 26 1 26 27
M  V30 27 2 27 28
M  V30 28 1 27 29
M  V30 29 1 11 6
M  V30 30 1 19 14
M  V30 31 1 28 21
M  V30 32 1 23 17
M  V30 33 1 1 30
M  V30 34 1 4 31
M  V30 35 1 4 32
M  V30 36 1 7 33
M  V30 37 1 8 34
M  V30 38 1 9 35
M  V30 39 1 10 36
M  V30 40 1 15 37
M  V30 41 1 15 38
M  V30 42 1 16 39
M  V30 43 1 16 40
M  V30 44 1 18 41
M  V30 45 1 18 42
M  V30 46 1 19 43
M  V30 47 1 19 44
M  V30 48 1 23 45
M  V30 49 1 23 46
M  V30 50 1 25 47
M  V30 51 1 25 48
M  V30 52 1 29 49
M  V30 53 1 29 50
M  V30 END BOND
M  V30 END CTAB
M  END
