
     RDKit          3D

  0  0  0  0  0  0  0  0  0  0999 V3000
M  V30 BEGIN CTAB
M  V30 COUNTS 32 33 0 0 0
M  V30 BEGIN ATOM
M  V30 1 N 1.90581 2.11387 -0.856717 0
M  V30 2 C 2.52614 1.0238 -0.1944 0
M  V30 3 N 3.82181 1.03078 0.129671 0
M  V30 4 C 4.42208 0.0578739 0.799328 0
M  V30 5 C 3.67592 -1.05011 1.20451 0
M  V30 6 C 2.3376 -1.08065 0.881612 0
M  V30 7 C 1.73088 -0.0323434 0.163033 0
M  V30 8 C 0.388778 -0.189262 -0.31613 0 CFG=2
M  V30 9 N 0.110596 -0.413858 -1.69238 0
M  V30 10 C -0.934773 -1.44264 -1.71747 0
M  V30 11 C -2.09216 -1.07178 -0.813227 0
M  V30 12 N -1.96929 0.102906 -0.135678 0
M  V30 13 C -0.718004 0.620099 0.303378 0
M  V30 14 S -3.35929 0.912628 0.359312 0
M  V30 15 O -4.58105 0.194632 -0.165684 0
M  V30 16 O -3.42464 2.34644 -0.125847 0
M  V30 17 N -3.43791 0.883239 2.10154 0
M  V30 18 H 1.91393 2.16135 -1.88874 0
M  V30 19 H 1.45116 2.86079 -0.288969 0
M  V30 20 H 5.50694 0.0912115 1.03603 0
M  V30 21 H 4.11671 -1.85197 1.74424 0
M  V30 22 H 1.75276 -1.95116 1.21008 0
M  V30 23 H 0.0786066 -1.26341 0.152072 0
M  V30 24 H 0.898727 -0.847265 -2.25047 0
M  V30 25 H -1.26289 -1.6305 -2.73206 0
M  V30 26 H -0.42635 -2.38178 -1.34288 0
M  V30 27 H -2.19772 -1.92857 -0.0799265 0
M  V30 28 H -3.03175 -1.16091 -1.44009 0
M  V30 29 H -0.680004 1.67848 -0.199142 0
M  V30 30 H -0.678575 0.718077 1.37894 0
M  V30 31 H -4.12173 1.57889 2.41407 0
M  V30 32 H -3.72232 -0.0788675 2.362 0
M  V30 END ATOM
M  V30 BEGIN BOND
M  V30 1 1 1 2
M  V30 2 2 2 3
M  V30 3 1 3 4
M  V30 4 2 4 5
M  V30 5 1 5 6
M  V30 6 2 6 7
M  V30 7 1 7 8
M  V30 8 1 8 9
M  V30 9 1 9 10
M  V30 10 1 10 11
M  V30 11 1 11 12
M  V30 12 1 12 13
M  V30 13 1 12 14
M  V30 14 2 14 15
M  V30 15 2 14 16
M  V30 16 1 14 17
M  V30 17 1 7 2
M  V30 18 1 13 8
M  V30 19 1 1 18
M  V30 20 1 1 19
M  V30 21 1 4 20
M  V30 22 1 5 21
M  V30 23 1 6 22
M  V30 24 1 8 23 CFG=1
M  V30 25 1 9 24
M  V30 26 1 10 25
M  V30 27 1 10 26
M  V30 28 1 11 27
M  V30 29 1 11 28
M  V30 30 1 13 29
M  V30 31 1 13 30
M  V30 32 1 17 31
M  V30 33 1 17 32
M  V30 END BOND
M  V30 END CTAB
M  END
