
     RDKit          3D

  0  0  0  0  0  0  0  0  0  0999 V3000
M  V30 BEGIN CTAB
M  V30 COUNTS 37 38 0 0 0
M  V30 BEGIN ATOM
M  V30 1 C -2.57355 2.55118 0.476906 0
M  V30 2 C -2.2779 1.22439 -0.237963 0
M  V30 3 C -2.88194 0.151042 0.596855 0
M  V30 4 C -2.30217 -1.16945 0.068917 0
M  V30 5 C -3.13522 -2.28325 0.603785 0
M  V30 6 C -0.898035 -1.19824 0.5747 0
M  V30 7 N -0.162739 -0.0596773 -0.00593663 0
M  V30 8 C -0.828905 1.0602 -0.577117 0
M  V30 9 C 1.25698 -0.188771 0.0865039 0
M  V30 10 C 1.83641 -1.12592 0.94189 0
M  V30 11 C 3.189 -1.28735 1.09943 0
M  V30 12 C 4.05746 -0.495515 0.387906 0
M  V30 13 C 3.53181 0.441242 -0.466955 0
M  V30 14 C 2.15289 0.585327 -0.609442 0
M  V30 15 N 1.74068 1.56813 -1.52847 0
M  V30 16 N 5.48379 -0.647688 0.538413 0
M  V30 17 H -1.9194 2.64066 1.36535 0
M  V30 18 H -2.47283 3.36536 -0.240254 0
M  V30 19 H -3.64551 2.49244 0.776703 0
M  V30 20 H -2.91266 1.28876 -1.17223 0
M  V30 21 H -2.55288 0.213449 1.65333 0
M  V30 22 H -3.97387 0.177026 0.489682 0
M  V30 23 H -2.39119 -1.11862 -1.02263 0
M  V30 24 H -3.16981 -3.11868 -0.129124 0
M  V30 25 H -4.19515 -1.96725 0.744046 0
M  V30 26 H -2.77226 -2.7106 1.55342 0
M  V30 27 H -0.907169 -1.01704 1.66671 0
M  V30 28 H -0.373614 -2.15066 0.347404 0
M  V30 29 H -0.330172 1.99436 -0.167548 0
M  V30 30 H -0.753606 1.01298 -1.67991 0
M  V30 31 H 1.20806 -1.77282 1.52872 0
M  V30 32 H 3.60758 -2.01968 1.76743 0
M  V30 33 H 4.205 1.05672 -1.01996 0
M  V30 34 H 1.72591 2.56404 -1.22185 0
M  V30 35 H 1.45118 1.36261 -2.5023 0
M  V30 36 H 5.98405 -0.383381 1.4105 0
M  V30 37 H 5.99978 -1.03531 -0.264886 0
M  V30 END ATOM
M  V30 BEGIN BOND
M  V30 1 1 1 2
M  V30 2 1 2 3
M  V30 3 1 3 4
M  V30 4 1 4 5
M  V30 5 1 4 6
M  V30 6 1 6 7
M  V30 7 1 7 8
M  V30 8 1 7 9
M  V30 9 2 9 10
M  V30 10 1 10 11
M  V30 11 2 11 12
M  V30 12 1 12 13
M  V30 13 2 13 14
M  V30 14 1 14 15
M  V30 15 1 12 16
M  V30 16 1 8 2
M  V30 17 1 14 9
M  V30 18 1 1 17
M  V30 19 1 1 18
M  V30 20 1 1 19
M  V30 21 1 2 20
M  V30 22 1 3 21
M  V30 23 1 3 22
M  V30 24 1 4 23
M  V30 25 1 5 24
M  V30 26 1 5 25
M  V30 27 1 5 26
M  V30 28 1 6 27
M  V30 29 1 6 28
M  V30 30 1 8 29
M  V30 31 1 8 30
M  V30 32 1 10 31
M  V30 33 1 11 32
M  V30 34 1 13 33
M  V30 35 1 15 34
M  V30 36 1 15 35
M  V30 37 1 16 36
M  V30 38 1 16 37
M  V30 END BOND
M  V30 END CTAB
M  END
