
     RDKit          3D

  0  0  0  0  0  0  0  0  0  0999 V3000
M  V30 BEGIN CTAB
M  V30 COUNTS 32 32 0 0 0
M  V30 BEGIN ATOM
M  V30 1 N -3.1846 1.91641 0.269927 0
M  V30 2 C -3.40137 1.03309 -0.869395 0
M  V30 3 C -3.66468 -0.363095 -0.360702 0
M  V30 4 C -2.47565 -0.823096 0.432461 0
M  V30 5 N -1.28783 -0.848922 -0.382614 0
M  V30 6 C -0.0583834 -1.24324 0.169962 0
M  V30 7 O 0.025345 -1.58071 1.38735 0
M  V30 8 C 1.1946 -1.28641 -0.629345 0
M  V30 9 C 2.18151 -0.423678 0.052338 0
M  V30 10 C 3.16804 -1.02227 0.797101 0
M  V30 11 C 4.09823 -0.22291 1.44019 0
M  V30 12 C 4.03908 1.14999 1.33756 0
M  V30 13 C 3.0402 1.73015 0.584598 0
M  V30 14 C 2.10392 0.939073 -0.0632942 0
M  V30 15 N 0.949888 -0.876642 -1.99571 0
M  V30 16 F -3.87779 -1.17612 -1.46744 0
M  V30 17 F -4.79999 -0.35499 0.451748 0
M  V30 18 H -2.17969 1.94309 0.516677 0
M  V30 19 H -3.76995 1.62949 1.08782 0
M  V30 20 H -2.52614 1.01239 -1.53681 0
M  V30 21 H -4.31896 1.34765 -1.42165 0
M  V30 22 H -2.31632 -0.199348 1.34759 0
M  V30 23 H -2.68194 -1.85817 0.837895 0
M  V30 24 H -1.33813 -0.581656 -1.37972 0
M  V30 25 H 1.57327 -2.34379 -0.690807 0
M  V30 26 H 3.22795 -2.11874 0.888299 0
M  V30 27 H 4.88685 -0.708098 2.03584 0
M  V30 28 H 4.76926 1.75197 1.84346 0
M  V30 29 H 2.96592 2.81768 0.483315 0
M  V30 30 H 1.32483 1.4408 -0.652698 0
M  V30 31 H 1.84955 -0.754687 -2.49097 0
M  V30 32 H 0.482977 0.0747994 -2.02296 0
M  V30 END ATOM
M  V30 BEGIN BOND
M  V30 1 1 1 2
M  V30 2 1 2 3
M  V30 3 1 3 4
M  V30 4 1 4 5
M  V30 5 1 5 6
M  V30 6 2 6 7
M  V30 7 1 6 8
M  V30 8 1 8 9
M  V30 9 2 9 10
M  V30 10 1 10 11
M  V30 11 2 11 12
M  V30 12 1 12 13
M  V30 13 2 13 14
M  V30 14 1 8 15
M  V30 15 1 3 16
M  V30 16 1 3 17
M  V30 17 1 14 9
M  V30 18 1 1 18
M  V30 19 1 1 19
M  V30 20 1 2 20
M  V30 21 1 2 21
M  V30 22 1 4 22
M  V30 23 1 4 23
M  V30 24 1 5 24
M  V30 25 1 8 25
M  V30 26 1 10 26
M  V30 27 1 11 27
M  V30 28 1 12 28
M  V30 29 1 13 29
M  V30 30 1 14 30
M  V30 31 1 15 31
M  V30 32 1 15 32
M  V30 END BOND
M  V30 END CTAB
M  END
