
     RDKit          3D

  0  0  0  0  0  0  0  0  0  0999 V3000
M  V30 BEGIN CTAB
M  V30 COUNTS 19 19 0 0 0
M  V30 BEGIN ATOM
M  V30 1 C 2.67616 -0.635348 0.37236 0
M  V30 2 C 1.22011 -0.320818 0.167706 0
M  V30 3 C 0.288591 -1.32929 0.0630314 0
M  V30 4 C -1.03898 -0.982862 -0.124878 0
M  V30 5 N -2.0182 -1.99616 -0.235928 0
M  V30 6 C -1.44349 0.33273 -0.208407 0
M  V30 7 C -0.505116 1.36656 -0.103353 0
M  V30 8 C 0.807944 0.989506 0.0832517 0
M  V30 9 N -0.928288 2.70684 -0.189949 0
M  V30 10 Br -3.26962 0.827216 -0.467264 0
M  V30 11 H 2.862 -1.69815 0.119152 0
M  V30 12 H 2.86442 -0.457488 1.45222 0
M  V30 13 H 3.24931 0.0747352 -0.226168 0
M  V30 14 H 0.598546 -2.36267 0.127584 0
M  V30 15 H -1.94594 -2.689 -1.01272 0
M  V30 16 H -2.78512 -2.02117 0.463087 0
M  V30 17 H 1.53998 1.77811 0.165592 0
M  V30 18 H -1.83957 3.02001 0.208665 0
M  V30 19 H -0.332731 3.39725 -0.653986 0
M  V30 END ATOM
M  V30 BEGIN BOND
M  V30 1 1 1 2
M  V30 2 2 2 3
M  V30 3 1 3 4
M  V30 4 1 4 5
M  V30 5 2 4 6
M  V30 6 1 6 7
M  V30 7 2 7 8
M  V30 8 1 7 9
M  V30 9 1 6 10
M  V30 10 1 8 2
M  V30 11 1 1 11
M  V30 12 1 1 12
M  V30 13 1 1 13
M  V30 14 1 3 14
M  V30 15 1 5 15
M  V30 16 1 5 16
M  V30 17 1 8 17
M  V30 18 1 9 18
M  V30 19 1 9 19
M  V30 END BOND
M  V30 END CTAB
M  END
