
     RDKit          3D

  0  0  0  0  0  0  0  0  0  0999 V3000
M  V30 BEGIN CTAB
M  V30 COUNTS 71 73 0 0 0
M  V30 BEGIN ATOM
M  V30 1 N -7.73417 -5.96202 -0.548807 0
M  V30 2 C -6.438 -5.28991 -0.678801 0
M  V30 3 C -6.56841 -3.8242 -0.396029 0
M  V30 4 C -5.23527 -3.14261 -0.557479 0
M  V30 5 C -4.23498 -3.72068 0.40558 0
M  V30 6 C -2.8947 -3.06799 0.314706 0
M  V30 7 C -2.97451 -1.62292 0.711465 0
M  V30 8 O -4.04196 -1.27426 1.24174 0
M  V30 9 N -1.85839 -0.826829 0.449259 0
M  V30 10 C -1.73751 0.558159 0.734551 0
M  V30 11 C -0.533761 1.22121 0.805477 0
M  V30 12 C -0.516655 2.58437 0.975826 0
M  V30 13 C -1.68722 3.34905 1.08579 0
M  V30 14 O -1.67335 4.71941 1.25743 0
M  V30 15 C -2.88167 5.43571 1.36196 0
M  V30 16 C -2.63497 6.91064 1.54341 0
M  V30 17 C -1.85575 7.3723 0.310298 0
M  V30 18 N -1.61168 8.77509 0.465831 0
M  V30 19 C -2.86842 2.68643 1.01697 0
M  V30 20 C -2.89225 1.31796 0.844258 0
M  V30 21 C 0.72623 0.515043 0.788433 0
M  V30 22 O 0.773192 -0.728803 0.763913 0
M  V30 23 N 1.97062 1.18094 0.797536 0
M  V30 24 C 3.24141 0.587052 0.794549 0
M  V30 25 C 3.54655 -0.671869 1.22305 0
M  V30 26 C 4.85237 -1.19953 1.15509 0
M  V30 27 C 5.87071 -0.434117 0.642599 0
M  V30 28 O 7.16635 -0.943873 0.569913 0
M  V30 29 C 7.57991 -1.62171 -0.56093 0
M  V30 30 C 7.40697 -2.9828 -0.641692 0
M  V30 31 C 7.81826 -3.68089 -1.7744 0
M  V30 32 C 8.40363 -3.01044 -2.82617 0
M  V30 33 O 8.79787 -3.75056 -3.93566 0
M  V30 34 C 8.57211 -1.64624 -2.73447 0
M  V30 35 C 8.16223 -0.940881 -1.6026 0
M  V30 36 C 5.59748 0.835901 0.204005 0
M  V30 37 C 4.33143 1.31415 0.282407 0
M  V30 38 H -7.6061 -6.89497 -1.01526 0
M  V30 39 H -7.92961 -6.05663 0.45892 0
M  V30 40 H -5.7664 -5.77968 0.084586 0
M  V30 41 H -5.98396 -5.45454 -1.67303 0
M  V30 42 H -7.34713 -3.38143 -1.04382 0
M  V30 43 H -6.87284 -3.7196 0.676304 0
M  V30 44 H -4.88324 -3.34085 -1.62409 0
M  V30 45 H -5.36032 -2.05055 -0.484004 0
M  V30 46 H -4.07302 -4.81491 0.220333 0
M  V30 47 H -4.69146 -3.60308 1.43002 0
M  V30 48 H -2.17424 -3.6103 0.98282 0
M  V30 49 H -2.56748 -3.11483 -0.743037 0
M  V30 50 H -1.06291 -1.34334 -0.0531303 0
M  V30 51 H 0.382575 3.19951 1.04366 0
M  V30 52 H -3.43063 5.27058 0.399155 0
M  V30 53 H -3.50417 5.01951 2.18212 0
M  V30 54 H -3.59388 7.43421 1.56718 0
M  V30 55 H -2.01421 7.03676 2.43848 0
M  V30 56 H -2.49442 7.20708 -0.575927 0
M  V30 57 H -0.910878 6.79022 0.229222 0
M  V30 58 H -2.51442 9.28713 0.338811 0
M  V30 59 H -1.30522 8.95994 1.44788 0
M  V30 60 H -3.82777 3.22057 1.09647 0
M  V30 61 H -3.86674 0.836084 0.773659 0
M  V30 62 H 1.976 2.24595 0.807846 0
M  V30 63 H 2.76498 -1.29686 1.65294 0
M  V30 64 H 4.99301 -2.20731 1.51909 0
M  V30 65 H 6.95004 -3.53006 0.170937 0
M  V30 66 H 7.65162 -4.74772 -1.76952 0
M  V30 67 H 9.23588 -3.32186 -4.74765 0
M  V30 68 H 9.02707 -1.11773 -3.54911 0
M  V30 69 H 8.28624 0.132107 -1.51243 0
M  V30 70 H 6.43806 1.40034 -0.192411 0
M  V30 71 H 4.13187 2.32597 -0.0714605 0
M  V30 END ATOM
M  V30 BEGIN BOND
M  V30 1 1 1 2
M  V30 2 1 2 3
M  V30 3 1 3 4
M  V30 4 1 4 5
M  V30 5 1 5 6
M  V30 6 1 6 7
M  V30 7 2 7 8
M  V30 8 1 7 9
M  V30 9 1 9 10
M  V30 10 2 10 11
M  V30 11 1 11 12
M  V30 12 2 12 13
M  V30 13 1 13 14
M  V30 14 1 14 15
M  V30 15 1 15 16
M  V30 16 1 16 17
M  V30 17 1 17 18
M  V30 18 1 13 19
M  V30 19 2 19 20
M  V30 20 1 11 21
M  V30 21 2 21 22
M  V30 22 1 21 23
M  V30 23 1 23 24
M  V30 24 2 24 25
M  V30 25 1 25 26
M  V30 26 2 26 27
M  V30 27 1 27 28
M  V30 28 1 28 29
M  V30 29 2 29 30
M  V30 30 1 30 31
M  V30 31 2 31 32
M  V30 32 1 32 33
M  V30 33 1 32 34
M  V30 34 2 34 35
M  V30 35 1 27 36
M  V30 36 2 36 37
M  V30 37 1 20 10
M  V30 38 1 37 24
M  V30 39 1 35 29
M  V30 40 1 1 38
M  V30 41 1 1 39
M  V30 42 1 2 40
M  V30 43 1 2 41
M  V30 44 1 3 42
M  V30 45 1 3 43
M  V30 46 1 4 44
M  V30 47 1 4 45
M  V30 48 1 5 46
M  V30 49 1 5 47
M  V30 50 1 6 48
M  V30 51 1 6 49
M  V30 52 1 9 50
M  V30 53 1 12 51
M  V30 54 1 15 52
M  V30 55 1 15 53
M  V30 56 1 16 54
M  V30 57 1 16 55
M  V30 58 1 17 56
M  V30 59 1 17 57
M  V30 60 1 18 58
M  V30 61 1 18 59
M  V30 62 1 19 60
M  V30 63 1 20 61
M  V30 64 1 23 62
M  V30 65 1 25 63
M  V30 66 1 26 64
M  V30 67 1 30 65
M  V30 68 1 31 66
M  V30 69 1 33 67
M  V30 70 1 34 68
M  V30 71 1 35 69
M  V30 72 1 36 70
M  V30 73 1 37 71
M  V30 END BOND
M  V30 END CTAB
M  END
