
     RDKit          3D

  0  0  0  0  0  0  0  0  0  0999 V3000
M  V30 BEGIN CTAB
M  V30 COUNTS 16 15 0 0 0
M  V30 BEGIN ATOM
M  V30 1 N 3.74774 -0.704999 -2.10801 0
M  V30 2 N 2.86892 0.34956 -1.90726 0
M  V30 3 C 1.94926 0.432795 -0.817712 0
M  V30 4 S 1.93423 -0.808589 0.271155 0
M  V30 5 S 0.84347 1.77149 -0.575226 0
M  V30 6 S -0.30236 1.42672 1.16954 0
M  V30 7 C -1.77029 0.542821 0.723632 0
M  V30 8 S -2.01333 0.151528 -0.836882 0
M  V30 9 N -2.74553 0.166286 1.70596 0
M  V30 10 N -3.88934 -0.531096 1.30583 0
M  V30 11 H 4.26666 -0.971515 -1.2388 0
M  V30 12 H 3.29075 -1.5463 -2.54064 0
M  V30 13 H 2.8551 1.14166 -2.57258 0
M  V30 14 H -2.60829 0.408193 2.71448 0
M  V30 15 H -4.66463 -0.281113 1.97213 0
M  V30 16 H -3.76237 -1.54745 1.25799 0
M  V30 END ATOM
M  V30 BEGIN BOND
M  V30 1 1 1 2
M  V30 2 1 2 3
M  V30 3 2 3 4
M  V30 4 1 3 5
M  V30 5 1 5 6
M  V30 6 1 6 7
M  V30 7 2 7 8
M  V30 8 1 7 9
M  V30 9 1 9 10
M  V30 10 1 1 11
M  V30 11 1 1 12
M  V30 12 1 2 13
M  V30 13 1 9 14
M  V30 14 1 10 15
M  V30 15 1 10 16
M  V30 END BOND
M  V30 END CTAB
M  END
