
     RDKit          3D

  0  0  0  0  0  0  0  0  0  0999 V3000
M  V30 BEGIN CTAB
M  V30 COUNTS 25 26 0 0 0
M  V30 BEGIN ATOM
M  V30 1 C -3.89051 -0.68346 -1.47213 0
M  V30 2 C -2.46792 -0.485524 -0.992351 0
M  V30 3 S -1.00911 -1.06197 -1.65536 0
M  V30 4 C 0.0954404 -0.391981 -0.517651 0
M  V30 5 C -0.731174 0.263694 0.345644 0
M  V30 6 C -2.05513 0.215169 0.100171 0
M  V30 7 C -3.0705 0.905625 0.989838 0
M  V30 8 C 1.56044 -0.530912 -0.531477 0
M  V30 9 N 2.2662 -1.21853 -1.45797 0
M  V30 10 N 3.5572 -1.14315 -1.17704 0
M  V30 11 C 3.70976 -0.405837 -0.0643791 0
M  V30 12 N 2.46478 -0.0415891 0.312218 0
M  V30 13 N 2.23239 0.739205 1.43882 0
M  V30 14 N 4.95008 -0.0932923 0.561372 0
M  V30 15 H -3.92281 -1.62913 -2.05973 0
M  V30 16 H -4.09241 0.164404 -2.14665 0
M  V30 17 H -4.56295 -0.75389 -0.610986 0
M  V30 18 H -0.276482 0.808115 1.21205 0
M  V30 19 H -2.64867 1.04086 2.00412 0
M  V30 20 H -3.98943 0.275099 1.05414 0
M  V30 21 H -3.25409 1.88261 0.527215 0
M  V30 22 H 2.35512 1.77753 1.33617 0
M  V30 23 H 1.95029 0.289229 2.33207 0
M  V30 24 H 5.06241 0.816298 1.06051 0
M  V30 25 H 5.76709 -0.738578 0.546221 0
M  V30 END ATOM
M  V30 BEGIN BOND
M  V30 1 1 1 2
M  V30 2 1 2 3
M  V30 3 1 3 4
M  V30 4 2 4 5
M  V30 5 1 5 6
M  V30 6 1 6 7
M  V30 7 1 4 8
M  V30 8 2 8 9
M  V30 9 1 9 10
M  V30 10 2 10 11
M  V30 11 1 11 12
M  V30 12 1 12 13
M  V30 13 1 11 14
M  V30 14 2 6 2
M  V30 15 1 12 8
M  V30 16 1 1 15
M  V30 17 1 1 16
M  V30 18 1 1 17
M  V30 19 1 5 18
M  V30 20 1 7 19
M  V30 21 1 7 20
M  V30 22 1 7 21
M  V30 23 1 13 22
M  V30 24 1 13 23
M  V30 25 1 14 24
M  V30 26 1 14 25
M  V30 END BOND
M  V30 END CTAB
M  END
