
     RDKit          3D

  0  0  0  0  0  0  0  0  0  0999 V3000
M  V30 BEGIN CTAB
M  V30 COUNTS 20 20 0 0 0
M  V30 BEGIN ATOM
M  V30 1 C -3.13102 -0.338706 0.560616 0
M  V30 2 O -2.04554 0.538732 0.790949 0
M  V30 3 C -0.782879 0.185581 0.291253 0
M  V30 4 C -0.583018 -0.980772 -0.408426 0
M  V30 5 C 0.646186 -1.34925 -0.90867 0
M  V30 6 C 1.70959 -0.505492 -0.691762 0
M  V30 7 C 1.55669 0.674658 0.00436814 0
M  V30 8 C 0.306302 1.00636 0.489141 0
M  V30 9 N 0.166677 2.22359 1.20281 0
M  V30 10 Cl 2.91839 1.71028 0.256999 0
M  V30 11 N 2.98556 -0.852896 -1.1914 0
M  V30 12 H -2.82871 -1.35797 0.883716 0
M  V30 13 H -3.30871 -0.349542 -0.531805 0
M  V30 14 H -4.04029 -0.0491505 1.07964 0
M  V30 15 H -1.42623 -1.63233 -0.570806 0
M  V30 16 H 0.785129 -2.27642 -1.46008 0
M  V30 17 H 0.728605 3.05385 0.941556 0
M  V30 18 H -0.515233 2.24822 1.99027 0
M  V30 19 H 3.30918 -0.403547 -2.0775 0
M  V30 20 H 3.54931 -1.54519 -0.650881 0
M  V30 END ATOM
M  V30 BEGIN BOND
M  V30 1 1 1 2
M  V30 2 1 2 3
M  V30 3 2 3 4
M  V30 4 1 4 5
M  V30 5 2 5 6
M  V30 6 1 6 7
M  V30 7 2 7 8
M  V30 8 1 8 9
M  V30 9 1 7 10
M  V30 10 1 6 11
M  V30 11 1 8 3
M  V30 12 1 1 12
M  V30 13 1 1 13
M  V30 14 1 1 14
M  V30 15 1 4 15
M  V30 16 1 5 16
M  V30 17 1 9 17
M  V30 18 1 9 18
M  V30 19 1 11 19
M  V30 20 1 11 20
M  V30 END BOND
M  V30 END CTAB
M  END
