
     RDKit          3D

  0  0  0  0  0  0  0  0  0  0999 V3000
M  V30 BEGIN CTAB
M  V30 COUNTS 26 27 0 0 0
M  V30 BEGIN ATOM
M  V30 1 N 4.91094 -0.308206 -0.302648 0
M  V30 2 C 3.5111 -0.176356 -0.18544 0
M  V30 3 C 2.89976 0.930054 0.403931 0
M  V30 4 C 1.51899 1.02926 0.50371 0
M  V30 5 Br 0.684523 2.54791 1.31251 0
M  V30 6 C 0.731714 -0.00567488 0.000520509 0
M  V30 7 C 1.30615 -1.11146 -0.587224 0
M  V30 8 Br 0.246025 -2.51347 -1.2691 0
M  V30 9 C 2.6879 -1.16779 -0.665036 0
M  V30 10 C -0.734636 0.0449961 0.0784123 0
M  V30 11 C -1.41402 0.624051 -0.972882 0
M  V30 12 Br -0.520965 1.34619 -2.49411 0
M  V30 13 C -2.78811 0.686648 -0.929482 0
M  V30 14 C -3.48001 0.171498 0.162311 0
M  V30 15 N -4.90917 0.243578 0.193831 0
M  V30 16 C -2.8051 -0.416418 1.23148 0
M  V30 17 C -1.42758 -0.468479 1.16705 0
M  V30 18 Br -0.417479 -1.25393 2.58235 0
M  V30 19 H 5.39716 0.0975367 -1.11837 0
M  V30 20 H 5.43604 -0.811628 0.432558 0
M  V30 21 H 3.52931 1.71769 0.785807 0
M  V30 22 H 3.11391 -2.06306 -1.13951 0
M  V30 23 H -3.29962 1.14393 -1.7627 0
M  V30 24 H -5.47509 -0.58306 0.476646 0
M  V30 25 H -5.37938 1.11669 -0.0643036 0
M  V30 26 H -3.32235 -0.820496 2.0848 0
M  V30 END ATOM
M  V30 BEGIN BOND
M  V30 1 1 1 2
M  V30 2 2 2 3
M  V30 3 1 3 4
M  V30 4 1 4 5
M  V30 5 2 4 6
M  V30 6 1 6 7
M  V30 7 1 7 8
M  V30 8 2 7 9
M  V30 9 1 6 10
M  V30 10 2 10 11
M  V30 11 1 11 12
M  V30 12 1 11 13
M  V30 13 2 13 14
M  V30 14 1 14 15
M  V30 15 1 14 16
M  V30 16 2 16 17
M  V30 17 1 17 18
M  V30 18 1 9 2
M  V30 19 1 17 10
M  V30 20 1 1 19
M  V30 21 1 1 20
M  V30 22 1 3 21
M  V30 23 1 9 22
M  V30 24 1 13 23
M  V30 25 1 15 24
M  V30 26 1 15 25
M  V30 27 1 16 26
M  V30 END BOND
M  V30 END CTAB
M  END
