
     RDKit          3D

  0  0  0  0  0  0  0  0  0  0999 V3000
M  V30 BEGIN CTAB
M  V30 COUNTS 60 60 0 0 0
M  V30 BEGIN ATOM
M  V30 1 N -8.38557 -1.04296 -2.17707 0
M  V30 2 C -8.83962 -1.31094 -0.858632 0
M  V30 3 C -7.59246 -1.35241 0.0361869 0
M  V30 4 C -6.95488 0.00551486 -0.0920358 0
M  V30 5 N -5.75976 0.0621576 0.742885 0
M  V30 6 C -4.71654 -0.8033 0.236009 0
M  V30 7 C -3.52989 -0.691453 1.17461 0
M  V30 8 C -2.99171 0.694644 1.27372 0
M  V30 9 C -2.51941 1.2541 -0.0354046 0
M  V30 10 N -1.45356 0.495095 -0.625927 0
M  V30 11 C -0.213952 0.60894 0.134392 0
M  V30 12 C 0.375896 1.98028 0.0471279 0
M  V30 13 C 1.62607 2.05049 0.86136 0
M  V30 14 N 2.5913 1.09979 0.37131 0
M  V30 15 C 3.83659 1.00571 1.02883 0
M  V30 16 O 4.05765 1.75484 2.01681 0
M  V30 17 C 4.8436 0.0331129 0.54518 0 CFG=1
M  V30 18 N 4.44565 -0.656852 -0.638289 0
M  V30 19 C 6.16923 0.723005 0.428475 0
M  V30 20 C 7.25466 -0.196406 -0.0489121 0
M  V30 21 C 7.54496 -0.345734 -1.38174 0
M  V30 22 C 8.55245 -1.21102 -1.76067 0
M  V30 23 C 9.26286 -1.91901 -0.824815 0
M  V30 24 C 8.98439 -1.77994 0.511303 0
M  V30 25 C 7.97702 -0.913242 0.8719 0
M  V30 26 H -7.96847 -1.81125 -2.65733 0
M  V30 27 H -9.09963 -0.570811 -2.70305 0
M  V30 28 H -9.4682 -0.473086 -0.522634 0
M  V30 29 H -9.37312 -2.28847 -0.810472 0
M  V30 30 H -7.83709 -1.61475 1.0633 0
M  V30 31 H -6.92032 -2.11691 -0.407167 0
M  V30 32 H -7.64019 0.804807 0.297251 0
M  V30 33 H -6.62706 0.194571 -1.12788 0
M  V30 34 H -5.43268 1.05448 0.659838 0
M  V30 35 H -4.44243 -0.606182 -0.807791 0
M  V30 36 H -5.02722 -1.87691 0.278244 0
M  V30 37 H -2.75535 -1.44982 0.986732 0
M  V30 38 H -3.94415 -0.949489 2.19353 0
M  V30 39 H -2.18513 0.664118 2.04134 0
M  V30 40 H -3.7594 1.3671 1.68898 0
M  V30 41 H -2.22741 2.30106 0.0831981 0
M  V30 42 H -3.38209 1.22314 -0.737347 0
M  V30 43 H -1.25321 0.934828 -1.55799 0
M  V30 44 H -0.405323 0.269005 1.1536 0
M  V30 45 H 0.463217 -0.14187 -0.32122 0
M  V30 46 H -0.288472 2.77743 0.404248 0
M  V30 47 H 0.556699 2.20764 -1.03353 0
M  V30 48 H 2.07164 3.08822 0.845573 0
M  V30 49 H 1.44859 1.80028 1.92008 0
M  V30 50 H 2.35755 0.50975 -0.449583 0
M  V30 51 H 4.99613 -0.768103 1.3352 0
M  V30 52 H 4.10978 0.0121143 -1.3633 0
M  V30 53 H 3.73871 -1.39114 -0.501451 0
M  V30 54 H 6.12303 1.5742 -0.290302 0
M  V30 55 H 6.51104 1.14959 1.37721 0
M  V30 56 H 6.98633 0.21418 -2.1197 0
M  V30 57 H 8.8052 -1.34775 -2.8245 0
M  V30 58 H 10.0592 -2.6012 -1.1387 0
M  V30 59 H 9.51437 -2.31466 1.2899 0
M  V30 60 H 7.73052 -0.778983 1.91911 0
M  V30 END ATOM
M  V30 BEGIN BOND
M  V30 1 1 1 2
M  V30 2 1 2 3
M  V30 3 1 3 4
M  V30 4 1 4 5
M  V30 5 1 5 6
M  V30 6 1 6 7
M  V30 7 1 7 8
M  V30 8 1 8 9
M  V30 9 1 9 10
M  V30 10 1 10 11
M  V30 11 1 11 12
M  V30 12 1 12 13
M  V30 13 1 13 14
M  V30 14 1 14 15
M  V30 15 2 15 16
M  V30 16 1 15 17
M  V30 17 1 17 18
M  V30 18 1 17 19
M  V30 19 1 19 20
M  V30 20 2 20 21
M  V30 21 1 21 22
M  V30 22 2 22 23
M  V30 23 1 23 24
M  V30 24 2 24 25
M  V30 25 1 25 20
M  V30 26 1 1 26
M  V30 27 1 1 27
M  V30 28 1 2 28
M  V30 29 1 2 29
M  V30 30 1 3 30
M  V30 31 1 3 31
M  V30 32 1 4 32
M  V30 33 1 4 33
M  V30 34 1 5 34
M  V30 35 1 6 35
M  V30 36 1 6 36
M  V30 37 1 7 37
M  V30 38 1 7 38
M  V30 39 1 8 39
M  V30 40 1 8 40
M  V30 41 1 9 41
M  V30 42 1 9 42
M  V30 43 1 10 43
M  V30 44 1 11 44
M  V30 45 1 11 45
M  V30 46 1 12 46
M  V30 47 1 12 47
M  V30 48 1 13 48
M  V30 49 1 13 49
M  V30 50 1 14 50
M  V30 51 1 17 51 CFG=1
M  V30 52 1 18 52
M  V30 53 1 18 53
M  V30 54 1 19 54
M  V30 55 1 19 55
M  V30 56 1 21 56
M  V30 57 1 22 57
M  V30 58 1 23 58
M  V30 59 1 24 59
M  V30 60 1 25 60
M  V30 END BOND
M  V30 END CTAB
M  END
