
     RDKit          3D

  0  0  0  0  0  0  0  0  0  0999 V3000
M  V30 BEGIN CTAB
M  V30 COUNTS 32 32 0 0 0
M  V30 BEGIN ATOM
M  V30 1 O 2.12189 -0.67244 1.51308 0
M  V30 2 C 1.41167 -0.107376 0.653255 0
M  V30 3 N 0.0121172 -0.248365 0.712145 0
M  V30 4 C -0.898075 0.353759 -0.208376 0
M  V30 5 O -0.452847 1.08047 -1.16238 0
M  V30 6 C -2.32344 0.184445 -0.119498 0
M  V30 7 C -3.16139 0.961909 -0.875524 0
M  V30 8 C -4.54939 0.813209 -0.810818 0
M  V30 9 C -5.07926 -0.128961 0.025666 0
M  V30 10 C -4.2611 -0.91422 0.787724 0
M  V30 11 C -2.86703 -0.752764 0.711518 0
M  V30 12 N -6.49396 -0.280118 0.0913994 0
M  V30 13 C 2.06741 0.688393 -0.394081 0
M  V30 14 C 3.58453 0.678054 -0.197083 0
M  V30 15 N 4.09667 -0.677373 -0.264356 0
M  V30 16 C 5.47012 -0.982993 -0.110515 0
M  V30 17 S 5.95644 -2.53298 -0.200701 0
M  V30 18 N 6.42378 0.0395829 0.12029 0
M  V30 19 H -0.429383 -0.836374 1.4848 0
M  V30 20 H -2.81015 1.72034 -1.55276 0
M  V30 21 H -5.22938 1.41502 -1.3976 0
M  V30 22 H -4.68352 -1.65755 1.44741 0
M  V30 23 H -2.30606 -1.42176 1.34951 0
M  V30 24 H -7.08096 0.050844 -0.691687 0
M  V30 25 H -6.96784 -0.715998 0.90639 0
M  V30 26 H 1.73029 1.73994 -0.289974 0
M  V30 27 H 1.83839 0.332079 -1.41994 0
M  V30 28 H 3.8156 1.15791 0.76248 0
M  V30 29 H 4.03315 1.24787 -1.02456 0
M  V30 30 H 3.41168 -1.44207 -0.434119 0
M  V30 31 H 7.21698 -0.0608104 0.809961 0
M  V30 32 H 6.40307 0.968326 -0.382499 0
M  V30 END ATOM
M  V30 BEGIN BOND
M  V30 1 2 1 2
M  V30 2 1 2 3
M  V30 3 1 3 4
M  V30 4 2 4 5
M  V30 5 1 4 6
M  V30 6 2 6 7
M  V30 7 1 7 8
M  V30 8 2 8 9
M  V30 9 1 9 10
M  V30 10 2 10 11
M  V30 11 1 9 12
M  V30 12 1 2 13
M  V30 13 1 13 14
M  V30 14 1 14 15
M  V30 15 1 15 16
M  V30 16 2 16 17
M  V30 17 1 16 18
M  V30 18 1 11 6
M  V30 19 1 3 19
M  V30 20 1 7 20
M  V30 21 1 8 21
M  V30 22 1 10 22
M  V30 23 1 11 23
M  V30 24 1 12 24
M  V30 25 1 12 25
M  V30 26 1 13 26
M  V30 27 1 13 27
M  V30 28 1 14 28
M  V30 29 1 14 29
M  V30 30 1 15 30
M  V30 31 1 18 31
M  V30 32 1 18 32
M  V30 END BOND
M  V30 END CTAB
M  END
