
     RDKit          3D

  0  0  0  0  0  0  0  0  0  0999 V3000
M  V30 BEGIN CTAB
M  V30 COUNTS 37 39 0 0 0
M  V30 BEGIN ATOM
M  V30 1 N -4.41759 -3.67614 -0.680483 0
M  V30 2 C -4.11437 -2.60824 -0.381406 0
M  V30 3 C -3.73734 -1.26905 0.0124291 0
M  V30 4 C -4.61546 -0.210502 -0.189478 0
M  V30 5 N -5.8619 -0.504168 -0.785527 0
M  V30 6 C -4.23791 1.05193 0.193416 0
M  V30 7 C -2.99846 1.25555 0.770979 0
M  V30 8 N -2.1817 0.198091 0.946142 0
M  V30 9 C -2.51648 -1.04157 0.585769 0
M  V30 10 S -1.38896 -2.37764 0.845072 0
M  V30 11 C -0.34977 -2.53788 -0.623159 0
M  V30 12 C 0.507686 -1.30306 -0.710224 0
M  V30 13 C 0.276215 -0.116869 -1.33631 0
M  V30 14 C 1.40852 0.666156 -1.08665 0
M  V30 15 N 2.27129 -0.0210693 -0.348156 0
M  V30 16 N 1.72377 -1.19883 -0.127547 0
M  V30 17 C 3.56318 0.396155 0.140917 0
M  V30 18 C 4.31152 -0.461889 0.912292 0
M  V30 19 C 5.55648 -0.149736 1.42374 0
M  V30 20 C 6.05085 1.10102 1.12684 0
M  V30 21 C 5.30532 1.97969 0.347856 0
M  V30 22 C 4.0641 1.62088 -0.140891 0
M  V30 23 N -2.60056 2.54778 1.16823 0
M  V30 24 H -6.66421 -0.683975 -0.139727 0
M  V30 25 H -6.03305 -0.552835 -1.80037 0
M  V30 26 H -4.93346 1.87378 0.0311091 0
M  V30 27 H -0.915004 -2.68385 -1.54391 0
M  V30 28 H 0.293368 -3.44479 -0.48386 0
M  V30 29 H -0.609576 0.115243 -1.89212 0
M  V30 30 H 1.53416 1.67447 -1.45291 0
M  V30 31 H 3.89317 -1.43831 1.12702 0
M  V30 32 H 6.09397 -0.880925 2.0283 0
M  V30 33 H 7.02185 1.34392 1.52612 0
M  V30 34 H 5.71078 2.94533 0.130172 0
M  V30 35 H 3.49985 2.31224 -0.74221 0
M  V30 36 H -2.72397 2.82397 2.16545 0
M  V30 37 H -2.18634 3.25514 0.523432 0
M  V30 END ATOM
M  V30 BEGIN BOND
M  V30 1 3 1 2
M  V30 2 1 2 3
M  V30 3 2 3 4
M  V30 4 1 4 5
M  V30 5 1 4 6
M  V30 6 2 6 7
M  V30 7 1 7 8
M  V30 8 2 8 9
M  V30 9 1 9 10
M  V30 10 1 10 11
M  V30 11 1 11 12
M  V30 12 1 12 13
M  V30 13 2 13 14
M  V30 14 1 14 15
M  V30 15 1 15 16
M  V30 16 1 15 17
M  V30 17 2 17 18
M  V30 18 1 18 19
M  V30 19 2 19 20
M  V30 20 1 20 21
M  V30 21 2 21 22
M  V30 22 1 7 23
M  V30 23 1 9 3
M  V30 24 2 16 12
M  V30 25 1 22 17
M  V30 26 1 5 24
M  V30 27 1 5 25
M  V30 28 1 6 26
M  V30 29 1 11 27
M  V30 30 1 11 28
M  V30 31 1 13 29
M  V30 32 1 14 30
M  V30 33 1 18 31
M  V30 34 1 19 32
M  V30 35 1 20 33
M  V30 36 1 21 34
M  V30 37 1 22 35
M  V30 38 1 23 36
M  V30 39 1 23 37
M  V30 END BOND
M  V30 END CTAB
M  END
