
     RDKit          3D

  0  0  0  0  0  0  0  0  0  0999 V3000
M  V30 BEGIN CTAB
M  V30 COUNTS 22 22 0 0 0
M  V30 BEGIN ATOM
M  V30 1 O -3.67605 -1.40431 0.587723 0
M  V30 2 C -2.85695 -0.274593 0.377904 0
M  V30 3 O -2.97053 0.646322 1.19476 0
M  V30 4 C -1.90756 -0.203833 -0.769346 0
M  V30 5 C -0.493911 -0.17957 -0.376168 0
M  V30 6 C 0.238277 -1.37155 -0.259929 0
M  V30 7 C 1.53695 -1.41704 0.152632 0
M  V30 8 C 2.20182 -0.25027 0.48273 0
M  V30 9 C 1.51407 0.936795 0.380227 0
M  V30 10 C 0.175998 0.970568 -0.0471951 0
M  V30 11 N -0.450505 2.2178 -0.155235 0
M  V30 12 Cl 2.38619 2.40638 0.800895 0
M  V30 13 N 3.55956 -0.317271 0.917521 0
M  V30 14 H -3.60836 -1.80288 1.53488 0
M  V30 15 H -2.10261 -0.923742 -1.57545 0
M  V30 16 H -2.10876 0.817447 -1.23839 0
M  V30 17 H -0.242437 -2.28307 -0.515046 0
M  V30 18 H 2.10374 -2.33506 0.252708 0
M  V30 19 H -0.88351 2.55905 -1.04224 0
M  V30 20 H -0.517424 2.89201 0.637762 0
M  V30 21 H 4.34577 -0.167034 0.23916 0
M  V30 22 H 3.75624 -0.516139 1.90498 0
M  V30 END ATOM
M  V30 BEGIN BOND
M  V30 1 1 1 2
M  V30 2 2 2 3
M  V30 3 1 2 4
M  V30 4 1 4 5
M  V30 5 2 5 6
M  V30 6 1 6 7
M  V30 7 2 7 8
M  V30 8 1 8 9
M  V30 9 2 9 10
M  V30 10 1 10 11
M  V30 11 1 9 12
M  V30 12 1 8 13
M  V30 13 1 10 5
M  V30 14 1 1 14
M  V30 15 1 4 15
M  V30 16 1 4 16
M  V30 17 1 6 17
M  V30 18 1 7 18
M  V30 19 1 11 19
M  V30 20 1 11 20
M  V30 21 1 13 21
M  V30 22 1 13 22
M  V30 END BOND
M  V30 END CTAB
M  END
