
     RDKit          3D

  0  0  0  0  0  0  0  0  0  0999 V3000
M  V30 BEGIN CTAB
M  V30 COUNTS 59 60 0 0 0
M  V30 BEGIN ATOM
M  V30 1 C 2.081 -3.35797 -1.83474 0
M  V30 2 C 2.07567 -1.92424 -1.45242 0
M  V30 3 C 1.02015 -1.07866 -1.77588 0
M  V30 4 C 1.05778 0.248162 -1.39988 0
M  V30 5 C -0.0769368 1.13403 -1.7539 0
M  V30 6 C -1.13062 1.17254 -0.733316 0
M  V30 7 C -2.17824 0.279547 -0.777518 0
M  V30 8 C -3.18873 0.282199 0.162178 0
M  V30 9 C -3.15915 1.2112 1.191 0
M  V30 10 N -4.21062 1.19647 2.14886 0
M  V30 11 C -2.10631 2.10735 1.23397 0
M  V30 12 C -2.12142 3.09127 2.36665 0
M  V30 13 C -1.10135 2.09635 0.2899 0
M  V30 14 C -4.32411 -0.690992 0.108146 0
M  V30 15 C -4.11766 -1.58296 -1.09738 0
M  V30 16 C -4.35811 -1.56227 1.33598 0
M  V30 17 C -5.64959 0.027759 -0.0718485 0
M  V30 18 C 2.16112 0.71746 -0.698307 0
M  V30 19 C 3.21722 -0.0924405 -0.364968 0
M  V30 20 C 3.16662 -1.40848 -0.744837 0
M  V30 21 N 4.25244 -2.25491 -0.405684 0
M  V30 22 C 4.36243 0.437843 0.374831 0
M  V30 23 C 5.63541 0.278667 -0.420704 0
M  V30 24 C 4.15601 1.93714 0.597056 0
M  V30 25 C 4.53449 -0.186413 1.73862 0
M  V30 26 H 2.44354 -3.4083 -2.88964 0
M  V30 27 H 1.0631 -3.79201 -1.83664 0
M  V30 28 H 2.7632 -3.91816 -1.14967 0
M  V30 29 H 0.191087 -1.49439 -2.31998 0
M  V30 30 H 0.294085 2.15723 -2.02514 0
M  V30 31 H -0.546123 0.743512 -2.70111 0
M  V30 32 H -2.25588 -0.479089 -1.56811 0
M  V30 33 H -5.08323 1.73546 2.07124 0
M  V30 34 H -4.08397 0.592422 2.99246 0
M  V30 35 H -2.99518 3.75839 2.16888 0
M  V30 36 H -2.31908 2.58046 3.32061 0
M  V30 37 H -1.21638 3.72137 2.36864 0
M  V30 38 H -0.291435 2.83477 0.378717 0
M  V30 39 H -4.98012 -2.29983 -1.09615 0
M  V30 40 H -3.21315 -2.19916 -1.03683 0
M  V30 41 H -4.18472 -0.963633 -2.018 0
M  V30 42 H -3.39349 -1.4883 1.85341 0
M  V30 43 H -5.22694 -1.28213 1.98869 0
M  V30 44 H -4.54672 -2.63208 1.04349 0
M  V30 45 H -6.25407 0.0314474 0.852448 0
M  V30 46 H -5.42317 1.05321 -0.44461 0
M  V30 47 H -6.25809 -0.481973 -0.847294 0
M  V30 48 H 2.16233 1.75227 -0.419733 0
M  V30 49 H 4.25539 -2.74461 0.513319 0
M  V30 50 H 5.03392 -2.38904 -1.05798 0
M  V30 51 H 5.35357 -0.000791191 -1.46679 0
M  V30 52 H 6.19115 -0.591065 0.0237968 0
M  V30 53 H 6.21582 1.19742 -0.369149 0
M  V30 54 H 5.03842 2.30612 1.16569 0
M  V30 55 H 4.09944 2.48846 -0.344408 0
M  V30 56 H 3.28193 2.08865 1.25489 0
M  V30 57 H 3.60522 -0.566626 2.16956 0
M  V30 58 H 4.93605 0.583826 2.42878 0
M  V30 59 H 5.34601 -0.972468 1.70202 0
M  V30 END ATOM
M  V30 BEGIN BOND
M  V30 1 1 1 2
M  V30 2 2 2 3
M  V30 3 1 3 4
M  V30 4 1 4 5
M  V30 5 1 5 6
M  V30 6 2 6 7
M  V30 7 1 7 8
M  V30 8 2 8 9
M  V30 9 1 9 10
M  V30 10 1 9 11
M  V30 11 1 11 12
M  V30 12 2 11 13
M  V30 13 1 8 14
M  V30 14 1 14 15
M  V30 15 1 14 16
M  V30 16 1 14 17
M  V30 17 2 4 18
M  V30 18 1 18 19
M  V30 19 2 19 20
M  V30 20 1 20 21
M  V30 21 1 19 22
M  V30 22 1 22 23
M  V30 23 1 22 24
M  V30 24 1 22 25
M  V30 25 1 20 2
M  V30 26 1 13 6
M  V30 27 1 1 26
M  V30 28 1 1 27
M  V30 29 1 1 28
M  V30 30 1 3 29
M  V30 31 1 5 30
M  V30 32 1 5 31
M  V30 33 1 7 32
M  V30 34 1 10 33
M  V30 35 1 10 34
M  V30 36 1 12 35
M  V30 37 1 12 36
M  V30 38 1 12 37
M  V30 39 1 13 38
M  V30 40 1 15 39
M  V30 41 1 15 40
M  V30 42 1 15 41
M  V30 43 1 16 42
M  V30 44 1 16 43
M  V30 45 1 16 44
M  V30 46 1 17 45
M  V30 47 1 17 46
M  V30 48 1 17 47
M  V30 49 1 18 48
M  V30 50 1 21 49
M  V30 51 1 21 50
M  V30 52 1 23 51
M  V30 53 1 23 52
M  V30 54 1 23 53
M  V30 55 1 24 54
M  V30 56 1 24 55
M  V30 57 1 24 56
M  V30 58 1 25 57
M  V30 59 1 25 58
M  V30 60 1 25 59
M  V30 END BOND
M  V30 END CTAB
M  END
