
     RDKit          3D

  0  0  0  0  0  0  0  0  0  0999 V3000
M  V30 BEGIN CTAB
M  V30 COUNTS 46 48 0 0 0
M  V30 BEGIN ATOM
M  V30 1 N 6.876 0.0628636 1.38535 0
M  V30 2 C 5.89774 -0.0919731 0.362161 0
M  V30 3 C 5.0126 0.925902 0.138152 0
M  V30 4 C 4.05565 0.768441 -0.866432 0
M  V30 5 C 4.04108 -0.400495 -1.58872 0
M  V30 6 C 4.9413 -1.4032 -1.34121 0
M  V30 7 C 5.88758 -1.26919 -0.360992 0
M  V30 8 S 2.8553 -0.640263 -2.8564 0
M  V30 9 O 3.47605 -1.5902 -3.86514 0
M  V30 10 O 2.53805 0.624266 -3.56729 0
M  V30 11 N 1.48772 -1.3935 -2.15487 0
M  V30 12 C 0.75888 -0.760749 -1.13791 0
M  V30 13 C 0.404239 -1.46354 -0.00388832 0
M  V30 14 C -0.312188 -0.870932 1.02403 0
M  V30 15 C -0.678969 0.450654 0.911253 0
M  V30 16 N -1.41957 1.09075 1.95446 0
M  V30 17 S -2.76711 2.06693 1.5958 0
M  V30 18 O -2.47059 3.26871 0.779969 0
M  V30 19 O -3.38827 2.54431 2.89233 0
M  V30 20 C -4.00977 1.10679 0.795743 0
M  V30 21 C -4.05036 0.984842 -0.577236 0
M  V30 22 C -5.047 0.216738 -1.1811 0
M  V30 23 C -6.01389 -0.439791 -0.448869 0
M  V30 24 N -7.01767 -1.21565 -1.09 0
M  V30 25 C -5.96465 -0.311253 0.927909 0
M  V30 26 C -4.97601 0.450517 1.52455 0
M  V30 27 C -0.323518 1.14163 -0.217038 0
M  V30 28 C 0.394056 0.551851 -1.24919 0
M  V30 29 H 6.5338 0.0390033 2.37042 0
M  V30 30 H 7.86448 0.189854 1.11346 0
M  V30 31 H 5.03351 1.84344 0.714142 0
M  V30 32 H 3.36709 1.56402 -1.03888 0
M  V30 33 H 4.93468 -2.33197 -1.91042 0
M  V30 34 H 6.61369 -2.02904 -0.131697 0
M  V30 35 H 1.19854 -2.33279 -2.49184 0
M  V30 36 H 0.688127 -2.51 0.0981812 0
M  V30 37 H -0.594594 -1.41149 1.91509 0
M  V30 38 H -1.10839 0.938835 2.917 0
M  V30 39 H -3.30121 1.49195 -1.17452 0
M  V30 40 H -5.04068 0.148321 -2.26695 0
M  V30 41 H -6.77625 -1.67161 -1.99495 0
M  V30 42 H -7.98212 -1.36672 -0.726262 0
M  V30 43 H -6.72057 -0.824229 1.50467 0
M  V30 44 H -4.96781 0.5294 2.60817 0
M  V30 45 H -0.585941 2.18441 -0.356872 0
M  V30 46 H 0.656983 1.14414 -2.14283 0
M  V30 END ATOM
M  V30 BEGIN BOND
M  V30 1 1 1 2
M  V30 2 2 2 3
M  V30 3 1 3 4
M  V30 4 2 4 5
M  V30 5 1 5 6
M  V30 6 2 6 7
M  V30 7 1 5 8
M  V30 8 2 8 9
M  V30 9 2 8 10
M  V30 10 1 8 11
M  V30 11 1 11 12
M  V30 12 2 12 13
M  V30 13 1 13 14
M  V30 14 2 14 15
M  V30 15 1 15 16
M  V30 16 1 16 17
M  V30 17 2 17 18
M  V30 18 2 17 19
M  V30 19 1 17 20
M  V30 20 2 20 21
M  V30 21 1 21 22
M  V30 22 2 22 23
M  V30 23 1 23 24
M  V30 24 1 23 25
M  V30 25 2 25 26
M  V30 26 1 15 27
M  V30 27 2 27 28
M  V30 28 1 7 2
M  V30 29 1 28 12
M  V30 30 1 26 20
M  V30 31 1 1 29
M  V30 32 1 1 30
M  V30 33 1 3 31
M  V30 34 1 4 32
M  V30 35 1 6 33
M  V30 36 1 7 34
M  V30 37 1 11 35
M  V30 38 1 13 36
M  V30 39 1 14 37
M  V30 40 1 16 38
M  V30 41 1 21 39
M  V30 42 1 22 40
M  V30 43 1 24 41
M  V30 44 1 24 42
M  V30 45 1 25 43
M  V30 46 1 26 44
M  V30 47 1 27 45
M  V30 48 1 28 46
M  V30 END BOND
M  V30 END CTAB
M  END
