
     RDKit          3D

  0  0  0  0  0  0  0  0  0  0999 V3000
M  V30 BEGIN CTAB
M  V30 COUNTS 16 16 0 0 0
M  V30 BEGIN ATOM
M  V30 1 N 1.97556 0.968454 -0.00951937 0
M  V30 2 C 0.612534 0.557145 0.00128934 0
M  V30 3 C -0.39638 1.51012 0.0305222 0
M  V30 4 C -1.73284 1.16174 0.0420382 0
M  V30 5 C -2.06248 -0.176506 0.0237281 0
M  V30 6 F -3.35236 -0.6055 0.0332853 0
M  V30 7 C -1.06153 -1.11777 -0.00520314 0
M  V30 8 C 0.286361 -0.788363 -0.01719 0
M  V30 9 N 1.31012 -1.76275 -0.046988 0
M  V30 10 H 2.51658 1.11486 -0.907866 0
M  V30 11 H 2.49492 1.14219 0.888019 0
M  V30 12 H -0.14326 2.55561 0.0448775 0
M  V30 13 H -2.53994 1.88368 0.0647308 0
M  V30 14 H -1.28389 -2.18057 -0.020246 0
M  V30 15 H 2.26496 -1.55101 0.287146 0
M  V30 16 H 1.11163 -2.71133 -0.408624 0
M  V30 END ATOM
M  V30 BEGIN BOND
M  V30 1 1 1 2
M  V30 2 2 2 3
M  V30 3 1 3 4
M  V30 4 2 4 5
M  V30 5 1 5 6
M  V30 6 1 5 7
M  V30 7 2 7 8
M  V30 8 1 8 9
M  V30 9 1 8 2
M  V30 10 1 1 10
M  V30 11 1 1 11
M  V30 12 1 3 12
M  V30 13 1 4 13
M  V30 14 1 7 14
M  V30 15 1 9 15
M  V30 16 1 9 16
M  V30 END BOND
M  V30 END CTAB
M  END
