
     RDKit          3D

  0  0  0  0  0  0  0  0  0  0999 V3000
M  V30 BEGIN CTAB
M  V30 COUNTS 37 37 0 0 0
M  V30 BEGIN ATOM
M  V30 1 N -0.475594 -2.03074 1.65802 0
M  V30 2 C -0.575166 -2.12881 0.208455 0
M  V30 3 C -0.622933 -0.76917 -0.456803 0
M  V30 4 N -0.720453 -1.02183 -1.88502 0
M  V30 5 C -2.00363 -0.204915 -0.0744097 0
M  V30 6 C -2.25412 1.14301 -0.656451 0
M  V30 7 C -1.98234 2.19044 0.398757 0
M  V30 8 C -0.501057 2.34201 0.625998 0
M  V30 9 C 0.142761 1.05344 1.08881 0
M  V30 10 C 0.480251 0.141977 -0.0754933 0
M  V30 11 C 1.82246 -0.508948 0.0770911 0
M  V30 12 C 2.89846 0.509573 0.481401 0
M  V30 13 C 2.29332 -1.04768 -1.27482 0
M  V30 14 H -1.40456 -2.06926 2.12728 0
M  V30 15 H 0.128789 -2.76576 2.06826 0
M  V30 16 H -1.5993 -2.57795 0.0249603 0
M  V30 17 H 0.121736 -2.83624 -0.227331 0
M  V30 18 H -0.513833 -0.137113 -2.37517 0
M  V30 19 H -0.128929 -1.7752 -2.23504 0
M  V30 20 H -2.16633 -0.266613 1.01755 0
M  V30 21 H -2.73197 -0.907405 -0.534992 0
M  V30 22 H -3.35535 1.22956 -0.893088 0
M  V30 23 H -1.66985 1.32737 -1.55829 0
M  V30 24 H -2.54759 1.97426 1.30379 0
M  V30 25 H -2.34236 3.15796 -0.0159735 0
M  V30 26 H -0.347395 3.16456 1.34295 0
M  V30 27 H -0.0413674 2.63426 -0.337791 0
M  V30 28 H -0.443092 0.547893 1.87695 0
M  V30 29 H 1.0982 1.35983 1.5651 0
M  V30 30 H 0.603591 0.86796 -0.940281 0
M  V30 31 H 1.89066 -1.30041 0.814359 0
M  V30 32 H 2.77237 1.46827 -0.0152828 0
M  V30 33 H 3.86806 0.0722396 0.160308 0
M  V30 34 H 2.97601 0.578042 1.5965 0
M  V30 35 H 1.84551 -0.422683 -2.09502 0
M  V30 36 H 2.08124 -2.11347 -1.37447 0
M  V30 37 H 3.40382 -0.87846 -1.41081 0
M  V30 END ATOM
M  V30 BEGIN BOND
M  V30 1 1 1 2
M  V30 2 1 2 3
M  V30 3 1 3 4
M  V30 4 1 3 5
M  V30 5 1 5 6
M  V30 6 1 6 7
M  V30 7 1 7 8
M  V30 8 1 8 9
M  V30 9 1 9 10
M  V30 10 1 10 11
M  V30 11 1 11 12
M  V30 12 1 11 13
M  V30 13 1 10 3
M  V30 14 1 1 14
M  V30 15 1 1 15
M  V30 16 1 2 16
M  V30 17 1 2 17
M  V30 18 1 4 18
M  V30 19 1 4 19
M  V30 20 1 5 20
M  V30 21 1 5 21
M  V30 22 1 6 22
M  V30 23 1 6 23
M  V30 24 1 7 24
M  V30 25 1 7 25
M  V30 26 1 8 26
M  V30 27 1 8 27
M  V30 28 1 9 28
M  V30 29 1 9 29
M  V30 30 1 10 30
M  V30 31 1 11 31
M  V30 32 1 12 32
M  V30 33 1 12 33
M  V30 34 1 12 34
M  V30 35 1 13 35
M  V30 36 1 13 36
M  V30 37 1 13 37
M  V30 END BOND
M  V30 END CTAB
M  END
