
     RDKit          3D

  0  0  0  0  0  0  0  0  0  0999 V3000
M  V30 BEGIN CTAB
M  V30 COUNTS 55 59 0 0 0
M  V30 BEGIN ATOM
M  V30 1 C 7.34613 -0.850021 -1.59062 0
M  V30 2 N 7.43161 0.50817 -1.03735 0
M  V30 3 C 7.2189 0.465574 0.386779 0
M  V30 4 C 5.84463 0.951182 0.799813 0
M  V30 5 N 4.79987 0.604862 -0.107097 0
M  V30 6 C 5.10713 0.59655 -1.52985 0
M  V30 7 C 6.43069 1.30778 -1.71623 0
M  V30 8 C 3.47127 0.270914 0.30173 0
M  V30 9 C 3.0493 0.336898 1.61237 0
M  V30 10 C 1.74912 0.000778037 1.97788 0
M  V30 11 C 0.825924 -0.412941 1.04453 0
M  V30 12 C 1.24773 -0.478628 -0.264355 0
M  V30 13 C 2.53707 -0.145596 -0.628095 0
M  V30 14 C -0.541971 -0.763333 1.45224 0
M  V30 15 C -1.72162 -0.387328 0.841789 0
M  V30 16 N -1.932 0.379028 -0.25825 0
M  V30 17 C -3.2096 0.577213 -0.623263 0
M  V30 18 C -4.28627 0.0393287 0.0683062 0
M  V30 19 C -5.61605 0.310333 -0.412518 0
M  V30 20 C -6.51532 -0.716029 -0.538415 0
M  V30 21 C -7.79119 -0.387233 -1.00672 0
M  V30 22 N -8.71343 -1.45708 -1.13308 0
M  V30 23 C -8.08857 0.909122 -1.31385 0
M  V30 24 C -7.18622 1.92975 -1.18613 0
M  V30 25 C -5.93226 1.61706 -0.727574 0
M  V30 26 C -4.00697 -0.726604 1.17263 0
M  V30 27 N -5.05382 -1.30435 1.93123 0
M  V30 28 N -2.72508 -0.926138 1.53959 0
M  V30 29 N -2.24403 -1.63308 2.57324 0
M  V30 30 C -0.91854 -1.54217 2.5314 0
M  V30 31 H 7.13156 -0.84151 -2.67437 0
M  V30 32 H 6.59536 -1.45248 -1.03106 0
M  V30 33 H 8.32809 -1.35672 -1.4733 0
M  V30 34 H 7.95258 1.16889 0.842838 0
M  V30 35 H 7.40661 -0.530184 0.822218 0
M  V30 36 H 5.65857 0.498001 1.79512 0
M  V30 37 H 5.8463 2.06235 0.971018 0
M  V30 38 H 4.29736 1.164 -2.07697 0
M  V30 39 H 5.0987 -0.420479 -1.95673 0
M  V30 40 H 6.33657 2.30671 -1.27051 0
M  V30 41 H 6.70116 1.35616 -2.78084 0
M  V30 42 H 3.73493 0.65596 2.37382 0
M  V30 43 H 1.44338 0.0636478 3.03039 0
M  V30 44 H 0.521284 -0.807235 -1.01975 0
M  V30 45 H 2.85433 -0.206408 -1.68233 0
M  V30 46 H -3.4103 1.18291 -1.49493 0
M  V30 47 H -6.26326 -1.74177 -0.293089 0
M  V30 48 H -9.2955 -1.52933 -1.99672 0
M  V30 49 H -8.76894 -2.13256 -0.346313 0
M  V30 50 H -9.0833 1.12833 -1.673 0
M  V30 51 H -7.41002 2.94362 -1.42374 0
M  V30 52 H -5.20544 2.41917 -0.621497 0
M  V30 53 H -5.22606 -2.32111 1.89895 0
M  V30 54 H -5.64659 -0.698198 2.51986 0
M  V30 55 H -0.173847 -1.98578 3.20909 0
M  V30 END ATOM
M  V30 BEGIN BOND
M  V30 1 1 1 2
M  V30 2 1 2 3
M  V30 3 1 3 4
M  V30 4 1 4 5
M  V30 5 1 5 6
M  V30 6 1 6 7
M  V30 7 1 5 8
M  V30 8 2 8 9
M  V30 9 1 9 10
M  V30 10 2 10 11
M  V30 11 1 11 12
M  V30 12 2 12 13
M  V30 13 1 11 14
M  V30 14 2 14 15
M  V30 15 1 15 16
M  V30 16 2 16 17
M  V30 17 1 17 18
M  V30 18 1 18 19
M  V30 19 2 19 20
M  V30 20 1 20 21
M  V30 21 1 21 22
M  V30 22 2 21 23
M  V30 23 1 23 24
M  V30 24 2 24 25
M  V30 25 2 18 26
M  V30 26 1 26 27
M  V30 27 1 26 28
M  V30 28 1 28 29
M  V30 29 2 29 30
M  V30 30 1 7 2
M  V30 31 1 13 8
M  V30 32 1 30 14
M  V30 33 1 28 15
M  V30 34 1 25 19
M  V30 35 1 1 31
M  V30 36 1 1 32
M  V30 37 1 1 33
M  V30 38 1 3 34
M  V30 39 1 3 35
M  V30 40 1 4 36
M  V30 41 1 4 37
M  V30 42 1 6 38
M  V30 43 1 6 39
M  V30 44 1 7 40
M  V30 45 1 7 41
M  V30 46 1 9 42
M  V30 47 1 10 43
M  V30 48 1 12 44
M  V30 49 1 13 45
M  V30 50 1 17 46
M  V30 51 1 20 47
M  V30 52 1 22 48
M  V30 53 1 22 49
M  V30 54 1 23 50
M  V30 55 1 24 51
M  V30 56 1 25 52
M  V30 57 1 27 53
M  V30 58 1 27 54
M  V30 59 1 30 55
M  V30 END BOND
M  V30 END CTAB
M  END
