
     RDKit          3D

  0  0  0  0  0  0  0  0  0  0999 V3000
M  V30 BEGIN CTAB
M  V30 COUNTS 11 10 0 0 0
M  V30 BEGIN ATOM
M  V30 1 N 2.01913 0.557219 0.0981375 0
M  V30 2 C 1.5389 -0.3158 1.10942 0
M  V30 3 S 2.58951 -0.908342 2.20751 0
M  V30 4 S -0.158503 -0.787325 1.22556 0
M  V30 5 C -1.16737 -0.066343 -0.0297463 0
M  V30 6 N -2.53937 -0.341248 -0.076373 0
M  V30 7 S -0.496903 0.910142 -1.12083 0
M  V30 8 H 2.57953 0.254298 -0.723598 0
M  V30 9 H 1.78092 1.58762 0.202924 0
M  V30 10 H -3.05915 -0.369868 0.83146 0
M  V30 11 H -3.08669 -0.52035 -0.945686 0
M  V30 END ATOM
M  V30 BEGIN BOND
M  V30 1 1 1 2
M  V30 2 2 2 3
M  V30 3 1 2 4
M  V30 4 1 4 5
M  V30 5 1 5 6
M  V30 6 2 5 7
M  V30 7 1 1 8
M  V30 8 1 1 9
M  V30 9 1 6 10
M  V30 10 1 6 11
M  V30 END BOND
M  V30 END CTAB
M  END
