
     RDKit          3D

  0  0  0  0  0  0  0  0  0  0999 V3000
M  V30 BEGIN CTAB
M  V30 COUNTS 22 22 0 0 0
M  V30 BEGIN ATOM
M  V30 1 N -3.44469 0.449599 -1.52301 0
M  V30 2 C -2.8829 -0.43395 -0.551011 0
M  V30 3 C -1.40392 -0.478387 -0.757395 0
M  V30 4 C -0.547726 -0.121328 0.16746 0
M  V30 5 C 0.871823 -0.182399 -0.0806964 0
M  V30 6 N 1.53288 -0.574486 -1.18826 0
M  V30 7 N 2.83139 -0.465913 -0.966755 0
M  V30 8 C 3.05776 -0.00683604 0.272514 0
M  V30 9 N 1.83543 0.161016 0.800677 0
M  V30 10 N 4.27399 0.264145 0.941719 0
M  V30 11 C -1.04477 0.345954 1.47083 0
M  V30 12 H -2.79531 1.27997 -1.60177 0
M  V30 13 H -4.39265 0.774229 -1.24217 0
M  V30 14 H -3.29116 -1.46127 -0.770094 0
M  V30 15 H -3.06917 -0.172843 0.491504 0
M  V30 16 H -1.00282 -0.820938 -1.71507 0
M  V30 17 H 3.58303 -0.704551 -1.66095 0
M  V30 18 H 5.11993 0.652676 0.470874 0
M  V30 19 H 4.31804 0.0608752 1.96324 0
M  V30 20 H -1.5495 -0.472577 2.03998 0
M  V30 21 H -0.197183 0.756132 2.05511 0
M  V30 22 H -1.80249 1.15088 1.38326 0
M  V30 END ATOM
M  V30 BEGIN BOND
M  V30 1 1 1 2
M  V30 2 1 2 3
M  V30 3 2 3 4 CFG=2
M  V30 4 1 4 5
M  V30 5 2 5 6
M  V30 6 1 6 7
M  V30 7 1 7 8
M  V30 8 2 8 9
M  V30 9 1 8 10
M  V30 10 1 4 11
M  V30 11 1 9 5
M  V30 12 1 1 12
M  V30 13 1 1 13
M  V30 14 1 2 14
M  V30 15 1 2 15
M  V30 16 1 3 16
M  V30 17 1 7 17
M  V30 18 1 10 18
M  V30 19 1 10 19
M  V30 20 1 11 20
M  V30 21 1 11 21
M  V30 22 1 11 22
M  V30 END BOND
M  V30 END CTAB
M  END
