
     RDKit          3D

  0  0  0  0  0  0  0  0  0  0999 V3000
M  V30 BEGIN CTAB
M  V30 COUNTS 42 44 0 0 0
M  V30 BEGIN ATOM
M  V30 1 N -5.52672 2.91718 0.53541 0
M  V30 2 C -4.68553 1.79129 0.312138 0
M  V30 3 C -3.5779 1.5903 1.11908 0
M  V30 4 C -2.70967 0.53047 0.976534 0
M  V30 5 C -2.94454 -0.397441 -0.027993 0
M  V30 6 C -4.05817 -0.18966 -0.834748 0
M  V30 7 C -4.91872 0.875103 -0.681229 0
M  V30 8 C -4.28772 -1.12067 -1.84316 0
M  V30 9 C -3.42834 -2.17371 -1.99249 0
M  V30 10 C -2.34344 -2.32554 -1.16245 0
M  V30 11 O -1.52904 -3.29637 -1.2805 0
M  V30 12 N -2.09596 -1.42865 -0.167381 0
M  V30 13 C -0.950778 -1.6286 0.689466 0
M  V30 14 C 0.294126 -0.934696 0.187422 0
M  V30 15 O 1.32619 -1.20693 1.10473 0
M  V30 16 C 2.61988 -0.720401 0.952122 0
M  V30 17 C 3.62023 -0.995228 1.85847 0
M  V30 18 C 4.89518 -0.494323 1.67436 0
M  V30 19 C 5.22302 0.294846 0.587984 0
M  V30 20 C 4.22158 0.569923 -0.319277 0
M  V30 21 C 2.94021 0.0662423 -0.133842 0
M  V30 22 C 4.57819 1.41975 -1.48747 0
M  V30 23 N 6.5491 0.793586 0.431507 0
M  V30 24 H -5.14553 3.87561 0.63288 0
M  V30 25 H -6.55212 2.78573 0.604155 0
M  V30 26 H -3.3792 2.30722 1.91067 0
M  V30 27 H -1.84566 0.400392 1.62302 0
M  V30 28 H -5.76301 0.978397 -1.33931 0
M  V30 29 H -5.16551 -0.969396 -2.48989 0
M  V30 30 H -3.60612 -2.88328 -2.76378 0
M  V30 31 H -0.714212 -2.73943 0.639994 0
M  V30 32 H -1.10577 -1.43409 1.74575 0
M  V30 33 H 0.546955 -1.20453 -0.843793 0
M  V30 34 H 0.102536 0.165483 0.242724 0
M  V30 35 H 3.39142 -1.61011 2.71756 0
M  V30 36 H 5.70801 -0.699944 2.38296 0
M  V30 37 H 2.15429 0.296902 -0.869104 0
M  V30 38 H 5.0826 0.746924 -2.2217 0
M  V30 39 H 3.67923 1.85601 -1.97573 0
M  V30 40 H 5.26414 2.23191 -1.2047 0
M  V30 41 H 7.01584 1.41034 1.13227 0
M  V30 42 H 7.12092 0.549413 -0.422675 0
M  V30 END ATOM
M  V30 BEGIN BOND
M  V30 1 1 1 2
M  V30 2 2 2 3
M  V30 3 1 3 4
M  V30 4 2 4 5
M  V30 5 1 5 6
M  V30 6 2 6 7
M  V30 7 1 6 8
M  V30 8 2 8 9
M  V30 9 1 9 10
M  V30 10 2 10 11
M  V30 11 1 10 12
M  V30 12 1 12 13
M  V30 13 1 13 14
M  V30 14 1 14 15
M  V30 15 1 15 16
M  V30 16 2 16 17
M  V30 17 1 17 18
M  V30 18 2 18 19
M  V30 19 1 19 20
M  V30 20 2 20 21
M  V30 21 1 20 22
M  V30 22 1 19 23
M  V30 23 1 7 2
M  V30 24 1 21 16
M  V30 25 1 12 5
M  V30 26 1 1 24
M  V30 27 1 1 25
M  V30 28 1 3 26
M  V30 29 1 4 27
M  V30 30 1 7 28
M  V30 31 1 8 29
M  V30 32 1 9 30
M  V30 33 1 13 31
M  V30 34 1 13 32
M  V30 35 1 14 33
M  V30 36 1 14 34
M  V30 37 1 17 35
M  V30 38 1 18 36
M  V30 39 1 21 37
M  V30 40 1 22 38
M  V30 41 1 22 39
M  V30 42 1 22 40
M  V30 43 1 23 41
M  V30 44 1 23 42
M  V30 END BOND
M  V30 END CTAB
M  END
