
     RDKit          3D

  0  0  0  0  0  0  0  0  0  0999 V3000
M  V30 BEGIN CTAB
M  V30 COUNTS 18 18 0 0 0
M  V30 BEGIN ATOM
M  V30 1 Br 3.80107 0.791773 0.222214 0
M  V30 2 C 2.16993 -0.19372 0.185355 0
M  V30 3 C 2.23081 -1.56151 0.370248 0
M  V30 4 N 1.0555 -2.21939 0.336872 0
M  V30 5 C -0.121951 -1.60435 0.136963 0
M  V30 6 C -0.18795 -0.260023 -0.0453823 0
M  V30 7 C 0.982883 0.478027 -0.022937 0
M  V30 8 N 0.950248 1.90314 -0.212458 0
M  V30 9 S -1.66937 0.621621 -0.31098 0
M  V30 10 O -1.57949 1.35328 -1.6318 0
M  V30 11 O -1.82017 1.64694 0.777508 0
M  V30 12 N -3.03792 -0.419756 -0.313841 0
M  V30 13 H 3.18011 -2.07751 0.534052 0
M  V30 14 H -1.06952 -2.15567 0.112792 0
M  V30 15 H 1.17817 2.47034 0.63714 0
M  V30 16 H 0.724057 2.35756 -1.10143 0
M  V30 17 H -2.89891 -1.24898 0.336548 0
M  V30 18 H -3.88748 0.118228 -0.01087 0
M  V30 END ATOM
M  V30 BEGIN BOND
M  V30 1 1 1 2
M  V30 2 2 2 3
M  V30 3 1 3 4
M  V30 4 2 4 5
M  V30 5 1 5 6
M  V30 6 2 6 7
M  V30 7 1 7 8
M  V30 8 1 6 9
M  V30 9 2 9 10
M  V30 10 2 9 11
M  V30 11 1 9 12
M  V30 12 1 7 2
M  V30 13 1 3 13
M  V30 14 1 5 14
M  V30 15 1 8 15
M  V30 16 1 8 16
M  V30 17 1 12 17
M  V30 18 1 12 18
M  V30 END BOND
M  V30 END CTAB
M  END
