
     RDKit          3D

  0  0  0  0  0  0  0  0  0  0999 V3000
M  V30 BEGIN CTAB
M  V30 COUNTS 46 49 0 0 0
M  V30 BEGIN ATOM
M  V30 1 N -0.624819 -3.0623 0.888606 0
M  V30 2 C -1.45675 -2.39037 0.425888 0
M  V30 3 C -2.49245 -1.5454 -0.127901 0
M  V30 4 C -3.70866 -2.05908 -0.148305 0
M  V30 5 N -4.00728 -3.35854 0.337473 0
M  V30 6 S -5.00074 -1.05001 -0.820362 0
M  V30 7 C -4.21547 0.222537 -1.79527 0
M  V30 8 C -2.94263 0.434958 -1.55588 0
M  V30 9 C -2.08327 -0.230759 -0.598604 0
M  V30 10 C -1.89436 0.682217 0.567953 0
M  V30 11 C -2.80118 1.16151 1.50887 0
M  V30 12 C -2.39058 2.00394 2.5082 0
M  V30 13 C -1.07031 2.372 2.57229 0
M  V30 14 C -0.153858 1.91417 1.65709 0
M  V30 15 C -0.572359 1.0641 0.650077 0
M  V30 16 N 0.186337 0.465743 -0.402697 0
M  V30 17 C -0.717692 -0.319833 -1.16444 0
M  V30 18 O -0.34064 -0.982561 -2.17927 0
M  V30 19 C 1.62084 0.648992 -0.624607 0
M  V30 20 C 2.32029 -0.434504 0.155335 0
M  V30 21 C 3.79279 -0.364808 0.0170635 0
M  V30 22 C 4.60733 0.362112 0.857873 0
M  V30 23 C 5.96391 0.344806 0.621861 0
M  V30 24 C 6.52244 -0.36792 -0.415572 0
M  V30 25 C 5.71568 -1.0961 -1.25928 0
M  V30 26 C 4.36196 -1.07621 -1.02027 0
M  V30 27 C -2.32664 1.4807 -2.36605 0
M  V30 28 N -1.84605 2.32293 -2.99835 0
M  V30 29 N -4.95373 0.956695 -2.77733 0
M  V30 30 H -4.94463 -3.51627 0.758069 0
M  V30 31 H -3.33028 -4.14438 0.287064 0
M  V30 32 H -3.82594 0.87007 1.45138 0
M  V30 33 H -3.09867 2.38571 3.25301 0
M  V30 34 H -0.742921 3.05009 3.37771 0
M  V30 35 H 0.880039 2.1935 1.69531 0
M  V30 36 H 1.88441 0.554889 -1.69489 0
M  V30 37 H 1.90959 1.65164 -0.291291 0
M  V30 38 H 1.93573 -1.41505 -0.165226 0
M  V30 39 H 2.08872 -0.315613 1.23669 0
M  V30 40 H 4.16406 0.911197 1.65915 0
M  V30 41 H 6.65161 0.903246 1.25808 0
M  V30 42 H 7.58071 -0.379961 -0.597744 0
M  V30 43 H 6.11367 -1.67568 -2.09408 0
M  V30 44 H 3.72433 -1.66191 -1.70067 0
M  V30 45 H -5.61463 1.6977 -2.45664 0
M  V30 46 H -4.86791 0.791775 -3.80293 0
M  V30 END ATOM
M  V30 BEGIN BOND
M  V30 1 3 1 2
M  V30 2 1 2 3
M  V30 3 2 3 4
M  V30 4 1 4 5
M  V30 5 1 4 6
M  V30 6 1 6 7
M  V30 7 2 7 8
M  V30 8 1 8 9
M  V30 9 1 9 10
M  V30 10 2 10 11
M  V30 11 1 11 12
M  V30 12 2 12 13
M  V30 13 1 13 14
M  V30 14 2 14 15
M  V30 15 1 15 16
M  V30 16 1 16 17
M  V30 17 2 17 18
M  V30 18 1 16 19
M  V30 19 1 19 20
M  V30 20 1 20 21
M  V30 21 2 21 22
M  V30 22 1 22 23
M  V30 23 2 23 24
M  V30 24 1 24 25
M  V30 25 2 25 26
M  V30 26 1 8 27
M  V30 27 3 27 28
M  V30 28 1 7 29
M  V30 29 1 9 3
M  V30 30 1 15 10
M  V30 31 1 26 21
M  V30 32 1 17 9
M  V30 33 1 5 30
M  V30 34 1 5 31
M  V30 35 1 11 32
M  V30 36 1 12 33
M  V30 37 1 13 34
M  V30 38 1 14 35
M  V30 39 1 19 36
M  V30 40 1 19 37
M  V30 41 1 20 38
M  V30 42 1 20 39
M  V30 43 1 22 40
M  V30 44 1 23 41
M  V30 45 1 24 42
M  V30 46 1 25 43
M  V30 47 1 26 44
M  V30 48 1 29 45
M  V30 49 1 29 46
M  V30 END BOND
M  V30 END CTAB
M  END
