
     RDKit          3D

  0  0  0  0  0  0  0  0  0  0999 V3000
M  V30 BEGIN CTAB
M  V30 COUNTS 37 36 0 0 0
M  V30 BEGIN ATOM
M  V30 1 C -0.17228 0.108067 1.30742 0 CFG=1
M  V30 2 N -0.654908 -1.10858 1.99158 0
M  V30 3 C 1.02834 -0.196327 0.491851 0
M  V30 4 C 1.63903 0.925481 -0.259603 0
M  V30 5 C 2.8661 0.501715 -1.04373 0
M  V30 6 N 3.89667 -0.0262318 -0.193506 0
M  V30 7 C 5.10102 -0.461732 -0.792228 0
M  V30 8 N 5.16331 -1.57595 -1.66789 0
M  V30 9 N 6.18492 0.167335 -0.541045 0
M  V30 10 C -1.32385 0.669807 0.598165 0
M  V30 11 O -1.20634 1.75197 -0.00560824 0
M  V30 12 N -2.56296 0.00187549 0.589872 0
M  V30 13 C -3.70795 0.551524 -0.110192 0 CFG=1
M  V30 14 C -4.17004 -0.396427 -1.18058 0
M  V30 15 O -3.1257 -0.591239 -2.0782 0
M  V30 16 C -4.84813 0.800697 0.810027 0
M  V30 17 O -6.00156 1.32297 0.275605 0
M  V30 18 O -4.81375 0.560998 2.04146 0
M  V30 19 H 0.0965874 0.802972 2.15654 0
M  V30 20 H -0.864678 -1.86213 1.31135 0
M  V30 21 H -0.0237686 -1.38268 2.76299 0
M  V30 22 H 0.736666 -0.986122 -0.25079 0
M  V30 23 H 1.76736 -0.700096 1.15579 0
M  V30 24 H 1.9229 1.79153 0.356382 0
M  V30 25 H 0.919263 1.28123 -1.05561 0
M  V30 26 H 3.27415 1.36017 -1.6115 0
M  V30 27 H 2.61673 -0.288095 -1.79189 0
M  V30 28 H 3.8038 -0.106128 0.848361 0
M  V30 29 H 5.83304 -1.59965 -2.49288 0
M  V30 30 H 4.57362 -2.41568 -1.55978 0
M  V30 31 H 6.15585 0.98415 0.0973067 0
M  V30 32 H -2.72018 -0.910615 1.07999 0
M  V30 33 H -3.46032 1.51938 -0.603732 0
M  V30 34 H -5.01757 0.0147493 -1.73487 0
M  V30 35 H -4.39199 -1.37901 -0.707053 0
M  V30 36 H -2.49338 -1.24642 -1.70148 0
M  V30 37 H -6.02 2.11651 -0.368905 0
M  V30 END ATOM
M  V30 BEGIN BOND
M  V30 1 1 1 2
M  V30 2 1 1 3
M  V30 3 1 3 4
M  V30 4 1 4 5
M  V30 5 1 5 6
M  V30 6 1 6 7
M  V30 7 1 7 8
M  V30 8 2 7 9 CFG=2
M  V30 9 1 1 10
M  V30 10 2 10 11
M  V30 11 1 10 12
M  V30 12 1 12 13
M  V30 13 1 13 14
M  V30 14 1 14 15
M  V30 15 1 13 16
M  V30 16 1 16 17
M  V30 17 2 16 18
M  V30 18 1 1 19 CFG=1
M  V30 19 1 2 20
M  V30 20 1 2 21
M  V30 21 1 3 22
M  V30 22 1 3 23
M  V30 23 1 4 24
M  V30 24 1 4 25
M  V30 25 1 5 26
M  V30 26 1 5 27
M  V30 27 1 6 28
M  V30 28 1 8 29
M  V30 29 1 8 30
M  V30 30 1 9 31
M  V30 31 1 12 32
M  V30 32 1 13 33 CFG=3
M  V30 33 1 14 34
M  V30 34 1 14 35
M  V30 35 1 15 36
M  V30 36 1 17 37
M  V30 END BOND
M  V30 END CTAB
M  END
