
     RDKit          3D

  0  0  0  0  0  0  0  0  0  0999 V3000
M  V30 BEGIN CTAB
M  V30 COUNTS 22 22 0 0 0
M  V30 BEGIN ATOM
M  V30 1 N -2.80238 1.28063 0.519875 0
M  V30 2 C -1.4915 0.856577 0.171331 0
M  V30 3 C -0.509895 1.74443 -0.175897 0
M  V30 4 Br -0.960212 3.60295 -0.17864 0
M  V30 5 C 0.757692 1.33785 -0.513191 0
M  V30 6 C 1.0355 -0.0231867 -0.496128 0
M  V30 7 C 0.0617933 -0.933246 -0.149587 0
M  V30 8 C -1.20532 -0.498638 0.185561 0
M  V30 9 C -2.27598 -1.44375 0.562633 0
M  V30 10 F -1.76068 -2.72587 0.50541 0
M  V30 11 F -3.29781 -1.38191 -0.363271 0
M  V30 12 F -2.70948 -1.20411 1.83275 0
M  V30 13 S 2.62457 -0.583359 -0.915383 0
M  V30 14 N 3.59688 -0.655376 0.508559 0
M  V30 15 O 2.49739 -2.01621 -1.41526 0
M  V30 16 O 3.26375 0.233315 -1.99776 0
M  V30 17 H -3.56338 1.48241 -0.147657 0
M  V30 18 H -3.01069 1.397 1.53529 0
M  V30 19 H 1.5417 2.04422 -0.790335 0
M  V30 20 H 0.267772 -2.01051 -0.132053 0
M  V30 21 H 4.61493 -0.592403 0.26156 0
M  V30 22 H 3.32536 0.0892036 1.1922 0
M  V30 END ATOM
M  V30 BEGIN BOND
M  V30 1 1 1 2
M  V30 2 2 2 3
M  V30 3 1 3 4
M  V30 4 1 3 5
M  V30 5 2 5 6
M  V30 6 1 6 7
M  V30 7 2 7 8
M  V30 8 1 8 9
M  V30 9 1 9 10
M  V30 10 1 9 11
M  V30 11 1 9 12
M  V30 12 1 6 13
M  V30 13 1 13 14
M  V30 14 2 13 15
M  V30 15 2 13 16
M  V30 16 1 8 2
M  V30 17 1 1 17
M  V30 18 1 1 18
M  V30 19 1 5 19
M  V30 20 1 7 20
M  V30 21 1 14 21
M  V30 22 1 14 22
M  V30 END BOND
M  V30 END CTAB
M  END
