
     RDKit          3D

  0  0  0  0  0  0  0  0  0  0999 V3000
M  V30 BEGIN CTAB
M  V30 COUNTS 22 22 0 0 0
M  V30 BEGIN ATOM
M  V30 1 N -5.04493 -0.183278 -0.255995 0
M  V30 2 N -3.69703 -0.348925 0.0171132 0
M  V30 3 C -2.79546 0.336364 -0.576475 0
M  V30 4 C -1.37824 0.143597 -0.271186 0
M  V30 5 C -0.400677 0.879546 -0.90787 0
M  V30 6 C 0.945743 0.726481 -0.647163 0
M  V30 7 C 1.37156 -0.19422 0.28584 0
M  V30 8 C 2.79362 -0.384415 0.588996 0
M  V30 9 N 3.67387 0.321672 -0.0266647 0
M  V30 10 N 5.03417 0.167466 0.236286 0
M  V30 11 C 0.400193 -0.933606 0.926389 0
M  V30 12 C -0.948741 -0.776993 0.662014 0
M  V30 13 H -5.7289 -0.397596 0.508702 0
M  V30 14 H -5.34031 0.143715 -1.19588 0
M  V30 15 H -3.09739 1.06482 -1.31179 0
M  V30 16 H -0.7538 1.61173 -1.65104 0
M  V30 17 H 1.68594 1.32083 -1.16543 0
M  V30 18 H 3.1386 -1.10119 1.31649 0
M  V30 19 H 5.37996 -0.116328 1.17603 0
M  V30 20 H 5.68743 0.350347 -0.554377 0
M  V30 21 H 0.761134 -1.65688 1.66152 0
M  V30 22 H -1.68672 -1.37546 1.18448 0
M  V30 END ATOM
M  V30 BEGIN BOND
M  V30 1 1 1 2
M  V30 2 2 2 3 CFG=2
M  V30 3 1 3 4
M  V30 4 2 4 5
M  V30 5 1 5 6
M  V30 6 2 6 7
M  V30 7 1 7 8
M  V30 8 2 8 9 CFG=2
M  V30 9 1 9 10
M  V30 10 1 7 11
M  V30 11 2 11 12
M  V30 12 1 12 4
M  V30 13 1 1 13
M  V30 14 1 1 14
M  V30 15 1 3 15
M  V30 16 1 5 16
M  V30 17 1 6 17
M  V30 18 1 8 18
M  V30 19 1 10 19
M  V30 20 1 10 20
M  V30 21 1 11 21
M  V30 22 1 12 22
M  V30 END BOND
M  V30 END CTAB
M  END
