
     RDKit          3D

  0  0  0  0  0  0  0  0  0  0999 V3000
M  V30 BEGIN CTAB
M  V30 COUNTS 24 25 0 0 0
M  V30 BEGIN ATOM
M  V30 1 N -2.31914 -3.02107 0.471597 0
M  V30 2 C -2.67958 -1.64601 0.357411 0
M  V30 3 N -3.84592 -1.11442 0.637058 0
M  V30 4 N -3.81315 0.266766 0.397886 0
M  V30 5 C -2.64007 0.632177 -0.0325049 0
M  V30 6 N -2.19265 1.92519 -0.387798 0
M  V30 7 C -1.81531 -0.565659 -0.0940694 0
M  V30 8 N -0.603038 -0.690126 -0.455648 0
M  V30 9 N 0.221868 0.326913 -0.884234 0
M  V30 10 C 1.53408 0.433281 -0.349731 0
M  V30 11 C 1.99652 -0.464656 0.5912 0
M  V30 12 C 3.26558 -0.398239 1.13748 0
M  V30 13 N 4.07308 0.582765 0.729845 0
M  V30 14 C 3.66049 1.47835 -0.185633 0
M  V30 15 C 2.40014 1.43847 -0.749145 0
M  V30 16 H -1.64636 -3.35194 1.17943 0
M  V30 17 H -2.75604 -3.71192 -0.188452 0
M  V30 18 H -1.88458 2.62023 0.314474 0
M  V30 19 H -2.1715 2.18931 -1.38895 0
M  V30 20 H -0.0785813 1.02524 -1.58817 0
M  V30 21 H 1.28773 -1.25051 0.888485 0
M  V30 22 H 3.5456 -1.13543 1.86287 0
M  V30 23 H 4.36242 2.24915 -0.474054 0
M  V30 24 H 2.09842 2.18214 -1.49 0
M  V30 END ATOM
M  V30 BEGIN BOND
M  V30 1 1 1 2
M  V30 2 2 2 3
M  V30 3 1 3 4
M  V30 4 2 4 5
M  V30 5 1 5 6
M  V30 6 1 5 7
M  V30 7 2 7 8
M  V30 8 1 8 9
M  V30 9 1 9 10
M  V30 10 2 10 11
M  V30 11 1 11 12
M  V30 12 2 12 13
M  V30 13 1 13 14
M  V30 14 2 14 15
M  V30 15 1 7 2
M  V30 16 1 15 10
M  V30 17 1 1 16
M  V30 18 1 1 17
M  V30 19 1 6 18
M  V30 20 1 6 19
M  V30 21 1 9 20
M  V30 22 1 11 21
M  V30 23 1 12 22
M  V30 24 1 14 23
M  V30 25 1 15 24
M  V30 END BOND
M  V30 END CTAB
M  END
