
     RDKit          3D

  0  0  0  0  0  0  0  0  0  0999 V3000
M  V30 BEGIN CTAB
M  V30 COUNTS 25 25 0 0 0
M  V30 BEGIN ATOM
M  V30 1 C -4.8297 1.40066 0.0719027 0
M  V30 2 S -3.11176 1.92655 0.156809 0
M  V30 3 C -2.05624 0.49197 0.057589 0
M  V30 4 N -0.699107 0.61452 0.0994255 0
M  V30 5 C 0.118953 -0.44969 0.0266184 0
M  V30 6 C 1.56657 -0.317816 0.0713436 0
M  V30 7 O 2.30892 -1.32941 0.00133111 0
M  V30 8 N 2.19704 0.946004 0.194723 0
M  V30 9 C 3.59554 1.11194 0.241248 0
M  V30 10 N 4.46609 -0.00737607 0.164882 0
M  V30 11 N 4.08743 2.29321 0.354323 0
M  V30 12 C -0.441264 -1.70525 -0.0944365 0
M  V30 13 N 0.413837 -2.85311 -0.173606 0
M  V30 14 N -1.78305 -1.8242 -0.135608 0
M  V30 15 C -2.60823 -0.76417 -0.0633245 0
M  V30 16 H -5.51175 2.28076 0.0596403 0
M  V30 17 H -5.06799 0.821497 -0.8471 0
M  V30 18 H -5.13277 0.779566 0.947421 0
M  V30 19 H 1.58729 1.78179 0.252651 0
M  V30 20 H 5.10286 -0.179173 -0.657952 0
M  V30 21 H 4.52003 -0.721346 0.924359 0
M  V30 22 H 3.49352 3.14834 0.414279 0
M  V30 23 H 0.636781 -3.38756 0.694442 0
M  V30 24 H 0.831591 -3.19074 -1.05548 0
M  V30 25 H -3.68461 -0.866949 -0.0969837 0
M  V30 END ATOM
M  V30 BEGIN BOND
M  V30 1 1 1 2
M  V30 2 1 2 3
M  V30 3 2 3 4
M  V30 4 1 4 5
M  V30 5 1 5 6
M  V30 6 2 6 7
M  V30 7 1 6 8
M  V30 8 1 8 9
M  V30 9 1 9 10
M  V30 10 2 9 11 CFG=2
M  V30 11 2 5 12
M  V30 12 1 12 13
M  V30 13 1 12 14
M  V30 14 2 14 15
M  V30 15 1 15 3
M  V30 16 1 1 16
M  V30 17 1 1 17
M  V30 18 1 1 18
M  V30 19 1 8 19
M  V30 20 1 10 20
M  V30 21 1 10 21
M  V30 22 1 11 22
M  V30 23 1 13 23
M  V30 24 1 13 24
M  V30 25 1 15 25
M  V30 END BOND
M  V30 END CTAB
M  END
