
     RDKit          3D

  0  0  0  0  0  0  0  0  0  0999 V3000
M  V30 BEGIN CTAB
M  V30 COUNTS 24 23 0 0 0
M  V30 BEGIN ATOM
M  V30 1 C -1.51681 1.50586 -0.106593 0
M  V30 2 C -1.56735 0.176953 0.520732 0
M  V30 3 C -0.519254 -0.819978 0.232193 0 CFG=2
M  V30 4 C 0.88091 -0.507756 0.566501 0 CFG=1
M  V30 5 C 1.57974 0.624771 -0.0358613 0
M  V30 6 N 1.66341 0.512188 -1.50457 0
M  V30 7 N 1.019 -0.436608 2.03273 0
M  V30 8 C -0.692319 -1.43494 -1.1504 0
M  V30 9 H -0.979071 2.2246 0.570441 0
M  V30 10 H -1.09357 1.60109 -1.09457 0
M  V30 11 H -2.546 1.98517 -0.187973 0
M  V30 12 H -1.68198 0.264313 1.64281 0
M  V30 13 H -2.56554 -0.275648 0.22451 0
M  V30 14 H -0.769768 -1.70244 0.914956 0
M  V30 15 H 1.47729 -1.43772 0.306619 0
M  V30 16 H 1.29179 1.63723 0.21617 0
M  V30 17 H 2.67362 0.568181 0.264608 0
M  V30 18 H 1.98741 1.41978 -1.92149 0
M  V30 19 H 2.35389 -0.204634 -1.79315 0
M  V30 20 H 0.784416 -1.33155 2.48379 0
M  V30 21 H 0.524902 0.391963 2.41876 0
M  V30 22 H -1.04711 -0.669358 -1.89295 0
M  V30 23 H -1.4794 -2.21839 -1.16187 0
M  V30 24 H 0.221785 -1.87307 -1.54539 0
M  V30 END ATOM
M  V30 BEGIN BOND
M  V30 1 1 1 2
M  V30 2 1 2 3
M  V30 3 1 3 4
M  V30 4 1 4 5
M  V30 5 1 5 6
M  V30 6 1 4 7
M  V30 7 1 3 8
M  V30 8 1 1 9
M  V30 9 1 1 10
M  V30 10 1 1 11
M  V30 11 1 2 12
M  V30 12 1 2 13
M  V30 13 1 3 14 CFG=1
M  V30 14 1 4 15 CFG=3
M  V30 15 1 5 16
M  V30 16 1 5 17
M  V30 17 1 6 18
M  V30 18 1 6 19
M  V30 19 1 7 20
M  V30 20 1 7 21
M  V30 21 1 8 22
M  V30 22 1 8 23
M  V30 23 1 8 24
M  V30 END BOND
M  V30 END CTAB
M  END
