
     RDKit          3D

  0  0  0  0  0  0  0  0  0  0999 V3000
M  V30 BEGIN CTAB
M  V30 COUNTS 41 41 0 0 0
M  V30 BEGIN ATOM
M  V30 1 C -4.87642 -1.01517 1.29501 0
M  V30 2 C -3.60938 -0.674138 0.582571 0
M  V30 3 C -3.687 0.766976 0.0830619 0
M  V30 4 C -2.37454 1.09337 -0.647093 0
M  V30 5 C -1.30916 0.896637 0.379902 0
M  V30 6 O -1.49257 1.50533 1.46372 0
M  V30 7 N -0.173363 0.079671 0.146333 0
M  V30 8 C 0.794296 -0.0502063 1.20675 0
M  V30 9 C 2.05147 -0.654146 0.770578 0
M  V30 10 C 2.16395 -1.92145 0.239562 0
M  V30 11 C 3.40057 -2.41957 -0.160304 0
M  V30 12 C 4.54599 -1.65575 -0.034005 0
M  V30 13 C 4.45532 -0.383099 0.496657 0
M  V30 14 C 3.216 0.0734967 0.879806 0
M  V30 15 S 5.8596 0.657626 0.684576 0
M  V30 16 O 7.12129 -0.159087 0.733725 0
M  V30 17 O 5.67381 1.50873 1.90402 0
M  V30 18 N 5.92504 1.71509 -0.704369 0
M  V30 19 N -2.19728 0.328905 -1.83351 0
M  V30 20 C -4.87105 0.99414 -0.816588 0
M  V30 21 H -5.64211 -1.43868 0.626165 0
M  V30 22 H -4.697 -1.7888 2.08633 0
M  V30 23 H -5.32164 -0.15433 1.8211 0
M  V30 24 H -3.33931 -1.38566 -0.20784 0
M  V30 25 H -2.7901 -0.646321 1.3595 0
M  V30 26 H -3.79833 1.40076 0.981163 0
M  V30 27 H -2.4102 2.1806 -0.910579 0
M  V30 28 H -0.0794777 -0.390706 -0.771853 0
M  V30 29 H 0.986311 0.962034 1.60415 0
M  V30 30 H 0.350911 -0.619029 2.08104 0
M  V30 31 H 1.26744 -2.50712 0.146515 0
M  V30 32 H 3.49434 -3.40169 -0.574358 0
M  V30 33 H 5.52362 -2.04079 -0.347765 0
M  V30 34 H 3.18579 1.09442 1.29511 0
M  V30 35 H 5.09508 2.35706 -0.664365 0
M  V30 36 H 6.76807 2.33431 -0.602848 0
M  V30 37 H -2.11669 -0.688924 -1.71212 0
M  V30 38 H -1.56063 0.783928 -2.49078 0
M  V30 39 H -5.51172 1.83576 -0.420126 0
M  V30 40 H -5.52418 0.11229 -0.848241 0
M  V30 41 H -4.49671 1.31355 -1.80187 0
M  V30 END ATOM
M  V30 BEGIN BOND
M  V30 1 1 1 2
M  V30 2 1 2 3
M  V30 3 1 3 4
M  V30 4 1 4 5
M  V30 5 2 5 6
M  V30 6 1 5 7
M  V30 7 1 7 8
M  V30 8 1 8 9
M  V30 9 2 9 10
M  V30 10 1 10 11
M  V30 11 2 11 12
M  V30 12 1 12 13
M  V30 13 2 13 14
M  V30 14 1 13 15
M  V30 15 2 15 16
M  V30 16 2 15 17
M  V30 17 1 15 18
M  V30 18 1 4 19
M  V30 19 1 3 20
M  V30 20 1 14 9
M  V30 21 1 1 21
M  V30 22 1 1 22
M  V30 23 1 1 23
M  V30 24 1 2 24
M  V30 25 1 2 25
M  V30 26 1 3 26
M  V30 27 1 4 27
M  V30 28 1 7 28
M  V30 29 1 8 29
M  V30 30 1 8 30
M  V30 31 1 10 31
M  V30 32 1 11 32
M  V30 33 1 12 33
M  V30 34 1 14 34
M  V30 35 1 18 35
M  V30 36 1 18 36
M  V30 37 1 19 37
M  V30 38 1 19 38
M  V30 39 1 20 39
M  V30 40 1 20 40
M  V30 41 1 20 41
M  V30 END BOND
M  V30 END CTAB
M  END
