
     RDKit          3D

  0  0  0  0  0  0  0  0  0  0999 V3000
M  V30 BEGIN CTAB
M  V30 COUNTS 42 43 0 0 0
M  V30 BEGIN ATOM
M  V30 1 C 4.17597 2.98571 0.223398 0
M  V30 2 C 4.17981 1.50671 0.317714 0
M  V30 3 C 5.34855 0.790175 0.413771 0
M  V30 4 C 5.33326 -0.582142 0.500742 0
M  V30 5 C 4.12433 -1.21127 0.489009 0
M  V30 6 C 2.88564 -0.530701 0.391791 0
M  V30 7 C 2.94062 0.825183 0.308053 0
M  V30 8 N 1.71582 -1.27545 0.387198 0
M  V30 9 C 0.383745 -0.8558 0.208839 0
M  V30 10 O 0.123166 0.365045 0.0283491 0
M  V30 11 C -0.721733 -1.82241 0.221979 0
M  V30 12 O -0.401662 -3.02729 0.488038 0
M  V30 13 N -2.05717 -1.54195 -0.0266478 0
M  V30 14 C -2.54001 -0.245442 -0.365699 0
M  V30 15 C -2.2973 0.319823 -1.60173 0
M  V30 16 C -2.78093 1.55593 -1.93888 0
M  V30 17 C -3.54153 2.26401 -1.00456 0
M  V30 18 C -3.81535 1.74169 0.253821 0
M  V30 19 C -3.30517 0.496617 0.53971 0
M  V30 20 N -4.60662 2.49125 1.1935 0
M  V30 21 C -3.07064 -2.56654 0.052054 0
M  V30 22 O -2.7204 -3.71854 0.345235 0
M  V30 23 C -4.4942 -2.27216 -0.206242 0
M  V30 24 N 4.10436 -2.63054 0.570187 0
M  V30 25 H 4.40522 3.37993 1.21811 0
M  V30 26 H 3.13916 3.32435 -0.0600693 0
M  V30 27 H 4.88665 3.3195 -0.557748 0
M  V30 28 H 6.32675 1.27533 0.428291 0
M  V30 29 H 6.26163 -1.15478 0.578061 0
M  V30 30 H 2.04799 1.41143 0.237927 0
M  V30 31 H 1.81183 -2.33333 0.548817 0
M  V30 32 H -1.69202 -0.287067 -2.289 0
M  V30 33 H -2.56124 1.95457 -2.92714 0
M  V30 34 H -3.92552 3.2315 -1.26482 0
M  V30 35 H -3.52318 0.0836639 1.52097 0
M  V30 36 H -5.57325 2.82718 0.97913 0
M  V30 37 H -4.18709 2.69539 2.10628 0
M  V30 38 H -4.98535 -1.7875 0.65511 0
M  V30 39 H -4.52472 -1.56374 -1.0789 0
M  V30 40 H -5.06032 -3.15968 -0.518662 0
M  V30 41 H 3.66641 -3.17201 -0.212763 0
M  V30 42 H 4.5245 -3.10664 1.40366 0
M  V30 END ATOM
M  V30 BEGIN BOND
M  V30 1 1 1 2
M  V30 2 2 2 3
M  V30 3 1 3 4
M  V30 4 2 4 5
M  V30 5 1 5 6
M  V30 6 2 6 7
M  V30 7 1 6 8
M  V30 8 1 8 9
M  V30 9 2 9 10
M  V30 10 1 9 11
M  V30 11 2 11 12
M  V30 12 1 11 13
M  V30 13 1 13 14
M  V30 14 2 14 15
M  V30 15 1 15 16
M  V30 16 2 16 17
M  V30 17 1 17 18
M  V30 18 2 18 19
M  V30 19 1 18 20
M  V30 20 1 13 21
M  V30 21 2 21 22
M  V30 22 1 21 23
M  V30 23 1 5 24
M  V30 24 1 7 2
M  V30 25 1 19 14
M  V30 26 1 1 25
M  V30 27 1 1 26
M  V30 28 1 1 27
M  V30 29 1 3 28
M  V30 30 1 4 29
M  V30 31 1 7 30
M  V30 32 1 8 31
M  V30 33 1 15 32
M  V30 34 1 16 33
M  V30 35 1 17 34
M  V30 36 1 19 35
M  V30 37 1 20 36
M  V30 38 1 20 37
M  V30 39 1 23 38
M  V30 40 1 23 39
M  V30 41 1 23 40
M  V30 42 1 24 41
M  V30 43 1 24 42
M  V30 END BOND
M  V30 END CTAB
M  END
