
     RDKit          3D

  0  0  0  0  0  0  0  0  0  0999 V3000
M  V30 BEGIN CTAB
M  V30 COUNTS 96 97 0 0 0
M  V30 BEGIN ATOM
M  V30 1 C -6.66877 -1.58256 1.09431 0 CFG=2
M  V30 2 C -7.50808 -2.52016 0.303324 0
M  V30 3 C -8.18261 -1.82319 -0.831086 0
M  V30 4 C -9.44429 -1.31679 -0.449258 0
M  V30 5 C -10.2328 -0.611815 -1.3117 0
M  V30 6 C -9.799 -0.376782 -2.60114 0
M  V30 7 O -10.6476 0.356686 -3.44908 0
M  V30 8 C -8.5689 -0.869906 -2.9766 0
M  V30 9 C -7.76154 -1.5963 -2.08105 0
M  V30 10 N -7.31821 -0.389748 1.44649 0
M  V30 11 C -7.79518 0.272018 2.52207 0
M  V30 12 O -7.79899 -0.044689 3.71676 0
M  V30 13 C -8.42185 1.62917 2.18974 0
M  V30 14 C -7.56013 2.67038 1.97159 0
M  V30 15 C -8.04785 3.88886 1.50849 0
M  V30 16 C -9.38782 4.02372 1.27863 0
M  V30 17 C -10.2628 2.97997 1.50213 0
M  V30 18 C -9.74987 1.76331 1.9691 0
M  V30 19 N -9.94383 5.24206 0.731865 0
M  V30 20 N -9.72539 5.41621 -0.485536 0 CHG=1
M  V30 21 N -9.70087 5.28079 -1.72616 0 CHG=-1
M  V30 22 C -5.20531 -1.50605 0.950689 0
M  V30 23 O -4.78931 -0.354649 1.47444 0
M  V30 24 N -4.38487 -2.43871 0.39628 0
M  V30 25 C -3.5443 -3.36617 -0.156774 0
M  V30 26 C -2.58987 -2.84877 -1.22337 0
M  V30 27 C -1.67488 -1.7927 -0.656134 0
M  V30 28 N -0.903163 -2.35805 0.41226 0
M  V30 29 C -0.111599 -1.4173 1.12806 0
M  V30 30 C 1.04241 -0.860898 0.373137 0
M  V30 31 C 2.07767 -1.84832 -0.0622494 0
M  V30 32 C 3.18008 -1.15229 -0.854838 0
M  V30 33 N 3.80216 -0.128222 -0.0255438 0
M  V30 34 C 4.75902 0.575632 -0.883198 0
M  V30 35 C 5.27341 1.76457 -0.117061 0
M  V30 36 C 6.06058 1.35062 1.0764 0
M  V30 37 N 7.24043 0.605702 0.649281 0
M  V30 38 C 8.22357 1.21558 -0.162559 0
M  V30 39 O 8.12526 2.39643 -0.548782 0
M  V30 40 C 9.4227 0.419255 -0.578798 0 CFG=1
M  V30 41 N 10.014 1.09332 -1.71159 0
M  V30 42 C 10.3484 0.451826 0.636658 0
M  V30 43 C 11.6183 -0.277219 0.525034 0
M  V30 44 C 12.5804 0.183126 -0.497338 0
M  V30 45 C 13.1164 1.57337 -0.331093 0
M  V30 46 N 13.8403 1.71599 0.925601 0
M  V30 47 H -6.69652 -2.15786 2.17688 0
M  V30 48 H -6.87487 -3.29988 -0.186659 0
M  V30 49 H -8.26938 -3.05103 0.890709 0
M  V30 50 H -9.82999 -1.47582 0.563985 0
M  V30 51 H -11.235 -0.210089 -1.03758 0
M  V30 52 H -10.5577 1.35835 -3.44486 0
M  V30 53 H -8.23148 -0.677605 -3.98677 0
M  V30 54 H -6.81243 -1.96423 -2.41919 0
M  V30 55 H -7.49068 0.197341 0.47847 0
M  V30 56 H -6.51515 2.49177 2.17651 0
M  V30 57 H -7.39634 4.7159 1.31792 0
M  V30 58 H -11.2984 3.12334 1.30431 0
M  V30 59 H -10.4405 0.915786 2.14857 0
M  V30 60 H -3.30537 -1.73777 0.823983 0
M  V30 61 H -2.99262 -3.95677 0.62338 0
M  V30 62 H -4.09231 -4.21516 -0.723068 0
M  V30 63 H -1.97073 -3.67237 -1.61039 0
M  V30 64 H -3.23034 -2.43515 -2.04814 0
M  V30 65 H -0.943353 -1.56042 -1.50921 0
M  V30 66 H -2.13655 -0.83172 -0.436813 0
M  V30 67 H -0.438427 -3.23099 0.190079 0
M  V30 68 H 0.23801 -1.90752 2.07958 0
M  V30 69 H -0.769683 -0.556547 1.51352 0
M  V30 70 H 0.682942 -0.213016 -0.442795 0
M  V30 71 H 1.60035 -0.132149 1.04621 0
M  V30 72 H 1.69528 -2.65562 -0.722568 0
M  V30 73 H 2.53452 -2.34678 0.808511 0
M  V30 74 H 3.89206 -1.95633 -1.1624 0
M  V30 75 H 2.6825 -0.75265 -1.75181 0
M  V30 76 H 4.30725 -0.608313 0.764666 0
M  V30 77 H 4.38009 0.793319 -1.87983 0
M  V30 78 H 5.58302 -0.182818 -1.03643 0
M  V30 79 H 5.79347 2.48624 -0.785231 0
M  V30 80 H 4.36346 2.30936 0.264505 0
M  V30 81 H 5.47581 0.718659 1.74414 0
M  V30 82 H 6.39686 2.23887 1.66692 0
M  V30 83 H 7.36767 -0.387942 0.929201 0
M  V30 84 H 9.17178 -0.621413 -0.810716 0
M  V30 85 H 9.67236 2.06685 -1.76774 0
M  V30 86 H 9.68906 0.579004 -2.55333 0
M  V30 87 H 10.5078 1.56997 0.81617 0
M  V30 88 H 9.7349 0.13335 1.51544 0
M  V30 89 H 12.0829 -0.309161 1.54811 0
M  V30 90 H 11.364 -1.35607 0.234939 0
M  V30 91 H 12.2178 0.00568934 -1.50596 0
M  V30 92 H 13.4907 -0.498548 -0.378221 0
M  V30 93 H 12.388 2.38564 -0.47136 0
M  V30 94 H 13.9076 1.71749 -1.12629 0
M  V30 95 H 13.5359 1.07533 1.66214 0
M  V30 96 H 13.7763 2.6922 1.23373 0
M  V30 END ATOM
M  V30 BEGIN BOND
M  V30 1 1 1 2
M  V30 2 1 2 3
M  V30 3 2 3 4
M  V30 4 1 4 5
M  V30 5 2 5 6
M  V30 6 1 6 7
M  V30 7 1 6 8
M  V30 8 2 8 9
M  V30 9 1 1 10
M  V30 10 1 10 11
M  V30 11 2 11 12
M  V30 12 1 11 13
M  V30 13 2 13 14
M  V30 14 1 14 15
M  V30 15 2 15 16
M  V30 16 1 16 17
M  V30 17 2 17 18
M  V30 18 1 16 19
M  V30 19 2 19 20 CFG=2
M  V30 20 2 20 21
M  V30 21 1 1 22
M  V30 22 2 22 23
M  V30 23 1 22 24
M  V30 24 1 24 25
M  V30 25 1 25 26
M  V30 26 1 26 27
M  V30 27 1 27 28
M  V30 28 1 28 29
M  V30 29 1 29 30
M  V30 30 1 30 31
M  V30 31 1 31 32
M  V30 32 1 32 33
M  V30 33 1 33 34
M  V30 34 1 34 35
M  V30 35 1 35 36
M  V30 36 1 36 37
M  V30 37 1 37 38
M  V30 38 2 38 39
M  V30 39 1 38 40
M  V30 40 1 40 41
M  V30 41 1 40 42
M  V30 42 1 42 43
M  V30 43 1 43 44
M  V30 44 1 44 45
M  V30 45 1 45 46
M  V30 46 1 9 3
M  V30 47 1 18 13
M  V30 48 1 1 47 CFG=1
M  V30 49 1 2 48
M  V30 50 1 2 49
M  V30 51 1 4 50
M  V30 52 1 5 51
M  V30 53 1 7 52
M  V30 54 1 8 53
M  V30 55 1 9 54
M  V30 56 1 10 55
M  V30 57 1 14 56
M  V30 58 1 15 57
M  V30 59 1 17 58
M  V30 60 1 18 59
M  V30 61 1 24 60
M  V30 62 1 25 61
M  V30 63 1 25 62
M  V30 64 1 26 63
M  V30 65 1 26 64
M  V30 66 1 27 65
M  V30 67 1 27 66
M  V30 68 1 28 67
M  V30 69 1 29 68
M  V30 70 1 29 69
M  V30 71 1 30 70
M  V30 72 1 30 71
M  V30 73 1 31 72
M  V30 74 1 31 73
M  V30 75 1 32 74
M  V30 76 1 32 75
M  V30 77 1 33 76
M  V30 78 1 34 77
M  V30 79 1 34 78
M  V30 80 1 35 79
M  V30 81 1 35 80
M  V30 82 1 36 81
M  V30 83 1 36 82
M  V30 84 1 37 83
M  V30 85 1 40 84 CFG=3
M  V30 86 1 41 85
M  V30 87 1 41 86
M  V30 88 1 42 87
M  V30 89 1 42 88
M  V30 90 1 43 89
M  V30 91 1 43 90
M  V30 92 1 44 91
M  V30 93 1 44 92
M  V30 94 1 45 93
M  V30 95 1 45 94
M  V30 96 1 46 95
M  V30 97 1 46 96
M  V30 END BOND
M  V30 END CTAB
M  END
