
     RDKit          3D

  0  0  0  0  0  0  0  0  0  0999 V3000
M  V30 BEGIN CTAB
M  V30 COUNTS 34 34 0 0 0
M  V30 BEGIN ATOM
M  V30 1 O -0.805303 1.96363 1.90802 0
M  V30 2 C -1.23691 0.737695 1.47899 0
M  V30 3 C -0.571508 0.219218 0.24205 0
M  V30 4 C 0.910052 0.0942847 0.34276 0
M  V30 5 C 1.59627 1.39574 0.625391 0
M  V30 6 C 2.94971 1.52882 0.0108563 0
M  V30 7 C 3.66041 0.275895 -0.291272 0
M  V30 8 C 2.84342 -0.871251 -0.754073 0
M  V30 9 C 1.43398 -0.438287 -0.978086 0
M  V30 10 N -1.15547 -1.07304 -0.0502013 0
M  V30 11 C -2.57508 -1.16283 -0.29955 0
M  V30 12 N -3.25797 -2.15297 0.156797 0
M  V30 13 N -4.62513 -2.20641 -0.10343 0
M  V30 14 N -3.22475 -0.16159 -1.04803 0
M  V30 15 H -1.16762 2.14039 2.79015 0
M  V30 16 H -1.08359 0.00846595 2.28726 0
M  V30 17 H -2.331 0.84852 1.22594 0
M  V30 18 H -0.787304 0.857444 -0.657338 0
M  V30 19 H 1.22018 -0.654446 1.1151 0
M  V30 20 H 1.61871 1.56237 1.7224 0
M  V30 21 H 0.953517 2.20892 0.203849 0
M  V30 22 H 2.92181 2.18833 -0.888342 0
M  V30 23 H 3.58062 2.10358 0.753776 0
M  V30 24 H 4.42933 0.495492 -1.08987 0
M  V30 25 H 4.28602 -0.0851654 0.576845 0
M  V30 26 H 2.88509 -1.73777 -0.0464705 0
M  V30 27 H 3.21962 -1.29559 -1.72917 0
M  V30 28 H 1.4237 0.420229 -1.68236 0
M  V30 29 H 0.78269 -1.25305 -1.3716 0
M  V30 30 H -0.64088 -1.97394 -0.10084 0
M  V30 31 H -5.14595 -1.31064 -0.208581 0
M  V30 32 H -5.1755 -3.08722 -0.20254 0
M  V30 33 H -2.91094 0.0640954 -2.00307 0
M  V30 34 H -4.02022 0.351088 -0.64061 0
M  V30 END ATOM
M  V30 BEGIN BOND
M  V30 1 1 1 2
M  V30 2 1 2 3
M  V30 3 1 3 4
M  V30 4 1 4 5
M  V30 5 1 5 6
M  V30 6 1 6 7
M  V30 7 1 7 8
M  V30 8 1 8 9
M  V30 9 1 3 10
M  V30 10 1 10 11
M  V30 11 2 11 12 CFG=2
M  V30 12 1 12 13
M  V30 13 1 11 14
M  V30 14 1 9 4
M  V30 15 1 1 15
M  V30 16 1 2 16
M  V30 17 1 2 17
M  V30 18 1 3 18
M  V30 19 1 4 19
M  V30 20 1 5 20
M  V30 21 1 5 21
M  V30 22 1 6 22
M  V30 23 1 6 23
M  V30 24 1 7 24
M  V30 25 1 7 25
M  V30 26 1 8 26
M  V30 27 1 8 27
M  V30 28 1 9 28
M  V30 29 1 9 29
M  V30 30 1 10 30
M  V30 31 1 13 31
M  V30 32 1 13 32
M  V30 33 1 14 33
M  V30 34 1 14 34
M  V30 END BOND
M  V30 END CTAB
M  END
