
     RDKit          3D

  0  0  0  0  0  0  0  0  0  0999 V3000
M  V30 BEGIN CTAB
M  V30 COUNTS 31 31 0 0 0
M  V30 BEGIN ATOM
M  V30 1 N -2.87502 -1.63432 -0.572427 0
M  V30 2 C -1.54566 -1.41002 0.0315273 0
M  V30 3 C -1.264 0.0232952 0.0834696 0
M  V30 4 C 0.00750551 0.568765 0.592144 0
M  V30 5 C 1.27608 0.101049 0.0833135 0
M  V30 6 C 1.65381 -1.24541 0.104099 0
M  V30 7 C 2.9401 -1.64114 -0.177 0
M  V30 8 C 3.92886 -0.740442 -0.491836 0
M  V30 9 N 3.56693 0.548706 -0.514948 0
M  V30 10 C 2.30689 0.952064 -0.241999 0
M  V30 11 N 2.08895 2.37406 -0.380961 0
M  V30 12 O 0.0785749 0.434712 2.02363 0
M  V30 13 C -2.34133 0.59971 1.10709 0
M  V30 14 C -1.68743 0.701462 -1.21353 0
M  V30 15 H -3.6624 -1.22055 -0.116837 0
M  V30 16 H -2.81119 -1.37836 -1.59751 0
M  V30 17 H -1.5569 -1.88383 0.998129 0
M  V30 18 H -0.894859 -1.94204 -0.7324 0
M  V30 19 H -0.0912812 1.69914 0.503359 0
M  V30 20 H 0.939106 -2.02508 0.383882 0
M  V30 21 H 3.16589 -2.70773 -0.120893 0
M  V30 22 H 4.95106 -1.0868 -0.709719 0
M  V30 23 H 2.08205 3.04559 0.396757 0
M  V30 24 H 1.9381 2.78876 -1.35871 0
M  V30 25 H 0.909399 0.0398415 2.3118 0
M  V30 26 H -2.7095 1.56 0.729892 0
M  V30 27 H -3.13114 -0.115306 1.29778 0
M  V30 28 H -1.84209 0.779875 2.08455 0
M  V30 29 H -1.48243 1.79582 -1.0543 0
M  V30 30 H -2.80504 0.657108 -1.3722 0
M  V30 31 H -1.13301 0.361079 -2.07614 0
M  V30 END ATOM
M  V30 BEGIN BOND
M  V30 1 1 1 2
M  V30 2 1 2 3
M  V30 3 1 3 4
M  V30 4 1 4 5
M  V30 5 2 5 6
M  V30 6 1 6 7
M  V30 7 2 7 8
M  V30 8 1 8 9
M  V30 9 2 9 10
M  V30 10 1 10 11
M  V30 11 1 4 12
M  V30 12 1 3 13
M  V30 13 1 3 14
M  V30 14 1 10 5
M  V30 15 1 1 15
M  V30 16 1 1 16
M  V30 17 1 2 17
M  V30 18 1 2 18
M  V30 19 1 4 19
M  V30 20 1 6 20
M  V30 21 1 7 21
M  V30 22 1 8 22
M  V30 23 1 11 23
M  V30 24 1 11 24
M  V30 25 1 12 25
M  V30 26 1 13 26
M  V30 27 1 13 27
M  V30 28 1 13 28
M  V30 29 1 14 29
M  V30 30 1 14 30
M  V30 31 1 14 31
M  V30 END BOND
M  V30 END CTAB
M  END
