
     RDKit          3D

  0  0  0  0  0  0  0  0  0  0999 V3000
M  V30 BEGIN CTAB
M  V30 COUNTS 29 30 0 0 0
M  V30 BEGIN ATOM
M  V30 1 N 4.24032 0.764122 -0.0341535 0
M  V30 2 C 3.33858 -0.377502 0.187217 0
M  V30 3 C 2.88891 -0.834696 -1.18191 0
M  V30 4 C 1.45692 -0.318285 -1.29281 0
M  V30 5 C 0.987781 -0.517816 0.152979 0
M  V30 6 C 2.12341 0.138612 0.906353 0
M  V30 7 C -0.321999 0.20762 0.38521 0
M  V30 8 S -1.57179 -0.460736 -0.751969 0
M  V30 9 C -3.11385 0.415936 -0.458557 0
M  V30 10 N -3.43317 1.54937 -1.11611 0
M  V30 11 N -4.6158 1.93338 -0.672599 0
M  V30 12 C -5.06296 1.06542 0.259658 0
M  V30 13 N -4.10058 0.117694 0.378403 0
M  V30 14 N -4.1055 -0.990464 1.21874 0
M  V30 15 H 4.96506 0.408205 -0.722713 0
M  V30 16 H 3.69302 1.47731 -0.599332 0
M  V30 17 H 3.88338 -1.14898 0.746175 0
M  V30 18 H 3.52246 -0.490793 -1.9966 0
M  V30 19 H 2.79258 -1.94865 -1.12754 0
M  V30 20 H 1.48631 0.77066 -1.45097 0
M  V30 21 H 0.855602 -0.867768 -2.0111 0
M  V30 22 H 0.917393 -1.58872 0.326695 0
M  V30 23 H 1.99533 1.24307 0.771162 0
M  V30 24 H 2.12131 -0.133242 1.98179 0
M  V30 25 H -0.610485 0.000675217 1.43686 0
M  V30 26 H -0.160424 1.29205 0.217511 0
M  V30 27 H -5.97156 1.06005 0.826398 0
M  V30 28 H -4.91366 -1.63472 1.18165 0
M  V30 29 H -3.28658 -1.13178 1.86063 0
M  V30 END ATOM
M  V30 BEGIN BOND
M  V30 1 1 1 2
M  V30 2 1 2 3
M  V30 3 1 3 4
M  V30 4 1 4 5
M  V30 5 1 5 6
M  V30 6 1 5 7
M  V30 7 1 7 8
M  V30 8 1 8 9
M  V30 9 2 9 10
M  V30 10 1 10 11
M  V30 11 2 11 12
M  V30 12 1 12 13
M  V30 13 1 13 14
M  V30 14 1 6 2
M  V30 15 1 13 9
M  V30 16 1 1 15
M  V30 17 1 1 16
M  V30 18 1 2 17
M  V30 19 1 3 18
M  V30 20 1 3 19
M  V30 21 1 4 20
M  V30 22 1 4 21
M  V30 23 1 5 22
M  V30 24 1 6 23
M  V30 25 1 6 24
M  V30 26 1 7 25
M  V30 27 1 7 26
M  V30 28 1 12 27
M  V30 29 1 14 28
M  V30 30 1 14 29
M  V30 END BOND
M  V30 END CTAB
M  END
