
     RDKit          3D

  0  0  0  0  0  0  0  0  0  0999 V3000
M  V30 BEGIN CTAB
M  V30 COUNTS 60 61 0 0 0
M  V30 BEGIN ATOM
M  V30 1 C 0.80085 0.51362 -0.0343523 0 CFG=2
M  V30 2 C 1.42067 1.81409 -0.357688 0
M  V30 3 C 2.71486 2.11538 0.265108 0
M  V30 4 C 2.8892 2.69479 1.49449 0
M  V30 5 C 4.14338 2.96787 2.00265 0
M  V30 6 C 5.28253 2.65904 1.27244 0
M  V30 7 O 6.53442 2.9409 1.7989 0
M  V30 8 C 5.136 2.07722 0.0369995 0
M  V30 9 C 3.86718 1.81708 -0.442433 0
M  V30 10 N 1.76736 -0.529758 -0.473231 0
M  V30 11 C 1.98741 -1.66691 0.332316 0
M  V30 12 O 1.35286 -1.78785 1.41924 0
M  V30 13 C 2.92961 -2.70446 -0.0639469 0 CFG=1
M  V30 14 O 3.82227 -3.1694 1.01756 0
M  V30 15 C 2.74682 -4.03238 0.516678 0 CFG=2
M  V30 16 C 3.36957 -5.25672 -0.0507783 0
M  V30 17 O 4.45863 -5.2019 -0.903534 0
M  V30 18 O 2.87567 -6.36573 0.266734 0
M  V30 19 C -0.43259 0.337049 -0.869167 0
M  V30 20 O -0.24904 -0.224026 -1.99337 0
M  V30 21 N -1.73597 0.720331 -0.516818 0
M  V30 22 C -2.15644 1.37426 0.671157 0
M  V30 23 C -2.24754 2.85048 0.668204 0
M  V30 24 C -2.73152 3.27416 2.06563 0
M  V30 25 N -4.02876 2.69021 2.34497 0
M  V30 26 C -2.80601 0.374122 -1.48936 0
M  V30 27 C -3.35353 -0.994406 -1.14441 0
M  V30 28 C -4.44446 -1.40299 -2.09901 0
M  V30 29 C -4.94367 -2.79303 -1.67262 0
M  V30 30 N -3.819 -3.70324 -1.73618 0
M  V30 31 H 0.46604 0.348658 0.99515 0
M  V30 32 H 0.759091 2.6864 -0.148134 0
M  V30 33 H 1.57677 1.86319 -1.47395 0
M  V30 34 H 1.97877 2.92581 2.04405 0
M  V30 35 H 4.21617 3.41902 2.96312 0
M  V30 36 H 6.91754 3.86616 1.57902 0
M  V30 37 H 6.04762 1.84758 -0.510981 0
M  V30 38 H 3.83775 1.36338 -1.42358 0
M  V30 39 H 2.23119 -0.35299 -1.37894 0
M  V30 40 H 3.53001 -2.56744 -0.981392 0
M  V30 41 H 1.89613 -4.16694 1.18954 0
M  V30 42 H 4.47231 -5.89853 -1.66322 0
M  V30 43 H -1.40559 1.10297 1.48095 0
M  V30 44 H -3.11226 0.982526 1.08747 0
M  V30 45 H -1.3389 3.40545 0.496211 0
M  V30 46 H -3.06221 3.22174 -0.0190934 0
M  V30 47 H -2.05212 2.89909 2.85654 0
M  V30 48 H -2.80532 4.36237 2.16792 0
M  V30 49 H -4.75548 3.37525 2.59223 0
M  V30 50 H -3.99939 1.81997 2.88372 0
M  V30 51 H -3.6104 1.13276 -1.47836 0
M  V30 52 H -2.41375 0.323736 -2.51981 0
M  V30 53 H -3.81299 -0.983837 -0.128937 0
M  V30 54 H -2.54523 -1.73543 -1.23604 0
M  V30 55 H -4.0378 -1.44851 -3.11745 0
M  V30 56 H -5.32033 -0.731611 -2.07637 0
M  V30 57 H -5.22796 -2.71185 -0.597026 0
M  V30 58 H -5.81544 -3.11672 -2.23835 0
M  V30 59 H -3.85963 -4.16855 -2.676 0
M  V30 60 H -3.90535 -4.45144 -0.994448 0
M  V30 END ATOM
M  V30 BEGIN BOND
M  V30 1 1 1 2
M  V30 2 1 2 3
M  V30 3 2 3 4
M  V30 4 1 4 5
M  V30 5 2 5 6
M  V30 6 1 6 7
M  V30 7 1 6 8
M  V30 8 2 8 9
M  V30 9 1 1 10
M  V30 10 1 10 11
M  V30 11 2 11 12
M  V30 12 1 11 13
M  V30 13 1 13 14
M  V30 14 1 14 15
M  V30 15 1 15 16
M  V30 16 1 16 17
M  V30 17 2 16 18
M  V30 18 1 1 19
M  V30 19 2 19 20
M  V30 20 1 19 21
M  V30 21 1 21 22
M  V30 22 1 22 23
M  V30 23 1 23 24
M  V30 24 1 24 25
M  V30 25 1 21 26
M  V30 26 1 26 27
M  V30 27 1 27 28
M  V30 28 1 28 29
M  V30 29 1 29 30
M  V30 30 1 9 3
M  V30 31 1 15 13
M  V30 32 1 1 31 CFG=1
M  V30 33 1 2 32
M  V30 34 1 2 33
M  V30 35 1 4 34
M  V30 36 1 5 35
M  V30 37 1 7 36
M  V30 38 1 8 37
M  V30 39 1 9 38
M  V30 40 1 10 39
M  V30 41 1 13 40 CFG=3
M  V30 42 1 15 41 CFG=1
M  V30 43 1 17 42
M  V30 44 1 22 43
M  V30 45 1 22 44
M  V30 46 1 23 45
M  V30 47 1 23 46
M  V30 48 1 24 47
M  V30 49 1 24 48
M  V30 50 1 25 49
M  V30 51 1 25 50
M  V30 52 1 26 51
M  V30 53 1 26 52
M  V30 54 1 27 53
M  V30 55 1 27 54
M  V30 56 1 28 55
M  V30 57 1 28 56
M  V30 58 1 29 57
M  V30 59 1 29 58
M  V30 60 1 30 59
M  V30 61 1 30 60
M  V30 END BOND
M  V30 END CTAB
M  END
