
     RDKit          3D

  0  0  0  0  0  0  0  0  0  0999 V3000
M  V30 BEGIN CTAB
M  V30 COUNTS 25 25 0 0 0
M  V30 BEGIN ATOM
M  V30 1 N -4.06785 1.11315 0.102418 0
M  V30 2 C -2.8636 0.409805 0.506915 0
M  V30 3 C -1.97128 0.306726 -0.707116 0
M  V30 4 C -0.709396 -0.384596 -0.448886 0
M  V30 5 C -0.540717 -1.74647 -0.590073 0
M  V30 6 C 0.694831 -2.29659 -0.319697 0
M  V30 7 C 1.77225 -1.53671 0.0876428 0
M  V30 8 C 1.61011 -0.165808 0.231914 0
M  V30 9 C 0.383258 0.382331 -0.036297 0
M  V30 10 S 2.95442 0.821288 0.745563 0
M  V30 11 O 3.90631 0.0416686 1.61806 0
M  V30 12 O 2.47551 2.04701 1.49323 0
M  V30 13 N 3.8623 1.38309 -0.62753 0
M  V30 14 H -4.23819 1.05715 -0.919845 0
M  V30 15 H -4.88399 0.889127 0.684818 0
M  V30 16 H -3.07189 -0.548042 0.981885 0
M  V30 17 H -2.33721 1.09476 1.22139 0
M  V30 18 H -1.75438 1.34292 -1.04149 0
M  V30 19 H -2.47766 -0.223271 -1.5523 0
M  V30 20 H -1.40123 -2.31588 -0.910194 0
M  V30 21 H 0.842547 -3.35888 -0.42532 0
M  V30 22 H 2.74309 -1.99045 0.297142 0
M  V30 23 H 0.275796 1.45755 0.0823513 0
M  V30 24 H 4.80838 1.65711 -0.277666 0
M  V30 25 H 3.9886 0.562999 -1.28135 0
M  V30 END ATOM
M  V30 BEGIN BOND
M  V30 1 1 1 2
M  V30 2 1 2 3
M  V30 3 1 3 4
M  V30 4 2 4 5
M  V30 5 1 5 6
M  V30 6 2 6 7
M  V30 7 1 7 8
M  V30 8 2 8 9
M  V30 9 1 8 10
M  V30 10 2 10 11
M  V30 11 2 10 12
M  V30 12 1 10 13
M  V30 13 1 9 4
M  V30 14 1 1 14
M  V30 15 1 1 15
M  V30 16 1 2 16
M  V30 17 1 2 17
M  V30 18 1 3 18
M  V30 19 1 3 19
M  V30 20 1 5 20
M  V30 21 1 6 21
M  V30 22 1 7 22
M  V30 23 1 9 23
M  V30 24 1 13 24
M  V30 25 1 13 25
M  V30 END BOND
M  V30 END CTAB
M  END
