
     RDKit          3D

  0  0  0  0  0  0  0  0  0  0999 V3000
M  V30 BEGIN CTAB
M  V30 COUNTS 32 31 0 0 0
M  V30 BEGIN ATOM
M  V30 1 N 5.60578 -0.221075 -0.616398 0
M  V30 2 O 4.22828 -0.241159 -0.969955 0
M  V30 3 C 3.69917 -0.918304 0.229641 0
M  V30 4 C 2.7335 0.24423 0.686101 0
M  V30 5 C 1.8051 0.640959 -0.371871 0
M  V30 6 C 0.432514 -0.014691 -0.113833 0
M  V30 7 C -0.37968 1.03636 0.679213 0
M  V30 8 C -1.76736 0.511043 0.96233 0
M  V30 9 C -2.38367 -0.00913785 -0.309342 0
M  V30 10 C -3.9014 -0.231769 0.0443708 0
M  V30 11 O -4.4091 -0.818668 -1.12468 0
M  V30 12 N -5.78104 -1.07074 -0.922451 0
M  V30 13 H 5.64367 0.851065 -0.234232 0
M  V30 14 H 6.24583 -0.320312 -1.3932 0
M  V30 15 H 4.44978 -1.10048 0.888337 0
M  V30 16 H 3.07688 -1.75168 -0.139236 0
M  V30 17 H 2.20676 -0.232874 1.55457 0
M  V30 18 H 3.44834 0.991097 1.06116 0
M  V30 19 H 2.15486 0.378901 -1.34135 0
M  V30 20 H 1.64745 1.78792 -0.35906 0
M  V30 21 H 0.557914 -0.843659 0.614502 0
M  V30 22 H -0.0839143 -0.340301 -1.00195 0
M  V30 23 H 0.151406 1.63151 1.37122 0
M  V30 24 H -0.639804 1.82313 -0.200436 0
M  V30 25 H -1.58585 -0.425081 1.63918 0
M  V30 26 H -2.39643 1.22067 1.49734 0
M  V30 27 H -2.35887 0.543396 -1.18451 0
M  V30 28 H -2.03063 -1.09486 -0.463108 0
M  V30 29 H -4.23366 0.865415 0.0778481 0
M  V30 30 H -3.98822 -0.677171 0.949987 0
M  V30 31 H -5.82585 -1.93385 -0.311088 0
M  V30 32 H -6.32178 -0.279885 -0.663377 0
M  V30 END ATOM
M  V30 BEGIN BOND
M  V30 1 1 1 2
M  V30 2 1 2 3
M  V30 3 1 3 4
M  V30 4 1 4 5
M  V30 5 1 5 6
M  V30 6 1 6 7
M  V30 7 1 7 8
M  V30 8 1 8 9
M  V30 9 1 9 10
M  V30 10 1 10 11
M  V30 11 1 11 12
M  V30 12 1 1 13
M  V30 13 1 1 14
M  V30 14 1 3 15
M  V30 15 1 3 16
M  V30 16 1 4 17
M  V30 17 1 4 18
M  V30 18 1 5 19
M  V30 19 1 5 20
M  V30 20 1 6 21
M  V30 21 1 6 22
M  V30 22 1 7 23
M  V30 23 1 7 24
M  V30 24 1 8 25
M  V30 25 1 8 26
M  V30 26 1 9 27
M  V30 27 1 9 28
M  V30 28 1 10 29
M  V30 29 1 10 30
M  V30 30 1 12 31
M  V30 31 1 12 32
M  V30 END BOND
M  V30 END CTAB
M  END
