
     RDKit          3D

  0  0  0  0  0  0  0  0  0  0999 V3000
M  V30 BEGIN CTAB
M  V30 COUNTS 21 21 0 0 0
M  V30 BEGIN ATOM
M  V30 1 F 4.62399 1.74643 -0.299427 0
M  V30 2 C 3.90777 0.577736 -0.57968 0
M  V30 3 C 2.42297 0.788993 -0.320806 0
M  V30 4 O 1.77076 -0.410831 -0.619238 0
M  V30 5 C 0.382313 -0.562355 -0.48847 0
M  V30 6 C -0.197356 -1.76169 -0.7961 0
M  V30 7 N -1.51916 -1.90641 -0.671764 0
M  V30 8 C -2.28649 -0.871961 -0.242973 0
M  V30 9 C -1.72083 0.346735 0.0726389 0
M  V30 10 N -0.393677 0.456938 -0.0633953 0
M  V30 11 N -2.54258 1.42189 0.521426 0
M  V30 12 N -3.67246 -1.1087 -0.139719 0
M  V30 13 F 4.3905 -0.405796 0.258597 0
M  V30 14 H 4.10621 0.336136 -1.63666 0
M  V30 15 H 2.26223 1.03354 0.727109 0
M  V30 16 H 2.08374 1.64591 -0.936031 0
M  V30 17 H 0.455144 -2.56648 -1.13685 0
M  V30 18 H -2.15825 2.21104 1.06434 0
M  V30 19 H -3.56304 1.42866 0.304726 0
M  V30 20 H -4.33443 -0.425826 -0.517024 0
M  V30 21 H -4.01734 -1.97395 0.31816 0
M  V30 END ATOM
M  V30 BEGIN BOND
M  V30 1 1 1 2
M  V30 2 1 2 3
M  V30 3 1 3 4
M  V30 4 1 4 5
M  V30 5 2 5 6
M  V30 6 1 6 7
M  V30 7 2 7 8
M  V30 8 1 8 9
M  V30 9 2 9 10
M  V30 10 1 9 11
M  V30 11 1 8 12
M  V30 12 1 2 13
M  V30 13 1 10 5
M  V30 14 1 2 14
M  V30 15 1 3 15
M  V30 16 1 3 16
M  V30 17 1 6 17
M  V30 18 1 11 18
M  V30 19 1 11 19
M  V30 20 1 12 20
M  V30 21 1 12 21
M  V30 END BOND
M  V30 END CTAB
M  END
