
     RDKit          3D

  0  0  0  0  0  0  0  0  0  0999 V3000
M  V30 BEGIN CTAB
M  V30 COUNTS 27 28 0 0 0
M  V30 BEGIN ATOM
M  V30 1 N 4.75742 0.72474 0.629934 0
M  V30 2 C 3.59304 1.56443 0.312834 0
M  V30 3 C 2.55271 0.747278 -0.36769 0
M  V30 4 O 2.4199 0.547047 -1.6624 0
M  V30 5 N 1.40526 -0.214513 -1.88005 0
M  V30 6 C 0.80839 -0.559187 -0.706999 0
M  V30 7 N 1.55713 0.064783 0.234228 0
M  V30 8 C -0.380756 -1.41631 -0.516759 0
M  V30 9 C -1.61981 -0.631598 -0.347819 0
M  V30 10 C -2.7882 -1.25853 -0.00567063 0
M  V30 11 C -3.96062 -0.507475 0.153045 0
M  V30 12 C -3.92942 0.857975 -0.0365044 0
M  V30 13 C -2.76761 1.49572 -0.378643 0
M  V30 14 C -1.62013 0.723225 -0.528974 0
M  V30 15 F -2.74345 2.84015 -0.563808 0
M  V30 16 Cl -5.40213 1.81583 0.160967 0
M  V30 17 N -0.1993 -2.37675 0.552365 0
M  V30 18 H 4.44178 -0.0332933 1.27762 0
M  V30 19 H 5.14898 0.333708 -0.244879 0
M  V30 20 H 3.99076 2.34074 -0.394036 0
M  V30 21 H 3.20346 2.02691 1.22366 0
M  V30 22 H -0.511049 -2.01896 -1.45248 0
M  V30 23 H -2.88097 -2.3224 0.157145 0
M  V30 24 H -4.88972 -0.957354 0.418616 0
M  V30 25 H -0.702362 1.2061 -0.796443 0
M  V30 26 H -0.0120138 -1.94221 1.47024 0
M  V30 27 H 0.528705 -3.05004 0.244421 0
M  V30 END ATOM
M  V30 BEGIN BOND
M  V30 1 1 1 2
M  V30 2 1 2 3
M  V30 3 1 3 4
M  V30 4 1 4 5
M  V30 5 2 5 6
M  V30 6 1 6 7
M  V30 7 1 6 8
M  V30 8 1 8 9
M  V30 9 2 9 10
M  V30 10 1 10 11
M  V30 11 2 11 12
M  V30 12 1 12 13
M  V30 13 2 13 14
M  V30 14 1 13 15
M  V30 15 1 12 16
M  V30 16 1 8 17
M  V30 17 2 7 3
M  V30 18 1 14 9
M  V30 19 1 1 18
M  V30 20 1 1 19
M  V30 21 1 2 20
M  V30 22 1 2 21
M  V30 23 1 8 22
M  V30 24 1 10 23
M  V30 25 1 11 24
M  V30 26 1 14 25
M  V30 27 1 17 26
M  V30 28 1 17 27
M  V30 END BOND
M  V30 END CTAB
M  END
