
     RDKit          3D

  0  0  0  0  0  0  0  0  0  0999 V3000
M  V30 BEGIN CTAB
M  V30 COUNTS 27 29 0 0 0
M  V30 BEGIN ATOM
M  V30 1 N 4.52356 0.866606 -1.04023 0
M  V30 2 C 3.35635 0.268648 -0.50615 0
M  V30 3 C 3.42314 -0.871833 0.299138 0
M  V30 4 C 2.28324 -1.44898 0.815884 0
M  V30 5 C 1.03358 -0.928568 0.561883 0
M  V30 6 N -0.0941806 -1.48756 1.06458 0
M  V30 7 C -1.32111 -0.990987 0.825435 0
M  V30 8 C -2.4342 -1.60211 1.36388 0
M  V30 9 C -3.67452 -1.06518 1.09726 0
M  V30 10 C -3.79891 0.0750251 0.297531 0
M  V30 11 C -2.67537 0.676711 -0.235167 0
M  V30 12 N -2.82152 1.83617 -1.04659 0
M  V30 13 C -1.42454 0.135536 0.0334881 0
M  V30 14 C -0.292868 0.724699 -0.491047 0
M  V30 15 C 0.969434 0.19472 -0.231419 0
M  V30 16 C 2.1017 0.779605 -0.75296 0
M  V30 17 H 4.52124 1.37489 -1.94647 0
M  V30 18 H 5.42107 0.803775 -0.52018 0
M  V30 19 H 4.39548 -1.28164 0.500244 0
M  V30 20 H 2.33265 -2.34759 1.45069 0
M  V30 21 H -2.38336 -2.48452 1.98702 0
M  V30 22 H -4.59414 -1.49003 1.48515 0
M  V30 23 H -4.77963 0.484529 0.0974294 0
M  V30 24 H -2.6851 2.75997 -0.57872 0
M  V30 25 H -3.05123 1.75341 -2.04706 0
M  V30 26 H -0.352171 1.59755 -1.1066 0
M  V30 27 H 2.02142 1.66715 -1.37701 0
M  V30 END ATOM
M  V30 BEGIN BOND
M  V30 1 1 1 2
M  V30 2 2 2 3
M  V30 3 1 3 4
M  V30 4 2 4 5
M  V30 5 1 5 6
M  V30 6 2 6 7
M  V30 7 1 7 8
M  V30 8 2 8 9
M  V30 9 1 9 10
M  V30 10 2 10 11
M  V30 11 1 11 12
M  V30 12 1 11 13
M  V30 13 2 13 14
M  V30 14 1 14 15
M  V30 15 2 15 16
M  V30 16 1 16 2
M  V30 17 1 15 5
M  V30 18 1 13 7
M  V30 19 1 1 17
M  V30 20 1 1 18
M  V30 21 1 3 19
M  V30 22 1 4 20
M  V30 23 1 8 21
M  V30 24 1 9 22
M  V30 25 1 10 23
M  V30 26 1 12 24
M  V30 27 1 12 25
M  V30 28 1 14 26
M  V30 29 1 16 27
M  V30 END BOND
M  V30 END CTAB
M  END
