
     RDKit          3D

  0  0  0  0  0  0  0  0  0  0999 V3000
M  V30 BEGIN CTAB
M  V30 COUNTS 30 31 0 0 0
M  V30 BEGIN ATOM
M  V30 1 C -0.372448 -2.46203 -0.324149 0
M  V30 2 C -0.660048 -0.984623 -0.0722478 0 CFG=2
M  V30 3 N -1.26384 -0.87966 1.23734 0
M  V30 4 C -1.9938 0.129485 1.51246 0
M  V30 5 N -2.63093 0.308807 2.79323 0
M  V30 6 O -2.17784 1.09402 0.527842 0
M  V30 7 C -2.34561 0.723784 -0.842242 0
M  V30 8 C -1.55983 -0.516556 -1.17152 0 CFG=2
M  V30 9 F -2.505 -1.53207 -1.3778 0
M  V30 10 C 0.649338 -0.286366 -0.0391402 0
M  V30 11 C 0.976281 0.780288 -0.838152 0
M  V30 12 C 2.21739 1.39038 -0.761482 0
M  V30 13 N 2.5771 2.48987 -1.5735 0
M  V30 14 C 3.1338 0.894092 0.15121 0
M  V30 15 C 2.81283 -0.168982 0.94997 0
M  V30 16 C 1.57427 -0.768405 0.864967 0
M  V30 17 F 1.31512 -1.82525 1.68951 0
M  V30 18 H -0.540719 -3.06653 0.587143 0
M  V30 19 H -0.999429 -2.89095 -1.12275 0
M  V30 20 H 0.677561 -2.59865 -0.645536 0
M  V30 21 H -3.16064 -0.499179 3.16551 0
M  V30 22 H -2.52158 1.22879 3.26134 0
M  V30 23 H -2.09266 1.56639 -1.51629 0
M  V30 24 H -3.45499 0.58187 -0.96231 0
M  V30 25 H -0.994888 -0.43315 -2.10518 0
M  V30 26 H 0.263474 1.15083 -1.53506 0
M  V30 27 H 2.81303 2.33745 -2.57568 0
M  V30 28 H 2.61122 3.45236 -1.18917 0
M  V30 29 H 4.11608 1.34953 0.23667 0
M  V30 30 H 3.53676 -0.565544 1.67502 0
M  V30 END ATOM
M  V30 BEGIN BOND
M  V30 1 1 2 1 CFG=3
M  V30 2 1 2 3
M  V30 3 2 3 4
M  V30 4 1 4 5
M  V30 5 1 4 6
M  V30 6 1 6 7
M  V30 7 1 7 8
M  V30 8 1 8 9
M  V30 9 1 2 10
M  V30 10 2 10 11
M  V30 11 1 11 12
M  V30 12 1 12 13
M  V30 13 2 12 14
M  V30 14 1 14 15
M  V30 15 2 15 16
M  V30 16 1 16 17
M  V30 17 1 8 2
M  V30 18 1 16 10
M  V30 19 1 1 18
M  V30 20 1 1 19
M  V30 21 1 1 20
M  V30 22 1 5 21
M  V30 23 1 5 22
M  V30 24 1 7 23
M  V30 25 1 7 24
M  V30 26 1 8 25 CFG=3
M  V30 27 1 11 26
M  V30 28 1 13 27
M  V30 29 1 13 28
M  V30 30 1 14 29
M  V30 31 1 15 30
M  V30 END BOND
M  V30 END CTAB
M  END
