
     RDKit          3D

  0  0  0  0  0  0  0  0  0  0999 V3000
M  V30 BEGIN CTAB
M  V30 COUNTS 38 38 0 0 0
M  V30 BEGIN ATOM
M  V30 1 C 5.42862 -0.858741 -0.00829713 0
M  V30 2 C 3.99174 -0.955389 0.372981 0
M  V30 3 C 3.05571 -0.789854 -0.801036 0 CFG=1
M  V30 4 C 1.63279 -0.912925 -0.253078 0
M  V30 5 O 1.40423 -1.99116 0.349399 0
M  V30 6 N 0.744691 0.15093 -0.465492 0
M  V30 7 C -0.578229 0.213905 -0.0422162 0
M  V30 8 C -1.24411 -0.763753 0.663538 0
M  V30 9 C -2.57151 -0.618018 1.0487 0
M  V30 10 C -3.25779 0.515705 0.731602 0
M  V30 11 C -2.63637 1.52344 0.0264663 0
M  V30 12 C -1.32348 1.36554 -0.34782 0
M  V30 13 C -0.661382 2.44144 -1.10135 0
M  V30 14 C -3.42609 2.73696 -0.293708 0
M  V30 15 S -3.30272 -1.9365 1.9431 0
M  V30 16 O -2.32326 -2.67792 2.77423 0
M  V30 17 O -4.4224 -1.34435 2.78541 0
M  V30 18 N -4.01948 -3.03988 0.799608 0
M  V30 19 N 3.20497 0.467588 -1.46246 0
M  V30 20 H 5.98532 -1.81856 0.188012 0
M  V30 21 H 5.97165 -0.0717365 0.551748 0
M  V30 22 H 5.58299 -0.648824 -1.09211 0
M  V30 23 H 3.82613 -1.92191 0.884568 0
M  V30 24 H 3.78421 -0.169681 1.12635 0
M  V30 25 H 3.17667 -1.60102 -1.54356 0
M  V30 26 H 1.12694 0.991276 -1.00487 0
M  V30 27 H -0.749939 -1.67123 0.936374 0
M  V30 28 H -4.29211 0.616228 1.03808 0
M  V30 29 H -1.32501 3.26049 -1.38436 0
M  V30 30 H -0.269056 2.02142 -2.07428 0
M  V30 31 H 0.202971 2.88579 -0.55357 0
M  V30 32 H -4.33697 2.77754 0.336512 0
M  V30 33 H -2.8673 3.6765 -0.120093 0
M  V30 34 H -3.74006 2.65309 -1.35779 0
M  V30 35 H -4.2239 -2.50229 -0.0700851 0
M  V30 36 H -3.28914 -3.76587 0.579756 0
M  V30 37 H 2.60433 0.4765 -2.30955 0
M  V30 38 H 3.13635 1.28527 -0.850691 0
M  V30 END ATOM
M  V30 BEGIN BOND
M  V30 1 1 1 2
M  V30 2 1 2 3
M  V30 3 1 3 4
M  V30 4 2 4 5
M  V30 5 1 4 6
M  V30 6 1 6 7
M  V30 7 2 7 8
M  V30 8 1 8 9
M  V30 9 2 9 10
M  V30 10 1 10 11
M  V30 11 2 11 12
M  V30 12 1 12 13
M  V30 13 1 11 14
M  V30 14 1 9 15
M  V30 15 2 15 16
M  V30 16 2 15 17
M  V30 17 1 15 18
M  V30 18 1 3 19
M  V30 19 1 12 7
M  V30 20 1 1 20
M  V30 21 1 1 21
M  V30 22 1 1 22
M  V30 23 1 2 23
M  V30 24 1 2 24
M  V30 25 1 3 25 CFG=3
M  V30 26 1 6 26
M  V30 27 1 8 27
M  V30 28 1 10 28
M  V30 29 1 13 29
M  V30 30 1 13 30
M  V30 31 1 13 31
M  V30 32 1 14 32
M  V30 33 1 14 33
M  V30 34 1 14 34
M  V30 35 1 18 35
M  V30 36 1 18 36
M  V30 37 1 19 37
M  V30 38 1 19 38
M  V30 END BOND
M  V30 END CTAB
M  END
