
     RDKit          3D

  0  0  0  0  0  0  0  0  0  0999 V3000
M  V30 BEGIN CTAB
M  V30 COUNTS 36 36 0 0 0
M  V30 BEGIN ATOM
M  V30 1 C -4.00137 -0.241535 1.4602 0
M  V30 2 C -3.2511 -1.40776 0.87545 0
M  V30 3 C -2.94481 -1.14504 -0.590137 0
M  V30 4 N -2.13728 0.0454729 -0.706465 0
M  V30 5 C -2.65486 1.29018 -0.862473 0
M  V30 6 C -1.64517 2.22494 -0.948111 0
M  V30 7 N -1.7885 3.63678 -1.11513 0
M  V30 8 C -0.484286 1.49085 -0.836742 0
M  V30 9 C -0.812234 0.137644 -0.687096 0
M  V30 10 C 0.170227 -0.928577 -0.536334 0
M  V30 11 O -0.161523 -2.13417 -0.388402 0
M  V30 12 N 1.54744 -0.609106 -0.555412 0
M  V30 13 C 2.52084 -1.67423 -0.404946 0
M  V30 14 C 3.9305 -1.17106 -0.446856 0
M  V30 15 C 4.22623 -0.201708 0.611756 0
M  V30 16 N 5.52663 0.358398 0.691801 0
M  V30 17 N 3.35396 0.16941 1.48087 0
M  V30 18 H -3.31924 0.594812 1.72564 0
M  V30 19 H -4.77162 0.147813 0.751046 0
M  V30 20 H -4.53632 -0.513868 2.39721 0
M  V30 21 H -3.923 -2.28195 0.905349 0
M  V30 22 H -2.31764 -1.54917 1.45448 0
M  V30 23 H -3.91871 -0.952904 -1.11445 0
M  V30 24 H -2.47869 -2.00926 -1.08753 0
M  V30 25 H -3.70069 1.50662 -0.911226 0
M  V30 26 H -1.90836 4.08935 -2.03609 0
M  V30 27 H -1.77329 4.26047 -0.267111 0
M  V30 28 H 0.511164 1.93532 -0.865873 0
M  V30 29 H 1.82173 0.388172 -0.677795 0
M  V30 30 H 2.38818 -2.36916 -1.26107 0
M  V30 31 H 2.30946 -2.25164 0.524173 0
M  V30 32 H 4.11344 -0.775921 -1.46783 0
M  V30 33 H 4.60045 -2.04736 -0.329925 0
M  V30 34 H 6.32031 -0.201312 1.03369 0
M  V30 35 H 5.65031 1.33979 0.397738 0
M  V30 36 H 3.53781 0.849695 2.23495 0
M  V30 END ATOM
M  V30 BEGIN BOND
M  V30 1 1 1 2
M  V30 2 1 2 3
M  V30 3 1 3 4
M  V30 4 1 4 5
M  V30 5 2 5 6
M  V30 6 1 6 7
M  V30 7 1 6 8
M  V30 8 2 8 9
M  V30 9 1 9 10
M  V30 10 2 10 11
M  V30 11 1 10 12
M  V30 12 1 12 13
M  V30 13 1 13 14
M  V30 14 1 14 15
M  V30 15 1 15 16
M  V30 16 2 15 17 CFG=2
M  V30 17 1 9 4
M  V30 18 1 1 18
M  V30 19 1 1 19
M  V30 20 1 1 20
M  V30 21 1 2 21
M  V30 22 1 2 22
M  V30 23 1 3 23
M  V30 24 1 3 24
M  V30 25 1 5 25
M  V30 26 1 7 26
M  V30 27 1 7 27
M  V30 28 1 8 28
M  V30 29 1 12 29
M  V30 30 1 13 30
M  V30 31 1 13 31
M  V30 32 1 14 32
M  V30 33 1 14 33
M  V30 34 1 16 34
M  V30 35 1 16 35
M  V30 36 1 17 36
M  V30 END BOND
M  V30 END CTAB
M  END
