
     RDKit          3D

  0  0  0  0  0  0  0  0  0  0999 V3000
M  V30 BEGIN CTAB
M  V30 COUNTS 24 24 0 0 0
M  V30 BEGIN ATOM
M  V30 1 N -3.76821 -0.683362 0.557422 0
M  V30 2 C -2.39488 -0.409824 0.34521 0
M  V30 3 C -1.41776 -1.33498 0.659117 0
M  V30 4 C -0.0798237 -1.11431 0.471399 0
M  V30 5 C 0.351993 0.0950936 -0.0617221 0
M  V30 6 C -0.624445 1.01769 -0.374616 0
M  V30 7 C -1.97239 0.792535 -0.184317 0
M  V30 8 N -2.92399 1.79027 -0.530176 0
M  V30 9 N 1.73949 0.361515 -0.271953 0
M  V30 10 C 2.75567 -0.596852 0.0531942 0
M  V30 11 C 4.11139 -0.00919668 -0.287956 0
M  V30 12 F 4.09244 0.25995 -1.64664 0
M  V30 13 F 5.13581 -0.861341 0.0590562 0
M  V30 14 F 4.19359 1.20906 0.367174 0
M  V30 15 H -4.11527 -1.05962 1.45752 0
M  V30 16 H -4.449 -0.505714 -0.200683 0
M  V30 17 H -1.75196 -2.2752 1.07348 0
M  V30 18 H 0.685248 -1.85344 0.7233 0
M  V30 19 H -0.320154 1.97001 -0.791851 0
M  V30 20 H -3.66322 1.52404 -1.22585 0
M  V30 21 H -2.93065 2.75031 -0.141795 0
M  V30 22 H 1.9756 1.29356 -0.676039 0
M  V30 23 H 2.62535 -1.55165 -0.499062 0
M  V30 24 H 2.74516 -0.808551 1.12579 0
M  V30 END ATOM
M  V30 BEGIN BOND
M  V30 1 1 1 2
M  V30 2 2 2 3
M  V30 3 1 3 4
M  V30 4 2 4 5
M  V30 5 1 5 6
M  V30 6 2 6 7
M  V30 7 1 7 8
M  V30 8 1 5 9
M  V30 9 1 9 10
M  V30 10 1 10 11
M  V30 11 1 11 12
M  V30 12 1 11 13
M  V30 13 1 11 14
M  V30 14 1 7 2
M  V30 15 1 1 15
M  V30 16 1 1 16
M  V30 17 1 3 17
M  V30 18 1 4 18
M  V30 19 1 6 19
M  V30 20 1 8 20
M  V30 21 1 8 21
M  V30 22 1 9 22
M  V30 23 1 10 23
M  V30 24 1 10 24
M  V30 END BOND
M  V30 END CTAB
M  END
