
     RDKit          3D

  0  0  0  0  0  0  0  0  0  0999 V3000
M  V30 BEGIN CTAB
M  V30 COUNTS 33 35 0 0 0
M  V30 BEGIN ATOM
M  V30 1 N -3.33384 2.39621 0.139097 0
M  V30 2 C -3.49154 1.01349 0.476984 0
M  V30 3 C -2.60502 0.0873875 -0.30533 0
M  V30 4 C -2.84517 -1.31841 0.18207 0
M  V30 5 C -1.47215 -1.87421 0.335657 0
M  V30 6 C -0.564606 -0.859681 0.135063 0
M  V30 7 O -1.24007 0.335773 -0.142057 0
M  V30 8 C 0.785202 -1.12158 0.223845 0
M  V30 9 C 1.1767 -2.42215 0.517318 0
M  V30 10 C 0.270651 -3.43683 0.717982 0
M  V30 11 C -1.0719 -3.16533 0.627265 0
M  V30 12 C 1.75409 -0.0571064 0.0137246 0
M  V30 13 C 2.88595 -0.194946 -0.758969 0
M  V30 14 C 3.78752 0.835059 -0.939415 0
M  V30 15 C 3.5246 2.03558 -0.313943 0
M  V30 16 N 2.41057 2.19678 0.456317 0
M  V30 17 C 1.53378 1.16071 0.618686 0
M  V30 18 N 4.443 3.12709 -0.481644 0
M  V30 19 H -3.22405 3.01707 0.983266 0
M  V30 20 H -4.15838 2.79852 -0.378926 0
M  V30 21 H -4.54446 0.725394 0.24608 0
M  V30 22 H -3.37541 0.889667 1.57166 0
M  V30 23 H -2.91114 0.176153 -1.38037 0
M  V30 24 H -3.36938 -1.89825 -0.620898 0
M  V30 25 H -3.35966 -1.37714 1.14419 0
M  V30 26 H 2.23464 -2.65105 0.592057 0
M  V30 27 H 0.564783 -4.46261 0.949113 0
M  V30 28 H -1.80343 -3.95127 0.782007 0
M  V30 29 H 3.08572 -1.13684 -1.24557 0
M  V30 30 H 4.68513 0.774543 -1.53353 0
M  V30 31 H 0.65076 1.28466 1.22775 0
M  V30 32 H 4.82464 3.37601 -1.41943 0
M  V30 33 H 4.75247 3.6973 0.320433 0
M  V30 END ATOM
M  V30 BEGIN BOND
M  V30 1 1 1 2
M  V30 2 1 2 3
M  V30 3 1 3 4
M  V30 4 1 4 5
M  V30 5 2 5 6
M  V30 6 1 6 7
M  V30 7 1 6 8
M  V30 8 2 8 9
M  V30 9 1 9 10
M  V30 10 2 10 11
M  V30 11 1 8 12
M  V30 12 2 12 13
M  V30 13 1 13 14
M  V30 14 2 14 15
M  V30 15 1 15 16
M  V30 16 2 16 17
M  V30 17 1 15 18
M  V30 18 1 7 3
M  V30 19 1 17 12
M  V30 20 1 11 5
M  V30 21 1 1 19
M  V30 22 1 1 20
M  V30 23 1 2 21
M  V30 24 1 2 22
M  V30 25 1 3 23
M  V30 26 1 4 24
M  V30 27 1 4 25
M  V30 28 1 9 26
M  V30 29 1 10 27
M  V30 30 1 11 28
M  V30 31 1 13 29
M  V30 32 1 14 30
M  V30 33 1 17 31
M  V30 34 1 18 32
M  V30 35 1 18 33
M  V30 END BOND
M  V30 END CTAB
M  END
