
     RDKit          3D

  0  0  0  0  0  0  0  0  0  0999 V3000
M  V30 BEGIN CTAB
M  V30 COUNTS 52 55 0 0 0
M  V30 BEGIN ATOM
M  V30 1 N 2.18114 1.79154 0.0252103 0
M  V30 2 C 1.2003 0.762508 0.0948866 0
M  V30 3 C -0.133586 1.07916 0.277966 0
M  V30 4 N -0.450964 2.4663 0.389038 0
M  V30 5 N -0.512509 3.24906 -0.60113 0
M  V30 6 C -0.839183 4.60412 -0.343648 0
M  V30 7 C 0.106335 5.57839 -0.572286 0
M  V30 8 C -0.184189 6.90541 -0.33044 0
M  V30 9 C -1.42612 7.23871 0.140051 0
M  V30 10 C -2.39975 6.29969 0.382259 0
M  V30 11 C -2.07756 4.97845 0.129926 0
M  V30 12 C -1.12429 0.115682 0.352259 0
M  V30 13 N -2.46746 0.544843 0.542289 0
M  V30 14 C -0.781453 -1.21953 0.240683 0
M  V30 15 C 0.563058 -1.56099 0.0549988 0
M  V30 16 C 1.52299 -0.573424 -0.0142078 0
M  V30 17 N 2.88245 -0.92579 -0.202317 0
M  V30 18 N 3.42299 -1.7585 0.570566 0
M  V30 19 C 4.79587 -2.1678 0.446023 0
M  V30 20 C 5.76438 -1.20306 0.385581 0
M  V30 21 C 7.08651 -1.54672 0.26675 0
M  V30 22 C 7.47349 -2.87396 0.205137 0
M  V30 23 C 6.48419 -3.82992 0.267523 0
M  V30 24 C 5.1562 -3.49037 0.386759 0
M  V30 25 N -1.79754 -2.18911 0.317839 0
M  V30 26 N -2.93239 -1.9391 -0.173726 0
M  V30 27 C -4.01882 -2.85292 -0.144495 0
M  V30 28 C -4.94048 -2.78265 -1.16767 0
M  V30 29 C -6.03571 -3.63449 -1.22418 0
M  V30 30 C -6.20588 -4.57504 -0.23122 0
M  V30 31 C -5.29065 -4.64709 0.787613 0
M  V30 32 C -4.19134 -3.79206 0.844324 0
M  V30 33 H 2.73651 1.97379 0.897973 0
M  V30 34 H 2.3686 2.35333 -0.819895 0
M  V30 35 H 1.08954 5.32835 -0.943329 0
M  V30 36 H 0.562446 7.65654 -0.512899 0
M  V30 37 H -1.6362 8.28041 0.323601 0
M  V30 38 H -3.35226 6.6399 0.752025 0
M  V30 39 H -2.83345 4.22961 0.315894 0
M  V30 40 H -3.08273 0.647843 -0.301651 0
M  V30 41 H -2.85366 0.757245 1.4824 0
M  V30 42 H 0.806214 -2.62454 -0.0301315 0
M  V30 43 H 5.48064 -0.178131 0.431878 0
M  V30 44 H 7.84942 -0.751938 0.219911 0
M  V30 45 H 8.51087 -3.10829 0.112664 0
M  V30 46 H 6.7245 -4.8787 0.224352 0
M  V30 47 H 4.36799 -4.24542 0.436618 0
M  V30 48 H -4.85113 -2.05372 -1.98044 0
M  V30 49 H -6.76378 -3.58535 -2.02449 0
M  V30 50 H -7.04477 -5.25279 -0.243213 0
M  V30 51 H -5.43584 -5.38494 1.55469 0
M  V30 52 H -3.47293 -3.85454 1.65142 0
M  V30 END ATOM
M  V30 BEGIN BOND
M  V30 1 1 1 2
M  V30 2 2 2 3
M  V30 3 1 3 4
M  V30 4 2 4 5
M  V30 5 1 5 6
M  V30 6 2 6 7
M  V30 7 1 7 8
M  V30 8 2 8 9
M  V30 9 1 9 10
M  V30 10 2 10 11
M  V30 11 1 3 12
M  V30 12 1 12 13
M  V30 13 2 12 14
M  V30 14 1 14 15
M  V30 15 2 15 16
M  V30 16 1 16 17
M  V30 17 2 17 18
M  V30 18 1 18 19
M  V30 19 2 19 20
M  V30 20 1 20 21
M  V30 21 2 21 22
M  V30 22 1 22 23
M  V30 23 2 23 24
M  V30 24 1 14 25
M  V30 25 2 25 26
M  V30 26 1 26 27
M  V30 27 2 27 28
M  V30 28 1 28 29
M  V30 29 2 29 30
M  V30 30 1 30 31
M  V30 31 2 31 32
M  V30 32 1 16 2
M  V30 33 1 24 19
M  V30 34 1 32 27
M  V30 35 1 11 6
M  V30 36 1 1 33
M  V30 37 1 1 34
M  V30 38 1 7 35
M  V30 39 1 8 36
M  V30 40 1 9 37
M  V30 41 1 10 38
M  V30 42 1 11 39
M  V30 43 1 13 40
M  V30 44 1 13 41
M  V30 45 1 15 42
M  V30 46 1 20 43
M  V30 47 1 21 44
M  V30 48 1 22 45
M  V30 49 1 23 46
M  V30 50 1 24 47
M  V30 51 1 28 48
M  V30 52 1 29 49
M  V30 53 1 30 50
M  V30 54 1 31 51
M  V30 55 1 32 52
M  V30 END BOND
M  V30 END CTAB
M  END
