
     RDKit          3D

  0  0  0  0  0  0  0  0  0  0999 V3000
M  V30 BEGIN CTAB
M  V30 COUNTS 19 18 0 0 0
M  V30 BEGIN ATOM
M  V30 1 O -1.45367 1.75002 1.03293 0
M  V30 2 C -1.81945 0.78113 0.127244 0
M  V30 3 C -0.752072 -0.311156 0.0188843 0
M  V30 4 N 0.452637 0.310484 -0.408964 0
M  V30 5 C 1.61989 0.133423 0.0936086 0
M  V30 6 N 1.92233 -0.726238 1.18145 0
M  V30 7 N 2.69 0.85555 -0.486426 0
M  V30 8 C -1.1911 -1.2757 -1.07996 0
M  V30 9 H -2.27468 2.16545 1.37962 0
M  V30 10 H -2.78068 0.344982 0.45343 0
M  V30 11 H -1.99397 1.24754 -0.884626 0
M  V30 12 H -0.697629 -0.826898 0.978226 0
M  V30 13 H 2.58463 -0.47116 1.95264 0
M  V30 14 H 1.45602 -1.65244 1.20114 0
M  V30 15 H 2.89173 1.85192 -0.287718 0
M  V30 16 H 3.31158 0.359109 -1.15133 0
M  V30 17 H -0.354637 -1.48935 -1.77804 0
M  V30 18 H -2.03403 -0.826114 -1.66958 0
M  V30 19 H -1.57689 -2.22055 -0.672546 0
M  V30 END ATOM
M  V30 BEGIN BOND
M  V30 1 1 1 2
M  V30 2 1 2 3
M  V30 3 1 3 4
M  V30 4 2 4 5 CFG=2
M  V30 5 1 5 6
M  V30 6 1 5 7
M  V30 7 1 3 8
M  V30 8 1 1 9
M  V30 9 1 2 10
M  V30 10 1 2 11
M  V30 11 1 3 12
M  V30 12 1 6 13
M  V30 13 1 6 14
M  V30 14 1 7 15
M  V30 15 1 7 16
M  V30 16 1 8 17
M  V30 17 1 8 18
M  V30 18 1 8 19
M  V30 END BOND
M  V30 END CTAB
M  END
