
     RDKit          3D

  0  0  0  0  0  0  0  0  0  0999 V3000
M  V30 BEGIN CTAB
M  V30 COUNTS 43 45 0 0 0
M  V30 BEGIN ATOM
M  V30 1 N -2.9084 -0.75714 -2.98928 0
M  V30 2 C -1.89623 -0.561814 -2.49137 0
M  V30 3 C -0.634226 -0.34239 -1.86427 0
M  V30 4 C 0.56593 -0.267877 -2.57329 0
M  V30 5 N 0.500789 -0.422039 -3.988 0
M  V30 6 N 1.71286 -0.0608564 -1.9221 0
M  V30 7 C 1.80657 0.085516 -0.598753 0
M  V30 8 C 0.652212 0.0192626 0.153749 0
M  V30 9 C -0.562768 -0.194501 -0.495098 0
M  V30 10 C -1.81441 -0.226263 0.270154 0
M  V30 11 C -2.48092 0.9335 0.602105 0
M  V30 12 C -3.63729 0.949623 1.34138 0
M  V30 13 O -4.26794 2.14072 1.65154 0
M  V30 14 C -3.76768 3.38886 1.23859 0
M  V30 15 C -4.16917 -0.247013 1.77957 0
M  V30 16 C -3.52357 -1.42079 1.46187 0
M  V30 17 C -2.35183 -1.41014 0.710857 0
M  V30 18 O -1.76615 -2.64045 0.435571 0
M  V30 19 C -2.30905 -3.86181 0.880328 0
M  V30 20 C 3.09889 0.351975 0.0661966 0
M  V30 21 S 3.39289 0.622588 1.73869 0
M  V30 22 C 5.08034 0.864806 1.65892 0
M  V30 23 N 5.32861 0.725996 0.365982 0
M  V30 24 C 4.35831 0.469445 -0.455002 0
M  V30 25 C 4.57909 0.297474 -1.94891 0
M  V30 26 N 6.01953 1.15631 2.72402 0
M  V30 27 H -0.0789819 -1.21015 -4.34757 0
M  V30 28 H 1.00463 0.213105 -4.63272 0
M  V30 29 H 0.673967 0.128653 1.21225 0
M  V30 30 H -2.04186 1.85465 0.243221 0
M  V30 31 H -4.19379 4.21492 1.87199 0
M  V30 32 H -2.65327 3.38128 1.42269 0
M  V30 33 H -3.92249 3.61127 0.166609 0
M  V30 34 H -5.08891 -0.243338 2.36963 0
M  V30 35 H -3.971 -2.33844 1.82304 0
M  V30 36 H -1.61296 -4.67613 0.592467 0
M  V30 37 H -2.59483 -3.88007 1.94242 0
M  V30 38 H -3.26935 -4.05642 0.316802 0
M  V30 39 H 5.64291 0.561702 -2.21905 0
M  V30 40 H 3.96768 1.0012 -2.52769 0
M  V30 41 H 4.43287 -0.762883 -2.19109 0
M  V30 42 H 6.55313 0.446919 3.23119 0
M  V30 43 H 6.14589 2.16075 2.97237 0
M  V30 END ATOM
M  V30 BEGIN BOND
M  V30 1 3 1 2
M  V30 2 1 2 3
M  V30 3 2 3 4
M  V30 4 1 4 5
M  V30 5 1 4 6
M  V30 6 2 6 7
M  V30 7 1 7 8
M  V30 8 2 8 9
M  V30 9 1 9 10
M  V30 10 2 10 11
M  V30 11 1 11 12
M  V30 12 1 12 13
M  V30 13 1 13 14
M  V30 14 2 12 15
M  V30 15 1 15 16
M  V30 16 2 16 17
M  V30 17 1 17 18
M  V30 18 1 18 19
M  V30 19 1 7 20
M  V30 20 1 20 21
M  V30 21 1 21 22
M  V30 22 2 22 23
M  V30 23 1 23 24
M  V30 24 1 24 25
M  V30 25 1 22 26
M  V30 26 1 9 3
M  V30 27 1 17 10
M  V30 28 2 24 20
M  V30 29 1 5 27
M  V30 30 1 5 28
M  V30 31 1 8 29
M  V30 32 1 11 30
M  V30 33 1 14 31
M  V30 34 1 14 32
M  V30 35 1 14 33
M  V30 36 1 15 34
M  V30 37 1 16 35
M  V30 38 1 19 36
M  V30 39 1 19 37
M  V30 40 1 19 38
M  V30 41 1 25 39
M  V30 42 1 25 40
M  V30 43 1 25 41
M  V30 44 1 26 42
M  V30 45 1 26 43
M  V30 END BOND
M  V30 END CTAB
M  END
