
     RDKit          3D

  0  0  0  0  0  0  0  0  0  0999 V3000
M  V30 BEGIN CTAB
M  V30 COUNTS 25 24 0 0 0
M  V30 BEGIN ATOM
M  V30 1 C 1.70007 -1.01424 -0.134095 0 CFG=1
M  V30 2 O 2.42435 -1.32815 -1.29631 0
M  V30 3 C 2.47526 -0.011748 0.644645 0
M  V30 4 N 2.72909 1.21642 -0.0489978 0
M  V30 5 C 0.346233 -0.587603 -0.542865 0
M  V30 6 C -0.570907 -0.212462 0.568573 0
M  V30 7 C -1.89679 0.188945 -0.0948555 0 CFG=1
M  V30 8 N -2.39155 -0.950433 -0.838579 0
M  V30 9 C -2.8775 0.671245 0.880383 0
M  V30 10 O -2.61313 1.74798 1.6963 0
M  V30 11 O -3.98763 0.0697151 0.958505 0
M  V30 12 H 1.6342 -1.94311 0.457037 0
M  V30 13 H 2.21123 -0.614717 -1.95684 0
M  V30 14 H 1.95494 0.206622 1.61051 0
M  V30 15 H 3.47176 -0.483108 0.890052 0
M  V30 16 H 2.52814 1.19146 -1.05771 0
M  V30 17 H 3.6903 1.58036 0.185959 0
M  V30 18 H 0.442876 0.317021 -1.20951 0
M  V30 19 H -0.099425 -1.37042 -1.18643 0
M  V30 20 H -0.79754 -1.00888 1.27424 0
M  V30 21 H -0.189844 0.687669 1.08619 0
M  V30 22 H -1.61412 1.00038 -0.82026 0
M  V30 23 H -3.36027 -1.21061 -0.575455 0
M  V30 24 H -2.33667 -0.825347 -1.87003 0
M  V30 25 H -2.87308 2.683 1.37954 0
M  V30 END ATOM
M  V30 BEGIN BOND
M  V30 1 1 1 2
M  V30 2 1 1 3
M  V30 3 1 3 4
M  V30 4 1 1 5
M  V30 5 1 5 6
M  V30 6 1 6 7
M  V30 7 1 7 8
M  V30 8 1 7 9
M  V30 9 1 9 10
M  V30 10 2 9 11
M  V30 11 1 1 12 CFG=1
M  V30 12 1 2 13
M  V30 13 1 3 14
M  V30 14 1 3 15
M  V30 15 1 4 16
M  V30 16 1 4 17
M  V30 17 1 5 18
M  V30 18 1 5 19
M  V30 19 1 6 20
M  V30 20 1 6 21
M  V30 21 1 7 22 CFG=3
M  V30 22 1 8 23
M  V30 23 1 8 24
M  V30 24 1 10 25
M  V30 END BOND
M  V30 END CTAB
M  END
