
     RDKit          3D

  0  0  0  0  0  0  0  0  0  0999 V3000
M  V30 BEGIN CTAB
M  V30 COUNTS 35 36 0 0 0
M  V30 BEGIN ATOM
M  V30 1 C -4.45214 0.00741942 -1.81597 0
M  V30 2 O -3.26367 0.432678 -1.22095 0
M  V30 3 C -2.45896 -0.324105 -0.418732 0
M  V30 4 C -2.77232 -1.62243 -0.122126 0
M  V30 5 C -1.93061 -2.34664 0.691694 0
M  V30 6 C -0.773172 -1.82287 1.22931 0
M  V30 7 C -0.451458 -0.51089 0.93143 0
M  V30 8 C 0.771628 0.0616449 1.50295 0
M  V30 9 C 1.88914 0.261754 0.556573 0
M  V30 10 C 2.23399 1.55044 0.125824 0
M  V30 11 N 3.25959 1.71455 -0.723422 0
M  V30 12 C 3.99892 0.71831 -1.2039 0
M  V30 13 N 5.08209 0.978367 -2.11127 0
M  V30 14 N 3.69823 -0.525302 -0.813435 0
M  V30 15 C 2.66153 -0.753844 0.0522714 0
M  V30 16 N 2.40357 -2.09672 0.428458 0
M  V30 17 C -1.2961 0.207309 0.119285 0
M  V30 18 O -0.958805 1.54922 -0.176263 0
M  V30 19 C -1.4631 2.56021 0.701367 0
M  V30 20 H -5.25353 -0.227571 -1.09077 0
M  V30 21 H -4.26543 -0.961276 -2.36406 0
M  V30 22 H -4.7778 0.72458 -2.59481 0
M  V30 23 H -3.65858 -2.12454 -0.495312 0
M  V30 24 H -2.14191 -3.38411 0.954135 0
M  V30 25 H -0.137755 -2.43493 1.88898 0
M  V30 26 H 0.552809 1.06203 1.97609 0
M  V30 27 H 1.14543 -0.543167 2.38394 0
M  V30 28 H 1.67112 2.39476 0.493851 0
M  V30 29 H 5.4769 1.94015 -2.18358 0
M  V30 30 H 5.43777 0.193465 -2.66881 0
M  V30 31 H 2.48637 -2.35347 1.43232 0
M  V30 32 H 2.13691 -2.83564 -0.245445 0
M  V30 33 H -0.690121 3.32321 0.856304 0
M  V30 34 H -2.31252 3.06197 0.181006 0
M  V30 35 H -1.84799 2.12545 1.64603 0
M  V30 END ATOM
M  V30 BEGIN BOND
M  V30 1 1 1 2
M  V30 2 1 2 3
M  V30 3 2 3 4
M  V30 4 1 4 5
M  V30 5 2 5 6
M  V30 6 1 6 7
M  V30 7 1 7 8
M  V30 8 1 8 9
M  V30 9 2 9 10
M  V30 10 1 10 11
M  V30 11 2 11 12
M  V30 12 1 12 13
M  V30 13 1 12 14
M  V30 14 2 14 15
M  V30 15 1 15 16
M  V30 16 2 7 17
M  V30 17 1 17 18
M  V30 18 1 18 19
M  V30 19 1 17 3
M  V30 20 1 15 9
M  V30 21 1 1 20
M  V30 22 1 1 21
M  V30 23 1 1 22
M  V30 24 1 4 23
M  V30 25 1 5 24
M  V30 26 1 6 25
M  V30 27 1 8 26
M  V30 28 1 8 27
M  V30 29 1 10 28
M  V30 30 1 13 29
M  V30 31 1 13 30
M  V30 32 1 16 31
M  V30 33 1 16 32
M  V30 34 1 19 33
M  V30 35 1 19 34
M  V30 36 1 19 35
M  V30 END BOND
M  V30 END CTAB
M  END
