
     RDKit          3D

  0  0  0  0  0  0  0  0  0  0999 V3000
M  V30 BEGIN CTAB
M  V30 COUNTS 18 18 0 0 0
M  V30 BEGIN ATOM
M  V30 1 C -1.88188 -1.22253 0.0150902 0
M  V30 2 C -0.93895 -0.077225 -0.0200024 0
M  V30 3 C 0.407908 -0.319913 0.0321574 0
M  V30 4 N 0.893472 -1.6377 0.117949 0
M  V30 5 C 1.35144 0.704484 0.00367866 0
M  V30 6 N 2.72913 0.403259 0.0599131 0
M  V30 7 N 0.923381 1.98759 -0.078546 0
M  V30 8 C -0.411997 2.24537 -0.131197 0
M  V30 9 C -1.34952 1.23274 -0.103185 0
M  V30 10 Br -3.21091 1.63421 -0.17889 0
M  V30 11 H -2.11241 -1.56325 -1.00841 0
M  V30 12 H -1.47162 -2.08694 0.571317 0
M  V30 13 H -2.79664 -0.869783 0.564754 0
M  V30 14 H 1.00128 -2.20281 0.963019 0
M  V30 15 H 1.18014 -2.09745 -0.796022 0
M  V30 16 H 3.14779 -0.380367 -0.461243 0
M  V30 17 H 3.34108 0.992459 0.647176 0
M  V30 18 H -0.801694 3.25787 -0.197557 0
M  V30 END ATOM
M  V30 BEGIN BOND
M  V30 1 1 1 2
M  V30 2 2 2 3
M  V30 3 1 3 4
M  V30 4 1 3 5
M  V30 5 1 5 6
M  V30 6 2 5 7
M  V30 7 1 7 8
M  V30 8 2 8 9
M  V30 9 1 9 10
M  V30 10 1 9 2
M  V30 11 1 1 11
M  V30 12 1 1 12
M  V30 13 1 1 13
M  V30 14 1 4 14
M  V30 15 1 4 15
M  V30 16 1 6 16
M  V30 17 1 6 17
M  V30 18 1 8 18
M  V30 END BOND
M  V30 END CTAB
M  END
