
     RDKit          3D

  0  0  0  0  0  0  0  0  0  0999 V3000
M  V30 BEGIN CTAB
M  V30 COUNTS 32 34 0 0 0
M  V30 BEGIN ATOM
M  V30 1 C 3.55725 0.401053 -1.5986 0
M  V30 2 N 2.9347 0.123206 -0.345226 0
M  V30 3 C 3.67147 -0.331673 0.810154 0
M  V30 4 O 4.79107 -0.914765 0.833003 0
M  V30 5 N 2.92445 -0.0165478 1.9798 0
M  V30 6 C 1.74209 0.626634 1.51854 0
M  V30 7 O 1.02044 1.3959 2.20654 0
M  V30 8 C 1.57347 0.195377 0.106722 0
M  V30 9 C 0.862053 -1.12536 0.113632 0
M  V30 10 C -0.570512 -0.727401 0.0534272 0
M  V30 11 C -0.649588 0.542971 -0.402114 0
M  V30 12 C 0.712807 1.1302 -0.685176 0
M  V30 13 C -1.8987 1.15778 -0.55569 0
M  V30 14 C -3.06781 0.488991 -0.248817 0
M  V30 15 N -4.36249 1.05717 -0.383001 0
M  V30 16 C -2.96107 -0.805664 0.214169 0
M  V30 17 N -4.15395 -1.5071 0.534268 0
M  V30 18 C -1.74585 -1.41961 0.369225 0
M  V30 19 H 4.57816 0.828527 -1.51731 0
M  V30 20 H 3.64507 -0.507753 -2.25959 0
M  V30 21 H 2.97747 1.13318 -2.22359 0
M  V30 22 H 3.1997 -0.222431 2.98623 0
M  V30 23 H 1.0715 -1.67763 1.05991 0
M  V30 24 H 1.08722 -1.73822 -0.773678 0
M  V30 25 H 0.723165 2.12804 -0.245281 0
M  V30 26 H 0.857156 1.0753 -1.76237 0
M  V30 27 H -1.95891 2.17666 -0.921368 0
M  V30 28 H -4.78534 1.72076 0.293076 0
M  V30 29 H -4.92931 0.783221 -1.22894 0
M  V30 30 H -4.49937 -1.49454 1.51649 0
M  V30 31 H -4.69798 -2.03514 -0.178263 0
M  V30 32 H -1.64835 -2.44114 0.733802 0
M  V30 END ATOM
M  V30 BEGIN BOND
M  V30 1 1 1 2
M  V30 2 1 2 3
M  V30 3 2 3 4
M  V30 4 1 3 5
M  V30 5 1 5 6
M  V30 6 2 6 7
M  V30 7 1 6 8
M  V30 8 1 8 9
M  V30 9 1 9 10
M  V30 10 2 10 11
M  V30 11 1 11 12
M  V30 12 1 11 13
M  V30 13 2 13 14
M  V30 14 1 14 15
M  V30 15 1 14 16
M  V30 16 1 16 17
M  V30 17 2 16 18
M  V30 18 1 8 2
M  V30 19 1 12 8
M  V30 20 1 18 10
M  V30 21 1 1 19
M  V30 22 1 1 20
M  V30 23 1 1 21
M  V30 24 1 5 22
M  V30 25 1 9 23
M  V30 26 1 9 24
M  V30 27 1 12 25
M  V30 28 1 12 26
M  V30 29 1 13 27
M  V30 30 1 15 28
M  V30 31 1 15 29
M  V30 32 1 17 30
M  V30 33 1 17 31
M  V30 34 1 18 32
M  V30 END BOND
M  V30 END CTAB
M  END
