
     RDKit          3D

  0  0  0  0  0  0  0  0  0  0999 V3000
M  V30 BEGIN CTAB
M  V30 COUNTS 39 40 0 0 0
M  V30 BEGIN ATOM
M  V30 1 N -4.96396 3.5318 0.741674 0
M  V30 2 C -4.11036 2.60537 0.0860733 0
M  V30 3 C -4.63843 1.44119 -0.466907 0
M  V30 4 C -3.7962 0.54299 -1.10504 0
M  V30 5 C -2.43838 0.752739 -1.21904 0
M  V30 6 C -1.92487 1.90495 -0.670159 0
M  V30 7 C -2.75313 2.80561 -0.0330801 0
M  V30 8 S -1.43279 -0.415275 -2.03336 0
M  V30 9 O -0.259792 0.313117 -2.62694 0
M  V30 10 O -2.23995 -1.05778 -3.12498 0
M  V30 11 C -0.825863 -1.63308 -0.888861 0
M  V30 12 C 0.0441722 -2.62764 -1.6411 0
M  V30 13 S 0.686769 -3.84592 -0.666565 0
M  V30 14 S 2.04877 -3.41584 0.756792 0
M  V30 15 O 1.3517 -3.74093 2.03022 0
M  V30 16 O 3.15715 -4.34853 0.405558 0
M  V30 17 C 2.75915 -1.8685 0.944673 0
M  V30 18 C 3.91368 -1.50792 0.258765 0
M  V30 19 C 4.46302 -0.269125 0.429197 0
M  V30 20 C 3.92313 0.683819 1.27189 0
M  V30 21 C 2.77173 0.323796 1.95568 0
M  V30 22 C 2.203 -0.922691 1.79614 0
M  V30 23 N 4.50997 1.96797 1.4357 0
M  V30 24 H -5.0605 4.4997 0.395811 0
M  V30 25 H -5.52441 3.26065 1.59962 0
M  V30 26 H -5.70221 1.2432 -0.39644 0
M  V30 27 H -4.24319 -0.356218 -1.52576 0
M  V30 28 H -0.84289 2.06313 -0.765924 0
M  V30 29 H -2.31448 3.71909 0.39649 0
M  V30 30 H -1.65501 -2.17802 -0.394948 0
M  V30 31 H -0.273667 -1.0933 -0.111771 0
M  V30 32 H 0.838783 -2.04863 -2.19932 0
M  V30 33 H -0.598435 -3.02917 -2.48063 0
M  V30 34 H 4.40373 -2.19031 -0.421505 0
M  V30 35 H 5.37707 0.0511645 -0.0973864 0
M  V30 36 H 2.34314 1.07646 2.62265 0
M  V30 37 H 1.29371 -1.14568 2.36481 0
M  V30 38 H 3.95945 2.83893 1.58747 0
M  V30 39 H 5.55039 2.06889 1.40582 0
M  V30 END ATOM
M  V30 BEGIN BOND
M  V30 1 1 1 2
M  V30 2 2 2 3
M  V30 3 1 3 4
M  V30 4 2 4 5
M  V30 5 1 5 6
M  V30 6 2 6 7
M  V30 7 1 5 8
M  V30 8 2 8 9
M  V30 9 2 8 10
M  V30 10 1 8 11
M  V30 11 1 11 12
M  V30 12 1 12 13
M  V30 13 1 13 14
M  V30 14 2 14 15
M  V30 15 2 14 16
M  V30 16 1 14 17
M  V30 17 2 17 18
M  V30 18 1 18 19
M  V30 19 2 19 20
M  V30 20 1 20 21
M  V30 21 2 21 22
M  V30 22 1 20 23
M  V30 23 1 7 2
M  V30 24 1 22 17
M  V30 25 1 1 24
M  V30 26 1 1 25
M  V30 27 1 3 26
M  V30 28 1 4 27
M  V30 29 1 6 28
M  V30 30 1 7 29
M  V30 31 1 11 30
M  V30 32 1 11 31
M  V30 33 1 12 32
M  V30 34 1 12 33
M  V30 35 1 18 34
M  V30 36 1 19 35
M  V30 37 1 21 36
M  V30 38 1 22 37
M  V30 39 1 23 38
M  V30 40 1 23 39
M  V30 END BOND
M  V30 END CTAB
M  END
