
     RDKit          3D

  0  0  0  0  0  0  0  0  0  0999 V3000
M  V30 BEGIN CTAB
M  V30 COUNTS 42 44 0 0 0
M  V30 BEGIN ATOM
M  V30 1 N -2.51815 2.82192 1.64226 0
M  V30 2 C -3.02662 1.93548 1.09038 0
M  V30 3 C -3.64256 0.836417 0.394658 0
M  V30 4 C -2.94566 -0.132019 -0.293047 0
M  V30 5 C -1.49456 -0.0442972 -0.325024 0
M  V30 6 C -0.92194 0.982321 -1.02796 0
M  V30 7 C 0.447915 1.0777 -1.07479 0
M  V30 8 C 1.24274 0.134478 -0.408941 0
M  V30 9 C 0.646053 -0.895675 0.294928 0
M  V30 10 C -0.731735 -0.972512 0.328018 0
M  V30 11 O 2.6178 0.301014 -0.501396 0
M  V30 12 C 3.44504 -0.635215 0.159917 0
M  V30 13 C 4.88455 -0.286572 -0.0362961 0
M  V30 14 C 5.47702 0.668058 0.757955 0
M  V30 15 C 6.79628 1.00731 0.592759 0
M  V30 16 C 7.55826 0.388801 -0.383872 0
M  V30 17 C 6.96674 -0.557605 -1.16943 0
M  V30 18 C 5.62857 -0.906503 -1.00779 0
M  V30 19 C -3.55524 -1.17859 -0.953521 0
M  V30 20 C -2.77162 -2.18317 -1.66297 0
M  V30 21 N -2.1323 -2.96933 -2.20662 0
M  V30 22 C -4.92995 -1.22119 -0.901344 0
M  V30 23 O -5.48418 -2.17473 -1.50263 0
M  V30 24 N -5.63637 -0.269956 -0.226639 0
M  V30 25 C -5.01567 0.7579 0.423068 0
M  V30 26 N -5.84866 1.68768 1.0975 0
M  V30 27 N -7.03078 -0.345585 -0.208712 0
M  V30 28 H -1.5471 1.74407 -1.55645 0
M  V30 29 H 0.917139 1.87605 -1.62879 0
M  V30 30 H 1.28278 -1.61811 0.800664 0
M  V30 31 H -1.18346 -1.81734 0.893642 0
M  V30 32 H 3.22094 -0.636035 1.24738 0
M  V30 33 H 3.21715 -1.65396 -0.276363 0
M  V30 34 H 4.91739 1.18065 1.53394 0
M  V30 35 H 7.26079 1.76221 1.21981 0
M  V30 36 H 8.59716 0.670852 -0.494562 0
M  V30 37 H 7.5544 -1.0516 -1.93972 0
M  V30 38 H 5.19635 -1.67782 -1.66192 0
M  V30 39 H -5.67161 1.94727 2.07514 0
M  V30 40 H -6.68255 2.15717 0.651371 0
M  V30 41 H -7.56493 0.490218 -0.507627 0
M  V30 42 H -7.53941 -1.19976 0.0899456 0
M  V30 END ATOM
M  V30 BEGIN BOND
M  V30 1 3 1 2
M  V30 2 1 2 3
M  V30 3 1 3 4
M  V30 4 1 4 5
M  V30 5 2 5 6
M  V30 6 1 6 7
M  V30 7 2 7 8
M  V30 8 1 8 9
M  V30 9 2 9 10
M  V30 10 1 8 11
M  V30 11 1 11 12
M  V30 12 1 12 13
M  V30 13 2 13 14
M  V30 14 1 14 15
M  V30 15 2 15 16
M  V30 16 1 16 17
M  V30 17 2 17 18
M  V30 18 2 4 19
M  V30 19 1 19 20
M  V30 20 3 20 21
M  V30 21 1 19 22
M  V30 22 2 22 23
M  V30 23 1 22 24
M  V30 24 1 24 25
M  V30 25 1 25 26
M  V30 26 1 24 27
M  V30 27 2 25 3
M  V30 28 1 10 5
M  V30 29 1 18 13
M  V30 30 1 6 28
M  V30 31 1 7 29
M  V30 32 1 9 30
M  V30 33 1 10 31
M  V30 34 1 12 32
M  V30 35 1 12 33
M  V30 36 1 14 34
M  V30 37 1 15 35
M  V30 38 1 16 36
M  V30 39 1 17 37
M  V30 40 1 18 38
M  V30 41 1 26 39
M  V30 42 1 26 40
M  V30 43 1 27 41
M  V30 44 1 27 42
M  V30 END BOND
M  V30 END CTAB
M  END
