
     RDKit          3D

  0  0  0  0  0  0  0  0  0  0999 V3000
M  V30 BEGIN CTAB
M  V30 COUNTS 40 42 0 0 0
M  V30 BEGIN ATOM
M  V30 1 N -5.96363 1.88861 -0.999885 0
M  V30 2 C -4.78973 1.2172 -0.573344 0
M  V30 3 N -4.90147 0.291368 0.385931 0
M  V30 4 C -3.83897 -0.414326 0.871199 0
M  V30 5 N -4.04914 -1.37317 1.89677 0
M  V30 6 C -2.57755 -0.16645 0.351535 0
M  V30 7 C -1.42032 -0.903402 0.852706 0
M  V30 8 C -0.174595 -0.844831 0.0414046 0
M  V30 9 C 0.972065 -0.914539 1.02109 0
M  V30 10 C 2.31626 -0.865239 0.483997 0
M  V30 11 C 2.99204 -1.97194 0.0397126 0
M  V30 12 C 4.27773 -1.826 -0.420329 0
M  V30 13 C 4.91238 -0.591557 -0.449471 0
M  V30 14 C 4.25738 0.536881 -0.00975389 0
M  V30 15 C 2.97079 0.366373 0.446851 0
M  V30 16 C 4.8992 1.89699 -0.00734238 0
M  V30 17 F 5.9771 1.77004 0.873868 0
M  V30 18 F 5.37313 2.27551 -1.22514 0
M  V30 19 F 3.99972 2.77071 0.561454 0
M  V30 20 C -0.078656 0.159865 -1.02578 0
M  V30 21 C -1.18591 1.11886 -1.22435 0
M  V30 22 C -2.47985 0.777982 -0.623015 0
M  V30 23 N -3.57013 1.46375 -1.08311 0
M  V30 24 H -5.98579 2.93283 -0.948256 0
M  V30 25 H -6.7564 1.30561 -1.34675 0
M  V30 26 H -4.86289 -1.285 2.54483 0
M  V30 27 H -3.4128 -2.17794 2.03465 0
M  V30 28 H -1.72055 -1.98432 0.990209 0
M  V30 29 H -1.21184 -0.573825 1.91754 0
M  V30 30 H -0.126861 -1.86948 -0.485983 0
M  V30 31 H 0.886955 -1.89783 1.58422 0
M  V30 32 H 0.798811 -0.159918 1.83881 0
M  V30 33 H 2.54678 -2.94114 0.0393301 0
M  V30 34 H 4.86637 -2.65563 -0.784841 0
M  V30 35 H 5.93748 -0.471008 -0.814213 0
M  V30 36 H 2.43278 1.26299 0.803981 0
M  V30 37 H 0.860772 0.81031 -0.96003 0
M  V30 38 H 0.105728 -0.345491 -2.03867 0
M  V30 39 H -1.38282 1.20649 -2.34437 0
M  V30 40 H -0.893571 2.18066 -0.963975 0
M  V30 END ATOM
M  V30 BEGIN BOND
M  V30 1 1 1 2
M  V30 2 2 2 3
M  V30 3 1 3 4
M  V30 4 1 4 5
M  V30 5 2 4 6
M  V30 6 1 6 7
M  V30 7 1 7 8
M  V30 8 1 8 9
M  V30 9 1 9 10
M  V30 10 2 10 11
M  V30 11 1 11 12
M  V30 12 2 12 13
M  V30 13 1 13 14
M  V30 14 2 14 15
M  V30 15 1 14 16
M  V30 16 1 16 17
M  V30 17 1 16 18
M  V30 18 1 16 19
M  V30 19 1 8 20
M  V30 20 1 20 21
M  V30 21 1 21 22
M  V30 22 2 22 23
M  V30 23 1 23 2
M  V30 24 1 22 6
M  V30 25 1 15 10
M  V30 26 1 1 24
M  V30 27 1 1 25
M  V30 28 1 5 26
M  V30 29 1 5 27
M  V30 30 1 7 28
M  V30 31 1 7 29
M  V30 32 1 8 30
M  V30 33 1 9 31
M  V30 34 1 9 32
M  V30 35 1 11 33
M  V30 36 1 12 34
M  V30 37 1 13 35
M  V30 38 1 15 36
M  V30 39 1 20 37
M  V30 40 1 20 38
M  V30 41 1 21 39
M  V30 42 1 21 40
M  V30 END BOND
M  V30 END CTAB
M  END
