
     RDKit          3D

  0  0  0  0  0  0  0  0  0  0999 V3000
M  V30 BEGIN CTAB
M  V30 COUNTS 23 24 0 0 0
M  V30 BEGIN ATOM
M  V30 1 N -4.47722 1.2688 -0.175583 0
M  V30 2 C -3.3233 0.510754 0.159664 0
M  V30 3 N -2.68665 0.445357 1.34168 0
M  V30 4 O -1.66854 -0.374371 1.21105 0
M  V30 5 C -1.5769 -0.861659 0.0308287 0
M  V30 6 N -2.63068 -0.303049 -0.652989 0
M  V30 7 C -0.648157 -1.79966 -0.627512 0
M  V30 8 C 0.504515 -1.18557 -1.30152 0
M  V30 9 C 1.45041 -0.48035 -0.424853 0
M  V30 10 C 1.6169 -0.407637 0.930824 0
M  V30 11 N 2.56937 0.355389 1.39085 0
M  V30 12 C 3.34128 1.02947 0.565274 0
M  V30 13 S 2.71669 0.586095 -0.955191 0
M  V30 14 N 4.43469 1.91588 0.862998 0
M  V30 15 H -5.1978 1.44186 0.531109 0
M  V30 16 H -4.61348 1.65934 -1.13335 0
M  V30 17 H -1.24413 -2.36269 -1.40898 0
M  V30 18 H -0.372704 -2.59998 0.104125 0
M  V30 19 H 0.104449 -0.408545 -2.02132 0
M  V30 20 H 1.04864 -1.90237 -1.9822 0
M  V30 21 H 0.983925 -0.991616 1.64032 0
M  V30 22 H 5.17927 2.04236 0.15858 0
M  V30 23 H 4.48941 2.42218 1.7562 0
M  V30 END ATOM
M  V30 BEGIN BOND
M  V30 1 1 1 2
M  V30 2 2 2 3
M  V30 3 1 3 4
M  V30 4 1 4 5
M  V30 5 2 5 6
M  V30 6 1 5 7
M  V30 7 1 7 8
M  V30 8 1 8 9
M  V30 9 2 9 10
M  V30 10 1 10 11
M  V30 11 2 11 12
M  V30 12 1 12 13
M  V30 13 1 12 14
M  V30 14 1 6 2
M  V30 15 1 13 9
M  V30 16 1 1 15
M  V30 17 1 1 16
M  V30 18 1 7 17
M  V30 19 1 7 18
M  V30 20 1 8 19
M  V30 21 1 8 20
M  V30 22 1 10 21
M  V30 23 1 14 22
M  V30 24 1 14 23
M  V30 END BOND
M  V30 END CTAB
M  END
