
     RDKit          3D

  0  0  0  0  0  0  0  0  0  0999 V3000
M  V30 BEGIN CTAB
M  V30 COUNTS 51 53 0 0 0
M  V30 BEGIN ATOM
M  V30 1 C -2.28873 -2.15038 3.52571 0
M  V30 2 N -2.21771 -1.4214 2.28109 0
M  V30 3 C -3.28051 -1.47457 1.45814 0
M  V30 4 O -4.30952 -2.14932 1.77568 0
M  V30 5 N -3.31115 -0.831834 0.282533 0
M  V30 6 C -4.48086 -0.904433 -0.598046 0
M  V30 7 C -2.23718 -0.0971197 -0.103448 0
M  V30 8 N -2.36923 0.602028 -1.3225 0
M  V30 9 C -1.10563 0.00200525 0.691548 0
M  V30 10 C 0.108871 0.709211 0.300848 0
M  V30 11 C -0.00253066 1.98428 -0.390706 0
M  V30 12 C 0.402118 2.11809 -1.69262 0
M  V30 13 C 0.306562 3.30992 -2.38259 0
M  V30 14 C -0.21762 4.42965 -1.74982 0
M  V30 15 F -0.337224 5.62644 -2.3733 0
M  V30 16 C -0.63424 4.32845 -0.438946 0
M  V30 17 C -0.517499 3.12205 0.200272 0
M  V30 18 C 1.33103 -0.0653369 0.0417009 0
M  V30 19 C 1.44879 -1.11704 -0.818464 0
M  V30 20 N 0.313461 -1.59706 -1.49039 0
M  V30 21 N 2.62548 -1.75852 -1.04799 0
M  V30 22 C 2.61544 -2.85534 -1.98244 0
M  V30 23 C 3.71346 -1.3465 -0.406762 0
M  V30 24 O 4.81108 -1.94017 -0.616889 0
M  V30 25 N 3.69062 -0.320716 0.458194 0
M  V30 26 C 4.91208 0.102187 1.14544 0
M  V30 27 C 2.53293 0.309923 0.68297 0
M  V30 28 O 2.55745 1.26697 1.50167 0
M  V30 29 C -1.15982 -0.69642 1.89629 0
M  V30 30 O -0.175018 -0.66034 2.68285 0
M  V30 31 H -3.00806 -1.70547 4.23584 0
M  V30 32 H -2.59957 -3.1959 3.36867 0
M  V30 33 H -1.302 -2.14523 4.01246 0
M  V30 34 H -4.85205 -1.94943 -0.595296 0
M  V30 35 H -5.22822 -0.176673 -0.256327 0
M  V30 36 H -4.14377 -0.620376 -1.61397 0
M  V30 37 H -2.0572 0.19953 -2.22236 0
M  V30 38 H -2.79273 1.54611 -1.30535 0
M  V30 39 H 0.410445 1.1212 1.42027 0
M  V30 40 H 0.815586 1.27897 -2.21898 0
M  V30 41 H 0.63913 3.3748 -3.41665 0
M  V30 42 H -1.05489 5.19294 0.0965687 0
M  V30 43 H -0.861426 3.09058 1.24012 0
M  V30 44 H -0.0279604 -1.22023 -2.40231 0
M  V30 45 H -0.252573 -2.38573 -1.07707 0
M  V30 46 H 2.36516 -3.77337 -1.39792 0
M  V30 47 H 1.86591 -2.69616 -2.78228 0
M  V30 48 H 3.63347 -2.98956 -2.36808 0
M  V30 49 H 5.44321 -0.844541 1.41883 0
M  V30 50 H 4.68771 0.7427 1.99952 0
M  V30 51 H 5.59492 0.631125 0.448378 0
M  V30 END ATOM
M  V30 BEGIN BOND
M  V30 1 1 1 2
M  V30 2 1 2 3
M  V30 3 2 3 4
M  V30 4 1 3 5
M  V30 5 1 5 6
M  V30 6 1 5 7
M  V30 7 1 7 8
M  V30 8 2 7 9
M  V30 9 1 9 10
M  V30 10 1 10 11
M  V30 11 2 11 12
M  V30 12 1 12 13
M  V30 13 2 13 14
M  V30 14 1 14 15
M  V30 15 1 14 16
M  V30 16 2 16 17
M  V30 17 1 10 18
M  V30 18 2 18 19
M  V30 19 1 19 20
M  V30 20 1 19 21
M  V30 21 1 21 22
M  V30 22 1 21 23
M  V30 23 2 23 24
M  V30 24 1 23 25
M  V30 25 1 25 26
M  V30 26 1 25 27
M  V30 27 2 27 28
M  V30 28 1 9 29
M  V30 29 2 29 30
M  V30 30 1 29 2
M  V30 31 1 17 11
M  V30 32 1 27 18
M  V30 33 1 1 31
M  V30 34 1 1 32
M  V30 35 1 1 33
M  V30 36 1 6 34
M  V30 37 1 6 35
M  V30 38 1 6 36
M  V30 39 1 8 37
M  V30 40 1 8 38
M  V30 41 1 10 39
M  V30 42 1 12 40
M  V30 43 1 13 41
M  V30 44 1 16 42
M  V30 45 1 17 43
M  V30 46 1 20 44
M  V30 47 1 20 45
M  V30 48 1 22 46
M  V30 49 1 22 47
M  V30 50 1 22 48
M  V30 51 1 26 49
M  V30 52 1 26 50
M  V30 53 1 26 51
M  V30 END BOND
M  V30 END CTAB
M  END
