
     RDKit          3D

  0  0  0  0  0  0  0  0  0  0999 V3000
M  V30 BEGIN CTAB
M  V30 COUNTS 46 48 0 0 0
M  V30 BEGIN ATOM
M  V30 1 O 7.52243 0.650004 0.527173 0
M  V30 2 C 6.9097 -0.367603 -0.061876 0
M  V30 3 O 7.44502 -1.49851 -0.11936 0
M  V30 4 C 5.56614 -0.191672 -0.672021 0 CFG=2
M  V30 5 C 4.61161 0.368862 0.365286 0
M  V30 6 C 3.22342 0.580873 -0.176596 0
M  V30 7 S 2.5618 -0.9946 -0.728217 0
M  V30 8 C 0.868634 -0.735641 -1.38706 0
M  V30 9 C 0.0206618 -0.318809 -0.235656 0 CFG=1
M  V30 10 O -1.311 -0.078476 -0.56456 0
M  V30 11 C -1.82311 0.213981 0.716599 0 CFG=2
M  V30 12 C -1.45061 -1.02005 1.47183 0
M  V30 13 C -0.103746 -1.37611 0.831321 0 CFG=1
M  V30 14 O -0.0978562 -2.65056 0.314992 0
M  V30 15 O -1.19916 -0.690569 2.80039 0
M  V30 16 N -3.24081 0.38755 0.66222 0
M  V30 17 C -4.13263 0.191165 1.6557 0
M  V30 18 N -5.38263 0.456358 1.23486 0
M  V30 19 C -5.31883 0.830641 -0.0448772 0
M  V30 20 C -3.97306 0.784121 -0.393775 0
M  V30 21 N -3.63468 1.12327 -1.65851 0
M  V30 22 C -4.58894 1.49066 -2.53253 0
M  V30 23 N -5.88885 1.53183 -2.18265 0
M  V30 24 C -6.29669 1.20772 -0.942552 0
M  V30 25 N -7.66608 1.25868 -0.598349 0
M  V30 26 N 5.13614 -1.43319 -1.23834 0
M  V30 27 H 7.60356 1.55427 0.508089 0
M  V30 28 H 5.72539 0.571754 -1.48865 0
M  V30 29 H 4.52259 -0.39801 1.18303 0
M  V30 30 H 5.06682 1.29605 0.768301 0
M  V30 31 H 2.62001 1.01567 0.66105 0
M  V30 32 H 3.24044 1.34349 -1.00422 0
M  V30 33 H 0.516375 -1.63692 -1.90979 0
M  V30 34 H 0.930954 0.117933 -2.09353 0
M  V30 35 H 0.444584 0.631004 0.166752 0
M  V30 36 H -1.27649 1.09443 1.10917 0
M  V30 37 H -2.17657 -1.82698 1.35482 0
M  V30 38 H 0.733748 -1.23427 1.54263 0
M  V30 39 H -1.03994 -2.90791 0.146729 0
M  V30 40 H -1.12289 0.300646 2.92919 0
M  V30 41 H -3.81455 -0.139432 2.64576 0
M  V30 42 H -4.25983 1.75337 -3.53666 0
M  V30 43 H -8.16173 0.427396 -0.234776 0
M  V30 44 H -8.18851 2.14503 -0.710561 0
M  V30 45 H 5.4928 -1.62116 -2.18032 0
M  V30 46 H 5.38634 -2.2063 -0.594068 0
M  V30 END ATOM
M  V30 BEGIN BOND
M  V30 1 1 1 2
M  V30 2 2 2 3
M  V30 3 1 2 4
M  V30 4 1 4 5
M  V30 5 1 5 6
M  V30 6 1 6 7
M  V30 7 1 7 8
M  V30 8 1 8 9
M  V30 9 1 9 10
M  V30 10 1 10 11
M  V30 11 1 11 12
M  V30 12 1 12 13
M  V30 13 1 13 14
M  V30 14 1 12 15
M  V30 15 1 11 16
M  V30 16 1 16 17
M  V30 17 2 17 18
M  V30 18 1 18 19
M  V30 19 2 19 20
M  V30 20 1 20 21
M  V30 21 2 21 22
M  V30 22 1 22 23
M  V30 23 2 23 24
M  V30 24 1 24 25
M  V30 25 1 4 26
M  V30 26 1 13 9
M  V30 27 1 20 16
M  V30 28 1 24 19
M  V30 29 1 1 27
M  V30 30 1 4 28 CFG=3
M  V30 31 1 5 29
M  V30 32 1 5 30
M  V30 33 1 6 31
M  V30 34 1 6 32
M  V30 35 1 8 33
M  V30 36 1 8 34
M  V30 37 1 9 35 CFG=1
M  V30 38 1 11 36 CFG=1
M  V30 39 1 12 37
M  V30 40 1 13 38 CFG=1
M  V30 41 1 14 39
M  V30 42 1 15 40
M  V30 43 1 17 41
M  V30 44 1 22 42
M  V30 45 1 25 43
M  V30 46 1 25 44
M  V30 47 1 26 45
M  V30 48 1 26 46
M  V30 END BOND
M  V30 END CTAB
M  END
