
     RDKit          3D

  0  0  0  0  0  0  0  0  0  0999 V3000
M  V30 BEGIN CTAB
M  V30 COUNTS 67 66 0 0 0
M  V30 BEGIN ATOM
M  V30 1 C 0.563453 -2.1967 2.22124 0
M  V30 2 O 0.722324 -1.99839 0.861453 0
M  V30 3 C 0.200557 -0.74883 0.45483 0 CFG=2
M  V30 4 N -0.824343 -0.92379 -0.54263 0
M  V30 5 C -2.20893 -0.87727 -0.216633 0
M  V30 6 O -2.50835 -0.683894 0.972931 0
M  V30 7 C -3.23679 -1.05344 -1.2378 0
M  V30 8 C -4.64029 -1.13556 -0.745883 0
M  V30 9 C -5.17165 0.0484328 -0.0392656 0
M  V30 10 C -6.59931 -0.21001 0.400548 0
M  V30 11 C -7.51817 -0.478914 -0.755778 0
M  V30 12 C -8.93923 -0.735883 -0.266342 0
M  V30 13 N -9.48425 0.377599 0.466883 0
M  V30 14 C -9.79949 1.62184 -0.149925 0
M  V30 15 N -10.9191 1.74469 -1.03081 0
M  V30 16 N -9.10003 2.68853 0.058041 0
M  V30 17 C 1.36446 0.0627556 0.0260902 0
M  V30 18 O 1.73524 -0.0687253 -1.14423 0
M  V30 19 N 1.98763 0.923528 0.933145 0
M  V30 20 C 3.12667 1.73382 0.734873 0
M  V30 21 C 4.46706 1.16281 0.618334 0
M  V30 22 C 4.70627 0.17881 -0.446551 0
M  V30 23 C 6.20987 -0.197225 -0.334266 0
M  V30 24 N 6.9437 1.01689 -0.529647 0
M  V30 25 C 8.35466 0.84505 -0.349406 0
M  V30 26 C 9.03178 0.00354317 -1.37834 0
M  V30 27 C 10.5154 -0.0497401 -1.00074 0
M  V30 28 N 10.5751 -0.64425 0.336946 0
M  V30 29 H 1.09582 -1.39553 2.79372 0
M  V30 30 H 0.965179 -3.14791 2.57212 0
M  V30 31 H -0.49586 -2.09719 2.46849 0
M  V30 32 H -0.215955 -0.307007 1.36504 0
M  V30 33 H -0.573634 -1.09201 -1.53814 0
M  V30 34 H -3.23027 -0.21359 -1.99534 0
M  V30 35 H -3.00928 -1.95299 -1.88682 0
M  V30 36 H -4.68922 -2.0585 -0.0948926 0
M  V30 37 H -5.27486 -1.3279 -1.64834 0
M  V30 38 H -4.59884 0.310278 0.84761 0
M  V30 39 H -5.18657 0.905824 -0.755239 0
M  V30 40 H -6.96079 0.694141 0.940864 0
M  V30 41 H -6.59335 -1.06127 1.11478 0
M  V30 42 H -7.5725 0.421602 -1.39251 0
M  V30 43 H -7.23379 -1.39132 -1.30425 0
M  V30 44 H -9.54293 -0.979116 -1.16436 0
M  V30 45 H -8.9104 -1.62741 0.368652 0
M  V30 46 H -9.66272 0.279209 1.50631 0
M  V30 47 H -11.8291 1.32143 -0.714599 0
M  V30 48 H -10.8617 2.22155 -1.94059 0
M  V30 49 H -8.27583 2.67682 0.687991 0
M  V30 50 H 1.5486 0.982706 1.92262 0
M  V30 51 H 3.10154 2.55943 1.53859 0
M  V30 52 H 2.94513 2.39861 -0.200928 0
M  V30 53 H 4.76266 0.692762 1.61133 0
M  V30 54 H 5.17684 2.05793 0.466574 0
M  V30 55 H 4.50455 0.560488 -1.43633 0
M  V30 56 H 4.15725 -0.772441 -0.218869 0
M  V30 57 H 6.377 -0.944571 -1.11726 0
M  V30 58 H 6.38499 -0.62867 0.654276 0
M  V30 59 H 6.79387 1.40733 -1.48786 0
M  V30 60 H 8.80753 1.88043 -0.398237 0
M  V30 61 H 8.56265 0.442109 0.685598 0
M  V30 62 H 8.69338 -1.03933 -1.39835 0
M  V30 63 H 8.97504 0.491322 -2.36675 0
M  V30 64 H 11.0718 -0.611331 -1.74705 0
M  V30 65 H 10.9039 0.989967 -0.965686 0
M  V30 66 H 10.6107 0.16266 1.01813 0
M  V30 67 H 9.72498 -1.21419 0.504253 0
M  V30 END ATOM
M  V30 BEGIN BOND
M  V30 1 1 1 2
M  V30 2 1 2 3
M  V30 3 1 3 4
M  V30 4 1 4 5
M  V30 5 2 5 6
M  V30 6 1 5 7
M  V30 7 1 7 8
M  V30 8 1 8 9
M  V30 9 1 9 10
M  V30 10 1 10 11
M  V30 11 1 11 12
M  V30 12 1 12 13
M  V30 13 1 13 14
M  V30 14 1 14 15
M  V30 15 2 14 16 CFG=2
M  V30 16 1 3 17
M  V30 17 2 17 18
M  V30 18 1 17 19
M  V30 19 1 19 20
M  V30 20 1 20 21
M  V30 21 1 21 22
M  V30 22 1 22 23
M  V30 23 1 23 24
M  V30 24 1 24 25
M  V30 25 1 25 26
M  V30 26 1 26 27
M  V30 27 1 27 28
M  V30 28 1 1 29
M  V30 29 1 1 30
M  V30 30 1 1 31
M  V30 31 1 3 32 CFG=1
M  V30 32 1 4 33
M  V30 33 1 7 34
M  V30 34 1 7 35
M  V30 35 1 8 36
M  V30 36 1 8 37
M  V30 37 1 9 38
M  V30 38 1 9 39
M  V30 39 1 10 40
M  V30 40 1 10 41
M  V30 41 1 11 42
M  V30 42 1 11 43
M  V30 43 1 12 44
M  V30 44 1 12 45
M  V30 45 1 13 46
M  V30 46 1 15 47
M  V30 47 1 15 48
M  V30 48 1 16 49
M  V30 49 1 19 50
M  V30 50 1 20 51
M  V30 51 1 20 52
M  V30 52 1 21 53
M  V30 53 1 21 54
M  V30 54 1 22 55
M  V30 55 1 22 56
M  V30 56 1 23 57
M  V30 57 1 23 58
M  V30 58 1 24 59
M  V30 59 1 25 60
M  V30 60 1 25 61
M  V30 61 1 26 62
M  V30 62 1 26 63
M  V30 63 1 27 64
M  V30 64 1 27 65
M  V30 65 1 28 66
M  V30 66 1 28 67
M  V30 END BOND
M  V30 END CTAB
M  END
