
     RDKit          3D

  0  0  0  0  0  0  0  0  0  0999 V3000
M  V30 BEGIN CTAB
M  V30 COUNTS 24 25 0 0 0
M  V30 BEGIN ATOM
M  V30 1 N -1.36268 -0.975543 2.06429 0
M  V30 2 C -1.68825 -0.426385 0.814636 0
M  V30 3 C -3.0439 -0.416156 0.502166 0
M  V30 4 C -3.44087 0.0786581 -0.715506 0
M  V30 5 C -2.47959 0.557765 -1.6077 0
M  V30 6 C -1.14977 0.537187 -1.27586 0
M  V30 7 C -0.725848 0.0357043 -0.035696 0
M  V30 8 C 0.700335 0.0290501 0.2217 0
M  V30 9 C 1.33088 -0.145638 1.41081 0
M  V30 10 C 2.73125 -0.0907623 1.46061 0
M  V30 11 N 3.42833 0.133164 0.340314 0
M  V30 12 C 2.81956 0.309401 -0.846415 0
M  V30 13 N 3.58788 0.547611 -2.03402 0
M  V30 14 N 1.49809 0.248998 -0.845493 0
M  V30 15 H -1.53828 -0.361492 2.91187 0
M  V30 16 H -0.966431 -1.93953 2.17174 0
M  V30 17 H -3.75822 -0.790377 1.20696 0
M  V30 18 H -4.4921 0.0933116 -0.97312 0
M  V30 19 H -2.76775 0.951271 -2.57064 0
M  V30 20 H -0.442925 0.919069 -1.99708 0
M  V30 21 H 0.785434 -0.306545 2.3166 0
M  V30 22 H 3.22179 -0.235536 2.43319 0
M  V30 23 H 4.05641 -0.256014 -2.51274 0
M  V30 24 H 3.69667 1.50279 -2.4406 0
M  V30 END ATOM
M  V30 BEGIN BOND
M  V30 1 1 1 2
M  V30 2 2 2 3
M  V30 3 1 3 4
M  V30 4 2 4 5
M  V30 5 1 5 6
M  V30 6 2 6 7
M  V30 7 1 7 8
M  V30 8 2 8 9
M  V30 9 1 9 10
M  V30 10 2 10 11
M  V30 11 1 11 12
M  V30 12 1 12 13
M  V30 13 2 12 14
M  V30 14 1 7 2
M  V30 15 1 14 8
M  V30 16 1 1 15
M  V30 17 1 1 16
M  V30 18 1 3 17
M  V30 19 1 4 18
M  V30 20 1 5 19
M  V30 21 1 6 20
M  V30 22 1 9 21
M  V30 23 1 10 22
M  V30 24 1 13 23
M  V30 25 1 13 24
M  V30 END BOND
M  V30 END CTAB
M  END
