
     RDKit          3D

  0  0  0  0  0  0  0  0  0  0999 V3000
M  V30 BEGIN CTAB
M  V30 COUNTS 52 52 0 0 0
M  V30 BEGIN ATOM
M  V30 1 C -6.64541 -2.71629 0.365675 0
M  V30 2 C -5.13144 -2.87341 0.559621 0
M  V30 3 C -4.52677 -1.52401 0.28644 0
M  V30 4 C -3.03683 -1.50965 0.435781 0
M  V30 5 C -2.48536 -0.123549 0.149475 0
M  V30 6 C -0.960486 -0.124239 0.307911 0
M  V30 7 C -0.439848 1.21679 0.0409358 0
M  V30 8 C -1.31529 2.22678 -0.356948 0
M  V30 9 C -0.918026 3.52231 -0.60479 0
M  V30 10 N -1.83734 4.53662 -1.01074 0
M  V30 11 C 0.413363 3.83878 -0.45209 0
M  V30 12 N 0.840957 5.19033 -0.707354 0
M  V30 13 C 1.29648 2.86551 -0.0621434 0
M  V30 14 C 0.901312 1.54529 0.1915 0
M  V30 15 C 1.90271 0.542677 0.581867 0
M  V30 16 C 2.34822 -0.265402 -0.583624 0
M  V30 17 C 3.37544 -1.31337 -0.159822 0
M  V30 18 C 4.58571 -0.679833 0.438506 0
M  V30 19 C 5.62447 -1.70306 0.857537 0
M  V30 20 C 6.1005 -2.53133 -0.303497 0
M  V30 21 H -6.92593 -1.72348 0.780713 0
M  V30 22 H -7.20614 -3.54842 0.805213 0
M  V30 23 H -6.78841 -2.62934 -0.749575 0
M  V30 24 H -4.89064 -3.27053 1.55826 0
M  V30 25 H -4.76184 -3.61992 -0.193268 0
M  V30 26 H -4.8852 -1.16774 -0.677066 0
M  V30 27 H -4.95113 -0.828188 1.0669 0
M  V30 28 H -2.72543 -1.80962 1.44735 0
M  V30 29 H -2.58796 -2.24444 -0.274005 0
M  V30 30 H -2.80146 0.115522 -0.874081 0
M  V30 31 H -2.93935 0.602804 0.835817 0
M  V30 32 H -0.791347 -0.459715 1.3555 0
M  V30 33 H -0.558507 -0.920629 -0.33228 0
M  V30 34 H -2.38612 2.05098 -0.496856 0
M  V30 35 H -2.34359 5.02083 -0.220562 0
M  V30 36 H -2.02339 4.80777 -1.9849 0
M  V30 37 H 0.180563 5.97162 -0.614835 0
M  V30 38 H 1.83245 5.34009 -0.985447 0
M  V30 39 H 2.35933 3.10676 0.0622279 0
M  V30 40 H 1.57581 -0.0738388 1.45134 0
M  V30 41 H 2.78801 1.11157 0.967923 0
M  V30 42 H 2.87184 0.466837 -1.28584 0
M  V30 43 H 1.5687 -0.717584 -1.19492 0
M  V30 44 H 2.88314 -1.99153 0.583242 0
M  V30 45 H 3.60714 -1.92476 -1.0407 0
M  V30 46 H 4.99999 0.0514977 -0.275434 0
M  V30 47 H 4.3076 -0.134651 1.38171 0
M  V30 48 H 5.24829 -2.34274 1.65566 0
M  V30 49 H 6.48742 -1.1169 1.23474 0
M  V30 50 H 5.67633 -3.56586 -0.276386 0
M  V30 51 H 5.88679 -2.04547 -1.29627 0
M  V30 52 H 7.20069 -2.63187 -0.231967 0
M  V30 END ATOM
M  V30 BEGIN BOND
M  V30 1 1 1 2
M  V30 2 1 2 3
M  V30 3 1 3 4
M  V30 4 1 4 5
M  V30 5 1 5 6
M  V30 6 1 6 7
M  V30 7 2 7 8
M  V30 8 1 8 9
M  V30 9 1 9 10
M  V30 10 2 9 11
M  V30 11 1 11 12
M  V30 12 1 11 13
M  V30 13 2 13 14
M  V30 14 1 14 15
M  V30 15 1 15 16
M  V30 16 1 16 17
M  V30 17 1 17 18
M  V30 18 1 18 19
M  V30 19 1 19 20
M  V30 20 1 14 7
M  V30 21 1 1 21
M  V30 22 1 1 22
M  V30 23 1 1 23
M  V30 24 1 2 24
M  V30 25 1 2 25
M  V30 26 1 3 26
M  V30 27 1 3 27
M  V30 28 1 4 28
M  V30 29 1 4 29
M  V30 30 1 5 30
M  V30 31 1 5 31
M  V30 32 1 6 32
M  V30 33 1 6 33
M  V30 34 1 8 34
M  V30 35 1 10 35
M  V30 36 1 10 36
M  V30 37 1 12 37
M  V30 38 1 12 38
M  V30 39 1 13 39
M  V30 40 1 15 40
M  V30 41 1 15 41
M  V30 42 1 16 42
M  V30 43 1 16 43
M  V30 44 1 17 44
M  V30 45 1 17 45
M  V30 46 1 18 46
M  V30 47 1 18 47
M  V30 48 1 19 48
M  V30 49 1 19 49
M  V30 50 1 20 50
M  V30 51 1 20 51
M  V30 52 1 20 52
M  V30 END BOND
M  V30 END CTAB
M  END
