
     RDKit          3D

  0  0  0  0  0  0  0  0  0  0999 V3000
M  V30 BEGIN CTAB
M  V30 COUNTS 42 44 0 0 0
M  V30 BEGIN ATOM
M  V30 1 N 5.63982 -2.59249 -0.441174 0
M  V30 2 C 5.12129 -1.3299 -0.068284 0
M  V30 3 N 3.97953 -1.22317 0.632976 0
M  V30 4 C 3.50714 -0.0153279 0.97523 0
M  V30 5 C 2.24014 0.0815839 1.7525 0
M  V30 6 O 1.14738 0.159954 0.825251 0
M  V30 7 C -0.127969 0.256388 1.25232 0
M  V30 8 O -0.302695 0.274455 2.52702 0
M  V30 9 C -1.32338 0.328582 0.456737 0
M  V30 10 C -2.41261 -0.504519 0.814498 0
M  V30 11 C -3.54777 -0.576434 0.0653842 0
M  V30 12 N -3.60127 0.178522 -1.0366 0
M  V30 13 C -2.57968 0.992492 -1.41293 0
M  V30 14 C -1.40756 1.08999 -0.671995 0
M  V30 15 C -0.582099 1.99787 -1.30163 0
M  V30 16 C 0.756464 2.50704 -0.902657 0
M  V30 17 N -1.29515 2.3999 -2.39919 0
M  V30 18 O -2.42984 1.80507 -2.43025 0
M  V30 19 C -4.68748 -1.46982 0.468362 0
M  V30 20 C -5.9315 -0.649081 0.752696 0
M  V30 21 C -4.94768 -2.53272 -0.578411 0
M  V30 22 N 4.18368 1.10366 0.612664 0
M  V30 23 C 5.32574 1.02882 -0.0873439 0
M  V30 24 N 5.77355 -0.184758 -0.414866 0
M  V30 25 N 6.01644 2.19518 -0.456396 0
M  V30 26 H 6.63638 -2.7067 -0.708917 0
M  V30 27 H 5.03376 -3.43569 -0.455536 0
M  V30 28 H 2.26216 0.973598 2.40782 0
M  V30 29 H 2.11478 -0.864027 2.30718 0
M  V30 30 H -2.30877 -1.09817 1.72871 0
M  V30 31 H 1.59686 1.92849 -1.26954 0
M  V30 32 H 0.810628 3.54418 -1.39201 0
M  V30 33 H 0.790381 2.79204 0.180982 0
M  V30 34 H -4.44043 -2.00614 1.4074 0
M  V30 35 H -5.62064 0.163392 1.44821 0
M  V30 36 H -6.34721 -0.189444 -0.168662 0
M  V30 37 H -6.66767 -1.25556 1.2751 0
M  V30 38 H -3.94195 -2.94227 -0.857226 0
M  V30 39 H -5.49984 -3.37147 -0.106176 0
M  V30 40 H -5.49467 -2.13571 -1.45129 0
M  V30 41 H 6.11622 2.48038 -1.45316 0
M  V30 42 H 6.44553 2.80181 0.267718 0
M  V30 END ATOM
M  V30 BEGIN BOND
M  V30 1 1 1 2
M  V30 2 2 2 3
M  V30 3 1 3 4
M  V30 4 1 4 5
M  V30 5 1 5 6
M  V30 6 1 6 7
M  V30 7 2 7 8
M  V30 8 1 7 9
M  V30 9 2 9 10
M  V30 10 1 10 11
M  V30 11 2 11 12
M  V30 12 1 12 13
M  V30 13 2 13 14
M  V30 14 1 14 15
M  V30 15 1 15 16
M  V30 16 2 15 17
M  V30 17 1 17 18
M  V30 18 1 11 19
M  V30 19 1 19 20
M  V30 20 1 19 21
M  V30 21 2 4 22
M  V30 22 1 22 23
M  V30 23 2 23 24
M  V30 24 1 23 25
M  V30 25 1 24 2
M  V30 26 1 14 9
M  V30 27 1 18 13
M  V30 28 1 1 26
M  V30 29 1 1 27
M  V30 30 1 5 28
M  V30 31 1 5 29
M  V30 32 1 10 30
M  V30 33 1 16 31
M  V30 34 1 16 32
M  V30 35 1 16 33
M  V30 36 1 19 34
M  V30 37 1 20 35
M  V30 38 1 20 36
M  V30 39 1 20 37
M  V30 40 1 21 38
M  V30 41 1 21 39
M  V30 42 1 21 40
M  V30 43 1 25 41
M  V30 44 1 25 42
M  V30 END BOND
M  V30 END CTAB
M  END
