
     RDKit          3D

  0  0  0  0  0  0  0  0  0  0999 V3000
M  V30 BEGIN CTAB
M  V30 COUNTS 35 36 0 0 0
M  V30 BEGIN ATOM
M  V30 1 N -3.18848 -0.64501 -1.32922 0
M  V30 2 C -1.73258 -0.791145 -1.25097 0
M  V30 3 C -1.29497 -0.127396 0.0209551 0
M  V30 4 N -1.9341 -0.771318 1.13773 0
M  V30 5 C -1.76758 1.30732 -0.0138357 0
M  V30 6 C -0.738754 2.06654 0.777365 0
M  V30 7 C 0.302428 1.07759 1.2282 0
M  V30 8 C 0.179264 -0.060697 0.207217 0
M  V30 9 C 0.900161 0.354097 -1.04879 0
M  V30 10 C 2.34455 0.67901 -0.765749 0
M  V30 11 C 3.00091 -0.293288 0.156333 0
M  V30 12 C 2.1832 -1.56212 0.183388 0
M  V30 13 C 0.806228 -1.31765 0.716141 0
M  V30 14 H -3.56725 -0.734257 -0.362624 0
M  V30 15 H -3.62648 -1.32092 -1.96246 0
M  V30 16 H -1.5452 -1.87907 -1.16736 0
M  V30 17 H -1.32026 -0.353062 -2.15827 0
M  V30 18 H -2.75953 -0.204688 1.49222 0
M  V30 19 H -1.30901 -0.874563 1.97274 0
M  V30 20 H -2.73137 1.40161 0.49924 0
M  V30 21 H -1.81721 1.62543 -1.07593 0
M  V30 22 H -0.255069 2.78609 0.068734 0
M  V30 23 H -1.15174 2.60541 1.63701 0
M  V30 24 H 1.27401 1.56578 1.19119 0
M  V30 25 H 0.104593 0.669573 2.23463 0
M  V30 26 H 0.821734 -0.484667 -1.77155 0
M  V30 27 H 0.455011 1.24363 -1.53351 0
M  V30 28 H 2.87423 0.616757 -1.76128 0
M  V30 29 H 2.46283 1.74398 -0.457415 0
M  V30 30 H 4.02726 -0.561634 -0.221987 0
M  V30 31 H 3.13745 0.0522549 1.18196 0
M  V30 32 H 2.72375 -2.27717 0.83612 0
M  V30 33 H 2.17126 -1.96684 -0.860714 0
M  V30 34 H 0.804983 -1.39141 1.83308 0
M  V30 35 H 0.165722 -2.17819 0.367424 0
M  V30 END ATOM
M  V30 BEGIN BOND
M  V30 1 1 1 2
M  V30 2 1 2 3
M  V30 3 1 3 4
M  V30 4 1 3 5
M  V30 5 1 5 6
M  V30 6 1 6 7
M  V30 7 1 7 8
M  V30 8 1 8 9
M  V30 9 1 9 10
M  V30 10 1 10 11
M  V30 11 1 11 12
M  V30 12 1 12 13
M  V30 13 1 8 3
M  V30 14 1 13 8
M  V30 15 1 1 14
M  V30 16 1 1 15
M  V30 17 1 2 16
M  V30 18 1 2 17
M  V30 19 1 4 18
M  V30 20 1 4 19
M  V30 21 1 5 20
M  V30 22 1 5 21
M  V30 23 1 6 22
M  V30 24 1 6 23
M  V30 25 1 7 24
M  V30 26 1 7 25
M  V30 27 1 9 26
M  V30 28 1 9 27
M  V30 29 1 10 28
M  V30 30 1 10 29
M  V30 31 1 11 30
M  V30 32 1 11 31
M  V30 33 1 12 32
M  V30 34 1 12 33
M  V30 35 1 13 34
M  V30 36 1 13 35
M  V30 END BOND
M  V30 END CTAB
M  END
