
     RDKit          3D

  0  0  0  0  0  0  0  0  0  0999 V3000
M  V30 BEGIN CTAB
M  V30 COUNTS 40 43 0 0 0
M  V30 BEGIN ATOM
M  V30 1 N 8.07406 -0.0949948 -0.873092 0
M  V30 2 C 6.77381 -0.252331 -0.317611 0
M  V30 3 C 6.16945 0.800638 0.371211 0
M  V30 4 C 4.91032 0.654199 0.911403 0
M  V30 5 C 4.23719 -0.542998 0.772313 0
M  V30 6 C 4.85871 -1.57355 0.0839364 0
M  V30 7 C 6.10868 -1.45659 -0.463193 0
M  V30 8 O 2.99026 -0.654507 1.32009 0
M  V30 9 C 1.80734 -0.359202 0.69873 0
M  V30 10 C 1.78123 0.0964138 -0.592662 0
M  V30 11 C 0.582023 0.383208 -1.1868 0
M  V30 12 C -0.595617 0.219474 -0.503188 0
M  V30 13 C -0.617117 -0.238873 0.80478 0
M  V30 14 C 0.621982 -0.51778 1.3691 0
M  V30 15 N -1.89065 -0.293658 1.19616 0
M  V30 16 C -2.70132 0.103703 0.215582 0
M  V30 17 N -1.90718 0.416912 -0.822354 0
M  V30 18 C -4.16763 0.190363 0.240136 0
M  V30 19 C -4.87586 0.622929 -0.859708 0
M  V30 20 C -6.26474 0.708632 -0.846708 0
M  V30 21 C -6.97735 0.357887 0.283094 0
M  V30 22 C -6.26048 -0.0750242 1.38232 0
M  V30 23 C -4.86879 -0.159935 1.36655 0
M  V30 24 N -8.39845 0.428288 0.345574 0
M  V30 25 H 8.87094 -0.637079 -0.472437 0
M  V30 26 H 8.1978 0.576242 -1.68764 0
M  V30 27 H 6.74893 1.70638 0.443191 0
M  V30 28 H 4.46251 1.49924 1.44659 0
M  V30 29 H 4.28846 -2.49272 0.00245841 0
M  V30 30 H 6.56143 -2.28601 -0.994746 0
M  V30 31 H 2.72957 0.233359 -1.15765 0
M  V30 32 H 0.571749 0.741104 -2.20311 0
M  V30 33 H 0.587001 -0.881364 2.40996 0
M  V30 34 H -2.22661 0.764896 -1.75329 0
M  V30 35 H -4.34515 0.904432 -1.75884 0
M  V30 36 H -6.82606 1.0487 -1.71054 0
M  V30 37 H -6.80687 -0.348593 2.26179 0
M  V30 38 H -4.30482 -0.499354 2.22806 0
M  V30 39 H -8.91673 1.33863 0.381808 0
M  V30 40 H -8.982 -0.431069 0.357725 0
M  V30 END ATOM
M  V30 BEGIN BOND
M  V30 1 1 1 2
M  V30 2 2 2 3
M  V30 3 1 3 4
M  V30 4 2 4 5
M  V30 5 1 5 6
M  V30 6 2 6 7
M  V30 7 1 5 8
M  V30 8 1 8 9
M  V30 9 2 9 10
M  V30 10 1 10 11
M  V30 11 2 11 12
M  V30 12 1 12 13
M  V30 13 2 13 14
M  V30 14 1 13 15
M  V30 15 2 15 16
M  V30 16 1 16 17
M  V30 17 1 16 18
M  V30 18 2 18 19
M  V30 19 1 19 20
M  V30 20 2 20 21
M  V30 21 1 21 22
M  V30 22 2 22 23
M  V30 23 1 21 24
M  V30 24 1 7 2
M  V30 25 1 14 9
M  V30 26 1 23 18
M  V30 27 1 17 12
M  V30 28 1 1 25
M  V30 29 1 1 26
M  V30 30 1 3 27
M  V30 31 1 4 28
M  V30 32 1 6 29
M  V30 33 1 7 30
M  V30 34 1 10 31
M  V30 35 1 11 32
M  V30 36 1 14 33
M  V30 37 1 17 34
M  V30 38 1 19 35
M  V30 39 1 20 36
M  V30 40 1 22 37
M  V30 41 1 23 38
M  V30 42 1 24 39
M  V30 43 1 24 40
M  V30 END BOND
M  V30 END CTAB
M  END
