
     RDKit          3D

  0  0  0  0  0  0  0  0  0  0999 V3000
M  V30 BEGIN CTAB
M  V30 COUNTS 21 21 0 0 0
M  V30 BEGIN ATOM
M  V30 1 N -2.76854 1.78926 -0.326475 0
M  V30 2 C -2.05482 0.561564 -0.29968 0
M  V30 3 C -2.54885 -0.597072 -0.803752 0
M  V30 4 C -1.77147 -1.72656 -0.724324 0
M  V30 5 C -0.529547 -1.68809 -0.152259 0
M  V30 6 C 0.0195684 -0.504979 0.38235 0
M  V30 7 C -0.778458 0.598047 0.287814 0
M  V30 8 N 1.29222 -0.553183 0.967821 0
M  V30 9 S 2.49205 0.630707 0.751482 0
M  V30 10 O 3.32968 0.735224 2.00383 0
M  V30 11 O 1.88102 1.9708 0.506833 0
M  V30 12 N 3.49616 0.229433 -0.603387 0
M  V30 13 Br 0.480092 -3.30873 -0.0862355 0
M  V30 14 H -2.70241 2.4674 -1.12307 0
M  V30 15 H -3.37629 1.9872 0.505896 0
M  V30 16 H -3.53002 -0.618539 -1.25382 0
M  V30 17 H -2.16409 -2.6646 -1.12883 0
M  V30 18 H -0.417706 1.53359 0.691879 0
M  V30 19 H 1.49925 -1.39467 1.58406 0
M  V30 20 H 4.0115 1.09279 -0.867247 0
M  V30 21 H 4.14067 -0.539595 -0.312883 0
M  V30 END ATOM
M  V30 BEGIN BOND
M  V30 1 1 1 2
M  V30 2 2 2 3
M  V30 3 1 3 4
M  V30 4 2 4 5
M  V30 5 1 5 6
M  V30 6 2 6 7
M  V30 7 1 6 8
M  V30 8 1 8 9
M  V30 9 2 9 10
M  V30 10 2 9 11
M  V30 11 1 9 12
M  V30 12 1 5 13
M  V30 13 1 7 2
M  V30 14 1 1 14
M  V30 15 1 1 15
M  V30 16 1 3 16
M  V30 17 1 4 17
M  V30 18 1 7 18
M  V30 19 1 8 19
M  V30 20 1 12 20
M  V30 21 1 12 21
M  V30 END BOND
M  V30 END CTAB
M  END
