
     RDKit          3D

  0  0  0  0  0  0  0  0  0  0999 V3000
M  V30 BEGIN CTAB
M  V30 COUNTS 22 23 0 0 0
M  V30 BEGIN ATOM
M  V30 1 N -2.9197 -0.744697 -0.0730682 0
M  V30 2 C -1.79536 0.120444 -0.0388096 0
M  V30 3 C -2.0118 1.48805 -0.029244 0
M  V30 4 Cl -3.62806 2.164 -0.058282 0
M  V30 5 C -0.922784 2.32755 0.00394963 0
M  V30 6 C 0.342143 1.78345 0.0265044 0
M  V30 7 C 0.550327 0.425785 0.016861 0
M  V30 8 C -0.530886 -0.439527 -0.0164332 0
M  V30 9 C -0.321053 -1.79953 -0.0260715 0
M  V30 10 C 0.931525 -2.37325 -0.00410748 0
M  V30 11 C 2.00136 -1.49101 0.0291095 0
M  V30 12 Cl 3.64017 -2.12958 0.0590398 0
M  V30 13 C 1.81585 -0.124766 0.0393573 0
M  V30 14 N 2.91857 0.781145 0.0735396 0
M  V30 15 H -3.12421 -1.3125 -0.919285 0
M  V30 16 H -3.562 -0.8325 0.739142 0
M  V30 17 H -1.06039 3.41344 0.0123199 0
M  V30 18 H 1.18696 2.44592 0.0523683 0
M  V30 19 H -1.18013 -2.44138 -0.0520341 0
M  V30 20 H 1.08079 -3.44554 -0.0120687 0
M  V30 21 H 3.00519 1.41792 0.881245 0
M  V30 22 H 3.58348 0.766581 -0.704032 0
M  V30 END ATOM
M  V30 BEGIN BOND
M  V30 1 1 1 2
M  V30 2 2 2 3
M  V30 3 1 3 4
M  V30 4 1 3 5
M  V30 5 2 5 6
M  V30 6 1 6 7
M  V30 7 2 7 8
M  V30 8 1 8 9
M  V30 9 2 9 10
M  V30 10 1 10 11
M  V30 11 1 11 12
M  V30 12 2 11 13
M  V30 13 1 13 14
M  V30 14 1 8 2
M  V30 15 1 13 7
M  V30 16 1 1 15
M  V30 17 1 1 16
M  V30 18 1 5 17
M  V30 19 1 6 18
M  V30 20 1 9 19
M  V30 21 1 10 20
M  V30 22 1 14 21
M  V30 23 1 14 22
M  V30 END BOND
M  V30 END CTAB
M  END
