
     RDKit          3D

  0  0  0  0  0  0  0  0  0  0999 V3000
M  V30 BEGIN CTAB
M  V30 COUNTS 21 22 0 0 0
M  V30 BEGIN ATOM
M  V30 1 N 3.26209 0.452645 0.306692 0
M  V30 2 C 1.85422 0.660418 0.221042 0
M  V30 3 C 1.28069 1.9011 0.317831 0
M  V30 4 N -0.0584983 2.06115 0.232082 0
M  V30 5 C -0.894884 1.02715 0.0493633 0
M  V30 6 C -0.369296 -0.244184 -0.0546398 0
M  V30 7 C 1.00207 -0.41252 0.0326642 0
M  V30 8 N 1.53921 -1.73205 -0.0759145 0
M  V30 9 C -1.20681 -1.32407 -0.242664 0
M  V30 10 C -2.59669 -1.17453 -0.333548 0
M  V30 11 C -3.11176 0.100418 -0.228323 0
M  V30 12 C -2.27389 1.18525 -0.0397002 0
M  V30 13 F -2.80864 2.41391 0.058728 0
M  V30 14 F -4.4486 0.285179 -0.31105 0
M  V30 15 H 3.79765 0.506596 -0.583375 0
M  V30 16 H 3.66429 0.262112 1.24132 0
M  V30 17 H 1.92104 2.75557 0.464879 0
M  V30 18 H 1.80623 -2.07593 -1.0211 0
M  V30 19 H 1.65423 -2.31781 0.766812 0
M  V30 20 H -0.769111 -2.31898 -0.321993 0
M  V30 21 H -3.24354 -2.01143 -0.479106 0
M  V30 END ATOM
M  V30 BEGIN BOND
M  V30 1 1 1 2
M  V30 2 2 2 3
M  V30 3 1 3 4
M  V30 4 2 4 5
M  V30 5 1 5 6
M  V30 6 2 6 7
M  V30 7 1 7 8
M  V30 8 1 6 9
M  V30 9 2 9 10
M  V30 10 1 10 11
M  V30 11 2 11 12
M  V30 12 1 12 13
M  V30 13 1 11 14
M  V30 14 1 7 2
M  V30 15 1 12 5
M  V30 16 1 1 15
M  V30 17 1 1 16
M  V30 18 1 3 17
M  V30 19 1 8 18
M  V30 20 1 8 19
M  V30 21 1 9 20
M  V30 22 1 10 21
M  V30 END BOND
M  V30 END CTAB
M  END
