
     RDKit          3D

  0  0  0  0  0  0  0  0  0  0999 V3000
M  V30 BEGIN CTAB
M  V30 COUNTS 20 20 0 0 0
M  V30 BEGIN ATOM
M  V30 1 C -2.99144 -0.521664 0.508369 0
M  V30 2 O -2.08473 -0.237444 -0.522283 0
M  V30 3 C -0.722444 -0.214142 -0.397278 0
M  V30 4 C -0.124274 0.981899 -0.0522195 0
M  V30 5 N -0.857498 2.18067 0.176917 0
M  V30 6 C 1.26267 0.986197 0.0703049 0
M  V30 7 C 1.981 -0.162061 -0.147763 0
M  V30 8 C 1.38381 -1.35694 -0.492452 0
M  V30 9 C 0.00793648 -1.3657 -0.615097 0
M  V30 10 Br -0.823041 -3.01774 -1.09218 0
M  V30 11 N 3.41109 -0.144805 -0.0183345 0
M  V30 12 H -3.11782 0.340608 1.19292 0
M  V30 13 H -3.98066 -0.761131 0.0256109 0
M  V30 14 H -2.70349 -1.3954 1.12623 0
M  V30 15 H -1.0603 2.5538 1.12971 0
M  V30 16 H -1.22503 2.73817 -0.637853 0
M  V30 17 H 1.75705 1.91372 0.340579 0
M  V30 18 H 1.99831 -2.24131 -0.655053 0
M  V30 19 H 3.8872 -0.286845 0.907385 0
M  V30 20 H 4.00165 0.0101025 -0.847513 0
M  V30 END ATOM
M  V30 BEGIN BOND
M  V30 1 1 1 2
M  V30 2 1 2 3
M  V30 3 2 3 4
M  V30 4 1 4 5
M  V30 5 1 4 6
M  V30 6 2 6 7
M  V30 7 1 7 8
M  V30 8 2 8 9
M  V30 9 1 9 10
M  V30 10 1 7 11
M  V30 11 1 9 3
M  V30 12 1 1 12
M  V30 13 1 1 13
M  V30 14 1 1 14
M  V30 15 1 5 15
M  V30 16 1 5 16
M  V30 17 1 6 17
M  V30 18 1 8 18
M  V30 19 1 11 19
M  V30 20 1 11 20
M  V30 END BOND
M  V30 END CTAB
M  END
