
     RDKit          3D

  0  0  0  0  0  0  0  0  0  0999 V3000
M  V30 BEGIN CTAB
M  V30 COUNTS 55 57 0 0 0
M  V30 BEGIN ATOM
M  V30 1 C -1.61892 1.32397 -0.955007 0
M  V30 2 C -2.47808 0.474638 -1.90962 0
M  V30 3 C -1.66536 0.165265 -3.16209 0
M  V30 4 N -3.60794 1.26874 -2.24008 0
M  V30 5 C -4.81806 1.00619 -1.94643 0
M  V30 6 N -5.87739 1.90633 -2.34675 0
M  V30 7 N -5.11139 -0.176583 -1.22418 0
M  V30 8 C -4.18042 -0.979291 -0.865606 0
M  V30 9 N -4.48298 -2.17969 -0.131993 0
M  V30 10 N -2.82581 -0.697363 -1.18737 0
M  V30 11 C -1.84421 -1.65143 -0.746769 0
M  V30 12 C -1.23653 -1.5408 0.485313 0
M  V30 13 C -0.289738 -2.41755 0.966309 0
M  V30 14 O 0.331804 -2.31697 2.20049 0
M  V30 15 C 0.20451 -1.38758 3.18696 0
M  V30 16 C 0.599477 0.0167872 2.98125 0
M  V30 17 C 2.05007 0.319074 2.72668 0
M  V30 18 C 2.55543 -0.378218 1.50291 0
M  V30 19 O 3.87026 -0.0951974 1.1493 0
M  V30 20 C 4.38496 1.08462 0.746647 0
M  V30 21 C 5.75094 1.14359 0.479734 0
M  V30 22 C 6.37254 2.28663 0.0636214 0
M  V30 23 C 5.65664 3.45169 -0.112219 0
M  V30 24 C 4.30883 3.40655 0.147072 0
M  V30 25 C 3.68209 2.23417 0.571306 0
M  V30 26 C 0.0563912 -3.48576 0.119977 0
M  V30 27 C -0.529488 -3.62028 -1.10512 0
M  V30 28 C -1.48628 -2.70262 -1.54988 0
M  V30 29 H -0.605371 0.916769 -0.865219 0
M  V30 30 H -1.58366 2.38545 -1.30538 0
M  V30 31 H -2.07394 1.34846 0.0492407 0
M  V30 32 H -0.575932 0.146124 -2.95208 0
M  V30 33 H -2.03336 -0.726299 -3.6851 0
M  V30 34 H -1.83228 1.02986 -3.85283 0
M  V30 35 H -5.625 2.83701 -2.73099 0
M  V30 36 H -6.88488 1.67034 -2.27005 0
M  V30 37 H -4.21198 -2.24045 0.851638 0
M  V30 38 H -4.96261 -2.93955 -0.619877 0
M  V30 39 H -1.52602 -0.709268 1.15357 0
M  V30 40 H -0.901838 -1.36464 3.50181 0
M  V30 41 H 0.770792 -1.79608 4.1014 0
M  V30 42 H 0.0390255 0.576496 2.19515 0
M  V30 43 H 0.306319 0.605708 3.92634 0
M  V30 44 H 2.63434 -0.0277031 3.64371 0
M  V30 45 H 2.14571 1.40915 2.73121 0
M  V30 46 H 2.50758 -1.49531 1.77714 0
M  V30 47 H 1.86334 -0.156792 0.678506 0
M  V30 48 H 6.33689 0.230011 0.613092 0
M  V30 49 H 7.4457 2.33943 -0.147752 0
M  V30 50 H 6.09417 4.38176 -0.437797 0
M  V30 51 H 3.70481 4.31396 0.0185483 0
M  V30 52 H 2.62803 2.27027 0.729451 0
M  V30 53 H 0.794765 -4.20008 0.454795 0
M  V30 54 H -0.290866 -4.43656 -1.79784 0
M  V30 55 H -1.93506 -2.82698 -2.51819 0
M  V30 END ATOM
M  V30 BEGIN BOND
M  V30 1 1 1 2
M  V30 2 1 2 3
M  V30 3 1 2 4
M  V30 4 2 4 5
M  V30 5 1 5 6
M  V30 6 1 5 7
M  V30 7 2 7 8
M  V30 8 1 8 9
M  V30 9 1 8 10
M  V30 10 1 10 11
M  V30 11 2 11 12
M  V30 12 1 12 13
M  V30 13 1 13 14
M  V30 14 1 14 15
M  V30 15 1 15 16
M  V30 16 1 16 17
M  V30 17 1 17 18
M  V30 18 1 18 19
M  V30 19 1 19 20
M  V30 20 2 20 21
M  V30 21 1 21 22
M  V30 22 2 22 23
M  V30 23 1 23 24
M  V30 24 2 24 25
M  V30 25 2 13 26
M  V30 26 1 26 27
M  V30 27 2 27 28
M  V30 28 1 10 2
M  V30 29 1 28 11
M  V30 30 1 25 20
M  V30 31 1 1 29
M  V30 32 1 1 30
M  V30 33 1 1 31
M  V30 34 1 3 32
M  V30 35 1 3 33
M  V30 36 1 3 34
M  V30 37 1 6 35
M  V30 38 1 6 36
M  V30 39 1 9 37
M  V30 40 1 9 38
M  V30 41 1 12 39
M  V30 42 1 15 40
M  V30 43 1 15 41
M  V30 44 1 16 42
M  V30 45 1 16 43
M  V30 46 1 17 44
M  V30 47 1 17 45
M  V30 48 1 18 46
M  V30 49 1 18 47
M  V30 50 1 21 48
M  V30 51 1 22 49
M  V30 52 1 23 50
M  V30 53 1 24 51
M  V30 54 1 25 52
M  V30 55 1 26 53
M  V30 56 1 27 54
M  V30 57 1 28 55
M  V30 END BOND
M  V30 END CTAB
M  END
