
     RDKit          3D

  0  0  0  0  0  0  0  0  0  0999 V3000
M  V30 BEGIN CTAB
M  V30 COUNTS 33 34 0 0 0
M  V30 BEGIN ATOM
M  V30 1 C -2.0192 2.06411 -0.695154 0
M  V30 2 C -1.5429 1.59821 0.671074 0
M  V30 3 N -1.47527 0.18446 0.779988 0
M  V30 4 C -2.56407 -0.664111 1.23013 0
M  V30 5 O -3.54237 -0.315831 1.92563 0
M  V30 6 C -2.34817 -2.04402 0.735043 0
M  V30 7 C -1.20469 -1.79867 -0.268673 0 CFG=1
M  V30 8 C -0.432509 -0.784217 0.495096 0 CFG=1
M  V30 9 C 0.789934 -0.273971 -0.0637619 0
M  V30 10 C 1.27822 -0.612082 -1.29667 0
M  V30 11 C 2.48769 -0.118945 -1.79603 0
M  V30 12 C 3.23318 0.74554 -1.02831 0
M  V30 13 C 2.76688 1.10221 0.213939 0
M  V30 14 C 1.56108 0.594149 0.681125 0
M  V30 15 N 3.53534 1.98982 0.998235 0
M  V30 16 N -0.515597 -2.99919 -0.579636 0
M  V30 17 H -1.50218 3.00283 -0.943162 0
M  V30 18 H -3.11008 2.26124 -0.715951 0
M  V30 19 H -1.77313 1.31067 -1.48039 0
M  V30 20 H -2.34403 1.96004 1.38286 0
M  V30 21 H -0.613442 2.09799 0.968856 0
M  V30 22 H -3.22009 -2.47821 0.247553 0
M  V30 23 H -1.96928 -2.63383 1.60019 0
M  V30 24 H -1.68497 -1.40203 -1.17645 0
M  V30 25 H -0.251303 -1.27366 1.51864 0
M  V30 26 H 0.751071 -1.27572 -1.95312 0
M  V30 27 H 2.85403 -0.398606 -2.77049 0
M  V30 28 H 4.17721 1.16246 -1.35711 0
M  V30 29 H 1.28738 0.925987 1.67285 0
M  V30 30 H 3.38976 3.00837 0.938459 0
M  V30 31 H 4.24943 1.60849 1.63678 0
M  V30 32 H 0.330145 -3.20093 -0.0438107 0
M  V30 33 H -0.578081 -3.34254 -1.52775 0
M  V30 END ATOM
M  V30 BEGIN BOND
M  V30 1 1 1 2
M  V30 2 1 2 3
M  V30 3 1 3 4
M  V30 4 2 4 5
M  V30 5 1 4 6
M  V30 6 1 6 7
M  V30 7 1 7 8
M  V30 8 1 8 9
M  V30 9 2 9 10
M  V30 10 1 10 11
M  V30 11 2 11 12
M  V30 12 1 12 13
M  V30 13 2 13 14
M  V30 14 1 13 15
M  V30 15 1 7 16
M  V30 16 1 8 3
M  V30 17 1 14 9
M  V30 18 1 1 17
M  V30 19 1 1 18
M  V30 20 1 1 19
M  V30 21 1 2 20
M  V30 22 1 2 21
M  V30 23 1 6 22
M  V30 24 1 6 23
M  V30 25 1 7 24 CFG=3
M  V30 26 1 8 25 CFG=1
M  V30 27 1 10 26
M  V30 28 1 11 27
M  V30 29 1 12 28
M  V30 30 1 14 29
M  V30 31 1 15 30
M  V30 32 1 15 31
M  V30 33 1 16 32
M  V30 34 1 16 33
M  V30 END BOND
M  V30 END CTAB
M  END
