
     RDKit          3D

  0  0  0  0  0  0  0  0  0  0999 V3000
M  V30 BEGIN CTAB
M  V30 COUNTS 52 54 0 0 0
M  V30 BEGIN ATOM
M  V30 1 C 6.58288 0.765025 1.65517 0
M  V30 2 N 6.01904 0.416589 0.389419 0
M  V30 3 C 6.86653 0.633433 -0.705083 0
M  V30 4 C 4.64378 0.722931 0.243776 0
M  V30 5 C 4.01943 0.378325 -1.05307 0
M  V30 6 C 4.09537 -1.11311 -1.36969 0
M  V30 7 C 3.38894 -1.92957 -0.314619 0
M  V30 8 N 2.0068 -1.58765 -0.199258 0
M  V30 9 C 1.06749 -1.71284 -1.25957 0
M  V30 10 O 1.45951 -2.1534 -2.3789 0
M  V30 11 C -0.331363 -1.34177 -1.07171 0
M  V30 12 N -0.766088 -0.871598 0.111133 0
M  V30 13 C -2.04806 -0.521293 0.315644 0
M  V30 14 C -2.92123 -0.660372 -0.741878 0
M  V30 15 N -2.48955 -1.13022 -1.92584 0
M  V30 16 C -1.195 -1.48558 -2.13747 0
M  V30 17 N -0.753257 -1.97947 -3.3904 0
M  V30 18 N -4.21327 -0.308873 -0.540671 0
M  V30 19 C -4.68267 0.163546 0.624825 0
M  V30 20 N -3.8177 0.291193 1.64033 0
M  V30 21 C -2.50924 -0.0381129 1.52105 0
M  V30 22 N -1.61555 0.108886 2.61818 0
M  V30 23 C -6.10154 0.531564 0.788792 0
M  V30 24 C -6.60026 1.01257 1.96086 0
M  V30 25 C -7.94382 1.3578 2.10579 0
M  V30 26 Cl -8.57422 1.9724 3.60825 0
M  V30 27 C -8.7953 1.20954 1.03436 0
M  V30 28 C -8.30265 0.726552 -0.148297 0
M  V30 29 C -6.95501 0.383604 -0.283086 0
M  V30 30 H 7.50196 1.39793 1.54635 0
M  V30 31 H 5.84245 1.3476 2.22073 0
M  V30 32 H 6.83065 -0.147346 2.23109 0
M  V30 33 H 6.43764 1.13149 -1.58099 0
M  V30 34 H 7.73291 1.28071 -0.378623 0
M  V30 35 H 7.32676 -0.330555 -1.02962 0
M  V30 36 H 4.52087 1.83765 0.374614 0
M  V30 37 H 4.05923 0.275898 1.06622 0
M  V30 38 H 4.33716 0.993207 -1.90192 0
M  V30 39 H 2.91031 0.580909 -0.944752 0
M  V30 40 H 5.18457 -1.39694 -1.28216 0
M  V30 41 H 3.74741 -1.3353 -2.38302 0
M  V30 42 H 3.53283 -3.0049 -0.564704 0
M  V30 43 H 3.88596 -1.71024 0.66704 0
M  V30 44 H 1.63144 -1.21679 0.717695 0
M  V30 45 H -0.734655 -2.99434 -3.58253 0
M  V30 46 H -0.445081 -1.31975 -4.12368 0
M  V30 47 H -1.78512 0.784038 3.3955 0
M  V30 48 H -0.743745 -0.460367 2.68949 0
M  V30 49 H -5.95139 1.13633 2.81147 0
M  V30 50 H -9.82926 1.47984 1.16052 0
M  V30 51 H -8.97233 0.611422 -0.986274 0
M  V30 52 H -6.55455 -0.00143829 -1.22046 0
M  V30 END ATOM
M  V30 BEGIN BOND
M  V30 1 1 1 2
M  V30 2 1 2 3
M  V30 3 1 2 4
M  V30 4 1 4 5
M  V30 5 1 5 6
M  V30 6 1 6 7
M  V30 7 1 7 8
M  V30 8 1 8 9
M  V30 9 2 9 10
M  V30 10 1 9 11
M  V30 11 2 11 12
M  V30 12 1 12 13
M  V30 13 2 13 14
M  V30 14 1 14 15
M  V30 15 2 15 16
M  V30 16 1 16 17
M  V30 17 1 14 18
M  V30 18 2 18 19
M  V30 19 1 19 20
M  V30 20 2 20 21
M  V30 21 1 21 22
M  V30 22 1 19 23
M  V30 23 2 23 24
M  V30 24 1 24 25
M  V30 25 1 25 26
M  V30 26 2 25 27
M  V30 27 1 27 28
M  V30 28 2 28 29
M  V30 29 1 16 11
M  V30 30 1 29 23
M  V30 31 1 21 13
M  V30 32 1 1 30
M  V30 33 1 1 31
M  V30 34 1 1 32
M  V30 35 1 3 33
M  V30 36 1 3 34
M  V30 37 1 3 35
M  V30 38 1 4 36
M  V30 39 1 4 37
M  V30 40 1 5 38
M  V30 41 1 5 39
M  V30 42 1 6 40
M  V30 43 1 6 41
M  V30 44 1 7 42
M  V30 45 1 7 43
M  V30 46 1 8 44
M  V30 47 1 17 45
M  V30 48 1 17 46
M  V30 49 1 22 47
M  V30 50 1 22 48
M  V30 51 1 24 49
M  V30 52 1 27 50
M  V30 53 1 28 51
M  V30 54 1 29 52
M  V30 END BOND
M  V30 END CTAB
M  END
