
     RDKit          3D

  0  0  0  0  0  0  0  0  0  0999 V3000
M  V30 BEGIN CTAB
M  V30 COUNTS 22 22 0 0 0
M  V30 BEGIN ATOM
M  V30 1 C 3.1318 -0.519934 0.673385 0
M  V30 2 C 2.37197 -0.0257827 -0.520574 0
M  V30 3 C 0.919333 0.176104 -0.231382 0
M  V30 4 C 0.00842226 -0.842027 -0.415471 0
M  V30 5 C -1.3308 -0.652379 -0.147724 0
M  V30 6 N -2.22153 -1.73867 -0.356696 0
M  V30 7 C -1.8215 0.55267 0.312892 0
M  V30 8 C -0.917796 1.57802 0.500403 0
M  V30 9 C 0.426201 1.37874 0.228841 0
M  V30 10 Br -1.59551 3.24447 1.13722 0
M  V30 11 N -3.20198 0.733908 0.584339 0
M  V30 12 H 2.56116 -0.285665 1.58698 0
M  V30 13 H 3.27629 -1.63047 0.546081 0
M  V30 14 H 4.11815 -0.0167024 0.740476 0
M  V30 15 H 2.75203 0.965063 -0.855726 0
M  V30 16 H 2.51924 -0.719641 -1.37339 0
M  V30 17 H 0.407719 -1.79712 -0.782153 0
M  V30 18 H -2.76864 -1.74431 -1.23699 0
M  V30 19 H -2.2893 -2.48251 0.378852 0
M  V30 20 H 1.12897 2.19088 0.379384 0
M  V30 21 H -3.80249 1.19652 -0.136663 0
M  V30 22 H -3.67174 0.43885 1.45668 0
M  V30 END ATOM
M  V30 BEGIN BOND
M  V30 1 1 1 2
M  V30 2 1 2 3
M  V30 3 2 3 4
M  V30 4 1 4 5
M  V30 5 1 5 6
M  V30 6 2 5 7
M  V30 7 1 7 8
M  V30 8 2 8 9
M  V30 9 1 8 10
M  V30 10 1 7 11
M  V30 11 1 9 3
M  V30 12 1 1 12
M  V30 13 1 1 13
M  V30 14 1 1 14
M  V30 15 1 2 15
M  V30 16 1 2 16
M  V30 17 1 4 17
M  V30 18 1 6 18
M  V30 19 1 6 19
M  V30 20 1 9 20
M  V30 21 1 11 21
M  V30 22 1 11 22
M  V30 END BOND
M  V30 END CTAB
M  END
