
     RDKit          3D

  0  0  0  0  0  0  0  0  0  0999 V3000
M  V30 BEGIN CTAB
M  V30 COUNTS 18 18 0 0 0
M  V30 BEGIN ATOM
M  V30 1 N 2.47775 -0.479271 0.0292452 0
M  V30 2 C 1.20534 0.161108 0.078501 0
M  V30 3 C 1.08782 1.52526 0.298652 0
M  V30 4 C -0.15091 2.13024 0.347141 0
M  V30 5 Cl -0.308864 3.86247 0.629011 0
M  V30 6 C -1.25173 1.31942 0.167263 0
M  V30 7 Cl -2.83042 2.05894 0.223797 0
M  V30 8 C -1.13518 -0.0425578 -0.0528464 0
M  V30 9 C 0.102404 -0.652621 -0.102151 0
M  V30 10 N 0.247018 -2.0458 -0.329436 0
M  V30 11 N -2.2737 -0.872558 -0.232571 0 CHG=1
M  V30 12 O -2.57801 -1.36509 -1.47404 0 CHG=-1
M  V30 13 O -3.00031 -1.15655 0.724177 0
M  V30 14 H 2.94486 -0.633008 -0.890394 0
M  V30 15 H 2.92707 -0.788276 0.925801 0
M  V30 16 H 1.98196 2.13434 0.436942 0
M  V30 17 H -0.321996 -2.68594 0.257125 0
M  V30 18 H 0.876895 -2.4701 -1.03621 0
M  V30 END ATOM
M  V30 BEGIN BOND
M  V30 1 1 1 2
M  V30 2 2 2 3
M  V30 3 1 3 4
M  V30 4 1 4 5
M  V30 5 2 4 6
M  V30 6 1 6 7
M  V30 7 1 6 8
M  V30 8 2 8 9
M  V30 9 1 9 10
M  V30 10 1 8 11
M  V30 11 1 11 12
M  V30 12 2 11 13
M  V30 13 1 9 2
M  V30 14 1 1 14
M  V30 15 1 1 15
M  V30 16 1 3 16
M  V30 17 1 10 17
M  V30 18 1 10 18
M  V30 END BOND
M  V30 END CTAB
M  END
