
     RDKit          3D

  0  0  0  0  0  0  0  0  0  0999 V3000
M  V30 BEGIN CTAB
M  V30 COUNTS 35 35 0 0 0
M  V30 BEGIN ATOM
M  V30 1 C 4.31449 -0.410751 1.58585 0
M  V30 2 C 2.8022 -0.319044 1.36414 0
M  V30 3 N 2.48178 0.518963 0.343553 0
M  V30 4 C 2.52474 1.82844 0.00630231 0
M  V30 5 C 2.05221 2.22404 -1.39571 0
M  V30 6 C 1.71559 -0.417169 -0.920846 0
M  V30 7 N 2.76268 -0.501519 -1.41675 0
M  V30 8 N 0.472389 -0.316849 -0.331655 0
M  V30 9 C -0.742413 -0.70446 -1.0642 0
M  V30 10 O -0.634309 -1.11029 -2.23866 0
M  V30 11 C -2.04463 -0.620978 -0.441075 0
M  V30 12 N -2.22638 -0.292029 0.845635 0
M  V30 13 C -3.43027 -0.260532 1.39779 0
M  V30 14 Cl -3.66335 0.16498 3.10305 0
M  V30 15 C -4.53695 -0.568702 0.666098 0
M  V30 16 N -5.85821 -0.543654 1.17111 0
M  V30 17 N -4.43024 -0.915874 -0.662804 0
M  V30 18 C -3.18743 -0.925102 -1.15049 0
M  V30 19 N -3.01607 -1.26764 -2.51869 0
M  V30 20 H 4.59336 -1.4488 1.85805 0
M  V30 21 H 4.67391 0.336701 2.32607 0
M  V30 22 H 4.83168 -0.186072 0.641376 0
M  V30 23 H 2.4156 -1.37154 1.258 0
M  V30 24 H 2.31554 0.0619545 2.33231 0
M  V30 25 H 1.76409 2.40534 0.676842 0
M  V30 26 H 3.48864 2.38423 0.253211 0
M  V30 27 H 1.05912 1.8098 -1.54218 0
M  V30 28 H 2.79118 1.89237 -2.12693 0
M  V30 29 H 1.98927 3.3513 -1.36452 0
M  V30 30 H 3.10029 -0.976477 -2.31022 0
M  V30 31 H 0.233589 -0.000808471 0.655398 0
M  V30 32 H -6.24066 0.283956 1.64855 0
M  V30 33 H -6.46002 -1.39966 1.05843 0
M  V30 34 H -2.83907 -0.468528 -3.18607 0
M  V30 35 H -3.07233 -2.2356 -2.82847 0
M  V30 END ATOM
M  V30 BEGIN BOND
M  V30 1 1 1 2
M  V30 2 1 2 3
M  V30 3 1 3 4
M  V30 4 1 4 5
M  V30 5 1 3 6
M  V30 6 2 6 7 CFG=2
M  V30 7 1 6 8
M  V30 8 1 8 9
M  V30 9 2 9 10
M  V30 10 1 9 11
M  V30 11 2 11 12
M  V30 12 1 12 13
M  V30 13 1 13 14
M  V30 14 2 13 15
M  V30 15 1 15 16
M  V30 16 1 15 17
M  V30 17 2 17 18
M  V30 18 1 18 19
M  V30 19 1 18 11
M  V30 20 1 1 20
M  V30 21 1 1 21
M  V30 22 1 1 22
M  V30 23 1 2 23
M  V30 24 1 2 24
M  V30 25 1 4 25
M  V30 26 1 4 26
M  V30 27 1 5 27
M  V30 28 1 5 28
M  V30 29 1 5 29
M  V30 30 1 7 30
M  V30 31 1 8 31
M  V30 32 1 16 32
M  V30 33 1 16 33
M  V30 34 1 19 34
M  V30 35 1 19 35
M  V30 END BOND
M  V30 END CTAB
M  END
