
     RDKit          3D

  0  0  0  0  0  0  0  0  0  0999 V3000
M  V30 BEGIN CTAB
M  V30 COUNTS 41 41 0 0 0
M  V30 BEGIN ATOM
M  V30 1 C 5.53244 0.00664688 -0.759731 0
M  V30 2 C 4.79396 -0.999456 0.0872564 0
M  V30 3 C 3.51227 -0.42674 0.654491 0
M  V30 4 C 2.63335 -0.0167356 -0.50203 0
M  V30 5 C 1.33917 0.562706 -0.0257453 0
M  V30 6 O 1.38405 1.57288 0.702324 0
M  V30 7 N 0.144717 -0.0293735 -0.400538 0
M  V30 8 C -1.18105 0.343406 -0.0750675 0
M  V30 9 C -1.54799 1.46691 0.591155 0
M  V30 10 C -2.90038 1.7326 0.87053 0
M  V30 11 C -3.9028 0.875537 0.485468 0
M  V30 12 C -3.54551 -0.255178 -0.184146 0
M  V30 13 C -2.22095 -0.510773 -0.455026 0
M  V30 14 S -4.80201 -1.35507 -0.681203 0
M  V30 15 O -5.44698 -1.92904 0.535848 0
M  V30 16 O -4.15645 -2.48591 -1.42873 0
M  V30 17 N -5.93542 -0.615862 -1.74233 0
M  V30 18 C -5.31597 1.16716 0.785285 0
M  V30 19 N 2.40729 -1.18252 -1.33465 0
M  V30 20 C 3.8209 0.694797 1.59089 0
M  V30 21 H 5.3329 1.05334 -0.422995 0
M  V30 22 H 6.60798 -0.17235 -0.772643 0
M  V30 23 H 5.17587 -0.0433712 -1.81406 0
M  V30 24 H 5.45639 -1.39325 0.891354 0
M  V30 25 H 4.54413 -1.86649 -0.555882 0
M  V30 26 H 3.03939 -1.24029 1.24277 0
M  V30 27 H 3.16151 0.728016 -1.13096 0
M  V30 28 H 0.249502 -0.898006 -1.0352 0
M  V30 29 H -0.805371 2.18518 0.917386 0
M  V30 30 H -3.13736 2.63647 1.40113 0
M  V30 31 H -1.96198 -1.4282 -0.9945 0
M  V30 32 H -6.89371 -0.934025 -1.52662 0
M  V30 33 H -5.68155 -0.772192 -2.73306 0
M  V30 34 H -5.9027 1.41155 -0.126941 0
M  V30 35 H -5.80252 0.387014 1.41089 0
M  V30 36 H -5.36428 2.10395 1.4139 0
M  V30 37 H 2.50993 -2.04831 -0.775346 0
M  V30 38 H 3.07941 -1.25086 -2.125 0
M  V30 39 H 3.05308 0.858911 2.36975 0
M  V30 40 H 4.76213 0.440188 2.15982 0
M  V30 41 H 3.96461 1.62674 1.03181 0
M  V30 END ATOM
M  V30 BEGIN BOND
M  V30 1 1 1 2
M  V30 2 1 2 3
M  V30 3 1 3 4
M  V30 4 1 4 5
M  V30 5 2 5 6
M  V30 6 1 5 7
M  V30 7 1 7 8
M  V30 8 2 8 9
M  V30 9 1 9 10
M  V30 10 2 10 11
M  V30 11 1 11 12
M  V30 12 2 12 13
M  V30 13 1 12 14
M  V30 14 2 14 15
M  V30 15 2 14 16
M  V30 16 1 14 17
M  V30 17 1 11 18
M  V30 18 1 4 19
M  V30 19 1 3 20
M  V30 20 1 13 8
M  V30 21 1 1 21
M  V30 22 1 1 22
M  V30 23 1 1 23
M  V30 24 1 2 24
M  V30 25 1 2 25
M  V30 26 1 3 26
M  V30 27 1 4 27
M  V30 28 1 7 28
M  V30 29 1 9 29
M  V30 30 1 10 30
M  V30 31 1 13 31
M  V30 32 1 17 32
M  V30 33 1 17 33
M  V30 34 1 18 34
M  V30 35 1 18 35
M  V30 36 1 18 36
M  V30 37 1 19 37
M  V30 38 1 19 38
M  V30 39 1 20 39
M  V30 40 1 20 40
M  V30 41 1 20 41
M  V30 END BOND
M  V30 END CTAB
M  END
