
     RDKit          3D

  0  0  0  0  0  0  0  0  0  0999 V3000
M  V30 BEGIN CTAB
M  V30 COUNTS 36 39 0 0 0
M  V30 BEGIN ATOM
M  V30 1 N 3.79637 2.83688 0.951981 0
M  V30 2 C 3.50709 1.47121 0.623694 0
M  V30 3 N 2.26782 0.993068 0.638328 0
M  V30 4 C 2.01839 -0.296497 0.325648 0
M  V30 5 C 3.09987 -1.10254 -0.0106829 0
M  V30 6 N 2.60302 -2.30919 -0.273236 0
M  V30 7 C 1.27656 -2.26915 -0.111608 0
M  V30 8 N 0.89784 -1.03515 0.257887 0
M  V30 9 C -0.449376 -0.638714 0.516192 0 CFG=2
M  V30 10 O -1.31202 -1.46089 -0.220749 0
M  V30 11 C -2.53455 -0.870497 0.0150614 0 CFG=2
M  V30 12 C -3.63222 -1.36117 -0.878327 0
M  V30 13 O -4.76784 -0.619866 -0.666405 0
M  V30 14 P -4.59479 0.615313 0.436 0
M  V30 15 O -5.75614 1.81211 0.0518682 0
M  V30 16 O -4.91178 0.166941 1.85339 0
M  V30 17 O -3.08734 1.37314 0.358714 0
M  V30 18 C -2.24648 0.580733 -0.386176 0 CFG=1
M  V30 19 C -0.790852 0.732283 0.00440827 0 CFG=1
M  V30 20 O -0.638528 1.72177 0.991319 0
M  V30 21 C 4.40121 -0.604979 -0.0272467 0
M  V30 22 N 5.48681 -1.45562 -0.375851 0
M  V30 23 N 4.55793 0.675912 0.293698 0
M  V30 24 H 3.05329 3.54632 0.806725 0
M  V30 25 H 4.71427 3.1113 1.32187 0
M  V30 26 H 0.605779 -3.13006 -0.26291 0
M  V30 27 H -0.712969 -0.698939 1.60501 0
M  V30 28 H -2.84975 -0.934725 1.06669 0
M  V30 29 H -3.30313 -1.16705 -1.94083 0
M  V30 30 H -3.78314 -2.45496 -0.821831 0
M  V30 31 H -5.60119 2.00111 -0.926384 0
M  V30 32 H -2.41477 0.741431 -1.46273 0
M  V30 33 H -0.221886 0.986317 -0.909453 0
M  V30 34 H -0.476289 2.59889 0.521276 0
M  V30 35 H 5.7074 -1.70434 -1.35543 0
M  V30 36 H 6.0914 -1.85038 0.375848 0
M  V30 END ATOM
M  V30 BEGIN BOND
M  V30 1 1 1 2
M  V30 2 2 2 3
M  V30 3 1 3 4
M  V30 4 2 4 5
M  V30 5 1 5 6
M  V30 6 2 6 7
M  V30 7 1 7 8
M  V30 8 1 8 9
M  V30 9 1 9 10
M  V30 10 1 10 11
M  V30 11 1 11 12
M  V30 12 1 12 13
M  V30 13 1 13 14
M  V30 14 1 14 15
M  V30 15 2 14 16
M  V30 16 1 14 17
M  V30 17 1 17 18
M  V30 18 1 18 19
M  V30 19 1 19 20
M  V30 20 1 5 21
M  V30 21 1 21 22
M  V30 22 2 21 23
M  V30 23 1 23 2
M  V30 24 1 8 4
M  V30 25 1 19 9
M  V30 26 1 18 11
M  V30 27 1 1 24
M  V30 28 1 1 25
M  V30 29 1 7 26
M  V30 30 1 9 27 CFG=1
M  V30 31 1 11 28 CFG=1
M  V30 32 1 12 29
M  V30 33 1 12 30
M  V30 34 1 15 31
M  V30 35 1 18 32 CFG=3
M  V30 36 1 19 33 CFG=3
M  V30 37 1 20 34
M  V30 38 1 22 35
M  V30 39 1 22 36
M  V30 END BOND
M  V30 END CTAB
M  END
