
     RDKit          3D

  0  0  0  0  0  0  0  0  0  0999 V3000
M  V30 BEGIN CTAB
M  V30 COUNTS 50 53 0 0 0
M  V30 BEGIN ATOM
M  V30 1 N -2.90969 -0.671648 -3.13717 0
M  V30 2 C -2.45527 -0.448253 -1.81146 0
M  V30 3 C -3.43799 -0.404445 -0.814206 0
M  V30 4 N -4.78842 -0.612612 -1.12106 0
M  V30 5 C -5.93016 -0.433007 -0.332881 0
M  V30 6 C -6.05041 0.597001 0.555182 0
M  V30 7 C -7.18227 0.733595 1.33882 0
M  V30 8 C -8.22064 -0.166961 1.24386 0
M  V30 9 C -8.08988 -1.20976 0.338191 0
M  V30 10 C -6.96561 -1.34219 -0.437122 0
M  V30 11 C -3.01586 -0.190511 0.468204 0
M  V30 12 C -1.66371 -0.0213838 0.770704 0
M  V30 13 C -0.705182 -0.0650747 -0.213403 0
M  V30 14 C -1.13184 -0.279825 -1.49065 0
M  V30 15 C 0.709092 0.116843 0.137882 0
M  V30 16 C 1.08734 0.925368 1.18464 0
M  V30 17 C 2.39 1.13288 1.55888 0
M  V30 18 N 2.71876 1.99667 2.6676 0
M  V30 19 C 3.41097 0.49486 0.848383 0
M  V30 20 N 4.73184 0.719488 1.30537 0
M  V30 21 C 5.93498 0.353789 0.619551 0
M  V30 22 C 6.1047 0.42163 -0.734483 0
M  V30 23 C 7.26236 0.0397574 -1.36904 0
M  V30 24 C 8.32439 -0.439259 -0.630632 0
M  V30 25 C 8.15405 -0.507628 0.741529 0
M  V30 26 C 7.01278 -0.132492 1.37578 0
M  V30 27 C 3.06174 -0.313227 -0.193515 0
M  V30 28 C 1.72107 -0.505974 -0.553518 0
M  V30 29 H -3.36647 0.100884 -3.663 0
M  V30 30 H -2.77234 -1.61865 -3.55722 0
M  V30 31 H -5.01771 -0.96911 -2.12377 0
M  V30 32 H -5.29486 1.37011 0.692859 0
M  V30 33 H -7.2718 1.54555 2.03693 0
M  V30 34 H -9.10995 -0.0761246 1.84662 0
M  V30 35 H -8.91571 -1.91896 0.26771 0
M  V30 36 H -6.90031 -2.18682 -1.14705 0
M  V30 37 H -3.70046 -0.162943 1.32671 0
M  V30 38 H -1.35603 0.147356 1.7975 0
M  V30 39 H -0.370071 -0.316068 -2.28414 0
M  V30 40 H 0.304534 1.44217 1.76409 0
M  V30 41 H 2.5011 3.0081 2.65391 0
M  V30 42 H 3.18792 1.54999 3.48599 0
M  V30 43 H 4.86151 1.19911 2.24379 0
M  V30 44 H 5.29673 0.813949 -1.34606 0
M  V30 45 H 7.37136 0.104182 -2.45267 0
M  V30 46 H 9.25021 -0.747512 -1.11017 0
M  V30 47 H 8.99977 -0.887569 1.31512 0
M  V30 48 H 6.88664 -0.187134 2.44025 0
M  V30 49 H 3.83699 -0.843163 -0.748802 0
M  V30 50 H 1.50178 -1.15499 -1.38689 0
M  V30 END ATOM
M  V30 BEGIN BOND
M  V30 1 1 1 2
M  V30 2 2 2 3
M  V30 3 1 3 4
M  V30 4 1 4 5
M  V30 5 2 5 6
M  V30 6 1 6 7
M  V30 7 2 7 8
M  V30 8 1 8 9
M  V30 9 2 9 10
M  V30 10 1 3 11
M  V30 11 2 11 12
M  V30 12 1 12 13
M  V30 13 2 13 14
M  V30 14 1 13 15
M  V30 15 2 15 16
M  V30 16 1 16 17
M  V30 17 1 17 18
M  V30 18 2 17 19
M  V30 19 1 19 20
M  V30 20 1 20 21
M  V30 21 2 21 22
M  V30 22 1 22 23
M  V30 23 2 23 24
M  V30 24 1 24 25
M  V30 25 2 25 26
M  V30 26 1 19 27
M  V30 27 2 27 28
M  V30 28 1 14 2
M  V30 29 1 28 15
M  V30 30 1 10 5
M  V30 31 1 26 21
M  V30 32 1 1 29
M  V30 33 1 1 30
M  V30 34 1 4 31
M  V30 35 1 6 32
M  V30 36 1 7 33
M  V30 37 1 8 34
M  V30 38 1 9 35
M  V30 39 1 10 36
M  V30 40 1 11 37
M  V30 41 1 12 38
M  V30 42 1 14 39
M  V30 43 1 16 40
M  V30 44 1 18 41
M  V30 45 1 18 42
M  V30 46 1 20 43
M  V30 47 1 22 44
M  V30 48 1 23 45
M  V30 49 1 24 46
M  V30 50 1 25 47
M  V30 51 1 26 48
M  V30 52 1 27 49
M  V30 53 1 28 50
M  V30 END BOND
M  V30 END CTAB
M  END
