
     RDKit          3D

  0  0  0  0  0  0  0  0  0  0999 V3000
M  V30 BEGIN CTAB
M  V30 COUNTS 37 39 0 0 0
M  V30 BEGIN ATOM
M  V30 1 N -4.54248 0.491653 2.54065 0
M  V30 2 C -3.76793 0.788835 1.40439 0
M  V30 3 N -3.80449 2.00028 0.822875 0
M  V30 4 C -3.06762 2.2935 -0.263423 0
M  V30 5 N -2.28179 1.32463 -0.757669 0
M  V30 6 C -2.20538 0.118805 -0.229585 0
M  V30 7 C -2.95588 -0.194067 0.88416 0
M  V30 8 N -2.66253 -1.46354 1.17025 0
M  V30 9 C -1.78588 -1.92042 0.295554 0
M  V30 10 N -1.4784 -0.949769 -0.597408 0
M  V30 11 C -0.551142 -1.17269 -1.65674 0 CFG=2
M  V30 12 O 0.540984 -1.85068 -1.11631 0
M  V30 13 C 1.60242 -0.996602 -1.01521 0 CFG=2
M  V30 14 F 2.60441 -1.30738 -1.93179 0
M  V30 15 C 2.25108 -0.979151 0.345127 0
M  V30 16 O 3.30835 -0.0640363 0.280311 0
M  V30 17 S 4.12285 0.0540792 1.74081 0
M  V30 18 N 3.57184 1.36715 2.69816 0
M  V30 19 O 3.94431 -1.2414 2.50228 0
M  V30 20 O 5.58457 0.279016 1.40067 0
M  V30 21 C 1.12223 0.400454 -1.35147 0 CFG=1
M  V30 22 O 2.08618 1.15797 -1.99491 0
M  V30 23 C 0.0104607 -0.00407713 -2.32759 0 CFG=1
M  V30 24 O 0.705486 -0.459157 -3.47626 0
M  V30 25 H -4.07101 0.373987 3.45788 0
M  V30 26 H -5.57049 0.396169 2.43791 0
M  V30 27 H -3.11181 3.29261 -0.725195 0
M  V30 28 H -1.39334 -2.94654 0.329708 0
M  V30 29 H -1.03751 -1.84161 -2.40715 0
M  V30 30 H 1.49388 -0.660981 1.07712 0
M  V30 31 H 2.66555 -1.9621 0.610739 0
M  V30 32 H 3.835 2.26732 2.25565 0
M  V30 33 H 2.53732 1.32018 2.82772 0
M  V30 34 H 0.725379 0.844452 -0.441792 0
M  V30 35 H 1.59674 1.85408 -2.51427 0
M  V30 36 H -0.61095 0.799645 -2.64933 0
M  V30 37 H 0.589597 -1.41061 -3.62586 0
M  V30 END ATOM
M  V30 BEGIN BOND
M  V30 1 1 1 2
M  V30 2 2 2 3
M  V30 3 1 3 4
M  V30 4 2 4 5
M  V30 5 1 5 6
M  V30 6 2 6 7
M  V30 7 1 7 8
M  V30 8 2 8 9
M  V30 9 1 9 10
M  V30 10 1 10 11
M  V30 11 1 11 12
M  V30 12 1 12 13
M  V30 13 1 13 14 CFG=3
M  V30 14 1 13 15
M  V30 15 1 15 16
M  V30 16 1 16 17
M  V30 17 1 17 18
M  V30 18 2 17 19
M  V30 19 2 17 20
M  V30 20 1 13 21
M  V30 21 1 21 22
M  V30 22 1 21 23
M  V30 23 1 23 24
M  V30 24 1 7 2
M  V30 25 1 23 11
M  V30 26 1 10 6
M  V30 27 1 1 25
M  V30 28 1 1 26
M  V30 29 1 4 27
M  V30 30 1 9 28
M  V30 31 1 11 29 CFG=3
M  V30 32 1 15 30
M  V30 33 1 15 31
M  V30 34 1 18 32
M  V30 35 1 18 33
M  V30 36 1 21 34 CFG=1
M  V30 37 1 22 35
M  V30 38 1 23 36 CFG=3
M  V30 39 1 24 37
M  V30 END BOND
M  V30 END CTAB
M  END
