
     RDKit          3D

  0  0  0  0  0  0  0  0  0  0999 V3000
M  V30 BEGIN CTAB
M  V30 COUNTS 25 26 0 0 0
M  V30 BEGIN ATOM
M  V30 1 F 0.690552 2.4696 -0.107167 0
M  V30 2 C 0.971393 1.15988 -0.301938 0
M  V30 3 C 0.00888469 0.323438 -0.819934 0
M  V30 4 S -1.63456 0.938842 -1.24544 0
M  V30 5 C -2.65717 0.757943 0.237243 0
M  V30 6 C -2.88834 -0.708946 0.613254 0
M  V30 7 O -4.17334 -0.341422 1.00081 0
M  V30 8 C -4.12609 0.64101 0.00597001 0
M  V30 9 C 0.278468 -1.01463 -1.0255 0
M  V30 10 C 1.52102 -1.50671 -0.707152 0
M  V30 11 C 2.48529 -0.663696 -0.187294 0
M  V30 12 C 2.2145 0.681441 0.0192092 0
M  V30 13 N 3.24429 1.49594 0.558376 0
M  V30 14 N 3.75237 -1.2397 0.119392 0
M  V30 15 H -2.34941 1.34221 1.10775 0
M  V30 16 H -2.23314 -1.09449 1.39682 0
M  V30 17 H -2.97019 -1.36041 -0.302776 0
M  V30 18 H -4.7429 1.52895 0.238248 0
M  V30 19 H -4.33269 0.162825 -0.982338 0
M  V30 20 H -0.505852 -1.64251 -1.43687 0
M  V30 21 H 1.71228 -2.56989 -0.877751 0
M  V30 22 H 3.74548 1.18368 1.41916 0
M  V30 23 H 3.50066 2.40334 0.0984553 0
M  V30 24 H 4.60894 -1.09958 -0.464261 0
M  V30 25 H 3.87956 -1.84712 0.973866 0
M  V30 END ATOM
M  V30 BEGIN BOND
M  V30 1 1 1 2
M  V30 2 2 2 3
M  V30 3 1 3 4
M  V30 4 1 4 5
M  V30 5 1 5 6
M  V30 6 1 6 7
M  V30 7 1 7 8
M  V30 8 1 3 9
M  V30 9 2 9 10
M  V30 10 1 10 11
M  V30 11 2 11 12
M  V30 12 1 12 13
M  V30 13 1 11 14
M  V30 14 1 12 2
M  V30 15 1 8 5
M  V30 16 1 5 15
M  V30 17 1 6 16
M  V30 18 1 6 17
M  V30 19 1 8 18
M  V30 20 1 8 19
M  V30 21 1 9 20
M  V30 22 1 10 21
M  V30 23 1 13 22
M  V30 24 1 13 23
M  V30 25 1 14 24
M  V30 26 1 14 25
M  V30 END BOND
M  V30 END CTAB
M  END
