
     RDKit          3D

  0  0  0  0  0  0  0  0  0  0999 V3000
M  V30 BEGIN CTAB
M  V30 COUNTS 32 34 0 0 0
M  V30 BEGIN ATOM
M  V30 1 N 4.77242 2.17088 0.320102 0
M  V30 2 C 3.74118 1.20144 0.151922 0
M  V30 3 N 2.43828 1.52945 0.119221 0
M  V30 4 C 1.48084 0.592876 -0.041159 0
M  V30 5 C 1.89625 -0.720796 -0.170802 0
M  V30 6 N 0.918012 -1.73157 -0.343371 0
M  V30 7 C -0.45515 -1.41387 0.091927 0
M  V30 8 C -0.815152 -0.0958998 -0.521846 0
M  V30 9 N 0.100418 0.907092 -0.077687 0
M  V30 10 C -2.22576 0.253482 -0.250052 0
M  V30 11 C -2.76056 1.4765 -0.622284 0
M  V30 12 C -4.07178 1.76293 -0.338714 0
M  V30 13 C -4.85666 0.838156 0.314522 0
M  V30 14 C -4.35758 -0.381651 0.696684 0
M  V30 15 C -3.02048 -0.6478 0.396271 0
M  V30 16 C 3.24652 -1.05984 -0.13677 0
M  V30 17 N 3.5768 -2.42433 -0.276836 0
M  V30 18 N 4.16765 -0.0879907 0.0257621 0
M  V30 19 H 5.38883 2.48721 -0.458104 0
M  V30 20 H 4.9029 2.57238 1.27258 0
M  V30 21 H 1.13782 -2.65806 -0.75448 0
M  V30 22 H -1.13205 -2.23784 -0.248074 0
M  V30 23 H -0.405553 -1.30661 1.19051 0
M  V30 24 H -0.70398 -0.149278 -1.6544 0
M  V30 25 H -0.17222 1.8714 0.227866 0
M  V30 26 H -2.10764 2.1555 -1.12587 0
M  V30 27 H -4.51141 2.7251 -0.625649 0
M  V30 28 H -5.89978 1.0452 0.549144 0
M  V30 29 H -4.96314 -1.12736 1.21488 0
M  V30 30 H -2.68253 -1.61516 0.7262 0
M  V30 31 H 3.13226 -2.98632 -1.0469 0
M  V30 32 H 4.24125 -2.94523 0.330292 0
M  V30 END ATOM
M  V30 BEGIN BOND
M  V30 1 1 1 2
M  V30 2 2 2 3
M  V30 3 1 3 4
M  V30 4 2 4 5
M  V30 5 1 5 6
M  V30 6 1 6 7
M  V30 7 1 7 8
M  V30 8 1 8 9
M  V30 9 1 8 10
M  V30 10 2 10 11
M  V30 11 1 11 12
M  V30 12 2 12 13
M  V30 13 1 13 14
M  V30 14 2 14 15
M  V30 15 1 5 16
M  V30 16 1 16 17
M  V30 17 2 16 18
M  V30 18 1 18 2
M  V30 19 1 9 4
M  V30 20 1 15 10
M  V30 21 1 1 19
M  V30 22 1 1 20
M  V30 23 1 6 21
M  V30 24 1 7 22
M  V30 25 1 7 23
M  V30 26 1 8 24
M  V30 27 1 9 25
M  V30 28 1 11 26
M  V30 29 1 12 27
M  V30 30 1 13 28
M  V30 31 1 14 29
M  V30 32 1 15 30
M  V30 33 1 17 31
M  V30 34 1 17 32
M  V30 END BOND
M  V30 END CTAB
M  END
