
     RDKit          3D

  0  0  0  0  0  0  0  0  0  0999 V3000
M  V30 BEGIN CTAB
M  V30 COUNTS 21 21 0 0 0
M  V30 BEGIN ATOM
M  V30 1 N 2.61191 -0.312441 -0.925788 0
M  V30 2 C 1.76014 -0.344008 0.199355 0
M  V30 3 N 2.05833 0.366104 1.22184 0
M  V30 4 N 3.19637 1.16724 1.25627 0
M  V30 5 N 0.599131 -1.14922 0.188793 0
M  V30 6 C -0.70621 -0.572994 0.00428691 0
M  V30 7 C -0.805363 0.810273 -0.165806 0
M  V30 8 C -2.03739 1.3563 -0.340186 0
M  V30 9 C -3.17951 0.571467 -0.351414 0
M  V30 10 C -3.04771 -0.795296 -0.180312 0
M  V30 11 C -1.81233 -1.37203 -0.00204959 0
M  V30 12 Cl -1.6956 -3.12463 0.212666 0
M  V30 13 Cl -4.48808 -1.7773 -0.195383 0
M  V30 14 H 3.26126 -1.08703 -1.13114 0
M  V30 15 H 2.57871 0.507835 -1.55303 0
M  V30 16 H 3.09338 2.12316 1.65747 0
M  V30 17 H 4.14292 0.896131 0.916346 0
M  V30 18 H 0.623597 -2.17959 0.311056 0
M  V30 19 H 0.120809 1.40614 -0.151974 0
M  V30 20 H -2.14683 2.44214 -0.476545 0
M  V30 21 H -4.12754 1.06773 -0.494459 0
M  V30 END ATOM
M  V30 BEGIN BOND
M  V30 1 1 1 2
M  V30 2 2 2 3 CFG=2
M  V30 3 1 3 4
M  V30 4 1 2 5
M  V30 5 1 5 6
M  V30 6 2 6 7
M  V30 7 1 7 8
M  V30 8 2 8 9
M  V30 9 1 9 10
M  V30 10 2 10 11
M  V30 11 1 11 12
M  V30 12 1 10 13
M  V30 13 1 11 6
M  V30 14 1 1 14
M  V30 15 1 1 15
M  V30 16 1 4 16
M  V30 17 1 4 17
M  V30 18 1 5 18
M  V30 19 1 7 19
M  V30 20 1 8 20
M  V30 21 1 9 21
M  V30 END BOND
M  V30 END CTAB
M  END
