
     RDKit          3D

  0  0  0  0  0  0  0  0  0  0999 V3000
M  V30 BEGIN CTAB
M  V30 COUNTS 28 29 0 0 0
M  V30 BEGIN ATOM
M  V30 1 N 4.58117 -1.43171 0.367418 0
M  V30 2 C 3.40206 -0.771732 -0.0694617 0
M  V30 3 C 3.35466 0.61617 -0.145176 0
M  V30 4 C 2.20643 1.25408 -0.570466 0
M  V30 5 N 2.16688 2.67275 -0.644596 0
M  V30 6 N 1.12374 0.53576 -0.915164 0
M  V30 7 C 1.1762 -0.806723 -0.839661 0
M  V30 8 N 2.28248 -1.4548 -0.428444 0
M  V30 9 S -0.315183 -1.69552 -1.31892 0
M  V30 10 C -1.36779 -1.91205 0.116893 0
M  V30 11 C -1.86364 -0.586979 0.580681 0
M  V30 12 N -1.29138 0.245037 1.47399 0
M  V30 13 N -2.06385 1.31017 1.59205 0
M  V30 14 C -3.13355 1.19224 0.791854 0
M  V30 15 S -4.36869 2.23962 0.583966 0
M  V30 16 N -3.00466 0.00901989 0.163819 0
M  V30 17 C -3.93215 -0.548029 -0.805102 0
M  V30 18 H 5.04021 -1.23519 1.28316 0
M  V30 19 H 5.03869 -2.15269 -0.227576 0
M  V30 20 H 4.25098 1.15202 0.142688 0
M  V30 21 H 1.32539 3.20283 -0.336159 0
M  V30 22 H 3.01022 3.15675 -1.01828 0
M  V30 23 H -2.25491 -2.52644 -0.216578 0
M  V30 24 H -0.88941 -2.48625 0.932401 0
M  V30 25 H -1.88679 2.14423 2.21739 0
M  V30 26 H -4.74347 -1.10361 -0.251245 0
M  V30 27 H -3.44734 -1.29756 -1.44639 0
M  V30 28 H -4.39631 0.2786 -1.3987 0
M  V30 END ATOM
M  V30 BEGIN BOND
M  V30 1 1 1 2
M  V30 2 2 2 3
M  V30 3 1 3 4
M  V30 4 1 4 5
M  V30 5 2 4 6
M  V30 6 1 6 7
M  V30 7 2 7 8
M  V30 8 1 7 9
M  V30 9 1 9 10
M  V30 10 1 10 11
M  V30 11 2 11 12
M  V30 12 1 12 13
M  V30 13 1 13 14
M  V30 14 2 14 15
M  V30 15 1 14 16
M  V30 16 1 16 17
M  V30 17 1 8 2
M  V30 18 1 16 11
M  V30 19 1 1 18
M  V30 20 1 1 19
M  V30 21 1 3 20
M  V30 22 1 5 21
M  V30 23 1 5 22
M  V30 24 1 10 23
M  V30 25 1 10 24
M  V30 26 1 13 25
M  V30 27 1 17 26
M  V30 28 1 17 27
M  V30 29 1 17 28
M  V30 END BOND
M  V30 END CTAB
M  END
