
     RDKit          3D

  0  0  0  0  0  0  0  0  0  0999 V3000
M  V30 BEGIN CTAB
M  V30 COUNTS 26 27 0 0 0
M  V30 BEGIN ATOM
M  V30 1 N -2.00629 2.72591 -0.450394 0
M  V30 2 N -1.99898 1.61275 0.393714 0
M  V30 3 C -1.03547 0.576399 0.319989 0
M  V30 4 N 0.277905 0.787329 0.59205 0
M  V30 5 C 1.20717 -0.188448 0.563131 0
M  V30 6 N 0.775222 -1.4242 0.245289 0
M  V30 7 C -0.518284 -1.70431 -0.0375276 0
M  V30 8 C -1.46577 -0.692091 -0.0069836 0
M  V30 9 C -2.87704 -0.993966 -0.332081 0
M  V30 10 N -0.957503 -3.00556 -0.370238 0
M  V30 11 C 2.6429 0.108583 0.848702 0
M  V30 12 C 3.27169 1.37675 0.530072 0
M  V30 13 C 3.44884 0.248169 -0.443514 0
M  V30 14 H -2.10766 2.52059 -1.44583 0
M  V30 15 H -1.23649 3.39179 -0.220075 0
M  V30 16 H -2.7877 1.60108 1.10815 0
M  V30 17 H -3.59464 -0.282791 0.115027 0
M  V30 18 H -3.17285 -2.00144 0.0815318 0
M  V30 19 H -3.03843 -1.08525 -1.44018 0
M  V30 20 H -0.656248 -3.78058 0.268273 0
M  V30 21 H -1.56065 -3.20319 -1.20933 0
M  V30 22 H 3.14783 -0.603362 1.55895 0
M  V30 23 H 2.70363 2.27105 0.174807 0
M  V30 24 H 4.19657 1.6762 1.05436 0
M  V30 25 H 2.93277 0.35291 -1.40129 0
M  V30 26 H 4.40947 -0.284335 -0.496602 0
M  V30 END ATOM
M  V30 BEGIN BOND
M  V30 1 1 1 2
M  V30 2 1 2 3
M  V30 3 2 3 4
M  V30 4 1 4 5
M  V30 5 2 5 6
M  V30 6 1 6 7
M  V30 7 2 7 8
M  V30 8 1 8 9
M  V30 9 1 7 10
M  V30 10 1 5 11
M  V30 11 1 11 12
M  V30 12 1 12 13
M  V30 13 1 8 3
M  V30 14 1 13 11
M  V30 15 1 1 14
M  V30 16 1 1 15
M  V30 17 1 2 16
M  V30 18 1 9 17
M  V30 19 1 9 18
M  V30 20 1 9 19
M  V30 21 1 10 20
M  V30 22 1 10 21
M  V30 23 1 11 22
M  V30 24 1 12 23
M  V30 25 1 12 24
M  V30 26 1 13 25
M  V30 27 1 13 26
M  V30 END BOND
M  V30 END CTAB
M  END
