
     RDKit          3D

  0  0  0  0  0  0  0  0  0  0999 V3000
M  V30 BEGIN CTAB
M  V30 COUNTS 28 30 0 0 0
M  V30 BEGIN ATOM
M  V30 1 N 2.28716 -2.3735 -0.471107 0
M  V30 2 C 2.41785 -0.976088 -0.205543 0
M  V30 3 C 1.25448 -0.249095 -0.0589455 0
M  V30 4 C -0.0465559 -0.922017 -0.178336 0
M  V30 5 O -0.117232 -2.16228 -0.414346 0
M  V30 6 C -1.27872 -0.156937 -0.0239972 0
M  V30 7 C -1.1713 1.19504 0.233066 0
M  V30 8 C -2.34059 1.91211 0.377825 0
M  V30 9 Cl -2.19673 3.63355 0.7051 0
M  V30 10 C -3.5952 1.30573 0.270812 0
M  V30 11 C -3.68185 -0.047594 0.0133521 0
M  V30 12 Cl -5.2686 -0.778689 -0.11516 0
M  V30 13 C -2.51966 -0.783401 -0.134934 0
M  V30 14 N -2.6247 -2.17783 -0.400114 0
M  V30 15 C 0.119229 1.86659 0.352265 0
M  V30 16 O 0.22129 3.09706 0.586194 0
M  V30 17 C 1.35191 1.10311 0.198227 0
M  V30 18 C 2.59873 1.71902 0.307123 0
M  V30 19 Cl 2.70326 3.43979 0.634529 0
M  V30 20 C 3.74297 0.963831 0.155279 0
M  V30 21 C 3.67882 -0.389393 -0.102314 0
M  V30 22 Cl 5.12287 -1.36676 -0.298568 0
M  V30 23 H 2.0691 -3.04487 0.321618 0
M  V30 24 H 2.39117 -2.80027 -1.40535 0
M  V30 25 H -4.48402 1.91877 0.39381 0
M  V30 26 H -2.96575 -2.81097 0.357352 0
M  V30 27 H -2.36566 -2.57875 -1.34192 0
M  V30 28 H 4.69772 1.46385 0.244073 0
M  V30 END ATOM
M  V30 BEGIN BOND
M  V30 1 1 1 2
M  V30 2 2 2 3
M  V30 3 1 3 4
M  V30 4 2 4 5
M  V30 5 1 4 6
M  V30 6 2 6 7
M  V30 7 1 7 8
M  V30 8 1 8 9
M  V30 9 2 8 10
M  V30 10 1 10 11
M  V30 11 1 11 12
M  V30 12 2 11 13
M  V30 13 1 13 14
M  V30 14 1 7 15
M  V30 15 2 15 16
M  V30 16 1 15 17
M  V30 17 2 17 18
M  V30 18 1 18 19
M  V30 19 1 18 20
M  V30 20 2 20 21
M  V30 21 1 21 22
M  V30 22 1 21 2
M  V30 23 1 17 3
M  V30 24 1 13 6
M  V30 25 1 1 23
M  V30 26 1 1 24
M  V30 27 1 10 25
M  V30 28 1 14 26
M  V30 29 1 14 27
M  V30 30 1 20 28
M  V30 END BOND
M  V30 END CTAB
M  END
