
     RDKit          3D

  0  0  0  0  0  0  0  0  0  0999 V3000
M  V30 BEGIN CTAB
M  V30 COUNTS 44 46 0 0 0
M  V30 BEGIN ATOM
M  V30 1 O 1.75389 0.354039 0.895651 0
M  V30 2 C 1.08452 -0.682532 1.02019 0
M  V30 3 N -0.203652 -0.810903 0.438693 0
M  V30 4 C -0.769958 0.220925 -0.329262 0
M  V30 5 C 0.0126933 1.05475 -1.09645 0
M  V30 6 C -0.486761 2.01963 -1.95527 0
M  V30 7 C -1.83311 2.16748 -2.06543 0
M  V30 8 C -2.66516 1.34931 -1.31463 0
M  V30 9 C -2.166 0.378033 -0.443385 0
M  V30 10 C -3.07605 -0.452144 0.304194 0
M  V30 11 O -2.70318 -1.46033 0.973401 0
M  V30 12 C -4.5167 -0.234974 0.384634 0
M  V30 13 C -5.14396 0.978644 0.445258 0
M  V30 14 C -6.50864 1.1004 0.456677 0
M  V30 15 C -7.26935 -0.0486839 0.406849 0
M  V30 16 C -6.66668 -1.29991 0.346034 0
M  V30 17 C -5.30749 -1.39836 0.33505 0
M  V30 18 C 1.68248 -1.82888 1.82153 0
M  V30 19 S 2.89522 -2.70084 0.751263 0
M  V30 20 C 4.22463 -1.5375 0.424429 0
M  V30 21 N 4.14292 -0.746175 -0.647709 0
M  V30 22 C 5.10549 0.161482 -0.935482 0
M  V30 23 N 5.04392 1.0112 -2.06399 0
M  V30 24 C 6.18303 0.255611 -0.0928354 0
M  V30 25 C 6.27834 -0.5578 1.02025 0
M  V30 26 N 5.28247 -1.43847 1.24304 0
M  V30 27 N 7.40754 -0.432137 1.88226 0
M  V30 28 H -0.670728 -1.74985 0.595503 0
M  V30 29 H 1.09168 0.932895 -1.05662 0
M  V30 30 H 0.161095 2.65439 -2.5372 0
M  V30 31 H -2.26838 2.92713 -2.74131 0
M  V30 32 H -3.73155 1.49345 -1.49999 0
M  V30 33 H -4.53171 1.87114 0.520663 0
M  V30 34 H -7.00846 2.07488 0.502756 0
M  V30 35 H -8.34629 0.0420255 0.416076 0
M  V30 36 H -7.33772 -2.17518 0.310959 0
M  V30 37 H -4.82387 -2.37438 0.288636 0
M  V30 38 H 2.17597 -1.36293 2.68515 0
M  V30 39 H 0.913662 -2.58368 2.0814 0
M  V30 40 H 5.73725 0.916906 -2.83709 0
M  V30 41 H 4.30073 1.75146 -2.14251 0
M  V30 42 H 6.99935 0.96733 -0.260711 0
M  V30 43 H 8.33788 -0.128567 1.57152 0
M  V30 44 H 7.22065 -0.678889 2.89827 0
M  V30 END ATOM
M  V30 BEGIN BOND
M  V30 1 2 1 2
M  V30 2 1 2 3
M  V30 3 1 3 4
M  V30 4 2 4 5
M  V30 5 1 5 6
M  V30 6 2 6 7
M  V30 7 1 7 8
M  V30 8 2 8 9
M  V30 9 1 9 10
M  V30 10 2 10 11
M  V30 11 1 10 12
M  V30 12 2 12 13
M  V30 13 1 13 14
M  V30 14 2 14 15
M  V30 15 1 15 16
M  V30 16 2 16 17
M  V30 17 1 2 18
M  V30 18 1 18 19
M  V30 19 1 19 20
M  V30 20 2 20 21
M  V30 21 1 21 22
M  V30 22 1 22 23
M  V30 23 2 22 24
M  V30 24 1 24 25
M  V30 25 2 25 26
M  V30 26 1 25 27
M  V30 27 1 9 4
M  V30 28 1 17 12
M  V30 29 1 26 20
M  V30 30 1 3 28
M  V30 31 1 5 29
M  V30 32 1 6 30
M  V30 33 1 7 31
M  V30 34 1 8 32
M  V30 35 1 13 33
M  V30 36 1 14 34
M  V30 37 1 15 35
M  V30 38 1 16 36
M  V30 39 1 17 37
M  V30 40 1 18 38
M  V30 41 1 18 39
M  V30 42 1 23 40
M  V30 43 1 23 41
M  V30 44 1 24 42
M  V30 45 1 27 43
M  V30 46 1 27 44
M  V30 END BOND
M  V30 END CTAB
M  END
