
     RDKit          3D

  0  0  0  0  0  0  0  0  0  0999 V3000
M  V30 BEGIN CTAB
M  V30 COUNTS 42 44 0 0 0
M  V30 BEGIN ATOM
M  V30 1 N 5.76218 1.37121 1.47735 0
M  V30 2 C 5.51243 0.20034 0.67409 0
M  V30 3 C 4.41879 -0.657858 1.28723 0
M  V30 4 C 3.41957 0.157775 0.507064 0
M  V30 5 C 4.55557 0.537009 -0.451443 0
M  V30 6 C 2.4062 -0.616819 -0.235253 0
M  V30 7 C 1.10079 -0.1694 -0.186702 0
M  V30 8 C 0.0789722 -0.807901 -0.836126 0
M  V30 9 N -1.24803 -0.314453 -0.759887 0
M  V30 10 C -1.49841 0.879357 0.0199083 0
M  V30 11 C -2.97919 1.19581 -0.0552891 0
M  V30 12 C -3.81116 0.0625409 0.495179 0
M  V30 13 N -5.21171 0.480493 0.370556 0
M  V30 14 C -6.0077 0.258747 -0.682417 0
M  V30 15 N -7.2358 0.780638 -0.459304 0
M  V30 16 C -7.23276 1.34906 0.758465 0
M  V30 17 C -5.96306 1.15243 1.26118 0
M  V30 18 N 0.40327 -1.91317 -1.53937 0
M  V30 19 C 1.67151 -2.35514 -1.59161 0
M  V30 20 N 2.66656 -1.70847 -0.941886 0
M  V30 21 N 1.92188 -3.53362 -2.3606 0
M  V30 22 H 6.56884 1.2875 2.10462 0
M  V30 23 H 5.65452 2.2616 0.981046 0
M  V30 24 H 6.40435 -0.377963 0.368614 0
M  V30 25 H 4.3837 -0.49915 2.40249 0
M  V30 26 H 4.47886 -1.72495 1.03777 0
M  V30 27 H 3.03723 1.03218 1.03802 0
M  V30 28 H 4.61767 -0.11528 -1.33983 0
M  V30 29 H 4.52263 1.61536 -0.724778 0
M  V30 30 H 0.846684 0.730392 0.387792 0
M  V30 31 H -2.0225 -0.822673 -1.26939 0
M  V30 32 H -0.951062 1.74893 -0.402917 0
M  V30 33 H -1.19745 0.717871 1.05635 0
M  V30 34 H -3.20794 2.12585 0.519216 0
M  V30 35 H -3.30451 1.38752 -1.08794 0
M  V30 36 H -3.64124 -0.872954 -0.0327902 0
M  V30 37 H -3.58759 -0.0391865 1.57332 0
M  V30 38 H -5.68577 -0.268689 -1.57622 0
M  V30 39 H -8.06909 1.86558 1.25496 0
M  V30 40 H -5.62057 1.48952 2.23108 0
M  V30 41 H 2.80188 -3.58654 -2.90222 0
M  V30 42 H 1.24145 -4.30348 -2.37031 0
M  V30 END ATOM
M  V30 BEGIN BOND
M  V30 1 1 1 2
M  V30 2 1 2 3
M  V30 3 1 3 4
M  V30 4 1 4 5
M  V30 5 1 4 6
M  V30 6 2 6 7
M  V30 7 1 7 8
M  V30 8 1 8 9
M  V30 9 1 9 10
M  V30 10 1 10 11
M  V30 11 1 11 12
M  V30 12 1 12 13
M  V30 13 1 13 14
M  V30 14 2 14 15
M  V30 15 1 15 16
M  V30 16 2 16 17
M  V30 17 2 8 18
M  V30 18 1 18 19
M  V30 19 2 19 20
M  V30 20 1 19 21
M  V30 21 1 5 2
M  V30 22 1 20 6
M  V30 23 1 17 13
M  V30 24 1 1 22
M  V30 25 1 1 23
M  V30 26 1 2 24
M  V30 27 1 3 25
M  V30 28 1 3 26
M  V30 29 1 4 27
M  V30 30 1 5 28
M  V30 31 1 5 29
M  V30 32 1 7 30
M  V30 33 1 9 31
M  V30 34 1 10 32
M  V30 35 1 10 33
M  V30 36 1 11 34
M  V30 37 1 11 35
M  V30 38 1 12 36
M  V30 39 1 12 37
M  V30 40 1 14 38
M  V30 41 1 16 39
M  V30 42 1 17 40
M  V30 43 1 21 41
M  V30 44 1 21 42
M  V30 END BOND
M  V30 END CTAB
M  END
