
     RDKit          3D

  0  0  0  0  0  0  0  0  0  0999 V3000
M  V30 BEGIN CTAB
M  V30 COUNTS 23 24 0 0 0
M  V30 BEGIN ATOM
M  V30 1 N -4.07732 -0.333049 0.0788564 0
M  V30 2 C -2.65549 -0.280782 0.0660753 0
M  V30 3 C -1.90597 -1.40452 0.349194 0
M  V30 4 C -0.512902 -1.35485 0.337053 0
M  V30 5 C 0.136192 -0.174482 0.0400425 0
M  V30 6 C -0.611857 0.948705 -0.242937 0
M  V30 7 C -2.0112 0.897037 -0.230293 0
M  V30 8 N 0.0847758 2.15087 -0.545409 0
M  V30 9 C 1.59807 -0.0812456 0.0169576 0
M  V30 10 C 2.44788 -1.13691 0.28297 0
M  V30 11 C 3.73128 -0.647603 0.160116 0
M  V30 12 C 3.60093 0.680086 -0.174192 0
M  V30 13 O 2.32968 0.951461 -0.242856 0
M  V30 14 H -4.67793 0.167958 -0.614331 0
M  V30 15 H -4.5837 -0.892048 0.805132 0
M  V30 16 H -2.39728 -2.34385 0.585557 0
M  V30 17 H 0.0912274 -2.2431 0.560836 0
M  V30 18 H -2.54713 1.82127 -0.463111 0
M  V30 19 H 0.516967 2.36976 -1.45754 0
M  V30 20 H 0.167413 2.86423 0.203429 0
M  V30 21 H 2.19957 -2.16063 0.540656 0
M  V30 22 H 4.6754 -1.19082 0.297136 0
M  V30 23 H 4.40139 1.39251 -0.353344 0
M  V30 END ATOM
M  V30 BEGIN BOND
M  V30 1 1 1 2
M  V30 2 2 2 3
M  V30 3 1 3 4
M  V30 4 2 4 5
M  V30 5 1 5 6
M  V30 6 2 6 7
M  V30 7 1 6 8
M  V30 8 1 5 9
M  V30 9 2 9 10
M  V30 10 1 10 11
M  V30 11 2 11 12
M  V30 12 1 12 13
M  V30 13 1 7 2
M  V30 14 1 13 9
M  V30 15 1 1 14
M  V30 16 1 1 15
M  V30 17 1 3 16
M  V30 18 1 4 17
M  V30 19 1 7 18
M  V30 20 1 8 19
M  V30 21 1 8 20
M  V30 22 1 10 21
M  V30 23 1 11 22
M  V30 24 1 12 23
M  V30 END BOND
M  V30 END CTAB
M  END
