
     RDKit          3D

  0  0  0  0  0  0  0  0  0  0999 V3000
M  V30 BEGIN CTAB
M  V30 COUNTS 17 17 0 0 0
M  V30 BEGIN ATOM
M  V30 1 N -2.42505 -1.01482 0.532328 0
M  V30 2 C -1.53392 -0.31707 -0.348699 0
M  V30 3 C -0.129284 -0.230714 0.0591389 0
M  V30 4 N 0.684015 -1.29662 0.248275 0
M  V30 5 C 2.00474 -1.12214 0.395204 0
M  V30 6 Cl 3.12156 -2.50039 0.20178 0
M  V30 7 C 2.58932 0.126602 0.417008 0
M  V30 8 N 1.78932 1.17216 0.244249 0
M  V30 9 C 0.47396 1.05002 0.048254 0
M  V30 10 N -0.266851 2.15971 -0.398444 0
M  V30 11 H -2.07207 -1.75583 1.05559 0
M  V30 12 H -3.36728 -1.02975 0.145012 0
M  V30 13 H -1.47056 -1.18682 -1.22718 0
M  V30 14 H -2.00611 0.447157 -0.92157 0
M  V30 15 H 3.63502 0.226711 0.694699 0
M  V30 16 H 0.259548 3.0095 -0.810443 0
M  V30 17 H -1.28638 2.26229 -0.335197 0
M  V30 END ATOM
M  V30 BEGIN BOND
M  V30 1 1 1 2
M  V30 2 1 2 3
M  V30 3 2 3 4
M  V30 4 1 4 5
M  V30 5 1 5 6
M  V30 6 2 5 7
M  V30 7 1 7 8
M  V30 8 2 8 9
M  V30 9 1 9 10
M  V30 10 1 9 3
M  V30 11 1 1 11
M  V30 12 1 1 12
M  V30 13 1 2 13
M  V30 14 1 2 14
M  V30 15 1 7 15
M  V30 16 1 10 16
M  V30 17 1 10 17
M  V30 END BOND
M  V30 END CTAB
M  END
