
     RDKit          3D

  0  0  0  0  0  0  0  0  0  0999 V3000
M  V30 BEGIN CTAB
M  V30 COUNTS 46 49 0 0 0
M  V30 BEGIN ATOM
M  V30 1 N -4.717 3.06898 1.05046 0
M  V30 2 C -3.92278 1.89097 0.715604 0
M  V30 3 C -4.39175 0.657551 1.42708 0
M  V30 4 C -4.70725 0.00892683 0.0949594 0
M  V30 5 C -4.36366 1.29585 -0.586475 0
M  V30 6 C -3.84179 -1.14227 -0.228586 0
M  V30 7 C -2.46622 -1.00174 -0.220761 0
M  V30 8 C -1.64588 -2.07617 -0.522995 0
M  V30 9 N -0.254325 -1.88138 -0.501134 0
M  V30 10 C 0.320482 -0.59611 -0.17285 0
M  V30 11 C 1.8062 -0.627653 -0.213065 0
M  V30 12 C 2.64662 -1.68076 -0.510437 0
M  V30 13 N 3.93803 -1.24287 -0.421959 0
M  V30 14 N 3.95194 0.0364198 -0.0829013 0
M  V30 15 C 2.67322 0.432107 0.0494727 0
M  V30 16 C 5.13625 0.799883 0.0942309 0
M  V30 17 C 5.67745 1.57066 -0.905192 0
M  V30 18 C 6.82547 2.31552 -0.745765 0
M  V30 19 C 7.45826 2.27996 0.484532 0
M  V30 20 C 6.94275 1.51709 1.50994 0
M  V30 21 C 5.77472 0.772383 1.3141 0
M  V30 22 N -2.19214 -3.2694 -0.827492 0
M  V30 23 C -3.5467 -3.40323 -0.833995 0
M  V30 24 N -4.35366 -2.34686 -0.53683 0
M  V30 25 N -4.09913 -4.67142 -1.15822 0
M  V30 26 H -4.4565 3.87329 0.453113 0
M  V30 27 H -5.73288 2.87485 0.958734 0
M  V30 28 H -2.84777 2.11673 0.798082 0
M  V30 29 H -3.62147 0.0756967 1.95966 0
M  V30 30 H -5.2924 0.848428 2.05548 0
M  V30 31 H -5.77085 -0.273478 0.0428171 0
M  V30 32 H -3.57011 1.22703 -1.36507 0
M  V30 33 H -5.25416 1.77787 -1.04769 0
M  V30 34 H -2.07743 -0.0244938 0.0298709 0
M  V30 35 H 0.357255 -2.70098 -0.73139 0
M  V30 36 H -0.0694156 -0.22257 0.796761 0
M  V30 37 H -0.076476 0.123175 -0.947678 0
M  V30 38 H 2.36645 -2.68927 -0.77196 0
M  V30 39 H 2.33311 1.42407 0.319904 0
M  V30 40 H 5.19507 1.6076 -1.86823 0
M  V30 41 H 7.21052 2.90625 -1.56523 0
M  V30 42 H 8.36811 2.87671 0.594433 0
M  V30 43 H 7.46047 1.51273 2.45318 0
M  V30 44 H 5.41326 0.19107 2.15194 0
M  V30 45 H -4.25768 -5.3429 -0.386531 0
M  V30 46 H -4.32619 -4.88828 -2.14746 0
M  V30 END ATOM
M  V30 BEGIN BOND
M  V30 1 1 1 2
M  V30 2 1 2 3
M  V30 3 1 3 4
M  V30 4 1 4 5
M  V30 5 1 4 6
M  V30 6 2 6 7
M  V30 7 1 7 8
M  V30 8 1 8 9
M  V30 9 1 9 10
M  V30 10 1 10 11
M  V30 11 1 11 12
M  V30 12 2 12 13
M  V30 13 1 13 14
M  V30 14 1 14 15
M  V30 15 1 14 16
M  V30 16 2 16 17
M  V30 17 1 17 18
M  V30 18 2 18 19
M  V30 19 1 19 20
M  V30 20 2 20 21
M  V30 21 2 8 22
M  V30 22 1 22 23
M  V30 23 2 23 24
M  V30 24 1 23 25
M  V30 25 1 5 2
M  V30 26 1 24 6
M  V30 27 2 15 11
M  V30 28 1 21 16
M  V30 29 1 1 26
M  V30 30 1 1 27
M  V30 31 1 2 28
M  V30 32 1 3 29
M  V30 33 1 3 30
M  V30 34 1 4 31
M  V30 35 1 5 32
M  V30 36 1 5 33
M  V30 37 1 7 34
M  V30 38 1 9 35
M  V30 39 1 10 36
M  V30 40 1 10 37
M  V30 41 1 12 38
M  V30 42 1 15 39
M  V30 43 1 17 40
M  V30 44 1 18 41
M  V30 45 1 19 42
M  V30 46 1 20 43
M  V30 47 1 21 44
M  V30 48 1 25 45
M  V30 49 1 25 46
M  V30 END BOND
M  V30 END CTAB
M  END
