
     RDKit          3D

  0  0  0  0  0  0  0  0  0  0999 V3000
M  V30 BEGIN CTAB
M  V30 COUNTS 39 40 0 0 0
M  V30 BEGIN ATOM
M  V30 1 N -3.17689 -2.21007 0.735504 0
M  V30 2 C -3.1127 -0.86409 1.21184 0
M  V30 3 C -2.3589 -0.0381292 0.159528 0
M  V30 4 C -3.16096 -0.150208 -1.11299 0
M  V30 5 C -2.73703 0.523925 -2.35892 0
M  V30 6 C -3.81921 1.16426 -1.53046 0
M  V30 7 N -1.00901 -0.534637 0.00451089 0
M  V30 8 C 0.144179 0.189793 0.324734 0
M  V30 9 O -0.0121728 1.35995 0.781185 0
M  V30 10 C 1.52685 -0.287845 0.178133 0
M  V30 11 N 1.46343 -1.6551 -0.362951 0
M  V30 12 C 2.21124 0.550077 -0.860939 0
M  V30 13 C 2.99594 1.69159 -0.280247 0
M  V30 14 C 4.08205 1.11489 0.58796 0
M  V30 15 C 3.61506 0.0761692 1.54544 0
M  V30 16 C 2.18861 -0.278037 1.51132 0
M  V30 17 H -2.73134 -2.86818 1.41129 0
M  V30 18 H -4.16921 -2.48526 0.578792 0
M  V30 19 H -4.13801 -0.451703 1.29411 0
M  V30 20 H -2.64604 -0.756086 2.20904 0
M  V30 21 H -2.31367 0.98391 0.563656 0
M  V30 22 H -3.81885 -1.04373 -1.22427 0
M  V30 23 H -3.09962 0.0934851 -3.31767 0
M  V30 24 H -1.77097 1.04181 -2.46214 0
M  V30 25 H -4.88022 1.10884 -1.87546 0
M  V30 26 H -3.52384 2.08896 -1.03577 0
M  V30 27 H -0.900839 -1.50018 -0.37273 0
M  V30 28 H 1.25435 -1.57063 -1.38771 0
M  V30 29 H 2.4356 -2.0622 -0.23165 0
M  V30 30 H 1.43665 0.894926 -1.57904 0
M  V30 31 H 2.92303 -0.0866729 -1.42312 0
M  V30 32 H 3.47089 2.22966 -1.12761 0
M  V30 33 H 2.40014 2.40732 0.282085 0
M  V30 34 H 4.84623 0.684294 -0.113274 0
M  V30 35 H 4.58678 1.97192 1.08235 0
M  V30 36 H 3.85823 0.453108 2.58411 0
M  V30 37 H 4.24513 -0.83966 1.43572 0
M  V30 38 H 1.62074 0.370864 2.23383 0
M  V30 39 H 2.07436 -1.31735 1.94181 0
M  V30 END ATOM
M  V30 BEGIN BOND
M  V30 1 1 1 2
M  V30 2 1 2 3
M  V30 3 1 3 4
M  V30 4 1 4 5
M  V30 5 1 5 6
M  V30 6 1 3 7
M  V30 7 1 7 8
M  V30 8 2 8 9
M  V30 9 1 8 10
M  V30 10 1 10 11
M  V30 11 1 10 12
M  V30 12 1 12 13
M  V30 13 1 13 14
M  V30 14 1 14 15
M  V30 15 1 15 16
M  V30 16 1 6 4
M  V30 17 1 16 10
M  V30 18 1 1 17
M  V30 19 1 1 18
M  V30 20 1 2 19
M  V30 21 1 2 20
M  V30 22 1 3 21
M  V30 23 1 4 22
M  V30 24 1 5 23
M  V30 25 1 5 24
M  V30 26 1 6 25
M  V30 27 1 6 26
M  V30 28 1 7 27
M  V30 29 1 11 28
M  V30 30 1 11 29
M  V30 31 1 12 30
M  V30 32 1 12 31
M  V30 33 1 13 32
M  V30 34 1 13 33
M  V30 35 1 14 34
M  V30 36 1 14 35
M  V30 37 1 15 36
M  V30 38 1 15 37
M  V30 39 1 16 38
M  V30 40 1 16 39
M  V30 END BOND
M  V30 END CTAB
M  END
