
     RDKit          3D

  0  0  0  0  0  0  0  0  0  0999 V3000
M  V30 BEGIN CTAB
M  V30 COUNTS 43 44 0 0 0
M  V30 BEGIN ATOM
M  V30 1 N -4.17973 2.88997 -1.83706 0
M  V30 2 S -3.90993 1.24252 -2.29749 0
M  V30 3 O -5.23495 0.609775 -2.5251 0
M  V30 4 O -3.14898 1.22687 -3.59926 0
M  V30 5 C -3.01247 0.439969 -1.03652 0
M  V30 6 C -1.63091 0.414809 -1.07459 0
M  V30 7 C -0.88033 -0.217534 -0.0790567 0
M  V30 8 N 0.552517 -0.227823 -0.147616 0
M  V30 9 C 1.33248 -1.42604 -0.208406 0
M  V30 10 C 2.72218 -1.01695 -0.73164 0
M  V30 11 N 3.24871 -0.146851 0.262601 0
M  V30 12 C 4.61784 -0.217069 0.557884 0
M  V30 13 C 5.52842 0.254474 -0.553286 0
M  V30 14 O 6.83775 0.111645 -0.0763966 0
M  V30 15 C 2.58457 1.09436 0.366793 0
M  V30 16 C 1.18555 1.07975 -0.155193 0
M  V30 17 C -1.5968 -0.807528 0.931791 0
M  V30 18 Cl -0.723771 -1.61342 2.2082 0
M  V30 19 C -2.96509 -0.802701 1.00249 0
M  V30 20 C -3.68983 -0.168797 0.00252727 0
M  V30 21 S -3.78354 -1.58641 2.33528 0
M  V30 22 N -5.49451 -1.44403 2.1964 0
M  V30 23 O -3.39283 -3.04321 2.31516 0
M  V30 24 O -3.27794 -0.966293 3.60443 0
M  V30 25 H -4.33374 2.91452 -0.80314 0
M  V30 26 H -3.33886 3.42384 -2.12228 0
M  V30 27 H -1.12588 0.886379 -1.8784 0
M  V30 28 H 1.56065 -1.82091 0.817447 0
M  V30 29 H 0.912738 -2.21465 -0.865764 0
M  V30 30 H 3.30556 -1.95413 -0.817857 0
M  V30 31 H 2.57269 -0.553477 -1.73219 0
M  V30 32 H 4.80154 0.362003 1.49658 0
M  V30 33 H 4.90877 -1.26378 0.792037 0
M  V30 34 H 5.47633 -0.458741 -1.42837 0
M  V30 35 H 5.33105 1.25965 -0.91922 0
M  V30 36 H 7.32427 0.971987 -0.0513289 0
M  V30 37 H 2.62252 1.45259 1.41681 0
M  V30 38 H 3.14425 1.86708 -0.232731 0
M  V30 39 H 0.585414 1.76131 0.516634 0
M  V30 40 H 1.12057 1.54241 -1.17702 0
M  V30 41 H -4.78967 -0.164706 0.0592667 0
M  V30 42 H -5.89065 -1.76165 3.10573 0
M  V30 43 H -5.87593 -1.9292 1.37931 0
M  V30 END ATOM
M  V30 BEGIN BOND
M  V30 1 1 1 2
M  V30 2 2 2 3
M  V30 3 2 2 4
M  V30 4 1 2 5
M  V30 5 2 5 6
M  V30 6 1 6 7
M  V30 7 1 7 8
M  V30 8 1 8 9
M  V30 9 1 9 10
M  V30 10 1 10 11
M  V30 11 1 11 12
M  V30 12 1 12 13
M  V30 13 1 13 14
M  V30 14 1 11 15
M  V30 15 1 15 16
M  V30 16 2 7 17
M  V30 17 1 17 18
M  V30 18 1 17 19
M  V30 19 2 19 20
M  V30 20 1 19 21
M  V30 21 1 21 22
M  V30 22 2 21 23
M  V30 23 2 21 24
M  V30 24 1 20 5
M  V30 25 1 16 8
M  V30 26 1 1 25
M  V30 27 1 1 26
M  V30 28 1 6 27
M  V30 29 1 9 28
M  V30 30 1 9 29
M  V30 31 1 10 30
M  V30 32 1 10 31
M  V30 33 1 12 32
M  V30 34 1 12 33
M  V30 35 1 13 34
M  V30 36 1 13 35
M  V30 37 1 14 36
M  V30 38 1 15 37
M  V30 39 1 15 38
M  V30 40 1 16 39
M  V30 41 1 16 40
M  V30 42 1 20 41
M  V30 43 1 22 42
M  V30 44 1 22 43
M  V30 END BOND
M  V30 END CTAB
M  END
