
     RDKit          3D

  0  0  0  0  0  0  0  0  0  0999 V3000
M  V30 BEGIN CTAB
M  V30 COUNTS 29 30 0 0 0
M  V30 BEGIN ATOM
M  V30 1 N -3.39452 0.71992 -1.7517 0
M  V30 2 C -2.98956 -0.333592 -0.901111 0 CFG=2
M  V30 3 C -3.31037 0.0633247 0.523306 0
M  V30 4 C -1.97412 0.444775 1.08671 0
M  V30 5 C -1.0753 -0.644758 0.491311 0 CFG=1
M  V30 6 C -1.5048 -0.622141 -0.944273 0
M  V30 7 C 0.34704 -0.184689 0.691472 0
M  V30 8 S 1.55754 -1.34045 0.0525848 0
M  V30 9 C 3.186 -0.684216 0.34934 0
M  V30 10 N 3.8976 -0.917935 1.46401 0
M  V30 11 N 5.0616 -0.27911 1.35488 0
M  V30 12 C 5.11318 0.365474 0.183809 0
M  V30 13 N 3.95197 0.110405 -0.43067 0
M  V30 14 N 3.55286 0.571865 -1.68103 0
M  V30 15 H -4.0671 1.331 -1.30611 0
M  V30 16 H -3.56373 0.521873 -2.71066 0
M  V30 17 H -3.58546 -1.27226 -1.09338 0
M  V30 18 H -3.69259 -0.798029 1.11337 0
M  V30 19 H -4.04132 0.917348 0.554108 0
M  V30 20 H -1.63673 1.39333 0.601984 0
M  V30 21 H -1.92664 0.475214 2.17675 0
M  V30 22 H -1.29743 -1.58957 0.986111 0
M  V30 23 H -1.34756 -1.59035 -1.43379 0
M  V30 24 H -0.960718 0.155627 -1.52407 0
M  V30 25 H 0.492882 0.815276 0.261587 0
M  V30 26 H 0.497291 -0.125244 1.80693 0
M  V30 27 H 5.92123 0.962125 -0.181854 0
M  V30 28 H 3.23412 1.5508 -1.77628 0
M  V30 29 H 3.55463 -0.0160189 -2.5424 0
M  V30 END ATOM
M  V30 BEGIN BOND
M  V30 1 1 1 2
M  V30 2 1 2 3
M  V30 3 1 3 4
M  V30 4 1 4 5
M  V30 5 1 5 6
M  V30 6 1 5 7
M  V30 7 1 7 8
M  V30 8 1 8 9
M  V30 9 2 9 10
M  V30 10 1 10 11
M  V30 11 2 11 12
M  V30 12 1 12 13
M  V30 13 1 13 14
M  V30 14 1 6 2
M  V30 15 1 13 9
M  V30 16 1 1 15
M  V30 17 1 1 16
M  V30 18 1 2 17 CFG=3
M  V30 19 1 3 18
M  V30 20 1 3 19
M  V30 21 1 4 20
M  V30 22 1 4 21
M  V30 23 1 5 22 CFG=1
M  V30 24 1 6 23
M  V30 25 1 6 24
M  V30 26 1 7 25
M  V30 27 1 7 26
M  V30 28 1 12 27
M  V30 29 1 14 28
M  V30 30 1 14 29
M  V30 END BOND
M  V30 END CTAB
M  END
