
     RDKit          3D

  0  0  0  0  0  0  0  0  0  0999 V3000
M  V30 BEGIN CTAB
M  V30 COUNTS 29 30 0 0 0
M  V30 BEGIN ATOM
M  V30 1 C -4.35957 0.130295 0.443557 0
M  V30 2 C -3.25149 0.650958 -0.41121 0
M  V30 3 C -1.91009 0.0885352 -0.117781 0
M  V30 4 C -1.5771 -1.34253 -0.208132 0
M  V30 5 C -1.1055 -0.504586 -1.32399 0
M  V30 6 N 0.211197 -0.00882717 -1.51485 0
M  V30 7 C 1.29445 -0.0249606 -0.608967 0
M  V30 8 C 2.52542 0.509527 -0.997448 0
M  V30 9 C 3.58633 0.50282 -0.117167 0
M  V30 10 N 4.83382 1.04888 -0.522276 0
M  V30 11 N 3.46273 -0.0143256 1.12685 0
M  V30 12 C 2.27994 -0.529554 1.50443 0
M  V30 13 N 1.27221 -0.51016 0.634412 0
M  V30 14 N 2.10334 -1.09262 2.82475 0
M  V30 15 H -4.8638 0.941492 1.04487 0
M  V30 16 H -5.17535 -0.269473 -0.220929 0
M  V30 17 H -4.09331 -0.666597 1.12807 0
M  V30 18 H -3.47505 0.473892 -1.50266 0
M  V30 19 H -3.23444 1.75587 -0.303168 0
M  V30 20 H -1.27033 0.691687 0.557052 0
M  V30 21 H -0.890792 -1.76729 0.54571 0
M  V30 22 H -2.35287 -2.10366 -0.476022 0
M  V30 23 H -1.72199 -0.552864 -2.27419 0
M  V30 24 H 0.392753 0.43534 -2.47686 0
M  V30 25 H 2.61633 0.919801 -1.99029 0
M  V30 26 H 4.87422 1.83541 -1.21375 0
M  V30 27 H 5.75539 0.707757 -0.164668 0
M  V30 28 H 2.04612 -2.134 2.96247 0
M  V30 29 H 2.02742 -0.505615 3.67219 0
M  V30 END ATOM
M  V30 BEGIN BOND
M  V30 1 1 1 2
M  V30 2 1 2 3
M  V30 3 1 3 4
M  V30 4 1 4 5
M  V30 5 1 5 6
M  V30 6 1 6 7
M  V30 7 2 7 8
M  V30 8 1 8 9
M  V30 9 1 9 10
M  V30 10 2 9 11
M  V30 11 1 11 12
M  V30 12 2 12 13
M  V30 13 1 12 14
M  V30 14 1 5 3
M  V30 15 1 13 7
M  V30 16 1 1 15
M  V30 17 1 1 16
M  V30 18 1 1 17
M  V30 19 1 2 18
M  V30 20 1 2 19
M  V30 21 1 3 20
M  V30 22 1 4 21
M  V30 23 1 4 22
M  V30 24 1 5 23
M  V30 25 1 6 24
M  V30 26 1 8 25
M  V30 27 1 10 26
M  V30 28 1 10 27
M  V30 29 1 14 28
M  V30 30 1 14 29
M  V30 END BOND
M  V30 END CTAB
M  END
