
     RDKit          3D

  0  0  0  0  0  0  0  0  0  0999 V3000
M  V30 BEGIN CTAB
M  V30 COUNTS 27 27 0 0 0
M  V30 BEGIN ATOM
M  V30 1 N 3.94644 -0.372153 0.169688 0
M  V30 2 C 2.65542 0.202766 -0.114627 0
M  V30 3 C 1.55541 -0.648009 0.522002 0
M  V30 4 N 0.313305 -0.0941303 0.222988 0
M  V30 5 C -0.100647 1.12743 0.763395 0
M  V30 6 C -1.23332 1.66904 -0.0834914 0
M  V30 7 C -2.40156 0.739852 -0.216413 0
M  V30 8 C -1.97412 -0.676637 -0.132097 0
M  V30 9 C -0.546428 -0.751191 -0.687249 0
M  V30 10 N -2.84507 -1.61184 -0.821566 0
M  V30 11 H 4.08375 -0.743801 1.10307 0
M  V30 12 H 4.72647 0.0440376 -0.327309 0
M  V30 13 H 2.66456 1.23176 0.296467 0
M  V30 14 H 2.47127 0.289745 -1.19907 0
M  V30 15 H 1.69881 -0.696943 1.61626 0
M  V30 16 H 1.6338 -1.67405 0.0655476 0
M  V30 17 H 0.706103 1.90894 0.711473 0
M  V30 18 H -0.384141 1.09585 1.84033 0
M  V30 19 H -0.792877 1.81005 -1.11902 0
M  V30 20 H -1.59062 2.65285 0.314372 0
M  V30 21 H -2.86219 0.886325 -1.24514 0
M  V30 22 H -3.19297 0.957558 0.532593 0
M  V30 23 H -1.93785 -0.998521 0.94341 0
M  V30 24 H -0.543924 -0.189202 -1.64242 0
M  V30 25 H -0.214362 -1.79557 -0.809018 0
M  V30 26 H -3.57178 -1.93809 -0.139187 0
M  V30 27 H -2.26349 -2.42608 -1.07195 0
M  V30 END ATOM
M  V30 BEGIN BOND
M  V30 1 1 1 2
M  V30 2 1 2 3
M  V30 3 1 3 4
M  V30 4 1 4 5
M  V30 5 1 5 6
M  V30 6 1 6 7
M  V30 7 1 7 8
M  V30 8 1 8 9
M  V30 9 1 8 10
M  V30 10 1 9 4
M  V30 11 1 1 11
M  V30 12 1 1 12
M  V30 13 1 2 13
M  V30 14 1 2 14
M  V30 15 1 3 15
M  V30 16 1 3 16
M  V30 17 1 5 17
M  V30 18 1 5 18
M  V30 19 1 6 19
M  V30 20 1 6 20
M  V30 21 1 7 21
M  V30 22 1 7 22
M  V30 23 1 8 23
M  V30 24 1 9 24
M  V30 25 1 9 25
M  V30 26 1 10 26
M  V30 27 1 10 27
M  V30 END BOND
M  V30 END CTAB
M  END
