
     RDKit          3D

  0  0  0  0  0  0  0  0  0  0999 V3000
M  V30 BEGIN CTAB
M  V30 COUNTS 32 34 0 0 0
M  V30 BEGIN ATOM
M  V30 1 O 4.7803 -0.937101 -0.828257 0
M  V30 2 C 3.47316 -1.39003 -0.744579 0
M  V30 3 C 2.45384 -0.342506 -1.06741 0
M  V30 4 O 1.19515 -0.90052 -0.953045 0
M  V30 5 C 0.347628 0.100985 -0.502227 0
M  V30 6 C 1.21095 0.761979 0.571423 0
M  V30 7 C 2.51523 0.859298 -0.194525 0
M  V30 8 N 3.66276 0.927212 0.660864 0
M  V30 9 N -0.86899 -0.434835 0.0424554 0
M  V30 10 C -1.04956 -1.53033 0.766702 0
M  V30 11 N -2.36684 -1.65175 1.06593 0
M  V30 12 C -3.02722 -0.632195 0.531713 0
M  V30 13 C -2.09026 0.15162 -0.122814 0
M  V30 14 N -2.51028 1.25745 -0.75223 0
M  V30 15 C -3.79934 1.63109 -0.771268 0
M  V30 16 N -4.69312 0.864114 -0.134698 0
M  V30 17 C -4.36399 -0.252463 0.516864 0
M  V30 18 N -5.32406 -1.06783 1.19527 0
M  V30 19 H 4.81327 -0.141736 -1.40399 0
M  V30 20 H 3.25561 -1.9088 0.220833 0
M  V30 21 H 3.37464 -2.18738 -1.53835 0
M  V30 22 H 2.65593 -0.00675816 -2.12022 0
M  V30 23 H 0.17022 0.846249 -1.27665 0
M  V30 24 H 0.814854 1.75842 0.851046 0
M  V30 25 H 1.30149 0.107809 1.47296 0
M  V30 26 H 2.47043 1.79969 -0.77722 0
M  V30 27 H 3.80227 0.0792578 1.24331 0
M  V30 28 H 3.48793 1.72069 1.34081 0
M  V30 29 H -0.234239 -2.19857 1.05229 0
M  V30 30 H -4.11456 2.54725 -1.29826 0
M  V30 31 H -5.40354 -0.979871 2.23851 0
M  V30 32 H -5.93966 -1.73486 0.714758 0
M  V30 END ATOM
M  V30 BEGIN BOND
M  V30 1 1 1 2
M  V30 2 1 2 3
M  V30 3 1 3 4
M  V30 4 1 4 5
M  V30 5 1 5 6
M  V30 6 1 6 7
M  V30 7 1 7 8
M  V30 8 1 5 9
M  V30 9 1 9 10
M  V30 10 2 10 11
M  V30 11 1 11 12
M  V30 12 2 12 13
M  V30 13 1 13 14
M  V30 14 2 14 15
M  V30 15 1 15 16
M  V30 16 2 16 17
M  V30 17 1 17 18
M  V30 18 1 7 3
M  V30 19 1 13 9
M  V30 20 1 17 12
M  V30 21 1 1 19
M  V30 22 1 2 20
M  V30 23 1 2 21
M  V30 24 1 3 22
M  V30 25 1 5 23
M  V30 26 1 6 24
M  V30 27 1 6 25
M  V30 28 1 7 26
M  V30 29 1 8 27
M  V30 30 1 8 28
M  V30 31 1 10 29
M  V30 32 1 15 30
M  V30 33 1 18 31
M  V30 34 1 18 32
M  V30 END BOND
M  V30 END CTAB
M  END
