
     RDKit          3D

  0  0  0  0  0  0  0  0  0  0999 V3000
M  V30 BEGIN CTAB
M  V30 COUNTS 34 35 0 0 0
M  V30 BEGIN ATOM
M  V30 1 N -3.49102 3.18324 -0.995276 0
M  V30 2 N -2.47214 2.17854 -0.944138 0
M  V30 3 C -2.82829 0.847924 -0.791046 0
M  V30 4 O -4.08995 0.606446 -0.70333 0
M  V30 5 C -1.94953 -0.28822 -0.719562 0
M  V30 6 C -2.49526 -1.57221 -0.561453 0
M  V30 7 C -1.75723 -2.71867 -0.481725 0
M  V30 8 N -2.4266 -3.98329 -0.319133 0
M  V30 9 C -0.388761 -2.62768 -0.559867 0
M  V30 10 C 0.19025 -1.38722 -0.715454 0
M  V30 11 C -0.568941 -0.218934 -0.795837 0
M  V30 12 O 0.0628005 0.98897 -0.95209 0
M  V30 13 C 1.4162 1.27214 -1.03659 0
M  V30 14 C 2.20795 0.926168 0.14865 0
M  V30 15 C 3.55153 0.656783 0.132147 0
M  V30 16 C 4.23326 0.347546 1.29478 0
M  V30 17 C 3.57626 0.303019 2.49903 0
M  V30 18 C 2.2372 0.567316 2.54388 0
M  V30 19 C 1.56962 0.873919 1.37967 0
M  V30 20 Cl 1.36432 0.517217 4.08245 0
M  V30 21 Cl 4.44598 -0.0866077 3.94897 0
M  V30 22 H -3.26483 3.87932 -1.73871 0
M  V30 23 H -3.48468 3.60574 -0.0366614 0
M  V30 24 H -1.52927 2.5752 -1.03161 0
M  V30 25 H -3.57499 -1.63121 -0.501297 0
M  V30 26 H -2.93575 -4.21097 0.564549 0
M  V30 27 H -2.37941 -4.64976 -1.11273 0
M  V30 28 H 0.215501 -3.53892 -0.497388 0
M  V30 29 H 1.26734 -1.33921 -0.786007 0
M  V30 30 H 1.59096 2.35436 -1.29595 0
M  V30 31 H 1.82626 0.660527 -1.89611 0
M  V30 32 H 4.08743 0.687862 -0.814488 0
M  V30 33 H 5.29288 0.14524 1.21286 0
M  V30 34 H 0.500909 1.07542 1.47945 0
M  V30 END ATOM
M  V30 BEGIN BOND
M  V30 1 1 1 2
M  V30 2 1 2 3
M  V30 3 2 3 4
M  V30 4 1 3 5
M  V30 5 2 5 6
M  V30 6 1 6 7
M  V30 7 1 7 8
M  V30 8 2 7 9
M  V30 9 1 9 10
M  V30 10 2 10 11
M  V30 11 1 11 12
M  V30 12 1 12 13
M  V30 13 1 13 14
M  V30 14 2 14 15
M  V30 15 1 15 16
M  V30 16 2 16 17
M  V30 17 1 17 18
M  V30 18 2 18 19
M  V30 19 1 18 20
M  V30 20 1 17 21
M  V30 21 1 11 5
M  V30 22 1 19 14
M  V30 23 1 1 22
M  V30 24 1 1 23
M  V30 25 1 2 24
M  V30 26 1 6 25
M  V30 27 1 8 26
M  V30 28 1 8 27
M  V30 29 1 9 28
M  V30 30 1 10 29
M  V30 31 1 13 30
M  V30 32 1 13 31
M  V30 33 1 15 32
M  V30 34 1 16 33
M  V30 35 1 19 34
M  V30 END BOND
M  V30 END CTAB
M  END
