
     RDKit          3D

  0  0  0  0  0  0  0  0  0  0999 V3000
M  V30 BEGIN CTAB
M  V30 COUNTS 35 36 0 0 0
M  V30 BEGIN ATOM
M  V30 1 N 4.42158 1.12337 1.43222 0
M  V30 2 C 3.62854 0.476101 0.447155 0
M  V30 3 C 4.30725 0.0621147 -0.70246 0
M  V30 4 C 3.56387 -0.568547 -1.67515 0
M  V30 5 C 2.21675 -0.769586 -1.49887 0
M  V30 6 C 1.53179 -0.356713 -0.348809 0
M  V30 7 C 2.28577 0.264888 0.600576 0
M  V30 8 C 0.0952802 -0.61363 -0.248496 0 CFG=1
M  V30 9 C -0.141961 -1.55235 0.905857 0
M  V30 10 O -1.22192 -1.17898 1.69667 0
M  V30 11 C -2.37 -1.66366 1.06843 0
M  V30 12 C -2.60167 -0.800683 -0.14886 0
M  V30 13 N -2.07067 0.494164 0.0992672 0
M  V30 14 C -0.686646 0.663428 -0.134472 0
M  V30 15 S -3.04619 1.68264 -0.647811 0
M  V30 16 O -2.43775 3.04608 -0.460904 0
M  V30 17 O -3.12622 1.41714 -2.11811 0
M  V30 18 N -4.64436 1.6472 0.00188615 0
M  V30 19 H 5.15998 0.642824 1.98838 0
M  V30 20 H 4.26137 2.13554 1.61415 0
M  V30 21 H 5.36453 0.225751 -0.828796 0
M  V30 22 H 4.06495 -0.906837 -2.59114 0
M  V30 23 H 1.66106 -1.26207 -2.26934 0
M  V30 24 H 1.80686 0.60206 1.50452 0
M  V30 25 H -0.248024 -1.13115 -1.16372 0
M  V30 26 H -0.263476 -2.60417 0.55863 0
M  V30 27 H 0.75507 -1.57314 1.59048 0
M  V30 28 H -2.11283 -2.68517 0.700333 0
M  V30 29 H -3.24159 -1.67121 1.75714 0
M  V30 30 H -2.28162 -1.27338 -1.08924 0
M  V30 31 H -3.72262 -0.693898 -0.236857 0
M  V30 32 H -0.557359 1.20699 -1.10438 0
M  V30 33 H -0.256015 1.35196 0.635956 0
M  V30 34 H -4.74025 2.2824 0.826635 0
M  V30 35 H -5.35347 1.98051 -0.703335 0
M  V30 END ATOM
M  V30 BEGIN BOND
M  V30 1 1 1 2
M  V30 2 2 2 3
M  V30 3 1 3 4
M  V30 4 2 4 5
M  V30 5 1 5 6
M  V30 6 2 6 7
M  V30 7 1 6 8
M  V30 8 1 8 9
M  V30 9 1 9 10
M  V30 10 1 10 11
M  V30 11 1 11 12
M  V30 12 1 12 13
M  V30 13 1 13 14
M  V30 14 1 13 15
M  V30 15 2 15 16
M  V30 16 2 15 17
M  V30 17 1 15 18
M  V30 18 1 7 2
M  V30 19 1 14 8
M  V30 20 1 1 19
M  V30 21 1 1 20
M  V30 22 1 3 21
M  V30 23 1 4 22
M  V30 24 1 5 23
M  V30 25 1 7 24
M  V30 26 1 8 25 CFG=3
M  V30 27 1 9 26
M  V30 28 1 9 27
M  V30 29 1 11 28
M  V30 30 1 11 29
M  V30 31 1 12 30
M  V30 32 1 12 31
M  V30 33 1 14 32
M  V30 34 1 14 33
M  V30 35 1 18 34
M  V30 36 1 18 35
M  V30 END BOND
M  V30 END CTAB
M  END
