
     RDKit          3D

  0  0  0  0  0  0  0  0  0  0999 V3000
M  V30 BEGIN CTAB
M  V30 COUNTS 32 33 0 0 0
M  V30 BEGIN ATOM
M  V30 1 N 0.538409 2.62296 -2.68574 0
M  V30 2 C 0.860537 1.93972 -1.80335 0
M  V30 3 C 1.29053 1.08065 -0.704273 0
M  V30 4 C 2.19221 1.62295 0.0946296 0
M  V30 5 N 2.71166 2.93856 -0.089035 0
M  V30 6 S 2.76618 0.644139 1.44546 0
M  V30 7 C 2.44599 -1.07622 1.00093 0
M  V30 8 C 1.5113 -1.27453 0.0921282 0
M  V30 9 C 0.710331 -0.251448 -0.59045 0
M  V30 10 C -0.719556 -0.312808 -0.174298 0
M  V30 11 C -1.63982 0.412515 -1.14042 0
M  V30 12 C -3.06857 -0.0304252 -0.886676 0
M  V30 13 C -3.30987 -0.513738 0.50858 0
M  V30 14 C -2.35302 0.0649776 1.4932 0
M  V30 15 C -1.04584 0.172669 1.16425 0
M  V30 16 C 1.28468 -2.68177 -0.238118 0
M  V30 17 N 1.09052 -3.78957 -0.513239 0
M  V30 18 N 3.16325 -2.13364 1.60083 0
M  V30 19 H 2.33749 3.72467 0.477302 0
M  V30 20 H 3.45659 3.11972 -0.77939 0
M  V30 21 H 0.677442 -0.628985 -1.67158 0
M  V30 22 H -1.01395 -1.40197 -0.23549 0
M  V30 23 H -1.41713 0.233581 -2.18999 0
M  V30 24 H -1.63842 1.51076 -0.880599 0
M  V30 25 H -3.77888 0.827513 -1.06762 0
M  V30 26 H -3.35305 -0.825925 -1.61884 0
M  V30 27 H -3.1875 -1.63339 0.498168 0
M  V30 28 H -4.34246 -0.335846 0.860064 0
M  V30 29 H -2.68646 0.403667 2.47469 0
M  V30 30 H -0.379429 0.596647 1.90065 0
M  V30 31 H 2.79462 -3.09267 1.66434 0
M  V30 32 H 4.10221 -1.93278 1.99389 0
M  V30 END ATOM
M  V30 BEGIN BOND
M  V30 1 3 1 2
M  V30 2 1 2 3
M  V30 3 2 3 4
M  V30 4 1 4 5
M  V30 5 1 4 6
M  V30 6 1 6 7
M  V30 7 2 7 8
M  V30 8 1 8 9
M  V30 9 1 9 10
M  V30 10 1 10 11
M  V30 11 1 11 12
M  V30 12 1 12 13
M  V30 13 1 13 14
M  V30 14 2 14 15
M  V30 15 1 8 16
M  V30 16 3 16 17
M  V30 17 1 7 18
M  V30 18 1 9 3
M  V30 19 1 15 10
M  V30 20 1 5 19
M  V30 21 1 5 20
M  V30 22 1 9 21
M  V30 23 1 10 22
M  V30 24 1 11 23
M  V30 25 1 11 24
M  V30 26 1 12 25
M  V30 27 1 12 26
M  V30 28 1 13 27
M  V30 29 1 13 28
M  V30 30 1 14 29
M  V30 31 1 15 30
M  V30 32 1 18 31
M  V30 33 1 18 32
M  V30 END BOND
M  V30 END CTAB
M  END
