
     RDKit          3D

  0  0  0  0  0  0  0  0  0  0999 V3000
M  V30 BEGIN CTAB
M  V30 COUNTS 39 40 0 0 0
M  V30 BEGIN ATOM
M  V30 1 N -1.59451 2.3126 0.630049 0
M  V30 2 C -2.64353 1.37354 0.841412 0
M  V30 3 C -2.39891 0.106852 0.0747793 0
M  V30 4 C -3.48263 -0.913428 0.262995 0
M  V30 5 C -4.19931 -1.0593 -1.05655 0
M  V30 6 C -3.81645 0.206347 -1.79369 0
M  V30 7 C -2.36811 0.414647 -1.40615 0
M  V30 8 C -1.10759 -0.486263 0.532046 0
M  V30 9 O -1.21325 -1.48325 1.2787 0
M  V30 10 N 0.138331 0.0129354 0.172496 0
M  V30 11 C 1.38394 -0.473602 0.569941 0
M  V30 12 C 1.61588 -1.29031 1.641 0
M  V30 13 C 2.89639 -1.73411 1.92929 0
M  V30 14 C 3.93954 -1.35294 1.13776 0
M  V30 15 C 3.77085 -0.527237 0.0394922 0
M  V30 16 C 2.49986 -0.102532 -0.225459 0
M  V30 17 S 5.15273 -0.0818645 -0.925973 0
M  V30 18 O 6.11981 -1.22886 -0.896519 0
M  V30 19 O 4.71905 0.150381 -2.36027 0
M  V30 20 N 5.90743 1.35589 -0.371968 0
M  V30 21 H -1.18852 2.69731 1.51295 0
M  V30 22 H -1.81194 3.04858 -0.0702502 0
M  V30 23 H -3.65686 1.78748 0.6503 0
M  V30 24 H -2.63171 1.08593 1.92318 0
M  V30 25 H -3.0683 -1.92048 0.539139 0
M  V30 26 H -4.19269 -0.611644 1.08574 0
M  V30 27 H -3.8462 -1.93679 -1.6341 0
M  V30 28 H -5.27611 -1.16709 -0.910257 0
M  V30 29 H -4.41794 1.03292 -1.33851 0
M  V30 30 H -3.93527 0.138091 -2.87534 0
M  V30 31 H -2.06198 1.47554 -1.57637 0
M  V30 32 H -1.69825 -0.253446 -1.97168 0
M  V30 33 H 0.12949 0.855847 -0.485346 0
M  V30 34 H 0.801066 -1.58199 2.2778 0
M  V30 35 H 3.01732 -2.37901 2.78984 0
M  V30 36 H 4.94767 -1.69278 1.35153 0
M  V30 37 H 2.36927 0.545372 -1.08794 0
M  V30 38 H 5.49395 2.17905 -0.895438 0
M  V30 39 H 5.70745 1.49763 0.641357 0
M  V30 END ATOM
M  V30 BEGIN BOND
M  V30 1 1 1 2
M  V30 2 1 2 3
M  V30 3 1 3 4
M  V30 4 1 4 5
M  V30 5 1 5 6
M  V30 6 1 6 7
M  V30 7 1 3 8
M  V30 8 2 8 9
M  V30 9 1 8 10
M  V30 10 1 10 11
M  V30 11 2 11 12
M  V30 12 1 12 13
M  V30 13 2 13 14
M  V30 14 1 14 15
M  V30 15 2 15 16
M  V30 16 1 15 17
M  V30 17 2 17 18
M  V30 18 2 17 19
M  V30 19 1 17 20
M  V30 20 1 7 3
M  V30 21 1 16 11
M  V30 22 1 1 21
M  V30 23 1 1 22
M  V30 24 1 2 23
M  V30 25 1 2 24
M  V30 26 1 4 25
M  V30 27 1 4 26
M  V30 28 1 5 27
M  V30 29 1 5 28
M  V30 30 1 6 29
M  V30 31 1 6 30
M  V30 32 1 7 31
M  V30 33 1 7 32
M  V30 34 1 10 33
M  V30 35 1 12 34
M  V30 36 1 13 35
M  V30 37 1 14 36
M  V30 38 1 16 37
M  V30 39 1 20 38
M  V30 40 1 20 39
M  V30 END BOND
M  V30 END CTAB
M  END
