
     RDKit          3D

  0  0  0  0  0  0  0  0  0  0999 V3000
M  V30 BEGIN CTAB
M  V30 COUNTS 38 40 0 0 0
M  V30 BEGIN ATOM
M  V30 1 C 0.993119 1.75457 0.989888 0
M  V30 2 C 1.28237 0.485016 0.334159 0
M  V30 3 C 0.288747 -0.378143 -0.122418 0
M  V30 4 N -1.07516 -0.0328527 0.0417425 0
M  V30 5 C -2.08238 -0.99311 -0.465828 0
M  V30 6 C -3.44564 -0.497056 -0.223638 0
M  V30 7 C -4.15693 -0.775956 0.932638 0
M  V30 8 C -5.42372 -0.286073 1.10226 0
M  V30 9 C -6.05347 0.493131 0.160576 0
M  V30 10 Cl -7.67715 1.08292 0.450954 0
M  V30 11 C -5.3536 0.774464 -0.990374 0
M  V30 12 Cl -6.16407 1.77089 -2.19002 0
M  V30 13 C -4.07617 0.291087 -1.18175 0
M  V30 14 C 0.63243 -1.57486 -0.736927 0
M  V30 15 C 1.92865 -1.95552 -0.919616 0
M  V30 16 C 2.92812 -1.11811 -0.476315 0
M  V30 17 C 2.6228 0.106488 0.152942 0
M  V30 18 C 3.66413 0.888302 0.567915 0
M  V30 19 N 3.4611 2.13944 1.20857 0
M  V30 20 N 4.96409 0.488143 0.375387 0
M  V30 21 C 5.22356 -0.670038 -0.219936 0
M  V30 22 N 6.60196 -1.05372 -0.40306 0
M  V30 23 N 4.22051 -1.44366 -0.630413 0
M  V30 24 H 1.17886 2.67764 0.417901 0
M  V30 25 H 1.14645 1.79884 2.08622 0
M  V30 26 H -0.153042 1.81436 1.00187 0
M  V30 27 H -1.48944 0.797211 0.466981 0
M  V30 28 H -1.90901 -1.03098 -1.56079 0
M  V30 29 H -1.90677 -1.98494 0.00177742 0
M  V30 30 H -3.66098 -1.39145 1.67777 0
M  V30 31 H -5.96222 -0.512324 2.00656 0
M  V30 32 H -3.557 0.538612 -2.10991 0
M  V30 33 H -0.18462 -2.21827 -1.07811 0
M  V30 34 H 2.20151 -2.89287 -1.40086 0
M  V30 35 H 3.4359 2.9948 0.591357 0
M  V30 36 H 3.35651 2.29891 2.22204 0
M  V30 37 H 7.00704 -1.11502 -1.35082 0
M  V30 38 H 7.19351 -1.26988 0.41331 0
M  V30 END ATOM
M  V30 BEGIN BOND
M  V30 1 1 1 2
M  V30 2 2 2 3
M  V30 3 1 3 4
M  V30 4 1 4 5
M  V30 5 1 5 6
M  V30 6 2 6 7
M  V30 7 1 7 8
M  V30 8 2 8 9
M  V30 9 1 9 10
M  V30 10 1 9 11
M  V30 11 1 11 12
M  V30 12 2 11 13
M  V30 13 1 3 14
M  V30 14 2 14 15
M  V30 15 1 15 16
M  V30 16 2 16 17
M  V30 17 1 17 18
M  V30 18 1 18 19
M  V30 19 2 18 20
M  V30 20 1 20 21
M  V30 21 1 21 22
M  V30 22 2 21 23
M  V30 23 1 17 2
M  V30 24 1 13 6
M  V30 25 1 23 16
M  V30 26 1 1 24
M  V30 27 1 1 25
M  V30 28 1 1 26
M  V30 29 1 4 27
M  V30 30 1 5 28
M  V30 31 1 5 29
M  V30 32 1 7 30
M  V30 33 1 8 31
M  V30 34 1 13 32
M  V30 35 1 14 33
M  V30 36 1 15 34
M  V30 37 1 19 35
M  V30 38 1 19 36
M  V30 39 1 22 37
M  V30 40 1 22 38
M  V30 END BOND
M  V30 END CTAB
M  END
