
     RDKit          3D

  0  0  0  0  0  0  0  0  0  0999 V3000
M  V30 BEGIN CTAB
M  V30 COUNTS 32 33 0 0 0
M  V30 BEGIN ATOM
M  V30 1 C -0.97864 0.0349006 2.11501 0
M  V30 2 C -1.43717 -0.136656 0.675749 0
M  V30 3 C -1.69446 -1.62799 0.500652 0
M  V30 4 N -2.67088 0.521268 0.416996 0
M  V30 5 C -2.91699 1.41134 -0.470124 0
M  V30 6 N -4.25584 1.94928 -0.557129 0
M  V30 7 N -1.8899 1.85026 -1.34076 0
M  V30 8 C -0.721964 1.31622 -1.19324 0
M  V30 9 N 0.370819 1.71082 -2.03989 0
M  V30 10 N -0.417767 0.331905 -0.223796 0
M  V30 11 C 0.92449 -0.19534 -0.148126 0
M  V30 12 C 1.3103 -1.29975 -0.874622 0
M  V30 13 C 2.61641 -1.76461 -0.763172 0
M  V30 14 C 3.49342 -1.11714 0.0652151 0
M  V30 15 O 4.80219 -1.6134 0.152989 0
M  V30 16 C 3.13688 -0.00940188 0.805006 0
M  V30 17 C 1.82011 0.442906 0.679803 0
M  V30 18 H -1.804 -0.224197 2.78003 0
M  V30 19 H -0.151845 -0.689817 2.26764 0
M  V30 20 H -0.652152 1.05892 2.33035 0
M  V30 21 H -2.3556 -2.0211 1.2796 0
M  V30 22 H -0.745706 -2.21801 0.570936 0
M  V30 23 H -2.16305 -1.81135 -0.487825 0
M  V30 24 H -4.45692 2.8685 -1.00674 0
M  V30 25 H -5.03865 1.41749 -0.167351 0
M  V30 26 H 0.711181 2.67874 -2.08055 0
M  V30 27 H 0.817387 0.981663 -2.62092 0
M  V30 28 H 0.591529 -1.78383 -1.51697 0
M  V30 29 H 2.88386 -2.629 -1.34437 0
M  V30 30 H 5.45564 -1.21688 -0.517847 0
M  V30 31 H 3.83818 0.471136 1.43821 0
M  V30 32 H 1.57913 1.31313 1.27525 0
M  V30 END ATOM
M  V30 BEGIN BOND
M  V30 1 1 1 2
M  V30 2 1 2 3
M  V30 3 1 2 4
M  V30 4 2 4 5
M  V30 5 1 5 6
M  V30 6 1 5 7
M  V30 7 2 7 8
M  V30 8 1 8 9
M  V30 9 1 8 10
M  V30 10 1 10 11
M  V30 11 2 11 12
M  V30 12 1 12 13
M  V30 13 2 13 14
M  V30 14 1 14 15
M  V30 15 1 14 16
M  V30 16 2 16 17
M  V30 17 1 10 2
M  V30 18 1 17 11
M  V30 19 1 1 18
M  V30 20 1 1 19
M  V30 21 1 1 20
M  V30 22 1 3 21
M  V30 23 1 3 22
M  V30 24 1 3 23
M  V30 25 1 6 24
M  V30 26 1 6 25
M  V30 27 1 9 26
M  V30 28 1 9 27
M  V30 29 1 12 28
M  V30 30 1 13 29
M  V30 31 1 15 30
M  V30 32 1 16 31
M  V30 33 1 17 32
M  V30 END BOND
M  V30 END CTAB
M  END
