
     RDKit          3D

  0  0  0  0  0  0  0  0  0  0999 V3000
M  V30 BEGIN CTAB
M  V30 COUNTS 28 29 0 0 0
M  V30 BEGIN ATOM
M  V30 1 N 4.47964 -0.312971 -0.903927 0
M  V30 2 C 3.78946 0.109396 0.301074 0
M  V30 3 C 2.32807 0.0172374 0.128547 0
M  V30 4 C 1.70499 -0.412297 -1.02254 0
M  V30 5 C 0.302053 -0.464915 -1.08914 0
M  V30 6 C -0.466862 -0.096497 -0.0287319 0
M  V30 7 N 0.219687 0.318542 1.07876 0
M  V30 8 C 1.5291 0.387247 1.19502 0
M  V30 9 F 2.08448 0.811159 2.33436 0
M  V30 10 C -1.91639 -0.111113 0.0122567 0
M  V30 11 C -2.83995 -0.474312 -0.938678 0
M  V30 12 N -2.55316 -0.945938 -2.25681 0
M  V30 13 C -4.10962 -0.304044 -0.397386 0
M  V30 14 N -3.92452 0.148371 0.841272 0
M  V30 15 N -2.63774 0.269716 1.10411 0
M  V30 16 C -2.11211 0.738033 2.3676 0
M  V30 17 H 4.33591 0.412418 -1.64219 0
M  V30 18 H 5.49354 -0.422318 -0.726696 0
M  V30 19 H 4.03993 1.13297 0.609088 0
M  V30 20 H 4.0826 -0.637224 1.09531 0
M  V30 21 H 2.32347 -0.701265 -1.85511 0
M  V30 22 H -0.14964 -0.803183 -1.99785 0
M  V30 23 H -2.51948 -1.97591 -2.3908 0
M  V30 24 H -2.37803 -0.340679 -3.0808 0
M  V30 25 H -5.01102 -0.523519 -0.952769 0
M  V30 26 H -1.58222 1.70863 2.24698 0
M  V30 27 H -1.53631 -0.0299377 2.9045 0
M  V30 28 H -2.97589 0.971143 3.06456 0
M  V30 END ATOM
M  V30 BEGIN BOND
M  V30 1 1 1 2
M  V30 2 1 2 3
M  V30 3 2 3 4
M  V30 4 1 4 5
M  V30 5 2 5 6
M  V30 6 1 6 7
M  V30 7 2 7 8
M  V30 8 1 8 9
M  V30 9 1 6 10
M  V30 10 2 10 11
M  V30 11 1 11 12
M  V30 12 1 11 13
M  V30 13 2 13 14
M  V30 14 1 14 15
M  V30 15 1 15 16
M  V30 16 1 8 3
M  V30 17 1 15 10
M  V30 18 1 1 17
M  V30 19 1 1 18
M  V30 20 1 2 19
M  V30 21 1 2 20
M  V30 22 1 4 21
M  V30 23 1 5 22
M  V30 24 1 12 23
M  V30 25 1 12 24
M  V30 26 1 13 25
M  V30 27 1 16 26
M  V30 28 1 16 27
M  V30 29 1 16 28
M  V30 END BOND
M  V30 END CTAB
M  END
