
     RDKit          3D

  0  0  0  0  0  0  0  0  0  0999 V3000
M  V30 BEGIN CTAB
M  V30 COUNTS 29 29 0 0 0
M  V30 BEGIN ATOM
M  V30 1 N 4.149 0.193768 1.03521 0
M  V30 2 C 3.87308 0.0866884 -0.369544 0
M  V30 3 C 2.55217 0.70472 -0.69258 0
M  V30 4 N 1.4523 0.0882145 -0.000864364 0
M  V30 5 C 0.13936 0.565933 -0.205956 0
M  V30 6 O -0.0299492 1.52826 -0.997437 0
M  V30 7 C -1.04474 -0.0268105 0.478507 0
M  V30 8 C -1.1612 -1.4908 0.107043 0
M  V30 9 C -2.16791 -1.46403 -1.02496 0
M  V30 10 C -3.16625 -0.453786 -0.52901 0
M  V30 11 C -2.28711 0.648945 -0.00684281 0
M  V30 12 N -2.94058 1.42822 1.02508 0
M  V30 13 H 4.67017 -0.611581 1.42595 0
M  V30 14 H 4.45544 1.119 1.34884 0
M  V30 15 H 4.64971 0.505749 -1.01636 0
M  V30 16 H 3.7878 -1.00919 -0.598113 0
M  V30 17 H 2.6165 1.8063 -0.482549 0
M  V30 18 H 2.33415 0.631011 -1.78079 0
M  V30 19 H 1.65478 -0.705399 0.642252 0
M  V30 20 H -0.992277 0.06732 1.57393 0
M  V30 21 H -1.63269 -2.03365 0.949219 0
M  V30 22 H -0.222262 -1.92864 -0.237154 0
M  V30 23 H -1.69183 -1.19823 -1.97026 0
M  V30 24 H -2.61406 -2.47234 -1.14678 0
M  V30 25 H -3.84402 -0.10462 -1.33115 0
M  V30 26 H -3.70281 -0.900775 0.322646 0
M  V30 27 H -2.07415 1.37119 -0.844856 0
M  V30 28 H -3.96297 1.20645 0.972506 0
M  V30 29 H -2.79965 2.44809 0.917428 0
M  V30 END ATOM
M  V30 BEGIN BOND
M  V30 1 1 1 2
M  V30 2 1 2 3
M  V30 3 1 3 4
M  V30 4 1 4 5
M  V30 5 2 5 6
M  V30 6 1 5 7
M  V30 7 1 7 8
M  V30 8 1 8 9
M  V30 9 1 9 10
M  V30 10 1 10 11
M  V30 11 1 11 12
M  V30 12 1 11 7
M  V30 13 1 1 13
M  V30 14 1 1 14
M  V30 15 1 2 15
M  V30 16 1 2 16
M  V30 17 1 3 17
M  V30 18 1 3 18
M  V30 19 1 4 19
M  V30 20 1 7 20
M  V30 21 1 8 21
M  V30 22 1 8 22
M  V30 23 1 9 23
M  V30 24 1 9 24
M  V30 25 1 10 25
M  V30 26 1 10 26
M  V30 27 1 11 27
M  V30 28 1 12 28
M  V30 29 1 12 29
M  V30 END BOND
M  V30 END CTAB
M  END
