
     RDKit          3D

  0  0  0  0  0  0  0  0  0  0999 V3000
M  V30 BEGIN CTAB
M  V30 COUNTS 21 21 0 0 0
M  V30 BEGIN ATOM
M  V30 1 N 3.38472 0.0631864 -0.282616 0
M  V30 2 C 2.019 0.117997 0.059839 0
M  V30 3 N 1.53703 1.158 0.661748 0
M  V30 4 O 2.40861 2.17383 0.938205 0
M  V30 5 C 1.17623 -1.05576 -0.298392 0
M  V30 6 C -0.221454 -0.925028 0.102824 0
M  V30 7 N -0.79858 -1.53748 1.14749 0
M  V30 8 N -2.07979 -1.18827 1.21203 0
M  V30 9 C -2.36314 -0.339482 0.207863 0
M  V30 10 C -1.19264 -0.165715 -0.501292 0
M  V30 11 C -1.08489 0.677333 -1.65993 0
M  V30 12 N -0.988135 1.36093 -2.57111 0
M  V30 13 N -3.62956 0.229838 -0.0237419 0
M  V30 14 H 3.67773 0.0839474 -1.27011 0
M  V30 15 H 4.09586 0.00155124 0.462065 0
M  V30 16 H 2.15198 3.07326 1.32749 0
M  V30 17 H 1.66454 -1.93756 0.198612 0
M  V30 18 H 1.23551 -1.13908 -1.41506 0
M  V30 19 H -2.72227 -1.55604 1.961 0
M  V30 20 H -4.13582 0.112561 -0.949169 0
M  V30 21 H -4.13493 0.792 0.692251 0
M  V30 END ATOM
M  V30 BEGIN BOND
M  V30 1 1 1 2
M  V30 2 2 2 3
M  V30 3 1 3 4
M  V30 4 1 2 5
M  V30 5 1 5 6
M  V30 6 2 6 7
M  V30 7 1 7 8
M  V30 8 1 8 9
M  V30 9 2 9 10
M  V30 10 1 10 11
M  V30 11 3 11 12
M  V30 12 1 9 13
M  V30 13 1 10 6
M  V30 14 1 1 14
M  V30 15 1 1 15
M  V30 16 1 4 16
M  V30 17 1 5 17
M  V30 18 1 5 18
M  V30 19 1 8 19
M  V30 20 1 13 20
M  V30 21 1 13 21
M  V30 END BOND
M  V30 END CTAB
M  END
