
     RDKit          3D

  0  0  0  0  0  0  0  0  0  0999 V3000
M  V30 BEGIN CTAB
M  V30 COUNTS 52 53 0 0 0
M  V30 BEGIN ATOM
M  V30 1 N -4.55916 1.15757 0.826011 0
M  V30 2 C -3.18011 1.30787 0.411387 0
M  V30 3 C -2.95146 0.505191 -0.811561 0
M  V30 4 C -2.14898 -0.771242 -0.565659 0
M  V30 5 C -2.05765 -1.3697 -1.96048 0
M  V30 6 C -2.86674 -1.75736 0.29726 0
M  V30 7 N -0.810825 -0.416357 -0.0236798 0
M  V30 8 C -0.804196 0.728877 0.828529 0
M  V30 9 C -2.2082 0.949748 1.47421 0
M  V30 10 C -0.530533 2.05254 0.16699 0
M  V30 11 C 0.0450477 0.535193 2.09775 0
M  V30 12 C 0.286827 -1.2753 -0.239416 0
M  V30 13 S -0.190091 -2.87206 -0.711907 0
M  V30 14 N 1.6438 -1.24764 0.0121437 0
M  V30 15 C 2.5397 -0.10751 -0.135752 0
M  V30 16 C 3.48094 0.224182 0.814809 0
M  V30 17 C 4.3762 1.25762 0.649511 0
M  V30 18 C 4.34887 2.00964 -0.512516 0
M  V30 19 C 3.42636 1.70247 -1.47097 0
M  V30 20 C 2.54342 0.663773 -1.27908 0
M  V30 21 N 3.42454 2.49389 -2.65446 0
M  V30 22 C 2.41269 -2.43629 0.239476 0
M  V30 23 O 3.69818 -2.33388 0.0644819 0
M  V30 24 C 1.95494 -3.75541 0.651233 0
M  V30 25 H -5.18217 0.823626 0.0789812 0
M  V30 26 H -4.68041 0.707775 1.74106 0
M  V30 27 H -3.06553 2.38047 0.15213 0
M  V30 28 H -2.49515 1.02589 -1.66041 0
M  V30 29 H -3.93806 0.11991 -1.21832 0
M  V30 30 H -2.85863 -0.847073 -2.57903 0
M  V30 31 H -2.40145 -2.42731 -2.00431 0
M  V30 32 H -1.13241 -1.13949 -2.47852 0
M  V30 33 H -3.80673 -1.33913 0.713321 0
M  V30 34 H -3.1633 -2.6834 -0.251318 0
M  V30 35 H -2.27329 -2.10338 1.16593 0
M  V30 36 H -2.47537 0.132782 2.13665 0
M  V30 37 H -2.04889 1.84439 2.11421 0
M  V30 38 H -0.466387 1.99413 -0.932309 0
M  V30 39 H -1.15021 2.8919 0.537729 0
M  V30 40 H 0.526448 2.3286 0.488098 0
M  V30 41 H 0.871799 1.27157 2.12269 0
M  V30 42 H -0.585289 0.664918 2.97418 0
M  V30 43 H 0.393663 -0.504781 2.10526 0
M  V30 44 H 3.5491 -0.327974 1.73943 0
M  V30 45 H 5.10921 1.50472 1.40452 0
M  V30 46 H 5.05674 2.81497 -0.624728 0
M  V30 47 H 1.82303 0.462606 -2.08386 0
M  V30 48 H 2.74091 3.26703 -2.73894 0
M  V30 49 H 4.08605 2.32834 -3.44289 0
M  V30 50 H 2.79301 -4.17079 1.32965 0
M  V30 51 H 1.81811 -4.46296 -0.172939 0
M  V30 52 H 1.08161 -3.80317 1.31297 0
M  V30 END ATOM
M  V30 BEGIN BOND
M  V30 1 1 1 2
M  V30 2 1 2 3
M  V30 3 1 3 4
M  V30 4 1 4 5
M  V30 5 1 4 6
M  V30 6 1 4 7
M  V30 7 1 7 8
M  V30 8 1 8 9
M  V30 9 1 8 10
M  V30 10 1 8 11
M  V30 11 1 7 12
M  V30 12 2 12 13
M  V30 13 1 12 14
M  V30 14 1 14 15
M  V30 15 2 15 16
M  V30 16 1 16 17
M  V30 17 2 17 18
M  V30 18 1 18 19
M  V30 19 2 19 20
M  V30 20 1 19 21
M  V30 21 1 14 22
M  V30 22 2 22 23
M  V30 23 1 22 24
M  V30 24 1 9 2
M  V30 25 1 20 15
M  V30 26 1 1 25
M  V30 27 1 1 26
M  V30 28 1 2 27
M  V30 29 1 3 28
M  V30 30 1 3 29
M  V30 31 1 5 30
M  V30 32 1 5 31
M  V30 33 1 5 32
M  V30 34 1 6 33
M  V30 35 1 6 34
M  V30 36 1 6 35
M  V30 37 1 9 36
M  V30 38 1 9 37
M  V30 39 1 10 38
M  V30 40 1 10 39
M  V30 41 1 10 40
M  V30 42 1 11 41
M  V30 43 1 11 42
M  V30 44 1 11 43
M  V30 45 1 16 44
M  V30 46 1 17 45
M  V30 47 1 18 46
M  V30 48 1 20 47
M  V30 49 1 21 48
M  V30 50 1 21 49
M  V30 51 1 24 50
M  V30 52 1 24 51
M  V30 53 1 24 52
M  V30 END BOND
M  V30 END CTAB
M  END
