
     RDKit          3D

  0  0  0  0  0  0  0  0  0  0999 V3000
M  V30 BEGIN CTAB
M  V30 COUNTS 30 31 0 0 0
M  V30 BEGIN ATOM
M  V30 1 N 2.96014 1.33381 1.03474 0
M  V30 2 N 2.63276 0.199372 0.277378 0
M  V30 3 C 1.44874 -0.105368 -0.280553 0
M  V30 4 N 1.59351 -1.27469 -0.90523 0
M  V30 5 N 2.85181 -1.68293 -0.73271 0
M  V30 6 C 3.49247 -0.770944 -0.00179363 0
M  V30 7 N 4.86528 -0.860577 0.390719 0
M  V30 8 C 0.268983 0.781914 -0.156977 0
M  V30 9 C -0.965419 0.253658 -0.843024 0
M  V30 10 C -1.37694 -1.07649 -0.262195 0
M  V30 11 C -2.893 -1.21378 -0.418223 0
M  V30 12 C -3.57012 -0.216911 0.497108 0
M  V30 13 C -2.61544 0.964372 0.646885 0
M  V30 14 N -2.02113 1.20635 -0.629722 0
M  V30 15 H 3.31975 2.21146 0.579909 0
M  V30 16 H 2.86304 1.35545 2.06054 0
M  V30 17 H 5.25921 -1.80954 0.587151 0
M  V30 18 H 5.4346 -0.00424741 0.472419 0
M  V30 19 H 0.0931353 0.911944 0.928354 0
M  V30 20 H 0.540859 1.79201 -0.559317 0
M  V30 21 H -0.785925 0.0991957 -1.94055 0
M  V30 22 H -1.17239 -1.17313 0.822751 0
M  V30 23 H -0.876502 -1.94278 -0.74383 0
M  V30 24 H -3.11755 -0.87203 -1.46332 0
M  V30 25 H -3.225 -2.24425 -0.228706 0
M  V30 26 H -3.70675 -0.710976 1.47686 0
M  V30 27 H -4.51782 0.165229 0.0831051 0
M  V30 28 H -3.14391 1.84787 1.06198 0
M  V30 29 H -1.85735 0.655958 1.39216 0
M  V30 30 H -1.77902 2.18004 -0.835261 0
M  V30 END ATOM
M  V30 BEGIN BOND
M  V30 1 1 1 2
M  V30 2 1 2 3
M  V30 3 2 3 4
M  V30 4 1 4 5
M  V30 5 2 5 6
M  V30 6 1 6 7
M  V30 7 1 3 8
M  V30 8 1 8 9
M  V30 9 1 9 10
M  V30 10 1 10 11
M  V30 11 1 11 12
M  V30 12 1 12 13
M  V30 13 1 13 14
M  V30 14 1 6 2
M  V30 15 1 14 9
M  V30 16 1 1 15
M  V30 17 1 1 16
M  V30 18 1 7 17
M  V30 19 1 7 18
M  V30 20 1 8 19
M  V30 21 1 8 20
M  V30 22 1 9 21
M  V30 23 1 10 22
M  V30 24 1 10 23
M  V30 25 1 11 24
M  V30 26 1 11 25
M  V30 27 1 12 26
M  V30 28 1 12 27
M  V30 29 1 13 28
M  V30 30 1 13 29
M  V30 31 1 14 30
M  V30 END BOND
M  V30 END CTAB
M  END
