
     RDKit          3D

  0  0  0  0  0  0  0  0  0  0999 V3000
M  V30 BEGIN CTAB
M  V30 COUNTS 137 142 0 0 0
M  V30 BEGIN ATOM
M  V30 1 C -5.57122 -0.801103 -4.10146 0
M  V30 2 C -5.11798 0.574695 -3.72886 0
M  V30 3 C -3.99014 0.917371 -4.72369 0
M  V30 4 C -6.22407 1.56016 -3.83467 0
M  V30 5 C -4.43899 0.536576 -2.40769 0
M  V30 6 C -4.21756 -0.623547 -1.719 0
M  V30 7 C -3.53783 -0.726206 -0.507243 0
M  V30 8 C -3.04044 0.428391 0.0935669 0
M  V30 9 O -2.38562 0.384959 1.38081 0
M  V30 10 C -3.02888 0.5145 2.6205 0
M  V30 11 C -3.77111 1.82096 2.78891 0
M  V30 12 N -4.36287 1.76061 4.13678 0
M  V30 13 C -3.23404 1.63412 -0.592493 0
M  V30 14 S -2.47168 3.21611 -0.326978 0
M  V30 15 C -0.739124 3.63373 -0.35811 0
M  V30 16 C -0.576389 4.7611 -1.19753 0
M  V30 17 C 0.614887 5.25138 -1.6455 0
M  V30 18 C 1.71469 4.55245 -1.22207 0
M  V30 19 C 1.62181 3.47535 -0.421531 0
M  V30 20 C 0.373325 2.97882 0.0585942 0
M  V30 21 O 0.574575 1.86442 0.929727 0
M  V30 22 C 0.89416 1.73431 2.2468 0
M  V30 23 C 1.56338 2.79074 3.02946 0
M  V30 24 O 2.00357 2.24549 4.25246 0
M  V30 25 C 0.966352 2.28837 5.18254 0
M  V30 26 C 0.687567 0.950879 5.82916 0
M  V30 27 O -0.664967 0.6418 5.77904 0
M  V30 28 C -0.930873 -0.53819 6.44468 0
M  V30 29 C -0.529991 -1.73853 5.58054 0
M  V30 30 O -0.309848 -1.27983 4.28922 0
M  V30 31 C -0.465161 -2.29841 3.38257 0
M  V30 32 C 0.673689 -2.26991 2.34282 0
M  V30 33 O 0.0588613 -1.94333 1.08945 0
M  V30 34 C -0.416254 -3.01 0.229889 0
M  V30 35 C 0.646986 -3.84868 -0.194073 0
M  V30 36 S 2.21731 -3.21774 -0.00662156 0
M  V30 37 C 2.89519 -1.61163 -0.0258117 0
M  V30 38 C 2.48401 -0.383214 -0.528308 0
M  V30 39 O 1.38547 -0.254452 -1.43003 0
M  V30 40 C 1.31326 -0.294411 -2.79088 0
M  V30 41 C 1.76559 -1.61871 -3.3625 0
M  V30 42 N 1.62996 -1.51677 -4.82985 0
M  V30 43 C 3.22392 0.738136 -0.120154 0
M  V30 44 S 3.00075 2.45622 -0.253422 0
M  V30 45 C 4.32745 0.582144 0.731456 0
M  V30 46 C 4.75429 -0.611991 1.21934 0
M  V30 47 C 4.02243 -1.69318 0.830978 0
M  V30 48 C 5.97287 -0.742058 2.09058 0
M  V30 49 C 5.9796 0.220667 3.22749 0
M  V30 50 C 6.10707 -2.16832 2.53526 0
M  V30 51 C 7.14327 -0.481549 1.12676 0
M  V30 52 C 0.445138 -4.95499 -0.959343 0
M  V30 53 C -0.81263 -5.32015 -1.3783 0
M  V30 54 C -1.81062 -4.49207 -0.97537 0
M  V30 55 C -1.66899 -3.32446 -0.180185 0
M  V30 56 S -3.20116 -2.42881 -0.147534 0
M  V30 57 C -1.00954 -6.54489 -2.17593 0
M  V30 58 C -0.206166 -6.41957 -3.45255 0
M  V30 59 C -2.46594 -6.72289 -2.57605 0
M  V30 60 C -0.525688 -7.78181 -1.44052 0
M  V30 61 C 0.739646 6.4384 -2.52381 0
M  V30 62 C 2.16077 6.55485 -3.03277 0
M  V30 63 C -0.219585 6.43294 -3.67084 0
M  V30 64 C 0.483517 7.69883 -1.69901 0
M  V30 65 C -3.92551 1.63801 -1.80152 0
M  V30 66 H -6.33234 -1.233 -3.42882 0
M  V30 67 H -6.02416 -0.72712 -5.12764 0
M  V30 68 H -4.69668 -1.49366 -4.2579 0
M  V30 69 H -4.32976 0.619331 -5.71475 0
M  V30 70 H -3.10034 0.31583 -4.39745 0
M  V30 71 H -3.70728 1.9674 -4.59337 0
M  V30 72 H -6.69392 1.40668 -4.84266 0
M  V30 73 H -5.87263 2.60773 -3.83657 0
M  V30 74 H -6.99755 1.34748 -3.10014 0
M  V30 75 H -4.6877 -1.50956 -2.22576 0
M  V30 76 H -3.65571 -0.355492 2.89956 0
M  V30 77 H -2.21281 0.541303 3.37156 0
M  V30 78 H -3.08358 2.69003 2.79833 0
M  V30 79 H -4.54397 2.00594 2.03629 0
M  V30 80 H -5.10364 1.02354 4.10316 0
M  V30 81 H -4.85437 2.65879 4.35321 0
M  V30 82 H -1.4394 5.35234 -1.54848 0
M  V30 83 H 2.68584 4.94968 -1.59553 0
M  V30 84 H 1.48408 0.806627 2.39406 0
M  V30 85 H -0.0457698 1.48096 2.88596 0
M  V30 86 H 0.75535 3.5272 3.35268 0
M  V30 87 H 2.30557 3.41897 2.56635 0
M  V30 88 H 1.18484 3.03001 5.99687 0
M  V30 89 H 0.0208655 2.64146 4.72395 0
M  V30 90 H 1.04781 0.993605 6.89976 0
M  V30 91 H 1.34202 0.213631 5.33045 0
M  V30 92 H -0.385779 -0.597318 7.39786 0
M  V30 93 H -2.03401 -0.657554 6.63219 0
M  V30 94 H 0.394244 -2.2171 6.01518 0
M  V30 95 H -1.32464 -2.49685 5.66757 0
M  V30 96 H -1.45988 -2.20488 2.90373 0
M  V30 97 H -0.476725 -3.29789 3.90225 0
M  V30 98 H 1.33581 -1.45833 2.61958 0
M  V30 99 H 1.10772 -3.28083 2.37124 0
M  V30 100 H 1.98483 0.52686 -3.20218 0
M  V30 101 H 0.30804 -0.0265977 -3.11187 0
M  V30 102 H 2.81798 -1.82288 -3.11712 0
M  V30 103 H 1.04918 -2.40908 -3.05561 0
M  V30 104 H 2.35416 -2.15975 -5.22635 0
M  V30 105 H 1.96411 -0.540446 -5.0729 0
M  V30 106 H 4.96516 1.421 1.07234 0
M  V30 107 H 4.40461 -2.64441 1.23762 0
M  V30 108 H 7.01786 0.147436 3.68284 0
M  V30 109 H 5.22472 -0.106985 3.96207 0
M  V30 110 H 5.88353 1.25019 2.86516 0
M  V30 111 H 6.36078 -2.82355 1.68683 0
M  V30 112 H 6.99534 -2.19965 3.22272 0
M  V30 113 H 5.25587 -2.53121 3.12288 0
M  V30 114 H 8.10655 -0.761564 1.58506 0
M  V30 115 H 6.95342 -1.21203 0.279065 0
M  V30 116 H 7.08802 0.537619 0.709461 0
M  V30 117 H 1.26992 -5.61367 -1.28399 0
M  V30 118 H -2.80779 -4.82276 -1.32457 0
M  V30 119 H -0.0137074 -7.43407 -3.90312 0
M  V30 120 H -0.810711 -5.77906 -4.14466 0
M  V30 121 H 0.766473 -5.91908 -3.30795 0
M  V30 122 H -3.12913 -6.8586 -1.70219 0
M  V30 123 H -2.74182 -5.83565 -3.17482 0
M  V30 124 H -2.47861 -7.58709 -3.28157 0
M  V30 125 H -0.81945 -8.64801 -2.06173 0
M  V30 126 H -1.01785 -7.90089 -0.454819 0
M  V30 127 H 0.572484 -7.771 -1.36215 0
M  V30 128 H 2.51274 5.62957 -3.51238 0
M  V30 129 H 2.84582 6.90625 -2.2119 0
M  V30 130 H 2.14933 7.35252 -3.80157 0
M  V30 131 H -0.0473651 7.37369 -4.23685 0
M  V30 132 H -1.27009 6.45172 -3.3428 0
M  V30 133 H 0.0108335 5.56362 -4.31825 0
M  V30 134 H 1.07395 7.67582 -0.76886 0
M  V30 135 H -0.607419 7.7548 -1.41964 0
M  V30 136 H 0.76994 8.56348 -2.30958 0
M  V30 137 H -4.13778 2.56843 -2.37652 0
M  V30 END ATOM
M  V30 BEGIN BOND
M  V30 1 1 1 2
M  V30 2 1 2 3
M  V30 3 1 2 4
M  V30 4 1 2 5
M  V30 5 2 5 6
M  V30 6 1 6 7
M  V30 7 2 7 8
M  V30 8 1 8 9
M  V30 9 1 9 10
M  V30 10 1 10 11
M  V30 11 1 11 12
M  V30 12 1 8 13
M  V30 13 1 13 14
M  V30 14 1 14 15
M  V30 15 2 15 16
M  V30 16 1 16 17
M  V30 17 2 17 18
M  V30 18 1 18 19
M  V30 19 2 19 20
M  V30 20 1 20 21
M  V30 21 1 21 22
M  V30 22 1 22 23
M  V30 23 1 23 24
M  V30 24 1 24 25
M  V30 25 1 25 26
M  V30 26 1 26 27
M  V30 27 1 27 28
M  V30 28 1 28 29
M  V30 29 1 29 30
M  V30 30 1 30 31
M  V30 31 1 31 32
M  V30 32 1 32 33
M  V30 33 1 33 34
M  V30 34 2 34 35
M  V30 35 1 35 36
M  V30 36 1 36 37
M  V30 37 2 37 38
M  V30 38 1 38 39
M  V30 39 1 39 40
M  V30 40 1 40 41
M  V30 41 1 41 42
M  V30 42 1 38 43
M  V30 43 1 43 44
M  V30 44 2 43 45
M  V30 45 1 45 46
M  V30 46 2 46 47
M  V30 47 1 46 48
M  V30 48 1 48 49
M  V30 49 1 48 50
M  V30 50 1 48 51
M  V30 51 1 35 52
M  V30 52 2 52 53
M  V30 53 1 53 54
M  V30 54 2 54 55
M  V30 55 1 55 56
M  V30 56 1 53 57
M  V30 57 1 57 58
M  V30 58 1 57 59
M  V30 59 1 57 60
M  V30 60 1 17 61
M  V30 61 1 61 62
M  V30 62 1 61 63
M  V30 63 1 61 64
M  V30 64 2 13 65
M  V30 65 1 65 5
M  V30 66 1 56 7
M  V30 67 1 20 15
M  V30 68 1 55 34
M  V30 69 1 44 19
M  V30 70 1 47 37
M  V30 71 1 1 66
M  V30 72 1 1 67
M  V30 73 1 1 68
M  V30 74 1 3 69
M  V30 75 1 3 70
M  V30 76 1 3 71
M  V30 77 1 4 72
M  V30 78 1 4 73
M  V30 79 1 4 74
M  V30 80 1 6 75
M  V30 81 1 10 76
M  V30 82 1 10 77
M  V30 83 1 11 78
M  V30 84 1 11 79
M  V30 85 1 12 80
M  V30 86 1 12 81
M  V30 87 1 16 82
M  V30 88 1 18 83
M  V30 89 1 22 84
M  V30 90 1 22 85
M  V30 91 1 23 86
M  V30 92 1 23 87
M  V30 93 1 25 88
M  V30 94 1 25 89
M  V30 95 1 26 90
M  V30 96 1 26 91
M  V30 97 1 28 92
M  V30 98 1 28 93
M  V30 99 1 29 94
M  V30 100 1 29 95
M  V30 101 1 31 96
M  V30 102 1 31 97
M  V30 103 1 32 98
M  V30 104 1 32 99
M  V30 105 1 40 100
M  V30 106 1 40 101
M  V30 107 1 41 102
M  V30 108 1 41 103
M  V30 109 1 42 104
M  V30 110 1 42 105
M  V30 111 1 45 106
M  V30 112 1 47 107
M  V30 113 1 49 108
M  V30 114 1 49 109
M  V30 115 1 49 110
M  V30 116 1 50 111
M  V30 117 1 50 112
M  V30 118 1 50 113
M  V30 119 1 51 114
M  V30 120 1 51 115
M  V30 121 1 51 116
M  V30 122 1 52 117
M  V30 123 1 54 118
M  V30 124 1 58 119
M  V30 125 1 58 120
M  V30 126 1 58 121
M  V30 127 1 59 122
M  V30 128 1 59 123
M  V30 129 1 59 124
M  V30 130 1 60 125
M  V30 131 1 60 126
M  V30 132 1 60 127
M  V30 133 1 62 128
M  V30 134 1 62 129
M  V30 135 1 62 130
M  V30 136 1 63 131
M  V30 137 1 63 132
M  V30 138 1 63 133
M  V30 139 1 64 134
M  V30 140 1 64 135
M  V30 141 1 64 136
M  V30 142 1 65 137
M  V30 END BOND
M  V30 END CTAB
M  END
