
     RDKit          3D

  0  0  0  0  0  0  0  0  0  0999 V3000
M  V30 BEGIN CTAB
M  V30 COUNTS 32 32 0 0 0
M  V30 BEGIN ATOM
M  V30 1 N 4.30125 -0.152037 0.630985 0
M  V30 2 C 3.06414 -0.895442 0.618138 0
M  V30 3 C 2.05237 -0.251717 1.53219 0
M  V30 4 C 1.24306 0.812252 0.788242 0
M  V30 5 C 0.41151 0.224183 -0.309578 0
M  V30 6 C 0.957745 -1.12955 -0.650896 0
M  V30 7 C 2.48047 -0.965583 -0.766382 0
M  V30 8 N -0.998981 0.222864 -0.0192424 0
M  V30 9 C -1.97168 0.913043 -0.765813 0
M  V30 10 O -1.60198 1.57875 -1.75346 0
M  V30 11 C -3.39088 0.859515 -0.402162 0 CFG=2
M  V30 12 N -3.64545 0.0463628 0.763701 0
M  V30 13 C -4.26519 0.332042 -1.51839 0
M  V30 14 H 4.14273 0.83365 0.888499 0
M  V30 15 H 4.83061 -0.204902 -0.236923 0
M  V30 16 H 3.30271 -1.92934 0.936621 0
M  V30 17 H 2.65164 0.320984 2.29805 0
M  V30 18 H 1.40842 -0.968364 2.05587 0
M  V30 19 H 0.64393 1.3649 1.54489 0
M  V30 20 H 1.99823 1.54392 0.416123 0
M  V30 21 H 0.547344 0.867388 -1.21874 0
M  V30 22 H 0.697005 -1.91631 0.0707458 0
M  V30 23 H 0.620523 -1.43529 -1.67484 0
M  V30 24 H 2.92566 -1.72748 -1.40471 0
M  V30 25 H 2.64827 0.0478134 -1.22835 0
M  V30 26 H -1.3402 -0.332878 0.811953 0
M  V30 27 H -3.75674 1.8924 -0.18461 0
M  V30 28 H -3.30162 -0.92456 0.633379 0
M  V30 29 H -3.21862 0.471372 1.61903 0
M  V30 30 H -4.36678 -0.760364 -1.36793 0
M  V30 31 H -3.79949 0.485816 -2.51892 0
M  V30 32 H -5.27 0.776568 -1.5195 0
M  V30 END ATOM
M  V30 BEGIN BOND
M  V30 1 1 1 2
M  V30 2 1 2 3
M  V30 3 1 3 4
M  V30 4 1 4 5
M  V30 5 1 5 6
M  V30 6 1 6 7
M  V30 7 1 5 8
M  V30 8 1 8 9
M  V30 9 2 9 10
M  V30 10 1 9 11
M  V30 11 1 11 12
M  V30 12 1 11 13
M  V30 13 1 7 2
M  V30 14 1 1 14
M  V30 15 1 1 15
M  V30 16 1 2 16
M  V30 17 1 3 17
M  V30 18 1 3 18
M  V30 19 1 4 19
M  V30 20 1 4 20
M  V30 21 1 5 21
M  V30 22 1 6 22
M  V30 23 1 6 23
M  V30 24 1 7 24
M  V30 25 1 7 25
M  V30 26 1 8 26
M  V30 27 1 11 27 CFG=1
M  V30 28 1 12 28
M  V30 29 1 12 29
M  V30 30 1 13 30
M  V30 31 1 13 31
M  V30 32 1 13 32
M  V30 END BOND
M  V30 END CTAB
M  END
