
     RDKit          3D

  0  0  0  0  0  0  0  0  0  0999 V3000
M  V30 BEGIN CTAB
M  V30 COUNTS 21 21 0 0 0
M  V30 BEGIN ATOM
M  V30 1 N 0.272914 1.97525 -0.582003 0
M  V30 2 C -0.688954 0.960301 -0.316889 0
M  V30 3 C -1.98226 1.34218 0.0129745 0
M  V30 4 C -2.96141 0.420494 0.281129 0
M  V30 5 C -2.64621 -0.939148 0.220002 0
M  V30 6 C -1.35399 -1.30025 -0.109895 0
M  V30 7 C -0.369076 -0.381381 -0.3795 0
M  V30 8 N 0.918055 -0.826106 -0.706802 0
M  V30 9 S 2.17879 -1.11935 0.419471 0
M  V30 10 O 3.09098 -2.2225 -0.0728985 0
M  V30 11 O 1.639 -1.58653 1.74982 0
M  V30 12 N 3.1127 0.283597 0.673427 0
M  V30 13 F -1.10906 -2.65061 -0.152939 0
M  V30 14 F -3.63176 -1.7991 0.488867 0
M  V30 15 H 0.386552 2.39048 -1.52626 0
M  V30 16 H 0.867334 2.29428 0.206883 0
M  V30 17 H -2.18337 2.42523 0.0487109 0
M  V30 18 H -3.93862 0.77823 0.529321 0
M  V30 19 H 1.12109 -0.992577 -1.73729 0
M  V30 20 H 3.25022 0.870901 -0.175547 0
M  V30 21 H 4.0271 0.0766102 1.12941 0
M  V30 END ATOM
M  V30 BEGIN BOND
M  V30 1 1 1 2
M  V30 2 2 2 3
M  V30 3 1 3 4
M  V30 4 2 4 5
M  V30 5 1 5 6
M  V30 6 2 6 7
M  V30 7 1 7 8
M  V30 8 1 8 9
M  V30 9 2 9 10
M  V30 10 2 9 11
M  V30 11 1 9 12
M  V30 12 1 6 13
M  V30 13 1 5 14
M  V30 14 1 7 2
M  V30 15 1 1 15
M  V30 16 1 1 16
M  V30 17 1 3 17
M  V30 18 1 4 18
M  V30 19 1 8 19
M  V30 20 1 12 20
M  V30 21 1 12 21
M  V30 END BOND
M  V30 END CTAB
M  END
