
     RDKit          3D

  0  0  0  0  0  0  0  0  0  0999 V3000
M  V30 BEGIN CTAB
M  V30 COUNTS 26 26 0 0 0
M  V30 BEGIN ATOM
M  V30 1 C 4.41757 0.122785 -0.602651 0
M  V30 2 O 3.42228 0.149437 0.406639 0
M  V30 3 C 2.0725 0.154237 0.133904 0
M  V30 4 O 1.72929 0.13345 -1.07466 0
M  V30 5 C 1.04139 0.182481 1.20557 0
M  V30 6 C -0.330292 0.182117 0.63854 0
M  V30 7 C -1.12618 1.30683 0.581997 0
M  V30 8 C -2.39724 1.25962 0.0442271 0
M  V30 9 N -3.19052 2.4335 0.000648403 0
M  V30 10 C -2.89608 0.0775912 -0.449412 0
M  V30 11 C -2.12304 -1.06209 -0.405862 0
M  V30 12 C -0.859543 -0.988424 0.135198 0
M  V30 13 N -0.0842364 -2.16094 0.171465 0
M  V30 14 O -2.67396 -2.22913 -0.917103 0
M  V30 15 H 5.1375 -0.706869 -0.468408 0
M  V30 16 H 4.96443 1.08425 -0.543971 0
M  V30 17 H 3.94175 -0.0174541 -1.5906 0
M  V30 18 H 1.11416 1.11355 1.83016 0
M  V30 19 H 1.2188 -0.653209 1.89369 0
M  V30 20 H -0.734584 2.25688 0.973915 0
M  V30 21 H -3.91998 2.5916 0.716229 0
M  V30 22 H -3.02968 3.1156 -0.744483 0
M  V30 23 H -3.90017 0.0302041 -0.877391 0
M  V30 24 H -0.0495127 -2.72753 -0.72495 0
M  V30 25 H 0.449998 -2.53132 0.960139 0
M  V30 26 H -2.19465 -3.11717 -0.932668 0
M  V30 END ATOM
M  V30 BEGIN BOND
M  V30 1 1 1 2
M  V30 2 1 2 3
M  V30 3 2 3 4
M  V30 4 1 3 5
M  V30 5 1 5 6
M  V30 6 2 6 7
M  V30 7 1 7 8
M  V30 8 1 8 9
M  V30 9 2 8 10
M  V30 10 1 10 11
M  V30 11 2 11 12
M  V30 12 1 12 13
M  V30 13 1 11 14
M  V30 14 1 12 6
M  V30 15 1 1 15
M  V30 16 1 1 16
M  V30 17 1 1 17
M  V30 18 1 5 18
M  V30 19 1 5 19
M  V30 20 1 7 20
M  V30 21 1 9 21
M  V30 22 1 9 22
M  V30 23 1 10 23
M  V30 24 1 13 24
M  V30 25 1 13 25
M  V30 26 1 14 26
M  V30 END BOND
M  V30 END CTAB
M  END
