
     RDKit          3D

  0  0  0  0  0  0  0  0  0  0999 V3000
M  V30 BEGIN CTAB
M  V30 COUNTS 51 53 0 0 0
M  V30 BEGIN ATOM
M  V30 1 N 7.22075 -1.74799 -0.438494 0
M  V30 2 C 6.68574 -0.64603 0.280515 0
M  V30 3 N 5.60591 -0.740062 1.07921 0
M  V30 4 C 5.10366 0.296793 1.7549 0
M  V30 5 S 3.67901 0.208529 2.8194 0
M  V30 6 C 2.20169 0.539921 1.85601 0
M  V30 7 C 1.94997 -0.527713 0.857381 0
M  V30 8 O 2.71683 -1.52444 0.747671 0
M  V30 9 N 0.836766 -0.479646 -0.0208734 0
M  V30 10 C 0.557983 -1.48825 -0.998079 0
M  V30 11 C -0.2859 -0.860949 -2.10532 0
M  V30 12 N -1.50993 -0.316088 -1.60053 0
M  V30 13 C -1.4476 0.144353 -0.247581 0
M  V30 14 C -0.0592607 0.649265 0.0813579 0
M  V30 15 C -2.6193 -1.26091 -1.69607 0
M  V30 16 C -3.8095 -0.532232 -1.12849 0
M  V30 17 C -4.47028 -0.95532 -0.100042 0
M  V30 18 C -5.60413 -0.239657 0.422145 0
M  V30 19 C -6.25856 -0.768877 1.53494 0
M  V30 20 C -7.35005 -0.157269 2.10439 0
M  V30 21 C -7.79329 1.01804 1.53757 0
M  V30 22 C -7.17592 1.57465 0.438385 0
M  V30 23 C -6.06295 0.927681 -0.122169 0
M  V30 24 N 5.72479 1.47886 1.61304 0
M  V30 25 C 6.80178 1.66035 0.841142 0
M  V30 26 C 7.30669 0.572382 0.149025 0
M  V30 27 N 7.44802 2.91993 0.701997 0
M  V30 28 H 8.26902 -1.90661 -0.403712 0
M  V30 29 H 6.61439 -2.40424 -0.998394 0
M  V30 30 H 2.25954 1.51711 1.29683 0
M  V30 31 H 1.33848 0.66302 2.55582 0
M  V30 32 H 1.46192 -1.91077 -1.47732 0
M  V30 33 H -0.043293 -2.33815 -0.571088 0
M  V30 34 H -0.420028 -1.55724 -2.93201 0
M  V30 35 H 0.326085 0.0137229 -2.47433 0
M  V30 36 H -1.76317 -0.606563 0.502793 0
M  V30 37 H -2.13912 1.01614 -0.118755 0
M  V30 38 H -0.0476605 1.02438 1.10373 0
M  V30 39 H 0.208327 1.45879 -0.635889 0
M  V30 40 H -2.80324 -1.59546 -2.72445 0
M  V30 41 H -2.43687 -2.16243 -1.07294 0
M  V30 42 H -4.07736 0.367611 -1.63502 0
M  V30 43 H -4.13515 -1.89802 0.375897 0
M  V30 44 H -5.91043 -1.70445 1.99092 0
M  V30 45 H -7.83972 -0.582744 2.96244 0
M  V30 46 H -8.64554 1.53818 1.94555 0
M  V30 47 H -7.51314 2.49224 -0.0130564 0
M  V30 48 H -5.60721 1.39203 -0.979683 0
M  V30 49 H 8.1685 0.639642 -0.49057 0
M  V30 50 H 8.46284 3.05961 0.872536 0
M  V30 51 H 6.8799 3.73888 0.416682 0
M  V30 END ATOM
M  V30 BEGIN BOND
M  V30 1 1 1 2
M  V30 2 2 2 3
M  V30 3 1 3 4
M  V30 4 1 4 5
M  V30 5 1 5 6
M  V30 6 1 6 7
M  V30 7 2 7 8
M  V30 8 1 7 9
M  V30 9 1 9 10
M  V30 10 1 10 11
M  V30 11 1 11 12
M  V30 12 1 12 13
M  V30 13 1 13 14
M  V30 14 1 12 15
M  V30 15 1 15 16
M  V30 16 2 16 17 CFG=2
M  V30 17 1 17 18
M  V30 18 2 18 19
M  V30 19 1 19 20
M  V30 20 2 20 21
M  V30 21 1 21 22
M  V30 22 2 22 23
M  V30 23 2 4 24
M  V30 24 1 24 25
M  V30 25 2 25 26
M  V30 26 1 25 27
M  V30 27 1 26 2
M  V30 28 1 14 9
M  V30 29 1 23 18
M  V30 30 1 1 28
M  V30 31 1 1 29
M  V30 32 1 6 30
M  V30 33 1 6 31
M  V30 34 1 10 32
M  V30 35 1 10 33
M  V30 36 1 11 34
M  V30 37 1 11 35
M  V30 38 1 13 36
M  V30 39 1 13 37
M  V30 40 1 14 38
M  V30 41 1 14 39
M  V30 42 1 15 40
M  V30 43 1 15 41
M  V30 44 1 16 42
M  V30 45 1 17 43
M  V30 46 1 19 44
M  V30 47 1 20 45
M  V30 48 1 21 46
M  V30 49 1 22 47
M  V30 50 1 23 48
M  V30 51 1 26 49
M  V30 52 1 27 50
M  V30 53 1 27 51
M  V30 END BOND
M  V30 END CTAB
M  END
