
     RDKit          3D

  0  0  0  0  0  0  0  0  0  0999 V3000
M  V30 BEGIN CTAB
M  V30 COUNTS 38 40 0 0 0
M  V30 BEGIN ATOM
M  V30 1 N 6.05553 -1.65886 1.66595 0
M  V30 2 C 5.05119 -0.860438 1.08773 0
M  V30 3 C 5.39885 0.00979779 0.0769842 0
M  V30 4 C 4.48502 0.828676 -0.546332 0
M  V30 5 C 3.17066 0.774285 -0.141746 0
M  V30 6 C 2.76183 -0.0648473 0.851524 0
M  V30 7 C 3.73499 -0.881341 1.45705 0
M  V30 8 O 1.49545 -0.166836 1.29013 0
M  V30 9 C 0.302258 0.40938 0.97112 0
M  V30 10 C -0.231678 0.182694 -0.410024 0
M  V30 11 N -1.51368 0.861497 -0.600515 0
M  V30 12 C -1.59435 2.19388 -1.08326 0
M  V30 13 O -0.596093 2.75522 -1.59544 0
M  V30 14 C -2.87132 2.92465 -0.979175 0
M  V30 15 O -3.97008 2.03973 -0.922469 0
M  V30 16 C -3.93509 0.749022 -0.452475 0
M  V30 17 C -2.69512 0.135891 -0.283351 0
M  V30 18 N -2.62752 -1.12714 0.17505 0
M  V30 19 C -3.69889 -1.86579 0.492294 0
M  V30 20 N -3.61679 -3.19715 0.974996 0
M  V30 21 C -4.93361 -1.25892 0.325239 0
M  V30 22 C -5.0781 0.0292895 -0.138964 0
M  V30 23 H 6.8325 -2.00623 1.09076 0
M  V30 24 H 6.00466 -1.89042 2.66564 0
M  V30 25 H 6.44341 0.0730076 -0.265656 0
M  V30 26 H 4.80896 1.51099 -1.35238 0
M  V30 27 H 2.49686 1.44053 -0.649472 0
M  V30 28 H 3.44146 -1.56347 2.25485 0
M  V30 29 H 0.257539 1.51378 1.21538 0
M  V30 30 H -0.483282 -0.0153179 1.67714 0
M  V30 31 H -0.363278 -0.921442 -0.622009 0
M  V30 32 H 0.453708 0.527057 -1.19549 0
M  V30 33 H -3.0434 3.60063 -1.86614 0
M  V30 34 H -2.89249 3.59144 -0.070451 0
M  V30 35 H -3.12266 -3.4218 1.86193 0
M  V30 36 H -4.05286 -3.96079 0.441529 0
M  V30 37 H -5.84907 -1.81084 0.567375 0
M  V30 38 H -6.02551 0.520194 -0.27637 0
M  V30 END ATOM
M  V30 BEGIN BOND
M  V30 1 1 1 2
M  V30 2 2 2 3
M  V30 3 1 3 4
M  V30 4 2 4 5
M  V30 5 1 5 6
M  V30 6 2 6 7
M  V30 7 1 6 8
M  V30 8 1 8 9
M  V30 9 1 9 10
M  V30 10 1 10 11
M  V30 11 1 11 12
M  V30 12 2 12 13
M  V30 13 1 12 14
M  V30 14 1 14 15
M  V30 15 1 15 16
M  V30 16 2 16 17
M  V30 17 1 17 18
M  V30 18 2 18 19
M  V30 19 1 19 20
M  V30 20 1 19 21
M  V30 21 2 21 22
M  V30 22 1 7 2
M  V30 23 1 17 11
M  V30 24 1 22 16
M  V30 25 1 1 23
M  V30 26 1 1 24
M  V30 27 1 3 25
M  V30 28 1 4 26
M  V30 29 1 5 27
M  V30 30 1 7 28
M  V30 31 1 9 29
M  V30 32 1 9 30
M  V30 33 1 10 31
M  V30 34 1 10 32
M  V30 35 1 14 33
M  V30 36 1 14 34
M  V30 37 1 20 35
M  V30 38 1 20 36
M  V30 39 1 21 37
M  V30 40 1 22 38
M  V30 END BOND
M  V30 END CTAB
M  END
