
     RDKit          3D

  0  0  0  0  0  0  0  0  0  0999 V3000
M  V30 BEGIN CTAB
M  V30 COUNTS 62 68 0 0 0
M  V30 BEGIN ATOM
M  V30 1 C -5.07422 0.464634 -3.09128 0
M  V30 2 C -4.57116 -0.827041 -2.59632 0
M  V30 3 C -3.7624 -0.946377 -1.4626 0
M  V30 4 C -3.42452 0.172424 -0.778975 0
M  V30 5 O -3.81838 1.28534 -1.14459 0
M  V30 6 N -2.6319 0.0975081 0.342175 0
M  V30 7 C -2.16915 -1.0682 0.793443 0
M  V30 8 C -1.30003 -1.12654 1.99202 0
M  V30 9 N 0.11431 -1.29476 1.66026 0
M  V30 10 N 0.92969 -0.291754 1.4167 0
M  V30 11 C 2.1752 -0.77048 1.13876 0
M  V30 12 C 2.10493 -2.12279 1.21705 0
M  V30 13 C 3.03073 -3.11201 1.02928 0
M  V30 14 N 4.37054 -2.82599 0.652611 0
M  V30 15 N 2.61724 -4.39989 1.1847 0
M  V30 16 C 1.36659 -4.74567 1.5067 0
M  V30 17 N 0.494805 -3.74315 1.67799 0
M  V30 18 C 0.788364 -2.4599 1.55147 0
M  V30 19 C 3.25388 0.128504 0.813221 0
M  V30 20 C 3.09926 1.01914 -0.251639 0
M  V30 21 N 4.02514 1.926 -0.598727 0
M  V30 22 C 4.05112 2.85545 -1.58328 0
M  V30 23 C 5.25077 3.51991 -1.48351 0
M  V30 24 N 5.69451 4.57356 -2.31732 0
M  V30 25 N 5.90243 2.95459 -0.430692 0
M  V30 26 C 5.16149 1.99248 0.102317 0
M  V30 27 C 5.36162 1.1273 1.17104 0
M  V30 28 C 4.39943 0.180052 1.53826 0
M  V30 29 C -2.49839 -2.25379 0.112597 0
M  V30 30 C -3.29697 -2.14811 -1.01011 0
M  V30 31 C -3.62139 -3.31471 -1.67882 0
M  V30 32 C -4.41242 -3.25051 -2.79617 0
M  V30 33 C -4.8742 -2.02758 -3.23997 0
M  V30 34 C -2.37927 1.33386 0.999667 0
M  V30 35 C -3.00798 1.67048 2.20852 0
M  V30 36 C -2.78613 2.88048 2.82896 0
M  V30 37 C -1.93228 3.81281 2.28205 0
M  V30 38 C -1.29916 3.51366 1.09655 0
M  V30 39 C -1.53729 2.30116 0.498276 0
M  V30 40 H -4.30704 1.14077 -3.50988 0
M  V30 41 H -5.82933 0.95323 -2.44482 0
M  V30 42 H -5.69076 0.21482 -4.01746 0
M  V30 43 H -1.40189 -0.298175 2.68801 0
M  V30 44 H -1.54653 -2.0526 2.60749 0
M  V30 45 H 5.1813 -3.03617 1.25509 0
M  V30 46 H 4.53929 -2.38151 -0.282134 0
M  V30 47 H 1.11364 -5.79137 1.61401 0
M  V30 48 H 2.17975 0.960495 -0.813502 0
M  V30 49 H 3.28166 3.04693 -2.31258 0
M  V30 50 H 6.69634 4.82609 -2.3971 0
M  V30 51 H 5.00368 5.11568 -2.86881 0
M  V30 52 H 6.27165 1.18018 1.73321 0
M  V30 53 H 4.60278 -0.455608 2.38776 0
M  V30 54 H -2.14416 -3.188 0.467536 0
M  V30 55 H -3.24772 -4.27359 -1.31389 0
M  V30 56 H -4.66666 -4.1817 -3.32299 0
M  V30 57 H -5.50131 -1.97683 -4.12464 0
M  V30 58 H -3.67687 0.927447 2.62716 0
M  V30 59 H -3.27133 3.13636 3.75938 0
M  V30 60 H -1.73394 4.77907 2.74541 0
M  V30 61 H -0.615874 4.18956 0.603321 0
M  V30 62 H -1.03151 2.08483 -0.431195 0
M  V30 END ATOM
M  V30 BEGIN BOND
M  V30 1 1 1 2
M  V30 2 2 2 3
M  V30 3 1 3 4
M  V30 4 2 4 5
M  V30 5 1 4 6
M  V30 6 1 6 7
M  V30 7 1 7 8
M  V30 8 1 8 9
M  V30 9 1 9 10
M  V30 10 2 10 11
M  V30 11 1 11 12
M  V30 12 2 12 13
M  V30 13 1 13 14
M  V30 14 1 13 15
M  V30 15 2 15 16
M  V30 16 1 16 17
M  V30 17 2 17 18
M  V30 18 1 11 19
M  V30 19 2 19 20
M  V30 20 1 20 21
M  V30 21 1 21 22
M  V30 22 2 22 23
M  V30 23 1 23 24
M  V30 24 1 23 25
M  V30 25 2 25 26
M  V30 26 1 26 27
M  V30 27 2 27 28
M  V30 28 2 7 29
M  V30 29 1 29 30
M  V30 30 2 30 31
M  V30 31 1 31 32
M  V30 32 2 32 33
M  V30 33 1 6 34
M  V30 34 2 34 35
M  V30 35 1 35 36
M  V30 36 2 36 37
M  V30 37 1 37 38
M  V30 38 2 38 39
M  V30 39 1 33 2
M  V30 40 1 39 34
M  V30 41 1 30 3
M  V30 42 1 18 9
M  V30 43 1 28 19
M  V30 44 1 18 12
M  V30 45 1 26 21
M  V30 46 1 1 40
M  V30 47 1 1 41
M  V30 48 1 1 42
M  V30 49 1 8 43
M  V30 50 1 8 44
M  V30 51 1 14 45
M  V30 52 1 14 46
M  V30 53 1 16 47
M  V30 54 1 20 48
M  V30 55 1 22 49
M  V30 56 1 24 50
M  V30 57 1 24 51
M  V30 58 1 27 52
M  V30 59 1 28 53
M  V30 60 1 29 54
M  V30 61 1 31 55
M  V30 62 1 32 56
M  V30 63 1 33 57
M  V30 64 1 35 58
M  V30 65 1 36 59
M  V30 66 1 37 60
M  V30 67 1 38 61
M  V30 68 1 39 62
M  V30 END BOND
M  V30 END CTAB
M  END
