
     RDKit          3D

  0  0  0  0  0  0  0  0  0  0999 V3000
M  V30 BEGIN CTAB
M  V30 COUNTS 27 28 0 0 0
M  V30 BEGIN ATOM
M  V30 1 N -5.39667 -0.501176 -0.725282 0
M  V30 2 C -3.93273 -0.632463 -0.768699 0
M  V30 3 C -3.39754 0.162329 0.395172 0
M  V30 4 C -1.9094 0.0932661 0.441224 0
M  V30 5 N -1.03924 0.928156 -0.157031 0
M  V30 6 C 0.237687 0.539081 0.118068 0
M  V30 7 C 0.0894647 -0.577139 0.91568 0
M  V30 8 O -1.20534 -0.814813 1.08829 0
M  V30 9 C 1.24082 -1.19588 1.35509 0
M  V30 10 C 2.49622 -0.731658 1.02075 0
M  V30 11 C 2.61651 0.382131 0.224932 0
M  V30 12 C 1.48126 1.02561 -0.232186 0
M  V30 13 S 4.22589 0.929171 -0.169295 0
M  V30 14 O 5.15947 0.613523 0.964784 0
M  V30 15 O 4.25048 2.42459 -0.394164 0
M  V30 16 N 4.70046 0.130707 -1.63139 0
M  V30 17 H -5.70712 -0.508737 0.283544 0
M  V30 18 H -5.5757 0.493608 -1.04859 0
M  V30 19 H -3.57927 -0.24571 -1.73796 0
M  V30 20 H -3.62403 -1.69627 -0.693296 0
M  V30 21 H -3.77182 1.20067 0.310649 0
M  V30 22 H -3.85394 -0.259918 1.31197 0
M  V30 23 H 1.13278 -2.08461 1.99016 0
M  V30 24 H 3.39266 -1.24969 1.38881 0
M  V30 25 H 1.57383 1.90125 -0.857821 0
M  V30 26 H 4.863 -0.884365 -1.3552 0
M  V30 27 H 5.53226 0.558347 -2.05498 0
M  V30 END ATOM
M  V30 BEGIN BOND
M  V30 1 1 1 2
M  V30 2 1 2 3
M  V30 3 1 3 4
M  V30 4 2 4 5
M  V30 5 1 5 6
M  V30 6 2 6 7
M  V30 7 1 7 8
M  V30 8 1 7 9
M  V30 9 2 9 10
M  V30 10 1 10 11
M  V30 11 2 11 12
M  V30 12 1 11 13
M  V30 13 2 13 14
M  V30 14 2 13 15
M  V30 15 1 13 16
M  V30 16 1 8 4
M  V30 17 1 12 6
M  V30 18 1 1 17
M  V30 19 1 1 18
M  V30 20 1 2 19
M  V30 21 1 2 20
M  V30 22 1 3 21
M  V30 23 1 3 22
M  V30 24 1 9 23
M  V30 25 1 10 24
M  V30 26 1 12 25
M  V30 27 1 16 26
M  V30 28 1 16 27
M  V30 END BOND
M  V30 END CTAB
M  END
