
     RDKit          3D

  0  0  0  0  0  0  0  0  0  0999 V3000
M  V30 BEGIN CTAB
M  V30 COUNTS 45 47 0 0 0
M  V30 BEGIN ATOM
M  V30 1 Br 4.1159 -0.88887 -3.8257 0
M  V30 2 C 4.62624 -0.360592 -2.07617 0
M  V30 3 C 5.66142 0.531709 -1.90269 0
M  V30 4 C 6.01179 0.898142 -0.632629 0
M  V30 5 C 5.34632 0.388621 0.459098 0
M  V30 6 C 4.28903 -0.520329 0.324469 0
M  V30 7 C 3.96602 -0.864749 -0.965 0
M  V30 8 C 3.61991 -1.03828 1.52918 0
M  V30 9 O 2.57087 -1.92346 1.31246 0
M  V30 10 N 1.41096 -1.71474 0.651696 0
M  V30 11 C 0.510475 -0.858598 1.05842 0
M  V30 12 C -0.728224 -0.69172 0.278527 0
M  V30 13 C -1.69524 0.141047 0.60123 0
M  V30 14 N -1.7089 1.019 1.75567 0
M  V30 15 C -2.75274 0.031278 -0.407265 0
M  V30 16 N -2.32494 -0.952572 -1.3379 0
M  V30 17 C -1.05858 -1.41892 -0.941055 0
M  V30 18 O -0.326362 -2.29606 -1.51017 0
M  V30 19 C -3.02823 -1.45167 -2.53514 0
M  V30 20 C -4.10603 -0.265074 0.188508 0
M  V30 21 C -4.57116 1.07945 0.691818 0
M  V30 22 C -3.8094 2.11351 -0.0775426 0
M  V30 23 C -2.95184 1.38595 -1.06646 0
M  V30 24 N 0.681551 -0.08759 2.21802 0
M  V30 25 F 5.6838 0.744035 1.73014 0
M  V30 26 H 6.16943 0.917771 -2.79175 0
M  V30 27 H 6.81215 1.58886 -0.48242 0
M  V30 28 H 3.16899 -1.56197 -1.15509 0
M  V30 29 H 3.34921 -0.192353 2.20468 0
M  V30 30 H 4.39525 -1.6223 2.11446 0
M  V30 31 H -2.16283 0.773837 2.64775 0
M  V30 32 H -1.23324 1.92973 1.66306 0
M  V30 33 H -3.07016 -0.667147 -3.31433 0
M  V30 34 H -4.04361 -1.77943 -2.21411 0
M  V30 35 H -2.52574 -2.3209 -2.95058 0
M  V30 36 H -4.02601 -0.988153 1.03504 0
M  V30 37 H -4.75553 -0.618158 -0.623388 0
M  V30 38 H -5.65882 1.23856 0.508293 0
M  V30 39 H -4.33515 1.18589 1.7605 0
M  V30 40 H -3.16306 2.76388 0.540057 0
M  V30 41 H -4.49259 2.82172 -0.607653 0
M  V30 42 H -1.92772 1.84054 -1.16627 0
M  V30 43 H -3.42218 1.29351 -2.06156 0
M  V30 44 H 0.342418 -0.437098 3.12911 0
M  V30 45 H 1.14654 0.833717 2.17242 0
M  V30 END ATOM
M  V30 BEGIN BOND
M  V30 1 1 1 2
M  V30 2 2 2 3
M  V30 3 1 3 4
M  V30 4 2 4 5
M  V30 5 1 5 6
M  V30 6 2 6 7
M  V30 7 1 6 8
M  V30 8 1 8 9
M  V30 9 1 9 10
M  V30 10 2 10 11 CFG=2
M  V30 11 1 11 12
M  V30 12 2 12 13
M  V30 13 1 13 14
M  V30 14 1 13 15
M  V30 15 1 15 16
M  V30 16 1 16 17
M  V30 17 2 17 18
M  V30 18 1 16 19
M  V30 19 1 15 20
M  V30 20 1 20 21
M  V30 21 1 21 22
M  V30 22 1 22 23
M  V30 23 1 11 24
M  V30 24 1 5 25
M  V30 25 1 7 2
M  V30 26 1 17 12
M  V30 27 1 23 15
M  V30 28 1 3 26
M  V30 29 1 4 27
M  V30 30 1 7 28
M  V30 31 1 8 29
M  V30 32 1 8 30
M  V30 33 1 14 31
M  V30 34 1 14 32
M  V30 35 1 19 33
M  V30 36 1 19 34
M  V30 37 1 19 35
M  V30 38 1 20 36
M  V30 39 1 20 37
M  V30 40 1 21 38
M  V30 41 1 21 39
M  V30 42 1 22 40
M  V30 43 1 22 41
M  V30 44 1 23 42
M  V30 45 1 23 43
M  V30 46 1 24 44
M  V30 47 1 24 45
M  V30 END BOND
M  V30 END CTAB
M  END
