
     RDKit          3D

  0  0  0  0  0  0  0  0  0  0999 V3000
M  V30 BEGIN CTAB
M  V30 COUNTS 29 29 0 0 0
M  V30 BEGIN ATOM
M  V30 1 N 4.84456 -1.10309 -1.08958 0
M  V30 2 C 3.52749 -0.697814 -0.686778 0
M  V30 3 N 2.42913 -1.13242 -1.33845 0
M  V30 4 C 1.17722 -0.777234 -0.993951 0
M  V30 5 C 0.959588 0.0714666 0.0719443 0
M  V30 6 C 2.09544 0.509793 0.73163 0
M  V30 7 N 3.33183 0.127021 0.350498 0
M  V30 8 N 1.99776 1.38155 1.83748 0
M  V30 9 S -0.560766 0.620823 0.639999 0
M  V30 10 O -0.553213 2.13638 0.616924 0
M  V30 11 O -0.677115 0.24402 2.10619 0
M  V30 12 C -1.9763 0.071459 -0.179942 0
M  V30 13 C -3.16711 0.729635 0.551483 0
M  V30 14 C -2.10574 0.466088 -1.60827 0
M  V30 15 C -2.23612 -1.41815 -0.0644588 0
M  V30 16 H 5.57418 -0.362515 -1.14354 0
M  V30 17 H 5.0166 -2.08495 -1.30502 0
M  V30 18 H 0.328517 -1.14497 -1.53898 0
M  V30 19 H 1.9638 2.40128 1.68673 0
M  V30 20 H 1.96004 1.00489 2.79682 0
M  V30 21 H -3.16737 1.78425 0.276489 0
M  V30 22 H -4.08797 0.184919 0.322214 0
M  V30 23 H -2.91787 0.635588 1.6284 0
M  V30 24 H -1.77473 -0.329954 -2.32678 0
M  V30 25 H -3.18212 0.604975 -1.84162 0
M  V30 26 H -1.61618 1.43639 -1.82856 0
M  V30 27 H -2.05004 -1.79553 0.968147 0
M  V30 28 H -1.78274 -2.02056 -0.85065 0
M  V30 29 H -3.35075 -1.54334 -0.209794 0
M  V30 END ATOM
M  V30 BEGIN BOND
M  V30 1 1 1 2
M  V30 2 2 2 3
M  V30 3 1 3 4
M  V30 4 2 4 5
M  V30 5 1 5 6
M  V30 6 2 6 7
M  V30 7 1 6 8
M  V30 8 1 5 9
M  V30 9 2 9 10
M  V30 10 2 9 11
M  V30 11 1 9 12
M  V30 12 1 12 13
M  V30 13 1 12 14
M  V30 14 1 12 15
M  V30 15 1 7 2
M  V30 16 1 1 16
M  V30 17 1 1 17
M  V30 18 1 4 18
M  V30 19 1 8 19
M  V30 20 1 8 20
M  V30 21 1 13 21
M  V30 22 1 13 22
M  V30 23 1 13 23
M  V30 24 1 14 24
M  V30 25 1 14 25
M  V30 26 1 14 26
M  V30 27 1 15 27
M  V30 28 1 15 28
M  V30 29 1 15 29
M  V30 END BOND
M  V30 END CTAB
M  END
