
     RDKit          3D

  0  0  0  0  0  0  0  0  0  0999 V3000
M  V30 BEGIN CTAB
M  V30 COUNTS 36 37 0 0 0
M  V30 BEGIN ATOM
M  V30 1 N 5.2001 0.264976 1.86312 0
M  V30 2 C 4.85274 0.138163 0.484682 0
M  V30 3 C 3.42714 -0.39827 0.358007 0
M  V30 4 C 3.12404 -0.508194 -1.09848 0
M  V30 5 C 1.75404 -1.02312 -1.40796 0 CFG=2
M  V30 6 C 0.685937 -0.153933 -0.848868 0
M  V30 7 O 0.766166 1.03798 -0.321044 0
M  V30 8 N -0.394212 1.46262 0.0508119 0
M  V30 9 C -1.32964 0.518848 -0.232325 0
M  V30 10 N -0.615928 -0.489962 -0.7999 0
M  V30 11 N -2.72897 0.5831 0.0130842 0
M  V30 12 C -3.526 -0.561791 -0.381923 0
M  V30 13 C -4.92417 -0.492612 0.186777 0
M  V30 14 O -5.38983 0.80115 0.0630579 0
M  V30 15 C -4.72895 1.65223 0.944366 0
M  V30 16 C -3.26044 1.76647 0.630922 0
M  V30 17 N 1.52552 -2.35641 -0.892406 0
M  V30 18 H 5.85365 0.987428 2.00997 0
M  V30 19 H 4.41956 0.10325 2.46695 0
M  V30 20 H 4.91609 1.17172 0.0469477 0
M  V30 21 H 5.56099 -0.483807 -0.0817754 0
M  V30 22 H 2.72149 0.206306 0.926158 0
M  V30 23 H 3.4745 -1.44051 0.777548 0
M  V30 24 H 3.85608 -1.20936 -1.5485 0
M  V30 25 H 3.21329 0.501213 -1.54397 0
M  V30 26 H 1.67265 -1.09884 -2.51721 0
M  V30 27 H -3.50657 -0.738235 -1.47054 0
M  V30 28 H -3.06011 -1.48503 0.0732233 0
M  V30 29 H -4.94174 -0.883844 1.21761 0
M  V30 30 H -5.56328 -1.1215 -0.499229 0
M  V30 31 H -5.25097 2.61013 0.991512 0
M  V30 32 H -4.81681 1.18512 1.95305 0
M  V30 33 H -3.15426 2.66529 -0.0392218 0
M  V30 34 H -2.6484 1.98563 1.52981 0
M  V30 35 H 2.26049 -2.70267 -0.268913 0
M  V30 36 H 0.555829 -2.49353 -0.581667 0
M  V30 END ATOM
M  V30 BEGIN BOND
M  V30 1 1 1 2
M  V30 2 1 2 3
M  V30 3 1 3 4
M  V30 4 1 4 5
M  V30 5 1 5 6
M  V30 6 1 6 7
M  V30 7 1 7 8
M  V30 8 2 8 9
M  V30 9 1 9 10
M  V30 10 1 9 11
M  V30 11 1 11 12
M  V30 12 1 12 13
M  V30 13 1 13 14
M  V30 14 1 14 15
M  V30 15 1 15 16
M  V30 16 1 5 17
M  V30 17 2 10 6
M  V30 18 1 16 11
M  V30 19 1 1 18
M  V30 20 1 1 19
M  V30 21 1 2 20
M  V30 22 1 2 21
M  V30 23 1 3 22
M  V30 24 1 3 23
M  V30 25 1 4 24
M  V30 26 1 4 25
M  V30 27 1 5 26 CFG=3
M  V30 28 1 12 27
M  V30 29 1 12 28
M  V30 30 1 13 29
M  V30 31 1 13 30
M  V30 32 1 15 31
M  V30 33 1 15 32
M  V30 34 1 16 33
M  V30 35 1 16 34
M  V30 36 1 17 35
M  V30 37 1 17 36
M  V30 END BOND
M  V30 END CTAB
M  END
