
     RDKit          3D

  0  0  0  0  0  0  0  0  0  0999 V3000
M  V30 BEGIN CTAB
M  V30 COUNTS 23 23 0 0 0
M  V30 BEGIN ATOM
M  V30 1 N 3.05275 -0.0412731 -0.0949261 0
M  V30 2 C 1.92324 0.692098 -0.481037 0
M  V30 3 C 0.71208 0.188523 0.316209 0 CFG=2
M  V30 4 C 0.541954 -1.27564 -0.00909377 0
M  V30 5 C -0.721722 -1.78666 0.577909 0
M  V30 6 C -1.82255 -1.07086 0.375526 0
M  V30 7 C -1.68136 0.195131 -0.433262 0 CFG=2
M  V30 8 C -0.505002 1.00106 0.0580453 0
M  V30 9 N -2.88219 0.970184 -0.179345 0
M  V30 10 H 3.90132 0.0568162 -0.524745 0
M  V30 11 H 2.96473 -0.538268 0.727953 0
M  V30 12 H 2.062 1.78141 -0.342663 0
M  V30 13 H 1.77283 0.513421 -1.56567 0
M  V30 14 H 0.963563 0.255274 1.3949 0
M  V30 15 H 0.556768 -1.38059 -1.12412 0
M  V30 16 H 1.42241 -1.83064 0.375481 0
M  V30 17 H -0.722654 -2.71502 1.14884 0
M  V30 18 H -2.77373 -1.3937 0.779343 0
M  V30 19 H -1.60955 -0.0371155 -1.52162 0
M  V30 20 H -0.853723 1.52679 0.990372 0
M  V30 21 H -0.312139 1.80225 -0.676759 0
M  V30 22 H -3.15317 1.55352 -1.0008 0
M  V30 23 H -2.83584 1.5333 0.682928 0
M  V30 END ATOM
M  V30 BEGIN BOND
M  V30 1 1 1 2
M  V30 2 1 2 3
M  V30 3 1 3 4
M  V30 4 1 4 5
M  V30 5 2 5 6
M  V30 6 1 6 7
M  V30 7 1 7 8
M  V30 8 1 7 9
M  V30 9 1 8 3
M  V30 10 1 1 10
M  V30 11 1 1 11
M  V30 12 1 2 12
M  V30 13 1 2 13
M  V30 14 1 3 14 CFG=1
M  V30 15 1 4 15
M  V30 16 1 4 16
M  V30 17 1 5 17
M  V30 18 1 6 18
M  V30 19 1 7 19 CFG=3
M  V30 20 1 8 20
M  V30 21 1 8 21
M  V30 22 1 9 22
M  V30 23 1 9 23
M  V30 END BOND
M  V30 END CTAB
M  END
