
     RDKit          3D

  0  0  0  0  0  0  0  0  0  0999 V3000
M  V30 BEGIN CTAB
M  V30 COUNTS 27 28 0 0 0
M  V30 BEGIN ATOM
M  V30 1 N 4.43753 0.982433 -1.75355 0
M  V30 2 C 3.27156 0.386541 -1.17432 0
M  V30 3 N 2.83088 0.755555 0.0359212 0
M  V30 4 C 1.72342 0.175084 0.563015 0
M  V30 5 N 1.27486 0.583525 1.86497 0
M  V30 6 C 1.01541 -0.793621 -0.0977084 0
M  V30 7 C -0.191292 -1.42464 0.462086 0
M  V30 8 C -1.41301 -0.630232 0.38308 0
M  V30 9 C -1.99018 0.0126365 1.44727 0
M  V30 10 C -3.14522 0.765154 1.30765 0
M  V30 11 Br -3.93176 1.65247 2.80615 0
M  V30 12 C -3.75473 0.889506 0.0774768 0
M  V30 13 C -3.18394 0.247809 -0.997729 0
M  V30 14 C -2.0338 -0.501231 -0.85882 0
M  V30 15 C 1.49261 -1.16664 -1.3639 0
M  V30 16 N 2.58271 -0.568146 -1.83684 0
M  V30 17 H 4.60631 1.97866 -1.57082 0
M  V30 18 H 5.0663 0.409448 -2.32797 0
M  V30 19 H 1.1299 1.59066 2.04301 0
M  V30 20 H 1.09875 -0.106656 2.61178 0
M  V30 21 H -0.340529 -2.44394 0.0126068 0
M  V30 22 H 0.0568198 -1.65581 1.54043 0
M  V30 23 H -1.56917 -0.0539086 2.44428 0
M  V30 24 H -4.65855 1.48445 -0.00734277 0
M  V30 25 H -3.67352 0.352332 -1.96407 0
M  V30 26 H -1.63408 -0.983846 -1.75203 0
M  V30 27 H 0.932716 -1.9376 -1.89462 0
M  V30 END ATOM
M  V30 BEGIN BOND
M  V30 1 1 1 2
M  V30 2 2 2 3
M  V30 3 1 3 4
M  V30 4 1 4 5
M  V30 5 2 4 6
M  V30 6 1 6 7
M  V30 7 1 7 8
M  V30 8 2 8 9
M  V30 9 1 9 10
M  V30 10 1 10 11
M  V30 11 2 10 12
M  V30 12 1 12 13
M  V30 13 2 13 14
M  V30 14 1 6 15
M  V30 15 2 15 16
M  V30 16 1 16 2
M  V30 17 1 14 8
M  V30 18 1 1 17
M  V30 19 1 1 18
M  V30 20 1 5 19
M  V30 21 1 5 20
M  V30 22 1 7 21
M  V30 23 1 7 22
M  V30 24 1 9 23
M  V30 25 1 12 24
M  V30 26 1 13 25
M  V30 27 1 14 26
M  V30 28 1 15 27
M  V30 END BOND
M  V30 END CTAB
M  END
