
     RDKit          3D

  0  0  0  0  0  0  0  0  0  0999 V3000
M  V30 BEGIN CTAB
M  V30 COUNTS 41 41 0 0 0
M  V30 BEGIN ATOM
M  V30 1 N -3.87136 -3.40932 0.468054 0
M  V30 2 C -2.75488 -2.5028 0.655239 0
M  V30 3 C -2.88076 -1.29651 -0.205397 0
M  V30 4 N -1.84206 -0.344556 -0.0992962 0
M  V30 5 C -1.71363 0.382355 1.09422 0
M  V30 6 C -2.82163 1.34073 1.41384 0
M  V30 7 N -3.05567 2.37209 0.468077 0
M  V30 8 C -1.3559 0.163257 -1.30322 0
M  V30 9 C -0.164614 1.06314 -1.25633 0
M  V30 10 N 0.996209 0.390991 -0.689171 0
M  V30 11 C 2.13643 1.30891 -0.640015 0
M  V30 12 C 3.32814 0.633651 -0.0782464 0
M  V30 13 C 3.44272 0.484976 1.29075 0
M  V30 14 C 4.553 -0.147791 1.83447 0
M  V30 15 C 5.54851 -0.632234 1.01157 0
M  V30 16 C 5.45115 -0.493228 -0.352075 0
M  V30 17 C 4.3303 0.144525 -0.882894 0
M  V30 18 H -4.53419 -2.98611 -0.197913 0
M  V30 19 H -4.34834 -3.61869 1.37315 0
M  V30 20 H -1.84268 -3.08415 0.375546 0
M  V30 21 H -2.67478 -2.29676 1.7315 0
M  V30 22 H -2.95413 -1.62337 -1.26327 0
M  V30 23 H -3.84632 -0.798128 0.0276527 0
M  V30 24 H -0.795729 1.00446 1.03753 0
M  V30 25 H -1.57863 -0.259329 1.99574 0
M  V30 26 H -2.51844 1.84587 2.3823 0
M  V30 27 H -3.7767 0.832129 1.65875 0
M  V30 28 H -2.57036 3.27107 0.682193 0
M  V30 29 H -4.07586 2.59957 0.456224 0
M  V30 30 H -1.0557 -0.70874 -1.9598 0
M  V30 31 H -2.12337 0.69096 -1.93063 0
M  V30 32 H -0.333095 2.04236 -0.776235 0
M  V30 33 H 0.109409 1.28803 -2.33041 0
M  V30 34 H 1.25033 -0.410347 -1.31191 0
M  V30 35 H 2.34449 1.74514 -1.61934 0
M  V30 36 H 1.80036 2.15439 0.0227273 0
M  V30 37 H 2.69056 0.847251 1.96537 0
M  V30 38 H 4.59489 -0.240604 2.90401 0
M  V30 39 H 6.40042 -1.11863 1.44942 0
M  V30 40 H 6.21893 -0.867037 -1.01347 0
M  V30 41 H 4.29301 0.232483 -1.9552 0
M  V30 END ATOM
M  V30 BEGIN BOND
M  V30 1 1 1 2
M  V30 2 1 2 3
M  V30 3 1 3 4
M  V30 4 1 4 5
M  V30 5 1 5 6
M  V30 6 1 6 7
M  V30 7 1 4 8
M  V30 8 1 8 9
M  V30 9 1 9 10
M  V30 10 1 10 11
M  V30 11 1 11 12
M  V30 12 2 12 13
M  V30 13 1 13 14
M  V30 14 2 14 15
M  V30 15 1 15 16
M  V30 16 2 16 17
M  V30 17 1 17 12
M  V30 18 1 1 18
M  V30 19 1 1 19
M  V30 20 1 2 20
M  V30 21 1 2 21
M  V30 22 1 3 22
M  V30 23 1 3 23
M  V30 24 1 5 24
M  V30 25 1 5 25
M  V30 26 1 6 26
M  V30 27 1 6 27
M  V30 28 1 7 28
M  V30 29 1 7 29
M  V30 30 1 8 30
M  V30 31 1 8 31
M  V30 32 1 9 32
M  V30 33 1 9 33
M  V30 34 1 10 34
M  V30 35 1 11 35
M  V30 36 1 11 36
M  V30 37 1 13 37
M  V30 38 1 14 38
M  V30 39 1 15 39
M  V30 40 1 16 40
M  V30 41 1 17 41
M  V30 END BOND
M  V30 END CTAB
M  END
