
     RDKit          3D

  0  0  0  0  0  0  0  0  0  0999 V3000
M  V30 BEGIN CTAB
M  V30 COUNTS 26 26 0 0 0
M  V30 BEGIN ATOM
M  V30 1 O -3.6622 1.12242 0.0507316 0
M  V30 2 C -3.43741 -0.246827 0.065163 0
M  V30 3 C -2.06514 -0.512414 -0.569791 0
M  V30 4 C -1.05964 0.223856 0.273807 0
M  V30 5 C 0.318087 0.07989 -0.191166 0
M  V30 6 C 0.635037 -0.365073 -1.46606 0
M  V30 7 C 1.96078 -0.473834 -1.82909 0
M  V30 8 C 2.97896 -0.143937 -0.935488 0
M  V30 9 C 2.67122 0.301261 0.339697 0
M  V30 10 C 1.34359 0.400615 0.676125 0
M  V30 11 N 3.68841 0.641401 1.26239 0
M  V30 12 N -1.15745 -0.346876 1.62591 0
M  V30 13 H -3.19993 1.48866 -0.769357 0
M  V30 14 H -4.22728 -0.8348 -0.414248 0
M  V30 15 H -3.41782 -0.545698 1.14777 0
M  V30 16 H -2.11235 -0.161383 -1.60993 0
M  V30 17 H -1.90744 -1.60838 -0.567952 0
M  V30 18 H -1.33908 1.29031 0.271166 0
M  V30 19 H -0.128122 -0.621055 -2.16056 0
M  V30 20 H 2.25668 -0.816072 -2.81178 0
M  V30 21 H 4.01521 -0.233176 -1.2312 0
M  V30 22 H 1.13859 0.75707 1.69542 0
M  V30 23 H 4.06293 1.60839 1.26018 0
M  V30 24 H 4.04362 -0.0727709 1.92297 0
M  V30 25 H -0.760834 0.317542 2.3195 0
M  V30 26 H -0.638423 -1.24912 1.6458 0
M  V30 END ATOM
M  V30 BEGIN BOND
M  V30 1 1 1 2
M  V30 2 1 2 3
M  V30 3 1 3 4
M  V30 4 1 4 5
M  V30 5 2 5 6
M  V30 6 1 6 7
M  V30 7 2 7 8
M  V30 8 1 8 9
M  V30 9 2 9 10
M  V30 10 1 9 11
M  V30 11 1 4 12
M  V30 12 1 10 5
M  V30 13 1 1 13
M  V30 14 1 2 14
M  V30 15 1 2 15
M  V30 16 1 3 16
M  V30 17 1 3 17
M  V30 18 1 4 18
M  V30 19 1 6 19
M  V30 20 1 7 20
M  V30 21 1 8 21
M  V30 22 1 10 22
M  V30 23 1 11 23
M  V30 24 1 11 24
M  V30 25 1 12 25
M  V30 26 1 12 26
M  V30 END BOND
M  V30 END CTAB
M  END
