
     RDKit          3D

  0  0  0  0  0  0  0  0  0  0999 V3000
M  V30 BEGIN CTAB
M  V30 COUNTS 20 20 0 0 0
M  V30 BEGIN ATOM
M  V30 1 N -1.20259 2.29018 0.518786 0
M  V30 2 C -0.496344 1.09541 0.253758 0
M  V30 3 C -1.24815 -0.0430798 -0.0449696 0
M  V30 4 N -2.67298 -0.00956133 -0.10055 0
M  V30 5 C -0.645576 -1.24953 -0.312423 0
M  V30 6 C 0.731687 -1.28504 -0.274899 0
M  V30 7 C 1.48977 -0.150317 0.0237224 0
M  V30 8 C 0.875005 1.04734 0.290458 0
M  V30 9 C 2.97889 -0.244015 0.0504269 0
M  V30 10 F 3.39222 -0.675787 -1.21258 0
M  V30 11 F 3.39909 -1.1298 0.99587 0
M  V30 12 F 3.48763 1.03369 0.219554 0
M  V30 13 C -1.4149 -2.44442 -0.617719 0
M  V30 14 N -2.04279 -3.3969 -0.840571 0
M  V30 15 H -1.55618 2.45431 1.47402 0
M  V30 16 H -1.34918 2.96673 -0.252914 0
M  V30 17 H -3.23243 -0.494178 -0.832615 0
M  V30 18 H -3.1671 0.523303 0.626571 0
M  V30 19 H 1.20815 -2.23219 -0.488529 0
M  V30 20 H 1.46578 1.94385 0.524611 0
M  V30 END ATOM
M  V30 BEGIN BOND
M  V30 1 1 1 2
M  V30 2 2 2 3
M  V30 3 1 3 4
M  V30 4 1 3 5
M  V30 5 2 5 6
M  V30 6 1 6 7
M  V30 7 2 7 8
M  V30 8 1 7 9
M  V30 9 1 9 10
M  V30 10 1 9 11
M  V30 11 1 9 12
M  V30 12 1 5 13
M  V30 13 3 13 14
M  V30 14 1 8 2
M  V30 15 1 1 15
M  V30 16 1 1 16
M  V30 17 1 4 17
M  V30 18 1 4 18
M  V30 19 1 6 19
M  V30 20 1 8 20
M  V30 END BOND
M  V30 END CTAB
M  END
