
     RDKit          3D

  0  0  0  0  0  0  0  0  0  0999 V3000
M  V30 BEGIN CTAB
M  V30 COUNTS 18 18 0 0 0
M  V30 BEGIN ATOM
M  V30 1 O -2.7286 1.45194 1.29067 0 CHG=-1
M  V30 2 N -2.28746 0.979842 0.0791149 0 CHG=1
M  V30 3 O -2.90266 1.36497 -0.928367 0
M  V30 4 C -1.17918 0.0887674 -0.0538917 0
M  V30 5 C -1.41215 -1.24582 -0.345805 0
M  V30 6 F -2.65651 -1.71861 -0.520769 0
M  V30 7 C -0.307955 -2.07421 -0.455724 0
M  V30 8 C 0.983271 -1.61402 -0.28571 0
M  V30 9 C 1.21281 -0.289822 0.00379339 0
M  V30 10 C 0.123927 0.538896 0.114195 0
M  V30 11 N 0.349221 1.91345 0.404767 0
M  V30 12 N 2.51217 0.248891 0.191401 0
M  V30 13 H -0.49313 -3.10361 -0.68107 0
M  V30 14 H 1.8436 -2.25347 -0.372497 0
M  V30 15 H 0.0728791 2.377 1.27194 0
M  V30 16 H 0.837704 2.49404 -0.336198 0
M  V30 17 H 2.96945 0.965047 -0.385485 0
M  V30 18 H 3.06261 -0.123289 1.00964 0
M  V30 END ATOM
M  V30 BEGIN BOND
M  V30 1 1 1 2
M  V30 2 2 2 3
M  V30 3 1 2 4
M  V30 4 2 4 5
M  V30 5 1 5 6
M  V30 6 1 5 7
M  V30 7 2 7 8
M  V30 8 1 8 9
M  V30 9 2 9 10
M  V30 10 1 10 11
M  V30 11 1 9 12
M  V30 12 1 10 4
M  V30 13 1 7 13
M  V30 14 1 8 14
M  V30 15 1 11 15
M  V30 16 1 11 16
M  V30 17 1 12 17
M  V30 18 1 12 18
M  V30 END BOND
M  V30 END CTAB
M  END
