
     RDKit          3D

  0  0  0  0  0  0  0  0  0  0999 V3000
M  V30 BEGIN CTAB
M  V30 COUNTS 29 30 0 0 0
M  V30 BEGIN ATOM
M  V30 1 N 2.63465 -1.95512 -1.67505 0
M  V30 2 C 2.36176 -0.814694 -0.875582 0
M  V30 3 C 3.36086 0.0630636 -0.527784 0
M  V30 4 C 3.08365 1.16691 0.248967 0
M  V30 5 N 4.13156 2.09113 0.616296 0
M  V30 6 C 1.79949 1.36666 0.66198 0
M  V30 7 C 0.718006 0.523928 0.354482 0
M  V30 8 C 1.06157 -0.557147 -0.42097 0
M  V30 9 C -0.592902 0.821349 0.879142 0
M  V30 10 O -0.601125 1.80862 1.72546 0
M  V30 11 C -1.84795 0.163009 0.573373 0
M  V30 12 C -3.00042 0.521471 1.17072 0
M  V30 13 C -4.12557 -0.293341 0.695785 0
M  V30 14 C -3.64167 -0.899077 -0.576707 0
M  V30 15 C -2.13235 -0.896762 -0.400456 0
M  V30 16 H 2.38924 -2.05894 -2.67976 0
M  V30 17 H 3.1203 -2.75354 -1.21882 0
M  V30 18 H 4.38141 -0.0924051 -0.854378 0
M  V30 19 H 3.98398 3.09777 0.342994 0
M  V30 20 H 4.9773 1.76579 1.12156 0
M  V30 21 H 1.58314 2.23393 1.26919 0
M  V30 22 H 0.336704 -1.27783 -0.700204 0
M  V30 23 H -3.04474 1.32259 1.90939 0
M  V30 24 H -4.4076 -1.08194 1.45717 0
M  V30 25 H -5.00648 0.37498 0.547821 0
M  V30 26 H -4.05838 -1.90159 -0.714223 0
M  V30 27 H -3.91722 -0.191594 -1.40928 0
M  V30 28 H -1.7018 -0.642041 -1.41616 0
M  V30 29 H -1.84539 -1.90519 -0.104956 0
M  V30 END ATOM
M  V30 BEGIN BOND
M  V30 1 1 1 2
M  V30 2 2 2 3
M  V30 3 1 3 4
M  V30 4 1 4 5
M  V30 5 2 4 6
M  V30 6 1 6 7
M  V30 7 2 7 8
M  V30 8 1 7 9
M  V30 9 2 9 10
M  V30 10 1 9 11
M  V30 11 2 11 12
M  V30 12 1 12 13
M  V30 13 1 13 14
M  V30 14 1 14 15
M  V30 15 1 8 2
M  V30 16 1 15 11
M  V30 17 1 1 16
M  V30 18 1 1 17
M  V30 19 1 3 18
M  V30 20 1 5 19
M  V30 21 1 5 20
M  V30 22 1 6 21
M  V30 23 1 8 22
M  V30 24 1 12 23
M  V30 25 1 13 24
M  V30 26 1 13 25
M  V30 27 1 14 26
M  V30 28 1 14 27
M  V30 29 1 15 28
M  V30 30 1 15 29
M  V30 END BOND
M  V30 END CTAB
M  END
