
     RDKit          3D

  0  0  0  0  0  0  0  0  0  0999 V3000
M  V30 BEGIN CTAB
M  V30 COUNTS 37 38 0 0 0
M  V30 BEGIN ATOM
M  V30 1 S -0.673768 -2.17374 0.160265 0
M  V30 2 C -0.343184 -0.590342 0.0386715 0
M  V30 3 N -1.31235 0.387791 -0.156351 0
M  V30 4 C -2.70352 0.320573 -0.291909 0
M  V30 5 C -3.47579 -0.823174 -0.258524 0
M  V30 6 C -4.86128 -0.792103 -0.403123 0
M  V30 7 C -5.50898 0.405296 -0.586852 0
M  V30 8 C -4.74007 1.54021 -0.61972 0
M  V30 9 C -3.3795 1.54549 -0.481234 0
M  V30 10 N -2.6821 2.79079 -0.532255 0
M  V30 11 C -6.98729 0.425407 -0.739849 0
M  V30 12 N 1.03407 -0.152196 0.136413 0
M  V30 13 C 2.09347 -1.06029 0.333778 0
M  V30 14 O 1.86396 -2.31373 0.433323 0
M  V30 15 C 3.47873 -0.645375 0.434616 0
M  V30 16 C 4.50204 -1.58472 0.631445 0
M  V30 17 C 5.82139 -1.20492 0.728986 0
M  V30 18 C 6.17357 0.123294 0.634546 0
M  V30 19 C 5.16586 1.05232 0.440325 0
M  V30 20 C 3.82224 0.679384 0.33963 0
M  V30 21 N 7.53602 0.550897 0.73179 0
M  V30 22 H -0.906616 1.40045 -0.214267 0
M  V30 23 H -3.04029 -1.77549 -0.120546 0
M  V30 24 H -5.44667 -1.70856 -0.372954 0
M  V30 25 H -5.26806 2.47422 -0.765369 0
M  V30 26 H -2.15426 3.05958 0.325579 0
M  V30 27 H -2.67313 3.41553 -1.34286 0
M  V30 28 H -7.37919 -0.390515 -0.072349 0
M  V30 29 H -7.30889 0.211696 -1.77481 0
M  V30 30 H -7.32521 1.42347 -0.385681 0
M  V30 31 H 1.21893 0.86038 0.0559446 0
M  V30 32 H 4.27118 -2.64236 0.711701 0
M  V30 33 H 6.6245 -1.9373 0.882996 0
M  V30 34 H 5.39742 2.11034 0.36009 0
M  V30 35 H 3.10911 1.47048 0.189066 0
M  V30 36 H 7.72304 1.5402 1.04324 0
M  V30 37 H 8.3346 -0.0804814 0.506249 0
M  V30 END ATOM
M  V30 BEGIN BOND
M  V30 1 2 1 2
M  V30 2 1 2 3
M  V30 3 1 3 4
M  V30 4 2 4 5
M  V30 5 1 5 6
M  V30 6 2 6 7
M  V30 7 1 7 8
M  V30 8 2 8 9
M  V30 9 1 9 10
M  V30 10 1 7 11
M  V30 11 1 2 12
M  V30 12 1 12 13
M  V30 13 2 13 14
M  V30 14 1 13 15
M  V30 15 2 15 16
M  V30 16 1 16 17
M  V30 17 2 17 18
M  V30 18 1 18 19
M  V30 19 2 19 20
M  V30 20 1 18 21
M  V30 21 1 9 4
M  V30 22 1 20 15
M  V30 23 1 3 22
M  V30 24 1 5 23
M  V30 25 1 6 24
M  V30 26 1 8 25
M  V30 27 1 10 26
M  V30 28 1 10 27
M  V30 29 1 11 28
M  V30 30 1 11 29
M  V30 31 1 11 30
M  V30 32 1 12 31
M  V30 33 1 16 32
M  V30 34 1 17 33
M  V30 35 1 19 34
M  V30 36 1 20 35
M  V30 37 1 21 36
M  V30 38 1 21 37
M  V30 END BOND
M  V30 END CTAB
M  END
