
     RDKit          3D

  0  0  0  0  0  0  0  0  0  0999 V3000
M  V30 BEGIN CTAB
M  V30 COUNTS 59 62 0 0 0
M  V30 BEGIN ATOM
M  V30 1 C -6.07517 3.20708 -1.35844 0
M  V30 2 O -6.2389 1.83387 -1.05987 0
M  V30 3 C -5.23201 1.02638 -0.567605 0
M  V30 4 C -4.40152 0.434893 -1.44415 0
M  V30 5 O -4.62749 0.689925 -2.7912 0
M  V30 6 C -5.64326 0.0415101 -3.49776 0
M  V30 7 C -3.33505 -0.421722 -0.97251 0
M  V30 8 O -2.61447 -0.979879 -1.76603 0
M  V30 9 C -3.15615 -0.632308 0.444941 0
M  V30 10 C -4.09218 0.0385279 1.3865 0
M  V30 11 C -5.0466 0.801896 0.856389 0
M  V30 12 C -2.00768 -1.06035 0.941613 0
M  V30 13 C -1.97382 -1.33354 2.40408 0
M  V30 14 C -3.23279 -1.79952 3.03233 0
M  V30 15 C -0.818294 -1.4153 3.0208 0
M  V30 16 N 0.415768 -1.25111 2.26529 0
M  V30 17 C 0.378845 -1.00155 0.885837 0
M  V30 18 C -0.783179 -0.892255 0.180532 0
M  V30 19 N -0.54058 -0.44766 -1.09422 0
M  V30 20 C 1.69944 -0.917838 0.239809 0
M  V30 21 N 2.6127 -0.0163947 0.650824 0
M  V30 22 C 3.85407 0.105924 0.162835 0
M  V30 23 C 4.23456 -0.753834 -0.838234 0
M  V30 24 C 3.35827 -1.70297 -1.31213 0
M  V30 25 C 2.07593 -1.77714 -0.757873 0
M  V30 26 C 5.58874 -0.663063 -1.41059 0
M  V30 27 O 5.94242 -1.44306 -2.32236 0
M  V30 28 C 6.52236 0.351077 -0.902507 0
M  V30 29 O 7.80681 0.456801 -1.42656 0
M  V30 30 C 8.0345 1.33956 -2.50791 0
M  V30 31 C 6.16556 1.19598 0.0723562 0
M  V30 32 N 7.12107 2.1522 0.514478 0
M  V30 33 C 4.82833 1.08884 0.62142 0
M  V30 34 O 4.50046 1.88537 1.53724 0
M  V30 35 C -0.720791 -1.64403 4.4441 0
M  V30 36 O -1.76662 -1.79196 5.28399 0
M  V30 37 O 0.447333 -1.71333 4.95658 0
M  V30 38 H -5.77198 3.80275 -0.462535 0
M  V30 39 H -5.25402 3.34448 -2.11735 0
M  V30 40 H -6.99719 3.61674 -1.8116 0
M  V30 41 H -6.64313 0.251684 -3.05166 0
M  V30 42 H -5.6868 0.394459 -4.54809 0
M  V30 43 H -5.53612 -1.07486 -3.47342 0
M  V30 44 H -3.9987 0.0181209 2.39552 0
M  V30 45 H -5.74155 1.29443 1.55683 0
M  V30 46 H -3.97396 -2.26806 2.33947 0
M  V30 47 H -3.57972 -1.3616 3.94178 0
M  V30 48 H -2.88607 -2.82606 3.47766 0
M  V30 49 H 1.32083 -1.3239 2.76657 0
M  V30 50 H -0.186046 -1.08113 -1.85837 0
M  V30 51 H -0.618936 0.560648 -1.43079 0
M  V30 52 H 3.63368 -2.37865 -2.08693 0
M  V30 53 H 1.39728 -2.55761 -1.13615 0
M  V30 54 H 9.10472 1.31113 -2.81093 0
M  V30 55 H 7.38295 1.1044 -3.37334 0
M  V30 56 H 7.79914 2.3709 -2.17652 0
M  V30 57 H 7.77067 1.93698 1.31826 0
M  V30 58 H 7.23467 3.09399 0.0852796 0
M  V30 59 H -2.05034 -1.21988 6.04236 0
M  V30 END ATOM
M  V30 BEGIN BOND
M  V30 1 1 1 2
M  V30 2 1 2 3
M  V30 3 2 3 4
M  V30 4 1 4 5
M  V30 5 1 5 6
M  V30 6 1 4 7
M  V30 7 2 7 8
M  V30 8 1 7 9
M  V30 9 1 9 10
M  V30 10 2 10 11
M  V30 11 2 9 12
M  V30 12 1 12 13
M  V30 13 1 13 14
M  V30 14 2 13 15
M  V30 15 1 15 16
M  V30 16 1 16 17
M  V30 17 2 17 18
M  V30 18 1 18 19
M  V30 19 1 17 20
M  V30 20 2 20 21
M  V30 21 1 21 22
M  V30 22 2 22 23
M  V30 23 1 23 24
M  V30 24 2 24 25
M  V30 25 1 23 26
M  V30 26 2 26 27
M  V30 27 1 26 28
M  V30 28 1 28 29
M  V30 29 1 29 30
M  V30 30 2 28 31
M  V30 31 1 31 32
M  V30 32 1 31 33
M  V30 33 2 33 34
M  V30 34 1 15 35
M  V30 35 1 35 36
M  V30 36 2 35 37
M  V30 37 1 11 3
M  V30 38 1 18 12
M  V30 39 1 25 20
M  V30 40 1 33 22
M  V30 41 1 1 38
M  V30 42 1 1 39
M  V30 43 1 1 40
M  V30 44 1 6 41
M  V30 45 1 6 42
M  V30 46 1 6 43
M  V30 47 1 10 44
M  V30 48 1 11 45
M  V30 49 1 14 46
M  V30 50 1 14 47
M  V30 51 1 14 48
M  V30 52 1 16 49
M  V30 53 1 19 50
M  V30 54 1 19 51
M  V30 55 1 24 52
M  V30 56 1 25 53
M  V30 57 1 30 54
M  V30 58 1 30 55
M  V30 59 1 30 56
M  V30 60 1 32 57
M  V30 61 1 32 58
M  V30 62 1 36 59
M  V30 END BOND
M  V30 END CTAB
M  END
