
     RDKit          3D

  0  0  0  0  0  0  0  0  0  0999 V3000
M  V30 BEGIN CTAB
M  V30 COUNTS 19 19 0 0 0
M  V30 BEGIN ATOM
M  V30 1 C -2.54283 -0.991271 0.764549 0
M  V30 2 C -1.28722 -0.394381 0.250746 0
M  V30 3 C -0.111065 -1.0284 -0.0714782 0
M  V30 4 N 0.778128 -0.122713 -0.499757 0
M  V30 5 N 0.183835 1.03703 -0.448858 0
M  V30 6 C -1.08019 0.96603 -0.00224159 0
M  V30 7 N -2.02802 2.00875 0.186542 0
M  V30 8 S 2.41569 -0.42629 -1.02564 0
M  V30 9 O 2.55541 -0.0573066 -2.46615 0
M  V30 10 O 2.67455 -1.89746 -0.898056 0
M  V30 11 N 3.54924 0.391112 -0.0199709 0
M  V30 12 H -3.37419 -0.898235 0.0178052 0
M  V30 13 H -2.90206 -0.508758 1.68475 0
M  V30 14 H -2.33537 -2.07119 0.986755 0
M  V30 15 H 0.0886062 -2.08175 -6.63047e-05 0
M  V30 16 H -3.04295 1.92207 -0.0294858 0
M  V30 17 H -1.69616 2.9198 0.563968 0
M  V30 18 H 3.70418 1.37895 -0.32798 0
M  V30 19 H 4.45043 -0.145984 0.0128326 0
M  V30 END ATOM
M  V30 BEGIN BOND
M  V30 1 1 1 2
M  V30 2 2 2 3
M  V30 3 1 3 4
M  V30 4 1 4 5
M  V30 5 2 5 6
M  V30 6 1 6 7
M  V30 7 1 4 8
M  V30 8 2 8 9
M  V30 9 2 8 10
M  V30 10 1 8 11
M  V30 11 1 6 2
M  V30 12 1 1 12
M  V30 13 1 1 13
M  V30 14 1 1 14
M  V30 15 1 3 15
M  V30 16 1 7 16
M  V30 17 1 7 17
M  V30 18 1 11 18
M  V30 19 1 11 19
M  V30 END BOND
M  V30 END CTAB
M  END
