
     RDKit          3D

  0  0  0  0  0  0  0  0  0  0999 V3000
M  V30 BEGIN CTAB
M  V30 COUNTS 30 30 0 0 0
M  V30 BEGIN ATOM
M  V30 1 N -0.761831 1.66464 1.28845 0
M  V30 2 C -0.893098 0.839777 0.0988743 0
M  V30 3 C -2.29631 0.89755 -0.411993 0
M  V30 4 C -2.71216 -0.27401 -1.23854 0
M  V30 5 C -2.2153 -1.59758 -0.814275 0
M  V30 6 C -0.727579 -1.57174 -0.572639 0
M  V30 7 C -0.40006 -0.506544 0.440792 0
M  V30 8 C 1.0753 -0.522554 0.712169 0
M  V30 9 N 1.88739 -0.0991598 -0.388763 0
M  V30 10 S 3.5538 -0.175975 0.0710706 0
M  V30 11 O 4.3604 -0.407543 -1.18515 0
M  V30 12 O 3.79025 -1.26894 1.05358 0
M  V30 13 N 4.09168 1.30523 0.765462 0
M  V30 14 H -1.17405 2.61016 1.17029 0
M  V30 15 H -1.09591 1.17152 2.14467 0
M  V30 16 H -0.240374 1.29173 -0.674123 0
M  V30 17 H -2.43011 1.80035 -1.0437 0
M  V30 18 H -2.97498 1.02111 0.45606 0
M  V30 19 H -3.84122 -0.3048 -1.2102 0
M  V30 20 H -2.46683 -0.113269 -2.31307 0
M  V30 21 H -2.77501 -1.98358 0.0592782 0
M  V30 22 H -2.39265 -2.32073 -1.63773 0
M  V30 23 H -0.445775 -2.54611 -0.121284 0
M  V30 24 H -0.237094 -1.35553 -1.52468 0
M  V30 25 H -0.875341 -0.855606 1.40902 0
M  V30 26 H 1.42416 -1.49627 1.11126 0
M  V30 27 H 1.29827 0.213138 1.54575 0
M  V30 28 H 1.69703 0.885267 -0.675477 0
M  V30 29 H 4.36134 2.00261 0.0261828 0
M  V30 30 H 3.41609 1.69687 1.45872 0
M  V30 END ATOM
M  V30 BEGIN BOND
M  V30 1 1 1 2
M  V30 2 1 2 3
M  V30 3 1 3 4
M  V30 4 1 4 5
M  V30 5 1 5 6
M  V30 6 1 6 7
M  V30 7 1 7 8
M  V30 8 1 8 9
M  V30 9 1 9 10
M  V30 10 2 10 11
M  V30 11 2 10 12
M  V30 12 1 10 13
M  V30 13 1 7 2
M  V30 14 1 1 14
M  V30 15 1 1 15
M  V30 16 1 2 16
M  V30 17 1 3 17
M  V30 18 1 3 18
M  V30 19 1 4 19
M  V30 20 1 4 20
M  V30 21 1 5 21
M  V30 22 1 5 22
M  V30 23 1 6 23
M  V30 24 1 6 24
M  V30 25 1 7 25
M  V30 26 1 8 26
M  V30 27 1 8 27
M  V30 28 1 9 28
M  V30 29 1 13 29
M  V30 30 1 13 30
M  V30 END BOND
M  V30 END CTAB
M  END
