
     RDKit          3D

  0  0  0  0  0  0  0  0  0  0999 V3000
M  V30 BEGIN CTAB
M  V30 COUNTS 42 44 0 0 0
M  V30 BEGIN ATOM
M  V30 1 C -0.74901 3.77976 -2.17077 0
M  V30 2 O -1.72913 2.75444 -2.24486 0
M  V30 3 C -1.74139 1.802 -1.22182 0
M  V30 4 C -0.801985 1.85814 -0.18385 0
M  V30 5 C -0.811962 0.922319 0.819507 0
M  V30 6 C 0.168172 0.94636 1.93893 0
M  V30 7 C 1.32046 0.0305333 1.65846 0
M  V30 8 N 2.44043 0.449376 1.0405 0
M  V30 9 C 3.27172 -0.60702 0.932573 0
M  V30 10 C 2.59881 -1.6698 1.51327 0
M  V30 11 N 1.40448 -1.27422 1.95721 0
M  V30 12 N 3.26303 -2.84005 1.49512 0
M  V30 13 C 4.48327 -2.99903 0.962926 0
M  V30 14 N 5.07609 -4.27517 0.980821 0
M  V30 15 N 5.11883 -1.92252 0.398366 0
M  V30 16 C 4.52819 -0.710394 0.372714 0
M  V30 17 N 5.17503 0.416372 -0.190328 0
M  V30 18 C -1.76929 -0.0597567 0.766829 0
M  V30 19 C -2.73647 -0.156352 -0.258339 0
M  V30 20 O -3.64774 -1.07936 -0.318654 0
M  V30 21 C -4.16017 -2.1875 0.273586 0
M  V30 22 C -2.6777 0.832841 -1.2636 0
M  V30 23 O -3.63549 0.732703 -2.28172 0
M  V30 24 C -4.90987 1.31076 -2.18396 0
M  V30 25 H 0.263525 3.40166 -2.34874 0
M  V30 26 H -0.833066 4.30351 -1.18162 0
M  V30 27 H -0.93544 4.59358 -2.93003 0
M  V30 28 H -0.063356 2.65063 -0.183964 0
M  V30 29 H 0.560717 2.00412 1.97715 0
M  V30 30 H -0.28198 0.779386 2.90563 0
M  V30 31 H 0.7048 -1.86731 2.43287 0
M  V30 32 H 5.20574 -4.77631 1.86713 0
M  V30 33 H 5.39954 -4.74092 0.0809455 0
M  V30 34 H 6.05656 0.785695 0.243284 0
M  V30 35 H 4.80624 0.895981 -1.02979 0
M  V30 36 H -1.76257 -0.794927 1.57284 0
M  V30 37 H -4.78014 -1.99221 1.18209 0
M  V30 38 H -4.76096 -2.86017 -0.361612 0
M  V30 39 H -3.26917 -2.8108 0.580275 0
M  V30 40 H -5.69695 0.506654 -2.22781 0
M  V30 41 H -5.11405 2.11903 -2.8912 0
M  V30 42 H -4.97779 1.74797 -1.14256 0
M  V30 END ATOM
M  V30 BEGIN BOND
M  V30 1 1 1 2
M  V30 2 1 2 3
M  V30 3 2 3 4
M  V30 4 1 4 5
M  V30 5 1 5 6
M  V30 6 1 6 7
M  V30 7 2 7 8
M  V30 8 1 8 9
M  V30 9 2 9 10
M  V30 10 1 10 11
M  V30 11 1 10 12
M  V30 12 2 12 13
M  V30 13 1 13 14
M  V30 14 1 13 15
M  V30 15 2 15 16
M  V30 16 1 16 17
M  V30 17 2 5 18
M  V30 18 1 18 19
M  V30 19 1 19 20
M  V30 20 1 20 21
M  V30 21 2 19 22
M  V30 22 1 22 23
M  V30 23 1 23 24
M  V30 24 1 22 3
M  V30 25 1 11 7
M  V30 26 1 16 9
M  V30 27 1 1 25
M  V30 28 1 1 26
M  V30 29 1 1 27
M  V30 30 1 4 28
M  V30 31 1 6 29
M  V30 32 1 6 30
M  V30 33 1 11 31
M  V30 34 1 14 32
M  V30 35 1 14 33
M  V30 36 1 17 34
M  V30 37 1 17 35
M  V30 38 1 18 36
M  V30 39 1 21 37
M  V30 40 1 21 38
M  V30 41 1 21 39
M  V30 42 1 24 40
M  V30 43 1 24 41
M  V30 44 1 24 42
M  V30 END BOND
M  V30 END CTAB
M  END
