
     RDKit          3D

  0  0  0  0  0  0  0  0  0  0999 V3000
M  V30 BEGIN CTAB
M  V30 COUNTS 12 11 0 0 0
M  V30 BEGIN ATOM
M  V30 1 N -1.48263 1.16195 -0.127943 0
M  V30 2 C -0.455598 0.194763 -0.067598 0
M  V30 3 N -0.769264 -1.16895 -0.295901 0
M  V30 4 C 0.775476 0.590537 0.201477 0
M  V30 5 N 1.83426 -0.354772 0.270236 0 CHG=1
M  V30 6 O 1.75184 -1.34432 1.19736 0 CHG=-1
M  V30 7 O 2.81665 -0.293467 -0.489027 0
M  V30 8 H -1.35814 2.07172 -0.607027 0
M  V30 9 H -2.38677 0.954411 0.320469 0
M  V30 10 H -1.71523 -1.57528 -0.112412 0
M  V30 11 H -0.0537063 -1.85862 -0.669219 0
M  V30 12 H 1.04313 1.62203 0.379589 0
M  V30 END ATOM
M  V30 BEGIN BOND
M  V30 1 1 1 2
M  V30 2 1 2 3
M  V30 3 2 2 4
M  V30 4 1 4 5
M  V30 5 1 5 6
M  V30 6 2 5 7
M  V30 7 1 1 8
M  V30 8 1 1 9
M  V30 9 1 3 10
M  V30 10 1 3 11
M  V30 11 1 4 12
M  V30 END BOND
M  V30 END CTAB
M  END
