
     RDKit          3D

  0  0  0  0  0  0  0  0  0  0999 V3000
M  V30 BEGIN CTAB
M  V30 COUNTS 54 58 0 0 0
M  V30 BEGIN ATOM
M  V30 1 O -2.66765 -1.1863 0.275086 0
M  V30 2 C -2.36168 0.0281969 0.00686266 0
M  V30 3 C -0.936533 0.30947 -0.0837648 0
M  V30 4 C 0.062001 -0.658983 0.105479 0
M  V30 5 N -0.130336 -2.05335 0.412591 0
M  V30 6 N 1.254 -0.0661943 -0.048526 0
M  V30 7 C 1.04964 1.23115 -0.326033 0
M  V30 8 C -0.322668 1.51106 -0.357799 0
M  V30 9 N -0.744188 2.76685 -0.621941 0
M  V30 10 C 0.087597 3.78413 -0.860815 0
M  V30 11 C -0.360446 5.06181 -1.12942 0
M  V30 12 C 0.5159 6.09865 -1.37375 0
M  V30 13 C 1.86417 5.80989 -1.33952 0
M  V30 14 C 2.3106 4.53332 -1.07115 0
M  V30 15 C 1.44373 3.49359 -0.826408 0
M  V30 16 N 1.89253 2.25379 -0.566304 0
M  V30 17 C 2.51979 -0.730526 0.0690791 0
M  V30 18 C 2.91308 -1.69713 -0.832633 0
M  V30 19 C 4.11164 -2.36438 -0.767629 0
M  V30 20 C 4.98492 -2.05516 0.261749 0
M  V30 21 C 4.62757 -1.08997 1.1884 0
M  V30 22 C 3.41214 -0.438876 1.0909 0
M  V30 23 S 6.52722 -2.88552 0.380696 0
M  V30 24 O 7.09196 -3.21197 -0.963643 0
M  V30 25 O 7.47739 -1.96767 1.09943 0
M  V30 26 N 6.38761 -4.31577 1.34351 0
M  V30 27 N -3.34966 0.994403 -0.180585 0
M  V30 28 C -4.75461 0.832242 -0.11608 0
M  V30 29 C -5.197 -0.522775 0.191896 0
M  V30 30 C -5.38502 -0.870556 1.52958 0
M  V30 31 C -5.82375 -2.11434 1.83622 0
M  V30 32 C -6.08559 -3.03417 0.864323 0
M  V30 33 C -5.90117 -2.69466 -0.45694 0
M  V30 34 C -5.46293 -1.45834 -0.802386 0
M  V30 35 H -0.542571 -2.68268 -0.279237 0
M  V30 36 H 0.172888 -2.35433 1.35869 0
M  V30 37 H -1.436 5.28064 -1.15417 0
M  V30 38 H 0.178365 7.11194 -1.5873 0
M  V30 39 H 2.61384 6.58778 -1.52472 0
M  V30 40 H 3.38228 4.29967 -1.04308 0
M  V30 41 H 2.23434 -1.93977 -1.63549 0
M  V30 42 H 4.41682 -3.12836 -1.48454 0
M  V30 43 H 5.31854 -0.859153 1.98577 0
M  V30 44 H 3.10595 0.315833 1.79556 0
M  V30 45 H 5.66646 -4.22851 2.08046 0
M  V30 46 H 6.26708 -5.17376 0.778591 0
M  V30 47 H -3.00677 1.99126 -0.402547 0
M  V30 48 H -5.26739 1.16086 -1.07368 0
M  V30 49 H -5.13156 1.52507 0.702368 0
M  V30 50 H -5.18342 -0.156156 2.31833 0
M  V30 51 H -5.97533 -2.40096 2.87307 0
M  V30 52 H -6.4379 -4.03369 1.10688 0
M  V30 53 H -6.11832 -3.44874 -1.20733 0
M  V30 54 H -5.30754 -1.15887 -1.82725 0
M  V30 END ATOM
M  V30 BEGIN BOND
M  V30 1 2 1 2
M  V30 2 1 2 3
M  V30 3 2 3 4
M  V30 4 1 4 5
M  V30 5 1 4 6
M  V30 6 1 6 7
M  V30 7 2 7 8
M  V30 8 1 8 9
M  V30 9 2 9 10
M  V30 10 1 10 11
M  V30 11 2 11 12
M  V30 12 1 12 13
M  V30 13 2 13 14
M  V30 14 1 14 15
M  V30 15 2 15 16
M  V30 16 1 6 17
M  V30 17 2 17 18
M  V30 18 1 18 19
M  V30 19 2 19 20
M  V30 20 1 20 21
M  V30 21 2 21 22
M  V30 22 1 20 23
M  V30 23 2 23 24
M  V30 24 2 23 25
M  V30 25 1 23 26
M  V30 26 1 2 27
M  V30 27 1 27 28
M  V30 28 1 28 29
M  V30 29 2 29 30
M  V30 30 1 30 31
M  V30 31 2 31 32
M  V30 32 1 32 33
M  V30 33 2 33 34
M  V30 34 1 8 3
M  V30 35 1 15 10
M  V30 36 1 22 17
M  V30 37 1 34 29
M  V30 38 1 16 7
M  V30 39 1 5 35
M  V30 40 1 5 36
M  V30 41 1 11 37
M  V30 42 1 12 38
M  V30 43 1 13 39
M  V30 44 1 14 40
M  V30 45 1 18 41
M  V30 46 1 19 42
M  V30 47 1 21 43
M  V30 48 1 22 44
M  V30 49 1 26 45
M  V30 50 1 26 46
M  V30 51 1 27 47
M  V30 52 1 28 48
M  V30 53 1 28 49
M  V30 54 1 30 50
M  V30 55 1 31 51
M  V30 56 1 32 52
M  V30 57 1 33 53
M  V30 58 1 34 54
M  V30 END BOND
M  V30 END CTAB
M  END
