
     RDKit          3D

  0  0  0  0  0  0  0  0  0  0999 V3000
M  V30 BEGIN CTAB
M  V30 COUNTS 44 46 0 0 0
M  V30 BEGIN ATOM
M  V30 1 C -3.16873 -3.61889 -1.48873 0
M  V30 2 O -2.615 -2.42957 -0.981447 0
M  V30 3 C -3.24375 -1.26622 -0.675062 0
M  V30 4 C -4.58796 -1.10265 -0.862022 0
M  V30 5 C -5.21923 0.0771218 -0.550699 0
M  V30 6 C -4.49051 1.15065 -0.025248 0
M  V30 7 C -5.14587 2.44163 0.295192 0
M  V30 8 C -3.1157 0.953809 0.157266 0
M  V30 9 C -2.47621 -0.204552 -0.146781 0
M  V30 10 N -1.05705 -0.403416 -0.0158165 0
M  V30 11 C -0.3033 0.313812 0.884008 0
M  V30 12 C 1.04547 0.791054 0.596804 0
M  V30 13 C 2.07838 -0.115817 0.282274 0
M  V30 14 C 1.84464 -1.56016 0.218821 0
M  V30 15 C 3.33882 0.406631 0.137997 0
M  V30 16 C 3.54714 1.79171 0.311557 0
M  V30 17 N 2.55656 2.64148 0.611238 0
M  V30 18 C 1.33641 2.17256 0.750436 0
M  V30 19 N 4.81379 2.25852 0.148098 0
M  V30 20 C 5.86854 1.481 -0.181823 0
M  V30 21 N 7.12268 2.1414 -0.347614 0
M  V30 22 N 5.68896 0.175359 -0.366288 0
M  V30 23 C 4.4135 -0.365952 -0.204228 0
M  V30 24 N 4.29175 -1.74475 -0.542937 0
M  V30 25 H -4.24045 -3.60764 -1.6555 0
M  V30 26 H -2.5817 -4.03158 -2.29189 0
M  V30 27 H -3.03419 -4.36668 -0.623822 0
M  V30 28 H -5.17106 -1.90693 -1.27305 0
M  V30 29 H -6.28782 0.228631 -0.706522 0
M  V30 30 H -5.64616 2.86047 -0.628051 0
M  V30 31 H -5.83346 2.32951 1.12471 0
M  V30 32 H -4.33656 3.1618 0.581077 0
M  V30 33 H -2.58539 1.82697 0.570533 0
M  V30 34 H -0.671488 -1.11275 -0.672561 0
M  V30 35 H -0.901364 1.29275 1.02079 0
M  V30 36 H -0.311047 -0.0828057 1.92159 0
M  V30 37 H 2.47108 -2.20644 0.875435 0
M  V30 38 H 0.889142 -1.67617 0.868279 0
M  V30 39 H 1.54406 -2.00907 -0.714039 0
M  V30 40 H 0.54536 2.88068 0.993043 0
M  V30 41 H 7.09599 3.1656 -0.668867 0
M  V30 42 H 8.05387 1.7324 -0.202212 0
M  V30 43 H 4.66383 -2.47297 0.0750771 0
M  V30 44 H 3.81406 -1.99055 -1.44584 0
M  V30 END ATOM
M  V30 BEGIN BOND
M  V30 1 1 1 2
M  V30 2 1 2 3
M  V30 3 2 3 4
M  V30 4 1 4 5
M  V30 5 2 5 6
M  V30 6 1 6 7
M  V30 7 1 6 8
M  V30 8 2 8 9
M  V30 9 1 9 10
M  V30 10 1 10 11
M  V30 11 1 11 12
M  V30 12 2 12 13
M  V30 13 1 13 14
M  V30 14 1 13 15
M  V30 15 2 15 16
M  V30 16 1 16 17
M  V30 17 2 17 18
M  V30 18 1 16 19
M  V30 19 2 19 20
M  V30 20 1 20 21
M  V30 21 1 20 22
M  V30 22 2 22 23
M  V30 23 1 23 24
M  V30 24 1 9 3
M  V30 25 1 18 12
M  V30 26 1 23 15
M  V30 27 1 1 25
M  V30 28 1 1 26
M  V30 29 1 1 27
M  V30 30 1 4 28
M  V30 31 1 5 29
M  V30 32 1 7 30
M  V30 33 1 7 31
M  V30 34 1 7 32
M  V30 35 1 8 33
M  V30 36 1 10 34
M  V30 37 1 11 35
M  V30 38 1 11 36
M  V30 39 1 14 37
M  V30 40 1 14 38
M  V30 41 1 14 39
M  V30 42 1 18 40
M  V30 43 1 21 41
M  V30 44 1 21 42
M  V30 45 1 24 43
M  V30 46 1 24 44
M  V30 END BOND
M  V30 END CTAB
M  END
