
     RDKit          3D

  0  0  0  0  0  0  0  0  0  0999 V3000
M  V30 BEGIN CTAB
M  V30 COUNTS 40 43 0 0 0
M  V30 BEGIN ATOM
M  V30 1 N 6.5455 -0.269345 -0.863891 0
M  V30 2 C 5.40688 -0.0434954 -0.0549045 0
M  V30 3 N 4.5105 -1.0185 0.167834 0
M  V30 4 C 3.40617 -0.821372 0.945837 0
M  V30 5 C 2.47468 -1.95682 1.14172 0
M  V30 6 S 1.23745 -1.96674 -0.143659 0
M  V30 7 C 0.143296 -0.560713 -0.0185647 0
M  V30 8 N 0.199227 0.408439 0.910585 0
M  V30 9 N -0.757645 1.28242 0.682862 0
M  V30 10 C -1.47756 0.906635 -0.415652 0
M  V30 11 N -0.90542 -0.235339 -0.835175 0
M  V30 12 C -1.26949 -1.03032 -1.96119 0
M  V30 13 C -2.47282 -1.84398 -2.09288 0
M  V30 14 C -1.19709 -2.53514 -1.74216 0
M  V30 15 C -2.61286 1.66772 -0.983446 0
M  V30 16 C -3.82101 1.47477 -0.0972432 0
M  V30 17 C -4.857 0.600921 -0.23932 0
M  V30 18 C -5.82345 0.619925 0.697157 0
M  V30 19 C -5.68778 1.51754 1.71911 0
M  V30 20 S -4.22346 2.30537 1.34671 0
M  V30 21 N 3.25717 0.396619 1.47964 0
M  V30 22 C 4.1274 1.39261 1.2811 0
M  V30 23 N 5.19955 1.15712 0.509952 0
M  V30 24 N 3.90311 2.67283 1.88587 0
M  V30 25 H 6.44638 -0.306205 -1.88674 0
M  V30 26 H 7.46999 -0.396331 -0.425086 0
M  V30 27 H 2.02654 -1.90243 2.17266 0
M  V30 28 H 3.08202 -2.89834 1.0372 0
M  V30 29 H -0.773294 -0.656768 -2.91296 0
M  V30 30 H -3.3063 -1.8647 -1.37065 0
M  V30 31 H -2.85399 -1.9917 -3.14626 0
M  V30 32 H -1.16571 -2.96676 -0.741481 0
M  V30 33 H -0.636315 -3.1026 -2.50326 0
M  V30 34 H -2.82039 1.3677 -2.00906 0
M  V30 35 H -2.38678 2.77092 -0.909217 0
M  V30 36 H -4.88931 -0.0972561 -1.10976 0
M  V30 37 H -6.71699 -0.0489955 0.683328 0
M  V30 38 H -6.38338 1.66908 2.56983 0
M  V30 39 H 3.16646 3.29025 1.48405 0
M  V30 40 H 4.43573 3.013 2.70008 0
M  V30 END ATOM
M  V30 BEGIN BOND
M  V30 1 1 1 2
M  V30 2 2 2 3
M  V30 3 1 3 4
M  V30 4 1 4 5
M  V30 5 1 5 6
M  V30 6 1 6 7
M  V30 7 2 7 8
M  V30 8 1 8 9
M  V30 9 2 9 10
M  V30 10 1 10 11
M  V30 11 1 11 12
M  V30 12 1 12 13
M  V30 13 1 13 14
M  V30 14 1 10 15
M  V30 15 1 15 16
M  V30 16 2 16 17
M  V30 17 1 17 18
M  V30 18 2 18 19
M  V30 19 1 19 20
M  V30 20 2 4 21
M  V30 21 1 21 22
M  V30 22 2 22 23
M  V30 23 1 22 24
M  V30 24 1 23 2
M  V30 25 1 11 7
M  V30 26 1 14 12
M  V30 27 1 20 16
M  V30 28 1 1 25
M  V30 29 1 1 26
M  V30 30 1 5 27
M  V30 31 1 5 28
M  V30 32 1 12 29
M  V30 33 1 13 30
M  V30 34 1 13 31
M  V30 35 1 14 32
M  V30 36 1 14 33
M  V30 37 1 15 34
M  V30 38 1 15 35
M  V30 39 1 17 36
M  V30 40 1 18 37
M  V30 41 1 19 38
M  V30 42 1 24 39
M  V30 43 1 24 40
M  V30 END BOND
M  V30 END CTAB
M  END
