
     RDKit          3D

  0  0  0  0  0  0  0  0  0  0999 V3000
M  V30 BEGIN CTAB
M  V30 COUNTS 77 79 0 0 0
M  V30 BEGIN ATOM
M  V30 1 C 2.00897 -0.345701 -1.26349 0
M  V30 2 C 1.75945 -1.36366 -0.1562 0
M  V30 3 C 1.72324 -0.76334 1.17328 0
M  V30 4 C 2.75792 -2.44913 -0.350603 0
M  V30 5 N 4.1183 -2.06679 -0.335925 0
M  V30 6 C 4.96728 -1.55727 0.641933 0
M  V30 7 O 4.64286 -1.33977 1.82129 0
M  V30 8 C 6.40767 -1.22908 0.278278 0
M  V30 9 C 7.1281 -0.703283 1.50505 0
M  V30 10 N 6.47033 0.484458 1.98078 0
M  V30 11 C 8.57284 -0.483623 1.26681 0
M  V30 12 C 8.93155 0.477201 0.209696 0
M  V30 13 C 9.25106 0.0118438 -1.08126 0
M  V30 14 C 9.57149 0.855327 -2.11747 0
M  V30 15 F 9.8796 0.417611 -3.35898 0
M  V30 16 C 9.5823 2.21741 -1.88906 0
M  V30 17 C 9.26928 2.66454 -0.62544 0
M  V30 18 C 8.94298 1.83196 0.435957 0
M  V30 19 F 8.66941 2.37263 1.66802 0
M  V30 20 C 0.344125 -1.96314 -0.396113 0
M  V30 21 N -0.583502 -0.851013 -0.35684 0
M  V30 22 C -1.9622 -1.11975 -0.520721 0
M  V30 23 O -2.33657 -2.32296 -0.700165 0
M  V30 24 C -3.02821 -0.092538 -0.502949 0
M  V30 25 O -4.24769 -0.696388 -0.85662 0
M  V30 26 C -3.19643 0.557039 0.840108 0
M  V30 27 N -1.92549 1.18283 1.27284 0
M  V30 28 C -4.20294 1.6487 0.913584 0
M  V30 29 C -5.58374 1.35208 0.591755 0
M  V30 30 C -6.14179 1.57105 -0.66038 0
M  V30 31 C -7.46493 1.26295 -0.897923 0
M  V30 32 C -8.27908 0.732341 0.0814531 0
M  V30 33 C -7.72313 0.51501 1.32514 0
M  V30 34 C -6.40316 0.816711 1.58079 0
M  V30 35 C -9.68509 0.406303 -0.187338 0
M  V30 36 C -10.6437 0.493902 0.80346 0
M  V30 37 C -11.9591 0.176019 0.53098 0
M  V30 38 C -12.3675 -0.23536 -0.719491 0
M  V30 39 N -11.4148 -0.314693 -1.67792 0
M  V30 40 C -10.125 -0.00940615 -1.43469 0
M  V30 41 H 1.54857 0.624702 -1.06631 0
M  V30 42 H 3.13063 -0.214144 -1.2718 0
M  V30 43 H 1.73417 -0.765357 -2.25164 0
M  V30 44 H 0.668149 -0.388376 1.45042 0
M  V30 45 H 1.91107 -1.48937 1.99869 0
M  V30 46 H 2.34284 0.125559 1.34751 0
M  V30 47 H 2.54006 -2.97783 -1.34285 0
M  V30 48 H 2.62058 -3.26621 0.432432 0
M  V30 49 H 4.63818 -2.1892 -1.30809 0
M  V30 50 H 6.88534 -2.10323 -0.153178 0
M  V30 51 H 6.34628 -0.434084 -0.490399 0
M  V30 52 H 7.03509 -1.49917 2.28723 0
M  V30 53 H 5.8105 0.877727 1.26828 0
M  V30 54 H 6.03147 0.392209 2.90979 0
M  V30 55 H 9.10211 -0.149954 2.20131 0
M  V30 56 H 9.05956 -1.46321 0.981848 0
M  V30 57 H 9.23981 -1.07487 -1.24888 0
M  V30 58 H 9.83527 2.90238 -2.70396 0
M  V30 59 H 9.26769 3.72991 -0.405915 0
M  V30 60 H 0.152573 -2.61284 0.468937 0
M  V30 61 H 0.285102 -2.47793 -1.35281 0
M  V30 62 H -0.248257 0.12043 -0.23036 0
M  V30 63 H -2.74648 0.721869 -1.22861 0
M  V30 64 H -4.17942 -1.23878 -1.673 0
M  V30 65 H -3.36137 -0.255661 1.57755 0
M  V30 66 H -1.68364 1.95869 0.590659 0
M  V30 67 H -2.13647 1.66904 2.17453 0
M  V30 68 H -3.84576 2.47305 0.210214 0
M  V30 69 H -4.16693 2.17476 1.91294 0
M  V30 70 H -5.52771 1.99291 -1.4692 0
M  V30 71 H -7.9192 1.42965 -1.87103 0
M  V30 72 H -8.33564 0.0990587 2.11578 0
M  V30 73 H -5.96766 0.646073 2.5546 0
M  V30 74 H -10.3145 0.820439 1.79037 0
M  V30 75 H -12.7014 0.25361 1.33289 0
M  V30 76 H -13.4137 -0.481528 -0.908496 0
M  V30 77 H -9.36165 -0.0713543 -2.20572 0
M  V30 END ATOM
M  V30 BEGIN BOND
M  V30 1 1 1 2
M  V30 2 1 2 3
M  V30 3 1 2 4
M  V30 4 1 4 5
M  V30 5 1 5 6
M  V30 6 2 6 7
M  V30 7 1 6 8
M  V30 8 1 8 9
M  V30 9 1 9 10
M  V30 10 1 9 11
M  V30 11 1 11 12
M  V30 12 2 12 13
M  V30 13 1 13 14
M  V30 14 1 14 15
M  V30 15 2 14 16
M  V30 16 1 16 17
M  V30 17 2 17 18
M  V30 18 1 18 19
M  V30 19 1 2 20
M  V30 20 1 20 21
M  V30 21 1 21 22
M  V30 22 2 22 23
M  V30 23 1 22 24
M  V30 24 1 24 25
M  V30 25 1 24 26
M  V30 26 1 26 27
M  V30 27 1 26 28
M  V30 28 1 28 29
M  V30 29 2 29 30
M  V30 30 1 30 31
M  V30 31 2 31 32
M  V30 32 1 32 33
M  V30 33 2 33 34
M  V30 34 1 32 35
M  V30 35 2 35 36
M  V30 36 1 36 37
M  V30 37 2 37 38
M  V30 38 1 38 39
M  V30 39 2 39 40
M  V30 40 1 18 12
M  V30 41 1 34 29
M  V30 42 1 40 35
M  V30 43 1 1 41
M  V30 44 1 1 42
M  V30 45 1 1 43
M  V30 46 1 3 44
M  V30 47 1 3 45
M  V30 48 1 3 46
M  V30 49 1 4 47
M  V30 50 1 4 48
M  V30 51 1 5 49
M  V30 52 1 8 50
M  V30 53 1 8 51
M  V30 54 1 9 52
M  V30 55 1 10 53
M  V30 56 1 10 54
M  V30 57 1 11 55
M  V30 58 1 11 56
M  V30 59 1 13 57
M  V30 60 1 16 58
M  V30 61 1 17 59
M  V30 62 1 20 60
M  V30 63 1 20 61
M  V30 64 1 21 62
M  V30 65 1 24 63
M  V30 66 1 25 64
M  V30 67 1 26 65
M  V30 68 1 27 66
M  V30 69 1 27 67
M  V30 70 1 28 68
M  V30 71 1 28 69
M  V30 72 1 30 70
M  V30 73 1 31 71
M  V30 74 1 33 72
M  V30 75 1 34 73
M  V30 76 1 36 74
M  V30 77 1 37 75
M  V30 78 1 38 76
M  V30 79 1 40 77
M  V30 END BOND
M  V30 END CTAB
M  END
