
     RDKit          3D

  0  0  0  0  0  0  0  0  0  0999 V3000
M  V30 BEGIN CTAB
M  V30 COUNTS 32 33 0 0 0
M  V30 BEGIN ATOM
M  V30 1 N -2.83792 1.76462 -1.48847 0
M  V30 2 C -3.09412 0.979306 -0.347768 0
M  V30 3 N -4.18903 1.02006 0.42832 0
M  V30 4 N -4.01693 0.205801 1.45982 0
M  V30 5 C -2.79715 -0.384966 1.37817 0
M  V30 6 C -2.18283 0.0798055 0.237844 0
M  V30 7 C -0.898994 -0.392439 -0.402265 0 CFG=2
M  V30 8 O -0.635167 -1.58909 0.271837 0
M  V30 9 C 0.134273 -2.52228 -0.349231 0
M  V30 10 C 1.54803 -2.17727 -0.645341 0
M  V30 11 C 2.06346 -0.948229 0.0649091 0
M  V30 12 N 1.47007 0.272021 -0.342893 0
M  V30 13 C 0.164068 0.560877 0.12513 0
M  V30 14 S 2.49012 1.60849 -0.131653 0
M  V30 15 O 2.79096 1.6903 1.36723 0
M  V30 16 O 1.7249 2.90524 -0.409689 0
M  V30 17 N 3.94855 1.54319 -1.04723 0
M  V30 18 H -2.10684 2.52849 -1.34265 0
M  V30 19 H -3.25141 1.69061 -2.40678 0
M  V30 20 H -4.68516 0.00149571 2.25371 0
M  V30 21 H -2.41435 -1.08878 2.0744 0
M  V30 22 H -0.95125 -0.517023 -1.4543 0
M  V30 23 H -0.378589 -2.82141 -1.30832 0
M  V30 24 H 0.078905 -3.49329 0.256419 0
M  V30 25 H 1.78251 -2.12582 -1.71007 0
M  V30 26 H 2.18127 -3.03633 -0.260252 0
M  V30 27 H 2.04697 -1.1434 1.16435 0
M  V30 28 H 3.16789 -0.892244 -0.183489 0
M  V30 29 H -0.0675081 1.59299 -0.326241 0
M  V30 30 H 0.108928 0.682159 1.17966 0
M  V30 31 H 4.73499 1.50002 -0.350617 0
M  V30 32 H 4.07135 2.5071 -1.50657 0
M  V30 END ATOM
M  V30 BEGIN BOND
M  V30 1 1 1 2
M  V30 2 2 2 3
M  V30 3 1 3 4
M  V30 4 1 4 5
M  V30 5 2 5 6
M  V30 6 1 6 7
M  V30 7 1 7 8
M  V30 8 1 8 9
M  V30 9 1 9 10
M  V30 10 1 10 11
M  V30 11 1 11 12
M  V30 12 1 12 13
M  V30 13 1 12 14
M  V30 14 2 14 15
M  V30 15 2 14 16
M  V30 16 1 14 17
M  V30 17 1 6 2
M  V30 18 1 13 7
M  V30 19 1 1 18
M  V30 20 1 1 19
M  V30 21 1 4 20
M  V30 22 1 5 21
M  V30 23 1 7 22 CFG=3
M  V30 24 1 9 23
M  V30 25 1 9 24
M  V30 26 1 10 25
M  V30 27 1 10 26
M  V30 28 1 11 27
M  V30 29 1 11 28
M  V30 30 1 13 29
M  V30 31 1 13 30
M  V30 32 1 17 31
M  V30 33 1 17 32
M  V30 END BOND
M  V30 END CTAB
M  END
