
     RDKit          3D

  0  0  0  0  0  0  0  0  0  0999 V3000
M  V30 BEGIN CTAB
M  V30 COUNTS 39 42 0 0 0
M  V30 BEGIN ATOM
M  V30 1 N 5.83234 -0.331153 2.12351 0
M  V30 2 C 4.80921 -0.35273 1.14229 0
M  V30 3 C 5.12669 -0.623169 -0.18149 0
M  V30 4 C 4.13834 -0.646219 -1.1424 0
M  V30 5 C 2.82065 -0.402466 -0.810799 0
M  V30 6 C 1.82375 -0.446002 -1.89922 0
M  V30 7 N 0.487459 -0.17499 -1.41897 0
M  V30 8 C -0.0686419 1.14558 -1.35874 0
M  V30 9 O 0.638437 2.11021 -1.74096 0
M  V30 10 C -1.42007 1.38801 -0.869389 0
M  V30 11 C -1.97805 2.64837 -0.801472 0
M  V30 12 C -3.26444 2.85306 -0.332648 0
M  V30 13 C -4.02764 1.80309 0.0809143 0
M  V30 14 C -3.47358 0.523491 0.0167226 0
M  V30 15 C -2.19359 0.320787 -0.449878 0
M  V30 16 C -1.70736 -0.991077 -0.484368 0
M  V30 17 C -2.50508 -2.03008 -0.0588549 0
M  V30 18 C -3.78505 -1.82848 0.407864 0
M  V30 19 C -4.2773 -0.525037 0.445634 0
M  V30 20 N -5.58527 -0.310721 0.921604 0
M  V30 21 C -0.35578 -1.23693 -0.973382 0
M  V30 22 O 0.0966152 -2.42698 -1.009 0
M  V30 23 C 2.48628 -0.131976 0.499165 0
M  V30 24 C 3.48396 -0.112895 1.44455 0
M  V30 25 H 6.46057 -1.15391 2.18866 0
M  V30 26 H 5.98306 0.461651 2.77558 0
M  V30 27 H 6.15216 -0.816354 -0.460063 0
M  V30 28 H 4.40826 -0.860163 -2.17395 0
M  V30 29 H 2.1387 0.301095 -2.6731 0
M  V30 30 H 1.86943 -1.43737 -2.43624 0
M  V30 31 H -1.39914 3.47952 -1.11919 0
M  V30 32 H -3.68677 3.84675 -0.285833 0
M  V30 33 H -5.02395 1.96802 0.443279 0
M  V30 34 H -2.13616 -3.04331 -0.0829529 0
M  V30 35 H -4.41903 -2.6466 0.745157 0
M  V30 36 H -6.37079 0.0762121 0.345376 0
M  V30 37 H -5.79101 -0.551769 1.91372 0
M  V30 38 H 1.45731 0.0569997 0.750086 0
M  V30 39 H 3.25548 0.0975586 2.49022 0
M  V30 END ATOM
M  V30 BEGIN BOND
M  V30 1 1 1 2
M  V30 2 2 2 3
M  V30 3 1 3 4
M  V30 4 2 4 5
M  V30 5 1 5 6
M  V30 6 1 6 7
M  V30 7 1 7 8
M  V30 8 2 8 9
M  V30 9 1 8 10
M  V30 10 2 10 11
M  V30 11 1 11 12
M  V30 12 2 12 13
M  V30 13 1 13 14
M  V30 14 2 14 15
M  V30 15 1 15 16
M  V30 16 2 16 17
M  V30 17 1 17 18
M  V30 18 2 18 19
M  V30 19 1 19 20
M  V30 20 1 16 21
M  V30 21 2 21 22
M  V30 22 1 5 23
M  V30 23 2 23 24
M  V30 24 1 24 2
M  V30 25 1 21 7
M  V30 26 1 15 10
M  V30 27 1 19 14
M  V30 28 1 1 25
M  V30 29 1 1 26
M  V30 30 1 3 27
M  V30 31 1 4 28
M  V30 32 1 6 29
M  V30 33 1 6 30
M  V30 34 1 11 31
M  V30 35 1 12 32
M  V30 36 1 13 33
M  V30 37 1 17 34
M  V30 38 1 18 35
M  V30 39 1 20 36
M  V30 40 1 20 37
M  V30 41 1 23 38
M  V30 42 1 24 39
M  V30 END BOND
M  V30 END CTAB
M  END
