
     RDKit          3D

  0  0  0  0  0  0  0  0  0  0999 V3000
M  V30 BEGIN CTAB
M  V30 COUNTS 28 29 0 0 0
M  V30 BEGIN ATOM
M  V30 1 O -3.4279 0.601128 -1.29326 0
M  V30 2 C -3.01557 -0.461686 -0.506419 0
M  V30 3 C -3.02245 0.0161636 0.949331 0
M  V30 4 C -1.89028 1.02078 0.886194 0
M  V30 5 N -0.867835 0.228743 0.176807 0
M  V30 6 C -1.52995 -0.688836 -0.722219 0
M  V30 7 C 0.505441 0.420056 0.416079 0
M  V30 8 N 0.971326 1.33144 1.30468 0
M  V30 9 C 2.27814 1.52676 1.54531 0
M  V30 10 C 3.25771 0.804294 0.896986 0
M  V30 11 C 2.81664 -0.140061 -0.0220431 0
M  V30 12 C 1.45055 -0.313888 -0.244637 0
M  V30 13 N 1.09105 -1.29585 -1.19646 0
M  V30 14 N 3.76545 -0.923468 -0.729805 0
M  V30 15 H -2.66669 1.14283 -1.62433 0
M  V30 16 H -3.61044 -1.37718 -0.641648 0
M  V30 17 H -2.77522 -0.827211 1.62913 0
M  V30 18 H -3.98631 0.470373 1.21612 0
M  V30 19 H -1.53736 1.31813 1.88979 0
M  V30 20 H -2.23038 1.87536 0.267014 0
M  V30 21 H -1.35673 -1.75127 -0.486907 0
M  V30 22 H -1.29499 -0.486742 -1.79861 0
M  V30 23 H 2.62184 2.27307 2.2714 0
M  V30 24 H 4.31292 0.970966 1.09981 0
M  V30 25 H 0.920448 -2.29287 -0.938835 0
M  V30 26 H 0.987757 -1.04327 -2.20373 0
M  V30 27 H 3.99466 -0.647306 -1.70661 0
M  V30 28 H 4.23818 -1.75045 -0.326432 0
M  V30 END ATOM
M  V30 BEGIN BOND
M  V30 1 1 1 2
M  V30 2 1 2 3
M  V30 3 1 3 4
M  V30 4 1 4 5
M  V30 5 1 5 6
M  V30 6 1 5 7
M  V30 7 2 7 8
M  V30 8 1 8 9
M  V30 9 2 9 10
M  V30 10 1 10 11
M  V30 11 2 11 12
M  V30 12 1 12 13
M  V30 13 1 11 14
M  V30 14 1 6 2
M  V30 15 1 12 7
M  V30 16 1 1 15
M  V30 17 1 2 16
M  V30 18 1 3 17
M  V30 19 1 3 18
M  V30 20 1 4 19
M  V30 21 1 4 20
M  V30 22 1 6 21
M  V30 23 1 6 22
M  V30 24 1 9 23
M  V30 25 1 10 24
M  V30 26 1 13 25
M  V30 27 1 13 26
M  V30 28 1 14 27
M  V30 29 1 14 28
M  V30 END BOND
M  V30 END CTAB
M  END
