
     RDKit          3D

  0  0  0  0  0  0  0  0  0  0999 V3000
M  V30 BEGIN CTAB
M  V30 COUNTS 24 25 0 0 0
M  V30 BEGIN ATOM
M  V30 1 N 3.32142 -1.18346 -0.502373 0
M  V30 2 C 1.94509 -0.943807 -0.323251 0
M  V30 3 C 1.01421 -1.94497 -0.341683 0
M  V30 4 N -0.291451 -1.70619 -0.170389 0
M  V30 5 C -0.762892 -0.46237 0.0303664 0
M  V30 6 C 0.135235 0.609136 0.060819 0
M  V30 7 C 1.48569 0.358571 -0.116788 0
M  V30 8 N 2.49797 1.35666 -0.107642 0
M  V30 9 C -0.311017 1.8933 0.263663 0
M  V30 10 Br 0.926272 3.34291 0.302412 0
M  V30 11 C -1.66066 2.09721 0.43558 0
M  V30 12 C -2.53777 1.0403 0.404586 0
M  V30 13 C -2.11359 -0.251644 0.203221 0
M  V30 14 C -3.05628 -1.40626 0.167652 0
M  V30 15 H 3.74404 -2.1112 -0.243719 0
M  V30 16 H 3.97077 -0.469593 -0.890531 0
M  V30 17 H 1.33728 -2.96667 -0.499583 0
M  V30 18 H 3.01061 1.65429 0.742013 0
M  V30 19 H 2.74099 1.80002 -1.02021 0
M  V30 20 H -1.99226 3.10398 0.592624 0
M  V30 21 H -3.60913 1.18453 0.538932 0
M  V30 22 H -2.87304 -2.03854 1.0575 0
M  V30 23 H -2.83209 -1.97054 -0.760342 0
M  V30 24 H -4.08938 -0.985666 0.177149 0
M  V30 END ATOM
M  V30 BEGIN BOND
M  V30 1 1 1 2
M  V30 2 2 2 3
M  V30 3 1 3 4
M  V30 4 2 4 5
M  V30 5 1 5 6
M  V30 6 2 6 7
M  V30 7 1 7 8
M  V30 8 1 6 9
M  V30 9 1 9 10
M  V30 10 2 9 11
M  V30 11 1 11 12
M  V30 12 2 12 13
M  V30 13 1 13 14
M  V30 14 1 7 2
M  V30 15 1 13 5
M  V30 16 1 1 15
M  V30 17 1 1 16
M  V30 18 1 3 17
M  V30 19 1 8 18
M  V30 20 1 8 19
M  V30 21 1 11 20
M  V30 22 1 12 21
M  V30 23 1 14 22
M  V30 24 1 14 23
M  V30 25 1 14 24
M  V30 END BOND
M  V30 END CTAB
M  END
