
     RDKit          3D

  0  0  0  0  0  0  0  0  0  0999 V3000
M  V30 BEGIN CTAB
M  V30 COUNTS 24 24 0 0 0
M  V30 BEGIN ATOM
M  V30 1 Cl 3.95102 0.875936 -1.69442 0
M  V30 2 C 2.80332 1.63125 -0.537078 0
M  V30 3 C 2.30947 0.554738 0.343075 0
M  V30 4 O 3.17868 0.0788889 1.13298 0
M  V30 5 C 0.947206 0.0867839 0.306528 0
M  V30 6 C 0.0591842 0.63964 -0.595698 0
M  V30 7 C -1.27104 0.202671 -0.659091 0
M  V30 8 C -1.66535 -0.789294 0.198476 0
M  V30 9 C -0.787291 -1.35327 1.1063 0
M  V30 10 C 0.520271 -0.91193 1.15883 0
M  V30 11 N 1.42662 -1.46764 2.09311 0
M  V30 12 N -3.01845 -1.22507 0.145993 0
M  V30 13 C -2.1987 0.813706 -1.64287 0
M  V30 14 F -1.50618 1.8077 -2.35952 0
M  V30 15 F -3.21854 1.46198 -0.983312 0
M  V30 16 F -2.63774 -0.0680173 -2.60408 0
M  V30 17 H 3.39312 2.39527 0.0330424 0
M  V30 18 H 2.04838 2.18574 -1.10688 0
M  V30 19 H 0.337068 1.43729 -1.29194 0
M  V30 20 H -1.12918 -2.12394 1.7526 0
M  V30 21 H 1.56832 -2.50565 2.05325 0
M  V30 22 H 1.94702 -0.942628 2.81433 0
M  V30 23 H -3.49137 -1.42567 1.04895 0
M  V30 24 H -3.56585 -1.35849 -0.712578 0
M  V30 END ATOM
M  V30 BEGIN BOND
M  V30 1 1 1 2
M  V30 2 1 2 3
M  V30 3 2 3 4
M  V30 4 1 3 5
M  V30 5 2 5 6
M  V30 6 1 6 7
M  V30 7 2 7 8
M  V30 8 1 8 9
M  V30 9 2 9 10
M  V30 10 1 10 11
M  V30 11 1 8 12
M  V30 12 1 7 13
M  V30 13 1 13 14
M  V30 14 1 13 15
M  V30 15 1 13 16
M  V30 16 1 10 5
M  V30 17 1 2 17
M  V30 18 1 2 18
M  V30 19 1 6 19
M  V30 20 1 9 20
M  V30 21 1 11 21
M  V30 22 1 11 22
M  V30 23 1 12 23
M  V30 24 1 12 24
M  V30 END BOND
M  V30 END CTAB
M  END
