
     RDKit          3D

  0  0  0  0  0  0  0  0  0  0999 V3000
M  V30 BEGIN CTAB
M  V30 COUNTS 29 29 0 0 0
M  V30 BEGIN ATOM
M  V30 1 N 2.79101 -0.772015 1.42679 0
M  V30 2 C 2.08608 -1.45925 0.362096 0
M  V30 3 C 1.77273 -0.66129 -0.811377 0
M  V30 4 C 0.947843 0.528782 -0.802429 0
M  V30 5 C -0.471035 0.403183 -0.403358 0
M  V30 6 C -1.23155 1.59193 -0.325094 0
M  V30 7 C -2.56552 1.58104 0.0224263 0
M  V30 8 C -3.2165 0.406491 0.309318 0
M  V30 9 C -2.47217 -0.757028 0.234919 0
M  V30 10 C -1.13441 -0.754581 -0.114096 0
M  V30 11 N -3.16128 -1.95703 0.551745 0
M  V30 12 O 0.927782 1.06031 -2.09674 0
M  V30 13 C 1.47996 1.66326 0.0734242 0
M  V30 14 H 2.54825 -1.08086 2.3758 0
M  V30 15 H 3.79308 -0.606895 1.23718 0
M  V30 16 H 1.28987 -2.02189 0.851184 0
M  V30 17 H 2.81999 -2.2829 0.0666258 0
M  V30 18 H 2.74317 -0.438626 -1.35004 0
M  V30 19 H 1.28386 -1.37796 -1.55641 0
M  V30 20 H -0.813951 2.55394 -0.534824 0
M  V30 21 H -3.12945 2.50833 0.0735049 0
M  V30 22 H -4.27059 0.401601 0.5794 0
M  V30 23 H -0.654594 -1.69125 -0.164722 0
M  V30 24 H -3.03697 -2.43651 1.46329 0
M  V30 25 H -3.803 -2.36436 -0.144561 0
M  V30 26 H 0.680526 2.02419 -2.08865 0
M  V30 27 H 2.59185 1.70691 0.0543137 0
M  V30 28 H 1.14723 2.60056 -0.381152 0
M  V30 29 H 1.05778 1.63192 1.09144 0
M  V30 END ATOM
M  V30 BEGIN BOND
M  V30 1 1 1 2
M  V30 2 1 2 3
M  V30 3 1 3 4
M  V30 4 1 4 5
M  V30 5 2 5 6
M  V30 6 1 6 7
M  V30 7 2 7 8
M  V30 8 1 8 9
M  V30 9 2 9 10
M  V30 10 1 9 11
M  V30 11 1 4 12
M  V30 12 1 4 13
M  V30 13 1 10 5
M  V30 14 1 1 14
M  V30 15 1 1 15
M  V30 16 1 2 16
M  V30 17 1 2 17
M  V30 18 1 3 18
M  V30 19 1 3 19
M  V30 20 1 6 20
M  V30 21 1 7 21
M  V30 22 1 8 22
M  V30 23 1 10 23
M  V30 24 1 11 24
M  V30 25 1 11 25
M  V30 26 1 12 26
M  V30 27 1 13 27
M  V30 28 1 13 28
M  V30 29 1 13 29
M  V30 END BOND
M  V30 END CTAB
M  END
