
     RDKit          3D

  0  0  0  0  0  0  0  0  0  0999 V3000
M  V30 BEGIN CTAB
M  V30 COUNTS 55 58 0 0 0
M  V30 BEGIN ATOM
M  V30 1 O 1.70182 0.548693 1.973 0
M  V30 2 C 1.53706 0.130999 0.807487 0
M  V30 3 N 2.59166 -0.447092 0.110858 0
M  V30 4 C 2.52947 -0.973551 -1.2542 0
M  V30 5 C 3.64362 -1.99421 -1.35993 0
M  V30 6 C 4.1424 -2.08845 0.0404721 0
M  V30 7 C 3.98644 -0.672794 0.541169 0
M  V30 8 C 4.79883 0.322286 -0.219303 0
M  V30 9 S 6.52223 0.270688 0.108423 0
M  V30 10 O 7.16391 1.39327 -0.670754 0
M  V30 11 O 7.17381 -0.989732 -0.333329 0
M  V30 12 N 6.876 0.573503 1.77904 0
M  V30 13 N 0.266418 0.253602 0.207124 0
M  V30 14 C -0.841394 0.850186 0.91208 0
M  V30 15 C -2.09295 0.864038 0.0541465 0
M  V30 16 N -1.83825 1.6402 -1.1655 0
M  V30 17 C -3.24633 1.51742 0.749368 0
M  V30 18 C -4.32795 1.78787 -0.277866 0
M  V30 19 C -4.74546 0.4626 -0.853048 0
M  V30 20 C -3.61075 -0.32455 -1.4286 0
M  V30 21 C -2.5169 -0.509596 -0.379018 0
M  V30 22 C -3.09389 -1.32769 0.757297 0
M  V30 23 C -4.29267 -0.624531 1.32794 0
M  V30 24 C -3.82016 0.710071 1.87098 0
M  V30 25 C -5.3465 -0.36819 0.275488 0
M  V30 26 H 2.68119 -0.134319 -1.97984 0
M  V30 27 H 1.52994 -1.41205 -1.44604 0
M  V30 28 H 4.40424 -1.66059 -2.09494 0
M  V30 29 H 3.2243 -2.98797 -1.64339 0
M  V30 30 H 3.41117 -2.70877 0.618506 0
M  V30 31 H 5.12514 -2.51205 0.171497 0
M  V30 32 H 4.05528 -0.580778 1.62664 0
M  V30 33 H 4.63708 0.200061 -1.28969 0
M  V30 34 H 4.433 1.33666 0.0545232 0
M  V30 35 H 6.31858 1.41212 2.07929 0
M  V30 36 H 7.88863 0.900058 1.79696 0
M  V30 37 H 0.0888098 -0.0853531 -0.770781 0
M  V30 38 H -1.05247 0.335691 1.8616 0
M  V30 39 H -0.573105 1.91981 1.07594 0
M  V30 40 H -1.55517 2.60474 -0.947585 0
M  V30 41 H -1.15467 1.1783 -1.78526 0
M  V30 42 H -2.97252 2.52354 1.1709 0
M  V30 43 H -5.20803 2.26945 0.152985 0
M  V30 44 H -3.93122 2.42073 -1.1014 0
M  V30 45 H -5.52635 0.606902 -1.61402 0
M  V30 46 H -3.9938 -1.34173 -1.6607 0
M  V30 47 H -3.15123 0.161763 -2.31533 0
M  V30 48 H -1.70377 -1.04926 -0.872064 0
M  V30 49 H -3.33523 -2.32631 0.346684 0
M  V30 50 H -2.35025 -1.46702 1.5484 0
M  V30 51 H -4.76887 -1.23235 2.11749 0
M  V30 52 H -3.07172 0.565975 2.67508 0
M  V30 53 H -4.72233 1.23928 2.23856 0
M  V30 54 H -5.70554 -1.348 -0.119101 0
M  V30 55 H -6.18155 0.166413 0.743932 0
M  V30 END ATOM
M  V30 BEGIN BOND
M  V30 1 2 1 2
M  V30 2 1 2 3
M  V30 3 1 3 4
M  V30 4 1 4 5
M  V30 5 1 5 6
M  V30 6 1 6 7
M  V30 7 1 7 8
M  V30 8 1 8 9
M  V30 9 2 9 10
M  V30 10 2 9 11
M  V30 11 1 9 12
M  V30 12 1 2 13
M  V30 13 1 13 14
M  V30 14 1 14 15
M  V30 15 1 15 16
M  V30 16 1 15 17
M  V30 17 1 17 18
M  V30 18 1 18 19
M  V30 19 1 19 20
M  V30 20 1 20 21
M  V30 21 1 21 22
M  V30 22 1 22 23
M  V30 23 1 23 24
M  V30 24 1 23 25
M  V30 25 1 7 3
M  V30 26 1 21 15
M  V30 27 1 24 17
M  V30 28 1 25 19
M  V30 29 1 4 26
M  V30 30 1 4 27
M  V30 31 1 5 28
M  V30 32 1 5 29
M  V30 33 1 6 30
M  V30 34 1 6 31
M  V30 35 1 7 32
M  V30 36 1 8 33
M  V30 37 1 8 34
M  V30 38 1 12 35
M  V30 39 1 12 36
M  V30 40 1 13 37
M  V30 41 1 14 38
M  V30 42 1 14 39
M  V30 43 1 16 40
M  V30 44 1 16 41
M  V30 45 1 17 42
M  V30 46 1 18 43
M  V30 47 1 18 44
M  V30 48 1 19 45
M  V30 49 1 20 46
M  V30 50 1 20 47
M  V30 51 1 21 48
M  V30 52 1 22 49
M  V30 53 1 22 50
M  V30 54 1 23 51
M  V30 55 1 24 52
M  V30 56 1 24 53
M  V30 57 1 25 54
M  V30 58 1 25 55
M  V30 END BOND
M  V30 END CTAB
M  END
