
     RDKit          3D

  0  0  0  0  0  0  0  0  0  0999 V3000
M  V30 BEGIN CTAB
M  V30 COUNTS 24 24 0 0 0
M  V30 BEGIN ATOM
M  V30 1 N 4.73802 -0.134728 1.41843 0
M  V30 2 N 3.36015 -0.176615 1.40583 0
M  V30 3 C 2.61348 -0.116768 0.370977 0
M  V30 4 S 0.852036 -0.186057 0.550947 0
M  V30 5 C 0.0753987 -0.0818745 -1.05259 0
M  V30 6 C -1.41913 -0.132047 -1.01144 0
M  V30 7 C -2.0203 0.999135 -0.202348 0
M  V30 8 C -3.44233 0.49291 -0.0758925 0
M  V30 9 C -3.26718 -0.986469 -0.190988 0
M  V30 10 O -1.91174 -1.24126 -0.334525 0
M  V30 11 N 3.18235 0.00351416 -0.907515 0
M  V30 12 H 5.28122 0.213352 2.22317 0
M  V30 13 H 5.26685 -0.473399 0.567584 0
M  V30 14 H 0.42012 -0.90918 -1.70655 0
M  V30 15 H 0.372185 0.86256 -1.53667 0
M  V30 16 H -1.84289 -0.0820536 -2.02021 0
M  V30 17 H -1.95189 1.95449 -0.742011 0
M  V30 18 H -1.56594 1.05155 0.820012 0
M  V30 19 H -3.91839 0.815467 0.868619 0
M  V30 20 H -4.03665 0.887659 -0.938121 0
M  V30 21 H -3.69399 -1.45857 0.730817 0
M  V30 22 H -3.85009 -1.42584 -1.04809 0
M  V30 23 H 2.81359 0.72796 -1.55503 0
M  V30 24 H 3.94512 -0.603738 -1.20795 0
M  V30 END ATOM
M  V30 BEGIN BOND
M  V30 1 1 1 2
M  V30 2 2 2 3 CFG=2
M  V30 3 1 3 4
M  V30 4 1 4 5
M  V30 5 1 5 6
M  V30 6 1 6 7
M  V30 7 1 7 8
M  V30 8 1 8 9
M  V30 9 1 9 10
M  V30 10 1 3 11
M  V30 11 1 10 6
M  V30 12 1 1 12
M  V30 13 1 1 13
M  V30 14 1 5 14
M  V30 15 1 5 15
M  V30 16 1 6 16
M  V30 17 1 7 17
M  V30 18 1 7 18
M  V30 19 1 8 19
M  V30 20 1 8 20
M  V30 21 1 9 21
M  V30 22 1 9 22
M  V30 23 1 11 23
M  V30 24 1 11 24
M  V30 END BOND
M  V30 END CTAB
M  END
