
     RDKit          3D

  0  0  0  0  0  0  0  0  0  0999 V3000
M  V30 BEGIN CTAB
M  V30 COUNTS 23 23 0 0 0
M  V30 BEGIN ATOM
M  V30 1 N 2.92159 -0.0879017 -0.735963 0
M  V30 2 C 2.62215 -0.430494 0.61431 0
M  V30 3 C 1.11612 -0.70076 0.717192 0
M  V30 4 N 0.457392 0.485668 0.322434 0
M  V30 5 C 0.435404 0.964335 -0.9926 0
M  V30 6 N -0.733478 0.614989 -0.310282 0
M  V30 7 C -1.6222 -0.443701 -0.618474 0
M  V30 8 C -2.74209 -0.359143 0.430276 0
M  V30 9 N -3.34898 0.959669 0.270216 0
M  V30 10 H 3.69054 -0.659547 -1.15829 0
M  V30 11 H 3.08248 0.941341 -0.87371 0
M  V30 12 H 2.79111 0.476914 1.25036 0
M  V30 13 H 3.22783 -1.25106 1.02335 0
M  V30 14 H 0.933744 -1.56919 0.0419254 0
M  V30 15 H 0.85231 -1.05769 1.73535 0
M  V30 16 H 0.751258 2.02359 -1.12733 0
M  V30 17 H 0.663182 0.342598 -1.88915 0
M  V30 18 H -2.15016 -0.249505 -1.59071 0
M  V30 19 H -1.22574 -1.45715 -0.53732 0
M  V30 20 H -3.45514 -1.1812 0.367007 0
M  V30 21 H -2.20542 -0.405828 1.41633 0
M  V30 22 H -3.19988 1.51069 1.16784 0
M  V30 23 H -2.86202 1.53338 -0.474412 0
M  V30 END ATOM
M  V30 BEGIN BOND
M  V30 1 1 1 2
M  V30 2 1 2 3
M  V30 3 1 3 4
M  V30 4 1 4 5
M  V30 5 1 5 6
M  V30 6 1 6 7
M  V30 7 1 7 8
M  V30 8 1 8 9
M  V30 9 1 6 4
M  V30 10 1 1 10
M  V30 11 1 1 11
M  V30 12 1 2 12
M  V30 13 1 2 13
M  V30 14 1 3 14
M  V30 15 1 3 15
M  V30 16 1 5 16
M  V30 17 1 5 17
M  V30 18 1 7 18
M  V30 19 1 7 19
M  V30 20 1 8 20
M  V30 21 1 8 21
M  V30 22 1 9 22
M  V30 23 1 9 23
M  V30 END BOND
M  V30 END CTAB
M  END
