
     RDKit          3D

  0  0  0  0  0  0  0  0  0  0999 V3000
M  V30 BEGIN CTAB
M  V30 COUNTS 46 48 0 0 0
M  V30 BEGIN ATOM
M  V30 1 N 2.70591 -1.47839 1.89529 0
M  V30 2 C 3.09883 -0.596598 0.911474 0
M  V30 3 C 2.41964 0.749685 0.976485 0
M  V30 4 C 3.04336 1.64751 -0.0367136 0
M  V30 5 C 4.16675 1.03976 -0.80896 0
M  V30 6 C 3.88885 -0.315744 -1.36746 0
M  V30 7 C 2.89641 -1.10252 -0.498311 0
M  V30 8 C 1.53972 -0.824486 -1.03937 0
M  V30 9 C 0.485904 -0.523848 -0.0327776 0
M  V30 10 C 0.92517 0.655635 0.802483 0
M  V30 11 C -0.767385 -0.143902 -0.729272 0
M  V30 12 O -0.745465 -0.0760343 -1.98456 0
M  V30 13 N -1.97356 0.141909 -0.0309326 0
M  V30 14 C -2.16896 0.104555 1.40004 0
M  V30 15 C -3.65 -0.284658 1.49158 0
M  V30 16 C -4.23643 0.625897 0.433815 0 CFG=1
M  V30 17 C -3.22475 0.525755 -0.657934 0 CFG=2
M  V30 18 C -3.66379 -0.459735 -1.70454 0
M  V30 19 N -5.55473 0.203965 0.0685912 0
M  V30 20 H 3.02417 -1.27916 2.80089 0
M  V30 21 H 2.24483 -2.3086 1.74368 0
M  V30 22 H 4.18721 -0.410539 1.03051 0
M  V30 23 H 2.60057 1.14802 2.00191 0
M  V30 24 H 3.4432 2.56326 0.461197 0
M  V30 25 H 2.2673 2.02589 -0.747496 0
M  V30 26 H 5.14182 1.07315 -0.239227 0
M  V30 27 H 4.35903 1.7206 -1.69073 0
M  V30 28 H 3.51982 -0.245994 -2.41352 0
M  V30 29 H 4.81263 -0.922638 -1.40754 0
M  V30 30 H 3.13132 -2.18516 -0.520399 0
M  V30 31 H 1.5258 0.00627663 -1.80485 0
M  V30 32 H 1.17902 -1.71801 -1.6294 0
M  V30 33 H 0.249794 -1.41248 0.585524 0
M  V30 34 H 0.575188 1.57291 0.286563 0
M  V30 35 H 0.4168 0.613534 1.78429 0
M  V30 36 H -1.58162 -0.701684 1.88441 0
M  V30 37 H -2.05023 1.08882 1.85305 0
M  V30 38 H -3.7834 -1.36504 1.22916 0
M  V30 39 H -4.05687 -0.0682899 2.49679 0
M  V30 40 H -4.27641 1.64601 0.89056 0
M  V30 41 H -3.12566 1.53591 -1.12861 0
M  V30 42 H -4.6155 -0.9816 -1.43817 0
M  V30 43 H -2.90822 -1.24854 -1.83037 0
M  V30 44 H -3.84911 0.0427647 -2.67317 0
M  V30 45 H -5.75806 -0.792784 0.241841 0
M  V30 46 H -5.85891 0.55423 -0.85584 0
M  V30 END ATOM
M  V30 BEGIN BOND
M  V30 1 1 1 2
M  V30 2 1 2 3
M  V30 3 1 3 4
M  V30 4 1 4 5
M  V30 5 1 5 6
M  V30 6 1 6 7
M  V30 7 1 7 8
M  V30 8 1 8 9
M  V30 9 1 9 10
M  V30 10 1 9 11
M  V30 11 2 11 12
M  V30 12 1 11 13
M  V30 13 1 13 14
M  V30 14 1 14 15
M  V30 15 1 15 16
M  V30 16 1 16 17
M  V30 17 1 17 18
M  V30 18 1 16 19
M  V30 19 1 7 2
M  V30 20 1 17 13
M  V30 21 1 10 3
M  V30 22 1 1 20
M  V30 23 1 1 21
M  V30 24 1 2 22
M  V30 25 1 3 23
M  V30 26 1 4 24
M  V30 27 1 4 25
M  V30 28 1 5 26
M  V30 29 1 5 27
M  V30 30 1 6 28
M  V30 31 1 6 29
M  V30 32 1 7 30
M  V30 33 1 8 31
M  V30 34 1 8 32
M  V30 35 1 9 33
M  V30 36 1 10 34
M  V30 37 1 10 35
M  V30 38 1 14 36
M  V30 39 1 14 37
M  V30 40 1 15 38
M  V30 41 1 15 39
M  V30 42 1 16 40 CFG=1
M  V30 43 1 17 41 CFG=3
M  V30 44 1 18 42
M  V30 45 1 18 43
M  V30 46 1 18 44
M  V30 47 1 19 45
M  V30 48 1 19 46
M  V30 END BOND
M  V30 END CTAB
M  END
