
     RDKit          3D

  0  0  0  0  0  0  0  0  0  0999 V3000
M  V30 BEGIN CTAB
M  V30 COUNTS 14 14 0 0 0
M  V30 BEGIN ATOM
M  V30 1 O 3.41288 -1.68745 0.0807766 0 CHG=-1
M  V30 2 N 2.91634 -0.415189 -0.0263729 0 CHG=1
M  V30 3 O 3.66899 0.566376 -0.13493 0
M  V30 4 C 1.51515 -0.197096 -0.014753 0
M  V30 5 N 0.543045 -1.14707 0.0957349 0
M  V30 6 N -0.637494 -0.57033 0.0689436 0
M  V30 7 C -0.487506 0.752478 -0.0575172 0
M  V30 8 N 0.858573 0.969245 -0.108312 0
M  V30 9 N -1.51062 1.74843 -0.126869 0
M  V30 10 N -1.85243 -1.23033 0.15795 0
M  V30 11 H -2.35081 1.67572 0.466064 0
M  V30 12 H -1.37531 2.53672 -0.789034 0
M  V30 13 H -2.16102 -1.73043 1.03709 0
M  V30 14 H -2.53977 -1.27106 -0.64877 0
M  V30 END ATOM
M  V30 BEGIN BOND
M  V30 1 1 1 2
M  V30 2 2 2 3
M  V30 3 1 2 4
M  V30 4 2 4 5
M  V30 5 1 5 6
M  V30 6 1 6 7
M  V30 7 2 7 8
M  V30 8 1 7 9
M  V30 9 1 6 10
M  V30 10 1 8 4
M  V30 11 1 9 11
M  V30 12 1 9 12
M  V30 13 1 10 13
M  V30 14 1 10 14
M  V30 END BOND
M  V30 END CTAB
M  END
