
     RDKit          3D

  0  0  0  0  0  0  0  0  0  0999 V3000
M  V30 BEGIN CTAB
M  V30 COUNTS 46 47 0 0 0
M  V30 BEGIN ATOM
M  V30 1 N -2.5921 -0.91587 -3.05306 0
M  V30 2 C -1.31746 -0.906851 -2.4541 0
M  V30 3 C -1.17149 -0.384378 -1.07896 0
M  V30 4 C -1.90975 -1.0393 0.0172061 0
M  V30 5 C -3.38452 -1.08434 -0.0341729 0
M  V30 6 C -4.02753 0.23995 0.387163 0
M  V30 7 C -3.83066 0.480816 1.86584 0
M  V30 8 C -2.65884 -0.362592 2.31961 0
M  V30 9 C -1.55069 -0.247304 1.29365 0
M  V30 10 N 0.259441 -0.534687 -0.745599 0
M  V30 11 C 1.12924 0.518011 -0.473179 0
M  V30 12 O 0.75611 1.71172 -0.490994 0
M  V30 13 C 2.5497 0.248063 -0.148044 0
M  V30 14 N 2.80727 -1.16824 -0.170889 0
M  V30 15 C 2.80694 0.799116 1.23382 0
M  V30 16 C 4.25566 0.642423 1.63951 0
M  V30 17 O 5.13835 1.00987 0.647766 0
M  V30 18 C 4.56319 1.73444 -0.367001 0
M  V30 19 C 3.47069 0.987205 -1.09907 0
M  V30 20 H -3.027 -1.83524 -3.21565 0
M  V30 21 H -2.78456 -0.200611 -3.76326 0
M  V30 22 H -0.887451 -1.95303 -2.48675 0
M  V30 23 H -0.643167 -0.268456 -3.10136 0
M  V30 24 H -1.34182 0.713809 -0.996039 0
M  V30 25 H -1.44643 -2.05976 0.162265 0
M  V30 26 H -3.87492 -1.38811 -0.945937 0
M  V30 27 H -3.72645 -1.81602 0.764244 0
M  V30 28 H -3.61526 1.01804 -0.251401 0
M  V30 29 H -5.109 0.145372 0.157647 0
M  V30 30 H -3.64608 1.55589 2.01861 0
M  V30 31 H -4.7184 0.121586 2.4033 0
M  V30 32 H -2.92285 -1.38619 2.58493 0
M  V30 33 H -2.2668 0.121139 3.24258 0
M  V30 34 H -0.569522 -0.584973 1.67271 0
M  V30 35 H -1.56086 0.820668 0.977516 0
M  V30 36 H 0.586144 -1.53129 -0.728233 0
M  V30 37 H 3.71514 -1.38856 0.281852 0
M  V30 38 H 2.73095 -1.4929 -1.15262 0
M  V30 39 H 2.18443 0.253025 1.95093 0
M  V30 40 H 2.48708 1.85834 1.24679 0
M  V30 41 H 4.44685 -0.408356 1.93766 0
M  V30 42 H 4.39831 1.24768 2.5668 0
M  V30 43 H 4.20828 2.71081 0.01989 0
M  V30 44 H 5.35385 1.95711 -1.11554 0
M  V30 45 H 2.8476 1.73884 -1.63478 0
M  V30 46 H 3.88843 0.323128 -1.88564 0
M  V30 END ATOM
M  V30 BEGIN BOND
M  V30 1 1 1 2
M  V30 2 1 2 3
M  V30 3 1 3 4
M  V30 4 1 4 5
M  V30 5 1 5 6
M  V30 6 1 6 7
M  V30 7 1 7 8
M  V30 8 1 8 9
M  V30 9 1 3 10
M  V30 10 1 10 11
M  V30 11 2 11 12
M  V30 12 1 11 13
M  V30 13 1 13 14
M  V30 14 1 13 15
M  V30 15 1 15 16
M  V30 16 1 16 17
M  V30 17 1 17 18
M  V30 18 1 18 19
M  V30 19 1 9 4
M  V30 20 1 19 13
M  V30 21 1 1 20
M  V30 22 1 1 21
M  V30 23 1 2 22
M  V30 24 1 2 23
M  V30 25 1 3 24
M  V30 26 1 4 25
M  V30 27 1 5 26
M  V30 28 1 5 27
M  V30 29 1 6 28
M  V30 30 1 6 29
M  V30 31 1 7 30
M  V30 32 1 7 31
M  V30 33 1 8 32
M  V30 34 1 8 33
M  V30 35 1 9 34
M  V30 36 1 9 35
M  V30 37 1 10 36
M  V30 38 1 14 37
M  V30 39 1 14 38
M  V30 40 1 15 39
M  V30 41 1 15 40
M  V30 42 1 16 41
M  V30 43 1 16 42
M  V30 44 1 18 43
M  V30 45 1 18 44
M  V30 46 1 19 45
M  V30 47 1 19 46
M  V30 END BOND
M  V30 END CTAB
M  END
