
     RDKit          3D

  0  0  0  0  0  0  0  0  0  0999 V3000
M  V30 BEGIN CTAB
M  V30 COUNTS 24 24 0 0 0
M  V30 BEGIN ATOM
M  V30 1 N -3.65224 -1.66584 -0.0573014 0
M  V30 2 C -2.75364 -0.567282 -0.0917336 0
M  V30 3 C -1.40226 -0.843905 -0.311377 0
M  V30 4 C -0.449211 0.151006 -0.36271 0
M  V30 5 C 0.981373 -0.15154 -0.596076 0
M  V30 6 N 1.70793 -0.379013 0.628142 0
M  V30 7 S 3.35738 -0.718057 0.180906 0
M  V30 8 O 3.42627 -1.39869 -1.15748 0
M  V30 9 O 3.95489 -1.68976 1.17988 0
M  V30 10 N 4.29314 0.729951 0.107119 0
M  V30 11 C -0.894833 1.44652 -0.185471 0
M  V30 12 C -2.22718 1.72694 0.0317448 0
M  V30 13 C -3.17986 0.732611 0.0830752 0
M  V30 14 F -2.63302 3.00617 0.201813 0
M  V30 15 H -4.00463 -1.98548 0.864829 0
M  V30 16 H -3.94416 -2.13169 -0.936635 0
M  V30 17 H -1.06264 -1.86445 -0.44935 0
M  V30 18 H 1.10287 -1.08062 -1.21937 0
M  V30 19 H 1.50052 0.645349 -1.16658 0
M  V30 20 H 1.74708 0.468669 1.23335 0
M  V30 21 H 4.76888 0.936531 0.993394 0
M  V30 22 H 3.71882 1.48773 -0.284096 0
M  V30 23 H -0.125811 2.22633 -0.228891 0
M  V30 24 H -4.22968 0.918507 0.25118 0
M  V30 END ATOM
M  V30 BEGIN BOND
M  V30 1 1 1 2
M  V30 2 2 2 3
M  V30 3 1 3 4
M  V30 4 1 4 5
M  V30 5 1 5 6
M  V30 6 1 6 7
M  V30 7 2 7 8
M  V30 8 2 7 9
M  V30 9 1 7 10
M  V30 10 2 4 11
M  V30 11 1 11 12
M  V30 12 2 12 13
M  V30 13 1 12 14
M  V30 14 1 13 2
M  V30 15 1 1 15
M  V30 16 1 1 16
M  V30 17 1 3 17
M  V30 18 1 5 18
M  V30 19 1 5 19
M  V30 20 1 6 20
M  V30 21 1 10 21
M  V30 22 1 10 22
M  V30 23 1 11 23
M  V30 24 1 13 24
M  V30 END BOND
M  V30 END CTAB
M  END
