
     RDKit          3D

  0  0  0  0  0  0  0  0  0  0999 V3000
M  V30 BEGIN CTAB
M  V30 COUNTS 16 17 0 0 0
M  V30 BEGIN ATOM
M  V30 1 N -4.02517 0.618442 -0.443643 0
M  V30 2 C -2.79796 0.0747981 0.00942072 0
M  V30 3 N -1.57907 0.357611 -0.48155 0
M  V30 4 C -0.697445 -0.366327 0.225204 0
M  V30 5 N -1.43131 -1.05277 1.11112 0
M  V30 6 O -2.67438 -0.782137 0.972471 0
M  V30 7 C 0.74042 -0.372942 0.0351189 0
M  V30 8 N 1.58611 -1.11461 0.767089 0
M  V30 9 O 2.80433 -0.915116 0.371462 0
M  V30 10 C 2.82532 -0.0537902 -0.616511 0
M  V30 11 N 3.94951 0.439141 -1.33481 0
M  V30 12 N 1.52194 0.288538 -0.828842 0
M  V30 13 H -4.94115 0.162673 -0.195923 0
M  V30 14 H -4.02133 1.49062 -1.03649 0
M  V30 15 H 4.73155 -0.202506 -1.55636 0
M  V30 16 H 4.00863 1.42838 -1.64472 0
M  V30 END ATOM
M  V30 BEGIN BOND
M  V30 1 1 1 2
M  V30 2 2 2 3
M  V30 3 1 3 4
M  V30 4 2 4 5
M  V30 5 1 5 6
M  V30 6 1 4 7
M  V30 7 2 7 8
M  V30 8 1 8 9
M  V30 9 1 9 10
M  V30 10 1 10 11
M  V30 11 2 10 12
M  V30 12 1 6 2
M  V30 13 1 12 7
M  V30 14 1 1 13
M  V30 15 1 1 14
M  V30 16 1 11 15
M  V30 17 1 11 16
M  V30 END BOND
M  V30 END CTAB
M  END
