
     RDKit          3D

  0  0  0  0  0  0  0  0  0  0999 V3000
M  V30 BEGIN CTAB
M  V30 COUNTS 18 18 0 0 0
M  V30 BEGIN ATOM
M  V30 1 C -1.114 2.32217 0.0599473 0
M  V30 2 C -0.686597 0.910239 0.0213099 0
M  V30 3 C 0.677554 0.624282 0.0270688 0
M  V30 4 O 1.56286 1.68723 0.0689749 0
M  V30 5 C 1.14478 -0.665983 -0.00740738 0
M  V30 6 N 2.54666 -0.903082 0.000290241 0
M  V30 7 N 0.237959 -1.65617 -0.0473184 0
M  V30 8 C -1.10032 -1.43075 -0.0546576 0
M  V30 9 N -2.03298 -2.49945 -0.097238 0
M  V30 10 N -1.52304 -0.139814 -0.0196856 0
M  V30 11 H -0.690343 2.79447 0.961372 0
M  V30 12 H -2.22435 2.36875 0.0254795 0
M  V30 13 H -0.759228 2.90359 -0.81546 0
M  V30 14 H 2.55023 1.48636 0.0733402 0
M  V30 15 H 3.22186 -0.369709 0.588937 0
M  V30 16 H 2.93322 -1.64662 -0.610136 0
M  V30 17 H -2.46148 -2.83122 -0.974694 0
M  V30 18 H -2.28277 -2.95431 0.799878 0
M  V30 END ATOM
M  V30 BEGIN BOND
M  V30 1 1 1 2
M  V30 2 2 2 3
M  V30 3 1 3 4
M  V30 4 1 3 5
M  V30 5 1 5 6
M  V30 6 2 5 7
M  V30 7 1 7 8
M  V30 8 1 8 9
M  V30 9 2 8 10
M  V30 10 1 10 2
M  V30 11 1 1 11
M  V30 12 1 1 12
M  V30 13 1 1 13
M  V30 14 1 4 14
M  V30 15 1 6 15
M  V30 16 1 6 16
M  V30 17 1 9 17
M  V30 18 1 9 18
M  V30 END BOND
M  V30 END CTAB
M  END
