
     RDKit          3D

  0  0  0  0  0  0  0  0  0  0999 V3000
M  V30 BEGIN CTAB
M  V30 COUNTS 18 18 0 0 0
M  V30 BEGIN ATOM
M  V30 1 O 3.90004 0.236539 0.796849 0 CHG=-1
M  V30 2 N 2.96748 -0.414259 0.0013676 0 CHG=1
M  V30 3 O 3.42998 -1.32207 -0.72959 0
M  V30 4 C 1.59447 -0.059323 0.0311297 0
M  V30 5 C 1.2182 1.23972 0.284366 0
M  V30 6 C -0.13133 1.61171 0.318394 0
M  V30 7 C -1.09042 0.646183 0.0917406 0
M  V30 8 C -0.714837 -0.661255 -0.163218 0
M  V30 9 C 0.634733 -1.02369 -0.195285 0
M  V30 10 Cl 1.06522 -2.69092 -0.52206 0
M  V30 11 N -1.7347 -1.60049 -0.386331 0
M  V30 12 N -2.47229 1.0035 0.121756 0
M  V30 13 H 1.95243 1.9916 0.460405 0
M  V30 14 H -0.400651 2.64432 0.520788 0
M  V30 15 H -1.79484 -2.5305 0.0743365 0
M  V30 16 H -2.49024 -1.35354 -1.06241 0
M  V30 17 H -2.83808 1.29823 1.06174 0
M  V30 18 H -3.09517 0.984267 -0.703973 0
M  V30 END ATOM
M  V30 BEGIN BOND
M  V30 1 1 1 2
M  V30 2 2 2 3
M  V30 3 1 2 4
M  V30 4 2 4 5
M  V30 5 1 5 6
M  V30 6 2 6 7
M  V30 7 1 7 8
M  V30 8 2 8 9
M  V30 9 1 9 10
M  V30 10 1 8 11
M  V30 11 1 7 12
M  V30 12 1 9 4
M  V30 13 1 5 13
M  V30 14 1 6 14
M  V30 15 1 11 15
M  V30 16 1 11 16
M  V30 17 1 12 17
M  V30 18 1 12 18
M  V30 END BOND
M  V30 END CTAB
M  END
