
     RDKit          3D

  0  0  0  0  0  0  0  0  0  0999 V3000
M  V30 BEGIN CTAB
M  V30 COUNTS 46 48 0 0 0
M  V30 BEGIN ATOM
M  V30 1 N 4.2898 -0.403453 -2.15813 0
M  V30 2 C 3.65515 -0.269538 -0.864244 0
M  V30 3 C 2.16426 -0.0339449 -0.985935 0
M  V30 4 N 1.84368 0.485436 0.348768 0
M  V30 5 C 3.02093 1.10497 0.908714 0
M  V30 6 C 4.08969 1.01283 -0.163092 0
M  V30 7 C 5.46944 0.869801 0.431272 0
M  V30 8 C 0.580387 0.394378 0.984566 0
M  V30 9 O 0.436176 0.877511 2.13529 0
M  V30 10 C -0.614529 -0.249952 0.36538 0
M  V30 11 C -1.00753 0.465482 -0.883751 0
M  V30 12 C -2.43065 0.265706 -1.307 0
M  V30 13 C -2.64303 -1.20077 -1.59192 0
M  V30 14 C -3.82211 -1.7652 -0.852541 0
M  V30 15 C -3.75271 -1.57342 0.625928 0
M  V30 16 C -3.07771 -0.239842 0.971597 0
M  V30 17 C -1.68134 -0.489082 1.35302 0
M  V30 18 C -3.31223 0.671969 -0.173855 0
M  V30 19 N -3.18941 2.07552 0.154366 0
M  V30 20 H 3.56987 -0.666875 -2.8482 0
M  V30 21 H 4.95974 -1.2049 -2.08106 0
M  V30 22 H 3.79407 -1.15869 -0.241376 0
M  V30 23 H 1.61613 -0.978608 -1.18117 0
M  V30 24 H 1.95931 0.765671 -1.70069 0
M  V30 25 H 2.84238 2.151 1.22592 0
M  V30 26 H 3.35692 0.461266 1.75118 0
M  V30 27 H 3.99946 1.82469 -0.885009 0
M  V30 28 H 5.63257 -0.140026 0.817381 0
M  V30 29 H 5.60594 1.67589 1.17941 0
M  V30 30 H 6.21039 1.04559 -0.375703 0
M  V30 31 H -0.233567 -1.26386 0.0275441 0
M  V30 32 H -0.379404 0.210271 -1.76288 0
M  V30 33 H -0.869332 1.57912 -0.750626 0
M  V30 34 H -2.61766 0.900301 -2.18323 0
M  V30 35 H -1.7603 -1.81298 -1.33051 0
M  V30 36 H -2.84881 -1.29819 -2.67779 0
M  V30 37 H -4.74418 -1.32872 -1.2911 0
M  V30 38 H -3.8516 -2.85753 -1.07547 0
M  V30 39 H -3.14101 -2.40062 1.08721 0
M  V30 40 H -4.76016 -1.65357 1.03871 0
M  V30 41 H -3.68807 0.158186 1.83746 0
M  V30 42 H -1.45638 0.159161 2.25547 0
M  V30 43 H -1.61202 -1.53417 1.78402 0
M  V30 44 H -4.38324 0.531108 -0.505526 0
M  V30 45 H -3.46761 2.22615 1.13717 0
M  V30 46 H -3.7517 2.61194 -0.534758 0
M  V30 END ATOM
M  V30 BEGIN BOND
M  V30 1 1 1 2
M  V30 2 1 2 3
M  V30 3 1 3 4
M  V30 4 1 4 5
M  V30 5 1 5 6
M  V30 6 1 6 7
M  V30 7 1 4 8
M  V30 8 2 8 9
M  V30 9 1 8 10
M  V30 10 1 10 11
M  V30 11 1 11 12
M  V30 12 1 12 13
M  V30 13 1 13 14
M  V30 14 1 14 15
M  V30 15 1 15 16
M  V30 16 1 16 17
M  V30 17 1 16 18
M  V30 18 1 18 19
M  V30 19 1 6 2
M  V30 20 1 17 10
M  V30 21 1 18 12
M  V30 22 1 1 20
M  V30 23 1 1 21
M  V30 24 1 2 22
M  V30 25 1 3 23
M  V30 26 1 3 24
M  V30 27 1 5 25
M  V30 28 1 5 26
M  V30 29 1 6 27
M  V30 30 1 7 28
M  V30 31 1 7 29
M  V30 32 1 7 30
M  V30 33 1 10 31
M  V30 34 1 11 32
M  V30 35 1 11 33
M  V30 36 1 12 34
M  V30 37 1 13 35
M  V30 38 1 13 36
M  V30 39 1 14 37
M  V30 40 1 14 38
M  V30 41 1 15 39
M  V30 42 1 15 40
M  V30 43 1 16 41
M  V30 44 1 17 42
M  V30 45 1 17 43
M  V30 46 1 18 44
M  V30 47 1 19 45
M  V30 48 1 19 46
M  V30 END BOND
M  V30 END CTAB
M  END
