
     RDKit          3D

  0  0  0  0  0  0  0  0  0  0999 V3000
M  V30 BEGIN CTAB
M  V30 COUNTS 35 36 0 0 0
M  V30 BEGIN ATOM
M  V30 1 N 4.40507 -1.21487 -0.447441 0
M  V30 2 C 3.41516 -0.372136 0.12177 0
M  V30 3 C 3.76259 0.430608 1.17819 0
M  V30 4 C 2.80207 1.25431 1.7374 0
M  V30 5 C 1.52907 1.23312 1.20598 0
M  V30 6 C 1.14251 0.440575 0.145584 0
M  V30 7 C 2.11319 -0.370461 -0.395171 0
M  V30 8 C -0.221587 0.426609 -0.424862 0 CFG=1
M  V30 9 C -0.328151 -0.741297 -1.37587 0
M  V30 10 C -1.72258 -1.04833 -1.82349 0
M  V30 11 O -2.68115 -1.01237 -0.840691 0
M  V30 12 C -2.25832 -1.75396 0.241244 0
M  V30 13 C -1.57628 -0.753362 1.18662 0
M  V30 14 N -1.25074 0.453736 0.54917 0
M  V30 15 S -2.27951 1.74557 0.625609 0
M  V30 16 O -3.27986 1.53136 1.75582 0
M  V30 17 O -1.6701 3.09664 0.897375 0
M  V30 18 N -3.19498 1.94078 -0.844345 0
M  V30 19 H 5.40961 -0.970499 -0.47993 0
M  V30 20 H 4.12022 -2.12146 -0.853337 0
M  V30 21 H 4.76125 0.4623 1.61234 0
M  V30 22 H 3.0376 1.90602 2.57645 0
M  V30 23 H 0.818269 1.87547 1.65985 0
M  V30 24 H 1.94397 -1.04403 -1.23607 0
M  V30 25 H -0.31613 1.34812 -1.04984 0
M  V30 26 H 0.0595782 -1.68752 -0.911904 0
M  V30 27 H 0.275376 -0.583341 -2.2973 0
M  V30 28 H -1.99424 -0.253996 -2.58001 0
M  V30 29 H -1.76586 -1.99644 -2.42378 0
M  V30 30 H -3.08997 -2.23996 0.789216 0
M  V30 31 H -1.57854 -2.55486 -0.0800208 0
M  V30 32 H -2.22295 -0.566265 2.06372 0
M  V30 33 H -0.659244 -1.29319 1.54678 0
M  V30 34 H -3.37067 2.93862 -1.07243 0
M  V30 35 H -4.13467 1.4945 -0.756616 0
M  V30 END ATOM
M  V30 BEGIN BOND
M  V30 1 1 1 2
M  V30 2 2 2 3
M  V30 3 1 3 4
M  V30 4 2 4 5
M  V30 5 1 5 6
M  V30 6 2 6 7
M  V30 7 1 6 8
M  V30 8 1 8 9
M  V30 9 1 9 10
M  V30 10 1 10 11
M  V30 11 1 11 12
M  V30 12 1 12 13
M  V30 13 1 13 14
M  V30 14 1 14 15
M  V30 15 2 15 16
M  V30 16 2 15 17
M  V30 17 1 15 18
M  V30 18 1 7 2
M  V30 19 1 14 8
M  V30 20 1 1 19
M  V30 21 1 1 20
M  V30 22 1 3 21
M  V30 23 1 4 22
M  V30 24 1 5 23
M  V30 25 1 7 24
M  V30 26 1 8 25 CFG=3
M  V30 27 1 9 26
M  V30 28 1 9 27
M  V30 29 1 10 28
M  V30 30 1 10 29
M  V30 31 1 12 30
M  V30 32 1 12 31
M  V30 33 1 13 32
M  V30 34 1 13 33
M  V30 35 1 18 34
M  V30 36 1 18 35
M  V30 END BOND
M  V30 END CTAB
M  END
