
     RDKit          3D

  0  0  0  0  0  0  0  0  0  0999 V3000
M  V30 BEGIN CTAB
M  V30 COUNTS 80 83 0 0 0
M  V30 BEGIN ATOM
M  V30 1 C 0.474074 -2.86971 -0.835384 0
M  V30 2 C -0.386826 -1.59886 -0.925241 0 CFG=2
M  V30 3 C 0.375125 -0.426901 -1.41961 0
M  V30 4 N 0.907001 0.430146 -0.349568 0
M  V30 5 C -0.0294993 0.722852 0.686329 0 CFG=1
M  V30 6 C -1.14009 1.6598 0.188222 0
M  V30 7 C -0.54801 2.98074 -0.297684 0
M  V30 8 C -1.6634 3.88489 -0.78269 0
M  V30 9 N -1.14356 5.15088 -1.25368 0
M  V30 10 C -2.07344 6.10105 -1.73943 0
M  V30 11 N -2.80384 6.91594 -0.840852 0
M  V30 12 N -2.26716 6.23672 -2.99718 0
M  V30 13 C -0.737925 -0.49581 1.21237 0
M  V30 14 N -1.06679 -1.48394 0.311029 0
M  V30 15 C -2.46809 -1.65837 0.105524 0
M  V30 16 C -3.36374 -1.60155 1.28705 0
M  V30 17 C -4.75804 -1.85481 0.754586 0
M  V30 18 C -5.56715 -0.826111 0.335445 0
M  V30 19 C -6.85304 -1.09556 -0.152936 0
M  V30 20 C -7.33532 -2.38194 -0.225353 0
M  V30 21 C -8.70151 -2.66689 -0.745162 0
M  V30 22 C -6.51889 -3.40739 0.19663 0
M  V30 23 C -5.23389 -3.13528 0.684391 0
M  V30 24 C 2.2289 0.873047 -0.461267 0
M  V30 25 O 2.88643 0.538245 -1.50075 0
M  V30 26 C 2.97352 1.70436 0.50425 0 CFG=2
M  V30 27 N 4.17165 2.281 -0.0861375 0
M  V30 28 C 3.43852 0.896478 1.69425 0
M  V30 29 C 4.33002 -0.204806 1.32834 0
M  V30 30 C 3.82234 -1.44933 1.02597 0
M  V30 31 C 4.61896 -2.51487 0.676596 0
M  V30 32 C 5.99112 -2.3759 0.613841 0
M  V30 33 C 6.81567 -3.43362 0.264926 0
M  V30 34 C 8.18243 -3.28758 0.204766 0
M  V30 35 C 8.72049 -2.05923 0.500497 0
M  V30 36 C 7.899 -1.00999 0.846893 0
M  V30 37 C 6.52367 -1.1341 0.913722 0
M  V30 38 C 5.69852 -0.0723267 1.26391 0
M  V30 39 H -0.272895 -3.71772 -0.848103 0
M  V30 40 H 1.11039 -3.00376 -1.70881 0
M  V30 41 H 0.963381 -2.94678 0.14058 0
M  V30 42 H -1.1161 -1.85398 -1.75723 0
M  V30 43 H -0.312262 0.219888 -2.03276 0
M  V30 44 H 1.17936 -0.76305 -2.09331 0
M  V30 45 H 0.470606 1.26358 1.49683 0
M  V30 46 H -1.82948 1.91742 1.01772 0
M  V30 47 H -1.75339 1.18568 -0.598509 0
M  V30 48 H 0.0661695 3.44456 0.480611 0
M  V30 49 H 0.061947 2.72352 -1.19026 0
M  V30 50 H -2.41687 4.07065 0.0081413 0
M  V30 51 H -2.12037 3.36327 -1.65851 0
M  V30 52 H -0.134885 5.39209 -1.25268 0
M  V30 53 H -2.77081 6.77959 0.200539 0
M  V30 54 H -3.41223 7.69451 -1.17471 0
M  V30 55 H -1.81553 5.72165 -3.75661 0
M  V30 56 H 0.00472304 -0.939805 1.95673 0
M  V30 57 H -1.56426 -0.166151 1.85417 0
M  V30 58 H -2.68281 -2.64873 -0.418102 0
M  V30 59 H -2.87624 -0.917539 -0.652489 0
M  V30 60 H -3.14638 -2.37462 2.02946 0
M  V30 61 H -3.42545 -0.577166 1.76051 0
M  V30 62 H -5.18746 0.174232 0.393284 0
M  V30 63 H -7.49713 -0.286754 -0.486006 0
M  V30 64 H -9.26167 -3.38122 -0.136536 0
M  V30 65 H -9.24899 -1.7039 -0.826541 0
M  V30 66 H -8.56286 -3.02109 -1.79104 0
M  V30 67 H -6.91055 -4.40794 0.134113 0
M  V30 68 H -4.60197 -3.94347 1.01264 0
M  V30 69 H 2.32997 2.50862 0.866512 0
M  V30 70 H 4.1809 2.0707 -1.11371 0
M  V30 71 H 4.19651 3.32619 0.0323872 0
M  V30 72 H 3.949 1.64073 2.37561 0
M  V30 73 H 2.55883 0.559664 2.26402 0
M  V30 74 H 2.7441 -1.64531 1.0528 0
M  V30 75 H 4.2285 -3.49724 0.436759 0
M  V30 76 H 6.38209 -4.40445 0.0318217 0
M  V30 77 H 8.83245 -4.13055 -0.073294 0
M  V30 78 H 9.7851 -1.90441 0.464571 0
M  V30 79 H 8.2935 -0.0177241 1.0885 0
M  V30 80 H 6.18586 0.865516 1.4843 0
M  V30 END ATOM
M  V30 BEGIN BOND
M  V30 1 1 1 2
M  V30 2 1 2 3
M  V30 3 1 3 4
M  V30 4 1 4 5
M  V30 5 1 5 6
M  V30 6 1 6 7
M  V30 7 1 7 8
M  V30 8 1 8 9
M  V30 9 1 9 10
M  V30 10 1 10 11
M  V30 11 2 10 12 CFG=2
M  V30 12 1 5 13
M  V30 13 1 13 14
M  V30 14 1 14 15
M  V30 15 1 15 16
M  V30 16 1 16 17
M  V30 17 2 17 18
M  V30 18 1 18 19
M  V30 19 2 19 20
M  V30 20 1 20 21
M  V30 21 1 20 22
M  V30 22 2 22 23
M  V30 23 1 4 24
M  V30 24 2 24 25
M  V30 25 1 24 26
M  V30 26 1 26 27
M  V30 27 1 26 28
M  V30 28 1 28 29
M  V30 29 2 29 30
M  V30 30 1 30 31
M  V30 31 2 31 32
M  V30 32 1 32 33
M  V30 33 2 33 34
M  V30 34 1 34 35
M  V30 35 2 35 36
M  V30 36 1 36 37
M  V30 37 2 37 38
M  V30 38 1 14 2
M  V30 39 1 23 17
M  V30 40 1 38 29
M  V30 41 1 37 32
M  V30 42 1 1 39
M  V30 43 1 1 40
M  V30 44 1 1 41
M  V30 45 1 2 42 CFG=3
M  V30 46 1 3 43
M  V30 47 1 3 44
M  V30 48 1 5 45 CFG=1
M  V30 49 1 6 46
M  V30 50 1 6 47
M  V30 51 1 7 48
M  V30 52 1 7 49
M  V30 53 1 8 50
M  V30 54 1 8 51
M  V30 55 1 9 52
M  V30 56 1 11 53
M  V30 57 1 11 54
M  V30 58 1 12 55
M  V30 59 1 13 56
M  V30 60 1 13 57
M  V30 61 1 15 58
M  V30 62 1 15 59
M  V30 63 1 16 60
M  V30 64 1 16 61
M  V30 65 1 18 62
M  V30 66 1 19 63
M  V30 67 1 21 64
M  V30 68 1 21 65
M  V30 69 1 21 66
M  V30 70 1 22 67
M  V30 71 1 23 68
M  V30 72 1 26 69 CFG=1
M  V30 73 1 27 70
M  V30 74 1 27 71
M  V30 75 1 28 72
M  V30 76 1 28 73
M  V30 77 1 30 74
M  V30 78 1 31 75
M  V30 79 1 33 76
M  V30 80 1 34 77
M  V30 81 1 35 78
M  V30 82 1 36 79
M  V30 83 1 38 80
M  V30 END BOND
M  V30 END CTAB
M  END
