
     RDKit          3D

  0  0  0  0  0  0  0  0  0  0999 V3000
M  V30 BEGIN CTAB
M  V30 COUNTS 23 23 0 0 0
M  V30 BEGIN ATOM
M  V30 1 C 5.63733 0.539733 0.697761 0
M  V30 2 C 4.2959 -0.0754301 0.610563 0
M  V30 3 C 3.20348 -0.609194 0.532705 0
M  V30 4 C 1.89581 -1.28609 0.433372 0
M  V30 5 S 1.017 -0.64261 -0.981324 0
M  V30 6 C -0.676167 -0.239561 -0.636844 0
M  V30 7 N -1.39878 0.275997 -1.65971 0
M  V30 8 C -2.70594 0.576854 -1.55208 0
M  V30 9 N -3.4203 1.11356 -2.65903 0
M  V30 10 C -3.29894 0.338568 -0.331734 0
M  V30 11 C -2.59682 -0.184502 0.733257 0
M  V30 12 N -1.29722 -0.457432 0.5397 0
M  V30 13 N -3.26682 -0.414757 1.96471 0
M  V30 14 H 6.05379 0.236764 1.69821 0
M  V30 15 H 5.60394 1.6466 0.598953 0
M  V30 16 H 6.31567 0.11391 -0.0830481 0
M  V30 17 H 2.02456 -2.38275 0.312151 0
M  V30 18 H 1.34616 -1.12403 1.39353 0
M  V30 19 H -2.9835 1.67515 -3.40472 0
M  V30 20 H -4.44204 0.923958 -2.70474 0
M  V30 21 H -4.36224 0.580649 -0.260181 0
M  V30 22 H -3.8751 -1.22961 2.03557 0
M  V30 23 H -3.06979 0.286777 2.72291 0
M  V30 END ATOM
M  V30 BEGIN BOND
M  V30 1 1 1 2
M  V30 2 3 2 3
M  V30 3 1 3 4
M  V30 4 1 4 5
M  V30 5 1 5 6
M  V30 6 2 6 7
M  V30 7 1 7 8
M  V30 8 1 8 9
M  V30 9 2 8 10
M  V30 10 1 10 11
M  V30 11 2 11 12
M  V30 12 1 11 13
M  V30 13 1 12 6
M  V30 14 1 1 14
M  V30 15 1 1 15
M  V30 16 1 1 16
M  V30 17 1 4 17
M  V30 18 1 4 18
M  V30 19 1 9 19
M  V30 20 1 9 20
M  V30 21 1 10 21
M  V30 22 1 13 22
M  V30 23 1 13 23
M  V30 END BOND
M  V30 END CTAB
M  END
