
     RDKit          3D

  0  0  0  0  0  0  0  0  0  0999 V3000
M  V30 BEGIN CTAB
M  V30 COUNTS 37 38 0 0 0
M  V30 BEGIN ATOM
M  V30 1 N -5.19904 -0.73751 0.842855 0
M  V30 2 C -3.89095 -1.20235 0.509384 0
M  V30 3 C -2.84238 -0.11249 0.595175 0
M  V30 4 C -3.14514 1.02809 -0.342387 0
M  V30 5 N -2.32646 1.01038 -1.52738 0
M  V30 6 C -0.924044 1.12248 -1.27638 0
M  V30 7 C -0.573461 0.549748 0.0658636 0
M  V30 8 C -1.46054 -0.655225 0.292455 0
M  V30 9 C 0.856834 0.232321 0.16034 0
M  V30 10 C 1.6604 0.835763 1.10438 0
M  V30 11 C 3.01347 0.543791 1.20314 0
M  V30 12 C 3.61179 -0.366012 0.357037 0
M  V30 13 C 2.81287 -0.972735 -0.589254 0
M  V30 14 C 1.45273 -0.677992 -0.687116 0
M  V30 15 C 5.0586 -0.690966 0.448043 0
M  V30 16 N 5.86494 0.180831 -0.388242 0
M  V30 17 H -5.62073 -1.17416 1.66964 0
M  V30 18 H -5.82399 -0.547586 0.0551413 0
M  V30 19 H -3.61436 -1.99833 1.22694 0
M  V30 20 H -3.81697 -1.66177 -0.504713 0
M  V30 21 H -2.79342 0.312744 1.61961 0
M  V30 22 H -4.20484 0.95097 -0.683746 0
M  V30 23 H -3.06704 2.01393 0.162836 0
M  V30 24 H -2.62829 1.81733 -2.11838 0
M  V30 25 H -0.56039 2.16508 -1.36374 0
M  V30 26 H -0.391891 0.515608 -2.05441 0
M  V30 27 H -0.863041 1.30054 0.82942 0
M  V30 28 H -1.0942 -1.32715 1.07608 0
M  V30 29 H -1.53834 -1.17581 -0.701607 0
M  V30 30 H 1.24454 1.55658 1.79326 0
M  V30 31 H 3.65352 1.00982 1.93836 0
M  V30 32 H 3.26801 -1.68717 -1.25838 0
M  V30 33 H 0.816512 -1.15255 -1.43091 0
M  V30 34 H 5.26873 -1.74157 0.170525 0
M  V30 35 H 5.44043 -0.544902 1.49706 0
M  V30 36 H 6.84124 0.134169 -0.0195619 0
M  V30 37 H 5.51488 1.14612 -0.432098 0
M  V30 END ATOM
M  V30 BEGIN BOND
M  V30 1 1 1 2
M  V30 2 1 2 3
M  V30 3 1 3 4
M  V30 4 1 4 5
M  V30 5 1 5 6
M  V30 6 1 6 7
M  V30 7 1 7 8
M  V30 8 1 7 9
M  V30 9 2 9 10
M  V30 10 1 10 11
M  V30 11 2 11 12
M  V30 12 1 12 13
M  V30 13 2 13 14
M  V30 14 1 12 15
M  V30 15 1 15 16
M  V30 16 1 8 3
M  V30 17 1 14 9
M  V30 18 1 1 17
M  V30 19 1 1 18
M  V30 20 1 2 19
M  V30 21 1 2 20
M  V30 22 1 3 21
M  V30 23 1 4 22
M  V30 24 1 4 23
M  V30 25 1 5 24
M  V30 26 1 6 25
M  V30 27 1 6 26
M  V30 28 1 7 27
M  V30 29 1 8 28
M  V30 30 1 8 29
M  V30 31 1 10 30
M  V30 32 1 11 31
M  V30 33 1 13 32
M  V30 34 1 14 33
M  V30 35 1 15 34
M  V30 36 1 15 35
M  V30 37 1 16 36
M  V30 38 1 16 37
M  V30 END BOND
M  V30 END CTAB
M  END
