
     RDKit          3D

  0  0  0  0  0  0  0  0  0  0999 V3000
M  V30 BEGIN CTAB
M  V30 COUNTS 34 35 0 0 0
M  V30 BEGIN ATOM
M  V30 1 C 0.162067 -0.651356 -1.34234 0
M  V30 2 N 0.263397 -1.18613 -0.00921615 0
M  V30 3 C -0.31732 -0.345973 0.988337 0
M  V30 4 C -1.77282 -0.134401 0.721186 0
M  V30 5 N -2.71484 -0.949833 1.21226 0
M  V30 6 C -4.01679 -0.725154 0.948818 0
M  V30 7 N -5.04066 -1.5581 1.44544 0
M  V30 8 N -4.36144 0.321508 0.191 0
M  V30 9 C -3.44779 1.15273 -0.313416 0
M  V30 10 N -2.14738 0.906104 -0.0347901 0
M  V30 11 N -3.78795 2.26898 -1.11946 0
M  V30 12 C 1.58408 -1.60923 0.351527 0
M  V30 13 C 2.59401 -0.525699 0.307295 0
M  V30 14 C 3.29322 -0.334141 -0.856997 0
M  V30 15 C 4.23568 0.661875 -0.930411 0
M  V30 16 C 4.49146 1.47409 0.148324 0
M  V30 17 C 3.77448 1.25811 1.30257 0
M  V30 18 C 2.82194 0.267128 1.40862 0
M  V30 19 F 4.00559 2.04956 2.39396 0
M  V30 20 H -0.925252 -0.73093 -1.62924 0
M  V30 21 H 0.438773 0.420828 -1.408 0
M  V30 22 H 0.730851 -1.19591 -2.08985 0
M  V30 23 H -0.200765 -0.864426 1.97065 0
M  V30 24 H 0.187271 0.662573 1.04072 0
M  V30 25 H -4.99272 -2.58603 1.30426 0
M  V30 26 H -5.84576 -1.14614 1.9539 0
M  V30 27 H -3.76469 2.1733 -2.152 0
M  V30 28 H -4.06177 3.18615 -0.719494 0
M  V30 29 H 1.55741 -1.9991 1.3833 0
M  V30 30 H 1.87499 -2.47072 -0.304101 0
M  V30 31 H 3.08989 -0.983671 -1.72101 0
M  V30 32 H 4.79676 0.819773 -1.85632 0
M  V30 33 H 5.23644 2.26822 0.104143 0
M  V30 34 H 2.25961 0.106013 2.33073 0
M  V30 END ATOM
M  V30 BEGIN BOND
M  V30 1 1 1 2
M  V30 2 1 2 3
M  V30 3 1 3 4
M  V30 4 2 4 5
M  V30 5 1 5 6
M  V30 6 1 6 7
M  V30 7 2 6 8
M  V30 8 1 8 9
M  V30 9 2 9 10
M  V30 10 1 9 11
M  V30 11 1 2 12
M  V30 12 1 12 13
M  V30 13 2 13 14
M  V30 14 1 14 15
M  V30 15 2 15 16
M  V30 16 1 16 17
M  V30 17 2 17 18
M  V30 18 1 17 19
M  V30 19 1 10 4
M  V30 20 1 18 13
M  V30 21 1 1 20
M  V30 22 1 1 21
M  V30 23 1 1 22
M  V30 24 1 3 23
M  V30 25 1 3 24
M  V30 26 1 7 25
M  V30 27 1 7 26
M  V30 28 1 11 27
M  V30 29 1 11 28
M  V30 30 1 12 29
M  V30 31 1 12 30
M  V30 32 1 14 31
M  V30 33 1 15 32
M  V30 34 1 16 33
M  V30 35 1 18 34
M  V30 END BOND
M  V30 END CTAB
M  END
