
     RDKit          3D

  0  0  0  0  0  0  0  0  0  0999 V3000
M  V30 BEGIN CTAB
M  V30 COUNTS 45 47 0 0 0
M  V30 BEGIN ATOM
M  V30 1 O -0.188313 -0.090337 3.23344 0
M  V30 2 C 0.15295 -0.239443 2.029 0
M  V30 3 N -0.738714 -0.688911 1.06072 0
M  V30 4 C -2.12523 -1.03413 1.2852 0
M  V30 5 C -2.92905 -0.0478939 0.534775 0
M  V30 6 C -4.02896 0.509855 1.15834 0
M  V30 7 C -4.83907 1.43227 0.557541 0
M  V30 8 C -4.5682 1.84171 -0.729306 0
M  V30 9 C -3.46724 1.29859 -1.38566 0
M  V30 10 C -2.67462 0.36971 -0.742893 0
M  V30 11 C -5.45558 2.84551 -1.37041 0
M  V30 12 C -2.45956 -2.45105 0.932417 0
M  V30 13 C -1.69003 -3.54176 1.70614 0
M  V30 14 C -1.38691 -3.23473 0.267438 0
M  V30 15 C 1.55324 0.081582 1.6598 0
M  V30 16 S 1.78477 -0.215958 -0.115353 0
M  V30 17 C 3.45885 0.167521 -0.613321 0
M  V30 18 N 4.36448 0.601908 0.260473 0
M  V30 19 C 5.64378 0.909185 -0.0718064 0
M  V30 20 N 6.57366 1.36773 0.898657 0
M  V30 21 C 6.00998 0.758422 -1.38797 0
M  V30 22 C 5.10565 0.313108 -2.31922 0
M  V30 23 N 3.85801 0.0344195 -1.88797 0
M  V30 24 N 5.46028 0.151403 -3.67958 0
M  V30 25 H -0.414086 -0.798442 0.0667666 0
M  V30 26 H -2.30466 -0.864071 2.36573 0
M  V30 27 H -4.30358 0.228378 2.18552 0
M  V30 28 H -5.69454 1.86316 1.04908 0
M  V30 29 H -3.24744 1.62358 -2.41309 0
M  V30 30 H -1.82124 -0.0446202 -1.26567 0
M  V30 31 H -6.51813 2.55596 -1.28347 0
M  V30 32 H -5.11151 3.03917 -2.38618 0
M  V30 33 H -5.34033 3.79148 -0.78033 0
M  V30 34 H -3.48228 -2.73451 0.65238 0
M  V30 35 H -2.25512 -4.45714 1.97031 0
M  V30 36 H -0.925702 -3.23783 2.42182 0
M  V30 37 H -1.68604 -4.06388 -0.438351 0
M  V30 38 H -0.404639 -2.82647 0.0284798 0
M  V30 39 H 2.24101 -0.617575 2.19331 0
M  V30 40 H 1.82136 1.12631 1.93197 0
M  V30 41 H 6.71175 2.39101 1.02674 0
M  V30 42 H 7.12966 0.720903 1.49474 0
M  V30 43 H 7.00246 0.981448 -1.72736 0
M  V30 44 H 4.80745 -0.292771 -4.35463 0
M  V30 45 H 6.38143 0.477207 -4.0182 0
M  V30 END ATOM
M  V30 BEGIN BOND
M  V30 1 2 1 2
M  V30 2 1 2 3
M  V30 3 1 3 4
M  V30 4 1 4 5
M  V30 5 2 5 6
M  V30 6 1 6 7
M  V30 7 2 7 8
M  V30 8 1 8 9
M  V30 9 2 9 10
M  V30 10 1 8 11
M  V30 11 1 4 12
M  V30 12 1 12 13
M  V30 13 1 13 14
M  V30 14 1 2 15
M  V30 15 1 15 16
M  V30 16 1 16 17
M  V30 17 2 17 18
M  V30 18 1 18 19
M  V30 19 1 19 20
M  V30 20 2 19 21
M  V30 21 1 21 22
M  V30 22 2 22 23
M  V30 23 1 22 24
M  V30 24 1 10 5
M  V30 25 1 14 12
M  V30 26 1 23 17
M  V30 27 1 3 25
M  V30 28 1 4 26
M  V30 29 1 6 27
M  V30 30 1 7 28
M  V30 31 1 9 29
M  V30 32 1 10 30
M  V30 33 1 11 31
M  V30 34 1 11 32
M  V30 35 1 11 33
M  V30 36 1 12 34
M  V30 37 1 13 35
M  V30 38 1 13 36
M  V30 39 1 14 37
M  V30 40 1 14 38
M  V30 41 1 15 39
M  V30 42 1 15 40
M  V30 43 1 20 41
M  V30 44 1 20 42
M  V30 45 1 21 43
M  V30 46 1 24 44
M  V30 47 1 24 45
M  V30 END BOND
M  V30 END CTAB
M  END
