
     RDKit          3D

  0  0  0  0  0  0  0  0  0  0999 V3000
M  V30 BEGIN CTAB
M  V30 COUNTS 33 35 0 0 0
M  V30 BEGIN ATOM
M  V30 1 N 4.09867 2.0314 0.123637 0
M  V30 2 C 2.94637 1.81182 0.118393 0
M  V30 3 C 1.52596 1.59162 0.139573 0
M  V30 4 C 0.772456 2.74357 0.328123 0
M  V30 5 N 1.36279 4.02712 0.437944 0
M  V30 6 N -0.559036 2.5778 0.401369 0
M  V30 7 C -1.13364 1.38101 0.299119 0
M  V30 8 C -0.377474 0.217322 0.107335 0
M  V30 9 C 1.00548 0.310804 0.0230715 0
M  V30 10 C 1.88323 -0.825224 -0.25319 0
M  V30 11 C 1.84817 -2.14944 0.0188381 0
M  V30 12 C 2.91339 -2.90954 -0.341386 0
M  V30 13 C 3.95341 -2.27652 -0.956812 0
M  V30 14 S 3.42828 -0.670763 -1.01565 0
M  V30 15 Cl 5.46868 -2.9959 -1.53833 0
M  V30 16 C -1.03437 -1.07966 -0.0435743 0
M  V30 17 C -2.50361 -1.06861 -0.343247 0
M  V30 18 C -3.15596 0.24222 -0.527853 0
M  V30 19 C -2.61676 1.3184 0.389969 0
M  V30 20 N -3.26778 -1.90802 0.603568 0
M  V30 21 H 2.2422 4.15238 0.951854 0
M  V30 22 H 0.895294 4.82703 -0.00513448 0
M  V30 23 H 0.993476 -2.64429 0.550785 0
M  V30 24 H 2.95946 -4.01565 -0.151291 0
M  V30 25 H -0.505233 -1.62682 -0.850637 0
M  V30 26 H -0.945219 -1.63645 0.933838 0
M  V30 27 H -2.644 -1.63061 -1.31788 0
M  V30 28 H -3.10768 0.565147 -1.57676 0
M  V30 29 H -4.24347 0.134188 -0.265578 0
M  V30 30 H -2.97747 1.19605 1.43054 0
M  V30 31 H -3.03349 2.27798 0.0203988 0
M  V30 32 H -2.6393 -2.68433 0.917454 0
M  V30 33 H -3.55281 -1.28402 1.39151 0
M  V30 END ATOM
M  V30 BEGIN BOND
M  V30 1 3 1 2
M  V30 2 1 2 3
M  V30 3 2 3 4
M  V30 4 1 4 5
M  V30 5 1 4 6
M  V30 6 2 6 7
M  V30 7 1 7 8
M  V30 8 2 8 9
M  V30 9 1 9 10
M  V30 10 2 10 11
M  V30 11 1 11 12
M  V30 12 2 12 13
M  V30 13 1 13 14
M  V30 14 1 13 15
M  V30 15 1 8 16
M  V30 16 1 16 17
M  V30 17 1 17 18
M  V30 18 1 18 19
M  V30 19 1 17 20
M  V30 20 1 9 3
M  V30 21 1 14 10
M  V30 22 1 19 7
M  V30 23 1 5 21
M  V30 24 1 5 22
M  V30 25 1 11 23
M  V30 26 1 12 24
M  V30 27 1 16 25
M  V30 28 1 16 26
M  V30 29 1 17 27
M  V30 30 1 18 28
M  V30 31 1 18 29
M  V30 32 1 19 30
M  V30 33 1 19 31
M  V30 34 1 20 32
M  V30 35 1 20 33
M  V30 END BOND
M  V30 END CTAB
M  END
