
     RDKit          3D

  0  0  0  0  0  0  0  0  0  0999 V3000
M  V30 BEGIN CTAB
M  V30 COUNTS 28 29 0 0 0
M  V30 BEGIN ATOM
M  V30 1 Cl -5.05808 -2.15327 -0.423609 0
M  V30 2 C -3.81801 -0.914884 -0.310756 0
M  V30 3 C -2.81441 -0.806495 -1.22423 0
M  V30 4 C -1.86094 0.182641 -1.09591 0
M  V30 5 C -1.87552 1.10129 -0.0480003 0
M  V30 6 C -2.93345 0.929039 0.849613 0
M  V30 7 C -3.88442 -0.0325055 0.749635 0
M  V30 8 N -4.93259 -0.146761 1.70238 0
M  V30 9 S -0.744723 2.37461 0.223768 0
M  V30 10 S 0.630861 1.3312 1.45507 0
M  V30 11 C 1.81669 0.712516 0.377341 0
M  V30 12 C 1.8937 0.85689 -0.991084 0
M  V30 13 C 2.89077 0.319664 -1.77728 0
M  V30 14 C 3.88777 -0.415041 -1.17385 0
M  V30 15 C 3.85487 -0.587674 0.191332 0
M  V30 16 C 2.85848 -0.045188 0.937486 0
M  V30 17 N 4.90022 -1.35628 0.811886 0
M  V30 18 Cl 5.19925 -1.13945 -2.08273 0
M  V30 19 H -2.77507 -1.50056 -2.04502 0
M  V30 20 H -1.06827 0.274682 -1.8147 0
M  V30 21 H -3.00626 1.61055 1.69081 0
M  V30 22 H -4.90403 0.417453 2.58239 0
M  V30 23 H -5.73572 -0.773367 1.56201 0
M  V30 24 H 1.07986 1.45009 -1.43759 0
M  V30 25 H 2.90792 0.459309 -2.83844 0
M  V30 26 H 2.90284 -0.227877 2.01963 0
M  V30 27 H 5.90626 -1.25379 0.555316 0
M  V30 28 H 4.68201 -2.05618 1.55454 0
M  V30 END ATOM
M  V30 BEGIN BOND
M  V30 1 1 1 2
M  V30 2 2 2 3
M  V30 3 1 3 4
M  V30 4 2 4 5
M  V30 5 1 5 6
M  V30 6 2 6 7
M  V30 7 1 7 8
M  V30 8 1 5 9
M  V30 9 1 9 10
M  V30 10 1 10 11
M  V30 11 2 11 12
M  V30 12 1 12 13
M  V30 13 2 13 14
M  V30 14 1 14 15
M  V30 15 2 15 16
M  V30 16 1 15 17
M  V30 17 1 14 18
M  V30 18 1 7 2
M  V30 19 1 16 11
M  V30 20 1 3 19
M  V30 21 1 4 20
M  V30 22 1 6 21
M  V30 23 1 8 22
M  V30 24 1 8 23
M  V30 25 1 12 24
M  V30 26 1 13 25
M  V30 27 1 16 26
M  V30 28 1 17 27
M  V30 29 1 17 28
M  V30 END BOND
M  V30 END CTAB
M  END
