
     RDKit          3D

  0  0  0  0  0  0  0  0  0  0999 V3000
M  V30 BEGIN CTAB
M  V30 COUNTS 45 47 0 0 0
M  V30 BEGIN ATOM
M  V30 1 C -7.46637 -1.01615 -0.0296852 0
M  V30 2 C -5.97508 -0.918074 0.0461341 0
M  V30 3 C -5.49511 0.487224 0.312887 0
M  V30 4 C -4.00387 0.436024 0.362362 0
M  V30 5 C -3.3154 0.840394 1.47727 0
M  V30 6 C -1.95036 0.782321 1.4939 0
M  V30 7 C -1.19312 0.31938 0.404086 0
M  V30 8 C -1.888 -0.0813934 -0.702418 0
M  V30 9 C -3.29238 -0.0171659 -0.708096 0
M  V30 10 N 0.195714 0.279466 0.470047 0
M  V30 11 C 1.14026 -0.131408 -0.466307 0
M  V30 12 O 0.855892 -0.555099 -1.58419 0
M  V30 13 C 2.57365 -0.0570709 -0.102708 0
M  V30 14 S 3.21438 0.489332 1.37223 0
M  V30 15 C 4.8816 0.278805 1.03573 0
M  V30 16 C 4.86929 -0.218654 -0.237955 0
M  V30 17 C 3.67329 -0.392646 -0.827743 0
M  V30 18 N 3.48614 -0.913098 -2.18133 0
M  V30 19 C 6.14831 -0.489037 -0.774539 0
M  V30 20 C 7.26571 -0.246738 -0.0195637 0
M  V30 21 C 7.24746 0.255481 1.2626 0
M  V30 22 N 6.02468 0.506943 1.7576 0
M  V30 23 N 8.40802 0.498792 2.02539 0
M  V30 24 C 8.58616 -0.524051 -0.568875 0
M  V30 25 N 9.62548 -0.750359 -1.02219 0
M  V30 26 C -5.90245 1.37259 -0.837309 0
M  V30 27 H -7.77956 -1.18797 -1.07518 0
M  V30 28 H -7.97928 -0.114255 0.355569 0
M  V30 29 H -7.79412 -1.90657 0.553017 0
M  V30 30 H -5.53019 -1.24966 -0.916232 0
M  V30 31 H -5.54727 -1.60684 0.822116 0
M  V30 32 H -5.87851 0.881662 1.27306 0
M  V30 33 H -3.88351 1.19892 2.32347 0
M  V30 34 H -1.45718 1.11592 2.40468 0
M  V30 35 H -1.42679 -0.458977 -1.61008 0
M  V30 36 H -3.82004 -0.339889 -1.59526 0
M  V30 37 H 0.606899 0.625939 1.40578 0
M  V30 38 H 3.81192 -1.87325 -2.4201 0
M  V30 39 H 3.03638 -0.355618 -2.91974 0
M  V30 40 H 6.25345 -0.884964 -1.77437 0
M  V30 41 H 8.87304 1.42594 2.12649 0
M  V30 42 H 8.84119 -0.303894 2.53036 0
M  V30 43 H -6.1179 0.742485 -1.7083 0
M  V30 44 H -6.82573 1.95703 -0.622788 0
M  V30 45 H -5.09666 2.0982 -1.10983 0
M  V30 END ATOM
M  V30 BEGIN BOND
M  V30 1 1 1 2
M  V30 2 1 2 3
M  V30 3 1 3 4
M  V30 4 2 4 5
M  V30 5 1 5 6
M  V30 6 2 6 7
M  V30 7 1 7 8
M  V30 8 2 8 9
M  V30 9 1 7 10
M  V30 10 1 10 11
M  V30 11 2 11 12
M  V30 12 1 11 13
M  V30 13 1 13 14
M  V30 14 1 14 15
M  V30 15 2 15 16
M  V30 16 1 16 17
M  V30 17 1 17 18
M  V30 18 1 16 19
M  V30 19 2 19 20
M  V30 20 1 20 21
M  V30 21 2 21 22
M  V30 22 1 21 23
M  V30 23 1 20 24
M  V30 24 3 24 25
M  V30 25 1 3 26
M  V30 26 1 9 4
M  V30 27 2 17 13
M  V30 28 1 22 15
M  V30 29 1 1 27
M  V30 30 1 1 28
M  V30 31 1 1 29
M  V30 32 1 2 30
M  V30 33 1 2 31
M  V30 34 1 3 32
M  V30 35 1 5 33
M  V30 36 1 6 34
M  V30 37 1 8 35
M  V30 38 1 9 36
M  V30 39 1 10 37
M  V30 40 1 18 38
M  V30 41 1 18 39
M  V30 42 1 19 40
M  V30 43 1 23 41
M  V30 44 1 23 42
M  V30 45 1 26 43
M  V30 46 1 26 44
M  V30 47 1 26 45
M  V30 END BOND
M  V30 END CTAB
M  END
