
     RDKit          3D

  0  0  0  0  0  0  0  0  0  0999 V3000
M  V30 BEGIN CTAB
M  V30 COUNTS 50 51 0 0 0
M  V30 BEGIN ATOM
M  V30 1 C 7.24133 -0.645996 -0.492022 0
M  V30 2 C 6.71619 -1.62644 0.511288 0
M  V30 3 C 5.18866 -1.5846 0.555271 0
M  V30 4 C 4.68744 -0.233132 0.93351 0
M  V30 5 C 3.18653 -0.233319 1.00098 0
M  V30 6 C 2.56612 -0.575586 -0.29943 0
M  V30 7 O 1.19234 -0.569919 -0.377955 0
M  V30 8 C 0.253796 0.390378 -0.230625 0
M  V30 9 C -1.07783 -0.0247925 -0.370687 0
M  V30 10 C -2.07262 0.894615 -0.235742 0
M  V30 11 C -1.76194 2.19917 0.0322599 0
M  V30 12 C -0.458944 2.62378 0.172587 0
M  V30 13 C 0.584992 1.69868 0.0383773 0
M  V30 14 N -3.44792 0.503646 -0.373043 0
M  V30 15 C -3.97148 0.581077 -1.67327 0
M  V30 16 N -3.07528 1.04339 -2.72683 0
M  V30 17 N -5.18746 0.270558 -1.98975 0
M  V30 18 C -5.98266 -0.169159 -0.891825 0
M  V30 19 N -7.36337 -0.547706 -1.10841 0
M  V30 20 N -5.55093 -0.252914 0.290452 0
M  V30 21 C -4.25689 0.0649048 0.69728 0
M  V30 22 C -4.19462 0.936244 1.94442 0
M  V30 23 C -3.69576 -1.28712 1.26971 0
M  V30 24 H 8.1563 -1.0455 -0.986512 0
M  V30 25 H 7.49276 0.331463 -0.0232287 0
M  V30 26 H 6.50749 -0.487225 -1.32154 0
M  V30 27 H 6.97935 -2.66196 0.213363 0
M  V30 28 H 7.06679 -1.43152 1.54091 0
M  V30 29 H 4.7878 -1.86566 -0.450143 0
M  V30 30 H 4.83426 -2.3218 1.27696 0
M  V30 31 H 5.05627 0.522683 0.17498 0
M  V30 32 H 5.13872 0.0790076 1.91784 0
M  V30 33 H 2.77865 0.638176 1.53429 0
M  V30 34 H 2.94176 -1.10183 1.71354 0
M  V30 35 H 2.95961 0.0971545 -1.11687 0
M  V30 36 H 2.89472 -1.6057 -0.63477 0
M  V30 37 H -1.2946 -1.08915 -0.587711 0
M  V30 38 H -2.54173 2.97658 0.149338 0
M  V30 39 H -0.190725 3.63541 0.381637 0
M  V30 40 H 1.61709 2.05177 0.138904 0
M  V30 41 H -2.2014 0.573782 -2.98888 0
M  V30 42 H -3.36948 1.89937 -3.21886 0
M  V30 43 H -7.87866 -0.0555395 -1.85302 0
M  V30 44 H -7.84087 -1.27972 -0.553427 0
M  V30 45 H -5.087 0.75707 2.58428 0
M  V30 46 H -4.27042 2.00875 1.66958 0
M  V30 47 H -3.33256 0.698406 2.59814 0
M  V30 48 H -4.22511 -1.53048 2.2118 0
M  V30 49 H -2.62941 -1.15154 1.54124 0
M  V30 50 H -3.86931 -2.09774 0.569937 0
M  V30 END ATOM
M  V30 BEGIN BOND
M  V30 1 1 1 2
M  V30 2 1 2 3
M  V30 3 1 3 4
M  V30 4 1 4 5
M  V30 5 1 5 6
M  V30 6 1 6 7
M  V30 7 1 7 8
M  V30 8 2 8 9
M  V30 9 1 9 10
M  V30 10 2 10 11
M  V30 11 1 11 12
M  V30 12 2 12 13
M  V30 13 1 10 14
M  V30 14 1 14 15
M  V30 15 1 15 16
M  V30 16 2 15 17
M  V30 17 1 17 18
M  V30 18 1 18 19
M  V30 19 2 18 20
M  V30 20 1 20 21
M  V30 21 1 21 22
M  V30 22 1 21 23
M  V30 23 1 13 8
M  V30 24 1 21 14
M  V30 25 1 1 24
M  V30 26 1 1 25
M  V30 27 1 1 26
M  V30 28 1 2 27
M  V30 29 1 2 28
M  V30 30 1 3 29
M  V30 31 1 3 30
M  V30 32 1 4 31
M  V30 33 1 4 32
M  V30 34 1 5 33
M  V30 35 1 5 34
M  V30 36 1 6 35
M  V30 37 1 6 36
M  V30 38 1 9 37
M  V30 39 1 11 38
M  V30 40 1 12 39
M  V30 41 1 13 40
M  V30 42 1 16 41
M  V30 43 1 16 42
M  V30 44 1 19 43
M  V30 45 1 19 44
M  V30 46 1 22 45
M  V30 47 1 22 46
M  V30 48 1 22 47
M  V30 49 1 23 48
M  V30 50 1 23 49
M  V30 51 1 23 50
M  V30 END BOND
M  V30 END CTAB
M  END
