
     RDKit          3D

  0  0  0  0  0  0  0  0  0  0999 V3000
M  V30 BEGIN CTAB
M  V30 COUNTS 34 36 0 0 0
M  V30 BEGIN ATOM
M  V30 1 C 4.97846 0.307324 -0.0673329 0
M  V30 2 C 3.65627 -0.314197 0.17572 0
M  V30 3 C 3.56947 -1.6146 0.62113 0
M  V30 4 C 2.30874 -2.15084 0.833668 0
M  V30 5 C 1.16062 -1.42352 0.612749 0
M  V30 6 C -0.13715 -2.04073 0.853764 0
M  V30 7 O -0.211106 -3.21902 1.25722 0
M  V30 8 C -1.35139 -1.23303 0.606996 0
M  V30 9 C -1.27748 0.0704227 0.160857 0
M  V30 10 C 0.0188694 0.650165 -0.0673494 0
M  V30 11 O 0.107352 1.82304 -0.469314 0
M  V30 12 C 1.25115 -0.131281 0.170036 0
M  V30 13 C 2.48845 0.412529 -0.0445296 0
M  V30 14 N 2.63724 1.75429 -0.505491 0
M  V30 15 C -2.40889 0.832392 -0.0722658 0
M  V30 16 N -2.35642 2.17637 -0.531732 0
M  V30 17 C -3.6408 0.27401 0.147144 0
M  V30 18 C -4.88861 1.05953 -0.0912579 0
M  V30 19 C -3.7566 -1.03284 0.59544 0
M  V30 20 C -2.60526 -1.75945 0.816033 0
M  V30 21 H 5.40953 0.764137 0.840039 0
M  V30 22 H 5.69906 -0.418533 -0.495718 0
M  V30 23 H 4.86731 1.12107 -0.814844 0
M  V30 24 H 4.47753 -2.18586 0.794505 0
M  V30 25 H 2.24185 -3.17446 1.18424 0
M  V30 26 H 2.35946 2.05498 -1.44416 0
M  V30 27 H 3.05442 2.46373 0.159639 0
M  V30 28 H -2.071 2.35322 -1.51853 0
M  V30 29 H -2.58655 3.00209 0.0586087 0
M  V30 30 H -5.04022 1.1666 -1.17993 0
M  V30 31 H -4.77111 2.07955 0.314877 0
M  V30 32 H -5.76085 0.543584 0.337573 0
M  V30 33 H -4.73252 -1.44369 0.758517 0
M  V30 34 H -2.68983 -2.76699 1.16154 0
M  V30 END ATOM
M  V30 BEGIN BOND
M  V30 1 1 1 2
M  V30 2 2 2 3
M  V30 3 1 3 4
M  V30 4 2 4 5
M  V30 5 1 5 6
M  V30 6 2 6 7
M  V30 7 1 6 8
M  V30 8 2 8 9
M  V30 9 1 9 10
M  V30 10 2 10 11
M  V30 11 1 10 12
M  V30 12 2 12 13
M  V30 13 1 13 14
M  V30 14 1 9 15
M  V30 15 1 15 16
M  V30 16 2 15 17
M  V30 17 1 17 18
M  V30 18 1 17 19
M  V30 19 2 19 20
M  V30 20 1 13 2
M  V30 21 1 12 5
M  V30 22 1 20 8
M  V30 23 1 1 21
M  V30 24 1 1 22
M  V30 25 1 1 23
M  V30 26 1 3 24
M  V30 27 1 4 25
M  V30 28 1 14 26
M  V30 29 1 14 27
M  V30 30 1 16 28
M  V30 31 1 16 29
M  V30 32 1 18 30
M  V30 33 1 18 31
M  V30 34 1 18 32
M  V30 35 1 19 33
M  V30 36 1 20 34
M  V30 END BOND
M  V30 END CTAB
M  END
