
     RDKit          3D

  0  0  0  0  0  0  0  0  0  0999 V3000
M  V30 BEGIN CTAB
M  V30 COUNTS 61 65 0 0 0
M  V30 BEGIN ATOM
M  V30 1 N -2.36297 2.22127 -2.62536 0
M  V30 2 C -2.13451 1.41472 -1.79431 0
M  V30 3 C -1.91339 0.427403 -0.748618 0
M  V30 4 C -2.887 0.307713 0.240718 0
M  V30 5 N -2.73177 -0.611345 1.20387 0
M  V30 6 C -1.67388 -1.42512 1.25862 0
M  V30 7 C -0.689222 -1.33868 0.301597 0
M  V30 8 C -0.817803 -0.382693 -0.729905 0
M  V30 9 C 0.183195 -0.288329 -1.70545 0
M  V30 10 C 0.324158 0.576771 -2.87025 0
M  V30 11 C 1.61062 0.147978 -3.4735 0
M  V30 12 O 2.12458 0.636692 -4.51073 0
M  V30 13 N 2.15677 -0.876082 -2.7137 0
M  V30 14 C 1.26192 -1.13402 -1.62492 0
M  V30 15 N 1.33753 -2.03891 -0.609577 0
M  V30 16 C 0.412286 -2.16475 0.338375 0
M  V30 17 N 0.523755 -3.1259 1.38691 0
M  V30 18 C 3.3667 -1.63229 -2.88729 0
M  V30 19 C 4.60697 -1.15095 -2.3008 0
M  V30 20 C 4.65937 -0.975412 -0.836288 0
M  V30 21 C 5.04986 -1.98958 0.0456459 0
M  V30 22 C 5.09193 -1.77941 1.40565 0
M  V30 23 C 4.75446 -0.572371 1.95057 0
M  V30 24 C 4.36655 0.444818 1.11473 0
M  V30 25 C 4.32893 0.221597 -0.243995 0
M  V30 26 O 4.8036 -0.377434 3.33771 0
M  V30 27 C 4.45051 0.873871 3.85997 0
M  V30 28 N -1.54233 -2.38287 2.29188 0
M  V30 29 N -4.0029 1.17349 0.238852 0
M  V30 30 C -3.8845 2.54833 0.642847 0
M  V30 31 C -5.13668 3.32903 0.261667 0
M  V30 32 C -6.36827 2.66624 0.786852 0
M  V30 33 C -6.27685 1.1623 0.888195 0
M  V30 34 C -5.2861 0.695496 -0.174886 0
M  V30 35 H -0.424792 0.384831 -3.66878 0
M  V30 36 H 0.464316 1.64898 -2.61077 0
M  V30 37 H 0.146751 -4.09581 1.31439 0
M  V30 38 H 1.01102 -2.87139 2.28852 0
M  V30 39 H 3.17263 -2.67127 -2.54452 0
M  V30 40 H 3.48188 -1.75027 -4.0069 0
M  V30 41 H 5.39073 -1.94341 -2.52563 0
M  V30 42 H 5.05046 -0.23758 -2.74698 0
M  V30 43 H 5.31469 -2.93823 -0.397697 0
M  V30 44 H 5.40622 -2.61438 2.04643 0
M  V30 45 H 4.09185 1.42138 1.54425 0
M  V30 46 H 4.01823 1.04961 -0.861593 0
M  V30 47 H 5.01417 1.71786 3.36557 0
M  V30 48 H 4.68629 0.970947 4.93254 0
M  V30 49 H 3.3752 1.12601 3.75203 0
M  V30 50 H -1.92304 -3.34661 2.19713 0
M  V30 51 H -1.06469 -2.13667 3.17279 0
M  V30 52 H -3.70327 2.64697 1.74506 0
M  V30 53 H -3.01673 3.00289 0.163059 0
M  V30 54 H -5.15132 3.46827 -0.842546 0
M  V30 55 H -5.05618 4.32879 0.718709 0
M  V30 56 H -6.672 3.05541 1.7868 0
M  V30 57 H -7.20155 2.90113 0.0719692 0
M  V30 58 H -7.25451 0.715519 0.650818 0
M  V30 59 H -5.88536 0.825081 1.8796 0
M  V30 60 H -5.35103 -0.406148 -0.305546 0
M  V30 61 H -5.62548 1.1465 -1.13267 0
M  V30 END ATOM
M  V30 BEGIN BOND
M  V30 1 3 1 2
M  V30 2 1 2 3
M  V30 3 2 3 4
M  V30 4 1 4 5
M  V30 5 2 5 6
M  V30 6 1 6 7
M  V30 7 2 7 8
M  V30 8 1 8 9
M  V30 9 1 9 10
M  V30 10 1 10 11
M  V30 11 2 11 12
M  V30 12 1 11 13
M  V30 13 1 13 14
M  V30 14 1 14 15
M  V30 15 2 15 16
M  V30 16 1 16 17
M  V30 17 1 13 18
M  V30 18 1 18 19
M  V30 19 1 19 20
M  V30 20 2 20 21
M  V30 21 1 21 22
M  V30 22 2 22 23
M  V30 23 1 23 24
M  V30 24 2 24 25
M  V30 25 1 23 26
M  V30 26 1 26 27
M  V30 27 1 6 28
M  V30 28 1 4 29
M  V30 29 1 29 30
M  V30 30 1 30 31
M  V30 31 1 31 32
M  V30 32 1 32 33
M  V30 33 1 33 34
M  V30 34 1 8 3
M  V30 35 2 14 9
M  V30 36 1 25 20
M  V30 37 1 34 29
M  V30 38 1 16 7
M  V30 39 1 10 35
M  V30 40 1 10 36
M  V30 41 1 17 37
M  V30 42 1 17 38
M  V30 43 1 18 39
M  V30 44 1 18 40
M  V30 45 1 19 41
M  V30 46 1 19 42
M  V30 47 1 21 43
M  V30 48 1 22 44
M  V30 49 1 24 45
M  V30 50 1 25 46
M  V30 51 1 27 47
M  V30 52 1 27 48
M  V30 53 1 27 49
M  V30 54 1 28 50
M  V30 55 1 28 51
M  V30 56 1 30 52
M  V30 57 1 30 53
M  V30 58 1 31 54
M  V30 59 1 31 55
M  V30 60 1 32 56
M  V30 61 1 32 57
M  V30 62 1 33 58
M  V30 63 1 33 59
M  V30 64 1 34 60
M  V30 65 1 34 61
M  V30 END BOND
M  V30 END CTAB
M  END
