
     RDKit          3D

  0  0  0  0  0  0  0  0  0  0999 V3000
M  V30 BEGIN CTAB
M  V30 COUNTS 28 30 0 0 0
M  V30 BEGIN ATOM
M  V30 1 N -4.7348 0.430059 -0.181039 0
M  V30 2 C -3.35121 0.0651249 -0.0832124 0
M  V30 3 C -2.79436 -0.888914 -0.911628 0
M  V30 4 C -1.4597 -1.21588 -0.790477 0
M  V30 5 C -0.648904 -0.613436 0.144311 0
M  V30 6 C -1.22487 0.32945 0.95424 0
M  V30 7 C -2.56387 0.684413 0.861508 0
M  V30 8 C 0.767426 -1.01087 0.307999 0
M  V30 9 C 0.975804 -2.29785 0.758581 0
M  V30 10 S 2.66651 -2.39676 0.901254 0
M  V30 11 C 3.07191 -0.823939 0.391738 0
M  V30 12 C 4.29123 -0.16186 0.23288 0
M  V30 13 C 4.32245 1.13942 -0.223084 0
M  V30 14 N 3.12758 1.67567 -0.485002 0
M  V30 15 C 1.94148 1.07807 -0.34652 0
M  V30 16 N 0.81218 1.86503 -0.724373 0
M  V30 17 C 1.85118 -0.243188 0.115074 0
M  V30 18 H -5.38585 0.0316326 0.513261 0
M  V30 19 H -5.00504 1.07754 -0.948363 0
M  V30 20 H -3.43441 -1.37662 -1.66263 0
M  V30 21 H -1.00914 -1.9572 -1.42786 0
M  V30 22 H -0.646287 0.85467 1.73022 0
M  V30 23 H -3.00006 1.43084 1.50951 0
M  V30 24 H 0.248028 -3.09422 0.98187 0
M  V30 25 H 5.20596 -0.655714 0.462227 0
M  V30 26 H 5.20219 1.72315 -0.374536 0
M  V30 27 H 0.57415 2.71188 -0.171252 0
M  V30 28 H 0.200423 1.6395 -1.53471 0
M  V30 END ATOM
M  V30 BEGIN BOND
M  V30 1 1 1 2
M  V30 2 2 2 3
M  V30 3 1 3 4
M  V30 4 2 4 5
M  V30 5 1 5 6
M  V30 6 2 6 7
M  V30 7 1 5 8
M  V30 8 2 8 9
M  V30 9 1 9 10
M  V30 10 1 10 11
M  V30 11 2 11 12
M  V30 12 1 12 13
M  V30 13 2 13 14
M  V30 14 1 14 15
M  V30 15 1 15 16
M  V30 16 2 15 17
M  V30 17 1 7 2
M  V30 18 1 17 8
M  V30 19 1 17 11
M  V30 20 1 1 18
M  V30 21 1 1 19
M  V30 22 1 3 20
M  V30 23 1 4 21
M  V30 24 1 6 22
M  V30 25 1 7 23
M  V30 26 1 9 24
M  V30 27 1 12 25
M  V30 28 1 13 26
M  V30 29 1 16 27
M  V30 30 1 16 28
M  V30 END BOND
M  V30 END CTAB
M  END
