
     RDKit          3D

  0  0  0  0  0  0  0  0  0  0999 V3000
M  V30 BEGIN CTAB
M  V30 COUNTS 22 22 0 0 0
M  V30 BEGIN ATOM
M  V30 1 N -2.52887 1.01856 0.728558 0
M  V30 2 C -2.61825 0.260699 -0.525802 0
M  V30 3 C -1.69929 -0.931201 -0.427878 0
M  V30 4 C -0.291093 -0.5517 -0.214146 0
M  V30 5 C 0.239099 -0.397326 1.04919 0
M  V30 6 C 1.55287 -0.0433137 1.24357 0
M  V30 7 C 2.3977 0.172708 0.17088 0
M  V30 8 N 3.75945 0.539528 0.359915 0
M  V30 9 C 1.87171 0.0193007 -1.10909 0
M  V30 10 C 0.558136 -0.33439 -1.27578 0
M  V30 11 H -3.31643 1.71324 0.761413 0
M  V30 12 H -2.69342 0.290545 1.48698 0
M  V30 13 H -3.65534 -0.121271 -0.591721 0
M  V30 14 H -2.42881 0.898018 -1.39433 0
M  V30 15 H -1.75881 -1.50774 -1.38322 0
M  V30 16 H -2.09461 -1.59652 0.36045 0
M  V30 17 H -0.388177 -0.556899 1.9308 0
M  V30 18 H 1.9646 0.0767129 2.23889 0
M  V30 19 H 4.00937 1.30848 0.989202 0
M  V30 20 H 4.49991 0.0247868 -0.142524 0
M  V30 21 H 2.49379 0.177577 -1.97946 0
M  V30 22 H 0.126473 -0.459793 -2.27589 0
M  V30 END ATOM
M  V30 BEGIN BOND
M  V30 1 1 1 2
M  V30 2 1 2 3
M  V30 3 1 3 4
M  V30 4 2 4 5
M  V30 5 1 5 6
M  V30 6 2 6 7
M  V30 7 1 7 8
M  V30 8 1 7 9
M  V30 9 2 9 10
M  V30 10 1 10 4
M  V30 11 1 1 11
M  V30 12 1 1 12
M  V30 13 1 2 13
M  V30 14 1 2 14
M  V30 15 1 3 15
M  V30 16 1 3 16
M  V30 17 1 5 17
M  V30 18 1 6 18
M  V30 19 1 8 19
M  V30 20 1 8 20
M  V30 21 1 9 21
M  V30 22 1 10 22
M  V30 END BOND
M  V30 END CTAB
M  END
