
     RDKit          3D

  0  0  0  0  0  0  0  0  0  0999 V3000
M  V30 BEGIN CTAB
M  V30 COUNTS 30 31 0 0 0
M  V30 BEGIN ATOM
M  V30 1 N -5.04793 0.599726 0.659014 0
M  V30 2 C -3.74391 0.0615967 0.648786 0
M  V30 3 C -3.36588 -0.877629 1.58567 0
M  V30 4 C -2.08065 -1.37357 1.53423 0
M  V30 5 C -1.20404 -0.93168 0.562941 0
M  V30 6 O 0.1076 -1.42276 0.492359 0
M  V30 7 C 0.716383 -1.42068 -0.78608 0
M  V30 8 C 0.604757 -0.0224906 -1.38869 0 CFG=2
M  V30 9 C 1.56422 0.875987 -0.596802 0
M  V30 10 N 2.87011 0.267015 -0.715571 0
M  V30 11 S 4.10678 1.09381 0.0884721 0
M  V30 12 N 4.23615 0.494427 1.70392 0
M  V30 13 O 5.41417 0.79471 -0.602647 0
M  V30 14 O 3.89542 2.57609 0.146375 0
M  V30 15 O -0.704644 0.457353 -1.35505 0
M  V30 16 C -1.57747 0.00526419 -0.37349 0
M  V30 17 C -2.88428 0.509862 -0.321577 0
M  V30 18 H -5.83402 0.0391166 0.302915 0
M  V30 19 H -5.20662 1.5492 1.02211 0
M  V30 20 H -4.04651 -1.23177 2.35303 0
M  V30 21 H -1.72241 -2.11607 2.2453 0
M  V30 22 H 0.183678 -2.09912 -1.48837 0
M  V30 23 H 1.78683 -1.65689 -0.73965 0
M  V30 24 H 0.922389 -0.0901019 -2.44778 0
M  V30 25 H 1.2264 0.942231 0.45691 0
M  V30 26 H 1.60884 1.89101 -1.00069 0
M  V30 27 H 3.07453 -0.081144 -1.65323 0
M  V30 28 H 4.94947 -0.260567 1.74181 0
M  V30 29 H 3.30576 0.175763 2.05965 0
M  V30 30 H -3.15513 1.2513 -1.07503 0
M  V30 END ATOM
M  V30 BEGIN BOND
M  V30 1 1 1 2
M  V30 2 2 2 3
M  V30 3 1 3 4
M  V30 4 2 4 5
M  V30 5 1 5 6
M  V30 6 1 6 7
M  V30 7 1 7 8
M  V30 8 1 8 9
M  V30 9 1 9 10
M  V30 10 1 10 11
M  V30 11 1 11 12
M  V30 12 2 11 13
M  V30 13 2 11 14
M  V30 14 1 8 15
M  V30 15 1 15 16
M  V30 16 2 16 17
M  V30 17 1 17 2
M  V30 18 1 16 5
M  V30 19 1 1 18
M  V30 20 1 1 19
M  V30 21 1 3 20
M  V30 22 1 4 21
M  V30 23 1 7 22
M  V30 24 1 7 23
M  V30 25 1 8 24 CFG=3
M  V30 26 1 9 25
M  V30 27 1 9 26
M  V30 28 1 10 27
M  V30 29 1 12 28
M  V30 30 1 12 29
M  V30 31 1 17 30
M  V30 END BOND
M  V30 END CTAB
M  END
