
     RDKit          3D

  0  0  0  0  0  0  0  0  0  0999 V3000
M  V30 BEGIN CTAB
M  V30 COUNTS 17 17 0 0 0
M  V30 BEGIN ATOM
M  V30 1 N -3.12429 -0.0442618 -0.0530476 0
M  V30 2 N -2.00807 -0.856002 0.0479174 0
M  V30 3 C -0.703492 -0.279438 0.00445067 0
M  V30 4 N 0.4184 -1.00611 0.0967404 0
M  V30 5 C 1.66443 -0.476541 0.0574529 0
M  V30 6 N 2.79598 -1.33081 0.163453 0
M  V30 7 C 1.82998 0.891932 -0.0854714 0
M  V30 8 C 0.69569 1.668 -0.183167 0
M  V30 9 C -0.555046 1.08338 -0.138102 0
M  V30 10 F -1.69464 1.82014 -0.231719 0
M  V30 11 F 3.08584 1.40797 -0.123195 0
M  V30 12 H -3.86263 -0.51542 -0.65477 0
M  V30 13 H -3.56502 0.103632 0.883718 0
M  V30 14 H -2.1643 -1.8767 0.153849 0
M  V30 15 H 2.775 -2.21208 -0.390741 0
M  V30 16 H 3.60299 -1.11399 0.747582 0
M  V30 17 H 0.809175 2.73631 -0.294952 0
M  V30 END ATOM
M  V30 BEGIN BOND
M  V30 1 1 1 2
M  V30 2 1 2 3
M  V30 3 2 3 4
M  V30 4 1 4 5
M  V30 5 1 5 6
M  V30 6 2 5 7
M  V30 7 1 7 8
M  V30 8 2 8 9
M  V30 9 1 9 10
M  V30 10 1 7 11
M  V30 11 1 9 3
M  V30 12 1 1 12
M  V30 13 1 1 13
M  V30 14 1 2 14
M  V30 15 1 6 15
M  V30 16 1 6 16
M  V30 17 1 8 17
M  V30 END BOND
M  V30 END CTAB
M  END
