
     RDKit          3D

  0  0  0  0  0  0  0  0  0  0999 V3000
M  V30 BEGIN CTAB
M  V30 COUNTS 45 47 0 0 0
M  V30 BEGIN ATOM
M  V30 1 N 6.83096 0.067957 -0.71453 0
M  V30 2 C 5.37694 0.143157 -0.716068 0
M  V30 3 C 4.79571 0.843742 0.489311 0
M  V30 4 C 3.87453 -0.341687 0.685627 0
M  V30 5 C 4.78263 -1.14918 -0.20764 0
M  V30 6 C 2.54551 -0.140845 0.0624898 0
M  V30 7 C 1.42035 -0.417909 0.798794 0
M  V30 8 C 0.183351 -0.230992 0.219089 0
M  V30 9 N -0.977939 -0.533135 1.00272 0
M  V30 10 C -2.31043 -0.364133 0.508964 0
M  V30 11 C -3.28358 -0.872009 1.57209 0
M  V30 12 C -4.47266 -1.51912 0.923676 0
M  V30 13 C -5.29293 -0.60488 0.0807334 0
M  V30 14 C -4.96362 0.843883 0.213428 0
M  V30 15 C -3.7491 1.26472 -0.581906 0
M  V30 16 C -2.55473 1.13238 0.349357 0
M  V30 17 N 0.126512 0.208603 -1.0257 0
M  V30 18 C 1.21365 0.482568 -1.75482 0
M  V30 19 N 2.42011 0.303698 -1.19914 0
M  V30 20 N 1.07797 0.960072 -3.11021 0
M  V30 21 H 7.14874 -0.891098 -0.532414 0
M  V30 22 H 7.21188 0.691709 0.0259825 0
M  V30 23 H 4.95558 0.486687 -1.68859 0
M  V30 24 H 4.21778 1.75681 0.278874 0
M  V30 25 H 5.56088 0.935806 1.27518 0
M  V30 26 H 3.78871 -0.706004 1.71377 0
M  V30 27 H 5.49156 -1.74446 0.413607 0
M  V30 28 H 4.26986 -1.70178 -1.0106 0
M  V30 29 H 1.49 -0.778157 1.81989 0
M  V30 30 H -0.837327 -0.889715 1.9707 0
M  V30 31 H -2.51118 -0.901058 -0.436594 0
M  V30 32 H -2.74995 -1.65524 2.14023 0
M  V30 33 H -3.56922 -0.0598659 2.27092 0
M  V30 34 H -5.0983 -1.97208 1.70844 0
M  V30 35 H -4.07386 -2.35849 0.292111 0
M  V30 36 H -6.37765 -0.725548 0.333221 0
M  V30 37 H -5.21175 -0.874308 -1.00472 0
M  V30 38 H -5.83414 1.42387 -0.204508 0
M  V30 39 H -4.87784 1.17256 1.26644 0
M  V30 40 H -3.67605 0.584877 -1.4564 0
M  V30 41 H -3.82365 2.30329 -0.965416 0
M  V30 42 H -1.67877 1.68668 0.0223135 0
M  V30 43 H -2.91717 1.48709 1.35726 0
M  V30 44 H 0.225215 0.733665 -3.66943 0
M  V30 45 H 1.83343 1.52632 -3.51655 0
M  V30 END ATOM
M  V30 BEGIN BOND
M  V30 1 1 1 2
M  V30 2 1 2 3
M  V30 3 1 3 4
M  V30 4 1 4 5
M  V30 5 1 4 6
M  V30 6 2 6 7
M  V30 7 1 7 8
M  V30 8 1 8 9
M  V30 9 1 9 10
M  V30 10 1 10 11
M  V30 11 1 11 12
M  V30 12 1 12 13
M  V30 13 1 13 14
M  V30 14 1 14 15
M  V30 15 1 15 16
M  V30 16 2 8 17
M  V30 17 1 17 18
M  V30 18 2 18 19
M  V30 19 1 18 20
M  V30 20 1 5 2
M  V30 21 1 19 6
M  V30 22 1 16 10
M  V30 23 1 1 21
M  V30 24 1 1 22
M  V30 25 1 2 23
M  V30 26 1 3 24
M  V30 27 1 3 25
M  V30 28 1 4 26
M  V30 29 1 5 27
M  V30 30 1 5 28
M  V30 31 1 7 29
M  V30 32 1 9 30
M  V30 33 1 10 31
M  V30 34 1 11 32
M  V30 35 1 11 33
M  V30 36 1 12 34
M  V30 37 1 12 35
M  V30 38 1 13 36
M  V30 39 1 13 37
M  V30 40 1 14 38
M  V30 41 1 14 39
M  V30 42 1 15 40
M  V30 43 1 15 41
M  V30 44 1 16 42
M  V30 45 1 16 43
M  V30 46 1 20 44
M  V30 47 1 20 45
M  V30 END BOND
M  V30 END CTAB
M  END
