
     RDKit          3D

  0  0  0  0  0  0  0  0  0  0999 V3000
M  V30 BEGIN CTAB
M  V30 COUNTS 44 45 0 0 0
M  V30 BEGIN ATOM
M  V30 1 O 2.79359 -2.59201 -1.22663 0
M  V30 2 C 3.40005 -1.89978 -0.345797 0
M  V30 3 C 4.81327 -2.17031 -0.0284013 0
M  V30 4 S 5.59101 -0.978251 1.05776 0
M  V30 5 C 5.86565 0.569709 0.190734 0
M  V30 6 N 6.94111 0.906726 -0.539494 0
M  V30 7 N 7.01064 2.04028 -1.0725 0
M  V30 8 C 6.01986 2.91676 -0.918531 0
M  V30 9 S 4.95091 2.00925 0.0567533 0
M  V30 10 N 5.90752 4.25783 -1.43907 0
M  V30 11 N 2.70568 -0.879252 0.321323 0
M  V30 12 C 1.32377 -0.597749 0.0387281 0
M  V30 13 C 0.465602 -1.77353 0.390425 0
M  V30 14 C -1.01612 -1.46989 0.101857 0
M  V30 15 C -1.76369 -2.71156 0.518718 0
M  V30 16 N -3.18009 -2.65315 0.33529 0
M  V30 17 C -4.0047 -1.68008 0.971292 0
M  V30 18 O -3.45082 -0.840867 1.72122 0
M  V30 19 C -5.46861 -1.67113 0.745023 0
M  V30 20 S -5.89008 -0.802996 -0.783335 0
M  V30 21 C -5.43932 0.93286 -0.561608 0
M  V30 22 N -4.28216 1.50184 -0.837986 0
M  V30 23 N -4.11725 2.74707 -0.631719 0
M  V30 24 C -5.13061 3.45688 -0.13557 0
M  V30 25 S -6.3386 2.25944 0.026024 0
M  V30 26 N -5.17146 4.86412 0.168321 0
M  V30 27 H 5.36237 -2.14975 -0.999902 0
M  V30 28 H 4.92773 -3.22098 0.331732 0
M  V30 29 H 4.9733 4.69447 -1.4847 0
M  V30 30 H 6.81417 4.68865 -1.73673 0
M  V30 31 H 3.16101 -0.287172 1.07253 0
M  V30 32 H 0.969291 0.327091 0.54299 0
M  V30 33 H 1.25723 -0.375321 -1.05535 0
M  V30 34 H 0.670872 -2.69588 -0.169309 0
M  V30 35 H 0.581532 -2.00816 1.47373 0
M  V30 36 H -1.32219 -0.553441 0.602853 0
M  V30 37 H -1.15889 -1.3396 -0.994493 0
M  V30 38 H -1.36373 -3.5463 -0.117828 0
M  V30 39 H -1.50958 -2.93229 1.58785 0
M  V30 40 H -3.64325 -3.35572 -0.294446 0
M  V30 41 H -5.92006 -2.67184 0.813437 0
M  V30 42 H -5.91939 -1.07031 1.58836 0
M  V30 43 H -5.81162 5.17566 0.925931 0
M  V30 44 H -4.60397 5.5787 -0.322489 0
M  V30 END ATOM
M  V30 BEGIN BOND
M  V30 1 2 1 2
M  V30 2 1 2 3
M  V30 3 1 3 4
M  V30 4 1 4 5
M  V30 5 2 5 6
M  V30 6 1 6 7
M  V30 7 2 7 8
M  V30 8 1 8 9
M  V30 9 1 8 10
M  V30 10 1 2 11
M  V30 11 1 11 12
M  V30 12 1 12 13
M  V30 13 1 13 14
M  V30 14 1 14 15
M  V30 15 1 15 16
M  V30 16 1 16 17
M  V30 17 2 17 18
M  V30 18 1 17 19
M  V30 19 1 19 20
M  V30 20 1 20 21
M  V30 21 2 21 22
M  V30 22 1 22 23
M  V30 23 2 23 24
M  V30 24 1 24 25
M  V30 25 1 24 26
M  V30 26 1 9 5
M  V30 27 1 25 21
M  V30 28 1 3 27
M  V30 29 1 3 28
M  V30 30 1 10 29
M  V30 31 1 10 30
M  V30 32 1 11 31
M  V30 33 1 12 32
M  V30 34 1 12 33
M  V30 35 1 13 34
M  V30 36 1 13 35
M  V30 37 1 14 36
M  V30 38 1 14 37
M  V30 39 1 15 38
M  V30 40 1 15 39
M  V30 41 1 16 40
M  V30 42 1 19 41
M  V30 43 1 19 42
M  V30 44 1 26 43
M  V30 45 1 26 44
M  V30 END BOND
M  V30 END CTAB
M  END
