
     RDKit          3D

  0  0  0  0  0  0  0  0  0  0999 V3000
M  V30 BEGIN CTAB
M  V30 COUNTS 24 24 0 0 0
M  V30 BEGIN ATOM
M  V30 1 C -3.46558 -0.0187401 0.268295 0
M  V30 2 C -2.00512 -0.102492 0.676327 0
M  V30 3 O -1.70116 -1.48402 0.650888 0
M  V30 4 C -1.19808 0.596973 -0.359729 0
M  V30 5 N 0.218822 0.602198 -0.110271 0
M  V30 6 N 0.804555 1.56456 0.584512 0
M  V30 7 C 2.1223 1.32936 0.670817 0
M  V30 8 O 3.08389 2.09488 1.31039 0
M  V30 9 C 2.35099 0.168244 -0.00347173 0
M  V30 10 N 3.55844 -0.537279 -0.225883 0
M  V30 11 C 1.14189 -0.285022 -0.494311 0
M  V30 12 N 0.900284 -1.45709 -1.25778 0
M  V30 13 H -4.05809 -0.86872 0.664796 0
M  V30 14 H -3.87475 0.917371 0.674168 0
M  V30 15 H -3.57517 -0.0547955 -0.850558 0
M  V30 16 H -1.92464 0.313043 1.67772 0
M  V30 17 H -2.5244 -2.01304 0.863575 0
M  V30 18 H -1.5518 1.6429 -0.440864 0
M  V30 19 H -1.37031 0.138345 -1.35415 0
M  V30 20 H 3.45991 2.8762 0.798105 0
M  V30 21 H 4.34944 -0.100926 -0.727706 0
M  V30 22 H 3.64719 -1.50727 0.121663 0
M  V30 23 H 0.800885 -1.40064 -2.29689 0
M  V30 24 H 0.810503 -2.41404 -0.839643 0
M  V30 END ATOM
M  V30 BEGIN BOND
M  V30 1 1 1 2
M  V30 2 1 2 3
M  V30 3 1 2 4
M  V30 4 1 4 5
M  V30 5 1 5 6
M  V30 6 2 6 7
M  V30 7 1 7 8
M  V30 8 1 7 9
M  V30 9 1 9 10
M  V30 10 2 9 11
M  V30 11 1 11 12
M  V30 12 1 11 5
M  V30 13 1 1 13
M  V30 14 1 1 14
M  V30 15 1 1 15
M  V30 16 1 2 16
M  V30 17 1 3 17
M  V30 18 1 4 18
M  V30 19 1 4 19
M  V30 20 1 8 20
M  V30 21 1 10 21
M  V30 22 1 10 22
M  V30 23 1 12 23
M  V30 24 1 12 24
M  V30 END BOND
M  V30 END CTAB
M  END
