
     RDKit          3D

  0  0  0  0  0  0  0  0  0  0999 V3000
M  V30 BEGIN CTAB
M  V30 COUNTS 58 61 0 0 0
M  V30 BEGIN ATOM
M  V30 1 N 9.42978 -0.953602 -1.79176 0
M  V30 2 C 8.05889 -0.87617 -1.46137 0
M  V30 3 C 7.7118 0.402868 -0.739862 0
M  V30 4 C 6.21964 0.39123 -0.434773 0
M  V30 5 O 5.86711 1.58036 0.251413 0
M  V30 6 C 4.53944 1.79287 0.634652 0
M  V30 7 C 4.1573 2.92223 1.29845 0
M  V30 8 C 2.86604 3.1743 1.6945 0
M  V30 9 C 1.8988 2.20709 1.39125 0
M  V30 10 C 2.25174 1.06188 0.725009 0
M  V30 11 C 3.58142 0.845515 0.339904 0
M  V30 12 C 1.26942 0.0454659 0.403521 0
M  V30 13 O 1.56614 -0.878833 -0.418272 0
M  V30 14 N -0.00784174 0.0465759 0.973474 0
M  V30 15 C -1.02268 -0.95406 0.675092 0 CFG=1
M  V30 16 C -1.41541 -1.69259 1.92965 0
M  V30 17 C -2.53634 -2.65347 1.78191 0
M  V30 18 C -3.30247 -2.37099 0.512225 0
M  V30 19 C -3.50677 -0.864753 0.445724 0 CFG=1
M  V30 20 C -2.19118 -0.213614 0.0645008 0 CFG=1
M  V30 21 O -2.12858 1.12273 0.437291 0
M  V30 22 N -4.55548 -0.493612 -0.473412 0
M  V30 23 C -4.45931 -0.561215 -1.81385 0
M  V30 24 N -5.62415 -0.139307 -2.36449 0
M  V30 25 C -6.43382 0.187277 -1.34988 0
M  V30 26 C -5.76547 -0.034138 -0.161755 0
M  V30 27 N -6.38638 0.224252 0.985018 0
M  V30 28 C -7.64281 0.693275 1.01891 0
M  V30 29 N -8.27907 0.903672 -0.126298 0
M  V30 30 C -7.73044 0.671306 -1.32902 0
M  V30 31 N -8.37921 0.883457 -2.56153 0
M  V30 32 H 9.87487 -0.184038 -2.22662 0
M  V30 33 H 9.90393 -1.76946 -1.49641 0
M  V30 34 H 7.81737 -1.70822 -0.745242 0
M  V30 35 H 7.41434 -0.966418 -2.34564 0
M  V30 36 H 7.9659 1.23954 -1.41509 0
M  V30 37 H 8.31443 0.505357 0.164963 0
M  V30 38 H 5.96702 -0.508715 0.143013 0
M  V30 39 H 5.62779 0.38023 -1.35844 0
M  V30 40 H 4.90475 3.67503 1.53421 0
M  V30 41 H 2.53316 4.04156 2.21113 0
M  V30 42 H 0.873413 2.39176 1.69489 0
M  V30 43 H 3.81888 -0.0830573 -0.190277 0
M  V30 44 H -0.296924 0.782512 1.65792 0
M  V30 45 H -0.60588 -1.66179 -0.0648386 0
M  V30 46 H -1.69446 -0.973085 2.73091 0
M  V30 47 H -0.517721 -2.2434 2.27714 0
M  V30 48 H -2.17254 -3.71382 1.71865 0
M  V30 49 H -3.28563 -2.56104 2.61729 0
M  V30 50 H -2.73901 -2.712 -0.390786 0
M  V30 51 H -4.29388 -2.84028 0.600394 0
M  V30 52 H -3.74099 -0.537067 1.48076 0
M  V30 53 H -2.0734 -0.262918 -1.03788 0
M  V30 54 H -2.67463 1.29881 1.25186 0
M  V30 55 H -3.61472 -0.891216 -2.38586 0
M  V30 56 H -8.10096 0.88717 1.96833 0
M  V30 57 H -9.13988 1.58142 -2.61726 0
M  V30 58 H -8.1153 0.363154 -3.4037 0
M  V30 END ATOM
M  V30 BEGIN BOND
M  V30 1 1 1 2
M  V30 2 1 2 3
M  V30 3 1 3 4
M  V30 4 1 4 5
M  V30 5 1 5 6
M  V30 6 2 6 7
M  V30 7 1 7 8
M  V30 8 2 8 9
M  V30 9 1 9 10
M  V30 10 2 10 11
M  V30 11 1 10 12
M  V30 12 2 12 13
M  V30 13 1 12 14
M  V30 14 1 14 15
M  V30 15 1 15 16
M  V30 16 1 16 17
M  V30 17 1 17 18
M  V30 18 1 18 19
M  V30 19 1 19 20
M  V30 20 1 20 21
M  V30 21 1 19 22
M  V30 22 1 22 23
M  V30 23 2 23 24
M  V30 24 1 24 25
M  V30 25 2 25 26
M  V30 26 1 26 27
M  V30 27 2 27 28
M  V30 28 1 28 29
M  V30 29 2 29 30
M  V30 30 1 30 31
M  V30 31 1 11 6
M  V30 32 1 20 15
M  V30 33 1 26 22
M  V30 34 1 30 25
M  V30 35 1 1 32
M  V30 36 1 1 33
M  V30 37 1 2 34
M  V30 38 1 2 35
M  V30 39 1 3 36
M  V30 40 1 3 37
M  V30 41 1 4 38
M  V30 42 1 4 39
M  V30 43 1 7 40
M  V30 44 1 8 41
M  V30 45 1 9 42
M  V30 46 1 11 43
M  V30 47 1 14 44
M  V30 48 1 15 45 CFG=3
M  V30 49 1 16 46
M  V30 50 1 16 47
M  V30 51 1 17 48
M  V30 52 1 17 49
M  V30 53 1 18 50
M  V30 54 1 18 51
M  V30 55 1 19 52 CFG=1
M  V30 56 1 20 53 CFG=3
M  V30 57 1 21 54
M  V30 58 1 23 55
M  V30 59 1 28 56
M  V30 60 1 31 57
M  V30 61 1 31 58
M  V30 END BOND
M  V30 END CTAB
M  END
