
     RDKit          3D

  0  0  0  0  0  0  0  0  0  0999 V3000
M  V30 BEGIN CTAB
M  V30 COUNTS 22 23 0 0 0
M  V30 BEGIN ATOM
M  V30 1 F 4.39304 -0.897305 -0.0766335 0
M  V30 2 C 3.07898 -0.62087 -0.00943031 0
M  V30 3 C 2.17786 -1.64571 -0.224387 0
M  V30 4 C 0.82624 -1.36352 -0.155712 0
M  V30 5 C 0.346476 -0.102522 0.118203 0
M  V30 6 C 1.24311 0.915922 0.331808 0
M  V30 7 C 2.59186 0.643795 0.265315 0
M  V30 8 N 3.56722 1.67971 0.482222 0
M  V30 9 C -1.09424 0.141197 0.179176 0
M  V30 10 N -1.73297 1.29403 0.430852 0
M  V30 11 N -3.04221 1.08319 0.393319 0
M  V30 12 C -3.27732 -0.212368 0.116155 0
M  V30 13 N -2.04812 -0.776209 -0.0123968 0
M  V30 14 N -4.52604 -0.884388 -0.0208957 0
M  V30 15 H 2.49307 -2.66329 -0.444991 0
M  V30 16 H 0.0881455 -2.14098 -0.318466 0
M  V30 17 H 0.928828 1.93194 0.552069 0
M  V30 18 H 4.40384 1.7852 -0.126547 0
M  V30 19 H 3.38461 2.31562 1.28391 0
M  V30 20 H -3.78513 1.81795 0.555729 0
M  V30 21 H -4.86141 -1.55391 0.712884 0
M  V30 22 H -5.15584 -0.747479 -0.839814 0
M  V30 END ATOM
M  V30 BEGIN BOND
M  V30 1 1 1 2
M  V30 2 2 2 3
M  V30 3 1 3 4
M  V30 4 2 4 5
M  V30 5 1 5 6
M  V30 6 2 6 7
M  V30 7 1 7 8
M  V30 8 1 5 9
M  V30 9 2 9 10
M  V30 10 1 10 11
M  V30 11 1 11 12
M  V30 12 2 12 13
M  V30 13 1 12 14
M  V30 14 1 7 2
M  V30 15 1 13 9
M  V30 16 1 3 15
M  V30 17 1 4 16
M  V30 18 1 6 17
M  V30 19 1 8 18
M  V30 20 1 8 19
M  V30 21 1 11 20
M  V30 22 1 14 21
M  V30 23 1 14 22
M  V30 END BOND
M  V30 END CTAB
M  END
