
     RDKit          3D

  0  0  0  0  0  0  0  0  0  0999 V3000
M  V30 BEGIN CTAB
M  V30 COUNTS 41 43 0 0 0
M  V30 BEGIN ATOM
M  V30 1 N -4.48102 -0.633859 -0.367273 0
M  V30 2 C -4.2532 -0.933891 1.00243 0
M  V30 3 C -3.1179 -0.0939779 1.54009 0
M  V30 4 N -1.88769 -0.304578 0.848088 0
M  V30 5 C -1.13272 -1.54449 0.940803 0
M  V30 6 C 0.330745 -1.17207 1.11845 0
M  V30 7 C 0.797634 -0.591261 -0.207444 0 CFG=1
M  V30 8 C -0.0424093 0.586082 -0.496885 0
M  V30 9 C -1.34023 0.702552 0.0167057 0
M  V30 10 C -2.02109 1.8459 -0.342992 0
M  V30 11 C -1.47484 2.83631 -1.16234 0
M  V30 12 C -0.201983 2.69861 -1.65182 0
M  V30 13 C 0.492244 1.56192 -1.30253 0
M  V30 14 C 2.22584 -0.260971 -0.0752719 0
M  V30 15 C 2.64748 0.709642 0.792962 0
M  V30 16 C 4.00086 1.02393 0.916893 0
M  V30 17 C 4.92399 0.330245 0.138077 0
M  V30 18 C 4.51766 -0.642906 -0.734604 0
M  V30 19 C 3.15014 -0.930378 -0.831468 0
M  V30 20 N 2.8139 -1.95675 -1.76364 0
M  V30 21 H -5.37608 -0.844248 -0.731947 0
M  V30 22 H -3.67544 -0.768134 -0.918821 0
M  V30 23 H -5.16847 -0.623305 1.54696 0
M  V30 24 H -4.11787 -2.00198 1.17984 0
M  V30 25 H -3.41322 0.955537 1.50833 0
M  V30 26 H -3.01107 -0.335952 2.64417 0
M  V30 27 H -1.29317 -2.08918 -0.00807995 0
M  V30 28 H -1.40969 -2.13375 1.82782 0
M  V30 29 H 0.883361 -2.0771 1.39341 0
M  V30 30 H 0.41422 -0.385785 1.87015 0
M  V30 31 H 0.65775 -1.34352 -1.02627 0
M  V30 32 H -3.03124 2.01483 -0.000743145 0
M  V30 33 H -2.07087 3.70746 -1.40073 0
M  V30 34 H 0.221039 3.45159 -2.27798 0
M  V30 35 H 1.50498 1.48766 -1.71316 0
M  V30 36 H 1.98096 1.27733 1.41816 0
M  V30 37 H 4.35307 1.77503 1.58592 0
M  V30 38 H 5.97237 0.585733 0.244342 0
M  V30 39 H 5.24804 -1.16651 -1.32644 0
M  V30 40 H 2.84439 -2.94876 -1.44271 0
M  V30 41 H 2.53954 -1.767 -2.75047 0
M  V30 END ATOM
M  V30 BEGIN BOND
M  V30 1 1 1 2
M  V30 2 1 2 3
M  V30 3 1 3 4
M  V30 4 1 4 5
M  V30 5 1 5 6
M  V30 6 1 6 7
M  V30 7 1 7 8
M  V30 8 2 8 9
M  V30 9 1 9 10
M  V30 10 2 10 11
M  V30 11 1 11 12
M  V30 12 2 12 13
M  V30 13 1 7 14
M  V30 14 2 14 15
M  V30 15 1 15 16
M  V30 16 2 16 17
M  V30 17 1 17 18
M  V30 18 2 18 19
M  V30 19 1 19 20
M  V30 20 1 9 4
M  V30 21 1 19 14
M  V30 22 1 13 8
M  V30 23 1 1 21
M  V30 24 1 1 22
M  V30 25 1 2 23
M  V30 26 1 2 24
M  V30 27 1 3 25
M  V30 28 1 3 26
M  V30 29 1 5 27
M  V30 30 1 5 28
M  V30 31 1 6 29
M  V30 32 1 6 30
M  V30 33 1 7 31 CFG=3
M  V30 34 1 10 32
M  V30 35 1 11 33
M  V30 36 1 12 34
M  V30 37 1 13 35
M  V30 38 1 15 36
M  V30 39 1 16 37
M  V30 40 1 17 38
M  V30 41 1 18 39
M  V30 42 1 20 40
M  V30 43 1 20 41
M  V30 END BOND
M  V30 END CTAB
M  END
