
     RDKit          3D

  0  0  0  0  0  0  0  0  0  0999 V3000
M  V30 BEGIN CTAB
M  V30 COUNTS 51 54 0 0 0
M  V30 BEGIN ATOM
M  V30 1 N -4.09905 3.18748 2.49905 0
M  V30 2 C -2.96266 2.89558 2.38918 0
M  V30 3 C -1.57259 2.5371 2.26146 0
M  V30 4 C -0.681975 3.29089 2.98256 0
M  V30 5 N -1.1438 4.35379 3.79077 0
M  V30 6 N 0.616001 2.93557 2.84961 0
M  V30 7 C 0.980678 1.89945 2.04931 0
M  V30 8 C 0.118354 1.12712 1.31599 0
M  V30 9 C -1.22966 1.48147 1.44216 0
M  V30 10 C -2.32266 0.809411 0.756691 0
M  V30 11 C -3.0944 -0.146111 1.37994 0
M  V30 12 C -4.12553 -0.720078 0.668137 0
M  V30 13 C -4.42297 -0.391403 -0.624706 0
M  V30 14 C -3.64352 0.57681 -1.26353 0
M  V30 15 C -2.61446 1.15499 -0.564366 0
M  V30 16 O -3.95969 0.895097 -2.56988 0
M  V30 17 C -3.25651 1.83781 -3.30339 0
M  V30 18 O -5.45689 -0.977896 -1.31079 0
M  V30 19 C -6.3159 -1.95403 -0.802714 0
M  V30 20 C 0.652833 0.144442 0.576172 0
M  V30 21 N -0.099514 -0.778605 -0.262367 0
M  V30 22 C 2.01094 -0.00417108 0.614235 0
M  V30 23 S 2.50355 1.22978 1.68105 0
M  V30 24 C 2.86837 -1.00164 -0.104432 0
M  V30 25 O 2.33707 -1.83607 -0.844033 0
M  V30 26 N 4.2418 -0.901524 0.128184 0
M  V30 27 C 5.2591 -1.69669 -0.415838 0
M  V30 28 C 6.58912 -1.50391 0.0211064 0
M  V30 29 C 7.63198 -2.23883 -0.477373 0
M  V30 30 C 7.41808 -3.20075 -1.43125 0
M  V30 31 C 6.15497 -3.42499 -1.88506 0
M  V30 32 C 5.09816 -2.67507 -1.37499 0
M  V30 33 F 8.42963 -3.94147 -1.94462 0
M  V30 34 H -0.866418 4.49605 4.79217 0
M  V30 35 H -1.81087 5.08754 3.42674 0
M  V30 36 H -2.85239 -0.397836 2.39654 0
M  V30 37 H -4.71792 -1.47953 1.20368 0
M  V30 38 H -1.98654 1.91387 -1.04008 0
M  V30 39 H -2.91933 2.65443 -2.65065 0
M  V30 40 H -2.38884 1.41424 -3.86759 0
M  V30 41 H -3.8894 2.30596 -4.10952 0
M  V30 42 H -5.74109 -2.69482 -0.235018 0
M  V30 43 H -6.85561 -2.49005 -1.61521 0
M  V30 44 H -7.11027 -1.55338 -0.128661 0
M  V30 45 H -0.164871 -0.665157 -1.29005 0
M  V30 46 H -0.578004 -1.57305 0.202001 0
M  V30 47 H 4.54965 -0.128553 0.796002 0
M  V30 48 H 6.72695 -0.736836 0.775248 0
M  V30 49 H 8.61703 -2.05936 -0.118502 0
M  V30 50 H 5.95183 -4.17319 -2.63542 0
M  V30 51 H 4.12724 -2.88384 -1.76286 0
M  V30 END ATOM
M  V30 BEGIN BOND
M  V30 1 3 1 2
M  V30 2 1 2 3
M  V30 3 2 3 4
M  V30 4 1 4 5
M  V30 5 1 4 6
M  V30 6 2 6 7
M  V30 7 1 7 8
M  V30 8 2 8 9
M  V30 9 1 9 10
M  V30 10 2 10 11
M  V30 11 1 11 12
M  V30 12 2 12 13
M  V30 13 1 13 14
M  V30 14 2 14 15
M  V30 15 1 14 16
M  V30 16 1 16 17
M  V30 17 1 13 18
M  V30 18 1 18 19
M  V30 19 1 8 20
M  V30 20 1 20 21
M  V30 21 2 20 22
M  V30 22 1 22 23
M  V30 23 1 22 24
M  V30 24 2 24 25
M  V30 25 1 24 26
M  V30 26 1 26 27
M  V30 27 2 27 28
M  V30 28 1 28 29
M  V30 29 2 29 30
M  V30 30 1 30 31
M  V30 31 2 31 32
M  V30 32 1 30 33
M  V30 33 1 9 3
M  V30 34 1 15 10
M  V30 35 1 32 27
M  V30 36 1 23 7
M  V30 37 1 5 34
M  V30 38 1 5 35
M  V30 39 1 11 36
M  V30 40 1 12 37
M  V30 41 1 15 38
M  V30 42 1 17 39
M  V30 43 1 17 40
M  V30 44 1 17 41
M  V30 45 1 19 42
M  V30 46 1 19 43
M  V30 47 1 19 44
M  V30 48 1 21 45
M  V30 49 1 21 46
M  V30 50 1 26 47
M  V30 51 1 28 48
M  V30 52 1 29 49
M  V30 53 1 31 50
M  V30 54 1 32 51
M  V30 END BOND
M  V30 END CTAB
M  END
