
     RDKit          3D

  0  0  0  0  0  0  0  0  0  0999 V3000
M  V30 BEGIN CTAB
M  V30 COUNTS 28 27 0 0 0
M  V30 BEGIN ATOM
M  V30 1 C -2.84862 -0.0707185 0.381004 0 CFG=1
M  V30 2 N -3.40251 -1.2951 0.901483 0
M  V30 3 C -2.24859 -0.275046 -1.01343 0
M  V30 4 S -0.986161 -1.46596 -0.891488 0
M  V30 5 O -1.29425 -2.88842 -0.939637 0
M  V30 6 S 0.407192 -0.760972 0.399621 0
M  V30 7 O 0.400345 -1.17998 1.79762 0
M  V30 8 C 1.88369 -0.522958 -0.453294 0
M  V30 9 C 3.03975 0.0124427 0.401858 0 CFG=2
M  V30 10 N 2.73491 1.27609 0.984299 0
M  V30 11 C 4.27645 0.129345 -0.402849 0
M  V30 12 O 4.93269 1.34662 -0.487102 0
M  V30 13 O 4.78515 -0.83696 -1.03481 0
M  V30 14 C -3.85457 0.988196 0.3962 0
M  V30 15 O -3.57625 2.29284 -0.0605481 0
M  V30 16 O -5.00614 0.738708 0.827631 0
M  V30 17 H -2.01828 0.247685 1.07142 0
M  V30 18 H -4.27921 -1.57135 0.429993 0
M  V30 19 H -2.71294 -2.04962 1.03535 0
M  V30 20 H -1.84541 0.692753 -1.34822 0
M  V30 21 H -3.11387 -0.565659 -1.67051 0
M  V30 22 H 1.75203 0.229289 -1.27497 0
M  V30 23 H 2.32056 -1.4231 -0.976643 0
M  V30 24 H 3.2612 -0.699892 1.23699 0
M  V30 25 H 2.68116 1.29411 2.01089 0
M  V30 26 H 3.16098 2.09519 0.542118 0
M  V30 27 H 5.20168 1.86983 0.343182 0
M  V30 28 H -3.65099 2.39263 -1.08194 0
M  V30 END ATOM
M  V30 BEGIN BOND
M  V30 1 1 1 2
M  V30 2 1 1 3
M  V30 3 1 3 4
M  V30 4 2 4 5
M  V30 5 1 4 6
M  V30 6 2 6 7
M  V30 7 1 6 8
M  V30 8 1 8 9
M  V30 9 1 9 10
M  V30 10 1 9 11
M  V30 11 1 11 12
M  V30 12 2 11 13
M  V30 13 1 1 14
M  V30 14 1 14 15
M  V30 15 2 14 16
M  V30 16 1 1 17 CFG=1
M  V30 17 1 2 18
M  V30 18 1 2 19
M  V30 19 1 3 20
M  V30 20 1 3 21
M  V30 21 1 8 22
M  V30 22 1 8 23
M  V30 23 1 9 24 CFG=1
M  V30 24 1 10 25
M  V30 25 1 10 26
M  V30 26 1 12 27
M  V30 27 1 15 28
M  V30 END BOND
M  V30 END CTAB
M  END
