
     RDKit          3D

  0  0  0  0  0  0  0  0  0  0999 V3000
M  V30 BEGIN CTAB
M  V30 COUNTS 38 38 0 0 0
M  V30 BEGIN ATOM
M  V30 1 N 4.98342 1.15491 -1.79935 0
M  V30 2 C 4.80566 1.2831 -0.351273 0
M  V30 3 C 4.85652 -0.0456854 0.326452 0
M  V30 4 C 3.84551 -1.02695 -0.117137 0
M  V30 5 C 2.46718 -0.568076 0.175799 0
M  V30 6 O 2.30474 0.470414 0.855101 0
M  V30 7 N 1.41388 -1.34867 -0.341074 0
M  V30 8 C 0.0150798 -1.11736 -0.203168 0
M  V30 9 C -0.875232 -2.14423 -0.574968 0
M  V30 10 C -2.22529 -1.97094 -0.475403 0
M  V30 11 C -2.79981 -0.786468 -0.00708255 0
M  V30 12 C -1.95685 0.226519 0.360739 0
M  V30 13 C -0.565243 0.0298567 0.250829 0
M  V30 14 S -2.54081 1.72601 0.955613 0
M  V30 15 O -1.33933 2.58792 1.36448 0
M  V30 16 O -3.18831 2.59851 -0.114246 0
M  V30 17 N -3.50899 1.62559 2.36138 0
M  V30 18 C -4.24397 -0.624947 0.0816973 0
M  V30 19 C -4.89668 0.167292 -1.0007 0
M  V30 20 H 4.12005 1.53764 -2.26955 0
M  V30 21 H 5.03159 0.136533 -2.08023 0
M  V30 22 H 3.91938 1.83944 -0.0619219 0
M  V30 23 H 5.67066 1.8951 0.0479934 0
M  V30 24 H 4.78288 0.157902 1.43525 0
M  V30 25 H 5.90709 -0.445157 0.204054 0
M  V30 26 H 3.97082 -1.96654 0.499783 0
M  V30 27 H 3.96 -1.34463 -1.17478 0
M  V30 28 H 1.71358 -2.20919 -0.901596 0
M  V30 29 H -0.443515 -3.06192 -0.936452 0
M  V30 30 H -2.9357 -2.75967 -0.760214 0
M  V30 31 H 0.0787914 0.854687 0.541315 0
M  V30 32 H -4.48373 1.90374 2.11012 0
M  V30 33 H -3.1574 2.17537 3.14556 0
M  V30 34 H -4.6878 -1.67083 0.0135744 0
M  V30 35 H -4.6008 -0.327846 1.10874 0
M  V30 36 H -5.51915 0.980383 -0.562218 0
M  V30 37 H -5.6657 -0.443794 -1.57423 0
M  V30 38 H -4.21253 0.511987 -1.7988 0
M  V30 END ATOM
M  V30 BEGIN BOND
M  V30 1 1 1 2
M  V30 2 1 2 3
M  V30 3 1 3 4
M  V30 4 1 4 5
M  V30 5 2 5 6
M  V30 6 1 5 7
M  V30 7 1 7 8
M  V30 8 2 8 9
M  V30 9 1 9 10
M  V30 10 2 10 11
M  V30 11 1 11 12
M  V30 12 2 12 13
M  V30 13 1 12 14
M  V30 14 2 14 15
M  V30 15 2 14 16
M  V30 16 1 14 17
M  V30 17 1 11 18
M  V30 18 1 18 19
M  V30 19 1 13 8
M  V30 20 1 1 20
M  V30 21 1 1 21
M  V30 22 1 2 22
M  V30 23 1 2 23
M  V30 24 1 3 24
M  V30 25 1 3 25
M  V30 26 1 4 26
M  V30 27 1 4 27
M  V30 28 1 7 28
M  V30 29 1 9 29
M  V30 30 1 10 30
M  V30 31 1 13 31
M  V30 32 1 17 32
M  V30 33 1 17 33
M  V30 34 1 18 34
M  V30 35 1 18 35
M  V30 36 1 19 36
M  V30 37 1 19 37
M  V30 38 1 19 38
M  V30 END BOND
M  V30 END CTAB
M  END
