
     RDKit          3D

  0  0  0  0  0  0  0  0  0  0999 V3000
M  V30 BEGIN CTAB
M  V30 COUNTS 37 39 0 0 0
M  V30 BEGIN ATOM
M  V30 1 N 5.5978 0.52004 -0.541015 0
M  V30 2 C 4.40348 0.166941 0.132253 0
M  V30 3 C 4.48842 -0.326082 1.42603 0
M  V30 4 C 3.33119 -0.675277 2.0967 0
M  V30 5 C 2.13029 -0.525944 1.46765 0
M  V30 6 C 2.04627 -0.0297567 0.165859 0
M  V30 7 N 3.20197 0.289342 -0.427167 0
M  V30 8 C 0.709487 0.122953 -0.49941 0 CFG=1
M  V30 9 C 0.128592 -1.23542 -0.692124 0
M  V30 10 C -1.34532 -1.27528 -0.704059 0
M  V30 11 C -1.93946 -2.43572 -1.165 0
M  V30 12 C -3.30648 -2.6083 -1.23043 0
M  V30 13 C -4.08341 -1.55387 -0.808385 0
M  V30 14 C -3.53987 -0.374376 -0.339723 0
M  V30 15 C -2.16074 -0.245703 -0.291806 0
M  V30 16 N -1.53155 0.927985 0.174502 0
M  V30 17 C -0.103419 1.10329 0.225085 0
M  V30 18 S -2.50462 2.24568 0.72251 0
M  V30 19 O -1.6495 3.41592 1.17118 0
M  V30 20 O -3.43183 1.82402 1.8457 0
M  V30 21 N -3.51913 2.8634 -0.537709 0
M  V30 22 H 5.87431 1.53302 -0.619972 0
M  V30 23 H 6.18773 -0.228176 -0.94979 0
M  V30 24 H 5.46455 -0.425896 1.88149 0
M  V30 25 H 3.42332 -1.05688 3.1034 0
M  V30 26 H 1.22747 -0.793182 1.97743 0
M  V30 27 H 0.935037 0.532805 -1.51455 0
M  V30 28 H 0.469009 -1.92747 0.108136 0
M  V30 29 H 0.470576 -1.70032 -1.6493 0
M  V30 30 H -1.33474 -3.28753 -1.5059 0
M  V30 31 H -3.75013 -3.54546 -1.60278 0
M  V30 32 H -5.17258 -1.68541 -0.858145 0
M  V30 33 H -4.19667 0.422402 -0.0207756 0
M  V30 34 H 0.173517 1.12059 1.31038 0
M  V30 35 H 0.0863713 2.16142 -0.125762 0
M  V30 36 H -3.82545 3.80802 -0.284916 0
M  V30 37 H -2.9545 2.87823 -1.43959 0
M  V30 END ATOM
M  V30 BEGIN BOND
M  V30 1 1 1 2
M  V30 2 2 2 3
M  V30 3 1 3 4
M  V30 4 2 4 5
M  V30 5 1 5 6
M  V30 6 2 6 7
M  V30 7 1 6 8
M  V30 8 1 8 9
M  V30 9 1 9 10
M  V30 10 2 10 11
M  V30 11 1 11 12
M  V30 12 2 12 13
M  V30 13 1 13 14
M  V30 14 2 14 15
M  V30 15 1 15 16
M  V30 16 1 16 17
M  V30 17 1 16 18
M  V30 18 2 18 19
M  V30 19 2 18 20
M  V30 20 1 18 21
M  V30 21 1 7 2
M  V30 22 1 17 8
M  V30 23 1 15 10
M  V30 24 1 1 22
M  V30 25 1 1 23
M  V30 26 1 3 24
M  V30 27 1 4 25
M  V30 28 1 5 26
M  V30 29 1 8 27 CFG=3
M  V30 30 1 9 28
M  V30 31 1 9 29
M  V30 32 1 11 30
M  V30 33 1 12 31
M  V30 34 1 13 32
M  V30 35 1 14 33
M  V30 36 1 17 34
M  V30 37 1 17 35
M  V30 38 1 21 36
M  V30 39 1 21 37
M  V30 END BOND
M  V30 END CTAB
M  END
