
     RDKit          3D

  0  0  0  0  0  0  0  0  0  0999 V3000
M  V30 BEGIN CTAB
M  V30 COUNTS 23 23 0 0 0
M  V30 BEGIN ATOM
M  V30 1 N 2.29838 1.50569 -0.179767 0
M  V30 2 C 2.51447 0.18085 0.237407 0
M  V30 3 N 1.59709 -0.699413 0.0128741 0
M  V30 4 C 0.401141 -0.309699 -0.64534 0
M  V30 5 C -0.811487 -1.10068 -0.232208 0
M  V30 6 C -2.02999 -0.625637 -0.944245 0
M  V30 7 C -2.49214 0.497961 -0.0225462 0
M  V30 8 C -2.0473 -0.0462406 1.30687 0
M  V30 9 O -1.11404 -1.01655 1.09731 0
M  V30 10 N 3.69346 -0.237014 0.894279 0
M  V30 11 H 2.099 1.69741 -1.17211 0
M  V30 12 H 2.34355 2.26624 0.518798 0
M  V30 13 H 0.54303 -0.513751 -1.74689 0
M  V30 14 H 0.258908 0.778219 -0.563835 0
M  V30 15 H -0.616823 -2.16953 -0.529296 0
M  V30 16 H -2.7885 -1.44683 -0.90739 0
M  V30 17 H -1.8527 -0.264174 -1.97402 0
M  V30 18 H -1.99916 1.44279 -0.299699 0
M  V30 19 H -3.60635 0.554874 -0.116123 0
M  V30 20 H -1.65696 0.734093 1.98993 0
M  V30 21 H -2.97051 -0.453002 1.81383 0
M  V30 22 H 4.25011 -1.0032 0.49676 0
M  V30 23 H 3.98681 0.227609 1.765 0
M  V30 END ATOM
M  V30 BEGIN BOND
M  V30 1 1 1 2
M  V30 2 2 2 3 CFG=2
M  V30 3 1 3 4
M  V30 4 1 4 5
M  V30 5 1 5 6
M  V30 6 1 6 7
M  V30 7 1 7 8
M  V30 8 1 8 9
M  V30 9 1 2 10
M  V30 10 1 9 5
M  V30 11 1 1 11
M  V30 12 1 1 12
M  V30 13 1 4 13
M  V30 14 1 4 14
M  V30 15 1 5 15
M  V30 16 1 6 16
M  V30 17 1 6 17
M  V30 18 1 7 18
M  V30 19 1 7 19
M  V30 20 1 8 20
M  V30 21 1 8 21
M  V30 22 1 10 22
M  V30 23 1 10 23
M  V30 END BOND
M  V30 END CTAB
M  END
