
     RDKit          3D

  0  0  0  0  0  0  0  0  0  0999 V3000
M  V30 BEGIN CTAB
M  V30 COUNTS 41 41 0 0 0
M  V30 BEGIN ATOM
M  V30 1 C -3.11495 0.829995 -0.281215 0
M  V30 2 C -3.3097 2.20024 0.218221 0
M  V30 3 C -2.28521 3.19402 -0.146041 0
M  V30 4 C -0.891168 3.04623 0.304845 0 CFG=1
M  V30 5 C -0.169017 1.80071 -0.129183 0
M  V30 6 O 0.304998 1.8348 -1.30092 0
M  V30 7 N -0.0776498 0.741168 0.775696 0
M  V30 8 C 0.569931 -0.490465 0.511764 0
M  V30 9 C 0.943607 -0.937144 -0.719852 0
M  V30 10 C 1.59904 -2.16562 -0.893891 0
M  V30 11 C 1.89525 -2.97792 0.169166 0
M  V30 12 C 1.51422 -2.51987 1.40757 0
M  V30 13 C 0.876411 -1.33028 1.60571 0
M  V30 14 C 2.58367 -4.26588 -0.0256866 0
M  V30 15 S 4.34636 -4.11971 0.050938 0
M  V30 16 O 4.82882 -3.69607 1.39194 0
M  V30 17 O 4.91623 -5.49112 -0.226832 0
M  V30 18 N 4.96109 -3.05825 -1.14986 0
M  V30 19 N -0.0999835 4.16989 -0.27564 0
M  V30 20 C -4.72339 2.71734 -0.112111 0
M  V30 21 H -2.92627 0.122001 0.523804 0
M  V30 22 H -2.37514 0.698341 -1.08027 0
M  V30 23 H -4.11098 0.490718 -0.716053 0
M  V30 24 H -3.29861 2.12566 1.36147 0
M  V30 25 H -2.64219 4.20602 0.21542 0
M  V30 26 H -2.27336 3.23984 -1.29139 0
M  V30 27 H -0.805351 3.10578 1.39844 0
M  V30 28 H -0.537242 0.896552 1.72241 0
M  V30 29 H 0.727659 -0.3505 -1.60326 0
M  V30 30 H 1.85512 -2.43147 -1.91279 0
M  V30 31 H 1.74525 -3.15723 2.25152 0
M  V30 32 H 0.57583 -0.966189 2.57271 0
M  V30 33 H 2.33984 -4.72834 -1.01604 0
M  V30 34 H 2.29457 -5.02864 0.741343 0
M  V30 35 H 5.89207 -2.69744 -0.780837 0
M  V30 36 H 4.37956 -2.19463 -1.26785 0
M  V30 37 H -0.760008 4.959 -0.453891 0
M  V30 38 H 0.404067 3.85334 -1.12251 0
M  V30 39 H -4.77211 2.88816 -1.20972 0
M  V30 40 H -4.97202 3.60996 0.474932 0
M  V30 41 H -5.40921 1.87701 0.124805 0
M  V30 END ATOM
M  V30 BEGIN BOND
M  V30 1 1 1 2
M  V30 2 1 2 3
M  V30 3 1 3 4
M  V30 4 1 4 5
M  V30 5 2 5 6
M  V30 6 1 5 7
M  V30 7 1 7 8
M  V30 8 2 8 9
M  V30 9 1 9 10
M  V30 10 2 10 11
M  V30 11 1 11 12
M  V30 12 2 12 13
M  V30 13 1 11 14
M  V30 14 1 14 15
M  V30 15 2 15 16
M  V30 16 2 15 17
M  V30 17 1 15 18
M  V30 18 1 4 19
M  V30 19 1 2 20
M  V30 20 1 13 8
M  V30 21 1 1 21
M  V30 22 1 1 22
M  V30 23 1 1 23
M  V30 24 1 2 24
M  V30 25 1 3 25
M  V30 26 1 3 26
M  V30 27 1 4 27 CFG=1
M  V30 28 1 7 28
M  V30 29 1 9 29
M  V30 30 1 10 30
M  V30 31 1 12 31
M  V30 32 1 13 32
M  V30 33 1 14 33
M  V30 34 1 14 34
M  V30 35 1 18 35
M  V30 36 1 18 36
M  V30 37 1 19 37
M  V30 38 1 19 38
M  V30 39 1 20 39
M  V30 40 1 20 40
M  V30 41 1 20 41
M  V30 END BOND
M  V30 END CTAB
M  END
