
     RDKit          3D

  0  0  0  0  0  0  0  0  0  0999 V3000
M  V30 BEGIN CTAB
M  V30 COUNTS 47 47 0 0 0
M  V30 BEGIN ATOM
M  V30 1 N -1.62849 1.39279 -2.577 0
M  V30 2 C -1.93017 1.64732 -1.17283 0
M  V30 3 C -1.87633 0.3345 -0.377353 0
M  V30 4 C -2.19814 0.700073 1.0358 0
M  V30 5 C -1.2716 1.67779 1.66646 0
M  V30 6 C -3.6149 1.27646 1.12825 0
M  V30 7 N -0.658235 -0.346252 -0.601468 0
M  V30 8 C -0.320181 -1.60634 -0.0426184 0
M  V30 9 O -1.22735 -2.11272 0.71797 0
M  V30 10 C 0.946754 -2.33078 -0.275922 0
M  V30 11 C 2.17401 -1.79496 0.316887 0
M  V30 12 C 2.64404 -0.472671 -0.024034 0
M  V30 13 C 3.44082 -0.17915 -1.13458 0
M  V30 14 C 3.89905 1.06662 -1.42612 0
M  V30 15 C 3.56606 2.11391 -0.584899 0
M  V30 16 C 2.78637 1.88569 0.520844 0
M  V30 17 C 2.33618 0.595325 0.785855 0
M  V30 18 N 2.17052 -1.9616 1.76158 0
M  V30 19 C 0.768648 -3.74216 0.330028 0
M  V30 20 C -2.99292 -0.513716 -0.977151 0
M  V30 21 H -0.617738 1.46055 -2.7855 0
M  V30 22 H -2.08449 2.18098 -3.11376 0
M  V30 23 H -2.99881 1.96174 -1.14364 0
M  V30 24 H -1.23698 2.39048 -0.775289 0
M  V30 25 H -2.2488 -0.199733 1.71775 0
M  V30 26 H -1.82636 2.59974 1.95382 0
M  V30 27 H -0.882908 1.27965 2.65126 0
M  V30 28 H -0.431437 2.02165 1.03071 0
M  V30 29 H -3.66182 2.31587 0.781071 0
M  V30 30 H -3.85747 1.30031 2.22642 0
M  V30 31 H -4.28345 0.579661 0.612978 0
M  V30 32 H 0.0461187 0.129374 -1.24716 0
M  V30 33 H 1.05776 -2.56947 -1.38068 0
M  V30 34 H 3.01474 -2.51684 -0.0132167 0
M  V30 35 H 3.69681 -0.990807 -1.78336 0
M  V30 36 H 4.51365 1.27139 -2.28973 0
M  V30 37 H 3.917 3.13257 -0.787349 0
M  V30 38 H 2.54512 2.72839 1.15737 0
M  V30 39 H 1.72581 0.49419 1.67644 0
M  V30 40 H 2.92936 -1.37738 2.21475 0
M  V30 41 H 1.27102 -1.57432 2.14105 0
M  V30 42 H 0.0632657 -4.33964 -0.260089 0
M  V30 43 H 1.74447 -4.2037 0.497577 0
M  V30 44 H 0.295265 -3.57042 1.33872 0
M  V30 45 H -3.81866 0.145477 -1.32586 0
M  V30 46 H -2.5662 -0.994203 -1.88119 0
M  V30 47 H -3.3194 -1.28565 -0.282806 0
M  V30 END ATOM
M  V30 BEGIN BOND
M  V30 1 1 1 2
M  V30 2 1 2 3
M  V30 3 1 3 4
M  V30 4 1 4 5
M  V30 5 1 4 6
M  V30 6 1 3 7
M  V30 7 1 7 8
M  V30 8 2 8 9
M  V30 9 1 8 10
M  V30 10 1 10 11
M  V30 11 1 11 12
M  V30 12 2 12 13
M  V30 13 1 13 14
M  V30 14 2 14 15
M  V30 15 1 15 16
M  V30 16 2 16 17
M  V30 17 1 11 18
M  V30 18 1 10 19
M  V30 19 1 3 20
M  V30 20 1 17 12
M  V30 21 1 1 21
M  V30 22 1 1 22
M  V30 23 1 2 23
M  V30 24 1 2 24
M  V30 25 1 4 25
M  V30 26 1 5 26
M  V30 27 1 5 27
M  V30 28 1 5 28
M  V30 29 1 6 29
M  V30 30 1 6 30
M  V30 31 1 6 31
M  V30 32 1 7 32
M  V30 33 1 10 33
M  V30 34 1 11 34
M  V30 35 1 13 35
M  V30 36 1 14 36
M  V30 37 1 15 37
M  V30 38 1 16 38
M  V30 39 1 17 39
M  V30 40 1 18 40
M  V30 41 1 18 41
M  V30 42 1 19 42
M  V30 43 1 19 43
M  V30 44 1 19 44
M  V30 45 1 20 45
M  V30 46 1 20 46
M  V30 47 1 20 47
M  V30 END BOND
M  V30 END CTAB
M  END
