
     RDKit          3D

  0  0  0  0  0  0  0  0  0  0999 V3000
M  V30 BEGIN CTAB
M  V30 COUNTS 39 41 0 0 0
M  V30 BEGIN ATOM
M  V30 1 C 1.4353 -2.61392 0.584255 0
M  V30 2 N 1.3356 -1.37104 -0.194393 0
M  V30 3 C 0.239386 -1.09848 -1.05827 0
M  V30 4 C -1.03721 -0.731035 -0.391616 0
M  V30 5 N -2.1221 -0.470436 -1.1616 0
M  V30 6 C -3.28877 -0.113316 -0.613039 0
M  V30 7 C -4.39883 0.158127 -1.41358 0
M  V30 8 N -4.33528 0.0672938 -2.82692 0
M  V30 9 N -5.53709 0.516394 -0.792107 0
M  V30 10 C -5.61897 0.613654 0.544865 0
M  V30 11 N -6.83537 0.996392 1.21378 0
M  V30 12 N -4.53311 0.345892 1.291 0
M  V30 13 C -3.34479 -0.0208939 0.77357 0
M  V30 14 N -2.27124 -0.279161 1.53831 0
M  V30 15 C -1.10539 -0.636425 0.973259 0
M  V30 16 C 2.42311 -0.444009 -0.0137437 0
M  V30 17 C 2.42939 0.80121 -0.615463 0
M  V30 18 C 3.50046 1.67365 -0.428068 0
M  V30 19 C 4.57424 1.35066 0.341871 0
M  V30 20 C 4.58857 0.119886 0.948721 0
M  V30 21 C 3.5185 -0.747768 0.759723 0
M  V30 22 C 5.66622 2.28735 0.505811 0
M  V30 23 O 6.77713 1.97201 1.29938 0
M  V30 24 O 5.65406 3.41197 -0.057426 0
M  V30 25 H 2.36398 -3.17793 0.272781 0
M  V30 26 H 1.59257 -2.38354 1.64621 0
M  V30 27 H 0.537699 -3.22777 0.461147 0
M  V30 28 H -0.0158263 -2.08116 -1.57299 0
M  V30 29 H 0.45867 -0.416608 -1.90245 0
M  V30 30 H -4.06286 0.861806 -3.4503 0
M  V30 31 H -4.5723 -0.840559 -3.27322 0
M  V30 32 H -6.91731 1.87973 1.75047 0
M  V30 33 H -7.66057 0.38238 1.16543 0
M  V30 34 H -0.222454 -0.844063 1.61063 0
M  V30 35 H 1.58092 1.0766 -1.22703 0
M  V30 36 H 3.3927 2.61889 -0.948395 0
M  V30 37 H 5.41944 -0.187446 1.57344 0
M  V30 38 H 3.5801 -1.71951 1.26612 0
M  V30 39 H 6.81142 2.27116 2.2879 0
M  V30 END ATOM
M  V30 BEGIN BOND
M  V30 1 1 1 2
M  V30 2 1 2 3
M  V30 3 1 3 4
M  V30 4 2 4 5
M  V30 5 1 5 6
M  V30 6 2 6 7
M  V30 7 1 7 8
M  V30 8 1 7 9
M  V30 9 2 9 10
M  V30 10 1 10 11
M  V30 11 1 10 12
M  V30 12 2 12 13
M  V30 13 1 13 14
M  V30 14 2 14 15
M  V30 15 1 2 16
M  V30 16 2 16 17
M  V30 17 1 17 18
M  V30 18 2 18 19
M  V30 19 1 19 20
M  V30 20 2 20 21
M  V30 21 1 19 22
M  V30 22 1 22 23
M  V30 23 2 22 24
M  V30 24 1 15 4
M  V30 25 1 21 16
M  V30 26 1 13 6
M  V30 27 1 1 25
M  V30 28 1 1 26
M  V30 29 1 1 27
M  V30 30 1 3 28
M  V30 31 1 3 29
M  V30 32 1 8 30
M  V30 33 1 8 31
M  V30 34 1 11 32
M  V30 35 1 11 33
M  V30 36 1 15 34
M  V30 37 1 17 35
M  V30 38 1 18 36
M  V30 39 1 20 37
M  V30 40 1 21 38
M  V30 41 1 23 39
M  V30 END BOND
M  V30 END CTAB
M  END
