
     RDKit          3D

  0  0  0  0  0  0  0  0  0  0999 V3000
M  V30 BEGIN CTAB
M  V30 COUNTS 37 38 0 0 0
M  V30 BEGIN ATOM
M  V30 1 F 5.54027 1.76343 0.733469 0
M  V30 2 C 5.18512 0.502658 0.287624 0
M  V30 3 O 3.94417 0.08857 0.715061 0
M  V30 4 C 2.85124 -0.314452 -0.0123621 0
M  V30 5 C 2.81151 -0.377195 -1.38194 0
M  V30 6 C 1.67678 -0.79352 -2.08241 0
M  V30 7 C 0.523365 -1.16816 -1.43083 0
M  V30 8 C 0.552921 -1.10911 -0.0624788 0
M  V30 9 C 1.67866 -0.695296 0.647846 0
M  V30 10 C -0.624623 -1.62 -2.17991 0
M  V30 11 O -0.414744 -1.68751 -3.45904 0
M  V30 12 C -1.94459 -1.98986 -1.66583 0
M  V30 13 S -3.10732 -0.678887 -1.38575 0
M  V30 14 C -2.66334 0.484625 -0.128433 0
M  V30 15 N -1.9626 1.59566 -0.490512 0
M  V30 16 C -1.59563 2.51744 0.40188 0
M  V30 17 N -0.858302 3.67169 -0.0264797 0
M  V30 18 C -1.92991 2.34951 1.72643 0
M  V30 19 C -2.64667 1.21421 2.0997 0
M  V30 20 N -2.99692 0.311142 1.17491 0
M  V30 21 N -2.9906 1.04803 3.4729 0
M  V30 22 C -1.94818 -3.02166 -0.573115 0
M  V30 23 F 6.12031 -0.447621 0.709559 0
M  V30 24 H 5.24511 0.483837 -0.815303 0
M  V30 25 H 3.71122 -0.0867357 -1.94474 0
M  V30 26 H 1.77499 -0.798396 -3.16218 0
M  V30 27 H -0.282101 -1.37648 0.563615 0
M  V30 28 H 1.68777 -0.653744 1.72897 0
M  V30 29 H -2.41879 -2.58218 -2.56017 0
M  V30 30 H 0.115208 3.85973 0.276372 0
M  V30 31 H -1.32358 4.34838 -0.669127 0
M  V30 32 H -1.62302 3.10774 2.429 0
M  V30 33 H -3.79197 0.458925 3.76606 0
M  V30 34 H -2.43632 1.52073 4.20587 0
M  V30 35 H -0.918031 -3.46189 -0.474763 0
M  V30 36 H -2.30021 -2.62257 0.403155 0
M  V30 37 H -2.6412 -3.84104 -0.838723 0
M  V30 END ATOM
M  V30 BEGIN BOND
M  V30 1 1 1 2
M  V30 2 1 2 3
M  V30 3 1 3 4
M  V30 4 2 4 5
M  V30 5 1 5 6
M  V30 6 2 6 7
M  V30 7 1 7 8
M  V30 8 2 8 9
M  V30 9 1 7 10
M  V30 10 2 10 11
M  V30 11 1 10 12
M  V30 12 1 12 13
M  V30 13 1 13 14
M  V30 14 2 14 15
M  V30 15 1 15 16
M  V30 16 1 16 17
M  V30 17 2 16 18
M  V30 18 1 18 19
M  V30 19 2 19 20
M  V30 20 1 19 21
M  V30 21 1 12 22
M  V30 22 1 2 23
M  V30 23 1 9 4
M  V30 24 1 20 14
M  V30 25 1 2 24
M  V30 26 1 5 25
M  V30 27 1 6 26
M  V30 28 1 8 27
M  V30 29 1 9 28
M  V30 30 1 12 29
M  V30 31 1 17 30
M  V30 32 1 17 31
M  V30 33 1 18 32
M  V30 34 1 21 33
M  V30 35 1 21 34
M  V30 36 1 22 35
M  V30 37 1 22 36
M  V30 38 1 22 37
M  V30 END BOND
M  V30 END CTAB
M  END
