
     RDKit          3D

  0  0  0  0  0  0  0  0  0  0999 V3000
M  V30 BEGIN CTAB
M  V30 COUNTS 38 37 0 0 0
M  V30 BEGIN ATOM
M  V30 1 N 1.68173 -0.303778 4.23366 0
M  V30 2 C 2.66407 -0.201217 3.19622 0
M  V30 3 C 2.13622 0.485206 1.95875 0
M  V30 4 C 0.946933 -0.277841 1.37446 0
M  V30 5 C 0.512427 0.500099 0.153012 0
M  V30 6 C -0.665709 -0.131828 -0.543821 0
M  V30 7 C -1.00468 0.697818 -1.71034 0
M  V30 8 O -1.10759 0.207093 -2.84876 0
M  V30 9 N -1.21943 2.08615 -1.53738 0
M  V30 10 C -1.55585 2.96296 -2.63971 0
M  V30 11 C -1.71723 4.34184 -2.15547 0
M  V30 12 O -1.56239 4.60175 -0.946839 0
M  V30 13 O -2.04002 5.34709 -3.03966 0
M  V30 14 N -0.478558 -1.51213 -0.839738 0
M  V30 15 C -1.2596 -2.57046 -0.322025 0
M  V30 16 O -2.19415 -2.27793 0.46149 0
M  V30 17 C -1.04031 -3.99636 -0.648701 0
M  V30 18 N 0.069926 -4.18427 -1.56283 0
M  V30 19 H 1.18019 -1.22889 4.14187 0
M  V30 20 H 2.16943 -0.216742 5.15259 0
M  V30 21 H 3.02049 -1.2231 2.91025 0
M  V30 22 H 3.50787 0.416588 3.56524 0
M  V30 23 H 1.80317 1.50049 2.17303 0
M  V30 24 H 2.90016 0.506052 1.16919 0
M  V30 25 H 1.31179 -1.2793 1.1055 0
M  V30 26 H 0.150971 -0.309792 2.1392 0
M  V30 27 H 0.215546 1.50312 0.511153 0
M  V30 28 H 1.34178 0.534314 -0.556787 0
M  V30 29 H -1.53943 -0.062732 0.167029 0
M  V30 30 H -1.14286 2.54608 -0.584969 0
M  V30 31 H -2.43978 2.59836 -3.20444 0
M  V30 32 H -0.646797 2.95718 -3.30706 0
M  V30 33 H -2.40794 6.22138 -2.69949 0
M  V30 34 H 0.30117 -1.77437 -1.49529 0
M  V30 35 H -1.93594 -4.46915 -1.12497 0
M  V30 36 H -0.868007 -4.59479 0.283251 0
M  V30 37 H 0.932319 -4.25698 -0.942298 0
M  V30 38 H -0.0199226 -5.14193 -1.9853 0
M  V30 END ATOM
M  V30 BEGIN BOND
M  V30 1 1 1 2
M  V30 2 1 2 3
M  V30 3 1 3 4
M  V30 4 1 4 5
M  V30 5 1 5 6
M  V30 6 1 6 7
M  V30 7 2 7 8
M  V30 8 1 7 9
M  V30 9 1 9 10
M  V30 10 1 10 11
M  V30 11 2 11 12
M  V30 12 1 11 13
M  V30 13 1 6 14
M  V30 14 1 14 15
M  V30 15 2 15 16
M  V30 16 1 15 17
M  V30 17 1 17 18
M  V30 18 1 1 19
M  V30 19 1 1 20
M  V30 20 1 2 21
M  V30 21 1 2 22
M  V30 22 1 3 23
M  V30 23 1 3 24
M  V30 24 1 4 25
M  V30 25 1 4 26
M  V30 26 1 5 27
M  V30 27 1 5 28
M  V30 28 1 6 29
M  V30 29 1 9 30
M  V30 30 1 10 31
M  V30 31 1 10 32
M  V30 32 1 13 33
M  V30 33 1 14 34
M  V30 34 1 17 35
M  V30 35 1 17 36
M  V30 36 1 18 37
M  V30 37 1 18 38
M  V30 END BOND
M  V30 END CTAB
M  END
