
     RDKit          3D

  0  0  0  0  0  0  0  0  0  0999 V3000
M  V30 BEGIN CTAB
M  V30 COUNTS 29 30 0 0 0
M  V30 BEGIN ATOM
M  V30 1 N 3.17592 -1.21963 -0.0859637 0
M  V30 2 C 2.37428 -0.212972 -0.787997 0
M  V30 3 C 2.43075 1.05603 -0.016068 0
M  V30 4 C 1.15719 0.989093 0.816386 0
M  V30 5 C 0.171652 0.459662 -0.20909 0
M  V30 6 C 0.941876 -0.707508 -0.768746 0
M  V30 7 O 0.0913323 1.42182 -1.21373 0
M  V30 8 C -1.11449 0.113168 0.372611 0
M  V30 9 C -1.33759 0.306389 1.71694 0
M  V30 10 N -2.5336 -0.00920077 2.29179 0
M  V30 11 C -3.56098 -0.522647 1.5963 0
M  V30 12 C -3.36779 -0.727477 0.248078 0
M  V30 13 C -2.14917 -0.411352 -0.364334 0
M  V30 14 N -1.94572 -0.62013 -1.75168 0
M  V30 15 H 4.16908 -1.04093 -0.401071 0
M  V30 16 H 3.16106 -0.962894 0.932208 0
M  V30 17 H 2.73944 -0.0737792 -1.83033 0
M  V30 18 H 3.27236 1.10525 0.707695 0
M  V30 19 H 2.367 1.96834 -0.619163 0
M  V30 20 H 1.29321 0.27644 1.65209 0
M  V30 21 H 0.820268 1.97499 1.13154 0
M  V30 22 H 0.820988 -1.63427 -0.176156 0
M  V30 23 H 0.62927 -0.894557 -1.82151 0
M  V30 24 H -0.623684 2.04774 -0.976022 0
M  V30 25 H -0.575493 0.710185 2.34535 0
M  V30 26 H -4.51107 -0.767235 2.08298 0
M  V30 27 H -4.16075 -1.13676 -0.352437 0
M  V30 28 H -1.82784 -1.62987 -2.06545 0
M  V30 29 H -1.90751 0.142094 -2.45422 0
M  V30 END ATOM
M  V30 BEGIN BOND
M  V30 1 1 1 2
M  V30 2 1 2 3
M  V30 3 1 3 4
M  V30 4 1 4 5
M  V30 5 1 5 6
M  V30 6 1 5 7
M  V30 7 1 5 8
M  V30 8 2 8 9
M  V30 9 1 9 10
M  V30 10 2 10 11
M  V30 11 1 11 12
M  V30 12 2 12 13
M  V30 13 1 13 14
M  V30 14 1 6 2
M  V30 15 1 13 8
M  V30 16 1 1 15
M  V30 17 1 1 16
M  V30 18 1 2 17
M  V30 19 1 3 18
M  V30 20 1 3 19
M  V30 21 1 4 20
M  V30 22 1 4 21
M  V30 23 1 6 22
M  V30 24 1 6 23
M  V30 25 1 7 24
M  V30 26 1 9 25
M  V30 27 1 11 26
M  V30 28 1 12 27
M  V30 29 1 14 28
M  V30 30 1 14 29
M  V30 END BOND
M  V30 END CTAB
M  END
