
     RDKit          3D

  0  0  0  0  0  0  0  0  0  0999 V3000
M  V30 BEGIN CTAB
M  V30 COUNTS 16 16 0 0 0
M  V30 BEGIN ATOM
M  V30 1 N -1.44665 0.500156 2.22267 0
M  V30 2 N -1.7252 -0.120405 1.09243 0
M  V30 3 C -1.16151 -0.400859 0.0466533 0
M  V30 4 C 0.19579 -0.0936911 -0.339957 0
M  V30 5 O 0.650906 -0.4882 -1.54837 0
M  V30 6 C 1.86994 -0.134861 -1.72758 0
M  V30 7 C 2.32705 0.531267 -0.63763 0
M  V30 8 C 1.21956 0.537916 0.235663 0
M  V30 9 Br 1.43884 1.39412 1.92183 0
M  V30 10 N -1.94714 -1.14165 -0.951067 0
M  V30 11 H -1.07281 0.0727298 3.12559 0
M  V30 12 H -1.63519 1.55027 2.3071 0
M  V30 13 H 2.41615 -0.362846 -2.64554 0
M  V30 14 H 3.30764 0.94189 -0.507664 0
M  V30 15 H -1.91677 -2.16976 -0.968088 0
M  V30 16 H -2.5206 -0.616077 -1.62604 0
M  V30 END ATOM
M  V30 BEGIN BOND
M  V30 1 1 1 2
M  V30 2 2 2 3
M  V30 3 1 3 4
M  V30 4 1 4 5
M  V30 5 1 5 6
M  V30 6 2 6 7
M  V30 7 1 7 8
M  V30 8 1 8 9
M  V30 9 1 3 10
M  V30 10 2 8 4
M  V30 11 1 1 11
M  V30 12 1 1 12
M  V30 13 1 6 13
M  V30 14 1 7 14
M  V30 15 1 10 15
M  V30 16 1 10 16
M  V30 END BOND
M  V30 END CTAB
M  END
