
     RDKit          3D

  0  0  0  0  0  0  0  0  0  0999 V3000
M  V30 BEGIN CTAB
M  V30 COUNTS 56 60 0 0 0
M  V30 BEGIN ATOM
M  V30 1 Cl -5.35763 -5.37104 -0.202109 0
M  V30 2 C -5.47899 -3.63091 -0.478022 0
M  V30 3 C -6.2747 -3.17648 -1.51157 0
M  V30 4 C -6.36563 -1.80439 -1.72294 0
M  V30 5 C -5.68344 -0.930772 -0.92609 0
M  V30 6 C -4.89168 -1.38388 0.1024 0
M  V30 7 C -4.79279 -2.73822 0.322533 0
M  V30 8 S -4.00237 -0.322033 1.14666 0
M  V30 9 O -4.78594 0.977286 1.23075 0
M  V30 10 O -3.91621 -0.857564 2.53515 0
M  V30 11 C -2.40833 0.0301854 0.576376 0
M  V30 12 C -1.25009 -0.666837 0.851768 0
M  V30 13 N -1.11306 -1.84123 1.6747 0
M  V30 14 N -0.239123 -0.0559542 0.209652 0
M  V30 15 C -0.704423 1.02334 -0.479486 0
M  V30 16 C -2.06424 1.08796 -0.257291 0
M  V30 17 N -2.74572 2.08526 -0.844325 0
M  V30 18 C -2.17851 3.01772 -1.63142 0
M  V30 19 C -2.89157 4.03697 -2.22811 0
M  V30 20 C -2.30865 4.99255 -3.03506 0
M  V30 21 C -0.938863 4.90667 -3.24383 0
M  V30 22 C -0.222414 3.88905 -2.64899 0
M  V30 23 C -0.813113 2.9297 -1.83777 0
M  V30 24 N -0.0955298 1.942 -1.26483 0
M  V30 25 C 1.15872 -0.441937 0.212537 0
M  V30 26 C 1.86553 0.252519 1.35646 0
M  V30 27 C 3.28959 -0.0847381 1.43133 0
M  V30 28 C 3.69463 -1.16418 2.18436 0
M  V30 29 C 5.05251 -1.49413 2.262 0
M  V30 30 C 5.99394 -0.757988 1.59793 0
M  V30 31 C 5.5776 0.319952 0.847419 0
M  V30 32 C 4.2314 0.659771 0.761011 0
M  V30 33 S 7.67843 -1.21135 1.72693 0
M  V30 34 O 8.50249 0.0357891 1.63292 0
M  V30 35 O 7.85907 -1.84862 3.09591 0
M  V30 36 N 8.15958 -2.3159 0.520385 0
M  V30 37 H -6.81168 -3.88748 -2.13715 0
M  V30 38 H -6.98629 -1.40649 -2.53218 0
M  V30 39 H -5.72718 0.155579 -1.05788 0
M  V30 40 H -4.18409 -3.17181 1.11924 0
M  V30 41 H -1.74926 -2.03495 2.46822 0
M  V30 42 H -0.350332 -2.50066 1.45211 0
M  V30 43 H -3.96111 4.06745 -2.03862 0
M  V30 44 H -2.8722 5.79551 -3.5048 0
M  V30 45 H -0.480909 5.65769 -3.87801 0
M  V30 46 H 0.841402 3.86043 -2.83868 0
M  V30 47 H 1.27392 -1.53353 0.242027 0
M  V30 48 H 1.66289 -0.0912367 -0.723783 0
M  V30 49 H 1.30718 -0.0413741 2.28682 0
M  V30 50 H 1.70116 1.34377 1.23351 0
M  V30 51 H 2.99975 -1.78593 2.73285 0
M  V30 52 H 5.33328 -2.3538 2.86686 0
M  V30 53 H 6.32726 0.895682 0.326373 0
M  V30 54 H 3.96713 1.52565 0.149489 0
M  V30 55 H 8.81862 -1.86696 -0.122531 0
M  V30 56 H 7.34997 -2.71609 -0.01118 0
M  V30 END ATOM
M  V30 BEGIN BOND
M  V30 1 1 1 2
M  V30 2 2 2 3
M  V30 3 1 3 4
M  V30 4 2 4 5
M  V30 5 1 5 6
M  V30 6 2 6 7
M  V30 7 1 6 8
M  V30 8 2 8 9
M  V30 9 2 8 10
M  V30 10 1 8 11
M  V30 11 2 11 12
M  V30 12 1 12 13
M  V30 13 1 12 14
M  V30 14 1 14 15
M  V30 15 2 15 16
M  V30 16 1 16 17
M  V30 17 2 17 18
M  V30 18 1 18 19
M  V30 19 2 19 20
M  V30 20 1 20 21
M  V30 21 2 21 22
M  V30 22 1 22 23
M  V30 23 2 23 24
M  V30 24 1 14 25
M  V30 25 1 25 26
M  V30 26 1 26 27
M  V30 27 2 27 28
M  V30 28 1 28 29
M  V30 29 2 29 30
M  V30 30 1 30 31
M  V30 31 2 31 32
M  V30 32 1 30 33
M  V30 33 2 33 34
M  V30 34 2 33 35
M  V30 35 1 33 36
M  V30 36 1 7 2
M  V30 37 1 16 11
M  V30 38 1 23 18
M  V30 39 1 32 27
M  V30 40 1 24 15
M  V30 41 1 3 37
M  V30 42 1 4 38
M  V30 43 1 5 39
M  V30 44 1 7 40
M  V30 45 1 13 41
M  V30 46 1 13 42
M  V30 47 1 19 43
M  V30 48 1 20 44
M  V30 49 1 21 45
M  V30 50 1 22 46
M  V30 51 1 25 47
M  V30 52 1 25 48
M  V30 53 1 26 49
M  V30 54 1 26 50
M  V30 55 1 28 51
M  V30 56 1 29 52
M  V30 57 1 31 53
M  V30 58 1 32 54
M  V30 59 1 36 55
M  V30 60 1 36 56
M  V30 END BOND
M  V30 END CTAB
M  END
