
     RDKit          3D

  0  0  0  0  0  0  0  0  0  0999 V3000
M  V30 BEGIN CTAB
M  V30 COUNTS 42 44 0 0 0
M  V30 BEGIN ATOM
M  V30 1 O -0.567894 1.6564 0.56711 0
M  V30 2 C -0.307379 0.501254 0.146337 0
M  V30 3 N -1.32382 -0.416166 -0.23664 0
M  V30 4 C -2.67383 0.0422111 -0.119319 0
M  V30 5 C -3.03193 1.1187 -0.827936 0
M  V30 6 C -4.42154 1.62562 -0.734326 0
M  V30 7 C -4.90417 1.63645 0.694594 0
M  V30 8 C -4.5451 0.421166 1.46991 0
M  V30 9 C -3.70394 -0.572476 0.720075 0
M  V30 10 C -0.957396 -1.71078 -0.707533 0
M  V30 11 C -1.82155 -2.89591 -0.600527 0
M  V30 12 C -1.66489 -2.25457 -1.9496 0
M  V30 13 C 1.11731 0.121697 0.0614957 0
M  V30 14 S 2.20644 1.46212 0.605249 0
M  V30 15 C 3.90453 0.999739 0.500567 0
M  V30 16 N 4.83983 1.89311 0.871281 0
M  V30 17 C 6.14628 1.5296 0.787889 0
M  V30 18 N 7.10688 2.48871 1.18414 0
M  V30 19 N 6.47622 0.300102 0.342352 0
M  V30 20 C 5.52463 -0.579756 -0.0239728 0
M  V30 21 N 4.2203 -0.224928 0.056266 0
M  V30 22 N 5.88953 -1.86743 -0.489788 0
M  V30 23 H -2.34084 1.61748 -1.45621 0
M  V30 24 H -4.49668 2.66886 -1.10439 0
M  V30 25 H -5.05672 0.961493 -1.33132 0
M  V30 26 H -4.45758 2.52142 1.22635 0
M  V30 27 H -5.99956 1.82915 0.660948 0
M  V30 28 H -4.03444 0.634675 2.42767 0
M  V30 29 H -5.49829 -0.112371 1.74197 0
M  V30 30 H -3.28967 -1.28085 1.47847 0
M  V30 31 H -4.4097 -1.11947 0.0281902 0
M  V30 32 H 0.132165 -1.92217 -0.744721 0
M  V30 33 H -2.83716 -2.91495 -0.219906 0
M  V30 34 H -1.32888 -3.91049 -0.532924 0
M  V30 35 H -1.09371 -2.72134 -2.74928 0
M  V30 36 H -2.48345 -1.59202 -2.31701 0
M  V30 37 H 1.43986 -0.178877 -0.943387 0
M  V30 38 H 1.29846 -0.762909 0.732904 0
M  V30 39 H 7.58818 3.03897 0.450007 0
M  V30 40 H 7.31809 2.63119 2.18634 0
M  V30 41 H 5.96086 -2.05624 -1.4996 0
M  V30 42 H 6.08054 -2.60643 0.215002 0
M  V30 END ATOM
M  V30 BEGIN BOND
M  V30 1 2 1 2
M  V30 2 1 2 3
M  V30 3 1 3 4
M  V30 4 2 4 5
M  V30 5 1 5 6
M  V30 6 1 6 7
M  V30 7 1 7 8
M  V30 8 1 8 9
M  V30 9 1 3 10
M  V30 10 1 10 11
M  V30 11 1 11 12
M  V30 12 1 2 13
M  V30 13 1 13 14
M  V30 14 1 14 15
M  V30 15 2 15 16
M  V30 16 1 16 17
M  V30 17 1 17 18
M  V30 18 2 17 19
M  V30 19 1 19 20
M  V30 20 2 20 21
M  V30 21 1 20 22
M  V30 22 1 9 4
M  V30 23 1 12 10
M  V30 24 1 21 15
M  V30 25 1 5 23
M  V30 26 1 6 24
M  V30 27 1 6 25
M  V30 28 1 7 26
M  V30 29 1 7 27
M  V30 30 1 8 28
M  V30 31 1 8 29
M  V30 32 1 9 30
M  V30 33 1 9 31
M  V30 34 1 10 32
M  V30 35 1 11 33
M  V30 36 1 11 34
M  V30 37 1 12 35
M  V30 38 1 12 36
M  V30 39 1 13 37
M  V30 40 1 13 38
M  V30 41 1 18 39
M  V30 42 1 18 40
M  V30 43 1 22 41
M  V30 44 1 22 42
M  V30 END BOND
M  V30 END CTAB
M  END
