
     RDKit          3D

  0  0  0  0  0  0  0  0  0  0999 V3000
M  V30 BEGIN CTAB
M  V30 COUNTS 41 42 0 0 0
M  V30 BEGIN ATOM
M  V30 1 C -3.50026 0.881048 1.12558 0
M  V30 2 C -2.35383 -0.0759426 0.928484 0
M  V30 3 C -2.89502 -1.46033 0.806712 0
M  V30 4 C -3.72059 -1.66943 -0.43404 0
M  V30 5 C -3.24548 -0.903946 -1.62237 0
M  V30 6 C -1.94297 -0.232818 -1.51037 0
M  V30 7 N -1.54796 0.203448 -0.210893 0
M  V30 8 C -0.347315 0.932962 0.00643617 0
M  V30 9 O 0.364384 1.17655 -0.998552 0
M  V30 10 C 0.0840688 1.4039 1.33765 0
M  V30 11 S 1.64437 2.29577 1.25968 0
M  V30 12 C 2.99213 1.19999 0.789581 0
M  V30 13 N 2.77842 -0.11745 0.545454 0
M  V30 14 C 3.76977 -0.958933 0.19362 0
M  V30 15 N 3.53663 -2.3396 -0.0601188 0
M  V30 16 C 5.058 -0.488799 0.0700253 0
M  V30 17 C 5.27349 0.855969 0.319477 0
M  V30 18 N 4.25058 1.64931 0.666652 0
M  V30 19 N 6.57912 1.39292 0.207198 0
M  V30 20 C -1.85794 0.985101 -2.43374 0
M  V30 21 H -4.09251 0.978354 0.195888 0
M  V30 22 H -4.17914 0.417087 1.87592 0
M  V30 23 H -3.18656 1.84977 1.5589 0
M  V30 24 H -1.76078 -0.0432866 1.88187 0
M  V30 25 H -2.08887 -2.22231 0.853116 0
M  V30 26 H -3.52689 -1.65126 1.71921 0
M  V30 27 H -3.73804 -2.76441 -0.622992 0
M  V30 28 H -4.76589 -1.39159 -0.180561 0
M  V30 29 H -4.02124 -0.155968 -1.91286 0
M  V30 30 H -3.21712 -1.62351 -2.49518 0
M  V30 31 H -1.1237 -0.919917 -1.87923 0
M  V30 32 H 0.200467 0.492637 1.9718 0
M  V30 33 H -0.706841 2.05142 1.76448 0
M  V30 34 H 3.17562 -2.68918 -0.972121 0
M  V30 35 H 3.74707 -3.00093 0.722477 0
M  V30 36 H 5.90295 -1.11609 -0.210393 0
M  V30 37 H 6.78763 2.36784 0.524633 0
M  V30 38 H 7.34974 0.81612 -0.195962 0
M  V30 39 H -1.04368 0.929823 -3.15517 0
M  V30 40 H -1.82542 1.92521 -1.84975 0
M  V30 41 H -2.8064 1.02048 -3.01418 0
M  V30 END ATOM
M  V30 BEGIN BOND
M  V30 1 1 1 2
M  V30 2 1 2 3
M  V30 3 1 3 4
M  V30 4 1 4 5
M  V30 5 1 5 6
M  V30 6 1 6 7
M  V30 7 1 7 8
M  V30 8 2 8 9
M  V30 9 1 8 10
M  V30 10 1 10 11
M  V30 11 1 11 12
M  V30 12 2 12 13
M  V30 13 1 13 14
M  V30 14 1 14 15
M  V30 15 2 14 16
M  V30 16 1 16 17
M  V30 17 2 17 18
M  V30 18 1 17 19
M  V30 19 1 6 20
M  V30 20 1 7 2
M  V30 21 1 18 12
M  V30 22 1 1 21
M  V30 23 1 1 22
M  V30 24 1 1 23
M  V30 25 1 2 24
M  V30 26 1 3 25
M  V30 27 1 3 26
M  V30 28 1 4 27
M  V30 29 1 4 28
M  V30 30 1 5 29
M  V30 31 1 5 30
M  V30 32 1 6 31
M  V30 33 1 10 32
M  V30 34 1 10 33
M  V30 35 1 15 34
M  V30 36 1 15 35
M  V30 37 1 16 36
M  V30 38 1 19 37
M  V30 39 1 19 38
M  V30 40 1 20 39
M  V30 41 1 20 40
M  V30 42 1 20 41
M  V30 END BOND
M  V30 END CTAB
M  END
