
     RDKit          3D

  0  0  0  0  0  0  0  0  0  0999 V3000
M  V30 BEGIN CTAB
M  V30 COUNTS 25 26 0 0 0
M  V30 BEGIN ATOM
M  V30 1 N -2.19773 2.97763 0.518855 0
M  V30 2 C -2.69535 1.64172 0.27333 0
M  V30 3 C -1.96116 0.485443 0.188185 0
M  V30 4 N -0.565698 0.328578 0.318331 0
M  V30 5 N 0.104131 -0.619776 -0.139418 0
M  V30 6 C 1.50939 -0.632835 0.0779903 0
M  V30 7 C 2.29735 -1.3256 -0.810022 0
M  V30 8 C 3.67675 -1.39154 -0.674877 0
M  V30 9 C 4.25165 -0.73763 0.385402 0
M  V30 10 C 3.50607 -0.0275306 1.30609 0
M  V30 11 C 2.12833 0.00926092 1.12828 0
M  V30 12 C -2.82449 -0.559242 -0.0556657 0
M  V30 13 N -2.51124 -1.93728 -0.218563 0
M  V30 14 N -4.06499 -0.000959883 -0.111428 0
M  V30 15 N -3.97982 1.29765 0.0836669 0
M  V30 16 H -2.46199 3.73422 -0.122373 0
M  V30 17 H -1.5831 3.19153 1.32254 0
M  V30 18 H 1.87145 -1.8476 -1.65085 0
M  V30 19 H 4.26319 -1.95386 -1.40462 0
M  V30 20 H 5.33622 -0.792587 0.487074 0
M  V30 21 H 3.97167 0.49227 2.15038 0
M  V30 22 H 1.50316 0.549545 1.81903 0
M  V30 23 H -2.93544 -2.645 0.391391 0
M  V30 24 H -1.85244 -2.20362 -0.959276 0
M  V30 25 H -4.78593 1.96721 0.0913203 0
M  V30 END ATOM
M  V30 BEGIN BOND
M  V30 1 1 1 2
M  V30 2 2 2 3
M  V30 3 1 3 4
M  V30 4 2 4 5 CFG=2
M  V30 5 1 5 6
M  V30 6 2 6 7
M  V30 7 1 7 8
M  V30 8 2 8 9
M  V30 9 1 9 10
M  V30 10 2 10 11
M  V30 11 1 3 12
M  V30 12 1 12 13
M  V30 13 2 12 14
M  V30 14 1 14 15
M  V30 15 1 15 2
M  V30 16 1 11 6
M  V30 17 1 1 16
M  V30 18 1 1 17
M  V30 19 1 7 18
M  V30 20 1 8 19
M  V30 21 1 9 20
M  V30 22 1 10 21
M  V30 23 1 11 22
M  V30 24 1 13 23
M  V30 25 1 13 24
M  V30 26 1 15 25
M  V30 END BOND
M  V30 END CTAB
M  END
