
     RDKit          3D

  0  0  0  0  0  0  0  0  0  0999 V3000
M  V30 BEGIN CTAB
M  V30 COUNTS 42 42 0 0 0
M  V30 BEGIN ATOM
M  V30 1 N -5.71413 1.66235 -0.695179 0
M  V30 2 C -5.8952 0.568756 0.190028 0
M  V30 3 C -5.27529 -0.665008 -0.431247 0
M  V30 4 C -3.81153 -0.506667 -0.688279 0
M  V30 5 C -3.03441 -0.231958 0.583558 0 CFG=2
M  V30 6 C -1.59238 -0.0909434 0.218454 0
M  V30 7 O -1.27147 0.811935 -0.599465 0
M  V30 8 N -0.616517 -0.949188 0.777515 0
M  V30 9 C 0.766625 -0.842389 0.455467 0
M  V30 10 C 1.41776 0.463519 0.801322 0
M  V30 11 C 2.86948 0.380865 0.394397 0
M  V30 12 N 3.64995 1.45199 0.614506 0
M  V30 13 C 4.95837 1.4207 0.264748 0
M  V30 14 C 5.80256 2.61128 0.515412 0
M  V30 15 C 5.48092 0.296829 -0.312169 0
M  V30 16 C 4.68312 -0.808653 -0.541326 0
M  V30 17 N 3.38951 -0.707398 -0.167861 0
M  V30 18 C 5.22824 -2.05741 -1.17318 0
M  V30 19 N -3.16712 -1.32171 1.52753 0
M  V30 20 H -4.76783 1.89251 -0.836716 0
M  V30 21 H -6.32806 2.4076 -0.527219 0
M  V30 22 H -5.46263 0.828108 1.15337 0
M  V30 23 H -6.97095 0.394058 0.331184 0
M  V30 24 H -5.77662 -0.922111 -1.37485 0
M  V30 25 H -5.4011 -1.51935 0.27357 0
M  V30 26 H -3.59827 0.289168 -1.42752 0
M  V30 27 H -3.42687 -1.45298 -1.09772 0
M  V30 28 H -3.37163 0.694741 1.08947 0
M  V30 29 H -0.941157 -1.69585 1.46089 0
M  V30 30 H 1.34369 -1.65996 0.975425 0
M  V30 31 H 0.938534 -1.07579 -0.637573 0
M  V30 32 H 0.967101 1.26767 0.189475 0
M  V30 33 H 1.31673 0.728319 1.85435 0
M  V30 34 H 6.06259 2.67087 1.58836 0
M  V30 35 H 5.25738 3.5698 0.286837 0
M  V30 36 H 6.7467 2.57225 -0.0470653 0
M  V30 37 H 6.52137 0.230347 -0.606654 0
M  V30 38 H 5.3861 -2.85368 -0.40605 0
M  V30 39 H 4.47994 -2.44952 -1.91973 0
M  V30 40 H 6.13164 -1.82067 -1.73316 0
M  V30 41 H -4.09519 -1.34646 1.98406 0
M  V30 42 H -2.87999 -2.23596 1.12353 0
M  V30 END ATOM
M  V30 BEGIN BOND
M  V30 1 1 1 2
M  V30 2 1 2 3
M  V30 3 1 3 4
M  V30 4 1 4 5
M  V30 5 1 5 6
M  V30 6 2 6 7
M  V30 7 1 6 8
M  V30 8 1 8 9
M  V30 9 1 9 10
M  V30 10 1 10 11
M  V30 11 2 11 12
M  V30 12 1 12 13
M  V30 13 1 13 14
M  V30 14 2 13 15
M  V30 15 1 15 16
M  V30 16 2 16 17
M  V30 17 1 16 18
M  V30 18 1 5 19
M  V30 19 1 17 11
M  V30 20 1 1 20
M  V30 21 1 1 21
M  V30 22 1 2 22
M  V30 23 1 2 23
M  V30 24 1 3 24
M  V30 25 1 3 25
M  V30 26 1 4 26
M  V30 27 1 4 27
M  V30 28 1 5 28 CFG=1
M  V30 29 1 8 29
M  V30 30 1 9 30
M  V30 31 1 9 31
M  V30 32 1 10 32
M  V30 33 1 10 33
M  V30 34 1 14 34
M  V30 35 1 14 35
M  V30 36 1 14 36
M  V30 37 1 15 37
M  V30 38 1 18 38
M  V30 39 1 18 39
M  V30 40 1 18 40
M  V30 41 1 19 41
M  V30 42 1 19 42
M  V30 END BOND
M  V30 END CTAB
M  END
