
     RDKit          3D

  0  0  0  0  0  0  0  0  0  0999 V3000
M  V30 BEGIN CTAB
M  V30 COUNTS 56 59 0 0 0
M  V30 BEGIN ATOM
M  V30 1 C -1.61859 -3.21248 -1.44722 0
M  V30 2 C -1.0298 -2.19731 -2.39611 0
M  V30 3 N -0.632831 -1.01162 -1.68829 0
M  V30 4 C -1.5677 0.0710932 -1.51236 0
M  V30 5 C -2.0167 0.790424 -2.59075 0
M  V30 6 O -1.59398 0.510055 -3.74312 0
M  V30 7 N -2.89377 1.76553 -2.34626 0
M  V30 8 C -3.33105 2.04187 -1.0838 0
M  V30 9 O -4.15789 2.98723 -0.972907 0
M  V30 10 N -2.91629 1.35818 0.00198122 0
M  V30 11 C -2.02383 0.365444 -0.224284 0
M  V30 12 N -1.52427 -0.345381 0.894802 0
M  V30 13 C -3.37077 1.6592 1.32454 0
M  V30 14 C -4.59173 1.00087 1.79642 0
M  V30 15 C -4.64104 -0.23274 2.38268 0
M  V30 16 C -5.82923 -0.769892 2.80427 0
M  V30 17 C -6.99566 -0.058743 2.63604 0
M  V30 18 C -7.00875 1.18295 2.05534 0
M  V30 19 C -5.79802 1.6929 1.64491 0
M  V30 20 C 0.658599 -0.875846 -1.1532 0
M  V30 21 O 1.04321 0.13859 -0.533936 0
M  V30 22 C 1.64488 -1.97097 -1.30807 0
M  V30 23 S 2.84181 -1.37958 -2.55551 0
M  V30 24 C 3.78408 -0.0818664 -1.76539 0
M  V30 25 N 3.55478 1.23588 -1.65681 0
M  V30 26 N 4.54695 1.78938 -0.987514 0
M  V30 27 C 5.42266 0.860709 -0.657284 0
M  V30 28 N 4.95571 -0.302631 -1.13576 0
M  V30 29 N 5.58514 -1.53963 -1.00027 0
M  V30 30 C 6.69261 0.989408 0.0924059 0
M  V30 31 C 7.22619 2.07721 0.729517 0
M  V30 32 C 8.42238 1.938 1.30007 0
M  V30 33 C 9.03793 0.718761 1.21312 0
M  V30 34 S 7.9102 -0.210013 0.323607 0
M  V30 35 H -0.86958 -3.41113 -0.647302 0
M  V30 36 H -1.83972 -4.14536 -1.99704 0
M  V30 37 H -2.52992 -2.80012 -0.961454 0
M  V30 38 H -0.149141 -2.6422 -2.88668 0
M  V30 39 H -1.77075 -1.93074 -3.19588 0
M  V30 40 H -3.2444 2.32361 -3.15654 0
M  V30 41 H -1.76549 -1.34335 1.07437 0
M  V30 42 H -0.87852 0.107059 1.60876 0
M  V30 43 H -3.51853 2.77939 1.42841 0
M  V30 44 H -2.56304 1.43374 2.06949 0
M  V30 45 H -3.75061 -0.82224 2.55001 0
M  V30 46 H -5.88879 -1.75421 3.27384 0
M  V30 47 H -7.96167 -0.444325 2.95529 0
M  V30 48 H -7.93523 1.75528 1.91798 0
M  V30 49 H -5.77542 2.68836 1.20017 0
M  V30 50 H 1.24949 -2.9503 -1.52551 0
M  V30 51 H 2.15501 -2.04926 -0.301664 0
M  V30 52 H 5.87104 -2.00799 -1.88152 0
M  V30 53 H 5.77624 -2.00384 -0.0951628 0
M  V30 54 H 6.64366 3.03773 0.755718 0
M  V30 55 H 8.93875 2.76368 1.83662 0
M  V30 56 H 10.0214 0.431209 1.62604 0
M  V30 END ATOM
M  V30 BEGIN BOND
M  V30 1 1 1 2
M  V30 2 1 2 3
M  V30 3 1 3 4
M  V30 4 1 4 5
M  V30 5 2 5 6
M  V30 6 1 5 7
M  V30 7 1 7 8
M  V30 8 2 8 9
M  V30 9 1 8 10
M  V30 10 1 10 11
M  V30 11 1 11 12
M  V30 12 1 10 13
M  V30 13 1 13 14
M  V30 14 2 14 15
M  V30 15 1 15 16
M  V30 16 2 16 17
M  V30 17 1 17 18
M  V30 18 2 18 19
M  V30 19 1 3 20
M  V30 20 2 20 21
M  V30 21 1 20 22
M  V30 22 1 22 23
M  V30 23 1 23 24
M  V30 24 2 24 25
M  V30 25 1 25 26
M  V30 26 2 26 27
M  V30 27 1 27 28
M  V30 28 1 28 29
M  V30 29 1 27 30
M  V30 30 2 30 31
M  V30 31 1 31 32
M  V30 32 2 32 33
M  V30 33 1 33 34
M  V30 34 2 11 4
M  V30 35 1 19 14
M  V30 36 1 28 24
M  V30 37 1 34 30
M  V30 38 1 1 35
M  V30 39 1 1 36
M  V30 40 1 1 37
M  V30 41 1 2 38
M  V30 42 1 2 39
M  V30 43 1 7 40
M  V30 44 1 12 41
M  V30 45 1 12 42
M  V30 46 1 13 43
M  V30 47 1 13 44
M  V30 48 1 15 45
M  V30 49 1 16 46
M  V30 50 1 17 47
M  V30 51 1 18 48
M  V30 52 1 19 49
M  V30 53 1 22 50
M  V30 54 1 22 51
M  V30 55 1 29 52
M  V30 56 1 29 53
M  V30 57 1 31 54
M  V30 58 1 32 55
M  V30 59 1 33 56
M  V30 END BOND
M  V30 END CTAB
M  END
