
     RDKit          3D

  0  0  0  0  0  0  0  0  0  0999 V3000
M  V30 BEGIN CTAB
M  V30 COUNTS 46 46 0 0 0
M  V30 BEGIN ATOM
M  V30 1 C -6.05642 1.74452 2.45702 0
M  V30 2 N -5.32754 0.817408 1.60501 0
M  V30 3 C -4.23274 0.106778 2.08765 0
M  V30 4 O -3.87619 0.296345 3.28498 0
M  V30 5 C -3.46008 -0.840683 1.2898 0
M  V30 6 C -2.05376 -0.73304 1.33589 0
M  V30 7 C -1.20447 -1.46286 0.561935 0
M  V30 8 C -1.83252 -2.35817 -0.311787 0
M  V30 9 C -3.17898 -2.49988 -0.390951 0
M  V30 10 C -4.02613 -1.72493 0.430463 0
M  V30 11 N -5.41674 -1.97791 0.322811 0 CHG=1
M  V30 12 O -5.85386 -2.34145 -0.79695 0
M  V30 13 O -6.28589 -1.84675 1.33706 0 CHG=-1
M  V30 14 N 0.203907 -1.39978 0.535005 0
M  V30 15 C 1.01919 -0.453342 1.20344 0
M  V30 16 O 0.550116 0.439108 1.89629 0
M  V30 17 C 2.49606 -0.523055 1.07463 0 CFG=2
M  V30 18 C 3.10188 0.798043 0.703786 0
M  V30 19 C 2.667 1.41407 -0.545092 0
M  V30 20 C 2.85927 0.714828 -1.83018 0
M  V30 21 N 4.23076 0.402173 -2.16671 0
M  V30 22 C 5.12903 1.45377 -2.47919 0
M  V30 23 N 6.04701 1.73644 -1.6283 0
M  V30 24 N 5.00486 2.16409 -3.70967 0
M  V30 25 N 3.00066 -1.6356 0.351296 0
M  V30 26 H -5.61285 1.7397 3.46015 0
M  V30 27 H -6.0703 2.7495 2.02366 0
M  V30 28 H -7.11415 1.40057 2.53655 0
M  V30 29 H -5.67351 0.752072 0.627099 0
M  V30 30 H -1.6717 -0.0326003 2.03336 0
M  V30 31 H -1.21694 -2.98877 -0.975331 0
M  V30 32 H -3.65237 -3.21242 -1.08536 0
M  V30 33 H 0.695898 -2.1614 -0.0525063 0
M  V30 34 H 2.83745 -0.693248 2.14746 0
M  V30 35 H 2.93793 1.49759 1.54779 0
M  V30 36 H 4.21382 0.637312 0.662825 0
M  V30 37 H 1.55962 1.64788 -0.468364 0
M  V30 38 H 3.13419 2.42022 -0.625742 0
M  V30 39 H 2.58087 1.48446 -2.62709 0
M  V30 40 H 2.15171 -0.110132 -2.05706 0
M  V30 41 H 4.5764 -0.568823 -2.18429 0
M  V30 42 H 6.73704 2.49298 -1.79328 0
M  V30 43 H 4.7766 3.17473 -3.74446 0
M  V30 44 H 5.14058 1.66348 -4.61101 0
M  V30 45 H 3.55475 -2.32636 0.851485 0
M  V30 46 H 2.61054 -1.8569 -0.554145 0
M  V30 END ATOM
M  V30 BEGIN BOND
M  V30 1 1 1 2
M  V30 2 1 2 3
M  V30 3 2 3 4
M  V30 4 1 3 5
M  V30 5 2 5 6
M  V30 6 1 6 7
M  V30 7 2 7 8
M  V30 8 1 8 9
M  V30 9 2 9 10
M  V30 10 1 10 11
M  V30 11 2 11 12
M  V30 12 1 11 13
M  V30 13 1 7 14
M  V30 14 1 14 15
M  V30 15 2 15 16
M  V30 16 1 15 17
M  V30 17 1 17 18
M  V30 18 1 18 19
M  V30 19 1 19 20
M  V30 20 1 20 21
M  V30 21 1 21 22
M  V30 22 2 22 23 CFG=2
M  V30 23 1 22 24
M  V30 24 1 17 25
M  V30 25 1 10 5
M  V30 26 1 1 26
M  V30 27 1 1 27
M  V30 28 1 1 28
M  V30 29 1 2 29
M  V30 30 1 6 30
M  V30 31 1 8 31
M  V30 32 1 9 32
M  V30 33 1 14 33
M  V30 34 1 17 34 CFG=1
M  V30 35 1 18 35
M  V30 36 1 18 36
M  V30 37 1 19 37
M  V30 38 1 19 38
M  V30 39 1 20 39
M  V30 40 1 20 40
M  V30 41 1 21 41
M  V30 42 1 23 42
M  V30 43 1 24 43
M  V30 44 1 24 44
M  V30 45 1 25 45
M  V30 46 1 25 46
M  V30 END BOND
M  V30 END CTAB
M  END
