
     RDKit          3D

  0  0  0  0  0  0  0  0  0  0999 V3000
M  V30 BEGIN CTAB
M  V30 COUNTS 37 39 0 0 0
M  V30 BEGIN ATOM
M  V30 1 N 2.45411 -2.23275 0.114521 0
M  V30 2 C 3.00422 -0.939007 0.102184 0
M  V30 3 C 4.38664 -0.806392 0.0251463 0
M  V30 4 C 4.96887 0.440221 0.00990302 0
M  V30 5 C 4.15462 1.54985 0.0724782 0
M  V30 6 C 2.76736 1.39822 0.149523 0
M  V30 7 C 2.18421 0.154901 0.164864 0
M  V30 8 C 0.737485 -0.0204523 0.245592 0 CFG=2
M  V30 9 N 0.1891 -0.861451 -0.785887 0
M  V30 10 C -1.20024 -1.15157 -0.678592 0
M  V30 11 C -1.74445 -2.34127 -1.18066 0
M  V30 12 C -3.09426 -2.5967 -1.06071 0
M  V30 13 C -3.87675 -1.65638 -0.439801 0
M  V30 14 C -3.37828 -0.457524 0.0749087 0
M  V30 15 C -2.03283 -0.231113 -0.0598035 0
M  V30 16 N -1.45588 0.961351 0.436761 0
M  V30 17 C -0.039756 1.24076 0.289809 0
M  V30 18 S -2.50515 2.10734 1.21439 0
M  V30 19 O -3.12239 1.48848 2.45975 0
M  V30 20 O -1.65176 3.24251 1.70072 0
M  V30 21 N -3.70555 2.70581 0.156918 0
M  V30 22 H 2.52956 -2.85933 -0.703638 0
M  V30 23 H 1.96183 -2.57167 0.957069 0
M  V30 24 H 5.04105 -1.66628 -0.0247117 0
M  V30 25 H 6.06136 0.56647 -0.0506716 0
M  V30 26 H 4.61764 2.53079 0.0602914 0
M  V30 27 H 2.15695 2.27125 0.197076 0
M  V30 28 H 0.543084 -0.546636 1.22999 0
M  V30 29 H 0.697433 -1.27411 -1.59162 0
M  V30 30 H -1.07436 -3.03203 -1.65483 0
M  V30 31 H -3.48717 -3.52272 -1.45722 0
M  V30 32 H -4.95188 -1.81517 -0.321202 0
M  V30 33 H -4.06548 0.234354 0.559815 0
M  V30 34 H 0.0692817 1.74871 -0.699493 0
M  V30 35 H 0.227662 1.9154 1.12704 0
M  V30 36 H -3.70779 3.73766 0.157885 0
M  V30 37 H -3.65849 2.28846 -0.797795 0
M  V30 END ATOM
M  V30 BEGIN BOND
M  V30 1 1 1 2
M  V30 2 2 2 3
M  V30 3 1 3 4
M  V30 4 2 4 5
M  V30 5 1 5 6
M  V30 6 2 6 7
M  V30 7 1 7 8
M  V30 8 1 8 9
M  V30 9 1 9 10
M  V30 10 2 10 11
M  V30 11 1 11 12
M  V30 12 2 12 13
M  V30 13 1 13 14
M  V30 14 2 14 15
M  V30 15 1 15 16
M  V30 16 1 16 17
M  V30 17 1 16 18
M  V30 18 2 18 19
M  V30 19 2 18 20
M  V30 20 1 18 21
M  V30 21 1 7 2
M  V30 22 1 17 8
M  V30 23 1 15 10
M  V30 24 1 1 22
M  V30 25 1 1 23
M  V30 26 1 3 24
M  V30 27 1 4 25
M  V30 28 1 5 26
M  V30 29 1 6 27
M  V30 30 1 8 28 CFG=1
M  V30 31 1 9 29
M  V30 32 1 11 30
M  V30 33 1 12 31
M  V30 34 1 13 32
M  V30 35 1 14 33
M  V30 36 1 17 34
M  V30 37 1 17 35
M  V30 38 1 21 36
M  V30 39 1 21 37
M  V30 END BOND
M  V30 END CTAB
M  END
