
     RDKit          3D

  0  0  0  0  0  0  0  0  0  0999 V3000
M  V30 BEGIN CTAB
M  V30 COUNTS 17 17 0 0 0
M  V30 BEGIN ATOM
M  V30 1 N -1.52012 -1.76117 0.662285 0
M  V30 2 C -0.613452 -0.721064 0.25471 0
M  V30 3 N 0.719213 -0.858868 0.362665 0
M  V30 4 C 1.57809 0.0908279 -0.00395091 0
M  V30 5 N 1.04166 1.21368 -0.502343 0
M  V30 6 C -0.285405 1.41869 -0.640954 0
M  V30 7 C -1.16302 0.431822 -0.255814 0
M  V30 8 N -2.59343 0.614477 -0.377153 0
M  V30 9 Cl -0.99589 2.87705 -1.28741 0
M  V30 10 C 3.05541 -0.0677815 0.156128 0
M  V30 11 F 3.61571 -1.08437 -0.553529 0
M  V30 12 F 3.71328 1.14662 -0.0530576 0
M  V30 13 F 3.35268 -0.353647 1.51455 0
M  V30 14 H -2.07749 -1.73234 1.51763 0
M  V30 15 H -1.5983 -2.58158 0.041563 0
M  V30 16 H -2.97059 1.47178 -0.819395 0
M  V30 17 H -3.25836 -0.104118 -0.015924 0
M  V30 END ATOM
M  V30 BEGIN BOND
M  V30 1 1 1 2
M  V30 2 2 2 3
M  V30 3 1 3 4
M  V30 4 2 4 5
M  V30 5 1 5 6
M  V30 6 2 6 7
M  V30 7 1 7 8
M  V30 8 1 6 9
M  V30 9 1 4 10
M  V30 10 1 10 11
M  V30 11 1 10 12
M  V30 12 1 10 13
M  V30 13 1 7 2
M  V30 14 1 1 14
M  V30 15 1 1 15
M  V30 16 1 8 16
M  V30 17 1 8 17
M  V30 END BOND
M  V30 END CTAB
M  END
