
     RDKit          3D

  0  0  0  0  0  0  0  0  0  0999 V3000
M  V30 BEGIN CTAB
M  V30 COUNTS 46 48 0 0 0
M  V30 BEGIN ATOM
M  V30 1 C -3.90324 -2.62448 0.643257 0
M  V30 2 O -3.49793 -1.28164 0.551818 0
M  V30 3 C -2.13473 -0.958839 0.400525 0
M  V30 4 C -1.21808 -2.01591 0.352395 0
M  V30 5 C 0.113111 -1.78662 0.212918 0
M  V30 6 C 0.638451 -0.494732 0.110732 0
M  V30 7 C -0.279454 0.517004 0.159135 0
M  V30 8 C -1.66365 0.308439 0.303085 0
M  V30 9 C -2.50535 1.49723 0.350802 0
M  V30 10 C -3.93763 1.27695 0.324987 0
M  V30 11 C -4.5926 1.02959 -0.862616 0
M  V30 12 N -3.92626 0.973431 -2.12023 0
M  V30 13 N -5.93772 0.828946 -0.916257 0
M  V30 14 C -6.61634 0.879937 0.238909 0
M  V30 15 N -8.03734 0.669609 0.229658 0
M  V30 16 N -6.00849 1.11755 1.39682 0
M  V30 17 C -4.69361 1.3209 1.50661 0
M  V30 18 C 2.04881 -0.27142 -0.0114931 0
M  V30 19 C 3.24068 -0.0896059 -0.0845179 0
M  V30 20 C 4.65894 0.129503 -0.137482 0
M  V30 21 C 5.52142 -0.465941 0.771683 0
M  V30 22 C 6.88593 -0.266778 0.749224 0
M  V30 23 C 7.4233 0.566815 -0.225763 0
M  V30 24 C 6.57611 1.15378 -1.12358 0
M  V30 25 C 5.19244 0.943606 -1.08977 0
M  V30 26 C 8.87032 0.783019 -0.245699 0
M  V30 27 O 9.45599 1.60054 -1.18619 0
M  V30 28 O 9.60359 0.217523 0.605246 0
M  V30 29 H -3.37927 -3.20119 1.41886 0
M  V30 30 H -4.98427 -2.63289 0.945823 0
M  V30 31 H -3.83964 -3.11753 -0.373635 0
M  V30 32 H -1.61452 -3.00893 0.427852 0
M  V30 33 H 0.851931 -2.5969 0.173665 0
M  V30 34 H 0.102863 1.53564 0.0823685 0
M  V30 35 H -2.17066 2.07489 1.26004 0
M  V30 36 H -2.26169 2.20826 -0.494463 0
M  V30 37 H -3.74435 0.0632596 -2.6036 0
M  V30 38 H -3.60589 1.84712 -2.58707 0
M  V30 39 H -8.54463 0.393538 -0.621229 0
M  V30 40 H -8.58865 0.80168 1.12639 0
M  V30 41 H -4.16192 1.51698 2.4224 0
M  V30 42 H 5.13612 -1.11593 1.53766 0
M  V30 43 H 7.55291 -0.72972 1.45731 0
M  V30 44 H 6.97974 1.79495 -1.87521 0
M  V30 45 H 4.55604 1.42575 -1.81869 0
M  V30 46 H 10.4392 1.51166 -1.38268 0
M  V30 END ATOM
M  V30 BEGIN BOND
M  V30 1 1 1 2
M  V30 2 1 2 3
M  V30 3 2 3 4
M  V30 4 1 4 5
M  V30 5 2 5 6
M  V30 6 1 6 7
M  V30 7 2 7 8
M  V30 8 1 8 9
M  V30 9 1 9 10
M  V30 10 2 10 11
M  V30 11 1 11 12
M  V30 12 1 11 13
M  V30 13 2 13 14
M  V30 14 1 14 15
M  V30 15 1 14 16
M  V30 16 2 16 17
M  V30 17 1 6 18
M  V30 18 3 18 19
M  V30 19 1 19 20
M  V30 20 2 20 21
M  V30 21 1 21 22
M  V30 22 2 22 23
M  V30 23 1 23 24
M  V30 24 2 24 25
M  V30 25 1 23 26
M  V30 26 1 26 27
M  V30 27 2 26 28
M  V30 28 1 8 3
M  V30 29 1 17 10
M  V30 30 1 25 20
M  V30 31 1 1 29
M  V30 32 1 1 30
M  V30 33 1 1 31
M  V30 34 1 4 32
M  V30 35 1 5 33
M  V30 36 1 7 34
M  V30 37 1 9 35
M  V30 38 1 9 36
M  V30 39 1 12 37
M  V30 40 1 12 38
M  V30 41 1 15 39
M  V30 42 1 15 40
M  V30 43 1 17 41
M  V30 44 1 21 42
M  V30 45 1 22 43
M  V30 46 1 24 44
M  V30 47 1 25 45
M  V30 48 1 27 46
M  V30 END BOND
M  V30 END CTAB
M  END
