
     RDKit          3D

  0  0  0  0  0  0  0  0  0  0999 V3000
M  V30 BEGIN CTAB
M  V30 COUNTS 46 49 0 0 0
M  V30 BEGIN ATOM
M  V30 1 N 7.17806 -0.0911153 0.0897068 0
M  V30 2 C 5.85959 -0.536151 -0.196014 0
M  V30 3 N 4.9523 0.21779 -0.837393 0
M  V30 4 C 3.71167 -0.216966 -1.09957 0
M  V30 5 C 2.73342 0.644947 -1.81245 0
M  V30 6 S 1.76931 1.65047 -0.672952 0
M  V30 7 C 0.707599 0.631748 0.356026 0
M  V30 8 N 1.11207 0.148505 1.51728 0
M  V30 9 N 0.144411 -0.559556 1.99554 0
M  V30 10 C -0.934809 -0.546914 1.12492 0
M  V30 11 N -0.559265 0.205769 0.112005 0
M  V30 12 C -1.28717 0.626692 -1.02824 0
M  V30 13 C -2.15143 1.84699 -0.804254 0
M  V30 14 C -3.43883 1.72609 -0.316297 0
M  V30 15 C -4.24143 2.8533 -0.115282 0
M  V30 16 C -3.79473 4.12215 -0.390409 0
M  V30 17 C -2.51842 4.25519 -0.876174 0
M  V30 18 C -1.7139 3.12223 -1.07749 0
M  V30 19 C -2.13688 -1.2571 1.52792 0
M  V30 20 C -2.5858 -1.24223 2.87167 0
M  V30 21 C -3.67724 -2.06552 2.91196 0
M  V30 22 O -3.8759 -2.53639 1.71948 0
M  V30 23 C -2.97718 -2.08344 0.848361 0
M  V30 24 C -2.99513 -2.49672 -0.603103 0
M  V30 25 N 3.37176 -1.45031 -0.703975 0
M  V30 26 C 4.24199 -2.24694 -0.0579757 0
M  V30 27 N 5.48976 -1.77075 0.189358 0
M  V30 28 N 3.81969 -3.54175 0.332804 0
M  V30 29 H 7.95004 -0.789844 0.209706 0
M  V30 30 H 7.35463 0.931117 0.175327 0
M  V30 31 H 3.32434 1.34269 -2.44687 0
M  V30 32 H 2.09832 0.0548926 -2.50593 0
M  V30 33 H -1.91568 -0.0702702 -1.5632 0
M  V30 34 H -0.545204 0.967086 -1.84789 0
M  V30 35 H -3.84548 0.743721 -0.0923106 0
M  V30 36 H -5.24975 2.66387 0.275681 0
M  V30 37 H -4.45296 4.96167 -0.218116 0
M  V30 38 H -2.12514 5.24542 -1.10763 0
M  V30 39 H -0.719158 3.24968 -1.47309 0
M  V30 40 H -2.13865 -0.684652 3.68304 0
M  V30 41 H -4.299 -2.30492 3.79304 0
M  V30 42 H -3.41869 -3.52354 -0.697051 0
M  V30 43 H -3.58993 -1.73383 -1.13854 0
M  V30 44 H -1.96091 -2.44139 -0.985369 0
M  V30 45 H 3.40305 -4.15703 -0.381242 0
M  V30 46 H 3.92667 -3.86468 1.31502 0
M  V30 END ATOM
M  V30 BEGIN BOND
M  V30 1 1 1 2
M  V30 2 2 2 3
M  V30 3 1 3 4
M  V30 4 1 4 5
M  V30 5 1 5 6
M  V30 6 1 6 7
M  V30 7 2 7 8
M  V30 8 1 8 9
M  V30 9 2 9 10
M  V30 10 1 10 11
M  V30 11 1 11 12
M  V30 12 1 12 13
M  V30 13 2 13 14
M  V30 14 1 14 15
M  V30 15 2 15 16
M  V30 16 1 16 17
M  V30 17 2 17 18
M  V30 18 1 10 19
M  V30 19 1 19 20
M  V30 20 2 20 21
M  V30 21 1 21 22
M  V30 22 1 22 23
M  V30 23 1 23 24
M  V30 24 2 4 25
M  V30 25 1 25 26
M  V30 26 2 26 27
M  V30 27 1 26 28
M  V30 28 1 27 2
M  V30 29 1 11 7
M  V30 30 1 18 13
M  V30 31 2 23 19
M  V30 32 1 1 29
M  V30 33 1 1 30
M  V30 34 1 5 31
M  V30 35 1 5 32
M  V30 36 1 12 33
M  V30 37 1 12 34
M  V30 38 1 14 35
M  V30 39 1 15 36
M  V30 40 1 16 37
M  V30 41 1 17 38
M  V30 42 1 18 39
M  V30 43 1 20 40
M  V30 44 1 21 41
M  V30 45 1 24 42
M  V30 46 1 24 43
M  V30 47 1 24 44
M  V30 48 1 28 45
M  V30 49 1 28 46
M  V30 END BOND
M  V30 END CTAB
M  END
