
     RDKit          3D

  0  0  0  0  0  0  0  0  0  0999 V3000
M  V30 BEGIN CTAB
M  V30 COUNTS 29 29 0 0 0
M  V30 BEGIN ATOM
M  V30 1 N -1.62471 3.00506 -0.84592 0
M  V30 2 C -2.10943 1.67437 -0.644287 0
M  V30 3 C -1.03077 0.715467 -0.291507 0
M  V30 4 C 0.287579 1.11153 -0.180935 0
M  V30 5 C 1.27222 0.188471 0.15084 0
M  V30 6 C 2.68337 0.649907 0.261544 0
M  V30 7 N 2.79676 2.06762 -0.0118208 0
M  V30 8 C 0.95121 -1.10889 0.369437 0
M  V30 9 C -0.365027 -1.50498 0.259179 0
M  V30 10 C -1.36221 -0.600146 -0.0706938 0
M  V30 11 O -2.68498 -1.04449 -0.172042 0
M  V30 12 C -2.99975 -2.38613 0.0565237 0
M  V30 13 C 1.99808 -2.0887 0.721819 0
M  V30 14 H -1.58541 3.59378 -0.00886105 0
M  V30 15 H -0.828835 3.08257 -1.49625 0
M  V30 16 H -2.6747 1.36771 -1.5468 0
M  V30 17 H -2.85043 1.7082 0.191493 0
M  V30 18 H 0.577574 2.1469 -0.350479 0
M  V30 19 H 2.97697 0.497303 1.32092 0
M  V30 20 H 3.37466 0.0356374 -0.343861 0
M  V30 21 H 3.634 2.49512 0.400098 0
M  V30 22 H 2.62128 2.30678 -1.00936 0
M  V30 23 H -0.661081 -2.53672 0.427108 0
M  V30 24 H -2.45933 -3.00788 -0.695452 0
M  V30 25 H -4.08497 -2.54339 -0.0161013 0
M  V30 26 H -2.61115 -2.65386 1.07169 0
M  V30 27 H 2.78023 -2.15487 -0.0630176 0
M  V30 28 H 1.54745 -3.11126 0.782743 0
M  V30 29 H 2.43141 -1.90512 1.73399 0
M  V30 END ATOM
M  V30 BEGIN BOND
M  V30 1 1 1 2
M  V30 2 1 2 3
M  V30 3 2 3 4
M  V30 4 1 4 5
M  V30 5 1 5 6
M  V30 6 1 6 7
M  V30 7 2 5 8
M  V30 8 1 8 9
M  V30 9 2 9 10
M  V30 10 1 10 11
M  V30 11 1 11 12
M  V30 12 1 8 13
M  V30 13 1 10 3
M  V30 14 1 1 14
M  V30 15 1 1 15
M  V30 16 1 2 16
M  V30 17 1 2 17
M  V30 18 1 4 18
M  V30 19 1 6 19
M  V30 20 1 6 20
M  V30 21 1 7 21
M  V30 22 1 7 22
M  V30 23 1 9 23
M  V30 24 1 12 24
M  V30 25 1 12 25
M  V30 26 1 12 26
M  V30 27 1 13 27
M  V30 28 1 13 28
M  V30 29 1 13 29
M  V30 END BOND
M  V30 END CTAB
M  END
