
     RDKit          3D

  0  0  0  0  0  0  0  0  0  0999 V3000
M  V30 BEGIN CTAB
M  V30 COUNTS 22 21 0 0 0
M  V30 BEGIN ATOM
M  V30 1 N 2.40416 -1.22394 -0.757281 0
M  V30 2 C 1.10176 -0.785179 -0.401157 0
M  V30 3 C 0.854061 0.372096 0.175927 0
M  V30 4 C -0.432499 0.911879 0.57832 0
M  V30 5 C -1.63691 0.106155 0.344864 0
M  V30 6 N -1.67876 -1.17134 0.990862 0
M  V30 7 C -1.95644 -0.113266 -1.12498 0
M  V30 8 C 2.05514 1.24406 0.452842 0
M  V30 9 H 2.94974 -1.91099 -0.190598 0
M  V30 10 H 2.84894 -0.84171 -1.6358 0
M  V30 11 H 0.29925 -1.46348 -0.632968 0
M  V30 12 H -0.572663 1.91228 0.0963215 0
M  V30 13 H -0.37903 1.14125 1.67721 0
M  V30 14 H -2.53064 0.672082 0.749398 0
M  V30 15 H -2.58304 -1.62967 0.734482 0
M  V30 16 H -1.67365 -1.0988 2.0389 0
M  V30 17 H -2.26904 -1.16333 -1.33054 0
M  V30 18 H -1.08766 0.126796 -1.77494 0
M  V30 19 H -2.79101 0.524541 -1.4811 0
M  V30 20 H 2.34747 1.15611 1.50434 0
M  V30 21 H 1.81108 2.29084 0.151978 0
M  V30 22 H 2.91971 0.94363 -0.166086 0
M  V30 END ATOM
M  V30 BEGIN BOND
M  V30 1 1 1 2
M  V30 2 2 2 3 CFG=2
M  V30 3 1 3 4
M  V30 4 1 4 5
M  V30 5 1 5 6
M  V30 6 1 5 7
M  V30 7 1 3 8
M  V30 8 1 1 9
M  V30 9 1 1 10
M  V30 10 1 2 11
M  V30 11 1 4 12
M  V30 12 1 4 13
M  V30 13 1 5 14
M  V30 14 1 6 15
M  V30 15 1 6 16
M  V30 16 1 7 17
M  V30 17 1 7 18
M  V30 18 1 7 19
M  V30 19 1 8 20
M  V30 20 1 8 21
M  V30 21 1 8 22
M  V30 END BOND
M  V30 END CTAB
M  END
