
     RDKit          3D

  0  0  0  0  0  0  0  0  0  0999 V3000
M  V30 BEGIN CTAB
M  V30 COUNTS 40 41 0 0 0
M  V30 BEGIN ATOM
M  V30 1 N 4.99537 0.489512 1.98102 0
M  V30 2 C 4.95015 0.164388 0.603226 0
M  V30 3 C 3.69852 -0.00423798 0.01509 0
M  V30 4 C 3.59248 -0.317951 -1.31406 0
M  V30 5 O 2.43775 -0.497399 -1.98484 0
M  V30 6 C 1.14993 -0.368528 -1.51772 0
M  V30 7 C 0.792383 1.03946 -1.14566 0
M  V30 8 C -0.616994 1.21323 -0.626777 0
M  V30 9 C -0.814216 0.423003 0.612963 0
M  V30 10 O -2.04913 0.491154 1.22072 0
M  V30 11 C -3.29582 0.15175 0.851354 0
M  V30 12 C -4.34684 0.380619 1.7287 0
M  V30 13 C -5.6481 0.0638114 1.43408 0
M  V30 14 N -6.7218 0.296153 2.32695 0
M  V30 15 C -5.91165 -0.509539 0.202877 0
M  V30 16 C -4.90394 -0.751279 -0.688988 0
M  V30 17 C -3.58494 -0.41758 -0.360759 0
M  V30 18 C 4.76878 -0.46411 -2.05407 0
M  V30 19 C 6.01585 -0.305666 -1.50583 0
M  V30 20 C 6.08857 0.0118662 -0.162831 0
M  V30 21 H 5.31939 1.40717 2.31756 0
M  V30 22 H 4.69424 -0.206769 2.72549 0
M  V30 23 H 2.84306 0.0921306 0.637965 0
M  V30 24 H 0.458371 -0.678036 -2.35681 0
M  V30 25 H 0.928452 -1.10425 -0.691595 0
M  V30 26 H 0.906097 1.64846 -2.10629 0
M  V30 27 H 1.54178 1.47685 -0.482499 0
M  V30 28 H -1.32398 1.03822 -1.44686 0
M  V30 29 H -0.695799 2.31871 -0.396286 0
M  V30 30 H -0.505129 -0.640091 0.483032 0
M  V30 31 H -0.0646871 0.823913 1.36403 0
M  V30 32 H -4.12974 0.822967 2.67399 0
M  V30 33 H -6.62186 1.03876 3.04206 0
M  V30 34 H -7.60614 -0.242777 2.29957 0
M  V30 35 H -6.9366 -0.75756 -0.0262332 0
M  V30 36 H -5.16333 -1.19847 -1.63133 0
M  V30 37 H -2.85928 -0.652901 -1.11443 0
M  V30 38 H 4.67167 -0.709435 -3.08748 0
M  V30 39 H 6.89047 -0.430797 -2.12598 0
M  V30 40 H 7.05667 0.14571 0.306637 0
M  V30 END ATOM
M  V30 BEGIN BOND
M  V30 1 1 1 2
M  V30 2 2 2 3
M  V30 3 1 3 4
M  V30 4 1 4 5
M  V30 5 1 5 6
M  V30 6 1 6 7
M  V30 7 1 7 8
M  V30 8 1 8 9
M  V30 9 1 9 10
M  V30 10 1 10 11
M  V30 11 2 11 12
M  V30 12 1 12 13
M  V30 13 1 13 14
M  V30 14 2 13 15
M  V30 15 1 15 16
M  V30 16 2 16 17
M  V30 17 2 4 18
M  V30 18 1 18 19
M  V30 19 2 19 20
M  V30 20 1 20 2
M  V30 21 1 17 11
M  V30 22 1 1 21
M  V30 23 1 1 22
M  V30 24 1 3 23
M  V30 25 1 6 24
M  V30 26 1 6 25
M  V30 27 1 7 26
M  V30 28 1 7 27
M  V30 29 1 8 28
M  V30 30 1 8 29
M  V30 31 1 9 30
M  V30 32 1 9 31
M  V30 33 1 12 32
M  V30 34 1 14 33
M  V30 35 1 14 34
M  V30 36 1 15 35
M  V30 37 1 16 36
M  V30 38 1 17 37
M  V30 39 1 18 38
M  V30 40 1 19 39
M  V30 41 1 20 40
M  V30 END BOND
M  V30 END CTAB
M  END
