
     RDKit          3D

  0  0  0  0  0  0  0  0  0  0999 V3000
M  V30 BEGIN CTAB
M  V30 COUNTS 28 29 0 0 0
M  V30 BEGIN ATOM
M  V30 1 N 2.2285 -1.66458 -0.877016 0
M  V30 2 C 2.10068 -0.446764 -0.168377 0
M  V30 3 C 2.86893 0.60165 -0.662052 0
M  V30 4 C 2.8342 1.82026 -0.0259813 0
M  V30 5 C 2.03518 1.96895 1.08876 0
M  V30 6 C 1.27947 0.92831 1.56958 0
M  V30 7 C 1.28492 -0.308103 0.961108 0
M  V30 8 N 0.566485 -1.41761 1.37711 0
M  V30 9 N -0.612704 -1.63394 1.19653 0
M  V30 10 C -1.44877 -0.738628 0.504356 0
M  V30 11 C -1.77322 -1.01879 -0.823774 0
M  V30 12 N -1.2806 -2.20967 -1.47487 0
M  V30 13 C -2.59571 -0.158126 -1.51123 0
M  V30 14 C -3.11591 0.976979 -0.93517 0
M  V30 15 C -2.77719 1.23019 0.388696 0
M  V30 16 C -1.9642 0.388101 1.08227 0
M  V30 17 H 2.00904 -1.70129 -1.87586 0
M  V30 18 H 2.54345 -2.50809 -0.376701 0
M  V30 19 H 3.49737 0.492136 -1.53476 0
M  V30 20 H 3.43551 2.65664 -0.40518 0
M  V30 21 H 2.00171 2.93646 1.60214 0
M  V30 22 H 0.676048 1.11358 2.47196 0
M  V30 23 H -1.55048 -3.10904 -1.03318 0
M  V30 24 H -0.701327 -2.19218 -2.31815 0
M  V30 25 H -2.82671 -0.414061 -2.5558 0
M  V30 26 H -3.76926 1.6567 -1.48877 0
M  V30 27 H -3.21177 2.14286 0.810388 0
M  V30 28 H -1.73364 0.608043 2.10859 0
M  V30 END ATOM
M  V30 BEGIN BOND
M  V30 1 1 1 2
M  V30 2 2 2 3
M  V30 3 1 3 4
M  V30 4 2 4 5
M  V30 5 1 5 6
M  V30 6 2 6 7
M  V30 7 1 7 8
M  V30 8 2 8 9
M  V30 9 1 9 10
M  V30 10 2 10 11
M  V30 11 1 11 12
M  V30 12 1 11 13
M  V30 13 2 13 14
M  V30 14 1 14 15
M  V30 15 2 15 16
M  V30 16 1 7 2
M  V30 17 1 16 10
M  V30 18 1 1 17
M  V30 19 1 1 18
M  V30 20 1 3 19
M  V30 21 1 4 20
M  V30 22 1 5 21
M  V30 23 1 6 22
M  V30 24 1 12 23
M  V30 25 1 12 24
M  V30 26 1 13 25
M  V30 27 1 14 26
M  V30 28 1 15 27
M  V30 29 1 16 28
M  V30 END BOND
M  V30 END CTAB
M  END
