
     RDKit          3D

  0  0  0  0  0  0  0  0  0  0999 V3000
M  V30 BEGIN CTAB
M  V30 COUNTS 23 24 0 0 0
M  V30 BEGIN ATOM
M  V30 1 N -3.08582 2.27785 -0.724754 0
M  V30 2 C -2.4372 1.11052 -0.266929 0
M  V30 3 N -1.07888 1.05134 -0.366662 0
M  V30 4 C -0.374212 -0.0154446 0.04133 0
M  V30 5 N -1.05878 -1.04623 0.5622 0
M  V30 6 C -2.42017 -0.996478 0.666401 0
M  V30 7 N -3.03269 -2.1345 1.22819 0
M  V30 8 N -3.09671 0.0698568 0.256006 0
M  V30 9 C 1.08169 -0.0516469 -0.0776597 0
M  V30 10 C 1.78426 1.00734 -0.612694 0
M  V30 11 F 1.09988 2.11327 -1.03989 0
M  V30 12 C 3.15602 0.999325 -0.736395 0
M  V30 13 C 3.88444 -0.0903432 -0.320503 0
M  V30 14 C 3.19436 -1.16273 0.219316 0
M  V30 15 C 1.82427 -1.13757 0.335259 0
M  V30 16 H -2.76345 2.72902 -1.5907 0
M  V30 17 H -3.87351 2.66362 -0.186697 0
M  V30 18 H -3.41955 -2.09025 2.18173 0
M  V30 19 H -3.09781 -3.01405 0.692706 0
M  V30 20 H 3.63441 1.86613 -1.16536 0
M  V30 21 H 4.96559 -0.117529 -0.408746 0
M  V30 22 H 3.78698 -2.02858 0.548498 0
M  V30 23 H 1.32687 -2.00294 0.765356 0
M  V30 END ATOM
M  V30 BEGIN BOND
M  V30 1 1 1 2
M  V30 2 2 2 3
M  V30 3 1 3 4
M  V30 4 2 4 5
M  V30 5 1 5 6
M  V30 6 1 6 7
M  V30 7 2 6 8
M  V30 8 1 4 9
M  V30 9 2 9 10
M  V30 10 1 10 11
M  V30 11 1 10 12
M  V30 12 2 12 13
M  V30 13 1 13 14
M  V30 14 2 14 15
M  V30 15 1 8 2
M  V30 16 1 15 9
M  V30 17 1 1 16
M  V30 18 1 1 17
M  V30 19 1 7 18
M  V30 20 1 7 19
M  V30 21 1 12 20
M  V30 22 1 13 21
M  V30 23 1 14 22
M  V30 24 1 15 23
M  V30 END BOND
M  V30 END CTAB
M  END
