
     RDKit          3D

  0  0  0  0  0  0  0  0  0  0999 V3000
M  V30 BEGIN CTAB
M  V30 COUNTS 16 16 0 0 0
M  V30 BEGIN ATOM
M  V30 1 N -2.965 -0.610657 0.173641 0
M  V30 2 N -1.61277 -0.794458 0.356089 0
M  V30 3 C -0.712803 0.0321699 -0.0554734 0
M  V30 4 C 0.701528 -0.259606 0.19126 0
M  V30 5 C 1.06995 -1.414 0.861204 0
M  V30 6 S 2.77141 -1.32338 0.909976 0
M  V30 7 C 2.98641 0.152756 0.0935048 0
M  V30 8 C 1.70793 0.536113 -0.196698 0
M  V30 9 Cl 4.49904 0.997674 -0.292422 0
M  V30 10 N -1.0739 1.21905 -0.743264 0
M  V30 11 H -3.46022 -1.23993 -0.512656 0
M  V30 12 H -3.5192 0.119646 0.681337 0
M  V30 13 H 0.436532 -2.19631 1.26349 0
M  V30 14 H 1.56253 1.49653 -0.744633 0
M  V30 15 H -0.426946 1.60831 -1.43455 0
M  V30 16 H -1.96449 1.67609 -0.550809 0
M  V30 END ATOM
M  V30 BEGIN BOND
M  V30 1 1 1 2
M  V30 2 2 2 3 CFG=2
M  V30 3 1 3 4
M  V30 4 2 4 5
M  V30 5 1 5 6
M  V30 6 1 6 7
M  V30 7 2 7 8
M  V30 8 1 7 9
M  V30 9 1 3 10
M  V30 10 1 8 4
M  V30 11 1 1 11
M  V30 12 1 1 12
M  V30 13 1 5 13
M  V30 14 1 8 14
M  V30 15 1 10 15
M  V30 16 1 10 16
M  V30 END BOND
M  V30 END CTAB
M  END
