
     RDKit          3D

  0  0  0  0  0  0  0  0  0  0999 V3000
M  V30 BEGIN CTAB
M  V30 COUNTS 25 25 0 0 0
M  V30 BEGIN ATOM
M  V30 1 N -2.3718 0.985274 1.15021 0
M  V30 2 C -1.98061 0.701449 -0.192835 0
M  V30 3 C -1.50111 -0.680427 -0.442371 0
M  V30 4 C -0.307345 -1.12797 0.31289 0
M  V30 5 C 0.924863 -0.348199 0.0888128 0
M  V30 6 C 1.24228 0.71129 0.893354 0
M  V30 7 C 2.4 1.46641 0.694443 0
M  V30 8 C 3.26007 1.14278 -0.344415 0
M  V30 9 C 2.95319 0.0760944 -1.16454 0
M  V30 10 C 1.7939 -0.662693 -0.948062 0
M  V30 11 Cl 4.72959 2.05536 -0.643139 0
M  V30 12 N -2.60186 -1.61251 -0.176602 0
M  V30 13 H -3.08545 1.74667 1.14959 0
M  V30 14 H -2.8328 0.154724 1.61306 0
M  V30 15 H -2.87232 0.909586 -0.841833 0
M  V30 16 H -1.23767 1.48729 -0.502324 0
M  V30 17 H -1.29121 -0.804474 -1.53707 0
M  V30 18 H -0.471586 -1.2204 1.40686 0
M  V30 19 H -0.070546 -2.18161 -0.019988 0
M  V30 20 H 0.584698 0.965833 1.70357 0
M  V30 21 H 2.63325 2.2921 1.33289 0
M  V30 22 H 3.6353 -0.169639 -1.97727 0
M  V30 23 H 1.54415 -1.50076 -1.58524 0
M  V30 24 H -2.55048 -1.95397 0.826841 0
M  V30 25 H -2.5265 -2.43221 -0.796833 0
M  V30 END ATOM
M  V30 BEGIN BOND
M  V30 1 1 1 2
M  V30 2 1 2 3
M  V30 3 1 3 4
M  V30 4 1 4 5
M  V30 5 2 5 6
M  V30 6 1 6 7
M  V30 7 2 7 8
M  V30 8 1 8 9
M  V30 9 2 9 10
M  V30 10 1 8 11
M  V30 11 1 3 12
M  V30 12 1 10 5
M  V30 13 1 1 13
M  V30 14 1 1 14
M  V30 15 1 2 15
M  V30 16 1 2 16
M  V30 17 1 3 17
M  V30 18 1 4 18
M  V30 19 1 4 19
M  V30 20 1 6 20
M  V30 21 1 7 21
M  V30 22 1 9 22
M  V30 23 1 10 23
M  V30 24 1 12 24
M  V30 25 1 12 25
M  V30 END BOND
M  V30 END CTAB
M  END
