
     RDKit          3D

  0  0  0  0  0  0  0  0  0  0999 V3000
M  V30 BEGIN CTAB
M  V30 COUNTS 22 22 0 0 0
M  V30 BEGIN ATOM
M  V30 1 C 4.28019 0.191037 0.322814 0
M  V30 2 O 2.93664 -0.199785 0.541079 0
M  V30 3 C 1.95278 0.446928 -0.195263 0
M  V30 4 O 2.25501 1.34836 -1.02586 0
M  V30 5 C 0.540462 0.115212 -0.0418004 0
M  V30 6 C -0.436639 0.749807 -0.765657 0
M  V30 7 C -1.77539 0.437093 -0.621823 0
M  V30 8 N -2.77905 1.1004 -1.37634 0
M  V30 9 C -2.1172 -0.547596 0.284097 0
M  V30 10 C -1.15532 -1.18731 1.01109 0
M  V30 11 C 0.180648 -0.860753 0.853639 0
M  V30 12 I 1.66326 -1.83979 1.96748 0
M  V30 13 N -3.48369 -0.879879 0.443469 0
M  V30 14 H 4.927 -0.0525826 1.18429 0
M  V30 15 H 4.28463 1.27189 0.0642741 0
M  V30 16 H 4.60531 -0.350391 -0.60609 0
M  V30 17 H -0.137033 1.52172 -1.47212 0
M  V30 18 H -3.26499 0.659278 -2.18627 0
M  V30 19 H -3.04987 2.06797 -1.11994 0
M  V30 20 H -1.39531 -1.96364 1.7288 0
M  V30 21 H -3.83333 -1.87214 0.396501 0
M  V30 22 H -4.1981 -0.155838 0.613621 0
M  V30 END ATOM
M  V30 BEGIN BOND
M  V30 1 1 1 2
M  V30 2 1 2 3
M  V30 3 2 3 4
M  V30 4 1 3 5
M  V30 5 2 5 6
M  V30 6 1 6 7
M  V30 7 1 7 8
M  V30 8 2 7 9
M  V30 9 1 9 10
M  V30 10 2 10 11
M  V30 11 1 11 12
M  V30 12 1 9 13
M  V30 13 1 11 5
M  V30 14 1 1 14
M  V30 15 1 1 15
M  V30 16 1 1 16
M  V30 17 1 6 17
M  V30 18 1 8 18
M  V30 19 1 8 19
M  V30 20 1 10 20
M  V30 21 1 13 21
M  V30 22 1 13 22
M  V30 END BOND
M  V30 END CTAB
M  END
