
     RDKit          3D

  0  0  0  0  0  0  0  0  0  0999 V3000
M  V30 BEGIN CTAB
M  V30 COUNTS 124 125 0 0 0
M  V30 BEGIN ATOM
M  V30 1 C -2.56936 4.23731 4.6424 0
M  V30 2 S -1.78329 4.99345 3.19501 0
M  V30 3 C -1.56463 3.74598 1.87465 0
M  V30 4 C -0.560315 2.76027 2.33892 0
M  V30 5 C -0.259022 1.63752 1.36689 0
M  V30 6 C -1.42795 0.801148 1.03757 0
M  V30 7 O -1.51824 0.214706 -0.103144 0
M  V30 8 N -2.52815 0.56341 1.89646 0
M  V30 9 C -3.65324 -0.313977 1.49962 0
M  V30 10 C -4.76058 0.527167 0.975039 0
M  V30 11 O -4.75674 1.77269 1.07147 0
M  V30 12 N -5.8793 -0.0515139 0.33432 0
M  V30 13 C -6.97817 0.733548 -0.179897 0
M  V30 14 C -7.98268 -0.127694 -0.839339 0
M  V30 15 O -7.76364 -1.36208 -0.910585 0
M  V30 16 N -9.18742 0.399364 -1.39048 0
M  V30 17 C -10.1429 -0.468302 -2.02749 0
M  V30 18 C -11.0524 -1.08133 -0.982842 0
M  V30 19 O -10.8843 -0.814907 0.220437 0
M  V30 20 O -12.0723 -1.93834 -1.34319 0
M  V30 21 C -10.8955 0.0155883 -3.17173 0
M  V30 22 C -11.7648 1.21275 -3.05911 0
M  V30 23 C -12.4214 1.46248 -4.40886 0
M  V30 24 C -12.8433 1.17079 -2.02449 0
M  V30 25 C -4.12155 -0.988841 2.73878 0
M  V30 26 C -3.18239 -1.81844 3.49133 0
M  V30 27 C -2.57927 -3.01629 2.87962 0
M  V30 28 N -3.58214 -4.02005 2.48006 0
M  V30 29 C -4.32967 -4.72558 3.42316 0
M  V30 30 N -4.01952 -5.93426 3.73181 0
M  V30 31 N -5.44567 -4.12837 4.05562 0
M  V30 32 N 0.507507 2.06866 0.24167 0
M  V30 33 C 1.88807 1.98967 0.0333889 0
M  V30 34 O 2.58967 1.45731 0.921066 0
M  V30 35 C 2.56968 2.51225 -1.17106 0
M  V30 36 C 2.16892 1.96286 -2.48238 0
M  V30 37 C 2.36427 0.540092 -2.72313 0
M  V30 38 C 3.57395 0.106046 -3.22425 0
M  V30 39 C 3.83521 -1.23479 -3.48643 0
M  V30 40 C 2.80862 -2.11695 -3.2164 0
M  V30 41 C 1.60067 -1.70784 -2.72004 0
M  V30 42 C 1.38938 -0.368881 -2.47713 0
M  V30 43 N 4.02136 2.45316 -0.977118 0
M  V30 44 C 4.76237 3.56403 -0.526597 0
M  V30 45 O 4.04386 4.62031 -0.287067 0
M  V30 46 C 6.20986 3.65205 -0.302903 0
M  V30 47 N 6.91232 2.45991 -0.707082 0
M  V30 48 C 6.91777 2.08412 -2.07023 0
M  V30 49 O 6.2778 2.84689 -2.90003 0
M  V30 50 C 7.57566 0.914509 -2.65647 0
M  V30 51 N 8.30005 0.135009 -1.70856 0
M  V30 52 C 9.00004 -1.03765 -2.1545 0
M  V30 53 O 8.94533 -1.34075 -3.36102 0
M  V30 54 C 9.76129 -1.82749 -1.13114 0
M  V30 55 C 10.8156 -0.90372 -0.519507 0
M  V30 56 C 11.6306 -1.56937 0.501009 0
M  V30 57 C 12.799 -2.20678 0.20211 0
M  V30 58 C 13.5796 -2.84614 1.16227 0
M  V30 59 C 13.154 -2.83359 2.4627 0
M  V30 60 C 11.984 -2.20193 2.79762 0
M  V30 61 C 11.2205 -1.57307 1.83955 0
M  V30 62 O 13.9098 -3.45918 3.42132 0
M  V30 63 N 10.3933 -2.93922 -1.81428 0
M  V30 64 H -3.68044 4.27462 4.52247 0
M  V30 65 H -2.2491 4.83245 5.53738 0
M  V30 66 H -2.30019 3.18549 4.68154 0
M  V30 67 H -1.1889 4.31466 0.986617 0
M  V30 68 H -2.52711 3.32712 1.59327 0
M  V30 69 H 0.403692 3.29331 2.50742 0
M  V30 70 H -0.827847 2.3067 3.29912 0
M  V30 71 H 0.459497 0.980978 1.96988 0
M  V30 72 H -2.5832 0.997411 2.82363 0
M  V30 73 H -3.31214 -0.909823 0.668806 0
M  V30 74 H -5.91168 -1.08301 0.230417 0
M  V30 75 H -7.47829 1.30381 0.658727 0
M  V30 76 H -6.55106 1.4955 -0.84853 0
M  V30 77 H -9.39674 1.39886 -1.33686 0
M  V30 78 H -9.53401 -1.37837 -2.34203 0
M  V30 79 H -11.8936 -2.9413 -1.27265 0
M  V30 80 H -11.5581 -0.849775 -3.51135 0
M  V30 81 H -10.2454 0.161674 -4.08604 0
M  V30 82 H -11.1388 2.13565 -2.85234 0
M  V30 83 H -12.3866 0.572942 -5.0729 0
M  V30 84 H -12.0544 2.3946 -4.89526 0
M  V30 85 H -13.4967 1.64526 -4.22677 0
M  V30 86 H -13.4551 2.12461 -2.11572 0
M  V30 87 H -13.5615 0.35606 -2.10884 0
M  V30 88 H -12.3694 1.28913 -1.02372 0
M  V30 89 H -5.06822 -1.56108 2.50384 0
M  V30 90 H -4.49464 -0.174148 3.42868 0
M  V30 91 H -3.65336 -2.16768 4.46147 0
M  V30 92 H -2.31521 -1.19073 3.87819 0
M  V30 93 H -2.02848 -3.54785 3.72116 0
M  V30 94 H -1.83136 -2.87794 2.10157 0
M  V30 95 H -3.74112 -4.20762 1.47362 0
M  V30 96 H -3.22247 -6.44626 3.31609 0
M  V30 97 H -6.17287 -3.68487 3.44022 0
M  V30 98 H -5.52051 -4.14654 5.09729 0
M  V30 99 H -0.0675276 2.50667 -0.544837 0
M  V30 100 H 2.32288 3.62017 -1.1644 0
M  V30 101 H 2.68377 2.60385 -3.27111 0
M  V30 102 H 1.08366 2.25605 -2.62779 0
M  V30 103 H 4.39832 0.768576 -3.45039 0
M  V30 104 H 4.79787 -1.56043 -3.87915 0
M  V30 105 H 3.0013 -3.17498 -3.42026 0
M  V30 106 H 0.812838 -2.45466 -2.51817 0
M  V30 107 H 0.402895 -0.0780408 -2.08772 0
M  V30 108 H 4.4775 1.55036 -1.1694 0
M  V30 109 H 6.34474 3.80723 0.810372 0
M  V30 110 H 6.58713 4.54503 -0.850748 0
M  V30 111 H 7.3914 1.90539 0.0241496 0
M  V30 112 H 8.19613 1.18243 -3.55122 0
M  V30 113 H 6.72914 0.283961 -3.08785 0
M  V30 114 H 8.31673 0.413817 -0.708387 0
M  V30 115 H 9.10357 -2.18816 -0.324493 0
M  V30 116 H 11.435 -0.54169 -1.38034 0
M  V30 117 H 10.2885 0.00465675 -0.141124 0
M  V30 118 H 13.1617 -2.23662 -0.812137 0
M  V30 119 H 14.5005 -3.33684 0.856719 0
M  V30 120 H 11.6539 -2.19443 3.81218 0
M  V30 121 H 10.317 -1.09407 2.13856 0
M  V30 122 H 13.6011 -3.45649 4.37553 0
M  V30 123 H 10.7195 -3.6642 -1.15752 0
M  V30 124 H 9.62613 -3.34915 -2.43895 0
M  V30 END ATOM
M  V30 BEGIN BOND
M  V30 1 1 1 2
M  V30 2 1 2 3
M  V30 3 1 3 4
M  V30 4 1 4 5
M  V30 5 1 5 6
M  V30 6 2 6 7
M  V30 7 1 6 8
M  V30 8 1 8 9
M  V30 9 1 9 10
M  V30 10 2 10 11
M  V30 11 1 10 12
M  V30 12 1 12 13
M  V30 13 1 13 14
M  V30 14 2 14 15
M  V30 15 1 14 16
M  V30 16 1 16 17
M  V30 17 1 17 18
M  V30 18 2 18 19
M  V30 19 1 18 20
M  V30 20 1 17 21
M  V30 21 1 21 22
M  V30 22 1 22 23
M  V30 23 1 22 24
M  V30 24 1 9 25
M  V30 25 1 25 26
M  V30 26 1 26 27
M  V30 27 1 27 28
M  V30 28 1 28 29
M  V30 29 2 29 30 CFG=2
M  V30 30 1 29 31
M  V30 31 1 5 32
M  V30 32 1 32 33
M  V30 33 2 33 34
M  V30 34 1 33 35
M  V30 35 1 35 36
M  V30 36 1 36 37
M  V30 37 2 37 38
M  V30 38 1 38 39
M  V30 39 2 39 40
M  V30 40 1 40 41
M  V30 41 2 41 42
M  V30 42 1 35 43
M  V30 43 1 43 44
M  V30 44 2 44 45
M  V30 45 1 44 46
M  V30 46 1 46 47
M  V30 47 1 47 48
M  V30 48 2 48 49
M  V30 49 1 48 50
M  V30 50 1 50 51
M  V30 51 1 51 52
M  V30 52 2 52 53
M  V30 53 1 52 54
M  V30 54 1 54 55
M  V30 55 1 55 56
M  V30 56 2 56 57
M  V30 57 1 57 58
M  V30 58 2 58 59
M  V30 59 1 59 60
M  V30 60 2 60 61
M  V30 61 1 59 62
M  V30 62 1 54 63
M  V30 63 1 42 37
M  V30 64 1 61 56
M  V30 65 1 1 64
M  V30 66 1 1 65
M  V30 67 1 1 66
M  V30 68 1 3 67
M  V30 69 1 3 68
M  V30 70 1 4 69
M  V30 71 1 4 70
M  V30 72 1 5 71
M  V30 73 1 8 72
M  V30 74 1 9 73
M  V30 75 1 12 74
M  V30 76 1 13 75
M  V30 77 1 13 76
M  V30 78 1 16 77
M  V30 79 1 17 78
M  V30 80 1 20 79
M  V30 81 1 21 80
M  V30 82 1 21 81
M  V30 83 1 22 82
M  V30 84 1 23 83
M  V30 85 1 23 84
M  V30 86 1 23 85
M  V30 87 1 24 86
M  V30 88 1 24 87
M  V30 89 1 24 88
M  V30 90 1 25 89
M  V30 91 1 25 90
M  V30 92 1 26 91
M  V30 93 1 26 92
M  V30 94 1 27 93
M  V30 95 1 27 94
M  V30 96 1 28 95
M  V30 97 1 30 96
M  V30 98 1 31 97
M  V30 99 1 31 98
M  V30 100 1 32 99
M  V30 101 1 35 100
M  V30 102 1 36 101
M  V30 103 1 36 102
M  V30 104 1 38 103
M  V30 105 1 39 104
M  V30 106 1 40 105
M  V30 107 1 41 106
M  V30 108 1 42 107
M  V30 109 1 43 108
M  V30 110 1 46 109
M  V30 111 1 46 110
M  V30 112 1 47 111
M  V30 113 1 50 112
M  V30 114 1 50 113
M  V30 115 1 51 114
M  V30 116 1 54 115
M  V30 117 1 55 116
M  V30 118 1 55 117
M  V30 119 1 57 118
M  V30 120 1 58 119
M  V30 121 1 60 120
M  V30 122 1 61 121
M  V30 123 1 62 122
M  V30 124 1 63 123
M  V30 125 1 63 124
M  V30 END BOND
M  V30 END CTAB
M  END
