
     RDKit          3D

  0  0  0  0  0  0  0  0  0  0999 V3000
M  V30 BEGIN CTAB
M  V30 COUNTS 40 41 0 0 0
M  V30 BEGIN ATOM
M  V30 1 C -5.35576 0.233726 -1.50154 0
M  V30 2 C -4.15959 -0.286608 -0.757755 0
M  V30 3 C -3.95869 -1.64025 -0.586963 0
M  V30 4 C -2.86308 -2.16195 0.0958965 0
M  V30 5 N -2.73085 -3.56803 0.226971 0
M  V30 6 C -1.93246 -1.29513 0.628467 0
M  V30 7 S -0.540952 -1.99158 1.49699 0
M  V30 8 S 0.735799 -0.474392 2.21594 0
M  V30 9 C 1.97787 -0.0956353 1.03723 0
M  V30 10 C 2.12778 -0.785853 -0.121382 0
M  V30 11 N 1.29744 -1.87867 -0.485728 0
M  V30 12 C 3.13983 -0.444613 -1.0089 0
M  V30 13 C 3.99203 0.57882 -0.734333 0
M  V30 14 C 5.05893 0.911803 -1.70715 0
M  V30 15 C 3.86408 1.29027 0.42545 0
M  V30 16 C 4.78182 2.40235 0.735522 0
M  V30 17 C 2.85514 0.944646 1.30208 0
M  V30 18 C -2.12212 0.069604 0.464089 0
M  V30 19 C -3.22111 0.566518 -0.219923 0
M  V30 20 C -3.35256 2.03734 -0.352883 0
M  V30 21 H -5.08497 1.02186 -2.22034 0
M  V30 22 H -5.76225 -0.62087 -2.08141 0
M  V30 23 H -6.12775 0.531967 -0.782189 0
M  V30 24 H -4.68498 -2.33971 -1.00177 0
M  V30 25 H -2.87971 -3.98617 1.16696 0
M  V30 26 H -2.49414 -4.19495 -0.565686 0
M  V30 27 H 0.54096 -1.72711 -1.18192 0
M  V30 28 H 1.4482 -2.82537 -0.068931 0
M  V30 29 H 3.2316 -1.00995 -1.91726 0
M  V30 30 H 6.07324 0.783408 -1.23452 0
M  V30 31 H 4.91125 1.9785 -1.99333 0
M  V30 32 H 5.02808 0.240478 -2.58098 0
M  V30 33 H 4.92054 3.04438 -0.177185 0
M  V30 34 H 5.7475 2.02084 1.11452 0
M  V30 35 H 4.35231 3.05947 1.51627 0
M  V30 36 H 2.78864 1.54033 2.21851 0
M  V30 37 H -1.39634 0.734958 0.879818 0
M  V30 38 H -2.85412 2.40287 -1.26897 0
M  V30 39 H -2.93673 2.57099 0.540721 0
M  V30 40 H -4.41486 2.3617 -0.416209 0
M  V30 END ATOM
M  V30 BEGIN BOND
M  V30 1 1 1 2
M  V30 2 2 2 3
M  V30 3 1 3 4
M  V30 4 1 4 5
M  V30 5 2 4 6
M  V30 6 1 6 7
M  V30 7 1 7 8
M  V30 8 1 8 9
M  V30 9 2 9 10
M  V30 10 1 10 11
M  V30 11 1 10 12
M  V30 12 2 12 13
M  V30 13 1 13 14
M  V30 14 1 13 15
M  V30 15 1 15 16
M  V30 16 2 15 17
M  V30 17 1 6 18
M  V30 18 2 18 19
M  V30 19 1 19 20
M  V30 20 1 19 2
M  V30 21 1 17 9
M  V30 22 1 1 21
M  V30 23 1 1 22
M  V30 24 1 1 23
M  V30 25 1 3 24
M  V30 26 1 5 25
M  V30 27 1 5 26
M  V30 28 1 11 27
M  V30 29 1 11 28
M  V30 30 1 12 29
M  V30 31 1 14 30
M  V30 32 1 14 31
M  V30 33 1 14 32
M  V30 34 1 16 33
M  V30 35 1 16 34
M  V30 36 1 16 35
M  V30 37 1 17 36
M  V30 38 1 18 37
M  V30 39 1 20 38
M  V30 40 1 20 39
M  V30 41 1 20 40
M  V30 END BOND
M  V30 END CTAB
M  END
