
     RDKit          3D

  0  0  0  0  0  0  0  0  0  0999 V3000
M  V30 BEGIN CTAB
M  V30 COUNTS 49 50 0 0 0
M  V30 BEGIN ATOM
M  V30 1 N 6.16015 0.335157 3.28702 0
M  V30 2 C 6.51764 1.32976 2.2733 0
M  V30 3 C 5.30881 1.65388 1.40048 0
M  V30 4 O 4.92337 0.433948 0.791921 0
M  V30 5 C 3.83558 0.450416 -0.0621776 0
M  V30 6 C 3.12442 1.59327 -0.338027 0
M  V30 7 C 2.05013 1.53234 -1.20079 0
M  V30 8 C 1.65227 0.358728 -1.80758 0
M  V30 9 C 0.491304 0.315399 -2.73435 0
M  V30 10 C -0.773194 0.0358694 -2.02386 0
M  V30 11 O -0.760378 -0.128118 -0.795962 0
M  V30 12 N -1.97359 -0.0401525 -2.75115 0
M  V30 13 C -3.21654 -0.316881 -2.07537 0
M  V30 14 C -3.25662 -1.64705 -1.37673 0
M  V30 15 C -4.56619 -1.9178 -0.69103 0
M  V30 16 C -4.93425 -0.950829 0.345254 0
M  V30 17 C -5.69202 0.155453 0.0402479 0
M  V30 18 C -6.04986 1.0845 1.01715 0
M  V30 19 C -5.64076 0.893236 2.30099 0
M  V30 20 F -6.00398 1.81265 3.22755 0
M  V30 21 C -4.89121 -0.190076 2.63291 0
M  V30 22 C -4.54453 -1.10008 1.65909 0
M  V30 23 C 2.38062 -0.777032 -1.51641 0
M  V30 24 C 3.46209 -0.757589 -0.658325 0
M  V30 25 N 4.17677 -1.94394 -0.390534 0
M  V30 26 H 6.99219 0.296851 3.93836 0
M  V30 27 H 6.10524 -0.600257 2.84144 0
M  V30 28 H 6.93733 2.24749 2.72701 0
M  V30 29 H 7.28422 0.903187 1.57026 0
M  V30 30 H 5.6073 2.42288 0.685365 0
M  V30 31 H 4.4728 2.0143 2.04097 0
M  V30 32 H 3.41675 2.52435 0.124981 0
M  V30 33 H 1.51863 2.45271 -1.39042 0
M  V30 34 H 0.724334 -0.484685 -3.49343 0
M  V30 35 H 0.366416 1.26016 -3.29292 0
M  V30 36 H -2.0017 0.101618 -3.80743 0
M  V30 37 H -3.42307 0.469782 -1.28555 0
M  V30 38 H -4.05396 -0.189877 -2.79033 0
M  V30 39 H -3.1482 -2.44566 -2.17437 0
M  V30 40 H -2.45055 -1.82997 -0.672876 0
M  V30 41 H -5.37264 -2.02398 -1.47418 0
M  V30 42 H -4.4771 -2.93822 -0.234545 0
M  V30 43 H -6.04715 0.365221 -0.953654 0
M  V30 44 H -6.65184 1.95463 0.750855 0
M  V30 45 H -4.57674 -0.316401 3.67688 0
M  V30 46 H -3.94793 -1.95463 1.94458 0
M  V30 47 H 2.0761 -1.69925 -1.98682 0
M  V30 48 H 4.7698 -2.00349 0.450873 0
M  V30 49 H 4.09972 -2.74183 -1.03921 0
M  V30 END ATOM
M  V30 BEGIN BOND
M  V30 1 1 1 2
M  V30 2 1 2 3
M  V30 3 1 3 4
M  V30 4 1 4 5
M  V30 5 2 5 6
M  V30 6 1 6 7
M  V30 7 2 7 8
M  V30 8 1 8 9
M  V30 9 1 9 10
M  V30 10 2 10 11
M  V30 11 1 10 12
M  V30 12 1 12 13
M  V30 13 1 13 14
M  V30 14 1 14 15
M  V30 15 1 15 16
M  V30 16 2 16 17
M  V30 17 1 17 18
M  V30 18 2 18 19
M  V30 19 1 19 20
M  V30 20 1 19 21
M  V30 21 2 21 22
M  V30 22 1 8 23
M  V30 23 2 23 24
M  V30 24 1 24 25
M  V30 25 1 24 5
M  V30 26 1 22 16
M  V30 27 1 1 26
M  V30 28 1 1 27
M  V30 29 1 2 28
M  V30 30 1 2 29
M  V30 31 1 3 30
M  V30 32 1 3 31
M  V30 33 1 6 32
M  V30 34 1 7 33
M  V30 35 1 9 34
M  V30 36 1 9 35
M  V30 37 1 12 36
M  V30 38 1 13 37
M  V30 39 1 13 38
M  V30 40 1 14 39
M  V30 41 1 14 40
M  V30 42 1 15 41
M  V30 43 1 15 42
M  V30 44 1 17 43
M  V30 45 1 18 44
M  V30 46 1 21 45
M  V30 47 1 22 46
M  V30 48 1 23 47
M  V30 49 1 25 48
M  V30 50 1 25 49
M  V30 END BOND
M  V30 END CTAB
M  END
