
     RDKit          3D

  0  0  0  0  0  0  0  0  0  0999 V3000
M  V30 BEGIN CTAB
M  V30 COUNTS 44 46 0 0 0
M  V30 BEGIN ATOM
M  V30 1 O -1.51095 -0.252254 -1.8339 0
M  V30 2 C -0.776792 0.341545 -0.996457 0
M  V30 3 N 0.345428 -0.340597 -0.469413 0
M  V30 4 C 1.20171 0.314089 0.46354 0
M  V30 5 C 2.36896 1.04346 -0.136669 0
M  V30 6 C 3.08908 1.77116 0.965224 0
M  V30 7 O 4.16148 1.02243 1.50307 0
M  V30 8 C 4.71661 -0.0919183 0.949226 0
M  V30 9 C 4.24711 -0.533797 -0.259161 0
M  V30 10 O 3.22247 0.180136 -0.863517 0
M  V30 11 C 4.81071 -1.65955 -0.814525 0
M  V30 12 C 5.84162 -2.31928 -0.135677 0
M  V30 13 C 6.31644 -1.87797 1.0798 0
M  V30 14 C 5.74643 -0.751545 1.62697 0
M  V30 15 C 0.591253 -1.70189 -0.900986 0
M  V30 16 C -1.06657 1.72822 -0.556615 0
M  V30 17 S -2.58065 2.34333 -1.33821 0
M  V30 18 C -4.00001 1.44832 -0.741081 0
M  V30 19 N -4.68419 1.85275 0.367402 0
M  V30 20 C -5.76318 1.18546 0.817221 0
M  V30 21 N -6.49746 1.58129 1.96893 0
M  V30 22 C -6.15059 0.068673 0.106147 0
M  V30 23 C -5.45126 -0.339062 -1.02124 0
M  V30 24 N -4.39409 0.358274 -1.41873 0
M  V30 25 N -5.82339 -1.48027 -1.77436 0
M  V30 26 H 1.57587 -0.494602 1.16231 0
M  V30 27 H 0.624349 0.988044 1.13305 0
M  V30 28 H 2.00011 1.79133 -0.859333 0
M  V30 29 H 3.51653 2.74155 0.614384 0
M  V30 30 H 2.4221 2.02209 1.81658 0
M  V30 31 H 4.46154 -2.03326 -1.76695 0
M  V30 32 H 6.25332 -3.19934 -0.611164 0
M  V30 33 H 7.12319 -2.3938 1.61185 0
M  V30 34 H 6.12886 -0.417282 2.57968 0
M  V30 35 H -0.359426 -2.19317 -1.25578 0
M  V30 36 H 0.969596 -2.35064 -0.0923315 0
M  V30 37 H 1.24953 -1.70431 -1.80738 0
M  V30 38 H -1.17299 1.76109 0.563729 0
M  V30 39 H -0.262833 2.44858 -0.795645 0
M  V30 40 H -6.25803 1.24252 2.93195 0
M  V30 41 H -7.31141 2.23018 1.90094 0
M  V30 42 H -7.00777 -0.545216 0.379903 0
M  V30 43 H -5.0941 -2.08881 -2.20277 0
M  V30 44 H -6.81859 -1.69595 -1.89001 0
M  V30 END ATOM
M  V30 BEGIN BOND
M  V30 1 2 1 2
M  V30 2 1 2 3
M  V30 3 1 3 4
M  V30 4 1 4 5
M  V30 5 1 5 6
M  V30 6 1 6 7
M  V30 7 1 7 8
M  V30 8 2 8 9
M  V30 9 1 9 10
M  V30 10 1 9 11
M  V30 11 2 11 12
M  V30 12 1 12 13
M  V30 13 2 13 14
M  V30 14 1 3 15
M  V30 15 1 2 16
M  V30 16 1 16 17
M  V30 17 1 17 18
M  V30 18 2 18 19
M  V30 19 1 19 20
M  V30 20 1 20 21
M  V30 21 2 20 22
M  V30 22 1 22 23
M  V30 23 2 23 24
M  V30 24 1 23 25
M  V30 25 1 10 5
M  V30 26 1 24 18
M  V30 27 1 14 8
M  V30 28 1 4 26
M  V30 29 1 4 27
M  V30 30 1 5 28
M  V30 31 1 6 29
M  V30 32 1 6 30
M  V30 33 1 11 31
M  V30 34 1 12 32
M  V30 35 1 13 33
M  V30 36 1 14 34
M  V30 37 1 15 35
M  V30 38 1 15 36
M  V30 39 1 15 37
M  V30 40 1 16 38
M  V30 41 1 16 39
M  V30 42 1 21 40
M  V30 43 1 21 41
M  V30 44 1 22 42
M  V30 45 1 25 43
M  V30 46 1 25 44
M  V30 END BOND
M  V30 END CTAB
M  END
