
     RDKit          3D

  0  0  0  0  0  0  0  0  0  0999 V3000
M  V30 BEGIN CTAB
M  V30 COUNTS 73 75 0 0 0
M  V30 BEGIN ATOM
M  V30 1 C -5.86156 -3.00861 0.348691 0
M  V30 2 C -5.0732 -3.06914 1.65902 0
M  V30 3 O -5.32732 -1.93375 2.3778 0
M  V30 4 C -4.93953 -0.755535 1.67932 0
M  V30 5 C -3.46896 -0.83578 1.49331 0
M  V30 6 N -2.69833 -1.33161 2.46729 0
M  V30 7 C -1.4255 -1.35953 2.04949 0
M  V30 8 C -0.277656 -1.80625 2.66424 0
M  V30 9 N -0.367264 -2.30907 4.01384 0
M  V30 10 N 0.869203 -1.76213 2.00362 0
M  V30 11 C 0.882686 -1.28322 0.747124 0
M  V30 12 C 2.09044 -1.28684 0.0463975 0
M  V30 13 C 2.16978 -0.851287 -1.25378 0
M  V30 14 O 3.38105 -0.864567 -1.92896 0
M  V30 15 C 4.52167 -1.33329 -1.25204 0
M  V30 16 C 5.74925 -1.28151 -2.12443 0
M  V30 17 C 6.91973 -1.79461 -1.3495 0
M  V30 18 C 7.18602 -0.987737 -0.121509 0
M  V30 19 C 7.47769 0.45805 -0.469245 0
M  V30 20 C 7.74384 1.25726 0.779298 0
M  V30 21 N 8.0149 2.62211 0.391718 0
M  V30 22 C 1.0357 -0.395771 -1.89689 0
M  V30 23 C -0.17428 -0.381546 -1.22046 0
M  V30 24 C -0.240763 -0.81579 0.073301 0
M  V30 25 C -1.4399 -0.850841 0.751963 0
M  V30 26 N -2.69904 -0.515033 0.394408 0
M  V30 27 C -3.25363 0.0302914 -0.743301 0
M  V30 28 C -3.54689 1.53275 -0.823184 0
M  V30 29 C -2.32748 2.38883 -0.615311 0
M  V30 30 C -4.00205 1.83455 -2.25561 0
M  V30 31 N -4.51017 1.9144 0.137614 0
M  V30 32 S -5.46866 3.26884 -0.119738 0
M  V30 33 C -4.61968 4.8089 -0.253908 0
M  V30 34 O -6.24362 3.10703 -1.41781 0
M  V30 35 O -6.47235 3.47504 1.02287 0
M  V30 36 H -6.74749 -2.39223 0.493823 0
M  V30 37 H -6.15215 -4.03236 0.0265667 0
M  V30 38 H -5.20856 -2.60216 -0.420843 0
M  V30 39 H -5.45925 -3.94142 2.23481 0
M  V30 40 H -4.02 -3.22699 1.4577 0
M  V30 41 H -5.25066 0.063105 2.36979 0
M  V30 42 H -5.51139 -0.793794 0.740303 0
M  V30 43 H -1.12926 -1.96106 4.6184 0
M  V30 44 H 0.297496 -3.00357 4.40555 0
M  V30 45 H 2.97019 -1.65332 0.583254 0
M  V30 46 H 4.41272 -2.3753 -0.901224 0
M  V30 47 H 4.66279 -0.65728 -0.381559 0
M  V30 48 H 5.8952 -0.244829 -2.49368 0
M  V30 49 H 5.62405 -1.91372 -3.02196 0
M  V30 50 H 6.64005 -2.83125 -1.00007 0
M  V30 51 H 7.82359 -1.94767 -1.97672 0
M  V30 52 H 6.38144 -1.08947 0.603703 0
M  V30 53 H 8.10605 -1.40771 0.34939 0
M  V30 54 H 8.37572 0.484433 -1.09396 0
M  V30 55 H 6.63776 0.925488 -0.992828 0
M  V30 56 H 8.63484 0.826952 1.26409 0
M  V30 57 H 6.87262 1.24522 1.46212 0
M  V30 58 H 7.18118 2.9577 -0.14839 0
M  V30 59 H 8.04423 3.2371 1.24948 0
M  V30 60 H 1.08965 -0.0520238 -2.92167 0
M  V30 61 H -0.991694 -0.0151121 -1.80019 0
M  V30 62 H -2.97876 -0.270336 -1.75667 0
M  V30 63 H -4.35725 -0.391104 -0.766223 0
M  V30 64 H -2.49767 3.44813 -0.48045 0
M  V30 65 H -1.67018 1.9812 0.195183 0
M  V30 66 H -1.7174 2.31111 -1.57127 0
M  V30 67 H -3.20092 1.4154 -2.91739 0
M  V30 68 H -4.01086 2.92409 -2.4301 0
M  V30 69 H -4.93058 1.35594 -2.53328 0
M  V30 70 H -3.95501 2.1077 1.0397 0
M  V30 71 H -5.38619 5.63873 -0.156376 0
M  V30 72 H -3.92935 5.00322 0.611839 0
M  V30 73 H -4.14908 4.99256 -1.23029 0
M  V30 END ATOM
M  V30 BEGIN BOND
M  V30 1 1 1 2
M  V30 2 1 2 3
M  V30 3 1 3 4
M  V30 4 1 4 5
M  V30 5 2 5 6
M  V30 6 1 6 7
M  V30 7 2 7 8
M  V30 8 1 8 9
M  V30 9 1 8 10
M  V30 10 2 10 11
M  V30 11 1 11 12
M  V30 12 2 12 13
M  V30 13 1 13 14
M  V30 14 1 14 15
M  V30 15 1 15 16
M  V30 16 1 16 17
M  V30 17 1 17 18
M  V30 18 1 18 19
M  V30 19 1 19 20
M  V30 20 1 20 21
M  V30 21 1 13 22
M  V30 22 2 22 23
M  V30 23 1 23 24
M  V30 24 2 24 25
M  V30 25 1 25 26
M  V30 26 1 26 27
M  V30 27 1 27 28
M  V30 28 1 28 29
M  V30 29 1 28 30
M  V30 30 1 28 31
M  V30 31 1 31 32
M  V30 32 1 32 33
M  V30 33 2 32 34
M  V30 34 2 32 35
M  V30 35 1 26 5
M  V30 36 1 25 7
M  V30 37 1 24 11
M  V30 38 1 1 36
M  V30 39 1 1 37
M  V30 40 1 1 38
M  V30 41 1 2 39
M  V30 42 1 2 40
M  V30 43 1 4 41
M  V30 44 1 4 42
M  V30 45 1 9 43
M  V30 46 1 9 44
M  V30 47 1 12 45
M  V30 48 1 15 46
M  V30 49 1 15 47
M  V30 50 1 16 48
M  V30 51 1 16 49
M  V30 52 1 17 50
M  V30 53 1 17 51
M  V30 54 1 18 52
M  V30 55 1 18 53
M  V30 56 1 19 54
M  V30 57 1 19 55
M  V30 58 1 20 56
M  V30 59 1 20 57
M  V30 60 1 21 58
M  V30 61 1 21 59
M  V30 62 1 22 60
M  V30 63 1 23 61
M  V30 64 1 27 62
M  V30 65 1 27 63
M  V30 66 1 29 64
M  V30 67 1 29 65
M  V30 68 1 29 66
M  V30 69 1 30 67
M  V30 70 1 30 68
M  V30 71 1 30 69
M  V30 72 1 31 70
M  V30 73 1 33 71
M  V30 74 1 33 72
M  V30 75 1 33 73
M  V30 END BOND
M  V30 END CTAB
M  END
