
     RDKit          3D

  0  0  0  0  0  0  0  0  0  0999 V3000
M  V30 BEGIN CTAB
M  V30 COUNTS 26 27 0 0 0
M  V30 BEGIN ATOM
M  V30 1 N -1.30634 1.50306 -1.65889 0
M  V30 2 C -1.44939 0.403974 -0.748054 0
M  V30 3 C -0.332786 -0.127547 -0.192855 0
M  V30 4 N 0.951779 0.408219 -0.519348 0
M  V30 5 C 2.17146 -0.10659 0.0318352 0
M  V30 6 C 3.34767 0.649286 -0.490292 0
M  V30 7 N 4.5848 0.139855 0.0580695 0
M  V30 8 C -0.322016 -1.19275 0.704375 0
M  V30 9 C -1.56659 -1.70396 1.01407 0
M  V30 10 C -2.73385 -1.16905 0.451119 0
M  V30 11 C -2.70993 -0.122803 -0.426807 0
M  V30 12 N -3.86067 0.29917 -0.893143 0
M  V30 13 C -4.9763 -0.283361 -0.510964 0
M  V30 14 S -4.41221 -1.48915 0.558075 0
M  V30 15 H -1.12551 1.30042 -2.64479 0
M  V30 16 H -1.39186 2.47313 -1.28353 0
M  V30 17 H 0.99107 1.20021 -1.18193 0
M  V30 18 H 2.28831 -1.1725 -0.243572 0
M  V30 19 H 2.1852 -0.0208238 1.14741 0
M  V30 20 H 3.38672 0.62246 -1.60648 0
M  V30 21 H 3.30178 1.73113 -0.211525 0
M  V30 22 H 5.37763 0.324261 -0.59562 0
M  V30 23 H 4.76165 0.458809 1.02342 0
M  V30 24 H 0.551679 -1.60836 1.13854 0
M  V30 25 H -1.73221 -2.52608 1.68972 0
M  V30 26 H -5.9801 0.00900382 -0.854045 0
M  V30 END ATOM
M  V30 BEGIN BOND
M  V30 1 1 1 2
M  V30 2 2 2 3
M  V30 3 1 3 4
M  V30 4 1 4 5
M  V30 5 1 5 6
M  V30 6 1 6 7
M  V30 7 1 3 8
M  V30 8 2 8 9
M  V30 9 1 9 10
M  V30 10 2 10 11
M  V30 11 1 11 12
M  V30 12 2 12 13
M  V30 13 1 13 14
M  V30 14 1 11 2
M  V30 15 1 14 10
M  V30 16 1 1 15
M  V30 17 1 1 16
M  V30 18 1 4 17
M  V30 19 1 5 18
M  V30 20 1 5 19
M  V30 21 1 6 20
M  V30 22 1 6 21
M  V30 23 1 7 22
M  V30 24 1 7 23
M  V30 25 1 8 24
M  V30 26 1 9 25
M  V30 27 1 13 26
M  V30 END BOND
M  V30 END CTAB
M  END
