
     RDKit          3D

  0  0  0  0  0  0  0  0  0  0999 V3000
M  V30 BEGIN CTAB
M  V30 COUNTS 28 29 0 0 0
M  V30 BEGIN ATOM
M  V30 1 N -4.06239 1.45005 1.11287 0
M  V30 2 C -2.89863 0.778797 0.654771 0
M  V30 3 C -1.75792 0.779798 1.41904 0
M  V30 4 C -0.633209 0.124801 0.945711 0
M  V30 5 C -0.576068 -0.538095 -0.25669 0
M  V30 6 C -1.75424 -0.52414 -1.01621 0
M  V30 7 C -2.88142 0.111749 -0.579102 0
M  V30 8 N -4.09182 0.153783 -1.31621 0
M  V30 9 C 0.608004 -1.1904 -0.767636 0
M  V30 10 O 0.508414 -2.17803 -1.54942 0
M  V30 11 C 1.94825 -0.755801 -0.421132 0
M  V30 12 C 2.25284 0.53365 -0.0706991 0
M  V30 13 C 3.53405 0.912318 0.271371 0
M  V30 14 C 4.58175 -0.00635397 0.273787 0
M  V30 15 Cl 6.16498 0.550963 0.714408 0
M  V30 16 C 4.30277 -1.3074 -0.0751893 0
M  V30 17 C 3.01736 -1.66756 -0.412834 0
M  V30 18 H -4.69653 1.08035 1.84953 0
M  V30 19 H -4.31957 2.37566 0.698262 0
M  V30 20 H -1.73889 1.28613 2.38011 0
M  V30 21 H 0.256093 0.125332 1.57638 0
M  V30 22 H -1.74003 -1.03878 -1.96672 0
M  V30 23 H -4.6735 1.0201 -1.2531 0
M  V30 24 H -4.4666 -0.600757 -1.9232 0
M  V30 25 H 1.47472 1.31855 -0.0635879 0
M  V30 26 H 3.78066 1.93028 0.549269 0
M  V30 27 H 5.0932 -2.04254 -0.0824776 0
M  V30 28 H 2.76772 -2.68246 -0.69129 0
M  V30 END ATOM
M  V30 BEGIN BOND
M  V30 1 1 1 2
M  V30 2 2 2 3
M  V30 3 1 3 4
M  V30 4 2 4 5
M  V30 5 1 5 6
M  V30 6 2 6 7
M  V30 7 1 7 8
M  V30 8 1 5 9
M  V30 9 2 9 10
M  V30 10 1 9 11
M  V30 11 2 11 12
M  V30 12 1 12 13
M  V30 13 2 13 14
M  V30 14 1 14 15
M  V30 15 1 14 16
M  V30 16 2 16 17
M  V30 17 1 7 2
M  V30 18 1 17 11
M  V30 19 1 1 18
M  V30 20 1 1 19
M  V30 21 1 3 20
M  V30 22 1 4 21
M  V30 23 1 6 22
M  V30 24 1 8 23
M  V30 25 1 8 24
M  V30 26 1 12 25
M  V30 27 1 13 26
M  V30 28 1 16 27
M  V30 29 1 17 28
M  V30 END BOND
M  V30 END CTAB
M  END
