
     RDKit          3D

  0  0  0  0  0  0  0  0  0  0999 V3000
M  V30 BEGIN CTAB
M  V30 COUNTS 49 50 0 0 0
M  V30 BEGIN ATOM
M  V30 1 N -4.09705 3.92769 3.73331 0
M  V30 2 N -3.30556 2.7917 3.32601 0
M  V30 3 C -3.58643 1.53485 3.82925 0
M  V30 4 O -4.60618 1.54563 4.67342 0
M  V30 5 C -2.96883 0.264906 3.58694 0
M  V30 6 C -3.50592 -0.845175 4.25355 0
M  V30 7 C -3.02476 -2.10421 4.10322 0
M  V30 8 C -1.96911 -2.3004 3.26449 0
M  V30 9 C -1.42825 -1.24119 2.60468 0
M  V30 10 C -1.88613 0.0888499 2.72242 0
M  V30 11 O -1.3465 1.09089 2.07582 0
M  V30 12 C -0.486612 1.65943 1.25112 0
M  V30 13 C 0.989803 1.61568 1.50127 0
M  V30 14 O 1.53144 0.387543 1.49974 0
M  V30 15 C 1.54398 -0.294627 0.298151 0
M  V30 16 C 2.41325 0.38081 -0.725826 0
M  V30 17 O 2.48622 -0.229452 -1.95773 0
M  V30 18 C 1.58838 -0.465072 -2.94426 0
M  V30 19 C 0.261563 -0.021079 -2.84386 0
M  V30 20 C -0.662082 -0.245163 -3.835 0
M  V30 21 C -0.280781 -0.925982 -4.96669 0
M  V30 22 C 1.01267 -1.35684 -5.06135 0
M  V30 23 C 1.98974 -1.14765 -4.06638 0
M  V30 24 C 3.3227 -1.66639 -4.26634 0
M  V30 25 O 3.52755 -2.31082 -5.39001 0
M  V30 26 N 4.44443 -1.59867 -3.45783 0
M  V30 27 N 5.65433 -2.18727 -3.86238 0
M  V30 28 H -4.67782 3.66026 4.55769 0
M  V30 29 H -4.73836 4.21374 2.98297 0
M  V30 30 H -2.5754 3.05063 2.67427 0
M  V30 31 H -4.3597 -0.648564 4.92404 0
M  V30 32 H -3.49034 -2.92046 4.65285 0
M  V30 33 H -1.56511 -3.2794 3.12201 0
M  V30 34 H -0.607061 -1.41904 1.94059 0
M  V30 35 H -0.720544 2.79612 1.22105 0
M  V30 36 H -0.624286 1.32494 0.162881 0
M  V30 37 H 1.4699 2.34563 0.781967 0
M  V30 38 H 1.16471 2.10087 2.52726 0
M  V30 39 H 0.529802 -0.546354 -0.055666 0
M  V30 40 H 2.01603 -1.29772 0.552405 0
M  V30 41 H 2.21209 1.47538 -0.786129 0
M  V30 42 H 3.46248 0.339058 -0.287762 0
M  V30 43 H -0.0538779 0.525169 -1.98388 0
M  V30 44 H -1.69799 0.100794 -3.75929 0
M  V30 45 H -1.0183 -1.10667 -5.76223 0
M  V30 46 H 1.34046 -1.89904 -5.95192 0
M  V30 47 H 4.47124 -1.13255 -2.54466 0
M  V30 48 H 6.34243 -1.41282 -3.97216 0
M  V30 49 H 5.50779 -2.61797 -4.79982 0
M  V30 END ATOM
M  V30 BEGIN BOND
M  V30 1 1 1 2
M  V30 2 1 2 3
M  V30 3 2 3 4
M  V30 4 1 3 5
M  V30 5 2 5 6
M  V30 6 1 6 7
M  V30 7 2 7 8
M  V30 8 1 8 9
M  V30 9 2 9 10
M  V30 10 1 10 11
M  V30 11 1 11 12
M  V30 12 1 12 13
M  V30 13 1 13 14
M  V30 14 1 14 15
M  V30 15 1 15 16
M  V30 16 1 16 17
M  V30 17 1 17 18
M  V30 18 2 18 19
M  V30 19 1 19 20
M  V30 20 2 20 21
M  V30 21 1 21 22
M  V30 22 2 22 23
M  V30 23 1 23 24
M  V30 24 2 24 25
M  V30 25 1 24 26
M  V30 26 1 26 27
M  V30 27 1 10 5
M  V30 28 1 23 18
M  V30 29 1 1 28
M  V30 30 1 1 29
M  V30 31 1 2 30
M  V30 32 1 6 31
M  V30 33 1 7 32
M  V30 34 1 8 33
M  V30 35 1 9 34
M  V30 36 1 12 35
M  V30 37 1 12 36
M  V30 38 1 13 37
M  V30 39 1 13 38
M  V30 40 1 15 39
M  V30 41 1 15 40
M  V30 42 1 16 41
M  V30 43 1 16 42
M  V30 44 1 19 43
M  V30 45 1 20 44
M  V30 46 1 21 45
M  V30 47 1 22 46
M  V30 48 1 26 47
M  V30 49 1 27 48
M  V30 50 1 27 49
M  V30 END BOND
M  V30 END CTAB
M  END
