
     RDKit          3D

  0  0  0  0  0  0  0  0  0  0999 V3000
M  V30 BEGIN CTAB
M  V30 COUNTS 48 49 0 0 0
M  V30 BEGIN ATOM
M  V30 1 N -8.31641 0.655222 2.22581 0
M  V30 2 C -7.1722 0.563599 1.37906 0
M  V30 3 C -5.96341 1.13274 1.72336 0
M  V30 4 C -4.84975 1.04933 0.909967 0
M  V30 5 C -4.90548 0.383084 -0.296486 0
M  V30 6 O -3.81376 0.268016 -1.1558 0
M  V30 7 C -2.55296 0.820195 -0.873772 0
M  V30 8 C -1.64376 0.485733 -2.0333 0
M  V30 9 O -1.56681 -0.889347 -2.15473 0
M  V30 10 C -1.06951 -1.55164 -1.04626 0
M  V30 11 C 0.349361 -1.08607 -0.692398 0
M  V30 12 O 1.12818 -1.35595 -1.78816 0
M  V30 13 C 2.46794 -1.00112 -1.65376 0
M  V30 14 C 2.67236 0.448415 -1.40285 0
M  V30 15 O 4.01349 0.758633 -1.27379 0
M  V30 16 C 4.94718 0.390996 -0.366912 0
M  V30 17 C 6.24988 0.888399 -0.569292 0
M  V30 18 C 7.26558 0.577039 0.292821 0
M  V30 19 C 7.06544 -0.231475 1.39185 0
M  V30 20 N 8.15182 -0.530344 2.26336 0
M  V30 21 C 5.79737 -0.721292 1.59785 0
M  V30 22 C 4.76382 -0.407843 0.726219 0
M  V30 23 C -6.1142 -0.185187 -0.639196 0
M  V30 24 C -7.22918 -0.103115 0.172487 0
M  V30 25 H -9.27893 0.784416 1.88547 0
M  V30 26 H -8.17355 0.586847 3.26993 0
M  V30 27 H -5.93393 1.65907 2.68501 0
M  V30 28 H -3.91562 1.50461 1.20477 0
M  V30 29 H -2.14055 0.482552 0.0963718 0
M  V30 30 H -2.70825 1.92214 -0.791108 0
M  V30 31 H -2.17175 0.854872 -2.9451 0
M  V30 32 H -0.65109 0.975694 -1.93926 0
M  V30 33 H -1.7727 -1.45959 -0.221366 0
M  V30 34 H -1.03358 -2.63824 -1.33935 0
M  V30 35 H 0.272357 -0.0217604 -0.436615 0
M  V30 36 H 0.656382 -1.69733 0.206294 0
M  V30 37 H 2.92274 -1.66572 -0.939974 0
M  V30 38 H 2.9078 -1.21907 -2.68064 0
M  V30 39 H 2.13271 0.794127 -0.484928 0
M  V30 40 H 2.29329 1.0037 -2.30153 0
M  V30 41 H 6.45204 1.53108 -1.42558 0
M  V30 42 H 8.27902 0.969859 0.126816 0
M  V30 43 H 8.16296 -0.231367 3.27245 0
M  V30 44 H 8.95154 -1.05571 1.89384 0
M  V30 45 H 5.61758 -1.35457 2.44948 0
M  V30 46 H 3.80863 -0.812418 0.966622 0
M  V30 47 H -6.1704 -0.71268 -1.58723 0
M  V30 48 H -8.18169 -0.55854 -0.111741 0
M  V30 END ATOM
M  V30 BEGIN BOND
M  V30 1 1 1 2
M  V30 2 2 2 3
M  V30 3 1 3 4
M  V30 4 2 4 5
M  V30 5 1 5 6
M  V30 6 1 6 7
M  V30 7 1 7 8
M  V30 8 1 8 9
M  V30 9 1 9 10
M  V30 10 1 10 11
M  V30 11 1 11 12
M  V30 12 1 12 13
M  V30 13 1 13 14
M  V30 14 1 14 15
M  V30 15 1 15 16
M  V30 16 2 16 17
M  V30 17 1 17 18
M  V30 18 2 18 19
M  V30 19 1 19 20
M  V30 20 1 19 21
M  V30 21 2 21 22
M  V30 22 1 5 23
M  V30 23 2 23 24
M  V30 24 1 24 2
M  V30 25 1 22 16
M  V30 26 1 1 25
M  V30 27 1 1 26
M  V30 28 1 3 27
M  V30 29 1 4 28
M  V30 30 1 7 29
M  V30 31 1 7 30
M  V30 32 1 8 31
M  V30 33 1 8 32
M  V30 34 1 10 33
M  V30 35 1 10 34
M  V30 36 1 11 35
M  V30 37 1 11 36
M  V30 38 1 13 37
M  V30 39 1 13 38
M  V30 40 1 14 39
M  V30 41 1 14 40
M  V30 42 1 17 41
M  V30 43 1 18 42
M  V30 44 1 20 43
M  V30 45 1 20 44
M  V30 46 1 21 45
M  V30 47 1 22 46
M  V30 48 1 23 47
M  V30 49 1 24 48
M  V30 END BOND
M  V30 END CTAB
M  END
