
     RDKit          3D

  0  0  0  0  0  0  0  0  0  0999 V3000
M  V30 BEGIN CTAB
M  V30 COUNTS 52 55 0 0 0
M  V30 BEGIN ATOM
M  V30 1 N 7.03801 0.621966 2.42516 0
M  V30 2 C 6.42354 1.44533 1.42739 0
M  V30 3 N 6.85685 2.70336 1.30761 0
M  V30 4 C 6.31366 3.52496 0.383649 0
M  V30 5 C 5.30298 3.10248 -0.461772 0
M  V30 6 C 4.86534 1.79272 -0.323248 0
M  V30 7 C 5.41664 0.949901 0.618536 0
M  V30 8 C 5.00263 -0.330177 0.770292 0
M  V30 9 C 3.97904 -0.877999 -0.0291068 0
M  V30 10 C 3.75732 -2.26426 0.12269 0
M  V30 11 C 2.65863 -2.8848 0.236081 0
M  V30 12 C 1.32473 -2.45565 0.278334 0
M  V30 13 O 0.439107 -3.44433 0.263498 0
M  V30 14 N 0.76125 -1.20264 0.346085 0
M  V30 15 C -0.694945 -1.06751 0.343719 0
M  V30 16 C -1.26255 -0.10646 1.17947 0
M  V30 17 C -2.61665 0.0748605 1.17866 0
M  V30 18 C -3.48276 -0.66136 0.373067 0
M  V30 19 C -2.89554 -1.59475 -0.433469 0
M  V30 20 C -1.5139 -1.80096 -0.454129 0
M  V30 21 C -4.91249 -0.469516 0.425689 0
M  V30 22 C -5.60968 0.06542 -0.63087 0
M  V30 23 C -6.99654 0.195842 -0.51843 0
M  V30 24 C -7.64703 -0.196874 0.613125 0
M  V30 25 C -6.97906 -0.735326 1.68951 0
M  V30 26 C -5.61468 -0.857638 1.56334 0
M  V30 27 S -4.87593 0.620619 -2.09532 0
M  V30 28 N -3.70014 1.81643 -1.66416 0
M  V30 29 O -4.3693 -0.424699 -2.99954 0
M  V30 30 O -5.92314 1.39059 -2.91028 0
M  V30 31 C 3.45913 -0.0124911 -0.952575 0
M  V30 32 C 3.86348 1.30353 -1.1296 0
M  V30 33 H 7.23542 1.01056 3.38037 0
M  V30 34 H 7.30031 -0.35296 2.24523 0
M  V30 35 H 6.6692 4.54914 0.288957 0
M  V30 36 H 4.85965 3.75438 -1.20753 0
M  V30 37 H 5.47883 -0.948876 1.53466 0
M  V30 38 H 4.70648 -2.9083 0.140427 0
M  V30 39 H 2.74805 -4.04946 0.32903 0
M  V30 40 H 1.23893 -0.291518 0.448639 0
M  V30 41 H -0.583595 0.471028 1.81129 0
M  V30 42 H -3.05641 0.836737 1.8425 0
M  V30 43 H -3.49534 -2.24733 -1.09195 0
M  V30 44 H -1.11173 -2.55394 -1.15055 0
M  V30 45 H -7.59242 0.61492 -1.33304 0
M  V30 46 H -8.73631 -0.108969 0.735954 0
M  V30 47 H -7.50042 -1.05101 2.5998 0
M  V30 48 H -5.03355 -1.27783 2.38494 0
M  V30 49 H -4.00216 2.31193 -0.797844 0
M  V30 50 H -3.60014 2.48211 -2.4402 0
M  V30 51 H 2.68444 -0.404777 -1.62365 0
M  V30 52 H 3.42278 1.94358 -1.86847 0
M  V30 END ATOM
M  V30 BEGIN BOND
M  V30 1 1 1 2
M  V30 2 2 2 3
M  V30 3 1 3 4
M  V30 4 2 4 5
M  V30 5 1 5 6
M  V30 6 2 6 7
M  V30 7 1 7 8
M  V30 8 2 8 9
M  V30 9 1 9 10
M  V30 10 2 10 11
M  V30 11 1 11 12
M  V30 12 2 12 13
M  V30 13 1 12 14
M  V30 14 1 14 15
M  V30 15 2 15 16
M  V30 16 1 16 17
M  V30 17 2 17 18
M  V30 18 1 18 19
M  V30 19 2 19 20
M  V30 20 1 18 21
M  V30 21 2 21 22
M  V30 22 1 22 23
M  V30 23 2 23 24
M  V30 24 1 24 25
M  V30 25 2 25 26
M  V30 26 1 22 27
M  V30 27 1 27 28
M  V30 28 2 27 29
M  V30 29 2 27 30
M  V30 30 1 9 31
M  V30 31 2 31 32
M  V30 32 1 7 2
M  V30 33 1 20 15
M  V30 34 1 26 21
M  V30 35 1 32 6
M  V30 36 1 1 33
M  V30 37 1 1 34
M  V30 38 1 4 35
M  V30 39 1 5 36
M  V30 40 1 8 37
M  V30 41 1 10 38
M  V30 42 1 11 39
M  V30 43 1 14 40
M  V30 44 1 16 41
M  V30 45 1 17 42
M  V30 46 1 19 43
M  V30 47 1 20 44
M  V30 48 1 23 45
M  V30 49 1 24 46
M  V30 50 1 25 47
M  V30 51 1 26 48
M  V30 52 1 28 49
M  V30 53 1 28 50
M  V30 54 1 31 51
M  V30 55 1 32 52
M  V30 END BOND
M  V30 END CTAB
M  END
