
     RDKit          3D

  0  0  0  0  0  0  0  0  0  0999 V3000
M  V30 BEGIN CTAB
M  V30 COUNTS 60 65 0 0 0
M  V30 BEGIN ATOM
M  V30 1 N -2.16431 -0.48104 3.04248 0
M  V30 2 C -1.99427 -0.249811 1.89544 0
M  V30 3 C -1.84661 0.0268496 0.500122 0
M  V30 4 C -2.99003 0.137444 -0.305532 0
M  V30 5 N -2.89443 0.376726 -1.61983 0
M  V30 6 C -1.69822 0.519637 -2.21268 0
M  V30 7 C -0.565469 0.41541 -1.43947 0
M  V30 8 C -0.61005 0.164804 -0.0542644 0
M  V30 9 C 0.561576 0.067395 0.680171 0
M  V30 10 C 0.835515 -0.176931 2.0923 0
M  V30 11 C 2.34591 -0.144957 2.16326 0
M  V30 12 O 3.01509 -0.311508 3.20121 0
M  V30 13 N 2.87403 0.100153 0.884718 0
M  V30 14 C 1.7495 0.227136 -0.011608 0
M  V30 15 N 1.77009 0.465911 -1.33522 0
M  V30 16 C 0.64544 0.564924 -2.07056 0
M  V30 17 N 0.735513 0.821556 -3.47265 0
M  V30 18 C 4.24261 0.197976 0.564238 0
M  V30 19 C 4.90654 1.37115 0.83091 0
M  V30 20 C 6.26424 1.52404 0.536458 0
M  V30 21 C 6.91917 0.454356 -0.0330177 0
M  V30 22 C 6.28951 -0.728666 -0.312236 0
M  V30 23 C 4.93329 -0.839693 -0.00228543 0
M  V30 24 C 6.97085 -1.78569 -0.88355 0
M  V30 25 C 8.30498 -1.68688 -1.19201 0
M  V30 26 C 8.94005 -0.495102 -0.91125 0
M  V30 27 C 8.27678 0.559281 -0.345461 0
M  V30 28 N -1.61868 0.774498 -3.61944 0
M  V30 29 N -4.30082 0.0190844 0.250379 0
M  V30 30 C -4.70245 1.11143 1.07783 0
M  V30 31 C -5.66132 0.622392 2.15095 0
M  V30 32 C -7.09509 0.684302 1.64573 0
M  V30 33 C -7.18584 -0.0268509 0.294376 0
M  V30 34 C -6.39553 -1.3053 0.31575 0
M  V30 35 C -4.97435 -1.17688 -0.126232 0
M  V30 36 H 0.537091 0.622104 2.79012 0
M  V30 37 H 0.609107 -1.21583 2.44239 0
M  V30 38 H 0.801679 0.0539022 -4.15774 0
M  V30 39 H 0.735521 1.8345 -3.75819 0
M  V30 40 H 4.42734 2.23556 1.27826 0
M  V30 41 H 6.76756 2.45575 0.754553 0
M  V30 42 H 4.46069 -1.78673 -0.234717 0
M  V30 43 H 6.47985 -2.72179 -1.10606 0
M  V30 44 H 8.89606 -2.46999 -1.63722 0
M  V30 45 H 9.99782 -0.382555 -1.14373 0
M  V30 46 H 8.7737 1.49256 -0.126647 0
M  V30 47 H -1.5664 -0.0676447 -4.23803 0
M  V30 48 H -1.61474 1.69896 -4.05634 0
M  V30 49 H -5.2063 1.90318 0.446936 0
M  V30 50 H -3.85999 1.59262 1.60566 0
M  V30 51 H -5.60098 1.30735 3.00612 0
M  V30 52 H -5.43912 -0.433673 2.39048 0
M  V30 53 H -7.44343 1.71286 1.50809 0
M  V30 54 H -7.72428 0.203227 2.40996 0
M  V30 55 H -6.86855 0.65846 -0.496597 0
M  V30 56 H -8.26146 -0.255597 0.130153 0
M  V30 57 H -6.48502 -1.80046 1.30538 0
M  V30 58 H -6.90741 -2.01332 -0.400069 0
M  V30 59 H -4.96503 -1.30053 -1.24129 0
M  V30 60 H -4.42695 -2.04567 0.349508 0
M  V30 END ATOM
M  V30 BEGIN BOND
M  V30 1 3 1 2
M  V30 2 1 2 3
M  V30 3 2 3 4
M  V30 4 1 4 5
M  V30 5 2 5 6
M  V30 6 1 6 7
M  V30 7 2 7 8
M  V30 8 1 8 9
M  V30 9 1 9 10
M  V30 10 1 10 11
M  V30 11 2 11 12
M  V30 12 1 11 13
M  V30 13 1 13 14
M  V30 14 1 14 15
M  V30 15 2 15 16
M  V30 16 1 16 17
M  V30 17 1 13 18
M  V30 18 2 18 19
M  V30 19 1 19 20
M  V30 20 2 20 21
M  V30 21 1 21 22
M  V30 22 2 22 23
M  V30 23 1 22 24
M  V30 24 2 24 25
M  V30 25 1 25 26
M  V30 26 2 26 27
M  V30 27 1 6 28
M  V30 28 1 4 29
M  V30 29 1 29 30
M  V30 30 1 30 31
M  V30 31 1 31 32
M  V30 32 1 32 33
M  V30 33 1 33 34
M  V30 34 1 34 35
M  V30 35 1 8 3
M  V30 36 2 14 9
M  V30 37 1 23 18
M  V30 38 1 35 29
M  V30 39 1 16 7
M  V30 40 1 27 21
M  V30 41 1 10 36
M  V30 42 1 10 37
M  V30 43 1 17 38
M  V30 44 1 17 39
M  V30 45 1 19 40
M  V30 46 1 20 41
M  V30 47 1 23 42
M  V30 48 1 24 43
M  V30 49 1 25 44
M  V30 50 1 26 45
M  V30 51 1 27 46
M  V30 52 1 28 47
M  V30 53 1 28 48
M  V30 54 1 30 49
M  V30 55 1 30 50
M  V30 56 1 31 51
M  V30 57 1 31 52
M  V30 58 1 32 53
M  V30 59 1 32 54
M  V30 60 1 33 55
M  V30 61 1 33 56
M  V30 62 1 34 57
M  V30 63 1 34 58
M  V30 64 1 35 59
M  V30 65 1 35 60
M  V30 END BOND
M  V30 END CTAB
M  END
