
     RDKit          3D

  0  0  0  0  0  0  0  0  0  0999 V3000
M  V30 BEGIN CTAB
M  V30 COUNTS 32 32 0 0 0
M  V30 BEGIN ATOM
M  V30 1 C 4.57923 0.465727 1.14548 0
M  V30 2 C 3.2962 0.398566 0.402187 0
M  V30 3 C 2.37175 1.40894 0.489451 0
M  V30 4 C 1.16192 1.33651 -0.216933 0
M  V30 5 C 0.890382 0.243998 -1.00877 0
M  V30 6 C 1.83553 -0.746035 -1.07274 0
M  V30 7 C 3.03299 -0.695402 -0.385961 0
M  V30 8 N 1.56376 -1.87494 -1.88528 0
M  V30 9 S -0.602079 0.11311 -1.90539 0
M  V30 10 C -1.96153 -0.68462 -1.10502 0
M  V30 11 C -2.53259 0.0165377 0.0907876 0
M  V30 12 N -1.52572 0.166835 1.1083 0
M  V30 13 C -3.08479 1.38778 -0.254166 0
M  V30 14 C -3.70787 -0.814245 0.581493 0
M  V30 15 H 5.43532 0.0906237 0.57061 0
M  V30 16 H 4.76725 1.53071 1.36566 0
M  V30 17 H 4.44787 -0.0503342 2.11457 0
M  V30 18 H 2.58881 2.27457 1.11769 0
M  V30 19 H 0.492195 2.16595 -0.0957616 0
M  V30 20 H 3.72485 -1.53284 -0.499327 0
M  V30 21 H 1.29385 -2.75773 -1.37444 0
M  V30 22 H 1.606 -1.90753 -2.90791 0
M  V30 23 H -1.78211 -1.73736 -0.805664 0
M  V30 24 H -2.80328 -0.752454 -1.85678 0
M  V30 25 H -1.29579 -0.780087 1.47431 0
M  V30 26 H -1.93733 0.786228 1.85243 0
M  V30 27 H -3.86068 1.60248 0.520775 0
M  V30 28 H -2.30696 2.17169 -0.229341 0
M  V30 29 H -3.62579 1.34754 -1.22232 0
M  V30 30 H -4.64054 -0.212787 0.671648 0
M  V30 31 H -3.96278 -1.63528 -0.1355 0
M  V30 32 H -3.45807 -1.32616 1.5366 0
M  V30 END ATOM
M  V30 BEGIN BOND
M  V30 1 1 1 2
M  V30 2 2 2 3
M  V30 3 1 3 4
M  V30 4 2 4 5
M  V30 5 1 5 6
M  V30 6 2 6 7
M  V30 7 1 6 8
M  V30 8 1 5 9
M  V30 9 1 9 10
M  V30 10 1 10 11
M  V30 11 1 11 12
M  V30 12 1 11 13
M  V30 13 1 11 14
M  V30 14 1 7 2
M  V30 15 1 1 15
M  V30 16 1 1 16
M  V30 17 1 1 17
M  V30 18 1 3 18
M  V30 19 1 4 19
M  V30 20 1 7 20
M  V30 21 1 8 21
M  V30 22 1 8 22
M  V30 23 1 10 23
M  V30 24 1 10 24
M  V30 25 1 12 25
M  V30 26 1 12 26
M  V30 27 1 13 27
M  V30 28 1 13 28
M  V30 29 1 13 29
M  V30 30 1 14 30
M  V30 31 1 14 31
M  V30 32 1 14 32
M  V30 END BOND
M  V30 END CTAB
M  END
