
     RDKit          3D

  0  0  0  0  0  0  0  0  0  0999 V3000
M  V30 BEGIN CTAB
M  V30 COUNTS 43 45 0 0 0
M  V30 BEGIN ATOM
M  V30 1 N 6.19711 -1.08188 0.243936 0
M  V30 2 C 5.09281 -1.43758 -0.600249 0
M  V30 3 C 3.85179 -0.742928 -0.14496 0
M  V30 4 C 3.83768 0.107326 0.941286 0
M  V30 5 C 2.65294 0.734206 1.32934 0
M  V30 6 C 1.46826 0.531642 0.652911 0
M  V30 7 C 1.48724 -0.315053 -0.427059 0
M  V30 8 C 2.66165 -0.937693 -0.8133 0
M  V30 9 C 0.26164 1.23925 1.13687 0
M  V30 10 N -0.908076 0.958722 0.366523 0
M  V30 11 C -1.75469 -0.146612 0.735849 0
M  V30 12 N -1.38847 -0.869687 1.81001 0
M  V30 13 C -2.12749 -1.91691 2.21697 0
M  V30 14 N -1.75929 -2.70444 3.35914 0
M  V30 15 C -3.26715 -2.22892 1.50614 0
M  V30 16 C -3.67734 -1.51406 0.400636 0
M  V30 17 C -2.89448 -0.43601 0.00168395 0
M  V30 18 O -3.22954 0.328417 -1.08677 0
M  V30 19 C -2.59884 1.50964 -1.47353 0
M  V30 20 C -1.30622 1.71466 -0.770324 0
M  V30 21 O -0.519053 2.59304 -1.18868 0
M  V30 22 C -3.5136 2.66465 -1.04767 0
M  V30 23 C -2.43845 1.50029 -2.97569 0
M  V30 24 H 6.07249 -1.28676 1.24142 0
M  V30 25 H 6.44764 -0.082907 0.059471 0
M  V30 26 H 4.90901 -2.51132 -0.691937 0
M  V30 27 H 5.33223 -1.03108 -1.6253 0
M  V30 28 H 4.76177 0.275631 1.48217 0
M  V30 29 H 2.67419 1.39194 2.18092 0
M  V30 30 H 0.550698 -0.464081 -0.947547 0
M  V30 31 H 2.66212 -1.5942 -1.65568 0
M  V30 32 H 0.48214 2.34099 1.04752 0
M  V30 33 H 0.146711 1.03144 2.21082 0
M  V30 34 H -1.56135 -3.71372 3.24396 0
M  V30 35 H -1.6824 -2.29933 4.3065 0
M  V30 36 H -3.88892 -3.07037 1.80786 0
M  V30 37 H -4.57514 -1.773 -0.145842 0
M  V30 38 H -3.34391 2.81472 0.0432017 0
M  V30 39 H -4.55054 2.30284 -1.25323 0
M  V30 40 H -3.27361 3.59316 -1.60702 0
M  V30 41 H -2.37209 0.450845 -3.29754 0
M  V30 42 H -1.5673 2.08163 -3.32353 0
M  V30 43 H -3.35218 1.99351 -3.39164 0
M  V30 END ATOM
M  V30 BEGIN BOND
M  V30 1 1 1 2
M  V30 2 1 2 3
M  V30 3 2 3 4
M  V30 4 1 4 5
M  V30 5 2 5 6
M  V30 6 1 6 7
M  V30 7 2 7 8
M  V30 8 1 6 9
M  V30 9 1 9 10
M  V30 10 1 10 11
M  V30 11 2 11 12
M  V30 12 1 12 13
M  V30 13 1 13 14
M  V30 14 2 13 15
M  V30 15 1 15 16
M  V30 16 2 16 17
M  V30 17 1 17 18
M  V30 18 1 18 19
M  V30 19 1 19 20
M  V30 20 2 20 21
M  V30 21 1 19 22
M  V30 22 1 19 23
M  V30 23 1 8 3
M  V30 24 1 20 10
M  V30 25 1 17 11
M  V30 26 1 1 24
M  V30 27 1 1 25
M  V30 28 1 2 26
M  V30 29 1 2 27
M  V30 30 1 4 28
M  V30 31 1 5 29
M  V30 32 1 7 30
M  V30 33 1 8 31
M  V30 34 1 9 32
M  V30 35 1 9 33
M  V30 36 1 14 34
M  V30 37 1 14 35
M  V30 38 1 15 36
M  V30 39 1 16 37
M  V30 40 1 22 38
M  V30 41 1 22 39
M  V30 42 1 22 40
M  V30 43 1 23 41
M  V30 44 1 23 42
M  V30 45 1 23 43
M  V30 END BOND
M  V30 END CTAB
M  END
