
     RDKit          3D

  0  0  0  0  0  0  0  0  0  0999 V3000
M  V30 BEGIN CTAB
M  V30 COUNTS 52 55 0 0 0
M  V30 BEGIN ATOM
M  V30 1 N 7.80234 -0.0528825 -0.387176 0
M  V30 2 C 6.36749 -0.0726282 -0.241664 0
M  V30 3 C 5.71427 -0.91621 -1.30688 0
M  V30 4 C 4.66629 0.184375 -1.41606 0
M  V30 5 C 5.66076 1.13292 -0.831035 0
M  V30 6 C 3.43882 -0.0772969 -0.633161 0
M  V30 7 N 3.45826 -0.571247 0.609573 0
M  V30 8 C 2.34081 -0.84527 1.30327 0
M  V30 9 N 2.24459 -1.36116 2.6141 0
M  V30 10 N 1.19973 -0.595039 0.697186 0
M  V30 11 C 1.07952 -0.126419 -0.568559 0
M  V30 12 C 2.21966 0.141704 -1.2672 0
M  V30 13 N -0.143874 0.185318 -1.08458 0
M  V30 14 C -1.13766 -0.625994 -1.7686 0
M  V30 15 C -2.06525 -0.819973 -0.557219 0
M  V30 16 N -1.71763 -1.24793 0.669661 0
M  V30 17 N -2.77595 -1.19764 1.48219 0
M  V30 18 C -3.79034 -0.731849 0.778855 0
M  V30 19 C -3.391 -0.501456 -0.504018 0
M  V30 20 C -4.15486 -0.0824625 -1.73504 0
M  V30 21 C -5.61699 -0.0655855 -1.2538 0
M  V30 22 C -5.73579 1.2284 -0.488597 0
M  V30 23 C -5.54288 1.07364 0.962564 0
M  V30 24 C -5.03979 -0.265863 1.45031 0
M  V30 25 C -0.657854 1.54507 -0.741958 0
M  V30 26 H 8.17946 0.702243 0.229602 0
M  V30 27 H 8.15433 -0.961703 -0.00340153 0
M  V30 28 H 6.06075 -0.318105 0.792104 0
M  V30 29 H 5.26702 -1.86811 -0.950441 0
M  V30 30 H 6.28372 -1.09216 -2.22751 0
M  V30 31 H 4.47786 0.409647 -2.49297 0
M  V30 32 H 6.26355 1.62128 -1.63029 0
M  V30 33 H 5.25131 1.85473 -0.110741 0
M  V30 34 H 2.37181 -2.41669 2.70564 0
M  V30 35 H 2.05574 -0.757665 3.41613 0
M  V30 36 H 2.22024 0.533343 -2.26099 0
M  V30 37 H -1.64792 -0.162357 -2.55312 0
M  V30 38 H -0.623902 -1.55646 -2.04883 0
M  V30 39 H -2.72364 -1.51495 2.46072 0
M  V30 40 H -4.03772 -0.806922 -2.56902 0
M  V30 41 H -3.85316 0.900336 -2.06137 0
M  V30 42 H -5.77911 -0.91934 -0.553555 0
M  V30 43 H -6.25254 -0.177053 -2.11549 0
M  V30 44 H -6.75726 1.64647 -0.710294 0
M  V30 45 H -5.02389 1.99082 -0.897934 0
M  V30 46 H -4.91901 1.90375 1.35522 0
M  V30 47 H -6.54924 1.18803 1.48313 0
M  V30 48 H -4.70125 0.0141633 2.52759 0
M  V30 49 H -5.78504 -1.02477 1.61172 0
M  V30 50 H 0.143639 2.28225 -0.76656 0
M  V30 51 H -1.02205 1.39508 0.314673 0
M  V30 52 H -1.47639 1.7996 -1.41418 0
M  V30 END ATOM
M  V30 BEGIN BOND
M  V30 1 1 1 2
M  V30 2 1 2 3
M  V30 3 1 3 4
M  V30 4 1 4 5
M  V30 5 1 4 6
M  V30 6 2 6 7
M  V30 7 1 7 8
M  V30 8 1 8 9
M  V30 9 2 8 10
M  V30 10 1 10 11
M  V30 11 2 11 12
M  V30 12 1 11 13
M  V30 13 1 13 14
M  V30 14 1 14 15
M  V30 15 2 15 16
M  V30 16 1 16 17
M  V30 17 1 17 18
M  V30 18 2 18 19
M  V30 19 1 19 20
M  V30 20 1 20 21
M  V30 21 1 21 22
M  V30 22 1 22 23
M  V30 23 1 23 24
M  V30 24 1 13 25
M  V30 25 1 5 2
M  V30 26 1 12 6
M  V30 27 1 19 15
M  V30 28 1 24 18
M  V30 29 1 1 26
M  V30 30 1 1 27
M  V30 31 1 2 28
M  V30 32 1 3 29
M  V30 33 1 3 30
M  V30 34 1 4 31
M  V30 35 1 5 32
M  V30 36 1 5 33
M  V30 37 1 9 34
M  V30 38 1 9 35
M  V30 39 1 12 36
M  V30 40 1 14 37
M  V30 41 1 14 38
M  V30 42 1 17 39
M  V30 43 1 20 40
M  V30 44 1 20 41
M  V30 45 1 21 42
M  V30 46 1 21 43
M  V30 47 1 22 44
M  V30 48 1 22 45
M  V30 49 1 23 46
M  V30 50 1 23 47
M  V30 51 1 24 48
M  V30 52 1 24 49
M  V30 53 1 25 50
M  V30 54 1 25 51
M  V30 55 1 25 52
M  V30 END BOND
M  V30 END CTAB
M  END
