
     RDKit          3D

  0  0  0  0  0  0  0  0  0  0999 V3000
M  V30 BEGIN CTAB
M  V30 COUNTS 40 42 0 0 0
M  V30 BEGIN ATOM
M  V30 1 N 6.66016 -0.0109358 -0.906873 0
M  V30 2 C 5.26403 -0.0409958 -0.597036 0
M  V30 3 C 4.38101 -0.793777 -1.34359 0
M  V30 4 C 3.03028 -0.834182 -1.05844 0
M  V30 5 C 2.49333 -0.126624 -0.0155676 0
M  V30 6 C 3.37039 0.633903 0.742466 0
M  V30 7 C 4.73663 0.676622 0.456329 0
M  V30 8 N 1.10147 -0.188661 0.25834 0
M  V30 9 C 0.279766 -1.08057 -0.508738 0
M  V30 10 C -1.03161 -1.40753 0.217347 0
M  V30 11 N -1.70327 -0.182522 0.574492 0
M  V30 12 C -0.943589 0.896352 1.12846 0
M  V30 13 C 0.515418 0.627012 1.28249 0
M  V30 14 C -3.10088 0.0142586 0.403315 0
M  V30 15 C -3.59881 0.535567 -0.772154 0
M  V30 16 N -2.6578 0.862792 -1.79257 0
M  V30 17 C -4.96627 0.728975 -0.941697 0
M  V30 18 C -5.85314 0.403306 0.0626129 0
M  V30 19 C -5.34239 -0.11712 1.233 0
M  V30 20 C -3.9698 -0.318252 1.42047 0
M  V30 21 Cl -3.38243 -0.985645 2.9366 0
M  V30 22 H 7.07611 -0.859562 -1.32304 0
M  V30 23 H 7.27466 0.806833 -0.739416 0
M  V30 24 H 4.80175 -1.35983 -2.17561 0
M  V30 25 H 2.38006 -1.44419 -1.68198 0
M  V30 26 H 2.96774 1.20063 1.57321 0
M  V30 27 H 5.38271 1.27993 1.06998 0
M  V30 28 H 0.0692967 -0.732362 -1.52365 0
M  V30 29 H 0.780283 -2.08518 -0.617969 0
M  V30 30 H -0.796443 -1.98504 1.14803 0
M  V30 31 H -1.61212 -2.03757 -0.48631 0
M  V30 32 H -1.356 1.08336 2.16137 0
M  V30 33 H -1.14513 1.83314 0.561465 0
M  V30 34 H 1.02057 1.63809 1.23697 0
M  V30 35 H 0.766666 0.182144 2.25649 0
M  V30 36 H -2.52595 0.14204 -2.5522 0
M  V30 37 H -2.11604 1.74979 -1.8181 0
M  V30 38 H -5.3332 1.13881 -1.87131 0
M  V30 39 H -6.93072 0.551554 -0.0607185 0
M  V30 40 H -5.98674 -0.394562 2.06353 0
M  V30 END ATOM
M  V30 BEGIN BOND
M  V30 1 1 1 2
M  V30 2 2 2 3
M  V30 3 1 3 4
M  V30 4 2 4 5
M  V30 5 1 5 6
M  V30 6 2 6 7
M  V30 7 1 5 8
M  V30 8 1 8 9
M  V30 9 1 9 10
M  V30 10 1 10 11
M  V30 11 1 11 12
M  V30 12 1 12 13
M  V30 13 1 11 14
M  V30 14 2 14 15
M  V30 15 1 15 16
M  V30 16 1 15 17
M  V30 17 2 17 18
M  V30 18 1 18 19
M  V30 19 2 19 20
M  V30 20 1 20 21
M  V30 21 1 7 2
M  V30 22 1 13 8
M  V30 23 1 20 14
M  V30 24 1 1 22
M  V30 25 1 1 23
M  V30 26 1 3 24
M  V30 27 1 4 25
M  V30 28 1 6 26
M  V30 29 1 7 27
M  V30 30 1 9 28
M  V30 31 1 9 29
M  V30 32 1 10 30
M  V30 33 1 10 31
M  V30 34 1 12 32
M  V30 35 1 12 33
M  V30 36 1 13 34
M  V30 37 1 13 35
M  V30 38 1 16 36
M  V30 39 1 16 37
M  V30 40 1 17 38
M  V30 41 1 18 39
M  V30 42 1 19 40
M  V30 END BOND
M  V30 END CTAB
M  END
