
     RDKit          3D

  0  0  0  0  0  0  0  0  0  0999 V3000
M  V30 BEGIN CTAB
M  V30 COUNTS 37 39 0 0 0
M  V30 BEGIN ATOM
M  V30 1 C -4.18533 -1.14029 2.9826 0
M  V30 2 O -3.40749 -0.706539 1.90895 0
M  V30 3 C -3.96563 -0.183325 0.729811 0
M  V30 4 C -5.31263 -0.0790118 0.590177 0
M  V30 5 C -5.84588 0.427999 -0.553033 0
M  V30 6 C -5.00023 0.829161 -1.5555 0
M  V30 7 C -3.62033 0.731311 -1.43352 0
M  V30 8 C -3.06587 0.220022 -0.281943 0
M  V30 9 N -1.69585 0.0853035 -0.0729262 0
M  V30 10 C -0.672015 0.432444 -0.962461 0
M  V30 11 O -0.796992 0.924671 -2.10237 0
M  V30 12 C 0.740538 0.19423 -0.514864 0
M  V30 13 S 1.25635 -0.459533 0.972416 0
M  V30 14 C 2.95011 -0.403635 0.711737 0
M  V30 15 C 3.04343 0.130293 -0.542464 0
M  V30 16 C 1.8989 0.438978 -1.1755 0
M  V30 17 N 1.8455 1.01517 -2.51728 0
M  V30 18 C 4.36396 0.286015 -1.00752 0
M  V30 19 C 5.43884 -0.0753543 -0.246007 0
M  V30 20 C 5.30104 -0.612347 1.01876 0
M  V30 21 N 4.04182 -0.761446 1.46364 0
M  V30 22 N 6.41969 -0.981748 1.79565 0
M  V30 23 C 6.79839 0.0947798 -0.747617 0
M  V30 24 N 7.86826 0.237452 -1.1626 0
M  V30 25 Cl -5.74274 1.47965 -3.01743 0
M  V30 26 H -4.66797 -2.11999 2.82117 0
M  V30 27 H -5.0242 -0.416027 3.19505 0
M  V30 28 H -3.58321 -1.21781 3.90172 0
M  V30 29 H -5.99089 -0.403436 1.4002 0
M  V30 30 H -6.91824 0.50201 -0.643047 0
M  V30 31 H -3.01949 1.07323 -2.2787 0
M  V30 32 H -1.39451 -0.326192 0.864762 0
M  V30 33 H 1.45963 1.95934 -2.6633 0
M  V30 34 H 2.22422 0.387024 -3.25954 0
M  V30 35 H 4.58421 0.698987 -1.98895 0
M  V30 36 H 7.12314 -1.62229 1.37542 0
M  V30 37 H 6.55149 -0.639087 2.74686 0
M  V30 END ATOM
M  V30 BEGIN BOND
M  V30 1 1 1 2
M  V30 2 1 2 3
M  V30 3 2 3 4
M  V30 4 1 4 5
M  V30 5 2 5 6
M  V30 6 1 6 7
M  V30 7 2 7 8
M  V30 8 1 8 9
M  V30 9 1 9 10
M  V30 10 2 10 11
M  V30 11 1 10 12
M  V30 12 1 12 13
M  V30 13 1 13 14
M  V30 14 2 14 15
M  V30 15 1 15 16
M  V30 16 1 16 17
M  V30 17 1 15 18
M  V30 18 2 18 19
M  V30 19 1 19 20
M  V30 20 2 20 21
M  V30 21 1 20 22
M  V30 22 1 19 23
M  V30 23 3 23 24
M  V30 24 1 6 25
M  V30 25 1 8 3
M  V30 26 2 16 12
M  V30 27 1 21 14
M  V30 28 1 1 26
M  V30 29 1 1 27
M  V30 30 1 1 28
M  V30 31 1 4 29
M  V30 32 1 5 30
M  V30 33 1 7 31
M  V30 34 1 9 32
M  V30 35 1 17 33
M  V30 36 1 17 34
M  V30 37 1 18 35
M  V30 38 1 22 36
M  V30 39 1 22 37
M  V30 END BOND
M  V30 END CTAB
M  END
