
     RDKit          3D

  0  0  0  0  0  0  0  0  0  0999 V3000
M  V30 BEGIN CTAB
M  V30 COUNTS 36 36 0 0 0
M  V30 BEGIN ATOM
M  V30 1 C 6.00774 -0.383259 0.758024 0
M  V30 2 O 5.08751 0.293962 -0.0691959 0
M  V30 3 C 3.71181 0.00499558 -0.0466833 0
M  V30 4 C 3.1815 -0.956791 0.784801 0
M  V30 5 C 1.8382 -1.22224 0.791034 0
M  V30 6 C 0.98103 -0.507529 -0.0602486 0
M  V30 7 C 1.54205 0.438463 -0.871559 0
M  V30 8 C 2.90167 0.72309 -0.89287 0
M  V30 9 N 3.40475 1.72358 -1.76688 0
M  V30 10 N -0.395436 -0.846414 -0.0169292 0
M  V30 11 C -1.43305 -0.0393904 -0.481968 0
M  V30 12 O -1.28539 1.09488 -0.993808 0
M  V30 13 C -2.85446 -0.493937 -0.397108 0 CFG=2
M  V30 14 C -3.67361 0.434701 0.468786 0
M  V30 15 C -5.08984 -0.107712 0.491919 0
M  V30 16 C -3.71177 1.84564 -0.078815 0
M  V30 17 N -2.88199 -1.79793 0.20396 0
M  V30 18 H 5.99102 -1.46503 0.617159 0
M  V30 19 H 5.83174 -0.146575 1.83589 0
M  V30 20 H 7.01566 -0.0214496 0.488717 0
M  V30 21 H 3.82863 -1.52225 1.45249 0
M  V30 22 H 1.42234 -1.99626 1.46394 0
M  V30 23 H 0.915225 1.02001 -1.57174 0
M  V30 24 H 3.99522 1.43955 -2.56135 0
M  V30 25 H 3.17203 2.7157 -1.59342 0
M  V30 26 H -0.616466 -1.79927 0.403436 0
M  V30 27 H -3.31537 -0.518292 -1.40501 0
M  V30 28 H -3.26864 0.401531 1.5033 0
M  V30 29 H -5.48752 -0.0742996 -0.554434 0
M  V30 30 H -5.09529 -1.18145 0.785818 0
M  V30 31 H -5.72834 0.505777 1.13226 0
M  V30 32 H -2.87527 2.46541 0.351154 0
M  V30 33 H -4.65412 2.3692 0.227647 0
M  V30 34 H -3.63058 1.83046 -1.1809 0
M  V30 35 H -2.34905 -2.46407 -0.377043 0
M  V30 36 H -2.48196 -1.76281 1.15962 0
M  V30 END ATOM
M  V30 BEGIN BOND
M  V30 1 1 1 2
M  V30 2 1 2 3
M  V30 3 2 3 4
M  V30 4 1 4 5
M  V30 5 2 5 6
M  V30 6 1 6 7
M  V30 7 2 7 8
M  V30 8 1 8 9
M  V30 9 1 6 10
M  V30 10 1 10 11
M  V30 11 2 11 12
M  V30 12 1 11 13
M  V30 13 1 13 14
M  V30 14 1 14 15
M  V30 15 1 14 16
M  V30 16 1 13 17
M  V30 17 1 8 3
M  V30 18 1 1 18
M  V30 19 1 1 19
M  V30 20 1 1 20
M  V30 21 1 4 21
M  V30 22 1 5 22
M  V30 23 1 7 23
M  V30 24 1 9 24
M  V30 25 1 9 25
M  V30 26 1 10 26
M  V30 27 1 13 27 CFG=3
M  V30 28 1 14 28
M  V30 29 1 15 29
M  V30 30 1 15 30
M  V30 31 1 15 31
M  V30 32 1 16 32
M  V30 33 1 16 33
M  V30 34 1 16 34
M  V30 35 1 17 35
M  V30 36 1 17 36
M  V30 END BOND
M  V30 END CTAB
M  END
