
     RDKit          3D

  0  0  0  0  0  0  0  0  0  0999 V3000
M  V30 BEGIN CTAB
M  V30 COUNTS 48 50 0 0 0
M  V30 BEGIN ATOM
M  V30 1 O -3.00829 -1.32728 -1.23695 0
M  V30 2 C -2.54761 -2.43122 -0.883374 0
M  V30 3 N -2.99522 -2.89707 0.407394 0
M  V30 4 C -3.90449 -2.12032 1.18612 0
M  V30 5 C -3.19989 -0.967634 1.79046 0
M  V30 6 C -3.73434 0.320191 1.67268 0
M  V30 7 C -3.09675 1.41298 2.22539 0
M  V30 8 C -1.91009 1.22188 2.90525 0
M  V30 9 C -1.39488 -0.0470428 3.01471 0
M  V30 10 C -2.02374 -1.16553 2.46307 0
M  V30 11 C -1.62593 -3.296 -1.6043 0
M  V30 12 S -0.93221 -2.71579 -3.13014 0
M  V30 13 C 0.233247 -1.39969 -3.01105 0
M  V30 14 N 1.56656 -1.57858 -2.75957 0
M  V30 15 N 2.16866 -0.414341 -2.77287 0
M  V30 16 C 1.24006 0.509434 -3.02977 0
M  V30 17 N 0.0480945 -0.100848 -3.17719 0
M  V30 18 C -1.18398 0.61369 -3.49819 0
M  V30 19 C 1.43548 1.98398 -3.13664 0
M  V30 20 S 1.17136 2.73825 -1.49264 0
M  V30 21 C 2.42401 2.19116 -0.351777 0
M  V30 22 N 2.17901 1.07028 0.346569 0
M  V30 23 C 3.06632 0.590947 1.23256 0
M  V30 24 N 2.78474 -0.609765 1.96736 0
M  V30 25 C 4.23644 1.26671 1.41704 0
M  V30 26 C 4.49005 2.41476 0.703176 0
M  V30 27 N 3.5716 2.85625 -0.173089 0
M  V30 28 N 5.72054 3.13239 0.894486 0
M  V30 29 H -2.62578 -3.83053 0.751359 0
M  V30 30 H -4.27307 -2.76907 2.03349 0
M  V30 31 H -4.7981 -1.77552 0.59497 0
M  V30 32 H -4.65946 0.388943 1.13061 0
M  V30 33 H -3.54202 2.39024 2.11284 0
M  V30 34 H -1.39165 2.07095 3.34831 0
M  V30 35 H -0.453312 -0.192651 3.55539 0
M  V30 36 H -1.56378 -2.13866 2.58584 0
M  V30 37 H -0.753041 -3.54931 -0.912319 0
M  V30 38 H -2.06311 -4.31588 -1.79627 0
M  V30 39 H -1.96866 -0.0905112 -3.83981 0
M  V30 40 H -0.989174 1.31164 -4.31533 0
M  V30 41 H -1.55757 1.15804 -2.58373 0
M  V30 42 H 2.49189 2.12198 -3.45832 0
M  V30 43 H 0.703804 2.35855 -3.87097 0
M  V30 44 H 3.51986 -1.04746 2.54118 0
M  V30 45 H 1.83998 -1.03223 1.91679 0
M  V30 46 H 4.96019 0.893994 2.12629 0
M  V30 47 H 6.23936 3.10627 1.79532 0
M  V30 48 H 6.10488 3.68943 0.125094 0
M  V30 END ATOM
M  V30 BEGIN BOND
M  V30 1 2 1 2
M  V30 2 1 2 3
M  V30 3 1 3 4
M  V30 4 1 4 5
M  V30 5 2 5 6
M  V30 6 1 6 7
M  V30 7 2 7 8
M  V30 8 1 8 9
M  V30 9 2 9 10
M  V30 10 1 2 11
M  V30 11 1 11 12
M  V30 12 1 12 13
M  V30 13 2 13 14
M  V30 14 1 14 15
M  V30 15 2 15 16
M  V30 16 1 16 17
M  V30 17 1 17 18
M  V30 18 1 16 19
M  V30 19 1 19 20
M  V30 20 1 20 21
M  V30 21 2 21 22
M  V30 22 1 22 23
M  V30 23 1 23 24
M  V30 24 2 23 25
M  V30 25 1 25 26
M  V30 26 2 26 27
M  V30 27 1 26 28
M  V30 28 1 10 5
M  V30 29 1 17 13
M  V30 30 1 27 21
M  V30 31 1 3 29
M  V30 32 1 4 30
M  V30 33 1 4 31
M  V30 34 1 6 32
M  V30 35 1 7 33
M  V30 36 1 8 34
M  V30 37 1 9 35
M  V30 38 1 10 36
M  V30 39 1 11 37
M  V30 40 1 11 38
M  V30 41 1 18 39
M  V30 42 1 18 40
M  V30 43 1 18 41
M  V30 44 1 19 42
M  V30 45 1 19 43
M  V30 46 1 24 44
M  V30 47 1 24 45
M  V30 48 1 25 46
M  V30 49 1 28 47
M  V30 50 1 28 48
M  V30 END BOND
M  V30 END CTAB
M  END
