
     RDKit          3D

  0  0  0  0  0  0  0  0  0  0999 V3000
M  V30 BEGIN CTAB
M  V30 COUNTS 27 28 0 0 0
M  V30 BEGIN ATOM
M  V30 1 N -1.64438 2.44837 1.87679 0
M  V30 2 C -1.92649 1.19026 1.2762 0
M  V30 3 N -1.05448 0.156213 1.37167 0
M  V30 4 C -1.30882 -1.03721 0.808243 0
M  V30 5 S -0.138755 -2.37344 0.952372 0
M  V30 6 C 1.02752 -2.28939 -0.445506 0
M  V30 7 C 1.82618 -1.06069 -0.299995 0
M  V30 8 C 1.38204 0.124984 -0.859436 0
M  V30 9 C 2.08904 1.30036 -0.755766 0
M  V30 10 C 3.28318 1.28084 -0.0656484 0
M  V30 11 C 3.77695 0.121583 0.51548 0
M  V30 12 C 3.03491 -1.03146 0.386022 0
M  V30 13 N -2.46261 -1.21106 0.1295 0
M  V30 14 C -3.36624 -0.200112 0.00884221 0
M  V30 15 N -4.56741 -0.422725 -0.713389 0
M  V30 16 N -3.06144 0.96656 0.589641 0
M  V30 17 H -2.19666 3.29378 1.6118 0
M  V30 18 H -0.903214 2.5491 2.57225 0
M  V30 19 H 0.459103 -2.34927 -1.37862 0
M  V30 20 H 1.74167 -3.15421 -0.320243 0
M  V30 21 H 0.434299 0.0856329 -1.39294 0
M  V30 22 H 1.68749 2.18101 -1.21223 0
M  V30 23 H 3.82472 2.21339 0.00539132 0
M  V30 24 H 4.72542 0.144219 1.05343 0
M  V30 25 H 3.376 -1.95258 0.818132 0
M  V30 26 H -4.71135 -1.25566 -1.31429 0
M  V30 27 H -5.32666 0.28151 -0.631603 0
M  V30 END ATOM
M  V30 BEGIN BOND
M  V30 1 1 1 2
M  V30 2 2 2 3
M  V30 3 1 3 4
M  V30 4 1 4 5
M  V30 5 1 5 6
M  V30 6 1 6 7
M  V30 7 2 7 8
M  V30 8 1 8 9
M  V30 9 2 9 10
M  V30 10 1 10 11
M  V30 11 2 11 12
M  V30 12 2 4 13
M  V30 13 1 13 14
M  V30 14 1 14 15
M  V30 15 2 14 16
M  V30 16 1 16 2
M  V30 17 1 12 7
M  V30 18 1 1 17
M  V30 19 1 1 18
M  V30 20 1 6 19
M  V30 21 1 6 20
M  V30 22 1 8 21
M  V30 23 1 9 22
M  V30 24 1 10 23
M  V30 25 1 11 24
M  V30 26 1 12 25
M  V30 27 1 15 26
M  V30 28 1 15 27
M  V30 END BOND
M  V30 END CTAB
M  END
