
     RDKit          3D

  0  0  0  0  0  0  0  0  0  0999 V3000
M  V30 BEGIN CTAB
M  V30 COUNTS 55 59 0 0 0
M  V30 BEGIN ATOM
M  V30 1 N -2.74303 -1.9181 1.9705 0
M  V30 2 C -1.65406 -1.3239 1.30481 0
M  V30 3 C -1.84701 -0.329029 0.27853 0
M  V30 4 C -0.686661 0.220846 -0.344536 0
M  V30 5 C -1.04811 1.14169 -1.28436 0
M  V30 6 C -0.316473 1.941 -2.14835 0
M  V30 7 N 1.09801 1.8654 -2.13655 0
M  V30 8 N -1.01072 2.75069 -2.95818 0
M  V30 9 C -2.36506 2.76998 -2.91618 0
M  V30 10 N -3.05679 1.99597 -2.0805 0
M  V30 11 C -2.42029 1.16309 -1.24484 0
M  V30 12 N -2.88833 0.261682 -0.28807 0
M  V30 13 C -4.26296 0.0665086 -0.0341478 0
M  V30 14 C -4.90484 -1.23029 -0.419609 0
M  V30 15 C -6.10042 -1.40384 0.499161 0
M  V30 16 C -6.08867 -0.287928 1.50385 0
M  V30 17 C -4.83925 0.544137 1.25788 0
M  V30 18 C 0.683132 -0.157447 -0.0160158 0
M  V30 19 C 1.29923 0.31657 1.10855 0
M  V30 20 C 2.58611 -0.0349901 1.45917 0
M  V30 21 C 3.32112 -0.89719 0.675006 0
M  V30 22 O 4.60921 -1.26317 1.00998 0
M  V30 23 C 5.72024 -0.551776 0.63564 0
M  V30 24 C 6.33823 -0.793073 -0.593835 0
M  V30 25 C 7.45854 -0.0883015 -0.990555 0
M  V30 26 C 7.9834 0.884925 -0.14412 0
M  V30 27 C 7.38166 1.12847 1.06676 0
M  V30 28 C 6.26523 0.416883 1.4466 0
M  V30 29 C 2.70251 -1.38826 -0.47718 0
M  V30 30 C 1.41627 -1.01907 -0.801023 0
M  V30 31 H -2.63635 -2.93549 2.16913 0
M  V30 32 H -2.96868 -1.40058 2.84569 0
M  V30 33 H -1.02682 -0.888018 2.1669 0
M  V30 34 H -0.947193 -2.15259 0.986584 0
M  V30 35 H 1.57222 1.43584 -2.98995 0
M  V30 36 H 1.72448 2.18253 -1.39205 0
M  V30 37 H -2.89584 3.44758 -3.5986 0
M  V30 38 H -4.80441 0.783749 -0.782297 0
M  V30 39 H -4.26055 -2.09348 -0.521147 0
M  V30 40 H -5.39783 -1.18338 -1.45432 0
M  V30 41 H -6.00689 -2.3533 1.0953 0
M  V30 42 H -7.06218 -1.49205 -0.0212826 0
M  V30 43 H -6.0734 -0.652464 2.55944 0
M  V30 44 H -7.02585 0.26916 1.38835 0
M  V30 45 H -5.25834 1.6057 1.18552 0
M  V30 46 H -4.16749 0.623026 2.11108 0
M  V30 47 H 0.820334 1.01244 1.81567 0
M  V30 48 H 3.06704 0.351874 2.36405 0
M  V30 49 H 5.94147 -1.54814 -1.2654 0
M  V30 50 H 7.94676 -0.25991 -1.93117 0
M  V30 51 H 8.85798 1.43151 -0.459399 0
M  V30 52 H 7.82057 1.88927 1.68929 0
M  V30 53 H 5.8461 0.663694 2.41317 0
M  V30 54 H 3.29236 -2.06571 -1.08579 0
M  V30 55 H 1.01227 -1.45273 -1.72416 0
M  V30 END ATOM
M  V30 BEGIN BOND
M  V30 1 1 1 2
M  V30 2 1 2 3
M  V30 3 2 3 4
M  V30 4 1 4 5
M  V30 5 2 5 6
M  V30 6 1 6 7
M  V30 7 1 6 8
M  V30 8 2 8 9
M  V30 9 1 9 10
M  V30 10 2 10 11
M  V30 11 1 11 12
M  V30 12 1 12 13
M  V30 13 1 13 14
M  V30 14 1 14 15
M  V30 15 1 15 16
M  V30 16 1 16 17
M  V30 17 1 4 18
M  V30 18 2 18 19
M  V30 19 1 19 20
M  V30 20 2 20 21
M  V30 21 1 21 22
M  V30 22 1 22 23
M  V30 23 2 23 24
M  V30 24 1 24 25
M  V30 25 2 25 26
M  V30 26 1 26 27
M  V30 27 2 27 28
M  V30 28 1 21 29
M  V30 29 2 29 30
M  V30 30 1 12 3
M  V30 31 1 17 13
M  V30 32 1 30 18
M  V30 33 1 11 5
M  V30 34 1 28 23
M  V30 35 1 1 31
M  V30 36 1 1 32
M  V30 37 1 2 33
M  V30 38 1 2 34
M  V30 39 1 7 35
M  V30 40 1 7 36
M  V30 41 1 9 37
M  V30 42 1 13 38
M  V30 43 1 14 39
M  V30 44 1 14 40
M  V30 45 1 15 41
M  V30 46 1 15 42
M  V30 47 1 16 43
M  V30 48 1 16 44
M  V30 49 1 17 45
M  V30 50 1 17 46
M  V30 51 1 19 47
M  V30 52 1 20 48
M  V30 53 1 24 49
M  V30 54 1 25 50
M  V30 55 1 26 51
M  V30 56 1 27 52
M  V30 57 1 28 53
M  V30 58 1 29 54
M  V30 59 1 30 55
M  V30 END BOND
M  V30 END CTAB
M  END
