
     RDKit          3D

  0  0  0  0  0  0  0  0  0  0999 V3000
M  V30 BEGIN CTAB
M  V30 COUNTS 23 23 0 0 0
M  V30 BEGIN ATOM
M  V30 1 N 3.44263 -1.77921 -0.774742 0
M  V30 2 N 2.12982 -1.45369 -0.513186 0
M  V30 3 C 1.7485 -0.107646 -0.313163 0
M  V30 4 O 2.66897 0.768297 -0.387094 0
M  V30 5 C 0.363185 0.298221 -0.030991 0
M  V30 6 C -0.67218 -0.605936 0.0602172 0
M  V30 7 C -1.95775 -0.179089 0.327042 0
M  V30 8 C -2.16279 1.17114 0.49668 0
M  V30 9 C -1.1337 2.08431 0.407462 0
M  V30 10 C 0.152336 1.66669 0.14147 0
M  V30 11 N 1.20444 2.61394 0.0516386 0
M  V30 12 C -3.05764 -1.1451 0.423411 0
M  V30 13 O -4.22576 -0.817976 0.659833 0
M  V30 14 O -2.78477 -2.49415 0.242084 0
M  V30 15 H 3.72982 -2.7176 -0.429752 0
M  V30 16 H 4.12307 -1.03424 -0.564465 0
M  V30 17 H 1.41476 -2.19822 -0.462097 0
M  V30 18 H -0.486036 -1.66731 -0.0774841 0
M  V30 19 H -3.19345 1.48226 0.707513 0
M  V30 20 H -1.3336 3.14148 0.547144 0
M  V30 21 H 1.84978 2.75536 0.854793 0
M  V30 22 H 1.36871 3.1902 -0.798654 0
M  V30 23 H -3.18834 -2.97176 -0.567659 0
M  V30 END ATOM
M  V30 BEGIN BOND
M  V30 1 1 1 2
M  V30 2 1 2 3
M  V30 3 2 3 4
M  V30 4 1 3 5
M  V30 5 2 5 6
M  V30 6 1 6 7
M  V30 7 2 7 8
M  V30 8 1 8 9
M  V30 9 2 9 10
M  V30 10 1 10 11
M  V30 11 1 7 12
M  V30 12 2 12 13
M  V30 13 1 12 14
M  V30 14 1 10 5
M  V30 15 1 1 15
M  V30 16 1 1 16
M  V30 17 1 2 17
M  V30 18 1 6 18
M  V30 19 1 8 19
M  V30 20 1 9 20
M  V30 21 1 11 21
M  V30 22 1 11 22
M  V30 23 1 14 23
M  V30 END BOND
M  V30 END CTAB
M  END
