
     RDKit          3D

  0  0  0  0  0  0  0  0  0  0999 V3000
M  V30 BEGIN CTAB
M  V30 COUNTS 26 26 0 0 0
M  V30 BEGIN ATOM
M  V30 1 O -3.52554 0.210529 0.145999 0
M  V30 2 C -2.22648 0.178204 -0.225734 0 CFG=2
M  V30 3 C -1.65623 -1.21442 -0.139719 0
M  V30 4 C -0.145654 -1.0806 -0.340569 0
M  V30 5 C 0.461053 -0.394948 0.850472 0 CFG=2
M  V30 6 C -0.614303 0.339108 1.64124 0
M  V30 7 C -1.42769 1.12979 0.632263 0
M  V30 8 N 1.39634 0.615038 0.397738 0
M  V30 9 C 2.37221 0.377268 -0.38714 0
M  V30 10 N 3.22412 1.44577 -0.76358 0
M  V30 11 N 2.58072 -0.930916 -0.859005 0
M  V30 12 H -3.90374 1.05931 0.0890355 0
M  V30 13 H -2.17481 0.490088 -1.29167 0
M  V30 14 H -2.09696 -1.87206 -0.907589 0
M  V30 15 H -1.82829 -1.69918 0.836074 0
M  V30 16 H -0.00967106 -0.496666 -1.27165 0
M  V30 17 H 0.290238 -2.08809 -0.489141 0
M  V30 18 H 0.936631 -1.15937 1.49483 0
M  V30 19 H -0.0781786 1.04816 2.3067 0
M  V30 20 H -1.23961 -0.326279 2.23063 0
M  V30 21 H -2.07231 1.83424 1.16472 0
M  V30 22 H -0.687473 1.64056 -0.0293842 0
M  V30 23 H 4.17885 1.5549 -0.366144 0
M  V30 24 H 2.92648 2.17024 -1.45842 0
M  V30 25 H 2.44524 -1.1612 -1.8492 0
M  V30 26 H 2.87506 -1.66949 -0.19489 0
M  V30 END ATOM
M  V30 BEGIN BOND
M  V30 1 1 1 2
M  V30 2 1 2 3
M  V30 3 1 3 4
M  V30 4 1 4 5
M  V30 5 1 5 6
M  V30 6 1 6 7
M  V30 7 1 5 8
M  V30 8 2 8 9 CFG=2
M  V30 9 1 9 10
M  V30 10 1 9 11
M  V30 11 1 7 2
M  V30 12 1 1 12
M  V30 13 1 2 13 CFG=3
M  V30 14 1 3 14
M  V30 15 1 3 15
M  V30 16 1 4 16
M  V30 17 1 4 17
M  V30 18 1 5 18 CFG=1
M  V30 19 1 6 19
M  V30 20 1 6 20
M  V30 21 1 7 21
M  V30 22 1 7 22
M  V30 23 1 10 23
M  V30 24 1 10 24
M  V30 25 1 11 25
M  V30 26 1 11 26
M  V30 END BOND
M  V30 END CTAB
M  END
