
     RDKit          3D

  0  0  0  0  0  0  0  0  0  0999 V3000
M  V30 BEGIN CTAB
M  V30 COUNTS 42 43 0 0 0
M  V30 BEGIN ATOM
M  V30 1 N 5.6791 -0.204853 0.548949 0
M  V30 2 C 4.6348 0.773161 0.689851 0
M  V30 3 C 3.2475 0.17178 0.522718 0
M  V30 4 C 3.18887 -0.423634 -0.864037 0
M  V30 5 C 1.82029 -0.913506 -1.22972 0
M  V30 6 N 0.756425 -0.363138 -0.425638 0
M  V30 7 C 0.844813 0.882757 0.284143 0
M  V30 8 C 2.27158 1.32027 0.538093 0
M  V30 9 C -0.450327 -1.11762 -0.330012 0
M  V30 10 O -0.556752 -2.24505 -0.931661 0
M  V30 11 C -1.64976 -0.690232 0.439862 0
M  V30 12 C -2.63675 -1.80224 0.486872 0
M  V30 13 C -4.07052 -1.43626 0.567451 0
M  V30 14 C -4.42809 -0.422068 -0.492703 0
M  V30 15 C -3.61741 0.791829 -0.216959 0
M  V30 16 C -2.16102 0.615167 -0.0641588 0
M  V30 17 N -3.91057 1.7611 -1.28438 0
M  V30 18 H 6.46184 0.254292 0.0255615 0
M  V30 19 H 6.07283 -0.486428 1.47587 0
M  V30 20 H 4.72672 1.60363 -0.0353889 0
M  V30 21 H 4.70514 1.21166 1.6958 0
M  V30 22 H 3.04313 -0.601811 1.26458 0
M  V30 23 H 3.88515 -1.29457 -0.874871 0
M  V30 24 H 3.53976 0.287803 -1.62771 0
M  V30 25 H 1.73288 -2.01883 -1.19285 0
M  V30 26 H 1.59106 -0.634291 -2.28949 0
M  V30 27 H 0.394881 1.68068 -0.3396 0
M  V30 28 H 0.365193 0.832969 1.29128 0
M  V30 29 H 2.36043 1.82744 1.51623 0
M  V30 30 H 2.62355 2.05023 -0.220803 0
M  V30 31 H -1.29399 -0.515497 1.48633 0
M  V30 32 H -2.51486 -2.47673 -0.409521 0
M  V30 33 H -2.42659 -2.49027 1.36007 0
M  V30 34 H -4.25946 -0.936714 1.55341 0
M  V30 35 H -4.68481 -2.35298 0.459013 0
M  V30 36 H -4.33526 -0.818134 -1.51543 0
M  V30 37 H -5.49954 -0.165285 -0.335629 0
M  V30 38 H -4.04893 1.27257 0.710741 0
M  V30 39 H -1.69883 0.798243 -1.06474 0
M  V30 40 H -1.8031 1.48322 0.56733 0
M  V30 41 H -4.76903 2.30837 -1.06169 0
M  V30 42 H -3.13033 2.48298 -1.3203 0
M  V30 END ATOM
M  V30 BEGIN BOND
M  V30 1 1 1 2
M  V30 2 1 2 3
M  V30 3 1 3 4
M  V30 4 1 4 5
M  V30 5 1 5 6
M  V30 6 1 6 7
M  V30 7 1 7 8
M  V30 8 1 6 9
M  V30 9 2 9 10
M  V30 10 1 9 11
M  V30 11 1 11 12
M  V30 12 1 12 13
M  V30 13 1 13 14
M  V30 14 1 14 15
M  V30 15 1 15 16
M  V30 16 1 15 17
M  V30 17 1 8 3
M  V30 18 1 16 11
M  V30 19 1 1 18
M  V30 20 1 1 19
M  V30 21 1 2 20
M  V30 22 1 2 21
M  V30 23 1 3 22
M  V30 24 1 4 23
M  V30 25 1 4 24
M  V30 26 1 5 25
M  V30 27 1 5 26
M  V30 28 1 7 27
M  V30 29 1 7 28
M  V30 30 1 8 29
M  V30 31 1 8 30
M  V30 32 1 11 31
M  V30 33 1 12 32
M  V30 34 1 12 33
M  V30 35 1 13 34
M  V30 36 1 13 35
M  V30 37 1 14 36
M  V30 38 1 14 37
M  V30 39 1 15 38
M  V30 40 1 16 39
M  V30 41 1 16 40
M  V30 42 1 17 41
M  V30 43 1 17 42
M  V30 END BOND
M  V30 END CTAB
M  END
