
     RDKit          3D

  0  0  0  0  0  0  0  0  0  0999 V3000
M  V30 BEGIN CTAB
M  V30 COUNTS 18 18 0 0 0
M  V30 BEGIN ATOM
M  V30 1 N -2.95545 1.12129 -0.0791491 0
M  V30 2 N -2.56904 -0.200428 0.164354 0
M  V30 3 C -1.2068 -0.569312 0.180931 0
M  V30 4 C -0.172263 0.285801 -0.0739998 0
M  V30 5 C 1.14151 -0.145577 -0.0398976 0
M  V30 6 N 2.22978 0.724333 -0.310752 0
M  V30 7 N 3.10457 1.05335 0.721289 0
M  V30 8 N 1.38337 -1.46035 0.256718 0
M  V30 9 C 0.372125 -2.31001 0.507943 0
M  V30 10 N -0.877382 -1.84607 0.464216 0
M  V30 11 H -3.04694 1.23663 -1.10471 0
M  V30 12 H -3.92759 1.30047 0.324521 0
M  V30 13 H -3.33 -0.900586 0.329693 0
M  V30 14 H -0.391163 1.32273 -0.301567 0
M  V30 15 H 2.32426 1.09283 -1.27586 0
M  V30 16 H 3.28932 2.10377 0.75394 0
M  V30 17 H 4.03198 0.546848 0.605168 0
M  V30 18 H 0.599692 -3.35569 0.750832 0
M  V30 END ATOM
M  V30 BEGIN BOND
M  V30 1 1 1 2
M  V30 2 1 2 3
M  V30 3 2 3 4
M  V30 4 1 4 5
M  V30 5 1 5 6
M  V30 6 1 6 7
M  V30 7 2 5 8
M  V30 8 1 8 9
M  V30 9 2 9 10
M  V30 10 1 10 3
M  V30 11 1 1 11
M  V30 12 1 1 12
M  V30 13 1 2 13
M  V30 14 1 4 14
M  V30 15 1 6 15
M  V30 16 1 7 16
M  V30 17 1 7 17
M  V30 18 1 9 18
M  V30 END BOND
M  V30 END CTAB
M  END
