
     RDKit          3D

  0  0  0  0  0  0  0  0  0  0999 V3000
M  V30 BEGIN CTAB
M  V30 COUNTS 50 51 0 0 0
M  V30 BEGIN ATOM
M  V30 1 N 6.75525 -0.23678 -0.191584 0
M  V30 2 C 6.24583 0.837584 0.63408 0
M  V30 3 C 4.79837 0.706847 0.977293 0
M  V30 4 N 3.87706 0.683729 -0.0668911 0
M  V30 5 C 3.77916 -0.387013 -0.958608 0
M  V30 6 C 2.34657 -0.927356 -1.03497 0
M  V30 7 N 1.38507 -0.020786 -0.488008 0
M  V30 8 C 1.61691 1.41157 -0.310199 0
M  V30 9 C 3.04386 1.81041 -0.284439 0
M  V30 10 C 0.0880048 -0.453292 -0.134332 0
M  V30 11 O -0.630136 0.414755 0.504086 0
M  V30 12 C -0.543063 -1.70556 -0.385151 0
M  V30 13 C -1.76136 -1.94716 0.0539326 0
M  V30 14 N -2.62066 -1.11382 0.796132 0
M  V30 15 C -3.59851 -0.341747 0.143207 0
M  V30 16 C -4.32345 -0.939965 -0.907942 0
M  V30 17 C -5.28805 -0.245038 -1.58424 0
M  V30 18 C -5.61997 1.07031 -1.29649 0
M  V30 19 C -4.91465 1.65805 -0.271832 0
M  V30 20 C -3.9441 0.960528 0.410414 0
M  V30 21 N -6.62917 1.7484 -2.02836 0
M  V30 22 C -2.50994 -1.14326 2.19724 0
M  V30 23 O -1.59188 -1.8153 2.7844 0
M  V30 24 C -3.43204 -0.41652 3.07415 0
M  V30 25 C 0.0390963 -2.80561 -1.14617 0
M  V30 26 N 0.48593 -3.70241 -1.77102 0
M  V30 27 H 7.59391 0.100248 -0.718525 0
M  V30 28 H 7.04319 -1.05633 0.401712 0
M  V30 29 H 6.49918 1.83149 0.205151 0
M  V30 30 H 6.82204 0.800089 1.59811 0
M  V30 31 H 4.69856 -0.223422 1.58913 0
M  V30 32 H 4.54071 1.54931 1.66844 0
M  V30 33 H 4.39439 -1.23811 -0.54501 0
M  V30 34 H 4.08471 -0.179356 -2.0148 0
M  V30 35 H 2.06168 -1.17952 -2.0685 0
M  V30 36 H 2.3043 -1.84576 -0.377139 0
M  V30 37 H 1.01584 1.7643 0.54307 0
M  V30 38 H 1.15846 1.8888 -1.22157 0
M  V30 39 H 3.17223 2.51771 0.572412 0
M  V30 40 H 3.34545 2.41147 -1.18808 0
M  V30 41 H -2.22819 -2.94449 -0.167796 0
M  V30 42 H -4.08568 -1.97652 -1.15533 0
M  V30 43 H -5.83774 -0.723195 -2.396 0
M  V30 44 H -5.12673 2.66443 -0.0138765 0
M  V30 45 H -3.40678 1.47957 1.21165 0
M  V30 46 H -7.26829 2.45629 -1.61263 0
M  V30 47 H -6.74445 1.53331 -3.03942 0
M  V30 48 H -3.61532 -1.02445 4.00864 0
M  V30 49 H -3.02484 0.572395 3.34616 0
M  V30 50 H -4.45076 -0.268521 2.65952 0
M  V30 END ATOM
M  V30 BEGIN BOND
M  V30 1 1 1 2
M  V30 2 1 2 3
M  V30 3 1 3 4
M  V30 4 1 4 5
M  V30 5 1 5 6
M  V30 6 1 6 7
M  V30 7 1 7 8
M  V30 8 1 8 9
M  V30 9 1 7 10
M  V30 10 2 10 11
M  V30 11 1 10 12
M  V30 12 2 12 13
M  V30 13 1 13 14
M  V30 14 1 14 15
M  V30 15 2 15 16
M  V30 16 1 16 17
M  V30 17 2 17 18
M  V30 18 1 18 19
M  V30 19 2 19 20
M  V30 20 1 18 21
M  V30 21 1 14 22
M  V30 22 2 22 23
M  V30 23 1 22 24
M  V30 24 1 12 25
M  V30 25 3 25 26
M  V30 26 1 9 4
M  V30 27 1 20 15
M  V30 28 1 1 27
M  V30 29 1 1 28
M  V30 30 1 2 29
M  V30 31 1 2 30
M  V30 32 1 3 31
M  V30 33 1 3 32
M  V30 34 1 5 33
M  V30 35 1 5 34
M  V30 36 1 6 35
M  V30 37 1 6 36
M  V30 38 1 8 37
M  V30 39 1 8 38
M  V30 40 1 9 39
M  V30 41 1 9 40
M  V30 42 1 13 41
M  V30 43 1 16 42
M  V30 44 1 17 43
M  V30 45 1 19 44
M  V30 46 1 20 45
M  V30 47 1 21 46
M  V30 48 1 21 47
M  V30 49 1 24 48
M  V30 50 1 24 49
M  V30 51 1 24 50
M  V30 END BOND
M  V30 END CTAB
M  END
